
###############################################################################
#
# This file contains modified crystal structure data generated from the
# MOF subset of the Cambridge Structural Database (CSD) v543 
# hosted by the Cambridge Crystallographic Data Centre (CCDC).
#
# This work is licensed under the Creative Commons
# Attribution-NonCommercial-ShareAlike 4.0 International License.
# To view a copy of this license, visit
# http://creativecommons.org/licenses/by-nc-sa/4.0/
# or send a letter to
# Creative Commons, PO Box 1866, Mountain View, CA 94042, USA.
#
# CIF created using the CSD Python API on 29 September 2022
# The structure has been converted into the P1 space group
# The structure has a 3D framework
# The original CSD entry MEFHUC is in the rhombohedral crystal system
# The framework has been calculated to contain at least 10.0% void space
# The void calculation uses a probe of radius 1.32A, grid spacing 0.4
# The framework is charged, counterions have been retained in the structure
# H atom positions have been added when not included in the experimental data
#
###############################################################################

data_MEFHUC
_chemical_formula_moiety         '(C702 H486 N18 O244 Zn32 22-)n'
_symmetry_cell_setting           triclinic
_symmetry_space_group_name_H-M   'P 1'
_symmetry_Int_Tables_number      1
_space_group_name_Hall           'P 1'
loop_
_symmetry_equiv_pos_site_id
_symmetry_equiv_pos_as_xyz
1 x,y,z
_cell_length_a                   36.061(3)
_cell_length_b                   36.061(3)
_cell_length_c                   24.163(3)
_cell_angle_alpha                90
_cell_angle_beta                 90
_cell_angle_gamma                120
_cell_volume                     27211.8
loop_
_atom_site_label
_atom_site_type_symbol
_atom_site_fract_x
_atom_site_fract_y
_atom_site_fract_z
O28 O 0.00512(16) 0.51095(23) 0.4456(2)
O39 O 0.0041(3) 0.4280(2) 0.4524(3)
O1 O 0.4615(2) 0.4059(2) 0.4857(3)
O2 O 0.52333(18) 0.08652(18) 0.4562(3)
O3 O 0.4630(2) 0.0663(2) 0.5317(3)
O4 O 0.49417(17) 0.00512(16) 0.5544(2)
O5 O 0.4150(2) 0.0153(2) 0.5874(3)
O6 O 0.5672(3) 0.08445(19) 0.3933(3)
O7 O 0.4280(2) 0.4239(2) 0.5476(3)
O8 O 0.3263(3) 0.2011(3) 0.9954(3)
O9 O 0.4383(3) 0.3738(3) 0.3640(5)
O11 O 0.3758(3) 0.0353(2) 0.6601(4)
H1 H 0.3833 0.0197 0.6448
O12 O 0.3164(4) 0.2278(5) 0.9007(5)
H2 H 0.3138 0.2262 0.9345
O13 O 0.4715(3) 0.3419(3) 0.5013(4)
H3 H 0.4744 0.3632 0.4851
C1 C 0.6355(3) 0.2171(2) 0.3827(4)
H4 H 0.6603 0.2308 0.3613
C2 C 0.5769(2) 0.1516(2) 0.4182(3)
C3 C 0.5619(3) 0.1754(3) 0.4458(4)
C4 C 0.3994(3) 0.2120(3) 0.6293(4)
H5 H 0.4021 0.2114 0.5911
C5 C 0.4218(3) 0.0835(3) 0.5895(4)
C6 C 0.5545(3) 0.1044(3) 0.4235(3)
C7 C 0.6137(3) 0.1729(3) 0.3866(4)
C8 C 0.4392(4) 0.1249(3) 0.5665(4)
H6 H 0.4563 0.1320 0.5351
C9 C 0.4428(3) 0.3321(3) 0.5452(4)
C10 C 0.6445(2) 0.2882(2) 0.4090(3)
C11 C 0.6209(2) 0.2412(2) 0.4102(3)
C12 C 0.5834(3) 0.2190(3) 0.4422(4)
H7 H 0.5730 0.2343 0.4613
C13 C 0.4397(3) 0.3989(3) 0.5282(5)
C14 C 0.6888(2) 0.3108(2) 0.4082(4)
C15 C 0.4343(3) 0.0533(3) 0.5685(4)
C16 C 0.4311(4) 0.1549(3) 0.5902(4)
H8 H 0.4444 0.1825 0.5760
C17 C 0.4274(3) 0.3592(3) 0.5613(4)
C18 C 0.3944(3) 0.0743(3) 0.6336(4)
C19 C 0.3835(4) 0.2087(4) 0.7423(5)
C20 C 0.4342(3) 0.2970(3) 0.5753(4)
H9 H 0.4458 0.2803 0.5642
C21 C 0.4087(3) 0.2854(3) 0.6221(5)
C22 C 0.4040(4) 0.1448(3) 0.6340(4)
C23 C 0.3982(3) 0.2471(3) 0.6544(4)
C24 C 0.3966(3) 0.1784(4) 0.6614(5)
C25 C 0.3862(4) 0.1042(3) 0.6550(4)
H10 H 0.3678 0.0968 0.6851
C26 C 0.3883(3) 0.2437(4) 0.7101(5)
H11 H 0.3845 0.2648 0.7268
C27 C 0.3912(3) 0.3124(3) 0.6375(5)
H12 H 0.3735 0.3059 0.6683
C28 C 0.3877(4) 0.1763(4) 0.7152(4)
H13 H 0.3841 0.1528 0.7355
C29 C 0.4115(4) 0.3344(4) 0.3757(7)
H14 H 0.3998 0.3268 0.4109
N1 N 0.4013(4) 0.3059(5) 0.3378(7)
C30 C 0.3564(5) 0.1993(5) 0.9805(6)
C31 C 0.4013(3) 0.3477(3) 0.6055(6)
H15 H 0.3895 0.3646 0.6149
C32 C 0.3427(3) 0.2152(4) 0.8856(5)
C33 C 0.3647(4) 0.2022(4) 0.9173(6)
C34 C 0.3978(6) 0.1946(8) 0.8391(5)
H16 H 0.4169 0.1873 0.8235
C35 C 0.3916(4) 0.1894(6) 0.9003(8)
H17 H 0.4047 0.1787 0.9233
C36 C 0.3768(7) 0.2589(10) 0.3556(15)
H18 H 0.3714 0.2409 0.3238
H19 H 0.3935 0.2536 0.3820
H20 H 0.3501 0.2526 0.3721
C37 C 0.3499(5) 0.2191(6) 0.8257(6)
H21 H 0.3354 0.2282 0.8025
C38 C 0.3793(4) 0.2085(5) 0.8053(5)
O14 O 0.5256(3) 0.1558(3) 0.4792(5)
H22 H 0.5151 0.1297 0.4777
C39 C 0.4232(10) 0.3160(9) 0.2850(11)
H23 H 0.4113 0.2908 0.2623
H24 H 0.4199 0.3378 0.2667
H25 H 0.4531 0.3261 0.2909
Zn1 Zn 0.48233(3) 0.02922(3) 0.48560(4)
Zn2 Zn 0.46397(4) 0.43633(3) 0.40679(4)
O16 O 0.0556(3) 0.4615(2) 0.5143(3)
O18 O 0.91348(18) 0.43681(25) 0.4562(3)
O19 O 0.56319(25) 0.47667(18) 0.4562(3)
O22 O 0.3967(3) 0.4630(2) 0.4683(3)
O24 O 0.9337(2) 0.3967(3) 0.5317(3)
O26 O 0.48905(23) 0.49417(17) 0.4456(2)
O27 O 0.99488(16) 0.48905(23) 0.5544(2)
O31 O 0.3997(3) 0.4150(2) 0.4126(3)
O32 O 0.91555(19) 0.48275(36) 0.3933(3)
O33 O 0.51725(36) 0.4328(3) 0.3933(3)
O38 O 0.5761(2) 0.0041(3) 0.5476(3)
O41 O 0.1252(4) 0.3263(3) 0.0046(3)
O42 O 0.4656(3) 0.4585(4) 0.3287(3)
O50 O 0.3405(4) 0.3758(3) 0.3399(4)
H27 H 0.3636 0.3833 0.3552
O52 O 0.0886(6) 0.3164(4) 0.0993(5)
H29 H 0.0876 0.3138 0.0655
O54 O 0.1296(4) 0.4715(3) 0.4987(4)
H31 H 0.1112 0.4744 0.5149
C40 C 0.7829(2) 0.4184(4) 0.3827(4)
C41 C 0.5816(4) 0.3645(3) 0.3827(4)
H32 H 0.7692 0.4295 0.3613
H33 H 0.5705 0.3397 0.3613
C42 C 0.8484(2) 0.4253(3) 0.4182(3)
C43 C 0.5747(3) 0.4231(2) 0.4182(3)
C44 C 0.8246(3) 0.3865(4) 0.4458(4)
C45 C 0.6135(4) 0.4381(3) 0.4458(4)
C47 C 0.1874(4) 0.3994(3) 0.3707(4)
H35 H 0.1907 0.4021 0.4089
C49 C 0.3383(4) 0.4218(3) 0.4105(4)
C50 C 0.8956(3) 0.4501(4) 0.4235(3)
C51 C 0.5499(4) 0.4455(3) 0.4235(3)
C52 C 0.8271(3) 0.4408(4) 0.3866(4)
C53 C 0.5592(4) 0.3863(3) 0.3866(4)
C55 C 0.3143(5) 0.4392(4) 0.4335(4)
H37 H 0.3243 0.4563 0.4649
C57 C 0.1107(4) 0.4428(3) 0.4548(4)
C58 C 0.7118(2) 0.3563(3) 0.4090(3)
C59 C 0.6437(3) 0.3555(2) 0.4090(3)
C60 C 0.7588(2) 0.3797(3) 0.4102(3)
C61 C 0.6203(3) 0.3791(2) 0.4102(3)
C62 C 0.7810(3) 0.3644(4) 0.4422(4)
C63 C 0.6356(4) 0.4166(3) 0.4422(4)
H38 H 0.7657 0.3387 0.4613
H39 H 0.6613 0.4270 0.4613
C65 C 0.0408(4) 0.4397(3) 0.4718(5)
C66 C 0.6892(2) 0.3780(3) 0.4082(4)
C67 C 0.6220(3) 0.3112(2) 0.4082(4)
C69 C 0.3810(4) 0.4343(3) 0.4315(4)
C71 C 0.2762(5) 0.4311(4) 0.4098(4)
H41 H 0.2619 0.4444 0.4240
C73 C 0.0682(4) 0.4274(3) 0.4387(4)
C75 C 0.3201(4) 0.3944(3) 0.3664(4)
C77 C 0.1748(6) 0.3835(4) 0.2577(5)
C79 C 0.1372(4) 0.4342(3) 0.4247(4)
H43 H 0.1655 0.4458 0.4358
C81 C 0.1233(4) 0.4087(3) 0.3779(5)
C83 C 0.2592(5) 0.4040(4) 0.3660(4)
C85 C 0.1511(4) 0.3982(3) 0.3456(4)
C87 C 0.2182(5) 0.3966(3) 0.3386(5)
C89 C 0.2820(5) 0.3862(4) 0.3450(4)
H45 H 0.2710 0.3678 0.3149
C91 C 0.1446(5) 0.3883(3) 0.2899(5)
H47 H 0.1197 0.3845 0.2732
C93 C 0.0788(4) 0.3912(3) 0.3625(5)
H49 H 0.0676 0.3735 0.3317
C95 C 0.2114(6) 0.3877(4) 0.2848(4)
H51 H 0.2313 0.3841 0.2645
C99 C 0.1571(7) 0.3564(5) 0.0195(6)
C101 C 0.0536(4) 0.4013(3) 0.3945(6)
H55 H 0.0249 0.3895 0.3851
C103 C 0.1275(5) 0.3427(3) 0.1144(5)
C105 C 0.1625(6) 0.3647(4) 0.0827(6)
C107 C 0.2032(10) 0.3978(6) 0.1609(5)
H57 H 0.2296 0.4169 0.1765
C109 C 0.2022(7) 0.3916(4) 0.0997(8)
H59 H 0.2260 0.4047 0.0767
C113 C 0.1308(8) 0.3499(5) 0.1743(6)
H67 H 0.1072 0.3354 0.1975
C115 C 0.1708(6) 0.3793(4) 0.1947(5)
O55 O 0.8442(3) 0.3698(4) 0.4792(5)
O56 O 0.6302(4) 0.4744(3) 0.4792(5)
H68 H 0.8703 0.3854 0.4777
H69 H 0.6146 0.4849 0.4777
Zn4 Zn 0.97078(3) 0.45311(4) 0.48560(4)
Zn5 Zn 0.45311(4) 0.48233(3) 0.51440(4)
Zn6 Zn 0.54689(4) 0.51767(3) 0.48560(4)
Zn11 Zn 0.56367(3) 0.02764(5) 0.40679(4)
Zn13 Zn 0.97236(5) 0.53603(4) 0.40679(4)
Zn15 Zn 0.02764(5) 0.46397(4) 0.59321(4)
H76 H 0.625646 0.154657 0.364538
H77 H 0.70631 0.293453 0.406938
H78 H 0.845343 0.470989 0.364538
H79 H 0.529011 0.374354 0.364538
H80 H 0.587143 0.29369 0.406938
H81 H 0.706547 0.412857 0.406938
O15 O 0.4059(2) 0.9444(3) 0.5143(3)
O20 O 0.47667(18) 0.91348(18) 0.5438(3)
O21 O 0.0663(2) 0.6033(3) 0.4683(3)
O23 O 0.5370(2) 0.9337(2) 0.4683(3)
O25 O 0.50583(17) 0.99488(16) 0.4456(2)
O30 O 0.0153(2) 0.6003(3) 0.4126(3)
O34 O 0.4328(3) 0.91555(19) 0.6067(3)
O36 O 0.4239(2) 0.9959(3) 0.4524(3)
O40 O 0.2011(3) 0.8748(4) 0.0046(3)
O43 O 0.4585(4) 0.9930(3) 0.6713(3)
O45 O 0.3738(3) 0.9355(4) 0.6360(5)
O49 O 0.0353(2) 0.6595(4) 0.3399(4)
H26 H 0.0197 0.6364 0.3552
O51 O 0.2278(5) 0.9114(6) 0.0993(5)
H28 H 0.2262 0.9124 0.0655
O53 O 0.3419(3) 0.8704(4) 0.4987(4)
H30 H 0.3632 0.8888 0.5149
C46 C 0.2120(3) 0.8126(4) 0.3707(4)
H34 H 0.2114 0.8093 0.4089
C48 C 0.0835(3) 0.6617(4) 0.4105(4)
C54 C 0.1249(3) 0.6857(5) 0.4335(4)
H36 H 0.1320 0.6757 0.4649
C56 C 0.3321(3) 0.8893(4) 0.4548(4)
C64 C 0.3989(3) 0.9592(4) 0.4718(5)
C68 C 0.0533(3) 0.6190(4) 0.4315(4)
C70 C 0.1549(3) 0.7238(5) 0.4098(4)
H40 H 0.1825 0.7381 0.4240
C72 C 0.3592(3) 0.9318(4) 0.4387(4)
C74 C 0.0743(3) 0.6799(4) 0.3664(4)
C76 C 0.2087(4) 0.8252(6) 0.2577(5)
C78 C 0.2970(3) 0.8628(4) 0.4247(4)
H42 H 0.2803 0.8345 0.4358
C80 C 0.2854(3) 0.8767(4) 0.3779(5)
C82 C 0.1448(3) 0.7408(5) 0.3660(4)
C84 C 0.2471(3) 0.8489(4) 0.3456(4)
C86 C 0.1784(4) 0.7818(5) 0.3386(5)
C88 C 0.1042(3) 0.7180(5) 0.3450(4)
H44 H 0.0968 0.7290 0.3149
C90 C 0.2437(4) 0.8554(5) 0.2899(5)
H46 H 0.2648 0.8803 0.2732
C92 C 0.3124(3) 0.9212(4) 0.3625(5)
H48 H 0.3059 0.9324 0.3317
C94 C 0.1763(4) 0.7886(6) 0.2848(4)
H50 H 0.1528 0.7687 0.2645
C96 C 0.3344(4) 0.9229(6) 0.6243(7)
H52 H 0.3268 0.9270 0.5891
N2 N 0.3059(5) 0.9046(6) 0.6622(7)
C98 C 0.1993(5) 0.8429(7) 0.0195(6)
C100 C 0.3477(3) 0.9464(4) 0.3945(6)
H54 H 0.3646 0.9751 0.3851
C102 C 0.2152(4) 0.8725(5) 0.1144(5)
C104 C 0.2022(4) 0.8375(6) 0.0827(6)
C106 C 0.1946(8) 0.7968(10) 0.1609(5)
H56 H 0.1873 0.7704 0.1765
C108 C 0.1894(6) 0.7978(7) 0.0997(8)
H58 H 0.1787 0.7740 0.0767
C110 C 0.2589(10) 0.8821(12) 0.6444(15)
H60 H 0.2409 0.8695 0.6762
H62 H 0.2536 0.8601 0.6180
H64 H 0.2526 0.9025 0.6279
C112 C 0.2191(6) 0.8692(8) 0.1743(6)
H66 H 0.2282 0.8928 0.1975
C114 C 0.2085(5) 0.8292(6) 0.1947(5)
C116 C 0.3160(9) 0.8928(13) 0.7150(11)
H70 H 0.2908 0.8795 0.7377
H72 H 0.3378 0.9179 0.7333
H74 H 0.3261 0.8730 0.7091
Zn3 Zn 0.51767(3) 0.97078(3) 0.51440(4)
Zn7 Zn 0.02922(3) 0.54689(4) 0.51440(4)
Zn9 Zn 0.43633(3) 0.97236(5) 0.59321(4)
O17 O 0.9444(3) 0.5385(2) 0.4857(3)
O44 O 0.9930(3) 0.5344(3) 0.3287(3)
O46 O 0.9355(4) 0.5617(3) 0.3640(5)
C97 C 0.9229(6) 0.5885(4) 0.3757(7)
H53 H 0.9270 0.6002 0.4109
N3 N 0.9046(6) 0.5987(4) 0.3378(7)
C111 C 0.8821(12) 0.6232(7) 0.3556(15)
H61 H 0.8695 0.6286 0.3238
H63 H 0.8601 0.6065 0.3820
H65 H 0.9025 0.6499 0.3721
C117 C 0.8928(13) 0.5768(10) 0.2850(11)
H71 H 0.8795 0.5887 0.2623
H73 H 0.9179 0.5801 0.2667
H75 H 0.8730 0.5469 0.2909
O20_2 O 0.08652(18) 0.56319(25) 0.5438(3)
O34_2 O 0.08445(19) 0.51725(36) 0.6067(3)
O43_2 O 0.0070(3) 0.4656(5) 0.6713(3)
O45_2 O 0.0645(4) 0.4383(5) 0.6360(5)
C96_2 C 0.0771(6) 0.4115(7) 0.6243(7)
H52_2 H 0.0730 0.3998 0.5891
N2_2 N 0.0954(6) 0.4013(8) 0.6622(7)
C110_2 C 0.1179(12) 0.3768(16) 0.6444(15)
H60_2 H 0.1305 0.3714 0.6762
H62_2 H 0.1399 0.3935 0.6180
H64_2 H 0.0975 0.3501 0.6279
C116_2 C 0.1072(13) 0.4232(16) 0.7150(11)
H70_2 H 0.1205 0.4113 0.7377
H72_2 H 0.0821 0.4199 0.7333
H74_2 H 0.1270 0.4531 0.7091
O1_2 O 0.5941(2) 0.0556(3) 0.4857(3)
O5_2 O 0.9847(2) 0.3997(3) 0.5874(3)
O8_2 O 0.7989(3) 0.1252(4) 0.9954(3)
O9_2 O 0.6262(3) 0.0645(4) 0.3640(5)
O11_2 O 0.9647(2) 0.3405(4) 0.6601(4)
H1_2 H 0.9803 0.3636 0.6448
O12_2 O 0.7722(5) 0.0886(6) 0.9007(5)
H2_2 H 0.7738 0.0876 0.9345
O13_2 O 0.6581(3) 0.1296(4) 0.5013(4)
H3_2 H 0.6368 0.1112 0.4851
C4_2 C 0.7880(3) 0.1874(4) 0.6293(4)
H5_2 H 0.7886 0.1907 0.5911
C5_2 C 0.9165(3) 0.3383(4) 0.5895(4)
C8_2 C 0.8751(3) 0.3143(5) 0.5665(4)
H6_2 H 0.8680 0.3243 0.5351
C9_2 C 0.6679(3) 0.1107(4) 0.5452(4)
C13_2 C 0.6011(3) 0.0408(4) 0.5282(5)
C15_2 C 0.9467(3) 0.3810(4) 0.5685(4)
C16_2 C 0.8451(3) 0.2762(5) 0.5902(4)
H8_2 H 0.8175 0.2619 0.5760
C17_2 C 0.6408(3) 0.0682(4) 0.5613(4)
C18_2 C 0.9257(3) 0.3201(4) 0.6336(4)
C19_2 C 0.7913(4) 0.1748(6) 0.7423(5)
C20_2 C 0.7030(3) 0.1372(4) 0.5753(4)
H9_2 H 0.7197 0.1655 0.5642
C21_2 C 0.7146(3) 0.1233(4) 0.6221(5)
C22_2 C 0.8552(3) 0.2592(5) 0.6340(4)
C23_2 C 0.7529(3) 0.1511(4) 0.6544(4)
C24_2 C 0.8216(4) 0.2182(5) 0.6614(5)
C25_2 C 0.8958(3) 0.2820(5) 0.6550(4)
H10_2 H 0.9032 0.2710 0.6851
C26_2 C 0.7563(4) 0.1446(5) 0.7101(5)
H11_2 H 0.7352 0.1197 0.7268
C27_2 C 0.6876(3) 0.0788(4) 0.6375(5)
H12_2 H 0.6941 0.0676 0.6683
C28_2 C 0.8237(4) 0.2114(6) 0.7152(4)
H13_2 H 0.8472 0.2313 0.7355
C29_2 C 0.6656(4) 0.0771(6) 0.3757(7)
H14_2 H 0.6732 0.0730 0.4109
N1_2 N 0.6941(5) 0.0954(6) 0.3378(7)
C30_2 C 0.8007(5) 0.1571(7) 0.9805(6)
C31_2 C 0.6523(3) 0.0536(4) 0.6055(6)
H15_2 H 0.6354 0.0249 0.6149
C32_2 C 0.7848(4) 0.1275(5) 0.8856(5)
C33_2 C 0.7978(4) 0.1625(6) 0.9173(6)
C34_2 C 0.8054(8) 0.2032(10) 0.8391(5)
H16_2 H 0.8127 0.2296 0.8235
C35_2 C 0.8106(6) 0.2022(7) 0.9003(8)
H17_2 H 0.8213 0.2260 0.9233
C36_2 C 0.7411(10) 0.1179(12) 0.3556(15)
H18_2 H 0.7591 0.1305 0.3238
H19_2 H 0.7464 0.1399 0.3820
H20_2 H 0.7474 0.0975 0.3721
C37_2 C 0.7809(6) 0.1308(8) 0.8257(6)
H21_2 H 0.7718 0.1072 0.8025
C38_2 C 0.7915(5) 0.1708(6) 0.8053(5)
C39_2 C 0.6840(9) 0.1072(13) 0.2850(11)
H23_2 H 0.7092 0.1205 0.2623
H24_2 H 0.6622 0.0821 0.2667
H25_2 H 0.6739 0.1270 0.2909
O24_2 O 0.6033(3) 0.5370(4) 0.5317(3)
O27_2 O 0.51095(23) 0.50583(28) 0.5544(2)
O38_2 O 0.9959(3) 0.5720(4) 0.5476(3)
O39_2 O 0.5720(2) 0.5761(4) 0.4524(3)
O42_2 O 0.5415(4) 0.0070(5) 0.3287(3)
O16_2 O 0.5385(2) 0.5941(4) 0.5143(3)
O31_2 O 0.5850(2) 0.9847(4) 0.4126(3)
O41_2 O 0.6737(3) 0.7989(5) 0.0046(3)
O50_2 O 0.6242(3) 0.9647(5) 0.3399(4)
H27_2 H 0.6167 0.9803 0.3552
O52_2 O 0.6836(4) 0.7722(7) 0.0993(5)
H29_2 H 0.6862 0.7738 0.0655
O54_2 O 0.5285(3) 0.6581(5) 0.4987(4)
H31_2 H 0.5256 0.6368 0.5149
C47_2 C 0.6006(3) 0.7880(5) 0.3707(4)
H35_2 H 0.5979 0.7886 0.4089
C49_2 C 0.5782(3) 0.9165(5) 0.4105(4)
C55_2 C 0.5608(4) 0.8751(6) 0.4335(4)
H37_2 H 0.5437 0.8680 0.4649
C57_2 C 0.5572(3) 0.6679(5) 0.4548(4)
C65_2 C 0.5603(3) 0.6011(5) 0.4718(5)
C69_2 C 0.5657(3) 0.9467(5) 0.4315(4)
C71_2 C 0.5689(4) 0.8451(6) 0.4098(4)
H41_2 H 0.5556 0.8175 0.4240
C73_2 C 0.5726(3) 0.6408(5) 0.4387(4)
C75_2 C 0.6056(3) 0.9257(5) 0.3664(4)
C77_2 C 0.6165(4) 0.7913(7) 0.2577(5)
C79_2 C 0.5658(3) 0.7030(5) 0.4247(4)
H43_2 H 0.5542 0.7197 0.4358
C81_2 C 0.5913(3) 0.7146(5) 0.3779(5)
C83_2 C 0.5960(4) 0.8552(6) 0.3660(4)
C85_2 C 0.6018(3) 0.7529(5) 0.3456(4)
C87_2 C 0.6034(3) 0.8216(6) 0.3386(5)
C89_2 C 0.6138(4) 0.8958(6) 0.3450(4)
H45_2 H 0.6322 0.9032 0.3149
C91_2 C 0.6117(3) 0.7563(6) 0.2899(5)
H47_2 H 0.6155 0.7352 0.2732
C93_2 C 0.6088(3) 0.6876(5) 0.3625(5)
H49_2 H 0.6265 0.6941 0.3317
C95_2 C 0.6123(4) 0.8237(7) 0.2848(4)
H51_2 H 0.6159 0.8472 0.2645
C99_2 C 0.6436(5) 0.8007(9) 0.0195(6)
C101_2 C 0.5987(3) 0.6523(5) 0.3945(6)
H55_2 H 0.6105 0.6354 0.3851
C103_2 C 0.6573(3) 0.7848(6) 0.1144(5)
C105_2 C 0.6353(4) 0.7978(7) 0.0827(6)
C107_2 C 0.6022(6) 0.8054(12) 0.1609(5)
H57_2 H 0.5831 0.8127 0.1765
C109_2 C 0.6084(4) 0.8106(8) 0.0997(8)
H59_2 H 0.5953 0.8213 0.0767
C113_2 C 0.6501(5) 0.7809(9) 0.1743(6)
H67_2 H 0.6646 0.7718 0.1975
C115_2 C 0.6207(4) 0.7915(7) 0.1947(5)
Zn15_2 Zn 0.53603(4) 0.56367(6) 0.59321(4)
O5_3 O 0.6003(3) 0.5850(2) 0.5874(3)
O8_3 O 0.8748(4) 0.6737(3) 0.9954(3)
O11_3 O 0.6595(4) 0.6242(3) 0.6601(4)
H1_3 H 0.6364 0.6167 0.6448
O12_3 O 0.9114(6) 0.6836(4) 0.9007(5)
H2_3 H 0.9124 0.6862 0.9345
O13_3 O 0.8704(4) 0.5285(3) 0.5013(4)
H3_3 H 0.8888 0.5256 0.4851
C4_3 C 0.8126(4) 0.6006(3) 0.6293(4)
H5_3 H 0.8093 0.5979 0.5911
C5_3 C 0.6617(4) 0.5782(3) 0.5895(4)
C8_3 C 0.6857(5) 0.5608(4) 0.5665(4)
H6_3 H 0.6757 0.5437 0.5351
C9_3 C 0.8893(4) 0.5572(3) 0.5452(4)
C13_3 C 0.9592(4) 0.5603(3) 0.5282(5)
C15_3 C 0.6190(4) 0.5657(3) 0.5685(4)
C16_3 C 0.7238(5) 0.5689(4) 0.5902(4)
H8_3 H 0.7381 0.5556 0.5760
C17_3 C 0.9318(4) 0.5726(3) 0.5613(4)
C18_3 C 0.6799(4) 0.6056(3) 0.6336(4)
C19_3 C 0.8252(6) 0.6165(4) 0.7423(5)
C20_3 C 0.8628(4) 0.5658(3) 0.5753(4)
H9_3 H 0.8345 0.5542 0.5642
C21_3 C 0.8767(4) 0.5913(3) 0.6221(5)
C22_3 C 0.7408(5) 0.5960(4) 0.6340(4)
C23_3 C 0.8489(4) 0.6018(3) 0.6544(4)
C24_3 C 0.7818(5) 0.6034(3) 0.6614(5)
C25_3 C 0.7180(5) 0.6138(4) 0.6550(4)
H10_3 H 0.7290 0.6322 0.6851
C26_3 C 0.8554(5) 0.6117(3) 0.7101(5)
H11_3 H 0.8803 0.6155 0.7268
C27_3 C 0.9212(4) 0.6088(3) 0.6375(5)
H12_3 H 0.9324 0.6265 0.6683
C28_3 C 0.7886(6) 0.6123(4) 0.7152(4)
H13_3 H 0.7687 0.6159 0.7355
C30_3 C 0.8429(7) 0.6436(5) 0.9805(6)
C31_3 C 0.9464(4) 0.5987(3) 0.6055(6)
H15_3 H 0.9751 0.6105 0.6149
C32_3 C 0.8725(5) 0.6573(3) 0.8856(5)
C33_3 C 0.8375(6) 0.6353(4) 0.9173(6)
C34_3 C 0.7968(10) 0.6022(6) 0.8391(5)
H16_3 H 0.7704 0.5831 0.8235
C35_3 C 0.7978(7) 0.6084(4) 0.9003(8)
H17_3 H 0.7740 0.5953 0.9233
C37_3 C 0.8692(8) 0.6501(5) 0.8257(6)
H21_3 H 0.8928 0.6646 0.8025
C38_3 C 0.8292(6) 0.6207(4) 0.8053(5)
O20_3 O 0.43681(25) 0.52333(18) 0.5438(3)
O34_3 O 0.48275(36) 0.5672(3) 0.6067(3)
O43_3 O 0.5344(5) 0.5415(4) 0.6713(3)
O45_3 O 0.5617(5) 0.6262(3) 0.6360(5)
C96_3 C 0.5885(7) 0.6656(4) 0.6243(7)
H52_3 H 0.6002 0.6732 0.5891
N2_3 N 0.5987(8) 0.6941(5) 0.6622(7)
C110_3 C 0.6232(16) 0.7411(10) 0.6444(15)
H60_3 H 0.6286 0.7591 0.6762
H62_3 H 0.6065 0.7464 0.6180
H64_3 H 0.6499 0.7474 0.6279
C116_3 C 0.5768(16) 0.6840(9) 0.7150(11)
H70_3 H 0.5887 0.7092 0.7377
H72_3 H 0.5801 0.6622 0.7333
H74_3 H 0.5469 0.6739 0.7091
O10 O 0.0459(4) 0.5244(4) 0.3459(4)
C19_4 C 0.0502(4) 0.5420(4) 0.0756(5)
H10_4 H 0.0345 0.4301 0.0184
C26_4 C 0.0550(3) 0.5770(4) 0.0434(5)
H11_4 H 0.0512 0.5981 0.0601
H12_4 H 0.0402 0.6392 0.0016
C28_4 C 0.0544(4) 0.5096(4) 0.0485(4)
H13_4 H 0.0508 0.4861 0.0688
C30_4 C 0.0231(5) 0.5326(5) 0.3138(6)
C32_4 C 0.0094(3) 0.5485(4) 0.2189(5)
C33_4 C 0.0314(4) 0.5355(4) 0.2506(6)
C34_4 C 0.0645(6) 0.5279(8) 0.1724(5)
H16_4 H 0.0836 0.5206 0.1568
C35_4 C 0.0583(4) 0.5227(6) 0.2336(8)
H17_4 H 0.0714 0.5120 0.2566
C37_4 C 0.0166(5) 0.5524(6) 0.1590(6)
H21_4 H 0.0021 0.5615 0.1358
C38_4 C 0.0460(4) 0.5418(5) 0.1386(5)
H72_4 H 0.0045 0.2512 0.0666
O12_4 O 0.9831(4) 0.5611(5) 0.2340(5)
H2_4 H 0.9805 0.5595 0.2678
H60_4 H 0.9076 0.2028 0.0095
C116_4 C 0.9827(9) 0.2261(13) 0.0483(11)
H70_4 H 0.9575 0.2128 0.0710
H74_4 H 0.9928 0.2063 0.0424
O10_2 O 0.4756(4) 0.5214(6) 0.3459(4)
O12_5 O 0.4389(5) 0.4219(6) 0.2340(5)
H2_5 H 0.4405 0.4209 0.2678
C19_5 C 0.4580(4) 0.5081(6) 0.0756(5)
H10_5 H 0.5699 0.6043 0.0184
C26_5 C 0.4230(4) 0.4779(5) 0.0434(5)
H11_5 H 0.4019 0.4530 0.0601
H12_5 H 0.3608 0.4009 0.0016
C28_5 C 0.4904(4) 0.5447(6) 0.0485(4)
H13_5 H 0.5139 0.5646 0.0688
C30_5 C 0.4674(5) 0.4904(7) 0.3138(6)
C32_5 C 0.4515(4) 0.4608(5) 0.2189(5)
C33_5 C 0.4645(4) 0.4958(6) 0.2506(6)
C34_5 C 0.4721(8) 0.5365(10) 0.1724(5)
H16_5 H 0.4794 0.5629 0.1568
C35_5 C 0.4773(6) 0.5355(7) 0.2336(8)
H17_5 H 0.4880 0.5593 0.2566
C37_5 C 0.4476(6) 0.4641(8) 0.1590(6)
H21_5 H 0.4385 0.4405 0.1358
C38_5 C 0.4582(5) 0.5041(6) 0.1386(5)
H60_5 H 0.7972 0.7047 0.0095
C116_5 C 0.7739(13) 0.7565(16) 0.0483(11)
H70_5 H 0.7872 0.7446 0.0710
H72_5 H 0.7488 0.7532 0.0666
H74_5 H 0.7937 0.7864 0.0424
O12_6 O 0.5781(6) 0.0169(4) 0.2340(5)
H2_6 H 0.5791 0.0195 0.2678
H60_6 H 0.2953 0.0924 0.0095
C116_6 C 0.2435(16) 0.0173(9) 0.0483(11)
H70_6 H 0.2554 0.0425 0.0710
H74_6 H 0.2136 0.0072 0.0424
O10_3 O 0.4786(6) 0.9541(4) 0.3459(4)
C19_6 C 0.4919(6) 0.9498(4) 0.0756(5)
H10_6 H 0.3957 0.9655 0.0184
C26_6 C 0.5221(5) 0.9450(3) 0.0434(5)
H11_6 H 0.5470 0.9488 0.0601
H12_6 H 0.5991 0.9598 0.0016
C28_6 C 0.4553(6) 0.9456(4) 0.0485(4)
H13_6 H 0.4354 0.9492 0.0688
C30_6 C 0.5096(7) 0.9769(5) 0.3138(6)
C32_6 C 0.5392(5) 0.9906(3) 0.2189(5)
C33_6 C 0.5042(6) 0.9686(4) 0.2506(6)
C34_6 C 0.4635(10) 0.9355(6) 0.1724(5)
H16_6 H 0.4371 0.9164 0.1568
C35_6 C 0.4645(7) 0.9417(4) 0.2336(8)
H17_6 H 0.4407 0.9286 0.2566
C37_6 C 0.5359(8) 0.9834(5) 0.1590(6)
H21_6 H 0.5595 0.9979 0.1358
C38_6 C 0.4959(6) 0.9540(4) 0.1386(5)
H72_6 H 0.2468 0.9955 0.0666
H24_3 H 0.7532 0.0045 0.9334
O48 O 0.5214(6) 0.0459(4) 0.6541(4)
C77_3 C 0.5081(6) 0.0502(4) 0.9244(5)
H45_3 H 0.6043 0.0345 0.9816
C91_3 C 0.4779(5) 0.0550(3) 0.9566(5)
H47_3 H 0.4530 0.0512 0.9399
H49_3 H 0.4009 0.0402 0.9984
C95_3 C 0.5447(6) 0.0544(4) 0.9515(4)
H51_3 H 0.5646 0.0508 0.9312
C99_3 C 0.4904(7) 0.0231(5) 0.6862(6)
C103_3 C 0.4608(5) 0.0094(3) 0.7811(5)
C105_3 C 0.4958(6) 0.0314(4) 0.7494(6)
C107_3 C 0.5365(10) 0.0645(6) 0.8276(5)
H57_3 H 0.5629 0.0836 0.8432
C109_3 C 0.5355(7) 0.0583(4) 0.7664(8)
H59_3 H 0.5593 0.0714 0.7434
C113_3 C 0.4641(8) 0.0166(5) 0.8410(6)
H67_3 H 0.4405 0.0021 0.8642
C115_3 C 0.5041(6) 0.0460(4) 0.8614(5)
H18_3 H 0.7047 0.9076 0.9905
C39_3 C 0.7565(10) 0.9827(9) 0.9517(11)
H23_3 H 0.7446 0.9575 0.9290
H25_3 H 0.7864 0.9928 0.9576
O47 O 0.5244(4) 0.4786(6) 0.6541(4)
O51_2 O 0.5611(5) 0.5781(6) 0.7660(5)
O52_3 O 0.4219(6) 0.9831(4) 0.7660(5)
H28_2 H 0.5595 0.5791 0.7322
H29_3 H 0.4209 0.9805 0.7322
C76_2 C 0.5420(4) 0.4919(6) 0.9244(5)
H44_2 H 0.4301 0.3957 0.9816
C90_2 C 0.5770(4) 0.5221(5) 0.9566(5)
H46_2 H 0.5981 0.5470 0.9399
H48_2 H 0.6392 0.5991 0.9984
C94_2 C 0.5096(4) 0.4553(6) 0.9515(4)
H50_2 H 0.4861 0.4354 0.9312
C98_2 C 0.5326(5) 0.5096(7) 0.6862(6)
C102_2 C 0.5485(4) 0.5392(5) 0.7811(5)
C104_2 C 0.5355(4) 0.5042(6) 0.7494(6)
C106_2 C 0.5279(8) 0.4635(10) 0.8276(5)
H56_2 H 0.5206 0.4371 0.8432
C108_2 C 0.5227(6) 0.4645(7) 0.7664(8)
H58_2 H 0.5120 0.4407 0.7434
H61_2 H 0.2028 0.2953 0.9905
C112_2 C 0.5524(6) 0.5359(8) 0.8410(6)
H66_2 H 0.5615 0.5595 0.8642
C114_2 C 0.5418(5) 0.4959(6) 0.8614(5)
C117_2 C 0.2261(13) 0.2435(10) 0.9517(11)
H71_2 H 0.2128 0.2554 0.9290
H73_2 H 0.2512 0.2468 0.9334
H75_2 H 0.2063 0.2136 0.9576
H18_4 H 0.0924 0.7972 0.9905
C39_4 C 0.0173(9) 0.7739(13) 0.9517(11)
H23_4 H 0.0425 0.7872 0.9290
H25_4 H 0.0072 0.7937 0.9576
O52_4 O 0.0169(4) 0.4389(7) 0.7660(5)
H29_4 H 0.0195 0.4405 0.7322
H24_4 H 0.9955 0.7488 0.9334
O48_2 O 0.9541(4) 0.4756(7) 0.6541(4)
C77_4 C 0.9498(4) 0.4580(7) 0.9244(5)
H45_4 H 0.9655 0.5699 0.9816
C91_4 C 0.9450(3) 0.4230(6) 0.9566(5)
H47_4 H 0.9488 0.4019 0.9399
H49_4 H 0.9598 0.3608 0.9984
C95_4 C 0.9456(4) 0.4904(7) 0.9515(4)
H51_4 H 0.9492 0.5139 0.9312
C99_4 C 0.9769(5) 0.4674(9) 0.6862(6)
C103_4 C 0.9906(3) 0.4515(6) 0.7811(5)
C105_4 C 0.9686(4) 0.4645(7) 0.7494(6)
C107_4 C 0.9355(6) 0.4721(12) 0.8276(5)
H57_4 H 0.9164 0.4794 0.8432
C109_4 C 0.9417(4) 0.4773(8) 0.7664(8)
H59_4 H 0.9286 0.4880 0.7434
C113_4 C 0.9834(5) 0.4476(9) 0.8410(6)
H67_4 H 0.9979 0.4385 0.8642
C115_4 C 0.9540(4) 0.4582(7) 0.8614(5)
C1_2 C 0.3645(3) 0.7829(2) 0.6173(4)
H4_2 H 0.3397 0.7692 0.6387
C2_2 C 0.4231(2) 0.8484(2) 0.5818(3)
C3_2 C 0.4381(3) 0.8246(3) 0.5542(4)
C6_2 C 0.4455(3) 0.8956(3) 0.5765(3)
C7_2 C 0.3863(3) 0.8271(3) 0.6134(4)
C10_2 C 0.3555(2) 0.7118(2) 0.5910(3)
C11_2 C 0.3791(2) 0.7588(2) 0.5898(3)
C12_2 C 0.4166(3) 0.7810(3) 0.5578(4)
H7_2 H 0.4270 0.7657 0.5387
C14_2 C 0.3112(2) 0.6892(2) 0.5918(4)
O14_2 O 0.4744(3) 0.8442(3) 0.5208(5)
H22_2 H 0.4849 0.8703 0.5223
C40_2 C 0.2171(2) 0.5816(4) 0.6173(4)
C41_2 C 0.4184(4) 0.6355(3) 0.6173(4)
H32_2 H 0.2308 0.5705 0.6387
H33_2 H 0.4295 0.6603 0.6387
C42_2 C 0.1516(2) 0.5747(3) 0.5818(3)
C43_2 C 0.4253(3) 0.5769(2) 0.5818(3)
C44_2 C 0.1754(3) 0.6135(4) 0.5542(4)
C45_2 C 0.3865(4) 0.5619(3) 0.5542(4)
C50_2 C 0.1044(3) 0.5499(4) 0.5765(3)
C51_2 C 0.4501(4) 0.5545(3) 0.5765(3)
C52_2 C 0.1729(3) 0.5592(4) 0.6134(4)
C53_2 C 0.4408(4) 0.6137(3) 0.6134(4)
C58_2 C 0.2882(2) 0.6437(3) 0.5910(3)
C59_2 C 0.3563(3) 0.6445(2) 0.5910(3)
C60_2 C 0.2412(2) 0.6203(3) 0.5898(3)
C61_2 C 0.3797(3) 0.6209(2) 0.5898(3)
C62_2 C 0.2190(3) 0.6356(4) 0.5578(4)
C63_2 C 0.3644(4) 0.5834(3) 0.5578(4)
H38_2 H 0.2343 0.6613 0.5387
H39_2 H 0.3387 0.5730 0.5387
C66_2 C 0.3108(2) 0.6220(3) 0.5918(4)
C67_2 C 0.3780(3) 0.6888(2) 0.5918(4)
O55_2 O 0.1558(3) 0.6302(4) 0.5208(5)
O56_2 O 0.3698(4) 0.5256(3) 0.5208(5)
H68_2 H 0.1297 0.6146 0.5223
H69_2 H 0.3854 0.5151 0.5223
H76_2 H 0.374354 0.845343 0.635462
H77_2 H 0.29369 0.706547 0.593062
H78_2 H 0.154657 0.529011 0.635462
H79_2 H 0.470989 0.625646 0.635462
H80_2 H 0.412857 0.70631 0.593062
H81_2 H 0.293453 0.587143 0.593062
O10_4 O 0.3792(4) 0.1911(4) 0.0126(4)
Zn12 Zn 0.30569(5) 0.20270(4) 0.07346(4)
O48_3 O 0.1881(6) 0.3792(4) 0.9874(4)
Zn16 Zn 0.10300(3) 0.30569(5) 0.92654(4)
O47_2 O 0.1911(4) 0.8119(6) 0.9874(4)
Zn14 Zn 0.20270(4) 0.89700(3) 0.92654(4)
O10_5 O 0.8089(4) 0.1881(6) 0.0126(4)
Zn12_2 Zn 0.79730(4) 0.10300(6) 0.07346(4)
O48_4 O 0.6208(4) 0.8089(7) 0.9874(4)
Zn16_2 Zn 0.69431(5) 0.79730(6) 0.92654(4)
O10_6 O 0.8119(6) 0.6208(4) 0.0126(4)
Zn12_3 Zn 0.89700(6) 0.69431(5) 0.07346(4)
O1_3 O 0.1282(2) 0.7392(2) 0.8190(3)
O2_2 O 0.19000(18) 0.41985(18) 0.7895(3)
O3_2 O 0.1297(2) 0.3996(2) 0.8650(3)
O4_2 O 0.16084(17) 0.33845(16) 0.8877(2)
O5_4 O 0.0817(2) 0.3486(2) 0.9207(3)
O6_2 O 0.2339(3) 0.41778(19) 0.7266(3)
O7_2 O 0.0947(2) 0.7572(2) 0.8809(3)
O9_3 O 0.1050(3) 0.7071(3) 0.6973(5)
O11_4 O 0.0425(3) 0.3686(2) 0.9934(4)
H1_4 H 0.0500 0.3530 0.9781
O13_4 O 0.1382(3) 0.6752(3) 0.8346(4)
H3_4 H 0.1411 0.6965 0.8184
C1_3 C 0.3022(3) 0.5504(2) 0.7160(4)
H4_3 H 0.3270 0.5641 0.6946
C2_3 C 0.2436(2) 0.4849(2) 0.7515(3)
C3_3 C 0.2286(3) 0.5087(3) 0.7791(4)
C4_4 C 0.0661(3) 0.5453(3) 0.9626(4)
H5_4 H 0.0688 0.5447 0.9244
C5_4 C 0.0885(3) 0.4168(3) 0.9228(4)
C6_3 C 0.2212(3) 0.4377(3) 0.7568(3)
C7_3 C 0.2804(3) 0.5062(3) 0.7199(4)
C8_4 C 0.1059(4) 0.4582(3) 0.8998(4)
H6_4 H 0.1230 0.4653 0.8684
C9_4 C 0.1095(3) 0.6654(3) 0.8785(4)
C10_3 C 0.3112(2) 0.6215(2) 0.7423(3)
C11_3 C 0.2876(2) 0.5745(2) 0.7435(3)
C12_3 C 0.2501(3) 0.5523(3) 0.7755(4)
H7_3 H 0.2397 0.5676 0.7946
C13_4 C 0.1064(3) 0.7322(3) 0.8615(5)
C14_3 C 0.3555(2) 0.6441(2) 0.7415(4)
C15_4 C 0.1010(3) 0.3866(3) 0.9018(4)
C16_4 C 0.0978(4) 0.4882(3) 0.9235(4)
H8_4 H 0.1111 0.5158 0.9093
C17_4 C 0.0941(3) 0.6925(3) 0.8946(4)
C18_4 C 0.0611(3) 0.4076(3) 0.9669(4)
C20_4 C 0.1009(3) 0.6303(3) 0.9086(4)
H9_4 H 0.1125 0.6136 0.8975
C21_4 C 0.0754(3) 0.6187(3) 0.9554(5)
C22_4 C 0.0707(4) 0.4781(3) 0.9673(4)
C23_4 C 0.0649(3) 0.5804(3) 0.9877(4)
C24_4 C 0.0633(3) 0.5117(4) 0.9947(5)
C25_4 C 0.0529(4) 0.4375(3) 0.9883(4)
C27_4 C 0.0579(3) 0.6457(3) 0.9708(5)
C29_3 C 0.0782(4) 0.6677(4) 0.7090(7)
H14_3 H 0.0665 0.6601 0.7442
N1_3 N 0.0680(4) 0.6392(5) 0.6711(7)
C31_4 C 0.0680(3) 0.6810(3) 0.9388(6)
H15_4 H 0.0562 0.6979 0.9482
C36_3 C 0.0435(7) 0.5922(10) 0.6889(15)
H18_5 H 0.0381 0.5742 0.6571
H19_3 H 0.0602 0.5869 0.7153
H20_3 H 0.0168 0.5859 0.7054
O14_3 O 0.1923(3) 0.4891(3) 0.8125(5)
H22_3 H 0.1818 0.4630 0.8110
C39_5 C 0.0899(10) 0.6493(9) 0.6183(11)
H23_5 H 0.0780 0.6241 0.5956
H24_5 H 0.0866 0.6711 0.6000
H25_5 H 0.1198 0.6594 0.6242
Zn1_2 Zn 0.14900(3) 0.36255(3) 0.81893(4)
Zn2_2 Zn 0.13064(4) 0.76966(3) 0.74012(4)
O15_2 O 0.0726(2) 0.2777(3) 0.8476(3)
O18_2 O 0.58015(18) 0.77014(25) 0.7895(3)
O19_2 O 0.22986(25) 0.81000(18) 0.7895(3)
O20_4 O 0.14334(18) 0.24681(18) 0.8771(3)
O22_2 O 0.0634(3) 0.7963(2) 0.8016(3)
O23_2 O 0.2037(2) 0.2670(2) 0.8016(3)
O24_3 O 0.6004(2) 0.7300(3) 0.8650(3)
O25_2 O 0.17250(17) 0.32821(16) 0.7789(2)
O26_2 O 0.15572(23) 0.82750(17) 0.7789(2)
O27_3 O 0.66155(16) 0.82238(23) 0.8877(2)
O28_2 O 0.67179(16) 0.84428(23) 0.7789(2)
O31_3 O 0.0664(3) 0.7483(2) 0.7459(3)
O32_2 O 0.58222(19) 0.81608(36) 0.7266(3)
O33_2 O 0.18392(36) 0.7661(3) 0.7266(3)
O34_4 O 0.0995(3) 0.24888(19) 0.9400(3)
O36_2 O 0.0906(2) 0.3292(3) 0.7857(3)
O38_3 O 0.2428(2) 0.3374(3) 0.8809(3)
O39_3 O 0.6708(3) 0.7613(2) 0.7857(3)
O42_3 O 0.1322(3) 0.7919(4) 0.6621(3)
O45_4 O 0.0405(3) 0.2688(4) 0.9693(5)
O50_3 O 0.0072(4) 0.7091(3) 0.6732(4)
H27_3 H 0.0303 0.7166 0.6885
O53_2 O 0.0086(3) 0.2037(4) 0.8320(4)
H30_2 H 0.0299 0.2221 0.8482
C40_3 C 0.4496(2) 0.7517(4) 0.7160(4)
C41_3 C 0.2483(4) 0.6978(3) 0.7160(4)
H32_3 H 0.4359 0.7628 0.6946
H33_3 H 0.2372 0.6730 0.6946
C42_3 C 0.5151(2) 0.7586(3) 0.7515(3)
C43_3 C 0.2414(3) 0.7564(2) 0.7515(3)
C44_3 C 0.4913(3) 0.7198(4) 0.7791(4)
C45_3 C 0.2802(4) 0.7714(3) 0.7791(4)
C49_3 C 0.0050(4) 0.7551(3) 0.7438(4)
C50_3 C 0.5623(3) 0.7834(4) 0.7568(3)
C51_3 C 0.2166(4) 0.7788(3) 0.7568(3)
C52_3 C 0.4938(3) 0.7741(4) 0.7199(4)
C53_3 C 0.2259(4) 0.7196(3) 0.7199(4)
C58_3 C 0.3785(2) 0.6896(3) 0.7423(3)
C59_3 C 0.3104(3) 0.6888(2) 0.7423(3)
C60_3 C 0.4255(2) 0.7130(3) 0.7435(3)
C61_3 C 0.2870(3) 0.7124(2) 0.7435(3)
C62_3 C 0.4477(3) 0.6977(4) 0.7755(4)
C63_3 C 0.3023(4) 0.7499(3) 0.7755(4)
H38_3 H 0.4324 0.6720 0.7946
H39_3 H 0.3280 0.7603 0.7946
C64_2 C 0.0656(3) 0.2925(4) 0.8051(5)
C66_3 C 0.3559(2) 0.7113(3) 0.7415(4)
C67_3 C 0.2887(3) 0.6445(2) 0.7415(4)
C69_3 C 0.0477(4) 0.7676(3) 0.7648(4)
C72_2 C 0.0259(3) 0.2651(4) 0.7720(4)
C96_4 C 0.0011(4) 0.2562(6) 0.9576(7)
C100_2 C 0.0144(3) 0.2797(4) 0.7278(6)
H54_2 H 0.0313 0.3084 0.7184
O55_3 O 0.5109(3) 0.7031(4) 0.8125(5)
O56_3 O 0.2969(4) 0.8077(3) 0.8125(5)
H68_3 H 0.5370 0.7187 0.8110
H69_3 H 0.2813 0.8182 0.8110
Zn3_2 Zn 0.18434(3) 0.30411(3) 0.84773(4)
Zn4_2 Zn 0.63745(3) 0.78644(4) 0.81893(4)
Zn5_2 Zn 0.11978(4) 0.81566(3) 0.84773(4)
Zn6_2 Zn 0.21356(4) 0.85100(3) 0.81893(4)
Zn11_2 Zn 0.23034(3) 0.36097(5) 0.74012(4)
Zn13_2 Zn 0.63903(5) 0.86936(4) 0.74012(4)
H76_3 H 0.292312 0.48799 0.697871
H77_3 H 0.372976 0.626786 0.740271
H78_3 H 0.51201 0.804322 0.697871
H79_3 H 0.195678 0.707688 0.697871
H80_3 H 0.25381 0.627024 0.740271
H81_3 H 0.373214 0.74619 0.740271
O16_3 O 0.7223(3) 0.7948(2) 0.8476(3)
O40_2 O 0.8678(3) 0.2081(4) 0.3379(3)
O41_3 O 0.7919(4) 0.6596(3) 0.3379(3)
O47_3 O 0.8578(4) 0.1452(6) 0.3207(4)
O48_5 O 0.8548(6) 0.7125(4) 0.3207(4)
O51_3 O 0.8945(5) 0.2447(6) 0.4326(5)
O52_5 O 0.7553(6) 0.6497(4) 0.4326(5)
H28_3 H 0.8929 0.2457 0.3988
H29_5 H 0.7543 0.6471 0.3988
O54_3 O 0.7963(4) 0.8048(3) 0.8320(4)
H31_3 H 0.7779 0.8077 0.8482
C46_2 C 0.8787(3) 0.1459(4) 0.7040(4)
C47_3 C 0.8541(4) 0.7327(3) 0.7040(4)
H34_2 H 0.8781 0.1426 0.7422
H35_3 H 0.8574 0.7354 0.7422
C54_2 C 0.7916(3) 0.0190(5) 0.7668(4)
C55_3 C 0.9810(5) 0.7725(4) 0.7668(4)
H36_2 H 0.7987 0.0090 0.7982
H37_3 H 0.9910 0.7896 0.7982
C56_2 C 0.9988(3) 0.2226(4) 0.7881(4)
C57_3 C 0.7774(4) 0.7761(3) 0.7881(4)
C65_3 C 0.7075(4) 0.7730(3) 0.8051(5)
C70_2 C 0.8216(3) 0.0571(5) 0.7431(4)
C71_3 C 0.9429(5) 0.7644(4) 0.7431(4)
H40_2 H 0.8492 0.0714 0.7573
H41_3 H 0.9286 0.7777 0.7573
C73_3 C 0.7349(4) 0.7607(3) 0.7720(4)
C74_2 C 0.7410(3) 0.0132(4) 0.6997(4)
C75_3 C 0.9868(4) 0.7277(3) 0.6997(4)
C76_3 C 0.8754(4) 0.1585(6) 0.5910(5)
C77_5 C 0.8415(6) 0.7168(4) 0.5910(5)
C78_2 C 0.9637(3) 0.1961(4) 0.7580(4)
C79_3 C 0.8039(4) 0.7675(3) 0.7580(4)
H42_2 H 0.9470 0.1678 0.7691
H43_3 H 0.8322 0.7791 0.7691
C80_2 C 0.9521(3) 0.2100(4) 0.7112(5)
C81_3 C 0.7900(4) 0.7420(3) 0.7112(5)
C82_2 C 0.8115(3) 0.0741(5) 0.6993(4)
C83_3 C 0.9259(5) 0.7373(4) 0.6993(4)
C84_2 C 0.9138(3) 0.1822(4) 0.6789(4)
C85_3 C 0.8178(4) 0.7315(3) 0.6789(4)
C86_2 C 0.8451(4) 0.1151(5) 0.6719(5)
C87_3 C 0.8849(5) 0.7299(3) 0.6719(5)
C88_2 C 0.7709(3) 0.0513(5) 0.6783(4)
C89_3 C 0.9487(5) 0.7195(4) 0.6783(4)
H44_3 H 0.7635 0.0623 0.6482
H45_5 H 0.9377 0.7011 0.6482
C90_3 C 0.9104(4) 0.1887(5) 0.6232(5)
C91_5 C 0.8113(5) 0.7216(3) 0.6232(5)
H46_3 H 0.9315 0.2136 0.6065
H47_5 H 0.7864 0.7178 0.6065
C92_2 C 0.9791(3) 0.2545(4) 0.6958(5)
C93_3 C 0.7455(4) 0.7245(3) 0.6958(5)
H48_3 H 0.9726 0.2657 0.6650
H49_5 H 0.7343 0.7068 0.6650
C94_3 C 0.8430(4) 0.1219(6) 0.6181(4)
C95_5 C 0.8781(6) 0.7210(4) 0.6181(4)
H50_3 H 0.8195 0.1020 0.5978
H51_5 H 0.8980 0.7174 0.5978
H52_4 H 0.9935 0.2603 0.9224
N2_4 N 0.9726(5) 0.2379(6) 0.9955(7)
C98_3 C 0.8660(5) 0.1762(7) 0.3528(6)
C99_5 C 0.8238(7) 0.6897(5) 0.3528(6)
C101_3 C 0.7203(4) 0.7346(3) 0.7278(6)
H55_3 H 0.6916 0.7228 0.7184
C102_3 C 0.8819(4) 0.2058(5) 0.4477(5)
C103_5 C 0.7942(5) 0.6760(3) 0.4477(5)
C104_3 C 0.8689(4) 0.1708(6) 0.4160(6)
C105_5 C 0.8292(6) 0.6980(4) 0.4160(6)
C106_3 C 0.8613(8) 0.1301(10) 0.4942(5)
C107_5 C 0.8699(10) 0.7311(6) 0.4942(5)
H56_3 H 0.8540 0.1037 0.5098
H57_5 H 0.8963 0.7502 0.5098
C108_3 C 0.8561(6) 0.1311(7) 0.4330(8)
C109_5 C 0.8689(7) 0.7249(4) 0.4330(8)
H58_3 H 0.8454 0.1073 0.4100
H59_5 H 0.8927 0.7380 0.4100
C110_4 C 0.9256(10) 0.2154(12) 0.9777(15)
H62_4 H 0.9203 0.1934 0.9513
H64_4 H 0.9193 0.2358 0.9612
C112_3 C 0.8858(6) 0.2025(8) 0.5076(6)
C113_5 C 0.7975(8) 0.6832(5) 0.5076(6)
H66_3 H 0.8949 0.2261 0.5308
H67_5 H 0.7739 0.6687 0.5308
C114_3 C 0.8752(5) 0.1625(6) 0.5280(5)
C115_5 C 0.8375(6) 0.7126(4) 0.5280(5)
Zn14_2 Zn 0.86936(4) 0.23034(3) 0.25988(4)
Zn16_3 Zn 0.76966(3) 0.63903(5) 0.25988(4)
O17_2 O 0.6111(3) 0.8718(2) 0.8190(3)
O21_2 O 0.7330(2) 0.9366(3) 0.8016(3)
O30_2 O 0.6820(2) 0.9336(3) 0.7459(3)
O44_2 O 0.6596(3) 0.8678(3) 0.6621(3)
O46_2 O 0.6022(4) 0.8950(3) 0.6973(5)
O49_2 O 0.7020(2) 0.9928(4) 0.6732(4)
H26_2 H 0.6864 0.9697 0.6885
C48_2 C 0.7502(3) 0.9950(4) 0.7438(4)
C68_2 C 0.7200(3) 0.9523(4) 0.7648(4)
C97_2 C 0.5896(6) 0.9218(4) 0.7090(7)
H53_2 H 0.5937 0.9335 0.7442
N3_2 N 0.5713(6) 0.9320(4) 0.6711(7)
C111_2 C 0.5488(12) 0.9565(7) 0.6889(15)
H61_3 H 0.5362 0.9619 0.6571
H63_2 H 0.5268 0.9398 0.7153
H65_2 H 0.5692 0.9832 0.7054
C117_3 C 0.5595(13) 0.9101(10) 0.6183(11)
H71_3 H 0.5462 0.9220 0.5956
H73_3 H 0.5846 0.9134 0.6000
H75_3 H 0.5397 0.8802 0.6242
Zn7_2 Zn 0.69589(3) 0.88022(4) 0.84773(4)
O1_4 O 0.2608(2) 0.3889(3) 0.8190(3)
O5_5 O 0.6514(2) 0.7330(3) 0.9207(3)
O9_4 O 0.2929(3) 0.3978(4) 0.6973(5)
O11_5 O 0.6314(2) 0.6738(4) 0.9934(4)
H1_5 H 0.6470 0.6969 0.9781
O13_5 O 0.3248(3) 0.4629(4) 0.8346(4)
H3_5 H 0.3035 0.4445 0.8184
C4_5 C 0.4547(3) 0.5207(4) 0.9626(4)
H5_5 H 0.4553 0.5240 0.9244
C5_5 C 0.5832(3) 0.6716(4) 0.9228(4)
C8_5 C 0.5418(3) 0.6476(5) 0.8998(4)
H6_5 H 0.5347 0.6576 0.8684
C9_5 C 0.3346(3) 0.4440(4) 0.8785(4)
C13_5 C 0.2678(3) 0.3741(4) 0.8615(5)
C15_5 C 0.6134(3) 0.7143(4) 0.9018(4)
C16_5 C 0.5118(3) 0.6095(5) 0.9235(4)
H8_5 H 0.4842 0.5952 0.9093
C17_5 C 0.3075(3) 0.4015(4) 0.8946(4)
C18_5 C 0.5924(3) 0.6534(4) 0.9669(4)
C20_5 C 0.3697(3) 0.4705(4) 0.9086(4)
H9_5 H 0.3864 0.4988 0.8975
C21_5 C 0.3813(3) 0.4566(4) 0.9554(5)
C22_5 C 0.5219(3) 0.5925(5) 0.9673(4)
C23_5 C 0.4196(3) 0.4844(4) 0.9877(4)
C24_5 C 0.4883(4) 0.5515(5) 0.9947(5)
C25_5 C 0.5625(3) 0.6153(5) 0.9883(4)
C27_5 C 0.3543(3) 0.4121(4) 0.9708(5)
C29_4 C 0.3323(4) 0.4104(6) 0.7090(7)
H14_4 H 0.3399 0.4063 0.7442
N1_4 N 0.3608(5) 0.4287(6) 0.6711(7)
C31_5 C 0.3190(3) 0.3869(4) 0.9388(6)
H15_5 H 0.3021 0.3582 0.9482
C36_4 C 0.4078(10) 0.4512(12) 0.6889(15)
H18_6 H 0.4258 0.4638 0.6571
H19_4 H 0.4131 0.4732 0.7153
H20_4 H 0.4141 0.4308 0.7054
C39_6 C 0.3507(9) 0.4405(13) 0.6183(11)
H23_6 H 0.3759 0.4538 0.5956
H24_6 H 0.3289 0.4154 0.6000
H25_6 H 0.3406 0.4603 0.6242
O20_5 O 0.75319(18) 0.89652(25) 0.8771(3)
O24_4 O 0.2700(3) 0.8703(4) 0.8650(3)
O27_4 O 0.17762(23) 0.83916(28) 0.8877(2)
O31_4 O 0.2517(2) 0.3180(4) 0.7459(3)
O34_5 O 0.75112(19) 0.85058(36) 0.9400(3)
O38_4 O 0.6626(3) 0.9053(4) 0.8809(3)
O39_4 O 0.2387(2) 0.9094(4) 0.7857(3)
O41_4 O 0.3404(3) 0.1322(5) 0.3379(3)
O42_4 O 0.2081(4) 0.3404(5) 0.6621(3)
O45_5 O 0.7312(4) 0.7716(5) 0.9693(5)
O48_6 O 0.2875(4) 0.1422(7) 0.3207(4)
O50_4 O 0.2909(3) 0.2980(5) 0.6732(4)
H27_4 H 0.2834 0.3136 0.6885
O52_6 O 0.3503(4) 0.1055(7) 0.4326(5)
H29_6 H 0.3529 0.1071 0.3988
C47_4 C 0.2673(3) 0.1213(5) 0.7040(4)
H35_4 H 0.2646 0.1219 0.7422
C49_4 C 0.2449(3) 0.2498(5) 0.7438(4)
C55_4 C 0.2275(4) 0.2084(6) 0.7668(4)
H37_4 H 0.2104 0.2013 0.7982
C57_4 C 0.2239(3) 0.0012(5) 0.7881(4)
C69_4 C 0.2324(3) 0.2800(5) 0.7648(4)
C71_4 C 0.2356(4) 0.1784(6) 0.7431(4)
H41_4 H 0.2223 0.1508 0.7573
C75_4 C 0.2723(3) 0.2590(5) 0.6997(4)
C77_6 C 0.2832(4) 0.1246(7) 0.5910(5)
C79_4 C 0.2325(3) 0.0363(5) 0.7580(4)
H43_4 H 0.2209 0.0530 0.7691
C81_4 C 0.2580(3) 0.0479(5) 0.7112(5)
C83_4 C 0.2627(4) 0.1885(6) 0.6993(4)
C85_4 C 0.2685(3) 0.0862(5) 0.6789(4)
C87_4 C 0.2701(3) 0.1549(6) 0.6719(5)
C89_4 C 0.2805(4) 0.2291(6) 0.6783(4)
H45_6 H 0.2989 0.2365 0.6482
C91_6 C 0.2784(3) 0.0896(6) 0.6232(5)
H47_6 H 0.2822 0.0685 0.6065
C93_4 C 0.2755(3) 0.0209(5) 0.6958(5)
H49_6 H 0.2932 0.0274 0.6650
C95_6 C 0.2790(4) 0.1570(7) 0.6181(4)
H51_6 H 0.2826 0.1805 0.5978
C96_5 C 0.7438(6) 0.7448(7) 0.9576(7)
H52_5 H 0.7397 0.7331 0.9224
N2_5 N 0.7621(6) 0.7346(8) 0.9955(7)
C99_6 C 0.3103(5) 0.1340(9) 0.3528(6)
C103_6 C 0.3240(3) 0.1181(6) 0.4477(5)
C105_6 C 0.3020(4) 0.1311(7) 0.4160(6)
C107_6 C 0.2689(6) 0.1387(12) 0.4942(5)
H57_6 H 0.2498 0.1460 0.5098
C109_6 C 0.2751(4) 0.1439(8) 0.4330(8)
H59_6 H 0.2620 0.1546 0.4100
C110_5 C 0.7846(12) 0.7101(16) 0.9777(15)
H62_5 H 0.8066 0.7268 0.9513
H64_5 H 0.7642 0.6834 0.9612
C113_6 C 0.3168(5) 0.1142(9) 0.5076(6)
H67_6 H 0.3313 0.1051 0.5308
C115_6 C 0.2874(4) 0.1248(7) 0.5280(5)
Zn16_4 Zn 0.36097(5) 0.13064(6) 0.25988(4)
O16_4 O 0.2052(2) 0.9274(4) 0.8476(3)
O54_4 O 0.1952(3) 0.9914(5) 0.8320(4)
H31_4 H 0.1923 0.9701 0.8482
C65_4 C 0.2270(3) 0.9344(5) 0.8051(5)
C73_4 C 0.2393(3) 0.9741(5) 0.7720(4)
C101_4 C 0.2654(3) 0.9856(5) 0.7278(6)
H55_4 H 0.2772 0.9687 0.7184
H52_6 H 0.2669 0.0065 0.9224
N2_6 N 0.2654(8) 0.0274(5) 0.9955(7)
C110_6 C 0.2899(16) 0.0744(10) 0.9777(15)
H62_6 H 0.2732 0.0797 0.9513
H64_6 H 0.3166 0.0807 0.9612
O5_6 O 0.2670(3) 0.9183(2) 0.9207(3)
O11_6 O 0.3262(4) 0.9575(3) 0.9934(4)
H1_6 H 0.3031 0.9500 0.9781
O13_6 O 0.5371(4) 0.8618(3) 0.8346(4)
H3_6 H 0.5555 0.8589 0.8184
C4_6 C 0.4793(4) 0.9339(3) 0.9626(4)
H5_6 H 0.4760 0.9312 0.9244
C5_6 C 0.3284(4) 0.9115(3) 0.9228(4)
C8_6 C 0.3524(5) 0.8941(4) 0.8998(4)
H6_6 H 0.3424 0.8770 0.8684
C9_6 C 0.5560(4) 0.8905(3) 0.8785(4)
C13_6 C 0.6259(4) 0.8936(3) 0.8615(5)
C15_6 C 0.2857(4) 0.8990(3) 0.9018(4)
C16_6 C 0.3905(5) 0.9022(4) 0.9235(4)
H8_6 H 0.4048 0.8889 0.9093
C17_6 C 0.5985(4) 0.9059(3) 0.8946(4)
C18_6 C 0.3466(4) 0.9389(3) 0.9669(4)
C20_6 C 0.5295(4) 0.8991(3) 0.9086(4)
H9_6 H 0.5012 0.8875 0.8975
C21_6 C 0.5434(4) 0.9246(3) 0.9554(5)
C22_6 C 0.4075(5) 0.9293(4) 0.9673(4)
C23_6 C 0.5156(4) 0.9351(3) 0.9877(4)
C24_6 C 0.4485(5) 0.9367(3) 0.9947(5)
C25_6 C 0.3847(5) 0.9471(4) 0.9883(4)
C27_6 C 0.5879(4) 0.9421(3) 0.9708(5)
C31_6 C 0.6131(4) 0.9320(3) 0.9388(6)
H15_6 H 0.6418 0.9438 0.9482
O20_6 O 0.10348(25) 0.85666(18) 0.8771(3)
O34_6 O 0.14942(36) 0.9005(3) 0.9400(3)
O45_6 O 0.2284(5) 0.9595(3) 0.9693(5)
C96_6 C 0.2552(7) 0.9989(4) 0.9576(7)
O18_3 O 0.24681(18) 0.10348(25) 0.1229(3)
O24_5 O 0.2670(2) 0.0634(3) 0.1984(3)
O27_5 O 0.32821(16) 0.15572(23) 0.2211(2)
O28_3 O 0.33845(16) 0.17762(23) 0.1123(2)
O32_3 O 0.24888(19) 0.14942(36) 0.0600(3)
O39_5 O 0.3374(3) 0.0947(2) 0.1191(3)
C40_4 C 0.1162(2) 0.0851(4) 0.0494(4)
H32_4 H 0.1025 0.0962 0.0280
C42_4 C 0.1817(2) 0.0920(3) 0.0849(3)
C44_4 C 0.1579(3) 0.0532(4) 0.1125(4)
C50_4 C 0.2289(3) 0.1168(4) 0.0902(3)
C52_4 C 0.1604(3) 0.1075(4) 0.0533(4)
C58_4 C 0.0451(2) 0.0230(3) 0.0757(3)
C60_4 C 0.0921(2) 0.0464(3) 0.0769(3)
C62_4 C 0.1143(3) 0.0311(4) 0.1089(4)
H38_4 H 0.0990 0.0054 0.1280
C66_4 C 0.0225(2) 0.0447(3) 0.0749(4)
O55_4 O 0.1775(3) 0.0365(4) 0.1459(5)
H68_4 H 0.2036 0.0521 0.1444
Zn4_3 Zn 0.30411(3) 0.11978(4) 0.15227(4)
H78_4 H 0.178676 0.137655 0.0312042
H81_4 H 0.0398806 0.0795235 0.0736046
C14_4 C 0.0221(2) 0.9775(2) 0.0749(4)
H77_4 H 0.0396429 0.960119 0.0736046
O1_5 O 0.7948(2) 0.0726(2) 0.1524(3)
O7_3 O 0.7613(2) 0.0906(2) 0.2143(3)
O9_5 O 0.7716(3) 0.0405(3) 0.0307(5)
O13_7 O 0.8048(3) 0.0086(3) 0.1680(4)
H3_7 H 0.8077 0.0299 0.1518
C13_7 C 0.7730(3) 0.0656(3) 0.1949(5)
C17_7 C 0.7607(3) 0.0259(3) 0.2280(4)
C29_5 C 0.7448(4) 0.0011(4) 0.0424(7)
C31_7 C 0.7346(3) 0.0144(3) 0.2722(6)
H15_7 H 0.7228 0.0313 0.2816
O16_5 O 0.3889(3) 0.1282(2) 0.1810(3)
O19_3 O 0.89652(25) 0.14334(18) 0.1229(3)
O22_3 O 0.7300(3) 0.1297(2) 0.1350(3)
O26_3 O 0.82238(23) 0.16084(17) 0.1123(2)
O31_5 O 0.7330(3) 0.0817(2) 0.0793(3)
O33_3 O 0.85058(36) 0.0995(3) 0.0600(3)
O50_5 O 0.6738(4) 0.0425(3) 0.0066(4)
H27_5 H 0.6969 0.0500 0.0219
O54_5 O 0.4629(4) 0.1382(3) 0.1654(4)
H31_5 H 0.4445 0.1411 0.1816
C41_4 C 0.9149(4) 0.0312(3) 0.0494(4)
H33_4 H 0.9038 0.0064 0.0280
C43_4 C 0.9080(3) 0.0898(2) 0.0849(3)
C45_4 C 0.9468(4) 0.1048(3) 0.1125(4)
C47_5 C 0.5207(4) 0.0661(3) 0.0374(4)
H35_5 H 0.5240 0.0688 0.0756
C49_5 C 0.6716(4) 0.0885(3) 0.0772(4)
C51_4 C 0.8832(4) 0.1122(3) 0.0902(3)
C53_4 C 0.8925(4) 0.0530(3) 0.0533(4)
C55_5 C 0.6476(5) 0.1059(4) 0.1002(4)
H37_5 H 0.6576 0.1230 0.1316
C57_5 C 0.4440(4) 0.1095(3) 0.1215(4)
C59_4 C 0.9770(3) 0.0222(2) 0.0757(3)
C61_4 C 0.9536(3) 0.0458(2) 0.0769(3)
C63_4 C 0.9689(4) 0.0833(3) 0.1089(4)
H39_4 H 0.9946 0.0937 0.1280
C65_5 C 0.3741(4) 0.1064(3) 0.1385(5)
C69_5 C 0.7143(4) 0.1010(3) 0.0982(4)
C71_5 C 0.6095(5) 0.0978(4) 0.0765(4)
H41_5 H 0.5952 0.1111 0.0907
C73_5 C 0.4015(4) 0.0941(3) 0.1054(4)
C75_5 C 0.6534(4) 0.0611(3) 0.0331(4)
C79_5 C 0.4705(4) 0.1009(3) 0.0914(4)
H43_5 H 0.4988 0.1125 0.1025
C81_5 C 0.4566(4) 0.0754(3) 0.0446(5)
C83_5 C 0.5925(5) 0.0707(4) 0.0327(4)
C85_5 C 0.4844(4) 0.0649(3) 0.0123(4)
C87_5 C 0.5515(5) 0.0633(3) 0.0053(5)
C89_5 C 0.6153(5) 0.0529(4) 0.0117(4)
C93_5 C 0.4121(4) 0.0579(3) 0.0292(5)
C101_5 C 0.3869(4) 0.0680(3) 0.0612(6)
H55_5 H 0.3582 0.0562 0.0518
O56_4 O 0.9635(4) 0.1411(3) 0.1459(5)
H69_4 H 0.9479 0.1516 0.1444
Zn5_3 Zn 0.78644(4) 0.14900(3) 0.18107(4)
Zn6_3 Zn 0.88022(4) 0.18434(3) 0.15227(4)
H79_4 H 0.862345 0.0410209 0.0312042
O2_3 O 0.85666(18) 0.75319(18) 0.1229(3)
O3_3 O 0.7963(2) 0.7330(2) 0.1984(3)
O4_3 O 0.82750(17) 0.67179(16) 0.2211(2)
O5_7 O 0.7483(2) 0.6820(2) 0.2541(3)
O6_3 O 0.9005(3) 0.75112(19) 0.0600(3)
O10_7 O 0.7125(4) 0.8578(4) 0.6793(4)
O11_7 O 0.7091(3) 0.7020(2) 0.3268(4)
H1_7 H 0.7166 0.6864 0.3115
O12_7 O 0.6497(4) 0.8945(5) 0.5674(5)
H2_7 H 0.6471 0.8929 0.6012
C1_4 C 0.9688(3) 0.8838(2) 0.0494(4)
H4_4 H 0.9936 0.8975 0.0280
C2_4 C 0.9102(2) 0.8183(2) 0.0849(3)
C3_4 C 0.8952(3) 0.8421(3) 0.1125(4)
C4_7 C 0.7327(3) 0.8787(3) 0.2960(4)
H5_7 H 0.7354 0.8781 0.2578
C5_7 C 0.7551(3) 0.7502(3) 0.2562(4)
C6_4 C 0.8878(3) 0.7711(3) 0.0902(3)
C7_4 C 0.9470(3) 0.8396(3) 0.0533(4)
C8_7 C 0.7725(4) 0.7916(3) 0.2332(4)
H6_7 H 0.7896 0.7987 0.2018
C9_7 C 0.7761(3) 0.9988(3) 0.2119(4)
C10_4 C 0.9778(2) 0.9549(2) 0.0757(3)
C11_4 C 0.9542(2) 0.9079(2) 0.0769(3)
C12_4 C 0.9167(3) 0.8857(3) 0.1089(4)
H7_4 H 0.9063 0.9010 0.1280
C15_7 C 0.7676(3) 0.7200(3) 0.2352(4)
C16_7 C 0.7644(4) 0.8216(3) 0.2569(4)
H8_7 H 0.7777 0.8492 0.2427
C18_7 C 0.7277(3) 0.7410(3) 0.3003(4)
C19_7 C 0.7168(4) 0.8754(4) 0.4090(5)
C20_7 C 0.7675(3) 0.9637(3) 0.2420(4)
H9_7 H 0.7791 0.9470 0.2309
C21_7 C 0.7420(3) 0.9521(3) 0.2888(5)
C22_7 C 0.7373(4) 0.8115(3) 0.3007(4)
C23_7 C 0.7315(3) 0.9138(3) 0.3211(4)
C24_7 C 0.7299(3) 0.8451(4) 0.3281(5)
C25_7 C 0.7195(4) 0.7709(3) 0.3217(4)
H10_7 H 0.7011 0.7635 0.3518
C26_7 C 0.7216(3) 0.9104(4) 0.3768(5)
H11_7 H 0.7178 0.9315 0.3935
C27_7 C 0.7245(3) 0.9791(3) 0.3042(5)
H12_7 H 0.7068 0.9726 0.3350
C28_7 C 0.7210(4) 0.8430(4) 0.3819(4)
H13_7 H 0.7174 0.8195 0.4022
H14_5 H 0.7331 0.9935 0.0776
N1_5 N 0.7346(4) 0.9726(5) 0.0045(7)
C30_7 C 0.6897(5) 0.8660(5) 0.6472(6)
C32_7 C 0.6760(3) 0.8819(4) 0.5523(5)
C33_7 C 0.6980(4) 0.8689(4) 0.5840(6)
C34_7 C 0.7311(6) 0.8613(8) 0.5058(5)
H16_7 H 0.7502 0.8540 0.4902
C35_7 C 0.7249(4) 0.8561(6) 0.5670(8)
H17_7 H 0.7380 0.8454 0.5900
C36_5 C 0.7101(7) 0.9256(10) 0.0223(15)
H19_5 H 0.7268 0.9203 0.0487
H20_5 H 0.6834 0.9193 0.0388
C37_7 C 0.6832(5) 0.8858(6) 0.4924(6)
H21_7 H 0.6687 0.8949 0.4692
C38_7 C 0.7126(4) 0.8752(5) 0.4720(5)
O14_4 O 0.8589(3) 0.8225(3) 0.1459(5)
H22_4 H 0.8484 0.7964 0.1444
Zn1_3 Zn 0.81566(3) 0.69589(3) 0.15227(4)
O15_3 O 0.7392(2) 0.6111(3) 0.1810(3)
O17_3 O 0.2777(3) 0.2052(2) 0.1524(3)
O20_7 O 0.81000(18) 0.58015(18) 0.2105(3)
O21_3 O 0.3996(2) 0.2700(3) 0.1350(3)
O23_3 O 0.8703(2) 0.6004(2) 0.1350(3)
O25_3 O 0.83916(17) 0.66155(16) 0.1123(2)
O30_3 O 0.3486(2) 0.2670(3) 0.0793(3)
O34_7 O 0.7661(3) 0.58222(19) 0.2734(3)
O36_3 O 0.7572(2) 0.6626(3) 0.1191(3)
O38_5 O 0.9094(2) 0.6708(3) 0.2143(3)
O45_7 O 0.7071(3) 0.6022(4) 0.3027(5)
O46_3 O 0.2688(4) 0.2284(3) 0.0307(5)
O49_3 O 0.3686(2) 0.3262(4) 0.0066(4)
H26_3 H 0.3530 0.3031 0.0219
O53_3 O 0.6752(3) 0.5371(4) 0.1654(4)
H30_3 H 0.6965 0.5555 0.1816
C46_3 C 0.5453(3) 0.4793(4) 0.0374(4)
H34_3 H 0.5447 0.4760 0.0756
C48_3 C 0.4168(3) 0.3284(4) 0.0772(4)
C54_3 C 0.4582(3) 0.3524(5) 0.1002(4)
H36_3 H 0.4653 0.3424 0.1316
C56_3 C 0.6654(3) 0.5560(4) 0.1215(4)
C64_3 C 0.7322(3) 0.6259(4) 0.1385(5)
C67_4 C 0.9553(3) 0.9779(2) 0.0749(4)
C68_3 C 0.3866(3) 0.2857(4) 0.0982(4)
C70_3 C 0.4882(3) 0.3905(5) 0.0765(4)
H40_3 H 0.5158 0.4048 0.0907
C72_3 C 0.6925(3) 0.5985(4) 0.1054(4)
C74_3 C 0.4076(3) 0.3466(4) 0.0331(4)
C78_3 C 0.6303(3) 0.5295(4) 0.0914(4)
H42_3 H 0.6136 0.5012 0.1025
C80_3 C 0.6187(3) 0.5434(4) 0.0446(5)
C82_3 C 0.4781(3) 0.4075(5) 0.0327(4)
C84_3 C 0.5804(3) 0.5156(4) 0.0123(4)
C86_3 C 0.5117(4) 0.4485(5) 0.0053(5)
C88_3 C 0.4375(3) 0.3847(5) 0.0117(4)
C92_3 C 0.6457(3) 0.5879(4) 0.0292(5)
C96_7 C 0.6677(4) 0.5896(6) 0.2910(7)
C97_3 C 0.2562(6) 0.2552(4) 0.0424(7)
H52_7 H 0.6601 0.5937 0.2558
H53_3 H 0.2603 0.2669 0.0776
N2_7 N 0.6392(5) 0.5713(6) 0.3289(7)
N3_3 N 0.2379(6) 0.2654(4) 0.0045(7)
C100_3 C 0.6810(3) 0.6131(4) 0.0612(6)
H54_3 H 0.6979 0.6418 0.0518
C110_7 C 0.5922(10) 0.5488(12) 0.3111(15)
C111_3 C 0.2154(12) 0.2899(7) 0.0223(15)
H60_7 H 0.5742 0.5362 0.3429
H62_7 H 0.5869 0.5268 0.2847
H63_3 H 0.1934 0.2732 0.0487
H64_7 H 0.5859 0.5692 0.2946
H65_3 H 0.2358 0.3166 0.0388
C116_7 C 0.6493(9) 0.5595(13) 0.3817(11)
H70_7 H 0.6241 0.5462 0.4044
H72_7 H 0.6711 0.5846 0.4000
H74_7 H 0.6594 0.5397 0.3758
Zn3_3 Zn 0.85100(3) 0.63745(3) 0.18107(4)
Zn7_3 Zn 0.36255(3) 0.21356(4) 0.18107(4)
H76_4 H 0.958979 0.821324 0.0312042
H80_4 H 0.920477 0.960357 0.0736046
O5_8 O 0.3180(2) 0.0664(3) 0.2541(3)
O11_8 O 0.2980(2) 0.0072(4) 0.3268(4)
H1_8 H 0.3136 0.0303 0.3115
C5_8 C 0.2498(3) 0.0050(4) 0.2562(4)
C15_8 C 0.2800(3) 0.0477(4) 0.2352(4)
O20_8 O 0.41985(18) 0.22986(25) 0.2105(3)
O34_8 O 0.41778(19) 0.18392(36) 0.2734(3)
O38_6 O 0.3292(3) 0.2387(4) 0.2143(3)
O45_8 O 0.3978(4) 0.1050(5) 0.3027(5)
C96_8 C 0.4104(6) 0.0782(7) 0.2910(7)
H52_8 H 0.4063 0.0665 0.2558
N2_8 N 0.4287(6) 0.0680(8) 0.3289(7)
C110_8 C 0.4512(12) 0.0435(16) 0.3111(15)
H60_8 H 0.4638 0.0381 0.3429
H62_8 H 0.4732 0.0602 0.2847
H64_8 H 0.4308 0.0168 0.2946
C116_8 C 0.4405(13) 0.0899(16) 0.3817(11)
H70_8 H 0.4538 0.0780 0.4044
H72_8 H 0.4154 0.0866 0.4000
H74_8 H 0.4603 0.1198 0.3758
O10_8 O 0.1422(4) 0.8548(6) 0.6793(4)
O12_8 O 0.1055(5) 0.7553(6) 0.5674(5)
H2_8 H 0.1071 0.7543 0.6012
C4_8 C 0.1213(3) 0.8541(4) 0.2960(4)
H5_8 H 0.1219 0.8574 0.2578
C8_8 C 0.2084(3) 0.9810(5) 0.2332(4)
H6_8 H 0.2013 0.9910 0.2018
C9_8 C 0.0012(3) 0.7774(4) 0.2119(4)
C16_8 C 0.1784(3) 0.9429(5) 0.2569(4)
H8_8 H 0.1508 0.9286 0.2427
C18_8 C 0.2590(3) 0.9868(4) 0.3003(4)
C19_8 C 0.1246(4) 0.8415(6) 0.4090(5)
C20_8 C 0.0363(3) 0.8039(4) 0.2420(4)
H9_8 H 0.0530 0.8322 0.2309
C21_8 C 0.0479(3) 0.7900(4) 0.2888(5)
C22_8 C 0.1885(3) 0.9259(5) 0.3007(4)
C23_8 C 0.0862(3) 0.8178(4) 0.3211(4)
C24_8 C 0.1549(4) 0.8849(5) 0.3281(5)
C25_8 C 0.2291(3) 0.9487(5) 0.3217(4)
H10_8 H 0.2365 0.9377 0.3518
C26_8 C 0.0896(4) 0.8113(5) 0.3768(5)
H11_8 H 0.0685 0.7864 0.3935
C27_8 C 0.0209(3) 0.7455(4) 0.3042(5)
H12_8 H 0.0274 0.7343 0.3350
C28_8 C 0.1570(4) 0.8781(6) 0.3819(4)
H13_8 H 0.1805 0.8980 0.4022
H14_6 H 0.0065 0.7397 0.0776
N1_6 N 0.0274(5) 0.7621(6) 0.0045(7)
C30_8 C 0.1340(5) 0.8238(7) 0.6472(6)
C32_8 C 0.1181(4) 0.7942(5) 0.5523(5)
C33_8 C 0.1311(4) 0.8292(6) 0.5840(6)
C34_8 C 0.1387(8) 0.8699(10) 0.5058(5)
H16_8 H 0.1460 0.8963 0.4902
C35_8 C 0.1439(6) 0.8689(7) 0.5670(8)
H17_8 H 0.1546 0.8927 0.5900
C36_6 C 0.0744(10) 0.7846(12) 0.0223(15)
H19_6 H 0.0797 0.8066 0.0487
H20_6 H 0.0807 0.7642 0.0388
C37_8 C 0.1142(6) 0.7975(8) 0.4924(6)
H21_8 H 0.1051 0.7739 0.4692
C38_8 C 0.1248(5) 0.8375(6) 0.4720(5)
O24_6 O 0.9366(3) 0.2037(4) 0.1984(3)
O27_6 O 0.84428(23) 0.17250(28) 0.2211(2)
O39_6 O 0.9053(2) 0.2428(4) 0.1191(3)
O1_6 O 0.9274(2) 0.7223(3) 0.1524(3)
O9_6 O 0.9595(3) 0.7312(4) 0.0307(5)
O13_8 O 0.9914(3) 0.7963(4) 0.1680(4)
H3_8 H 0.9701 0.7779 0.1518
C13_8 C 0.9344(3) 0.7075(4) 0.1949(5)
C17_8 C 0.9741(3) 0.7349(4) 0.2280(4)
C29_6 C 0.9989(4) 0.7438(6) 0.0424(7)
C31_8 C 0.9856(3) 0.7203(4) 0.2722(6)
H15_8 H 0.9687 0.6916 0.2816
O16_6 O 0.8718(2) 0.2608(4) 0.1810(3)
O31_6 O 0.9183(2) 0.6514(4) 0.0793(3)
O50_6 O 0.9575(3) 0.6314(5) 0.0066(4)
H27_6 H 0.9500 0.6470 0.0219
O54_6 O 0.8618(3) 0.3248(5) 0.1654(4)
H31_6 H 0.8589 0.3035 0.1816
C47_6 C 0.9339(3) 0.4547(5) 0.0374(4)
H35_6 H 0.9312 0.4553 0.0756
C49_6 C 0.9115(3) 0.5832(5) 0.0772(4)
C55_6 C 0.8941(4) 0.5418(6) 0.1002(4)
H37_6 H 0.8770 0.5347 0.1316
C57_6 C 0.8905(3) 0.3346(5) 0.1215(4)
C65_6 C 0.8936(3) 0.2678(5) 0.1385(5)
C69_6 C 0.8990(3) 0.6134(5) 0.0982(4)
C71_6 C 0.9022(4) 0.5118(6) 0.0765(4)
H41_6 H 0.8889 0.4842 0.0907
C73_6 C 0.9059(3) 0.3075(5) 0.1054(4)
C75_6 C 0.9389(3) 0.5924(5) 0.0331(4)
C79_6 C 0.8991(3) 0.3697(5) 0.0914(4)
H43_6 H 0.8875 0.3864 0.1025
C81_6 C 0.9246(3) 0.3813(5) 0.0446(5)
C83_6 C 0.9293(4) 0.5219(6) 0.0327(4)
C85_6 C 0.9351(3) 0.4196(5) 0.0123(4)
C87_6 C 0.9367(3) 0.4883(6) 0.0053(5)
C89_6 C 0.9471(4) 0.5625(6) 0.0117(4)
C93_6 C 0.9421(3) 0.3543(5) 0.0292(5)
C101_6 C 0.9320(3) 0.3190(5) 0.0612(6)
H55_6 H 0.9438 0.3021 0.0518
O10_9 O 0.1452(6) 0.2875(4) 0.6793(4)
O12_9 O 0.2447(6) 0.3503(4) 0.5674(5)
H2_9 H 0.2457 0.3529 0.6012
O13_9 O 0.2037(4) 0.1952(3) 0.1680(4)
H3_9 H 0.2221 0.1923 0.1518
C4_9 C 0.1459(4) 0.2673(3) 0.2960(4)
H5_9 H 0.1426 0.2646 0.2578
C8_9 C 0.0190(5) 0.2275(4) 0.2332(4)
H6_9 H 0.0090 0.2104 0.2018
C9_9 C 0.2226(4) 0.2239(3) 0.2119(4)
C13_9 C 0.2925(4) 0.2270(3) 0.1949(5)
C16_9 C 0.0571(5) 0.2356(4) 0.2569(4)
H8_9 H 0.0714 0.2223 0.2427
C17_9 C 0.2651(4) 0.2393(3) 0.2280(4)
C18_9 C 0.0132(4) 0.2723(3) 0.3003(4)
C19_9 C 0.1585(6) 0.2832(4) 0.4090(5)
C20_9 C 0.1961(4) 0.2325(3) 0.2420(4)
H9_9 H 0.1678 0.2209 0.2309
C21_9 C 0.2100(4) 0.2580(3) 0.2888(5)
C22_9 C 0.0741(5) 0.2627(4) 0.3007(4)
C23_9 C 0.1822(4) 0.2685(3) 0.3211(4)
C24_9 C 0.1151(5) 0.2701(3) 0.3281(5)
C25_9 C 0.0513(5) 0.2805(4) 0.3217(4)
H10_9 H 0.0623 0.2989 0.3518
C26_9 C 0.1887(5) 0.2784(3) 0.3768(5)
H11_9 H 0.2136 0.2822 0.3935
C27_9 C 0.2545(4) 0.2755(3) 0.3042(5)
H12_9 H 0.2657 0.2932 0.3350
C28_9 C 0.1219(6) 0.2790(4) 0.3819(4)
H13_9 H 0.1020 0.2826 0.4022
C30_9 C 0.1762(7) 0.3103(5) 0.6472(6)
C31_9 C 0.2797(4) 0.2654(3) 0.2722(6)
H15_9 H 0.3084 0.2772 0.2816
C32_9 C 0.2058(5) 0.3240(3) 0.5523(5)
C33_9 C 0.1708(6) 0.3020(4) 0.5840(6)
C34_9 C 0.1301(10) 0.2689(6) 0.5058(5)
H16_9 H 0.1037 0.2498 0.4902
C35_9 C 0.1311(7) 0.2751(4) 0.5670(8)
H17_9 H 0.1073 0.2620 0.5900
C37_9 C 0.2025(8) 0.3168(5) 0.4924(6)
H21_9 H 0.2261 0.3313 0.4692
C38_9 C 0.1625(6) 0.2874(4) 0.4720(5)
O5_9 O 0.9336(3) 0.2517(2) 0.2541(3)
O11_9 O 0.9928(4) 0.2909(3) 0.3268(4)
H1_9 H 0.9697 0.2834 0.3115
C5_9 C 0.9950(4) 0.2449(3) 0.2562(4)
C15_9 C 0.9523(4) 0.2324(3) 0.2352(4)
O20_9 O 0.77014(25) 0.19000(18) 0.2105(3)
O34_9 O 0.81608(36) 0.2339(3) 0.2734(3)
O45_9 O 0.8950(5) 0.2929(3) 0.3027(5)
C96_9 C 0.9218(7) 0.3323(4) 0.2910(7)
H52_9 H 0.9335 0.3399 0.2558
N2_9 N 0.9320(8) 0.3608(5) 0.3289(7)
C110_9 C 0.9565(16) 0.4078(10) 0.3111(15)
H60_9 H 0.9619 0.4258 0.3429
H62_9 H 0.9398 0.4131 0.2847
H64_9 H 0.9832 0.4141 0.2946
C116_9 C 0.9101(16) 0.3507(9) 0.3817(11)
H70_9 H 0.9220 0.3759 0.4044
H72_9 H 0.9134 0.3289 0.4000
H74_9 H 0.8802 0.3406 0.3758
C1_5 C 0.6978(3) 0.4496(2) 0.2840(4)
H4_5 H 0.6730 0.4359 0.3054
C2_5 C 0.7564(2) 0.5151(2) 0.2485(3)
C3_5 C 0.7714(3) 0.4913(3) 0.2209(4)
C6_5 C 0.7788(3) 0.5623(3) 0.2432(3)
C7_5 C 0.7196(3) 0.4938(3) 0.2801(4)
C10_5 C 0.6888(2) 0.3785(2) 0.2577(3)
C11_5 C 0.7124(2) 0.4255(2) 0.2565(3)
C12_5 C 0.7499(3) 0.4477(3) 0.2245(4)
H7_5 H 0.7603 0.4324 0.2054
C14_5 C 0.6445(2) 0.3559(2) 0.2585(4)
O14_5 O 0.8077(3) 0.5109(3) 0.1875(5)
H22_5 H 0.8182 0.5370 0.1890
C40_5 C 0.5504(2) 0.2483(4) 0.2840(4)
C41_5 C 0.7517(4) 0.3022(3) 0.2840(4)
H32_5 H 0.5641 0.2372 0.3054
H33_5 H 0.7628 0.3270 0.3054
C42_5 C 0.4849(2) 0.2414(3) 0.2485(3)
C43_5 C 0.7586(3) 0.2436(2) 0.2485(3)
C44_5 C 0.5087(3) 0.2802(4) 0.2209(4)
C45_5 C 0.7198(4) 0.2286(3) 0.2209(4)
C50_5 C 0.4377(3) 0.2166(4) 0.2432(3)
C51_5 C 0.7834(4) 0.2212(3) 0.2432(3)
C52_5 C 0.5062(3) 0.2259(4) 0.2801(4)
C53_5 C 0.7741(4) 0.2804(3) 0.2801(4)
C58_5 C 0.6215(2) 0.3104(3) 0.2577(3)
C59_5 C 0.6896(3) 0.3112(2) 0.2577(3)
C60_5 C 0.5745(2) 0.2870(3) 0.2565(3)
C61_5 C 0.7130(3) 0.2876(2) 0.2565(3)
C62_5 C 0.5523(3) 0.3023(4) 0.2245(4)
C63_5 C 0.6977(4) 0.2501(3) 0.2245(4)
H38_5 H 0.5676 0.3280 0.2054
H39_5 H 0.6720 0.2397 0.2054
C66_5 C 0.6441(2) 0.2887(3) 0.2585(4)
C67_5 C 0.7113(3) 0.3555(2) 0.2585(4)
O55_5 O 0.4891(3) 0.2969(4) 0.1875(5)
O56_5 O 0.7031(4) 0.1923(3) 0.1875(5)
H68_5 H 0.4630 0.2813 0.1890
H69_5 H 0.7187 0.1818 0.1890
H76_5 H 0.707688 0.51201 0.302129
H77_5 H 0.627024 0.373214 0.259729
H78_5 H 0.48799 0.195678 0.302129
H79_5 H 0.804322 0.292312 0.302129
H80_5 H 0.74619 0.372976 0.259729
H81_5 H 0.626786 0.25381 0.259729
C1_6 C 0.0312(3) 0.1162(2) 0.9506(4)
H4_6 H 0.0064 0.1025 0.9720
C2_6 C 0.0898(2) 0.1817(2) 0.9151(3)
C3_6 C 0.1048(3) 0.1579(3) 0.8875(4)
C6_6 C 0.1122(3) 0.2289(3) 0.9098(3)
C7_6 C 0.0530(3) 0.1604(3) 0.9467(4)
C10_6 C 0.0222(2) 0.0451(2) 0.9243(3)
C11_6 C 0.0458(2) 0.0921(2) 0.9231(3)
C12_6 C 0.0833(3) 0.1143(3) 0.8911(4)
H7_6 H 0.0937 0.0990 0.8720
O14_6 O 0.1411(3) 0.1775(3) 0.8541(5)
H22_6 H 0.1516 0.2036 0.8556
C67_6 C 0.0447(3) 0.0221(2) 0.9251(4)
H76_6 H 0.0410209 0.178676 0.968796
H80_6 H 0.0795235 0.0396429 0.926395
C41_6 C 0.0851(4) 0.9688(3) 0.9506(4)
H33_6 H 0.0962 0.9936 0.9720
C43_6 C 0.0920(3) 0.9102(2) 0.9151(3)
C45_6 C 0.0532(4) 0.8952(3) 0.8875(4)
C51_6 C 0.1168(4) 0.8878(3) 0.9098(3)
C53_6 C 0.1075(4) 0.9470(3) 0.9467(4)
C59_6 C 0.0230(3) 0.9778(2) 0.9243(3)
C61_6 C 0.0464(3) 0.9542(2) 0.9231(3)
C63_6 C 0.0311(4) 0.9167(3) 0.8911(4)
H39_6 H 0.0054 0.9063 0.8720
O56_6 O 0.0365(4) 0.8589(3) 0.8541(5)
H69_6 H 0.0521 0.8484 0.8556
H79_6 H 0.137655 0.958979 0.968796
C14_6 C 0.9779(2) 0.0225(2) 0.9251(4)
H77_6 H 0.960357 0.0398806 0.926395
C40_6 C 0.8838(2) 0.9149(4) 0.9506(4)
H32_6 H 0.8975 0.9038 0.9720
C42_6 C 0.8183(2) 0.9080(3) 0.9151(3)
C44_6 C 0.8421(3) 0.9468(4) 0.8875(4)
C50_6 C 0.7711(3) 0.8832(4) 0.9098(3)
C52_6 C 0.8396(3) 0.8925(4) 0.9467(4)
C58_6 C 0.9549(2) 0.9770(3) 0.9243(3)
C60_6 C 0.9079(2) 0.9536(3) 0.9231(3)
C62_6 C 0.8857(3) 0.9689(4) 0.8911(4)
H38_6 H 0.9010 0.9946 0.8720
C66_6 C 0.9775(2) 0.9553(3) 0.9251(4)
O55_6 O 0.8225(3) 0.9635(4) 0.8541(5)
H68_6 H 0.7964 0.9479 0.8556
H78_6 H 0.821324 0.862345 0.968796
H81_6 H 0.960119 0.920477 0.926395
loop_
_geom_bond_atom_site_label_1
_geom_bond_atom_site_label_2
_geom_bond_site_symmetry_1
_geom_bond_site_symmetry_2
O1 C13 1_555 1_555
O2 C6 1_555 1_555
O3 C15 1_555 1_555
O4 Zn1 1_555 1_555
O5 C15 1_555 1_555
O6 C6 1_555 1_555
O7 C13 1_555 1_555
O8 C30 1_555 1_555
O9 C29 1_555 1_555
O11 H1 1_555 1_555
O12 H2 1_555 1_555
O13 H3 1_555 1_555
C1 H4 1_555 1_555
C2 C3 1_555 1_555
C3 C12 1_555 1_555
C4 H5 1_555 1_555
C5 C8 1_555 1_555
C6 C2 1_555 1_555
C7 C1 1_555 1_555
C8 H6 1_555 1_555
C9 O13 1_555 1_555
C10 C11 1_555 1_555
C11 C1 1_555 1_555
C12 C11 1_555 1_555
H7 C12 1_555 1_555
C13 C17 1_555 1_555
C14 C10 1_555 1_555
C15 C5 1_555 1_555
C16 C8 1_555 1_555
H8 C16 1_555 1_555
C17 C9 1_555 1_555
C18 O11 1_555 1_555
C19 C26 1_555 1_555
C20 C9 1_555 1_555
H9 C20 1_555 1_555
C21 C20 1_555 1_555
C22 C16 1_555 1_555
C23 C4 1_555 1_555
C24 C4 1_555 1_555
C25 C18 1_555 1_555
H10 C25 1_555 1_555
C26 C23 1_555 1_555
H11 C26 1_555 1_555
C27 C21 1_555 1_555
H12 C27 1_555 1_555
C28 C19 1_555 1_555
H13 C28 1_555 1_555
C29 H14 1_555 1_555
N1 C29 1_555 1_555
C30 C33 1_555 1_555
C31 C17 1_555 1_555
H15 C31 1_555 1_555
C32 O12 1_555 1_555
C33 C32 1_555 1_555
C34 H16 1_555 1_555
C35 C33 1_555 1_555
H17 C35 1_555 1_555
C36 N1 1_555 1_555
H18 C36 1_555 1_555
H19 C36 1_555 1_555
H20 C36 1_555 1_555
C37 C32 1_555 1_555
H21 C37 1_555 1_555
C38 C19 1_555 1_555
O14 C3 1_555 1_555
H22 O14 1_555 1_555
C39 N1 1_555 1_555
H23 C39 1_555 1_555
H24 C39 1_555 1_555
H25 C39 1_555 1_555
Zn1 O2 1_555 1_555
Zn2 O1 1_555 1_555
O16 C65 1_555 1_555
O18 C50 1_555 1_555
O19 C51 1_555 1_555
O22 C69 1_555 1_555
O24 Zn4 1_555 1_555
O26 Zn2 1_555 1_555
O27 Zn4 1_555 1_555
O31 Zn2 1_555 1_555
O32 C50 1_555 1_555
O33 Zn2 1_555 1_555
O39 C65 1_555 1_555
O41 C99 1_555 1_555
O42 Zn2 1_555 1_555
O50 H27 1_555 1_555
O52 H29 1_555 1_555
O54 H31 1_555 1_555
C40 H32 1_555 1_555
C41 H33 1_555 1_555
C42 C44 1_555 1_555
C43 C45 1_555 1_555
C44 C62 1_555 1_555
C45 C63 1_555 1_555
C47 H35 1_555 1_555
C49 C55 1_555 1_555
C50 C42 1_555 1_555
C51 O33 1_555 1_555
C52 C40 1_555 1_555
C53 C41 1_555 1_555
C55 H37 1_555 1_555
C57 O54 1_555 1_555
C58 C14 1_555 1_555
C59 C61 1_555 1_555
C60 C40 1_555 1_555
C61 C41 1_555 1_555
C62 C60 1_555 1_555
C63 C61 1_555 1_555
H38 C62 1_555 1_555
H39 C63 1_555 1_555
C65 C73 1_555 1_555
C66 C58 1_555 1_555
C67 C10 1_555 1_555
C69 O31 1_555 1_555
C71 C55 1_555 1_555
H41 C71 1_555 1_555
C73 C57 1_555 1_555
C75 O50 1_555 1_555
C77 C91 1_555 1_555
C79 C57 1_555 1_555
H43 C79 1_555 1_555
C81 C79 1_555 1_555
C83 C71 1_555 1_555
C85 C47 1_555 1_555
C87 C47 1_555 1_555
C89 C75 1_555 1_555
H45 C89 1_555 1_555
C91 C85 1_555 1_555
H47 C91 1_555 1_555
C93 C81 1_555 1_555
H49 C93 1_555 1_555
C95 C77 1_555 1_555
H51 C95 1_555 1_555
C99 C105 1_555 1_555
C101 C73 1_555 1_555
H55 C101 1_555 1_555
C103 O52 1_555 1_555
C105 C103 1_555 1_555
C107 H57 1_555 1_555
C109 C105 1_555 1_555
H59 C109 1_555 1_555
C113 C103 1_555 1_555
H67 C113 1_555 1_555
C115 C77 1_555 1_555
O55 C44 1_555 1_555
O56 C45 1_555 1_555
H68 O55 1_555 1_555
H69 O56 1_555 1_555
Zn4 O18 1_555 1_555
Zn5 O7 1_555 1_555
Zn6 O19 1_555 1_555
Zn11 O6 1_555 1_555
Zn15 O16 1_555 1_555
O3 Zn1 1_555 1_555
O9 Zn2 1_555 1_555
C2 C7 1_555 1_555
C5 C18 1_555 1_555
C21 C23 1_555 1_555
C22 C24 1_555 1_555
C22 C25 1_555 1_555
C24 C28 1_555 1_555
C27 C31 1_555 1_555
C34 C35 1_555 1_555
C34 C38 1_555 1_555
C37 C38 1_555 1_555
O22 Zn5 1_555 1_555
O26 Zn5 1_555 1_555
O26 Zn6 1_555 1_555
O32 Zn13 1_555 1_555
C42 C52 1_555 1_555
C43 C51 1_555 1_555
C43 C53 1_555 1_555
C49 C69 1_555 1_555
C49 C75 1_555 1_555
C58 C60 1_555 1_555
C59 C66 1_555 1_555
C59 C67 1_555 1_555
C81 C85 1_555 1_555
C83 C87 1_555 1_555
C83 C89 1_555 1_555
C87 C95 1_555 1_555
C93 C101 1_555 1_555
C107 C109 1_555 1_555
C107 C115 1_555 1_555
C113 C115 1_555 1_555
C7 H76 1_555 1_555
C14 H77 1_555 1_555
C52 H78 1_555 1_555
C53 H79 1_555 1_555
C67 H80 1_555 1_555
C66 H81 1_555 1_555
O15 C64 1_555 1_555
O20 Zn3 1_555 1_555
O21 C68 1_555 1_555
O23 Zn3 1_555 1_555
O28 Zn7 1_555 1_555
O30 C68 1_555 1_555
O34 Zn9 1_555 1_555
O40 C98 1_555 1_555
O43 Zn9 1_555 1_555
O45 C96 1_555 1_555
O49 H26 1_555 1_555
O51 H28 1_555 1_555
O53 H30 1_555 1_555
C46 H34 1_555 1_555
C48 C54 1_555 1_555
C54 H36 1_555 1_555
C56 O53 1_555 1_555
C64 O36 1_555 1_555
C68 C48 1_555 1_555
C70 C54 1_555 1_555
H40 C70 1_555 1_555
C72 C56 1_555 1_555
C74 O49 1_555 1_555
C76 C90 1_555 1_555
C78 C56 1_555 1_555
H42 C78 1_555 1_555
C80 C78 1_555 1_555
C82 C70 1_555 1_555
C84 C46 1_555 1_555
C86 C46 1_555 1_555
C88 C74 1_555 1_555
H44 C88 1_555 1_555
C90 C84 1_555 1_555
H46 C90 1_555 1_555
C92 C80 1_555 1_555
H48 C92 1_555 1_555
C94 C76 1_555 1_555
H50 C94 1_555 1_555
C96 H52 1_555 1_555
N2 C96 1_555 1_555
C98 C104 1_555 1_555
C100 C72 1_555 1_555
H54 C100 1_555 1_555
C102 O51 1_555 1_555
C104 C102 1_555 1_555
C106 H56 1_555 1_555
C108 C104 1_555 1_555
H58 C108 1_555 1_555
C110 N2 1_555 1_555
H60 C110 1_555 1_555
H62 C110 1_555 1_555
H64 C110 1_555 1_555
C112 C102 1_555 1_555
H66 C112 1_555 1_555
C114 C76 1_555 1_555
C116 N2 1_555 1_555
H70 C116 1_555 1_555
H72 C116 1_555 1_555
H74 C116 1_555 1_555
Zn7 O21 1_555 1_555
O15 Zn9 1_555 1_555
O25 Zn3 1_555 1_555
O45 Zn9 1_555 1_555
C48 C74 1_555 1_555
C64 C72 1_555 1_555
C80 C84 1_555 1_555
C82 C86 1_555 1_555
C82 C88 1_555 1_555
C86 C94 1_555 1_555
C92 C100 1_555 1_555
C106 C108 1_555 1_555
C106 C114 1_555 1_555
C112 C114 1_555 1_555
O17 Zn13 1_555 1_555
O44 Zn13 1_555 1_555
O46 C97 1_555 1_555
C97 H53 1_555 1_555
N3 C97 1_555 1_555
C111 N3 1_555 1_555
H61 C111 1_555 1_555
H63 C111 1_555 1_555
H65 C111 1_555 1_555
C117 N3 1_555 1_555
H71 C117 1_555 1_555
H73 C117 1_555 1_555
H75 C117 1_555 1_555
O46 Zn13 1_555 1_555
O20_2 Zn7 1_555 1_555
O34_2 Zn15 1_555 1_555
O43_2 Zn15 1_555 1_555
O45_2 C96_2 1_555 1_555
C96_2 H52_2 1_555 1_555
N2_2 C96_2 1_555 1_555
C110_2 N2_2 1_555 1_555
H60_2 C110_2 1_555 1_555
H62_2 C110_2 1_555 1_555
H64_2 C110_2 1_555 1_555
C116_2 N2_2 1_555 1_555
H70_2 C116_2 1_555 1_555
H72_2 C116_2 1_555 1_555
H74_2 C116_2 1_555 1_555
O45_2 Zn15 1_555 1_555
O1_2 C13_2 1_555 1_555
O24 C15_2 1_555 1_555
O5_2 C15_2 1_555 1_555
O38 C13_2 1_555 1_555
O8_2 C30_2 1_555 1_555
O9_2 C29_2 1_555 1_555
O11_2 H1_2 1_555 1_555
O12_2 H2_2 1_555 1_555
O13_2 H3_2 1_555 1_555
C4_2 H5_2 1_555 1_555
C5_2 C8_2 1_555 1_555
C8_2 H6_2 1_555 1_555
C9_2 O13_2 1_555 1_555
C13_2 C17_2 1_555 1_555
C15_2 C5_2 1_555 1_555
C16_2 C8_2 1_555 1_555
H8_2 C16_2 1_555 1_555
C17_2 C9_2 1_555 1_555
C18_2 O11_2 1_555 1_555
C19_2 C26_2 1_555 1_555
C20_2 C9_2 1_555 1_555
H9_2 C20_2 1_555 1_555
C21_2 C20_2 1_555 1_555
C22_2 C16_2 1_555 1_555
C23_2 C4_2 1_555 1_555
C24_2 C4_2 1_555 1_555
C25_2 C18_2 1_555 1_555
H10_2 C25_2 1_555 1_555
C26_2 C23_2 1_555 1_555
H11_2 C26_2 1_555 1_555
C27_2 C21_2 1_555 1_555
H12_2 C27_2 1_555 1_555
C28_2 C19_2 1_555 1_555
H13_2 C28_2 1_555 1_555
C29_2 H14_2 1_555 1_555
N1_2 C29_2 1_555 1_555
C30_2 C33_2 1_555 1_555
C31_2 C17_2 1_555 1_555
H15_2 C31_2 1_555 1_555
C32_2 O12_2 1_555 1_555
C33_2 C32_2 1_555 1_555
C34_2 H16_2 1_555 1_555
C35_2 C33_2 1_555 1_555
H17_2 C35_2 1_555 1_555
C36_2 N1_2 1_555 1_555
H18_2 C36_2 1_555 1_555
H19_2 C36_2 1_555 1_555
H20_2 C36_2 1_555 1_555
C37_2 C32_2 1_555 1_555
H21_2 C37_2 1_555 1_555
C38_2 C19_2 1_555 1_555
C39_2 N1_2 1_555 1_555
H23_2 C39_2 1_555 1_555
H24_2 C39_2 1_555 1_555
H25_2 C39_2 1_555 1_555
Zn11 O1_2 1_555 1_555
O24_2 Zn6 1_555 1_555
O27_2 Zn6 1_555 1_555
O39_2 Zn6 1_555 1_555
O42_2 Zn11 1_555 1_555
O9_2 Zn11 1_555 1_555
C5_2 C18_2 1_555 1_555
C21_2 C23_2 1_555 1_555
C22_2 C24_2 1_555 1_555
C22_2 C25_2 1_555 1_555
C24_2 C28_2 1_555 1_555
C27_2 C31_2 1_555 1_555
C34_2 C35_2 1_555 1_555
C34_2 C38_2 1_555 1_555
C37_2 C38_2 1_555 1_555
O16_2 C65_2 1_555 1_555
O23 C69_2 1_555 1_555
O39_2 C65_2 1_555 1_555
O41_2 C99_2 1_555 1_555
O50_2 H27_2 1_555 1_555
O52_2 H29_2 1_555 1_555
O54_2 H31_2 1_555 1_555
C47_2 H35_2 1_555 1_555
C49_2 C55_2 1_555 1_555
C55_2 H37_2 1_555 1_555
C57_2 O54_2 1_555 1_555
C65_2 C73_2 1_555 1_555
C69_2 O31_2 1_555 1_555
C71_2 C55_2 1_555 1_555
H41_2 C71_2 1_555 1_555
C73_2 C57_2 1_555 1_555
C75_2 O50_2 1_555 1_555
C77_2 C91_2 1_555 1_555
C79_2 C57_2 1_555 1_555
H43_2 C79_2 1_555 1_555
C81_2 C79_2 1_555 1_555
C83_2 C71_2 1_555 1_555
C85_2 C47_2 1_555 1_555
C87_2 C47_2 1_555 1_555
C89_2 C75_2 1_555 1_555
H45_2 C89_2 1_555 1_555
C91_2 C85_2 1_555 1_555
H47_2 C91_2 1_555 1_555
C93_2 C81_2 1_555 1_555
H49_2 C93_2 1_555 1_555
C95_2 C77_2 1_555 1_555
H51_2 C95_2 1_555 1_555
C99_2 C105_2 1_555 1_555
C101_2 C73_2 1_555 1_555
H55_2 C101_2 1_555 1_555
C103_2 O52_2 1_555 1_555
C105_2 C103_2 1_555 1_555
C107_2 H57_2 1_555 1_555
C109_2 C105_2 1_555 1_555
H59_2 C109_2 1_555 1_555
C113_2 C103_2 1_555 1_555
H67_2 C113_2 1_555 1_555
C115_2 C77_2 1_555 1_555
Zn15_2 O16_2 1_555 1_555
C49_2 C69_2 1_555 1_555
C49_2 C75_2 1_555 1_555
C81_2 C85_2 1_555 1_555
C83_2 C87_2 1_555 1_555
C83_2 C89_2 1_555 1_555
C87_2 C95_2 1_555 1_555
C93_2 C101_2 1_555 1_555
C107_2 C109_2 1_555 1_555
C107_2 C115_2 1_555 1_555
C113_2 C115_2 1_555 1_555
O17 C13_3 1_555 1_555
O24_2 C15_3 1_555 1_555
O5_3 C15_3 1_555 1_555
O38_2 C13_3 1_555 1_555
O8_3 C30_3 1_555 1_555
O11_3 H1_3 1_555 1_555
O12_3 H2_3 1_555 1_555
O13_3 H3_3 1_555 1_555
C4_3 H5_3 1_555 1_555
C5_3 C8_3 1_555 1_555
C8_3 H6_3 1_555 1_555
C9_3 O13_3 1_555 1_555
C13_3 C17_3 1_555 1_555
C15_3 C5_3 1_555 1_555
C16_3 C8_3 1_555 1_555
H8_3 C16_3 1_555 1_555
C17_3 C9_3 1_555 1_555
C18_3 O11_3 1_555 1_555
C19_3 C26_3 1_555 1_555
C20_3 C9_3 1_555 1_555
H9_3 C20_3 1_555 1_555
C21_3 C20_3 1_555 1_555
C22_3 C16_3 1_555 1_555
C23_3 C4_3 1_555 1_555
C24_3 C4_3 1_555 1_555
C25_3 C18_3 1_555 1_555
H10_3 C25_3 1_555 1_555
C26_3 C23_3 1_555 1_555
H11_3 C26_3 1_555 1_555
C27_3 C21_3 1_555 1_555
H12_3 C27_3 1_555 1_555
C28_3 C19_3 1_555 1_555
H13_3 C28_3 1_555 1_555
C30_3 C33_3 1_555 1_555
C31_3 C17_3 1_555 1_555
H15_3 C31_3 1_555 1_555
C32_3 O12_3 1_555 1_555
C33_3 C32_3 1_555 1_555
C34_3 H16_3 1_555 1_555
C35_3 C33_3 1_555 1_555
H17_3 C35_3 1_555 1_555
C37_3 C32_3 1_555 1_555
H21_3 C37_3 1_555 1_555
C38_3 C19_3 1_555 1_555
O20_3 Zn5 1_555 1_555
O34_3 Zn15_2 1_555 1_555
O43_3 Zn15_2 1_555 1_555
O45_3 C96_3 1_555 1_555
C96_3 H52_3 1_555 1_555
N2_3 C96_3 1_555 1_555
C110_3 N2_3 1_555 1_555
H60_3 C110_3 1_555 1_555
H62_3 C110_3 1_555 1_555
H64_3 C110_3 1_555 1_555
C116_3 N2_3 1_555 1_555
H70_3 C116_3 1_555 1_555
H72_3 C116_3 1_555 1_555
H74_3 C116_3 1_555 1_555
Zn5 O27_2 1_555 1_555
Zn15_2 O27_2 1_555 1_555
O5_3 Zn15_2 1_555 1_555
C5_3 C18_3 1_555 1_555
C21_3 C23_3 1_555 1_555
C22_3 C24_3 1_555 1_555
C22_3 C25_3 1_555 1_555
C24_3 C28_3 1_555 1_555
C27_3 C31_3 1_555 1_555
C34_3 C35_3 1_555 1_555
C34_3 C38_3 1_555 1_555
C37_3 C38_3 1_555 1_555
O45_3 Zn15_2 1_555 1_555
O10 C30_4 1_555 1_555
C19_4 C26_4 1_555 1_555
H11_4 C26_4 1_555 1_555
C28_4 C19_4 1_555 1_555
H13_4 C28_4 1_555 1_555
C30_4 C33_4 1_555 1_555
C33_4 C32_4 1_555 1_555
C34_4 H16_4 1_555 1_555
C35_4 C33_4 1_555 1_555
H17_4 C35_4 1_555 1_555
C37_4 C32_4 1_555 1_555
H21_4 C37_4 1_555 1_555
C38_4 C19_4 1_555 1_555
C34_4 C35_4 1_555 1_555
C34_4 C38_4 1_555 1_555
C37_4 C38_4 1_555 1_555
O12_4 H2_4 1_555 1_555
H70_4 C116_4 1_555 1_555
H74_4 C116_4 1_555 1_555
O42 C30_5 1_555 1_555
O10_2 C30_5 1_555 1_555
O12_5 H2_5 1_555 1_555
C19_5 C26_5 1_555 1_555
H11_5 C26_5 1_555 1_555
C28_5 C19_5 1_555 1_555
H13_5 C28_5 1_555 1_555
C30_5 C33_5 1_555 1_555
C32_5 O12_5 1_555 1_555
C33_5 C32_5 1_555 1_555
C34_5 H16_5 1_555 1_555
C35_5 C33_5 1_555 1_555
H17_5 C35_5 1_555 1_555
C37_5 C32_5 1_555 1_555
H21_5 C37_5 1_555 1_555
C38_5 C19_5 1_555 1_555
H70_5 C116_5 1_555 1_555
H72_5 C116_5 1_555 1_555
H74_5 C116_5 1_555 1_555
C34_5 C35_5 1_555 1_555
C34_5 C38_5 1_555 1_555
C37_5 C38_5 1_555 1_555
O12_6 H2_6 1_555 1_555
H70_6 C116_6 1_555 1_555
H74_6 C116_6 1_555 1_555
O10_3 C30_6 1_555 1_555
C19_6 C26_6 1_555 1_555
H11_6 C26_6 1_555 1_555
C28_6 C19_6 1_555 1_555
H13_6 C28_6 1_555 1_555
C30_6 C33_6 1_555 1_555
C33_6 C32_6 1_555 1_555
C34_6 H16_6 1_555 1_555
C35_6 C33_6 1_555 1_555
H17_6 C35_6 1_555 1_555
C37_6 C32_6 1_555 1_555
H21_6 C37_6 1_555 1_555
C38_6 C19_6 1_555 1_555
C34_6 C35_6 1_555 1_555
C34_6 C38_6 1_555 1_555
C37_6 C38_6 1_555 1_555
O48 C99_3 1_555 1_555
C77_3 C91_3 1_555 1_555
H47_3 C91_3 1_555 1_555
C95_3 C77_3 1_555 1_555
H51_3 C95_3 1_555 1_555
C99_3 C105_3 1_555 1_555
C105_3 C103_3 1_555 1_555
C107_3 H57_3 1_555 1_555
C109_3 C105_3 1_555 1_555
H59_3 C109_3 1_555 1_555
C113_3 C103_3 1_555 1_555
H67_3 C113_3 1_555 1_555
C115_3 C77_3 1_555 1_555
C107_3 C109_3 1_555 1_555
C107_3 C115_3 1_555 1_555
C113_3 C115_3 1_555 1_555
H23_3 C39_3 1_555 1_555
H25_3 C39_3 1_555 1_555
O43_3 C98_2 1_555 1_555
O47 C98_2 1_555 1_555
O51_2 H28_2 1_555 1_555
O52_3 H29_3 1_555 1_555
C76_2 C90_2 1_555 1_555
H46_2 C90_2 1_555 1_555
C94_2 C76_2 1_555 1_555
H50_2 C94_2 1_555 1_555
C98_2 C104_2 1_555 1_555
C102_2 O51_2 1_555 1_555
C104_2 C102_2 1_555 1_555
C106_2 H56_2 1_555 1_555
C108_2 C104_2 1_555 1_555
H58_2 C108_2 1_555 1_555
C112_2 C102_2 1_555 1_555
H66_2 C112_2 1_555 1_555
C114_2 C76_2 1_555 1_555
H71_2 C117_2 1_555 1_555
H73_2 C117_2 1_555 1_555
H75_2 C117_2 1_555 1_555
C106_2 C108_2 1_555 1_555
C106_2 C114_2 1_555 1_555
C112_2 C114_2 1_555 1_555
H23_4 C39_4 1_555 1_555
H25_4 C39_4 1_555 1_555
O52_4 H29_4 1_555 1_555
O48_2 C99_4 1_555 1_555
C77_4 C91_4 1_555 1_555
H47_4 C91_4 1_555 1_555
C95_4 C77_4 1_555 1_555
H51_4 C95_4 1_555 1_555
C99_4 C105_4 1_555 1_555
C105_4 C103_4 1_555 1_555
C107_4 H57_4 1_555 1_555
C109_4 C105_4 1_555 1_555
H59_4 C109_4 1_555 1_555
C113_4 C103_4 1_555 1_555
H67_4 C113_4 1_555 1_555
C115_4 C77_4 1_555 1_555
C107_4 C109_4 1_555 1_555
C107_4 C115_4 1_555 1_555
C113_4 C115_4 1_555 1_555
O20 C6_2 1_555 1_555
O34 C6_2 1_555 1_555
C1_2 H4_2 1_555 1_555
C2_2 C3_2 1_555 1_555
C3_2 C12_2 1_555 1_555
C6_2 C2_2 1_555 1_555
C7_2 C1_2 1_555 1_555
C10_2 C11_2 1_555 1_555
C11_2 C1_2 1_555 1_555
C12_2 C11_2 1_555 1_555
H7_2 C12_2 1_555 1_555
C14_2 C10_2 1_555 1_555
O14_2 C3_2 1_555 1_555
H22_2 O14_2 1_555 1_555
O20_2 C50_2 1_555 1_555
O20_3 C51_2 1_555 1_555
O34_2 C50_2 1_555 1_555
C40_2 H32_2 1_555 1_555
C41_2 H33_2 1_555 1_555
C42_2 C44_2 1_555 1_555
C43_2 C45_2 1_555 1_555
C44_2 C62_2 1_555 1_555
C45_2 C63_2 1_555 1_555
C50_2 C42_2 1_555 1_555
C51_2 O34_3 1_555 1_555
C52_2 C40_2 1_555 1_555
C53_2 C41_2 1_555 1_555
C58_2 C14_2 1_555 1_555
C59_2 C61_2 1_555 1_555
C60_2 C40_2 1_555 1_555
C61_2 C41_2 1_555 1_555
C62_2 C60_2 1_555 1_555
C63_2 C61_2 1_555 1_555
H38_2 C62_2 1_555 1_555
H39_2 C63_2 1_555 1_555
C66_2 C58_2 1_555 1_555
C67_2 C10_2 1_555 1_555
O55_2 C44_2 1_555 1_555
O56_2 C45_2 1_555 1_555
H68_2 O55_2 1_555 1_555
H69_2 O56_2 1_555 1_555
C2_2 C7_2 1_555 1_555
C42_2 C52_2 1_555 1_555
C43_2 C51_2 1_555 1_555
C43_2 C53_2 1_555 1_555
C58_2 C60_2 1_555 1_555
C59_2 C66_2 1_555 1_555
C59_2 C67_2 1_555 1_555
C7_2 H76_2 1_555 1_555
C14_2 H77_2 1_555 1_555
C52_2 H78_2 1_555 1_555
C53_2 H79_2 1_555 1_555
C67_2 H80_2 1_555 1_555
C66_2 H81_2 1_555 1_555
O1_3 C13_4 1_555 1_555
O2_2 C6_3 1_555 1_555
O3_2 C15_4 1_555 1_555
O4_2 Zn1_2 1_555 1_555
O5_4 C15_4 1_555 1_555
O6_2 C6_3 1_555 1_555
O7_2 C13_4 1_555 1_555
O9_3 C29_3 1_555 1_555
O11_4 H1_4 1_555 1_555
O13_4 H3_4 1_555 1_555
C1_3 H4_3 1_555 1_555
C2_3 C3_3 1_555 1_555
C3_3 C12_3 1_555 1_555
C4_4 H5_4 1_555 1_555
C5_4 C8_4 1_555 1_555
C6_3 C2_3 1_555 1_555
C7_3 C1_3 1_555 1_555
C8_4 H6_4 1_555 1_555
C9_4 O13_4 1_555 1_555
C10_3 C11_3 1_555 1_555
C11_3 C1_3 1_555 1_555
C12_3 C11_3 1_555 1_555
H7_3 C12_3 1_555 1_555
C13_4 C17_4 1_555 1_555
C14_3 C10_3 1_555 1_555
C15_4 C5_4 1_555 1_555
C16_4 C8_4 1_555 1_555
H8_4 C16_4 1_555 1_555
C17_4 C9_4 1_555 1_555
C18_4 O11_4 1_555 1_555
C20_4 C9_4 1_555 1_555
H9_4 C20_4 1_555 1_555
C21_4 C20_4 1_555 1_555
C22_4 C16_4 1_555 1_555
C23_4 C4_4 1_555 1_555
C24_4 C4_4 1_555 1_555
C25_4 C18_4 1_555 1_555
C27_4 C21_4 1_555 1_555
C29_3 H14_3 1_555 1_555
N1_3 C29_3 1_555 1_555
C31_4 C17_4 1_555 1_555
H15_4 C31_4 1_555 1_555
C36_3 N1_3 1_555 1_555
H18_5 C36_3 1_555 1_555
H19_3 C36_3 1_555 1_555
H20_3 C36_3 1_555 1_555
O14_3 C3_3 1_555 1_555
H22_3 O14_3 1_555 1_555
C39_5 N1_3 1_555 1_555
H23_5 C39_5 1_555 1_555
H24_5 C39_5 1_555 1_555
H25_5 C39_5 1_555 1_555
Zn1_2 O2_2 1_555 1_555
Zn2_2 O1_3 1_555 1_555
O15_2 C64_2 1_555 1_555
O18_2 C50_3 1_555 1_555
O19_2 C51_3 1_555 1_555
O20_4 Zn3_2 1_555 1_555
O22_2 C69_3 1_555 1_555
O23_2 Zn3_2 1_555 1_555
O24_3 Zn4_2 1_555 1_555
O25_2 Zn1_2 1_555 1_555
O26_2 Zn2_2 1_555 1_555
O27_3 Zn4_2 1_555 1_555
O28_2 Zn4_2 1_555 1_555
O31_3 Zn2_2 1_555 1_555
O32_2 C50_3 1_555 1_555
O33_2 Zn2_2 1_555 1_555
O34_4 Zn16 1_555 1_555
O36_2 Zn1_2 1_555 1_555
O38_3 Zn3_2 1_555 1_555
O39_3 Zn4_2 1_555 1_555
O42_3 Zn2_2 1_555 1_555
O45_4 C96_4 1_555 1_555
O50_3 H27_3 1_555 1_555
O53_2 H30_2 1_555 1_555
C40_3 H32_3 1_555 1_555
C41_3 H33_3 1_555 1_555
C42_3 C44_3 1_555 1_555
C43_3 C45_3 1_555 1_555
C44_3 C62_3 1_555 1_555
C45_3 C63_3 1_555 1_555
C50_3 C42_3 1_555 1_555
C51_3 O33_2 1_555 1_555
C52_3 C40_3 1_555 1_555
C53_3 C41_3 1_555 1_555
C58_3 C14_3 1_555 1_555
C59_3 C61_3 1_555 1_555
C60_3 C40_3 1_555 1_555
C61_3 C41_3 1_555 1_555
C62_3 C60_3 1_555 1_555
C63_3 C61_3 1_555 1_555
H38_3 C62_3 1_555 1_555
H39_3 C63_3 1_555 1_555
C64_2 O36_2 1_555 1_555
C66_3 C58_3 1_555 1_555
C67_3 C10_3 1_555 1_555
C69_3 O31_3 1_555 1_555
C100_2 C72_2 1_555 1_555
H54_2 C100_2 1_555 1_555
O55_3 C44_3 1_555 1_555
O56_3 C45_3 1_555 1_555
H68_3 O55_3 1_555 1_555
H69_3 O56_3 1_555 1_555
Zn3_2 O4_2 1_555 1_555
Zn4_2 O18_2 1_555 1_555
Zn5_2 O7_2 1_555 1_555
Zn6_2 O19_2 1_555 1_555
Zn16 O4_2 1_555 1_555
Zn11_2 O6_2 1_555 1_555
Zn13_2 O28_2 1_555 1_555
O3_2 Zn1_2 1_555 1_555
O5_4 Zn16 1_555 1_555
O9_3 Zn2_2 1_555 1_555
C2_3 C7_3 1_555 1_555
C5_4 C18_4 1_555 1_555
C21_4 C23_4 1_555 1_555
C22_4 C24_4 1_555 1_555
C22_4 C25_4 1_555 1_555
C27_4 C31_4 1_555 1_555
O15_2 Zn16 1_555 1_555
O22_2 Zn5_2 1_555 1_555
O25_2 Zn3_2 1_555 1_555
O25_2 Zn11_2 1_555 1_555
O26_2 Zn5_2 1_555 1_555
O26_2 Zn6_2 1_555 1_555
O32_2 Zn13_2 1_555 1_555
O45_4 Zn16 1_555 1_555
C42_3 C52_3 1_555 1_555
C43_3 C51_3 1_555 1_555
C43_3 C53_3 1_555 1_555
C49_3 C69_3 1_555 1_555
C58_3 C60_3 1_555 1_555
C59_3 C66_3 1_555 1_555
C59_3 C67_3 1_555 1_555
C64_2 C72_2 1_555 1_555
C7_3 H76_3 1_555 1_555
C14_3 H77_3 1_555 1_555
C52_3 H78_3 1_555 1_555
C53_3 H79_3 1_555 1_555
C67_3 H80_3 1_555 1_555
C66_3 H81_3 1_555 1_555
O16_3 C65_3 1_555 1_555
O39_3 C65_3 1_555 1_555
O40_2 C98_3 1_555 1_555
O41_3 C99_5 1_555 1_555
O47_3 C98_3 1_555 1_555
O48_5 C99_5 1_555 1_555
O51_3 H28_3 1_555 1_555
O52_5 H29_5 1_555 1_555
O54_3 H31_3 1_555 1_555
C46_2 H34_2 1_555 1_555
C47_3 H35_3 1_555 1_555
C54_2 H36_2 1_555 1_555
C55_3 H37_3 1_555 1_555
C57_3 O54_3 1_555 1_555
C65_3 C73_3 1_555 1_555
C70_2 C54_2 1_555 1_555
C71_3 C55_3 1_555 1_555
H40_2 C70_2 1_555 1_555
H41_3 C71_3 1_555 1_555
C73_3 C57_3 1_555 1_555
C76_3 C90_3 1_555 1_555
C77_5 C91_5 1_555 1_555
C78_2 C56_2 1_555 1_555
C79_3 C57_3 1_555 1_555
H42_2 C78_2 1_555 1_555
H43_3 C79_3 1_555 1_555
C80_2 C78_2 1_555 1_555
C81_3 C79_3 1_555 1_555
C82_2 C70_2 1_555 1_555
C83_3 C71_3 1_555 1_555
C84_2 C46_2 1_555 1_555
C85_3 C47_3 1_555 1_555
C86_2 C46_2 1_555 1_555
C87_3 C47_3 1_555 1_555
C88_2 C74_2 1_555 1_555
C89_3 C75_3 1_555 1_555
H44_3 C88_2 1_555 1_555
H45_5 C89_3 1_555 1_555
C90_3 C84_2 1_555 1_555
C91_5 C85_3 1_555 1_555
H46_3 C90_3 1_555 1_555
H47_5 C91_5 1_555 1_555
C92_2 C80_2 1_555 1_555
C93_3 C81_3 1_555 1_555
H48_3 C92_2 1_555 1_555
H49_5 C93_3 1_555 1_555
C94_3 C76_3 1_555 1_555
C95_5 C77_5 1_555 1_555
H50_3 C94_3 1_555 1_555
H51_5 C95_5 1_555 1_555
C98_3 C104_3 1_555 1_555
C99_5 C105_5 1_555 1_555
C101_3 C73_3 1_555 1_555
H55_3 C101_3 1_555 1_555
C102_3 O51_3 1_555 1_555
C103_5 O52_5 1_555 1_555
C104_3 C102_3 1_555 1_555
C105_5 C103_5 1_555 1_555
C106_3 H56_3 1_555 1_555
C107_5 H57_5 1_555 1_555
C108_3 C104_3 1_555 1_555
C109_5 C105_5 1_555 1_555
H58_3 C108_3 1_555 1_555
H59_5 C109_5 1_555 1_555
C110_4 N2_4 1_555 1_555
H62_4 C110_4 1_555 1_555
H64_4 C110_4 1_555 1_555
C112_3 C102_3 1_555 1_555
C113_5 C103_5 1_555 1_555
H66_3 C112_3 1_555 1_555
H67_5 C113_5 1_555 1_555
C114_3 C76_3 1_555 1_555
C115_5 C77_5 1_555 1_555
Zn14_2 O40_2 1_555 1_555
Zn16_2 O16_3 1_555 1_555
Zn16_3 O41_3 1_555 1_555
C80_2 C84_2 1_555 1_555
C81_3 C85_3 1_555 1_555
C82_2 C86_2 1_555 1_555
C82_2 C88_2 1_555 1_555
C83_3 C87_3 1_555 1_555
C83_3 C89_3 1_555 1_555
C86_2 C94_3 1_555 1_555
C87_3 C95_5 1_555 1_555
C93_3 C101_3 1_555 1_555
C106_3 C108_3 1_555 1_555
C106_3 C114_3 1_555 1_555
C107_5 C109_5 1_555 1_555
C107_5 C115_5 1_555 1_555
C112_3 C114_3 1_555 1_555
C113_5 C115_5 1_555 1_555
O17_2 Zn13_2 1_555 1_555
O21_2 C68_2 1_555 1_555
O28_2 Zn7_2 1_555 1_555
O30_2 C68_2 1_555 1_555
O44_2 Zn13_2 1_555 1_555
O46_2 C97_2 1_555 1_555
O49_2 H26_2 1_555 1_555
C68_2 C48_2 1_555 1_555
C97_2 H53_2 1_555 1_555
N3_2 C97_2 1_555 1_555
C111_2 N3_2 1_555 1_555
H61_3 C111_2 1_555 1_555
H63_2 C111_2 1_555 1_555
H65_2 C111_2 1_555 1_555
C117_3 N3_2 1_555 1_555
H71_3 C117_3 1_555 1_555
H73_3 C117_3 1_555 1_555
H75_3 C117_3 1_555 1_555
Zn7_2 O21_2 1_555 1_555
O30_2 Zn13_2 1_555 1_555
O46_2 Zn13_2 1_555 1_555
O1_4 C13_5 1_555 1_555
O24_3 C15_5 1_555 1_555
O5_5 C15_5 1_555 1_555
O38_3 C13_5 1_555 1_555
O9_4 C29_4 1_555 1_555
O11_5 H1_5 1_555 1_555
O13_5 H3_5 1_555 1_555
C4_5 H5_5 1_555 1_555
C5_5 C8_5 1_555 1_555
C8_5 H6_5 1_555 1_555
C9_5 O13_5 1_555 1_555
C13_5 C17_5 1_555 1_555
C15_5 C5_5 1_555 1_555
C16_5 C8_5 1_555 1_555
H8_5 C16_5 1_555 1_555
C17_5 C9_5 1_555 1_555
C18_5 O11_5 1_555 1_555
C20_5 C9_5 1_555 1_555
H9_5 C20_5 1_555 1_555
C21_5 C20_5 1_555 1_555
C22_5 C16_5 1_555 1_555
C23_5 C4_5 1_555 1_555
C24_5 C4_5 1_555 1_555
C25_5 C18_5 1_555 1_555
C27_5 C21_5 1_555 1_555
C29_4 H14_4 1_555 1_555
N1_4 C29_4 1_555 1_555
C31_5 C17_5 1_555 1_555
H15_5 C31_5 1_555 1_555
C36_4 N1_4 1_555 1_555
H18_6 C36_4 1_555 1_555
H19_4 C36_4 1_555 1_555
H20_4 C36_4 1_555 1_555
C39_6 N1_4 1_555 1_555
H23_6 C39_6 1_555 1_555
H24_6 C39_6 1_555 1_555
H25_6 C39_6 1_555 1_555
Zn11_2 O1_4 1_555 1_555
O20_5 Zn7_2 1_555 1_555
O23_2 C69_4 1_555 1_555
O24_4 Zn6_2 1_555 1_555
O27_4 Zn6_2 1_555 1_555
O31_4 Zn11_2 1_555 1_555
O34_5 Zn16_2 1_555 1_555
O38_4 Zn7_2 1_555 1_555
O39_4 Zn6_2 1_555 1_555
O41_4 C99_6 1_555 1_555
O42_4 Zn11_2 1_555 1_555
O45_5 C96_5 1_555 1_555
O48_6 C99_6 1_555 1_555
O50_4 H27_4 1_555 1_555
O52_6 H29_6 1_555 1_555
C47_4 H35_4 1_555 1_555
C49_4 C55_4 1_555 1_555
C55_4 H37_4 1_555 1_555
C69_4 O31_4 1_555 1_555
C71_4 C55_4 1_555 1_555
H41_4 C71_4 1_555 1_555
C75_4 O50_4 1_555 1_555
C77_6 C91_6 1_555 1_555
C79_4 C57_4 1_555 1_555
H43_4 C79_4 1_555 1_555
C81_4 C79_4 1_555 1_555
C83_4 C71_4 1_555 1_555
C85_4 C47_4 1_555 1_555
C87_4 C47_4 1_555 1_555
C89_4 C75_4 1_555 1_555
H45_6 C89_4 1_555 1_555
C91_6 C85_4 1_555 1_555
H47_6 C91_6 1_555 1_555
C93_4 C81_4 1_555 1_555
H49_6 C93_4 1_555 1_555
C95_6 C77_6 1_555 1_555
H51_6 C95_6 1_555 1_555
C96_5 H52_5 1_555 1_555
N2_5 C96_5 1_555 1_555
C99_6 C105_6 1_555 1_555
C103_6 O52_6 1_555 1_555
C105_6 C103_6 1_555 1_555
C107_6 H57_6 1_555 1_555
C109_6 C105_6 1_555 1_555
H59_6 C109_6 1_555 1_555
C110_5 N2_5 1_555 1_555
H62_5 C110_5 1_555 1_555
H64_5 C110_5 1_555 1_555
C113_6 C103_6 1_555 1_555
H67_6 C113_6 1_555 1_555
C115_6 C77_6 1_555 1_555
Zn7_2 O27_3 1_555 1_555
Zn16_2 O27_3 1_555 1_555
Zn16_4 O41_4 1_555 1_555
O5_5 Zn16_2 1_555 1_555
O9_4 Zn11_2 1_555 1_555
C5_5 C18_5 1_555 1_555
C21_5 C23_5 1_555 1_555
C22_5 C24_5 1_555 1_555
C22_5 C25_5 1_555 1_555
C27_5 C31_5 1_555 1_555
O45_5 Zn16_2 1_555 1_555
C49_4 C69_4 1_555 1_555
C49_4 C75_4 1_555 1_555
C81_4 C85_4 1_555 1_555
C83_4 C87_4 1_555 1_555
C83_4 C89_4 1_555 1_555
C87_4 C95_6 1_555 1_555
C107_6 C109_6 1_555 1_555
C107_6 C115_6 1_555 1_555
C113_6 C115_6 1_555 1_555
O16_4 C65_4 1_555 1_555
O39_4 C65_4 1_555 1_555
O54_4 H31_4 1_555 1_555
C65_4 C73_4 1_555 1_555
C101_4 C73_4 1_555 1_555
H55_4 C101_4 1_555 1_555
Zn14 O16_4 1_555 1_555
C110_6 N2_6 1_555 1_555
H62_6 C110_6 1_555 1_555
H64_6 C110_6 1_555 1_555
O17_2 C13_6 1_555 1_555
O24_4 C15_6 1_555 1_555
O5_6 C15_6 1_555 1_555
O38_4 C13_6 1_555 1_555
O11_6 H1_6 1_555 1_555
O13_6 H3_6 1_555 1_555
C4_6 H5_6 1_555 1_555
C5_6 C8_6 1_555 1_555
C8_6 H6_6 1_555 1_555
C9_6 O13_6 1_555 1_555
C13_6 C17_6 1_555 1_555
C15_6 C5_6 1_555 1_555
C16_6 C8_6 1_555 1_555
H8_6 C16_6 1_555 1_555
C17_6 C9_6 1_555 1_555
C18_6 O11_6 1_555 1_555
C20_6 C9_6 1_555 1_555
H9_6 C20_6 1_555 1_555
C21_6 C20_6 1_555 1_555
C22_6 C16_6 1_555 1_555
C23_6 C4_6 1_555 1_555
C24_6 C4_6 1_555 1_555
C25_6 C18_6 1_555 1_555
C27_6 C21_6 1_555 1_555
C31_6 C17_6 1_555 1_555
H15_6 C31_6 1_555 1_555
O20_6 Zn5_2 1_555 1_555
O34_6 Zn14 1_555 1_555
O45_6 C96_6 1_555 1_555
Zn5_2 O27_4 1_555 1_555
Zn14 O27_4 1_555 1_555
O5_6 Zn14 1_555 1_555
C5_6 C18_6 1_555 1_555
C21_6 C23_6 1_555 1_555
C22_6 C24_6 1_555 1_555
C22_6 C25_6 1_555 1_555
C27_6 C31_6 1_555 1_555
O45_6 Zn14 1_555 1_555
O18_3 C50_4 1_555 1_555
O24_5 Zn4_3 1_555 1_555
O27_5 Zn4_3 1_555 1_555
O28_3 Zn4_3 1_555 1_555
O32_3 C50_4 1_555 1_555
O39_5 Zn4_3 1_555 1_555
C40_4 H32_4 1_555 1_555
C42_4 C44_4 1_555 1_555
C44_4 C62_4 1_555 1_555
C50_4 C42_4 1_555 1_555
C52_4 C40_4 1_555 1_555
C60_4 C40_4 1_555 1_555
C62_4 C60_4 1_555 1_555
H38_4 C62_4 1_555 1_555
C66_4 C58_4 1_555 1_555
O55_4 C44_4 1_555 1_555
H68_4 O55_4 1_555 1_555
Zn4_3 O18_3 1_555 1_555
Zn12 O28_3 1_555 1_555
O32_3 Zn12 1_555 1_555
C42_4 C52_4 1_555 1_555
C58_4 C60_4 1_555 1_555
C52_4 H78_4 1_555 1_555
C66_4 H81_4 1_555 1_555
C14_4 H77_4 1_555 1_555
O1_5 C13_7 1_555 1_555
O7_3 C13_7 1_555 1_555
O9_5 C29_5 1_555 1_555
O13_7 H3_7 1_555 1_555
C13_7 C17_7 1_555 1_555
C31_7 C17_7 1_555 1_555
H15_7 C31_7 1_555 1_555
Zn12_2 O1_5 1_555 1_555
O16_5 C65_5 1_555 1_555
O19_3 C51_4 1_555 1_555
O22_3 C69_5 1_555 1_555
O26_3 Zn12_2 1_555 1_555
O31_5 Zn12_2 1_555 1_555
O33_3 Zn12_2 1_555 1_555
O39_5 C65_5 1_555 1_555
O50_5 H27_5 1_555 1_555
O54_5 H31_5 1_555 1_555
C41_4 H33_4 1_555 1_555
C43_4 C45_4 1_555 1_555
C45_4 C63_4 1_555 1_555
C47_5 H35_5 1_555 1_555
C49_5 C55_5 1_555 1_555
C51_4 O33_3 1_555 1_555
C53_4 C41_4 1_555 1_555
C55_5 H37_5 1_555 1_555
C57_5 O54_5 1_555 1_555
C59_4 C61_4 1_555 1_555
C61_4 C41_4 1_555 1_555
C63_4 C61_4 1_555 1_555
H39_4 C63_4 1_555 1_555
C65_5 C73_5 1_555 1_555
C69_5 O31_5 1_555 1_555
C71_5 C55_5 1_555 1_555
H41_5 C71_5 1_555 1_555
C73_5 C57_5 1_555 1_555
C75_5 O50_5 1_555 1_555
C79_5 C57_5 1_555 1_555
H43_5 C79_5 1_555 1_555
C81_5 C79_5 1_555 1_555
C83_5 C71_5 1_555 1_555
C85_5 C47_5 1_555 1_555
C87_5 C47_5 1_555 1_555
C89_5 C75_5 1_555 1_555
C93_5 C81_5 1_555 1_555
C101_5 C73_5 1_555 1_555
H55_5 C101_5 1_555 1_555
O56_4 C45_4 1_555 1_555
H69_4 O56_4 1_555 1_555
Zn5_3 O7_3 1_555 1_555
Zn6_3 O19_3 1_555 1_555
Zn16_4 O16_5 1_555 1_555
O9_5 Zn12_2 1_555 1_555
O22_3 Zn5_3 1_555 1_555
O26_3 Zn5_3 1_555 1_555
O26_3 Zn6_3 1_555 1_555
C43_4 C51_4 1_555 1_555
C43_4 C53_4 1_555 1_555
C49_5 C69_5 1_555 1_555
C49_5 C75_5 1_555 1_555
C81_5 C85_5 1_555 1_555
C83_5 C87_5 1_555 1_555
C83_5 C89_5 1_555 1_555
C93_5 C101_5 1_555 1_555
C53_4 H79_4 1_555 1_555
O2_3 C6_4 1_555 1_555
O3_3 C15_7 1_555 1_555
O4_3 Zn1_3 1_555 1_555
O5_7 C15_7 1_555 1_555
O6_3 C6_4 1_555 1_555
O44_2 C30_7 1_555 1_555
O10_7 C30_7 1_555 1_555
O11_7 H1_7 1_555 1_555
O12_7 H2_7 1_555 1_555
C1_4 H4_4 1_555 1_555
C2_4 C3_4 1_555 1_555
C3_4 C12_4 1_555 1_555
C4_7 H5_7 1_555 1_555
C5_7 C8_7 1_555 1_555
C6_4 C2_4 1_555 1_555
C7_4 C1_4 1_555 1_555
C8_7 H6_7 1_555 1_555
C10_4 C11_4 1_555 1_555
C11_4 C1_4 1_555 1_555
C12_4 C11_4 1_555 1_555
H7_4 C12_4 1_555 1_555
C15_7 C5_7 1_555 1_555
C16_7 C8_7 1_555 1_555
H8_7 C16_7 1_555 1_555
C18_7 O11_7 1_555 1_555
C19_7 C26_7 1_555 1_555
C20_7 C9_7 1_555 1_555
H9_7 C20_7 1_555 1_555
C21_7 C20_7 1_555 1_555
C22_7 C16_7 1_555 1_555
C23_7 C4_7 1_555 1_555
C24_7 C4_7 1_555 1_555
C25_7 C18_7 1_555 1_555
H10_7 C25_7 1_555 1_555
C26_7 C23_7 1_555 1_555
H11_7 C26_7 1_555 1_555
C27_7 C21_7 1_555 1_555
H12_7 C27_7 1_555 1_555
C28_7 C19_7 1_555 1_555
H13_7 C28_7 1_555 1_555
C30_7 C33_7 1_555 1_555
C32_7 O12_7 1_555 1_555
C33_7 C32_7 1_555 1_555
C34_7 H16_7 1_555 1_555
C35_7 C33_7 1_555 1_555
H17_7 C35_7 1_555 1_555
C36_5 N1_5 1_555 1_555
H19_5 C36_5 1_555 1_555
H20_5 C36_5 1_555 1_555
C37_7 C32_7 1_555 1_555
H21_7 C37_7 1_555 1_555
C38_7 C19_7 1_555 1_555
O14_4 C3_4 1_555 1_555
H22_4 O14_4 1_555 1_555
Zn1_3 O2_3 1_555 1_555
O15_3 C64_3 1_555 1_555
O17_3 Zn12 1_555 1_555
O20_7 Zn3_3 1_555 1_555
O21_3 C68_3 1_555 1_555
O23_3 Zn3_3 1_555 1_555
O25_3 Zn1_3 1_555 1_555
O28_3 Zn7_3 1_555 1_555
O30_3 C68_3 1_555 1_555
O34_7 Zn16_3 1_555 1_555
O36_3 Zn1_3 1_555 1_555
O38_5 Zn3_3 1_555 1_555
O45_7 C96_7 1_555 1_555
O46_3 C97_3 1_555 1_555
O49_3 H26_3 1_555 1_555
O53_3 H30_3 1_555 1_555
C46_3 H34_3 1_555 1_555
C48_3 C54_3 1_555 1_555
C54_3 H36_3 1_555 1_555
C56_3 O53_3 1_555 1_555
C64_3 O36_3 1_555 1_555
C67_4 C10_4 1_555 1_555
C68_3 C48_3 1_555 1_555
C70_3 C54_3 1_555 1_555
H40_3 C70_3 1_555 1_555
C72_3 C56_3 1_555 1_555
C74_3 O49_3 1_555 1_555
C78_3 C56_3 1_555 1_555
H42_3 C78_3 1_555 1_555
C80_3 C78_3 1_555 1_555
C82_3 C70_3 1_555 1_555
C84_3 C46_3 1_555 1_555
C86_3 C46_3 1_555 1_555
C88_3 C74_3 1_555 1_555
C92_3 C80_3 1_555 1_555
C96_7 H52_7 1_555 1_555
C97_3 H53_3 1_555 1_555
N2_7 C96_7 1_555 1_555
N3_3 C97_3 1_555 1_555
C100_3 C72_3 1_555 1_555
H54_3 C100_3 1_555 1_555
C110_7 N2_7 1_555 1_555
C111_3 N3_3 1_555 1_555
H60_7 C110_7 1_555 1_555
H62_7 C110_7 1_555 1_555
H63_3 C111_3 1_555 1_555
H64_7 C110_7 1_555 1_555
H65_3 C111_3 1_555 1_555
C116_7 N2_7 1_555 1_555
H70_7 C116_7 1_555 1_555
H72_7 C116_7 1_555 1_555
H74_7 C116_7 1_555 1_555
Zn3_3 O4_3 1_555 1_555
Zn7_3 O21_3 1_555 1_555
Zn16_3 O4_3 1_555 1_555
Zn12_3 O6_3 1_555 1_555
O3_3 Zn1_3 1_555 1_555
O5_7 Zn16_3 1_555 1_555
C2_4 C7_4 1_555 1_555
C5_7 C18_7 1_555 1_555
C21_7 C23_7 1_555 1_555
C22_7 C24_7 1_555 1_555
C22_7 C25_7 1_555 1_555
C24_7 C28_7 1_555 1_555
C34_7 C35_7 1_555 1_555
C34_7 C38_7 1_555 1_555
C37_7 C38_7 1_555 1_555
O15_3 Zn16_3 1_555 1_555
O25_3 Zn3_3 1_555 1_555
O25_3 Zn12_3 1_555 1_555
O30_3 Zn12 1_555 1_555
O45_7 Zn16_3 1_555 1_555
O46_3 Zn12 1_555 1_555
C48_3 C74_3 1_555 1_555
C64_3 C72_3 1_555 1_555
C80_3 C84_3 1_555 1_555
C82_3 C86_3 1_555 1_555
C82_3 C88_3 1_555 1_555
C92_3 C100_3 1_555 1_555
C7_4 H76_4 1_555 1_555
C67_4 H80_4 1_555 1_555
O24_5 C15_8 1_555 1_555
O5_8 C15_8 1_555 1_555
O11_8 H1_8 1_555 1_555
C15_8 C5_8 1_555 1_555
O20_8 Zn7_3 1_555 1_555
O34_8 Zn16_4 1_555 1_555
O38_6 Zn7_3 1_555 1_555
O45_8 C96_8 1_555 1_555
C96_8 H52_8 1_555 1_555
N2_8 C96_8 1_555 1_555
C110_8 N2_8 1_555 1_555
H60_8 C110_8 1_555 1_555
H62_8 C110_8 1_555 1_555
H64_8 C110_8 1_555 1_555
C116_8 N2_8 1_555 1_555
H70_8 C116_8 1_555 1_555
H72_8 C116_8 1_555 1_555
H74_8 C116_8 1_555 1_555
Zn7_3 O27_5 1_555 1_555
Zn16_4 O27_5 1_555 1_555
O5_8 Zn16_4 1_555 1_555
O45_8 Zn16_4 1_555 1_555
O42_3 C30_8 1_555 1_555
O10_8 C30_8 1_555 1_555
O12_8 H2_8 1_555 1_555
C4_8 H5_8 1_555 1_555
C8_8 H6_8 1_555 1_555
C16_8 C8_8 1_555 1_555
H8_8 C16_8 1_555 1_555
C19_8 C26_8 1_555 1_555
C20_8 C9_8 1_555 1_555
H9_8 C20_8 1_555 1_555
C21_8 C20_8 1_555 1_555
C22_8 C16_8 1_555 1_555
C23_8 C4_8 1_555 1_555
C24_8 C4_8 1_555 1_555
C25_8 C18_8 1_555 1_555
H10_8 C25_8 1_555 1_555
C26_8 C23_8 1_555 1_555
H11_8 C26_8 1_555 1_555
C27_8 C21_8 1_555 1_555
H12_8 C27_8 1_555 1_555
C28_8 C19_8 1_555 1_555
H13_8 C28_8 1_555 1_555
C30_8 C33_8 1_555 1_555
C32_8 O12_8 1_555 1_555
C33_8 C32_8 1_555 1_555
C34_8 H16_8 1_555 1_555
C35_8 C33_8 1_555 1_555
H17_8 C35_8 1_555 1_555
C36_6 N1_6 1_555 1_555
H19_6 C36_6 1_555 1_555
H20_6 C36_6 1_555 1_555
C37_8 C32_8 1_555 1_555
H21_8 C37_8 1_555 1_555
C38_8 C19_8 1_555 1_555
C21_8 C23_8 1_555 1_555
C22_8 C24_8 1_555 1_555
C22_8 C25_8 1_555 1_555
C24_8 C28_8 1_555 1_555
C34_8 C35_8 1_555 1_555
C34_8 C38_8 1_555 1_555
C37_8 C38_8 1_555 1_555
O24_6 Zn6_3 1_555 1_555
O27_6 Zn6_3 1_555 1_555
O39_6 Zn6_3 1_555 1_555
O1_6 C13_8 1_555 1_555
O38_5 C13_8 1_555 1_555
O9_6 C29_6 1_555 1_555
O13_8 H3_8 1_555 1_555
C13_8 C17_8 1_555 1_555
C31_8 C17_8 1_555 1_555
H15_8 C31_8 1_555 1_555
Zn12_3 O1_6 1_555 1_555
O16_6 C65_6 1_555 1_555
O23_3 C69_6 1_555 1_555
O31_6 Zn12_3 1_555 1_555
O39_6 C65_6 1_555 1_555
O50_6 H27_6 1_555 1_555
O54_6 H31_6 1_555 1_555
C47_6 H35_6 1_555 1_555
C49_6 C55_6 1_555 1_555
C55_6 H37_6 1_555 1_555
C57_6 O54_6 1_555 1_555
C65_6 C73_6 1_555 1_555
C69_6 O31_6 1_555 1_555
C71_6 C55_6 1_555 1_555
H41_6 C71_6 1_555 1_555
C73_6 C57_6 1_555 1_555
C75_6 O50_6 1_555 1_555
C79_6 C57_6 1_555 1_555
H43_6 C79_6 1_555 1_555
C81_6 C79_6 1_555 1_555
C83_6 C71_6 1_555 1_555
C85_6 C47_6 1_555 1_555
C87_6 C47_6 1_555 1_555
C89_6 C75_6 1_555 1_555
C93_6 C81_6 1_555 1_555
C101_6 C73_6 1_555 1_555
H55_6 C101_6 1_555 1_555
Zn14_2 O16_6 1_555 1_555
O9_6 Zn12_3 1_555 1_555
C49_6 C69_6 1_555 1_555
C49_6 C75_6 1_555 1_555
C81_6 C85_6 1_555 1_555
C83_6 C87_6 1_555 1_555
C83_6 C89_6 1_555 1_555
C93_6 C101_6 1_555 1_555
O17_3 C13_9 1_555 1_555
O38_6 C13_9 1_555 1_555
O42_4 C30_9 1_555 1_555
O10_9 C30_9 1_555 1_555
O12_9 H2_9 1_555 1_555
O13_9 H3_9 1_555 1_555
C4_9 H5_9 1_555 1_555
C8_9 H6_9 1_555 1_555
C9_9 O13_9 1_555 1_555
C13_9 C17_9 1_555 1_555
C16_9 C8_9 1_555 1_555
H8_9 C16_9 1_555 1_555
C17_9 C9_9 1_555 1_555
C19_9 C26_9 1_555 1_555
C20_9 C9_9 1_555 1_555
H9_9 C20_9 1_555 1_555
C21_9 C20_9 1_555 1_555
C22_9 C16_9 1_555 1_555
C23_9 C4_9 1_555 1_555
C24_9 C4_9 1_555 1_555
C25_9 C18_9 1_555 1_555
H10_9 C25_9 1_555 1_555
C26_9 C23_9 1_555 1_555
H11_9 C26_9 1_555 1_555
C27_9 C21_9 1_555 1_555
H12_9 C27_9 1_555 1_555
C28_9 C19_9 1_555 1_555
H13_9 C28_9 1_555 1_555
C30_9 C33_9 1_555 1_555
C31_9 C17_9 1_555 1_555
H15_9 C31_9 1_555 1_555
C32_9 O12_9 1_555 1_555
C33_9 C32_9 1_555 1_555
C34_9 H16_9 1_555 1_555
C35_9 C33_9 1_555 1_555
H17_9 C35_9 1_555 1_555
C37_9 C32_9 1_555 1_555
H21_9 C37_9 1_555 1_555
C38_9 C19_9 1_555 1_555
C21_9 C23_9 1_555 1_555
C22_9 C24_9 1_555 1_555
C22_9 C25_9 1_555 1_555
C24_9 C28_9 1_555 1_555
C27_9 C31_9 1_555 1_555
C34_9 C35_9 1_555 1_555
C34_9 C38_9 1_555 1_555
C37_9 C38_9 1_555 1_555
O24_6 C15_9 1_555 1_555
O5_9 C15_9 1_555 1_555
O11_9 H1_9 1_555 1_555
C15_9 C5_9 1_555 1_555
O20_9 Zn5_3 1_555 1_555
O34_9 Zn14_2 1_555 1_555
O45_9 C96_9 1_555 1_555
C96_9 H52_9 1_555 1_555
N2_9 C96_9 1_555 1_555
C110_9 N2_9 1_555 1_555
H60_9 C110_9 1_555 1_555
H62_9 C110_9 1_555 1_555
H64_9 C110_9 1_555 1_555
C116_9 N2_9 1_555 1_555
H70_9 C116_9 1_555 1_555
H72_9 C116_9 1_555 1_555
H74_9 C116_9 1_555 1_555
Zn5_3 O27_6 1_555 1_555
Zn14_2 O27_6 1_555 1_555
O5_9 Zn14_2 1_555 1_555
O45_9 Zn14_2 1_555 1_555
O20_7 C6_5 1_555 1_555
O34_7 C6_5 1_555 1_555
C1_5 H4_5 1_555 1_555
C2_5 C3_5 1_555 1_555
C3_5 C12_5 1_555 1_555
C6_5 C2_5 1_555 1_555
C7_5 C1_5 1_555 1_555
C10_5 C11_5 1_555 1_555
C11_5 C1_5 1_555 1_555
C12_5 C11_5 1_555 1_555
H7_5 C12_5 1_555 1_555
C14_5 C10_5 1_555 1_555
O14_5 C3_5 1_555 1_555
H22_5 O14_5 1_555 1_555
O20_8 C50_5 1_555 1_555
O20_9 C51_5 1_555 1_555
O34_8 C50_5 1_555 1_555
C40_5 H32_5 1_555 1_555
C41_5 H33_5 1_555 1_555
C42_5 C44_5 1_555 1_555
C43_5 C45_5 1_555 1_555
C44_5 C62_5 1_555 1_555
C45_5 C63_5 1_555 1_555
C50_5 C42_5 1_555 1_555
C51_5 O34_9 1_555 1_555
C52_5 C40_5 1_555 1_555
C53_5 C41_5 1_555 1_555
C58_5 C14_5 1_555 1_555
C59_5 C61_5 1_555 1_555
C60_5 C40_5 1_555 1_555
C61_5 C41_5 1_555 1_555
C62_5 C60_5 1_555 1_555
C63_5 C61_5 1_555 1_555
H38_5 C62_5 1_555 1_555
H39_5 C63_5 1_555 1_555
C66_5 C58_5 1_555 1_555
C67_5 C10_5 1_555 1_555
O55_5 C44_5 1_555 1_555
O56_5 C45_5 1_555 1_555
H68_5 O55_5 1_555 1_555
H69_5 O56_5 1_555 1_555
C2_5 C7_5 1_555 1_555
C42_5 C52_5 1_555 1_555
C43_5 C51_5 1_555 1_555
C43_5 C53_5 1_555 1_555
C58_5 C60_5 1_555 1_555
C59_5 C66_5 1_555 1_555
C59_5 C67_5 1_555 1_555
C7_5 H76_5 1_555 1_555
C14_5 H77_5 1_555 1_555
C52_5 H78_5 1_555 1_555
C53_5 H79_5 1_555 1_555
C67_5 H80_5 1_555 1_555
C66_5 H81_5 1_555 1_555
O20_4 C6_6 1_555 1_555
O34_4 C6_6 1_555 1_555
C1_6 H4_6 1_555 1_555
C2_6 C3_6 1_555 1_555
C3_6 C12_6 1_555 1_555
C6_6 C2_6 1_555 1_555
C7_6 C1_6 1_555 1_555
C10_6 C11_6 1_555 1_555
C11_6 C1_6 1_555 1_555
C12_6 C11_6 1_555 1_555
H7_6 C12_6 1_555 1_555
O14_6 C3_6 1_555 1_555
H22_6 O14_6 1_555 1_555
C67_6 C10_6 1_555 1_555
C2_6 C7_6 1_555 1_555
C7_6 H76_6 1_555 1_555
C67_6 H80_6 1_555 1_555
O20_6 C51_6 1_555 1_555
C41_6 H33_6 1_555 1_555
C43_6 C45_6 1_555 1_555
C45_6 C63_6 1_555 1_555
C51_6 O34_6 1_555 1_555
C53_6 C41_6 1_555 1_555
C59_6 C61_6 1_555 1_555
C61_6 C41_6 1_555 1_555
C63_6 C61_6 1_555 1_555
H39_6 C63_6 1_555 1_555
O56_6 C45_6 1_555 1_555
H69_6 O56_6 1_555 1_555
C43_6 C51_6 1_555 1_555
C43_6 C53_6 1_555 1_555
C53_6 H79_6 1_555 1_555
C14_6 H77_6 1_555 1_555
O20_5 C50_6 1_555 1_555
O34_5 C50_6 1_555 1_555
C40_6 H32_6 1_555 1_555
C42_6 C44_6 1_555 1_555
C44_6 C62_6 1_555 1_555
C50_6 C42_6 1_555 1_555
C52_6 C40_6 1_555 1_555
C60_6 C40_6 1_555 1_555
C62_6 C60_6 1_555 1_555
H38_6 C62_6 1_555 1_555
C66_6 C58_6 1_555 1_555
O55_6 C44_6 1_555 1_555
H68_6 O55_6 1_555 1_555
C42_6 C52_6 1_555 1_555
C58_6 C60_6 1_555 1_555
C52_6 H78_6 1_555 1_555
C66_6 H81_6 1_555 1_555

#END
