
###############################################################################
#
# This file contains modified crystal structure data generated from the
# MOF subset of the Cambridge Structural Database (CSD) v543 
# hosted by the Cambridge Crystallographic Data Centre (CCDC).
#
# This work is licensed under the Creative Commons
# Attribution-NonCommercial-ShareAlike 4.0 International License.
# To view a copy of this license, visit
# http://creativecommons.org/licenses/by-nc-sa/4.0/
# or send a letter to
# Creative Commons, PO Box 1866, Mountain View, CA 94042, USA.
#
# CIF created using the CSD Python API on 29 September 2022
# The structure has been converted into the P1 space group
# The structure has a 3D framework
# The original CSD entry MEFKIU is in the trigonal crystal system
# The original CSD entry MEFKIU is in a Sohncke space group
# The framework has been calculated to contain at least 10.0% void space
# The void calculation uses a probe of radius 1.32A, grid spacing 0.4
# The framework is charged, counterions have been retained in the structure
#
###############################################################################

data_MEFKIU
_chemical_formula_moiety         '(C18 H18 Al3 Na3 O34 3-)n'
_symmetry_cell_setting           triclinic
_symmetry_space_group_name_H-M   'P 1'
_symmetry_Int_Tables_number      1
_space_group_name_Hall           'P 1'
loop_
_symmetry_equiv_pos_site_id
_symmetry_equiv_pos_as_xyz
1 x,y,z
_cell_length_a                   8.1643(3)
_cell_length_b                   8.1643(3)
_cell_length_c                   22.6671(12)
_cell_angle_alpha                90
_cell_angle_beta                 90
_cell_angle_gamma                120
_cell_volume                     1308.47
loop_
_atom_site_label
_atom_site_type_symbol
_atom_site_fract_x
_atom_site_fract_y
_atom_site_fract_z
Na4 Na 0.00489(17) 0.00979(15) 0.3333
O6 O 0.0334(3) 0.2639(3) 0.27064(9)
O12 O 0.2305(4) 0.2639(3) 0.39603(9)
O13 O 0.2557(5) 0.0038(4) 0.28048(9)
Al1 Al 0.67115(6) 0.32885(6) 0.1667
O1 O 0.4755(2) 0.3283(3) 0.12240(7)
O2 O 0.8570(2) 0.5013(3) 0.11383(7)
O3 O 0.8786(2) 0.3504(2) 0.21064(7)
C1 C 0.3428(4) 0.2024(4) 0.09162(13)
C2 C 0.8675(4) 0.6386(6) 0.08536(11)
C3 C 0.8912(3) 0.2313(3) 0.24301(11)
O4 O 0.2207(3) 0.2148(3) 0.06581(9)
H1 H 0.3393 0.0846 0.0886
O5 O 0.9962(4) 0.7443(5) 0.05285(9)
H2 H 0.7653 0.6621 0.0896
H3 H 0.7835 0.1085 0.2461
O7 O 0.6717(3) 0.5245(2) 0.21093(7)
O8 O 0.4987(3) 0.1430(2) 0.21950(7)
O9 O 0.6496(2) 0.1214(2) 0.12269(7)
C4 C 0.7976(4) 0.6572(4) 0.24171(13)
O10 O 0.7852(3) 0.7793(3) 0.26752(9)
H4 H 0.9154 0.6607 0.2447
Na2 Na 0.99021(15) 0.99510(7) 0.0000
O15 O 0.7481(6) 0.0038(4) 0.38618(9)
C6 C 0.7711(7) 0.1325(4) 0.41869(11)
O17 O 0.6443(4) 0.1430(2) 0.44716(7)
H6 H 0.8968 0.2347 0.4229
Al3 Al 0.65770(8) 0.32885(6) 0.5000
Na2_2 Na 0.99021(15) 0.99510(7) 1.0000
O11 O 0.9941(4) 0.7793(3) 0.39914(9)
C5 C 0.8596(6) 0.6572(4) 0.42495(13)
O16 O 0.8528(4) 0.5245(2) 0.45573(7)
H5 H 0.7453 0.6607 0.4219
O14 O 0.2207(3) 0.0059(4) 0.93419(9)
O13_2 O 0.9962(4) 0.2519(6) 0.94715(9)
O12_2 O 0.7361(3) 0.9666(5) 0.06269(9)
Al1_2 Al 0.67115(6) 0.34230(8) 0.8334
O1_2 O 0.6717(3) 0.1472(4) 0.78907(7)
O2_2 O 0.4987(3) 0.3557(4) 0.78050(7)
O3_2 O 0.6496(2) 0.5282(3) 0.87731(7)
C1_2 C 0.7976(4) 0.1404(6) 0.75829(13)
C2_2 C 0.3614(6) 0.2289(7) 0.75203(11)
C3_2 C 0.7687(3) 0.6599(4) 0.90968(11)
O4_2 O 0.7852(3) 0.0059(4) 0.73248(9)
H1_2 H 0.9154 0.2547 0.7553
O5_2 O 0.2557(5) 0.2519(6) 0.71952(9)
H2_2 H 0.3379 0.1032 0.7563
O6_2 O 0.7361(3) 0.7695(4) 0.93731(9)
H3_2 H 0.8915 0.6750 0.9128
O7_2 O 0.4755(2) 0.1472(4) 0.87760(7)
O8_2 O 0.8570(2) 0.3557(4) 0.88617(7)
O9_2 O 0.8786(2) 0.5282(3) 0.78936(7)
C4_2 C 0.3428(4) 0.1404(6) 0.90838(13)
H4_2 H 0.3393 0.2547 0.9114
O3_3 O 0.4718(3) 0.1214(2) 0.54397(7)
C3_3 C 0.3401(4) 0.1088(3) 0.57634(11)
H3_3 H 0.3250 0.2165 0.5794
O7_3 O 0.8528(4) 0.3283(3) 0.54427(7)
O8_3 O 0.6443(4) 0.5013(3) 0.55284(7)
O9_3 O 0.4718(3) 0.3504(2) 0.45603(7)
C4_3 C 0.8596(6) 0.2024(4) 0.57505(13)
O10_2 O 0.9941(4) 0.2148(3) 0.60086(9)
H4_3 H 0.7453 0.0846 0.5781
O13_3 O 0.7481(6) 0.7443(5) 0.61382(9)
C2_3 C 0.3614(6) 0.1325(4) 0.24797(11)
C3_4 C 0.7687(3) 0.1088(3) 0.09032(11)
H2_3 H 0.3379 0.2347 0.2437
H3_4 H 0.8915 0.2165 0.0872
C6_2 C 0.8675(4) 0.2289(7) 0.91464(11)
H6_2 H 0.7653 0.1032 0.9104
C2_4 C 0.7711(7) 0.6386(6) 0.58131(11)
C3_5 C 0.3401(4) 0.2313(3) 0.42366(11)
H2_4 H 0.8968 0.6621 0.5771
H3_5 H 0.3250 0.1085 0.4206
C3_6 C 0.8912(3) 0.6599(4) 0.75699(11)
H3_6 H 0.7835 0.6750 0.7539
Na1 Na 0.00490(7) 0.99511(17) 0.6667
O6_3 O 0.2305(4) 0.9666(3) 0.60397(9)
O12_3 O 0.0334(5) 0.7695(4) 0.72936(9)
loop_
_geom_bond_atom_site_label_1
_geom_bond_atom_site_label_2
_geom_bond_site_symmetry_1
_geom_bond_site_symmetry_2
Na4 O6 1_555 1_555
O12 Na4 1_555 1_555
O13 Na4 1_555 1_555
Al1 O1 1_555 1_555
O1 C1 1_555 1_555
O2 Al1 1_555 1_555
O3 Al1 1_555 1_555
C1 O4 1_555 1_555
C2 O2 1_555 1_555
C3 O3 1_555 1_555
H1 C1 1_555 1_555
O5 C2 1_555 1_555
H2 C2 1_555 1_555
H3 C3 1_555 1_555
O7 Al1 1_555 1_555
O8 Al1 1_555 1_555
O9 Al1 1_555 1_555
C4 O7 1_555 1_555
O10 C4 1_555 1_555
H4 C4 1_555 1_555
Na2 O5 1_555 1_555
C6 O15 1_555 1_555
O17 C6 1_555 1_555
H6 C6 1_555 1_555
Al3 O17 1_555 1_555
C5 O11 1_555 1_555
O16 C5 1_555 1_555
H5 C5 1_555 1_555
Al3 O16 1_555 1_555
O12_2 Na2 1_555 1_555
Al1_2 O1_2 1_555 1_555
O1_2 C1_2 1_555 1_555
O2_2 Al1_2 1_555 1_555
O3_2 Al1_2 1_555 1_555
C1_2 O4_2 1_555 1_555
C2_2 O2_2 1_555 1_555
C3_2 O3_2 1_555 1_555
H1_2 C1_2 1_555 1_555
O5_2 C2_2 1_555 1_555
H2_2 C2_2 1_555 1_555
O6_2 C3_2 1_555 1_555
H3_2 C3_2 1_555 1_555
O7_2 Al1_2 1_555 1_555
O8_2 Al1_2 1_555 1_555
O9_2 Al1_2 1_555 1_555
C4_2 O7_2 1_555 1_555
O14 C4_2 1_555 1_555
H4_2 C4_2 1_555 1_555
Na2_2 O6_2 1_555 1_555
O3_3 Al3 1_555 1_555
C3_3 O3_3 1_555 1_555
H3_3 C3_3 1_555 1_555
O7_3 Al3 1_555 1_555
O8_3 Al3 1_555 1_555
O9_3 Al3 1_555 1_555
C4_3 O7_3 1_555 1_555
O10_2 C4_3 1_555 1_555
H4_3 C4_3 1_555 1_555
C2_3 O8 1_555 1_555
C3_4 O9 1_555 1_555
O13 C2_3 1_555 1_555
H2_3 C2_3 1_555 1_555
H3_4 C3_4 1_555 1_555
C6_2 O13_2 1_555 1_555
O8_2 C6_2 1_555 1_555
H6_2 C6_2 1_555 1_555
C2_4 O8_3 1_555 1_555
C3_5 O9_3 1_555 1_555
O13_3 C2_4 1_555 1_555
H2_4 C2_4 1_555 1_555
O12 C3_5 1_555 1_555
H3_5 C3_5 1_555 1_555
C3_6 O9_2 1_555 1_555
H3_6 C3_6 1_555 1_555
Na1 O6_3 1_555 1_555
O12_3 Na1 1_555 1_555

#END
