
###############################################################################
#
# This file contains modified crystal structure data generated from the
# MOF subset of the Cambridge Structural Database (CSD) v543 
# hosted by the Cambridge Crystallographic Data Centre (CCDC).
#
# This work is licensed under the Creative Commons
# Attribution-NonCommercial-ShareAlike 4.0 International License.
# To view a copy of this license, visit
# http://creativecommons.org/licenses/by-nc-sa/4.0/
# or send a letter to
# Creative Commons, PO Box 1866, Mountain View, CA 94042, USA.
#
# CIF created using the CSD Python API on 29 September 2022
# The structure has been converted into the P1 space group
# The structure has a 3D framework
# The original CSD entry MEFKIU01 is in the trigonal crystal system
# The original CSD entry MEFKIU01 is in a Sohncke space group
# The framework has been calculated to contain at least 10.0% void space
# The void calculation uses a probe of radius 1.32A, grid spacing 0.4
# The framework is charged, counterions have been retained in the structure
#
###############################################################################

data_MEFKIU01
_chemical_formula_moiety         '(C18 H18 Al3 Na3 O34 4-)n'
_symmetry_cell_setting           triclinic
_symmetry_space_group_name_H-M   'P 1'
_symmetry_Int_Tables_number      1
_space_group_name_Hall           'P 1'
loop_
_symmetry_equiv_pos_site_id
_symmetry_equiv_pos_as_xyz
1 x,y,z
_cell_length_a                   8.1821(4)
_cell_length_b                   8.1821(4)
_cell_length_c                   22.6596(15)
_cell_angle_alpha                90
_cell_angle_beta                 90
_cell_angle_gamma                120
_cell_volume                     1313.75
loop_
_atom_site_label
_atom_site_type_symbol
_atom_site_fract_x
_atom_site_fract_y
_atom_site_fract_z
Na4 Na 0.00427(19) 0.00855(17) 0.3333
O11 O 0.0314(3) 0.2634(3) 0.27065(11)
Al1 Al 0.67094(6) 0.32906(6) 0.1667
O1 O 0.2233(3) 0.2170(3) 0.06543(11)
O2 O 0.4759(3) 0.3284(3) 0.12220(8)
C1 C 0.3444(5) 0.2054(4) 0.09129(15)
H1 H 0.3407 0.0903 0.0881
O7 O 0.7830(3) 0.7767(3) 0.26790(11)
O8 O 0.6716(3) 0.5241(3) 0.21113(8)
C4 C 0.7946(4) 0.6556(5) 0.24204(15)
H4 H 0.9097 0.6593 0.2452
O9 O 0.9967(4) 0.7442(5) 0.05335(11)
O10 O 0.8569(3) 0.5026(4) 0.11410(8)
C5 C 0.8684(4) 0.6383(6) 0.08536(13)
H5 H 0.7679 0.6605 0.0889
O12 O 0.8772(2) 0.3497(3) 0.21086(8)
C6 C 0.8909(4) 0.2320(4) 0.24306(14)
H6 H 0.7858 0.1118 0.2460
Na2 Na 0.99145(17) 0.99572(9) 0.0000
O15 O 0.4974(4) 0.1431(3) 0.21923(8)
O17 O 0.6503(3) 0.1228(2) 0.12247(8)
Na2_2 Na 0.99145(17) 0.99572(9) 1.0000
O13 O 0.2233(3) 0.0063(4) 0.93457(11)
C3 C 0.7680(4) 0.1091(4) 0.09027(14)
H3 H 0.8882 0.2142 0.0873
O3 O 0.9967(4) 0.2525(3) 0.94665(11)
O4 O 0.8569(3) 0.3543(3) 0.88590(8)
C2 C 0.8684(4) 0.2301(4) 0.91464(13)
H2 H 0.7679 0.1074 0.9111
Al3 Al 0.67094(6) 0.34188(8) 0.8334
O5 O 0.7366(3) 0.9686(3) 0.06268(11)
O16 O 0.7366(3) 0.7680(4) 0.93732(11)
O14 O 0.2558(5) 0.2525(6) 0.72002(11)
Na1 Na 0.00428(9) 0.99573(19) 0.6667
O5_2 O 0.0314(3) 0.7680(4) 0.72935(11)
O16_2 O 0.2320(4) 0.9686(5) 0.60399(11)
O1_2 O 0.7830(3) 0.0063(4) 0.73210(11)
O2_2 O 0.6716(3) 0.1475(4) 0.78887(8)
C1_2 C 0.7946(4) 0.1390(6) 0.75796(15)
H1_2 H 0.9097 0.2504 0.7548
O8_2 O 0.4759(3) 0.1475(4) 0.87780(8)
C4_2 C 0.3444(5) 0.1390(6) 0.90871(15)
H4_2 H 0.3407 0.2504 0.9119
O10_2 O 0.4974(4) 0.3543(5) 0.78077(8)
C5_2 C 0.3617(6) 0.2301(7) 0.75203(13)
H5_2 H 0.3395 0.1074 0.7556
O12_2 O 0.6503(3) 0.5275(4) 0.87753(8)
C6_2 C 0.7680(4) 0.6589(6) 0.90973(14)
H6_2 H 0.8882 0.6740 0.9127
O13_2 O 0.9937(4) 0.2170(5) 0.60124(11)
O17_2 O 0.8772(2) 0.5275(4) 0.78914(8)
O3_2 O 0.7475(3) 0.7442(5) 0.61332(11)
O4_2 O 0.6457(3) 0.5026(4) 0.55257(8)
C2_2 C 0.7699(4) 0.6383(6) 0.58131(13)
H2_2 H 0.8926 0.6605 0.5778
C3_2 C 0.8909(4) 0.6589(6) 0.75694(14)
H3_2 H 0.7858 0.6740 0.7540
Al3_2 Al 0.65812(8) 0.32906(10) 0.5000
O3_3 O 0.2558(5) 0.0033(4) 0.27998(11)
O5_3 O 0.2320(4) 0.2634(3) 0.39601(11)
O6 O 0.4725(4) 0.3497(3) 0.45580(8)
C2_3 C 0.3617(6) 0.1316(4) 0.24797(13)
H2_3 H 0.3395 0.2321 0.2444
C3_3 C 0.3411(6) 0.2320(4) 0.42360(14)
H3_3 H 0.3260 0.1118 0.4206
O14_2 O 0.7475(6) 0.0033(4) 0.38668(11)
O1_3 O 0.9937(4) 0.7767(3) 0.39876(11)
O2_3 O 0.8525(4) 0.5241(3) 0.45553(8)
C1_3 C 0.8610(6) 0.6556(5) 0.42462(15)
H1_3 H 0.7496 0.6593 0.4214
O8_3 O 0.8525(4) 0.3284(3) 0.54447(8)
C4_3 C 0.8610(6) 0.2054(4) 0.57538(15)
H4_3 H 0.7496 0.0903 0.5786
O10_3 O 0.6457(5) 0.1431(3) 0.44743(8)
C5_3 C 0.7699(7) 0.1316(4) 0.41869(13)
H5_3 H 0.8926 0.2321 0.4222
O12_3 O 0.4725(4) 0.1228(2) 0.54420(8)
C6_3 C 0.3411(6) 0.1091(4) 0.57640(14)
H6_3 H 0.3260 0.2142 0.5794
loop_
_geom_bond_atom_site_label_1
_geom_bond_atom_site_label_2
_geom_bond_site_symmetry_1
_geom_bond_site_symmetry_2
Na4 O11 1_555 1_555
Al1 O2 1_555 1_555
O1 C1 1_555 1_555
O2 C1 1_555 1_555
C1 H1 1_555 1_555
O7 C4 1_555 1_555
O8 Al1 1_555 1_555
C4 O8 1_555 1_555
H4 C4 1_555 1_555
O9 C5 1_555 1_555
O10 Al1 1_555 1_555
C5 O10 1_555 1_555
H5 C5 1_555 1_555
O12 Al1 1_555 1_555
C6 O12 1_555 1_555
H6 C6 1_555 1_555
Na2 O9 1_555 1_555
O15 Al1 1_555 1_555
O17 Al1 1_555 1_555
O17 C3 1_555 1_555
H3 C3 1_555 1_555
O4 C2 1_555 1_555
C2 O3 1_555 1_555
H2 C2 1_555 1_555
Al3 O4 1_555 1_555
O5 Na2 1_555 1_555
O16 Na2_2 1_555 1_555
O5_2 Na1 1_555 1_555
O16_2 Na1 1_555 1_555
Al3 O2_2 1_555 1_555
O1_2 C1_2 1_555 1_555
O2_2 C1_2 1_555 1_555
C1_2 H1_2 1_555 1_555
O13 C4_2 1_555 1_555
O8_2 Al3 1_555 1_555
C4_2 O8_2 1_555 1_555
H4_2 C4_2 1_555 1_555
O14 C5_2 1_555 1_555
O10_2 Al3 1_555 1_555
C5_2 O10_2 1_555 1_555
H5_2 C5_2 1_555 1_555
O16 C6_2 1_555 1_555
O12_2 Al3 1_555 1_555
C6_2 O12_2 1_555 1_555
H6_2 C6_2 1_555 1_555
O17_2 Al3 1_555 1_555
O4_2 C2_2 1_555 1_555
O17_2 C3_2 1_555 1_555
C2_2 O3_2 1_555 1_555
H2_2 C2_2 1_555 1_555
H3_2 C3_2 1_555 1_555
Al3_2 O4_2 1_555 1_555
O3_3 Na4 1_555 1_555
O15 C2_3 1_555 1_555
O5_3 Na4 1_555 1_555
O6 C3_3 1_555 1_555
C2_3 O3_3 1_555 1_555
H2_3 C2_3 1_555 1_555
C3_3 O5_3 1_555 1_555
H3_3 C3_3 1_555 1_555
Al3_2 O6 1_555 1_555
Al3_2 O2_3 1_555 1_555
O1_3 C1_3 1_555 1_555
O2_3 C1_3 1_555 1_555
C1_3 H1_3 1_555 1_555
O13_2 C4_3 1_555 1_555
O8_3 Al3_2 1_555 1_555
C4_3 O8_3 1_555 1_555
H4_3 C4_3 1_555 1_555
O14_2 C5_3 1_555 1_555
O10_3 Al3_2 1_555 1_555
C5_3 O10_3 1_555 1_555
H5_3 C5_3 1_555 1_555
O12_3 Al3_2 1_555 1_555
C6_3 O12_3 1_555 1_555
H6_3 C6_3 1_555 1_555

#END
