
###############################################################################
#
# This file contains modified crystal structure data generated from the
# MOF subset of the Cambridge Structural Database (CSD) v543 
# hosted by the Cambridge Crystallographic Data Centre (CCDC).
#
# This work is licensed under the Creative Commons
# Attribution-NonCommercial-ShareAlike 4.0 International License.
# To view a copy of this license, visit
# http://creativecommons.org/licenses/by-nc-sa/4.0/
# or send a letter to
# Creative Commons, PO Box 1866, Mountain View, CA 94042, USA.
#
# CIF created using the CSD Python API on 29 September 2022
# The structure has been converted into the P1 space group
# The structure has a 3D framework
# The original CSD entry MEGBAD is in the orthorhombic crystal system
# The framework has been calculated to contain at least 10.0% void space
# The void calculation uses a probe of radius 1.32A, grid spacing 0.4
# H atom positions have been added when not included in the experimental data
# Generated hydrogen atom positions removed from atoms on special positions
#
###############################################################################

data_MEGBAD
_chemical_formula_moiety         '(C416 H480 Cl24 Mn60 N40 Ni12 O202)n'
_symmetry_cell_setting           triclinic
_symmetry_space_group_name_H-M   'P 1'
_symmetry_Int_Tables_number      1
_space_group_name_Hall           'P 1'
loop_
_symmetry_equiv_pos_site_id
_symmetry_equiv_pos_as_xyz
1 x,y,z
_cell_length_a                   24.0125(12)
_cell_length_b                   28.8745(17)
_cell_length_c                   31.348(2)
_cell_angle_alpha                90
_cell_angle_beta                 90
_cell_angle_gamma                90
_cell_volume                     21735.1
loop_
_atom_site_label
_atom_site_type_symbol
_atom_site_fract_x
_atom_site_fract_y
_atom_site_fract_z
Mn3 Mn 0.30809(6) 0.27780(6) 0.0000
Cl1 Cl 0.39767(19) 0.3091(2) 0.0000
Mn11 Mn 0.69191(6) 0.27780(6) 0.0000
Mn12 Mn 0.19191(6) 0.22220(6) 0.0000
Mn13 Mn 0.80809(6) 0.22220(6) 0.0000
Cl2 Cl 0.60233(19) 0.3091(2) 0.0000
O11 O 0.3106(2) 0.2251(2) 0.04753(16)
O12 O 0.6894(2) 0.2251(2) 0.04753(16)
O17 O 0.2667(3) 0.3166(2) 0.04664(17)
O19 O 0.7333(3) 0.3166(2) 0.04664(17)
Mn1 Mn 0.16404(9) 0.0000 0.84877(7)
Mn2 Mn 0.2500 0.0000 0.7500
Mn3_2 Mn 0.30809(6) 0.27780(6) 1.0000
Ni1 Ni 0.5000 0.2500 0.7500
Cl1_2 Cl 0.39767(19) 0.3091(2) 1.0000
O1 O 0.3106(2) 0.2251(2) 0.95247(16)
O2 O 0.2333(3) 0.1834(2) 0.95336(17)
O3 O 0.2223(4) 0.0533(3) 0.8517(2)
O4 O 0.2741(3) 0.05314(18) 0.79382(18)
O5 O 0.1590(4) 0.0000 0.7763(2)
O6 O 0.1064(8) 0.0530(8) 0.8555(6)
O7 O 0.1686(9) 0.0000 0.9264(5)
N1 N 0.4190(3) 0.2500 0.7500
N2 N 0.5000 0.2039(3) 0.7977(2)
C1 C 0.3265(3) 0.2346(3) 0.7660(2)
H1 H 0.2954 0.2220 0.7793
C2 C 0.3833(3) 0.2249(2) 0.7758(2)
C3 C 0.3999(2) 0.1944(2) 0.80797(19)
C4 C 0.4539(3) 0.1861(2) 0.8164(2)
C5 C 0.4729(3) 0.1537(3) 0.8495(3)
H2 H 0.4502 0.1362 0.8673
C6 C 0.3549(3) 0.1719(2) 0.8340(2)
C7 C 0.3290(3) 0.1324(2) 0.8205(2)
H3 H 0.3400 0.1185 0.7951
C8 C 0.2859(3) 0.1125(2) 0.8444(2)
C9 C 0.2716(3) 0.1325(2) 0.8817(2)
H4 H 0.2429 0.1194 0.8976
C10 C 0.2976(3) 0.1715(2) 0.8969(2)
C11 C 0.3399(3) 0.1898(2) 0.87336(19)
H5 H 0.3594 0.2151 0.8841
C12 C 0.2789(4) 0.1945(3) 0.9381(2)
C13 C 0.2588(3) 0.0690(3) 0.8286(2)
Mn4 Mn 0.83596(9) 0.0000 0.84877(7)
Mn5 Mn 0.83596(9) 0.5000 0.65123(7)
Mn6 Mn 0.16404(9) 0.5000 0.65123(7)
Mn7 Mn 0.33596(9) 0.0000 0.65123(7)
Mn8 Mn 0.7500 0.0000 0.7500
Mn9 Mn 0.7500 0.5000 0.7500
Mn10 Mn 0.2500 0.5000 0.7500
Mn11_2 Mn 0.69191(6) 0.27780(6) 1.0000
Mn12_2 Mn 0.19191(6) 0.22220(6) 1.0000
Mn13_2 Mn 0.80809(6) 0.22220(6) 1.0000
Mn14 Mn 0.69191(6) 0.22220(6) 0.5000
Mn15 Mn 0.80809(6) 0.27780(6) 0.5000
Mn16 Mn 0.30809(6) 0.22220(6) 0.5000
Mn17 Mn 0.19191(6) 0.27780(6) 0.5000
Cl2_2 Cl 0.60233(19) 0.3091(2) 1.0000
O8 O 0.6894(2) 0.2251(2) 0.95247(16)
O9 O 0.6894(2) 0.2749(2) 0.54753(16)
O10 O 0.3106(2) 0.2749(2) 0.54753(16)
O13 O 0.7667(3) 0.1834(2) 0.95336(17)
O14 O 0.7667(3) 0.3166(2) 0.54664(17)
O15 O 0.2333(3) 0.3166(2) 0.54664(17)
O16 O 0.2667(3) 0.3166(2) 0.95336(17)
O18 O 0.7333(3) 0.3166(2) 0.95336(17)
O20 O 0.7777(4) 0.0533(3) 0.8517(2)
O21 O 0.7777(4) 0.4467(3) 0.6483(2)
O22 O 0.2223(4) 0.4467(3) 0.6483(2)
O25 O 0.7259(3) 0.05314(18) 0.79382(18)
O26 O 0.7259(3) 0.44686(18) 0.70618(18)
O27 O 0.2741(3) 0.44686(18) 0.70618(18)
O28 O 0.2259(3) 0.05314(18) 0.70618(18)
O31 O 0.3410(4) -0.0000 0.7237(2)
O32 O 0.8410(4) 0.0000 0.7763(2)
O34 O 0.8936(8) 0.0530(8) 0.8555(6)
O36 O 0.8314(9) 0.0000 0.9264(5)
N3 N 0.5810(3) 0.2500 0.7500
N4 N 0.5000 0.2961(3) 0.7023(2)
C14 C 0.3265(3) 0.2654(3) 0.7340(2)
C15 C 0.6735(3) 0.2346(3) 0.7660(2)
C16 C 0.6735(3) 0.2654(3) 0.7340(2)
H6 H 0.2954 0.2780 0.7207
H7 H 0.7046 0.2780 0.7207
H8 H 0.7046 0.2220 0.7793
C17 C 0.3833(3) 0.2751(2) 0.7242(2)
C18 C 0.6167(3) 0.2751(2) 0.7242(2)
C19 C 0.6167(3) 0.2249(2) 0.7758(2)
C20 C 0.3999(2) 0.3056(2) 0.69203(19)
C21 C 0.6001(2) 0.3056(2) 0.69203(19)
C22 C 0.6001(2) 0.1944(2) 0.80797(19)
C23 C 0.4539(3) 0.3139(2) 0.6836(2)
C24 C 0.5461(3) 0.3139(2) 0.6836(2)
C25 C 0.5461(3) 0.1861(2) 0.8164(2)
C26 C 0.5271(3) 0.1537(3) 0.8495(3)
C27 C 0.5271(3) 0.3463(3) 0.6505(3)
C28 C 0.4729(3) 0.3463(3) 0.6505(3)
H9 H 0.5498 0.1362 0.8673
H10 H 0.4502 0.3638 0.6327
H11 H 0.5498 0.3638 0.6327
C29 C 0.6451(3) 0.1719(2) 0.8340(2)
C30 C 0.6451(3) 0.3281(2) 0.6660(2)
C31 C 0.3549(3) 0.3281(2) 0.6660(2)
C32 C 0.6710(3) 0.1324(2) 0.8205(2)
C33 C 0.6710(3) 0.3676(2) 0.6795(2)
C34 C 0.3290(3) 0.3676(2) 0.6795(2)
H12 H 0.6600 0.1185 0.7951
H13 H 0.6600 0.3815 0.7049
H14 H 0.3400 0.3815 0.7049
C35 C 0.7141(3) 0.1125(2) 0.8444(2)
C36 C 0.7141(3) 0.3875(2) 0.6556(2)
C37 C 0.2859(3) 0.3875(2) 0.6556(2)
C38 C 0.7284(3) 0.1325(2) 0.8817(2)
C39 C 0.7284(3) 0.3675(2) 0.6183(2)
C40 C 0.2716(3) 0.3675(2) 0.6183(2)
H15 H 0.7571 0.1194 0.8976
H16 H 0.7571 0.3806 0.6024
H17 H 0.2429 0.3806 0.6024
C41 C 0.7024(3) 0.1715(2) 0.8969(2)
C42 C 0.7024(3) 0.3285(2) 0.6031(2)
C43 C 0.2976(3) 0.3285(2) 0.6031(2)
C44 C 0.6601(3) 0.1898(2) 0.87336(19)
C45 C 0.6601(3) 0.3102(2) 0.62664(19)
C46 C 0.3399(3) 0.3102(2) 0.62664(19)
H18 H 0.6406 0.2151 0.8841
H19 H 0.6406 0.2849 0.6159
H20 H 0.3594 0.2849 0.6159
C47 C 0.7211(4) 0.1945(3) 0.9381(2)
C48 C 0.7211(4) 0.3055(3) 0.5619(2)
C49 C 0.2789(4) 0.3055(3) 0.5619(2)
C50 C 0.7412(3) 0.0690(3) 0.8286(2)
C51 C 0.7412(3) 0.4310(3) 0.6714(2)
C52 C 0.2588(3) 0.4310(3) 0.6714(2)
H21 H 0.399082 0.165644 0.785501
H34 H 0.600918 0.165644 0.785501
H35 H 0.600918 0.334356 0.714499
H36 H 0.399082 0.334356 0.714499
Mn1_2 Mn 0.16404(9) 1.0000 0.84877(7)
Mn2_2 Mn 0.2500 1.0000 0.7500
O5_2 O 0.1590(4) 1.0000 0.7763(2)
O7_2 O 0.1686(9) 1.0000 0.9264(5)
Mn4_2 Mn 0.83596(9) 1.0000 0.84877(7)
Mn7_2 Mn 0.33596(9) 1.0000 0.65123(7)
Mn8_2 Mn 0.7500 1.0000 0.7500
O23 O 0.2223(4) 0.9467(3) 0.8517(2)
O24 O 0.7777(4) 0.9467(3) 0.8517(2)
O29 O 0.2741(3) 0.94686(18) 0.79382(18)
O30 O 0.2259(3) 0.94686(18) 0.70618(18)
O31_2 O 0.3410(4) 1.0000 0.7237(2)
O32_2 O 0.8410(4) 1.0000 0.7763(2)
O33 O 0.1064(8) 0.9470(8) 0.8555(6)
O35 O 0.8936(8) 0.9470(8) 0.8555(6)
O36_2 O 0.8314(9) 1.0000 0.9264(5)
Mn7_3 Mn 0.66404(9) 0.0000 0.65123(7)
O30_2 O 0.7741(3) 0.05314(18) 0.70618(18)
O31_3 O 0.6590(4) -0.0000 0.7237(2)
Mn3_3 Mn 0.69191(6) 0.72220(6) 0.0000
Cl1_3 Cl 0.60233(19) 0.6909(2) 0.0000
Mn11_3 Mn 0.30809(6) 0.72220(6) 0.0000
Mn12_3 Mn 0.80809(6) 0.77780(6) 0.0000
Mn13_3 Mn 0.19191(6) 0.77780(6) 0.0000
Cl2_3 Cl 0.39767(19) 0.6909(2) 0.0000
O11_2 O 0.6894(2) 0.7749(2) 0.04753(16)
O12_2 O 0.3106(2) 0.7749(2) 0.04753(16)
O17_2 O 0.7333(3) 0.6834(2) 0.04664(17)
O19_2 O 0.2667(3) 0.6834(2) 0.04664(17)
Mn3_4 Mn 0.69191(6) 0.72220(6) 1.0000
Ni1_2 Ni 0.5000 0.7500 0.7500
Cl1_4 Cl 0.60233(19) 0.6909(2) 1.0000
O1_2 O 0.6894(2) 0.7749(2) 0.95247(16)
O2_2 O 0.7667(3) 0.8166(2) 0.95336(17)
O4_2 O 0.7259(3) 0.94686(18) 0.79382(18)
N1_2 N 0.5810(3) 0.7500 0.7500
N2_2 N 0.5000 0.7961(3) 0.7977(2)
C1_2 C 0.6735(3) 0.7654(3) 0.7660(2)
H1_2 H 0.7046 0.7780 0.7793
C2_2 C 0.6167(3) 0.7751(2) 0.7758(2)
C3_2 C 0.6001(2) 0.8056(2) 0.80797(19)
C4_2 C 0.5461(3) 0.8139(2) 0.8164(2)
C5_2 C 0.5271(3) 0.8463(3) 0.8495(3)
H2_2 H 0.5498 0.8638 0.8673
C6_2 C 0.6451(3) 0.8281(2) 0.8340(2)
C7_2 C 0.6710(3) 0.8676(2) 0.8205(2)
H3_2 H 0.6600 0.8815 0.7951
C8_2 C 0.7141(3) 0.8875(2) 0.8444(2)
C9_2 C 0.7284(3) 0.8675(2) 0.8817(2)
H4_2 H 0.7571 0.8806 0.8976
C10_2 C 0.7024(3) 0.8285(2) 0.8969(2)
C11_2 C 0.6601(3) 0.8102(2) 0.87336(19)
H5_2 H 0.6406 0.7849 0.8841
C12_2 C 0.7211(4) 0.8055(3) 0.9381(2)
C13_2 C 0.7412(3) 0.9310(3) 0.8286(2)
Mn7_4 Mn 0.66404(9) 1.0000 0.65123(7)
Mn11_4 Mn 0.30809(6) 0.72220(6) 1.0000
Mn12_4 Mn 0.80809(6) 0.77780(6) 1.0000
Mn13_4 Mn 0.19191(6) 0.77780(6) 1.0000
Mn14_2 Mn 0.30809(6) 0.77780(6) 0.5000
Mn15_2 Mn 0.19191(6) 0.72220(6) 0.5000
Mn16_2 Mn 0.69191(6) 0.77780(6) 0.5000
Mn17_2 Mn 0.80809(6) 0.72220(6) 0.5000
Cl2_4 Cl 0.39767(19) 0.6909(2) 1.0000
O8_2 O 0.3106(2) 0.7749(2) 0.95247(16)
O9_2 O 0.3106(2) 0.7251(2) 0.54753(16)
O10_2 O 0.6894(2) 0.7251(2) 0.54753(16)
O13_2 O 0.2333(3) 0.8166(2) 0.95336(17)
O14_2 O 0.2333(3) 0.6834(2) 0.54664(17)
O15_2 O 0.7667(3) 0.6834(2) 0.54664(17)
O16_2 O 0.7333(3) 0.6834(2) 0.95336(17)
O18_2 O 0.2667(3) 0.6834(2) 0.95336(17)
O21_2 O 0.2223(4) 0.5533(3) 0.6483(2)
O22_2 O 0.7777(4) 0.5533(3) 0.6483(2)
O26_2 O 0.2741(3) 0.55314(18) 0.70618(18)
O27_2 O 0.7259(3) 0.55314(18) 0.70618(18)
O28_2 O 0.7741(3) 0.94686(18) 0.70618(18)
O31_4 O 0.6590(4) 1.0000 0.7237(2)
N3_2 N 0.4190(3) 0.7500 0.7500
N4_2 N 0.5000 0.7039(3) 0.7023(2)
C14_2 C 0.6735(3) 0.7346(3) 0.7340(2)
C15_2 C 0.3265(3) 0.7654(3) 0.7660(2)
C16_2 C 0.3265(3) 0.7346(3) 0.7340(2)
H6_2 H 0.7046 0.7220 0.7207
H7_2 H 0.2954 0.7220 0.7207
H8_2 H 0.2954 0.7780 0.7793
C17_2 C 0.6167(3) 0.7249(2) 0.7242(2)
C18_2 C 0.3833(3) 0.7249(2) 0.7242(2)
C19_2 C 0.3833(3) 0.7751(2) 0.7758(2)
C20_2 C 0.6001(2) 0.6944(2) 0.69203(19)
C21_2 C 0.3999(2) 0.6944(2) 0.69203(19)
C22_2 C 0.3999(2) 0.8056(2) 0.80797(19)
C23_2 C 0.5461(3) 0.6861(2) 0.6836(2)
C24_2 C 0.4539(3) 0.6861(2) 0.6836(2)
C25_2 C 0.4539(3) 0.8139(2) 0.8164(2)
C26_2 C 0.4729(3) 0.8463(3) 0.8495(3)
C27_2 C 0.4729(3) 0.6537(3) 0.6505(3)
C28_2 C 0.5271(3) 0.6537(3) 0.6505(3)
H9_2 H 0.4502 0.8638 0.8673
H10_2 H 0.5498 0.6362 0.6327
H11_2 H 0.4502 0.6362 0.6327
C29_2 C 0.3549(3) 0.8281(2) 0.8340(2)
C30_2 C 0.3549(3) 0.6719(2) 0.6660(2)
C31_2 C 0.6451(3) 0.6719(2) 0.6660(2)
C32_2 C 0.3290(3) 0.8676(2) 0.8205(2)
C33_2 C 0.3290(3) 0.6324(2) 0.6795(2)
C34_2 C 0.6710(3) 0.6324(2) 0.6795(2)
H12_2 H 0.3400 0.8815 0.7951
H13_2 H 0.3400 0.6185 0.7049
H14_2 H 0.6600 0.6185 0.7049
C35_2 C 0.2859(3) 0.8875(2) 0.8444(2)
C36_2 C 0.2859(3) 0.6125(2) 0.6556(2)
C37_2 C 0.7141(3) 0.6125(2) 0.6556(2)
C38_2 C 0.2716(3) 0.8675(2) 0.8817(2)
C39_2 C 0.2716(3) 0.6325(2) 0.6183(2)
C40_2 C 0.7284(3) 0.6325(2) 0.6183(2)
H15_2 H 0.2429 0.8806 0.8976
H16_2 H 0.2429 0.6194 0.6024
H17_2 H 0.7571 0.6194 0.6024
C41_2 C 0.2976(3) 0.8285(2) 0.8969(2)
C42_2 C 0.2976(3) 0.6715(2) 0.6031(2)
C43_2 C 0.7024(3) 0.6715(2) 0.6031(2)
C44_2 C 0.3399(3) 0.8102(2) 0.87336(19)
C45_2 C 0.3399(3) 0.6898(2) 0.62664(19)
C46_2 C 0.6601(3) 0.6898(2) 0.62664(19)
H18_2 H 0.3594 0.7849 0.8841
H19_2 H 0.3594 0.7151 0.6159
H20_2 H 0.6406 0.7151 0.6159
C47_2 C 0.2789(4) 0.8055(3) 0.9381(2)
C48_2 C 0.2789(4) 0.6945(3) 0.5619(2)
C49_2 C 0.7211(4) 0.6945(3) 0.5619(2)
C50_2 C 0.2588(3) 0.9310(3) 0.8286(2)
C51_2 C 0.2588(3) 0.5690(3) 0.6714(2)
C52_2 C 0.7412(3) 0.5690(3) 0.6714(2)
H21_2 H 0.600918 0.834356 0.785501
H34_2 H 0.399082 0.834356 0.785501
H35_2 H 0.399082 0.665644 0.714499
H36_2 H 0.600918 0.665644 0.714499
Mn1_3 Mn 0.83596(9) 0.0000 0.15123(7)
Mn2_3 Mn 0.7500 0.0000 0.2500
Ni1_3 Ni 0.5000 0.2500 0.2500
O2_3 O 0.7667(3) 0.1834(2) 0.04664(17)
O3_2 O 0.7777(4) 0.0533(3) 0.1483(2)
O4_3 O 0.7259(3) 0.05314(18) 0.20618(18)
O5_3 O 0.8410(4) 0.0000 0.2237(2)
O6_2 O 0.8936(8) 0.0530(8) 0.1445(6)
O7_3 O 0.8314(9) 0.0000 0.0736(5)
N1_3 N 0.5810(3) 0.2500 0.2500
N2_3 N 0.5000 0.2039(3) 0.2023(2)
C1_3 C 0.6735(3) 0.2346(3) 0.2340(2)
H1_3 H 0.7046 0.2220 0.2207
C2_3 C 0.6167(3) 0.2249(2) 0.2242(2)
C3_3 C 0.6001(2) 0.1944(2) 0.19203(19)
C4_3 C 0.5461(3) 0.1861(2) 0.1836(2)
C5_3 C 0.5271(3) 0.1537(3) 0.1505(3)
H2_3 H 0.5498 0.1362 0.1327
C6_3 C 0.6451(3) 0.1719(2) 0.1660(2)
C7_3 C 0.6710(3) 0.1324(2) 0.1795(2)
H3_3 H 0.6600 0.1185 0.2049
C8_3 C 0.7141(3) 0.1125(2) 0.1556(2)
C9_3 C 0.7284(3) 0.1325(2) 0.1183(2)
H4_3 H 0.7571 0.1194 0.1024
C10_3 C 0.7024(3) 0.1715(2) 0.1031(2)
C11_3 C 0.6601(3) 0.1898(2) 0.12664(19)
H5_3 H 0.6406 0.2151 0.1159
C12_3 C 0.7211(4) 0.1945(3) 0.0619(2)
C13_3 C 0.7412(3) 0.0690(3) 0.1714(2)
Mn4_3 Mn 0.16404(9) 0.0000 0.15123(7)
Mn5_2 Mn 0.16404(9) 0.5000 0.34877(7)
Mn6_2 Mn 0.83596(9) 0.5000 0.34877(7)
Mn7_5 Mn 0.66404(9) 0.0000 0.34877(7)
Mn8_3 Mn 0.2500 0.0000 0.2500
Mn9_2 Mn 0.2500 0.5000 0.2500
Mn10_2 Mn 0.7500 0.5000 0.2500
O9_3 O 0.3106(2) 0.2749(2) 0.45247(16)
O10_3 O 0.6894(2) 0.2749(2) 0.45247(16)
O13_3 O 0.2333(3) 0.1834(2) 0.04664(17)
O14_3 O 0.2333(3) 0.3166(2) 0.45336(17)
O15_3 O 0.7667(3) 0.3166(2) 0.45336(17)
O20_2 O 0.2223(4) 0.0533(3) 0.1483(2)
O21_3 O 0.2223(4) 0.4467(3) 0.3517(2)
O22_3 O 0.7777(4) 0.4467(3) 0.3517(2)
O25_2 O 0.2741(3) 0.05314(18) 0.20618(18)
O26_3 O 0.2741(3) 0.44686(18) 0.29382(18)
O27_3 O 0.7259(3) 0.44686(18) 0.29382(18)
O28_3 O 0.7741(3) 0.05314(18) 0.29382(18)
O31_5 O 0.6590(4) 0.0000 0.2763(2)
O32_3 O 0.1590(4) 0.0000 0.2237(2)
O34_2 O 0.1064(8) 0.0530(8) 0.1445(6)
O36_3 O 0.1686(9) 0.0000 0.0736(5)
N3_3 N 0.4190(3) 0.2500 0.2500
N4_3 N 0.5000 0.2961(3) 0.2977(2)
C14_3 C 0.6735(3) 0.2654(3) 0.2660(2)
C15_3 C 0.3265(3) 0.2346(3) 0.2340(2)
C16_3 C 0.3265(3) 0.2654(3) 0.2660(2)
H6_3 H 0.7046 0.2780 0.2793
H7_3 H 0.2954 0.2780 0.2793
H8_3 H 0.2954 0.2220 0.2207
C17_3 C 0.6167(3) 0.2751(2) 0.2758(2)
C18_3 C 0.3833(3) 0.2751(2) 0.2758(2)
C19_3 C 0.3833(3) 0.2249(2) 0.2242(2)
C20_3 C 0.6001(2) 0.3056(2) 0.30797(19)
C21_3 C 0.3999(2) 0.3056(2) 0.30797(19)
C22_3 C 0.3999(2) 0.1944(2) 0.19203(19)
C23_3 C 0.5461(3) 0.3139(2) 0.3164(2)
C24_3 C 0.4539(3) 0.3139(2) 0.3164(2)
C25_3 C 0.4539(3) 0.1861(2) 0.1836(2)
C26_3 C 0.4729(3) 0.1537(3) 0.1505(3)
C27_3 C 0.4729(3) 0.3463(3) 0.3495(3)
C28_3 C 0.5271(3) 0.3463(3) 0.3495(3)
H9_3 H 0.4502 0.1362 0.1327
H10_3 H 0.5498 0.3638 0.3673
H11_3 H 0.4502 0.3638 0.3673
C29_3 C 0.3549(3) 0.1719(2) 0.1660(2)
C30_3 C 0.3549(3) 0.3281(2) 0.3340(2)
C31_3 C 0.6451(3) 0.3281(2) 0.3340(2)
C32_3 C 0.3290(3) 0.1324(2) 0.1795(2)
C33_3 C 0.3290(3) 0.3676(2) 0.3205(2)
C34_3 C 0.6710(3) 0.3676(2) 0.3205(2)
H12_3 H 0.3400 0.1185 0.2049
H13_3 H 0.3400 0.3815 0.2951
H14_3 H 0.6600 0.3815 0.2951
C35_3 C 0.2859(3) 0.1125(2) 0.1556(2)
C36_3 C 0.2859(3) 0.3875(2) 0.3444(2)
C37_3 C 0.7141(3) 0.3875(2) 0.3444(2)
C38_3 C 0.2716(3) 0.1325(2) 0.1183(2)
C39_3 C 0.2716(3) 0.3675(2) 0.3817(2)
C40_3 C 0.7284(3) 0.3675(2) 0.3817(2)
H15_3 H 0.2429 0.1194 0.1024
H16_3 H 0.2429 0.3806 0.3976
H17_3 H 0.7571 0.3806 0.3976
C41_3 C 0.2976(3) 0.1715(2) 0.1031(2)
C42_3 C 0.2976(3) 0.3285(2) 0.3969(2)
C43_3 C 0.7024(3) 0.3285(2) 0.3969(2)
C44_3 C 0.3399(3) 0.1898(2) 0.12664(19)
C45_3 C 0.3399(3) 0.3102(2) 0.37336(19)
C46_3 C 0.6601(3) 0.3102(2) 0.37336(19)
H18_3 H 0.3594 0.2151 0.1159
H19_3 H 0.3594 0.2849 0.3841
H20_3 H 0.6406 0.2849 0.3841
C47_3 C 0.2789(4) 0.1945(3) 0.0619(2)
C48_3 C 0.2789(4) 0.3055(3) 0.4381(2)
C49_3 C 0.7211(4) 0.3055(3) 0.4381(2)
C50_3 C 0.2588(3) 0.0690(3) 0.1714(2)
C51_3 C 0.2588(3) 0.4310(3) 0.3286(2)
C52_3 C 0.7412(3) 0.4310(3) 0.3286(2)
H21_3 H 0.600918 0.165644 0.214499
H34_3 H 0.399082 0.165644 0.214499
H35_3 H 0.399082 0.334356 0.285501
H36_3 H 0.600918 0.334356 0.285501
Mn1_4 Mn 0.83596(9) 1.0000 0.15123(7)
Mn2_4 Mn 0.7500 1.0000 0.2500
O5_4 O 0.8410(4) 1.0000 0.2237(2)
O7_4 O 0.8314(9) 1.0000 0.0736(5)
Mn4_4 Mn 0.16404(9) 1.0000 0.15123(7)
Mn7_6 Mn 0.66404(9) 1.0000 0.34877(7)
Mn8_4 Mn 0.2500 1.0000 0.2500
O23_2 O 0.7777(4) 0.9467(3) 0.1483(2)
O24_2 O 0.2223(4) 0.9467(3) 0.1483(2)
O29_2 O 0.7259(3) 0.94686(18) 0.20618(18)
O30_3 O 0.7741(3) 0.94686(18) 0.29382(18)
O31_6 O 0.6590(4) 1.0000 0.2763(2)
O32_4 O 0.1590(4) 1.0000 0.2237(2)
O33_2 O 0.8936(8) 0.9470(8) 0.1445(6)
O35_2 O 0.1064(8) 0.9470(8) 0.1445(6)
O36_4 O 0.1686(9) 1.0000 0.0736(5)
Mn7_7 Mn 0.33596(9) 0.0000 0.34877(7)
O30_4 O 0.2259(3) 0.05314(18) 0.29382(18)
O31_7 O 0.3410(4) 0.0000 0.2763(2)
Ni1_4 Ni 0.5000 0.7500 0.2500
O2_4 O 0.2333(3) 0.8166(2) 0.04664(17)
O4_4 O 0.2741(3) 0.94686(18) 0.20618(18)
N1_4 N 0.4190(3) 0.7500 0.2500
N2_4 N 0.5000 0.7961(3) 0.2023(2)
C1_4 C 0.3265(3) 0.7654(3) 0.2340(2)
H1_4 H 0.2954 0.7780 0.2207
C2_4 C 0.3833(3) 0.7751(2) 0.2242(2)
C3_4 C 0.3999(2) 0.8056(2) 0.19203(19)
C4_4 C 0.4539(3) 0.8139(2) 0.1836(2)
C5_4 C 0.4729(3) 0.8463(3) 0.1505(3)
H2_4 H 0.4502 0.8638 0.1327
C6_4 C 0.3549(3) 0.8281(2) 0.1660(2)
C7_4 C 0.3290(3) 0.8676(2) 0.1795(2)
H3_4 H 0.3400 0.8815 0.2049
C8_4 C 0.2859(3) 0.8875(2) 0.1556(2)
C9_4 C 0.2716(3) 0.8675(2) 0.1183(2)
H4_4 H 0.2429 0.8806 0.1024
C10_4 C 0.2976(3) 0.8285(2) 0.1031(2)
C11_4 C 0.3399(3) 0.8102(2) 0.12664(19)
H5_4 H 0.3594 0.7849 0.1159
C12_4 C 0.2789(4) 0.8055(3) 0.0619(2)
C13_4 C 0.2588(3) 0.9310(3) 0.1714(2)
Mn7_8 Mn 0.33596(9) 1.0000 0.34877(7)
O9_4 O 0.6894(2) 0.7251(2) 0.45247(16)
O10_4 O 0.3106(2) 0.7251(2) 0.45247(16)
O13_4 O 0.7667(3) 0.8166(2) 0.04664(17)
O14_4 O 0.7667(3) 0.6834(2) 0.45336(17)
O15_4 O 0.2333(3) 0.6834(2) 0.45336(17)
O21_4 O 0.7777(4) 0.5533(3) 0.3517(2)
O22_4 O 0.2223(4) 0.5533(3) 0.3517(2)
O26_4 O 0.7259(3) 0.55314(18) 0.29382(18)
O27_4 O 0.2741(3) 0.55314(18) 0.29382(18)
O28_4 O 0.2259(3) 0.94686(18) 0.29382(18)
O31_8 O 0.3410(4) 1.0000 0.2763(2)
N3_4 N 0.5810(3) 0.7500 0.2500
N4_4 N 0.5000 0.7039(3) 0.2977(2)
C14_4 C 0.3265(3) 0.7346(3) 0.2660(2)
C15_4 C 0.6735(3) 0.7654(3) 0.2340(2)
C16_4 C 0.6735(3) 0.7346(3) 0.2660(2)
H6_4 H 0.2954 0.7220 0.2793
H7_4 H 0.7046 0.7220 0.2793
H8_4 H 0.7046 0.7780 0.2207
C17_4 C 0.3833(3) 0.7249(2) 0.2758(2)
C18_4 C 0.6167(3) 0.7249(2) 0.2758(2)
C19_4 C 0.6167(3) 0.7751(2) 0.2242(2)
C20_4 C 0.3999(2) 0.6944(2) 0.30797(19)
C21_4 C 0.6001(2) 0.6944(2) 0.30797(19)
C22_4 C 0.6001(2) 0.8056(2) 0.19203(19)
C23_4 C 0.4539(3) 0.6861(2) 0.3164(2)
C24_4 C 0.5461(3) 0.6861(2) 0.3164(2)
C25_4 C 0.5461(3) 0.8139(2) 0.1836(2)
C26_4 C 0.5271(3) 0.8463(3) 0.1505(3)
C27_4 C 0.5271(3) 0.6537(3) 0.3495(3)
C28_4 C 0.4729(3) 0.6537(3) 0.3495(3)
H9_4 H 0.5498 0.8638 0.1327
H10_4 H 0.4502 0.6362 0.3673
H11_4 H 0.5498 0.6362 0.3673
C29_4 C 0.6451(3) 0.8281(2) 0.1660(2)
C30_4 C 0.6451(3) 0.6719(2) 0.3340(2)
C31_4 C 0.3549(3) 0.6719(2) 0.3340(2)
C32_4 C 0.6710(3) 0.8676(2) 0.1795(2)
C33_4 C 0.6710(3) 0.6324(2) 0.3205(2)
C34_4 C 0.3290(3) 0.6324(2) 0.3205(2)
H12_4 H 0.6600 0.8815 0.2049
H13_4 H 0.6600 0.6185 0.2951
H14_4 H 0.3400 0.6185 0.2951
C35_4 C 0.7141(3) 0.8875(2) 0.1556(2)
C36_4 C 0.7141(3) 0.6125(2) 0.3444(2)
C37_4 C 0.2859(3) 0.6125(2) 0.3444(2)
C38_4 C 0.7284(3) 0.8675(2) 0.1183(2)
C39_4 C 0.7284(3) 0.6325(2) 0.3817(2)
C40_4 C 0.2716(3) 0.6325(2) 0.3817(2)
H15_4 H 0.7571 0.8806 0.1024
H16_4 H 0.7571 0.6194 0.3976
H17_4 H 0.2429 0.6194 0.3976
C41_4 C 0.7024(3) 0.8285(2) 0.1031(2)
C42_4 C 0.7024(3) 0.6715(2) 0.3969(2)
C43_4 C 0.2976(3) 0.6715(2) 0.3969(2)
C44_4 C 0.6601(3) 0.8102(2) 0.12664(19)
C45_4 C 0.6601(3) 0.6898(2) 0.37336(19)
C46_4 C 0.3399(3) 0.6898(2) 0.37336(19)
H18_4 H 0.6406 0.7849 0.1159
H19_4 H 0.6406 0.7151 0.3841
H20_4 H 0.3594 0.7151 0.3841
C47_4 C 0.7211(4) 0.8055(3) 0.0619(2)
C48_4 C 0.7211(4) 0.6945(3) 0.4381(2)
C49_4 C 0.2789(4) 0.6945(3) 0.4381(2)
C50_4 C 0.7412(3) 0.9310(3) 0.1714(2)
C51_4 C 0.7412(3) 0.5690(3) 0.3286(2)
C52_4 C 0.2588(3) 0.5690(3) 0.3286(2)
H21_4 H 0.399082 0.834356 0.214499
H34_4 H 0.600918 0.834356 0.214499
H35_4 H 0.600918 0.665644 0.285501
H36_4 H 0.399082 0.665644 0.285501
Cl1_5 Cl 0.39767(19) 0.8091(2) 0.5000
O5_5 O 0.1590(4) 0.5000 0.2763(2)
O6_3 O 0.1064(8) 0.5530(8) 0.3555(6)
O7_5 O 0.1686(9) 0.5000 0.4264(5)
Mn7_9 Mn 0.33596(9) 0.5000 0.15123(7)
Cl2_5 Cl 0.60233(19) 0.8091(2) 0.5000
O16_3 O 0.2667(3) 0.8166(2) 0.45336(17)
O17_3 O 0.2667(3) 0.8166(2) 0.54664(17)
O18_3 O 0.7333(3) 0.8166(2) 0.45336(17)
O19_3 O 0.7333(3) 0.8166(2) 0.54664(17)
O28_5 O 0.2259(3) 0.55314(18) 0.20618(18)
O30_5 O 0.2259(3) 0.44686(18) 0.20618(18)
O31_9 O 0.3410(4) 0.5000 0.2237(2)
O32_5 O 0.8410(4) 0.5000 0.2763(2)
O33_3 O 0.1064(8) 0.4470(8) 0.3555(6)
O34_3 O 0.8936(8) 0.5530(8) 0.3555(6)
O35_3 O 0.8936(8) 0.4470(8) 0.3555(6)
O36_5 O 0.8314(9) 0.5000 0.4264(5)
Cl1_6 Cl 0.60233(19) 0.1909(2) 0.5000
Mn7_10 Mn 0.66404(9) 0.5000 0.15123(7)
Cl2_6 Cl 0.39767(19) 0.1909(2) 0.5000
O16_4 O 0.7333(3) 0.1834(2) 0.45336(17)
O17_4 O 0.7333(3) 0.1834(2) 0.54664(17)
O18_4 O 0.2667(3) 0.1834(2) 0.45336(17)
O19_4 O 0.2667(3) 0.1834(2) 0.54664(17)
O28_6 O 0.7741(3) 0.44686(18) 0.20618(18)
O30_6 O 0.7741(3) 0.55314(18) 0.20618(18)
O31_10 O 0.6590(4) 0.5000 0.2237(2)
O5_6 O 0.8410(4) 0.5000 0.7237(2)
O6_4 O 0.8936(8) 0.5530(8) 0.6445(6)
O7_6 O 0.8314(9) 0.5000 0.5736(5)
Mn7_11 Mn 0.66404(9) 0.5000 0.84877(7)
O28_7 O 0.7741(3) 0.55314(18) 0.79382(18)
O30_7 O 0.7741(3) 0.44686(18) 0.79382(18)
O31_11 O 0.6590(4) 0.5000 0.7763(2)
O32_6 O 0.1590(4) 0.5000 0.7237(2)
O33_4 O 0.8936(8) 0.4470(8) 0.6445(6)
O34_4 O 0.1064(8) 0.5530(8) 0.6445(6)
O35_4 O 0.1064(8) 0.4470(8) 0.6445(6)
O36_6 O 0.1686(9) 0.5000 0.5736(5)
Mn7_12 Mn 0.33596(9) 0.5000 0.84877(7)
O28_8 O 0.2259(3) 0.44686(18) 0.79382(18)
O30_8 O 0.2259(3) 0.55314(18) 0.79382(18)
O31_12 O 0.3410(4) 0.5000 0.7763(2)
Ni1_5 Ni -0.0000 0.2500 0.2500
N2_5 N -0.0000 0.2039(3) 0.2977(2)
Cl2_7 Cl 0.10233(19) 0.3091(2) 0.5000
O8_3 O 0.1894(2) 0.2251(2) 0.45247(16)
O9_5 O 0.1894(2) 0.2749(2) 0.04753(16)
O12_3 O 0.1894(2) 0.2251(2) 0.54753(16)
O20_3 O 0.2777(4) 0.0533(3) 0.3517(2)
O21_5 O 0.2777(4) 0.4467(3) 0.1483(2)
O34_5 O 0.3936(8) 0.0530(8) 0.3555(6)
O36_7 O 0.3314(9) 0.0000 0.4264(5)
N3_5 N 0.0810(3) 0.2500 0.2500
N4_5 N -0.0000 0.2961(3) 0.2023(2)
C15_5 C 0.1735(3) 0.2346(3) 0.2660(2)
C16_5 C 0.1735(3) 0.2654(3) 0.2340(2)
H7_5 H 0.2046 0.2780 0.2207
H8_5 H 0.2046 0.2220 0.2793
C18_5 C 0.1167(3) 0.2751(2) 0.2242(2)
C19_5 C 0.1167(3) 0.2249(2) 0.2758(2)
C21_5 C 0.1001(2) 0.3056(2) 0.19203(19)
C22_5 C 0.1001(2) 0.1944(2) 0.30797(19)
C24_5 C 0.0461(3) 0.3139(2) 0.1836(2)
C25_5 C 0.0461(3) 0.1861(2) 0.3164(2)
C26_5 C 0.0271(3) 0.1537(3) 0.3495(3)
C27_5 C 0.0271(3) 0.3463(3) 0.1505(3)
H9_5 H 0.0498 0.1362 0.3673
H11_5 H 0.0498 0.3638 0.1327
C29_5 C 0.1451(3) 0.1719(2) 0.3340(2)
C30_5 C 0.1451(3) 0.3281(2) 0.1660(2)
C32_5 C 0.1710(3) 0.1324(2) 0.3205(2)
C33_5 C 0.1710(3) 0.3676(2) 0.1795(2)
H12_5 H 0.1600 0.1185 0.2951
H13_5 H 0.1600 0.3815 0.2049
C35_5 C 0.2141(3) 0.1125(2) 0.3444(2)
C36_5 C 0.2141(3) 0.3875(2) 0.1556(2)
C38_5 C 0.2284(3) 0.1325(2) 0.3817(2)
C39_5 C 0.2284(3) 0.3675(2) 0.1183(2)
H15_5 H 0.2571 0.1194 0.3976
H16_5 H 0.2571 0.3806 0.1024
C41_5 C 0.2024(3) 0.1715(2) 0.3969(2)
C42_5 C 0.2024(3) 0.3285(2) 0.1031(2)
C44_5 C 0.1601(3) 0.1898(2) 0.37336(19)
C45_5 C 0.1601(3) 0.3102(2) 0.12664(19)
H18_5 H 0.1406 0.2151 0.3841
H19_5 H 0.1406 0.2849 0.1159
C47_5 C 0.2211(4) 0.1945(3) 0.4381(2)
C48_5 C 0.2211(4) 0.3055(3) 0.0619(2)
C50_5 C 0.2412(3) 0.0690(3) 0.3286(2)
C51_5 C 0.2412(3) 0.4310(3) 0.1714(2)
H34_5 H 0.100918 0.165644 0.285501
H35_5 H 0.100918 0.334356 0.214499
O24_3 O 0.2777(4) 0.9467(3) 0.3517(2)
O35_5 O 0.3936(8) 0.9470(8) 0.3555(6)
O36_8 O 0.3314(9) 1.0000 0.4264(5)
Ni1_6 Ni 1.0000 0.2500 0.2500
Cl1_7 Cl 0.89767(19) 0.3091(2) 0.5000
O1_3 O 0.8106(2) 0.2251(2) 0.45247(16)
O3_3 O 0.7223(4) 0.0533(3) 0.3517(2)
O6_5 O 0.6064(8) 0.0530(8) 0.3555(6)
O7_7 O 0.6686(9) 0.0000 0.4264(5)
N1_5 N 0.9190(3) 0.2500 0.2500
N2_6 N 1.0000 0.2039(3) 0.2977(2)
C1_5 C 0.8265(3) 0.2346(3) 0.2660(2)
H1_5 H 0.7954 0.2220 0.2793
C2_5 C 0.8833(3) 0.2249(2) 0.2758(2)
C3_5 C 0.8999(2) 0.1944(2) 0.30797(19)
C4_5 C 0.9539(3) 0.1861(2) 0.3164(2)
C5_5 C 0.9729(3) 0.1537(3) 0.3495(3)
H2_5 H 0.9502 0.1362 0.3673
C6_5 C 0.8549(3) 0.1719(2) 0.3340(2)
C7_5 C 0.8290(3) 0.1324(2) 0.3205(2)
H3_5 H 0.8400 0.1185 0.2951
C8_5 C 0.7859(3) 0.1125(2) 0.3444(2)
C9_5 C 0.7716(3) 0.1325(2) 0.3817(2)
H4_5 H 0.7429 0.1194 0.3976
C10_5 C 0.7976(3) 0.1715(2) 0.3969(2)
C11_5 C 0.8399(3) 0.1898(2) 0.37336(19)
H5_5 H 0.8594 0.2151 0.3841
C12_5 C 0.7789(4) 0.1945(3) 0.4381(2)
C13_5 C 0.7588(3) 0.0690(3) 0.3286(2)
O10_5 O 0.8106(2) 0.2749(2) 0.04753(16)
O11_3 O 0.8106(2) 0.2251(2) 0.54753(16)
O22_5 O 0.7223(4) 0.4467(3) 0.1483(2)
N4_6 N 1.0000 0.2961(3) 0.2023(2)
C14_5 C 0.8265(3) 0.2654(3) 0.2340(2)
H6_5 H 0.7954 0.2780 0.2207
C17_5 C 0.8833(3) 0.2751(2) 0.2242(2)
C20_5 C 0.8999(2) 0.3056(2) 0.19203(19)
C23_5 C 0.9539(3) 0.3139(2) 0.1836(2)
C28_5 C 0.9729(3) 0.3463(3) 0.1505(3)
H10_5 H 0.9502 0.3638 0.1327
C31_5 C 0.8549(3) 0.3281(2) 0.1660(2)
C34_5 C 0.8290(3) 0.3676(2) 0.1795(2)
H14_5 H 0.8400 0.3815 0.2049
C37_5 C 0.7859(3) 0.3875(2) 0.1556(2)
C40_5 C 0.7716(3) 0.3675(2) 0.1183(2)
H17_5 H 0.7429 0.3806 0.1024
C43_5 C 0.7976(3) 0.3285(2) 0.1031(2)
C46_5 C 0.8399(3) 0.3102(2) 0.12664(19)
H20_5 H 0.8594 0.2849 0.1159
C49_5 C 0.7789(4) 0.3055(3) 0.0619(2)
C52_5 C 0.7588(3) 0.4310(3) 0.1714(2)
H21_5 H 0.899082 0.165644 0.285501
H36_5 H 0.899082 0.334356 0.214499
O7_8 O 0.6686(9) 1.0000 0.4264(5)
O23_3 O 0.7223(4) 0.9467(3) 0.3517(2)
O33_5 O 0.6064(8) 0.9470(8) 0.3555(6)
Ni1_7 Ni 0.0000 0.7500 0.2500
Cl1_8 Cl 0.10233(19) 0.6909(2) 0.5000
O1_4 O 0.1894(2) 0.7749(2) 0.45247(16)
N1_6 N 0.0810(3) 0.7500 0.2500
N2_7 N 0.0000 0.7961(3) 0.2977(2)
C1_6 C 0.1735(3) 0.7654(3) 0.2660(2)
H1_6 H 0.2046 0.7780 0.2793
C2_6 C 0.1167(3) 0.7751(2) 0.2758(2)
C3_6 C 0.1001(2) 0.8056(2) 0.30797(19)
C4_6 C 0.0461(3) 0.8139(2) 0.3164(2)
C5_6 C 0.0271(3) 0.8463(3) 0.3495(3)
H2_6 H 0.0498 0.8638 0.3673
C6_6 C 0.1451(3) 0.8281(2) 0.3340(2)
C7_6 C 0.1710(3) 0.8676(2) 0.3205(2)
H3_6 H 0.1600 0.8815 0.2951
C8_6 C 0.2141(3) 0.8875(2) 0.3444(2)
C9_6 C 0.2284(3) 0.8675(2) 0.3817(2)
H4_6 H 0.2571 0.8806 0.3976
C10_6 C 0.2024(3) 0.8285(2) 0.3969(2)
C11_6 C 0.1601(3) 0.8102(2) 0.37336(19)
H5_6 H 0.1406 0.7849 0.3841
C12_6 C 0.2211(4) 0.8055(3) 0.4381(2)
C13_6 C 0.2412(3) 0.9310(3) 0.3286(2)
O10_6 O 0.1894(2) 0.7251(2) 0.04753(16)
O11_4 O 0.1894(2) 0.7749(2) 0.54753(16)
O22_6 O 0.2777(4) 0.5533(3) 0.1483(2)
N4_7 N 0.0000 0.7039(3) 0.2023(2)
C14_6 C 0.1735(3) 0.7346(3) 0.2340(2)
H6_6 H 0.2046 0.7220 0.2207
C17_6 C 0.1167(3) 0.7249(2) 0.2242(2)
C20_6 C 0.1001(2) 0.6944(2) 0.19203(19)
C23_6 C 0.0461(3) 0.6861(2) 0.1836(2)
C28_6 C 0.0271(3) 0.6537(3) 0.1505(3)
H10_6 H 0.0498 0.6362 0.1327
C31_6 C 0.1451(3) 0.6719(2) 0.1660(2)
C34_6 C 0.1710(3) 0.6324(2) 0.1795(2)
H14_6 H 0.1600 0.6185 0.2049
C37_6 C 0.2141(3) 0.6125(2) 0.1556(2)
C40_6 C 0.2284(3) 0.6325(2) 0.1183(2)
H17_6 H 0.2571 0.6194 0.1024
C43_6 C 0.2024(3) 0.6715(2) 0.1031(2)
C46_6 C 0.1601(3) 0.6898(2) 0.12664(19)
H20_6 H 0.1406 0.7151 0.1159
C49_6 C 0.2211(4) 0.6945(3) 0.0619(2)
C52_6 C 0.2412(3) 0.5690(3) 0.1714(2)
H21_6 H 0.100918 0.834356 0.285501
H36_6 H 0.100918 0.665644 0.214499
Ni1_8 Ni 1.0000 0.7500 0.2500
N2_8 N 1.0000 0.7961(3) 0.2977(2)
Cl2_8 Cl 0.89767(19) 0.6909(2) 0.5000
O8_4 O 0.8106(2) 0.7749(2) 0.45247(16)
O9_6 O 0.8106(2) 0.7251(2) 0.04753(16)
O12_4 O 0.8106(2) 0.7749(2) 0.54753(16)
O21_6 O 0.7223(4) 0.5533(3) 0.1483(2)
N3_6 N 0.9190(3) 0.7500 0.2500
N4_8 N 1.0000 0.7039(3) 0.2023(2)
C15_6 C 0.8265(3) 0.7654(3) 0.2660(2)
C16_6 C 0.8265(3) 0.7346(3) 0.2340(2)
H7_6 H 0.7954 0.7220 0.2207
H8_6 H 0.7954 0.7780 0.2793
C18_6 C 0.8833(3) 0.7249(2) 0.2242(2)
C19_6 C 0.8833(3) 0.7751(2) 0.2758(2)
C21_6 C 0.8999(2) 0.6944(2) 0.19203(19)
C22_6 C 0.8999(2) 0.8056(2) 0.30797(19)
C24_6 C 0.9539(3) 0.6861(2) 0.1836(2)
C25_6 C 0.9539(3) 0.8139(2) 0.3164(2)
C26_6 C 0.9729(3) 0.8463(3) 0.3495(3)
C27_6 C 0.9729(3) 0.6537(3) 0.1505(3)
H9_6 H 0.9502 0.8638 0.3673
H11_6 H 0.9502 0.6362 0.1327
C29_6 C 0.8549(3) 0.8281(2) 0.3340(2)
C30_6 C 0.8549(3) 0.6719(2) 0.1660(2)
C32_6 C 0.8290(3) 0.8676(2) 0.3205(2)
C33_6 C 0.8290(3) 0.6324(2) 0.1795(2)
H12_6 H 0.8400 0.8815 0.2951
H13_6 H 0.8400 0.6185 0.2049
C35_6 C 0.7859(3) 0.8875(2) 0.3444(2)
C36_6 C 0.7859(3) 0.6125(2) 0.1556(2)
C38_6 C 0.7716(3) 0.8675(2) 0.3817(2)
C39_6 C 0.7716(3) 0.6325(2) 0.1183(2)
H15_6 H 0.7429 0.8806 0.3976
H16_6 H 0.7429 0.6194 0.1024
C41_6 C 0.7976(3) 0.8285(2) 0.3969(2)
C42_6 C 0.7976(3) 0.6715(2) 0.1031(2)
C44_6 C 0.8399(3) 0.8102(2) 0.37336(19)
C45_6 C 0.8399(3) 0.6898(2) 0.12664(19)
H18_6 H 0.8594 0.7849 0.3841
H19_6 H 0.8594 0.7151 0.1159
C47_6 C 0.7789(4) 0.8055(3) 0.4381(2)
C48_6 C 0.7789(4) 0.6945(3) 0.0619(2)
C50_6 C 0.7588(3) 0.9310(3) 0.3286(2)
C51_6 C 0.7588(3) 0.5690(3) 0.1714(2)
H34_6 H 0.899082 0.834356 0.285501
H35_6 H 0.899082 0.665644 0.214499
Ni1_9 Ni 0.0000 0.2500 0.7500
O3_4 O 0.2777(4) 0.0533(3) 0.6483(2)
O6_6 O 0.3936(8) 0.0530(8) 0.6445(6)
O7_9 O 0.3314(9) 0.0000 0.5736(5)
N1_7 N 0.0810(3) 0.2500 0.7500
N2_9 N 0.0000 0.2039(3) 0.7023(2)
C1_7 C 0.1735(3) 0.2346(3) 0.7340(2)
H1_7 H 0.2046 0.2220 0.7207
C2_7 C 0.1167(3) 0.2249(2) 0.7242(2)
C3_7 C 0.1001(2) 0.1944(2) 0.69203(19)
C4_7 C 0.0461(3) 0.1861(2) 0.6836(2)
C5_7 C 0.0271(3) 0.1537(3) 0.6505(3)
H2_7 H 0.0498 0.1362 0.6327
C6_7 C 0.1451(3) 0.1719(2) 0.6660(2)
C7_7 C 0.1710(3) 0.1324(2) 0.6795(2)
H3_7 H 0.1600 0.1185 0.7049
C8_7 C 0.2141(3) 0.1125(2) 0.6556(2)
C9_7 C 0.2284(3) 0.1325(2) 0.6183(2)
H4_7 H 0.2571 0.1194 0.6024
C10_7 C 0.2024(3) 0.1715(2) 0.6031(2)
C11_7 C 0.1601(3) 0.1898(2) 0.62664(19)
H5_7 H 0.1406 0.2151 0.6159
C12_7 C 0.2211(4) 0.1945(3) 0.5619(2)
C13_7 C 0.2412(3) 0.0690(3) 0.6714(2)
O10_7 O 0.1894(2) 0.2749(2) 0.95247(16)
O22_7 O 0.2777(4) 0.4467(3) 0.8517(2)
N4_9 N 0.0000 0.2961(3) 0.7977(2)
C14_7 C 0.1735(3) 0.2654(3) 0.7660(2)
H6_7 H 0.2046 0.2780 0.7793
C17_7 C 0.1167(3) 0.2751(2) 0.7758(2)
C20_7 C 0.1001(2) 0.3056(2) 0.80797(19)
C23_7 C 0.0461(3) 0.3139(2) 0.8164(2)
C28_7 C 0.0271(3) 0.3463(3) 0.8495(3)
H10_7 H 0.0498 0.3638 0.8673
C31_7 C 0.1451(3) 0.3281(2) 0.8340(2)
C34_7 C 0.1710(3) 0.3676(2) 0.8205(2)
H14_7 H 0.1600 0.3815 0.7951
C37_7 C 0.2141(3) 0.3875(2) 0.8444(2)
C40_7 C 0.2284(3) 0.3675(2) 0.8817(2)
H17_7 H 0.2571 0.3806 0.8976
C43_7 C 0.2024(3) 0.3285(2) 0.8969(2)
C46_7 C 0.1601(3) 0.3102(2) 0.87336(19)
H20_7 H 0.1406 0.2849 0.8841
C49_7 C 0.2211(4) 0.3055(3) 0.9381(2)
C52_7 C 0.2412(3) 0.4310(3) 0.8286(2)
H21_7 H 0.100918 0.165644 0.714499
H36_7 H 0.100918 0.334356 0.785501
O7_10 O 0.3314(9) 1.0000 0.5736(5)
O23_4 O 0.2777(4) 0.9467(3) 0.6483(2)
O33_6 O 0.3936(8) 0.9470(8) 0.6445(6)
Ni1_10 Ni 1.0000 0.2500 0.7500
N2_10 N 1.0000 0.2039(3) 0.7023(2)
O9_7 O 0.8106(2) 0.2749(2) 0.95247(16)
O20_4 O 0.7223(4) 0.0533(3) 0.6483(2)
O21_7 O 0.7223(4) 0.4467(3) 0.8517(2)
O34_6 O 0.6064(8) 0.0530(8) 0.6445(6)
O36_9 O 0.6686(9) 0.0000 0.5736(5)
N3_7 N 0.9190(3) 0.2500 0.7500
N4_10 N 1.0000 0.2961(3) 0.7977(2)
C15_7 C 0.8265(3) 0.2346(3) 0.7340(2)
C16_7 C 0.8265(3) 0.2654(3) 0.7660(2)
H7_7 H 0.7954 0.2780 0.7793
H8_7 H 0.7954 0.2220 0.7207
C18_7 C 0.8833(3) 0.2751(2) 0.7758(2)
C19_7 C 0.8833(3) 0.2249(2) 0.7242(2)
C21_7 C 0.8999(2) 0.3056(2) 0.80797(19)
C22_7 C 0.8999(2) 0.1944(2) 0.69203(19)
C24_7 C 0.9539(3) 0.3139(2) 0.8164(2)
C25_7 C 0.9539(3) 0.1861(2) 0.6836(2)
C26_7 C 0.9729(3) 0.1537(3) 0.6505(3)
C27_7 C 0.9729(3) 0.3463(3) 0.8495(3)
H9_7 H 0.9502 0.1362 0.6327
H11_7 H 0.9502 0.3638 0.8673
C29_7 C 0.8549(3) 0.1719(2) 0.6660(2)
C30_7 C 0.8549(3) 0.3281(2) 0.8340(2)
C32_7 C 0.8290(3) 0.1324(2) 0.6795(2)
C33_7 C 0.8290(3) 0.3676(2) 0.8205(2)
H12_7 H 0.8400 0.1185 0.7049
H13_7 H 0.8400 0.3815 0.7951
C35_7 C 0.7859(3) 0.1125(2) 0.6556(2)
C36_7 C 0.7859(3) 0.3875(2) 0.8444(2)
C38_7 C 0.7716(3) 0.1325(2) 0.6183(2)
C39_7 C 0.7716(3) 0.3675(2) 0.8817(2)
H15_7 H 0.7429 0.1194 0.6024
H16_7 H 0.7429 0.3806 0.8976
C41_7 C 0.7976(3) 0.1715(2) 0.6031(2)
C42_7 C 0.7976(3) 0.3285(2) 0.8969(2)
C44_7 C 0.8399(3) 0.1898(2) 0.62664(19)
C45_7 C 0.8399(3) 0.3102(2) 0.87336(19)
H18_7 H 0.8594 0.2151 0.6159
H19_7 H 0.8594 0.2849 0.8841
C47_7 C 0.7789(4) 0.1945(3) 0.5619(2)
C48_7 C 0.7789(4) 0.3055(3) 0.9381(2)
C50_7 C 0.7588(3) 0.0690(3) 0.6714(2)
C51_7 C 0.7588(3) 0.4310(3) 0.8286(2)
H34_7 H 0.899082 0.165644 0.714499
H35_7 H 0.899082 0.334356 0.785501
O24_4 O 0.7223(4) 0.9467(3) 0.6483(2)
O35_6 O 0.6064(8) 0.9470(8) 0.6445(6)
O36_10 O 0.6686(9) 1.0000 0.5736(5)
Ni1_11 Ni -0.0000 0.7500 0.7500
N2_11 N -0.0000 0.7961(3) 0.7023(2)
O9_8 O 0.1894(2) 0.7251(2) 0.95247(16)
O21_8 O 0.2777(4) 0.5533(3) 0.8517(2)
N3_8 N 0.0810(3) 0.7500 0.7500
N4_11 N -0.0000 0.7039(3) 0.7977(2)
C15_8 C 0.1735(3) 0.7654(3) 0.7340(2)
C16_8 C 0.1735(3) 0.7346(3) 0.7660(2)
H7_8 H 0.2046 0.7220 0.7793
H8_8 H 0.2046 0.7780 0.7207
C18_8 C 0.1167(3) 0.7249(2) 0.7758(2)
C19_8 C 0.1167(3) 0.7751(2) 0.7242(2)
C21_8 C 0.1001(2) 0.6944(2) 0.80797(19)
C22_8 C 0.1001(2) 0.8056(2) 0.69203(19)
C24_8 C 0.0461(3) 0.6861(2) 0.8164(2)
C25_8 C 0.0461(3) 0.8139(2) 0.6836(2)
C26_8 C 0.0271(3) 0.8463(3) 0.6505(3)
C27_8 C 0.0271(3) 0.6537(3) 0.8495(3)
H9_8 H 0.0498 0.8638 0.6327
H11_8 H 0.0498 0.6362 0.8673
C29_8 C 0.1451(3) 0.8281(2) 0.6660(2)
C30_8 C 0.1451(3) 0.6719(2) 0.8340(2)
C32_8 C 0.1710(3) 0.8676(2) 0.6795(2)
C33_8 C 0.1710(3) 0.6324(2) 0.8205(2)
H12_8 H 0.1600 0.8815 0.7049
H13_8 H 0.1600 0.6185 0.7951
C35_8 C 0.2141(3) 0.8875(2) 0.6556(2)
C36_8 C 0.2141(3) 0.6125(2) 0.8444(2)
C38_8 C 0.2284(3) 0.8675(2) 0.6183(2)
C39_8 C 0.2284(3) 0.6325(2) 0.8817(2)
H15_8 H 0.2571 0.8806 0.6024
H16_8 H 0.2571 0.6194 0.8976
C41_8 C 0.2024(3) 0.8285(2) 0.6031(2)
C42_8 C 0.2024(3) 0.6715(2) 0.8969(2)
C44_8 C 0.1601(3) 0.8102(2) 0.62664(19)
C45_8 C 0.1601(3) 0.6898(2) 0.87336(19)
H18_8 H 0.1406 0.7849 0.6159
H19_8 H 0.1406 0.7151 0.8841
C47_8 C 0.2211(4) 0.8055(3) 0.5619(2)
C48_8 C 0.2211(4) 0.6945(3) 0.9381(2)
C50_8 C 0.2412(3) 0.9310(3) 0.6714(2)
C51_8 C 0.2412(3) 0.5690(3) 0.8286(2)
H34_8 H 0.100918 0.834356 0.714499
H35_8 H 0.100918 0.665644 0.785501
Ni1_12 Ni 1.0000 0.7500 0.7500
N1_8 N 0.9190(3) 0.7500 0.7500
N2_12 N 1.0000 0.7961(3) 0.7023(2)
C1_8 C 0.8265(3) 0.7654(3) 0.7340(2)
H1_8 H 0.7954 0.7780 0.7207
C2_8 C 0.8833(3) 0.7751(2) 0.7242(2)
C3_8 C 0.8999(2) 0.8056(2) 0.69203(19)
C4_8 C 0.9539(3) 0.8139(2) 0.6836(2)
C5_8 C 0.9729(3) 0.8463(3) 0.6505(3)
H2_8 H 0.9502 0.8638 0.6327
C6_8 C 0.8549(3) 0.8281(2) 0.6660(2)
C7_8 C 0.8290(3) 0.8676(2) 0.6795(2)
H3_8 H 0.8400 0.8815 0.7049
C8_8 C 0.7859(3) 0.8875(2) 0.6556(2)
C9_8 C 0.7716(3) 0.8675(2) 0.6183(2)
H4_8 H 0.7429 0.8806 0.6024
C10_8 C 0.7976(3) 0.8285(2) 0.6031(2)
C11_8 C 0.8399(3) 0.8102(2) 0.62664(19)
H5_8 H 0.8594 0.7849 0.6159
C12_8 C 0.7789(4) 0.8055(3) 0.5619(2)
C13_8 C 0.7588(3) 0.9310(3) 0.6714(2)
O10_8 O 0.8106(2) 0.7251(2) 0.95247(16)
O22_8 O 0.7223(4) 0.5533(3) 0.8517(2)
N4_12 N 1.0000 0.7039(3) 0.7977(2)
C14_8 C 0.8265(3) 0.7346(3) 0.7660(2)
H6_8 H 0.7954 0.7220 0.7793
C17_8 C 0.8833(3) 0.7249(2) 0.7758(2)
C20_8 C 0.8999(2) 0.6944(2) 0.80797(19)
C23_8 C 0.9539(3) 0.6861(2) 0.8164(2)
C28_8 C 0.9729(3) 0.6537(3) 0.8495(3)
H10_8 H 0.9502 0.6362 0.8673
C31_8 C 0.8549(3) 0.6719(2) 0.8340(2)
C34_8 C 0.8290(3) 0.6324(2) 0.8205(2)
H14_8 H 0.8400 0.6185 0.7951
C37_8 C 0.7859(3) 0.6125(2) 0.8444(2)
C40_8 C 0.7716(3) 0.6325(2) 0.8817(2)
H17_8 H 0.7429 0.6194 0.8976
C43_8 C 0.7976(3) 0.6715(2) 0.8969(2)
C46_8 C 0.8399(3) 0.6898(2) 0.87336(19)
H20_8 H 0.8594 0.7151 0.8841
C49_8 C 0.7789(4) 0.6945(3) 0.9381(2)
C52_8 C 0.7588(3) 0.5690(3) 0.8286(2)
H21_8 H 0.899082 0.834356 0.714499
H36_8 H 0.899082 0.665644 0.785501
Cl2_9 Cl 0.10233(19) 0.8091(2) 0.0000
Cl2_10 Cl 0.10233(19) 0.8091(2) 1.0000
O34_7 O 0.3936(8) 0.5530(8) 0.8555(6)
O35_7 O 0.3936(8) 0.4470(8) 0.8555(6)
O36_11 O 0.3314(9) 0.5000 0.9264(5)
Cl1_9 Cl 0.89767(19) 0.8091(2) 0.0000
Cl1_10 Cl 0.89767(19) 0.8091(2) 1.0000
O6_7 O 0.6064(8) 0.5530(8) 0.8555(6)
O7_11 O 0.6686(9) 0.5000 0.9264(5)
O33_7 O 0.6064(8) 0.4470(8) 0.8555(6)
Cl1_11 Cl 0.10233(19) 0.1909(2) 0.0000
Cl1_12 Cl 0.10233(19) 0.1909(2) 1.0000
Cl2_11 Cl 0.89767(19) 0.1909(2) 0.0000
Cl2_12 Cl 0.89767(19) 0.1909(2) 1.0000
O6_8 O 0.3936(8) 0.5530(8) 0.1445(6)
O7_12 O 0.3314(9) 0.5000 0.0736(5)
O33_8 O 0.3936(8) 0.4470(8) 0.1445(6)
O34_8 O 0.6064(8) 0.5530(8) 0.1445(6)
O35_8 O 0.6064(8) 0.4470(8) 0.1445(6)
O36_12 O 0.6686(9) 0.5000 0.0736(5)
loop_
_geom_bond_atom_site_label_1
_geom_bond_atom_site_label_2
_geom_bond_site_symmetry_1
_geom_bond_site_symmetry_2
Mn3 Cl1 1_555 1_555
Mn11 Cl2 1_555 1_555
O11 Mn3 1_555 1_555
O12 Mn11 1_555 1_555
O17 Mn3 1_555 1_555
O19 Mn11 1_555 1_555
Mn1 O3 1_555 1_555
Mn2 O4 1_555 1_555
Mn3_2 Cl1_2 1_555 1_555
Ni1 N1 1_555 1_555
O1 Mn3_2 1_555 1_555
O2 C12 1_555 1_555
O3 C13 1_555 1_555
O4 C13 1_555 1_555
O5 Mn1 1_555 1_555
O6 Mn1 1_555 1_555
O7 Mn1 1_555 1_555
N1 C2 1_555 1_555
N2 Ni1 1_555 1_555
C1 H1 1_555 1_555
C2 C1 1_555 1_555
C3 C2 1_555 1_555
C4 N2 1_555 1_555
C5 C4 1_555 1_555
H2 C5 1_555 1_555
C6 C3 1_555 1_555
C7 C6 1_555 1_555
H3 C7 1_555 1_555
C8 C7 1_555 1_555
C9 C8 1_555 1_555
H4 C9 1_555 1_555
C10 C9 1_555 1_555
C11 C6 1_555 1_555
H5 C11 1_555 1_555
C12 O1 1_555 1_555
C13 C8 1_555 1_555
Mn4 O20 1_555 1_555
Mn5 O21 1_555 1_555
Mn6 O22 1_555 1_555
Mn7 O31 1_555 1_555
Mn8 O25 1_555 1_555
Mn9 O26 1_555 1_555
Mn10 O27 1_555 1_555
Mn11_2 Cl2_2 1_555 1_555
Mn12_2 O2 1_555 1_555
Mn13_2 O13 1_555 1_555
Mn14 O9 1_555 1_555
Mn15 O14 1_555 1_555
Mn16 O10 1_555 1_555
Mn17 O15 1_555 1_555
O8 Mn11_2 1_555 1_555
O9 C48 1_555 1_555
O10 C49 1_555 1_555
O13 C47 1_555 1_555
O14 C48 1_555 1_555
O15 C49 1_555 1_555
O16 Mn3_2 1_555 1_555
O18 Mn11_2 1_555 1_555
O20 C50 1_555 1_555
O21 C51 1_555 1_555
O22 C52 1_555 1_555
O25 C50 1_555 1_555
O26 C51 1_555 1_555
O27 C52 1_555 1_555
O28 Mn2 1_555 1_555
O31 Mn2 1_555 1_555
O32 Mn4 1_555 1_555
O34 Mn4 1_555 1_555
O36 Mn4 1_555 1_555
N3 Ni1 1_555 1_555
N4 Ni1 1_555 1_555
C14 C1 1_555 1_555
C15 C16 1_555 1_555
C16 H7 1_555 1_555
H6 C14 1_555 1_555
H8 C15 1_555 1_555
C17 N1 1_555 1_555
C18 N3 1_555 1_555
C19 N3 1_555 1_555
C20 C17 1_555 1_555
C21 C18 1_555 1_555
C22 C19 1_555 1_555
C23 N4 1_555 1_555
C24 N4 1_555 1_555
C25 N2 1_555 1_555
C26 C5 1_555 1_555
C27 C24 1_555 1_555
C28 C23 1_555 1_555
H9 C26 1_555 1_555
H10 C28 1_555 1_555
H11 C27 1_555 1_555
C29 C22 1_555 1_555
C30 C21 1_555 1_555
C31 C20 1_555 1_555
C32 C29 1_555 1_555
C33 C30 1_555 1_555
C34 C31 1_555 1_555
H12 C32 1_555 1_555
H13 C33 1_555 1_555
H14 C34 1_555 1_555
C35 C32 1_555 1_555
C36 C33 1_555 1_555
C37 C34 1_555 1_555
C38 C35 1_555 1_555
C39 C36 1_555 1_555
C40 C37 1_555 1_555
H15 C38 1_555 1_555
H16 C39 1_555 1_555
H17 C40 1_555 1_555
C41 C38 1_555 1_555
C42 C39 1_555 1_555
C43 C40 1_555 1_555
C44 C29 1_555 1_555
C45 C30 1_555 1_555
C46 C31 1_555 1_555
H18 C44 1_555 1_555
H19 C45 1_555 1_555
H20 C46 1_555 1_555
C47 O8 1_555 1_555
C48 C42 1_555 1_555
C49 C43 1_555 1_555
C50 C35 1_555 1_555
C51 C36 1_555 1_555
C52 C37 1_555 1_555
Mn2 O5 1_555 1_555
C3 C4 1_555 1_555
C10 C11 1_555 1_555
C10 C12 1_555 1_555
Mn8 O32 1_555 1_555
C14 C17 1_555 1_555
C15 C19 1_555 1_555
C16 C18 1_555 1_555
C20 C23 1_555 1_555
C21 C24 1_555 1_555
C22 C25 1_555 1_555
C25 C26 1_555 1_555
C27 C28 1_555 1_555
C41 C44 1_555 1_555
C41 C47 1_555 1_555
C42 C45 1_555 1_555
C43 C46 1_555 1_555
C3 H21 1_555 1_555
C22 H34 1_555 1_555
C21 H35 1_555 1_555
C20 H36 1_555 1_555
O5_2 Mn1_2 1_555 1_555
O7_2 Mn1_2 1_555 1_555
Mn7_2 O31_2 1_555 1_555
O23 Mn1_2 1_555 1_555
O24 Mn4_2 1_555 1_555
O29 Mn2_2 1_555 1_555
O30 Mn2_2 1_555 1_555
O31_2 Mn2_2 1_555 1_555
O32_2 Mn4_2 1_555 1_555
O33 Mn1_2 1_555 1_555
O35 Mn4_2 1_555 1_555
O36_2 Mn4_2 1_555 1_555
Mn2_2 O5_2 1_555 1_555
Mn8_2 O32_2 1_555 1_555
Mn7_3 O31_3 1_555 1_555
O30_2 Mn8 1_555 1_555
O31_3 Mn8 1_555 1_555
Mn3_3 Cl1_3 1_555 1_555
Mn11_3 Cl2_3 1_555 1_555
O11_2 Mn3_3 1_555 1_555
O12_2 Mn11_3 1_555 1_555
O17_2 Mn3_3 1_555 1_555
O19_2 Mn11_3 1_555 1_555
Mn8_2 O4_2 1_555 1_555
Mn3_4 Cl1_4 1_555 1_555
Ni1_2 N1_2 1_555 1_555
O1_2 Mn3_4 1_555 1_555
O2_2 C12_2 1_555 1_555
O24 C13_2 1_555 1_555
O4_2 C13_2 1_555 1_555
N1_2 C2_2 1_555 1_555
N2_2 Ni1_2 1_555 1_555
C1_2 H1_2 1_555 1_555
C2_2 C1_2 1_555 1_555
C3_2 C2_2 1_555 1_555
C4_2 N2_2 1_555 1_555
C5_2 C4_2 1_555 1_555
H2_2 C5_2 1_555 1_555
C6_2 C3_2 1_555 1_555
C7_2 C6_2 1_555 1_555
H3_2 C7_2 1_555 1_555
C8_2 C7_2 1_555 1_555
C9_2 C8_2 1_555 1_555
H4_2 C9_2 1_555 1_555
C10_2 C9_2 1_555 1_555
C11_2 C6_2 1_555 1_555
H5_2 C11_2 1_555 1_555
C12_2 O1_2 1_555 1_555
C13_2 C8_2 1_555 1_555
Mn6 O21_2 1_555 1_555
Mn5 O22_2 1_555 1_555
Mn7_4 O31_4 1_555 1_555
Mn10 O26_2 1_555 1_555
Mn9 O27_2 1_555 1_555
Mn11_4 Cl2_4 1_555 1_555
Mn12_4 O2_2 1_555 1_555
Mn13_4 O13_2 1_555 1_555
Mn14_2 O9_2 1_555 1_555
Mn15_2 O14_2 1_555 1_555
Mn16_2 O10_2 1_555 1_555
Mn17_2 O15_2 1_555 1_555
O8_2 Mn11_4 1_555 1_555
O9_2 C48_2 1_555 1_555
O10_2 C49_2 1_555 1_555
O13_2 C47_2 1_555 1_555
O14_2 C48_2 1_555 1_555
O15_2 C49_2 1_555 1_555
O16_2 Mn3_4 1_555 1_555
O18_2 Mn11_4 1_555 1_555
O23 C50_2 1_555 1_555
O21_2 C51_2 1_555 1_555
O22_2 C52_2 1_555 1_555
O29 C50_2 1_555 1_555
O26_2 C51_2 1_555 1_555
O27_2 C52_2 1_555 1_555
O28_2 Mn8_2 1_555 1_555
O31_4 Mn8_2 1_555 1_555
N3_2 Ni1_2 1_555 1_555
N4_2 Ni1_2 1_555 1_555
C14_2 C1_2 1_555 1_555
C15_2 C16_2 1_555 1_555
C16_2 H7_2 1_555 1_555
H6_2 C14_2 1_555 1_555
H8_2 C15_2 1_555 1_555
C17_2 N1_2 1_555 1_555
C18_2 N3_2 1_555 1_555
C19_2 N3_2 1_555 1_555
C20_2 C17_2 1_555 1_555
C21_2 C18_2 1_555 1_555
C22_2 C19_2 1_555 1_555
C23_2 N4_2 1_555 1_555
C24_2 N4_2 1_555 1_555
C25_2 N2_2 1_555 1_555
C26_2 C5_2 1_555 1_555
C27_2 C24_2 1_555 1_555
C28_2 C23_2 1_555 1_555
H9_2 C26_2 1_555 1_555
H10_2 C28_2 1_555 1_555
H11_2 C27_2 1_555 1_555
C29_2 C22_2 1_555 1_555
C30_2 C21_2 1_555 1_555
C31_2 C20_2 1_555 1_555
C32_2 C29_2 1_555 1_555
C33_2 C30_2 1_555 1_555
C34_2 C31_2 1_555 1_555
H12_2 C32_2 1_555 1_555
H13_2 C33_2 1_555 1_555
H14_2 C34_2 1_555 1_555
C35_2 C32_2 1_555 1_555
C36_2 C33_2 1_555 1_555
C37_2 C34_2 1_555 1_555
C38_2 C35_2 1_555 1_555
C39_2 C36_2 1_555 1_555
C40_2 C37_2 1_555 1_555
H15_2 C38_2 1_555 1_555
H16_2 C39_2 1_555 1_555
H17_2 C40_2 1_555 1_555
C41_2 C38_2 1_555 1_555
C42_2 C39_2 1_555 1_555
C43_2 C40_2 1_555 1_555
C44_2 C29_2 1_555 1_555
C45_2 C30_2 1_555 1_555
C46_2 C31_2 1_555 1_555
H18_2 C44_2 1_555 1_555
H19_2 C45_2 1_555 1_555
H20_2 C46_2 1_555 1_555
C47_2 O8_2 1_555 1_555
C48_2 C42_2 1_555 1_555
C49_2 C43_2 1_555 1_555
C50_2 C35_2 1_555 1_555
C51_2 C36_2 1_555 1_555
C52_2 C37_2 1_555 1_555
C3_2 C4_2 1_555 1_555
C10_2 C11_2 1_555 1_555
C10_2 C12_2 1_555 1_555
C14_2 C17_2 1_555 1_555
C15_2 C19_2 1_555 1_555
C16_2 C18_2 1_555 1_555
C20_2 C23_2 1_555 1_555
C21_2 C24_2 1_555 1_555
C22_2 C25_2 1_555 1_555
C25_2 C26_2 1_555 1_555
C27_2 C28_2 1_555 1_555
C41_2 C44_2 1_555 1_555
C41_2 C47_2 1_555 1_555
C42_2 C45_2 1_555 1_555
C43_2 C46_2 1_555 1_555
C3_2 H21_2 1_555 1_555
C22_2 H34_2 1_555 1_555
C21_2 H35_2 1_555 1_555
C20_2 H36_2 1_555 1_555
Mn1_3 O3_2 1_555 1_555
Mn2_3 O4_3 1_555 1_555
Ni1_3 N1_3 1_555 1_555
O2_3 C12_3 1_555 1_555
O3_2 C13_3 1_555 1_555
O4_3 C13_3 1_555 1_555
O5_3 Mn1_3 1_555 1_555
O6_2 Mn1_3 1_555 1_555
O7_3 Mn1_3 1_555 1_555
N1_3 C2_3 1_555 1_555
N2_3 Ni1_3 1_555 1_555
C1_3 H1_3 1_555 1_555
C2_3 C1_3 1_555 1_555
C3_3 C2_3 1_555 1_555
C4_3 N2_3 1_555 1_555
C5_3 C4_3 1_555 1_555
H2_3 C5_3 1_555 1_555
C6_3 C3_3 1_555 1_555
C7_3 C6_3 1_555 1_555
H3_3 C7_3 1_555 1_555
C8_3 C7_3 1_555 1_555
C9_3 C8_3 1_555 1_555
H4_3 C9_3 1_555 1_555
C10_3 C9_3 1_555 1_555
C11_3 C6_3 1_555 1_555
H5_3 C11_3 1_555 1_555
C12_3 O12 1_555 1_555
C13_3 C8_3 1_555 1_555
Mn4_3 O20_2 1_555 1_555
Mn5_2 O21_3 1_555 1_555
Mn6_2 O22_3 1_555 1_555
Mn7_5 O31_5 1_555 1_555
Mn8_3 O25_2 1_555 1_555
Mn9_2 O26_3 1_555 1_555
Mn10_2 O27_3 1_555 1_555
Mn13 O2_3 1_555 1_555
Mn12 O13_3 1_555 1_555
Mn16 O9_3 1_555 1_555
Mn17 O14_3 1_555 1_555
Mn14 O10_3 1_555 1_555
Mn15 O15_3 1_555 1_555
O9_3 C48_3 1_555 1_555
O10_3 C49_3 1_555 1_555
O13_3 C47_3 1_555 1_555
O14_3 C48_3 1_555 1_555
O15_3 C49_3 1_555 1_555
O20_2 C50_3 1_555 1_555
O21_3 C51_3 1_555 1_555
O22_3 C52_3 1_555 1_555
O25_2 C50_3 1_555 1_555
O26_3 C51_3 1_555 1_555
O27_3 C52_3 1_555 1_555
O28_3 Mn2_3 1_555 1_555
O31_5 Mn2_3 1_555 1_555
O32_3 Mn4_3 1_555 1_555
O34_2 Mn4_3 1_555 1_555
O36_3 Mn4_3 1_555 1_555
N3_3 Ni1_3 1_555 1_555
N4_3 Ni1_3 1_555 1_555
C14_3 C1_3 1_555 1_555
C15_3 C16_3 1_555 1_555
C16_3 H7_3 1_555 1_555
H6_3 C14_3 1_555 1_555
H8_3 C15_3 1_555 1_555
C17_3 N1_3 1_555 1_555
C18_3 N3_3 1_555 1_555
C19_3 N3_3 1_555 1_555
C20_3 C17_3 1_555 1_555
C21_3 C18_3 1_555 1_555
C22_3 C19_3 1_555 1_555
C23_3 N4_3 1_555 1_555
C24_3 N4_3 1_555 1_555
C25_3 N2_3 1_555 1_555
C26_3 C5_3 1_555 1_555
C27_3 C24_3 1_555 1_555
C28_3 C23_3 1_555 1_555
H9_3 C26_3 1_555 1_555
H10_3 C28_3 1_555 1_555
H11_3 C27_3 1_555 1_555
C29_3 C22_3 1_555 1_555
C30_3 C21_3 1_555 1_555
C31_3 C20_3 1_555 1_555
C32_3 C29_3 1_555 1_555
C33_3 C30_3 1_555 1_555
C34_3 C31_3 1_555 1_555
H12_3 C32_3 1_555 1_555
H13_3 C33_3 1_555 1_555
H14_3 C34_3 1_555 1_555
C35_3 C32_3 1_555 1_555
C36_3 C33_3 1_555 1_555
C37_3 C34_3 1_555 1_555
C38_3 C35_3 1_555 1_555
C39_3 C36_3 1_555 1_555
C40_3 C37_3 1_555 1_555
H15_3 C38_3 1_555 1_555
H16_3 C39_3 1_555 1_555
H17_3 C40_3 1_555 1_555
C41_3 C38_3 1_555 1_555
C42_3 C39_3 1_555 1_555
C43_3 C40_3 1_555 1_555
C44_3 C29_3 1_555 1_555
C45_3 C30_3 1_555 1_555
C46_3 C31_3 1_555 1_555
H18_3 C44_3 1_555 1_555
H19_3 C45_3 1_555 1_555
H20_3 C46_3 1_555 1_555
C47_3 O11 1_555 1_555
C48_3 C42_3 1_555 1_555
C49_3 C43_3 1_555 1_555
C50_3 C35_3 1_555 1_555
C51_3 C36_3 1_555 1_555
C52_3 C37_3 1_555 1_555
Mn2_3 O5_3 1_555 1_555
C3_3 C4_3 1_555 1_555
C10_3 C11_3 1_555 1_555
C10_3 C12_3 1_555 1_555
Mn8_3 O32_3 1_555 1_555
C14_3 C17_3 1_555 1_555
C15_3 C19_3 1_555 1_555
C16_3 C18_3 1_555 1_555
C20_3 C23_3 1_555 1_555
C21_3 C24_3 1_555 1_555
C22_3 C25_3 1_555 1_555
C25_3 C26_3 1_555 1_555
C27_3 C28_3 1_555 1_555
C41_3 C44_3 1_555 1_555
C41_3 C47_3 1_555 1_555
C42_3 C45_3 1_555 1_555
C43_3 C46_3 1_555 1_555
C3_3 H21_3 1_555 1_555
C22_3 H34_3 1_555 1_555
C21_3 H35_3 1_555 1_555
C20_3 H36_3 1_555 1_555
O5_4 Mn1_4 1_555 1_555
O7_4 Mn1_4 1_555 1_555
Mn7_6 O31_6 1_555 1_555
O23_2 Mn1_4 1_555 1_555
O24_2 Mn4_4 1_555 1_555
O29_2 Mn2_4 1_555 1_555
O30_3 Mn2_4 1_555 1_555
O31_6 Mn2_4 1_555 1_555
O32_4 Mn4_4 1_555 1_555
O33_2 Mn1_4 1_555 1_555
O35_2 Mn4_4 1_555 1_555
O36_4 Mn4_4 1_555 1_555
Mn2_4 O5_4 1_555 1_555
Mn8_4 O32_4 1_555 1_555
Mn7_7 O31_7 1_555 1_555
O30_4 Mn8_3 1_555 1_555
O31_7 Mn8_3 1_555 1_555
Mn8_4 O4_4 1_555 1_555
Ni1_4 N1_4 1_555 1_555
O2_4 C12_4 1_555 1_555
O24_2 C13_4 1_555 1_555
O4_4 C13_4 1_555 1_555
N1_4 C2_4 1_555 1_555
N2_4 Ni1_4 1_555 1_555
C1_4 H1_4 1_555 1_555
C2_4 C1_4 1_555 1_555
C3_4 C2_4 1_555 1_555
C4_4 N2_4 1_555 1_555
C5_4 C4_4 1_555 1_555
H2_4 C5_4 1_555 1_555
C6_4 C3_4 1_555 1_555
C7_4 C6_4 1_555 1_555
H3_4 C7_4 1_555 1_555
C8_4 C7_4 1_555 1_555
C9_4 C8_4 1_555 1_555
H4_4 C9_4 1_555 1_555
C10_4 C9_4 1_555 1_555
C11_4 C6_4 1_555 1_555
H5_4 C11_4 1_555 1_555
C12_4 O12_2 1_555 1_555
C13_4 C8_4 1_555 1_555
Mn6_2 O21_4 1_555 1_555
Mn5_2 O22_4 1_555 1_555
Mn7_8 O31_8 1_555 1_555
Mn10_2 O26_4 1_555 1_555
Mn9_2 O27_4 1_555 1_555
Mn13_3 O2_4 1_555 1_555
Mn12_3 O13_4 1_555 1_555
Mn16_2 O9_4 1_555 1_555
Mn17_2 O14_4 1_555 1_555
Mn14_2 O10_4 1_555 1_555
Mn15_2 O15_4 1_555 1_555
O9_4 C48_4 1_555 1_555
O10_4 C49_4 1_555 1_555
O13_4 C47_4 1_555 1_555
O14_4 C48_4 1_555 1_555
O15_4 C49_4 1_555 1_555
O23_2 C50_4 1_555 1_555
O21_4 C51_4 1_555 1_555
O22_4 C52_4 1_555 1_555
O29_2 C50_4 1_555 1_555
O26_4 C51_4 1_555 1_555
O27_4 C52_4 1_555 1_555
O28_4 Mn8_4 1_555 1_555
O31_8 Mn8_4 1_555 1_555
N3_4 Ni1_4 1_555 1_555
N4_4 Ni1_4 1_555 1_555
C14_4 C1_4 1_555 1_555
C15_4 C16_4 1_555 1_555
C16_4 H7_4 1_555 1_555
H6_4 C14_4 1_555 1_555
H8_4 C15_4 1_555 1_555
C17_4 N1_4 1_555 1_555
C18_4 N3_4 1_555 1_555
C19_4 N3_4 1_555 1_555
C20_4 C17_4 1_555 1_555
C21_4 C18_4 1_555 1_555
C22_4 C19_4 1_555 1_555
C23_4 N4_4 1_555 1_555
C24_4 N4_4 1_555 1_555
C25_4 N2_4 1_555 1_555
C26_4 C5_4 1_555 1_555
C27_4 C24_4 1_555 1_555
C28_4 C23_4 1_555 1_555
H9_4 C26_4 1_555 1_555
H10_4 C28_4 1_555 1_555
H11_4 C27_4 1_555 1_555
C29_4 C22_4 1_555 1_555
C30_4 C21_4 1_555 1_555
C31_4 C20_4 1_555 1_555
C32_4 C29_4 1_555 1_555
C33_4 C30_4 1_555 1_555
C34_4 C31_4 1_555 1_555
H12_4 C32_4 1_555 1_555
H13_4 C33_4 1_555 1_555
H14_4 C34_4 1_555 1_555
C35_4 C32_4 1_555 1_555
C36_4 C33_4 1_555 1_555
C37_4 C34_4 1_555 1_555
C38_4 C35_4 1_555 1_555
C39_4 C36_4 1_555 1_555
C40_4 C37_4 1_555 1_555
H15_4 C38_4 1_555 1_555
H16_4 C39_4 1_555 1_555
H17_4 C40_4 1_555 1_555
C41_4 C38_4 1_555 1_555
C42_4 C39_4 1_555 1_555
C43_4 C40_4 1_555 1_555
C44_4 C29_4 1_555 1_555
C45_4 C30_4 1_555 1_555
C46_4 C31_4 1_555 1_555
H18_4 C44_4 1_555 1_555
H19_4 C45_4 1_555 1_555
H20_4 C46_4 1_555 1_555
C47_4 O11_2 1_555 1_555
C48_4 C42_4 1_555 1_555
C49_4 C43_4 1_555 1_555
C50_4 C35_4 1_555 1_555
C51_4 C36_4 1_555 1_555
C52_4 C37_4 1_555 1_555
C3_4 C4_4 1_555 1_555
C10_4 C11_4 1_555 1_555
C10_4 C12_4 1_555 1_555
C14_4 C17_4 1_555 1_555
C15_4 C19_4 1_555 1_555
C16_4 C18_4 1_555 1_555
C20_4 C23_4 1_555 1_555
C21_4 C24_4 1_555 1_555
C22_4 C25_4 1_555 1_555
C25_4 C26_4 1_555 1_555
C27_4 C28_4 1_555 1_555
C41_4 C44_4 1_555 1_555
C41_4 C47_4 1_555 1_555
C42_4 C45_4 1_555 1_555
C43_4 C46_4 1_555 1_555
C3_4 H21_4 1_555 1_555
C22_4 H34_4 1_555 1_555
C21_4 H35_4 1_555 1_555
C20_4 H36_4 1_555 1_555
Mn14_2 Cl1_5 1_555 1_555
O5_5 Mn5_2 1_555 1_555
O6_3 Mn5_2 1_555 1_555
O7_5 Mn5_2 1_555 1_555
Mn7_9 O31_9 1_555 1_555
Mn16_2 Cl2_5 1_555 1_555
O16_3 Mn14_2 1_555 1_555
O17_3 Mn14_2 1_555 1_555
O18_3 Mn16_2 1_555 1_555
O19_3 Mn16_2 1_555 1_555
O28_5 Mn9_2 1_555 1_555
O30_5 Mn9_2 1_555 1_555
O31_9 Mn9_2 1_555 1_555
O32_5 Mn6_2 1_555 1_555
O33_3 Mn5_2 1_555 1_555
O34_3 Mn6_2 1_555 1_555
O35_3 Mn6_2 1_555 1_555
O36_5 Mn6_2 1_555 1_555
Mn9_2 O5_5 1_555 1_555
Mn10_2 O32_5 1_555 1_555
Mn14 Cl1_6 1_555 1_555
Mn7_10 O31_10 1_555 1_555
Mn16 Cl2_6 1_555 1_555
O16_4 Mn14 1_555 1_555
O17_4 Mn14 1_555 1_555
O18_4 Mn16 1_555 1_555
O19_4 Mn16 1_555 1_555
O28_6 Mn10_2 1_555 1_555
O30_6 Mn10_2 1_555 1_555
O31_10 Mn10_2 1_555 1_555
O5_6 Mn5 1_555 1_555
O6_4 Mn5 1_555 1_555
O7_6 Mn5 1_555 1_555
Mn7_11 O31_11 1_555 1_555
O28_7 Mn9 1_555 1_555
O30_7 Mn9 1_555 1_555
O31_11 Mn9 1_555 1_555
O32_6 Mn6 1_555 1_555
O33_4 Mn5 1_555 1_555
O34_4 Mn6 1_555 1_555
O35_4 Mn6 1_555 1_555
O36_6 Mn6 1_555 1_555
Mn9 O5_6 1_555 1_555
Mn10 O32_6 1_555 1_555
Mn7_12 O31_12 1_555 1_555
O28_8 Mn10 1_555 1_555
O30_8 Mn10 1_555 1_555
O31_12 Mn10 1_555 1_555
N2_5 Ni1_5 1_555 1_555
Mn7_7 O20_3 1_555 1_555
Mn7_9 O21_5 1_555 1_555
Mn17 Cl2_7 1_555 1_555
Mn12 O9_5 1_555 1_555
O8_3 Mn17 1_555 1_555
O9_5 C48_5 1_555 1_555
O12_3 Mn17 1_555 1_555
O18_4 C47_5 1_555 1_555
O17 C48_5 1_555 1_555
O20_3 C50_5 1_555 1_555
O21_5 C51_5 1_555 1_555
O30_4 C50_5 1_555 1_555
O30_5 C51_5 1_555 1_555
O34_5 Mn7_7 1_555 1_555
O36_7 Mn7_7 1_555 1_555
N3_5 Ni1_5 1_555 1_555
N4_5 Ni1_5 1_555 1_555
C15_5 C16_5 1_555 1_555
C16_5 H7_5 1_555 1_555
H8_5 C15_5 1_555 1_555
C18_5 N3_5 1_555 1_555
C19_5 N3_5 1_555 1_555
C21_5 C18_5 1_555 1_555
C22_5 C19_5 1_555 1_555
C24_5 N4_5 1_555 1_555
C25_5 N2_5 1_555 1_555
C27_5 C24_5 1_555 1_555
H9_5 C26_5 1_555 1_555
H11_5 C27_5 1_555 1_555
C29_5 C22_5 1_555 1_555
C30_5 C21_5 1_555 1_555
C32_5 C29_5 1_555 1_555
C33_5 C30_5 1_555 1_555
H12_5 C32_5 1_555 1_555
H13_5 C33_5 1_555 1_555
C35_5 C32_5 1_555 1_555
C36_5 C33_5 1_555 1_555
C38_5 C35_5 1_555 1_555
C39_5 C36_5 1_555 1_555
H15_5 C38_5 1_555 1_555
H16_5 C39_5 1_555 1_555
C41_5 C38_5 1_555 1_555
C42_5 C39_5 1_555 1_555
C44_5 C29_5 1_555 1_555
C45_5 C30_5 1_555 1_555
H18_5 C44_5 1_555 1_555
H19_5 C45_5 1_555 1_555
C47_5 O8_3 1_555 1_555
C48_5 C42_5 1_555 1_555
C50_5 C35_5 1_555 1_555
C51_5 C36_5 1_555 1_555
C15_5 C19_5 1_555 1_555
C16_5 C18_5 1_555 1_555
C21_5 C24_5 1_555 1_555
C22_5 C25_5 1_555 1_555
C25_5 C26_5 1_555 1_555
C41_5 C44_5 1_555 1_555
C41_5 C47_5 1_555 1_555
C42_5 C45_5 1_555 1_555
C22_5 H34_5 1_555 1_555
C21_5 H35_5 1_555 1_555
O24_3 Mn7_8 1_555 1_555
O35_5 Mn7_8 1_555 1_555
O36_8 Mn7_8 1_555 1_555
Mn7_5 O3_3 1_555 1_555
Mn15 Cl1_7 1_555 1_555
Ni1_6 N1_5 1_555 1_555
O1_3 Mn15 1_555 1_555
O16_4 C12_5 1_555 1_555
O3_3 C13_5 1_555 1_555
O28_3 C13_5 1_555 1_555
O6_5 Mn7_5 1_555 1_555
O7_7 Mn7_5 1_555 1_555
N1_5 C2_5 1_555 1_555
N2_6 Ni1_6 1_555 1_555
C1_5 H1_5 1_555 1_555
C2_5 C1_5 1_555 1_555
C3_5 C2_5 1_555 1_555
C4_5 N2_6 1_555 1_555
C5_5 C4_5 1_555 1_555
H2_5 C5_5 1_555 1_555
C6_5 C3_5 1_555 1_555
C7_5 C6_5 1_555 1_555
H3_5 C7_5 1_555 1_555
C8_5 C7_5 1_555 1_555
C9_5 C8_5 1_555 1_555
H4_5 C9_5 1_555 1_555
C10_5 C9_5 1_555 1_555
C11_5 C6_5 1_555 1_555
H5_5 C11_5 1_555 1_555
C12_5 O1_3 1_555 1_555
C13_5 C8_5 1_555 1_555
Mn7_10 O22_5 1_555 1_555
Mn13 O10_5 1_555 1_555
O10_5 C49_5 1_555 1_555
O11_3 Mn15 1_555 1_555
O19 C49_5 1_555 1_555
O22_5 C52_5 1_555 1_555
O28_6 C52_5 1_555 1_555
N4_6 Ni1_6 1_555 1_555
C14_5 C1_5 1_555 1_555
H6_5 C14_5 1_555 1_555
C17_5 N1_5 1_555 1_555
C20_5 C17_5 1_555 1_555
C23_5 N4_6 1_555 1_555
C28_5 C23_5 1_555 1_555
H10_5 C28_5 1_555 1_555
C31_5 C20_5 1_555 1_555
C34_5 C31_5 1_555 1_555
H14_5 C34_5 1_555 1_555
C37_5 C34_5 1_555 1_555
C40_5 C37_5 1_555 1_555
H17_5 C40_5 1_555 1_555
C43_5 C40_5 1_555 1_555
C46_5 C31_5 1_555 1_555
H20_5 C46_5 1_555 1_555
C49_5 C43_5 1_555 1_555
C52_5 C37_5 1_555 1_555
C3_5 C4_5 1_555 1_555
C10_5 C11_5 1_555 1_555
C10_5 C12_5 1_555 1_555
C14_5 C17_5 1_555 1_555
C20_5 C23_5 1_555 1_555
C43_5 C46_5 1_555 1_555
C3_5 H21_5 1_555 1_555
C20_5 H36_5 1_555 1_555
O7_8 Mn7_6 1_555 1_555
O23_3 Mn7_6 1_555 1_555
O33_5 Mn7_6 1_555 1_555
Mn15_2 Cl1_8 1_555 1_555
Ni1_7 N1_6 1_555 1_555
O1_4 Mn15_2 1_555 1_555
O16_3 C12_6 1_555 1_555
O24_3 C13_6 1_555 1_555
O28_4 C13_6 1_555 1_555
N1_6 C2_6 1_555 1_555
N2_7 Ni1_7 1_555 1_555
C1_6 H1_6 1_555 1_555
C2_6 C1_6 1_555 1_555
C3_6 C2_6 1_555 1_555
C4_6 N2_7 1_555 1_555
C5_6 C4_6 1_555 1_555
H2_6 C5_6 1_555 1_555
C6_6 C3_6 1_555 1_555
C7_6 C6_6 1_555 1_555
H3_6 C7_6 1_555 1_555
C8_6 C7_6 1_555 1_555
C9_6 C8_6 1_555 1_555
H4_6 C9_6 1_555 1_555
C10_6 C9_6 1_555 1_555
C11_6 C6_6 1_555 1_555
H5_6 C11_6 1_555 1_555
C12_6 O1_4 1_555 1_555
C13_6 C8_6 1_555 1_555
Mn7_9 O22_6 1_555 1_555
Mn13_3 O10_6 1_555 1_555
O10_6 C49_6 1_555 1_555
O11_4 Mn15_2 1_555 1_555
O19_2 C49_6 1_555 1_555
O22_6 C52_6 1_555 1_555
O28_5 C52_6 1_555 1_555
N4_7 Ni1_7 1_555 1_555
C14_6 C1_6 1_555 1_555
H6_6 C14_6 1_555 1_555
C17_6 N1_6 1_555 1_555
C20_6 C17_6 1_555 1_555
C23_6 N4_7 1_555 1_555
C28_6 C23_6 1_555 1_555
H10_6 C28_6 1_555 1_555
C31_6 C20_6 1_555 1_555
C34_6 C31_6 1_555 1_555
H14_6 C34_6 1_555 1_555
C37_6 C34_6 1_555 1_555
C40_6 C37_6 1_555 1_555
H17_6 C40_6 1_555 1_555
C43_6 C40_6 1_555 1_555
C46_6 C31_6 1_555 1_555
H20_6 C46_6 1_555 1_555
C49_6 C43_6 1_555 1_555
C52_6 C37_6 1_555 1_555
C3_6 C4_6 1_555 1_555
C10_6 C11_6 1_555 1_555
C10_6 C12_6 1_555 1_555
C14_6 C17_6 1_555 1_555
C20_6 C23_6 1_555 1_555
C43_6 C46_6 1_555 1_555
C3_6 H21_6 1_555 1_555
C20_6 H36_6 1_555 1_555
N2_8 Ni1_8 1_555 1_555
Mn7_10 O21_6 1_555 1_555
Mn17_2 Cl2_8 1_555 1_555
Mn12_3 O9_6 1_555 1_555
O8_4 Mn17_2 1_555 1_555
O9_6 C48_6 1_555 1_555
O12_4 Mn17_2 1_555 1_555
O18_3 C47_6 1_555 1_555
O17_2 C48_6 1_555 1_555
O23_3 C50_6 1_555 1_555
O21_6 C51_6 1_555 1_555
O30_3 C50_6 1_555 1_555
O30_6 C51_6 1_555 1_555
N3_6 Ni1_8 1_555 1_555
N4_8 Ni1_8 1_555 1_555
C15_6 C16_6 1_555 1_555
C16_6 H7_6 1_555 1_555
H8_6 C15_6 1_555 1_555
C18_6 N3_6 1_555 1_555
C19_6 N3_6 1_555 1_555
C21_6 C18_6 1_555 1_555
C22_6 C19_6 1_555 1_555
C24_6 N4_8 1_555 1_555
C25_6 N2_8 1_555 1_555
C27_6 C24_6 1_555 1_555
H9_6 C26_6 1_555 1_555
H11_6 C27_6 1_555 1_555
C29_6 C22_6 1_555 1_555
C30_6 C21_6 1_555 1_555
C32_6 C29_6 1_555 1_555
C33_6 C30_6 1_555 1_555
H12_6 C32_6 1_555 1_555
H13_6 C33_6 1_555 1_555
C35_6 C32_6 1_555 1_555
C36_6 C33_6 1_555 1_555
C38_6 C35_6 1_555 1_555
C39_6 C36_6 1_555 1_555
H15_6 C38_6 1_555 1_555
H16_6 C39_6 1_555 1_555
C41_6 C38_6 1_555 1_555
C42_6 C39_6 1_555 1_555
C44_6 C29_6 1_555 1_555
C45_6 C30_6 1_555 1_555
H18_6 C44_6 1_555 1_555
H19_6 C45_6 1_555 1_555
C47_6 O8_4 1_555 1_555
C48_6 C42_6 1_555 1_555
C50_6 C35_6 1_555 1_555
C51_6 C36_6 1_555 1_555
C15_6 C19_6 1_555 1_555
C16_6 C18_6 1_555 1_555
C21_6 C24_6 1_555 1_555
C22_6 C25_6 1_555 1_555
C25_6 C26_6 1_555 1_555
C41_6 C44_6 1_555 1_555
C41_6 C47_6 1_555 1_555
C42_6 C45_6 1_555 1_555
C22_6 H34_6 1_555 1_555
C21_6 H35_6 1_555 1_555
Mn7 O3_4 1_555 1_555
Ni1_9 N1_7 1_555 1_555
O19_4 C12_7 1_555 1_555
O3_4 C13_7 1_555 1_555
O28 C13_7 1_555 1_555
O6_6 Mn7 1_555 1_555
O7_9 Mn7 1_555 1_555
N1_7 C2_7 1_555 1_555
N2_9 Ni1_9 1_555 1_555
C1_7 H1_7 1_555 1_555
C2_7 C1_7 1_555 1_555
C3_7 C2_7 1_555 1_555
C4_7 N2_9 1_555 1_555
C5_7 C4_7 1_555 1_555
H2_7 C5_7 1_555 1_555
C6_7 C3_7 1_555 1_555
C7_7 C6_7 1_555 1_555
H3_7 C7_7 1_555 1_555
C8_7 C7_7 1_555 1_555
C9_7 C8_7 1_555 1_555
H4_7 C9_7 1_555 1_555
C10_7 C9_7 1_555 1_555
C11_7 C6_7 1_555 1_555
H5_7 C11_7 1_555 1_555
C12_7 O12_3 1_555 1_555
C13_7 C8_7 1_555 1_555
Mn7_12 O22_7 1_555 1_555
Mn12_2 O10_7 1_555 1_555
O10_7 C49_7 1_555 1_555
O16 C49_7 1_555 1_555
O22_7 C52_7 1_555 1_555
O28_8 C52_7 1_555 1_555
N4_9 Ni1_9 1_555 1_555
C14_7 C1_7 1_555 1_555
H6_7 C14_7 1_555 1_555
C17_7 N1_7 1_555 1_555
C20_7 C17_7 1_555 1_555
C23_7 N4_9 1_555 1_555
C28_7 C23_7 1_555 1_555
H10_7 C28_7 1_555 1_555
C31_7 C20_7 1_555 1_555
C34_7 C31_7 1_555 1_555
H14_7 C34_7 1_555 1_555
C37_7 C34_7 1_555 1_555
C40_7 C37_7 1_555 1_555
H17_7 C40_7 1_555 1_555
C43_7 C40_7 1_555 1_555
C46_7 C31_7 1_555 1_555
H20_7 C46_7 1_555 1_555
C49_7 C43_7 1_555 1_555
C52_7 C37_7 1_555 1_555
C3_7 C4_7 1_555 1_555
C10_7 C11_7 1_555 1_555
C10_7 C12_7 1_555 1_555
C14_7 C17_7 1_555 1_555
C20_7 C23_7 1_555 1_555
C43_7 C46_7 1_555 1_555
C3_7 H21_7 1_555 1_555
C20_7 H36_7 1_555 1_555
O7_10 Mn7_2 1_555 1_555
O23_4 Mn7_2 1_555 1_555
O33_6 Mn7_2 1_555 1_555
N2_10 Ni1_10 1_555 1_555
Mn7_3 O20_4 1_555 1_555
Mn7_11 O21_7 1_555 1_555
Mn13_2 O9_7 1_555 1_555
O9_7 C48_7 1_555 1_555
O17_4 C47_7 1_555 1_555
O18 C48_7 1_555 1_555
O20_4 C50_7 1_555 1_555
O21_7 C51_7 1_555 1_555
O30_2 C50_7 1_555 1_555
O30_7 C51_7 1_555 1_555
O34_6 Mn7_3 1_555 1_555
O36_9 Mn7_3 1_555 1_555
N3_7 Ni1_10 1_555 1_555
N4_10 Ni1_10 1_555 1_555
C15_7 C16_7 1_555 1_555
C16_7 H7_7 1_555 1_555
H8_7 C15_7 1_555 1_555
C18_7 N3_7 1_555 1_555
C19_7 N3_7 1_555 1_555
C21_7 C18_7 1_555 1_555
C22_7 C19_7 1_555 1_555
C24_7 N4_10 1_555 1_555
C25_7 N2_10 1_555 1_555
C27_7 C24_7 1_555 1_555
H9_7 C26_7 1_555 1_555
H11_7 C27_7 1_555 1_555
C29_7 C22_7 1_555 1_555
C30_7 C21_7 1_555 1_555
C32_7 C29_7 1_555 1_555
C33_7 C30_7 1_555 1_555
H12_7 C32_7 1_555 1_555
H13_7 C33_7 1_555 1_555
C35_7 C32_7 1_555 1_555
C36_7 C33_7 1_555 1_555
C38_7 C35_7 1_555 1_555
C39_7 C36_7 1_555 1_555
H15_7 C38_7 1_555 1_555
H16_7 C39_7 1_555 1_555
C41_7 C38_7 1_555 1_555
C42_7 C39_7 1_555 1_555
C44_7 C29_7 1_555 1_555
C45_7 C30_7 1_555 1_555
H18_7 C44_7 1_555 1_555
H19_7 C45_7 1_555 1_555
C47_7 O11_3 1_555 1_555
C48_7 C42_7 1_555 1_555
C50_7 C35_7 1_555 1_555
C51_7 C36_7 1_555 1_555
C15_7 C19_7 1_555 1_555
C16_7 C18_7 1_555 1_555
C21_7 C24_7 1_555 1_555
C22_7 C25_7 1_555 1_555
C25_7 C26_7 1_555 1_555
C41_7 C44_7 1_555 1_555
C41_7 C47_7 1_555 1_555
C42_7 C45_7 1_555 1_555
C22_7 H34_7 1_555 1_555
C21_7 H35_7 1_555 1_555
O24_4 Mn7_4 1_555 1_555
O35_6 Mn7_4 1_555 1_555
O36_10 Mn7_4 1_555 1_555
N2_11 Ni1_11 1_555 1_555
Mn7_12 O21_8 1_555 1_555
Mn13_4 O9_8 1_555 1_555
O9_8 C48_8 1_555 1_555
O17_3 C47_8 1_555 1_555
O18_2 C48_8 1_555 1_555
O23_4 C50_8 1_555 1_555
O21_8 C51_8 1_555 1_555
O30 C50_8 1_555 1_555
O30_8 C51_8 1_555 1_555
N3_8 Ni1_11 1_555 1_555
N4_11 Ni1_11 1_555 1_555
C15_8 C16_8 1_555 1_555
C16_8 H7_8 1_555 1_555
H8_8 C15_8 1_555 1_555
C18_8 N3_8 1_555 1_555
C19_8 N3_8 1_555 1_555
C21_8 C18_8 1_555 1_555
C22_8 C19_8 1_555 1_555
C24_8 N4_11 1_555 1_555
C25_8 N2_11 1_555 1_555
C27_8 C24_8 1_555 1_555
H9_8 C26_8 1_555 1_555
H11_8 C27_8 1_555 1_555
C29_8 C22_8 1_555 1_555
C30_8 C21_8 1_555 1_555
C32_8 C29_8 1_555 1_555
C33_8 C30_8 1_555 1_555
H12_8 C32_8 1_555 1_555
H13_8 C33_8 1_555 1_555
C35_8 C32_8 1_555 1_555
C36_8 C33_8 1_555 1_555
C38_8 C35_8 1_555 1_555
C39_8 C36_8 1_555 1_555
H15_8 C38_8 1_555 1_555
H16_8 C39_8 1_555 1_555
C41_8 C38_8 1_555 1_555
C42_8 C39_8 1_555 1_555
C44_8 C29_8 1_555 1_555
C45_8 C30_8 1_555 1_555
H18_8 C44_8 1_555 1_555
H19_8 C45_8 1_555 1_555
C47_8 O11_4 1_555 1_555
C48_8 C42_8 1_555 1_555
C50_8 C35_8 1_555 1_555
C51_8 C36_8 1_555 1_555
C15_8 C19_8 1_555 1_555
C16_8 C18_8 1_555 1_555
C21_8 C24_8 1_555 1_555
C22_8 C25_8 1_555 1_555
C25_8 C26_8 1_555 1_555
C41_8 C44_8 1_555 1_555
C41_8 C47_8 1_555 1_555
C42_8 C45_8 1_555 1_555
C22_8 H34_8 1_555 1_555
C21_8 H35_8 1_555 1_555
Ni1_12 N1_8 1_555 1_555
O19_3 C12_8 1_555 1_555
O24_4 C13_8 1_555 1_555
O28_2 C13_8 1_555 1_555
N1_8 C2_8 1_555 1_555
N2_12 Ni1_12 1_555 1_555
C1_8 H1_8 1_555 1_555
C2_8 C1_8 1_555 1_555
C3_8 C2_8 1_555 1_555
C4_8 N2_12 1_555 1_555
C5_8 C4_8 1_555 1_555
H2_8 C5_8 1_555 1_555
C6_8 C3_8 1_555 1_555
C7_8 C6_8 1_555 1_555
H3_8 C7_8 1_555 1_555
C8_8 C7_8 1_555 1_555
C9_8 C8_8 1_555 1_555
H4_8 C9_8 1_555 1_555
C10_8 C9_8 1_555 1_555
C11_8 C6_8 1_555 1_555
H5_8 C11_8 1_555 1_555
C12_8 O12_4 1_555 1_555
C13_8 C8_8 1_555 1_555
Mn7_11 O22_8 1_555 1_555
Mn12_4 O10_8 1_555 1_555
O10_8 C49_8 1_555 1_555
O16_2 C49_8 1_555 1_555
O22_8 C52_8 1_555 1_555
O28_7 C52_8 1_555 1_555
N4_12 Ni1_12 1_555 1_555
C14_8 C1_8 1_555 1_555
H6_8 C14_8 1_555 1_555
C17_8 N1_8 1_555 1_555
C20_8 C17_8 1_555 1_555
C23_8 N4_12 1_555 1_555
C28_8 C23_8 1_555 1_555
H10_8 C28_8 1_555 1_555
C31_8 C20_8 1_555 1_555
C34_8 C31_8 1_555 1_555
H14_8 C34_8 1_555 1_555
C37_8 C34_8 1_555 1_555
C40_8 C37_8 1_555 1_555
H17_8 C40_8 1_555 1_555
C43_8 C40_8 1_555 1_555
C46_8 C31_8 1_555 1_555
H20_8 C46_8 1_555 1_555
C49_8 C43_8 1_555 1_555
C52_8 C37_8 1_555 1_555
C3_8 C4_8 1_555 1_555
C10_8 C11_8 1_555 1_555
C10_8 C12_8 1_555 1_555
C14_8 C17_8 1_555 1_555
C20_8 C23_8 1_555 1_555
C43_8 C46_8 1_555 1_555
C3_8 H21_8 1_555 1_555
C20_8 H36_8 1_555 1_555
Mn13_3 Cl2_9 1_555 1_555
Mn13_4 Cl2_10 1_555 1_555
O34_7 Mn7_12 1_555 1_555
O35_7 Mn7_12 1_555 1_555
O36_11 Mn7_12 1_555 1_555
Mn12_3 Cl1_9 1_555 1_555
Mn12_4 Cl1_10 1_555 1_555
O6_7 Mn7_11 1_555 1_555
O7_11 Mn7_11 1_555 1_555
O33_7 Mn7_11 1_555 1_555
Mn12 Cl1_11 1_555 1_555
Mn12_2 Cl1_12 1_555 1_555
Mn13 Cl2_11 1_555 1_555
Mn13_2 Cl2_12 1_555 1_555
O6_8 Mn7_9 1_555 1_555
O7_12 Mn7_9 1_555 1_555
O33_8 Mn7_9 1_555 1_555
O34_8 Mn7_10 1_555 1_555
O35_8 Mn7_10 1_555 1_555
O36_12 Mn7_10 1_555 1_555

#END
