
###############################################################################
#
# This file contains modified crystal structure data generated from the
# MOF subset of the Cambridge Structural Database (CSD) v543 
# hosted by the Cambridge Crystallographic Data Centre (CCDC).
#
# This work is licensed under the Creative Commons
# Attribution-NonCommercial-ShareAlike 4.0 International License.
# To view a copy of this license, visit
# http://creativecommons.org/licenses/by-nc-sa/4.0/
# or send a letter to
# Creative Commons, PO Box 1866, Mountain View, CA 94042, USA.
#
# CIF created using the CSD Python API on 29 September 2022
# The structure has been converted into the P1 space group
# The structure has a 3D framework
# The original CSD entry MEGFIN is in the tetragonal crystal system
# The framework has been calculated to contain at least 10.0% void space
# The void calculation uses a probe of radius 1.32A, grid spacing 0.4
#
###############################################################################

data_MEGFIN
_chemical_formula_moiety         '(C672 H640 Mn48 N144 O160)n'
_symmetry_cell_setting           triclinic
_symmetry_space_group_name_H-M   'P 1'
_symmetry_Int_Tables_number      1
_space_group_name_Hall           'P 1'
loop_
_symmetry_equiv_pos_site_id
_symmetry_equiv_pos_as_xyz
1 x,y,z
_cell_length_a                   40.352(13)
_cell_length_b                   40.352(13)
_cell_length_c                   17.813(8)
_cell_angle_alpha                90
_cell_angle_beta                 90
_cell_angle_gamma                90
_cell_volume                     29004.6
loop_
_atom_site_label
_atom_site_type_symbol
_atom_site_fract_x
_atom_site_fract_y
_atom_site_fract_z
Mn8 Mn 0.88637(3) 0.47129(3) 0.03477(7)
H72 H 0.8287 0.4188 0.0209
N3 N 0.6906(2) 0.8923(2) 0.7994(5)
C10 C 0.6913(3) 0.8852(3) 0.8727(7)
H8 H 0.7060 0.8691 0.8892
C11 C 0.6715(5) 0.9004(4) 0.9248(7)
H9 H 0.6732 0.8946 0.9752
C12 C 0.6492(5) 0.9241(4) 0.9026(7)
C13 C 0.6500(4) 0.9330(4) 0.8284(7)
H10 H 0.6371 0.9505 0.8112
C14 C 0.6700(3) 0.9158(3) 0.7798(6)
H11 H 0.6688 0.9213 0.7291
C15 C 0.6232(7) 0.9385(5) 0.9549(9)
H12 H 0.6087 0.9209 0.9720
H13 H 0.6099 0.9545 0.9277
H39 H 0.6535 0.9682 0.9951
Mn6 Mn 0.72129(3) 0.86363(3) 0.71523(7)
Mn1 Mn 0.77871(3) 0.63637(3) 0.78477(7)
O1 O 0.75856(16) 0.59832(15) 0.8197(3)
O2 O 0.69639(17) 0.63380(16) 0.6438(4)
O3 O 0.79359(15) 0.67721(16) 0.7395(3)
N1 N 0.74296(19) 0.64346(18) 0.7126(4)
N2 N 0.7453(2) 0.67379(19) 0.6745(4)
C1 C 0.7332(2) 0.5809(2) 0.7903(5)
C2 C 0.7134(2) 0.5922(2) 0.7300(5)
C3 C 0.6879(2) 0.5716(2) 0.7033(5)
H1 H 0.6751 0.5786 0.6629
C4 C 0.6816(2) 0.5414(2) 0.7356(6)
H2 H 0.6644 0.5282 0.7179
C5 C 0.7009(3) 0.5308(3) 0.7940(6)
H3 H 0.6969 0.5102 0.8158
C6 C 0.7266(3) 0.5505(3) 0.8210(6)
H4 H 0.7395 0.5429 0.8606
C7 C 0.7177(2) 0.6242(2) 0.6936(5)
C8 C 0.7725(3) 0.6892(2) 0.6925(6)
C9 C 0.7783(3) 0.7231(3) 0.6625(8)
H5 H 0.7801 0.7385 0.7035
H6 H 0.7602 0.7294 0.6307
H7 H 0.7985 0.7234 0.6340
N3_2 N 0.8577(2) 0.9406(2) 0.0494(5)
C10_2 C 0.8648(3) 0.9413(3) 0.1227(7)
H8_2 H 0.8809 0.9560 0.1392
C11_2 C 0.8496(4) 0.9215(5) 0.1748(7)
H9_2 H 0.8554 0.9232 0.2252
C12_2 C 0.8259(4) 0.8992(5) 0.1526(7)
C13_2 C 0.8170(4) 0.9000(4) 0.0784(7)
H10_2 H 0.7995 0.8871 0.0612
C14_2 C 0.8342(3) 0.9200(3) 0.0298(6)
C15_2 C 0.8115(5) 0.8732(7) 0.2049(9)
H12_2 H 0.8291 0.8587 0.2220
H13_2 H 0.7955 0.8599 0.1777
Mn2 Mn 0.70524(4) 0.67457(3) 0.58560(8)
O4 O 0.73236(18) 0.65191(16) 0.5188(4)
O5 O 0.72834(18) 0.75094(17) 0.4383(3)
O6 O 0.67910(15) 0.70456(16) 0.6457(3)
N4 N 0.71301(19) 0.71552(19) 0.5327(4)
N5 N 0.69733(18) 0.74370(18) 0.5634(4)
C16 C 0.7480(3) 0.6626(3) 0.4580(7)
C17 C 0.7464(3) 0.6951(3) 0.4303(6)
C18 C 0.7618(4) 0.7024(3) 0.3620(7)
H14 H 0.7596 0.7236 0.3420
C19 C 0.7806(4) 0.6790(5) 0.3230(9)
H15 H 0.7913 0.6842 0.2782
C20 C 0.7825(4) 0.6469(4) 0.3553(11)
H16 H 0.7945 0.6306 0.3304
C21 C 0.7678(4) 0.6393(3) 0.4196(9)
H17 H 0.7706 0.6182 0.4398
C22 C 0.7288(3) 0.7218(3) 0.4675(6)
C23 C 0.6809(2) 0.7348(2) 0.6230(6)
C24 C 0.6605(3) 0.7608(3) 0.6645(6)
H18 H 0.6375 0.7545 0.6639
H19 H 0.6630 0.7819 0.6403
H20 H 0.6680 0.7624 0.7155
O7 O 0.6584(3) 0.6625(2) 0.5237(6)
N6 N 0.6017(4) 0.6589(5) 0.5167(12)
C25 C 0.6302(5) 0.6690(5) 0.5469(10)
H21 H 0.6288 0.6822 0.5895
C26 C 0.5990(7) 0.6381(5) 0.4619(17)
H22 H 0.6206 0.6300 0.4483
H23 H 0.5891 0.6489 0.4195
H24 H 0.5853 0.6198 0.4771
C27 C 0.5689(5) 0.6711(9) 0.552(2)
H25 H 0.5507 0.6657 0.5199
H26 H 0.5699 0.6946 0.5596
H27 H 0.5658 0.6604 0.6001
Mn3 Mn 0.71571(4) 0.78950(3) 0.50138(7)
O9 O 0.81609(15) 0.63517(15) 0.8580(3)
O10 O 0.74230(17) 0.71303(16) 0.9457(3)
N7 N 0.7902(2) 0.67369(19) 0.9276(4)
N8 N 0.76260(19) 0.6688(2) 0.8810(4)
C29 C 0.8451(2) 0.6558(2) 0.9620(5)
C30 C 0.8702(3) 0.6333(3) 0.9502(6)
H28 H 0.8684 0.6187 0.9100
C31 C 0.8979(3) 0.6316(3) 0.9959(8)
H29 H 0.9146 0.6163 0.9862
C34 C 0.8161(2) 0.6551(2) 0.9132(5)
C35 C 0.7389(2) 0.6899(2) 0.8953(5)
C36 C 0.7066(3) 0.6887(3) 0.8538(6)
H32 H 0.7046 0.6677 0.8287
H33 H 0.6887 0.6913 0.8886
H34 H 0.7060 0.7062 0.8174
N9 N 0.7415(3) 0.8202(2) 0.4118(5)
C37 C 0.7314(4) 0.8503(3) 0.3928(6)
H35 H 0.7116 0.8579 0.4132
C38 C 0.7487(5) 0.8715(4) 0.3437(8)
H36 H 0.7401 0.8923 0.3321
C39 C 0.7775(5) 0.8615(4) 0.3137(9)
C40 C 0.7888(4) 0.8306(4) 0.3354(9)
H37 H 0.8087 0.8227 0.3162
C41 C 0.7709(4) 0.8111(4) 0.3850(7)
H38 H 0.7799 0.7909 0.4003
C42 C 0.7971(6) 0.8866(5) 0.2627(15)
H39_2 H 0.7818 0.9035 0.2451
H40 H 0.8138 0.8976 0.2930
O11 O 0.74144(16) 0.90168(15) 0.6803(3)
O12 O 0.80361(17) 0.86620(16) 0.8562(4)
O13 O 0.70641(15) 0.82279(16) 0.7605(3)
N10 N 0.75704(19) 0.85654(18) 0.7874(4)
N11 N 0.7547(2) 0.82621(19) 0.8255(4)
C43 C 0.7668(2) 0.9191(2) 0.7097(5)
C44 C 0.7866(2) 0.9078(2) 0.7700(5)
C45 C 0.8121(2) 0.9284(2) 0.7967(5)
H41 H 0.8249 0.9214 0.8371
C46 C 0.8184(2) 0.9586(2) 0.7644(6)
H42 H 0.8356 0.9718 0.7821
C47 C 0.7991(3) 0.9692(3) 0.7060(6)
H43 H 0.8031 0.9898 0.6842
C48 C 0.7734(3) 0.9495(3) 0.6790(6)
H44 H 0.7605 0.9571 0.6394
C49 C 0.7823(2) 0.8758(2) 0.8064(5)
C50 C 0.7275(3) 0.8108(2) 0.8075(6)
C51 C 0.7217(3) 0.7769(3) 0.8375(8)
H45 H 0.7199 0.7615 0.7965
H46 H 0.7398 0.7706 0.8693
H47 H 0.7015 0.7766 0.8660
Mn5 Mn 0.79476(4) 0.82543(3) 0.91440(8)
O14 O 0.76764(18) 0.84809(16) 0.9812(4)
O16 O 0.82090(15) 0.79544(16) 0.8543(3)
N13 N 0.78699(19) 0.78448(19) 0.9673(4)
N14 N 0.80267(18) 0.75630(18) 0.9366(4)
C59 C 0.8191(2) 0.7652(2) 0.8770(6)
C60 C 0.8395(3) 0.7392(3) 0.8355(6)
H52 H 0.8625 0.7455 0.8361
H53 H 0.8370 0.7181 0.8597
H54 H 0.8320 0.7376 0.7845
O17 O 0.8416(3) 0.8375(2) 0.9763(6)
N15 N 0.8983(4) 0.8411(5) 0.9833(12)
C61 C 0.8698(5) 0.8310(5) 0.9531(10)
H55 H 0.8712 0.8178 0.9105
C63 C 0.9311(5) 0.8289(9) 0.948(2)
H59 H 0.9493 0.8343 0.9801
H60 H 0.9301 0.8054 0.9404
H61 H 0.9342 0.8396 0.8999
O18 O 0.67476(18) 0.79882(17) 0.4589(4)
O19 O 0.68391(15) 0.86483(15) 0.6420(3)
O20 O 0.75770(17) 0.78697(16) 0.5543(3)
N16 N 0.7098(2) 0.82631(19) 0.5724(4)
N17 N 0.73740(19) 0.8312(2) 0.6190(4)
C64 C 0.6526(3) 0.8214(3) 0.4766(6)
C65 C 0.6549(2) 0.8442(2) 0.5380(5)
C66 C 0.6298(3) 0.8667(3) 0.5498(6)
H62 H 0.6316 0.8813 0.5900
C67 C 0.6021(3) 0.8684(3) 0.5041(8)
H63 H 0.5854 0.8837 0.5138
C68 C 0.5997(3) 0.8467(4) 0.4428(8)
H64 H 0.5814 0.8476 0.4112
C69 C 0.6241(3) 0.8243(3) 0.4295(7)
H65 H 0.6222 0.8103 0.3882
C70 C 0.6839(2) 0.8449(2) 0.5868(5)
C71 C 0.7611(2) 0.8101(2) 0.6047(5)
C72 C 0.7934(3) 0.8113(3) 0.6462(6)
H66 H 0.7954 0.8323 0.6713
H67 H 0.8113 0.8087 0.6114
H68 H 0.7940 0.7938 0.6826
N18 N 0.8094(2) 0.6077(2) 0.7006(5)
Mn7 Mn 0.78429(4) 0.71050(3) 0.99862(7)
O13_2 O 0.92721(16) 0.95641(15) 0.0105(3)
C50_2 C 0.9392(2) 0.9775(3) 0.0575(6)
C51_2 C 0.9731(3) 0.9717(3) 0.0875(8)
H45_2 H 0.9885 0.9699 0.0465
H46_2 H 0.9794 0.9898 0.1193
H47_2 H 0.9734 0.9515 0.1160
C54 C 0.9524(3) 0.9882(4) 0.3880(7)
H48 H 0.9736 0.9904 0.4080
C55 C 0.9290(5) 0.9694(4) 0.4270(9)
H49 H 0.9342 0.9587 0.4718
C56 C 0.8969(4) 0.9675(4) 0.3947(11)
H50 H 0.8806 0.9555 0.4196
C57 C 0.8893(3) 0.9822(4) 0.3304(9)
H51 H 0.8682 0.9794 0.3102
O1_2 O 0.84832(15) 0.49144(16) 0.0697(3)
C1_2 C 0.8309(2) 0.5168(2) 0.0403(5)
C5_2 C 0.7808(3) 0.5491(3) 0.0440(6)
H3_2 H 0.7602 0.5531 0.0658
C6_2 C 0.8005(3) 0.5234(3) 0.0710(6)
H4_2 H 0.7929 0.5105 0.1106
O8 O 0.95118(17) 0.42476(18) 0.2911(4)
O9_2 O 0.88517(15) 0.43391(15) 0.1080(3)
O10_2 O 0.96303(16) 0.50770(17) 0.1957(3)
N7_2 N 0.92369(19) 0.4598(2) 0.1776(4)
N8_2 N 0.9188(2) 0.48740(19) 0.1310(4)
C28 C 0.9286(3) 0.4026(3) 0.2734(6)
C29_2 C 0.9058(2) 0.4049(2) 0.2120(5)
C30_2 C 0.8833(3) 0.3798(3) 0.2002(6)
H28_2 H 0.8687 0.3816 0.1600
C31_2 C 0.8816(3) 0.3521(3) 0.2459(8)
H29_2 H 0.8663 0.3354 0.2362
C32 C 0.9033(4) 0.3497(3) 0.3072(8)
H30 H 0.9024 0.3314 0.3388
C33 C 0.9257(3) 0.3741(3) 0.3205(7)
H31 H 0.9397 0.3722 0.3618
C34_2 C 0.9051(2) 0.4339(2) 0.1632(5)
C35_2 C 0.9399(2) 0.5111(2) 0.1453(5)
C36_2 C 0.9387(3) 0.5434(3) 0.1038(6)
H32_2 H 0.9177 0.5454 0.0787
H33_2 H 0.9413 0.5613 0.1386
H34_2 H 0.9562 0.5440 0.0674
O15 O 0.99906(17) 0.47834(18) 0.3117(3)
C60_2 C 0.9892(3) 0.4105(3) 0.0855(6)
H52_2 H 0.9955 0.3875 0.0861
H53_2 H 0.9681 0.4130 0.1097
H54_2 H 0.9876 0.4180 0.0345
Mn7_2 Mn 0.96050(3) 0.46571(4) 0.24862(7)
C73 C 0.8087(3) 0.6148(3) 0.6273(7)
H69 H 0.7940 0.6309 0.6108
C74 C 0.8285(5) 0.5996(4) 0.5752(7)
H70 H 0.8268 0.6054 0.5248
C75 C 0.8508(5) 0.5759(4) 0.5974(7)
C76 C 0.8500(4) 0.5670(4) 0.6716(7)
H71 H 0.8629 0.5495 0.6888
C77 C 0.8300(3) 0.5842(3) 0.7202(6)
H72_2 H 0.8312 0.5787 0.7709
C78 C 0.8768(7) 0.5615(5) 0.5451(9)
H73 H 0.8913 0.5791 0.5280
H74 H 0.8901 0.5455 0.5723
N20 N 0.9298(2) 0.4915(3) 0.3382(5)
C79 C 0.8997(3) 0.4814(4) 0.3572(6)
H75 H 0.8921 0.4616 0.3368
C80 C 0.8785(4) 0.4987(5) 0.4063(8)
H76 H 0.8577 0.4901 0.4179
C81 C 0.8885(4) 0.5275(5) 0.4363(9)
C82 C 0.9194(4) 0.5388(4) 0.4146(9)
H77 H 0.9273 0.5587 0.4338
C83 C 0.9389(4) 0.5209(4) 0.3650(7)
H78 H 0.9591 0.5299 0.3497
C84 C 0.8634(5) 0.5471(6) 0.4873(15)
H79 H 0.8465 0.5318 0.5049
H80 H 0.8524 0.5638 0.4570
Mn1_2 Mn 0.72129(3) 0.36363(3) 0.28477(7)
O1_3 O 0.74144(16) 0.40168(15) 0.3197(3)
O2_2 O 0.80361(17) 0.36620(16) 0.1438(4)
O3_2 O 0.70641(15) 0.32279(16) 0.2395(3)
N1_2 N 0.75704(19) 0.35654(18) 0.2126(4)
N2_2 N 0.7547(2) 0.32621(19) 0.1745(4)
C1_3 C 0.7668(2) 0.4191(2) 0.2903(5)
C2_2 C 0.7866(2) 0.4078(2) 0.2300(5)
C3_2 C 0.8121(2) 0.4284(2) 0.2033(5)
H1_2 H 0.8249 0.4214 0.1629
C4_2 C 0.8184(2) 0.4586(2) 0.2356(6)
H2_2 H 0.8356 0.4718 0.2179
C5_3 C 0.7991(3) 0.4692(3) 0.2940(6)
H3_3 H 0.8031 0.4898 0.3158
C6_3 C 0.7734(3) 0.4495(3) 0.3210(6)
H4_3 H 0.7605 0.4571 0.3606
C7_2 C 0.7823(2) 0.3758(2) 0.1936(5)
C8_2 C 0.7275(3) 0.3108(2) 0.1925(6)
C9_2 C 0.7217(3) 0.2769(3) 0.1625(8)
H5_2 H 0.7199 0.2615 0.2035
H6_2 H 0.7398 0.2706 0.1307
H7_2 H 0.7015 0.2766 0.1340
Mn2_2 Mn 0.79476(4) 0.32543(3) 0.08560(8)
O4_2 O 0.76764(18) 0.34809(16) 0.0188(4)
O6_2 O 0.82090(15) 0.29544(16) 0.1457(3)
N4_2 N 0.78699(19) 0.28448(19) 0.0327(4)
N5_2 N 0.80267(18) 0.25630(18) 0.0634(4)
C23_2 C 0.8191(2) 0.2652(2) 0.1230(6)
C24_2 C 0.8395(3) 0.2392(3) 0.1645(6)
H18_2 H 0.8625 0.2455 0.1639
H19_2 H 0.8370 0.2181 0.1403
H20_2 H 0.8320 0.2376 0.2155
O7_2 O 0.8416(3) 0.3375(2) 0.0237(6)
N6_2 N 0.8983(4) 0.3411(5) 0.0167(12)
C25_2 C 0.8698(5) 0.3310(5) 0.0469(10)
H21_2 H 0.8712 0.3178 0.0895
C27_2 C 0.9311(5) 0.3289(9) 0.052(2)
H25_2 H 0.9493 0.3343 0.0199
H26_2 H 0.9301 0.3054 0.0596
H27_2 H 0.9342 0.3396 0.1001
Mn3_2 Mn 0.78429(4) 0.21050(3) 0.00138(7)
O8_2 O 0.67476(18) 0.29882(17) 0.5411(4)
O9_3 O 0.68391(15) 0.36483(15) 0.3580(3)
O10_3 O 0.75770(17) 0.28697(16) 0.4457(3)
N7_3 N 0.7098(2) 0.32631(19) 0.4276(4)
N8_3 N 0.73740(19) 0.3312(2) 0.3810(4)
C28_2 C 0.6526(3) 0.3214(3) 0.5234(6)
C29_3 C 0.6549(2) 0.3442(2) 0.4620(5)
C30_3 C 0.6298(3) 0.3667(3) 0.4502(6)
H28_3 H 0.6316 0.3813 0.4100
C31_3 C 0.6021(3) 0.3684(3) 0.4959(8)
H29_3 H 0.5854 0.3837 0.4862
C32_2 C 0.5997(3) 0.3467(4) 0.5572(8)
H30_2 H 0.5814 0.3476 0.5888
C33_2 C 0.6241(3) 0.3243(3) 0.5705(7)
H31_2 H 0.6222 0.3103 0.6118
C34_3 C 0.6839(2) 0.3449(2) 0.4132(5)
C35_3 C 0.7611(2) 0.3101(2) 0.3953(5)
C36_3 C 0.7934(3) 0.3113(3) 0.3538(6)
H32_3 H 0.7954 0.3323 0.3287
H33_3 H 0.8113 0.3087 0.3886
H34_3 H 0.7940 0.2938 0.3174
Mn4 Mn 0.77871(3) 0.13637(3) 0.21523(7)
O11_2 O 0.75856(16) 0.09832(15) 0.1803(3)
O12_2 O 0.69639(17) 0.13380(16) 0.3562(4)
O13_3 O 0.79359(15) 0.17721(16) 0.2605(3)
N10_2 N 0.74296(19) 0.14346(18) 0.2874(4)
N11_2 N 0.7453(2) 0.17379(19) 0.3255(4)
C43_2 C 0.7332(2) 0.0809(2) 0.2097(5)
C44_2 C 0.7134(2) 0.0922(2) 0.2700(5)
C45_2 C 0.6879(2) 0.0716(2) 0.2967(5)
H41_2 H 0.6751 0.0786 0.3371
C46_2 C 0.6816(2) 0.0414(2) 0.2644(6)
H42_2 H 0.6644 0.0282 0.2821
C47_2 C 0.7009(3) 0.0308(3) 0.2060(6)
H43_2 H 0.6969 0.0102 0.1842
C48_2 C 0.7266(3) 0.0505(3) 0.1790(6)
H44_2 H 0.7395 0.0429 0.1394
C49_2 C 0.7177(2) 0.1242(2) 0.3064(5)
C50_3 C 0.7725(3) 0.1892(2) 0.3075(6)
C51_3 C 0.7783(3) 0.2231(3) 0.3375(8)
H45_3 H 0.7801 0.2385 0.2965
H46_3 H 0.7602 0.2294 0.3693
H47_3 H 0.7985 0.2234 0.3660
N12 N 0.8094(2) 0.1077(2) 0.2994(5)
Mn5_2 Mn 0.70524(4) 0.17457(3) 0.41440(8)
O14_2 O 0.73236(18) 0.15191(16) 0.4812(4)
O15_2 O 0.72834(18) 0.25094(17) 0.5617(3)
O16_2 O 0.67910(15) 0.20456(16) 0.3543(3)
N13_2 N 0.71301(19) 0.21552(19) 0.4673(4)
N14_2 N 0.69733(18) 0.24370(18) 0.4366(4)
C52 C 0.7480(3) 0.1626(3) 0.5420(7)
C53 C 0.7464(3) 0.1951(3) 0.5697(6)
C54_2 C 0.7618(4) 0.2024(3) 0.6380(7)
H48_2 H 0.7596 0.2236 0.6580
C55_2 C 0.7806(4) 0.1790(5) 0.6770(9)
H49_2 H 0.7913 0.1842 0.7218
C56_2 C 0.7825(4) 0.1469(4) 0.6447(11)
H50_2 H 0.7945 0.1306 0.6696
C57_2 C 0.7678(4) 0.1393(3) 0.5804(9)
H51_2 H 0.7706 0.1182 0.5602
C58 C 0.7288(3) 0.2218(3) 0.5325(6)
C59_2 C 0.6809(2) 0.2348(2) 0.3770(6)
C60_3 C 0.6605(3) 0.2608(3) 0.3355(6)
H52_3 H 0.6375 0.2545 0.3361
H53_3 H 0.6630 0.2819 0.3597
H54_3 H 0.6680 0.2624 0.2845
O17_2 O 0.6584(3) 0.1625(2) 0.4763(6)
N15_2 N 0.6017(4) 0.1589(5) 0.4833(12)
C61_2 C 0.6302(5) 0.1690(5) 0.4531(10)
H55_2 H 0.6288 0.1822 0.4105
C62 C 0.5990(7) 0.1381(5) 0.5381(17)
H56 H 0.6206 0.1300 0.5517
H57 H 0.5891 0.1489 0.5805
H58 H 0.5853 0.1198 0.5229
C63_2 C 0.5689(5) 0.1711(9) 0.448(2)
H59_2 H 0.5507 0.1657 0.4801
H60_2 H 0.5699 0.1946 0.4404
H61_2 H 0.5658 0.1604 0.3999
O19_2 O 0.81609(15) 0.13517(15) 0.1420(3)
O20_2 O 0.74230(17) 0.21303(16) 0.0543(3)
N16_2 N 0.7902(2) 0.17369(19) 0.0724(4)
N17_2 N 0.76260(19) 0.1688(2) 0.1190(4)
C65_2 C 0.8451(2) 0.1558(2) 0.0380(5)
C66_2 C 0.8702(3) 0.1333(3) 0.0498(6)
H62_2 H 0.8684 0.1187 0.0900
C67_2 C 0.8979(3) 0.1316(3) 0.0041(8)
H63_2 H 0.9146 0.1163 0.0138
C70_2 C 0.8161(2) 0.1551(2) 0.0868(5)
C71_2 C 0.7389(2) 0.1899(2) 0.1047(5)
C72_2 C 0.7066(3) 0.1887(3) 0.1462(6)
H66_2 H 0.7046 0.1677 0.1713
H67_2 H 0.6887 0.1913 0.1114
H68_2 H 0.7060 0.2062 0.1826
N18_2 N 0.6906(2) 0.3923(2) 0.2006(5)
Mn7_3 Mn 0.71571(4) 0.28950(3) 0.49862(7)
N19 N 0.8577(2) 0.4406(2) 0.9506(5)
C73_2 C 0.8648(3) 0.4413(3) 0.8773(7)
H69_2 H 0.8809 0.4560 0.8608
C74_2 C 0.8496(4) 0.4215(5) 0.8252(7)
H70_2 H 0.8554 0.4232 0.7748
C75_2 C 0.8259(4) 0.3992(5) 0.8474(7)
C76_2 C 0.8170(4) 0.4000(4) 0.9216(7)
H71_2 H 0.7995 0.3871 0.9388
C77_2 C 0.8342(3) 0.4200(3) 0.9702(6)
C78_2 C 0.8115(5) 0.3732(7) 0.7951(9)
H73_2 H 0.8291 0.3587 0.7780
H74_2 H 0.7955 0.3599 0.8223
N20_2 N 0.7415(3) 0.3202(2) 0.5882(5)
C79_2 C 0.7314(4) 0.3503(3) 0.6072(6)
H75_2 H 0.7116 0.3579 0.5868
C80_2 C 0.7487(5) 0.3715(4) 0.6563(8)
H76_2 H 0.7401 0.3923 0.6679
C81_2 C 0.7775(5) 0.3615(4) 0.6863(9)
C82_2 C 0.7888(4) 0.3306(4) 0.6646(9)
H77_2 H 0.8087 0.3227 0.6838
C83_2 C 0.7709(4) 0.3111(4) 0.6150(7)
H78_2 H 0.7799 0.2909 0.5997
C84_2 C 0.7971(6) 0.3866(5) 0.7373(15)
H79_2 H 0.7818 0.4035 0.7549
H80_2 H 0.8138 0.3976 0.7070
C10_3 C 0.8087(3) 0.1148(3) 0.3727(7)
H8_3 H 0.7940 0.1309 0.3892
C11_3 C 0.8285(5) 0.0996(4) 0.4248(7)
H9_3 H 0.8268 0.1054 0.4752
C12_3 C 0.8508(5) 0.0759(4) 0.4026(7)
C13_3 C 0.8500(4) 0.0670(4) 0.3284(7)
H10_3 H 0.8629 0.0495 0.3112
C14_3 C 0.8300(3) 0.0842(3) 0.2798(6)
H11_2 H 0.8312 0.0787 0.2291
C15_3 C 0.8768(7) 0.0615(5) 0.4549(9)
H12_3 H 0.8913 0.0791 0.4720
H13_3 H 0.8901 0.0455 0.4277
C39_2 C 0.8885(4) 0.0275(5) 0.5637(9)
C40_2 C 0.9194(4) 0.0388(4) 0.5854(9)
H37_2 H 0.9273 0.0587 0.5662
C41_2 C 0.9389(4) 0.0209(4) 0.6350(7)
H38_2 H 0.9591 0.0299 0.6503
C42_2 C 0.8634(5) 0.0471(6) 0.5127(15)
H39_3 H 0.8465 0.0318 0.4951
H40_2 H 0.8524 0.0638 0.5430
C43_3 C 0.8309(2) 0.0168(2) 0.9597(5)
C47_3 C 0.7808(3) 0.0491(3) 0.9560(6)
H43_3 H 0.7602 0.0531 0.9342
C48_3 C 0.8005(3) 0.0234(3) 0.9290(6)
H44_3 H 0.7929 0.0105 0.8894
O20_3 O 0.96303(16) 0.00770(17) 0.8043(3)
C71_3 C 0.9399(2) 0.0111(2) 0.8547(5)
C72_3 C 0.9387(3) 0.0434(3) 0.8962(6)
H66_3 H 0.9177 0.0454 0.9213
H67_3 H 0.9413 0.0613 0.8614
H68_3 H 0.9562 0.0440 0.9326
O2_3 O 0.88380(16) 0.55361(17) 0.8938(4)
O3_3 O 0.92721(16) 0.45641(15) 0.9895(3)
N1_3 N 0.89346(18) 0.50704(19) 0.9626(4)
N2_3 N 0.92379(19) 0.5047(2) 0.9245(4)
C2_3 C 0.8422(2) 0.5366(2) 0.9800(5)
C3_3 C 0.8216(2) 0.5621(2) 0.9533(5)
H1_3 H 0.8286 0.5749 0.9129
C4_3 C 0.7914(2) 0.5684(2) 0.9856(6)
H2_3 H 0.7782 0.5856 0.9679
C7_3 C 0.8742(2) 0.5323(2) 0.9436(5)
C8_3 C 0.9392(2) 0.4775(3) 0.9425(6)
C9_3 C 0.9731(3) 0.4717(3) 0.9125(8)
H5_3 H 0.9885 0.4699 0.9535
H6_3 H 0.9794 0.4898 0.8807
H7_3 H 0.9734 0.4515 0.8840
Mn2_3 Mn 0.92457(3) 0.54476(4) 0.83560(8)
O4_3 O 0.90191(16) 0.51764(18) 0.7688(4)
O6_3 O 0.95456(16) 0.57090(15) 0.8957(3)
N4_3 N 0.96552(19) 0.53699(19) 0.7827(4)
N5_3 N 0.99370(18) 0.55267(18) 0.8134(4)
C16_2 C 0.9126(3) 0.5020(3) 0.7080(7)
C17_2 C 0.9451(3) 0.5036(3) 0.6803(6)
C18_2 C 0.9524(3) 0.4882(4) 0.6120(7)
H14_2 H 0.9736 0.4904 0.5920
C19_2 C 0.9290(5) 0.4694(4) 0.5730(9)
H15_2 H 0.9342 0.4587 0.5282
C20_2 C 0.8969(4) 0.4675(4) 0.6053(11)
H16_2 H 0.8806 0.4555 0.5804
C21_2 C 0.8893(3) 0.4822(4) 0.6696(9)
H17_2 H 0.8682 0.4794 0.6898
C22_2 C 0.9718(3) 0.5212(3) 0.7175(6)
C23_3 C 0.9848(2) 0.5691(2) 0.8730(6)
O7_3 O 0.9125(2) 0.5916(3) 0.7737(6)
N6_3 N 0.9089(5) 0.6483(4) 0.7667(12)
C25_3 C 0.9190(5) 0.6198(5) 0.7969(10)
H21_3 H 0.9322 0.6212 0.8395
C26_2 C 0.8881(5) 0.6510(7) 0.7119(17)
H22_2 H 0.8800 0.6294 0.6983
H23_2 H 0.8989 0.6609 0.6695
H24_2 H 0.8698 0.6647 0.7271
C27_3 C 0.9211(9) 0.6811(5) 0.802(2)
H25_3 H 0.9157 0.6993 0.7699
H26_3 H 0.9446 0.6801 0.8096
H27_3 H 0.9104 0.6842 0.8501
C73_3 C 0.6913(3) 0.3852(3) 0.1273(7)
H69_3 H 0.7060 0.3691 0.1108
C74_3 C 0.6715(5) 0.4004(4) 0.0752(7)
H70_3 H 0.6732 0.3946 0.0248
C75_3 C 0.6492(5) 0.4241(4) 0.0974(7)
C76_3 C 0.6500(4) 0.4330(4) 0.1716(7)
H71_3 H 0.6371 0.4505 0.1888
C77_3 C 0.6700(3) 0.4158(3) 0.2202(6)
H72_3 H 0.6688 0.4213 0.2709
C78_3 C 0.6232(7) 0.4385(5) 0.0451(9)
H73_3 H 0.6087 0.4209 0.0280
H74_3 H 0.6099 0.4545 0.0723
H79_3 H 0.6535 0.4682 0.0049
N3_3 N 0.6423(2) 0.0594(2) 0.5494(5)
C10_4 C 0.6352(3) 0.0587(3) 0.6227(7)
H8_4 H 0.6191 0.0440 0.6392
C11_4 C 0.6504(4) 0.0785(5) 0.6748(7)
H9_4 H 0.6446 0.0768 0.7252
C12_4 C 0.6741(4) 0.1008(5) 0.6526(7)
C13_4 C 0.6830(4) 0.1000(4) 0.5784(7)
H10_4 H 0.7005 0.1129 0.5612
C14_4 C 0.6658(3) 0.0800(3) 0.5298(6)
H11_3 H 0.6713 0.0812 0.4791
C15_4 C 0.6885(5) 0.1268(7) 0.7049(9)
H12_4 H 0.6709 0.1413 0.7220
H13_4 H 0.7045 0.1401 0.6777
O5_2 O 0.77166(18) 0.24906(17) 0.9383(3)
C16_3 C 0.7520(3) 0.3374(3) 0.9580(7)
C17_3 C 0.7536(3) 0.3049(3) 0.9303(6)
C18_3 C 0.7382(4) 0.2976(3) 0.8620(7)
H14_3 H 0.7404 0.2764 0.8420
C19_3 C 0.7194(4) 0.3210(5) 0.8230(9)
H15_3 H 0.7087 0.3158 0.7782
C20_3 C 0.7175(4) 0.3531(4) 0.8553(11)
H16_3 H 0.7055 0.3694 0.8304
C21_3 C 0.7322(4) 0.3607(3) 0.9196(9)
H17_3 H 0.7294 0.3818 0.9398
C22_3 C 0.7712(3) 0.2782(3) 0.9675(6)
C26_3 C 0.9010(7) 0.3619(5) 0.9619(17)
H22_3 H 0.8794 0.3700 0.9483
H23_3 H 0.9109 0.3511 0.9195
H24_3 H 0.9147 0.3802 0.9771
N9_2 N 0.7585(3) 0.1798(2) 0.9118(5)
C37_2 C 0.7686(4) 0.1497(3) 0.8928(6)
H35_2 H 0.7884 0.1421 0.9132
C38_2 C 0.7513(5) 0.1285(4) 0.8437(8)
H36_2 H 0.7599 0.1077 0.8321
C39_3 C 0.7225(5) 0.1385(4) 0.8137(9)
C40_3 C 0.7112(4) 0.1694(4) 0.8354(9)
H37_3 H 0.6913 0.1773 0.8162
C41_3 C 0.7291(4) 0.1889(4) 0.8850(7)
H38_3 H 0.7201 0.2091 0.9003
C42_3 C 0.7029(6) 0.1134(5) 0.7627(15)
H39_4 H 0.7182 0.0965 0.7451
H40_3 H 0.6862 0.1024 0.7930
O18_2 O 0.82524(18) 0.20118(17) 0.9589(4)
C64_2 C 0.8474(3) 0.1786(3) 0.9766(6)
C68_2 C 0.9003(3) 0.1533(4) 0.9428(8)
H64_2 H 0.9186 0.1524 0.9112
C69_2 C 0.8759(3) 0.1757(3) 0.9295(7)
H65_2 H 0.8778 0.1897 0.8882
Mn6_2 Mn 0.61363(3) 0.02871(3) 0.46523(7)
O2_4 O 0.38380(16) 0.05361(17) 0.3938(4)
N1_4 N 0.39346(18) 0.00704(19) 0.4626(4)
N2_4 N 0.42379(19) 0.0047(2) 0.4245(4)
C1_4 C 0.3309(2) 0.0168(2) 0.5403(5)
C2_4 C 0.3422(2) 0.0366(2) 0.4800(5)
C3_4 C 0.3216(2) 0.0621(2) 0.4533(5)
H1_4 H 0.3286 0.0749 0.4129
C4_4 C 0.2914(2) 0.0684(2) 0.4856(6)
H2_4 H 0.2782 0.0856 0.4679
C5_4 C 0.2808(3) 0.0491(3) 0.5440(6)
H3_4 H 0.2602 0.0531 0.5658
C6_4 C 0.3005(3) 0.0234(3) 0.5710(6)
H4_4 H 0.2929 0.0105 0.6106
C7_4 C 0.3742(2) 0.0323(2) 0.4436(5)
Mn2_4 Mn 0.42457(3) 0.04476(4) 0.33560(8)
O4_4 O 0.40191(16) 0.01764(18) 0.2688(4)
O5_3 O 0.50094(17) 0.02166(18) 0.1883(3)
O6_4 O 0.45456(16) 0.07090(15) 0.3957(3)
N4_4 N 0.46552(19) 0.03699(19) 0.2827(4)
N5_4 N 0.49370(18) 0.05267(18) 0.3134(4)
C16_4 C 0.4126(3) 0.0020(3) 0.2080(7)
C17_4 C 0.4451(3) 0.0036(3) 0.1803(6)
C22_4 C 0.4718(3) 0.0212(3) 0.2175(6)
C23_4 C 0.4848(2) 0.0691(2) 0.3730(6)
C24_3 C 0.5108(3) 0.0895(3) 0.4145(6)
H18_3 H 0.5045 0.1125 0.4139
H19_3 H 0.5319 0.0870 0.3903
H20_3 H 0.5124 0.0820 0.4655
O7_4 O 0.4125(2) 0.0916(3) 0.2737(6)
N6_4 N 0.4089(5) 0.1483(4) 0.2667(12)
C25_4 C 0.4190(5) 0.1198(5) 0.2969(10)
H21_4 H 0.4322 0.1212 0.3395
C26_4 C 0.3881(5) 0.1510(7) 0.2119(17)
H22_4 H 0.3800 0.1294 0.1983
H23_4 H 0.3989 0.1609 0.1695
H24_4 H 0.3698 0.1647 0.2271
C27_4 C 0.4211(9) 0.1811(5) 0.302(2)
H25_4 H 0.4157 0.1993 0.2699
H26_4 H 0.4446 0.1801 0.3096
H27_4 H 0.4104 0.1842 0.3501
Mn3_3 Mn 0.53950(3) 0.03429(4) 0.25138(7)
O10_4 O 0.46303(16) 0.00770(17) 0.6957(3)
C35_4 C 0.4399(2) 0.0111(2) 0.6453(5)
C36_4 C 0.4387(3) 0.0434(3) 0.6038(6)
H32_4 H 0.4177 0.0454 0.5787
H33_4 H 0.4413 0.0613 0.6386
H34_4 H 0.4562 0.0440 0.5674
N9_3 N 0.5702(2) 0.0085(3) 0.1618(5)
C37_3 C 0.6003(3) 0.0186(4) 0.1428(6)
H35_3 H 0.6079 0.0384 0.1632
C38_3 C 0.6215(4) 0.0013(5) 0.0937(8)
H36_3 H 0.6423 0.0099 0.0821
O11_3 O 0.65168(15) 0.00856(16) 0.4303(3)
O13_4 O 0.57279(16) 0.04359(15) 0.5105(3)
C50_4 C 0.5608(2) 0.0225(3) 0.5575(6)
C51_4 C 0.5269(3) 0.0283(3) 0.5875(8)
H45_4 H 0.5115 0.0301 0.5465
H46_4 H 0.5206 0.0102 0.6193
H47_4 H 0.5266 0.0485 0.6160
C54_3 C 0.5476(3) 0.0118(4) 0.8880(7)
H48_3 H 0.5264 0.0096 0.9080
C55_3 C 0.5710(5) 0.0306(4) 0.9270(9)
H49_3 H 0.5658 0.0413 0.9718
C56_3 C 0.6031(4) 0.0325(4) 0.8947(11)
H50_3 H 0.6194 0.0445 0.9196
C57_3 C 0.6107(3) 0.0178(4) 0.8304(9)
H51_3 H 0.6318 0.0206 0.8102
O18_3 O 0.54882(17) 0.07524(18) 0.2089(4)
O19_3 O 0.61483(15) 0.06609(15) 0.3920(3)
N16_3 N 0.57631(19) 0.0402(2) 0.3224(4)
N17_3 N 0.5812(2) 0.01260(19) 0.3690(4)
C64_3 C 0.5714(3) 0.0974(3) 0.2266(6)
C65_3 C 0.5942(2) 0.0951(2) 0.2880(5)
C66_3 C 0.6167(3) 0.1202(3) 0.2998(6)
H62_3 H 0.6313 0.1184 0.3400
C67_3 C 0.6184(3) 0.1479(3) 0.2541(8)
H63_3 H 0.6337 0.1646 0.2638
C68_3 C 0.5967(4) 0.1503(3) 0.1928(8)
H64_3 H 0.5976 0.1686 0.1612
C69_3 C 0.5743(3) 0.1259(3) 0.1795(7)
H65_3 H 0.5603 0.1278 0.1382
C70_3 C 0.5949(2) 0.0661(2) 0.3368(5)
C81_3 C 0.3885(4) 0.0275(5) 0.9363(9)
C82_3 C 0.4194(4) 0.0388(4) 0.9146(9)
H77_3 H 0.4273 0.0587 0.9338
C83_3 C 0.4389(4) 0.0209(4) 0.8650(7)
H78_3 H 0.4591 0.0299 0.8497
C84_3 C 0.3634(5) 0.0471(6) 0.9873(15)
H80_3 H 0.3524 0.0638 0.9570
Mn8_2 Mn 0.27871(3) 0.13637(3) 0.28477(7)
N19_2 N 0.3094(2) 0.1077(2) 0.2006(5)
C73_4 C 0.3087(3) 0.1148(3) 0.1273(7)
H69_4 H 0.2940 0.1309 0.1108
C74_4 C 0.3285(5) 0.0996(4) 0.0752(7)
H70_4 H 0.3268 0.1054 0.0248
C75_4 C 0.3508(5) 0.0759(4) 0.0974(7)
C76_4 C 0.3500(4) 0.0670(4) 0.1716(7)
H71_4 H 0.3629 0.0495 0.1888
C77_4 C 0.3300(3) 0.0842(3) 0.2202(6)
H72_4 H 0.3312 0.0787 0.2709
C78_4 C 0.3768(7) 0.0615(5) 0.0451(9)
H73_4 H 0.3913 0.0791 0.0280
H74_4 H 0.3901 0.0455 0.0723
H79_4 H 0.3465 0.0318 0.0049
O3_4 O 0.07279(16) 0.04359(15) 0.9895(3)
C8_4 C 0.0608(2) 0.0225(3) 0.9425(6)
C9_4 C 0.0269(3) 0.0283(3) 0.9125(8)
H5_4 H 0.0115 0.0301 0.9535
H6_4 H 0.0206 0.0102 0.8807
H7_4 H 0.0266 0.0485 0.8840
C18_4 C 0.0476(3) 0.0118(4) 0.6120(7)
H14_4 H 0.0264 0.0096 0.5920
C19_4 C 0.0710(5) 0.0306(4) 0.5730(9)
H15_4 H 0.0658 0.0413 0.5282
C20_4 C 0.1031(4) 0.0325(4) 0.6053(11)
H16_4 H 0.1194 0.0445 0.5804
C21_4 C 0.1107(3) 0.0178(4) 0.6696(9)
H17_4 H 0.1318 0.0206 0.6898
N18_3 N 0.1423(2) 0.0594(2) 0.9506(5)
H11_4 H 0.1713 0.5812 0.9791
Mn6_3 Mn 0.11363(3) 0.52871(3) 0.96523(7)
N3_4 N 0.1906(2) 0.3923(2) 0.2994(5)
C10_5 C 0.1913(3) 0.3852(3) 0.3727(7)
H8_5 H 0.2060 0.3691 0.3892
C11_5 C 0.1715(5) 0.4004(4) 0.4248(7)
H9_5 H 0.1732 0.3946 0.4752
C12_5 C 0.1492(5) 0.4241(4) 0.4026(7)
C13_5 C 0.1500(4) 0.4330(4) 0.3284(7)
H10_5 H 0.1371 0.4505 0.3112
C14_5 C 0.1700(3) 0.4158(3) 0.2798(6)
H11_5 H 0.1688 0.4213 0.2291
C15_5 C 0.1232(7) 0.4385(5) 0.4549(9)
H12_5 H 0.1087 0.4209 0.4720
H13_5 H 0.1099 0.4545 0.4277
O5_4 O 0.00094(17) 0.52166(18) 0.6883(3)
C24_4 C 0.0108(3) 0.5895(3) 0.9145(6)
H18_4 H 0.0045 0.6125 0.9139
H19_4 H 0.0319 0.5870 0.8903
H20_4 H 0.0124 0.5820 0.9655
Mn3_4 Mn 0.03950(3) 0.53429(4) 0.75138(7)
N9_4 N 0.0702(2) 0.5085(3) 0.6618(5)
C37_4 C 0.1003(3) 0.5186(4) 0.6428(6)
H35_4 H 0.1079 0.5384 0.6632
C38_4 C 0.1215(4) 0.5013(5) 0.5937(8)
H36_4 H 0.1423 0.5099 0.5821
C39_4 C 0.1115(4) 0.4725(5) 0.5637(9)
C40_4 C 0.0806(4) 0.4612(4) 0.5854(9)
H37_4 H 0.0727 0.4413 0.5662
C41_4 C 0.0611(4) 0.4791(4) 0.6350(7)
H38_4 H 0.0409 0.4701 0.6503
C42_4 C 0.1366(5) 0.4529(6) 0.5127(15)
H39_5 H 0.1535 0.4682 0.4951
H40_4 H 0.1476 0.4362 0.5430
O11_4 O 0.15168(15) 0.50856(16) 0.9303(3)
C43_4 C 0.1691(2) 0.4832(2) 0.9597(5)
C47_4 C 0.2192(3) 0.4509(3) 0.9560(6)
H43_4 H 0.2398 0.4469 0.9342
C48_4 C 0.1995(3) 0.4766(3) 0.9290(6)
H44_4 H 0.2071 0.4895 0.8894
O18_4 O 0.04882(17) 0.57524(18) 0.7089(4)
O19_4 O 0.11483(15) 0.56609(15) 0.8920(3)
O20_4 O 0.03697(16) 0.49230(17) 0.8043(3)
N16_4 N 0.07631(19) 0.5402(2) 0.8224(4)
N17_4 N 0.0812(2) 0.51260(19) 0.8690(4)
C64_4 C 0.0714(3) 0.5974(3) 0.7266(6)
C65_4 C 0.0942(2) 0.5951(2) 0.7880(5)
C66_4 C 0.1167(3) 0.6202(3) 0.7998(6)
H62_4 H 0.1313 0.6184 0.8400
C67_4 C 0.1184(3) 0.6479(3) 0.7541(8)
H63_4 H 0.1337 0.6646 0.7638
C68_4 C 0.0967(4) 0.6503(3) 0.6928(8)
H64_4 H 0.0976 0.6686 0.6612
C69_4 C 0.0743(3) 0.6259(3) 0.6795(7)
H65_4 H 0.0603 0.6278 0.6382
C70_4 C 0.0949(2) 0.5661(2) 0.8368(5)
C71_4 C 0.0601(2) 0.4889(2) 0.8547(5)
C72_4 C 0.0613(3) 0.4566(3) 0.8962(6)
H66_4 H 0.0823 0.4546 0.9213
H67_4 H 0.0587 0.4387 0.8614
H68_4 H 0.0438 0.4560 0.9326
Mn6_4 Mn 0.22129(3) 0.36363(3) 0.21523(7)
O1_4 O 0.25856(16) 0.09832(15) 0.3197(3)
O2_5 O 0.19639(17) 0.13380(16) 0.1438(4)
O3_5 O 0.29359(15) 0.17721(16) 0.2395(3)
N1_5 N 0.24296(19) 0.14346(18) 0.2126(4)
N2_5 N 0.2453(2) 0.17379(19) 0.1745(4)
C1_5 C 0.2332(2) 0.0809(2) 0.2903(5)
C2_5 C 0.2134(2) 0.0922(2) 0.2300(5)
C3_5 C 0.1879(2) 0.0716(2) 0.2033(5)
H1_5 H 0.1751 0.0786 0.1629
C4_5 C 0.1816(2) 0.0414(2) 0.2356(6)
H2_5 H 0.1644 0.0282 0.2179
C5_5 C 0.2009(3) 0.0308(3) 0.2940(6)
H3_5 H 0.1969 0.0102 0.3158
C6_5 C 0.2266(3) 0.0505(3) 0.3210(6)
H4_5 H 0.2395 0.0429 0.3606
C7_5 C 0.2177(2) 0.1242(2) 0.1936(5)
C8_5 C 0.2725(3) 0.1892(2) 0.1925(6)
C9_5 C 0.2783(3) 0.2231(3) 0.1625(8)
H5_5 H 0.2801 0.2385 0.2035
H6_5 H 0.2602 0.2294 0.1307
H7_5 H 0.2985 0.2234 0.1340
Mn2_5 Mn 0.20524(4) 0.17457(3) 0.08560(8)
O4_5 O 0.23236(18) 0.15191(16) 0.0188(4)
O6_5 O 0.17910(15) 0.20456(16) 0.1457(3)
N4_5 N 0.21301(19) 0.21552(19) 0.0327(4)
N5_5 N 0.19733(18) 0.24370(18) 0.0634(4)
C23_5 C 0.1809(2) 0.2348(2) 0.1230(6)
C24_5 C 0.1605(3) 0.2608(3) 0.1645(6)
H18_5 H 0.1375 0.2545 0.1639
H19_5 H 0.1630 0.2819 0.1403
H20_5 H 0.1680 0.2624 0.2155
O7_5 O 0.1584(3) 0.1625(2) 0.0237(6)
N6_5 N 0.1017(4) 0.1589(5) 0.0167(12)
C25_5 C 0.1302(5) 0.1690(5) 0.0469(10)
H21_5 H 0.1288 0.1822 0.0895
C27_5 C 0.0689(5) 0.1711(9) 0.052(2)
H25_5 H 0.0507 0.1657 0.0199
H26_5 H 0.0699 0.1946 0.0596
H27_5 H 0.0658 0.1604 0.1001
Mn3_5 Mn 0.21571(4) 0.28950(3) 0.00138(7)
O8_3 O 0.32524(18) 0.20118(17) 0.5411(4)
O9_4 O 0.31609(15) 0.13517(15) 0.3580(3)
O10_5 O 0.24230(17) 0.21303(16) 0.4457(3)
N7_4 N 0.2902(2) 0.17369(19) 0.4276(4)
N8_4 N 0.26260(19) 0.1688(2) 0.3810(4)
C28_3 C 0.3474(3) 0.1786(3) 0.5234(6)
C29_4 C 0.3451(2) 0.1558(2) 0.4620(5)
C30_4 C 0.3702(3) 0.1333(3) 0.4502(6)
H28_4 H 0.3684 0.1187 0.4100
C31_4 C 0.3979(3) 0.1316(3) 0.4959(8)
H29_4 H 0.4146 0.1163 0.4862
C32_3 C 0.4003(3) 0.1533(4) 0.5572(8)
H30_3 H 0.4186 0.1524 0.5888
C33_3 C 0.3759(3) 0.1757(3) 0.5705(7)
H31_3 H 0.3778 0.1897 0.6118
C34_4 C 0.3161(2) 0.1551(2) 0.4132(5)
C35_5 C 0.2389(2) 0.1899(2) 0.3953(5)
C36_5 C 0.2066(3) 0.1887(3) 0.3538(6)
H32_5 H 0.2046 0.1677 0.3287
H33_5 H 0.1887 0.1913 0.3886
H34_5 H 0.2060 0.2062 0.3174
O11_5 O 0.24144(16) 0.40168(15) 0.1803(3)
O12_3 O 0.30361(17) 0.36620(16) 0.3562(4)
O13_5 O 0.20641(15) 0.32279(16) 0.2605(3)
N10_3 N 0.25704(19) 0.35654(18) 0.2874(4)
N11_3 N 0.2547(2) 0.32621(19) 0.3255(4)
C43_5 C 0.2668(2) 0.4191(2) 0.2097(5)
C44_3 C 0.2866(2) 0.4078(2) 0.2700(5)
C45_3 C 0.3121(2) 0.4284(2) 0.2967(5)
H41_3 H 0.3249 0.4214 0.3371
C46_3 C 0.3184(2) 0.4586(2) 0.2644(6)
H42_3 H 0.3356 0.4718 0.2821
C47_5 C 0.2991(3) 0.4692(3) 0.2060(6)
H43_5 H 0.3031 0.4898 0.1842
C48_5 C 0.2734(3) 0.4495(3) 0.1790(6)
H44_5 H 0.2605 0.4571 0.1394
C49_3 C 0.2823(2) 0.3758(2) 0.3064(5)
C50_5 C 0.2275(3) 0.3108(2) 0.3075(6)
C51_5 C 0.2217(3) 0.2769(3) 0.3375(8)
H45_5 H 0.2199 0.2615 0.2965
H46_5 H 0.2398 0.2706 0.3693
H47_5 H 0.2015 0.2766 0.3660
Mn5_3 Mn 0.29476(4) 0.32543(3) 0.41440(8)
O14_3 O 0.26764(18) 0.34809(16) 0.4812(4)
O15_3 O 0.27166(18) 0.24906(17) 0.5617(3)
O16_3 O 0.32090(15) 0.29544(16) 0.3543(3)
N13_3 N 0.28699(19) 0.28448(19) 0.4673(4)
N14_3 N 0.30267(18) 0.25630(18) 0.4366(4)
C52_2 C 0.2520(3) 0.3374(3) 0.5420(7)
C53_2 C 0.2536(3) 0.3049(3) 0.5697(6)
C54_4 C 0.2382(4) 0.2976(3) 0.6380(7)
H48_4 H 0.2404 0.2764 0.6580
C55_4 C 0.2194(4) 0.3210(5) 0.6770(9)
H49_4 H 0.2087 0.3158 0.7218
C56_4 C 0.2175(4) 0.3531(4) 0.6447(11)
H50_4 H 0.2055 0.3694 0.6696
C57_4 C 0.2322(4) 0.3607(3) 0.5804(9)
H51_4 H 0.2294 0.3818 0.5602
C58_2 C 0.2712(3) 0.2782(3) 0.5325(6)
C59_3 C 0.3191(2) 0.2652(2) 0.3770(6)
C60_4 C 0.3395(3) 0.2392(3) 0.3355(6)
H52_4 H 0.3625 0.2455 0.3361
H53_4 H 0.3370 0.2181 0.3597
H54_4 H 0.3320 0.2376 0.2845
O17_3 O 0.3416(3) 0.3375(2) 0.4763(6)
N15_3 N 0.3983(4) 0.3411(5) 0.4833(12)
C61_3 C 0.3698(5) 0.3310(5) 0.4531(10)
H55_3 H 0.3712 0.3178 0.4105
C62_2 C 0.4010(7) 0.3619(5) 0.5381(17)
H56_2 H 0.3794 0.3700 0.5517
H57_2 H 0.4109 0.3511 0.5805
H58_2 H 0.4147 0.3802 0.5229
C63_3 C 0.4311(5) 0.3289(9) 0.448(2)
H59_3 H 0.4493 0.3343 0.4801
H60_3 H 0.4301 0.3054 0.4404
H61_3 H 0.4342 0.3396 0.3999
O19_5 O 0.18391(15) 0.36483(15) 0.1420(3)
O20_5 O 0.25770(17) 0.28697(16) 0.0543(3)
N16_5 N 0.2098(2) 0.32631(19) 0.0724(4)
N17_5 N 0.23740(19) 0.3312(2) 0.1190(4)
C65_5 C 0.1549(2) 0.3442(2) 0.0380(5)
C66_5 C 0.1298(3) 0.3667(3) 0.0498(6)
H62_5 H 0.1316 0.3813 0.0900
C67_5 C 0.1021(3) 0.3684(3) 0.0041(8)
H63_5 H 0.0854 0.3837 0.0138
C70_5 C 0.1839(2) 0.3449(2) 0.0868(5)
C71_5 C 0.2611(2) 0.3101(2) 0.1047(5)
C72_5 C 0.2934(3) 0.3113(3) 0.1462(6)
H66_5 H 0.2954 0.3323 0.1713
H67_5 H 0.3113 0.3087 0.1114
H68_5 H 0.2940 0.2938 0.1826
Mn7_4 Mn 0.28429(4) 0.21050(3) 0.49862(7)
C73_5 C 0.1352(3) 0.0587(3) 0.8773(7)
H69_5 H 0.1191 0.0440 0.8608
C74_5 C 0.1504(4) 0.0785(5) 0.8252(7)
H70_5 H 0.1446 0.0768 0.7748
C75_5 C 0.1741(4) 0.1008(5) 0.8474(7)
C76_5 C 0.1830(4) 0.1000(4) 0.9216(7)
H71_5 H 0.2005 0.1129 0.9388
C77_5 C 0.1658(3) 0.0800(3) 0.9702(6)
C78_5 C 0.1885(5) 0.1268(7) 0.7951(9)
H73_5 H 0.1709 0.1413 0.7780
H74_5 H 0.2045 0.1401 0.8223
N20_3 N 0.2585(3) 0.1798(2) 0.5882(5)
C79_3 C 0.2686(4) 0.1497(3) 0.6072(6)
H75_3 H 0.2884 0.1421 0.5868
C80_3 C 0.2513(5) 0.1285(4) 0.6563(8)
H76_3 H 0.2599 0.1077 0.6679
C81_4 C 0.2225(5) 0.1385(4) 0.6863(9)
C82_4 C 0.2112(4) 0.1694(4) 0.6646(9)
H77_4 H 0.1913 0.1773 0.6838
C83_4 C 0.2291(4) 0.1889(4) 0.6150(7)
H78_4 H 0.2201 0.2091 0.5997
C84_4 C 0.2029(6) 0.1134(5) 0.7373(15)
H79_5 H 0.2182 0.0965 0.7549
H80_4 H 0.1862 0.1024 0.7070
Mn1_3 Mn 0.38637(3) 0.97129(3) 0.53477(7)
O1_5 O 0.34832(15) 0.99144(16) 0.5697(3)
O3_6 O 0.42721(16) 0.95641(15) 0.4895(3)
C8_6 C 0.4392(2) 0.9775(3) 0.4425(6)
C9_6 C 0.4731(3) 0.9717(3) 0.4125(8)
H5_6 H 0.4885 0.9699 0.4535
H6_6 H 0.4794 0.9898 0.3807
H7_6 H 0.4734 0.9515 0.3840
C18_5 C 0.4524(3) 0.9882(4) 0.1120(7)
H14_5 H 0.4736 0.9904 0.0920
C19_5 C 0.4290(5) 0.9694(4) 0.0730(9)
H15_5 H 0.4342 0.9587 0.0282
C20_5 C 0.3969(4) 0.9675(4) 0.1053(11)
H16_5 H 0.3806 0.9555 0.0804
C21_5 C 0.3893(3) 0.9822(4) 0.1696(9)
H17_5 H 0.3682 0.9794 0.1898
O8_4 O 0.45118(17) 0.92476(18) 0.7911(4)
O9_5 O 0.38517(15) 0.93391(15) 0.6080(3)
N7_5 N 0.42369(19) 0.9598(2) 0.6776(4)
N8_5 N 0.4188(2) 0.98740(19) 0.6310(4)
C28_4 C 0.4286(3) 0.9026(3) 0.7734(6)
C29_5 C 0.4058(2) 0.9049(2) 0.7120(5)
C30_5 C 0.3833(3) 0.8798(3) 0.7002(6)
H28_5 H 0.3687 0.8816 0.6600
C31_5 C 0.3816(3) 0.8521(3) 0.7459(8)
H29_5 H 0.3663 0.8354 0.7362
C32_4 C 0.4033(4) 0.8497(3) 0.8072(8)
H30_4 H 0.4024 0.8314 0.8388
C33_4 C 0.4257(3) 0.8741(3) 0.8205(7)
H31_4 H 0.4397 0.8722 0.8618
C34_5 C 0.4051(2) 0.9339(2) 0.6632(5)
C39_5 C 0.6115(4) 0.9725(5) 0.0637(9)
C40_5 C 0.5806(4) 0.9612(4) 0.0854(9)
H37_5 H 0.5727 0.9413 0.0662
C41_5 C 0.5611(4) 0.9791(4) 0.1350(7)
H38_5 H 0.5409 0.9701 0.1503
C42_5 C 0.6366(5) 0.9529(6) 0.0127(15)
H40_5 H 0.6476 0.9362 0.0430
O12_4 O 0.61620(16) 0.94639(17) 0.6062(4)
N10_4 N 0.60654(18) 0.99296(19) 0.5374(4)
N11_4 N 0.57621(19) 0.9953(2) 0.5755(4)
C43_6 C 0.6691(2) 0.9832(2) 0.4597(5)
C44_4 C 0.6578(2) 0.9634(2) 0.5200(5)
C45_4 C 0.6784(2) 0.9379(2) 0.5467(5)
H41_4 H 0.6714 0.9251 0.5871
C46_4 C 0.7086(2) 0.9316(2) 0.5144(6)
H42_4 H 0.7218 0.9144 0.5321
C47_6 C 0.7192(3) 0.9509(3) 0.4560(6)
H43_6 H 0.7398 0.9469 0.4342
C48_6 C 0.6995(3) 0.9766(3) 0.4290(6)
H44_6 H 0.7071 0.9895 0.3894
C49_4 C 0.6258(2) 0.9677(2) 0.5564(5)
Mn5_4 Mn 0.57543(3) 0.95524(4) 0.66440(8)
O14_4 O 0.59809(16) 0.98236(18) 0.7312(4)
O15_4 O 0.49906(17) 0.97834(18) 0.8117(3)
O16_4 O 0.54544(16) 0.92910(15) 0.6043(3)
N13_4 N 0.53448(19) 0.96301(19) 0.7173(4)
N14_4 N 0.50630(18) 0.94733(18) 0.6866(4)
C52_3 C 0.5874(3) 0.9980(3) 0.7920(7)
C53_3 C 0.5549(3) 0.9964(3) 0.8197(6)
C58_3 C 0.5282(3) 0.9788(3) 0.7825(6)
C59_4 C 0.5152(2) 0.9309(2) 0.6270(6)
C60_5 C 0.4892(3) 0.9105(3) 0.5855(6)
H52_5 H 0.4955 0.8875 0.5861
H53_5 H 0.4681 0.9130 0.6097
H54_5 H 0.4876 0.9180 0.5345
O17_4 O 0.5875(2) 0.9084(3) 0.7263(6)
N15_4 N 0.5911(5) 0.8517(4) 0.7333(12)
C61_4 C 0.5810(5) 0.8802(5) 0.7031(10)
H55_4 H 0.5678 0.8788 0.6605
C62_3 C 0.6119(5) 0.8490(7) 0.7881(17)
H56_3 H 0.6200 0.8706 0.8017
H57_3 H 0.6011 0.8391 0.8305
H58_3 H 0.6302 0.8353 0.7729
C63_4 C 0.5789(9) 0.8189(5) 0.698(2)
H59_4 H 0.5843 0.8007 0.7301
H60_4 H 0.5554 0.8199 0.6904
H61_4 H 0.5896 0.8158 0.6499
O20_6 O 0.53697(16) 0.99230(17) 0.3043(3)
C71_6 C 0.5601(2) 0.9889(2) 0.3547(5)
C72_6 C 0.5613(3) 0.9566(3) 0.3962(6)
H66_6 H 0.5823 0.9546 0.4213
H67_6 H 0.5587 0.9387 0.3614
H68_6 H 0.5438 0.9560 0.4326
N18_4 N 0.3577(2) 0.9406(2) 0.4506(5)
Mn7_5 Mn 0.46050(3) 0.96571(4) 0.74862(7)
N20_4 N 0.4298(2) 0.9915(3) 0.8382(5)
C79_4 C 0.3997(3) 0.9814(4) 0.8572(6)
H75_4 H 0.3921 0.9616 0.8368
C80_4 C 0.3785(4) 0.9987(5) 0.9063(8)
H76_4 H 0.3577 0.9901 0.9179
O8_5 O 0.17476(18) 0.79882(17) 0.0411(4)
C28_5 C 0.1526(3) 0.8214(3) 0.0234(6)
C32_5 C 0.0997(3) 0.8467(4) 0.0572(8)
H30_5 H 0.0814 0.8476 0.0888
C33_5 C 0.1241(3) 0.8243(3) 0.0705(7)
H31_5 H 0.1222 0.8103 0.1118
O15_5 O 0.22834(18) 0.75094(17) 0.0617(3)
C52_4 C 0.2480(3) 0.6626(3) 0.0420(7)
C53_4 C 0.2464(3) 0.6951(3) 0.0697(6)
C54_5 C 0.2618(4) 0.7024(3) 0.1380(7)
H48_5 H 0.2596 0.7236 0.1580
C55_5 C 0.2806(4) 0.6790(5) 0.1770(9)
H49_5 H 0.2913 0.6842 0.2218
C56_5 C 0.2825(4) 0.6469(4) 0.1447(11)
H50_5 H 0.2945 0.6306 0.1696
C57_5 C 0.2678(4) 0.6393(3) 0.0804(9)
H51_5 H 0.2706 0.6182 0.0602
C58_4 C 0.2288(3) 0.7218(3) 0.0325(6)
C62_4 C 0.0990(7) 0.6381(5) 0.0381(17)
H56_4 H 0.1206 0.6300 0.0517
H57_4 H 0.0891 0.6489 0.0805
H58_4 H 0.0853 0.6198 0.0229
C73_6 C 0.3648(3) 0.9413(3) 0.3773(7)
H69_6 H 0.3809 0.9560 0.3608
C74_6 C 0.3496(4) 0.9215(5) 0.3252(7)
H70_6 H 0.3554 0.9232 0.2748
C75_6 C 0.3259(4) 0.8992(5) 0.3474(7)
C76_6 C 0.3170(4) 0.9000(4) 0.4216(7)
H71_6 H 0.2995 0.8871 0.4388
C77_6 C 0.3342(3) 0.9200(3) 0.4702(6)
H72_5 H 0.3287 0.9188 0.5209
C78_6 C 0.3115(5) 0.8732(7) 0.2951(9)
H73_6 H 0.3291 0.8587 0.2780
H74_6 H 0.2955 0.8599 0.3223
N20_5 N 0.2415(3) 0.8202(2) 0.0882(5)
C79_5 C 0.2314(4) 0.8503(3) 0.1072(6)
H75_5 H 0.2116 0.8579 0.0868
C80_5 C 0.2487(5) 0.8715(4) 0.1563(8)
H76_5 H 0.2401 0.8923 0.1679
C81_5 C 0.2775(5) 0.8615(4) 0.1863(9)
C82_5 C 0.2888(4) 0.8306(4) 0.1646(9)
H77_5 H 0.3087 0.8227 0.1838
C83_5 C 0.2709(4) 0.8111(4) 0.1150(7)
H78_5 H 0.2799 0.7909 0.0997
C84_5 C 0.2971(6) 0.8866(5) 0.2373(15)
H79_6 H 0.2818 0.9035 0.2549
H80_5 H 0.3138 0.8976 0.2070
O8_6 O 0.82524(18) 0.70118(17) 0.0411(4)
C28_6 C 0.8474(3) 0.6786(3) 0.0234(6)
C32_6 C 0.9003(3) 0.6533(4) 0.0572(8)
H30_6 H 0.9186 0.6524 0.0888
C33_6 C 0.8759(3) 0.6757(3) 0.0705(7)
H31_6 H 0.8778 0.6897 0.1118
O15_6 O 0.77166(18) 0.74906(17) 0.0617(3)
C52_5 C 0.7520(3) 0.8374(3) 0.0420(7)
C53_5 C 0.7536(3) 0.8049(3) 0.0697(6)
C54_6 C 0.7382(4) 0.7976(3) 0.1380(7)
H48_6 H 0.7404 0.7764 0.1580
C55_6 C 0.7194(4) 0.8210(5) 0.1770(9)
H49_6 H 0.7087 0.8158 0.2218
C56_6 C 0.7175(4) 0.8531(4) 0.1447(11)
H50_6 H 0.7055 0.8694 0.1696
C57_6 C 0.7322(4) 0.8607(3) 0.0804(9)
H51_6 H 0.7294 0.8818 0.0602
C58_5 C 0.7712(3) 0.7782(3) 0.0325(6)
C62_5 C 0.9010(7) 0.8619(5) 0.0381(17)
H56_5 H 0.8794 0.8700 0.0517
H57_5 H 0.9109 0.8511 0.0805
H58_5 H 0.9147 0.8802 0.0229
Mn8_3 Mn 0.61363(3) 0.52871(3) 0.53477(7)
N19_3 N 0.6423(2) 0.5594(2) 0.4506(5)
C73_7 C 0.6352(3) 0.5587(3) 0.3773(7)
H69_7 H 0.6191 0.5440 0.3608
C74_7 C 0.6504(4) 0.5785(5) 0.3252(7)
H70_7 H 0.6446 0.5768 0.2748
C75_7 C 0.6741(4) 0.6008(5) 0.3474(7)
C76_7 C 0.6830(4) 0.6000(4) 0.4216(7)
H71_7 H 0.7005 0.6129 0.4388
C77_7 C 0.6658(3) 0.5800(3) 0.4702(6)
H72_6 H 0.6713 0.5812 0.5209
C78_7 C 0.6885(5) 0.6268(7) 0.2951(9)
H73_7 H 0.6709 0.6413 0.2780
H74_7 H 0.7045 0.6401 0.3223
N20_6 N 0.7585(3) 0.6798(2) 0.0882(5)
C79_6 C 0.7686(4) 0.6497(3) 0.1072(6)
H75_6 H 0.7884 0.6421 0.0868
C80_6 C 0.7513(5) 0.6285(4) 0.1563(8)
H76_6 H 0.7599 0.6077 0.1679
C81_6 C 0.7225(5) 0.6385(4) 0.1863(9)
C82_6 C 0.7112(4) 0.6694(4) 0.1646(9)
H77_6 H 0.6913 0.6773 0.1838
C83_6 C 0.7291(4) 0.6889(4) 0.1150(7)
H78_6 H 0.7201 0.7091 0.0997
C84_6 C 0.7029(6) 0.6134(5) 0.2373(15)
H79_7 H 0.7182 0.5965 0.2549
H80_6 H 0.6862 0.6024 0.2070
N3_5 N 0.3577(2) 0.4406(2) 0.5494(5)
C10_6 C 0.3648(3) 0.4413(3) 0.6227(7)
H8_6 H 0.3809 0.4560 0.6392
C11_6 C 0.3496(4) 0.4215(5) 0.6748(7)
H9_6 H 0.3554 0.4232 0.7252
C12_6 C 0.3259(4) 0.3992(5) 0.6526(7)
C13_6 C 0.3170(4) 0.4000(4) 0.5784(7)
H10_6 H 0.2995 0.3871 0.5612
C14_6 C 0.3342(3) 0.4200(3) 0.5298(6)
H11_6 H 0.3287 0.4188 0.4791
C15_6 C 0.3115(5) 0.3732(7) 0.7049(9)
H12_6 H 0.3291 0.3587 0.7220
H13_6 H 0.2955 0.3599 0.6777
O5_5 O 0.22834(18) 0.25094(17) 0.9383(3)
C16_5 C 0.2480(3) 0.1626(3) 0.9580(7)
C17_5 C 0.2464(3) 0.1951(3) 0.9303(6)
C18_6 C 0.2618(4) 0.2024(3) 0.8620(7)
H14_6 H 0.2596 0.2236 0.8420
C19_6 C 0.2806(4) 0.1790(5) 0.8230(9)
H15_6 H 0.2913 0.1842 0.7782
C20_6 C 0.2825(4) 0.1469(4) 0.8553(11)
H16_6 H 0.2945 0.1306 0.8304
C21_6 C 0.2678(4) 0.1393(3) 0.9196(9)
H17_6 H 0.2706 0.1182 0.9398
C22_5 C 0.2288(3) 0.2218(3) 0.9675(6)
C26_5 C 0.0990(7) 0.1381(5) 0.9619(17)
H22_5 H 0.1206 0.1300 0.9483
H23_5 H 0.0891 0.1489 0.9195
H24_5 H 0.0853 0.1198 0.9771
N9_5 N 0.2415(3) 0.3202(2) 0.9118(5)
C37_5 C 0.2314(4) 0.3503(3) 0.8928(6)
H35_5 H 0.2116 0.3579 0.9132
C38_5 C 0.2487(5) 0.3715(4) 0.8437(8)
H36_5 H 0.2401 0.3923 0.8321
C39_6 C 0.2775(5) 0.3615(4) 0.8137(9)
C40_6 C 0.2888(4) 0.3306(4) 0.8354(9)
H37_6 H 0.3087 0.3227 0.8162
C41_6 C 0.2709(4) 0.3111(4) 0.8850(7)
H38_6 H 0.2799 0.2909 0.9003
C42_6 C 0.2971(6) 0.3866(5) 0.7627(15)
H39_6 H 0.2818 0.4035 0.7451
H40_6 H 0.3138 0.3976 0.7930
O18_5 O 0.17476(18) 0.29882(17) 0.9589(4)
C64_5 C 0.1526(3) 0.3214(3) 0.9766(6)
C68_5 C 0.0997(3) 0.3467(4) 0.9428(8)
H64_5 H 0.0814 0.3476 0.9112
C69_5 C 0.1241(3) 0.3243(3) 0.9295(7)
H65_5 H 0.1222 0.3103 0.8882
Mn6_5 Mn 0.38637(3) 0.47129(3) 0.46523(7)
O1_6 O 0.65168(15) 0.50856(16) 0.5697(3)
O2_6 O 0.61620(16) 0.44639(17) 0.3938(4)
O3_7 O 0.57279(16) 0.54359(15) 0.4895(3)
N1_6 N 0.60654(18) 0.49296(19) 0.4626(4)
N2_6 N 0.57621(19) 0.4953(2) 0.4245(4)
C1_6 C 0.6691(2) 0.4832(2) 0.5403(5)
C2_6 C 0.6578(2) 0.4634(2) 0.4800(5)
C3_6 C 0.6784(2) 0.4379(2) 0.4533(5)
H1_6 H 0.6714 0.4251 0.4129
C4_6 C 0.7086(2) 0.4316(2) 0.4856(6)
H2_6 H 0.7218 0.4144 0.4679
C5_6 C 0.7192(3) 0.4509(3) 0.5440(6)
H3_6 H 0.7398 0.4469 0.5658
C6_6 C 0.6995(3) 0.4766(3) 0.5710(6)
H4_6 H 0.7071 0.4895 0.6106
C7_6 C 0.6258(2) 0.4677(2) 0.4436(5)
C8_7 C 0.5608(2) 0.5225(3) 0.4425(6)
C9_7 C 0.5269(3) 0.5283(3) 0.4125(8)
H5_7 H 0.5115 0.5301 0.4535
H6_7 H 0.5206 0.5102 0.3807
H7_7 H 0.5266 0.5485 0.3840
Mn2_6 Mn 0.57543(3) 0.45524(4) 0.33560(8)
O4_6 O 0.59809(16) 0.48236(18) 0.2688(4)
O5_6 O 0.49906(17) 0.47834(18) 0.1883(3)
O6_6 O 0.54544(16) 0.42910(15) 0.3957(3)
N4_6 N 0.53448(19) 0.46301(19) 0.2827(4)
N5_6 N 0.50630(18) 0.44733(18) 0.3134(4)
C16_6 C 0.5874(3) 0.4980(3) 0.2080(7)
C17_6 C 0.5549(3) 0.4964(3) 0.1803(6)
C18_7 C 0.5476(3) 0.5118(4) 0.1120(7)
H14_7 H 0.5264 0.5096 0.0920
C19_7 C 0.5710(5) 0.5306(4) 0.0730(9)
H15_7 H 0.5658 0.5413 0.0282
C20_7 C 0.6031(4) 0.5325(4) 0.1053(11)
H16_7 H 0.6194 0.5445 0.0804
C21_7 C 0.6107(3) 0.5178(4) 0.1696(9)
H17_7 H 0.6318 0.5206 0.1898
C22_6 C 0.5282(3) 0.4788(3) 0.2175(6)
C23_6 C 0.5152(2) 0.4309(2) 0.3730(6)
C24_6 C 0.4892(3) 0.4105(3) 0.4145(6)
H18_6 H 0.4955 0.3875 0.4139
H19_6 H 0.4681 0.4130 0.3903
H20_6 H 0.4876 0.4180 0.4655
O7_6 O 0.5875(2) 0.4084(3) 0.2737(6)
N6_6 N 0.5911(5) 0.3517(4) 0.2667(12)
C25_6 C 0.5810(5) 0.3802(5) 0.2969(10)
H21_6 H 0.5678 0.3788 0.3395
C26_6 C 0.6119(5) 0.3490(7) 0.2119(17)
H22_6 H 0.6200 0.3706 0.1983
H23_6 H 0.6011 0.3391 0.1695
H24_6 H 0.6302 0.3353 0.2271
C27_6 C 0.5789(9) 0.3189(5) 0.302(2)
H25_6 H 0.5843 0.3007 0.2699
H26_6 H 0.5554 0.3199 0.3096
H27_6 H 0.5896 0.3158 0.3501
Mn3_6 Mn 0.46050(3) 0.46571(4) 0.25138(7)
O8_7 O 0.54882(17) 0.57524(18) 0.7911(4)
O9_6 O 0.61483(15) 0.56609(15) 0.6080(3)
O10_6 O 0.53697(16) 0.49230(17) 0.6957(3)
N7_6 N 0.57631(19) 0.5402(2) 0.6776(4)
N8_6 N 0.5812(2) 0.51260(19) 0.6310(4)
C28_7 C 0.5714(3) 0.5974(3) 0.7734(6)
C29_6 C 0.5942(2) 0.5951(2) 0.7120(5)
C30_6 C 0.6167(3) 0.6202(3) 0.7002(6)
H28_6 H 0.6313 0.6184 0.6600
C31_6 C 0.6184(3) 0.6479(3) 0.7459(8)
H29_6 H 0.6337 0.6646 0.7362
C32_7 C 0.5967(4) 0.6503(3) 0.8072(8)
H30_7 H 0.5976 0.6686 0.8388
C33_7 C 0.5743(3) 0.6259(3) 0.8205(7)
H31_7 H 0.5603 0.6278 0.8618
C34_6 C 0.5949(2) 0.5661(2) 0.6632(5)
C35_6 C 0.5601(2) 0.4889(2) 0.6453(5)
C36_6 C 0.5613(3) 0.4566(3) 0.6038(6)
H32_6 H 0.5823 0.4546 0.5787
H33_6 H 0.5587 0.4387 0.6386
H34_6 H 0.5438 0.4560 0.5674
N9_6 N 0.4298(2) 0.4915(3) 0.1618(5)
C37_6 C 0.3997(3) 0.4814(4) 0.1428(6)
H35_6 H 0.3921 0.4616 0.1632
C38_6 C 0.3785(4) 0.4987(5) 0.0937(8)
H36_6 H 0.3577 0.4901 0.0821
C39_7 C 0.3885(4) 0.5275(5) 0.0637(9)
C40_7 C 0.4194(4) 0.5388(4) 0.0854(9)
H37_7 H 0.4273 0.5587 0.0662
C41_7 C 0.4389(4) 0.5209(4) 0.1350(7)
H38_7 H 0.4591 0.5299 0.1503
C42_7 C 0.3634(5) 0.5471(6) 0.0127(15)
H40_7 H 0.3524 0.5638 0.0430
O11_6 O 0.34832(15) 0.49144(16) 0.4303(3)
O12_5 O 0.38380(16) 0.55361(17) 0.6062(4)
O13_6 O 0.42721(16) 0.45641(15) 0.5105(3)
N10_5 N 0.39346(18) 0.50704(19) 0.5374(4)
N11_5 N 0.42379(19) 0.5047(2) 0.5755(4)
C43_7 C 0.3309(2) 0.5168(2) 0.4597(5)
C44_5 C 0.3422(2) 0.5366(2) 0.5200(5)
C45_5 C 0.3216(2) 0.5621(2) 0.5467(5)
H41_5 H 0.3286 0.5749 0.5871
C46_5 C 0.2914(2) 0.5684(2) 0.5144(6)
H42_5 H 0.2782 0.5856 0.5321
C47_7 C 0.2808(3) 0.5491(3) 0.4560(6)
H43_7 H 0.2602 0.5531 0.4342
C48_7 C 0.3005(3) 0.5234(3) 0.4290(6)
H44_7 H 0.2929 0.5105 0.3894
C49_5 C 0.3742(2) 0.5323(2) 0.5564(5)
C50_6 C 0.4392(2) 0.4775(3) 0.5575(6)
C51_6 C 0.4731(3) 0.4717(3) 0.5875(8)
H45_6 H 0.4885 0.4699 0.5465
H46_6 H 0.4794 0.4898 0.6193
H47_6 H 0.4734 0.4515 0.6160
Mn5_5 Mn 0.42457(3) 0.54476(4) 0.66440(8)
O14_5 O 0.40191(16) 0.51764(18) 0.7312(4)
O15_7 O 0.50094(17) 0.52166(18) 0.8117(3)
O16_5 O 0.45456(16) 0.57090(15) 0.6043(3)
N13_5 N 0.46552(19) 0.53699(19) 0.7173(4)
N14_5 N 0.49370(18) 0.55267(18) 0.6866(4)
C52_6 C 0.4126(3) 0.5020(3) 0.7920(7)
C53_6 C 0.4451(3) 0.5036(3) 0.8197(6)
C54_7 C 0.4524(3) 0.4882(4) 0.8880(7)
H48_7 H 0.4736 0.4904 0.9080
C55_7 C 0.4290(5) 0.4694(4) 0.9270(9)
H49_7 H 0.4342 0.4587 0.9718
C56_7 C 0.3969(4) 0.4675(4) 0.8947(11)
H50_7 H 0.3806 0.4555 0.9196
C57_7 C 0.3893(3) 0.4822(4) 0.8304(9)
H51_7 H 0.3682 0.4794 0.8102
C58_6 C 0.4718(3) 0.5212(3) 0.7825(6)
C59_5 C 0.4848(2) 0.5691(2) 0.6270(6)
C60_6 C 0.5108(3) 0.5895(3) 0.5855(6)
H52_6 H 0.5045 0.6125 0.5861
H53_6 H 0.5319 0.5870 0.6097
H54_6 H 0.5124 0.5820 0.5345
O17_5 O 0.4125(2) 0.5916(3) 0.7263(6)
N15_5 N 0.4089(5) 0.6483(4) 0.7333(12)
C61_5 C 0.4190(5) 0.6198(5) 0.7031(10)
H55_5 H 0.4322 0.6212 0.6605
C62_6 C 0.3881(5) 0.6510(7) 0.7881(17)
H56_6 H 0.3800 0.6294 0.8017
H57_6 H 0.3989 0.6609 0.8305
H58_6 H 0.3698 0.6647 0.7729
C63_5 C 0.4211(9) 0.6811(5) 0.698(2)
H59_5 H 0.4157 0.6993 0.7301
H60_5 H 0.4446 0.6801 0.6904
H61_5 H 0.4104 0.6842 0.6499
O18_6 O 0.45118(17) 0.42476(18) 0.2089(4)
O19_6 O 0.38517(15) 0.43391(15) 0.3920(3)
O20_7 O 0.46303(16) 0.50770(17) 0.3043(3)
N16_6 N 0.42369(19) 0.4598(2) 0.3224(4)
N17_6 N 0.4188(2) 0.48740(19) 0.3690(4)
C64_6 C 0.4286(3) 0.4026(3) 0.2266(6)
C65_6 C 0.4058(2) 0.4049(2) 0.2880(5)
C66_6 C 0.3833(3) 0.3798(3) 0.2998(6)
H62_6 H 0.3687 0.3816 0.3400
C67_6 C 0.3816(3) 0.3521(3) 0.2541(8)
H63_6 H 0.3663 0.3354 0.2638
C68_6 C 0.4033(4) 0.3497(3) 0.1928(8)
H64_6 H 0.4024 0.3314 0.1612
C69_6 C 0.4257(3) 0.3741(3) 0.1795(7)
H65_6 H 0.4397 0.3722 0.1382
C70_6 C 0.4051(2) 0.4339(2) 0.3368(5)
C71_7 C 0.4399(2) 0.5111(2) 0.3547(5)
C72_7 C 0.4387(3) 0.5434(3) 0.3962(6)
H66_7 H 0.4177 0.5454 0.4213
H67_7 H 0.4413 0.5613 0.3614
H68_7 H 0.4562 0.5440 0.4326
Mn7_6 Mn 0.53950(3) 0.53429(4) 0.74862(7)
N20_7 N 0.5702(2) 0.5085(3) 0.8382(5)
C79_7 C 0.6003(3) 0.5186(4) 0.8572(6)
H75_7 H 0.6079 0.5384 0.8368
C80_7 C 0.6215(4) 0.5013(5) 0.9063(8)
H76_7 H 0.6423 0.5099 0.9179
C81_7 C 0.6115(4) 0.4725(5) 0.9363(9)
C82_7 C 0.5806(4) 0.4612(4) 0.9146(9)
H77_7 H 0.5727 0.4413 0.9338
C83_7 C 0.5611(4) 0.4791(4) 0.8650(7)
H78_7 H 0.5409 0.4701 0.8497
C84_7 C 0.6366(5) 0.4529(6) 0.9873(15)
H80_7 H 0.6476 0.4362 0.9570
H11_7 H 0.8287 0.9188 0.9791
Mn6_6 Mn 0.88637(3) 0.97129(3) 0.96523(7)
O5_7 O 0.99906(17) 0.97834(18) 0.6883(3)
C24_7 C 0.9892(3) 0.9105(3) 0.9145(6)
H18_7 H 0.9955 0.8875 0.9139
H19_7 H 0.9681 0.9130 0.8903
H20_7 H 0.9876 0.9180 0.9655
Mn3_7 Mn 0.96050(3) 0.96571(4) 0.75138(7)
N9_7 N 0.9298(2) 0.9915(3) 0.6618(5)
C37_7 C 0.8997(3) 0.9814(4) 0.6428(6)
H35_7 H 0.8921 0.9616 0.6632
C38_7 C 0.8785(4) 0.9987(5) 0.5937(8)
H36_7 H 0.8577 0.9901 0.5821
O11_7 O 0.84832(15) 0.99144(16) 0.9303(3)
O18_7 O 0.95118(17) 0.92476(18) 0.7089(4)
O19_7 O 0.88517(15) 0.93391(15) 0.8920(3)
N16_7 N 0.92369(19) 0.9598(2) 0.8224(4)
N17_7 N 0.9188(2) 0.98740(19) 0.8690(4)
C64_7 C 0.9286(3) 0.9026(3) 0.7266(6)
C65_7 C 0.9058(2) 0.9049(2) 0.7880(5)
C66_7 C 0.8833(3) 0.8798(3) 0.7998(6)
H62_7 H 0.8687 0.8816 0.8400
C67_7 C 0.8816(3) 0.8521(3) 0.7541(8)
H63_7 H 0.8663 0.8354 0.7638
C68_7 C 0.9033(4) 0.8497(3) 0.6928(8)
H64_7 H 0.9024 0.8314 0.6612
C69_7 C 0.9257(3) 0.8741(3) 0.6795(7)
H65_7 H 0.9397 0.8722 0.6382
C70_7 C 0.9051(2) 0.9339(2) 0.8368(5)
Mn1_4 Mn 0.11363(3) 0.02871(3) 0.03477(7)
O1_7 O 0.15168(15) 0.00856(16) 0.0697(3)
O8_8 O 0.04882(17) 0.07524(18) 0.2911(4)
O9_7 O 0.11483(15) 0.06609(15) 0.1080(3)
N7_7 N 0.07631(19) 0.0402(2) 0.1776(4)
N8_7 N 0.0812(2) 0.01260(19) 0.1310(4)
C28_8 C 0.0714(3) 0.0974(3) 0.2734(6)
C29_7 C 0.0942(2) 0.0951(2) 0.2120(5)
C30_7 C 0.1167(3) 0.1202(3) 0.2002(6)
H28_7 H 0.1313 0.1184 0.1600
C31_7 C 0.1184(3) 0.1479(3) 0.2459(8)
H29_7 H 0.1337 0.1646 0.2362
C32_8 C 0.0967(4) 0.1503(3) 0.3072(8)
H30_8 H 0.0976 0.1686 0.3388
C33_8 C 0.0743(3) 0.1259(3) 0.3205(7)
H31_8 H 0.0603 0.1278 0.3618
C34_7 C 0.0949(2) 0.0661(2) 0.1632(5)
O15_8 O 0.00094(17) 0.02166(18) 0.3117(3)
C60_7 C 0.0108(3) 0.0895(3) 0.0855(6)
H52_7 H 0.0045 0.1125 0.0861
H53_7 H 0.0319 0.0870 0.1097
H54_7 H 0.0124 0.0820 0.0345
Mn7_7 Mn 0.03950(3) 0.03429(4) 0.24862(7)
N20_8 N 0.0702(2) 0.0085(3) 0.3382(5)
C79_8 C 0.1003(3) 0.0186(4) 0.3572(6)
H75_8 H 0.1079 0.0384 0.3368
C80_8 C 0.1215(4) 0.0013(5) 0.4063(8)
H76_8 H 0.1423 0.0099 0.4179
H72_7 H 0.1713 0.0812 0.0209
C1_7 C 0.1691(2) 0.9832(2) 0.0403(5)
C5_7 C 0.2192(3) 0.9509(3) 0.0440(6)
H3_7 H 0.2398 0.9469 0.0658
C6_7 C 0.1995(3) 0.9766(3) 0.0710(6)
H4_7 H 0.2071 0.9895 0.1106
O10_7 O 0.03697(16) 0.99230(17) 0.1957(3)
C35_7 C 0.0601(2) 0.9889(2) 0.1453(5)
C36_7 C 0.0613(3) 0.9566(3) 0.1038(6)
H32_7 H 0.0823 0.9546 0.0787
H33_7 H 0.0587 0.9387 0.1386
H34_7 H 0.0438 0.9560 0.0674
Mn8_4 Mn 0.22129(3) 0.86363(3) 0.78477(7)
N19_4 N 0.1906(2) 0.8923(2) 0.7006(5)
C73_8 C 0.1913(3) 0.8852(3) 0.6273(7)
H69_8 H 0.2060 0.8691 0.6108
C74_8 C 0.1715(5) 0.9004(4) 0.5752(7)
H70_8 H 0.1732 0.8946 0.5248
C75_8 C 0.1492(5) 0.9241(4) 0.5974(7)
C76_8 C 0.1500(4) 0.9330(4) 0.6716(7)
H71_8 H 0.1371 0.9505 0.6888
C77_8 C 0.1700(3) 0.9158(3) 0.7202(6)
H72_8 H 0.1688 0.9213 0.7709
C78_8 C 0.1232(7) 0.9385(5) 0.5451(9)
H73_8 H 0.1087 0.9209 0.5280
H74_8 H 0.1099 0.9545 0.5723
C81_8 C 0.1115(4) 0.9725(5) 0.4363(9)
C82_8 C 0.0806(4) 0.9612(4) 0.4146(9)
H77_8 H 0.0727 0.9413 0.4338
C83_8 C 0.0611(4) 0.9791(4) 0.3650(7)
H78_8 H 0.0409 0.9701 0.3497
C84_8 C 0.1366(5) 0.9529(6) 0.4873(15)
H79_8 H 0.1535 0.9682 0.5049
H80_8 H 0.1476 0.9362 0.4570
O1_8 O 0.24144(16) 0.90168(15) 0.8197(3)
O2_7 O 0.30361(17) 0.86620(16) 0.6438(4)
O3_8 O 0.20641(15) 0.82279(16) 0.7395(3)
N1_7 N 0.25704(19) 0.85654(18) 0.7126(4)
N2_7 N 0.2547(2) 0.82621(19) 0.6745(4)
C1_8 C 0.2668(2) 0.9191(2) 0.7903(5)
C2_7 C 0.2866(2) 0.9078(2) 0.7300(5)
C3_7 C 0.3121(2) 0.9284(2) 0.7033(5)
H1_7 H 0.3249 0.9214 0.6629
C4_7 C 0.3184(2) 0.9586(2) 0.7356(6)
H2_7 H 0.3356 0.9718 0.7179
C5_8 C 0.2991(3) 0.9692(3) 0.7940(6)
H3_8 H 0.3031 0.9898 0.8158
C6_8 C 0.2734(3) 0.9495(3) 0.8210(6)
H4_8 H 0.2605 0.9571 0.8606
C7_7 C 0.2823(2) 0.8758(2) 0.6936(5)
C8_8 C 0.2275(3) 0.8108(2) 0.6925(6)
C9_8 C 0.2217(3) 0.7769(3) 0.6625(8)
H5_8 H 0.2199 0.7615 0.7035
H6_8 H 0.2398 0.7706 0.6307
H7_8 H 0.2015 0.7766 0.6340
N3_6 N 0.1423(2) 0.5594(2) 0.0494(5)
C10_7 C 0.1352(3) 0.5587(3) 0.1227(7)
H8_7 H 0.1191 0.5440 0.1392
C11_7 C 0.1504(4) 0.5785(5) 0.1748(7)
H9_7 H 0.1446 0.5768 0.2252
C12_7 C 0.1741(4) 0.6008(5) 0.1526(7)
C13_7 C 0.1830(4) 0.6000(4) 0.0784(7)
H10_7 H 0.2005 0.6129 0.0612
C14_7 C 0.1658(3) 0.5800(3) 0.0298(6)
C15_7 C 0.1885(5) 0.6268(7) 0.2049(9)
H12_7 H 0.1709 0.6413 0.2220
H13_7 H 0.2045 0.6401 0.1777
Mn2_7 Mn 0.29476(4) 0.82543(3) 0.58560(8)
O4_7 O 0.26764(18) 0.84809(16) 0.5188(4)
O5_8 O 0.27166(18) 0.74906(17) 0.4383(3)
O6_7 O 0.32090(15) 0.79544(16) 0.6457(3)
N4_7 N 0.28699(19) 0.78448(19) 0.5327(4)
N5_7 N 0.30267(18) 0.75630(18) 0.5634(4)
C16_7 C 0.2520(3) 0.8374(3) 0.4580(7)
C17_7 C 0.2536(3) 0.8049(3) 0.4303(6)
C18_8 C 0.2382(4) 0.7976(3) 0.3620(7)
H14_8 H 0.2404 0.7764 0.3420
C19_8 C 0.2194(4) 0.8210(5) 0.3230(9)
H15_8 H 0.2087 0.8158 0.2782
C20_8 C 0.2175(4) 0.8531(4) 0.3553(11)
H16_8 H 0.2055 0.8694 0.3304
C21_8 C 0.2322(4) 0.8607(3) 0.4196(9)
H17_8 H 0.2294 0.8818 0.4398
C22_7 C 0.2712(3) 0.7782(3) 0.4675(6)
C23_7 C 0.3191(2) 0.7652(2) 0.6230(6)
C24_8 C 0.3395(3) 0.7392(3) 0.6645(6)
H18_8 H 0.3625 0.7455 0.6639
H19_8 H 0.3370 0.7181 0.6403
H20_8 H 0.3320 0.7376 0.7155
O7_7 O 0.3416(3) 0.8375(2) 0.5237(6)
N6_7 N 0.3983(4) 0.8411(5) 0.5167(12)
C25_7 C 0.3698(5) 0.8310(5) 0.5469(10)
H21_7 H 0.3712 0.8178 0.5895
C26_7 C 0.4010(7) 0.8619(5) 0.4619(17)
H22_7 H 0.3794 0.8700 0.4483
H23_7 H 0.4109 0.8511 0.4195
H24_7 H 0.4147 0.8802 0.4771
C27_7 C 0.4311(5) 0.8289(9) 0.552(2)
H25_7 H 0.4493 0.8343 0.5199
H26_7 H 0.4301 0.8054 0.5596
H27_7 H 0.4342 0.8396 0.6001
Mn3_8 Mn 0.28429(4) 0.71050(3) 0.50138(7)
O9_8 O 0.18391(15) 0.86483(15) 0.8580(3)
O10_8 O 0.25770(17) 0.78697(16) 0.9457(3)
N7_8 N 0.2098(2) 0.82631(19) 0.9276(4)
N8_8 N 0.23740(19) 0.8312(2) 0.8810(4)
C29_8 C 0.1549(2) 0.8442(2) 0.9620(5)
C30_8 C 0.1298(3) 0.8667(3) 0.9502(6)
H28_8 H 0.1316 0.8813 0.9100
C31_8 C 0.1021(3) 0.8684(3) 0.9959(8)
H29_8 H 0.0854 0.8837 0.9862
C34_8 C 0.1839(2) 0.8449(2) 0.9132(5)
C35_8 C 0.2611(2) 0.8101(2) 0.8953(5)
C36_8 C 0.2934(3) 0.8113(3) 0.8538(6)
H32_8 H 0.2954 0.8323 0.8287
H33_8 H 0.3113 0.8087 0.8886
H34_8 H 0.2940 0.7938 0.8174
N9_8 N 0.2585(3) 0.6798(2) 0.4118(5)
C37_8 C 0.2686(4) 0.6497(3) 0.3928(6)
H35_8 H 0.2884 0.6421 0.4132
C38_8 C 0.2513(5) 0.6285(4) 0.3437(8)
H36_8 H 0.2599 0.6077 0.3321
C39_8 C 0.2225(5) 0.6385(4) 0.3137(9)
C40_8 C 0.2112(4) 0.6694(4) 0.3354(9)
H37_8 H 0.1913 0.6773 0.3162
C41_8 C 0.2291(4) 0.6889(4) 0.3850(7)
H38_8 H 0.2201 0.7091 0.4003
C42_8 C 0.2029(6) 0.6134(5) 0.2627(15)
H39_7 H 0.2182 0.5965 0.2451
H40_8 H 0.1862 0.6024 0.2930
Mn4_2 Mn 0.27871(3) 0.63637(3) 0.71523(7)
O11_8 O 0.25856(16) 0.59832(15) 0.6803(3)
O12_6 O 0.19639(17) 0.63380(16) 0.8562(4)
O13_7 O 0.29359(15) 0.67721(16) 0.7605(3)
N10_6 N 0.24296(19) 0.64346(18) 0.7874(4)
N11_6 N 0.2453(2) 0.67379(19) 0.8255(4)
C43_8 C 0.2332(2) 0.5809(2) 0.7097(5)
C44_6 C 0.2134(2) 0.5922(2) 0.7700(5)
C45_6 C 0.1879(2) 0.5716(2) 0.7967(5)
H41_6 H 0.1751 0.5786 0.8371
C46_6 C 0.1816(2) 0.5414(2) 0.7644(6)
H42_6 H 0.1644 0.5282 0.7821
C47_8 C 0.2009(3) 0.5308(3) 0.7060(6)
H43_8 H 0.1969 0.5102 0.6842
C48_8 C 0.2266(3) 0.5505(3) 0.6790(6)
H44_8 H 0.2395 0.5429 0.6394
C49_6 C 0.2177(2) 0.6242(2) 0.8064(5)
C50_7 C 0.2725(3) 0.6892(2) 0.8075(6)
C51_7 C 0.2783(3) 0.7231(3) 0.8375(8)
H45_7 H 0.2801 0.7385 0.7965
H46_7 H 0.2602 0.7294 0.8693
H47_7 H 0.2985 0.7234 0.8660
N12_2 N 0.3094(2) 0.6077(2) 0.7994(5)
Mn5_6 Mn 0.20524(4) 0.67457(3) 0.91440(8)
O14_6 O 0.23236(18) 0.65191(16) 0.9812(4)
O16_6 O 0.17910(15) 0.70456(16) 0.8543(3)
N13_6 N 0.21301(19) 0.71552(19) 0.9673(4)
N14_6 N 0.19733(18) 0.74370(18) 0.9366(4)
C59_6 C 0.1809(2) 0.7348(2) 0.8770(6)
C60_8 C 0.1605(3) 0.7608(3) 0.8355(6)
H52_8 H 0.1375 0.7545 0.8361
H53_8 H 0.1630 0.7819 0.8597
H54_8 H 0.1680 0.7624 0.7845
O17_6 O 0.1584(3) 0.6625(2) 0.9763(6)
N15_6 N 0.1017(4) 0.6589(5) 0.9833(12)
C61_6 C 0.1302(5) 0.6690(5) 0.9531(10)
H55_6 H 0.1288 0.6822 0.9105
C63_6 C 0.0689(5) 0.6711(9) 0.948(2)
H59_6 H 0.0507 0.6657 0.9801
H60_6 H 0.0699 0.6946 0.9404
H61_6 H 0.0658 0.6604 0.8999
O18_8 O 0.32524(18) 0.70118(17) 0.4589(4)
O19_8 O 0.31609(15) 0.63517(15) 0.6420(3)
O20_8 O 0.24230(17) 0.71303(16) 0.5543(3)
N16_8 N 0.2902(2) 0.67369(19) 0.5724(4)
N17_8 N 0.26260(19) 0.6688(2) 0.6190(4)
C64_8 C 0.3474(3) 0.6786(3) 0.4766(6)
C65_8 C 0.3451(2) 0.6558(2) 0.5380(5)
C66_8 C 0.3702(3) 0.6333(3) 0.5498(6)
H62_8 H 0.3684 0.6187 0.5900
C67_8 C 0.3979(3) 0.6316(3) 0.5041(8)
H63_8 H 0.4146 0.6163 0.5138
C68_8 C 0.4003(3) 0.6533(4) 0.4428(8)
H64_8 H 0.4186 0.6524 0.4112
C69_8 C 0.3759(3) 0.6757(3) 0.4295(7)
H65_8 H 0.3778 0.6897 0.3882
C70_8 C 0.3161(2) 0.6551(2) 0.5868(5)
C71_8 C 0.2389(2) 0.6899(2) 0.6047(5)
C72_8 C 0.2066(3) 0.6887(3) 0.6462(6)
H66_8 H 0.2046 0.6677 0.6713
H67_8 H 0.1887 0.6913 0.6114
H68_8 H 0.2060 0.7062 0.6826
Mn7_8 Mn 0.21571(4) 0.78950(3) 0.99862(7)
O12_7 O 0.11620(16) 0.44639(17) 0.1062(4)
O13_8 O 0.07279(16) 0.54359(15) 0.0105(3)
N10_7 N 0.10654(18) 0.49296(19) 0.0374(4)
N11_7 N 0.07621(19) 0.4953(2) 0.0755(4)
C44_7 C 0.1578(2) 0.4634(2) 0.0200(5)
C45_7 C 0.1784(2) 0.4379(2) 0.0467(5)
H41_7 H 0.1714 0.4251 0.0871
C46_7 C 0.2086(2) 0.4316(2) 0.0144(6)
H42_7 H 0.2218 0.4144 0.0321
C49_7 C 0.1258(2) 0.4677(2) 0.0564(5)
C50_8 C 0.0608(2) 0.5225(3) 0.0575(6)
C51_8 C 0.0269(3) 0.5283(3) 0.0875(8)
H45_8 H 0.0115 0.5301 0.0465
H46_8 H 0.0206 0.5102 0.1193
H47_8 H 0.0266 0.5485 0.1160
Mn5_7 Mn 0.07543(3) 0.45524(4) 0.16440(8)
O14_7 O 0.09809(16) 0.48236(18) 0.2312(4)
O16_7 O 0.04544(16) 0.42910(15) 0.1043(3)
N13_7 N 0.03448(19) 0.46301(19) 0.2173(4)
N14_7 N 0.00630(18) 0.44733(18) 0.1866(4)
C52_7 C 0.0874(3) 0.4980(3) 0.2920(7)
C53_7 C 0.0549(3) 0.4964(3) 0.3197(6)
C54_8 C 0.0476(3) 0.5118(4) 0.3880(7)
H48_8 H 0.0264 0.5096 0.4080
C55_8 C 0.0710(5) 0.5306(4) 0.4270(9)
H49_8 H 0.0658 0.5413 0.4718
C56_8 C 0.1031(4) 0.5325(4) 0.3947(11)
H50_8 H 0.1194 0.5445 0.4196
C57_8 C 0.1107(3) 0.5178(4) 0.3304(9)
H51_8 H 0.1318 0.5206 0.3102
C58_7 C 0.0282(3) 0.4788(3) 0.2825(6)
C59_7 C 0.0152(2) 0.4309(2) 0.1270(6)
O17_7 O 0.0875(2) 0.4084(3) 0.2263(6)
N15_7 N 0.0911(5) 0.3517(4) 0.2333(12)
C61_7 C 0.0810(5) 0.3802(5) 0.2031(10)
H55_7 H 0.0678 0.3788 0.1605
C62_7 C 0.1119(5) 0.3490(7) 0.2881(17)
H56_7 H 0.1200 0.3706 0.3017
H57_7 H 0.1011 0.3391 0.3305
H58_7 H 0.1302 0.3353 0.2729
C63_7 C 0.0789(9) 0.3189(5) 0.198(2)
H59_7 H 0.0843 0.3007 0.2301
H60_7 H 0.0554 0.3199 0.1904
H61_7 H 0.0896 0.3158 0.1499
C10_8 C 0.3087(3) 0.6148(3) 0.8727(7)
H8_8 H 0.2940 0.6309 0.8892
C11_8 C 0.3285(5) 0.5996(4) 0.9248(7)
H9_8 H 0.3268 0.6054 0.9752
C12_8 C 0.3508(5) 0.5759(4) 0.9026(7)
C13_8 C 0.3500(4) 0.5670(4) 0.8284(7)
H10_8 H 0.3629 0.5495 0.8112
C14_8 C 0.3300(3) 0.5842(3) 0.7798(6)
H11_8 H 0.3312 0.5787 0.7291
C15_8 C 0.3768(7) 0.5615(5) 0.9549(9)
H12_8 H 0.3913 0.5791 0.9720
H13_8 H 0.3901 0.5455 0.9277
H39_8 H 0.3465 0.5318 0.9951
O2_8 O 0.11620(16) 0.94639(17) 0.8938(4)
N1_8 N 0.10654(18) 0.99296(19) 0.9626(4)
N2_8 N 0.07621(19) 0.9953(2) 0.9245(4)
C2_8 C 0.1578(2) 0.9634(2) 0.9800(5)
C3_8 C 0.1784(2) 0.9379(2) 0.9533(5)
H1_8 H 0.1714 0.9251 0.9129
C4_8 C 0.2086(2) 0.9316(2) 0.9856(6)
H2_8 H 0.2218 0.9144 0.9679
C7_8 C 0.1258(2) 0.9677(2) 0.9436(5)
Mn2_8 Mn 0.07543(3) 0.95524(4) 0.83560(8)
O4_8 O 0.09809(16) 0.98236(18) 0.7688(4)
O6_8 O 0.04544(16) 0.92910(15) 0.8957(3)
N4_8 N 0.03448(19) 0.96301(19) 0.7827(4)
N5_8 N 0.00630(18) 0.94733(18) 0.8134(4)
C16_8 C 0.0874(3) 0.9980(3) 0.7080(7)
C17_8 C 0.0549(3) 0.9964(3) 0.6803(6)
C22_8 C 0.0282(3) 0.9788(3) 0.7175(6)
C23_8 C 0.0152(2) 0.9309(2) 0.8730(6)
O7_8 O 0.0875(2) 0.9084(3) 0.7737(6)
N6_8 N 0.0911(5) 0.8517(4) 0.7667(12)
C25_8 C 0.0810(5) 0.8802(5) 0.7969(10)
H21_8 H 0.0678 0.8788 0.8395
C26_8 C 0.1119(5) 0.8490(7) 0.7119(17)
H22_8 H 0.1200 0.8706 0.6983
H23_8 H 0.1011 0.8391 0.6695
H24_8 H 0.1302 0.8353 0.7271
C27_8 C 0.0789(9) 0.8189(5) 0.802(2)
H25_8 H 0.0843 0.8007 0.7699
H26_8 H 0.0554 0.8199 0.8096
H27_8 H 0.0896 0.8158 0.8501
O12_8 O 0.88380(16) 0.05361(17) 0.1062(4)
N10_8 N 0.89346(18) 0.00704(19) 0.0374(4)
N11_8 N 0.92379(19) 0.0047(2) 0.0755(4)
C44_8 C 0.8422(2) 0.0366(2) 0.0200(5)
C45_8 C 0.8216(2) 0.0621(2) 0.0467(5)
H41_8 H 0.8286 0.0749 0.0871
C46_8 C 0.7914(2) 0.0684(2) 0.0144(6)
H42_8 H 0.7782 0.0856 0.0321
C49_8 C 0.8742(2) 0.0323(2) 0.0564(5)
Mn5_8 Mn 0.92457(3) 0.04476(4) 0.16440(8)
O14_8 O 0.90191(16) 0.01764(18) 0.2312(4)
O16_8 O 0.95456(16) 0.07090(15) 0.1043(3)
N13_8 N 0.96552(19) 0.03699(19) 0.2173(4)
N14_8 N 0.99370(18) 0.05267(18) 0.1866(4)
C52_8 C 0.9126(3) 0.0020(3) 0.2920(7)
C53_8 C 0.9451(3) 0.0036(3) 0.3197(6)
C58_8 C 0.9718(3) 0.0212(3) 0.2825(6)
C59_8 C 0.9848(2) 0.0691(2) 0.1270(6)
O17_8 O 0.9125(2) 0.0916(3) 0.2263(6)
N15_8 N 0.9089(5) 0.1483(4) 0.2333(12)
C61_8 C 0.9190(5) 0.1198(5) 0.2031(10)
H55_8 H 0.9322 0.1212 0.1605
C62_8 C 0.8881(5) 0.1510(7) 0.2881(17)
H56_8 H 0.8800 0.1294 0.3017
H57_8 H 0.8989 0.1609 0.3305
H58_8 H 0.8698 0.1647 0.2729
C63_8 C 0.9211(9) 0.1811(5) 0.198(2)
H59_8 H 0.9157 0.1993 0.2301
H60_8 H 0.9446 0.1801 0.1904
H61_8 H 0.9104 0.1842 0.1499
loop_
_geom_bond_atom_site_label_1
_geom_bond_atom_site_label_2
_geom_bond_site_symmetry_1
_geom_bond_site_symmetry_2
N3 C10 1_555 1_555
C10 H8 1_555 1_555
C11 C10 1_555 1_555
H9 C11 1_555 1_555
C12 C11 1_555 1_555
C13 C12 1_555 1_555
H10 C13 1_555 1_555
C14 N3 1_555 1_555
H11 C14 1_555 1_555
C15 C12 1_555 1_555
H12 C15 1_555 1_555
H13 C15 1_555 1_555
Mn6 N3 1_555 1_555
C13 C14 1_555 1_555
Mn1 O1 1_555 1_555
O1 C1 1_555 1_555
O2 C7 1_555 1_555
O3 Mn1 1_555 1_555
N1 Mn1 1_555 1_555
N2 N1 1_555 1_555
C1 C2 1_555 1_555
C2 C3 1_555 1_555
C3 H1 1_555 1_555
C4 C3 1_555 1_555
H2 C4 1_555 1_555
C5 C4 1_555 1_555
H3 C5 1_555 1_555
C6 C1 1_555 1_555
H4 C6 1_555 1_555
C7 N1 1_555 1_555
C8 O3 1_555 1_555
C9 C8 1_555 1_555
H5 C9 1_555 1_555
H6 C9 1_555 1_555
H7 C9 1_555 1_555
N3_2 C10_2 1_555 1_555
C10_2 H8_2 1_555 1_555
C11_2 C10_2 1_555 1_555
H9_2 C11_2 1_555 1_555
C12_2 C11_2 1_555 1_555
C13_2 C12_2 1_555 1_555
H10_2 C13_2 1_555 1_555
C14_2 N3_2 1_555 1_555
C15_2 C12_2 1_555 1_555
H12_2 C15_2 1_555 1_555
H13_2 C15_2 1_555 1_555
Mn2 O2 1_555 1_555
O4 Mn2 1_555 1_555
O5 C22 1_555 1_555
O6 Mn2 1_555 1_555
N4 Mn2 1_555 1_555
N5 N4 1_555 1_555
C16 O4 1_555 1_555
C17 C16 1_555 1_555
C18 C17 1_555 1_555
H14 C18 1_555 1_555
C19 C18 1_555 1_555
H15 C19 1_555 1_555
C20 C19 1_555 1_555
H16 C20 1_555 1_555
C21 C16 1_555 1_555
H17 C21 1_555 1_555
C22 N4 1_555 1_555
C23 O6 1_555 1_555
C24 C23 1_555 1_555
H18 C24 1_555 1_555
H19 C24 1_555 1_555
H20 C24 1_555 1_555
O7 Mn2 1_555 1_555
N6 C25 1_555 1_555
C25 O7 1_555 1_555
H21 C25 1_555 1_555
C26 N6 1_555 1_555
H22 C26 1_555 1_555
H23 C26 1_555 1_555
H24 C26 1_555 1_555
C27 N6 1_555 1_555
H25 C27 1_555 1_555
H26 C27 1_555 1_555
H27 C27 1_555 1_555
Mn3 O5 1_555 1_555
O9 Mn1 1_555 1_555
O10 C35 1_555 1_555
N7 N8 1_555 1_555
N8 Mn1 1_555 1_555
C29 C30 1_555 1_555
C30 H28 1_555 1_555
C31 C30 1_555 1_555
H29 C31 1_555 1_555
C34 O9 1_555 1_555
C35 N8 1_555 1_555
C36 C35 1_555 1_555
H32 C36 1_555 1_555
H33 C36 1_555 1_555
H34 C36 1_555 1_555
N9 Mn3 1_555 1_555
C37 N9 1_555 1_555
H35 C37 1_555 1_555
C38 C37 1_555 1_555
H36 C38 1_555 1_555
C39 C38 1_555 1_555
C40 C39 1_555 1_555
H37 C40 1_555 1_555
C41 N9 1_555 1_555
H38 C41 1_555 1_555
C42 C15_2 1_555 1_555
H39_2 C42 1_555 1_555
H40 C42 1_555 1_555
Mn6 O11 1_555 1_555
O11 C43 1_555 1_555
O12 C49 1_555 1_555
O13 Mn6 1_555 1_555
N10 Mn6 1_555 1_555
N11 N10 1_555 1_555
C43 C44 1_555 1_555
C44 C45 1_555 1_555
C45 H41 1_555 1_555
C46 C45 1_555 1_555
H42 C46 1_555 1_555
C47 C46 1_555 1_555
H43 C47 1_555 1_555
C48 C43 1_555 1_555
H44 C48 1_555 1_555
C49 N10 1_555 1_555
C50 O13 1_555 1_555
C51 C50 1_555 1_555
H45 C51 1_555 1_555
H46 C51 1_555 1_555
H47 C51 1_555 1_555
Mn5 O12 1_555 1_555
O14 Mn5 1_555 1_555
O16 Mn5 1_555 1_555
N13 Mn5 1_555 1_555
N14 N13 1_555 1_555
C59 O16 1_555 1_555
C60 C59 1_555 1_555
H52 C60 1_555 1_555
H53 C60 1_555 1_555
H54 C60 1_555 1_555
O17 Mn5 1_555 1_555
N15 C61 1_555 1_555
C61 O17 1_555 1_555
H55 C61 1_555 1_555
C63 N15 1_555 1_555
H59 C63 1_555 1_555
H60 C63 1_555 1_555
H61 C63 1_555 1_555
O18 Mn3 1_555 1_555
O19 Mn6 1_555 1_555
O20 Mn3 1_555 1_555
N16 Mn3 1_555 1_555
N17 Mn6 1_555 1_555
C64 O18 1_555 1_555
C65 C64 1_555 1_555
C66 C65 1_555 1_555
H62 C66 1_555 1_555
C67 C66 1_555 1_555
H63 C67 1_555 1_555
C68 C67 1_555 1_555
H64 C68 1_555 1_555
C69 C64 1_555 1_555
H65 C69 1_555 1_555
C70 O19 1_555 1_555
C71 O20 1_555 1_555
C72 C71 1_555 1_555
H66 C72 1_555 1_555
H67 C72 1_555 1_555
H68 C72 1_555 1_555
N18 Mn1 1_555 1_555
N2 Mn2 1_555 1_555
N2 C8 1_555 1_555
C2 C7 1_555 1_555
C5 C6 1_555 1_555
C13_2 C14_2 1_555 1_555
N5 C23 1_555 1_555
N5 Mn3 1_555 1_555
C17 C22 1_555 1_555
C20 C21 1_555 1_555
O10 Mn7 1_555 1_555
N7 C34 1_555 1_555
N7 Mn7 1_555 1_555
C29 C34 1_555 1_555
C39 C42 1_555 1_555
C40 C41 1_555 1_555
N11 Mn5 1_555 1_555
N11 C50 1_555 1_555
C44 C49 1_555 1_555
C47 C48 1_555 1_555
N14 Mn7 1_555 1_555
N14 C59 1_555 1_555
N16 N17 1_555 1_555
N16 C70 1_555 1_555
N17 C71 1_555 1_555
C65 C70 1_555 1_555
C68 C69 1_555 1_555
C50_2 O13_2 1_555 1_555
C51_2 C50_2 1_555 1_555
H45_2 C51_2 1_555 1_555
H46_2 C51_2 1_555 1_555
H47_2 C51_2 1_555 1_555
H48 C54 1_555 1_555
C55 C54 1_555 1_555
H49 C55 1_555 1_555
C56 C55 1_555 1_555
H50 C56 1_555 1_555
H51 C57 1_555 1_555
C56 C57 1_555 1_555
Mn8 O1_2 1_555 1_555
O1_2 C1_2 1_555 1_555
H3_2 C5_2 1_555 1_555
C6_2 C1_2 1_555 1_555
H4_2 C6_2 1_555 1_555
O8 C28 1_555 1_555
O9_2 Mn8 1_555 1_555
O10_2 C35_2 1_555 1_555
N7_2 N8_2 1_555 1_555
N8_2 Mn8 1_555 1_555
C28 C29_2 1_555 1_555
C29_2 C30_2 1_555 1_555
C30_2 H28_2 1_555 1_555
C31_2 C30_2 1_555 1_555
H29_2 C31_2 1_555 1_555
C32 C31_2 1_555 1_555
H30 C32 1_555 1_555
C33 C28 1_555 1_555
H31 C33 1_555 1_555
C34_2 O9_2 1_555 1_555
C35_2 N8_2 1_555 1_555
C36_2 C35_2 1_555 1_555
H32_2 C36_2 1_555 1_555
H33_2 C36_2 1_555 1_555
H34_2 C36_2 1_555 1_555
H52_2 C60_2 1_555 1_555
H53_2 C60_2 1_555 1_555
H54_2 C60_2 1_555 1_555
Mn7_2 O8 1_555 1_555
N18 C73 1_555 1_555
C73 H69 1_555 1_555
C74 C73 1_555 1_555
H70 C74 1_555 1_555
C75 C74 1_555 1_555
C76 C75 1_555 1_555
H71 C76 1_555 1_555
C77 N18 1_555 1_555
H72_2 C77 1_555 1_555
C78 C75 1_555 1_555
H73 C78 1_555 1_555
H74 C78 1_555 1_555
N20 Mn7_2 1_555 1_555
C79 N20 1_555 1_555
H75 C79 1_555 1_555
C80 C79 1_555 1_555
H76 C80 1_555 1_555
C81 C80 1_555 1_555
C82 C81 1_555 1_555
H77 C82 1_555 1_555
C83 N20 1_555 1_555
H78 C83 1_555 1_555
C84 C78 1_555 1_555
H79 C84 1_555 1_555
H80 C84 1_555 1_555
C5_2 C6_2 1_555 1_555
O10_2 Mn7_2 1_555 1_555
N7_2 C34_2 1_555 1_555
N7_2 Mn7_2 1_555 1_555
C29_2 C34_2 1_555 1_555
C32 C33 1_555 1_555
O15 Mn7_2 1_555 1_555
C76 C77 1_555 1_555
C81 C84 1_555 1_555
C82 C83 1_555 1_555
Mn1_2 O1_3 1_555 1_555
O1_3 C1_3 1_555 1_555
O2_2 C7_2 1_555 1_555
O3_2 Mn1_2 1_555 1_555
N1_2 Mn1_2 1_555 1_555
N2_2 N1_2 1_555 1_555
C1_3 C2_2 1_555 1_555
C2_2 C3_2 1_555 1_555
C3_2 H1_2 1_555 1_555
C4_2 C3_2 1_555 1_555
H2_2 C4_2 1_555 1_555
C5_3 C4_2 1_555 1_555
H3_3 C5_3 1_555 1_555
C6_3 C1_3 1_555 1_555
H4_3 C6_3 1_555 1_555
C7_2 N1_2 1_555 1_555
C8_2 O3_2 1_555 1_555
C9_2 C8_2 1_555 1_555
H5_2 C9_2 1_555 1_555
H6_2 C9_2 1_555 1_555
H7_2 C9_2 1_555 1_555
Mn2_2 O2_2 1_555 1_555
O4_2 Mn2_2 1_555 1_555
O6_2 Mn2_2 1_555 1_555
N4_2 Mn2_2 1_555 1_555
N5_2 N4_2 1_555 1_555
C23_2 O6_2 1_555 1_555
C24_2 C23_2 1_555 1_555
H18_2 C24_2 1_555 1_555
H19_2 C24_2 1_555 1_555
H20_2 C24_2 1_555 1_555
O7_2 Mn2_2 1_555 1_555
N6_2 C25_2 1_555 1_555
C25_2 O7_2 1_555 1_555
H21_2 C25_2 1_555 1_555
C27_2 N6_2 1_555 1_555
H25_2 C27_2 1_555 1_555
H26_2 C27_2 1_555 1_555
H27_2 C27_2 1_555 1_555
O8_2 C28_2 1_555 1_555
O9_3 Mn1_2 1_555 1_555
O10_3 C35_3 1_555 1_555
N7_3 N8_3 1_555 1_555
N8_3 Mn1_2 1_555 1_555
C28_2 C29_3 1_555 1_555
C29_3 C30_3 1_555 1_555
C30_3 H28_3 1_555 1_555
C31_3 C30_3 1_555 1_555
H29_3 C31_3 1_555 1_555
C32_2 C31_3 1_555 1_555
H30_2 C32_2 1_555 1_555
C33_2 C28_2 1_555 1_555
H31_2 C33_2 1_555 1_555
C34_3 O9_3 1_555 1_555
C35_3 N8_3 1_555 1_555
C36_3 C35_3 1_555 1_555
H32_3 C36_3 1_555 1_555
H33_3 C36_3 1_555 1_555
H34_3 C36_3 1_555 1_555
Mn4 O11_2 1_555 1_555
O11_2 C43_2 1_555 1_555
O12_2 C49_2 1_555 1_555
O13_3 Mn4 1_555 1_555
N10_2 Mn4 1_555 1_555
N11_2 N10_2 1_555 1_555
C43_2 C44_2 1_555 1_555
C44_2 C45_2 1_555 1_555
C45_2 H41_2 1_555 1_555
C46_2 C45_2 1_555 1_555
H42_2 C46_2 1_555 1_555
C47_2 C46_2 1_555 1_555
H43_2 C47_2 1_555 1_555
C48_2 C43_2 1_555 1_555
H44_2 C48_2 1_555 1_555
C49_2 N10_2 1_555 1_555
C50_3 O13_3 1_555 1_555
C51_3 C50_3 1_555 1_555
H45_3 C51_3 1_555 1_555
H46_3 C51_3 1_555 1_555
H47_3 C51_3 1_555 1_555
N12 Mn4 1_555 1_555
Mn5_2 O12_2 1_555 1_555
O14_2 Mn5_2 1_555 1_555
O15_2 C58 1_555 1_555
O16_2 Mn5_2 1_555 1_555
N13_2 Mn5_2 1_555 1_555
N14_2 N13_2 1_555 1_555
C52 O14_2 1_555 1_555
C53 C52 1_555 1_555
C54_2 C53 1_555 1_555
H48_2 C54_2 1_555 1_555
C55_2 C54_2 1_555 1_555
H49_2 C55_2 1_555 1_555
C56_2 C55_2 1_555 1_555
H50_2 C56_2 1_555 1_555
C57_2 C52 1_555 1_555
H51_2 C57_2 1_555 1_555
C58 N13_2 1_555 1_555
C59_2 O16_2 1_555 1_555
C60_3 C59_2 1_555 1_555
H52_3 C60_3 1_555 1_555
H53_3 C60_3 1_555 1_555
H54_3 C60_3 1_555 1_555
O17_2 Mn5_2 1_555 1_555
N15_2 C61_2 1_555 1_555
C61_2 O17_2 1_555 1_555
H55_2 C61_2 1_555 1_555
C62 N15_2 1_555 1_555
H56 C62 1_555 1_555
H57 C62 1_555 1_555
H58 C62 1_555 1_555
C63_2 N15_2 1_555 1_555
H59_2 C63_2 1_555 1_555
H60_2 C63_2 1_555 1_555
H61_2 C63_2 1_555 1_555
O19_2 Mn4 1_555 1_555
O20_2 Mn3_2 1_555 1_555
N16_2 Mn3_2 1_555 1_555
N17_2 Mn4 1_555 1_555
C66_2 C65_2 1_555 1_555
H62_2 C66_2 1_555 1_555
C67_2 C66_2 1_555 1_555
H63_2 C67_2 1_555 1_555
C70_2 O19_2 1_555 1_555
C71_2 O20_2 1_555 1_555
C72_2 C71_2 1_555 1_555
H66_2 C72_2 1_555 1_555
H67_2 C72_2 1_555 1_555
H68_2 C72_2 1_555 1_555
N18_2 Mn1_2 1_555 1_555
Mn7_3 O8_2 1_555 1_555
N19 C73_2 1_555 1_555
C73_2 H69_2 1_555 1_555
C74_2 C73_2 1_555 1_555
H70_2 C74_2 1_555 1_555
C75_2 C74_2 1_555 1_555
C76_2 C75_2 1_555 1_555
H71_2 C76_2 1_555 1_555
C77_2 N19 1_555 1_555
C78_2 C75_2 1_555 1_555
H73_2 C78_2 1_555 1_555
H74_2 C78_2 1_555 1_555
N20_2 Mn7_3 1_555 1_555
C79_2 N20_2 1_555 1_555
H75_2 C79_2 1_555 1_555
C80_2 C79_2 1_555 1_555
H76_2 C80_2 1_555 1_555
C81_2 C80_2 1_555 1_555
C82_2 C81_2 1_555 1_555
H77_2 C82_2 1_555 1_555
C83_2 N20_2 1_555 1_555
H78_2 C83_2 1_555 1_555
C84_2 C78_2 1_555 1_555
H79_2 C84_2 1_555 1_555
H80_2 C84_2 1_555 1_555
N2_2 Mn2_2 1_555 1_555
N2_2 C8_2 1_555 1_555
C2_2 C7_2 1_555 1_555
C5_3 C6_3 1_555 1_555
N5_2 C23_2 1_555 1_555
N5_2 Mn3_2 1_555 1_555
O10_3 Mn7_3 1_555 1_555
N7_3 C34_3 1_555 1_555
N7_3 Mn7_3 1_555 1_555
C29_3 C34_3 1_555 1_555
C32_2 C33_2 1_555 1_555
N11_2 Mn5_2 1_555 1_555
N11_2 C50_3 1_555 1_555
C44_2 C49_2 1_555 1_555
C47_2 C48_2 1_555 1_555
O15_2 Mn7_3 1_555 1_555
N14_2 Mn7_3 1_555 1_555
N14_2 C59_2 1_555 1_555
C53 C58 1_555 1_555
C56_2 C57_2 1_555 1_555
N16_2 N17_2 1_555 1_555
N16_2 C70_2 1_555 1_555
N17_2 C71_2 1_555 1_555
C65_2 C70_2 1_555 1_555
C76_2 C77_2 1_555 1_555
C81_2 C84_2 1_555 1_555
C82_2 C83_2 1_555 1_555
N12 C10_3 1_555 1_555
C10_3 H8_3 1_555 1_555
C11_3 C10_3 1_555 1_555
H9_3 C11_3 1_555 1_555
C12_3 C11_3 1_555 1_555
C13_3 C12_3 1_555 1_555
H10_3 C13_3 1_555 1_555
C14_3 N12 1_555 1_555
H11_2 C14_3 1_555 1_555
C15_3 C12_3 1_555 1_555
H12_3 C15_3 1_555 1_555
H13_3 C15_3 1_555 1_555
C40_2 C39_2 1_555 1_555
H37_2 C40_2 1_555 1_555
H38_2 C41_2 1_555 1_555
C42_2 C15_3 1_555 1_555
H39_3 C42_2 1_555 1_555
H40_2 C42_2 1_555 1_555
H43_3 C47_3 1_555 1_555
C48_3 C43_3 1_555 1_555
H44_3 C48_3 1_555 1_555
C71_3 O20_3 1_555 1_555
C72_3 C71_3 1_555 1_555
H66_3 C72_3 1_555 1_555
H67_3 C72_3 1_555 1_555
H68_3 C72_3 1_555 1_555
C13_3 C14_3 1_555 1_555
C39_2 C42_2 1_555 1_555
C40_2 C41_2 1_555 1_555
C47_3 C48_3 1_555 1_555
O2_3 C7_3 1_555 1_555
N2_3 N1_3 1_555 1_555
C2_3 C3_3 1_555 1_555
C3_3 H1_3 1_555 1_555
C4_3 C3_3 1_555 1_555
H2_3 C4_3 1_555 1_555
C7_3 N1_3 1_555 1_555
C8_3 O3_3 1_555 1_555
C9_3 C8_3 1_555 1_555
H5_3 C9_3 1_555 1_555
H6_3 C9_3 1_555 1_555
H7_3 C9_3 1_555 1_555
Mn2_3 O2_3 1_555 1_555
O4_3 Mn2_3 1_555 1_555
O6_3 Mn2_3 1_555 1_555
N4_3 Mn2_3 1_555 1_555
N5_3 N4_3 1_555 1_555
C16_2 O4_3 1_555 1_555
C17_2 C16_2 1_555 1_555
C18_2 C17_2 1_555 1_555
H14_2 C18_2 1_555 1_555
C19_2 C18_2 1_555 1_555
H15_2 C19_2 1_555 1_555
C20_2 C19_2 1_555 1_555
H16_2 C20_2 1_555 1_555
C21_2 C16_2 1_555 1_555
H17_2 C21_2 1_555 1_555
C22_2 N4_3 1_555 1_555
C23_3 O6_3 1_555 1_555
O7_3 Mn2_3 1_555 1_555
N6_3 C25_3 1_555 1_555
C25_3 O7_3 1_555 1_555
H21_3 C25_3 1_555 1_555
C26_2 N6_3 1_555 1_555
H22_2 C26_2 1_555 1_555
H23_2 C26_2 1_555 1_555
H24_2 C26_2 1_555 1_555
C27_3 N6_3 1_555 1_555
H25_3 C27_3 1_555 1_555
H26_3 C27_3 1_555 1_555
H27_3 C27_3 1_555 1_555
N2_3 Mn2_3 1_555 1_555
N2_3 C8_3 1_555 1_555
C2_3 C7_3 1_555 1_555
N5_3 C23_3 1_555 1_555
C17_2 C22_2 1_555 1_555
C20_2 C21_2 1_555 1_555
N18_2 C73_3 1_555 1_555
C73_3 H69_3 1_555 1_555
C74_3 C73_3 1_555 1_555
H70_3 C74_3 1_555 1_555
C75_3 C74_3 1_555 1_555
C76_3 C75_3 1_555 1_555
H71_3 C76_3 1_555 1_555
C77_3 N18_2 1_555 1_555
H72_3 C77_3 1_555 1_555
C78_3 C75_3 1_555 1_555
H73_3 C78_3 1_555 1_555
H74_3 C78_3 1_555 1_555
C76_3 C77_3 1_555 1_555
N3_3 C10_4 1_555 1_555
C10_4 H8_4 1_555 1_555
C11_4 C10_4 1_555 1_555
H9_4 C11_4 1_555 1_555
C12_4 C11_4 1_555 1_555
C13_4 C12_4 1_555 1_555
H10_4 C13_4 1_555 1_555
C14_4 N3_3 1_555 1_555
H11_3 C14_4 1_555 1_555
C15_4 C12_4 1_555 1_555
H12_4 C15_4 1_555 1_555
H13_4 C15_4 1_555 1_555
O5_2 C22_3 1_555 1_555
C17_3 C16_3 1_555 1_555
C18_3 C17_3 1_555 1_555
H14_3 C18_3 1_555 1_555
C19_3 C18_3 1_555 1_555
H15_3 C19_3 1_555 1_555
C20_3 C19_3 1_555 1_555
H16_3 C20_3 1_555 1_555
C21_3 C16_3 1_555 1_555
H17_3 C21_3 1_555 1_555
H22_3 C26_3 1_555 1_555
H23_3 C26_3 1_555 1_555
H24_3 C26_3 1_555 1_555
C37_2 N9_2 1_555 1_555
H35_2 C37_2 1_555 1_555
C38_2 C37_2 1_555 1_555
H36_2 C38_2 1_555 1_555
C39_3 C38_2 1_555 1_555
C40_3 C39_3 1_555 1_555
H37_3 C40_3 1_555 1_555
C41_3 N9_2 1_555 1_555
H38_3 C41_3 1_555 1_555
C42_3 C15_4 1_555 1_555
H39_4 C42_3 1_555 1_555
H40_3 C42_3 1_555 1_555
C64_2 O18_2 1_555 1_555
H64_2 C68_2 1_555 1_555
C69_2 C64_2 1_555 1_555
H65_2 C69_2 1_555 1_555
Mn6_2 N3_3 1_555 1_555
C13_4 C14_4 1_555 1_555
C17_3 C22_3 1_555 1_555
C20_3 C21_3 1_555 1_555
C39_3 C42_3 1_555 1_555
C40_3 C41_3 1_555 1_555
C68_2 C69_2 1_555 1_555
O2_4 C7_4 1_555 1_555
N2_4 N1_4 1_555 1_555
C1_4 C2_4 1_555 1_555
C2_4 C3_4 1_555 1_555
C3_4 H1_4 1_555 1_555
C4_4 C3_4 1_555 1_555
H2_4 C4_4 1_555 1_555
C5_4 C4_4 1_555 1_555
H3_4 C5_4 1_555 1_555
C6_4 C1_4 1_555 1_555
H4_4 C6_4 1_555 1_555
C7_4 N1_4 1_555 1_555
Mn2_4 O2_4 1_555 1_555
O4_4 Mn2_4 1_555 1_555
O5_3 C22_4 1_555 1_555
O6_4 Mn2_4 1_555 1_555
N4_4 Mn2_4 1_555 1_555
N5_4 N4_4 1_555 1_555
C16_4 O4_4 1_555 1_555
C17_4 C16_4 1_555 1_555
C22_4 N4_4 1_555 1_555
C23_4 O6_4 1_555 1_555
C24_3 C23_4 1_555 1_555
H18_3 C24_3 1_555 1_555
H19_3 C24_3 1_555 1_555
H20_3 C24_3 1_555 1_555
O7_4 Mn2_4 1_555 1_555
N6_4 C25_4 1_555 1_555
C25_4 O7_4 1_555 1_555
H21_4 C25_4 1_555 1_555
C26_4 N6_4 1_555 1_555
H22_4 C26_4 1_555 1_555
H23_4 C26_4 1_555 1_555
H24_4 C26_4 1_555 1_555
C27_4 N6_4 1_555 1_555
H25_4 C27_4 1_555 1_555
H26_4 C27_4 1_555 1_555
H27_4 C27_4 1_555 1_555
Mn3_3 O5_3 1_555 1_555
O10_4 C35_4 1_555 1_555
C36_4 C35_4 1_555 1_555
H32_4 C36_4 1_555 1_555
H33_4 C36_4 1_555 1_555
H34_4 C36_4 1_555 1_555
N9_3 Mn3_3 1_555 1_555
C37_3 N9_3 1_555 1_555
H35_3 C37_3 1_555 1_555
C38_3 C37_3 1_555 1_555
H36_3 C38_3 1_555 1_555
Mn6_2 O11_3 1_555 1_555
O13_4 Mn6_2 1_555 1_555
C50_4 O13_4 1_555 1_555
C51_4 C50_4 1_555 1_555
H45_4 C51_4 1_555 1_555
H46_4 C51_4 1_555 1_555
H47_4 C51_4 1_555 1_555
H48_3 C54_3 1_555 1_555
C55_3 C54_3 1_555 1_555
H49_3 C55_3 1_555 1_555
C56_3 C55_3 1_555 1_555
H50_3 C56_3 1_555 1_555
H51_3 C57_3 1_555 1_555
O18_3 Mn3_3 1_555 1_555
O19_3 Mn6_2 1_555 1_555
N16_3 Mn3_3 1_555 1_555
N17_3 Mn6_2 1_555 1_555
C64_3 O18_3 1_555 1_555
C65_3 C64_3 1_555 1_555
C66_3 C65_3 1_555 1_555
H62_3 C66_3 1_555 1_555
C67_3 C66_3 1_555 1_555
H63_3 C67_3 1_555 1_555
C68_3 C67_3 1_555 1_555
H64_3 C68_3 1_555 1_555
C69_3 C64_3 1_555 1_555
H65_3 C69_3 1_555 1_555
C70_3 O19_3 1_555 1_555
C82_3 C81_3 1_555 1_555
H77_3 C82_3 1_555 1_555
H78_3 C83_3 1_555 1_555
H80_3 C84_3 1_555 1_555
N2_4 Mn2_4 1_555 1_555
C2_4 C7_4 1_555 1_555
C5_4 C6_4 1_555 1_555
N5_4 C23_4 1_555 1_555
N5_4 Mn3_3 1_555 1_555
C17_4 C22_4 1_555 1_555
C56_3 C57_3 1_555 1_555
N16_3 N17_3 1_555 1_555
N16_3 C70_3 1_555 1_555
C65_3 C70_3 1_555 1_555
C68_3 C69_3 1_555 1_555
C81_3 C84_3 1_555 1_555
C82_3 C83_3 1_555 1_555
Mn8_2 N19_2 1_555 1_555
N19_2 C73_4 1_555 1_555
C73_4 H69_4 1_555 1_555
C74_4 C73_4 1_555 1_555
H70_4 C74_4 1_555 1_555
C75_4 C74_4 1_555 1_555
C76_4 C75_4 1_555 1_555
H71_4 C76_4 1_555 1_555
C77_4 N19_2 1_555 1_555
H72_4 C77_4 1_555 1_555
C78_4 C75_4 1_555 1_555
H73_4 C78_4 1_555 1_555
H74_4 C78_4 1_555 1_555
C76_4 C77_4 1_555 1_555
C8_4 O3_4 1_555 1_555
C9_4 C8_4 1_555 1_555
H5_4 C9_4 1_555 1_555
H6_4 C9_4 1_555 1_555
H7_4 C9_4 1_555 1_555
H14_4 C18_4 1_555 1_555
C19_4 C18_4 1_555 1_555
H15_4 C19_4 1_555 1_555
C20_4 C19_4 1_555 1_555
H16_4 C20_4 1_555 1_555
H17_4 C21_4 1_555 1_555
C20_4 C21_4 1_555 1_555
N3_4 C10_5 1_555 1_555
C10_5 H8_5 1_555 1_555
C11_5 C10_5 1_555 1_555
H9_5 C11_5 1_555 1_555
C12_5 C11_5 1_555 1_555
C13_5 C12_5 1_555 1_555
H10_5 C13_5 1_555 1_555
C14_5 N3_4 1_555 1_555
H11_5 C14_5 1_555 1_555
C15_5 C12_5 1_555 1_555
H12_5 C15_5 1_555 1_555
H13_5 C15_5 1_555 1_555
H18_4 C24_4 1_555 1_555
H19_4 C24_4 1_555 1_555
H20_4 C24_4 1_555 1_555
Mn3_4 O5_4 1_555 1_555
N9_4 Mn3_4 1_555 1_555
C37_4 N9_4 1_555 1_555
H35_4 C37_4 1_555 1_555
C38_4 C37_4 1_555 1_555
H36_4 C38_4 1_555 1_555
C39_4 C38_4 1_555 1_555
C40_4 C39_4 1_555 1_555
H37_4 C40_4 1_555 1_555
C41_4 N9_4 1_555 1_555
H38_4 C41_4 1_555 1_555
C42_4 C15_5 1_555 1_555
H39_5 C42_4 1_555 1_555
H40_4 C42_4 1_555 1_555
Mn6_3 O11_4 1_555 1_555
O11_4 C43_4 1_555 1_555
H43_4 C47_4 1_555 1_555
C48_4 C43_4 1_555 1_555
H44_4 C48_4 1_555 1_555
O18_4 Mn3_4 1_555 1_555
O19_4 Mn6_3 1_555 1_555
O20_4 Mn3_4 1_555 1_555
N16_4 Mn3_4 1_555 1_555
N17_4 Mn6_3 1_555 1_555
C64_4 O18_4 1_555 1_555
C65_4 C64_4 1_555 1_555
C66_4 C65_4 1_555 1_555
H62_4 C66_4 1_555 1_555
C67_4 C66_4 1_555 1_555
H63_4 C67_4 1_555 1_555
C68_4 C67_4 1_555 1_555
H64_4 C68_4 1_555 1_555
C69_4 C64_4 1_555 1_555
H65_4 C69_4 1_555 1_555
C70_4 O19_4 1_555 1_555
C71_4 O20_4 1_555 1_555
C72_4 C71_4 1_555 1_555
H66_4 C72_4 1_555 1_555
H67_4 C72_4 1_555 1_555
H68_4 C72_4 1_555 1_555
Mn6_4 N3_4 1_555 1_555
C13_5 C14_5 1_555 1_555
C39_4 C42_4 1_555 1_555
C40_4 C41_4 1_555 1_555
C47_4 C48_4 1_555 1_555
N16_4 N17_4 1_555 1_555
N16_4 C70_4 1_555 1_555
N17_4 C71_4 1_555 1_555
C65_4 C70_4 1_555 1_555
C68_4 C69_4 1_555 1_555
Mn8_2 O1_4 1_555 1_555
O1_4 C1_5 1_555 1_555
O2_5 C7_5 1_555 1_555
O3_5 Mn8_2 1_555 1_555
N1_5 Mn8_2 1_555 1_555
N2_5 N1_5 1_555 1_555
C1_5 C2_5 1_555 1_555
C2_5 C3_5 1_555 1_555
C3_5 H1_5 1_555 1_555
C4_5 C3_5 1_555 1_555
H2_5 C4_5 1_555 1_555
C5_5 C4_5 1_555 1_555
H3_5 C5_5 1_555 1_555
C6_5 C1_5 1_555 1_555
H4_5 C6_5 1_555 1_555
C7_5 N1_5 1_555 1_555
C8_5 O3_5 1_555 1_555
C9_5 C8_5 1_555 1_555
H5_5 C9_5 1_555 1_555
H6_5 C9_5 1_555 1_555
H7_5 C9_5 1_555 1_555
Mn2_5 O2_5 1_555 1_555
O4_5 Mn2_5 1_555 1_555
O6_5 Mn2_5 1_555 1_555
N4_5 Mn2_5 1_555 1_555
N5_5 N4_5 1_555 1_555
C23_5 O6_5 1_555 1_555
C24_5 C23_5 1_555 1_555
H18_5 C24_5 1_555 1_555
H19_5 C24_5 1_555 1_555
H20_5 C24_5 1_555 1_555
O7_5 Mn2_5 1_555 1_555
N6_5 C25_5 1_555 1_555
C25_5 O7_5 1_555 1_555
H21_5 C25_5 1_555 1_555
C27_5 N6_5 1_555 1_555
H25_5 C27_5 1_555 1_555
H26_5 C27_5 1_555 1_555
H27_5 C27_5 1_555 1_555
O8_3 C28_3 1_555 1_555
O9_4 Mn8_2 1_555 1_555
O10_5 C35_5 1_555 1_555
N7_4 N8_4 1_555 1_555
N8_4 Mn8_2 1_555 1_555
C28_3 C29_4 1_555 1_555
C29_4 C30_4 1_555 1_555
C30_4 H28_4 1_555 1_555
C31_4 C30_4 1_555 1_555
H29_4 C31_4 1_555 1_555
C32_3 C31_4 1_555 1_555
H30_3 C32_3 1_555 1_555
C33_3 C28_3 1_555 1_555
H31_3 C33_3 1_555 1_555
C34_4 O9_4 1_555 1_555
C35_5 N8_4 1_555 1_555
C36_5 C35_5 1_555 1_555
H32_5 C36_5 1_555 1_555
H33_5 C36_5 1_555 1_555
H34_5 C36_5 1_555 1_555
Mn6_4 O11_5 1_555 1_555
O11_5 C43_5 1_555 1_555
O12_3 C49_3 1_555 1_555
O13_5 Mn6_4 1_555 1_555
N10_3 Mn6_4 1_555 1_555
N11_3 N10_3 1_555 1_555
C43_5 C44_3 1_555 1_555
C44_3 C45_3 1_555 1_555
C45_3 H41_3 1_555 1_555
C46_3 C45_3 1_555 1_555
H42_3 C46_3 1_555 1_555
C47_5 C46_3 1_555 1_555
H43_5 C47_5 1_555 1_555
C48_5 C43_5 1_555 1_555
H44_5 C48_5 1_555 1_555
C49_3 N10_3 1_555 1_555
C50_5 O13_5 1_555 1_555
C51_5 C50_5 1_555 1_555
H45_5 C51_5 1_555 1_555
H46_5 C51_5 1_555 1_555
H47_5 C51_5 1_555 1_555
Mn5_3 O12_3 1_555 1_555
O14_3 Mn5_3 1_555 1_555
O15_3 C58_2 1_555 1_555
O16_3 Mn5_3 1_555 1_555
N13_3 Mn5_3 1_555 1_555
N14_3 N13_3 1_555 1_555
C52_2 O14_3 1_555 1_555
C53_2 C52_2 1_555 1_555
C54_4 C53_2 1_555 1_555
H48_4 C54_4 1_555 1_555
C55_4 C54_4 1_555 1_555
H49_4 C55_4 1_555 1_555
C56_4 C55_4 1_555 1_555
H50_4 C56_4 1_555 1_555
C57_4 C52_2 1_555 1_555
H51_4 C57_4 1_555 1_555
C58_2 N13_3 1_555 1_555
C59_3 O16_3 1_555 1_555
C60_4 C59_3 1_555 1_555
H52_4 C60_4 1_555 1_555
H53_4 C60_4 1_555 1_555
H54_4 C60_4 1_555 1_555
O17_3 Mn5_3 1_555 1_555
N15_3 C61_3 1_555 1_555
C61_3 O17_3 1_555 1_555
H55_3 C61_3 1_555 1_555
C62_2 N15_3 1_555 1_555
H56_2 C62_2 1_555 1_555
H57_2 C62_2 1_555 1_555
H58_2 C62_2 1_555 1_555
C63_3 N15_3 1_555 1_555
H59_3 C63_3 1_555 1_555
H60_3 C63_3 1_555 1_555
H61_3 C63_3 1_555 1_555
O19_5 Mn6_4 1_555 1_555
O20_5 Mn3_5 1_555 1_555
N16_5 Mn3_5 1_555 1_555
N17_5 Mn6_4 1_555 1_555
C66_5 C65_5 1_555 1_555
H62_5 C66_5 1_555 1_555
C67_5 C66_5 1_555 1_555
H63_5 C67_5 1_555 1_555
C70_5 O19_5 1_555 1_555
C71_5 O20_5 1_555 1_555
C72_5 C71_5 1_555 1_555
H66_5 C72_5 1_555 1_555
H67_5 C72_5 1_555 1_555
H68_5 C72_5 1_555 1_555
Mn7_4 O8_3 1_555 1_555
N18_3 C73_5 1_555 1_555
C73_5 H69_5 1_555 1_555
C74_5 C73_5 1_555 1_555
H70_5 C74_5 1_555 1_555
C75_5 C74_5 1_555 1_555
C76_5 C75_5 1_555 1_555
H71_5 C76_5 1_555 1_555
C77_5 N18_3 1_555 1_555
C78_5 C75_5 1_555 1_555
H73_5 C78_5 1_555 1_555
H74_5 C78_5 1_555 1_555
N20_3 Mn7_4 1_555 1_555
C79_3 N20_3 1_555 1_555
H75_3 C79_3 1_555 1_555
C80_3 C79_3 1_555 1_555
H76_3 C80_3 1_555 1_555
C81_4 C80_3 1_555 1_555
C82_4 C81_4 1_555 1_555
H77_4 C82_4 1_555 1_555
C83_4 N20_3 1_555 1_555
H78_4 C83_4 1_555 1_555
C84_4 C78_5 1_555 1_555
H79_5 C84_4 1_555 1_555
H80_4 C84_4 1_555 1_555
N2_5 Mn2_5 1_555 1_555
N2_5 C8_5 1_555 1_555
C2_5 C7_5 1_555 1_555
C5_5 C6_5 1_555 1_555
N5_5 C23_5 1_555 1_555
N5_5 Mn3_5 1_555 1_555
O10_5 Mn7_4 1_555 1_555
N7_4 C34_4 1_555 1_555
N7_4 Mn7_4 1_555 1_555
C29_4 C34_4 1_555 1_555
C32_3 C33_3 1_555 1_555
N11_3 Mn5_3 1_555 1_555
N11_3 C50_5 1_555 1_555
C44_3 C49_3 1_555 1_555
C47_5 C48_5 1_555 1_555
O15_3 Mn7_4 1_555 1_555
N14_3 Mn7_4 1_555 1_555
N14_3 C59_3 1_555 1_555
C53_2 C58_2 1_555 1_555
C56_4 C57_4 1_555 1_555
N16_5 N17_5 1_555 1_555
N16_5 C70_5 1_555 1_555
N17_5 C71_5 1_555 1_555
C65_5 C70_5 1_555 1_555
C76_5 C77_5 1_555 1_555
C81_4 C84_4 1_555 1_555
C82_4 C83_4 1_555 1_555
Mn1_3 O1_5 1_555 1_555
O3_6 Mn1_3 1_555 1_555
C8_6 O3_6 1_555 1_555
C9_6 C8_6 1_555 1_555
H5_6 C9_6 1_555 1_555
H6_6 C9_6 1_555 1_555
H7_6 C9_6 1_555 1_555
H14_5 C18_5 1_555 1_555
C19_5 C18_5 1_555 1_555
H15_5 C19_5 1_555 1_555
C20_5 C19_5 1_555 1_555
H16_5 C20_5 1_555 1_555
H17_5 C21_5 1_555 1_555
O8_4 C28_4 1_555 1_555
O9_5 Mn1_3 1_555 1_555
N7_5 N8_5 1_555 1_555
N8_5 Mn1_3 1_555 1_555
C28_4 C29_5 1_555 1_555
C29_5 C30_5 1_555 1_555
C30_5 H28_5 1_555 1_555
C31_5 C30_5 1_555 1_555
H29_5 C31_5 1_555 1_555
C32_4 C31_5 1_555 1_555
H30_4 C32_4 1_555 1_555
C33_4 C28_4 1_555 1_555
H31_4 C33_4 1_555 1_555
C34_5 O9_5 1_555 1_555
C40_5 C39_5 1_555 1_555
H37_5 C40_5 1_555 1_555
H38_5 C41_5 1_555 1_555
H40_5 C42_5 1_555 1_555
O12_4 C49_4 1_555 1_555
N11_4 N10_4 1_555 1_555
C43_6 C44_4 1_555 1_555
C44_4 C45_4 1_555 1_555
C45_4 H41_4 1_555 1_555
C46_4 C45_4 1_555 1_555
H42_4 C46_4 1_555 1_555
C47_6 C46_4 1_555 1_555
H43_6 C47_6 1_555 1_555
C48_6 C43_6 1_555 1_555
H44_6 C48_6 1_555 1_555
C49_4 N10_4 1_555 1_555
Mn5_4 O12_4 1_555 1_555
O14_4 Mn5_4 1_555 1_555
O15_4 C58_3 1_555 1_555
O16_4 Mn5_4 1_555 1_555
N13_4 Mn5_4 1_555 1_555
N14_4 N13_4 1_555 1_555
C52_3 O14_4 1_555 1_555
C53_3 C52_3 1_555 1_555
C58_3 N13_4 1_555 1_555
C59_4 O16_4 1_555 1_555
C60_5 C59_4 1_555 1_555
H52_5 C60_5 1_555 1_555
H53_5 C60_5 1_555 1_555
H54_5 C60_5 1_555 1_555
O17_4 Mn5_4 1_555 1_555
N15_4 C61_4 1_555 1_555
C61_4 O17_4 1_555 1_555
H55_4 C61_4 1_555 1_555
C62_3 N15_4 1_555 1_555
H56_3 C62_3 1_555 1_555
H57_3 C62_3 1_555 1_555
H58_3 C62_3 1_555 1_555
C63_4 N15_4 1_555 1_555
H59_4 C63_4 1_555 1_555
H60_4 C63_4 1_555 1_555
H61_4 C63_4 1_555 1_555
C71_6 O20_6 1_555 1_555
C72_6 C71_6 1_555 1_555
H66_6 C72_6 1_555 1_555
H67_6 C72_6 1_555 1_555
H68_6 C72_6 1_555 1_555
N18_4 Mn1_3 1_555 1_555
Mn7_5 O8_4 1_555 1_555
N20_4 Mn7_5 1_555 1_555
C79_4 N20_4 1_555 1_555
H75_4 C79_4 1_555 1_555
C80_4 C79_4 1_555 1_555
H76_4 C80_4 1_555 1_555
C20_5 C21_5 1_555 1_555
N7_5 C34_5 1_555 1_555
N7_5 Mn7_5 1_555 1_555
C29_5 C34_5 1_555 1_555
C32_4 C33_4 1_555 1_555
C39_5 C42_5 1_555 1_555
C40_5 C41_5 1_555 1_555
N11_4 Mn5_4 1_555 1_555
C44_4 C49_4 1_555 1_555
C47_6 C48_6 1_555 1_555
O15_4 Mn7_5 1_555 1_555
N14_4 Mn7_5 1_555 1_555
N14_4 C59_4 1_555 1_555
C53_3 C58_3 1_555 1_555
O8_5 C28_5 1_555 1_555
H30_5 C32_5 1_555 1_555
C33_5 C28_5 1_555 1_555
H31_5 C33_5 1_555 1_555
O15_5 C58_4 1_555 1_555
C53_4 C52_4 1_555 1_555
C54_5 C53_4 1_555 1_555
H48_5 C54_5 1_555 1_555
C55_5 C54_5 1_555 1_555
H49_5 C55_5 1_555 1_555
C56_5 C55_5 1_555 1_555
H50_5 C56_5 1_555 1_555
C57_5 C52_4 1_555 1_555
H51_5 C57_5 1_555 1_555
H56_4 C62_4 1_555 1_555
H57_4 C62_4 1_555 1_555
H58_4 C62_4 1_555 1_555
N18_4 C73_6 1_555 1_555
C73_6 H69_6 1_555 1_555
C74_6 C73_6 1_555 1_555
H70_6 C74_6 1_555 1_555
C75_6 C74_6 1_555 1_555
C76_6 C75_6 1_555 1_555
H71_6 C76_6 1_555 1_555
C77_6 N18_4 1_555 1_555
H72_5 C77_6 1_555 1_555
C78_6 C75_6 1_555 1_555
H73_6 C78_6 1_555 1_555
H74_6 C78_6 1_555 1_555
C79_5 N20_5 1_555 1_555
H75_5 C79_5 1_555 1_555
C80_5 C79_5 1_555 1_555
H76_5 C80_5 1_555 1_555
C81_5 C80_5 1_555 1_555
C82_5 C81_5 1_555 1_555
H77_5 C82_5 1_555 1_555
C83_5 N20_5 1_555 1_555
H78_5 C83_5 1_555 1_555
C84_5 C78_6 1_555 1_555
H79_6 C84_5 1_555 1_555
H80_5 C84_5 1_555 1_555
C32_5 C33_5 1_555 1_555
C53_4 C58_4 1_555 1_555
C56_5 C57_5 1_555 1_555
C76_6 C77_6 1_555 1_555
C81_5 C84_5 1_555 1_555
C82_5 C83_5 1_555 1_555
O8_6 C28_6 1_555 1_555
H30_6 C32_6 1_555 1_555
C33_6 C28_6 1_555 1_555
H31_6 C33_6 1_555 1_555
O15_6 C58_5 1_555 1_555
C53_5 C52_5 1_555 1_555
C54_6 C53_5 1_555 1_555
H48_6 C54_6 1_555 1_555
C55_6 C54_6 1_555 1_555
H49_6 C55_6 1_555 1_555
C56_6 C55_6 1_555 1_555
H50_6 C56_6 1_555 1_555
C57_6 C52_5 1_555 1_555
H51_6 C57_6 1_555 1_555
H56_5 C62_5 1_555 1_555
H57_5 C62_5 1_555 1_555
H58_5 C62_5 1_555 1_555
Mn8_3 N19_3 1_555 1_555
N19_3 C73_7 1_555 1_555
C73_7 H69_7 1_555 1_555
C74_7 C73_7 1_555 1_555
H70_7 C74_7 1_555 1_555
C75_7 C74_7 1_555 1_555
C76_7 C75_7 1_555 1_555
H71_7 C76_7 1_555 1_555
C77_7 N19_3 1_555 1_555
H72_6 C77_7 1_555 1_555
C78_7 C75_7 1_555 1_555
H73_7 C78_7 1_555 1_555
H74_7 C78_7 1_555 1_555
C79_6 N20_6 1_555 1_555
H75_6 C79_6 1_555 1_555
C80_6 C79_6 1_555 1_555
H76_6 C80_6 1_555 1_555
C81_6 C80_6 1_555 1_555
C82_6 C81_6 1_555 1_555
H77_6 C82_6 1_555 1_555
C83_6 N20_6 1_555 1_555
H78_6 C83_6 1_555 1_555
C84_6 C78_7 1_555 1_555
H79_7 C84_6 1_555 1_555
H80_6 C84_6 1_555 1_555
C32_6 C33_6 1_555 1_555
C53_5 C58_5 1_555 1_555
C56_6 C57_6 1_555 1_555
C76_7 C77_7 1_555 1_555
C81_6 C84_6 1_555 1_555
C82_6 C83_6 1_555 1_555
N3_5 C10_6 1_555 1_555
C10_6 H8_6 1_555 1_555
C11_6 C10_6 1_555 1_555
H9_6 C11_6 1_555 1_555
C12_6 C11_6 1_555 1_555
C13_6 C12_6 1_555 1_555
H10_6 C13_6 1_555 1_555
C14_6 N3_5 1_555 1_555
H11_6 C14_6 1_555 1_555
C15_6 C12_6 1_555 1_555
H12_6 C15_6 1_555 1_555
H13_6 C15_6 1_555 1_555
O5_5 C22_5 1_555 1_555
C17_5 C16_5 1_555 1_555
C18_6 C17_5 1_555 1_555
H14_6 C18_6 1_555 1_555
C19_6 C18_6 1_555 1_555
H15_6 C19_6 1_555 1_555
C20_6 C19_6 1_555 1_555
H16_6 C20_6 1_555 1_555
C21_6 C16_5 1_555 1_555
H17_6 C21_6 1_555 1_555
H22_5 C26_5 1_555 1_555
H23_5 C26_5 1_555 1_555
H24_5 C26_5 1_555 1_555
C37_5 N9_5 1_555 1_555
H35_5 C37_5 1_555 1_555
C38_5 C37_5 1_555 1_555
H36_5 C38_5 1_555 1_555
C39_6 C38_5 1_555 1_555
C40_6 C39_6 1_555 1_555
H37_6 C40_6 1_555 1_555
C41_6 N9_5 1_555 1_555
H38_6 C41_6 1_555 1_555
C42_6 C15_6 1_555 1_555
H39_6 C42_6 1_555 1_555
H40_6 C42_6 1_555 1_555
C64_5 O18_5 1_555 1_555
H64_5 C68_5 1_555 1_555
C69_5 C64_5 1_555 1_555
H65_5 C69_5 1_555 1_555
Mn6_5 N3_5 1_555 1_555
C13_6 C14_6 1_555 1_555
C17_5 C22_5 1_555 1_555
C20_6 C21_6 1_555 1_555
C39_6 C42_6 1_555 1_555
C40_6 C41_6 1_555 1_555
C68_5 C69_5 1_555 1_555
Mn8_3 O1_6 1_555 1_555
O1_6 C1_6 1_555 1_555
O2_6 C7_6 1_555 1_555
O3_7 Mn8_3 1_555 1_555
N1_6 Mn8_3 1_555 1_555
N2_6 N1_6 1_555 1_555
C1_6 C2_6 1_555 1_555
C2_6 C3_6 1_555 1_555
C3_6 H1_6 1_555 1_555
C4_6 C3_6 1_555 1_555
H2_6 C4_6 1_555 1_555
C5_6 C4_6 1_555 1_555
H3_6 C5_6 1_555 1_555
C6_6 C1_6 1_555 1_555
H4_6 C6_6 1_555 1_555
C7_6 N1_6 1_555 1_555
C8_7 O3_7 1_555 1_555
C9_7 C8_7 1_555 1_555
H5_7 C9_7 1_555 1_555
H6_7 C9_7 1_555 1_555
H7_7 C9_7 1_555 1_555
Mn2_6 O2_6 1_555 1_555
O4_6 Mn2_6 1_555 1_555
O5_6 C22_6 1_555 1_555
O6_6 Mn2_6 1_555 1_555
N4_6 Mn2_6 1_555 1_555
N5_6 N4_6 1_555 1_555
C16_6 O4_6 1_555 1_555
C17_6 C16_6 1_555 1_555
C18_7 C17_6 1_555 1_555
H14_7 C18_7 1_555 1_555
C19_7 C18_7 1_555 1_555
H15_7 C19_7 1_555 1_555
C20_7 C19_7 1_555 1_555
H16_7 C20_7 1_555 1_555
C21_7 C16_6 1_555 1_555
H17_7 C21_7 1_555 1_555
C22_6 N4_6 1_555 1_555
C23_6 O6_6 1_555 1_555
C24_6 C23_6 1_555 1_555
H18_6 C24_6 1_555 1_555
H19_6 C24_6 1_555 1_555
H20_6 C24_6 1_555 1_555
O7_6 Mn2_6 1_555 1_555
N6_6 C25_6 1_555 1_555
C25_6 O7_6 1_555 1_555
H21_6 C25_6 1_555 1_555
C26_6 N6_6 1_555 1_555
H22_6 C26_6 1_555 1_555
H23_6 C26_6 1_555 1_555
H24_6 C26_6 1_555 1_555
C27_6 N6_6 1_555 1_555
H25_6 C27_6 1_555 1_555
H26_6 C27_6 1_555 1_555
H27_6 C27_6 1_555 1_555
Mn3_6 O5_6 1_555 1_555
O8_7 C28_7 1_555 1_555
O9_6 Mn8_3 1_555 1_555
O10_6 C35_6 1_555 1_555
N7_6 N8_6 1_555 1_555
N8_6 Mn8_3 1_555 1_555
C28_7 C29_6 1_555 1_555
C29_6 C30_6 1_555 1_555
C30_6 H28_6 1_555 1_555
C31_6 C30_6 1_555 1_555
H29_6 C31_6 1_555 1_555
C32_7 C31_6 1_555 1_555
H30_7 C32_7 1_555 1_555
C33_7 C28_7 1_555 1_555
H31_7 C33_7 1_555 1_555
C34_6 O9_6 1_555 1_555
C35_6 N8_6 1_555 1_555
C36_6 C35_6 1_555 1_555
H32_6 C36_6 1_555 1_555
H33_6 C36_6 1_555 1_555
H34_6 C36_6 1_555 1_555
N9_6 Mn3_6 1_555 1_555
C37_6 N9_6 1_555 1_555
H35_6 C37_6 1_555 1_555
C38_6 C37_6 1_555 1_555
H36_6 C38_6 1_555 1_555
C39_7 C38_6 1_555 1_555
C40_7 C39_7 1_555 1_555
H37_7 C40_7 1_555 1_555
C41_7 N9_6 1_555 1_555
H38_7 C41_7 1_555 1_555
H40_7 C42_7 1_555 1_555
Mn6_5 O11_6 1_555 1_555
O11_6 C43_7 1_555 1_555
O12_5 C49_5 1_555 1_555
O13_6 Mn6_5 1_555 1_555
N10_5 Mn6_5 1_555 1_555
N11_5 N10_5 1_555 1_555
C43_7 C44_5 1_555 1_555
C44_5 C45_5 1_555 1_555
C45_5 H41_5 1_555 1_555
C46_5 C45_5 1_555 1_555
H42_5 C46_5 1_555 1_555
C47_7 C46_5 1_555 1_555
H43_7 C47_7 1_555 1_555
C48_7 C43_7 1_555 1_555
H44_7 C48_7 1_555 1_555
C49_5 N10_5 1_555 1_555
C50_6 O13_6 1_555 1_555
C51_6 C50_6 1_555 1_555
H45_6 C51_6 1_555 1_555
H46_6 C51_6 1_555 1_555
H47_6 C51_6 1_555 1_555
Mn5_5 O12_5 1_555 1_555
O14_5 Mn5_5 1_555 1_555
O15_7 C58_6 1_555 1_555
O16_5 Mn5_5 1_555 1_555
N13_5 Mn5_5 1_555 1_555
N14_5 N13_5 1_555 1_555
C52_6 O14_5 1_555 1_555
C53_6 C52_6 1_555 1_555
C54_7 C53_6 1_555 1_555
H48_7 C54_7 1_555 1_555
C55_7 C54_7 1_555 1_555
H49_7 C55_7 1_555 1_555
C56_7 C55_7 1_555 1_555
H50_7 C56_7 1_555 1_555
C57_7 C52_6 1_555 1_555
H51_7 C57_7 1_555 1_555
C58_6 N13_5 1_555 1_555
C59_5 O16_5 1_555 1_555
C60_6 C59_5 1_555 1_555
H52_6 C60_6 1_555 1_555
H53_6 C60_6 1_555 1_555
H54_6 C60_6 1_555 1_555
O17_5 Mn5_5 1_555 1_555
N15_5 C61_5 1_555 1_555
C61_5 O17_5 1_555 1_555
H55_5 C61_5 1_555 1_555
C62_6 N15_5 1_555 1_555
H56_6 C62_6 1_555 1_555
H57_6 C62_6 1_555 1_555
H58_6 C62_6 1_555 1_555
C63_5 N15_5 1_555 1_555
H59_5 C63_5 1_555 1_555
H60_5 C63_5 1_555 1_555
H61_5 C63_5 1_555 1_555
O18_6 Mn3_6 1_555 1_555
O19_6 Mn6_5 1_555 1_555
O20_7 Mn3_6 1_555 1_555
N16_6 Mn3_6 1_555 1_555
N17_6 Mn6_5 1_555 1_555
C64_6 O18_6 1_555 1_555
C65_6 C64_6 1_555 1_555
C66_6 C65_6 1_555 1_555
H62_6 C66_6 1_555 1_555
C67_6 C66_6 1_555 1_555
H63_6 C67_6 1_555 1_555
C68_6 C67_6 1_555 1_555
H64_6 C68_6 1_555 1_555
C69_6 C64_6 1_555 1_555
H65_6 C69_6 1_555 1_555
C70_6 O19_6 1_555 1_555
C71_7 O20_7 1_555 1_555
C72_7 C71_7 1_555 1_555
H66_7 C72_7 1_555 1_555
H67_7 C72_7 1_555 1_555
H68_7 C72_7 1_555 1_555
Mn7_6 O8_7 1_555 1_555
N20_7 Mn7_6 1_555 1_555
C79_7 N20_7 1_555 1_555
H75_7 C79_7 1_555 1_555
C80_7 C79_7 1_555 1_555
H76_7 C80_7 1_555 1_555
C81_7 C80_7 1_555 1_555
C82_7 C81_7 1_555 1_555
H77_7 C82_7 1_555 1_555
C83_7 N20_7 1_555 1_555
H78_7 C83_7 1_555 1_555
H80_7 C84_7 1_555 1_555
N2_6 Mn2_6 1_555 1_555
N2_6 C8_7 1_555 1_555
C2_6 C7_6 1_555 1_555
C5_6 C6_6 1_555 1_555
N5_6 C23_6 1_555 1_555
N5_6 Mn3_6 1_555 1_555
C17_6 C22_6 1_555 1_555
C20_7 C21_7 1_555 1_555
O10_6 Mn7_6 1_555 1_555
N7_6 C34_6 1_555 1_555
N7_6 Mn7_6 1_555 1_555
C29_6 C34_6 1_555 1_555
C32_7 C33_7 1_555 1_555
C39_7 C42_7 1_555 1_555
C40_7 C41_7 1_555 1_555
N11_5 Mn5_5 1_555 1_555
N11_5 C50_6 1_555 1_555
C44_5 C49_5 1_555 1_555
C47_7 C48_7 1_555 1_555
O15_7 Mn7_6 1_555 1_555
N14_5 Mn7_6 1_555 1_555
N14_5 C59_5 1_555 1_555
C53_6 C58_6 1_555 1_555
C56_7 C57_7 1_555 1_555
N16_6 N17_6 1_555 1_555
N16_6 C70_6 1_555 1_555
N17_6 C71_7 1_555 1_555
C65_6 C70_6 1_555 1_555
C68_6 C69_6 1_555 1_555
C81_7 C84_7 1_555 1_555
C82_7 C83_7 1_555 1_555
H18_7 C24_7 1_555 1_555
H19_7 C24_7 1_555 1_555
H20_7 C24_7 1_555 1_555
Mn3_7 O5_7 1_555 1_555
N9_7 Mn3_7 1_555 1_555
C37_7 N9_7 1_555 1_555
H35_7 C37_7 1_555 1_555
C38_7 C37_7 1_555 1_555
H36_7 C38_7 1_555 1_555
Mn6_6 O11_7 1_555 1_555
O18_7 Mn3_7 1_555 1_555
O19_7 Mn6_6 1_555 1_555
N16_7 Mn3_7 1_555 1_555
N17_7 Mn6_6 1_555 1_555
C64_7 O18_7 1_555 1_555
C65_7 C64_7 1_555 1_555
C66_7 C65_7 1_555 1_555
H62_7 C66_7 1_555 1_555
C67_7 C66_7 1_555 1_555
H63_7 C67_7 1_555 1_555
C68_7 C67_7 1_555 1_555
H64_7 C68_7 1_555 1_555
C69_7 C64_7 1_555 1_555
H65_7 C69_7 1_555 1_555
C70_7 O19_7 1_555 1_555
N16_7 N17_7 1_555 1_555
N16_7 C70_7 1_555 1_555
C65_7 C70_7 1_555 1_555
C68_7 C69_7 1_555 1_555
Mn1_4 O1_7 1_555 1_555
O8_8 C28_8 1_555 1_555
O9_7 Mn1_4 1_555 1_555
N7_7 N8_7 1_555 1_555
N8_7 Mn1_4 1_555 1_555
C28_8 C29_7 1_555 1_555
C29_7 C30_7 1_555 1_555
C30_7 H28_7 1_555 1_555
C31_7 C30_7 1_555 1_555
H29_7 C31_7 1_555 1_555
C32_8 C31_7 1_555 1_555
H30_8 C32_8 1_555 1_555
C33_8 C28_8 1_555 1_555
H31_8 C33_8 1_555 1_555
C34_7 O9_7 1_555 1_555
H52_7 C60_7 1_555 1_555
H53_7 C60_7 1_555 1_555
H54_7 C60_7 1_555 1_555
Mn7_7 O8_8 1_555 1_555
N20_8 Mn7_7 1_555 1_555
C79_8 N20_8 1_555 1_555
H75_8 C79_8 1_555 1_555
C80_8 C79_8 1_555 1_555
H76_8 C80_8 1_555 1_555
N7_7 C34_7 1_555 1_555
N7_7 Mn7_7 1_555 1_555
C29_7 C34_7 1_555 1_555
C32_8 C33_8 1_555 1_555
O15_8 Mn7_7 1_555 1_555
H3_7 C5_7 1_555 1_555
C6_7 C1_7 1_555 1_555
H4_7 C6_7 1_555 1_555
O10_7 C35_7 1_555 1_555
C36_7 C35_7 1_555 1_555
H32_7 C36_7 1_555 1_555
H33_7 C36_7 1_555 1_555
H34_7 C36_7 1_555 1_555
Mn8_4 N19_4 1_555 1_555
N19_4 C73_8 1_555 1_555
C73_8 H69_8 1_555 1_555
C74_8 C73_8 1_555 1_555
H70_8 C74_8 1_555 1_555
C75_8 C74_8 1_555 1_555
C76_8 C75_8 1_555 1_555
H71_8 C76_8 1_555 1_555
C77_8 N19_4 1_555 1_555
H72_8 C77_8 1_555 1_555
C78_8 C75_8 1_555 1_555
H73_8 C78_8 1_555 1_555
H74_8 C78_8 1_555 1_555
C82_8 C81_8 1_555 1_555
H77_8 C82_8 1_555 1_555
H78_8 C83_8 1_555 1_555
C84_8 C78_8 1_555 1_555
H79_8 C84_8 1_555 1_555
H80_8 C84_8 1_555 1_555
C5_7 C6_7 1_555 1_555
C76_8 C77_8 1_555 1_555
C81_8 C84_8 1_555 1_555
C82_8 C83_8 1_555 1_555
Mn8_4 O1_8 1_555 1_555
O1_8 C1_8 1_555 1_555
O2_7 C7_7 1_555 1_555
O3_8 Mn8_4 1_555 1_555
N1_7 Mn8_4 1_555 1_555
N2_7 N1_7 1_555 1_555
C1_8 C2_7 1_555 1_555
C2_7 C3_7 1_555 1_555
C3_7 H1_7 1_555 1_555
C4_7 C3_7 1_555 1_555
H2_7 C4_7 1_555 1_555
C5_8 C4_7 1_555 1_555
H3_8 C5_8 1_555 1_555
C6_8 C1_8 1_555 1_555
H4_8 C6_8 1_555 1_555
C7_7 N1_7 1_555 1_555
C8_8 O3_8 1_555 1_555
C9_8 C8_8 1_555 1_555
H5_8 C9_8 1_555 1_555
H6_8 C9_8 1_555 1_555
H7_8 C9_8 1_555 1_555
N3_6 C10_7 1_555 1_555
C10_7 H8_7 1_555 1_555
C11_7 C10_7 1_555 1_555
H9_7 C11_7 1_555 1_555
C12_7 C11_7 1_555 1_555
C13_7 C12_7 1_555 1_555
H10_7 C13_7 1_555 1_555
C14_7 N3_6 1_555 1_555
C15_7 C12_7 1_555 1_555
H12_7 C15_7 1_555 1_555
H13_7 C15_7 1_555 1_555
Mn2_7 O2_7 1_555 1_555
O4_7 Mn2_7 1_555 1_555
O5_8 C22_7 1_555 1_555
O6_7 Mn2_7 1_555 1_555
N4_7 Mn2_7 1_555 1_555
N5_7 N4_7 1_555 1_555
C16_7 O4_7 1_555 1_555
C17_7 C16_7 1_555 1_555
C18_8 C17_7 1_555 1_555
H14_8 C18_8 1_555 1_555
C19_8 C18_8 1_555 1_555
H15_8 C19_8 1_555 1_555
C20_8 C19_8 1_555 1_555
H16_8 C20_8 1_555 1_555
C21_8 C16_7 1_555 1_555
H17_8 C21_8 1_555 1_555
C22_7 N4_7 1_555 1_555
C23_7 O6_7 1_555 1_555
C24_8 C23_7 1_555 1_555
H18_8 C24_8 1_555 1_555
H19_8 C24_8 1_555 1_555
H20_8 C24_8 1_555 1_555
O7_7 Mn2_7 1_555 1_555
N6_7 C25_7 1_555 1_555
C25_7 O7_7 1_555 1_555
H21_7 C25_7 1_555 1_555
C26_7 N6_7 1_555 1_555
H22_7 C26_7 1_555 1_555
H23_7 C26_7 1_555 1_555
H24_7 C26_7 1_555 1_555
C27_7 N6_7 1_555 1_555
H25_7 C27_7 1_555 1_555
H26_7 C27_7 1_555 1_555
H27_7 C27_7 1_555 1_555
Mn3_8 O5_8 1_555 1_555
O9_8 Mn8_4 1_555 1_555
O10_8 C35_8 1_555 1_555
N7_8 N8_8 1_555 1_555
N8_8 Mn8_4 1_555 1_555
C29_8 C30_8 1_555 1_555
C30_8 H28_8 1_555 1_555
C31_8 C30_8 1_555 1_555
H29_8 C31_8 1_555 1_555
C34_8 O9_8 1_555 1_555
C35_8 N8_8 1_555 1_555
C36_8 C35_8 1_555 1_555
H32_8 C36_8 1_555 1_555
H33_8 C36_8 1_555 1_555
H34_8 C36_8 1_555 1_555
N9_8 Mn3_8 1_555 1_555
C37_8 N9_8 1_555 1_555
H35_8 C37_8 1_555 1_555
C38_8 C37_8 1_555 1_555
H36_8 C38_8 1_555 1_555
C39_8 C38_8 1_555 1_555
C40_8 C39_8 1_555 1_555
H37_8 C40_8 1_555 1_555
C41_8 N9_8 1_555 1_555
H38_8 C41_8 1_555 1_555
C42_8 C15_7 1_555 1_555
H39_7 C42_8 1_555 1_555
H40_8 C42_8 1_555 1_555
Mn4_2 O11_8 1_555 1_555
O11_8 C43_8 1_555 1_555
O12_6 C49_6 1_555 1_555
O13_7 Mn4_2 1_555 1_555
N10_6 Mn4_2 1_555 1_555
N11_6 N10_6 1_555 1_555
C43_8 C44_6 1_555 1_555
C44_6 C45_6 1_555 1_555
C45_6 H41_6 1_555 1_555
C46_6 C45_6 1_555 1_555
H42_6 C46_6 1_555 1_555
C47_8 C46_6 1_555 1_555
H43_8 C47_8 1_555 1_555
C48_8 C43_8 1_555 1_555
H44_8 C48_8 1_555 1_555
C49_6 N10_6 1_555 1_555
C50_7 O13_7 1_555 1_555
C51_7 C50_7 1_555 1_555
H45_7 C51_7 1_555 1_555
H46_7 C51_7 1_555 1_555
H47_7 C51_7 1_555 1_555
N12_2 Mn4_2 1_555 1_555
Mn5_6 O12_6 1_555 1_555
O14_6 Mn5_6 1_555 1_555
O16_6 Mn5_6 1_555 1_555
N13_6 Mn5_6 1_555 1_555
N14_6 N13_6 1_555 1_555
C59_6 O16_6 1_555 1_555
C60_8 C59_6 1_555 1_555
H52_8 C60_8 1_555 1_555
H53_8 C60_8 1_555 1_555
H54_8 C60_8 1_555 1_555
O17_6 Mn5_6 1_555 1_555
N15_6 C61_6 1_555 1_555
C61_6 O17_6 1_555 1_555
H55_6 C61_6 1_555 1_555
C63_6 N15_6 1_555 1_555
H59_6 C63_6 1_555 1_555
H60_6 C63_6 1_555 1_555
H61_6 C63_6 1_555 1_555
O18_8 Mn3_8 1_555 1_555
O19_8 Mn4_2 1_555 1_555
O20_8 Mn3_8 1_555 1_555
N16_8 Mn3_8 1_555 1_555
N17_8 Mn4_2 1_555 1_555
C64_8 O18_8 1_555 1_555
C65_8 C64_8 1_555 1_555
C66_8 C65_8 1_555 1_555
H62_8 C66_8 1_555 1_555
C67_8 C66_8 1_555 1_555
H63_8 C67_8 1_555 1_555
C68_8 C67_8 1_555 1_555
H64_8 C68_8 1_555 1_555
C69_8 C64_8 1_555 1_555
H65_8 C69_8 1_555 1_555
C70_8 O19_8 1_555 1_555
C71_8 O20_8 1_555 1_555
C72_8 C71_8 1_555 1_555
H66_8 C72_8 1_555 1_555
H67_8 C72_8 1_555 1_555
H68_8 C72_8 1_555 1_555
N2_7 Mn2_7 1_555 1_555
N2_7 C8_8 1_555 1_555
C2_7 C7_7 1_555 1_555
C5_8 C6_8 1_555 1_555
C13_7 C14_7 1_555 1_555
N5_7 C23_7 1_555 1_555
N5_7 Mn3_8 1_555 1_555
C17_7 C22_7 1_555 1_555
C20_8 C21_8 1_555 1_555
O10_8 Mn7_8 1_555 1_555
N7_8 C34_8 1_555 1_555
N7_8 Mn7_8 1_555 1_555
C29_8 C34_8 1_555 1_555
C39_8 C42_8 1_555 1_555
C40_8 C41_8 1_555 1_555
N11_6 Mn5_6 1_555 1_555
N11_6 C50_7 1_555 1_555
C44_6 C49_6 1_555 1_555
C47_8 C48_8 1_555 1_555
N14_6 Mn7_8 1_555 1_555
N14_6 C59_6 1_555 1_555
N16_8 N17_8 1_555 1_555
N16_8 C70_8 1_555 1_555
N17_8 C71_8 1_555 1_555
C65_8 C70_8 1_555 1_555
C68_8 C69_8 1_555 1_555
O12_7 C49_7 1_555 1_555
N11_7 N10_7 1_555 1_555
C44_7 C45_7 1_555 1_555
C45_7 H41_7 1_555 1_555
C46_7 C45_7 1_555 1_555
H42_7 C46_7 1_555 1_555
C49_7 N10_7 1_555 1_555
C50_8 O13_8 1_555 1_555
C51_8 C50_8 1_555 1_555
H45_8 C51_8 1_555 1_555
H46_8 C51_8 1_555 1_555
H47_8 C51_8 1_555 1_555
Mn5_7 O12_7 1_555 1_555
O14_7 Mn5_7 1_555 1_555
O16_7 Mn5_7 1_555 1_555
N13_7 Mn5_7 1_555 1_555
N14_7 N13_7 1_555 1_555
C52_7 O14_7 1_555 1_555
C53_7 C52_7 1_555 1_555
C54_8 C53_7 1_555 1_555
H48_8 C54_8 1_555 1_555
C55_8 C54_8 1_555 1_555
H49_8 C55_8 1_555 1_555
C56_8 C55_8 1_555 1_555
H50_8 C56_8 1_555 1_555
C57_8 C52_7 1_555 1_555
H51_8 C57_8 1_555 1_555
C58_7 N13_7 1_555 1_555
C59_7 O16_7 1_555 1_555
O17_7 Mn5_7 1_555 1_555
N15_7 C61_7 1_555 1_555
C61_7 O17_7 1_555 1_555
H55_7 C61_7 1_555 1_555
C62_7 N15_7 1_555 1_555
H56_7 C62_7 1_555 1_555
H57_7 C62_7 1_555 1_555
H58_7 C62_7 1_555 1_555
C63_7 N15_7 1_555 1_555
H59_7 C63_7 1_555 1_555
H60_7 C63_7 1_555 1_555
H61_7 C63_7 1_555 1_555
N11_7 Mn5_7 1_555 1_555
N11_7 C50_8 1_555 1_555
C44_7 C49_7 1_555 1_555
N14_7 C59_7 1_555 1_555
C53_7 C58_7 1_555 1_555
C56_8 C57_8 1_555 1_555
N12_2 C10_8 1_555 1_555
C10_8 H8_8 1_555 1_555
C11_8 C10_8 1_555 1_555
H9_8 C11_8 1_555 1_555
C12_8 C11_8 1_555 1_555
C13_8 C12_8 1_555 1_555
H10_8 C13_8 1_555 1_555
C14_8 N12_2 1_555 1_555
H11_8 C14_8 1_555 1_555
C15_8 C12_8 1_555 1_555
H12_8 C15_8 1_555 1_555
H13_8 C15_8 1_555 1_555
C13_8 C14_8 1_555 1_555
O2_8 C7_8 1_555 1_555
N2_8 N1_8 1_555 1_555
C2_8 C3_8 1_555 1_555
C3_8 H1_8 1_555 1_555
C4_8 C3_8 1_555 1_555
H2_8 C4_8 1_555 1_555
C7_8 N1_8 1_555 1_555
Mn2_8 O2_8 1_555 1_555
O4_8 Mn2_8 1_555 1_555
O6_8 Mn2_8 1_555 1_555
N4_8 Mn2_8 1_555 1_555
N5_8 N4_8 1_555 1_555
C16_8 O4_8 1_555 1_555
C17_8 C16_8 1_555 1_555
C22_8 N4_8 1_555 1_555
C23_8 O6_8 1_555 1_555
O7_8 Mn2_8 1_555 1_555
N6_8 C25_8 1_555 1_555
C25_8 O7_8 1_555 1_555
H21_8 C25_8 1_555 1_555
C26_8 N6_8 1_555 1_555
H22_8 C26_8 1_555 1_555
H23_8 C26_8 1_555 1_555
H24_8 C26_8 1_555 1_555
C27_8 N6_8 1_555 1_555
H25_8 C27_8 1_555 1_555
H26_8 C27_8 1_555 1_555
H27_8 C27_8 1_555 1_555
N2_8 Mn2_8 1_555 1_555
C2_8 C7_8 1_555 1_555
N5_8 C23_8 1_555 1_555
C17_8 C22_8 1_555 1_555
O12_8 C49_8 1_555 1_555
N11_8 N10_8 1_555 1_555
C44_8 C45_8 1_555 1_555
C45_8 H41_8 1_555 1_555
C46_8 C45_8 1_555 1_555
H42_8 C46_8 1_555 1_555
C49_8 N10_8 1_555 1_555
Mn5_8 O12_8 1_555 1_555
O14_8 Mn5_8 1_555 1_555
O16_8 Mn5_8 1_555 1_555
N13_8 Mn5_8 1_555 1_555
N14_8 N13_8 1_555 1_555
C52_8 O14_8 1_555 1_555
C53_8 C52_8 1_555 1_555
C58_8 N13_8 1_555 1_555
C59_8 O16_8 1_555 1_555
O17_8 Mn5_8 1_555 1_555
N15_8 C61_8 1_555 1_555
C61_8 O17_8 1_555 1_555
H55_8 C61_8 1_555 1_555
C62_8 N15_8 1_555 1_555
H56_8 C62_8 1_555 1_555
H57_8 C62_8 1_555 1_555
H58_8 C62_8 1_555 1_555
C63_8 N15_8 1_555 1_555
H59_8 C63_8 1_555 1_555
H60_8 C63_8 1_555 1_555
H61_8 C63_8 1_555 1_555
N11_8 Mn5_8 1_555 1_555
C44_8 C49_8 1_555 1_555
N14_8 C59_8 1_555 1_555
C53_8 C58_8 1_555 1_555

#END
