
###############################################################################
#
# This file contains modified crystal structure data generated from the
# MOF subset of the Cambridge Structural Database (CSD) v543 
# hosted by the Cambridge Crystallographic Data Centre (CCDC).
#
# This work is licensed under the Creative Commons
# Attribution-NonCommercial-ShareAlike 4.0 International License.
# To view a copy of this license, visit
# http://creativecommons.org/licenses/by-nc-sa/4.0/
# or send a letter to
# Creative Commons, PO Box 1866, Mountain View, CA 94042, USA.
#
# CIF created using the CSD Python API on 29 September 2022
# The structure has been converted into the P1 space group
# The structure has a 3D framework
# The original CSD entry MEJQID is in the orthorhombic crystal system
# The framework has been calculated to contain at least 10.0% void space
# The void calculation uses a probe of radius 1.32A, grid spacing 0.4
#
###############################################################################

data_MEJQID
_chemical_formula_moiety         '(C44 H32 N24 O8 Zn4)n'
_symmetry_cell_setting           triclinic
_symmetry_space_group_name_H-M   'P 1'
_symmetry_Int_Tables_number      1
_space_group_name_Hall           'P 1'
loop_
_symmetry_equiv_pos_site_id
_symmetry_equiv_pos_as_xyz
1 x,y,z
_cell_length_a                   18.6627(5)
_cell_length_b                   10.5533(4)
_cell_length_c                   8.9082(3)
_cell_angle_alpha                90
_cell_angle_beta                 90
_cell_angle_gamma                90
_cell_volume                     1754.5
loop_
_atom_site_label
_atom_site_type_symbol
_atom_site_fract_x
_atom_site_fract_y
_atom_site_fract_z
Zn1 Zn 0.60093(5) 0.01529(10) 0.1295(3)
N1 N 0.5218(5) 0.0749(9) 0.0039(11)
N2 N 0.4639(5) 0.2312(9) 0.1567(13)
C2 C 0.4052(6) 0.3059(11) 0.1564(18)
H2 H 0.3996 0.3587 0.2392
N4 N 0.3562(5) 0.3128(10) 0.0559(12)
C5 C 0.4677(6) 0.1598(10) 0.0332(13)
N8 N 0.6659(5) 0.1497(9) 0.2200(12)
C1 C 0.5026(8) 0.0235(11) 0.8697(19)
N3 N 0.4407(5) 0.0684(9) 0.8127(12)
C3 C 0.3598(6) 0.2391(11) 0.9348(17)
C4 C 0.4188(6) 0.1569(10) 0.9204(14)
N5 N 0.3068(5) 0.2490(11) 0.8291(14)
H3 H 0.2723 0.3019 0.8418
H4 H 0.3081 0.2022 0.7501
O2 O 0.6940(5) 0.0332(8) 0.8729(12)
O1 O 0.6613(4) 0.8848(8) 0.0368(10)
N7 N 0.5593(5) 0.9316(9) 0.3127(12)
H1 H 0.5300 0.9624 0.8212
N6 N 0.8341(5) 0.6497(9) 0.7200(12)
C6 C 0.6957(6) 0.9247(11) 0.9224(14)
C7 C 0.7430(6) 0.7020(11) 0.8952(14)
H5 H 0.7130 0.6761 0.9729
C8 C 0.7440(6) 0.8275(11) 0.8457(15)
C9 C 0.7889(7) 0.6167(12) 0.8228(18)
H6 H 0.7868 0.5317 0.8502
C10 C 0.8338(6) 0.7698(12) 0.6713(16)
H7 H 0.8638 0.7928 0.5924
C11 C 0.7896(6) 0.8612(12) 0.7366(16)
H8 H 0.7917 0.9450 0.7044
Zn2 Zn 0.39907(5) 0.98471(10) 0.6295(3)
Zn3 Zn 0.89907(5) 0.51529(10) 0.6295(3)
H1_2 H 0.4700 0.0376 0.3212
O1_2 O 0.3387(4) 0.1152(8) 0.5368(10)
N6_2 N 0.1659(5) 0.3503(9) 0.2200(12)
C6_2 C 0.3043(6) 0.0753(11) 0.4224(14)
C7_2 C 0.2570(6) 0.2980(11) 0.3952(14)
H5_2 H 0.2870 0.3239 0.4729
C8_2 C 0.2560(6) 0.1725(11) 0.3457(15)
C9_2 C 0.2111(7) 0.3833(12) 0.3228(18)
H6_2 H 0.2132 0.4683 0.3502
C10_2 C 0.1662(6) 0.2302(12) 0.1713(16)
H7_2 H 0.1362 0.2072 0.0924
C11_2 C 0.2104(6) 0.1388(12) 0.2366(16)
H8_2 H 0.2083 0.0550 0.2044
Zn3_2 Zn 0.10093(5) 0.48471(10) 0.1295(3)
C1_2 C 0.4974(8) 0.9765(11) 0.3697(19)
N1_2 N 0.4782(5) 0.9251(9) 0.5039(11)
N2_2 N 0.5361(5) 0.7688(9) 0.6567(13)
C2_2 C 0.5948(6) 0.6941(11) 0.6564(18)
H2_2 H 0.6004 0.6413 0.7392
C3_2 C 0.6402(6) 0.7609(11) 0.4348(17)
N4_2 N 0.6438(5) 0.6872(10) 0.5559(12)
C4_2 C 0.5812(6) 0.8431(10) 0.4204(14)
C5_2 C 0.5323(6) 0.8402(10) 0.5332(13)
N5_2 N 0.6932(5) 0.7510(11) 0.3291(14)
H3_2 H 0.7277 0.6981 0.3418
H4_2 H 0.6919 0.7978 0.2501
O2_2 O 0.3060(5) 0.9668(8) 0.3729(12)
N8_2 N 0.3341(5) 0.8503(9) 0.7200(12)
N1_3 N 0.0218(5) 0.4251(9) 0.0039(11)
O1_3 O 0.1613(4) 0.6152(8) 0.0368(10)
N7_2 N 0.0593(5) 0.5684(9) 0.3127(12)
C1_3 C 0.0026(8) 0.4765(11) 0.8697(19)
H1_3 H 0.0300 0.5376 0.8212
O2_3 O 0.1940(5) 0.4668(8) 0.8729(12)
C6_3 C 0.1957(6) 0.5753(11) 0.9224(14)
C7_3 C 0.2430(6) 0.7980(11) 0.8952(14)
H5_3 H 0.2130 0.8239 0.9729
C8_3 C 0.2440(6) 0.6725(11) 0.8457(15)
C9_3 C 0.2889(7) 0.8833(12) 0.8228(18)
H6_3 H 0.2868 0.9683 0.8502
C10_3 C 0.3338(6) 0.7302(12) 0.6713(16)
H7_3 H 0.3638 0.7072 0.5924
C11_3 C 0.2896(6) 0.6388(12) 0.7366(16)
H8_3 H 0.2917 0.5550 0.7044
N3_2 N 0.9407(5) 0.4316(9) 0.8127(12)
C3_3 C 0.8598(6) 0.2609(11) 0.9348(17)
C4_3 C 0.9188(6) 0.3431(10) 0.9204(14)
N5_3 N 0.8068(5) 0.2510(11) 0.8291(14)
H3_3 H 0.7723 0.1981 0.8418
H4_3 H 0.8081 0.2978 0.7501
N2_3 N 0.0361(5) 0.7312(9) 0.6567(13)
C2_3 C 0.0948(6) 0.8059(11) 0.6564(18)
H2_3 H 0.1004 0.8587 0.7392
C3_4 C 0.1402(6) 0.7391(11) 0.4348(17)
N4_3 N 0.1438(5) 0.8128(10) 0.5559(12)
C4_4 C 0.0812(6) 0.6569(10) 0.4204(14)
C5_3 C 0.0323(6) 0.6598(10) 0.5332(13)
N5_4 N 0.1932(5) 0.7490(11) 0.3291(14)
H3_4 H 0.2277 0.8019 0.3418
H4_4 H 0.1919 0.7022 0.2501
C1_4 C 0.9974(8) 0.5235(11) 0.3697(19)
H1_4 H 0.9700 0.4624 0.3212
N1_4 N 0.9782(5) 0.5749(9) 0.5039(11)
O1_4 O 0.8387(4) 0.3848(8) 0.5368(10)
O2_4 O 0.8060(5) 0.5332(8) 0.3729(12)
C6_4 C 0.8043(6) 0.4247(11) 0.4224(14)
C7_4 C 0.7570(6) 0.2020(11) 0.3952(14)
H5_4 H 0.7870 0.1761 0.4729
C8_4 C 0.7560(6) 0.3275(11) 0.3457(15)
C9_4 C 0.7111(7) 0.1167(12) 0.3228(18)
H6_4 H 0.7132 0.0317 0.3502
C10_4 C 0.6662(6) 0.2698(12) 0.1713(16)
H7_4 H 0.6362 0.2928 0.0924
C11_4 C 0.7104(6) 0.3612(12) 0.2366(16)
H8_4 H 0.7083 0.4450 0.2044
N2_4 N 0.9639(5) 0.2688(9) 0.1567(13)
C2_4 C 0.9052(6) 0.1941(11) 0.1564(18)
H2_4 H 0.8996 0.1413 0.2392
N4_4 N 0.8562(5) 0.1872(10) 0.0559(12)
C5_4 C 0.9677(6) 0.3402(10) 0.0332(13)
loop_
_geom_bond_atom_site_label_1
_geom_bond_atom_site_label_2
_geom_bond_site_symmetry_1
_geom_bond_site_symmetry_2
Zn1 N1 1_555 1_555
N2 C2 1_555 1_555
C2 H2 1_555 1_555
N4 C2 1_555 1_555
C5 N1 1_555 1_555
N8 Zn1 1_555 1_555
N2 C5 1_555 1_555
N3 C1 1_555 1_555
C4 N3 1_555 1_555
N5 C3 1_555 1_555
H3 N5 1_555 1_555
H4 N5 1_555 1_555
C3 C4 1_555 1_555
N6 C9 1_555 1_555
C7 H5 1_555 1_555
C8 C6 1_555 1_555
C9 C7 1_555 1_555
H6 C9 1_555 1_555
C10 N6 1_555 1_555
H7 C10 1_555 1_555
C11 C8 1_555 1_555
H8 C11 1_555 1_555
Zn3 N6 1_555 1_555
C7 C8 1_555 1_555
C10 C11 1_555 1_555
N6_2 C9_2 1_555 1_555
C6_2 O1_2 1_555 1_555
C7_2 H5_2 1_555 1_555
C8_2 C6_2 1_555 1_555
C9_2 C7_2 1_555 1_555
H6_2 C9_2 1_555 1_555
C10_2 N6_2 1_555 1_555
H7_2 C10_2 1_555 1_555
C11_2 C8_2 1_555 1_555
H8_2 C11_2 1_555 1_555
Zn3_2 N6_2 1_555 1_555
C7_2 C8_2 1_555 1_555
C10_2 C11_2 1_555 1_555
Zn2 N1_2 1_555 1_555
N1_2 C1_2 1_555 1_555
N2_2 C2_2 1_555 1_555
C2_2 H2_2 1_555 1_555
N7 C1_2 1_555 1_555
C3_2 N4_2 1_555 1_555
N4_2 C2_2 1_555 1_555
C4_2 N7 1_555 1_555
C5_2 N1_2 1_555 1_555
N5_2 C3_2 1_555 1_555
H3_2 N5_2 1_555 1_555
H4_2 N5_2 1_555 1_555
N8_2 Zn2 1_555 1_555
N2_2 C5_2 1_555 1_555
C3_2 C4_2 1_555 1_555
C4_2 C5_2 1_555 1_555
Zn3_2 N1_3 1_555 1_555
O1_3 Zn3_2 1_555 1_555
N7_2 Zn3_2 1_555 1_555
C1_3 H1_3 1_555 1_555
N8_2 C9_3 1_555 1_555
O2_3 C6_3 1_555 1_555
C7_3 H5_3 1_555 1_555
C8_3 C6_3 1_555 1_555
C9_3 C7_3 1_555 1_555
H6_3 C9_3 1_555 1_555
C10_3 N8_2 1_555 1_555
H7_3 C10_3 1_555 1_555
C11_3 C8_3 1_555 1_555
H8_3 C11_3 1_555 1_555
C7_3 C8_3 1_555 1_555
C10_3 C11_3 1_555 1_555
C4_3 N3_2 1_555 1_555
N5_3 C3_3 1_555 1_555
H3_3 N5_3 1_555 1_555
H4_3 N5_3 1_555 1_555
Zn3 N3_2 1_555 1_555
C3_3 C4_3 1_555 1_555
N2_3 C2_3 1_555 1_555
C2_3 H2_3 1_555 1_555
C3_4 N4_3 1_555 1_555
N4_3 C2_3 1_555 1_555
C4_4 N7_2 1_555 1_555
N5_4 C3_4 1_555 1_555
H3_4 N5_4 1_555 1_555
H4_4 N5_4 1_555 1_555
N2_3 C5_3 1_555 1_555
C3_4 C4_4 1_555 1_555
C4_4 C5_3 1_555 1_555
Zn3 N1_4 1_555 1_555
C1_4 H1_4 1_555 1_555
N1_4 C1_4 1_555 1_555
O1_4 Zn3 1_555 1_555
N8 C9_4 1_555 1_555
O2_4 C6_4 1_555 1_555
C6_4 O1_4 1_555 1_555
C7_4 H5_4 1_555 1_555
C8_4 C6_4 1_555 1_555
C9_4 C7_4 1_555 1_555
H6_4 C9_4 1_555 1_555
C10_4 N8 1_555 1_555
H7_4 C10_4 1_555 1_555
C11_4 C8_4 1_555 1_555
H8_4 C11_4 1_555 1_555
C7_4 C8_4 1_555 1_555
C10_4 C11_4 1_555 1_555
N2_4 C2_4 1_555 1_555
C2_4 H2_4 1_555 1_555
N4_4 C2_4 1_555 1_555
N2_4 C5_4 1_555 1_555

#END
