
###############################################################################
#
# This file contains modified crystal structure data generated from the
# MOF subset of the Cambridge Structural Database (CSD) v543 
# hosted by the Cambridge Crystallographic Data Centre (CCDC).
#
# This work is licensed under the Creative Commons
# Attribution-NonCommercial-ShareAlike 4.0 International License.
# To view a copy of this license, visit
# http://creativecommons.org/licenses/by-nc-sa/4.0/
# or send a letter to
# Creative Commons, PO Box 1866, Mountain View, CA 94042, USA.
#
# CIF created using the CSD Python API on 29 September 2022
# The structure has been converted into the P1 space group
# The structure has a 3D framework
# The original CSD entry MEJQEZ is in the orthorhombic crystal system
# The framework has been calculated to contain at least 10.0% void space
# The void calculation uses a probe of radius 1.32A, grid spacing 0.4
#
###############################################################################

data_MEJQEZ
_chemical_formula_moiety         '(C44 H32 N24 O8 Zn4)n'
_symmetry_cell_setting           triclinic
_symmetry_space_group_name_H-M   'P 1'
_symmetry_Int_Tables_number      1
_space_group_name_Hall           'P 1'
loop_
_symmetry_equiv_pos_site_id
_symmetry_equiv_pos_as_xyz
1 x,y,z
_cell_length_a                   18.6244(4)
_cell_length_b                   10.2696(3)
_cell_length_c                   8.7992(2)
_cell_angle_alpha                90
_cell_angle_beta                 90
_cell_angle_gamma                90
_cell_volume                     1682.98
loop_
_atom_site_label
_atom_site_type_symbol
_atom_site_fract_x
_atom_site_fract_y
_atom_site_fract_z
H1 H 0.4720 0.0371 0.1672
N6 N 0.16297(14) 0.3335(3) 0.2806(3)
C6 C 0.30689(19) 0.0558(4) 0.0866(4)
C7 C 0.25906(19) 0.2829(4) 0.1139(4)
H5 H 0.2924 0.3109 0.0424
C8 C 0.25562(18) 0.1530(4) 0.1552(4)
C9 C 0.21234(19) 0.3700(4) 0.1801(5)
H6 H 0.2154 0.4575 0.1536
C10 C 0.15930(19) 0.2073(4) 0.3218(4)
H7 H 0.1251 0.1815 0.3928
C11 C 0.2049(2) 0.1161(4) 0.2615(5)
H8 H 0.2017 0.0295 0.2919
Zn2 Zn 0.599174(16) 0.02643(3) 0.36689(6)
Zn3 Zn 0.099174(16) 0.47357(3) 0.36689(6)
O1 O 0.33923(12) 0.0981(3) 0.9673(3)
N7 N 0.43857(14) 0.0680(3) 0.6845(3)
C1 C 0.5005(2) 0.9736(4) 0.1219(5)
N3 N 0.56143(14) 0.9320(3) 0.1845(3)
C3 C 0.64678(17) 0.7576(4) 0.0766(4)
C4 C 0.58632(17) 0.8399(4) 0.0810(4)
N5 N 0.69760(16) 0.7550(3) 0.1841(4)
H3 H 0.7338 0.7035 0.1749
H4 H 0.6941 0.8048 0.2623
O2 O 0.31494(14) 0.9486(3) 0.1430(3)
Zn1 Zn 0.400826(16) 0.97357(3) 0.86689(6)
N1 N 0.48295(14) 0.9182(3) 0.9898(3)
N2 N 0.54425(14) 0.7547(3) 0.8393(4)
C2 C 0.60393(18) 0.6834(4) 0.8468(6)
H2 H 0.6121 0.6290 0.7641
N4 N 0.65372(15) 0.6787(3) 0.9556(4)
C5 C 0.53781(16) 0.8326(3) 0.9620(4)
N8 N 0.33703(14) 0.8335(3) 0.7806(3)
C1_2 C 0.4995(2) 0.0264(4) 0.6219(5)
N1_2 N 0.51705(14) 0.0818(3) 0.4898(3)
N2_2 N 0.45575(14) 0.2453(3) 0.3393(4)
C2_2 C 0.39607(18) 0.3166(4) 0.3468(6)
H2_2 H 0.3879 0.3710 0.2641
C3_2 C 0.35322(17) 0.2424(4) 0.5766(4)
N4_2 N 0.34628(15) 0.3213(3) 0.4556(4)
C4_2 C 0.41368(17) 0.1601(4) 0.5810(4)
C5_2 C 0.46219(16) 0.1674(3) 0.4620(4)
N5_2 N 0.30240(16) 0.2450(3) 0.6841(4)
H3_2 H 0.2662 0.2965 0.6749
H4_2 H 0.3059 0.1952 0.7623
O2_2 O 0.68506(14) 0.0514(3) 0.6430(3)
N8_2 N 0.66297(14) 0.1665(3) 0.2806(3)
H1_2 H 0.5280 0.9629 0.6672
O1_2 O 0.66077(12) 0.9019(3) 0.4673(3)
N6_2 N 0.83703(14) 0.6665(3) 0.7806(3)
C6_2 C 0.69311(19) 0.9442(4) 0.5866(4)
C7_2 C 0.74094(19) 0.7171(4) 0.6139(4)
H5_2 H 0.7076 0.6891 0.5424
C8_2 C 0.74438(18) 0.8470(4) 0.6552(4)
C9_2 C 0.78766(19) 0.6300(4) 0.6801(5)
H6_2 H 0.7846 0.5425 0.6536
C10_2 C 0.84070(19) 0.7927(4) 0.8218(4)
H7_2 H 0.8749 0.8185 0.8928
C11_2 C 0.7951(2) 0.8839(4) 0.7615(5)
H8_2 H 0.7983 0.9705 0.7919
Zn3_2 Zn 0.900826(16) 0.52643(3) 0.86689(6)
C1_3 C 0.0005(2) 0.5264(4) 0.1219(5)
N3_2 N 0.06143(14) 0.5680(3) 0.1845(3)
C3_3 C 0.14678(17) 0.7424(4) 0.0766(4)
C4_3 C 0.08632(17) 0.6601(4) 0.0810(4)
N5_3 N 0.19760(16) 0.7450(3) 0.1841(4)
H3_3 H 0.2338 0.7965 0.1749
H4_3 H 0.1941 0.6952 0.2623
H1_3 H 0.9720 0.4629 0.1672
O2_3 O 0.81494(14) 0.5514(3) 0.1430(3)
C6_3 C 0.80689(19) 0.4442(4) 0.0866(4)
C7_3 C 0.75906(19) 0.2171(4) 0.1139(4)
H5_3 H 0.7924 0.1891 0.0424
C8_3 C 0.75562(18) 0.3470(4) 0.1552(4)
C9_3 C 0.71234(19) 0.1300(4) 0.1801(5)
H6_3 H 0.7154 0.0425 0.1536
C10_3 C 0.65930(19) 0.2927(4) 0.3218(4)
H7_3 H 0.6251 0.3185 0.3928
C11_3 C 0.7049(2) 0.3839(4) 0.2615(5)
H8_3 H 0.7017 0.4705 0.2919
N1_3 N 0.98295(14) 0.5818(3) 0.9898(3)
O1_3 O 0.83923(12) 0.4019(3) 0.9673(3)
N7_2 N 0.93857(14) 0.4320(3) 0.6845(3)
H1_4 H 0.0280 0.5371 0.6672
N1_4 N 0.01705(14) 0.4182(3) 0.4898(3)
O1_4 O 0.16077(12) 0.5981(3) 0.4673(3)
O2_4 O 0.18506(14) 0.4486(3) 0.6430(3)
C6_4 C 0.19311(19) 0.5558(4) 0.5866(4)
C7_4 C 0.24094(19) 0.7829(4) 0.6139(4)
H5_4 H 0.2076 0.8109 0.5424
C8_4 C 0.24438(18) 0.6530(4) 0.6552(4)
C9_4 C 0.28766(19) 0.8700(4) 0.6801(5)
H6_4 H 0.2846 0.9575 0.6536
C10_4 C 0.34070(19) 0.7073(4) 0.8218(4)
H7_4 H 0.3749 0.6815 0.8928
C11_4 C 0.2951(2) 0.6161(4) 0.7615(5)
H8_4 H 0.2983 0.5295 0.7919
C1_4 C 0.9995(2) 0.4736(4) 0.6219(5)
N2_3 N 0.95575(14) 0.2547(3) 0.3393(4)
C2_3 C 0.89607(18) 0.1834(4) 0.3468(6)
H2_3 H 0.8879 0.1290 0.2641
C3_4 C 0.85322(17) 0.2576(4) 0.5766(4)
N4_3 N 0.84628(15) 0.1787(3) 0.4556(4)
C4_4 C 0.91368(17) 0.3399(4) 0.5810(4)
C5_3 C 0.96219(16) 0.3326(3) 0.4620(4)
N5_4 N 0.80240(16) 0.2550(3) 0.6841(4)
H3_4 H 0.7662 0.2035 0.6749
H4_4 H 0.8059 0.3048 0.7623
N2_4 N 0.04425(14) 0.7453(3) 0.8393(4)
C2_4 C 0.10393(18) 0.8166(4) 0.8468(6)
H2_4 H 0.1121 0.8710 0.7641
N4_4 N 0.15372(15) 0.8213(3) 0.9556(4)
C5_4 C 0.03781(16) 0.6674(3) 0.9620(4)
loop_
_geom_bond_atom_site_label_1
_geom_bond_atom_site_label_2
_geom_bond_site_symmetry_1
_geom_bond_site_symmetry_2
N6 C9 1_555 1_555
C7 H5 1_555 1_555
C8 C6 1_555 1_555
C9 C7 1_555 1_555
H6 C9 1_555 1_555
C10 N6 1_555 1_555
H7 C10 1_555 1_555
C11 C8 1_555 1_555
H8 C11 1_555 1_555
Zn3 N6 1_555 1_555
C7 C8 1_555 1_555
C10 C11 1_555 1_555
N3 C1 1_555 1_555
C4 N3 1_555 1_555
N5 C3 1_555 1_555
H3 N5 1_555 1_555
H4 N5 1_555 1_555
C3 C4 1_555 1_555
Zn1 N1 1_555 1_555
N2 C2 1_555 1_555
C2 H2 1_555 1_555
N4 C2 1_555 1_555
C5 N1 1_555 1_555
N8 Zn1 1_555 1_555
N2 C5 1_555 1_555
Zn2 N1_2 1_555 1_555
N1_2 C1_2 1_555 1_555
N2_2 C2_2 1_555 1_555
C2_2 H2_2 1_555 1_555
N7 C1_2 1_555 1_555
C3_2 N4_2 1_555 1_555
N4_2 C2_2 1_555 1_555
C4_2 N7 1_555 1_555
C5_2 N1_2 1_555 1_555
N5_2 C3_2 1_555 1_555
H3_2 N5_2 1_555 1_555
H4_2 N5_2 1_555 1_555
N8_2 Zn2 1_555 1_555
N2_2 C5_2 1_555 1_555
C3_2 C4_2 1_555 1_555
C4_2 C5_2 1_555 1_555
N6_2 C9_2 1_555 1_555
C6_2 O1_2 1_555 1_555
C7_2 H5_2 1_555 1_555
C8_2 C6_2 1_555 1_555
C9_2 C7_2 1_555 1_555
H6_2 C9_2 1_555 1_555
C10_2 N6_2 1_555 1_555
H7_2 C10_2 1_555 1_555
C11_2 C8_2 1_555 1_555
H8_2 C11_2 1_555 1_555
Zn3_2 N6_2 1_555 1_555
C7_2 C8_2 1_555 1_555
C10_2 C11_2 1_555 1_555
N3_2 C1_3 1_555 1_555
C4_3 N3_2 1_555 1_555
N5_3 C3_3 1_555 1_555
H3_3 N5_3 1_555 1_555
H4_3 N5_3 1_555 1_555
Zn3 N3_2 1_555 1_555
C3_3 C4_3 1_555 1_555
N8_2 C9_3 1_555 1_555
O2_3 C6_3 1_555 1_555
C7_3 H5_3 1_555 1_555
C8_3 C6_3 1_555 1_555
C9_3 C7_3 1_555 1_555
H6_3 C9_3 1_555 1_555
C10_3 N8_2 1_555 1_555
H7_3 C10_3 1_555 1_555
C11_3 C8_3 1_555 1_555
H8_3 C11_3 1_555 1_555
C7_3 C8_3 1_555 1_555
C10_3 C11_3 1_555 1_555
Zn3_2 N1_3 1_555 1_555
O1_3 Zn3_2 1_555 1_555
N7_2 Zn3_2 1_555 1_555
Zn3 N1_4 1_555 1_555
O1_4 Zn3 1_555 1_555
N8 C9_4 1_555 1_555
O2_4 C6_4 1_555 1_555
C6_4 O1_4 1_555 1_555
C7_4 H5_4 1_555 1_555
C8_4 C6_4 1_555 1_555
C9_4 C7_4 1_555 1_555
H6_4 C9_4 1_555 1_555
C10_4 N8 1_555 1_555
H7_4 C10_4 1_555 1_555
C11_4 C8_4 1_555 1_555
H8_4 C11_4 1_555 1_555
C7_4 C8_4 1_555 1_555
C10_4 C11_4 1_555 1_555
N2_3 C2_3 1_555 1_555
C2_3 H2_3 1_555 1_555
N7_2 C1_4 1_555 1_555
C3_4 N4_3 1_555 1_555
N4_3 C2_3 1_555 1_555
C4_4 N7_2 1_555 1_555
N5_4 C3_4 1_555 1_555
H3_4 N5_4 1_555 1_555
H4_4 N5_4 1_555 1_555
N2_3 C5_3 1_555 1_555
C3_4 C4_4 1_555 1_555
C4_4 C5_3 1_555 1_555
N2_4 C2_4 1_555 1_555
C2_4 H2_4 1_555 1_555
N4_4 C2_4 1_555 1_555
N2_4 C5_4 1_555 1_555

#END
