
###############################################################################
#
# This file contains modified crystal structure data generated from the
# MOF subset of the Cambridge Structural Database (CSD) v543 
# hosted by the Cambridge Crystallographic Data Centre (CCDC).
#
# This work is licensed under the Creative Commons
# Attribution-NonCommercial-ShareAlike 4.0 International License.
# To view a copy of this license, visit
# http://creativecommons.org/licenses/by-nc-sa/4.0/
# or send a letter to
# Creative Commons, PO Box 1866, Mountain View, CA 94042, USA.
#
# CIF created using the CSD Python API on 29 September 2022
# The structure has been converted into the P1 space group
# The structure has a 3D framework
# The original CSD entry MEJVAC is in the monoclinic crystal system
# The framework has been calculated to contain at least 10.0% void space
# The void calculation uses a probe of radius 1.32A, grid spacing 0.4
#
###############################################################################

data_MEJVAC
_chemical_formula_moiety         '(C212 H164 Co12 N40 O46)n'
_symmetry_cell_setting           triclinic
_symmetry_space_group_name_H-M   'P 1'
_symmetry_Int_Tables_number      1
_space_group_name_Hall           'P 1'
loop_
_symmetry_equiv_pos_site_id
_symmetry_equiv_pos_as_xyz
1 x,y,z
_cell_length_a                   16.4288(2)
_cell_length_b                   12.31680(10)
_cell_length_c                   27.9663(3)
_cell_angle_alpha                90
_cell_angle_beta                 98.4130(10)
_cell_angle_gamma                90
_cell_volume                     5598.09
loop_
_atom_site_label
_atom_site_type_symbol
_atom_site_fract_x
_atom_site_fract_y
_atom_site_fract_z
O26 O 0.07179(8) 0.12199(12) 0.54278(6)
O29 O 0.02751(9) 0.10022(12) 0.44057(5)
Co12 Co 0.038080(14) 0.896339(19) 0.500393(9)
N3 N 0.01359(12) 0.70751(15) 0.31367(7)
N4 N 0.02792(10) 0.55833(13) 0.27294(6)
H7 H 0.03200(16) 0.9828(2) 0.26763(9)
C11 C 0.02533(19) 0.8214(2) 0.32987(10)
H10 H 0.02502(19) 0.8245(2) 0.36450(10)
H11 H 0.07880(19) 0.8462(2) 0.32360(10)
C12 C 0.05420(13) 0.65854(17) 0.28178(7)
H12 H 0.09582(13) 0.69097(17) 0.26756(7)
Co14 Co 0.065511(14) 0.45389(2) 0.224464(9)
Co2 Co 0.961920(14) 0.103661(19) 0.499607(9)
O4 O 0.86514(8) 0.03851(11) 0.45522(5)
O6 O 0.59186(10) 0.06362(12) 0.34071(6)
O7 O 0.34534(8) 0.04267(11) 0.29608(5)
O11 O 0.01452(9) 0.30996(13) 0.28590(7)
O12 O 0.12955(8) 0.32680(11) 0.25519(5)
H37 H 0.72772(11) 0.02482(16) 0.39778(7)
C45 C 0.30777(12) 0.00050(16) 0.32818(7)
C46 C 0.22860(11) 0.05444(15) 0.33638(7)
C47 C 0.19609(11) 0.14061(15) 0.30736(7)
H39 H 0.22345(11) 0.16514(15) 0.28258(7)
C48 C 0.12307(11) 0.19027(15) 0.31515(7)
C49 C 0.08537(12) 0.28059(16) 0.28352(7)
C50 C 0.08426(12) 0.15489(16) 0.35337(7)
H40 H 0.03617(12) 0.18891(16) 0.35926(7)
C51 C 0.11618(12) 0.06951(16) 0.38292(7)
C52 C 0.07507(11) 0.03417(16) 0.42513(7)
C53 C 0.18766(12) 0.01839(16) 0.37344(7)
O28 O 0.90755(9) 0.05920(12) 0.55766(5)
N21 N 0.47208(10) 0.05833(13) 0.22706(6)
N24 N 0.93738(9) 0.26567(13) 0.49153(6)
Co1 Co 0.644598(16) 0.40274(2) 0.367181(10)
Co3 Co 0.434489(14) 0.95389(2) 0.275536(9)
O1 O 0.65010(9) 0.56060(11) 0.36723(6)
O2 O 0.78211(11) 0.54913(13) 0.39567(7)
O3 O 0.92821(8) 0.87801(12) 0.45722(6)
O5 O 0.52736(8) 0.90731(11) 0.32232(5)
O8 O 0.33141(9) 0.91896(12) 0.35197(6)
O9 O 0.09245(9) 0.94080(12) 0.44234(5)
N1 N 0.71509(10) 0.32813(14) 0.32430(7)
N2 N 0.76741(11) 0.21449(15) 0.27683(7)
N5 N 0.52260(10) 0.39011(13) 0.34527(6)
N6 N 0.39543(11) 0.44654(16) 0.32587(7)
N7 N 0.10952(10) 0.56865(13) 0.50263(6)
N8 N 0.06262(9) 0.73433(13) 0.50847(6)
N9 N 0.66770(10) 0.31773(14) 0.42859(6)
N10 N 0.65003(11) 0.22709(15) 0.49359(6)
C1 C 0.79510(14) 0.3563(2) 0.32197(10)
H1 H 0.82259(14) 0.4147(2) 0.33806(10)
C2 C 0.82789(15) 0.2870(2) 0.29303(10)
H2 H 0.88119(15) 0.2883(2) 0.28552(10)
C3 C 0.70105(13) 0.24175(17) 0.29641(8)
H3 H 0.65124(13) 0.20466(17) 0.29110(8)
C4 C 0.77580(16) 0.1244(2) 0.24334(9)
H4 H 0.72332(16) 0.0875(2) 0.23586(9)
H5 H 0.79008(16) 0.1534(2) 0.21341(9)
C5 C 0.84021(15) 0.04388(18) 0.26384(8)
C6 C 0.91961(16) 0.0502(2) 0.25438(9)
H6 H 0.93399(16) 0.1043(2) 0.23397(9)
C15 C 0.47271(13) 0.47478(18) 0.34297(8)
H15 H 0.48928(13) 0.54491(18) 0.35209(8)
C16 C 0.39552(14) 0.3369(2) 0.31719(9)
H16 H 0.35032(14) 0.2943(2) 0.30532(9)
C17 C 0.47402(14) 0.30289(19) 0.32923(8)
H17 H 0.49226(14) 0.23183(19) 0.32702(8)
C18 C 0.32361(14) 0.5197(2) 0.32105(9)
H18 H 0.34200(14) 0.5939(2) 0.31816(9)
H19 H 0.28688(14) 0.5017(2) 0.29172(9)
C19 C 0.27724(13) 0.51147(19) 0.36359(8)
C20 C 0.19738(15) 0.4757(2) 0.35783(9)
H20 H 0.17115(15) 0.4583(2) 0.32702(9)
C21 C 0.15510(15) 0.4647(2) 0.39665(10)
H21 H 0.10095(15) 0.4403(2) 0.39155(10)
C22 C 0.19156(14) 0.48925(18) 0.44264(9)
C23 C 0.27098(17) 0.5275(2) 0.44845(10)
H22 H 0.29667(17) 0.5456(2) 0.47929(10)
C24 C 0.31370(16) 0.5398(2) 0.40981(10)
H23 H 0.36704(16) 0.5671(2) 0.41477(10)
C25 C 0.14802(16) 0.47023(18) 0.48568(9)
H24 H 0.18724(16) 0.44170(18) 0.51198(9)
H25 H 0.10581(16) 0.41559(18) 0.47733(9)
C26 C 0.09781(12) 0.66600(16) 0.48156(7)
H26 H 0.11264(12) 0.68331(16) 0.45163(7)
C27 C 0.05139(13) 0.67625(17) 0.54884(8)
H27 H 0.02766(13) 0.70317(17) 0.57464(8)
C28 C 0.07982(14) 0.57452(18) 0.54552(8)
H28 H 0.07929(14) 0.51913(18) 0.56807(8)
C29 C 0.61853(13) 0.30062(18) 0.46109(8)
H29 H 0.56833(13) 0.33538(18) 0.46131(8)
C30 C 0.73356(13) 0.24898(18) 0.44120(9)
H30 H 0.77843(13) 0.24239(18) 0.42463(9)
C31 C 0.72308(14) 0.19286(19) 0.48113(9)
H31 H 0.75847(14) 0.14119(19) 0.49702(9)
C32 C 0.60807(16) 0.1812(2) 0.53180(8)
H32 H 0.64893(16) 0.1572(2) 0.55828(8)
H33 H 0.57523(16) 0.2373(2) 0.54404(8)
C33 C 0.55306(14) 0.08659(19) 0.51427(8)
C34 C 0.53741(16) 0.0543(2) 0.46624(8)
H34 H 0.56274(16) 0.0905(2) 0.44320(8)
C35 C 0.51516(16) 0.0305(2) 0.54760(8)
H35 H 0.52537(16) 0.0504(2) 0.58000(8)
C36 C 0.71978(13) 0.60239(16) 0.38340(7)
C37 C 0.72241(11) 0.72414(15) 0.38692(7)
C38 C 0.79059(11) 0.77571(16) 0.41229(7)
H36 H 0.83517(11) 0.73464(16) 0.42649(7)
C39 C 0.79283(11) 0.88799(15) 0.41666(7)
C40 C 0.86774(11) 0.93938(16) 0.44510(7)
C41 C 0.72662(11) 0.94964(16) 0.39468(7)
C42 C 0.65885(11) 0.89911(15) 0.36809(7)
C43 C 0.58785(11) 0.96463(16) 0.34187(7)
C44 C 0.65723(11) 0.78697(15) 0.36483(7)
H38 H 0.61163(11) 0.75296(15) 0.34751(7)
H41 H 0.20825(12) 0.95937(16) 0.39216(7)
C67 C 0.02136(16) 0.0228(2) 0.72521(9)
C68 C 0.03970(16) 0.10331(18) 0.69471(9)
C69 C 0.1215(2) 0.1115(2) 0.68700(12)
H56 H 0.1366(2) 0.1670(2) 0.66751(12)
C70 C 0.18041(19) 0.0392(2) 0.70764(12)
H57 H 0.23461(19) 0.0469(2) 0.70217(12)
C73 C 0.04247(17) 0.3654(2) 0.67394(10)
H61 H 0.07964(17) 0.3543(2) 0.65233(10)
C74 C 0.03321(15) 0.4563(2) 0.69921(10)
H62 H 0.06370(15) 0.5196(2) 0.69796(10)
O31 O 0.37045(8) 0.82680(11) 0.24481(5)
C7 C 0.97864(16) 0.9772(2) 0.27479(9)
C8 C 0.96030(16) 0.89669(18) 0.30529(9)
C9 C 0.8785(2) 0.8885(2) 0.31300(12)
H8 H 0.8634(2) 0.8330(2) 0.33249(12)
C10 C 0.81959(19) 0.9608(2) 0.29236(12)
H9 H 0.76539(19) 0.9531(2) 0.29783(12)
C13 C 0.95753(17) 0.6346(2) 0.32606(10)
H13 H 0.92036(17) 0.6457(2) 0.34767(10)
C14 C 0.96679(15) 0.5437(2) 0.30079(10)
H14 H 0.93630(15) 0.4804(2) 0.30204(10)
N11 N 0.33230(10) 0.68227(14) 0.57141(6)
N12 N 0.34997(11) 0.77291(15) 0.50641(6)
C54 C 0.38147(13) 0.69938(18) 0.53891(8)
H42 H 0.43167(13) 0.66462(18) 0.53869(8)
C55 C 0.26644(13) 0.75102(18) 0.55880(9)
H43 H 0.22157(13) 0.75761(18) 0.57537(9)
C56 C 0.27692(14) 0.80714(19) 0.51887(9)
H44 H 0.24153(14) 0.85881(19) 0.50298(9)
C57 C 0.39193(16) 0.8188(2) 0.46820(8)
H45 H 0.35107(16) 0.8428(2) 0.44172(8)
H46 H 0.42477(16) 0.7627(2) 0.45596(8)
C58 C 0.44694(14) 0.91341(19) 0.48573(8)
C59 C 0.46259(16) 0.9457(2) 0.53376(8)
H47 H 0.43726(16) 0.9095(2) 0.55680(8)
C60 C 0.48484(16) 0.9695(2) 0.45240(8)
H48 H 0.47463(16) 0.9496(2) 0.42000(8)
Co4 Co 0.355402(16) 0.59726(2) 0.632819(10)
Co6 Co 0.565511(14) 0.04611(2) 0.724464(9)
O13 O 0.34990(9) 0.43940(11) 0.63277(6)
O14 O 0.21789(11) 0.45087(13) 0.60433(7)
O17 O 0.47264(8) 0.09269(11) 0.67768(5)
O20 O 0.66859(9) 0.08104(12) 0.64803(6)
N13 N 0.28491(10) 0.67187(14) 0.67570(7)
N14 N 0.23259(11) 0.78551(15) 0.72317(7)
N17 N 0.47740(10) 0.60989(13) 0.65473(6)
N18 N 0.60457(11) 0.55346(16) 0.67413(7)
N19 N 0.89048(10) 0.43135(13) 0.49737(6)
C61 C 0.20490(14) 0.6437(2) 0.67803(10)
H49 H 0.17741(14) 0.5853(2) 0.66194(10)
C62 C 0.17211(15) 0.7130(2) 0.70697(10)
H50 H 0.11881(15) 0.7117(2) 0.71448(10)
C63 C 0.29895(13) 0.75825(17) 0.70359(8)
H51 H 0.34876(13) 0.79534(17) 0.70890(8)
C64 C 0.22420(16) 0.8756(2) 0.75666(9)
H52 H 0.27668(16) 0.9125(2) 0.76414(9)
H53 H 0.20992(16) 0.8466(2) 0.78659(9)
C65 C 0.15979(15) 0.95612(18) 0.73616(8)
C66 C 0.08039(16) 0.9498(2) 0.74562(9)
H54 H 0.06601(16) 0.8957(2) 0.76603(9)
C75 C 0.52729(13) 0.52522(18) 0.65703(8)
H63 H 0.51072(13) 0.45509(18) 0.64791(8)
C76 C 0.60448(14) 0.6631(2) 0.68281(9)
H64 H 0.64968(14) 0.7057(2) 0.69468(9)
C77 C 0.52598(14) 0.69711(19) 0.67077(8)
H65 H 0.50774(14) 0.76817(19) 0.67298(8)
C78 C 0.67639(14) 0.4803(2) 0.67895(9)
H66 H 0.65800(14) 0.4061(2) 0.68184(9)
H67 H 0.71312(14) 0.4983(2) 0.70828(9)
C79 C 0.72276(13) 0.48853(19) 0.63641(8)
C80 C 0.80262(15) 0.5243(2) 0.64217(9)
H68 H 0.82885(15) 0.5417(2) 0.67298(9)
C81 C 0.84490(15) 0.5353(2) 0.60335(10)
H69 H 0.89905(15) 0.5597(2) 0.60845(10)
C82 C 0.80844(14) 0.51075(18) 0.55736(9)
C83 C 0.72902(17) 0.4725(2) 0.55155(10)
H70 H 0.70333(17) 0.4544(2) 0.52071(10)
C84 C 0.68630(16) 0.4602(2) 0.59019(10)
H71 H 0.63296(16) 0.4329(2) 0.58523(10)
C85 C 0.85198(16) 0.52977(18) 0.51432(9)
H72 H 0.81276(16) 0.55830(18) 0.48802(9)
H73 H 0.89419(16) 0.58441(18) 0.52267(9)
C86 C 0.90219(12) 0.33400(16) 0.51844(7)
H74 H 0.88736(12) 0.31669(16) 0.54837(7)
C87 C 0.94861(13) 0.32375(17) 0.45116(8)
H75 H 0.97234(13) 0.29683(17) 0.42536(8)
C88 C 0.92018(14) 0.42548(18) 0.45448(8)
H76 H 0.92071(14) 0.48087(18) 0.43193(8)
C89 C 0.28022(13) 0.39761(16) 0.61660(7)
C90 C 0.27759(11) 0.27586(15) 0.61308(7)
C91 C 0.20941(11) 0.22429(16) 0.58771(7)
H77 H 0.16483(11) 0.26536(16) 0.57351(7)
C92 C 0.20717(11) 0.11201(15) 0.58334(7)
C93 C 0.13226(11) 0.06062(16) 0.55490(7)
C94 C 0.27338(11) 0.05036(16) 0.60532(7)
C95 C 0.34115(11) 0.10089(15) 0.63191(7)
C96 C 0.41215(11) 0.03537(16) 0.65813(7)
C97 C 0.34277(11) 0.21303(15) 0.63517(7)
H79 H 0.38837(11) 0.24704(15) 0.65249(7)
H82 H 0.79175(12) 0.04063(16) 0.60784(7)
O32 O 0.62955(8) 0.17320(11) 0.75519(5)
O16 O 0.13486(8) 0.96149(11) 0.54478(5)
O18 O 0.40814(10) 0.93638(12) 0.65929(6)
O19 O 0.65466(8) 0.95733(11) 0.70392(5)
O22 O 0.97249(9) 0.89978(12) 0.55943(5)
O23 O 0.98548(9) 0.69004(13) 0.71410(7)
O24 O 0.87045(8) 0.67320(11) 0.74481(5)
H78 H 0.27228(11) 0.97518(16) 0.60222(7)
C98 C 0.69223(12) 0.99950(16) 0.67182(7)
C99 C 0.77140(11) 0.94556(15) 0.66362(7)
C100 C 0.80391(11) 0.85939(15) 0.69264(7)
H80 H 0.77655(11) 0.83486(15) 0.71742(7)
C101 C 0.87693(11) 0.80973(15) 0.68485(7)
C102 C 0.91463(12) 0.71941(16) 0.71648(7)
C103 C 0.91574(12) 0.84511(16) 0.64663(7)
H81 H 0.96383(12) 0.81109(16) 0.64074(7)
C104 C 0.88382(12) 0.93049(16) 0.61708(7)
C105 C 0.92493(11) 0.96583(16) 0.57487(7)
C106 C 0.81234(12) 0.98161(16) 0.62656(7)
Co16 Co 0.934489(14) 0.54611(2) 0.775536(9)
N22 N 0.52792(10) 0.94167(13) 0.77294(6)
N15 N 0.98641(12) 0.29249(15) 0.68633(7)
N16 N 0.97208(10) 0.44167(13) 0.72706(6)
H55 H 0.96800(16) 0.0172(2) 0.73237(9)
C71 C 0.97467(19) 0.1786(2) 0.67013(10)
H58 H 0.97498(19) 0.1755(2) 0.63550(10)
H59 H 0.92120(19) 0.1538(2) 0.67640(10)
C72 C 0.94580(13) 0.34146(17) 0.71822(7)
H60 H 0.90418(13) 0.30903(17) 0.73244(7)
O7_2 O 0.15466(8) 0.54267(11) 0.20392(5)
O8_2 O 0.16859(9) 0.41896(12) 0.14803(6)
O9_2 O 0.40755(9) 0.44080(12) 0.05766(5)
O10 O 0.47249(9) 0.60022(12) 0.05943(5)
O11_2 O 0.48548(9) 0.80996(13) 0.21410(7)
H15_2 H 0.01072(13) 0.04491(18) 0.14791(8)
C18_2 C 0.17639(14) 0.0197(2) 0.17895(9)
H18_2 H 0.15800(14) 0.0939(2) 0.18184(9)
H19_2 H 0.21312(14) 0.0017(2) 0.20828(9)
C19_2 C 0.22276(13) 0.01147(19) 0.13641(8)
C23_2 C 0.22902(17) 0.0275(2) 0.05155(10)
H22_2 H 0.20333(17) 0.0456(2) 0.02071(10)
C24_2 C 0.18630(16) 0.0398(2) 0.09019(10)
H23_2 H 0.13296(16) 0.0671(2) 0.08523(10)
C26_2 C 0.40219(12) 0.16600(16) 0.01844(7)
H26_2 H 0.38736(12) 0.18331(16) 0.04837(7)
C45_2 C 0.19223(12) 0.50050(16) 0.17182(7)
C46_2 C 0.27140(11) 0.55444(15) 0.16362(7)
C47_2 C 0.30391(11) 0.64061(15) 0.19264(7)
H39_2 H 0.27655(11) 0.66514(15) 0.21742(7)
C48_2 C 0.37693(11) 0.69027(15) 0.18485(7)
C49_2 C 0.41463(12) 0.78059(16) 0.21648(7)
C50_2 C 0.41574(12) 0.65489(16) 0.14663(7)
H40_2 H 0.46383(12) 0.68891(16) 0.14074(7)
C51_2 C 0.38382(12) 0.56951(16) 0.11708(7)
C52_2 C 0.42493(11) 0.53417(16) 0.07487(7)
C53_2 C 0.31234(12) 0.51839(16) 0.12656(7)
H41_2 H 0.29175(12) 0.45937(16) 0.10784(7)
Co8 Co 0.538080(14) 0.603661(19) 0.000393(9)
N7_2 N 0.39048(10) 0.06865(13) 0.99737(6)
N8_2 N 0.43738(9) 0.23433(13) 0.99153(6)
C27_2 C 0.44861(13) 0.17625(17) 0.95116(8)
H27_2 H 0.47234(13) 0.20317(17) 0.92536(8)
C28_2 C 0.42018(14) 0.07452(18) 0.95448(8)
H28_2 H 0.42071(14) 0.01913(18) 0.93193(8)
H62_2 H 0.43630(15) 0.0196(2) 0.80204(10)
Co10 Co 0.461920(14) 0.396339(19) 0.999607(9)
H24_2 H 0.31276(16) 0.94170(18) 0.98802(9)
N11_2 N 0.16770(10) 0.18227(14) 0.92859(6)
N12_2 N 0.15003(11) 0.27291(15) 0.99359(6)
C54_2 C 0.11853(13) 0.19938(18) 0.96109(8)
H42_2 H 0.06833(13) 0.16462(18) 0.96131(8)
C55_2 C 0.23356(13) 0.25102(18) 0.94120(9)
H43_2 H 0.27843(13) 0.25761(18) 0.92463(9)
C56_2 C 0.22308(14) 0.30714(19) 0.98113(9)
H44_2 H 0.25847(14) 0.35881(19) 0.99702(9)
C59_2 C 0.03741(16) 0.4457(2) 0.96624(8)
H47_2 H 0.06274(16) 0.4095(2) 0.94320(8)
Co4_2 Co 0.144598(16) 0.09726(2) 0.867181(10)
N13_2 N 0.21509(10) 0.17187(14) 0.82430(7)
N14_2 N 0.26741(11) 0.28551(15) 0.77683(7)
N15_2 N 0.51359(12) 0.79249(15) 0.81367(7)
N17_2 N 0.02260(10) 0.10989(13) 0.84527(6)
C61_2 C 0.29510(14) 0.1437(2) 0.82197(10)
H49_2 H 0.32259(14) 0.0853(2) 0.83806(10)
C62_2 C 0.32789(15) 0.2130(2) 0.79303(10)
H50_2 H 0.38119(15) 0.2117(2) 0.78552(10)
C63_2 C 0.20105(13) 0.25825(17) 0.79641(8)
H51_2 H 0.15124(13) 0.29534(17) 0.79110(8)
C64_2 C 0.27580(16) 0.3756(2) 0.74334(9)
H52_2 H 0.22332(16) 0.4125(2) 0.73586(9)
H53_2 H 0.29008(16) 0.3466(2) 0.71341(9)
C65_2 C 0.34021(15) 0.45612(18) 0.76384(8)
C66_2 C 0.41961(16) 0.4498(2) 0.75438(9)
H54_2 H 0.43399(16) 0.3957(2) 0.73397(9)
C67_2 C 0.47864(16) 0.5228(2) 0.77479(9)
H55_2 H 0.53200(16) 0.5172(2) 0.76763(9)
C68_2 C 0.46030(16) 0.60331(18) 0.80529(9)
C69_2 C 0.3785(2) 0.6115(2) 0.81300(12)
H56_2 H 0.3634(2) 0.6670(2) 0.83249(12)
C70_2 C 0.31959(19) 0.5392(2) 0.79236(12)
H57_2 H 0.26539(19) 0.5469(2) 0.79783(12)
C71_2 C 0.52533(19) 0.6786(2) 0.82987(10)
H58_2 H 0.52502(19) 0.6755(2) 0.86450(10)
H59_2 H 0.57880(19) 0.6538(2) 0.82360(10)
C72_2 C 0.55420(13) 0.84146(17) 0.78178(7)
H60_2 H 0.59582(13) 0.80903(17) 0.76756(7)
C73_2 C 0.45753(17) 0.8654(2) 0.82606(10)
H61_2 H 0.42036(17) 0.8543(2) 0.84767(10)
C74_2 C 0.46679(15) 0.9563(2) 0.80079(10)
O25 O 0.57179(8) 0.37801(12) 0.04278(6)
O13_2 O 0.15010(9) 0.93940(11) 0.86723(6)
O14_2 O 0.28211(11) 0.95087(13) 0.89567(7)
O15 O 0.42821(8) 0.62199(12) 0.95722(6)
O16_2 O 0.36514(8) 0.46149(11) 0.95522(5)
O17_2 O 0.02736(8) 0.59269(11) 0.82232(5)
O18_2 O 0.09186(10) 0.43638(12) 0.84071(6)
C89_2 C 0.21978(13) 0.89761(16) 0.88340(7)
C90_2 C 0.22241(11) 0.77586(15) 0.88692(7)
C91_2 C 0.29059(11) 0.72429(16) 0.91229(7)
H77_2 H 0.33517(11) 0.76536(16) 0.92649(7)
C92_2 C 0.29283(11) 0.61201(15) 0.91666(7)
C93_2 C 0.36774(11) 0.56062(16) 0.94510(7)
C94_2 C 0.22662(11) 0.55036(16) 0.89468(7)
H78_2 H 0.22772(11) 0.47518(16) 0.89778(7)
C95_2 C 0.15885(11) 0.60089(15) 0.86809(7)
C96_2 C 0.08785(11) 0.53537(16) 0.84187(7)
C97_2 C 0.15723(11) 0.71303(15) 0.86483(7)
H79_2 H 0.11163(11) 0.74704(15) 0.84751(7)
O30 O 0.52751(9) 0.39978(12) 0.94057(5)
O1_2 O 0.84990(9) 0.06060(11) 0.13277(6)
O2_2 O 0.71789(11) 0.04913(13) 0.10433(7)
O4_2 O 0.63486(8) 0.53851(11) 0.04478(5)
O5_2 O 0.97264(8) 0.40731(11) 0.17768(5)
O6_2 O 0.90814(10) 0.56362(12) 0.15929(6)
C36_2 C 0.78022(13) 0.10239(16) 0.11660(7)
C37_2 C 0.77759(11) 0.22414(15) 0.11308(7)
C38_2 C 0.70941(11) 0.27571(16) 0.08771(7)
H36_2 H 0.66483(11) 0.23464(16) 0.07351(7)
C39_2 C 0.70717(11) 0.38799(15) 0.08334(7)
C40_2 C 0.63226(11) 0.43938(16) 0.05490(7)
C41_2 C 0.77338(11) 0.44964(16) 0.10532(7)
H37_2 H 0.77228(11) 0.52482(16) 0.10222(7)
C42_2 C 0.84115(11) 0.39911(15) 0.13191(7)
C43_2 C 0.91215(11) 0.46463(16) 0.15813(7)
C44_2 C 0.84277(11) 0.28697(15) 0.13517(7)
H38_2 H 0.88837(11) 0.25296(15) 0.15249(7)
N24_2 N 0.56262(9) 0.76567(13) 0.00847(6)
O28_2 O 0.59245(9) 0.55920(12) 0.94234(5)
Co1_2 Co 0.855402(16) 0.90274(2) 0.132819(10)
N1_2 N 0.78491(10) 0.82813(14) 0.17570(7)
N2_2 N 0.73259(11) 0.71449(15) 0.22317(7)
N3_2 N 0.48641(12) 0.20751(15) 0.18633(7)
N5_2 N 0.97740(10) 0.89011(13) 0.15473(6)
N9_2 N 0.83230(10) 0.81773(14) 0.07141(6)
N10_2 N 0.84997(11) 0.72709(15) 0.00641(6)
C1_2 C 0.70490(14) 0.8563(2) 0.17803(10)
H1_2 H 0.67741(14) 0.9147(2) 0.16194(10)
C2_2 C 0.67211(15) 0.7870(2) 0.20697(10)
H2_2 H 0.61881(15) 0.7883(2) 0.21448(10)
C3_2 C 0.79895(13) 0.74175(17) 0.20359(8)
H3_2 H 0.84876(13) 0.70466(17) 0.20890(8)
C4_2 C 0.72420(16) 0.6244(2) 0.25666(9)
H4_2 H 0.77668(16) 0.5875(2) 0.26414(9)
H5_2 H 0.70992(16) 0.6534(2) 0.28659(9)
C5_2 C 0.65979(15) 0.54388(18) 0.23616(8)
C6_2 C 0.58039(16) 0.5502(2) 0.24562(9)
H6_2 H 0.56601(16) 0.6043(2) 0.26603(9)
C7_2 C 0.52136(16) 0.4772(2) 0.22521(9)
H7_2 H 0.46800(16) 0.4828(2) 0.23237(9)
C8_2 C 0.53970(16) 0.39669(18) 0.19471(9)
C9_2 C 0.6215(2) 0.3885(2) 0.18700(12)
H8_2 H 0.6366(2) 0.3330(2) 0.16751(12)
C10_2 C 0.68041(19) 0.4608(2) 0.20764(12)
H9_2 H 0.73461(19) 0.4531(2) 0.20217(12)
C11_2 C 0.47467(19) 0.3214(2) 0.17013(10)
H10_2 H 0.47498(19) 0.3245(2) 0.13550(10)
H11_2 H 0.42120(19) 0.3462(2) 0.17640(10)
C12_2 C 0.44580(13) 0.15854(17) 0.21822(7)
H12_2 H 0.40418(13) 0.19097(17) 0.23244(7)
C13_2 C 0.54247(17) 0.1346(2) 0.17394(10)
H13_2 H 0.57964(17) 0.1457(2) 0.15233(10)
C14_2 C 0.53321(15) 0.0437(2) 0.19921(10)
C29_2 C 0.88147(13) 0.80062(18) 0.03891(8)
H29_2 H 0.93167(13) 0.83538(18) 0.03869(8)
C30_2 C 0.76644(13) 0.74898(18) 0.05880(9)
H30_2 H 0.72157(13) 0.74239(18) 0.07537(9)
C31_2 C 0.77692(14) 0.69286(19) 0.01887(9)
H31_2 H 0.74153(14) 0.64119(19) 0.00298(9)
C34_2 C 0.96259(16) 0.5543(2) 0.03376(8)
H34_2 H 0.93726(16) 0.5905(2) 0.05680(8)
H72_2 H 0.68724(16) 0.05830(18) 0.01198(9)
H14_2 H 0.56370(15) 0.9804(2) 0.19796(10)
N19_2 N 0.60952(10) 0.93135(13) 0.00263(6)
C87_2 C 0.55139(13) 0.82375(17) 0.04884(8)
H75_2 H 0.52766(13) 0.79683(17) 0.07464(8)
C88_2 C 0.57982(14) 0.92548(18) 0.04552(8)
H76_2 H 0.57929(14) 0.98087(18) 0.06807(8)
O19_2 O 0.84534(8) 0.45733(11) 0.79608(5)
O20_2 O 0.83141(9) 0.58104(12) 0.85197(6)
O23_2 O 0.51452(9) 0.19004(13) 0.78590(7)
H63_2 H 0.98928(13) 0.95509(18) 0.85209(8)
C78_2 C 0.82361(14) 0.9803(2) 0.82105(9)
H66_2 H 0.84200(14) 0.9061(2) 0.81816(9)
H67_2 H 0.78688(14) 0.9983(2) 0.79172(9)
C79_2 C 0.77724(13) 0.98853(19) 0.86359(8)
C83_2 C 0.77098(17) 0.9725(2) 0.94845(10)
H70_2 H 0.79667(17) 0.9544(2) 0.97929(10)
C84_2 C 0.81370(16) 0.9602(2) 0.90981(10)
H71_2 H 0.86704(16) 0.9329(2) 0.91477(10)
C86_2 C 0.59781(12) 0.83400(16) 0.98156(7)
H74_2 H 0.61264(12) 0.81669(16) 0.95163(7)
C98_2 C 0.80777(12) 0.49950(16) 0.82818(7)
C99_2 C 0.72860(11) 0.44556(15) 0.83638(7)
C100_2 C 0.69609(11) 0.35939(15) 0.80736(7)
H80_2 H 0.72345(11) 0.33486(15) 0.78258(7)
C101_2 C 0.62307(11) 0.30973(15) 0.81515(7)
C102_2 C 0.58537(12) 0.21941(16) 0.78352(7)
C103_2 C 0.58426(12) 0.34511(16) 0.85337(7)
H81_2 H 0.53617(12) 0.31109(16) 0.85926(7)
C104_2 C 0.61618(12) 0.43049(16) 0.88292(7)
C105_2 C 0.57507(11) 0.46583(16) 0.92513(7)
C106_2 C 0.68766(12) 0.48161(16) 0.87344(7)
H82_2 H 0.70825(12) 0.54063(16) 0.89216(7)
N6_2 N 0.10457(11) 0.94654(16) 0.17413(7)
C15_2 C 0.02729(13) 0.97478(18) 0.15703(8)
C16_2 C 0.10448(14) 0.8369(2) 0.18281(9)
H16_2 H 0.14968(14) 0.7943(2) 0.19468(9)
C17_2 C 0.02598(14) 0.80289(19) 0.17077(8)
H17_2 H 0.00774(14) 0.73183(19) 0.17298(8)
C20_2 C 0.30262(15) 0.9757(2) 0.14217(9)
H20_2 H 0.32885(15) 0.9583(2) 0.17298(9)
C21_2 C 0.34490(15) 0.9647(2) 0.10335(10)
H21_2 H 0.39905(15) 0.9403(2) 0.10845(10)
C22_2 C 0.30844(14) 0.98925(18) 0.05736(9)
C25_2 C 0.35198(16) 0.97023(18) 0.01432(9)
H25_2 H 0.39419(16) 0.91559(18) 0.02267(9)
C57_2 C 0.10807(16) 0.3188(2) 0.03180(8)
H45_2 H 0.14893(16) 0.3428(2) 0.05828(8)
H46_2 H 0.07523(16) 0.2627(2) 0.04404(8)
C58_2 C 0.05306(14) 0.41341(19) 0.01427(8)
C60_2 C 0.01516(16) 0.4695(2) 0.04760(8)
H48_2 H 0.02537(16) 0.4496(2) 0.08000(8)
C32_2 C 0.89193(16) 0.6812(2) 0.96820(8)
H32_2 H 0.85107(16) 0.6572(2) 0.94172(8)
H33_2 H 0.92477(16) 0.7373(2) 0.95596(8)
C33_2 C 0.94694(14) 0.58659(19) 0.98573(8)
C35_2 C 0.98484(16) 0.5305(2) 0.95240(8)
H35_2 H 0.97463(16) 0.5504(2) 0.92000(8)
N18_2 N 0.89543(11) 0.05346(16) 0.82587(7)
C75_2 C 0.97271(13) 0.02522(18) 0.84297(8)
C76_2 C 0.89552(14) 0.1631(2) 0.81719(9)
H64_2 H 0.85032(14) 0.2057(2) 0.80532(9)
C77_2 C 0.97402(14) 0.19711(19) 0.82923(8)
H65_2 H 0.99226(14) 0.26817(19) 0.82702(8)
C80_2 C 0.69738(15) 0.0243(2) 0.85783(9)
H68_2 H 0.67115(15) 0.0417(2) 0.82702(9)
C81_2 C 0.65510(15) 0.0353(2) 0.89665(10)
H69_2 H 0.60095(15) 0.0597(2) 0.89155(10)
C82_2 C 0.69156(14) 0.01075(18) 0.94264(9)
C85_2 C 0.64802(16) 0.02977(18) 0.98568(9)
H73_2 H 0.60581(16) 0.08441(18) 0.97733(9)
loop_
_geom_bond_atom_site_label_1
_geom_bond_atom_site_label_2
_geom_bond_site_symmetry_1
_geom_bond_site_symmetry_2
N3 C11 1_555 1_555
N4 C12 1_555 1_555
H10 C11 1_555 1_555
H11 C11 1_555 1_555
C12 N3 1_555 1_555
H12 C12 1_555 1_555
Co14 N4 1_555 1_555
Co2 O4 1_555 1_555
O29 C52 1_555 1_555
O11 C49 1_555 1_555
O12 C49 1_555 1_555
C45 O7 1_555 1_555
C46 C45 1_555 1_555
C47 C46 1_555 1_555
H39 C47 1_555 1_555
C48 C47 1_555 1_555
C49 C48 1_555 1_555
C50 C48 1_555 1_555
H40 C50 1_555 1_555
C51 C50 1_555 1_555
C52 C51 1_555 1_555
C53 C46 1_555 1_555
Co14 O12 1_555 1_555
O28 Co2 1_555 1_555
N24 Co2 1_555 1_555
C51 C53 1_555 1_555
Co1 O1 1_555 1_555
Co3 O5 1_555 1_555
O1 C36 1_555 1_555
O2 C36 1_555 1_555
O3 C40 1_555 1_555
O5 C43 1_555 1_555
N1 Co1 1_555 1_555
N2 C2 1_555 1_555
N5 Co1 1_555 1_555
N6 C15 1_555 1_555
N7 C25 1_555 1_555
N8 C26 1_555 1_555
N9 Co1 1_555 1_555
N10 C29 1_555 1_555
C1 N1 1_555 1_555
H1 C1 1_555 1_555
C2 C1 1_555 1_555
H2 C2 1_555 1_555
C3 N1 1_555 1_555
H3 C3 1_555 1_555
C4 N2 1_555 1_555
H4 C4 1_555 1_555
H5 C4 1_555 1_555
C5 C4 1_555 1_555
C6 C5 1_555 1_555
H6 C6 1_555 1_555
C15 N5 1_555 1_555
H15 C15 1_555 1_555
C16 N6 1_555 1_555
H16 C16 1_555 1_555
C17 N5 1_555 1_555
H17 C17 1_555 1_555
C18 N6 1_555 1_555
H18 C18 1_555 1_555
H19 C18 1_555 1_555
C19 C18 1_555 1_555
C20 C19 1_555 1_555
H20 C20 1_555 1_555
C21 C20 1_555 1_555
H21 C21 1_555 1_555
C22 C21 1_555 1_555
C23 C22 1_555 1_555
H22 C23 1_555 1_555
C24 C19 1_555 1_555
H23 C24 1_555 1_555
C25 C22 1_555 1_555
H24 C25 1_555 1_555
H25 C25 1_555 1_555
C26 N7 1_555 1_555
H26 C26 1_555 1_555
C27 N8 1_555 1_555
H27 C27 1_555 1_555
C28 N7 1_555 1_555
H28 C28 1_555 1_555
C29 N9 1_555 1_555
H29 C29 1_555 1_555
C30 N9 1_555 1_555
H30 C30 1_555 1_555
C31 N10 1_555 1_555
H31 C31 1_555 1_555
C32 N10 1_555 1_555
H32 C32 1_555 1_555
H33 C32 1_555 1_555
C33 C32 1_555 1_555
C34 C33 1_555 1_555
H34 C34 1_555 1_555
C35 C33 1_555 1_555
H35 C35 1_555 1_555
C36 C37 1_555 1_555
C37 C38 1_555 1_555
C38 H36 1_555 1_555
C39 C38 1_555 1_555
C40 C39 1_555 1_555
C41 C39 1_555 1_555
C42 C41 1_555 1_555
C43 C42 1_555 1_555
C44 C37 1_555 1_555
H38 C44 1_555 1_555
C68 C67 1_555 1_555
C69 C68 1_555 1_555
H56 C69 1_555 1_555
H57 C70 1_555 1_555
H61 C73 1_555 1_555
H62 C74 1_555 1_555
Co12 O9 1_555 1_555
O31 Co3 1_555 1_555
N2 C3 1_555 1_555
N8 Co12 1_555 1_555
C16 C17 1_555 1_555
C23 C24 1_555 1_555
C27 C28 1_555 1_555
C30 C31 1_555 1_555
C42 C44 1_555 1_555
C69 C70 1_555 1_555
C73 C74 1_555 1_555
C8 C7 1_555 1_555
C9 C8 1_555 1_555
H8 C9 1_555 1_555
H9 C10 1_555 1_555
H13 C13 1_555 1_555
H14 C14 1_555 1_555
N11 C54 1_555 1_555
N12 C54 1_555 1_555
C54 H42 1_555 1_555
C55 N11 1_555 1_555
H43 C55 1_555 1_555
C56 N12 1_555 1_555
H44 C56 1_555 1_555
C57 N12 1_555 1_555
H45 C57 1_555 1_555
H46 C57 1_555 1_555
C58 C57 1_555 1_555
H47 C59 1_555 1_555
H48 C60 1_555 1_555
Co4 N11 1_555 1_555
Co6 O17 1_555 1_555
O13 Co4 1_555 1_555
O14 C89 1_555 1_555
O26 C93 1_555 1_555
O17 C96 1_555 1_555
N13 Co4 1_555 1_555
N14 C62 1_555 1_555
N17 Co4 1_555 1_555
N18 C75 1_555 1_555
N19 C85 1_555 1_555
N24 C86 1_555 1_555
C61 N13 1_555 1_555
H49 C61 1_555 1_555
C62 C61 1_555 1_555
H50 C62 1_555 1_555
C63 N13 1_555 1_555
H51 C63 1_555 1_555
C64 N14 1_555 1_555
H52 C64 1_555 1_555
H53 C64 1_555 1_555
C65 C64 1_555 1_555
C66 C65 1_555 1_555
H54 C66 1_555 1_555
C75 N17 1_555 1_555
H63 C75 1_555 1_555
C76 N18 1_555 1_555
H64 C76 1_555 1_555
C77 N17 1_555 1_555
H65 C77 1_555 1_555
C78 N18 1_555 1_555
H66 C78 1_555 1_555
H67 C78 1_555 1_555
C79 C78 1_555 1_555
C80 C79 1_555 1_555
H68 C80 1_555 1_555
C81 C80 1_555 1_555
H69 C81 1_555 1_555
C82 C81 1_555 1_555
C83 C82 1_555 1_555
H70 C83 1_555 1_555
C84 C79 1_555 1_555
H71 C84 1_555 1_555
C85 C82 1_555 1_555
H72 C85 1_555 1_555
H73 C85 1_555 1_555
C86 N19 1_555 1_555
H74 C86 1_555 1_555
C87 N24 1_555 1_555
H75 C87 1_555 1_555
C88 N19 1_555 1_555
H76 C88 1_555 1_555
C89 O13 1_555 1_555
C90 C89 1_555 1_555
C91 C90 1_555 1_555
H77 C91 1_555 1_555
C92 C91 1_555 1_555
C93 C92 1_555 1_555
C94 C92 1_555 1_555
C95 C94 1_555 1_555
C96 C95 1_555 1_555
C97 C90 1_555 1_555
H79 C97 1_555 1_555
O32 Co6 1_555 1_555
C9 C10 1_555 1_555
C13 C14 1_555 1_555
C55 C56 1_555 1_555
C58 C59 1_555 1_555
C58 C60 1_555 1_555
N14 C63 1_555 1_555
C76 C77 1_555 1_555
C83 C84 1_555 1_555
C87 C88 1_555 1_555
C95 C97 1_555 1_555
Co12 O16 1_555 1_555
O22 C105 1_555 1_555
O23 C102 1_555 1_555
O24 C102 1_555 1_555
C98 O19 1_555 1_555
C99 C98 1_555 1_555
C100 C99 1_555 1_555
H80 C100 1_555 1_555
C101 C100 1_555 1_555
C102 C101 1_555 1_555
C103 C101 1_555 1_555
H81 C103 1_555 1_555
C104 C103 1_555 1_555
C105 C104 1_555 1_555
C106 C99 1_555 1_555
Co16 O24 1_555 1_555
C104 C106 1_555 1_555
N15 C71 1_555 1_555
N16 C72 1_555 1_555
H58 C71 1_555 1_555
H59 C71 1_555 1_555
C72 N15 1_555 1_555
H60 C72 1_555 1_555
Co16 N16 1_555 1_555
O7_2 Co14 1_555 1_555
O8_2 C45_2 1_555 1_555
O9_2 C52_2 1_555 1_555
O10 C52_2 1_555 1_555
O11_2 C49_2 1_555 1_555
O31 C49_2 1_555 1_555
H18_2 C18_2 1_555 1_555
H19_2 C18_2 1_555 1_555
C19_2 C18_2 1_555 1_555
H22_2 C23_2 1_555 1_555
C24_2 C19_2 1_555 1_555
H23_2 C24_2 1_555 1_555
H26_2 C26_2 1_555 1_555
C45_2 O7_2 1_555 1_555
C46_2 C45_2 1_555 1_555
C47_2 C46_2 1_555 1_555
H39_2 C47_2 1_555 1_555
C48_2 C47_2 1_555 1_555
C49_2 C48_2 1_555 1_555
C50_2 C48_2 1_555 1_555
H40_2 C50_2 1_555 1_555
C51_2 C50_2 1_555 1_555
C52_2 C51_2 1_555 1_555
C53_2 C46_2 1_555 1_555
H41_2 C53_2 1_555 1_555
Co8 O10 1_555 1_555
C23_2 C24_2 1_555 1_555
C51_2 C53_2 1_555 1_555
C27_2 N8_2 1_555 1_555
H27_2 C27_2 1_555 1_555
C28_2 N7_2 1_555 1_555
H28_2 C28_2 1_555 1_555
N8_2 Co10 1_555 1_555
C27_2 C28_2 1_555 1_555
N11_2 C54_2 1_555 1_555
N12_2 C54_2 1_555 1_555
C54_2 H42_2 1_555 1_555
C55_2 N11_2 1_555 1_555
H43_2 C55_2 1_555 1_555
C56_2 N12_2 1_555 1_555
H44_2 C56_2 1_555 1_555
H47_2 C59_2 1_555 1_555
Co4_2 N11_2 1_555 1_555
N13_2 Co4_2 1_555 1_555
N14_2 C62_2 1_555 1_555
N15_2 C71_2 1_555 1_555
N22 C72_2 1_555 1_555
N17_2 Co4_2 1_555 1_555
C61_2 N13_2 1_555 1_555
H49_2 C61_2 1_555 1_555
C62_2 C61_2 1_555 1_555
H50_2 C62_2 1_555 1_555
C63_2 N13_2 1_555 1_555
H51_2 C63_2 1_555 1_555
C64_2 N14_2 1_555 1_555
H52_2 C64_2 1_555 1_555
H53_2 C64_2 1_555 1_555
C65_2 C64_2 1_555 1_555
C66_2 C65_2 1_555 1_555
H54_2 C66_2 1_555 1_555
C67_2 C66_2 1_555 1_555
H55_2 C67_2 1_555 1_555
C68_2 C67_2 1_555 1_555
C69_2 C68_2 1_555 1_555
H56_2 C69_2 1_555 1_555
C70_2 C65_2 1_555 1_555
H57_2 C70_2 1_555 1_555
C71_2 C68_2 1_555 1_555
H58_2 C71_2 1_555 1_555
H59_2 C71_2 1_555 1_555
C72_2 N15_2 1_555 1_555
H60_2 C72_2 1_555 1_555
C73_2 N15_2 1_555 1_555
H61_2 C73_2 1_555 1_555
C74_2 N22 1_555 1_555
C55_2 C56_2 1_555 1_555
N14_2 C63_2 1_555 1_555
C69_2 C70_2 1_555 1_555
C73_2 C74_2 1_555 1_555
Co10 O16_2 1_555 1_555
O14_2 C89_2 1_555 1_555
O15 C93_2 1_555 1_555
O16_2 C93_2 1_555 1_555
O17_2 C96_2 1_555 1_555
O18_2 C96_2 1_555 1_555
C89_2 O13_2 1_555 1_555
C90_2 C89_2 1_555 1_555
C91_2 C90_2 1_555 1_555
H77_2 C91_2 1_555 1_555
C92_2 C91_2 1_555 1_555
C93_2 C92_2 1_555 1_555
C94_2 C92_2 1_555 1_555
H78_2 C94_2 1_555 1_555
C95_2 C94_2 1_555 1_555
C96_2 C95_2 1_555 1_555
C97_2 C90_2 1_555 1_555
H79_2 C97_2 1_555 1_555
O30 Co10 1_555 1_555
C95_2 C97_2 1_555 1_555
Co8 O4_2 1_555 1_555
O1_2 C36_2 1_555 1_555
O2_2 C36_2 1_555 1_555
O25 C40_2 1_555 1_555
O4_2 C40_2 1_555 1_555
O5_2 C43_2 1_555 1_555
O6_2 C43_2 1_555 1_555
C36_2 C37_2 1_555 1_555
C37_2 C38_2 1_555 1_555
C38_2 H36_2 1_555 1_555
C39_2 C38_2 1_555 1_555
C40_2 C39_2 1_555 1_555
C41_2 C39_2 1_555 1_555
H37_2 C41_2 1_555 1_555
C42_2 C41_2 1_555 1_555
C43_2 C42_2 1_555 1_555
C44_2 C37_2 1_555 1_555
H38_2 C44_2 1_555 1_555
N24_2 Co8 1_555 1_555
C42_2 C44_2 1_555 1_555
N1_2 Co1_2 1_555 1_555
N2_2 C2_2 1_555 1_555
N3_2 C11_2 1_555 1_555
N21 C12_2 1_555 1_555
N5_2 Co1_2 1_555 1_555
N9_2 Co1_2 1_555 1_555
N10_2 C29_2 1_555 1_555
C1_2 N1_2 1_555 1_555
H1_2 C1_2 1_555 1_555
C2_2 C1_2 1_555 1_555
H2_2 C2_2 1_555 1_555
C3_2 N1_2 1_555 1_555
H3_2 C3_2 1_555 1_555
C4_2 N2_2 1_555 1_555
H4_2 C4_2 1_555 1_555
H5_2 C4_2 1_555 1_555
C5_2 C4_2 1_555 1_555
C6_2 C5_2 1_555 1_555
H6_2 C6_2 1_555 1_555
C7_2 C6_2 1_555 1_555
H7_2 C7_2 1_555 1_555
C8_2 C7_2 1_555 1_555
C9_2 C8_2 1_555 1_555
H8_2 C9_2 1_555 1_555
C10_2 C5_2 1_555 1_555
H9_2 C10_2 1_555 1_555
C11_2 C8_2 1_555 1_555
H10_2 C11_2 1_555 1_555
H11_2 C11_2 1_555 1_555
C12_2 N3_2 1_555 1_555
H12_2 C12_2 1_555 1_555
C13_2 N3_2 1_555 1_555
H13_2 C13_2 1_555 1_555
C14_2 N21 1_555 1_555
C29_2 N9_2 1_555 1_555
H29_2 C29_2 1_555 1_555
C30_2 N9_2 1_555 1_555
H30_2 C30_2 1_555 1_555
C31_2 N10_2 1_555 1_555
H31_2 C31_2 1_555 1_555
H34_2 C34_2 1_555 1_555
N2_2 C3_2 1_555 1_555
C9_2 C10_2 1_555 1_555
C13_2 C14_2 1_555 1_555
C30_2 C31_2 1_555 1_555
C87_2 N24_2 1_555 1_555
H75_2 C87_2 1_555 1_555
C88_2 N19_2 1_555 1_555
H76_2 C88_2 1_555 1_555
C87_2 C88_2 1_555 1_555
O19_2 Co16 1_555 1_555
O20_2 C98_2 1_555 1_555
O28_2 C105_2 1_555 1_555
O30 C105_2 1_555 1_555
O23_2 C102_2 1_555 1_555
O32 C102_2 1_555 1_555
H66_2 C78_2 1_555 1_555
H67_2 C78_2 1_555 1_555
C79_2 C78_2 1_555 1_555
H70_2 C83_2 1_555 1_555
C84_2 C79_2 1_555 1_555
H71_2 C84_2 1_555 1_555
H74_2 C86_2 1_555 1_555
C98_2 O19_2 1_555 1_555
C99_2 C98_2 1_555 1_555
C100_2 C99_2 1_555 1_555
H80_2 C100_2 1_555 1_555
C101_2 C100_2 1_555 1_555
C102_2 C101_2 1_555 1_555
C103_2 C101_2 1_555 1_555
H81_2 C103_2 1_555 1_555
C104_2 C103_2 1_555 1_555
C105_2 C104_2 1_555 1_555
C106_2 C99_2 1_555 1_555
H82_2 C106_2 1_555 1_555
C83_2 C84_2 1_555 1_555
C104_2 C106_2 1_555 1_555
N6_2 C15_2 1_555 1_555
C16_2 N6_2 1_555 1_555
H16_2 C16_2 1_555 1_555
H17_2 C17_2 1_555 1_555
H20_2 C20_2 1_555 1_555
C21_2 C20_2 1_555 1_555
H21_2 C21_2 1_555 1_555
C22_2 C21_2 1_555 1_555
C25_2 C22_2 1_555 1_555
H25_2 C25_2 1_555 1_555
H45_2 C57_2 1_555 1_555
H46_2 C57_2 1_555 1_555
C58_2 C57_2 1_555 1_555
H48_2 C60_2 1_555 1_555
C16_2 C17_2 1_555 1_555
C58_2 C60_2 1_555 1_555
H32_2 C32_2 1_555 1_555
H33_2 C32_2 1_555 1_555
C33_2 C32_2 1_555 1_555
C35_2 C33_2 1_555 1_555
H35_2 C35_2 1_555 1_555
N18_2 C75_2 1_555 1_555
C76_2 N18_2 1_555 1_555
H64_2 C76_2 1_555 1_555
H65_2 C77_2 1_555 1_555
H68_2 C80_2 1_555 1_555
C81_2 C80_2 1_555 1_555
H69_2 C81_2 1_555 1_555
C82_2 C81_2 1_555 1_555
C85_2 C82_2 1_555 1_555
H73_2 C85_2 1_555 1_555
C76_2 C77_2 1_555 1_555

#END
