
###############################################################################
#
# This file contains modified crystal structure data generated from the
# MOF subset of the Cambridge Structural Database (CSD) v543 
# hosted by the Cambridge Crystallographic Data Centre (CCDC).
#
# This work is licensed under the Creative Commons
# Attribution-NonCommercial-ShareAlike 4.0 International License.
# To view a copy of this license, visit
# http://creativecommons.org/licenses/by-nc-sa/4.0/
# or send a letter to
# Creative Commons, PO Box 1866, Mountain View, CA 94042, USA.
#
# CIF created using the CSD Python API on 29 September 2022
# The structure has been converted into the P1 space group
# The structure has a 3D framework
# The original CSD entry MEJZIM is in the triclinic crystal system
# The framework has been calculated to contain at least 10.0% void space
# The void calculation uses a probe of radius 1.32A, grid spacing 0.4
#
###############################################################################

data_MEJZIM
_chemical_formula_moiety         '(C74 H94 Ce6 N6 O42 P6)n'
_symmetry_cell_setting           triclinic
_symmetry_space_group_name_H-M   'P 1'
_symmetry_Int_Tables_number      1
_space_group_name_Hall           'P 1'
loop_
_symmetry_equiv_pos_site_id
_symmetry_equiv_pos_as_xyz
1 x,y,z
_cell_length_a                   15.2095(12)
_cell_length_b                   15.3049(12)
_cell_length_c                   15.3698(12)
_cell_angle_alpha                106.485(1)
_cell_angle_beta                 117.143(1)
_cell_angle_gamma                103.236(1)
_cell_volume                     2770.51
loop_
_atom_site_label
_atom_site_type_symbol
_atom_site_fract_x
_atom_site_fract_y
_atom_site_fract_z
Ce1 Ce 0.05686(4) 0.19758(4) 0.36611(4)
Ce2 Ce 0.32052(4) 0.18275(4) 0.61513(4)
P1 P 0.12575(19) 0.01765(19) 0.3101(2)
P2 P 0.19642(19) 0.30505(18) 0.6739(2)
O1 O 0.0232(7) 0.0269(6) 0.2355(7)
O2 O 0.1863(7) 0.1081(6) 0.4208(7)
O4 O 0.7135(7) 0.0975(7) 0.4611(8)
O6 O 0.2791(6) 0.2757(6) 0.7473(7)
O7 O 0.1745(6) 0.2548(6) 0.5609(7)
O8 O 0.0953(6) 0.2903(6) 0.6742(7)
O9 O 0.1297(7) 0.7435(6) 0.5292(7)
O20 O 0.5948(7) 0.6415(6) 0.3610(7)
O21 O 0.5567(7) 0.7523(7) 0.4449(7)
O22 O 0.2003(7) 0.2574(7) 0.3227(8)
O23 O 0.1826(7) 0.3748(7) 0.4273(8)
N1 N 0.3200(7) 0.0410(7) 0.3229(7)
H4 H 0.3367 0.0555 0.3910
N2 N 0.2118(6) 0.4865(6) 0.6644(7)
H5 H 0.1589 0.4379 0.5964
C1 C 0.2106(8) 0.0411(9) 0.2586(9)
H8 H 0.2213 0.1057 0.2577
C2 C 0.4050(8) 0.1187(9) 0.3321(10)
H9 H 0.4049 0.1834 0.3635
H10 H 0.3887 0.1054 0.2596
C3 C 0.5178(9) 0.1236(8) 0.4028(10)
H11 H 0.5706 0.1729 0.4025
H12 H 0.5381 0.1450 0.4776
C4 C 0.5202(8) 0.0224(8) 0.3612(10)
H13 H 0.5075 0.0075 0.2891
C7 C 0.6325(9) 0.0247(8) 0.4332(9)
C8 C 0.2754(8) 0.4392(8) 0.7273(9)
H18 H 0.2999 0.4732 0.8032
H19 H 0.3394 0.4484 0.7249
C9 C 0.1585(8) 0.5290(8) 0.7139(9)
H20 H 0.2138 0.5790 0.7888
H21 H 0.1111 0.4759 0.7156
C10 C 0.0928(8) 0.5764(8) 0.6535(9)
H22 H 0.0285 0.5242 0.5839
H23 H 0.0687 0.6109 0.6956
C11 C 0.1570(9) 0.6510(8) 0.6330(9)
H24 H 0.2137 0.7076 0.7049
C12 C 0.2160(8) 0.6089(8) 0.5880(9)
H25 H 0.1632 0.5582 0.5128
H26 H 0.2648 0.6622 0.5880
C13 C 0.2813(8) 0.5623(8) 0.6532(9)
H27 H 0.3113 0.5305 0.6166
H28 H 0.3415 0.6145 0.7253
C14 C 0.0901(8) 0.6946(8) 0.5654(9)
C30 C 0.5419(8) 0.6634(8) 0.4015(10)
C31 C 0.4599(9) 0.5808(8) 0.3919(10)
C32 C 0.4505(9) 0.4828(8) 0.3550(10)
H44 H 0.4961 0.4679 0.3344
C33 C 0.3748(9) 0.4083(9) 0.3487(10)
H45 H 0.3688 0.3430 0.3227
C34 C 0.3053(8) 0.4287(8) 0.3812(9)
C35 C 0.3142(9) 0.5261(9) 0.4168(10)
H46 H 0.2673 0.5405 0.4357
C36 C 0.3919(9) 0.6030(9) 0.4248(10)
H47 H 0.3987 0.6685 0.4517
C37 C 0.2253(9) 0.3493(8) 0.3775(10)
Ce8 Ce 0.67948(4) 0.81725(4) 0.38487(4)
Ce9 Ce 0.91537(4) 0.14570(4) 0.56272(4)
Ce11 Ce 0.08463(4) 0.85430(4) 0.43728(4)
O26 O 0.3636(7) 0.0446(6) 0.5386(7)
O29 O 0.0028(7) 0.3199(6) 0.4502(7)
O31 O 0.1813(7) 0.0384(6) 0.5914(7)
O32 O 0.5238(7) 0.2721(7) 0.7909(8)
O33 O 0.4149(7) 0.1389(7) 0.7730(7)
O34 O 0.4052(7) 0.3585(6) 0.6390(7)
O35 O 0.4433(7) 0.2477(7) 0.5551(7)
O3 O 0.1127(7) 0.9203(6) 0.3165(7)
O5 O 0.6364(7) 0.9554(6) 0.4614(7)
O24 O 0.0968(7) 0.7201(7) 0.3078(7)
H2 H 0.0379 0.6673 0.2694
H3 H 0.1492 0.7074 0.3445
H7 H 0.1720 0.9903 0.1837
C5 C 0.4266(8) 0.9382(8) 0.3436(9)
H14 H 0.4235 0.8738 0.3059
H15 H 0.4413 0.9451 0.4142
C6 C 0.3182(8) 0.9402(8) 0.2784(10)
H16 H 0.2968 0.9202 0.2034
H17 H 0.2640 0.8917 0.2779
O25 O 0.2865(7) 0.9025(7) 0.5389(8)
O30 O 0.0564(7) 0.9103(6) 0.5967(7)
O10 O 0.9972(7) 0.6801(6) 0.5498(7)
O11 O 0.9436(7) 0.0897(6) 0.4033(7)
O18 O 0.9662(7) 0.2363(7) 0.1981(8)
O19 O 0.8511(7) 0.1399(7) 0.2171(7)
C25 C 0.7939(10) 0.2665(10) 0.0457(10)
H41 H 0.8648 0.3125 0.0788
C26 C 0.7756(9) 0.1946(9) 0.0776(9)
C27 C 0.6710(9) 0.1277(10) 0.0306(10)
H42 H 0.6587 0.0803 0.0553
C29 C 0.8711(9) 0.1900(9) 0.1694(9)
Ce4 Ce 0.94314(4) 0.80242(4) 0.63389(4)
C22 C 0.5077(8) 0.2076(9) 0.8221(9)
C23 C 0.6026(9) 0.2045(9) 0.9135(9)
C24 C 0.7076(9) 0.2725(9) 0.9636(10)
H40 H 0.7209 0.3226 0.9425
C28 C 0.5841(9) 0.1304(9) 0.9471(10)
H43 H 0.5137 0.0831 0.9133
P3 P 0.88283(18) 0.97545(18) 0.3573(2)
O12 O 0.9539(7) 0.9194(6) 0.3723(7)
O13 O 0.8187(7) 0.9616(6) 0.4086(7)
N3 N 0.7520(7) 0.8187(7) 0.1418(7)
H6 H 0.7458 0.7863 0.1804
C15 C 0.7886(9) 0.9280(8) 0.2090(8)
H29 H 0.7248 0.9403 0.1954
H30 H 0.8236 0.9663 0.1843
C16 C 0.8338(10) 0.8008(9) 0.1187(10)
H31 H 0.9053 0.8335 0.1865
H32 H 0.8368 0.8295 0.0709
C17 C 0.8030(11) 0.6902(10) 0.0654(11)
H33 H 0.8056 0.6628 0.1158
H34 H 0.8552 0.6797 0.0488
H36 H 0.5932 0.6303 0.0222
C20 C 0.6433(11) 0.7737(10) 0.0371(10)
H39 H 0.5912 0.7877 0.0519
O27 O 0.9047(6) 0.7097(6) 0.3258(7)
P3_2 P 0.11717(18) 0.02455(18) 0.6427(2)
O12_2 O 0.0461(7) 0.0806(6) 0.6277(7)
N3_2 N 0.2480(7) 0.1813(7) 0.8582(7)
H6_2 H 0.2542 0.2137 0.8196
C15_2 C 0.2114(9) 0.0720(8) 0.7910(8)
H29_2 H 0.2752 0.0597 0.8046
H30_2 H 0.1764 0.0337 0.8157
C16_2 C 0.1662(10) 0.1992(9) 0.8813(10)
H31_2 H 0.0947 0.1665 0.8135
H32_2 H 0.1632 0.1705 0.9291
C17_2 C 0.1970(11) 0.3098(10) 0.9346(11)
H33_2 H 0.1944 0.3372 0.8842
H34_2 H 0.1448 0.3203 0.9512
H36_2 H 0.4068 0.3697 0.9778
C20_2 C 0.3567(11) 0.2263(10) 0.9629(10)
H39_2 H 0.4088 0.2123 0.9481
O16 O 0.4762(7) 0.7279(7) 0.2091(8)
O17 O 0.5851(7) 0.8611(7) 0.2270(7)
C22_2 C 0.4923(8) 0.7924(9) 0.1779(9)
C23_2 C 0.3974(9) 0.7955(9) 0.0865(9)
C24_2 C 0.2924(9) 0.7275(9) 0.0364(10)
H40_2 H 0.2791 0.6774 0.0575
C28_2 C 0.4159(9) 0.8696(9) 0.0529(10)
H43_2 H 0.4863 0.9169 0.0867
O18_2 O 0.0338(7) 0.7637(7) 0.8019(8)
O19_2 O 0.1489(7) 0.8601(7) 0.7829(7)
C25_2 C 0.2061(10) 0.7335(10) 0.9543(10)
H41_2 H 0.1352 0.6875 0.9212
C26_2 C 0.2244(9) 0.8054(9) 0.9224(9)
C27_2 C 0.3290(9) 0.8723(10) 0.9694(10)
H42_2 H 0.3413 0.9197 0.9447
C29_2 C 0.1289(9) 0.8100(9) 0.8306(9)
O3_2 O 0.8873(7) 0.0797(6) 0.6835(7)
O24_2 O 0.9032(7) 0.2799(7) 0.6922(7)
H2_2 H 0.9621 0.3327 0.7306
H3_2 H 0.8508 0.2926 0.6555
H7_2 H 0.8280 0.0097 0.8163
C5_2 C 0.5734(8) 0.0618(8) 0.6564(9)
H14_2 H 0.5765 0.1262 0.6941
H15_2 H 0.5587 0.0549 0.5858
C6_2 C 0.6818(8) 0.0598(8) 0.7216(10)
H16_2 H 0.7032 0.0798 0.7966
H17_2 H 0.7360 0.1083 0.7221
O28 O 0.8703(7) 0.2565(6) 0.4708(7)
P1_2 P 0.87425(19) 0.98235(19) 0.6899(2)
P2_2 P 0.80358(19) 0.69495(18) 0.3261(2)
O1_2 O 0.9768(7) 0.9731(6) 0.7645(7)
O2_2 O 0.8137(7) 0.8919(6) 0.5792(7)
O6_2 O 0.7209(6) 0.7243(6) 0.2527(7)
O7_2 O 0.8255(6) 0.7452(6) 0.4391(7)
O22_2 O 0.7997(7) 0.7426(7) 0.6773(8)
O23_2 O 0.8174(7) 0.6252(7) 0.5727(8)
N1_2 N 0.6800(7) 0.9590(7) 0.6771(7)
H4_2 H 0.6633 0.9445 0.6090
N2_2 N 0.7882(6) 0.5135(6) 0.3356(7)
H5_2 H 0.8411 0.5621 0.4036
C1_2 C 0.7894(8) 0.9589(9) 0.7414(9)
H8_2 H 0.7787 0.8943 0.7423
C2_2 C 0.5950(8) 0.8813(9) 0.6679(10)
H9_2 H 0.5951 0.8166 0.6365
H10_2 H 0.6113 0.8946 0.7404
C3_2 C 0.4822(9) 0.8764(8) 0.5972(10)
H11_2 H 0.4294 0.8271 0.5975
H12_2 H 0.4619 0.8550 0.5224
C4_2 C 0.4798(8) 0.9776(8) 0.6388(10)
H13_2 H 0.4925 0.9925 0.7109
C7_2 C 0.3675(9) 0.9753(8) 0.5668(9)
C8_2 C 0.7246(8) 0.5608(8) 0.2727(9)
H18_2 H 0.7001 0.5268 0.1968
H19_2 H 0.6606 0.5516 0.2751
C9_2 C 0.8415(8) 0.4710(8) 0.2861(9)
H20_2 H 0.7862 0.4210 0.2112
H21_2 H 0.8889 0.5241 0.2844
C10_2 C 0.9072(8) 0.4236(8) 0.3465(9)
H22_2 H 0.9715 0.4758 0.4161
H23_2 H 0.9313 0.3891 0.3044
C11_2 C 0.8430(9) 0.3490(8) 0.3670(9)
H24_2 H 0.7863 0.2924 0.2951
C12_2 C 0.7840(8) 0.3911(8) 0.4120(9)
H25_2 H 0.8368 0.4418 0.4872
H26_2 H 0.7352 0.3378 0.4120
C13_2 C 0.7187(8) 0.4377(8) 0.3468(9)
H27_2 H 0.6887 0.4695 0.3834
H28_2 H 0.6585 0.3855 0.2747
C14_2 C 0.9099(8) 0.3054(8) 0.4346(9)
C30_2 C 0.4581(8) 0.3366(8) 0.5985(10)
C31_2 C 0.5401(9) 0.4192(8) 0.6081(10)
C32_2 C 0.5495(9) 0.5172(8) 0.6450(10)
H44_2 H 0.5039 0.5321 0.6656
C33_2 C 0.6252(9) 0.5917(9) 0.6513(10)
H45_2 H 0.6312 0.6570 0.6773
C34_2 C 0.6947(8) 0.5713(8) 0.6188(9)
C35_2 C 0.6858(9) 0.4739(9) 0.5832(10)
H46_2 H 0.7327 0.4595 0.5643
C36_2 C 0.6081(9) 0.3970(9) 0.5752(10)
H47_2 H 0.6013 0.3315 0.5483
C37_2 C 0.7747(9) 0.6507(8) 0.6225(10)
O14 O 0.7219(7) 0.4921(7) 0.8882(8)
H1 H 0.7052 0.4746 0.8231
O15 O 0.5772(7) 0.4682(7) 0.8935(8)
C18 C 0.6883(12) 0.6350(11) 0.9597(12)
H35 H 0.6907 0.6585 0.9074
C19 C 0.6049(12) 0.6607(11) 0.9787(12)
H37 H 0.5360 0.6329 0.9089
H38 H 0.6479 0.8035 0.9906
C21 C 0.6627(14) 0.5204(13) 0.9117(13)
O14_2 O 0.2781(7) 0.5079(7) 0.1118(8)
H1_2 H 0.2948 0.5254 0.1769
O15_2 O 0.4228(7) 0.5318(7) 0.1065(8)
C18_2 C 0.3117(12) 0.3650(11) 0.0403(12)
H35_2 H 0.3093 0.3415 0.0926
C19_2 C 0.3951(12) 0.3393(11) 0.0213(12)
H37_2 H 0.4640 0.3671 0.0911
H38_2 H 0.3521 0.1965 0.0094
C21_2 C 0.3373(14) 0.4796(13) 0.0883(13)
loop_
_geom_bond_atom_site_label_1
_geom_bond_atom_site_label_2
_geom_bond_site_symmetry_1
_geom_bond_site_symmetry_2
Ce1 O1 1_555 1_555
Ce2 O2 1_555 1_555
P1 O1 1_555 1_555
P2 O6 1_555 1_555
O2 Ce1 1_555 1_555
O4 C7 1_555 1_555
O6 Ce2 1_555 1_555
O7 Ce1 1_555 1_555
O8 P2 1_555 1_555
O9 C14 1_555 1_555
O20 C30 1_555 1_555
O21 C30 1_555 1_555
O22 Ce1 1_555 1_555
O23 Ce1 1_555 1_555
N1 H4 1_555 1_555
N2 H5 1_555 1_555
C1 P1 1_555 1_555
H8 C1 1_555 1_555
C2 N1 1_555 1_555
H9 C2 1_555 1_555
H10 C2 1_555 1_555
C3 C2 1_555 1_555
H11 C3 1_555 1_555
H12 C3 1_555 1_555
C4 C3 1_555 1_555
H13 C4 1_555 1_555
C7 C4 1_555 1_555
C8 P2 1_555 1_555
H18 C8 1_555 1_555
H19 C8 1_555 1_555
C9 N2 1_555 1_555
H20 C9 1_555 1_555
H21 C9 1_555 1_555
C10 C9 1_555 1_555
H22 C10 1_555 1_555
H23 C10 1_555 1_555
C11 C10 1_555 1_555
H24 C11 1_555 1_555
C12 C11 1_555 1_555
H25 C12 1_555 1_555
H26 C12 1_555 1_555
C13 N2 1_555 1_555
H27 C13 1_555 1_555
H28 C13 1_555 1_555
C14 C11 1_555 1_555
C30 C31 1_555 1_555
C31 C32 1_555 1_555
C32 H44 1_555 1_555
C33 C32 1_555 1_555
H45 C33 1_555 1_555
C34 C33 1_555 1_555
C35 C34 1_555 1_555
H46 C35 1_555 1_555
C36 C31 1_555 1_555
H47 C36 1_555 1_555
C37 O22 1_555 1_555
Ce8 O20 1_555 1_555
Ce9 O4 1_555 1_555
Ce11 O9 1_555 1_555
O26 Ce2 1_555 1_555
O29 Ce1 1_555 1_555
O31 Ce2 1_555 1_555
O32 Ce2 1_555 1_555
O33 Ce2 1_555 1_555
O34 Ce2 1_555 1_555
O35 Ce2 1_555 1_555
Ce2 O7 1_555 1_555
P1 O2 1_555 1_555
P2 O7 1_555 1_555
O21 Ce8 1_555 1_555
O23 C37 1_555 1_555
N1 C1 1_555 1_555
N2 C8 1_555 1_555
C12 C13 1_555 1_555
C34 C37 1_555 1_555
C35 C36 1_555 1_555
Ce11 O3 1_555 1_555
O24 Ce11 1_555 1_555
H2 O24 1_555 1_555
H3 O24 1_555 1_555
H14 C5 1_555 1_555
H15 C5 1_555 1_555
H16 C6 1_555 1_555
H17 C6 1_555 1_555
Ce8 O5 1_555 1_555
O25 Ce11 1_555 1_555
O30 Ce11 1_555 1_555
C5 C6 1_555 1_555
H41 C25 1_555 1_555
C26 C25 1_555 1_555
C27 C26 1_555 1_555
H42 C27 1_555 1_555
C29 O18 1_555 1_555
Ce4 O10 1_555 1_555
O11 Ce9 1_555 1_555
O19 C29 1_555 1_555
C26 C29 1_555 1_555
O32 C22 1_555 1_555
O33 C22 1_555 1_555
C22 C23 1_555 1_555
C23 C24 1_555 1_555
C24 H40 1_555 1_555
C28 C23 1_555 1_555
H43 C28 1_555 1_555
O13 P3 1_555 1_555
N3 H6 1_555 1_555
C15 P3 1_555 1_555
H29 C15 1_555 1_555
H30 C15 1_555 1_555
C16 N3 1_555 1_555
H31 C16 1_555 1_555
H32 C16 1_555 1_555
C17 C16 1_555 1_555
H33 C17 1_555 1_555
H34 C17 1_555 1_555
C20 N3 1_555 1_555
H39 C20 1_555 1_555
Ce8 O13 1_555 1_555
P3 O12 1_555 1_555
N3 C15 1_555 1_555
O31 P3_2 1_555 1_555
N3_2 H6_2 1_555 1_555
C15_2 P3_2 1_555 1_555
H29_2 C15_2 1_555 1_555
H30_2 C15_2 1_555 1_555
C16_2 N3_2 1_555 1_555
H31_2 C16_2 1_555 1_555
H32_2 C16_2 1_555 1_555
C17_2 C16_2 1_555 1_555
H33_2 C17_2 1_555 1_555
H34_2 C17_2 1_555 1_555
C20_2 N3_2 1_555 1_555
H39_2 C20_2 1_555 1_555
P3_2 O12_2 1_555 1_555
N3_2 C15_2 1_555 1_555
O16 C22_2 1_555 1_555
O17 C22_2 1_555 1_555
C22_2 C23_2 1_555 1_555
C23_2 C24_2 1_555 1_555
C24_2 H40_2 1_555 1_555
C28_2 C23_2 1_555 1_555
H43_2 C28_2 1_555 1_555
Ce8 O16 1_555 1_555
O17 Ce8 1_555 1_555
H41_2 C25_2 1_555 1_555
C26_2 C25_2 1_555 1_555
C27_2 C26_2 1_555 1_555
H42_2 C27_2 1_555 1_555
C29_2 O18_2 1_555 1_555
O19_2 C29_2 1_555 1_555
C26_2 C29_2 1_555 1_555
Ce9 O3_2 1_555 1_555
O24_2 Ce9 1_555 1_555
H2_2 O24_2 1_555 1_555
H3_2 O24_2 1_555 1_555
H14_2 C5_2 1_555 1_555
H15_2 C5_2 1_555 1_555
H16_2 C6_2 1_555 1_555
H17_2 C6_2 1_555 1_555
O28 Ce9 1_555 1_555
C5_2 C6_2 1_555 1_555
Ce4 O1_2 1_555 1_555
Ce8 O2_2 1_555 1_555
P1_2 O1_2 1_555 1_555
P2_2 O6_2 1_555 1_555
O2_2 Ce4 1_555 1_555
O25 C7_2 1_555 1_555
O6_2 Ce8 1_555 1_555
O7_2 Ce4 1_555 1_555
O27 P2_2 1_555 1_555
O28 C14_2 1_555 1_555
O34 C30_2 1_555 1_555
O35 C30_2 1_555 1_555
O22_2 Ce4 1_555 1_555
O23_2 Ce4 1_555 1_555
N1_2 H4_2 1_555 1_555
N2_2 H5_2 1_555 1_555
C1_2 P1_2 1_555 1_555
H8_2 C1_2 1_555 1_555
C2_2 N1_2 1_555 1_555
H9_2 C2_2 1_555 1_555
H10_2 C2_2 1_555 1_555
C3_2 C2_2 1_555 1_555
H11_2 C3_2 1_555 1_555
H12_2 C3_2 1_555 1_555
C4_2 C3_2 1_555 1_555
H13_2 C4_2 1_555 1_555
C7_2 C4_2 1_555 1_555
C8_2 P2_2 1_555 1_555
H18_2 C8_2 1_555 1_555
H19_2 C8_2 1_555 1_555
C9_2 N2_2 1_555 1_555
H20_2 C9_2 1_555 1_555
H21_2 C9_2 1_555 1_555
C10_2 C9_2 1_555 1_555
H22_2 C10_2 1_555 1_555
H23_2 C10_2 1_555 1_555
C11_2 C10_2 1_555 1_555
H24_2 C11_2 1_555 1_555
C12_2 C11_2 1_555 1_555
H25_2 C12_2 1_555 1_555
H26_2 C12_2 1_555 1_555
C13_2 N2_2 1_555 1_555
H27_2 C13_2 1_555 1_555
H28_2 C13_2 1_555 1_555
C14_2 C11_2 1_555 1_555
C30_2 C31_2 1_555 1_555
C31_2 C32_2 1_555 1_555
C32_2 H44_2 1_555 1_555
C33_2 C32_2 1_555 1_555
H45_2 C33_2 1_555 1_555
C34_2 C33_2 1_555 1_555
C35_2 C34_2 1_555 1_555
H46_2 C35_2 1_555 1_555
C36_2 C31_2 1_555 1_555
H47_2 C36_2 1_555 1_555
C37_2 O22_2 1_555 1_555
Ce8 O7_2 1_555 1_555
P1_2 O2_2 1_555 1_555
P2_2 O7_2 1_555 1_555
O23_2 C37_2 1_555 1_555
N1_2 C1_2 1_555 1_555
N2_2 C8_2 1_555 1_555
C12_2 C13_2 1_555 1_555
C34_2 C37_2 1_555 1_555
C35_2 C36_2 1_555 1_555
O14 H1 1_555 1_555
O15 C21 1_555 1_555
H35 C18 1_555 1_555
C19 C18 1_555 1_555
H37 C19 1_555 1_555
C21 O14 1_555 1_555
C18 C21 1_555 1_555
O14_2 H1_2 1_555 1_555
O15_2 C21_2 1_555 1_555
H35_2 C18_2 1_555 1_555
C19_2 C18_2 1_555 1_555
H37_2 C19_2 1_555 1_555
C21_2 O14_2 1_555 1_555
C18_2 C21_2 1_555 1_555

#END
