
###############################################################################
#
# This file contains modified crystal structure data generated from the
# MOF subset of the Cambridge Structural Database (CSD) v543 
# hosted by the Cambridge Crystallographic Data Centre (CCDC).
#
# This work is licensed under the Creative Commons
# Attribution-NonCommercial-ShareAlike 4.0 International License.
# To view a copy of this license, visit
# http://creativecommons.org/licenses/by-nc-sa/4.0/
# or send a letter to
# Creative Commons, PO Box 1866, Mountain View, CA 94042, USA.
#
# CIF created using the CSD Python API on 29 September 2022
# The structure has been converted into the P1 space group
# The structure has a 3D framework
# The original CSD entry MEJZOS is in the triclinic crystal system
# The framework has been calculated to contain at least 10.0% void space
# The void calculation uses a probe of radius 1.32A, grid spacing 0.4
#
###############################################################################

data_MEJZOS
_chemical_formula_moiety         '(C74 H94 N6 O48 P6 Pr6)n'
_symmetry_cell_setting           triclinic
_symmetry_space_group_name_H-M   'P 1'
_symmetry_Int_Tables_number      1
_space_group_name_Hall           'P 1'
loop_
_symmetry_equiv_pos_site_id
_symmetry_equiv_pos_as_xyz
1 x,y,z
_cell_length_a                   15.122(3)
_cell_length_b                   15.167(4)
_cell_length_c                   15.242(3)
_cell_angle_alpha                106.199(4)
_cell_angle_beta                 103.350(4)
_cell_angle_gamma                116.990(4)
_cell_volume                     2717.83
loop_
_atom_site_label
_atom_site_type_symbol
_atom_site_fract_x
_atom_site_fract_y
_atom_site_fract_z
Pr2 Pr 0.44289(8) 0.13416(8) 0.30236(8)
P3 P 0.3747(4) 0.1916(4) 0.4815(4)
O11 O 0.3866(10) 0.1837(9) 0.5787(8)
O12 O 0.3121(8) 0.0777(9) 0.3899(8)
O13 O 0.4764(8) 0.2642(9) 0.4702(8)
N3 N 0.1779(12) 0.1775(12) 0.4591(11)
H6 H 0.1606 0.1082 0.4442
C15 C 0.2906(14) 0.2464(15) 0.4601(15)
H29 H 0.3297 0.3193 0.5136
H30 H 0.2811 0.2529 0.3975
C16 C 0.0950(14) 0.1716(16) 0.3817(14)
H31 H 0.1124 0.2454 0.3998
H32 H 0.0954 0.1456 0.3168
C19 C 0.0737(14) 0.1551(16) 0.5613(14)
H36 H 0.0765 0.1885 0.6262
H37 H 0.0580 0.0828 0.5503
C20 C 0.1810(16) 0.2232(16) 0.5600(14)
H38 H 0.2377 0.2269 0.6098
H39 H 0.1993 0.2970 0.5757
Pr9 Pr 0.41521(8) 0.06337(8) 0.64476(8)
O25 O 0.5582(9) 0.0983(9) 0.4113(8)
O26 O 0.6825(9) 0.0914(10) 0.5375(8)
O27 O 0.4980(10) 0.0500(9) 0.1811(9)
O28 O 0.6282(12) 0.0264(12) 0.2436(10)
O30 O 0.7865(10) 0.0381(11) 0.4029(9)
O32 O 0.6488(10) 0.2824(11) 0.3585(10)
O33 O 0.5353(11) 0.3057(11) 0.2643(11)
O34 O 0.3012(10) 0.1794(11) 0.2411(10)
O35 O 0.3183(11) 0.0725(12) 0.1260(10)
Pr1 Pr 0.18107(8) 0.88572(8) 0.31789(8)
Pr3 Pr 0.58479(8) 0.93663(8) 0.35524(8)
P1 P 0.3833(4) 0.8576(4) 0.4764(4)
P2 P 0.3051(4) 0.8258(4) 0.1963(3)
O1 O 0.4418(9) 0.9017(9) 0.5887(8)
O2 O 0.4548(9) 0.8737(9) 0.4202(9)
O3 O 0.3175(9) 0.9086(10) 0.4625(8)
O6 O 0.2207(9) 0.7515(9) 0.2260(8)
O7 O 0.3285(9) 0.9421(9) 0.2479(8)
O8 O 0.4075(9) 0.8257(10) 0.2134(8)
O16 O 0.0858(10) 0.7254(10) 0.3623(9)
O20 O 0.0582(11) 0.9468(11) 0.2553(9)
O21 O 0.0979(11) 0.8642(12) 0.1457(10)
O24 O 0.5959(13) 0.8046(13) 0.2221(11)
H2 H 0.6572 0.8394 0.2180
H3 H 0.5908 0.7527 0.2376
N1 N 0.2547(14) 0.6414(14) 0.3227(12)
H4 H 0.2487 0.6809 0.2889
N2 N 0.2873(11) 0.8346(12) 0.0132(10)
H5 H 0.3417 0.9033 0.0608
C1 C 0.2915(14) 0.7102(14) 0.4322(12)
H7 H 0.3269 0.6855 0.4716
H8 H 0.2266 0.6957 0.4431
C2 C 0.1468(16) 0.5344(17) 0.2762(15)
H9 H 0.1539 0.4876 0.3059
H10 H 0.0937 0.5471 0.2909
C3 C 0.1047(19) 0.4741(19) 0.1631(16)
H11 H 0.0343 0.4051 0.1346
H12 H 0.0959 0.5201 0.1332
C4 C 0.1930(19) 0.4557(19) 0.1371(18)
H13 H 0.1952 0.4027 0.1599
C5 C 0.3056(17) 0.5638(17) 0.1934(15)
H14 H 0.3588 0.5485 0.1831
H15 H 0.3060 0.6139 0.1651
C6 C 0.3380(16) 0.6183(17) 0.3057(15)
H16 H 0.4108 0.6853 0.3401
H17 H 0.3378 0.5677 0.3333
C7 C 0.158(3) 0.411(2) 0.024(2)
C8 C 0.2253(14) 0.7730(16) 0.0608(12)
H18 H 0.1626 0.7783 0.0521
H19 H 0.1982 0.6964 0.0273
H21 H 0.3861 0.7770 0.0213
C22 C 0.0451(17) 0.9029(18) 0.1661(16)
Pr6 Pr 0.55711(8) 0.86584(8) 0.69764(8)
O29 O 0.6134(10) 0.8163(9) 0.4213(8)
O31 O 0.1357(10) 0.9604(10) 0.4544(9)
O4 O 0.0734(16) 0.3924(18) 0.9662(13)
O5 O 0.226(2) 0.397(2) 0.9986(17)
H1 H 0.2009 0.3731 0.9347
O9 O 0.5020(10) 0.9500(9) 0.8189(9)
O10 O 0.3718(12) 0.9736(12) 0.7564(10)
C9 C 0.3395(15) 0.7809(15) 0.9687(13)
H20 H 0.2820 0.7068 0.9191
C10 C 0.4073(15) 0.8467(15) 0.9242(13)
H22 H 0.4343 0.8065 0.8926
H23 H 0.4702 0.9173 0.9756
C11 C 0.3421(14) 0.8653(15) 0.8482(13)
H24 H 0.2859 0.7937 0.7938
C12 C 0.2835(14) 0.9119(15) 0.8904(13)
H25 H 0.2338 0.9118 0.8368
H26 H 0.3372 0.9873 0.9393
C13 C 0.2218(14) 0.8481(16) 0.9383(13)
H27 H 0.1901 0.8837 0.9678
H28 H 0.1625 0.7750 0.8881
C14 C 0.4087(15) 0.9324(15) 0.8047(13)
O15 O 0.8643(10) 0.0396(10) 0.5456(9)
C17 C 0.9826(16) 0.1027(16) 0.3777(14)
H33 H 0.9286 0.1024 0.3281
H34 H 0.9638 0.0283 0.3582
C18 C 0.9803(14) 0.1416(15) 0.4795(13)
H35 H 0.9945 0.2141 0.4951
C21 C 0.8697(16) 0.0674(16) 0.4772(15)
Pr4 Pr 0.81893(8) 0.11428(8) 0.68211(8)
O17 O 0.9787(11) 0.7092(11) 0.2256(10)
C23 C 0.9589(16) 0.8912(17) 0.0798(14)
C27 C 0.8088(16) 0.9101(17) 0.0258(14)
H42 H 0.7594 0.9303 0.0384
C28 C 0.8878(17) 0.9192(18) 0.1061(15)
H43 H 0.9382 0.9948 0.1218
C30 C 0.9915(15) 0.6771(15) 0.2922(14)
C31 C 0.8972(16) 0.5843(16) 0.2951(14)
C32 C 0.9142(17) 0.5524(16) 0.3669(15)
H44 H 0.9881 0.5894 0.4169
C33 C 0.8307(15) 0.4729(16) 0.3749(14)
H45 H 0.8423 0.4498 0.4275
C34 C 0.7233(15) 0.4198(15) 0.3043(13)
C35 C 0.7043(15) 0.4558(16) 0.2312(14)
H46 H 0.6306 0.4216 0.1821
C36 C 0.7934(15) 0.5369(15) 0.2267(14)
H47 H 0.7831 0.5560 0.1711
C37 C 0.6297(16) 0.3315(16) 0.3106(14)
O22 O 0.6988(10) 0.8206(11) 0.7589(10)
O23 O 0.6817(11) 0.9275(12) 0.8740(10)
C24 C 0.9523(15) 0.8574(16) 0.9838(14)
H40 H 0.9998 0.8345 0.9709
C25 C 0.8750(15) 0.8485(16) 0.9092(14)
H41 H 0.8712 0.8250 0.8422
C26 C 0.8035(16) 0.8796(17) 0.9285(14)
C29 C 0.7229(15) 0.8769(16) 0.8511(15)
C24_2 C 0.0477(15) 0.1426(16) 0.0162(14)
H40_2 H 0.0002 0.1655 0.0291
C25_2 C 0.1250(15) 0.1515(16) 0.0908(14)
H41_2 H 0.1288 0.1750 0.1578
C26_2 C 0.1965(16) 0.1204(17) 0.0715(14)
C29_2 C 0.2771(15) 0.1231(16) 0.1489(15)
O17_2 O 0.0213(11) 0.2908(11) 0.7744(10)
O18 O 0.3512(10) 0.7176(11) 0.6415(10)
O19 O 0.4647(11) 0.6943(11) 0.7357(11)
C23_2 C 0.0411(16) 0.1088(17) 0.9202(14)
C27_2 C 0.1912(16) 0.0899(17) 0.9742(14)
H42_2 H 0.2406 0.0697 0.9616
C28_2 C 0.1122(17) 0.0808(18) 0.8939(15)
H43_2 H 0.0618 0.0052 0.8782
C30_2 C 0.0085(15) 0.3229(15) 0.7078(14)
C31_2 C 0.1028(16) 0.4157(16) 0.7049(14)
C32_2 C 0.0858(17) 0.4476(16) 0.6331(15)
H44_2 H 0.0119 0.4106 0.5831
C33_2 C 0.1693(15) 0.5271(16) 0.6251(14)
H45_2 H 0.1577 0.5502 0.5725
C34_2 C 0.2767(15) 0.5802(15) 0.6957(13)
C35_2 C 0.2957(15) 0.5442(16) 0.7688(14)
H46_2 H 0.3694 0.5784 0.8179
C36_2 C 0.2066(15) 0.4631(15) 0.7733(14)
H47_2 H 0.2169 0.4440 0.8289
C37_2 C 0.3703(16) 0.6685(16) 0.6894(14)
O14 O 0.2135(10) 0.9619(11) 0.5971(9)
C17_2 C 0.0174(16) 0.8973(16) 0.6223(14)
H33_2 H 0.0714 0.8976 0.6719
H34_2 H 0.0362 0.9717 0.6418
C18_2 C 0.0197(14) 0.8584(15) 0.5205(13)
H35_2 H 0.0055 0.7859 0.5049
C21_2 C 0.1303(16) 0.9326(16) 0.5228(15)
O4_2 O 0.9266(16) 0.6076(18) 0.0338(13)
O5_2 O 0.774(2) 0.603(2) 0.0014(17)
H1_2 H 0.7991 0.6269 0.0653
C9_2 C 0.6605(15) 0.2191(15) 0.0313(13)
H20_2 H 0.7180 0.2932 0.0809
C10_2 C 0.5927(15) 0.1533(15) 0.0758(13)
H22_2 H 0.5657 0.1935 0.1074
H23_2 H 0.5298 0.0827 0.0244
C11_2 C 0.6579(14) 0.1347(15) 0.1518(13)
H24_2 H 0.7141 0.2063 0.2062
C12_2 C 0.7165(14) 0.0881(15) 0.1096(13)
H25_2 H 0.7662 0.0882 0.1632
H26_2 H 0.6628 0.0127 0.0607
C13_2 C 0.7782(14) 0.1519(16) 0.0617(13)
H27_2 H 0.8099 0.1163 0.0322
H28_2 H 0.8375 0.2250 0.1119
C14_2 C 0.5913(15) 0.0676(15) 0.1953(13)
P1_2 P 0.6167(4) 0.1424(4) 0.5236(4)
P2_2 P 0.6949(4) 0.1742(4) 0.8037(3)
O2_2 O 0.5452(9) 0.1263(9) 0.5798(9)
O6_2 O 0.7793(9) 0.2485(9) 0.7740(8)
O7_2 O 0.6715(9) 0.0579(9) 0.7521(8)
O8_2 O 0.5925(9) 0.1743(10) 0.7866(8)
O16_2 O 0.9142(10) 0.2746(10) 0.6377(9)
O20_2 O 0.9418(11) 0.0532(11) 0.7447(9)
O21_2 O 0.9021(11) 0.1358(12) 0.8543(10)
O24_2 O 0.4041(13) 0.1954(13) 0.7779(11)
H2_2 H 0.3428 0.1606 0.7820
H3_2 H 0.4092 0.2473 0.7624
N1_2 N 0.7453(14) 0.3586(14) 0.6773(12)
H4_2 H 0.7513 0.3191 0.7111
N2_2 N 0.7127(11) 0.1654(12) 0.9868(10)
H5_2 H 0.6583 0.0967 0.9392
C1_2 C 0.7085(14) 0.2898(14) 0.5678(12)
H7_2 H 0.6731 0.3145 0.5284
H8_2 H 0.7734 0.3043 0.5569
C2_2 C 0.8532(16) 0.4656(17) 0.7238(15)
H9_2 H 0.8461 0.5124 0.6941
H10_2 H 0.9063 0.4529 0.7091
C3_2 C 0.8953(19) 0.5259(19) 0.8369(16)
H11_2 H 0.9657 0.5949 0.8654
H12_2 H 0.9041 0.4799 0.8668
C4_2 C 0.8070(19) 0.5443(19) 0.8629(18)
H13_2 H 0.8048 0.5973 0.8401
C5_2 C 0.6944(17) 0.4362(17) 0.8066(15)
H14_2 H 0.6412 0.4515 0.8169
H15_2 H 0.6940 0.3861 0.8349
C6_2 C 0.6620(16) 0.3817(17) 0.6943(15)
H16_2 H 0.5892 0.3147 0.6599
H17_2 H 0.6622 0.4323 0.6667
C7_2 C 0.842(3) 0.589(2) 0.976(2)
C8_2 C 0.7747(14) 0.2270(16) 0.9392(12)
H18_2 H 0.8374 0.2217 0.9479
H19_2 H 0.8018 0.3036 0.9727
H21_2 H 0.6139 0.2230 0.9787
C22_2 C 0.9549(17) 0.0971(18) 0.8339(16)
P3_2 P 0.6253(4) 0.8084(4) 0.5185(4)
O12_2 O 0.6879(8) 0.9223(9) 0.6101(8)
O13_2 O 0.5236(8) 0.7358(9) 0.5298(8)
N3_2 N 0.8221(12) 0.8225(12) 0.5409(11)
H6_2 H 0.8394 0.8918 0.5558
C15_2 C 0.7094(14) 0.7536(15) 0.5399(15)
H29_2 H 0.6703 0.6807 0.4864
H30_2 H 0.7189 0.7471 0.6025
C16_2 C 0.9050(14) 0.8284(16) 0.6183(14)
H31_2 H 0.8876 0.7546 0.6002
H32_2 H 0.9046 0.8544 0.6832
C19_2 C 0.9263(14) 0.8449(16) 0.4387(14)
H36_2 H 0.9235 0.8115 0.3738
H37_2 H 0.9420 0.9172 0.4497
C20_2 C 0.8190(16) 0.7768(16) 0.4400(14)
H38_2 H 0.7623 0.7731 0.3902
H39_2 H 0.8007 0.7030 0.4243
loop_
_geom_bond_atom_site_label_1
_geom_bond_atom_site_label_2
_geom_bond_site_symmetry_1
_geom_bond_site_symmetry_2
P3 O11 1_555 1_555
O11 Pr9 1_555 1_555
O13 Pr2 1_555 1_555
N3 H6 1_555 1_555
C15 P3 1_555 1_555
H29 C15 1_555 1_555
H30 C15 1_555 1_555
C16 N3 1_555 1_555
H31 C16 1_555 1_555
H32 C16 1_555 1_555
H36 C19 1_555 1_555
H37 C19 1_555 1_555
C20 N3 1_555 1_555
H38 C20 1_555 1_555
H39 C20 1_555 1_555
O25 Pr2 1_555 1_555
O27 Pr2 1_555 1_555
O32 Pr2 1_555 1_555
O33 Pr2 1_555 1_555
O34 Pr2 1_555 1_555
O35 Pr2 1_555 1_555
Pr2 O12 1_555 1_555
P3 O12 1_555 1_555
P3 O13 1_555 1_555
N3 C15 1_555 1_555
C19 C20 1_555 1_555
Pr1 O3 1_555 1_555
Pr3 O2 1_555 1_555
P1 O1 1_555 1_555
P2 O6 1_555 1_555
O1 Pr6 1_555 1_555
O2 P1 1_555 1_555
O3 P1 1_555 1_555
O6 Pr1 1_555 1_555
O7 Pr1 1_555 1_555
O8 Pr3 1_555 1_555
O16 Pr1 1_555 1_555
O20 Pr1 1_555 1_555
O21 Pr1 1_555 1_555
O24 Pr3 1_555 1_555
H2 O24 1_555 1_555
H3 O24 1_555 1_555
N1 H4 1_555 1_555
N2 H5 1_555 1_555
C1 P1 1_555 1_555
H7 C1 1_555 1_555
H8 C1 1_555 1_555
C2 N1 1_555 1_555
H9 C2 1_555 1_555
H10 C2 1_555 1_555
C3 C2 1_555 1_555
H11 C3 1_555 1_555
H12 C3 1_555 1_555
C4 C3 1_555 1_555
H13 C4 1_555 1_555
C5 C4 1_555 1_555
H14 C5 1_555 1_555
H15 C5 1_555 1_555
C6 N1 1_555 1_555
H16 C6 1_555 1_555
H17 C6 1_555 1_555
C8 P2 1_555 1_555
H18 C8 1_555 1_555
H19 C8 1_555 1_555
C22 O20 1_555 1_555
O29 Pr3 1_555 1_555
O31 Pr1 1_555 1_555
P2 O7 1_555 1_555
P2 O8 1_555 1_555
O21 C22 1_555 1_555
N1 C1 1_555 1_555
N2 C8 1_555 1_555
C4 C7 1_555 1_555
C5 C6 1_555 1_555
O5 H1 1_555 1_555
O9 C14 1_555 1_555
O10 C14 1_555 1_555
H20 C9 1_555 1_555
C10 C9 1_555 1_555
H22 C10 1_555 1_555
H23 C10 1_555 1_555
C11 C10 1_555 1_555
H24 C11 1_555 1_555
C12 C11 1_555 1_555
H25 C12 1_555 1_555
H26 C12 1_555 1_555
H27 C13 1_555 1_555
H28 C13 1_555 1_555
C14 C11 1_555 1_555
Pr6 O9 1_555 1_555
C12 C13 1_555 1_555
O30 C21 1_555 1_555
O15 C21 1_555 1_555
H33 C17 1_555 1_555
H34 C17 1_555 1_555
C18 C17 1_555 1_555
H35 C18 1_555 1_555
C21 C18 1_555 1_555
Pr4 O15 1_555 1_555
O32 C37 1_555 1_555
O33 C37 1_555 1_555
H42 C27 1_555 1_555
C28 C23 1_555 1_555
H43 C28 1_555 1_555
C31 C30 1_555 1_555
C32 C31 1_555 1_555
H44 C32 1_555 1_555
C33 C32 1_555 1_555
H45 C33 1_555 1_555
C34 C33 1_555 1_555
C35 C34 1_555 1_555
H46 C35 1_555 1_555
C36 C31 1_555 1_555
H47 C36 1_555 1_555
C37 C34 1_555 1_555
O17 C30 1_555 1_555
C27 C28 1_555 1_555
C35 C36 1_555 1_555
O22 C29 1_555 1_555
O23 C29 1_555 1_555
H40 C24 1_555 1_555
C25 C24 1_555 1_555
H41 C25 1_555 1_555
C26 C25 1_555 1_555
C29 C26 1_555 1_555
Pr6 O22 1_555 1_555
O23 Pr6 1_555 1_555
O34 C29_2 1_555 1_555
O35 C29_2 1_555 1_555
H40_2 C24_2 1_555 1_555
C25_2 C24_2 1_555 1_555
H41_2 C25_2 1_555 1_555
C26_2 C25_2 1_555 1_555
C29_2 C26_2 1_555 1_555
O18 C37_2 1_555 1_555
O19 C37_2 1_555 1_555
H42_2 C27_2 1_555 1_555
C28_2 C23_2 1_555 1_555
H43_2 C28_2 1_555 1_555
C31_2 C30_2 1_555 1_555
C32_2 C31_2 1_555 1_555
H44_2 C32_2 1_555 1_555
C33_2 C32_2 1_555 1_555
H45_2 C33_2 1_555 1_555
C34_2 C33_2 1_555 1_555
C35_2 C34_2 1_555 1_555
H46_2 C35_2 1_555 1_555
C36_2 C31_2 1_555 1_555
H47_2 C36_2 1_555 1_555
C37_2 C34_2 1_555 1_555
Pr6 O18 1_555 1_555
O17_2 C30_2 1_555 1_555
O19 Pr6 1_555 1_555
C27_2 C28_2 1_555 1_555
C35_2 C36_2 1_555 1_555
O14 C21_2 1_555 1_555
O31 C21_2 1_555 1_555
H33_2 C17_2 1_555 1_555
H34_2 C17_2 1_555 1_555
C18_2 C17_2 1_555 1_555
H35_2 C18_2 1_555 1_555
C21_2 C18_2 1_555 1_555
O5_2 H1_2 1_555 1_555
O27 C14_2 1_555 1_555
O28 C14_2 1_555 1_555
H20_2 C9_2 1_555 1_555
C10_2 C9_2 1_555 1_555
H22_2 C10_2 1_555 1_555
H23_2 C10_2 1_555 1_555
C11_2 C10_2 1_555 1_555
H24_2 C11_2 1_555 1_555
C12_2 C11_2 1_555 1_555
H25_2 C12_2 1_555 1_555
H26_2 C12_2 1_555 1_555
H27_2 C13_2 1_555 1_555
H28_2 C13_2 1_555 1_555
C14_2 C11_2 1_555 1_555
C12_2 C13_2 1_555 1_555
Pr4 O26 1_555 1_555
Pr9 O2_2 1_555 1_555
P1_2 O25 1_555 1_555
P2_2 O6_2 1_555 1_555
O2_2 P1_2 1_555 1_555
O26 P1_2 1_555 1_555
O6_2 Pr4 1_555 1_555
O7_2 Pr4 1_555 1_555
O8_2 Pr9 1_555 1_555
O16_2 Pr4 1_555 1_555
O20_2 Pr4 1_555 1_555
O21_2 Pr4 1_555 1_555
O24_2 Pr9 1_555 1_555
H2_2 O24_2 1_555 1_555
H3_2 O24_2 1_555 1_555
N1_2 H4_2 1_555 1_555
N2_2 H5_2 1_555 1_555
C1_2 P1_2 1_555 1_555
H7_2 C1_2 1_555 1_555
H8_2 C1_2 1_555 1_555
C2_2 N1_2 1_555 1_555
H9_2 C2_2 1_555 1_555
H10_2 C2_2 1_555 1_555
C3_2 C2_2 1_555 1_555
H11_2 C3_2 1_555 1_555
H12_2 C3_2 1_555 1_555
C4_2 C3_2 1_555 1_555
H13_2 C4_2 1_555 1_555
C5_2 C4_2 1_555 1_555
H14_2 C5_2 1_555 1_555
H15_2 C5_2 1_555 1_555
C6_2 N1_2 1_555 1_555
H16_2 C6_2 1_555 1_555
H17_2 C6_2 1_555 1_555
C8_2 P2_2 1_555 1_555
H18_2 C8_2 1_555 1_555
H19_2 C8_2 1_555 1_555
C22_2 O20_2 1_555 1_555
P2_2 O7_2 1_555 1_555
P2_2 O8_2 1_555 1_555
O21_2 C22_2 1_555 1_555
N1_2 C1_2 1_555 1_555
N2_2 C8_2 1_555 1_555
C4_2 C7_2 1_555 1_555
C5_2 C6_2 1_555 1_555
P3_2 O29 1_555 1_555
O13_2 Pr6 1_555 1_555
N3_2 H6_2 1_555 1_555
C15_2 P3_2 1_555 1_555
H29_2 C15_2 1_555 1_555
H30_2 C15_2 1_555 1_555
C16_2 N3_2 1_555 1_555
H31_2 C16_2 1_555 1_555
H32_2 C16_2 1_555 1_555
H36_2 C19_2 1_555 1_555
H37_2 C19_2 1_555 1_555
C20_2 N3_2 1_555 1_555
H38_2 C20_2 1_555 1_555
H39_2 C20_2 1_555 1_555
Pr6 O12_2 1_555 1_555
P3_2 O12_2 1_555 1_555
P3_2 O13_2 1_555 1_555
N3_2 C15_2 1_555 1_555
C19_2 C20_2 1_555 1_555

#END
