
###############################################################################
#
# This file contains modified crystal structure data generated from the
# MOF subset of the Cambridge Structural Database (CSD) v543 
# hosted by the Cambridge Crystallographic Data Centre (CCDC).
#
# This work is licensed under the Creative Commons
# Attribution-NonCommercial-ShareAlike 4.0 International License.
# To view a copy of this license, visit
# http://creativecommons.org/licenses/by-nc-sa/4.0/
# or send a letter to
# Creative Commons, PO Box 1866, Mountain View, CA 94042, USA.
#
# CIF created using the CSD Python API on 29 September 2022
# The structure has been converted into the P1 space group
# The structure has a 3D framework
# The original CSD entry MEKDUC is in the monoclinic crystal system
# The framework has been calculated to contain at least 10.0% void space
# The void calculation uses a probe of radius 1.32A, grid spacing 0.4
#
###############################################################################

data_MEKDUC
_chemical_formula_moiety         '(C56 H32 Cd4 N24 O8 S8)n'
_symmetry_cell_setting           triclinic
_symmetry_space_group_name_H-M   'P 1'
_symmetry_Int_Tables_number      1
_space_group_name_Hall           'P 1'
loop_
_symmetry_equiv_pos_site_id
_symmetry_equiv_pos_as_xyz
1 x,y,z
_cell_length_a                   11.6012(8)
_cell_length_b                   16.8578(11)
_cell_length_c                   10.9825(7)
_cell_angle_alpha                90
_cell_angle_beta                 94.7580(10)
_cell_angle_gamma                90
_cell_volume                     2140.45
loop_
_atom_site_label
_atom_site_type_symbol
_atom_site_fract_x
_atom_site_fract_y
_atom_site_fract_z
Cd1 Cd 0.244861(17) 0.254079(10) 0.162492(18)
S2 S 0.41952(6) 0.21166(4) 0.02619(7)
H6 H 0.6709 0.4550 0.0028
N7 N 0.1637(2) 0.12331(14) 0.1522(2)
N8 N 0.1247(2) 0.30722(14) 0.3083(2)
N9 N 0.3221(2) 0.38564(13) 0.1580(2)
N10 N 0.3726(2) 0.19701(13) 0.3213(2)
S1 S 0.08108(7) 0.29625(4) 0.99138(7)
O2 O 0.50594(17) 0.34922(11) 0.95659(17)
N2 N 0.0849(2) 0.11755(14) 0.7703(2)
N3 N 0.1247(2) 0.19278(14) 0.8083(2)
N4 N 0.6779(2) 0.61436(13) 0.8420(2)
N5 N 0.4139(2) 0.37469(14) 0.7778(2)
N6 N 0.3726(2) 0.30299(13) 0.8213(2)
C6 C 0.0085(3) 0.09832(16) 0.8433(3)
C7 C 0.0702(2) 0.21349(16) 0.9030(3)
C8 C 0.7056(3) 0.56170(18) 0.9302(3)
H5 H 0.7663 0.5737 0.9881
C9 C 0.6486(3) 0.49016(18) 0.9400(3)
C10 C 0.5585(3) 0.47182(16) 0.8554(3)
C11 C 0.5309(3) 0.5256(2) 0.7628(3)
H7 H 0.4718 0.5147 0.7027
C12 C 0.5919(3) 0.5954(2) 0.7604(3)
H8 H 0.5716 0.6313 0.6980
C13 C 0.4912(3) 0.39869(16) 0.8592(3)
C14 C 0.4275(2) 0.28902(15) 0.9282(3)
Cd3 Cd 0.244861(17) 0.245921(10) 0.662492(18)
Cd4 Cd 0.755139(17) 0.745921(10) 0.837508(18)
N1 N 0.8363(2) 0.87669(14) 0.8478(2)
C1 C 0.9316(3) 0.88720(19) 0.7899(3)
H1 H 0.9622 0.8437 0.7516
C2 C 0.9871(3) 0.95906(19) 0.7839(3)
C5 C 0.7969(3) 0.93912(18) 0.9060(3)
H4 H 0.7309 0.9327 0.9476
O1 O 0.00787(17) 0.65492(11) 0.57173(18)
N1_2 N 0.1637(2) 0.37669(14) 0.6522(2)
C1_2 C 0.0684(3) 0.38720(19) 0.7101(3)
H1_2 H 0.0378 0.3437 0.7484
C2_2 C 0.0129(3) 0.45906(19) 0.7161(3)
C3 C 0.0544(3) 0.52323(16) 0.6553(3)
C4 C 0.1513(3) 0.51272(17) 0.5921(3)
H3 H 0.1810 0.5545 0.5491
C5_2 C 0.2031(3) 0.43912(18) 0.5940(3)
H4_2 H 0.2691 0.4327 0.5524
N4_2 N 0.3221(2) 0.11436(13) 0.6580(2)
C8_2 C 0.2944(3) 0.06170(18) 0.5698(3)
H5_2 H 0.2337 0.0737 0.5119
C11_2 C 0.4691(3) 0.0256(2) 0.7372(3)
H7_2 H 0.5282 0.0147 0.7973
C12_2 C 0.4081(3) 0.0954(2) 0.7396(3)
H8_2 H 0.4284 0.1313 0.8020
Cd1_2 Cd 0.755139(17) 0.754079(10) 0.337508(18)
S1_2 S 0.91892(7) 0.79625(4) 0.50862(7)
S2_2 S 0.58048(6) 0.71166(4) 0.47381(7)
O2_2 O 0.49406(17) 0.84922(11) 0.54341(17)
N2_2 N 0.9151(2) 0.61755(14) 0.7297(2)
N3_2 N 0.8753(2) 0.69278(14) 0.6917(2)
N5_2 N 0.5861(2) 0.87469(14) 0.7222(2)
N6_2 N 0.6274(2) 0.80299(13) 0.6787(2)
H2 H 0.9485 0.4643 0.7605
C6_2 C 0.9915(3) 0.59832(16) 0.6567(3)
C7_2 C 0.9298(2) 0.71349(16) 0.5970(3)
C9_2 C 0.3514(3) 0.99016(18) 0.5600(3)
H6_2 H 0.3291 0.9550 0.4972
C10_2 C 0.4415(3) 0.97182(16) 0.6446(3)
C13_2 C 0.5088(3) 0.89869(16) 0.6408(3)
C14_2 C 0.5725(2) 0.78902(15) 0.5718(3)
N7_2 N 0.8363(2) 0.62331(14) 0.3478(2)
N8_2 N 0.8753(2) 0.80722(14) 0.1917(2)
N9_2 N 0.6779(2) 0.88564(13) 0.3420(2)
N10_2 N 0.6274(2) 0.69701(13) 0.1787(2)
C1_3 C 0.0684(3) 0.11280(19) 0.2101(3)
H1_3 H 0.0378 0.1563 0.2484
C2_3 C 0.0129(3) 0.04094(19) 0.2161(3)
C5_3 C 0.2031(3) 0.06088(18) 0.0940(3)
H4_3 H 0.2691 0.0673 0.0524
S1_3 S 0.91892(7) 0.70375(4) 0.00862(7)
O2_3 O 0.49406(17) 0.65078(11) 0.04341(17)
N2_3 N 0.9151(2) 0.88245(14) 0.2297(2)
N5_3 N 0.5861(2) 0.62531(14) 0.2222(2)
C6_3 C 0.9915(3) 0.90168(16) 0.1567(3)
C7_3 C 0.9298(2) 0.78651(16) 0.0970(3)
C8_3 C 0.2944(3) 0.43830(18) 0.0698(3)
H5_3 H 0.2337 0.4263 0.0119
C9_3 C 0.3514(3) 0.50984(18) 0.0600(3)
C10_3 C 0.4415(3) 0.52818(16) 0.1446(3)
C11_3 C 0.4691(3) 0.4744(2) 0.2372(3)
H7_3 H 0.5282 0.4853 0.2973
C12_3 C 0.4081(3) 0.4046(2) 0.2396(3)
H8_3 H 0.4284 0.3687 0.3020
C13_3 C 0.5088(3) 0.60131(16) 0.1408(3)
C14_3 C 0.5725(2) 0.71098(15) 0.0718(3)
S2_3 S 0.58048(6) 0.78834(4) 0.97381(7)
H6_3 H 0.3291 0.5450 0.9972
S1_4 S 0.08108(7) 0.20375(4) 0.49138(7)
S2_4 S 0.41952(6) 0.28834(4) 0.52619(7)
O2_4 O 0.50594(17) 0.15078(11) 0.45659(17)
N2_4 N 0.0849(2) 0.38245(14) 0.2703(2)
N5_4 N 0.4139(2) 0.12531(14) 0.2778(2)
H2_2 H 0.0515 0.5357 0.2395
C6_4 C 0.0085(3) 0.40168(16) 0.3433(3)
C7_4 C 0.0702(2) 0.28651(16) 0.4030(3)
C9_4 C 0.6486(3) 0.00984(18) 0.4400(3)
H6_4 H 0.6709 0.0450 0.5028
C10_4 C 0.5585(3) 0.02818(16) 0.3554(3)
C13_4 C 0.4912(3) 0.10131(16) 0.3592(3)
C14_4 C 0.4275(2) 0.21098(15) 0.4282(3)
C8_4 C 0.7056(3) 0.93830(18) 0.4302(3)
H5_4 H 0.7663 0.9263 0.4881
C11_4 C 0.5309(3) 0.9744(2) 0.2628(3)
H7_4 H 0.4718 0.9853 0.2027
C12_4 C 0.5919(3) 0.9046(2) 0.2604(3)
H8_4 H 0.5716 0.8687 0.1980
O1_2 O 0.99213(17) 0.34508(11) 0.42827(18)
C1_4 C 0.9316(3) 0.61280(19) 0.2899(3)
H1_4 H 0.9622 0.6563 0.2516
C2_4 C 0.9871(3) 0.54094(19) 0.2839(3)
C3_2 C 0.9456(3) 0.47677(16) 0.3447(3)
C4_2 C 0.8487(3) 0.48728(17) 0.4079(3)
H3_2 H 0.8190 0.4455 0.4509
C5_4 C 0.7969(3) 0.56088(18) 0.4060(3)
H4_4 H 0.7309 0.5673 0.4476
H2_3 H 0.0515 0.9643 0.7395
O1_3 O 0.99213(17) 0.15492(11) 0.92827(18)
C3_3 C 0.9456(3) 0.02323(16) 0.8447(3)
C4_3 C 0.8487(3) 0.01272(17) 0.9079(3)
H3_3 H 0.8190 0.0545 0.9509
O1_4 O 0.00787(17) 0.84508(11) 0.07173(18)
C3_4 C 0.0544(3) 0.97677(16) 0.1553(3)
C4_4 C 0.1513(3) 0.98728(17) 0.0921(3)
H3_4 H 0.1810 0.9455 0.0491
H2_4 H 0.9485 0.0357 0.2605
loop_
_geom_bond_atom_site_label_1
_geom_bond_atom_site_label_2
_geom_bond_site_symmetry_1
_geom_bond_site_symmetry_2
S2 Cd1 1_555 1_555
N7 Cd1 1_555 1_555
N8 Cd1 1_555 1_555
N9 Cd1 1_555 1_555
N10 Cd1 1_555 1_555
S1 C7 1_555 1_555
O2 C13 1_555 1_555
N2 N3 1_555 1_555
N3 C7 1_555 1_555
N4 C8 1_555 1_555
N5 N6 1_555 1_555
N6 C14 1_555 1_555
C6 N2 1_555 1_555
C8 H5 1_555 1_555
C9 C8 1_555 1_555
C10 C9 1_555 1_555
C11 C10 1_555 1_555
H7 C11 1_555 1_555
C12 N4 1_555 1_555
H8 C12 1_555 1_555
C13 N5 1_555 1_555
Cd3 N3 1_555 1_555
Cd4 N4 1_555 1_555
O2 C14 1_555 1_555
N6 Cd3 1_555 1_555
C10 C13 1_555 1_555
C11 C12 1_555 1_555
N1 C1 1_555 1_555
C1 H1 1_555 1_555
C2 C1 1_555 1_555
C5 N1 1_555 1_555
H4 C5 1_555 1_555
Cd4 N1 1_555 1_555
N1_2 C1_2 1_555 1_555
C1_2 H1_2 1_555 1_555
C2_2 C1_2 1_555 1_555
C3 C2_2 1_555 1_555
C4 C3 1_555 1_555
H3 C4 1_555 1_555
C5_2 N1_2 1_555 1_555
H4_2 C5_2 1_555 1_555
Cd3 N1_2 1_555 1_555
C4 C5_2 1_555 1_555
N4_2 C8_2 1_555 1_555
C8_2 H5_2 1_555 1_555
H7_2 C11_2 1_555 1_555
C12_2 N4_2 1_555 1_555
H8_2 C12_2 1_555 1_555
Cd3 N4_2 1_555 1_555
C11_2 C12_2 1_555 1_555
Cd1_2 S1_2 1_555 1_555
S1_2 C7_2 1_555 1_555
S2_2 Cd1_2 1_555 1_555
O2_2 C13_2 1_555 1_555
N2_2 N3_2 1_555 1_555
N3_2 C7_2 1_555 1_555
N5_2 N6_2 1_555 1_555
N6_2 C14_2 1_555 1_555
C6_2 N2_2 1_555 1_555
H6_2 C9_2 1_555 1_555
C10_2 C9_2 1_555 1_555
C13_2 N5_2 1_555 1_555
C14_2 S2_2 1_555 1_555
Cd4 N3_2 1_555 1_555
N7_2 Cd1_2 1_555 1_555
N8_2 Cd1_2 1_555 1_555
N9_2 Cd1_2 1_555 1_555
N10_2 Cd1_2 1_555 1_555
O2_2 C14_2 1_555 1_555
N6_2 Cd4 1_555 1_555
C10_2 C13_2 1_555 1_555
N7 C1_3 1_555 1_555
C1_3 H1_3 1_555 1_555
C2_3 C1_3 1_555 1_555
C5_3 N7 1_555 1_555
H4_3 C5_3 1_555 1_555
S1_3 C7_3 1_555 1_555
O2_3 C13_3 1_555 1_555
N2_3 N8_2 1_555 1_555
N8_2 C7_3 1_555 1_555
N9 C8_3 1_555 1_555
N5_3 N10_2 1_555 1_555
N10_2 C14_3 1_555 1_555
C6_3 N2_3 1_555 1_555
C8_3 H5_3 1_555 1_555
C9_3 C8_3 1_555 1_555
C10_3 C9_3 1_555 1_555
C11_3 C10_3 1_555 1_555
H7_3 C11_3 1_555 1_555
C12_3 N9 1_555 1_555
H8_3 C12_3 1_555 1_555
C13_3 N5_3 1_555 1_555
O2_3 C14_3 1_555 1_555
C10_3 C13_3 1_555 1_555
C11_3 C12_3 1_555 1_555
S2_3 Cd4 1_555 1_555
Cd3 S1_4 1_555 1_555
S1_4 C7_4 1_555 1_555
S2_4 Cd3 1_555 1_555
O2_4 C13_4 1_555 1_555
N2_4 N8 1_555 1_555
N8 C7_4 1_555 1_555
N5_4 N10 1_555 1_555
N10 C14_4 1_555 1_555
C6_4 N2_4 1_555 1_555
H6_4 C9_4 1_555 1_555
C10_4 C9_4 1_555 1_555
C13_4 N5_4 1_555 1_555
C14_4 S2_4 1_555 1_555
O2_4 C14_4 1_555 1_555
C10_4 C13_4 1_555 1_555
N9_2 C8_4 1_555 1_555
C8_4 H5_4 1_555 1_555
H7_4 C11_4 1_555 1_555
C12_4 N9_2 1_555 1_555
H8_4 C12_4 1_555 1_555
C11_4 C12_4 1_555 1_555
N7_2 C1_4 1_555 1_555
C1_4 H1_4 1_555 1_555
C2_4 C1_4 1_555 1_555
C3_2 C2_4 1_555 1_555
C4_2 C3_2 1_555 1_555
H3_2 C4_2 1_555 1_555
C5_4 N7_2 1_555 1_555
H4_4 C5_4 1_555 1_555
C4_2 C5_4 1_555 1_555
C4_3 C3_3 1_555 1_555
H3_3 C4_3 1_555 1_555
C4_4 C3_4 1_555 1_555
H3_4 C4_4 1_555 1_555

#END
