
###############################################################################
#
# This file contains modified crystal structure data generated from the
# MOF subset of the Cambridge Structural Database (CSD) v543 
# hosted by the Cambridge Crystallographic Data Centre (CCDC).
#
# This work is licensed under the Creative Commons
# Attribution-NonCommercial-ShareAlike 4.0 International License.
# To view a copy of this license, visit
# http://creativecommons.org/licenses/by-nc-sa/4.0/
# or send a letter to
# Creative Commons, PO Box 1866, Mountain View, CA 94042, USA.
#
# CIF created using the CSD Python API on 29 September 2022
# The structure has been converted into the P1 space group
# The structure has a 3D framework
# The original CSD entry MEQPUW is in the monoclinic crystal system
# The framework has been calculated to contain at least 10.0% void space
# The void calculation uses a probe of radius 1.32A, grid spacing 0.4
# H atom positions have been added when not included in the experimental data
#
###############################################################################

data_MEQPUW
_chemical_formula_moiety         '(C100 H72 Cu4 N16 O20)n'
_symmetry_cell_setting           triclinic
_symmetry_space_group_name_H-M   'P 1'
_symmetry_Int_Tables_number      1
_space_group_name_Hall           'P 1'
loop_
_symmetry_equiv_pos_site_id
_symmetry_equiv_pos_as_xyz
1 x,y,z
_cell_length_a                   16.191(9)
_cell_length_b                   15.418(9)
_cell_length_c                   12.769(8)
_cell_angle_alpha                90
_cell_angle_beta                 122.547(9)
_cell_angle_gamma                90
_cell_volume                     2686.96
loop_
_atom_site_label
_atom_site_type_symbol
_atom_site_fract_x
_atom_site_fract_y
_atom_site_fract_z
H13 H 0.6153 0.0335 0.3014
C24 C 0.5231(6) 0.0085(7) 0.0573(8)
H16 H 0.5237 0.0664 0.0780
C17 C 0.8459(8) 0.0036(9) 0.7914(13)
H11 H 0.7938 0.0424 0.7591
O6 O 0.8750(7) 0.0476(6) 0.6473(9)
H17 H 0.807324 0.0331785 0.578508
C1 C 0.0883(5) 0.1703(5) 0.4443(7)
C2 C 0.0000(5) 0.1092(5) 0.3854(7)
C7 C 0.3312(6) 0.0820(6) 0.6190(8)
H4 H 0.3037 0.0626 0.5378
C8 C 0.3804(6) 0.0244(6) 0.7154(9)
C9 C 0.4239(6) 0.0518(6) 0.8378(8)
C10 C 0.4101(8) 0.1387(8) 0.8565(9)
H6 H 0.4333 0.1599 0.9359
C11 C 0.3603(7) 0.1930(6) 0.7525(9)
H7 H 0.3547 0.2515 0.7654
Cu1 Cu 0.2500 0.2500 0.5000
N2 N 0.3218(4) 0.1663(4) 0.6398(6)
O1 O 0.1448(3) 0.1646(3) 0.4041(4)
O2 O 0.0991(5) 0.2237(5) 0.5232(7)
C14 C 0.0000(5) 0.1092(5) 0.1146(7)
C15 C 0.0542(7) 0.1058(7) 0.0577(9)
C16 C 0.1341(7) 0.0478(11) 0.1104(12)
H10 H 0.1735 0.0445 0.0780
C18 C 0.0254(5) 0.0571(5) 0.2179(8)
N3 N 0.1009(6) 0.0007(5) 0.2587(10)
N5 N 0.1782(4) 0.3337(4) 0.3602(6)
O7 O 0.3552(3) 0.3354(3) 0.5959(4)
O8 O 0.4009(5) 0.2763(5) 0.4768(7)
O5 O 0.9009(5) 0.2237(5) 0.9768(7)
Cu2 Cu 0.7500 0.2500 1.0000
C7_2 C 0.6688(6) 0.0820(6) 0.8810(8)
H4_2 H 0.6963 0.0626 0.9622
C8_2 C 0.6196(6) 0.0244(6) 0.7846(9)
C9_2 C 0.5761(6) 0.0518(6) 0.6622(8)
C10_2 C 0.5899(8) 0.1387(8) 0.6435(9)
H6_2 H 0.5667 0.1599 0.5641
C11_2 C 0.6397(7) 0.1930(6) 0.7475(9)
H7_2 H 0.6453 0.2515 0.7346
N2_2 N 0.6782(4) 0.1663(4) 0.8602(6)
H13_2 H 0.3847 0.0335 0.1986
C24_2 C 0.4769(6) 0.0085(7) 0.4427(8)
H16_2 H 0.4763 0.0664 0.4220
O7_2 O 0.6448(3) 0.3354(3) 0.9041(4)
C19 C 0.1688(6) 0.4180(6) 0.3810(8)
H12 H 0.1963 0.4374 0.4622
C20 C 0.1196(6) 0.4756(6) 0.2846(9)
H13_3 H 0.1153 0.5335 0.3014
C21 C 0.0761(6) 0.4482(6) 0.1622(8)
C22 C 0.0899(8) 0.3613(8) 0.1435(9)
H14 H 0.0667 0.3401 0.0641
C23 C 0.1397(7) 0.3070(6) 0.2475(9)
H15 H 0.1453 0.2485 0.2346
C24_3 C 0.0231(6) 0.5085(7) 0.0573(8)
H16_3 H 0.0237 0.5664 0.0780
C1_2 C 0.4117(5) 0.3297(5) 0.5557(7)
C2_2 C 0.5000(5) 0.3908(5) 0.6146(7)
C3 C 0.5542(7) 0.3942(7) 0.5577(9)
H1 H 0.5382 0.3600 0.4892
C4 C 0.6341(7) 0.4522(11) 0.6104(12)
H2 H 0.6735 0.4555 0.5780
C5 C 0.6541(8) 0.5036(9) 0.7086(13)
H3 H 0.7062 0.5424 0.7409
C6 C 0.5254(5) 0.4429(5) 0.7179(8)
N1 N 0.6009(6) 0.4993(5) 0.7587(10)
O3 O 0.6250(7) 0.5476(6) 0.8527(9)
C13 C 0.5883(5) 0.3297(5) 0.9443(7)
C14_2 C 0.5000(5) 0.3908(5) 0.8854(7)
C15_2 C 0.4458(7) 0.3942(7) 0.9423(9)
C16_2 C 0.3659(7) 0.4522(11) 0.8896(12)
H10_2 H 0.3265 0.4555 0.9220
C17_2 C 0.3459(8) 0.5036(9) 0.7914(13)
H11_2 H 0.2938 0.5424 0.7591
C18_2 C 0.4746(5) 0.4429(5) 0.7821(8)
N3_2 N 0.3991(6) 0.4993(5) 0.7413(10)
O6_2 O 0.3750(7) 0.5476(6) 0.6473(9)
H17_2 H 0.307324 0.533178 0.578508
H18 H 0.692676 0.533178 0.921492
H9 H 0.0382 0.1400 0.9892
C19_2 C 0.6688(6) 0.9180(6) 0.3810(8)
H12_2 H 0.6963 0.9374 0.4622
C20_2 C 0.6196(6) 0.9756(6) 0.2846(9)
C21_2 C 0.5761(6) 0.9482(6) 0.1622(8)
C22_2 C 0.5899(8) 0.8613(8) 0.1435(9)
H14_2 H 0.5667 0.8401 0.0641
C23_2 C 0.6397(7) 0.8070(6) 0.2475(9)
H15_2 H 0.6453 0.7485 0.2346
N4 N 0.6782(4) 0.8337(4) 0.3602(6)
Cu3 Cu 0.7500 0.7500 0.5000
H5 H 0.6153 0.9665 0.8014
C12 C 0.5231(6) 0.9915(7) 0.5573(8)
H8 H 0.5237 0.9336 0.5780
C19_3 C 0.3312(6) 0.9180(6) 0.1190(8)
H12_3 H 0.3037 0.9374 0.0378
C20_3 C 0.3804(6) 0.9756(6) 0.2154(9)
C21_3 C 0.4239(6) 0.9482(6) 0.3378(8)
C22_3 C 0.4101(8) 0.8613(8) 0.3565(9)
H14_3 H 0.4333 0.8401 0.4359
C23_3 C 0.3603(7) 0.8070(6) 0.2525(9)
H15_3 H 0.3547 0.7485 0.2654
N4_2 N 0.3218(4) 0.8337(4) 0.1398(6)
Cu3_2 Cu 0.2500 0.7500 0.0000
C1_3 C 0.5883(5) 0.6703(5) 0.4443(7)
C2_3 C 0.5000(5) 0.6092(5) 0.3854(7)
C3_2 C 0.4458(7) 0.6058(7) 0.4423(9)
H1_2 H 0.4618 0.6400 0.5108
C4_2 C 0.3659(7) 0.5478(11) 0.3896(12)
H2_2 H 0.3265 0.5445 0.4220
C5_2 C 0.3459(8) 0.4964(9) 0.2914(13)
H3_2 H 0.2938 0.4576 0.2591
C6_2 C 0.4746(5) 0.5571(5) 0.2821(8)
C7_3 C 0.8312(6) 0.5820(6) 0.6190(8)
H4_3 H 0.8037 0.5626 0.5378
C8_3 C 0.8804(6) 0.5244(6) 0.7154(9)
H5_2 H 0.8847 0.4665 0.6986
C9_3 C 0.9239(6) 0.5518(6) 0.8378(8)
C10_3 C 0.9101(8) 0.6387(8) 0.8565(9)
H6_3 H 0.9333 0.6599 0.9359
C11_3 C 0.8603(7) 0.6930(6) 0.7525(9)
H7_3 H 0.8547 0.7515 0.7654
C12_2 C 0.9769(6) 0.4915(7) 0.9427(8)
H8_2 H 0.9763 0.4336 0.9220
N1_2 N 0.3991(6) 0.5007(5) 0.2413(10)
N2_3 N 0.8218(4) 0.6663(4) 0.6398(6)
O1_2 O 0.6448(3) 0.6646(3) 0.4041(4)
O2_2 O 0.5991(5) 0.7237(5) 0.5232(7)
O3_2 O 0.3750(7) 0.4524(6) 0.1473(9)
C13_2 C 0.4117(5) 0.6703(5) 0.0557(7)
C14_3 C 0.5000(5) 0.6092(5) 0.1146(7)
C15_3 C 0.5542(7) 0.6058(7) 0.0577(9)
C16_3 C 0.6341(7) 0.5478(11) 0.1104(12)
H10_3 H 0.6735 0.5445 0.0780
C17_3 C 0.6541(8) 0.4964(9) 0.2086(13)
H11_3 H 0.7062 0.4576 0.2409
C18_3 C 0.5254(5) 0.5571(5) 0.2179(8)
N3_3 N 0.6009(6) 0.5007(5) 0.2587(10)
O4 O 0.3552(3) 0.6646(3) 0.0959(4)
O6_3 O 0.6250(7) 0.4524(6) 0.3527(9)
O7_3 O 0.8552(3) 0.8354(3) 0.5959(4)
O8_2 O 0.9009(5) 0.7763(5) 0.4768(7)
H17_3 H 0.692676 0.466822 0.421492
H18_2 H 0.307324 0.466822 0.0785081
O8_3 O 0.0991(5) 0.7763(5) 0.0232(7)
C1_4 C 0.9117(5) 0.8297(5) 0.5557(7)
C2_4 C 1.0000(5) 0.8908(5) 0.6146(7)
C14_4 C 1.0000(5) 0.8908(5) 0.8854(7)
C15_4 C 0.9458(7) 0.8942(7) 0.9423(9)
C16_4 C 0.8659(7) 0.9522(11) 0.8896(12)
H10_4 H 0.8265 0.9555 0.9220
C18_4 C 0.9746(5) 0.9429(5) 0.7821(8)
N3_4 N 0.8991(6) 0.9993(5) 0.7413(10)
H5_3 H 0.3847 0.9665 0.6986
C12_3 C 0.4769(6) 0.9915(7) 0.9427(8)
H8_3 H 0.4763 0.9336 0.9220
C17_4 C 0.1541(8) 0.9964(9) 0.2086(13)
H11_4 H 0.2062 0.9576 0.2409
O6_4 O 0.1250(7) 0.9524(6) 0.3527(9)
H17_4 H 0.192676 0.966822 0.421492
C2_5 C 1.0000(5) 0.1092(5) 0.3854(7)
C3_3 C 0.9458(7) 0.1058(7) 0.4423(9)
H1_3 H 0.9618 0.1400 0.5108
C4_3 C 0.8659(7) 0.0478(11) 0.3896(12)
H2_3 H 0.8265 0.0445 0.4220
C6_3 C 0.9746(5) 0.0571(5) 0.2821(8)
N1_3 N 0.8991(6) 0.0007(5) 0.2413(10)
C13_3 C 0.9117(5) 0.1703(5) 0.0557(7)
C14_5 C 1.0000(5) 0.1092(5) 0.1146(7)
O4_2 O 0.8552(3) 0.1646(3) 0.0959(4)
Cu2_2 Cu 0.7500 0.2500 0.0000
N5_2 N 0.8218(4) 0.3337(4) 0.1398(6)
O8_4 O 0.5991(5) 0.2763(5) 0.0232(7)
C19_4 C 0.8312(6) 0.4180(6) 0.1190(8)
H12_4 H 0.8037 0.4374 0.0378
C20_4 C 0.8804(6) 0.4756(6) 0.2154(9)
H13_4 H 0.8847 0.5335 0.1986
C21_4 C 0.9239(6) 0.4482(6) 0.3378(8)
C22_4 C 0.9101(8) 0.3613(8) 0.3565(9)
H14_4 H 0.9333 0.3401 0.4359
C23_4 C 0.8603(7) 0.3070(6) 0.2525(9)
H15_4 H 0.8547 0.2485 0.2654
C24_4 C 0.9769(6) 0.5085(7) 0.4427(8)
H16_4 H 0.9763 0.5664 0.4220
H9_2 H 0.4618 0.3600 0.0108
C5_3 C 0.8459(8) 0.9964(9) 0.2914(13)
H3_3 H 0.7938 0.9576 0.2591
O3_3 O 0.8750(7) 0.9524(6) 0.1473(9)
H18_3 H 0.807324 0.966822 0.0785081
Cu3_3 Cu 0.2500 0.7500 1.0000
H9_3 H 0.5382 0.6400 0.9892
O5_2 O 0.4009(5) 0.7237(5) 0.9768(7)
C7_4 C 0.1688(6) 0.5820(6) 0.8810(8)
H4_4 H 0.1963 0.5626 0.9622
C8_4 C 0.1196(6) 0.5244(6) 0.7846(9)
H5_4 H 0.1153 0.4665 0.8014
C9_4 C 0.0761(6) 0.5518(6) 0.6622(8)
C10_4 C 0.0899(8) 0.6387(8) 0.6435(9)
H6_4 H 0.0667 0.6599 0.5641
C11_4 C 0.1397(7) 0.6930(6) 0.7475(9)
H7_4 H 0.1453 0.7515 0.7346
C12_4 C 0.0231(6) 0.4915(7) 0.5573(8)
H8_4 H 0.0237 0.4336 0.5780
N2_4 N 0.1782(4) 0.6663(4) 0.8602(6)
O7_4 O 0.1448(3) 0.8354(3) 0.9041(4)
C2_6 C -0.0000(5) 0.8908(5) 0.6146(7)
C3_4 C 0.0542(7) 0.8942(7) 0.5577(9)
H1_4 H 0.0382 0.8600 0.4892
C4_4 C 0.1341(7) 0.9522(11) 0.6104(12)
H2_4 H 0.1735 0.9555 0.5780
C6_4 C 0.0254(5) 0.9429(5) 0.7179(8)
N1_4 N 0.1009(6) 0.9993(5) 0.7587(10)
C13_4 C 0.0883(5) 0.8297(5) 0.9443(7)
C14_6 C 0.0000(5) 0.8908(5) 0.8854(7)
C5_4 C 0.1541(8) 0.0036(9) 0.7086(13)
H3_4 H 0.2062 0.0424 0.7409
O3_4 O 0.1250(7) 0.0476(6) 0.8527(9)
H18_4 H 0.192676 0.0331785 0.921492
H9_4 H 0.9618 0.8600 0.0108
loop_
_geom_bond_atom_site_label_1
_geom_bond_atom_site_label_2
_geom_bond_site_symmetry_1
_geom_bond_site_symmetry_2
H16 C24 1_555 1_555
H11 C17 1_555 1_555
O6 H17 1_555 1_555
C1 C2 1_555 1_555
C7 H4 1_555 1_555
C8 C7 1_555 1_555
C9 C8 1_555 1_555
C10 C9 1_555 1_555
H6 C10 1_555 1_555
C11 C10 1_555 1_555
H7 C11 1_555 1_555
Cu1 N2 1_555 1_555
N2 C7 1_555 1_555
O1 C1 1_555 1_555
O2 C1 1_555 1_555
C14 C15 1_555 1_555
C16 C15 1_555 1_555
H10 C16 1_555 1_555
N5 Cu1 1_555 1_555
O7 Cu1 1_555 1_555
O8 Cu1 1_555 1_555
C11 N2 1_555 1_555
Cu1 O1 1_555 1_555
Cu1 O2 1_555 1_555
C14 C18 1_555 1_555
C18 N3 1_555 1_555
O5 Cu2 1_555 1_555
C7_2 H4_2 1_555 1_555
C8_2 C7_2 1_555 1_555
C9_2 C8_2 1_555 1_555
C10_2 C9_2 1_555 1_555
H6_2 C10_2 1_555 1_555
C11_2 C10_2 1_555 1_555
H7_2 C11_2 1_555 1_555
Cu2 N2_2 1_555 1_555
N2_2 C7_2 1_555 1_555
H16_2 C24_2 1_555 1_555
O7_2 Cu2 1_555 1_555
C11_2 N2_2 1_555 1_555
C19 H12 1_555 1_555
C20 C19 1_555 1_555
H13_3 C20 1_555 1_555
C21 C20 1_555 1_555
C22 C21 1_555 1_555
H14 C22 1_555 1_555
C23 C22 1_555 1_555
H15 C23 1_555 1_555
H16_3 C24_3 1_555 1_555
N5 C19 1_555 1_555
C21 C24_3 1_555 1_555
C23 N5 1_555 1_555
C1_2 C2_2 1_555 1_555
C2_2 C3 1_555 1_555
C3 H1 1_555 1_555
C4 C3 1_555 1_555
H2 C4 1_555 1_555
C5 C4 1_555 1_555
H3 C5 1_555 1_555
C6 C2_2 1_555 1_555
N1 C5 1_555 1_555
O7 C1_2 1_555 1_555
O8 C1_2 1_555 1_555
O3 N1 1_555 1_555
C13 C14_2 1_555 1_555
C14_2 C15_2 1_555 1_555
C16_2 C15_2 1_555 1_555
H10_2 C16_2 1_555 1_555
C17_2 C16_2 1_555 1_555
H11_2 C17_2 1_555 1_555
C18_2 C6 1_555 1_555
N3_2 C17_2 1_555 1_555
O7_2 C13 1_555 1_555
O6_2 N3_2 1_555 1_555
C6 N1 1_555 1_555
C14_2 C18_2 1_555 1_555
C18_2 N3_2 1_555 1_555
O6_2 H17_2 1_555 1_555
O3 H18 1_555 1_555
C19_2 H12_2 1_555 1_555
C20_2 C19_2 1_555 1_555
C21_2 C20_2 1_555 1_555
C22_2 C21_2 1_555 1_555
H14_2 C22_2 1_555 1_555
C23_2 C22_2 1_555 1_555
H15_2 C23_2 1_555 1_555
N4 C19_2 1_555 1_555
Cu3 N4 1_555 1_555
C23_2 N4 1_555 1_555
H8 C12 1_555 1_555
C19_3 H12_3 1_555 1_555
C20_3 C19_3 1_555 1_555
C21_3 C20_3 1_555 1_555
C22_3 C21_3 1_555 1_555
H14_3 C22_3 1_555 1_555
C23_3 C22_3 1_555 1_555
H15_3 C23_3 1_555 1_555
N4_2 C19_3 1_555 1_555
Cu3_2 N4_2 1_555 1_555
C23_3 N4_2 1_555 1_555
C1_3 C2_3 1_555 1_555
C2_3 C3_2 1_555 1_555
C3_2 H1_2 1_555 1_555
C4_2 C3_2 1_555 1_555
H2_2 C4_2 1_555 1_555
C5_2 C4_2 1_555 1_555
H3_2 C5_2 1_555 1_555
C6_2 C2_3 1_555 1_555
C7_3 H4_3 1_555 1_555
C8_3 C7_3 1_555 1_555
H5_2 C8_3 1_555 1_555
C9_3 C8_3 1_555 1_555
C10_3 C9_3 1_555 1_555
H6_3 C10_3 1_555 1_555
C11_3 C10_3 1_555 1_555
H7_3 C11_3 1_555 1_555
C12_2 C9_3 1_555 1_555
H8_2 C12_2 1_555 1_555
Cu3 N2_3 1_555 1_555
N1_2 C5_2 1_555 1_555
N2_3 C7_3 1_555 1_555
O1_2 C1_3 1_555 1_555
O2_2 C1_3 1_555 1_555
O3_2 N1_2 1_555 1_555
C13_2 C14_3 1_555 1_555
C14_3 C15_3 1_555 1_555
C16_3 C15_3 1_555 1_555
H10_3 C16_3 1_555 1_555
C17_3 C16_3 1_555 1_555
H11_3 C17_3 1_555 1_555
C18_3 C6_2 1_555 1_555
N3_3 C17_3 1_555 1_555
O4 C13_2 1_555 1_555
O6_3 N3_3 1_555 1_555
Cu3_2 O4 1_555 1_555
O7_3 Cu3 1_555 1_555
O8_2 Cu3 1_555 1_555
C6_2 N1_2 1_555 1_555
C11_3 N2_3 1_555 1_555
Cu3 O1_2 1_555 1_555
Cu3 O2_2 1_555 1_555
C14_3 C18_3 1_555 1_555
C18_3 N3_3 1_555 1_555
O6_3 H17_3 1_555 1_555
O3_2 H18_2 1_555 1_555
O8_3 Cu3_2 1_555 1_555
C1_4 C2_4 1_555 1_555
O7_3 C1_4 1_555 1_555
O8_2 C1_4 1_555 1_555
C14_4 C15_4 1_555 1_555
C16_4 C15_4 1_555 1_555
H10_4 C16_4 1_555 1_555
C14_4 C18_4 1_555 1_555
C18_4 N3_4 1_555 1_555
H8_3 C12_3 1_555 1_555
H11_4 C17_4 1_555 1_555
O6_4 H17_4 1_555 1_555
C2_5 C3_3 1_555 1_555
C3_3 H1_3 1_555 1_555
C4_3 C3_3 1_555 1_555
H2_3 C4_3 1_555 1_555
C6_3 C2_5 1_555 1_555
C13_3 C14_5 1_555 1_555
O4_2 C13_3 1_555 1_555
Cu2_2 O4_2 1_555 1_555
C6_3 N1_3 1_555 1_555
N5_2 Cu2_2 1_555 1_555
O8_4 Cu2_2 1_555 1_555
C19_4 H12_4 1_555 1_555
C20_4 C19_4 1_555 1_555
H13_4 C20_4 1_555 1_555
C21_4 C20_4 1_555 1_555
C22_4 C21_4 1_555 1_555
H14_4 C22_4 1_555 1_555
C23_4 C22_4 1_555 1_555
H15_4 C23_4 1_555 1_555
H16_4 C24_4 1_555 1_555
N5_2 C19_4 1_555 1_555
C21_4 C24_4 1_555 1_555
C23_4 N5_2 1_555 1_555
H3_3 C5_3 1_555 1_555
O3_3 H18_3 1_555 1_555
O5_2 Cu3_3 1_555 1_555
C7_4 H4_4 1_555 1_555
C8_4 C7_4 1_555 1_555
H5_4 C8_4 1_555 1_555
C9_4 C8_4 1_555 1_555
C10_4 C9_4 1_555 1_555
H6_4 C10_4 1_555 1_555
C11_4 C10_4 1_555 1_555
H7_4 C11_4 1_555 1_555
C12_4 C9_4 1_555 1_555
H8_4 C12_4 1_555 1_555
Cu3_3 N2_4 1_555 1_555
N2_4 C7_4 1_555 1_555
O7_4 Cu3_3 1_555 1_555
C11_4 N2_4 1_555 1_555
C2_6 C3_4 1_555 1_555
C3_4 H1_4 1_555 1_555
C4_4 C3_4 1_555 1_555
H2_4 C4_4 1_555 1_555
C6_4 C2_6 1_555 1_555
C13_4 C14_6 1_555 1_555
O7_4 C13_4 1_555 1_555
C6_4 N1_4 1_555 1_555
H3_4 C5_4 1_555 1_555
O3_4 H18_4 1_555 1_555

#END
