
###############################################################################
#
# This file contains modified crystal structure data generated from the
# MOF subset of the Cambridge Structural Database (CSD) v543 
# hosted by the Cambridge Crystallographic Data Centre (CCDC).
#
# This work is licensed under the Creative Commons
# Attribution-NonCommercial-ShareAlike 4.0 International License.
# To view a copy of this license, visit
# http://creativecommons.org/licenses/by-nc-sa/4.0/
# or send a letter to
# Creative Commons, PO Box 1866, Mountain View, CA 94042, USA.
#
# CIF created using the CSD Python API on 29 September 2022
# The structure has been converted into the P1 space group
# The structure has a 3D framework
# The original CSD entry MEQQEH is in the tetragonal crystal system
# The original CSD entry MEQQEH is in a Sohncke space group
# The framework has been calculated to contain at least 10.0% void space
# The void calculation uses a probe of radius 1.32A, grid spacing 0.4
#
###############################################################################

data_MEQQEH
_chemical_formula_moiety         '(C192 H96 N24 O47 Zn12)n'
_symmetry_cell_setting           triclinic
_symmetry_space_group_name_H-M   'P 1'
_symmetry_Int_Tables_number      1
_space_group_name_Hall           'P 1'
loop_
_symmetry_equiv_pos_site_id
_symmetry_equiv_pos_as_xyz
1 x,y,z
_cell_length_a                   18.0063(4)
_cell_length_b                   18.0063(4)
_cell_length_c                   26.5714(10)
_cell_angle_alpha                90
_cell_angle_beta                 90
_cell_angle_gamma                90
_cell_volume                     8615.16
loop_
_atom_site_label
_atom_site_type_symbol
_atom_site_fract_x
_atom_site_fract_y
_atom_site_fract_z
O3 O 0.0057(6) 0.2526(6) 0.3798(4)
O5 O 0.1987(6) 0.1886(6) 0.2837(4)
O7 O 0.6736(6) 0.0848(6) 0.5563(5)
O11 O 0.0787(6) 0.1597(6) 0.2969(5)
O12 O 0.6474(5) 0.1527(6) 0.4887(4)
N3 N 0.3011(8) 0.0443(9) 0.6195(6)
N4 N 0.1732(8) 0.0639(9) 0.5994(6)
N5 N 0.2675(7) 0.1172(10) 0.5466(7)
C5 C 0.0649(9) 0.1138(11) 0.5274(7)
H3 H 0.049817 0.078891 0.552137
C6 C 0.0349(9) 0.1907(9) 0.4559(6)
C7 C 0.1384(9) 0.1366(11) 0.5258(6)
C8 C 0.1462(10) 0.1551(8) 0.3076(6)
C9 C 0.6312(9) 0.1169(10) 0.5281(6)
H4 H 0.095052 0.001926 0.667609
C12 C 0.5479(9) 0.1118(10) 0.5405(6)
C14 C 0.0146(9) 0.1401(10) 0.4945(7)
C15 C 0.1087(11) 0.2134(10) 0.4537(8)
H6 H 0.124243 0.246660 0.428006
C16 C 0.2284(10) 0.0339(12) 0.6274(7)
C17 C 0.5276(11) 0.0781(12) 0.5856(9)
H7 H 0.565219 0.059868 0.607367
C20 C 0.1143(9) 0.0663(8) 0.3772(6)
H9 H 0.063869 0.071067 0.367179
C22 C 0.1334(9) 0.0222(10) 0.4173(7)
C26 C 0.3188(11) 0.0886(13) 0.5786(10)
C27 C 0.2091(10) 0.0131(10) 0.4320(7)
C30 C 0.1964(9) 0.1042(10) 0.5607(7)
C32 C 0.1704(10) 0.1042(10) 0.3515(6)
C33 C 0.2625(10) 0.0536(12) 0.4063(8)
H14 H 0.313003 0.050381 0.416445
C36 C 0.2434(8) 0.0992(11) 0.3654(6)
H16 H 0.280518 0.126070 0.347672
C37 C 0.1588(10) 0.1883(13) 0.4883(7)
H17 H 0.208463 0.205958 0.487089
C39 C 0.4525(10) 0.0703(13) 0.5997(8)
H18 H 0.439093 0.048886 0.631086
C44 C 0.4945(10) 0.1380(12) 0.5077(9)
H22 H 0.508536 0.159194 0.476415
C45 C 0.3969(11) 0.0959(14) 0.5650(9)
C46 C 0.4185(11) 0.1330(13) 0.5214(8)
H23 H 0.381888 0.155142 0.500446
Zn4 Zn -0.00002(10) 0.24504(8) 0.30160(8)
Zn5 Zn 0.75496(8) -0.00002(10) 0.55160(8)
Zn9 Zn 0.16383(9) 0.24483(9) 0.22486(6)
Zn10 Zn 0.75517(9) 0.16383(9) 0.47486(6)
Zn1 Zn 0.00002(10) 0.75496(8) 0.80160(8)
Zn2 Zn 0.16398(10) 0.75511(9) 0.87835(6)
O1 O 0.0064(6) 0.7471(6) 0.7236(4)
O4 O 0.0778(6) 0.8395(6) 0.8076(5)
O6 O 0.6743(6) 0.9161(7) 0.5478(5)
O8 O 0.1976(6) 0.8117(6) 0.8194(4)
O13 O 0.6473(5) 0.8487(6) 0.6150(4)
N1 N 0.1727(7) 0.9365(9) 0.5047(6)
N2 N 0.2666(8) 0.8805(10) 0.5562(7)
C1 C 0.1087(11) 0.7860(10) 0.6490(7)
H1 H 0.125051 0.751443 0.673637
N6 N 0.3006(8) 0.9554(9) 0.4837(6)
C3 C 0.1139(9) 0.9343(8) 0.7253(6)
H2 H 0.063439 0.930177 0.735336
C10 C 0.1383(9) 0.8631(11) 0.5780(6)
C11 C 0.1332(9) 0.9772(10) 0.6858(7)
C13 C 0.0348(9) 0.8092(9) 0.6480(6)
C18 C 0.0117(11) 0.8605(11) 0.6093(7)
C19 C 0.2079(9) 0.9870(11) 0.6701(6)
C21 C 0.1694(9) 0.8963(10) 0.7513(6)
H10 H 0.095492 0.997208 0.435499
C23 C 0.5474(10) 0.8878(9) 0.5621(7)
C24 C 0.0656(9) 0.8862(10) 0.5754(6)
H11 H 0.051465 0.920541 0.549960
C25 C 0.6308(9) 0.8833(10) 0.5752(6)
C28 C 0.1576(10) 0.8138(14) 0.6139(8)
H12 H 0.207677 0.797258 0.614938
C29 C 0.2285(10) 0.9663(12) 0.4765(7)
C31 C 0.4946(9) 0.8620(12) 0.5950(8)
H13 H 0.508618 0.841448 0.626539
C34 C 0.5269(10) 0.9238(13) 0.5184(8)
H15 H 0.564072 0.945152 0.497544
C35 C 0.1461(10) 0.8448(8) 0.7959(6)
C38 C 0.1961(9) 0.8952(11) 0.5445(8)
C40 C 0.3186(11) 0.9135(15) 0.5229(12)
C41 C 0.2632(10) 0.9465(12) 0.6964(8)
H19 H 0.313719 0.950171 0.686422
C42 C 0.2431(9) 0.9002(11) 0.7380(7)
H20 H 0.279649 0.872838 0.755882
C43 C 0.4532(10) 0.9291(12) 0.5046(7)
H21 H 0.439640 0.950102 0.473117
C47 C 0.3986(11) 0.9029(14) 0.5380(8)
C48 C 0.4177(10) 0.8665(14) 0.5809(9)
H24 H 0.380595 0.844265 0.601330
Zn5_2 Zn 0.75496(8) 0.99998(10) 0.55160(8)
Zn8 Zn 0.75511(9) 0.83602(10) 0.62835(6)
O16 O 0.0839(7) 0.6743(6) 0.7978(5)
O18 O 0.0880(6) 0.7939(7) 0.9252(4)
O19 O 0.2475(5) 0.7529(5) 0.9271(5)
O22 O 0.1513(6) 0.6473(5) 0.8650(4)
O9 O 0.9120(6) 0.2061(7) 0.4252(4)
C4 C 0.9796(9) 0.2160(8) 0.4159(6)
H5 H 0.964320 0.124583 0.497260
Zn4_2 Zn 0.99998(10) 0.24504(8) 0.30160(8)
Zn6 Zn 0.83602(10) 0.24489(9) 0.37835(6)
Zn1_2 Zn 1.00002(10) 0.75496(8) 0.80160(8)
Zn3 Zn 0.83617(9) 0.75517(9) 0.72486(6)
O2 O 0.9124(6) 0.7937(6) 0.6786(5)
O10 O 0.7529(5) 0.7525(5) 0.6771(5)
C2 C 0.9808(9) 0.7834(8) 0.6876(6)
H8 H 0.961506 0.876289 0.606818
O14 O 0.9943(6) 0.7474(6) 0.8798(4)
O15 O 0.8013(6) 0.8114(6) 0.7837(4)
O17 O 0.9152(6) 0.6736(6) 0.8063(5)
O20 O 0.9213(6) 0.8403(6) 0.7969(5)
O21 O 0.8473(6) 0.6474(5) 0.7387(4)
Zn1_3 Zn 0.24504(8) 0.00002(10) 0.05160(8)
Zn2_2 Zn 0.24489(9) 0.16398(10) 0.12835(6)
O4_2 O 0.1605(6) 0.0778(6) 0.0576(5)
O8_2 O 0.1883(6) 0.1976(6) 0.0694(4)
C21_2 C 0.1037(10) 0.1694(9) 0.0013(6)
C35_2 C 0.1552(8) 0.1461(10) 0.0459(6)
H20_2 H 0.127162 0.279649 0.005882
O16_2 O 0.3257(6) 0.0839(7) 0.0478(5)
O18_2 O 0.2061(7) 0.0880(6) 0.1752(4)
O19_2 O 0.2471(5) 0.2475(5) 0.1771(5)
O22_2 O 0.3527(5) 0.1513(6) 0.1150(4)
O1_2 O 0.2529(6) 0.0064(6) 0.9736(4)
N1_2 N 0.0635(9) 0.1727(7) 0.7547(6)
N2_2 N 0.1195(10) 0.2666(8) 0.8062(7)
C1_2 C 0.2140(10) 0.1087(11) 0.8990(7)
H1_2 H 0.248557 0.125051 0.923637
N6_2 N 0.0446(9) 0.3006(8) 0.7337(6)
C3_2 C 0.0657(8) 0.1139(9) 0.9753(6)
H2_2 H 0.069823 0.063439 0.985336
C10_2 C 0.1369(11) 0.1383(9) 0.8280(6)
C11_2 C 0.0228(10) 0.1332(9) 0.9358(7)
C13_2 C 0.1908(9) 0.0348(9) 0.8980(6)
C18_2 C 0.1395(11) 0.0117(11) 0.8593(7)
C19_2 C 0.0130(11) 0.2079(9) 0.9201(6)
H10_2 H 0.002792 0.095492 0.685499
C23_2 C 0.1122(9) 0.5474(10) 0.8121(7)
C24_2 C 0.1138(10) 0.0656(9) 0.8254(6)
H11_2 H 0.079459 0.051465 0.799960
C25_2 C 0.1167(10) 0.6308(9) 0.8252(6)
C28_2 C 0.1862(14) 0.1576(10) 0.8639(8)
H12_2 H 0.202742 0.207677 0.864938
C29_2 C 0.0337(12) 0.2285(10) 0.7265(7)
C31_2 C 0.1380(12) 0.4946(9) 0.8450(8)
H13_2 H 0.158552 0.508618 0.876539
C34_2 C 0.0762(13) 0.5269(10) 0.7684(8)
H15_2 H 0.054848 0.564072 0.747544
C38_2 C 0.1048(11) 0.1961(9) 0.7945(8)
C40_2 C 0.0865(15) 0.3186(11) 0.7729(12)
C41_2 C 0.0535(12) 0.2632(10) 0.9464(8)
H19_2 H 0.049829 0.313719 0.936422
C42_2 C 0.0998(11) 0.2431(9) 0.9880(7)
C43_2 C 0.0709(12) 0.4532(10) 0.7546(7)
H21_2 H 0.049898 0.439640 0.723117
C47_2 C 0.0971(14) 0.3986(11) 0.7880(8)
C48_2 C 0.1335(14) 0.4177(10) 0.8309(9)
H24_2 H 0.155735 0.380595 0.851330
Zn1_4 Zn 0.24504(8) 1.00002(10) 0.05160(8)
O14_2 O 0.2526(6) 0.9943(6) 0.1298(4)
O15_2 O 0.1886(6) 0.8013(6) 0.0337(4)
O17_2 O 0.3264(6) 0.9152(6) 0.0563(5)
O20_2 O 0.1597(6) 0.9213(6) 0.0469(5)
Zn3_2 Zn 0.24483(9) 0.83617(9) 0.97486(6)
O2_2 O 0.2063(6) 0.9124(6) 0.9286(5)
C2_2 C 0.2166(8) 0.9808(9) 0.9376(6)
H8_2 H 0.123711 0.961506 0.856818
O21_2 O 0.3526(5) 0.8473(6) 0.9887(4)
O3_2 O 0.7474(6) 0.0057(6) 0.6298(4)
O5_2 O 0.8114(6) 0.1987(6) 0.5337(4)
O11_2 O 0.8403(6) 0.0787(6) 0.5469(5)
N3_2 N 0.9557(9) 0.3011(8) 0.8695(6)
N4_2 N 0.9361(9) 0.1732(8) 0.8494(6)
N5_2 N 0.8828(10) 0.2675(7) 0.7966(7)
C5_2 C 0.8862(11) 0.0649(9) 0.7774(7)
H3_2 H 0.921109 0.049817 0.802137
C6_2 C 0.8093(9) 0.0349(9) 0.7059(6)
C7_2 C 0.8634(11) 0.1384(9) 0.7758(6)
C8_2 C 0.8449(8) 0.1462(10) 0.5576(6)
C9_2 C 0.8831(10) 0.6312(9) 0.7781(6)
H4_2 H 0.998074 0.095052 0.917609
C12_2 C 0.8882(10) 0.5479(9) 0.7905(6)
C14_2 C 0.8599(10) 0.0146(9) 0.7445(7)
C15_2 C 0.7866(10) 0.1087(11) 0.7037(8)
H6_2 H 0.753340 0.124243 0.678006
C16_2 C 0.9661(12) 0.2284(10) 0.8774(7)
C17_2 C 0.9219(12) 0.5276(11) 0.8356(9)
H7_2 H 0.940132 0.565219 0.857367
C20_2 C 0.9337(8) 0.1143(9) 0.6272(6)
H9_2 H 0.928933 0.063869 0.617179
C22_2 C 0.9778(10) 0.1334(9) 0.6673(7)
C26_2 C 0.9114(13) 0.3188(11) 0.8286(10)
C27_2 C 0.9869(10) 0.2091(10) 0.6820(7)
C30_2 C 0.8958(10) 0.1964(9) 0.8107(7)
C32_2 C 0.8958(10) 0.1704(10) 0.6015(6)
C33_2 C 0.9464(12) 0.2625(10) 0.6563(8)
H14_2 H 0.949619 0.313003 0.666445
C36_2 C 0.9008(11) 0.2434(8) 0.6154(6)
H16_2 H 0.873930 0.280518 0.597672
C37_2 C 0.8117(13) 0.1588(10) 0.7383(7)
H17_2 H 0.794042 0.208463 0.737089
C39_2 C 0.9297(13) 0.4525(10) 0.8497(8)
H18_2 H 0.951114 0.439093 0.881086
C44_2 C 0.8620(12) 0.4945(10) 0.7577(9)
H22_2 H 0.840806 0.508536 0.726415
C45_2 C 0.9041(14) 0.3969(11) 0.8150(9)
C46_2 C 0.8670(13) 0.4185(11) 0.7714(8)
H23_2 H 0.844858 0.381888 0.750446
O9_2 O 0.7939(7) 0.9120(6) 0.6752(4)
C4_2 C 0.7840(8) 0.9796(9) 0.6659(6)
H5_2 H 0.875417 0.964320 0.747260
O2_3 O 0.0876(6) 0.2063(6) 0.1786(5)
C2_3 C 0.0192(9) 0.2166(8) 0.1876(6)
H8_3 H 0.038494 0.123711 0.106818
O17_3 O 0.0848(6) 0.3264(6) 0.3063(5)
O21_3 O 0.1527(6) 0.3526(5) 0.2387(4)
C4_3 C 0.0204(9) 0.7840(8) 0.9159(6)
H5_3 H 0.035680 0.875417 0.997260
O1_3 O 0.9936(6) 0.2529(6) 0.2236(4)
O4_3 O 0.9222(6) 0.1605(6) 0.3076(5)
O8_3 O 0.8024(6) 0.1883(6) 0.3194(4)
N1_3 N 0.8273(7) 0.0635(9) 0.0047(6)
N2_3 N 0.7334(8) 0.1195(10) 0.0562(7)
C1_3 C 0.8913(11) 0.2140(10) 0.1490(7)
H1_3 H 0.874949 0.248557 0.173637
C3_3 C 0.8861(9) 0.0657(8) 0.2253(6)
H2_3 H 0.936561 0.069823 0.235336
C10_3 C 0.8617(9) 0.1369(11) 0.0780(6)
C11_3 C 0.8668(9) 0.0228(10) 0.1858(7)
C13_3 C 0.9652(9) 0.1908(9) 0.1480(6)
C18_3 C 0.9883(11) 0.1395(11) 0.1093(7)
C19_3 C 0.7921(9) 0.0130(11) 0.1701(6)
C21_3 C 0.8306(9) 0.1037(10) 0.2513(6)
C23_3 C 0.4526(10) 0.1122(9) 0.0621(7)
C24_3 C 0.9344(9) 0.1138(10) 0.0754(6)
H11_3 H 0.948535 0.079459 0.049960
C25_3 C 0.3692(9) 0.1167(10) 0.0752(6)
C28_3 C 0.8424(10) 0.1862(14) 0.1139(8)
H12_3 H 0.792323 0.202742 0.114938
C31_3 C 0.5054(9) 0.1380(12) 0.0950(8)
H13_3 H 0.491382 0.158552 0.126539
C34_3 C 0.4731(10) 0.0762(13) 0.0184(8)
C35_3 C 0.8539(10) 0.1552(8) 0.2959(6)
C38_3 C 0.8039(9) 0.1048(11) 0.0445(8)
C40_3 C 0.6814(11) 0.0865(15) 0.0229(12)
C41_3 C 0.7368(10) 0.0535(12) 0.1964(8)
H19_3 H 0.686281 0.049829 0.186422
C42_3 C 0.7569(9) 0.0998(11) 0.2380(7)
H20_3 H 0.720351 0.127162 0.255882
C43_3 C 0.5468(10) 0.0709(12) 0.0046(7)
C47_3 C 0.6014(11) 0.0971(14) 0.0380(8)
C48_3 C 0.5823(10) 0.1335(14) 0.0809(9)
H24_3 H 0.619405 0.155735 0.101330
O16_3 O 0.9161(7) 0.3257(6) 0.2978(5)
O19_3 O 0.7525(5) 0.2471(5) 0.4271(5)
O22_3 O 0.8487(6) 0.3527(5) 0.3650(4)
N3_3 N 0.6989(8) 0.9557(9) 0.1195(6)
N4_3 N 0.8268(8) 0.9361(9) 0.0994(6)
N5_3 N 0.7325(7) 0.8828(10) 0.0466(7)
C5_3 C 0.9351(9) 0.8862(11) 0.0274(7)
H3_3 H 0.950183 0.921109 0.052137
C7_3 C 0.8616(9) 0.8634(11) 0.0258(6)
C9_3 C 0.3688(9) 0.8831(10) 0.0281(6)
H4_3 H 0.904948 0.998074 0.167609
C12_3 C 0.4521(9) 0.8882(10) 0.0405(6)
C16_3 C 0.7716(10) 0.9661(12) 0.1274(7)
C17_3 C 0.4724(11) 0.9219(12) 0.0856(9)
H7_3 H 0.434781 0.940132 0.107367
C26_3 C 0.6812(11) 0.9114(13) 0.0786(10)
C30_3 C 0.8036(9) 0.8958(10) 0.0607(7)
C39_3 C 0.5475(10) 0.9297(13) 0.0997(8)
H18_3 H 0.560907 0.951114 0.131086
C44_3 C 0.5055(10) 0.8620(12) 0.0077(9)
C45_3 C 0.6031(11) 0.9041(14) 0.0650(9)
C46_3 C 0.5815(11) 0.8670(13) 0.0214(8)
H23_3 H 0.618112 0.844858 0.000446
C6_3 C 0.9651(9) 0.8093(9) 0.9559(6)
C8_3 C 0.8538(10) 0.8449(8) 0.8076(6)
C14_3 C 0.9854(9) 0.8599(10) 0.9945(7)
C15_3 C 0.8913(11) 0.7866(10) 0.9537(8)
H6_3 H 0.875757 0.753340 0.928006
C20_3 C 0.8857(9) 0.9337(8) 0.8772(6)
H9_3 H 0.936131 0.928933 0.867179
C22_3 C 0.8666(9) 0.9778(10) 0.9173(7)
C27_3 C 0.7909(10) 0.9869(10) 0.9320(7)
C32_3 C 0.8296(10) 0.8958(10) 0.8515(6)
C33_3 C 0.7375(10) 0.9464(12) 0.9063(8)
H14_3 H 0.686997 0.949619 0.916445
C36_3 C 0.7566(8) 0.9008(11) 0.8654(6)
H16_3 H 0.719482 0.873930 0.847672
C37_3 C 0.8412(10) 0.8117(13) 0.9883(7)
H17_3 H 0.791537 0.794042 0.987089
H22_3 H 0.491464 0.840806 0.976415
C4_4 C 0.2160(8) 0.0204(9) 0.1659(6)
H5_4 H 0.124583 0.035680 0.247260
N3_4 N 0.0443(9) 0.6989(8) 0.3695(6)
N4_4 N 0.0639(9) 0.8268(8) 0.3494(6)
N5_4 N 0.1172(10) 0.7325(7) 0.2966(7)
C5_4 C 0.1138(11) 0.9351(9) 0.2774(7)
H3_4 H 0.078891 0.950183 0.302137
C6_4 C 0.1907(9) 0.9651(9) 0.2059(6)
C7_4 C 0.1366(11) 0.8616(9) 0.2758(6)
C8_4 C 0.1551(8) 0.8538(10) 0.0576(6)
C9_4 C 0.1169(10) 0.3688(9) 0.2781(6)
H4_4 H 0.001926 0.904948 0.417609
C12_4 C 0.1118(10) 0.4521(9) 0.2905(6)
C14_4 C 0.1401(10) 0.9854(9) 0.2445(7)
C15_4 C 0.2134(10) 0.8913(11) 0.2037(8)
H6_4 H 0.246660 0.875757 0.178006
C16_4 C 0.0339(12) 0.7716(10) 0.3774(7)
C17_4 C 0.0781(12) 0.4724(11) 0.3356(9)
H7_4 H 0.059868 0.434781 0.357367
C20_4 C 0.0663(8) 0.8857(9) 0.1272(6)
H9_4 H 0.071067 0.936131 0.117179
C22_4 C 0.0222(10) 0.8666(9) 0.1673(7)
C26_4 C 0.0886(13) 0.6812(11) 0.3286(10)
C27_4 C 0.0131(10) 0.7909(10) 0.1820(7)
C30_4 C 0.1042(10) 0.8036(9) 0.3107(7)
C32_4 C 0.1042(10) 0.8296(10) 0.1015(6)
C33_4 C 0.0536(12) 0.7375(10) 0.1563(8)
H14_4 H 0.050381 0.686997 0.166445
C36_4 C 0.0992(11) 0.7566(8) 0.1154(6)
H16_4 H 0.126070 0.719482 0.097672
C37_4 C 0.1883(13) 0.8412(10) 0.2383(7)
H17_4 H 0.205958 0.791537 0.237089
C39_4 C 0.0703(13) 0.5475(10) 0.3497(8)
H18_4 H 0.048886 0.560907 0.381086
C44_4 C 0.1380(12) 0.5055(10) 0.2577(9)
H22_4 H 0.159194 0.491464 0.226415
C45_4 C 0.0959(14) 0.6031(11) 0.3150(9)
C46_4 C 0.1330(13) 0.5815(11) 0.2714(8)
H23_4 H 0.155142 0.618112 0.250446
O2_4 O 0.7937(6) 0.0876(6) 0.4286(5)
C2_4 C 0.7834(8) 0.0192(9) 0.4376(6)
H8_4 H 0.876289 0.038494 0.356818
O1_4 O 0.7471(6) 0.9936(6) 0.4736(4)
O4_4 O 0.8395(6) 0.9222(6) 0.5576(5)
O8_4 O 0.8117(6) 0.8024(6) 0.5694(4)
N1_4 N 0.9365(9) 0.8273(7) 0.2547(6)
N2_4 N 0.8805(10) 0.7334(8) 0.3062(7)
C1_4 C 0.7860(10) 0.8913(11) 0.3990(7)
H1_4 H 0.751443 0.874949 0.423637
N6_3 N 0.9554(9) 0.6994(8) 0.2337(6)
C3_4 C 0.9343(8) 0.8861(9) 0.4753(6)
H2_4 H 0.930177 0.936561 0.485336
C10_4 C 0.8631(11) 0.8617(9) 0.3280(6)
C11_4 C 0.9772(10) 0.8668(9) 0.4358(7)
C13_4 C 0.8092(9) 0.9652(9) 0.3980(6)
C18_4 C 0.8605(11) 0.9883(11) 0.3593(7)
C19_4 C 0.9870(11) 0.7921(9) 0.4201(6)
C21_4 C 0.8963(10) 0.8306(9) 0.5013(6)
H10_3 H 0.997208 0.904508 0.185499
C23_4 C 0.8878(9) 0.4526(10) 0.3121(7)
C24_4 C 0.8862(10) 0.9344(9) 0.3254(6)
H11_4 H 0.920541 0.948535 0.299960
C25_4 C 0.8833(10) 0.3692(9) 0.3252(6)
C28_4 C 0.8138(14) 0.8424(10) 0.3639(8)
H12_4 H 0.797258 0.792323 0.364938
C29_3 C 0.9663(12) 0.7715(10) 0.2265(7)
C31_4 C 0.8620(12) 0.5054(9) 0.3450(8)
H13_4 H 0.841448 0.491382 0.376539
C34_4 C 0.9238(13) 0.4731(10) 0.2684(8)
H15_3 H 0.945152 0.435928 0.247544
C35_4 C 0.8448(8) 0.8539(10) 0.5459(6)
C38_4 C 0.8952(11) 0.8039(9) 0.2945(8)
C40_4 C 0.9135(15) 0.6814(11) 0.2729(12)
C41_4 C 0.9465(12) 0.7368(10) 0.4464(8)
H19_4 H 0.950171 0.686281 0.436422
C42_4 C 0.9002(11) 0.7569(9) 0.4880(7)
H20_4 H 0.872838 0.720351 0.505882
C43_4 C 0.9291(12) 0.5468(10) 0.2546(7)
H21_3 H 0.950102 0.560360 0.223117
C47_4 C 0.9029(14) 0.6014(11) 0.2880(8)
C48_4 C 0.8665(14) 0.5823(10) 0.3309(9)
H24_4 H 0.844265 0.619405 0.351330
N6_4 N 0.6994(8) 0.0446(9) 0.9837(6)
H10_4 H 0.904508 0.002792 0.935499
C29_4 C 0.7715(10) 0.0337(12) 0.9765(7)
H15_4 H 0.435928 0.054848 0.997544
H21_4 H 0.560360 0.049898 0.973117
loop_
_geom_bond_atom_site_label_1
_geom_bond_atom_site_label_2
_geom_bond_site_symmetry_1
_geom_bond_site_symmetry_2
O5 C8 1_555 1_555
O7 C9 1_555 1_555
O11 C8 1_555 1_555
O12 C9 1_555 1_555
N3 C16 1_555 1_555
N4 C16 1_555 1_555
N5 C26 1_555 1_555
C5 H3 1_555 1_555
C6 C14 1_555 1_555
C7 C5 1_555 1_555
C8 C32 1_555 1_555
C9 C12 1_555 1_555
C12 C17 1_555 1_555
C14 C5 1_555 1_555
C15 C6 1_555 1_555
H6 C15 1_555 1_555
C17 H7 1_555 1_555
C20 H9 1_555 1_555
C22 C20 1_555 1_555
C26 N3 1_555 1_555
C27 C22 1_555 1_555
C30 N4 1_555 1_555
C32 C20 1_555 1_555
C33 C27 1_555 1_555
H14 C33 1_555 1_555
C36 C32 1_555 1_555
H16 C36 1_555 1_555
C37 C7 1_555 1_555
H17 C37 1_555 1_555
C39 C17 1_555 1_555
H18 C39 1_555 1_555
C44 C12 1_555 1_555
H22 C44 1_555 1_555
C45 C26 1_555 1_555
C46 C44 1_555 1_555
H23 C46 1_555 1_555
Zn4 O3 1_555 1_555
Zn9 O5 1_555 1_555
Zn10 O12 1_555 1_555
O7 Zn5 1_555 1_555
O11 Zn4 1_555 1_555
N5 C30 1_555 1_555
C7 C30 1_555 1_555
C15 C37 1_555 1_555
C33 C36 1_555 1_555
C39 C45 1_555 1_555
C45 C46 1_555 1_555
Zn1 O1 1_555 1_555
Zn2 O8 1_555 1_555
O4 Zn1 1_555 1_555
O6 C25 1_555 1_555
O8 C35 1_555 1_555
O13 C25 1_555 1_555
N1 C29 1_555 1_555
N2 C38 1_555 1_555
C1 H1 1_555 1_555
N6 C29 1_555 1_555
C3 H2 1_555 1_555
C10 C24 1_555 1_555
C11 C3 1_555 1_555
C13 C1 1_555 1_555
C18 C13 1_555 1_555
C19 C11 1_555 1_555
C21 C3 1_555 1_555
C23 C25 1_555 1_555
C24 C18 1_555 1_555
H11 C24 1_555 1_555
C28 C1 1_555 1_555
H12 C28 1_555 1_555
C31 C23 1_555 1_555
H13 C31 1_555 1_555
C34 C23 1_555 1_555
H15 C34 1_555 1_555
C35 O4 1_555 1_555
C38 N1 1_555 1_555
C40 N2 1_555 1_555
C41 C19 1_555 1_555
H19 C41 1_555 1_555
C42 C21 1_555 1_555
H20 C42 1_555 1_555
C43 C34 1_555 1_555
H21 C43 1_555 1_555
C47 C40 1_555 1_555
C48 C31 1_555 1_555
H24 C48 1_555 1_555
Zn5_2 O6 1_555 1_555
Zn8 O13 1_555 1_555
O16 Zn1 1_555 1_555
O18 Zn2 1_555 1_555
O19 Zn2 1_555 1_555
O22 Zn2 1_555 1_555
N6 C40 1_555 1_555
C10 C28 1_555 1_555
C10 C38 1_555 1_555
C21 C35 1_555 1_555
C41 C42 1_555 1_555
C43 C47 1_555 1_555
C47 C48 1_555 1_555
O9 C4 1_555 1_555
Zn6 O9 1_555 1_555
Zn3 O2 1_555 1_555
O2 C2 1_555 1_555
O10 Zn3 1_555 1_555
Zn8 O10 1_555 1_555
O14 Zn1_2 1_555 1_555
O15 Zn3 1_555 1_555
O17 Zn1_2 1_555 1_555
O20 Zn1_2 1_555 1_555
O21 Zn3 1_555 1_555
Zn2_2 O8_2 1_555 1_555
O4_2 Zn1_3 1_555 1_555
O8_2 C35_2 1_555 1_555
C35_2 O4_2 1_555 1_555
O16_2 Zn1_3 1_555 1_555
O18_2 Zn2_2 1_555 1_555
O19_2 Zn2_2 1_555 1_555
O22_2 Zn2_2 1_555 1_555
C21_2 C35_2 1_555 1_555
O16 C25_2 1_555 1_555
O22 C25_2 1_555 1_555
N1_2 C29_2 1_555 1_555
N2_2 C38_2 1_555 1_555
C1_2 H1_2 1_555 1_555
N6_2 C29_2 1_555 1_555
C3_2 H2_2 1_555 1_555
C10_2 C24_2 1_555 1_555
C11_2 C3_2 1_555 1_555
C13_2 C1_2 1_555 1_555
C18_2 C13_2 1_555 1_555
C19_2 C11_2 1_555 1_555
C23_2 C25_2 1_555 1_555
C24_2 C18_2 1_555 1_555
H11_2 C24_2 1_555 1_555
C28_2 C1_2 1_555 1_555
H12_2 C28_2 1_555 1_555
C31_2 C23_2 1_555 1_555
H13_2 C31_2 1_555 1_555
C34_2 C23_2 1_555 1_555
H15_2 C34_2 1_555 1_555
C38_2 N1_2 1_555 1_555
C40_2 N2_2 1_555 1_555
C41_2 C19_2 1_555 1_555
H19_2 C41_2 1_555 1_555
C43_2 C34_2 1_555 1_555
H21_2 C43_2 1_555 1_555
C47_2 C40_2 1_555 1_555
C48_2 C31_2 1_555 1_555
H24_2 C48_2 1_555 1_555
N6_2 C40_2 1_555 1_555
C10_2 C28_2 1_555 1_555
C10_2 C38_2 1_555 1_555
C41_2 C42_2 1_555 1_555
C43_2 C47_2 1_555 1_555
C47_2 C48_2 1_555 1_555
O14_2 Zn1_4 1_555 1_555
O17_2 Zn1_4 1_555 1_555
O20_2 Zn1_4 1_555 1_555
Zn3_2 O2_2 1_555 1_555
O2_2 C2_2 1_555 1_555
O19 Zn3_2 1_555 1_555
O21_2 Zn3_2 1_555 1_555
O5_2 C8_2 1_555 1_555
O17 C9_2 1_555 1_555
O11_2 C8_2 1_555 1_555
O21 C9_2 1_555 1_555
N3_2 C16_2 1_555 1_555
N4_2 C16_2 1_555 1_555
N5_2 C26_2 1_555 1_555
C5_2 H3_2 1_555 1_555
C6_2 C14_2 1_555 1_555
C7_2 C5_2 1_555 1_555
C8_2 C32_2 1_555 1_555
C9_2 C12_2 1_555 1_555
C12_2 C17_2 1_555 1_555
C14_2 C5_2 1_555 1_555
C15_2 C6_2 1_555 1_555
H6_2 C15_2 1_555 1_555
C17_2 H7_2 1_555 1_555
C20_2 H9_2 1_555 1_555
C22_2 C20_2 1_555 1_555
C26_2 N3_2 1_555 1_555
C27_2 C22_2 1_555 1_555
C30_2 N4_2 1_555 1_555
C32_2 C20_2 1_555 1_555
C33_2 C27_2 1_555 1_555
H14_2 C33_2 1_555 1_555
C36_2 C32_2 1_555 1_555
H16_2 C36_2 1_555 1_555
C37_2 C7_2 1_555 1_555
H17_2 C37_2 1_555 1_555
C39_2 C17_2 1_555 1_555
H18_2 C39_2 1_555 1_555
C44_2 C12_2 1_555 1_555
H22_2 C44_2 1_555 1_555
C45_2 C26_2 1_555 1_555
C46_2 C44_2 1_555 1_555
H23_2 C46_2 1_555 1_555
Zn5 O3_2 1_555 1_555
Zn10 O5_2 1_555 1_555
O11_2 Zn5 1_555 1_555
N5_2 C30_2 1_555 1_555
C7_2 C30_2 1_555 1_555
C15_2 C37_2 1_555 1_555
C33_2 C36_2 1_555 1_555
C39_2 C45_2 1_555 1_555
C45_2 C46_2 1_555 1_555
O9_2 C4_2 1_555 1_555
Zn8 O9_2 1_555 1_555
Zn9 O2_3 1_555 1_555
O2_3 C2_3 1_555 1_555
O19_2 Zn9 1_555 1_555
O17_3 Zn4 1_555 1_555
O21_3 Zn9 1_555 1_555
O18 C4_3 1_555 1_555
Zn4_2 O1_3 1_555 1_555
Zn6 O8_3 1_555 1_555
O4_3 Zn4_2 1_555 1_555
O16_2 C25_3 1_555 1_555
O8_3 C35_3 1_555 1_555
O22_2 C25_3 1_555 1_555
N2_3 C38_3 1_555 1_555
C1_3 H1_3 1_555 1_555
C3_3 H2_3 1_555 1_555
C10_3 C24_3 1_555 1_555
C11_3 C3_3 1_555 1_555
C13_3 C1_3 1_555 1_555
C18_3 C13_3 1_555 1_555
C19_3 C11_3 1_555 1_555
C21_3 C3_3 1_555 1_555
C23_3 C25_3 1_555 1_555
C24_3 C18_3 1_555 1_555
H11_3 C24_3 1_555 1_555
C28_3 C1_3 1_555 1_555
H12_3 C28_3 1_555 1_555
C31_3 C23_3 1_555 1_555
H13_3 C31_3 1_555 1_555
C34_3 C23_3 1_555 1_555
C35_3 O4_3 1_555 1_555
C38_3 N1_3 1_555 1_555
C40_3 N2_3 1_555 1_555
C41_3 C19_3 1_555 1_555
H19_3 C41_3 1_555 1_555
C42_3 C21_3 1_555 1_555
H20_3 C42_3 1_555 1_555
C43_3 C34_3 1_555 1_555
C47_3 C40_3 1_555 1_555
C48_3 C31_3 1_555 1_555
H24_3 C48_3 1_555 1_555
O16_3 Zn4_2 1_555 1_555
O19_3 Zn6 1_555 1_555
O22_3 Zn6 1_555 1_555
C10_3 C28_3 1_555 1_555
C10_3 C38_3 1_555 1_555
C21_3 C35_3 1_555 1_555
C41_3 C42_3 1_555 1_555
C43_3 C47_3 1_555 1_555
C47_3 C48_3 1_555 1_555
O17_2 C9_3 1_555 1_555
N3_3 C16_3 1_555 1_555
N4_3 C16_3 1_555 1_555
N5_3 C26_3 1_555 1_555
C5_3 H3_3 1_555 1_555
C7_3 C5_3 1_555 1_555
C9_3 C12_3 1_555 1_555
C12_3 C17_3 1_555 1_555
C17_3 H7_3 1_555 1_555
C26_3 N3_3 1_555 1_555
C30_3 N4_3 1_555 1_555
C39_3 C17_3 1_555 1_555
H18_3 C39_3 1_555 1_555
C44_3 C12_3 1_555 1_555
C45_3 C26_3 1_555 1_555
C46_3 C44_3 1_555 1_555
H23_3 C46_3 1_555 1_555
N5_3 C30_3 1_555 1_555
C7_3 C30_3 1_555 1_555
C39_3 C45_3 1_555 1_555
C45_3 C46_3 1_555 1_555
O15 C8_3 1_555 1_555
O20 C8_3 1_555 1_555
C6_3 C14_3 1_555 1_555
C8_3 C32_3 1_555 1_555
C15_3 C6_3 1_555 1_555
H6_3 C15_3 1_555 1_555
C20_3 H9_3 1_555 1_555
C22_3 C20_3 1_555 1_555
C27_3 C22_3 1_555 1_555
C32_3 C20_3 1_555 1_555
C33_3 C27_3 1_555 1_555
H14_3 C33_3 1_555 1_555
C36_3 C32_3 1_555 1_555
H16_3 C36_3 1_555 1_555
H17_3 C37_3 1_555 1_555
C15_3 C37_3 1_555 1_555
C33_3 C36_3 1_555 1_555
O18_2 C4_4 1_555 1_555
O15_2 C8_4 1_555 1_555
O17_3 C9_4 1_555 1_555
O20_2 C8_4 1_555 1_555
O21_3 C9_4 1_555 1_555
N3_4 C16_4 1_555 1_555
N4_4 C16_4 1_555 1_555
N5_4 C26_4 1_555 1_555
C5_4 H3_4 1_555 1_555
C6_4 C14_4 1_555 1_555
C7_4 C5_4 1_555 1_555
C8_4 C32_4 1_555 1_555
C9_4 C12_4 1_555 1_555
C12_4 C17_4 1_555 1_555
C14_4 C5_4 1_555 1_555
C15_4 C6_4 1_555 1_555
H6_4 C15_4 1_555 1_555
C17_4 H7_4 1_555 1_555
C20_4 H9_4 1_555 1_555
C22_4 C20_4 1_555 1_555
C26_4 N3_4 1_555 1_555
C27_4 C22_4 1_555 1_555
C30_4 N4_4 1_555 1_555
C32_4 C20_4 1_555 1_555
C33_4 C27_4 1_555 1_555
H14_4 C33_4 1_555 1_555
C36_4 C32_4 1_555 1_555
H16_4 C36_4 1_555 1_555
C37_4 C7_4 1_555 1_555
H17_4 C37_4 1_555 1_555
C39_4 C17_4 1_555 1_555
H18_4 C39_4 1_555 1_555
C44_4 C12_4 1_555 1_555
H22_4 C44_4 1_555 1_555
C45_4 C26_4 1_555 1_555
C46_4 C44_4 1_555 1_555
H23_4 C46_4 1_555 1_555
N5_4 C30_4 1_555 1_555
C7_4 C30_4 1_555 1_555
C15_4 C37_4 1_555 1_555
C33_4 C36_4 1_555 1_555
C39_4 C45_4 1_555 1_555
C45_4 C46_4 1_555 1_555
Zn10 O2_4 1_555 1_555
O2_4 C2_4 1_555 1_555
O19_3 Zn10 1_555 1_555
Zn5_2 O1_4 1_555 1_555
Zn8 O8_4 1_555 1_555
O4_4 Zn5_2 1_555 1_555
O16_3 C25_4 1_555 1_555
O8_4 C35_4 1_555 1_555
O22_3 C25_4 1_555 1_555
N1_4 C29_3 1_555 1_555
N2_4 C38_4 1_555 1_555
C1_4 H1_4 1_555 1_555
N6_3 C29_3 1_555 1_555
C3_4 H2_4 1_555 1_555
C10_4 C24_4 1_555 1_555
C11_4 C3_4 1_555 1_555
C13_4 C1_4 1_555 1_555
C18_4 C13_4 1_555 1_555
C19_4 C11_4 1_555 1_555
C21_4 C3_4 1_555 1_555
C23_4 C25_4 1_555 1_555
C24_4 C18_4 1_555 1_555
H11_4 C24_4 1_555 1_555
C28_4 C1_4 1_555 1_555
H12_4 C28_4 1_555 1_555
C31_4 C23_4 1_555 1_555
H13_4 C31_4 1_555 1_555
C34_4 C23_4 1_555 1_555
H15_3 C34_4 1_555 1_555
C35_4 O4_4 1_555 1_555
C38_4 N1_4 1_555 1_555
C40_4 N2_4 1_555 1_555
C41_4 C19_4 1_555 1_555
H19_4 C41_4 1_555 1_555
C42_4 C21_4 1_555 1_555
H20_4 C42_4 1_555 1_555
C43_4 C34_4 1_555 1_555
H21_3 C43_4 1_555 1_555
C47_4 C40_4 1_555 1_555
C48_4 C31_4 1_555 1_555
H24_4 C48_4 1_555 1_555
N6_3 C40_4 1_555 1_555
C10_4 C28_4 1_555 1_555
C10_4 C38_4 1_555 1_555
C21_4 C35_4 1_555 1_555
C41_4 C42_4 1_555 1_555
C43_4 C47_4 1_555 1_555
C47_4 C48_4 1_555 1_555
N6_4 C29_4 1_555 1_555

#END
