
###############################################################################
#
# This file contains modified crystal structure data generated from the
# MOF subset of the Cambridge Structural Database (CSD) v543 
# hosted by the Cambridge Crystallographic Data Centre (CCDC).
#
# This work is licensed under the Creative Commons
# Attribution-NonCommercial-ShareAlike 4.0 International License.
# To view a copy of this license, visit
# http://creativecommons.org/licenses/by-nc-sa/4.0/
# or send a letter to
# Creative Commons, PO Box 1866, Mountain View, CA 94042, USA.
#
# CIF created using the CSD Python API on 29 September 2022
# The structure has been converted into the P1 space group
# The structure has a 3D framework
# The original CSD entry MEQTIO is in the monoclinic crystal system
# The framework has been calculated to contain at least 10.0% void space
# The void calculation uses a probe of radius 1.32A, grid spacing 0.4
# H atom positions have been added when not included in the experimental data
#
###############################################################################

data_MEQTIO
_chemical_formula_moiety         '(C100 H80 Cu6 N16 O22)n'
_symmetry_cell_setting           triclinic
_symmetry_space_group_name_H-M   'P 1'
_symmetry_Int_Tables_number      1
_space_group_name_Hall           'P 1'
loop_
_symmetry_equiv_pos_site_id
_symmetry_equiv_pos_as_xyz
1 x,y,z
_cell_length_a                   15.97(2)
_cell_length_b                   14.93(2)
_cell_length_c                   12.417(18)
_cell_angle_alpha                90
_cell_angle_beta                 120.185(13)
_cell_angle_gamma                90
_cell_volume                     2559.17
loop_
_atom_site_label
_atom_site_type_symbol
_atom_site_fract_x
_atom_site_fract_y
_atom_site_fract_z
Cu1 Cu 0.2500 0.2500 0.0000
O2 O 0.0987(5) 0.2276(5) 0.0259(7)
N2 N 0.3176(4) 0.1640(4) 0.1386(5)
C7 C 0.3320(6) 0.0769(6) 0.1197(7)
H4 H 0.3082 0.0568 0.0386
C8 C 0.3791(6) 0.0191(7) 0.2137(9)
C9 C 0.4197(6) 0.0498(6) 0.3375(8)
C10 C 0.4011(8) 0.1369(7) 0.3547(8)
H6 H 0.4217 0.1586 0.4343
C11 C 0.3519(8) 0.1911(6) 0.2530(8)
H7 H 0.3424 0.2506 0.2662
H14 H 0.6150 0.0407 0.8024
C24 C 0.5273(7) 0.0122(7) 0.5622(8)
H17 H 0.5741 0.0559 0.5672
H18 H 0.4838 0.0439 0.5820
O7 O 0.3541(3) 0.3374(3) 0.0942(4)
N1 N 0.9003(6) 0.0001(5) 0.7472(8)
C2 C 0.9762(5) 0.0582(4) 0.7880(7)
C3 C 1.0000(5) 0.1116(4) 0.8877(6)
C4 C 0.9450(6) 0.1081(6) 0.9456(8)
C5 C 0.8663(7) 0.0478(8) 0.8968(10)
H2 H 0.8268 0.0454 0.9318
O4 O 0.8541(3) 0.1626(3) 0.5942(4)
O5 O 0.9013(5) 0.2276(5) 0.4741(7)
C13 C 0.9148(5) 0.1728(5) 0.5580(7)
C15 C 1.0000(5) 0.1116(4) 0.6123(6)
Cu2 Cu 0.7500 0.2500 0.5000
N2_2 N 0.6824(4) 0.1640(4) 0.3614(5)
C7_2 C 0.6680(6) 0.0769(6) 0.3803(7)
H4_2 H 0.6918 0.0568 0.4614
C8_2 C 0.6209(6) 0.0191(7) 0.2863(9)
C9_2 C 0.5803(6) 0.0498(6) 0.1625(8)
C10_2 C 0.5989(8) 0.1369(7) 0.1453(8)
H6_2 H 0.5783 0.1586 0.0657
C11_2 C 0.6481(8) 0.1911(6) 0.2470(8)
H7_2 H 0.6576 0.2506 0.2338
O7_2 O 0.6459(3) 0.3374(3) 0.4058(4)
O8 O 0.5987(5) 0.2724(5) 0.5259(7)
N5 N 0.8176(4) 0.3360(4) 0.6386(5)
C19 C 0.8320(6) 0.4231(6) 0.6197(7)
H13 H 0.8082 0.4432 0.5386
C20 C 0.8791(6) 0.4809(7) 0.7137(9)
H14_2 H 0.8850 0.5407 0.6976
C21 C 0.9197(6) 0.4502(6) 0.8375(8)
C22 C 0.9011(8) 0.3631(7) 0.8547(8)
H15 H 0.9217 0.3414 0.9343
C23 C 0.8519(8) 0.3089(6) 0.7530(8)
H16 H 0.8424 0.2494 0.7662
C24_2 C 0.9727(7) 0.5122(7) 0.9378(8)
H17_2 H 0.9259 0.5559 0.9328
O3 O 0.6214(8) 0.5512(7) 0.3402(9)
N1_2 N 0.5997(6) 0.4999(5) 0.2528(8)
C1 C 0.4148(5) 0.3272(5) 0.0580(7)
C2_2 C 0.5238(5) 0.4418(4) 0.2120(7)
C3_2 C 0.5000(5) 0.3884(4) 0.1123(6)
C4_2 C 0.5550(6) 0.3919(6) 0.0544(8)
C5_2 C 0.6337(7) 0.4522(8) 0.1032(10)
H2_2 H 0.6732 0.4546 0.0682
C6 C 0.6514(8) 0.5030(7) 0.1938(11)
H3 H 0.7019 0.5440 0.2209
O6 O 0.3786(8) 0.5512(7) 0.1598(9)
N3 N 0.4003(6) 0.4999(5) 0.2472(8)
C13_2 C 0.5852(5) 0.3272(5) 0.4420(7)
C14 C 0.4762(5) 0.4418(4) 0.2880(7)
C15_2 C 0.5000(5) 0.3884(4) 0.3877(6)
C16 C 0.4450(6) 0.3919(6) 0.4456(8)
H10 H 0.4594 0.3559 0.5139
C17 C 0.3663(7) 0.4522(8) 0.3968(10)
H11 H 0.3268 0.4546 0.4318
C18 C 0.3486(8) 0.5030(7) 0.3062(11)
H12 H 0.2981 0.5440 0.2791
H19 H 0.56582 0.591373 0.319879
H20 H 0.43418 0.591373 0.180121
Cu1_2 Cu 0.2500 0.2500 1.0000
O1 O 0.1459(3) 0.1626(3) 0.9058(4)
C1_2 C 0.0852(5) 0.1728(5) 0.9420(7)
C3_3 C -0.0000(5) 0.1116(4) 0.8877(6)
N3_2 N 0.0997(6) 0.0001(5) 0.7528(8)
C14_2 C 0.0238(5) 0.0582(4) 0.7120(7)
C15_3 C -0.0000(5) 0.1116(4) 0.6123(6)
C16_2 C 0.0550(6) 0.1081(6) 0.5544(8)
H10_2 H 0.0406 0.1441 0.4861
C17_2 C 0.1337(7) 0.0478(8) 0.6032(10)
H11_2 H 0.1732 0.0454 0.5682
O8_2 O 0.4013(5) 0.2724(5) 0.9741(7)
N5_2 N 0.1824(4) 0.3360(4) 0.8614(5)
H9 H 0.0162 0.4561 0.4180
C19_2 C 0.1680(6) 0.4231(6) 0.8803(7)
H13_2 H 0.1918 0.4432 0.9614
C20_2 C 0.1209(6) 0.4809(7) 0.7863(9)
H14_3 H 0.1150 0.5407 0.8024
C21_2 C 0.0803(6) 0.4502(6) 0.6625(8)
C22_2 C 0.0989(8) 0.3631(7) 0.6453(8)
H15_2 H 0.0783 0.3414 0.5657
C23_2 C 0.1481(8) 0.3089(6) 0.7470(8)
H16_2 H 0.1576 0.2494 0.7338
C24_3 C 0.0273(7) 0.5122(7) 0.5622(8)
H17_3 H 0.0741 0.5559 0.5672
H1 H 0.5406 0.3559 0.9861
Cu3 Cu 0.7500 0.7500 -0.0000
O2_2 O 0.5987(5) 0.7276(5) 0.0259(7)
N2_3 N 0.8176(4) 0.6640(4) 0.1386(5)
H1_2 H 0.4594 0.6441 0.0139
C7_3 C 0.8320(6) 0.5769(6) 0.1197(7)
H4_3 H 0.8082 0.5568 0.0386
C8_3 C 0.8791(6) 0.5191(7) 0.2137(9)
H5 H 0.8850 0.4593 0.1976
C9_3 C 0.9197(6) 0.5498(6) 0.3375(8)
C10_3 C 0.9011(8) 0.6369(7) 0.3547(8)
H6_3 H 0.9217 0.6586 0.4343
C11_3 C 0.8519(8) 0.6911(6) 0.2530(8)
H7_3 H 0.8424 0.7506 0.2662
C12 C 0.9727(7) 0.4878(7) 0.4378(8)
H8 H 0.9259 0.4441 0.4328
H18_2 H 0.9838 0.5439 0.5820
O7_3 O 0.8541(3) 0.8374(3) 0.0942(4)
C1_3 C 0.9148(5) 0.8272(5) 0.0580(7)
C3_4 C 1.0000(5) 0.8884(4) 0.1123(6)
N3_3 N 0.9003(6) 0.9999(5) 0.2472(8)
C14_3 C 0.9762(5) 0.9418(4) 0.2880(7)
C15_4 C 1.0000(5) 0.8884(4) 0.3877(6)
C16_3 C 0.9450(6) 0.8919(6) 0.4456(8)
H10_3 H 0.9594 0.8559 0.5139
C17_3 C 0.8663(7) 0.9522(8) 0.3968(10)
H11_3 H 0.8268 0.9546 0.4318
H5_2 H 0.3850 0.9593 0.1976
C12_2 C 0.4727(7) 0.9878(7) 0.4378(8)
H8_2 H 0.4259 0.9441 0.4328
H9_2 H 0.5162 0.9561 0.4180
N4 N 0.6824(4) 0.8360(4) 0.8614(5)
C19_3 C 0.6680(6) 0.9231(6) 0.8803(7)
H13_3 H 0.6918 0.9432 0.9614
C20_3 C 0.6209(6) 0.9809(7) 0.7863(9)
C21_3 C 0.5803(6) 0.9502(6) 0.6625(8)
C22_3 C 0.5989(8) 0.8631(7) 0.6453(8)
H15_3 H 0.5783 0.8414 0.5657
C23_3 C 0.6481(8) 0.8089(6) 0.7470(8)
H16_3 H 0.6576 0.7494 0.7338
Cu3_2 Cu 0.7500 0.7500 1.0000
N4_2 N 0.3176(4) 0.8360(4) 0.6386(5)
C19_4 C 0.3320(6) 0.9231(6) 0.6197(7)
H13_4 H 0.3082 0.9432 0.5386
C20_4 C 0.3791(6) 0.9809(7) 0.7137(9)
C21_4 C 0.4197(6) 0.9502(6) 0.8375(8)
C22_4 C 0.4011(8) 0.8631(7) 0.8547(8)
H15_4 H 0.4217 0.8414 0.9343
C23_4 C 0.3519(8) 0.8089(6) 0.7530(8)
H16_4 H 0.3424 0.7494 0.7662
Cu3_3 Cu 0.2500 0.7500 0.5000
O1_2 O 0.6459(3) 0.6626(3) 0.9058(4)
O3_2 O 0.3786(8) 0.4488(7) 0.6598(9)
N1_3 N 0.4003(6) 0.5001(5) 0.7472(8)
C1_4 C 0.5852(5) 0.6728(5) 0.9420(7)
C2_3 C 0.4762(5) 0.5582(4) 0.7880(7)
C3_5 C 0.5000(5) 0.6116(4) 0.8877(6)
C4_3 C 0.4450(6) 0.6081(6) 0.9456(8)
C5_3 C 0.3663(7) 0.5478(8) 0.8968(10)
H2_3 H 0.3268 0.5454 0.9318
C6_2 C 0.3486(8) 0.4970(7) 0.8062(11)
H3_2 H 0.2981 0.4560 0.7791
O4_2 O 0.3541(3) 0.6626(3) 0.5942(4)
O5_2 O 0.4013(5) 0.7276(5) 0.4741(7)
O6_2 O 0.6214(8) 0.4488(7) 0.8402(9)
N3_4 N 0.5997(6) 0.5001(5) 0.7528(8)
C13_3 C 0.4148(5) 0.6728(5) 0.5580(7)
C14_4 C 0.5238(5) 0.5582(4) 0.7120(7)
C15_5 C 0.5000(5) 0.6116(4) 0.6123(6)
C16_4 C 0.5550(6) 0.6081(6) 0.5544(8)
H10_4 H 0.5406 0.6441 0.4861
C17_4 C 0.6337(7) 0.5478(8) 0.6032(10)
H11_4 H 0.6732 0.5454 0.5682
C18_2 C 0.6514(8) 0.4970(7) 0.6938(11)
H12_2 H 0.7019 0.4560 0.7209
O8_3 O 0.9013(5) 0.7724(5) 0.9741(7)
H19_2 H 0.43418 0.408627 0.680121
H20_2 H 0.56582 0.408627 0.819879
N2_4 N 0.1824(4) 0.6640(4) 0.3614(5)
C7_4 C 0.1680(6) 0.5769(6) 0.3803(7)
H4_4 H 0.1918 0.5568 0.4614
C8_4 C 0.1209(6) 0.5191(7) 0.2863(9)
H5_3 H 0.1150 0.4593 0.3024
C9_4 C 0.0803(6) 0.5498(6) 0.1625(8)
C10_4 C 0.0989(8) 0.6369(7) 0.1453(8)
H6_4 H 0.0783 0.6586 0.0657
C11_4 C 0.1481(8) 0.6911(6) 0.2470(8)
H7_4 H 0.1576 0.7506 0.2338
C12_3 C 0.0273(7) 0.4878(7) 0.0622(8)
H8_3 H 0.0741 0.4441 0.0672
O7_4 O 0.1459(3) 0.8374(3) 0.4058(4)
O8_4 O 0.0987(5) 0.7724(5) 0.5259(7)
N1_4 N 0.0997(6) 0.9999(5) 0.2528(8)
C2_4 C 0.0238(5) 0.9418(4) 0.2120(7)
C3_6 C -0.0000(5) 0.8884(4) 0.1123(6)
C4_4 C 0.0550(6) 0.8919(6) 0.0544(8)
C5_4 C 0.1337(7) 0.9522(8) 0.1032(10)
H2_4 H 0.1732 0.9546 0.0682
C13_4 C 0.0852(5) 0.8272(5) 0.4420(7)
C15_6 C -0.0000(5) 0.8884(4) 0.3877(6)
O6_3 O 0.1214(8) 0.9488(7) 0.8402(9)
C18_3 C 0.1514(8) 0.9970(7) 0.6938(11)
H12_3 H 0.2019 0.9560 0.7209
H20_3 H 0.0658198 0.908627 0.819879
H1_3 H 0.9594 0.1441 0.0139
O3_3 O 0.8786(8) 0.9488(7) 0.6598(9)
C6_3 C 0.8486(8) 0.9970(7) 0.8062(11)
H3_3 H 0.7981 0.9560 0.7791
H19_3 H 0.93418 0.908627 0.680121
H5_4 H 0.6150 0.9593 0.3024
C12_4 C 0.5273(7) 0.9878(7) 0.0622(8)
H8_4 H 0.5741 0.9441 0.0672
H9_3 H 0.4838 0.9561 0.0820
H14_4 H 0.3850 0.0407 0.6976
C24_4 C 0.4727(7) 0.0122(7) 0.9378(8)
H17_4 H 0.4259 0.0559 0.9328
H18_3 H 0.5162 0.0439 0.9180
O3_4 O 0.1214(8) 0.0512(7) 0.3402(9)
C6_4 C 0.1514(8) 0.0030(7) 0.1938(11)
H3_4 H 0.2019 0.0440 0.2209
H19_4 H 0.0658198 0.091373 0.319879
H18_4 H 0.0162 0.5439 0.9180
H9_4 H 0.9838 0.4561 0.0820
H1_4 H 0.0406 0.8559 0.9861
O6_4 O 0.8786(8) 0.0512(7) 0.1598(9)
C18_4 C 0.8486(8) 0.0030(7) 0.3062(11)
H12_4 H 0.7981 0.0440 0.2791
H20_4 H 0.93418 0.091373 0.180121
loop_
_geom_bond_atom_site_label_1
_geom_bond_atom_site_label_2
_geom_bond_site_symmetry_1
_geom_bond_site_symmetry_2
O2 Cu1 1_555 1_555
N2 Cu1 1_555 1_555
C7 N2 1_555 1_555
H4 C7 1_555 1_555
C8 C7 1_555 1_555
C9 C8 1_555 1_555
C10 C9 1_555 1_555
H6 C10 1_555 1_555
C11 N2 1_555 1_555
H7 C11 1_555 1_555
H17 C24 1_555 1_555
H18 C24 1_555 1_555
O7 Cu1 1_555 1_555
C10 C11 1_555 1_555
N1 C2 1_555 1_555
C2 C3 1_555 1_555
C4 C3 1_555 1_555
C5 C4 1_555 1_555
H2 C5 1_555 1_555
O4 C13 1_555 1_555
O5 C13 1_555 1_555
C13 C15 1_555 1_555
Cu2 O4 1_555 1_555
O5 Cu2 1_555 1_555
N2_2 Cu2 1_555 1_555
C7_2 N2_2 1_555 1_555
H4_2 C7_2 1_555 1_555
C8_2 C7_2 1_555 1_555
C9_2 C8_2 1_555 1_555
C10_2 C9_2 1_555 1_555
H6_2 C10_2 1_555 1_555
C11_2 N2_2 1_555 1_555
H7_2 C11_2 1_555 1_555
O7_2 Cu2 1_555 1_555
O8 Cu2 1_555 1_555
N5 Cu2 1_555 1_555
C10_2 C11_2 1_555 1_555
N5 C19 1_555 1_555
C19 H13 1_555 1_555
C20 C19 1_555 1_555
H14_2 C20 1_555 1_555
C21 C20 1_555 1_555
C22 C21 1_555 1_555
H15 C22 1_555 1_555
C23 N5 1_555 1_555
H16 C23 1_555 1_555
H17_2 C24_2 1_555 1_555
C21 C24_2 1_555 1_555
C22 C23 1_555 1_555
O7 C1 1_555 1_555
O3 N1_2 1_555 1_555
N1_2 C2_2 1_555 1_555
C2_2 C3_2 1_555 1_555
C3_2 C1 1_555 1_555
C4_2 C3_2 1_555 1_555
C5_2 C4_2 1_555 1_555
H2_2 C5_2 1_555 1_555
C6 N1_2 1_555 1_555
H3 C6 1_555 1_555
O7_2 C13_2 1_555 1_555
O8 C13_2 1_555 1_555
O6 N3 1_555 1_555
N3 C14 1_555 1_555
C13_2 C15_2 1_555 1_555
C14 C2_2 1_555 1_555
C15_2 C14 1_555 1_555
C16 C15_2 1_555 1_555
H10 C16 1_555 1_555
C17 C16 1_555 1_555
H11 C17 1_555 1_555
C18 N3 1_555 1_555
H12 C18 1_555 1_555
C5_2 C6 1_555 1_555
C17 C18 1_555 1_555
O3 H19 1_555 1_555
O6 H20 1_555 1_555
Cu1_2 O1 1_555 1_555
O1 C1_2 1_555 1_555
C3_3 C1_2 1_555 1_555
N3_2 C14_2 1_555 1_555
C15_3 C14_2 1_555 1_555
C16_2 C15_3 1_555 1_555
H10_2 C16_2 1_555 1_555
C17_2 C16_2 1_555 1_555
H11_2 C17_2 1_555 1_555
O8_2 Cu1_2 1_555 1_555
N5_2 Cu1_2 1_555 1_555
N5_2 C19_2 1_555 1_555
C19_2 H13_2 1_555 1_555
C20_2 C19_2 1_555 1_555
H14_3 C20_2 1_555 1_555
C21_2 C20_2 1_555 1_555
C22_2 C21_2 1_555 1_555
H15_2 C22_2 1_555 1_555
C23_2 N5_2 1_555 1_555
H16_2 C23_2 1_555 1_555
H17_3 C24_3 1_555 1_555
C21_2 C24_3 1_555 1_555
C22_2 C23_2 1_555 1_555
O2_2 Cu3 1_555 1_555
N2_3 Cu3 1_555 1_555
C7_3 N2_3 1_555 1_555
H4_3 C7_3 1_555 1_555
C8_3 C7_3 1_555 1_555
H5 C8_3 1_555 1_555
C9_3 C8_3 1_555 1_555
C10_3 C9_3 1_555 1_555
H6_3 C10_3 1_555 1_555
C11_3 N2_3 1_555 1_555
H7_3 C11_3 1_555 1_555
C12 C9_3 1_555 1_555
H8 C12 1_555 1_555
O7_3 Cu3 1_555 1_555
C10_3 C11_3 1_555 1_555
O7_3 C1_3 1_555 1_555
C3_4 C1_3 1_555 1_555
N3_3 C14_3 1_555 1_555
C15_4 C14_3 1_555 1_555
C16_3 C15_4 1_555 1_555
H10_3 C16_3 1_555 1_555
C17_3 C16_3 1_555 1_555
H11_3 C17_3 1_555 1_555
H8_2 C12_2 1_555 1_555
H9_2 C12_2 1_555 1_555
N4 C19_3 1_555 1_555
C19_3 H13_3 1_555 1_555
C20_3 C19_3 1_555 1_555
C21_3 C20_3 1_555 1_555
C22_3 C21_3 1_555 1_555
H15_3 C22_3 1_555 1_555
C23_3 N4 1_555 1_555
H16_3 C23_3 1_555 1_555
Cu3_2 N4 1_555 1_555
C22_3 C23_3 1_555 1_555
N4_2 C19_4 1_555 1_555
C19_4 H13_4 1_555 1_555
C20_4 C19_4 1_555 1_555
C21_4 C20_4 1_555 1_555
C22_4 C21_4 1_555 1_555
H15_4 C22_4 1_555 1_555
C23_4 N4_2 1_555 1_555
H16_4 C23_4 1_555 1_555
Cu3_3 N4_2 1_555 1_555
C22_4 C23_4 1_555 1_555
Cu3_2 O1_2 1_555 1_555
O1_2 C1_4 1_555 1_555
O3_2 N1_3 1_555 1_555
N1_3 C2_3 1_555 1_555
C2_3 C3_5 1_555 1_555
C3_5 C1_4 1_555 1_555
C4_3 C3_5 1_555 1_555
C5_3 C4_3 1_555 1_555
H2_3 C5_3 1_555 1_555
C6_2 N1_3 1_555 1_555
H3_2 C6_2 1_555 1_555
O4_2 C13_3 1_555 1_555
O5_2 C13_3 1_555 1_555
O6_2 N3_4 1_555 1_555
N3_4 C14_4 1_555 1_555
C13_3 C15_5 1_555 1_555
C14_4 C2_3 1_555 1_555
C15_5 C14_4 1_555 1_555
C16_4 C15_5 1_555 1_555
H10_4 C16_4 1_555 1_555
C17_4 C16_4 1_555 1_555
H11_4 C17_4 1_555 1_555
C18_2 N3_4 1_555 1_555
H12_2 C18_2 1_555 1_555
Cu3_3 O4_2 1_555 1_555
O8_3 Cu3_2 1_555 1_555
C5_3 C6_2 1_555 1_555
O5_2 Cu3_3 1_555 1_555
C17_4 C18_2 1_555 1_555
O3_2 H19_2 1_555 1_555
O6_2 H20_2 1_555 1_555
N2_4 Cu3_3 1_555 1_555
C7_4 N2_4 1_555 1_555
H4_4 C7_4 1_555 1_555
C8_4 C7_4 1_555 1_555
H5_3 C8_4 1_555 1_555
C9_4 C8_4 1_555 1_555
C10_4 C9_4 1_555 1_555
H6_4 C10_4 1_555 1_555
C11_4 N2_4 1_555 1_555
H7_4 C11_4 1_555 1_555
C12_3 C9_4 1_555 1_555
H8_3 C12_3 1_555 1_555
O7_4 Cu3_3 1_555 1_555
O8_4 Cu3_3 1_555 1_555
C10_4 C11_4 1_555 1_555
N1_4 C2_4 1_555 1_555
C2_4 C3_6 1_555 1_555
C4_4 C3_6 1_555 1_555
C5_4 C4_4 1_555 1_555
H2_4 C5_4 1_555 1_555
O7_4 C13_4 1_555 1_555
O8_4 C13_4 1_555 1_555
C13_4 C15_6 1_555 1_555
H12_3 C18_3 1_555 1_555
O6_3 H20_3 1_555 1_555
H3_3 C6_3 1_555 1_555
O3_3 H19_3 1_555 1_555
H8_4 C12_4 1_555 1_555
H9_3 C12_4 1_555 1_555
H17_4 C24_4 1_555 1_555
H18_3 C24_4 1_555 1_555
H3_4 C6_4 1_555 1_555
O3_4 H19_4 1_555 1_555
H12_4 C18_4 1_555 1_555
O6_4 H20_4 1_555 1_555

#END
