
###############################################################################
#
# This file contains modified crystal structure data generated from the
# MOF subset of the Cambridge Structural Database (CSD) v543 
# hosted by the Cambridge Crystallographic Data Centre (CCDC).
#
# This work is licensed under the Creative Commons
# Attribution-NonCommercial-ShareAlike 4.0 International License.
# To view a copy of this license, visit
# http://creativecommons.org/licenses/by-nc-sa/4.0/
# or send a letter to
# Creative Commons, PO Box 1866, Mountain View, CA 94042, USA.
#
# CIF created using the CSD Python API on 29 September 2022
# The structure has been converted into the P1 space group
# The structure has a 3D framework
# The original CSD entry MEQWOX is in the triclinic crystal system
# The original CSD entry MEQWOX is in a Sohncke space group
# The framework has been calculated to contain at least 10.0% void space
# The void calculation uses a probe of radius 1.32A, grid spacing 0.4
#
###############################################################################

data_MEQWOX
_chemical_formula_moiety         '(C188 H136 Cd2 Cu4 N16 Ni2 O19)n'
_symmetry_cell_setting           triclinic
_symmetry_space_group_name_H-M   'P 1'
_symmetry_Int_Tables_number      1
_space_group_name_Hall           'P 1'
loop_
_symmetry_equiv_pos_site_id
_symmetry_equiv_pos_as_xyz
1 x,y,z
_cell_length_a                   16.1346(6)
_cell_length_b                   17.1472(6)
_cell_length_c                   24.7090(9)
_cell_angle_alpha                84.963(3)
_cell_angle_beta                 77.300(3)
_cell_angle_gamma                89.599(3)
_cell_volume                     6642.54
loop_
_atom_site_label
_atom_site_type_symbol
_atom_site_fract_x
_atom_site_fract_y
_atom_site_fract_z
_atom_site_U_iso_or_equiv
_atom_site_thermal_displace_type
O6 O 0.4379(7) 0.3169(6) 0.7884(4) 0.0506 Uani
N3 N 0.0503(7) 0.0173(6) 0.7452(5) 0.0387 Uani
O7 O 0.4896(6) 0.3209(6) 0.6964(4) 0.0396 Uani
C1 C 0.1165(9) 0.0674(8) 0.7416(5) 0.0290 Uiso
C13 C 0.2016(8) 0.0472(7) 0.7306(5) 0.0281 Uani
C23 C 0.4401(10) 0.2927(8) 0.7411(6) 0.0360 Uiso
C32 C 0.2634(9) 0.1100(8) 0.7341(6) 0.0370 Uiso
C39 C 0.0013(8) 0.1406(7) 0.7591(7) 0.0440 Uani
C42 C 0.3227(10) 0.2007(9) 0.7847(6) 0.0460 Uiso
H19 H 0.3228 0.2207 0.8185 0.0560 Uiso
C45 C 0.2640(11) 0.1402(9) 0.7818(7) 0.0490 Uiso
H21 H 0.2252 0.1215 0.8139 0.0590 Uiso
C49 C 0.0859(10) 0.1437(8) 0.7475(7) 0.0473 Uani
H24 H 0.1190 0.1888 0.7438 0.0570 Uiso
C50 C 0.3819(9) 0.2304(8) 0.7347(5) 0.0310 Uiso
C53 C 0.3773(10) 0.2020(8) 0.6878(7) 0.0491 Uani
H26 H 0.4136 0.2222 0.6550 0.0590 Uiso
C57 C 0.3200(10) 0.1426(9) 0.6851(7) 0.0540 Uiso
H29 H 0.3190 0.1243 0.6509 0.0650 Uiso
Cd4 Cd 0.51805(4) 0.39624(4) 0.82327(3) 0.0265 Uani
Cu6 Cu 0.57137(11) 0.40206(9) 0.70027(8) 0.0279 Uani
Cu2 Cu 0.05337(11) 0.90388(10) 0.73372(8) 0.0292 Uani
O1 O 0.4834(6) 0.4828(5) 0.6948(5) 0.0424 Uani
N2 N 0.0578(7) 0.7887(6) 0.7239(4) 0.0300 Uiso
O4 O 0.4541(6) 0.5001(5) 0.7873(4) 0.0389 Uani
N4 N 0.1785(7) 0.9085(6) 0.7241(5) 0.0301 Uani
N5 N 0.4177(7) 0.3944(6) 0.9024(5) 0.0329 Uani
C2 C 0.4462(8) 0.5153(7) 0.7392(7) 0.0368 Uani
C4 C 0.3861(9) 0.3231(8) 0.9278(5) 0.0310 Uiso
H1 H 0.4075 0.2778 0.9121 0.0370 Uiso
C5 C 0.2770(8) 0.7032(7) 0.7196(7) 0.0394 Uani
C10 C 0.3845(9) 0.6159(9) 0.6787(6) 0.0381 Uani
H2 H 0.4191 0.5976 0.6472 0.0460 Uiso
C11 C 0.2352(9) 0.8435(7) 0.7194(6) 0.0345 Uani
C12 C 0.2322(9) 0.9721(8) 0.7241(6) 0.0385 Uani
C14 C 0.3863(8) 0.5807(8) 0.7304(5) 0.0325 Uani
C15 C 0.1304(9) 0.7445(7) 0.7163(6) 0.0353 Uani
C17 C 0.2083(9) 0.7699(8) 0.7153(6) 0.0315 Uani
C20 C 0.3232(9) 0.4550(9) 0.9746(6) 0.0386 Uani
H5 H 0.3038 0.5014 0.9895 0.0470 Uiso
C21 C 0.3206(11) 0.9494(9) 0.7178(8) 0.0566 Uani
H6 H 0.3674 0.9820 0.7151 0.0680 Uiso
C22 C 0.0214(9) 0.6599(8) 0.7238(5) 0.0420 Uiso
C24 C 0.2799(9) 0.6706(8) 0.7704(6) 0.0378 Uani
H8 H 0.2456 0.6899 0.8016 0.0450 Uiso
C25 C 0.3851(9) 0.4567(8) 0.9240(5) 0.0320 Uiso
H9 H 0.4032 0.5051 0.9054 0.0390 Uiso
C27 C 0.3202(10) 0.8693(9) 0.7167(6) 0.0420 Uiso
H10 H 0.3674 0.8373 0.7146 0.0510 Uiso
C28 C 0.3250(8) 0.3168(7) 0.9747(6) 0.0369 Uani
H11 H 0.3040 0.2674 0.9898 0.0450 Uiso
C31 C 0.3335(9) 0.6081(8) 0.7771(6) 0.0340 Uiso
H12 H 0.3340 0.5849 0.8125 0.0410 Uiso
C38 C 0.1056(9) 0.6601(8) 0.7168(8) 0.0525 Uani
H16 H 0.1414 0.6172 0.7130 0.0630 Uiso
C44 C 0.3311(8) 0.6791(8) 0.6730(5) 0.0332 Uani
H20 H 0.3320 0.7047 0.6381 0.0400 Uiso
O11 O 0.6298(7) 0.4792(6) 0.8024(4) 0.0390 Uiso
O12 O 0.6371(6) 0.3214(6) 0.7403(4) 0.0401 Uani
O13 O 0.6496(6) 0.4841(5) 0.7092(4) 0.0385 Uani
O16 O 0.6048(6) 0.2981(5) 0.8330(4) 0.0374 Uani
N9 N 0.6456(6) 0.3790(5) 0.6221(4) 0.0361 Uani
C6 C 0.9778(9) 0.0644(8) 0.7541(5) 0.0320 Uiso
C19 C 0.8279(9) 0.0982(8) 0.7681(6) 0.0380 Uiso
C26 C 0.6486(8) 0.2821(7) 0.7861(5) 0.0320 Uiso
C29 C 0.7067(9) 0.2182(8) 0.7805(6) 0.0350 Uani
C30 C 0.8958(9) 0.0404(8) 0.7611(7) 0.0442 Uani
C36 C 0.7387(8) 0.1856(7) 0.8259(6) 0.0320 Uani
H15 H 0.7202 0.2047 0.8606 0.0390 Uiso
H17 H 0.9648 0.1818 0.7688 0.0530 Uiso
C46 C 0.7953(8) 0.1277(7) 0.8203(6) 0.0337 Uani
H22 H 0.8137 0.1063 0.8515 0.0400 Uiso
C54 C 0.7409(13) 0.1918(10) 0.7285(7) 0.0607 Uani
H27 H 0.7249 0.2139 0.6967 0.0730 Uiso
C62 C 0.8005(14) 0.1305(12) 0.7255(9) 0.0770 Uiso
H32 H 0.8217 0.1120 0.6909 0.0920 Uiso
O9 O 0.9547(6) 0.3600(7) 0.2993(4) 0.0684 Uani
C58 C 0.9117(10) 0.3600(8) 0.3513(6) 0.0460 Uiso
C63 C 0.8231(12) 0.3264(10) 0.3619(6) 0.0687 Uani
C64 C 0.7791(11) 0.3320(9) 0.4156(6) 0.0570 Uiso
H33 H 0.7230 0.3142 0.4235 0.0680 Uiso
C65 C 0.8053(8) 0.3598(7) 0.4594(5) 0.0350 Uiso
C66 C 0.8873(9) 0.3887(8) 0.4473(6) 0.0505 Uani
H34 H 0.9086 0.4066 0.4760 0.0600 Uiso
C67 C 0.7841(8) 0.3740(7) 0.5609(5) 0.0443 Uani
H35 H 0.8426 0.3744 0.5575 0.0530 Uiso
C68 C 0.7306(7) 0.3843(7) 0.6137(5) 0.0383 Uani
H36 H 0.7550 0.3950 0.6431 0.0460 Uiso
C70 C 0.7525(10) 0.3635(7) 0.5145(6) 0.0460 Uani
H39 H 0.9963 0.1638 0.1929 0.1110 Uiso
C74 C 0.9519(9) 0.2861(9) 0.1398(7) 0.0711 Uani
H42 H 0.9429 0.3169 0.1712 0.1070 Uiso
H43 H 0.9092 0.2455 0.1463 0.1070 Uiso
H44 H 0.9484 0.3190 0.1069 0.1070 Uiso
C75 C 0.6616(9) 0.3569(9) 0.5261(6) 0.0509 Uani
H45 H 0.6344 0.3456 0.4982 0.0620 Uiso
C77 C 0.9409(9) 0.3924(8) 0.3934(5) 0.0458 Uani
H47 H 0.9980 0.1614 0.0941 0.1160 Uiso
C80 C 0.6155(9) 0.3670(8) 0.5778(6) 0.0459 Uani
H49 H 0.5567 0.3655 0.5826 0.0550 Uiso
C82 C 0.7910(13) 0.2994(12) 0.3173(8) 0.0850 Uiso
C83 C 0.7829(11) 0.3564(18) 0.2711(7) 0.1338 Uani
H51 H 0.7395 0.3932 0.2840 0.2000 Uiso
H52 H 0.7680 0.3297 0.2420 0.2000 Uiso
H53 H 0.8361 0.3838 0.2570 0.2000 Uiso
C86 C 0.6997(17) 0.2475(16) 0.3439(11) 0.1370 Uiso
H56 H 0.7050 0.2165 0.3772 0.2050 Uiso
H57 H 0.6892 0.2138 0.3171 0.2050 Uiso
H58 H 0.6532 0.2829 0.3525 0.2050 Uiso
C94 C 0.8499(17) 0.2223(14) 0.2918(10) 0.1375 Uani
H66 H 0.8941 0.2410 0.2607 0.2020 Uiso
H67 H 0.8140 0.1859 0.2800 0.2020 Uiso
H68 H 0.8748 0.1966 0.3204 0.2020 Uiso
N1 N 0.9273(7) 0.9001(6) 0.7454(4) 0.0310 Uiso
C3 C 0.8761(9) 0.8343(8) 0.7443(5) 0.0350 Uiso
C7 C 0.8385(8) 0.6959(7) 0.7410(6) 0.0349 Uani
C8 C 0.9915(9) 0.7407(8) 0.7279(5) 0.0330 Uiso
C9 C 0.8714(9) 0.9596(8) 0.7563(5) 0.0340 Uiso
C16 C 0.7455(10) 0.5994(9) 0.7957(6) 0.0390 Uiso
H3 H 0.7208 0.5750 0.8306 0.0460 Uiso
C18 C 0.7997(10) 0.6642(9) 0.7907(6) 0.0430 Uiso
H4 H 0.8083 0.6851 0.8225 0.0520 Uiso
H7 H 0.9871 0.6159 0.7258 0.0500 Uiso
C33 C 0.7736(8) 0.6035(7) 0.6938(5) 0.0280 Uiso
H13 H 0.7645 0.5841 0.6615 0.0330 Uiso
C34 C 0.7862(9) 0.9356(8) 0.7593(5) 0.0430 Uiso
H14 H 0.7386 0.9673 0.7644 0.0520 Uiso
C40 C 0.9054(9) 0.7597(7) 0.7349(5) 0.0310 Uiso
C41 C 0.7875(8) 0.8568(7) 0.7533(5) 0.0360 Uiso
H18 H 0.7410 0.8243 0.7546 0.0440 Uiso
C43 C 0.6588(9) 0.5048(7) 0.7539(5) 0.0270 Uiso
C47 C 0.7291(9) 0.5719(8) 0.7475(7) 0.0420 Uani
C51 C 0.8316(9) 0.6651(8) 0.6914(7) 0.0421 Uani
H25 H 0.8650 0.6852 0.6575 0.0510 Uiso
Ni1 Ni 0.05731(14) 0.41251(14) 0.26936(9) 0.0516 Uani
N7 N 0.1520(6) 0.4733(6) 0.2369(4) 0.0461 Uani
C35 C 0.2332(12) 0.3795(10) 0.0531(6) 0.0517 Uani
C37 C 0.2918(8) 0.3835(8) 0.0018(6) 0.0346 Uani
C48 C 0.0195(8) 0.4291(7) 0.3849(5) 0.0468 Uani
H23 H 0.0378 0.4434 0.4159 0.0560 Uiso
O10 O 0.0537(6) 0.3705(6) 0.2044(4) 0.0560 Uiso
C52 C 0.1042(8) 0.3149(8) 0.1192(5) 0.0458 Uani
C55 C 0.1755(10) 0.4269(8) 0.1452(7) 0.0520 Uani
N8 N 0.0696(7) 0.4447(7) 0.3356(5) 0.0537 Uani
C56 C 0.1699(9) 0.3202(7) 0.0685(6) 0.0389 Uani
H28 H 0.1705 0.2816 0.0443 0.0470 Uiso
C59 C 0.1921(9) 0.4767(8) 0.1853(6) 0.0515 Uani
H30 H 0.2350 0.5143 0.1733 0.0620 Uiso
C60 C 0.2364(10) 0.4339(9) 0.0915(6) 0.0481 Uani
H31 H 0.2768 0.4741 0.0830 0.0580 Uiso
C61 C 0.1059(9) 0.3709(9) 0.1573(5) 0.0539 Uani
C69 C 0.1540(9) 0.4830(9) 0.3331(5) 0.0535 Uani
H37 H 0.1958 0.4412 0.3329 0.0640 Uiso
C71 C 0.0435(12) 0.1999(9) 0.1837(6) 0.0740 Uani
H38 H 0.0957 0.1714 0.1783 0.1110 Uiso
H40 H 0.0410 0.2327 0.2136 0.1110 Uiso
C72 C 0.1745(10) 0.5282(8) 0.2757(6) 0.0562 Uani
H41 H 0.1373 0.5737 0.2762 0.0680 Uiso
C73 C 0.2675(6) 0.5569(7) 0.2586(5) 0.0594 Uani
C76 C 0.0399(9) 0.2492(9) 0.1320(6) 0.0585 Uani
C78 C 0.1599(9) 0.5313(8) 0.3795(5) 0.0700 Uani
C79 C 0.0452(10) 0.1976(9) 0.0853(8) 0.0776 Uani
H46 H 0.0436 0.2292 0.0515 0.1160 Uiso
H48 H 0.0973 0.1690 0.0804 0.1160 Uiso
C81 C 0.3350(8) 0.5060(7) 0.2486(8) 0.0862 Uani
H50 H 0.3248 0.4523 0.2522 0.1040 Uiso
C84 C 0.4176(7) 0.5347(11) 0.2331(10) 0.1163 Uani
H54 H 0.4627 0.5002 0.2265 0.1410 Uiso
C85 C 0.1171(13) 0.6417(9) 0.4315(7) 0.1100 Uani
H55 H 0.0830 0.6853 0.4383 0.1330 Uiso
C87 C 0.1105(10) 0.5971(8) 0.3884(6) 0.0863 Uani
H59 H 0.0731 0.6115 0.3656 0.1040 Uiso
C88 C 0.2178(10) 0.5114(10) 0.4122(7) 0.1133 Uani
H60 H 0.2516 0.4676 0.4056 0.1350 Uiso
C89 C 0.2832(8) 0.6366(7) 0.2543(7) 0.0987 Uani
H61 H 0.2381 0.6711 0.2611 0.1190 Uiso
C90 C 0.4329(7) 0.6146(11) 0.2276(11) 0.1380 Uani
H62 H 0.4882 0.6341 0.2156 0.1650 Uiso
C91 C 0.1741(16) 0.6214(13) 0.4644(8) 0.1553 Uani
H63 H 0.1782 0.6513 0.4933 0.1860 Uiso
C92 C 0.2254(13) 0.5567(14) 0.4545(7) 0.1604 Uani
H64 H 0.2647 0.5439 0.4762 0.1950 Uiso
C93 C 0.3658(10) 0.6652(8) 0.2400(9) 0.1490 Uiso
H65 H 0.3761 0.7187 0.2386 0.1790 Uiso
H133 H 0.0428 0.0694 0.5019 0.1840 Uiso
H134 H 0.0107 0.1916 0.4644 0.2420 Uiso
C134 C 0.1236(10) 0.5488(8) 0.0034(6) 0.0482 Uani
H83 H 0.1320 0.5698 0.0353 0.0580 Uiso
C152 C 0.0691(10) 0.4862(8) 0.0095(6) 0.0368 Uani
H98 H 0.0459 0.4634 0.0451 0.0440 Uiso
H99 H 0.0745 0.0481 0.0172 0.0630 Uiso
Cu12 Cu 0.31543(11) 0.75166(10) 0.00515(7) 0.0274 Uani
O20 O 0.2609(6) 0.6776(6) 0.8997(4) 0.0419 Uani
O21 O 0.2450(6) 0.6658(5) 0.9925(4) 0.0310 Uiso
N15 N 0.2489(7) 0.7503(6) 0.0892(4) 0.0320 Uiso
C99 C 0.0133(8) 0.3162(7) 0.9550(5) 0.0300 Uiso
C100 C 0.0552(9) 0.0523(8) 0.9377(6) 0.0370 Uiso
C102 C 0.0475(10) 0.4559(9) 0.9645(6) 0.0380 Uiso
C108 C 0.0139(7) 0.1891(7) 0.9447(6) 0.0356 Uani
C120 C 0.1036(7) 0.2198(6) 0.9314(4) 0.0270 Uiso
H78 H 0.1527 0.1911 0.9206 0.0330 Uiso
C123 C 0.2258(8) 0.6463(7) 0.9474(7) 0.0358 Uani
C126 C 0.1650(10) 0.5806(7) 0.9543(5) 0.0339 Uani
C127 C 0.0995(8) 0.2957(7) 0.9379(5) 0.0320 Uiso
H81 H 0.1458 0.3298 0.9321 0.0380 Uiso
C136 C 0.1529(9) 0.5490(8) 0.9069(7) 0.0392 Uani
H85 H 0.1840 0.5685 0.8721 0.0470 Uiso
C138 C 0.0955(9) 0.4896(9) 0.9109(6) 0.0418 Uani
H86 H 0.0870 0.4702 0.8785 0.0500 Uiso
C142 C 0.2457(11) 0.8135(8) 0.1193(7) 0.0653 Uani
H89 H 0.2801 0.8568 0.1042 0.0780 Uiso
C147 C 0.0853(11) 0.0246(10) 0.8875(7) 0.0500 Uiso
H94 H 0.0656 0.0435 0.8562 0.0600 Uiso
N16 N 0.0059(8) 0.8570(7) 0.4301(4) 0.0582 Uani
C150 C 0.1413(9) 0.7551(8) 0.1938(5) 0.0468 Uani
C153 C 0.0900(11) 0.0248(10) 0.9839(7) 0.0530 Uiso
C154 C 0.1930(11) 0.8158(9) 0.1718(7) 0.0649 Uani
H100 H 0.1937 0.8594 0.1916 0.0780 Uiso
C158 C 0.0384(10) 0.7995(8) 0.3414(6) 0.0521 Uani
C163 C 0.0506(10) 0.8491(9) 0.3797(6) 0.0560 Uiso
H105 H 0.0977 0.8823 0.3682 0.0670 Uiso
C165 C 0.2037(8) 0.6873(8) 0.1148(5) 0.0509 Uani
H106 H 0.2091 0.6414 0.0968 0.0610 Uiso
C167 C 0.0911(10) 0.7985(9) 0.2897(6) 0.0580 Uiso
H110 H 0.1394 0.8304 0.2820 0.0690 Uiso
C168 C 0.0791(9) 0.7571(8) 0.2507(5) 0.0460 Uani
C169 C 0.1499(11) 0.6868(8) 0.1659(6) 0.0629 Uani
H111 H 0.1194 0.6417 0.1821 0.0750 Uiso
C171 C 0.0057(9) 0.7068(9) 0.2650(6) 0.0560 Uani
C174 C 0.0422(12) 0.9042(10) 0.4694(6) 0.0815 Uani
H120 H 0.0734 0.9497 0.4478 0.0980 Uiso
C175 C 0.0998(10) 0.8587(10) 0.4988(6) 0.0938 Uani
C178 C 0.2078(13) 0.7768(15) 0.5553(10) 0.1524 Uani
H127 H 0.2441 0.7526 0.5759 0.1810 Uiso
C179 C 0.0670(10) 0.8124(11) 0.5470(7) 0.1050 Uiso
H128 H 0.0086 0.8101 0.5612 0.1250 Uiso
C181 C 0.1868(11) 0.8622(11) 0.4775(7) 0.1382 Uani
H129 H 0.2090 0.8926 0.4445 0.1660 Uiso
C184 C 0.2407(10) 0.8201(14) 0.5055(10) 0.1490 Uiso
H132 H 0.2989 0.8211 0.4908 0.1790 Uiso
C187 C 0.1205(15) 0.7694(16) 0.5746(9) 0.1890 Uiso
H135 H 0.0980 0.7356 0.6058 0.2270 Uiso
Cd8 Cd 0.37021(4) 0.75810(4) 0.88380(3) 0.0274 Uani
H97 H 0.1646 0.9460 0.0106 0.0820 Uiso
O22 O 0.2404(6) 0.8316(6) 0.9733(4) 0.0407 Uani
O24 O 0.2762(6) 0.8530(5) 0.8818(5) 0.0439 Uani
C105 C 0.2382(8) 0.8643(7) 0.9302(5) 0.0310 Uiso
C115 C 0.1499(11) 0.9637(10) 0.8843(7) 0.0530 Uiso
H75 H 0.1752 0.9465 0.8499 0.0640 Uiso
C124 C 0.1728(9) 0.9328(8) 0.9297(6) 0.0361 Uani
C151 C 0.1449(13) 0.9655(11) 0.9795(8) 0.0687 Uani
O23 O 0.4092(6) 0.6758(5) 0.0086(3) 0.0274 Uiso
C112 C 0.5124(10) 0.5451(8) 0.0296(7) 0.0380 Uani
H74 H 0.4775 0.5636 0.0609 0.0460 Uiso
C140 C 0.5518(8) 0.0261(6) 0.0198(5) 0.0365 Uani
H87 H 0.5477 0.0501 0.0526 0.0440 Uiso
C143 C 0.5697(9) 0.4868(8) 0.0359(6) 0.0341 Uani
H90 H 0.5761 0.4688 0.0714 0.0410 Uiso
H92 H 0.7536 0.5314 0.0042 0.0580 Uiso
O27 O 0.3900(6) 0.8381(5) 0.0106(4) 0.0320 Uani
Cu7 Cu 0.83293(11) 0.25151(10) 0.97153(8) 0.0288 Uani
Ni2 Ni 0.90499(15) 0.80864(13) 0.46095(9) 0.0507 Uani
O17 O 0.4356(6) 0.6564(6) 0.9192(4) 0.0458 Uani
N10 N 0.8352(7) 0.1355(6) 0.9624(4) 0.0270 Uiso
N11 N 0.9614(7) 0.2542(6) 0.9549(4) 0.0330 Uiso
N12 N 0.8326(6) 0.3650(5) 0.9824(5) 0.0306 Uani
N13 N 0.7038(7) 0.2521(6) 0.9830(5) 0.0311 Uani
N14 N 0.4708(7) 0.7647(6) 0.8066(4) 0.0280 Uiso
C95 C 0.5010(9) 0.8316(9) 0.7771(6) 0.0360 Uiso
H69 H 0.4808 0.8788 0.7904 0.0430 Uiso
C96 C 0.4492(9) 0.6426(8) 0.9663(5) 0.0320 Uiso
C97 C 0.6546(9) 0.1885(8) 0.9805(5) 0.0290 Uiso
C98 C 0.5602(9) 0.6952(8) 0.7370(6) 0.0342 Uani
H70 H 0.5808 0.6480 0.7241 0.0410 Uiso
C101 C 0.6161(9) 0.0488(8) 0.9734(5) 0.0360 Uiso
C103 C 0.5045(9) 0.6953(7) 0.7850(6) 0.0319 Uani
H71 H 0.4870 0.6477 0.8052 0.0380 Uiso
C104 C 0.5064(9) 0.5770(7) 0.9757(6) 0.0347 Uani
C107 C 0.6546(8) 0.3138(7) 0.9877(5) 0.0250 Uiso
C109 C 0.9010(8) 0.4136(7) 0.9838(5) 0.0260 Uiso
C110 C 0.5577(8) 0.5476(7) 0.9305(6) 0.0345 Uani
H72 H 0.5549 0.5686 0.8950 0.0410 Uiso
C111 C 0.5705(9) 0.2916(8) 0.9874(5) 0.0350 Uiso
H73 H 0.5239 0.3243 0.9896 0.0420 Uiso
C114 C 0.7654(8) 0.0886(7) 0.9688(6) 0.0353 Uani
C116 C 0.6774(9) 0.3931(7) 0.9908(6) 0.0341 Uani
C117 C 0.5711(8) 0.2139(8) 0.9833(5) 0.0302 Uani
H76 H 0.5245 0.1827 0.9825 0.0370 Uiso
C118 C 0.7635(9) 0.4145(8) 0.9903(6) 0.0351 Uani
C119 C 0.6124(9) 0.4888(8) 0.9361(6) 0.0320 Uiso
H77 H 0.6466 0.4705 0.9045 0.0380 Uiso
C121 C 0.8781(10) 0.0082(9) 0.9563(6) 0.0440 Uiso
C122 C 0.6435(11) 0.7075(9) 0.6155(6) 0.0470 Uiso
H80 H 0.6002 0.6708 0.6295 0.0560 Uiso
O25 O 0.9092(6) 0.7512(6) 0.4032(3) 0.0526 Uani
C125 C 0.9830(9) 0.3918(8) 0.9670(5) 0.0330 Uiso
C128 C 0.6194(9) 0.0144(8) 0.9248(6) 0.0350 Uiso
H82 H 0.6620 0.0296 0.8937 0.0420 Uiso
C129 C 0.6181(9) 0.4547(7) 0.9894(5) 0.0280 Uiso
C130 C 0.9044(9) 0.0907(7) 0.9530(7) 0.0396 Uani
C131 C 0.6537(9) 0.7669(8) 0.6487(6) 0.0376 Uani
C132 C 0.5888(9) 0.7665(8) 0.7052(5) 0.0310 Uiso
C133 C 0.7627(9) 0.7584(8) 0.5437(6) 0.0410 Uiso
C135 C 0.5616(10) 0.8333(9) 0.7272(6) 0.0400 Uiso
H84 H 0.5833 0.8810 0.7090 0.0480 Uiso
C137 C 0.6798(9) 0.1127(8) 0.9741(7) 0.0393 Uani
C139 C 0.9886(9) 0.1175(7) 0.9448(5) 0.0323 Uani
C141 C 0.8722(8) 0.4885(7) 0.9949(5) 0.0340 Uiso
H88 H 0.9052 0.5307 0.9994 0.0400 Uiso
C144 C 0.7928(9) 0.0073(9) 0.9622(8) 0.0521 Uani
C145 C 0.7889(9) 0.4885(8) 0.9980(8) 0.0480 Uani
O26 O 0.8074(6) 0.7517(5) 0.4949(4) 0.0510 Uiso
C148 C 0.7166(11) 0.8187(8) 0.6299(6) 0.0510 Uani
H95 H 0.7246 0.8576 0.6523 0.0610 Uiso
C155 C 0.7704(10) 0.8165(9) 0.5784(6) 0.0470 Uiso
C156 C 0.9473(10) 0.7022(8) 0.3126(5) 0.0543 Uani
C157 C 0.6815(9) 0.6324(8) 0.5298(6) 0.0510 Uiso
C159 C 0.9628(10) 0.7515(8) 0.3539(6) 0.0566 Uani
N17 N 0.8957(7) 0.8727(6) 0.5174(4) 0.0494 Uani
C160 C 0.8687(13) 0.6016(11) 0.2743(8) 0.0860 Uiso
H101 H 0.8709 0.6368 0.2415 0.1290 Uiso
H102 H 0.8185 0.5693 0.2809 0.1290 Uiso
H103 H 0.9180 0.5692 0.2690 0.1290 Uiso
C161 C 0.8663(10) 0.6483(11) 0.3238(7) 0.0749 Uani
C162 C 0.8378(9) 0.8707(8) 0.5619(6) 0.0490 Uiso
H104 H 0.8405 0.9091 0.5859 0.0590 Uiso
C164 C 0.6930(11) 0.6994(8) 0.5634(6) 0.0516 Uani
C166 C 0.6098(13) 0.5752(10) 0.5601(7) 0.0882 Uani
H107 H 0.5565 0.6017 0.5653 0.1320 Uiso
H108 H 0.6203 0.5561 0.5956 0.1320 Uiso
H109 H 0.6080 0.5320 0.5381 0.1320 Uiso
C170 C 0.6597(10) 0.6654(10) 0.4746(5) 0.0638 Uani
H112 H 0.6507 0.7208 0.4753 0.0960 Uiso
H113 H 0.6090 0.6402 0.4701 0.0960 Uiso
H114 H 0.7058 0.6559 0.4441 0.0960 Uiso
H115 H 0.9979 0.6741 0.2384 0.0670 Uiso
C172 C 0.7611(12) 0.5814(9) 0.5221(8) 0.0827 Uani
H116 H 0.7544 0.5395 0.5000 0.1240 Uiso
H117 H 0.7688 0.5599 0.5578 0.1240 Uiso
H118 H 0.8099 0.6127 0.5036 0.1240 Uiso
C173 C 0.9619(12) 0.9324(11) 0.5076(7) 0.0824 Uani
H119 H 0.9760 0.9387 0.5436 0.0990 Uiso
C176 C 0.8640(11) 0.5934(10) 0.3737(7) 0.0710 Uiso
H121 H 0.9102 0.5576 0.3663 0.1060 Uiso
H122 H 0.8111 0.5648 0.3828 0.1060 Uiso
H123 H 0.8691 0.6223 0.4044 0.1060 Uiso
C177 C 0.7883(12) 0.7019(11) 0.3321(8) 0.0780 Uiso
H124 H 0.7881 0.7322 0.3630 0.1170 Uiso
H125 H 0.7374 0.6705 0.3395 0.1170 Uiso
H126 H 0.7908 0.7364 0.2990 0.1170 Uiso
H130 H 0.8423 0.9766 0.4584 0.1950 Uiso
O28 O 0.4476(6) 0.8420(5) 0.9189(4) 0.0364 Uani
C146 C 0.4945(9) 0.9683(7) 0.0172(6) 0.0384 Uani
H93 H 0.4517 0.9531 0.0481 0.0460 Uiso
C106 C 0.4416(8) 0.8639(7) 0.9663(6) 0.0312 Uani
C113 C 0.5013(9) 0.9321(7) 0.9669(6) 0.0375 Uani
H79 H 0.9134 0.9649 0.9547 0.0530 Uiso
H91 H 0.7584 0.9640 0.9620 0.0630 Uiso
C149 C 0.5610(9) 0.9578(8) 0.9211(6) 0.0360 Uiso
H96 H 0.5626 0.9372 0.8873 0.0430 Uiso
C180 C 0.9458(14) 0.0112(9) 0.4835(9) 0.1317 Uani
C182 C 0.8763(14) 0.0197(10) 0.4594(12) 0.1651 Uani
C183 C 0.9034(17) 0.1579(9) 0.4434(11) 0.1590 Uiso
H131 H 0.8857 0.2079 0.4335 0.1910 Uiso
C185 C 0.9958(13) 0.0754(13) 0.4860(9) 0.1540 Uiso
C186 C 0.9757(16) 0.1488(11) 0.4645(11) 0.2020 Uiso
C188 C 0.8574(16) 0.0929(14) 0.4368(12) 0.1880 Uiso
H136 H 0.8141 0.0983 0.4174 0.2260 Uiso
loop_
_atom_site_aniso_label
_atom_site_aniso_U_11
_atom_site_aniso_U_22
_atom_site_aniso_U_33
_atom_site_aniso_U_23
_atom_site_aniso_U_13
_atom_site_aniso_U_12
O6 0.044 0.053 0.052 -0.032 0.007 -0.016
N3 0.019 0.009 0.089 -0.014 -0.01 -0.002
O7 0.019 0.044 0.055 -0.01 -0.004 -0.009
C13 0.02 0.016 0.045 -0.002 0 -0.006
C39 0.024 0.013 0.091 -0.011 -0.001 -0.007
C49 0.03 0.019 0.091 0.001 -0.011 -0.009
C53 0.041 0.036 0.066 -0.012 0.001 -0.015
Cd4 0.0159 0.0189 0.0413 -0.0065 0.0026 -0.0029
Cu6 0.0143 0.0123 0.057 -0.009 -0.0052 -0.0004
Cu2 0.0159 0.0164 0.0555 -0.0074 -0.0067 -0.0007
O1 0.023 0.021 0.082 -0.012 -0.006 0.007
O4 0.04 0.018 0.063 0 -0.022 0.008
N4 0.032 0.014 0.047 -0.01 -0.012 0.01
N5 0.019 0.014 0.065 -0.01 -0.005 -0.004
C2 0.007 0.017 0.082 -0.012 0.003 -0.004
C5 0.019 0.015 0.083 -0.004 -0.009 0
C10 0.024 0.048 0.033 0.003 0.011 0.004
C11 0.021 0.019 0.061 -0.007 -0.002 -0.005
C12 0.019 0.028 0.061 -0.004 0.008 -0.015
C14 0.016 0.039 0.035 0.008 0.006 0.007
C15 0.026 0.016 0.066 -0.016 -0.01 0.005
C17 0.022 0.028 0.042 -0.013 0.002 0.007
C20 0.024 0.04 0.05 -0.016 0 0.011
C21 0.034 0.031 0.103 -0.009 -0.01 -0.001
C24 0.022 0.023 0.059 -0.012 0.015 -0.002
C28 0.03 0.017 0.05 -0.01 0.024 -0.014
C38 0.023 0.022 0.104 -0.019 0.01 -0.007
C44 0.023 0.04 0.028 -0.001 0.012 -0.005
O12 0.018 0.035 0.068 -0.017 -0.006 0.002
O13 0.026 0.018 0.071 -0.009 -0.007 -0.011
O16 0.02 0.029 0.058 -0.002 0.002 -0.006
N9 0.032 0.019 0.05 -0.01 0.01 -0.008
C29 0.026 0.024 0.057 -0.016 -0.009 0.004
C30 0.017 0.027 0.087 -0.014 -0.004 -0.009
C36 0.023 0.02 0.048 -0.003 0.003 0.007
C46 0.013 0.018 0.066 0.009 -0.005 0.003
C54 0.082 0.047 0.056 -0.003 -0.023 0.027
O9 0.047 0.078 0.072 -0.026 0.013 -0.034
C63 0.083 0.078 0.041 -0.034 0.007 -0.024
C66 0.053 0.042 0.053 -0.009 -0.002 0
C67 0.036 0.055 0.04 -0.013 -0.001 0.013
C68 0.015 0.05 0.04 -0.005 0.016 -0.003
C70 0.06 0.022 0.054 -0.016 -0.003 -0.011
C74 0.037 0.076 0.084 -0.027 0.031 -0.035
C75 0.04 0.069 0.034 -0.005 0.013 -0.009
C77 0.058 0.05 0.022 -0.013 0.011 -0.005
C80 0.042 0.044 0.049 -0.009 -0.002 -0.008
C83 0.048 0.3 0.052 -0.057 0.01 -0.058
C94 0.15 0.14 0.113 -0.059 0.013 -0.087
C7 0.019 0.013 0.071 -0.01 -0.004 0.002
C47 0.032 0.025 0.085 -0.028 -0.039 0.021
C51 0.025 0.033 0.065 -0.016 0.002 -0.007
Ni1 0.0405 0.0608 0.0432 -0.015 0.0174 -0.0198
N7 0.033 0.056 0.04 -0.015 0.017 -0.021
C35 0.07 0.046 0.035 -0.013 0.001 0.006
C37 0.01 0.033 0.053 0.001 0.008 -0.004
C48 0.034 0.048 0.048 -0.009 0.016 -0.017
C52 0.033 0.059 0.036 -0.011 0.016 -0.017
C55 0.051 0.039 0.067 -0.02 -0.009 0
N8 0.038 0.061 0.054 -0.01 0.01 -0.017
C56 0.04 0.025 0.051 -0.015 -0.004 0.008
C59 0.037 0.047 0.065 -0.009 0.003 -0.017
C60 0.035 0.051 0.043 0.001 0.022 0.003
C61 0.043 0.071 0.035 -0.013 0.023 -0.036
C69 0.043 0.07 0.037 -0.009 0.016 -0.02
C71 0.094 0.057 0.066 -0.019 -0.001 -0.019
C72 0.067 0.044 0.062 -0.023 -0.016 -0.006
C73 0.042 0.076 0.054 -0.008 0.004 -0.008
C76 0.045 0.074 0.041 -0.013 0.028 -0.02
C78 0.069 0.082 0.058 -0.02 -0.005 -0.035
C79 0.05 0.054 0.113 -0.021 0.022 -0.026
C81 0.052 0.106 0.098 -0.029 -0.003 -0.002
C84 0.034 0.17 0.14 -0.007 -0.011 -0.005
C85 0.14 0.087 0.092 -0.034 0.01 -0.041
C87 0.118 0.066 0.073 -0.035 -0.005 -0.01
C88 0.101 0.15 0.092 -0.034 -0.018 -0.015
C89 0.042 0.099 0.142 0.011 0.001 -0.05
C90 0.059 0.109 0.24 0.052 -0.045 -0.035
C91 0.19 0.18 0.106 -0.068 -0.03 -0.08
C92 0.12 0.28 0.105 -0.09 -0.047 -0.02
C134 0.058 0.035 0.052 -0.026 -0.004 -0.009
C152 0.046 0.022 0.039 0 -0.003 0.006
Cu12 0.0206 0.0225 0.0335 -0.0088 0.0084 -0.0039
O20 0.035 0.03 0.057 -0.006 -0.001 -0.014
C108 0.01 0.016 0.08 -0.012 -0.005 -0.002
C123 0.022 0.016 0.073 -0.018 -0.013 0
C126 0.052 0.018 0.024 0 0.008 -0.005
C136 0.031 0.026 0.061 -0.01 -0.008 -0.008
C138 0.027 0.048 0.048 -0.011 0 -0.023
C142 0.071 0.033 0.075 -0.03 0.031 -0.033
N16 0.061 0.066 0.032 -0.015 0.028 -0.017
C150 0.05 0.039 0.042 -0.013 0.014 -0.011
C154 0.07 0.048 0.068 -0.034 0.016 -0.029
C158 0.058 0.05 0.046 -0.022 0.001 -0.01
C165 0.045 0.045 0.048 -0.012 0.025 -0.018
C168 0.05 0.044 0.038 -0.014 0.008 -0.017
C169 0.103 0.032 0.054 -0.006 -0.017 -0.011
C171 0.052 0.059 0.052 -0.023 0.007 -0.016
C174 0.097 0.075 0.05 -0.036 0.046 -0.051
C175 0.075 0.132 0.062 -0.024 0.019 -0.034
C178 0.15 0.21 0.13 -0.02 -0.1 0.01
C181 0.13 0.15 0.14 -0.066 -0.02 -0.01
Cd8 0.018 0.0173 0.0444 -0.0062 0.0001 -0.0002
O22 0.028 0.033 0.059 -0.008 -0.004 0.013
O24 0.022 0.026 0.075 0.006 0.004 0.009
C124 0.02 0.022 0.059 0.002 0.005 -0.011
C151 0.082 0.063 0.079 -0.042 -0.044 0.05
C112 0.037 0.019 0.06 -0.012 -0.012 0.01
C140 0.035 0.018 0.054 -0.021 0.003 -0.011
C143 0.027 0.034 0.039 -0.004 -0.002 0.004
O27 0.031 0.017 0.045 -0.005 -0.001 -0.005
Cu7 0.0189 0.0164 0.0491 -0.0069 -0.0014 -0.003
Ni2 0.0508 0.0452 0.0418 -0.0136 0.0249 -0.0142
O17 0.037 0.042 0.051 -0.015 0.01 0.027
N12 0.008 0.009 0.072 -0.01 0 0
N13 0.016 0.014 0.063 -0.01 -0.005 -0.005
C98 0.026 0.024 0.044 -0.008 0.013 -0.004
C103 0.028 0.02 0.042 -0.003 0.005 -0.007
C104 0.032 0.017 0.053 -0.012 -0.001 -0.008
C110 0.018 0.023 0.051 0.005 0.014 -0.007
C114 0.025 0.011 0.066 -0.007 0 -0.007
C116 0.03 0.012 0.063 -0.001 -0.017 0
C117 0.016 0.031 0.043 -0.013 -0.001 -0.015
C118 0.029 0.019 0.055 -0.006 -0.003 -0.002
O25 0.038 0.077 0.028 -0.005 0.025 -0.007
C130 0.027 0.015 0.083 -0.014 -0.022 0.01
C131 0.036 0.026 0.05 -0.016 -0.003 0.008
C137 0.023 0.032 0.062 -0.015 -0.003 -0.005
C139 0.035 0.025 0.034 -0.005 -0.001 0.012
C144 0.022 0.027 0.108 -0.013 -0.013 0.006
C145 0.027 0.01 0.113 -0.014 -0.025 0.005
C148 0.08 0.02 0.04 -0.014 0.02 -0.017
C156 0.068 0.054 0.032 -0.012 0.012 -0.023
C159 0.065 0.035 0.055 -0.011 0.022 -0.014
N17 0.056 0.036 0.044 -0.012 0.019 -0.012
C161 0.051 0.104 0.062 -0.043 0.019 -0.038
C164 0.075 0.039 0.036 -0.018 0.004 0.007
C166 0.109 0.071 0.06 -0.033 0.046 -0.031
C170 0.063 0.085 0.033 -0.016 0.017 -0.025
C172 0.092 0.043 0.1 -0.025 0.015 -0.008
C173 0.094 0.079 0.073 -0.044 -0.001 -0.008
O28 0.027 0.025 0.055 -0.006 -0.003 -0.005
C146 0.035 0.027 0.045 -0.006 0.01 -0.008
C106 0.019 0.021 0.056 -0.021 -0.007 0.006
C113 0.027 0.013 0.075 -0.007 -0.015 -0.003
C180 0.12 0.092 0.15 -0.037 0.054 -0.057
C182 0.13 0.038 0.29 -0.004 0.03 0.002
loop_
_geom_bond_atom_site_label_1
_geom_bond_atom_site_label_2
_geom_bond_site_symmetry_1
_geom_bond_site_symmetry_2
O6 C23 1_555 1_555
O7 C23 1_555 1_555
C1 N3 1_555 1_555
C13 C1 1_555 1_555
C23 C50 1_555 1_555
C32 C13 1_555 1_555
C42 H19 1_555 1_555
C45 C32 1_555 1_555
H21 C45 1_555 1_555
C49 C1 1_555 1_555
H24 C49 1_555 1_555
C50 C42 1_555 1_555
C53 C50 1_555 1_555
H26 C53 1_555 1_555
C57 C32 1_555 1_555
H29 C57 1_555 1_555
Cd4 O6 1_555 1_555
Cu6 O7 1_555 1_555
C39 C49 1_555 1_555
C42 C45 1_555 1_555
C53 C57 1_555 1_555
Cd4 O4 1_555 1_555
Cu6 O1 1_555 1_555
O1 C2 1_555 1_555
N2 Cu2 1_555 1_555
O4 C2 1_555 1_555
N4 Cu2 1_555 1_555
N5 Cd4 1_555 1_555
C2 C14 1_555 1_555
C4 N5 1_555 1_555
H1 C4 1_555 1_555
C5 C17 1_555 1_555
C10 H2 1_555 1_555
C11 N4 1_555 1_555
C12 N4 1_555 1_555
C14 C10 1_555 1_555
C15 N2 1_555 1_555
C17 C11 1_555 1_555
C20 H5 1_555 1_555
C21 C12 1_555 1_555
H6 C21 1_555 1_555
C24 C5 1_555 1_555
H8 C24 1_555 1_555
C25 N5 1_555 1_555
H9 C25 1_555 1_555
C27 C11 1_555 1_555
H10 C27 1_555 1_555
C28 C4 1_555 1_555
H11 C28 1_555 1_555
C31 C14 1_555 1_555
H12 C31 1_555 1_555
C38 C15 1_555 1_555
H16 C38 1_555 1_555
C44 C5 1_555 1_555
H20 C44 1_555 1_555
O11 Cd4 1_555 1_555
O12 Cu6 1_555 1_555
O13 Cu6 1_555 1_555
O16 Cd4 1_555 1_555
N9 Cu6 1_555 1_555
C10 C44 1_555 1_555
C15 C17 1_555 1_555
C20 C25 1_555 1_555
C21 C27 1_555 1_555
C22 C38 1_555 1_555
C24 C31 1_555 1_555
O12 C26 1_555 1_555
O16 C26 1_555 1_555
C19 C30 1_555 1_555
C26 C29 1_555 1_555
C29 C36 1_555 1_555
C30 C6 1_555 1_555
C36 H15 1_555 1_555
C46 C19 1_555 1_555
H22 C46 1_555 1_555
C54 C29 1_555 1_555
H27 C54 1_555 1_555
C62 C19 1_555 1_555
H32 C62 1_555 1_555
C36 C46 1_555 1_555
C54 C62 1_555 1_555
N9 C68 1_555 1_555
O9 C58 1_555 1_555
C58 C63 1_555 1_555
C63 C64 1_555 1_555
C64 H33 1_555 1_555
C65 C64 1_555 1_555
C66 C65 1_555 1_555
H34 C66 1_555 1_555
C67 H35 1_555 1_555
C68 C67 1_555 1_555
H36 C68 1_555 1_555
C70 C65 1_555 1_555
C74 H42 1_555 1_555
H43 C74 1_555 1_555
H44 C74 1_555 1_555
C75 C70 1_555 1_555
H45 C75 1_555 1_555
C80 N9 1_555 1_555
H49 C80 1_555 1_555
C82 C63 1_555 1_555
C83 C82 1_555 1_555
H51 C83 1_555 1_555
H52 C83 1_555 1_555
H53 C83 1_555 1_555
C86 C82 1_555 1_555
H56 C86 1_555 1_555
H57 C86 1_555 1_555
H58 C86 1_555 1_555
C94 C82 1_555 1_555
H66 C94 1_555 1_555
H67 C94 1_555 1_555
H68 C94 1_555 1_555
C58 C77 1_555 1_555
C66 C77 1_555 1_555
C67 C70 1_555 1_555
C75 C80 1_555 1_555
N1 C3 1_555 1_555
O11 C43 1_555 1_555
O13 C43 1_555 1_555
C3 C40 1_555 1_555
C7 C18 1_555 1_555
C9 N1 1_555 1_555
C16 H3 1_555 1_555
C18 C16 1_555 1_555
H4 C18 1_555 1_555
C33 H13 1_555 1_555
C34 C9 1_555 1_555
H14 C34 1_555 1_555
C40 C7 1_555 1_555
C41 C3 1_555 1_555
H18 C41 1_555 1_555
C43 C47 1_555 1_555
C47 C16 1_555 1_555
C51 C7 1_555 1_555
H25 C51 1_555 1_555
C8 C40 1_555 1_555
C33 C47 1_555 1_555
C33 C51 1_555 1_555
C34 C41 1_555 1_555
N7 Ni1 1_555 1_555
C35 C37 1_555 1_555
C48 H23 1_555 1_555
O10 Ni1 1_555 1_555
C52 C56 1_555 1_555
C55 C59 1_555 1_555
N8 Ni1 1_555 1_555
C56 C35 1_555 1_555
H28 C56 1_555 1_555
C59 N7 1_555 1_555
H30 C59 1_555 1_555
C60 C35 1_555 1_555
H31 C60 1_555 1_555
C61 O10 1_555 1_555
C69 N8 1_555 1_555
H37 C69 1_555 1_555
C71 H38 1_555 1_555
H40 C71 1_555 1_555
C72 N7 1_555 1_555
H41 C72 1_555 1_555
C73 C72 1_555 1_555
C76 C52 1_555 1_555
C78 C69 1_555 1_555
C79 C76 1_555 1_555
H46 C79 1_555 1_555
H48 C79 1_555 1_555
C81 C73 1_555 1_555
H50 C81 1_555 1_555
C84 C81 1_555 1_555
H54 C84 1_555 1_555
C85 H55 1_555 1_555
C87 C78 1_555 1_555
H59 C87 1_555 1_555
C88 C78 1_555 1_555
H60 C88 1_555 1_555
C89 C73 1_555 1_555
H61 C89 1_555 1_555
C90 C84 1_555 1_555
H62 C90 1_555 1_555
C91 C85 1_555 1_555
H63 C91 1_555 1_555
C92 C88 1_555 1_555
H64 C92 1_555 1_555
C93 C89 1_555 1_555
H65 C93 1_555 1_555
C48 N8 1_555 1_555
C52 C61 1_555 1_555
C55 C60 1_555 1_555
C55 C61 1_555 1_555
C69 C72 1_555 1_555
C71 C76 1_555 1_555
C85 C87 1_555 1_555
C90 C93 1_555 1_555
C91 C92 1_555 1_555
C134 H83 1_555 1_555
H98 C152 1_555 1_555
C134 C152 1_555 1_555
O20 C123 1_555 1_555
O21 C123 1_555 1_555
N15 C142 1_555 1_555
C120 C108 1_555 1_555
H78 C120 1_555 1_555
C123 C126 1_555 1_555
C127 C99 1_555 1_555
H81 C127 1_555 1_555
C136 C126 1_555 1_555
H85 C136 1_555 1_555
C138 C102 1_555 1_555
H86 C138 1_555 1_555
C142 H89 1_555 1_555
C147 C100 1_555 1_555
H94 C147 1_555 1_555
C150 C154 1_555 1_555
C153 C100 1_555 1_555
C154 C142 1_555 1_555
H100 C154 1_555 1_555
C163 N16 1_555 1_555
H105 C163 1_555 1_555
C165 N15 1_555 1_555
H106 C165 1_555 1_555
C167 C158 1_555 1_555
H110 C167 1_555 1_555
C168 C150 1_555 1_555
C169 C150 1_555 1_555
H111 C169 1_555 1_555
C174 N16 1_555 1_555
H120 C174 1_555 1_555
C175 C174 1_555 1_555
C178 H127 1_555 1_555
C179 C175 1_555 1_555
H128 C179 1_555 1_555
C181 C175 1_555 1_555
H129 C181 1_555 1_555
C184 C178 1_555 1_555
H132 C184 1_555 1_555
C187 C178 1_555 1_555
H135 C187 1_555 1_555
Cd8 O20 1_555 1_555
Cu12 N15 1_555 1_555
C120 C127 1_555 1_555
C136 C138 1_555 1_555
C158 C163 1_555 1_555
C165 C169 1_555 1_555
C167 C168 1_555 1_555
C168 C171 1_555 1_555
C179 C187 1_555 1_555
C181 C184 1_555 1_555
O22 C105 1_555 1_555
O24 C105 1_555 1_555
C105 C124 1_555 1_555
C115 H75 1_555 1_555
C124 C115 1_555 1_555
C151 C124 1_555 1_555
Cd8 O24 1_555 1_555
Cu12 O23 1_555 1_555
H74 C112 1_555 1_555
H87 C140 1_555 1_555
C143 C112 1_555 1_555
H90 C143 1_555 1_555
O27 Cu12 1_555 1_555
Cd8 O17 1_555 1_555
Cu7 N10 1_555 1_555
Ni2 O25 1_555 1_555
O17 C96 1_555 1_555
N10 C114 1_555 1_555
N11 Cu7 1_555 1_555
N12 Cu7 1_555 1_555
N13 Cu7 1_555 1_555
N14 Cd8 1_555 1_555
C95 N14 1_555 1_555
H69 C95 1_555 1_555
C96 C104 1_555 1_555
C97 N13 1_555 1_555
C98 H70 1_555 1_555
C101 C128 1_555 1_555
C103 N14 1_555 1_555
H71 C103 1_555 1_555
C104 C110 1_555 1_555
C107 N13 1_555 1_555
C109 N12 1_555 1_555
C110 H72 1_555 1_555
C111 C107 1_555 1_555
H73 C111 1_555 1_555
C114 C137 1_555 1_555
C116 C107 1_555 1_555
C117 C97 1_555 1_555
H76 C117 1_555 1_555
C118 N12 1_555 1_555
C119 C110 1_555 1_555
H77 C119 1_555 1_555
C122 H80 1_555 1_555
O25 C159 1_555 1_555
C128 H82 1_555 1_555
C129 C116 1_555 1_555
C130 N10 1_555 1_555
C131 C122 1_555 1_555
C132 C98 1_555 1_555
C133 O26 1_555 1_555
C135 C95 1_555 1_555
H84 C135 1_555 1_555
C137 C97 1_555 1_555
C141 C109 1_555 1_555
H88 C141 1_555 1_555
C144 C114 1_555 1_555
C145 C118 1_555 1_555
O26 Ni2 1_555 1_555
C148 C131 1_555 1_555
H95 C148 1_555 1_555
C155 C133 1_555 1_555
C156 C159 1_555 1_555
C157 C164 1_555 1_555
N17 Ni2 1_555 1_555
C160 H101 1_555 1_555
H102 C160 1_555 1_555
H103 C160 1_555 1_555
C161 C156 1_555 1_555
C162 C155 1_555 1_555
H104 C162 1_555 1_555
C164 C122 1_555 1_555
C166 C157 1_555 1_555
H107 C166 1_555 1_555
H108 C166 1_555 1_555
H109 C166 1_555 1_555
C170 C157 1_555 1_555
H112 C170 1_555 1_555
H113 C170 1_555 1_555
H114 C170 1_555 1_555
C172 C157 1_555 1_555
H116 C172 1_555 1_555
H117 C172 1_555 1_555
H118 C172 1_555 1_555
C173 N17 1_555 1_555
H119 C173 1_555 1_555
C176 C161 1_555 1_555
H121 C176 1_555 1_555
H122 C176 1_555 1_555
H123 C176 1_555 1_555
C177 C161 1_555 1_555
H124 C177 1_555 1_555
H125 C177 1_555 1_555
H126 C177 1_555 1_555
O28 Cd8 1_555 1_555
C98 C103 1_555 1_555
C101 C137 1_555 1_555
C109 C125 1_555 1_555
C111 C117 1_555 1_555
C116 C118 1_555 1_555
C119 C129 1_555 1_555
C121 C130 1_555 1_555
C121 C144 1_555 1_555
C130 C139 1_555 1_555
C131 C132 1_555 1_555
C132 C135 1_555 1_555
C133 C164 1_555 1_555
C141 C145 1_555 1_555
C148 C155 1_555 1_555
N17 C162 1_555 1_555
C160 C161 1_555 1_555
H93 C146 1_555 1_555
O28 C106 1_555 1_555
C106 C113 1_555 1_555
C149 C113 1_555 1_555
H96 C149 1_555 1_555
C182 C180 1_555 1_555
C183 H131 1_555 1_555
C185 C180 1_555 1_555
C186 C183 1_555 1_555
C188 C182 1_555 1_555
H136 C188 1_555 1_555
C183 C188 1_555 1_555
C185 C186 1_555 1_555

#END
