
###############################################################################
#
# This file contains modified crystal structure data generated from the
# MOF subset of the Cambridge Structural Database (CSD) v543 
# hosted by the Cambridge Crystallographic Data Centre (CCDC).
#
# This work is licensed under the Creative Commons
# Attribution-NonCommercial-ShareAlike 4.0 International License.
# To view a copy of this license, visit
# http://creativecommons.org/licenses/by-nc-sa/4.0/
# or send a letter to
# Creative Commons, PO Box 1866, Mountain View, CA 94042, USA.
#
# CIF created using the CSD Python API on 29 September 2022
# The structure has been converted into the P1 space group
# The structure has a 3D framework
# The original CSD entry MEQWUD is in the triclinic crystal system
# The original CSD entry MEQWUD is in a Sohncke space group
# The framework has been calculated to contain at least 10.0% void space
# The void calculation uses a probe of radius 1.32A, grid spacing 0.4
#
###############################################################################

data_MEQWUD
_chemical_formula_moiety         '(C188 H140 Cd2 N16 Ni2 O22 Zn4)n'
_symmetry_cell_setting           triclinic
_symmetry_space_group_name_H-M   'P 1'
_symmetry_Int_Tables_number      1
_space_group_name_Hall           'P 1'
loop_
_symmetry_equiv_pos_site_id
_symmetry_equiv_pos_as_xyz
1 x,y,z
_cell_length_a                   16.2771(3)
_cell_length_b                   17.1165(4)
_cell_length_c                   24.7962(5)
_cell_angle_alpha                84.0183(17)
_cell_angle_beta                 76.8262(17)
_cell_angle_gamma                89.3342(16)
_cell_volume                     6689.44
loop_
_atom_site_label
_atom_site_type_symbol
_atom_site_fract_x
_atom_site_fract_y
_atom_site_fract_z
_atom_site_U_iso_or_equiv
_atom_site_thermal_displace_type
O1 O 0.3005(3) 0.0835(4) 0.6396(2) 0.0340 Uani
O5 O 0.3186(3) 0.0961(4) 0.5473(2) 0.0387 Uani
C7 C 0.2225(6) 0.0005(6) 0.5998(4) 0.0439 Uani
C9 C 0.2866(6) 0.0669(5) 0.5950(4) 0.0408 Uani
Cd5 Cd 0.42628(2) 0.18095(2) 0.53352(2) 0.0343 Uani
Zn5 Zn 0.37032(6) 0.17268(6) 0.66005(4) 0.0329 Uani
O4 O 0.3027(4) 0.2541(4) 0.6168(3) 0.0441 Uani
O7 O 0.3370(4) 0.2772(4) 0.5236(3) 0.0445 Uani
N2 N 0.0214(4) 0.6745(4) 0.6057(3) 0.0366 Uani
C1 C 0.2993(6) 0.2885(6) 0.5733(4) 0.0435 Uani
C5 C 0.2033(7) 0.3848(7) 0.5319(5) 0.0686 Uani
H2 H 0.223256 0.364951 0.497858 0.0820 Uiso
C6 C 0.2345(5) 0.3536(5) 0.5769(3) 0.0344 Uani
C11 C 0.0722(6) 0.6110(6) 0.5959(4) 0.0453 Uani
C13 C 0.1584(6) 0.6392(6) 0.5842(4) 0.0477 Uani
H6 H 0.206657 0.609493 0.574327 0.0570 Uiso
C14 C 0.0695(5) 0.7381(5) 0.6056(4) 0.0399 Uani
C15 C 0.0408(5) 0.8115(5) 0.6146(4) 0.0393 Uani
C16 C 0.1121(6) 0.4735(5) 0.5854(4) 0.0399 Uani
C18 C 0.0472(5) 0.5353(5) 0.5934(4) 0.0382 Uani
C19 C 0.1557(6) 0.7139(6) 0.5899(4) 0.0454 Uani
H7 H 0.202596 0.746697 0.584747 0.0540 Uiso
C20 C 0.1429(6) 0.4450(6) 0.5347(4) 0.0494 Uani
H8 H 0.124464 0.464995 0.503264 0.0590 Uiso
C23 C 0.1996(8) 0.3838(6) 0.6266(4) 0.0614 Uani
H10 H 0.215576 0.363026 0.658814 0.0730 Uiso
C26 C 0.1425(8) 0.4429(7) 0.6298(4) 0.0662 Uani
H12 H 0.123529 0.463228 0.663695 0.0790 Uiso
C49 C 0.1041(6) 0.8778(5) 0.6116(4) 0.0423 Uani
C50 C 0.1471(6) 0.9119(6) 0.5594(4) 0.0452 Uani
H25 H 0.135958 0.893341 0.527786 0.0540 Uiso
C53 C 0.1225(6) 0.9053(6) 0.6549(4) 0.0515 Uani
H27 H 0.095228 0.882775 0.690148 0.0620 Uiso
C56 C 0.2059(6) 0.9726(5) 0.5527(4) 0.0433 Uani
H29 H 0.233566 0.994029 0.517264 0.0520 Uiso
C59 C 0.1800(6) 0.9657(6) 0.6517(4) 0.0495 Uani
H31 H 0.190038 0.982829 0.684058 0.0600 Uiso
O6 O 0.4648(4) 0.0943(4) 0.6621(3) 0.0445 Uani
O8 O 0.4918(4) 0.0790(4) 0.5694(3) 0.0484 Uani
C3 C 0.5015(5) 0.0656(5) 0.6200(4) 0.0406 Uani
O2 O 0.5027(3) 0.2619(4) 0.5690(2) 0.0388 Uani
O3 O 0.4492(4) 0.2643(4) 0.6601(3) 0.0443 Uani
N3 N 0.3001(5) 0.1737(5) 0.7391(3) 0.0575 Uani
C4 C 0.4974(6) 0.2894(5) 0.6142(4) 0.0433 Uani
C25 C 0.3085(6) 0.2240(6) 0.7731(4) 0.0694 Uani
H11 H 0.352805 0.260231 0.761646 0.0830 Uiso
C29 C 0.2580(7) 0.2277(6) 0.8238(4) 0.0642 Uani
H14 H 0.268009 0.266056 0.845536 0.0770 Uiso
C30 C 0.1910(6) 0.1751(6) 0.8443(5) 0.0669 Uani
C31 C 0.1451(6) 0.2245(7) 0.9381(4) 0.0716 Uani
H15 H 0.192339 0.257397 0.930123 0.0860 Uiso
C33 C 0.1328(7) 0.1773(6) 0.8975(4) 0.0675 Uani
C34 C 0.0028(6) 0.1253(6) 0.9623(4) 0.0633 Uani
C40 C 0.0885(6) 0.2241(6) 0.9909(4) 0.0643 Uani
C42 C 0.0590(5) 0.1290(6) 0.9123(4) 0.0645 Uani
H20 H 0.048491 0.097825 0.886025 0.0770 Uiso
C43 C 0.5598(5) 0.3547(5) 0.6161(4) 0.0403 Uani
C44 C 0.6180(6) 0.3777(6) 0.5673(5) 0.0545 Uani
H21 H 0.618503 0.357050 0.533979 0.0650 Uiso
C45 C 0.5556(5) 0.3891(6) 0.6648(4) 0.0475 Uani
H22 H 0.513118 0.374589 0.696283 0.0570 Uiso
C46 C 0.6773(6) 0.4355(6) 0.5721(5) 0.0607 Uani
H23 H 0.720977 0.448282 0.541019 0.0730 Uiso
C47 C 0.6155(7) 0.4453(7) 0.6661(4) 0.0647 Uani
H24 H 0.616006 0.464846 0.699669 0.0780 Uiso
C48 C 0.6765(6) 0.4739(6) 0.6172(4) 0.0480 Uani
C51 C 0.6305(6) 0.6363(5) 0.6292(4) 0.0487 Uani
H26 H 0.585547 0.604745 0.626842 0.0580 Uiso
C52 C 0.7400(5) 0.5330(5) 0.6184(4) 0.0401 Uani
C54 C 0.7121(5) 0.6095(6) 0.6263(4) 0.0465 Uani
C55 C 0.8535(6) 0.4281(5) 0.6028(5) 0.0502 Uani
H28 H 0.820123 0.384413 0.602651 0.0600 Uiso
C57 C 0.6242(6) 0.7128(6) 0.6357(5) 0.0571 Uani
H30 H 0.576479 0.744030 0.639656 0.0690 Uiso
C58 C 0.8236(5) 0.5087(5) 0.6096(4) 0.0341 Uani
C60 C 0.9384(7) 0.4289(7) 0.5966(5) 0.0585 Uani
H32 H 0.974069 0.386006 0.592972 0.0700 Uiso
N6 N 0.7614(5) 0.6726(5) 0.6291(3) 0.0481 Uani
C61 C 0.7107(6) 0.7355(6) 0.6349(4) 0.0479 Uani
N7 N 0.8917(4) 0.5560(4) 0.6071(3) 0.0389 Uani
C62 C 0.9620(6) 0.5084(6) 0.5970(4) 0.0508 Uani
C63 C 0.7352(6) 0.8129(6) 0.6387(4) 0.0472 Uani
C64 C 0.6669(6) 0.9095(6) 0.5851(5) 0.0520 Uani
H33 H 0.698972 0.889862 0.553499 0.0630 Uiso
C65 C 0.6729(6) 0.8770(6) 0.6385(4) 0.0473 Uani
Zn2 Zn 0.88877(7) 0.66864(7) 0.63048(6) 0.0544 Uani
C66 C 0.6266(6) 0.9036(6) 0.6840(5) 0.0584 Uani
H34 H 0.630219 0.881103 0.719137 0.0700 Uiso
O11 O 0.8738(6) 0.6340(6) 0.7175(3) 0.0907 Uani
H35 H 0.854025 0.664559 0.745332 0.1360 Uiso
H36 H 0.886448 0.586299 0.732968 0.1360 Uiso
C67 C 0.5628(6) 0.9990(6) 0.6251(4) 0.0487 Uani
C68 C 0.5714(7) 0.9670(7) 0.6780(5) 0.0587 Uani
H37 H 0.540461 0.987664 0.709596 0.0710 Uiso
C69 C 0.8188(5) 0.8394(6) 0.6361(4) 0.0442 Uani
N8 N 0.8908(4) 0.7888(4) 0.6310(3) 0.0430 Uani
C71 C 0.8452(6) 0.9171(5) 0.6382(4) 0.0439 Uani
H38 H 0.811296 0.961135 0.642996 0.0530 Uiso
C72 C 0.9578(5) 0.8378(5) 0.6276(4) 0.0428 Uani
C73 C 0.9303(7) 0.9143(7) 0.6317(5) 0.0631 Uani
H39 H 0.965149 0.957521 0.630202 0.0760 Uiso
C76 C 0.2509(8) 0.1090(8) 0.7639(5) 0.1033 Uani
H46 H 0.257333 0.063091 0.746402 0.1240 Uiso
C77 C 0.1946(7) 0.1100(7) 0.8119(4) 0.0892 Uani
H47 H 0.157056 0.067930 0.824708 0.1070 Uiso
C82 C 0.6119(6) 0.9721(6) 0.5805(4) 0.0439 Uani
H57 H 0.609513 0.995368 0.545263 0.0530 Uiso
N9 N 0.5259(4) 0.1877(4) 0.4557(3) 0.0370 Uani
Ni1 Ni 0.95818(10) 0.23172(9) 0.10911(6) 0.0647 Uani
C2 C 0.5562(5) 0.2539(5) 0.4259(4) 0.0447 Uani
H1 H 0.537217 0.300714 0.440021 0.0540 Uiso
C8 C 0.6142(5) 0.1188(5) 0.3836(4) 0.0441 Uani
H3 H 0.636125 0.072269 0.370232 0.0530 Uiso
C10 C 0.5552(6) 0.1165(5) 0.4325(4) 0.0430 Uani
H4 H 0.533856 0.068361 0.450998 0.0520 Uiso
C12 C 0.6136(6) 0.2587(6) 0.3756(4) 0.0449 Uani
H5 H 0.633026 0.307323 0.356898 0.0540 Uiso
C17 C 0.6418(6) 0.1906(6) 0.3535(4) 0.0475 Uani
C21 C 0.7008(6) 0.1911(6) 0.2968(4) 0.0534 Uani
C22 C 0.6910(7) 0.1366(6) 0.2629(4) 0.0531 Uani
H9 H 0.646184 0.101152 0.275707 0.0630 Uiso
C24 C 0.7410(6) 0.1291(5) 0.2118(3) 0.0553 Uani
C28 C 0.7668(7) 0.2411(6) 0.2800(4) 0.0617 Uani
H13 H 0.777002 0.276245 0.303949 0.0740 Uiso
N4 N 0.9538(5) 0.2944(5) 0.1651(3) 0.0722 Uani
C32 C 0.8112(6) 0.1851(6) 0.1907(4) 0.0586 Uani
C35 C 0.8216(6) 0.2414(6) 0.2260(4) 0.0608 Uani
O9 O 0.9616(4) 0.1735(4) 0.0515(2) 0.0678 Uani
C37 C 0.7230(7) 0.0672(6) 0.1755(4) 0.0719 Uani
C38 C 0.8896(9) 0.2936(7) 0.2098(5) 0.0966 Uani
H17 H 0.890597 0.332952 0.232882 0.1160 Uiso
O10 O 0.8605(5) 0.1792(4) 0.1421(2) 0.0705 Uani
C74 C 0.7091(8) 0.1057(7) 0.1179(4) 0.0886 Uani
H40 H 0.670905 0.148761 0.123933 0.1330 Uiso
H41 H 0.685860 0.067326 0.099864 0.1330 Uiso
H42 H 0.762222 0.124702 0.094872 0.1330 Uiso
C75 C 0.6458(9) 0.0173(8) 0.2035(4) 0.1167 Uani
H45 H 0.601317 0.050429 0.220350 0.1750 Uiso
C78 C 0.9223(7) 0.0148(7) 0.0256(5) 0.0932 Uani
H50 H 0.910123 0.044239 0.057371 0.1400 Uiso
H51 H 0.846431 0.154190 0.008085 0.1780 Uiso
C81 C 0.9931(10) 0.4330(7) 0.1291(6) 0.1143 Uani
C83 C 0.7977(8) 0.0101(6) 0.1645(5) 0.1068 Uani
H58 H 0.848584 0.039196 0.147267 0.1600 Uiso
C90 C 0.9256(9) 0.4365(8) 0.1039(6) 0.1360 Uani
H66 H 0.897768 0.390477 0.101086 0.1640 Uiso
C91 C 0.9415(13) 0.5756(8) 0.0852(8) 0.1585 Uani
H67 H 0.923504 0.623574 0.071062 0.1910 Uiso
C92 C 0.8992(11) 0.5075(11) 0.0827(7) 0.2139 Uani
H68 H 0.852673 0.509458 0.066702 0.2590 Uiso
C27 C 0.0159(6) 0.1729(6) 0.0031(4) 0.0613 Uani
C36 C 0.1071(7) 0.2727(6) 0.0291(3) 0.0726 Uani
H16 H 0.157202 0.301742 0.018287 0.0880 Uiso
N5 N 0.0607(5) 0.2803(5) 0.0776(3) 0.0734 Uani
C39 C 0.0952(8) 0.3246(6) 0.1173(4) 0.0865 Uani
H18 H 0.127566 0.369174 0.094716 0.1030 Uiso
C41 C 0.0168(7) 0.3594(7) 0.1532(4) 0.0850 Uani
H19 H 0.030441 0.368345 0.188598 0.1020 Uiso
C84 C 0.1534(8) 0.2802(7) 0.1438(4) 0.0881 Uani
C85 C 0.1847(14) 0.1951(9) 0.2191(6) 0.1413 Uani
H61 H 0.166702 0.164927 0.253135 0.1710 Uiso
C86 C 0.1267(10) 0.2361(11) 0.1947(6) 0.1639 Uani
H62 H 0.069832 0.234060 0.212465 0.1970 Uiso
C87 C 0.2386(9) 0.2885(9) 0.1196(5) 0.1308 Uani
H63 H 0.256643 0.321068 0.086629 0.1570 Uiso
C88 C 0.2695(13) 0.1988(14) 0.1930(10) 0.2250 Uani
H64 H 0.308016 0.168058 0.207940 0.2720 Uiso
C89 C 0.2970(9) 0.2486(12) 0.1442(9) 0.2151 Uani
H65 H 0.354391 0.255009 0.128237 0.2580 Uiso
C93 C 0.0393(11) 0.5011(10) 0.1280(8) 0.1710 Uani
H69 H 0.089357 0.498572 0.140190 0.2050 Uiso
C94 C 0.0107(14) 0.5726(8) 0.1087(10) 0.2026 Uani
H70 H 0.038104 0.618798 0.111583 0.2430 Uiso
C70 C 0.9252(7) 0.0693(7) 0.9737(5) 0.0959 Uani
C79 C 0.8461(7) 0.1187(10) 0.9806(5) 0.1186 Uani
H52 H 0.797191 0.085055 0.992296 0.1780 Uiso
H53 H 0.844803 0.148250 0.945674 0.1780 Uiso
C80 C 0.9208(9) 0.0205(9) 0.9255(5) 0.1311 Uani
H54 H 0.925634 0.054845 0.891771 0.1970 Uiso
H43 H 0.659480 0.979808 0.231534 0.1750 Uiso
H44 H 0.627524 0.990154 0.176192 0.1750 Uiso
H48 H 0.975830 0.989724 0.023298 0.1400 Uiso
H49 H 0.878989 0.975674 0.029428 0.1400 Uiso
H59 H 0.787247 0.973053 0.140160 0.1600 Uiso
H60 H 0.803592 0.982447 0.199071 0.1600 Uiso
H55 H 0.867813 0.992558 0.933924 0.1970 Uiso
H56 H 0.966127 0.983625 0.920916 0.1970 Uiso
C177 C 0.1751(7) 0.0208(6) 0.0301(4) 0.0923 Uani
H123 H 0.137308 0.035428 0.007909 0.1110 Uiso
C180 C 0.1834(8) 0.0654(6) 0.0719(5) 0.1264 Uani
H130 H 0.150931 0.110139 0.077813 0.1520 Uiso
C186 C 0.2394(11) 0.0442(9) 0.1049(5) 0.1704 Uani
H136 H 0.245959 0.075425 0.132167 0.2020 Uiso
C183 C 0.4992(6) 0.0245(8) 0.8610(8) 0.1827 Uani
H133 H 0.554257 0.040713 0.844333 0.2170 Uiso
C185 C 0.3522(6) 0.0534(5) 0.8862(5) 0.1154 Uani
H135 H 0.308884 0.089751 0.889251 0.1380 Uiso
C187 C 0.4350(7) 0.0789(7) 0.8675(8) 0.1934 Uani
H137 H 0.447498 0.132313 0.859382 0.2310 Uiso
C127 C 0.0790(5) 0.8501(6) 0.0298(3) 0.0618 Uani
H94 H 0.096153 0.863329 0.061010 0.0740 Uiso
C128 C 0.2232(6) 0.9541(6) 0.0213(3) 0.0738 Uani
C168 C 0.0017(6) 0.8151(6) 0.0390(4) 0.0625 Uani
C181 C 0.2789(7) 0.9324(8) 0.0555(4) 0.1335 Uani
H131 H 0.311601 0.887725 0.049864 0.1610 Uiso
C184 C 0.2856(9) 0.9766(11) 0.0974(5) 0.1652 Uani
H134 H 0.321380 0.960958 0.120773 0.1990 Uiso
C126 C 0.1101(7) 0.6163(7) 0.7362(4) 0.0870 Uani
H91 H 0.069553 0.574162 0.748707 0.1300 Uiso
H92 H 0.165959 0.595144 0.728919 0.1300 Uiso
H93 H 0.100162 0.644302 0.702762 0.1300 Uiso
C132 C 0.4433(6) 0.7439(6) 0.5704(3) 0.0429 Uani
H97 H 0.463572 0.699088 0.553847 0.0510 Uiso
C133 C 0.3818(5) 0.7377(6) 0.6197(4) 0.0430 Uani
H98 H 0.359864 0.688316 0.634937 0.0510 Uiso
C135 C 0.1015(6) 0.6720(7) 0.7811(4) 0.0724 Uani
C137 C 0.0172(6) 0.7064(8) 0.7892(4) 0.0935 Uani
H99 H 0.008466 0.729751 0.754100 0.1400 Uiso
H100 H 0.012664 0.745881 0.814504 0.1400 Uiso
C138 C 0.2280(6) 0.7396(6) 0.7173(4) 0.0491 Uani
H102 H 0.226541 0.702431 0.692654 0.0590 Uiso
N13 N 0.4743(4) 0.8178(4) 0.5459(3) 0.0337 Uani
C146 C 0.1706(6) 0.7334(7) 0.7655(4) 0.0673 Uani
C147 C 0.3516(5) 0.8036(6) 0.6474(4) 0.0432 Uani
C148 C 0.2920(6) 0.8001(7) 0.7010(4) 0.0524 Uani
C154 C 0.4427(5) 0.8793(5) 0.5667(4) 0.0354 Uani
H109 H 0.456859 0.928071 0.546575 0.0430 Uiso
C155 C 0.3867(6) 0.8755(6) 0.6196(4) 0.0510 Uani
H110 H 0.372813 0.921502 0.636345 0.0620 Uiso
C157 C 0.1728(6) 0.7891(7) 0.8039(4) 0.0609 Uani
O25 O 0.1180(4) 0.7886(4) 0.8519(3) 0.0707 Uani
C160 C 0.2968(6) 0.8549(6) 0.7371(4) 0.0567 Uani
H113 H 0.335718 0.896168 0.727152 0.0680 Uiso
C164 C 0.2379(6) 0.8455(6) 0.7920(4) 0.0568 Uani
O28 O 0.0188(4) 0.7842(4) 0.9447(2) 0.0646 Uani
Ni2 Ni 0.12090(9) 0.83451(10) 0.91444(6) 0.0602 Uani
C166 C 0.2527(6) 0.8959(6) 0.8291(4) 0.0611 Uani
H115 H 0.293835 0.934687 0.815098 0.0740 Uiso
N16 N 0.2154(4) 0.8946(5) 0.8812(3) 0.0577 Uani
N17 N 0.1322(4) 0.8673(5) 0.9812(3) 0.0694 Uani
C170 C 0.2407(5) 0.9484(6) 0.9185(3) 0.0588 Uani
H117 H 0.205428 0.995236 0.918781 0.0700 Uiso
C171 C 0.2190(5) 0.9034(7) 0.9759(4) 0.0681 Uani
H118 H 0.259468 0.860766 0.977011 0.0820 Uiso
C174 C 0.3331(5) 0.9746(5) 0.9004(3) 0.0648 Uani
C175 C 0.1082(8) 0.6232(7) 0.8334(4) 0.0870 Uani
H119 H 0.063609 0.584571 0.843254 0.1310 Uiso
H120 H 0.103719 0.656328 0.862826 0.1310 Uiso
H121 H 0.161733 0.597392 0.827606 0.1310 Uiso
C176 C 0.3980(5) 0.9212(5) 0.8966(5) 0.0945 Uani
H122 H 0.385507 0.867946 0.905788 0.1130 Uiso
C182 C 0.4816(5) 0.9464(7) 0.8793(7) 0.1371 Uani
H132 H 0.525111 0.910881 0.879976 0.1650 Uiso
Cd10 Cd 0.57400(2) 0.81946(2) 0.46643(2) 0.0334 Uani
Zn6 Zn 0.10879(7) 0.33056(7) 0.37278(8) 0.0738 Uani
N10 N 0.2373(4) 0.3308(4) 0.3693(3) 0.0323 Uani
N11 N 0.1142(4) 0.2122(4) 0.3696(3) 0.0384 Uani
N12 N 0.1027(4) 0.4434(4) 0.3936(3) 0.0387 Uani
C96 C 0.1821(5) 0.1677(4) 0.3634(4) 0.0347 Uani
C97 C 0.1692(5) 0.4933(6) 0.3874(4) 0.0443 Uani
C98 C 0.2853(5) 0.3957(5) 0.3719(3) 0.0337 Uani
C99 C 0.2898(5) 0.2665(5) 0.3640(4) 0.0390 Uani
C100 C 0.0324(5) 0.4881(5) 0.4029(4) 0.0374 Uani
C101 C 0.4421(5) 0.0045(5) 0.3722(4) 0.0348 Uani
C102 C 0.4366(5) 0.6501(5) 0.3830(4) 0.0392 Uani
C104 C 0.3189(5) 0.5344(5) 0.3804(4) 0.0386 Uani
C105 C 0.3228(5) 0.5606(5) 0.4315(3) 0.0359 Uani
H72 H 0.287386 0.539396 0.464563 0.0430 Uiso
C106 C 0.3380(6) 0.0954(6) 0.4146(4) 0.0440 Uani
H73 H 0.306351 0.113989 0.446814 0.0530 Uiso
C107 C 0.0446(6) 0.1632(5) 0.3757(5) 0.0485 Uani
C108 C 0.2566(5) 0.4695(6) 0.3791(4) 0.0417 Uani
C110 C 0.3288(5) 0.1277(4) 0.3652(3) 0.0299 Uani
C111 C 0.4359(6) 0.0400(5) 0.3207(4) 0.0420 Uani
H75 H 0.470076 0.023726 0.288546 0.0510 Uiso
C112 C 0.3800(5) 0.6179(5) 0.4312(4) 0.0384 Uani
H76 H 0.381511 0.636785 0.464831 0.0460 Uiso
C113 C 0.2631(5) 0.1895(5) 0.3629(4) 0.0338 Uani
C114 C 0.3935(5) 0.0352(5) 0.4191(4) 0.0417 Uani
H77 H 0.398755 0.014352 0.454326 0.0500 Uiso
C115 C 0.3750(5) 0.3695(6) 0.3676(4) 0.0429 Uani
H78 H 0.422256 0.400039 0.366702 0.0510 Uiso
C116 C 0.3707(5) 0.2900(5) 0.3654(4) 0.0402 Uani
H79 H 0.415910 0.256166 0.364978 0.0480 Uiso
C117 C 0.4311(6) 0.6216(6) 0.3350(5) 0.0554 Uani
H80 H 0.464757 0.644313 0.301655 0.0670 Uiso
C118 C 0.1571(5) 0.0839(6) 0.3653(5) 0.0608 Uani
H81 H 0.192983 0.041135 0.363102 0.0730 Uiso
C119 C 0.3787(6) 0.1002(6) 0.3170(3) 0.0449 Uani
H82 H 0.373393 0.122506 0.282119 0.0540 Uiso
C120 C 0.0579(6) 0.5677(5) 0.4060(5) 0.0508 Uani
H83 H 0.022519 0.610093 0.413761 0.0610 Uiso
C121 C 0.3776(6) 0.5603(6) 0.3335(5) 0.0616 Uani
H84 H 0.381641 0.536856 0.300860 0.0740 Uiso
C122 C 0.0743(5) 0.0814(5) 0.3707(5) 0.0485 Uani
H85 H 0.041278 0.037243 0.371170 0.0580 Uiso
C123 C 0.1417(6) 0.5688(6) 0.3959(4) 0.0499 Uani
H86 H 0.175734 0.612524 0.394625 0.0600 Uiso
O18 O 0.1138(8) 0.3672(7) 0.2831(4) 0.1206 Uani
H89 H 0.112376 0.415877 0.268232 0.1810 Uiso
H90 H 0.117448 0.335564 0.257035 0.1810 Uiso
C129 C 0.4985(5) 0.7140(6) 0.3856(4) 0.0376 Uani
O19 O 0.5464(4) 0.7415(4) 0.3406(3) 0.0466 Uani
O20 O 0.4976(4) 0.7329(4) 0.4327(3) 0.0556 Uani
C139 C 0.6748(6) 0.7991(7) 0.2203(4) 0.0578 Uani
H103 H 0.616607 0.794983 0.225122 0.0690 Uiso
C141 C 0.7240(6) 0.7887(7) 0.1684(4) 0.0627 Uani
H105 H 0.698574 0.778047 0.139899 0.0750 Uiso
Zn7 Zn 0.63084(6) 0.82718(6) 0.33957(4) 0.0318 Uani
N15 N 0.7041(5) 0.8146(5) 0.2644(3) 0.0447 Uani
C156 C 0.8366(6) 0.7602(7) 0.0601(4) 0.0666 Uani
H111 H 0.780473 0.743964 0.067310 0.0800 Uiso
C158 C 0.8101(6) 0.7939(5) 0.1588(3) 0.0470 Uani
C159 C 0.7901(4) 0.8175(5) 0.2563(3) 0.0419 Uani
H112 H 0.813170 0.826181 0.286184 0.0500 Uiso
C161 C 0.8858(5) 0.7560(6) 0.0058(4) 0.0633 Uani
C162 C 0.8434(5) 0.8082(5) 0.2066(3) 0.0519 Uani
H114 H 0.901426 0.811095 0.203101 0.0630 Uiso
C163 C 0.8655(5) 0.7868(6) 0.1038(4) 0.0539 Uani
C167 C 0.9487(6) 0.8159(5) 0.0913(4) 0.0558 Uani
H116 H 0.969014 0.836433 0.119073 0.0670 Uiso
H124 H 0.753828 0.662371 0.019721 0.2260 Uiso
O29 O 0.6610(4) 0.7215(4) 0.4776(3) 0.0490 Uani
O30 O 0.6908(4) 0.7484(4) 0.3855(3) 0.0537 Uani
O31 O 0.5414(4) 0.9090(4) 0.3347(3) 0.0499 Uani
O32 O 0.5104(4) 0.9186(4) 0.4269(3) 0.0468 Uani
O33 O 0.7040(4) 0.9113(4) 0.3589(3) 0.0443 Uani
O34 O 0.6799(4) 0.9052(4) 0.4511(3) 0.0530 Uani
C152 C 0.5023(5) 0.9423(6) 0.3794(4) 0.0444 Uani
C95 C 0.8945(5) 0.1213(5) 0.3885(4) 0.0396 Uani
C103 C 0.8235(6) 0.0287(6) 0.3474(4) 0.0461 Uani
H71 H 0.814195 0.008349 0.315933 0.0550 Uiso
C109 C 0.7967(6) 0.0237(7) 0.4429(5) 0.0637 Uani
C124 C 0.8513(7) 0.0882(6) 0.4401(5) 0.0686 Uani
H87 H 0.857929 0.107905 0.472465 0.0820 Uiso
C125 C 0.8824(6) 0.0916(6) 0.3404(4) 0.0486 Uani
H88 H 0.911744 0.112320 0.305186 0.0580 Uiso
C130 C 0.8408(5) 0.2828(5) 0.4019(5) 0.0600 Uani
H95 H 0.795245 0.250464 0.402067 0.0720 Uiso
C131 C 0.8389(6) 0.3606(5) 0.4097(5) 0.0513 Uani
H96 H 0.791092 0.391554 0.416981 0.0620 Uiso
C134 C 0.9284(6) 0.2614(6) 0.3934(5) 0.0532 Uani
C136 C 0.9599(5) 0.1844(5) 0.3832(4) 0.0398 Uani
C140 C 0.7935(6) 0.6170(7) 0.3753(6) 0.0688 Uani
H104 H 0.772735 0.638779 0.345226 0.0830 Uiso
C142 C 0.9256(5) 0.3861(5) 0.4044(4) 0.0414 Uani
C143 C 0.8548(8) 0.5547(7) 0.3687(5) 0.0677 Uani
H106 H 0.874484 0.535221 0.334581 0.0820 Uiso
C144 C 0.7666(6) 0.6431(6) 0.4266(5) 0.0477 Uani
C145 C 0.7033(6) 0.7085(5) 0.4320(4) 0.0365 Uani
N14 N 0.9820(5) 0.3251(4) 0.3924(4) 0.0498 Uani
C149 C 0.7932(5) 0.6125(5) 0.4719(3) 0.0350 Uani
H107 H 0.771352 0.630299 0.506430 0.0420 Uiso
C150 C 0.8830(6) 0.5255(6) 0.4154(4) 0.0470 Uani
C151 C 0.8528(6) 0.5547(6) 0.4665(4) 0.0456 Uani
H108 H 0.873223 0.534893 0.497276 0.0550 Uiso
C153 C 0.9524(6) 0.4643(6) 0.4075(5) 0.0492 Uani
H74 H 0.770755 0.998344 0.477483 0.0770 Uiso
C165 C 0.7173(5) 0.9343(5) 0.4013(4) 0.0360 Uani
C169 C 0.7814(5) 0.9982(5) 0.3970(4) 0.0331 Uani
H101 H 0.975406 0.666055 0.804389 0.1400 Uiso
C172 C 0.8479(7) 0.7298(11) 0.9595(5) 0.1235 Uani
C173 C 0.9720(6) 0.7856(6) 0.9956(4) 0.0598 Uani
C178 C 0.7547(8) 0.6934(12) 0.9850(5) 0.1502 Uani
H125 H 0.739634 0.660928 0.959386 0.2260 Uiso
H126 H 0.714973 0.735277 0.991239 0.2260 Uiso
C179 C 0.8503(8) 0.7946(10) 0.9129(4) 0.1182 Uani
H127 H 0.829955 0.842282 0.928259 0.1770 Uiso
H128 H 0.815288 0.780189 0.889073 0.1770 Uiso
H129 H 0.907316 0.802680 0.891619 0.1770 Uiso
C188 C 0.9024(8) 0.6522(10) 0.9406(5) 0.1399 Uani
H138 H 0.961264 0.666102 0.929048 0.2100 Uiso
H139 H 0.884004 0.632934 0.910310 0.2100 Uiso
H140 H 0.894029 0.612081 0.971537 0.2100 Uiso
loop_
_atom_site_aniso_label
_atom_site_aniso_U_11
_atom_site_aniso_U_22
_atom_site_aniso_U_33
_atom_site_aniso_U_23
_atom_site_aniso_U_13
_atom_site_aniso_U_12
O1 0.031 0.043 0.024 -0.007 0.004 -0.011
O5 0.032 0.038 0.04 -0.006 0.006 -0.009
C7 0.037 0.035 0.052 -0.006 0.007 -0.006
C9 0.05 0.024 0.038 -0.004 0.012 0.003
Cd5 0.0279 0.0287 0.0414 -0.0093 0.0051 -0.0035
Zn5 0.0278 0.0301 0.0362 -0.01 0.0052 -0.0046
O4 0.031 0.037 0.061 -0.003 -0.005 0.012
O7 0.031 0.034 0.065 -0.011 -0.001 0.003
N2 0.024 0.035 0.05 -0.016 -0.001 -0.008
C1 0.029 0.045 0.05 0.005 0.001 -0.014
C5 0.049 0.06 0.081 -0.027 0.027 -0.01
C6 0.039 0.029 0.031 -0.002 0 0
C11 0.032 0.039 0.062 -0.011 -0.002 0.001
C13 0.033 0.04 0.065 -0.013 0.003 0
C14 0.024 0.031 0.061 -0.005 -0.002 0
C15 0.036 0.03 0.049 -0.003 -0.004 -0.007
C16 0.035 0.029 0.057 -0.005 -0.013 0.002
C18 0.033 0.034 0.046 -0.012 -0.002 -0.005
C19 0.036 0.055 0.042 0.003 -0.005 -0.021
C20 0.042 0.038 0.052 0.001 0.02 0.011
C23 0.096 0.051 0.036 -0.001 -0.016 0.035
C26 0.085 0.086 0.036 -0.037 -0.02 0.051
C49 0.038 0.031 0.062 -0.017 -0.014 -0.003
C50 0.043 0.052 0.04 -0.001 -0.009 -0.012
C53 0.047 0.035 0.063 -0.004 0.007 -0.013
C56 0.062 0.037 0.034 -0.013 -0.013 -0.002
C59 0.049 0.036 0.06 -0.003 -0.006 -0.004
O6 0.038 0.047 0.047 -0.013 -0.003 -0.001
O8 0.054 0.042 0.042 -0.001 0.002 0.004
C3 0.034 0.022 0.065 -0.014 -0.005 -0.013
O2 0.031 0.045 0.038 -0.015 0.002 -0.008
O3 0.041 0.036 0.051 -0.015 0.005 -0.012
N3 0.045 0.071 0.048 -0.02 0.015 -0.031
C4 0.039 0.023 0.064 -0.017 0.002 -0.004
C25 0.059 0.061 0.076 -0.037 0.025 -0.039
C29 0.079 0.061 0.048 -0.019 0.003 -0.043
C30 0.047 0.071 0.078 -0.038 0.01 -0.02
C31 0.061 0.099 0.044 -0.041 0.027 -0.035
C33 0.07 0.082 0.04 -0.019 0.017 -0.04
C34 0.069 0.066 0.047 -0.015 0.008 -0.015
C40 0.053 0.076 0.056 -0.035 0.018 -0.029
C42 0.052 0.086 0.048 -0.016 0.009 -0.022
C43 0.031 0.031 0.06 -0.014 -0.008 -0.008
C44 0.041 0.036 0.087 -0.026 -0.006 -0.019
C45 0.035 0.047 0.054 -0.019 0.01 -0.013
C46 0.043 0.053 0.082 -0.029 0.005 -0.024
C47 0.071 0.072 0.049 -0.015 -0.004 -0.022
C48 0.033 0.037 0.074 -0.015 -0.008 -0.005
C51 0.048 0.025 0.071 -0.019 -0.003 -0.004
C52 0.03 0.035 0.057 -0.017 -0.008 -0.005
C54 0.027 0.038 0.077 -0.018 -0.011 -0.007
C55 0.032 0.024 0.1 -0.017 -0.021 -0.005
C57 0.031 0.05 0.092 -0.025 -0.009 -0.012
C58 0.029 0.018 0.056 -0.008 -0.009 -0.01
C60 0.051 0.051 0.07 -0.011 -0.005 0.006
N6 0.031 0.05 0.059 -0.015 0.003 -0.008
C61 0.037 0.045 0.063 -0.025 -0.005 -0.01
N7 0.021 0.027 0.067 -0.015 -0.002 -0.001
C62 0.046 0.039 0.067 -0.002 -0.013 -0.007
C63 0.048 0.058 0.03 -0.011 0.006 -0.012
C64 0.033 0.04 0.079 -0.02 0.002 -0.007
C65 0.036 0.05 0.057 -0.027 -0.003 -0.003
Zn2 0.0358 0.0381 0.092 -0.0189 -0.0144 -0.0007
C66 0.042 0.054 0.082 -0.03 -0.01 0.005
O11 0.112 0.103 0.051 -0.01 -0.006 0.021
C67 0.037 0.061 0.049 -0.01 -0.009 -0.009
C68 0.051 0.067 0.056 -0.02 -0.002 0.004
C69 0.028 0.047 0.056 -0.014 -0.003 0.01
N8 0.031 0.036 0.058 -0.012 0.001 0.004
C71 0.057 0.014 0.058 0.003 -0.01 -0.008
C72 0.031 0.022 0.076 -0.023 -0.005 -0.004
C73 0.05 0.065 0.07 -0.022 0.003 -0.024
C76 0.116 0.106 0.074 -0.054 0.03 -0.055
C77 0.103 0.084 0.064 -0.017 0.022 -0.056
C82 0.04 0.056 0.032 -0.011 0.002 0.007
N9 0.036 0.031 0.041 -0.013 0.001 0.014
Ni1 0.0728 0.0588 0.0476 -0.019 0.0241 -0.0143
C2 0.034 0.022 0.076 -0.028 0.002 0.004
C8 0.038 0.038 0.046 0.001 0.009 0.013
C10 0.057 0.029 0.041 -0.009 -0.005 0.009
C12 0.049 0.038 0.038 0.001 0.008 -0.004
C17 0.048 0.046 0.046 -0.022 0.002 0.009
C21 0.054 0.041 0.05 0.005 0.015 0.01
C22 0.071 0.04 0.04 0.006 -0.001 0.018
C24 0.073 0.045 0.03 0.004 0.022 -0.009
C28 0.076 0.044 0.055 -0.012 0.01 -0.016
N4 0.08 0.06 0.06 -0.021 0.026 -0.025
C32 0.05 0.053 0.064 -0.021 0.012 -0.003
C35 0.071 0.05 0.045 -0.018 0.027 -0.006
O9 0.075 0.068 0.049 -0.021 0.017 -0.018
C37 0.084 0.067 0.048 -0.019 0.026 -0.012
C38 0.122 0.071 0.073 -0.038 0.042 -0.022
O10 0.097 0.047 0.047 -0.02 0.033 -0.005
C74 0.103 0.107 0.05 -0.02 0.002 -0.046
C75 0.161 0.103 0.057 -0.027 0.048 -0.085
C78 0.083 0.093 0.082 -0.028 0.036 -0.036
C81 0.129 0.068 0.127 -0.026 0.017 -0.003
C83 0.126 0.048 0.117 -0.031 0.044 -0.017
C90 0.105 0.138 0.131 0.051 0.013 0.033
C91 0.19 0.129 0.161 -0.024 -0.047 0.031
C92 0.23 0.17 0.25 0.02 -0.09 -0.01
C27 0.056 0.062 0.053 -0.022 0.022 -0.01
C36 0.084 0.095 0.024 -0.026 0.029 -0.032
N5 0.077 0.089 0.044 -0.018 0.013 -0.013
C39 0.122 0.062 0.062 -0.021 0.015 -0.036
C41 0.102 0.085 0.056 -0.033 0.02 -0.035
C84 0.114 0.098 0.049 -0.02 -0.005 -0.023
C85 0.19 0.118 0.123 -0.026 -0.045 0.011
C86 0.18 0.18 0.14 -0.042 -0.043 0.015
C87 0.155 0.133 0.107 -0.027 -0.029 0.012
C88 0.21 0.21 0.26 -0.06 -0.05 0.04
C89 0.25 0.19 0.23 -0.01 -0.11 -0.02
C93 0.21 0.138 0.167 0.014 -0.061 0.014
C94 0.25 0.15 0.22 -0.02 -0.08 0.03
C70 0.082 0.104 0.08 -0.044 0.044 -0.045
C79 0.072 0.206 0.072 -0.046 0.013 -0.071
C80 0.127 0.171 0.077 -0.078 0.048 -0.082
C177 0.114 0.071 0.093 -0.022 -0.019 -0.013
C180 0.153 0.122 0.098 -0.058 0.008 -0.059
C186 0.2 0.25 0.064 -0.052 -0.014 -0.117
C183 0.093 0.26 0.179 0.003 -0.004 -0.11
C185 0.067 0.11 0.151 0.015 0.002 -0.039
C187 0.068 0.137 0.34 0.063 -0.01 -0.064
C127 0.047 0.1 0.036 -0.021 0.002 -0.01
C128 0.068 0.112 0.038 -0.002 -0.006 -0.029
C168 0.067 0.074 0.039 -0.013 0.007 -0.001
C181 0.084 0.24 0.073 -0.011 -0.01 -0.054
C184 0.106 0.34 0.076 -0.104 -0.037 -0.028
C126 0.082 0.102 0.062 -0.026 0.025 -0.046
C132 0.053 0.038 0.028 -0.001 0.01 -0.009
C133 0.033 0.038 0.051 -0.011 0.008 -0.007
C135 0.066 0.092 0.042 -0.004 0.023 -0.021
C137 0.063 0.138 0.067 -0.038 0.026 -0.051
C138 0.048 0.051 0.04 -0.014 0.012 -0.011
N13 0.024 0.04 0.034 -0.01 0.003 -0.012
C146 0.064 0.082 0.047 -0.027 0.016 -0.028
C147 0.032 0.053 0.038 0 0.004 -0.003
C148 0.047 0.06 0.044 -0.015 0.007 -0.01
C154 0.031 0.031 0.04 -0.015 0.006 -0.006
C155 0.048 0.042 0.06 -0.035 0.008 -0.01
C157 0.054 0.088 0.03 -0.012 0.016 -0.015
O25 0.071 0.076 0.056 -0.018 0.01 -0.011
C160 0.05 0.059 0.052 -0.022 0.015 -0.012
C164 0.055 0.059 0.055 -0.025 -0.001 -0.005
O28 0.053 0.089 0.047 -0.034 0.012 -0.022
Ni2 0.0489 0.0785 0.0458 -0.0184 0.0107 -0.0155
C166 0.048 0.069 0.055 -0.008 0.013 -0.011
N16 0.053 0.07 0.046 -0.016 0.002 -0.003
N17 0.044 0.095 0.057 -0.017 0.019 -0.019
C170 0.06 0.067 0.046 -0.022 0.003 -0.01
C171 0.037 0.099 0.064 -0.03 0.008 -0.017
C174 0.055 0.086 0.049 -0.012 0.001 -0.032
C175 0.111 0.09 0.049 -0.002 0.004 -0.04
C176 0.063 0.099 0.106 -0.01 0.014 -0.031
C182 0.054 0.183 0.163 -0.038 0.01 -0.047
Cd10 0.0252 0.0289 0.042 -0.0096 0.0039 -0.0028
Zn6 0.0238 0.0275 0.1753 -0.04 -0.0203 0.0029
N10 0.036 0.014 0.05 -0.007 -0.015 0.006
N11 0.024 0.018 0.072 -0.014 -0.004 -0.002
N12 0.032 0.034 0.05 -0.009 -0.007 -0.004
C96 0.045 0.011 0.046 -0.011 -0.002 -0.005
C97 0.032 0.041 0.06 -0.012 -0.008 0.002
C98 0.029 0.034 0.04 -0.004 -0.012 0.003
C99 0.018 0.039 0.06 -0.01 -0.007 0.01
C100 0.034 0.021 0.055 -0.019 0.001 0.003
C101 0.03 0.021 0.049 -0.013 0.004 0.006
C102 0.032 0.03 0.049 -0.005 0.005 -0.004
C104 0.039 0.026 0.049 -0.009 -0.004 -0.006
C105 0.026 0.035 0.04 0.01 0 -0.003
C106 0.042 0.056 0.026 -0.014 0.013 0.001
C107 0.036 0.028 0.079 -0.003 -0.009 0.001
C108 0.035 0.04 0.048 -0.008 -0.003 -0.006
C110 0.033 0.017 0.036 0.003 -0.003 0.001
C111 0.049 0.026 0.045 -0.002 0 0.019
C112 0.036 0.044 0.036 -0.008 -0.008 0.001
C113 0.024 0.022 0.062 -0.016 -0.019 0.014
C114 0.036 0.022 0.06 0.009 -0.002 -0.002
C115 0.023 0.056 0.048 -0.012 -0.001 -0.006
C116 0.033 0.032 0.054 -0.017 -0.002 0.017
C117 0.038 0.052 0.072 -0.011 -0.001 -0.014
C118 0.026 0.05 0.105 -0.03 -0.003 0.017
C119 0.052 0.054 0.025 0 -0.004 0.021
C120 0.041 0.016 0.102 -0.024 -0.022 0.001
C121 0.051 0.052 0.08 -0.037 0.003 -0.019
C122 0.033 0.014 0.104 -0.022 -0.02 0.003
C123 0.034 0.035 0.084 -0.021 -0.013 -0.011
O18 0.168 0.108 0.107 -0.016 -0.074 0.015
C129 0.026 0.036 0.053 -0.014 -0.009 -0.002
O19 0.037 0.043 0.055 0.004 -0.004 -0.018
O20 0.033 0.05 0.078 -0.024 0.008 -0.018
C139 0.034 0.087 0.051 -0.028 0.003 -0.005
C141 0.059 0.08 0.048 -0.024 -0.001 -0.017
Zn7 0.0252 0.0233 0.0425 -0.0097 0.0045 -0.0016
N15 0.037 0.043 0.052 -0.015 -0.001 -0.007
C156 0.045 0.087 0.063 -0.016 0.002 -0.013
C158 0.058 0.046 0.031 -0.011 0.006 -0.012
C159 0.026 0.062 0.031 -0.004 0.007 -0.006
C161 0.043 0.077 0.066 -0.021 0.003 -0.025
C162 0.034 0.081 0.032 -0.005 0.01 0.004
C163 0.04 0.058 0.059 -0.022 0.006 -0.005
C167 0.067 0.047 0.049 -0.005 -0.004 -0.005
O29 0.041 0.041 0.06 -0.018 0.004 0.008
O30 0.034 0.045 0.077 -0.013 0.001 -0.008
O31 0.048 0.039 0.063 -0.021 -0.007 0.016
O32 0.036 0.037 0.059 -0.008 0.007 0.013
O33 0.038 0.027 0.063 -0.015 0.004 -0.01
O34 0.062 0.051 0.047 -0.006 -0.013 -0.023
C152 0.025 0.052 0.046 0.004 0.009 0.005
C95 0.027 0.027 0.06 -0.009 0.002 -0.001
C103 0.041 0.044 0.054 -0.022 -0.004 -0.015
C109 0.042 0.08 0.064 -0.022 0.007 -0.043
C124 0.066 0.052 0.086 -0.024 -0.004 -0.04
C125 0.049 0.051 0.04 -0.008 0.004 -0.018
C130 0.021 0.03 0.126 -0.032 0 0
C131 0.031 0.024 0.102 -0.017 -0.017 0.004
C134 0.044 0.036 0.08 -0.02 -0.008 -0.009
C136 0.027 0.026 0.069 -0.017 -0.011 0
C140 0.041 0.07 0.1 -0.027 -0.019 0.026
C142 0.028 0.019 0.074 -0.009 -0.003 -0.005
C143 0.078 0.055 0.078 -0.03 -0.025 0.031
C144 0.03 0.036 0.071 -0.016 0.006 -0.004
C145 0.043 0.016 0.051 -0.002 -0.012 -0.009
N14 0.04 0.025 0.08 -0.01 -0.003 0.004
C149 0.033 0.034 0.034 0.005 -0.004 0.016
C150 0.038 0.037 0.06 -0.016 0.006 -0.001
C151 0.034 0.052 0.052 -0.004 -0.013 0.004
C153 0.032 0.039 0.075 -0.009 -0.008 0.004
C165 0.024 0.029 0.053 -0.011 -0.001 -0.007
C169 0.021 0.024 0.052 -0.012 0 -0.004
C172 0.067 0.227 0.076 -0.076 0.016 -0.081
C173 0.061 0.055 0.058 -0.006 -0.001 -0.022
C178 0.076 0.28 0.092 -0.117 0.034 -0.077
C179 0.097 0.21 0.045 -0.041 0.004 -0.043
C188 0.096 0.209 0.105 -0.115 0.046 -0.088
loop_
_geom_bond_atom_site_label_1
_geom_bond_atom_site_label_2
_geom_bond_site_symmetry_1
_geom_bond_site_symmetry_2
O1 C9 1_555 1_555
O5 C9 1_555 1_555
C7 C9 1_555 1_555
Cd5 O5 1_555 1_555
Zn5 O1 1_555 1_555
O4 C1 1_555 1_555
O7 C1 1_555 1_555
N2 C11 1_555 1_555
C1 C6 1_555 1_555
C5 H2 1_555 1_555
C6 C5 1_555 1_555
C11 C13 1_555 1_555
C13 H6 1_555 1_555
C14 N2 1_555 1_555
C15 C14 1_555 1_555
C16 C18 1_555 1_555
C18 C11 1_555 1_555
C19 C13 1_555 1_555
H7 C19 1_555 1_555
C20 C5 1_555 1_555
H8 C20 1_555 1_555
C23 C6 1_555 1_555
H10 C23 1_555 1_555
C26 C16 1_555 1_555
H12 C26 1_555 1_555
C49 C15 1_555 1_555
C50 C49 1_555 1_555
H25 C50 1_555 1_555
C53 C49 1_555 1_555
H27 C53 1_555 1_555
H29 C56 1_555 1_555
H31 C59 1_555 1_555
Cd5 O7 1_555 1_555
Zn5 O4 1_555 1_555
C14 C19 1_555 1_555
C16 C20 1_555 1_555
C23 C26 1_555 1_555
C50 C56 1_555 1_555
C53 C59 1_555 1_555
O6 C3 1_555 1_555
O8 C3 1_555 1_555
Cd5 O8 1_555 1_555
Zn5 O6 1_555 1_555
Cd5 O2 1_555 1_555
Zn5 O3 1_555 1_555
O2 C4 1_555 1_555
O3 C4 1_555 1_555
N3 Zn5 1_555 1_555
C4 C43 1_555 1_555
C25 N3 1_555 1_555
H11 C25 1_555 1_555
C29 C25 1_555 1_555
H14 C29 1_555 1_555
C30 C29 1_555 1_555
C31 H15 1_555 1_555
C33 C30 1_555 1_555
C34 C42 1_555 1_555
C42 C33 1_555 1_555
H20 C42 1_555 1_555
C43 C44 1_555 1_555
C44 H21 1_555 1_555
C45 C43 1_555 1_555
H22 C45 1_555 1_555
C46 C44 1_555 1_555
H23 C46 1_555 1_555
C47 C45 1_555 1_555
H24 C47 1_555 1_555
C48 C46 1_555 1_555
C51 H26 1_555 1_555
C52 C48 1_555 1_555
C54 C51 1_555 1_555
C55 H28 1_555 1_555
C57 C51 1_555 1_555
H30 C57 1_555 1_555
C58 C52 1_555 1_555
C60 C55 1_555 1_555
H32 C60 1_555 1_555
N6 C54 1_555 1_555
C61 C57 1_555 1_555
N7 C58 1_555 1_555
C63 C61 1_555 1_555
C64 H33 1_555 1_555
C65 C63 1_555 1_555
C66 C65 1_555 1_555
H34 C66 1_555 1_555
O11 Zn2 1_555 1_555
H35 O11 1_555 1_555
H36 O11 1_555 1_555
C67 C68 1_555 1_555
C68 C66 1_555 1_555
H37 C68 1_555 1_555
C69 C63 1_555 1_555
N8 Zn2 1_555 1_555
C71 C69 1_555 1_555
H38 C71 1_555 1_555
C73 C71 1_555 1_555
H39 C73 1_555 1_555
C76 N3 1_555 1_555
H46 C76 1_555 1_555
C77 C30 1_555 1_555
H47 C77 1_555 1_555
C82 C64 1_555 1_555
H57 C82 1_555 1_555
N9 Cd5 1_555 1_555
C31 C33 1_555 1_555
C31 C40 1_555 1_555
C47 C48 1_555 1_555
C52 C54 1_555 1_555
C55 C58 1_555 1_555
C60 C62 1_555 1_555
N6 C61 1_555 1_555
N6 Zn2 1_555 1_555
N7 C62 1_555 1_555
N7 Zn2 1_555 1_555
C64 C65 1_555 1_555
C67 C82 1_555 1_555
C69 N8 1_555 1_555
N8 C72 1_555 1_555
C72 C73 1_555 1_555
C76 C77 1_555 1_555
Ni1 N4 1_555 1_555
N9 C2 1_555 1_555
C2 H1 1_555 1_555
C8 H3 1_555 1_555
C10 N9 1_555 1_555
H4 C10 1_555 1_555
C12 C2 1_555 1_555
H5 C12 1_555 1_555
C17 C8 1_555 1_555
C21 C17 1_555 1_555
C22 C21 1_555 1_555
H9 C22 1_555 1_555
C24 C22 1_555 1_555
C28 C21 1_555 1_555
H13 C28 1_555 1_555
N4 C38 1_555 1_555
C32 C24 1_555 1_555
C35 C28 1_555 1_555
O9 Ni1 1_555 1_555
C37 C24 1_555 1_555
C38 C35 1_555 1_555
H17 C38 1_555 1_555
O10 Ni1 1_555 1_555
C74 C37 1_555 1_555
H40 C74 1_555 1_555
H41 C74 1_555 1_555
H42 C74 1_555 1_555
C75 C37 1_555 1_555
H45 C75 1_555 1_555
H50 C78 1_555 1_555
C83 C37 1_555 1_555
H58 C83 1_555 1_555
C90 C81 1_555 1_555
H66 C90 1_555 1_555
C91 H67 1_555 1_555
C92 C90 1_555 1_555
H68 C92 1_555 1_555
C8 C10 1_555 1_555
C12 C17 1_555 1_555
C32 C35 1_555 1_555
C32 O10 1_555 1_555
C91 C92 1_555 1_555
C36 H16 1_555 1_555
C39 N5 1_555 1_555
H18 C39 1_555 1_555
H19 C41 1_555 1_555
C84 C39 1_555 1_555
C85 H61 1_555 1_555
C86 C84 1_555 1_555
H62 C86 1_555 1_555
C87 C84 1_555 1_555
H63 C87 1_555 1_555
C88 C85 1_555 1_555
H64 C88 1_555 1_555
C89 C87 1_555 1_555
H65 C89 1_555 1_555
H69 C93 1_555 1_555
H70 C94 1_555 1_555
C36 N5 1_555 1_555
C39 C41 1_555 1_555
C85 C86 1_555 1_555
C88 C89 1_555 1_555
C93 C94 1_555 1_555
C79 C70 1_555 1_555
H52 C79 1_555 1_555
H53 C79 1_555 1_555
C80 C70 1_555 1_555
H54 C80 1_555 1_555
H123 C177 1_555 1_555
C180 C177 1_555 1_555
H130 C180 1_555 1_555
C186 C180 1_555 1_555
H136 C186 1_555 1_555
H133 C183 1_555 1_555
H135 C185 1_555 1_555
C187 C183 1_555 1_555
H137 C187 1_555 1_555
C185 C187 1_555 1_555
C127 H94 1_555 1_555
C168 C127 1_555 1_555
C181 C128 1_555 1_555
H131 C181 1_555 1_555
C184 C181 1_555 1_555
H134 C184 1_555 1_555
C126 H91 1_555 1_555
H92 C126 1_555 1_555
H93 C126 1_555 1_555
C132 H97 1_555 1_555
C133 C132 1_555 1_555
H98 C133 1_555 1_555
C135 C126 1_555 1_555
C137 C135 1_555 1_555
H99 C137 1_555 1_555
H100 C137 1_555 1_555
C138 H102 1_555 1_555
N13 C132 1_555 1_555
C146 C135 1_555 1_555
C147 C133 1_555 1_555
C148 C138 1_555 1_555
C154 N13 1_555 1_555
H109 C154 1_555 1_555
C155 C147 1_555 1_555
H110 C155 1_555 1_555
C157 C146 1_555 1_555
O25 C157 1_555 1_555
C160 C148 1_555 1_555
H113 C160 1_555 1_555
C164 C157 1_555 1_555
O28 Ni2 1_555 1_555
Ni2 O25 1_555 1_555
C166 C164 1_555 1_555
H115 C166 1_555 1_555
N16 Ni2 1_555 1_555
C170 N16 1_555 1_555
H117 C170 1_555 1_555
C171 N17 1_555 1_555
H118 C171 1_555 1_555
C174 C170 1_555 1_555
C175 C135 1_555 1_555
H119 C175 1_555 1_555
H120 C175 1_555 1_555
H121 C175 1_555 1_555
C176 C174 1_555 1_555
H122 C176 1_555 1_555
C182 C176 1_555 1_555
H132 C182 1_555 1_555
Cd10 N13 1_555 1_555
C138 C146 1_555 1_555
C147 C148 1_555 1_555
C154 C155 1_555 1_555
C160 C164 1_555 1_555
Ni2 N17 1_555 1_555
C166 N16 1_555 1_555
C170 C171 1_555 1_555
Zn6 N10 1_555 1_555
N10 C98 1_555 1_555
N11 Zn6 1_555 1_555
N12 Zn6 1_555 1_555
C96 N11 1_555 1_555
C97 N12 1_555 1_555
C98 C108 1_555 1_555
C99 N10 1_555 1_555
C100 N12 1_555 1_555
C101 C111 1_555 1_555
C102 C112 1_555 1_555
C104 C105 1_555 1_555
C105 H72 1_555 1_555
C106 H73 1_555 1_555
C107 N11 1_555 1_555
C108 C97 1_555 1_555
C110 C106 1_555 1_555
C111 H75 1_555 1_555
C112 C105 1_555 1_555
H76 C112 1_555 1_555
C113 C96 1_555 1_555
C114 C101 1_555 1_555
H77 C114 1_555 1_555
C115 C98 1_555 1_555
H78 C115 1_555 1_555
C116 C99 1_555 1_555
H79 C116 1_555 1_555
C117 C102 1_555 1_555
H80 C117 1_555 1_555
C118 C96 1_555 1_555
H81 C118 1_555 1_555
C119 C110 1_555 1_555
H82 C119 1_555 1_555
C120 C100 1_555 1_555
H83 C120 1_555 1_555
C121 C104 1_555 1_555
H84 C121 1_555 1_555
C122 C107 1_555 1_555
H85 C122 1_555 1_555
C123 C97 1_555 1_555
H86 C123 1_555 1_555
O18 Zn6 1_555 1_555
H89 O18 1_555 1_555
H90 O18 1_555 1_555
C129 C102 1_555 1_555
O19 C129 1_555 1_555
O20 C129 1_555 1_555
C139 H103 1_555 1_555
C141 C139 1_555 1_555
H105 C141 1_555 1_555
Zn7 O19 1_555 1_555
Cd10 O20 1_555 1_555
N15 C139 1_555 1_555
C156 H111 1_555 1_555
C158 C141 1_555 1_555
C159 N15 1_555 1_555
H112 C159 1_555 1_555
C161 C156 1_555 1_555
C162 C158 1_555 1_555
H114 C162 1_555 1_555
C163 C156 1_555 1_555
C167 C163 1_555 1_555
H116 C167 1_555 1_555
O29 Cd10 1_555 1_555
O30 Zn7 1_555 1_555
O31 Zn7 1_555 1_555
O32 Cd10 1_555 1_555
O33 Zn7 1_555 1_555
O34 Cd10 1_555 1_555
C99 C113 1_555 1_555
C104 C108 1_555 1_555
C106 C114 1_555 1_555
C110 C113 1_555 1_555
C111 C119 1_555 1_555
C115 C116 1_555 1_555
C117 C121 1_555 1_555
C118 C122 1_555 1_555
C120 C123 1_555 1_555
Zn7 N15 1_555 1_555
C158 C163 1_555 1_555
C159 C162 1_555 1_555
O31 C152 1_555 1_555
O32 C152 1_555 1_555
C95 C124 1_555 1_555
C103 H71 1_555 1_555
C124 C109 1_555 1_555
H87 C124 1_555 1_555
C125 C95 1_555 1_555
H88 C125 1_555 1_555
C130 H95 1_555 1_555
C131 C130 1_555 1_555
H96 C131 1_555 1_555
C134 C130 1_555 1_555
C136 C95 1_555 1_555
C140 H104 1_555 1_555
C142 C131 1_555 1_555
C143 C140 1_555 1_555
H106 C143 1_555 1_555
C144 C140 1_555 1_555
C145 C144 1_555 1_555
O29 C145 1_555 1_555
O30 C145 1_555 1_555
C149 C144 1_555 1_555
H107 C149 1_555 1_555
C150 C143 1_555 1_555
C151 C149 1_555 1_555
H108 C151 1_555 1_555
C103 C125 1_555 1_555
C134 C136 1_555 1_555
C134 N14 1_555 1_555
C142 N14 1_555 1_555
C142 C153 1_555 1_555
C150 C151 1_555 1_555
C150 C153 1_555 1_555
O33 C165 1_555 1_555
O34 C165 1_555 1_555
C165 C169 1_555 1_555
C178 C172 1_555 1_555
H125 C178 1_555 1_555
H126 C178 1_555 1_555
C179 C172 1_555 1_555
H127 C179 1_555 1_555
H128 C179 1_555 1_555
H129 C179 1_555 1_555
C188 C172 1_555 1_555
H138 C188 1_555 1_555
H139 C188 1_555 1_555
H140 C188 1_555 1_555

#END
