
###############################################################################
#
# This file contains modified crystal structure data generated from the
# MOF subset of the Cambridge Structural Database (CSD) v543 
# hosted by the Cambridge Crystallographic Data Centre (CCDC).
#
# This work is licensed under the Creative Commons
# Attribution-NonCommercial-ShareAlike 4.0 International License.
# To view a copy of this license, visit
# http://creativecommons.org/licenses/by-nc-sa/4.0/
# or send a letter to
# Creative Commons, PO Box 1866, Mountain View, CA 94042, USA.
#
# CIF created using the CSD Python API on 29 September 2022
# The structure has been converted into the P1 space group
# The structure has a 3D framework
# The original CSD entry MEQXAK is in the triclinic crystal system
# The original CSD entry MEQXAK is in a Sohncke space group
# The framework has been calculated to contain at least 10.0% void space
# The void calculation uses a probe of radius 1.32A, grid spacing 0.4
#
###############################################################################

data_MEQXAK
_chemical_formula_moiety         '(C188 H138 Cd2 N16 Ni5 O18)n'
_symmetry_cell_setting           triclinic
_symmetry_space_group_name_H-M   'P 1'
_symmetry_Int_Tables_number      1
_space_group_name_Hall           'P 1'
loop_
_symmetry_equiv_pos_site_id
_symmetry_equiv_pos_as_xyz
1 x,y,z
_cell_length_a                   16.1170(5)
_cell_length_b                   17.0906(5)
_cell_length_c                   24.5705(12)
_cell_angle_alpha                84.620(3)
_cell_angle_beta                 76.828(3)
_cell_angle_gamma                89.155(2)
_cell_volume                     6560.68
loop_
_atom_site_label
_atom_site_type_symbol
_atom_site_fract_x
_atom_site_fract_y
_atom_site_fract_z
_atom_site_U_iso_or_equiv
_atom_site_thermal_displace_type
O11 O 0.0277(5) 0.2074(5) 0.8466(3) 0.0448 Uiso
N9 N 0.0375(7) 0.1249(6) 0.7407(4) 0.0440 Uiso
O16 O 0.0133(7) 0.0340(6) 0.8550(4) 0.0670 Uiso
O2 O 0.8141(5) 0.0411(5) 0.9136(4) 0.0500 Uiso
O3 O 0.8557(6) 0.0386(5) 0.8192(4) 0.0560 Uiso
C33 C 0.8085(7) 0.0153(7) 0.8694(5) 0.0400 Uiso
C46 C 0.0146(9) 0.0039(8) 0.9058(6) 0.0580 Uiso
Cd5 Cd 0.95056(5) 0.12409(5) 0.81586(4) 0.0533 Uani
Ni5 Ni 0.89560(12) 0.11525(10) 0.93614(9) 0.0415 Uani
Ni2 Ni 0.45675(17) 0.18972(14) 0.38187(12) 0.0717 Uani
C2 C 0.0673(8) 0.0611(8) 0.7149(5) 0.0480 Uiso
H3 H 0.0520 0.0121 0.7341 0.0570 Uiso
C5 C 0.0754(9) 0.1922(8) 0.7170(6) 0.0510 Uiso
H4 H 0.0687 0.2360 0.7374 0.0610 Uiso
N5 N 0.8196(7) 0.1217(6) 0.0146(5) 0.0500 Uiso
C36 C 0.1475(9) 0.1322(8) 0.6335(6) 0.0540 Uiso
C44 C 0.6415(11) 0.1382(10) 0.1710(7) 0.0730 Uiso
C45 C 0.2701(9) 0.1932(8) 0.5576(6) 0.0550 Uiso
H24 H 0.2773 0.2320 0.5803 0.0660 Uiso
C47 C 0.2079(9) 0.1383(8) 0.5763(6) 0.0570 Uiso
C51 C 0.5054(14) 0.0966(12) 0.2319(9) 0.0950 Uiso
C52 C 0.1970(9) 0.0831(8) 0.5366(6) 0.0610 Uiso
H27 H 0.1507 0.0488 0.5479 0.0740 Uiso
C55 C 0.2287(13) 0.0132(11) 0.4471(8) 0.0890 Uiso
C56 C 0.1150(10) 0.0635(9) 0.6658(7) 0.0660 Uiso
H29 H 0.1293 0.0160 0.6505 0.0790 Uiso
O8 O 0.3615(7) 0.1339(6) 0.4170(4) 0.0690 Uiso
C58 C 0.5112(14) 0.3227(12) 0.4289(9) 0.0980 Uiso
H31 H 0.5251 0.3341 0.4641 0.1180 Uiso
C59 C 0.5178(9) 0.1359(8) 0.2735(6) 0.0590 Uiso
C60 C 0.7018(11) 0.1325(10) 0.1166(7) 0.0720 Uiso
C61 C 0.7096(10) 0.0648(10) 0.0884(7) 0.0720 Uiso
H32 H 0.6782 0.0200 0.1047 0.0870 Uiso
C62 C 0.3158(9) 0.1335(9) 0.4670(6) 0.0620 Uiso
C64 C 0.7642(9) 0.0645(9) 0.0362(6) 0.0630 Uiso
H34 H 0.7618 0.0223 0.0153 0.0750 Uiso
N6 N 0.5573(10) 0.2408(9) 0.3531(7) 0.0870 Uiso
O9 O 0.4621(7) 0.1329(6) 0.3228(4) 0.0680 Uiso
C65 C 0.5874(13) 0.2937(12) 0.3885(9) 0.0910 Uiso
H35 H 0.6172 0.3386 0.3647 0.1100 Uiso
C66 C 0.5685(12) 0.0948(11) 0.1818(8) 0.0840 Uiso
H36 H 0.5599 0.0627 0.1550 0.1010 Uiso
C67 C 0.8214(10) 0.1833(9) 0.0437(7) 0.0690 Uiso
H37 H 0.8629 0.2219 0.0303 0.0830 Uiso
C68 C 0.467(3) 0.3907(19) 0.4041(16) 0.2580 Uiso
C69 C 0.3933(10) 0.2486(9) 0.4882(7) 0.0710 Uiso
H38 H 0.4020 0.2823 0.5141 0.0850 Uiso
C70 C 0.7635(12) 0.1907(11) 0.0927(8) 0.0830 Uiso
H39 H 0.7648 0.2357 0.1110 0.0990 Uiso
C71 C 0.6533(12) 0.1836(11) 0.2093(8) 0.0800 Uiso
H40 H 0.7018 0.2151 0.2024 0.0960 Uiso
C72 C 0.2447(10) 0.0769(9) 0.4879(7) 0.0660 Uiso
C73 C 0.1253(11) 0.1987(10) 0.6621(7) 0.0720 Uiso
H41 H 0.1437 0.2479 0.6445 0.0860 Uiso
C74 C 0.5897(12) 0.1844(11) 0.2630(8) 0.0820 Uiso
N8 N 0.4439(8) 0.2535(7) 0.4382(6) 0.0690 Uiso
C75 C 0.3236(9) 0.1918(8) 0.5044(6) 0.0610 Uiso
C76 C 0.6082(12) 0.2342(11) 0.2982(8) 0.0840 Uiso
H42 H 0.6566 0.2658 0.2859 0.1000 Uiso
C78 C 0.2123(13) 0.0511(12) 0.3944(9) 0.0960 Uiso
H46 H 0.2616 0.0809 0.3742 0.1440 Uiso
H47 H 0.1644 0.0855 0.4026 0.1440 Uiso
H48 H 0.2002 0.0116 0.3719 0.1440 Uiso
C81 C 0.6479(12) 0.2507(11) 0.4198(7) 0.1110 Uiso
H57 H 0.4357 0.0193 0.1584 0.1890 Uiso
C83 C 0.4251(13) 0.0306(12) 0.2413(9) 0.0960 Uiso
C84 C 0.6721(14) 0.1651(12) 0.4978(8) 0.1390 Uiso
H58 H 0.6505 0.1329 0.5305 0.1670 Uiso
C85 C 0.7592(13) 0.1738(18) 0.4781(11) 0.1860 Uiso
H59 H 0.7963 0.1499 0.4984 0.2230 Uiso
C86 C 0.6169(10) 0.2042(10) 0.4692(7) 0.1020 Uiso
H60 H 0.5584 0.1991 0.4833 0.1230 Uiso
C87 C 0.7357(13) 0.2586(15) 0.3997(8) 0.1440 Uiso
H61 H 0.7574 0.2910 0.3671 0.1730 Uiso
C88 C 0.7906(10) 0.219(2) 0.4277(13) 0.2270 Uiso
H62 H 0.8490 0.2216 0.4128 0.2720 Uiso
C89 C 0.3510(16) 0.0874(14) 0.2491(11) 0.1150 Uiso
H63 H 0.3346 0.0990 0.2140 0.1730 Uiso
H64 H 0.3679 0.1351 0.2615 0.1730 Uiso
H65 H 0.3037 0.0641 0.2766 0.1730 Uiso
C90 C 0.503(3) 0.527(2) 0.3808(19) 0.2580 Uiso
H66 H 0.5385 0.5697 0.3808 0.3090 Uiso
C91 C 0.398(2) 0.401(2) 0.3800(18) 0.2180 Uiso
H67 H 0.3621 0.3589 0.3800 0.2620 Uiso
C92 C 0.433(4) 0.538(2) 0.357(2) 0.3300 Uiso
H68 H 0.4211 0.5873 0.3417 0.3950 Uiso
C93 C 0.520(2) 0.454(3) 0.4045(15) 0.2210 Uiso
H69 H 0.5665 0.4469 0.4208 0.2660 Uiso
C94 C 0.381(3) 0.474(3) 0.356(2) 0.4100 Uiso
H70 H 0.3357 0.4810 0.3384 0.4890 Uiso
N1 N 0.4191(6) 0.5020(6) 0.8879(4) 0.0380 Uiso
H1 H 0.4155 0.5518 0.8904 0.0450 Uiso
O5 O 0.8619(6) 0.2140(5) 0.8099(4) 0.0480 Uiso
N2 N 0.4115(7) 0.7331(6) 0.8979(5) 0.0500 Uiso
H2 H 0.4117 0.6935 0.9221 0.0600 Uiso
O6 O 0.8316(6) 0.2073(5) 0.9019(4) 0.0540 Uiso
N3 N 0.5466(5) 0.6231(5) 0.8733(4) 0.0326 Uiso
C1 C 0.6009(7) 0.5632(7) 0.8637(5) 0.0420 Uiso
N4 N 0.2857(6) 0.6130(5) 0.9061(4) 0.0390 Uiso
C3 C 0.5959(7) 0.6937(7) 0.8668(5) 0.0420 Uiso
C4 C 0.7644(9) 0.3023(8) 0.8564(6) 0.0490 Uiso
C6 C 0.4816(8) 0.7851(7) 0.8907(5) 0.0470 Uiso
C7 C 0.2698(9) 0.4715(8) 0.9033(6) 0.0540 Uiso
C8 C 0.2330(8) 0.6735(8) 0.9105(6) 0.0510 Uiso
C9 C 0.3374(8) 0.7797(7) 0.9081(5) 0.0460 Uiso
C10 C 0.3526(9) 0.4496(9) 0.8967(6) 0.0590 Uiso
C11 C 0.6298(10) 0.8312(9) 0.8768(7) 0.0630 Uiso
C12 C 0.2360(9) 0.5484(8) 0.9070(6) 0.0530 Uiso
C13 C 0.2546(8) 0.7536(7) 0.9117(5) 0.0470 Uiso
C14 C 0.8269(7) 0.2307(6) 0.8618(5) 0.0360 Uiso
C15 C 0.4734(10) 0.3751(9) 0.8878(6) 0.0630 Uiso
H5 H 0.5099 0.3330 0.8906 0.0760 Uiso
C16 C 0.7270(9) 0.3240(9) 0.8091(6) 0.0570 Uiso
H6 H 0.7392 0.2999 0.7758 0.0680 Uiso
C17 C 0.1483(10) 0.6487(9) 0.9142(6) 0.0610 Uiso
H7 H 0.0997 0.6797 0.9202 0.0740 Uiso
C18 C 0.5763(9) 0.4816(8) 0.8697(6) 0.0540 Uiso
C19 C 0.6900(8) 0.5908(7) 0.8517(5) 0.0480 Uiso
H8 H 0.7393 0.5612 0.8431 0.0570 Uiso
C20 C 0.6497(9) 0.4244(8) 0.8610(6) 0.0510 Uiso
C21 C 0.7377(9) 0.9209(8) 0.8229(6) 0.0520 Uiso
H9 H 0.7728 0.9398 0.7888 0.0630 Uiso
C22 C 0.1414(9) 0.3840(8) 0.9482(6) 0.0530 Uiso
H10 H 0.1365 0.4080 0.9812 0.0640 Uiso
C23 C 0.6836(8) 0.6691(7) 0.8560(5) 0.0500 Uiso
H11 H 0.7298 0.7027 0.8524 0.0600 Uiso
C24 C 0.0285(8) 0.2251(7) 0.8949(5) 0.0470 Uiso
C25 C 0.2018(10) 0.4048(9) 0.9005(7) 0.0690 Uiso
C26 C 0.4939(8) 0.4586(7) 0.8741(5) 0.0470 Uiso
C27 C 0.1891(9) 0.8146(8) 0.9132(6) 0.0550 Uiso
C28 C 0.1337(9) 0.8348(9) 0.9639(7) 0.0630 Uiso
H12 H 0.1359 0.8074 0.9981 0.0760 Uiso
C29 C 0.7432(7) 0.9528(7) 0.8705(5) 0.0410 Uiso
C30 C 0.1518(9) 0.5717(8) 0.9075(6) 0.0560 Uiso
H13 H 0.1074 0.5400 0.9039 0.0670 Uiso
C31 C 0.3636(9) 0.8611(8) 0.9061(6) 0.0550 Uiso
H14 H 0.3278 0.9043 0.9093 0.0660 Uiso
C32 C 0.3832(11) 0.3747(10) 0.8958(7) 0.0720 Uiso
H15 H 0.3497 0.3298 0.8999 0.0860 Uiso
C34 C 0.5653(7) 0.7654(7) 0.8801(5) 0.0420 Uiso
C35 C 0.1840(9) 0.8581(8) 0.8611(6) 0.0540 Uiso
H16 H 0.2197 0.8463 0.8275 0.0650 Uiso
C37 C 0.1555(9) 0.3084(8) 0.8519(6) 0.0570 Uiso
H17 H 0.1613 0.2820 0.8198 0.0680 Uiso
C38 C 0.1285(8) 0.9146(7) 0.8618(6) 0.0500 Uiso
H18 H 0.1253 0.9414 0.8276 0.0600 Uiso
C39 C 0.6719(10) 0.3839(9) 0.8196(7) 0.0600 Uiso
H19 H 0.6449 0.3982 0.7906 0.0720 Uiso
C40 C 0.2123(9) 0.3699(8) 0.8509(6) 0.0560 Uiso
H20 H 0.2542 0.3860 0.8192 0.0680 Uiso
C41 C 0.7490(11) 0.3476(9) 0.9020(7) 0.0720 Uiso
H21 H 0.7794 0.3392 0.9299 0.0860 Uiso
C42 C 0.4474(10) 0.8628(10) 0.8990(7) 0.0700 Uiso
H22 H 0.4796 0.9074 0.8992 0.0840 Uiso
C43 C 0.0868(10) 0.3223(9) 0.9429(7) 0.0620 Uiso
H23 H 0.0439 0.3068 0.9742 0.0740 Uiso
C48 C 0.0736(10) 0.9378(9) 0.9098(7) 0.0640 Uiso
C49 C 0.6855(12) 0.4069(11) 0.9049(8) 0.0810 Uiso
H25 H 0.6690 0.4334 0.9369 0.0970 Uiso
C50 C 0.6798(8) 0.8600(7) 0.8244(6) 0.0480 Uiso
H26 H 0.6747 0.8392 0.7916 0.0580 Uiso
C53 C 0.6928(9) 0.9243(8) 0.9226(6) 0.0580 Uiso
H28 H 0.6991 0.9453 0.9550 0.0700 Uiso
C54 C 0.0912(9) 0.2849(8) 0.8979(6) 0.0560 Uiso
C57 C 0.6317(9) 0.8633(8) 0.9264(6) 0.0580 Uiso
H30 H 0.5950 0.8460 0.9602 0.0700 Uiso
C63 C 0.0786(9) 0.8933(8) 0.9616(6) 0.0580 Uiso
H33 H 0.0421 0.9059 0.9947 0.0700 Uiso
O14 O 0.9846(5) 0.1926(5) 0.9411(4) 0.0470 Uiso
O15 O 0.9689(7) 0.0229(6) 0.9530(5) 0.0720 Uiso
C77 C 0.3038(14) 0.9611(13) 0.4375(10) 0.1060 Uiso
H43 H 0.2989 0.9261 0.4100 0.1580 Uiso
H44 H 0.3066 0.9311 0.4721 0.1580 Uiso
H45 H 0.3547 0.9924 0.4242 0.1580 Uiso
C79 C 0.1512(14) 0.9609(13) 0.4757(9) 0.1010 Uiso
H49 H 0.1030 0.9934 0.4886 0.1520 Uiso
H50 H 0.1639 0.9291 0.5070 0.1520 Uiso
H51 H 0.1384 0.9276 0.4493 0.1520 Uiso
C80 C 0.4204(16) 0.9705(14) 0.2916(10) 0.1160 Uiso
H52 H 0.3709 0.9378 0.2963 0.1740 Uiso
H53 H 0.4168 0.9973 0.3248 0.1740 Uiso
H54 H 0.4706 0.9386 0.2856 0.1740 Uiso
C82 C 0.4233(18) 0.9848(16) 0.1924(11) 0.1260 Uiso
H55 H 0.3679 0.9617 0.1973 0.1890 Uiso
H56 H 0.4653 0.9440 0.1902 0.1890 Uiso
O18 O 0.0278(6) 0.6712(5) 0.7181(4) 0.0560 Uiso
O21 O 0.0683(6) 0.6854(5) 0.6255(4) 0.0500 Uiso
H71 H 0.0012 0.5766 0.5832 0.0560 Uiso
C118 C 0.0247(9) 0.6535(8) 0.6727(6) 0.0510 Uiso
Cd9 Cd 0.09469(5) 0.76837(5) 0.74612(5) 0.0563 Uani
Ni12 Ni 0.14624(11) 0.77520(10) 0.62184(10) 0.0406 Uani
O22 O 0.0607(6) 0.8522(5) 0.5978(4) 0.0520 Uiso
O24 O 0.0286(5) 0.8455(5) 0.6901(4) 0.0500 Uiso
C162 C 0.0196(9) 0.8749(8) 0.6399(6) 0.0580 Uiso
Ni7 Ni 0.62824(15) 0.27422(14) 0.66478(14) 0.0786 Uani
O19 O 0.2184(6) 0.7009(5) 0.6604(4) 0.0550 Uiso
O20 O 0.1924(6) 0.6830(6) 0.7573(4) 0.0570 Uiso
N10 N 0.6298(5) 0.1588(5) 0.6518(4) 0.0310 Uiso
N11 N 0.7563(7) 0.2718(6) 0.6527(4) 0.0470 Uiso
N12 N 0.5018(6) 0.2730(6) 0.6715(4) 0.0460 Uiso
N13 N 0.6276(8) 0.3882(7) 0.6772(5) 0.0550 Uiso
C95 C 0.9641(8) 0.5568(7) 0.6163(5) 0.0460 Uiso
C96 C 0.4481(8) 0.3397(7) 0.6853(5) 0.0460 Uiso
C98 C 0.7002(7) 0.4349(6) 0.6715(5) 0.0360 Uiso
C99 C 0.8080(8) 0.2042(7) 0.6461(5) 0.0470 Uiso
C100 C 0.3172(8) 0.5677(7) 0.7494(6) 0.0440 Uiso
H73 H 0.2928 0.5869 0.7836 0.0530 Uiso
C102 C 0.5602(8) 0.4371(7) 0.6810(5) 0.0470 Uiso
C103 C 0.9644(8) 0.5874(7) 0.6695(5) 0.0480 Uiso
C104 C 0.8102(8) 0.3342(7) 0.6565(5) 0.0440 Uiso
C105 C 0.4461(7) 0.2139(7) 0.6750(5) 0.0410 Uiso
C108 C 0.9093(9) 0.4996(8) 0.6165(6) 0.0540 Uiso
H77 H 0.9103 0.4779 0.5831 0.0650 Uiso
C109 C 0.6973(8) 0.1116(8) 0.6427(5) 0.0490 Uiso
C110 C 0.8938(9) 0.3029(8) 0.6512(6) 0.0560 Uiso
H78 H 0.9421 0.3318 0.6517 0.0670 Uiso
C112 C 0.5599(7) 0.1119(6) 0.6535(5) 0.0370 Uiso
C113 C 0.4105(8) 0.4784(7) 0.6957(5) 0.0410 Uiso
C114 C 0.4097(7) 0.0740(6) 0.6679(5) 0.0380 Uiso
C115 C 0.2923(9) 0.6016(8) 0.7007(6) 0.0530 Uiso
C116 C 0.8468(8) 0.4690(7) 0.6676(5) 0.0470 Uiso
C117 C 0.8928(9) 0.2285(8) 0.6457(6) 0.0510 Uiso
H80 H 0.9399 0.1958 0.6421 0.0610 Uiso
C122 C 0.3615(8) 0.3154(7) 0.6901(5) 0.0460 Uiso
H82 H 0.3136 0.3473 0.6972 0.0560 Uiso
C123 C 0.8538(9) 0.0281(8) 0.6894(6) 0.0520 Uiso
H83 H 0.8235 0.0454 0.7230 0.0620 Uiso
C126 C 0.3609(9) 0.0445(8) 0.7192(6) 0.0560 Uiso
H86 H 0.3671 0.0654 0.7517 0.0670 Uiso
C127 C 0.4745(9) 0.4121(8) 0.6877(6) 0.0500 Uiso
C128 C 0.4751(8) 0.1349(7) 0.6615(5) 0.0480 Uiso
C129 C 0.3766(8) 0.5070(7) 0.7488(5) 0.0440 Uiso
H87 H 0.3929 0.4865 0.7812 0.0530 Uiso
C130 C 0.8898(8) 0.0384(7) 0.5885(6) 0.0490 Uiso
H88 H 0.8831 0.0638 0.5546 0.0580 Uiso
C131 C 0.3927(8) 0.0457(7) 0.6187(6) 0.0500 Uiso
H89 H 0.4214 0.0681 0.5836 0.0600 Uiso
C132 C 0.6683(10) 0.0317(10) 0.6392(7) 0.0700 Uiso
C133 C 0.5857(9) 0.5137(8) 0.6854(6) 0.0530 Uiso
H91 H 0.5504 0.5574 0.6895 0.0640 Uiso
C135 C 0.5870(8) 0.0334(8) 0.6438(6) 0.0530 Uiso
C137 C 0.3619(9) 0.2361(8) 0.6822(6) 0.0550 Uiso
H93 H 0.3154 0.2047 0.6819 0.0660 Uiso
C138 C 0.7850(8) 0.4105(7) 0.6661(5) 0.0490 Uiso
C139 C 0.7810(9) 0.1306(8) 0.6402(6) 0.0520 Uiso
C140 C 0.6701(9) 0.5135(8) 0.6827(6) 0.0590 Uiso
H94 H 0.7029 0.5557 0.6871 0.0700 Uiso
C141 C 0.8459(8) 0.0641(8) 0.6379(6) 0.0520 Uiso
C144 C 0.8529(9) 0.4961(8) 0.7146(6) 0.0610 Uiso
H96 H 0.8171 0.4743 0.7476 0.0730 Uiso
C149 C 0.3260(8) 0.5741(7) 0.6526(6) 0.0500 Uiso
H100 H 0.3084 0.5965 0.6212 0.0600 Uiso
C150 C 0.9121(8) 0.5584(7) 0.7192(6) 0.0510 Uiso
H101 H 0.9140 0.5767 0.7534 0.0610 Uiso
C152 C 0.3874(9) 0.5129(8) 0.6444(6) 0.0580 Uiso
H105 H 0.4109 0.4962 0.6093 0.0690 Uiso
C184 C 0.2288(8) 0.6619(8) 0.7138(6) 0.0500 Uiso
O27 O 0.2162(4) 0.8665(4) 0.6332(3) 0.0338 Uiso
N18 N 0.2166(7) 0.7604(6) 0.5485(5) 0.0520 Uiso
O32 O 0.1871(5) 0.8629(5) 0.7284(4) 0.0470 Uiso
C101 C 0.3027(8) 0.9840(8) 0.7231(6) 0.0520 Uiso
H74 H 0.2731 0.9630 0.7584 0.0620 Uiso
C106 C 0.3350(9) 0.9863(8) 0.6221(6) 0.0560 Uiso
H75 H 0.3270 0.9673 0.5894 0.0670 Uiso
C111 C 0.9101(8) 0.9639(7) 0.6886(5) 0.0470 Uiso
H79 H 0.9155 0.9378 0.7226 0.0570 Uiso
C119 C 0.9563(8) 0.9391(7) 0.6405(5) 0.0460 Uiso
C120 C 0.9439(9) 0.9752(8) 0.5885(6) 0.0600 Uiso
H81 H 0.9718 0.9563 0.5548 0.0720 Uiso
H90 H 0.7025 0.9875 0.6345 0.0840 Uiso
C134 C 0.2876(7) 0.9538(7) 0.6748(5) 0.0420 Uiso
H92 H 0.5525 0.9914 0.6412 0.0630 Uiso
C166 C 0.2232(8) 0.8882(8) 0.6763(6) 0.0510 Uiso
Ni8 Ni 0.62543(18) 0.80188(15) 0.18773(13) 0.0774 Uani
C142 C 0.8020(9) 0.8115(9) 0.0115(6) 0.0620 Uiso
H95 H 0.8454 0.8489 0.0038 0.0740 Uiso
C143 C 0.6759(11) 0.6977(9) 0.0372(7) 0.0720 Uiso
O23 O 0.6228(8) 0.7554(7) 0.1237(5) 0.0860 Uiso
C145 C 0.7639(11) 0.8647(10) 0.1040(7) 0.0720 Uiso
H97 H 0.8074 0.9018 0.0918 0.0860 Uiso
C146 C 0.7419(10) 0.8108(9) 0.0608(6) 0.0640 Uiso
C148 C 0.7496(11) 0.9131(10) 0.1938(7) 0.0760 Uiso
H99 H 0.7153 0.9608 0.1926 0.0910 Uiso
C151 C 0.5172(13) 0.6755(12) 0.0586(9) 0.0950 Uiso
H102 H 0.4706 0.6409 0.0764 0.1430 Uiso
H103 H 0.5134 0.6915 0.0208 0.1430 Uiso
H104 H 0.5149 0.7211 0.0790 0.1430 Uiso
C153 C 0.1843(11) 0.7461(9) 0.5034(7) 0.0710 Uiso
H106 H 0.1258 0.7389 0.5090 0.0860 Uiso
C154 C 0.5862(11) 0.8124(10) 0.3062(7) 0.0740 Uiso
H107 H 0.6071 0.8168 0.3381 0.0880 Uiso
C155 C 0.6077(13) 0.6297(12) 0.0580(9) 0.0900 Uiso
N15 N 0.6389(9) 0.8337(8) 0.2558(6) 0.0770 Uiso
C156 C 0.7223(12) 0.8721(10) 0.2491(7) 0.0800 Uiso
H108 H 0.7632 0.8296 0.2513 0.0960 Uiso
C157 C 0.5041(14) 0.7846(12) 0.3141(9) 0.0930 Uiso
C158 C 0.6774(11) 0.7560(10) 0.0775(7) 0.0740 Uiso
C159 C 0.6062(15) 0.5881(13) 0.1068(9) 0.1030 Uiso
H109 H 0.6563 0.5561 0.1034 0.1540 Uiso
H110 H 0.5564 0.5549 0.1168 0.1540 Uiso
H111 H 0.6047 0.6230 0.1353 0.1540 Uiso
C160 C 0.6114(14) 0.5807(13) 0.0032(9) 0.0990 Uiso
H112 H 0.6518 0.5388 0.0031 0.1480 Uiso
H114 H 0.5561 0.5591 0.0050 0.1480 Uiso
C161 C 0.8407(9) 0.9371(10) 0.1759(8) 0.1050 Uiso
C163 C 0.2361(11) 0.7415(10) 0.4482(8) 0.0780 Uiso
H115 H 0.2107 0.7318 0.4191 0.0930 Uiso
C164 C 0.3039(9) 0.7620(8) 0.5360(6) 0.0590 Uiso
H116 H 0.3308 0.7682 0.5650 0.0710 Uiso
O26 O 0.5216(8) 0.7533(7) 0.2171(6) 0.0910 Uiso
C165 C 0.3536(10) 0.7552(9) 0.4842(6) 0.0660 Uiso
H117 H 0.4124 0.7532 0.4799 0.0790 Uiso
N17 N 0.7246(8) 0.8590(8) 0.1546(6) 0.0720 Uiso
C167 C 0.4762(11) 0.7511(10) 0.2693(7) 0.0710 Uiso
C168 C 0.3424(13) 0.7233(11) 0.3381(8) 0.0860 Uiso
H118 H 0.2858 0.7070 0.3455 0.1030 Uiso
C169 C 0.3712(10) 0.7485(9) 0.3814(7) 0.0700 Uiso
C170 C 0.7251(9) 0.9226(8) 0.2978(6) 0.0780 Uiso
C171 C 0.3203(10) 0.7510(9) 0.4380(7) 0.0640 Uiso
C172 C 0.3912(12) 0.7200(11) 0.2827(8) 0.0840 Uiso
C173 C 0.3533(15) 0.6895(13) 0.2344(10) 0.1030 Uiso
C174 C 0.3493(17) 0.7628(15) 0.1893(11) 0.1210 Uiso
H119 H 0.3975 0.7967 0.1860 0.1810 Uiso
H120 H 0.2978 0.7916 0.2014 0.1810 Uiso
H121 H 0.3501 0.7442 0.1535 0.1810 Uiso
C175 C 0.6733(9) 0.9871(9) 0.3064(6) 0.0970 Uiso
H122 H 0.6320 0.9971 0.2857 0.1170 Uiso
C177 C 0.2605(17) 0.6622(16) 0.2555(11) 0.1260 Uiso
H124 H 0.2366 0.6539 0.2241 0.1880 Uiso
H125 H 0.2283 0.7017 0.2765 0.1880 Uiso
H126 H 0.2583 0.6140 0.2792 0.1880 Uiso
C179 C 0.7863(12) 0.9072(10) 0.3287(9) 0.1330 Uiso
H128 H 0.8201 0.8627 0.3236 0.1600 Uiso
C180 C 0.9039(12) 0.8810(9) 0.1692(9) 0.1260 Uiso
H129 H 0.8892 0.8280 0.1758 0.1510 Uiso
C181 C 0.4539(13) 0.7753(12) 0.3652(9) 0.0940 Uiso
H130 H 0.4780 0.7888 0.3940 0.1120 Uiso
C182 C 0.4026(18) 0.6192(16) 0.2120(12) 0.1300 Uiso
H131 H 0.3675 0.5730 0.2230 0.1940 Uiso
H132 H 0.4526 0.6129 0.2269 0.1940 Uiso
H133 H 0.4190 0.6270 0.1717 0.1940 Uiso
C183 C 0.7971(12) 0.9581(11) 0.3671(8) 0.1170 Uiso
H134 H 0.8393 0.9488 0.3872 0.1410 Uiso
C186 C 0.9888(11) 0.9032(12) 0.1526(11) 0.1810 Uiso
C185 C 0.0104(10) 0.9824(14) 0.1452(12) 0.1490 Uiso
H135 H 0.0673 0.9977 0.1380 0.1780 Uiso
H136 H 0.0311 0.8653 0.1466 0.2170 Uiso
C176 C 0.6824(12) 0.0371(9) 0.3459(8) 0.1290 Uiso
H123 H 0.6465 0.0800 0.3523 0.1540 Uiso
C178 C 0.7450(13) 0.0231(11) 0.3757(8) 0.1280 Uiso
H127 H 0.7521 0.0573 0.4016 0.1540 Uiso
C187 C 0.8623(12) 0.0160(10) 0.1656(11) 0.1340 Uiso
H137 H 0.8199 0.0540 0.1701 0.1610 Uiso
C188 C 0.9472(14) 0.0383(10) 0.1484(13) 0.1630 Uiso
H138 H 0.9617 0.0911 0.1390 0.1950 Uiso
C97 C 0.9592(9) 0.6937(8) 0.8501(6) 0.0520 Uiso
H72 H 0.9790 0.6468 0.8357 0.0620 Uiso
C107 C 0.8971(9) 0.6929(9) 0.8977(6) 0.0590 Uiso
H76 H 0.8736 0.6450 0.9152 0.0710 Uiso
C121 C 0.8680(8) 0.7614(8) 0.9208(6) 0.0520 Uiso
C124 C 0.9605(8) 0.8369(7) 0.8429(5) 0.0460 Uiso
H84 H 0.9768 0.8858 0.8239 0.0560 Uiso
C125 C 0.9033(10) 0.8318(9) 0.8914(6) 0.0630 Uiso
H85 H 0.8852 0.8784 0.9070 0.0750 Uiso
C136 C 0.8004(11) 0.7596(10) 0.9735(7) 0.0710 Uiso
C147 C 0.7375(10) 0.7014(9) 0.9903(7) 0.0670 Uiso
H98 H 0.7386 0.6616 0.9668 0.0800 Uiso
H113 H 0.6285 0.6154 0.9695 0.1480 Uiso
N16 N 0.9955(8) 0.7698(7) 0.8210(5) 0.0610 Uiso
loop_
_atom_site_aniso_label
_atom_site_aniso_U_11
_atom_site_aniso_U_22
_atom_site_aniso_U_33
_atom_site_aniso_U_23
_atom_site_aniso_U_13
_atom_site_aniso_U_12
Cd5 0.0283 0.0272 0.1029 -0.022 -0.005 -0.002
Ni5 0.0243 0.0252 0.0721 -0.013 -0.0015 -0.0011
Ni2 0.0655 0.0524 0.0944 -0.0208 -0.0057 -0.0157
Cd9 0.0274 0.0375 0.1002 -0.0158 -0.0029 0.0003
Ni12 0.0193 0.0152 0.0864 -0.0171 -0.0055 0.0007
Ni7 0.0423 0.0452 0.148 -0.018 -0.0174 -0.0044
Ni8 0.0712 0.0648 0.0902 -0.0265 0.0031 -0.0218
loop_
_geom_bond_atom_site_label_1
_geom_bond_atom_site_label_2
_geom_bond_site_symmetry_1
_geom_bond_site_symmetry_2
O2 C33 1_555 1_555
O3 C33 1_555 1_555
O16 C46 1_555 1_555
Cd5 O3 1_555 1_555
Ni5 O2 1_555 1_555
Ni2 O8 1_555 1_555
C2 H3 1_555 1_555
C5 H4 1_555 1_555
C36 C47 1_555 1_555
C44 C60 1_555 1_555
C45 H24 1_555 1_555
C47 C45 1_555 1_555
C51 C59 1_555 1_555
C52 C47 1_555 1_555
H27 C52 1_555 1_555
C55 C72 1_555 1_555
C56 C2 1_555 1_555
H29 C56 1_555 1_555
O8 C62 1_555 1_555
C58 H31 1_555 1_555
C59 O9 1_555 1_555
C60 C61 1_555 1_555
C61 H32 1_555 1_555
C62 C72 1_555 1_555
C64 N5 1_555 1_555
H34 C64 1_555 1_555
N6 Ni2 1_555 1_555
O9 Ni2 1_555 1_555
C65 C58 1_555 1_555
H35 C65 1_555 1_555
N9 C2 1_555 1_555
C66 C44 1_555 1_555
H36 C66 1_555 1_555
C67 N5 1_555 1_555
H37 C67 1_555 1_555
C68 C58 1_555 1_555
C69 H38 1_555 1_555
C70 C60 1_555 1_555
H39 C70 1_555 1_555
C71 C44 1_555 1_555
H40 C71 1_555 1_555
C72 C52 1_555 1_555
C73 C5 1_555 1_555
H41 C73 1_555 1_555
C74 C59 1_555 1_555
N8 Ni2 1_555 1_555
C75 C45 1_555 1_555
C76 N6 1_555 1_555
H42 C76 1_555 1_555
C78 C55 1_555 1_555
H46 C78 1_555 1_555
H47 C78 1_555 1_555
H48 C78 1_555 1_555
C81 C65 1_555 1_555
C83 C51 1_555 1_555
C84 H58 1_555 1_555
C85 C84 1_555 1_555
H59 C85 1_555 1_555
C86 C81 1_555 1_555
H60 C86 1_555 1_555
C87 C81 1_555 1_555
H61 C87 1_555 1_555
C88 C85 1_555 1_555
H62 C88 1_555 1_555
C89 C83 1_555 1_555
H63 C89 1_555 1_555
H64 C89 1_555 1_555
H65 C89 1_555 1_555
C90 H66 1_555 1_555
C91 C68 1_555 1_555
H67 C91 1_555 1_555
C92 C90 1_555 1_555
H68 C92 1_555 1_555
C93 C68 1_555 1_555
H69 C93 1_555 1_555
C94 C91 1_555 1_555
H70 C94 1_555 1_555
C5 N9 1_555 1_555
C36 C56 1_555 1_555
C36 C73 1_555 1_555
C51 C66 1_555 1_555
C58 N8 1_555 1_555
C61 C64 1_555 1_555
C62 C75 1_555 1_555
N6 C65 1_555 1_555
C67 C70 1_555 1_555
C69 N8 1_555 1_555
C69 C75 1_555 1_555
C71 C74 1_555 1_555
C74 C76 1_555 1_555
C84 C86 1_555 1_555
C87 C88 1_555 1_555
C90 C93 1_555 1_555
C92 C94 1_555 1_555
Cd5 O5 1_555 1_555
Ni5 O6 1_555 1_555
O11 C24 1_555 1_555
N1 H1 1_555 1_555
O5 C14 1_555 1_555
N2 H2 1_555 1_555
O6 C14 1_555 1_555
N3 C1 1_555 1_555
C1 C18 1_555 1_555
N4 C8 1_555 1_555
C3 N3 1_555 1_555
C4 C14 1_555 1_555
C6 N2 1_555 1_555
C7 C10 1_555 1_555
C8 C13 1_555 1_555
C9 N2 1_555 1_555
C10 N1 1_555 1_555
C11 C34 1_555 1_555
C12 N4 1_555 1_555
C13 C9 1_555 1_555
C15 H5 1_555 1_555
C16 C4 1_555 1_555
H6 C16 1_555 1_555
C17 C8 1_555 1_555
H7 C17 1_555 1_555
C18 C20 1_555 1_555
C19 C1 1_555 1_555
H8 C19 1_555 1_555
C20 C39 1_555 1_555
C21 H9 1_555 1_555
C22 H10 1_555 1_555
C23 C3 1_555 1_555
H11 C23 1_555 1_555
C24 C54 1_555 1_555
C25 C7 1_555 1_555
C26 N1 1_555 1_555
C27 C13 1_555 1_555
C28 C27 1_555 1_555
H12 C28 1_555 1_555
C29 C21 1_555 1_555
C30 C12 1_555 1_555
H13 C30 1_555 1_555
C31 C9 1_555 1_555
H14 C31 1_555 1_555
C32 C10 1_555 1_555
H15 C32 1_555 1_555
C34 C3 1_555 1_555
C35 C27 1_555 1_555
H16 C35 1_555 1_555
C37 H17 1_555 1_555
C38 C35 1_555 1_555
H18 C38 1_555 1_555
C39 C16 1_555 1_555
H19 C39 1_555 1_555
C40 C25 1_555 1_555
H20 C40 1_555 1_555
C41 C4 1_555 1_555
H21 C41 1_555 1_555
C42 C6 1_555 1_555
H22 C42 1_555 1_555
C43 C22 1_555 1_555
H23 C43 1_555 1_555
C48 C38 1_555 1_555
C49 C20 1_555 1_555
H25 C49 1_555 1_555
C50 C11 1_555 1_555
H26 C50 1_555 1_555
C53 C29 1_555 1_555
H28 C53 1_555 1_555
C54 C37 1_555 1_555
C57 C11 1_555 1_555
H30 C57 1_555 1_555
C63 C28 1_555 1_555
H33 C63 1_555 1_555
O14 Ni5 1_555 1_555
O15 Ni5 1_555 1_555
C6 C34 1_555 1_555
C7 C12 1_555 1_555
C15 C26 1_555 1_555
C15 C32 1_555 1_555
C17 C30 1_555 1_555
C18 C26 1_555 1_555
C19 C23 1_555 1_555
C21 C50 1_555 1_555
C22 C25 1_555 1_555
C31 C42 1_555 1_555
C37 C40 1_555 1_555
C41 C49 1_555 1_555
C43 C54 1_555 1_555
C48 C63 1_555 1_555
C53 C57 1_555 1_555
H43 C77 1_555 1_555
H44 C77 1_555 1_555
H45 C77 1_555 1_555
H49 C79 1_555 1_555
H50 C79 1_555 1_555
H51 C79 1_555 1_555
C80 H52 1_555 1_555
H53 C80 1_555 1_555
H54 C80 1_555 1_555
C82 H55 1_555 1_555
H56 C82 1_555 1_555
O18 C118 1_555 1_555
O21 C118 1_555 1_555
Cd9 O18 1_555 1_555
Ni12 O21 1_555 1_555
O22 C162 1_555 1_555
O24 C162 1_555 1_555
Cd9 O24 1_555 1_555
Ni12 O22 1_555 1_555
Cd9 O20 1_555 1_555
Ni12 O19 1_555 1_555
Ni7 N10 1_555 1_555
O19 C184 1_555 1_555
O20 C184 1_555 1_555
N10 C109 1_555 1_555
N11 Ni7 1_555 1_555
N12 Ni7 1_555 1_555
N13 Ni7 1_555 1_555
C96 N12 1_555 1_555
C98 N13 1_555 1_555
C99 N11 1_555 1_555
C100 H73 1_555 1_555
C102 N13 1_555 1_555
C103 C95 1_555 1_555
C104 N11 1_555 1_555
C105 N12 1_555 1_555
C108 C95 1_555 1_555
H77 C108 1_555 1_555
C109 C132 1_555 1_555
C110 C104 1_555 1_555
H78 C110 1_555 1_555
C112 N10 1_555 1_555
C113 C127 1_555 1_555
C114 C126 1_555 1_555
C115 C100 1_555 1_555
C116 C108 1_555 1_555
C117 C99 1_555 1_555
H80 C117 1_555 1_555
C122 C96 1_555 1_555
H82 C122 1_555 1_555
H83 C123 1_555 1_555
H86 C126 1_555 1_555
C127 C96 1_555 1_555
C128 C105 1_555 1_555
C129 C100 1_555 1_555
H87 C129 1_555 1_555
H88 C130 1_555 1_555
H89 C131 1_555 1_555
C133 C102 1_555 1_555
H91 C133 1_555 1_555
C135 C112 1_555 1_555
C137 C105 1_555 1_555
H93 C137 1_555 1_555
C138 C98 1_555 1_555
C139 C99 1_555 1_555
C140 C98 1_555 1_555
H94 C140 1_555 1_555
C141 C123 1_555 1_555
C144 C116 1_555 1_555
H96 C144 1_555 1_555
C149 C115 1_555 1_555
H100 C149 1_555 1_555
C150 C103 1_555 1_555
H101 C150 1_555 1_555
C152 C113 1_555 1_555
H105 C152 1_555 1_555
C184 C115 1_555 1_555
O27 Ni12 1_555 1_555
N18 Ni12 1_555 1_555
O32 Cd9 1_555 1_555
C102 C127 1_555 1_555
C104 C138 1_555 1_555
C109 C139 1_555 1_555
C110 C117 1_555 1_555
C112 C128 1_555 1_555
C113 C129 1_555 1_555
C114 C128 1_555 1_555
C114 C131 1_555 1_555
C116 C138 1_555 1_555
C122 C137 1_555 1_555
C130 C141 1_555 1_555
C132 C135 1_555 1_555
C133 C140 1_555 1_555
C139 C141 1_555 1_555
C144 C150 1_555 1_555
C149 C152 1_555 1_555
O27 C166 1_555 1_555
C101 H74 1_555 1_555
C106 H75 1_555 1_555
C111 H79 1_555 1_555
C119 C111 1_555 1_555
C120 C119 1_555 1_555
H81 C120 1_555 1_555
C134 C101 1_555 1_555
O32 C166 1_555 1_555
C166 C134 1_555 1_555
C106 C134 1_555 1_555
Ni8 O23 1_555 1_555
N18 C153 1_555 1_555
H95 C142 1_555 1_555
O23 C158 1_555 1_555
C145 H97 1_555 1_555
C146 C142 1_555 1_555
C148 H99 1_555 1_555
C151 H102 1_555 1_555
H103 C151 1_555 1_555
H104 C151 1_555 1_555
C153 H106 1_555 1_555
C154 H107 1_555 1_555
C155 C143 1_555 1_555
N15 Ni8 1_555 1_555
C156 C148 1_555 1_555
H108 C156 1_555 1_555
C157 C154 1_555 1_555
C158 C143 1_555 1_555
C159 C155 1_555 1_555
H109 C159 1_555 1_555
H110 C159 1_555 1_555
H111 C159 1_555 1_555
C160 C155 1_555 1_555
H112 C160 1_555 1_555
H114 C160 1_555 1_555
C161 C148 1_555 1_555
C163 C153 1_555 1_555
H115 C163 1_555 1_555
C164 N18 1_555 1_555
H116 C164 1_555 1_555
O26 Ni8 1_555 1_555
C165 C164 1_555 1_555
H117 C165 1_555 1_555
N17 Ni8 1_555 1_555
C167 C157 1_555 1_555
C168 H118 1_555 1_555
C169 C168 1_555 1_555
C170 C156 1_555 1_555
C171 C163 1_555 1_555
C172 C167 1_555 1_555
C173 C172 1_555 1_555
C174 C173 1_555 1_555
H119 C174 1_555 1_555
H120 C174 1_555 1_555
H121 C174 1_555 1_555
C175 C170 1_555 1_555
H122 C175 1_555 1_555
C177 C173 1_555 1_555
H124 C177 1_555 1_555
H125 C177 1_555 1_555
H126 C177 1_555 1_555
C179 C170 1_555 1_555
H128 C179 1_555 1_555
C180 C161 1_555 1_555
H129 C180 1_555 1_555
C181 C157 1_555 1_555
H130 C181 1_555 1_555
C182 C173 1_555 1_555
H131 C182 1_555 1_555
H132 C182 1_555 1_555
H133 C182 1_555 1_555
H134 C183 1_555 1_555
C186 C180 1_555 1_555
C145 C146 1_555 1_555
C145 N17 1_555 1_555
C146 C158 1_555 1_555
C148 N17 1_555 1_555
C151 C155 1_555 1_555
C154 N15 1_555 1_555
N15 C156 1_555 1_555
O26 C167 1_555 1_555
C165 C171 1_555 1_555
C168 C172 1_555 1_555
C169 C171 1_555 1_555
C169 C181 1_555 1_555
C179 C183 1_555 1_555
C185 H135 1_555 1_555
H123 C176 1_555 1_555
C178 C176 1_555 1_555
H127 C178 1_555 1_555
H137 C187 1_555 1_555
H138 C188 1_555 1_555
C187 C188 1_555 1_555
C97 H72 1_555 1_555
C107 C97 1_555 1_555
H76 C107 1_555 1_555
C121 C107 1_555 1_555
C124 H84 1_555 1_555
C125 C121 1_555 1_555
H85 C125 1_555 1_555
C136 C121 1_555 1_555
C147 C136 1_555 1_555
H98 C147 1_555 1_555
C97 N16 1_555 1_555
C124 C125 1_555 1_555
C124 N16 1_555 1_555

#END
