
###############################################################################
#
# This file contains modified crystal structure data generated from the
# MOF subset of the Cambridge Structural Database (CSD) v543 
# hosted by the Cambridge Crystallographic Data Centre (CCDC).
#
# This work is licensed under the Creative Commons
# Attribution-NonCommercial-ShareAlike 4.0 International License.
# To view a copy of this license, visit
# http://creativecommons.org/licenses/by-nc-sa/4.0/
# or send a letter to
# Creative Commons, PO Box 1866, Mountain View, CA 94042, USA.
#
# CIF created using the CSD Python API on 29 September 2022
# The structure has been converted into the P1 space group
# The structure has a 3D framework
# The original CSD entry MEQXEO is in the triclinic crystal system
# The original CSD entry MEQXEO is in a Sohncke space group
# The framework has been calculated to contain at least 10.0% void space
# The void calculation uses a probe of radius 1.32A, grid spacing 0.4
# H atom positions have been added when not included in the experimental data
#
###############################################################################

data_MEQXEO
_chemical_formula_moiety         '(C189 H138 Cd2 Co3 N16 Ni2 O20)n'
_symmetry_cell_setting           triclinic
_symmetry_space_group_name_H-M   'P 1'
_symmetry_Int_Tables_number      1
_space_group_name_Hall           'P 1'
loop_
_symmetry_equiv_pos_site_id
_symmetry_equiv_pos_as_xyz
1 x,y,z
_cell_length_a                   16.2124(5)
_cell_length_b                   17.1359(5)
_cell_length_c                   24.4509(9)
_cell_angle_alpha                84.047(3)
_cell_angle_beta                 77.670(3)
_cell_angle_gamma                89.342(2)
_cell_volume                     6599.94
loop_
_atom_site_label
_atom_site_type_symbol
_atom_site_fract_x
_atom_site_fract_y
_atom_site_fract_z
O5 O 0.3258(6) 0.5966(6) 0.0405(4)
N1 N 0.0240(6) 0.1781(5) 0.1004(4)
C5 C 0.0695(7) 0.2469(7) 0.0949(5)
C10 C 0.0745(8) 0.1176(7) 0.0912(5)
C12 C 0.1609(9) 0.1444(8) 0.0819(6)
H4 H 0.2090 0.1139 0.0746
C16 C 0.0421(9) 0.3160(8) 0.1157(6)
C17 C 0.2241(7) 0.5062(7) 0.0952(5)
C18 C 0.2891(7) 0.5690(7) 0.0915(5)
C20 C 0.2116(8) 0.4735(8) 0.0457(6)
H5 H 0.2393 0.4919 0.0093
C21 C 0.1129(10) 0.3808(10) 0.1064(7)
C23 C 0.1770(8) 0.4752(7) 0.1473(5)
H7 H 0.1847 0.4952 0.1798
C26 C 0.0481(8) 0.0396(7) 0.0913(5)
C28 C 0.1584(8) 0.2228(7) 0.0861(5)
H10 H 0.2047 0.2556 0.0837
C31 C 0.1563(9) 0.4140(9) 0.0573(7)
H12 H 0.1465 0.3922 0.0259
C40 C 0.1170(9) 0.4133(8) 0.1516(6)
H19 H 0.0817 0.3965 0.1859
O8 O 0.2967(5) 0.5916(5) 0.1363(3)
Cd5 Cd 0.42756(5) 0.68297(4) 0.03333(4)
Co4 Co 0.37685(12) 0.67197(11) 0.15849(8)
O3 O 0.3074(5) 0.7596(5) 0.1225(4)
O4 O 0.3306(5) 0.7783(5) 0.0294(3)
C1 C 0.2368(8) 0.8584(7) 0.0816(5)
C2 C 0.3010(8) 0.7894(8) 0.0773(6)
C6 C 0.2066(8) 0.8897(7) 0.0326(5)
C14 C 0.1156(10) 0.9790(9) 0.0903(6)
C27 C 0.1481(8) 0.9489(7) 0.0407(5)
H9 H 0.1289 0.9704 0.0092
C39 C 0.2084(8) 0.8908(8) 0.1272(6)
H18 H 0.2218 0.8687 0.1605
C44 C 0.1573(10) 0.9590(9) 0.1283(7)
H21 H 0.1541 0.9900 0.1577
H1 H 0.9698 0.1749 0.1088
N2 N 0.2993(6) 0.6776(5) 0.2345(4)
N3 N 0.8960(6) 0.0617(5) 0.1106(4)
N4 N 0.8906(6) 0.2902(6) 0.1248(4)
N5 N 0.7637(6) 0.1731(6) 0.1249(4)
H2 H 0.8178 0.1729 0.1145
O6 O 0.4609(7) 0.5894(7) 0.1703(5)
C3 C 0.7128(8) 0.1108(8) 0.1322(5)
C4 C 0.7152(8) 0.2377(7) 0.1366(5)
C7 C 0.9606(7) 0.3411(6) 0.1176(4)
C9 C 0.8282(8) 0.0148(7) 0.1090(5)
C11 C 0.6731(10) 0.3771(9) 0.1371(6)
C13 C 0.9670(9) 0.0179(8) 0.0951(6)
C15 C 0.8192(11) 0.3399(10) 0.1296(7)
C19 C 0.7462(7) 0.0327(7) 0.1238(5)
C22 C 0.5621(12) 0.4578(11) 0.1871(8)
H6 H 0.5278 0.4716 0.2202
C24 C 0.7329(9) 0.3123(9) 0.1312(6)
C25 C 0.6288(9) 0.2121(8) 0.1355(5)
H8 H 0.5812 0.2436 0.1381
C29 C 0.6320(10) 0.1335(9) 0.1300(6)
H11 H 0.5882 0.1017 0.1256
C30 C 0.5615(8) 0.5004(8) 0.1304(5)
C32 C 0.8482(10) 0.4185(9) 0.1358(6)
H13 H 0.8138 0.4608 0.1457
C33 C 0.6198(8) 0.3943(8) 0.1856(6)
H14 H 0.6212 0.3633 0.2190
C34 C 0.6656(9) 0.4203(8) 0.0843(6)
H15 H 0.7000 0.4078 0.0508
C35 C 0.9309(10) 0.4190(9) 0.1250(6)
H16 H 0.9650 0.4631 0.1225
C36 C 0.1834(10) 0.6860(9) 0.3371(6)
C37 C 0.5025(10) 0.5666(9) 0.1259(7)
C38 C 0.6106(8) 0.4771(7) 0.0833(5)
H17 H 0.6053 0.5022 0.0486
C42 C 0.3003(9) 0.7380(9) 0.2651(6)
H20 H 0.3420 0.7762 0.2515
C43 C 0.1147(11) 0.6935(10) 0.3922(7)
C45 C 0.0718(11) 0.7414(10) 0.4819(7)
C46 C 0.2437(10) 0.7488(10) 0.3162(7)
H22 H 0.2451 0.7932 0.3349
C47 C 0.0529(13) 0.6414(12) 0.3996(9)
H23 H 0.0497 0.6085 0.3721
O7 O 0.4920(6) 0.5884(6) 0.0770(4)
C48 C 0.1325(12) 0.7389(10) 0.4343(7)
H24 H 0.1836 0.7657 0.4293
C69 C 0.2483(8) 0.6182(8) 0.2587(6)
H37 H 0.2517 0.5725 0.2409
C70 C 0.1895(9) 0.6204(8) 0.3096(6)
H38 H 0.1547 0.5772 0.3245
N8 N 0.0333(9) 0.8009(9) 0.5681(6)
C74 C 0.0004(10) 0.8712(9) 0.6487(7)
H48 H 0.0232 0.8714 0.6827
C79 C 0.0887(12) 0.7913(11) 0.5161(7)
H58 H 0.1384 0.8208 0.5057
C81 C 0.1226(15) 0.8096(14) 0.6376(11)
C82 C 0.2096(16) 0.8130(13) 0.6189(8)
H59 H 0.2330 0.8427 0.5852
C83 C 0.0890(14) 0.7662(19) 0.6885(12)
H60 H 0.0307 0.7631 0.7016
C84 C 0.228(2) 0.732(2) 0.7014(14)
H61 H 0.2633 0.7087 0.7235
C85 C 0.141(3) 0.727(2) 0.7199(10)
H62 H 0.1180 0.6979 0.7537
C86 C 0.2619(13) 0.773(2) 0.6495(15)
H63 H 0.3199 0.7731 0.6353
C94 C 0.0596(12) 0.8570(12) 0.6021(9)
H70 H 0.0851 0.9049 0.5799
O11 O 0.5045(6) 0.7682(5) 0.0693(4)
O12 O 0.4578(6) 0.7600(5) 0.1619(4)
C8 C 0.5050(8) 0.7884(7) 0.1149(5)
C49 C 0.5683(9) 0.8534(9) 0.1169(6)
C50 C 0.5607(10) 0.8882(9) 0.1609(6)
H25 H 0.5143 0.8756 0.1900
C52 C 0.6214(9) 0.9479(9) 0.1687(6)
H26 H 0.6184 0.9682 0.2029
C53 C 0.6830(7) 0.9367(7) 0.0694(5)
H27 H 0.7249 0.9514 0.0377
C54 C 0.6807(9) 0.9702(8) 0.1230(6)
C60 C 0.8602(13) 0.9333(12) 0.1127(8)
H31 H 0.8274 0.8879 0.1235
C66 C 0.9400(10) 0.9364(9) 0.0984(6)
H35 H 0.9754 0.8939 0.0912
C87 C 0.6215(8) 0.8832(8) 0.0679(6)
H64 H 0.6159 0.8671 0.0336
H3 H 0.2253 0.8712 0.9977
N9 N 0.5238(6) 0.6873(6) 0.9548(4)
C41 C 0.9977(10) 0.6907(10) 0.4877(7)
C51 C 0.7135(10) 0.5739(9) 0.6632(7)
C55 C 0.7282(8) 0.6373(7) 0.7009(5)
C56 C 0.6787(9) 0.6409(8) 0.7541(5)
H28 H 0.6353 0.6041 0.7663
C57 C 0.6136(9) 0.6242(9) 0.8807(6)
H29 H 0.6432 0.5788 0.8718
C58 C 0.5498(10) 0.6210(10) 0.9286(7)
H30 H 0.5239 0.5731 0.9435
C59 C 0.6888(9) 0.6959(8) 0.7911(6)
C61 C 0.6339(9) 0.6915(9) 0.8466(6)
C62 C 0.7951(9) 0.6939(8) 0.6832(6)
O9 O 0.8440(6) 0.6942(6) 0.6318(4)
O10 O 0.9434(7) 0.6922(6) 0.5422(4)
C63 C 0.6127(8) 0.7612(8) 0.8727(5)
H32 H 0.6289 0.8107 0.8544
C64 C 0.5643(10) 0.7499(9) 0.9298(6)
H33 H 0.5620 0.7924 0.9508
C65 C 0.7512(8) 0.7515(8) 0.7731(5)
H34 H 0.7559 0.7902 0.7963
C67 C 0.8097(8) 0.7526(7) 0.7198(5)
N7 N 0.9291(8) 0.8113(8) 0.6546(5)
C68 C 0.8734(9) 0.8107(9) 0.7041(6)
H36 H 0.8769 0.8489 0.7279
Ni1 Ni 0.93867(15) 0.74879(14) 0.59939(10)
C71 C 0.6435(12) 0.5187(11) 0.6963(8)
H39 H 0.6667 0.4800 0.7199
H40 H 0.6183 0.4932 0.6707
H41 H 0.6014 0.5481 0.7192
C72 C 0.6982(11) 0.6087(10) 0.6089(7)
H42 H 0.6420 0.6294 0.6142
H43 H 0.7040 0.5693 0.5832
H44 H 0.7383 0.6503 0.5938
C73 C 0.8962(13) 0.5358(12) 0.5134(8)
H45 H 0.8418 0.5106 0.5204
H46 H 0.8991 0.5663 0.5437
H47 H 0.9394 0.4967 0.5107
C75 C 0.7907(13) 0.5205(12) 0.6554(9)
H49 H 0.8413 0.5521 0.6455
H50 H 0.7890 0.4881 0.6259
H51 H 0.7903 0.4879 0.6898
C76 C 0.9062(15) 0.5426(14) 0.4084(9)
H52 H 0.9177 0.4879 0.4154
H53 H 0.9483 0.5659 0.3774
H54 H 0.8515 0.5486 0.3995
C77 C 0.9082(12) 0.5849(11) 0.4630(8)
C78 C 0.8306(14) 0.6447(13) 0.4701(9)
H55 H 0.7827 0.6202 0.4960
H56 H 0.8162 0.6585 0.4342
H57 H 0.8463 0.6913 0.4843
C80 C 0.9863(14) 0.6369(13) 0.4554(9)
C88 C 0.952(2) 0.9561(15) 0.6321(10)
H66 H 0.9099 0.9892 0.7109
C93 C 0.947(2) 0.9836(19) 0.5760(12)
H69 H 0.9598 0.9496 0.5482
C89 C 0.924(3) 0.059(2) 0.5620(17)
H65 H 0.9359 0.0792 0.5245
C90 C 0.913(2) 0.0057(16) 0.6731(14)
C91 C 0.884(3) 0.1044(16) 0.603(2)
H67 H 0.8602 0.1521 0.5936
C92 C 0.881(3) 0.0764(17) 0.659(2)
H68 H 0.8557 0.1068 0.6872
Ni2 Ni 0.11313(16) 0.35580(16) 0.41232(10)
N10 N 0.4744(7) 0.3249(6) 0.0450(4)
C95 C 0.4433(6) 0.2516(6) 0.0723(4)
H71 H 0.4660 0.2054 0.0589
C96 C 0.4451(6) 0.3900(6) 0.0675(4)
H72 H 0.4587 0.4382 0.0464
C97 C 0.3516(7) 0.3161(7) 0.1458(5)
C98 C 0.3793(8) 0.2495(8) 0.1190(6)
H73 H 0.3530 0.2016 0.1335
C101 C 0.3947(8) 0.3883(8) 0.1214(6)
H74 H 0.3891 0.4324 0.1410
C106 C 0.2256(9) 0.2567(9) 0.2130(6)
H79 H 0.2252 0.2213 0.1867
C107 C 0.2928(8) 0.3694(8) 0.2355(5)
H80 H 0.3338 0.4088 0.2251
C110 C 0.2895(8) 0.3132(8) 0.2013(5)
C111 C 0.1684(11) 0.3101(10) 0.3020(7)
O17 O 0.1174(8) 0.3115(7) 0.3527(5)
C112 C 0.0941(10) 0.1878(9) 0.2806(6)
C113 C 0.1596(10) 0.2495(9) 0.2636(7)
C114 C 0.2519(9) 0.4178(8) 0.3272(6)
H83 H 0.2956 0.4543 0.3149
N11 N 0.1213(8) 0.3898(8) 0.4790(6)
O18 O 0.0074(8) 0.3101(7) 0.4388(5)
C115 C 0.2341(9) 0.3682(8) 0.2870(6)
C116 C 0.0948(14) 0.1485(13) 0.3324(9)
H84 H 0.1369 0.1084 0.3283
H85 H 0.0404 0.1249 0.3482
H86 H 0.1077 0.1847 0.3569
N12 N 0.2097(8) 0.4154(7) 0.3816(5)
C167 C 0.2012(11) 0.4346(10) 0.4736(7)
H110 H 0.2420 0.3925 0.4766
C168 C 0.2304(10) 0.4690(10) 0.4182(7)
H111 H 0.1971 0.5164 0.4135
C169 C 0.2094(10) 0.4830(8) 0.5236(6)
C170 C 0.0158(15) 0.2228(14) 0.2834(10)
H112 H 0.0061 0.2574 0.3125
H114 H 0.0146 0.2521 0.2479
C172 C 0.3253(9) 0.4936(10) 0.3983(7)
C173 C 0.1041(12) 0.1357(11) 0.2338(8)
H116 H 0.0962 0.1660 0.2000
H117 H 0.0628 0.0941 0.2440
H118 H 0.1597 0.1138 0.2275
C175 C 0.1553(10) 0.5456(10) 0.5288(7)
H119 H 0.1174 0.5542 0.5052
C177 C 0.0735(10) 0.3740(9) 0.5321(6)
H123 H 0.0932 0.3879 0.5629
C178 C 0.2720(11) 0.4755(10) 0.5544(9)
H124 H 0.3093 0.4338 0.5502
C179 C 0.3886(11) 0.4399(8) 0.4002(8)
H125 H 0.3757 0.3865 0.4060
C180 C 0.4718(10) 0.4647(11) 0.3935(9)
H126 H 0.5142 0.4281 0.3954
C181 C 0.1579(11) 0.5959(9) 0.5695(8)
H127 H 0.1156 0.6326 0.5778
C183 C 0.2792(10) 0.5297(11) 0.5915(7)
H128 H 0.3213 0.5247 0.6121
C185 C 0.2231(13) 0.5913(11) 0.5977(8)
H132 H 0.2295 0.6296 0.6208
C186 C 0.3447(11) 0.5733(9) 0.3887(7)
H133 H 0.3021 0.6098 0.3873
C187 C 0.4911(10) 0.5439(13) 0.3841(10)
H134 H 0.5466 0.5609 0.3798
C188 C 0.4277(13) 0.5980(9) 0.3811(9)
H135 H 0.4410 0.6513 0.3740
C99 C 0.3213(8) 0.0315(7) 0.8862(5)
C100 C 0.4373(8) 0.1509(7) 0.8851(5)
C102 C 0.3219(10) 0.0545(9) 0.9343(7)
H75 H 0.2873 0.0306 0.9669
C103 C 0.3807(9) 0.0604(8) 0.8360(6)
H76 H 0.3815 0.0354 0.8039
C104 C 0.4363(8) 0.1212(8) 0.8312(6)
H77 H 0.4700 0.1416 0.7971
C105 C 0.0546(12) 0.0755(11) 0.8884(7)
H78 H 0.0224 0.1186 0.8799
C108 C 0.1450(8) 0.0704(8) 0.8963(5)
H81 H 0.1750 0.1100 0.9072
C109 C 0.3806(11) 0.1218(11) 0.9366(8)
H82 H 0.3800 0.1433 0.9701
O19 O 0.5404(6) 0.2455(6) 0.8446(4)
C117 C 0.4974(9) 0.2150(8) 0.8935(6)
O21 O 0.5000(5) 0.2319(5) 0.9396(3)
Co5 Co 0.62186(11) 0.33392(11) 0.84055(9)
Cd6 Cd 0.57253(5) 0.32380(4) 0.96701(4)
C154 C 0.1736(9) 0.0000(9) 0.8852(6)
O27 O 0.5409(6) 0.4192(6) 0.8156(4)
N18 N 0.6977(7) 0.3160(7) 0.7639(5)
O28 O 0.5072(6) 0.4062(6) 0.9116(4)
O29 O 0.6924(7) 0.2549(7) 0.8807(5)
O30 O 0.6950(6) 0.4203(5) 0.8576(4)
O31 O 0.6671(6) 0.2363(5) 0.9775(4)
O32 O 0.6657(5) 0.4223(5) 0.9510(3)
C119 C 0.0656(9) 0.5905(9) 0.8651(6)
H88 H 0.0340 0.5474 0.8610
C120 C 0.1511(10) 0.5910(10) 0.8684(6)
H89 H 0.1849 0.5477 0.8732
C121 C 0.4246(9) 0.5434(8) 0.8161(6)
H90 H 0.4589 0.5311 0.7826
C123 C 0.3672(8) 0.6027(8) 0.8114(6)
H91 H 0.3589 0.6251 0.7767
C125 C 0.4998(9) 0.4403(9) 0.8638(6)
C126 C 0.4363(9) 0.5027(8) 0.8617(6)
C127 C 0.0365(8) 0.6703(8) 0.8694(5)
C129 C 0.1754(7) 0.6721(7) 0.8628(5)
C130 C 0.3236(8) 0.6264(8) 0.8610(5)
C131 C 0.3916(12) 0.5250(11) 0.9135(8)
H92 H 0.3993 0.4984 0.9472
N14 N 0.1062(7) 0.7172(7) 0.8715(5)
C133 C 0.3296(10) 0.5943(9) 0.9140(7)
H93 H 0.2992 0.6124 0.9469
C135 C 0.2570(7) 0.6934(7) 0.8609(5)
C140 C 0.2816(8) 0.7684(8) 0.8709(5)
Co6 Co 0.10544(11) 0.83023(11) 0.88005(10)
N15 N 0.2304(6) 0.8309(6) 0.8696(4)
C143 C 0.3676(10) 0.7855(9) 0.8688(6)
H99 H 0.4129 0.7513 0.8664
C147 C 0.2848(8) 0.8952(7) 0.8790(5)
C148 C 0.3674(9) 0.8668(8) 0.8712(5)
H101 H 0.4154 0.8977 0.8680
N16 N 0.1046(8) 0.9449(8) 0.8969(5)
C152 C 0.2590(9) 0.9700(8) 0.8870(6)
C153 C 0.0342(8) 0.9944(8) 0.8977(5)
C154_2 C 0.1736(9) 1.0000(9) 0.8852(6)
C118 C 0.8309(12) 0.2803(10) 0.5598(7)
H87 H 0.7730 0.2726 0.5647
C122 C 0.8834(14) 0.2669(13) 0.5048(8)
C124 C 0.8063(11) 0.3053(10) 0.6597(7)
C128 C 0.8583(10) 0.3023(9) 0.6029(7)
C132 C 0.9677(11) 0.3082(9) 0.4934(7)
C134 C 0.7829(8) 0.3230(7) 0.7592(5)
H94 H 0.8048 0.3311 0.7903
C136 C 0.8345(8) 0.3180(7) 0.7087(5)
H95 H 0.8923 0.3233 0.7060
C137 C 0.9441(11) 0.3374(10) 0.5913(8)
H96 H 0.9622 0.3595 0.6199
H100 H 0.7721 0.1425 0.0038
H102 H 0.8750 0.0352 0.0037
C165 C 0.9970(12) 0.3381(11) 0.5399(8)
C166 C 0.6713(9) 0.3013(7) 0.7199(5)
H109 H 0.6138 0.2928 0.7237
H113 H 0.9724 0.1830 0.2916
C171 C 0.7230(9) 0.2975(8) 0.6676(6)
H115 H 0.6992 0.2893 0.6372
C174 C 0.8416(16) 0.2540(15) 0.4519(9)
C176 C 0.8314(17) 0.3265(15) 0.4097(11)
H120 H 0.7896 0.3608 0.4280
H121 H 0.8141 0.3091 0.3778
H122 H 0.8844 0.3541 0.3974
C182 C 0.9038(18) 0.1763(17) 0.4359(12)
C184 C 0.7413(16) 0.2187(16) 0.4792(11)
H129 H 0.7432 0.1742 0.5062
H130 H 0.7170 0.2032 0.4494
H131 H 0.7076 0.2589 0.4973
H136 H 0.892334 0.131047 0.47145
H137 H 0.889381 0.152972 0.399198
H138 H 0.969797 0.194772 0.426733
C138 C 0.7069(8) 0.2147(8) 0.9279(5)
C139 C 0.7999(16) 0.1346(15) 0.8730(11)
H97 H 0.7812 0.1607 0.8427
C141 C 0.7687(8) 0.1547(7) 0.9269(5)
C142 C 0.8628(9) 0.0717(8) 0.8635(6)
H98 H 0.8868 0.0570 0.8281
C145 C 0.7945(11) 0.1228(10) 0.9698(7)
C146 C 0.8836(8) 0.0348(8) 0.9161(5)
C150 C 0.8570(10) 0.0572(9) 0.9718(7)
C144 C 0.7056(8) 0.4424(8) 0.9002(6)
C149 C 0.7673(8) 0.5113(7) 0.8958(5)
C151 C 0.8138(9) 0.5401(8) 0.8432(6)
H103 H 0.8061 0.5201 0.8108
C155 C 0.7842(10) 0.5394(9) 0.9398(7)
H104 H 0.7516 0.5177 0.9739
C156 C 0.8725(9) 0.5999(8) 0.8406(6)
H105 H 0.9004 0.6235 0.8057
C157 C 0.8445(9) 0.5982(9) 0.9453(6)
H106 H 0.8519 0.6152 0.9789
C158 C 0.8905(7) 0.6256(7) 0.8904(5)
C159 C 0.8391(11) 0.7895(10) 0.8991(7)
H107 H 0.7933 0.7575 0.8987
C160 C 0.9524(10) 0.6904(9) 0.8910(6)
C161 C 0.9261(7) 0.7692(6) 0.8900(4)
C162 C 0.8384(10) 0.8720(9) 0.9093(6)
H108 H 0.7911 0.9024 0.9203
N17 N 0.9801(6) 0.8315(6) 0.8901(4)
C163 C 0.9246(9) 0.8968(8) 0.8989(5)
C164 C 0.9490(9) 0.9717(9) 0.9025(6)
loop_
_geom_bond_atom_site_label_1
_geom_bond_atom_site_label_2
_geom_bond_site_symmetry_1
_geom_bond_site_symmetry_2
O5 C18 1_555 1_555
C5 N1 1_555 1_555
C10 N1 1_555 1_555
C12 C10 1_555 1_555
H4 C12 1_555 1_555
C16 C5 1_555 1_555
C17 C18 1_555 1_555
C18 O8 1_555 1_555
C20 C17 1_555 1_555
H5 C20 1_555 1_555
C21 C16 1_555 1_555
C23 C17 1_555 1_555
H7 C23 1_555 1_555
C26 C10 1_555 1_555
C28 C5 1_555 1_555
H10 C28 1_555 1_555
C31 C20 1_555 1_555
H12 C31 1_555 1_555
C40 C21 1_555 1_555
H19 C40 1_555 1_555
O8 Co4 1_555 1_555
Cd5 O5 1_555 1_555
C12 C28 1_555 1_555
C21 C31 1_555 1_555
C23 C40 1_555 1_555
O3 C2 1_555 1_555
O4 C2 1_555 1_555
C1 C2 1_555 1_555
C6 C1 1_555 1_555
C27 C6 1_555 1_555
H9 C27 1_555 1_555
C39 C1 1_555 1_555
H18 C39 1_555 1_555
C44 C14 1_555 1_555
H21 C44 1_555 1_555
Cd5 O4 1_555 1_555
Co4 O3 1_555 1_555
C14 C27 1_555 1_555
C39 C44 1_555 1_555
Cd5 O7 1_555 1_555
Co4 N2 1_555 1_555
N2 C42 1_555 1_555
N3 C9 1_555 1_555
N4 C7 1_555 1_555
N5 H2 1_555 1_555
O6 Co4 1_555 1_555
C3 N5 1_555 1_555
C4 N5 1_555 1_555
C9 C19 1_555 1_555
C11 C24 1_555 1_555
C13 N3 1_555 1_555
C15 N4 1_555 1_555
C19 C3 1_555 1_555
C22 H6 1_555 1_555
C24 C4 1_555 1_555
C25 C4 1_555 1_555
H8 C25 1_555 1_555
C29 C3 1_555 1_555
H11 C29 1_555 1_555
C30 C22 1_555 1_555
C32 C15 1_555 1_555
H13 C32 1_555 1_555
C33 C11 1_555 1_555
H14 C33 1_555 1_555
C34 C11 1_555 1_555
H15 C34 1_555 1_555
C35 C7 1_555 1_555
H16 C35 1_555 1_555
C36 C43 1_555 1_555
C37 O6 1_555 1_555
C38 C30 1_555 1_555
H17 C38 1_555 1_555
C42 H20 1_555 1_555
C43 C47 1_555 1_555
C45 C48 1_555 1_555
C46 C36 1_555 1_555
H22 C46 1_555 1_555
C47 H23 1_555 1_555
O7 C37 1_555 1_555
C48 C43 1_555 1_555
H24 C48 1_555 1_555
C69 N2 1_555 1_555
H37 C69 1_555 1_555
C70 C36 1_555 1_555
H38 C70 1_555 1_555
H48 C74 1_555 1_555
C79 C45 1_555 1_555
H58 C79 1_555 1_555
C81 C82 1_555 1_555
C82 H59 1_555 1_555
C83 C81 1_555 1_555
H60 C83 1_555 1_555
C84 H61 1_555 1_555
C85 C83 1_555 1_555
H62 C85 1_555 1_555
C86 C82 1_555 1_555
H63 C86 1_555 1_555
C94 N8 1_555 1_555
H70 C94 1_555 1_555
O11 Cd5 1_555 1_555
O12 Co4 1_555 1_555
C15 C24 1_555 1_555
C22 C33 1_555 1_555
C25 C29 1_555 1_555
C30 C37 1_555 1_555
C32 C35 1_555 1_555
C34 C38 1_555 1_555
C42 C46 1_555 1_555
C69 C70 1_555 1_555
N8 C79 1_555 1_555
C74 C94 1_555 1_555
C81 C94 1_555 1_555
C84 C85 1_555 1_555
C84 C86 1_555 1_555
O11 C8 1_555 1_555
O12 C8 1_555 1_555
C8 C49 1_555 1_555
C49 C50 1_555 1_555
C50 H25 1_555 1_555
C52 C50 1_555 1_555
H26 C52 1_555 1_555
C53 H27 1_555 1_555
H31 C60 1_555 1_555
H35 C66 1_555 1_555
C87 C49 1_555 1_555
H64 C87 1_555 1_555
C52 C54 1_555 1_555
C53 C54 1_555 1_555
C53 C87 1_555 1_555
C60 C66 1_555 1_555
C51 C55 1_555 1_555
C55 C56 1_555 1_555
C56 H28 1_555 1_555
C57 H29 1_555 1_555
C58 C57 1_555 1_555
H30 C58 1_555 1_555
C59 C56 1_555 1_555
C61 C57 1_555 1_555
C62 C55 1_555 1_555
O9 C62 1_555 1_555
N9 C58 1_555 1_555
O10 C41 1_555 1_555
C63 C61 1_555 1_555
H32 C63 1_555 1_555
C64 N9 1_555 1_555
H33 C64 1_555 1_555
C65 C59 1_555 1_555
H34 C65 1_555 1_555
C67 C62 1_555 1_555
N7 C68 1_555 1_555
C68 C67 1_555 1_555
H36 C68 1_555 1_555
Ni1 O9 1_555 1_555
C71 C51 1_555 1_555
H39 C71 1_555 1_555
H40 C71 1_555 1_555
H41 C71 1_555 1_555
C72 C51 1_555 1_555
H42 C72 1_555 1_555
H43 C72 1_555 1_555
H44 C72 1_555 1_555
C73 H45 1_555 1_555
H46 C73 1_555 1_555
H47 C73 1_555 1_555
C75 C51 1_555 1_555
H49 C75 1_555 1_555
H50 C75 1_555 1_555
H51 C75 1_555 1_555
C76 H52 1_555 1_555
H53 C76 1_555 1_555
H54 C76 1_555 1_555
C77 C73 1_555 1_555
C78 C77 1_555 1_555
H55 C78 1_555 1_555
H56 C78 1_555 1_555
H57 C78 1_555 1_555
C80 C41 1_555 1_555
C93 C88 1_555 1_555
H69 C93 1_555 1_555
C59 C61 1_555 1_555
O10 Ni1 1_555 1_555
C63 C64 1_555 1_555
C65 C67 1_555 1_555
N7 Ni1 1_555 1_555
C76 C77 1_555 1_555
C77 C80 1_555 1_555
C89 H65 1_555 1_555
C91 C89 1_555 1_555
H67 C91 1_555 1_555
C92 C90 1_555 1_555
H68 C92 1_555 1_555
C91 C92 1_555 1_555
Ni2 O17 1_555 1_555
N10 C95 1_555 1_555
C95 H71 1_555 1_555
C96 N10 1_555 1_555
H72 C96 1_555 1_555
C97 C98 1_555 1_555
C98 C95 1_555 1_555
H73 C98 1_555 1_555
C101 C96 1_555 1_555
H74 C101 1_555 1_555
C106 H79 1_555 1_555
C107 H80 1_555 1_555
C110 C97 1_555 1_555
C111 O17 1_555 1_555
C112 C113 1_555 1_555
C113 C106 1_555 1_555
C114 H83 1_555 1_555
N11 Ni2 1_555 1_555
O18 Ni2 1_555 1_555
C115 C107 1_555 1_555
C116 C112 1_555 1_555
H84 C116 1_555 1_555
H85 C116 1_555 1_555
H86 C116 1_555 1_555
N12 Ni2 1_555 1_555
C167 N11 1_555 1_555
H110 C167 1_555 1_555
C168 N12 1_555 1_555
H111 C168 1_555 1_555
C169 C167 1_555 1_555
C170 C112 1_555 1_555
H112 C170 1_555 1_555
H114 C170 1_555 1_555
C172 C168 1_555 1_555
C173 C112 1_555 1_555
H116 C173 1_555 1_555
H117 C173 1_555 1_555
H118 C173 1_555 1_555
C175 C169 1_555 1_555
H119 C175 1_555 1_555
C177 N11 1_555 1_555
H123 C177 1_555 1_555
C178 C169 1_555 1_555
H124 C178 1_555 1_555
C179 C172 1_555 1_555
H125 C179 1_555 1_555
C180 C179 1_555 1_555
H126 C180 1_555 1_555
C181 C175 1_555 1_555
H127 C181 1_555 1_555
C183 C178 1_555 1_555
H128 C183 1_555 1_555
C185 C181 1_555 1_555
H132 C185 1_555 1_555
C186 C172 1_555 1_555
H133 C186 1_555 1_555
C187 C180 1_555 1_555
H134 C187 1_555 1_555
C188 C186 1_555 1_555
H135 C188 1_555 1_555
C97 C101 1_555 1_555
C106 C110 1_555 1_555
C107 C110 1_555 1_555
C111 C113 1_555 1_555
C111 C115 1_555 1_555
C114 C115 1_555 1_555
C114 N12 1_555 1_555
C167 C168 1_555 1_555
C183 C185 1_555 1_555
C187 C188 1_555 1_555
C99 C102 1_555 1_555
C100 C104 1_555 1_555
C102 H75 1_555 1_555
C103 C99 1_555 1_555
H76 C103 1_555 1_555
C104 C103 1_555 1_555
H77 C104 1_555 1_555
C105 H78 1_555 1_555
C108 C105 1_555 1_555
H81 C108 1_555 1_555
C109 C100 1_555 1_555
H82 C109 1_555 1_555
O19 C117 1_555 1_555
C117 C100 1_555 1_555
O21 C117 1_555 1_555
Co5 O19 1_555 1_555
C154 C108 1_555 1_555
O27 Co5 1_555 1_555
N18 Co5 1_555 1_555
O28 Cd6 1_555 1_555
O29 Co5 1_555 1_555
O30 Co5 1_555 1_555
O31 Cd6 1_555 1_555
O32 Cd6 1_555 1_555
C102 C109 1_555 1_555
O21 Cd6 1_555 1_555
C119 H88 1_555 1_555
C120 C119 1_555 1_555
H89 C120 1_555 1_555
O27 C125 1_555 1_555
C121 H90 1_555 1_555
C123 C121 1_555 1_555
H91 C123 1_555 1_555
C125 C126 1_555 1_555
C126 C121 1_555 1_555
C127 C119 1_555 1_555
C129 C120 1_555 1_555
C130 C123 1_555 1_555
O28 C125 1_555 1_555
C131 C126 1_555 1_555
H92 C131 1_555 1_555
N14 C127 1_555 1_555
C133 C130 1_555 1_555
H93 C133 1_555 1_555
C135 C129 1_555 1_555
C140 C135 1_555 1_555
Co6 N14 1_555 1_555
N15 C140 1_555 1_555
C143 C140 1_555 1_555
H99 C143 1_555 1_555
C147 N15 1_555 1_555
C148 C143 1_555 1_555
H101 C148 1_555 1_555
N16 Co6 1_555 1_555
C129 N14 1_555 1_555
C130 C135 1_555 1_555
C131 C133 1_555 1_555
Co6 N15 1_555 1_555
C147 C148 1_555 1_555
C147 C152 1_555 1_555
N16 C153 1_555 1_555
N16 C154_2 1_555 1_555
C152 C154_2 1_555 1_555
C118 H87 1_555 1_555
C122 C118 1_555 1_555
N18 C134 1_555 1_555
C124 C128 1_555 1_555
C128 C118 1_555 1_555
C134 H94 1_555 1_555
C136 C124 1_555 1_555
H95 C136 1_555 1_555
C137 C128 1_555 1_555
H96 C137 1_555 1_555
C165 C132 1_555 1_555
C166 N18 1_555 1_555
H109 C166 1_555 1_555
C171 C124 1_555 1_555
H115 C171 1_555 1_555
C174 C122 1_555 1_555
C176 C174 1_555 1_555
H120 C176 1_555 1_555
H121 C176 1_555 1_555
H122 C176 1_555 1_555
C182 C174 1_555 1_555
C184 C174 1_555 1_555
H129 C184 1_555 1_555
H130 C184 1_555 1_555
H131 C184 1_555 1_555
C122 C132 1_555 1_555
C134 C136 1_555 1_555
C137 C165 1_555 1_555
C166 C171 1_555 1_555
C182 H136 1_555 1_555
C182 H137 1_555 1_555
C182 H138 1_555 1_555
O29 C138 1_555 1_555
C138 O31 1_555 1_555
C139 H97 1_555 1_555
C141 C138 1_555 1_555
C142 C139 1_555 1_555
H98 C142 1_555 1_555
C145 C141 1_555 1_555
C146 C142 1_555 1_555
C150 C145 1_555 1_555
C139 C141 1_555 1_555
C146 C150 1_555 1_555
O30 C144 1_555 1_555
C144 O32 1_555 1_555
C149 C144 1_555 1_555
C151 C149 1_555 1_555
H103 C151 1_555 1_555
C155 C149 1_555 1_555
H104 C155 1_555 1_555
C156 C151 1_555 1_555
H105 C156 1_555 1_555
C157 C155 1_555 1_555
H106 C157 1_555 1_555
C158 C156 1_555 1_555
C159 H107 1_555 1_555
C161 C159 1_555 1_555
C162 C159 1_555 1_555
H108 C162 1_555 1_555
C163 C162 1_555 1_555
C157 C158 1_555 1_555
C158 C160 1_555 1_555
C160 C161 1_555 1_555
C161 N17 1_555 1_555
N17 C163 1_555 1_555
C163 C164 1_555 1_555

#END
