
###############################################################################
#
# This file contains modified crystal structure data generated from the
# MOF subset of the Cambridge Structural Database (CSD) v543 
# hosted by the Cambridge Crystallographic Data Centre (CCDC).
#
# This work is licensed under the Creative Commons
# Attribution-NonCommercial-ShareAlike 4.0 International License.
# To view a copy of this license, visit
# http://creativecommons.org/licenses/by-nc-sa/4.0/
# or send a letter to
# Creative Commons, PO Box 1866, Mountain View, CA 94042, USA.
#
# CIF created using the CSD Python API on 29 September 2022
# The structure has been converted into the P1 space group
# The structure has a 3D framework
# The original CSD entry MERLAZ is in the hexagonal crystal system
# The framework has been calculated to contain at least 10.0% void space
# The void calculation uses a probe of radius 1.32A, grid spacing 0.4
# H atom positions have been added when not included in the experimental data
# Generated hydrogen atom positions removed from atoms on special positions
#
###############################################################################

data_MERLAZ
_chemical_formula_moiety         '(C144 H144 Cl20 Fe16 N22 O31)n'
_symmetry_cell_setting           triclinic
_symmetry_space_group_name_H-M   'P 1'
_symmetry_Int_Tables_number      1
_space_group_name_Hall           'P 1'
loop_
_symmetry_equiv_pos_site_id
_symmetry_equiv_pos_as_xyz
1 x,y,z
_cell_length_a                   31.26941
_cell_length_b                   31.26941
_cell_length_c                   16.95362
_cell_angle_alpha                90
_cell_angle_beta                 90
_cell_angle_gamma                120
_cell_volume                     14356
loop_
_atom_site_label
_atom_site_type_symbol
_atom_site_fract_x
_atom_site_fract_y
_atom_site_fract_z
_atom_site_U_iso_or_equiv
_atom_site_thermal_displace_type
Fe5 Fe 0.000 0.500 -0.000 0.0164 Uiso
N7 N 0.072571 0.536285 -0.000 0.0402 Uiso
N8 N -0.000 0.500 0.113583 0.0402 Uiso
O20 O 0.253571 0.663085 0.419883 0.0208 Uiso
C85 C 0.238771 0.619385 0.392783 0.0402 Uiso
C86 C 0.201971 0.600985 0.326883 0.0402 Uiso
C87 C 0.183771 0.552485 0.295383 0.0402 Uiso
C88 C 0.147971 0.534585 0.234683 0.0402 Uiso
C89 C 0.129771 0.564885 0.204383 0.0402 Uiso
C90 C 0.090371 0.545185 0.141883 0.0402 Uiso
C91 C 0.104371 0.552185 0.063083 0.0402 Uiso
C92 C 0.154371 0.577185 0.039883 0.0402 Uiso
C93 C 0.040571 0.520285 0.163883 0.0402 Uiso
C94 C 0.025971 0.512985 0.242683 0.0402 Uiso
H43 H 0.196871 0.528085 0.318083 0.0164 Uiso
H44 H 0.134171 0.497085 0.211683 0.0483 Uiso
H45 H 0.187571 0.593785 0.077083 0.0483 Uiso
H46 H 0.049371 0.524685 0.295183 0.0483 Uiso
O21 O 0.253571 0.590486 0.419883 0.0208 Uiso
C95 C 0.183771 0.631286 0.295383 0.0402 Uiso
C96 C 0.147971 0.613386 0.234683 0.0402 Uiso
H47 H 0.196871 0.668786 0.318083 0.0164 Uiso
H48 H 0.134171 0.637086 0.211683 0.0483 Uiso
Fe16 Fe 0.298934 0.701066 0.500 0.0164 Uiso
Fe20 Fe 0.298934 0.597868 0.500 0.0164 Uiso
O1 O 0.263254 0.736746 0.500 0.0208 Uiso
O2 O 0.333333 0.666667 0.500 0.0208 Uiso
Cl1 Cl 0.000 0.573601 0.000 0.0209 Uiso
Fe5_2 Fe 0.000 0.500 1.000 0.0164 Uiso
N6 N 0.000 0.500 0.886417 0.0402 Uiso
O15 O 0.253571 0.663085 0.580117 0.0208 Uiso
C59 C 0.238771 0.619385 0.607217 0.0402 Uiso
C60 C 0.201971 0.600985 0.673117 0.0402 Uiso
C61 C 0.183771 0.552485 0.704617 0.0402 Uiso
C62 C 0.147971 0.534585 0.765317 0.0402 Uiso
C63 C 0.129771 0.564885 0.795617 0.0402 Uiso
C64 C 0.090371 0.545185 0.858117 0.0402 Uiso
C65 C 0.104371 0.552185 0.936917 0.0402 Uiso
C66 C 0.154371 0.577185 0.960117 0.0402 Uiso
N7_2 N 0.072571 0.536285 1.000 0.0402 Uiso
C67 C 0.040571 0.520285 0.836117 0.0402 Uiso
C68 C 0.025971 0.512985 0.757317 0.0402 Uiso
H29 H 0.196871 0.528085 0.681917 0.0164 Uiso
H30 H 0.134171 0.497085 0.788317 0.0483 Uiso
H31 H 0.187571 0.593785 0.922917 0.0483 Uiso
H32 H 0.049371 0.524685 0.704817 0.0483 Uiso
O16 O 0.253571 0.590486 0.580117 0.0208 Uiso
C69 C 0.183771 0.631286 0.704617 0.0402 Uiso
C70 C 0.147971 0.613386 0.765317 0.0402 Uiso
H33 H 0.196871 0.668786 0.681917 0.0164 Uiso
H34 H 0.134171 0.637086 0.788317 0.0483 Uiso
Fe13 Fe 0.402132 0.701066 0.500 0.0164 Uiso
O36 O 0.336915 0.746429 0.580117 0.0208 Uiso
O37 O 0.336915 0.746429 0.419883 0.0208 Uiso
Cl1_2 Cl 0.000 0.573601 1.000 0.0209 Uiso
Fe5_3 Fe 1.000 0.500 -0.000 0.0164 Uiso
N5 N 0.927429 0.463714 -0.000 0.0402 Uiso
O17 O 0.746429 0.409514 0.419883 0.0208 Uiso
C71 C 0.761229 0.380614 0.392783 0.0402 Uiso
C72 C 0.798029 0.399014 0.326883 0.0402 Uiso
C73 C 0.816229 0.368714 0.295383 0.0402 Uiso
C74 C 0.852029 0.386614 0.234683 0.0402 Uiso
C75 C 0.870229 0.435114 0.204383 0.0402 Uiso
C76 C 0.909629 0.454814 0.141883 0.0402 Uiso
C77 C 0.895629 0.447814 0.063083 0.0402 Uiso
C78 C 0.845629 0.422814 0.039883 0.0402 Uiso
C79 C 0.959429 0.479714 0.163883 0.0402 Uiso
C80 C 0.974029 0.487014 0.242683 0.0402 Uiso
N8_2 N 1.000 0.500 0.113583 0.0402 Uiso
H35 H 0.803129 0.331214 0.318083 0.0164 Uiso
H36 H 0.865829 0.362914 0.211683 0.0483 Uiso
H37 H 0.812429 0.406214 0.077083 0.0483 Uiso
H38 H 0.950629 0.475314 0.295183 0.0483 Uiso
O18 O 0.746429 0.336915 0.419883 0.0208 Uiso
C81 C 0.816229 0.447515 0.295383 0.0402 Uiso
C82 C 0.852029 0.465415 0.234683 0.0402 Uiso
H39 H 0.803129 0.471915 0.318083 0.0164 Uiso
H40 H 0.865829 0.502915 0.211683 0.0483 Uiso
Fe11 Fe 0.701066 0.402132 0.500 0.0164 Uiso
Fe12 Fe 0.701066 0.298934 0.500 0.0164 Uiso
Cl1_3 Cl 1.000 0.573601 0.000 0.0209 Uiso
O13 O 0.736746 0.473492 0.500 0.0208 Uiso
Fe5_4 Fe 1.000 0.500 1.000 0.0164 Uiso
O14 O 0.746429 0.409514 0.580117 0.0208 Uiso
C49 C 0.761229 0.380614 0.607217 0.0402 Uiso
C50 C 0.798029 0.399014 0.673117 0.0402 Uiso
C51 C 0.816229 0.368714 0.704617 0.0402 Uiso
C52 C 0.852029 0.386614 0.765317 0.0402 Uiso
C53 C 0.870229 0.435114 0.795617 0.0402 Uiso
C54 C 0.909629 0.454814 0.858117 0.0402 Uiso
C55 C 0.895629 0.447814 0.936917 0.0402 Uiso
C56 C 0.845629 0.422814 0.960117 0.0402 Uiso
N5_2 N 0.927429 0.463714 1.000 0.0402 Uiso
C57 C 0.959429 0.479714 0.836117 0.0402 Uiso
C58 C 0.974029 0.487014 0.757317 0.0402 Uiso
N6_2 N 1.000 0.500 0.886417 0.0402 Uiso
H25 H 0.803129 0.331214 0.681917 0.0164 Uiso
H26 H 0.865829 0.362914 0.788317 0.0483 Uiso
H27 H 0.812429 0.406214 0.922917 0.0483 Uiso
H28 H 0.950629 0.475314 0.704817 0.0483 Uiso
O19 O 0.746429 0.336915 0.580117 0.0208 Uiso
C83 C 0.816229 0.447515 0.704617 0.0402 Uiso
C84 C 0.852029 0.465415 0.765317 0.0402 Uiso
H41 H 0.803129 0.471915 0.681917 0.0164 Uiso
H42 H 0.865829 0.502915 0.788317 0.0483 Uiso
O32 O 0.736746 0.263254 0.500 0.0208 Uiso
O34 O 0.666667 0.333334 0.500 0.0208 Uiso
O39 O 0.663085 0.409514 0.580117 0.0208 Uiso
O41 O 0.663085 0.409514 0.419883 0.0208 Uiso
O44 O 0.663085 0.253571 0.580117 0.0208 Uiso
O47 O 0.663085 0.253571 0.419883 0.0208 Uiso
Cl1_4 Cl 1.000 0.573601 1.000 0.0209 Uiso
Fe21 Fe 0.597868 0.298934 0.500 0.0164 Uiso
O22 O 0.263254 0.526508 0.500 0.0208 Uiso
O42 O 0.336915 0.590486 0.419883 0.0208 Uiso
O45 O 0.336915 0.590486 0.580117 0.0208 Uiso
Cl1_5 Cl 0.000 0.426399 0.000 0.0209 Uiso
Cl1_6 Cl 0.000 0.426399 1.000 0.0209 Uiso
Cl1_7 Cl 1.000 0.426399 0.000 0.0209 Uiso
Cl1_8 Cl 1.000 0.426399 1.000 0.0209 Uiso
Fe5_5 Fe 0.500 -0.000 -0.000 0.0164 Uiso
N5_3 N 0.536285 0.072571 -0.000 0.0402 Uiso
C71_2 C 0.619385 0.238771 0.392783 0.0402 Uiso
C72_2 C 0.600985 0.201971 0.326883 0.0402 Uiso
C73_2 C 0.552485 0.183771 0.295383 0.0402 Uiso
C74_2 C 0.534585 0.147971 0.234683 0.0402 Uiso
C75_2 C 0.564885 0.129771 0.204383 0.0402 Uiso
C76_2 C 0.545185 0.090371 0.141883 0.0402 Uiso
C77_2 C 0.552185 0.104371 0.063083 0.0402 Uiso
C78_2 C 0.577185 0.154371 0.039883 0.0402 Uiso
C79_2 C 0.520285 0.040571 0.163883 0.0402 Uiso
C80_2 C 0.512985 0.025971 0.242683 0.0402 Uiso
N8_3 N 0.500 -0.000 0.113583 0.0402 Uiso
H35_2 H 0.528085 0.196871 0.318083 0.0164 Uiso
H36_2 H 0.497085 0.134171 0.211683 0.0483 Uiso
H37_2 H 0.593785 0.187571 0.077083 0.0483 Uiso
H38_2 H 0.524685 0.049371 0.295183 0.0483 Uiso
O18_2 O 0.590486 0.253571 0.419883 0.0208 Uiso
C81_2 C 0.631286 0.183771 0.295383 0.0402 Uiso
C82_2 C 0.613386 0.147971 0.234683 0.0402 Uiso
H39_2 H 0.668786 0.196871 0.318083 0.0164 Uiso
H40_2 H 0.637086 0.134171 0.211683 0.0483 Uiso
Cl1_9 Cl 0.573601 0.000 0.000 0.0209 Uiso
Fe5_6 Fe 0.500 -0.000 1.000 0.0164 Uiso
C49_2 C 0.619385 0.238771 0.607217 0.0402 Uiso
C50_2 C 0.600985 0.201971 0.673117 0.0402 Uiso
C51_2 C 0.552485 0.183771 0.704617 0.0402 Uiso
C52_2 C 0.534585 0.147971 0.765317 0.0402 Uiso
C53_2 C 0.564885 0.129771 0.795617 0.0402 Uiso
C54_2 C 0.545185 0.090371 0.858117 0.0402 Uiso
C55_2 C 0.552185 0.104371 0.936917 0.0402 Uiso
C56_2 C 0.577185 0.154371 0.960117 0.0402 Uiso
N5_4 N 0.536285 0.072571 1.000 0.0402 Uiso
C57_2 C 0.520285 0.040571 0.836117 0.0402 Uiso
C58_2 C 0.512985 0.025971 0.757317 0.0402 Uiso
N6_3 N 0.500 -0.000 0.886417 0.0402 Uiso
H25_2 H 0.528085 0.196871 0.681917 0.0164 Uiso
H26_2 H 0.497085 0.134171 0.788317 0.0483 Uiso
H27_2 H 0.593785 0.187571 0.922917 0.0483 Uiso
H28_2 H 0.524685 0.049371 0.704817 0.0483 Uiso
O19_2 O 0.590486 0.253571 0.580117 0.0208 Uiso
C83_2 C 0.631286 0.183771 0.704617 0.0402 Uiso
C84_2 C 0.613386 0.147971 0.765317 0.0402 Uiso
H41_2 H 0.668786 0.196871 0.681917 0.0164 Uiso
H42_2 H 0.637086 0.134171 0.788317 0.0483 Uiso
O32_2 O 0.526508 0.263254 0.500 0.0208 Uiso
O44_2 O 0.590486 0.336915 0.580117 0.0208 Uiso
O47_2 O 0.590486 0.336915 0.419883 0.0208 Uiso
Cl1_10 Cl 0.573601 0.000 1.000 0.0209 Uiso
Fe5_7 Fe 0.500 1.000 -0.000 0.0164 Uiso
N7_3 N 0.463714 0.927429 -0.000 0.0402 Uiso
N8_4 N 0.500 1.000 0.113583 0.0402 Uiso
O20_2 O 0.409514 0.746429 0.419883 0.0208 Uiso
C85_2 C 0.380614 0.761229 0.392783 0.0402 Uiso
C86_2 C 0.399014 0.798029 0.326883 0.0402 Uiso
C87_2 C 0.368714 0.816229 0.295383 0.0402 Uiso
C88_2 C 0.386614 0.852029 0.234683 0.0402 Uiso
C89_2 C 0.435114 0.870229 0.204383 0.0402 Uiso
C90_2 C 0.454814 0.909629 0.141883 0.0402 Uiso
C91_2 C 0.447814 0.895629 0.063083 0.0402 Uiso
C92_2 C 0.422814 0.845629 0.039883 0.0402 Uiso
C93_2 C 0.479714 0.959429 0.163883 0.0402 Uiso
C94_2 C 0.487014 0.974029 0.242683 0.0402 Uiso
H43_2 H 0.331214 0.803129 0.318083 0.0164 Uiso
H44_2 H 0.362914 0.865829 0.211683 0.0483 Uiso
H45_2 H 0.406214 0.812429 0.077083 0.0483 Uiso
H46_2 H 0.475314 0.950629 0.295183 0.0483 Uiso
C95_2 C 0.447515 0.816229 0.295383 0.0402 Uiso
C96_2 C 0.465415 0.852029 0.234683 0.0402 Uiso
H47_2 H 0.471915 0.803129 0.318083 0.0164 Uiso
H48_2 H 0.502915 0.865829 0.211683 0.0483 Uiso
O1_2 O 0.473492 0.736746 0.500 0.0208 Uiso
Cl1_11 Cl 0.573601 1.000 0.000 0.0209 Uiso
Fe5_8 Fe 0.500 1.000 1.000 0.0164 Uiso
N6_4 N 0.500 1.000 0.886417 0.0402 Uiso
O15_2 O 0.409514 0.746429 0.580117 0.0208 Uiso
C59_2 C 0.380614 0.761229 0.607217 0.0402 Uiso
C60_2 C 0.399014 0.798029 0.673117 0.0402 Uiso
C61_2 C 0.368714 0.816229 0.704617 0.0402 Uiso
C62_2 C 0.386614 0.852029 0.765317 0.0402 Uiso
C63_2 C 0.435114 0.870229 0.795617 0.0402 Uiso
C64_2 C 0.454814 0.909629 0.858117 0.0402 Uiso
C65_2 C 0.447814 0.895629 0.936917 0.0402 Uiso
C66_2 C 0.422814 0.845629 0.960117 0.0402 Uiso
N7_4 N 0.463714 0.927429 1.000 0.0402 Uiso
C67_2 C 0.479714 0.959429 0.836117 0.0402 Uiso
C68_2 C 0.487014 0.974029 0.757317 0.0402 Uiso
H29_2 H 0.331214 0.803129 0.681917 0.0164 Uiso
H30_2 H 0.362914 0.865829 0.788317 0.0483 Uiso
H31_2 H 0.406214 0.812429 0.922917 0.0483 Uiso
H32_2 H 0.475314 0.950629 0.704817 0.0483 Uiso
C69_2 C 0.447515 0.816229 0.704617 0.0402 Uiso
C70_2 C 0.465415 0.852029 0.765317 0.0402 Uiso
H33_2 H 0.471915 0.803129 0.681917 0.0164 Uiso
H34_2 H 0.502915 0.865829 0.788317 0.0483 Uiso
O36_2 O 0.409514 0.663085 0.580117 0.0208 Uiso
O37_2 O 0.409514 0.663085 0.419883 0.0208 Uiso
Cl1_12 Cl 0.573601 1.000 1.000 0.0209 Uiso
Fe7 Fe 0.500 0.500 -0.000 0.0164 Uiso
C97 C 0.619385 0.380614 0.392783 0.0402 Uiso
C98 C 0.600985 0.399014 0.326883 0.0402 Uiso
C99 C 0.631286 0.447515 0.295383 0.0402 Uiso
C100 C 0.613386 0.465415 0.234683 0.0402 Uiso
C101 C 0.564885 0.435114 0.204383 0.0402 Uiso
C102 C 0.545185 0.454814 0.141883 0.0402 Uiso
C103 C 0.552185 0.447814 0.063083 0.0402 Uiso
C104 C 0.577185 0.422814 0.039883 0.0402 Uiso
N9 N 0.536285 0.463714 -0.000 0.0402 Uiso
C105 C 0.520285 0.479714 0.163883 0.0402 Uiso
C106 C 0.512985 0.487014 0.242683 0.0402 Uiso
N10 N 0.500 0.500 0.113583 0.0402 Uiso
H49 H 0.668786 0.471915 0.318083 0.0164 Uiso
H50 H 0.637086 0.502915 0.211683 0.0483 Uiso
H51 H 0.593785 0.406214 0.077083 0.0483 Uiso
H52 H 0.524685 0.475314 0.295183 0.0483 Uiso
C107 C 0.380614 0.619385 0.392783 0.0402 Uiso
C108 C 0.399014 0.600985 0.326883 0.0402 Uiso
C109 C 0.447515 0.631286 0.295383 0.0402 Uiso
C110 C 0.465415 0.613386 0.234683 0.0402 Uiso
C111 C 0.435114 0.564885 0.204383 0.0402 Uiso
C112 C 0.454814 0.545185 0.141883 0.0402 Uiso
C113 C 0.447814 0.552185 0.063083 0.0402 Uiso
C114 C 0.422814 0.577185 0.039883 0.0402 Uiso
N11 N 0.463714 0.536285 -0.000 0.0402 Uiso
C115 C 0.479714 0.520285 0.163883 0.0402 Uiso
C116 C 0.487014 0.512985 0.242683 0.0402 Uiso
H53 H 0.471915 0.668786 0.318083 0.0164 Uiso
H54 H 0.502915 0.637086 0.211683 0.0483 Uiso
H55 H 0.406214 0.593785 0.077083 0.0483 Uiso
H56 H 0.475314 0.524685 0.295183 0.0483 Uiso
C117 C 0.368714 0.552485 0.295383 0.0402 Uiso
C118 C 0.386614 0.534585 0.234683 0.0402 Uiso
H57 H 0.331214 0.528085 0.318083 0.0164 Uiso
H58 H 0.362914 0.497085 0.211683 0.0483 Uiso
C131 C 0.552485 0.368714 0.295383 0.0402 Uiso
C132 C 0.534585 0.386614 0.234683 0.0402 Uiso
H65 H 0.528085 0.331214 0.318083 0.0164 Uiso
H66 H 0.497085 0.362914 0.211683 0.0483 Uiso
Cl1_13 Cl 0.573601 0.573601 0.000 0.0209 Uiso
Fe7_2 Fe 0.500 0.500 1.000 0.0164 Uiso
N9_2 N 0.536285 0.463714 1.000 0.0402 Uiso
N11_2 N 0.463714 0.536285 1.000 0.0402 Uiso
C119 C 0.619385 0.380614 0.607217 0.0402 Uiso
C120 C 0.600985 0.399014 0.673117 0.0402 Uiso
C121 C 0.631286 0.447515 0.704617 0.0402 Uiso
C122 C 0.613386 0.465415 0.765317 0.0402 Uiso
C123 C 0.564885 0.435114 0.795617 0.0402 Uiso
C124 C 0.545185 0.454814 0.858117 0.0402 Uiso
C125 C 0.552185 0.447814 0.936917 0.0402 Uiso
C126 C 0.577185 0.422814 0.960117 0.0402 Uiso
C127 C 0.520285 0.479714 0.836117 0.0402 Uiso
C128 C 0.512985 0.487014 0.757317 0.0402 Uiso
N12 N 0.500 0.500 0.886417 0.0402 Uiso
H59 H 0.668786 0.471915 0.681917 0.0164 Uiso
H60 H 0.637086 0.502915 0.788317 0.0483 Uiso
H61 H 0.593785 0.406214 0.922917 0.0483 Uiso
H62 H 0.524685 0.475314 0.704817 0.0483 Uiso
C129 C 0.552485 0.368714 0.704617 0.0402 Uiso
C130 C 0.534585 0.386614 0.765317 0.0402 Uiso
H63 H 0.528085 0.331214 0.681917 0.0164 Uiso
H64 H 0.497085 0.362914 0.788317 0.0483 Uiso
C133 C 0.380614 0.619385 0.607217 0.0402 Uiso
C134 C 0.399014 0.600985 0.673117 0.0402 Uiso
C135 C 0.447515 0.631286 0.704617 0.0402 Uiso
C136 C 0.465415 0.613386 0.765317 0.0402 Uiso
C137 C 0.435114 0.564885 0.795617 0.0402 Uiso
C138 C 0.454814 0.545185 0.858117 0.0402 Uiso
C139 C 0.447814 0.552185 0.936917 0.0402 Uiso
C140 C 0.422814 0.577185 0.960117 0.0402 Uiso
C141 C 0.479714 0.520285 0.836117 0.0402 Uiso
C142 C 0.487014 0.512985 0.757317 0.0402 Uiso
H67 H 0.471915 0.668786 0.681917 0.0164 Uiso
H68 H 0.502915 0.637086 0.788317 0.0483 Uiso
H69 H 0.406214 0.593785 0.922917 0.0483 Uiso
H70 H 0.475314 0.524685 0.704817 0.0483 Uiso
C143 C 0.368714 0.552485 0.704617 0.0402 Uiso
C144 C 0.386614 0.534585 0.765317 0.0402 Uiso
H71 H 0.331214 0.528085 0.681917 0.0164 Uiso
H72 H 0.362914 0.497085 0.788317 0.0483 Uiso
Cl1_14 Cl 0.573601 0.573601 1.000 0.0209 Uiso
Cl1_15 Cl 0.426399 0.000 0.000 0.0209 Uiso
Cl1_16 Cl 0.426399 0.000 1.000 0.0209 Uiso
Cl1_17 Cl 0.426399 1.000 0.000 0.0209 Uiso
Cl1_18 Cl 0.426399 1.000 1.000 0.0209 Uiso
Cl1_19 Cl 0.426399 0.426399 0.000 0.0209 Uiso
Cl1_20 Cl 0.426399 0.426399 1.000 0.0209 Uiso
loop_
_geom_bond_atom_site_label_1
_geom_bond_atom_site_label_2
_geom_bond_site_symmetry_1
_geom_bond_site_symmetry_2
N7 Fe5 1_555 1_555
N8 Fe5 1_555 1_555
O20 C85 1_555 1_555
C85 C86 1_555 1_555
C86 C87 1_555 1_555
C87 C88 1_555 1_555
C88 C89 1_555 1_555
C89 C90 1_555 1_555
C90 C91 1_555 1_555
C91 N7 1_555 1_555
C93 N8 1_555 1_555
H43 C87 1_555 1_555
H44 C88 1_555 1_555
H45 C92 1_555 1_555
H46 C94 1_555 1_555
O21 C85 1_555 1_555
C95 C86 1_555 1_555
C96 C89 1_555 1_555
H47 C95 1_555 1_555
H48 C96 1_555 1_555
Fe16 O20 1_555 1_555
Fe20 O21 1_555 1_555
C90 C93 1_555 1_555
C91 C92 1_555 1_555
C93 C94 1_555 1_555
C95 C96 1_555 1_555
Fe16 O1 1_555 1_555
O2 Fe16 1_555 1_555
Fe5 Cl1 1_555 1_555
N6 Fe5_2 1_555 1_555
O15 Fe16 1_555 1_555
C59 O15 1_555 1_555
C60 C59 1_555 1_555
C61 C60 1_555 1_555
C62 C61 1_555 1_555
C63 C62 1_555 1_555
C64 C63 1_555 1_555
C65 C64 1_555 1_555
C66 C65 1_555 1_555
N7_2 Fe5_2 1_555 1_555
C67 N6 1_555 1_555
H29 C61 1_555 1_555
H30 C62 1_555 1_555
H31 C66 1_555 1_555
H32 C68 1_555 1_555
O16 C59 1_555 1_555
C69 C60 1_555 1_555
C70 C63 1_555 1_555
H33 C69 1_555 1_555
H34 C70 1_555 1_555
Fe13 O2 1_555 1_555
Fe20 O2 1_555 1_555
O36 Fe16 1_555 1_555
O37 Fe16 1_555 1_555
C64 C67 1_555 1_555
C65 N7_2 1_555 1_555
C67 C68 1_555 1_555
O16 Fe20 1_555 1_555
C69 C70 1_555 1_555
Fe5_2 Cl1_2 1_555 1_555
Fe5_3 N5 1_555 1_555
O17 C71 1_555 1_555
C71 C72 1_555 1_555
C72 C73 1_555 1_555
C73 C74 1_555 1_555
C74 C75 1_555 1_555
C75 C76 1_555 1_555
C76 C77 1_555 1_555
C77 N5 1_555 1_555
C79 C76 1_555 1_555
C80 C79 1_555 1_555
N8_2 Fe5_3 1_555 1_555
H35 C73 1_555 1_555
H36 C74 1_555 1_555
H37 C78 1_555 1_555
H38 C80 1_555 1_555
O18 C71 1_555 1_555
C81 C72 1_555 1_555
C82 C75 1_555 1_555
H39 C81 1_555 1_555
H40 C82 1_555 1_555
Fe11 O17 1_555 1_555
Fe12 O18 1_555 1_555
C77 C78 1_555 1_555
C79 N8_2 1_555 1_555
C81 C82 1_555 1_555
Fe5_3 Cl1_3 1_555 1_555
O13 Fe11 1_555 1_555
Fe5_4 N5_2 1_555 1_555
O14 Fe11 1_555 1_555
C49 O14 1_555 1_555
C50 C49 1_555 1_555
C51 C50 1_555 1_555
C52 C51 1_555 1_555
C53 C52 1_555 1_555
C54 C53 1_555 1_555
C55 C54 1_555 1_555
C56 C55 1_555 1_555
N5_2 C55 1_555 1_555
C57 C54 1_555 1_555
C58 C57 1_555 1_555
N6_2 Fe5_4 1_555 1_555
H25 C51 1_555 1_555
H26 C52 1_555 1_555
H27 C56 1_555 1_555
H28 C58 1_555 1_555
O19 C49 1_555 1_555
C83 C50 1_555 1_555
C84 C53 1_555 1_555
H41 C83 1_555 1_555
H42 C84 1_555 1_555
O32 Fe12 1_555 1_555
O34 Fe11 1_555 1_555
O39 Fe11 1_555 1_555
O41 Fe11 1_555 1_555
O44 Fe12 1_555 1_555
O47 Fe12 1_555 1_555
C57 N6_2 1_555 1_555
O19 Fe12 1_555 1_555
C83 C84 1_555 1_555
Fe12 O34 1_555 1_555
Fe5_4 Cl1_4 1_555 1_555
Fe21 O34 1_555 1_555
Fe20 O22 1_555 1_555
O42 Fe20 1_555 1_555
O45 Fe20 1_555 1_555
Fe5 Cl1_5 1_555 1_555
Fe5_2 Cl1_6 1_555 1_555
Fe5_3 Cl1_7 1_555 1_555
Fe5_4 Cl1_8 1_555 1_555
Fe5_5 N5_3 1_555 1_555
O47 C71_2 1_555 1_555
C71_2 C72_2 1_555 1_555
C72_2 C73_2 1_555 1_555
C73_2 C74_2 1_555 1_555
C74_2 C75_2 1_555 1_555
C75_2 C76_2 1_555 1_555
C76_2 C77_2 1_555 1_555
C77_2 N5_3 1_555 1_555
C79_2 C76_2 1_555 1_555
C80_2 C79_2 1_555 1_555
N8_3 Fe5_5 1_555 1_555
H35_2 C73_2 1_555 1_555
H36_2 C74_2 1_555 1_555
H37_2 C78_2 1_555 1_555
H38_2 C80_2 1_555 1_555
O18_2 C71_2 1_555 1_555
C81_2 C72_2 1_555 1_555
C82_2 C75_2 1_555 1_555
H39_2 C81_2 1_555 1_555
H40_2 C82_2 1_555 1_555
Fe21 O18_2 1_555 1_555
C77_2 C78_2 1_555 1_555
C79_2 N8_3 1_555 1_555
C81_2 C82_2 1_555 1_555
Fe5_5 Cl1_9 1_555 1_555
Fe5_6 N5_4 1_555 1_555
C49_2 O44 1_555 1_555
C50_2 C49_2 1_555 1_555
C51_2 C50_2 1_555 1_555
C52_2 C51_2 1_555 1_555
C53_2 C52_2 1_555 1_555
C54_2 C53_2 1_555 1_555
C55_2 C54_2 1_555 1_555
C56_2 C55_2 1_555 1_555
N5_4 C55_2 1_555 1_555
C57_2 C54_2 1_555 1_555
C58_2 C57_2 1_555 1_555
N6_3 Fe5_6 1_555 1_555
H25_2 C51_2 1_555 1_555
H26_2 C52_2 1_555 1_555
H27_2 C56_2 1_555 1_555
H28_2 C58_2 1_555 1_555
O19_2 C49_2 1_555 1_555
C83_2 C50_2 1_555 1_555
C84_2 C53_2 1_555 1_555
H41_2 C83_2 1_555 1_555
H42_2 C84_2 1_555 1_555
O32_2 Fe21 1_555 1_555
O44_2 Fe21 1_555 1_555
O47_2 Fe21 1_555 1_555
C57_2 N6_3 1_555 1_555
O19_2 Fe21 1_555 1_555
C83_2 C84_2 1_555 1_555
Fe5_6 Cl1_10 1_555 1_555
N7_3 Fe5_7 1_555 1_555
N8_4 Fe5_7 1_555 1_555
O20_2 C85_2 1_555 1_555
C85_2 C86_2 1_555 1_555
C86_2 C87_2 1_555 1_555
C87_2 C88_2 1_555 1_555
C88_2 C89_2 1_555 1_555
C89_2 C90_2 1_555 1_555
C90_2 C91_2 1_555 1_555
C91_2 N7_3 1_555 1_555
C93_2 N8_4 1_555 1_555
H43_2 C87_2 1_555 1_555
H44_2 C88_2 1_555 1_555
H45_2 C92_2 1_555 1_555
H46_2 C94_2 1_555 1_555
O37 C85_2 1_555 1_555
C95_2 C86_2 1_555 1_555
C96_2 C89_2 1_555 1_555
H47_2 C95_2 1_555 1_555
H48_2 C96_2 1_555 1_555
Fe13 O20_2 1_555 1_555
C90_2 C93_2 1_555 1_555
C91_2 C92_2 1_555 1_555
C93_2 C94_2 1_555 1_555
C95_2 C96_2 1_555 1_555
Fe13 O1_2 1_555 1_555
Fe5_7 Cl1_11 1_555 1_555
N6_4 Fe5_8 1_555 1_555
O15_2 Fe13 1_555 1_555
C59_2 O15_2 1_555 1_555
C60_2 C59_2 1_555 1_555
C61_2 C60_2 1_555 1_555
C62_2 C61_2 1_555 1_555
C63_2 C62_2 1_555 1_555
C64_2 C63_2 1_555 1_555
C65_2 C64_2 1_555 1_555
C66_2 C65_2 1_555 1_555
N7_4 Fe5_8 1_555 1_555
C67_2 N6_4 1_555 1_555
H29_2 C61_2 1_555 1_555
H30_2 C62_2 1_555 1_555
H31_2 C66_2 1_555 1_555
H32_2 C68_2 1_555 1_555
O36 C59_2 1_555 1_555
C69_2 C60_2 1_555 1_555
C70_2 C63_2 1_555 1_555
H33_2 C69_2 1_555 1_555
H34_2 C70_2 1_555 1_555
O36_2 Fe13 1_555 1_555
O37_2 Fe13 1_555 1_555
C64_2 C67_2 1_555 1_555
C65_2 N7_4 1_555 1_555
C67_2 C68_2 1_555 1_555
C69_2 C70_2 1_555 1_555
Fe5_8 Cl1_12 1_555 1_555
Fe7 N9 1_555 1_555
C97 O47_2 1_555 1_555
C98 C97 1_555 1_555
C99 C98 1_555 1_555
C100 C99 1_555 1_555
C101 C100 1_555 1_555
C102 C101 1_555 1_555
C103 C102 1_555 1_555
C104 C103 1_555 1_555
N9 C103 1_555 1_555
C105 C102 1_555 1_555
C106 C105 1_555 1_555
N10 Fe7 1_555 1_555
H49 C99 1_555 1_555
H50 C100 1_555 1_555
H51 C104 1_555 1_555
H52 C106 1_555 1_555
O42 C107 1_555 1_555
C107 C108 1_555 1_555
C108 C109 1_555 1_555
C109 C110 1_555 1_555
C110 C111 1_555 1_555
C111 C112 1_555 1_555
C112 C113 1_555 1_555
C113 C114 1_555 1_555
C114 H55 1_555 1_555
N11 Fe7 1_555 1_555
C115 N10 1_555 1_555
C116 C106 1_555 1_555
H53 C109 1_555 1_555
H54 C110 1_555 1_555
H56 C116 1_555 1_555
O37_2 C107 1_555 1_555
C117 C108 1_555 1_555
C118 C111 1_555 1_555
H57 C117 1_555 1_555
H58 C118 1_555 1_555
O41 C97 1_555 1_555
C131 C98 1_555 1_555
C132 C101 1_555 1_555
H65 C131 1_555 1_555
H66 C132 1_555 1_555
C105 N10 1_555 1_555
C112 C115 1_555 1_555
C113 N11 1_555 1_555
C115 C116 1_555 1_555
C117 C118 1_555 1_555
C131 C132 1_555 1_555
Fe7 Cl1_13 1_555 1_555
Fe7_2 N9_2 1_555 1_555
N11_2 Fe7_2 1_555 1_555
O44_2 C119 1_555 1_555
C119 C120 1_555 1_555
C120 C121 1_555 1_555
C121 C122 1_555 1_555
C122 C123 1_555 1_555
C123 C124 1_555 1_555
C124 C125 1_555 1_555
C125 N9_2 1_555 1_555
C127 C124 1_555 1_555
C128 C127 1_555 1_555
N12 Fe7_2 1_555 1_555
H59 C121 1_555 1_555
H60 C122 1_555 1_555
H61 C126 1_555 1_555
H62 C128 1_555 1_555
C129 C120 1_555 1_555
C130 C123 1_555 1_555
H63 C129 1_555 1_555
H64 C130 1_555 1_555
O45 C133 1_555 1_555
C133 C134 1_555 1_555
C134 C135 1_555 1_555
C135 C136 1_555 1_555
C136 C137 1_555 1_555
C137 C138 1_555 1_555
C138 C139 1_555 1_555
C139 N11_2 1_555 1_555
C141 N12 1_555 1_555
C142 C128 1_555 1_555
H67 C135 1_555 1_555
H68 C136 1_555 1_555
H69 C140 1_555 1_555
H70 C142 1_555 1_555
O36_2 C133 1_555 1_555
C143 C134 1_555 1_555
C144 C137 1_555 1_555
H71 C143 1_555 1_555
H72 C144 1_555 1_555
C119 O39 1_555 1_555
C125 C126 1_555 1_555
C127 N12 1_555 1_555
C129 C130 1_555 1_555
C138 C141 1_555 1_555
C139 C140 1_555 1_555
C141 C142 1_555 1_555
C143 C144 1_555 1_555
Fe7_2 Cl1_14 1_555 1_555
Fe5_5 Cl1_15 1_555 1_555
Fe5_6 Cl1_16 1_555 1_555
Fe5_7 Cl1_17 1_555 1_555
Fe5_8 Cl1_18 1_555 1_555
Fe7 Cl1_19 1_555 1_555
Fe7_2 Cl1_20 1_555 1_555

#END
