
###############################################################################
#
# This file contains modified crystal structure data generated from the
# MOF subset of the Cambridge Structural Database (CSD) v543 
# hosted by the Cambridge Crystallographic Data Centre (CCDC).
#
# This work is licensed under the Creative Commons
# Attribution-NonCommercial-ShareAlike 4.0 International License.
# To view a copy of this license, visit
# http://creativecommons.org/licenses/by-nc-sa/4.0/
# or send a letter to
# Creative Commons, PO Box 1866, Mountain View, CA 94042, USA.
#
# CIF created using the CSD Python API on 29 September 2022
# The structure has been converted into the P1 space group
# The structure has a 3D framework
# The original CSD entry METYIU is in the tetragonal crystal system
# The framework has been calculated to contain at least 10.0% void space
# The void calculation uses a probe of radius 1.32A, grid spacing 0.4
#
###############################################################################

data_METYIU
_chemical_formula_moiety         '(C192 H160 Cd14 N64 O64)n'
_symmetry_cell_setting           triclinic
_symmetry_space_group_name_H-M   'P 1'
_symmetry_Int_Tables_number      1
_space_group_name_Hall           'P 1'
loop_
_symmetry_equiv_pos_site_id
_symmetry_equiv_pos_as_xyz
1 x,y,z
_cell_length_a                   18.6378(19)
_cell_length_b                   18.6378(19)
_cell_length_c                   22.570(3)
_cell_angle_alpha                90
_cell_angle_beta                 90
_cell_angle_gamma                90
_cell_volume                     7840.09
loop_
_atom_site_label
_atom_site_type_symbol
_atom_site_fract_x
_atom_site_fract_y
_atom_site_fract_z
Cd3 Cd 0.07612(3) 0.03760(3) 0.87192(2)
Cd1 Cd 0.07612(3) 0.53760(3) 0.12808(2)
C7 C 0.0938(4) 0.7357(4) 0.0230(3)
C8 C 0.0829(4) 0.7021(4) 0.0758(3)
H5 H 0.0708 0.7250 0.1110
C9 C 0.1106(4) 0.6197(4) 0.0135(3)
C10 C 0.0869(4) 0.8098(4) 0.0043(3)
H7 H 0.0793 0.8442 0.0335
N3 N 0.0924(3) 0.6298(3) 0.0693(3)
Cd2 Cd 0.57612(3) 0.53760(3) 0.37192(2)
C13 C 0.3559(4) 0.5333(4) 0.2991(3)
C14 C 0.4276(4) 0.5464(5) 0.2956(3)
H11 H 0.4521 0.5561 0.2607
C15 C 0.4055(4) 0.5263(4) 0.3864(3)
H12 H 0.4111 0.5191 0.4269
C16 C 0.3023(4) 0.5338(4) 0.2536(3)
H13 H 0.3184 0.5370 0.2147
C17 C 0.2325(4) 0.5301(4) 0.2617(3)
H14 H 0.2145 0.5251 0.2999
C18 C 0.1823(4) 0.5338(4) 0.2116(3)
H16 H 0.1212 0.0752 0.0031
C23 C 0.0907(4) 0.3312(4) 0.0500(3)
H18 H 0.0982 0.2967 0.0792
C24 C 0.0839(4) 0.4079(4) 0.0692(3)
N5 N 0.4584(3) 0.5433(3) 0.3501(3)
N6 N 0.3438(3) 0.5208(3) 0.3582(3)
H19 H 0.3030 0.5111 0.3741
N8 N 0.5924(3) 0.6298(3) 0.4307(3)
N9 N 0.1119(3) 0.1814(3) 0.0161(3)
H20 H 0.1222 0.1867 0.0530
O5 O 0.0832(3) 0.4575(3) 0.0335(2)
O6 O 0.5832(3) 0.4575(3) 0.4665(2)
O7 O 0.0777(3) 0.4175(3) 0.1244(2)
O8 O 0.5777(3) 0.4175(3) 0.3756(2)
O9 O 0.2019(3) 0.5245(3) 0.1592(2)
O10 O 0.7019(3) 0.5245(3) 0.3408(2)
O11 O 0.1158(3) 0.5488(3) 0.2234(2)
O12 O 0.6158(3) 0.5488(3) 0.2766(2)
H6 H 0.1212 0.5752 0.9969
C11 C 0.0907(4) 0.8312(4) 0.9500(3)
H8 H 0.0982 0.7967 0.9208
C12 C 0.0839(4) 0.9079(4) 0.9308(3)
N4 N 0.1119(3) 0.6814(3) 0.9839(3)
H10 H 0.1222 0.6867 0.9470
O1 O 0.0832(3) 0.9575(3) 0.9665(2)
O2 O 0.0777(3) 0.9175(3) 0.8756(2)
C19 C 0.0938(4) 0.2357(4) 0.9770(3)
C20 C 0.0829(4) 0.2021(4) 0.9242(3)
H15 H 0.0708 0.2250 0.8890
C21 C 0.1106(4) 0.1197(4) 0.9865(3)
C22 C 0.0869(4) 0.3098(4) 0.9957(3)
H17 H 0.0793 0.3442 0.9665
N7 N 0.0924(3) 0.1298(3) 0.9307(3)
C1 C 0.8559(4) 0.5333(4) 0.2009(3)
C2 C 0.9276(4) 0.5464(5) 0.2044(3)
H1 H 0.9521 0.5561 0.2393
C3 C 0.9055(4) 0.5263(4) 0.1136(3)
H2 H 0.9111 0.5191 0.0731
C4 C 0.8023(4) 0.5338(4) 0.2464(3)
H3 H 0.8184 0.5370 0.2853
C5 C 0.7325(4) 0.5301(4) 0.2383(3)
H4 H 0.7145 0.5251 0.2001
C6 C 0.6823(4) 0.5338(4) 0.2884(3)
N1 N 0.9584(3) 0.5433(3) 0.1499(3)
N2 N 0.8438(3) 0.5208(3) 0.1418(3)
H9 H 0.8030 0.5111 0.1259
O10_2 O 0.2019(3) 0.0245(3) 0.8408(2)
O12_2 O 0.1158(3) 0.0488(3) 0.7766(2)
Cd1_2 Cd 0.57612(3) 0.03760(3) 0.62808(2)
C1_2 C 0.3559(4) 0.0333(4) 0.7009(3)
C2_2 C 0.4276(4) 0.0464(5) 0.7044(3)
H1_2 H 0.4521 0.0561 0.7393
C3_2 C 0.4055(4) 0.0263(4) 0.6136(3)
H2_2 H 0.4111 0.0191 0.5731
C4_2 C 0.3023(4) 0.0338(4) 0.7464(3)
H3_2 H 0.3184 0.0370 0.7853
C5_2 C 0.2325(4) 0.0301(4) 0.7383(3)
H4_2 H 0.2145 0.0251 0.7001
C6_2 C 0.1823(4) 0.0338(4) 0.7884(3)
C7_2 C 0.5938(4) 0.2357(4) 0.5230(3)
C8_2 C 0.5829(4) 0.2021(4) 0.5758(3)
H5_2 H 0.5708 0.2250 0.6110
C9_2 C 0.6106(4) 0.1197(4) 0.5135(3)
H6_2 H 0.6212 0.0752 0.4969
C10_2 C 0.5869(4) 0.3098(4) 0.5043(3)
H7_2 H 0.5793 0.3442 0.5335
C11_2 C 0.5907(4) 0.3312(4) 0.4500(3)
H8_2 H 0.5982 0.2967 0.4208
C12_2 C 0.5839(4) 0.4079(4) 0.4308(3)
N1_2 N 0.4584(3) 0.0433(3) 0.6499(3)
N2_2 N 0.3438(3) 0.0208(3) 0.6418(3)
H9_2 H 0.3030 0.0111 0.6259
N3_2 N 0.5924(3) 0.1298(3) 0.5693(3)
N4_2 N 0.6119(3) 0.1814(3) 0.4839(3)
H10_2 H 0.6222 0.1867 0.4470
C13_2 C 0.8559(4) 0.0333(4) 0.7991(3)
C14_2 C 0.9276(4) 0.0464(5) 0.7956(3)
H11_2 H 0.9521 0.0561 0.7607
C15_2 C 0.9055(4) 0.0263(4) 0.8864(3)
H12_2 H 0.9111 0.0191 0.9269
C16_2 C 0.8023(4) 0.0338(4) 0.7536(3)
H13_2 H 0.8184 0.0370 0.7147
C17_2 C 0.7325(4) 0.0301(4) 0.7617(3)
H14_2 H 0.7145 0.0251 0.7999
C18_2 C 0.6823(4) 0.0338(4) 0.7116(3)
N5_2 N 0.9584(3) 0.0433(3) 0.8501(3)
N6_2 N 0.8438(3) 0.0208(3) 0.8582(3)
H19_2 H 0.8030 0.0111 0.8741
O9_2 O 0.7019(3) 0.0245(3) 0.6592(2)
O11_2 O 0.6158(3) 0.0488(3) 0.7234(2)
C19_2 C 0.5938(4) 0.7357(4) 0.4770(3)
C20_2 C 0.5829(4) 0.7021(4) 0.4242(3)
H15_2 H 0.5708 0.7250 0.3890
C21_2 C 0.6106(4) 0.6197(4) 0.4865(3)
H16_2 H 0.6212 0.5752 0.5031
C22_2 C 0.5869(4) 0.8098(4) 0.4957(3)
H17_2 H 0.5793 0.8442 0.4665
C23_2 C 0.5907(4) 0.8312(4) 0.5500(3)
H18_2 H 0.5982 0.7967 0.5792
C24_2 C 0.5839(4) 0.9079(4) 0.5692(3)
N9_2 N 0.6119(3) 0.6814(3) 0.5161(3)
H20_2 H 0.6222 0.6867 0.5530
O5_2 O 0.5832(3) 0.9575(3) 0.5335(2)
O7_2 O 0.5777(3) 0.9175(3) 0.6244(2)
Cd1_3 Cd 0.21240(3) 0.32612(3) 0.37808(2)
C1_3 C 0.2167(4) 0.1059(4) 0.4509(3)
C2_3 C 0.2036(5) 0.1776(4) 0.4544(3)
H1_3 H 0.1939 0.2021 0.4893
C3_3 C 0.2237(4) 0.1555(4) 0.3636(3)
H2_3 H 0.2309 0.1611 0.3231
C4_3 C 0.2162(4) 0.0523(4) 0.4964(3)
H3_3 H 0.2130 0.0684 0.5353
C7_3 C 0.0143(4) 0.3438(4) 0.2730(3)
C8_3 C 0.0479(4) 0.3329(4) 0.3258(3)
H5_3 H 0.0250 0.3208 0.3610
C9_3 C 0.1303(4) 0.3606(4) 0.2635(3)
H6_3 H 0.1748 0.3712 0.2469
N1_3 N 0.2067(3) 0.2084(3) 0.3999(3)
N2_3 N 0.2292(3) 0.0938(3) 0.3918(3)
H9_3 H 0.2389 0.0530 0.3759
N3_3 N 0.1202(3) 0.3424(3) 0.3193(3)
N4_3 N 0.0686(3) 0.3619(3) 0.2339(3)
H10_3 H 0.0633 0.3722 0.1970
Cd2_2 Cd 0.21240(3) 0.82612(3) 0.62192(2)
Cd5 Cd 0.71240(3) 0.32612(3) 0.12192(2)
C13_3 C 0.2167(4) 0.6059(4) 0.5491(3)
C14_3 C 0.2036(5) 0.6776(4) 0.5456(3)
H11_3 H 0.1939 0.7021 0.5107
C15_3 C 0.2237(4) 0.6555(4) 0.6364(3)
H12_3 H 0.2309 0.6611 0.6769
C16_3 C 0.2162(4) 0.5523(4) 0.5036(3)
H13_3 H 0.2130 0.5684 0.4647
C17_3 C 0.2199(4) 0.4825(4) 0.5117(3)
H14_3 H 0.2249 0.4645 0.5499
C18_3 C 0.2162(4) 0.4323(4) 0.4616(3)
C19_3 C 0.5143(4) 0.3438(4) 0.2270(3)
C20_3 C 0.5479(4) 0.3329(4) 0.1742(3)
H15_3 H 0.5250 0.3208 0.1390
C21_3 C 0.6303(4) 0.3606(4) 0.2365(3)
H16_3 H 0.6748 0.3712 0.2531
C22_3 C 0.4402(4) 0.3369(4) 0.2457(3)
H17_3 H 0.4058 0.3293 0.2165
C23_3 C 0.4188(4) 0.3407(4) 0.3000(3)
H18_3 H 0.4533 0.3482 0.3292
C24_3 C 0.3421(4) 0.3339(4) 0.3192(3)
N5_3 N 0.2067(3) 0.7084(3) 0.6001(3)
N6_3 N 0.2292(3) 0.5938(3) 0.6082(3)
H19_3 H 0.2389 0.5530 0.6241
N7_2 N 0.6202(3) 0.3424(3) 0.1807(3)
N8_2 N 0.1202(3) 0.8424(3) 0.6807(3)
N9_3 N 0.5686(3) 0.3619(3) 0.2661(3)
H20_3 H 0.5633 0.3722 0.3030
O5_3 O 0.2925(3) 0.3332(3) 0.2835(2)
O6_2 O 0.2925(3) 0.8332(3) 0.7165(2)
O7_3 O 0.3325(3) 0.3277(3) 0.3744(2)
O8_2 O 0.3325(3) 0.8277(3) 0.6256(2)
O9_3 O 0.2255(3) 0.4519(3) 0.4092(2)
O10_3 O 0.2255(3) 0.9519(3) 0.5908(2)
O11_3 O 0.2012(3) 0.3658(3) 0.4734(2)
O12_3 O 0.2012(3) 0.8658(3) 0.5266(2)
C5_3 C 0.2199(4) 0.9825(4) 0.4883(3)
H4_3 H 0.2249 0.9645 0.4501
C6_3 C 0.2162(4) 0.9323(4) 0.5384(3)
C10_3 C 0.9402(4) 0.3369(4) 0.2543(3)
H7_3 H 0.9058 0.3293 0.2835
C11_3 C 0.9188(4) 0.3407(4) 0.2000(3)
H8_3 H 0.9533 0.3482 0.1708
C12_3 C 0.8421(4) 0.3339(4) 0.1808(3)
O1_2 O 0.7925(3) 0.3332(3) 0.2165(2)
O2_2 O 0.8325(3) 0.3277(3) 0.1256(2)
C19_4 C 0.0143(4) 0.8438(4) 0.7270(3)
C20_4 C 0.0479(4) 0.8329(4) 0.6742(3)
H15_4 H 0.0250 0.8208 0.6390
C21_4 C 0.1303(4) 0.8606(4) 0.7365(3)
H16_4 H 0.1748 0.8712 0.7531
N9_4 N 0.0686(3) 0.8619(3) 0.7661(3)
H20_4 H 0.0633 0.8722 0.8030
C13_4 C 0.7167(4) 0.1059(4) 0.0491(3)
C14_4 C 0.7036(5) 0.1776(4) 0.0456(3)
H11_4 H 0.6939 0.2021 0.0107
C15_4 C 0.7237(4) 0.1555(4) 0.1364(3)
H12_4 H 0.7309 0.1611 0.1769
C16_4 C 0.7162(4) 0.0523(4) 0.0036(3)
N5_4 N 0.7067(3) 0.2084(3) 0.1001(3)
N6_4 N 0.7292(3) 0.0938(3) 0.1082(3)
H19_4 H 0.7389 0.0530 0.1241
O10_4 O 0.7255(3) 0.4519(3) 0.0908(2)
O12_4 O 0.7012(3) 0.3658(3) 0.0266(2)
H13_4 H 0.7130 0.0684 0.9647
H3_4 H 0.7130 0.5684 0.0353
C6_4 C 0.7162(4) 0.4323(4) 0.0384(3)
C17_4 C 0.7199(4) 0.9825(4) 0.0117(3)
H14_4 H 0.7249 0.9645 0.0499
Cd1_4 Cd 0.71240(3) 0.82612(3) 0.87808(2)
C1_4 C 0.7167(4) 0.6059(4) 0.9509(3)
C2_4 C 0.7036(5) 0.6776(4) 0.9544(3)
H1_4 H 0.6939 0.7021 0.9893
C3_4 C 0.7237(4) 0.6555(4) 0.8636(3)
H2_4 H 0.7309 0.6611 0.8231
C4_4 C 0.7162(4) 0.5523(4) 0.9964(3)
C5_4 C 0.7199(4) 0.4825(4) 0.9883(3)
H4_4 H 0.7249 0.4645 0.9501
C7_4 C 0.5143(4) 0.8438(4) 0.7730(3)
C8_4 C 0.5479(4) 0.8329(4) 0.8258(3)
H5_4 H 0.5250 0.8208 0.8610
C9_4 C 0.6303(4) 0.8606(4) 0.7635(3)
H6_4 H 0.6748 0.8712 0.7469
C10_4 C 0.4402(4) 0.8369(4) 0.7543(3)
H7_4 H 0.4058 0.8293 0.7835
C11_4 C 0.4188(4) 0.8407(4) 0.7000(3)
H8_4 H 0.4533 0.8482 0.6708
C12_4 C 0.3421(4) 0.8339(4) 0.6808(3)
N1_4 N 0.7067(3) 0.7084(3) 0.8999(3)
N2_4 N 0.7292(3) 0.5938(3) 0.8918(3)
H9_4 H 0.7389 0.5530 0.8759
N3_4 N 0.6202(3) 0.8424(3) 0.8193(3)
N4_4 N 0.5686(3) 0.8619(3) 0.7339(3)
H10_4 H 0.5633 0.8722 0.6970
C18_4 C 0.7162(4) 0.9323(4) 0.9616(3)
C22_4 C 0.9402(4) 0.8369(4) 0.7457(3)
H17_4 H 0.9058 0.8293 0.7165
C23_4 C 0.9188(4) 0.8407(4) 0.8000(3)
H18_4 H 0.9533 0.8482 0.8292
C24_4 C 0.8421(4) 0.8339(4) 0.8192(3)
O5_4 O 0.7925(3) 0.8332(3) 0.7835(2)
O7_4 O 0.8325(3) 0.8277(3) 0.8744(2)
O9_4 O 0.7255(3) 0.9519(3) 0.9092(2)
O11_4 O 0.7012(3) 0.8658(3) 0.9734(2)
C10_5 C 0.0598(4) 0.1631(4) 0.2543(3)
H7_5 H 0.0942 0.1707 0.2835
C11_5 C 0.0812(4) 0.1593(4) 0.2000(3)
H8_5 H 0.0467 0.1518 0.1708
C12_5 C 0.1579(4) 0.1661(4) 0.1808(3)
O1_3 O 0.2075(3) 0.1668(3) 0.2165(2)
O2_3 O 0.1675(3) 0.1723(3) 0.1256(2)
Cd3_2 Cd 0.28760(3) 0.17388(3) 0.12192(2)
Cd1_5 Cd 0.78760(3) 0.17388(3) 0.37808(2)
C1_5 C 0.7833(4) 0.3941(4) 0.4509(3)
C2_5 C 0.7964(5) 0.3224(4) 0.4544(3)
H1_5 H 0.8061 0.2979 0.4893
C3_5 C 0.7763(4) 0.3445(4) 0.3636(3)
H2_5 H 0.7691 0.3389 0.3231
C4_5 C 0.7838(4) 0.4477(4) 0.4964(3)
H3_5 H 0.7870 0.4316 0.5353
C5_5 C 0.7801(4) 0.5175(4) 0.4883(3)
H4_5 H 0.7751 0.5355 0.4501
C6_5 C 0.7838(4) 0.5677(4) 0.5384(3)
C7_5 C 0.9857(4) 0.1562(4) 0.2730(3)
C8_5 C 0.9521(4) 0.1671(4) 0.3258(3)
H5_5 H 0.9750 0.1792 0.3610
C9_5 C 0.8697(4) 0.1394(4) 0.2635(3)
H6_5 H 0.8252 0.1288 0.2469
N1_5 N 0.7933(3) 0.2916(3) 0.3999(3)
N2_5 N 0.7708(3) 0.4062(3) 0.3918(3)
H9_5 H 0.7611 0.4470 0.3759
N3_5 N 0.8798(3) 0.1576(3) 0.3193(3)
N4_5 N 0.9314(3) 0.1381(3) 0.2339(3)
H10_5 H 0.9367 0.1278 0.1970
O3 O 0.7745(3) 0.5481(3) 0.5908(2)
O4 O 0.7988(3) 0.6342(3) 0.5266(2)
Cd4 Cd 0.78760(3) 0.67388(3) 0.62192(2)
C17_5 C 0.7801(4) 0.0175(4) 0.5117(3)
H14_5 H 0.7751 0.0355 0.5499
C18_5 C 0.7838(4) 0.0677(4) 0.4616(3)
C19_5 C 0.4857(4) 0.1562(4) 0.2270(3)
C20_5 C 0.4521(4) 0.1671(4) 0.1742(3)
H15_5 H 0.4750 0.1792 0.1390
C21_5 C 0.3697(4) 0.1394(4) 0.2365(3)
H16_5 H 0.3252 0.1288 0.2531
C22_5 C 0.5598(4) 0.1631(4) 0.2457(3)
H17_5 H 0.5942 0.1707 0.2165
C23_5 C 0.5812(4) 0.1593(4) 0.3000(3)
H18_5 H 0.5467 0.1518 0.3292
C24_5 C 0.6579(4) 0.1661(4) 0.3192(3)
N7_3 N 0.3798(3) 0.1576(3) 0.1807(3)
N9_5 N 0.4314(3) 0.1381(3) 0.2661(3)
H20_5 H 0.4367 0.1278 0.3030
O5_5 O 0.7075(3) 0.1668(3) 0.2835(2)
O7_5 O 0.6675(3) 0.1723(3) 0.3744(2)
O9_5 O 0.7745(3) 0.0481(3) 0.4092(2)
O11_5 O 0.7988(3) 0.1342(3) 0.4734(2)
C13_5 C 0.7833(4) 0.8941(4) 0.5491(3)
C14_5 C 0.7964(5) 0.8224(4) 0.5456(3)
H11_5 H 0.8061 0.7979 0.5107
C15_5 C 0.7763(4) 0.8445(4) 0.6364(3)
H12_5 H 0.7691 0.8389 0.6769
C16_5 C 0.7838(4) 0.9477(4) 0.5036(3)
H13_5 H 0.7870 0.9316 0.4647
N5_5 N 0.7933(3) 0.7916(3) 0.6001(3)
N6_5 N 0.7708(3) 0.9062(3) 0.6082(3)
H19_5 H 0.7611 0.9470 0.6241
N8_3 N 0.8798(3) 0.6576(3) 0.6807(3)
O6_3 O 0.7075(3) 0.6668(3) 0.7165(2)
O8_3 O 0.6675(3) 0.6723(3) 0.6256(2)
C6_6 C 0.2838(4) 0.0677(4) 0.0384(3)
O3_2 O 0.2745(3) 0.0481(3) 0.0908(2)
O4_2 O 0.2988(3) 0.1342(3) 0.0266(2)
C5_6 C 0.2801(4) 0.0175(4) 0.9883(3)
H4_6 H 0.2751 0.0355 0.9501
H3_6 H 0.2870 0.9316 0.0353
C13_6 C 0.2833(4) 0.3941(4) 0.0491(3)
C14_6 C 0.2964(5) 0.3224(4) 0.0456(3)
H11_6 H 0.3061 0.2979 0.0107
C15_6 C 0.2763(4) 0.3445(4) 0.1364(3)
H12_6 H 0.2691 0.3389 0.1769
C16_6 C 0.2838(4) 0.4477(4) 0.0036(3)
C17_6 C 0.2801(4) 0.5175(4) 0.0117(3)
H14_6 H 0.2751 0.5355 0.0499
N5_6 N 0.2933(3) 0.2916(3) 0.1001(3)
N6_6 N 0.2708(3) 0.4062(3) 0.1082(3)
H19_6 H 0.2611 0.4470 0.1241
Cd1_6 Cd 0.28760(3) 0.67388(3) 0.87808(2)
C1_6 C 0.2833(4) 0.8941(4) 0.9509(3)
C2_6 C 0.2964(5) 0.8224(4) 0.9544(3)
H1_6 H 0.3061 0.7979 0.9893
C3_6 C 0.2763(4) 0.8445(4) 0.8636(3)
H2_6 H 0.2691 0.8389 0.8231
C4_6 C 0.2838(4) 0.9477(4) 0.9964(3)
C7_6 C 0.4857(4) 0.6562(4) 0.7730(3)
C8_6 C 0.4521(4) 0.6671(4) 0.8258(3)
H5_6 H 0.4750 0.6792 0.8610
C9_6 C 0.3697(4) 0.6394(4) 0.7635(3)
H6_6 H 0.3252 0.6288 0.7469
C10_6 C 0.5598(4) 0.6631(4) 0.7543(3)
H7_6 H 0.5942 0.6707 0.7835
C11_6 C 0.5812(4) 0.6593(4) 0.7000(3)
H8_6 H 0.5467 0.6518 0.6708
C12_6 C 0.6579(4) 0.6661(4) 0.6808(3)
N1_6 N 0.2933(3) 0.7916(3) 0.8999(3)
N2_6 N 0.2708(3) 0.9062(3) 0.8918(3)
H9_6 H 0.2611 0.9470 0.8759
N3_6 N 0.3798(3) 0.6576(3) 0.8193(3)
N4_6 N 0.4314(3) 0.6381(3) 0.7339(3)
H10_6 H 0.4367 0.6278 0.6970
H13_6 H 0.2870 0.4316 0.9647
C18_6 C 0.2838(4) 0.5677(4) 0.9616(3)
C22_6 C 0.0598(4) 0.6631(4) 0.7457(3)
H17_6 H 0.0942 0.6707 0.7165
C23_6 C 0.0812(4) 0.6593(4) 0.8000(3)
H18_6 H 0.0467 0.6518 0.8292
C24_6 C 0.1579(4) 0.6661(4) 0.8192(3)
O5_6 O 0.2075(3) 0.6668(3) 0.7835(2)
O7_6 O 0.1675(3) 0.6723(3) 0.8744(2)
O9_6 O 0.2745(3) 0.5481(3) 0.9092(2)
O11_6 O 0.2988(3) 0.6342(3) 0.9734(2)
C19_6 C 0.9857(4) 0.6562(4) 0.7270(3)
C20_6 C 0.9521(4) 0.6671(4) 0.6742(3)
H15_6 H 0.9750 0.6792 0.6390
C21_6 C 0.8697(4) 0.6394(4) 0.7365(3)
H16_6 H 0.8252 0.6288 0.7531
N9_6 N 0.9314(3) 0.6381(3) 0.7661(3)
H20_6 H 0.9367 0.6278 0.8030
Cd1_7 Cd 0.42388(3) 0.46240(3) 0.62808(2)
C1_7 C 0.6441(4) 0.4667(4) 0.7009(3)
C2_7 C 0.5724(4) 0.4536(5) 0.7044(3)
H1_7 H 0.5479 0.4439 0.7393
C3_7 C 0.5945(4) 0.4737(4) 0.6136(3)
H2_7 H 0.5889 0.4809 0.5731
C4_7 C 0.6977(4) 0.4662(4) 0.7464(3)
H3_7 H 0.6816 0.4630 0.7853
C5_7 C 0.7675(4) 0.4699(4) 0.7383(3)
H4_7 H 0.7855 0.4749 0.7001
C6_7 C 0.8177(4) 0.4662(4) 0.7884(3)
C7_7 C 0.4062(4) 0.2643(4) 0.5230(3)
C8_7 C 0.4171(4) 0.2979(4) 0.5758(3)
H5_7 H 0.4292 0.2750 0.6110
C9_7 C 0.3894(4) 0.3803(4) 0.5135(3)
H6_7 H 0.3788 0.4248 0.4969
C10_7 C 0.4131(4) 0.1902(4) 0.5043(3)
H7_7 H 0.4207 0.1558 0.5335
C11_7 C 0.4093(4) 0.1688(4) 0.4500(3)
H8_7 H 0.4018 0.2033 0.4208
C12_7 C 0.4161(4) 0.0921(4) 0.4308(3)
N1_7 N 0.5416(3) 0.4567(3) 0.6499(3)
N2_7 N 0.6562(3) 0.4792(3) 0.6418(3)
H9_7 H 0.6970 0.4889 0.6259
N3_7 N 0.4076(3) 0.3702(3) 0.5693(3)
N4_7 N 0.3881(3) 0.3186(3) 0.4839(3)
H10_7 H 0.3778 0.3133 0.4470
O1_4 O 0.4168(3) 0.0425(3) 0.4665(2)
O2_4 O 0.4223(3) 0.0825(3) 0.3756(2)
O3_3 O 0.7981(3) 0.4755(3) 0.8408(2)
O4_3 O 0.8842(3) 0.4512(3) 0.7766(2)
Cd4_2 Cd 0.92388(3) 0.46240(3) 0.87192(2)
Cd5_2 Cd 0.42388(3) 0.96240(3) 0.37192(2)
C13_7 C 0.1441(4) 0.4667(4) 0.7991(3)
C14_7 C 0.0724(4) 0.4536(5) 0.7956(3)
H11_7 H 0.0479 0.4439 0.7607
C15_7 C 0.0945(4) 0.4737(4) 0.8864(3)
H12_7 H 0.0889 0.4809 0.9269
C16_7 C 0.1977(4) 0.4662(4) 0.7536(3)
H13_7 H 0.1816 0.4630 0.7147
C17_7 C 0.2675(4) 0.4699(4) 0.7617(3)
H14_7 H 0.2855 0.4749 0.7999
C18_7 C 0.3177(4) 0.4662(4) 0.7116(3)
C19_7 C 0.4062(4) 0.7643(4) 0.4770(3)
C20_7 C 0.4171(4) 0.7979(4) 0.4242(3)
H15_7 H 0.4292 0.7750 0.3890
C21_7 C 0.3894(4) 0.8803(4) 0.4865(3)
H16_7 H 0.3788 0.9248 0.5031
C22_7 C 0.4131(4) 0.6902(4) 0.4957(3)
H17_7 H 0.4207 0.6558 0.4665
C23_7 C 0.4093(4) 0.6688(4) 0.5500(3)
H18_7 H 0.4018 0.7033 0.5792
C24_7 C 0.4161(4) 0.5921(4) 0.5692(3)
N5_7 N 0.0416(3) 0.4567(3) 0.8501(3)
N6_7 N 0.1562(3) 0.4792(3) 0.8582(3)
H19_7 H 0.1970 0.4889 0.8741
N7_4 N 0.4076(3) 0.8702(3) 0.4307(3)
N9_7 N 0.3881(3) 0.8186(3) 0.5161(3)
H20_7 H 0.3778 0.8133 0.5530
O5_7 O 0.4168(3) 0.5425(3) 0.5335(2)
O7_7 O 0.4223(3) 0.5825(3) 0.6244(2)
O9_7 O 0.2981(3) 0.4755(3) 0.6592(2)
O11_7 O 0.3842(3) 0.4512(3) 0.7234(2)
N8_4 N 0.9076(3) 0.3702(3) 0.9307(3)
O6_4 O 0.9168(3) 0.5425(3) 0.9665(2)
O8_4 O 0.9223(3) 0.5825(3) 0.8756(2)
C1_8 C 0.1441(4) 0.9667(4) 0.2009(3)
C2_8 C 0.0724(4) 0.9536(5) 0.2044(3)
H1_8 H 0.0479 0.9439 0.2393
C3_8 C 0.0945(4) 0.9737(4) 0.1136(3)
H2_8 H 0.0889 0.9809 0.0731
C4_8 C 0.1977(4) 0.9662(4) 0.2464(3)
H3_8 H 0.1816 0.9630 0.2853
C5_8 C 0.2675(4) 0.9699(4) 0.2383(3)
H4_8 H 0.2855 0.9749 0.2001
C6_8 C 0.3177(4) 0.9662(4) 0.2884(3)
N1_8 N 0.0416(3) 0.9567(3) 0.1499(3)
N2_8 N 0.1562(3) 0.9792(3) 0.1418(3)
H9_8 H 0.1970 0.9889 0.1259
O3_4 O 0.2981(3) 0.9755(3) 0.3408(2)
O4_4 O 0.3842(3) 0.9512(3) 0.2766(2)
H16_8 H 0.8788 0.4248 0.0031
C23_8 C 0.9093(4) 0.1688(4) 0.0500(3)
H18_8 H 0.9018 0.2033 0.0792
C24_8 C 0.9161(4) 0.0921(4) 0.0692(3)
N9_8 N 0.8881(3) 0.3186(3) 0.0161(3)
H20_8 H 0.8778 0.3133 0.0530
O5_8 O 0.9168(3) 0.0425(3) 0.0335(2)
O7_8 O 0.9223(3) 0.0825(3) 0.1244(2)
C19_8 C 0.9062(4) 0.2643(4) 0.9770(3)
C20_8 C 0.9171(4) 0.2979(4) 0.9242(3)
H15_8 H 0.9292 0.2750 0.8890
C21_8 C 0.8894(4) 0.3803(4) 0.9865(3)
C22_8 C 0.9131(4) 0.1902(4) 0.9957(3)
H17_8 H 0.9207 0.1558 0.9665
Cd1_8 Cd 0.92388(3) 0.96240(3) 0.12808(2)
C7_8 C 0.9062(4) 0.7643(4) 0.0230(3)
C8_8 C 0.9171(4) 0.7979(4) 0.0758(3)
H5_8 H 0.9292 0.7750 0.1110
C9_8 C 0.8894(4) 0.8803(4) 0.0135(3)
C10_8 C 0.9131(4) 0.6902(4) 0.0043(3)
H7_8 H 0.9207 0.6558 0.0335
N3_8 N 0.9076(3) 0.8702(3) 0.0693(3)
C13_8 C 0.6441(4) 0.9667(4) 0.2991(3)
C14_8 C 0.5724(4) 0.9536(5) 0.2956(3)
H11_8 H 0.5479 0.9439 0.2607
C15_8 C 0.5945(4) 0.9737(4) 0.3864(3)
H12_8 H 0.5889 0.9809 0.4269
C16_8 C 0.6977(4) 0.9662(4) 0.2536(3)
H13_8 H 0.6816 0.9630 0.2147
C17_8 C 0.7675(4) 0.9699(4) 0.2617(3)
H14_8 H 0.7855 0.9749 0.2999
C18_8 C 0.8177(4) 0.9662(4) 0.2116(3)
N5_8 N 0.5416(3) 0.9567(3) 0.3501(3)
N6_8 N 0.6562(3) 0.9792(3) 0.3582(3)
H19_8 H 0.6970 0.9889 0.3741
O9_8 O 0.7981(3) 0.9755(3) 0.1592(2)
O11_8 O 0.8842(3) 0.9512(3) 0.2234(2)
H6_8 H 0.8788 0.9248 0.9969
C11_8 C 0.9093(4) 0.6688(4) 0.9500(3)
H8_8 H 0.9018 0.7033 0.9208
C12_8 C 0.9161(4) 0.5921(4) 0.9308(3)
N4_8 N 0.8881(3) 0.8186(3) 0.9839(3)
H10_8 H 0.8778 0.8133 0.9470
loop_
_geom_bond_atom_site_label_1
_geom_bond_atom_site_label_2
_geom_bond_site_symmetry_1
_geom_bond_site_symmetry_2
C7 C8 1_555 1_555
C8 H5 1_555 1_555
C10 C7 1_555 1_555
H7 C10 1_555 1_555
N3 Cd1 1_555 1_555
Cd2 N5 1_555 1_555
C13 C14 1_555 1_555
C14 H11 1_555 1_555
C15 H12 1_555 1_555
C16 C13 1_555 1_555
H13 C16 1_555 1_555
C17 C16 1_555 1_555
H14 C17 1_555 1_555
C18 C17 1_555 1_555
H18 C23 1_555 1_555
C24 C23 1_555 1_555
N5 C14 1_555 1_555
N6 C13 1_555 1_555
H19 N6 1_555 1_555
N8 Cd2 1_555 1_555
H20 N9 1_555 1_555
O5 Cd1 1_555 1_555
O6 Cd2 1_555 1_555
O7 Cd1 1_555 1_555
O8 Cd2 1_555 1_555
O9 Cd1 1_555 1_555
O10 Cd2 1_555 1_555
O11 Cd1 1_555 1_555
O12 Cd2 1_555 1_555
C8 N3 1_555 1_555
C9 N3 1_555 1_555
C15 N5 1_555 1_555
C15 N6 1_555 1_555
C18 O9 1_555 1_555
C18 O11 1_555 1_555
C24 O5 1_555 1_555
C24 O7 1_555 1_555
H8 C11 1_555 1_555
C12 C11 1_555 1_555
H10 N4 1_555 1_555
O1 C12 1_555 1_555
O2 C12 1_555 1_555
Cd3 N7 1_555 1_555
C19 C20 1_555 1_555
C20 H15 1_555 1_555
C22 C19 1_555 1_555
H17 C22 1_555 1_555
N7 C20 1_555 1_555
C21 N7 1_555 1_555
C1 C2 1_555 1_555
C2 H1 1_555 1_555
C3 H2 1_555 1_555
C4 C1 1_555 1_555
H3 C4 1_555 1_555
C5 C4 1_555 1_555
H4 C5 1_555 1_555
C6 C5 1_555 1_555
N1 C2 1_555 1_555
N2 C1 1_555 1_555
H9 N2 1_555 1_555
O10 C6 1_555 1_555
O12 C6 1_555 1_555
C3 N1 1_555 1_555
C3 N2 1_555 1_555
O10_2 Cd3 1_555 1_555
O12_2 Cd3 1_555 1_555
Cd1_2 N1_2 1_555 1_555
C1_2 C2_2 1_555 1_555
C2_2 H1_2 1_555 1_555
C3_2 H2_2 1_555 1_555
C4_2 C1_2 1_555 1_555
H3_2 C4_2 1_555 1_555
C5_2 C4_2 1_555 1_555
H4_2 C5_2 1_555 1_555
C6_2 C5_2 1_555 1_555
C7_2 C8_2 1_555 1_555
C8_2 H5_2 1_555 1_555
C9_2 H6_2 1_555 1_555
C10_2 C7_2 1_555 1_555
H7_2 C10_2 1_555 1_555
C11_2 C10_2 1_555 1_555
H8_2 C11_2 1_555 1_555
C12_2 C11_2 1_555 1_555
N1_2 C2_2 1_555 1_555
N2_2 C1_2 1_555 1_555
H9_2 N2_2 1_555 1_555
N3_2 Cd1_2 1_555 1_555
N4_2 C7_2 1_555 1_555
H10_2 N4_2 1_555 1_555
O6 C12_2 1_555 1_555
O8 C12_2 1_555 1_555
O10_2 C6_2 1_555 1_555
O12_2 C6_2 1_555 1_555
C13_2 C14_2 1_555 1_555
C14_2 H11_2 1_555 1_555
C15_2 H12_2 1_555 1_555
C16_2 C13_2 1_555 1_555
H13_2 C16_2 1_555 1_555
C17_2 C16_2 1_555 1_555
H14_2 C17_2 1_555 1_555
C18_2 C17_2 1_555 1_555
N5_2 C14_2 1_555 1_555
N6_2 C13_2 1_555 1_555
H19_2 N6_2 1_555 1_555
O9_2 Cd1_2 1_555 1_555
O11_2 Cd1_2 1_555 1_555
C3_2 N1_2 1_555 1_555
C3_2 N2_2 1_555 1_555
C8_2 N3_2 1_555 1_555
C9_2 N3_2 1_555 1_555
C9_2 N4_2 1_555 1_555
C15_2 N5_2 1_555 1_555
C15_2 N6_2 1_555 1_555
C18_2 O9_2 1_555 1_555
C18_2 O11_2 1_555 1_555
C19_2 C20_2 1_555 1_555
C20_2 H15_2 1_555 1_555
C21_2 H16_2 1_555 1_555
C22_2 C19_2 1_555 1_555
H17_2 C22_2 1_555 1_555
C23_2 C22_2 1_555 1_555
H18_2 C23_2 1_555 1_555
C24_2 C23_2 1_555 1_555
N8 C20_2 1_555 1_555
N9_2 C19_2 1_555 1_555
H20_2 N9_2 1_555 1_555
C21_2 N8 1_555 1_555
C21_2 N9_2 1_555 1_555
C24_2 O5_2 1_555 1_555
C24_2 O7_2 1_555 1_555
Cd1_3 N1_3 1_555 1_555
C1_3 C2_3 1_555 1_555
C2_3 H1_3 1_555 1_555
C3_3 H2_3 1_555 1_555
C4_3 C1_3 1_555 1_555
H3_3 C4_3 1_555 1_555
C7_3 C8_3 1_555 1_555
C8_3 H5_3 1_555 1_555
C9_3 H6_3 1_555 1_555
N1_3 C2_3 1_555 1_555
N2_3 C1_3 1_555 1_555
H9_3 N2_3 1_555 1_555
N3_3 Cd1_3 1_555 1_555
N4_3 C7_3 1_555 1_555
H10_3 N4_3 1_555 1_555
Cd2_2 N5_3 1_555 1_555
Cd5 N7_2 1_555 1_555
C13_3 C14_3 1_555 1_555
C14_3 H11_3 1_555 1_555
C15_3 H12_3 1_555 1_555
C16_3 C13_3 1_555 1_555
H13_3 C16_3 1_555 1_555
C17_3 C16_3 1_555 1_555
H14_3 C17_3 1_555 1_555
C18_3 C17_3 1_555 1_555
C19_3 C20_3 1_555 1_555
C20_3 H15_3 1_555 1_555
C21_3 H16_3 1_555 1_555
C22_3 C19_3 1_555 1_555
H17_3 C22_3 1_555 1_555
C23_3 C22_3 1_555 1_555
H18_3 C23_3 1_555 1_555
C24_3 C23_3 1_555 1_555
N5_3 C14_3 1_555 1_555
N6_3 C13_3 1_555 1_555
H19_3 N6_3 1_555 1_555
N7_2 C20_3 1_555 1_555
N8_2 Cd2_2 1_555 1_555
N9_3 C19_3 1_555 1_555
H20_3 N9_3 1_555 1_555
O5_3 Cd1_3 1_555 1_555
O6_2 Cd2_2 1_555 1_555
O7_3 Cd1_3 1_555 1_555
O8_2 Cd2_2 1_555 1_555
O9_3 Cd1_3 1_555 1_555
O10_3 Cd2_2 1_555 1_555
O11_3 Cd1_3 1_555 1_555
O12_3 Cd2_2 1_555 1_555
C3_3 N1_3 1_555 1_555
C3_3 N2_3 1_555 1_555
C8_3 N3_3 1_555 1_555
C9_3 N3_3 1_555 1_555
C9_3 N4_3 1_555 1_555
C15_3 N5_3 1_555 1_555
C15_3 N6_3 1_555 1_555
C18_3 O9_3 1_555 1_555
C18_3 O11_3 1_555 1_555
C21_3 N7_2 1_555 1_555
C21_3 N9_3 1_555 1_555
C24_3 O5_3 1_555 1_555
C24_3 O7_3 1_555 1_555
H4_3 C5_3 1_555 1_555
C6_3 C5_3 1_555 1_555
O10_3 C6_3 1_555 1_555
O12_3 C6_3 1_555 1_555
H7_3 C10_3 1_555 1_555
C11_3 C10_3 1_555 1_555
H8_3 C11_3 1_555 1_555
C12_3 C11_3 1_555 1_555
O1_2 C12_3 1_555 1_555
O2_2 C12_3 1_555 1_555
Cd5 O1_2 1_555 1_555
O2_2 Cd5 1_555 1_555
C19_4 C20_4 1_555 1_555
C20_4 H15_4 1_555 1_555
C21_4 H16_4 1_555 1_555
N8_2 C20_4 1_555 1_555
N9_4 C19_4 1_555 1_555
H20_4 N9_4 1_555 1_555
C21_4 N8_2 1_555 1_555
C21_4 N9_4 1_555 1_555
Cd5 N5_4 1_555 1_555
C13_4 C14_4 1_555 1_555
C14_4 H11_4 1_555 1_555
C15_4 H12_4 1_555 1_555
C16_4 C13_4 1_555 1_555
N5_4 C14_4 1_555 1_555
N6_4 C13_4 1_555 1_555
H19_4 N6_4 1_555 1_555
O10_4 Cd5 1_555 1_555
O12_4 Cd5 1_555 1_555
C15_4 N5_4 1_555 1_555
C15_4 N6_4 1_555 1_555
O10_4 C6_4 1_555 1_555
O12_4 C6_4 1_555 1_555
H14_4 C17_4 1_555 1_555
Cd1_4 N1_4 1_555 1_555
C1_4 C2_4 1_555 1_555
C2_4 H1_4 1_555 1_555
C3_4 H2_4 1_555 1_555
C4_4 C1_4 1_555 1_555
C5_4 C4_4 1_555 1_555
H4_4 C5_4 1_555 1_555
C7_4 C8_4 1_555 1_555
C8_4 H5_4 1_555 1_555
C9_4 H6_4 1_555 1_555
C10_4 C7_4 1_555 1_555
H7_4 C10_4 1_555 1_555
C11_4 C10_4 1_555 1_555
H8_4 C11_4 1_555 1_555
C12_4 C11_4 1_555 1_555
N1_4 C2_4 1_555 1_555
N2_4 C1_4 1_555 1_555
H9_4 N2_4 1_555 1_555
N3_4 Cd1_4 1_555 1_555
N4_4 C7_4 1_555 1_555
H10_4 N4_4 1_555 1_555
O6_2 C12_4 1_555 1_555
O8_2 C12_4 1_555 1_555
H17_4 C22_4 1_555 1_555
C23_4 C22_4 1_555 1_555
H18_4 C23_4 1_555 1_555
C24_4 C23_4 1_555 1_555
O5_4 Cd1_4 1_555 1_555
O7_4 Cd1_4 1_555 1_555
O9_4 Cd1_4 1_555 1_555
O11_4 Cd1_4 1_555 1_555
C3_4 N1_4 1_555 1_555
C3_4 N2_4 1_555 1_555
C8_4 N3_4 1_555 1_555
C9_4 N3_4 1_555 1_555
C9_4 N4_4 1_555 1_555
C18_4 O9_4 1_555 1_555
C18_4 O11_4 1_555 1_555
C24_4 O5_4 1_555 1_555
C24_4 O7_4 1_555 1_555
H7_5 C10_5 1_555 1_555
C11_5 C10_5 1_555 1_555
H8_5 C11_5 1_555 1_555
C12_5 C11_5 1_555 1_555
O1_3 C12_5 1_555 1_555
O2_3 C12_5 1_555 1_555
Cd3_2 O1_3 1_555 1_555
O2_3 Cd3_2 1_555 1_555
Cd1_5 N1_5 1_555 1_555
C1_5 C2_5 1_555 1_555
C2_5 H1_5 1_555 1_555
C3_5 H2_5 1_555 1_555
C4_5 C1_5 1_555 1_555
H3_5 C4_5 1_555 1_555
C5_5 C4_5 1_555 1_555
H4_5 C5_5 1_555 1_555
C6_5 C5_5 1_555 1_555
C7_5 C8_5 1_555 1_555
C8_5 H5_5 1_555 1_555
C9_5 H6_5 1_555 1_555
N1_5 C2_5 1_555 1_555
N2_5 C1_5 1_555 1_555
H9_5 N2_5 1_555 1_555
N3_5 Cd1_5 1_555 1_555
N4_5 C7_5 1_555 1_555
H10_5 N4_5 1_555 1_555
O3 C6_5 1_555 1_555
O4 C6_5 1_555 1_555
Cd4 O3 1_555 1_555
Cd3_2 N7_3 1_555 1_555
H14_5 C17_5 1_555 1_555
C18_5 C17_5 1_555 1_555
C19_5 C20_5 1_555 1_555
C20_5 H15_5 1_555 1_555
C21_5 H16_5 1_555 1_555
C22_5 C19_5 1_555 1_555
H17_5 C22_5 1_555 1_555
C23_5 C22_5 1_555 1_555
H18_5 C23_5 1_555 1_555
C24_5 C23_5 1_555 1_555
N7_3 C20_5 1_555 1_555
N9_5 C19_5 1_555 1_555
H20_5 N9_5 1_555 1_555
O5_5 Cd1_5 1_555 1_555
O7_5 Cd1_5 1_555 1_555
O9_5 Cd1_5 1_555 1_555
O11_5 Cd1_5 1_555 1_555
C3_5 N1_5 1_555 1_555
C3_5 N2_5 1_555 1_555
C8_5 N3_5 1_555 1_555
C9_5 N3_5 1_555 1_555
C9_5 N4_5 1_555 1_555
O4 Cd4 1_555 1_555
C18_5 O9_5 1_555 1_555
C18_5 O11_5 1_555 1_555
C21_5 N7_3 1_555 1_555
C21_5 N9_5 1_555 1_555
C24_5 O5_5 1_555 1_555
C24_5 O7_5 1_555 1_555
Cd4 N5_5 1_555 1_555
C13_5 C14_5 1_555 1_555
C14_5 H11_5 1_555 1_555
C15_5 H12_5 1_555 1_555
C16_5 C13_5 1_555 1_555
H13_5 C16_5 1_555 1_555
N5_5 C14_5 1_555 1_555
N6_5 C13_5 1_555 1_555
H19_5 N6_5 1_555 1_555
N8_3 Cd4 1_555 1_555
O6_3 Cd4 1_555 1_555
O8_3 Cd4 1_555 1_555
C15_5 N5_5 1_555 1_555
C15_5 N6_5 1_555 1_555
O3_2 C6_6 1_555 1_555
O4_2 C6_6 1_555 1_555
Cd3_2 O3_2 1_555 1_555
O4_2 Cd3_2 1_555 1_555
H4_6 C5_6 1_555 1_555
Cd3_2 N5_6 1_555 1_555
C13_6 C14_6 1_555 1_555
C14_6 H11_6 1_555 1_555
C15_6 H12_6 1_555 1_555
C16_6 C13_6 1_555 1_555
C17_6 C16_6 1_555 1_555
H14_6 C17_6 1_555 1_555
N5_6 C14_6 1_555 1_555
N6_6 C13_6 1_555 1_555
H19_6 N6_6 1_555 1_555
C15_6 N5_6 1_555 1_555
C15_6 N6_6 1_555 1_555
Cd1_6 N1_6 1_555 1_555
C1_6 C2_6 1_555 1_555
C2_6 H1_6 1_555 1_555
C3_6 H2_6 1_555 1_555
C4_6 C1_6 1_555 1_555
C7_6 C8_6 1_555 1_555
C8_6 H5_6 1_555 1_555
C9_6 H6_6 1_555 1_555
C10_6 C7_6 1_555 1_555
H7_6 C10_6 1_555 1_555
C11_6 C10_6 1_555 1_555
H8_6 C11_6 1_555 1_555
C12_6 C11_6 1_555 1_555
N1_6 C2_6 1_555 1_555
N2_6 C1_6 1_555 1_555
H9_6 N2_6 1_555 1_555
N3_6 Cd1_6 1_555 1_555
N4_6 C7_6 1_555 1_555
H10_6 N4_6 1_555 1_555
O6_3 C12_6 1_555 1_555
O8_3 C12_6 1_555 1_555
H17_6 C22_6 1_555 1_555
C23_6 C22_6 1_555 1_555
H18_6 C23_6 1_555 1_555
C24_6 C23_6 1_555 1_555
O5_6 Cd1_6 1_555 1_555
O7_6 Cd1_6 1_555 1_555
O9_6 Cd1_6 1_555 1_555
O11_6 Cd1_6 1_555 1_555
C3_6 N1_6 1_555 1_555
C3_6 N2_6 1_555 1_555
C8_6 N3_6 1_555 1_555
C9_6 N3_6 1_555 1_555
C9_6 N4_6 1_555 1_555
C18_6 O9_6 1_555 1_555
C18_6 O11_6 1_555 1_555
C24_6 O5_6 1_555 1_555
C24_6 O7_6 1_555 1_555
C19_6 C20_6 1_555 1_555
C20_6 H15_6 1_555 1_555
C21_6 H16_6 1_555 1_555
N8_3 C20_6 1_555 1_555
N9_6 C19_6 1_555 1_555
H20_6 N9_6 1_555 1_555
C21_6 N8_3 1_555 1_555
C21_6 N9_6 1_555 1_555
Cd1_7 N1_7 1_555 1_555
C1_7 C2_7 1_555 1_555
C2_7 H1_7 1_555 1_555
C3_7 H2_7 1_555 1_555
C4_7 C1_7 1_555 1_555
H3_7 C4_7 1_555 1_555
C5_7 C4_7 1_555 1_555
H4_7 C5_7 1_555 1_555
C6_7 C5_7 1_555 1_555
C7_7 C8_7 1_555 1_555
C8_7 H5_7 1_555 1_555
C9_7 H6_7 1_555 1_555
C10_7 C7_7 1_555 1_555
H7_7 C10_7 1_555 1_555
C11_7 C10_7 1_555 1_555
H8_7 C11_7 1_555 1_555
C12_7 C11_7 1_555 1_555
N1_7 C2_7 1_555 1_555
N2_7 C1_7 1_555 1_555
H9_7 N2_7 1_555 1_555
N3_7 Cd1_7 1_555 1_555
N4_7 C7_7 1_555 1_555
H10_7 N4_7 1_555 1_555
O1_4 C12_7 1_555 1_555
O2_4 C12_7 1_555 1_555
O3_3 C6_7 1_555 1_555
O4_3 C6_7 1_555 1_555
Cd4_2 O3_3 1_555 1_555
Cd5_2 N7_4 1_555 1_555
C13_7 C14_7 1_555 1_555
C14_7 H11_7 1_555 1_555
C15_7 H12_7 1_555 1_555
C16_7 C13_7 1_555 1_555
H13_7 C16_7 1_555 1_555
C17_7 C16_7 1_555 1_555
H14_7 C17_7 1_555 1_555
C18_7 C17_7 1_555 1_555
C19_7 C20_7 1_555 1_555
C20_7 H15_7 1_555 1_555
C21_7 H16_7 1_555 1_555
C22_7 C19_7 1_555 1_555
H17_7 C22_7 1_555 1_555
C23_7 C22_7 1_555 1_555
H18_7 C23_7 1_555 1_555
C24_7 C23_7 1_555 1_555
N5_7 C14_7 1_555 1_555
N6_7 C13_7 1_555 1_555
H19_7 N6_7 1_555 1_555
N7_4 C20_7 1_555 1_555
N9_7 C19_7 1_555 1_555
H20_7 N9_7 1_555 1_555
O5_7 Cd1_7 1_555 1_555
O7_7 Cd1_7 1_555 1_555
O9_7 Cd1_7 1_555 1_555
O11_7 Cd1_7 1_555 1_555
C3_7 N1_7 1_555 1_555
C3_7 N2_7 1_555 1_555
C8_7 N3_7 1_555 1_555
C9_7 N3_7 1_555 1_555
C9_7 N4_7 1_555 1_555
O4_3 Cd4_2 1_555 1_555
C15_7 N5_7 1_555 1_555
C15_7 N6_7 1_555 1_555
C18_7 O9_7 1_555 1_555
C18_7 O11_7 1_555 1_555
C21_7 N7_4 1_555 1_555
C21_7 N9_7 1_555 1_555
C24_7 O5_7 1_555 1_555
C24_7 O7_7 1_555 1_555
N8_4 Cd4_2 1_555 1_555
O6_4 Cd4_2 1_555 1_555
O8_4 Cd4_2 1_555 1_555
C1_8 C2_8 1_555 1_555
C2_8 H1_8 1_555 1_555
C3_8 H2_8 1_555 1_555
C4_8 C1_8 1_555 1_555
H3_8 C4_8 1_555 1_555
C5_8 C4_8 1_555 1_555
H4_8 C5_8 1_555 1_555
C6_8 C5_8 1_555 1_555
N1_8 C2_8 1_555 1_555
N2_8 C1_8 1_555 1_555
H9_8 N2_8 1_555 1_555
O3_4 C6_8 1_555 1_555
O4_4 C6_8 1_555 1_555
Cd5_2 O3_4 1_555 1_555
C3_8 N1_8 1_555 1_555
C3_8 N2_8 1_555 1_555
O4_4 Cd5_2 1_555 1_555
H18_8 C23_8 1_555 1_555
C24_8 C23_8 1_555 1_555
H20_8 N9_8 1_555 1_555
C24_8 O5_8 1_555 1_555
C24_8 O7_8 1_555 1_555
C19_8 C20_8 1_555 1_555
C20_8 H15_8 1_555 1_555
C22_8 C19_8 1_555 1_555
H17_8 C22_8 1_555 1_555
N8_4 C20_8 1_555 1_555
C21_8 N8_4 1_555 1_555
C7_8 C8_8 1_555 1_555
C8_8 H5_8 1_555 1_555
C10_8 C7_8 1_555 1_555
H7_8 C10_8 1_555 1_555
N3_8 Cd1_8 1_555 1_555
Cd5_2 N5_8 1_555 1_555
C13_8 C14_8 1_555 1_555
C14_8 H11_8 1_555 1_555
C15_8 H12_8 1_555 1_555
C16_8 C13_8 1_555 1_555
H13_8 C16_8 1_555 1_555
C17_8 C16_8 1_555 1_555
H14_8 C17_8 1_555 1_555
C18_8 C17_8 1_555 1_555
N5_8 C14_8 1_555 1_555
N6_8 C13_8 1_555 1_555
H19_8 N6_8 1_555 1_555
O9_8 Cd1_8 1_555 1_555
O11_8 Cd1_8 1_555 1_555
C8_8 N3_8 1_555 1_555
C9_8 N3_8 1_555 1_555
C15_8 N5_8 1_555 1_555
C15_8 N6_8 1_555 1_555
C18_8 O9_8 1_555 1_555
C18_8 O11_8 1_555 1_555
H8_8 C11_8 1_555 1_555
C12_8 C11_8 1_555 1_555
H10_8 N4_8 1_555 1_555
O6_4 C12_8 1_555 1_555
O8_4 C12_8 1_555 1_555

#END
