
###############################################################################
#
# This file contains modified crystal structure data generated from the
# MOF subset of the Cambridge Structural Database (CSD) v543 
# hosted by the Cambridge Crystallographic Data Centre (CCDC).
#
# This work is licensed under the Creative Commons
# Attribution-NonCommercial-ShareAlike 4.0 International License.
# To view a copy of this license, visit
# http://creativecommons.org/licenses/by-nc-sa/4.0/
# or send a letter to
# Creative Commons, PO Box 1866, Mountain View, CA 94042, USA.
#
# CIF created using the CSD Python API on 29 September 2022
# The structure has been converted into the P1 space group
# The structure has a 3D framework
# The original CSD entry MEWPIQ is in the rhombohedral crystal system
# The framework has been calculated to contain at least 10.0% void space
# The void calculation uses a probe of radius 1.32A, grid spacing 0.4
#
###############################################################################

data_MEWPIQ
_chemical_formula_moiety         '(C288 H234 N18 O72 Zn18)n'
_symmetry_cell_setting           triclinic
_symmetry_space_group_name_H-M   'P 1'
_symmetry_Int_Tables_number      1
_space_group_name_Hall           'P 1'
loop_
_symmetry_equiv_pos_site_id
_symmetry_equiv_pos_as_xyz
1 x,y,z
_cell_length_a                   41.740(4)
_cell_length_b                   41.740(4)
_cell_length_c                   9.9584(14)
_cell_angle_alpha                90
_cell_angle_beta                 90
_cell_angle_gamma                120
_cell_volume                     15025.4
loop_
_atom_site_label
_atom_site_type_symbol
_atom_site_fract_x
_atom_site_fract_y
_atom_site_fract_z
Zn2 Zn 0.02658(2) 0.49064(2) 0.06865(3)
N1 N 0.06094(5) 0.47613(5) 0.16855(18)
H1 H 0.0454 0.4561 0.2307
O1 O 0.01061(5) 0.51508(5) 0.78745(16)
O2 O 0.17278(6) 0.38574(5) 0.24122(17)
O3 O 0.11878(6) 0.34588(5) 0.3328(2)
O4 O 0.04906(5) 0.49913(5) 0.88044(16)
C1 C 0.03620(6) 0.50786(6) 0.7816(2)
C2 C 0.13977(9) 0.37495(7) 0.2713(2)
C3 C 0.07866(6) 0.50824(7) 0.3892(2)
C4 C 0.04545(7) 0.52608(6) 0.5403(2)
H2 H 0.0315 0.5375 0.5541
C5 C 0.05242(6) 0.50954(6) 0.6463(2)
C6 C 0.09308(7) 0.43956(7) 0.1273(2)
C7 C 0.12395(9) 0.39841(7) 0.2255(3)
C8 C 0.05879(7) 0.52612(7) 0.4131(2)
H3 H 0.0544 0.5382 0.3432
C9 C 0.07535(7) 0.46022(7) 0.0669(2)
H4 H 0.0934 0.4801 0.0111
H5 H 0.0551 0.4435 0.0093
C10 C 0.14545(10) 0.43118(7) 0.1572(3)
H6 H 0.1705 0.4396 0.1439
C11 C 0.13006(8) 0.45146(8) 0.1086(3)
H7 H 0.1449 0.4734 0.0627
C12 C 0.09155(6) 0.50600(7) 0.2502(2)
H8 H 0.1006 0.5296 0.2052
H9 H 0.1119 0.5011 0.2566
C13 C 0.07183(8) 0.40729(9) 0.1972(4)
H10 H 0.0468 0.3989 0.2112
C14 C 0.08739(11) 0.38711(8) 0.2471(4)
H11 H 0.0728 0.3656 0.2958
C15 C 0.08619(9) 0.49219(9) 0.4962(3)
H12 H 0.1000 0.4806 0.4824
C16 C 0.07354(9) 0.49293(9) 0.6236(3)
H13 H 0.0792 0.4822 0.6947
Zn3 Zn 0.13073(3) 0.30675(2) 0.40198(3)
Zn5 Zn 0.20261(3) 0.35991(2) 0.26468(3)
O6 O 0.05241(5) 0.54629(8) 0.09211(17)
Zn4 Zn 0.97342(2) 0.50936(2) 0.93135(3)
O5 O 0.98939(5) 0.48492(5) 0.21255(16)
O7 O 0.98745(5) 0.43957(8) 0.9995(2)
Zn2_2 Zn 0.50936(2) 0.53594(3) 0.06865(3)
N1_2 N 0.52387(5) 0.58481(7) 0.16855(18)
H1_2 H 0.5439 0.5893 0.2307
O1_2 O 0.48492(5) 0.49553(7) 0.78745(16)
O2_2 O 0.61426(5) 0.78704(8) 0.24122(17)
O3_2 O 0.65412(5) 0.77290(8) 0.3328(2)
O4_2 O 0.50087(5) 0.54993(7) 0.88044(16)
C1_2 C 0.49214(6) 0.52834(8) 0.7816(2)
C2_2 C 0.62505(7) 0.76482(11) 0.2713(2)
C3_2 C 0.49176(7) 0.57042(9) 0.3892(2)
C4_2 C 0.47392(6) 0.51937(9) 0.5403(2)
H2_2 H 0.4625 0.4940 0.5541
C5_2 C 0.49046(6) 0.54288(8) 0.6463(2)
C6_2 C 0.56044(7) 0.65352(10) 0.1273(2)
C7_2 C 0.60159(7) 0.72554(11) 0.2255(3)
C8_2 C 0.47388(7) 0.53267(10) 0.4131(2)
H3_2 H 0.4618 0.5162 0.3432
C9_2 C 0.53978(7) 0.61513(10) 0.0669(2)
H4_2 H 0.5199 0.6133 0.0111
H5_2 H 0.5565 0.6116 0.0093
C10_2 C 0.56882(7) 0.71427(12) 0.1572(3)
H6_2 H 0.5604 0.7309 0.1439
C11_2 C 0.54854(8) 0.67860(11) 0.1086(3)
H7_2 H 0.5266 0.6715 0.0627
C12_2 C 0.49400(7) 0.58555(9) 0.2502(2)
H8_2 H 0.4704 0.5710 0.2052
H9_2 H 0.4989 0.6108 0.2566
C13_2 C 0.59271(9) 0.66454(12) 0.1972(4)
H10_2 H 0.6011 0.6479 0.2112
C14_2 C 0.61289(8) 0.70028(14) 0.2471(4)
H11_2 H 0.6344 0.7072 0.2958
C15_2 C 0.50781(9) 0.59400(13) 0.4962(3)
H12_2 H 0.5194 0.6194 0.4824
C16_2 C 0.50707(9) 0.58061(13) 0.6236(3)
H13_2 H 0.5178 0.5970 0.6947
Zn3_2 Zn 0.69325(2) 0.82397(4) 0.40198(3)
Zn4_2 Zn 0.49064(2) 0.46406(3) 0.93135(3)
Zn5_2 Zn 0.64009(2) 0.84269(4) 0.26468(3)
O5_2 O 0.51508(5) 0.50447(7) 0.21255(16)
O6_2 O 0.45371(8) 0.50611(9) 0.09211(17)
O7_2 O 0.56043(8) 0.54789(9) 0.9995(2)
Zn4_3 Zn 0.53594(3) 0.02658(2) 0.93135(3)
O5_3 O 0.49553(7) 0.01061(5) 0.21255(16)
O7_3 O 0.45211(9) 0.01255(5) 0.9995(2)
Zn2_3 Zn 0.46406(3) 0.97342(2) 0.06865(3)
N1_3 N 0.41519(7) 0.93906(5) 0.16855(18)
H1_3 H 0.4107 0.9546 0.2307
O1_3 O 0.50447(7) 0.98939(5) 0.78745(16)
O2_3 O 0.21296(8) 0.82722(6) 0.24122(17)
O3_3 O 0.22710(8) 0.88122(6) 0.3328(2)
O4_3 O 0.45007(7) 0.95094(5) 0.88044(16)
C1_3 C 0.47166(8) 0.96380(6) 0.7816(2)
C2_3 C 0.23518(11) 0.86023(9) 0.2713(2)
C3_3 C 0.42958(9) 0.92134(6) 0.3892(2)
C4_3 C 0.48063(9) 0.95455(7) 0.5403(2)
H2_3 H 0.5060 0.9685 0.5541
C5_3 C 0.45712(8) 0.94758(6) 0.6463(2)
C6_3 C 0.34648(10) 0.90692(7) 0.1273(2)
C7_3 C 0.27446(11) 0.87605(9) 0.2255(3)
C8_3 C 0.46733(10) 0.94121(7) 0.4131(2)
H3_3 H 0.4838 0.9456 0.3432
C9_3 C 0.38487(10) 0.92465(7) 0.0669(2)
H4_3 H 0.3867 0.9066 0.0111
H5_3 H 0.3884 0.9449 0.0093
C10_3 C 0.28573(12) 0.85455(10) 0.1572(3)
H6_3 H 0.2691 0.8295 0.1439
C11_3 C 0.32140(11) 0.86994(8) 0.1086(3)
H7_3 H 0.3285 0.8551 0.0627
C12_3 C 0.41445(9) 0.90845(6) 0.2502(2)
H8_3 H 0.4290 0.8994 0.2052
H9_3 H 0.3892 0.8881 0.2566
C13_3 C 0.33546(12) 0.92817(8) 0.1972(4)
H10_3 H 0.3521 0.9532 0.2112
C14_3 C 0.29972(14) 0.91261(11) 0.2471(4)
H11_3 H 0.2928 0.9272 0.2958
C15_3 C 0.40600(13) 0.91381(9) 0.4962(3)
H12_3 H 0.3806 0.9000 0.4824
C16_3 C 0.41939(13) 0.92646(9) 0.6236(3)
H13_3 H 0.4030 0.9208 0.6947
Zn3_3 Zn 0.17603(4) 0.86927(3) 0.40198(3)
Zn5_3 Zn 0.15731(4) 0.79739(3) 0.26468(3)
O6_3 O 0.49389(9) 0.94759(5) 0.09211(17)
O1_4 O 0.67728(5) 0.84841(5) 0.12078(16)
O4_4 O 0.71573(5) 0.83246(5) 0.21377(16)
C1_4 C 0.70287(6) 0.84119(6) 0.1149(2)
H13_4 H 0.7459 0.8155 0.0280
N1_4 N 0.72761(5) 0.80946(5) 0.50188(18)
H1_4 H 0.7121 0.7894 0.5640
O2_4 O 0.83945(6) 0.71907(5) 0.57455(17)
O3_4 O 0.78545(6) 0.67921(5) 0.6661(2)
C2_4 C 0.80644(9) 0.70828(7) 0.6046(2)
C3_4 C 0.74533(6) 0.84157(7) 0.7225(2)
C4_4 C 0.71212(7) 0.85941(6) 0.8736(2)
H2_4 H 0.6982 0.8708 0.8874
C5_4 C 0.71909(6) 0.84287(6) 0.9796(2)
C6_4 C 0.75975(7) 0.77289(7) 0.4606(2)
C7_4 C 0.79062(9) 0.73174(7) 0.5588(3)
C8_4 C 0.72546(7) 0.85945(7) 0.7464(2)
H3_4 H 0.7211 0.8715 0.6765
C9_4 C 0.74202(7) 0.79355(7) 0.4002(2)
H4_4 H 0.7601 0.8134 0.3444
H5_4 H 0.7218 0.7768 0.3426
C10_4 C 0.81212(10) 0.76451(7) 0.4905(3)
H6_4 H 0.8372 0.7729 0.4772
C11_4 C 0.79673(8) 0.78479(8) 0.4419(3)
H7_4 H 0.8116 0.8067 0.3960
C12_4 C 0.75822(6) 0.83933(7) 0.5835(2)
H8_4 H 0.7673 0.8629 0.5385
H9_4 H 0.7786 0.8344 0.5899
C13_4 C 0.73850(8) 0.74062(9) 0.5305(4)
H10_4 H 0.7135 0.7322 0.5445
C14_4 C 0.75406(11) 0.72044(8) 0.5804(4)
H11_4 H 0.7395 0.6989 0.6291
C15_4 C 0.75286(9) 0.82552(9) 0.8295(3)
H12_4 H 0.7667 0.8139 0.8157
C16_4 C 0.74021(9) 0.82626(9) 0.9569(3)
Zn3_4 Zn 0.79739(3) 0.64009(2) 0.73532(3)
Zn5_4 Zn 0.86927(3) 0.69325(2) 0.59802(3)
O5_4 O 0.65606(5) 0.81825(5) 0.54588(16)
O6_4 O 0.71907(5) 0.87963(8) 0.42545(17)
O2_5 O 0.28093(5) 0.12037(8) 0.57455(17)
O3_5 O 0.32079(5) 0.10623(8) 0.6661(2)
C2_5 C 0.29172(7) 0.09815(11) 0.6046(2)
C7_5 C 0.26826(7) 0.05887(11) 0.5588(3)
C10_5 C 0.23549(7) 0.04760(12) 0.4905(3)
H6_5 H 0.2271 0.0642 0.4772
C11_5 C 0.21521(8) 0.01193(11) 0.4419(3)
H7_5 H 0.1933 0.0048 0.3960
C14_5 C 0.27956(8) 0.03361(14) 0.5804(4)
H11_5 H 0.3011 0.0405 0.6291
Zn3_5 Zn 0.35991(2) 0.15731(4) 0.73532(3)
Zn5_5 Zn 0.30675(2) 0.17603(4) 0.59802(3)
O1_5 O 0.15159(5) 0.82886(7) 0.12078(16)
O4_5 O 0.16754(5) 0.88326(7) 0.21377(16)
C1_5 C 0.15881(6) 0.86167(8) 0.1149(2)
H13_5 H 0.1845 0.9303 0.0280
N1_5 N 0.19054(5) 0.91814(7) 0.50188(18)
H1_5 H 0.2106 0.9226 0.5640
C3_5 C 0.15843(7) 0.90375(9) 0.7225(2)
C4_5 C 0.14059(6) 0.85270(9) 0.8736(2)
H2_5 H 0.1292 0.8273 0.8874
C5_5 C 0.15713(6) 0.87621(8) 0.9796(2)
C6_5 C 0.22711(7) 0.98685(10) 0.4606(2)
C8_5 C 0.14055(7) 0.86600(10) 0.7464(2)
H3_5 H 0.1285 0.8495 0.6765
C9_5 C 0.20645(7) 0.94846(10) 0.4002(2)
H4_5 H 0.1866 0.9466 0.3444
H5_5 H 0.2232 0.9449 0.3426
C12_5 C 0.16067(7) 0.91888(9) 0.5835(2)
H8_5 H 0.1371 0.9043 0.5385
H9_5 H 0.1656 0.9441 0.5899
C13_5 C 0.25938(9) 0.99787(12) 0.5305(4)
H10_5 H 0.2678 0.9812 0.5445
C15_5 C 0.17448(9) 0.92733(13) 0.8295(3)
H12_5 H 0.1861 0.9527 0.8157
C16_5 C 0.17374(9) 0.91394(13) 0.9569(3)
O5_5 O 0.18175(5) 0.83780(7) 0.54588(16)
O6_5 O 0.12037(8) 0.83945(9) 0.42545(17)
O1_6 O 0.17114(7) 0.32272(5) 0.12078(16)
O4_6 O 0.11674(7) 0.28427(5) 0.21377(16)
C1_6 C 0.13833(8) 0.29713(6) 0.1149(2)
H13_6 H 0.0697 0.2541 0.0280
N1_6 N 0.08186(7) 0.27239(5) 0.50188(18)
H1_6 H 0.0774 0.2879 0.5640
C3_6 C 0.09625(9) 0.25467(6) 0.7225(2)
C4_6 C 0.14730(9) 0.28788(7) 0.8736(2)
H2_6 H 0.1727 0.3018 0.8874
C5_6 C 0.12379(8) 0.28091(6) 0.9796(2)
C6_6 C 0.01315(10) 0.24025(7) 0.4606(2)
C8_6 C 0.13400(10) 0.27454(7) 0.7464(2)
H3_6 H 0.1505 0.2789 0.6765
C9_6 C 0.05154(10) 0.25798(7) 0.4002(2)
H4_6 H 0.0534 0.2399 0.3444
H5_6 H 0.0551 0.2782 0.3426
C12_6 C 0.08112(9) 0.24178(6) 0.5835(2)
H8_6 H 0.0957 0.2327 0.5385
H9_6 H 0.0559 0.2214 0.5899
C13_6 C 0.00213(12) 0.26150(8) 0.5305(4)
H10_6 H 0.0188 0.2865 0.5445
C15_6 C 0.07267(13) 0.24714(9) 0.8295(3)
H12_6 H 0.0473 0.2333 0.8157
C16_6 C 0.08606(13) 0.25979(9) 0.9569(3)
O5_6 O 0.16220(7) 0.34394(5) 0.54588(16)
O6_6 O 0.16055(9) 0.28093(5) 0.42545(17)
O2_6 O 0.87963(8) 0.16055(6) 0.57455(17)
O3_6 O 0.89377(8) 0.21455(6) 0.6661(2)
C2_6 C 0.90185(11) 0.19356(9) 0.6046(2)
C7_6 C 0.94113(11) 0.20938(9) 0.5588(3)
C10_6 C 0.95240(12) 0.18788(10) 0.4905(3)
H6_6 H 0.9358 0.1628 0.4772
C11_6 C 0.98807(11) 0.20327(8) 0.4419(3)
H7_6 H 0.9952 0.1884 0.3960
C14_6 C 0.96639(14) 0.24594(11) 0.5804(4)
H11_6 H 0.9595 0.2605 0.6291
Zn3_6 Zn 0.84269(4) 0.20261(3) 0.73532(3)
Zn5_6 Zn 0.82397(4) 0.13073(3) 0.59802(3)
O1_7 O 0.34394(5) 0.18175(5) 0.45412(16)
O4_7 O 0.38239(5) 0.16580(5) 0.54711(16)
C1_7 C 0.36953(6) 0.17453(6) 0.4483(2)
C3_7 C 0.41199(6) 0.17491(7) 0.0559(2)
C4_7 C 0.37878(7) 0.19275(6) 0.2070(2)
H2_7 H 0.3648 0.2042 0.2208
C5_7 C 0.38575(6) 0.17621(6) 0.3130(2)
C8_7 C 0.39212(7) 0.19279(7) 0.0798(2)
H3_7 H 0.3877 0.2049 0.0099
C15_7 C 0.41952(9) 0.15886(9) 0.1629(3)
H12_7 H 0.4333 0.1473 0.1491
C16_7 C 0.40687(9) 0.15960(9) 0.2903(3)
H13_7 H 0.4125 0.1489 0.3614
N1_7 N 0.39427(5) 0.14280(5) 0.83522(18)
H1_7 H 0.3787 0.1228 0.8974
O2_7 O 0.50611(6) 0.05241(5) 0.90789(17)
C2_7 C 0.47310(9) 0.04162(7) 0.9380(2)
C6_7 C 0.42641(7) 0.10623(7) 0.7940(2)
C7_7 C 0.45728(9) 0.06508(7) 0.8922(3)
C9_7 C 0.40868(7) 0.12689(7) 0.7336(2)
H4_7 H 0.4267 0.1468 0.6778
H5_7 H 0.3884 0.1102 0.6760
C10_7 C 0.47878(10) 0.09785(7) 0.8239(3)
H6_7 H 0.5038 0.1063 0.8106
C11_7 C 0.46339(8) 0.11813(8) 0.7753(3)
H7_7 H 0.4782 0.1401 0.7294
C12_7 C 0.42488(6) 0.17267(7) 0.9169(2)
H8_7 H 0.4339 0.1963 0.8719
H9_7 H 0.4452 0.1678 0.9233
C13_7 C 0.40516(8) 0.07396(9) 0.8639(4)
H10_7 H 0.3801 0.0656 0.8779
C14_7 C 0.42072(11) 0.05378(8) 0.9138(4)
H11_7 H 0.4061 0.0323 0.9625
O5_7 O 0.32272(5) 0.15159(5) 0.87922(16)
O6_7 O 0.38574(5) 0.21296(8) 0.75878(17)
O1_8 O 0.81825(5) 0.16220(7) 0.45412(16)
O4_8 O 0.83420(5) 0.21660(7) 0.54711(16)
C1_8 C 0.82547(6) 0.19501(8) 0.4483(2)
C3_8 C 0.82509(7) 0.23709(9) 0.0559(2)
C4_8 C 0.80725(6) 0.18604(9) 0.2070(2)
H2_8 H 0.7958 0.1607 0.2208
C5_8 C 0.82379(6) 0.20955(8) 0.3130(2)
C8_8 C 0.80721(7) 0.19934(10) 0.0798(2)
H3_8 H 0.7951 0.1829 0.0099
C15_8 C 0.84114(9) 0.26067(13) 0.1629(3)
H12_8 H 0.8527 0.2861 0.1491
C16_8 C 0.84040(9) 0.24728(13) 0.2903(3)
H13_8 H 0.8511 0.2637 0.3614
N1_8 N 0.85720(5) 0.25148(7) 0.83522(18)
H1_8 H 0.8772 0.2560 0.8974
O2_8 O 0.94759(5) 0.45371(8) 0.90789(17)
C2_8 C 0.95838(7) 0.43149(11) 0.9380(2)
C6_8 C 0.89377(7) 0.32019(10) 0.7940(2)
C7_8 C 0.93492(7) 0.39221(11) 0.8922(3)
C9_8 C 0.87311(7) 0.28180(10) 0.7336(2)
H4_8 H 0.8532 0.2800 0.6778
H5_8 H 0.8898 0.2783 0.6760
C10_8 C 0.90215(7) 0.38094(12) 0.8239(3)
H6_8 H 0.8937 0.3976 0.8106
C11_8 C 0.88187(8) 0.34527(11) 0.7753(3)
H7_8 H 0.8599 0.3382 0.7294
C12_8 C 0.82733(7) 0.25222(9) 0.9169(2)
H8_8 H 0.8037 0.2377 0.8719
H9_8 H 0.8322 0.2775 0.9233
C13_8 C 0.92604(9) 0.33121(12) 0.8639(4)
H10_8 H 0.9344 0.3146 0.8779
C14_8 C 0.94622(8) 0.36695(14) 0.9138(4)
H11_8 H 0.9677 0.3739 0.9625
O5_8 O 0.84841(5) 0.17114(7) 0.87922(16)
O6_8 O 0.78704(8) 0.17278(9) 0.75878(17)
O1_9 O 0.83780(7) 0.65606(5) 0.45412(16)
O4_9 O 0.78340(7) 0.61761(5) 0.54711(16)
C1_9 C 0.80499(8) 0.63047(6) 0.4483(2)
C3_9 C 0.76291(9) 0.58801(6) 0.0559(2)
C4_9 C 0.81396(9) 0.62122(7) 0.2070(2)
H2_9 H 0.8393 0.6352 0.2208
C5_9 C 0.79045(8) 0.61425(6) 0.3130(2)
C8_9 C 0.80066(10) 0.60788(7) 0.0798(2)
H3_9 H 0.8171 0.6123 0.0099
C15_9 C 0.73933(13) 0.58048(9) 0.1629(3)
H12_9 H 0.7139 0.5667 0.1491
C16_9 C 0.75272(13) 0.59313(9) 0.2903(3)
H13_9 H 0.7363 0.5875 0.3614
N1_9 N 0.74852(7) 0.60573(5) 0.83522(18)
H1_9 H 0.7440 0.6213 0.8974
O2_9 O 0.54629(8) 0.49389(6) 0.90789(17)
C2_9 C 0.56851(11) 0.52690(9) 0.9380(2)
C6_9 C 0.67981(10) 0.57359(7) 0.7940(2)
C7_9 C 0.60779(11) 0.54272(9) 0.8922(3)
C9_9 C 0.71820(10) 0.59132(7) 0.7336(2)
H4_9 H 0.7200 0.5733 0.6778
H5_9 H 0.7217 0.6116 0.6760
C10_9 C 0.61906(12) 0.52122(10) 0.8239(3)
H6_9 H 0.6024 0.4962 0.8106
C11_9 C 0.65473(11) 0.53661(8) 0.7753(3)
H7_9 H 0.6618 0.5218 0.7294
C12_9 C 0.74778(9) 0.57512(6) 0.9169(2)
H8_9 H 0.7623 0.5661 0.8719
H9_9 H 0.7225 0.5548 0.9233
C13_9 C 0.66879(12) 0.59484(8) 0.8639(4)
H10_9 H 0.6854 0.6199 0.8779
C14_9 C 0.63305(14) 0.57928(11) 0.9138(4)
H11_9 H 0.6261 0.5939 0.9625
O5_9 O 0.82886(7) 0.67728(5) 0.87922(16)
O6_9 O 0.82722(9) 0.61426(5) 0.75878(17)
O7_4 O 0.01255(5) 0.56043(8) 0.0005(2)
O8 O 0.95094(5) 0.50087(5) 0.11956(16)
N1_10 N 0.93906(5) 0.52387(5) 0.83145(18)
H1_10 H 0.9546 0.5439 0.7693
O3_7 O 0.88122(6) 0.65412(5) 0.6672(2)
C1_10 C 0.96380(6) 0.49214(6) 0.2184(2)
C2_10 C 0.86023(9) 0.62505(7) 0.7287(2)
C3_10 C 0.92134(6) 0.49176(7) 0.6108(2)
C4_10 C 0.95455(7) 0.47392(6) 0.4597(2)
H2_10 H 0.9685 0.4625 0.4459
C5_10 C 0.94758(6) 0.49046(6) 0.3537(2)
C6_10 C 0.90692(7) 0.56044(7) 0.8727(2)
C7_10 C 0.87605(9) 0.60159(7) 0.7745(3)
C8_10 C 0.94121(7) 0.47388(7) 0.5869(2)
H3_10 H 0.9456 0.4618 0.6568
C9_10 C 0.92465(7) 0.53978(7) 0.9331(2)
H4_10 H 0.9066 0.5199 0.9889
H5_10 H 0.9449 0.5565 0.9907
C10_10 C 0.85455(10) 0.56882(7) 0.8428(3)
H6_10 H 0.8295 0.5604 0.8561
C11_10 C 0.86994(8) 0.54854(8) 0.8914(3)
H7_10 H 0.8551 0.5266 0.9373
C12_10 C 0.90845(6) 0.49400(7) 0.7498(2)
H8_10 H 0.8994 0.4704 0.7948
H9_10 H 0.8881 0.4989 0.7434
C13_10 C 0.92817(8) 0.59271(9) 0.8028(4)
H10_10 H 0.9532 0.6011 0.7888
C14_10 C 0.91261(11) 0.61289(8) 0.7529(4)
H11_10 H 0.9272 0.6344 0.7042
C15_10 C 0.91381(9) 0.50781(9) 0.5038(3)
H12_10 H 0.9000 0.5194 0.5176
C16_10 C 0.92646(9) 0.50707(9) 0.3764(3)
H13_10 H 0.9208 0.5178 0.3053
O7_5 O 0.43957(8) 0.45211(9) 0.0005(2)
O8_2 O 0.49913(5) 0.45007(7) 0.11956(16)
N1_11 N 0.47613(5) 0.41519(7) 0.83145(18)
H1_11 H 0.4561 0.4107 0.7693
O3_8 O 0.34588(5) 0.22710(8) 0.6672(2)
C1_11 C 0.50786(6) 0.47166(8) 0.2184(2)
C2_11 C 0.37495(7) 0.23518(11) 0.7287(2)
C3_11 C 0.50824(7) 0.42958(9) 0.6108(2)
C4_11 C 0.52608(6) 0.48063(9) 0.4597(2)
H2_11 H 0.5375 0.5060 0.4459
C5_11 C 0.50954(6) 0.45712(8) 0.3537(2)
C6_11 C 0.43956(7) 0.34648(10) 0.8727(2)
C7_11 C 0.39841(7) 0.27446(11) 0.7745(3)
C8_11 C 0.52612(7) 0.46733(10) 0.5869(2)
H3_11 H 0.5382 0.4838 0.6568
C9_11 C 0.46022(7) 0.38487(10) 0.9331(2)
H4_11 H 0.4801 0.3867 0.9889
H5_11 H 0.4435 0.3884 0.9907
C10_11 C 0.43118(7) 0.28573(12) 0.8428(3)
H6_11 H 0.4396 0.2691 0.8561
C11_11 C 0.45146(8) 0.32140(11) 0.8914(3)
H7_11 H 0.4734 0.3285 0.9373
C12_11 C 0.50600(7) 0.41445(9) 0.7498(2)
H8_11 H 0.5296 0.4290 0.7948
H9_11 H 0.5011 0.3892 0.7434
C13_11 C 0.40729(9) 0.33546(12) 0.8028(4)
H10_11 H 0.3989 0.3521 0.7888
C14_11 C 0.38711(8) 0.29972(14) 0.7529(4)
H11_11 H 0.3656 0.2928 0.7042
C15_11 C 0.49219(9) 0.40600(13) 0.5038(3)
H12_11 H 0.4806 0.3806 0.5176
C16_11 C 0.49293(9) 0.41939(13) 0.3764(3)
H13_11 H 0.4822 0.4030 0.3053
O8_3 O 0.54993(7) 0.04906(5) 0.11956(16)
N1_12 N 0.58481(7) 0.06094(5) 0.83145(18)
H1_12 H 0.5893 0.0454 0.7693
O3_9 O 0.77290(8) 0.11878(6) 0.6672(2)
C1_12 C 0.52834(8) 0.03620(6) 0.2184(2)
C2_12 C 0.76482(11) 0.13977(9) 0.7287(2)
C3_12 C 0.57042(9) 0.07866(6) 0.6108(2)
C4_12 C 0.51937(9) 0.04545(7) 0.4597(2)
H2_12 H 0.4940 0.0315 0.4459
C5_12 C 0.54288(8) 0.05242(6) 0.3537(2)
C6_12 C 0.65352(10) 0.09308(7) 0.8727(2)
C7_12 C 0.72554(11) 0.12395(9) 0.7745(3)
C8_12 C 0.53267(10) 0.05879(7) 0.5869(2)
H3_12 H 0.5162 0.0544 0.6568
C9_12 C 0.61513(10) 0.07535(7) 0.9331(2)
H4_12 H 0.6133 0.0934 0.9889
H5_12 H 0.6116 0.0551 0.9907
C10_12 C 0.71427(12) 0.14545(10) 0.8428(3)
H6_12 H 0.7309 0.1705 0.8561
C11_12 C 0.67860(11) 0.13006(8) 0.8914(3)
H7_12 H 0.6715 0.1449 0.9373
C12_12 C 0.58555(9) 0.09155(6) 0.7498(2)
H8_12 H 0.5710 0.1006 0.7948
H9_12 H 0.6108 0.1119 0.7434
C13_12 C 0.66454(12) 0.07183(8) 0.8028(4)
H10_12 H 0.6479 0.0468 0.7888
C14_12 C 0.70028(14) 0.08739(11) 0.7529(4)
H11_12 H 0.7072 0.0728 0.7042
C15_12 C 0.59400(13) 0.08619(9) 0.5038(3)
H12_12 H 0.6194 0.1000 0.5176
C16_12 C 0.58061(13) 0.07354(9) 0.3764(3)
H13_12 H 0.5970 0.0792 0.3053
O7_6 O 0.54789(9) 0.98745(5) 0.0005(2)
N1_13 N 0.27239(5) 0.19054(5) 0.49812(18)
H1_13 H 0.2879 0.2106 0.4360
O3_10 O 0.21455(6) 0.32079(5) 0.3339(2)
C2_13 C 0.19356(9) 0.29172(7) 0.3954(2)
C3_13 C 0.25467(6) 0.15843(7) 0.2775(2)
C4_13 C 0.28788(7) 0.14059(6) 0.1264(2)
H2_13 H 0.3018 0.1292 0.1126
C5_13 C 0.28091(6) 0.15713(6) 0.0204(2)
C6_13 C 0.24025(7) 0.22711(7) 0.5394(2)
C7_13 C 0.20938(9) 0.26826(7) 0.4412(3)
C8_13 C 0.27454(7) 0.14055(7) 0.2536(2)
H3_13 H 0.2789 0.1285 0.3235
C9_13 C 0.25798(7) 0.20645(7) 0.5998(2)
H4_13 H 0.2399 0.1866 0.6556
H5_13 H 0.2782 0.2232 0.6574
C10_13 C 0.18788(10) 0.23549(7) 0.5095(3)
H6_13 H 0.1628 0.2271 0.5228
C11_13 C 0.20327(8) 0.21521(8) 0.5581(3)
H7_13 H 0.1884 0.1933 0.6040
C12_13 C 0.24178(6) 0.16067(7) 0.4165(2)
H8_13 H 0.2327 0.1371 0.4615
H9_13 H 0.2214 0.1656 0.4101
C13_13 C 0.26150(8) 0.25938(9) 0.4695(4)
H10_13 H 0.2865 0.2678 0.4555
C14_13 C 0.24594(11) 0.27956(8) 0.4196(4)
H11_13 H 0.2605 0.3011 0.3709
C15_13 C 0.24714(9) 0.17448(9) 0.1705(3)
H12_13 H 0.2333 0.1861 0.1843
C16_13 C 0.25979(9) 0.17374(9) 0.0431(3)
O8_4 O 0.28427(5) 0.16754(5) 0.78623(16)
C1_13 C 0.29713(6) 0.15881(6) 0.8851(2)
H13_13 H 0.2541 0.1845 0.9720
N1_14 N 0.80946(5) 0.08186(7) 0.49812(18)
H1_14 H 0.7894 0.0774 0.4360
C3_14 C 0.84157(7) 0.09625(9) 0.2775(2)
C4_14 C 0.85941(6) 0.14730(9) 0.1264(2)
H2_14 H 0.8708 0.1727 0.1126
C5_14 C 0.84287(6) 0.12379(8) 0.0204(2)
C6_14 C 0.77289(7) 0.01315(10) 0.5394(2)
C8_14 C 0.85945(7) 0.13400(10) 0.2536(2)
H3_14 H 0.8715 0.1505 0.3235
C9_14 C 0.79355(7) 0.05154(10) 0.5998(2)
H4_14 H 0.8134 0.0534 0.6556
H5_14 H 0.7768 0.0551 0.6574
C12_14 C 0.83933(7) 0.08112(9) 0.4165(2)
H8_14 H 0.8629 0.0957 0.4615
H9_14 H 0.8344 0.0559 0.4101
C13_14 C 0.74062(9) 0.00213(12) 0.4695(4)
H10_14 H 0.7322 0.0188 0.4555
C15_14 C 0.82552(9) 0.07267(13) 0.1705(3)
H12_14 H 0.8139 0.0473 0.1843
C16_14 C 0.82626(9) 0.08606(13) 0.0431(3)
O8_5 O 0.83246(5) 0.11674(7) 0.78623(16)
C1_14 C 0.84119(6) 0.13833(8) 0.8851(2)
H13_14 H 0.8155 0.0697 0.9720
O3_11 O 0.67921(5) 0.89377(8) 0.3339(2)
C2_14 C 0.70828(7) 0.90185(11) 0.3954(2)
C7_14 C 0.73174(7) 0.94113(11) 0.4412(3)
C10_14 C 0.76451(7) 0.95240(12) 0.5095(3)
H6_14 H 0.7729 0.9358 0.5228
C11_14 C 0.78479(8) 0.98807(11) 0.5581(3)
H7_14 H 0.8067 0.9952 0.6040
C14_14 C 0.72044(8) 0.96639(14) 0.4196(4)
H11_14 H 0.6989 0.9595 0.3709
O3_12 O 0.10623(8) 0.78545(6) 0.3339(2)
C2_15 C 0.09815(11) 0.80644(9) 0.3954(2)
C7_15 C 0.05887(11) 0.79062(9) 0.4412(3)
C10_15 C 0.04760(12) 0.81212(10) 0.5095(3)
H6_15 H 0.0642 0.8372 0.5228
C11_15 C 0.01193(11) 0.79673(8) 0.5581(3)
H7_15 H 0.0048 0.8116 0.6040
C14_15 C 0.03361(14) 0.75406(11) 0.4196(4)
H11_15 H 0.0405 0.7395 0.3709
N1_15 N 0.91814(7) 0.72761(5) 0.49812(18)
H1_15 H 0.9226 0.7121 0.4360
C3_15 C 0.90375(9) 0.74533(6) 0.2775(2)
C4_15 C 0.85270(9) 0.71212(7) 0.1264(2)
H2_15 H 0.8273 0.6982 0.1126
C5_15 C 0.87621(8) 0.71909(6) 0.0204(2)
C6_15 C 0.98685(10) 0.75975(7) 0.5394(2)
C8_15 C 0.86600(10) 0.72546(7) 0.2536(2)
H3_15 H 0.8495 0.7211 0.3235
C9_15 C 0.94846(10) 0.74202(7) 0.5998(2)
H4_15 H 0.9466 0.7601 0.6556
H5_15 H 0.9449 0.7218 0.6574
C12_15 C 0.91888(9) 0.75822(6) 0.4165(2)
H8_15 H 0.9043 0.7673 0.4615
H9_15 H 0.9441 0.7786 0.4101
C13_15 C 0.99787(12) 0.73850(8) 0.4695(4)
H10_15 H 0.9812 0.7135 0.4555
C15_15 C 0.92733(13) 0.75286(9) 0.1705(3)
H12_15 H 0.9527 0.7667 0.1843
C16_15 C 0.91394(13) 0.74021(9) 0.0431(3)
O8_6 O 0.88326(7) 0.71573(5) 0.78623(16)
C1_15 C 0.86167(8) 0.70287(6) 0.8851(2)
H13_15 H 0.9303 0.7459 0.9720
N1_16 N 0.60573(5) 0.85720(5) 0.16478(18)
H1_16 H 0.6213 0.8772 0.1026
C2_16 C 0.52690(9) 0.95838(7) 0.0620(2)
C6_16 C 0.57359(7) 0.89377(7) 0.2060(2)
C7_16 C 0.54272(9) 0.93492(7) 0.1078(3)
C9_16 C 0.59132(7) 0.87311(7) 0.2664(2)
H4_16 H 0.5733 0.8532 0.3222
H5_16 H 0.6116 0.8898 0.3240
C10_16 C 0.52122(10) 0.90215(7) 0.1761(3)
H6_16 H 0.4962 0.8937 0.1894
C11_16 C 0.53661(8) 0.88187(8) 0.2247(3)
H7_16 H 0.5218 0.8599 0.2706
C12_16 C 0.57512(6) 0.82733(7) 0.0831(2)
H8_16 H 0.5661 0.8037 0.1281
H9_16 H 0.5548 0.8322 0.0767
C13_16 C 0.59484(8) 0.92604(9) 0.1361(4)
H10_16 H 0.6199 0.9344 0.1221
C14_16 C 0.57928(11) 0.94622(8) 0.0862(4)
H11_16 H 0.5939 0.9677 0.0375
O8_7 O 0.61761(5) 0.83420(5) 0.45289(16)
C1_16 C 0.63047(6) 0.82547(6) 0.5517(2)
C3_16 C 0.58801(6) 0.82509(7) 0.9441(2)
C4_16 C 0.62122(7) 0.80725(6) 0.7930(2)
H2_16 H 0.6352 0.7958 0.7792
C5_16 C 0.61425(6) 0.82379(6) 0.6870(2)
C8_16 C 0.60788(7) 0.80721(7) 0.9202(2)
H3_16 H 0.6123 0.7951 0.9901
C15_16 C 0.58048(9) 0.84114(9) 0.8371(3)
H12_16 H 0.5667 0.8527 0.8509
C16_16 C 0.59313(9) 0.84040(9) 0.7097(3)
H13_16 H 0.5875 0.8511 0.6386
N1_17 N 0.14280(5) 0.74852(7) 0.16478(18)
H1_17 H 0.1228 0.7440 0.1026
C2_17 C 0.04162(7) 0.56851(11) 0.0620(2)
C6_17 C 0.10623(7) 0.67981(10) 0.2060(2)
C7_17 C 0.06508(7) 0.60779(11) 0.1078(3)
C9_17 C 0.12689(7) 0.71820(10) 0.2664(2)
H4_17 H 0.1468 0.7200 0.3222
H5_17 H 0.1102 0.7217 0.3240
C10_17 C 0.09785(7) 0.61906(12) 0.1761(3)
H6_17 H 0.1063 0.6024 0.1894
C11_17 C 0.11813(8) 0.65473(11) 0.2247(3)
H7_17 H 0.1401 0.6618 0.2706
C12_17 C 0.17267(7) 0.74778(9) 0.0831(2)
H8_17 H 0.1963 0.7623 0.1281
H9_17 H 0.1678 0.7225 0.0767
C13_17 C 0.07396(9) 0.66879(12) 0.1361(4)
H10_17 H 0.0656 0.6854 0.1221
C14_17 C 0.05378(8) 0.63305(14) 0.0862(4)
H11_17 H 0.0323 0.6261 0.0375
O8_8 O 0.16580(5) 0.78340(7) 0.45289(16)
C1_17 C 0.17453(6) 0.80499(8) 0.5517(2)
C3_17 C 0.17491(7) 0.76291(9) 0.9441(2)
C4_17 C 0.19275(6) 0.81396(9) 0.7930(2)
H2_17 H 0.2042 0.8393 0.7792
C5_17 C 0.17621(6) 0.79045(8) 0.6870(2)
C8_17 C 0.19279(7) 0.80066(10) 0.9202(2)
H3_17 H 0.2049 0.8171 0.9901
C15_17 C 0.15886(9) 0.73933(13) 0.8371(3)
H12_17 H 0.1473 0.7139 0.8509
C16_17 C 0.15960(9) 0.75272(13) 0.7097(3)
H13_17 H 0.1489 0.7363 0.6386
N1_18 N 0.25148(7) 0.39427(5) 0.16478(18)
H1_18 H 0.2560 0.3787 0.1026
C2_18 C 0.43149(11) 0.47310(9) 0.0620(2)
C6_18 C 0.32019(10) 0.42641(7) 0.2060(2)
C7_18 C 0.39221(11) 0.45728(9) 0.1078(3)
C9_18 C 0.28180(10) 0.40868(7) 0.2664(2)
H4_18 H 0.2800 0.4267 0.3222
H5_18 H 0.2783 0.3884 0.3240
C10_18 C 0.38094(12) 0.47878(10) 0.1761(3)
H6_18 H 0.3976 0.5038 0.1894
C11_18 C 0.34527(11) 0.46339(8) 0.2247(3)
H7_18 H 0.3382 0.4782 0.2706
C12_18 C 0.25222(9) 0.42488(6) 0.0831(2)
H8_18 H 0.2377 0.4339 0.1281
H9_18 H 0.2775 0.4452 0.0767
C13_18 C 0.33121(12) 0.40516(8) 0.1361(4)
H10_18 H 0.3146 0.3801 0.1221
C14_18 C 0.36695(14) 0.42072(11) 0.0862(4)
H11_18 H 0.3739 0.4061 0.0375
O8_9 O 0.21660(7) 0.38239(5) 0.45289(16)
C1_18 C 0.19501(8) 0.36953(6) 0.5517(2)
C3_18 C 0.23709(9) 0.41199(6) 0.9441(2)
C4_18 C 0.18604(9) 0.37878(7) 0.7930(2)
H2_18 H 0.1607 0.3648 0.7792
C5_18 C 0.20955(8) 0.38575(6) 0.6870(2)
C8_18 C 0.19934(10) 0.39212(7) 0.9202(2)
H3_18 H 0.1829 0.3877 0.9901
C15_18 C 0.26067(13) 0.41952(9) 0.8371(3)
H12_18 H 0.2861 0.4333 0.8509
C16_18 C 0.24728(13) 0.40687(9) 0.7097(3)
H13_18 H 0.2637 0.4125 0.6386
loop_
_geom_bond_atom_site_label_1
_geom_bond_atom_site_label_2
_geom_bond_site_symmetry_1
_geom_bond_site_symmetry_2
Zn2 N1 1_555 1_555
N1 H1 1_555 1_555
O1 C1 1_555 1_555
O2 C2 1_555 1_555
O3 C2 1_555 1_555
O4 C1 1_555 1_555
C1 C5 1_555 1_555
C2 C7 1_555 1_555
C3 C8 1_555 1_555
C4 H2 1_555 1_555
C5 C4 1_555 1_555
C6 C9 1_555 1_555
C7 C10 1_555 1_555
C8 C4 1_555 1_555
H3 C8 1_555 1_555
C9 N1 1_555 1_555
H4 C9 1_555 1_555
H5 C9 1_555 1_555
C10 H6 1_555 1_555
C11 C6 1_555 1_555
H7 C11 1_555 1_555
C12 N1 1_555 1_555
H8 C12 1_555 1_555
H9 C12 1_555 1_555
C13 C6 1_555 1_555
H10 C13 1_555 1_555
C14 C7 1_555 1_555
H11 C14 1_555 1_555
C15 C3 1_555 1_555
H12 C15 1_555 1_555
C16 C5 1_555 1_555
H13 C16 1_555 1_555
Zn3 O3 1_555 1_555
Zn5 O2 1_555 1_555
O6 Zn2 1_555 1_555
C3 C12 1_555 1_555
C10 C11 1_555 1_555
C13 C14 1_555 1_555
C15 C16 1_555 1_555
Zn2_2 N1_2 1_555 1_555
N1_2 H1_2 1_555 1_555
O1_2 C1_2 1_555 1_555
O2_2 C2_2 1_555 1_555
O3_2 C2_2 1_555 1_555
O4_2 C1_2 1_555 1_555
C1_2 C5_2 1_555 1_555
C2_2 C7_2 1_555 1_555
C3_2 C8_2 1_555 1_555
C4_2 H2_2 1_555 1_555
C5_2 C4_2 1_555 1_555
C6_2 C9_2 1_555 1_555
C7_2 C10_2 1_555 1_555
C8_2 C4_2 1_555 1_555
H3_2 C8_2 1_555 1_555
C9_2 N1_2 1_555 1_555
H4_2 C9_2 1_555 1_555
H5_2 C9_2 1_555 1_555
C10_2 H6_2 1_555 1_555
C11_2 C6_2 1_555 1_555
H7_2 C11_2 1_555 1_555
C12_2 N1_2 1_555 1_555
H8_2 C12_2 1_555 1_555
H9_2 C12_2 1_555 1_555
C13_2 C6_2 1_555 1_555
H10_2 C13_2 1_555 1_555
C14_2 C7_2 1_555 1_555
H11_2 C14_2 1_555 1_555
C15_2 C3_2 1_555 1_555
H12_2 C15_2 1_555 1_555
C16_2 C5_2 1_555 1_555
H13_2 C16_2 1_555 1_555
Zn3_2 O3_2 1_555 1_555
Zn4_2 O1_2 1_555 1_555
Zn5_2 O2_2 1_555 1_555
O5_2 Zn2_2 1_555 1_555
O6_2 Zn2_2 1_555 1_555
C3_2 C12_2 1_555 1_555
C10_2 C11_2 1_555 1_555
C13_2 C14_2 1_555 1_555
C15_2 C16_2 1_555 1_555
Zn2_3 N1_3 1_555 1_555
N1_3 H1_3 1_555 1_555
O1_3 C1_3 1_555 1_555
O2_3 C2_3 1_555 1_555
O3_3 C2_3 1_555 1_555
O4_3 C1_3 1_555 1_555
C1_3 C5_3 1_555 1_555
C2_3 C7_3 1_555 1_555
C3_3 C8_3 1_555 1_555
C4_3 H2_3 1_555 1_555
C5_3 C4_3 1_555 1_555
C6_3 C9_3 1_555 1_555
C7_3 C10_3 1_555 1_555
C8_3 C4_3 1_555 1_555
H3_3 C8_3 1_555 1_555
C9_3 N1_3 1_555 1_555
H4_3 C9_3 1_555 1_555
H5_3 C9_3 1_555 1_555
C10_3 H6_3 1_555 1_555
C11_3 C6_3 1_555 1_555
H7_3 C11_3 1_555 1_555
C12_3 N1_3 1_555 1_555
H8_3 C12_3 1_555 1_555
H9_3 C12_3 1_555 1_555
C13_3 C6_3 1_555 1_555
H10_3 C13_3 1_555 1_555
C14_3 C7_3 1_555 1_555
H11_3 C14_3 1_555 1_555
C15_3 C3_3 1_555 1_555
H12_3 C15_3 1_555 1_555
C16_3 C5_3 1_555 1_555
H13_3 C16_3 1_555 1_555
Zn3_3 O3_3 1_555 1_555
Zn5_3 O2_3 1_555 1_555
O6_3 Zn2_3 1_555 1_555
C3_3 C12_3 1_555 1_555
C10_3 C11_3 1_555 1_555
C13_3 C14_3 1_555 1_555
C15_3 C16_3 1_555 1_555
O1_4 C1_4 1_555 1_555
O4_4 C1_4 1_555 1_555
Zn3_2 O4_4 1_555 1_555
Zn5_2 O1_4 1_555 1_555
Zn3_2 N1_4 1_555 1_555
N1_4 H1_4 1_555 1_555
O2_4 C2_4 1_555 1_555
O3_4 C2_4 1_555 1_555
C2_4 C7_4 1_555 1_555
C3_4 C8_4 1_555 1_555
C4_4 H2_4 1_555 1_555
C5_4 C4_4 1_555 1_555
C6_4 C9_4 1_555 1_555
C7_4 C10_4 1_555 1_555
C8_4 C4_4 1_555 1_555
H3_4 C8_4 1_555 1_555
C9_4 N1_4 1_555 1_555
H4_4 C9_4 1_555 1_555
H5_4 C9_4 1_555 1_555
C10_4 H6_4 1_555 1_555
C11_4 C6_4 1_555 1_555
H7_4 C11_4 1_555 1_555
C12_4 N1_4 1_555 1_555
H8_4 C12_4 1_555 1_555
H9_4 C12_4 1_555 1_555
C13_4 C6_4 1_555 1_555
H10_4 C13_4 1_555 1_555
C14_4 C7_4 1_555 1_555
H11_4 C14_4 1_555 1_555
C15_4 C3_4 1_555 1_555
H12_4 C15_4 1_555 1_555
C16_4 C5_4 1_555 1_555
Zn3_4 O3_4 1_555 1_555
Zn5_4 O2_4 1_555 1_555
O5_4 Zn3_2 1_555 1_555
O6_4 Zn3_2 1_555 1_555
C3_4 C12_4 1_555 1_555
C10_4 C11_4 1_555 1_555
C13_4 C14_4 1_555 1_555
C15_4 C16_4 1_555 1_555
O2_5 C2_5 1_555 1_555
O3_5 C2_5 1_555 1_555
C2_5 C7_5 1_555 1_555
C7_5 C10_5 1_555 1_555
C10_5 H6_5 1_555 1_555
H7_5 C11_5 1_555 1_555
C14_5 C7_5 1_555 1_555
H11_5 C14_5 1_555 1_555
Zn3_5 O3_5 1_555 1_555
Zn5_5 O2_5 1_555 1_555
C10_5 C11_5 1_555 1_555
O1_5 C1_5 1_555 1_555
O4_5 C1_5 1_555 1_555
Zn3_3 O4_5 1_555 1_555
Zn5_3 O1_5 1_555 1_555
Zn3_3 N1_5 1_555 1_555
N1_5 H1_5 1_555 1_555
C3_5 C8_5 1_555 1_555
C4_5 H2_5 1_555 1_555
C5_5 C4_5 1_555 1_555
C6_5 C9_5 1_555 1_555
C8_5 C4_5 1_555 1_555
H3_5 C8_5 1_555 1_555
C9_5 N1_5 1_555 1_555
H4_5 C9_5 1_555 1_555
H5_5 C9_5 1_555 1_555
C12_5 N1_5 1_555 1_555
H8_5 C12_5 1_555 1_555
H9_5 C12_5 1_555 1_555
C13_5 C6_5 1_555 1_555
H10_5 C13_5 1_555 1_555
C15_5 C3_5 1_555 1_555
H12_5 C15_5 1_555 1_555
C16_5 C5_5 1_555 1_555
O5_5 Zn3_3 1_555 1_555
O6_5 Zn3_3 1_555 1_555
C3_5 C12_5 1_555 1_555
C15_5 C16_5 1_555 1_555
O1_6 C1_6 1_555 1_555
O4_6 C1_6 1_555 1_555
Zn3 O4_6 1_555 1_555
Zn5 O1_6 1_555 1_555
Zn3 N1_6 1_555 1_555
N1_6 H1_6 1_555 1_555
C3_6 C8_6 1_555 1_555
C4_6 H2_6 1_555 1_555
C5_6 C4_6 1_555 1_555
C6_6 C9_6 1_555 1_555
C8_6 C4_6 1_555 1_555
H3_6 C8_6 1_555 1_555
C9_6 N1_6 1_555 1_555
H4_6 C9_6 1_555 1_555
H5_6 C9_6 1_555 1_555
C12_6 N1_6 1_555 1_555
H8_6 C12_6 1_555 1_555
H9_6 C12_6 1_555 1_555
C13_6 C6_6 1_555 1_555
H10_6 C13_6 1_555 1_555
C15_6 C3_6 1_555 1_555
H12_6 C15_6 1_555 1_555
C16_6 C5_6 1_555 1_555
O5_6 Zn3 1_555 1_555
O6_6 Zn3 1_555 1_555
C3_6 C12_6 1_555 1_555
C15_6 C16_6 1_555 1_555
O2_6 C2_6 1_555 1_555
O3_6 C2_6 1_555 1_555
C2_6 C7_6 1_555 1_555
C7_6 C10_6 1_555 1_555
C10_6 H6_6 1_555 1_555
H7_6 C11_6 1_555 1_555
C14_6 C7_6 1_555 1_555
H11_6 C14_6 1_555 1_555
Zn3_6 O3_6 1_555 1_555
Zn5_6 O2_6 1_555 1_555
C10_6 C11_6 1_555 1_555
O1_7 C1_7 1_555 1_555
O4_7 C1_7 1_555 1_555
C1_7 C5_7 1_555 1_555
C3_7 C8_7 1_555 1_555
C4_7 H2_7 1_555 1_555
C5_7 C4_7 1_555 1_555
C8_7 C4_7 1_555 1_555
H3_7 C8_7 1_555 1_555
C15_7 C3_7 1_555 1_555
H12_7 C15_7 1_555 1_555
C16_7 C5_7 1_555 1_555
H13_7 C16_7 1_555 1_555
Zn3_5 O4_7 1_555 1_555
Zn5_5 O1_7 1_555 1_555
C15_7 C16_7 1_555 1_555
Zn3_5 N1_7 1_555 1_555
N1_7 H1_7 1_555 1_555
O2_7 C2_7 1_555 1_555
O7_3 C2_7 1_555 1_555
C2_7 C7_7 1_555 1_555
C6_7 C9_7 1_555 1_555
C7_7 C10_7 1_555 1_555
C9_7 N1_7 1_555 1_555
H4_7 C9_7 1_555 1_555
H5_7 C9_7 1_555 1_555
C10_7 H6_7 1_555 1_555
C11_7 C6_7 1_555 1_555
H7_7 C11_7 1_555 1_555
C12_7 N1_7 1_555 1_555
H8_7 C12_7 1_555 1_555
H9_7 C12_7 1_555 1_555
C13_7 C6_7 1_555 1_555
H10_7 C13_7 1_555 1_555
C14_7 C7_7 1_555 1_555
H11_7 C14_7 1_555 1_555
Zn4_3 O2_7 1_555 1_555
O5_7 Zn3_5 1_555 1_555
O6_7 Zn3_5 1_555 1_555
C10_7 C11_7 1_555 1_555
C13_7 C14_7 1_555 1_555
O1_8 C1_8 1_555 1_555
O4_8 C1_8 1_555 1_555
C1_8 C5_8 1_555 1_555
C3_8 C8_8 1_555 1_555
C4_8 H2_8 1_555 1_555
C5_8 C4_8 1_555 1_555
C8_8 C4_8 1_555 1_555
H3_8 C8_8 1_555 1_555
C15_8 C3_8 1_555 1_555
H12_8 C15_8 1_555 1_555
C16_8 C5_8 1_555 1_555
H13_8 C16_8 1_555 1_555
Zn3_6 O4_8 1_555 1_555
Zn5_6 O1_8 1_555 1_555
C15_8 C16_8 1_555 1_555
Zn3_6 N1_8 1_555 1_555
N1_8 H1_8 1_555 1_555
O2_8 C2_8 1_555 1_555
O7 C2_8 1_555 1_555
C2_8 C7_8 1_555 1_555
C6_8 C9_8 1_555 1_555
C7_8 C10_8 1_555 1_555
C9_8 N1_8 1_555 1_555
H4_8 C9_8 1_555 1_555
H5_8 C9_8 1_555 1_555
C10_8 H6_8 1_555 1_555
C11_8 C6_8 1_555 1_555
H7_8 C11_8 1_555 1_555
C12_8 N1_8 1_555 1_555
H8_8 C12_8 1_555 1_555
H9_8 C12_8 1_555 1_555
C13_8 C6_8 1_555 1_555
H10_8 C13_8 1_555 1_555
C14_8 C7_8 1_555 1_555
H11_8 C14_8 1_555 1_555
Zn4 O2_8 1_555 1_555
O5_8 Zn3_6 1_555 1_555
O6_8 Zn3_6 1_555 1_555
C10_8 C11_8 1_555 1_555
C13_8 C14_8 1_555 1_555
O1_9 C1_9 1_555 1_555
O4_9 C1_9 1_555 1_555
C1_9 C5_9 1_555 1_555
C3_9 C8_9 1_555 1_555
C4_9 H2_9 1_555 1_555
C5_9 C4_9 1_555 1_555
C8_9 C4_9 1_555 1_555
H3_9 C8_9 1_555 1_555
C15_9 C3_9 1_555 1_555
H12_9 C15_9 1_555 1_555
C16_9 C5_9 1_555 1_555
H13_9 C16_9 1_555 1_555
Zn3_4 O4_9 1_555 1_555
Zn5_4 O1_9 1_555 1_555
C15_9 C16_9 1_555 1_555
Zn3_4 N1_9 1_555 1_555
N1_9 H1_9 1_555 1_555
O2_9 C2_9 1_555 1_555
O7_2 C2_9 1_555 1_555
C2_9 C7_9 1_555 1_555
C6_9 C9_9 1_555 1_555
C7_9 C10_9 1_555 1_555
C9_9 N1_9 1_555 1_555
H4_9 C9_9 1_555 1_555
H5_9 C9_9 1_555 1_555
C10_9 H6_9 1_555 1_555
C11_9 C6_9 1_555 1_555
H7_9 C11_9 1_555 1_555
C12_9 N1_9 1_555 1_555
H8_9 C12_9 1_555 1_555
H9_9 C12_9 1_555 1_555
C13_9 C6_9 1_555 1_555
H10_9 C13_9 1_555 1_555
C14_9 C7_9 1_555 1_555
H11_9 C14_9 1_555 1_555
Zn4_2 O2_9 1_555 1_555
O5_9 Zn3_4 1_555 1_555
O6_9 Zn3_4 1_555 1_555
C10_9 C11_9 1_555 1_555
C13_9 C14_9 1_555 1_555
Zn4 N1_10 1_555 1_555
N1_10 H1_10 1_555 1_555
O5 C1_10 1_555 1_555
O6_9 C2_10 1_555 1_555
O3_7 C2_10 1_555 1_555
O8 C1_10 1_555 1_555
C1_10 C5_10 1_555 1_555
C2_10 C7_10 1_555 1_555
C3_10 C8_10 1_555 1_555
C4_10 H2_10 1_555 1_555
C5_10 C4_10 1_555 1_555
C6_10 C9_10 1_555 1_555
C7_10 C10_10 1_555 1_555
C8_10 C4_10 1_555 1_555
H3_10 C8_10 1_555 1_555
C9_10 N1_10 1_555 1_555
H4_10 C9_10 1_555 1_555
H5_10 C9_10 1_555 1_555
C10_10 H6_10 1_555 1_555
C11_10 C6_10 1_555 1_555
H7_10 C11_10 1_555 1_555
C12_10 N1_10 1_555 1_555
H8_10 C12_10 1_555 1_555
H9_10 C12_10 1_555 1_555
C13_10 C6_10 1_555 1_555
H10_10 C13_10 1_555 1_555
C14_10 C7_10 1_555 1_555
H11_10 C14_10 1_555 1_555
C15_10 C3_10 1_555 1_555
H12_10 C15_10 1_555 1_555
C16_10 C5_10 1_555 1_555
H13_10 C16_10 1_555 1_555
Zn5_4 O3_7 1_555 1_555
C3_10 C12_10 1_555 1_555
C10_10 C11_10 1_555 1_555
C13_10 C14_10 1_555 1_555
C15_10 C16_10 1_555 1_555
Zn4_2 N1_11 1_555 1_555
N1_11 H1_11 1_555 1_555
O5_2 C1_11 1_555 1_555
O6_7 C2_11 1_555 1_555
O3_8 C2_11 1_555 1_555
O8_2 C1_11 1_555 1_555
C1_11 C5_11 1_555 1_555
C2_11 C7_11 1_555 1_555
C3_11 C8_11 1_555 1_555
C4_11 H2_11 1_555 1_555
C5_11 C4_11 1_555 1_555
C6_11 C9_11 1_555 1_555
C7_11 C10_11 1_555 1_555
C8_11 C4_11 1_555 1_555
H3_11 C8_11 1_555 1_555
C9_11 N1_11 1_555 1_555
H4_11 C9_11 1_555 1_555
H5_11 C9_11 1_555 1_555
C10_11 H6_11 1_555 1_555
C11_11 C6_11 1_555 1_555
H7_11 C11_11 1_555 1_555
C12_11 N1_11 1_555 1_555
H8_11 C12_11 1_555 1_555
H9_11 C12_11 1_555 1_555
C13_11 C6_11 1_555 1_555
H10_11 C13_11 1_555 1_555
C14_11 C7_11 1_555 1_555
H11_11 C14_11 1_555 1_555
C15_11 C3_11 1_555 1_555
H12_11 C15_11 1_555 1_555
C16_11 C5_11 1_555 1_555
H13_11 C16_11 1_555 1_555
Zn5_5 O3_8 1_555 1_555
C3_11 C12_11 1_555 1_555
C10_11 C11_11 1_555 1_555
C13_11 C14_11 1_555 1_555
C15_11 C16_11 1_555 1_555
Zn4_3 N1_12 1_555 1_555
N1_12 H1_12 1_555 1_555
O5_3 C1_12 1_555 1_555
O6_8 C2_12 1_555 1_555
O3_9 C2_12 1_555 1_555
O8_3 C1_12 1_555 1_555
C1_12 C5_12 1_555 1_555
C2_12 C7_12 1_555 1_555
C3_12 C8_12 1_555 1_555
C4_12 H2_12 1_555 1_555
C5_12 C4_12 1_555 1_555
C6_12 C9_12 1_555 1_555
C7_12 C10_12 1_555 1_555
C8_12 C4_12 1_555 1_555
H3_12 C8_12 1_555 1_555
C9_12 N1_12 1_555 1_555
H4_12 C9_12 1_555 1_555
H5_12 C9_12 1_555 1_555
C10_12 H6_12 1_555 1_555
C11_12 C6_12 1_555 1_555
H7_12 C11_12 1_555 1_555
C12_12 N1_12 1_555 1_555
H8_12 C12_12 1_555 1_555
H9_12 C12_12 1_555 1_555
C13_12 C6_12 1_555 1_555
H10_12 C13_12 1_555 1_555
C14_12 C7_12 1_555 1_555
H11_12 C14_12 1_555 1_555
C15_12 C3_12 1_555 1_555
H12_12 C15_12 1_555 1_555
C16_12 C5_12 1_555 1_555
H13_12 C16_12 1_555 1_555
Zn5_6 O3_9 1_555 1_555
C3_12 C12_12 1_555 1_555
C10_12 C11_12 1_555 1_555
C13_12 C14_12 1_555 1_555
C15_12 C16_12 1_555 1_555
Zn5_5 N1_13 1_555 1_555
N1_13 H1_13 1_555 1_555
O6_6 C2_13 1_555 1_555
O3_10 C2_13 1_555 1_555
C2_13 C7_13 1_555 1_555
C3_13 C8_13 1_555 1_555
C4_13 H2_13 1_555 1_555
C5_13 C4_13 1_555 1_555
C6_13 C9_13 1_555 1_555
C7_13 C10_13 1_555 1_555
C8_13 C4_13 1_555 1_555
H3_13 C8_13 1_555 1_555
C9_13 N1_13 1_555 1_555
H4_13 C9_13 1_555 1_555
H5_13 C9_13 1_555 1_555
C10_13 H6_13 1_555 1_555
C11_13 C6_13 1_555 1_555
H7_13 C11_13 1_555 1_555
C12_13 N1_13 1_555 1_555
H8_13 C12_13 1_555 1_555
H9_13 C12_13 1_555 1_555
C13_13 C6_13 1_555 1_555
H10_13 C13_13 1_555 1_555
C14_13 C7_13 1_555 1_555
H11_13 C14_13 1_555 1_555
C15_13 C3_13 1_555 1_555
H12_13 C15_13 1_555 1_555
C16_13 C5_13 1_555 1_555
Zn5 O3_10 1_555 1_555
O8_4 Zn5_5 1_555 1_555
C3_13 C12_13 1_555 1_555
C10_13 C11_13 1_555 1_555
C13_13 C14_13 1_555 1_555
C15_13 C16_13 1_555 1_555
O5_7 C1_13 1_555 1_555
O8_4 C1_13 1_555 1_555
Zn5_6 N1_14 1_555 1_555
N1_14 H1_14 1_555 1_555
C3_14 C8_14 1_555 1_555
C4_14 H2_14 1_555 1_555
C5_14 C4_14 1_555 1_555
C6_14 C9_14 1_555 1_555
C8_14 C4_14 1_555 1_555
H3_14 C8_14 1_555 1_555
C9_14 N1_14 1_555 1_555
H4_14 C9_14 1_555 1_555
H5_14 C9_14 1_555 1_555
C12_14 N1_14 1_555 1_555
H8_14 C12_14 1_555 1_555
H9_14 C12_14 1_555 1_555
C13_14 C6_14 1_555 1_555
H10_14 C13_14 1_555 1_555
C15_14 C3_14 1_555 1_555
H12_14 C15_14 1_555 1_555
C16_14 C5_14 1_555 1_555
O8_5 Zn5_6 1_555 1_555
C3_14 C12_14 1_555 1_555
C15_14 C16_14 1_555 1_555
O5_8 C1_14 1_555 1_555
O8_5 C1_14 1_555 1_555
O6_4 C2_14 1_555 1_555
O3_11 C2_14 1_555 1_555
C2_14 C7_14 1_555 1_555
C7_14 C10_14 1_555 1_555
C10_14 H6_14 1_555 1_555
H7_14 C11_14 1_555 1_555
C14_14 C7_14 1_555 1_555
H11_14 C14_14 1_555 1_555
Zn5_2 O3_11 1_555 1_555
C10_14 C11_14 1_555 1_555
O6_5 C2_15 1_555 1_555
O3_12 C2_15 1_555 1_555
C2_15 C7_15 1_555 1_555
C7_15 C10_15 1_555 1_555
C10_15 H6_15 1_555 1_555
H7_15 C11_15 1_555 1_555
C14_15 C7_15 1_555 1_555
H11_15 C14_15 1_555 1_555
Zn5_3 O3_12 1_555 1_555
C10_15 C11_15 1_555 1_555
Zn5_4 N1_15 1_555 1_555
N1_15 H1_15 1_555 1_555
C3_15 C8_15 1_555 1_555
C4_15 H2_15 1_555 1_555
C5_15 C4_15 1_555 1_555
C6_15 C9_15 1_555 1_555
C8_15 C4_15 1_555 1_555
H3_15 C8_15 1_555 1_555
C9_15 N1_15 1_555 1_555
H4_15 C9_15 1_555 1_555
H5_15 C9_15 1_555 1_555
C12_15 N1_15 1_555 1_555
H8_15 C12_15 1_555 1_555
H9_15 C12_15 1_555 1_555
C13_15 C6_15 1_555 1_555
H10_15 C13_15 1_555 1_555
C15_15 C3_15 1_555 1_555
H12_15 C15_15 1_555 1_555
C16_15 C5_15 1_555 1_555
O8_6 Zn5_4 1_555 1_555
C3_15 C12_15 1_555 1_555
C15_15 C16_15 1_555 1_555
O5_9 C1_15 1_555 1_555
O8_6 C1_15 1_555 1_555
Zn5_2 N1_16 1_555 1_555
N1_16 H1_16 1_555 1_555
O6_3 C2_16 1_555 1_555
O7_6 C2_16 1_555 1_555
C2_16 C7_16 1_555 1_555
C6_16 C9_16 1_555 1_555
C7_16 C10_16 1_555 1_555
C9_16 N1_16 1_555 1_555
H4_16 C9_16 1_555 1_555
H5_16 C9_16 1_555 1_555
C10_16 H6_16 1_555 1_555
C11_16 C6_16 1_555 1_555
H7_16 C11_16 1_555 1_555
C12_16 N1_16 1_555 1_555
H8_16 C12_16 1_555 1_555
H9_16 C12_16 1_555 1_555
C13_16 C6_16 1_555 1_555
H10_16 C13_16 1_555 1_555
C14_16 C7_16 1_555 1_555
H11_16 C14_16 1_555 1_555
O8_7 Zn5_2 1_555 1_555
C10_16 C11_16 1_555 1_555
C13_16 C14_16 1_555 1_555
O5_4 C1_16 1_555 1_555
O8_7 C1_16 1_555 1_555
C1_16 C5_16 1_555 1_555
C3_16 C8_16 1_555 1_555
C4_16 H2_16 1_555 1_555
C5_16 C4_16 1_555 1_555
C8_16 C4_16 1_555 1_555
H3_16 C8_16 1_555 1_555
C15_16 C3_16 1_555 1_555
H12_16 C15_16 1_555 1_555
C16_16 C5_16 1_555 1_555
H13_16 C16_16 1_555 1_555
C15_16 C16_16 1_555 1_555
Zn5_3 N1_17 1_555 1_555
N1_17 H1_17 1_555 1_555
O6 C2_17 1_555 1_555
O7_4 C2_17 1_555 1_555
C2_17 C7_17 1_555 1_555
C6_17 C9_17 1_555 1_555
C7_17 C10_17 1_555 1_555
C9_17 N1_17 1_555 1_555
H4_17 C9_17 1_555 1_555
H5_17 C9_17 1_555 1_555
C10_17 H6_17 1_555 1_555
C11_17 C6_17 1_555 1_555
H7_17 C11_17 1_555 1_555
C12_17 N1_17 1_555 1_555
H8_17 C12_17 1_555 1_555
H9_17 C12_17 1_555 1_555
C13_17 C6_17 1_555 1_555
H10_17 C13_17 1_555 1_555
C14_17 C7_17 1_555 1_555
H11_17 C14_17 1_555 1_555
O8_8 Zn5_3 1_555 1_555
C10_17 C11_17 1_555 1_555
C13_17 C14_17 1_555 1_555
O5_5 C1_17 1_555 1_555
O8_8 C1_17 1_555 1_555
C1_17 C5_17 1_555 1_555
C3_17 C8_17 1_555 1_555
C4_17 H2_17 1_555 1_555
C5_17 C4_17 1_555 1_555
C8_17 C4_17 1_555 1_555
H3_17 C8_17 1_555 1_555
C15_17 C3_17 1_555 1_555
H12_17 C15_17 1_555 1_555
C16_17 C5_17 1_555 1_555
H13_17 C16_17 1_555 1_555
C15_17 C16_17 1_555 1_555
Zn5 N1_18 1_555 1_555
N1_18 H1_18 1_555 1_555
O6_2 C2_18 1_555 1_555
O7_5 C2_18 1_555 1_555
C2_18 C7_18 1_555 1_555
C6_18 C9_18 1_555 1_555
C7_18 C10_18 1_555 1_555
C9_18 N1_18 1_555 1_555
H4_18 C9_18 1_555 1_555
H5_18 C9_18 1_555 1_555
C10_18 H6_18 1_555 1_555
C11_18 C6_18 1_555 1_555
H7_18 C11_18 1_555 1_555
C12_18 N1_18 1_555 1_555
H8_18 C12_18 1_555 1_555
H9_18 C12_18 1_555 1_555
C13_18 C6_18 1_555 1_555
H10_18 C13_18 1_555 1_555
C14_18 C7_18 1_555 1_555
H11_18 C14_18 1_555 1_555
O8_9 Zn5 1_555 1_555
C10_18 C11_18 1_555 1_555
C13_18 C14_18 1_555 1_555
O5_6 C1_18 1_555 1_555
O8_9 C1_18 1_555 1_555
C1_18 C5_18 1_555 1_555
C3_18 C8_18 1_555 1_555
C4_18 H2_18 1_555 1_555
C5_18 C4_18 1_555 1_555
C8_18 C4_18 1_555 1_555
H3_18 C8_18 1_555 1_555
C15_18 C3_18 1_555 1_555
H12_18 C15_18 1_555 1_555
C16_18 C5_18 1_555 1_555
H13_18 C16_18 1_555 1_555
C15_18 C16_18 1_555 1_555

#END
