
###############################################################################
#
# This file contains modified crystal structure data generated from the
# MOF subset of the Cambridge Structural Database (CSD) v543 
# hosted by the Cambridge Crystallographic Data Centre (CCDC).
#
# This work is licensed under the Creative Commons
# Attribution-NonCommercial-ShareAlike 4.0 International License.
# To view a copy of this license, visit
# http://creativecommons.org/licenses/by-nc-sa/4.0/
# or send a letter to
# Creative Commons, PO Box 1866, Mountain View, CA 94042, USA.
#
# CIF created using the CSD Python API on 29 September 2022
# The structure has been converted into the P1 space group
# The structure has a 3D framework
# The original CSD entry MEYTOC is in the monoclinic crystal system
# The original CSD entry MEYTOC is in a Sohncke space group
# The framework has been calculated to contain at least 10.0% void space
# The void calculation uses a probe of radius 1.32A, grid spacing 0.4
#
###############################################################################

data_MEYTOC
_chemical_formula_moiety         '(C288 H192 Cl48 N94 Zn24)n'
_symmetry_cell_setting           triclinic
_symmetry_space_group_name_H-M   'P 1'
_symmetry_Int_Tables_number      1
_space_group_name_Hall           'P 1'
loop_
_symmetry_equiv_pos_site_id
_symmetry_equiv_pos_as_xyz
1 x,y,z
_cell_length_a                   31.6663(6)
_cell_length_b                   14.40590(10)
_cell_length_c                   32.0972(6)
_cell_angle_alpha                90
_cell_angle_beta                 100.780(2)
_cell_angle_gamma                90
_cell_volume                     14383.8
loop_
_atom_site_label
_atom_site_type_symbol
_atom_site_fract_x
_atom_site_fract_y
_atom_site_fract_z
Zn1 Zn 0.58037(6) 0.13620(9) 0.84623(5)
Cl1 Cl 0.61888(18) 0.24583(19) 0.82388(15)
Cl2 Cl 0.52140(18) 0.1625(4) 0.87257(14)
N1 N 0.5663(3) 0.0360(5) 0.7991(3)
C1 C 0.5909(4) 0.0237(7) 0.7712(4)
H1 H 0.6127 0.0675 0.7686
N27 N 0.6210(3) 0.0634(5) 0.8925(3)
C68 C 0.6455(3) 0.1099(6) 0.9247(3)
H45 H 0.6463 0.1758 0.9238
C69 C 0.6688(3) 0.0654(5) 0.9580(3)
H46 H 0.6866 0.1000 0.9797
Zn2 Zn 0.37000(4) 0.37411(8) 0.70187(4)
Cl3 Cl 0.34829(8) 0.3860(3) 0.76331(12)
Cl4 Cl 0.38200(10) 0.24040(17) 0.67304(12)
Zn3 Zn 0.7017(2) 0.6505(3) 0.54165(18)
Cl5 Cl 0.7623(2) 0.7011(5) 0.5776(3)
Cl6 Cl 0.6782(3) 0.6978(3) 0.47698(18)
Zn5 Zn 0.69606(15) 0.34960(12) 0.03962(12)
Cl9 Cl 0.7598(2) 0.2968(3) 0.0732(2)
Zn6 Zn 0.37096(4) 0.62729(8) 0.20074(4)
Cl11 Cl 0.38557(11) 0.75892(16) 0.17065(12)
Cl12 Cl 0.34550(10) 0.6149(3) 0.26072(10)
N2 N 0.5769(2) 0.7918(4) 0.6934(2)
N3 N 0.5440(2) 0.6460(5) 0.6746(2)
N4 N 0.5218(2) 0.7372(5) 0.7271(2)
N5 N 0.6556(3) 0.6732(6) 0.5815(3)
N6 N 0.4248(3) 0.4574(5) 0.7070(3)
N7 N 0.6994(3) 0.5091(5) 0.5357(3)
N8 N 0.6849(2) 0.1752(4) 0.5003(2)
N9 N 0.7194(2) 0.0369(5) 0.5274(2)
N10 N 0.7362(3) 0.1767(5) 0.5653(2)
N14 N 0.5775(3) 0.2097(5) 0.1921(3)
N15 N 0.5433(2) 0.3533(5) 0.1711(2)
N16 N 0.5223(2) 0.2676(5) 0.2268(2)
N17 N 0.6506(4) 0.3282(6) 0.0786(4)
N18 N 0.4231(3) 0.5413(5) 0.2085(2)
N19 N 0.3303(2) 0.5557(5) 0.1536(3)
N20 N 0.2370(2) 0.3232(4) 0.0627(2)
N21 N 0.1850(2) 0.3281(4) 0.0006(2)
N22 N 0.2218(2) 0.4663(4) 0.0255(2)
C2 C 0.5849(3) 0.9483(6) 0.7461(3)
H2 H 0.6035 0.9398 0.7263
C3 C 0.5547(3) 0.8848(6) 0.7471(3)
C4 C 0.5287(3) 0.8964(7) 0.7752(3)
H3 H 0.5063 0.8533 0.7766
C5 C 0.5351(4) 0.9725(8) 0.8024(4)
H4 H 0.5177 0.9803 0.8232
C6 C 0.5507(3) 0.7970(5) 0.7212(3)
C7 C 0.5731(3) 0.7150(6) 0.6710(3)
C8 C 0.5186(3) 0.6600(5) 0.7014(3)
C9 C 0.6238(4) 0.6173(10) 0.5857(4)
H5 H 0.6217 0.5622 0.5692
C10 C 0.5932(5) 0.6270(13) 0.6103(5)
H6 H 0.5689 0.5874 0.6085
C11 C 0.6015(3) 0.6999(7) 0.6379(3)
C12 C 0.6362(4) 0.7544(9) 0.6410(4)
H7 H 0.6430 0.7993 0.6628
C13 C 0.6620(4) 0.7416(9) 0.6102(4)
H8 H 0.6850 0.7836 0.6098
C14 C 0.4253(3) 0.5333(7) 0.7327(3)
H9 H 0.4050 0.5409 0.7508
C15 C 0.4583(3) 0.6009(6) 0.7308(3)
H10 H 0.4600 0.6546 0.7483
C16 C 0.4869(3) 0.5900(6) 0.7048(3)
C17 C 0.4860(4) 0.5087(7) 0.6814(3)
H11 H 0.5064 0.4980 0.6637
C18 C 0.4541(4) 0.4428(8) 0.6845(3)
H12 H 0.4540 0.3858 0.6697
C19 C 0.6785(5) 0.4631(6) 0.5043(4)
H13 H 0.6611 0.4954 0.4815
C20 C 0.6809(4) 0.3653(5) 0.5029(3)
H14 H 0.6660 0.3323 0.4790
C21 C 0.7042(3) 0.3195(5) 0.5355(3)
C22 C 0.7255(3) 0.3689(6) 0.5683(3)
H15 H 0.7433 0.3382 0.5912
C23 C 0.7215(4) 0.4649(6) 0.5685(4)
H16 H 0.7348 0.4991 0.5928
C24 C 0.7097(3) 0.2185(5) 0.5337(2)
C25 C 0.6931(3) 0.0811(5) 0.4993(3)
C26 C 0.7404(3) 0.0857(6) 0.5591(3)
C29 C 0.6688(2) 0.0317(5) 0.4618(2)
C30 C 0.6426(4) 0.0817(6) 0.4299(3)
H19 H 0.6386 0.1468 0.4318
C31 C 0.6225(4) 0.0299(6) 0.3948(3)
H20 H 0.6084 0.0635 0.3707
C32 C 0.8258(4) 0.0365(8) 0.6546(4)
H21 H 0.8460 0.0711 0.6742
C33 C 0.7943(4) 0.0847(7) 0.6274(4)
H22 H 0.7894 0.1488 0.6317
C34 C 0.7702(3) 0.0382(6) 0.5939(3)
C38 C 0.5874(4) 0.0508(7) 0.2428(3)
H26 H 0.6052 0.0564 0.2221
C39 C 0.5549(3) 0.1179(6) 0.2478(3)
C40 C 0.5289(3) 0.1021(6) 0.2765(3)
H27 H 0.5069 0.1452 0.2791
C41 C 0.5346(4) 0.0229(6) 0.3022(3)
H28 H 0.5154 0.0105 0.3210
C42 C 0.5509(3) 0.2004(6) 0.2204(3)
C43 C 0.5708(3) 0.2883(6) 0.1680(3)
C44 C 0.5200(3) 0.3375(6) 0.2017(3)
C45 C 0.6147(6) 0.3830(12) 0.0762(5)
H29 H 0.6055 0.4261 0.0540
C46 C 0.5940(5) 0.3695(11) 0.1081(5)
H30 H 0.5726 0.4146 0.1104
C47 C 0.5987(3) 0.3004(6) 0.1383(3)
C48 C 0.6323(6) 0.2436(9) 0.1328(6)
H31 H 0.6359 0.1871 0.1483
C49 C 0.6599(7) 0.2615(10) 0.1077(6)
H32 H 0.6860 0.2275 0.1103
C50 C 0.4280(3) 0.4669(7) 0.2319(3)
H33 H 0.4088 0.4590 0.2510
C51 C 0.4573(3) 0.4010(6) 0.2317(3)
H34 H 0.4579 0.3474 0.2491
C52 C 0.4855(3) 0.4123(5) 0.2067(3)
C53 C 0.4842(3) 0.4957(8) 0.1826(4)
H35 H 0.5055 0.5086 0.1662
C54 C 0.4518(4) 0.5556(7) 0.1839(4)
H36 H 0.4495 0.6097 0.1666
C55 C 0.3277(4) 0.4646(6) 0.1531(4)
H37 H 0.3446 0.4311 0.1758
C56 C 0.3019(3) 0.4155(6) 0.1217(3)
H38 H 0.3030 0.3496 0.1209
C57 C 0.2740(3) 0.4656(5) 0.0909(3)
C58 C 0.2757(3) 0.5585(5) 0.0916(3)
H39 H 0.2574 0.5930 0.0703
C59 C 0.3035(3) 0.6043(6) 0.1228(3)
H40 H 0.3042 0.6703 0.1230
C60 C 0.2420(3) 0.4159(5) 0.0587(2)
C61 C 0.2077(3) 0.2843(5) 0.0324(3)
C63 C 0.1768(4) 0.0412(7) 0.0049(4)
C64 C 0.1785(4) 0.1319(7) 0.0021(3)
C65 C 0.2048(3) 0.1812(5) 0.0348(3)
C66 C 0.2275(3) 0.1285(6) 0.0687(4)
H43 H 0.2458 0.1588 0.0915
C67 C 0.2235(4) 0.0347(7) 0.0689(4)
H44 H 0.2395 0.0002 0.0918
N25 N 0.3293(3) 0.4438(5) 0.6549(3)
N26 N 0.6977(3) 0.4898(5) 0.0379(3)
Zn4 Zn 0.58333(6) 0.86376(8) 0.34503(4)
Cl7 Cl 0.6211(2) 0.7542(2) 0.32376(15)
Cl8 Cl 0.52465(16) 0.8316(3) 0.36949(10)
N11 N 0.6213(3) 0.9397(5) 0.3923(2)
N12 N 0.8293(3) 0.9438(5) 0.6549(3)
N13 N 0.5678(3) 0.9632(5) 0.2999(2)
N23 N 0.1977(3) 0.9898(5) 0.0379(3)
C27 C 0.6469(3) 0.8940(5) 0.4230(2)
H17 H 0.6494 0.8287 0.4203
C28 C 0.6705(2) 0.9379(5) 0.4593(2)
H18 H 0.6871 0.9025 0.4815
C35 C 0.7760(3) 0.9398(5) 0.5919(3)
H23 H 0.7599 0.9038 0.5696
C36 C 0.8058(3) 0.8991(5) 0.6235(3)
H24 H 0.8095 0.8338 0.6223
C37 C 0.5903(4) 0.9772(8) 0.2713(4)
H25 H 0.6116 0.9318 0.2692
Zn8 Zn 0.87000(4) 0.87411(8) 0.70187(4)
Zn9 Zn 0.19606(15) 0.84960(12) 0.03962(12)
Zn4_2 Zn 0.08333(6) 0.36376(8) 0.34503(4)
Cl7_2 Cl 0.1211(2) 0.2542(2) 0.32376(15)
Cl8_2 Cl 0.02465(16) 0.3316(3) 0.36949(10)
Cl9_2 Cl 0.2598(2) 0.7968(3) 0.0732(2)
N8_2 N 0.1849(2) 0.6752(4) 0.5003(2)
N9_2 N 0.2194(2) 0.5369(5) 0.5274(2)
N10_2 N 0.2362(3) 0.6767(5) 0.5653(2)
N11_2 N 0.1213(3) 0.4397(5) 0.3923(2)
N13_2 N 0.0678(3) 0.4632(5) 0.2999(2)
N14_2 N 0.0775(3) 0.7097(5) 0.1921(3)
N15_2 N 0.0433(2) 0.8533(5) 0.1711(2)
N16_2 N 0.0223(2) 0.7676(5) 0.2268(2)
N17_2 N 0.1506(4) 0.8282(6) 0.0786(4)
H11_2 H 0.0064 0.9980 0.6637
C19_2 C 0.1785(5) 0.9631(6) 0.5043(4)
H13_2 H 0.1611 0.9954 0.4815
C20_2 C 0.1809(4) 0.8653(5) 0.5029(3)
H14_2 H 0.1660 0.8323 0.4790
C21_2 C 0.2042(3) 0.8195(5) 0.5355(3)
C22_2 C 0.2255(3) 0.8689(6) 0.5683(3)
H15_2 H 0.2433 0.8382 0.5912
C23_2 C 0.2215(4) 0.9649(6) 0.5685(4)
H16_2 H 0.2348 0.9991 0.5928
C24_2 C 0.2097(3) 0.7185(5) 0.5337(2)
C25_2 C 0.1931(3) 0.5811(5) 0.4993(3)
C26_2 C 0.2404(3) 0.5857(6) 0.5591(3)
C27_2 C 0.1469(3) 0.3940(5) 0.4230(2)
H17_2 H 0.1494 0.3287 0.4203
C28_2 C 0.1705(2) 0.4379(5) 0.4593(2)
H18_2 H 0.1871 0.4025 0.4815
C29_2 C 0.1688(2) 0.5317(5) 0.4618(2)
C30_2 C 0.1426(4) 0.5817(6) 0.4299(3)
H19_2 H 0.1386 0.6468 0.4318
C31_2 C 0.1225(4) 0.5299(6) 0.3948(3)
H20_2 H 0.1084 0.5635 0.3707
C32_2 C 0.3258(4) 0.5365(8) 0.6546(4)
H21_2 H 0.3460 0.5711 0.6742
C33_2 C 0.2943(4) 0.5847(7) 0.6274(4)
H22_2 H 0.2894 0.6488 0.6317
C34_2 C 0.2702(3) 0.5382(6) 0.5939(3)
C35_2 C 0.2760(3) 0.4398(5) 0.5919(3)
H23_2 H 0.2599 0.4038 0.5696
C36_2 C 0.3058(3) 0.3991(5) 0.6235(3)
H24_2 H 0.3095 0.3338 0.6223
C37_2 C 0.0903(4) 0.4772(8) 0.2713(4)
H25_2 H 0.1116 0.4318 0.2692
C38_2 C 0.0874(4) 0.5508(7) 0.2428(3)
H26_2 H 0.1052 0.5564 0.2221
C39_2 C 0.0549(3) 0.6179(6) 0.2478(3)
C40_2 C 0.0289(3) 0.6021(6) 0.2765(3)
H27_2 H 0.0069 0.6452 0.2791
C41_2 C 0.0346(4) 0.5229(6) 0.3022(3)
H28_2 H 0.0154 0.5105 0.3210
C42_2 C 0.0509(3) 0.7004(6) 0.2204(3)
C43_2 C 0.0708(3) 0.7883(6) 0.1680(3)
C44_2 C 0.0200(3) 0.8375(6) 0.2017(3)
C45_2 C 0.1147(6) 0.8830(12) 0.0762(5)
H29_2 H 0.1055 0.9261 0.0540
C46_2 C 0.0940(5) 0.8695(11) 0.1081(5)
H30_2 H 0.0726 0.9146 0.1104
C47_2 C 0.0987(3) 0.8004(6) 0.1383(3)
C48_2 C 0.1323(6) 0.7436(9) 0.1328(6)
H31_2 H 0.1359 0.6871 0.1483
C49_2 C 0.1599(7) 0.7615(10) 0.1077(6)
H32_2 H 0.1860 0.7275 0.1103
Cl3_2 Cl 0.84829(8) 0.8860(3) 0.76331(12)
Cl4_2 Cl 0.88200(10) 0.74040(17) 0.67304(12)
N6_2 N 0.9248(3) 0.9574(5) 0.7070(3)
N20_2 N 0.7370(2) 0.8232(4) 0.0627(2)
N21_2 N 0.6850(2) 0.8281(4) 0.0006(2)
N22_2 N 0.7218(2) 0.9663(4) 0.0255(2)
C18_2 C 0.9541(4) 0.9428(8) 0.6845(3)
H12_2 H 0.9540 0.8858 0.6697
C50_2 C 0.9280(3) 0.9669(7) 0.2319(3)
H33_2 H 0.9088 0.9590 0.2510
C51_2 C 0.9573(3) 0.9010(6) 0.2317(3)
H34_2 H 0.9579 0.8474 0.2491
C52_2 C 0.9855(3) 0.9123(5) 0.2067(3)
C53_2 C 0.9842(3) 0.9957(8) 0.1826(4)
C55_2 C 0.8277(4) 0.9646(6) 0.1531(4)
H37_2 H 0.8446 0.9311 0.1758
C56_2 C 0.8019(3) 0.9155(6) 0.1217(3)
H38_2 H 0.8030 0.8496 0.1209
C57_2 C 0.7740(3) 0.9656(5) 0.0909(3)
C60_2 C 0.7420(3) 0.9159(5) 0.0587(2)
C61_2 C 0.7077(3) 0.7843(5) 0.0324(3)
C63_2 C 0.6768(4) 0.5412(7) 0.0049(4)
C64_2 C 0.6785(4) 0.6319(7) 0.0021(3)
C65_2 C 0.7048(3) 0.6812(5) 0.0348(3)
C66_2 C 0.7275(3) 0.6285(6) 0.0687(4)
H43_2 H 0.7458 0.6588 0.0915
C67_2 C 0.7235(4) 0.5347(7) 0.0689(4)
H44_2 H 0.7395 0.5002 0.0918
Cl10 Cl 0.6677(3) 0.3097(3) 0.97465(17)
N24 N 0.1210(3) 0.5634(5) 0.8925(3)
C62 C 0.1922(2) 0.4161(5) 0.9978(2)
H41 H 0.1597 0.0089 0.9820
H42 H 0.1623 0.1636 0.9784
C68_2 C 0.1455(3) 0.6099(6) 0.9247(3)
H45_2 H 0.1463 0.6758 0.9238
C69_2 C 0.1688(3) 0.5654(5) 0.9580(3)
H46_2 H 0.1866 0.6000 0.9797
C70 C 0.1672(3) 0.4689(5) 0.9612(3)
C71 C 0.1443(4) 0.4225(6) 0.9264(3)
H47 H 0.1462 0.3569 0.9247
C72 C 0.1193(4) 0.4700(6) 0.8950(3)
H48 H 0.0999 0.4369 0.8740
Zn7 Zn 0.08037(6) 0.63620(9) 0.84623(5)
Cl1_2 Cl 0.11888(18) 0.74583(19) 0.82388(15)
Cl2_2 Cl 0.02140(18) 0.6625(4) 0.87257(14)
Zn3_2 Zn 0.2017(2) 0.1505(3) 0.54165(18)
Cl5_2 Cl 0.2623(2) 0.2011(5) 0.5776(3)
Cl6_2 Cl 0.1782(3) 0.1978(3) 0.47698(18)
N1_2 N 0.0663(3) 0.5360(5) 0.7991(3)
N2_2 N 0.0769(2) 0.2918(4) 0.6934(2)
N3_2 N 0.0440(2) 0.1460(5) 0.6746(2)
N4_2 N 0.0218(2) 0.2372(5) 0.7271(2)
N5_2 N 0.1556(3) 0.1732(6) 0.5815(3)
N7_2 N 0.1994(3) 0.0091(5) 0.5357(3)
C1_2 C 0.0909(4) 0.5237(7) 0.7712(4)
H1_2 H 0.1127 0.5675 0.7686
C2_2 C 0.0849(3) 0.4483(6) 0.7461(3)
H2_2 H 0.1035 0.4398 0.7263
C3_2 C 0.0547(3) 0.3848(6) 0.7471(3)
C4_2 C 0.0287(3) 0.3964(7) 0.7752(3)
H3_2 H 0.0063 0.3533 0.7766
C5_2 C 0.0351(4) 0.4725(8) 0.8024(4)
H4_2 H 0.0177 0.4803 0.8232
C6_2 C 0.0507(3) 0.2970(5) 0.7212(3)
C7_2 C 0.0731(3) 0.2150(6) 0.6710(3)
C8_2 C 0.0186(3) 0.1600(5) 0.7014(3)
C9_2 C 0.1238(4) 0.1173(10) 0.5857(4)
H5_2 H 0.1217 0.0622 0.5692
C10_2 C 0.0932(5) 0.1270(13) 0.6103(5)
H6_2 H 0.0689 0.0874 0.6085
C11_2 C 0.1015(3) 0.1999(7) 0.6379(3)
C12_2 C 0.1362(4) 0.2544(9) 0.6410(4)
H7_2 H 0.1430 0.2993 0.6628
C13_2 C 0.1620(4) 0.2416(9) 0.6102(4)
H8_2 H 0.1850 0.2836 0.6098
H35_2 H 0.0055 0.0086 0.1662
Zn1_2 Zn 0.41963(6) 0.13620(9) 0.15377(5)
Cl1_3 Cl 0.38112(18) 0.24583(19) 0.17612(15)
Cl2_3 Cl 0.47860(18) 0.1625(4) 0.12743(14)
N1_3 N 0.4337(3) 0.0360(5) 0.2009(3)
C1_3 C 0.4091(4) 0.0237(7) 0.2288(4)
H1_3 H 0.3873 0.0675 0.2314
N27_2 N 0.3790(3) 0.0634(5) 0.1075(3)
C68_3 C 0.3545(3) 0.1099(6) 0.0753(3)
H45_3 H 0.3537 0.1758 0.0762
C69_3 C 0.3312(3) 0.0654(5) 0.0420(3)
H46_3 H 0.3134 0.1000 0.0203
Cl10_2 Cl 0.3323(3) 0.3097(3) 0.02535(17)
N24_2 N 0.8790(3) 0.5634(5) 0.1075(3)
C62_2 C 0.8078(2) 0.4161(5) 0.0022(2)
H41_2 H 0.8403 0.0089 0.0180
H42_2 H 0.8377 0.1636 0.0216
C68_4 C 0.8545(3) 0.6099(6) 0.0753(3)
H45_4 H 0.8537 0.6758 0.0762
C69_4 C 0.8312(3) 0.5654(5) 0.0420(3)
H46_4 H 0.8134 0.6000 0.0203
C70_2 C 0.8328(3) 0.4689(5) 0.0388(3)
C71_2 C 0.8557(4) 0.4225(6) 0.0736(3)
H47_2 H 0.8538 0.3569 0.0753
C72_2 C 0.8807(4) 0.4700(6) 0.1050(3)
H48_2 H 0.9001 0.4369 0.1260
Zn7_2 Zn 0.91963(6) 0.63620(9) 0.15377(5)
Cl1_4 Cl 0.88112(18) 0.74583(19) 0.17612(15)
Cl2_4 Cl 0.97860(18) 0.6625(4) 0.12743(14)
Zn3_3 Zn 0.7983(2) 0.1505(3) 0.45835(18)
Cl5_3 Cl 0.7377(2) 0.2011(5) 0.4224(3)
Cl6_3 Cl 0.8218(3) 0.1978(3) 0.52302(18)
N1_4 N 0.9337(3) 0.5360(5) 0.2009(3)
N2_3 N 0.9231(2) 0.2918(4) 0.3066(2)
N3_3 N 0.9560(2) 0.1460(5) 0.3254(2)
N4_3 N 0.9782(2) 0.2372(5) 0.2729(2)
N5_3 N 0.8444(3) 0.1732(6) 0.4185(3)
N7_3 N 0.8006(3) 0.0091(5) 0.4643(3)
C1_4 C 0.9091(4) 0.5237(7) 0.2288(4)
H1_4 H 0.8873 0.5675 0.2314
C2_3 C 0.9151(3) 0.4483(6) 0.2539(3)
H2_3 H 0.8965 0.4398 0.2737
C3_3 C 0.9453(3) 0.3848(6) 0.2529(3)
C4_3 C 0.9713(3) 0.3964(7) 0.2248(3)
H3_3 H 0.9937 0.3533 0.2234
C5_3 C 0.9649(4) 0.4725(8) 0.1976(4)
H4_3 H 0.9823 0.4803 0.1768
C6_3 C 0.9493(3) 0.2970(5) 0.2788(3)
C7_3 C 0.9269(3) 0.2150(6) 0.3290(3)
C8_3 C 0.9814(3) 0.1600(5) 0.2986(3)
C9_3 C 0.8762(4) 0.1173(10) 0.4143(4)
H5_3 H 0.8783 0.0622 0.4308
C10_3 C 0.9068(5) 0.1270(13) 0.3897(5)
H6_3 H 0.9311 0.0874 0.3915
C11_3 C 0.8985(3) 0.1999(7) 0.3621(3)
C12_3 C 0.8638(4) 0.2544(9) 0.3590(4)
H7_3 H 0.8570 0.2993 0.3372
C13_3 C 0.8380(4) 0.2416(9) 0.3898(4)
H8_3 H 0.8150 0.2836 0.3902
H35_3 H 0.9945 0.0086 0.8338
Zn2_2 Zn 0.63000(4) 0.37411(8) 0.29813(4)
Cl3_3 Cl 0.65171(8) 0.3860(3) 0.23669(12)
Cl4_3 Cl 0.61800(10) 0.24040(17) 0.32696(12)
Zn3_4 Zn 0.2983(2) 0.6505(3) 0.45835(18)
Cl5_4 Cl 0.2377(2) 0.7011(5) 0.4224(3)
Cl6_4 Cl 0.3218(3) 0.6978(3) 0.52302(18)
Zn5_2 Zn 0.30394(15) 0.34960(12) 0.96038(12)
Cl9_3 Cl 0.2402(2) 0.2968(3) 0.9268(2)
Zn6_2 Zn 0.62904(4) 0.62729(8) 0.79926(4)
Cl11_2 Cl 0.61443(11) 0.75892(16) 0.82935(12)
Cl12_2 Cl 0.65450(10) 0.6149(3) 0.73928(10)
N2_4 N 0.4231(2) 0.7918(4) 0.3066(2)
N3_4 N 0.4560(2) 0.6460(5) 0.3254(2)
N4_4 N 0.4782(2) 0.7372(5) 0.2729(2)
N5_4 N 0.3444(3) 0.6732(6) 0.4185(3)
N6_3 N 0.5752(3) 0.4574(5) 0.2930(3)
N7_4 N 0.3006(3) 0.5091(5) 0.4643(3)
N8_3 N 0.3151(2) 0.1752(4) 0.4997(2)
N9_3 N 0.2806(2) 0.0369(5) 0.4726(2)
N10_3 N 0.2638(3) 0.1767(5) 0.4347(2)
N14_3 N 0.4225(3) 0.2097(5) 0.8079(3)
N15_3 N 0.4567(2) 0.3533(5) 0.8289(2)
N16_3 N 0.4777(2) 0.2676(5) 0.7732(2)
N17_3 N 0.3494(4) 0.3282(6) 0.9214(4)
N18_2 N 0.5769(3) 0.5413(5) 0.7915(2)
N19_2 N 0.6697(2) 0.5557(5) 0.8464(3)
N20_3 N 0.7630(2) 0.3232(4) 0.9373(2)
N21_3 N 0.8150(2) 0.3281(4) 0.9994(2)
N22_3 N 0.7782(2) 0.4663(4) 0.9745(2)
C2_4 C 0.4151(3) 0.9483(6) 0.2539(3)
H2_4 H 0.3965 0.9398 0.2737
C3_4 C 0.4453(3) 0.8848(6) 0.2529(3)
C4_4 C 0.4713(3) 0.8964(7) 0.2248(3)
H3_4 H 0.4937 0.8533 0.2234
C5_4 C 0.4649(4) 0.9725(8) 0.1976(4)
H4_4 H 0.4823 0.9803 0.1768
C6_4 C 0.4493(3) 0.7970(5) 0.2788(3)
C7_4 C 0.4269(3) 0.7150(6) 0.3290(3)
C8_4 C 0.4814(3) 0.6600(5) 0.2986(3)
C9_4 C 0.3762(4) 0.6173(10) 0.4143(4)
H5_4 H 0.3783 0.5622 0.4308
C10_4 C 0.4068(5) 0.6270(13) 0.3897(5)
H6_4 H 0.4311 0.5874 0.3915
C11_4 C 0.3985(3) 0.6999(7) 0.3621(3)
C12_4 C 0.3638(4) 0.7544(9) 0.3590(4)
H7_4 H 0.3570 0.7993 0.3372
C13_4 C 0.3380(4) 0.7416(9) 0.3898(4)
H8_4 H 0.3150 0.7836 0.3902
C14_2 C 0.5747(3) 0.5333(7) 0.2673(3)
H9_2 H 0.5950 0.5409 0.2492
C15_2 C 0.5417(3) 0.6009(6) 0.2692(3)
H10_2 H 0.5400 0.6546 0.2517
C16_2 C 0.5131(3) 0.5900(6) 0.2952(3)
C17_2 C 0.5140(4) 0.5087(7) 0.3186(3)
H11_3 H 0.4936 0.4980 0.3363
C18_3 C 0.5459(4) 0.4428(8) 0.3155(3)
H12_3 H 0.5460 0.3858 0.3303
C19_3 C 0.3215(5) 0.4631(6) 0.4957(4)
H13_3 H 0.3389 0.4954 0.5185
C20_3 C 0.3191(4) 0.3653(5) 0.4971(3)
H14_3 H 0.3340 0.3323 0.5210
C21_3 C 0.2958(3) 0.3195(5) 0.4645(3)
C22_3 C 0.2745(3) 0.3689(6) 0.4317(3)
H15_3 H 0.2567 0.3382 0.4088
C23_3 C 0.2785(4) 0.4649(6) 0.4315(4)
H16_3 H 0.2652 0.4991 0.4072
C24_3 C 0.2903(3) 0.2185(5) 0.4663(2)
C25_3 C 0.3069(3) 0.0811(5) 0.5007(3)
C26_3 C 0.2596(3) 0.0857(6) 0.4409(3)
C29_3 C 0.3312(2) 0.0317(5) 0.5382(2)
C30_3 C 0.3574(4) 0.0817(6) 0.5701(3)
H19_3 H 0.3614 0.1468 0.5682
C31_3 C 0.3775(4) 0.0299(6) 0.6052(3)
H20_3 H 0.3916 0.0635 0.6293
C32_3 C 0.1742(4) 0.0365(8) 0.3454(4)
H21_3 H 0.1540 0.0711 0.3258
C33_3 C 0.2057(4) 0.0847(7) 0.3726(4)
H22_3 H 0.2106 0.1488 0.3683
C34_3 C 0.2298(3) 0.0382(6) 0.4061(3)
C38_3 C 0.4126(4) 0.0508(7) 0.7572(3)
H26_3 H 0.3948 0.0564 0.7779
C39_3 C 0.4451(3) 0.1179(6) 0.7522(3)
C40_3 C 0.4711(3) 0.1021(6) 0.7235(3)
H27_3 H 0.4931 0.1452 0.7209
C41_3 C 0.4654(4) 0.0229(6) 0.6978(3)
H28_3 H 0.4846 0.0105 0.6790
C42_3 C 0.4491(3) 0.2004(6) 0.7796(3)
C43_3 C 0.4292(3) 0.2883(6) 0.8320(3)
C44_3 C 0.4800(3) 0.3375(6) 0.7983(3)
C45_3 C 0.3853(6) 0.3830(12) 0.9238(5)
H29_3 H 0.3945 0.4261 0.9460
C46_3 C 0.4060(5) 0.3695(11) 0.8919(5)
H30_3 H 0.4274 0.4146 0.8896
C47_3 C 0.4013(3) 0.3004(6) 0.8617(3)
C48_3 C 0.3677(6) 0.2436(9) 0.8672(6)
H31_3 H 0.3641 0.1871 0.8517
C49_3 C 0.3401(7) 0.2615(10) 0.8923(6)
H32_3 H 0.3140 0.2275 0.8897
C50_3 C 0.5720(3) 0.4669(7) 0.7681(3)
H33_3 H 0.5912 0.4590 0.7490
C51_3 C 0.5427(3) 0.4010(6) 0.7683(3)
H34_3 H 0.5421 0.3474 0.7509
C52_3 C 0.5145(3) 0.4123(5) 0.7933(3)
C53_3 C 0.5158(3) 0.4957(8) 0.8174(4)
H35_4 H 0.4945 0.5086 0.8338
C54_2 C 0.5482(4) 0.5556(7) 0.8161(4)
H36_2 H 0.5505 0.6097 0.8334
C55_3 C 0.6723(4) 0.4646(6) 0.8469(4)
H37_3 H 0.6554 0.4311 0.8242
C56_3 C 0.6981(3) 0.4155(6) 0.8783(3)
H38_3 H 0.6970 0.3496 0.8791
C57_3 C 0.7260(3) 0.4656(5) 0.9091(3)
C58_2 C 0.7243(3) 0.5585(5) 0.9084(3)
H39_2 H 0.7426 0.5930 0.9297
C59_2 C 0.6965(3) 0.6043(6) 0.8772(3)
H40_2 H 0.6958 0.6703 0.8770
C60_3 C 0.7580(3) 0.4159(5) 0.9413(2)
C61_3 C 0.7923(3) 0.2843(5) 0.9676(3)
C63_3 C 0.8232(4) 0.0412(7) 0.9951(4)
C64_3 C 0.8215(4) 0.1319(7) 0.9979(3)
C65_3 C 0.7952(3) 0.1812(5) 0.9652(3)
C66_3 C 0.7725(3) 0.1285(6) 0.9313(4)
H43_3 H 0.7542 0.1588 0.9085
C67_3 C 0.7765(4) 0.0347(7) 0.9311(4)
H44_3 H 0.7605 0.0002 0.9082
N25_2 N 0.6707(3) 0.4438(5) 0.3451(3)
N26_2 N 0.3023(3) 0.4898(5) 0.9621(3)
Zn4_3 Zn 0.41667(6) 0.86376(8) 0.65497(4)
Cl7_3 Cl 0.3789(2) 0.7542(2) 0.67624(15)
Cl8_3 Cl 0.47535(16) 0.8316(3) 0.63051(10)
N11_3 N 0.3787(3) 0.9397(5) 0.6077(2)
N12_2 N 0.1707(3) 0.9438(5) 0.3451(3)
N13_3 N 0.4322(3) 0.9632(5) 0.7001(2)
N23_2 N 0.8023(3) 0.9898(5) 0.9621(3)
C27_3 C 0.3531(3) 0.8940(5) 0.5770(2)
H17_3 H 0.3506 0.8287 0.5797
C28_3 C 0.3295(2) 0.9379(5) 0.5407(2)
H18_3 H 0.3129 0.9025 0.5185
C35_3 C 0.2240(3) 0.9398(5) 0.4081(3)
H23_3 H 0.2401 0.9038 0.4304
C36_3 C 0.1942(3) 0.8991(5) 0.3765(3)
H24_3 H 0.1905 0.8338 0.3777
C37_3 C 0.4097(4) 0.9772(8) 0.7287(4)
H25_3 H 0.3884 0.9318 0.7308
Zn8_2 Zn 0.13000(4) 0.87411(8) 0.29813(4)
Zn9_2 Zn 0.80394(15) 0.84960(12) 0.96038(12)
Cl3_4 Cl 0.15171(8) 0.8860(3) 0.23669(12)
Cl4_4 Cl 0.11800(10) 0.74040(17) 0.32696(12)
N6_4 N 0.0752(3) 0.9574(5) 0.2930(3)
N20_4 N 0.2630(2) 0.8232(4) 0.9373(2)
N21_4 N 0.3150(2) 0.8281(4) 0.9994(2)
N22_4 N 0.2782(2) 0.9663(4) 0.9745(2)
C18_4 C 0.0459(4) 0.9428(8) 0.3155(3)
H12_4 H 0.0460 0.8858 0.3303
C50_4 C 0.0720(3) 0.9669(7) 0.7681(3)
H33_4 H 0.0912 0.9590 0.7490
C51_4 C 0.0427(3) 0.9010(6) 0.7683(3)
H34_4 H 0.0421 0.8474 0.7509
C52_4 C 0.0145(3) 0.9123(5) 0.7933(3)
C53_4 C 0.0158(3) 0.9957(8) 0.8174(4)
C55_4 C 0.1723(4) 0.9646(6) 0.8469(4)
H37_4 H 0.1554 0.9311 0.8242
C56_4 C 0.1981(3) 0.9155(6) 0.8783(3)
H38_4 H 0.1970 0.8496 0.8791
C57_4 C 0.2260(3) 0.9656(5) 0.9091(3)
C60_4 C 0.2580(3) 0.9159(5) 0.9413(2)
C61_4 C 0.2923(3) 0.7843(5) 0.9676(3)
C63_4 C 0.3232(4) 0.5412(7) 0.9951(4)
C64_4 C 0.3215(4) 0.6319(7) 0.9979(3)
C65_4 C 0.2952(3) 0.6812(5) 0.9652(3)
C66_4 C 0.2725(3) 0.6285(6) 0.9313(4)
H43_4 H 0.2542 0.6588 0.9085
C67_4 C 0.2765(4) 0.5347(7) 0.9311(4)
H44_4 H 0.2605 0.5002 0.9082
Zn4_4 Zn 0.91667(6) 0.36376(8) 0.65497(4)
Cl7_4 Cl 0.8789(2) 0.2542(2) 0.67624(15)
Cl8_4 Cl 0.97535(16) 0.3316(3) 0.63051(10)
Cl9_4 Cl 0.7402(2) 0.7968(3) 0.9268(2)
N8_4 N 0.8151(2) 0.6752(4) 0.4997(2)
N9_4 N 0.7806(2) 0.5369(5) 0.4726(2)
N10_4 N 0.7638(3) 0.6767(5) 0.4347(2)
N11_4 N 0.8787(3) 0.4397(5) 0.6077(2)
N13_4 N 0.9322(3) 0.4632(5) 0.7001(2)
N14_4 N 0.9225(3) 0.7097(5) 0.8079(3)
N15_4 N 0.9567(2) 0.8533(5) 0.8289(2)
N16_4 N 0.9777(2) 0.7676(5) 0.7732(2)
N17_4 N 0.8494(4) 0.8282(6) 0.9214(4)
H11_4 H 0.9936 0.9980 0.3363
C19_4 C 0.8215(5) 0.9631(6) 0.4957(4)
H13_4 H 0.8389 0.9954 0.5185
C20_4 C 0.8191(4) 0.8653(5) 0.4971(3)
H14_4 H 0.8340 0.8323 0.5210
C21_4 C 0.7958(3) 0.8195(5) 0.4645(3)
C22_4 C 0.7745(3) 0.8689(6) 0.4317(3)
H15_4 H 0.7567 0.8382 0.4088
C23_4 C 0.7785(4) 0.9649(6) 0.4315(4)
H16_4 H 0.7652 0.9991 0.4072
C24_4 C 0.7903(3) 0.7185(5) 0.4663(2)
C25_4 C 0.8069(3) 0.5811(5) 0.5007(3)
C26_4 C 0.7596(3) 0.5857(6) 0.4409(3)
C27_4 C 0.8531(3) 0.3940(5) 0.5770(2)
H17_4 H 0.8506 0.3287 0.5797
C28_4 C 0.8295(2) 0.4379(5) 0.5407(2)
H18_4 H 0.8129 0.4025 0.5185
C29_4 C 0.8312(2) 0.5317(5) 0.5382(2)
C30_4 C 0.8574(4) 0.5817(6) 0.5701(3)
H19_4 H 0.8614 0.6468 0.5682
C31_4 C 0.8775(4) 0.5299(6) 0.6052(3)
H20_4 H 0.8916 0.5635 0.6293
C32_4 C 0.6742(4) 0.5365(8) 0.3454(4)
H21_4 H 0.6540 0.5711 0.3258
C33_4 C 0.7057(4) 0.5847(7) 0.3726(4)
H22_4 H 0.7106 0.6488 0.3683
C34_4 C 0.7298(3) 0.5382(6) 0.4061(3)
C35_4 C 0.7240(3) 0.4398(5) 0.4081(3)
H23_4 H 0.7401 0.4038 0.4304
C36_4 C 0.6942(3) 0.3991(5) 0.3765(3)
H24_4 H 0.6905 0.3338 0.3777
C37_4 C 0.9097(4) 0.4772(8) 0.7287(4)
H25_4 H 0.8884 0.4318 0.7308
C38_4 C 0.9126(4) 0.5508(7) 0.7572(3)
H26_4 H 0.8948 0.5564 0.7779
C39_4 C 0.9451(3) 0.6179(6) 0.7522(3)
C40_4 C 0.9711(3) 0.6021(6) 0.7235(3)
H27_4 H 0.9931 0.6452 0.7209
C41_4 C 0.9654(4) 0.5229(6) 0.6978(3)
H28_4 H 0.9846 0.5105 0.6790
C42_4 C 0.9491(3) 0.7004(6) 0.7796(3)
C43_4 C 0.9292(3) 0.7883(6) 0.8320(3)
C44_4 C 0.9800(3) 0.8375(6) 0.7983(3)
C45_4 C 0.8853(6) 0.8830(12) 0.9238(5)
H29_4 H 0.8945 0.9261 0.9460
C46_4 C 0.9060(5) 0.8695(11) 0.8919(5)
H30_4 H 0.9274 0.9146 0.8896
C47_4 C 0.9013(3) 0.8004(6) 0.8617(3)
C48_4 C 0.8677(6) 0.7436(9) 0.8672(6)
H31_4 H 0.8641 0.6871 0.8517
C49_4 C 0.8401(7) 0.7615(10) 0.8923(6)
H32_4 H 0.8140 0.7275 0.8897
Cl10_3 Cl 0.1677(3) 0.8097(3) 0.97465(17)
Zn6_3 Zn 0.87096(4) 0.12729(8) 0.20074(4)
Cl11_3 Cl 0.88557(11) 0.25892(16) 0.17065(12)
Cl12_3 Cl 0.84550(10) 0.1149(3) 0.26072(10)
N18_3 N 0.9231(3) 0.0413(5) 0.2085(2)
N19_3 N 0.8303(2) 0.0557(5) 0.1536(3)
C14_3 C 0.9253(3) 0.0333(7) 0.7327(3)
H9_3 H 0.9050 0.0409 0.7508
C15_3 C 0.9583(3) 0.1009(6) 0.7308(3)
H10_3 H 0.9600 0.1546 0.7483
C16_3 C 0.9869(3) 0.0900(6) 0.7048(3)
C17_3 C 0.9860(4) 0.0087(7) 0.6814(3)
C54_3 C 0.9518(4) 0.0556(7) 0.1839(4)
H36_3 H 0.9495 0.1097 0.1666
C58_3 C 0.7757(3) 0.0585(5) 0.0916(3)
H39_3 H 0.7574 0.0930 0.0703
C59_3 C 0.8035(3) 0.1043(6) 0.1228(3)
H40_3 H 0.8042 0.1703 0.1230
C62_3 C 0.6922(2) 0.9161(5) 0.9978(2)
H41_3 H 0.6597 0.5089 0.9820
H42_3 H 0.6623 0.6636 0.9784
C70_3 C 0.6672(3) 0.9689(5) 0.9612(3)
C71_3 C 0.6443(4) 0.9225(6) 0.9264(3)
H47_3 H 0.6462 0.8569 0.9247
C72_3 C 0.6193(4) 0.9700(6) 0.8950(3)
H48_3 H 0.5999 0.9369 0.8740
Zn6_4 Zn 0.12904(4) 0.12729(8) 0.79926(4)
Cl11_4 Cl 0.11443(11) 0.25892(16) 0.82935(12)
Cl12_4 Cl 0.15450(10) 0.1149(3) 0.73928(10)
N18_4 N 0.0769(3) 0.0413(5) 0.7915(2)
N19_4 N 0.1697(2) 0.0557(5) 0.8464(3)
C14_4 C 0.0747(3) 0.0333(7) 0.2673(3)
H9_4 H 0.0950 0.0409 0.2492
C15_4 C 0.0417(3) 0.1009(6) 0.2692(3)
H10_4 H 0.0400 0.1546 0.2517
C16_4 C 0.0131(3) 0.0900(6) 0.2952(3)
C17_4 C 0.0140(4) 0.0087(7) 0.3186(3)
C54_4 C 0.0482(4) 0.0556(7) 0.8161(4)
H36_4 H 0.0505 0.1097 0.8334
C58_4 C 0.2243(3) 0.0585(5) 0.9084(3)
H39_4 H 0.2426 0.0930 0.9297
C59_4 C 0.1965(3) 0.1043(6) 0.8772(3)
H40_4 H 0.1958 0.1703 0.8770
C62_4 C 0.3078(2) 0.9161(5) 0.0022(2)
H41_4 H 0.3403 0.5089 0.0180
H42_4 H 0.3377 0.6636 0.0216
C70_4 C 0.3328(3) 0.9689(5) 0.0388(3)
C71_4 C 0.3557(4) 0.9225(6) 0.0736(3)
H47_4 H 0.3538 0.8569 0.0753
C72_4 C 0.3807(4) 0.9700(6) 0.1050(3)
H48_4 H 0.4001 0.9369 0.1260
Cl10_4 Cl 0.8323(3) 0.8097(3) 0.02535(17)
loop_
_geom_bond_atom_site_label_1
_geom_bond_atom_site_label_2
_geom_bond_site_symmetry_1
_geom_bond_site_symmetry_2
Zn1 Cl1 1_555 1_555
Cl2 Zn1 1_555 1_555
N1 Zn1 1_555 1_555
C1 N1 1_555 1_555
H1 C1 1_555 1_555
N27 Zn1 1_555 1_555
N27 C68 1_555 1_555
C68 H45 1_555 1_555
C69 C68 1_555 1_555
H46 C69 1_555 1_555
Zn2 Cl3 1_555 1_555
Cl4 Zn2 1_555 1_555
Zn3 Cl5 1_555 1_555
Cl6 Zn3 1_555 1_555
Zn5 Cl9 1_555 1_555
Zn6 Cl11 1_555 1_555
Cl12 Zn6 1_555 1_555
N2 C6 1_555 1_555
N3 C7 1_555 1_555
N4 C6 1_555 1_555
N5 Zn3 1_555 1_555
N6 Zn2 1_555 1_555
N7 Zn3 1_555 1_555
N8 C24 1_555 1_555
N9 C25 1_555 1_555
N10 C24 1_555 1_555
N14 C42 1_555 1_555
N15 C43 1_555 1_555
N16 C42 1_555 1_555
N17 Zn5 1_555 1_555
N18 Zn6 1_555 1_555
N19 Zn6 1_555 1_555
N20 C60 1_555 1_555
N21 C61 1_555 1_555
N22 C60 1_555 1_555
H2 C2 1_555 1_555
C3 C2 1_555 1_555
C4 C3 1_555 1_555
H3 C4 1_555 1_555
H4 C5 1_555 1_555
C6 C3 1_555 1_555
C7 N2 1_555 1_555
C8 N3 1_555 1_555
C9 N5 1_555 1_555
H5 C9 1_555 1_555
C10 C9 1_555 1_555
H6 C10 1_555 1_555
C11 C7 1_555 1_555
C12 C11 1_555 1_555
H7 C12 1_555 1_555
C13 N5 1_555 1_555
H8 C13 1_555 1_555
C14 N6 1_555 1_555
H9 C14 1_555 1_555
C15 C14 1_555 1_555
H10 C15 1_555 1_555
C16 C8 1_555 1_555
C17 C16 1_555 1_555
H11 C17 1_555 1_555
C18 N6 1_555 1_555
H12 C18 1_555 1_555
C19 N7 1_555 1_555
H13 C19 1_555 1_555
C20 C19 1_555 1_555
H14 C20 1_555 1_555
C21 C20 1_555 1_555
C22 C21 1_555 1_555
H15 C22 1_555 1_555
C23 N7 1_555 1_555
H16 C23 1_555 1_555
C24 C21 1_555 1_555
C25 N8 1_555 1_555
C26 N9 1_555 1_555
C29 C25 1_555 1_555
C30 C29 1_555 1_555
H19 C30 1_555 1_555
H20 C31 1_555 1_555
C32 H21 1_555 1_555
C33 C32 1_555 1_555
H22 C33 1_555 1_555
C34 C26 1_555 1_555
H26 C38 1_555 1_555
C39 C38 1_555 1_555
C40 C39 1_555 1_555
H27 C40 1_555 1_555
H28 C41 1_555 1_555
C42 C39 1_555 1_555
C43 N14 1_555 1_555
C44 N15 1_555 1_555
C45 N17 1_555 1_555
H29 C45 1_555 1_555
C46 C45 1_555 1_555
H30 C46 1_555 1_555
C47 C43 1_555 1_555
C48 C47 1_555 1_555
H31 C48 1_555 1_555
C49 N17 1_555 1_555
H32 C49 1_555 1_555
C50 N18 1_555 1_555
H33 C50 1_555 1_555
C51 C50 1_555 1_555
H34 C51 1_555 1_555
C52 C44 1_555 1_555
C53 C52 1_555 1_555
H35 C53 1_555 1_555
C54 N18 1_555 1_555
H36 C54 1_555 1_555
C55 N19 1_555 1_555
H37 C55 1_555 1_555
C56 C55 1_555 1_555
H38 C56 1_555 1_555
C57 C56 1_555 1_555
C58 C57 1_555 1_555
H39 C58 1_555 1_555
C59 N19 1_555 1_555
H40 C59 1_555 1_555
C60 C57 1_555 1_555
C61 N20 1_555 1_555
C64 C63 1_555 1_555
C65 C61 1_555 1_555
C66 C65 1_555 1_555
H43 C66 1_555 1_555
H44 C67 1_555 1_555
N25 Zn2 1_555 1_555
N26 Zn5 1_555 1_555
N4 C8 1_555 1_555
N10 C26 1_555 1_555
N16 C44 1_555 1_555
C4 C5 1_555 1_555
C10 C11 1_555 1_555
C12 C13 1_555 1_555
C15 C16 1_555 1_555
C17 C18 1_555 1_555
C22 C23 1_555 1_555
C30 C31 1_555 1_555
C33 C34 1_555 1_555
C40 C41 1_555 1_555
C46 C47 1_555 1_555
C48 C49 1_555 1_555
C51 C52 1_555 1_555
C53 C54 1_555 1_555
C58 C59 1_555 1_555
C64 C65 1_555 1_555
C66 C67 1_555 1_555
Zn4 Cl7 1_555 1_555
Cl8 Zn4 1_555 1_555
N11 Zn4 1_555 1_555
N13 Zn4 1_555 1_555
C27 N11 1_555 1_555
H17 C27 1_555 1_555
C28 C27 1_555 1_555
H18 C28 1_555 1_555
H23 C35 1_555 1_555
C36 N12 1_555 1_555
H24 C36 1_555 1_555
C37 N13 1_555 1_555
H25 C37 1_555 1_555
Zn8 N12 1_555 1_555
Zn9 N23 1_555 1_555
C35 C36 1_555 1_555
Zn4_2 Cl7_2 1_555 1_555
Cl8_2 Zn4_2 1_555 1_555
Zn9 Cl9_2 1_555 1_555
N8_2 C24_2 1_555 1_555
N9_2 C25_2 1_555 1_555
N10_2 C24_2 1_555 1_555
N11_2 Zn4_2 1_555 1_555
N25 C32_2 1_555 1_555
N13_2 Zn4_2 1_555 1_555
N14_2 C42_2 1_555 1_555
N15_2 C43_2 1_555 1_555
N16_2 C42_2 1_555 1_555
N17_2 Zn9 1_555 1_555
H13_2 C19_2 1_555 1_555
C20_2 C19_2 1_555 1_555
H14_2 C20_2 1_555 1_555
C21_2 C20_2 1_555 1_555
C22_2 C21_2 1_555 1_555
H15_2 C22_2 1_555 1_555
H16_2 C23_2 1_555 1_555
C24_2 C21_2 1_555 1_555
C25_2 N8_2 1_555 1_555
C26_2 N9_2 1_555 1_555
C27_2 N11_2 1_555 1_555
H17_2 C27_2 1_555 1_555
C28_2 C27_2 1_555 1_555
H18_2 C28_2 1_555 1_555
C29_2 C25_2 1_555 1_555
C30_2 C29_2 1_555 1_555
H19_2 C30_2 1_555 1_555
C31_2 N11_2 1_555 1_555
H20_2 C31_2 1_555 1_555
C32_2 H21_2 1_555 1_555
C33_2 C32_2 1_555 1_555
H22_2 C33_2 1_555 1_555
C34_2 C26_2 1_555 1_555
C35_2 C34_2 1_555 1_555
H23_2 C35_2 1_555 1_555
C36_2 N25 1_555 1_555
H24_2 C36_2 1_555 1_555
C37_2 N13_2 1_555 1_555
H25_2 C37_2 1_555 1_555
C38_2 C37_2 1_555 1_555
H26_2 C38_2 1_555 1_555
C39_2 C38_2 1_555 1_555
C40_2 C39_2 1_555 1_555
H27_2 C40_2 1_555 1_555
C41_2 N13_2 1_555 1_555
H28_2 C41_2 1_555 1_555
C42_2 C39_2 1_555 1_555
C43_2 N14_2 1_555 1_555
C44_2 N15_2 1_555 1_555
C45_2 N17_2 1_555 1_555
H29_2 C45_2 1_555 1_555
C46_2 C45_2 1_555 1_555
H30_2 C46_2 1_555 1_555
C47_2 C43_2 1_555 1_555
C48_2 C47_2 1_555 1_555
H31_2 C48_2 1_555 1_555
C49_2 N17_2 1_555 1_555
H32_2 C49_2 1_555 1_555
N10_2 C26_2 1_555 1_555
N16_2 C44_2 1_555 1_555
C22_2 C23_2 1_555 1_555
C28_2 C29_2 1_555 1_555
C30_2 C31_2 1_555 1_555
C33_2 C34_2 1_555 1_555
C35_2 C36_2 1_555 1_555
C40_2 C41_2 1_555 1_555
C46_2 C47_2 1_555 1_555
C48_2 C49_2 1_555 1_555
Zn8 Cl3_2 1_555 1_555
Cl4_2 Zn8 1_555 1_555
N6_2 Zn8 1_555 1_555
N20_2 C60_2 1_555 1_555
N21_2 C61_2 1_555 1_555
N22_2 C60_2 1_555 1_555
N26 C63_2 1_555 1_555
C18_2 N6_2 1_555 1_555
H12_2 C18_2 1_555 1_555
H33_2 C50_2 1_555 1_555
C51_2 C50_2 1_555 1_555
H34_2 C51_2 1_555 1_555
C53_2 C52_2 1_555 1_555
H37_2 C55_2 1_555 1_555
C56_2 C55_2 1_555 1_555
H38_2 C56_2 1_555 1_555
C57_2 C56_2 1_555 1_555
C60_2 C57_2 1_555 1_555
C61_2 N20_2 1_555 1_555
C64_2 C63_2 1_555 1_555
C65_2 C61_2 1_555 1_555
C66_2 C65_2 1_555 1_555
H43_2 C66_2 1_555 1_555
C67_2 N26 1_555 1_555
H44_2 C67_2 1_555 1_555
C51_2 C52_2 1_555 1_555
C64_2 C65_2 1_555 1_555
C66_2 C67_2 1_555 1_555
N24 C68_2 1_555 1_555
C68_2 H45_2 1_555 1_555
C69_2 C68_2 1_555 1_555
H46_2 C69_2 1_555 1_555
C70 C62 1_555 1_555
C71 C70 1_555 1_555
H47 C71 1_555 1_555
C72 N24 1_555 1_555
H48 C72 1_555 1_555
Zn7 N24 1_555 1_555
C69_2 C70 1_555 1_555
C71 C72 1_555 1_555
Zn7 Cl1_2 1_555 1_555
Cl2_2 Zn7 1_555 1_555
Zn3_2 Cl5_2 1_555 1_555
Cl6_2 Zn3_2 1_555 1_555
N1_2 Zn7 1_555 1_555
N2_2 C6_2 1_555 1_555
N3_2 C7_2 1_555 1_555
N4_2 C6_2 1_555 1_555
N5_2 Zn3_2 1_555 1_555
N7_2 Zn3_2 1_555 1_555
C1_2 N1_2 1_555 1_555
H1_2 C1_2 1_555 1_555
C2_2 C1_2 1_555 1_555
H2_2 C2_2 1_555 1_555
C3_2 C2_2 1_555 1_555
C4_2 C3_2 1_555 1_555
H3_2 C4_2 1_555 1_555
C5_2 N1_2 1_555 1_555
H4_2 C5_2 1_555 1_555
C6_2 C3_2 1_555 1_555
C7_2 N2_2 1_555 1_555
C8_2 N3_2 1_555 1_555
C9_2 N5_2 1_555 1_555
H5_2 C9_2 1_555 1_555
C10_2 C9_2 1_555 1_555
H6_2 C10_2 1_555 1_555
C11_2 C7_2 1_555 1_555
C12_2 C11_2 1_555 1_555
H7_2 C12_2 1_555 1_555
C13_2 N5_2 1_555 1_555
H8_2 C13_2 1_555 1_555
N4_2 C8_2 1_555 1_555
C4_2 C5_2 1_555 1_555
C10_2 C11_2 1_555 1_555
C12_2 C13_2 1_555 1_555
Zn1_2 Cl1_3 1_555 1_555
Cl2_3 Zn1_2 1_555 1_555
N1_3 Zn1_2 1_555 1_555
C1_3 N1_3 1_555 1_555
H1_3 C1_3 1_555 1_555
N27_2 Zn1_2 1_555 1_555
N27_2 C68_3 1_555 1_555
C68_3 H45_3 1_555 1_555
C69_3 C68_3 1_555 1_555
H46_3 C69_3 1_555 1_555
N24_2 C68_4 1_555 1_555
C68_4 H45_4 1_555 1_555
C69_4 C68_4 1_555 1_555
H46_4 C69_4 1_555 1_555
C70_2 C62_2 1_555 1_555
C71_2 C70_2 1_555 1_555
H47_2 C71_2 1_555 1_555
C72_2 N24_2 1_555 1_555
H48_2 C72_2 1_555 1_555
Zn7_2 N24_2 1_555 1_555
C69_4 C70_2 1_555 1_555
C71_2 C72_2 1_555 1_555
Zn7_2 Cl1_4 1_555 1_555
Cl2_4 Zn7_2 1_555 1_555
Zn3_3 Cl5_3 1_555 1_555
Cl6_3 Zn3_3 1_555 1_555
N1_4 Zn7_2 1_555 1_555
N2_3 C6_3 1_555 1_555
N3_3 C7_3 1_555 1_555
N4_3 C6_3 1_555 1_555
N5_3 Zn3_3 1_555 1_555
N7_3 Zn3_3 1_555 1_555
C1_4 N1_4 1_555 1_555
H1_4 C1_4 1_555 1_555
C2_3 C1_4 1_555 1_555
H2_3 C2_3 1_555 1_555
C3_3 C2_3 1_555 1_555
C4_3 C3_3 1_555 1_555
H3_3 C4_3 1_555 1_555
C5_3 N1_4 1_555 1_555
H4_3 C5_3 1_555 1_555
C6_3 C3_3 1_555 1_555
C7_3 N2_3 1_555 1_555
C8_3 N3_3 1_555 1_555
C9_3 N5_3 1_555 1_555
H5_3 C9_3 1_555 1_555
C10_3 C9_3 1_555 1_555
H6_3 C10_3 1_555 1_555
C11_3 C7_3 1_555 1_555
C12_3 C11_3 1_555 1_555
H7_3 C12_3 1_555 1_555
C13_3 N5_3 1_555 1_555
H8_3 C13_3 1_555 1_555
N4_3 C8_3 1_555 1_555
C4_3 C5_3 1_555 1_555
C10_3 C11_3 1_555 1_555
C12_3 C13_3 1_555 1_555
Zn2_2 Cl3_3 1_555 1_555
Cl4_3 Zn2_2 1_555 1_555
Zn3_4 Cl5_4 1_555 1_555
Cl6_4 Zn3_4 1_555 1_555
Zn5_2 Cl9_3 1_555 1_555
Zn6_2 Cl11_2 1_555 1_555
Cl12_2 Zn6_2 1_555 1_555
N2_4 C6_4 1_555 1_555
N3_4 C7_4 1_555 1_555
N4_4 C6_4 1_555 1_555
N5_4 Zn3_4 1_555 1_555
N6_3 Zn2_2 1_555 1_555
N7_4 Zn3_4 1_555 1_555
N8_3 C24_3 1_555 1_555
N9_3 C25_3 1_555 1_555
N10_3 C24_3 1_555 1_555
N14_3 C42_3 1_555 1_555
N15_3 C43_3 1_555 1_555
N16_3 C42_3 1_555 1_555
N17_3 Zn5_2 1_555 1_555
N18_2 Zn6_2 1_555 1_555
N19_2 Zn6_2 1_555 1_555
N20_3 C60_3 1_555 1_555
N21_3 C61_3 1_555 1_555
N22_3 C60_3 1_555 1_555
H2_4 C2_4 1_555 1_555
C3_4 C2_4 1_555 1_555
C4_4 C3_4 1_555 1_555
H3_4 C4_4 1_555 1_555
H4_4 C5_4 1_555 1_555
C6_4 C3_4 1_555 1_555
C7_4 N2_4 1_555 1_555
C8_4 N3_4 1_555 1_555
C9_4 N5_4 1_555 1_555
H5_4 C9_4 1_555 1_555
C10_4 C9_4 1_555 1_555
H6_4 C10_4 1_555 1_555
C11_4 C7_4 1_555 1_555
C12_4 C11_4 1_555 1_555
H7_4 C12_4 1_555 1_555
C13_4 N5_4 1_555 1_555
H8_4 C13_4 1_555 1_555
C14_2 N6_3 1_555 1_555
H9_2 C14_2 1_555 1_555
C15_2 C14_2 1_555 1_555
H10_2 C15_2 1_555 1_555
C16_2 C8_4 1_555 1_555
C17_2 C16_2 1_555 1_555
H11_3 C17_2 1_555 1_555
C18_3 N6_3 1_555 1_555
H12_3 C18_3 1_555 1_555
C19_3 N7_4 1_555 1_555
H13_3 C19_3 1_555 1_555
C20_3 C19_3 1_555 1_555
H14_3 C20_3 1_555 1_555
C21_3 C20_3 1_555 1_555
C22_3 C21_3 1_555 1_555
H15_3 C22_3 1_555 1_555
C23_3 N7_4 1_555 1_555
H16_3 C23_3 1_555 1_555
C24_3 C21_3 1_555 1_555
C25_3 N8_3 1_555 1_555
C26_3 N9_3 1_555 1_555
C29_3 C25_3 1_555 1_555
C30_3 C29_3 1_555 1_555
H19_3 C30_3 1_555 1_555
H20_3 C31_3 1_555 1_555
C32_3 H21_3 1_555 1_555
C33_3 C32_3 1_555 1_555
H22_3 C33_3 1_555 1_555
C34_3 C26_3 1_555 1_555
H26_3 C38_3 1_555 1_555
C39_3 C38_3 1_555 1_555
C40_3 C39_3 1_555 1_555
H27_3 C40_3 1_555 1_555
H28_3 C41_3 1_555 1_555
C42_3 C39_3 1_555 1_555
C43_3 N14_3 1_555 1_555
C44_3 N15_3 1_555 1_555
C45_3 N17_3 1_555 1_555
H29_3 C45_3 1_555 1_555
C46_3 C45_3 1_555 1_555
H30_3 C46_3 1_555 1_555
C47_3 C43_3 1_555 1_555
C48_3 C47_3 1_555 1_555
H31_3 C48_3 1_555 1_555
C49_3 N17_3 1_555 1_555
H32_3 C49_3 1_555 1_555
C50_3 N18_2 1_555 1_555
H33_3 C50_3 1_555 1_555
C51_3 C50_3 1_555 1_555
H34_3 C51_3 1_555 1_555
C52_3 C44_3 1_555 1_555
C53_3 C52_3 1_555 1_555
H35_4 C53_3 1_555 1_555
C54_2 N18_2 1_555 1_555
H36_2 C54_2 1_555 1_555
C55_3 N19_2 1_555 1_555
H37_3 C55_3 1_555 1_555
C56_3 C55_3 1_555 1_555
H38_3 C56_3 1_555 1_555
C57_3 C56_3 1_555 1_555
C58_2 C57_3 1_555 1_555
H39_2 C58_2 1_555 1_555
C59_2 N19_2 1_555 1_555
H40_2 C59_2 1_555 1_555
C60_3 C57_3 1_555 1_555
C61_3 N20_3 1_555 1_555
C64_3 C63_3 1_555 1_555
C65_3 C61_3 1_555 1_555
C66_3 C65_3 1_555 1_555
H43_3 C66_3 1_555 1_555
H44_3 C67_3 1_555 1_555
N25_2 Zn2_2 1_555 1_555
N26_2 Zn5_2 1_555 1_555
N4_4 C8_4 1_555 1_555
N10_3 C26_3 1_555 1_555
N16_3 C44_3 1_555 1_555
C4_4 C5_4 1_555 1_555
C10_4 C11_4 1_555 1_555
C12_4 C13_4 1_555 1_555
C15_2 C16_2 1_555 1_555
C17_2 C18_3 1_555 1_555
C22_3 C23_3 1_555 1_555
C30_3 C31_3 1_555 1_555
C33_3 C34_3 1_555 1_555
C40_3 C41_3 1_555 1_555
C46_3 C47_3 1_555 1_555
C48_3 C49_3 1_555 1_555
C51_3 C52_3 1_555 1_555
C53_3 C54_2 1_555 1_555
C58_2 C59_2 1_555 1_555
C64_3 C65_3 1_555 1_555
C66_3 C67_3 1_555 1_555
Zn4_3 Cl7_3 1_555 1_555
Cl8_3 Zn4_3 1_555 1_555
N11_3 Zn4_3 1_555 1_555
N13_3 Zn4_3 1_555 1_555
C27_3 N11_3 1_555 1_555
H17_3 C27_3 1_555 1_555
C28_3 C27_3 1_555 1_555
H18_3 C28_3 1_555 1_555
H23_3 C35_3 1_555 1_555
C36_3 N12_2 1_555 1_555
H24_3 C36_3 1_555 1_555
C37_3 N13_3 1_555 1_555
H25_3 C37_3 1_555 1_555
Zn8_2 N12_2 1_555 1_555
Zn9_2 N23_2 1_555 1_555
C35_3 C36_3 1_555 1_555
Zn8_2 Cl3_4 1_555 1_555
Cl4_4 Zn8_2 1_555 1_555
N6_4 Zn8_2 1_555 1_555
N20_4 C60_4 1_555 1_555
N21_4 C61_4 1_555 1_555
N22_4 C60_4 1_555 1_555
N26_2 C63_4 1_555 1_555
C18_4 N6_4 1_555 1_555
H12_4 C18_4 1_555 1_555
H33_4 C50_4 1_555 1_555
C51_4 C50_4 1_555 1_555
H34_4 C51_4 1_555 1_555
C53_4 C52_4 1_555 1_555
H37_4 C55_4 1_555 1_555
C56_4 C55_4 1_555 1_555
H38_4 C56_4 1_555 1_555
C57_4 C56_4 1_555 1_555
C60_4 C57_4 1_555 1_555
C61_4 N20_4 1_555 1_555
C64_4 C63_4 1_555 1_555
C65_4 C61_4 1_555 1_555
C66_4 C65_4 1_555 1_555
H43_4 C66_4 1_555 1_555
C67_4 N26_2 1_555 1_555
H44_4 C67_4 1_555 1_555
C51_4 C52_4 1_555 1_555
C64_4 C65_4 1_555 1_555
C66_4 C67_4 1_555 1_555
Zn4_4 Cl7_4 1_555 1_555
Cl8_4 Zn4_4 1_555 1_555
Zn9_2 Cl9_4 1_555 1_555
N8_4 C24_4 1_555 1_555
N9_4 C25_4 1_555 1_555
N10_4 C24_4 1_555 1_555
N11_4 Zn4_4 1_555 1_555
N25_2 C32_4 1_555 1_555
N13_4 Zn4_4 1_555 1_555
N14_4 C42_4 1_555 1_555
N15_4 C43_4 1_555 1_555
N16_4 C42_4 1_555 1_555
N17_4 Zn9_2 1_555 1_555
H13_4 C19_4 1_555 1_555
C20_4 C19_4 1_555 1_555
H14_4 C20_4 1_555 1_555
C21_4 C20_4 1_555 1_555
C22_4 C21_4 1_555 1_555
H15_4 C22_4 1_555 1_555
H16_4 C23_4 1_555 1_555
C24_4 C21_4 1_555 1_555
C25_4 N8_4 1_555 1_555
C26_4 N9_4 1_555 1_555
C27_4 N11_4 1_555 1_555
H17_4 C27_4 1_555 1_555
C28_4 C27_4 1_555 1_555
H18_4 C28_4 1_555 1_555
C29_4 C25_4 1_555 1_555
C30_4 C29_4 1_555 1_555
H19_4 C30_4 1_555 1_555
C31_4 N11_4 1_555 1_555
H20_4 C31_4 1_555 1_555
C32_4 H21_4 1_555 1_555
C33_4 C32_4 1_555 1_555
H22_4 C33_4 1_555 1_555
C34_4 C26_4 1_555 1_555
C35_4 C34_4 1_555 1_555
H23_4 C35_4 1_555 1_555
C36_4 N25_2 1_555 1_555
H24_4 C36_4 1_555 1_555
C37_4 N13_4 1_555 1_555
H25_4 C37_4 1_555 1_555
C38_4 C37_4 1_555 1_555
H26_4 C38_4 1_555 1_555
C39_4 C38_4 1_555 1_555
C40_4 C39_4 1_555 1_555
H27_4 C40_4 1_555 1_555
C41_4 N13_4 1_555 1_555
H28_4 C41_4 1_555 1_555
C42_4 C39_4 1_555 1_555
C43_4 N14_4 1_555 1_555
C44_4 N15_4 1_555 1_555
C45_4 N17_4 1_555 1_555
H29_4 C45_4 1_555 1_555
C46_4 C45_4 1_555 1_555
H30_4 C46_4 1_555 1_555
C47_4 C43_4 1_555 1_555
C48_4 C47_4 1_555 1_555
H31_4 C48_4 1_555 1_555
C49_4 N17_4 1_555 1_555
H32_4 C49_4 1_555 1_555
N10_4 C26_4 1_555 1_555
N16_4 C44_4 1_555 1_555
C22_4 C23_4 1_555 1_555
C28_4 C29_4 1_555 1_555
C30_4 C31_4 1_555 1_555
C33_4 C34_4 1_555 1_555
C35_4 C36_4 1_555 1_555
C40_4 C41_4 1_555 1_555
C46_4 C47_4 1_555 1_555
C48_4 C49_4 1_555 1_555
Zn6_3 Cl11_3 1_555 1_555
Cl12_3 Zn6_3 1_555 1_555
N18_3 Zn6_3 1_555 1_555
N19_3 Zn6_3 1_555 1_555
H9_3 C14_3 1_555 1_555
C15_3 C14_3 1_555 1_555
H10_3 C15_3 1_555 1_555
C17_3 C16_3 1_555 1_555
C54_3 N18_3 1_555 1_555
H36_3 C54_3 1_555 1_555
H39_3 C58_3 1_555 1_555
C59_3 N19_3 1_555 1_555
H40_3 C59_3 1_555 1_555
C15_3 C16_3 1_555 1_555
C58_3 C59_3 1_555 1_555
C70_3 C62_3 1_555 1_555
C71_3 C70_3 1_555 1_555
H47_3 C71_3 1_555 1_555
H48_3 C72_3 1_555 1_555
C71_3 C72_3 1_555 1_555
Zn6_4 Cl11_4 1_555 1_555
Cl12_4 Zn6_4 1_555 1_555
N18_4 Zn6_4 1_555 1_555
N19_4 Zn6_4 1_555 1_555
H9_4 C14_4 1_555 1_555
C15_4 C14_4 1_555 1_555
H10_4 C15_4 1_555 1_555
C17_4 C16_4 1_555 1_555
C54_4 N18_4 1_555 1_555
H36_4 C54_4 1_555 1_555
H39_4 C58_4 1_555 1_555
C59_4 N19_4 1_555 1_555
H40_4 C59_4 1_555 1_555
C15_4 C16_4 1_555 1_555
C58_4 C59_4 1_555 1_555
C70_4 C62_4 1_555 1_555
C71_4 C70_4 1_555 1_555
H47_4 C71_4 1_555 1_555
H48_4 C72_4 1_555 1_555
C71_4 C72_4 1_555 1_555

#END
