
###############################################################################
#
# This file contains modified crystal structure data generated from the
# MOF subset of the Cambridge Structural Database (CSD) v543 
# hosted by the Cambridge Crystallographic Data Centre (CCDC).
#
# This work is licensed under the Creative Commons
# Attribution-NonCommercial-ShareAlike 4.0 International License.
# To view a copy of this license, visit
# http://creativecommons.org/licenses/by-nc-sa/4.0/
# or send a letter to
# Creative Commons, PO Box 1866, Mountain View, CA 94042, USA.
#
# CIF created using the CSD Python API on 29 September 2022
# The structure has been converted into the P1 space group
# The structure has a 3D framework
# The original CSD entry MEZNAJ is in the monoclinic crystal system
# The framework has been calculated to contain at least 10.0% void space
# The void calculation uses a probe of radius 1.32A, grid spacing 0.4
#
###############################################################################

data_MEZNAJ
_chemical_formula_moiety         '(C240 H152 N48 O48 Zn10)n'
_symmetry_cell_setting           triclinic
_symmetry_space_group_name_H-M   'P 1'
_symmetry_Int_Tables_number      1
_space_group_name_Hall           'P 1'
loop_
_symmetry_equiv_pos_site_id
_symmetry_equiv_pos_as_xyz
1 x,y,z
_cell_length_a                   23.323(4)
_cell_length_b                   13.641(2)
_cell_length_c                   20.904(4)
_cell_angle_alpha                90
_cell_angle_beta                 110.404(4)
_cell_angle_gamma                90
_cell_volume                     6233.31
loop_
_atom_site_label
_atom_site_type_symbol
_atom_site_fract_x
_atom_site_fract_y
_atom_site_fract_z
O11 O 0.03082(9) 0.92057(15) 0.89431(11)
O12 O 0.06590(11) 0.7805(2) 0.87031(16)
C60 C 0.02386(14) 0.8350(2) 0.86956(15)
Zn7 Zn 0.11131(2) 0.96575(2) 0.95027(2)
N3 N 0.41365(10) 0.39623(15) 0.03620(12)
C13 C 0.38202(13) 0.32341(19) 0.00041(14)
C14 C 0.47372(15) 0.3673(2) 0.0574(2)
H11 H 0.5069 0.4050 0.0833
C15 C 0.47715(15) 0.2767(2) 0.0352(2)
H12 H 0.5126 0.2400 0.0432
Zn4 Zn 0.38869(2) 0.53425(2) 0.04973(2)
N4 N 0.41872(10) 0.24786(15) 0.99841(12)
N6 N 0.26319(11) 0.00209(17) 0.89461(14)
C2 C 0.42326(14) 0.02381(19) 0.90220(16)
C3 C 0.44195(13) 0.10896(19) 0.93975(15)
H2 H 0.4817 0.1321 0.9502
C4 C 0.40051(13) 0.15882(19) 0.96140(14)
C5 C 0.34147(13) 0.12517(19) 0.94662(16)
H3 H 0.3139 0.1591 0.9616
C6 C 0.32427(13) 0.0396(2) 0.90895(16)
H6 H 0.5485 0.0445 0.9225
C10 C 0.23117(14) 0.0065(2) 0.93661(17)
H7 H 0.2457 0.0345 0.9799
H10 H 0.3397 0.3236 0.9791
N9 N 0.58635(10) 0.39623(15) 0.46380(12)
N10 N 0.58128(10) 0.24786(15) 0.50159(12)
N12 N 0.73681(11) 0.00209(17) 0.60539(14)
C32 C 0.57674(14) 0.02381(19) 0.59780(16)
C33 C 0.55805(13) 0.10896(19) 0.56025(15)
H21 H 0.5183 0.1321 0.5498
C34 C 0.59949(13) 0.15882(19) 0.53860(14)
C35 C 0.65853(13) 0.12517(19) 0.55338(16)
H22 H 0.6861 0.1591 0.5384
C36 C 0.67573(13) 0.0396(2) 0.59105(16)
H25 H 0.4515 0.0445 0.5775
C40 C 0.76883(14) 0.0065(2) 0.56339(17)
H26 H 0.7543 0.0345 0.5201
C43 C 0.61798(13) 0.32341(19) 0.49959(14)
H29 H 0.6603 0.3236 0.5209
C44 C 0.52628(15) 0.3673(2) 0.4426(2)
H30 H 0.4931 0.4050 0.4167
C45 C 0.52285(15) 0.2767(2) 0.4648(2)
H31 H 0.4874 0.2400 0.4568
Zn5 Zn 0.61131(2) 0.53425(2) 0.45027(2)
N15 N 0.32266(11) 0.53317(17) 0.09025(14)
O14 O 0.46918(9) 0.57943(15) 0.10569(11)
Zn2 Zn 0.5000 0.76677(3) 0.7500
N1 N 0.50247(14) 0.86673(18) 0.82358(15)
N2 N 0.46593(12) 0.97292(16) 0.87873(14)
N5 N 0.17734(11) 0.96683(17) 0.90975(14)
O1 O 0.37170(10) 0.60187(15) 0.96132(11)
O2 O 0.28973(11) 0.50766(19) 0.92477(13)
O3 O 0.43287(9) 0.68928(15) 0.75654(12)
O4 O 0.36533(11) 0.7699(2) 0.67242(15)
C1 C 0.36431(14) 0.9881(2) 0.88662(16)
H1 H 0.3521 0.9306 0.8616
C7 C 0.45409(17) 0.8954(2) 0.8367(2)
H4 H 0.4160 0.8654 0.8190
C8 C 0.54775(18) 0.9291(3) 0.8596(2)
H5 H 0.5878 0.9267 0.8603
C9 C 0.52653(18) 0.9947(3) 0.8941(2)
C11 C 0.22713(17) 0.9553(3) 0.8371(2)
H8 H 0.2372 0.9409 0.7988
C12 C 0.17465(16) 0.9339(3) 0.8460(2)
H9 H 0.1415 0.9021 0.8145
C16 C 0.37866(13) 0.7175(2) 0.72377(18)
C17 C 0.33147(12) 0.6909(2) 0.75470(15)
C18 C 0.27058(13) 0.7181(2) 0.72224(15)
H13 H 0.2589 0.7484 0.6798
C19 C 0.34861(13) 0.6440(2) 0.81707(16)
H14 H 0.3892 0.6262 0.8391
C20 C 0.32250(14) 0.5734(2) 0.91520(17)
C21 C 0.30509(13) 0.6232(2) 0.84708(15)
C22 C 0.24511(14) 0.6525(2) 0.81442(15)
H15 H 0.2163 0.6395 0.8348
C23 C 0.22695(12) 0.7004(2) 0.75246(15)
C24 C 0.16273(12) 0.7352(2) 0.72013(14)
C25 C 0.11486(14) 0.6848(2) 0.72996(15)
H16 H 0.1230 0.6283 0.7565
C26 C 0.14860(13) 0.8205(2) 0.68067(15)
H17 H 0.1798 0.8553 0.6728
C27 C 0.05501(13) 0.7173(2) 0.70090(15)
H18 H 0.0236 0.6814 0.7074
C28 C 0.08917(13) 0.8537(2) 0.65324(15)
H19 H 0.0810 0.9116 0.6282
C29 C 0.04148(13) 0.8020(2) 0.66257(14)
N7 N 0.49753(14) 0.86673(18) 0.67642(15)
N8 N 0.53407(12) 0.97292(16) 0.62127(14)
N11 N 0.82266(11) 0.96683(17) 0.59025(14)
O7 O 0.62830(10) 0.60187(15) 0.53868(11)
O8 O 0.71027(11) 0.50766(19) 0.57523(13)
O9 O 0.56713(9) 0.68928(15) 0.74346(12)
O10 O 0.63467(11) 0.7699(2) 0.82758(15)
C31 C 0.63569(14) 0.9881(2) 0.61338(16)
H20 H 0.6479 0.9306 0.6384
C37 C 0.54591(17) 0.8954(2) 0.6633(2)
H23 H 0.5840 0.8654 0.6810
C38 C 0.45225(18) 0.9291(3) 0.6404(2)
H24 H 0.4122 0.9267 0.6397
C39 C 0.47347(18) 0.9947(3) 0.6059(2)
C41 C 0.77287(17) 0.9553(3) 0.6629(2)
H27 H 0.7628 0.9409 0.7012
C42 C 0.82535(16) 0.9339(3) 0.6540(2)
H28 H 0.8585 0.9021 0.6855
C46 C 0.62134(13) 0.7175(2) 0.77623(18)
C47 C 0.66853(12) 0.6909(2) 0.74530(15)
C48 C 0.72942(13) 0.7181(2) 0.77776(15)
H32 H 0.7411 0.7484 0.8202
C49 C 0.65139(13) 0.6440(2) 0.68293(16)
H33 H 0.6108 0.6262 0.6609
C50 C 0.67750(14) 0.5734(2) 0.58480(17)
C51 C 0.69491(13) 0.6232(2) 0.65292(15)
C52 C 0.75489(14) 0.6525(2) 0.68558(15)
H34 H 0.7837 0.6395 0.6652
C53 C 0.77305(12) 0.7004(2) 0.74754(15)
C54 C 0.83727(12) 0.7352(2) 0.77987(14)
C55 C 0.88514(14) 0.6848(2) 0.77004(15)
H35 H 0.8770 0.6283 0.7435
C56 C 0.85140(13) 0.8205(2) 0.81933(15)
H36 H 0.8202 0.8553 0.8272
C57 C 0.94499(13) 0.7173(2) 0.79910(15)
H37 H 0.9764 0.6814 0.7926
C58 C 0.91083(13) 0.8537(2) 0.84676(15)
H38 H 0.9190 0.9116 0.8718
C59 C 0.95852(13) 0.8020(2) 0.83743(14)
Zn9 Zn 0.88869(2) 0.96575(2) 0.54973(2)
N16 N 0.67734(11) 0.53317(17) 0.40975(14)
O13 O 0.53082(9) 0.57943(15) 0.39431(11)
O5 O 0.96918(9) 0.92057(15) 0.60569(11)
O6 O 0.93410(11) 0.7805(2) 0.62969(16)
C30 C 0.97614(14) 0.8350(2) 0.63044(15)
N13 N 0.08635(10) 0.10377(15) 0.96380(12)
Zn2_2 Zn -0.0000 0.73323(3) 0.2500
N2_2 N 0.03407(12) 0.52708(16) 0.12127(14)
N4_2 N 0.08128(10) 0.25214(15) 0.00159(12)
N6_2 N 0.23681(11) 0.49791(17) 0.10539(14)
O1_2 O 0.12830(10) 0.89813(15) 0.03868(11)
O2_2 O 0.21027(11) 0.99234(19) 0.07523(13)
O3_2 O 0.06713(9) 0.81072(15) 0.24346(12)
O4_2 O 0.13467(11) 0.7301(2) 0.32758(15)
O6_2 O 0.56590(11) 0.7195(2) 0.37031(16)
C1_2 C 0.13569(14) 0.5119(2) 0.11338(16)
H1_2 H 0.1479 0.5694 0.1384
C2_2 C 0.07674(14) 0.47619(19) 0.09780(16)
C3_2 C 0.05805(13) 0.39104(19) 0.06025(15)
H2_2 H 0.0183 0.3679 0.0498
C4_2 C 0.09949(13) 0.34118(19) 0.03860(14)
C5_2 C 0.15853(13) 0.37483(19) 0.05338(16)
H3_2 H 0.1861 0.3409 0.0384
C6_2 C 0.17573(13) 0.4604(2) 0.09105(16)
C7_2 C 0.04591(17) 0.6046(2) 0.1633(2)
H4_2 H 0.0840 0.6346 0.1810
C10_2 C 0.26883(14) 0.4935(2) 0.06339(17)
H7_2 H 0.2543 0.4655 0.0201
C11_2 C 0.27287(17) 0.5447(3) 0.1629(2)
H8_2 H 0.2628 0.5591 0.2012
C12_2 C 0.32535(16) 0.5661(3) 0.1540(2)
H9_2 H 0.3585 0.5979 0.1855
H10_2 H 0.1603 0.1764 0.0209
C16_2 C 0.12134(13) 0.7825(2) 0.27623(18)
C17_2 C 0.16853(12) 0.8091(2) 0.24530(15)
C18_2 C 0.22942(13) 0.7819(2) 0.27776(15)
H13_2 H 0.2411 0.7516 0.3202
C19_2 C 0.15139(13) 0.8560(2) 0.18293(16)
H14_2 H 0.1108 0.8738 0.1609
C20_2 C 0.17750(14) 0.9266(2) 0.08480(17)
C21_2 C 0.19491(13) 0.8768(2) 0.15292(15)
C22_2 C 0.25489(14) 0.8475(2) 0.18558(15)
H15_2 H 0.2837 0.8605 0.1652
C23_2 C 0.27305(12) 0.7996(2) 0.24754(15)
C24_2 C 0.33727(12) 0.7648(2) 0.27987(14)
C25_2 C 0.38514(14) 0.8152(2) 0.27004(15)
H16_2 H 0.3770 0.8717 0.2435
C26_2 C 0.35140(13) 0.6795(2) 0.31933(15)
H17_2 H 0.3202 0.6447 0.3272
C27_2 C 0.44499(13) 0.7827(2) 0.29910(15)
H18_2 H 0.4764 0.8186 0.2926
C28_2 C 0.41083(13) 0.6463(2) 0.34676(15)
H19_2 H 0.4190 0.5884 0.3718
C29_2 C 0.45852(13) 0.6980(2) 0.33743(14)
C30_2 C 0.52386(14) 0.6650(2) 0.36956(15)
N7_2 N 0.00247(14) 0.63327(18) 0.32358(15)
C38_2 C 0.04775(18) 0.5709(3) 0.3596(2)
H24_2 H 0.0878 0.5733 0.3603
C39_2 C 0.02653(18) 0.5053(3) 0.3941(2)
H25_2 H 0.0485 0.4555 0.4225
H30_2 H 0.0069 0.0950 0.5833
H31_2 H 0.0126 0.2600 0.5432
C13_2 C 0.11798(13) 0.17659(19) 0.99959(14)
C14_2 C 0.02628(15) 0.1327(2) 0.9426(2)
C15_2 C 0.02285(15) 0.2233(2) 0.9648(2)
N14 N 0.91365(10) 0.10377(15) 0.53620(12)
Zn2_3 Zn 1.0000 0.73323(3) 0.2500
N1_2 N 0.99753(14) 0.63327(18) 0.17642(15)
C8_2 C 0.95225(18) 0.5709(3) 0.1404(2)
H5_2 H 0.9122 0.5733 0.1397
C9_2 C 0.97347(18) 0.5053(3) 0.1059(2)
H6_2 H 0.9515 0.4555 0.0775
N8_2 N 0.96593(12) 0.52708(16) 0.37873(14)
N10_2 N 0.91872(10) 0.25214(15) 0.49841(12)
N12_2 N 0.76319(11) 0.49791(17) 0.39461(14)
O7_2 O 0.87170(10) 0.89813(15) 0.46132(11)
O8_2 O 0.78973(11) 0.99234(19) 0.42477(13)
O9_2 O 0.93287(9) 0.81072(15) 0.25654(12)
O10_2 O 0.86533(11) 0.7301(2) 0.17242(15)
O12_2 O 0.43410(11) 0.7195(2) 0.12969(16)
C31_2 C 0.86431(14) 0.5119(2) 0.38662(16)
H20_2 H 0.8521 0.5694 0.3616
C32_2 C 0.92326(14) 0.47619(19) 0.40220(16)
C33_2 C 0.94195(13) 0.39104(19) 0.43975(15)
H21_2 H 0.9817 0.3679 0.4502
C34_2 C 0.90051(13) 0.34118(19) 0.46140(14)
C35_2 C 0.84147(13) 0.37483(19) 0.44662(16)
H22_2 H 0.8139 0.3409 0.4616
C36_2 C 0.82427(13) 0.4604(2) 0.40895(16)
C37_2 C 0.95409(17) 0.6046(2) 0.3367(2)
H23_2 H 0.9160 0.6346 0.3190
C40_2 C 0.73117(14) 0.4935(2) 0.43661(17)
H26_2 H 0.7457 0.4655 0.4799
C41_2 C 0.72713(17) 0.5447(3) 0.3371(2)
H27_2 H 0.7372 0.5591 0.2988
C42_2 C 0.67465(16) 0.5661(3) 0.3460(2)
H28_2 H 0.6415 0.5979 0.3145
C43_2 C 0.88202(13) 0.17659(19) 0.50041(14)
H29_2 H 0.8397 0.1764 0.4791
C44_2 C 0.97372(15) 0.1327(2) 0.5574(2)
C45_2 C 0.97715(15) 0.2233(2) 0.5352(2)
C46_2 C 0.87866(13) 0.7825(2) 0.22377(18)
C47_2 C 0.83147(12) 0.8091(2) 0.25470(15)
C48_2 C 0.77058(13) 0.7819(2) 0.22224(15)
H32_2 H 0.7589 0.7516 0.1798
C49_2 C 0.84861(13) 0.8560(2) 0.31707(16)
H33_2 H 0.8892 0.8738 0.3391
C50_2 C 0.82250(14) 0.9266(2) 0.41520(17)
C51_2 C 0.80509(13) 0.8768(2) 0.34708(15)
C52_2 C 0.74511(14) 0.8475(2) 0.31442(15)
H34_2 H 0.7163 0.8605 0.3348
C53_2 C 0.72695(12) 0.7996(2) 0.25246(15)
C54_2 C 0.66273(12) 0.7648(2) 0.22013(14)
C55_2 C 0.61486(14) 0.8152(2) 0.22996(15)
H35_2 H 0.6230 0.8717 0.2565
C56_2 C 0.64860(13) 0.6795(2) 0.18067(15)
H36_2 H 0.6798 0.6447 0.1728
C57_2 C 0.55501(13) 0.7827(2) 0.20090(15)
H37_2 H 0.5236 0.8186 0.2074
C58_2 C 0.58917(13) 0.6463(2) 0.15324(15)
H38_2 H 0.5810 0.5884 0.1282
C59_2 C 0.54148(13) 0.6980(2) 0.16257(14)
C60_2 C 0.47614(14) 0.6650(2) 0.13044(15)
Zn5_2 Zn 0.11131(2) 0.03425(2) 0.45027(2)
Zn2_4 Zn -0.0000 0.26677(3) 0.7500
N1_3 N 0.00247(14) 0.36673(18) 0.82358(15)
C8_3 C 0.04775(18) 0.4291(3) 0.8596(2)
H5_3 H 0.0878 0.4267 0.8603
C9_3 C 0.02653(18) 0.4947(3) 0.8941(2)
H6_3 H 0.0485 0.5445 0.9225
N8_3 N 0.03407(12) 0.47292(16) 0.62127(14)
N9_2 N 0.08635(10) 0.89623(15) 0.46380(12)
N10_3 N 0.08128(10) 0.74786(15) 0.50159(12)
N11_2 N 0.32266(11) 0.46683(17) 0.59025(14)
N12_3 N 0.23681(11) 0.50209(17) 0.60539(14)
O7_3 O 0.12830(10) 0.10187(15) 0.53868(11)
O8_3 O 0.21027(11) 0.00766(19) 0.57523(13)
O9_3 O 0.06713(9) 0.18928(15) 0.74346(12)
O10_3 O 0.13467(11) 0.2699(2) 0.82758(15)
O11_2 O 0.53082(9) 0.42057(15) 0.89431(11)
O12_3 O 0.56590(11) 0.2805(2) 0.87031(16)
C31_3 C 0.13569(14) 0.4881(2) 0.61338(16)
H20_3 H 0.1479 0.4306 0.6384
C32_3 C 0.07674(14) 0.52381(19) 0.59780(16)
C33_3 C 0.05805(13) 0.60896(19) 0.56025(15)
H21_3 H 0.0183 0.6321 0.5498
C34_3 C 0.09949(13) 0.65882(19) 0.53860(14)
C35_3 C 0.15853(13) 0.62517(19) 0.55338(16)
H22_3 H 0.1861 0.6591 0.5384
C36_3 C 0.17573(13) 0.5396(2) 0.59105(16)
C37_3 C 0.04591(17) 0.3954(2) 0.6633(2)
H23_3 H 0.0840 0.3654 0.6810
C40_3 C 0.26883(14) 0.5065(2) 0.56339(17)
H26_3 H 0.2543 0.5345 0.5201
C41_3 C 0.27287(17) 0.4553(3) 0.6629(2)
H27_3 H 0.2628 0.4409 0.7012
C42_3 C 0.32535(16) 0.4339(3) 0.6540(2)
H28_3 H 0.3585 0.4021 0.6855
C43_3 C 0.11798(13) 0.82341(19) 0.49959(14)
H29_3 H 0.1603 0.8236 0.5209
C44_3 C 0.02628(15) 0.8673(2) 0.4426(2)
C45_3 C 0.02285(15) 0.7767(2) 0.4648(2)
C46_3 C 0.12134(13) 0.2175(2) 0.77623(18)
C47_3 C 0.16853(12) 0.1909(2) 0.74530(15)
C48_3 C 0.22942(13) 0.2181(2) 0.77776(15)
H32_3 H 0.2411 0.2484 0.8202
C49_3 C 0.15139(13) 0.1440(2) 0.68293(16)
H33_3 H 0.1108 0.1262 0.6609
C50_3 C 0.17750(14) 0.0734(2) 0.58480(17)
C51_3 C 0.19491(13) 0.1232(2) 0.65292(15)
C52_3 C 0.25489(14) 0.1525(2) 0.68558(15)
H34_3 H 0.2837 0.1395 0.6652
C53_3 C 0.27305(12) 0.2004(2) 0.74754(15)
C54_3 C 0.33727(12) 0.2352(2) 0.77987(14)
C55_3 C 0.38514(14) 0.1848(2) 0.77004(15)
H35_3 H 0.3770 0.1283 0.7435
C56_3 C 0.35140(13) 0.3205(2) 0.81933(15)
H36_3 H 0.3202 0.3553 0.8272
C57_3 C 0.44499(13) 0.2173(2) 0.79910(15)
H37_3 H 0.4764 0.1814 0.7926
C58_3 C 0.41083(13) 0.3537(2) 0.84676(15)
H38_3 H 0.4190 0.4116 0.8718
C59_3 C 0.45852(13) 0.3020(2) 0.83743(14)
C60_3 C 0.52386(14) 0.3350(2) 0.86956(15)
Zn7_2 Zn 0.61131(2) 0.46575(2) 0.95027(2)
Zn9_2 Zn 0.38869(2) 0.46575(2) 0.54973(2)
N16_2 N 0.17734(11) 0.03317(17) 0.40975(14)
O13_2 O 0.03082(9) 0.07943(15) 0.39431(11)
Zn4_2 Zn 0.88869(2) 0.03425(2) 0.04973(2)
N3_2 N 0.91365(10) 0.89623(15) 0.03620(12)
C13_3 C 0.88202(13) 0.82341(19) 0.00041(14)
C14_3 C 0.97372(15) 0.8673(2) 0.0574(2)
C15_3 C 0.97715(15) 0.7767(2) 0.0352(2)
N15_2 N 0.82266(11) 0.03317(17) 0.09025(14)
O14_2 O 0.96918(9) 0.07943(15) 0.10569(11)
Zn2_5 Zn 1.0000 0.26677(3) 0.7500
N2_3 N 0.96593(12) 0.47292(16) 0.87873(14)
N4_3 N 0.91872(10) 0.74786(15) 0.99841(12)
N5_2 N 0.67734(11) 0.46683(17) 0.90975(14)
N6_3 N 0.76319(11) 0.50209(17) 0.89461(14)
O1_3 O 0.87170(10) 0.10187(15) 0.96132(11)
O2_3 O 0.78973(11) 0.00766(19) 0.92477(13)
O3_3 O 0.93287(9) 0.18928(15) 0.75654(12)
O4_3 O 0.86533(11) 0.2699(2) 0.67242(15)
O5_2 O 0.46918(9) 0.42057(15) 0.60569(11)
O6_3 O 0.43410(11) 0.2805(2) 0.62969(16)
C1_3 C 0.86431(14) 0.4881(2) 0.88662(16)
H1_3 H 0.8521 0.4306 0.8616
C2_3 C 0.92326(14) 0.52381(19) 0.90220(16)
C3_3 C 0.94195(13) 0.60896(19) 0.93975(15)
H2_3 H 0.9817 0.6321 0.9502
C4_3 C 0.90051(13) 0.65882(19) 0.96140(14)
C5_3 C 0.84147(13) 0.62517(19) 0.94662(16)
H3_3 H 0.8139 0.6591 0.9616
C6_3 C 0.82427(13) 0.5396(2) 0.90895(16)
C7_3 C 0.95409(17) 0.3954(2) 0.8367(2)
H4_3 H 0.9160 0.3654 0.8190
C10_3 C 0.73117(14) 0.5065(2) 0.93661(17)
H7_3 H 0.7457 0.5345 0.9799
C11_3 C 0.72713(17) 0.4553(3) 0.8371(2)
H8_3 H 0.7372 0.4409 0.7988
C12_3 C 0.67465(16) 0.4339(3) 0.8460(2)
H9_3 H 0.6415 0.4021 0.8145
H10_3 H 0.8397 0.8236 0.9791
C16_3 C 0.87866(13) 0.2175(2) 0.72377(18)
C17_3 C 0.83147(12) 0.1909(2) 0.75470(15)
C18_3 C 0.77058(13) 0.2181(2) 0.72224(15)
H13_3 H 0.7589 0.2484 0.6798
C19_3 C 0.84861(13) 0.1440(2) 0.81707(16)
H14_3 H 0.8892 0.1262 0.8391
C20_3 C 0.82250(14) 0.0734(2) 0.91520(17)
C21_3 C 0.80509(13) 0.1232(2) 0.84708(15)
C22_3 C 0.74511(14) 0.1525(2) 0.81442(15)
H15_3 H 0.7163 0.1395 0.8348
C23_3 C 0.72695(12) 0.2004(2) 0.75246(15)
C24_3 C 0.66273(12) 0.2352(2) 0.72013(14)
C25_3 C 0.61486(14) 0.1848(2) 0.72996(15)
H16_3 H 0.6230 0.1283 0.7565
C26_3 C 0.64860(13) 0.3205(2) 0.68067(15)
H17_3 H 0.6798 0.3553 0.6728
C27_3 C 0.55501(13) 0.2173(2) 0.70090(15)
H18_3 H 0.5236 0.1814 0.7074
C28_3 C 0.58917(13) 0.3537(2) 0.65324(15)
H19_3 H 0.5810 0.4116 0.6282
C29_3 C 0.54148(13) 0.3020(2) 0.66257(14)
C30_3 C 0.47614(14) 0.3350(2) 0.63044(15)
N7_3 N 0.99753(14) 0.36673(18) 0.67642(15)
C38_3 C 0.95225(18) 0.4291(3) 0.6404(2)
H24_3 H 0.9122 0.4267 0.6397
C39_3 C 0.97347(18) 0.4947(3) 0.6059(2)
H25_3 H 0.9515 0.5445 0.5775
H30_3 H 0.9931 0.9050 0.4167
H31_3 H 0.9874 0.7400 0.4568
O6_4 O 0.06590(11) 0.2195(2) 0.37031(16)
C30_4 C 0.02386(14) 0.1650(2) 0.36956(15)
Zn2_6 Zn 0.5000 0.23323(3) 0.2500
N1_4 N 0.49753(14) 0.13327(18) 0.17642(15)
N2_4 N 0.53407(12) 0.02708(16) 0.12127(14)
O1_4 O 0.62830(10) 0.39813(15) 0.03868(11)
O2_4 O 0.71027(11) 0.49234(19) 0.07523(13)
O3_4 O 0.56713(9) 0.31072(15) 0.24346(12)
O4_4 O 0.63467(11) 0.2301(2) 0.32758(15)
C1_4 C 0.63569(14) 0.0119(2) 0.11338(16)
H1_4 H 0.6479 0.0694 0.1384
C7_4 C 0.54591(17) 0.1046(2) 0.1633(2)
H4_4 H 0.5840 0.1346 0.1810
C8_4 C 0.45225(18) 0.0709(3) 0.1404(2)
H5_4 H 0.4122 0.0733 0.1397
C9_4 C 0.47347(18) 0.0053(3) 0.1059(2)
C11_4 C 0.77287(17) 0.0447(3) 0.1629(2)
H8_4 H 0.7628 0.0591 0.2012
C12_4 C 0.82535(16) 0.0661(3) 0.1540(2)
H9_4 H 0.8585 0.0979 0.1855
C16_4 C 0.62134(13) 0.2825(2) 0.27623(18)
C17_4 C 0.66853(12) 0.3091(2) 0.24530(15)
C18_4 C 0.72942(13) 0.2819(2) 0.27776(15)
H13_4 H 0.7411 0.2516 0.3202
C19_4 C 0.65139(13) 0.3560(2) 0.18293(16)
H14_4 H 0.6108 0.3738 0.1609
C20_4 C 0.67750(14) 0.4266(2) 0.08480(17)
C21_4 C 0.69491(13) 0.3768(2) 0.15292(15)
C22_4 C 0.75489(14) 0.3475(2) 0.18558(15)
H15_4 H 0.7837 0.3605 0.1652
C23_4 C 0.77305(12) 0.2996(2) 0.24754(15)
C24_4 C 0.83727(12) 0.2648(2) 0.27987(14)
C25_4 C 0.88514(14) 0.3152(2) 0.27004(15)
H16_4 H 0.8770 0.3717 0.2435
C26_4 C 0.85140(13) 0.1795(2) 0.31933(15)
H17_4 H 0.8202 0.1447 0.3272
C27_4 C 0.94499(13) 0.2827(2) 0.29910(15)
H18_4 H 0.9764 0.3186 0.2926
C28_4 C 0.91083(13) 0.1463(2) 0.34676(15)
H19_4 H 0.9190 0.0884 0.3718
C29_4 C 0.95852(13) 0.1980(2) 0.33743(14)
N7_4 N 0.50247(14) 0.13327(18) 0.32358(15)
N8_4 N 0.46593(12) 0.02708(16) 0.37873(14)
O7_4 O 0.37170(10) 0.39813(15) 0.46132(11)
O8_4 O 0.28973(11) 0.49234(19) 0.42477(13)
O9_4 O 0.43287(9) 0.31072(15) 0.25654(12)
O10_4 O 0.36533(11) 0.2301(2) 0.17242(15)
C31_4 C 0.36431(14) 0.0119(2) 0.38662(16)
H20_4 H 0.3521 0.0694 0.3616
C37_4 C 0.45409(17) 0.1046(2) 0.3367(2)
H23_4 H 0.4160 0.1346 0.3190
C38_4 C 0.54775(18) 0.0709(3) 0.3596(2)
H24_4 H 0.5878 0.0733 0.3603
C39_4 C 0.52653(18) 0.0053(3) 0.3941(2)
C41_4 C 0.22713(17) 0.0447(3) 0.3371(2)
H27_4 H 0.2372 0.0591 0.2988
C42_4 C 0.17465(16) 0.0661(3) 0.3460(2)
H28_4 H 0.1415 0.0979 0.3145
C46_4 C 0.37866(13) 0.2825(2) 0.22377(18)
C47_4 C 0.33147(12) 0.3091(2) 0.25470(15)
C48_4 C 0.27058(13) 0.2819(2) 0.22224(15)
H32_4 H 0.2589 0.2516 0.1798
C49_4 C 0.34861(13) 0.3560(2) 0.31707(16)
H33_4 H 0.3892 0.3738 0.3391
C50_4 C 0.32250(14) 0.4266(2) 0.41520(17)
C51_4 C 0.30509(13) 0.3768(2) 0.34708(15)
C52_4 C 0.24511(14) 0.3475(2) 0.31442(15)
H34_4 H 0.2163 0.3605 0.3348
C53_4 C 0.22695(12) 0.2996(2) 0.25246(15)
C54_4 C 0.16273(12) 0.2648(2) 0.22013(14)
C55_4 C 0.11486(14) 0.3152(2) 0.22996(15)
H35_4 H 0.1230 0.3717 0.2565
C56_4 C 0.14860(13) 0.1795(2) 0.18067(15)
H36_4 H 0.1798 0.1447 0.1728
C57_4 C 0.05501(13) 0.2827(2) 0.20090(15)
H37_4 H 0.0236 0.3186 0.2074
C58_4 C 0.08917(13) 0.1463(2) 0.15324(15)
H38_4 H 0.0810 0.0884 0.1282
C59_4 C 0.04148(13) 0.1980(2) 0.16257(14)
N14_2 N 0.41365(10) 0.60377(15) 0.53620(12)
N13_2 N 0.58635(10) 0.60377(15) 0.96380(12)
N4_4 N 0.58128(10) 0.75214(15) 0.00159(12)
N6_4 N 0.73681(11) 0.99791(17) 0.10539(14)
C2_4 C 0.57674(14) 0.97619(19) 0.09780(16)
C3_4 C 0.55805(13) 0.89104(19) 0.06025(15)
H2_4 H 0.5183 0.8679 0.0498
C4_4 C 0.59949(13) 0.84118(19) 0.03860(14)
C5_4 C 0.65853(13) 0.87483(19) 0.05338(16)
H3_4 H 0.6861 0.8409 0.0384
C6_4 C 0.67573(13) 0.9604(2) 0.09105(16)
H6_4 H 0.4515 0.9555 0.0775
C10_4 C 0.76883(14) 0.9935(2) 0.06339(17)
H7_4 H 0.7543 0.9655 0.0201
H10_4 H 0.6603 0.6764 0.0209
N10_4 N 0.41872(10) 0.75214(15) 0.49841(12)
N12_4 N 0.26319(11) 0.99791(17) 0.39461(14)
C32_4 C 0.42326(14) 0.97619(19) 0.40220(16)
C33_4 C 0.44195(13) 0.89104(19) 0.43975(15)
H21_4 H 0.4817 0.8679 0.4502
C34_4 C 0.40051(13) 0.84118(19) 0.46140(14)
C35_4 C 0.34147(13) 0.87483(19) 0.44662(16)
H22_4 H 0.3139 0.8409 0.4616
C36_4 C 0.32427(13) 0.9604(2) 0.40895(16)
H25_4 H 0.5485 0.9555 0.4225
C40_4 C 0.23117(14) 0.9935(2) 0.43661(17)
H26_4 H 0.2457 0.9655 0.4799
C43_4 C 0.38202(13) 0.67659(19) 0.50041(14)
H29_4 H 0.3397 0.6764 0.4791
C44_4 C 0.47372(15) 0.6327(2) 0.5574(2)
H30_4 H 0.5069 0.5950 0.5833
C45_4 C 0.47715(15) 0.7233(2) 0.5352(2)
H31_4 H 0.5126 0.7600 0.5432
C13_4 C 0.61798(13) 0.67659(19) 0.99959(14)
C14_4 C 0.52628(15) 0.6327(2) 0.9426(2)
H11_2 H 0.4931 0.5950 0.9167
C15_4 C 0.52285(15) 0.7233(2) 0.9648(2)
H12_2 H 0.4874 0.7600 0.9568
O12_4 O 0.93410(11) 0.2195(2) 0.12969(16)
C60_4 C 0.97614(14) 0.1650(2) 0.13044(15)
H11_3 H 0.0069 0.9050 0.0833
H12_3 H 0.0126 0.7400 0.0432
H11_4 H 0.9931 0.0950 0.9167
H12_4 H 0.9874 0.2600 0.9568
loop_
_geom_bond_atom_site_label_1
_geom_bond_atom_site_label_2
_geom_bond_site_symmetry_1
_geom_bond_site_symmetry_2
O11 C60 1_555 1_555
O12 C60 1_555 1_555
Zn7 O11 1_555 1_555
N3 C13 1_555 1_555
C14 N3 1_555 1_555
H11 C14 1_555 1_555
H12 C15 1_555 1_555
Zn4 N3 1_555 1_555
C14 C15 1_555 1_555
N4 C4 1_555 1_555
N6 C6 1_555 1_555
C3 C2 1_555 1_555
H2 C3 1_555 1_555
C4 C3 1_555 1_555
C5 C4 1_555 1_555
H3 C5 1_555 1_555
C10 N6 1_555 1_555
H7 C10 1_555 1_555
N9 C43 1_555 1_555
N10 C34 1_555 1_555
N12 C36 1_555 1_555
C33 C32 1_555 1_555
H21 C33 1_555 1_555
C34 C33 1_555 1_555
C35 C34 1_555 1_555
H22 C35 1_555 1_555
C40 N12 1_555 1_555
H26 C40 1_555 1_555
C43 N10 1_555 1_555
H29 C43 1_555 1_555
C44 N9 1_555 1_555
H30 C44 1_555 1_555
C45 N10 1_555 1_555
H31 C45 1_555 1_555
Zn5 N9 1_555 1_555
C5 C6 1_555 1_555
C35 C36 1_555 1_555
C44 C45 1_555 1_555
N15 Zn4 1_555 1_555
O14 Zn4 1_555 1_555
Zn2 N1 1_555 1_555
N1 C7 1_555 1_555
O1 C20 1_555 1_555
O2 C20 1_555 1_555
O3 Zn2 1_555 1_555
O4 C16 1_555 1_555
C1 H1 1_555 1_555
C7 N2 1_555 1_555
H4 C7 1_555 1_555
C8 N1 1_555 1_555
H5 C8 1_555 1_555
C9 N2 1_555 1_555
H8 C11 1_555 1_555
C12 N5 1_555 1_555
H9 C12 1_555 1_555
C16 O3 1_555 1_555
C17 C16 1_555 1_555
C18 C17 1_555 1_555
H13 C18 1_555 1_555
C19 C17 1_555 1_555
H14 C19 1_555 1_555
C20 C21 1_555 1_555
C21 C19 1_555 1_555
C22 C21 1_555 1_555
H15 C22 1_555 1_555
C23 C18 1_555 1_555
C24 C23 1_555 1_555
C25 C24 1_555 1_555
H16 C25 1_555 1_555
C26 C24 1_555 1_555
H17 C26 1_555 1_555
C27 C25 1_555 1_555
H18 C27 1_555 1_555
C28 C26 1_555 1_555
H19 C28 1_555 1_555
C29 C27 1_555 1_555
Zn5 O7 1_555 1_555
N7 Zn2 1_555 1_555
O7 C50 1_555 1_555
O8 C50 1_555 1_555
O9 Zn2 1_555 1_555
O10 C46 1_555 1_555
C31 H20 1_555 1_555
C37 N7 1_555 1_555
H23 C37 1_555 1_555
C38 N7 1_555 1_555
H24 C38 1_555 1_555
C39 N8 1_555 1_555
H27 C41 1_555 1_555
C42 N11 1_555 1_555
H28 C42 1_555 1_555
C46 O9 1_555 1_555
C47 C46 1_555 1_555
C48 C47 1_555 1_555
H32 C48 1_555 1_555
C49 C47 1_555 1_555
H33 C49 1_555 1_555
C50 C51 1_555 1_555
C51 C49 1_555 1_555
C52 C51 1_555 1_555
H34 C52 1_555 1_555
C53 C48 1_555 1_555
C54 C53 1_555 1_555
C55 C54 1_555 1_555
H35 C55 1_555 1_555
C56 C54 1_555 1_555
H36 C56 1_555 1_555
C57 C55 1_555 1_555
H37 C57 1_555 1_555
C58 C56 1_555 1_555
H38 C58 1_555 1_555
C59 C57 1_555 1_555
Zn7 N5 1_555 1_555
Zn9 N11 1_555 1_555
N16 Zn5 1_555 1_555
O13 Zn5 1_555 1_555
C8 C9 1_555 1_555
C11 C12 1_555 1_555
C22 C23 1_555 1_555
C28 C29 1_555 1_555
N8 C37 1_555 1_555
C38 C39 1_555 1_555
C41 C42 1_555 1_555
C52 C53 1_555 1_555
C58 C59 1_555 1_555
O5 C30 1_555 1_555
O6 C30 1_555 1_555
Zn9 O5 1_555 1_555
N2_2 C2_2 1_555 1_555
N4_2 C4_2 1_555 1_555
N15 C10_2 1_555 1_555
N6_2 C6_2 1_555 1_555
O1_2 C20_2 1_555 1_555
O2_2 C20_2 1_555 1_555
O3_2 Zn2_2 1_555 1_555
O4_2 C16_2 1_555 1_555
O13 C30_2 1_555 1_555
O6_2 C30_2 1_555 1_555
C1_2 H1_2 1_555 1_555
C2_2 C1_2 1_555 1_555
C3_2 C2_2 1_555 1_555
H2_2 C3_2 1_555 1_555
C4_2 C3_2 1_555 1_555
C5_2 C4_2 1_555 1_555
H3_2 C5_2 1_555 1_555
C6_2 C1_2 1_555 1_555
C7_2 N2_2 1_555 1_555
H4_2 C7_2 1_555 1_555
C10_2 N6_2 1_555 1_555
H7_2 C10_2 1_555 1_555
C11_2 N6_2 1_555 1_555
H8_2 C11_2 1_555 1_555
C12_2 N15 1_555 1_555
H9_2 C12_2 1_555 1_555
C16_2 O3_2 1_555 1_555
C17_2 C16_2 1_555 1_555
C18_2 C17_2 1_555 1_555
H13_2 C18_2 1_555 1_555
C19_2 C17_2 1_555 1_555
H14_2 C19_2 1_555 1_555
C20_2 C21_2 1_555 1_555
C21_2 C19_2 1_555 1_555
C22_2 C21_2 1_555 1_555
H15_2 C22_2 1_555 1_555
C23_2 C18_2 1_555 1_555
C24_2 C23_2 1_555 1_555
C25_2 C24_2 1_555 1_555
H16_2 C25_2 1_555 1_555
C26_2 C24_2 1_555 1_555
H17_2 C26_2 1_555 1_555
C27_2 C25_2 1_555 1_555
H18_2 C27_2 1_555 1_555
C28_2 C26_2 1_555 1_555
H19_2 C28_2 1_555 1_555
C29_2 C27_2 1_555 1_555
C30_2 C29_2 1_555 1_555
N7_2 Zn2_2 1_555 1_555
C38_2 N7_2 1_555 1_555
H24_2 C38_2 1_555 1_555
H25_2 C39_2 1_555 1_555
C5_2 C6_2 1_555 1_555
C11_2 C12_2 1_555 1_555
C22_2 C23_2 1_555 1_555
C28_2 C29_2 1_555 1_555
C38_2 C39_2 1_555 1_555
N13 C13_2 1_555 1_555
C14_2 N13 1_555 1_555
C14_2 C15_2 1_555 1_555
Zn2_3 N1_2 1_555 1_555
C8_2 N1_2 1_555 1_555
H5_2 C8_2 1_555 1_555
H6_2 C9_2 1_555 1_555
Zn9 O7_2 1_555 1_555
N8_2 C32_2 1_555 1_555
N14 C43_2 1_555 1_555
N10_2 C34_2 1_555 1_555
N16 C40_2 1_555 1_555
N12_2 C36_2 1_555 1_555
O7_2 C50_2 1_555 1_555
O8_2 C50_2 1_555 1_555
O9_2 Zn2_3 1_555 1_555
O10_2 C46_2 1_555 1_555
O14 C60_2 1_555 1_555
O12_2 C60_2 1_555 1_555
C31_2 H20_2 1_555 1_555
C32_2 C31_2 1_555 1_555
C33_2 C32_2 1_555 1_555
H21_2 C33_2 1_555 1_555
C34_2 C33_2 1_555 1_555
C35_2 C34_2 1_555 1_555
H22_2 C35_2 1_555 1_555
C36_2 C31_2 1_555 1_555
H23_2 C37_2 1_555 1_555
C40_2 N12_2 1_555 1_555
H26_2 C40_2 1_555 1_555
C41_2 N12_2 1_555 1_555
H27_2 C41_2 1_555 1_555
C42_2 N16 1_555 1_555
H28_2 C42_2 1_555 1_555
C43_2 N10_2 1_555 1_555
H29_2 C43_2 1_555 1_555
C44_2 N14 1_555 1_555
C45_2 N10_2 1_555 1_555
C46_2 O9_2 1_555 1_555
C47_2 C46_2 1_555 1_555
C48_2 C47_2 1_555 1_555
H32_2 C48_2 1_555 1_555
C49_2 C47_2 1_555 1_555
H33_2 C49_2 1_555 1_555
C50_2 C51_2 1_555 1_555
C51_2 C49_2 1_555 1_555
C52_2 C51_2 1_555 1_555
H34_2 C52_2 1_555 1_555
C53_2 C48_2 1_555 1_555
C54_2 C53_2 1_555 1_555
C55_2 C54_2 1_555 1_555
H35_2 C55_2 1_555 1_555
C56_2 C54_2 1_555 1_555
H36_2 C56_2 1_555 1_555
C57_2 C55_2 1_555 1_555
H37_2 C57_2 1_555 1_555
C58_2 C56_2 1_555 1_555
H38_2 C58_2 1_555 1_555
C59_2 C57_2 1_555 1_555
C60_2 C59_2 1_555 1_555
C8_2 C9_2 1_555 1_555
N8_2 C37_2 1_555 1_555
C35_2 C36_2 1_555 1_555
C41_2 C42_2 1_555 1_555
C44_2 C45_2 1_555 1_555
C52_2 C53_2 1_555 1_555
C58_2 C59_2 1_555 1_555
Zn2_4 N1_3 1_555 1_555
C8_3 N1_3 1_555 1_555
H5_3 C8_3 1_555 1_555
H6_3 C9_3 1_555 1_555
Zn5_2 O7_3 1_555 1_555
N8_3 C32_3 1_555 1_555
N9_2 C43_3 1_555 1_555
N10_3 C34_3 1_555 1_555
N11_2 C40_3 1_555 1_555
N12_3 C36_3 1_555 1_555
O7_3 C50_3 1_555 1_555
O8_3 C50_3 1_555 1_555
O9_3 Zn2_4 1_555 1_555
O10_3 C46_3 1_555 1_555
O11_2 C60_3 1_555 1_555
O12_3 C60_3 1_555 1_555
C31_3 H20_3 1_555 1_555
C32_3 C31_3 1_555 1_555
C33_3 C32_3 1_555 1_555
H21_3 C33_3 1_555 1_555
C34_3 C33_3 1_555 1_555
C35_3 C34_3 1_555 1_555
H22_3 C35_3 1_555 1_555
C36_3 C31_3 1_555 1_555
H23_3 C37_3 1_555 1_555
C40_3 N12_3 1_555 1_555
H26_3 C40_3 1_555 1_555
C41_3 N12_3 1_555 1_555
H27_3 C41_3 1_555 1_555
C42_3 N11_2 1_555 1_555
H28_3 C42_3 1_555 1_555
C43_3 N10_3 1_555 1_555
H29_3 C43_3 1_555 1_555
C44_3 N9_2 1_555 1_555
C45_3 N10_3 1_555 1_555
C46_3 O9_3 1_555 1_555
C47_3 C46_3 1_555 1_555
C48_3 C47_3 1_555 1_555
H32_3 C48_3 1_555 1_555
C49_3 C47_3 1_555 1_555
H33_3 C49_3 1_555 1_555
C50_3 C51_3 1_555 1_555
C51_3 C49_3 1_555 1_555
C52_3 C51_3 1_555 1_555
H34_3 C52_3 1_555 1_555
C53_3 C48_3 1_555 1_555
C54_3 C53_3 1_555 1_555
C55_3 C54_3 1_555 1_555
H35_3 C55_3 1_555 1_555
C56_3 C54_3 1_555 1_555
H36_3 C56_3 1_555 1_555
C57_3 C55_3 1_555 1_555
H37_3 C57_3 1_555 1_555
C58_3 C56_3 1_555 1_555
H38_3 C58_3 1_555 1_555
C59_3 C57_3 1_555 1_555
C60_3 C59_3 1_555 1_555
Zn7_2 O11_2 1_555 1_555
Zn9_2 N11_2 1_555 1_555
N16_2 Zn5_2 1_555 1_555
O13_2 Zn5_2 1_555 1_555
C8_3 C9_3 1_555 1_555
N8_3 C37_3 1_555 1_555
C35_3 C36_3 1_555 1_555
C41_3 C42_3 1_555 1_555
C44_3 C45_3 1_555 1_555
C52_3 C53_3 1_555 1_555
C58_3 C59_3 1_555 1_555
N3_2 C13_3 1_555 1_555
C14_3 N3_2 1_555 1_555
N15_2 Zn4_2 1_555 1_555
O14_2 Zn4_2 1_555 1_555
C14_3 C15_3 1_555 1_555
N2_3 C2_3 1_555 1_555
N4_3 C4_3 1_555 1_555
N5_2 C10_3 1_555 1_555
N6_3 C6_3 1_555 1_555
O1_3 C20_3 1_555 1_555
O2_3 C20_3 1_555 1_555
O3_3 Zn2_5 1_555 1_555
O4_3 C16_3 1_555 1_555
O5_2 C30_3 1_555 1_555
O6_3 C30_3 1_555 1_555
C1_3 H1_3 1_555 1_555
C2_3 C1_3 1_555 1_555
C3_3 C2_3 1_555 1_555
H2_3 C3_3 1_555 1_555
C4_3 C3_3 1_555 1_555
C5_3 C4_3 1_555 1_555
H3_3 C5_3 1_555 1_555
C6_3 C1_3 1_555 1_555
C7_3 N2_3 1_555 1_555
H4_3 C7_3 1_555 1_555
C10_3 N6_3 1_555 1_555
H7_3 C10_3 1_555 1_555
C11_3 N6_3 1_555 1_555
H8_3 C11_3 1_555 1_555
C12_3 N5_2 1_555 1_555
H9_3 C12_3 1_555 1_555
C16_3 O3_3 1_555 1_555
C17_3 C16_3 1_555 1_555
C18_3 C17_3 1_555 1_555
H13_3 C18_3 1_555 1_555
C19_3 C17_3 1_555 1_555
H14_3 C19_3 1_555 1_555
C20_3 C21_3 1_555 1_555
C21_3 C19_3 1_555 1_555
C22_3 C21_3 1_555 1_555
H15_3 C22_3 1_555 1_555
C23_3 C18_3 1_555 1_555
C24_3 C23_3 1_555 1_555
C25_3 C24_3 1_555 1_555
H16_3 C25_3 1_555 1_555
C26_3 C24_3 1_555 1_555
H17_3 C26_3 1_555 1_555
C27_3 C25_3 1_555 1_555
H18_3 C27_3 1_555 1_555
C28_3 C26_3 1_555 1_555
H19_3 C28_3 1_555 1_555
C29_3 C27_3 1_555 1_555
C30_3 C29_3 1_555 1_555
N7_3 Zn2_5 1_555 1_555
C38_3 N7_3 1_555 1_555
H24_3 C38_3 1_555 1_555
H25_3 C39_3 1_555 1_555
Zn7_2 N5_2 1_555 1_555
Zn9_2 O5_2 1_555 1_555
C5_3 C6_3 1_555 1_555
C11_3 C12_3 1_555 1_555
C22_3 C23_3 1_555 1_555
C28_3 C29_3 1_555 1_555
C38_3 C39_3 1_555 1_555
O13_2 C30_4 1_555 1_555
O6_4 C30_4 1_555 1_555
Zn2_6 N1_4 1_555 1_555
N1_4 C7_4 1_555 1_555
O1_4 C20_4 1_555 1_555
O2_4 C20_4 1_555 1_555
O3_4 Zn2_6 1_555 1_555
O4_4 C16_4 1_555 1_555
C1_4 H1_4 1_555 1_555
C7_4 N2_4 1_555 1_555
H4_4 C7_4 1_555 1_555
C8_4 N1_4 1_555 1_555
H5_4 C8_4 1_555 1_555
C9_4 N2_4 1_555 1_555
H8_4 C11_4 1_555 1_555
C12_4 N15_2 1_555 1_555
H9_4 C12_4 1_555 1_555
C16_4 O3_4 1_555 1_555
C17_4 C16_4 1_555 1_555
C18_4 C17_4 1_555 1_555
H13_4 C18_4 1_555 1_555
C19_4 C17_4 1_555 1_555
H14_4 C19_4 1_555 1_555
C20_4 C21_4 1_555 1_555
C21_4 C19_4 1_555 1_555
C22_4 C21_4 1_555 1_555
H15_4 C22_4 1_555 1_555
C23_4 C18_4 1_555 1_555
C24_4 C23_4 1_555 1_555
C25_4 C24_4 1_555 1_555
H16_4 C25_4 1_555 1_555
C26_4 C24_4 1_555 1_555
H17_4 C26_4 1_555 1_555
C27_4 C25_4 1_555 1_555
H18_4 C27_4 1_555 1_555
C28_4 C26_4 1_555 1_555
H19_4 C28_4 1_555 1_555
C29_4 C27_4 1_555 1_555
Zn9_2 O7_4 1_555 1_555
N7_4 Zn2_6 1_555 1_555
O7_4 C50_4 1_555 1_555
O8_4 C50_4 1_555 1_555
O9_4 Zn2_6 1_555 1_555
O10_4 C46_4 1_555 1_555
C31_4 H20_4 1_555 1_555
C37_4 N7_4 1_555 1_555
H23_4 C37_4 1_555 1_555
C38_4 N7_4 1_555 1_555
H24_4 C38_4 1_555 1_555
C39_4 N8_4 1_555 1_555
H27_4 C41_4 1_555 1_555
C42_4 N16_2 1_555 1_555
H28_4 C42_4 1_555 1_555
C46_4 O9_4 1_555 1_555
C47_4 C46_4 1_555 1_555
C48_4 C47_4 1_555 1_555
H32_4 C48_4 1_555 1_555
C49_4 C47_4 1_555 1_555
H33_4 C49_4 1_555 1_555
C50_4 C51_4 1_555 1_555
C51_4 C49_4 1_555 1_555
C52_4 C51_4 1_555 1_555
H34_4 C52_4 1_555 1_555
C53_4 C48_4 1_555 1_555
C54_4 C53_4 1_555 1_555
C55_4 C54_4 1_555 1_555
H35_4 C55_4 1_555 1_555
C56_4 C54_4 1_555 1_555
H36_4 C56_4 1_555 1_555
C57_4 C55_4 1_555 1_555
H37_4 C57_4 1_555 1_555
C58_4 C56_4 1_555 1_555
H38_4 C58_4 1_555 1_555
C59_4 C57_4 1_555 1_555
N14_2 Zn9_2 1_555 1_555
C8_4 C9_4 1_555 1_555
C11_4 C12_4 1_555 1_555
C22_4 C23_4 1_555 1_555
C28_4 C29_4 1_555 1_555
N8_4 C37_4 1_555 1_555
C38_4 C39_4 1_555 1_555
C41_4 C42_4 1_555 1_555
C52_4 C53_4 1_555 1_555
C58_4 C59_4 1_555 1_555
N13_2 Zn7_2 1_555 1_555
N4_4 C4_4 1_555 1_555
N6_4 C6_4 1_555 1_555
C3_4 C2_4 1_555 1_555
H2_4 C3_4 1_555 1_555
C4_4 C3_4 1_555 1_555
C5_4 C4_4 1_555 1_555
H3_4 C5_4 1_555 1_555
C10_4 N6_4 1_555 1_555
H7_4 C10_4 1_555 1_555
N14_2 C43_4 1_555 1_555
N10_4 C34_4 1_555 1_555
N12_4 C36_4 1_555 1_555
C33_4 C32_4 1_555 1_555
H21_4 C33_4 1_555 1_555
C34_4 C33_4 1_555 1_555
C35_4 C34_4 1_555 1_555
H22_4 C35_4 1_555 1_555
C40_4 N12_4 1_555 1_555
H26_4 C40_4 1_555 1_555
C43_4 N10_4 1_555 1_555
H29_4 C43_4 1_555 1_555
C44_4 N14_2 1_555 1_555
H30_4 C44_4 1_555 1_555
C45_4 N10_4 1_555 1_555
H31_4 C45_4 1_555 1_555
C5_4 C6_4 1_555 1_555
C35_4 C36_4 1_555 1_555
C44_4 C45_4 1_555 1_555
N13_2 C13_4 1_555 1_555
C14_4 N13_2 1_555 1_555
H11_2 C14_4 1_555 1_555
H12_2 C15_4 1_555 1_555
C14_4 C15_4 1_555 1_555
O14_2 C60_4 1_555 1_555
O12_4 C60_4 1_555 1_555

#END
