
###############################################################################
#
# This file contains modified crystal structure data generated from the
# MOF subset of the Cambridge Structural Database (CSD) v543 
# hosted by the Cambridge Crystallographic Data Centre (CCDC).
#
# This work is licensed under the Creative Commons
# Attribution-NonCommercial-ShareAlike 4.0 International License.
# To view a copy of this license, visit
# http://creativecommons.org/licenses/by-nc-sa/4.0/
# or send a letter to
# Creative Commons, PO Box 1866, Mountain View, CA 94042, USA.
#
# CIF created using the CSD Python API on 29 September 2022
# The structure has been converted into the P1 space group
# The structure has a 3D framework
# The original CSD entry MEZNEN is in the monoclinic crystal system
# The framework has been calculated to contain at least 10.0% void space
# The void calculation uses a probe of radius 1.32A, grid spacing 0.4
#
###############################################################################

data_MEZNEN
_chemical_formula_moiety         '(C240 H168 N44 O52 Zn14)n'
_symmetry_cell_setting           triclinic
_symmetry_space_group_name_H-M   'P 1'
_symmetry_Int_Tables_number      1
_space_group_name_Hall           'P 1'
loop_
_symmetry_equiv_pos_site_id
_symmetry_equiv_pos_as_xyz
1 x,y,z
_cell_length_a                   24.708(6)
_cell_length_b                   13.826(3)
_cell_length_c                   24.437(5)
_cell_angle_alpha                90
_cell_angle_beta                 113.117(4)
_cell_angle_gamma                90
_cell_volume                     7677.69
loop_
_atom_site_label
_atom_site_type_symbol
_atom_site_fract_x
_atom_site_fract_y
_atom_site_fract_z
Zn2 Zn 0.11403(2) 0.15391(3) 0.55005(2)
O5 O 0.02782(19) 0.2183(3) 0.5365(2)
O6 O 0.0360(2) 0.3567(4) 0.4941(2)
O7 O 0.1467(2) 0.2969(4) 0.5234(3)
H1 H 0.1222 0.3507 0.5127
H2 H 0.1843 0.3002 0.5233
C30 C 0.0079(2) 0.2970(4) 0.5104(2)
N14 N 0.0809(2) 0.0108(4) 0.5790(2)
N15 N 0.1677(2) 0.1838(4) 0.6486(2)
O15 O 0.11031(18) 0.0743(3) 0.46466(18)
O17 O 0.19554(17) 0.0570(4) 0.54342(18)
Zn1 Zn 0.5000 0.20570(4) 0.2500
N1 N 0.5268(2) 0.1002(4) 0.1965(2)
O1 O 0.5580(2) 0.3042(4) 0.3160(2)
O2 O 0.6226(2) 0.1873(3) 0.3257(2)
O3 O 0.61031(18) 0.5743(3) 0.46466(18)
O4 O 0.69554(17) 0.5570(4) 0.54342(18)
C7 C 0.5703(3) 0.0329(5) 0.2180(2)
H6 H 0.5998 0.0333 0.2560
C8 C 0.4928(3) 0.0732(5) 0.1394(3)
H7 H 0.4594 0.1058 0.1141
C16 C 0.6106(3) 0.2680(5) 0.3404(2)
C17 C 0.6554(2) 0.3285(4) 0.3867(2)
C18 C 0.7144(2) 0.3083(4) 0.4049(2)
H15 H 0.7258 0.2541 0.3896
C19 C 0.6376(2) 0.4093(4) 0.4113(2)
H16 H 0.5982 0.4274 0.3972
C20 C 0.7585(2) 0.3674(4) 0.4461(2)
C21 C 0.6809(2) 0.4623(4) 0.4577(2)
C22 C 0.7399(2) 0.4429(4) 0.4727(2)
H17 H 0.7679 0.4810 0.5013
C23 C 0.6623(2) 0.5382(4) 0.4902(2)
C24 C 0.8230(2) 0.3495(4) 0.4634(2)
C25 C 0.8464(2) 0.2552(4) 0.4766(2)
H18 H 0.8215 0.2032 0.4734
C26 C 0.8602(2) 0.4249(4) 0.4659(3)
H19 H 0.8453 0.4874 0.4577
C27 C 0.9044(2) 0.2402(4) 0.4938(2)
H20 H 0.9193 0.1783 0.5051
C28 C 0.9200(2) 0.4085(5) 0.4806(2)
H21 H 0.9445 0.4596 0.4807
C29 C 0.9431(2) 0.3150(4) 0.4951(2)
N7 N 0.4732(2) 0.1002(4) 0.3035(2)
O8 O 0.4420(2) 0.3042(4) 0.1840(2)
O9 O 0.3774(2) 0.1873(3) 0.1743(2)
O10 O 0.38969(18) 0.5743(3) 0.03534(18)
C37 C 0.4297(3) 0.0329(5) 0.2820(2)
H27 H 0.4002 0.0333 0.2440
C38 C 0.5072(3) 0.0732(5) 0.3606(3)
H28 H 0.5406 0.1058 0.3859
C46 C 0.3894(3) 0.2680(5) 0.1596(2)
C47 C 0.3446(2) 0.3285(4) 0.1133(2)
C48 C 0.2856(2) 0.3083(4) 0.0951(2)
H36 H 0.2742 0.2541 0.1104
C49 C 0.3624(2) 0.4093(4) 0.0887(2)
H37 H 0.4018 0.4274 0.1028
C50 C 0.2415(2) 0.3674(4) 0.0539(2)
C51 C 0.3191(2) 0.4623(4) 0.0423(2)
C52 C 0.2601(2) 0.4429(4) 0.0273(2)
C53 C 0.3377(2) 0.5382(4) 0.0098(2)
C54 C 0.1770(2) 0.3495(4) 0.0366(2)
C55 C 0.1536(2) 0.2552(4) 0.0234(2)
H39 H 0.1785 0.2032 0.0266
C56 C 0.1398(2) 0.4249(4) 0.0341(3)
H40 H 0.1547 0.4874 0.0423
C57 C 0.0956(2) 0.2402(4) 0.0062(2)
C58 C 0.0800(2) 0.4085(5) 0.0194(2)
H42 H 0.0555 0.4596 0.0193
C59 C 0.0569(2) 0.3150(4) 0.0049(2)
Zn4 Zn 0.61403(2) 0.65391(3) 0.55005(2)
O11 O 0.30446(17) 0.5570(4) 0.95658(18)
H38 H 0.2321 0.4810 0.9987
H41 H 0.0807 0.1783 0.9949
Zn5 Zn 0.38597(2) 0.65391(3) 0.94995(2)
N2 N 0.5640(2) 0.9647(4) 0.1754(2)
N3 N 0.5809(2) 0.4892(4) 0.0790(2)
N4 N 0.5856(2) 0.6306(3) 0.1242(2)
N5 N 0.8323(2) 0.8162(4) 0.3514(2)
N6 N 0.7535(2) 0.8004(4) 0.2662(2)
C1 C 0.6594(3) 0.8851(5) 0.2203(3)
H3 H 0.6761 0.9412 0.2410
C2 C 0.6002(3) 0.8821(4) 0.1829(2)
C3 C 0.5742(3) 0.7978(4) 0.1500(2)
H4 H 0.5344 0.7961 0.1253
C4 C 0.6108(3) 0.7162(4) 0.1560(2)
C5 C 0.6698(3) 0.7175(4) 0.1945(2)
H5 H 0.6931 0.6629 0.1989
C6 C 0.6934(3) 0.8008(4) 0.2263(2)
C9 C 0.5153(3) 0.9904(6) 0.1249(3)
H8 H 0.5008 0.9582 0.0886
C10 C 0.6159(3) 0.5609(4) 0.1076(2)
H9 H 0.6559 0.5638 0.1156
C11 C 0.5286(3) 0.6002(5) 0.1044(3)
H10 H 0.4974 0.6333 0.1081
C12 C 0.5258(3) 0.5121(5) 0.0779(3)
H11 H 0.4924 0.4737 0.0618
C13 C 0.7756(2) 0.8393(5) 0.3216(3)
H12 H 0.7540 0.8775 0.3371
C14 C 0.8478(3) 0.7620(6) 0.3138(3)
H13 H 0.8851 0.7365 0.3224
C15 C 0.7993(3) 0.7501(6) 0.2599(3)
H14 H 0.7981 0.7157 0.2267
N8 N 0.4360(2) 0.9647(4) 0.3246(2)
N9 N 0.4191(2) 0.4892(4) 0.4210(2)
N10 N 0.4144(2) 0.6306(3) 0.3758(2)
N11 N 0.1677(2) 0.8162(4) 0.1486(2)
N12 N 0.2465(2) 0.8004(4) 0.2338(2)
C31 C 0.3406(3) 0.8851(5) 0.2797(3)
H24 H 0.3239 0.9412 0.2590
C32 C 0.3998(3) 0.8821(4) 0.3171(2)
C33 C 0.4258(3) 0.7978(4) 0.3500(2)
H25 H 0.4656 0.7961 0.3747
C34 C 0.3892(3) 0.7162(4) 0.3440(2)
C35 C 0.3302(3) 0.7175(4) 0.3055(2)
H26 H 0.3069 0.6629 0.3011
C36 C 0.3066(3) 0.8008(4) 0.2737(2)
C39 C 0.4847(3) 0.9904(6) 0.3751(3)
H29 H 0.4992 0.9582 0.4114
C40 C 0.3841(3) 0.5609(4) 0.3924(2)
H30 H 0.3441 0.5638 0.3844
C41 C 0.4714(3) 0.6002(5) 0.3956(3)
H31 H 0.5026 0.6333 0.3919
C42 C 0.4742(3) 0.5121(5) 0.4221(3)
H32 H 0.5076 0.4737 0.4382
C43 C 0.2244(2) 0.8393(5) 0.1784(3)
H33 H 0.2460 0.8775 0.1629
C44 C 0.1522(3) 0.7620(6) 0.1862(3)
H34 H 0.1149 0.7365 0.1776
C45 C 0.2007(3) 0.7501(6) 0.2401(3)
H35 H 0.2019 0.7157 0.2733
Zn6 Zn 0.88597(2) 0.84609(3) 0.44995(2)
Zn7 Zn 0.11403(2) 0.84609(3) 0.05005(2)
Zn8 Zn 0.38597(2) 0.34609(3) 0.44995(2)
Zn9 Zn 0.61403(2) 0.34609(3) 0.05005(2)
Zn3 Zn 0.88597(2) 0.15391(3) 0.94995(2)
O12 O 0.97218(19) 0.2183(3) 0.9635(2)
O14 O 0.8533(2) 0.2969(4) 0.9766(3)
H22 H 0.8778 0.3507 0.9873
H23 H 0.8157 0.3002 0.9767
C60 C 0.9921(2) 0.2970(4) 0.9896(2)
N13 N 0.9191(2) 0.0108(4) 0.9210(2)
N16 N 0.8323(2) 0.1838(4) 0.8514(2)
O18 O 0.80446(17) 0.0570(4) 0.95658(18)
C23_2 C 0.1623(2) 0.0382(4) 0.4902(2)
Zn1_2 Zn 0.0000 0.70570(4) 0.2500
N1_2 N 0.0268(2) 0.6002(4) 0.1965(2)
N2_2 N 0.0640(2) 0.4647(4) 0.1754(2)
N4_2 N 0.0856(2) 0.1306(3) 0.1242(2)
N5_2 N 0.3323(2) 0.3162(4) 0.3514(2)
N6_2 N 0.2535(2) 0.3004(4) 0.2662(2)
O1_2 O 0.0580(2) 0.8042(4) 0.3160(2)
O2_2 O 0.1226(2) 0.6873(3) 0.3257(2)
O5_2 O 0.52782(19) 0.7183(3) 0.5365(2)
O6_2 O 0.5360(2) 0.8567(4) 0.4941(2)
O7_2 O 0.6467(2) 0.7969(4) 0.5234(3)
H1_2 H 0.6222 0.8507 0.5127
H2_2 H 0.6843 0.8002 0.5233
C1_2 C 0.1594(3) 0.3851(5) 0.2203(3)
H3_2 H 0.1761 0.4412 0.2410
C2_2 C 0.1002(3) 0.3821(4) 0.1829(2)
C3_2 C 0.0742(3) 0.2978(4) 0.1500(2)
H4_2 H 0.0344 0.2961 0.1253
C4_2 C 0.1108(3) 0.2162(4) 0.1560(2)
C5_2 C 0.1698(3) 0.2175(4) 0.1945(2)
H5_2 H 0.1931 0.1629 0.1989
C6_2 C 0.1934(3) 0.3008(4) 0.2263(2)
C7_2 C 0.0703(3) 0.5329(5) 0.2180(2)
H6_2 H 0.0998 0.5333 0.2560
C9_2 C 0.0153(3) 0.4904(6) 0.1249(3)
H8_2 H 0.0008 0.4582 0.0886
C10_2 C 0.1159(3) 0.0609(4) 0.1076(2)
H9_2 H 0.1559 0.0638 0.1156
C11_2 C 0.0286(3) 0.1002(5) 0.1044(3)
C12_2 C 0.0258(3) 0.0121(5) 0.0779(3)
C13_2 C 0.2756(2) 0.3393(5) 0.3216(3)
H12_2 H 0.2540 0.3775 0.3371
C14_2 C 0.3478(3) 0.2620(6) 0.3138(3)
H13_2 H 0.3851 0.2365 0.3224
C15_2 C 0.2993(3) 0.2501(6) 0.2599(3)
H14_2 H 0.2981 0.2157 0.2267
C16_2 C 0.1106(3) 0.7680(5) 0.3404(2)
C17_2 C 0.1554(2) 0.8285(4) 0.3867(2)
C18_2 C 0.2144(2) 0.8083(4) 0.4049(2)
H15_2 H 0.2258 0.7541 0.3896
C19_2 C 0.1376(2) 0.9093(4) 0.4113(2)
H16_2 H 0.0982 0.9274 0.3972
C20_2 C 0.2585(2) 0.8674(4) 0.4461(2)
C21_2 C 0.1809(2) 0.9623(4) 0.4577(2)
C22_2 C 0.2399(2) 0.9429(4) 0.4727(2)
H17_2 H 0.2679 0.9810 0.5013
C24_2 C 0.3230(2) 0.8495(4) 0.4634(2)
C25_2 C 0.3464(2) 0.7552(4) 0.4766(2)
H18_2 H 0.3215 0.7032 0.4734
C26_2 C 0.3602(2) 0.9249(4) 0.4659(3)
H19_2 H 0.3453 0.9874 0.4577
C27_2 C 0.4044(2) 0.7402(4) 0.4938(2)
H20_2 H 0.4193 0.6783 0.5051
C28_2 C 0.4200(2) 0.9085(5) 0.4806(2)
H21_2 H 0.4445 0.9596 0.4807
C29_2 C 0.4431(2) 0.8150(4) 0.4951(2)
C30_2 C 0.5079(2) 0.7970(4) 0.5104(2)
C38_2 C 0.0072(3) 0.5732(5) 0.3606(3)
H28_2 H 0.0406 0.6058 0.3859
H31_2 H 0.0026 0.1333 0.3919
N14_2 N 0.5809(2) 0.5108(4) 0.5790(2)
N15_2 N 0.6677(2) 0.6838(4) 0.6486(2)
N3_2 N 0.0809(2) 0.9892(4) 0.0790(2)
H32_2 H 0.0076 0.9737 0.4382
Zn1_3 Zn 1.0000 0.70570(4) 0.2500
C8_2 C 0.9928(3) 0.5732(5) 0.1394(3)
H7_2 H 0.9594 0.6058 0.1141
H10_2 H 0.9974 0.1333 0.1081
N7_2 N 0.9732(2) 0.6002(4) 0.3035(2)
N8_2 N 0.9360(2) 0.4647(4) 0.3246(2)
N10_2 N 0.9144(2) 0.1306(3) 0.3758(2)
N11_2 N 0.6677(2) 0.3162(4) 0.1486(2)
N12_2 N 0.7465(2) 0.3004(4) 0.2338(2)
O8_2 O 0.9420(2) 0.8042(4) 0.1840(2)
O9_2 O 0.8774(2) 0.6873(3) 0.1743(2)
O13 O 0.4640(2) 0.8567(4) 0.0059(2)
C31_2 C 0.8406(3) 0.3851(5) 0.2797(3)
H24_2 H 0.8239 0.4412 0.2590
C32_2 C 0.8998(3) 0.3821(4) 0.3171(2)
C33_2 C 0.9258(3) 0.2978(4) 0.3500(2)
H25_2 H 0.9656 0.2961 0.3747
C34_2 C 0.8892(3) 0.2162(4) 0.3440(2)
C35_2 C 0.8302(3) 0.2175(4) 0.3055(2)
H26_2 H 0.8069 0.1629 0.3011
C36_2 C 0.8066(3) 0.3008(4) 0.2737(2)
C37_2 C 0.9297(3) 0.5329(5) 0.2820(2)
H27_2 H 0.9002 0.5333 0.2440
C39_2 C 0.9847(3) 0.4904(6) 0.3751(3)
H29_2 H 0.9992 0.4582 0.4114
C40_2 C 0.8841(3) 0.0609(4) 0.3924(2)
H30_2 H 0.8441 0.0638 0.3844
C41_2 C 0.9714(3) 0.1002(5) 0.3956(3)
C42_2 C 0.9742(3) 0.0121(5) 0.4221(3)
C43_2 C 0.7244(2) 0.3393(5) 0.1784(3)
H33_2 H 0.7460 0.3775 0.1629
C44_2 C 0.6522(3) 0.2620(6) 0.1862(3)
H34_2 H 0.6149 0.2365 0.1776
C45_2 C 0.7007(3) 0.2501(6) 0.2401(3)
H35_2 H 0.7019 0.2157 0.2733
C46_2 C 0.8894(3) 0.7680(5) 0.1596(2)
C47_2 C 0.8446(2) 0.8285(4) 0.1133(2)
C48_2 C 0.7856(2) 0.8083(4) 0.0951(2)
H36_2 H 0.7742 0.7541 0.1104
C49_2 C 0.8624(2) 0.9093(4) 0.0887(2)
H37_2 H 0.9018 0.9274 0.1028
C50_2 C 0.7415(2) 0.8674(4) 0.0539(2)
C51_2 C 0.8191(2) 0.9623(4) 0.0423(2)
C52_2 C 0.7601(2) 0.9429(4) 0.0273(2)
C54_2 C 0.6770(2) 0.8495(4) 0.0366(2)
C55_2 C 0.6536(2) 0.7552(4) 0.0234(2)
H39_2 H 0.6785 0.7032 0.0266
C56_2 C 0.6398(2) 0.9249(4) 0.0341(3)
H40_2 H 0.6547 0.9874 0.0423
C57_2 C 0.5956(2) 0.7402(4) 0.0062(2)
C58_2 C 0.5800(2) 0.9085(5) 0.0194(2)
H42_2 H 0.5555 0.9596 0.0193
C59_2 C 0.5569(2) 0.8150(4) 0.0049(2)
O12_2 O 0.47218(19) 0.7183(3) 0.9635(2)
O14_2 O 0.3533(2) 0.7969(4) 0.9766(3)
H22_2 H 0.3778 0.8507 0.9873
H23_2 H 0.3157 0.8002 0.9767
H38_2 H 0.7321 0.9810 0.9987
H41_2 H 0.5807 0.6783 0.9949
C60_2 C 0.4921(2) 0.7970(4) 0.9896(2)
N13_2 N 0.4191(2) 0.5108(4) 0.9210(2)
N16_2 N 0.3323(2) 0.6838(4) 0.8514(2)
H11_2 H 0.9924 0.9737 0.0618
N9_2 N 0.9191(2) 0.9892(4) 0.4210(2)
O12_3 O 0.02782(19) 0.7817(3) 0.0365(2)
O14_3 O 0.1467(2) 0.7031(4) 0.0234(3)
H22_3 H 0.1222 0.6493 0.0127
H23_3 H 0.1843 0.6998 0.0233
C60_3 C 0.0079(2) 0.7030(4) 0.0104(2)
O18_2 O 0.19554(17) 0.9430(4) 0.04342(18)
N2_3 N 0.4360(2) 0.0353(4) 0.8246(2)
N4_3 N 0.4144(2) 0.3694(3) 0.8758(2)
N6_3 N 0.2465(2) 0.1996(4) 0.7338(2)
C1_3 C 0.3406(3) 0.1149(5) 0.7797(3)
H3_3 H 0.3239 0.0588 0.7590
C2_3 C 0.3998(3) 0.1179(4) 0.8171(2)
C3_3 C 0.4258(3) 0.2022(4) 0.8500(2)
H4_3 H 0.4656 0.2039 0.8747
C4_3 C 0.3892(3) 0.2838(4) 0.8440(2)
C5_3 C 0.3302(3) 0.2825(4) 0.8055(2)
H5_3 H 0.3069 0.3371 0.8011
C6_3 C 0.3066(3) 0.1992(4) 0.7737(2)
C9_3 C 0.4847(3) 0.0096(6) 0.8751(3)
H8_3 H 0.4992 0.0418 0.9114
C10_3 C 0.3841(3) 0.4391(4) 0.8924(2)
H9_3 H 0.3441 0.4362 0.8844
C11_3 C 0.4714(3) 0.3998(5) 0.8956(3)
H10_3 H 0.5026 0.3667 0.8919
C12_3 C 0.4742(3) 0.4879(5) 0.9221(3)
H11_3 H 0.5076 0.5263 0.9382
C13_3 C 0.2244(2) 0.1607(5) 0.6784(3)
H12_3 H 0.2460 0.1225 0.6629
C14_3 C 0.1522(3) 0.2380(6) 0.6862(3)
H13_3 H 0.1149 0.2635 0.6776
C15_3 C 0.2007(3) 0.2499(6) 0.7401(3)
H14_3 H 0.2019 0.2843 0.7733
N8_3 N 0.5640(2) 0.0353(4) 0.6754(2)
N10_3 N 0.5856(2) 0.3694(3) 0.6242(2)
N12_3 N 0.7535(2) 0.1996(4) 0.7662(2)
C31_3 C 0.6594(3) 0.1149(5) 0.7203(3)
H24_3 H 0.6761 0.0588 0.7410
C32_3 C 0.6002(3) 0.1179(4) 0.6829(2)
C33_3 C 0.5742(3) 0.2022(4) 0.6500(2)
H25_3 H 0.5344 0.2039 0.6253
C34_3 C 0.6108(3) 0.2838(4) 0.6560(2)
C35_3 C 0.6698(3) 0.2825(4) 0.6945(2)
H26_3 H 0.6931 0.3371 0.6989
C36_3 C 0.6934(3) 0.1992(4) 0.7263(2)
C39_3 C 0.5153(3) 0.0096(6) 0.6249(3)
H29_3 H 0.5008 0.0418 0.5886
C40_3 C 0.6159(3) 0.4391(4) 0.6076(2)
H30_3 H 0.6559 0.4362 0.6156
C41_3 C 0.5286(3) 0.3998(5) 0.6044(3)
H31_3 H 0.4974 0.3667 0.6081
C42_3 C 0.5258(3) 0.4879(5) 0.5779(3)
H32_3 H 0.4924 0.5263 0.5618
C43_3 C 0.7756(2) 0.1607(5) 0.8216(3)
H33_3 H 0.7540 0.1225 0.8371
C44_3 C 0.8478(3) 0.2380(6) 0.8138(3)
H34_3 H 0.8851 0.2635 0.8224
C45_3 C 0.7993(3) 0.2499(6) 0.7599(3)
H35_3 H 0.7981 0.2843 0.7267
O11_2 O 0.69554(17) 0.4430(4) 0.04342(18)
H38_3 H 0.7679 0.5190 0.0013
H41_3 H 0.9193 0.8217 0.0051
Zn1_4 Zn 0.5000 0.79430(4) 0.7500
N1_3 N 0.4732(2) 0.8998(4) 0.8035(2)
O1_3 O 0.4420(2) 0.6958(4) 0.6840(2)
O2_3 O 0.3774(2) 0.8127(3) 0.6743(2)
O3_2 O 0.38969(18) 0.4257(3) 0.53534(18)
O4_2 O 0.30446(17) 0.4430(4) 0.45658(18)
C7_3 C 0.4297(3) 0.9671(5) 0.7820(2)
H6_3 H 0.4002 0.9667 0.7440
C8_3 C 0.5072(3) 0.9268(5) 0.8606(3)
H7_3 H 0.5406 0.8942 0.8859
C16_3 C 0.3894(3) 0.7320(5) 0.6596(2)
C17_3 C 0.3446(2) 0.6715(4) 0.6133(2)
C18_3 C 0.2856(2) 0.6917(4) 0.5951(2)
H15_3 H 0.2742 0.7459 0.6104
C19_3 C 0.3624(2) 0.5907(4) 0.5887(2)
H16_3 H 0.4018 0.5726 0.6028
C20_3 C 0.2415(2) 0.6326(4) 0.5539(2)
C21_3 C 0.3191(2) 0.5377(4) 0.5423(2)
C22_3 C 0.2601(2) 0.5571(4) 0.5273(2)
H17_3 H 0.2321 0.5190 0.4987
C23_3 C 0.3377(2) 0.4618(4) 0.5098(2)
C24_3 C 0.1770(2) 0.6505(4) 0.5366(2)
C25_3 C 0.1536(2) 0.7448(4) 0.5234(2)
H18_3 H 0.1785 0.7968 0.5266
C26_3 C 0.1398(2) 0.5751(4) 0.5341(3)
H19_3 H 0.1547 0.5126 0.5423
C27_3 C 0.0956(2) 0.7598(4) 0.5062(2)
H20_3 H 0.0807 0.8217 0.4949
C28_3 C 0.0800(2) 0.5915(5) 0.5194(2)
H21_3 H 0.0555 0.5404 0.5193
C29_3 C 0.0569(2) 0.6850(4) 0.5049(2)
N7_3 N 0.5268(2) 0.8998(4) 0.6965(2)
O8_3 O 0.5580(2) 0.6958(4) 0.8160(2)
O9_3 O 0.6226(2) 0.8127(3) 0.8257(2)
O10_2 O 0.61031(18) 0.4257(3) 0.96466(18)
C37_3 C 0.5703(3) 0.9671(5) 0.7180(2)
H27_3 H 0.5998 0.9667 0.7560
C38_3 C 0.4928(3) 0.9268(5) 0.6394(3)
H28_3 H 0.4594 0.8942 0.6141
C46_3 C 0.6106(3) 0.7320(5) 0.8404(2)
C47_3 C 0.6554(2) 0.6715(4) 0.8867(2)
C48_3 C 0.7144(2) 0.6917(4) 0.9049(2)
H36_3 H 0.7258 0.7459 0.8896
C49_3 C 0.6376(2) 0.5907(4) 0.9113(2)
H37_3 H 0.5982 0.5726 0.8972
C50_3 C 0.7585(2) 0.6326(4) 0.9461(2)
C51_3 C 0.6809(2) 0.5377(4) 0.9577(2)
C52_3 C 0.7399(2) 0.5571(4) 0.9727(2)
C53_2 C 0.6623(2) 0.4618(4) 0.9902(2)
C54_3 C 0.8230(2) 0.6505(4) 0.9634(2)
C55_3 C 0.8464(2) 0.7448(4) 0.9766(2)
H39_3 H 0.8215 0.7968 0.9734
C56_3 C 0.8602(2) 0.5751(4) 0.9659(3)
H40_3 H 0.8453 0.5126 0.9577
C57_3 C 0.9044(2) 0.7598(4) 0.9938(2)
C58_3 C 0.9200(2) 0.5915(5) 0.9806(2)
H42_3 H 0.9445 0.5404 0.9807
C59_3 C 0.9431(2) 0.6850(4) 0.9951(2)
O5_3 O 0.97218(19) 0.7817(3) 0.4635(2)
O6_3 O 0.9640(2) 0.6433(4) 0.5059(2)
O7_3 O 0.8533(2) 0.7031(4) 0.4766(3)
H1_3 H 0.8778 0.6493 0.4873
H2_3 H 0.8157 0.6998 0.4767
C30_3 C 0.9921(2) 0.7030(4) 0.4896(2)
O15_2 O 0.88969(18) 0.9257(3) 0.53534(18)
O17_2 O 0.80446(17) 0.9430(4) 0.45658(18)
H11_4 H 0.0076 0.0263 0.9382
O12_4 O 0.52782(19) 0.2817(3) 0.0365(2)
O14_4 O 0.6467(2) 0.2031(4) 0.0234(3)
H22_4 H 0.6222 0.1493 0.0127
H23_4 H 0.6843 0.1998 0.0233
H38_4 H 0.2679 0.0190 0.0013
H41_4 H 0.4193 0.3217 0.0051
C60_4 C 0.5079(2) 0.2030(4) 0.0104(2)
Zn1_5 Zn 0.0000 0.29430(4) 0.7500
C8_4 C 0.0072(3) 0.4268(5) 0.8606(3)
H7_4 H 0.0406 0.3942 0.8859
H10_4 H 0.0026 0.8667 0.8919
N7_4 N 0.0268(2) 0.3998(4) 0.6965(2)
N8_4 N 0.0640(2) 0.5353(4) 0.6754(2)
N10_4 N 0.0856(2) 0.8694(3) 0.6242(2)
N12_4 N 0.2535(2) 0.6996(4) 0.7662(2)
O8_4 O 0.0580(2) 0.1958(4) 0.8160(2)
O9_4 O 0.1226(2) 0.3127(3) 0.8257(2)
O13_2 O 0.5360(2) 0.1433(4) 0.9941(2)
C31_4 C 0.1594(3) 0.6149(5) 0.7203(3)
H24_4 H 0.1761 0.5588 0.7410
C32_4 C 0.1002(3) 0.6179(4) 0.6829(2)
C33_4 C 0.0742(3) 0.7022(4) 0.6500(2)
H25_4 H 0.0344 0.7039 0.6253
C34_4 C 0.1108(3) 0.7838(4) 0.6560(2)
C35_4 C 0.1698(3) 0.7825(4) 0.6945(2)
H26_4 H 0.1931 0.8371 0.6989
C36_4 C 0.1934(3) 0.6992(4) 0.7263(2)
C37_4 C 0.0703(3) 0.4671(5) 0.7180(2)
H27_4 H 0.0998 0.4667 0.7560
C39_4 C 0.0153(3) 0.5096(6) 0.6249(3)
H29_4 H 0.0008 0.5418 0.5886
C40_4 C 0.1159(3) 0.9391(4) 0.6076(2)
H30_4 H 0.1559 0.9362 0.6156
C41_4 C 0.0286(3) 0.8998(5) 0.6044(3)
C42_4 C 0.0258(3) 0.9879(5) 0.5779(3)
C43_4 C 0.2756(2) 0.6607(5) 0.8216(3)
H33_4 H 0.2540 0.6225 0.8371
C44_4 C 0.3478(3) 0.7380(6) 0.8138(3)
H34_4 H 0.3851 0.7635 0.8224
C45_4 C 0.2993(3) 0.7499(6) 0.7599(3)
H35_4 H 0.2981 0.7843 0.7267
C46_4 C 0.1106(3) 0.2320(5) 0.8404(2)
C47_4 C 0.1554(2) 0.1715(4) 0.8867(2)
C48_4 C 0.2144(2) 0.1917(4) 0.9049(2)
H36_4 H 0.2258 0.2459 0.8896
C49_4 C 0.1376(2) 0.0907(4) 0.9113(2)
H37_4 H 0.0982 0.0726 0.8972
C50_4 C 0.2585(2) 0.1326(4) 0.9461(2)
C51_4 C 0.1809(2) 0.0377(4) 0.9577(2)
C52_4 C 0.2399(2) 0.0571(4) 0.9727(2)
C54_4 C 0.3230(2) 0.1505(4) 0.9634(2)
C55_4 C 0.3464(2) 0.2448(4) 0.9766(2)
H39_4 H 0.3215 0.2968 0.9734
C56_4 C 0.3602(2) 0.0751(4) 0.9659(3)
H40_4 H 0.3453 0.0126 0.9577
C57_4 C 0.4044(2) 0.2598(4) 0.9938(2)
C58_4 C 0.4200(2) 0.0915(5) 0.9806(2)
H42_4 H 0.4445 0.0404 0.9807
C59_4 C 0.4431(2) 0.1850(4) 0.9951(2)
H32_4 H 0.9924 0.0263 0.5618
Zn1_6 Zn 1.0000 0.29430(4) 0.7500
N1_4 N 0.9732(2) 0.3998(4) 0.8035(2)
N2_4 N 0.9360(2) 0.5353(4) 0.8246(2)
N4_4 N 0.9144(2) 0.8694(3) 0.8758(2)
N6_4 N 0.7465(2) 0.6996(4) 0.7338(2)
O1_4 O 0.9420(2) 0.1958(4) 0.6840(2)
O2_4 O 0.8774(2) 0.3127(3) 0.6743(2)
O5_4 O 0.47218(19) 0.2817(3) 0.4635(2)
O6_4 O 0.4640(2) 0.1433(4) 0.5059(2)
O7_4 O 0.3533(2) 0.2031(4) 0.4766(3)
H1_4 H 0.3778 0.1493 0.4873
H2_4 H 0.3157 0.1998 0.4767
C1_4 C 0.8406(3) 0.6149(5) 0.7797(3)
H3_4 H 0.8239 0.5588 0.7590
C2_4 C 0.8998(3) 0.6179(4) 0.8171(2)
C3_4 C 0.9258(3) 0.7022(4) 0.8500(2)
H4_4 H 0.9656 0.7039 0.8747
C4_4 C 0.8892(3) 0.7838(4) 0.8440(2)
C5_4 C 0.8302(3) 0.7825(4) 0.8055(2)
H5_4 H 0.8069 0.8371 0.8011
C6_4 C 0.8066(3) 0.6992(4) 0.7737(2)
C7_4 C 0.9297(3) 0.4671(5) 0.7820(2)
H6_4 H 0.9002 0.4667 0.7440
C9_4 C 0.9847(3) 0.5096(6) 0.8751(3)
H8_4 H 0.9992 0.5418 0.9114
C10_4 C 0.8841(3) 0.9391(4) 0.8924(2)
H9_4 H 0.8441 0.9362 0.8844
C11_4 C 0.9714(3) 0.8998(5) 0.8956(3)
C12_4 C 0.9742(3) 0.9879(5) 0.9221(3)
C13_4 C 0.7244(2) 0.6607(5) 0.6784(3)
H12_4 H 0.7460 0.6225 0.6629
C14_4 C 0.6522(3) 0.7380(6) 0.6862(3)
H13_4 H 0.6149 0.7635 0.6776
C15_4 C 0.7007(3) 0.7499(6) 0.7401(3)
H14_4 H 0.7019 0.7843 0.7733
C16_4 C 0.8894(3) 0.2320(5) 0.6596(2)
C17_4 C 0.8446(2) 0.1715(4) 0.6133(2)
C18_4 C 0.7856(2) 0.1917(4) 0.5951(2)
H15_4 H 0.7742 0.2459 0.6104
C19_4 C 0.8624(2) 0.0907(4) 0.5887(2)
H16_4 H 0.9018 0.0726 0.6028
C20_4 C 0.7415(2) 0.1326(4) 0.5539(2)
C21_4 C 0.8191(2) 0.0377(4) 0.5423(2)
C22_4 C 0.7601(2) 0.0571(4) 0.5273(2)
H17_4 H 0.7321 0.0190 0.4987
C24_4 C 0.6770(2) 0.1505(4) 0.5366(2)
C25_4 C 0.6536(2) 0.2448(4) 0.5234(2)
H18_4 H 0.6785 0.2968 0.5266
C26_4 C 0.6398(2) 0.0751(4) 0.5341(3)
H19_4 H 0.6547 0.0126 0.5423
C27_4 C 0.5956(2) 0.2598(4) 0.5062(2)
H20_4 H 0.5807 0.3217 0.4949
C28_4 C 0.5800(2) 0.0915(5) 0.5194(2)
H21_4 H 0.5555 0.0404 0.5193
C29_4 C 0.5569(2) 0.1850(4) 0.5049(2)
C30_4 C 0.4921(2) 0.2030(4) 0.4896(2)
C38_4 C 0.9928(3) 0.4268(5) 0.6394(3)
H28_4 H 0.9594 0.3942 0.6141
H31_4 H 0.9974 0.8667 0.6081
C23_4 C 0.8377(2) 0.9618(4) 0.5098(2)
O13_3 O 0.9640(2) 0.3567(4) 0.0059(2)
O16 O 0.88969(18) 0.0743(3) 0.03534(18)
C53_3 C 0.8377(2) 0.0382(4) 0.0098(2)
O13_4 O 0.0360(2) 0.6433(4) 0.9941(2)
O16_2 O 0.11031(18) 0.9257(3) 0.96466(18)
C53_4 C 0.1623(2) 0.9618(4) 0.9902(2)
loop_
_geom_bond_atom_site_label_1
_geom_bond_atom_site_label_2
_geom_bond_site_symmetry_1
_geom_bond_site_symmetry_2
Zn2 O5 1_555 1_555
O5 C30 1_555 1_555
O6 C30 1_555 1_555
O7 Zn2 1_555 1_555
H1 O7 1_555 1_555
H2 O7 1_555 1_555
N14 Zn2 1_555 1_555
N15 Zn2 1_555 1_555
O15 Zn2 1_555 1_555
O17 Zn2 1_555 1_555
Zn1 N1 1_555 1_555
N1 C7 1_555 1_555
O1 Zn1 1_555 1_555
O2 C16 1_555 1_555
O3 C23 1_555 1_555
O4 C23 1_555 1_555
H6 C7 1_555 1_555
C8 N1 1_555 1_555
H7 C8 1_555 1_555
C16 O1 1_555 1_555
C17 C16 1_555 1_555
C18 C17 1_555 1_555
H15 C18 1_555 1_555
C19 C17 1_555 1_555
H16 C19 1_555 1_555
C20 C18 1_555 1_555
C21 C19 1_555 1_555
C22 C20 1_555 1_555
H17 C22 1_555 1_555
C23 C21 1_555 1_555
C24 C20 1_555 1_555
C25 C24 1_555 1_555
H18 C25 1_555 1_555
C26 C24 1_555 1_555
H19 C26 1_555 1_555
C27 C25 1_555 1_555
H20 C27 1_555 1_555
C28 C26 1_555 1_555
H21 C28 1_555 1_555
C29 C27 1_555 1_555
N7 Zn1 1_555 1_555
O8 Zn1 1_555 1_555
O9 C46 1_555 1_555
O10 C53 1_555 1_555
C37 N7 1_555 1_555
H27 C37 1_555 1_555
C38 N7 1_555 1_555
H28 C38 1_555 1_555
C46 O8 1_555 1_555
C47 C46 1_555 1_555
C48 C47 1_555 1_555
H36 C48 1_555 1_555
C49 C47 1_555 1_555
H37 C49 1_555 1_555
C50 C48 1_555 1_555
C51 C49 1_555 1_555
C52 C50 1_555 1_555
C53 C51 1_555 1_555
C54 C50 1_555 1_555
C55 C54 1_555 1_555
H39 C55 1_555 1_555
C56 C54 1_555 1_555
H40 C56 1_555 1_555
C57 C55 1_555 1_555
C58 C56 1_555 1_555
H42 C58 1_555 1_555
C59 C57 1_555 1_555
Zn4 O3 1_555 1_555
O4 Zn4 1_555 1_555
C21 C22 1_555 1_555
C28 C29 1_555 1_555
C51 C52 1_555 1_555
C58 C59 1_555 1_555
O11 Zn5 1_555 1_555
N2 C2 1_555 1_555
N3 C10 1_555 1_555
N4 C4 1_555 1_555
N5 C13 1_555 1_555
N6 C6 1_555 1_555
C1 H3 1_555 1_555
C2 C1 1_555 1_555
C3 C2 1_555 1_555
H4 C3 1_555 1_555
C4 C3 1_555 1_555
C5 C4 1_555 1_555
H5 C5 1_555 1_555
C6 C1 1_555 1_555
C9 N2 1_555 1_555
H8 C9 1_555 1_555
C10 N4 1_555 1_555
H9 C10 1_555 1_555
C11 N4 1_555 1_555
H10 C11 1_555 1_555
C12 N3 1_555 1_555
H11 C12 1_555 1_555
C13 N6 1_555 1_555
H12 C13 1_555 1_555
C14 N5 1_555 1_555
H13 C14 1_555 1_555
C15 N6 1_555 1_555
H14 C15 1_555 1_555
N8 C32 1_555 1_555
N9 C40 1_555 1_555
N10 C34 1_555 1_555
N11 C43 1_555 1_555
N12 C36 1_555 1_555
C31 H24 1_555 1_555
C32 C31 1_555 1_555
C33 C32 1_555 1_555
H25 C33 1_555 1_555
C34 C33 1_555 1_555
C35 C34 1_555 1_555
H26 C35 1_555 1_555
C36 C31 1_555 1_555
C39 N8 1_555 1_555
H29 C39 1_555 1_555
C40 N10 1_555 1_555
H30 C40 1_555 1_555
C41 N10 1_555 1_555
H31 C41 1_555 1_555
C42 N9 1_555 1_555
H32 C42 1_555 1_555
C43 N12 1_555 1_555
H33 C43 1_555 1_555
C44 N11 1_555 1_555
H34 C44 1_555 1_555
C45 N12 1_555 1_555
H35 C45 1_555 1_555
Zn6 N5 1_555 1_555
Zn7 N11 1_555 1_555
Zn8 N9 1_555 1_555
Zn9 N3 1_555 1_555
C5 C6 1_555 1_555
C11 C12 1_555 1_555
C14 C15 1_555 1_555
C35 C36 1_555 1_555
C41 C42 1_555 1_555
C44 C45 1_555 1_555
Zn3 O12 1_555 1_555
O12 C60 1_555 1_555
O14 Zn3 1_555 1_555
H22 O14 1_555 1_555
H23 O14 1_555 1_555
N13 Zn3 1_555 1_555
N16 Zn3 1_555 1_555
O18 Zn3 1_555 1_555
O15 C23_2 1_555 1_555
O17 C23_2 1_555 1_555
Zn1_2 N1_2 1_555 1_555
Zn4 O5_2 1_555 1_555
N1_2 C7_2 1_555 1_555
N2_2 C2_2 1_555 1_555
N4_2 C4_2 1_555 1_555
N5_2 C13_2 1_555 1_555
N6_2 C6_2 1_555 1_555
O1_2 Zn1_2 1_555 1_555
O2_2 C16_2 1_555 1_555
O5_2 C30_2 1_555 1_555
O6_2 C30_2 1_555 1_555
O7_2 Zn4 1_555 1_555
H1_2 O7_2 1_555 1_555
H2_2 O7_2 1_555 1_555
C1_2 H3_2 1_555 1_555
C2_2 C1_2 1_555 1_555
C3_2 C2_2 1_555 1_555
H4_2 C3_2 1_555 1_555
C4_2 C3_2 1_555 1_555
C5_2 C4_2 1_555 1_555
H5_2 C5_2 1_555 1_555
C6_2 C1_2 1_555 1_555
C7_2 N2_2 1_555 1_555
H6_2 C7_2 1_555 1_555
C9_2 N2_2 1_555 1_555
H8_2 C9_2 1_555 1_555
C10_2 N4_2 1_555 1_555
H9_2 C10_2 1_555 1_555
C11_2 N4_2 1_555 1_555
C13_2 N6_2 1_555 1_555
H12_2 C13_2 1_555 1_555
C14_2 N5_2 1_555 1_555
H13_2 C14_2 1_555 1_555
C15_2 N6_2 1_555 1_555
H14_2 C15_2 1_555 1_555
C16_2 O1_2 1_555 1_555
C17_2 C16_2 1_555 1_555
C18_2 C17_2 1_555 1_555
H15_2 C18_2 1_555 1_555
C19_2 C17_2 1_555 1_555
H16_2 C19_2 1_555 1_555
C20_2 C18_2 1_555 1_555
C21_2 C19_2 1_555 1_555
C22_2 C20_2 1_555 1_555
H17_2 C22_2 1_555 1_555
C24_2 C20_2 1_555 1_555
C25_2 C24_2 1_555 1_555
H18_2 C25_2 1_555 1_555
C26_2 C24_2 1_555 1_555
H19_2 C26_2 1_555 1_555
C27_2 C25_2 1_555 1_555
H20_2 C27_2 1_555 1_555
C28_2 C26_2 1_555 1_555
H21_2 C28_2 1_555 1_555
C29_2 C27_2 1_555 1_555
C30_2 C29_2 1_555 1_555
H28_2 C38_2 1_555 1_555
Zn8 N5_2 1_555 1_555
N14_2 Zn4 1_555 1_555
N15_2 Zn4 1_555 1_555
C5_2 C6_2 1_555 1_555
C11_2 C12_2 1_555 1_555
C14_2 C15_2 1_555 1_555
C21_2 C22_2 1_555 1_555
C28_2 C29_2 1_555 1_555
Zn7 N3_2 1_555 1_555
H7_2 C8_2 1_555 1_555
N7_2 Zn1_3 1_555 1_555
N8_2 C32_2 1_555 1_555
N10_2 C34_2 1_555 1_555
N11_2 C43_2 1_555 1_555
N12_2 C36_2 1_555 1_555
O8_2 Zn1_3 1_555 1_555
O9_2 C46_2 1_555 1_555
C31_2 H24_2 1_555 1_555
C32_2 C31_2 1_555 1_555
C33_2 C32_2 1_555 1_555
H25_2 C33_2 1_555 1_555
C34_2 C33_2 1_555 1_555
C35_2 C34_2 1_555 1_555
H26_2 C35_2 1_555 1_555
C36_2 C31_2 1_555 1_555
C37_2 N7_2 1_555 1_555
H27_2 C37_2 1_555 1_555
C39_2 N8_2 1_555 1_555
H29_2 C39_2 1_555 1_555
C40_2 N10_2 1_555 1_555
H30_2 C40_2 1_555 1_555
C41_2 N10_2 1_555 1_555
C43_2 N12_2 1_555 1_555
H33_2 C43_2 1_555 1_555
C44_2 N11_2 1_555 1_555
H34_2 C44_2 1_555 1_555
C45_2 N12_2 1_555 1_555
H35_2 C45_2 1_555 1_555
C46_2 O8_2 1_555 1_555
C47_2 C46_2 1_555 1_555
C48_2 C47_2 1_555 1_555
H36_2 C48_2 1_555 1_555
C49_2 C47_2 1_555 1_555
H37_2 C49_2 1_555 1_555
C50_2 C48_2 1_555 1_555
C51_2 C49_2 1_555 1_555
C52_2 C50_2 1_555 1_555
C54_2 C50_2 1_555 1_555
C55_2 C54_2 1_555 1_555
H39_2 C55_2 1_555 1_555
C56_2 C54_2 1_555 1_555
H40_2 C56_2 1_555 1_555
C57_2 C55_2 1_555 1_555
C58_2 C56_2 1_555 1_555
H42_2 C58_2 1_555 1_555
C59_2 C57_2 1_555 1_555
Zn9 N11_2 1_555 1_555
N8_2 C37_2 1_555 1_555
C35_2 C36_2 1_555 1_555
C41_2 C42_2 1_555 1_555
C44_2 C45_2 1_555 1_555
C51_2 C52_2 1_555 1_555
C58_2 C59_2 1_555 1_555
Zn5 O12_2 1_555 1_555
O12_2 C60_2 1_555 1_555
O14_2 Zn5 1_555 1_555
H22_2 O14_2 1_555 1_555
H23_2 O14_2 1_555 1_555
N13_2 Zn5 1_555 1_555
N16_2 Zn5 1_555 1_555
Zn6 N9_2 1_555 1_555
Zn7 O12_3 1_555 1_555
O12_3 C60_3 1_555 1_555
O14_3 Zn7 1_555 1_555
H22_3 O14_3 1_555 1_555
H23_3 O14_3 1_555 1_555
O18_2 Zn7 1_555 1_555
N2_3 C2_3 1_555 1_555
N13_2 C10_3 1_555 1_555
N4_3 C4_3 1_555 1_555
N15 C13_3 1_555 1_555
N6_3 C6_3 1_555 1_555
C1_3 H3_3 1_555 1_555
C2_3 C1_3 1_555 1_555
C3_3 C2_3 1_555 1_555
H4_3 C3_3 1_555 1_555
C4_3 C3_3 1_555 1_555
C5_3 C4_3 1_555 1_555
H5_3 C5_3 1_555 1_555
C6_3 C1_3 1_555 1_555
C9_3 N2_3 1_555 1_555
H8_3 C9_3 1_555 1_555
C10_3 N4_3 1_555 1_555
H9_3 C10_3 1_555 1_555
C11_3 N4_3 1_555 1_555
H10_3 C11_3 1_555 1_555
C12_3 N13_2 1_555 1_555
H11_3 C12_3 1_555 1_555
C13_3 N6_3 1_555 1_555
H12_3 C13_3 1_555 1_555
C14_3 N15 1_555 1_555
H13_3 C14_3 1_555 1_555
C15_3 N6_3 1_555 1_555
H14_3 C15_3 1_555 1_555
N8_3 C32_3 1_555 1_555
N14_2 C40_3 1_555 1_555
N10_3 C34_3 1_555 1_555
N16 C43_3 1_555 1_555
N12_3 C36_3 1_555 1_555
C31_3 H24_3 1_555 1_555
C32_3 C31_3 1_555 1_555
C33_3 C32_3 1_555 1_555
H25_3 C33_3 1_555 1_555
C34_3 C33_3 1_555 1_555
C35_3 C34_3 1_555 1_555
H26_3 C35_3 1_555 1_555
C36_3 C31_3 1_555 1_555
C39_3 N8_3 1_555 1_555
H29_3 C39_3 1_555 1_555
C40_3 N10_3 1_555 1_555
H30_3 C40_3 1_555 1_555
C41_3 N10_3 1_555 1_555
H31_3 C41_3 1_555 1_555
C42_3 N14_2 1_555 1_555
H32_3 C42_3 1_555 1_555
C43_3 N12_3 1_555 1_555
H33_3 C43_3 1_555 1_555
C44_3 N16 1_555 1_555
H34_3 C44_3 1_555 1_555
C45_3 N12_3 1_555 1_555
H35_3 C45_3 1_555 1_555
C5_3 C6_3 1_555 1_555
C11_3 C12_3 1_555 1_555
C14_3 C15_3 1_555 1_555
C35_3 C36_3 1_555 1_555
C41_3 C42_3 1_555 1_555
C44_3 C45_3 1_555 1_555
O11_2 Zn9 1_555 1_555
Zn1_4 N1_3 1_555 1_555
N1_3 C7_3 1_555 1_555
O1_3 Zn1_4 1_555 1_555
O2_3 C16_3 1_555 1_555
O3_2 C23_3 1_555 1_555
O4_2 C23_3 1_555 1_555
H6_3 C7_3 1_555 1_555
C8_3 N1_3 1_555 1_555
H7_3 C8_3 1_555 1_555
C16_3 O1_3 1_555 1_555
C17_3 C16_3 1_555 1_555
C18_3 C17_3 1_555 1_555
H15_3 C18_3 1_555 1_555
C19_3 C17_3 1_555 1_555
H16_3 C19_3 1_555 1_555
C20_3 C18_3 1_555 1_555
C21_3 C19_3 1_555 1_555
C22_3 C20_3 1_555 1_555
H17_3 C22_3 1_555 1_555
C23_3 C21_3 1_555 1_555
C24_3 C20_3 1_555 1_555
C25_3 C24_3 1_555 1_555
H18_3 C25_3 1_555 1_555
C26_3 C24_3 1_555 1_555
H19_3 C26_3 1_555 1_555
C27_3 C25_3 1_555 1_555
H20_3 C27_3 1_555 1_555
C28_3 C26_3 1_555 1_555
H21_3 C28_3 1_555 1_555
C29_3 C27_3 1_555 1_555
N7_3 Zn1_4 1_555 1_555
O8_3 Zn1_4 1_555 1_555
O9_3 C46_3 1_555 1_555
O10_2 C53_2 1_555 1_555
C37_3 N7_3 1_555 1_555
H27_3 C37_3 1_555 1_555
C38_3 N7_3 1_555 1_555
H28_3 C38_3 1_555 1_555
C46_3 O8_3 1_555 1_555
C47_3 C46_3 1_555 1_555
C48_3 C47_3 1_555 1_555
H36_3 C48_3 1_555 1_555
C49_3 C47_3 1_555 1_555
H37_3 C49_3 1_555 1_555
C50_3 C48_3 1_555 1_555
C51_3 C49_3 1_555 1_555
C52_3 C50_3 1_555 1_555
C53_2 C51_3 1_555 1_555
C54_3 C50_3 1_555 1_555
C55_3 C54_3 1_555 1_555
H39_3 C55_3 1_555 1_555
C56_3 C54_3 1_555 1_555
H40_3 C56_3 1_555 1_555
C57_3 C55_3 1_555 1_555
C58_3 C56_3 1_555 1_555
H42_3 C58_3 1_555 1_555
C59_3 C57_3 1_555 1_555
Zn8 O3_2 1_555 1_555
O4_2 Zn8 1_555 1_555
C21_3 C22_3 1_555 1_555
C28_3 C29_3 1_555 1_555
C51_3 C52_3 1_555 1_555
C58_3 C59_3 1_555 1_555
Zn6 O5_3 1_555 1_555
O5_3 C30_3 1_555 1_555
O6_3 C30_3 1_555 1_555
O7_3 Zn6 1_555 1_555
H1_3 O7_3 1_555 1_555
H2_3 O7_3 1_555 1_555
O15_2 Zn6 1_555 1_555
O17_2 Zn6 1_555 1_555
Zn9 O12_4 1_555 1_555
O12_4 C60_4 1_555 1_555
O14_4 Zn9 1_555 1_555
H22_4 O14_4 1_555 1_555
H23_4 O14_4 1_555 1_555
H7_4 C8_4 1_555 1_555
N7_4 Zn1_5 1_555 1_555
N8_4 C32_4 1_555 1_555
N10_4 C34_4 1_555 1_555
N16_2 C43_4 1_555 1_555
N12_4 C36_4 1_555 1_555
O8_4 Zn1_5 1_555 1_555
O9_4 C46_4 1_555 1_555
C31_4 H24_4 1_555 1_555
C32_4 C31_4 1_555 1_555
C33_4 C32_4 1_555 1_555
H25_4 C33_4 1_555 1_555
C34_4 C33_4 1_555 1_555
C35_4 C34_4 1_555 1_555
H26_4 C35_4 1_555 1_555
C36_4 C31_4 1_555 1_555
C37_4 N7_4 1_555 1_555
H27_4 C37_4 1_555 1_555
C39_4 N8_4 1_555 1_555
H29_4 C39_4 1_555 1_555
C40_4 N10_4 1_555 1_555
H30_4 C40_4 1_555 1_555
C41_4 N10_4 1_555 1_555
C43_4 N12_4 1_555 1_555
H33_4 C43_4 1_555 1_555
C44_4 N16_2 1_555 1_555
H34_4 C44_4 1_555 1_555
C45_4 N12_4 1_555 1_555
H35_4 C45_4 1_555 1_555
C46_4 O8_4 1_555 1_555
C47_4 C46_4 1_555 1_555
C48_4 C47_4 1_555 1_555
H36_4 C48_4 1_555 1_555
C49_4 C47_4 1_555 1_555
H37_4 C49_4 1_555 1_555
C50_4 C48_4 1_555 1_555
C51_4 C49_4 1_555 1_555
C52_4 C50_4 1_555 1_555
C54_4 C50_4 1_555 1_555
C55_4 C54_4 1_555 1_555
H39_4 C55_4 1_555 1_555
C56_4 C54_4 1_555 1_555
H40_4 C56_4 1_555 1_555
C57_4 C55_4 1_555 1_555
C58_4 C56_4 1_555 1_555
H42_4 C58_4 1_555 1_555
C59_4 C57_4 1_555 1_555
N8_4 C37_4 1_555 1_555
C35_4 C36_4 1_555 1_555
C41_4 C42_4 1_555 1_555
C44_4 C45_4 1_555 1_555
C51_4 C52_4 1_555 1_555
C58_4 C59_4 1_555 1_555
Zn1_6 N1_4 1_555 1_555
Zn8 O5_4 1_555 1_555
N1_4 C7_4 1_555 1_555
N2_4 C2_4 1_555 1_555
N4_4 C4_4 1_555 1_555
N15_2 C13_4 1_555 1_555
N6_4 C6_4 1_555 1_555
O1_4 Zn1_6 1_555 1_555
O2_4 C16_4 1_555 1_555
O5_4 C30_4 1_555 1_555
O6_4 C30_4 1_555 1_555
O7_4 Zn8 1_555 1_555
H1_4 O7_4 1_555 1_555
H2_4 O7_4 1_555 1_555
C1_4 H3_4 1_555 1_555
C2_4 C1_4 1_555 1_555
C3_4 C2_4 1_555 1_555
H4_4 C3_4 1_555 1_555
C4_4 C3_4 1_555 1_555
C5_4 C4_4 1_555 1_555
H5_4 C5_4 1_555 1_555
C6_4 C1_4 1_555 1_555
C7_4 N2_4 1_555 1_555
H6_4 C7_4 1_555 1_555
C9_4 N2_4 1_555 1_555
H8_4 C9_4 1_555 1_555
C10_4 N4_4 1_555 1_555
H9_4 C10_4 1_555 1_555
C11_4 N4_4 1_555 1_555
C13_4 N6_4 1_555 1_555
H12_4 C13_4 1_555 1_555
C14_4 N15_2 1_555 1_555
H13_4 C14_4 1_555 1_555
C15_4 N6_4 1_555 1_555
H14_4 C15_4 1_555 1_555
C16_4 O1_4 1_555 1_555
C17_4 C16_4 1_555 1_555
C18_4 C17_4 1_555 1_555
H15_4 C18_4 1_555 1_555
C19_4 C17_4 1_555 1_555
H16_4 C19_4 1_555 1_555
C20_4 C18_4 1_555 1_555
C21_4 C19_4 1_555 1_555
C22_4 C20_4 1_555 1_555
H17_4 C22_4 1_555 1_555
C24_4 C20_4 1_555 1_555
C25_4 C24_4 1_555 1_555
H18_4 C25_4 1_555 1_555
C26_4 C24_4 1_555 1_555
H19_4 C26_4 1_555 1_555
C27_4 C25_4 1_555 1_555
H20_4 C27_4 1_555 1_555
C28_4 C26_4 1_555 1_555
H21_4 C28_4 1_555 1_555
C29_4 C27_4 1_555 1_555
C30_4 C29_4 1_555 1_555
H28_4 C38_4 1_555 1_555
C5_4 C6_4 1_555 1_555
C11_4 C12_4 1_555 1_555
C14_4 C15_4 1_555 1_555
C21_4 C22_4 1_555 1_555
C28_4 C29_4 1_555 1_555
O15_2 C23_4 1_555 1_555
O17_2 C23_4 1_555 1_555
O16 C53_3 1_555 1_555
O16_2 C53_4 1_555 1_555

#END
