
###############################################################################
#
# This file contains modified crystal structure data generated from the
# MOF subset of the Cambridge Structural Database (CSD) v543 
# hosted by the Cambridge Crystallographic Data Centre (CCDC).
#
# This work is licensed under the Creative Commons
# Attribution-NonCommercial-ShareAlike 4.0 International License.
# To view a copy of this license, visit
# http://creativecommons.org/licenses/by-nc-sa/4.0/
# or send a letter to
# Creative Commons, PO Box 1866, Mountain View, CA 94042, USA.
#
# CIF created using the CSD Python API on 29 September 2022
# The structure has been converted into the P1 space group
# The structure has a 3D framework
# The original CSD entry MIBMER is in the tetragonal crystal system
# The original CSD entry MIBMER is in a Sohncke space group
# The framework has been calculated to contain at least 10.0% void space
# The void calculation uses a probe of radius 1.32A, grid spacing 0.4
# H atom positions have been added when not included in the experimental data
#
###############################################################################

data_MIBMER
_chemical_formula_moiety         '(C336 H240 Fe22 O128)n'
_symmetry_cell_setting           triclinic
_symmetry_space_group_name_H-M   'P 1'
_symmetry_Int_Tables_number      1
_space_group_name_Hall           'P 1'
loop_
_symmetry_equiv_pos_site_id
_symmetry_equiv_pos_as_xyz
1 x,y,z
_cell_length_a                   21.800(3)
_cell_length_b                   21.800(3)
_cell_length_c                   35.407(7)
_cell_angle_alpha                90
_cell_angle_beta                 90
_cell_angle_gamma                90
_cell_volume                     16826.8
loop_
_atom_site_label
_atom_site_type_symbol
_atom_site_fract_x
_atom_site_fract_y
_atom_site_fract_z
Fe1 Fe 0.28091(7) 0.00020(8) 0.09865(4)
Fe3 Fe 0.19267(7) 0.00724(7) 0.02319(4)
O1 O 0.3524(4) 0.0609(4) 0.0976(2)
O2 O 0.3853(4) 0.0686(4) 0.0373(2)
C1 C 0.3848(6) 0.0847(5) 0.0717(4)
C2 C 0.4279(6) 0.1349(6) 0.0817(4)
C3 C 0.4475(6) 0.1425(6) 0.1197(4)
H1 H 0.4337 0.1147 0.1386
C4 C 0.4856(6) 0.1892(7) 0.1292(4)
H2 H 0.4967 0.1948 0.1549
C5 C 0.5092(7) 0.2297(6) 0.1016(4)
C6 C 0.4926(8) 0.2196(7) 0.0654(4)
H3 H 0.5084 0.2457 0.0463
C7 C 0.4519(8) 0.1708(7) 0.0550(4)
H4 H 0.4421 0.1641 0.0292
C8 C 0.5480(6) 0.2824(7) 0.1129(4)
C9 C 0.5336(7) 0.3146(6) 0.1450(4)
H5 H 0.4964 0.3068 0.1580
C10 C 0.5744(6) 0.3586(6) 0.1580(3)
H6 H 0.5658 0.3785 0.1813
C11 C 0.6263(5) 0.3746(6) 0.1388(4)
C12 C 0.6377(6) 0.3448(7) 0.1064(4)
H7 H 0.6735 0.3547 0.0924
C13 C 0.5987(7) 0.2999(7) 0.0931(4)
H8 H 0.6074 0.2808 0.0696
C14 C 0.6699(6) 0.4187(5) 0.1562(4)
O3 O 0.6558(4) 0.4409(4) 0.1872(2)
O4 O 0.7210(4) 0.4312(4) 0.1390(2)
O13 O 0.2732(3) 0.0023(3) 0.04486(18)
Fe5 Fe 0.78091(7) 0.49980(8) 0.15135(4)
Fe9 Fe 0.69267(7) 0.49276(7) 0.22681(4)
O17 O 0.1558(4) 0.0591(4) 0.0628(2)
O18 O 0.2210(4) 0.0688(4) 0.1110(2)
H25 H 0.286775 0.0411453 0.166375
H27 H 0.0725143 0.0220538 0.0200045
O15 O 0.1030(4) 0.0170(5) 0.9994(2)
O21 O 0.3103(3) 0.0580(3) 0.9751(2)
O22 O 0.2160(3) 0.0841(3) 0.9939(2)
H28 H 0.102037 0.0536183 0.98273
Fe2 Fe 0.34289(7) 0.99730(7) 0.01349(4)
O5 O 0.1616(4) 0.9322(4) 0.0502(2)
O6 O 0.2111(4) 0.9375(4) 0.1055(2)
C15 C 0.1720(6) 0.9155(6) 0.0831(4)
C16 C 0.1332(9) 0.8641(8) 0.0982(5)
C17 C 0.0867(9) 0.8392(9) 0.0767(5)
H9 H 0.0789 0.8566 0.0526
C18 C 0.0517(9) 0.7920(9) 0.0877(5)
H10 H 0.0267 0.7721 0.0695
C19 C 0.0506(10) 0.7718(9) 0.1235(5)
C20 C 0.0994(9) 0.7930(9) 0.1443(5)
H11 H 0.1084 0.7734 0.1676
C21 C 0.1382(9) 0.8439(9) 0.1327(5)
H12 H 0.1665 0.8620 0.1498
C22 C 0.0088(10) 0.7246(9) 0.1371(5)
C27 C 0.0202(9) 0.6901(9) 0.1667(6)
H16 H 0.0569 0.6972 0.1805
O16 O 0.2926(4) 0.9991(4) 0.1562(2)
O19 O 0.3922(4) 0.9367(4) 0.0453(2)
O20 O 0.3428(4) 0.9301(4) 0.0988(2)
H26 H 0.262043 0.97103 0.167771
O9 O 0.2096(3) 0.9513(3) 0.9796(2)
O10 O 0.3101(4) 0.9272(3) 0.9834(2)
C29 C 0.2574(6) 0.9212(5) 0.9699(3)
C30 C 0.2484(6) 0.8737(5) 0.9392(4)
C31 C 0.3004(6) 0.8439(6) 0.9259(4)
H17 H 0.3393 0.8510 0.9371
C32 C 0.2946(6) 0.8041(7) 0.8964(4)
H18 H 0.3305 0.7851 0.8867
C33 C 0.2407(6) 0.7907(6) 0.8804(4)
C34 C 0.1883(6) 0.8207(6) 0.8947(4)
H19 H 0.1492 0.8116 0.8843
C35 C 0.1929(6) 0.8625(6) 0.9232(4)
H20 H 0.1575 0.8837 0.9317
C36 C 0.2355(6) 0.7454(6) 0.8513(4)
C37 C 0.2812(6) 0.7408(6) 0.8248(4)
H21 H 0.3123 0.7712 0.8233
C38 C 0.2815(5) 0.6896(5) 0.7994(3)
H22 H 0.3150 0.6844 0.7825
C39 C 0.2334(6) 0.6472(5) 0.7990(3)
C40 C 0.1864(6) 0.6553(6) 0.8239(4)
H23 H 0.1535 0.6267 0.8242
C41 C 0.1854(7) 0.7040(6) 0.8488(4)
H24 H 0.1506 0.7099 0.8646
C42 C 0.2356(5) 0.5927(4) 0.7746(3)
O11 O 0.1897(3) 0.5580(3) 0.7749(2)
O12 O 0.2840(3) 0.5841(3) 0.7561(2)
O14 O 0.4192(4) 0.9914(4) 0.9766(2)
Fe6 Fe 0.15711(7) 0.49730(7) 0.73651(4)
Fe8 Fe 0.30733(7) 0.50724(7) 0.72681(4)
H29 H 0.45707 0.98431 0.991561
H30 H 0.413083 0.956826 0.958734
C23 C 0.9606(9) 0.7084(9) 0.1159(6)
H13 H 0.9547 0.7293 0.0926
C24 C 0.9170(8) 0.6616(8) 0.1260(5)
H14 H 0.8837 0.6508 0.1101
C25 C 0.9269(8) 0.6335(8) 0.1604(5)
C26 C 0.9817(8) 0.6441(8) 0.1784(5)
H15 H 0.9931 0.6193 0.1994
C28 C 0.8824(7) 0.5849(7) 0.1733(4)
O7 O 0.8922(4) 0.5633(4) 0.2047(2)
O8 O 0.8428(4) 0.5699(4) 0.1512(2)
Fe7 Fe 0.84289(7) 0.50270(7) 0.23651(4)
C23_2 C 0.0394(9) 0.2916(9) 0.6159(6)
H13_2 H 0.0453 0.2707 0.5926
C24_2 C 0.0830(8) 0.3384(8) 0.6260(5)
H14_2 H 0.1163 0.3492 0.6101
C25_2 C 0.0731(8) 0.3665(8) 0.6604(5)
C26_2 C 0.0183(8) 0.3559(8) 0.6784(5)
H15_2 H 0.0069 0.3807 0.6994
C28_2 C 0.1176(7) 0.4151(7) 0.6733(4)
O7_2 O 0.1078(4) 0.4367(4) 0.7047(2)
O8_2 O 0.1572(4) 0.4301(4) 0.6512(2)
Fe4 Fe 0.21909(7) 0.50020(8) 0.65135(4)
Fe2_2 Fe 0.65711(7) 0.00270(7) 0.51349(4)
O5_2 O 0.8384(4) 0.0678(4) 0.5502(2)
O6_2 O 0.7889(4) 0.0625(4) 0.6055(2)
C15_2 C 0.8280(6) 0.0845(6) 0.5831(4)
C16_2 C 0.8668(9) 0.1359(8) 0.5982(5)
C17_2 C 0.9133(9) 0.1608(9) 0.5767(5)
H9_2 H 0.9211 0.1434 0.5526
C18_2 C 0.9483(9) 0.2080(9) 0.5877(5)
H10_2 H 0.9733 0.2279 0.5695
C19_2 C 0.9494(10) 0.2282(9) 0.6235(5)
C20_2 C 0.9006(9) 0.2070(9) 0.6443(5)
H11_2 H 0.8916 0.2266 0.6676
C21_2 C 0.8618(9) 0.1561(9) 0.6327(5)
H12_2 H 0.8335 0.1380 0.6498
C22_2 C 0.9912(10) 0.2754(9) 0.6371(5)
C27_2 C 0.9798(9) 0.3099(9) 0.6667(6)
H16_2 H 0.9431 0.3028 0.6805
O9_2 O 0.7904(3) 0.0487(3) 0.4796(2)
O10_2 O 0.6899(4) 0.0728(3) 0.4834(2)
C29_2 C 0.7426(6) 0.0788(5) 0.4699(3)
C30_2 C 0.7516(6) 0.1263(5) 0.4392(4)
C31_2 C 0.6996(6) 0.1561(6) 0.4259(4)
H17_2 H 0.6607 0.1490 0.4371
C32_2 C 0.7054(6) 0.1959(7) 0.3964(4)
H18_2 H 0.6695 0.2149 0.3867
C33_2 C 0.7593(6) 0.2093(6) 0.3804(4)
C34_2 C 0.8117(6) 0.1793(6) 0.3947(4)
H19_2 H 0.8508 0.1884 0.3843
C35_2 C 0.8071(6) 0.1375(6) 0.4232(4)
H20_2 H 0.8425 0.1163 0.4317
C36_2 C 0.7645(6) 0.2546(6) 0.3513(4)
C37_2 C 0.7188(6) 0.2592(6) 0.3248(4)
H21_2 H 0.6877 0.2288 0.3233
C38_2 C 0.7185(5) 0.3104(5) 0.2994(3)
H22_2 H 0.6850 0.3156 0.2825
C39_2 C 0.7666(6) 0.3528(5) 0.2990(3)
C40_2 C 0.8136(6) 0.3447(6) 0.3239(4)
H23_2 H 0.8465 0.3733 0.3242
C41_2 C 0.8146(7) 0.2960(6) 0.3488(4)
H24_2 H 0.8494 0.2901 0.3646
C42_2 C 0.7644(5) 0.4073(4) 0.2746(3)
O11_2 O 0.8103(3) 0.4420(3) 0.2749(2)
O12_2 O 0.7160(3) 0.4159(3) 0.2561(2)
O14_2 O 0.5808(4) 0.0086(4) 0.4766(2)
O16_2 O 0.7074(4) 0.0009(4) 0.6562(2)
O19_2 O 0.6078(4) 0.0633(4) 0.5453(2)
O20_2 O 0.6572(4) 0.0699(4) 0.5988(2)
H26_2 H 0.737957 0.0289696 0.667771
H29_2 H 0.54293 0.0156903 0.491561
H30_2 H 0.586917 0.0431741 0.458734
Fe1_2 Fe 0.71909(7) 0.99980(8) 0.59865(4)
Fe3_2 Fe 0.80733(7) 0.99276(7) 0.52319(4)
O1_2 O 0.6476(4) 0.9391(4) 0.5976(2)
O2_2 O 0.6147(4) 0.9314(4) 0.5373(2)
C1_2 C 0.6152(6) 0.9153(5) 0.5717(4)
C2_2 C 0.5721(6) 0.8651(6) 0.5817(4)
C3_2 C 0.5525(6) 0.8575(6) 0.6197(4)
H1_2 H 0.5663 0.8853 0.6386
C4_2 C 0.5144(6) 0.8108(7) 0.6292(4)
H2_2 H 0.5033 0.8052 0.6549
C5_2 C 0.4908(7) 0.7703(6) 0.6016(4)
C6_2 C 0.5074(8) 0.7804(7) 0.5654(4)
H3_2 H 0.4916 0.7543 0.5463
C7_2 C 0.5481(8) 0.8292(7) 0.5550(4)
H4_2 H 0.5579 0.8359 0.5292
C8_2 C 0.4520(6) 0.7176(7) 0.6129(4)
C9_2 C 0.4664(7) 0.6854(6) 0.6450(4)
H5_2 H 0.5036 0.6932 0.6580
C10_2 C 0.4256(6) 0.6414(6) 0.6580(3)
H6_2 H 0.4342 0.6215 0.6813
C11_2 C 0.3737(5) 0.6254(6) 0.6388(4)
C12_2 C 0.3623(6) 0.6552(7) 0.6064(4)
H7_2 H 0.3265 0.6453 0.5924
C13_2 C 0.4013(7) 0.7001(7) 0.5931(4)
H8_2 H 0.3926 0.7192 0.5696
C14_2 C 0.3301(6) 0.5813(5) 0.6562(4)
O3_2 O 0.3442(4) 0.5591(4) 0.6872(2)
O4_2 O 0.2790(4) 0.5688(4) 0.6390(2)
O13_2 O 0.7268(3) 0.9977(3) 0.54486(18)
O15_2 O 0.8970(4) 0.9830(5) 0.4994(2)
O17_2 O 0.8442(4) 0.9409(4) 0.5628(2)
O18_2 O 0.7790(4) 0.9312(4) 0.6110(2)
O21_2 O 0.6897(3) 0.9420(3) 0.4751(2)
O22_2 O 0.7840(3) 0.9159(3) 0.4939(2)
H25_2 H 0.713225 0.958855 0.666375
H27_2 H 0.927486 0.977946 0.520004
H28_2 H 0.897963 0.946382 0.48273
O1_3 O 0.1476(4) 0.5609(4) 0.6524(2)
O2_3 O 0.1147(4) 0.5686(4) 0.7127(2)
C1_3 C 0.1152(6) 0.5847(5) 0.6783(4)
C2_3 C 0.0721(6) 0.6349(6) 0.6683(4)
C3_3 C 0.0525(6) 0.6425(6) 0.6303(4)
H1_3 H 0.0663 0.6147 0.6114
C4_3 C 0.0144(6) 0.6892(7) 0.6208(4)
H2_3 H 0.0033 0.6948 0.5951
C6_3 C 0.0074(8) 0.7196(7) 0.6846(4)
C7_3 C 0.0481(8) 0.6708(7) 0.6950(4)
H4_3 H 0.0579 0.6641 0.7208
H5_3 H 0.0036 0.8068 0.5920
O5_3 O 0.3384(4) 0.4322(4) 0.6998(2)
O6_3 O 0.2889(4) 0.4375(4) 0.6445(2)
C15_3 C 0.3280(6) 0.4155(6) 0.6669(4)
C16_3 C 0.3668(9) 0.3641(8) 0.6518(5)
C17_3 C 0.4133(9) 0.3392(9) 0.6733(5)
H9_3 H 0.4211 0.3566 0.6974
C18_3 C 0.4483(9) 0.2920(9) 0.6623(5)
H10_3 H 0.4733 0.2721 0.6805
C19_3 C 0.4494(10) 0.2718(9) 0.6265(5)
C20_3 C 0.4006(9) 0.2930(9) 0.6057(5)
H11_3 H 0.3916 0.2734 0.5824
C21_3 C 0.3618(9) 0.3439(9) 0.6173(5)
H12_3 H 0.3335 0.3620 0.6002
C22_3 C 0.4912(10) 0.2246(9) 0.6129(5)
C23_3 C 0.5394(9) 0.2084(9) 0.6341(6)
H13_3 H 0.5453 0.2293 0.6574
C24_3 C 0.5830(8) 0.1616(8) 0.6240(5)
H14_3 H 0.6163 0.1508 0.6399
C25_3 C 0.5731(8) 0.1335(8) 0.5896(5)
C26_3 C 0.5183(8) 0.1441(8) 0.5716(5)
H15_3 H 0.5069 0.1193 0.5506
C27_3 C 0.4798(9) 0.1901(9) 0.5833(6)
H16_3 H 0.4431 0.1972 0.5695
C28_3 C 0.6176(7) 0.0849(7) 0.5767(4)
O9_3 O 0.2904(3) 0.4513(3) 0.7704(2)
O10_3 O 0.1899(4) 0.4272(3) 0.7666(2)
C29_3 C 0.2426(6) 0.4212(5) 0.7801(3)
C30_3 C 0.2516(6) 0.3737(5) 0.8108(4)
C31_3 C 0.1996(6) 0.3439(6) 0.8241(4)
H17_3 H 0.1607 0.3510 0.8129
C32_3 C 0.2054(6) 0.3041(7) 0.8536(4)
H18_3 H 0.1695 0.2851 0.8633
C33_3 C 0.2593(6) 0.2907(6) 0.8696(4)
C34_3 C 0.3117(6) 0.3207(6) 0.8553(4)
H19_3 H 0.3508 0.3116 0.8657
C35_3 C 0.3071(6) 0.3625(6) 0.8268(4)
H20_3 H 0.3425 0.3837 0.8183
C36_3 C 0.2645(6) 0.2454(6) 0.8987(4)
C37_3 C 0.2188(6) 0.2408(6) 0.9252(4)
H21_3 H 0.1877 0.2712 0.9267
C38_3 C 0.2185(5) 0.1896(5) 0.9506(3)
H22_3 H 0.1850 0.1844 0.9675
C39_3 C 0.2666(6) 0.1472(5) 0.9510(3)
C40_3 C 0.3136(6) 0.1553(6) 0.9261(4)
H23_3 H 0.3465 0.1267 0.9258
C41_3 C 0.3146(7) 0.2040(6) 0.9012(4)
H24_3 H 0.3494 0.2099 0.8854
C42_3 C 0.2644(5) 0.0927(4) 0.9754(3)
O13_3 O 0.2268(3) 0.5023(3) 0.70514(18)
O14_3 O 0.0808(4) 0.4914(4) 0.7734(2)
O15_3 O 0.3970(4) 0.5170(5) 0.7506(2)
O16_3 O 0.2074(4) 0.4991(4) 0.5938(2)
H25_3 H 0.213225 0.541145 0.583625
H26_3 H 0.237957 0.47103 0.582229
H27_3 H 0.427486 0.522054 0.729996
H28_3 H 0.397963 0.553618 0.76727
H29_3 H 0.0429298 0.48431 0.758439
H30_3 H 0.0869171 0.456826 0.791266
C5_3 C 0.9908(7) 0.7297(6) 0.6484(4)
H3_3 H 0.9916 0.7457 0.7037
C8_3 C 0.9520(6) 0.7824(7) 0.6371(4)
C9_3 C 0.9664(7) 0.8146(6) 0.6050(4)
C10_3 C 0.9256(6) 0.8586(6) 0.5920(3)
H6_3 H 0.9342 0.8785 0.5687
C11_3 C 0.8737(5) 0.8746(6) 0.6112(4)
C12_3 C 0.8623(6) 0.8448(7) 0.6436(4)
H7_3 H 0.8265 0.8547 0.6576
C13_3 C 0.9013(7) 0.7999(7) 0.6569(4)
H8_3 H 0.8926 0.7808 0.6804
C14_3 C 0.8301(6) 0.9187(5) 0.5938(4)
C5_4 C 0.0092(7) 0.2703(6) 0.1484(4)
H3_4 H 0.0084 0.2543 0.2037
C8_4 C 0.0480(6) 0.2176(7) 0.1371(4)
C9_4 C 0.0336(7) 0.1854(6) 0.1050(4)
C10_4 C 0.0744(6) 0.1414(6) 0.0920(3)
H6_4 H 0.0658 0.1215 0.0687
C11_4 C 0.1263(5) 0.1254(6) 0.1112(4)
C12_4 C 0.1377(6) 0.1552(7) 0.1436(4)
H7_4 H 0.1735 0.1453 0.1576
C13_4 C 0.0987(7) 0.2001(7) 0.1569(4)
H8_4 H 0.1074 0.2192 0.1804
C14_4 C 0.1699(6) 0.0813(5) 0.0938(4)
O1_4 O 0.8524(4) 0.4391(4) 0.1524(2)
O2_4 O 0.8853(4) 0.4314(4) 0.2127(2)
C1_4 C 0.8848(6) 0.4153(5) 0.1783(4)
C2_4 C 0.9279(6) 0.3651(6) 0.1683(4)
C3_4 C 0.9475(6) 0.3575(6) 0.1303(4)
H1_4 H 0.9337 0.3853 0.1114
C4_4 C 0.9856(6) 0.3108(7) 0.1208(4)
H2_4 H 0.9967 0.3052 0.0951
C6_4 C 0.9926(8) 0.2804(7) 0.1846(4)
C7_4 C 0.9519(8) 0.3292(7) 0.1950(4)
H4_4 H 0.9421 0.3359 0.2208
H5_4 H 0.9964 0.1932 0.0920
O5_4 O 0.6616(4) 0.5678(4) 0.1998(2)
O6_4 O 0.7111(4) 0.5625(4) 0.1445(2)
C15_4 C 0.6720(6) 0.5845(6) 0.1669(4)
C16_4 C 0.6332(9) 0.6359(8) 0.1518(5)
C17_4 C 0.5867(9) 0.6608(9) 0.1733(5)
H9_4 H 0.5789 0.6434 0.1974
C18_4 C 0.5517(9) 0.7080(9) 0.1623(5)
H10_4 H 0.5267 0.7279 0.1805
C19_4 C 0.5506(10) 0.7282(9) 0.1265(5)
C20_4 C 0.5994(9) 0.7070(9) 0.1057(5)
H11_4 H 0.6084 0.7266 0.0824
C21_4 C 0.6382(9) 0.6561(9) 0.1173(5)
H12_4 H 0.6665 0.6380 0.1002
C22_4 C 0.5088(10) 0.7754(9) 0.1129(5)
C23_4 C 0.4606(9) 0.7916(9) 0.1341(6)
H13_4 H 0.4547 0.7707 0.1574
C24_4 C 0.4170(8) 0.8384(8) 0.1240(5)
H14_4 H 0.3837 0.8492 0.1399
C25_4 C 0.4269(8) 0.8665(8) 0.0896(5)
C26_4 C 0.4817(8) 0.8559(8) 0.0716(5)
H15_4 H 0.4931 0.8807 0.0506
C27_4 C 0.5202(9) 0.8099(9) 0.0833(6)
H16_4 H 0.5569 0.8028 0.0695
C28_4 C 0.3824(7) 0.9151(7) 0.0767(4)
O9_4 O 0.7096(3) 0.5487(3) 0.2704(2)
O10_4 O 0.8101(4) 0.5728(3) 0.2666(2)
C29_4 C 0.7574(6) 0.5788(5) 0.2801(3)
C30_4 C 0.7484(6) 0.6263(5) 0.3108(4)
C31_4 C 0.8004(6) 0.6561(6) 0.3241(4)
H17_4 H 0.8393 0.6490 0.3129
C32_4 C 0.7946(6) 0.6959(7) 0.3536(4)
H18_4 H 0.8305 0.7149 0.3633
C33_4 C 0.7407(6) 0.7093(6) 0.3696(4)
C34_4 C 0.6883(6) 0.6793(6) 0.3553(4)
H19_4 H 0.6492 0.6884 0.3657
C35_4 C 0.6929(6) 0.6375(6) 0.3268(4)
H20_4 H 0.6575 0.6163 0.3183
C36_4 C 0.7355(6) 0.7546(6) 0.3987(4)
C37_4 C 0.7812(6) 0.7592(6) 0.4252(4)
H21_4 H 0.8123 0.7288 0.4267
C38_4 C 0.7815(5) 0.8104(5) 0.4506(3)
H22_4 H 0.8150 0.8156 0.4675
C39_4 C 0.7334(6) 0.8528(5) 0.4510(3)
C40_4 C 0.6864(6) 0.8447(6) 0.4261(4)
H23_4 H 0.6535 0.8733 0.4258
C41_4 C 0.6854(7) 0.7960(6) 0.4012(4)
H24_4 H 0.6506 0.7901 0.3854
C42_4 C 0.7356(5) 0.9073(4) 0.4754(3)
O13_4 O 0.7732(3) 0.4977(3) 0.20514(18)
O14_4 O 0.9192(4) 0.5086(4) 0.2734(2)
O15_4 O 0.6030(4) 0.4830(5) 0.2506(2)
O16_4 O 0.7926(4) 0.5009(4) 0.0938(2)
H25_4 H 0.786775 0.458855 0.0836249
H26_4 H 0.762043 0.52897 0.0822285
H27_4 H 0.572514 0.477946 0.229996
H28_4 H 0.602037 0.446382 0.26727
H29_4 H 0.95707 0.51569 0.258439
H30_4 H 0.913083 0.543174 0.291266
Fe4_2 Fe 0.00020(8) 0.28091(7) 0.90135(4)
Fe6_2 Fe 0.00270(7) 0.65711(7) 0.48651(4)
C5_5 C 0.2703(6) 0.0092(7) 0.8516(4)
H3_5 H 0.2543 0.0084 0.7963
C8_5 C 0.2176(7) 0.0480(6) 0.8629(4)
C9_5 C 0.1854(6) 0.0336(7) 0.8950(4)
C10_5 C 0.1414(6) 0.0744(6) 0.9080(3)
H6_5 H 0.1215 0.0658 0.9313
C11_5 C 0.1254(6) 0.1263(5) 0.8888(4)
C12_5 C 0.1552(7) 0.1377(6) 0.8564(4)
H7_5 H 0.1453 0.1735 0.8424
C13_5 C 0.2001(7) 0.0987(7) 0.8431(4)
H8_5 H 0.2192 0.1074 0.8196
C14_5 C 0.0813(5) 0.1699(6) 0.9062(4)
O3_3 O 0.0591(4) 0.1558(4) 0.9372(2)
O4_3 O 0.0688(4) 0.2210(4) 0.8890(2)
Fe9_2 Fe 0.00724(7) 0.19267(7) 0.97681(4)
Fe1_3 Fe 0.49980(8) 0.78091(7) 0.84865(4)
Fe2_3 Fe 0.50270(7) 0.84289(7) 0.76349(4)
Fe3_3 Fe 0.49276(7) 0.69267(7) 0.77319(4)
O1_5 O 0.4391(4) 0.8524(4) 0.8476(2)
O2_5 O 0.4314(4) 0.8853(4) 0.7873(2)
C1_5 C 0.4153(5) 0.8848(6) 0.8217(4)
C2_5 C 0.3651(6) 0.9279(6) 0.8317(4)
C3_5 C 0.3575(6) 0.9475(6) 0.8697(4)
H1_5 H 0.3853 0.9337 0.8886
C4_5 C 0.3108(7) 0.9856(6) 0.8792(4)
H2_5 H 0.3052 0.9967 0.9049
C6_5 C 0.2804(7) 0.9926(8) 0.8154(4)
C7_5 C 0.3292(7) 0.9519(8) 0.8050(4)
H4_5 H 0.3359 0.9421 0.7792
H5_5 H 0.1932 0.9964 0.9080
O5_5 O 0.5678(4) 0.6616(4) 0.8002(2)
O6_5 O 0.5625(4) 0.7111(4) 0.8555(2)
C15_5 C 0.5845(6) 0.6720(6) 0.8331(4)
C16_5 C 0.6359(8) 0.6332(9) 0.8482(5)
C17_5 C 0.6608(9) 0.5867(9) 0.8267(5)
H9_5 H 0.6434 0.5789 0.8026
C18_5 C 0.7080(9) 0.5517(9) 0.8377(5)
H10_5 H 0.7279 0.5267 0.8195
C19_5 C 0.7282(9) 0.5506(10) 0.8735(5)
C20_5 C 0.7070(9) 0.5994(9) 0.8943(5)
H11_5 H 0.7266 0.6084 0.9176
C21_5 C 0.6561(9) 0.6382(9) 0.8827(5)
H12_5 H 0.6380 0.6665 0.8998
C22_5 C 0.7754(9) 0.5088(10) 0.8871(5)
C23_5 C 0.7916(9) 0.4606(9) 0.8659(6)
H13_5 H 0.7707 0.4547 0.8426
C24_5 C 0.8384(8) 0.4170(8) 0.8760(5)
H14_5 H 0.8492 0.3837 0.8601
C25_5 C 0.8665(8) 0.4269(8) 0.9104(5)
C26_5 C 0.8559(8) 0.4817(8) 0.9284(5)
H15_5 H 0.8807 0.4931 0.9494
C27_5 C 0.8099(9) 0.5202(9) 0.9167(6)
H16_5 H 0.8028 0.5569 0.9305
C28_5 C 0.9151(7) 0.3824(7) 0.9233(4)
O7_3 O 0.9367(4) 0.3922(4) 0.9547(2)
O8_3 O 0.9301(4) 0.3428(4) 0.9012(2)
O9_5 O 0.5487(3) 0.7096(3) 0.7296(2)
O10_5 O 0.5728(3) 0.8101(4) 0.7334(2)
C29_5 C 0.5788(5) 0.7574(6) 0.7199(3)
C30_5 C 0.6263(5) 0.7484(6) 0.6892(4)
C31_5 C 0.6561(6) 0.8004(6) 0.6759(4)
H17_5 H 0.6490 0.8393 0.6871
C32_5 C 0.6959(7) 0.7946(6) 0.6464(4)
H18_5 H 0.7149 0.8305 0.6367
C33_5 C 0.7093(6) 0.7407(6) 0.6304(4)
C34_5 C 0.6793(6) 0.6883(6) 0.6447(4)
H19_5 H 0.6884 0.6492 0.6343
C35_5 C 0.6375(6) 0.6929(6) 0.6732(4)
H20_5 H 0.6163 0.6575 0.6817
C36_5 C 0.7546(6) 0.7355(6) 0.6013(4)
C37_5 C 0.7592(6) 0.7812(6) 0.5748(4)
H21_5 H 0.7288 0.8123 0.5733
C38_5 C 0.8104(5) 0.7815(5) 0.5494(3)
H22_5 H 0.8156 0.8150 0.5325
C39_5 C 0.8528(5) 0.7334(6) 0.5490(3)
C40_5 C 0.8447(6) 0.6864(6) 0.5739(4)
H23_5 H 0.8733 0.6535 0.5742
C41_5 C 0.7960(6) 0.6854(7) 0.5988(4)
H24_5 H 0.7901 0.6506 0.6146
C42_5 C 0.9073(4) 0.7356(5) 0.5246(3)
O11_3 O 0.9420(3) 0.6897(3) 0.5249(2)
O12_3 O 0.9159(3) 0.7840(3) 0.5061(2)
O13_5 O 0.4977(3) 0.7732(3) 0.79486(18)
O14_5 O 0.5086(4) 0.9192(4) 0.7266(2)
O15_5 O 0.4830(5) 0.6030(4) 0.7494(2)
O16_5 O 0.5009(4) 0.7926(4) 0.9062(2)
Fe7_2 Fe 0.99730(7) 0.34289(7) 0.98651(4)
Fe8_2 Fe 0.99276(7) 0.80733(7) 0.47681(4)
O17_3 O 0.4409(4) 0.6558(4) 0.8128(2)
O18_3 O 0.4312(4) 0.7210(4) 0.8610(2)
O19_3 O 0.5633(4) 0.8922(4) 0.7953(2)
O20_3 O 0.5699(4) 0.8428(4) 0.8488(2)
O21_3 O 0.4420(3) 0.8103(3) 0.7251(2)
O22_3 O 0.4159(3) 0.7160(3) 0.7439(2)
H25_5 H 0.458855 0.786775 0.916375
H26_5 H 0.52897 0.762043 0.917771
H27_5 H 0.477946 0.572514 0.770004
H28_5 H 0.446382 0.602037 0.73273
H29_5 H 0.51569 0.95707 0.741561
H30_5 H 0.543174 0.913083 0.708734
Fe1_4 Fe 0.50020(8) 0.21909(7) 0.34865(4)
Fe2_4 Fe 0.49730(7) 0.15711(7) 0.26349(4)
Fe3_4 Fe 0.50724(7) 0.30733(7) 0.27319(4)
O1_6 O 0.5609(4) 0.1476(4) 0.3476(2)
O2_6 O 0.5686(4) 0.1147(4) 0.2873(2)
C1_6 C 0.5847(5) 0.1152(6) 0.3217(4)
C2_6 C 0.6349(6) 0.0721(6) 0.3317(4)
C3_6 C 0.6425(6) 0.0525(6) 0.3697(4)
H1_6 H 0.6147 0.0663 0.3886
C4_6 C 0.6892(7) 0.0144(6) 0.3792(4)
H2_6 H 0.6948 0.0033 0.4049
C6_6 C 0.7196(7) 0.0074(8) 0.3154(4)
C7_6 C 0.6708(7) 0.0481(8) 0.3050(4)
H4_6 H 0.6641 0.0579 0.2792
H5_6 H 0.8068 0.0036 0.4080
O5_6 O 0.4322(4) 0.3384(4) 0.3002(2)
O6_6 O 0.4375(4) 0.2889(4) 0.3555(2)
C15_6 C 0.4155(6) 0.3280(6) 0.3331(4)
C16_6 C 0.3641(8) 0.3668(9) 0.3482(5)
C17_6 C 0.3392(9) 0.4133(9) 0.3267(5)
H9_6 H 0.3566 0.4211 0.3026
C18_6 C 0.2920(9) 0.4483(9) 0.3377(5)
H10_6 H 0.2721 0.4733 0.3195
C19_6 C 0.2718(9) 0.4494(10) 0.3735(5)
C20_6 C 0.2930(9) 0.4006(9) 0.3943(5)
H11_6 H 0.2734 0.3916 0.4176
C21_6 C 0.3439(9) 0.3618(9) 0.3827(5)
H12_6 H 0.3620 0.3335 0.3998
C22_6 C 0.2246(9) 0.4912(10) 0.3871(5)
C23_6 C 0.2084(9) 0.5394(9) 0.3659(6)
H13_6 H 0.2293 0.5453 0.3426
C24_6 C 0.1616(8) 0.5830(8) 0.3760(5)
H14_6 H 0.1508 0.6163 0.3601
C25_6 C 0.1335(8) 0.5731(8) 0.4104(5)
C26_6 C 0.1441(8) 0.5183(8) 0.4284(5)
H15_6 H 0.1193 0.5069 0.4494
C27_6 C 0.1901(9) 0.4798(9) 0.4167(6)
H16_6 H 0.1972 0.4431 0.4305
C28_6 C 0.0849(7) 0.6176(7) 0.4233(4)
O7_4 O 0.0633(4) 0.6078(4) 0.4547(2)
O8_4 O 0.0699(4) 0.6572(4) 0.4012(2)
O9_6 O 0.4513(3) 0.2904(3) 0.2296(2)
O10_6 O 0.4272(3) 0.1899(4) 0.2334(2)
C29_6 C 0.4212(5) 0.2426(6) 0.2199(3)
C30_6 C 0.3737(5) 0.2516(6) 0.1892(4)
C31_6 C 0.3439(6) 0.1996(6) 0.1759(4)
H17_6 H 0.3510 0.1607 0.1871
C32_6 C 0.3041(7) 0.2054(6) 0.1464(4)
H18_6 H 0.2851 0.1695 0.1367
C33_6 C 0.2907(6) 0.2593(6) 0.1304(4)
C34_6 C 0.3207(6) 0.3117(6) 0.1447(4)
H19_6 H 0.3116 0.3508 0.1343
C35_6 C 0.3625(6) 0.3071(6) 0.1732(4)
H20_6 H 0.3837 0.3425 0.1817
C36_6 C 0.2454(6) 0.2645(6) 0.1013(4)
C37_6 C 0.2408(6) 0.2188(6) 0.0748(4)
H21_6 H 0.2712 0.1877 0.0733
C38_6 C 0.1896(5) 0.2185(5) 0.0494(3)
H22_6 H 0.1844 0.1850 0.0325
C39_6 C 0.1472(5) 0.2666(6) 0.0490(3)
C40_6 C 0.1553(6) 0.3136(6) 0.0739(4)
H23_6 H 0.1267 0.3465 0.0742
C41_6 C 0.2040(6) 0.3146(7) 0.0988(4)
H24_6 H 0.2099 0.3494 0.1146
C42_6 C 0.0927(4) 0.2644(5) 0.0246(3)
O11_4 O 0.0580(3) 0.3103(3) 0.0249(2)
O12_4 O 0.0841(3) 0.2160(3) 0.0061(2)
O13_6 O 0.5023(3) 0.2268(3) 0.29486(18)
O14_6 O 0.4914(4) 0.0808(4) 0.2266(2)
O15_6 O 0.5170(5) 0.3970(4) 0.2494(2)
O16_6 O 0.4991(4) 0.2074(4) 0.4062(2)
O17_4 O 0.5591(4) 0.3442(4) 0.3128(2)
O18_4 O 0.5688(4) 0.2790(4) 0.3610(2)
O19_4 O 0.4367(4) 0.1078(4) 0.2953(2)
O20_4 O 0.4301(4) 0.1572(4) 0.3488(2)
O21_4 O 0.5580(3) 0.1897(3) 0.2251(2)
O22_4 O 0.5841(3) 0.2840(3) 0.2439(2)
H25_6 H 0.541145 0.213225 0.416375
H26_6 H 0.47103 0.237957 0.417771
H27_6 H 0.522054 0.427486 0.270004
H28_6 H 0.553618 0.397963 0.23273
H29_6 H 0.48431 0.0429298 0.241561
H30_6 H 0.456826 0.0869171 0.208734
C5_6 C 0.7297(6) 0.9908(7) 0.3516(4)
H3_6 H 0.7457 0.9916 0.2963
C8_6 C 0.7824(7) 0.9520(6) 0.3629(4)
C9_6 C 0.8146(6) 0.9664(7) 0.3950(4)
C10_6 C 0.8586(6) 0.9256(6) 0.4080(3)
H6_6 H 0.8785 0.9342 0.4313
C11_6 C 0.8746(6) 0.8737(5) 0.3888(4)
C12_6 C 0.8448(7) 0.8623(6) 0.3564(4)
H7_6 H 0.8547 0.8265 0.3424
C13_6 C 0.7999(7) 0.9013(7) 0.3431(4)
H8_6 H 0.7808 0.8926 0.3196
C14_6 C 0.9187(5) 0.8301(6) 0.4062(4)
O3_4 O 0.9409(4) 0.8442(4) 0.4372(2)
O4_4 O 0.9312(4) 0.7790(4) 0.3890(2)
Fe5_2 Fe 0.99980(8) 0.71909(7) 0.40135(4)
O15_7 O 0.0170(5) 0.1030(4) 0.0006(2)
H28_7 H 0.0536183 0.102037 0.0172696
O1_7 O 0.0609(4) 0.3524(4) 0.9024(2)
O2_7 O 0.0686(4) 0.3853(4) 0.9627(2)
C1_7 C 0.0847(5) 0.3848(6) 0.9283(4)
C2_7 C 0.1349(6) 0.4279(6) 0.9183(4)
C3_7 C 0.1425(6) 0.4475(6) 0.8803(4)
H1_7 H 0.1147 0.4337 0.8614
C4_7 C 0.1892(7) 0.4856(6) 0.8708(4)
H2_7 H 0.1948 0.4967 0.8451
C5_7 C 0.2297(6) 0.5092(7) 0.8984(4)
C6_7 C 0.2196(7) 0.4926(8) 0.9346(4)
H3_7 H 0.2457 0.5084 0.9537
C7_7 C 0.1708(7) 0.4519(8) 0.9450(4)
H4_7 H 0.1641 0.4421 0.9708
C8_7 C 0.2824(7) 0.5480(6) 0.8871(4)
C9_7 C 0.3146(6) 0.5336(7) 0.8550(4)
H5_7 H 0.3068 0.4964 0.8420
C10_7 C 0.3586(6) 0.5744(6) 0.8420(3)
H6_7 H 0.3785 0.5658 0.8187
C11_7 C 0.3746(6) 0.6263(5) 0.8612(4)
C12_7 C 0.3448(7) 0.6377(6) 0.8936(4)
H7_7 H 0.3547 0.6735 0.9076
C13_7 C 0.2999(7) 0.5987(7) 0.9069(4)
H8_7 H 0.2808 0.6074 0.9304
C14_7 C 0.4187(5) 0.6699(6) 0.8438(4)
O13_7 O 0.0023(3) 0.2732(3) 0.95514(18)
H25_7 H 0.0411453 0.286775 0.833625
H27_7 H 0.0220538 0.0725143 0.979996
O9_7 O 0.9513(3) 0.2096(3) 0.0204(2)
O10_7 O 0.9272(3) 0.3101(4) 0.0166(2)
C29_7 C 0.9212(5) 0.2574(6) 0.0301(3)
C30_7 C 0.8737(5) 0.2484(6) 0.0608(4)
C31_7 C 0.8439(6) 0.3004(6) 0.0741(4)
H17_7 H 0.8510 0.3393 0.0629
C32_7 C 0.8041(7) 0.2946(6) 0.1036(4)
H18_7 H 0.7851 0.3305 0.1133
C33_7 C 0.7907(6) 0.2407(6) 0.1196(4)
C34_7 C 0.8207(6) 0.1883(6) 0.1053(4)
H19_7 H 0.8116 0.1492 0.1157
C35_7 C 0.8625(6) 0.1929(6) 0.0768(4)
H20_7 H 0.8837 0.1575 0.0683
C36_7 C 0.7454(6) 0.2355(6) 0.1487(4)
C37_7 C 0.7408(6) 0.2812(6) 0.1752(4)
H21_7 H 0.7712 0.3123 0.1767
C38_7 C 0.6896(5) 0.2815(5) 0.2006(3)
H22_7 H 0.6844 0.3150 0.2175
C39_7 C 0.6472(5) 0.2334(6) 0.2010(3)
C40_7 C 0.6553(6) 0.1864(6) 0.1761(4)
H23_7 H 0.6267 0.1535 0.1758
C41_7 C 0.7040(6) 0.1854(7) 0.1512(4)
H24_7 H 0.7099 0.1506 0.1354
C42_7 C 0.5927(4) 0.2356(5) 0.2254(3)
O14_7 O 0.9914(4) 0.4192(4) 0.0234(2)
H29_7 H 0.98431 0.45707 0.00843945
H30_7 H 0.956826 0.413083 0.0412665
O5_7 O 0.9322(4) 0.1616(4) 0.9498(2)
O6_7 O 0.9375(4) 0.2111(4) 0.8945(2)
C15_7 C 0.9155(6) 0.1720(6) 0.9169(4)
C16_7 C 0.8641(8) 0.1332(9) 0.9018(5)
C17_7 C 0.8392(9) 0.0867(9) 0.9233(5)
H9_7 H 0.8566 0.0789 0.9474
C18_7 C 0.7920(9) 0.0517(9) 0.9123(5)
H10_7 H 0.7721 0.0267 0.9305
C19_7 C 0.7718(9) 0.0506(10) 0.8765(5)
C20_7 C 0.7930(9) 0.0994(9) 0.8557(5)
H11_7 H 0.7734 0.1084 0.8324
C21_7 C 0.8439(9) 0.1382(9) 0.8673(5)
H12_7 H 0.8620 0.1665 0.8502
C22_7 C 0.7246(9) 0.0088(10) 0.8629(5)
C27_7 C 0.6901(9) 0.0202(9) 0.8333(6)
H16_7 H 0.6972 0.0569 0.8195
O16_7 O 0.9991(4) 0.2926(4) 0.8438(2)
H26_7 H 0.97103 0.262043 0.832229
C23_7 C 0.7084(9) 0.9606(9) 0.8841(6)
H13_7 H 0.7293 0.9547 0.9074
C24_7 C 0.6616(8) 0.9170(8) 0.8740(5)
H14_7 H 0.6508 0.8837 0.8899
C25_7 C 0.6335(8) 0.9269(8) 0.8396(5)
C26_7 C 0.6441(8) 0.9817(8) 0.8216(5)
H15_7 H 0.6193 0.9931 0.8006
C28_7 C 0.5849(7) 0.8824(7) 0.8267(4)
C23_8 C 0.2916(9) 0.0394(9) 0.3841(6)
H13_8 H 0.2707 0.0453 0.4074
C24_8 C 0.3384(8) 0.0830(8) 0.3740(5)
H14_8 H 0.3492 0.1163 0.3899
C25_8 C 0.3665(8) 0.0731(8) 0.3396(5)
C26_8 C 0.3559(8) 0.0183(8) 0.3216(5)
H15_8 H 0.3807 0.0069 0.3006
C28_8 C 0.4151(7) 0.1176(7) 0.3267(4)
O5_8 O 0.0678(4) 0.8384(4) 0.4498(2)
O6_8 O 0.0625(4) 0.7889(4) 0.3945(2)
C15_8 C 0.0845(6) 0.8280(6) 0.4169(4)
C16_8 C 0.1359(8) 0.8668(9) 0.4018(5)
C17_8 C 0.1608(9) 0.9133(9) 0.4233(5)
H9_8 H 0.1434 0.9211 0.4474
C18_8 C 0.2080(9) 0.9483(9) 0.4123(5)
H10_8 H 0.2279 0.9733 0.4305
C19_8 C 0.2282(9) 0.9494(10) 0.3765(5)
C20_8 C 0.2070(9) 0.9006(9) 0.3557(5)
H11_8 H 0.2266 0.8916 0.3324
C21_8 C 0.1561(9) 0.8618(9) 0.3673(5)
H12_8 H 0.1380 0.8335 0.3502
C22_8 C 0.2754(9) 0.9912(10) 0.3629(5)
C27_8 C 0.3099(9) 0.9798(9) 0.3333(6)
H16_8 H 0.3028 0.9431 0.3195
O9_8 O 0.0487(3) 0.7904(3) 0.5204(2)
O10_8 O 0.0728(3) 0.6899(4) 0.5166(2)
C29_8 C 0.0788(5) 0.7426(6) 0.5301(3)
C30_8 C 0.1263(5) 0.7516(6) 0.5608(4)
C31_8 C 0.1561(6) 0.6996(6) 0.5741(4)
H17_8 H 0.1490 0.6607 0.5629
C32_8 C 0.1959(7) 0.7054(6) 0.6036(4)
H18_8 H 0.2149 0.6695 0.6133
C33_8 C 0.2093(6) 0.7593(6) 0.6196(4)
C34_8 C 0.1793(6) 0.8117(6) 0.6053(4)
H19_8 H 0.1884 0.8508 0.6157
C35_8 C 0.1375(6) 0.8071(6) 0.5768(4)
H20_8 H 0.1163 0.8425 0.5683
C36_8 C 0.2546(6) 0.7645(6) 0.6487(4)
C37_8 C 0.2592(6) 0.7188(6) 0.6752(4)
H21_8 H 0.2288 0.6877 0.6767
C38_8 C 0.3104(5) 0.7185(5) 0.7006(3)
H22_8 H 0.3156 0.6850 0.7175
C39_8 C 0.3528(5) 0.7666(6) 0.7010(3)
C40_8 C 0.3447(6) 0.8136(6) 0.6761(4)
H23_8 H 0.3733 0.8465 0.6758
C41_8 C 0.2960(6) 0.8146(7) 0.6512(4)
H24_8 H 0.2901 0.8494 0.6354
C42_8 C 0.4073(4) 0.7644(5) 0.7254(3)
O14_8 O 0.0086(4) 0.5808(4) 0.5234(2)
O16_8 O 0.0009(4) 0.7074(4) 0.3438(2)
H26_8 H 0.0289696 0.737957 0.332229
H29_8 H 0.0156903 0.54293 0.508439
H30_8 H 0.0431741 0.586917 0.541266
O1_8 O 0.9391(4) 0.6476(4) 0.4024(2)
O2_8 O 0.9314(4) 0.6147(4) 0.4627(2)
C1_8 C 0.9153(5) 0.6152(6) 0.4283(4)
C2_8 C 0.8651(6) 0.5721(6) 0.4183(4)
C3_8 C 0.8575(6) 0.5525(6) 0.3803(4)
H1_8 H 0.8853 0.5663 0.3614
C4_8 C 0.8108(7) 0.5144(6) 0.3708(4)
H2_8 H 0.8052 0.5033 0.3451
C5_8 C 0.7703(6) 0.4908(7) 0.3984(4)
C6_8 C 0.7804(7) 0.5074(8) 0.4346(4)
H3_8 H 0.7543 0.4916 0.4537
C7_8 C 0.8292(7) 0.5481(8) 0.4450(4)
H4_8 H 0.8359 0.5579 0.4708
C8_8 C 0.7176(7) 0.4520(6) 0.3871(4)
C9_8 C 0.6854(6) 0.4664(7) 0.3550(4)
H5_8 H 0.6932 0.5036 0.3420
C10_8 C 0.6414(6) 0.4256(6) 0.3420(3)
H6_8 H 0.6215 0.4342 0.3187
C11_8 C 0.6254(6) 0.3737(5) 0.3612(4)
C12_8 C 0.6552(7) 0.3623(6) 0.3936(4)
H7_8 H 0.6453 0.3265 0.4076
C13_8 C 0.7001(7) 0.4013(7) 0.4069(4)
H8_8 H 0.7192 0.3926 0.4304
C14_8 C 0.5813(5) 0.3301(6) 0.3438(4)
O13_8 O 0.9977(3) 0.7268(3) 0.45514(18)
O15_8 O 0.9830(5) 0.8970(4) 0.5006(2)
H25_8 H 0.958855 0.713225 0.333625
H27_8 H 0.977946 0.927486 0.479996
H28_8 H 0.946382 0.897963 0.51727
loop_
_geom_bond_atom_site_label_1
_geom_bond_atom_site_label_2
_geom_bond_site_symmetry_1
_geom_bond_site_symmetry_2
Fe1 O1 1_555 1_555
O1 C1 1_555 1_555
O2 C1 1_555 1_555
C1 C2 1_555 1_555
C2 C3 1_555 1_555
C3 H1 1_555 1_555
C4 C3 1_555 1_555
H2 C4 1_555 1_555
C5 C4 1_555 1_555
C6 C5 1_555 1_555
H3 C6 1_555 1_555
C7 C2 1_555 1_555
H4 C7 1_555 1_555
C8 C5 1_555 1_555
C9 C8 1_555 1_555
H5 C9 1_555 1_555
C10 C9 1_555 1_555
H6 C10 1_555 1_555
C11 C10 1_555 1_555
C12 C11 1_555 1_555
H7 C12 1_555 1_555
C13 C8 1_555 1_555
H8 C13 1_555 1_555
C14 C11 1_555 1_555
O3 C14 1_555 1_555
O4 C14 1_555 1_555
O13 Fe1 1_555 1_555
Fe5 O4 1_555 1_555
Fe9 O3 1_555 1_555
O17 Fe3 1_555 1_555
O18 Fe1 1_555 1_555
Fe3 O13 1_555 1_555
C6 C7 1_555 1_555
C12 C13 1_555 1_555
O15 H28 1_555 1_555
O5 C15 1_555 1_555
C15 O6 1_555 1_555
C16 C15 1_555 1_555
C17 C16 1_555 1_555
H9 C17 1_555 1_555
C18 C17 1_555 1_555
H10 C18 1_555 1_555
C19 C18 1_555 1_555
C20 C19 1_555 1_555
H11 C20 1_555 1_555
C21 C16 1_555 1_555
H12 C21 1_555 1_555
C22 C19 1_555 1_555
C27 C22 1_555 1_555
H16 C27 1_555 1_555
O19 Fe2 1_555 1_555
C20 C21 1_555 1_555
O16 H26 1_555 1_555
C29 O9 1_555 1_555
C30 C29 1_555 1_555
C31 C30 1_555 1_555
H17 C31 1_555 1_555
C32 C31 1_555 1_555
H18 C32 1_555 1_555
C33 C32 1_555 1_555
C34 C33 1_555 1_555
H19 C34 1_555 1_555
C35 C30 1_555 1_555
H20 C35 1_555 1_555
C36 C33 1_555 1_555
C37 C36 1_555 1_555
H21 C37 1_555 1_555
C38 C37 1_555 1_555
H22 C38 1_555 1_555
C39 C38 1_555 1_555
C40 C39 1_555 1_555
H23 C40 1_555 1_555
C41 C36 1_555 1_555
H24 C41 1_555 1_555
C42 C39 1_555 1_555
O11 C42 1_555 1_555
O12 C42 1_555 1_555
Fe6 O11 1_555 1_555
Fe8 O12 1_555 1_555
O10 C29 1_555 1_555
C34 C35 1_555 1_555
C40 C41 1_555 1_555
O14 H29 1_555 1_555
O14 H30 1_555 1_555
H13 C23 1_555 1_555
C24 C23 1_555 1_555
H14 C24 1_555 1_555
C25 C24 1_555 1_555
C26 C25 1_555 1_555
H15 C26 1_555 1_555
C28 C25 1_555 1_555
O7 C28 1_555 1_555
O8 C28 1_555 1_555
Fe5 O8 1_555 1_555
Fe7 O7 1_555 1_555
H13_2 C23_2 1_555 1_555
C24_2 C23_2 1_555 1_555
H14_2 C24_2 1_555 1_555
C25_2 C24_2 1_555 1_555
C26_2 C25_2 1_555 1_555
H15_2 C26_2 1_555 1_555
C28_2 C25_2 1_555 1_555
O7_2 C28_2 1_555 1_555
O8_2 C28_2 1_555 1_555
Fe4 O8_2 1_555 1_555
Fe6 O7_2 1_555 1_555
O5_2 C15_2 1_555 1_555
C15_2 O6_2 1_555 1_555
C16_2 C15_2 1_555 1_555
C17_2 C16_2 1_555 1_555
H9_2 C17_2 1_555 1_555
C18_2 C17_2 1_555 1_555
H10_2 C18_2 1_555 1_555
C19_2 C18_2 1_555 1_555
C20_2 C19_2 1_555 1_555
H11_2 C20_2 1_555 1_555
C21_2 C16_2 1_555 1_555
H12_2 C21_2 1_555 1_555
C22_2 C19_2 1_555 1_555
C27_2 C22_2 1_555 1_555
H16_2 C27_2 1_555 1_555
O10_2 Fe2_2 1_555 1_555
C29_2 O9_2 1_555 1_555
C30_2 C29_2 1_555 1_555
C31_2 C30_2 1_555 1_555
H17_2 C31_2 1_555 1_555
C32_2 C31_2 1_555 1_555
H18_2 C32_2 1_555 1_555
C33_2 C32_2 1_555 1_555
C34_2 C33_2 1_555 1_555
H19_2 C34_2 1_555 1_555
C35_2 C30_2 1_555 1_555
H20_2 C35_2 1_555 1_555
C36_2 C33_2 1_555 1_555
C37_2 C36_2 1_555 1_555
H21_2 C37_2 1_555 1_555
C38_2 C37_2 1_555 1_555
H22_2 C38_2 1_555 1_555
C39_2 C38_2 1_555 1_555
C40_2 C39_2 1_555 1_555
H23_2 C40_2 1_555 1_555
C41_2 C36_2 1_555 1_555
H24_2 C41_2 1_555 1_555
C42_2 C39_2 1_555 1_555
O11_2 C42_2 1_555 1_555
O12_2 C42_2 1_555 1_555
O14_2 Fe2_2 1_555 1_555
Fe7 O11_2 1_555 1_555
Fe9 O12_2 1_555 1_555
O19_2 Fe2_2 1_555 1_555
C20_2 C21_2 1_555 1_555
O10_2 C29_2 1_555 1_555
C34_2 C35_2 1_555 1_555
C40_2 C41_2 1_555 1_555
O16_2 H26_2 1_555 1_555
O14_2 H29_2 1_555 1_555
O14_2 H30_2 1_555 1_555
Fe1_2 O1_2 1_555 1_555
O1_2 C1_2 1_555 1_555
O2_2 C1_2 1_555 1_555
C1_2 C2_2 1_555 1_555
C2_2 C3_2 1_555 1_555
C3_2 H1_2 1_555 1_555
C4_2 C3_2 1_555 1_555
H2_2 C4_2 1_555 1_555
C5_2 C4_2 1_555 1_555
C6_2 C5_2 1_555 1_555
H3_2 C6_2 1_555 1_555
C7_2 C2_2 1_555 1_555
H4_2 C7_2 1_555 1_555
C8_2 C5_2 1_555 1_555
C9_2 C8_2 1_555 1_555
H5_2 C9_2 1_555 1_555
C10_2 C9_2 1_555 1_555
H6_2 C10_2 1_555 1_555
C11_2 C10_2 1_555 1_555
C12_2 C11_2 1_555 1_555
H7_2 C12_2 1_555 1_555
C13_2 C8_2 1_555 1_555
H8_2 C13_2 1_555 1_555
C14_2 C11_2 1_555 1_555
O3_2 C14_2 1_555 1_555
O4_2 C14_2 1_555 1_555
O13_2 Fe1_2 1_555 1_555
O15_2 Fe3_2 1_555 1_555
Fe4 O4_2 1_555 1_555
Fe8 O3_2 1_555 1_555
O17_2 Fe3_2 1_555 1_555
O18_2 Fe1_2 1_555 1_555
O22_2 Fe3_2 1_555 1_555
Fe3_2 O13_2 1_555 1_555
C6_2 C7_2 1_555 1_555
C12_2 C13_2 1_555 1_555
O15_2 H27_2 1_555 1_555
O15_2 H28_2 1_555 1_555
Fe4 O1_3 1_555 1_555
Fe6 O2_3 1_555 1_555
Fe8 O5_3 1_555 1_555
O1_3 C1_3 1_555 1_555
O2_3 C1_3 1_555 1_555
C1_3 C2_3 1_555 1_555
C2_3 C3_3 1_555 1_555
C3_3 H1_3 1_555 1_555
C4_3 C3_3 1_555 1_555
H2_3 C4_3 1_555 1_555
C7_3 C2_3 1_555 1_555
H4_3 C7_3 1_555 1_555
O5_3 C15_3 1_555 1_555
O6_3 Fe4 1_555 1_555
C15_3 O6_3 1_555 1_555
C16_3 C15_3 1_555 1_555
C17_3 C16_3 1_555 1_555
H9_3 C17_3 1_555 1_555
C18_3 C17_3 1_555 1_555
H10_3 C18_3 1_555 1_555
C19_3 C18_3 1_555 1_555
C20_3 C19_3 1_555 1_555
H11_3 C20_3 1_555 1_555
C21_3 C16_3 1_555 1_555
H12_3 C21_3 1_555 1_555
C22_3 C19_3 1_555 1_555
C23_3 C22_3 1_555 1_555
H13_3 C23_3 1_555 1_555
C24_3 C23_3 1_555 1_555
H14_3 C24_3 1_555 1_555
C25_3 C24_3 1_555 1_555
C26_3 C25_3 1_555 1_555
H15_3 C26_3 1_555 1_555
C27_3 C22_3 1_555 1_555
H16_3 C27_3 1_555 1_555
C28_3 C25_3 1_555 1_555
O19_2 C28_3 1_555 1_555
O20_2 C28_3 1_555 1_555
O9_3 Fe8 1_555 1_555
O10_3 Fe6 1_555 1_555
C29_3 O9_3 1_555 1_555
C30_3 C29_3 1_555 1_555
C31_3 C30_3 1_555 1_555
H17_3 C31_3 1_555 1_555
C32_3 C31_3 1_555 1_555
H18_3 C32_3 1_555 1_555
C33_3 C32_3 1_555 1_555
C34_3 C33_3 1_555 1_555
H19_3 C34_3 1_555 1_555
C35_3 C30_3 1_555 1_555
H20_3 C35_3 1_555 1_555
C36_3 C33_3 1_555 1_555
C37_3 C36_3 1_555 1_555
H21_3 C37_3 1_555 1_555
C38_3 C37_3 1_555 1_555
H22_3 C38_3 1_555 1_555
C39_3 C38_3 1_555 1_555
C40_3 C39_3 1_555 1_555
H23_3 C40_3 1_555 1_555
C41_3 C36_3 1_555 1_555
H24_3 C41_3 1_555 1_555
C42_3 C39_3 1_555 1_555
O21 C42_3 1_555 1_555
O22 C42_3 1_555 1_555
O13_3 Fe4 1_555 1_555
O14_3 Fe6 1_555 1_555
O15_3 Fe8 1_555 1_555
O16_3 Fe4 1_555 1_555
Fe6 O13_3 1_555 1_555
Fe8 O13_3 1_555 1_555
C6_3 C7_3 1_555 1_555
C20_3 C21_3 1_555 1_555
C26_3 C27_3 1_555 1_555
O10_3 C29_3 1_555 1_555
C34_3 C35_3 1_555 1_555
C40_3 C41_3 1_555 1_555
O16_3 H25_3 1_555 1_555
O16_3 H26_3 1_555 1_555
O15_3 H27_3 1_555 1_555
O15_3 H28_3 1_555 1_555
O14_3 H29_3 1_555 1_555
O14_3 H30_3 1_555 1_555
C8_3 C5_3 1_555 1_555
C9_3 C8_3 1_555 1_555
C10_3 C9_3 1_555 1_555
H6_3 C10_3 1_555 1_555
C11_3 C10_3 1_555 1_555
C12_3 C11_3 1_555 1_555
H7_3 C12_3 1_555 1_555
C13_3 C8_3 1_555 1_555
H8_3 C13_3 1_555 1_555
C14_3 C11_3 1_555 1_555
O17_2 C14_3 1_555 1_555
O18_2 C14_3 1_555 1_555
C12_3 C13_3 1_555 1_555
C8_4 C5_4 1_555 1_555
C9_4 C8_4 1_555 1_555
C10_4 C9_4 1_555 1_555
H6_4 C10_4 1_555 1_555
C11_4 C10_4 1_555 1_555
C12_4 C11_4 1_555 1_555
H7_4 C12_4 1_555 1_555
C13_4 C8_4 1_555 1_555
H8_4 C13_4 1_555 1_555
C14_4 C11_4 1_555 1_555
O17 C14_4 1_555 1_555
O18 C14_4 1_555 1_555
C12_4 C13_4 1_555 1_555
Fe5 O1_4 1_555 1_555
Fe7 O2_4 1_555 1_555
Fe9 O5_4 1_555 1_555
O1_4 C1_4 1_555 1_555
O2_4 C1_4 1_555 1_555
C1_4 C2_4 1_555 1_555
C2_4 C3_4 1_555 1_555
C3_4 H1_4 1_555 1_555
C4_4 C3_4 1_555 1_555
H2_4 C4_4 1_555 1_555
C7_4 C2_4 1_555 1_555
H4_4 C7_4 1_555 1_555
O5_4 C15_4 1_555 1_555
O6_4 Fe5 1_555 1_555
C15_4 O6_4 1_555 1_555
C16_4 C15_4 1_555 1_555
C17_4 C16_4 1_555 1_555
H9_4 C17_4 1_555 1_555
C18_4 C17_4 1_555 1_555
H10_4 C18_4 1_555 1_555
C19_4 C18_4 1_555 1_555
C20_4 C19_4 1_555 1_555
H11_4 C20_4 1_555 1_555
C21_4 C16_4 1_555 1_555
H12_4 C21_4 1_555 1_555
C22_4 C19_4 1_555 1_555
C23_4 C22_4 1_555 1_555
H13_4 C23_4 1_555 1_555
C24_4 C23_4 1_555 1_555
H14_4 C24_4 1_555 1_555
C25_4 C24_4 1_555 1_555
C26_4 C25_4 1_555 1_555
H15_4 C26_4 1_555 1_555
C27_4 C22_4 1_555 1_555
H16_4 C27_4 1_555 1_555
C28_4 C25_4 1_555 1_555
O19 C28_4 1_555 1_555
O20 C28_4 1_555 1_555
O9_4 Fe9 1_555 1_555
O10_4 Fe7 1_555 1_555
C29_4 O9_4 1_555 1_555
C30_4 C29_4 1_555 1_555
C31_4 C30_4 1_555 1_555
H17_4 C31_4 1_555 1_555
C32_4 C31_4 1_555 1_555
H18_4 C32_4 1_555 1_555
C33_4 C32_4 1_555 1_555
C34_4 C33_4 1_555 1_555
H19_4 C34_4 1_555 1_555
C35_4 C30_4 1_555 1_555
H20_4 C35_4 1_555 1_555
C36_4 C33_4 1_555 1_555
C37_4 C36_4 1_555 1_555
H21_4 C37_4 1_555 1_555
C38_4 C37_4 1_555 1_555
H22_4 C38_4 1_555 1_555
C39_4 C38_4 1_555 1_555
C40_4 C39_4 1_555 1_555
H23_4 C40_4 1_555 1_555
C41_4 C36_4 1_555 1_555
H24_4 C41_4 1_555 1_555
C42_4 C39_4 1_555 1_555
O21_2 C42_4 1_555 1_555
O22_2 C42_4 1_555 1_555
O13_4 Fe5 1_555 1_555
O14_4 Fe7 1_555 1_555
O15_4 Fe9 1_555 1_555
O16_4 Fe5 1_555 1_555
Fe7 O13_4 1_555 1_555
Fe9 O13_4 1_555 1_555
C6_4 C7_4 1_555 1_555
C20_4 C21_4 1_555 1_555
C26_4 C27_4 1_555 1_555
O10_4 C29_4 1_555 1_555
C34_4 C35_4 1_555 1_555
C40_4 C41_4 1_555 1_555
O16_4 H25_4 1_555 1_555
O16_4 H26_4 1_555 1_555
O15_4 H27_4 1_555 1_555
O15_4 H28_4 1_555 1_555
O14_4 H29_4 1_555 1_555
O14_4 H30_4 1_555 1_555
C8_5 C5_5 1_555 1_555
C9_5 C8_5 1_555 1_555
C10_5 C9_5 1_555 1_555
H6_5 C10_5 1_555 1_555
C11_5 C10_5 1_555 1_555
C12_5 C11_5 1_555 1_555
H7_5 C12_5 1_555 1_555
C13_5 C8_5 1_555 1_555
H8_5 C13_5 1_555 1_555
C14_5 C11_5 1_555 1_555
O3_3 C14_5 1_555 1_555
O4_3 C14_5 1_555 1_555
Fe4_2 O4_3 1_555 1_555
Fe9_2 O3_3 1_555 1_555
C12_5 C13_5 1_555 1_555
Fe1_3 O1_5 1_555 1_555
Fe2_3 O2_5 1_555 1_555
Fe3_3 O5_5 1_555 1_555
O1_5 C1_5 1_555 1_555
O2_5 C1_5 1_555 1_555
C1_5 C2_5 1_555 1_555
C2_5 C3_5 1_555 1_555
C3_5 H1_5 1_555 1_555
C4_5 C3_5 1_555 1_555
H2_5 C4_5 1_555 1_555
C7_5 C2_5 1_555 1_555
H4_5 C7_5 1_555 1_555
O5_5 C15_5 1_555 1_555
O6_5 Fe1_3 1_555 1_555
C15_5 O6_5 1_555 1_555
C16_5 C15_5 1_555 1_555
C17_5 C16_5 1_555 1_555
H9_5 C17_5 1_555 1_555
C18_5 C17_5 1_555 1_555
H10_5 C18_5 1_555 1_555
C19_5 C18_5 1_555 1_555
C20_5 C19_5 1_555 1_555
H11_5 C20_5 1_555 1_555
C21_5 C16_5 1_555 1_555
H12_5 C21_5 1_555 1_555
C22_5 C19_5 1_555 1_555
C23_5 C22_5 1_555 1_555
H13_5 C23_5 1_555 1_555
C24_5 C23_5 1_555 1_555
H14_5 C24_5 1_555 1_555
C25_5 C24_5 1_555 1_555
C26_5 C25_5 1_555 1_555
H15_5 C26_5 1_555 1_555
C27_5 C22_5 1_555 1_555
H16_5 C27_5 1_555 1_555
C28_5 C25_5 1_555 1_555
O7_3 C28_5 1_555 1_555
O8_3 C28_5 1_555 1_555
O9_5 Fe3_3 1_555 1_555
O10_5 Fe2_3 1_555 1_555
C29_5 O9_5 1_555 1_555
C30_5 C29_5 1_555 1_555
C31_5 C30_5 1_555 1_555
H17_5 C31_5 1_555 1_555
C32_5 C31_5 1_555 1_555
H18_5 C32_5 1_555 1_555
C33_5 C32_5 1_555 1_555
C34_5 C33_5 1_555 1_555
H19_5 C34_5 1_555 1_555
C35_5 C30_5 1_555 1_555
H20_5 C35_5 1_555 1_555
C36_5 C33_5 1_555 1_555
C37_5 C36_5 1_555 1_555
H21_5 C37_5 1_555 1_555
C38_5 C37_5 1_555 1_555
H22_5 C38_5 1_555 1_555
C39_5 C38_5 1_555 1_555
C40_5 C39_5 1_555 1_555
H23_5 C40_5 1_555 1_555
C41_5 C36_5 1_555 1_555
H24_5 C41_5 1_555 1_555
C42_5 C39_5 1_555 1_555
O11_3 C42_5 1_555 1_555
O12_3 C42_5 1_555 1_555
O13_5 Fe1_3 1_555 1_555
O14_5 Fe2_3 1_555 1_555
O15_5 Fe3_3 1_555 1_555
O16_5 Fe1_3 1_555 1_555
Fe7_2 O7_3 1_555 1_555
Fe8_2 O12_3 1_555 1_555
O17_3 Fe3_3 1_555 1_555
O18_3 Fe1_3 1_555 1_555
O19_3 Fe2_3 1_555 1_555
O20_3 Fe1_3 1_555 1_555
O21_3 Fe2_3 1_555 1_555
O22_3 Fe3_3 1_555 1_555
Fe2_3 O13_5 1_555 1_555
Fe3_3 O13_5 1_555 1_555
C6_5 C7_5 1_555 1_555
C20_5 C21_5 1_555 1_555
C26_5 C27_5 1_555 1_555
O10_5 C29_5 1_555 1_555
C34_5 C35_5 1_555 1_555
C40_5 C41_5 1_555 1_555
O16_5 H25_5 1_555 1_555
O16_5 H26_5 1_555 1_555
O15_5 H27_5 1_555 1_555
O15_5 H28_5 1_555 1_555
O14_5 H29_5 1_555 1_555
O14_5 H30_5 1_555 1_555
Fe1_4 O1_6 1_555 1_555
Fe2_4 O2_6 1_555 1_555
Fe3_4 O5_6 1_555 1_555
O1_6 C1_6 1_555 1_555
O2_6 C1_6 1_555 1_555
C1_6 C2_6 1_555 1_555
C2_6 C3_6 1_555 1_555
C3_6 H1_6 1_555 1_555
C4_6 C3_6 1_555 1_555
H2_6 C4_6 1_555 1_555
C7_6 C2_6 1_555 1_555
H4_6 C7_6 1_555 1_555
O5_6 C15_6 1_555 1_555
O6_6 Fe1_4 1_555 1_555
C15_6 O6_6 1_555 1_555
C16_6 C15_6 1_555 1_555
C17_6 C16_6 1_555 1_555
H9_6 C17_6 1_555 1_555
C18_6 C17_6 1_555 1_555
H10_6 C18_6 1_555 1_555
C19_6 C18_6 1_555 1_555
C20_6 C19_6 1_555 1_555
H11_6 C20_6 1_555 1_555
C21_6 C16_6 1_555 1_555
H12_6 C21_6 1_555 1_555
C22_6 C19_6 1_555 1_555
C23_6 C22_6 1_555 1_555
H13_6 C23_6 1_555 1_555
C24_6 C23_6 1_555 1_555
H14_6 C24_6 1_555 1_555
C25_6 C24_6 1_555 1_555
C26_6 C25_6 1_555 1_555
H15_6 C26_6 1_555 1_555
C27_6 C22_6 1_555 1_555
H16_6 C27_6 1_555 1_555
C28_6 C25_6 1_555 1_555
O7_4 C28_6 1_555 1_555
O8_4 C28_6 1_555 1_555
O9_6 Fe3_4 1_555 1_555
O10_6 Fe2_4 1_555 1_555
C29_6 O9_6 1_555 1_555
C30_6 C29_6 1_555 1_555
C31_6 C30_6 1_555 1_555
H17_6 C31_6 1_555 1_555
C32_6 C31_6 1_555 1_555
H18_6 C32_6 1_555 1_555
C33_6 C32_6 1_555 1_555
C34_6 C33_6 1_555 1_555
H19_6 C34_6 1_555 1_555
C35_6 C30_6 1_555 1_555
H20_6 C35_6 1_555 1_555
C36_6 C33_6 1_555 1_555
C37_6 C36_6 1_555 1_555
H21_6 C37_6 1_555 1_555
C38_6 C37_6 1_555 1_555
H22_6 C38_6 1_555 1_555
C39_6 C38_6 1_555 1_555
C40_6 C39_6 1_555 1_555
H23_6 C40_6 1_555 1_555
C41_6 C36_6 1_555 1_555
H24_6 C41_6 1_555 1_555
C42_6 C39_6 1_555 1_555
O11_4 C42_6 1_555 1_555
O12_4 C42_6 1_555 1_555
O13_6 Fe1_4 1_555 1_555
O14_6 Fe2_4 1_555 1_555
O15_6 Fe3_4 1_555 1_555
O16_6 Fe1_4 1_555 1_555
Fe6_2 O7_4 1_555 1_555
O17_4 Fe3_4 1_555 1_555
O18_4 Fe1_4 1_555 1_555
O19_4 Fe2_4 1_555 1_555
O20_4 Fe1_4 1_555 1_555
O21_4 Fe2_4 1_555 1_555
O22_4 Fe3_4 1_555 1_555
Fe2_4 O13_6 1_555 1_555
Fe3_4 O13_6 1_555 1_555
C6_6 C7_6 1_555 1_555
C20_6 C21_6 1_555 1_555
C26_6 C27_6 1_555 1_555
O10_6 C29_6 1_555 1_555
C34_6 C35_6 1_555 1_555
C40_6 C41_6 1_555 1_555
O16_6 H25_6 1_555 1_555
O16_6 H26_6 1_555 1_555
O15_6 H27_6 1_555 1_555
O15_6 H28_6 1_555 1_555
O14_6 H29_6 1_555 1_555
O14_6 H30_6 1_555 1_555
C8_6 C5_6 1_555 1_555
C9_6 C8_6 1_555 1_555
C10_6 C9_6 1_555 1_555
H6_6 C10_6 1_555 1_555
C11_6 C10_6 1_555 1_555
C12_6 C11_6 1_555 1_555
H7_6 C12_6 1_555 1_555
C13_6 C8_6 1_555 1_555
H8_6 C13_6 1_555 1_555
C14_6 C11_6 1_555 1_555
O3_4 C14_6 1_555 1_555
O4_4 C14_6 1_555 1_555
Fe5_2 O4_4 1_555 1_555
Fe8_2 O3_4 1_555 1_555
C12_6 C13_6 1_555 1_555
O15_7 H28_7 1_555 1_555
Fe4_2 O1_7 1_555 1_555
O1_7 C1_7 1_555 1_555
O2_7 C1_7 1_555 1_555
C1_7 C2_7 1_555 1_555
C2_7 C3_7 1_555 1_555
C3_7 H1_7 1_555 1_555
C4_7 C3_7 1_555 1_555
H2_7 C4_7 1_555 1_555
C5_7 C4_7 1_555 1_555
C6_7 C5_7 1_555 1_555
H3_7 C6_7 1_555 1_555
C7_7 C2_7 1_555 1_555
H4_7 C7_7 1_555 1_555
C8_7 C5_7 1_555 1_555
C9_7 C8_7 1_555 1_555
H5_7 C9_7 1_555 1_555
C10_7 C9_7 1_555 1_555
H6_7 C10_7 1_555 1_555
C11_7 C10_7 1_555 1_555
C12_7 C11_7 1_555 1_555
H7_7 C12_7 1_555 1_555
C13_7 C8_7 1_555 1_555
H8_7 C13_7 1_555 1_555
C14_7 C11_7 1_555 1_555
O17_3 C14_7 1_555 1_555
O18_3 C14_7 1_555 1_555
O13_7 Fe4_2 1_555 1_555
Fe9_2 O13_7 1_555 1_555
C6_7 C7_7 1_555 1_555
C12_7 C13_7 1_555 1_555
C29_7 O9_7 1_555 1_555
C30_7 C29_7 1_555 1_555
C31_7 C30_7 1_555 1_555
H17_7 C31_7 1_555 1_555
C32_7 C31_7 1_555 1_555
H18_7 C32_7 1_555 1_555
C33_7 C32_7 1_555 1_555
C34_7 C33_7 1_555 1_555
H19_7 C34_7 1_555 1_555
C35_7 C30_7 1_555 1_555
H20_7 C35_7 1_555 1_555
C36_7 C33_7 1_555 1_555
C37_7 C36_7 1_555 1_555
H21_7 C37_7 1_555 1_555
C38_7 C37_7 1_555 1_555
H22_7 C38_7 1_555 1_555
C39_7 C38_7 1_555 1_555
C40_7 C39_7 1_555 1_555
H23_7 C40_7 1_555 1_555
C41_7 C36_7 1_555 1_555
H24_7 C41_7 1_555 1_555
C42_7 C39_7 1_555 1_555
O21_4 C42_7 1_555 1_555
O22_4 C42_7 1_555 1_555
O10_7 C29_7 1_555 1_555
C34_7 C35_7 1_555 1_555
C40_7 C41_7 1_555 1_555
O14_7 H29_7 1_555 1_555
O14_7 H30_7 1_555 1_555
O5_7 C15_7 1_555 1_555
C15_7 O6_7 1_555 1_555
C16_7 C15_7 1_555 1_555
C17_7 C16_7 1_555 1_555
H9_7 C17_7 1_555 1_555
C18_7 C17_7 1_555 1_555
H10_7 C18_7 1_555 1_555
C19_7 C18_7 1_555 1_555
C20_7 C19_7 1_555 1_555
H11_7 C20_7 1_555 1_555
C21_7 C16_7 1_555 1_555
H12_7 C21_7 1_555 1_555
C22_7 C19_7 1_555 1_555
C27_7 C22_7 1_555 1_555
H16_7 C27_7 1_555 1_555
C20_7 C21_7 1_555 1_555
O16_7 H26_7 1_555 1_555
H13_7 C23_7 1_555 1_555
C24_7 C23_7 1_555 1_555
H14_7 C24_7 1_555 1_555
C25_7 C24_7 1_555 1_555
C26_7 C25_7 1_555 1_555
H15_7 C26_7 1_555 1_555
C28_7 C25_7 1_555 1_555
O19_3 C28_7 1_555 1_555
O20_3 C28_7 1_555 1_555
H13_8 C23_8 1_555 1_555
C24_8 C23_8 1_555 1_555
H14_8 C24_8 1_555 1_555
C25_8 C24_8 1_555 1_555
C26_8 C25_8 1_555 1_555
H15_8 C26_8 1_555 1_555
C28_8 C25_8 1_555 1_555
O19_4 C28_8 1_555 1_555
O20_4 C28_8 1_555 1_555
O5_8 C15_8 1_555 1_555
C15_8 O6_8 1_555 1_555
C16_8 C15_8 1_555 1_555
C17_8 C16_8 1_555 1_555
H9_8 C17_8 1_555 1_555
C18_8 C17_8 1_555 1_555
H10_8 C18_8 1_555 1_555
C19_8 C18_8 1_555 1_555
C20_8 C19_8 1_555 1_555
H11_8 C20_8 1_555 1_555
C21_8 C16_8 1_555 1_555
H12_8 C21_8 1_555 1_555
C22_8 C19_8 1_555 1_555
C27_8 C22_8 1_555 1_555
H16_8 C27_8 1_555 1_555
O10_8 Fe6_2 1_555 1_555
C29_8 O9_8 1_555 1_555
C30_8 C29_8 1_555 1_555
C31_8 C30_8 1_555 1_555
H17_8 C31_8 1_555 1_555
C32_8 C31_8 1_555 1_555
H18_8 C32_8 1_555 1_555
C33_8 C32_8 1_555 1_555
C34_8 C33_8 1_555 1_555
H19_8 C34_8 1_555 1_555
C35_8 C30_8 1_555 1_555
H20_8 C35_8 1_555 1_555
C36_8 C33_8 1_555 1_555
C37_8 C36_8 1_555 1_555
H21_8 C37_8 1_555 1_555
C38_8 C37_8 1_555 1_555
H22_8 C38_8 1_555 1_555
C39_8 C38_8 1_555 1_555
C40_8 C39_8 1_555 1_555
H23_8 C40_8 1_555 1_555
C41_8 C36_8 1_555 1_555
H24_8 C41_8 1_555 1_555
C42_8 C39_8 1_555 1_555
O21_3 C42_8 1_555 1_555
O22_3 C42_8 1_555 1_555
O14_8 Fe6_2 1_555 1_555
C20_8 C21_8 1_555 1_555
O10_8 C29_8 1_555 1_555
C34_8 C35_8 1_555 1_555
C40_8 C41_8 1_555 1_555
O16_8 H26_8 1_555 1_555
O14_8 H29_8 1_555 1_555
O14_8 H30_8 1_555 1_555
Fe5_2 O1_8 1_555 1_555
O1_8 C1_8 1_555 1_555
O2_8 C1_8 1_555 1_555
C1_8 C2_8 1_555 1_555
C2_8 C3_8 1_555 1_555
C3_8 H1_8 1_555 1_555
C4_8 C3_8 1_555 1_555
H2_8 C4_8 1_555 1_555
C5_8 C4_8 1_555 1_555
C6_8 C5_8 1_555 1_555
H3_8 C6_8 1_555 1_555
C7_8 C2_8 1_555 1_555
H4_8 C7_8 1_555 1_555
C8_8 C5_8 1_555 1_555
C9_8 C8_8 1_555 1_555
H5_8 C9_8 1_555 1_555
C10_8 C9_8 1_555 1_555
H6_8 C10_8 1_555 1_555
C11_8 C10_8 1_555 1_555
C12_8 C11_8 1_555 1_555
H7_8 C12_8 1_555 1_555
C13_8 C8_8 1_555 1_555
H8_8 C13_8 1_555 1_555
C14_8 C11_8 1_555 1_555
O17_4 C14_8 1_555 1_555
O18_4 C14_8 1_555 1_555
O13_8 Fe5_2 1_555 1_555
O15_8 Fe8_2 1_555 1_555
Fe8_2 O13_8 1_555 1_555
C6_8 C7_8 1_555 1_555
C12_8 C13_8 1_555 1_555
O15_8 H27_8 1_555 1_555
O15_8 H28_8 1_555 1_555

#END
