
###############################################################################
#
# This file contains modified crystal structure data generated from the
# MOF subset of the Cambridge Structural Database (CSD) v543 
# hosted by the Cambridge Crystallographic Data Centre (CCDC).
#
# This work is licensed under the Creative Commons
# Attribution-NonCommercial-ShareAlike 4.0 International License.
# To view a copy of this license, visit
# http://creativecommons.org/licenses/by-nc-sa/4.0/
# or send a letter to
# Creative Commons, PO Box 1866, Mountain View, CA 94042, USA.
#
# CIF created using the CSD Python API on 29 September 2022
# The structure has been converted into the P1 space group
# The structure has a 3D framework
# The original CSD entry MIBQAR02 is in the cubic crystal system
# The framework has been calculated to contain at least 10.0% void space
# The void calculation uses a probe of radius 1.32A, grid spacing 0.4
#
###############################################################################

data_MIBQAR02
_chemical_formula_moiety         '(C192 H96 O100 Zn20)n'
_symmetry_cell_setting           triclinic
_symmetry_space_group_name_H-M   'P 1'
_symmetry_Int_Tables_number      1
_space_group_name_Hall           'P 1'
loop_
_symmetry_equiv_pos_site_id
_symmetry_equiv_pos_as_xyz
1 x,y,z
_cell_length_a                   25.8751(8)
_cell_length_b                   25.8751(8)
_cell_length_c                   25.8751(8)
_cell_angle_alpha                90
_cell_angle_beta                 90
_cell_angle_gamma                90
_cell_volume                     17323.9
loop_
_atom_site_label
_atom_site_type_symbol
_atom_site_fract_x
_atom_site_fract_y
_atom_site_fract_z
Zn1 Zn 0.206566(10) 0.293434(10) 0.206566(10)
O1 O 0.250 0.250 0.250
O2 O 0.21947(6) 0.28053(6) 0.13387(7)
C1 C 0.250 0.250 0.11160(13)
C2 C 0.250 0.250 0.05363(13)
C3 C 0.21757(9) 0.28243(9) 0.02661(11)
H1 H 0.195 0.305 0.0448
O3 O 0.28053(6) 0.21947(6) 0.13387(7)
C4 C 0.28243(9) 0.21757(9) 0.02661(11)
H2 H 0.305 0.195 0.0448
Zn2 Zn 0.206566(10) 0.206566(10) 0.293434(10)
O6 O 0.13387(7) 0.21947(6) 0.28053(6)
C9 C 0.11160(13) 0.250 0.250
C10 C 0.05363(13) 0.250 0.250
C11 C 0.02661(11) 0.21757(9) 0.28243(9)
H5 H 0.0448 0.195 0.305
O7 O 0.13387(7) 0.28053(6) 0.21947(6)
C12 C 0.02661(11) 0.28243(9) 0.21757(9)
H6 H 0.0448 0.305 0.195
Zn3 Zn 0.293434(10) 0.206566(10) 0.206566(10)
O10 O 0.28053(6) 0.13387(7) 0.21947(6)
C17 C 0.250 0.11160(13) 0.250
C18 C 0.250 0.05363(13) 0.250
C19 C 0.28243(9) 0.02661(11) 0.21757(9)
H9 H 0.305 0.0448 0.195
O11 O 0.21947(6) 0.13387(7) 0.28053(6)
C20 C 0.21757(9) 0.02661(11) 0.28243(9)
H10 H 0.195 0.0448 0.305
Zn10 Zn 0.293434(10) 0.293434(10) 0.293434(10)
O16 O 0.21947(6) 0.21947(6) 0.36613(7)
O18 O 0.36613(7) 0.21947(6) 0.21947(6)
O19 O 0.21947(6) 0.36613(7) 0.21947(6)
O4 O 0.21947(6) 0.28053(6) 0.86613(7)
C5 C 0.250 0.250 0.88840(13)
C6 C 0.250 0.250 0.94637(13)
C7 C 0.21757(9) 0.28243(9) 0.97339(11)
H3 H 0.195 0.305 0.9552
O5 O 0.28053(6) 0.21947(6) 0.86613(7)
C8 C 0.28243(9) 0.21757(9) 0.97339(11)
H4 H 0.305 0.195 0.9552
Zn4 Zn 0.206566(10) 0.293434(10) 0.793434(10)
Zn5 Zn 0.293434(10) 0.206566(10) 0.793434(10)
O14 O 0.250 0.250 0.750
O15 O 0.13387(7) 0.28053(6) 0.78053(6)
O17 O 0.21947(6) 0.36613(7) 0.78053(6)
O12 O 0.28053(6) 0.86613(7) 0.21947(6)
C21 C 0.250 0.88840(13) 0.250
C22 C 0.250 0.94637(13) 0.250
C23 C 0.28243(9) 0.97339(11) 0.21757(9)
H11 H 0.305 0.9552 0.195
O13 O 0.21947(6) 0.86613(7) 0.28053(6)
C24 C 0.21757(9) 0.97339(11) 0.28243(9)
H12 H 0.195 0.9552 0.305
Zn6 Zn 0.293434(10) 0.793434(10) 0.206566(10)
Zn8 Zn 0.206566(10) 0.793434(10) 0.293434(10)
O8 O 0.86613(7) 0.21947(6) 0.28053(6)
C13 C 0.88840(13) 0.250 0.250
C14 C 0.94637(13) 0.250 0.250
C15 C 0.97339(11) 0.21757(9) 0.28243(9)
H7 H 0.9552 0.195 0.305
O9 O 0.86613(7) 0.28053(6) 0.21947(6)
C16 C 0.97339(11) 0.28243(9) 0.21757(9)
H8 H 0.9552 0.305 0.195
Zn7 Zn 0.793434(10) 0.206566(10) 0.293434(10)
Zn9 Zn 0.793434(10) 0.293434(10) 0.206566(10)
O8_2 O 0.13387(7) 0.78053(6) 0.28053(6)
C13_2 C 0.11160(13) 0.750 0.250
C14_2 C 0.05363(13) 0.750 0.250
C15_2 C 0.02661(11) 0.78243(9) 0.28243(9)
H7_2 H 0.0448 0.805 0.305
O9_2 O 0.13387(7) 0.71947(6) 0.21947(6)
C16_2 C 0.02661(11) 0.71757(9) 0.21757(9)
H8_2 H 0.0448 0.695 0.195
Zn9_2 Zn 0.206566(10) 0.706566(10) 0.206566(10)
O12_2 O 0.71947(6) 0.13387(7) 0.21947(6)
C21_2 C 0.750 0.11160(13) 0.250
C22_2 C 0.750 0.05363(13) 0.250
C23_2 C 0.71757(9) 0.02661(11) 0.21757(9)
H11_2 H 0.695 0.0448 0.195
O13_2 O 0.78053(6) 0.13387(7) 0.28053(6)
C24_2 C 0.78243(9) 0.02661(11) 0.28243(9)
H12_2 H 0.805 0.0448 0.305
Zn6_2 Zn 0.706566(10) 0.206566(10) 0.206566(10)
Zn1_2 Zn 0.793434(10) 0.706566(10) 0.206566(10)
O1_2 O 0.750 0.750 0.250
O2_2 O 0.78053(6) 0.71947(6) 0.13387(7)
C1_2 C 0.750 0.750 0.11160(13)
C2_2 C 0.750 0.750 0.05363(13)
C3_2 C 0.78243(9) 0.71757(9) 0.02661(11)
H1_2 H 0.805 0.695 0.0448
O3_2 O 0.71947(6) 0.78053(6) 0.13387(7)
C4_2 C 0.71757(9) 0.78243(9) 0.02661(11)
H2_2 H 0.695 0.805 0.0448
Zn2_2 Zn 0.793434(10) 0.793434(10) 0.293434(10)
O6_2 O 0.86613(7) 0.78053(6) 0.28053(6)
C9_2 C 0.88840(13) 0.750 0.250
C10_2 C 0.94637(13) 0.750 0.250
C11_2 C 0.97339(11) 0.78243(9) 0.28243(9)
H5_2 H 0.9552 0.805 0.305
O7_2 O 0.86613(7) 0.71947(6) 0.21947(6)
C12_2 C 0.97339(11) 0.71757(9) 0.21757(9)
H6_2 H 0.9552 0.695 0.195
Zn3_2 Zn 0.706566(10) 0.793434(10) 0.206566(10)
O10_2 O 0.71947(6) 0.86613(7) 0.21947(6)
C17_2 C 0.750 0.88840(13) 0.250
C18_2 C 0.750 0.94637(13) 0.250
C19_2 C 0.71757(9) 0.97339(11) 0.21757(9)
H9_2 H 0.695 0.9552 0.195
O11_2 O 0.78053(6) 0.86613(7) 0.28053(6)
C20_2 C 0.78243(9) 0.97339(11) 0.28243(9)
H10_2 H 0.805 0.9552 0.305
Zn10_2 Zn 0.706566(10) 0.706566(10) 0.293434(10)
O16_2 O 0.78053(6) 0.78053(6) 0.36613(7)
O18_2 O 0.63387(7) 0.78053(6) 0.21947(6)
O19_2 O 0.78053(6) 0.63387(7) 0.21947(6)
O4_2 O 0.78053(6) 0.71947(6) 0.86613(7)
C5_2 C 0.750 0.750 0.88840(13)
C6_2 C 0.750 0.750 0.94637(13)
C7_2 C 0.78243(9) 0.71757(9) 0.97339(11)
H3_2 H 0.805 0.695 0.9552
O5_2 O 0.71947(6) 0.78053(6) 0.86613(7)
C8_2 C 0.71757(9) 0.78243(9) 0.97339(11)
H4_2 H 0.695 0.805 0.9552
Zn4_2 Zn 0.793434(10) 0.706566(10) 0.793434(10)
Zn5_2 Zn 0.706566(10) 0.793434(10) 0.793434(10)
O14_2 O 0.750 0.750 0.750
O15_2 O 0.86613(7) 0.71947(6) 0.78053(6)
O17_2 O 0.78053(6) 0.63387(7) 0.78053(6)
O8_3 O 0.13387(7) 0.21947(6) 0.71947(6)
C13_3 C 0.11160(13) 0.250 0.750
C14_3 C 0.05363(13) 0.250 0.750
C15_3 C 0.02661(11) 0.21757(9) 0.71757(9)
H7_3 H 0.0448 0.195 0.695
C16_3 C 0.02661(11) 0.28243(9) 0.78243(9)
H8_3 H 0.0448 0.305 0.805
Zn7_2 Zn 0.206566(10) 0.206566(10) 0.706566(10)
O4_3 O 0.78053(6) 0.28053(6) 0.13387(7)
C5_3 C 0.750 0.250 0.11160(13)
C6_3 C 0.750 0.250 0.05363(13)
C7_3 C 0.78243(9) 0.28243(9) 0.02661(11)
H3_3 H 0.805 0.305 0.0448
O5_3 O 0.71947(6) 0.21947(6) 0.13387(7)
C8_3 C 0.71757(9) 0.21757(9) 0.02661(11)
H4_3 H 0.695 0.195 0.0448
O14_3 O 0.750 0.250 0.250
O17_3 O 0.78053(6) 0.36613(7) 0.21947(6)
Zn1_3 Zn 0.793434(10) 0.293434(10) 0.793434(10)
O1_3 O 0.750 0.250 0.750
O2_3 O 0.78053(6) 0.28053(6) 0.86613(7)
C1_3 C 0.750 0.250 0.88840(13)
C2_3 C 0.750 0.250 0.94637(13)
C3_3 C 0.78243(9) 0.28243(9) 0.97339(11)
H1_3 H 0.805 0.305 0.9552
O3_3 O 0.71947(6) 0.21947(6) 0.86613(7)
C4_3 C 0.71757(9) 0.21757(9) 0.97339(11)
H2_3 H 0.695 0.195 0.9552
Zn2_3 Zn 0.793434(10) 0.206566(10) 0.706566(10)
O6_3 O 0.86613(7) 0.21947(6) 0.71947(6)
C9_3 C 0.88840(13) 0.250 0.750
C10_3 C 0.94637(13) 0.250 0.750
C11_3 C 0.97339(11) 0.21757(9) 0.71757(9)
H5_3 H 0.9552 0.195 0.695
O7_3 O 0.86613(7) 0.28053(6) 0.78053(6)
C12_3 C 0.97339(11) 0.28243(9) 0.78243(9)
H6_3 H 0.9552 0.305 0.805
Zn3_3 Zn 0.706566(10) 0.206566(10) 0.793434(10)
O10_3 O 0.71947(6) 0.13387(7) 0.78053(6)
C17_3 C 0.750 0.11160(13) 0.750
C18_3 C 0.750 0.05363(13) 0.750
C19_3 C 0.71757(9) 0.02661(11) 0.78243(9)
H9_3 H 0.695 0.0448 0.805
O11_3 O 0.78053(6) 0.13387(7) 0.71947(6)
C20_3 C 0.78243(9) 0.02661(11) 0.71757(9)
H10_3 H 0.805 0.0448 0.695
Zn10_3 Zn 0.706566(10) 0.293434(10) 0.706566(10)
O16_3 O 0.78053(6) 0.21947(6) 0.63387(7)
O18_3 O 0.63387(7) 0.21947(6) 0.78053(6)
O19_3 O 0.78053(6) 0.36613(7) 0.78053(6)
O12_3 O 0.71947(6) 0.86613(7) 0.78053(6)
C21_3 C 0.750 0.88840(13) 0.750
C22_3 C 0.750 0.94637(13) 0.750
C23_3 C 0.71757(9) 0.97339(11) 0.78243(9)
H11_3 H 0.695 0.9552 0.805
O13_3 O 0.78053(6) 0.86613(7) 0.71947(6)
C24_3 C 0.78243(9) 0.97339(11) 0.71757(9)
H12_3 H 0.805 0.9552 0.695
Zn8_2 Zn 0.793434(10) 0.793434(10) 0.706566(10)
O12_4 O 0.28053(6) 0.13387(7) 0.78053(6)
C21_4 C 0.250 0.11160(13) 0.750
C22_4 C 0.250 0.05363(13) 0.750
C23_4 C 0.28243(9) 0.02661(11) 0.78243(9)
H11_4 H 0.305 0.0448 0.805
O13_4 O 0.21947(6) 0.13387(7) 0.71947(6)
C24_4 C 0.21757(9) 0.02661(11) 0.71757(9)
H12_4 H 0.195 0.0448 0.695
O4_4 O 0.21947(6) 0.71947(6) 0.13387(7)
C5_4 C 0.250 0.750 0.11160(13)
C6_4 C 0.250 0.750 0.05363(13)
C7_4 C 0.21757(9) 0.71757(9) 0.02661(11)
H3_4 H 0.195 0.695 0.0448
O5_4 O 0.28053(6) 0.78053(6) 0.13387(7)
C8_4 C 0.28243(9) 0.78243(9) 0.02661(11)
H4_4 H 0.305 0.805 0.0448
O14_4 O 0.250 0.750 0.250
O17_4 O 0.21947(6) 0.63387(7) 0.21947(6)
Zn1_4 Zn 0.206566(10) 0.706566(10) 0.793434(10)
O1_4 O 0.250 0.750 0.750
O2_4 O 0.21947(6) 0.71947(6) 0.86613(7)
C1_4 C 0.250 0.750 0.88840(13)
C2_4 C 0.250 0.750 0.94637(13)
C3_4 C 0.21757(9) 0.71757(9) 0.97339(11)
H1_4 H 0.195 0.695 0.9552
O3_4 O 0.28053(6) 0.78053(6) 0.86613(7)
C4_4 C 0.28243(9) 0.78243(9) 0.97339(11)
H2_4 H 0.305 0.805 0.9552
Zn2_4 Zn 0.206566(10) 0.793434(10) 0.706566(10)
O6_4 O 0.13387(7) 0.78053(6) 0.71947(6)
C9_4 C 0.11160(13) 0.750 0.750
C10_4 C 0.05363(13) 0.750 0.750
C11_4 C 0.02661(11) 0.78243(9) 0.71757(9)
H5_4 H 0.0448 0.805 0.695
O7_4 O 0.13387(7) 0.71947(6) 0.78053(6)
C12_4 C 0.02661(11) 0.71757(9) 0.78243(9)
H6_4 H 0.0448 0.695 0.805
Zn3_4 Zn 0.293434(10) 0.793434(10) 0.793434(10)
O10_4 O 0.28053(6) 0.86613(7) 0.78053(6)
C17_4 C 0.250 0.88840(13) 0.750
C18_4 C 0.250 0.94637(13) 0.750
C19_4 C 0.28243(9) 0.97339(11) 0.78243(9)
H9_4 H 0.305 0.9552 0.805
O11_4 O 0.21947(6) 0.86613(7) 0.71947(6)
C20_4 C 0.21757(9) 0.97339(11) 0.71757(9)
H10_4 H 0.195 0.9552 0.695
Zn10_4 Zn 0.293434(10) 0.706566(10) 0.706566(10)
O16_4 O 0.21947(6) 0.78053(6) 0.63387(7)
O18_4 O 0.36613(7) 0.78053(6) 0.78053(6)
O19_4 O 0.21947(6) 0.63387(7) 0.78053(6)
O8_4 O 0.86613(7) 0.78053(6) 0.71947(6)
C13_4 C 0.88840(13) 0.750 0.750
C14_4 C 0.94637(13) 0.750 0.750
C15_4 C 0.97339(11) 0.78243(9) 0.71757(9)
H7_4 H 0.9552 0.805 0.695
C16_4 C 0.97339(11) 0.71757(9) 0.78243(9)
H8_4 H 0.9552 0.695 0.805
O17_5 O 0.78053(6) 0.21947(6) 0.36613(7)
O17_6 O 0.78053(6) 0.78053(6) 0.63387(7)
O17_7 O 0.21947(6) 0.78053(6) 0.36613(7)
O17_8 O 0.21947(6) 0.21947(6) 0.63387(7)
O17_9 O 0.36613(7) 0.78053(6) 0.21947(6)
O17_10 O 0.63387(7) 0.78053(6) 0.78053(6)
O17_11 O 0.36613(7) 0.21947(6) 0.78053(6)
O17_12 O 0.63387(7) 0.21947(6) 0.21947(6)
Zn10_5 Zn 0.293434(10) 0.293434(10) 0.706566(10)
Zn10_6 Zn 0.706566(10) 0.706566(10) 0.706566(10)
Zn10_7 Zn 0.293434(10) 0.706566(10) 0.293434(10)
Zn10_8 Zn 0.706566(10) 0.293434(10) 0.293434(10)
C1_5 C 0.250 0.750 0.61160(13)
C2_5 C 0.250 0.750 0.55363(13)
C3_5 C 0.21757(9) 0.78243(9) 0.52661(11)
H1_5 H 0.195 0.805 0.5448
O3_5 O 0.28053(6) 0.71947(6) 0.63387(7)
C4_5 C 0.28243(9) 0.71757(9) 0.52661(11)
H2_5 H 0.305 0.695 0.5448
C5_5 C 0.250 0.750 0.38840(13)
C6_5 C 0.250 0.750 0.44637(13)
C7_5 C 0.21757(9) 0.78243(9) 0.47339(11)
H3_5 H 0.195 0.805 0.4552
O5_5 O 0.28053(6) 0.71947(6) 0.36613(7)
C8_5 C 0.28243(9) 0.71757(9) 0.47339(11)
H4_5 H 0.305 0.695 0.4552
O10_5 O 0.28053(6) 0.63387(7) 0.71947(6)
C17_5 C 0.250 0.61160(13) 0.750
C18_5 C 0.250 0.55363(13) 0.750
C19_5 C 0.28243(9) 0.52661(11) 0.71757(9)
H9_5 H 0.305 0.5448 0.695
C20_5 C 0.21757(9) 0.52661(11) 0.78243(9)
H10_5 H 0.195 0.5448 0.805
O12_5 O 0.28053(6) 0.36613(7) 0.71947(6)
C21_5 C 0.250 0.38840(13) 0.750
C22_5 C 0.250 0.44637(13) 0.750
C23_5 C 0.28243(9) 0.47339(11) 0.71757(9)
H11_5 H 0.305 0.4552 0.695
C24_5 C 0.21757(9) 0.47339(11) 0.78243(9)
H12_5 H 0.195 0.4552 0.805
O18_5 O 0.36613(7) 0.71947(6) 0.71947(6)
C1_6 C 0.750 0.250 0.61160(13)
C2_6 C 0.750 0.250 0.55363(13)
C3_6 C 0.78243(9) 0.21757(9) 0.52661(11)
H1_6 H 0.805 0.195 0.5448
O3_6 O 0.71947(6) 0.28053(6) 0.63387(7)
C4_6 C 0.71757(9) 0.28243(9) 0.52661(11)
H2_6 H 0.695 0.305 0.5448
C5_6 C 0.750 0.250 0.38840(13)
C6_6 C 0.750 0.250 0.44637(13)
C7_6 C 0.78243(9) 0.21757(9) 0.47339(11)
H3_6 H 0.805 0.195 0.4552
O5_6 O 0.71947(6) 0.28053(6) 0.36613(7)
C8_6 C 0.71757(9) 0.28243(9) 0.47339(11)
H4_6 H 0.695 0.305 0.4552
O10_6 O 0.71947(6) 0.36613(7) 0.71947(6)
C17_6 C 0.750 0.38840(13) 0.750
C18_6 C 0.750 0.44637(13) 0.750
C19_6 C 0.71757(9) 0.47339(11) 0.71757(9)
H9_6 H 0.695 0.4552 0.695
C20_6 C 0.78243(9) 0.47339(11) 0.78243(9)
H10_6 H 0.805 0.4552 0.805
O12_6 O 0.71947(6) 0.63387(7) 0.71947(6)
C21_6 C 0.750 0.61160(13) 0.750
C22_6 C 0.750 0.55363(13) 0.750
C23_6 C 0.71757(9) 0.52661(11) 0.71757(9)
H11_6 H 0.695 0.5448 0.695
C24_6 C 0.78243(9) 0.52661(11) 0.78243(9)
H12_6 H 0.805 0.5448 0.805
O18_6 O 0.63387(7) 0.28053(6) 0.71947(6)
C1_7 C 0.750 0.750 0.38840(13)
C2_7 C 0.750 0.750 0.44637(13)
C3_7 C 0.78243(9) 0.78243(9) 0.47339(11)
H1_7 H 0.805 0.805 0.4552
O3_7 O 0.71947(6) 0.71947(6) 0.36613(7)
C4_7 C 0.71757(9) 0.71757(9) 0.47339(11)
H2_7 H 0.695 0.695 0.4552
C5_7 C 0.750 0.750 0.61160(13)
C6_7 C 0.750 0.750 0.55363(13)
C7_7 C 0.78243(9) 0.78243(9) 0.52661(11)
H3_7 H 0.805 0.805 0.5448
O5_7 O 0.71947(6) 0.71947(6) 0.63387(7)
C8_7 C 0.71757(9) 0.71757(9) 0.52661(11)
H4_7 H 0.695 0.695 0.5448
O10_7 O 0.71947(6) 0.63387(7) 0.28053(6)
C17_7 C 0.750 0.61160(13) 0.250
C18_7 C 0.750 0.55363(13) 0.250
C19_7 C 0.71757(9) 0.52661(11) 0.28243(9)
H9_7 H 0.695 0.5448 0.305
C20_7 C 0.78243(9) 0.52661(11) 0.21757(9)
H10_7 H 0.805 0.5448 0.195
O12_7 O 0.71947(6) 0.36613(7) 0.28053(6)
C21_7 C 0.750 0.38840(13) 0.250
C22_7 C 0.750 0.44637(13) 0.250
C23_7 C 0.71757(9) 0.47339(11) 0.28243(9)
H11_7 H 0.695 0.4552 0.305
C24_7 C 0.78243(9) 0.47339(11) 0.21757(9)
H12_7 H 0.805 0.4552 0.195
O18_7 O 0.63387(7) 0.71947(6) 0.28053(6)
C1_8 C 0.250 0.250 0.38840(13)
C2_8 C 0.250 0.250 0.44637(13)
C3_8 C 0.21757(9) 0.21757(9) 0.47339(11)
H1_8 H 0.195 0.195 0.4552
O3_8 O 0.28053(6) 0.28053(6) 0.36613(7)
C4_8 C 0.28243(9) 0.28243(9) 0.47339(11)
H2_8 H 0.305 0.305 0.4552
C5_8 C 0.250 0.250 0.61160(13)
C6_8 C 0.250 0.250 0.55363(13)
C7_8 C 0.21757(9) 0.21757(9) 0.52661(11)
H3_8 H 0.195 0.195 0.5448
O5_8 O 0.28053(6) 0.28053(6) 0.63387(7)
C8_8 C 0.28243(9) 0.28243(9) 0.52661(11)
H4_8 H 0.305 0.305 0.5448
O10_8 O 0.28053(6) 0.36613(7) 0.28053(6)
C17_8 C 0.250 0.38840(13) 0.250
C18_8 C 0.250 0.44637(13) 0.250
C19_8 C 0.28243(9) 0.47339(11) 0.28243(9)
H9_8 H 0.305 0.4552 0.305
C20_8 C 0.21757(9) 0.47339(11) 0.21757(9)
H10_8 H 0.195 0.4552 0.195
O12_8 O 0.28053(6) 0.63387(7) 0.28053(6)
C21_8 C 0.250 0.61160(13) 0.250
C22_8 C 0.250 0.55363(13) 0.250
C23_8 C 0.28243(9) 0.52661(11) 0.28243(9)
H11_8 H 0.305 0.5448 0.305
C24_8 C 0.21757(9) 0.52661(11) 0.21757(9)
H12_8 H 0.195 0.5448 0.195
O18_8 O 0.36613(7) 0.28053(6) 0.28053(6)
O17_13 O 0.36613(7) 0.28053(6) 0.71947(6)
O17_14 O 0.63387(7) 0.28053(6) 0.28053(6)
O17_15 O 0.36613(7) 0.71947(6) 0.28053(6)
O17_16 O 0.63387(7) 0.71947(6) 0.71947(6)
C9_5 C 0.61160(13) 0.250 0.750
C10_5 C 0.55363(13) 0.250 0.750
C11_5 C 0.52661(11) 0.21757(9) 0.78243(9)
H5_5 H 0.5448 0.195 0.805
C12_5 C 0.52661(11) 0.28243(9) 0.71757(9)
H6_5 H 0.5448 0.305 0.695
C13_5 C 0.38840(13) 0.250 0.750
C14_5 C 0.44637(13) 0.250 0.750
C15_5 C 0.47339(11) 0.21757(9) 0.78243(9)
H7_5 H 0.4552 0.195 0.805
C16_5 C 0.47339(11) 0.28243(9) 0.71757(9)
H8_5 H 0.4552 0.305 0.695
C9_6 C 0.38840(13) 0.750 0.750
C10_6 C 0.44637(13) 0.750 0.750
C11_6 C 0.47339(11) 0.78243(9) 0.78243(9)
H5_6 H 0.4552 0.805 0.805
C12_6 C 0.47339(11) 0.71757(9) 0.71757(9)
H6_6 H 0.4552 0.695 0.695
C13_6 C 0.61160(13) 0.750 0.750
C14_6 C 0.55363(13) 0.750 0.750
C15_6 C 0.52661(11) 0.78243(9) 0.78243(9)
H7_6 H 0.5448 0.805 0.805
C16_6 C 0.52661(11) 0.71757(9) 0.71757(9)
H8_6 H 0.5448 0.695 0.695
C9_7 C 0.38840(13) 0.250 0.250
C10_7 C 0.44637(13) 0.250 0.250
C11_7 C 0.47339(11) 0.21757(9) 0.21757(9)
H5_7 H 0.4552 0.195 0.195
C12_7 C 0.47339(11) 0.28243(9) 0.28243(9)
H6_7 H 0.4552 0.305 0.305
C13_7 C 0.61160(13) 0.250 0.250
C14_7 C 0.55363(13) 0.250 0.250
C15_7 C 0.52661(11) 0.21757(9) 0.21757(9)
H7_7 H 0.5448 0.195 0.195
C16_7 C 0.52661(11) 0.28243(9) 0.28243(9)
H8_7 H 0.5448 0.305 0.305
C9_8 C 0.61160(13) 0.750 0.250
C10_8 C 0.55363(13) 0.750 0.250
C11_8 C 0.52661(11) 0.78243(9) 0.21757(9)
H5_8 H 0.5448 0.805 0.195
C12_8 C 0.52661(11) 0.71757(9) 0.28243(9)
H6_8 H 0.5448 0.695 0.305
C13_8 C 0.38840(13) 0.750 0.250
C14_8 C 0.44637(13) 0.750 0.250
C15_8 C 0.47339(11) 0.78243(9) 0.21757(9)
H7_8 H 0.4552 0.805 0.195
C16_8 C 0.47339(11) 0.71757(9) 0.28243(9)
H8_8 H 0.4552 0.695 0.305
loop_
_geom_bond_atom_site_label_1
_geom_bond_atom_site_label_2
_geom_bond_site_symmetry_1
_geom_bond_site_symmetry_2
Zn1 O1 1_555 1_555
O1 Zn2 1_555 1_555
O2 Zn1 1_555 1_555
C1 O2 1_555 1_555
C2 C1 1_555 1_555
C3 C2 1_555 1_555
H1 C3 1_555 1_555
O3 C1 1_555 1_555
C4 C2 1_555 1_555
H2 C4 1_555 1_555
Zn2 O6 1_555 1_555
O6 C9 1_555 1_555
C9 C10 1_555 1_555
C10 C11 1_555 1_555
C11 H5 1_555 1_555
O7 Zn1 1_555 1_555
C12 C10 1_555 1_555
H6 C12 1_555 1_555
Zn3 O1 1_555 1_555
O10 Zn3 1_555 1_555
C17 O10 1_555 1_555
C18 C17 1_555 1_555
C19 C18 1_555 1_555
H9 C19 1_555 1_555
O11 Zn2 1_555 1_555
C20 C18 1_555 1_555
H10 C20 1_555 1_555
Zn10 O1 1_555 1_555
O16 Zn2 1_555 1_555
O18 Zn3 1_555 1_555
O19 Zn1 1_555 1_555
O3 Zn3 1_555 1_555
C9 O7 1_555 1_555
C17 O11 1_555 1_555
O4 C5 1_555 1_555
C5 C6 1_555 1_555
C6 C7 1_555 1_555
H3 C7 1_555 1_555
O5 C5 1_555 1_555
H4 C8 1_555 1_555
Zn4 O4 1_555 1_555
Zn5 O5 1_555 1_555
O14 Zn4 1_555 1_555
O15 Zn4 1_555 1_555
O17 Zn4 1_555 1_555
C6 C8 1_555 1_555
Zn5 O14 1_555 1_555
O12 C21 1_555 1_555
C21 C22 1_555 1_555
C22 C23 1_555 1_555
H11 C23 1_555 1_555
O13 C21 1_555 1_555
H12 C24 1_555 1_555
Zn6 O12 1_555 1_555
Zn8 O13 1_555 1_555
C22 C24 1_555 1_555
O8 C13 1_555 1_555
C13 C14 1_555 1_555
C14 C15 1_555 1_555
H7 C15 1_555 1_555
O9 C13 1_555 1_555
H8 C16 1_555 1_555
Zn7 O8 1_555 1_555
Zn9 O9 1_555 1_555
C14 C16 1_555 1_555
O8_2 C13_2 1_555 1_555
C13_2 C14_2 1_555 1_555
C14_2 C15_2 1_555 1_555
H7_2 C15_2 1_555 1_555
O9_2 C13_2 1_555 1_555
H8_2 C16_2 1_555 1_555
Zn8 O8_2 1_555 1_555
Zn9_2 O9_2 1_555 1_555
C14_2 C16_2 1_555 1_555
O12_2 C21_2 1_555 1_555
C21_2 C22_2 1_555 1_555
C22_2 C23_2 1_555 1_555
H11_2 C23_2 1_555 1_555
O13_2 C21_2 1_555 1_555
H12_2 C24_2 1_555 1_555
Zn6_2 O12_2 1_555 1_555
Zn7 O13_2 1_555 1_555
C22_2 C24_2 1_555 1_555
Zn1_2 O1_2 1_555 1_555
O1_2 Zn2_2 1_555 1_555
O2_2 Zn1_2 1_555 1_555
C1_2 O2_2 1_555 1_555
C2_2 C1_2 1_555 1_555
C3_2 C2_2 1_555 1_555
H1_2 C3_2 1_555 1_555
O3_2 C1_2 1_555 1_555
C4_2 C2_2 1_555 1_555
H2_2 C4_2 1_555 1_555
Zn2_2 O6_2 1_555 1_555
O6_2 C9_2 1_555 1_555
C9_2 C10_2 1_555 1_555
C10_2 C11_2 1_555 1_555
C11_2 H5_2 1_555 1_555
O7_2 Zn1_2 1_555 1_555
C12_2 C10_2 1_555 1_555
H6_2 C12_2 1_555 1_555
Zn3_2 O1_2 1_555 1_555
O10_2 Zn3_2 1_555 1_555
C17_2 O10_2 1_555 1_555
C18_2 C17_2 1_555 1_555
C19_2 C18_2 1_555 1_555
H9_2 C19_2 1_555 1_555
O11_2 Zn2_2 1_555 1_555
C20_2 C18_2 1_555 1_555
H10_2 C20_2 1_555 1_555
Zn10_2 O1_2 1_555 1_555
O16_2 Zn2_2 1_555 1_555
O18_2 Zn3_2 1_555 1_555
O19_2 Zn1_2 1_555 1_555
O3_2 Zn3_2 1_555 1_555
C9_2 O7_2 1_555 1_555
C17_2 O11_2 1_555 1_555
O4_2 C5_2 1_555 1_555
C5_2 C6_2 1_555 1_555
C6_2 C7_2 1_555 1_555
H3_2 C7_2 1_555 1_555
O5_2 C5_2 1_555 1_555
H4_2 C8_2 1_555 1_555
Zn4_2 O4_2 1_555 1_555
Zn5_2 O5_2 1_555 1_555
O14_2 Zn4_2 1_555 1_555
O15_2 Zn4_2 1_555 1_555
O17_2 Zn4_2 1_555 1_555
C6_2 C8_2 1_555 1_555
Zn5_2 O14_2 1_555 1_555
O8_3 C13_3 1_555 1_555
C13_3 C14_3 1_555 1_555
C14_3 C15_3 1_555 1_555
H7_3 C15_3 1_555 1_555
O15 C13_3 1_555 1_555
H8_3 C16_3 1_555 1_555
Zn7_2 O8_3 1_555 1_555
C14_3 C16_3 1_555 1_555
O4_3 C5_3 1_555 1_555
C5_3 C6_3 1_555 1_555
C6_3 C7_3 1_555 1_555
H3_3 C7_3 1_555 1_555
O5_3 C5_3 1_555 1_555
H4_3 C8_3 1_555 1_555
Zn9 O4_3 1_555 1_555
Zn6_2 O5_3 1_555 1_555
O14_3 Zn9 1_555 1_555
O17_3 Zn9 1_555 1_555
C6_3 C8_3 1_555 1_555
Zn6_2 O14_3 1_555 1_555
Zn1_3 O1_3 1_555 1_555
O1_3 Zn2_3 1_555 1_555
O2_3 Zn1_3 1_555 1_555
C1_3 O2_3 1_555 1_555
C2_3 C1_3 1_555 1_555
C3_3 C2_3 1_555 1_555
H1_3 C3_3 1_555 1_555
O3_3 C1_3 1_555 1_555
C4_3 C2_3 1_555 1_555
H2_3 C4_3 1_555 1_555
Zn2_3 O6_3 1_555 1_555
O6_3 C9_3 1_555 1_555
C9_3 C10_3 1_555 1_555
C10_3 C11_3 1_555 1_555
C11_3 H5_3 1_555 1_555
O7_3 Zn1_3 1_555 1_555
C12_3 C10_3 1_555 1_555
H6_3 C12_3 1_555 1_555
Zn3_3 O1_3 1_555 1_555
O10_3 Zn3_3 1_555 1_555
C17_3 O10_3 1_555 1_555
C18_3 C17_3 1_555 1_555
C19_3 C18_3 1_555 1_555
H9_3 C19_3 1_555 1_555
O11_3 Zn2_3 1_555 1_555
C20_3 C18_3 1_555 1_555
H10_3 C20_3 1_555 1_555
Zn10_3 O1_3 1_555 1_555
O16_3 Zn2_3 1_555 1_555
O18_3 Zn3_3 1_555 1_555
O19_3 Zn1_3 1_555 1_555
O3_3 Zn3_3 1_555 1_555
C9_3 O7_3 1_555 1_555
C17_3 O11_3 1_555 1_555
O12_3 C21_3 1_555 1_555
C21_3 C22_3 1_555 1_555
C22_3 C23_3 1_555 1_555
H11_3 C23_3 1_555 1_555
O13_3 C21_3 1_555 1_555
H12_3 C24_3 1_555 1_555
Zn5_2 O12_3 1_555 1_555
Zn8_2 O13_3 1_555 1_555
C22_3 C24_3 1_555 1_555
O12_4 C21_4 1_555 1_555
C21_4 C22_4 1_555 1_555
C22_4 C23_4 1_555 1_555
H11_4 C23_4 1_555 1_555
O13_4 C21_4 1_555 1_555
H12_4 C24_4 1_555 1_555
Zn5 O12_4 1_555 1_555
Zn7_2 O13_4 1_555 1_555
C22_4 C24_4 1_555 1_555
O4_4 C5_4 1_555 1_555
C5_4 C6_4 1_555 1_555
C6_4 C7_4 1_555 1_555
H3_4 C7_4 1_555 1_555
O5_4 C5_4 1_555 1_555
H4_4 C8_4 1_555 1_555
Zn9_2 O4_4 1_555 1_555
Zn6 O5_4 1_555 1_555
O14_4 Zn9_2 1_555 1_555
O17_4 Zn9_2 1_555 1_555
C6_4 C8_4 1_555 1_555
Zn6 O14_4 1_555 1_555
Zn1_4 O1_4 1_555 1_555
O1_4 Zn2_4 1_555 1_555
O2_4 Zn1_4 1_555 1_555
C1_4 O2_4 1_555 1_555
C2_4 C1_4 1_555 1_555
C3_4 C2_4 1_555 1_555
H1_4 C3_4 1_555 1_555
O3_4 C1_4 1_555 1_555
C4_4 C2_4 1_555 1_555
H2_4 C4_4 1_555 1_555
Zn2_4 O6_4 1_555 1_555
O6_4 C9_4 1_555 1_555
C9_4 C10_4 1_555 1_555
C10_4 C11_4 1_555 1_555
C11_4 H5_4 1_555 1_555
O7_4 Zn1_4 1_555 1_555
C12_4 C10_4 1_555 1_555
H6_4 C12_4 1_555 1_555
Zn3_4 O1_4 1_555 1_555
O10_4 Zn3_4 1_555 1_555
C17_4 O10_4 1_555 1_555
C18_4 C17_4 1_555 1_555
C19_4 C18_4 1_555 1_555
H9_4 C19_4 1_555 1_555
O11_4 Zn2_4 1_555 1_555
C20_4 C18_4 1_555 1_555
H10_4 C20_4 1_555 1_555
Zn10_4 O1_4 1_555 1_555
O16_4 Zn2_4 1_555 1_555
O18_4 Zn3_4 1_555 1_555
O19_4 Zn1_4 1_555 1_555
O3_4 Zn3_4 1_555 1_555
C9_4 O7_4 1_555 1_555
C17_4 O11_4 1_555 1_555
O8_4 C13_4 1_555 1_555
C13_4 C14_4 1_555 1_555
C14_4 C15_4 1_555 1_555
H7_4 C15_4 1_555 1_555
O15_2 C13_4 1_555 1_555
H8_4 C16_4 1_555 1_555
Zn8_2 O8_4 1_555 1_555
C14_4 C16_4 1_555 1_555
O14_3 Zn7 1_555 1_555
O17_5 Zn7 1_555 1_555
O14_2 Zn8_2 1_555 1_555
O17_6 Zn8_2 1_555 1_555
O14_4 Zn8 1_555 1_555
O17_7 Zn8 1_555 1_555
O14 Zn7_2 1_555 1_555
O17_8 Zn7_2 1_555 1_555
O17_9 Zn6 1_555 1_555
O17_10 Zn5_2 1_555 1_555
O17_11 Zn5 1_555 1_555
O17_12 Zn6_2 1_555 1_555
Zn10_5 O14 1_555 1_555
Zn10_6 O14_2 1_555 1_555
Zn10_7 O14_4 1_555 1_555
Zn10_8 O14_3 1_555 1_555
C1_5 O16_4 1_555 1_555
C2_5 C1_5 1_555 1_555
C3_5 C2_5 1_555 1_555
H1_5 C3_5 1_555 1_555
O3_5 C1_5 1_555 1_555
C4_5 C2_5 1_555 1_555
H2_5 C4_5 1_555 1_555
O17_7 C5_5 1_555 1_555
C5_5 C6_5 1_555 1_555
C6_5 C7_5 1_555 1_555
C7_5 C3_5 1_555 1_555
H3_5 C7_5 1_555 1_555
O5_5 C5_5 1_555 1_555
C8_5 C4_5 1_555 1_555
H4_5 C8_5 1_555 1_555
O10_5 Zn10_4 1_555 1_555
C17_5 O10_5 1_555 1_555
C18_5 C17_5 1_555 1_555
C19_5 C18_5 1_555 1_555
H9_5 C19_5 1_555 1_555
C20_5 C18_5 1_555 1_555
H10_5 C20_5 1_555 1_555
O12_5 C21_5 1_555 1_555
C21_5 C22_5 1_555 1_555
C22_5 C23_5 1_555 1_555
C23_5 C19_5 1_555 1_555
H11_5 C23_5 1_555 1_555
O17 C21_5 1_555 1_555
C24_5 C20_5 1_555 1_555
H12_5 C24_5 1_555 1_555
Zn10_7 O5_5 1_555 1_555
Zn10_5 O12_5 1_555 1_555
O18_5 Zn10_4 1_555 1_555
O3_5 Zn10_4 1_555 1_555
C6_5 C8_5 1_555 1_555
C17_5 O19_4 1_555 1_555
C22_5 C24_5 1_555 1_555
C1_6 O16_3 1_555 1_555
C2_6 C1_6 1_555 1_555
C3_6 C2_6 1_555 1_555
H1_6 C3_6 1_555 1_555
O3_6 C1_6 1_555 1_555
C4_6 C2_6 1_555 1_555
H2_6 C4_6 1_555 1_555
O17_5 C5_6 1_555 1_555
C5_6 C6_6 1_555 1_555
C6_6 C7_6 1_555 1_555
C7_6 C3_6 1_555 1_555
H3_6 C7_6 1_555 1_555
O5_6 C5_6 1_555 1_555
C8_6 C4_6 1_555 1_555
H4_6 C8_6 1_555 1_555
O10_6 Zn10_3 1_555 1_555
C17_6 O10_6 1_555 1_555
C18_6 C17_6 1_555 1_555
C19_6 C18_6 1_555 1_555
H9_6 C19_6 1_555 1_555
C20_6 C18_6 1_555 1_555
H10_6 C20_6 1_555 1_555
O12_6 C21_6 1_555 1_555
C21_6 C22_6 1_555 1_555
C22_6 C23_6 1_555 1_555
C23_6 C19_6 1_555 1_555
H11_6 C23_6 1_555 1_555
O17_2 C21_6 1_555 1_555
C24_6 C20_6 1_555 1_555
H12_6 C24_6 1_555 1_555
Zn10_8 O5_6 1_555 1_555
Zn10_6 O12_6 1_555 1_555
O18_6 Zn10_3 1_555 1_555
O3_6 Zn10_3 1_555 1_555
C6_6 C8_6 1_555 1_555
C17_6 O19_3 1_555 1_555
C22_6 C24_6 1_555 1_555
C1_7 O16_2 1_555 1_555
C2_7 C1_7 1_555 1_555
C3_7 C2_7 1_555 1_555
H1_7 C3_7 1_555 1_555
O3_7 C1_7 1_555 1_555
C4_7 C2_7 1_555 1_555
H2_7 C4_7 1_555 1_555
O17_6 C5_7 1_555 1_555
C5_7 C6_7 1_555 1_555
C6_7 C7_7 1_555 1_555
C7_7 C3_7 1_555 1_555
H3_7 C7_7 1_555 1_555
O5_7 C5_7 1_555 1_555
C8_7 C4_7 1_555 1_555
H4_7 C8_7 1_555 1_555
O10_7 Zn10_2 1_555 1_555
C17_7 O10_7 1_555 1_555
C18_7 C17_7 1_555 1_555
C19_7 C18_7 1_555 1_555
H9_7 C19_7 1_555 1_555
C20_7 C18_7 1_555 1_555
H10_7 C20_7 1_555 1_555
O12_7 C21_7 1_555 1_555
C21_7 C22_7 1_555 1_555
C22_7 C23_7 1_555 1_555
C23_7 C19_7 1_555 1_555
H11_7 C23_7 1_555 1_555
O17_3 C21_7 1_555 1_555
C24_7 C20_7 1_555 1_555
H12_7 C24_7 1_555 1_555
Zn10_6 O5_7 1_555 1_555
Zn10_8 O12_7 1_555 1_555
O18_7 Zn10_2 1_555 1_555
O3_7 Zn10_2 1_555 1_555
C6_7 C8_7 1_555 1_555
C17_7 O19_2 1_555 1_555
C22_7 C24_7 1_555 1_555
C1_8 O16 1_555 1_555
C2_8 C1_8 1_555 1_555
C3_8 C2_8 1_555 1_555
H1_8 C3_8 1_555 1_555
O3_8 C1_8 1_555 1_555
C4_8 C2_8 1_555 1_555
H2_8 C4_8 1_555 1_555
O17_8 C5_8 1_555 1_555
C5_8 C6_8 1_555 1_555
C6_8 C7_8 1_555 1_555
C7_8 C3_8 1_555 1_555
H3_8 C7_8 1_555 1_555
O5_8 C5_8 1_555 1_555
C8_8 C4_8 1_555 1_555
H4_8 C8_8 1_555 1_555
O10_8 Zn10 1_555 1_555
C17_8 O10_8 1_555 1_555
C18_8 C17_8 1_555 1_555
C19_8 C18_8 1_555 1_555
H9_8 C19_8 1_555 1_555
C20_8 C18_8 1_555 1_555
H10_8 C20_8 1_555 1_555
O12_8 C21_8 1_555 1_555
C21_8 C22_8 1_555 1_555
C22_8 C23_8 1_555 1_555
C23_8 C19_8 1_555 1_555
H11_8 C23_8 1_555 1_555
O17_4 C21_8 1_555 1_555
C24_8 C20_8 1_555 1_555
H12_8 C24_8 1_555 1_555
Zn10_5 O5_8 1_555 1_555
Zn10_7 O12_8 1_555 1_555
O18_8 Zn10 1_555 1_555
O3_8 Zn10 1_555 1_555
C6_8 C8_8 1_555 1_555
C17_8 O19 1_555 1_555
C22_8 C24_8 1_555 1_555
O17_13 Zn10_5 1_555 1_555
O17_14 Zn10_8 1_555 1_555
O17_15 Zn10_7 1_555 1_555
O17_16 Zn10_6 1_555 1_555
O18_3 C9_5 1_555 1_555
C9_5 C10_5 1_555 1_555
C10_5 C11_5 1_555 1_555
C11_5 H5_5 1_555 1_555
C12_5 C10_5 1_555 1_555
H6_5 C12_5 1_555 1_555
O17_11 C13_5 1_555 1_555
C13_5 C14_5 1_555 1_555
C14_5 C15_5 1_555 1_555
C15_5 C11_5 1_555 1_555
H7_5 C15_5 1_555 1_555
O17_13 C13_5 1_555 1_555
C16_5 C12_5 1_555 1_555
H8_5 C16_5 1_555 1_555
C9_5 O18_6 1_555 1_555
C14_5 C16_5 1_555 1_555
O18_4 C9_6 1_555 1_555
C9_6 C10_6 1_555 1_555
C10_6 C11_6 1_555 1_555
C11_6 H5_6 1_555 1_555
C12_6 C10_6 1_555 1_555
H6_6 C12_6 1_555 1_555
O17_10 C13_6 1_555 1_555
C13_6 C14_6 1_555 1_555
C14_6 C15_6 1_555 1_555
C15_6 C11_6 1_555 1_555
H7_6 C15_6 1_555 1_555
O17_16 C13_6 1_555 1_555
C16_6 C12_6 1_555 1_555
H8_6 C16_6 1_555 1_555
C9_6 O18_5 1_555 1_555
C14_6 C16_6 1_555 1_555
O18 C9_7 1_555 1_555
C9_7 C10_7 1_555 1_555
C10_7 C11_7 1_555 1_555
C11_7 H5_7 1_555 1_555
C12_7 C10_7 1_555 1_555
H6_7 C12_7 1_555 1_555
O17_12 C13_7 1_555 1_555
C13_7 C14_7 1_555 1_555
C14_7 C15_7 1_555 1_555
C15_7 C11_7 1_555 1_555
H7_7 C15_7 1_555 1_555
O17_14 C13_7 1_555 1_555
C16_7 C12_7 1_555 1_555
H8_7 C16_7 1_555 1_555
C9_7 O18_8 1_555 1_555
C14_7 C16_7 1_555 1_555
O18_2 C9_8 1_555 1_555
C9_8 C10_8 1_555 1_555
C10_8 C11_8 1_555 1_555
C11_8 H5_8 1_555 1_555
C12_8 C10_8 1_555 1_555
H6_8 C12_8 1_555 1_555
O17_9 C13_8 1_555 1_555
C13_8 C14_8 1_555 1_555
C14_8 C15_8 1_555 1_555
C15_8 C11_8 1_555 1_555
H7_8 C15_8 1_555 1_555
O17_15 C13_8 1_555 1_555
C16_8 C12_8 1_555 1_555
H8_8 C16_8 1_555 1_555
C9_8 O18_7 1_555 1_555
C14_8 C16_8 1_555 1_555

#END
