
###############################################################################
#
# This file contains modified crystal structure data generated from the
# MOF subset of the Cambridge Structural Database (CSD) v543 
# hosted by the Cambridge Crystallographic Data Centre (CCDC).
#
# This work is licensed under the Creative Commons
# Attribution-NonCommercial-ShareAlike 4.0 International License.
# To view a copy of this license, visit
# http://creativecommons.org/licenses/by-nc-sa/4.0/
# or send a letter to
# Creative Commons, PO Box 1866, Mountain View, CA 94042, USA.
#
# CIF created using the CSD Python API on 29 September 2022
# The structure has been converted into the P1 space group
# The structure has a 3D framework
# The original CSD entry MICCUY is in the orthorhombic crystal system
# The framework has been calculated to contain at least 10.0% void space
# The void calculation uses a probe of radius 1.32A, grid spacing 0.4
#
###############################################################################

data_MICCUY
_chemical_formula_moiety         '(C244 H220 Cd12 N16 O76)n'
_symmetry_cell_setting           triclinic
_symmetry_space_group_name_H-M   'P 1'
_symmetry_Int_Tables_number      1
_space_group_name_Hall           'P 1'
loop_
_symmetry_equiv_pos_site_id
_symmetry_equiv_pos_as_xyz
1 x,y,z
_cell_length_a                   36.680(15)
_cell_length_b                   5.819(2)
_cell_length_c                   33.079(14)
_cell_angle_alpha                90
_cell_angle_beta                 90
_cell_angle_gamma                90
_cell_volume                     7060.41
loop_
_atom_site_label
_atom_site_type_symbol
_atom_site_fract_x
_atom_site_fract_y
_atom_site_fract_z
H12 H 0.5328 0.1287 0.1606
C29 C 0.58161(14) 0.1435(10) 0.23375(17)
C31 C 0.64417(17) 0.0533(11) 0.21406(19)
C32 C 0.65320(18) 0.2673(11) 0.2303(2)
C33 C 0.62777(15) 0.4160(11) 0.24610(17)
H17 H 0.6351 0.5564 0.2568
C34 C 0.59225(16) 0.3573(9) 0.24598(15)
H18 H 0.5748 0.4634 0.2543
C35 C 0.69360(15) 0.3381(10) 0.22942(19)
C46 C 0.40734(18) 0.0500(12) 0.0709(2)
H30 H 0.4150 0.1919 0.0807
C48 C 0.35142(19) 0.0642(12) 0.1154(2)
H34 H 0.3627 0.1269 0.1391
H36 H 0.3420 0.1869 0.0990
Cd3 Cd 0.482983(9) 0.06630(6) 0.028313(16)
O10 O 0.49973(12) 0.1292(7) 0.09521(12)
O11 O 0.54515(11) 0.0857(8) 0.23964(12)
O12 O 0.71720(10) 0.2093(6) 0.21819(11)
O13 O 0.70118(10) 0.5491(7) 0.24234(11)
O17 O 0.54416(11) 0.1482(7) 0.00963(12)
O19 O 0.46246(11) 0.4334(6) 0.03503(12)
H51 H 0.4674 0.4873 0.0619
H52 H 0.4747 0.5299 0.0158
Cd7 Cd 0.762091(10) 0.51066(6) 0.231353(11)
H1 H 0.5091 0.1202 0.8931
C8 C 0.55560(15) 0.1368(11) 0.82282(19)
C10 C 0.61792(17) 0.0511(12) 0.83999(19)
C11 C 0.62857(14) 0.2651(9) 0.82552(17)
C12 C 0.60273(16) 0.4149(11) 0.80971(18)
H6 H 0.6099 0.5581 0.8000
C13 C 0.56625(15) 0.3508(11) 0.80836(17)
H7 H 0.5490 0.4510 0.7978
C14 C 0.66534(15) 0.3392(10) 0.82623(18)
C43 C 0.54681(18) 0.2987(11) 0.98262(19)
H23 H 0.5270 0.3975 0.9798
C44 C 0.5792(2) 0.5136(10) 0.9226(2)
H24 H 0.5557 0.5808 0.9177
H25 H 0.5878 0.4408 0.8983
H26 H 0.5961 0.6313 0.9305
C45 C 0.60670(15) 0.1683(11) 0.95785(18)
H27 H 0.6290 0.2481 0.9639
H28 H 0.6089 0.0924 0.9322
H29 H 0.6020 0.0565 0.9785
N1 N 0.57618(13) 0.3349(9) 0.95623(14)
O1 O 0.47318(11) 0.1134(7) 0.95911(12)
O3 O 0.52027(10) 0.0754(8) 0.81504(13)
O4 O 0.69159(10) 0.1973(6) 0.83955(11)
O5 O 0.67629(11) 0.5302(6) 0.81762(11)
Cd4 Cd 0.736405(10) 0.50276(6) 0.828506(11)
H9 H 0.6345 0.0877 0.3135
H21 H 0.6087 0.0756 0.7428
H38 H 0.7623 0.0882 0.9444
C54 C 0.71127(16) 0.1024(10) 0.99529(17)
H41 H 0.7300 0.2204 0.9955
H42 H 0.6878 0.1781 0.9925
Cd2 Cd 0.737909(10) 0.01066(6) 0.731353(11)
O8 O 0.70037(10) 0.0675(7) 0.32479(13)
O15 O 0.67711(10) 0.0460(7) 0.73416(14)
Cd5 Cd 0.763595(10) 0.00276(6) 0.328506(11)
N5 N 0.74178(13) 0.1420(9) 0.66544(15)
O27 O 0.79882(10) 0.0491(7) 0.74234(11)
O28 O 0.73787(10) 0.4028(7) 0.75658(11)
C55 C 0.71217(16) 0.9768(10) 0.0348(2)
H43 H 0.6935 0.8587 0.0349
C56 C 0.74881(16) 0.8675(11) 0.04220(17)
H45 H 0.7678 0.9778 0.0359
H46 H 0.7517 0.7375 0.0241
C57 C 0.77568(17) 0.8238(10) 0.15247(18)
H47 H 0.7917 0.8986 0.1698
C58 C 0.77075(16) 0.9113(11) 0.11212(19)
C59 C 0.75364(16) 0.7848(11) 0.08629(19)
C60 C 0.73561(18) 0.5831(11) 0.0965(2)
H49 H 0.7215 0.5006 0.0783
C61 C 0.74079(18) 0.5117(11) 0.1386(2)
H50 H 0.7316 0.3703 0.1468
N4 N 0.75822(13) 0.6420(9) 0.16544(15)
C1 C 0.52144(18) 0.0926(10) 0.44958(18)
C2 C 0.51876(15) 0.1586(10) 0.40728(17)
C3 C 0.50059(14) 0.0157(9) 0.38293(16)
C4 C 0.49605(18) 0.0722(11) 0.34093(17)
C5 C 0.51283(14) 0.2750(10) 0.32611(18)
H2 H 0.5118 0.3135 0.2989
C6 C 0.53052(17) 0.4118(10) 0.35338(19)
C7 C 0.53242(14) 0.3744(9) 0.39402(17)
H3 H 0.5420 0.4825 0.4118
C9 C 0.41856(18) 0.0131(10) 0.33863(18)
H4 H 0.4257 0.1562 0.3483
H5 H 0.3648 0.0492 0.3506
C15 C 0.58167(13) 0.6648(9) 0.33938(14)
C16 C 0.59141(15) 0.8814(9) 0.3253(2)
H8 H 0.5735 0.9852 0.3175
C17 C 0.62796(16) 0.9428(10) 0.32292(16)
C18 C 0.65479(15) 0.7875(10) 0.33456(17)
C19 C 0.64505(16) 0.5709(11) 0.34860(18)
H10 H 0.6630 0.4671 0.3564
C20 C 0.60849(18) 0.5096(10) 0.3510(2)
H11 H 0.6020 0.3646 0.3604
C21 C 0.69414(15) 0.8551(10) 0.33302(18)
C22 C 0.50010(17) 0.0750(12) 0.60459(18)
C23 C 0.49532(13) 0.1457(8) 0.64653(15)
C24 C 0.47675(17) 0.0062(9) 0.67138(19)
C25 C 0.47083(15) 0.0491(11) 0.71168(18)
C26 C 0.48704(13) 0.2635(9) 0.72734(16)
H13 H 0.4839 0.3061 0.7542
C27 C 0.50641(16) 0.3961(10) 0.70182(18)
C28 C 0.50901(15) 0.3621(10) 0.66060(18)
H14 H 0.5189 0.4714 0.6433
C30 C 0.3927(2) 0.0021(10) 0.7163(2)
H15 H 0.4005 0.1418 0.7057
H16 H 0.3386 0.0444 0.7027
C36 C 0.55675(14) 0.6511(11) 0.71572(16)
C37 C 0.58389(17) 0.4983(10) 0.7040(2)
H19 H 0.5777 0.3535 0.6943
C38 C 0.62033(16) 0.5617(12) 0.70679(18)
H20 H 0.6385 0.4595 0.6989
C39 C 0.62964(15) 0.7780(10) 0.72133(16)
C40 C 0.60251(14) 0.9308(10) 0.73306(18)
C41 C 0.56606(15) 0.8674(9) 0.73026(17)
H22 H 0.5479 0.9696 0.7381
C42 C 0.66864(14) 0.8461(10) 0.72577(18)
C47 C 0.62231(17) 0.3194(12) 0.5873(2)
H31 H 0.6368 0.3584 0.5642
H32 H 0.6331 0.3851 0.6111
H33 H 0.5981 0.3787 0.5839
H35 H 0.6682 0.0358 0.6231
C49 C 0.75114(15) 0.8424(10) 0.90002(17)
H37 H 0.7702 0.8800 0.8827
C50 C 0.74542(18) 0.9772(11) 0.9368(2)
C51 C 0.71747(15) 0.9418(10) 0.95802(18)
C52 C 0.69417(13) 0.7733(10) 0.94853(16)
H39 H 0.6732 0.7509 0.9639
C53 C 0.70121(16) 0.6356(10) 0.91653(17)
H40 H 0.6858 0.5117 0.9116
N2 N 0.62079(17) 0.0695(10) 0.59160(16)
N3 N 0.72995(13) 0.6711(9) 0.89126(14)
O2 O 0.52272(10) 0.2399(7) 0.47873(11)
O6 O 0.54474(11) 0.6172(7) 0.33652(13)
O7 O 0.71902(9) 0.7118(6) 0.33996(11)
O9 O 0.50648(11) 0.2277(7) 0.57715(12)
O14 O 0.51979(11) 0.6113(7) 0.71754(13)
O16 O 0.69362(10) 0.7032(7) 0.71822(12)
O18 O 0.57752(11) 0.0326(7) 0.53907(13)
H53 H 0.7191 0.4577 0.7449
H54 H 0.7570 0.4589 0.7459
O21 O 0.73704(11) 0.8937(7) 0.80178(12)
H55 H 0.7554 0.9589 0.8126
H56 H 0.7183 0.9581 0.8118
O24 O 0.78098(9) 0.2118(6) 0.83996(11)
O25 O 0.79963(10) 0.5675(7) 0.82479(13)
O26 O 0.78280(10) 0.7093(6) 0.71819(11)
C36_2 C 0.94325(14) 0.1511(11) 0.21572(16)
C38_2 C 0.87967(16) 0.0617(12) 0.20679(18)
C39_2 C 0.87036(15) 0.2780(10) 0.22133(16)
C40_2 C 0.89749(14) 0.4308(10) 0.23306(18)
H21_2 H 0.8913 0.5756 0.2428
C41_2 C 0.93394(15) 0.3674(9) 0.23026(17)
H22_2 H 0.9521 0.4696 0.2381
C42_2 C 0.83136(14) 0.3461(10) 0.22577(18)
C49_2 C 0.74886(15) 0.3424(10) 0.40002(17)
H37_2 H 0.7298 0.3800 0.3827
C50_2 C 0.75458(18) 0.4772(11) 0.4368(2)
H38_2 H 0.7377 0.5882 0.4444
C51_2 C 0.78253(15) 0.4418(10) 0.45802(18)
C52_2 C 0.80583(13) 0.2733(10) 0.44853(16)
H39_2 H 0.8268 0.2509 0.4639
C53_2 C 0.79879(16) 0.1356(10) 0.41653(17)
H40_2 H 0.8142 0.0117 0.4116
C54_2 C 0.78873(16) 0.6024(10) 0.49529(17)
H41_2 H 0.7700 0.7204 0.4955
H42_2 H 0.8122 0.6781 0.4925
C55_2 C 0.78783(16) 0.4768(10) 0.5348(2)
H43_2 H 0.8065 0.3587 0.5349
H44 H 0.7932 0.5833 0.5566
C56_2 C 0.75119(16) 0.3675(11) 0.54220(17)
H45_2 H 0.7322 0.4778 0.5359
H46_2 H 0.7483 0.2375 0.5241
C57_2 C 0.72432(17) 0.3238(10) 0.65247(18)
H47_2 H 0.7083 0.3986 0.6698
C58_2 C 0.72925(16) 0.4113(11) 0.61212(19)
H48 H 0.7203 0.5551 0.6049
C59_2 C 0.74636(16) 0.2848(11) 0.58629(19)
C60_2 C 0.76439(18) 0.0831(11) 0.5965(2)
H49_2 H 0.7785 0.0006 0.5783
C61_2 C 0.75921(18) 0.0117(11) 0.6386(2)
N3_2 N 0.77005(13) 0.1711(9) 0.39126(14)
O14_2 O 0.98021(11) 0.1113(7) 0.21754(13)
O15_2 O 0.82289(10) 0.5460(7) 0.23416(14)
O16_2 O 0.80638(10) 0.2032(7) 0.21822(12)
O21_2 O 0.76296(11) 0.3937(7) 0.30178(12)
H55_2 H 0.7446 0.4589 0.3126
H56_2 H 0.7817 0.4581 0.3118
O23 O 0.82371(11) 0.0302(6) 0.31762(11)
O28_2 O 0.76213(10) 0.9028(7) 0.25658(11)
C15_2 C 0.91833(13) 0.1648(9) 0.83938(14)
C16_2 C 0.90859(15) 0.3814(9) 0.8253(2)
H8_2 H 0.9265 0.4852 0.8175
C17_2 C 0.87204(16) 0.4428(10) 0.82292(16)
H9_2 H 0.8655 0.5877 0.8135
C18_2 C 0.84521(15) 0.2875(10) 0.83456(17)
C19_2 C 0.85495(16) 0.0709(11) 0.84860(18)
C20_2 C 0.89151(18) 0.0096(10) 0.8510(2)
C21_2 C 0.80586(15) 0.3551(10) 0.83302(18)
O6_2 O 0.95526(11) 0.1172(7) 0.83652(13)
C22_2 C 0.99990(17) 0.5750(12) 0.10459(18)
C27_2 C 0.99359(16) 0.8961(10) 0.20182(18)
C28_2 C 0.99099(15) 0.8621(10) 0.16060(18)
H14_2 H 0.9811 0.9714 0.1433
C37_2 C 0.91611(17) 0.9983(10) 0.2040(2)
H19_2 H 0.9223 0.8535 0.1943
H20_2 H 0.8615 0.9595 0.1989
C46_2 C 0.90734(18) 0.4500(12) 0.0709(2)
H30_2 H 0.9150 0.3081 0.0807
C47_2 C 0.87769(17) 0.8194(12) 0.0873(2)
H31_2 H 0.8632 0.8584 0.0642
H32_2 H 0.8669 0.8851 0.1111
H33_2 H 0.9019 0.8787 0.0839
C48_2 C 0.85142(19) 0.4358(12) 0.1154(2)
H34_2 H 0.8627 0.3731 0.1391
H35_2 H 0.8318 0.5358 0.1231
H36_2 H 0.8420 0.3131 0.0990
H50_2 H 0.7684 0.8703 0.6468
Cd3_2 Cd 0.982983(9) 0.43370(6) 0.028313(16)
N2_2 N 0.87921(17) 0.5695(10) 0.09160(16)
O9_2 O 0.99352(11) 0.7277(7) 0.07715(12)
O10_2 O 0.99973(12) 0.3708(7) 0.09521(12)
O18_2 O 0.92248(11) 0.5326(7) 0.03907(13)
O19_2 O 0.96246(11) 0.0666(6) 0.03503(12)
H51_2 H 0.9674 0.0127 0.0619
H53_2 H 0.7809 0.9577 0.2449
H54_2 H 0.7430 0.9589 0.2459
O22 O 0.80841(10) 0.6973(6) 0.33955(11)
H6_2 H 0.8901 0.0581 0.3000
H17_2 H 0.8649 0.0564 0.7568
C44_2 C 0.9208(2) 0.0136(10) 0.4226(2)
H24_2 H 0.9443 0.0808 0.4177
H26_2 H 0.9039 0.1313 0.4305
H1_2 H 0.9909 0.6202 0.3931
C4_2 C 0.99605(18) 0.4278(11) 0.34093(17)
C8_2 C 0.94440(15) 0.6368(11) 0.32282(19)
C9_2 C 0.91856(18) 0.4869(10) 0.33863(18)
H4_2 H 0.9257 0.3438 0.3483
C10_2 C 0.88208(17) 0.5511(12) 0.33999(19)
H5_2 H 0.8648 0.4508 0.3506
C11_2 C 0.87143(14) 0.7651(9) 0.32552(17)
C12_2 C 0.89727(16) 0.9149(11) 0.30971(18)
C13_2 C 0.93375(15) 0.8508(11) 0.30836(17)
H7_2 H 0.9510 0.9510 0.2978
C14_2 C 0.83466(15) 0.8392(10) 0.32623(18)
C23_2 C 0.99532(13) 0.3543(8) 0.64653(15)
C24_2 C 0.97675(17) 0.4938(9) 0.67138(19)
H12_2 H 0.9672 0.6287 0.6606
C25_2 C 0.97083(15) 0.4509(11) 0.71168(18)
C26_2 C 0.98704(13) 0.2365(9) 0.72734(16)
H13_2 H 0.9839 0.1939 0.7542
C29_2 C 0.91839(14) 0.6435(10) 0.73375(17)
C30_2 C 0.8927(2) 0.4979(10) 0.7163(2)
H15_2 H 0.9005 0.3582 0.7057
C31_2 C 0.85583(17) 0.5533(11) 0.71406(19)
H16_2 H 0.8386 0.4556 0.7027
C32_2 C 0.84680(18) 0.7673(11) 0.7303(2)
C33_2 C 0.87223(15) 0.9160(11) 0.74610(17)
C34_2 C 0.90775(16) 0.8573(9) 0.74598(15)
H18_2 H 0.9252 0.9634 0.7543
C35_2 C 0.80640(15) 0.8381(10) 0.72942(19)
C43_2 C 0.95319(18) 0.7987(11) 0.48262(19)
H23_2 H 0.9730 0.8975 0.4798
H25_2 H 0.9122 0.9408 0.3983
C45_2 C 0.89330(15) 0.6683(11) 0.45785(18)
H27_2 H 0.8710 0.7481 0.4639
H28_2 H 0.8911 0.5924 0.4322
H29_2 H 0.8980 0.5565 0.4785
N1_2 N 0.92382(13) 0.8349(9) 0.45623(14)
O3_2 O 0.97973(10) 0.5754(8) 0.31504(13)
O11_2 O 0.95485(11) 0.5857(8) 0.73964(12)
O17_2 O 0.95584(11) 0.6482(7) 0.50963(12)
C22_3 C 0.49990(17) 0.9250(12) 0.10459(18)
C23_3 C 0.50468(13) 0.8543(8) 0.14653(15)
C24_3 C 0.52325(17) 0.9938(9) 0.17138(19)
C25_3 C 0.52917(15) 0.9509(11) 0.21168(18)
C26_3 C 0.51296(13) 0.7365(9) 0.22734(16)
H13_3 H 0.5161 0.6939 0.2542
C27_3 C 0.49359(16) 0.6039(10) 0.20182(18)
C28_3 C 0.49099(15) 0.6379(10) 0.16060(18)
H14_3 H 0.4811 0.5286 0.1433
C30_3 C 0.6073(2) 0.9979(10) 0.2163(2)
H15_3 H 0.5995 0.8582 0.2057
H16_3 H 0.6614 0.9556 0.2027
C36_3 C 0.44325(14) 0.3489(11) 0.21572(16)
C37_3 C 0.41611(17) 0.5017(10) 0.2040(2)
H19_3 H 0.4223 0.6465 0.1943
C38_3 C 0.37967(16) 0.4383(12) 0.20679(18)
H20_3 H 0.3615 0.5405 0.1989
C39_3 C 0.37036(15) 0.2220(10) 0.22133(16)
C40_3 C 0.39749(14) 0.0692(10) 0.23306(18)
C41_3 C 0.43394(15) 0.1326(9) 0.23026(17)
H22_3 H 0.4521 0.0304 0.2381
C42_3 C 0.33136(14) 0.1539(10) 0.22577(18)
C47_3 C 0.37769(17) 0.6806(12) 0.0873(2)
H31_3 H 0.3632 0.6416 0.0642
H32_3 H 0.3669 0.6149 0.1111
H33_3 H 0.4019 0.6213 0.0839
H35_3 H 0.3318 0.9642 0.1231
C49_3 C 0.24886(15) 0.1576(10) 0.40002(17)
H37_3 H 0.2298 0.1200 0.3827
C50_3 C 0.25458(18) 0.0228(11) 0.4368(2)
C51_3 C 0.28253(15) 0.0582(10) 0.45802(18)
C52_3 C 0.30583(13) 0.2267(10) 0.44853(16)
H39_3 H 0.3268 0.2491 0.4639
C53_3 C 0.29879(16) 0.3644(10) 0.41653(17)
H40_3 H 0.3142 0.4883 0.4116
C55_3 C 0.28783(16) 0.0232(10) 0.5348(2)
H43_3 H 0.3065 0.1413 0.5349
C56_3 C 0.25119(16) 0.1325(11) 0.54220(17)
H45_3 H 0.2322 0.0222 0.5359
H46_3 H 0.2483 0.2625 0.5241
C57_3 C 0.22432(17) 0.1762(10) 0.65247(18)
H47_3 H 0.2083 0.1014 0.6698
C58_3 C 0.22925(16) 0.0887(11) 0.61212(19)
C59_3 C 0.24636(16) 0.2152(11) 0.58629(19)
C60_3 C 0.26439(18) 0.4169(11) 0.5965(2)
H49_3 H 0.2785 0.4994 0.5783
C61_3 C 0.25921(18) 0.4883(11) 0.6386(2)
H50_3 H 0.2684 0.6297 0.6468
Cd1 Cd 0.263595(10) 0.49724(6) 0.328506(11)
N2_3 N 0.37921(17) 0.9305(10) 0.09160(16)
N3_3 N 0.27005(13) 0.3289(9) 0.39126(14)
N4_2 N 0.24178(13) 0.3580(9) 0.66544(15)
O9_3 O 0.49352(11) 0.7723(7) 0.07715(12)
O14_3 O 0.48021(11) 0.3887(7) 0.21754(13)
O16_3 O 0.30638(10) 0.2968(7) 0.21822(12)
O18_3 O 0.42248(11) 0.9674(7) 0.03907(13)
O20 O 0.26213(10) 0.5972(7) 0.25658(11)
H53_3 H 0.2809 0.5423 0.2449
H54_3 H 0.2430 0.5411 0.2459
O21_3 O 0.26296(11) 0.1063(7) 0.30178(12)
H55_3 H 0.2446 0.0411 0.3126
H56_3 H 0.2817 0.0419 0.3118
Cd6 Cd 0.262091(10) 0.98934(6) 0.231353(11)
Cd8 Cd 0.237909(10) 0.48934(6) 0.731353(11)
O22_2 O 0.30841(10) 0.8027(6) 0.33955(11)
O23_2 O 0.32371(11) 0.4698(6) 0.31762(11)
O24_2 O 0.21902(9) 0.7882(6) 0.33996(11)
O25_2 O 0.20037(10) 0.4325(7) 0.32479(13)
O26_2 O 0.21720(10) 0.2907(6) 0.21819(11)
C1_2 C 0.47856(18) 0.9074(10) 0.94958(18)
C2_2 C 0.48124(15) 0.8414(10) 0.90728(17)
C3_2 C 0.49941(14) 0.9843(9) 0.88293(16)
C4_3 C 0.50395(18) 0.9278(11) 0.84093(17)
C5_2 C 0.48717(14) 0.7250(10) 0.82611(18)
H2_2 H 0.4882 0.6865 0.7989
C6_2 C 0.46948(17) 0.5882(10) 0.85338(19)
C7_2 C 0.46758(14) 0.6256(9) 0.89402(17)
H3_2 H 0.4580 0.5175 0.9118
C9_3 C 0.58144(18) 0.9869(10) 0.83863(18)
H4_3 H 0.5743 0.8438 0.8483
H5_3 H 0.6352 0.9508 0.8506
C15_3 C 0.41833(13) 0.3352(9) 0.83938(14)
C16_3 C 0.40859(15) 0.1186(9) 0.8253(2)
H8_3 H 0.4265 0.0148 0.8175
C17_3 C 0.37204(16) 0.0572(10) 0.82292(16)
C18_3 C 0.34521(15) 0.2125(10) 0.83456(17)
C19_3 C 0.35495(16) 0.4291(11) 0.84860(18)
H10_2 H 0.3370 0.5329 0.8564
C20_3 C 0.39151(18) 0.4904(10) 0.8510(2)
H11_2 H 0.3980 0.6354 0.8604
C21_3 C 0.30586(15) 0.1449(10) 0.83302(18)
O2_2 O 0.47728(10) 0.7601(7) 0.97873(11)
O6_3 O 0.45526(11) 0.3828(7) 0.83652(13)
O7_2 O 0.28098(9) 0.2882(6) 0.83996(11)
H21_3 H 0.3913 0.9244 0.2428
H38_3 H 0.2377 0.9118 0.4444
C54_3 C 0.28873(16) 0.8976(10) 0.49529(17)
H41_3 H 0.2700 0.7796 0.4955
H42_3 H 0.3122 0.8219 0.4925
H44_2 H 0.2932 0.9167 0.5566
H48_2 H 0.2203 0.9449 0.6049
O15_3 O 0.32289(10) 0.9540(7) 0.23416(14)
N5_2 N 0.25822(13) 0.8580(9) 0.16544(15)
O27_2 O 0.20118(10) 0.9509(7) 0.24234(11)
H9_3 H 0.3655 0.9123 0.8135
O8_2 O 0.29963(10) 0.9325(7) 0.82479(13)
Cd5_2 Cd 0.236405(10) 0.99724(6) 0.828506(11)
H1_3 H 0.4909 0.8798 0.3931
C8_3 C 0.44440(15) 0.8632(11) 0.32282(19)
C10_3 C 0.38208(17) 0.9489(12) 0.33999(19)
C11_3 C 0.37143(14) 0.7349(9) 0.32552(17)
C12_3 C 0.39727(16) 0.5851(11) 0.30971(18)
H6_3 H 0.3901 0.4419 0.3000
C13_3 C 0.43375(15) 0.6492(11) 0.30836(17)
H7_3 H 0.4510 0.5490 0.2978
C14_3 C 0.33466(15) 0.6608(10) 0.32623(18)
H12_3 H 0.4672 0.8713 0.6606
C29_3 C 0.41839(14) 0.8565(10) 0.73375(17)
C31_3 C 0.35583(17) 0.9467(11) 0.71406(19)
C32_3 C 0.34680(18) 0.7327(11) 0.7303(2)
C33_3 C 0.37223(15) 0.5840(11) 0.74610(17)
H17_3 H 0.3649 0.4436 0.7568
C34_3 C 0.40775(16) 0.6427(9) 0.74598(15)
H18_3 H 0.4252 0.5366 0.7543
C35_3 C 0.30640(15) 0.6619(10) 0.72942(19)
C43_3 C 0.45319(18) 0.7013(11) 0.48262(19)
H23_3 H 0.4730 0.6025 0.4798
C44_3 C 0.4208(2) 0.4864(10) 0.4226(2)
H24_3 H 0.4443 0.4192 0.4177
H25_3 H 0.4122 0.5592 0.3983
H26_3 H 0.4039 0.3687 0.4305
C45_3 C 0.39330(15) 0.8317(11) 0.45785(18)
H27_3 H 0.3710 0.7519 0.4639
H28_3 H 0.3911 0.9076 0.4322
H29_3 H 0.3980 0.9435 0.4785
C46_3 C 0.59266(18) 0.9500(12) 0.5709(2)
H30_3 H 0.5850 0.8081 0.5807
C48_3 C 0.64858(19) 0.9358(12) 0.6154(2)
H34_3 H 0.6373 0.8731 0.6391
H36_3 H 0.6580 0.8131 0.5990
Cd3_3 Cd 0.517017(9) 0.93370(6) 0.528313(16)
N1_3 N 0.42382(13) 0.6651(9) 0.45623(14)
O1_2 O 0.52682(11) 0.8866(7) 0.45911(12)
O3_3 O 0.47973(10) 0.9246(8) 0.31504(13)
O10_3 O 0.50027(12) 0.8708(7) 0.59521(12)
O11_3 O 0.45485(11) 0.9143(8) 0.73964(12)
O12_2 O 0.28280(10) 0.7907(6) 0.71819(11)
O13_2 O 0.29882(10) 0.4509(7) 0.74234(11)
O17_3 O 0.45584(11) 0.8518(7) 0.50963(12)
O19_3 O 0.53754(11) 0.5666(6) 0.53503(12)
H51_3 H 0.5326 0.5127 0.5619
H52_2 H 0.5253 0.4701 0.5158
C23_4 C 0.00468(13) 0.6457(8) 0.14653(15)
C24_4 C 0.02325(17) 0.5062(9) 0.17138(19)
H12_4 H 0.0328 0.3713 0.1606
C25_4 C 0.02917(15) 0.5491(11) 0.21168(18)
C26_4 C 0.01296(13) 0.7635(9) 0.22734(16)
H13_4 H 0.0161 0.8061 0.2542
C29_4 C 0.08161(14) 0.3565(10) 0.23375(17)
C30_4 C 0.1073(2) 0.5021(10) 0.2163(2)
H15_4 H 0.0995 0.6418 0.2057
C31_4 C 0.14417(17) 0.4467(11) 0.21406(19)
H16_4 H 0.1614 0.5444 0.2027
C32_4 C 0.15320(18) 0.2327(11) 0.2303(2)
C33_4 C 0.12777(15) 0.0840(11) 0.24610(17)
C34_4 C 0.09225(16) 0.1427(9) 0.24598(15)
H18_4 H 0.0748 0.0366 0.2543
C35_4 C 0.19360(15) 0.1619(10) 0.22942(19)
O11_4 O 0.04515(11) 0.4143(8) 0.23964(12)
O17_4 O 0.04416(11) 0.3518(7) 0.00963(12)
H1_4 H 0.0091 0.3798 0.8931
C4_4 C 0.00395(18) 0.5722(11) 0.84093(17)
C8_4 C 0.05560(15) 0.3632(11) 0.82282(19)
C9_4 C 0.08144(18) 0.5131(10) 0.83863(18)
H4_4 H 0.0743 0.6562 0.8483
C10_4 C 0.11792(17) 0.4489(12) 0.83999(19)
H5_4 H 0.1352 0.5492 0.8506
C11_4 C 0.12857(14) 0.2349(9) 0.82552(17)
C12_4 C 0.10273(16) 0.0851(11) 0.80971(18)
C13_4 C 0.06625(15) 0.1492(11) 0.80836(17)
H7_4 H 0.0490 0.0490 0.7978
C14_4 C 0.16534(15) 0.1608(10) 0.82623(18)
C43_4 C 0.04681(18) 0.2013(11) 0.98262(19)
H23_4 H 0.0270 0.1025 0.9798
H25_4 H 0.0878 0.0592 0.8983
C45_4 C 0.10670(15) 0.3317(11) 0.95785(18)
H27_4 H 0.1290 0.2519 0.9639
H28_4 H 0.1089 0.4076 0.9322
H29_4 H 0.1020 0.4435 0.9785
N1_4 N 0.07618(13) 0.1651(9) 0.95623(14)
O3_4 O 0.02027(10) 0.4246(8) 0.81504(13)
O4_2 O 0.19159(10) 0.3027(6) 0.83955(11)
H17_4 H 0.1351 0.9436 0.2568
H6_4 H 0.1099 0.9419 0.8000
C44_4 C 0.0792(2) 0.9864(10) 0.9226(2)
H24_4 H 0.0557 0.9192 0.9177
H26_4 H 0.0961 0.8687 0.9305
O5_2 O 0.17629(11) 0.9698(6) 0.81762(11)
C1_3 C 0.02144(18) 0.4074(10) 0.44958(18)
C2_3 C 0.01876(15) 0.3414(10) 0.40728(17)
C3_3 C 0.00059(14) 0.4843(9) 0.38293(16)
C5_3 C 0.01283(14) 0.2250(10) 0.32611(18)
H2_3 H 0.0118 0.1865 0.2989
C6_3 C 0.03052(17) 0.0882(10) 0.35338(19)
C7_3 C 0.03242(14) 0.1256(9) 0.39402(17)
H3_3 H 0.0420 0.0175 0.4118
H10_3 H 0.1630 0.0329 0.3564
H11_3 H 0.1020 0.1354 0.3604
C22_4 C 0.00010(17) 0.4250(12) 0.60459(18)
C27_4 C 0.00641(16) 0.1039(10) 0.70182(18)
C28_4 C 0.00901(15) 0.1379(10) 0.66060(18)
H14_4 H 0.0189 0.0286 0.6433
C37_4 C 0.08389(17) 0.0017(10) 0.7040(2)
H19_4 H 0.0777 0.1465 0.6943
H20_4 H 0.1385 0.0405 0.6989
C46_4 C 0.09266(18) 0.5500(12) 0.5709(2)
H30_4 H 0.0850 0.6919 0.5807
C47_4 C 0.12231(17) 0.1806(12) 0.5873(2)
H31_4 H 0.1368 0.1416 0.5642
H32_4 H 0.1331 0.1149 0.6111
H33_4 H 0.0981 0.1213 0.5839
C48_4 C 0.14858(19) 0.5642(12) 0.6154(2)
H34_4 H 0.1373 0.6269 0.6391
H35_4 H 0.1682 0.4642 0.6231
H36_4 H 0.1580 0.6869 0.5990
Cd3_4 Cd 0.017017(9) 0.56630(6) 0.528313(16)
N2_4 N 0.12079(17) 0.4305(10) 0.59160(16)
O1_3 O 0.02682(11) 0.6134(7) 0.45911(12)
O2_3 O 0.02272(10) 0.2601(7) 0.47873(11)
O9_4 O 0.00648(11) 0.2723(7) 0.57715(12)
O10_4 O 0.00027(12) 0.6292(7) 0.59521(12)
O18_4 O 0.07752(11) 0.4674(7) 0.53907(13)
O19_4 O 0.03754(11) 0.9334(6) 0.53503(12)
H51_4 H 0.0326 0.9873 0.5619
O20_2 O 0.23787(10) 0.0972(7) 0.75658(11)
H53_4 H 0.2191 0.0423 0.7449
H54_4 H 0.2570 0.0411 0.7459
C55_4 C 0.21217(16) 0.5232(10) 0.0348(2)
H43_4 H 0.1935 0.6413 0.0349
H44_3 H 0.2068 0.4167 0.0566
C56_4 C 0.24881(16) 0.6325(11) 0.04220(17)
H45_4 H 0.2678 0.5222 0.0359
H46_4 H 0.2517 0.7625 0.0241
C57_4 C 0.27568(17) 0.6762(10) 0.15247(18)
H47_4 H 0.2917 0.6014 0.1698
C58_4 C 0.27075(16) 0.5887(11) 0.11212(19)
H48_3 H 0.2797 0.4449 0.1049
C59_4 C 0.25364(16) 0.7152(11) 0.08629(19)
C60_4 C 0.23561(18) 0.9169(11) 0.0965(2)
H49_4 H 0.2215 0.9994 0.0783
C61_4 C 0.24079(18) 0.9883(11) 0.1386(2)
C15_4 C 0.08167(13) 0.8352(9) 0.33938(14)
C16_4 C 0.09141(15) 0.6186(9) 0.3253(2)
H8_4 H 0.0735 0.5148 0.3175
C17_4 C 0.12796(16) 0.5572(10) 0.32292(16)
H9_4 H 0.1345 0.4123 0.3135
C18_4 C 0.15479(15) 0.7125(10) 0.33456(17)
C19_4 C 0.14505(16) 0.9291(11) 0.34860(18)
C20_4 C 0.10849(18) 0.9904(10) 0.3510(2)
C21_4 C 0.19414(15) 0.6449(10) 0.33302(18)
C36_4 C 0.05675(14) 0.8489(11) 0.71572(16)
C38_4 C 0.12033(16) 0.9383(12) 0.70679(18)
C39_4 C 0.12964(15) 0.7220(10) 0.72133(16)
C40_4 C 0.10251(14) 0.5692(10) 0.73306(18)
H21_4 H 0.1087 0.4244 0.7428
C41_4 C 0.06606(15) 0.6326(9) 0.73026(17)
H22_4 H 0.0479 0.5304 0.7381
C42_4 C 0.16864(14) 0.6539(10) 0.72577(18)
C49_4 C 0.25114(15) 0.6576(10) 0.90002(17)
H37_4 H 0.2702 0.6200 0.8827
C50_4 C 0.24542(18) 0.5228(11) 0.9368(2)
H38_4 H 0.2623 0.4118 0.9444
C51_4 C 0.21747(15) 0.5582(10) 0.95802(18)
C52_4 C 0.19417(13) 0.7267(10) 0.94853(16)
H39_4 H 0.1732 0.7491 0.9639
C53_4 C 0.20121(16) 0.8644(10) 0.91653(17)
H40_4 H 0.1858 0.9883 0.9116
C54_4 C 0.21127(16) 0.3976(10) 0.99529(17)
H41_4 H 0.2300 0.2796 0.9955
H42_4 H 0.1878 0.3219 0.9925
N3_4 N 0.22995(13) 0.8289(9) 0.89126(14)
O6_4 O 0.04474(11) 0.8828(7) 0.33652(13)
O14_4 O 0.01979(11) 0.8887(7) 0.71754(13)
O15_4 O 0.17711(10) 0.4540(7) 0.73416(14)
O16_4 O 0.19362(10) 0.7968(7) 0.71822(12)
O21_4 O 0.23704(11) 0.6063(7) 0.80178(12)
H55_4 H 0.2554 0.5411 0.8126
H56_4 H 0.2183 0.5419 0.8118
H44_4 H 0.7068 0.0833 0.0566
H48_4 H 0.7797 0.0551 0.1049
C1_4 C 0.97856(18) 0.5926(10) 0.94958(18)
C2_4 C 0.98124(15) 0.6586(10) 0.90728(17)
C3_4 C 0.99941(14) 0.5157(9) 0.88293(16)
C5_4 C 0.98717(14) 0.7750(10) 0.82611(18)
H2_4 H 0.9882 0.8135 0.7989
C6_4 C 0.96948(17) 0.9118(10) 0.85338(19)
C7_4 C 0.96758(14) 0.8744(9) 0.89402(17)
H3_4 H 0.9580 0.9825 0.9118
H10_4 H 0.8370 0.9671 0.8564
H11_4 H 0.8980 0.8646 0.8604
O1_4 O 0.97318(11) 0.3866(7) 0.95911(12)
O2_4 O 0.97728(10) 0.7399(7) 0.97873(11)
H52_3 H 0.9747 0.9701 0.0158
H52_4 H 0.0253 0.0299 0.5158
H50_4 H 0.2316 0.1297 0.1468
loop_
_geom_bond_atom_site_label_1
_geom_bond_atom_site_label_2
_geom_bond_site_symmetry_1
_geom_bond_site_symmetry_2
C32 C31 1_555 1_555
C33 C32 1_555 1_555
H17 C33 1_555 1_555
C34 C29 1_555 1_555
H18 C34 1_555 1_555
C35 C32 1_555 1_555
C46 H30 1_555 1_555
C48 H34 1_555 1_555
H36 C48 1_555 1_555
O12 C35 1_555 1_555
O13 C35 1_555 1_555
O19 Cd3 1_555 1_555
H51 O19 1_555 1_555
H52 O19 1_555 1_555
Cd7 O12 1_555 1_555
C29 O11 1_555 1_555
C33 C34 1_555 1_555
Cd3 O10 1_555 1_555
Cd3 O17 1_555 1_555
O13 Cd7 1_555 1_555
C11 C10 1_555 1_555
C12 C11 1_555 1_555
H6 C12 1_555 1_555
C13 C8 1_555 1_555
H7 C13 1_555 1_555
C14 C11 1_555 1_555
C43 H23 1_555 1_555
C44 H24 1_555 1_555
H25 C44 1_555 1_555
H26 C44 1_555 1_555
C45 H27 1_555 1_555
H28 C45 1_555 1_555
H29 C45 1_555 1_555
N1 C43 1_555 1_555
O4 C14 1_555 1_555
O5 C14 1_555 1_555
Cd4 O4 1_555 1_555
C8 O3 1_555 1_555
C12 C13 1_555 1_555
C44 N1 1_555 1_555
C45 N1 1_555 1_555
O5 Cd4 1_555 1_555
H41 C54 1_555 1_555
H42 C54 1_555 1_555
Cd2 O15 1_555 1_555
N5 Cd2 1_555 1_555
O27 Cd2 1_555 1_555
O28 Cd2 1_555 1_555
O8 Cd5 1_555 1_555
H43 C55 1_555 1_555
C56 C55 1_555 1_555
H45 C56 1_555 1_555
H46 C56 1_555 1_555
C57 H47 1_555 1_555
C58 C57 1_555 1_555
C59 C56 1_555 1_555
C60 C59 1_555 1_555
H49 C60 1_555 1_555
C61 C60 1_555 1_555
H50 C61 1_555 1_555
N4 C57 1_555 1_555
Cd7 N4 1_555 1_555
C58 C59 1_555 1_555
C61 N4 1_555 1_555
C1 C2 1_555 1_555
C2 C3 1_555 1_555
C4 C3 1_555 1_555
C5 C4 1_555 1_555
H2 C5 1_555 1_555
C6 C5 1_555 1_555
C7 C2 1_555 1_555
H3 C7 1_555 1_555
C9 H4 1_555 1_555
C15 C16 1_555 1_555
C16 H8 1_555 1_555
C17 C16 1_555 1_555
C18 C17 1_555 1_555
C19 C18 1_555 1_555
H10 C19 1_555 1_555
C20 C15 1_555 1_555
H11 C20 1_555 1_555
C21 C18 1_555 1_555
C22 C23 1_555 1_555
C23 C24 1_555 1_555
C25 C24 1_555 1_555
C26 C25 1_555 1_555
H13 C26 1_555 1_555
C27 C26 1_555 1_555
C28 C23 1_555 1_555
H14 C28 1_555 1_555
C30 H15 1_555 1_555
C36 C37 1_555 1_555
C37 H19 1_555 1_555
C38 C37 1_555 1_555
H20 C38 1_555 1_555
C39 C38 1_555 1_555
C40 C39 1_555 1_555
C41 C36 1_555 1_555
H22 C41 1_555 1_555
C42 C39 1_555 1_555
C47 H31 1_555 1_555
H32 C47 1_555 1_555
H33 C47 1_555 1_555
C49 H37 1_555 1_555
C50 C49 1_555 1_555
C51 C50 1_555 1_555
C52 C51 1_555 1_555
H39 C52 1_555 1_555
C53 C52 1_555 1_555
H40 C53 1_555 1_555
Cd4 N3 1_555 1_555
N3 C49 1_555 1_555
O2 C1 1_555 1_555
O6 C6 1_555 1_555
O7 C21 1_555 1_555
O9 C22 1_555 1_555
O14 C27 1_555 1_555
O16 C42 1_555 1_555
O28 Cd4 1_555 1_555
H53 O28 1_555 1_555
H54 O28 1_555 1_555
O21 Cd4 1_555 1_555
H55 O21 1_555 1_555
H56 O21 1_555 1_555
O24 Cd4 1_555 1_555
O25 Cd4 1_555 1_555
C6 C7 1_555 1_555
C15 O6 1_555 1_555
C19 C20 1_555 1_555
C27 C28 1_555 1_555
C36 O14 1_555 1_555
C40 C41 1_555 1_555
C47 N2 1_555 1_555
C53 N3 1_555 1_555
C39_2 C38_2 1_555 1_555
C40_2 C39_2 1_555 1_555
H21_2 C40_2 1_555 1_555
C41_2 C36_2 1_555 1_555
H22_2 C41_2 1_555 1_555
C42_2 C39_2 1_555 1_555
C49_2 H37_2 1_555 1_555
C50_2 C49_2 1_555 1_555
H38_2 C50_2 1_555 1_555
C51_2 C50_2 1_555 1_555
C52_2 C51_2 1_555 1_555
H39_2 C52_2 1_555 1_555
C53_2 C52_2 1_555 1_555
H40_2 C53_2 1_555 1_555
C54_2 C51_2 1_555 1_555
H41_2 C54_2 1_555 1_555
H42_2 C54_2 1_555 1_555
C55_2 C54_2 1_555 1_555
H43_2 C55_2 1_555 1_555
H44 C55_2 1_555 1_555
C56_2 C55_2 1_555 1_555
H45_2 C56_2 1_555 1_555
H46_2 C56_2 1_555 1_555
C57_2 H47_2 1_555 1_555
C58_2 C57_2 1_555 1_555
H48 C58_2 1_555 1_555
C59_2 C56_2 1_555 1_555
C60_2 C59_2 1_555 1_555
H49_2 C60_2 1_555 1_555
C61_2 C60_2 1_555 1_555
Cd5 N3_2 1_555 1_555
Cd7 O15_2 1_555 1_555
N3_2 C49_2 1_555 1_555
N5 C57_2 1_555 1_555
O15_2 C42_2 1_555 1_555
O16_2 C42_2 1_555 1_555
O21_2 Cd5 1_555 1_555
H55_2 O21_2 1_555 1_555
H56_2 O21_2 1_555 1_555
O23 Cd5 1_555 1_555
O28_2 Cd7 1_555 1_555
C36_2 O14_2 1_555 1_555
C40_2 C41_2 1_555 1_555
C53_2 N3_2 1_555 1_555
C58_2 C59_2 1_555 1_555
C61_2 N5 1_555 1_555
Cd7 O16_2 1_555 1_555
Cd7 O21_2 1_555 1_555
C15_2 C16_2 1_555 1_555
C16_2 H8_2 1_555 1_555
C17_2 C16_2 1_555 1_555
H9_2 C17_2 1_555 1_555
C18_2 C17_2 1_555 1_555
C19_2 C18_2 1_555 1_555
C20_2 C15_2 1_555 1_555
C21_2 C18_2 1_555 1_555
O24 C21_2 1_555 1_555
O25 C21_2 1_555 1_555
C15_2 O6_2 1_555 1_555
C19_2 C20_2 1_555 1_555
H14_2 C28_2 1_555 1_555
C37_2 H19_2 1_555 1_555
C46_2 H30_2 1_555 1_555
C47_2 H31_2 1_555 1_555
H32_2 C47_2 1_555 1_555
H33_2 C47_2 1_555 1_555
C48_2 H34_2 1_555 1_555
H35_2 C48_2 1_555 1_555
H36_2 C48_2 1_555 1_555
N2_2 C46_2 1_555 1_555
O9_2 C22_2 1_555 1_555
O10_2 C22_2 1_555 1_555
O18_2 C46_2 1_555 1_555
O19_2 Cd3_2 1_555 1_555
H51_2 O19_2 1_555 1_555
H53_2 O28_2 1_555 1_555
H54_2 O28_2 1_555 1_555
C27_2 C28_2 1_555 1_555
C47_2 N2_2 1_555 1_555
C48_2 N2_2 1_555 1_555
Cd3_2 O9_2 1_555 1_555
Cd3_2 O10_2 1_555 1_555
Cd3_2 O18_2 1_555 1_555
C44_2 H24_2 1_555 1_555
H26_2 C44_2 1_555 1_555
C8_2 C9_2 1_555 1_555
C9_2 H4_2 1_555 1_555
C10_2 C9_2 1_555 1_555
H5_2 C10_2 1_555 1_555
C11_2 C10_2 1_555 1_555
C12_2 C11_2 1_555 1_555
C13_2 C8_2 1_555 1_555
H7_2 C13_2 1_555 1_555
C14_2 C11_2 1_555 1_555
C23_2 C24_2 1_555 1_555
C24_2 H12_2 1_555 1_555
C25_2 C24_2 1_555 1_555
C26_2 C25_2 1_555 1_555
H13_2 C26_2 1_555 1_555
C29_2 C30_2 1_555 1_555
C30_2 H15_2 1_555 1_555
C31_2 C30_2 1_555 1_555
H16_2 C31_2 1_555 1_555
C32_2 C31_2 1_555 1_555
C33_2 C32_2 1_555 1_555
C34_2 C29_2 1_555 1_555
H18_2 C34_2 1_555 1_555
C35_2 C32_2 1_555 1_555
C43_2 H23_2 1_555 1_555
C45_2 H27_2 1_555 1_555
H28_2 C45_2 1_555 1_555
H29_2 C45_2 1_555 1_555
N1_2 C43_2 1_555 1_555
O3_2 C4_2 1_555 1_555
O22 C14_2 1_555 1_555
O11_2 C25_2 1_555 1_555
O26 C35_2 1_555 1_555
O17_2 C43_2 1_555 1_555
C8_2 O3_2 1_555 1_555
C12_2 C13_2 1_555 1_555
C29_2 O11_2 1_555 1_555
C33_2 C34_2 1_555 1_555
C45_2 N1_2 1_555 1_555
C22_3 C23_3 1_555 1_555
C23_3 C24_3 1_555 1_555
C25_3 C24_3 1_555 1_555
C26_3 C25_3 1_555 1_555
H13_3 C26_3 1_555 1_555
C27_3 C26_3 1_555 1_555
C28_3 C23_3 1_555 1_555
H14_3 C28_3 1_555 1_555
C30_3 H15_3 1_555 1_555
C36_3 C37_3 1_555 1_555
C37_3 H19_3 1_555 1_555
C38_3 C37_3 1_555 1_555
H20_3 C38_3 1_555 1_555
C39_3 C38_3 1_555 1_555
C40_3 C39_3 1_555 1_555
C41_3 C36_3 1_555 1_555
H22_3 C41_3 1_555 1_555
C42_3 C39_3 1_555 1_555
C47_3 H31_3 1_555 1_555
H32_3 C47_3 1_555 1_555
H33_3 C47_3 1_555 1_555
C49_3 H37_3 1_555 1_555
C50_3 C49_3 1_555 1_555
C51_3 C50_3 1_555 1_555
C52_3 C51_3 1_555 1_555
H39_3 C52_3 1_555 1_555
C53_3 C52_3 1_555 1_555
H40_3 C53_3 1_555 1_555
H43_3 C55_3 1_555 1_555
C56_3 C55_3 1_555 1_555
H45_3 C56_3 1_555 1_555
H46_3 C56_3 1_555 1_555
C57_3 H47_3 1_555 1_555
C58_3 C57_3 1_555 1_555
C59_3 C56_3 1_555 1_555
C60_3 C59_3 1_555 1_555
H49_3 C60_3 1_555 1_555
C61_3 C60_3 1_555 1_555
H50_3 C61_3 1_555 1_555
Cd1 N3_3 1_555 1_555
N3_3 C49_3 1_555 1_555
N4_2 C57_3 1_555 1_555
O9_3 C22_3 1_555 1_555
O14_3 C27_3 1_555 1_555
O16_3 C42_3 1_555 1_555
O20 Cd1 1_555 1_555
H53_3 O20 1_555 1_555
H54_3 O20 1_555 1_555
O21_3 Cd1 1_555 1_555
H55_3 O21_3 1_555 1_555
H56_3 O21_3 1_555 1_555
Cd6 O20 1_555 1_555
Cd8 N4_2 1_555 1_555
O22_2 Cd1 1_555 1_555
O23_2 Cd1 1_555 1_555
O24_2 Cd1 1_555 1_555
O25_2 Cd1 1_555 1_555
C27_3 C28_3 1_555 1_555
C36_3 O14_3 1_555 1_555
C40_3 C41_3 1_555 1_555
C47_3 N2_3 1_555 1_555
C53_3 N3_3 1_555 1_555
C58_3 C59_3 1_555 1_555
C61_3 N4_2 1_555 1_555
C1_2 C2_2 1_555 1_555
C2_2 C3_2 1_555 1_555
C4_3 C3_2 1_555 1_555
C5_2 C4_3 1_555 1_555
H2_2 C5_2 1_555 1_555
C6_2 C5_2 1_555 1_555
C7_2 C2_2 1_555 1_555
H3_2 C7_2 1_555 1_555
C9_3 H4_3 1_555 1_555
C15_3 C16_3 1_555 1_555
C16_3 H8_3 1_555 1_555
C17_3 C16_3 1_555 1_555
C18_3 C17_3 1_555 1_555
C19_3 C18_3 1_555 1_555
H10_2 C19_3 1_555 1_555
C20_3 C15_3 1_555 1_555
H11_2 C20_3 1_555 1_555
C21_3 C18_3 1_555 1_555
O2_2 C1_2 1_555 1_555
O6_3 C6_2 1_555 1_555
O7_2 C21_3 1_555 1_555
C6_2 C7_2 1_555 1_555
C15_3 O6_3 1_555 1_555
C19_3 C20_3 1_555 1_555
H41_3 C54_3 1_555 1_555
H42_3 C54_3 1_555 1_555
Cd6 O15_3 1_555 1_555
N5_2 Cd6 1_555 1_555
O27_2 Cd6 1_555 1_555
O8_2 Cd5_2 1_555 1_555
C11_3 C10_3 1_555 1_555
C12_3 C11_3 1_555 1_555
H6_3 C12_3 1_555 1_555
C13_3 C8_3 1_555 1_555
H7_3 C13_3 1_555 1_555
C14_3 C11_3 1_555 1_555
C32_3 C31_3 1_555 1_555
C33_3 C32_3 1_555 1_555
H17_3 C33_3 1_555 1_555
C34_3 C29_3 1_555 1_555
H18_3 C34_3 1_555 1_555
C35_3 C32_3 1_555 1_555
C43_3 H23_3 1_555 1_555
C44_3 H24_3 1_555 1_555
H25_3 C44_3 1_555 1_555
H26_3 C44_3 1_555 1_555
C45_3 H27_3 1_555 1_555
H28_3 C45_3 1_555 1_555
H29_3 C45_3 1_555 1_555
C46_3 H30_3 1_555 1_555
C48_3 H34_3 1_555 1_555
H36_3 C48_3 1_555 1_555
Cd3_3 O1_2 1_555 1_555
N1_3 C43_3 1_555 1_555
O22_2 C14_3 1_555 1_555
O23_2 C14_3 1_555 1_555
O12_2 C35_3 1_555 1_555
O13_2 C35_3 1_555 1_555
O17_3 C43_3 1_555 1_555
O19_3 Cd3_3 1_555 1_555
H51_3 O19_3 1_555 1_555
H52_2 O19_3 1_555 1_555
Cd8 O12_2 1_555 1_555
C8_3 O3_3 1_555 1_555
C12_3 C13_3 1_555 1_555
C29_3 O11_3 1_555 1_555
C33_3 C34_3 1_555 1_555
C44_3 N1_3 1_555 1_555
C45_3 N1_3 1_555 1_555
Cd3_3 O10_3 1_555 1_555
Cd3_3 O17_3 1_555 1_555
O13_2 Cd8 1_555 1_555
C23_4 C24_4 1_555 1_555
C24_4 H12_4 1_555 1_555
C25_4 C24_4 1_555 1_555
C26_4 C25_4 1_555 1_555
H13_4 C26_4 1_555 1_555
C29_4 C30_4 1_555 1_555
C30_4 H15_4 1_555 1_555
C31_4 C30_4 1_555 1_555
H16_4 C31_4 1_555 1_555
C32_4 C31_4 1_555 1_555
C33_4 C32_4 1_555 1_555
C34_4 C29_4 1_555 1_555
H18_4 C34_4 1_555 1_555
C35_4 C32_4 1_555 1_555
O11_4 C25_4 1_555 1_555
O26_2 C35_4 1_555 1_555
C29_4 O11_4 1_555 1_555
C33_4 C34_4 1_555 1_555
C8_4 C9_4 1_555 1_555
C9_4 H4_4 1_555 1_555
C10_4 C9_4 1_555 1_555
H5_4 C10_4 1_555 1_555
C11_4 C10_4 1_555 1_555
C12_4 C11_4 1_555 1_555
C13_4 C8_4 1_555 1_555
H7_4 C13_4 1_555 1_555
C14_4 C11_4 1_555 1_555
C43_4 H23_4 1_555 1_555
C45_4 H27_4 1_555 1_555
H28_4 C45_4 1_555 1_555
H29_4 C45_4 1_555 1_555
N1_4 C43_4 1_555 1_555
O3_4 C4_4 1_555 1_555
O4_2 C14_4 1_555 1_555
C8_4 O3_4 1_555 1_555
C12_4 C13_4 1_555 1_555
C45_4 N1_4 1_555 1_555
C44_4 H24_4 1_555 1_555
H26_4 C44_4 1_555 1_555
O5_2 Cd5_2 1_555 1_555
C1_3 C2_3 1_555 1_555
C2_3 C3_3 1_555 1_555
H2_3 C5_3 1_555 1_555
C6_3 C5_3 1_555 1_555
C7_3 C2_3 1_555 1_555
H3_3 C7_3 1_555 1_555
H14_4 C28_4 1_555 1_555
C37_4 H19_4 1_555 1_555
C46_4 H30_4 1_555 1_555
C47_4 H31_4 1_555 1_555
H32_4 C47_4 1_555 1_555
H33_4 C47_4 1_555 1_555
C48_4 H34_4 1_555 1_555
H35_4 C48_4 1_555 1_555
H36_4 C48_4 1_555 1_555
Cd3_4 O1_3 1_555 1_555
N2_4 C46_4 1_555 1_555
O1_3 C1_3 1_555 1_555
O2_3 C1_3 1_555 1_555
O9_4 C22_4 1_555 1_555
O10_4 C22_4 1_555 1_555
O18_4 C46_4 1_555 1_555
O19_4 Cd3_4 1_555 1_555
H51_4 O19_4 1_555 1_555
H53_4 O20_2 1_555 1_555
H54_4 O20_2 1_555 1_555
Cd8 O20_2 1_555 1_555
C6_3 C7_3 1_555 1_555
C27_4 C28_4 1_555 1_555
C47_4 N2_4 1_555 1_555
C48_4 N2_4 1_555 1_555
Cd3_4 O2_3 1_555 1_555
Cd3_4 O9_4 1_555 1_555
Cd3_4 O10_4 1_555 1_555
Cd3_4 O18_4 1_555 1_555
H43_4 C55_4 1_555 1_555
H44_3 C55_4 1_555 1_555
C56_4 C55_4 1_555 1_555
H45_4 C56_4 1_555 1_555
H46_4 C56_4 1_555 1_555
C57_4 H47_4 1_555 1_555
C58_4 C57_4 1_555 1_555
H48_3 C58_4 1_555 1_555
C59_4 C56_4 1_555 1_555
C60_4 C59_4 1_555 1_555
H49_4 C60_4 1_555 1_555
C61_4 C60_4 1_555 1_555
N5_2 C57_4 1_555 1_555
C58_4 C59_4 1_555 1_555
C61_4 N5_2 1_555 1_555
C15_4 C16_4 1_555 1_555
C16_4 H8_4 1_555 1_555
C17_4 C16_4 1_555 1_555
H9_4 C17_4 1_555 1_555
C18_4 C17_4 1_555 1_555
C19_4 C18_4 1_555 1_555
C20_4 C15_4 1_555 1_555
C21_4 C18_4 1_555 1_555
C39_4 C38_4 1_555 1_555
C40_4 C39_4 1_555 1_555
H21_4 C40_4 1_555 1_555
C41_4 C36_4 1_555 1_555
H22_4 C41_4 1_555 1_555
C42_4 C39_4 1_555 1_555
C49_4 H37_4 1_555 1_555
C50_4 C49_4 1_555 1_555
H38_4 C50_4 1_555 1_555
C51_4 C50_4 1_555 1_555
C52_4 C51_4 1_555 1_555
H39_4 C52_4 1_555 1_555
C53_4 C52_4 1_555 1_555
H40_4 C53_4 1_555 1_555
C54_4 C51_4 1_555 1_555
H41_4 C54_4 1_555 1_555
H42_4 C54_4 1_555 1_555
Cd5_2 N3_4 1_555 1_555
Cd8 O15_4 1_555 1_555
N3_4 C49_4 1_555 1_555
O24_2 C21_4 1_555 1_555
O25_2 C21_4 1_555 1_555
O15_4 C42_4 1_555 1_555
O16_4 C42_4 1_555 1_555
O21_4 Cd5_2 1_555 1_555
H55_4 O21_4 1_555 1_555
H56_4 O21_4 1_555 1_555
C15_4 O6_4 1_555 1_555
C19_4 C20_4 1_555 1_555
C36_4 O14_4 1_555 1_555
C40_4 C41_4 1_555 1_555
C53_4 N3_4 1_555 1_555
Cd8 O16_4 1_555 1_555
Cd8 O21_4 1_555 1_555
C1_4 C2_4 1_555 1_555
C2_4 C3_4 1_555 1_555
H2_4 C5_4 1_555 1_555
C6_4 C5_4 1_555 1_555
C7_4 C2_4 1_555 1_555
H3_4 C7_4 1_555 1_555
O1_4 C1_4 1_555 1_555
O2_4 C1_4 1_555 1_555
C6_4 C7_4 1_555 1_555

#END
