
###############################################################################
#
# This file contains modified crystal structure data generated from the
# MOF subset of the Cambridge Structural Database (CSD) v543 
# hosted by the Cambridge Crystallographic Data Centre (CCDC).
#
# This work is licensed under the Creative Commons
# Attribution-NonCommercial-ShareAlike 4.0 International License.
# To view a copy of this license, visit
# http://creativecommons.org/licenses/by-nc-sa/4.0/
# or send a letter to
# Creative Commons, PO Box 1866, Mountain View, CA 94042, USA.
#
# CIF created using the CSD Python API on 29 September 2022
# The structure has been converted into the P1 space group
# The structure has a 3D framework
# The original CSD entry MICDEJ is in the monoclinic crystal system
# The framework has been calculated to contain at least 10.0% void space
# The void calculation uses a probe of radius 1.32A, grid spacing 0.4
#
###############################################################################

data_MICDEJ
_chemical_formula_moiety         '(C192 H160 Mn14 N8 O80)n'
_symmetry_cell_setting           triclinic
_symmetry_space_group_name_H-M   'P 1'
_symmetry_Int_Tables_number      1
_space_group_name_Hall           'P 1'
loop_
_symmetry_equiv_pos_site_id
_symmetry_equiv_pos_as_xyz
1 x,y,z
_cell_length_a                   27.430(4)
_cell_length_b                   21.601(3)
_cell_length_c                   9.3796(12)
_cell_angle_alpha                90
_cell_angle_beta                 106.412(2)
_cell_angle_gamma                90
_cell_volume                     5331.11
loop_
_atom_site_label
_atom_site_type_symbol
_atom_site_fract_x
_atom_site_fract_y
_atom_site_fract_z
C25 C 0.66567(9) 0.33018(14) 0.0797(3)
C26 C 0.61056(9) 0.32584(13) 0.0801(3)
C27 C 0.58740(9) 0.26874(14) 0.0747(3)
H21 H 0.6057 0.2326 0.0738
C28 C 0.53674(10) 0.26613(15) 0.0706(3)
C29 C 0.50918(10) 0.31848(15) 0.0730(3)
H22 H 0.4754 0.3161 0.0733
C30 C 0.53268(10) 0.37518(15) 0.0749(3)
C31 C 0.58330(9) 0.37929(14) 0.0797(3)
H23 H 0.5988 0.4177 0.0825
C32 C 0.45588(10) 0.43281(14) 0.0074(4)
C36 C 0.37466(10) 0.46867(14) 0.0109(3)
H26 H 0.3538 0.4881 0.0601
C37 C 0.42567(10) 0.46102(14) 0.0823(3)
H27 H 0.4393 0.4748 0.1794
C44 C 0.44039(12) 0.15278(17) 0.0372(4)
H31 H 0.4544 0.1352 0.1304
Mn3 Mn 0.747068(14) 0.433405(19) 0.06100(4)
O11 O 0.68738(7) 0.28092(10) 0.0689(2)
O12 O 0.68447(7) 0.38316(10) 0.0913(2)
O13 O 0.50758(7) 0.43006(11) 0.0794(3)
O16 O 0.51544(7) 0.20802(11) 0.0707(3)
O19 O 0.80944(8) 0.49124(12) 0.0087(3)
H33 H 0.8334 0.4675 0.0021
C46 C 0.33455(16) 0.2977(2) 0.0153(4)
H35 H 0.3550 0.3312 0.0669
H36 H 0.3330 0.2656 0.0848
C47 C 0.25800(17) 0.3510(2) 0.0360(4)
H38 H 0.2522 0.3226 0.1083
H39 H 0.2782 0.3850 0.0860
Mn8 Mn 0.7500 0.2500 0.0000
O23 O 0.72797(7) 0.51451(11) 0.1501(3)
O24 O 0.79957(7) 0.33976(10) 0.0944(2)
O26 O 0.80375(7) 0.41142(11) 0.2637(2)
C1 C 0.33433(9) 0.33018(14) 0.4203(3)
C2 C 0.38944(9) 0.32584(13) 0.4199(3)
C3 C 0.41260(9) 0.26874(14) 0.4253(3)
H1 H 0.3943 0.2326 0.4262
C4 C 0.46326(10) 0.26613(15) 0.4294(3)
C5 C 0.49082(10) 0.31848(15) 0.4270(3)
H2 H 0.5246 0.3161 0.4267
C6 C 0.46732(10) 0.37518(15) 0.4251(3)
C7 C 0.41670(9) 0.37929(14) 0.4203(3)
H3 H 0.4012 0.4177 0.4175
C8 C 0.54412(10) 0.43281(14) 0.4926(4)
C9 C 0.56391(11) 0.41153(16) 0.6350(3)
H4 H 0.5429 0.3923 0.6839
C10 C 0.61456(10) 0.41855(15) 0.7048(3)
H5 H 0.6281 0.4037 0.8010
C11 C 0.64570(9) 0.44776(13) 0.6324(3)
C12 C 0.62534(10) 0.46867(14) 0.4891(3)
H6 H 0.6462 0.4881 0.4399
C13 C 0.57433(10) 0.46102(14) 0.4177(3)
H7 H 0.5607 0.4748 0.3206
C14 C 0.70052(10) 0.45718(14) 0.7124(3)
C15 C 0.53380(10) 0.19707(15) 0.5161(4)
C16 C 0.55532(11) 0.22513(16) 0.6502(3)
H8 H 0.5379 0.2560 0.6844
C17 C 0.60321(11) 0.20709(16) 0.7342(3)
H9 H 0.6182 0.2267 0.8242
C18 C 0.62891(10) 0.16058(14) 0.6862(3)
C19 C 0.60712(12) 0.13444(18) 0.5499(4)
H10 H 0.6246 0.1037 0.5151
C20 C 0.55961(12) 0.15278(17) 0.4628(4)
H11 H 0.5456 0.1352 0.3696
C21 C 0.67847(10) 0.13606(15) 0.7811(3)
H12 H 0.1507 0.2186 0.0584
H15 H 0.2740 0.1338 0.0251
C24 C 0.23699(12) 0.18888(16) 0.1990(4)
H18 H 0.2698 0.1739 0.2395
Mn1 Mn 0.252932(14) 0.433405(19) 0.43900(4)
Mn2 Mn 0.2500 0.2500 0.5000
N1 N 0.21566(11) 0.18034(13) 0.0555(3)
O1 O 0.31262(7) 0.28092(10) 0.4311(2)
O2 O 0.31553(7) 0.38316(10) 0.4087(2)
O3 O 0.49242(7) 0.43006(11) 0.4206(3)
O4 O 0.71621(9) 0.43377(12) 0.8383(2)
O5 O 0.72797(7) 0.48549(11) 0.6501(3)
O6 O 0.48456(7) 0.20802(11) 0.4293(3)
O7 O 0.70043(7) 0.16024(10) 0.9056(2)
O8 O 0.69625(7) 0.08858(11) 0.7363(2)
O9 O 0.19056(8) 0.49124(12) 0.4913(3)
H19 H 0.2025 0.5091 0.5746
H20 H 0.1666 0.4675 0.4979
O10 O 0.21677(8) 0.21487(11) 0.2816(2)
C33 C 0.43609(11) 0.41153(16) 0.8650(3)
H24 H 0.4571 0.3923 0.8161
C34 C 0.38544(10) 0.41855(15) 0.7952(3)
H25 H 0.3719 0.4037 0.6990
C35 C 0.35430(9) 0.44776(13) 0.8676(3)
C38 C 0.29948(10) 0.45718(14) 0.7876(3)
C39 C 0.46620(10) 0.19707(15) 0.9839(4)
C40 C 0.44468(11) 0.22513(16) 0.8498(3)
H28 H 0.4621 0.2560 0.8156
C41 C 0.39679(11) 0.20709(16) 0.7658(3)
H29 H 0.3818 0.2267 0.6758
C42 C 0.37109(10) 0.16058(14) 0.8138(3)
C43 C 0.39288(12) 0.13444(18) 0.9501(4)
H30 H 0.3754 0.1037 0.9849
C45 C 0.32153(10) 0.13606(15) 0.7189(3)
O14 O 0.28379(9) 0.43377(12) 0.6617(2)
O15 O 0.27203(7) 0.48549(11) 0.8499(3)
O17 O 0.29957(7) 0.16024(10) 0.5944(2)
O18 O 0.30375(7) 0.08858(11) 0.7637(2)
H32 H 0.7975 0.5091 0.9254
H34 H 0.3493 0.2814 0.9416
H37 H 0.2260 0.3662 0.9749
C48 C 0.26301(12) 0.31112(16) 0.8010(4)
H40 H 0.2302 0.3261 0.7605
N2 N 0.28434(11) 0.31966(13) 0.9445(3)
O20 O 0.28323(8) 0.28513(11) 0.7184(2)
Mn4 Mn 0.747068(14) 0.566595(19) 0.56100(4)
Mn5 Mn 0.252932(14) 0.566595(19) 0.93900(4)
Mn6 Mn 0.247068(14) 0.066595(19) 0.56100(4)
Mn7 Mn 0.752932(14) 0.066595(19) 0.93900(4)
Mn8_2 Mn 0.7500 0.2500 1.0000
O21 O 0.18738(7) 0.21908(10) 0.5689(2)
O22 O 0.27203(7) 0.51451(11) 0.3499(3)
O25 O 0.20043(7) 0.33976(10) 0.4056(2)
O27 O 0.19625(7) 0.41142(11) 0.2363(2)
C22 C 0.83455(16) 0.2023(2) 0.5153(4)
H12_2 H 0.8493 0.2186 0.4416
H13 H 0.8550 0.1688 0.5669
H14 H 0.8330 0.2344 0.5848
C23 C 0.75800(17) 0.1490(2) 0.5360(4)
H15_2 H 0.7260 0.1338 0.4749
H16 H 0.7522 0.1774 0.6083
H17 H 0.7782 0.1150 0.5860
C24_2 C 0.76301(12) 0.18888(16) 0.3010(4)
H18_2 H 0.7302 0.1739 0.2605
N1_2 N 0.78434(11) 0.18034(13) 0.4445(3)
O10_2 O 0.78323(8) 0.21487(11) 0.2184(2)
C46_2 C 0.66545(16) 0.2977(2) 0.4847(4)
H34_2 H 0.6507 0.2814 0.5584
H35_2 H 0.6450 0.3312 0.4331
H36_2 H 0.6670 0.2656 0.4152
C47_2 C 0.74200(17) 0.3510(2) 0.4640(4)
H37_2 H 0.7740 0.3662 0.5251
H38_2 H 0.7478 0.3226 0.3917
H39_2 H 0.7218 0.3850 0.4140
C48_2 C 0.73699(12) 0.31112(16) 0.6990(4)
H40_2 H 0.7698 0.3261 0.7395
N2_2 N 0.71566(11) 0.31966(13) 0.5555(3)
O20_2 O 0.71677(8) 0.28513(11) 0.7816(2)
O21_2 O 0.81262(7) 0.21908(10) 0.9311(2)
O23_2 O 0.22797(7) 0.01451(11) 0.1501(3)
H32_2 H 0.2975 0.0091 0.9254
C25_2 C 0.16567(9) 0.83018(14) 0.0797(3)
C26_2 C 0.11056(9) 0.82584(13) 0.0801(3)
C27_2 C 0.08740(9) 0.76874(14) 0.0747(3)
H21_2 H 0.1057 0.7326 0.0738
C28_2 C 0.03674(10) 0.76613(15) 0.0706(3)
C29_2 C 0.00918(10) 0.81848(15) 0.0730(3)
C30_2 C 0.03268(10) 0.87518(15) 0.0749(3)
C31_2 C 0.08330(9) 0.87929(14) 0.0797(3)
H23_2 H 0.0988 0.9177 0.0825
Mn3_2 Mn 0.247068(14) 0.933405(19) 0.06100(4)
O11_2 O 0.18738(7) 0.78092(10) 0.0689(2)
O12_2 O 0.18447(7) 0.88316(10) 0.0913(2)
O13_2 O 0.00758(7) 0.93006(11) 0.0794(3)
O16_2 O 0.01544(7) 0.70802(11) 0.0707(3)
O19_2 O 0.30944(8) 0.99124(12) 0.0087(3)
H33_2 H 0.3334 0.9675 0.0021
Mn8_3 Mn 0.2500 0.7500 0.0000
O24_2 O 0.29957(7) 0.83976(10) 0.0944(2)
O26_2 O 0.30375(7) 0.91142(11) 0.2637(2)
H2_2 H 0.0246 0.8161 0.4267
C8_2 C 0.04412(10) 0.93281(14) 0.4926(4)
C9_2 C 0.06391(11) 0.91153(16) 0.6350(3)
H4_2 H 0.0429 0.8923 0.6839
C10_2 C 0.11456(10) 0.91855(15) 0.7048(3)
H5_2 H 0.1281 0.9037 0.8010
C11_2 C 0.14570(9) 0.94776(13) 0.6324(3)
C12_2 C 0.12534(10) 0.96867(14) 0.4891(3)
H6_2 H 0.1462 0.9881 0.4399
C13_2 C 0.07433(10) 0.96102(14) 0.4177(3)
H7_2 H 0.0607 0.9748 0.3206
C14_2 C 0.20052(10) 0.95718(14) 0.7124(3)
C15_2 C 0.03380(10) 0.69707(15) 0.5161(4)
C16_2 C 0.05532(11) 0.72513(16) 0.6502(3)
H8_2 H 0.0379 0.7560 0.6844
C17_2 C 0.10321(11) 0.70709(16) 0.7342(3)
H9_2 H 0.1182 0.7267 0.8242
C18_2 C 0.12891(10) 0.66058(14) 0.6862(3)
C19_2 C 0.10712(12) 0.63444(18) 0.5499(4)
H10_2 H 0.1246 0.6037 0.5151
C20_2 C 0.05961(12) 0.65278(17) 0.4628(4)
H11_2 H 0.0456 0.6352 0.3696
C21_2 C 0.17847(10) 0.63606(15) 0.7811(3)
O4_2 O 0.21621(9) 0.93377(12) 0.8383(2)
O5_2 O 0.22797(7) 0.98549(11) 0.6501(3)
O7_2 O 0.20043(7) 0.66024(10) 0.9056(2)
O8_2 O 0.19625(7) 0.58858(11) 0.7363(2)
Mn8_4 Mn 0.2500 0.7500 1.0000
H19_2 H 0.7025 0.0091 0.5746
O22_2 O 0.77203(7) 0.01451(11) 0.3499(3)
C1_2 C 0.83433(9) 0.83018(14) 0.4203(3)
C2_2 C 0.88944(9) 0.82584(13) 0.4199(3)
C3_2 C 0.91260(9) 0.76874(14) 0.4253(3)
H1_2 H 0.8943 0.7326 0.4262
C4_2 C 0.96326(10) 0.76613(15) 0.4294(3)
C5_2 C 0.99082(10) 0.81848(15) 0.4270(3)
C6_2 C 0.96732(10) 0.87518(15) 0.4251(3)
C7_2 C 0.91670(9) 0.87929(14) 0.4203(3)
H3_2 H 0.9012 0.9177 0.4175
H12_3 H 0.6507 0.7186 0.0584
H15_3 H 0.7740 0.6338 0.0251
C24_3 C 0.73699(12) 0.68888(16) 0.1990(4)
H18_3 H 0.7698 0.6739 0.2395
Mn1_2 Mn 0.752932(14) 0.933405(19) 0.43900(4)
Mn2_2 Mn 0.7500 0.7500 0.5000
N1_3 N 0.71566(11) 0.68034(13) 0.0555(3)
O1_2 O 0.81262(7) 0.78092(10) 0.4311(2)
O2_2 O 0.81553(7) 0.88316(10) 0.4087(2)
O3_2 O 0.99242(7) 0.93006(11) 0.4206(3)
O6_2 O 0.98456(7) 0.70802(11) 0.4293(3)
O9_2 O 0.69056(8) 0.99124(12) 0.4913(3)
H20_2 H 0.6666 0.9675 0.4979
O10_3 O 0.71677(8) 0.71487(11) 0.2816(2)
C33_2 C 0.93609(11) 0.91153(16) 0.8650(3)
H24_2 H 0.9571 0.8923 0.8161
C34_2 C 0.88544(10) 0.91855(15) 0.7952(3)
H25_2 H 0.8719 0.9037 0.6990
C35_2 C 0.85430(9) 0.94776(13) 0.8676(3)
C38_2 C 0.79948(10) 0.95718(14) 0.7876(3)
C39_2 C 0.96620(10) 0.69707(15) 0.9839(4)
C40_2 C 0.94468(11) 0.72513(16) 0.8498(3)
H28_2 H 0.9621 0.7560 0.8156
C41_2 C 0.89679(11) 0.70709(16) 0.7658(3)
H29_2 H 0.8818 0.7267 0.6758
C42_2 C 0.87109(10) 0.66058(14) 0.8138(3)
C43_2 C 0.89288(12) 0.63444(18) 0.9501(4)
H30_2 H 0.8754 0.6037 0.9849
C45_2 C 0.82153(10) 0.63606(15) 0.7189(3)
O14_2 O 0.78379(9) 0.93377(12) 0.6617(2)
O15_2 O 0.77203(7) 0.98549(11) 0.8499(3)
O17_2 O 0.79957(7) 0.66024(10) 0.5944(2)
O18_2 O 0.80375(7) 0.58858(11) 0.7637(2)
H34_3 H 0.8493 0.7814 0.9416
H37_3 H 0.7260 0.8662 0.9749
C48_3 C 0.76301(12) 0.81112(16) 0.8010(4)
H40_3 H 0.7302 0.8261 0.7605
N2_3 N 0.78434(11) 0.81966(13) 0.9445(3)
O20_3 O 0.78323(8) 0.78513(11) 0.7184(2)
O21_3 O 0.68738(7) 0.71908(10) 0.5689(2)
O25_2 O 0.70043(7) 0.83976(10) 0.4056(2)
O27_2 O 0.69625(7) 0.91142(11) 0.2363(2)
C22_2 C 0.66545(16) 0.7023(2) 0.9847(4)
H13_2 H 0.6450 0.6688 0.9331
H14_2 H 0.6670 0.7344 0.9152
C23_2 C 0.74200(17) 0.6490(2) 0.9640(4)
H16_2 H 0.7478 0.6774 0.8917
H17_2 H 0.7218 0.6150 0.9140
C22_3 C 0.33455(16) 0.7023(2) 0.5153(4)
H12_4 H 0.3493 0.7186 0.4416
H13_3 H 0.3550 0.6688 0.5669
H14_3 H 0.3330 0.7344 0.5848
C23_3 C 0.25800(17) 0.6490(2) 0.5360(4)
H15_4 H 0.2260 0.6338 0.4749
H16_3 H 0.2522 0.6774 0.6083
H17_3 H 0.2782 0.6150 0.5860
C24_4 C 0.26301(12) 0.68888(16) 0.3010(4)
H18_4 H 0.2302 0.6739 0.2605
N1_4 N 0.28434(11) 0.68034(13) 0.4445(3)
O10_4 O 0.28323(8) 0.71487(11) 0.2184(2)
C46_3 C 0.16545(16) 0.7977(2) 0.4847(4)
H34_4 H 0.1507 0.7814 0.5584
H35_3 H 0.1450 0.8312 0.4331
H36_3 H 0.1670 0.7656 0.4152
C47_3 C 0.24200(17) 0.8510(2) 0.4640(4)
H37_4 H 0.2740 0.8662 0.5251
H38_3 H 0.2478 0.8226 0.3917
H39_3 H 0.2218 0.8850 0.4140
C48_4 C 0.23699(12) 0.81112(16) 0.6990(4)
H40_4 H 0.2698 0.8261 0.7395
N2_4 N 0.21566(11) 0.81966(13) 0.5555(3)
O20_4 O 0.21677(8) 0.78513(11) 0.7816(2)
O21_4 O 0.31262(7) 0.71908(10) 0.9311(2)
C1_3 C 0.66567(9) 0.66982(14) 0.5797(3)
C2_3 C 0.61056(9) 0.67416(13) 0.5801(3)
C3_3 C 0.58740(9) 0.73126(14) 0.5747(3)
H1_3 H 0.6057 0.7674 0.5738
C4_3 C 0.53674(10) 0.73387(15) 0.5706(3)
C5_3 C 0.50918(10) 0.68152(15) 0.5730(3)
H2_3 H 0.4754 0.6839 0.5733
C6_3 C 0.53268(10) 0.62482(15) 0.5749(3)
C7_3 C 0.58330(9) 0.62071(14) 0.5797(3)
H3_3 H 0.5988 0.5823 0.5825
C8_3 C 0.45588(10) 0.56719(14) 0.5074(4)
C9_3 C 0.43609(11) 0.58847(16) 0.3650(3)
H4_3 H 0.4571 0.6077 0.3161
C10_3 C 0.38544(10) 0.58145(15) 0.2952(3)
H5_3 H 0.3719 0.5963 0.1990
C11_3 C 0.35430(9) 0.55224(13) 0.3676(3)
C12_3 C 0.37466(10) 0.53133(14) 0.5109(3)
H6_3 H 0.3538 0.5119 0.5601
C13_3 C 0.42567(10) 0.53898(14) 0.5823(3)
H7_3 H 0.4393 0.5252 0.6794
C14_3 C 0.29948(10) 0.54282(14) 0.2876(3)
C15_3 C 0.46620(10) 0.80293(15) 0.4839(4)
C16_3 C 0.44468(11) 0.77487(16) 0.3498(3)
H8_3 H 0.4621 0.7440 0.3156
C17_3 C 0.39679(11) 0.79291(16) 0.2658(3)
H9_3 H 0.3818 0.7733 0.1758
C18_3 C 0.37109(10) 0.83942(14) 0.3138(3)
C19_3 C 0.39288(12) 0.86556(18) 0.4501(4)
H10_3 H 0.3754 0.8963 0.4849
C20_3 C 0.44039(12) 0.84722(17) 0.5372(4)
H11_3 H 0.4544 0.8648 0.6304
C21_3 C 0.32153(10) 0.86394(15) 0.2189(3)
O2_3 O 0.68447(7) 0.61684(10) 0.5913(2)
O3_3 O 0.50758(7) 0.56994(11) 0.5794(3)
O4_3 O 0.28379(9) 0.56623(12) 0.1617(2)
O6_3 O 0.51544(7) 0.79198(11) 0.5707(3)
O9_3 O 0.80944(8) 0.50876(12) 0.5087(3)
H19_3 H 0.7975 0.4909 0.4254
H20_3 H 0.8334 0.5325 0.5021
C33_3 C 0.56391(11) 0.58847(16) 0.1350(3)
H24_3 H 0.5429 0.6077 0.1839
C34_3 C 0.61456(10) 0.58145(15) 0.2048(3)
H25_3 H 0.6281 0.5963 0.3010
C35_3 C 0.64570(9) 0.55224(13) 0.1324(3)
C38_3 C 0.70052(10) 0.54282(14) 0.2124(3)
C39_3 C 0.53380(10) 0.80293(15) 0.0161(4)
C40_3 C 0.55532(11) 0.77487(16) 0.1502(3)
H28_3 H 0.5379 0.7440 0.1844
C41_3 C 0.60321(11) 0.79291(16) 0.2342(3)
H29_3 H 0.6182 0.7733 0.3242
C42_3 C 0.62891(10) 0.83942(14) 0.1862(3)
C43_3 C 0.60712(12) 0.86556(18) 0.0499(4)
H30_3 H 0.6246 0.8963 0.0151
C45_3 C 0.67847(10) 0.86394(15) 0.2811(3)
O14_3 O 0.71621(9) 0.56623(12) 0.3383(2)
H32_3 H 0.2025 0.4909 0.0746
C25_3 C 0.33433(9) 0.66982(14) 0.9203(3)
C26_3 C 0.38944(9) 0.67416(13) 0.9199(3)
C27_3 C 0.41260(9) 0.73126(14) 0.9253(3)
H21_3 H 0.3943 0.7674 0.9262
C28_3 C 0.46326(10) 0.73387(15) 0.9294(3)
C29_3 C 0.49082(10) 0.68152(15) 0.9270(3)
H22_2 H 0.5246 0.6839 0.9267
C30_3 C 0.46732(10) 0.62482(15) 0.9251(3)
C31_3 C 0.41670(9) 0.62071(14) 0.9203(3)
H23_3 H 0.4012 0.5823 0.9175
C32_2 C 0.54412(10) 0.56719(14) 0.9926(4)
C36_2 C 0.62534(10) 0.53133(14) 0.9891(3)
H26_2 H 0.6462 0.5119 0.9399
C37_2 C 0.57433(10) 0.53898(14) 0.9177(3)
H27_2 H 0.5607 0.5252 0.8206
C44_2 C 0.55961(12) 0.84722(17) 0.9628(4)
H31_2 H 0.5456 0.8648 0.8696
O12_3 O 0.31553(7) 0.61684(10) 0.9087(2)
O13_3 O 0.49242(7) 0.56994(11) 0.9206(3)
O16_3 O 0.48456(7) 0.79198(11) 0.9293(3)
O19_3 O 0.19056(8) 0.50876(12) 0.9913(3)
H33_3 H 0.1666 0.5325 0.9979
C1_4 C 0.16567(9) 0.16982(14) 0.5797(3)
C2_4 C 0.11056(9) 0.17416(13) 0.5801(3)
C3_4 C 0.08740(9) 0.23126(14) 0.5747(3)
H1_4 H 0.1057 0.2674 0.5738
C4_4 C 0.03674(10) 0.23387(15) 0.5706(3)
C5_4 C 0.00918(10) 0.18152(15) 0.5730(3)
C6_4 C 0.03268(10) 0.12482(15) 0.5749(3)
C7_4 C 0.08330(9) 0.12071(14) 0.5797(3)
H3_4 H 0.0988 0.0823 0.5825
O2_4 O 0.18447(7) 0.11684(10) 0.5913(2)
O3_4 O 0.00758(7) 0.06994(11) 0.5794(3)
O6_4 O 0.01544(7) 0.29198(11) 0.5707(3)
O9_4 O 0.30944(8) 0.00876(12) 0.5087(3)
H20_4 H 0.3334 0.0325 0.5021
C33_4 C 0.06391(11) 0.08847(16) 0.1350(3)
H24_4 H 0.0429 0.1077 0.1839
C34_4 C 0.11456(10) 0.08145(15) 0.2048(3)
H25_4 H 0.1281 0.0963 0.3010
C35_4 C 0.14570(9) 0.05224(13) 0.1324(3)
C38_4 C 0.20052(10) 0.04282(14) 0.2124(3)
C39_4 C 0.03380(10) 0.30293(15) 0.0161(4)
C40_4 C 0.05532(11) 0.27487(16) 0.1502(3)
H28_4 H 0.0379 0.2440 0.1844
C41_4 C 0.10321(11) 0.29291(16) 0.2342(3)
H29_4 H 0.1182 0.2733 0.3242
C42_4 C 0.12891(10) 0.33942(14) 0.1862(3)
C43_4 C 0.10712(12) 0.36556(18) 0.0499(4)
H30_4 H 0.1246 0.3963 0.0151
C45_4 C 0.17847(10) 0.36394(15) 0.2811(3)
O14_4 O 0.21621(9) 0.06623(12) 0.3383(2)
H19_4 H 0.2975 0.9909 0.4254
H2_4 H 0.9754 0.1839 0.5733
C8_4 C 0.95588(10) 0.06719(14) 0.5074(4)
C9_4 C 0.93609(11) 0.08847(16) 0.3650(3)
H4_4 H 0.9571 0.1077 0.3161
C10_4 C 0.88544(10) 0.08145(15) 0.2952(3)
H5_4 H 0.8719 0.0963 0.1990
C11_4 C 0.85430(9) 0.05224(13) 0.3676(3)
C12_4 C 0.87466(10) 0.03133(14) 0.5109(3)
H6_4 H 0.8538 0.0119 0.5601
C13_4 C 0.92567(10) 0.03898(14) 0.5823(3)
H7_4 H 0.9393 0.0252 0.6794
C14_4 C 0.79948(10) 0.04282(14) 0.2876(3)
C15_4 C 0.96620(10) 0.30293(15) 0.4839(4)
C16_4 C 0.94468(11) 0.27487(16) 0.3498(3)
H8_4 H 0.9621 0.2440 0.3156
C17_4 C 0.89679(11) 0.29291(16) 0.2658(3)
H9_4 H 0.8818 0.2733 0.1758
C18_4 C 0.87109(10) 0.33942(14) 0.3138(3)
C19_4 C 0.89288(12) 0.36556(18) 0.4501(4)
H10_4 H 0.8754 0.3963 0.4849
C20_4 C 0.94039(12) 0.34722(17) 0.5372(4)
H11_4 H 0.9544 0.3648 0.6304
C21_4 C 0.82153(10) 0.36394(15) 0.2189(3)
O4_4 O 0.78379(9) 0.06623(12) 0.1617(2)
C25_4 C 0.83433(9) 0.16982(14) 0.9203(3)
C26_4 C 0.88944(9) 0.17416(13) 0.9199(3)
C27_4 C 0.91260(9) 0.23126(14) 0.9253(3)
H21_4 H 0.8943 0.2674 0.9262
C28_4 C 0.96326(10) 0.23387(15) 0.9294(3)
C29_4 C 0.99082(10) 0.18152(15) 0.9270(3)
C30_4 C 0.96732(10) 0.12482(15) 0.9251(3)
C31_4 C 0.91670(9) 0.12071(14) 0.9203(3)
H23_4 H 0.9012 0.0823 0.9175
O12_4 O 0.81553(7) 0.11684(10) 0.9087(2)
O13_4 O 0.99242(7) 0.06994(11) 0.9206(3)
O16_4 O 0.98456(7) 0.29198(11) 0.9293(3)
O19_4 O 0.69056(8) 0.00876(12) 0.9913(3)
H33_4 H 0.6666 0.0325 0.9979
H32_4 H 0.7025 0.9909 0.0746
C22_4 C 0.16545(16) 0.2023(2) 0.9847(4)
H13_4 H 0.1450 0.1688 0.9331
H14_4 H 0.1670 0.2344 0.9152
C23_4 C 0.24200(17) 0.1490(2) 0.9640(4)
H16_4 H 0.2478 0.1774 0.8917
H17_4 H 0.2218 0.1150 0.9140
H22_3 H 0.0246 0.1839 0.9267
C32_3 C 0.04412(10) 0.06719(14) 0.9926(4)
C36_3 C 0.12534(10) 0.03133(14) 0.9891(3)
H26_3 H 0.1462 0.0119 0.9399
C37_3 C 0.07433(10) 0.03898(14) 0.9177(3)
H27_3 H 0.0607 0.0252 0.8206
C44_3 C 0.05961(12) 0.34722(17) 0.9628(4)
H31_3 H 0.0456 0.3648 0.8696
H22_4 H 0.9754 0.8161 0.0733
C32_4 C 0.95588(10) 0.93281(14) 0.0074(4)
C36_4 C 0.87466(10) 0.96867(14) 0.0109(3)
H26_4 H 0.8538 0.9881 0.0601
C37_4 C 0.92567(10) 0.96102(14) 0.0823(3)
H27_4 H 0.9393 0.9748 0.1794
C44_4 C 0.94039(12) 0.65278(17) 0.0372(4)
H31_4 H 0.9544 0.6352 0.1304
C46_4 C 0.83455(16) 0.7977(2) 0.0153(4)
H35_4 H 0.8550 0.8312 0.0669
H36_4 H 0.8330 0.7656 0.0848
C47_4 C 0.75800(17) 0.8510(2) 0.0360(4)
H38_4 H 0.7522 0.8226 0.1083
H39_4 H 0.7782 0.8850 0.0860
loop_
_geom_bond_atom_site_label_1
_geom_bond_atom_site_label_2
_geom_bond_site_symmetry_1
_geom_bond_site_symmetry_2
C25 C26 1_555 1_555
C26 C27 1_555 1_555
C27 H21 1_555 1_555
C28 C27 1_555 1_555
C29 C28 1_555 1_555
H22 C29 1_555 1_555
C30 C29 1_555 1_555
C31 C26 1_555 1_555
H23 C31 1_555 1_555
H26 C36 1_555 1_555
C37 C32 1_555 1_555
H27 C37 1_555 1_555
H31 C44 1_555 1_555
O11 C25 1_555 1_555
O12 C25 1_555 1_555
O13 C30 1_555 1_555
O16 C28 1_555 1_555
O19 Mn3 1_555 1_555
H33 O19 1_555 1_555
H35 C46 1_555 1_555
H36 C46 1_555 1_555
H38 C47 1_555 1_555
H39 C47 1_555 1_555
O23 Mn3 1_555 1_555
O24 Mn3 1_555 1_555
O26 Mn3 1_555 1_555
C30 C31 1_555 1_555
C32 O13 1_555 1_555
C36 C37 1_555 1_555
Mn3 O12 1_555 1_555
O11 Mn8 1_555 1_555
Mn8 O24 1_555 1_555
C1 C2 1_555 1_555
C2 C3 1_555 1_555
C3 H1 1_555 1_555
C4 C3 1_555 1_555
C5 C4 1_555 1_555
H2 C5 1_555 1_555
C6 C5 1_555 1_555
C7 C2 1_555 1_555
H3 C7 1_555 1_555
C8 C9 1_555 1_555
C9 H4 1_555 1_555
C10 C9 1_555 1_555
H5 C10 1_555 1_555
C11 C10 1_555 1_555
C12 C11 1_555 1_555
H6 C12 1_555 1_555
C13 C8 1_555 1_555
H7 C13 1_555 1_555
C14 C11 1_555 1_555
C15 C16 1_555 1_555
C16 H8 1_555 1_555
C17 C16 1_555 1_555
H9 C17 1_555 1_555
C18 C17 1_555 1_555
C19 C18 1_555 1_555
H10 C19 1_555 1_555
C20 C15 1_555 1_555
H11 C20 1_555 1_555
C21 C18 1_555 1_555
C24 H18 1_555 1_555
Mn1 O2 1_555 1_555
Mn2 O1 1_555 1_555
O1 C1 1_555 1_555
O2 C1 1_555 1_555
O3 C6 1_555 1_555
O4 C14 1_555 1_555
O5 C14 1_555 1_555
O6 C4 1_555 1_555
O7 C21 1_555 1_555
O8 C21 1_555 1_555
O9 Mn1 1_555 1_555
H19 O9 1_555 1_555
H20 O9 1_555 1_555
O10 C24 1_555 1_555
C33 H24 1_555 1_555
C34 C33 1_555 1_555
H25 C34 1_555 1_555
C35 C34 1_555 1_555
C38 C35 1_555 1_555
C39 C40 1_555 1_555
C40 H28 1_555 1_555
C41 C40 1_555 1_555
H29 C41 1_555 1_555
C42 C41 1_555 1_555
C43 C42 1_555 1_555
H30 C43 1_555 1_555
C45 C42 1_555 1_555
O14 Mn1 1_555 1_555
O15 C38 1_555 1_555
O17 Mn2 1_555 1_555
O18 C45 1_555 1_555
C48 H40 1_555 1_555
O20 Mn2 1_555 1_555
Mn4 O5 1_555 1_555
Mn5 O15 1_555 1_555
Mn6 O17 1_555 1_555
Mn7 O7 1_555 1_555
Mn8_2 O7 1_555 1_555
O21 Mn2 1_555 1_555
O22 Mn1 1_555 1_555
O25 Mn1 1_555 1_555
O27 Mn1 1_555 1_555
C6 C7 1_555 1_555
C8 O3 1_555 1_555
C12 C13 1_555 1_555
C15 O6 1_555 1_555
C19 C20 1_555 1_555
C24 N1 1_555 1_555
Mn2 O10 1_555 1_555
Mn2 O25 1_555 1_555
O8 Mn7 1_555 1_555
C38 O14 1_555 1_555
C45 O17 1_555 1_555
O18 Mn6 1_555 1_555
C48 N2 1_555 1_555
C48 O20 1_555 1_555
C22 H12_2 1_555 1_555
H13 C22 1_555 1_555
H14 C22 1_555 1_555
C23 H15_2 1_555 1_555
H16 C23 1_555 1_555
H17 C23 1_555 1_555
C24_2 H18_2 1_555 1_555
N1_2 C22 1_555 1_555
O10_2 C24_2 1_555 1_555
C23 N1_2 1_555 1_555
C24_2 N1_2 1_555 1_555
Mn8 O10_2 1_555 1_555
C46_2 H34_2 1_555 1_555
H35_2 C46_2 1_555 1_555
H36_2 C46_2 1_555 1_555
C47_2 H37_2 1_555 1_555
H38_2 C47_2 1_555 1_555
H39_2 C47_2 1_555 1_555
C48_2 H40_2 1_555 1_555
N2_2 C46_2 1_555 1_555
O20_2 Mn8_2 1_555 1_555
O21_2 Mn8_2 1_555 1_555
C47_2 N2_2 1_555 1_555
C48_2 N2_2 1_555 1_555
C48_2 O20_2 1_555 1_555
C25_2 C26_2 1_555 1_555
C26_2 C27_2 1_555 1_555
C27_2 H21_2 1_555 1_555
C28_2 C27_2 1_555 1_555
C29_2 C28_2 1_555 1_555
C30_2 C29_2 1_555 1_555
C31_2 C26_2 1_555 1_555
H23_2 C31_2 1_555 1_555
O11_2 C25_2 1_555 1_555
O12_2 C25_2 1_555 1_555
O13_2 C30_2 1_555 1_555
O16_2 C28_2 1_555 1_555
O19_2 Mn3_2 1_555 1_555
H33_2 O19_2 1_555 1_555
O24_2 Mn3_2 1_555 1_555
O26_2 Mn3_2 1_555 1_555
C30_2 C31_2 1_555 1_555
Mn3_2 O12_2 1_555 1_555
O11_2 Mn8_3 1_555 1_555
Mn8_3 O24_2 1_555 1_555
C8_2 C9_2 1_555 1_555
C9_2 H4_2 1_555 1_555
C10_2 C9_2 1_555 1_555
H5_2 C10_2 1_555 1_555
C11_2 C10_2 1_555 1_555
C12_2 C11_2 1_555 1_555
H6_2 C12_2 1_555 1_555
C13_2 C8_2 1_555 1_555
H7_2 C13_2 1_555 1_555
C14_2 C11_2 1_555 1_555
C15_2 C16_2 1_555 1_555
C16_2 H8_2 1_555 1_555
C17_2 C16_2 1_555 1_555
H9_2 C17_2 1_555 1_555
C18_2 C17_2 1_555 1_555
C19_2 C18_2 1_555 1_555
H10_2 C19_2 1_555 1_555
C20_2 C15_2 1_555 1_555
H11_2 C20_2 1_555 1_555
C21_2 C18_2 1_555 1_555
O4_2 C14_2 1_555 1_555
O5_2 C14_2 1_555 1_555
O7_2 C21_2 1_555 1_555
O8_2 C21_2 1_555 1_555
Mn5 O7_2 1_555 1_555
Mn8_4 O7_2 1_555 1_555
C12_2 C13_2 1_555 1_555
C19_2 C20_2 1_555 1_555
O8_2 Mn5 1_555 1_555
C1_2 C2_2 1_555 1_555
C2_2 C3_2 1_555 1_555
C3_2 H1_2 1_555 1_555
C4_2 C3_2 1_555 1_555
C5_2 C4_2 1_555 1_555
C6_2 C5_2 1_555 1_555
C7_2 C2_2 1_555 1_555
H3_2 C7_2 1_555 1_555
C24_3 H18_3 1_555 1_555
Mn1_2 O2_2 1_555 1_555
Mn2_2 O1_2 1_555 1_555
O1_2 C1_2 1_555 1_555
O2_2 C1_2 1_555 1_555
O3_2 C6_2 1_555 1_555
O6_2 C4_2 1_555 1_555
O9_2 Mn1_2 1_555 1_555
H20_2 O9_2 1_555 1_555
O10_3 C24_3 1_555 1_555
C33_2 H24_2 1_555 1_555
C34_2 C33_2 1_555 1_555
H25_2 C34_2 1_555 1_555
C35_2 C34_2 1_555 1_555
C38_2 C35_2 1_555 1_555
C39_2 C40_2 1_555 1_555
C40_2 H28_2 1_555 1_555
C41_2 C40_2 1_555 1_555
H29_2 C41_2 1_555 1_555
C42_2 C41_2 1_555 1_555
C43_2 C42_2 1_555 1_555
H30_2 C43_2 1_555 1_555
C45_2 C42_2 1_555 1_555
O14_2 Mn1_2 1_555 1_555
O15_2 C38_2 1_555 1_555
O17_2 Mn2_2 1_555 1_555
O18_2 C45_2 1_555 1_555
C48_3 H40_3 1_555 1_555
O20_3 Mn2_2 1_555 1_555
Mn4 O17_2 1_555 1_555
O21_3 Mn2_2 1_555 1_555
O25_2 Mn1_2 1_555 1_555
O27_2 Mn1_2 1_555 1_555
C6_2 C7_2 1_555 1_555
C24_3 N1_3 1_555 1_555
Mn2_2 O10_3 1_555 1_555
Mn2_2 O25_2 1_555 1_555
C38_2 O14_2 1_555 1_555
C45_2 O17_2 1_555 1_555
O18_2 Mn4 1_555 1_555
C48_3 N2_3 1_555 1_555
C48_3 O20_3 1_555 1_555
H13_2 C22_2 1_555 1_555
H14_2 C22_2 1_555 1_555
H16_2 C23_2 1_555 1_555
H17_2 C23_2 1_555 1_555
C22_3 H12_4 1_555 1_555
H13_3 C22_3 1_555 1_555
H14_3 C22_3 1_555 1_555
C23_3 H15_4 1_555 1_555
H16_3 C23_3 1_555 1_555
H17_3 C23_3 1_555 1_555
C24_4 H18_4 1_555 1_555
N1_4 C22_3 1_555 1_555
O10_4 C24_4 1_555 1_555
C23_3 N1_4 1_555 1_555
C24_4 N1_4 1_555 1_555
Mn8_3 O10_4 1_555 1_555
C46_3 H34_4 1_555 1_555
H35_3 C46_3 1_555 1_555
H36_3 C46_3 1_555 1_555
C47_3 H37_4 1_555 1_555
H38_3 C47_3 1_555 1_555
H39_3 C47_3 1_555 1_555
C48_4 H40_4 1_555 1_555
N2_4 C46_3 1_555 1_555
O20_4 Mn8_4 1_555 1_555
O21_4 Mn8_4 1_555 1_555
C47_3 N2_4 1_555 1_555
C48_4 N2_4 1_555 1_555
C48_4 O20_4 1_555 1_555
C1_3 C2_3 1_555 1_555
C2_3 C3_3 1_555 1_555
C3_3 H1_3 1_555 1_555
C4_3 C3_3 1_555 1_555
C5_3 C4_3 1_555 1_555
H2_3 C5_3 1_555 1_555
C6_3 C5_3 1_555 1_555
C7_3 C2_3 1_555 1_555
H3_3 C7_3 1_555 1_555
C8_3 C9_3 1_555 1_555
C9_3 H4_3 1_555 1_555
C10_3 C9_3 1_555 1_555
H5_3 C10_3 1_555 1_555
C11_3 C10_3 1_555 1_555
C12_3 C11_3 1_555 1_555
H6_3 C12_3 1_555 1_555
C13_3 C8_3 1_555 1_555
H7_3 C13_3 1_555 1_555
C14_3 C11_3 1_555 1_555
C15_3 C16_3 1_555 1_555
C16_3 H8_3 1_555 1_555
C17_3 C16_3 1_555 1_555
H9_3 C17_3 1_555 1_555
C18_3 C17_3 1_555 1_555
C19_3 C18_3 1_555 1_555
H10_3 C19_3 1_555 1_555
C20_3 C15_3 1_555 1_555
H11_3 C20_3 1_555 1_555
C21_3 C18_3 1_555 1_555
Mn4 O2_3 1_555 1_555
O21_3 C1_3 1_555 1_555
O2_3 C1_3 1_555 1_555
O3_3 C6_3 1_555 1_555
O4_3 C14_3 1_555 1_555
O22 C14_3 1_555 1_555
O6_3 C4_3 1_555 1_555
O24_2 C21_3 1_555 1_555
O26_2 C21_3 1_555 1_555
O9_3 Mn4 1_555 1_555
H19_3 O9_3 1_555 1_555
H20_3 O9_3 1_555 1_555
C33_3 H24_3 1_555 1_555
C34_3 C33_3 1_555 1_555
H25_3 C34_3 1_555 1_555
C35_3 C34_3 1_555 1_555
C38_3 C35_3 1_555 1_555
C39_3 C40_3 1_555 1_555
C40_3 H28_3 1_555 1_555
C41_3 C40_3 1_555 1_555
H29_3 C41_3 1_555 1_555
C42_3 C41_3 1_555 1_555
C43_3 C42_3 1_555 1_555
H30_3 C43_3 1_555 1_555
C45_3 C42_3 1_555 1_555
O14_3 Mn4 1_555 1_555
O23 C38_3 1_555 1_555
O27_2 C45_3 1_555 1_555
C6_3 C7_3 1_555 1_555
C8_3 O3_3 1_555 1_555
C12_3 C13_3 1_555 1_555
C15_3 O6_3 1_555 1_555
C19_3 C20_3 1_555 1_555
C38_3 O14_3 1_555 1_555
C45_3 O25_2 1_555 1_555
C25_3 C26_3 1_555 1_555
C26_3 C27_3 1_555 1_555
C27_3 H21_3 1_555 1_555
C28_3 C27_3 1_555 1_555
C29_3 C28_3 1_555 1_555
H22_2 C29_3 1_555 1_555
C30_3 C29_3 1_555 1_555
C31_3 C26_3 1_555 1_555
H23_3 C31_3 1_555 1_555
H26_2 C36_2 1_555 1_555
C37_2 C32_2 1_555 1_555
H27_2 C37_2 1_555 1_555
H31_2 C44_2 1_555 1_555
O21_4 C25_3 1_555 1_555
O12_3 C25_3 1_555 1_555
O13_3 C30_3 1_555 1_555
O16_3 C28_3 1_555 1_555
O19_3 Mn5 1_555 1_555
H33_3 O19_3 1_555 1_555
C30_3 C31_3 1_555 1_555
C32_2 O13_3 1_555 1_555
C36_2 C37_2 1_555 1_555
Mn5 O12_3 1_555 1_555
C1_4 C2_4 1_555 1_555
C2_4 C3_4 1_555 1_555
C3_4 H1_4 1_555 1_555
C4_4 C3_4 1_555 1_555
C5_4 C4_4 1_555 1_555
C6_4 C5_4 1_555 1_555
C7_4 C2_4 1_555 1_555
H3_4 C7_4 1_555 1_555
Mn6 O2_4 1_555 1_555
O21 C1_4 1_555 1_555
O2_4 C1_4 1_555 1_555
O3_4 C6_4 1_555 1_555
O6_4 C4_4 1_555 1_555
O9_4 Mn6 1_555 1_555
H20_4 O9_4 1_555 1_555
C33_4 H24_4 1_555 1_555
C34_4 C33_4 1_555 1_555
H25_4 C34_4 1_555 1_555
C35_4 C34_4 1_555 1_555
C38_4 C35_4 1_555 1_555
C39_4 C40_4 1_555 1_555
C40_4 H28_4 1_555 1_555
C41_4 C40_4 1_555 1_555
H29_4 C41_4 1_555 1_555
C42_4 C41_4 1_555 1_555
C43_4 C42_4 1_555 1_555
H30_4 C43_4 1_555 1_555
C45_4 C42_4 1_555 1_555
O14_4 Mn6 1_555 1_555
O23_2 C38_4 1_555 1_555
O27 C45_4 1_555 1_555
C6_4 C7_4 1_555 1_555
C38_4 O14_4 1_555 1_555
C45_4 O25 1_555 1_555
C8_4 C9_4 1_555 1_555
C9_4 H4_4 1_555 1_555
C10_4 C9_4 1_555 1_555
H5_4 C10_4 1_555 1_555
C11_4 C10_4 1_555 1_555
C12_4 C11_4 1_555 1_555
H6_4 C12_4 1_555 1_555
C13_4 C8_4 1_555 1_555
H7_4 C13_4 1_555 1_555
C14_4 C11_4 1_555 1_555
C15_4 C16_4 1_555 1_555
C16_4 H8_4 1_555 1_555
C17_4 C16_4 1_555 1_555
H9_4 C17_4 1_555 1_555
C18_4 C17_4 1_555 1_555
C19_4 C18_4 1_555 1_555
H10_4 C19_4 1_555 1_555
C20_4 C15_4 1_555 1_555
H11_4 C20_4 1_555 1_555
C21_4 C18_4 1_555 1_555
O4_4 C14_4 1_555 1_555
O22_2 C14_4 1_555 1_555
O24 C21_4 1_555 1_555
O26 C21_4 1_555 1_555
C12_4 C13_4 1_555 1_555
C19_4 C20_4 1_555 1_555
C25_4 C26_4 1_555 1_555
C26_4 C27_4 1_555 1_555
C27_4 H21_4 1_555 1_555
C28_4 C27_4 1_555 1_555
C29_4 C28_4 1_555 1_555
C30_4 C29_4 1_555 1_555
C31_4 C26_4 1_555 1_555
H23_4 C31_4 1_555 1_555
O21_2 C25_4 1_555 1_555
O12_4 C25_4 1_555 1_555
O13_4 C30_4 1_555 1_555
O16_4 C28_4 1_555 1_555
O19_4 Mn7 1_555 1_555
H33_4 O19_4 1_555 1_555
C30_4 C31_4 1_555 1_555
Mn7 O12_4 1_555 1_555
H13_4 C22_4 1_555 1_555
H14_4 C22_4 1_555 1_555
H16_4 C23_4 1_555 1_555
H17_4 C23_4 1_555 1_555
H26_3 C36_3 1_555 1_555
C37_3 C32_3 1_555 1_555
H27_3 C37_3 1_555 1_555
H31_3 C44_3 1_555 1_555
C36_3 C37_3 1_555 1_555
H26_4 C36_4 1_555 1_555
C37_4 C32_4 1_555 1_555
H27_4 C37_4 1_555 1_555
H31_4 C44_4 1_555 1_555
H35_4 C46_4 1_555 1_555
H36_4 C46_4 1_555 1_555
H38_4 C47_4 1_555 1_555
H39_4 C47_4 1_555 1_555
C36_4 C37_4 1_555 1_555

#END
