
###############################################################################
#
# This file contains modified crystal structure data generated from the
# MOF subset of the Cambridge Structural Database (CSD) v543 
# hosted by the Cambridge Crystallographic Data Centre (CCDC).
#
# This work is licensed under the Creative Commons
# Attribution-NonCommercial-ShareAlike 4.0 International License.
# To view a copy of this license, visit
# http://creativecommons.org/licenses/by-nc-sa/4.0/
# or send a letter to
# Creative Commons, PO Box 1866, Mountain View, CA 94042, USA.
#
# CIF created using the CSD Python API on 29 September 2022
# The structure has been converted into the P1 space group
# The structure has a 3D framework
# The original CSD entry MICJUG is in the monoclinic crystal system
# The framework has been calculated to contain at least 10.0% void space
# The void calculation uses a probe of radius 1.32A, grid spacing 0.4
#
###############################################################################

data_MICJUG
_chemical_formula_moiety         '(C168 H112 La4 N4 O27 S12)n'
_symmetry_cell_setting           triclinic
_symmetry_space_group_name_H-M   'P 1'
_symmetry_Int_Tables_number      1
_space_group_name_Hall           'P 1'
loop_
_symmetry_equiv_pos_site_id
_symmetry_equiv_pos_as_xyz
1 x,y,z
_cell_length_a                   33.874(4)
_cell_length_b                   23.723(2)
_cell_length_c                   8.1115(10)
_cell_angle_alpha                90
_cell_angle_beta                 102.413(6)
_cell_angle_gamma                90
_cell_volume                     6365.97
loop_
_atom_site_label
_atom_site_type_symbol
_atom_site_fract_x
_atom_site_fract_y
_atom_site_fract_z
La2 La 0.327118(17) 0.010311(15) 0.50688(3)
C1 C 0.4624(3) 0.4534(4) 0.0347(12)
C2 C 0.4334(3) 0.4876(3) 0.0714(14)
H1 H 0.4107 0.4715 0.1025
C3 C 0.4363(3) 0.5464(4) 0.0641(12)
C4 C 0.4725(3) 0.5684(4) 0.0194(13)
H2 H 0.4763 0.6077 0.0171
C7 C 0.4573(3) 0.3910(4) 0.0396(13)
S1 S 0.42229(8) 0.36051(10) 0.1338(4)
C8 C 0.4387(3) 0.2929(4) 0.0989(13)
C9 C 0.4677(3) 0.2950(4) 0.0174(16)
C11 C 0.4162(3) 0.2435(4) 0.1508(12)
C12 C 0.4291(3) 0.1886(4) 0.1289(14)
H6 H 0.4518 0.1828 0.0816
C13 C 0.4092(3) 0.1431(4) 0.1750(14)
H7 H 0.4184 0.1066 0.1584
C14 C 0.3766(3) 0.1501(4) 0.2441(11)
C15 C 0.3649(4) 0.2048(4) 0.2727(14)
H8 H 0.3440 0.2105 0.3305
C16 C 0.3833(3) 0.2506(4) 0.2181(15)
H9 H 0.3731 0.2870 0.2276
C17 C 0.3537(2) 0.1015(4) 0.3011(10)
O1 O 0.3312(2) 0.1097(3) 0.4015(8)
O2 O 0.35938(19) 0.0522(2) 0.2438(7)
C18 C 0.4062(3) 0.5844(3) 0.1085(12)
S2 S 0.41043(8) 0.65635(9) 0.0977(4)
C19 C 0.3677(3) 0.6685(4) 0.1798(13)
C20 C 0.3550(4) 0.6178(5) 0.223(2)
H10 H 0.3342 0.6149 0.2828
C21 C 0.3733(4) 0.5715(4) 0.1783(17)
H11 H 0.3646 0.5345 0.1926
C22 C 0.3565(3) 0.7277(4) 0.2150(13)
C23 C 0.3230(3) 0.7376(4) 0.2799(15)
H12 H 0.3071 0.7067 0.2983
C24 C 0.3116(4) 0.7909(4) 0.3197(14)
H13 H 0.2879 0.7973 0.3589
C25 C 0.3386(3) 0.8364(3) 0.2973(10)
C26 C 0.3710(3) 0.8262(4) 0.2338(13)
H14 H 0.3876 0.8565 0.2171
C27 C 0.3807(3) 0.7729(4) 0.1923(13)
H15 H 0.4039 0.7668 0.1483
C28 C 0.3289(3) 0.8962(3) 0.3514(11)
O3 O 0.34825(18) 0.9365(2) 0.2974(7)
O4 O 0.30385(19) 0.9038(3) 0.4409(8)
O7 O 0.40373(19) 0.0271(4) 0.5772(9)
C40 C 0.4256(3) 0.0281(5) 0.7209(13)
H22 H 0.4180 0.0069 0.8069
N1 N 0.4599(3) 0.0588(5) 0.7577(14)
C41 C 0.4857(4) 0.0578(7) 0.9304(17)
H24 H 0.4934 0.0960 0.9661
H25 H 0.5097 0.0356 0.9304
C42 C 0.4714(5) 0.0939(8) 0.6236(19)
H26 H 0.4993 0.0862 0.6193
H27 H 0.4685 0.1334 0.6487
H28 H 0.4540 0.0848 0.5155
La4 La 0.327118(17) 0.989689(15) 0.00688(3)
La6 La 0.827118(17) 0.489689(15) 0.00688(3)
O10 O 0.34825(18) 0.0635(2) 0.7974(7)
O13 O 0.2766(2) 0.0073(2) 0.2173(9)
O14 O 0.26573(19) 0.0676(3) 0.5507(8)
C5 C 0.5006(3) 0.5345(4) 0.9815(11)
C6 C 0.4961(3) 0.4767(4) 0.9887(14)
H3 H 0.5160 0.4529 0.9622
H4 H 0.4799 0.2626 0.9840
C10 C 0.4790(4) 0.3491(4) 0.9840(17)
H5 H 0.4999 0.3565 0.9274
C29 C 0.5367(2) 0.5584(4) 0.9268(12)
S3 S 0.57721(8) 0.51677(10) 0.9145(4)
C30 C 0.6006(3) 0.5709(4) 0.8337(12)
C31 C 0.5760(3) 0.6178(4) 0.8160(15)
H16 H 0.5826 0.6517 0.7683
C32 C 0.5419(3) 0.6107(4) 0.8727(14)
H17 H 0.5233 0.6400 0.8743
C33 C 0.6410(3) 0.5630(4) 0.7889(12)
C34 C 0.6581(3) 0.6045(5) 0.7145(16)
H18 H 0.6448 0.6393 0.6915
C35 C 0.6958(3) 0.5961(4) 0.6710(15)
H19 H 0.7073 0.6249 0.6172
C36 C 0.7155(3) 0.5455(4) 0.7078(11)
C37 C 0.6985(3) 0.5039(4) 0.7848(14)
H20 H 0.7124 0.4697 0.8125
C38 C 0.6608(3) 0.5117(4) 0.8228(15)
H21 H 0.6487 0.4822 0.8714
C39 C 0.7555(3) 0.5348(4) 0.6568(11)
O5 O 0.7766(2) 0.4927(2) 0.7173(9)
O6 O 0.76573(19) 0.5676(3) 0.5507(8)
La5 La 0.827118(17) 0.510311(15) 0.50688(3)
O8 O 0.35938(19) 0.9478(2) 0.7438(7)
O12 O 0.2766(2) 0.9927(2) 0.7173(9)
O11 O 0.30385(19) 0.0962(3) 0.9409(8)
O7_2 O 0.40373(19) 0.9729(4) 0.0772(9)
C40_2 C 0.4256(3) 0.9719(5) 0.2209(13)
H22_2 H 0.4180 0.9931 0.3069
N1_2 N 0.4599(3) 0.9412(5) 0.2577(14)
C41_2 C 0.4857(4) 0.9422(7) 0.4304(17)
H23 H 0.4708 0.9589 0.5077
H24_2 H 0.4934 0.9040 0.4661
H25_2 H 0.5097 0.9644 0.4304
C42_2 C 0.4714(5) 0.9061(8) 0.1236(19)
H26_2 H 0.4993 0.9138 0.1193
H27_2 H 0.4685 0.8666 0.1487
H28_2 H 0.4540 0.9152 0.0155
O14_2 O 0.26573(19) 0.9324(3) 0.0507(8)
C1_2 C 0.4624(3) 0.5466(4) 0.5347(12)
C2_2 C 0.4334(3) 0.5124(3) 0.5714(14)
H1_2 H 0.4107 0.5285 0.6025
C3_2 C 0.4363(3) 0.4536(4) 0.5641(12)
C4_2 C 0.4725(3) 0.4316(4) 0.5194(13)
H2_2 H 0.4763 0.3923 0.5171
C5_2 C 0.5006(3) 0.4655(4) 0.4815(11)
C6_2 C 0.4961(3) 0.5233(4) 0.4887(14)
H3_2 H 0.5160 0.5471 0.4622
C7_2 C 0.4573(3) 0.6090(4) 0.5396(13)
S1_2 S 0.42229(8) 0.63949(10) 0.6338(4)
C8_2 C 0.4387(3) 0.7071(4) 0.5989(13)
C9_2 C 0.4677(3) 0.7050(4) 0.5174(16)
H4_2 H 0.4799 0.7374 0.4840
C10_2 C 0.4790(4) 0.6509(4) 0.4840(17)
H5_2 H 0.4999 0.6435 0.4274
C11_2 C 0.4162(3) 0.7565(4) 0.6508(12)
C12_2 C 0.4291(3) 0.8114(4) 0.6289(14)
H6_2 H 0.4518 0.8172 0.5816
C13_2 C 0.4092(3) 0.8569(4) 0.6750(14)
H7_2 H 0.4184 0.8934 0.6584
C14_2 C 0.3766(3) 0.8499(4) 0.7441(11)
C15_2 C 0.3649(4) 0.7952(4) 0.7727(14)
H8_2 H 0.3440 0.7895 0.8305
C16_2 C 0.3833(3) 0.7494(4) 0.7181(15)
H9_2 H 0.3731 0.7130 0.7276
C17_2 C 0.3537(2) 0.8985(4) 0.8011(10)
O1_2 O 0.3312(2) 0.8903(3) 0.9015(8)
C18_2 C 0.4062(3) 0.4156(3) 0.6085(12)
S2_2 S 0.41043(8) 0.34365(9) 0.5977(4)
C19_2 C 0.3677(3) 0.3315(4) 0.6798(13)
C20_2 C 0.3550(4) 0.3822(5) 0.723(2)
H10_2 H 0.3342 0.3851 0.7828
C21_2 C 0.3733(4) 0.4285(4) 0.6783(17)
H11_2 H 0.3646 0.4655 0.6926
C22_2 C 0.3565(3) 0.2723(4) 0.7150(13)
C23_2 C 0.3230(3) 0.2624(4) 0.7799(15)
H12_2 H 0.3071 0.2933 0.7983
C24_2 C 0.3116(4) 0.2091(4) 0.8197(14)
H13_2 H 0.2879 0.2027 0.8589
C25_2 C 0.3386(3) 0.1636(3) 0.7973(10)
C26_2 C 0.3710(3) 0.1738(4) 0.7338(13)
H14_2 H 0.3876 0.1435 0.7171
C27_2 C 0.3807(3) 0.2271(4) 0.6923(13)
H15_2 H 0.4039 0.2332 0.6483
C28_2 C 0.3289(3) 0.1038(3) 0.8514(11)
C29_2 C 0.5367(2) 0.4416(4) 0.4268(12)
S3_2 S 0.57721(8) 0.48323(10) 0.4145(4)
C30_2 C 0.6006(3) 0.4291(4) 0.3337(12)
C31_2 C 0.5760(3) 0.3822(4) 0.3160(15)
H16_2 H 0.5826 0.3483 0.2683
C32_2 C 0.5419(3) 0.3893(4) 0.3727(14)
H17_2 H 0.5233 0.3600 0.3743
C33_2 C 0.6410(3) 0.4370(4) 0.2889(12)
C34_2 C 0.6581(3) 0.3955(5) 0.2145(16)
H18_2 H 0.6448 0.3607 0.1915
C35_2 C 0.6958(3) 0.4039(4) 0.1710(15)
H19_2 H 0.7073 0.3751 0.1172
C36_2 C 0.7155(3) 0.4545(4) 0.2078(11)
C37_2 C 0.6985(3) 0.4961(4) 0.2848(14)
H20_2 H 0.7124 0.5303 0.3125
C38_2 C 0.6608(3) 0.4883(4) 0.3228(15)
H21_2 H 0.6487 0.5178 0.3714
C39_2 C 0.7555(3) 0.4652(4) 0.1568(11)
O5_2 O 0.7766(2) 0.5073(2) 0.2173(9)
O6_2 O 0.76573(19) 0.4324(3) 0.0507(8)
C5_3 C 0.0006(3) 0.0345(4) 0.9815(11)
C29_3 C 0.0367(2) 0.0584(4) 0.9268(12)
S3_3 S 0.07721(8) 0.01677(10) 0.9145(4)
C30_3 C 0.1006(3) 0.0709(4) 0.8337(12)
C31_3 C 0.0760(3) 0.1178(4) 0.8160(15)
H16_3 H 0.0826 0.1517 0.7683
C32_3 C 0.0419(3) 0.1107(4) 0.8727(14)
H17_3 H 0.0233 0.1400 0.8743
C33_3 C 0.1410(3) 0.0630(4) 0.7889(12)
C34_3 C 0.1581(3) 0.1045(5) 0.7145(16)
H18_3 H 0.1448 0.1393 0.6915
C35_3 C 0.1958(3) 0.0961(4) 0.6710(15)
H19_3 H 0.2073 0.1249 0.6172
C36_3 C 0.2155(3) 0.0455(4) 0.7078(11)
C37_3 C 0.1985(3) 0.0039(4) 0.7848(14)
C38_3 C 0.1608(3) 0.0117(4) 0.8228(15)
C39_3 C 0.2555(3) 0.0348(4) 0.6568(11)
H25_3 H 0.0097 0.5356 0.9304
H3_3 H 0.0160 0.9529 0.9622
H20_3 H 0.2124 0.9697 0.8125
H21_3 H 0.1487 0.9822 0.8714
C3_3 C 0.9363(3) 0.0464(4) 0.0641(12)
C4_3 C 0.9725(3) 0.0684(4) 0.0194(13)
H2_3 H 0.9763 0.1077 0.0171
C18_3 C 0.9062(3) 0.0844(3) 0.1085(12)
S2_3 S 0.91043(8) 0.15635(9) 0.0977(4)
C19_3 C 0.8677(3) 0.1685(4) 0.1798(13)
C20_3 C 0.8550(4) 0.1178(5) 0.223(2)
H10_3 H 0.8342 0.1149 0.2828
C21_3 C 0.8733(4) 0.0715(4) 0.1783(17)
H11_3 H 0.8646 0.0345 0.1926
C22_3 C 0.8565(3) 0.2277(4) 0.2150(13)
C23_3 C 0.8230(3) 0.2376(4) 0.2799(15)
H12_3 H 0.8071 0.2067 0.2983
C24_3 C 0.8116(4) 0.2909(4) 0.3197(14)
H13_3 H 0.7879 0.2973 0.3589
C25_3 C 0.8386(3) 0.3364(3) 0.2973(10)
C26_3 C 0.8710(3) 0.3262(4) 0.2338(13)
H14_3 H 0.8876 0.3565 0.2171
C27_3 C 0.8807(3) 0.2729(4) 0.1923(13)
H15_3 H 0.9039 0.2668 0.1483
C28_3 C 0.8289(3) 0.3962(3) 0.3514(11)
O3_2 O 0.84825(18) 0.4365(2) 0.2974(7)
O4_2 O 0.80385(19) 0.4038(3) 0.4409(8)
C1_3 C 0.9624(3) 0.9534(4) 0.0347(12)
C2_3 C 0.9334(3) 0.9876(3) 0.0714(14)
H1_3 H 0.9107 0.9715 0.1025
C7_3 C 0.9573(3) 0.8910(4) 0.0396(13)
S1_3 S 0.92229(8) 0.86051(10) 0.1338(4)
C8_3 C 0.9387(3) 0.7929(4) 0.0989(13)
C9_3 C 0.9677(3) 0.7950(4) 0.0174(16)
C11_3 C 0.9162(3) 0.7435(4) 0.1508(12)
C12_3 C 0.9291(3) 0.6886(4) 0.1289(14)
H6_3 H 0.9518 0.6828 0.0816
C13_3 C 0.9092(3) 0.6431(4) 0.1750(14)
H7_3 H 0.9184 0.6066 0.1584
C14_3 C 0.8766(3) 0.6501(4) 0.2441(11)
C15_3 C 0.8649(4) 0.7048(4) 0.2727(14)
H8_3 H 0.8440 0.7105 0.3305
C16_3 C 0.8833(3) 0.7506(4) 0.2181(15)
H9_3 H 0.8731 0.7870 0.2276
C17_3 C 0.8537(2) 0.6015(4) 0.3011(10)
O1_3 O 0.8312(2) 0.6097(3) 0.4015(8)
O2_2 O 0.85938(19) 0.5522(2) 0.2438(7)
O7_3 O 0.90373(19) 0.5271(4) 0.5772(9)
C40_3 C 0.9256(3) 0.5281(5) 0.7209(13)
H22_3 H 0.9180 0.5069 0.8069
N1_3 N 0.9599(3) 0.5588(5) 0.7577(14)
C41_3 C 0.9857(4) 0.5578(7) 0.9304(17)
H24_3 H 0.9934 0.5960 0.9661
C42_3 C 0.9714(5) 0.5939(8) 0.6236(19)
H26_3 H 0.9993 0.5862 0.6193
H27_3 H 0.9685 0.6334 0.6487
H28_3 H 0.9540 0.5848 0.5155
O8_2 O 0.85938(19) 0.4478(2) 0.7438(7)
O10_2 O 0.84825(18) 0.5635(2) 0.7974(7)
H3_4 H 0.0160 0.0471 0.4622
H20_4 H 0.2124 0.0303 0.3125
H21_4 H 0.1487 0.0178 0.3714
C5_4 C 0.0006(3) 0.9655(4) 0.4815(11)
C29_4 C 0.0367(2) 0.9416(4) 0.4268(12)
S3_4 S 0.07721(8) 0.98323(10) 0.4145(4)
C30_4 C 0.1006(3) 0.9291(4) 0.3337(12)
C31_4 C 0.0760(3) 0.8822(4) 0.3160(15)
H16_4 H 0.0826 0.8483 0.2683
C32_4 C 0.0419(3) 0.8893(4) 0.3727(14)
H17_4 H 0.0233 0.8600 0.3743
C33_4 C 0.1410(3) 0.9370(4) 0.2889(12)
C34_4 C 0.1581(3) 0.8955(5) 0.2145(16)
H18_4 H 0.1448 0.8607 0.1915
C35_4 C 0.1958(3) 0.9039(4) 0.1710(15)
H19_4 H 0.2073 0.8751 0.1172
C36_4 C 0.2155(3) 0.9545(4) 0.2078(11)
C37_4 C 0.1985(3) 0.9961(4) 0.2848(14)
C38_4 C 0.1608(3) 0.9883(4) 0.3228(15)
C39_4 C 0.2555(3) 0.9652(4) 0.1568(11)
O7_4 O 0.90373(19) 0.4729(4) 0.0772(9)
C40_4 C 0.9256(3) 0.4719(5) 0.2209(13)
H22_4 H 0.9180 0.4931 0.3069
N1_4 N 0.9599(3) 0.4412(5) 0.2577(14)
C41_4 C 0.9857(4) 0.4422(7) 0.4304(17)
H23_2 H 0.9708 0.4589 0.5077
H24_4 H 0.9934 0.4040 0.4661
C42_4 C 0.9714(5) 0.4061(8) 0.1236(19)
H26_4 H 0.9993 0.4138 0.1193
H27_4 H 0.9685 0.3666 0.1487
H28_4 H 0.9540 0.4152 0.0155
C1_4 C 0.9624(3) 0.0466(4) 0.5347(12)
C2_4 C 0.9334(3) 0.0124(3) 0.5714(14)
H1_4 H 0.9107 0.0285 0.6025
C6_3 C 0.9961(3) 0.0233(4) 0.4887(14)
C7_4 C 0.9573(3) 0.1090(4) 0.5396(13)
S1_4 S 0.92229(8) 0.13949(10) 0.6338(4)
C8_4 C 0.9387(3) 0.2071(4) 0.5989(13)
C9_4 C 0.9677(3) 0.2050(4) 0.5174(16)
H4_3 H 0.9799 0.2374 0.4840
C10_3 C 0.9790(4) 0.1509(4) 0.4840(17)
H5_3 H 0.9999 0.1435 0.4274
C11_4 C 0.9162(3) 0.2565(4) 0.6508(12)
C12_4 C 0.9291(3) 0.3114(4) 0.6289(14)
H6_4 H 0.9518 0.3172 0.5816
C13_4 C 0.9092(3) 0.3569(4) 0.6750(14)
H7_4 H 0.9184 0.3934 0.6584
C14_4 C 0.8766(3) 0.3499(4) 0.7441(11)
C15_4 C 0.8649(4) 0.2952(4) 0.7727(14)
H8_4 H 0.8440 0.2895 0.8305
C16_4 C 0.8833(3) 0.2494(4) 0.7181(15)
H9_4 H 0.8731 0.2130 0.7276
C17_4 C 0.8537(2) 0.3985(4) 0.8011(10)
O1_4 O 0.8312(2) 0.3903(3) 0.9015(8)
O11_2 O 0.80385(19) 0.5962(3) 0.9409(8)
C3_4 C 0.9363(3) 0.9536(4) 0.5641(12)
C4_4 C 0.9725(3) 0.9316(4) 0.5194(13)
H2_4 H 0.9763 0.8923 0.5171
C18_4 C 0.9062(3) 0.9156(3) 0.6085(12)
S2_4 S 0.91043(8) 0.84365(9) 0.5977(4)
C19_4 C 0.8677(3) 0.8315(4) 0.6798(13)
C20_4 C 0.8550(4) 0.8822(5) 0.723(2)
H10_4 H 0.8342 0.8851 0.7828
C21_4 C 0.8733(4) 0.9285(4) 0.6783(17)
H11_4 H 0.8646 0.9655 0.6926
C22_4 C 0.8565(3) 0.7723(4) 0.7150(13)
C23_4 C 0.8230(3) 0.7624(4) 0.7799(15)
H12_4 H 0.8071 0.7933 0.7983
C24_4 C 0.8116(4) 0.7091(4) 0.8197(14)
H13_4 H 0.7879 0.7027 0.8589
C25_4 C 0.8386(3) 0.6636(3) 0.7973(10)
C26_4 C 0.8710(3) 0.6738(4) 0.7338(13)
H14_4 H 0.8876 0.6435 0.7171
C27_4 C 0.8807(3) 0.7271(4) 0.6923(13)
H15_4 H 0.9039 0.7332 0.6483
C28_4 C 0.8289(3) 0.6038(3) 0.8514(11)
H23_3 H 0.4708 0.0411 0.0077
H23_4 H 0.9708 0.5411 0.0077
C6_4 C 0.9961(3) 0.9767(4) 0.9887(14)
H4_4 H 0.9799 0.7626 0.9840
C10_4 C 0.9790(4) 0.8491(4) 0.9840(17)
H5_4 H 0.9999 0.8565 0.9274
H25_4 H 0.0097 0.4644 0.4304
loop_
_geom_bond_atom_site_label_1
_geom_bond_atom_site_label_2
_geom_bond_site_symmetry_1
_geom_bond_site_symmetry_2
C1 C2 1_555 1_555
C2 H1 1_555 1_555
C3 C2 1_555 1_555
C4 C3 1_555 1_555
H2 C4 1_555 1_555
C7 C1 1_555 1_555
S1 C7 1_555 1_555
C8 S1 1_555 1_555
C9 C8 1_555 1_555
C11 C8 1_555 1_555
C12 C11 1_555 1_555
H6 C12 1_555 1_555
C13 C12 1_555 1_555
H7 C13 1_555 1_555
C14 C13 1_555 1_555
C15 C14 1_555 1_555
H8 C15 1_555 1_555
C16 C11 1_555 1_555
H9 C16 1_555 1_555
C17 C14 1_555 1_555
O1 C17 1_555 1_555
O2 C17 1_555 1_555
La2 O1 1_555 1_555
C18 C3 1_555 1_555
S2 C18 1_555 1_555
C19 S2 1_555 1_555
C20 C19 1_555 1_555
H10 C20 1_555 1_555
C21 C18 1_555 1_555
H11 C21 1_555 1_555
C22 C19 1_555 1_555
C23 C22 1_555 1_555
H12 C23 1_555 1_555
C24 C23 1_555 1_555
H13 C24 1_555 1_555
C25 C24 1_555 1_555
C26 C25 1_555 1_555
H14 C26 1_555 1_555
C27 C22 1_555 1_555
H15 C27 1_555 1_555
C28 C25 1_555 1_555
O3 C28 1_555 1_555
O4 C28 1_555 1_555
O7 La2 1_555 1_555
C40 O7 1_555 1_555
H22 C40 1_555 1_555
N1 C40 1_555 1_555
C41 N1 1_555 1_555
H24 C41 1_555 1_555
H25 C41 1_555 1_555
C42 N1 1_555 1_555
H26 C42 1_555 1_555
H27 C42 1_555 1_555
H28 C42 1_555 1_555
La4 O3 1_555 1_555
O10 La2 1_555 1_555
O13 La2 1_555 1_555
O14 La2 1_555 1_555
C15 C16 1_555 1_555
O2 La2 1_555 1_555
C20 C21 1_555 1_555
C26 C27 1_555 1_555
H3 C6 1_555 1_555
H5 C10 1_555 1_555
C29 C5 1_555 1_555
S3 C29 1_555 1_555
C30 S3 1_555 1_555
C31 C30 1_555 1_555
H16 C31 1_555 1_555
C32 C29 1_555 1_555
H17 C32 1_555 1_555
C33 C30 1_555 1_555
C34 C33 1_555 1_555
H18 C34 1_555 1_555
C35 C34 1_555 1_555
H19 C35 1_555 1_555
C36 C35 1_555 1_555
C37 C36 1_555 1_555
H20 C37 1_555 1_555
C38 C33 1_555 1_555
H21 C38 1_555 1_555
C39 C36 1_555 1_555
O5 C39 1_555 1_555
O6 C39 1_555 1_555
La5 O5 1_555 1_555
C5 C6 1_555 1_555
C31 C32 1_555 1_555
C37 C38 1_555 1_555
O6 La5 1_555 1_555
O7_2 La4 1_555 1_555
C40_2 O7_2 1_555 1_555
H22_2 C40_2 1_555 1_555
N1_2 C40_2 1_555 1_555
C41_2 N1_2 1_555 1_555
H23 C41_2 1_555 1_555
H24_2 C41_2 1_555 1_555
H25_2 C41_2 1_555 1_555
C42_2 N1_2 1_555 1_555
H26_2 C42_2 1_555 1_555
H27_2 C42_2 1_555 1_555
H28_2 C42_2 1_555 1_555
O14_2 La4 1_555 1_555
C1_2 C2_2 1_555 1_555
C2_2 H1_2 1_555 1_555
C3_2 C2_2 1_555 1_555
C4_2 C3_2 1_555 1_555
H2_2 C4_2 1_555 1_555
C5_2 C4_2 1_555 1_555
C6_2 C1_2 1_555 1_555
H3_2 C6_2 1_555 1_555
C7_2 C1_2 1_555 1_555
S1_2 C7_2 1_555 1_555
C8_2 S1_2 1_555 1_555
C9_2 C8_2 1_555 1_555
H4_2 C9_2 1_555 1_555
C10_2 C7_2 1_555 1_555
H5_2 C10_2 1_555 1_555
C11_2 C8_2 1_555 1_555
C12_2 C11_2 1_555 1_555
H6_2 C12_2 1_555 1_555
C13_2 C12_2 1_555 1_555
H7_2 C13_2 1_555 1_555
C14_2 C13_2 1_555 1_555
C15_2 C14_2 1_555 1_555
H8_2 C15_2 1_555 1_555
C16_2 C11_2 1_555 1_555
H9_2 C16_2 1_555 1_555
C17_2 C14_2 1_555 1_555
O1_2 C17_2 1_555 1_555
O8 C17_2 1_555 1_555
C18_2 C3_2 1_555 1_555
S2_2 C18_2 1_555 1_555
C19_2 S2_2 1_555 1_555
C20_2 C19_2 1_555 1_555
H10_2 C20_2 1_555 1_555
C21_2 C18_2 1_555 1_555
H11_2 C21_2 1_555 1_555
C22_2 C19_2 1_555 1_555
C23_2 C22_2 1_555 1_555
H12_2 C23_2 1_555 1_555
C24_2 C23_2 1_555 1_555
H13_2 C24_2 1_555 1_555
C25_2 C24_2 1_555 1_555
C26_2 C25_2 1_555 1_555
H14_2 C26_2 1_555 1_555
C27_2 C22_2 1_555 1_555
H15_2 C27_2 1_555 1_555
C28_2 C25_2 1_555 1_555
O10 C28_2 1_555 1_555
O11 C28_2 1_555 1_555
C29_2 C5_2 1_555 1_555
S3_2 C29_2 1_555 1_555
C30_2 S3_2 1_555 1_555
C31_2 C30_2 1_555 1_555
H16_2 C31_2 1_555 1_555
C32_2 C29_2 1_555 1_555
H17_2 C32_2 1_555 1_555
C33_2 C30_2 1_555 1_555
C34_2 C33_2 1_555 1_555
H18_2 C34_2 1_555 1_555
C35_2 C34_2 1_555 1_555
H19_2 C35_2 1_555 1_555
C36_2 C35_2 1_555 1_555
C37_2 C36_2 1_555 1_555
H20_2 C37_2 1_555 1_555
C38_2 C33_2 1_555 1_555
H21_2 C38_2 1_555 1_555
C39_2 C36_2 1_555 1_555
O5_2 C39_2 1_555 1_555
O6_2 C39_2 1_555 1_555
La6 O5_2 1_555 1_555
La5 O5_2 1_555 1_555
C5_2 C6_2 1_555 1_555
C9_2 C10_2 1_555 1_555
C15_2 C16_2 1_555 1_555
C20_2 C21_2 1_555 1_555
C26_2 C27_2 1_555 1_555
C31_2 C32_2 1_555 1_555
C37_2 C38_2 1_555 1_555
O6_2 La6 1_555 1_555
C29_3 C5_3 1_555 1_555
S3_3 C29_3 1_555 1_555
C30_3 S3_3 1_555 1_555
C31_3 C30_3 1_555 1_555
H16_3 C31_3 1_555 1_555
C32_3 C29_3 1_555 1_555
H17_3 C32_3 1_555 1_555
C33_3 C30_3 1_555 1_555
C34_3 C33_3 1_555 1_555
H18_3 C34_3 1_555 1_555
C35_3 C34_3 1_555 1_555
H19_3 C35_3 1_555 1_555
C36_3 C35_3 1_555 1_555
C37_3 C36_3 1_555 1_555
C38_3 C33_3 1_555 1_555
C39_3 C36_3 1_555 1_555
O14 C39_3 1_555 1_555
C31_3 C32_3 1_555 1_555
C37_3 C38_3 1_555 1_555
C4_3 C3_3 1_555 1_555
H2_3 C4_3 1_555 1_555
C18_3 C3_3 1_555 1_555
S2_3 C18_3 1_555 1_555
C19_3 S2_3 1_555 1_555
C20_3 C19_3 1_555 1_555
H10_3 C20_3 1_555 1_555
C21_3 C18_3 1_555 1_555
H11_3 C21_3 1_555 1_555
C22_3 C19_3 1_555 1_555
C23_3 C22_3 1_555 1_555
H12_3 C23_3 1_555 1_555
C24_3 C23_3 1_555 1_555
H13_3 C24_3 1_555 1_555
C25_3 C24_3 1_555 1_555
C26_3 C25_3 1_555 1_555
H14_3 C26_3 1_555 1_555
C27_3 C22_3 1_555 1_555
H15_3 C27_3 1_555 1_555
C28_3 C25_3 1_555 1_555
O3_2 C28_3 1_555 1_555
O4_2 C28_3 1_555 1_555
La5 O3_2 1_555 1_555
La6 O3_2 1_555 1_555
C20_3 C21_3 1_555 1_555
C26_3 C27_3 1_555 1_555
O4_2 La5 1_555 1_555
C1_3 C2_3 1_555 1_555
C2_3 H1_3 1_555 1_555
C7_3 C1_3 1_555 1_555
S1_3 C7_3 1_555 1_555
C8_3 S1_3 1_555 1_555
C9_3 C8_3 1_555 1_555
C11_3 C8_3 1_555 1_555
C12_3 C11_3 1_555 1_555
H6_3 C12_3 1_555 1_555
C13_3 C12_3 1_555 1_555
H7_3 C13_3 1_555 1_555
C14_3 C13_3 1_555 1_555
C15_3 C14_3 1_555 1_555
H8_3 C15_3 1_555 1_555
C16_3 C11_3 1_555 1_555
H9_3 C16_3 1_555 1_555
C17_3 C14_3 1_555 1_555
O1_3 C17_3 1_555 1_555
O2_2 C17_3 1_555 1_555
La5 O1_3 1_555 1_555
O7_3 La5 1_555 1_555
C40_3 O7_3 1_555 1_555
H22_3 C40_3 1_555 1_555
N1_3 C40_3 1_555 1_555
C41_3 N1_3 1_555 1_555
H24_3 C41_3 1_555 1_555
C42_3 N1_3 1_555 1_555
H26_3 C42_3 1_555 1_555
H27_3 C42_3 1_555 1_555
H28_3 C42_3 1_555 1_555
O8_2 La5 1_555 1_555
La6 O2_2 1_555 1_555
O10_2 La5 1_555 1_555
C15_3 C16_3 1_555 1_555
O2_2 La5 1_555 1_555
C29_4 C5_4 1_555 1_555
S3_4 C29_4 1_555 1_555
C30_4 S3_4 1_555 1_555
C31_4 C30_4 1_555 1_555
H16_4 C31_4 1_555 1_555
C32_4 C29_4 1_555 1_555
H17_4 C32_4 1_555 1_555
C33_4 C30_4 1_555 1_555
C34_4 C33_4 1_555 1_555
H18_4 C34_4 1_555 1_555
C35_4 C34_4 1_555 1_555
H19_4 C35_4 1_555 1_555
C36_4 C35_4 1_555 1_555
C37_4 C36_4 1_555 1_555
C38_4 C33_4 1_555 1_555
C39_4 C36_4 1_555 1_555
O14_2 C39_4 1_555 1_555
C31_4 C32_4 1_555 1_555
C37_4 C38_4 1_555 1_555
O7_4 La6 1_555 1_555
C40_4 O7_4 1_555 1_555
H22_4 C40_4 1_555 1_555
N1_4 C40_4 1_555 1_555
C41_4 N1_4 1_555 1_555
H23_2 C41_4 1_555 1_555
H24_4 C41_4 1_555 1_555
C42_4 N1_4 1_555 1_555
H26_4 C42_4 1_555 1_555
H27_4 C42_4 1_555 1_555
H28_4 C42_4 1_555 1_555
C1_4 C2_4 1_555 1_555
C2_4 H1_4 1_555 1_555
C6_3 C1_4 1_555 1_555
C7_4 C1_4 1_555 1_555
S1_4 C7_4 1_555 1_555
C8_4 S1_4 1_555 1_555
C9_4 C8_4 1_555 1_555
H4_3 C9_4 1_555 1_555
C10_3 C7_4 1_555 1_555
H5_3 C10_3 1_555 1_555
C11_4 C8_4 1_555 1_555
C12_4 C11_4 1_555 1_555
H6_4 C12_4 1_555 1_555
C13_4 C12_4 1_555 1_555
H7_4 C13_4 1_555 1_555
C14_4 C13_4 1_555 1_555
C15_4 C14_4 1_555 1_555
H8_4 C15_4 1_555 1_555
C16_4 C11_4 1_555 1_555
H9_4 C16_4 1_555 1_555
C17_4 C14_4 1_555 1_555
O1_4 C17_4 1_555 1_555
O8_2 C17_4 1_555 1_555
C9_4 C10_3 1_555 1_555
C15_4 C16_4 1_555 1_555
C4_4 C3_4 1_555 1_555
H2_4 C4_4 1_555 1_555
C18_4 C3_4 1_555 1_555
S2_4 C18_4 1_555 1_555
C19_4 S2_4 1_555 1_555
C20_4 C19_4 1_555 1_555
H10_4 C20_4 1_555 1_555
C21_4 C18_4 1_555 1_555
H11_4 C21_4 1_555 1_555
C22_4 C19_4 1_555 1_555
C23_4 C22_4 1_555 1_555
H12_4 C23_4 1_555 1_555
C24_4 C23_4 1_555 1_555
H13_4 C24_4 1_555 1_555
C25_4 C24_4 1_555 1_555
C26_4 C25_4 1_555 1_555
H14_4 C26_4 1_555 1_555
C27_4 C22_4 1_555 1_555
H15_4 C27_4 1_555 1_555
C28_4 C25_4 1_555 1_555
O10_2 C28_4 1_555 1_555
O11_2 C28_4 1_555 1_555
C20_4 C21_4 1_555 1_555
C26_4 C27_4 1_555 1_555
H5_4 C10_4 1_555 1_555

#END
