
###############################################################################
#
# This file contains modified crystal structure data generated from the
# MOF subset of the Cambridge Structural Database (CSD) v543 
# hosted by the Cambridge Crystallographic Data Centre (CCDC).
#
# This work is licensed under the Creative Commons
# Attribution-NonCommercial-ShareAlike 4.0 International License.
# To view a copy of this license, visit
# http://creativecommons.org/licenses/by-nc-sa/4.0/
# or send a letter to
# Creative Commons, PO Box 1866, Mountain View, CA 94042, USA.
#
# CIF created using the CSD Python API on 29 September 2022
# The structure has been converted into the P1 space group
# The structure has a 3D framework
# The original CSD entry MICNAO is in the monoclinic crystal system
# The framework has been calculated to contain at least 10.0% void space
# The void calculation uses a probe of radius 1.32A, grid spacing 0.4
#
###############################################################################

data_MICNAO
_chemical_formula_moiety         '(C288 H192 Cd8 F64 N48 O48)n'
_symmetry_cell_setting           triclinic
_symmetry_space_group_name_H-M   'P 1'
_symmetry_Int_Tables_number      1
_space_group_name_Hall           'P 1'
loop_
_symmetry_equiv_pos_site_id
_symmetry_equiv_pos_as_xyz
1 x,y,z
_cell_length_a                   17.037(3)
_cell_length_b                   19.255(3)
_cell_length_c                   29.997(5)
_cell_angle_alpha                90
_cell_angle_beta                 90.922(5)
_cell_angle_gamma                90
_cell_volume                     9839.16
loop_
_atom_site_label
_atom_site_type_symbol
_atom_site_fract_x
_atom_site_fract_y
_atom_site_fract_z
F5 F 0.42966(12) 0.15439(9) 0.05996(6)
F6 F 0.35996(11) 0.19889(9) 0.20849(6)
F7 F 0.39724(11) 0.28592(9) 0.03861(6)
F8 F 0.32787(11) 0.33029(9) 0.18723(6)
N4 N 0.53406(15) 0.53165(12) 0.11100(9)
C19 C 0.2315(2) 0.00520(19) 0.10772(14)
H13 H 0.1945 0.0091 0.0838
C21 C 0.3332(2) 0.0016(2) 0.17559(17)
C22 C 0.2918(3) 0.0526(2) 0.10930(14)
H16 H 0.2957 0.0871 0.0868
C23 C 0.34604(19) 0.05001(15) 0.14328(11)
C24 C 0.41606(19) 0.09846(15) 0.14749(11)
H17 H 0.4362 0.0974 0.1786
H18 H 0.4583 0.0814 0.1280
C25 C 0.39650(18) 0.17230(15) 0.13498(11)
C26 C 0.40402(18) 0.19742(16) 0.09203(11)
C27 C 0.36991(18) 0.21898(16) 0.16629(11)
C28 C 0.38816(18) 0.26541(16) 0.08082(11)
C29 C 0.35337(18) 0.28690(15) 0.15510(11)
C30 C 0.36189(17) 0.31209(15) 0.11219(11)
C31 C 0.34211(18) 0.38651(15) 0.09975(11)
H19 H 0.3214 0.3876 0.0687
H20 H 0.3002 0.4035 0.1195
C32 C 0.41182(18) 0.43491(14) 0.10349(11)
C33 C 0.4576(2) 0.44010(15) 0.14211(11)
H21 H 0.4478 0.4106 0.1668
C34 C 0.43135(19) 0.47811(16) 0.06859(11)
H22 H 0.4032 0.4751 0.0411
C35 C 0.5169(2) 0.48795(15) 0.14434(11)
H23 H 0.5478 0.4904 0.1710
C36 C 0.49132(19) 0.52545(16) 0.07342(11)
H24 H 0.5029 0.5550 0.0490
Cd6 Cd 0.628582(14) 0.619801(9) 0.124209(9)
O19 O 0.72419(13) 0.65321(11) 0.06687(8)
O20 O 0.63895(13) 0.58494(11) 0.03529(8)
O22 O 0.53205(13) 0.64750(11) 0.18285(8)
O23 O 0.61749(13) 0.57764(12) 0.21233(9)
O24 O 0.51599(13) 0.60811(13) 0.24957(8)
N15 N 0.72400(15) 0.53062(12) 0.13423(9)
N22 N 0.70519(15) 0.70584(12) 0.16157(9)
N25 N 0.55053(15) 0.70729(12) 0.08866(9)
N28 N 0.70061(15) 0.61992(13) 0.03273(9)
N29 N 0.55506(15) 0.61136(13) 0.21549(9)
O21 O 0.73903(13) 0.62188(13) 0.99803(8)
F1 F 0.79233(12) 0.16675(9) 0.18619(6)
F2 F 0.90762(11) 0.18418(9) 0.04536(6)
F3 F 0.83387(12) 0.29779(9) 0.20389(6)
F4 F 0.94892(11) 0.31498(9) 0.06290(6)
F15 F 0.51423(12) 0.97366(10) 0.08827(7)
C3 C 0.9407(2) 0.04305(16) 0.14806(11)
H3 H 0.9282 0.0704 0.1733
C4 C 0.91946(19) 0.00874(16) 0.07299(11)
H4 H 0.8921 0.0119 0.0452
C5 C 0.89588(18) 0.04869(14) 0.10905(11)
C6 C 0.82569(18) 0.09737(15) 0.10492(11)
H5 H 0.8036 0.0947 0.0742
H6 H 0.7846 0.0822 0.1257
C7 C 0.84808(17) 0.17095(15) 0.11507(11)
C8 C 0.83082(18) 0.20282(16) 0.15503(11)
C9 C 0.88873(18) 0.21157(15) 0.08513(11)
C10 C 0.85213(19) 0.27006(16) 0.16385(11)
C11 C 0.90979(18) 0.27870(16) 0.09398(11)
C12 C 0.89247(18) 0.31060(14) 0.13421(11)
C13 C 0.91596(18) 0.38429(14) 0.14467(11)
H7 H 0.9571 0.3991 0.1238
H8 H 0.9386 0.3863 0.1753
C14 C 0.84695(18) 0.43430(14) 0.14115(11)
C15 C 0.82378(19) 0.47303(15) 0.17769(11)
H9 H 0.8492 0.4669 0.2058
C16 C 0.80501(19) 0.44324(15) 0.10145(11)
H10 H 0.8178 0.4167 0.0759
C17 C 0.76370(19) 0.52047(16) 0.17286(12)
H11 H 0.7496 0.5474 0.1980
C18 C 0.74489(19) 0.49080(15) 0.09949(11)
H12 H 0.7166 0.4958 0.0721
C64 C 0.47215(18) 0.70938(15) 0.08986(10)
H43 H 0.4453 0.6716 0.1031
C65 C 0.58533(17) 0.76075(14) 0.06907(10)
H44 H 0.6409 0.7599 0.0669
C66 C 0.42851(17) 0.76361(15) 0.07287(11)
H45 H 0.3729 0.7623 0.0742
C67 C 0.54583(17) 0.81719(15) 0.05168(10)
H46 H 0.5741 0.8540 0.0383
C68 C 0.46530(18) 0.82004(15) 0.05382(10)
C69 C 0.41572(18) 0.88163(16) 0.03870(12)
H47 H 0.3764 0.8650 0.0166
H48 H 0.3868 0.8993 0.0647
C70 C 0.46010(19) 0.94155(15) 0.01838(12)
C71 C 0.5062(2) 0.98572(17) 0.04404(12)
F27 F 0.83356(12) 0.90932(10) 0.30652(7)
F28 F 0.73385(12) 0.97753(10) 0.16602(7)
C118 C 0.7889(2) 0.95056(16) 0.28022(12)
C119 C 0.73964(19) 0.98534(17) 0.21075(11)
C120 C 0.78664(19) 0.93949(16) 0.23488(12)
C121 C 0.83327(19) 0.88254(16) 0.21242(12)
H79 H 0.8600 0.9029 0.1864
H80 H 0.8746 0.8664 0.2336
C122 C 0.78682(18) 0.82042(15) 0.19677(11)
C123 C 0.82559(18) 0.76601(15) 0.17646(10)
H81 H 0.8812 0.7666 0.1745
C124 C 0.70680(18) 0.81434(15) 0.20021(10)
H82 H 0.6777 0.8495 0.2148
C125 C 0.78321(17) 0.71112(15) 0.15918(10)
H83 H 0.8110 0.6750 0.1448
C126 C 0.66858(18) 0.75707(15) 0.18253(11)
H84 H 0.6133 0.7541 0.1855
F32 F 0.41103(12) 0.91868(9) 0.94586(7)
C144 C 0.45485(19) 0.95789(16) 0.97356(12)
F14 F 0.00503(12) 0.99167(10) 0.58987(7)
C63 C 0.00093(19) 0.99495(17) 0.54505(12)
Cd3 Cd 0.123463(15) 0.629232(9) 0.625798(9)
O13 O 0.03312(15) 0.66081(12) 0.68673(8)
O14 O 0.11795(13) 0.59006(12) 0.71530(9)
O15 O 0.01695(14) 0.62166(13) 0.75308(8)
O16 O 0.21654(16) 0.65840(13) 0.56331(9)
O17 O 0.13153(14) 0.58481(13) 0.53899(9)
O18 O 0.23316(14) 0.60974(14) 0.49987(8)
N13 N 0.02453(15) 0.54230(12) 0.61616(9)
N17 N 0.22101(16) 0.54491(13) 0.63655(9)
N20 N 0.20540(14) 0.71991(12) 0.65632(9)
N23 N 0.04390(14) 0.71910(12) 0.59439(9)
N26 N 0.05635(16) 0.62446(13) 0.71884(9)
N27 N 0.19386(16) 0.61754(14) 0.53355(10)
C73 C 0.0030(2) 0.50209(15) 0.64999(11)
H49 H 0.0326 0.5048 0.6771
C127 C 0.01632(17) 0.72139(15) 0.55247(10)
H85 H 0.0276 0.6836 0.5332
C128 C 0.02635(18) 0.77292(15) 0.62063(11)
H86 H 0.0444 0.7722 0.6508
F17 F 0.79233(12) 0.33325(9) 0.68619(6)
F18 F 0.90762(11) 0.31582(9) 0.54536(6)
F19 F 0.83387(12) 0.20221(9) 0.70389(6)
F20 F 0.94892(11) 0.18502(9) 0.56290(6)
F29 F 0.91316(12) 0.91012(10) 0.45053(7)
C74 C 0.98283(19) 0.53553(16) 0.57778(11)
H50 H 0.9978 0.5625 0.5528
C75 C 0.9407(2) 0.45695(16) 0.64806(11)
H51 H 0.9282 0.4296 0.6733
C76 C 0.91946(19) 0.49126(16) 0.57299(11)
H52 H 0.8921 0.4881 0.5452
C77 C 0.89588(18) 0.45131(14) 0.60905(11)
C78 C 0.82569(18) 0.40263(15) 0.60492(11)
H53 H 0.8036 0.4053 0.5742
H54 H 0.7846 0.4178 0.6257
C79 C 0.84808(17) 0.32905(15) 0.61507(11)
C80 C 0.83082(18) 0.29718(16) 0.65503(11)
C81 C 0.88873(18) 0.28843(15) 0.58513(11)
C82 C 0.85213(19) 0.22994(16) 0.66385(11)
C83 C 0.90979(18) 0.22130(16) 0.59398(11)
C84 C 0.89247(18) 0.18940(14) 0.63421(11)
C85 C 0.91596(18) 0.11571(14) 0.64467(11)
H55 H 0.9571 0.1009 0.6238
H56 H 0.9386 0.1137 0.6753
C86 C 0.84695(18) 0.06570(14) 0.64115(11)
C87 C 0.82378(19) 0.02697(15) 0.67769(11)
H57 H 0.8492 0.0331 0.7058
C88 C 0.80501(19) 0.05676(15) 0.60145(11)
H58 H 0.8178 0.0833 0.5759
C90 C 0.74489(19) 0.00920(15) 0.59949(11)
H60 H 0.7166 0.0042 0.5721
C129 C 0.97193(17) 0.77626(15) 0.53563(10)
H87 H 0.9533 0.7753 0.5056
C130 C 0.98330(18) 0.82942(15) 0.60611(11)
H88 H 0.9730 0.8666 0.6260
C131 C 0.95508(17) 0.83201(16) 0.56262(12)
C132 C 0.90738(18) 0.89305(16) 0.54568(12)
H89 H 0.8659 0.8758 0.5250
H90 H 0.8812 0.9154 0.5712
C133 C 0.95623(18) 0.94713(15) 0.52178(12)
C134 C 0.95620(19) 0.95362(16) 0.47598(13)
F25 F 0.24622(12) 0.98893(10) 0.65541(7)
F26 F 0.34569(12) 0.92015(9) 0.79608(7)
C109 C 0.23185(17) 0.72436(15) 0.69819(10)
H73 H 0.2190 0.6880 0.7182
C110 C 0.22445(18) 0.77167(14) 0.62893(10)
H74 H 0.2064 0.7695 0.5988
C111 C 0.27697(17) 0.77878(15) 0.71423(11)
H75 H 0.2945 0.7792 0.7444
C112 C 0.26929(18) 0.82855(15) 0.64205(10)
H76 H 0.2812 0.8641 0.6212
C113 C 0.29650(17) 0.83311(15) 0.68565(11)
C114 C 0.34590(18) 0.89422(16) 0.70156(12)
H77 H 0.3866 0.8771 0.7227
H78 H 0.3730 0.9145 0.6757
C115 C 0.29890(18) 0.95093(15) 0.72420(12)
C116 C 0.2523(2) 0.99650(16) 0.70001(12)
C117 C 0.30122(19) 0.96148(16) 0.76969(12)
F5_2 F 0.42966(12) 0.34561(9) 0.55996(6)
F6_2 F 0.35996(11) 0.30111(9) 0.70849(6)
F7_2 F 0.39724(11) 0.21408(9) 0.53861(6)
F8_2 F 0.32787(11) 0.16971(9) 0.68723(6)
C19_2 C 0.2315(2) 0.49480(19) 0.60772(14)
H13_2 H 0.1945 0.4909 0.5838
C20 C 0.2712(3) 0.5447(2) 0.67049(18)
H14 H 0.2645 0.5786 0.6931
C21_2 C 0.3332(2) 0.4984(2) 0.67559(17)
H15 H 0.3664 0.5004 0.7013
C22_2 C 0.2918(3) 0.4474(2) 0.60930(14)
H16_2 H 0.2957 0.4129 0.5868
C23_2 C 0.34604(19) 0.44999(15) 0.64328(11)
C24_2 C 0.41606(19) 0.40154(15) 0.64749(11)
H17_2 H 0.4362 0.4026 0.6786
H18_2 H 0.4583 0.4186 0.6280
C25_2 C 0.39650(18) 0.32770(15) 0.63498(11)
C26_2 C 0.40402(18) 0.30258(16) 0.59203(11)
C27_2 C 0.36991(18) 0.28102(16) 0.66629(11)
C28_2 C 0.38816(18) 0.23459(16) 0.58082(11)
C29_2 C 0.35337(18) 0.21310(15) 0.65510(11)
C30_2 C 0.36189(17) 0.18791(15) 0.61219(11)
C31_2 C 0.34211(18) 0.11349(15) 0.59975(11)
H19_2 H 0.3214 0.1124 0.5687
H20_2 H 0.3002 0.0965 0.6195
C32_2 C 0.41182(18) 0.06509(14) 0.60349(11)
C33_2 C 0.4576(2) 0.05990(15) 0.64211(11)
H21_2 H 0.4478 0.0894 0.6668
C34_2 C 0.43135(19) 0.02189(16) 0.56859(11)
H22_2 H 0.4032 0.0249 0.5411
C35_2 C 0.5169(2) 0.01205(15) 0.64434(11)
H23_2 H 0.5478 0.0096 0.6710
Cd1 Cd 0.123463(15) 0.870768(9) 0.125798(9)
F9 F 0.24622(12) 0.51107(10) 0.15541(7)
F10 F 0.34569(12) 0.57985(9) 0.29608(7)
F11 F 0.16644(12) 0.40932(10) 0.19348(7)
F12 F 0.26615(12) 0.47753(10) 0.33398(7)
O1 O 0.03312(15) 0.83919(12) 0.18673(8)
O2 O 0.11795(13) 0.90994(12) 0.21530(9)
O3 O 0.01695(14) 0.87834(13) 0.25308(8)
O4 O 0.21654(16) 0.84160(13) 0.06331(9)
O5 O 0.13153(14) 0.91519(13) 0.03899(9)
N1 N 0.02453(15) 0.95770(12) 0.11616(9)
N3 N 0.22101(16) 0.95509(13) 0.13655(9)
N5 N 0.20540(14) 0.78009(12) 0.15632(9)
N6 N 0.29481(15) 0.20584(12) 0.33843(9)
N7 N 0.04390(14) 0.78090(12) 0.09439(9)
N9 N 0.05635(16) 0.87554(13) 0.21884(9)
N10 N 0.19386(16) 0.88246(14) 0.03355(10)
C1 C 0.0030(2) 0.99791(15) 0.14999(11)
H1 H 0.0326 0.9952 0.1771
C20_2 C 0.2712(3) 0.9553(2) 0.17049(18)
H14_2 H 0.2645 0.9214 0.1931
H15_2 H 0.3664 0.9996 0.2013
C37 C 0.23185(17) 0.77564(15) 0.19819(10)
H25 H 0.2190 0.8120 0.2182
C38 C 0.22445(18) 0.72833(14) 0.12893(10)
H26 H 0.2064 0.7305 0.0988
C39 C 0.27697(17) 0.72122(15) 0.21423(11)
H27 H 0.2945 0.7208 0.2444
C40 C 0.26929(18) 0.67145(15) 0.14205(10)
H28 H 0.2812 0.6359 0.1212
C41 C 0.29650(17) 0.66689(15) 0.18565(11)
C42 C 0.34590(18) 0.60578(16) 0.20156(12)
H29 H 0.3866 0.6229 0.2227
H30 H 0.3730 0.5855 0.1757
C43 C 0.29890(18) 0.54907(15) 0.22420(12)
C44 C 0.2523(2) 0.50350(16) 0.20001(12)
C45 C 0.30122(19) 0.53852(16) 0.26969(12)
C46 C 0.2111(2) 0.45056(16) 0.21978(12)
C47 C 0.26036(19) 0.48534(17) 0.28925(11)
C48 C 0.21336(19) 0.43949(16) 0.26512(12)
C49 C 0.16673(19) 0.38254(16) 0.28758(12)
H31 H 0.1400 0.4029 0.3136
H32 H 0.1254 0.3664 0.2664
C50 C 0.21318(18) 0.32042(15) 0.30323(11)
C51 C 0.17441(18) 0.26601(15) 0.32354(10)
H33 H 0.1188 0.2666 0.3255
C52 C 0.29320(18) 0.31434(15) 0.29979(10)
H34 H 0.3223 0.3495 0.2852
C53 C 0.21679(17) 0.21112(15) 0.34082(10)
H35 H 0.1890 0.1750 0.3552
C54 C 0.33142(18) 0.25707(15) 0.31747(11)
H36 H 0.3867 0.2541 0.3145
C55 C 0.01632(17) 0.77861(15) 0.05247(10)
H37 H 0.0276 0.8164 0.0332
C56 C 0.02635(18) 0.72708(15) 0.12063(11)
H38 H 0.0444 0.7278 0.1508
Cd7 Cd 0.371418(14) 0.119801(9) 0.375791(9)
F29_2 F 0.08684(12) 0.41012(10) 0.04947(7)
F30 F 0.00503(12) 0.50833(10) 0.08987(7)
C134_2 C 0.04380(19) 0.45362(16) 0.02402(13)
C135 C 0.00093(19) 0.50505(17) 0.04505(12)
O6 O 0.23316(14) 0.89026(14) 0.99987(8)
C74_2 C 0.01717(19) 0.03553(16) 0.92222(11)
H50_2 H 0.0022 0.0625 0.9472
C129_2 C 0.02807(17) 0.27626(15) 0.96437(10)
H87_2 H 0.0467 0.2753 0.9944
C130_2 C 0.01670(18) 0.32942(15) 0.89389(11)
H88_2 H 0.0270 0.3666 0.8740
C131_2 C 0.04492(17) 0.33201(16) 0.93738(12)
C132_2 C 0.09262(18) 0.39305(16) 0.95432(12)
H89_2 H 0.1341 0.3758 0.9750
H90_2 H 0.1188 0.4154 0.9288
C133_2 C 0.04377(18) 0.44713(15) 0.97822(12)
C2 C 0.98283(19) 0.96447(16) 0.07778(11)
H2 H 0.9978 0.9375 0.0528
C57 C 0.97193(17) 0.72374(15) 0.03563(10)
H39 H 0.9533 0.7247 0.0056
C58 C 0.98330(18) 0.67058(15) 0.10611(11)
H40 H 0.9730 0.6334 0.1260
C59 C 0.95508(17) 0.66799(16) 0.06262(12)
C60 C 0.90738(18) 0.60695(16) 0.04568(12)
H41 H 0.8659 0.6242 0.0250
H42 H 0.8812 0.5846 0.0712
C61 C 0.95623(18) 0.55287(15) 0.02178(12)
O18_2 O 0.76684(14) 0.10974(14) 0.00013(8)
F13 F 0.91316(12) 0.58988(10) 0.95053(7)
F14_2 F 0.99497(12) 0.49167(10) 0.91013(7)
C62 C 0.95620(19) 0.54638(16) 0.97598(13)
C63_2 C 0.99907(19) 0.49495(17) 0.95495(12)
Cd3_2 Cd 0.876537(15) 0.129232(9) 0.874202(9)
O13_2 O 0.96688(15) 0.16081(12) 0.81327(8)
O14_2 O 0.88205(13) 0.09006(12) 0.78470(9)
O15_2 O 0.98305(14) 0.12166(13) 0.74692(8)
O16_2 O 0.78346(16) 0.15840(13) 0.93669(9)
O17_2 O 0.86847(14) 0.08481(13) 0.96101(9)
N13_2 N 0.97547(15) 0.04230(12) 0.88384(9)
N17_2 N 0.77899(16) 0.04491(13) 0.86345(9)
N20_2 N 0.79460(14) 0.21991(12) 0.84368(9)
N23_2 N 0.95610(14) 0.21910(12) 0.90561(9)
N26_2 N 0.94365(16) 0.12446(13) 0.78116(9)
N27_2 N 0.80614(16) 0.11754(14) 0.96645(10)
C73_2 C 0.9970(2) 0.00209(15) 0.85001(11)
H49_2 H 0.9674 0.0048 0.8229
C127_2 C 0.98368(17) 0.22139(15) 0.94753(10)
H85_2 H 0.9724 0.1836 0.9668
C128_2 C 0.97365(18) 0.27292(15) 0.87937(11)
H86_2 H 0.9556 0.2722 0.8492
F15_2 F 0.48577(12) 0.47366(10) 0.41173(7)
F16 F 0.41103(12) 0.58132(9) 0.44586(7)
O7 O 0.27581(13) 0.15321(11) 0.43313(8)
O8 O 0.36105(13) 0.08494(11) 0.46471(8)
O9 O 0.26097(13) 0.12188(13) 0.50197(8)
O10 O 0.46795(13) 0.14750(11) 0.31715(8)
O11 O 0.38251(13) 0.07764(12) 0.28767(9)
O12 O 0.48401(13) 0.10811(13) 0.25043(8)
N2 N 0.27600(15) 0.03062(12) 0.36577(9)
N8 N 0.44947(15) 0.20729(12) 0.41134(9)
N11 N 0.29939(15) 0.11992(13) 0.46727(9)
N12 N 0.44494(15) 0.11136(13) 0.28451(9)
C17_2 C 0.23630(19) 0.02047(16) 0.32714(12)
H11_2 H 0.2504 0.0474 0.3020
C64_2 C 0.52785(18) 0.20938(15) 0.41014(10)
H43_2 H 0.5547 0.1716 0.3969
C65_2 C 0.41467(17) 0.26075(14) 0.43093(10)
H44_2 H 0.3591 0.2599 0.4331
C66_2 C 0.57149(17) 0.26361(15) 0.42713(11)
H45_2 H 0.6271 0.2623 0.4258
C67_2 C 0.45417(17) 0.31719(15) 0.44832(10)
H46_2 H 0.4259 0.3540 0.4617
C68_2 C 0.53470(18) 0.32004(15) 0.44618(10)
C69_2 C 0.58428(18) 0.38163(16) 0.46130(12)
H47_2 H 0.6236 0.3650 0.4834
H48_2 H 0.6132 0.3993 0.4353
C70_2 C 0.53990(19) 0.44155(15) 0.48162(12)
C71_2 C 0.4938(2) 0.48572(17) 0.45596(12)
C72 C 0.45485(19) 0.54211(16) 0.47356(12)
Cd8 Cd 0.628582(14) 0.880199(9) 0.624209(9)
F31 F 0.51423(12) 0.52634(10) 0.58827(7)
F32_2 F 0.58897(12) 0.41868(9) 0.55414(7)
N18 N 0.46594(15) 0.03165(12) 0.38900(9)
N24 N 0.55053(15) 0.79271(12) 0.58866(9)
C108 C 0.50868(19) 0.02545(16) 0.42658(11)
H72 H 0.4971 0.0550 0.4510
C136 C 0.47215(18) 0.79062(15) 0.58986(10)
H91 H 0.4453 0.8284 0.6031
C137 C 0.58533(17) 0.73925(14) 0.56907(10)
H92 H 0.6409 0.7401 0.5669
C138 C 0.42851(17) 0.73639(15) 0.57287(11)
H93 H 0.3729 0.7377 0.5742
C139 C 0.54583(17) 0.68281(15) 0.55168(10)
H94 H 0.5741 0.6460 0.5383
C140 C 0.46530(18) 0.67996(15) 0.55382(10)
C141 C 0.41572(18) 0.61837(16) 0.53870(12)
H95 H 0.3764 0.6350 0.5166
H96 H 0.3868 0.6007 0.5647
C142 C 0.46010(19) 0.55845(15) 0.51838(12)
C143 C 0.5062(2) 0.51428(17) 0.54404(12)
C144_2 C 0.54515(19) 0.45789(16) 0.52644(12)
N14 N 0.72400(15) 0.96938(12) 0.63423(9)
C89 C 0.76370(19) 0.97953(16) 0.67286(12)
H59 H 0.7496 0.9526 0.6980
C92 C 0.7288(3) 0.0447(2) 0.82951(18)
H62 H 0.7355 0.0786 0.8069
H63 H 0.6336 0.0004 0.7987
F9_2 F 0.75378(12) 0.48893(10) 0.84459(7)
F10_2 F 0.65431(12) 0.42015(9) 0.70392(7)
F11_2 F 0.83356(12) 0.59068(10) 0.80652(7)
F12_2 F 0.73385(12) 0.52247(10) 0.66602(7)
N6_2 N 0.70519(15) 0.79416(12) 0.66157(9)
C37_2 C 0.76815(17) 0.22436(15) 0.80181(10)
H25_2 H 0.7810 0.1880 0.7818
C38_2 C 0.77555(18) 0.27167(14) 0.87107(10)
H26_2 H 0.7936 0.2695 0.9012
C39_2 C 0.72303(17) 0.27878(15) 0.78577(11)
H27_2 H 0.7055 0.2792 0.7556
C40_2 C 0.73071(18) 0.32855(15) 0.85795(10)
H28_2 H 0.7188 0.3641 0.8788
C41_2 C 0.70350(17) 0.33311(15) 0.81435(11)
C42_2 C 0.65410(18) 0.39422(16) 0.79844(12)
H29_2 H 0.6134 0.3771 0.7773
H30_2 H 0.6270 0.4145 0.8243
C43_2 C 0.70110(18) 0.45093(15) 0.77580(12)
C44_2 C 0.7477(2) 0.49650(16) 0.79999(12)
C45_2 C 0.69878(19) 0.46148(16) 0.73031(12)
C46_2 C 0.7889(2) 0.54944(16) 0.78022(12)
C47_2 C 0.73964(19) 0.51466(17) 0.71075(11)
C48_2 C 0.78664(19) 0.56051(16) 0.73488(12)
C49_2 C 0.83327(19) 0.61746(16) 0.71242(12)
H31_2 H 0.8600 0.5971 0.6864
H32_2 H 0.8746 0.6336 0.7336
C50_2 C 0.78682(18) 0.67958(15) 0.69677(11)
C51_2 C 0.82559(18) 0.73399(15) 0.67646(10)
H33_2 H 0.8812 0.7334 0.6745
C52_2 C 0.70680(18) 0.68566(15) 0.70021(10)
H34_2 H 0.6777 0.6505 0.7148
C53_2 C 0.78321(17) 0.78888(15) 0.65918(10)
H35_2 H 0.8110 0.8250 0.6448
C54_2 C 0.66858(18) 0.74293(15) 0.68253(11)
H36_2 H 0.6133 0.7459 0.6855
N4_2 N 0.53406(15) 0.96835(12) 0.61100(9)
C36_2 C 0.49132(19) 0.97455(16) 0.57342(11)
H24_2 H 0.5029 0.9450 0.5490
O19_2 O 0.72419(13) 0.84679(11) 0.56687(8)
O20_2 O 0.63895(13) 0.91506(11) 0.53529(8)
O21_2 O 0.73903(13) 0.87812(13) 0.49803(8)
O22_2 O 0.53205(13) 0.85250(11) 0.68285(8)
O23_2 O 0.61749(13) 0.92236(12) 0.71233(9)
O24_2 O 0.51599(13) 0.89189(13) 0.74957(8)
N28_2 N 0.70061(15) 0.88008(13) 0.53273(9)
N29_2 N 0.55506(15) 0.88864(13) 0.71549(9)
Cd9 Cd 0.371418(14) 0.380199(9) 0.875791(9)
F17_2 F 0.20767(12) 0.83325(9) 0.81381(6)
F18_2 F 0.09238(11) 0.81582(9) 0.95464(6)
F19_2 F 0.16613(12) 0.70221(9) 0.79611(6)
F20_2 F 0.05108(11) 0.68502(9) 0.93710(6)
N14_2 N 0.27600(15) 0.46938(12) 0.86577(9)
C75_2 C 0.0593(2) 0.95695(16) 0.85194(11)
H51_2 H 0.0718 0.9296 0.8267
C76_2 C 0.08054(19) 0.99126(16) 0.92701(11)
H52_2 H 0.1079 0.9881 0.9548
C77_2 C 0.10412(18) 0.95131(14) 0.89095(11)
C78_2 C 0.17431(18) 0.90263(15) 0.89508(11)
H53_2 H 0.1964 0.9053 0.9258
H54_2 H 0.2154 0.9178 0.8743
C79_2 C 0.15192(17) 0.82905(15) 0.88493(11)
C80_2 C 0.16918(18) 0.79718(16) 0.84497(11)
C81_2 C 0.11127(18) 0.78843(15) 0.91487(11)
C82_2 C 0.14787(19) 0.72994(16) 0.83615(11)
C83_2 C 0.09021(18) 0.72130(16) 0.90602(11)
C84_2 C 0.10753(18) 0.68940(14) 0.86579(11)
C85_2 C 0.08404(18) 0.61571(14) 0.85533(11)
H55_2 H 0.0429 0.6009 0.8762
H56_2 H 0.0614 0.6137 0.8247
C86_2 C 0.15305(18) 0.56570(14) 0.85885(11)
C87_2 C 0.17622(19) 0.52697(15) 0.82231(11)
H57_2 H 0.1508 0.5331 0.7942
C88_2 C 0.19499(19) 0.55676(15) 0.89855(11)
H58_2 H 0.1822 0.5833 0.9241
C89_2 C 0.23630(19) 0.47953(16) 0.82714(12)
H59_2 H 0.2504 0.4526 0.8020
C90_2 C 0.25511(19) 0.50920(15) 0.90051(11)
H60_2 H 0.2834 0.5042 0.9279
F16_2 F 0.58897(12) 0.08132(9) 0.05414(7)
C72_2 C 0.54515(19) 0.04211(16) 0.02644(12)
Cd5 Cd 0.876537(15) 0.370768(9) 0.374202(9)
F25_2 F 0.75378(12) 0.01107(10) 0.34459(7)
F26_2 F 0.65431(12) 0.07985(9) 0.20392(7)
N19 N 0.79460(14) 0.28009(12) 0.34368(9)
C109_2 C 0.76815(17) 0.27564(15) 0.30181(10)
H73_2 H 0.7810 0.3120 0.2818
C110_2 C 0.77555(18) 0.22833(14) 0.37107(10)
H74_2 H 0.7936 0.2305 0.4012
C111_2 C 0.72303(17) 0.22122(15) 0.28577(11)
H75_2 H 0.7055 0.2208 0.2556
C112_2 C 0.73071(18) 0.17145(15) 0.35795(10)
H76_2 H 0.7188 0.1359 0.3788
C113_2 C 0.70350(17) 0.16689(15) 0.31435(11)
C114_2 C 0.65410(18) 0.10578(16) 0.29844(12)
H77_2 H 0.6134 0.1229 0.2773
H78_2 H 0.6270 0.0855 0.3243
C115_2 C 0.70110(18) 0.04907(15) 0.27580(12)
C116_2 C 0.7477(2) 0.00350(16) 0.29999(12)
C117_2 C 0.69878(19) 0.03852(16) 0.23031(12)
F31_2 F 0.48577(12) 0.02634(10) 0.91173(7)
N24_2 N 0.44947(15) 0.29271(12) 0.91134(9)
C136_2 C 0.52785(18) 0.29062(15) 0.91014(10)
H91_2 H 0.5547 0.3284 0.8969
C137_2 C 0.41467(17) 0.23925(14) 0.93093(10)
H92_2 H 0.3591 0.2401 0.9331
C138_2 C 0.57149(17) 0.23639(15) 0.92713(11)
H93_2 H 0.6271 0.2377 0.9258
C139_2 C 0.45417(17) 0.18281(15) 0.94832(10)
H94_2 H 0.4259 0.1460 0.9617
C140_2 C 0.53470(18) 0.17996(15) 0.94618(10)
C141_2 C 0.58428(18) 0.11837(16) 0.96130(12)
H95_2 H 0.6236 0.1350 0.9834
H96_2 H 0.6132 0.1007 0.9353
C142_2 C 0.53990(19) 0.05845(15) 0.98162(12)
C143_2 C 0.4938(2) 0.01428(17) 0.95596(12)
F1_2 F 0.20767(12) 0.66675(9) 0.31381(6)
F2_2 F 0.09238(11) 0.68418(9) 0.45464(6)
F3_2 F 0.16613(12) 0.79779(9) 0.29611(6)
F4_2 F 0.05108(11) 0.81498(9) 0.43710(6)
F13_2 F 0.08684(12) 0.08988(10) 0.54947(7)
C2_2 C 0.01717(19) 0.46447(16) 0.42222(11)
H2_2 H 0.0022 0.4375 0.4472
C3_2 C 0.0593(2) 0.54305(16) 0.35194(11)
H3_2 H 0.0718 0.5704 0.3267
C4_2 C 0.08054(19) 0.50874(16) 0.42701(11)
H4_2 H 0.1079 0.5119 0.4548
C5_2 C 0.10412(18) 0.54869(14) 0.39095(11)
C6_2 C 0.17431(18) 0.59737(15) 0.39508(11)
H5_2 H 0.1964 0.5947 0.4258
H6_2 H 0.2154 0.5822 0.3743
C7_2 C 0.15192(17) 0.67095(15) 0.38493(11)
C8_2 C 0.16918(18) 0.70282(16) 0.34497(11)
C9_2 C 0.11127(18) 0.71157(15) 0.41487(11)
C10_2 C 0.14787(19) 0.77006(16) 0.33615(11)
C11_2 C 0.09021(18) 0.77870(16) 0.40602(11)
C12_2 C 0.10753(18) 0.81060(14) 0.36579(11)
C13_2 C 0.08404(18) 0.88429(14) 0.35533(11)
H7_2 H 0.0429 0.8991 0.3762
H8_2 H 0.0614 0.8863 0.3247
C14_2 C 0.15305(18) 0.93430(14) 0.35885(11)
C15_2 C 0.17622(19) 0.97303(15) 0.32231(11)
H9_2 H 0.1508 0.9669 0.2942
C16_2 C 0.19499(19) 0.94324(15) 0.39855(11)
H10_2 H 0.1822 0.9167 0.4241
C18_2 C 0.25511(19) 0.99080(15) 0.40051(11)
H12_2 H 0.2834 0.9958 0.4279
C57_2 C 0.02807(17) 0.22374(15) 0.46437(10)
H39_2 H 0.0467 0.2247 0.4944
C58_2 C 0.01670(18) 0.17058(15) 0.39389(11)
H40_2 H 0.0270 0.1334 0.3740
C59_2 C 0.04492(17) 0.16799(16) 0.43738(12)
C60_2 C 0.09262(18) 0.10695(16) 0.45432(12)
H41_2 H 0.1341 0.1242 0.4750
H42_2 H 0.1188 0.0846 0.4288
C61_2 C 0.04377(18) 0.05287(15) 0.47822(12)
C62_2 C 0.04380(19) 0.04638(16) 0.52402(13)
F21 F 0.57034(12) 0.65439(9) 0.44004(6)
F22 F 0.64004(11) 0.69889(9) 0.29151(6)
F23 F 0.60276(11) 0.78592(9) 0.46139(6)
F24 F 0.67213(11) 0.83029(9) 0.31277(6)
N16 N 0.77899(16) 0.45509(13) 0.36345(9)
C91 C 0.7685(2) 0.50520(19) 0.39228(14)
H61 H 0.8055 0.5091 0.4162
C92_2 C 0.7288(3) 0.4553(2) 0.32951(18)
H62_2 H 0.7355 0.4214 0.3069
C93 C 0.6668(2) 0.5016(2) 0.32441(17)
H63_2 H 0.6336 0.4996 0.2987
C94 C 0.7082(3) 0.5526(2) 0.39070(14)
H64 H 0.7043 0.5871 0.4132
C95 C 0.65396(19) 0.55001(15) 0.35672(11)
C96 C 0.58394(19) 0.59846(15) 0.35251(11)
H65 H 0.5638 0.5974 0.3214
H66 H 0.5417 0.5814 0.3720
C97 C 0.60350(18) 0.67230(15) 0.36502(11)
C98 C 0.59598(18) 0.69742(16) 0.40797(11)
C99 C 0.63009(18) 0.71898(16) 0.33371(11)
C100 C 0.61184(18) 0.76541(16) 0.41918(11)
C101 C 0.64663(18) 0.78690(15) 0.34490(11)
C102 C 0.63811(17) 0.81209(15) 0.38781(11)
C103 C 0.65789(18) 0.88651(15) 0.40025(11)
H67 H 0.6786 0.8876 0.4313
H68 H 0.6998 0.9035 0.3805
C104 C 0.58818(18) 0.93491(14) 0.39651(11)
C105 C 0.5424(2) 0.94010(15) 0.35789(11)
H69 H 0.5522 0.9106 0.3332
C106 C 0.56865(19) 0.97811(16) 0.43141(11)
H70 H 0.5968 0.9751 0.4589
C107 C 0.4831(2) 0.98795(15) 0.35566(11)
H71 H 0.4522 0.9904 0.3290
O1_2 O 0.96688(15) 0.33919(12) 0.31327(8)
O2_2 O 0.88205(13) 0.40994(12) 0.28470(9)
O3_2 O 0.98305(14) 0.37834(13) 0.24692(8)
O4_2 O 0.78346(16) 0.34160(13) 0.43669(9)
O5_2 O 0.86847(14) 0.41519(13) 0.46101(9)
O6_2 O 0.76684(14) 0.39026(14) 0.50013(8)
N1_2 N 0.97547(15) 0.45770(12) 0.38384(9)
N7_2 N 0.95610(14) 0.28090(12) 0.40561(9)
N9_2 N 0.94365(16) 0.37554(13) 0.28116(9)
N10_2 N 0.80614(16) 0.38246(14) 0.46645(10)
C1_2 C 0.9970(2) 0.49791(15) 0.35001(11)
H1_2 H 0.9674 0.4952 0.3229
C55_2 C 0.98368(17) 0.27861(15) 0.44753(10)
H37_2 H 0.9724 0.3164 0.4668
C56_2 C 0.97365(18) 0.22708(15) 0.37937(11)
H38_2 H 0.9556 0.2278 0.3492
F30_2 F 0.99497(12) 0.00833(10) 0.41013(7)
C135_2 C 0.99907(19) 0.00505(17) 0.45495(12)
O9_2 O 0.26097(13) 0.37812(13) 0.00197(8)
O7_2 O 0.27581(13) 0.34679(11) 0.93313(8)
O8_2 O 0.36105(13) 0.41506(11) 0.96471(8)
O10_2 O 0.46795(13) 0.35250(11) 0.81715(8)
O11_2 O 0.38251(13) 0.42236(12) 0.78767(9)
O12_2 O 0.48401(13) 0.39189(13) 0.75043(8)
N11_2 N 0.29939(15) 0.38008(13) 0.96727(9)
N12_2 N 0.44494(15) 0.38864(13) 0.78451(9)
F21_2 F 0.57034(12) 0.84561(9) 0.94004(6)
F22_2 F 0.64004(11) 0.80111(9) 0.79151(6)
F23_2 F 0.60276(11) 0.71408(9) 0.96139(6)
F24_2 F 0.67213(11) 0.66971(9) 0.81277(6)
F27_2 F 0.16644(12) 0.09068(10) 0.69348(7)
F28_2 F 0.26615(12) 0.02247(10) 0.83398(7)
N18_2 N 0.46594(15) 0.46835(12) 0.88900(9)
N21 N 0.29481(15) 0.29416(12) 0.83843(9)
C91_2 C 0.7685(2) 0.99480(19) 0.89228(14)
H61_2 H 0.8055 0.9909 0.9162
C93_2 C 0.6668(2) 0.9984(2) 0.82441(17)
C94_2 C 0.7082(3) 0.9474(2) 0.89070(14)
H64_2 H 0.7043 0.9129 0.9132
C95_2 C 0.65396(19) 0.94999(15) 0.85672(11)
C96_2 C 0.58394(19) 0.90154(15) 0.85251(11)
H65_2 H 0.5638 0.9026 0.8214
H66_2 H 0.5417 0.9186 0.8720
C97_2 C 0.60350(18) 0.82770(15) 0.86502(11)
C98_2 C 0.59598(18) 0.80258(16) 0.90797(11)
C99_2 C 0.63009(18) 0.78102(16) 0.83371(11)
C100_2 C 0.61184(18) 0.73459(16) 0.91918(11)
C101_2 C 0.64663(18) 0.71310(15) 0.84490(11)
C102_2 C 0.63811(17) 0.68791(15) 0.88781(11)
C103_2 C 0.65789(18) 0.61349(15) 0.90025(11)
H67_2 H 0.6786 0.6124 0.9313
H68_2 H 0.6998 0.5965 0.8805
C104_2 C 0.58818(18) 0.56509(14) 0.89651(11)
C105_2 C 0.5424(2) 0.55990(15) 0.85789(11)
H69_2 H 0.5522 0.5894 0.8332
C106_2 C 0.56865(19) 0.52189(16) 0.93141(11)
H70_2 H 0.5968 0.5249 0.9589
C107_2 C 0.4831(2) 0.51205(15) 0.85566(11)
H71_2 H 0.4522 0.5096 0.8290
C108_2 C 0.50868(19) 0.47455(16) 0.92658(11)
H72_2 H 0.4971 0.4450 0.9510
C118_2 C 0.2111(2) 0.04944(16) 0.71978(12)
C119_2 C 0.26036(19) 0.01466(17) 0.78925(11)
C120_2 C 0.21336(19) 0.06051(16) 0.76512(12)
C121_2 C 0.16673(19) 0.11746(16) 0.78758(12)
H79_2 H 0.1400 0.0971 0.8136
H80_2 H 0.1254 0.1336 0.7664
C122_2 C 0.21318(18) 0.17958(15) 0.80323(11)
C123_2 C 0.17441(18) 0.23399(15) 0.82354(10)
H81_2 H 0.1188 0.2334 0.8255
C124_2 C 0.29320(18) 0.18566(15) 0.79979(10)
H82_2 H 0.3223 0.1505 0.7852
C125_2 C 0.21679(17) 0.28888(15) 0.84082(10)
H83_2 H 0.1890 0.3250 0.8552
C126_2 C 0.33142(18) 0.24293(15) 0.81747(11)
H84_2 H 0.3867 0.2459 0.8145
loop_
_geom_bond_atom_site_label_1
_geom_bond_atom_site_label_2
_geom_bond_site_symmetry_1
_geom_bond_site_symmetry_2
F5 C26 1_555 1_555
F6 C27 1_555 1_555
F7 C28 1_555 1_555
F8 C29 1_555 1_555
N4 C35 1_555 1_555
H13 C19 1_555 1_555
C22 C19 1_555 1_555
H16 C22 1_555 1_555
C23 C21 1_555 1_555
C24 C23 1_555 1_555
H17 C24 1_555 1_555
H18 C24 1_555 1_555
C25 C24 1_555 1_555
C26 C25 1_555 1_555
C27 C25 1_555 1_555
C28 C26 1_555 1_555
C29 C27 1_555 1_555
C30 C28 1_555 1_555
C31 C30 1_555 1_555
H19 C31 1_555 1_555
H20 C31 1_555 1_555
C32 C31 1_555 1_555
C33 C32 1_555 1_555
H21 C33 1_555 1_555
C34 C32 1_555 1_555
H22 C34 1_555 1_555
C35 C33 1_555 1_555
H23 C35 1_555 1_555
C36 N4 1_555 1_555
H24 C36 1_555 1_555
Cd6 N4 1_555 1_555
O19 Cd6 1_555 1_555
O20 N28 1_555 1_555
O22 Cd6 1_555 1_555
O23 N29 1_555 1_555
O24 N29 1_555 1_555
N15 Cd6 1_555 1_555
N22 Cd6 1_555 1_555
N25 Cd6 1_555 1_555
N28 O19 1_555 1_555
N29 O22 1_555 1_555
C22 C23 1_555 1_555
C29 C30 1_555 1_555
C34 C36 1_555 1_555
F1 C8 1_555 1_555
F2 C9 1_555 1_555
F3 C10 1_555 1_555
F4 C11 1_555 1_555
F15 C71 1_555 1_555
H3 C3 1_555 1_555
H4 C4 1_555 1_555
C5 C3 1_555 1_555
C6 C5 1_555 1_555
H5 C6 1_555 1_555
H6 C6 1_555 1_555
C7 C6 1_555 1_555
C8 C7 1_555 1_555
C9 C7 1_555 1_555
C10 C8 1_555 1_555
C11 C9 1_555 1_555
C12 C10 1_555 1_555
C13 C12 1_555 1_555
H7 C13 1_555 1_555
H8 C13 1_555 1_555
C14 C13 1_555 1_555
C15 C14 1_555 1_555
H9 C15 1_555 1_555
C16 C14 1_555 1_555
H10 C16 1_555 1_555
C17 N15 1_555 1_555
H11 C17 1_555 1_555
C18 N15 1_555 1_555
H12 C18 1_555 1_555
C64 N25 1_555 1_555
H43 C64 1_555 1_555
C65 N25 1_555 1_555
H44 C65 1_555 1_555
C66 C64 1_555 1_555
H45 C66 1_555 1_555
C67 C65 1_555 1_555
H46 C67 1_555 1_555
C68 C66 1_555 1_555
C69 C68 1_555 1_555
H47 C69 1_555 1_555
H48 C69 1_555 1_555
C70 C69 1_555 1_555
C71 C70 1_555 1_555
F27 C118 1_555 1_555
F28 C119 1_555 1_555
C120 C118 1_555 1_555
C121 C120 1_555 1_555
H79 C121 1_555 1_555
H80 C121 1_555 1_555
C122 C121 1_555 1_555
C123 C122 1_555 1_555
H81 C123 1_555 1_555
C124 C122 1_555 1_555
H82 C124 1_555 1_555
C125 N22 1_555 1_555
H83 C125 1_555 1_555
C126 N22 1_555 1_555
H84 C126 1_555 1_555
C4 C5 1_555 1_555
C11 C12 1_555 1_555
C15 C17 1_555 1_555
C16 C18 1_555 1_555
C67 C68 1_555 1_555
C119 C120 1_555 1_555
C123 C125 1_555 1_555
C124 C126 1_555 1_555
F32 C144 1_555 1_555
F14 C63 1_555 1_555
Cd3 O13 1_555 1_555
O13 N26 1_555 1_555
O14 N26 1_555 1_555
O15 N26 1_555 1_555
O16 Cd3 1_555 1_555
O17 N27 1_555 1_555
O18 N27 1_555 1_555
N13 Cd3 1_555 1_555
N17 Cd3 1_555 1_555
N20 Cd3 1_555 1_555
N23 Cd3 1_555 1_555
N27 O16 1_555 1_555
C73 N13 1_555 1_555
H49 C73 1_555 1_555
C127 N23 1_555 1_555
H85 C127 1_555 1_555
C128 N23 1_555 1_555
H86 C128 1_555 1_555
F17 C80 1_555 1_555
F18 C81 1_555 1_555
F19 C82 1_555 1_555
F20 C83 1_555 1_555
F29 C134 1_555 1_555
H50 C74 1_555 1_555
H51 C75 1_555 1_555
C76 C74 1_555 1_555
H52 C76 1_555 1_555
C77 C75 1_555 1_555
C78 C77 1_555 1_555
H53 C78 1_555 1_555
H54 C78 1_555 1_555
C79 C78 1_555 1_555
C80 C79 1_555 1_555
C81 C79 1_555 1_555
C82 C80 1_555 1_555
C83 C81 1_555 1_555
C84 C82 1_555 1_555
C85 C84 1_555 1_555
H55 C85 1_555 1_555
H56 C85 1_555 1_555
C86 C85 1_555 1_555
C87 C86 1_555 1_555
H57 C87 1_555 1_555
C88 C86 1_555 1_555
H58 C88 1_555 1_555
H60 C90 1_555 1_555
H87 C129 1_555 1_555
H88 C130 1_555 1_555
C131 C129 1_555 1_555
C132 C131 1_555 1_555
H89 C132 1_555 1_555
H90 C132 1_555 1_555
C134 C133 1_555 1_555
C76 C77 1_555 1_555
C83 C84 1_555 1_555
C88 C90 1_555 1_555
C130 C131 1_555 1_555
C132 C133 1_555 1_555
F25 C116 1_555 1_555
F26 C117 1_555 1_555
N20 C109 1_555 1_555
C109 H73 1_555 1_555
C110 N20 1_555 1_555
H74 C110 1_555 1_555
C111 C109 1_555 1_555
H75 C111 1_555 1_555
C112 C110 1_555 1_555
H76 C112 1_555 1_555
C113 C111 1_555 1_555
C114 C113 1_555 1_555
H77 C114 1_555 1_555
H78 C114 1_555 1_555
C115 C114 1_555 1_555
C116 C115 1_555 1_555
C117 C115 1_555 1_555
C112 C113 1_555 1_555
F5_2 C26_2 1_555 1_555
F6_2 C27_2 1_555 1_555
F7_2 C28_2 1_555 1_555
F8_2 C29_2 1_555 1_555
C19_2 N17 1_555 1_555
H13_2 C19_2 1_555 1_555
C20 N17 1_555 1_555
H14 C20 1_555 1_555
C21_2 C20 1_555 1_555
H15 C21_2 1_555 1_555
C22_2 C19_2 1_555 1_555
H16_2 C22_2 1_555 1_555
C23_2 C21_2 1_555 1_555
C24_2 C23_2 1_555 1_555
H17_2 C24_2 1_555 1_555
H18_2 C24_2 1_555 1_555
C25_2 C24_2 1_555 1_555
C26_2 C25_2 1_555 1_555
C27_2 C25_2 1_555 1_555
C28_2 C26_2 1_555 1_555
C29_2 C27_2 1_555 1_555
C30_2 C28_2 1_555 1_555
C31_2 C30_2 1_555 1_555
H19_2 C31_2 1_555 1_555
H20_2 C31_2 1_555 1_555
C32_2 C31_2 1_555 1_555
C33_2 C32_2 1_555 1_555
H21_2 C33_2 1_555 1_555
C34_2 C32_2 1_555 1_555
H22_2 C34_2 1_555 1_555
C35_2 C33_2 1_555 1_555
H23_2 C35_2 1_555 1_555
C22_2 C23_2 1_555 1_555
C29_2 C30_2 1_555 1_555
Cd1 O1 1_555 1_555
F9 C44 1_555 1_555
F10 C45 1_555 1_555
F11 C46 1_555 1_555
F12 C47 1_555 1_555
O1 N9 1_555 1_555
O2 N9 1_555 1_555
O3 N9 1_555 1_555
O4 Cd1 1_555 1_555
O5 N10 1_555 1_555
N1 Cd1 1_555 1_555
N3 Cd1 1_555 1_555
N5 Cd1 1_555 1_555
N6 C53 1_555 1_555
N7 Cd1 1_555 1_555
N10 O4 1_555 1_555
C1 N1 1_555 1_555
H1 C1 1_555 1_555
C20_2 N3 1_555 1_555
H14_2 C20_2 1_555 1_555
C37 N5 1_555 1_555
H25 C37 1_555 1_555
C38 N5 1_555 1_555
H26 C38 1_555 1_555
C39 C37 1_555 1_555
H27 C39 1_555 1_555
C40 C38 1_555 1_555
H28 C40 1_555 1_555
C41 C39 1_555 1_555
C42 C41 1_555 1_555
H29 C42 1_555 1_555
H30 C42 1_555 1_555
C43 C42 1_555 1_555
C44 C43 1_555 1_555
C45 C43 1_555 1_555
C46 C44 1_555 1_555
C47 C45 1_555 1_555
C48 C46 1_555 1_555
C49 C48 1_555 1_555
H31 C49 1_555 1_555
H32 C49 1_555 1_555
C50 C49 1_555 1_555
C51 C50 1_555 1_555
H33 C51 1_555 1_555
C52 C50 1_555 1_555
H34 C52 1_555 1_555
C53 C51 1_555 1_555
H35 C53 1_555 1_555
C54 N6 1_555 1_555
H36 C54 1_555 1_555
C55 N7 1_555 1_555
H37 C55 1_555 1_555
C56 N7 1_555 1_555
H38 C56 1_555 1_555
Cd7 N6 1_555 1_555
F29_2 C134_2 1_555 1_555
F30 C135 1_555 1_555
C40 C41 1_555 1_555
C47 C48 1_555 1_555
C52 C54 1_555 1_555
C134_2 C135 1_555 1_555
H50_2 C74_2 1_555 1_555
H87_2 C129_2 1_555 1_555
H88_2 C130_2 1_555 1_555
C131_2 C129_2 1_555 1_555
C132_2 C131_2 1_555 1_555
H89_2 C132_2 1_555 1_555
H90_2 C132_2 1_555 1_555
C130_2 C131_2 1_555 1_555
C132_2 C133_2 1_555 1_555
H2 C2 1_555 1_555
H39 C57 1_555 1_555
H40 C58 1_555 1_555
C59 C57 1_555 1_555
C60 C59 1_555 1_555
H41 C60 1_555 1_555
H42 C60 1_555 1_555
C61 C60 1_555 1_555
C58 C59 1_555 1_555
F13 C62 1_555 1_555
F14_2 C63_2 1_555 1_555
C63_2 C62 1_555 1_555
Cd3_2 O13_2 1_555 1_555
O13_2 N26_2 1_555 1_555
O14_2 N26_2 1_555 1_555
O15_2 N26_2 1_555 1_555
O16_2 Cd3_2 1_555 1_555
O17_2 N27_2 1_555 1_555
N13_2 Cd3_2 1_555 1_555
N17_2 Cd3_2 1_555 1_555
N20_2 Cd3_2 1_555 1_555
N23_2 Cd3_2 1_555 1_555
N27_2 O16_2 1_555 1_555
C73_2 N13_2 1_555 1_555
H49_2 C73_2 1_555 1_555
C127_2 N23_2 1_555 1_555
H85_2 C127_2 1_555 1_555
C128_2 N23_2 1_555 1_555
H86_2 C128_2 1_555 1_555
Cd7 O7 1_555 1_555
F15_2 C71_2 1_555 1_555
F16 C72 1_555 1_555
O7 N11 1_555 1_555
O8 N11 1_555 1_555
O9 N11 1_555 1_555
O10 Cd7 1_555 1_555
O11 N12 1_555 1_555
O12 N12 1_555 1_555
N2 Cd7 1_555 1_555
N8 Cd7 1_555 1_555
N12 O10 1_555 1_555
C17_2 N2 1_555 1_555
H11_2 C17_2 1_555 1_555
C64_2 N8 1_555 1_555
H43_2 C64_2 1_555 1_555
C65_2 N8 1_555 1_555
H44_2 C65_2 1_555 1_555
C66_2 C64_2 1_555 1_555
H45_2 C66_2 1_555 1_555
C67_2 C65_2 1_555 1_555
H46_2 C67_2 1_555 1_555
C68_2 C66_2 1_555 1_555
C69_2 C68_2 1_555 1_555
H47_2 C69_2 1_555 1_555
H48_2 C69_2 1_555 1_555
C70_2 C69_2 1_555 1_555
C71_2 C70_2 1_555 1_555
C72 C71_2 1_555 1_555
Cd8 N24 1_555 1_555
F31 C143 1_555 1_555
F32_2 C144_2 1_555 1_555
N18 Cd7 1_555 1_555
N24 C136 1_555 1_555
C108 N18 1_555 1_555
H72 C108 1_555 1_555
C136 H91 1_555 1_555
C137 N24 1_555 1_555
H92 C137 1_555 1_555
C138 C136 1_555 1_555
H93 C138 1_555 1_555
C139 C137 1_555 1_555
H94 C139 1_555 1_555
C140 C138 1_555 1_555
C141 C140 1_555 1_555
H95 C141 1_555 1_555
H96 C141 1_555 1_555
C142 C72 1_555 1_555
C143 C142 1_555 1_555
C144_2 C70_2 1_555 1_555
C67_2 C68_2 1_555 1_555
C139 C140 1_555 1_555
C141 C142 1_555 1_555
C143 C144_2 1_555 1_555
Cd8 N14 1_555 1_555
N14 C89 1_555 1_555
H59 C89 1_555 1_555
C92 N17_2 1_555 1_555
H62 C92 1_555 1_555
F9_2 C44_2 1_555 1_555
F10_2 C45_2 1_555 1_555
F11_2 C46_2 1_555 1_555
F12_2 C47_2 1_555 1_555
N6_2 C53_2 1_555 1_555
C37_2 N20_2 1_555 1_555
H25_2 C37_2 1_555 1_555
C38_2 N20_2 1_555 1_555
H26_2 C38_2 1_555 1_555
C39_2 C37_2 1_555 1_555
H27_2 C39_2 1_555 1_555
C40_2 C38_2 1_555 1_555
H28_2 C40_2 1_555 1_555
C41_2 C39_2 1_555 1_555
C42_2 C41_2 1_555 1_555
H29_2 C42_2 1_555 1_555
H30_2 C42_2 1_555 1_555
C43_2 C42_2 1_555 1_555
C44_2 C43_2 1_555 1_555
C45_2 C43_2 1_555 1_555
C46_2 C44_2 1_555 1_555
C47_2 C45_2 1_555 1_555
C48_2 C46_2 1_555 1_555
C49_2 C48_2 1_555 1_555
H31_2 C49_2 1_555 1_555
H32_2 C49_2 1_555 1_555
C50_2 C49_2 1_555 1_555
C51_2 C50_2 1_555 1_555
H33_2 C51_2 1_555 1_555
C52_2 C50_2 1_555 1_555
H34_2 C52_2 1_555 1_555
C53_2 C51_2 1_555 1_555
H35_2 C53_2 1_555 1_555
C54_2 N6_2 1_555 1_555
H36_2 C54_2 1_555 1_555
Cd8 N6_2 1_555 1_555
C40_2 C41_2 1_555 1_555
C47_2 C48_2 1_555 1_555
C52_2 C54_2 1_555 1_555
C36_2 N4_2 1_555 1_555
H24_2 C36_2 1_555 1_555
Cd8 N4_2 1_555 1_555
O19_2 Cd8 1_555 1_555
O20_2 N28_2 1_555 1_555
O21_2 N28_2 1_555 1_555
O22_2 Cd8 1_555 1_555
O23_2 N29_2 1_555 1_555
O24_2 N29_2 1_555 1_555
N28_2 O19_2 1_555 1_555
N29_2 O22_2 1_555 1_555
Cd9 N14_2 1_555 1_555
F17_2 C80_2 1_555 1_555
F18_2 C81_2 1_555 1_555
F19_2 C82_2 1_555 1_555
F20_2 C83_2 1_555 1_555
N14_2 C89_2 1_555 1_555
H51_2 C75_2 1_555 1_555
H52_2 C76_2 1_555 1_555
C77_2 C75_2 1_555 1_555
C78_2 C77_2 1_555 1_555
H53_2 C78_2 1_555 1_555
H54_2 C78_2 1_555 1_555
C79_2 C78_2 1_555 1_555
C80_2 C79_2 1_555 1_555
C81_2 C79_2 1_555 1_555
C82_2 C80_2 1_555 1_555
C83_2 C81_2 1_555 1_555
C84_2 C82_2 1_555 1_555
C85_2 C84_2 1_555 1_555
H55_2 C85_2 1_555 1_555
H56_2 C85_2 1_555 1_555
C86_2 C85_2 1_555 1_555
C87_2 C86_2 1_555 1_555
H57_2 C87_2 1_555 1_555
C88_2 C86_2 1_555 1_555
H58_2 C88_2 1_555 1_555
C89_2 C87_2 1_555 1_555
H59_2 C89_2 1_555 1_555
C90_2 N14_2 1_555 1_555
H60_2 C90_2 1_555 1_555
C76_2 C77_2 1_555 1_555
C83_2 C84_2 1_555 1_555
C88_2 C90_2 1_555 1_555
F16_2 C72_2 1_555 1_555
Cd5 N19 1_555 1_555
F25_2 C116_2 1_555 1_555
F26_2 C117_2 1_555 1_555
N19 C109_2 1_555 1_555
C109_2 H73_2 1_555 1_555
C110_2 N19 1_555 1_555
H74_2 C110_2 1_555 1_555
C111_2 C109_2 1_555 1_555
H75_2 C111_2 1_555 1_555
C112_2 C110_2 1_555 1_555
H76_2 C112_2 1_555 1_555
C113_2 C111_2 1_555 1_555
C114_2 C113_2 1_555 1_555
H77_2 C114_2 1_555 1_555
H78_2 C114_2 1_555 1_555
C115_2 C114_2 1_555 1_555
C116_2 C115_2 1_555 1_555
C117_2 C115_2 1_555 1_555
C112_2 C113_2 1_555 1_555
Cd9 N24_2 1_555 1_555
F31_2 C143_2 1_555 1_555
N24_2 C136_2 1_555 1_555
C136_2 H91_2 1_555 1_555
C137_2 N24_2 1_555 1_555
H92_2 C137_2 1_555 1_555
C138_2 C136_2 1_555 1_555
H93_2 C138_2 1_555 1_555
C139_2 C137_2 1_555 1_555
H94_2 C139_2 1_555 1_555
C140_2 C138_2 1_555 1_555
C141_2 C140_2 1_555 1_555
H95_2 C141_2 1_555 1_555
H96_2 C141_2 1_555 1_555
C143_2 C142_2 1_555 1_555
C139_2 C140_2 1_555 1_555
C141_2 C142_2 1_555 1_555
F1_2 C8_2 1_555 1_555
F2_2 C9_2 1_555 1_555
F3_2 C10_2 1_555 1_555
F4_2 C11_2 1_555 1_555
F13_2 C62_2 1_555 1_555
H2_2 C2_2 1_555 1_555
H3_2 C3_2 1_555 1_555
C4_2 C2_2 1_555 1_555
H4_2 C4_2 1_555 1_555
C5_2 C3_2 1_555 1_555
C6_2 C5_2 1_555 1_555
H5_2 C6_2 1_555 1_555
H6_2 C6_2 1_555 1_555
C7_2 C6_2 1_555 1_555
C8_2 C7_2 1_555 1_555
C9_2 C7_2 1_555 1_555
C10_2 C8_2 1_555 1_555
C11_2 C9_2 1_555 1_555
C12_2 C10_2 1_555 1_555
C13_2 C12_2 1_555 1_555
H7_2 C13_2 1_555 1_555
H8_2 C13_2 1_555 1_555
C14_2 C13_2 1_555 1_555
C15_2 C14_2 1_555 1_555
H9_2 C15_2 1_555 1_555
C16_2 C14_2 1_555 1_555
H10_2 C16_2 1_555 1_555
H12_2 C18_2 1_555 1_555
H39_2 C57_2 1_555 1_555
H40_2 C58_2 1_555 1_555
C59_2 C57_2 1_555 1_555
C60_2 C59_2 1_555 1_555
H41_2 C60_2 1_555 1_555
H42_2 C60_2 1_555 1_555
C61_2 C60_2 1_555 1_555
C62_2 C61_2 1_555 1_555
Cd5 N16 1_555 1_555
F21 C98 1_555 1_555
F22 C99 1_555 1_555
F23 C100 1_555 1_555
F24 C101 1_555 1_555
N16 C91 1_555 1_555
C91 H61 1_555 1_555
C92_2 N16 1_555 1_555
H62_2 C92_2 1_555 1_555
C93 C92_2 1_555 1_555
H63_2 C93 1_555 1_555
C94 C91 1_555 1_555
H64 C94 1_555 1_555
C95 C93 1_555 1_555
C96 C95 1_555 1_555
H65 C96 1_555 1_555
H66 C96 1_555 1_555
C97 C96 1_555 1_555
C98 C97 1_555 1_555
C99 C97 1_555 1_555
C100 C98 1_555 1_555
C101 C99 1_555 1_555
C102 C100 1_555 1_555
C103 C102 1_555 1_555
H67 C103 1_555 1_555
H68 C103 1_555 1_555
C104 C103 1_555 1_555
C105 C104 1_555 1_555
H69 C105 1_555 1_555
C106 C104 1_555 1_555
H70 C106 1_555 1_555
H71 C107 1_555 1_555
C4_2 C5_2 1_555 1_555
C11_2 C12_2 1_555 1_555
C16_2 C18_2 1_555 1_555
C58_2 C59_2 1_555 1_555
C94 C95 1_555 1_555
C101 C102 1_555 1_555
C105 C107 1_555 1_555
Cd5 O1_2 1_555 1_555
O1_2 N9_2 1_555 1_555
O2_2 N9_2 1_555 1_555
O3_2 N9_2 1_555 1_555
O4_2 Cd5 1_555 1_555
O5_2 N10_2 1_555 1_555
O6_2 N10_2 1_555 1_555
N1_2 Cd5 1_555 1_555
N7_2 Cd5 1_555 1_555
N10_2 O4_2 1_555 1_555
C1_2 N1_2 1_555 1_555
H1_2 C1_2 1_555 1_555
C55_2 N7_2 1_555 1_555
H37_2 C55_2 1_555 1_555
C56_2 N7_2 1_555 1_555
H38_2 C56_2 1_555 1_555
F30_2 C135_2 1_555 1_555
Cd9 O7_2 1_555 1_555
O7_2 N11_2 1_555 1_555
O8_2 N11_2 1_555 1_555
O10_2 Cd9 1_555 1_555
O11_2 N12_2 1_555 1_555
O12_2 N12_2 1_555 1_555
N12_2 O10_2 1_555 1_555
F21_2 C98_2 1_555 1_555
F22_2 C99_2 1_555 1_555
F23_2 C100_2 1_555 1_555
F24_2 C101_2 1_555 1_555
F27_2 C118_2 1_555 1_555
F28_2 C119_2 1_555 1_555
N18_2 Cd9 1_555 1_555
N21 Cd9 1_555 1_555
C91_2 H61_2 1_555 1_555
C94_2 C91_2 1_555 1_555
H64_2 C94_2 1_555 1_555
C95_2 C93_2 1_555 1_555
C96_2 C95_2 1_555 1_555
H65_2 C96_2 1_555 1_555
H66_2 C96_2 1_555 1_555
C97_2 C96_2 1_555 1_555
C98_2 C97_2 1_555 1_555
C99_2 C97_2 1_555 1_555
C100_2 C98_2 1_555 1_555
C101_2 C99_2 1_555 1_555
C102_2 C100_2 1_555 1_555
C103_2 C102_2 1_555 1_555
H67_2 C103_2 1_555 1_555
H68_2 C103_2 1_555 1_555
C104_2 C103_2 1_555 1_555
C105_2 C104_2 1_555 1_555
H69_2 C105_2 1_555 1_555
C106_2 C104_2 1_555 1_555
H70_2 C106_2 1_555 1_555
C107_2 N18_2 1_555 1_555
H71_2 C107_2 1_555 1_555
C108_2 N18_2 1_555 1_555
H72_2 C108_2 1_555 1_555
C120_2 C118_2 1_555 1_555
C121_2 C120_2 1_555 1_555
H79_2 C121_2 1_555 1_555
H80_2 C121_2 1_555 1_555
C122_2 C121_2 1_555 1_555
C123_2 C122_2 1_555 1_555
H81_2 C123_2 1_555 1_555
C124_2 C122_2 1_555 1_555
H82_2 C124_2 1_555 1_555
C125_2 N21 1_555 1_555
H83_2 C125_2 1_555 1_555
C126_2 N21 1_555 1_555
H84_2 C126_2 1_555 1_555
C94_2 C95_2 1_555 1_555
C101_2 C102_2 1_555 1_555
C105_2 C107_2 1_555 1_555
C106_2 C108_2 1_555 1_555
C119_2 C120_2 1_555 1_555
C123_2 C125_2 1_555 1_555
C124_2 C126_2 1_555 1_555

#END
