
###############################################################################
#
# This file contains modified crystal structure data generated from the
# MOF subset of the Cambridge Structural Database (CSD) v543 
# hosted by the Cambridge Crystallographic Data Centre (CCDC).
#
# This work is licensed under the Creative Commons
# Attribution-NonCommercial-ShareAlike 4.0 International License.
# To view a copy of this license, visit
# http://creativecommons.org/licenses/by-nc-sa/4.0/
# or send a letter to
# Creative Commons, PO Box 1866, Mountain View, CA 94042, USA.
#
# CIF created using the CSD Python API on 29 September 2022
# The structure has been converted into the P1 space group
# The structure has a 3D framework
# The original CSD entry MICNIW is in the monoclinic crystal system
# The framework has been calculated to contain at least 10.0% void space
# The void calculation uses a probe of radius 1.32A, grid spacing 0.4
#
###############################################################################

data_MICNIW
_chemical_formula_moiety         '(C144 H96 Cd6 F32 N24 O24)n'
_symmetry_cell_setting           triclinic
_symmetry_space_group_name_H-M   'P 1'
_symmetry_Int_Tables_number      1
_space_group_name_Hall           'P 1'
loop_
_symmetry_equiv_pos_site_id
_symmetry_equiv_pos_as_xyz
1 x,y,z
_cell_length_a                   17.170(5)
_cell_length_b                   19.060(5)
_cell_length_c                   16.690(5)
_cell_angle_alpha                90
_cell_angle_beta                 118.593(5)
_cell_angle_gamma                90
_cell_volume                     4795.84
loop_
_atom_site_label
_atom_site_type_symbol
_atom_site_fract_x
_atom_site_fract_y
_atom_site_fract_z
C4 C 0.58453(15) 0.24564(11) 0.01235(13)
H4 H 0.6286 0.2382 0.0738
C6 C 0.54010(14) 0.35468(10) 0.06405(13)
H5 H 0.4999 0.3400 0.0881
H6 H 0.6017 0.3521 0.1148
C7 C 0.51959(12) 0.42958(9) 0.03178(12)
Cd2 Cd 0.5000 0.879257(8) 0.2500
F5 F 0.63160(8) 0.58441(6) 0.01111(9)
F6 F 0.66841(7) 0.45155(6) 0.06975(8)
N4 N 0.48513(10) 0.79411(8) 0.14229(10)
C19 C 0.53703(13) 0.73742(10) 0.16440(13)
H13 H 0.5798 0.7308 0.2266
C20 C 0.42537(15) 0.80162(11) 0.05441(14)
H14 H 0.3877 0.8416 0.0370
C21 C 0.53176(13) 0.68788(10) 0.10166(13)
H15 H 0.5703 0.6485 0.1209
C23 C 0.46982(12) 0.69602(9) 0.01041(12)
C26 C 0.56513(12) 0.54304(10) 0.00477(12)
C27 C 0.58410(12) 0.47481(10) 0.03529(12)
Cd1 Cd 0.5000 0.120743(8) 0.7500
F1 F 0.36840(8) 0.41559(6) 0.98889(9)
F2 F 0.33159(7) 0.54845(6) 0.93025(8)
O1 O 0.35997(10) 0.10177(8) 0.75951(12)
O2 O 0.31906(15) 0.17934(9) 0.65381(13)
O3 O 0.24979(10) 0.17079(8) 0.73168(10)
N1 N 0.51487(10) 0.20589(8) 0.85771(10)
N2 N 0.44609(10) 0.03143(8) 0.63866(10)
N3 N 0.30850(11) 0.15065(9) 0.71452(11)
C1 C 0.46297(13) 0.26258(10) 0.83560(13)
H1 H 0.4202 0.2692 0.7734
C2 C 0.57463(15) 0.19838(11) 0.94559(14)
H2 H 0.6123 0.1584 0.9630
C3 C 0.46824(13) 0.31212(10) 0.89834(13)
H3 H 0.4297 0.3515 0.8791
C5 C 0.53018(12) 0.30398(9) 0.98959(12)
C8 C 0.43487(12) 0.45696(10) 0.99523(12)
C9 C 0.41590(12) 0.52519(10) 0.96471(12)
C10 C 0.35978(14) 0.01845(11) 0.58821(16)
H7 H 0.3189 0.0493 0.5933
O4 O 0.64003(10) 0.10177(8) 0.74049(12)
O5 O 0.68094(15) 0.17934(9) 0.84619(13)
O6 O 0.75021(10) 0.17079(8) 0.76832(10)
N5 N 0.48513(10) 0.20589(8) 0.64229(10)
N7 N 0.55391(10) 0.03143(8) 0.86134(10)
N8 N 0.69150(11) 0.15065(9) 0.78548(11)
C22 C 0.41547(15) 0.75436(11) 0.98765(13)
H16 H 0.3714 0.7618 0.9262
C24 C 0.45990(14) 0.64532(10) 0.93595(13)
H17 H 0.5001 0.6600 0.9119
H18 H 0.3983 0.6479 0.8852
C25 C 0.48041(12) 0.57042(9) 0.96822(12)
N6 N 0.55391(10) 0.96857(8) 0.36134(10)
C28 C 0.64022(14) 0.98155(11) 0.41179(16)
H19 H 0.6811 0.9507 0.4067
F1_2 F 0.63160(8) 0.41559(6) 0.51111(9)
F2_2 F 0.66841(7) 0.54845(6) 0.56975(8)
C1_2 C 0.53703(13) 0.26258(10) 0.66440(13)
H1_2 H 0.5798 0.2692 0.7266
C2_2 C 0.42537(15) 0.19838(11) 0.55441(14)
H2_2 H 0.3877 0.1584 0.5370
C3_2 C 0.53176(13) 0.31212(10) 0.60166(13)
H3_2 H 0.5703 0.3515 0.6209
C4_2 C 0.41547(15) 0.24564(11) 0.48765(13)
H4_2 H 0.3714 0.2382 0.4262
C5_2 C 0.46982(12) 0.30398(9) 0.51041(12)
C6_2 C 0.45990(14) 0.35468(10) 0.43595(13)
H5_2 H 0.5001 0.3400 0.4119
H6_2 H 0.3983 0.3521 0.3852
C7_2 C 0.48041(12) 0.42958(9) 0.46822(12)
C8_2 C 0.56513(12) 0.45696(10) 0.50477(12)
C9_2 C 0.58410(12) 0.52519(10) 0.53529(12)
C10_2 C 0.64022(14) 0.01845(11) 0.91179(16)
H7_2 H 0.6811 0.0493 0.9067
F5_2 F 0.36840(8) 0.58441(6) 0.48889(9)
F6_2 F 0.33159(7) 0.45155(6) 0.43025(8)
N4_2 N 0.51487(10) 0.79411(8) 0.35771(10)
C19_2 C 0.46297(13) 0.73742(10) 0.33560(13)
H13_2 H 0.4202 0.7308 0.2734
C20_2 C 0.57463(15) 0.80162(11) 0.44559(14)
H14_2 H 0.6123 0.8416 0.4630
C21_2 C 0.46824(13) 0.68788(10) 0.39834(13)
H15_2 H 0.4297 0.6485 0.3791
C22_2 C 0.58453(15) 0.75436(11) 0.51235(13)
H16_2 H 0.6286 0.7618 0.5738
C23_2 C 0.53018(12) 0.69602(9) 0.48959(12)
C24_2 C 0.54010(14) 0.64532(10) 0.56405(13)
H17_2 H 0.4999 0.6600 0.5881
H18_2 H 0.6017 0.6479 0.6148
C25_2 C 0.51959(12) 0.57042(9) 0.53178(12)
C26_2 C 0.43487(12) 0.54304(10) 0.49523(12)
C27_2 C 0.41590(12) 0.47481(10) 0.46471(12)
N6_2 N 0.44609(10) 0.96857(8) 0.13866(10)
C28_2 C 0.35978(14) 0.98155(11) 0.08821(16)
H19_2 H 0.3189 0.9507 0.0933
O1_2 O 0.64003(10) 0.89823(8) 0.24049(12)
O2_2 O 0.68094(15) 0.82066(9) 0.34619(13)
O3_2 O 0.75021(10) 0.82921(8) 0.26832(10)
N3_2 N 0.69150(11) 0.84935(9) 0.28548(11)
O4_2 O 0.35997(10) 0.89823(8) 0.25951(12)
O5_2 O 0.31906(15) 0.82066(9) 0.15381(13)
O6_2 O 0.24979(10) 0.82921(8) 0.23168(10)
N8_2 N 0.30850(11) 0.84935(9) 0.21452(11)
F3 F 0.42745(8) 0.76341(7) 0.60560(9)
F4 F 0.34148(9) 0.66552(7) 0.64616(9)
C11 C 0.50114(14) 0.98752(12) 0.62777(17)
H8 H 0.5631 0.9963 0.6616
C12 C 0.32676(14) 0.96226(12) 0.52877(17)
H9 H 0.2645 0.9555 0.4940
C13 C 0.47310(15) 0.93038(12) 0.57039(18)
H10 H 0.5152 0.9008 0.5656
C14 C 0.38353(13) 0.91617(9) 0.51977(12)
C15 C 0.34885(15) 0.85473(11) 0.45419(14)
H11 H 0.3103 0.8729 0.3919
H12 H 0.3996 0.8305 0.4538
C16 C 0.29685(14) 0.80206(9) 0.47759(14)
C17 C 0.33900(13) 0.75724(10) 0.55176(14)
C18 C 0.29379(14) 0.70668(10) 0.57282(14)
Cd3 Cd 0.0000 0.379257(8) 0.2500
F7 F 0.07255(8) 0.73659(7) 0.39440(9)
F8 F 0.15852(9) 0.83448(7) 0.35384(9)
N6_3 N 0.05391(10) 0.46857(8) 0.36134(10)
C28_3 C 0.14022(14) 0.48155(11) 0.41179(16)
H19_3 H 0.1811 0.4507 0.4067
C30 C 0.17324(14) 0.53774(12) 0.47123(17)
H21 H 0.2355 0.5445 0.5060
C31 C 0.02690(15) 0.56962(12) 0.42961(18)
C32 C 0.11647(13) 0.58383(9) 0.48023(12)
C33 C 0.15115(15) 0.64527(11) 0.54581(14)
H23 H 0.1897 0.6271 0.6081
H24 H 0.1004 0.6695 0.5462
C34 C 0.20315(14) 0.69794(9) 0.52241(14)
C35 C 0.16100(13) 0.74276(10) 0.44824(14)
C36 C 0.20621(14) 0.79332(10) 0.42718(14)
F5_3 F 0.13160(8) 0.08441(6) 0.01111(9)
C19_3 C 0.03703(13) 0.23742(10) 0.16440(13)
H13_3 H 0.0798 0.2308 0.2266
C21_3 C 0.03176(13) 0.18788(10) 0.10166(13)
H15_3 H 0.0703 0.1485 0.1209
C26_3 C 0.06513(12) 0.04304(10) 0.00477(12)
C29 C 0.00114(14) 0.51248(12) 0.12777(17)
H20 H 0.0631 0.5037 0.1616
H22 H 0.0152 0.5992 0.0656
F2_3 F 0.16841(7) 0.04845(6) 0.56975(8)
C9_3 C 0.08410(12) 0.02519(10) 0.53529(12)
N4_3 N 0.01487(10) 0.29411(8) 0.35771(10)
C20_3 C 0.07463(15) 0.30162(11) 0.44559(14)
H14_3 H 0.1123 0.3416 0.4630
C22_3 C 0.08453(15) 0.25436(11) 0.51235(13)
H16_3 H 0.1286 0.2618 0.5738
C23_3 C 0.03018(12) 0.19602(9) 0.48959(12)
C24_3 C 0.04010(14) 0.14532(10) 0.56405(13)
H18_3 H 0.1017 0.1479 0.6148
C25_3 C 0.01959(12) 0.07042(9) 0.53178(12)
O1_3 O 0.14003(10) 0.39823(8) 0.24049(12)
O2_3 O 0.18094(15) 0.32066(9) 0.34619(13)
O3_3 O 0.25021(10) 0.32921(8) 0.26832(10)
N3_3 N 0.19150(11) 0.34935(9) 0.28548(11)
Cd3_2 Cd 1.0000 0.379257(8) 0.2500
C29_2 C 0.99886(14) 0.51248(12) 0.37223(17)
H20_2 H 0.9369 0.5037 0.3384
H22_2 H 0.9848 0.5992 0.4344
N4_4 N 0.98513(10) 0.29411(8) 0.14229(10)
C20_4 C 0.92537(15) 0.30162(11) 0.05441(14)
H14_4 H 0.8877 0.3416 0.0370
C23_4 C 0.96982(12) 0.19602(9) 0.01041(12)
H9_2 H 0.7355 0.9555 0.0060
C15_2 C 0.65115(15) 0.85473(11) 0.04581(14)
H11_2 H 0.6897 0.8729 0.1081
H12_2 H 0.6004 0.8305 0.0462
C16_2 C 0.70315(14) 0.80206(9) 0.02241(14)
F7_2 F 0.92745(8) 0.73659(7) 0.10560(9)
F8_2 F 0.84148(9) 0.83448(7) 0.14616(9)
N6_4 N 0.94609(10) 0.46857(8) 0.13866(10)
C28_4 C 0.85978(14) 0.48155(11) 0.08821(16)
H19_4 H 0.8189 0.4507 0.0933
C30_2 C 0.82676(14) 0.53774(12) 0.02877(17)
C31_2 C 0.97310(15) 0.56962(12) 0.07039(18)
C32_2 C 0.88353(13) 0.58383(9) 0.01977(12)
C35_2 C 0.83900(13) 0.74276(10) 0.05176(14)
C36_2 C 0.79379(14) 0.79332(10) 0.07282(14)
F5_4 F 0.86840(8) 0.08441(6) 0.48889(9)
C19_4 C 0.96297(13) 0.23742(10) 0.33560(13)
H13_4 H 0.9202 0.2308 0.2734
C21_4 C 0.96824(13) 0.18788(10) 0.39834(13)
H15_4 H 0.9297 0.1485 0.3791
H17_3 H 0.9999 0.1600 0.5881
C26_4 C 0.93487(12) 0.04304(10) 0.49523(12)
O4_3 O 0.85997(10) 0.39823(8) 0.25951(12)
O5_3 O 0.81906(15) 0.32066(9) 0.15381(13)
O6_3 O 0.74979(10) 0.32921(8) 0.23168(10)
N8_3 N 0.80850(11) 0.34935(9) 0.21452(11)
H17_4 H 0.0001 0.1600 0.9119
C4_3 C 0.08453(15) 0.74564(11) 0.01235(13)
H4_3 H 0.1286 0.7382 0.0738
C6_3 C 0.04010(14) 0.85468(10) 0.06405(13)
H6_3 H 0.1017 0.8521 0.1148
C7_3 C 0.01959(12) 0.92958(9) 0.03178(12)
F6_3 F 0.16841(7) 0.95155(6) 0.06975(8)
C27_3 C 0.08410(12) 0.97481(10) 0.03529(12)
Cd1_2 Cd 0.0000 0.620743(8) 0.7500
N1_2 N 0.01487(10) 0.70589(8) 0.85771(10)
C2_3 C 0.07463(15) 0.69838(11) 0.94559(14)
H2_3 H 0.1123 0.6584 0.9630
C5_3 C 0.03018(12) 0.80398(9) 0.98959(12)
C11_2 C 0.00114(14) 0.48752(12) 0.62777(17)
H8_2 H 0.0631 0.4963 0.6616
H10_2 H 0.0152 0.4008 0.5656
O4_4 O 0.14003(10) 0.60177(8) 0.74049(12)
O5_4 O 0.18094(15) 0.67934(9) 0.84619(13)
O6_4 O 0.25021(10) 0.67079(8) 0.76832(10)
N7_2 N 0.05391(10) 0.53143(8) 0.86134(10)
N8_4 N 0.19150(11) 0.65065(9) 0.78548(11)
F1_3 F 0.13160(8) 0.91559(6) 0.51111(9)
F3_2 F 0.07255(8) 0.26341(7) 0.89440(9)
F4_2 F 0.15852(9) 0.16552(7) 0.85384(9)
C1_3 C 0.03703(13) 0.76258(10) 0.66440(13)
H1_3 H 0.0798 0.7692 0.7266
C3_3 C 0.03176(13) 0.81212(10) 0.60166(13)
H3_3 H 0.0703 0.8515 0.6209
H5_3 H 0.0001 0.8400 0.4119
C8_3 C 0.06513(12) 0.95696(10) 0.50477(12)
C10_3 C 0.14022(14) 0.51845(11) 0.91179(16)
H7_3 H 0.1811 0.5493 0.9067
C12_2 C 0.17324(14) 0.46226(12) 0.97123(17)
C13_2 C 0.02690(15) 0.43038(12) 0.92961(18)
C14_2 C 0.11647(13) 0.41617(9) 0.98023(12)
C17_2 C 0.16100(13) 0.25724(10) 0.94824(14)
C18_2 C 0.20621(14) 0.20668(10) 0.92718(14)
H21_2 H 0.2645 0.0445 0.9940
C33_2 C 0.34885(15) 0.14527(11) 0.95419(14)
H23_2 H 0.3103 0.1271 0.8919
H24_2 H 0.3996 0.1695 0.9538
C34_2 C 0.29685(14) 0.19794(9) 0.97759(14)
F2_4 F 0.83159(7) 0.04845(6) 0.93025(8)
C9_4 C 0.91590(12) 0.02519(10) 0.96471(12)
C22_4 C 0.91547(15) 0.25436(11) 0.98765(13)
H16_4 H 0.8714 0.2618 0.9262
C24_4 C 0.95990(14) 0.14532(10) 0.93595(13)
H18_4 H 0.8983 0.1479 0.8852
C25_4 C 0.98041(12) 0.07042(9) 0.96822(12)
H5_4 H 0.9999 0.8400 0.0881
Cd1_3 Cd 1.0000 0.620743(8) 0.7500
F1_4 F 0.86840(8) 0.91559(6) 0.98889(9)
F3_3 F 0.92745(8) 0.26341(7) 0.60560(9)
F4_3 F 0.84148(9) 0.16552(7) 0.64616(9)
O1_4 O 0.85997(10) 0.60177(8) 0.75951(12)
O2_4 O 0.81906(15) 0.67934(9) 0.65381(13)
O3_4 O 0.74979(10) 0.67079(8) 0.73168(10)
N2_2 N 0.94609(10) 0.53143(8) 0.63866(10)
N3_4 N 0.80850(11) 0.65065(9) 0.71452(11)
C1_4 C 0.96297(13) 0.76258(10) 0.83560(13)
H1_4 H 0.9202 0.7692 0.7734
C3_4 C 0.96824(13) 0.81212(10) 0.89834(13)
H3_4 H 0.9297 0.8515 0.8791
C8_4 C 0.93487(12) 0.95696(10) 0.99523(12)
C10_4 C 0.85978(14) 0.51845(11) 0.58821(16)
H7_4 H 0.8189 0.5493 0.5933
C12_3 C 0.82676(14) 0.46226(12) 0.52877(17)
H9_3 H 0.7645 0.4555 0.4940
C13_3 C 0.97310(15) 0.43038(12) 0.57039(18)
C14_3 C 0.88353(13) 0.41617(9) 0.51977(12)
C15_3 C 0.84885(15) 0.35473(11) 0.45419(14)
H11_3 H 0.8103 0.3729 0.3919
H12_3 H 0.8996 0.3305 0.4538
C16_3 C 0.79685(14) 0.30206(9) 0.47759(14)
C17_3 C 0.83900(13) 0.25724(10) 0.55176(14)
C18_3 C 0.79379(14) 0.20668(10) 0.57282(14)
F7_3 F 0.57255(8) 0.23659(7) 0.39440(9)
F8_3 F 0.65852(9) 0.33448(7) 0.35384(9)
N5_2 N 0.98513(10) 0.70589(8) 0.64229(10)
C29_3 C 0.49886(14) 0.01248(12) 0.37223(17)
H20_3 H 0.4369 0.0037 0.3384
C30_3 C 0.67324(14) 0.03774(12) 0.47123(17)
H21_3 H 0.7355 0.0445 0.5060
C31_3 C 0.52690(15) 0.06962(12) 0.42961(18)
H22_3 H 0.4848 0.0992 0.4344
C32_3 C 0.61647(13) 0.08383(9) 0.48023(12)
C33_3 C 0.65115(15) 0.14527(11) 0.54581(14)
H23_3 H 0.6897 0.1271 0.6081
H24_3 H 0.6004 0.1695 0.5462
C34_3 C 0.70315(14) 0.19794(9) 0.52241(14)
C35_3 C 0.66100(13) 0.24276(10) 0.44824(14)
C36_3 C 0.70621(14) 0.29332(10) 0.42718(14)
C2_4 C 0.92537(15) 0.69838(11) 0.55441(14)
H2_4 H 0.8877 0.6584 0.5370
C4_4 C 0.91547(15) 0.74564(11) 0.48765(13)
H4_4 H 0.8714 0.7382 0.4262
C5_4 C 0.96982(12) 0.80398(9) 0.51041(12)
C6_4 C 0.95990(14) 0.85468(10) 0.43595(13)
H6_4 H 0.8983 0.8521 0.3852
C7_4 C 0.98041(12) 0.92958(9) 0.46822(12)
C11_3 C 0.99886(14) 0.48752(12) 0.87223(17)
H8_3 H 0.9369 0.4963 0.8384
H10_3 H 0.9848 0.4008 0.9344
F6_4 F 0.83159(7) 0.95155(6) 0.43025(8)
C27_4 C 0.91590(12) 0.97481(10) 0.46471(12)
F3_4 F 0.57255(8) 0.76341(7) 0.89440(9)
F4_4 F 0.65852(9) 0.66552(7) 0.85384(9)
C11_4 C 0.49886(14) 0.98752(12) 0.87223(17)
H8_4 H 0.4369 0.9963 0.8384
C12_4 C 0.67324(14) 0.96226(12) 0.97123(17)
C13_4 C 0.52690(15) 0.93038(12) 0.92961(18)
H10_4 H 0.4848 0.9008 0.9344
C14_4 C 0.61647(13) 0.91617(9) 0.98023(12)
C17_4 C 0.66100(13) 0.75724(10) 0.94824(14)
C18_4 C 0.70621(14) 0.70668(10) 0.92718(14)
H21_4 H 0.7645 0.5445 0.9940
C33_4 C 0.84885(15) 0.64527(11) 0.95419(14)
H23_4 H 0.8103 0.6271 0.8919
H24_4 H 0.8996 0.6695 0.9538
C34_4 C 0.79685(14) 0.69794(9) 0.97759(14)
H9_4 H 0.2355 0.4555 0.0060
C15_4 C 0.15115(15) 0.35473(11) 0.04581(14)
H11_4 H 0.1897 0.3729 0.1081
H12_4 H 0.1004 0.3305 0.0462
C16_4 C 0.20315(14) 0.30206(9) 0.02241(14)
F7_4 F 0.42745(8) 0.23659(7) 0.10560(9)
F8_4 F 0.34148(9) 0.33448(7) 0.14616(9)
C29_4 C 0.50114(14) 0.01248(12) 0.12777(17)
H20_4 H 0.5631 0.0037 0.1616
C30_4 C 0.32676(14) 0.03774(12) 0.02877(17)
C31_4 C 0.47310(15) 0.06962(12) 0.07039(18)
H22_4 H 0.5152 0.0992 0.0656
C32_4 C 0.38353(13) 0.08383(9) 0.01977(12)
C35_4 C 0.33900(13) 0.24276(10) 0.05176(14)
C36_4 C 0.29379(14) 0.29332(10) 0.07282(14)
loop_
_geom_bond_atom_site_label_1
_geom_bond_atom_site_label_2
_geom_bond_site_symmetry_1
_geom_bond_site_symmetry_2
H4 C4 1_555 1_555
H5 C6 1_555 1_555
H6 C6 1_555 1_555
C7 C6 1_555 1_555
Cd2 N4 1_555 1_555
F5 C26 1_555 1_555
F6 C27 1_555 1_555
N4 C19 1_555 1_555
C19 H13 1_555 1_555
C20 N4 1_555 1_555
H14 C20 1_555 1_555
C21 C19 1_555 1_555
H15 C21 1_555 1_555
C23 C21 1_555 1_555
C27 C7 1_555 1_555
C26 C27 1_555 1_555
Cd1 O1 1_555 1_555
F1 C8 1_555 1_555
F2 C9 1_555 1_555
O1 N3 1_555 1_555
O2 N3 1_555 1_555
O3 N3 1_555 1_555
N1 Cd1 1_555 1_555
N2 Cd1 1_555 1_555
C1 N1 1_555 1_555
H1 C1 1_555 1_555
C2 N1 1_555 1_555
H2 C2 1_555 1_555
C3 C1 1_555 1_555
H3 C3 1_555 1_555
C5 C3 1_555 1_555
C9 C8 1_555 1_555
C10 N2 1_555 1_555
H7 C10 1_555 1_555
O4 Cd1 1_555 1_555
O5 N8 1_555 1_555
O6 N8 1_555 1_555
N5 Cd1 1_555 1_555
N7 Cd1 1_555 1_555
N8 O4 1_555 1_555
H16 C22 1_555 1_555
H17 C24 1_555 1_555
H18 C24 1_555 1_555
C25 C9 1_555 1_555
C24 C25 1_555 1_555
Cd2 N6 1_555 1_555
N6 C28 1_555 1_555
C28 H19 1_555 1_555
F1_2 C8_2 1_555 1_555
F2_2 C9_2 1_555 1_555
C1_2 N5 1_555 1_555
H1_2 C1_2 1_555 1_555
C2_2 N5 1_555 1_555
H2_2 C2_2 1_555 1_555
C3_2 C1_2 1_555 1_555
H3_2 C3_2 1_555 1_555
C4_2 C2_2 1_555 1_555
H4_2 C4_2 1_555 1_555
C5_2 C3_2 1_555 1_555
C6_2 C5_2 1_555 1_555
H5_2 C6_2 1_555 1_555
H6_2 C6_2 1_555 1_555
C7_2 C6_2 1_555 1_555
C8_2 C7_2 1_555 1_555
C9_2 C8_2 1_555 1_555
C10_2 N7 1_555 1_555
H7_2 C10_2 1_555 1_555
Cd2 N4_2 1_555 1_555
F5_2 C26_2 1_555 1_555
F6_2 C27_2 1_555 1_555
N4_2 C19_2 1_555 1_555
C19_2 H13_2 1_555 1_555
C20_2 N4_2 1_555 1_555
H14_2 C20_2 1_555 1_555
C21_2 C19_2 1_555 1_555
H15_2 C21_2 1_555 1_555
C22_2 C20_2 1_555 1_555
H16_2 C22_2 1_555 1_555
C23_2 C21_2 1_555 1_555
C24_2 C23_2 1_555 1_555
H17_2 C24_2 1_555 1_555
H18_2 C24_2 1_555 1_555
C25_2 C9_2 1_555 1_555
C26_2 C25_2 1_555 1_555
C27_2 C7_2 1_555 1_555
C4_2 C5_2 1_555 1_555
C22_2 C23_2 1_555 1_555
C24_2 C25_2 1_555 1_555
C26_2 C27_2 1_555 1_555
Cd2 N6_2 1_555 1_555
N6_2 C28_2 1_555 1_555
C28_2 H19_2 1_555 1_555
Cd2 O1_2 1_555 1_555
O1_2 N3_2 1_555 1_555
O2_2 N3_2 1_555 1_555
O3_2 N3_2 1_555 1_555
O4_2 Cd2 1_555 1_555
O5_2 N8_2 1_555 1_555
O6_2 N8_2 1_555 1_555
N8_2 O4_2 1_555 1_555
F3 C17 1_555 1_555
F4 C18 1_555 1_555
H8 C11 1_555 1_555
H9 C12 1_555 1_555
C13 C11 1_555 1_555
H10 C13 1_555 1_555
C14 C12 1_555 1_555
C15 C14 1_555 1_555
H11 C15 1_555 1_555
H12 C15 1_555 1_555
C16 C15 1_555 1_555
C17 C16 1_555 1_555
C18 C17 1_555 1_555
Cd3 N6_3 1_555 1_555
F7 C35 1_555 1_555
F8 C36 1_555 1_555
N6_3 C28_3 1_555 1_555
C28_3 H19_3 1_555 1_555
C30 C28_3 1_555 1_555
H21 C30 1_555 1_555
C32 C30 1_555 1_555
C33 C32 1_555 1_555
H23 C33 1_555 1_555
H24 C33 1_555 1_555
C34 C18 1_555 1_555
C35 C34 1_555 1_555
C36 C16 1_555 1_555
C13 C14 1_555 1_555
C31 C32 1_555 1_555
C33 C34 1_555 1_555
C35 C36 1_555 1_555
F5_3 C26_3 1_555 1_555
C19_3 H13_3 1_555 1_555
C21_3 C19_3 1_555 1_555
H15_3 C21_3 1_555 1_555
H20 C29 1_555 1_555
F2_3 C9_3 1_555 1_555
Cd3 N4_3 1_555 1_555
C20_3 N4_3 1_555 1_555
H14_3 C20_3 1_555 1_555
C22_3 C20_3 1_555 1_555
H16_3 C22_3 1_555 1_555
C24_3 C23_3 1_555 1_555
H18_3 C24_3 1_555 1_555
C25_3 C9_3 1_555 1_555
C22_3 C23_3 1_555 1_555
C24_3 C25_3 1_555 1_555
Cd3 O1_3 1_555 1_555
O1_3 N3_3 1_555 1_555
O2_3 N3_3 1_555 1_555
O3_3 N3_3 1_555 1_555
H20_2 C29_2 1_555 1_555
Cd3_2 N4_4 1_555 1_555
C20_4 N4_4 1_555 1_555
H14_4 C20_4 1_555 1_555
H11_2 C15_2 1_555 1_555
H12_2 C15_2 1_555 1_555
C16_2 C15_2 1_555 1_555
Cd3_2 N6_4 1_555 1_555
F7_2 C35_2 1_555 1_555
F8_2 C36_2 1_555 1_555
N6_4 C28_4 1_555 1_555
C28_4 H19_4 1_555 1_555
C30_2 C28_4 1_555 1_555
C32_2 C30_2 1_555 1_555
C36_2 C16_2 1_555 1_555
C31_2 C32_2 1_555 1_555
C35_2 C36_2 1_555 1_555
F5_4 C26_4 1_555 1_555
C19_4 H13_4 1_555 1_555
C21_4 C19_4 1_555 1_555
H15_4 C21_4 1_555 1_555
O4_3 Cd3_2 1_555 1_555
O5_3 N8_3 1_555 1_555
O6_3 N8_3 1_555 1_555
N8_3 O4_3 1_555 1_555
H4_3 C4_3 1_555 1_555
H6_3 C6_3 1_555 1_555
C7_3 C6_3 1_555 1_555
F6_3 C27_3 1_555 1_555
C27_3 C7_3 1_555 1_555
N1_2 Cd1_2 1_555 1_555
C2_3 N1_2 1_555 1_555
H2_3 C2_3 1_555 1_555
H8_2 C11_2 1_555 1_555
O4_4 Cd1_2 1_555 1_555
O5_4 N8_4 1_555 1_555
O6_4 N8_4 1_555 1_555
N7_2 Cd1_2 1_555 1_555
N8_4 O4_4 1_555 1_555
F1_3 C8_3 1_555 1_555
F3_2 C17_2 1_555 1_555
F4_2 C18_2 1_555 1_555
H1_3 C1_3 1_555 1_555
C3_3 C1_3 1_555 1_555
H3_3 C3_3 1_555 1_555
C10_3 N7_2 1_555 1_555
H7_3 C10_3 1_555 1_555
C12_2 C10_3 1_555 1_555
C14_2 C12_2 1_555 1_555
C18_2 C17_2 1_555 1_555
H23_2 C33_2 1_555 1_555
H24_2 C33_2 1_555 1_555
C34_2 C18_2 1_555 1_555
C13_2 C14_2 1_555 1_555
C33_2 C34_2 1_555 1_555
F2_4 C9_4 1_555 1_555
H16_4 C22_4 1_555 1_555
H18_4 C24_4 1_555 1_555
C25_4 C9_4 1_555 1_555
C24_4 C25_4 1_555 1_555
Cd1_3 O1_4 1_555 1_555
F1_4 C8_4 1_555 1_555
F3_3 C17_3 1_555 1_555
F4_3 C18_3 1_555 1_555
O1_4 N3_4 1_555 1_555
O2_4 N3_4 1_555 1_555
O3_4 N3_4 1_555 1_555
N2_2 Cd1_3 1_555 1_555
H1_4 C1_4 1_555 1_555
C3_4 C1_4 1_555 1_555
H3_4 C3_4 1_555 1_555
C10_4 N2_2 1_555 1_555
H7_4 C10_4 1_555 1_555
C12_3 C10_4 1_555 1_555
H9_3 C12_3 1_555 1_555
C14_3 C12_3 1_555 1_555
C15_3 C14_3 1_555 1_555
H11_3 C15_3 1_555 1_555
H12_3 C15_3 1_555 1_555
C16_3 C15_3 1_555 1_555
C17_3 C16_3 1_555 1_555
C18_3 C17_3 1_555 1_555
F7_3 C35_3 1_555 1_555
F8_3 C36_3 1_555 1_555
N5_2 Cd1_3 1_555 1_555
H20_3 C29_3 1_555 1_555
H21_3 C30_3 1_555 1_555
C31_3 C29_3 1_555 1_555
H22_3 C31_3 1_555 1_555
C32_3 C30_3 1_555 1_555
C33_3 C32_3 1_555 1_555
H23_3 C33_3 1_555 1_555
H24_3 C33_3 1_555 1_555
C34_3 C18_3 1_555 1_555
C35_3 C34_3 1_555 1_555
C36_3 C16_3 1_555 1_555
C13_3 C14_3 1_555 1_555
C31_3 C32_3 1_555 1_555
C33_3 C34_3 1_555 1_555
C35_3 C36_3 1_555 1_555
C2_4 N5_2 1_555 1_555
H2_4 C2_4 1_555 1_555
C4_4 C2_4 1_555 1_555
H4_4 C4_4 1_555 1_555
C6_4 C5_4 1_555 1_555
H6_4 C6_4 1_555 1_555
C7_4 C6_4 1_555 1_555
H8_3 C11_3 1_555 1_555
F6_4 C27_4 1_555 1_555
C27_4 C7_4 1_555 1_555
C4_4 C5_4 1_555 1_555
F3_4 C17_4 1_555 1_555
F4_4 C18_4 1_555 1_555
H8_4 C11_4 1_555 1_555
C13_4 C11_4 1_555 1_555
H10_4 C13_4 1_555 1_555
C14_4 C12_4 1_555 1_555
C18_4 C17_4 1_555 1_555
H23_4 C33_4 1_555 1_555
H24_4 C33_4 1_555 1_555
C34_4 C18_4 1_555 1_555
C13_4 C14_4 1_555 1_555
C33_4 C34_4 1_555 1_555
H11_4 C15_4 1_555 1_555
H12_4 C15_4 1_555 1_555
C16_4 C15_4 1_555 1_555
F7_4 C35_4 1_555 1_555
F8_4 C36_4 1_555 1_555
H20_4 C29_4 1_555 1_555
C31_4 C29_4 1_555 1_555
H22_4 C31_4 1_555 1_555
C32_4 C30_4 1_555 1_555
C36_4 C16_4 1_555 1_555
C31_4 C32_4 1_555 1_555
C35_4 C36_4 1_555 1_555

#END
