
###############################################################################
#
# This file contains modified crystal structure data generated from the
# MOF subset of the Cambridge Structural Database (CSD) v543 
# hosted by the Cambridge Crystallographic Data Centre (CCDC).
#
# This work is licensed under the Creative Commons
# Attribution-NonCommercial-ShareAlike 4.0 International License.
# To view a copy of this license, visit
# http://creativecommons.org/licenses/by-nc-sa/4.0/
# or send a letter to
# Creative Commons, PO Box 1866, Mountain View, CA 94042, USA.
#
# CIF created using the CSD Python API on 29 September 2022
# The structure has been converted into the P1 space group
# The structure has a 3D framework
# The original CSD entry MICNES is in the monoclinic crystal system
# The framework has been calculated to contain at least 10.0% void space
# The void calculation uses a probe of radius 1.32A, grid spacing 0.4
#
###############################################################################

data_MICNES
_chemical_formula_moiety         '(C144 H96 Cd6 F32 N24 O24)n'
_symmetry_cell_setting           triclinic
_symmetry_space_group_name_H-M   'P 1'
_symmetry_Int_Tables_number      1
_space_group_name_Hall           'P 1'
loop_
_symmetry_equiv_pos_site_id
_symmetry_equiv_pos_as_xyz
1 x,y,z
_cell_length_a                   18.9509(17)
_cell_length_b                   19.1159(17)
_cell_length_c                   17.1188(16)
_cell_angle_alpha                90
_cell_angle_beta                 121.116(2)
_cell_angle_gamma                90
_cell_volume                     5309.26
loop_
_atom_site_label
_atom_site_type_symbol
_atom_site_fract_x
_atom_site_fract_y
_atom_site_fract_z
C6 C 0.61680(17) 0.38311(12) 0.05637(18)
C7 C 0.55617(14) 0.44302(10) 0.02745(14)
H3 H 0.7037(16) 0.2801(12) 0.0461(19)
H5 H 0.6662(19) 0.3958(14) 0.068(2)
H6 H 0.6321(17) 0.3645(12) 0.113(2)
Cd2 Cd 0.5000 0.874616(9) 0.2500
F5 F 0.39899(9) 0.51047(8) 0.06675(10)
F6 F 0.50559(10) 0.40490(7) 0.12002(10)
N4 N 0.45913(10) 0.78967(8) 0.13252(11)
C19 C 0.38173(15) 0.78048(11) 0.06583(16)
C20 C 0.51432(14) 0.74433(12) 0.13673(18)
C21 C 0.35606(15) 0.72598(12) 0.00407(16)
C22 C 0.49361(15) 0.68817(12) 0.07788(18)
C23 C 0.41224(13) 0.67742(10) 0.01063(14)
C26 C 0.44878(14) 0.50604(11) 0.03262(15)
C27 C 0.50329(15) 0.45097(10) 0.05887(14)
H13 H 0.3353(17) 0.8189(13) 0.0564(18)
H14 H 0.5719(15) 0.7504(11) 0.1868(16)
H16 H 0.5372(16) 0.6566(12) 0.0874(17)
Cd1 Cd 0.5000 0.125384(9) 0.7500
F1 F 0.60101(9) 0.48953(8) 0.93325(10)
F2 F 0.49441(10) 0.59510(7) 0.87998(10)
O1 O 0.35606(11) 0.15518(8) 0.70976(11)
O2 O 0.40463(10) 0.08546(8) 0.82514(12)
O3 O 0.27915(10) 0.12113(8) 0.76092(12)
N1 N 0.54087(10) 0.21033(8) 0.86748(11)
N2 N 0.42660(11) 0.03574(8) 0.64458(11)
N3 N 0.34560(11) 0.12053(8) 0.76568(12)
C1 C 0.61827(15) 0.21952(11) 0.93417(16)
C2 C 0.48568(14) 0.25567(12) 0.86327(18)
C3 C 0.64394(15) 0.27402(12) 0.99593(16)
C4 C 0.50639(15) 0.31183(12) 0.92212(18)
C5 C 0.58776(13) 0.32258(10) 0.98937(14)
C8 C 0.55122(14) 0.49396(11) 0.96738(15)
C9 C 0.49671(15) 0.54903(10) 0.94113(14)
C10 C 0.41298(15) 0.03428(11) 0.56017(14)
H1 H 0.6647(17) 0.1811(13) 0.9436(18)
H2 H 0.4281(15) 0.2496(11) 0.8132(16)
H4 H 0.4628(16) 0.3434(12) 0.9126(17)
H7 H 0.4421(14) 0.0690(12) 0.5477(16)
O4 O 0.64394(11) 0.15518(8) 0.79024(11)
O5 O 0.59537(10) 0.08546(8) 0.67486(12)
O6 O 0.72085(10) 0.12113(8) 0.73908(12)
N5 N 0.45913(10) 0.21033(8) 0.63252(11)
N7 N 0.57340(11) 0.03574(8) 0.85542(11)
N8 N 0.65440(11) 0.12053(8) 0.73432(12)
C24 C 0.38320(17) 0.61689(12) 0.94363(18)
C25 C 0.44383(14) 0.55698(10) 0.97255(14)
H15 H 0.2963(16) 0.7199(12) 0.9539(19)
H17 H 0.3338(19) 0.6042(14) 0.932(2)
H18 H 0.3679(17) 0.6355(12) 0.887(2)
N6 N 0.57340(11) 0.96426(8) 0.35542(11)
C28 C 0.58702(15) 0.96572(11) 0.43983(14)
H19 H 0.5579(14) 0.9310(12) 0.4523(16)
F1_2 F 0.39899(9) 0.48953(8) 0.56675(10)
F2_2 F 0.50559(10) 0.59510(7) 0.62002(10)
C1_2 C 0.38173(15) 0.21952(11) 0.56583(16)
C2_2 C 0.51432(14) 0.25567(12) 0.63673(18)
C3_2 C 0.35606(15) 0.27402(12) 0.50407(16)
C4_2 C 0.49361(15) 0.31183(12) 0.57788(18)
C5_2 C 0.41224(13) 0.32258(10) 0.51063(14)
C6_2 C 0.38320(17) 0.38311(12) 0.44363(18)
C7_2 C 0.44383(14) 0.44302(10) 0.47255(14)
C8_2 C 0.44878(14) 0.49396(11) 0.53262(15)
C9_2 C 0.50329(15) 0.54903(10) 0.55887(14)
C10_2 C 0.58702(15) 0.03428(11) 0.93983(14)
H1_2 H 0.3353(17) 0.1811(13) 0.5564(18)
H2_2 H 0.5719(15) 0.2496(11) 0.6868(16)
H3_2 H 0.2963(16) 0.2801(12) 0.4539(19)
H4_2 H 0.5372(16) 0.3434(12) 0.5874(17)
H5_2 H 0.3338(19) 0.3958(14) 0.432(2)
H6_2 H 0.3679(17) 0.3645(12) 0.387(2)
H7_2 H 0.5579(14) 0.0690(12) 0.9523(16)
F5_2 F 0.60101(9) 0.51047(8) 0.43325(10)
F6_2 F 0.49441(10) 0.40490(7) 0.37998(10)
N4_2 N 0.54087(10) 0.78967(8) 0.36748(11)
C19_2 C 0.61827(15) 0.78048(11) 0.43417(16)
C20_2 C 0.48568(14) 0.74433(12) 0.36327(18)
C21_2 C 0.64394(15) 0.72598(12) 0.49593(16)
C22_2 C 0.50639(15) 0.68817(12) 0.42212(18)
C23_2 C 0.58776(13) 0.67742(10) 0.48937(14)
C24_2 C 0.61680(17) 0.61689(12) 0.55637(18)
C25_2 C 0.55617(14) 0.55698(10) 0.52745(14)
C26_2 C 0.55122(14) 0.50604(11) 0.46738(15)
C27_2 C 0.49671(15) 0.45097(10) 0.44113(14)
H13_2 H 0.6647(17) 0.8189(13) 0.4436(18)
H14_2 H 0.4281(15) 0.7504(11) 0.3132(16)
H15_2 H 0.7037(16) 0.7199(12) 0.5461(19)
H16_2 H 0.4628(16) 0.6566(12) 0.4126(17)
H17_2 H 0.6662(19) 0.6042(14) 0.568(2)
H18_2 H 0.6321(17) 0.6355(12) 0.613(2)
N6_2 N 0.42660(11) 0.96426(8) 0.14458(11)
C28_2 C 0.41298(15) 0.96572(11) 0.06017(14)
H19_2 H 0.4421(14) 0.9310(12) 0.0477(16)
O1_2 O 0.64394(11) 0.84482(8) 0.29024(11)
O2_2 O 0.59537(10) 0.91454(8) 0.17486(12)
O3_2 O 0.72085(10) 0.87887(8) 0.23908(12)
N3_2 N 0.65440(11) 0.87947(8) 0.23432(12)
O4_2 O 0.35606(11) 0.84482(8) 0.20976(11)
O5_2 O 0.40463(10) 0.91454(8) 0.32514(12)
O6_2 O 0.27915(10) 0.87887(8) 0.26092(12)
N8_2 N 0.34560(11) 0.87947(8) 0.26568(12)
F3 F 0.35189(8) 0.78340(6) 0.43890(9)
F4 F 0.34735(9) 0.65231(6) 0.48843(10)
C11 C 0.38714(15) 0.98761(10) 0.66484(15)
C12 C 0.35934(16) 0.98794(11) 0.49451(15)
C13 C 0.33259(15) 0.94032(11) 0.60299(15)
C14 C 0.31570(12) 0.94090(9) 0.51427(13)
C15 C 0.25238(15) 0.89345(11) 0.44068(15)
C16 C 0.25151(13) 0.82000(9) 0.47234(13)
C17 C 0.30091(13) 0.76802(10) 0.46933(14)
C18 C 0.29855(13) 0.70029(10) 0.49529(14)
H8 H 0.4002(15) 0.9887(12) 0.7248(17)
H9 H 0.3485(14) 0.9887(11) 0.4371(17)
H10 H 0.3052(14) 0.9116(12) 0.6190(16)
H11 H 0.2631(13) 0.8905(10) 0.3932(16)
H12 H 0.1988(15) 0.9118(11) 0.4198(15)
Cd3 Cd 0.0000 0.374616(9) 0.2500
F7 F 0.14811(8) 0.71660(6) 0.56110(9)
F8 F 0.15265(9) 0.84769(6) 0.51157(10)
N6_3 N 0.07340(11) 0.46426(8) 0.35542(11)
C28_3 C 0.08702(15) 0.46572(11) 0.43983(14)
C29 C 0.11286(15) 0.51239(10) 0.33516(15)
C30 C 0.14066(16) 0.51206(11) 0.50549(15)
C31 C 0.16741(15) 0.55968(11) 0.39701(15)
C32 C 0.18430(12) 0.55910(9) 0.48573(13)
C33 C 0.24762(15) 0.60655(11) 0.55932(15)
C34 C 0.24849(13) 0.68000(9) 0.52766(13)
C35 C 0.19909(13) 0.73198(10) 0.53067(14)
C36 C 0.20145(13) 0.79971(10) 0.50471(14)
H19_3 H 0.0579(14) 0.4310(12) 0.4523(16)
H20 H 0.0998(15) 0.5113(12) 0.2752(17)
H21 H 0.1515(14) 0.5113(11) 0.5629(17)
H22 H 0.1948(14) 0.5884(12) 0.3810(16)
H23 H 0.2369(13) 0.6095(10) 0.6068(16)
H24 H 0.3012(15) 0.5882(11) 0.5802(15)
C20_3 C 0.01432(14) 0.24433(12) 0.13673(18)
H14_3 H 0.0719(15) 0.2504(11) 0.1868(16)
H16_3 H 0.0372(16) 0.1566(12) 0.0874(17)
F2_3 F 0.00559(10) 0.09510(7) 0.62002(10)
C9_3 C 0.00329(15) 0.04903(10) 0.55887(14)
F5_3 F 0.10101(9) 0.01047(8) 0.43325(10)
N4_3 N 0.04087(10) 0.28967(8) 0.36748(11)
C19_3 C 0.11827(15) 0.28048(11) 0.43417(16)
C21_3 C 0.14394(15) 0.22598(12) 0.49593(16)
C22_3 C 0.00639(15) 0.18817(12) 0.42212(18)
C23_3 C 0.08776(13) 0.17742(10) 0.48937(14)
C24_3 C 0.11680(17) 0.11689(12) 0.55637(18)
C25_3 C 0.05617(14) 0.05698(10) 0.52745(14)
C26_3 C 0.05122(14) 0.00604(11) 0.46738(15)
H13_3 H 0.1647(17) 0.3189(13) 0.4436(18)
H15_3 H 0.2037(16) 0.2199(12) 0.5461(19)
H17_3 H 0.1662(19) 0.1042(14) 0.568(2)
H18_3 H 0.1321(17) 0.1355(12) 0.613(2)
O1_3 O 0.14394(11) 0.34482(8) 0.29024(11)
O2_3 O 0.09537(10) 0.41454(8) 0.17486(12)
O3_3 O 0.22085(10) 0.37887(8) 0.23908(12)
N3_3 N 0.15440(11) 0.37947(8) 0.23432(12)
Cd3_2 Cd 1.0000 0.374616(9) 0.2500
F5_4 F 0.89899(9) 0.01047(8) 0.06675(10)
N4_4 N 0.95913(10) 0.28967(8) 0.13252(11)
C19_4 C 0.88173(15) 0.28048(11) 0.06583(16)
C21_4 C 0.85606(15) 0.22598(12) 0.00407(16)
C22_4 C 0.99361(15) 0.18817(12) 0.07788(18)
C23_4 C 0.91224(13) 0.17742(10) 0.01063(14)
C26_4 C 0.94878(14) 0.00604(11) 0.03262(15)
H13_4 H 0.8353(17) 0.3189(13) 0.0564(18)
F3_2 F 0.64811(8) 0.78340(6) 0.06110(9)
F4_2 F 0.65265(9) 0.65231(6) 0.01157(10)
C12_2 C 0.64066(16) 0.98794(11) 0.00549(15)
C15_2 C 0.74762(15) 0.89345(11) 0.05932(15)
C16_2 C 0.74849(13) 0.82000(9) 0.02766(13)
C17_2 C 0.69909(13) 0.76802(10) 0.03067(14)
C18_2 C 0.70145(13) 0.70029(10) 0.00471(14)
H9_2 H 0.6515(14) 0.9887(11) 0.0629(17)
H11_2 H 0.7369(13) 0.8905(10) 0.1068(16)
H12_2 H 0.8012(15) 0.9118(11) 0.0802(15)
N6_4 N 0.92660(11) 0.46426(8) 0.14458(11)
C28_4 C 0.91298(15) 0.46572(11) 0.06017(14)
C29_2 C 0.88714(15) 0.51239(10) 0.16484(15)
C31_2 C 0.83259(15) 0.55968(11) 0.10299(15)
C32_2 C 0.81570(12) 0.55910(9) 0.01427(13)
H19_4 H 0.9421(14) 0.4310(12) 0.0477(16)
H20_2 H 0.9002(15) 0.5113(12) 0.2248(17)
H22_2 H 0.8052(14) 0.5884(12) 0.1190(16)
C20_4 C 0.98568(14) 0.24433(12) 0.36327(18)
H14_4 H 0.9281(15) 0.2504(11) 0.3132(16)
H16_4 H 0.9628(16) 0.1566(12) 0.4126(17)
O4_3 O 0.85606(11) 0.34482(8) 0.20976(11)
O5_3 O 0.90463(10) 0.41454(8) 0.32514(12)
O6_3 O 0.77915(10) 0.37887(8) 0.26092(12)
N8_3 N 0.84560(11) 0.37947(8) 0.26568(12)
C6_3 C 0.11680(17) 0.88311(12) 0.05637(18)
C7_3 C 0.05617(14) 0.94302(10) 0.02745(14)
H3_3 H 0.2037(16) 0.7801(12) 0.0461(19)
H5_3 H 0.1662(19) 0.8958(14) 0.068(2)
H6_3 H 0.1321(17) 0.8645(12) 0.113(2)
F6_3 F 0.00559(10) 0.90490(7) 0.12002(10)
C27_3 C 0.00329(15) 0.95097(10) 0.05887(14)
Cd1_2 Cd 0.0000 0.625384(9) 0.7500
F1_3 F 0.10101(9) 0.98953(8) 0.93325(10)
N1_2 N 0.04087(10) 0.71033(8) 0.86748(11)
C1_3 C 0.11827(15) 0.71952(11) 0.93417(16)
C3_3 C 0.14394(15) 0.77402(12) 0.99593(16)
C4_3 C 0.00639(15) 0.81183(12) 0.92212(18)
C5_3 C 0.08776(13) 0.82258(10) 0.98937(14)
C8_3 C 0.05122(14) 0.99396(11) 0.96738(15)
H1_3 H 0.1647(17) 0.6811(13) 0.9436(18)
O4_4 O 0.14394(11) 0.65518(8) 0.79024(11)
O5_4 O 0.09537(10) 0.58546(8) 0.67486(12)
O6_4 O 0.22085(10) 0.62113(8) 0.73908(12)
N7_2 N 0.07340(11) 0.53574(8) 0.85542(11)
N8_4 N 0.15440(11) 0.62053(8) 0.73432(12)
C2_3 C 0.01432(14) 0.75567(12) 0.63673(18)
C10_3 C 0.08702(15) 0.53428(11) 0.93983(14)
C11_2 C 0.11286(15) 0.48761(10) 0.83516(15)
C13_2 C 0.16741(15) 0.44032(11) 0.89701(15)
C14_2 C 0.18430(12) 0.44090(9) 0.98573(13)
H2_3 H 0.0719(15) 0.7496(11) 0.6868(16)
H4_3 H 0.0372(16) 0.8434(12) 0.5874(17)
H7_3 H 0.0579(14) 0.5690(12) 0.9523(16)
H8_2 H 0.0998(15) 0.4887(12) 0.7752(17)
H10_2 H 0.1948(14) 0.4116(12) 0.8810(16)
F7_2 F 0.35189(8) 0.21660(6) 0.93890(9)
F8_2 F 0.34735(9) 0.34769(6) 0.98843(10)
C30_2 C 0.35934(16) 0.01206(11) 0.99451(15)
C33_2 C 0.25238(15) 0.10655(11) 0.94068(15)
C34_2 C 0.25151(13) 0.18000(9) 0.97234(13)
C35_2 C 0.30091(13) 0.23198(10) 0.96933(14)
C36_2 C 0.29855(13) 0.29971(10) 0.99529(14)
H21_2 H 0.3485(14) 0.0113(11) 0.9371(17)
H23_2 H 0.2631(13) 0.1095(10) 0.8932(16)
H24_2 H 0.1988(15) 0.0882(11) 0.9198(15)
F2_4 F 0.99441(10) 0.09510(7) 0.87998(10)
C9_4 C 0.99671(15) 0.04903(10) 0.94113(14)
C24_4 C 0.88320(17) 0.11689(12) 0.94363(18)
C25_4 C 0.94383(14) 0.05698(10) 0.97255(14)
H15_4 H 0.7963(16) 0.2199(12) 0.9539(19)
H17_4 H 0.8338(19) 0.1042(14) 0.932(2)
H18_4 H 0.8679(17) 0.1355(12) 0.887(2)
Cd1_3 Cd 1.0000 0.625384(9) 0.7500
F3_3 F 0.85189(8) 0.28340(6) 0.43890(9)
F4_3 F 0.84735(9) 0.15231(6) 0.48843(10)
O1_4 O 0.85606(11) 0.65518(8) 0.70976(11)
O2_4 O 0.90463(10) 0.58546(8) 0.82514(12)
O3_4 O 0.77915(10) 0.62113(8) 0.76092(12)
N2_2 N 0.92660(11) 0.53574(8) 0.64458(11)
N3_4 N 0.84560(11) 0.62053(8) 0.76568(12)
C2_4 C 0.98568(14) 0.75567(12) 0.86327(18)
C10_4 C 0.91298(15) 0.53428(11) 0.56017(14)
C11_3 C 0.88714(15) 0.48761(10) 0.66484(15)
C12_3 C 0.85934(16) 0.48794(11) 0.49451(15)
C13_3 C 0.83259(15) 0.44032(11) 0.60299(15)
C14_3 C 0.81570(12) 0.44090(9) 0.51427(13)
C15_3 C 0.75238(15) 0.39345(11) 0.44068(15)
C16_3 C 0.75151(13) 0.32000(9) 0.47234(13)
C17_3 C 0.80091(13) 0.26802(10) 0.46933(14)
C18_3 C 0.79855(13) 0.20029(10) 0.49529(14)
H2_4 H 0.9281(15) 0.7496(11) 0.8132(16)
H4_4 H 0.9628(16) 0.8434(12) 0.9126(17)
H7_4 H 0.9421(14) 0.5690(12) 0.5477(16)
H8_3 H 0.9002(15) 0.4887(12) 0.7248(17)
H9_3 H 0.8485(14) 0.4887(11) 0.4371(17)
H10_3 H 0.8052(14) 0.4116(12) 0.6190(16)
H11_3 H 0.7631(13) 0.3905(10) 0.3932(16)
H12_3 H 0.6988(15) 0.4118(11) 0.4198(15)
F7_3 F 0.64811(8) 0.21660(6) 0.56110(9)
F8_3 F 0.65265(9) 0.34769(6) 0.51157(10)
N5_2 N 0.95913(10) 0.71033(8) 0.63252(11)
C29_3 C 0.61286(15) 0.01239(10) 0.33516(15)
C30_3 C 0.64066(16) 0.01206(11) 0.50549(15)
C31_3 C 0.66741(15) 0.05968(11) 0.39701(15)
C32_3 C 0.68430(12) 0.05910(9) 0.48573(13)
C33_3 C 0.74762(15) 0.10655(11) 0.55932(15)
C34_3 C 0.74849(13) 0.18000(9) 0.52766(13)
C35_3 C 0.69909(13) 0.23198(10) 0.53067(14)
C36_3 C 0.70145(13) 0.29971(10) 0.50471(14)
H20_3 H 0.5998(15) 0.0113(12) 0.2752(17)
H21_3 H 0.6515(14) 0.0113(11) 0.5629(17)
H22_3 H 0.6948(14) 0.0884(12) 0.3810(16)
H23_3 H 0.7369(13) 0.1095(10) 0.6068(16)
H24_3 H 0.8012(15) 0.0882(11) 0.5802(15)
F1_4 F 0.89899(9) 0.98953(8) 0.56675(10)
C1_4 C 0.88173(15) 0.71952(11) 0.56583(16)
C3_4 C 0.85606(15) 0.77402(12) 0.50407(16)
C4_4 C 0.99361(15) 0.81183(12) 0.57788(18)
C5_4 C 0.91224(13) 0.82258(10) 0.51063(14)
C6_4 C 0.88320(17) 0.88311(12) 0.44363(18)
C7_4 C 0.94383(14) 0.94302(10) 0.47255(14)
C8_4 C 0.94878(14) 0.99396(11) 0.53262(15)
H1_4 H 0.8353(17) 0.6811(13) 0.5564(18)
H3_4 H 0.7963(16) 0.7801(12) 0.4539(19)
H5_4 H 0.8338(19) 0.8958(14) 0.432(2)
H6_4 H 0.8679(17) 0.8645(12) 0.387(2)
F6_4 F 0.99441(10) 0.90490(7) 0.37998(10)
C27_4 C 0.99671(15) 0.95097(10) 0.44113(14)
C11_4 C 0.61286(15) 0.98761(10) 0.83516(15)
C13_4 C 0.66741(15) 0.94032(11) 0.89701(15)
C14_4 C 0.68430(12) 0.94090(9) 0.98573(13)
H8_4 H 0.5998(15) 0.9887(12) 0.7752(17)
H10_4 H 0.6948(14) 0.9116(12) 0.8810(16)
F7_4 F 0.85189(8) 0.71660(6) 0.93890(9)
F8_4 F 0.84735(9) 0.84769(6) 0.98843(10)
C30_4 C 0.85934(16) 0.51206(11) 0.99451(15)
C33_4 C 0.75238(15) 0.60655(11) 0.94068(15)
C34_4 C 0.75151(13) 0.68000(9) 0.97234(13)
C35_4 C 0.80091(13) 0.73198(10) 0.96933(14)
C36_4 C 0.79855(13) 0.79971(10) 0.99529(14)
H21_4 H 0.8485(14) 0.5113(11) 0.9371(17)
H23_4 H 0.7631(13) 0.6095(10) 0.8932(16)
H24_4 H 0.6988(15) 0.5882(11) 0.9198(15)
F3_4 F 0.14811(8) 0.28340(6) 0.06110(9)
F4_4 F 0.15265(9) 0.15231(6) 0.01157(10)
C12_4 C 0.14066(16) 0.48794(11) 0.00549(15)
C15_4 C 0.24762(15) 0.39345(11) 0.05932(15)
C16_4 C 0.24849(13) 0.32000(9) 0.02766(13)
C17_4 C 0.19909(13) 0.26802(10) 0.03067(14)
C18_4 C 0.20145(13) 0.20029(10) 0.00471(14)
H9_4 H 0.1515(14) 0.4887(11) 0.0629(17)
H11_4 H 0.2369(13) 0.3905(10) 0.1068(16)
H12_4 H 0.3012(15) 0.4118(11) 0.0802(15)
C29_4 C 0.38714(15) 0.01239(10) 0.16484(15)
C31_4 C 0.33259(15) 0.05968(11) 0.10299(15)
C32_4 C 0.31570(12) 0.05910(9) 0.01427(13)
H20_4 H 0.4002(15) 0.0113(12) 0.2248(17)
H22_4 H 0.3052(14) 0.0884(12) 0.1190(16)
loop_
_geom_bond_atom_site_label_1
_geom_bond_atom_site_label_2
_geom_bond_site_symmetry_1
_geom_bond_site_symmetry_2
C7 C6 1_555 1_555
H5 C6 1_555 1_555
H6 C6 1_555 1_555
Cd2 N4 1_555 1_555
F5 C26 1_555 1_555
F6 C27 1_555 1_555
N4 C19 1_555 1_555
C19 C21 1_555 1_555
C20 N4 1_555 1_555
C21 C23 1_555 1_555
C22 C20 1_555 1_555
C23 C22 1_555 1_555
C27 C7 1_555 1_555
H13 C19 1_555 1_555
H14 C20 1_555 1_555
H16 C22 1_555 1_555
C26 C27 1_555 1_555
Cd1 O1 1_555 1_555
F1 C8 1_555 1_555
F2 C9 1_555 1_555
O1 N3 1_555 1_555
O2 N3 1_555 1_555
O3 N3 1_555 1_555
N1 Cd1 1_555 1_555
N2 Cd1 1_555 1_555
C1 N1 1_555 1_555
C2 N1 1_555 1_555
C3 C1 1_555 1_555
C4 C2 1_555 1_555
C5 C3 1_555 1_555
C9 C8 1_555 1_555
C10 N2 1_555 1_555
H1 C1 1_555 1_555
H2 C2 1_555 1_555
H4 C4 1_555 1_555
H7 C10 1_555 1_555
O4 Cd1 1_555 1_555
O5 N8 1_555 1_555
O6 N8 1_555 1_555
N5 Cd1 1_555 1_555
N7 Cd1 1_555 1_555
N8 O4 1_555 1_555
C25 C9 1_555 1_555
H17 C24 1_555 1_555
H18 C24 1_555 1_555
C4 C5 1_555 1_555
C24 C25 1_555 1_555
Cd2 N6 1_555 1_555
N6 C28 1_555 1_555
H19 C28 1_555 1_555
F1_2 C8_2 1_555 1_555
F2_2 C9_2 1_555 1_555
C1_2 N5 1_555 1_555
C2_2 N5 1_555 1_555
C3_2 C1_2 1_555 1_555
C4_2 C2_2 1_555 1_555
C5_2 C3_2 1_555 1_555
C6_2 C5_2 1_555 1_555
C7_2 C6_2 1_555 1_555
C8_2 C7_2 1_555 1_555
C9_2 C8_2 1_555 1_555
C10_2 N7 1_555 1_555
H1_2 C1_2 1_555 1_555
H2_2 C2_2 1_555 1_555
H3_2 C3_2 1_555 1_555
H4_2 C4_2 1_555 1_555
H5_2 C6_2 1_555 1_555
H6_2 C6_2 1_555 1_555
H7_2 C10_2 1_555 1_555
Cd2 N4_2 1_555 1_555
F5_2 C26_2 1_555 1_555
F6_2 C27_2 1_555 1_555
N4_2 C19_2 1_555 1_555
C19_2 C21_2 1_555 1_555
C20_2 N4_2 1_555 1_555
C21_2 C23_2 1_555 1_555
C22_2 C20_2 1_555 1_555
C23_2 C22_2 1_555 1_555
C24_2 C23_2 1_555 1_555
C25_2 C9_2 1_555 1_555
C26_2 C25_2 1_555 1_555
C27_2 C7_2 1_555 1_555
H13_2 C19_2 1_555 1_555
H14_2 C20_2 1_555 1_555
H15_2 C21_2 1_555 1_555
H16_2 C22_2 1_555 1_555
H17_2 C24_2 1_555 1_555
H18_2 C24_2 1_555 1_555
C4_2 C5_2 1_555 1_555
C24_2 C25_2 1_555 1_555
C26_2 C27_2 1_555 1_555
Cd2 N6_2 1_555 1_555
N6_2 C28_2 1_555 1_555
H19_2 C28_2 1_555 1_555
Cd2 O1_2 1_555 1_555
O1_2 N3_2 1_555 1_555
O2_2 N3_2 1_555 1_555
O3_2 N3_2 1_555 1_555
O4_2 Cd2 1_555 1_555
O5_2 N8_2 1_555 1_555
O6_2 N8_2 1_555 1_555
N8_2 O4_2 1_555 1_555
F3 C17 1_555 1_555
F4 C18 1_555 1_555
C13 C11 1_555 1_555
C14 C12 1_555 1_555
C15 C14 1_555 1_555
C16 C15 1_555 1_555
C17 C16 1_555 1_555
C18 C17 1_555 1_555
H8 C11 1_555 1_555
H9 C12 1_555 1_555
H10 C13 1_555 1_555
H11 C15 1_555 1_555
H12 C15 1_555 1_555
Cd3 N6_3 1_555 1_555
F7 C35 1_555 1_555
F8 C36 1_555 1_555
N6_3 C28_3 1_555 1_555
C28_3 C30 1_555 1_555
C29 N6_3 1_555 1_555
C30 C32 1_555 1_555
C31 C29 1_555 1_555
C32 C31 1_555 1_555
C33 C32 1_555 1_555
C34 C18 1_555 1_555
C35 C34 1_555 1_555
C36 C16 1_555 1_555
H19_3 C28_3 1_555 1_555
H20 C29 1_555 1_555
H21 C30 1_555 1_555
H22 C31 1_555 1_555
H23 C33 1_555 1_555
H24 C33 1_555 1_555
C13 C14 1_555 1_555
C33 C34 1_555 1_555
C35 C36 1_555 1_555
H14_3 C20_3 1_555 1_555
F2_3 C9_3 1_555 1_555
Cd3 N4_3 1_555 1_555
F5_3 C26_3 1_555 1_555
N4_3 C19_3 1_555 1_555
C19_3 C21_3 1_555 1_555
C21_3 C23_3 1_555 1_555
C23_3 C22_3 1_555 1_555
C24_3 C23_3 1_555 1_555
C25_3 C9_3 1_555 1_555
C26_3 C25_3 1_555 1_555
H13_3 C19_3 1_555 1_555
H15_3 C21_3 1_555 1_555
H17_3 C24_3 1_555 1_555
H18_3 C24_3 1_555 1_555
C24_3 C25_3 1_555 1_555
Cd3 O1_3 1_555 1_555
O1_3 N3_3 1_555 1_555
O2_3 N3_3 1_555 1_555
O3_3 N3_3 1_555 1_555
Cd3_2 N4_4 1_555 1_555
F5_4 C26_4 1_555 1_555
N4_4 C19_4 1_555 1_555
C19_4 C21_4 1_555 1_555
C21_4 C23_4 1_555 1_555
C23_4 C22_4 1_555 1_555
H13_4 C19_4 1_555 1_555
F3_2 C17_2 1_555 1_555
F4_2 C18_2 1_555 1_555
C16_2 C15_2 1_555 1_555
C17_2 C16_2 1_555 1_555
C18_2 C17_2 1_555 1_555
H9_2 C12_2 1_555 1_555
H11_2 C15_2 1_555 1_555
H12_2 C15_2 1_555 1_555
Cd3_2 N6_4 1_555 1_555
N6_4 C28_4 1_555 1_555
C29_2 N6_4 1_555 1_555
C31_2 C29_2 1_555 1_555
C32_2 C31_2 1_555 1_555
H19_4 C28_4 1_555 1_555
H20_2 C29_2 1_555 1_555
H22_2 C31_2 1_555 1_555
H14_4 C20_4 1_555 1_555
O4_3 Cd3_2 1_555 1_555
O5_3 N8_3 1_555 1_555
O6_3 N8_3 1_555 1_555
N8_3 O4_3 1_555 1_555
C7_3 C6_3 1_555 1_555
H5_3 C6_3 1_555 1_555
H6_3 C6_3 1_555 1_555
F6_3 C27_3 1_555 1_555
C27_3 C7_3 1_555 1_555
F1_3 C8_3 1_555 1_555
N1_2 Cd1_2 1_555 1_555
C1_3 N1_2 1_555 1_555
C3_3 C1_3 1_555 1_555
C5_3 C3_3 1_555 1_555
H1_3 C1_3 1_555 1_555
O4_4 Cd1_2 1_555 1_555
O5_4 N8_4 1_555 1_555
O6_4 N8_4 1_555 1_555
N7_2 Cd1_2 1_555 1_555
N8_4 O4_4 1_555 1_555
C4_3 C5_3 1_555 1_555
C10_3 N7_2 1_555 1_555
C11_2 N7_2 1_555 1_555
C13_2 C11_2 1_555 1_555
H2_3 C2_3 1_555 1_555
H7_3 C10_3 1_555 1_555
H8_2 C11_2 1_555 1_555
H10_2 C13_2 1_555 1_555
F7_2 C35_2 1_555 1_555
F8_2 C36_2 1_555 1_555
C35_2 C34_2 1_555 1_555
H21_2 C30_2 1_555 1_555
H23_2 C33_2 1_555 1_555
H24_2 C33_2 1_555 1_555
C13_2 C14_2 1_555 1_555
C33_2 C34_2 1_555 1_555
C35_2 C36_2 1_555 1_555
F2_4 C9_4 1_555 1_555
C25_4 C9_4 1_555 1_555
H17_4 C24_4 1_555 1_555
H18_4 C24_4 1_555 1_555
C24_4 C25_4 1_555 1_555
Cd1_3 O1_4 1_555 1_555
F3_3 C17_3 1_555 1_555
F4_3 C18_3 1_555 1_555
O1_4 N3_4 1_555 1_555
O2_4 N3_4 1_555 1_555
O3_4 N3_4 1_555 1_555
N2_2 Cd1_3 1_555 1_555
C10_4 N2_2 1_555 1_555
C11_3 N2_2 1_555 1_555
C12_3 C10_4 1_555 1_555
C13_3 C11_3 1_555 1_555
C14_3 C12_3 1_555 1_555
C15_3 C14_3 1_555 1_555
C16_3 C15_3 1_555 1_555
C17_3 C16_3 1_555 1_555
C18_3 C17_3 1_555 1_555
H2_4 C2_4 1_555 1_555
H7_4 C10_4 1_555 1_555
H8_3 C11_3 1_555 1_555
H9_3 C12_3 1_555 1_555
H10_3 C13_3 1_555 1_555
H11_3 C15_3 1_555 1_555
H12_3 C15_3 1_555 1_555
F7_3 C35_3 1_555 1_555
F8_3 C36_3 1_555 1_555
N5_2 Cd1_3 1_555 1_555
C30_3 C32_3 1_555 1_555
C31_3 C29_3 1_555 1_555
C32_3 C31_3 1_555 1_555
C33_3 C32_3 1_555 1_555
C34_3 C18_3 1_555 1_555
C35_3 C34_3 1_555 1_555
C36_3 C16_3 1_555 1_555
H20_3 C29_3 1_555 1_555
H21_3 C30_3 1_555 1_555
H22_3 C31_3 1_555 1_555
H23_3 C33_3 1_555 1_555
H24_3 C33_3 1_555 1_555
C13_3 C14_3 1_555 1_555
C33_3 C34_3 1_555 1_555
C35_3 C36_3 1_555 1_555
F1_4 C8_4 1_555 1_555
C1_4 N5_2 1_555 1_555
C3_4 C1_4 1_555 1_555
C5_4 C3_4 1_555 1_555
C6_4 C5_4 1_555 1_555
C7_4 C6_4 1_555 1_555
C8_4 C7_4 1_555 1_555
H1_4 C1_4 1_555 1_555
H3_4 C3_4 1_555 1_555
H5_4 C6_4 1_555 1_555
H6_4 C6_4 1_555 1_555
F6_4 C27_4 1_555 1_555
C27_4 C7_4 1_555 1_555
C4_4 C5_4 1_555 1_555
C13_4 C11_4 1_555 1_555
H8_4 C11_4 1_555 1_555
H10_4 C13_4 1_555 1_555
F7_4 C35_4 1_555 1_555
F8_4 C36_4 1_555 1_555
C35_4 C34_4 1_555 1_555
H21_4 C30_4 1_555 1_555
H23_4 C33_4 1_555 1_555
H24_4 C33_4 1_555 1_555
C13_4 C14_4 1_555 1_555
C33_4 C34_4 1_555 1_555
C35_4 C36_4 1_555 1_555
F3_4 C17_4 1_555 1_555
F4_4 C18_4 1_555 1_555
C16_4 C15_4 1_555 1_555
C17_4 C16_4 1_555 1_555
C18_4 C17_4 1_555 1_555
H9_4 C12_4 1_555 1_555
H11_4 C15_4 1_555 1_555
H12_4 C15_4 1_555 1_555
C31_4 C29_4 1_555 1_555
C32_4 C31_4 1_555 1_555
H20_4 C29_4 1_555 1_555
H22_4 C31_4 1_555 1_555

#END
