
###############################################################################
#
# This file contains modified crystal structure data generated from the
# MOF subset of the Cambridge Structural Database (CSD) v543 
# hosted by the Cambridge Crystallographic Data Centre (CCDC).
#
# This work is licensed under the Creative Commons
# Attribution-NonCommercial-ShareAlike 4.0 International License.
# To view a copy of this license, visit
# http://creativecommons.org/licenses/by-nc-sa/4.0/
# or send a letter to
# Creative Commons, PO Box 1866, Mountain View, CA 94042, USA.
#
# CIF created using the CSD Python API on 29 September 2022
# The structure has been converted into the P1 space group
# The structure has a 3D framework
# The original CSD entry MIDCAF is in the tetragonal crystal system
# The original CSD entry MIDCAF is in a Sohncke space group
# The framework has been calculated to contain at least 10.0% void space
# The void calculation uses a probe of radius 1.32A, grid spacing 0.4
# H atom positions have been added when not included in the experimental data
#
###############################################################################

data_MIDCAF
_chemical_formula_moiety         '(C192 H112 N24 O56 Zn14)n'
_symmetry_cell_setting           triclinic
_symmetry_space_group_name_H-M   'P 1'
_symmetry_Int_Tables_number      1
_space_group_name_Hall           'P 1'
loop_
_symmetry_equiv_pos_site_id
_symmetry_equiv_pos_as_xyz
1 x,y,z
_cell_length_a                   25.5599(15)
_cell_length_b                   25.5599(15)
_cell_length_c                   12.7833(12)
_cell_angle_alpha                90
_cell_angle_beta                 90
_cell_angle_gamma                90
_cell_volume                     8351.44
loop_
_atom_site_label
_atom_site_type_symbol
_atom_site_fract_x
_atom_site_fract_y
_atom_site_fract_z
Zn1 Zn 0.12514(11) 0.12514(11) 0.0000
N1 N 0.3061(12) 0.4257(15) 0.0067(19)
O2 O 0.0979(8) 0.2557(8) 0.1305(17)
O5 O 0.4381(7) 0.6522(8) 0.2414(17)
O6 O 0.3702(6) 0.6276(6) 0.3345(14)
C1 C 0.1266(15) 0.2466(14) 0.055(3)
C3 C 0.4034(13) 0.6237(16) 0.258(3)
C8 C 0.222(2) 0.3572(13) 0.057(4)
H1 H 0.2286 0.3869 0.0993
C9 C 0.1829(15) 0.322(2) 0.084(3)
H2 H 0.1663 0.3246 0.1499
C10 C 0.1680(14) 0.2826(15) 0.016(4)
C19 C 0.3581(17) 0.4980(14) 0.059(3)
C20 C 0.4049(15) 0.5253(16) 0.044(2)
C21 C 0.4171(12) 0.5675(14) 0.107(3)
H10 H 0.4481 0.5869 0.0950
C22 C 0.3846(17) 0.5814(13) 0.189(3)
C23 C 0.3388(15) 0.5538(16) 0.203(2)
H11 H 0.3167 0.5625 0.2604
C24 C 0.3241(12) 0.5138(14) 0.137(3)
H12 H 0.2910 0.4973 0.1442
Zn2 Zn 0.04442(12) 0.20515(11) 0.1605(3)
N5 N 0.3693(9) 0.3265(14) 0.138(3)
N6 N 0.4443(11) 0.3788(9) 0.103(3)
O8 O 0.2064(7) 0.1223(6) 0.0073(15)
O10 O 0.3777(6) 0.5425(6) 0.5028(17)
O11 O 0.3124(7) 0.4950(8) 0.5546(17)
C26 C 0.3483(13) 0.5076(13) 0.502(3)
C28 C 0.3836(17) 0.2944(16) 0.057(3)
C29 C 0.4042(17) 0.3646(16) 0.167(4)
C30 C 0.4572(15) 0.3470(16) 0.020(4)
C31 C 0.3484(17) 0.2499(15) 0.034(4)
C35 C 0.2751(12) 0.1958(19) 0.075(4)
H15 H 0.2466 0.1875 0.1201
C36 C 0.3089(19) 0.2351(16) 0.102(3)
H16 H 0.3052 0.2525 0.1668
C37 C 0.394(2) 0.4000(18) 0.254(3)
C38 C 0.3459(17) 0.3939(11) 0.300(3)
H17 H 0.3220 0.3680 0.2759
C39 C 0.3335(12) 0.4273(18) 0.382(3)
H18 H 0.3015 0.4234 0.4188
C40 C 0.369(2) 0.4662(15) 0.408(3)
C41 C 0.4156(16) 0.4719(12) 0.356(3)
H19 H 0.4390 0.4990 0.3759
C42 C 0.4290(12) 0.4389(17) 0.275(3)
H20 H 0.4605 0.4431 0.2368
H21 H 0.5150 0.4284 0.0099
Zn4 Zn 0.37486(11) 0.62514(11) 0.5000
O16 O 0.0425(6) 0.1223(6) 0.0028(17)
O20 O 0.0619(7) 0.1522(8) 0.2586(17)
O22 O 0.1298(6) 0.1276(6) 0.1655(14)
Zn6 Zn 0.29485(11) 0.54442(12) 0.6605(3)
Zn9 Zn 0.45558(12) 0.70515(11) 0.3395(3)
C27 C 0.0966(13) 0.1237(16) 0.242(3)
C44 C 0.0951(15) 0.0253(16) 0.456(2)
H21_2 H 0.0716 0.0150 0.5099
C45 C 0.0829(12) 0.0675(14) 0.393(3)
H22 H 0.0519 0.0869 0.4050
C46 C 0.1154(17) 0.0814(13) 0.311(3)
C47 C 0.1612(15) 0.0538(16) 0.297(2)
H23 H 0.1833 0.0625 0.2396
C48 C 0.1759(12) 0.0138(14) 0.363(3)
N1_2 N 0.0743(15) 0.8061(12) 0.5067(19)
N2 N 0.1307(9) 0.8265(14) 0.362(3)
N3 N 0.0557(11) 0.8788(9) 0.397(3)
O1 O 0.2936(7) 0.6223(6) 0.4927(15)
O2_2 O 0.2443(8) 0.5979(8) 0.6305(17)
C1_2 C 0.2534(14) 0.6266(15) 0.555(3)
C4 C 0.1164(17) 0.7944(16) 0.443(3)
C5 C 0.0958(17) 0.8646(16) 0.333(4)
C6 C 0.0428(15) 0.8470(16) 0.480(4)
C7 C 0.1516(17) 0.7499(15) 0.466(4)
C8_2 C 0.1428(13) 0.722(2) 0.557(4)
H1_2 H 0.1131 0.7286 0.5993
C9_2 C 0.178(2) 0.6829(15) 0.584(3)
H2_2 H 0.1754 0.6663 0.6499
C10_2 C 0.2174(15) 0.6680(14) 0.516(4)
C11 C 0.2249(12) 0.6958(19) 0.425(4)
H3 H 0.2534 0.6875 0.3799
C12 C 0.1911(19) 0.7351(16) 0.398(3)
H4 H 0.1948 0.7525 0.3332
C13 C 0.106(2) 0.9000(18) 0.246(3)
C14 C 0.1541(17) 0.8939(11) 0.200(3)
H5 H 0.1780 0.8680 0.2241
C15 C 0.1665(12) 0.9273(18) 0.118(3)
H6 H 0.1985 0.9234 0.0812
C16 C 0.131(2) 0.9662(15) 0.092(3)
C17 C 0.0844(16) 0.9719(12) 0.144(3)
H7 H 0.0610 0.9990 0.1241
C18 C 0.0710(12) 0.9389(17) 0.225(3)
H8 H 0.0395 0.9431 0.2632
C19_2 C 0.0020(14) 0.8581(17) 0.559(3)
H12_2 H 0.0027 0.7910 0.6442
O7 O 0.2519(7) 0.4953(7) 0.7548(15)
N4 N 0.1939(12) 0.9257(15) 0.4933(19)
N5_2 N 0.1735(14) 0.8693(9) 0.638(3)
N6_2 N 0.1212(9) 0.9443(11) 0.603(3)
O8_2 O 0.3777(6) 0.7064(7) 0.5073(15)
O9 O 0.4021(8) 0.7557(8) 0.3695(17)
C25 C 0.3734(15) 0.7466(14) 0.445(3)
C28_2 C 0.2056(16) 0.8836(17) 0.557(3)
C29_2 C 0.1354(16) 0.9042(17) 0.667(4)
C30_2 C 0.1530(16) 0.9572(15) 0.520(4)
C31_2 C 0.2501(15) 0.8484(17) 0.534(4)
C32 C 0.278(2) 0.8572(13) 0.443(4)
H13 H 0.2714 0.8869 0.4007
C33 C 0.3171(15) 0.822(2) 0.416(3)
H14 H 0.3337 0.8246 0.3501
C34 C 0.3320(14) 0.7826(15) 0.484(4)
C35_2 C 0.3042(19) 0.7751(12) 0.575(4)
H15_2 H 0.3125 0.7466 0.6201
C36_2 C 0.2649(16) 0.8089(19) 0.602(3)
H16_2 H 0.2475 0.8052 0.6668
C37_2 C 0.1000(18) 0.894(2) 0.754(3)
C38_2 C 0.1061(11) 0.8459(17) 0.800(3)
H17_2 H 0.1320 0.8220 0.7759
C39_2 C 0.0727(18) 0.8335(12) 0.882(3)
H18_2 H 0.0766 0.8015 0.9188
C40_2 C 0.0338(15) 0.869(2) 0.908(3)
C41_2 C 0.0281(12) 0.9156(16) 0.856(3)
H19_2 H 0.0010 0.9390 0.8759
C42_2 C 0.0611(17) 0.9290(12) 0.775(3)
H20_2 H 0.0569 0.9605 0.7368
C43 C 0.1419(17) 0.9980(14) 0.441(3)
H24 H 0.2090 0.9973 0.3558
O14 O 0.5047(7) 0.7481(7) 0.2452(15)
O15 O 0.4575(6) 0.6223(6) 0.4972(17)
O17 O 0.5050(8) 0.6876(7) 0.4454(17)
O20_2 O 0.3478(8) 0.5619(7) 0.7586(17)
O22_2 O 0.3724(6) 0.6298(6) 0.6655(14)
H25 H 0.22097 0.482307 0.715625
H26 H 0.273946 0.465202 0.776466
H27 H 0.517693 0.77903 0.284375
H28 H 0.534798 0.726054 0.223534
O5_2 O 0.8478(8) 0.9381(7) 0.7414(17)
O6_2 O 0.8724(6) 0.8702(6) 0.8345(14)
C3_2 C 0.8763(16) 0.9034(13) 0.758(3)
C20_2 C 0.9747(16) 0.9049(15) 0.544(2)
H9 H 0.9850 0.9284 0.4901
C21_2 C 0.9325(14) 0.9171(12) 0.607(3)
H10_2 H 0.9131 0.9481 0.5950
C22_2 C 0.9186(13) 0.8846(17) 0.689(3)
C23_2 C 0.9462(16) 0.8388(15) 0.703(2)
H11_2 H 0.9375 0.8167 0.7604
C24_2 C 0.9862(14) 0.8241(12) 0.637(3)
Zn4_2 Zn 0.87486(11) 0.87486(11) 1.0000
Zn9_2 Zn 0.79485(11) 0.95558(12) 0.8395(3)
N2_2 N 0.6735(14) 0.6307(9) 0.862(3)
N3_2 N 0.6212(9) 0.5557(11) 0.897(3)
O1_2 O 0.8777(6) 0.7936(7) 0.9927(15)
C2 C 0.4924(13) 0.6517(13) 0.498(3)
C4_2 C 0.7056(16) 0.6164(17) 0.943(3)
C5_2 C 0.6354(16) 0.5958(17) 0.833(4)
C6_2 C 0.6530(16) 0.5428(15) 0.980(4)
C7_2 C 0.7501(15) 0.6516(17) 0.966(4)
C11_2 C 0.8042(19) 0.7249(12) 0.925(4)
H3_2 H 0.8125 0.7534 0.8799
C12_2 C 0.7649(16) 0.6911(19) 0.898(3)
H4_2 H 0.7475 0.6948 0.8332
C13_2 C 0.6000(18) 0.606(2) 0.746(3)
C14_2 C 0.6061(11) 0.6541(17) 0.700(3)
H5_2 H 0.6320 0.6780 0.7241
C15_2 C 0.5727(18) 0.6665(12) 0.618(3)
H6_2 H 0.5766 0.6985 0.5812
C16_2 C 0.5338(15) 0.631(2) 0.592(3)
C17_2 C 0.5281(12) 0.5844(16) 0.644(3)
H7_2 H 0.5010 0.5610 0.6241
C18_2 C 0.5611(17) 0.5710(12) 0.725(3)
H8_2 H 0.5569 0.5395 0.7632
H9_2 H 0.5716 0.4850 0.9901
N4_2 N 0.5743(15) 0.6939(12) 0.9933(19)
O9_2 O 0.7443(8) 0.9021(8) 0.8695(17)
C25_2 C 0.7534(14) 0.8734(15) 0.945(3)
C27_2 C 0.3763(16) 0.5966(13) 0.742(3)
C32_2 C 0.6428(13) 0.778(2) 0.943(4)
H13_2 H 0.6131 0.7714 0.9007
C33_2 C 0.678(2) 0.8171(15) 0.916(3)
H14_2 H 0.6754 0.8337 0.8501
C34_2 C 0.7174(15) 0.8320(14) 0.984(4)
C43_2 C 0.5020(14) 0.6419(17) 0.941(3)
C44_2 C 0.4747(16) 0.5951(15) 0.956(2)
C45_2 C 0.4325(14) 0.5829(12) 0.893(3)
H22_2 H 0.4131 0.5519 0.9050
C46_2 C 0.4186(13) 0.6154(17) 0.811(3)
C47_2 C 0.4462(16) 0.6612(15) 0.797(2)
H23_2 H 0.4375 0.6833 0.7396
C48_2 C 0.4862(14) 0.6759(12) 0.863(3)
H24_2 H 0.5027 0.7090 0.8558
O15_2 O 0.8777(6) 0.9575(6) 0.9972(17)
C26_2 C 0.0076(13) 0.1517(13) 0.002(3)
C2_2 C 0.8483(13) 0.9924(13) 0.998(3)
Zn1_2 Zn 0.12514(11) 0.12514(11) 1.0000
N2_3 N 0.3265(14) 0.3693(9) 0.862(3)
N3_3 N 0.3788(9) 0.4443(11) 0.897(3)
O1_3 O 0.1223(6) 0.2064(7) 0.9927(15)
O3 O 0.5425(6) 0.3777(6) 0.4972(17)
O4 O 0.4950(8) 0.3124(7) 0.4454(17)
C2_3 C 0.5076(13) 0.3483(13) 0.498(3)
C4_3 C 0.2944(16) 0.3836(17) 0.943(3)
C5_3 C 0.3646(16) 0.4042(17) 0.833(4)
C6_3 C 0.3470(16) 0.4572(15) 0.980(4)
C7_3 C 0.2499(15) 0.3484(17) 0.966(4)
C11_3 C 0.1958(19) 0.2751(12) 0.925(4)
H3_3 H 0.1875 0.2466 0.8799
C12_3 C 0.2351(16) 0.3089(19) 0.898(3)
H4_3 H 0.2525 0.3052 0.8332
C13_3 C 0.4000(18) 0.394(2) 0.746(3)
C14_3 C 0.3939(11) 0.3459(17) 0.700(3)
H5_3 H 0.3680 0.3220 0.7241
C15_3 C 0.4273(18) 0.3335(12) 0.618(3)
H6_3 H 0.4234 0.3015 0.5812
C16_3 C 0.4662(15) 0.369(2) 0.592(3)
C17_3 C 0.4719(12) 0.4156(16) 0.644(3)
H7_3 H 0.4990 0.4390 0.6241
C18_3 C 0.4389(17) 0.4290(12) 0.725(3)
H8_3 H 0.4431 0.4605 0.7632
H9_3 H 0.4284 0.5150 0.9901
N4_3 N 0.4257(15) 0.3061(12) 0.9933(19)
O9_3 O 0.2557(8) 0.0979(8) 0.8695(17)
O12 O 0.6522(8) 0.4381(7) 0.7586(17)
O13 O 0.6276(6) 0.3702(6) 0.6655(14)
C25_3 C 0.2466(14) 0.1266(15) 0.945(3)
C27_3 C 0.6237(16) 0.4034(13) 0.742(3)
C32_3 C 0.3572(13) 0.222(2) 0.943(4)
H13_3 H 0.3869 0.2286 0.9007
C33_3 C 0.322(2) 0.1829(15) 0.916(3)
H14_3 H 0.3246 0.1663 0.8501
C34_3 C 0.2826(15) 0.1680(14) 0.984(4)
C43_3 C 0.4980(14) 0.3581(17) 0.941(3)
C44_3 C 0.5253(16) 0.4049(15) 0.956(2)
C45_3 C 0.5675(14) 0.4171(12) 0.893(3)
H22_3 H 0.5869 0.4481 0.9050
C46_3 C 0.5814(13) 0.3846(17) 0.811(3)
C47_3 C 0.5538(16) 0.3388(15) 0.797(2)
H23_3 H 0.5625 0.3167 0.7396
C48_3 C 0.5138(14) 0.3241(12) 0.863(3)
H24_3 H 0.4973 0.2910 0.8558
Zn3 Zn 0.20515(11) 0.04442(12) 0.8395(3)
Zn5 Zn 0.62514(11) 0.37486(11) 0.5000
O15_3 O 0.1223(6) 0.0425(6) 0.9972(17)
O19 O 0.1522(8) 0.0619(7) 0.7414(17)
O21 O 0.1276(6) 0.1298(6) 0.8345(14)
Zn7 Zn 0.70515(11) 0.45558(12) 0.6605(3)
Zn8 Zn 0.54442(12) 0.29485(11) 0.3395(3)
C2_4 C 0.1517(13) 0.0076(13) 0.998(3)
O10_2 O 0.9575(6) 0.8777(6) 0.0028(17)
C26_3 C 0.9924(13) 0.8483(13) 0.002(3)
Zn4_3 Zn 0.87486(11) 0.87486(11) 0.0000
Zn6_2 Zn 0.95558(12) 0.79485(11) 0.1605(3)
N1_3 N 0.6939(12) 0.5743(15) 0.0067(19)
O2_3 O 0.9021(8) 0.7443(8) 0.1305(17)
O5_3 O 0.5619(7) 0.3478(8) 0.2414(17)
O6_3 O 0.6298(6) 0.3724(6) 0.3345(14)
C1_3 C 0.8734(15) 0.7534(14) 0.055(3)
C3_3 C 0.5966(13) 0.3763(16) 0.258(3)
C8_3 C 0.778(2) 0.6428(13) 0.057(4)
H1_3 H 0.7714 0.6131 0.0993
C9_3 C 0.8171(15) 0.678(2) 0.084(3)
H2_3 H 0.8337 0.6754 0.1499
C10_3 C 0.8320(14) 0.7174(15) 0.016(4)
C19_3 C 0.6419(17) 0.5020(14) 0.059(3)
C20_3 C 0.5951(15) 0.4747(16) 0.044(2)
C21_3 C 0.5829(12) 0.4325(14) 0.107(3)
H10_3 H 0.5519 0.4131 0.0950
C22_3 C 0.6154(17) 0.4186(13) 0.189(3)
C23_3 C 0.6612(15) 0.4462(16) 0.203(2)
H11_3 H 0.6833 0.4375 0.2604
C24_3 C 0.6759(12) 0.4862(14) 0.137(3)
H12_3 H 0.7090 0.5027 0.1442
N5_3 N 0.6307(9) 0.6735(14) 0.138(3)
N6_3 N 0.5557(11) 0.6212(9) 0.103(3)
O8_3 O 0.7936(7) 0.8777(6) 0.0073(15)
O10_3 O 0.6223(6) 0.4575(6) 0.5028(17)
O11_2 O 0.6876(7) 0.5050(8) 0.5546(17)
C26_4 C 0.6517(13) 0.4924(13) 0.502(3)
C28_3 C 0.6164(17) 0.7056(16) 0.057(3)
C29_3 C 0.5958(17) 0.6354(16) 0.167(4)
C30_3 C 0.5428(15) 0.6530(16) 0.020(4)
C31_3 C 0.6516(17) 0.7501(15) 0.034(4)
C35_3 C 0.7249(12) 0.8042(19) 0.075(4)
H15_3 H 0.7534 0.8125 0.1201
C36_3 C 0.6911(19) 0.7649(16) 0.102(3)
H16_3 H 0.6948 0.7475 0.1668
C37_3 C 0.606(2) 0.6000(18) 0.254(3)
C38_3 C 0.6541(17) 0.6061(11) 0.300(3)
H17_3 H 0.6780 0.6320 0.2759
C39_3 C 0.6665(12) 0.5727(18) 0.382(3)
H18_3 H 0.6985 0.5766 0.4188
C40_3 C 0.631(2) 0.5338(15) 0.408(3)
C41_3 C 0.5844(16) 0.5281(12) 0.356(3)
H19_3 H 0.5610 0.5010 0.3759
C42_3 C 0.5710(12) 0.5611(17) 0.275(3)
H20_3 H 0.5395 0.5569 0.2368
H21_3 H 0.4850 0.5716 0.0099
O20_3 O 0.9381(7) 0.8478(8) 0.2586(17)
O22_3 O 0.8702(6) 0.8724(6) 0.1655(14)
C3_4 C 0.1237(16) 0.0966(13) 0.758(3)
C20_4 C 0.0253(16) 0.0951(15) 0.544(2)
H9_4 H 0.0150 0.0716 0.4901
C21_4 C 0.0675(14) 0.0829(12) 0.607(3)
H10_4 H 0.0869 0.0519 0.5950
C22_4 C 0.0814(13) 0.1154(17) 0.689(3)
C23_4 C 0.0538(16) 0.1612(15) 0.703(2)
H11_4 H 0.0625 0.1833 0.7604
C24_4 C 0.0138(14) 0.1759(12) 0.637(3)
N1_4 N 0.9257(15) 0.1939(12) 0.5067(19)
N2_4 N 0.8693(9) 0.1735(14) 0.362(3)
N3_4 N 0.9443(11) 0.1212(9) 0.397(3)
O1_4 O 0.7064(7) 0.3777(6) 0.4927(15)
O2_4 O 0.7557(8) 0.4021(8) 0.6305(17)
C1_4 C 0.7466(14) 0.3734(15) 0.555(3)
C4_4 C 0.8836(17) 0.2056(16) 0.443(3)
C5_4 C 0.9042(17) 0.1354(16) 0.333(4)
C6_4 C 0.9572(15) 0.1530(16) 0.480(4)
C7_4 C 0.8484(17) 0.2501(15) 0.466(4)
C8_4 C 0.8572(13) 0.278(2) 0.557(4)
H1_4 H 0.8869 0.2714 0.5993
C9_4 C 0.822(2) 0.3171(15) 0.584(3)
H2_4 H 0.8246 0.3337 0.6499
C10_4 C 0.7826(15) 0.3320(14) 0.516(4)
C11_4 C 0.7751(12) 0.3042(19) 0.425(4)
H3_4 H 0.7466 0.3125 0.3799
C12_4 C 0.8089(19) 0.2649(16) 0.398(3)
H4_4 H 0.8052 0.2475 0.3332
C13_4 C 0.894(2) 0.1000(18) 0.246(3)
C14_4 C 0.8459(17) 0.1061(11) 0.200(3)
H5_4 H 0.8220 0.1320 0.2241
C15_4 C 0.8335(12) 0.0727(18) 0.118(3)
H6_4 H 0.8015 0.0766 0.0812
C16_4 C 0.869(2) 0.0338(15) 0.092(3)
C17_4 C 0.9156(16) 0.0281(12) 0.144(3)
H7_4 H 0.9390 0.0010 0.1241
C18_4 C 0.9290(12) 0.0611(17) 0.225(3)
H8_4 H 0.9605 0.0569 0.2632
C19_4 C 0.9980(14) 0.1419(17) 0.559(3)
H12_4 H 0.9973 0.2090 0.6442
O7_2 O 0.7481(7) 0.5047(7) 0.7548(15)
N4_4 N 0.8061(12) 0.0743(15) 0.4933(19)
N5_4 N 0.8265(14) 0.1307(9) 0.638(3)
N6_4 N 0.8788(9) 0.0557(11) 0.603(3)
O8_4 O 0.6223(6) 0.2936(7) 0.5073(15)
O9_4 O 0.5979(8) 0.2443(8) 0.3695(17)
C25_4 C 0.6266(15) 0.2534(14) 0.445(3)
C28_4 C 0.7944(16) 0.1164(17) 0.557(3)
C29_4 C 0.8646(16) 0.0958(17) 0.667(4)
C30_4 C 0.8470(16) 0.0428(15) 0.520(4)
C31_4 C 0.7499(15) 0.1516(17) 0.534(4)
C32_4 C 0.722(2) 0.1428(13) 0.443(4)
H13_4 H 0.7286 0.1131 0.4007
C33_4 C 0.6829(15) 0.178(2) 0.416(3)
H14_4 H 0.6663 0.1754 0.3501
C34_4 C 0.6680(14) 0.2174(15) 0.484(4)
C35_4 C 0.6958(19) 0.2249(12) 0.575(4)
H15_4 H 0.6875 0.2534 0.6201
C36_4 C 0.7351(16) 0.1911(19) 0.602(3)
H16_4 H 0.7525 0.1948 0.6668
C37_4 C 0.9000(18) 0.106(2) 0.754(3)
C38_4 C 0.8939(11) 0.1541(17) 0.800(3)
H17_4 H 0.8680 0.1780 0.7759
C39_4 C 0.9273(18) 0.1665(12) 0.882(3)
H18_4 H 0.9234 0.1985 0.9188
C40_4 C 0.9662(15) 0.131(2) 0.908(3)
C41_4 C 0.9719(12) 0.0844(16) 0.856(3)
H19_4 H 0.9990 0.0610 0.8759
C42_4 C 0.9389(17) 0.0710(12) 0.775(3)
H20_4 H 0.9431 0.0395 0.7368
C43_4 C 0.8581(17) 0.0020(14) 0.441(3)
H24_4 H 0.7910 0.0027 0.3558
O14_2 O 0.4953(7) 0.2519(7) 0.2452(15)
H25_2 H 0.77903 0.517693 0.715625
H26_2 H 0.726054 0.534798 0.776466
H27_2 H 0.482307 0.22097 0.284375
H28_2 H 0.465202 0.273946 0.223534
C27_4 C 0.9034(13) 0.8763(16) 0.242(3)
C44_4 C 0.9049(15) 0.9747(16) 0.456(2)
H21_4 H 0.9284 0.9850 0.5099
C45_4 C 0.9171(12) 0.9325(14) 0.393(3)
H22_4 H 0.9481 0.9131 0.4050
C46_4 C 0.8846(17) 0.9186(13) 0.311(3)
C47_4 C 0.8388(15) 0.9462(16) 0.297(2)
H23_4 H 0.8167 0.9375 0.2396
C48_4 C 0.8241(12) 0.9862(14) 0.363(3)
O14_3 O 0.2481(7) 0.9953(7) 0.7452(15)
O17_2 O 0.1876(7) 0.9950(8) 0.9454(17)
H27_3 H 0.27903 0.982307 0.784375
H28_3 H 0.226054 0.965202 0.723534
O7_3 O 0.9953(7) 0.2481(7) 0.2548(15)
O18 O 0.9950(8) 0.1876(7) 0.0546(17)
H25_3 H 0.982307 0.27903 0.215625
H26_3 H 0.965202 0.226054 0.276466
O11_3 O 0.0050(8) 0.8124(7) 0.0546(17)
O7_4 O 0.0047(7) 0.7519(7) 0.2548(15)
H25_4 H 0.0176927 0.72097 0.215625
H26_4 H 0.0347981 0.773946 0.276466
O14_4 O 0.7519(7) 0.0047(7) 0.7452(15)
O17_3 O 0.8124(7) 0.0050(8) 0.9454(17)
H27_4 H 0.72097 0.0176927 0.784375
H28_4 H 0.773946 0.0347981 0.723534
loop_
_geom_bond_atom_site_label_1
_geom_bond_atom_site_label_2
_geom_bond_site_symmetry_1
_geom_bond_site_symmetry_2
O2 C1 1_555 1_555
O5 C3 1_555 1_555
O6 C3 1_555 1_555
C1 C10 1_555 1_555
C3 C22 1_555 1_555
C8 H1 1_555 1_555
C9 C8 1_555 1_555
H2 C9 1_555 1_555
C10 C9 1_555 1_555
C20 C19 1_555 1_555
C21 C20 1_555 1_555
H10 C21 1_555 1_555
C22 C21 1_555 1_555
C23 C22 1_555 1_555
H11 C23 1_555 1_555
C24 C19 1_555 1_555
H12 C24 1_555 1_555
Zn2 O2 1_555 1_555
N5 C28 1_555 1_555
N6 C29 1_555 1_555
O8 Zn1 1_555 1_555
O10 C26 1_555 1_555
O11 C26 1_555 1_555
C26 C40 1_555 1_555
C28 C31 1_555 1_555
C29 N5 1_555 1_555
H15 C35 1_555 1_555
C36 C31 1_555 1_555
H16 C36 1_555 1_555
C37 C29 1_555 1_555
C38 C37 1_555 1_555
H17 C38 1_555 1_555
C39 C38 1_555 1_555
H18 C39 1_555 1_555
C40 C39 1_555 1_555
C41 C40 1_555 1_555
H19 C41 1_555 1_555
C42 C37 1_555 1_555
H20 C42 1_555 1_555
Zn4 O6 1_555 1_555
O16 Zn1 1_555 1_555
O20 Zn2 1_555 1_555
O22 Zn1 1_555 1_555
Zn6 O11 1_555 1_555
Zn9 O5 1_555 1_555
C23 C24 1_555 1_555
N6 C30 1_555 1_555
O10 Zn4 1_555 1_555
C35 C36 1_555 1_555
C41 C42 1_555 1_555
O20 C27 1_555 1_555
O22 C27 1_555 1_555
C27 C46 1_555 1_555
H21_2 C44 1_555 1_555
C45 C44 1_555 1_555
H22 C45 1_555 1_555
C46 C45 1_555 1_555
C47 C46 1_555 1_555
H23 C47 1_555 1_555
C47 C48 1_555 1_555
Zn4 O1 1_555 1_555
N1_2 C4 1_555 1_555
N2 C4 1_555 1_555
N3 C5 1_555 1_555
O1 C1_2 1_555 1_555
O2_2 C1_2 1_555 1_555
C1_2 C10_2 1_555 1_555
C4 C7 1_555 1_555
C5 N2 1_555 1_555
C6 N1_2 1_555 1_555
C7 C8_2 1_555 1_555
C8_2 H1_2 1_555 1_555
C9_2 C8_2 1_555 1_555
H2_2 C9_2 1_555 1_555
C10_2 C9_2 1_555 1_555
C11 C10_2 1_555 1_555
H3 C11 1_555 1_555
C12 C7 1_555 1_555
H4 C12 1_555 1_555
C13 C5 1_555 1_555
C14 C13 1_555 1_555
H5 C14 1_555 1_555
C15 C14 1_555 1_555
H6 C15 1_555 1_555
C16 C15 1_555 1_555
C17 C16 1_555 1_555
H7 C17 1_555 1_555
C18 C13 1_555 1_555
H8 C18 1_555 1_555
C19_2 C6 1_555 1_555
Zn6 O2_2 1_555 1_555
O7 Zn6 1_555 1_555
N4 C28_2 1_555 1_555
N5_2 C28_2 1_555 1_555
N6_2 C29_2 1_555 1_555
O8_2 Zn4 1_555 1_555
O9 C25 1_555 1_555
C25 O8_2 1_555 1_555
C28_2 C31_2 1_555 1_555
C29_2 N5_2 1_555 1_555
C30_2 N4 1_555 1_555
C31_2 C32 1_555 1_555
C32 H13 1_555 1_555
C33 C32 1_555 1_555
H14 C33 1_555 1_555
C34 C25 1_555 1_555
C35_2 C34 1_555 1_555
H15_2 C35_2 1_555 1_555
C36_2 C31_2 1_555 1_555
H16_2 C36_2 1_555 1_555
C37_2 C29_2 1_555 1_555
C38_2 C37_2 1_555 1_555
H17_2 C38_2 1_555 1_555
C39_2 C38_2 1_555 1_555
H18_2 C39_2 1_555 1_555
C40_2 C39_2 1_555 1_555
C41_2 C40_2 1_555 1_555
H19_2 C41_2 1_555 1_555
C42_2 C37_2 1_555 1_555
H20_2 C42_2 1_555 1_555
C43 C30_2 1_555 1_555
Zn9 O9 1_555 1_555
O14 Zn9 1_555 1_555
O15 Zn4 1_555 1_555
O17 Zn9 1_555 1_555
O20_2 Zn6 1_555 1_555
O22_2 Zn4 1_555 1_555
N3 C6 1_555 1_555
C11 C12 1_555 1_555
C17 C18 1_555 1_555
N6_2 C30_2 1_555 1_555
C33 C34 1_555 1_555
C35_2 C36_2 1_555 1_555
C41_2 C42_2 1_555 1_555
O7 H25 1_555 1_555
O7 H26 1_555 1_555
O14 H27 1_555 1_555
O14 H28 1_555 1_555
O5_2 C3_2 1_555 1_555
O6_2 C3_2 1_555 1_555
C3_2 C22_2 1_555 1_555
H9 C20_2 1_555 1_555
C21_2 C20_2 1_555 1_555
H10_2 C21_2 1_555 1_555
C22_2 C21_2 1_555 1_555
C23_2 C22_2 1_555 1_555
H11_2 C23_2 1_555 1_555
Zn4_2 O6_2 1_555 1_555
Zn9_2 O5_2 1_555 1_555
C23_2 C24_2 1_555 1_555
Zn4_2 O1_2 1_555 1_555
N2_2 C4_2 1_555 1_555
N3_2 C5_2 1_555 1_555
O15 C2 1_555 1_555
O17 C2 1_555 1_555
C2 C16_2 1_555 1_555
C4_2 C7_2 1_555 1_555
C5_2 N2_2 1_555 1_555
H3_2 C11_2 1_555 1_555
C12_2 C7_2 1_555 1_555
H4_2 C12_2 1_555 1_555
C13_2 C5_2 1_555 1_555
C14_2 C13_2 1_555 1_555
H5_2 C14_2 1_555 1_555
C15_2 C14_2 1_555 1_555
H6_2 C15_2 1_555 1_555
C16_2 C15_2 1_555 1_555
C17_2 C16_2 1_555 1_555
H7_2 C17_2 1_555 1_555
C18_2 C13_2 1_555 1_555
H8_2 C18_2 1_555 1_555
O9_2 C25_2 1_555 1_555
O20_2 C27_2 1_555 1_555
O22_2 C27_2 1_555 1_555
C27_2 C46_2 1_555 1_555
C32_2 H13_2 1_555 1_555
C33_2 C32_2 1_555 1_555
H14_2 C33_2 1_555 1_555
C34_2 C25_2 1_555 1_555
C44_2 C43_2 1_555 1_555
C45_2 C44_2 1_555 1_555
H22_2 C45_2 1_555 1_555
C46_2 C45_2 1_555 1_555
C47_2 C46_2 1_555 1_555
H23_2 C47_2 1_555 1_555
C48_2 C43_2 1_555 1_555
H24_2 C48_2 1_555 1_555
Zn9_2 O9_2 1_555 1_555
O15_2 Zn4_2 1_555 1_555
N3_2 C6_2 1_555 1_555
C11_2 C12_2 1_555 1_555
C17_2 C18_2 1_555 1_555
C33_2 C34_2 1_555 1_555
C47_2 C48_2 1_555 1_555
O16 C26_2 1_555 1_555
O15_2 C2_2 1_555 1_555
Zn1_2 O1_3 1_555 1_555
N2_3 C4_3 1_555 1_555
N3_3 C5_3 1_555 1_555
O3 C2_3 1_555 1_555
O4 C2_3 1_555 1_555
C2_3 C16_3 1_555 1_555
C4_3 C7_3 1_555 1_555
C5_3 N2_3 1_555 1_555
H3_3 C11_3 1_555 1_555
C12_3 C7_3 1_555 1_555
H4_3 C12_3 1_555 1_555
C13_3 C5_3 1_555 1_555
C14_3 C13_3 1_555 1_555
H5_3 C14_3 1_555 1_555
C15_3 C14_3 1_555 1_555
H6_3 C15_3 1_555 1_555
C16_3 C15_3 1_555 1_555
C17_3 C16_3 1_555 1_555
H7_3 C17_3 1_555 1_555
C18_3 C13_3 1_555 1_555
H8_3 C18_3 1_555 1_555
O9_3 C25_3 1_555 1_555
O12 C27_3 1_555 1_555
O13 C27_3 1_555 1_555
C27_3 C46_3 1_555 1_555
C32_3 H13_3 1_555 1_555
C33_3 C32_3 1_555 1_555
H14_3 C33_3 1_555 1_555
C34_3 C25_3 1_555 1_555
C44_3 C43_3 1_555 1_555
C45_3 C44_3 1_555 1_555
H22_3 C45_3 1_555 1_555
C46_3 C45_3 1_555 1_555
C47_3 C46_3 1_555 1_555
H23_3 C47_3 1_555 1_555
C48_3 C43_3 1_555 1_555
H24_3 C48_3 1_555 1_555
Zn3 O9_3 1_555 1_555
Zn5 O3 1_555 1_555
O15_3 Zn1_2 1_555 1_555
O19 Zn3 1_555 1_555
O21 Zn1_2 1_555 1_555
Zn7 O12 1_555 1_555
Zn8 O4 1_555 1_555
N3_3 C6_3 1_555 1_555
C11_3 C12_3 1_555 1_555
C17_3 C18_3 1_555 1_555
O13 Zn5 1_555 1_555
C33_3 C34_3 1_555 1_555
C47_3 C48_3 1_555 1_555
O15_3 C2_4 1_555 1_555
O10_2 C26_3 1_555 1_555
O10_2 Zn4_3 1_555 1_555
O2_3 C1_3 1_555 1_555
O5_3 C3_3 1_555 1_555
O6_3 C3_3 1_555 1_555
C1_3 C10_3 1_555 1_555
C3_3 C22_3 1_555 1_555
C8_3 H1_3 1_555 1_555
C9_3 C8_3 1_555 1_555
H2_3 C9_3 1_555 1_555
C10_3 C9_3 1_555 1_555
C20_3 C19_3 1_555 1_555
C21_3 C20_3 1_555 1_555
H10_3 C21_3 1_555 1_555
C22_3 C21_3 1_555 1_555
C23_3 C22_3 1_555 1_555
H11_3 C23_3 1_555 1_555
C24_3 C19_3 1_555 1_555
H12_3 C24_3 1_555 1_555
Zn6_2 O2_3 1_555 1_555
N5_3 C28_3 1_555 1_555
N6_3 C29_3 1_555 1_555
O8_3 Zn4_3 1_555 1_555
O10_3 C26_4 1_555 1_555
O11_2 C26_4 1_555 1_555
C26_4 C40_3 1_555 1_555
C28_3 C31_3 1_555 1_555
C29_3 N5_3 1_555 1_555
H15_3 C35_3 1_555 1_555
C36_3 C31_3 1_555 1_555
H16_3 C36_3 1_555 1_555
C37_3 C29_3 1_555 1_555
C38_3 C37_3 1_555 1_555
H17_3 C38_3 1_555 1_555
C39_3 C38_3 1_555 1_555
H18_3 C39_3 1_555 1_555
C40_3 C39_3 1_555 1_555
C41_3 C40_3 1_555 1_555
H19_3 C41_3 1_555 1_555
C42_3 C37_3 1_555 1_555
H20_3 C42_3 1_555 1_555
Zn5 O6_3 1_555 1_555
O20_3 Zn6_2 1_555 1_555
O22_3 Zn4_3 1_555 1_555
Zn7 O11_2 1_555 1_555
Zn8 O5_3 1_555 1_555
C23_3 C24_3 1_555 1_555
N6_3 C30_3 1_555 1_555
O10_3 Zn5 1_555 1_555
C35_3 C36_3 1_555 1_555
C41_3 C42_3 1_555 1_555
O19 C3_4 1_555 1_555
O21 C3_4 1_555 1_555
C3_4 C22_4 1_555 1_555
H9_4 C20_4 1_555 1_555
C21_4 C20_4 1_555 1_555
H10_4 C21_4 1_555 1_555
C22_4 C21_4 1_555 1_555
C23_4 C22_4 1_555 1_555
H11_4 C23_4 1_555 1_555
C23_4 C24_4 1_555 1_555
Zn5 O1_4 1_555 1_555
N1_4 C4_4 1_555 1_555
N2_4 C4_4 1_555 1_555
N3_4 C5_4 1_555 1_555
O1_4 C1_4 1_555 1_555
O2_4 C1_4 1_555 1_555
C1_4 C10_4 1_555 1_555
C4_4 C7_4 1_555 1_555
C5_4 N2_4 1_555 1_555
C6_4 N1_4 1_555 1_555
C7_4 C8_4 1_555 1_555
C8_4 H1_4 1_555 1_555
C9_4 C8_4 1_555 1_555
H2_4 C9_4 1_555 1_555
C10_4 C9_4 1_555 1_555
C11_4 C10_4 1_555 1_555
H3_4 C11_4 1_555 1_555
C12_4 C7_4 1_555 1_555
H4_4 C12_4 1_555 1_555
C13_4 C5_4 1_555 1_555
C14_4 C13_4 1_555 1_555
H5_4 C14_4 1_555 1_555
C15_4 C14_4 1_555 1_555
H6_4 C15_4 1_555 1_555
C16_4 C15_4 1_555 1_555
C17_4 C16_4 1_555 1_555
H7_4 C17_4 1_555 1_555
C18_4 C13_4 1_555 1_555
H8_4 C18_4 1_555 1_555
C19_4 C6_4 1_555 1_555
Zn7 O2_4 1_555 1_555
O7_2 Zn7 1_555 1_555
N4_4 C28_4 1_555 1_555
N5_4 C28_4 1_555 1_555
N6_4 C29_4 1_555 1_555
O8_4 Zn5 1_555 1_555
O9_4 C25_4 1_555 1_555
C25_4 O8_4 1_555 1_555
C28_4 C31_4 1_555 1_555
C29_4 N5_4 1_555 1_555
C30_4 N4_4 1_555 1_555
C31_4 C32_4 1_555 1_555
C32_4 H13_4 1_555 1_555
C33_4 C32_4 1_555 1_555
H14_4 C33_4 1_555 1_555
C34_4 C25_4 1_555 1_555
C35_4 C34_4 1_555 1_555
H15_4 C35_4 1_555 1_555
C36_4 C31_4 1_555 1_555
H16_4 C36_4 1_555 1_555
C37_4 C29_4 1_555 1_555
C38_4 C37_4 1_555 1_555
H17_4 C38_4 1_555 1_555
C39_4 C38_4 1_555 1_555
H18_4 C39_4 1_555 1_555
C40_4 C39_4 1_555 1_555
C41_4 C40_4 1_555 1_555
H19_4 C41_4 1_555 1_555
C42_4 C37_4 1_555 1_555
H20_4 C42_4 1_555 1_555
C43_4 C30_4 1_555 1_555
Zn8 O9_4 1_555 1_555
O14_2 Zn8 1_555 1_555
N3_4 C6_4 1_555 1_555
C11_4 C12_4 1_555 1_555
C17_4 C18_4 1_555 1_555
N6_4 C30_4 1_555 1_555
C33_4 C34_4 1_555 1_555
C35_4 C36_4 1_555 1_555
C41_4 C42_4 1_555 1_555
O7_2 H25_2 1_555 1_555
O7_2 H26_2 1_555 1_555
O14_2 H27_2 1_555 1_555
O14_2 H28_2 1_555 1_555
O20_3 C27_4 1_555 1_555
O22_3 C27_4 1_555 1_555
C27_4 C46_4 1_555 1_555
H21_4 C44_4 1_555 1_555
C45_4 C44_4 1_555 1_555
H22_4 C45_4 1_555 1_555
C46_4 C45_4 1_555 1_555
C47_4 C46_4 1_555 1_555
H23_4 C47_4 1_555 1_555
C47_4 C48_4 1_555 1_555
O14_3 H27_3 1_555 1_555
O14_3 H28_3 1_555 1_555
O7_3 H25_3 1_555 1_555
O7_3 H26_3 1_555 1_555
O7_4 H25_4 1_555 1_555
O7_4 H26_4 1_555 1_555
O14_4 H27_4 1_555 1_555
O14_4 H28_4 1_555 1_555

#END
