
###############################################################################
#
# This file contains modified crystal structure data generated from the
# MOF subset of the Cambridge Structural Database (CSD) v543 
# hosted by the Cambridge Crystallographic Data Centre (CCDC).
#
# This work is licensed under the Creative Commons
# Attribution-NonCommercial-ShareAlike 4.0 International License.
# To view a copy of this license, visit
# http://creativecommons.org/licenses/by-nc-sa/4.0/
# or send a letter to
# Creative Commons, PO Box 1866, Mountain View, CA 94042, USA.
#
# CIF created using the CSD Python API on 29 September 2022
# The structure has been converted into the P1 space group
# The structure has a 3D framework
# The original CSD entry MIDRAT is in the tetragonal crystal system
# The original CSD entry MIDRAT is in a Sohncke space group
# The framework has been calculated to contain at least 10.0% void space
# The void calculation uses a probe of radius 1.32A, grid spacing 0.4
#
###############################################################################

data_MIDRAT
_chemical_formula_moiety         '(C80 H80 N8 O14 S8 Zn3)n'
_symmetry_cell_setting           triclinic
_symmetry_space_group_name_H-M   'P 1'
_symmetry_Int_Tables_number      1
_space_group_name_Hall           'P 1'
loop_
_symmetry_equiv_pos_site_id
_symmetry_equiv_pos_as_xyz
1 x,y,z
_cell_length_a                   14.8219(6)
_cell_length_b                   14.8219(6)
_cell_length_c                   11.5312(7)
_cell_angle_alpha                90
_cell_angle_beta                 90
_cell_angle_gamma                90
_cell_volume                     2533.27
loop_
_atom_site_label
_atom_site_type_symbol
_atom_site_fract_x
_atom_site_fract_y
_atom_site_fract_z
C11 C 0.09177(17) 0.3611(2) 0.0232(3)
H12 H 0.0537 0.4077 0.0584
H13 H 0.0698 0.3013 0.0463
C12 C 0.18785(15) 0.37273(15) 0.0638(2)
C13 C 0.20717(15) 0.36623(15) 0.1853(2)
C14 C 0.29427(16) 0.37948(16) 0.2342(2)
C15 C 0.3074(2) 0.3721(3) 0.3628(3)
H14 H 0.2910 0.3113 0.3885
H15 H 0.2691 0.4165 0.4021
H16 H 0.3708 0.3838 0.3818
C16 C 0.12105(17) 0.21838(14) 0.2766(2)
C17 C 0.17752(19) 0.16966(17) 0.2023(3)
H17 H 0.2184 0.2000 0.1523
C18 C 0.1727(2) 0.07722(18) 0.2031(3)
H18 H 0.2124 0.0447 0.1538
C19 C 0.06228(16) 0.07732(16) 0.3420(2)
H19 H 0.0227 0.0451 0.3918
C20 C 0.06263(17) 0.17008(17) 0.3477(2)
H20 H 0.0234 0.2008 0.3996
N2 N 0.11523(15) 0.03001(13) 0.2694(2)
O6 O 0.36487(11) 0.39733(11) 0.17603(17)
S2 S 0.11858(4) 0.33706(4) 0.27979(6)
Zn3 Zn 0.387474(17) 0.387474(17) 0.0000
H11 H 0.0894 0.3665 0.9386
O3 O 0.24605(11) 0.38701(13) 0.98713(16)
Zn3_2 Zn 0.387474(17) 0.387474(17) 1.0000
Zn1 Zn 0.112526(17) 0.887474(17) 0.2500
O4 O 0.11299(13) 0.74605(11) 0.23713(16)
O5 O 0.25395(11) 0.88701(13) 0.26287(16)
O7 O 0.10267(11) 0.86487(11) 0.42603(17)
O8 O 0.13513(11) 0.89733(11) 0.07397(17)
C1 C 0.6389(2) 0.90823(17) 0.4768(3)
H1 H 0.6335 0.9106 0.5614
H2 H 0.5923 0.9463 0.4416
H3 H 0.6987 0.9302 0.4537
C2 C 0.62727(15) 0.81215(15) 0.4362(2)
C3 C 0.63377(15) 0.79283(15) 0.3147(2)
C4 C 0.62052(16) 0.70573(16) 0.2658(2)
C5 C 0.6279(3) 0.6926(2) 0.1372(3)
H4 H 0.6887 0.7090 0.1115
H5 H 0.5835 0.7309 0.0979
H6 H 0.6162 0.6292 0.1182
C6 C 0.78162(14) 0.87895(17) 0.2234(2)
C7 C 0.83034(17) 0.82248(19) 0.2977(3)
H7 H 0.8000 0.7816 0.3477
C8 C 0.92278(18) 0.8273(2) 0.2969(3)
H8 H 0.9553 0.7876 0.3462
C9 C 0.92268(16) 0.93772(16) 0.1580(2)
H9 H 0.9549 0.9773 0.1082
C10 C 0.82992(17) 0.93737(17) 0.1523(2)
H10 H 0.7992 0.9766 0.1004
N1 N 0.96999(13) 0.88477(15) 0.2306(2)
O1 O 0.61299(13) 0.75395(11) 0.51287(16)
O2 O 0.60267(11) 0.63513(11) 0.32397(17)
S1 S 0.66294(4) 0.88142(4) 0.22021(6)
Zn2 Zn 0.612526(17) 0.612526(17) 0.5000
H1_2 H 0.3665 0.0894 0.0614
O1_2 O 0.38701(13) 0.24605(11) 0.01287(16)
C1_2 C 0.3611(2) 0.09177(17) 0.9768(3)
H2_2 H 0.4077 0.0537 0.9416
H3_2 H 0.3013 0.0698 0.9537
C2_2 C 0.37273(15) 0.18785(15) 0.9362(2)
C3_2 C 0.36623(15) 0.20717(15) 0.8147(2)
C4_2 C 0.37948(16) 0.29427(16) 0.7658(2)
C5_2 C 0.3721(3) 0.3074(2) 0.6372(3)
H4_2 H 0.3113 0.2910 0.6115
H5_2 H 0.4165 0.2691 0.5979
H6_2 H 0.3838 0.3708 0.6182
C6_2 C 0.21838(14) 0.12105(17) 0.7234(2)
C7_2 C 0.16966(17) 0.17752(19) 0.7977(3)
H7_2 H 0.2000 0.2184 0.8477
C8_2 C 0.07722(18) 0.1727(2) 0.7969(3)
H8_2 H 0.0447 0.2124 0.8462
C9_2 C 0.07732(16) 0.06228(16) 0.6580(2)
H9_2 H 0.0451 0.0227 0.6082
C10_2 C 0.17008(17) 0.06263(17) 0.6523(2)
H10_2 H 0.2008 0.0234 0.6004
N1_2 N 0.03001(13) 0.11523(15) 0.7306(2)
O2_2 O 0.39733(11) 0.36487(11) 0.82397(17)
S1_2 S 0.33706(4) 0.11858(4) 0.72021(6)
Zn1_2 Zn 0.887474(17) 0.112526(17) 0.7500
O4_2 O 0.88701(13) 0.25395(11) 0.73713(16)
O5_2 O 0.74605(11) 0.11299(13) 0.76287(16)
O7_2 O 0.89733(11) 0.13513(11) 0.92603(17)
O8_2 O 0.86487(11) 0.10267(11) 0.57397(17)
C11_2 C 0.90823(17) 0.6389(2) 0.5232(3)
H11_2 H 0.9106 0.6335 0.4386
H12_2 H 0.9463 0.5923 0.5584
H13_2 H 0.9302 0.6987 0.5463
C12_2 C 0.81215(15) 0.62727(15) 0.5638(2)
C13_2 C 0.79283(15) 0.63377(15) 0.6853(2)
C14_2 C 0.70573(16) 0.62052(16) 0.7342(2)
C15_2 C 0.6926(2) 0.6279(3) 0.8628(3)
H14_2 H 0.7090 0.6887 0.8885
H15_2 H 0.7309 0.5835 0.9021
H16_2 H 0.6292 0.6162 0.8818
C16_2 C 0.87895(17) 0.78162(14) 0.7766(2)
C17_2 C 0.82248(19) 0.83034(17) 0.7023(3)
H17_2 H 0.7816 0.8000 0.6523
C18_2 C 0.8273(2) 0.92278(18) 0.7031(3)
H18_2 H 0.7876 0.9553 0.6538
C19_2 C 0.93772(16) 0.92268(16) 0.8420(2)
H19_2 H 0.9773 0.9549 0.8918
C20_2 C 0.93737(17) 0.82992(17) 0.8477(2)
H20_2 H 0.9766 0.7992 0.8996
N2_2 N 0.88477(15) 0.96999(13) 0.7694(2)
O3_2 O 0.75395(11) 0.61299(13) 0.48713(16)
O6_2 O 0.63513(11) 0.60267(11) 0.67603(17)
S2_2 S 0.88142(4) 0.66294(4) 0.77979(6)
C1_3 C 0.1389(2) 0.59177(17) 0.2732(3)
H1_3 H 0.1335 0.5894 0.1886
H2_3 H 0.0923 0.5537 0.3084
H3_3 H 0.1987 0.5698 0.2963
C2_3 C 0.12727(15) 0.68785(15) 0.3138(2)
C3_3 C 0.13377(15) 0.70717(15) 0.4353(2)
C4_3 C 0.12052(16) 0.79427(16) 0.4842(2)
C5_3 C 0.1279(3) 0.8074(2) 0.6128(3)
H4_3 H 0.1887 0.7910 0.6385
H5_3 H 0.0835 0.7691 0.6521
H6_3 H 0.1162 0.8708 0.6318
C6_3 C 0.28162(14) 0.62105(17) 0.5266(2)
C7_3 C 0.33034(17) 0.67752(19) 0.4523(3)
H7_3 H 0.3000 0.7184 0.4023
C8_3 C 0.42278(18) 0.6727(2) 0.4531(3)
H8_3 H 0.4553 0.7124 0.4038
C9_3 C 0.42268(16) 0.56228(16) 0.5920(2)
H9_3 H 0.4549 0.5227 0.6418
C10_3 C 0.32992(17) 0.56263(17) 0.5977(2)
H10_3 H 0.2992 0.5234 0.6496
N1_3 N 0.46999(13) 0.61523(15) 0.5194(2)
S1_3 S 0.16294(4) 0.61858(4) 0.52979(6)
C11_3 C 0.59177(17) 0.1389(2) 0.7268(3)
H11_3 H 0.5894 0.1335 0.8114
H12_3 H 0.5537 0.0923 0.6916
H13_3 H 0.5698 0.1987 0.7037
C12_3 C 0.68785(15) 0.12727(15) 0.6862(2)
C13_3 C 0.70717(15) 0.13377(15) 0.5647(2)
C14_3 C 0.79427(16) 0.12052(16) 0.5158(2)
C15_3 C 0.8074(2) 0.1279(3) 0.3872(3)
H14_3 H 0.7910 0.1887 0.3615
H15_3 H 0.7691 0.0835 0.3479
H16_3 H 0.8708 0.1162 0.3682
C16_3 C 0.62105(17) 0.28162(14) 0.4734(2)
C17_3 C 0.67752(19) 0.33034(17) 0.5477(3)
H17_3 H 0.7184 0.3000 0.5977
C18_3 C 0.6727(2) 0.42278(18) 0.5469(3)
H18_3 H 0.7124 0.4553 0.5962
C19_3 C 0.56228(16) 0.42268(16) 0.4080(2)
H19_3 H 0.5227 0.4549 0.3582
C20_3 C 0.56263(17) 0.32992(17) 0.4023(2)
H20_3 H 0.5234 0.2992 0.3504
N2_3 N 0.61523(15) 0.46999(13) 0.4806(2)
S2_3 S 0.61858(4) 0.16294(4) 0.47021(6)
C5_4 C 0.8721(3) 0.1926(2) 0.1128(3)
H4_4 H 0.8113 0.2090 0.1385
H5_4 H 0.9165 0.2309 0.1521
H6_4 H 0.8838 0.1292 0.1318
C6_4 C 0.71838(14) 0.37895(17) 0.0266(2)
C9_4 C 0.57732(16) 0.43772(16) 0.0920(2)
H9_4 H 0.5451 0.4773 0.1418
C10_4 C 0.67008(17) 0.43737(17) 0.0977(2)
H10_4 H 0.7008 0.4766 0.1496
N1_4 N 0.53001(13) 0.38477(15) 0.0194(2)
S1_4 S 0.83706(4) 0.38142(4) 0.02979(6)
C11_4 C 0.40823(17) 0.8611(2) 0.2268(3)
H11_4 H 0.4106 0.8665 0.3114
H12_4 H 0.4463 0.9077 0.1916
H13_4 H 0.4302 0.8013 0.2037
C12_4 C 0.31215(15) 0.87273(15) 0.1862(2)
C13_4 C 0.29283(15) 0.86623(15) 0.0647(2)
C14_4 C 0.20573(16) 0.87948(16) 0.0158(2)
C17_4 C 0.32248(19) 0.66966(17) 0.0477(3)
H17_4 H 0.2816 0.7000 0.0977
C18_4 C 0.3273(2) 0.57722(18) 0.0469(3)
H18_4 H 0.2876 0.5447 0.0962
C1_4 C 0.8611(2) 0.40823(17) 0.7732(3)
H1_4 H 0.8665 0.4106 0.6886
H2_4 H 0.9077 0.4463 0.8084
H3_4 H 0.8013 0.4302 0.7963
C2_4 C 0.87273(15) 0.31215(15) 0.8138(2)
C3_4 C 0.86623(15) 0.29283(15) 0.9353(2)
C4_4 C 0.87948(16) 0.20573(16) 0.9842(2)
C7_4 C 0.66966(17) 0.32248(19) 0.9523(3)
H7_4 H 0.7000 0.2816 0.9023
C8_4 C 0.57722(18) 0.3273(2) 0.9531(3)
H8_4 H 0.5447 0.2876 0.9038
C15_4 C 0.1926(2) 0.8721(3) 0.8872(3)
H14_4 H 0.2090 0.8113 0.8615
H15_4 H 0.2309 0.9165 0.8479
H16_4 H 0.1292 0.8838 0.8682
C16_4 C 0.37895(17) 0.71838(14) 0.9734(2)
C19_4 C 0.43772(16) 0.57732(16) 0.9080(2)
H19_4 H 0.4773 0.5451 0.8582
C20_4 C 0.43737(17) 0.67008(17) 0.9023(2)
H20_4 H 0.4766 0.7008 0.8504
N2_4 N 0.38477(15) 0.53001(13) 0.9806(2)
S2_4 S 0.38142(4) 0.83706(4) 0.97021(6)
loop_
_geom_bond_atom_site_label_1
_geom_bond_atom_site_label_2
_geom_bond_site_symmetry_1
_geom_bond_site_symmetry_2
H12 C11 1_555 1_555
H13 C11 1_555 1_555
C12 C11 1_555 1_555
C13 C12 1_555 1_555
C14 C13 1_555 1_555
C15 C14 1_555 1_555
H14 C15 1_555 1_555
H15 C15 1_555 1_555
H16 C15 1_555 1_555
C16 C17 1_555 1_555
C17 H17 1_555 1_555
C18 C17 1_555 1_555
H18 C18 1_555 1_555
C19 H19 1_555 1_555
C20 C16 1_555 1_555
H20 C20 1_555 1_555
O6 C14 1_555 1_555
S2 C13 1_555 1_555
C16 S2 1_555 1_555
C18 N2 1_555 1_555
C19 C20 1_555 1_555
C19 N2 1_555 1_555
O6 Zn3 1_555 1_555
Zn3_2 O3 1_555 1_555
O4 Zn1 1_555 1_555
O5 Zn1 1_555 1_555
O7 Zn1 1_555 1_555
O8 Zn1 1_555 1_555
C1 H1 1_555 1_555
H2 C1 1_555 1_555
H3 C1 1_555 1_555
C2 C1 1_555 1_555
C3 C2 1_555 1_555
C4 C3 1_555 1_555
C5 C4 1_555 1_555
H4 C5 1_555 1_555
H5 C5 1_555 1_555
H6 C5 1_555 1_555
C6 C7 1_555 1_555
C7 H7 1_555 1_555
C8 C7 1_555 1_555
H8 C8 1_555 1_555
C9 H9 1_555 1_555
C10 C6 1_555 1_555
H10 C10 1_555 1_555
N1 C8 1_555 1_555
O1 C2 1_555 1_555
O2 C4 1_555 1_555
S1 C3 1_555 1_555
Zn2 O1 1_555 1_555
C6 S1 1_555 1_555
C9 C10 1_555 1_555
C9 N1 1_555 1_555
O2 Zn2 1_555 1_555
Zn3 O1_2 1_555 1_555
H2_2 C1_2 1_555 1_555
H3_2 C1_2 1_555 1_555
C2_2 C1_2 1_555 1_555
C3_2 C2_2 1_555 1_555
C4_2 C3_2 1_555 1_555
C5_2 C4_2 1_555 1_555
H4_2 C5_2 1_555 1_555
H5_2 C5_2 1_555 1_555
H6_2 C5_2 1_555 1_555
C6_2 C7_2 1_555 1_555
C7_2 H7_2 1_555 1_555
C8_2 C7_2 1_555 1_555
H8_2 C8_2 1_555 1_555
C9_2 H9_2 1_555 1_555
C10_2 C6_2 1_555 1_555
H10_2 C10_2 1_555 1_555
N1_2 C8_2 1_555 1_555
O2_2 C4_2 1_555 1_555
S1_2 C3_2 1_555 1_555
C6_2 S1_2 1_555 1_555
C9_2 C10_2 1_555 1_555
C9_2 N1_2 1_555 1_555
O2_2 Zn3_2 1_555 1_555
O4_2 Zn1_2 1_555 1_555
O5_2 Zn1_2 1_555 1_555
O7_2 Zn1_2 1_555 1_555
O8_2 Zn1_2 1_555 1_555
C11_2 H11_2 1_555 1_555
H12_2 C11_2 1_555 1_555
H13_2 C11_2 1_555 1_555
C12_2 C11_2 1_555 1_555
C13_2 C12_2 1_555 1_555
C14_2 C13_2 1_555 1_555
C15_2 C14_2 1_555 1_555
H14_2 C15_2 1_555 1_555
H15_2 C15_2 1_555 1_555
H16_2 C15_2 1_555 1_555
C16_2 C17_2 1_555 1_555
C17_2 H17_2 1_555 1_555
C18_2 C17_2 1_555 1_555
H18_2 C18_2 1_555 1_555
C19_2 H19_2 1_555 1_555
C20_2 C16_2 1_555 1_555
H20_2 C20_2 1_555 1_555
O3_2 C12_2 1_555 1_555
O6_2 C14_2 1_555 1_555
S2_2 C13_2 1_555 1_555
Zn2 O3_2 1_555 1_555
C16_2 S2_2 1_555 1_555
C18_2 N2_2 1_555 1_555
C19_2 C20_2 1_555 1_555
C19_2 N2_2 1_555 1_555
O6_2 Zn2 1_555 1_555
C1_3 H1_3 1_555 1_555
H2_3 C1_3 1_555 1_555
H3_3 C1_3 1_555 1_555
C2_3 C1_3 1_555 1_555
C3_3 C2_3 1_555 1_555
C4_3 C3_3 1_555 1_555
C5_3 C4_3 1_555 1_555
H4_3 C5_3 1_555 1_555
H5_3 C5_3 1_555 1_555
H6_3 C5_3 1_555 1_555
C6_3 C7_3 1_555 1_555
C7_3 H7_3 1_555 1_555
C8_3 C7_3 1_555 1_555
H8_3 C8_3 1_555 1_555
C9_3 H9_3 1_555 1_555
C10_3 C6_3 1_555 1_555
H10_3 C10_3 1_555 1_555
N1_3 C8_3 1_555 1_555
O4 C2_3 1_555 1_555
O7 C4_3 1_555 1_555
S1_3 C3_3 1_555 1_555
Zn2 N1_3 1_555 1_555
C11_3 H11_3 1_555 1_555
H12_3 C11_3 1_555 1_555
H13_3 C11_3 1_555 1_555
C12_3 C11_3 1_555 1_555
C13_3 C12_3 1_555 1_555
C14_3 C13_3 1_555 1_555
C15_3 C14_3 1_555 1_555
H14_3 C15_3 1_555 1_555
H15_3 C15_3 1_555 1_555
H16_3 C15_3 1_555 1_555
C16_3 C17_3 1_555 1_555
C17_3 H17_3 1_555 1_555
C18_3 C17_3 1_555 1_555
H18_3 C18_3 1_555 1_555
C19_3 H19_3 1_555 1_555
C20_3 C16_3 1_555 1_555
H20_3 C20_3 1_555 1_555
N2_3 Zn2 1_555 1_555
O5_2 C12_3 1_555 1_555
O8_2 C14_3 1_555 1_555
S2_3 C13_3 1_555 1_555
C6_3 S1_3 1_555 1_555
C9_3 C10_3 1_555 1_555
C9_3 N1_3 1_555 1_555
C16_3 S2_3 1_555 1_555
C18_3 N2_3 1_555 1_555
C19_3 C20_3 1_555 1_555
C19_3 N2_3 1_555 1_555
H4_4 C5_4 1_555 1_555
H5_4 C5_4 1_555 1_555
H6_4 C5_4 1_555 1_555
C9_4 H9_4 1_555 1_555
C10_4 C6_4 1_555 1_555
H10_4 C10_4 1_555 1_555
Zn3 N1_4 1_555 1_555
C11_4 H11_4 1_555 1_555
H12_4 C11_4 1_555 1_555
H13_4 C11_4 1_555 1_555
C12_4 C11_4 1_555 1_555
C13_4 C12_4 1_555 1_555
C14_4 C13_4 1_555 1_555
C17_4 H17_4 1_555 1_555
C18_4 C17_4 1_555 1_555
H18_4 C18_4 1_555 1_555
O5 C12_4 1_555 1_555
O8 C14_4 1_555 1_555
C6_4 S1_4 1_555 1_555
C9_4 C10_4 1_555 1_555
C9_4 N1_4 1_555 1_555
C1_4 H1_4 1_555 1_555
H2_4 C1_4 1_555 1_555
H3_4 C1_4 1_555 1_555
C2_4 C1_4 1_555 1_555
C3_4 C2_4 1_555 1_555
C4_4 C3_4 1_555 1_555
C7_4 H7_4 1_555 1_555
C8_4 C7_4 1_555 1_555
H8_4 C8_4 1_555 1_555
O4_2 C2_4 1_555 1_555
O7_2 C4_4 1_555 1_555
H14_4 C15_4 1_555 1_555
H15_4 C15_4 1_555 1_555
H16_4 C15_4 1_555 1_555
C19_4 H19_4 1_555 1_555
C20_4 C16_4 1_555 1_555
H20_4 C20_4 1_555 1_555
N2_4 Zn3_2 1_555 1_555
C16_4 S2_4 1_555 1_555
C19_4 C20_4 1_555 1_555
C19_4 N2_4 1_555 1_555

#END
