
###############################################################################
#
# This file contains modified crystal structure data generated from the
# MOF subset of the Cambridge Structural Database (CSD) v543 
# hosted by the Cambridge Crystallographic Data Centre (CCDC).
#
# This work is licensed under the Creative Commons
# Attribution-NonCommercial-ShareAlike 4.0 International License.
# To view a copy of this license, visit
# http://creativecommons.org/licenses/by-nc-sa/4.0/
# or send a letter to
# Creative Commons, PO Box 1866, Mountain View, CA 94042, USA.
#
# CIF created using the CSD Python API on 29 September 2022
# The structure has been converted into the P1 space group
# The structure has a 3D framework
# The original CSD entry MIFGEQ is in the monoclinic crystal system
# The framework has been calculated to contain at least 10.0% void space
# The void calculation uses a probe of radius 1.32A, grid spacing 0.4
# The framework is charged, counterions have been retained in the structure
# H atom positions have been added when not included in the experimental data
#
###############################################################################

data_MIFGEQ
_chemical_formula_moiety         '(C208 H184 Cu12 N40 O56 S16 4+)n'
_symmetry_cell_setting           triclinic
_symmetry_space_group_name_H-M   'P 1'
_symmetry_Int_Tables_number      1
_space_group_name_Hall           'P 1'
loop_
_symmetry_equiv_pos_site_id
_symmetry_equiv_pos_as_xyz
1 x,y,z
_cell_length_a                   22.2892(9)
_cell_length_b                   22.2235(8)
_cell_length_c                   15.7911(7)
_cell_angle_alpha                90
_cell_angle_beta                 101.936(1)
_cell_angle_gamma                90
_cell_volume                     7652.91
loop_
_atom_site_label
_atom_site_type_symbol
_atom_site_fract_x
_atom_site_fract_y
_atom_site_fract_z
Cu5 Cu 0.000000 0.81989(3) 0.250000
Cu1 Cu 0.500000 0.31989(3) 0.250000
C1 C 0.45346(19) 0.44179(18) 0.2020(3)
H1 H 0.42044(19) 0.42016(18) 0.1676(3)
S1 S 0.32021(6) 0.48123(7) 0.48838(9)
O1 O 0.48228(19) 0.81861(16) 0.0917(3)
N1 N 0.500000 0.4106(2) 0.250000
O2 O 0.34276(18) 0.4301(2) 0.5430(3)
N2 N 0.500000 0.2287(2) 0.250000
C2 C 0.500000 0.5365(3) 0.250000
Cu2 Cu 0.500000 0.82049(3) 0.250000
C3 C 0.45146(18) 0.50405(18) 0.2005(3)
H2 H 0.41751(18) 0.52446(18) 0.1661(3)
S2 S 0.54606(7) 0.32088(5) 0.49528(8)
O3 O 0.32207(18) 0.5377(2) 0.5368(3)
N3 N 0.500000 0.72876(19) 0.250000
O4 O 0.26073(17) 0.4705(2) 0.4316(3)
C4 C 0.500000 0.6028(2) 0.250000
O5 O 0.4931(3) 0.29934(19) 0.5272(3)
N5 N 0.40822(15) 0.82040(14) 0.2438(2)
C5 C 0.45519(19) 0.63597(17) 0.1937(3)
H3 H 0.42370(19) 0.61572(17) 0.1543(3)
N6 N 0.09053(16) 0.81688(15) 0.2432(2)
C6 C 0.45680(18) 0.69809(17) 0.1956(3)
H4 H 0.42611(18) 0.71981(17) 0.1568(3)
O6 O 0.5991(2) 0.2808(2) 0.5187(3)
C7 C 0.500000 0.1040(2) 0.250000
C8 C 0.5033(3) 0.1358(2) 0.1763(4)
H5 H 0.5053(3) 0.1153(2) 0.1241(4)
O7 O 0.53041(15) 0.33364(14) 0.4030(2)
C9 C 0.5039(3) 0.1983(2) 0.1793(4)
H6 H 0.5071(3) 0.2200(2) 0.1286(4)
C10 C 0.500000 0.0365(3) 0.250000
C11 C 0.5262(3) 0.0048(2) 0.1913(4)
H7 H 0.5440(3) 0.0254(2) 0.1498(4)
C13 C 0.5335(2) 0.4464(2) 0.5246(3)
C14 C 0.5705(3) 0.3898(2) 0.5493(4)
H9 H 0.5732(3) 0.3832(2) 0.6120(4)
H10 H 0.6127(3) 0.3979(2) 0.5414(4)
C15 C 0.4380(2) 0.4970(2) 0.4612(3)
C16 C 0.4720(2) 0.4447(2) 0.4859(3)
H11 H 0.4522(2) 0.4068(2) 0.4756(3)
C17 C 0.3722(2) 0.4907(3) 0.4163(3)
H12 H 0.3683(2) 0.4556(3) 0.3769(3)
H13 H 0.3600(2) 0.5269(3) 0.3803(3)
C18 C 0.3848(2) 0.7858(2) 0.2992(3)
H14 H 0.4123(2) 0.7623(2) 0.3404(3)
C19 C 0.3233(2) 0.7829(2) 0.2990(3)
H15 H 0.3089(2) 0.7580(2) 0.3396(3)
C20 C 0.28173(19) 0.81661(19) 0.2387(3)
C21 C 0.21546(19) 0.8160(2) 0.2389(3)
C22 C 0.1950(2) 0.8004(3) 0.3115(4)
H16 H 0.2235(2) 0.7890(3) 0.3623(4)
C23 C 0.1329(2) 0.8010(3) 0.3115(4)
H17 H 0.1200(2) 0.7896(3) 0.3629(4)
C24 C 0.1108(2) 0.8311(4) 0.1740(4)
H18 H 0.0813(2) 0.8433(4) 0.1245(4)
C25 C 0.1714(2) 0.8300(4) 0.1668(4)
H19 H 0.1826(2) 0.8388(4) 0.1132(4)
C26 C 0.3060(2) 0.8503(2) 0.1801(3)
H20 H 0.2796(2) 0.8728(2) 0.1364(3)
C27 C 0.3686(2) 0.8514(2) 0.1850(3)
H21 H 0.3842(2) 0.8754(2) 0.1447(3)
C28 C 0.54654(19) 0.44179(18) 0.2980(3)
H22 H 0.57956(19) 0.42016(18) 0.3324(3)
C29 C 0.54854(18) 0.50405(18) 0.2995(3)
H23 H 0.58249(18) 0.52446(18) 0.3339(3)
C30 C 0.54481(19) 0.63597(17) 0.3063(3)
H24 H 0.57630(19) 0.61572(17) 0.3457(3)
C31 C 0.54320(18) 0.69809(17) 0.3044(3)
H25 H 0.57389(18) 0.71981(17) 0.3432(3)
S3 S 0.67979(6) 0.51877(7) 0.51162(9)
O8 O 0.65724(18) 0.5699(2) 0.4570(3)
S4 S 0.45394(7) 0.67912(5) 0.50472(8)
O9 O 0.67793(18) 0.4623(2) 0.4632(3)
O10 O 0.73927(17) 0.5295(2) 0.5684(3)
O11 O 0.5069(3) 0.70066(19) 0.4728(3)
O12 O 0.4009(2) 0.7192(2) 0.4813(3)
O13 O 0.46959(15) 0.66636(14) 0.5970(2)
C32 C 0.4665(2) 0.5536(2) 0.4754(3)
C33 C 0.4295(3) 0.6102(2) 0.4507(4)
H26 H 0.4268(3) 0.6168(2) 0.3880(4)
H27 H 0.3873(3) 0.6021(2) 0.4586(4)
C34 C 0.5620(2) 0.5030(2) 0.5388(3)
C35 C 0.5280(2) 0.5553(2) 0.5141(3)
H28 H 0.5478(2) 0.5932(2) 0.5244(3)
C36 C 0.6278(2) 0.5093(3) 0.5837(3)
H29 H 0.6317(2) 0.5444(3) 0.6231(3)
H30 H 0.6400(2) 0.4731(3) 0.6197(3)
C37 C 0.4967(3) 0.1358(2) 0.3237(4)
H31 H 0.4947(3) 0.1153(2) 0.3759(4)
C38 C 0.4961(3) 0.1983(2) 0.3207(4)
H32 H 0.4929(3) 0.2200(2) 0.3714(4)
C39 C 0.4738(3) 0.0048(2) 0.3087(4)
H33 H 0.4560(3) 0.0254(2) 0.3502(4)
O14 O 0.51772(19) 0.81861(16) 0.4083(3)
N7 N 0.59178(15) 0.82040(14) 0.2562(2)
N8 N 0.90947(16) 0.81688(15) 0.2568(2)
C41 C 0.6152(2) 0.7858(2) 0.2008(3)
H35 H 0.5877(2) 0.7623(2) 0.1596(3)
C42 C 0.6767(2) 0.7829(2) 0.2010(3)
H36 H 0.6911(2) 0.7580(2) 0.1604(3)
C43 C 0.71827(19) 0.81661(19) 0.2613(3)
C44 C 0.78454(19) 0.8160(2) 0.2611(3)
C45 C 0.8050(2) 0.8004(3) 0.1885(4)
H37 H 0.7765(2) 0.7890(3) 0.1377(4)
C46 C 0.8671(2) 0.8010(3) 0.1885(4)
H38 H 0.8800(2) 0.7896(3) 0.1371(4)
C47 C 0.8892(2) 0.8311(4) 0.3260(4)
H39 H 0.9187(2) 0.8433(4) 0.3755(4)
C48 C 0.8286(2) 0.8300(4) 0.3332(4)
H40 H 0.8174(2) 0.8388(4) 0.3868(4)
C49 C 0.6940(2) 0.8503(2) 0.3199(3)
H41 H 0.7204(2) 0.8728(2) 0.3636(3)
C50 C 0.6314(2) 0.8514(2) 0.3150(3)
H42 H 0.6158(2) 0.8754(2) 0.3553(3)
Cu3 Cu 0.500000 0.68011(3) 0.750000
Cu5_2 Cu 1.000000 0.81989(3) 0.250000
N9 N 0.500000 0.9112(2) 0.250000
N10 N 0.59053(16) 0.31688(15) 0.2432(2)
N11 N 0.40947(16) 0.31688(15) 0.2568(2)
O15 O 0.46959(15) 0.33364(14) 0.0970(2)
H43 H 0.443229 0.797295 0.0682064
H44 H 0.47977 0.860477 0.0692729
H45 H 0.556771 0.797295 0.431794
H46 H 0.52023 0.860477 0.430727
C12 C 0.5259(3) 0.9423(2) 0.1944(4)
H8 H 0.5450(3) 0.9207(2) 0.1552(4)
C40 C 0.4741(3) 0.9423(2) 0.3056(4)
H34 H 0.4550(3) 0.9207(2) 0.3448(4)
S1_2 S 0.67979(6) 0.48123(7) 0.01162(9)
S2_2 S 0.45394(7) 0.32088(5) 0.00472(8)
O4_2 O 0.73927(17) 0.4705(2) 0.0684(3)
C15_2 C 0.5620(2) 0.4970(2) 0.0388(3)
C16_2 C 0.5280(2) 0.4447(2) 0.0141(3)
H11_2 H 0.5478(2) 0.4068(2) 0.0244(3)
C17_2 C 0.6278(2) 0.4907(3) 0.0837(3)
H12_2 H 0.6317(2) 0.4556(3) 0.1231(3)
H13_2 H 0.6400(2) 0.5269(3) 0.1197(3)
O8_2 O 0.34276(18) 0.5699(2) 0.0430(3)
O9_2 O 0.32207(18) 0.4623(2) 0.0368(3)
O11_2 O 0.4931(3) 0.70066(19) 0.0272(3)
O12_2 O 0.5991(2) 0.7192(2) 0.0187(3)
C32_2 C 0.5335(2) 0.5536(2) 0.0246(3)
C33_2 C 0.5705(3) 0.6102(2) 0.0493(4)
H26_2 H 0.5732(3) 0.6168(2) 0.1120(4)
H27_2 H 0.6127(3) 0.6021(2) 0.0414(4)
O2_2 O 0.65724(18) 0.4301(2) 0.9570(3)
O3_2 O 0.67793(18) 0.5377(2) 0.9632(3)
O5_2 O 0.5069(3) 0.29934(19) 0.9728(3)
O6_2 O 0.4009(2) 0.2808(2) 0.9813(3)
C13_2 C 0.4665(2) 0.4464(2) 0.9754(3)
C14_2 C 0.4295(3) 0.3898(2) 0.9507(4)
H9_2 H 0.4268(3) 0.3832(2) 0.8880(4)
H10_2 H 0.3873(3) 0.3979(2) 0.9586(4)
S3_2 S 0.32021(6) 0.51877(7) 0.98838(9)
S4_2 S 0.54606(7) 0.67912(5) 0.99528(8)
O10_2 O 0.26073(17) 0.5295(2) 0.9316(3)
O13_2 O 0.53041(15) 0.66636(14) 0.9030(2)
C34_2 C 0.4380(2) 0.5030(2) 0.9612(3)
C35_2 C 0.4720(2) 0.5553(2) 0.9859(3)
H28_2 H 0.4522(2) 0.5932(2) 0.9756(3)
C36_2 C 0.3722(2) 0.5093(3) 0.9163(3)
H29_2 H 0.3683(2) 0.5444(3) 0.8769(3)
H30_2 H 0.3600(2) 0.4731(3) 0.8803(3)
C2_2 C 0.000000 0.0365(3) 0.250000
Cu2_2 Cu 0.000000 0.32049(3) 0.250000
N3_2 N 0.000000 0.22876(19) 0.250000
C4_2 C 0.000000 0.1028(2) 0.250000
C29_2 C 0.04854(18) 0.00405(18) 0.2995(3)
H23_2 H 0.08249(18) 0.02446(18) 0.3339(3)
C30_2 C 0.04481(19) 0.13597(17) 0.3063(3)
H24_2 H 0.07630(19) 0.11572(17) 0.3457(3)
C31_2 C 0.04320(18) 0.19809(17) 0.3044(3)
H25_2 H 0.07389(18) 0.21981(17) 0.3432(3)
S3_3 S 0.17979(6) 0.01877(7) 0.51162(9)
O8_3 O 0.15724(18) 0.0699(2) 0.4570(3)
O10_3 O 0.23927(17) 0.0295(2) 0.5684(3)
O11_3 O 0.0069(3) 0.20066(19) 0.4728(3)
C34_3 C 0.0620(2) 0.0030(2) 0.5388(3)
C35_3 C 0.0280(2) 0.0553(2) 0.5141(3)
H28_3 H 0.0478(2) 0.0932(2) 0.5244(3)
C36_3 C 0.1278(2) 0.0093(3) 0.5837(3)
H29_3 H 0.1317(2) 0.0444(3) 0.6231(3)
O14_2 O 0.01772(19) 0.31861(16) 0.4083(3)
N7_2 N 0.09178(15) 0.32040(14) 0.2562(2)
C41_2 C 0.1152(2) 0.2858(2) 0.2008(3)
H35_2 H 0.0877(2) 0.2623(2) 0.1596(3)
C42_2 C 0.1767(2) 0.2829(2) 0.2010(3)
H36_2 H 0.1911(2) 0.2580(2) 0.1604(3)
C43_2 C 0.21827(19) 0.31661(19) 0.2613(3)
C44_2 C 0.28454(19) 0.3160(2) 0.2611(3)
C45_2 C 0.3050(2) 0.3004(3) 0.1885(4)
H37_2 H 0.2765(2) 0.2890(3) 0.1377(4)
C46_2 C 0.3671(2) 0.3010(3) 0.1885(4)
H38_2 H 0.3800(2) 0.2896(3) 0.1371(4)
C47_2 C 0.3892(2) 0.3311(4) 0.3260(4)
H39_2 H 0.4187(2) 0.3433(4) 0.3755(4)
C48_2 C 0.3286(2) 0.3300(4) 0.3332(4)
H40_2 H 0.3174(2) 0.3388(4) 0.3868(4)
C49_2 C 0.1940(2) 0.3503(2) 0.3199(3)
H41_2 H 0.2204(2) 0.3728(2) 0.3636(3)
C50_2 C 0.1314(2) 0.3514(2) 0.3150(3)
H42_2 H 0.1158(2) 0.3754(2) 0.3553(3)
Cu3_2 Cu 0.000000 0.18011(3) 0.750000
N9_2 N 0.000000 0.4112(2) 0.250000
H45_2 H 0.0567706 0.297295 0.431794
H46_2 H 0.0202305 0.360477 0.430727
N1_2 N 0.000000 0.9106(2) 0.250000
N2_2 N 0.000000 0.7287(2) 0.250000
S2_3 S 0.04606(7) 0.82088(5) 0.49528(8)
O6_3 O 0.0991(2) 0.7808(2) 0.5187(3)
C7_2 C 0.000000 0.6040(2) 0.250000
C8_2 C 0.0033(3) 0.6358(2) 0.1763(4)
H5_2 H 0.0053(3) 0.6153(2) 0.1241(4)
O7_2 O 0.03041(15) 0.83364(14) 0.4030(2)
C9_2 C 0.0039(3) 0.6983(2) 0.1793(4)
H6_2 H 0.0071(3) 0.7200(2) 0.1286(4)
C10_2 C 0.000000 0.5365(3) 0.250000
C11_2 C 0.0262(3) 0.5048(2) 0.1913(4)
H7_2 H 0.0440(3) 0.5254(2) 0.1498(4)
C12_2 C 0.0259(3) 0.4423(2) 0.1944(4)
H8_2 H 0.0450(3) 0.4207(2) 0.1552(4)
C13_3 C 0.0335(2) 0.9464(2) 0.5246(3)
C14_3 C 0.0705(3) 0.8898(2) 0.5493(4)
H9_3 H 0.0732(3) 0.8832(2) 0.6120(4)
H10_3 H 0.1127(3) 0.8979(2) 0.5414(4)
C28_2 C 0.04654(19) 0.94179(18) 0.2980(3)
H22_2 H 0.07956(19) 0.92016(18) 0.3324(3)
O9_3 O 0.17793(18) 0.9623(2) 0.4632(3)
H30_3 H 0.1400(2) 0.9731(3) 0.6197(3)
O1_2 O 0.98228(19) 0.31861(16) 0.0917(3)
C2_3 C 1.000000 0.0365(3) 0.250000
Cu2_3 Cu 1.000000 0.32049(3) 0.250000
C3_2 C 0.95146(18) 0.00405(18) 0.2005(3)
H2_2 H 0.91751(18) 0.02446(18) 0.1661(3)
O3_3 O 0.82207(18) 0.0377(2) 0.5368(3)
N3_3 N 1.000000 0.22876(19) 0.250000
C4_3 C 1.000000 0.1028(2) 0.250000
N5_2 N 0.90822(15) 0.32040(14) 0.2438(2)
C5_2 C 0.95519(19) 0.13597(17) 0.1937(3)
H3_2 H 0.92370(19) 0.11572(17) 0.1543(3)
C6_2 C 0.95680(18) 0.19809(17) 0.1956(3)
H4_2 H 0.92611(18) 0.21981(17) 0.1568(3)
H13_3 H 0.8600(2) 0.0269(3) 0.3803(3)
C18_2 C 0.8848(2) 0.2858(2) 0.2992(3)
H14_2 H 0.9123(2) 0.2623(2) 0.3404(3)
C19_2 C 0.8233(2) 0.2829(2) 0.2990(3)
H15_2 H 0.8089(2) 0.2580(2) 0.3396(3)
C20_2 C 0.78173(19) 0.31661(19) 0.2387(3)
C21_2 C 0.71546(19) 0.3160(2) 0.2389(3)
C22_2 C 0.6950(2) 0.3004(3) 0.3115(4)
H16_2 H 0.7235(2) 0.2890(3) 0.3623(4)
C23_2 C 0.6329(2) 0.3010(3) 0.3115(4)
H17_2 H 0.6200(2) 0.2896(3) 0.3629(4)
C24_2 C 0.6108(2) 0.3311(4) 0.1740(4)
H18_2 H 0.5813(2) 0.3433(4) 0.1245(4)
C25_2 C 0.6714(2) 0.3300(4) 0.1668(4)
H19_2 H 0.6826(2) 0.3388(4) 0.1132(4)
C26_2 C 0.8060(2) 0.3503(2) 0.1801(3)
H20_2 H 0.7796(2) 0.3728(2) 0.1364(3)
C27_2 C 0.8686(2) 0.3514(2) 0.1850(3)
H21_2 H 0.8842(2) 0.3754(2) 0.1447(3)
S4_3 S 0.95394(7) 0.17912(5) 0.50472(8)
O12_3 O 0.9009(2) 0.2192(2) 0.4813(3)
O13_3 O 0.96959(15) 0.16636(14) 0.5970(2)
C32_3 C 0.9665(2) 0.0536(2) 0.4754(3)
C33_3 C 0.9295(3) 0.1102(2) 0.4507(4)
H26_3 H 0.9268(3) 0.1168(2) 0.3880(4)
H27_3 H 0.8873(3) 0.1021(2) 0.4586(4)
Cu3_3 Cu 1.000000 0.18011(3) 0.750000
N9_3 N 1.000000 0.4112(2) 0.250000
H43_2 H 0.943229 0.297295 0.0682064
H44_2 H 0.97977 0.360477 0.0692729
C1_2 C 0.95346(19) 0.94179(18) 0.2020(3)
H1_2 H 0.92044(19) 0.92016(18) 0.1676(3)
S1_3 S 0.82021(6) 0.98123(7) 0.48838(9)
N1_3 N 1.000000 0.9106(2) 0.250000
O2_3 O 0.84276(18) 0.9301(2) 0.5430(3)
N2_3 N 1.000000 0.7287(2) 0.250000
O4_3 O 0.76073(17) 0.9705(2) 0.4316(3)
O5_3 O 0.9931(3) 0.79934(19) 0.5272(3)
C7_3 C 1.000000 0.6040(2) 0.250000
C10_3 C 1.000000 0.5365(3) 0.250000
C15_3 C 0.9380(2) 0.9970(2) 0.4612(3)
C16_3 C 0.9720(2) 0.9447(2) 0.4859(3)
H11_3 H 0.9522(2) 0.9068(2) 0.4756(3)
C17_3 C 0.8722(2) 0.9907(3) 0.4163(3)
H12_3 H 0.8683(2) 0.9556(3) 0.3769(3)
C37_2 C 0.9967(3) 0.6358(2) 0.3237(4)
H31_2 H 0.9947(3) 0.6153(2) 0.3759(4)
C38_2 C 0.9961(3) 0.6983(2) 0.3207(4)
H32_2 H 0.9929(3) 0.7200(2) 0.3714(4)
C39_2 C 0.9738(3) 0.5048(2) 0.3087(4)
H33_2 H 0.9560(3) 0.5254(2) 0.3502(4)
C40_2 C 0.9741(3) 0.4423(2) 0.3056(4)
H34_2 H 0.9550(3) 0.4207(2) 0.3448(4)
O15_2 O 0.96959(15) 0.83364(14) 0.0970(2)
H13_4 H 0.1400(2) 0.0269(3) 0.1197(3)
O12_4 O 0.0991(2) 0.2192(2) 0.0187(3)
C32_4 C 0.0335(2) 0.0536(2) 0.0246(3)
C33_4 C 0.0705(3) 0.1102(2) 0.0493(4)
H26_4 H 0.0732(3) 0.1168(2) 0.1120(4)
H27_4 H 0.1127(3) 0.1021(2) 0.0414(4)
O3_4 O 0.17793(18) 0.0377(2) 0.9632(3)
S4_4 S 0.04606(7) 0.17912(5) 0.99528(8)
O13_4 O 0.03041(15) 0.16636(14) 0.9030(2)
S1_4 S 0.17979(6) 0.98123(7) 0.01162(9)
O4_4 O 0.23927(17) 0.9705(2) 0.0684(3)
C15_4 C 0.0620(2) 0.9970(2) 0.0388(3)
C16_4 C 0.0280(2) 0.9447(2) 0.0141(3)
H11_4 H 0.0478(2) 0.9068(2) 0.0244(3)
C17_4 C 0.1278(2) 0.9907(3) 0.0837(3)
H12_4 H 0.1317(2) 0.9556(3) 0.1231(3)
O2_4 O 0.15724(18) 0.9301(2) 0.9570(3)
O5_4 O 0.0069(3) 0.79934(19) 0.9728(3)
O8_4 O 0.84276(18) 0.0699(2) 0.0430(3)
O11_4 O 0.9931(3) 0.20066(19) 0.0272(3)
S3_4 S 0.82021(6) 0.01877(7) 0.98838(9)
O10_4 O 0.76073(17) 0.0295(2) 0.9316(3)
C34_4 C 0.9380(2) 0.0030(2) 0.9612(3)
C35_4 C 0.9720(2) 0.0553(2) 0.9859(3)
H28_4 H 0.9522(2) 0.0932(2) 0.9756(3)
C36_4 C 0.8722(2) 0.0093(3) 0.9163(3)
H29_4 H 0.8683(2) 0.0444(3) 0.8769(3)
S2_4 S 0.95394(7) 0.82088(5) 0.00472(8)
O9_4 O 0.82207(18) 0.9623(2) 0.0368(3)
O6_4 O 0.9009(2) 0.7808(2) 0.9813(3)
C13_4 C 0.9665(2) 0.9464(2) 0.9754(3)
C14_4 C 0.9295(3) 0.8898(2) 0.9507(4)
H9_4 H 0.9268(3) 0.8832(2) 0.8880(4)
H10_4 H 0.8873(3) 0.8979(2) 0.9586(4)
H30_4 H 0.8600(2) 0.9731(3) 0.8803(3)
N4 N 0.500000 0.0888(2) 0.750000
C12_3 C 0.4741(3) 0.0577(2) 0.8056(4)
H8_3 H 0.4550(3) 0.0793(2) 0.8448(4)
C40_3 C 0.5259(3) 0.0577(2) 0.6944(4)
H34_3 H 0.5450(3) 0.0793(2) 0.6552(4)
Cu6 Cu 0.500000 0.17951(3) 0.750000
C1_3 C 0.54654(19) 0.55821(18) 0.7980(3)
H1_3 H 0.57956(19) 0.57984(18) 0.8324(3)
O1_3 O 0.51772(19) 0.18139(16) 0.9083(3)
N1_4 N 0.500000 0.5894(2) 0.750000
N2_4 N 0.500000 0.7713(2) 0.750000
C2_4 C 0.500000 0.4635(3) 0.750000
C3_3 C 0.54854(18) 0.49595(18) 0.7995(3)
H2_3 H 0.58249(18) 0.47554(18) 0.8339(3)
N3_4 N 0.500000 0.27124(19) 0.750000
C4_4 C 0.500000 0.3972(2) 0.750000
N5_3 N 0.59178(15) 0.17960(14) 0.7562(2)
C5_3 C 0.54481(19) 0.36403(17) 0.8063(3)
H3_3 H 0.57630(19) 0.38428(17) 0.8457(3)
N6_2 N 0.90947(16) 0.18312(15) 0.7568(2)
C6_3 C 0.54320(18) 0.30191(17) 0.8044(3)
H4_3 H 0.57389(18) 0.28019(17) 0.8432(3)
C7_4 C 0.500000 0.8960(2) 0.750000
C8_3 C 0.4967(3) 0.8642(2) 0.8237(4)
H5_3 H 0.4947(3) 0.8847(2) 0.8759(4)
C9_3 C 0.4961(3) 0.8017(2) 0.8207(4)
H6_3 H 0.4929(3) 0.7800(2) 0.8714(4)
C10_4 C 0.500000 0.9635(3) 0.750000
C11_3 C 0.4738(3) 0.9952(2) 0.8087(4)
H7_3 H 0.4560(3) 0.9746(2) 0.8502(4)
C18_3 C 0.6152(2) 0.2142(2) 0.7008(3)
H14_3 H 0.5877(2) 0.2377(2) 0.6596(3)
C19_3 C 0.6767(2) 0.2171(2) 0.7010(3)
H15_3 H 0.6911(2) 0.2420(2) 0.6604(3)
C20_3 C 0.71827(19) 0.18339(19) 0.7613(3)
C21_3 C 0.78454(19) 0.1840(2) 0.7611(3)
C22_3 C 0.8050(2) 0.1996(3) 0.6885(4)
H16_3 H 0.7765(2) 0.2110(3) 0.6377(4)
C23_3 C 0.8671(2) 0.1990(3) 0.6885(4)
H17_3 H 0.8800(2) 0.2104(3) 0.6371(4)
C24_3 C 0.8892(2) 0.1689(4) 0.8260(4)
H18_3 H 0.9187(2) 0.1567(4) 0.8755(4)
C25_3 C 0.8286(2) 0.1700(4) 0.8332(4)
H19_3 H 0.8174(2) 0.1612(4) 0.8868(4)
C26_3 C 0.6940(2) 0.1497(2) 0.8199(3)
H20_3 H 0.7204(2) 0.1272(2) 0.8636(3)
C27_3 C 0.6314(2) 0.1486(2) 0.8150(3)
H21_3 H 0.6158(2) 0.1246(2) 0.8553(3)
C28_3 C 0.45346(19) 0.55821(18) 0.7020(3)
H22_3 H 0.42044(19) 0.57984(18) 0.6676(3)
C29_3 C 0.45146(18) 0.49595(18) 0.7005(3)
H23_3 H 0.41751(18) 0.47554(18) 0.6661(3)
C30_3 C 0.45519(19) 0.36403(17) 0.6937(3)
H24_3 H 0.42370(19) 0.38428(17) 0.6543(3)
C31_3 C 0.45680(18) 0.30191(17) 0.6956(3)
H25_3 H 0.42611(18) 0.28019(17) 0.6568(3)
C37_3 C 0.5033(3) 0.8642(2) 0.6763(4)
H31_3 H 0.5053(3) 0.8847(2) 0.6241(4)
C38_3 C 0.5039(3) 0.8017(2) 0.6793(4)
H32_3 H 0.5071(3) 0.7800(2) 0.6286(4)
C39_3 C 0.5262(3) 0.9952(2) 0.6913(4)
H33_3 H 0.5440(3) 0.9746(2) 0.6498(4)
O14_3 O 0.48228(19) 0.18139(16) 0.5917(3)
N7_3 N 0.40822(15) 0.17960(14) 0.7438(2)
N8_2 N 0.09053(16) 0.18312(15) 0.7432(2)
C41_3 C 0.3848(2) 0.2142(2) 0.7992(3)
H35_3 H 0.4123(2) 0.2377(2) 0.8404(3)
C42_3 C 0.3233(2) 0.2171(2) 0.7990(3)
H36_3 H 0.3089(2) 0.2420(2) 0.8396(3)
C43_3 C 0.28173(19) 0.18339(19) 0.7387(3)
C44_3 C 0.21546(19) 0.1840(2) 0.7389(3)
C45_3 C 0.1950(2) 0.1996(3) 0.8115(4)
H37_3 H 0.2235(2) 0.2110(3) 0.8623(4)
C46_3 C 0.1329(2) 0.1990(3) 0.8115(4)
H38_3 H 0.1200(2) 0.2104(3) 0.8629(4)
C47_3 C 0.1108(2) 0.1689(4) 0.6740(4)
H39_3 H 0.0813(2) 0.1567(4) 0.6245(4)
C48_3 C 0.1714(2) 0.1700(4) 0.6668(4)
H40_3 H 0.1826(2) 0.1612(4) 0.6132(4)
C49_3 C 0.3060(2) 0.1497(2) 0.6801(3)
H41_3 H 0.2796(2) 0.1272(2) 0.6364(3)
C50_3 C 0.3686(2) 0.1486(2) 0.6850(3)
H42_3 H 0.3842(2) 0.1246(2) 0.6447(3)
N10_2 N 0.40947(16) 0.68312(15) 0.7568(2)
N11_2 N 0.59053(16) 0.68312(15) 0.7432(2)
H43_3 H 0.556771 0.202705 0.931794
H44_3 H 0.52023 0.139523 0.930727
H45_3 H 0.443229 0.202705 0.568206
H46_3 H 0.47977 0.139523 0.569273
C1_4 C 0.04654(19) 0.05821(18) 0.7980(3)
H1_4 H 0.07956(19) 0.07984(18) 0.8324(3)
N1_5 N 0.000000 0.0894(2) 0.750000
N2_5 N 0.000000 0.2713(2) 0.750000
N4_2 N 0.000000 0.5888(2) 0.750000
C7_5 C 0.000000 0.3960(2) 0.750000
C10_5 C 0.000000 0.4635(3) 0.750000
C37_4 C 0.0033(3) 0.3642(2) 0.6763(4)
H31_4 H 0.0053(3) 0.3847(2) 0.6241(4)
C38_4 C 0.0039(3) 0.3017(2) 0.6793(4)
H32_4 H 0.0071(3) 0.2800(2) 0.6286(4)
C39_4 C 0.0262(3) 0.4952(2) 0.6913(4)
H33_4 H 0.0440(3) 0.4746(2) 0.6498(4)
C40_4 C 0.0259(3) 0.5577(2) 0.6944(4)
H34_4 H 0.0450(3) 0.5793(2) 0.6552(4)
Cu6_2 Cu 0.000000 0.67951(3) 0.750000
O1_4 O 0.01772(19) 0.68139(16) 0.9083(3)
C2_5 C 0.000000 0.9635(3) 0.750000
C3_4 C 0.04854(18) 0.99595(18) 0.7995(3)
H2_4 H 0.08249(18) 0.97554(18) 0.8339(3)
N3_5 N 0.000000 0.77124(19) 0.750000
C4_5 C 0.000000 0.8972(2) 0.750000
N5_4 N 0.09178(15) 0.67960(14) 0.7562(2)
C5_4 C 0.04481(19) 0.86403(17) 0.8063(3)
H3_4 H 0.07630(19) 0.88428(17) 0.8457(3)
C6_4 C 0.04320(18) 0.80191(17) 0.8044(3)
H4_4 H 0.07389(18) 0.78019(17) 0.8432(3)
C18_4 C 0.1152(2) 0.7142(2) 0.7008(3)
H14_4 H 0.0877(2) 0.7377(2) 0.6596(3)
C19_4 C 0.1767(2) 0.7171(2) 0.7010(3)
H15_4 H 0.1911(2) 0.7420(2) 0.6604(3)
C20_4 C 0.21827(19) 0.68339(19) 0.7613(3)
C21_4 C 0.28454(19) 0.6840(2) 0.7611(3)
C22_4 C 0.3050(2) 0.6996(3) 0.6885(4)
H16_4 H 0.2765(2) 0.7110(3) 0.6377(4)
C23_4 C 0.3671(2) 0.6990(3) 0.6885(4)
H17_4 H 0.3800(2) 0.7104(3) 0.6371(4)
C24_4 C 0.3892(2) 0.6689(4) 0.8260(4)
H18_4 H 0.4187(2) 0.6567(4) 0.8755(4)
C25_4 C 0.3286(2) 0.6700(4) 0.8332(4)
H19_4 H 0.3174(2) 0.6612(4) 0.8868(4)
C26_4 C 0.1940(2) 0.6497(2) 0.8199(3)
H20_4 H 0.2204(2) 0.6272(2) 0.8636(3)
C27_4 C 0.1314(2) 0.6486(2) 0.8150(3)
H21_4 H 0.1158(2) 0.6246(2) 0.8553(3)
H43_4 H 0.0567706 0.702705 0.931794
H44_4 H 0.0202305 0.639523 0.930727
N1_6 N 1.000000 0.0894(2) 0.750000
N2_6 N 1.000000 0.2713(2) 0.750000
N4_3 N 1.000000 0.5888(2) 0.750000
C7_6 C 1.000000 0.3960(2) 0.750000
C8_4 C 0.9967(3) 0.3642(2) 0.8237(4)
H5_4 H 0.9947(3) 0.3847(2) 0.8759(4)
C9_4 C 0.9961(3) 0.3017(2) 0.8207(4)
H6_4 H 0.9929(3) 0.2800(2) 0.8714(4)
C10_6 C 1.000000 0.4635(3) 0.750000
C11_4 C 0.9738(3) 0.4952(2) 0.8087(4)
H7_4 H 0.9560(3) 0.4746(2) 0.8502(4)
C12_4 C 0.9741(3) 0.5577(2) 0.8056(4)
H8_4 H 0.9550(3) 0.5793(2) 0.8448(4)
C28_4 C 0.95346(19) 0.05821(18) 0.7020(3)
H22_4 H 0.92044(19) 0.07984(18) 0.6676(3)
Cu6_3 Cu 1.000000 0.67951(3) 0.750000
C2_6 C 1.000000 0.9635(3) 0.750000
N3_6 N 1.000000 0.77124(19) 0.750000
C4_6 C 1.000000 0.8972(2) 0.750000
C29_4 C 0.95146(18) 0.99595(18) 0.7005(3)
H23_4 H 0.91751(18) 0.97554(18) 0.6661(3)
C30_4 C 0.95519(19) 0.86403(17) 0.6937(3)
H24_4 H 0.92370(19) 0.88428(17) 0.6543(3)
C31_4 C 0.95680(18) 0.80191(17) 0.6956(3)
H25_4 H 0.92611(18) 0.78019(17) 0.6568(3)
O14_4 O 0.98228(19) 0.68139(16) 0.5917(3)
N7_4 N 0.90822(15) 0.67960(14) 0.7438(2)
C41_4 C 0.8848(2) 0.7142(2) 0.7992(3)
H35_4 H 0.9123(2) 0.7377(2) 0.8404(3)
C42_4 C 0.8233(2) 0.7171(2) 0.7990(3)
H36_4 H 0.8089(2) 0.7420(2) 0.8396(3)
C43_4 C 0.78173(19) 0.68339(19) 0.7387(3)
C44_4 C 0.71546(19) 0.6840(2) 0.7389(3)
C45_4 C 0.6950(2) 0.6996(3) 0.8115(4)
H37_4 H 0.7235(2) 0.7110(3) 0.8623(4)
C46_4 C 0.6329(2) 0.6990(3) 0.8115(4)
H38_4 H 0.6200(2) 0.7104(3) 0.8629(4)
C47_4 C 0.6108(2) 0.6689(4) 0.6740(4)
H39_4 H 0.5813(2) 0.6567(4) 0.6245(4)
C48_4 C 0.6714(2) 0.6700(4) 0.6668(4)
H40_4 H 0.6826(2) 0.6612(4) 0.6132(4)
C49_4 C 0.8060(2) 0.6497(2) 0.6801(3)
H41_4 H 0.7796(2) 0.6272(2) 0.6364(3)
C50_4 C 0.8686(2) 0.6486(2) 0.6850(3)
H42_4 H 0.8842(2) 0.6246(2) 0.6447(3)
H45_4 H 0.943229 0.702705 0.568206
H46_4 H 0.97977 0.639523 0.569273
loop_
_geom_bond_atom_site_label_1
_geom_bond_atom_site_label_2
_geom_bond_site_symmetry_1
_geom_bond_site_symmetry_2
Cu1 N1 1_555 1_555
C1 H1 1_555 1_555
S1 O2 1_555 1_555
O1 Cu2 1_555 1_555
N1 C1 1_555 1_555
N2 Cu1 1_555 1_555
C2 C3 1_555 1_555
Cu2 N3 1_555 1_555
C3 C1 1_555 1_555
H2 C3 1_555 1_555
S2 O5 1_555 1_555
O3 S1 1_555 1_555
N3 C6 1_555 1_555
O4 S1 1_555 1_555
C4 C2 1_555 1_555
N5 Cu2 1_555 1_555
C5 C4 1_555 1_555
H3 C5 1_555 1_555
N6 C23 1_555 1_555
C6 C5 1_555 1_555
H4 C6 1_555 1_555
O6 S2 1_555 1_555
C7 C8 1_555 1_555
C8 H5 1_555 1_555
O7 Cu1 1_555 1_555
C9 N2 1_555 1_555
H6 C9 1_555 1_555
C10 C7 1_555 1_555
C11 C10 1_555 1_555
H7 C11 1_555 1_555
C13 C14 1_555 1_555
C14 S2 1_555 1_555
H9 C14 1_555 1_555
H10 C14 1_555 1_555
C15 C16 1_555 1_555
C16 C13 1_555 1_555
H11 C16 1_555 1_555
C17 S1 1_555 1_555
H12 C17 1_555 1_555
H13 C17 1_555 1_555
C18 N5 1_555 1_555
H14 C18 1_555 1_555
C19 C18 1_555 1_555
H15 C19 1_555 1_555
C20 C19 1_555 1_555
C21 C20 1_555 1_555
C22 C21 1_555 1_555
H16 C22 1_555 1_555
C23 C22 1_555 1_555
H17 C23 1_555 1_555
C24 N6 1_555 1_555
H18 C24 1_555 1_555
C25 C21 1_555 1_555
H19 C25 1_555 1_555
C26 C20 1_555 1_555
H20 C26 1_555 1_555
C27 N5 1_555 1_555
H21 C27 1_555 1_555
C28 N1 1_555 1_555
H22 C28 1_555 1_555
C29 C2 1_555 1_555
H23 C29 1_555 1_555
C30 C4 1_555 1_555
H24 C30 1_555 1_555
C31 N3 1_555 1_555
H25 C31 1_555 1_555
S3 O8 1_555 1_555
S4 O11 1_555 1_555
O9 S3 1_555 1_555
O10 S3 1_555 1_555
O12 S4 1_555 1_555
O13 S4 1_555 1_555
C32 C15 1_555 1_555
C33 S4 1_555 1_555
H26 C33 1_555 1_555
H27 C33 1_555 1_555
C34 C13 1_555 1_555
C35 C32 1_555 1_555
H28 C35 1_555 1_555
C36 S3 1_555 1_555
H29 C36 1_555 1_555
H30 C36 1_555 1_555
C37 C7 1_555 1_555
H31 C37 1_555 1_555
C38 N2 1_555 1_555
H32 C38 1_555 1_555
C39 C10 1_555 1_555
H33 C39 1_555 1_555
O14 Cu2 1_555 1_555
N7 Cu2 1_555 1_555
N8 C46 1_555 1_555
C41 N7 1_555 1_555
H35 C41 1_555 1_555
C42 C41 1_555 1_555
H36 C42 1_555 1_555
C43 C42 1_555 1_555
C44 C43 1_555 1_555
C45 C44 1_555 1_555
H37 C45 1_555 1_555
C46 C45 1_555 1_555
H38 C46 1_555 1_555
C47 N8 1_555 1_555
H39 C47 1_555 1_555
C48 C44 1_555 1_555
H40 C48 1_555 1_555
C49 C43 1_555 1_555
H41 C49 1_555 1_555
C50 N7 1_555 1_555
H42 C50 1_555 1_555
Cu3 O13 1_555 1_555
Cu5 N6 1_555 1_555
Cu5_2 N8 1_555 1_555
N9 Cu2 1_555 1_555
N10 Cu1 1_555 1_555
N11 Cu1 1_555 1_555
O15 Cu1 1_555 1_555
S2 O7 1_555 1_555
C8 C9 1_555 1_555
C15 C17 1_555 1_555
C24 C25 1_555 1_555
C26 C27 1_555 1_555
C28 C29 1_555 1_555
C30 C31 1_555 1_555
C32 C33 1_555 1_555
C34 C35 1_555 1_555
C34 C36 1_555 1_555
C37 C38 1_555 1_555
C47 C48 1_555 1_555
C49 C50 1_555 1_555
O1 H43 1_555 1_555
O1 H44 1_555 1_555
O14 H45 1_555 1_555
O14 H46 1_555 1_555
N9 C12 1_555 1_555
H8 C12 1_555 1_555
C40 N9 1_555 1_555
H34 C40 1_555 1_555
O4_2 S1_2 1_555 1_555
C15_2 C16_2 1_555 1_555
H11_2 C16_2 1_555 1_555
C17_2 S1_2 1_555 1_555
H12_2 C17_2 1_555 1_555
H13_2 C17_2 1_555 1_555
C32_2 C15_2 1_555 1_555
H26_2 C33_2 1_555 1_555
H27_2 C33_2 1_555 1_555
S2_2 O15 1_555 1_555
C15_2 C17_2 1_555 1_555
C32_2 C33_2 1_555 1_555
C13_2 C14_2 1_555 1_555
H9_2 C14_2 1_555 1_555
H10_2 C14_2 1_555 1_555
O10_2 S3_2 1_555 1_555
O13_2 S4_2 1_555 1_555
C34_2 C13_2 1_555 1_555
H28_2 C35_2 1_555 1_555
C36_2 S3_2 1_555 1_555
H29_2 C36_2 1_555 1_555
H30_2 C36_2 1_555 1_555
Cu3 O13_2 1_555 1_555
C34_2 C35_2 1_555 1_555
C34_2 C36_2 1_555 1_555
Cu2_2 N3_2 1_555 1_555
C4_2 C2_2 1_555 1_555
C29_2 C2_2 1_555 1_555
H23_2 C29_2 1_555 1_555
C30_2 C4_2 1_555 1_555
H24_2 C30_2 1_555 1_555
C31_2 N3_2 1_555 1_555
H25_2 C31_2 1_555 1_555
S3_3 O8_3 1_555 1_555
O10_3 S3_3 1_555 1_555
H28_3 C35_3 1_555 1_555
C36_3 S3_3 1_555 1_555
H29_3 C36_3 1_555 1_555
O14_2 Cu2_2 1_555 1_555
N7_2 Cu2_2 1_555 1_555
N11 C46_2 1_555 1_555
C41_2 N7_2 1_555 1_555
H35_2 C41_2 1_555 1_555
C42_2 C41_2 1_555 1_555
H36_2 C42_2 1_555 1_555
C43_2 C42_2 1_555 1_555
C44_2 C43_2 1_555 1_555
C45_2 C44_2 1_555 1_555
H37_2 C45_2 1_555 1_555
C46_2 C45_2 1_555 1_555
H38_2 C46_2 1_555 1_555
C47_2 N11 1_555 1_555
H39_2 C47_2 1_555 1_555
C48_2 C44_2 1_555 1_555
H40_2 C48_2 1_555 1_555
C49_2 C43_2 1_555 1_555
H41_2 C49_2 1_555 1_555
C50_2 N7_2 1_555 1_555
H42_2 C50_2 1_555 1_555
N9_2 Cu2_2 1_555 1_555
C30_2 C31_2 1_555 1_555
C34_3 C35_3 1_555 1_555
C34_3 C36_3 1_555 1_555
C47_2 C48_2 1_555 1_555
C49_2 C50_2 1_555 1_555
O14_2 H45_2 1_555 1_555
O14_2 H46_2 1_555 1_555
Cu5 N1_2 1_555 1_555
N2_2 Cu5 1_555 1_555
N9_2 C12_2 1_555 1_555
O6_3 S2_3 1_555 1_555
C7_2 C8_2 1_555 1_555
C8_2 H5_2 1_555 1_555
O7_2 Cu5 1_555 1_555
C9_2 N2_2 1_555 1_555
H6_2 C9_2 1_555 1_555
C10_2 C7_2 1_555 1_555
C11_2 C10_2 1_555 1_555
H7_2 C11_2 1_555 1_555
C12_2 C11_2 1_555 1_555
H8_2 C12_2 1_555 1_555
C13_3 C14_3 1_555 1_555
C14_3 S2_3 1_555 1_555
H9_3 C14_3 1_555 1_555
H10_3 C14_3 1_555 1_555
C28_2 N1_2 1_555 1_555
H22_2 C28_2 1_555 1_555
S2_3 O7_2 1_555 1_555
C8_2 C9_2 1_555 1_555
O1_2 Cu2_3 1_555 1_555
C2_3 C3_2 1_555 1_555
Cu2_3 N3_3 1_555 1_555
H2_2 C3_2 1_555 1_555
N3_3 C6_2 1_555 1_555
C4_3 C2_3 1_555 1_555
N5_2 Cu2_3 1_555 1_555
C5_2 C4_3 1_555 1_555
H3_2 C5_2 1_555 1_555
N10 C23_2 1_555 1_555
C6_2 C5_2 1_555 1_555
H4_2 C6_2 1_555 1_555
C18_2 N5_2 1_555 1_555
H14_2 C18_2 1_555 1_555
C19_2 C18_2 1_555 1_555
H15_2 C19_2 1_555 1_555
C20_2 C19_2 1_555 1_555
C21_2 C20_2 1_555 1_555
C22_2 C21_2 1_555 1_555
H16_2 C22_2 1_555 1_555
C23_2 C22_2 1_555 1_555
H17_2 C23_2 1_555 1_555
C24_2 N10 1_555 1_555
H18_2 C24_2 1_555 1_555
C25_2 C21_2 1_555 1_555
H19_2 C25_2 1_555 1_555
C26_2 C20_2 1_555 1_555
H20_2 C26_2 1_555 1_555
C27_2 N5_2 1_555 1_555
H21_2 C27_2 1_555 1_555
O12_3 S4_3 1_555 1_555
O13_3 S4_3 1_555 1_555
C33_3 S4_3 1_555 1_555
H26_3 C33_3 1_555 1_555
H27_3 C33_3 1_555 1_555
Cu3_3 O13_3 1_555 1_555
N9_3 Cu2_3 1_555 1_555
C24_2 C25_2 1_555 1_555
C26_2 C27_2 1_555 1_555
C32_3 C33_3 1_555 1_555
O1_2 H43_2 1_555 1_555
O1_2 H44_2 1_555 1_555
Cu5_2 N1_3 1_555 1_555
C1_2 H1_2 1_555 1_555
S1_3 O2_3 1_555 1_555
N1_3 C1_2 1_555 1_555
N2_3 Cu5_2 1_555 1_555
O4_3 S1_3 1_555 1_555
C10_3 C7_3 1_555 1_555
C15_3 C16_3 1_555 1_555
H11_3 C16_3 1_555 1_555
C17_3 S1_3 1_555 1_555
H12_3 C17_3 1_555 1_555
C37_2 C7_3 1_555 1_555
H31_2 C37_2 1_555 1_555
C38_2 N2_3 1_555 1_555
H32_2 C38_2 1_555 1_555
C39_2 C10_3 1_555 1_555
H33_2 C39_2 1_555 1_555
C40_2 N9_3 1_555 1_555
H34_2 C40_2 1_555 1_555
O15_2 Cu5_2 1_555 1_555
C15_3 C17_3 1_555 1_555
C37_2 C38_2 1_555 1_555
C39_2 C40_2 1_555 1_555
H26_4 C33_4 1_555 1_555
H27_4 C33_4 1_555 1_555
C32_4 C33_4 1_555 1_555
O13_4 S4_4 1_555 1_555
Cu3_2 O13_4 1_555 1_555
O4_4 S1_4 1_555 1_555
C15_4 C16_4 1_555 1_555
H11_4 C16_4 1_555 1_555
C17_4 S1_4 1_555 1_555
H12_4 C17_4 1_555 1_555
C15_4 C17_4 1_555 1_555
O10_4 S3_4 1_555 1_555
H28_4 C35_4 1_555 1_555
C36_4 S3_4 1_555 1_555
H29_4 C36_4 1_555 1_555
C34_4 C35_4 1_555 1_555
C34_4 C36_4 1_555 1_555
S2_4 O15_2 1_555 1_555
C13_4 C14_4 1_555 1_555
H9_4 C14_4 1_555 1_555
H10_4 C14_4 1_555 1_555
N4 C12_3 1_555 1_555
H8_3 C12_3 1_555 1_555
C40_3 N4 1_555 1_555
H34_3 C40_3 1_555 1_555
Cu6 N4 1_555 1_555
Cu3 N1_4 1_555 1_555
C1_3 H1_3 1_555 1_555
O1_3 Cu6 1_555 1_555
N1_4 C1_3 1_555 1_555
N2_4 Cu3 1_555 1_555
C2_4 C3_3 1_555 1_555
Cu6 N3_4 1_555 1_555
C3_3 C1_3 1_555 1_555
H2_3 C3_3 1_555 1_555
N3_4 C6_3 1_555 1_555
C4_4 C2_4 1_555 1_555
N5_3 Cu6 1_555 1_555
C5_3 C4_4 1_555 1_555
H3_3 C5_3 1_555 1_555
N6_2 C23_3 1_555 1_555
C6_3 C5_3 1_555 1_555
H4_3 C6_3 1_555 1_555
C7_4 C8_3 1_555 1_555
C8_3 H5_3 1_555 1_555
C9_3 N2_4 1_555 1_555
H6_3 C9_3 1_555 1_555
C10_4 C7_4 1_555 1_555
C11_3 C10_4 1_555 1_555
H7_3 C11_3 1_555 1_555
C18_3 N5_3 1_555 1_555
H14_3 C18_3 1_555 1_555
C19_3 C18_3 1_555 1_555
H15_3 C19_3 1_555 1_555
C20_3 C19_3 1_555 1_555
C21_3 C20_3 1_555 1_555
C22_3 C21_3 1_555 1_555
H16_3 C22_3 1_555 1_555
C23_3 C22_3 1_555 1_555
H17_3 C23_3 1_555 1_555
C24_3 N6_2 1_555 1_555
H18_3 C24_3 1_555 1_555
C25_3 C21_3 1_555 1_555
H19_3 C25_3 1_555 1_555
C26_3 C20_3 1_555 1_555
H20_3 C26_3 1_555 1_555
C27_3 N5_3 1_555 1_555
H21_3 C27_3 1_555 1_555
C28_3 N1_4 1_555 1_555
H22_3 C28_3 1_555 1_555
C29_3 C2_4 1_555 1_555
H23_3 C29_3 1_555 1_555
C30_3 C4_4 1_555 1_555
H24_3 C30_3 1_555 1_555
C31_3 N3_4 1_555 1_555
H25_3 C31_3 1_555 1_555
C37_3 C7_4 1_555 1_555
H31_3 C37_3 1_555 1_555
C38_3 N2_4 1_555 1_555
H32_3 C38_3 1_555 1_555
C39_3 C10_4 1_555 1_555
H33_3 C39_3 1_555 1_555
O14_3 Cu6 1_555 1_555
N7_3 Cu6 1_555 1_555
N8_2 C46_3 1_555 1_555
C41_3 N7_3 1_555 1_555
H35_3 C41_3 1_555 1_555
C42_3 C41_3 1_555 1_555
H36_3 C42_3 1_555 1_555
C43_3 C42_3 1_555 1_555
C44_3 C43_3 1_555 1_555
C45_3 C44_3 1_555 1_555
H37_3 C45_3 1_555 1_555
C46_3 C45_3 1_555 1_555
H38_3 C46_3 1_555 1_555
C47_3 N8_2 1_555 1_555
H39_3 C47_3 1_555 1_555
C48_3 C44_3 1_555 1_555
H40_3 C48_3 1_555 1_555
C49_3 C43_3 1_555 1_555
H41_3 C49_3 1_555 1_555
C50_3 N7_3 1_555 1_555
H42_3 C50_3 1_555 1_555
Cu3_3 N6_2 1_555 1_555
Cu3_2 N8_2 1_555 1_555
N10_2 Cu3 1_555 1_555
N11_2 Cu3 1_555 1_555
C8_3 C9_3 1_555 1_555
C24_3 C25_3 1_555 1_555
C26_3 C27_3 1_555 1_555
C28_3 C29_3 1_555 1_555
C30_3 C31_3 1_555 1_555
C37_3 C38_3 1_555 1_555
C47_3 C48_3 1_555 1_555
C49_3 C50_3 1_555 1_555
O1_3 H43_3 1_555 1_555
O1_3 H44_3 1_555 1_555
O14_3 H45_3 1_555 1_555
O14_3 H46_3 1_555 1_555
Cu3_2 N1_5 1_555 1_555
C1_4 H1_4 1_555 1_555
N1_5 C1_4 1_555 1_555
N2_5 Cu3_2 1_555 1_555
C10_5 C7_5 1_555 1_555
C37_4 C7_5 1_555 1_555
H31_4 C37_4 1_555 1_555
C38_4 N2_5 1_555 1_555
H32_4 C38_4 1_555 1_555
C39_4 C10_5 1_555 1_555
H33_4 C39_4 1_555 1_555
C40_4 N4_2 1_555 1_555
H34_4 C40_4 1_555 1_555
Cu6_2 N4_2 1_555 1_555
C37_4 C38_4 1_555 1_555
C39_4 C40_4 1_555 1_555
O1_4 Cu6_2 1_555 1_555
C2_5 C3_4 1_555 1_555
Cu6_2 N3_5 1_555 1_555
H2_4 C3_4 1_555 1_555
N3_5 C6_4 1_555 1_555
C4_5 C2_5 1_555 1_555
N5_4 Cu6_2 1_555 1_555
C5_4 C4_5 1_555 1_555
H3_4 C5_4 1_555 1_555
N10_2 C23_4 1_555 1_555
C6_4 C5_4 1_555 1_555
H4_4 C6_4 1_555 1_555
C18_4 N5_4 1_555 1_555
H14_4 C18_4 1_555 1_555
C19_4 C18_4 1_555 1_555
H15_4 C19_4 1_555 1_555
C20_4 C19_4 1_555 1_555
C21_4 C20_4 1_555 1_555
C22_4 C21_4 1_555 1_555
H16_4 C22_4 1_555 1_555
C23_4 C22_4 1_555 1_555
H17_4 C23_4 1_555 1_555
C24_4 N10_2 1_555 1_555
H18_4 C24_4 1_555 1_555
C25_4 C21_4 1_555 1_555
H19_4 C25_4 1_555 1_555
C26_4 C20_4 1_555 1_555
H20_4 C26_4 1_555 1_555
C27_4 N5_4 1_555 1_555
H21_4 C27_4 1_555 1_555
C24_4 C25_4 1_555 1_555
C26_4 C27_4 1_555 1_555
O1_4 H43_4 1_555 1_555
O1_4 H44_4 1_555 1_555
Cu3_3 N1_6 1_555 1_555
N2_6 Cu3_3 1_555 1_555
N4_3 C12_4 1_555 1_555
C7_6 C8_4 1_555 1_555
C8_4 H5_4 1_555 1_555
C9_4 N2_6 1_555 1_555
H6_4 C9_4 1_555 1_555
C10_6 C7_6 1_555 1_555
C11_4 C10_6 1_555 1_555
H7_4 C11_4 1_555 1_555
C12_4 C11_4 1_555 1_555
H8_4 C12_4 1_555 1_555
C28_4 N1_6 1_555 1_555
H22_4 C28_4 1_555 1_555
Cu6_3 N4_3 1_555 1_555
C8_4 C9_4 1_555 1_555
Cu6_3 N3_6 1_555 1_555
C4_6 C2_6 1_555 1_555
C29_4 C2_6 1_555 1_555
H23_4 C29_4 1_555 1_555
C30_4 C4_6 1_555 1_555
H24_4 C30_4 1_555 1_555
C31_4 N3_6 1_555 1_555
H25_4 C31_4 1_555 1_555
O14_4 Cu6_3 1_555 1_555
N7_4 Cu6_3 1_555 1_555
N11_2 C46_4 1_555 1_555
C41_4 N7_4 1_555 1_555
H35_4 C41_4 1_555 1_555
C42_4 C41_4 1_555 1_555
H36_4 C42_4 1_555 1_555
C43_4 C42_4 1_555 1_555
C44_4 C43_4 1_555 1_555
C45_4 C44_4 1_555 1_555
H37_4 C45_4 1_555 1_555
C46_4 C45_4 1_555 1_555
H38_4 C46_4 1_555 1_555
C47_4 N11_2 1_555 1_555
H39_4 C47_4 1_555 1_555
C48_4 C44_4 1_555 1_555
H40_4 C48_4 1_555 1_555
C49_4 C43_4 1_555 1_555
H41_4 C49_4 1_555 1_555
C50_4 N7_4 1_555 1_555
H42_4 C50_4 1_555 1_555
C30_4 C31_4 1_555 1_555
C47_4 C48_4 1_555 1_555
C49_4 C50_4 1_555 1_555
O14_4 H45_4 1_555 1_555
O14_4 H46_4 1_555 1_555

#END
