
###############################################################################
#
# This file contains modified crystal structure data generated from the
# MOF subset of the Cambridge Structural Database (CSD) v543 
# hosted by the Cambridge Crystallographic Data Centre (CCDC).
#
# This work is licensed under the Creative Commons
# Attribution-NonCommercial-ShareAlike 4.0 International License.
# To view a copy of this license, visit
# http://creativecommons.org/licenses/by-nc-sa/4.0/
# or send a letter to
# Creative Commons, PO Box 1866, Mountain View, CA 94042, USA.
#
# CIF created using the CSD Python API on 29 September 2022
# The structure has been converted into the P1 space group
# The structure has a 3D framework
# The original CSD entry MIFKUJ is in the triclinic crystal system
# The framework has been calculated to contain at least 10.0% void space
# The void calculation uses a probe of radius 1.32A, grid spacing 0.4
# H atom positions have been added when not included in the experimental data
#
###############################################################################

data_MIFKUJ
_chemical_formula_moiety         '(C68 H40 O16 Zn2)n'
_symmetry_cell_setting           triclinic
_symmetry_space_group_name_H-M   'P 1'
_symmetry_Int_Tables_number      1
_space_group_name_Hall           'P 1'
loop_
_symmetry_equiv_pos_site_id
_symmetry_equiv_pos_as_xyz
1 x,y,z
_cell_length_a                   12.0239(15)
_cell_length_b                   13.4820(17)
_cell_length_c                   14.0414(18)
_cell_angle_alpha                70.491(2)
_cell_angle_beta                 77.141(2)
_cell_angle_gamma                89.312(2)
_cell_volume                     2086.9
loop_
_atom_site_label
_atom_site_type_symbol
_atom_site_fract_x
_atom_site_fract_y
_atom_site_fract_z
Zn7 Zn 0.07234(3) 0.35811(3) 0.98387(3)
H3 H 0.0334 0.0489 0.2151
O10 O 0.0721(3) 0.3137(2) 0.8638(2)
C35 C 0.0237(4) 0.1735(3) 0.8126(3)
C36 C 0.0455(4) 0.2357(4) 0.7104(3)
H19 H 0.0667 0.3087 0.6911
C37 C 0.0370(4) 0.1936(4) 0.6344(3)
H20 H 0.0529 0.2380 0.5636
C38 C 0.0060(4) 0.0892(4) 0.6599(3)
C41 C 0.0296(4) 0.2196(3) 0.8953(3)
O3 O 0.0828(2) 0.59474(18) 0.98651(18)
O4 O 0.1726(2) 0.48784(19) 0.9087(2)
O5 O 0.7503(5) 0.7425(5) 0.9921(4)
O6 O 0.8814(4) 0.7119(4) 0.8803(5)
C17 C 0.3706(3) 0.8326(3) 0.6790(3)
C18 C 0.2729(3) 0.8527(3) 0.7403(3)
H10 H 0.2522 0.9233 0.7277
C19 C 0.2036(3) 0.7712(3) 0.8207(3)
H11 H 0.1380 0.7863 0.8643
C20 C 0.2320(3) 0.6676(2) 0.8359(3)
C21 C 0.3322(3) 0.6482(3) 0.7729(3)
H12 H 0.3522 0.5777 0.7828
C22 C 0.4013(3) 0.7296(3) 0.6975(3)
H13 H 0.4706 0.7155 0.6577
C23 C 0.1564(3) 0.5779(2) 0.9153(3)
C24 C 0.4391(3) 0.9201(3) 0.5907(3)
C25 C 0.3851(3) 0.9804(3) 0.5158(3)
H14 H 0.3049 0.9678 0.5268
C26 C 0.5570(3) 0.9402(3) 0.5761(3)
C27 C 0.6225(4) 0.8853(3) 0.6548(3)
C28 C 0.5809(6) 0.8748(4) 0.7580(4)
H15 H 0.5090 0.8998 0.7803
C29 C 0.6472(9) 0.8267(5) 0.8285(6)
H16 H 0.6178 0.8204 0.8991
C30 C 0.7451(8) 0.7901(5) 0.8053(7)
C31 C 0.7866(5) 0.7995(5) 0.7017(7)
H17 H 0.8584 0.7728 0.6821
C32 C 0.7268(4) 0.8467(4) 0.6257(5)
H18 H 0.7569 0.8522 0.5555
C33 C 0.8038(9) 0.7428(6) 0.9065(5)
C9 C 0.9440(4) 0.0475(5) 0.4224(4)
H5 H 0.9054 0.0813 0.3692
O9 O 0.9919(4) 0.1687(3) 0.9876(2)
C39 C 0.9856(4) 0.0245(4) 0.7655(4)
C40 C 0.9932(4) 0.0672(4) 0.8402(3)
H22 H 0.9774 0.0236 0.9112
C42 C 0.9984(4) 0.0406(4) 0.5797(4)
C44 C 0.9418(4) 0.0871(5) 0.5013(4)
C45 C 0.8673(4) 0.1795(7) 0.5007(6)
C46 C 0.7820(6) 0.1665(8) 0.5904(7)
H24 H 0.7751 0.1032 0.6481
C47 C 0.7101(14) 0.2415(17) 0.5963(14)
H25 H 0.6558 0.2350 0.6590
C48 C 0.7168(9) 0.3229(15) 0.5142(14)
C49 C 0.8046(6) 0.3490(8) 0.4111(7)
H26 H 0.8097 0.4124 0.3538
C50 C 0.8773(5) 0.2654(7) 0.4130(6)
H27 H 0.9337 0.2692 0.3523
O11 O 0.6365(8) 0.4745(11) 0.4375(9)
O12 O 0.5599(10) 0.4085(11) 0.5878(14)
C51 C 0.606(2) 0.4271(17) 0.5135(16)
H38 H 0.611631 0.410206 0.633454
H37 H 0.521765 0.336714 0.611211
O13 O 0.9172(2) 0.40526(18) 0.01349(18)
O14 O 0.8274(2) 0.51216(19) 0.0913(2)
O15 O 0.2497(5) 0.2575(5) 0.0079(4)
O16 O 0.1186(4) 0.2881(4) 0.1197(5)
C52 C 0.6294(3) 0.1674(3) 0.3210(3)
C53 C 0.7271(3) 0.1473(3) 0.2597(3)
H28 H 0.7478 0.0767 0.2723
C54 C 0.7964(3) 0.2288(3) 0.1793(3)
H29 H 0.8620 0.2137 0.1357
C55 C 0.7680(3) 0.3324(2) 0.1641(3)
C56 C 0.6678(3) 0.3518(3) 0.2271(3)
H30 H 0.6478 0.4223 0.2172
C57 C 0.5987(3) 0.2704(3) 0.3025(3)
H31 H 0.5294 0.2845 0.3423
C58 C 0.8436(3) 0.4221(2) 0.0847(3)
C59 C 0.5609(3) 0.0799(3) 0.4093(3)
C60 C 0.6149(3) 0.0196(3) 0.4842(3)
H32 H 0.6951 0.0322 0.4732
C61 C 0.4430(3) 0.0598(3) 0.4239(3)
C62 C 0.3775(4) 0.1147(3) 0.3452(3)
C63 C 0.4191(6) 0.1252(4) 0.2420(4)
H33 H 0.4910 0.1002 0.2197
C64 C 0.3528(9) 0.1733(5) 0.1715(6)
H34 H 0.3822 0.1796 0.1009
C65 C 0.2549(8) 0.2099(5) 0.1947(7)
C66 C 0.2134(5) 0.2005(5) 0.2983(7)
H35 H 0.1416 0.2272 0.3179
C67 C 0.2732(4) 0.1533(4) 0.3743(5)
H36 H 0.2431 0.1478 0.4445
C68 C 0.1962(9) 0.2572(6) 0.0935(5)
Zn4 Zn 0.92766(3) 0.64189(3) 0.01613(3)
O1 O 0.0081(4) 0.8313(3) 0.0124(2)
C5 C 0.0144(4) 0.9755(4) 0.2345(4)
C6 C 0.0068(4) 0.9328(4) 0.1598(3)
H4 H 0.0226 0.9764 0.0888
C8 C 0.0016(4) 0.9594(4) 0.4203(4)
C10 C 0.0582(4) 0.9129(5) 0.4987(4)
C11 C 0.1327(4) 0.8205(7) 0.4993(6)
C12 C 0.2180(6) 0.8335(8) 0.4096(7)
H6 H 0.2249 0.8968 0.3519
C13 C 0.2899(14) 0.7585(17) 0.4037(14)
H7 H 0.3442 0.7650 0.3410
C14 C 0.2832(9) 0.6771(15) 0.4858(14)
C15 C 0.1954(6) 0.6510(8) 0.5889(7)
H8 H 0.1903 0.5876 0.6462
C16 C 0.1227(5) 0.7346(7) 0.5870(6)
H9 H 0.0663 0.7308 0.6477
O7 O 0.3635(8) 0.5255(11) 0.5625(9)
O8 O 0.4401(10) 0.5915(11) 0.4122(14)
C34 C 0.394(2) 0.5729(17) 0.4865(16)
C43 C 0.0560(4) 0.9525(5) 0.5776(4)
H23 H 0.0946 0.9187 0.6308
H37_2 H 0.478235 0.663286 0.388789
O2 O 0.9279(3) 0.6863(2) 0.1362(2)
C1 C 0.9763(4) 0.8265(3) 0.1874(3)
C2 C 0.9545(4) 0.7643(4) 0.2896(3)
H1 H 0.9333 0.6913 0.3089
C3 C 0.9630(4) 0.8064(4) 0.3656(3)
H2 H 0.9471 0.7620 0.4364
C4 C 0.9940(4) 0.9108(4) 0.3401(3)
C7 C 0.9704(4) 0.7804(3) 0.1047(3)
H21 H 0.9666 0.9511 0.7849
H38_2 H 0.388369 0.589794 0.366546
loop_
_geom_bond_atom_site_label_1
_geom_bond_atom_site_label_2
_geom_bond_site_symmetry_1
_geom_bond_site_symmetry_2
O10 C41 1_555 1_555
C35 C36 1_555 1_555
C36 H19 1_555 1_555
C37 C36 1_555 1_555
H20 C37 1_555 1_555
C38 C37 1_555 1_555
C41 C35 1_555 1_555
Zn7 O10 1_555 1_555
O4 C23 1_555 1_555
O5 C33 1_555 1_555
O6 C33 1_555 1_555
C17 C18 1_555 1_555
C18 H10 1_555 1_555
C19 C18 1_555 1_555
H11 C19 1_555 1_555
C20 C19 1_555 1_555
C21 C20 1_555 1_555
H12 C21 1_555 1_555
C22 C17 1_555 1_555
H13 C22 1_555 1_555
C23 O3 1_555 1_555
C24 C17 1_555 1_555
C25 C24 1_555 1_555
H14 C25 1_555 1_555
C26 C24 1_555 1_555
C27 C26 1_555 1_555
C28 C27 1_555 1_555
H15 C28 1_555 1_555
C29 C28 1_555 1_555
H16 C29 1_555 1_555
C30 C29 1_555 1_555
C31 C30 1_555 1_555
H17 C31 1_555 1_555
C32 C27 1_555 1_555
H18 C32 1_555 1_555
C33 C30 1_555 1_555
Zn7 O4 1_555 1_555
C20 C23 1_555 1_555
C21 C22 1_555 1_555
C31 C32 1_555 1_555
H5 C9 1_555 1_555
H22 C40 1_555 1_555
C44 C9 1_555 1_555
C45 C44 1_555 1_555
C46 C45 1_555 1_555
H24 C46 1_555 1_555
C47 C46 1_555 1_555
H25 C47 1_555 1_555
C48 C47 1_555 1_555
C49 C48 1_555 1_555
H26 C49 1_555 1_555
C50 C45 1_555 1_555
H27 C50 1_555 1_555
O11 C51 1_555 1_555
O12 C51 1_555 1_555
C51 C48 1_555 1_555
C39 C40 1_555 1_555
C42 C44 1_555 1_555
C49 C50 1_555 1_555
O12 H38 1_555 1_555
O12 H37 1_555 1_555
O13 C58 1_555 1_555
O14 C58 1_555 1_555
O15 C68 1_555 1_555
O16 C68 1_555 1_555
C52 C53 1_555 1_555
C53 H28 1_555 1_555
C54 C53 1_555 1_555
H29 C54 1_555 1_555
C55 C54 1_555 1_555
C56 C55 1_555 1_555
H30 C56 1_555 1_555
C57 C52 1_555 1_555
H31 C57 1_555 1_555
C58 C55 1_555 1_555
C59 C52 1_555 1_555
H32 C60 1_555 1_555
C62 C61 1_555 1_555
C63 C62 1_555 1_555
H33 C63 1_555 1_555
C64 C63 1_555 1_555
H34 C64 1_555 1_555
C65 C64 1_555 1_555
C66 C65 1_555 1_555
H35 C66 1_555 1_555
C67 C62 1_555 1_555
H36 C67 1_555 1_555
C68 C65 1_555 1_555
Zn4 O14 1_555 1_555
C56 C57 1_555 1_555
C59 C60 1_555 1_555
C59 C61 1_555 1_555
C66 C67 1_555 1_555
H4 C6 1_555 1_555
C10 C8 1_555 1_555
C11 C10 1_555 1_555
C12 C11 1_555 1_555
H6 C12 1_555 1_555
C13 C12 1_555 1_555
H7 C13 1_555 1_555
C14 C13 1_555 1_555
C15 C14 1_555 1_555
H8 C15 1_555 1_555
C16 C11 1_555 1_555
H9 C16 1_555 1_555
O7 C34 1_555 1_555
O8 C34 1_555 1_555
C34 C14 1_555 1_555
C43 C10 1_555 1_555
H23 C43 1_555 1_555
C5 C6 1_555 1_555
C15 C16 1_555 1_555
O8 H37_2 1_555 1_555
Zn4 O2 1_555 1_555
O2 C7 1_555 1_555
C1 C2 1_555 1_555
C2 H1 1_555 1_555
C3 C2 1_555 1_555
H2 C3 1_555 1_555
C4 C3 1_555 1_555
C7 C1 1_555 1_555
O8 H38_2 1_555 1_555

#END
