
###############################################################################
#
# This file contains modified crystal structure data generated from the
# MOF subset of the Cambridge Structural Database (CSD) v543 
# hosted by the Cambridge Crystallographic Data Centre (CCDC).
#
# This work is licensed under the Creative Commons
# Attribution-NonCommercial-ShareAlike 4.0 International License.
# To view a copy of this license, visit
# http://creativecommons.org/licenses/by-nc-sa/4.0/
# or send a letter to
# Creative Commons, PO Box 1866, Mountain View, CA 94042, USA.
#
# CIF created using the CSD Python API on 29 September 2022
# The structure has been converted into the P1 space group
# The structure has a 3D framework
# The original CSD entry MIFLIY is in the monoclinic crystal system
# The framework has been calculated to contain at least 10.0% void space
# The void calculation uses a probe of radius 1.32A, grid spacing 0.4
# H atom positions have been added when not included in the experimental data
#
###############################################################################

data_MIFLIY
_chemical_formula_moiety         '(C144 H112 Mg6 O40)n'
_symmetry_cell_setting           triclinic
_symmetry_space_group_name_H-M   'P 1'
_symmetry_Int_Tables_number      1
_space_group_name_Hall           'P 1'
loop_
_symmetry_equiv_pos_site_id
_symmetry_equiv_pos_as_xyz
1 x,y,z
_cell_length_a                   17.823(3)
_cell_length_b                   30.112(4)
_cell_length_c                   10.7574(12)
_cell_angle_alpha                90
_cell_angle_beta                 118.559(11)
_cell_angle_gamma                90
_cell_volume                     5070.88
loop_
_atom_site_label
_atom_site_type_symbol
_atom_site_fract_x
_atom_site_fract_y
_atom_site_fract_z
Mg4 Mg 0.2500 0.2500 0.0000
O3 O 0.1600(2) 0.24823(8) 0.7857(3)
O4 O 0.2091(2) 0.27394(9) 0.6433(3)
C7 C 0.0358(2) 0.00874(9) 0.3191(3)
C8 C 0.0647(2) 0.04963(9) 0.3865(4)
H5 H 0.1092 0.0497 0.4818
C9 C 0.0315(2) 0.09059(9) 0.3208(3)
C10 C 0.0647(2) 0.13225(9) 0.4062(4)
C11 C 0.0446(3) 0.14018(11) 0.5149(4)
H6 H 0.0082 0.1204 0.5298
C12 C 0.0784(3) 0.17735(11) 0.6013(4)
H7 H 0.0652 0.1825 0.6758
C13 C 0.1307(3) 0.20677(11) 0.5806(4)
C14 C 0.1485(3) 0.19937(12) 0.4700(4)
H8 H 0.1834 0.2197 0.4532
C15 C 0.1153(3) 0.16214(12) 0.3833(5)
H9 H 0.1278 0.1574 0.3079
C17 C 0.1674(3) 0.24528(12) 0.6777(5)
Mg4_2 Mg 0.2500 0.2500 1.0000
Mg1 Mg 0.2500 0.7500 0.5000
O1 O 0.2189(2) 0.81636(8) 0.5127(3)
O2 O 0.2370(2) 0.84171(8) 0.7206(3)
O5 O 0.1612(3) 0.72832(13) 0.5496(4)
C1 C 0.0825(2) 0.96752(9) 0.3915(4)
C2 C 0.1103(2) 0.95946(10) 0.5345(4)
H1 H 0.0992 0.9809 0.5885
C3 C 0.1537(3) 0.92114(10) 0.5993(4)
H2 H 0.1715 0.9165 0.6968
C4 C 0.1719(3) 0.88903(10) 0.5236(4)
C5 C 0.1494(3) 0.89796(11) 0.3838(4)
H3 H 0.1648 0.8775 0.3326
C6 C 0.1051(3) 0.93601(10) 0.3173(4)
H4 H 0.0896 0.9411 0.2208
C16 C 0.2125(3) 0.84542(11) 0.5888(5)
C18 C 0.1027(5) 0.7123(3) 0.4959(9)
H10 H 0.0578 0.7314 0.4946
H11 H 0.1046 0.6843 0.5438
H12 H 0.0905 0.7062 0.3986
O10 O 0.3388(3) 0.77168(13) 0.4504(4)
C36 C 0.3973(5) 0.7877(3) 0.5041(9)
H22 H 0.4422 0.7686 0.5054
H23 H 0.3954 0.8157 0.4562
H24 H 0.4095 0.7938 0.6014
O11 O 0.2811(2) 0.68364(8) 0.4873(3)
O12 O 0.3400(2) 0.74823(8) 0.7143(3)
O13 O 0.1600(2) 0.75177(8) 0.2857(3)
H25 H 0.299404 0.835841 0.772109
O8 O 0.8400(2) 0.24823(8) 0.7143(3)
O9 O 0.7909(2) 0.27394(9) 0.8567(3)
C29 C 0.9554(3) 0.14018(11) 0.9851(4)
H18 H 0.9918 0.1204 0.9702
C30 C 0.9216(3) 0.17735(11) 0.8987(4)
H19 H 0.9348 0.1825 0.8242
C31 C 0.8693(3) 0.20677(11) 0.9194(4)
C35 C 0.8326(3) 0.24528(12) 0.8223(5)
Mg3 Mg 0.7500 0.2500 0.5000
H26 H 0.730389 0.275005 0.781239
C19 C 0.9175(2) 0.96752(9) 0.1085(4)
C23 C 0.8506(3) 0.89796(11) 0.1162(4)
H15 H 0.8352 0.8775 0.1674
C24 C 0.8949(3) 0.93601(10) 0.1827(4)
H16 H 0.9104 0.9411 0.2792
Mg2 Mg 0.7500 0.7500 0.0000
O6 O 0.7811(2) 0.81636(8) 0.9873(3)
O7 O 0.7630(2) 0.84171(8) 0.7794(3)
C20 C 0.8897(2) 0.95946(10) 0.9655(4)
H13 H 0.9008 0.9809 0.9115
C21 C 0.8463(3) 0.92114(10) 0.9007(4)
H14 H 0.8285 0.9165 0.8032
C22 C 0.8281(3) 0.88903(10) 0.9764(4)
C34 C 0.7875(3) 0.84542(11) 0.9112(5)
Mg2_2 Mg 0.7500 0.7500 1.0000
H26_2 H 0.269611 0.275005 0.718761
C18_2 C 0.8973(5) 0.7123(3) 0.0041(9)
H10_2 H 0.9422 0.7314 0.0054
H12_2 H 0.9095 0.7062 0.1014
O10_2 O 0.6612(3) 0.77168(13) 0.0496(4)
H23_2 H 0.6046 0.8157 0.0438
O11_2 O 0.7189(2) 0.68364(8) 0.0127(3)
O13_2 O 0.8400(2) 0.75177(8) 0.2143(3)
O5_2 O 0.8388(3) 0.72832(13) 0.9504(4)
H11_2 H 0.8954 0.6843 0.9562
C36_2 C 0.6027(5) 0.7877(3) 0.9959(9)
H22_2 H 0.5578 0.7686 0.9946
H24_2 H 0.5905 0.7938 0.8986
O12_2 O 0.6600(2) 0.74823(8) 0.7857(3)
H25_2 H 0.700596 0.835841 0.727891
O1_2 O 0.7189(2) 0.31636(8) 0.5127(3)
O2_2 O 0.7370(2) 0.34171(8) 0.7206(3)
O4_2 O 0.7091(2) 0.77394(9) 0.6433(3)
O5_3 O 0.6612(3) 0.22832(13) 0.5496(4)
C1_2 C 0.5825(2) 0.46752(9) 0.3915(4)
C2_2 C 0.6103(2) 0.45946(10) 0.5345(4)
H1_2 H 0.5992 0.4809 0.5885
C3_2 C 0.6537(3) 0.42114(10) 0.5993(4)
H2_2 H 0.6715 0.4165 0.6968
C4_2 C 0.6719(3) 0.38903(10) 0.5236(4)
C5_2 C 0.6494(3) 0.39796(11) 0.3838(4)
H3_2 H 0.6648 0.3775 0.3326
C6_2 C 0.6051(3) 0.43601(10) 0.3173(4)
H4_2 H 0.5896 0.4411 0.2208
C7_2 C 0.5358(2) 0.50874(9) 0.3191(3)
C8_2 C 0.5647(2) 0.54963(9) 0.3865(4)
H5_2 H 0.6092 0.5497 0.4818
C9_2 C 0.5315(2) 0.59059(9) 0.3208(3)
C10_2 C 0.5647(2) 0.63225(9) 0.4062(4)
C11_2 C 0.5446(3) 0.64018(11) 0.5149(4)
H6_2 H 0.5082 0.6204 0.5298
C12_2 C 0.5784(3) 0.67735(11) 0.6013(4)
H7_2 H 0.5652 0.6825 0.6758
C13_2 C 0.6307(3) 0.70677(11) 0.5806(4)
C14_2 C 0.6485(3) 0.69937(12) 0.4700(4)
H8_2 H 0.6834 0.7197 0.4532
C15_2 C 0.6153(3) 0.66214(12) 0.3833(5)
H9_2 H 0.6278 0.6574 0.3079
C16_2 C 0.7125(3) 0.34542(11) 0.5888(5)
C17_2 C 0.6674(3) 0.74528(12) 0.6777(5)
C18_3 C 0.6027(5) 0.2123(3) 0.4959(9)
H10_3 H 0.5578 0.2314 0.4946
H11_3 H 0.6046 0.1843 0.5438
H12_3 H 0.5905 0.2062 0.3986
C19_2 C 0.4175(2) 0.46752(9) 0.1085(4)
C23_2 C 0.3506(3) 0.39796(11) 0.1162(4)
H15_2 H 0.3352 0.3775 0.1674
C24_2 C 0.3949(3) 0.43601(10) 0.1827(4)
H16_2 H 0.4104 0.4411 0.2792
C25 C 0.4642(2) 0.50874(9) 0.1809(3)
C26 C 0.4353(2) 0.54963(9) 0.1135(4)
H17 H 0.3908 0.5497 0.0182
C27 C 0.4685(2) 0.59059(9) 0.1792(3)
C28 C 0.4353(2) 0.63225(9) 0.0938(4)
C32 C 0.3515(3) 0.69937(12) 0.0300(4)
H20 H 0.3166 0.7197 0.0468
C33 C 0.3847(3) 0.66214(12) 0.1167(5)
H21 H 0.3722 0.6574 0.1921
O10_3 O 0.8388(3) 0.27168(13) 0.4504(4)
C36_3 C 0.8973(5) 0.2877(3) 0.5041(9)
H22_3 H 0.9422 0.2686 0.5054
H23_3 H 0.8954 0.3157 0.4562
H24_3 H 0.9095 0.2938 0.6014
O11_3 O 0.7811(2) 0.18364(8) 0.4873(3)
O13_3 O 0.6600(2) 0.25177(8) 0.2857(3)
H25_3 H 0.799404 0.335841 0.772109
O6_2 O 0.2811(2) 0.31636(8) 0.9873(3)
O7_2 O 0.2630(2) 0.34171(8) 0.7794(3)
O9_2 O 0.2909(2) 0.77394(9) 0.8567(3)
C20_2 C 0.3897(2) 0.45946(10) 0.9655(4)
H13_2 H 0.4008 0.4809 0.9115
C21_2 C 0.3463(3) 0.42114(10) 0.9007(4)
H14_2 H 0.3285 0.4165 0.8032
C22_2 C 0.3281(3) 0.38903(10) 0.9764(4)
C29_2 C 0.4554(3) 0.64018(11) 0.9851(4)
H18_2 H 0.4918 0.6204 0.9702
C30_2 C 0.4216(3) 0.67735(11) 0.8987(4)
H19_2 H 0.4348 0.6825 0.8242
C31_2 C 0.3693(3) 0.70677(11) 0.9194(4)
C34_2 C 0.2875(3) 0.34542(11) 0.9112(5)
C35_2 C 0.3326(3) 0.74528(12) 0.8223(5)
H26_3 H 0.230389 0.775005 0.781239
C18_4 C 0.3973(5) 0.2123(3) 0.0041(9)
H10_4 H 0.4422 0.2314 0.0054
H12_4 H 0.4095 0.2062 0.1014
O10_4 O 0.1612(3) 0.27168(13) 0.0496(4)
H23_4 H 0.1046 0.3157 0.0438
O11_4 O 0.2189(2) 0.18364(8) 0.0127(3)
O13_4 O 0.3400(2) 0.25177(8) 0.2143(3)
H26_4 H 0.769611 0.775005 0.718761
O5_4 O 0.3388(3) 0.22832(13) 0.9504(4)
H11_4 H 0.3954 0.1843 0.9562
C36_4 C 0.1027(5) 0.2877(3) 0.9959(9)
H22_4 H 0.0578 0.2686 0.9946
H24_4 H 0.0905 0.2938 0.8986
H25_4 H 0.200596 0.335841 0.727891
O7_3 O 0.2370(2) 0.15829(8) 0.2206(3)
C20_3 C 0.1103(2) 0.04054(10) 0.0345(4)
H13_3 H 0.0992 0.0191 0.0885
C21_3 C 0.1537(3) 0.07886(10) 0.0993(4)
H14_3 H 0.1715 0.0835 0.1968
C22_3 C 0.1719(3) 0.11097(10) 0.0236(4)
C34_3 C 0.2125(3) 0.15458(11) 0.0888(5)
C19_3 C 0.0825(2) 0.03248(9) 0.8915(4)
C23_3 C 0.1494(3) 0.10204(11) 0.8838(4)
H15_3 H 0.1648 0.1225 0.8326
C24_3 C 0.1051(3) 0.06399(10) 0.8173(4)
H16_3 H 0.0896 0.0589 0.7208
O9_3 O 0.2091(2) 0.72606(9) 0.1433(3)
C29_3 C 0.0446(3) 0.85982(11) 0.0149(4)
H18_3 H 0.0082 0.8796 0.0298
C30_3 C 0.0784(3) 0.82265(11) 0.1013(4)
H19_3 H 0.0652 0.8175 0.1758
C31_3 C 0.1307(3) 0.79323(11) 0.0806(4)
C35_3 C 0.1674(3) 0.75472(12) 0.1777(5)
H26_5 H 0.269611 0.724995 0.218761
O2_3 O 0.7630(2) 0.15829(8) 0.2794(3)
C1_3 C 0.9175(2) 0.03248(9) 0.6085(4)
C2_3 C 0.8897(2) 0.04054(10) 0.4655(4)
H1_3 H 0.9008 0.0191 0.4115
C3_3 C 0.8463(3) 0.07886(10) 0.4007(4)
H2_3 H 0.8285 0.0835 0.3032
C4_3 C 0.8281(3) 0.11097(10) 0.4764(4)
C5_3 C 0.8506(3) 0.10204(11) 0.6162(4)
H3_3 H 0.8352 0.1225 0.6674
C6_3 C 0.8949(3) 0.06399(10) 0.6827(4)
H4_3 H 0.9104 0.0589 0.7792
C16_3 C 0.7875(3) 0.15458(11) 0.4112(5)
H25_5 H 0.700596 0.164159 0.227891
O4_3 O 0.7909(2) 0.72606(9) 0.3567(3)
C7_3 C 0.9642(2) 0.99126(9) 0.6809(3)
C8_3 C 0.9353(2) 0.95037(9) 0.6135(4)
H5_3 H 0.8908 0.9503 0.5182
C9_3 C 0.9685(2) 0.90941(9) 0.6792(3)
C10_3 C 0.9353(2) 0.86775(9) 0.5938(4)
C11_3 C 0.9554(3) 0.85982(11) 0.4851(4)
H6_3 H 0.9918 0.8796 0.4702
C12_3 C 0.9216(3) 0.82265(11) 0.3987(4)
H7_3 H 0.9348 0.8175 0.3242
C13_3 C 0.8693(3) 0.79323(11) 0.4194(4)
C14_3 C 0.8515(3) 0.80063(12) 0.5300(4)
H8_3 H 0.8166 0.7803 0.5468
C15_3 C 0.8847(3) 0.83786(12) 0.6167(5)
H9_3 H 0.8722 0.8426 0.6921
C17_3 C 0.8326(3) 0.75472(12) 0.3223(5)
H25_6 H 0.299404 0.164159 0.272109
H26_6 H 0.730389 0.724995 0.281239
O7_4 O 0.7370(2) 0.65829(8) 0.2206(3)
O9_4 O 0.7091(2) 0.22606(9) 0.1433(3)
C20_4 C 0.6103(2) 0.54054(10) 0.0345(4)
H13_4 H 0.5992 0.5191 0.0885
C21_4 C 0.6537(3) 0.57886(10) 0.0993(4)
H14_4 H 0.6715 0.5835 0.1968
C22_4 C 0.6719(3) 0.61097(10) 0.0236(4)
C29_4 C 0.5446(3) 0.35982(11) 0.0149(4)
H18_4 H 0.5082 0.3796 0.0298
C30_4 C 0.5784(3) 0.32265(11) 0.1013(4)
H19_4 H 0.5652 0.3175 0.1758
C31_4 C 0.6307(3) 0.29323(11) 0.0806(4)
C34_4 C 0.7125(3) 0.65458(11) 0.0888(5)
C35_4 C 0.6674(3) 0.25472(12) 0.1777(5)
H26_7 H 0.769611 0.224995 0.218761
O2_4 O 0.2630(2) 0.65829(8) 0.2794(3)
O4_4 O 0.2909(2) 0.22606(9) 0.3567(3)
C1_4 C 0.4175(2) 0.53248(9) 0.6085(4)
C2_4 C 0.3897(2) 0.54054(10) 0.4655(4)
H1_4 H 0.4008 0.5191 0.4115
C3_4 C 0.3463(3) 0.57886(10) 0.4007(4)
H2_4 H 0.3285 0.5835 0.3032
C4_4 C 0.3281(3) 0.61097(10) 0.4764(4)
C5_4 C 0.3506(3) 0.60204(11) 0.6162(4)
H3_4 H 0.3352 0.6225 0.6674
C6_4 C 0.3949(3) 0.56399(10) 0.6827(4)
H4_4 H 0.4104 0.5589 0.7792
C7_4 C 0.4642(2) 0.49126(9) 0.6809(3)
C8_4 C 0.4353(2) 0.45037(9) 0.6135(4)
H5_4 H 0.3908 0.4503 0.5182
C9_4 C 0.4685(2) 0.40941(9) 0.6792(3)
C10_4 C 0.4353(2) 0.36775(9) 0.5938(4)
C11_4 C 0.4554(3) 0.35982(11) 0.4851(4)
H6_4 H 0.4918 0.3796 0.4702
C12_4 C 0.4216(3) 0.32265(11) 0.3987(4)
H7_4 H 0.4348 0.3175 0.3242
C13_4 C 0.3693(3) 0.29323(11) 0.4194(4)
C14_4 C 0.3515(3) 0.30063(12) 0.5300(4)
H8_4 H 0.3166 0.2803 0.5468
C15_4 C 0.3847(3) 0.33786(12) 0.6167(5)
H9_4 H 0.3722 0.3426 0.6921
C16_4 C 0.2875(3) 0.65458(11) 0.4112(5)
C17_4 C 0.3326(3) 0.25472(12) 0.3223(5)
C19_4 C 0.5825(2) 0.53248(9) 0.8915(4)
C23_4 C 0.6494(3) 0.60204(11) 0.8838(4)
H15_4 H 0.6648 0.6225 0.8326
C24_4 C 0.6051(3) 0.56399(10) 0.8173(4)
H16_4 H 0.5896 0.5589 0.7208
C25_2 C 0.5358(2) 0.49126(9) 0.8191(3)
C26_2 C 0.5647(2) 0.45037(9) 0.8865(4)
H17_2 H 0.6092 0.4503 0.9818
C27_2 C 0.5315(2) 0.40941(9) 0.8208(3)
C28_2 C 0.5647(2) 0.36775(9) 0.9062(4)
C32_2 C 0.6485(3) 0.30063(12) 0.9700(4)
H20_2 H 0.6834 0.2803 0.9532
C33_2 C 0.6153(3) 0.33786(12) 0.8833(5)
H21_2 H 0.6278 0.3426 0.8079
H25_7 H 0.200596 0.664159 0.227891
H25_8 H 0.799404 0.664159 0.272109
H26_8 H 0.230389 0.224995 0.281239
C25_3 C 0.9642(2) 0.00874(9) 0.1809(3)
C26_3 C 0.9353(2) 0.04963(9) 0.1135(4)
H17_3 H 0.8908 0.0497 0.0182
C27_3 C 0.9685(2) 0.09059(9) 0.1792(3)
C28_3 C 0.9353(2) 0.13225(9) 0.0938(4)
C32_3 C 0.8515(3) 0.19937(12) 0.0300(4)
H20_3 H 0.8166 0.2197 0.0468
C33_3 C 0.8847(3) 0.16214(12) 0.1167(5)
H21_3 H 0.8722 0.1574 0.1921
C25_4 C 0.0358(2) 0.99126(9) 0.8191(3)
C26_4 C 0.0647(2) 0.95037(9) 0.8865(4)
H17_4 H 0.1092 0.9503 0.9818
C27_4 C 0.0315(2) 0.90941(9) 0.8208(3)
C28_4 C 0.0647(2) 0.86775(9) 0.9062(4)
C32_4 C 0.1485(3) 0.80063(12) 0.9700(4)
H20_4 H 0.1834 0.7803 0.9532
C33_4 C 0.1153(3) 0.83786(12) 0.8833(5)
H21_4 H 0.1278 0.8426 0.8079
loop_
_geom_bond_atom_site_label_1
_geom_bond_atom_site_label_2
_geom_bond_site_symmetry_1
_geom_bond_site_symmetry_2
O3 C17 1_555 1_555
O4 C17 1_555 1_555
C8 C7 1_555 1_555
H5 C8 1_555 1_555
C9 C8 1_555 1_555
C10 C9 1_555 1_555
C11 C10 1_555 1_555
H6 C11 1_555 1_555
C12 C11 1_555 1_555
H7 C12 1_555 1_555
C13 C12 1_555 1_555
C14 C13 1_555 1_555
H8 C14 1_555 1_555
C15 C10 1_555 1_555
H9 C15 1_555 1_555
C17 C13 1_555 1_555
Mg4_2 O3 1_555 1_555
C14 C15 1_555 1_555
Mg1 O1 1_555 1_555
O1 C16 1_555 1_555
O2 C16 1_555 1_555
O5 Mg1 1_555 1_555
C1 C2 1_555 1_555
C2 H1 1_555 1_555
C3 C2 1_555 1_555
H2 C3 1_555 1_555
C4 C3 1_555 1_555
C5 C4 1_555 1_555
H3 C5 1_555 1_555
C6 C1 1_555 1_555
H4 C6 1_555 1_555
C16 C4 1_555 1_555
C18 O5 1_555 1_555
H10 C18 1_555 1_555
H11 C18 1_555 1_555
H12 C18 1_555 1_555
O10 Mg1 1_555 1_555
C36 O10 1_555 1_555
H22 C36 1_555 1_555
H23 C36 1_555 1_555
H24 C36 1_555 1_555
O11 Mg1 1_555 1_555
O12 Mg1 1_555 1_555
O13 Mg1 1_555 1_555
C5 C6 1_555 1_555
O2 H25 1_555 1_555
O8 C35 1_555 1_555
O9 C35 1_555 1_555
H18 C29 1_555 1_555
C30 C29 1_555 1_555
H19 C30 1_555 1_555
C31 C30 1_555 1_555
C35 C31 1_555 1_555
Mg3 O8 1_555 1_555
O9 H26 1_555 1_555
H15 C23 1_555 1_555
C24 C19 1_555 1_555
H16 C24 1_555 1_555
C23 C24 1_555 1_555
O6 C34 1_555 1_555
O7 C34 1_555 1_555
C20 H13 1_555 1_555
C21 C20 1_555 1_555
H14 C21 1_555 1_555
C22 C21 1_555 1_555
C34 C22 1_555 1_555
Mg2_2 O6 1_555 1_555
O4 H26_2 1_555 1_555
H10_2 C18_2 1_555 1_555
H12_2 C18_2 1_555 1_555
O10_2 Mg2 1_555 1_555
O11_2 Mg2 1_555 1_555
O13_2 Mg2 1_555 1_555
O5_2 Mg2_2 1_555 1_555
H22_2 C36_2 1_555 1_555
H24_2 C36_2 1_555 1_555
O12_2 Mg2_2 1_555 1_555
O7 H25_2 1_555 1_555
Mg3 O1_2 1_555 1_555
O1_2 C16_2 1_555 1_555
O2_2 C16_2 1_555 1_555
O12_2 C17_2 1_555 1_555
O4_2 C17_2 1_555 1_555
O5_3 Mg3 1_555 1_555
C1_2 C2_2 1_555 1_555
C2_2 H1_2 1_555 1_555
C3_2 C2_2 1_555 1_555
H2_2 C3_2 1_555 1_555
C4_2 C3_2 1_555 1_555
C5_2 C4_2 1_555 1_555
H3_2 C5_2 1_555 1_555
C6_2 C1_2 1_555 1_555
H4_2 C6_2 1_555 1_555
C7_2 C1_2 1_555 1_555
C8_2 C7_2 1_555 1_555
H5_2 C8_2 1_555 1_555
C9_2 C8_2 1_555 1_555
C10_2 C9_2 1_555 1_555
C11_2 C10_2 1_555 1_555
H6_2 C11_2 1_555 1_555
C12_2 C11_2 1_555 1_555
H7_2 C12_2 1_555 1_555
C13_2 C12_2 1_555 1_555
C14_2 C13_2 1_555 1_555
H8_2 C14_2 1_555 1_555
C15_2 C10_2 1_555 1_555
H9_2 C15_2 1_555 1_555
C16_2 C4_2 1_555 1_555
C17_2 C13_2 1_555 1_555
C18_3 O5_3 1_555 1_555
H10_3 C18_3 1_555 1_555
H11_3 C18_3 1_555 1_555
H12_3 C18_3 1_555 1_555
H15_2 C23_2 1_555 1_555
C24_2 C19_2 1_555 1_555
H16_2 C24_2 1_555 1_555
C25 C7_2 1_555 1_555
C26 C25 1_555 1_555
H17 C26 1_555 1_555
C27 C9_2 1_555 1_555
C28 C27 1_555 1_555
H20 C32 1_555 1_555
C33 C28 1_555 1_555
H21 C33 1_555 1_555
O10_3 Mg3 1_555 1_555
C36_3 O10_3 1_555 1_555
H22_3 C36_3 1_555 1_555
H23_3 C36_3 1_555 1_555
H24_3 C36_3 1_555 1_555
O11_3 Mg3 1_555 1_555
O13_3 Mg3 1_555 1_555
C5_2 C6_2 1_555 1_555
C14_2 C15_2 1_555 1_555
C19_2 C25 1_555 1_555
C23_2 C24_2 1_555 1_555
C26 C27 1_555 1_555
C32 C33 1_555 1_555
O2_2 H25_3 1_555 1_555
O6_2 C34_2 1_555 1_555
O7_2 C34_2 1_555 1_555
O12 C35_2 1_555 1_555
O9_2 C35_2 1_555 1_555
C20_2 H13_2 1_555 1_555
C21_2 C20_2 1_555 1_555
H14_2 C21_2 1_555 1_555
C22_2 C21_2 1_555 1_555
H18_2 C29_2 1_555 1_555
C30_2 C29_2 1_555 1_555
H19_2 C30_2 1_555 1_555
C31_2 C30_2 1_555 1_555
C34_2 C22_2 1_555 1_555
C35_2 C31_2 1_555 1_555
Mg4_2 O6_2 1_555 1_555
O9_2 H26_3 1_555 1_555
H10_4 C18_4 1_555 1_555
H12_4 C18_4 1_555 1_555
O10_4 Mg4 1_555 1_555
O11_4 Mg4 1_555 1_555
O13_4 Mg4 1_555 1_555
O4_2 H26_4 1_555 1_555
O5_4 Mg4_2 1_555 1_555
H22_4 C36_4 1_555 1_555
H24_4 C36_4 1_555 1_555
O7_2 H25_4 1_555 1_555
O11_4 C34_3 1_555 1_555
O7_3 C34_3 1_555 1_555
C20_3 H13_3 1_555 1_555
C21_3 C20_3 1_555 1_555
H14_3 C21_3 1_555 1_555
C22_3 C21_3 1_555 1_555
C34_3 C22_3 1_555 1_555
H15_3 C23_3 1_555 1_555
C24_3 C19_3 1_555 1_555
H16_3 C24_3 1_555 1_555
C23_3 C24_3 1_555 1_555
O13 C35_3 1_555 1_555
O9_3 C35_3 1_555 1_555
H18_3 C29_3 1_555 1_555
C30_3 C29_3 1_555 1_555
H19_3 C30_3 1_555 1_555
C31_3 C30_3 1_555 1_555
C35_3 C31_3 1_555 1_555
O9_3 H26_5 1_555 1_555
O11_3 C16_3 1_555 1_555
O2_3 C16_3 1_555 1_555
C1_3 C2_3 1_555 1_555
C2_3 H1_3 1_555 1_555
C3_3 C2_3 1_555 1_555
H2_3 C3_3 1_555 1_555
C4_3 C3_3 1_555 1_555
C5_3 C4_3 1_555 1_555
H3_3 C5_3 1_555 1_555
C6_3 C1_3 1_555 1_555
H4_3 C6_3 1_555 1_555
C16_3 C4_3 1_555 1_555
C5_3 C6_3 1_555 1_555
O2_3 H25_5 1_555 1_555
O13_2 C17_3 1_555 1_555
O4_3 C17_3 1_555 1_555
C8_3 C7_3 1_555 1_555
H5_3 C8_3 1_555 1_555
C9_3 C8_3 1_555 1_555
C10_3 C9_3 1_555 1_555
C11_3 C10_3 1_555 1_555
H6_3 C11_3 1_555 1_555
C12_3 C11_3 1_555 1_555
H7_3 C12_3 1_555 1_555
C13_3 C12_3 1_555 1_555
C14_3 C13_3 1_555 1_555
H8_3 C14_3 1_555 1_555
C15_3 C10_3 1_555 1_555
H9_3 C15_3 1_555 1_555
C17_3 C13_3 1_555 1_555
C14_3 C15_3 1_555 1_555
O7_3 H25_6 1_555 1_555
O4_3 H26_6 1_555 1_555
O11_2 C34_4 1_555 1_555
O7_4 C34_4 1_555 1_555
O13_3 C35_4 1_555 1_555
O9_4 C35_4 1_555 1_555
C20_4 H13_4 1_555 1_555
C21_4 C20_4 1_555 1_555
H14_4 C21_4 1_555 1_555
C22_4 C21_4 1_555 1_555
H18_4 C29_4 1_555 1_555
C30_4 C29_4 1_555 1_555
H19_4 C30_4 1_555 1_555
C31_4 C30_4 1_555 1_555
C34_4 C22_4 1_555 1_555
C35_4 C31_4 1_555 1_555
O9_4 H26_7 1_555 1_555
O11 C16_4 1_555 1_555
O2_4 C16_4 1_555 1_555
O13_4 C17_4 1_555 1_555
O4_4 C17_4 1_555 1_555
C1_4 C2_4 1_555 1_555
C2_4 H1_4 1_555 1_555
C3_4 C2_4 1_555 1_555
H2_4 C3_4 1_555 1_555
C4_4 C3_4 1_555 1_555
C5_4 C4_4 1_555 1_555
H3_4 C5_4 1_555 1_555
C6_4 C1_4 1_555 1_555
H4_4 C6_4 1_555 1_555
C7_4 C1_4 1_555 1_555
C8_4 C7_4 1_555 1_555
H5_4 C8_4 1_555 1_555
C9_4 C8_4 1_555 1_555
C10_4 C9_4 1_555 1_555
C11_4 C10_4 1_555 1_555
H6_4 C11_4 1_555 1_555
C12_4 C11_4 1_555 1_555
H7_4 C12_4 1_555 1_555
C13_4 C12_4 1_555 1_555
C14_4 C13_4 1_555 1_555
H8_4 C14_4 1_555 1_555
C15_4 C10_4 1_555 1_555
H9_4 C15_4 1_555 1_555
C16_4 C4_4 1_555 1_555
C17_4 C13_4 1_555 1_555
H15_4 C23_4 1_555 1_555
C24_4 C19_4 1_555 1_555
H16_4 C24_4 1_555 1_555
C25_2 C7_4 1_555 1_555
C26_2 C25_2 1_555 1_555
H17_2 C26_2 1_555 1_555
C27_2 C9_4 1_555 1_555
C28_2 C27_2 1_555 1_555
H20_2 C32_2 1_555 1_555
C33_2 C28_2 1_555 1_555
H21_2 C33_2 1_555 1_555
C5_4 C6_4 1_555 1_555
C14_4 C15_4 1_555 1_555
C19_4 C25_2 1_555 1_555
C23_4 C24_4 1_555 1_555
C26_2 C27_2 1_555 1_555
C32_2 C33_2 1_555 1_555
O2_4 H25_7 1_555 1_555
O7_4 H25_8 1_555 1_555
O4_4 H26_8 1_555 1_555
C26_3 C25_3 1_555 1_555
H17_3 C26_3 1_555 1_555
C28_3 C27_3 1_555 1_555
H20_3 C32_3 1_555 1_555
C33_3 C28_3 1_555 1_555
H21_3 C33_3 1_555 1_555
C26_3 C27_3 1_555 1_555
C32_3 C33_3 1_555 1_555
C26_4 C25_4 1_555 1_555
H17_4 C26_4 1_555 1_555
C28_4 C27_4 1_555 1_555
H20_4 C32_4 1_555 1_555
C33_4 C28_4 1_555 1_555
H21_4 C33_4 1_555 1_555
C26_4 C27_4 1_555 1_555
C32_4 C33_4 1_555 1_555

#END
