
###############################################################################
#
# This file contains modified crystal structure data generated from the
# MOF subset of the Cambridge Structural Database (CSD) v543 
# hosted by the Cambridge Crystallographic Data Centre (CCDC).
#
# This work is licensed under the Creative Commons
# Attribution-NonCommercial-ShareAlike 4.0 International License.
# To view a copy of this license, visit
# http://creativecommons.org/licenses/by-nc-sa/4.0/
# or send a letter to
# Creative Commons, PO Box 1866, Mountain View, CA 94042, USA.
#
# CIF created using the CSD Python API on 29 September 2022
# The structure has been converted into the P1 space group
# The structure has a 3D framework
# The original CSD entry MIFNUM is in the tetragonal crystal system
# The framework has been calculated to contain at least 10.0% void space
# The void calculation uses a probe of radius 1.32A, grid spacing 0.4
# The framework is charged, counterions have been retained in the structure
#
###############################################################################

data_MIFNUM
_chemical_formula_moiety         '(C768 H576 Co16 Dy32 N128 O352)n'
_symmetry_cell_setting           triclinic
_symmetry_space_group_name_H-M   'P 1'
_symmetry_Int_Tables_number      1
_space_group_name_Hall           'P 1'
loop_
_symmetry_equiv_pos_site_id
_symmetry_equiv_pos_as_xyz
1 x,y,z
_cell_length_a                   45.870(4)
_cell_length_b                   45.870(4)
_cell_length_c                   10.9980(7)
_cell_angle_alpha                90
_cell_angle_beta                 90
_cell_angle_gamma                90
_cell_volume                     23140.4
loop_
_atom_site_label
_atom_site_type_symbol
_atom_site_fract_x
_atom_site_fract_y
_atom_site_fract_z
C14 C 0.1010(3) 0.0107(3) 0.4308(10)
C15 C 0.1294(3) 0.0217(3) 0.4416(12)
H9 H 0.1444 0.0103 0.4725
C16 C 0.1345(3) 0.0505(3) 0.4043(10)
H10 H 0.1530 0.0587 0.4097
C17 C 0.1105(3) 0.0669(3) 0.3581(10)
H11 H 0.1138 0.0861 0.3353
C18 C 0.0795(3) 0.0279(3) 0.3771(8)
C19 C 0.0494(3) 0.0187(3) 0.3562(8)
C20 C 0.0001(3) 0.0314(3) 0.3817(9)
H21 H 0.1430 0.0044 0.8916
C40 C 0.1784(4) 0.0195(4) 0.7920(14)
H22 H 0.1728 0.0380 0.7672
C41 C 0.2054(4) 0.0058(4) 0.7711(14)
H23 H 0.2199 0.0176 0.7378
N1 N 0.0849(2) 0.0567(2) 0.3460(8)
N2 N 0.0289(2) 0.0378(2) 0.3904(7)
Co2 Co 0.04618(4) 0.08236(4) 0.37187(11)
H1 H 0.1220(17) 0.955(2) 0.315(5)
H2 H 0.146(2) 0.941(4) 0.260(9)
C1 C 0.0758(3) 0.8453(3) 0.3567(8)
C2 C 0.0874(2) 0.8327(2) 0.2373(8)
C3 C 0.0668(3) 0.8240(3) 0.1496(8)
H3 H 0.0470 0.8262 0.1632
C4 C 0.0772(3) 0.8118(3) 0.0418(9)
C5 C 0.1064(3) 0.8080(3) 0.0265(9)
C6 C 0.1168(3) 0.8286(2) 0.2138(8)
C7 C 0.1406(3) 0.8348(2) 0.3040(9)
C8 C 0.1831(3) 0.8160(3) 0.3834(8)
H6 H 0.1974 0.8016 0.3828
C9 C 0.1853(3) 0.8381(3) 0.4676(9)
H7 H 0.1997 0.8377 0.5272
C10 C 0.1651(3) 0.8613(3) 0.4611(9)
H8 H 0.1666 0.8771 0.5133
C11 C 0.1427(3) 0.8599(3) 0.3746(7)
C12 C 0.1243(2) 0.8869(3) 0.3557(8)
H15 H 0.0216 0.9607 0.0180
N5 N 0.1264(2) 0.8161(2) 0.1086(6)
N6 N 0.1614(2) 0.8142(2) 0.3020(7)
O1 O 0.05772(17) 0.86564(19) 0.3478(5)
O2 O 0.08613(18) 0.83522(18) 0.4543(5)
O3 O 0.11619(17) 0.89173(16) 0.2479(5)
O4 O 0.12003(18) 0.90323(17) 0.4455(6)
O19 O 0.1575(3) 0.9308(3) 0.0400(9)
O21 O 0.1309(2) 0.9519(2) 0.2494(6)
O22 O 0.05903(17) 0.89555(17) 0.1402(5)
H35 H 0.0497 0.8987 0.2098
H36 H 0.0462 0.8979 0.0806
Dy1 Dy 0.099011(13) 0.927554(13) 0.11680(4)
O24 O 0.07544(18) 0.98109(18) 0.1459(6)
O25 O 0.06761(18) 0.94683(16) 0.2838(6)
Co3 Co 0.16764(4) 0.79618(4) 0.12187(11)
Dy4 Dy 0.099904(13) 0.924540(13) 0.61600(4)
H4 H 0.0642 0.8063 0.9808
H5 H 0.1128 0.7994 0.9549
C13 C 0.0946(3) 0.9817(3) 0.4934(10)
C22 C 0.0119(3) 0.9849(3) 0.2974(8)
H14 H 0.0060 0.9671 0.2652
C23 C 0.0409(3) 0.9916(3) 0.3036(9)
C24 C 0.0637(3) 0.9719(3) 0.2406(9)
C25 C 0.0531(2) 0.9293(2) 0.8628(8)
C26 C 0.0213(3) 0.9306(3) 0.8773(7)
C27 C 0.0092(3) 0.9506(3) 0.9660(9)
C30 C 0.0012(3) 0.9157(3) 0.8074(9)
C31 C 0.0080(3) 0.8912(3) 0.7195(8)
C33 C 0.0141(3) 0.8489(3) 0.5478(8)
H19 H 0.0160 0.8348 0.4877
C34 C 0.0289(3) 0.8462(3) 0.6562(9)
H20 H 0.0405 0.8299 0.6711
C35 C 0.0264(3) 0.8676(3) 0.7410(8)
C36 C 0.0434(3) 0.8653(3) 0.8578(9)
C37 C 0.1470(4) 0.9508(4) 0.9761(14)
C38 C 0.1690(4) 0.9686(5) 0.8891(13)
C39 C 0.1610(5) 0.9981(5) 0.8622(13)
C42 C 0.1933(4) 0.9583(4) 0.8390(13)
C43 C 0.2001(4) 0.9271(4) 0.8493(12)
C44 C 0.2305(4) 0.8878(4) 0.8875(12)
H24 H 0.2483 0.8811 0.9172
C45 C 0.2155(4) 0.8671(4) 0.8400(12)
H25 H 0.2212 0.8477 0.8360
C46 C 0.1905(4) 0.8779(4) 0.7969(11)
H26 H 0.1772 0.8645 0.7654
C47 C 0.1820(3) 0.9076(4) 0.7944(11)
C48 C 0.1548(3) 0.9153(3) 0.7306(10)
N7 N 0.2270(3) 0.9176(3) 0.9062(10)
N8 N 0.2132(3) 0.9775(4) 0.7933(11)
O5 O 0.11465(18) 0.96299(17) 0.4865(6)
O6 O 0.0717(2) 0.9786(2) 0.5480(8)
O9 O 0.03010(17) 0.86996(18) 0.9589(5)
O10 O 0.06970(19) 0.85860(18) 0.8497(5)
O11 O 0.06853(17) 0.93547(17) 0.9510(5)
O12 O 0.06246(17) 0.92281(18) 0.7566(6)
O13 O 0.09280(19) 0.87453(19) 0.6363(5)
H27 H 0.0828 0.8706 0.7022
H28 H 0.0832 0.8676 0.5739
O14 O 0.05838(17) 0.91567(17) 0.4880(5)
H29 H 0.0436 0.9095 0.5304
H30 H 0.0534 0.9318 0.4519
O15 O 0.1092(2) 0.9645(2) 0.7552(8)
H31 H 0.1218 0.9600 0.8327
H32 H 0.1206 0.9832 0.7220
O16 O 0.1318(2) 0.9058(2) 0.7743(6)
O17 O 0.1551(2) 0.9295(2) 0.6357(6)
O18 O 0.1228(3) 0.9594(3) 0.9785(8)
O20 O 0.11157(18) 0.88707(17) 0.9897(6)
H33 H 0.0961 0.8769 0.9720
H34 H 0.1194 0.8932 0.9218
H13 H 0.9717 0.9996 0.3384
C28 C 0.9798(3) 0.9546(3) 0.9738(9)
C29 C 0.9618(3) 0.9412(3) 0.8908(9)
H17 H 0.9421 0.9458 0.8907
C32 C 0.9969(3) 0.8722(3) 0.5299(9)
H18 H 0.9870 0.8735 0.4562
N3 N 0.9721(2) 0.9212(2) 0.8076(6)
N4 N 0.9928(2) 0.8940(2) 0.6121(7)
Co1 Co 0.95382(4) 0.91764(4) 0.62813(11)
N9 N 0.9151(2) 0.9433(2) 0.6540(8)
N10 N 0.9711(2) 0.9622(2) 0.6096(7)
N11 N 0.9339(2) 0.8764(2) 0.6414(6)
N12 N 0.9358(2) 0.9114(2) 0.4480(7)
H1_2 H 0.795(2) 0.3720(17) 0.565(5)
H2_2 H 0.809(4) 0.396(2) 0.510(9)
C1_2 C 0.9047(3) 0.3258(3) 0.6067(8)
C2_2 C 0.9173(2) 0.3374(2) 0.4873(8)
C3_2 C 0.9260(3) 0.3168(3) 0.3996(8)
H3_2 H 0.9238 0.2970 0.4132
C4_2 C 0.9382(3) 0.3272(3) 0.2918(9)
H4_2 H 0.9437 0.3142 0.2308
C5_2 C 0.9420(3) 0.3564(3) 0.2765(9)
H5_2 H 0.9506 0.3628 0.2049
C6_2 C 0.9214(2) 0.3668(3) 0.4638(8)
C7_2 C 0.9152(2) 0.3906(3) 0.5540(9)
C8_2 C 0.9340(3) 0.4331(3) 0.6334(8)
H6_2 H 0.9484 0.4474 0.6328
C9_2 C 0.9119(3) 0.4353(3) 0.7176(9)
H7_2 H 0.9123 0.4497 0.7772
C10_2 C 0.8887(3) 0.4151(3) 0.7111(9)
H8_2 H 0.8729 0.4166 0.7633
C11_2 C 0.8901(3) 0.3927(3) 0.6246(7)
C12_2 C 0.8631(3) 0.3743(2) 0.6057(8)
C25_2 C 0.8207(2) 0.3031(2) 0.1128(8)
C26_2 C 0.8194(3) 0.2713(3) 0.1273(7)
C27_2 C 0.7994(3) 0.2592(3) 0.2160(9)
H15_2 H 0.7893 0.2716 0.2680
C28_2 C 0.7954(3) 0.2298(3) 0.2238(9)
H16 H 0.7837 0.2220 0.2848
C29_2 C 0.8088(3) 0.2118(3) 0.1408(9)
H17_2 H 0.8042 0.1921 0.1407
C30_2 C 0.8343(3) 0.2512(3) 0.0574(9)
C36_2 C 0.8847(3) 0.2934(3) 0.1078(9)
C37_2 C 0.7992(4) 0.3970(4) 0.2261(14)
C38_2 C 0.7814(5) 0.4190(4) 0.1391(13)
C39_2 C 0.7519(5) 0.4110(5) 0.1122(13)
H21_2 H 0.7456 0.3930 0.1416
C40_2 C 0.7305(4) 0.4284(4) 0.0420(14)
H22_2 H 0.7120 0.4228 0.0172
C41_2 C 0.7442(4) 0.4554(4) 0.0211(14)
C42_2 C 0.7917(4) 0.4433(4) 0.0890(13)
C43_2 C 0.8229(4) 0.4501(4) 0.0993(12)
C44_2 C 0.8622(4) 0.4805(4) 0.1375(12)
H24_2 H 0.8689 0.4983 0.1672
C45_2 C 0.8829(4) 0.4655(4) 0.0900(12)
H25_2 H 0.9023 0.4712 0.0860
C46_2 C 0.8721(4) 0.4405(4) 0.0469(11)
H26_2 H 0.8855 0.4272 0.0154
C47_2 C 0.8424(4) 0.4320(3) 0.0444(11)
N3_2 N 0.8288(2) 0.2221(2) 0.0576(6)
N5_2 N 0.9339(2) 0.3764(2) 0.3586(6)
N6_2 N 0.9358(2) 0.4114(2) 0.5520(7)
N7_2 N 0.8324(3) 0.4770(3) 0.1562(10)
N8_2 N 0.7725(4) 0.4632(3) 0.0433(11)
O1_2 O 0.88436(19) 0.30772(17) 0.5978(5)
O2_2 O 0.91478(18) 0.33613(18) 0.7043(5)
O3_2 O 0.85827(16) 0.36619(17) 0.4979(5)
O4_2 O 0.84677(17) 0.37003(18) 0.6955(6)
O9_2 O 0.88004(18) 0.28010(17) 0.2089(5)
O10_2 O 0.89140(18) 0.31970(19) 0.0997(5)
O11_2 O 0.81453(17) 0.31853(17) 0.2010(5)
O12_2 O 0.82719(18) 0.31246(17) 0.0066(6)
O15_2 O 0.7855(2) 0.3592(2) 0.0052(8)
H31_2 H 0.7900 0.3718 0.0827
O16_2 O 0.8442(2) 0.3818(2) 0.0243(6)
O18_2 O 0.7906(3) 0.3728(3) 0.2285(8)
O19_2 O 0.8192(3) 0.4075(3) 0.2900(9)
O20_2 O 0.86293(17) 0.36157(18) 0.2397(6)
H33_2 H 0.8731 0.3461 0.2220
H34_2 H 0.8568 0.3694 0.1718
O21_2 O 0.7981(2) 0.3809(2) 0.4994(6)
O22_2 O 0.85445(17) 0.30903(17) 0.3902(5)
H35_2 H 0.8513 0.2997 0.4598
H36_2 H 0.8521 0.2962 0.3306
Dy1_2 Dy 0.822446(13) 0.349011(13) 0.36680(4)
O24_2 O 0.76891(18) 0.32544(18) 0.3959(6)
O25_2 O 0.80317(16) 0.31761(18) 0.5338(6)
Co3_2 Co 0.95382(4) 0.41764(4) 0.37187(11)
Dy4_2 Dy 0.825460(13) 0.349904(13) 0.86600(4)
C13_2 C 0.7683(3) 0.3446(3) 0.7434(10)
C14_2 C 0.7393(3) 0.3510(3) 0.6808(10)
C15_2 C 0.7283(3) 0.3794(3) 0.6916(12)
H9_2 H 0.7397 0.3944 0.7225
C16_2 C 0.6995(3) 0.3845(3) 0.6543(10)
H10_2 H 0.6913 0.4030 0.6597
C17_2 C 0.6831(3) 0.3605(3) 0.6081(10)
H11_2 H 0.6639 0.3638 0.5853
C18_2 C 0.7221(3) 0.3295(3) 0.6271(8)
C19_2 C 0.7313(3) 0.2994(3) 0.6062(8)
C20_2 C 0.7186(3) 0.2501(3) 0.6317(9)
H12 H 0.7049 0.2363 0.6545
C21 C 0.7455(3) 0.2414(3) 0.5890(9)
H13_2 H 0.7504 0.2217 0.5884
C22_2 C 0.7651(3) 0.2619(3) 0.5474(8)
H14_2 H 0.7829 0.2560 0.5152
C23_2 C 0.7584(3) 0.2909(3) 0.5536(9)
C24_2 C 0.7781(3) 0.3137(3) 0.4906(9)
C31_2 C 0.8588(3) 0.2580(3) 0.9695(8)
C32_2 C 0.8778(3) 0.2469(3) 0.7799(9)
H18_2 H 0.8765 0.2370 0.7062
C33_2 C 0.9011(3) 0.2641(3) 0.7978(8)
H19_2 H 0.9152 0.2660 0.7377
C34_2 C 0.9038(3) 0.2789(3) 0.9062(9)
H20_2 H 0.9201 0.2905 0.9211
C35_2 C 0.8824(3) 0.2764(3) 0.9910(8)
H23_2 H 0.7324 0.4699 0.9878
C48_2 C 0.8347(3) 0.4048(3) 0.9806(10)
N1_2 N 0.6933(2) 0.3349(2) 0.5960(8)
N2_2 N 0.7122(2) 0.2789(2) 0.6404(7)
N4_2 N 0.8560(2) 0.2428(2) 0.8621(7)
O5_2 O 0.78701(17) 0.36465(18) 0.7365(6)
O6_2 O 0.7714(2) 0.3217(2) 0.7980(8)
O13_2 O 0.87547(19) 0.34280(19) 0.8863(5)
H27_2 H 0.8794 0.3328 0.9522
H28_2 H 0.8824 0.3332 0.8239
O14_2 O 0.83433(17) 0.30838(17) 0.7380(5)
H29_2 H 0.8405 0.2936 0.7804
H30_2 H 0.8182 0.3034 0.7019
H32_2 H 0.7668 0.3706 0.9720
O17_2 O 0.8205(2) 0.4051(2) 0.8857(6)
Co1_2 Co 0.83236(4) 0.20382(4) 0.87813(11)
N9_2 N 0.8067(2) 0.1651(2) 0.9040(8)
N10_2 N 0.7878(2) 0.2211(2) 0.8596(7)
N11_2 N 0.8736(2) 0.1839(2) 0.8914(6)
N12_2 N 0.8386(2) 0.1858(2) 0.6980(7)
Co2_2 Co 0.66764(4) 0.29618(4) 0.62187(11)
H12_2 H 0.0137 0.4549 0.4045
C21_2 C 0.0086(3) 0.4955(3) 0.3390(9)
H13_3 H 0.0283 0.5004 0.3384
C28_3 C 0.0202(3) 0.5454(3) 0.9738(9)
C29_3 C 0.0382(3) 0.5588(3) 0.8908(9)
H17_3 H 0.0579 0.5542 0.8907
C32_3 C 0.0031(3) 0.6278(3) 0.5299(9)
H18_3 H 0.0130 0.6265 0.4562
N3_3 N 0.0279(2) 0.5788(2) 0.8076(6)
N4_3 N 0.0072(2) 0.6060(2) 0.6121(7)
Co1_3 Co 0.04618(4) 0.58236(4) 0.62813(11)
N9_3 N 0.0849(2) 0.5567(2) 0.6540(8)
N10_3 N 0.0289(2) 0.5378(2) 0.6096(7)
N11_3 N 0.0661(2) 0.6236(2) 0.6414(6)
N12_3 N 0.0642(2) 0.5886(2) 0.4480(7)
H1_3 H 0.8780(17) 0.545(2) 0.315(5)
H2_3 H 0.854(2) 0.559(4) 0.260(9)
C1_3 C 0.9242(3) 0.6547(3) 0.3567(8)
C2_3 C 0.9126(2) 0.6673(2) 0.2373(8)
C3_3 C 0.9332(3) 0.6760(3) 0.1496(8)
H3_3 H 0.9530 0.6738 0.1632
C4_3 C 0.9228(3) 0.6882(3) 0.0418(9)
C5_3 C 0.8936(3) 0.6920(3) 0.0265(9)
C6_3 C 0.8832(3) 0.6714(2) 0.2138(8)
C7_3 C 0.8594(3) 0.6652(2) 0.3040(9)
C8_3 C 0.8169(3) 0.6840(3) 0.3834(8)
H6_3 H 0.8026 0.6984 0.3828
C9_3 C 0.8147(3) 0.6619(3) 0.4676(9)
H7_3 H 0.8003 0.6623 0.5272
C10_3 C 0.8349(3) 0.6387(3) 0.4611(9)
H8_3 H 0.8334 0.6229 0.5133
C11_3 C 0.8573(3) 0.6401(3) 0.3746(7)
C12_3 C 0.8757(2) 0.6131(3) 0.3557(8)
H15_3 H 0.9784 0.5393 0.0180
N5_3 N 0.8736(2) 0.6839(2) 0.1086(6)
N6_3 N 0.8386(2) 0.6858(2) 0.3020(7)
O1_3 O 0.94228(17) 0.63436(19) 0.3478(5)
O2_3 O 0.91387(18) 0.66478(18) 0.4543(5)
O3_3 O 0.88381(17) 0.60827(16) 0.2479(5)
O4_3 O 0.87997(18) 0.59677(17) 0.4455(6)
O19_3 O 0.8425(3) 0.5692(3) 0.0400(9)
O21_3 O 0.8691(2) 0.5481(2) 0.2494(6)
O22_3 O 0.94097(17) 0.60445(17) 0.1402(5)
H35_3 H 0.9503 0.6013 0.2098
H36_3 H 0.9538 0.6021 0.0806
Dy1_3 Dy 0.900989(13) 0.572446(13) 0.11680(4)
O24_3 O 0.92456(18) 0.51891(18) 0.1459(6)
O25_3 O 0.93239(18) 0.55317(16) 0.2838(6)
Co3_3 Co 0.83236(4) 0.70382(4) 0.12187(11)
Dy4_3 Dy 0.900096(13) 0.575460(13) 0.61600(4)
H4_3 H 0.9358 0.6937 0.9808
H5_3 H 0.8872 0.7006 0.9549
C13_3 C 0.9054(3) 0.5183(3) 0.4934(10)
C14_3 C 0.8990(3) 0.4893(3) 0.4308(10)
C15_3 C 0.8706(3) 0.4783(3) 0.4416(12)
H9_3 H 0.8556 0.4897 0.4725
C16_3 C 0.8655(3) 0.4495(3) 0.4043(10)
H10_3 H 0.8470 0.4413 0.4097
C17_3 C 0.8895(3) 0.4331(3) 0.3581(10)
H11_3 H 0.8862 0.4139 0.3353
C18_3 C 0.9205(3) 0.4721(3) 0.3771(8)
C19_3 C 0.9506(3) 0.4813(3) 0.3562(8)
C20_3 C 0.9999(3) 0.4686(3) 0.3817(9)
C22_3 C 0.9881(3) 0.5151(3) 0.2974(8)
H14_3 H 0.9940 0.5329 0.2652
C23_3 C 0.9591(3) 0.5084(3) 0.3036(9)
C24_3 C 0.9363(3) 0.5281(3) 0.2406(9)
C25_3 C 0.9469(2) 0.5707(2) 0.8628(8)
C26_3 C 0.9787(3) 0.5694(3) 0.8773(7)
C27_3 C 0.9908(3) 0.5494(3) 0.9660(9)
C30_3 C 0.9988(3) 0.5843(3) 0.8074(9)
C31_3 C 0.9920(3) 0.6088(3) 0.7195(8)
C33_3 C 0.9859(3) 0.6511(3) 0.5478(8)
H19_3 H 0.9840 0.6652 0.4877
C34_3 C 0.9711(3) 0.6538(3) 0.6562(9)
H20_3 H 0.9595 0.6701 0.6711
C35_3 C 0.9736(3) 0.6324(3) 0.7410(8)
C36_3 C 0.9566(3) 0.6347(3) 0.8578(9)
C37_3 C 0.8530(4) 0.5492(4) 0.9761(14)
C38_3 C 0.8310(4) 0.5314(5) 0.8891(13)
C39_3 C 0.8390(5) 0.5019(5) 0.8622(13)
H21_3 H 0.8570 0.4956 0.8916
C40_3 C 0.8216(4) 0.4805(4) 0.7920(14)
H22_3 H 0.8272 0.4620 0.7672
C41_3 C 0.7946(4) 0.4942(4) 0.7711(14)
H23_3 H 0.7801 0.4824 0.7378
C42_3 C 0.8067(4) 0.5417(4) 0.8390(13)
C43_3 C 0.7999(4) 0.5729(4) 0.8493(12)
C44_3 C 0.7695(4) 0.6122(4) 0.8875(12)
H24_3 H 0.7517 0.6189 0.9172
C45_3 C 0.7845(4) 0.6329(4) 0.8400(12)
H25_3 H 0.7788 0.6523 0.8360
C46_3 C 0.8095(4) 0.6221(4) 0.7969(11)
H26_3 H 0.8228 0.6355 0.7654
C47_3 C 0.8180(3) 0.5924(4) 0.7944(11)
C48_3 C 0.8452(3) 0.5847(3) 0.7306(10)
N1_3 N 0.9151(2) 0.4433(2) 0.3460(8)
N2_3 N 0.9711(2) 0.4622(2) 0.3904(7)
N7_3 N 0.7730(3) 0.5824(3) 0.9062(10)
N8_3 N 0.7868(3) 0.5225(4) 0.7933(11)
O5_3 O 0.88535(18) 0.53701(17) 0.4865(6)
O6_3 O 0.9283(2) 0.5214(2) 0.5480(8)
O9_3 O 0.96990(17) 0.63004(18) 0.9589(5)
O10_3 O 0.93030(19) 0.64140(18) 0.8497(5)
O11_3 O 0.93147(17) 0.56453(17) 0.9510(5)
O12_3 O 0.93754(17) 0.57719(18) 0.7566(6)
O13_3 O 0.90720(19) 0.62547(19) 0.6363(5)
H27_3 H 0.9172 0.6294 0.7022
H28_3 H 0.9168 0.6324 0.5739
O14_3 O 0.94162(17) 0.58433(17) 0.4880(5)
H29_3 H 0.9564 0.5905 0.5304
H30_3 H 0.9466 0.5682 0.4519
O15_3 O 0.8908(2) 0.5355(2) 0.7552(8)
H31_3 H 0.8782 0.5400 0.8327
H32_3 H 0.8794 0.5168 0.7220
O16_3 O 0.8682(2) 0.5942(2) 0.7743(6)
O17_3 O 0.8449(2) 0.5705(2) 0.6357(6)
O18_3 O 0.8772(3) 0.5406(3) 0.9785(8)
O20_3 O 0.88843(18) 0.61293(17) 0.9897(6)
H33_3 H 0.9039 0.6231 0.9720
H34_3 H 0.8806 0.6068 0.9218
H1_4 H 0.205(2) 0.1280(17) 0.565(5)
H2_4 H 0.191(4) 0.104(2) 0.510(9)
C1_4 C 0.0953(3) 0.1742(3) 0.6067(8)
C2_4 C 0.0827(2) 0.1626(2) 0.4873(8)
C3_4 C 0.0740(3) 0.1832(3) 0.3996(8)
H3_4 H 0.0762 0.2030 0.4132
C4_4 C 0.0618(3) 0.1728(3) 0.2918(9)
H4_4 H 0.0563 0.1858 0.2308
C5_4 C 0.0580(3) 0.1436(3) 0.2765(9)
H5_4 H 0.0494 0.1372 0.2049
C6_4 C 0.0786(2) 0.1332(3) 0.4638(8)
C7_4 C 0.0848(2) 0.1094(3) 0.5540(9)
C8_4 C 0.0660(3) 0.0669(3) 0.6334(8)
H6_4 H 0.0516 0.0526 0.6328
C9_4 C 0.0881(3) 0.0647(3) 0.7176(9)
H7_4 H 0.0877 0.0503 0.7772
C10_4 C 0.1113(3) 0.0849(3) 0.7111(9)
H8_4 H 0.1271 0.0834 0.7633
C11_4 C 0.1099(3) 0.1073(3) 0.6246(7)
C12_4 C 0.1369(3) 0.1257(2) 0.6057(8)
C25_4 C 0.1793(2) 0.1969(2) 0.1128(8)
C26_4 C 0.1806(3) 0.2287(3) 0.1273(7)
C27_4 C 0.2006(3) 0.2408(3) 0.2160(9)
H15_4 H 0.2107 0.2284 0.2680
C28_4 C 0.2046(3) 0.2702(3) 0.2238(9)
H16_2 H 0.2163 0.2780 0.2848
C29_4 C 0.1912(3) 0.2882(3) 0.1408(9)
H17_4 H 0.1958 0.3079 0.1407
C30_4 C 0.1657(3) 0.2488(3) 0.0574(9)
C36_4 C 0.1153(3) 0.2066(3) 0.1078(9)
C37_4 C 0.2008(4) 0.1030(4) 0.2261(14)
C38_4 C 0.2186(5) 0.0810(4) 0.1391(13)
C39_4 C 0.2481(5) 0.0890(5) 0.1122(13)
H21_4 H 0.2544 0.1070 0.1416
C40_4 C 0.2695(4) 0.0716(4) 0.0420(14)
H22_4 H 0.2880 0.0772 0.0172
C41_4 C 0.2558(4) 0.0446(4) 0.0211(14)
C42_4 C 0.2083(4) 0.0567(4) 0.0890(13)
C43_4 C 0.1771(4) 0.0499(4) 0.0993(12)
C44_4 C 0.1378(4) 0.0195(4) 0.1375(12)
H24_4 H 0.1311 0.0017 0.1672
C45_4 C 0.1171(4) 0.0345(4) 0.0900(12)
H25_4 H 0.0977 0.0288 0.0860
C46_4 C 0.1279(4) 0.0595(4) 0.0469(11)
H26_4 H 0.1145 0.0728 0.0154
C47_4 C 0.1576(4) 0.0680(3) 0.0444(11)
N3_4 N 0.1712(2) 0.2779(2) 0.0576(6)
N5_4 N 0.0661(2) 0.1236(2) 0.3586(6)
N6_4 N 0.0642(2) 0.0886(2) 0.5520(7)
N7_4 N 0.1676(3) 0.0230(3) 0.1562(10)
N8_4 N 0.2275(4) 0.0368(3) 0.0433(11)
O1_4 O 0.11564(19) 0.19228(17) 0.5978(5)
O2_4 O 0.08522(18) 0.16387(18) 0.7043(5)
O3_4 O 0.14173(16) 0.13381(17) 0.4979(5)
O4_4 O 0.15323(17) 0.12997(18) 0.6955(6)
O9_4 O 0.11996(18) 0.21990(17) 0.2089(5)
O10_4 O 0.10860(18) 0.18030(19) 0.0997(5)
O11_4 O 0.18547(17) 0.18147(17) 0.2010(5)
O12_4 O 0.17281(18) 0.18754(17) 0.0066(6)
O15_4 O 0.2145(2) 0.1408(2) 0.0052(8)
H31_4 H 0.2100 0.1282 0.0827
O16_4 O 0.1558(2) 0.1182(2) 0.0243(6)
O18_4 O 0.2094(3) 0.1272(3) 0.2285(8)
O19_4 O 0.1808(3) 0.0925(3) 0.2900(9)
O20_4 O 0.13707(17) 0.13843(18) 0.2397(6)
H33_4 H 0.1269 0.1539 0.2220
H34_4 H 0.1432 0.1306 0.1718
O21_4 O 0.2019(2) 0.1191(2) 0.4994(6)
O22_4 O 0.14555(17) 0.19097(17) 0.3902(5)
H35_4 H 0.1487 0.2003 0.4598
H36_4 H 0.1479 0.2038 0.3306
Dy1_4 Dy 0.177554(13) 0.150989(13) 0.36680(4)
O24_4 O 0.23109(18) 0.17456(18) 0.3959(6)
O25_4 O 0.19683(16) 0.18239(18) 0.5338(6)
Dy4_4 Dy 0.174540(13) 0.150096(13) 0.86600(4)
C13_4 C 0.2317(3) 0.1554(3) 0.7434(10)
C14_4 C 0.2607(3) 0.1490(3) 0.6808(10)
C15_4 C 0.2717(3) 0.1206(3) 0.6916(12)
H9_4 H 0.2603 0.1056 0.7225
C16_4 C 0.3005(3) 0.1155(3) 0.6543(10)
H10_4 H 0.3087 0.0970 0.6597
C17_4 C 0.3169(3) 0.1395(3) 0.6081(10)
H11_4 H 0.3361 0.1362 0.5853
C18_4 C 0.2779(3) 0.1705(3) 0.6271(8)
C19_4 C 0.2687(3) 0.2006(3) 0.6062(8)
C20_4 C 0.2814(3) 0.2499(3) 0.6317(9)
H12_3 H 0.2951 0.2637 0.6545
C21_3 C 0.2545(3) 0.2586(3) 0.5890(9)
H13_4 H 0.2496 0.2783 0.5884
C22_4 C 0.2349(3) 0.2381(3) 0.5474(8)
H14_4 H 0.2171 0.2440 0.5152
C23_4 C 0.2416(3) 0.2091(3) 0.5536(9)
C24_4 C 0.2219(3) 0.1863(3) 0.4906(9)
C31_4 C 0.1412(3) 0.2420(3) 0.9695(8)
C32_4 C 0.1222(3) 0.2531(3) 0.7799(9)
H18_4 H 0.1235 0.2630 0.7062
C33_4 C 0.0989(3) 0.2359(3) 0.7978(8)
H19_4 H 0.0848 0.2340 0.7377
C34_4 C 0.0962(3) 0.2211(3) 0.9062(9)
H20_4 H 0.0799 0.2095 0.9211
C35_4 C 0.1176(3) 0.2236(3) 0.9910(8)
H23_4 H 0.2676 0.0301 0.9878
C48_4 C 0.1653(3) 0.0952(3) 0.9806(10)
N1_4 N 0.3067(2) 0.1651(2) 0.5960(8)
N2_4 N 0.2878(2) 0.2211(2) 0.6404(7)
N4_4 N 0.1440(2) 0.2572(2) 0.8621(7)
O5_4 O 0.21299(17) 0.13535(18) 0.7365(6)
O6_4 O 0.2286(2) 0.1783(2) 0.7980(8)
O13_4 O 0.12453(19) 0.15720(19) 0.8863(5)
H27_4 H 0.1206 0.1672 0.9522
H28_4 H 0.1176 0.1668 0.8239
O14_4 O 0.16567(17) 0.19162(17) 0.7380(5)
H29_4 H 0.1595 0.2064 0.7804
H30_4 H 0.1818 0.1966 0.7019
H32_4 H 0.2332 0.1294 0.9720
O17_4 O 0.1795(2) 0.0949(2) 0.8857(6)
Co1_4 Co 0.16764(4) 0.29618(4) 0.87813(11)
N9_4 N 0.1933(2) 0.3349(2) 0.9040(8)
N10_4 N 0.2122(2) 0.2789(2) 0.8596(7)
N11_4 N 0.1264(2) 0.3161(2) 0.8914(6)
N12_4 N 0.1614(2) 0.3142(2) 0.6980(7)
Co2_3 Co 0.33236(4) 0.20382(4) 0.62187(11)
H7_5 H 0.6997 0.3377 0.0272
H8_5 H 0.6666 0.3771 0.0133
Dy4_5 Dy 0.599904(13) 0.424540(13) 0.11600(4)
H1_5 H 0.6220(17) 0.455(2) 0.815(5)
H2_5 H 0.646(2) 0.441(4) 0.760(9)
C1_5 C 0.5758(3) 0.3453(3) 0.8567(8)
C2_5 C 0.5874(2) 0.3327(2) 0.7373(8)
C3_5 C 0.5668(3) 0.3240(3) 0.6496(8)
H3_5 H 0.5470 0.3262 0.6632
C4_5 C 0.5772(3) 0.3118(3) 0.5418(9)
H4_5 H 0.5642 0.3063 0.4808
C5_5 C 0.6064(3) 0.3080(3) 0.5265(9)
H5_5 H 0.6128 0.2994 0.4549
C6_5 C 0.6168(3) 0.3286(2) 0.7138(8)
C7_5 C 0.6406(3) 0.3348(2) 0.8040(9)
C8_5 C 0.6831(3) 0.3160(3) 0.8834(8)
H6_5 H 0.6974 0.3016 0.8828
C9_5 C 0.6853(3) 0.3381(3) 0.9676(9)
C10_5 C 0.6651(3) 0.3613(3) 0.9611(9)
C11_5 C 0.6427(3) 0.3599(3) 0.8746(7)
C12_5 C 0.6243(2) 0.3869(3) 0.8557(8)
C25_5 C 0.5531(2) 0.4293(2) 0.3628(8)
C26_5 C 0.5213(3) 0.4306(3) 0.3773(7)
C27_5 C 0.5092(3) 0.4506(3) 0.4660(9)
H15_5 H 0.5216 0.4607 0.5180
C28_5 C 0.4798(3) 0.4546(3) 0.4738(9)
H16_3 H 0.4720 0.4663 0.5348
C29_5 C 0.4618(3) 0.4412(3) 0.3908(9)
H17_5 H 0.4421 0.4458 0.3907
C30_5 C 0.5012(3) 0.4157(3) 0.3074(9)
C31_5 C 0.5080(3) 0.3912(3) 0.2195(8)
C32_5 C 0.4969(3) 0.3722(3) 0.0299(9)
C33_5 C 0.5141(3) 0.3489(3) 0.0478(8)
C34_5 C 0.5289(3) 0.3462(3) 0.1562(9)
H20_5 H 0.5405 0.3299 0.1711
C35_5 C 0.5264(3) 0.3676(3) 0.2410(8)
C36_5 C 0.5434(3) 0.3653(3) 0.3578(9)
C37_5 C 0.6470(4) 0.4508(4) 0.4761(14)
C38_5 C 0.6690(4) 0.4686(5) 0.3891(13)
C39_5 C 0.6610(5) 0.4981(5) 0.3622(13)
H21_5 H 0.6430 0.5044 0.3916
C40_5 C 0.6784(4) 0.5195(4) 0.2920(14)
H22_5 H 0.6728 0.5380 0.2672
C41_5 C 0.7054(4) 0.5058(4) 0.2711(14)
H23_5 H 0.7199 0.5176 0.2378
C42_5 C 0.6933(4) 0.4583(4) 0.3390(13)
C43_5 C 0.7001(4) 0.4271(4) 0.3493(12)
C44_5 C 0.7305(4) 0.3878(4) 0.3875(12)
H24_5 H 0.7483 0.3811 0.4172
C45_5 C 0.7155(4) 0.3671(4) 0.3400(12)
H25_5 H 0.7212 0.3477 0.3360
C46_5 C 0.6905(4) 0.3779(4) 0.2969(11)
H26_5 H 0.6772 0.3645 0.2654
C47_5 C 0.6820(3) 0.4076(4) 0.2944(11)
C48_5 C 0.6548(3) 0.4153(3) 0.2306(10)
N3_5 N 0.4721(2) 0.4212(2) 0.3076(6)
N4_5 N 0.4928(2) 0.3940(2) 0.1121(7)
N5_5 N 0.6264(2) 0.3161(2) 0.6086(6)
N6_5 N 0.6614(2) 0.3142(2) 0.8020(7)
N7_5 N 0.7270(3) 0.4176(3) 0.4062(10)
N8_5 N 0.7132(3) 0.4775(4) 0.2933(11)
O1_5 O 0.55772(17) 0.36564(19) 0.8478(5)
O2_5 O 0.58613(18) 0.33522(18) 0.9543(5)
O3_5 O 0.61619(17) 0.39173(16) 0.7479(5)
O4_5 O 0.62003(18) 0.40323(17) 0.9455(6)
O6_5 O 0.5717(2) 0.4786(2) 0.0480(8)
O9_5 O 0.53010(17) 0.36996(18) 0.4589(5)
O10_5 O 0.56970(19) 0.35860(18) 0.3497(5)
O11_5 O 0.56853(17) 0.43547(17) 0.4510(5)
O12_5 O 0.56246(17) 0.42281(18) 0.2566(6)
O13_5 O 0.59280(19) 0.37453(19) 0.1363(5)
H27_5 H 0.5828 0.3706 0.2022
H28_5 H 0.5832 0.3676 0.0739
H29_5 H 0.5436 0.4095 0.0304
O15_5 O 0.6092(2) 0.4645(2) 0.2552(8)
H31_5 H 0.6218 0.4600 0.3327
H32_5 H 0.6206 0.4832 0.2220
O16_5 O 0.6318(2) 0.4058(2) 0.2743(6)
O17_5 O 0.6551(2) 0.4295(2) 0.1357(6)
O18_5 O 0.6228(3) 0.4594(3) 0.4785(8)
O19_5 O 0.6575(3) 0.4308(3) 0.5400(9)
O20_5 O 0.61157(18) 0.38707(17) 0.4897(6)
H33_5 H 0.5961 0.3769 0.4720
H34_5 H 0.6194 0.3932 0.4218
O21_5 O 0.6309(2) 0.4519(2) 0.7494(6)
O22_5 O 0.55903(17) 0.39555(17) 0.6402(5)
H35_5 H 0.5497 0.3987 0.7098
H36_5 H 0.5462 0.3979 0.5806
Co1_5 Co 0.45382(4) 0.41764(4) 0.12813(11)
Dy1_5 Dy 0.599011(13) 0.427554(13) 0.61680(4)
N9_5 N 0.4151(2) 0.4433(2) 0.1540(8)
N10_5 N 0.4711(2) 0.4622(2) 0.1096(7)
N11_5 N 0.4339(2) 0.3764(2) 0.1414(6)
O24_5 O 0.57544(18) 0.48109(18) 0.6459(6)
O25_5 O 0.56761(18) 0.44683(16) 0.7838(6)
C13_5 C 0.5946(3) 0.4817(3) 0.9934(10)
C14_5 C 0.6010(3) 0.5107(3) 0.9308(10)
C15_5 C 0.6294(3) 0.5217(3) 0.9416(12)
H9_5 H 0.6444 0.5103 0.9725
C16_5 C 0.6345(3) 0.5505(3) 0.9043(10)
H10_5 H 0.6530 0.5587 0.9097
C17_5 C 0.6105(3) 0.5669(3) 0.8581(10)
H11_5 H 0.6138 0.5861 0.8353
C18_5 C 0.5795(3) 0.5279(3) 0.8771(8)
C19_5 C 0.5494(3) 0.5187(3) 0.8562(8)
C20_5 C 0.5001(3) 0.5314(3) 0.8817(9)
H12_4 H 0.4863 0.5451 0.9045
C21_4 C 0.4914(3) 0.5045(3) 0.8390(9)
H13_5 H 0.4717 0.4996 0.8384
C22_5 C 0.5119(3) 0.4849(3) 0.7974(8)
H14_5 H 0.5060 0.4671 0.7652
C23_5 C 0.5409(3) 0.4916(3) 0.8036(9)
C24_5 C 0.5637(3) 0.4719(3) 0.7406(9)
H18_5 H 0.4870 0.3735 0.9562
H19_5 H 0.5160 0.3348 0.9877
N1_5 N 0.5849(2) 0.5567(2) 0.8460(8)
N2_5 N 0.5289(2) 0.5378(2) 0.8904(7)
O5_5 O 0.61465(18) 0.46299(17) 0.9865(6)
O14_5 O 0.55838(17) 0.41567(17) 0.9880(5)
H30_5 H 0.5534 0.4318 0.9519
N12_5 N 0.4358(2) 0.4114(2) 0.9480(7)
Co2_4 Co 0.54618(4) 0.58236(4) 0.87187(11)
H1_6 H 0.295(2) 0.8720(17) 0.065(5)
H2_6 H 0.309(4) 0.896(2) 0.010(9)
C1_6 C 0.4047(3) 0.8258(3) 0.1067(8)
C7_6 C 0.4152(2) 0.8906(3) 0.0540(9)
C8_6 C 0.4340(3) 0.9331(3) 0.1334(8)
H6_6 H 0.4484 0.9474 0.1328
C9_6 C 0.4119(3) 0.9353(3) 0.2176(9)
H7_6 H 0.4123 0.9497 0.2772
C10_6 C 0.3887(3) 0.9151(3) 0.2111(9)
H8_6 H 0.3729 0.9166 0.2633
C11_6 C 0.3901(3) 0.8927(3) 0.1246(7)
C12_6 C 0.3631(3) 0.8743(2) 0.1057(8)
N6_6 N 0.4358(2) 0.9114(2) 0.0520(7)
O1_6 O 0.38436(19) 0.80772(17) 0.0978(5)
O2_6 O 0.41478(18) 0.83613(18) 0.2043(5)
O4_6 O 0.34677(17) 0.87003(18) 0.1955(6)
O25_6 O 0.30317(16) 0.81761(18) 0.0338(6)
Dy4_6 Dy 0.325460(13) 0.849904(13) 0.36600(4)
C2_6 C 0.4173(2) 0.8374(2) 0.9873(8)
C3_6 C 0.4260(3) 0.8168(3) 0.8996(8)
H3_6 H 0.4238 0.7970 0.9132
C4_6 C 0.4382(3) 0.8272(3) 0.7918(9)
H4_6 H 0.4437 0.8142 0.7308
C5_6 C 0.4420(3) 0.8564(3) 0.7765(9)
H5_6 H 0.4506 0.8628 0.7049
C6_6 C 0.4214(2) 0.8668(3) 0.9638(8)
C13_6 C 0.2683(3) 0.8446(3) 0.2434(10)
C14_6 C 0.2393(3) 0.8510(3) 0.1808(10)
C15_6 C 0.2283(3) 0.8794(3) 0.1916(12)
H9_6 H 0.2397 0.8944 0.2225
C16_6 C 0.1995(3) 0.8845(3) 0.1543(10)
H10_6 H 0.1913 0.9030 0.1597
C17_6 C 0.1831(3) 0.8605(3) 0.1081(10)
H11_6 H 0.1639 0.8638 0.0853
C18_6 C 0.2221(3) 0.8295(3) 0.1271(8)
C19_6 C 0.2313(3) 0.7994(3) 0.1062(8)
C20_6 C 0.2186(3) 0.7501(3) 0.1317(9)
H12_5 H 0.2049 0.7363 0.1545
C21_5 C 0.2455(3) 0.7414(3) 0.0890(9)
H13_6 H 0.2504 0.7217 0.0884
C22_6 C 0.2651(3) 0.7619(3) 0.0474(8)
H14_6 H 0.2829 0.7560 0.0152
C23_6 C 0.2584(3) 0.7909(3) 0.0536(9)
C25_6 C 0.3207(2) 0.8031(2) 0.6128(8)
C26_6 C 0.3194(3) 0.7713(3) 0.6273(7)
C27_6 C 0.2994(3) 0.7592(3) 0.7160(9)
H15_6 H 0.2893 0.7716 0.7680
C28_6 C 0.2954(3) 0.7298(3) 0.7238(9)
H16_4 H 0.2837 0.7220 0.7848
C29_6 C 0.3088(3) 0.7118(3) 0.6408(9)
H17_6 H 0.3042 0.6921 0.6407
C30_6 C 0.3343(3) 0.7512(3) 0.5574(9)
C31_6 C 0.3588(3) 0.7580(3) 0.4695(8)
C32_6 C 0.3778(3) 0.7469(3) 0.2799(9)
H18_6 H 0.3765 0.7370 0.2062
C33_6 C 0.4011(3) 0.7641(3) 0.2978(8)
H19_6 H 0.4152 0.7660 0.2377
C34_6 C 0.4038(3) 0.7789(3) 0.4062(9)
H20_6 H 0.4201 0.7905 0.4211
C35_6 C 0.3824(3) 0.7764(3) 0.4910(8)
C36_6 C 0.3847(3) 0.7934(3) 0.6078(9)
C37_6 C 0.2992(4) 0.8970(4) 0.7261(14)
C38_6 C 0.2814(5) 0.9190(4) 0.6391(13)
C39_6 C 0.2519(5) 0.9110(5) 0.6122(13)
H21_6 H 0.2456 0.8930 0.6416
C40_6 C 0.2305(4) 0.9284(4) 0.5420(14)
H22_6 H 0.2120 0.9228 0.5172
C41_6 C 0.2442(4) 0.9554(4) 0.5211(14)
H23_6 H 0.2324 0.9699 0.4878
C42_6 C 0.2917(4) 0.9433(4) 0.5890(13)
C43_6 C 0.3229(4) 0.9501(4) 0.5993(12)
C44_6 C 0.3622(4) 0.9805(4) 0.6375(12)
H24_6 H 0.3689 0.9983 0.6672
C45_6 C 0.3829(4) 0.9655(4) 0.5900(12)
H25_6 H 0.4023 0.9712 0.5860
C46_6 C 0.3721(4) 0.9405(4) 0.5469(11)
H26_6 H 0.3855 0.9272 0.5154
C47_6 C 0.3424(4) 0.9320(3) 0.5444(11)
C48_6 C 0.3347(3) 0.9048(3) 0.4806(10)
N1_6 N 0.1933(2) 0.8349(2) 0.0960(8)
N2_6 N 0.2122(2) 0.7789(2) 0.1404(7)
N3_6 N 0.3288(2) 0.7221(2) 0.5576(6)
N4_6 N 0.3560(2) 0.7428(2) 0.3621(7)
N5_6 N 0.4339(2) 0.8764(2) 0.8586(6)
N7_6 N 0.3324(3) 0.9770(3) 0.6562(10)
N8_6 N 0.2725(4) 0.9632(3) 0.5433(11)
O3_6 O 0.35827(16) 0.86619(17) 0.9979(5)
O5_6 O 0.28701(17) 0.86465(18) 0.2365(6)
O6_6 O 0.2714(2) 0.8217(2) 0.2980(8)
O9_6 O 0.38004(18) 0.78010(17) 0.7089(5)
O10_6 O 0.39140(18) 0.81970(19) 0.5997(5)
O11_6 O 0.31453(17) 0.81853(17) 0.7010(5)
O12_6 O 0.32719(18) 0.81246(17) 0.5066(6)
O13_6 O 0.37547(19) 0.84280(19) 0.3863(5)
H27_6 H 0.3794 0.8328 0.4522
H28_6 H 0.3824 0.8332 0.3239
O14_6 O 0.33433(17) 0.80838(17) 0.2380(5)
H29_6 H 0.3405 0.7936 0.2804
H30_6 H 0.3182 0.8034 0.2019
O15_6 O 0.2855(2) 0.8592(2) 0.5052(8)
H31_6 H 0.2900 0.8718 0.5827
H32_6 H 0.2668 0.8706 0.4720
O16_6 O 0.3442(2) 0.8818(2) 0.5243(6)
O17_6 O 0.3205(2) 0.9051(2) 0.3857(6)
O18_6 O 0.2906(3) 0.8728(3) 0.7285(8)
O19_6 O 0.3192(3) 0.9075(3) 0.7900(9)
O20_6 O 0.36293(17) 0.86157(18) 0.7397(6)
H33_6 H 0.3731 0.8461 0.7220
H34_6 H 0.3568 0.8694 0.6718
O21_6 O 0.2981(2) 0.8809(2) 0.9994(6)
O22_6 O 0.35445(17) 0.80903(17) 0.8902(5)
H35_6 H 0.3513 0.7997 0.9598
H36_6 H 0.3521 0.7962 0.8306
Co1_6 Co 0.33236(4) 0.70382(4) 0.37813(11)
Dy1_6 Dy 0.322446(13) 0.849011(13) 0.86680(4)
N9_6 N 0.3067(2) 0.6651(2) 0.4040(8)
N10_6 N 0.2878(2) 0.7211(2) 0.3596(7)
N11_6 N 0.3736(2) 0.6839(2) 0.3914(6)
N12_6 N 0.3386(2) 0.6858(2) 0.1980(7)
O24_6 O 0.26891(18) 0.82544(18) 0.8959(6)
Co3_4 Co 0.45382(4) 0.91764(4) 0.87187(11)
C24_6 C 0.2781(3) 0.8137(3) 0.9906(9)
H7_7 H 0.3003 0.1623 0.0272
H8_7 H 0.3334 0.1229 0.0133
Dy4_7 Dy 0.400096(13) 0.075460(13) 0.11600(4)
H1_7 H 0.3780(17) 0.045(2) 0.815(5)
H2_7 H 0.354(2) 0.059(4) 0.760(9)
C1_7 C 0.4242(3) 0.1547(3) 0.8567(8)
C2_7 C 0.4126(2) 0.1673(2) 0.7373(8)
C3_7 C 0.4332(3) 0.1760(3) 0.6496(8)
H3_7 H 0.4530 0.1738 0.6632
C4_7 C 0.4228(3) 0.1882(3) 0.5418(9)
H4_7 H 0.4358 0.1937 0.4808
C5_7 C 0.3936(3) 0.1920(3) 0.5265(9)
H5_7 H 0.3872 0.2006 0.4549
C6_7 C 0.3832(3) 0.1714(2) 0.7138(8)
C7_7 C 0.3594(3) 0.1652(2) 0.8040(9)
C8_7 C 0.3169(3) 0.1840(3) 0.8834(8)
H6_7 H 0.3026 0.1984 0.8828
C9_7 C 0.3147(3) 0.1619(3) 0.9676(9)
C10_7 C 0.3349(3) 0.1387(3) 0.9611(9)
C11_7 C 0.3573(3) 0.1401(3) 0.8746(7)
C12_7 C 0.3757(2) 0.1131(3) 0.8557(8)
C25_7 C 0.4469(2) 0.0707(2) 0.3628(8)
C26_7 C 0.4787(3) 0.0694(3) 0.3773(7)
C27_7 C 0.4908(3) 0.0494(3) 0.4660(9)
H15_7 H 0.4784 0.0393 0.5180
C28_7 C 0.5202(3) 0.0454(3) 0.4738(9)
H16_5 H 0.5280 0.0337 0.5348
C29_7 C 0.5382(3) 0.0588(3) 0.3908(9)
H17_7 H 0.5579 0.0542 0.3907
C30_7 C 0.4988(3) 0.0843(3) 0.3074(9)
C31_7 C 0.4920(3) 0.1088(3) 0.2195(8)
C32_7 C 0.5031(3) 0.1278(3) 0.0299(9)
C33_7 C 0.4859(3) 0.1511(3) 0.0478(8)
C34_7 C 0.4711(3) 0.1538(3) 0.1562(9)
H20_7 H 0.4595 0.1701 0.1711
C35_7 C 0.4736(3) 0.1324(3) 0.2410(8)
C36_7 C 0.4566(3) 0.1347(3) 0.3578(9)
C37_7 C 0.3530(4) 0.0492(4) 0.4761(14)
C38_7 C 0.3310(4) 0.0314(5) 0.3891(13)
C39_7 C 0.3390(5) 0.0019(5) 0.3622(13)
C42_7 C 0.3067(4) 0.0417(4) 0.3390(13)
C43_7 C 0.2999(4) 0.0729(4) 0.3493(12)
C44_7 C 0.2695(4) 0.1122(4) 0.3875(12)
H24_7 H 0.2517 0.1189 0.4172
C45_7 C 0.2845(4) 0.1329(4) 0.3400(12)
H25_7 H 0.2788 0.1523 0.3360
C46_7 C 0.3095(4) 0.1221(4) 0.2969(11)
H26_7 H 0.3228 0.1355 0.2654
C47_7 C 0.3180(3) 0.0924(4) 0.2944(11)
C48_7 C 0.3452(3) 0.0847(3) 0.2306(10)
N3_7 N 0.5279(2) 0.0788(2) 0.3076(6)
N4_7 N 0.5072(2) 0.1060(2) 0.1121(7)
N5_7 N 0.3736(2) 0.1839(2) 0.6086(6)
N6_7 N 0.3386(2) 0.1858(2) 0.8020(7)
N7_7 N 0.2730(3) 0.0824(3) 0.4062(10)
N8_7 N 0.2868(3) 0.0225(4) 0.2933(11)
O1_7 O 0.44228(17) 0.13436(19) 0.8478(5)
O2_7 O 0.41387(18) 0.16478(18) 0.9543(5)
O3_7 O 0.38381(17) 0.10827(16) 0.7479(5)
O4_7 O 0.37997(18) 0.09677(17) 0.9455(6)
O6_7 O 0.4283(2) 0.0214(2) 0.0480(8)
O9_7 O 0.46990(17) 0.13004(18) 0.4589(5)
O10_7 O 0.43030(19) 0.14140(18) 0.3497(5)
O11_7 O 0.43147(17) 0.06453(17) 0.4510(5)
O12_7 O 0.43754(17) 0.07719(18) 0.2566(6)
O13_7 O 0.40720(19) 0.12547(19) 0.1363(5)
H27_7 H 0.4172 0.1294 0.2022
H28_7 H 0.4168 0.1324 0.0739
H29_7 H 0.4564 0.0905 0.0304
O15_7 O 0.3908(2) 0.0355(2) 0.2552(8)
H31_7 H 0.3782 0.0400 0.3327
H32_7 H 0.3794 0.0168 0.2220
O16_7 O 0.3682(2) 0.0942(2) 0.2743(6)
O17_7 O 0.3449(2) 0.0705(2) 0.1357(6)
O18_7 O 0.3772(3) 0.0406(3) 0.4785(8)
O19_7 O 0.3425(3) 0.0692(3) 0.5400(9)
O20_7 O 0.38843(18) 0.11293(17) 0.4897(6)
H33_7 H 0.4039 0.1231 0.4720
H34_7 H 0.3806 0.1068 0.4218
O21_7 O 0.3691(2) 0.0481(2) 0.7494(6)
O22_7 O 0.44097(17) 0.10445(17) 0.6402(5)
H35_7 H 0.4503 0.1013 0.7098
H36_7 H 0.4538 0.1021 0.5806
Co1_7 Co 0.54618(4) 0.08236(4) 0.12813(11)
Dy1_7 Dy 0.400989(13) 0.072446(13) 0.61680(4)
N9_7 N 0.5849(2) 0.0567(2) 0.1540(8)
N10_7 N 0.5289(2) 0.0378(2) 0.1096(7)
N11_7 N 0.5661(2) 0.1236(2) 0.1414(6)
O24_7 O 0.42456(18) 0.01891(18) 0.6459(6)
O25_7 O 0.43239(18) 0.05317(16) 0.7838(6)
C13_7 C 0.4054(3) 0.0183(3) 0.9934(10)
H13_7 H 0.5283 0.0004 0.8384
C22_7 C 0.4881(3) 0.0151(3) 0.7974(8)
H14_7 H 0.4940 0.0329 0.7652
C23_7 C 0.4591(3) 0.0084(3) 0.8036(9)
C24_7 C 0.4363(3) 0.0281(3) 0.7406(9)
H18_7 H 0.5130 0.1265 0.9562
H19_7 H 0.4840 0.1652 0.9877
O5_7 O 0.38535(18) 0.03701(17) 0.9865(6)
O14_7 O 0.44162(17) 0.08433(17) 0.9880(5)
H30_7 H 0.4466 0.0682 0.9519
N12_7 N 0.5642(2) 0.0886(2) 0.9480(7)
C14_7 C 0.3990(3) 0.9893(3) 0.9308(10)
C15_7 C 0.3706(3) 0.9783(3) 0.9416(12)
H9_7 H 0.3556 0.9897 0.9725
C16_7 C 0.3655(3) 0.9495(3) 0.9043(10)
H10_7 H 0.3470 0.9413 0.9097
C17_7 C 0.3895(3) 0.9331(3) 0.8581(10)
H11_7 H 0.3862 0.9139 0.8353
C18_7 C 0.4205(3) 0.9721(3) 0.8771(8)
C19_7 C 0.4506(3) 0.9813(3) 0.8562(8)
C20_7 C 0.4999(3) 0.9686(3) 0.8817(9)
H12_6 H 0.5137 0.9549 0.9045
C21_6 C 0.5086(3) 0.9955(3) 0.8390(9)
N1_7 N 0.4151(2) 0.9433(2) 0.8460(8)
N2_7 N 0.4711(2) 0.9622(2) 0.8904(7)
H1_8 H 0.705(2) 0.6280(17) 0.065(5)
H2_8 H 0.691(4) 0.604(2) 0.010(9)
C1_8 C 0.5953(3) 0.6742(3) 0.1067(8)
C7_8 C 0.5848(2) 0.6094(3) 0.0540(9)
C8_8 C 0.5660(3) 0.5669(3) 0.1334(8)
H6_8 H 0.5516 0.5526 0.1328
C9_8 C 0.5881(3) 0.5647(3) 0.2176(9)
H7_8 H 0.5877 0.5503 0.2772
C10_8 C 0.6113(3) 0.5849(3) 0.2111(9)
H8_8 H 0.6271 0.5834 0.2633
C11_8 C 0.6099(3) 0.6073(3) 0.1246(7)
C12_8 C 0.6369(3) 0.6257(2) 0.1057(8)
N6_8 N 0.5642(2) 0.5886(2) 0.0520(7)
O1_8 O 0.61564(19) 0.69228(17) 0.0978(5)
O2_8 O 0.58522(18) 0.66387(18) 0.2043(5)
O4_8 O 0.65323(17) 0.62997(18) 0.1955(6)
O25_8 O 0.69683(16) 0.68239(18) 0.0338(6)
Dy4_8 Dy 0.674540(13) 0.650096(13) 0.36600(4)
C2_8 C 0.5827(2) 0.6626(2) 0.9873(8)
C3_8 C 0.5740(3) 0.6832(3) 0.8996(8)
H3_8 H 0.5762 0.7030 0.9132
C4_8 C 0.5618(3) 0.6728(3) 0.7918(9)
H4_8 H 0.5563 0.6858 0.7308
C5_8 C 0.5580(3) 0.6436(3) 0.7765(9)
H5_8 H 0.5494 0.6372 0.7049
C6_8 C 0.5786(2) 0.6332(3) 0.9638(8)
C13_8 C 0.7317(3) 0.6554(3) 0.2434(10)
C14_8 C 0.7607(3) 0.6490(3) 0.1808(10)
C15_8 C 0.7717(3) 0.6206(3) 0.1916(12)
H9_8 H 0.7603 0.6056 0.2225
C16_8 C 0.8005(3) 0.6155(3) 0.1543(10)
H10_8 H 0.8087 0.5970 0.1597
C17_8 C 0.8169(3) 0.6395(3) 0.1081(10)
H11_8 H 0.8361 0.6362 0.0853
C18_8 C 0.7779(3) 0.6705(3) 0.1271(8)
C19_8 C 0.7687(3) 0.7006(3) 0.1062(8)
C20_8 C 0.7814(3) 0.7499(3) 0.1317(9)
H12_7 H 0.7951 0.7637 0.1545
C21_7 C 0.7545(3) 0.7586(3) 0.0890(9)
H13_8 H 0.7496 0.7783 0.0884
C22_8 C 0.7349(3) 0.7381(3) 0.0474(8)
H14_8 H 0.7171 0.7440 0.0152
C23_8 C 0.7416(3) 0.7091(3) 0.0536(9)
C25_8 C 0.6793(2) 0.6969(2) 0.6128(8)
C26_8 C 0.6806(3) 0.7287(3) 0.6273(7)
C27_8 C 0.7006(3) 0.7408(3) 0.7160(9)
H15_8 H 0.7107 0.7284 0.7680
C28_8 C 0.7046(3) 0.7702(3) 0.7238(9)
H16_6 H 0.7163 0.7780 0.7848
C29_8 C 0.6912(3) 0.7882(3) 0.6408(9)
H17_8 H 0.6958 0.8079 0.6407
C30_8 C 0.6657(3) 0.7488(3) 0.5574(9)
C31_8 C 0.6412(3) 0.7420(3) 0.4695(8)
C32_8 C 0.6222(3) 0.7531(3) 0.2799(9)
H18_8 H 0.6235 0.7630 0.2062
C33_8 C 0.5989(3) 0.7359(3) 0.2978(8)
H19_8 H 0.5848 0.7340 0.2377
C34_8 C 0.5962(3) 0.7211(3) 0.4062(9)
H20_8 H 0.5799 0.7095 0.4211
C35_8 C 0.6176(3) 0.7236(3) 0.4910(8)
C36_8 C 0.6153(3) 0.7066(3) 0.6078(9)
C37_8 C 0.7008(4) 0.6030(4) 0.7261(14)
C38_8 C 0.7186(5) 0.5810(4) 0.6391(13)
C39_8 C 0.7481(5) 0.5890(5) 0.6122(13)
H21_7 H 0.7544 0.6070 0.6416
C40_7 C 0.7695(4) 0.5716(4) 0.5420(14)
H22_7 H 0.7880 0.5772 0.5172
C41_7 C 0.7558(4) 0.5446(4) 0.5211(14)
H23_7 H 0.7676 0.5301 0.4878
C42_8 C 0.7083(4) 0.5567(4) 0.5890(13)
C43_8 C 0.6771(4) 0.5499(4) 0.5993(12)
C44_8 C 0.6378(4) 0.5195(4) 0.6375(12)
H24_8 H 0.6311 0.5017 0.6672
C45_8 C 0.6171(4) 0.5345(4) 0.5900(12)
H25_8 H 0.5977 0.5288 0.5860
C46_8 C 0.6279(4) 0.5595(4) 0.5469(11)
H26_8 H 0.6145 0.5728 0.5154
C47_8 C 0.6576(4) 0.5680(3) 0.5444(11)
C48_8 C 0.6653(3) 0.5952(3) 0.4806(10)
N1_8 N 0.8067(2) 0.6651(2) 0.0960(8)
N2_8 N 0.7878(2) 0.7211(2) 0.1404(7)
N3_8 N 0.6712(2) 0.7779(2) 0.5576(6)
N4_8 N 0.6440(2) 0.7572(2) 0.3621(7)
N5_8 N 0.5661(2) 0.6236(2) 0.8586(6)
N7_8 N 0.6676(3) 0.5230(3) 0.6562(10)
N8_8 N 0.7275(4) 0.5368(3) 0.5433(11)
O3_8 O 0.64173(16) 0.63381(17) 0.9979(5)
O5_8 O 0.71299(17) 0.63535(18) 0.2365(6)
O6_8 O 0.7286(2) 0.6783(2) 0.2980(8)
O9_8 O 0.61996(18) 0.71990(17) 0.7089(5)
O10_8 O 0.60860(18) 0.68030(19) 0.5997(5)
O11_8 O 0.68547(17) 0.68147(17) 0.7010(5)
O12_8 O 0.67281(18) 0.68754(17) 0.5066(6)
O13_8 O 0.62453(19) 0.65720(19) 0.3863(5)
H27_8 H 0.6206 0.6672 0.4522
H28_8 H 0.6176 0.6668 0.3239
O14_8 O 0.66567(17) 0.69162(17) 0.2380(5)
H29_8 H 0.6595 0.7064 0.2804
H30_8 H 0.6818 0.6966 0.2019
O15_8 O 0.7145(2) 0.6408(2) 0.5052(8)
H31_8 H 0.7100 0.6282 0.5827
H32_8 H 0.7332 0.6294 0.4720
O16_8 O 0.6558(2) 0.6182(2) 0.5243(6)
O17_8 O 0.6795(2) 0.5949(2) 0.3857(6)
O18_8 O 0.7094(3) 0.6272(3) 0.7285(8)
O19_8 O 0.6808(3) 0.5925(3) 0.7900(9)
O20_8 O 0.63707(17) 0.63843(18) 0.7397(6)
H33_8 H 0.6269 0.6539 0.7220
H34_8 H 0.6432 0.6306 0.6718
O21_8 O 0.7019(2) 0.6191(2) 0.9994(6)
O22_8 O 0.64555(17) 0.69097(17) 0.8902(5)
H35_8 H 0.6487 0.7003 0.9598
H36_8 H 0.6479 0.7038 0.8306
Co1_8 Co 0.66764(4) 0.79618(4) 0.37813(11)
Dy1_8 Dy 0.677554(13) 0.650989(13) 0.86680(4)
N9_8 N 0.6933(2) 0.8349(2) 0.4040(8)
N10_8 N 0.7122(2) 0.7789(2) 0.3596(7)
N11_8 N 0.6264(2) 0.8161(2) 0.3914(6)
N12_8 N 0.6614(2) 0.8142(2) 0.1980(7)
O24_8 O 0.73109(18) 0.67456(18) 0.8959(6)
C24_8 C 0.7219(3) 0.6863(3) 0.9906(9)
H13_9 H 0.0283 0.0004 0.6616
C28_9 C 0.0202(3) 0.0454(3) 0.0262(9)
C29_9 C 0.0382(3) 0.0588(3) 0.1092(9)
H17_9 H 0.0579 0.0542 0.1093
C32_9 C 0.0031(3) 0.1278(3) 0.4701(9)
H18_9 H 0.0130 0.1265 0.5438
N3_9 N 0.0279(2) 0.0788(2) 0.1924(6)
N4_9 N 0.0072(2) 0.1060(2) 0.3879(7)
H4_9 H 0.9358 0.1937 0.0192
H5_9 H 0.8872 0.2006 0.0451
C13_9 C 0.9054(3) 0.0183(3) 0.5066(10)
C22_9 C 0.9881(3) 0.0151(3) 0.7026(8)
H14_9 H 0.9940 0.0329 0.7348
C23_9 C 0.9591(3) 0.0084(3) 0.6964(9)
C24_9 C 0.9363(3) 0.0281(3) 0.7594(9)
C25_9 C 0.9469(2) 0.0707(2) 0.1372(8)
C26_9 C 0.9787(3) 0.0694(3) 0.1227(7)
C27_9 C 0.9908(3) 0.0494(3) 0.0340(9)
C30_9 C 0.9988(3) 0.0843(3) 0.1926(9)
C31_9 C 0.9920(3) 0.1088(3) 0.2805(8)
C33_9 C 0.9859(3) 0.1511(3) 0.4522(8)
H19_9 H 0.9840 0.1652 0.5123
C34_9 C 0.9711(3) 0.1538(3) 0.3438(9)
H20_9 H 0.9595 0.1701 0.3289
C35_9 C 0.9736(3) 0.1324(3) 0.2590(8)
C36_9 C 0.9566(3) 0.1347(3) 0.1422(9)
C37_9 C 0.8530(4) 0.0492(4) 0.0239(14)
C38_9 C 0.8310(4) 0.0314(5) 0.1109(13)
C39_9 C 0.8390(5) 0.0019(5) 0.1378(13)
C42_9 C 0.8067(4) 0.0417(4) 0.1610(13)
C43_9 C 0.7999(4) 0.0729(4) 0.1507(12)
C44_9 C 0.7695(4) 0.1122(4) 0.1125(12)
H24_9 H 0.7517 0.1189 0.0828
C45_9 C 0.7845(4) 0.1329(4) 0.1600(12)
H25_9 H 0.7788 0.1523 0.1640
C46_9 C 0.8095(4) 0.1221(4) 0.2031(11)
H26_9 H 0.8228 0.1355 0.2346
C47_9 C 0.8180(3) 0.0924(4) 0.2056(11)
C48_9 C 0.8452(3) 0.0847(3) 0.2694(10)
N7_9 N 0.7730(3) 0.0824(3) 0.0938(10)
N8_9 N 0.7868(3) 0.0225(4) 0.2067(11)
O5_9 O 0.88535(18) 0.03701(17) 0.5135(6)
O6_9 O 0.9283(2) 0.0214(2) 0.4520(8)
O7 O 0.92456(18) 0.01891(18) 0.8541(6)
O8 O 0.93239(18) 0.05317(16) 0.7162(6)
O9_9 O 0.96990(17) 0.13004(18) 0.0411(5)
O10_9 O 0.93030(19) 0.14140(18) 0.1503(5)
O11_9 O 0.93147(17) 0.06453(17) 0.0490(5)
O12_9 O 0.93754(17) 0.07719(18) 0.2434(6)
O13_9 O 0.90720(19) 0.12547(19) 0.3637(5)
H27_9 H 0.9172 0.1294 0.2978
H28_9 H 0.9168 0.1324 0.4261
O14_9 O 0.94162(17) 0.08433(17) 0.5120(5)
H29_9 H 0.9564 0.0905 0.4696
H30_9 H 0.9466 0.0682 0.5481
O15_9 O 0.8908(2) 0.0355(2) 0.2448(8)
H31_9 H 0.8782 0.0400 0.1673
H32_9 H 0.8794 0.0168 0.2780
O16_9 O 0.8682(2) 0.0942(2) 0.2257(6)
O17_9 O 0.8449(2) 0.0705(2) 0.3643(6)
O18_9 O 0.8772(3) 0.0406(3) 0.0215(8)
O20_9 O 0.88843(18) 0.11293(17) 0.0103(6)
H33_9 H 0.9039 0.1231 0.0280
H34_9 H 0.8806 0.1068 0.0782
Dy2 Dy 0.900096(13) 0.075460(13) 0.38400(4)
O23 O 0.87997(18) 0.09677(17) 0.5545(6)
Dy3 Dy 0.900989(13) 0.072446(13) 0.88320(4)
H1_9 H 0.8780(17) 0.045(2) 0.685(5)
H2_9 H 0.854(2) 0.059(4) 0.740(9)
C1_9 C 0.9242(3) 0.1547(3) 0.6433(8)
C2_9 C 0.9126(2) 0.1673(2) 0.7627(8)
C3_9 C 0.9332(3) 0.1760(3) 0.8504(8)
H3_9 H 0.9530 0.1738 0.8368
C4_9 C 0.9228(3) 0.1882(3) 0.9582(9)
C5_9 C 0.8936(3) 0.1920(3) 0.9735(9)
C6_9 C 0.8832(3) 0.1714(2) 0.7862(8)
C7_9 C 0.8594(3) 0.1652(2) 0.6960(9)
C8_9 C 0.8169(3) 0.1840(3) 0.6166(8)
H6_9 H 0.8026 0.1984 0.6172
C9_9 C 0.8147(3) 0.1619(3) 0.5324(9)
H7_9 H 0.8003 0.1623 0.4728
C10_9 C 0.8349(3) 0.1387(3) 0.5389(9)
H8_9 H 0.8334 0.1229 0.4867
C11_9 C 0.8573(3) 0.1401(3) 0.6254(7)
C12_9 C 0.8757(2) 0.1131(3) 0.6443(8)
H15_9 H 0.9784 0.0393 0.9820
O1_9 O 0.94228(17) 0.13436(19) 0.6522(5)
O2_9 O 0.91387(18) 0.16478(18) 0.5457(5)
O3_9 O 0.88381(17) 0.10827(16) 0.7521(5)
O19_9 O 0.8425(3) 0.0692(3) 0.9600(9)
O21_9 O 0.8691(2) 0.0481(2) 0.7506(6)
O22_9 O 0.94097(17) 0.10445(17) 0.8598(5)
H35_9 H 0.9503 0.1013 0.7902
H36_9 H 0.9538 0.1021 0.9194
C14_9 C 0.8990(3) 0.9893(3) 0.5692(10)
C15_9 C 0.8706(3) 0.9783(3) 0.5584(12)
H9_9 H 0.8556 0.9897 0.5275
C16_9 C 0.8655(3) 0.9495(3) 0.5957(10)
H10_9 H 0.8470 0.9413 0.5903
C17_9 C 0.8895(3) 0.9331(3) 0.6419(10)
H11_9 H 0.8862 0.9139 0.6647
C18_9 C 0.9205(3) 0.9721(3) 0.6229(8)
C19_9 C 0.9506(3) 0.9813(3) 0.6438(8)
C20_9 C 0.9999(3) 0.9686(3) 0.6183(9)
H21_8 H 0.8570 0.9956 0.1084
C40_8 C 0.8216(4) 0.9805(4) 0.2080(14)
H22_8 H 0.8272 0.9620 0.2328
C41_8 C 0.7946(4) 0.9942(4) 0.2289(14)
H23_8 H 0.7801 0.9824 0.2622
C13_10 C 0.2317(3) 0.6554(3) 0.2566(10)
C14_10 C 0.2607(3) 0.6490(3) 0.3192(10)
C15_10 C 0.2717(3) 0.6206(3) 0.3084(12)
H9_10 H 0.2603 0.6056 0.2775
C16_10 C 0.3005(3) 0.6155(3) 0.3457(10)
H10_10 H 0.3087 0.5970 0.3403
C17_10 C 0.3169(3) 0.6395(3) 0.3919(10)
H11_10 H 0.3361 0.6362 0.4147
C18_10 C 0.2779(3) 0.6705(3) 0.3729(8)
C19_10 C 0.2687(3) 0.7006(3) 0.3938(8)
C20_10 C 0.2814(3) 0.7499(3) 0.3683(9)
H12_8 H 0.2951 0.7637 0.3455
C21_8 C 0.2545(3) 0.7586(3) 0.4110(9)
H13_10 H 0.2496 0.7783 0.4116
C22_10 C 0.2349(3) 0.7381(3) 0.4526(8)
H14_10 H 0.2171 0.7440 0.4848
C23_10 C 0.2416(3) 0.7091(3) 0.4464(9)
C24_10 C 0.2219(3) 0.6863(3) 0.5094(9)
C31_10 C 0.1412(3) 0.7420(3) 0.0305(8)
C32_10 C 0.1222(3) 0.7531(3) 0.2201(9)
H18_10 H 0.1235 0.7630 0.2938
C33_10 C 0.0989(3) 0.7359(3) 0.2022(8)
H19_10 H 0.0848 0.7340 0.2623
C34_10 C 0.0962(3) 0.7211(3) 0.0938(9)
H20_10 H 0.0799 0.7095 0.0789
C35_10 C 0.1176(3) 0.7236(3) 0.0090(8)
H23_9 H 0.2676 0.5301 0.0122
C48_10 C 0.1653(3) 0.5952(3) 0.0194(10)
N4_10 N 0.1440(2) 0.7572(2) 0.1379(7)
O5_10 O 0.21299(17) 0.63535(18) 0.2635(6)
O6_10 O 0.2286(2) 0.6783(2) 0.2020(8)
O7_2 O 0.23109(18) 0.67456(18) 0.6041(6)
O8_2 O 0.19683(16) 0.68239(18) 0.4662(6)
O13_10 O 0.12453(19) 0.65720(19) 0.1137(5)
H27_10 H 0.1206 0.6672 0.0478
H28_10 H 0.1176 0.6668 0.1761
O14_10 O 0.16567(17) 0.69162(17) 0.2620(5)
H29_10 H 0.1595 0.7064 0.2196
H30_10 H 0.1818 0.6966 0.2981
H32_10 H 0.2332 0.6294 0.0280
O17_10 O 0.1795(2) 0.5949(2) 0.1143(6)
Dy2_2 Dy 0.174540(13) 0.650096(13) 0.13400(4)
O23_2 O 0.15323(17) 0.62997(18) 0.3045(6)
Dy3_2 Dy 0.177554(13) 0.650989(13) 0.63320(4)
H1_10 H 0.205(2) 0.6280(17) 0.435(5)
H2_10 H 0.191(4) 0.604(2) 0.490(9)
C1_10 C 0.0953(3) 0.6742(3) 0.3933(8)
C2_10 C 0.0827(2) 0.6626(2) 0.5127(8)
C3_10 C 0.0740(3) 0.6832(3) 0.6004(8)
H3_10 H 0.0762 0.7030 0.5868
C4_10 C 0.0618(3) 0.6728(3) 0.7082(9)
H4_10 H 0.0563 0.6858 0.7692
C5_10 C 0.0580(3) 0.6436(3) 0.7235(9)
H5_10 H 0.0494 0.6372 0.7951
C6_10 C 0.0786(2) 0.6332(3) 0.5362(8)
C7_10 C 0.0848(2) 0.6094(3) 0.4460(9)
C8_10 C 0.0660(3) 0.5669(3) 0.3666(8)
H6_10 H 0.0516 0.5526 0.3672
C9_10 C 0.0881(3) 0.5647(3) 0.2824(9)
H7_10 H 0.0877 0.5503 0.2228
C10_10 C 0.1113(3) 0.5849(3) 0.2889(9)
H8_10 H 0.1271 0.5834 0.2367
C11_10 C 0.1099(3) 0.6073(3) 0.3754(7)
C12_10 C 0.1369(3) 0.6257(2) 0.3943(8)
C25_10 C 0.1793(2) 0.6969(2) 0.8872(8)
C26_10 C 0.1806(3) 0.7287(3) 0.8727(7)
C27_10 C 0.2006(3) 0.7408(3) 0.7840(9)
H15_10 H 0.2107 0.7284 0.7320
C28_10 C 0.2046(3) 0.7702(3) 0.7762(9)
H16_7 H 0.2163 0.7780 0.7152
C29_10 C 0.1912(3) 0.7882(3) 0.8592(9)
H17_10 H 0.1958 0.8079 0.8593
C30_10 C 0.1657(3) 0.7488(3) 0.9426(9)
C36_10 C 0.1153(3) 0.7066(3) 0.8922(9)
C37_10 C 0.2008(4) 0.6030(4) 0.7739(14)
C38_10 C 0.2186(5) 0.5810(4) 0.8609(13)
C39_10 C 0.2481(5) 0.5890(5) 0.8878(13)
H21_9 H 0.2544 0.6070 0.8584
C40_9 C 0.2695(4) 0.5716(4) 0.9580(14)
H22_9 H 0.2880 0.5772 0.9828
C41_9 C 0.2558(4) 0.5446(4) 0.9789(14)
C42_10 C 0.2083(4) 0.5567(4) 0.9110(13)
C43_10 C 0.1771(4) 0.5499(4) 0.9007(12)
C44_10 C 0.1378(4) 0.5195(4) 0.8625(12)
H24_10 H 0.1311 0.5017 0.8328
C45_10 C 0.1171(4) 0.5345(4) 0.9100(12)
H25_10 H 0.0977 0.5288 0.9140
C46_10 C 0.1279(4) 0.5595(4) 0.9531(11)
H26_10 H 0.1145 0.5728 0.9846
C47_10 C 0.1576(4) 0.5680(3) 0.9556(11)
N3_10 N 0.1712(2) 0.7779(2) 0.9424(6)
N7_10 N 0.1676(3) 0.5230(3) 0.8438(10)
N8_10 N 0.2275(4) 0.5368(3) 0.9567(11)
O1_10 O 0.11564(19) 0.69228(17) 0.4022(5)
O2_10 O 0.08522(18) 0.66387(18) 0.2957(5)
O3_10 O 0.14173(16) 0.63381(17) 0.5021(5)
O9_10 O 0.11996(18) 0.71990(17) 0.7911(5)
O10_10 O 0.10860(18) 0.68030(19) 0.9003(5)
O11_10 O 0.18547(17) 0.68147(17) 0.7990(5)
O12_10 O 0.17281(18) 0.68754(17) 0.9934(6)
O15_10 O 0.2145(2) 0.6408(2) 0.9948(8)
H31_10 H 0.2100 0.6282 0.9173
O16_10 O 0.1558(2) 0.6182(2) 0.9757(6)
O18_10 O 0.2094(3) 0.6272(3) 0.7715(8)
O19_10 O 0.1808(3) 0.5925(3) 0.7100(9)
O20_10 O 0.13707(17) 0.63843(18) 0.7603(6)
H33_10 H 0.1269 0.6539 0.7780
H34_10 H 0.1432 0.6306 0.8282
O21_10 O 0.2019(2) 0.6191(2) 0.5006(6)
O22_10 O 0.14555(17) 0.69097(17) 0.6098(5)
H35_10 H 0.1487 0.7003 0.5402
H36_10 H 0.1479 0.7038 0.6694
H4_11 H 0.0642 0.3063 0.0192
H5_11 H 0.1128 0.2994 0.0451
C13_11 C 0.0946(3) 0.4817(3) 0.5066(10)
C14_11 C 0.1010(3) 0.5107(3) 0.5692(10)
C15_11 C 0.1294(3) 0.5217(3) 0.5584(12)
H9_11 H 0.1444 0.5103 0.5275
C16_11 C 0.1345(3) 0.5505(3) 0.5957(10)
H10_11 H 0.1530 0.5587 0.5903
C17_11 C 0.1105(3) 0.5669(3) 0.6419(10)
H11_11 H 0.1138 0.5861 0.6647
C18_11 C 0.0795(3) 0.5279(3) 0.6229(8)
C19_11 C 0.0494(3) 0.5187(3) 0.6438(8)
C20_11 C 0.0001(3) 0.5314(3) 0.6183(9)
C22_11 C 0.0119(3) 0.4849(3) 0.7026(8)
H14_11 H 0.0060 0.4671 0.7348
C23_11 C 0.0409(3) 0.4916(3) 0.6964(9)
C24_11 C 0.0637(3) 0.4719(3) 0.7594(9)
C25_11 C 0.0531(2) 0.4293(2) 0.1372(8)
C26_11 C 0.0213(3) 0.4306(3) 0.1227(7)
C27_11 C 0.0092(3) 0.4506(3) 0.0340(9)
C30_11 C 0.0012(3) 0.4157(3) 0.1926(9)
C31_11 C 0.0080(3) 0.3912(3) 0.2805(8)
C33_11 C 0.0141(3) 0.3489(3) 0.4522(8)
H19_11 H 0.0160 0.3348 0.5123
C34_11 C 0.0289(3) 0.3462(3) 0.3438(9)
H20_11 H 0.0405 0.3299 0.3289
C35_11 C 0.0264(3) 0.3676(3) 0.2590(8)
C36_11 C 0.0434(3) 0.3653(3) 0.1422(9)
C37_11 C 0.1470(4) 0.4508(4) 0.0239(14)
C38_11 C 0.1690(4) 0.4686(5) 0.1109(13)
C39_11 C 0.1610(5) 0.4981(5) 0.1378(13)
H21_10 H 0.1430 0.5044 0.1084
C40_10 C 0.1784(4) 0.5195(4) 0.2080(14)
H22_10 H 0.1728 0.5380 0.2328
C41_10 C 0.2054(4) 0.5058(4) 0.2289(14)
H23_10 H 0.2199 0.5176 0.2622
C42_11 C 0.1933(4) 0.4583(4) 0.1610(13)
C43_11 C 0.2001(4) 0.4271(4) 0.1507(12)
C44_11 C 0.2305(4) 0.3878(4) 0.1125(12)
H24_11 H 0.2483 0.3811 0.0828
C45_11 C 0.2155(4) 0.3671(4) 0.1600(12)
H25_11 H 0.2212 0.3477 0.1640
C46_11 C 0.1905(4) 0.3779(4) 0.2031(11)
H26_11 H 0.1772 0.3645 0.2346
C47_11 C 0.1820(3) 0.4076(4) 0.2056(11)
C48_11 C 0.1548(3) 0.4153(3) 0.2694(10)
N7_11 N 0.2270(3) 0.4176(3) 0.0938(10)
N8_11 N 0.2132(3) 0.4775(4) 0.2067(11)
O5_11 O 0.11465(18) 0.46299(17) 0.5135(6)
O6_11 O 0.0717(2) 0.4786(2) 0.4520(8)
O7_3 O 0.07544(18) 0.48109(18) 0.8541(6)
O8_3 O 0.06761(18) 0.44683(16) 0.7162(6)
O9_11 O 0.03010(17) 0.36996(18) 0.0411(5)
O10_11 O 0.06970(19) 0.35860(18) 0.1503(5)
O11_11 O 0.06853(17) 0.43547(17) 0.0490(5)
O12_11 O 0.06246(17) 0.42281(18) 0.2434(6)
O13_11 O 0.09280(19) 0.37453(19) 0.3637(5)
H27_11 H 0.0828 0.3706 0.2978
H28_11 H 0.0832 0.3676 0.4261
O14_11 O 0.05838(17) 0.41567(17) 0.5120(5)
H29_11 H 0.0436 0.4095 0.4696
H30_11 H 0.0534 0.4318 0.5481
O15_11 O 0.1092(2) 0.4645(2) 0.2448(8)
H31_11 H 0.1218 0.4600 0.1673
H32_11 H 0.1206 0.4832 0.2780
O16_11 O 0.1318(2) 0.4058(2) 0.2257(6)
O17_11 O 0.1551(2) 0.4295(2) 0.3643(6)
O18_11 O 0.1228(3) 0.4594(3) 0.0215(8)
O20_11 O 0.11157(18) 0.38707(17) 0.0103(6)
H33_11 H 0.0961 0.3769 0.0280
H34_11 H 0.1194 0.3932 0.0782
Dy2_3 Dy 0.099904(13) 0.424540(13) 0.38400(4)
O23_3 O 0.12003(18) 0.40323(17) 0.5545(6)
Dy3_3 Dy 0.099011(13) 0.427554(13) 0.88320(4)
H1_11 H 0.1220(17) 0.455(2) 0.685(5)
H2_11 H 0.146(2) 0.441(4) 0.740(9)
C1_11 C 0.0758(3) 0.3453(3) 0.6433(8)
C2_11 C 0.0874(2) 0.3327(2) 0.7627(8)
C3_11 C 0.0668(3) 0.3240(3) 0.8504(8)
H3_11 H 0.0470 0.3262 0.8368
C4_11 C 0.0772(3) 0.3118(3) 0.9582(9)
C5_11 C 0.1064(3) 0.3080(3) 0.9735(9)
C6_11 C 0.1168(3) 0.3286(2) 0.7862(8)
C7_11 C 0.1406(3) 0.3348(2) 0.6960(9)
C8_11 C 0.1831(3) 0.3160(3) 0.6166(8)
H6_11 H 0.1974 0.3016 0.6172
C9_11 C 0.1853(3) 0.3381(3) 0.5324(9)
H7_11 H 0.1997 0.3377 0.4728
C10_11 C 0.1651(3) 0.3613(3) 0.5389(9)
H8_11 H 0.1666 0.3771 0.4867
C11_11 C 0.1427(3) 0.3599(3) 0.6254(7)
C12_11 C 0.1243(2) 0.3869(3) 0.6443(8)
H15_11 H 0.0216 0.4607 0.9820
O1_11 O 0.05772(17) 0.36564(19) 0.6522(5)
O2_11 O 0.08613(18) 0.33522(18) 0.5457(5)
O3_11 O 0.11619(17) 0.39173(16) 0.7521(5)
O19_11 O 0.1575(3) 0.4308(3) 0.9600(9)
O21_11 O 0.1309(2) 0.4519(2) 0.7506(6)
O22_11 O 0.05903(17) 0.39555(17) 0.8598(5)
H35_11 H 0.0497 0.3987 0.7902
H36_11 H 0.0462 0.3979 0.9194
H12_9 H 0.9863 0.5451 0.5955
C21_9 C 0.9914(3) 0.5045(3) 0.6610(9)
H13_11 H 0.9717 0.4996 0.6616
C28_11 C 0.9798(3) 0.4546(3) 0.0262(9)
C29_11 C 0.9618(3) 0.4412(3) 0.1092(9)
H17_11 H 0.9421 0.4458 0.1093
C32_11 C 0.9969(3) 0.3722(3) 0.4701(9)
H18_11 H 0.9870 0.3735 0.5438
N3_11 N 0.9721(2) 0.4212(2) 0.1924(6)
N4_11 N 0.9928(2) 0.3940(2) 0.3879(7)
C13_12 C 0.7683(3) 0.8446(3) 0.2566(10)
C14_12 C 0.7393(3) 0.8510(3) 0.3192(10)
C15_12 C 0.7283(3) 0.8794(3) 0.3084(12)
H9_12 H 0.7397 0.8944 0.2775
C16_12 C 0.6995(3) 0.8845(3) 0.3457(10)
H10_12 H 0.6913 0.9030 0.3403
C17_12 C 0.6831(3) 0.8605(3) 0.3919(10)
H11_12 H 0.6639 0.8638 0.4147
C18_12 C 0.7221(3) 0.8295(3) 0.3729(8)
C19_12 C 0.7313(3) 0.7994(3) 0.3938(8)
C20_12 C 0.7186(3) 0.7501(3) 0.3683(9)
H12_10 H 0.7049 0.7363 0.3455
C21_10 C 0.7455(3) 0.7414(3) 0.4110(9)
H13_12 H 0.7504 0.7217 0.4116
C22_12 C 0.7651(3) 0.7619(3) 0.4526(8)
H14_12 H 0.7829 0.7560 0.4848
C23_12 C 0.7584(3) 0.7909(3) 0.4464(9)
C24_12 C 0.7781(3) 0.8137(3) 0.5094(9)
C31_12 C 0.8588(3) 0.7580(3) 0.0305(8)
C32_12 C 0.8778(3) 0.7469(3) 0.2201(9)
H18_12 H 0.8765 0.7370 0.2938
C33_12 C 0.9011(3) 0.7641(3) 0.2022(8)
H19_12 H 0.9152 0.7660 0.2623
C34_12 C 0.9038(3) 0.7789(3) 0.0938(9)
H20_12 H 0.9201 0.7905 0.0789
C35_12 C 0.8824(3) 0.7764(3) 0.0090(8)
H23_11 H 0.7324 0.9699 0.0122
C48_12 C 0.8347(3) 0.9048(3) 0.0194(10)
N4_12 N 0.8560(2) 0.7428(2) 0.1379(7)
O5_12 O 0.78701(17) 0.86465(18) 0.2635(6)
O6_12 O 0.7714(2) 0.8217(2) 0.2020(8)
O7_4 O 0.76891(18) 0.82544(18) 0.6041(6)
O8_4 O 0.80317(16) 0.81761(18) 0.4662(6)
O13_12 O 0.87547(19) 0.84280(19) 0.1137(5)
H27_12 H 0.8794 0.8328 0.0478
H28_12 H 0.8824 0.8332 0.1761
O14_12 O 0.83433(17) 0.80838(17) 0.2620(5)
H29_12 H 0.8405 0.7936 0.2196
H30_12 H 0.8182 0.8034 0.2981
H32_12 H 0.7668 0.8706 0.0280
O17_12 O 0.8205(2) 0.9051(2) 0.1143(6)
Dy2_4 Dy 0.825460(13) 0.849904(13) 0.13400(4)
O23_4 O 0.84677(17) 0.87003(18) 0.3045(6)
Dy3_4 Dy 0.822446(13) 0.849011(13) 0.63320(4)
H1_12 H 0.795(2) 0.8720(17) 0.435(5)
H2_12 H 0.809(4) 0.896(2) 0.490(9)
C1_12 C 0.9047(3) 0.8258(3) 0.3933(8)
C2_12 C 0.9173(2) 0.8374(2) 0.5127(8)
C3_12 C 0.9260(3) 0.8168(3) 0.6004(8)
H3_12 H 0.9238 0.7970 0.5868
C4_12 C 0.9382(3) 0.8272(3) 0.7082(9)
H4_12 H 0.9437 0.8142 0.7692
C5_12 C 0.9420(3) 0.8564(3) 0.7235(9)
H5_12 H 0.9506 0.8628 0.7951
C6_12 C 0.9214(2) 0.8668(3) 0.5362(8)
C7_12 C 0.9152(2) 0.8906(3) 0.4460(9)
C8_12 C 0.9340(3) 0.9331(3) 0.3666(8)
H6_12 H 0.9484 0.9474 0.3672
C9_12 C 0.9119(3) 0.9353(3) 0.2824(9)
H7_12 H 0.9123 0.9497 0.2228
C10_12 C 0.8887(3) 0.9151(3) 0.2889(9)
H8_12 H 0.8729 0.9166 0.2367
C11_12 C 0.8901(3) 0.8927(3) 0.3754(7)
C12_12 C 0.8631(3) 0.8743(2) 0.3943(8)
C25_12 C 0.8207(2) 0.8031(2) 0.8872(8)
C26_12 C 0.8194(3) 0.7713(3) 0.8727(7)
C27_12 C 0.7994(3) 0.7592(3) 0.7840(9)
H15_12 H 0.7893 0.7716 0.7320
C28_12 C 0.7954(3) 0.7298(3) 0.7762(9)
H16_8 H 0.7837 0.7220 0.7152
C29_12 C 0.8088(3) 0.7118(3) 0.8592(9)
H17_12 H 0.8042 0.6921 0.8593
C30_12 C 0.8343(3) 0.7512(3) 0.9426(9)
C36_12 C 0.8847(3) 0.7934(3) 0.8922(9)
C37_12 C 0.7992(4) 0.8970(4) 0.7739(14)
C38_12 C 0.7814(5) 0.9190(4) 0.8609(13)
C39_12 C 0.7519(5) 0.9110(5) 0.8878(13)
H21_11 H 0.7456 0.8930 0.8584
C40_11 C 0.7305(4) 0.9284(4) 0.9580(14)
H22_11 H 0.7120 0.9228 0.9828
C41_11 C 0.7442(4) 0.9554(4) 0.9789(14)
C42_12 C 0.7917(4) 0.9433(4) 0.9110(13)
C43_12 C 0.8229(4) 0.9501(4) 0.9007(12)
C44_12 C 0.8622(4) 0.9805(4) 0.8625(12)
H24_12 H 0.8689 0.9983 0.8328
C45_12 C 0.8829(4) 0.9655(4) 0.9100(12)
H25_12 H 0.9023 0.9712 0.9140
C46_12 C 0.8721(4) 0.9405(4) 0.9531(11)
H26_12 H 0.8855 0.9272 0.9846
C47_12 C 0.8424(4) 0.9320(3) 0.9556(11)
N3_12 N 0.8288(2) 0.7221(2) 0.9424(6)
N7_12 N 0.8324(3) 0.9770(3) 0.8438(10)
N8_12 N 0.7725(4) 0.9632(3) 0.9567(11)
O1_12 O 0.88436(19) 0.80772(17) 0.4022(5)
O2_12 O 0.91478(18) 0.83613(18) 0.2957(5)
O3_12 O 0.85827(16) 0.86619(17) 0.5021(5)
O9_12 O 0.88004(18) 0.78010(17) 0.7911(5)
O10_12 O 0.89140(18) 0.81970(19) 0.9003(5)
O11_12 O 0.81453(17) 0.81853(17) 0.7990(5)
O12_12 O 0.82719(18) 0.81246(17) 0.9934(6)
O15_12 O 0.7855(2) 0.8592(2) 0.9948(8)
H31_12 H 0.7900 0.8718 0.9173
O16_12 O 0.8442(2) 0.8818(2) 0.9757(6)
O18_12 O 0.7906(3) 0.8728(3) 0.7715(8)
O19_12 O 0.8192(3) 0.9075(3) 0.7100(9)
O20_12 O 0.86293(17) 0.86157(18) 0.7603(6)
H33_12 H 0.8731 0.8461 0.7780
H34_12 H 0.8568 0.8694 0.8282
O21_12 O 0.7981(2) 0.8809(2) 0.5006(6)
O22_12 O 0.85445(17) 0.80903(17) 0.6098(5)
H35_12 H 0.8513 0.7997 0.5402
H36_12 H 0.8521 0.7962 0.6694
C13_13 C 0.4054(3) 0.5183(3) 0.0066(10)
C14_13 C 0.3990(3) 0.4893(3) 0.0692(10)
C15_13 C 0.3706(3) 0.4783(3) 0.0584(12)
H9_13 H 0.3556 0.4897 0.0275
C16_13 C 0.3655(3) 0.4495(3) 0.0957(10)
H10_13 H 0.3470 0.4413 0.0903
C17_13 C 0.3895(3) 0.4331(3) 0.1419(10)
H11_13 H 0.3862 0.4139 0.1647
C18_13 C 0.4205(3) 0.4721(3) 0.1229(8)
C19_13 C 0.4506(3) 0.4813(3) 0.1438(8)
C20_13 C 0.4999(3) 0.4686(3) 0.1183(9)
H12_11 H 0.5137 0.4549 0.0955
C21_11 C 0.5086(3) 0.4955(3) 0.1610(9)
H13_13 H 0.5283 0.5004 0.1616
C22_13 C 0.4881(3) 0.5151(3) 0.2026(8)
H14_13 H 0.4940 0.5329 0.2348
C23_13 C 0.4591(3) 0.5084(3) 0.1964(9)
C24_13 C 0.4363(3) 0.5281(3) 0.2594(9)
H18_13 H 0.5130 0.6265 0.0438
H19_13 H 0.4840 0.6652 0.0123
O5_13 O 0.38535(18) 0.53701(17) 0.0135(6)
O7_5 O 0.42456(18) 0.51891(18) 0.3541(6)
O8_5 O 0.43239(18) 0.55317(16) 0.2162(6)
O14_13 O 0.44162(17) 0.58433(17) 0.0120(5)
H30_13 H 0.4466 0.5682 0.0481
O23_5 O 0.37997(18) 0.59677(17) 0.0545(6)
Dy3_5 Dy 0.400989(13) 0.572446(13) 0.38320(4)
H1_13 H 0.3780(17) 0.545(2) 0.185(5)
H2_13 H 0.354(2) 0.559(4) 0.240(9)
C1_13 C 0.4242(3) 0.6547(3) 0.1433(8)
C2_13 C 0.4126(2) 0.6673(2) 0.2627(8)
C3_13 C 0.4332(3) 0.6760(3) 0.3504(8)
H3_13 H 0.4530 0.6738 0.3368
C4_13 C 0.4228(3) 0.6882(3) 0.4582(9)
H4_13 H 0.4358 0.6937 0.5192
C5_13 C 0.3936(3) 0.6920(3) 0.4735(9)
H5_13 H 0.3872 0.7006 0.5451
C6_13 C 0.3832(3) 0.6714(2) 0.2862(8)
C7_13 C 0.3594(3) 0.6652(2) 0.1960(9)
C8_13 C 0.3169(3) 0.6840(3) 0.1166(8)
H6_13 H 0.3026 0.6984 0.1172
C9_13 C 0.3147(3) 0.6619(3) 0.0324(9)
C10_13 C 0.3349(3) 0.6387(3) 0.0389(9)
C11_13 C 0.3573(3) 0.6401(3) 0.1254(7)
C12_13 C 0.3757(2) 0.6131(3) 0.1443(8)
C25_13 C 0.4469(2) 0.5707(2) 0.6372(8)
C26_13 C 0.4787(3) 0.5694(3) 0.6227(7)
C27_13 C 0.4908(3) 0.5494(3) 0.5340(9)
H15_13 H 0.4784 0.5393 0.4820
C28_13 C 0.5202(3) 0.5454(3) 0.5262(9)
H16_9 H 0.5280 0.5337 0.4652
C29_13 C 0.5382(3) 0.5588(3) 0.6092(9)
H17_13 H 0.5579 0.5542 0.6093
C30_13 C 0.4988(3) 0.5843(3) 0.6926(9)
C31_13 C 0.4920(3) 0.6088(3) 0.7805(8)
C32_13 C 0.5031(3) 0.6278(3) 0.9701(9)
C33_13 C 0.4859(3) 0.6511(3) 0.9522(8)
C34_13 C 0.4711(3) 0.6538(3) 0.8438(9)
H20_13 H 0.4595 0.6701 0.8289
C35_13 C 0.4736(3) 0.6324(3) 0.7590(8)
C36_13 C 0.4566(3) 0.6347(3) 0.6422(9)
C37_13 C 0.3530(4) 0.5492(4) 0.5239(14)
C38_13 C 0.3310(4) 0.5314(5) 0.6109(13)
C39_13 C 0.3390(5) 0.5019(5) 0.6378(13)
H21_12 H 0.3570 0.4956 0.6084
C40_12 C 0.3216(4) 0.4805(4) 0.7080(14)
H22_12 H 0.3272 0.4620 0.7328
C41_12 C 0.2946(4) 0.4942(4) 0.7289(14)
H23_12 H 0.2801 0.4824 0.7622
C42_13 C 0.3067(4) 0.5417(4) 0.6610(13)
C43_13 C 0.2999(4) 0.5729(4) 0.6507(12)
C44_13 C 0.2695(4) 0.6122(4) 0.6125(12)
H24_13 H 0.2517 0.6189 0.5828
C45_13 C 0.2845(4) 0.6329(4) 0.6600(12)
H25_13 H 0.2788 0.6523 0.6640
C46_13 C 0.3095(4) 0.6221(4) 0.7031(11)
H26_13 H 0.3228 0.6355 0.7346
C47_13 C 0.3180(3) 0.5924(4) 0.7056(11)
C48_13 C 0.3452(3) 0.5847(3) 0.7694(10)
N3_13 N 0.5279(2) 0.5788(2) 0.6924(6)
N4_13 N 0.5072(2) 0.6060(2) 0.8879(7)
N7_13 N 0.2730(3) 0.5824(3) 0.5938(10)
N8_13 N 0.2868(3) 0.5225(4) 0.7067(11)
O1_13 O 0.44228(17) 0.63436(19) 0.1522(5)
O2_13 O 0.41387(18) 0.66478(18) 0.0457(5)
O3_13 O 0.38381(17) 0.60827(16) 0.2521(5)
O6_13 O 0.4283(2) 0.5214(2) 0.9520(8)
O9_13 O 0.46990(17) 0.63004(18) 0.5411(5)
O10_13 O 0.43030(19) 0.64140(18) 0.6503(5)
O11_13 O 0.43147(17) 0.56453(17) 0.5490(5)
O12_13 O 0.43754(17) 0.57719(18) 0.7434(6)
O13_13 O 0.40720(19) 0.62547(19) 0.8637(5)
H27_13 H 0.4172 0.6294 0.7978
H28_13 H 0.4168 0.6324 0.9261
H29_13 H 0.4564 0.5905 0.9696
O15_13 O 0.3908(2) 0.5355(2) 0.7448(8)
H31_13 H 0.3782 0.5400 0.6673
H32_13 H 0.3794 0.5168 0.7780
O16_13 O 0.3682(2) 0.5942(2) 0.7257(6)
O17_13 O 0.3449(2) 0.5705(2) 0.8643(6)
O18_13 O 0.3772(3) 0.5406(3) 0.5215(8)
O19_13 O 0.3425(3) 0.5692(3) 0.4600(9)
O20_13 O 0.38843(18) 0.61293(17) 0.5103(6)
H33_13 H 0.4039 0.6231 0.5280
H34_13 H 0.3806 0.6068 0.5782
O21_13 O 0.3691(2) 0.5481(2) 0.2506(6)
O22_13 O 0.44097(17) 0.60445(17) 0.3598(5)
H35_13 H 0.4503 0.6013 0.2902
H36_13 H 0.4538 0.6021 0.4194
Dy2_5 Dy 0.400096(13) 0.575460(13) 0.88400(4)
H7_13 H 0.3003 0.6623 0.9728
H8_13 H 0.3334 0.6229 0.9867
C24_14 C 0.7219(3) 0.1863(3) 0.0094(9)
O7_6 O 0.73109(18) 0.17456(18) 0.1041(6)
Dy3_6 Dy 0.677554(13) 0.150989(13) 0.13320(4)
C2_14 C 0.5827(2) 0.1626(2) 0.0127(8)
C3_14 C 0.5740(3) 0.1832(3) 0.1004(8)
H3_14 H 0.5762 0.2030 0.0868
C4_14 C 0.5618(3) 0.1728(3) 0.2082(9)
H4_14 H 0.5563 0.1858 0.2692
C5_14 C 0.5580(3) 0.1436(3) 0.2235(9)
H5_14 H 0.5494 0.1372 0.2951
C6_14 C 0.5786(2) 0.1332(3) 0.0362(8)
C13_14 C 0.7317(3) 0.1554(3) 0.7566(10)
C14_14 C 0.7607(3) 0.1490(3) 0.8192(10)
C15_14 C 0.7717(3) 0.1206(3) 0.8084(12)
H9_14 H 0.7603 0.1056 0.7775
C16_14 C 0.8005(3) 0.1155(3) 0.8457(10)
H10_14 H 0.8087 0.0970 0.8403
C17_14 C 0.8169(3) 0.1395(3) 0.8919(10)
H11_14 H 0.8361 0.1362 0.9147
C18_14 C 0.7779(3) 0.1705(3) 0.8729(8)
C19_14 C 0.7687(3) 0.2006(3) 0.8938(8)
C20_14 C 0.7814(3) 0.2499(3) 0.8683(9)
H12_12 H 0.7951 0.2637 0.8455
C21_12 C 0.7545(3) 0.2586(3) 0.9110(9)
H13_14 H 0.7496 0.2783 0.9116
C22_14 C 0.7349(3) 0.2381(3) 0.9526(8)
H14_14 H 0.7171 0.2440 0.9848
C23_14 C 0.7416(3) 0.2091(3) 0.9464(9)
C25_14 C 0.6793(2) 0.1969(2) 0.3872(8)
C26_14 C 0.6806(3) 0.2287(3) 0.3727(7)
C27_14 C 0.7006(3) 0.2408(3) 0.2840(9)
H15_14 H 0.7107 0.2284 0.2320
C28_14 C 0.7046(3) 0.2702(3) 0.2762(9)
H16_10 H 0.7163 0.2780 0.2152
C29_14 C 0.6912(3) 0.2882(3) 0.3592(9)
H17_14 H 0.6958 0.3079 0.3593
C30_14 C 0.6657(3) 0.2488(3) 0.4426(9)
C31_14 C 0.6412(3) 0.2420(3) 0.5305(8)
C32_14 C 0.6222(3) 0.2531(3) 0.7201(9)
H18_14 H 0.6235 0.2630 0.7938
C33_14 C 0.5989(3) 0.2359(3) 0.7022(8)
H19_14 H 0.5848 0.2340 0.7623
C34_14 C 0.5962(3) 0.2211(3) 0.5938(9)
H20_14 H 0.5799 0.2095 0.5789
C35_14 C 0.6176(3) 0.2236(3) 0.5090(8)
C36_14 C 0.6153(3) 0.2066(3) 0.3922(9)
C37_14 C 0.7008(4) 0.1030(4) 0.2739(14)
C38_14 C 0.7186(5) 0.0810(4) 0.3609(13)
C39_14 C 0.7481(5) 0.0890(5) 0.3878(13)
H21_13 H 0.7544 0.1070 0.3584
C40_13 C 0.7695(4) 0.0716(4) 0.4580(14)
H22_13 H 0.7880 0.0772 0.4828
C41_13 C 0.7558(4) 0.0446(4) 0.4789(14)
H23_13 H 0.7676 0.0301 0.5122
C42_14 C 0.7083(4) 0.0567(4) 0.4110(13)
C43_14 C 0.6771(4) 0.0499(4) 0.4007(12)
C44_14 C 0.6378(4) 0.0195(4) 0.3625(12)
H24_14 H 0.6311 0.0017 0.3328
C45_14 C 0.6171(4) 0.0345(4) 0.4100(12)
H25_14 H 0.5977 0.0288 0.4140
C46_14 C 0.6279(4) 0.0595(4) 0.4531(11)
H26_14 H 0.6145 0.0728 0.4846
C47_14 C 0.6576(4) 0.0680(3) 0.4556(11)
C48_14 C 0.6653(3) 0.0952(3) 0.5194(10)
N3_14 N 0.6712(2) 0.2779(2) 0.4424(6)
N4_14 N 0.6440(2) 0.2572(2) 0.6379(7)
N7_14 N 0.6676(3) 0.0230(3) 0.3438(10)
N8_14 N 0.7275(4) 0.0368(3) 0.4567(11)
O3_14 O 0.64173(16) 0.13381(17) 0.0021(5)
O5_14 O 0.71299(17) 0.13535(18) 0.7635(6)
O6_14 O 0.7286(2) 0.1783(2) 0.7020(8)
O8_6 O 0.69683(16) 0.18239(18) 0.9662(6)
O9_14 O 0.61996(18) 0.21990(17) 0.2911(5)
O10_14 O 0.60860(18) 0.18030(19) 0.4003(5)
O11_14 O 0.68547(17) 0.18147(17) 0.2990(5)
O12_14 O 0.67281(18) 0.18754(17) 0.4934(6)
O13_14 O 0.62453(19) 0.15720(19) 0.6137(5)
H27_14 H 0.6206 0.1672 0.5478
H28_14 H 0.6176 0.1668 0.6761
O14_14 O 0.66567(17) 0.19162(17) 0.7620(5)
H29_14 H 0.6595 0.2064 0.7196
H30_14 H 0.6818 0.1966 0.7981
O15_14 O 0.7145(2) 0.1408(2) 0.4948(8)
H31_14 H 0.7100 0.1282 0.4173
H32_14 H 0.7332 0.1294 0.5280
O16_14 O 0.6558(2) 0.1182(2) 0.4757(6)
O17_14 O 0.6795(2) 0.0949(2) 0.6143(6)
O18_14 O 0.7094(3) 0.1272(3) 0.2715(8)
O19_14 O 0.6808(3) 0.0925(3) 0.2100(9)
O20_14 O 0.63707(17) 0.13843(18) 0.2603(6)
H33_14 H 0.6269 0.1539 0.2780
H34_14 H 0.6432 0.1306 0.3282
O21_14 O 0.7019(2) 0.1191(2) 0.0006(6)
O22_14 O 0.64555(17) 0.19097(17) 0.1098(5)
H35_14 H 0.6487 0.2003 0.0402
H36_14 H 0.6479 0.2038 0.1694
Dy2_6 Dy 0.674540(13) 0.150096(13) 0.63400(4)
O23_6 O 0.65323(17) 0.12997(18) 0.8045(6)
H1_14 H 0.705(2) 0.1280(17) 0.935(5)
H2_14 H 0.691(4) 0.104(2) 0.990(9)
C1_14 C 0.5953(3) 0.1742(3) 0.8933(8)
C7_14 C 0.5848(2) 0.1094(3) 0.9460(9)
C8_14 C 0.5660(3) 0.0669(3) 0.8666(8)
H6_14 H 0.5516 0.0526 0.8672
C9_14 C 0.5881(3) 0.0647(3) 0.7824(9)
H7_14 H 0.5877 0.0503 0.7228
C10_14 C 0.6113(3) 0.0849(3) 0.7889(9)
H8_14 H 0.6271 0.0834 0.7367
C11_14 C 0.6099(3) 0.1073(3) 0.8754(7)
C12_14 C 0.6369(3) 0.1257(2) 0.8943(8)
O1_14 O 0.61564(19) 0.19228(17) 0.9022(5)
O2_14 O 0.58522(18) 0.16387(18) 0.7957(5)
C14_15 C 0.6010(3) 0.0107(3) 0.0692(10)
C15_15 C 0.6294(3) 0.0217(3) 0.0584(12)
H9_15 H 0.6444 0.0103 0.0275
C16_15 C 0.6345(3) 0.0505(3) 0.0957(10)
H10_15 H 0.6530 0.0587 0.0903
C17_15 C 0.6105(3) 0.0669(3) 0.1419(10)
H11_15 H 0.6138 0.0861 0.1647
C18_15 C 0.5795(3) 0.0279(3) 0.1229(8)
C19_15 C 0.5494(3) 0.0187(3) 0.1438(8)
C20_15 C 0.5001(3) 0.0314(3) 0.1183(9)
H12_13 H 0.4863 0.0451 0.0955
C21_13 C 0.4914(3) 0.0045(3) 0.1610(9)
C13_15 C 0.5946(3) 0.9817(3) 0.0066(10)
H13_15 H 0.4717 0.9996 0.1616
C22_15 C 0.5119(3) 0.9849(3) 0.2026(8)
H14_15 H 0.5060 0.9671 0.2348
C23_15 C 0.5409(3) 0.9916(3) 0.1964(9)
C24_15 C 0.5637(3) 0.9719(3) 0.2594(9)
H18_15 H 0.4870 0.8735 0.0438
H19_15 H 0.5160 0.8348 0.0123
O5_15 O 0.61465(18) 0.96299(17) 0.0135(6)
O7_7 O 0.57544(18) 0.98109(18) 0.3541(6)
O8_7 O 0.56761(18) 0.94683(16) 0.2162(6)
O14_15 O 0.55838(17) 0.91567(17) 0.0120(5)
H30_15 H 0.5534 0.9318 0.0481
O23_7 O 0.62003(18) 0.90323(17) 0.0545(6)
Dy3_7 Dy 0.599011(13) 0.927554(13) 0.38320(4)
H1_15 H 0.6220(17) 0.955(2) 0.185(5)
H2_15 H 0.646(2) 0.941(4) 0.240(9)
C1_15 C 0.5758(3) 0.8453(3) 0.1433(8)
C2_15 C 0.5874(2) 0.8327(2) 0.2627(8)
C3_15 C 0.5668(3) 0.8240(3) 0.3504(8)
H3_15 H 0.5470 0.8262 0.3368
C4_15 C 0.5772(3) 0.8118(3) 0.4582(9)
H4_15 H 0.5642 0.8063 0.5192
C5_15 C 0.6064(3) 0.8080(3) 0.4735(9)
H5_15 H 0.6128 0.7994 0.5451
C6_15 C 0.6168(3) 0.8286(2) 0.2862(8)
C7_15 C 0.6406(3) 0.8348(2) 0.1960(9)
C8_15 C 0.6831(3) 0.8160(3) 0.1166(8)
H6_15 H 0.6974 0.8016 0.1172
C9_15 C 0.6853(3) 0.8381(3) 0.0324(9)
C10_15 C 0.6651(3) 0.8613(3) 0.0389(9)
C11_15 C 0.6427(3) 0.8599(3) 0.1254(7)
C12_15 C 0.6243(2) 0.8869(3) 0.1443(8)
C25_15 C 0.5531(2) 0.9293(2) 0.6372(8)
C26_15 C 0.5213(3) 0.9306(3) 0.6227(7)
C27_15 C 0.5092(3) 0.9506(3) 0.5340(9)
H15_15 H 0.5216 0.9607 0.4820
C28_15 C 0.4798(3) 0.9546(3) 0.5262(9)
H16_11 H 0.4720 0.9663 0.4652
C29_15 C 0.4618(3) 0.9412(3) 0.6092(9)
H17_15 H 0.4421 0.9458 0.6093
C30_15 C 0.5012(3) 0.9157(3) 0.6926(9)
C31_15 C 0.5080(3) 0.8912(3) 0.7805(8)
C32_15 C 0.4969(3) 0.8722(3) 0.9701(9)
C33_15 C 0.5141(3) 0.8489(3) 0.9522(8)
C34_15 C 0.5289(3) 0.8462(3) 0.8438(9)
H20_15 H 0.5405 0.8299 0.8289
C35_15 C 0.5264(3) 0.8676(3) 0.7590(8)
C36_15 C 0.5434(3) 0.8653(3) 0.6422(9)
C37_15 C 0.6470(4) 0.9508(4) 0.5239(14)
C38_15 C 0.6690(4) 0.9686(5) 0.6109(13)
C39_15 C 0.6610(5) 0.9981(5) 0.6378(13)
C42_15 C 0.6933(4) 0.9583(4) 0.6610(13)
C43_15 C 0.7001(4) 0.9271(4) 0.6507(12)
C44_15 C 0.7305(4) 0.8878(4) 0.6125(12)
H24_15 H 0.7483 0.8811 0.5828
C45_15 C 0.7155(4) 0.8671(4) 0.6600(12)
H25_15 H 0.7212 0.8477 0.6640
C46_15 C 0.6905(4) 0.8779(4) 0.7031(11)
H26_15 H 0.6772 0.8645 0.7346
C47_15 C 0.6820(3) 0.9076(4) 0.7056(11)
C48_15 C 0.6548(3) 0.9153(3) 0.7694(10)
N3_15 N 0.4721(2) 0.9212(2) 0.6924(6)
N4_15 N 0.4928(2) 0.8940(2) 0.8879(7)
N7_15 N 0.7270(3) 0.9176(3) 0.5938(10)
N8_15 N 0.7132(3) 0.9775(4) 0.7067(11)
O1_15 O 0.55772(17) 0.86564(19) 0.1522(5)
O2_15 O 0.58613(18) 0.83522(18) 0.0457(5)
O3_15 O 0.61619(17) 0.89173(16) 0.2521(5)
O6_15 O 0.5717(2) 0.9786(2) 0.9520(8)
O9_15 O 0.53010(17) 0.86996(18) 0.5411(5)
O10_15 O 0.56970(19) 0.85860(18) 0.6503(5)
O11_15 O 0.56853(17) 0.93547(17) 0.5490(5)
O12_15 O 0.56246(17) 0.92281(18) 0.7434(6)
O13_15 O 0.59280(19) 0.87453(19) 0.8637(5)
H27_15 H 0.5828 0.8706 0.7978
H28_15 H 0.5832 0.8676 0.9261
H29_15 H 0.5436 0.9095 0.9696
O15_15 O 0.6092(2) 0.9645(2) 0.7448(8)
H31_15 H 0.6218 0.9600 0.6673
H32_15 H 0.6206 0.9832 0.7780
O16_15 O 0.6318(2) 0.9058(2) 0.7257(6)
O17_15 O 0.6551(2) 0.9295(2) 0.8643(6)
O18_15 O 0.6228(3) 0.9594(3) 0.5215(8)
O19_15 O 0.6575(3) 0.9308(3) 0.4600(9)
O20_15 O 0.61157(18) 0.88707(17) 0.5103(6)
H33_15 H 0.5961 0.8769 0.5280
H34_15 H 0.6194 0.8932 0.5782
O21_15 O 0.6309(2) 0.9519(2) 0.2506(6)
O22_15 O 0.55903(17) 0.89555(17) 0.3598(5)
H35_15 H 0.5497 0.8987 0.2902
H36_15 H 0.5462 0.8979 0.4194
Dy2_7 Dy 0.599904(13) 0.924540(13) 0.88400(4)
H7_15 H 0.6997 0.8377 0.9728
H8_15 H 0.6666 0.8771 0.9867
C24_16 C 0.2781(3) 0.3137(3) 0.0094(9)
O7_8 O 0.26891(18) 0.32544(18) 0.1041(6)
Dy3_8 Dy 0.322446(13) 0.349011(13) 0.13320(4)
C2_16 C 0.4173(2) 0.3374(2) 0.0127(8)
C3_16 C 0.4260(3) 0.3168(3) 0.1004(8)
H3_16 H 0.4238 0.2970 0.0868
C4_16 C 0.4382(3) 0.3272(3) 0.2082(9)
H4_16 H 0.4437 0.3142 0.2692
C5_16 C 0.4420(3) 0.3564(3) 0.2235(9)
H5_16 H 0.4506 0.3628 0.2951
C6_16 C 0.4214(2) 0.3668(3) 0.0362(8)
C13_16 C 0.2683(3) 0.3446(3) 0.7566(10)
C14_16 C 0.2393(3) 0.3510(3) 0.8192(10)
C15_16 C 0.2283(3) 0.3794(3) 0.8084(12)
H9_16 H 0.2397 0.3944 0.7775
C16_16 C 0.1995(3) 0.3845(3) 0.8457(10)
H10_16 H 0.1913 0.4030 0.8403
C17_16 C 0.1831(3) 0.3605(3) 0.8919(10)
H11_16 H 0.1639 0.3638 0.9147
C18_16 C 0.2221(3) 0.3295(3) 0.8729(8)
C19_16 C 0.2313(3) 0.2994(3) 0.8938(8)
C20_16 C 0.2186(3) 0.2501(3) 0.8683(9)
H12_14 H 0.2049 0.2363 0.8455
C21_14 C 0.2455(3) 0.2414(3) 0.9110(9)
H13_16 H 0.2504 0.2217 0.9116
C22_16 C 0.2651(3) 0.2619(3) 0.9526(8)
H14_16 H 0.2829 0.2560 0.9848
C23_16 C 0.2584(3) 0.2909(3) 0.9464(9)
C25_16 C 0.3207(2) 0.3031(2) 0.3872(8)
C26_16 C 0.3194(3) 0.2713(3) 0.3727(7)
C27_16 C 0.2994(3) 0.2592(3) 0.2840(9)
H15_16 H 0.2893 0.2716 0.2320
C28_16 C 0.2954(3) 0.2298(3) 0.2762(9)
H16_12 H 0.2837 0.2220 0.2152
C29_16 C 0.3088(3) 0.2118(3) 0.3592(9)
H17_16 H 0.3042 0.1921 0.3593
C30_16 C 0.3343(3) 0.2512(3) 0.4426(9)
C31_16 C 0.3588(3) 0.2580(3) 0.5305(8)
C32_16 C 0.3778(3) 0.2469(3) 0.7201(9)
H18_16 H 0.3765 0.2370 0.7938
C33_16 C 0.4011(3) 0.2641(3) 0.7022(8)
H19_16 H 0.4152 0.2660 0.7623
C34_16 C 0.4038(3) 0.2789(3) 0.5938(9)
H20_16 H 0.4201 0.2905 0.5789
C35_16 C 0.3824(3) 0.2764(3) 0.5090(8)
C36_16 C 0.3847(3) 0.2934(3) 0.3922(9)
C37_16 C 0.2992(4) 0.3970(4) 0.2739(14)
C38_16 C 0.2814(5) 0.4190(4) 0.3609(13)
C39_16 C 0.2519(5) 0.4110(5) 0.3878(13)
H21_14 H 0.2456 0.3930 0.3584
C40_14 C 0.2305(4) 0.4284(4) 0.4580(14)
H22_14 H 0.2120 0.4228 0.4828
C41_14 C 0.2442(4) 0.4554(4) 0.4789(14)
H23_14 H 0.2324 0.4699 0.5122
C42_16 C 0.2917(4) 0.4433(4) 0.4110(13)
C43_16 C 0.3229(4) 0.4501(4) 0.4007(12)
C44_16 C 0.3622(4) 0.4805(4) 0.3625(12)
H24_16 H 0.3689 0.4983 0.3328
C45_16 C 0.3829(4) 0.4655(4) 0.4100(12)
H25_16 H 0.4023 0.4712 0.4140
C46_16 C 0.3721(4) 0.4405(4) 0.4531(11)
H26_16 H 0.3855 0.4272 0.4846
C47_16 C 0.3424(4) 0.4320(3) 0.4556(11)
C48_16 C 0.3347(3) 0.4048(3) 0.5194(10)
N3_16 N 0.3288(2) 0.2221(2) 0.4424(6)
N4_16 N 0.3560(2) 0.2428(2) 0.6379(7)
N7_16 N 0.3324(3) 0.4770(3) 0.3438(10)
N8_16 N 0.2725(4) 0.4632(3) 0.4567(11)
O3_16 O 0.35827(16) 0.36619(17) 0.0021(5)
O5_16 O 0.28701(17) 0.36465(18) 0.7635(6)
O6_16 O 0.2714(2) 0.3217(2) 0.7020(8)
O8_8 O 0.30317(16) 0.31761(18) 0.9662(6)
O9_16 O 0.38004(18) 0.28010(17) 0.2911(5)
O10_16 O 0.39140(18) 0.31970(19) 0.4003(5)
O11_16 O 0.31453(17) 0.31853(17) 0.2990(5)
O12_16 O 0.32719(18) 0.31246(17) 0.4934(6)
O13_16 O 0.37547(19) 0.34280(19) 0.6137(5)
H27_16 H 0.3794 0.3328 0.5478
H28_16 H 0.3824 0.3332 0.6761
O14_16 O 0.33433(17) 0.30838(17) 0.7620(5)
H29_16 H 0.3405 0.2936 0.7196
H30_16 H 0.3182 0.3034 0.7981
O15_16 O 0.2855(2) 0.3592(2) 0.4948(8)
H31_16 H 0.2900 0.3718 0.4173
H32_16 H 0.2668 0.3706 0.5280
O16_16 O 0.3442(2) 0.3818(2) 0.4757(6)
O17_16 O 0.3205(2) 0.4051(2) 0.6143(6)
O18_16 O 0.2906(3) 0.3728(3) 0.2715(8)
O19_16 O 0.3192(3) 0.4075(3) 0.2100(9)
O20_16 O 0.36293(17) 0.36157(18) 0.2603(6)
H33_16 H 0.3731 0.3461 0.2780
H34_16 H 0.3568 0.3694 0.3282
O21_16 O 0.2981(2) 0.3809(2) 0.0006(6)
O22_16 O 0.35445(17) 0.30903(17) 0.1098(5)
H35_16 H 0.3513 0.2997 0.0402
H36_16 H 0.3521 0.2962 0.1694
Dy2_8 Dy 0.325460(13) 0.349904(13) 0.63400(4)
O23_8 O 0.34677(17) 0.37003(18) 0.8045(6)
H1_16 H 0.295(2) 0.3720(17) 0.935(5)
H2_16 H 0.309(4) 0.396(2) 0.990(9)
C1_16 C 0.4047(3) 0.3258(3) 0.8933(8)
C7_16 C 0.4152(2) 0.3906(3) 0.9460(9)
C8_16 C 0.4340(3) 0.4331(3) 0.8666(8)
H6_16 H 0.4484 0.4474 0.8672
C9_16 C 0.4119(3) 0.4353(3) 0.7824(9)
H7_16 H 0.4123 0.4497 0.7228
C10_16 C 0.3887(3) 0.4151(3) 0.7889(9)
H8_16 H 0.3729 0.4166 0.7367
C11_16 C 0.3901(3) 0.3927(3) 0.8754(7)
C12_16 C 0.3631(3) 0.3743(2) 0.8943(8)
O1_16 O 0.38436(19) 0.30772(17) 0.9022(5)
O2_16 O 0.41478(18) 0.33613(18) 0.7957(5)
H12_15 H 0.9863 0.0451 0.4045
C21_15 C 0.9914(3) 0.0045(3) 0.3390(9)
H16_13 H 0.9720 0.9663 0.0348
H16_14 H 0.0280 0.5337 0.0348
H21_15 H 0.3570 0.9956 0.3916
C40_15 C 0.3216(4) 0.9805(4) 0.2920(14)
H22_15 H 0.3272 0.9620 0.2672
C41_15 C 0.2946(4) 0.9942(4) 0.2711(14)
H23_15 H 0.2801 0.9824 0.2378
H16_15 H 0.0280 0.0337 0.9652
H12_16 H 0.0137 0.9549 0.5955
C21_16 C 0.0086(3) 0.9955(3) 0.6610(9)
H16_16 H 0.9720 0.4663 0.9652
H21_16 H 0.6430 0.0044 0.6084
C40_16 C 0.6784(4) 0.0195(4) 0.7080(14)
H22_16 H 0.6728 0.0380 0.7328
C41_16 C 0.7054(4) 0.0058(4) 0.7289(14)
H23_16 H 0.7199 0.0176 0.7622
loop_
_geom_bond_atom_site_label_1
_geom_bond_atom_site_label_2
_geom_bond_site_symmetry_1
_geom_bond_site_symmetry_2
C14 C15 1_555 1_555
C15 H9 1_555 1_555
C16 C15 1_555 1_555
H10 C16 1_555 1_555
C17 C16 1_555 1_555
H11 C17 1_555 1_555
C18 C14 1_555 1_555
C19 C18 1_555 1_555
H22 C40 1_555 1_555
C41 C40 1_555 1_555
H23 C41 1_555 1_555
N1 C17 1_555 1_555
N2 C19 1_555 1_555
Co2 N1 1_555 1_555
C18 N1 1_555 1_555
C20 N2 1_555 1_555
N2 Co2 1_555 1_555
H1 O21 1_555 1_555
H2 O21 1_555 1_555
C1 C2 1_555 1_555
C2 C3 1_555 1_555
C3 H3 1_555 1_555
C4 C3 1_555 1_555
C5 C4 1_555 1_555
C6 C2 1_555 1_555
C7 C6 1_555 1_555
C8 H6 1_555 1_555
C9 C8 1_555 1_555
H7 C9 1_555 1_555
C10 C9 1_555 1_555
H8 C10 1_555 1_555
C11 C7 1_555 1_555
C12 C11 1_555 1_555
N5 C5 1_555 1_555
N6 C7 1_555 1_555
O1 C1 1_555 1_555
O2 C1 1_555 1_555
O3 C12 1_555 1_555
O4 C12 1_555 1_555
O21 Dy1 1_555 1_555
O22 H35 1_555 1_555
H36 O22 1_555 1_555
Dy1 O3 1_555 1_555
O24 Dy1 1_555 1_555
O25 Dy1 1_555 1_555
Co3 N5 1_555 1_555
Dy4 O4 1_555 1_555
C6 N5 1_555 1_555
C8 N6 1_555 1_555
C10 C11 1_555 1_555
N6 Co3 1_555 1_555
O19 Dy1 1_555 1_555
O22 Dy1 1_555 1_555
H14 C22 1_555 1_555
C24 C23 1_555 1_555
C25 C26 1_555 1_555
C26 C27 1_555 1_555
C30 C26 1_555 1_555
C31 C30 1_555 1_555
H19 C33 1_555 1_555
C34 C33 1_555 1_555
H20 C34 1_555 1_555
C35 C31 1_555 1_555
C36 C35 1_555 1_555
C37 C38 1_555 1_555
C38 C39 1_555 1_555
C42 C38 1_555 1_555
C43 C42 1_555 1_555
C44 H24 1_555 1_555
C45 C44 1_555 1_555
H25 C45 1_555 1_555
C46 C45 1_555 1_555
H26 C46 1_555 1_555
C47 C43 1_555 1_555
C48 C47 1_555 1_555
N7 C43 1_555 1_555
O5 C13 1_555 1_555
O6 C13 1_555 1_555
O24 C24 1_555 1_555
O25 C24 1_555 1_555
O9 C36 1_555 1_555
O10 C36 1_555 1_555
O11 C25 1_555 1_555
O12 C25 1_555 1_555
O13 H27 1_555 1_555
H28 O13 1_555 1_555
O14 H29 1_555 1_555
H30 O14 1_555 1_555
O15 H31 1_555 1_555
H32 O15 1_555 1_555
O16 C48 1_555 1_555
O17 C48 1_555 1_555
O18 C37 1_555 1_555
O20 H33 1_555 1_555
H34 O20 1_555 1_555
Dy4 O5 1_555 1_555
C22 C23 1_555 1_555
C34 C35 1_555 1_555
C42 N8 1_555 1_555
C44 N7 1_555 1_555
C46 C47 1_555 1_555
O12 Dy4 1_555 1_555
O13 Dy4 1_555 1_555
O14 Dy4 1_555 1_555
O15 Dy4 1_555 1_555
O16 Dy4 1_555 1_555
O17 Dy4 1_555 1_555
C29 C28 1_555 1_555
H17 C29 1_555 1_555
C32 H18 1_555 1_555
N3 C29 1_555 1_555
Co1 N3 1_555 1_555
N9 Co1 1_555 1_555
N10 Co1 1_555 1_555
N11 Co1 1_555 1_555
N12 Co1 1_555 1_555
C32 N4 1_555 1_555
N4 Co1 1_555 1_555
H1_2 O21_2 1_555 1_555
H2_2 O21_2 1_555 1_555
C1_2 C2_2 1_555 1_555
C2_2 C3_2 1_555 1_555
C3_2 H3_2 1_555 1_555
C4_2 C3_2 1_555 1_555
H4_2 C4_2 1_555 1_555
C5_2 C4_2 1_555 1_555
H5_2 C5_2 1_555 1_555
C6_2 C2_2 1_555 1_555
C7_2 C6_2 1_555 1_555
C8_2 H6_2 1_555 1_555
C9_2 C8_2 1_555 1_555
H7_2 C9_2 1_555 1_555
C10_2 C9_2 1_555 1_555
H8_2 C10_2 1_555 1_555
C11_2 C7_2 1_555 1_555
C12_2 C11_2 1_555 1_555
C25_2 C26_2 1_555 1_555
C26_2 C27_2 1_555 1_555
C27_2 H15_2 1_555 1_555
C28_2 C27_2 1_555 1_555
H16 C28_2 1_555 1_555
C29_2 C28_2 1_555 1_555
H17_2 C29_2 1_555 1_555
C30_2 C26_2 1_555 1_555
C37_2 C38_2 1_555 1_555
C38_2 C39_2 1_555 1_555
C39_2 H21_2 1_555 1_555
C40_2 C39_2 1_555 1_555
H22_2 C40_2 1_555 1_555
C41_2 C40_2 1_555 1_555
C42_2 C38_2 1_555 1_555
C43_2 C42_2 1_555 1_555
C44_2 H24_2 1_555 1_555
C45_2 C44_2 1_555 1_555
H25_2 C45_2 1_555 1_555
C46_2 C45_2 1_555 1_555
H26_2 C46_2 1_555 1_555
C47_2 C43_2 1_555 1_555
N3_2 C29_2 1_555 1_555
N5_2 C5_2 1_555 1_555
N6_2 C7_2 1_555 1_555
N7_2 C43_2 1_555 1_555
N8_2 C41_2 1_555 1_555
O1_2 C1_2 1_555 1_555
O2_2 C1_2 1_555 1_555
O3_2 C12_2 1_555 1_555
O4_2 C12_2 1_555 1_555
O9_2 C36_2 1_555 1_555
O10_2 C36_2 1_555 1_555
O11_2 C25_2 1_555 1_555
O12_2 C25_2 1_555 1_555
O15_2 H31_2 1_555 1_555
O18_2 C37_2 1_555 1_555
O19_2 C37_2 1_555 1_555
O20_2 H33_2 1_555 1_555
H34_2 O20_2 1_555 1_555
O21_2 Dy1_2 1_555 1_555
O22_2 H35_2 1_555 1_555
H36_2 O22_2 1_555 1_555
Dy1_2 O3_2 1_555 1_555
O24_2 Dy1_2 1_555 1_555
O25_2 Dy1_2 1_555 1_555
Co3_2 N5_2 1_555 1_555
Dy4_2 O4_2 1_555 1_555
C6_2 N5_2 1_555 1_555
C8_2 N6_2 1_555 1_555
C10_2 C11_2 1_555 1_555
C30_2 N3_2 1_555 1_555
C42_2 N8_2 1_555 1_555
C44_2 N7_2 1_555 1_555
C46_2 C47_2 1_555 1_555
N6_2 Co3_2 1_555 1_555
O11_2 Dy1_2 1_555 1_555
O18_2 Dy1_2 1_555 1_555
O19_2 Dy1_2 1_555 1_555
O20_2 Dy1_2 1_555 1_555
O22_2 Dy1_2 1_555 1_555
C13_2 C14_2 1_555 1_555
C14_2 C15_2 1_555 1_555
C15_2 H9_2 1_555 1_555
C16_2 C15_2 1_555 1_555
H10_2 C16_2 1_555 1_555
C17_2 C16_2 1_555 1_555
H11_2 C17_2 1_555 1_555
C18_2 C14_2 1_555 1_555
C19_2 C18_2 1_555 1_555
C20_2 H12 1_555 1_555
C21 C20_2 1_555 1_555
H13_2 C21 1_555 1_555
C22_2 C21 1_555 1_555
H14_2 C22_2 1_555 1_555
C23_2 C19_2 1_555 1_555
C24_2 C23_2 1_555 1_555
C32_2 H18_2 1_555 1_555
C33_2 C32_2 1_555 1_555
H19_2 C33_2 1_555 1_555
C34_2 C33_2 1_555 1_555
H20_2 C34_2 1_555 1_555
C35_2 C31_2 1_555 1_555
N1_2 C17_2 1_555 1_555
N2_2 C19_2 1_555 1_555
N4_2 C31_2 1_555 1_555
O5_2 C13_2 1_555 1_555
O6_2 C13_2 1_555 1_555
O24_2 C24_2 1_555 1_555
O25_2 C24_2 1_555 1_555
O13_2 H27_2 1_555 1_555
H28_2 O13_2 1_555 1_555
O14_2 H29_2 1_555 1_555
H30_2 O14_2 1_555 1_555
O17_2 C48_2 1_555 1_555
Dy4_2 O5_2 1_555 1_555
N9_2 Co1_2 1_555 1_555
N10_2 Co1_2 1_555 1_555
N11_2 Co1_2 1_555 1_555
N12_2 Co1_2 1_555 1_555
Co2_2 N1_2 1_555 1_555
C18_2 N1_2 1_555 1_555
C20_2 N2_2 1_555 1_555
C22_2 C23_2 1_555 1_555
C32_2 N4_2 1_555 1_555
C34_2 C35_2 1_555 1_555
N2_2 Co2_2 1_555 1_555
N4_2 Co1_2 1_555 1_555
O13_2 Dy4_2 1_555 1_555
O14_2 Dy4_2 1_555 1_555
O17_2 Dy4_2 1_555 1_555
H13_3 C21_2 1_555 1_555
C29_3 C28_3 1_555 1_555
H17_3 C29_3 1_555 1_555
C32_3 H18_3 1_555 1_555
N3_3 C29_3 1_555 1_555
Co1_3 N3_3 1_555 1_555
N9_3 Co1_3 1_555 1_555
N10_3 Co1_3 1_555 1_555
N11_3 Co1_3 1_555 1_555
N12_3 Co1_3 1_555 1_555
C32_3 N4_3 1_555 1_555
N4_3 Co1_3 1_555 1_555
H1_3 O21_3 1_555 1_555
H2_3 O21_3 1_555 1_555
C1_3 C2_3 1_555 1_555
C2_3 C3_3 1_555 1_555
C3_3 H3_3 1_555 1_555
C4_3 C3_3 1_555 1_555
C5_3 C4_3 1_555 1_555
C6_3 C2_3 1_555 1_555
C7_3 C6_3 1_555 1_555
C8_3 H6_3 1_555 1_555
C9_3 C8_3 1_555 1_555
H7_3 C9_3 1_555 1_555
C10_3 C9_3 1_555 1_555
H8_3 C10_3 1_555 1_555
C11_3 C7_3 1_555 1_555
C12_3 C11_3 1_555 1_555
N5_3 C5_3 1_555 1_555
N6_3 C7_3 1_555 1_555
O1_3 C1_3 1_555 1_555
O2_3 C1_3 1_555 1_555
O3_3 C12_3 1_555 1_555
O4_3 C12_3 1_555 1_555
O21_3 Dy1_3 1_555 1_555
O22_3 H35_3 1_555 1_555
H36_3 O22_3 1_555 1_555
Dy1_3 O3_3 1_555 1_555
O24_3 Dy1_3 1_555 1_555
O25_3 Dy1_3 1_555 1_555
Co3_3 N5_3 1_555 1_555
Dy4_3 O4_3 1_555 1_555
C6_3 N5_3 1_555 1_555
C8_3 N6_3 1_555 1_555
C10_3 C11_3 1_555 1_555
N6_3 Co3_3 1_555 1_555
O19_3 Dy1_3 1_555 1_555
O22_3 Dy1_3 1_555 1_555
C13_3 C14_3 1_555 1_555
C14_3 C15_3 1_555 1_555
C15_3 H9_3 1_555 1_555
C16_3 C15_3 1_555 1_555
H10_3 C16_3 1_555 1_555
C17_3 C16_3 1_555 1_555
H11_3 C17_3 1_555 1_555
C18_3 C14_3 1_555 1_555
C19_3 C18_3 1_555 1_555
H14_3 C22_3 1_555 1_555
C23_3 C19_3 1_555 1_555
C24_3 C23_3 1_555 1_555
C25_3 C26_3 1_555 1_555
C26_3 C27_3 1_555 1_555
C30_3 C26_3 1_555 1_555
C31_3 C30_3 1_555 1_555
H19_3 C33_3 1_555 1_555
C34_3 C33_3 1_555 1_555
H20_3 C34_3 1_555 1_555
C35_3 C31_3 1_555 1_555
C36_3 C35_3 1_555 1_555
C37_3 C38_3 1_555 1_555
C38_3 C39_3 1_555 1_555
C39_3 H21_3 1_555 1_555
C40_3 C39_3 1_555 1_555
H22_3 C40_3 1_555 1_555
C41_3 C40_3 1_555 1_555
H23_3 C41_3 1_555 1_555
C42_3 C38_3 1_555 1_555
C43_3 C42_3 1_555 1_555
C44_3 H24_3 1_555 1_555
C45_3 C44_3 1_555 1_555
H25_3 C45_3 1_555 1_555
C46_3 C45_3 1_555 1_555
H26_3 C46_3 1_555 1_555
C47_3 C43_3 1_555 1_555
C48_3 C47_3 1_555 1_555
N1_3 C17_3 1_555 1_555
N2_3 C19_3 1_555 1_555
N7_3 C43_3 1_555 1_555
N8_3 C41_3 1_555 1_555
O5_3 C13_3 1_555 1_555
O6_3 C13_3 1_555 1_555
O24_3 C24_3 1_555 1_555
O25_3 C24_3 1_555 1_555
O9_3 C36_3 1_555 1_555
O10_3 C36_3 1_555 1_555
O11_3 C25_3 1_555 1_555
O12_3 C25_3 1_555 1_555
O13_3 H27_3 1_555 1_555
H28_3 O13_3 1_555 1_555
O14_3 H29_3 1_555 1_555
H30_3 O14_3 1_555 1_555
O15_3 H31_3 1_555 1_555
H32_3 O15_3 1_555 1_555
O16_3 C48_3 1_555 1_555
O17_3 C48_3 1_555 1_555
O18_3 C37_3 1_555 1_555
O20_3 H33_3 1_555 1_555
H34_3 O20_3 1_555 1_555
Dy4_3 O5_3 1_555 1_555
Co3_2 N1_3 1_555 1_555
C18_3 N1_3 1_555 1_555
C20_3 N2_3 1_555 1_555
C22_3 C23_3 1_555 1_555
C34_3 C35_3 1_555 1_555
C42_3 N8_3 1_555 1_555
C44_3 N7_3 1_555 1_555
C46_3 C47_3 1_555 1_555
N2_3 Co3_2 1_555 1_555
O12_3 Dy4_3 1_555 1_555
O13_3 Dy4_3 1_555 1_555
O14_3 Dy4_3 1_555 1_555
O15_3 Dy4_3 1_555 1_555
O16_3 Dy4_3 1_555 1_555
O17_3 Dy4_3 1_555 1_555
H1_4 O21_4 1_555 1_555
H2_4 O21_4 1_555 1_555
C1_4 C2_4 1_555 1_555
C2_4 C3_4 1_555 1_555
C3_4 H3_4 1_555 1_555
C4_4 C3_4 1_555 1_555
H4_4 C4_4 1_555 1_555
C5_4 C4_4 1_555 1_555
H5_4 C5_4 1_555 1_555
C6_4 C2_4 1_555 1_555
C7_4 C6_4 1_555 1_555
C8_4 H6_4 1_555 1_555
C9_4 C8_4 1_555 1_555
H7_4 C9_4 1_555 1_555
C10_4 C9_4 1_555 1_555
H8_4 C10_4 1_555 1_555
C11_4 C7_4 1_555 1_555
C12_4 C11_4 1_555 1_555
C25_4 C26_4 1_555 1_555
C26_4 C27_4 1_555 1_555
C27_4 H15_4 1_555 1_555
C28_4 C27_4 1_555 1_555
H16_2 C28_4 1_555 1_555
C29_4 C28_4 1_555 1_555
H17_4 C29_4 1_555 1_555
C30_4 C26_4 1_555 1_555
C37_4 C38_4 1_555 1_555
C38_4 C39_4 1_555 1_555
C39_4 H21_4 1_555 1_555
C40_4 C39_4 1_555 1_555
H22_4 C40_4 1_555 1_555
C41_4 C40_4 1_555 1_555
C42_4 C38_4 1_555 1_555
C43_4 C42_4 1_555 1_555
C44_4 H24_4 1_555 1_555
C45_4 C44_4 1_555 1_555
H25_4 C45_4 1_555 1_555
C46_4 C45_4 1_555 1_555
H26_4 C46_4 1_555 1_555
C47_4 C43_4 1_555 1_555
N3_4 C29_4 1_555 1_555
N5_4 C5_4 1_555 1_555
N6_4 C7_4 1_555 1_555
N7_4 C43_4 1_555 1_555
N8_4 C41_4 1_555 1_555
O1_4 C1_4 1_555 1_555
O2_4 C1_4 1_555 1_555
O3_4 C12_4 1_555 1_555
O4_4 C12_4 1_555 1_555
O9_4 C36_4 1_555 1_555
O10_4 C36_4 1_555 1_555
O11_4 C25_4 1_555 1_555
O12_4 C25_4 1_555 1_555
O15_4 H31_4 1_555 1_555
O18_4 C37_4 1_555 1_555
O19_4 C37_4 1_555 1_555
O20_4 H33_4 1_555 1_555
H34_4 O20_4 1_555 1_555
O21_4 Dy1_4 1_555 1_555
O22_4 H35_4 1_555 1_555
H36_4 O22_4 1_555 1_555
Dy1_4 O3_4 1_555 1_555
O24_4 Dy1_4 1_555 1_555
O25_4 Dy1_4 1_555 1_555
Co2 N5_4 1_555 1_555
Dy4_4 O4_4 1_555 1_555
C6_4 N5_4 1_555 1_555
C8_4 N6_4 1_555 1_555
C10_4 C11_4 1_555 1_555
C30_4 N3_4 1_555 1_555
C42_4 N8_4 1_555 1_555
C44_4 N7_4 1_555 1_555
C46_4 C47_4 1_555 1_555
N6_4 Co2 1_555 1_555
O11_4 Dy1_4 1_555 1_555
O18_4 Dy1_4 1_555 1_555
O19_4 Dy1_4 1_555 1_555
O20_4 Dy1_4 1_555 1_555
O22_4 Dy1_4 1_555 1_555
C13_4 C14_4 1_555 1_555
C14_4 C15_4 1_555 1_555
C15_4 H9_4 1_555 1_555
C16_4 C15_4 1_555 1_555
H10_4 C16_4 1_555 1_555
C17_4 C16_4 1_555 1_555
H11_4 C17_4 1_555 1_555
C18_4 C14_4 1_555 1_555
C19_4 C18_4 1_555 1_555
C20_4 H12_3 1_555 1_555
C21_3 C20_4 1_555 1_555
H13_4 C21_3 1_555 1_555
C22_4 C21_3 1_555 1_555
H14_4 C22_4 1_555 1_555
C23_4 C19_4 1_555 1_555
C24_4 C23_4 1_555 1_555
C32_4 H18_4 1_555 1_555
C33_4 C32_4 1_555 1_555
H19_4 C33_4 1_555 1_555
C34_4 C33_4 1_555 1_555
H20_4 C34_4 1_555 1_555
C35_4 C31_4 1_555 1_555
N1_4 C17_4 1_555 1_555
N2_4 C19_4 1_555 1_555
N4_4 C31_4 1_555 1_555
O5_4 C13_4 1_555 1_555
O6_4 C13_4 1_555 1_555
O24_4 C24_4 1_555 1_555
O25_4 C24_4 1_555 1_555
O13_4 H27_4 1_555 1_555
H28_4 O13_4 1_555 1_555
O14_4 H29_4 1_555 1_555
H30_4 O14_4 1_555 1_555
O17_4 C48_4 1_555 1_555
Dy4_4 O5_4 1_555 1_555
N9_4 Co1_4 1_555 1_555
N10_4 Co1_4 1_555 1_555
N11_4 Co1_4 1_555 1_555
N12_4 Co1_4 1_555 1_555
Co2_3 N1_4 1_555 1_555
C18_4 N1_4 1_555 1_555
C20_4 N2_4 1_555 1_555
C22_4 C23_4 1_555 1_555
C32_4 N4_4 1_555 1_555
C34_4 C35_4 1_555 1_555
N2_4 Co2_3 1_555 1_555
N4_4 Co1_4 1_555 1_555
O13_4 Dy4_4 1_555 1_555
O14_4 Dy4_4 1_555 1_555
O17_4 Dy4_4 1_555 1_555
H1_5 O21_5 1_555 1_555
H2_5 O21_5 1_555 1_555
C1_5 C2_5 1_555 1_555
C2_5 C3_5 1_555 1_555
C3_5 H3_5 1_555 1_555
C4_5 C3_5 1_555 1_555
H4_5 C4_5 1_555 1_555
C5_5 C4_5 1_555 1_555
H5_5 C5_5 1_555 1_555
C6_5 C2_5 1_555 1_555
C7_5 C6_5 1_555 1_555
C8_5 H6_5 1_555 1_555
C9_5 C8_5 1_555 1_555
C10_5 C9_5 1_555 1_555
C11_5 C7_5 1_555 1_555
C12_5 C11_5 1_555 1_555
C25_5 C26_5 1_555 1_555
C26_5 C27_5 1_555 1_555
C27_5 H15_5 1_555 1_555
C28_5 C27_5 1_555 1_555
H16_3 C28_5 1_555 1_555
C29_5 C28_5 1_555 1_555
H17_5 C29_5 1_555 1_555
C30_5 C26_5 1_555 1_555
C31_5 C30_5 1_555 1_555
C33_5 C32_5 1_555 1_555
C34_5 C33_5 1_555 1_555
H20_5 C34_5 1_555 1_555
C35_5 C31_5 1_555 1_555
C36_5 C35_5 1_555 1_555
C37_5 C38_5 1_555 1_555
C38_5 C39_5 1_555 1_555
C39_5 H21_5 1_555 1_555
C40_5 C39_5 1_555 1_555
H22_5 C40_5 1_555 1_555
C41_5 C40_5 1_555 1_555
H23_5 C41_5 1_555 1_555
C42_5 C38_5 1_555 1_555
C43_5 C42_5 1_555 1_555
C44_5 H24_5 1_555 1_555
C45_5 C44_5 1_555 1_555
H25_5 C45_5 1_555 1_555
C46_5 C45_5 1_555 1_555
H26_5 C46_5 1_555 1_555
C47_5 C43_5 1_555 1_555
C48_5 C47_5 1_555 1_555
N3_5 C29_5 1_555 1_555
N4_5 C31_5 1_555 1_555
N5_5 C5_5 1_555 1_555
N6_5 C7_5 1_555 1_555
N7_5 C43_5 1_555 1_555
N8_5 C41_5 1_555 1_555
O1_5 C1_5 1_555 1_555
O2_5 C1_5 1_555 1_555
O3_5 C12_5 1_555 1_555
O4_5 C12_5 1_555 1_555
O9_5 C36_5 1_555 1_555
O10_5 C36_5 1_555 1_555
O11_5 C25_5 1_555 1_555
O12_5 C25_5 1_555 1_555
O13_5 H27_5 1_555 1_555
H28_5 O13_5 1_555 1_555
O15_5 H31_5 1_555 1_555
H32_5 O15_5 1_555 1_555
O16_5 C48_5 1_555 1_555
O17_5 C48_5 1_555 1_555
O18_5 C37_5 1_555 1_555
O19_5 C37_5 1_555 1_555
O20_5 H33_5 1_555 1_555
H34_5 O20_5 1_555 1_555
O21_5 Dy1_5 1_555 1_555
O22_5 H35_5 1_555 1_555
H36_5 O22_5 1_555 1_555
Co1_5 N3_5 1_555 1_555
Dy1_5 O3_5 1_555 1_555
N9_5 Co1_5 1_555 1_555
N10_5 Co1_5 1_555 1_555
N11_5 Co1_5 1_555 1_555
O24_5 Dy1_5 1_555 1_555
O25_5 Dy1_5 1_555 1_555
Co2_2 N5_5 1_555 1_555
C6_5 N5_5 1_555 1_555
C8_5 N6_5 1_555 1_555
C10_5 C11_5 1_555 1_555
C30_5 N3_5 1_555 1_555
C32_5 N4_5 1_555 1_555
C34_5 C35_5 1_555 1_555
C42_5 N8_5 1_555 1_555
C44_5 N7_5 1_555 1_555
C46_5 C47_5 1_555 1_555
N4_5 Co1_5 1_555 1_555
N6_5 Co2_2 1_555 1_555
O11_5 Dy1_5 1_555 1_555
O12_5 Dy4_5 1_555 1_555
O13_5 Dy4_5 1_555 1_555
O15_5 Dy4_5 1_555 1_555
O16_5 Dy4_5 1_555 1_555
O17_5 Dy4_5 1_555 1_555
O18_5 Dy1_5 1_555 1_555
O19_5 Dy1_5 1_555 1_555
O20_5 Dy1_5 1_555 1_555
O22_5 Dy1_5 1_555 1_555
C13_5 C14_5 1_555 1_555
C14_5 C15_5 1_555 1_555
C15_5 H9_5 1_555 1_555
C16_5 C15_5 1_555 1_555
H10_5 C16_5 1_555 1_555
C17_5 C16_5 1_555 1_555
H11_5 C17_5 1_555 1_555
C18_5 C14_5 1_555 1_555
C19_5 C18_5 1_555 1_555
C20_5 H12_4 1_555 1_555
C21_4 C20_5 1_555 1_555
H13_5 C21_4 1_555 1_555
C22_5 C21_4 1_555 1_555
H14_5 C22_5 1_555 1_555
C23_5 C19_5 1_555 1_555
C24_5 C23_5 1_555 1_555
N1_5 C17_5 1_555 1_555
N2_5 C19_5 1_555 1_555
O5_5 C13_5 1_555 1_555
O24_5 C24_5 1_555 1_555
O25_5 C24_5 1_555 1_555
H30_5 O14_5 1_555 1_555
Co2_4 N1_5 1_555 1_555
C18_5 N1_5 1_555 1_555
C20_5 N2_5 1_555 1_555
C22_5 C23_5 1_555 1_555
N2_5 Co2_4 1_555 1_555
C8_6 H6_6 1_555 1_555
C9_6 C8_6 1_555 1_555
H7_6 C9_6 1_555 1_555
C10_6 C9_6 1_555 1_555
H8_6 C10_6 1_555 1_555
C11_6 C7_6 1_555 1_555
C12_6 C11_6 1_555 1_555
N6_6 C7_6 1_555 1_555
O1_6 C1_6 1_555 1_555
O2_6 C1_6 1_555 1_555
O4_6 C12_6 1_555 1_555
Dy4_6 O4_6 1_555 1_555
C8_6 N6_6 1_555 1_555
C10_6 C11_6 1_555 1_555
C2_6 C3_6 1_555 1_555
C3_6 H3_6 1_555 1_555
C4_6 C3_6 1_555 1_555
H4_6 C4_6 1_555 1_555
C5_6 C4_6 1_555 1_555
H5_6 C5_6 1_555 1_555
C6_6 C2_6 1_555 1_555
C13_6 C14_6 1_555 1_555
C14_6 C15_6 1_555 1_555
C15_6 H9_6 1_555 1_555
C16_6 C15_6 1_555 1_555
H10_6 C16_6 1_555 1_555
C17_6 C16_6 1_555 1_555
H11_6 C17_6 1_555 1_555
C18_6 C14_6 1_555 1_555
C19_6 C18_6 1_555 1_555
C20_6 H12_5 1_555 1_555
C21_5 C20_6 1_555 1_555
H13_6 C21_5 1_555 1_555
C22_6 C21_5 1_555 1_555
H14_6 C22_6 1_555 1_555
C23_6 C19_6 1_555 1_555
C25_6 C26_6 1_555 1_555
C26_6 C27_6 1_555 1_555
C27_6 H15_6 1_555 1_555
C28_6 C27_6 1_555 1_555
H16_4 C28_6 1_555 1_555
C29_6 C28_6 1_555 1_555
H17_6 C29_6 1_555 1_555
C30_6 C26_6 1_555 1_555
C31_6 C30_6 1_555 1_555
C32_6 H18_6 1_555 1_555
C33_6 C32_6 1_555 1_555
H19_6 C33_6 1_555 1_555
C34_6 C33_6 1_555 1_555
H20_6 C34_6 1_555 1_555
C35_6 C31_6 1_555 1_555
C36_6 C35_6 1_555 1_555
C37_6 C38_6 1_555 1_555
C38_6 C39_6 1_555 1_555
C39_6 H21_6 1_555 1_555
C40_6 C39_6 1_555 1_555
H22_6 C40_6 1_555 1_555
C41_6 C40_6 1_555 1_555
H23_6 C41_6 1_555 1_555
C42_6 C38_6 1_555 1_555
C43_6 C42_6 1_555 1_555
C44_6 H24_6 1_555 1_555
C45_6 C44_6 1_555 1_555
H25_6 C45_6 1_555 1_555
C46_6 C45_6 1_555 1_555
H26_6 C46_6 1_555 1_555
C47_6 C43_6 1_555 1_555
C48_6 C47_6 1_555 1_555
N1_6 C17_6 1_555 1_555
N2_6 C19_6 1_555 1_555
N3_6 C29_6 1_555 1_555
N4_6 C31_6 1_555 1_555
N5_6 C5_6 1_555 1_555
N7_6 C43_6 1_555 1_555
N8_6 C41_6 1_555 1_555
O5_6 C13_6 1_555 1_555
O6_6 C13_6 1_555 1_555
O9_6 C36_6 1_555 1_555
O10_6 C36_6 1_555 1_555
O11_6 C25_6 1_555 1_555
O12_6 C25_6 1_555 1_555
O13_6 H27_6 1_555 1_555
H28_6 O13_6 1_555 1_555
O14_6 H29_6 1_555 1_555
H30_6 O14_6 1_555 1_555
O15_6 H31_6 1_555 1_555
H32_6 O15_6 1_555 1_555
O16_6 C48_6 1_555 1_555
O17_6 C48_6 1_555 1_555
O18_6 C37_6 1_555 1_555
O19_6 C37_6 1_555 1_555
O20_6 H33_6 1_555 1_555
H34_6 O20_6 1_555 1_555
O21_6 Dy1_6 1_555 1_555
O22_6 H35_6 1_555 1_555
H36_6 O22_6 1_555 1_555
Co1_6 N3_6 1_555 1_555
Dy1_6 O3_6 1_555 1_555
Dy4_6 O5_6 1_555 1_555
N9_6 Co1_6 1_555 1_555
N10_6 Co1_6 1_555 1_555
N11_6 Co1_6 1_555 1_555
N12_6 Co1_6 1_555 1_555
O24_6 Dy1_6 1_555 1_555
Co3 N1_6 1_555 1_555
Co3_4 N5_6 1_555 1_555
C6_6 N5_6 1_555 1_555
C18_6 N1_6 1_555 1_555
C20_6 N2_6 1_555 1_555
C22_6 C23_6 1_555 1_555
C30_6 N3_6 1_555 1_555
C32_6 N4_6 1_555 1_555
C34_6 C35_6 1_555 1_555
C42_6 N8_6 1_555 1_555
C44_6 N7_6 1_555 1_555
C46_6 C47_6 1_555 1_555
N2_6 Co3 1_555 1_555
N4_6 Co1_6 1_555 1_555
O11_6 Dy1_6 1_555 1_555
O12_6 Dy4_6 1_555 1_555
O13_6 Dy4_6 1_555 1_555
O14_6 Dy4_6 1_555 1_555
O15_6 Dy4_6 1_555 1_555
O16_6 Dy4_6 1_555 1_555
O17_6 Dy4_6 1_555 1_555
O18_6 Dy1_6 1_555 1_555
O19_6 Dy1_6 1_555 1_555
O20_6 Dy1_6 1_555 1_555
O22_6 Dy1_6 1_555 1_555
O24_6 C24_6 1_555 1_555
H1_7 O21_7 1_555 1_555
H2_7 O21_7 1_555 1_555
C1_7 C2_7 1_555 1_555
C2_7 C3_7 1_555 1_555
C3_7 H3_7 1_555 1_555
C4_7 C3_7 1_555 1_555
H4_7 C4_7 1_555 1_555
C5_7 C4_7 1_555 1_555
H5_7 C5_7 1_555 1_555
C6_7 C2_7 1_555 1_555
C7_7 C6_7 1_555 1_555
C8_7 H6_7 1_555 1_555
C9_7 C8_7 1_555 1_555
C10_7 C9_7 1_555 1_555
C11_7 C7_7 1_555 1_555
C12_7 C11_7 1_555 1_555
C25_7 C26_7 1_555 1_555
C26_7 C27_7 1_555 1_555
C27_7 H15_7 1_555 1_555
C28_7 C27_7 1_555 1_555
H16_5 C28_7 1_555 1_555
C29_7 C28_7 1_555 1_555
H17_7 C29_7 1_555 1_555
C30_7 C26_7 1_555 1_555
C31_7 C30_7 1_555 1_555
C33_7 C32_7 1_555 1_555
C34_7 C33_7 1_555 1_555
H20_7 C34_7 1_555 1_555
C35_7 C31_7 1_555 1_555
C36_7 C35_7 1_555 1_555
C37_7 C38_7 1_555 1_555
C38_7 C39_7 1_555 1_555
C42_7 C38_7 1_555 1_555
C43_7 C42_7 1_555 1_555
C44_7 H24_7 1_555 1_555
C45_7 C44_7 1_555 1_555
H25_7 C45_7 1_555 1_555
C46_7 C45_7 1_555 1_555
H26_7 C46_7 1_555 1_555
C47_7 C43_7 1_555 1_555
C48_7 C47_7 1_555 1_555
N3_7 C29_7 1_555 1_555
N4_7 C31_7 1_555 1_555
N5_7 C5_7 1_555 1_555
N6_7 C7_7 1_555 1_555
N7_7 C43_7 1_555 1_555
O1_7 C1_7 1_555 1_555
O2_7 C1_7 1_555 1_555
O3_7 C12_7 1_555 1_555
O4_7 C12_7 1_555 1_555
O9_7 C36_7 1_555 1_555
O10_7 C36_7 1_555 1_555
O11_7 C25_7 1_555 1_555
O12_7 C25_7 1_555 1_555
O13_7 H27_7 1_555 1_555
H28_7 O13_7 1_555 1_555
O15_7 H31_7 1_555 1_555
H32_7 O15_7 1_555 1_555
O16_7 C48_7 1_555 1_555
O17_7 C48_7 1_555 1_555
O18_7 C37_7 1_555 1_555
O19_7 C37_7 1_555 1_555
O20_7 H33_7 1_555 1_555
H34_7 O20_7 1_555 1_555
O21_7 Dy1_7 1_555 1_555
O22_7 H35_7 1_555 1_555
H36_7 O22_7 1_555 1_555
Co1_7 N3_7 1_555 1_555
Dy1_7 O3_7 1_555 1_555
N9_7 Co1_7 1_555 1_555
N10_7 Co1_7 1_555 1_555
N11_7 Co1_7 1_555 1_555
O24_7 Dy1_7 1_555 1_555
O25_7 Dy1_7 1_555 1_555
Co2_3 N5_7 1_555 1_555
C6_7 N5_7 1_555 1_555
C8_7 N6_7 1_555 1_555
C10_7 C11_7 1_555 1_555
C30_7 N3_7 1_555 1_555
C32_7 N4_7 1_555 1_555
C34_7 C35_7 1_555 1_555
C42_7 N8_7 1_555 1_555
C44_7 N7_7 1_555 1_555
C46_7 C47_7 1_555 1_555
N4_7 Co1_7 1_555 1_555
N6_7 Co2_3 1_555 1_555
O11_7 Dy1_7 1_555 1_555
O12_7 Dy4_7 1_555 1_555
O13_7 Dy4_7 1_555 1_555
O15_7 Dy4_7 1_555 1_555
O16_7 Dy4_7 1_555 1_555
O17_7 Dy4_7 1_555 1_555
O18_7 Dy1_7 1_555 1_555
O19_7 Dy1_7 1_555 1_555
O20_7 Dy1_7 1_555 1_555
O22_7 Dy1_7 1_555 1_555
H14_7 C22_7 1_555 1_555
C24_7 C23_7 1_555 1_555
O5_7 C13_7 1_555 1_555
O24_7 C24_7 1_555 1_555
O25_7 C24_7 1_555 1_555
H30_7 O14_7 1_555 1_555
C22_7 C23_7 1_555 1_555
C14_7 C15_7 1_555 1_555
C15_7 H9_7 1_555 1_555
C16_7 C15_7 1_555 1_555
H10_7 C16_7 1_555 1_555
C17_7 C16_7 1_555 1_555
H11_7 C17_7 1_555 1_555
C18_7 C14_7 1_555 1_555
C19_7 C18_7 1_555 1_555
C20_7 H12_6 1_555 1_555
C21_6 C20_7 1_555 1_555
N1_7 C17_7 1_555 1_555
N2_7 C19_7 1_555 1_555
Co3_4 N1_7 1_555 1_555
C18_7 N1_7 1_555 1_555
C20_7 N2_7 1_555 1_555
N2_7 Co3_4 1_555 1_555
C8_8 H6_8 1_555 1_555
C9_8 C8_8 1_555 1_555
H7_8 C9_8 1_555 1_555
C10_8 C9_8 1_555 1_555
H8_8 C10_8 1_555 1_555
C11_8 C7_8 1_555 1_555
C12_8 C11_8 1_555 1_555
N6_8 C7_8 1_555 1_555
O1_8 C1_8 1_555 1_555
O2_8 C1_8 1_555 1_555
O4_8 C12_8 1_555 1_555
Dy4_8 O4_8 1_555 1_555
C8_8 N6_8 1_555 1_555
C10_8 C11_8 1_555 1_555
C2_8 C3_8 1_555 1_555
C3_8 H3_8 1_555 1_555
C4_8 C3_8 1_555 1_555
H4_8 C4_8 1_555 1_555
C5_8 C4_8 1_555 1_555
H5_8 C5_8 1_555 1_555
C6_8 C2_8 1_555 1_555
C13_8 C14_8 1_555 1_555
C14_8 C15_8 1_555 1_555
C15_8 H9_8 1_555 1_555
C16_8 C15_8 1_555 1_555
H10_8 C16_8 1_555 1_555
C17_8 C16_8 1_555 1_555
H11_8 C17_8 1_555 1_555
C18_8 C14_8 1_555 1_555
C19_8 C18_8 1_555 1_555
C20_8 H12_7 1_555 1_555
C21_7 C20_8 1_555 1_555
H13_8 C21_7 1_555 1_555
C22_8 C21_7 1_555 1_555
H14_8 C22_8 1_555 1_555
C23_8 C19_8 1_555 1_555
C25_8 C26_8 1_555 1_555
C26_8 C27_8 1_555 1_555
C27_8 H15_8 1_555 1_555
C28_8 C27_8 1_555 1_555
H16_6 C28_8 1_555 1_555
C29_8 C28_8 1_555 1_555
H17_8 C29_8 1_555 1_555
C30_8 C26_8 1_555 1_555
C31_8 C30_8 1_555 1_555
C32_8 H18_8 1_555 1_555
C33_8 C32_8 1_555 1_555
H19_8 C33_8 1_555 1_555
C34_8 C33_8 1_555 1_555
H20_8 C34_8 1_555 1_555
C35_8 C31_8 1_555 1_555
C36_8 C35_8 1_555 1_555
C37_8 C38_8 1_555 1_555
C38_8 C39_8 1_555 1_555
C39_8 H21_7 1_555 1_555
C40_7 C39_8 1_555 1_555
H22_7 C40_7 1_555 1_555
C41_7 C40_7 1_555 1_555
H23_7 C41_7 1_555 1_555
C42_8 C38_8 1_555 1_555
C43_8 C42_8 1_555 1_555
C44_8 H24_8 1_555 1_555
C45_8 C44_8 1_555 1_555
H25_8 C45_8 1_555 1_555
C46_8 C45_8 1_555 1_555
H26_8 C46_8 1_555 1_555
C47_8 C43_8 1_555 1_555
C48_8 C47_8 1_555 1_555
N1_8 C17_8 1_555 1_555
N2_8 C19_8 1_555 1_555
N3_8 C29_8 1_555 1_555
N4_8 C31_8 1_555 1_555
N5_8 C5_8 1_555 1_555
N7_8 C43_8 1_555 1_555
N8_8 C41_7 1_555 1_555
O5_8 C13_8 1_555 1_555
O6_8 C13_8 1_555 1_555
O9_8 C36_8 1_555 1_555
O10_8 C36_8 1_555 1_555
O11_8 C25_8 1_555 1_555
O12_8 C25_8 1_555 1_555
O13_8 H27_8 1_555 1_555
H28_8 O13_8 1_555 1_555
O14_8 H29_8 1_555 1_555
H30_8 O14_8 1_555 1_555
O15_8 H31_8 1_555 1_555
H32_8 O15_8 1_555 1_555
O16_8 C48_8 1_555 1_555
O17_8 C48_8 1_555 1_555
O18_8 C37_8 1_555 1_555
O19_8 C37_8 1_555 1_555
O20_8 H33_8 1_555 1_555
H34_8 O20_8 1_555 1_555
O21_8 Dy1_8 1_555 1_555
O22_8 H35_8 1_555 1_555
H36_8 O22_8 1_555 1_555
Co1_8 N3_8 1_555 1_555
Dy1_8 O3_8 1_555 1_555
Dy4_8 O5_8 1_555 1_555
N9_8 Co1_8 1_555 1_555
N10_8 Co1_8 1_555 1_555
N11_8 Co1_8 1_555 1_555
N12_8 Co1_8 1_555 1_555
O24_8 Dy1_8 1_555 1_555
Co3_3 N1_8 1_555 1_555
Co2_4 N5_8 1_555 1_555
C6_8 N5_8 1_555 1_555
C18_8 N1_8 1_555 1_555
C20_8 N2_8 1_555 1_555
C22_8 C23_8 1_555 1_555
C30_8 N3_8 1_555 1_555
C32_8 N4_8 1_555 1_555
C34_8 C35_8 1_555 1_555
C42_8 N8_8 1_555 1_555
C44_8 N7_8 1_555 1_555
C46_8 C47_8 1_555 1_555
N2_8 Co3_3 1_555 1_555
N4_8 Co1_8 1_555 1_555
O11_8 Dy1_8 1_555 1_555
O12_8 Dy4_8 1_555 1_555
O13_8 Dy4_8 1_555 1_555
O14_8 Dy4_8 1_555 1_555
O15_8 Dy4_8 1_555 1_555
O16_8 Dy4_8 1_555 1_555
O17_8 Dy4_8 1_555 1_555
O18_8 Dy1_8 1_555 1_555
O19_8 Dy1_8 1_555 1_555
O20_8 Dy1_8 1_555 1_555
O22_8 Dy1_8 1_555 1_555
O24_8 C24_8 1_555 1_555
C29_9 C28_9 1_555 1_555
H17_9 C29_9 1_555 1_555
C32_9 H18_9 1_555 1_555
N3_9 C29_9 1_555 1_555
Co2 N3_9 1_555 1_555
C32_9 N4_9 1_555 1_555
N4_9 Co2 1_555 1_555
H14_9 C22_9 1_555 1_555
C24_9 C23_9 1_555 1_555
C25_9 C26_9 1_555 1_555
C26_9 C27_9 1_555 1_555
C30_9 C26_9 1_555 1_555
C31_9 C30_9 1_555 1_555
H19_9 C33_9 1_555 1_555
C34_9 C33_9 1_555 1_555
H20_9 C34_9 1_555 1_555
C35_9 C31_9 1_555 1_555
C36_9 C35_9 1_555 1_555
C37_9 C38_9 1_555 1_555
C38_9 C39_9 1_555 1_555
C42_9 C38_9 1_555 1_555
C43_9 C42_9 1_555 1_555
C44_9 H24_9 1_555 1_555
C45_9 C44_9 1_555 1_555
H25_9 C45_9 1_555 1_555
C46_9 C45_9 1_555 1_555
H26_9 C46_9 1_555 1_555
C47_9 C43_9 1_555 1_555
C48_9 C47_9 1_555 1_555
N7_9 C43_9 1_555 1_555
O5_9 C13_9 1_555 1_555
O6_9 C13_9 1_555 1_555
O7 C24_9 1_555 1_555
O8 C24_9 1_555 1_555
O9_9 C36_9 1_555 1_555
O10_9 C36_9 1_555 1_555
O11_9 C25_9 1_555 1_555
O12_9 C25_9 1_555 1_555
O13_9 H27_9 1_555 1_555
H28_9 O13_9 1_555 1_555
O14_9 H29_9 1_555 1_555
H30_9 O14_9 1_555 1_555
O15_9 H31_9 1_555 1_555
H32_9 O15_9 1_555 1_555
O16_9 C48_9 1_555 1_555
O17_9 C48_9 1_555 1_555
O18_9 C37_9 1_555 1_555
O20_9 H33_9 1_555 1_555
H34_9 O20_9 1_555 1_555
Dy2 O5_9 1_555 1_555
O23 Dy2 1_555 1_555
Dy3 O7 1_555 1_555
C22_9 C23_9 1_555 1_555
C34_9 C35_9 1_555 1_555
C42_9 N8_9 1_555 1_555
C44_9 N7_9 1_555 1_555
C46_9 C47_9 1_555 1_555
O8 Dy3 1_555 1_555
O12_9 Dy2 1_555 1_555
O13_9 Dy2 1_555 1_555
O14_9 Dy2 1_555 1_555
O15_9 Dy2 1_555 1_555
O16_9 Dy2 1_555 1_555
O17_9 Dy2 1_555 1_555
H1_9 O21_9 1_555 1_555
H2_9 O21_9 1_555 1_555
C1_9 C2_9 1_555 1_555
C2_9 C3_9 1_555 1_555
C3_9 H3_9 1_555 1_555
C4_9 C3_9 1_555 1_555
C5_9 C4_9 1_555 1_555
C6_9 C2_9 1_555 1_555
C7_9 C6_9 1_555 1_555
C8_9 H6_9 1_555 1_555
C9_9 C8_9 1_555 1_555
H7_9 C9_9 1_555 1_555
C10_9 C9_9 1_555 1_555
H8_9 C10_9 1_555 1_555
C11_9 C7_9 1_555 1_555
C12_9 C11_9 1_555 1_555
N11_2 C5_9 1_555 1_555
N12_2 C7_9 1_555 1_555
O1_9 C1_9 1_555 1_555
O2_9 C1_9 1_555 1_555
O3_9 C12_9 1_555 1_555
O23 C12_9 1_555 1_555
O21_9 Dy3 1_555 1_555
O22_9 H35_9 1_555 1_555
H36_9 O22_9 1_555 1_555
Dy3 O3_9 1_555 1_555
C6_9 N11_2 1_555 1_555
C8_9 N12_2 1_555 1_555
C10_9 C11_9 1_555 1_555
O19_9 Dy3 1_555 1_555
O22_9 Dy3 1_555 1_555
C14_9 C15_9 1_555 1_555
C15_9 H9_9 1_555 1_555
C16_9 C15_9 1_555 1_555
H10_9 C16_9 1_555 1_555
C17_9 C16_9 1_555 1_555
H11_9 C17_9 1_555 1_555
C18_9 C14_9 1_555 1_555
C19_9 C18_9 1_555 1_555
H22_8 C40_8 1_555 1_555
C41_8 C40_8 1_555 1_555
H23_8 C41_8 1_555 1_555
N9 C17_9 1_555 1_555
N10 C19_9 1_555 1_555
C18_9 N9 1_555 1_555
C20_9 N10 1_555 1_555
C13_10 C14_10 1_555 1_555
C14_10 C15_10 1_555 1_555
C15_10 H9_10 1_555 1_555
C16_10 C15_10 1_555 1_555
H10_10 C16_10 1_555 1_555
C17_10 C16_10 1_555 1_555
H11_10 C17_10 1_555 1_555
C18_10 C14_10 1_555 1_555
C19_10 C18_10 1_555 1_555
C20_10 H12_8 1_555 1_555
C21_8 C20_10 1_555 1_555
H13_10 C21_8 1_555 1_555
C22_10 C21_8 1_555 1_555
H14_10 C22_10 1_555 1_555
C23_10 C19_10 1_555 1_555
C24_10 C23_10 1_555 1_555
C32_10 H18_10 1_555 1_555
C33_10 C32_10 1_555 1_555
H19_10 C33_10 1_555 1_555
C34_10 C33_10 1_555 1_555
H20_10 C34_10 1_555 1_555
C35_10 C31_10 1_555 1_555
N9_6 C17_10 1_555 1_555
N10_6 C19_10 1_555 1_555
N4_10 C31_10 1_555 1_555
O5_10 C13_10 1_555 1_555
O6_10 C13_10 1_555 1_555
O7_2 C24_10 1_555 1_555
O8_2 C24_10 1_555 1_555
O13_10 H27_10 1_555 1_555
H28_10 O13_10 1_555 1_555
O14_10 H29_10 1_555 1_555
H30_10 O14_10 1_555 1_555
O17_10 C48_10 1_555 1_555
Dy2_2 O5_10 1_555 1_555
O23_2 Dy2_2 1_555 1_555
Dy3_2 O7_2 1_555 1_555
C18_10 N9_6 1_555 1_555
C20_10 N10_6 1_555 1_555
C22_10 C23_10 1_555 1_555
C32_10 N4_10 1_555 1_555
C34_10 C35_10 1_555 1_555
N4_10 Co3 1_555 1_555
O8_2 Dy3_2 1_555 1_555
O13_10 Dy2_2 1_555 1_555
O14_10 Dy2_2 1_555 1_555
O17_10 Dy2_2 1_555 1_555
H1_10 O21_10 1_555 1_555
H2_10 O21_10 1_555 1_555
C1_10 C2_10 1_555 1_555
C2_10 C3_10 1_555 1_555
C3_10 H3_10 1_555 1_555
C4_10 C3_10 1_555 1_555
H4_10 C4_10 1_555 1_555
C5_10 C4_10 1_555 1_555
H5_10 C5_10 1_555 1_555
C6_10 C2_10 1_555 1_555
C7_10 C6_10 1_555 1_555
C8_10 H6_10 1_555 1_555
C9_10 C8_10 1_555 1_555
H7_10 C9_10 1_555 1_555
C10_10 C9_10 1_555 1_555
H8_10 C10_10 1_555 1_555
C11_10 C7_10 1_555 1_555
C12_10 C11_10 1_555 1_555
C25_10 C26_10 1_555 1_555
C26_10 C27_10 1_555 1_555
C27_10 H15_10 1_555 1_555
C28_10 C27_10 1_555 1_555
H16_7 C28_10 1_555 1_555
C29_10 C28_10 1_555 1_555
H17_10 C29_10 1_555 1_555
C30_10 C26_10 1_555 1_555
C37_10 C38_10 1_555 1_555
C38_10 C39_10 1_555 1_555
C39_10 H21_9 1_555 1_555
C40_9 C39_10 1_555 1_555
H22_9 C40_9 1_555 1_555
C41_9 C40_9 1_555 1_555
C42_10 C38_10 1_555 1_555
C43_10 C42_10 1_555 1_555
C44_10 H24_10 1_555 1_555
C45_10 C44_10 1_555 1_555
H25_10 C45_10 1_555 1_555
C46_10 C45_10 1_555 1_555
H26_10 C46_10 1_555 1_555
C47_10 C43_10 1_555 1_555
N3_10 C29_10 1_555 1_555
N11_3 C5_10 1_555 1_555
N12_3 C7_10 1_555 1_555
N7_10 C43_10 1_555 1_555
N8_10 C41_9 1_555 1_555
O1_10 C1_10 1_555 1_555
O2_10 C1_10 1_555 1_555
O3_10 C12_10 1_555 1_555
O23_2 C12_10 1_555 1_555
O9_10 C36_10 1_555 1_555
O10_10 C36_10 1_555 1_555
O11_10 C25_10 1_555 1_555
O12_10 C25_10 1_555 1_555
O15_10 H31_10 1_555 1_555
O18_10 C37_10 1_555 1_555
O19_10 C37_10 1_555 1_555
O20_10 H33_10 1_555 1_555
H34_10 O20_10 1_555 1_555
O21_10 Dy3_2 1_555 1_555
O22_10 H35_10 1_555 1_555
H36_10 O22_10 1_555 1_555
Dy3_2 O3_10 1_555 1_555
C6_10 N11_3 1_555 1_555
C8_10 N12_3 1_555 1_555
C10_10 C11_10 1_555 1_555
C30_10 N3_10 1_555 1_555
C42_10 N8_10 1_555 1_555
C44_10 N7_10 1_555 1_555
C46_10 C47_10 1_555 1_555
O11_10 Dy3_2 1_555 1_555
O18_10 Dy3_2 1_555 1_555
O19_10 Dy3_2 1_555 1_555
O20_10 Dy3_2 1_555 1_555
O22_10 Dy3_2 1_555 1_555
C13_11 C14_11 1_555 1_555
C14_11 C15_11 1_555 1_555
C15_11 H9_11 1_555 1_555
C16_11 C15_11 1_555 1_555
H10_11 C16_11 1_555 1_555
C17_11 C16_11 1_555 1_555
H11_11 C17_11 1_555 1_555
C18_11 C14_11 1_555 1_555
C19_11 C18_11 1_555 1_555
H14_11 C22_11 1_555 1_555
C23_11 C19_11 1_555 1_555
C24_11 C23_11 1_555 1_555
C25_11 C26_11 1_555 1_555
C26_11 C27_11 1_555 1_555
C30_11 C26_11 1_555 1_555
C31_11 C30_11 1_555 1_555
H19_11 C33_11 1_555 1_555
C34_11 C33_11 1_555 1_555
H20_11 C34_11 1_555 1_555
C35_11 C31_11 1_555 1_555
C36_11 C35_11 1_555 1_555
C37_11 C38_11 1_555 1_555
C38_11 C39_11 1_555 1_555
C39_11 H21_10 1_555 1_555
C40_10 C39_11 1_555 1_555
H22_10 C40_10 1_555 1_555
C41_10 C40_10 1_555 1_555
H23_10 C41_10 1_555 1_555
C42_11 C38_11 1_555 1_555
C43_11 C42_11 1_555 1_555
C44_11 H24_11 1_555 1_555
C45_11 C44_11 1_555 1_555
H25_11 C45_11 1_555 1_555
C46_11 C45_11 1_555 1_555
H26_11 C46_11 1_555 1_555
C47_11 C43_11 1_555 1_555
C48_11 C47_11 1_555 1_555
N9_3 C17_11 1_555 1_555
N10_3 C19_11 1_555 1_555
N7_11 C43_11 1_555 1_555
N8_11 C41_10 1_555 1_555
O5_11 C13_11 1_555 1_555
O6_11 C13_11 1_555 1_555
O7_3 C24_11 1_555 1_555
O8_3 C24_11 1_555 1_555
O9_11 C36_11 1_555 1_555
O10_11 C36_11 1_555 1_555
O11_11 C25_11 1_555 1_555
O12_11 C25_11 1_555 1_555
O13_11 H27_11 1_555 1_555
H28_11 O13_11 1_555 1_555
O14_11 H29_11 1_555 1_555
H30_11 O14_11 1_555 1_555
O15_11 H31_11 1_555 1_555
H32_11 O15_11 1_555 1_555
O16_11 C48_11 1_555 1_555
O17_11 C48_11 1_555 1_555
O18_11 C37_11 1_555 1_555
O20_11 H33_11 1_555 1_555
H34_11 O20_11 1_555 1_555
Dy2_3 O5_11 1_555 1_555
O23_3 Dy2_3 1_555 1_555
Dy3_3 O7_3 1_555 1_555
C18_11 N9_3 1_555 1_555
C20_11 N10_3 1_555 1_555
C22_11 C23_11 1_555 1_555
C34_11 C35_11 1_555 1_555
C42_11 N8_11 1_555 1_555
C44_11 N7_11 1_555 1_555
C46_11 C47_11 1_555 1_555
O8_3 Dy3_3 1_555 1_555
O12_11 Dy2_3 1_555 1_555
O13_11 Dy2_3 1_555 1_555
O14_11 Dy2_3 1_555 1_555
O15_11 Dy2_3 1_555 1_555
O16_11 Dy2_3 1_555 1_555
O17_11 Dy2_3 1_555 1_555
H1_11 O21_11 1_555 1_555
H2_11 O21_11 1_555 1_555
C1_11 C2_11 1_555 1_555
C2_11 C3_11 1_555 1_555
C3_11 H3_11 1_555 1_555
C4_11 C3_11 1_555 1_555
C5_11 C4_11 1_555 1_555
C6_11 C2_11 1_555 1_555
C7_11 C6_11 1_555 1_555
C8_11 H6_11 1_555 1_555
C9_11 C8_11 1_555 1_555
H7_11 C9_11 1_555 1_555
C10_11 C9_11 1_555 1_555
H8_11 C10_11 1_555 1_555
C11_11 C7_11 1_555 1_555
C12_11 C11_11 1_555 1_555
N11_4 C5_11 1_555 1_555
N12_4 C7_11 1_555 1_555
O1_11 C1_11 1_555 1_555
O2_11 C1_11 1_555 1_555
O3_11 C12_11 1_555 1_555
O23_3 C12_11 1_555 1_555
O21_11 Dy3_3 1_555 1_555
O22_11 H35_11 1_555 1_555
H36_11 O22_11 1_555 1_555
Dy3_3 O3_11 1_555 1_555
C6_11 N11_4 1_555 1_555
C8_11 N12_4 1_555 1_555
C10_11 C11_11 1_555 1_555
O19_11 Dy3_3 1_555 1_555
O22_11 Dy3_3 1_555 1_555
H13_11 C21_9 1_555 1_555
C29_11 C28_11 1_555 1_555
H17_11 C29_11 1_555 1_555
C32_11 H18_11 1_555 1_555
N3_11 C29_11 1_555 1_555
Co3_2 N3_11 1_555 1_555
C32_11 N4_11 1_555 1_555
N4_11 Co3_2 1_555 1_555
C13_12 C14_12 1_555 1_555
C14_12 C15_12 1_555 1_555
C15_12 H9_12 1_555 1_555
C16_12 C15_12 1_555 1_555
H10_12 C16_12 1_555 1_555
C17_12 C16_12 1_555 1_555
H11_12 C17_12 1_555 1_555
C18_12 C14_12 1_555 1_555
C19_12 C18_12 1_555 1_555
C20_12 H12_10 1_555 1_555
C21_10 C20_12 1_555 1_555
H13_12 C21_10 1_555 1_555
C22_12 C21_10 1_555 1_555
H14_12 C22_12 1_555 1_555
C23_12 C19_12 1_555 1_555
C24_12 C23_12 1_555 1_555
C32_12 H18_12 1_555 1_555
C33_12 C32_12 1_555 1_555
H19_12 C33_12 1_555 1_555
C34_12 C33_12 1_555 1_555
H20_12 C34_12 1_555 1_555
C35_12 C31_12 1_555 1_555
N9_8 C17_12 1_555 1_555
N10_8 C19_12 1_555 1_555
N4_12 C31_12 1_555 1_555
O5_12 C13_12 1_555 1_555
O6_12 C13_12 1_555 1_555
O7_4 C24_12 1_555 1_555
O8_4 C24_12 1_555 1_555
O13_12 H27_12 1_555 1_555
H28_12 O13_12 1_555 1_555
O14_12 H29_12 1_555 1_555
H30_12 O14_12 1_555 1_555
O17_12 C48_12 1_555 1_555
Dy2_4 O5_12 1_555 1_555
O23_4 Dy2_4 1_555 1_555
Dy3_4 O7_4 1_555 1_555
C18_12 N9_8 1_555 1_555
C20_12 N10_8 1_555 1_555
C22_12 C23_12 1_555 1_555
C32_12 N4_12 1_555 1_555
C34_12 C35_12 1_555 1_555
N4_12 Co3_3 1_555 1_555
O8_4 Dy3_4 1_555 1_555
O13_12 Dy2_4 1_555 1_555
O14_12 Dy2_4 1_555 1_555
O17_12 Dy2_4 1_555 1_555
H1_12 O21_12 1_555 1_555
H2_12 O21_12 1_555 1_555
C1_12 C2_12 1_555 1_555
C2_12 C3_12 1_555 1_555
C3_12 H3_12 1_555 1_555
C4_12 C3_12 1_555 1_555
H4_12 C4_12 1_555 1_555
C5_12 C4_12 1_555 1_555
H5_12 C5_12 1_555 1_555
C6_12 C2_12 1_555 1_555
C7_12 C6_12 1_555 1_555
C8_12 H6_12 1_555 1_555
C9_12 C8_12 1_555 1_555
H7_12 C9_12 1_555 1_555
C10_12 C9_12 1_555 1_555
H8_12 C10_12 1_555 1_555
C11_12 C7_12 1_555 1_555
C12_12 C11_12 1_555 1_555
C25_12 C26_12 1_555 1_555
C26_12 C27_12 1_555 1_555
C27_12 H15_12 1_555 1_555
C28_12 C27_12 1_555 1_555
H16_8 C28_12 1_555 1_555
C29_12 C28_12 1_555 1_555
H17_12 C29_12 1_555 1_555
C30_12 C26_12 1_555 1_555
C37_12 C38_12 1_555 1_555
C38_12 C39_12 1_555 1_555
C39_12 H21_11 1_555 1_555
C40_11 C39_12 1_555 1_555
H22_11 C40_11 1_555 1_555
C41_11 C40_11 1_555 1_555
C42_12 C38_12 1_555 1_555
C43_12 C42_12 1_555 1_555
C44_12 H24_12 1_555 1_555
C45_12 C44_12 1_555 1_555
H25_12 C45_12 1_555 1_555
C46_12 C45_12 1_555 1_555
H26_12 C46_12 1_555 1_555
C47_12 C43_12 1_555 1_555
N3_12 C29_12 1_555 1_555
N11 C5_12 1_555 1_555
N12 C7_12 1_555 1_555
N7_12 C43_12 1_555 1_555
N8_12 C41_11 1_555 1_555
O1_12 C1_12 1_555 1_555
O2_12 C1_12 1_555 1_555
O3_12 C12_12 1_555 1_555
O23_4 C12_12 1_555 1_555
O9_12 C36_12 1_555 1_555
O10_12 C36_12 1_555 1_555
O11_12 C25_12 1_555 1_555
O12_12 C25_12 1_555 1_555
O15_12 H31_12 1_555 1_555
O18_12 C37_12 1_555 1_555
O19_12 C37_12 1_555 1_555
O20_12 H33_12 1_555 1_555
H34_12 O20_12 1_555 1_555
O21_12 Dy3_4 1_555 1_555
O22_12 H35_12 1_555 1_555
H36_12 O22_12 1_555 1_555
Dy3_4 O3_12 1_555 1_555
C6_12 N11 1_555 1_555
C8_12 N12 1_555 1_555
C10_12 C11_12 1_555 1_555
C30_12 N3_12 1_555 1_555
C42_12 N8_12 1_555 1_555
C44_12 N7_12 1_555 1_555
C46_12 C47_12 1_555 1_555
O11_12 Dy3_4 1_555 1_555
O18_12 Dy3_4 1_555 1_555
O19_12 Dy3_4 1_555 1_555
O20_12 Dy3_4 1_555 1_555
O22_12 Dy3_4 1_555 1_555
C13_13 C14_13 1_555 1_555
C14_13 C15_13 1_555 1_555
C15_13 H9_13 1_555 1_555
C16_13 C15_13 1_555 1_555
H10_13 C16_13 1_555 1_555
C17_13 C16_13 1_555 1_555
H11_13 C17_13 1_555 1_555
C18_13 C14_13 1_555 1_555
C19_13 C18_13 1_555 1_555
C20_13 H12_11 1_555 1_555
C21_11 C20_13 1_555 1_555
H13_13 C21_11 1_555 1_555
C22_13 C21_11 1_555 1_555
H14_13 C22_13 1_555 1_555
C23_13 C19_13 1_555 1_555
C24_13 C23_13 1_555 1_555
N9_5 C17_13 1_555 1_555
N10_5 C19_13 1_555 1_555
O5_13 C13_13 1_555 1_555
O7_5 C24_13 1_555 1_555
O8_5 C24_13 1_555 1_555
H30_13 O14_13 1_555 1_555
Dy3_5 O7_5 1_555 1_555
C18_13 N9_5 1_555 1_555
C20_13 N10_5 1_555 1_555
C22_13 C23_13 1_555 1_555
O8_5 Dy3_5 1_555 1_555
H1_13 O21_13 1_555 1_555
H2_13 O21_13 1_555 1_555
C1_13 C2_13 1_555 1_555
C2_13 C3_13 1_555 1_555
C3_13 H3_13 1_555 1_555
C4_13 C3_13 1_555 1_555
H4_13 C4_13 1_555 1_555
C5_13 C4_13 1_555 1_555
H5_13 C5_13 1_555 1_555
C6_13 C2_13 1_555 1_555
C7_13 C6_13 1_555 1_555
C8_13 H6_13 1_555 1_555
C9_13 C8_13 1_555 1_555
C10_13 C9_13 1_555 1_555
C11_13 C7_13 1_555 1_555
C12_13 C11_13 1_555 1_555
C25_13 C26_13 1_555 1_555
C26_13 C27_13 1_555 1_555
C27_13 H15_13 1_555 1_555
C28_13 C27_13 1_555 1_555
H16_9 C28_13 1_555 1_555
C29_13 C28_13 1_555 1_555
H17_13 C29_13 1_555 1_555
C30_13 C26_13 1_555 1_555
C31_13 C30_13 1_555 1_555
C33_13 C32_13 1_555 1_555
C34_13 C33_13 1_555 1_555
H20_13 C34_13 1_555 1_555
C35_13 C31_13 1_555 1_555
C36_13 C35_13 1_555 1_555
C37_13 C38_13 1_555 1_555
C38_13 C39_13 1_555 1_555
C39_13 H21_12 1_555 1_555
C40_12 C39_13 1_555 1_555
H22_12 C40_12 1_555 1_555
C41_12 C40_12 1_555 1_555
H23_12 C41_12 1_555 1_555
C42_13 C38_13 1_555 1_555
C43_13 C42_13 1_555 1_555
C44_13 H24_13 1_555 1_555
C45_13 C44_13 1_555 1_555
H25_13 C45_13 1_555 1_555
C46_13 C45_13 1_555 1_555
H26_13 C46_13 1_555 1_555
C47_13 C43_13 1_555 1_555
C48_13 C47_13 1_555 1_555
N3_13 C29_13 1_555 1_555
N4_13 C31_13 1_555 1_555
N11_6 C5_13 1_555 1_555
N12_6 C7_13 1_555 1_555
N7_13 C43_13 1_555 1_555
N8_13 C41_12 1_555 1_555
O1_13 C1_13 1_555 1_555
O2_13 C1_13 1_555 1_555
O3_13 C12_13 1_555 1_555
O23_5 C12_13 1_555 1_555
O9_13 C36_13 1_555 1_555
O10_13 C36_13 1_555 1_555
O11_13 C25_13 1_555 1_555
O12_13 C25_13 1_555 1_555
O13_13 H27_13 1_555 1_555
H28_13 O13_13 1_555 1_555
O15_13 H31_13 1_555 1_555
H32_13 O15_13 1_555 1_555
O16_13 C48_13 1_555 1_555
O17_13 C48_13 1_555 1_555
O18_13 C37_13 1_555 1_555
O19_13 C37_13 1_555 1_555
O20_13 H33_13 1_555 1_555
H34_13 O20_13 1_555 1_555
O21_13 Dy3_5 1_555 1_555
O22_13 H35_13 1_555 1_555
H36_13 O22_13 1_555 1_555
Co2_4 N3_13 1_555 1_555
Dy3_5 O3_13 1_555 1_555
C6_13 N11_6 1_555 1_555
C8_13 N12_6 1_555 1_555
C10_13 C11_13 1_555 1_555
C30_13 N3_13 1_555 1_555
C32_13 N4_13 1_555 1_555
C34_13 C35_13 1_555 1_555
C42_13 N8_13 1_555 1_555
C44_13 N7_13 1_555 1_555
C46_13 C47_13 1_555 1_555
N4_13 Co2_4 1_555 1_555
O11_13 Dy3_5 1_555 1_555
O12_13 Dy2_5 1_555 1_555
O13_13 Dy2_5 1_555 1_555
O15_13 Dy2_5 1_555 1_555
O16_13 Dy2_5 1_555 1_555
O17_13 Dy2_5 1_555 1_555
O18_13 Dy3_5 1_555 1_555
O19_13 Dy3_5 1_555 1_555
O20_13 Dy3_5 1_555 1_555
O22_13 Dy3_5 1_555 1_555
O7_6 C24_14 1_555 1_555
Dy3_6 O7_6 1_555 1_555
C2_14 C3_14 1_555 1_555
C3_14 H3_14 1_555 1_555
C4_14 C3_14 1_555 1_555
H4_14 C4_14 1_555 1_555
C5_14 C4_14 1_555 1_555
H5_14 C5_14 1_555 1_555
C6_14 C2_14 1_555 1_555
C13_14 C14_14 1_555 1_555
C14_14 C15_14 1_555 1_555
C15_14 H9_14 1_555 1_555
C16_14 C15_14 1_555 1_555
H10_14 C16_14 1_555 1_555
C17_14 C16_14 1_555 1_555
H11_14 C17_14 1_555 1_555
C18_14 C14_14 1_555 1_555
C19_14 C18_14 1_555 1_555
C20_14 H12_12 1_555 1_555
C21_12 C20_14 1_555 1_555
H13_14 C21_12 1_555 1_555
C22_14 C21_12 1_555 1_555
H14_14 C22_14 1_555 1_555
C23_14 C19_14 1_555 1_555
C25_14 C26_14 1_555 1_555
C26_14 C27_14 1_555 1_555
C27_14 H15_14 1_555 1_555
C28_14 C27_14 1_555 1_555
H16_10 C28_14 1_555 1_555
C29_14 C28_14 1_555 1_555
H17_14 C29_14 1_555 1_555
C30_14 C26_14 1_555 1_555
C31_14 C30_14 1_555 1_555
C32_14 H18_14 1_555 1_555
C33_14 C32_14 1_555 1_555
H19_14 C33_14 1_555 1_555
C34_14 C33_14 1_555 1_555
H20_14 C34_14 1_555 1_555
C35_14 C31_14 1_555 1_555
C36_14 C35_14 1_555 1_555
C37_14 C38_14 1_555 1_555
C38_14 C39_14 1_555 1_555
C39_14 H21_13 1_555 1_555
C40_13 C39_14 1_555 1_555
H22_13 C40_13 1_555 1_555
C41_13 C40_13 1_555 1_555
H23_13 C41_13 1_555 1_555
C42_14 C38_14 1_555 1_555
C43_14 C42_14 1_555 1_555
C44_14 H24_14 1_555 1_555
C45_14 C44_14 1_555 1_555
H25_14 C45_14 1_555 1_555
C46_14 C45_14 1_555 1_555
H26_14 C46_14 1_555 1_555
C47_14 C43_14 1_555 1_555
C48_14 C47_14 1_555 1_555
N9_2 C17_14 1_555 1_555
N10_2 C19_14 1_555 1_555
N3_14 C29_14 1_555 1_555
N4_14 C31_14 1_555 1_555
N11_7 C5_14 1_555 1_555
N7_14 C43_14 1_555 1_555
N8_14 C41_13 1_555 1_555
O5_14 C13_14 1_555 1_555
O6_14 C13_14 1_555 1_555
O9_14 C36_14 1_555 1_555
O10_14 C36_14 1_555 1_555
O11_14 C25_14 1_555 1_555
O12_14 C25_14 1_555 1_555
O13_14 H27_14 1_555 1_555
H28_14 O13_14 1_555 1_555
O14_14 H29_14 1_555 1_555
H30_14 O14_14 1_555 1_555
O15_14 H31_14 1_555 1_555
H32_14 O15_14 1_555 1_555
O16_14 C48_14 1_555 1_555
O17_14 C48_14 1_555 1_555
O18_14 C37_14 1_555 1_555
O19_14 C37_14 1_555 1_555
O20_14 H33_14 1_555 1_555
H34_14 O20_14 1_555 1_555
O21_14 Dy3_6 1_555 1_555
O22_14 H35_14 1_555 1_555
H36_14 O22_14 1_555 1_555
Co2_2 N3_14 1_555 1_555
Dy3_6 O3_14 1_555 1_555
Dy2_6 O5_14 1_555 1_555
O23_6 Dy2_6 1_555 1_555
C6_14 N11_7 1_555 1_555
C18_14 N9_2 1_555 1_555
C20_14 N10_2 1_555 1_555
C22_14 C23_14 1_555 1_555
C30_14 N3_14 1_555 1_555
C32_14 N4_14 1_555 1_555
C34_14 C35_14 1_555 1_555
C42_14 N8_14 1_555 1_555
C44_14 N7_14 1_555 1_555
C46_14 C47_14 1_555 1_555
N4_14 Co2_2 1_555 1_555
O11_14 Dy3_6 1_555 1_555
O12_14 Dy2_6 1_555 1_555
O13_14 Dy2_6 1_555 1_555
O14_14 Dy2_6 1_555 1_555
O15_14 Dy2_6 1_555 1_555
O16_14 Dy2_6 1_555 1_555
O17_14 Dy2_6 1_555 1_555
O18_14 Dy3_6 1_555 1_555
O19_14 Dy3_6 1_555 1_555
O20_14 Dy3_6 1_555 1_555
O22_14 Dy3_6 1_555 1_555
C8_14 H6_14 1_555 1_555
C9_14 C8_14 1_555 1_555
H7_14 C9_14 1_555 1_555
C10_14 C9_14 1_555 1_555
H8_14 C10_14 1_555 1_555
C11_14 C7_14 1_555 1_555
C12_14 C11_14 1_555 1_555
N12_7 C7_14 1_555 1_555
O1_14 C1_14 1_555 1_555
O2_14 C1_14 1_555 1_555
O23_6 C12_14 1_555 1_555
C8_14 N12_7 1_555 1_555
C10_14 C11_14 1_555 1_555
C14_15 C15_15 1_555 1_555
C15_15 H9_15 1_555 1_555
C16_15 C15_15 1_555 1_555
H10_15 C16_15 1_555 1_555
C17_15 C16_15 1_555 1_555
H11_15 C17_15 1_555 1_555
C18_15 C14_15 1_555 1_555
C19_15 C18_15 1_555 1_555
C20_15 H12_13 1_555 1_555
C21_13 C20_15 1_555 1_555
N9_7 C17_15 1_555 1_555
N10_7 C19_15 1_555 1_555
C18_15 N9_7 1_555 1_555
C20_15 N10_7 1_555 1_555
H14_15 C22_15 1_555 1_555
C24_15 C23_15 1_555 1_555
O5_15 C13_15 1_555 1_555
O7_7 C24_15 1_555 1_555
O8_7 C24_15 1_555 1_555
H30_15 O14_15 1_555 1_555
Dy3_7 O7_7 1_555 1_555
C22_15 C23_15 1_555 1_555
O8_7 Dy3_7 1_555 1_555
H1_15 O21_15 1_555 1_555
H2_15 O21_15 1_555 1_555
C1_15 C2_15 1_555 1_555
C2_15 C3_15 1_555 1_555
C3_15 H3_15 1_555 1_555
C4_15 C3_15 1_555 1_555
H4_15 C4_15 1_555 1_555
C5_15 C4_15 1_555 1_555
H5_15 C5_15 1_555 1_555
C6_15 C2_15 1_555 1_555
C7_15 C6_15 1_555 1_555
C8_15 H6_15 1_555 1_555
C9_15 C8_15 1_555 1_555
C10_15 C9_15 1_555 1_555
C11_15 C7_15 1_555 1_555
C12_15 C11_15 1_555 1_555
C25_15 C26_15 1_555 1_555
C26_15 C27_15 1_555 1_555
C27_15 H15_15 1_555 1_555
C28_15 C27_15 1_555 1_555
H16_11 C28_15 1_555 1_555
C29_15 C28_15 1_555 1_555
H17_15 C29_15 1_555 1_555
C30_15 C26_15 1_555 1_555
C31_15 C30_15 1_555 1_555
C33_15 C32_15 1_555 1_555
C34_15 C33_15 1_555 1_555
H20_15 C34_15 1_555 1_555
C35_15 C31_15 1_555 1_555
C36_15 C35_15 1_555 1_555
C37_15 C38_15 1_555 1_555
C38_15 C39_15 1_555 1_555
C42_15 C38_15 1_555 1_555
C43_15 C42_15 1_555 1_555
C44_15 H24_15 1_555 1_555
C45_15 C44_15 1_555 1_555
H25_15 C45_15 1_555 1_555
C46_15 C45_15 1_555 1_555
H26_15 C46_15 1_555 1_555
C47_15 C43_15 1_555 1_555
C48_15 C47_15 1_555 1_555
N3_15 C29_15 1_555 1_555
N4_15 C31_15 1_555 1_555
N11_8 C5_15 1_555 1_555
N12_8 C7_15 1_555 1_555
N7_15 C43_15 1_555 1_555
O1_15 C1_15 1_555 1_555
O2_15 C1_15 1_555 1_555
O3_15 C12_15 1_555 1_555
O23_7 C12_15 1_555 1_555
O9_15 C36_15 1_555 1_555
O10_15 C36_15 1_555 1_555
O11_15 C25_15 1_555 1_555
O12_15 C25_15 1_555 1_555
O13_15 H27_15 1_555 1_555
H28_15 O13_15 1_555 1_555
O15_15 H31_15 1_555 1_555
H32_15 O15_15 1_555 1_555
O16_15 C48_15 1_555 1_555
O17_15 C48_15 1_555 1_555
O18_15 C37_15 1_555 1_555
O19_15 C37_15 1_555 1_555
O20_15 H33_15 1_555 1_555
H34_15 O20_15 1_555 1_555
O21_15 Dy3_7 1_555 1_555
O22_15 H35_15 1_555 1_555
H36_15 O22_15 1_555 1_555
Co3_4 N3_15 1_555 1_555
Dy3_7 O3_15 1_555 1_555
C6_15 N11_8 1_555 1_555
C8_15 N12_8 1_555 1_555
C10_15 C11_15 1_555 1_555
C30_15 N3_15 1_555 1_555
C32_15 N4_15 1_555 1_555
C34_15 C35_15 1_555 1_555
C42_15 N8_15 1_555 1_555
C44_15 N7_15 1_555 1_555
C46_15 C47_15 1_555 1_555
N4_15 Co3_4 1_555 1_555
O11_15 Dy3_7 1_555 1_555
O12_15 Dy2_7 1_555 1_555
O13_15 Dy2_7 1_555 1_555
O15_15 Dy2_7 1_555 1_555
O16_15 Dy2_7 1_555 1_555
O17_15 Dy2_7 1_555 1_555
O18_15 Dy3_7 1_555 1_555
O19_15 Dy3_7 1_555 1_555
O20_15 Dy3_7 1_555 1_555
O22_15 Dy3_7 1_555 1_555
O7_8 C24_16 1_555 1_555
Dy3_8 O7_8 1_555 1_555
C2_16 C3_16 1_555 1_555
C3_16 H3_16 1_555 1_555
C4_16 C3_16 1_555 1_555
H4_16 C4_16 1_555 1_555
C5_16 C4_16 1_555 1_555
H5_16 C5_16 1_555 1_555
C6_16 C2_16 1_555 1_555
C13_16 C14_16 1_555 1_555
C14_16 C15_16 1_555 1_555
C15_16 H9_16 1_555 1_555
C16_16 C15_16 1_555 1_555
H10_16 C16_16 1_555 1_555
C17_16 C16_16 1_555 1_555
H11_16 C17_16 1_555 1_555
C18_16 C14_16 1_555 1_555
C19_16 C18_16 1_555 1_555
C20_16 H12_14 1_555 1_555
C21_14 C20_16 1_555 1_555
H13_16 C21_14 1_555 1_555
C22_16 C21_14 1_555 1_555
H14_16 C22_16 1_555 1_555
C23_16 C19_16 1_555 1_555
C25_16 C26_16 1_555 1_555
C26_16 C27_16 1_555 1_555
C27_16 H15_16 1_555 1_555
C28_16 C27_16 1_555 1_555
H16_12 C28_16 1_555 1_555
C29_16 C28_16 1_555 1_555
H17_16 C29_16 1_555 1_555
C30_16 C26_16 1_555 1_555
C31_16 C30_16 1_555 1_555
C32_16 H18_16 1_555 1_555
C33_16 C32_16 1_555 1_555
H19_16 C33_16 1_555 1_555
C34_16 C33_16 1_555 1_555
H20_16 C34_16 1_555 1_555
C35_16 C31_16 1_555 1_555
C36_16 C35_16 1_555 1_555
C37_16 C38_16 1_555 1_555
C38_16 C39_16 1_555 1_555
C39_16 H21_14 1_555 1_555
C40_14 C39_16 1_555 1_555
H22_14 C40_14 1_555 1_555
C41_14 C40_14 1_555 1_555
H23_14 C41_14 1_555 1_555
C42_16 C38_16 1_555 1_555
C43_16 C42_16 1_555 1_555
C44_16 H24_16 1_555 1_555
C45_16 C44_16 1_555 1_555
H25_16 C45_16 1_555 1_555
C46_16 C45_16 1_555 1_555
H26_16 C46_16 1_555 1_555
C47_16 C43_16 1_555 1_555
C48_16 C47_16 1_555 1_555
N9_4 C17_16 1_555 1_555
N10_4 C19_16 1_555 1_555
N3_16 C29_16 1_555 1_555
N4_16 C31_16 1_555 1_555
N11_5 C5_16 1_555 1_555
N7_16 C43_16 1_555 1_555
N8_16 C41_14 1_555 1_555
O5_16 C13_16 1_555 1_555
O6_16 C13_16 1_555 1_555
O9_16 C36_16 1_555 1_555
O10_16 C36_16 1_555 1_555
O11_16 C25_16 1_555 1_555
O12_16 C25_16 1_555 1_555
O13_16 H27_16 1_555 1_555
H28_16 O13_16 1_555 1_555
O14_16 H29_16 1_555 1_555
H30_16 O14_16 1_555 1_555
O15_16 H31_16 1_555 1_555
H32_16 O15_16 1_555 1_555
O16_16 C48_16 1_555 1_555
O17_16 C48_16 1_555 1_555
O18_16 C37_16 1_555 1_555
O19_16 C37_16 1_555 1_555
O20_16 H33_16 1_555 1_555
H34_16 O20_16 1_555 1_555
O21_16 Dy3_8 1_555 1_555
O22_16 H35_16 1_555 1_555
H36_16 O22_16 1_555 1_555
Co2_3 N3_16 1_555 1_555
Dy3_8 O3_16 1_555 1_555
Dy2_8 O5_16 1_555 1_555
O23_8 Dy2_8 1_555 1_555
C6_16 N11_5 1_555 1_555
C18_16 N9_4 1_555 1_555
C20_16 N10_4 1_555 1_555
C22_16 C23_16 1_555 1_555
C30_16 N3_16 1_555 1_555
C32_16 N4_16 1_555 1_555
C34_16 C35_16 1_555 1_555
C42_16 N8_16 1_555 1_555
C44_16 N7_16 1_555 1_555
C46_16 C47_16 1_555 1_555
N4_16 Co2_3 1_555 1_555
O11_16 Dy3_8 1_555 1_555
O12_16 Dy2_8 1_555 1_555
O13_16 Dy2_8 1_555 1_555
O14_16 Dy2_8 1_555 1_555
O15_16 Dy2_8 1_555 1_555
O16_16 Dy2_8 1_555 1_555
O17_16 Dy2_8 1_555 1_555
O18_16 Dy3_8 1_555 1_555
O19_16 Dy3_8 1_555 1_555
O20_16 Dy3_8 1_555 1_555
O22_16 Dy3_8 1_555 1_555
C8_16 H6_16 1_555 1_555
C9_16 C8_16 1_555 1_555
H7_16 C9_16 1_555 1_555
C10_16 C9_16 1_555 1_555
H8_16 C10_16 1_555 1_555
C11_16 C7_16 1_555 1_555
C12_16 C11_16 1_555 1_555
N12_5 C7_16 1_555 1_555
O1_16 C1_16 1_555 1_555
O2_16 C1_16 1_555 1_555
O23_8 C12_16 1_555 1_555
C8_16 N12_5 1_555 1_555
C10_16 C11_16 1_555 1_555
H22_15 C40_15 1_555 1_555
C41_15 C40_15 1_555 1_555
H23_15 C41_15 1_555 1_555
H22_16 C40_16 1_555 1_555
C41_16 C40_16 1_555 1_555
H23_16 C41_16 1_555 1_555

#END
