
###############################################################################
#
# This file contains modified crystal structure data generated from the
# MOF subset of the Cambridge Structural Database (CSD) v543 
# hosted by the Cambridge Crystallographic Data Centre (CCDC).
#
# This work is licensed under the Creative Commons
# Attribution-NonCommercial-ShareAlike 4.0 International License.
# To view a copy of this license, visit
# http://creativecommons.org/licenses/by-nc-sa/4.0/
# or send a letter to
# Creative Commons, PO Box 1866, Mountain View, CA 94042, USA.
#
# CIF created using the CSD Python API on 29 September 2022
# The structure has been converted into the P1 space group
# The structure has a 3D framework
# The original CSD entry MIFPUO is in the trigonal crystal system
# The framework has been calculated to contain at least 10.0% void space
# The void calculation uses a probe of radius 1.32A, grid spacing 0.4
# The framework is charged, counterions have been retained in the structure
#
###############################################################################

data_MIFPUO
_chemical_formula_moiety         '(C126 H78 Cl2 N24 Ni4 O12 1+)n'
_symmetry_cell_setting           triclinic
_symmetry_space_group_name_H-M   'P 1'
_symmetry_Int_Tables_number      1
_space_group_name_Hall           'P 1'
loop_
_symmetry_equiv_pos_site_id
_symmetry_equiv_pos_as_xyz
1 x,y,z
_cell_length_a                   16.954(5)
_cell_length_b                   16.954(5)
_cell_length_c                   13.846(5)
_cell_angle_alpha                90
_cell_angle_beta                 90
_cell_angle_gamma                120
_cell_volume                     3446.67
loop_
_atom_site_label
_atom_site_type_symbol
_atom_site_fract_x
_atom_site_fract_y
_atom_site_fract_z
Cl1 Cl 0.3333 0.6667 0.7500
Cl1_2 Cl 0.6667 0.3333 0.2500
N2 N 0.22807(15) 0.56117(15) 0.01594(16)
C7 C 0.1684(2) 0.46976(19) 0.0385(2)
C8 C 0.1738(2) 0.4147(2) 0.1102(2)
H4 H 0.2228 0.4371 0.1526
C9 C 0.1031(3) 0.3254(2) 0.1155(3)
H5 H 0.1042 0.2877 0.1636
C10 C 0.0299(3) 0.2904(2) 0.0505(3)
Ni8 Ni 0.3333 0.6667 0.10173(4)
N1 N 0.10945(16) 0.50599(16) 0.91417(17)
C4 C 0.05853(19) 0.50480(19) 0.83115(19)
C5 C 0.1068(3) 0.55338(13) 0.7500
H2 H 0.1701 0.5850 0.7500
C6 C 0.19060(18) 0.57878(19) 0.94243(19)
H3 H 0.2167 0.6354 0.9124
C11 C 0.0236(2) 0.3443(2) 0.9790(3)
C12 C 0.0934(2) 0.4342(2) 0.9746(2)
N3 N 0.10945(16) 0.60346(23) 0.58583(17)
N4 N 0.22807(15) 0.66690(21) 0.48406(16)
C14 C 0.05853(19) 0.55373(27) 0.66885(19)
C15 C 0.19060(18) 0.61182(26) 0.55757(19)
H9 H 0.2167 0.5813 0.5876
C16 C 0.1684(2) 0.69864(28) 0.4615(2)
C17 C 0.1738(2) 0.7591(3) 0.3898(2)
H10 H 0.2228 0.7857 0.3474
C18 C 0.1031(3) 0.7777(4) 0.3845(3)
H11 H 0.1042 0.8165 0.3364
C19 C 0.0299(3) 0.7395(4) 0.4495(3)
C20 C 0.0236(2) 0.6793(3) 0.5210(3)
C21 C 0.0934(2) 0.6592(3) 0.5254(2)
Ni5 Ni 0.3333 0.6667 0.39827(4)
H6 H 0.9845 0.2296 0.0553
N6 N 0.43883(15) 0.66690(21) 0.01594(16)
C28 C 0.53024(19) 0.69864(28) 0.0385(2)
C29 C 0.5853(2) 0.7591(3) 0.1102(2)
H17 H 0.5629 0.7857 0.1526
C30 C 0.6746(2) 0.7777(4) 0.1155(3)
H18 H 0.7123 0.8165 0.1636
C31 C 0.7096(2) 0.7395(4) 0.0505(3)
H19 H 0.7704 0.7549 0.0553
H32 H 0.2451 0.0155 0.0553
Ni1 Ni 0.6667 0.3333 0.60173(4)
O1 O 0.77689(13) 0.42358(13) 0.68064(13)
C1 C 0.8152(3) 0.40761(13) 0.7500
C2 C 0.9176(2) 0.45881(12) 0.7500
C3 C 0.96466(19) 0.45864(19) 0.8327(2)
H1 H 0.9332 0.4279 0.8880
H7 H 0.9749 0.3213 0.9361
O2 O 0.77689(13) 0.35331(18) 0.81936(13)
C13 C 0.96466(19) 0.50602(27) 0.6673(2)
H8 H 0.9332 0.5053 0.6120
H12 H 0.9845 0.7549 0.4447
H13 H 0.9749 0.6536 0.5639
O3 O 0.57642(13) 0.35331(18) 0.68064(13)
N5 N 0.49401(16) 0.60346(23) 0.91417(17)
C22 C 0.59239(13) 0.40759(33) 0.7500
C23 C 0.54119(12) 0.45879(23) 0.7500
C24 C 0.54136(19) 0.50602(27) 0.8327(2)
H14 H 0.5721 0.5053 0.8880
C25 C 0.49520(19) 0.55373(27) 0.83115(19)
C26 C 0.44662(13) 0.55342(33) 0.7500
H15 H 0.4150 0.5851 0.7500
C27 C 0.42122(19) 0.61182(26) 0.94243(19)
H16 H 0.3646 0.5813 0.9124
C32 C 0.6557(2) 0.6793(3) 0.9790(3)
H20 H 0.6787 0.6536 0.9361
C33 C 0.5658(2) 0.6592(3) 0.9746(2)
O4 O 0.64669(18) 0.42358(13) 0.81936(13)
N7 N 0.39654(23) 0.50599(16) 0.58583(17)
N8 N 0.33310(21) 0.56117(15) 0.48406(16)
C34 C 0.49398(27) 0.45864(19) 0.6673(2)
H21 H 0.4947 0.4279 0.6120
C35 C 0.44627(27) 0.50480(19) 0.66885(19)
C36 C 0.38818(26) 0.57878(19) 0.55757(19)
H22 H 0.4187 0.6354 0.5876
C37 C 0.30136(28) 0.46976(19) 0.4615(2)
C38 C 0.2409(3) 0.4147(2) 0.3898(2)
H23 H 0.2143 0.4371 0.3474
C39 C 0.2223(4) 0.3254(2) 0.3845(3)
H24 H 0.1835 0.2877 0.3364
C40 C 0.2605(4) 0.2904(2) 0.4495(3)
H25 H 0.2451 0.2296 0.4447
C41 C 0.3207(3) 0.3443(2) 0.5210(3)
H26 H 0.3464 0.3213 0.5639
C42 C 0.3408(3) 0.4342(2) 0.5254(2)
O5 O 0.64669(18) 0.22311(13) 0.68064(13)
C43 C 0.59241(33) 0.1848(3) 0.7500
C44 C 0.54121(23) 0.0824(2) 0.7500
C45 C 0.49398(27) 0.03534(19) 0.8327(2)
H27 H 0.4947 0.0668 0.8880
H33 H 0.3464 0.0251 0.9361
O6 O 0.57642(13) 0.22311(13) 0.81936(13)
C55 C 0.54136(19) 0.03534(19) 0.6673(2)
H34 H 0.5721 0.0668 0.6120
H38 H 0.7704 0.0155 0.4447
H39 H 0.6787 0.0251 0.5639
Ni2 Ni 0.6667 0.3333 0.89827(4)
N13 N 0.77193(15) 0.43883(15) 0.98406(16)
N14 N 0.56117(15) 0.33310(21) 0.98406(16)
N15 N 0.66690(21) 0.22807(15) 0.98406(16)
N16 N 0.56117(15) 0.22807(15) 0.51594(16)
N17 N 0.77193(15) 0.33310(21) 0.51594(16)
N18 N 0.66690(21) 0.43883(15) 0.51594(16)
N10 N 0.33310(21) 0.77193(15) 0.01594(16)
C49 C 0.30136(28) 0.8316(2) 0.0385(2)
C50 C 0.2409(3) 0.8262(2) 0.1102(2)
H30 H 0.2143 0.7772 0.1526
C51 C 0.2223(4) 0.8969(3) 0.1155(3)
H31 H 0.1835 0.8958 0.1636
C52 C 0.2605(4) 0.9701(3) 0.0505(3)
N9 N 0.39654(23) 0.89055(16) 0.91417(17)
C46 C 0.44627(27) 0.94147(19) 0.83115(19)
C47 C 0.44658(33) 0.8932(3) 0.7500
H28 H 0.4149 0.8299 0.7500
C48 C 0.38818(26) 0.80940(18) 0.94243(19)
H29 H 0.4187 0.7833 0.9124
C53 C 0.3207(3) 0.9764(2) 0.9790(3)
C54 C 0.3408(3) 0.9066(2) 0.9746(2)
N11 N 0.49401(16) 0.89055(16) 0.58583(17)
N12 N 0.43883(15) 0.77193(15) 0.48406(16)
C56 C 0.49520(19) 0.94147(19) 0.66885(19)
C57 C 0.42122(19) 0.80940(18) 0.55757(19)
H35 H 0.3646 0.7833 0.5876
C58 C 0.53024(19) 0.8316(2) 0.4615(2)
C59 C 0.5853(2) 0.8262(2) 0.3898(2)
H36 H 0.5629 0.7772 0.3474
C60 C 0.6746(2) 0.8969(3) 0.3845(3)
H37 H 0.7123 0.8958 0.3364
C61 C 0.7096(2) 0.9701(3) 0.4495(3)
C62 C 0.6557(2) 0.9764(2) 0.5210(3)
C63 C 0.5658(2) 0.9066(2) 0.5254(2)
N9_2 N 0.60346(23) 0.10945(16) 0.08583(17)
C46_2 C 0.55373(27) 0.05853(19) 0.16885(19)
C47_2 C 0.55342(33) 0.1068(3) 0.2500
H28_2 H 0.5851 0.1701 0.2500
C48_2 C 0.61182(26) 0.19060(18) 0.05757(19)
H29_2 H 0.5813 0.2167 0.0876
C53_2 C 0.6793(3) 0.0236(2) 0.0210(3)
C54_2 C 0.6592(3) 0.0934(2) 0.0254(2)
N11_2 N 0.50599(16) 0.10945(16) 0.41417(17)
C56_2 C 0.50480(19) 0.05853(19) 0.33115(19)
C57_2 C 0.57878(19) 0.19060(18) 0.44243(19)
H35_2 H 0.6354 0.2167 0.4124
C58_2 C 0.46976(19) 0.1684(2) 0.5385(2)
C59_2 C 0.4147(2) 0.1738(2) 0.6102(2)
H36_2 H 0.4371 0.2228 0.6526
C60_2 C 0.3254(2) 0.1031(3) 0.6155(3)
H37_2 H 0.2877 0.1042 0.6636
C61_2 C 0.2904(2) 0.0299(3) 0.5505(3)
C62_2 C 0.3443(2) 0.0236(2) 0.4790(3)
C63_2 C 0.4342(2) 0.0934(2) 0.4746(2)
C49_2 C 0.69864(28) 0.1684(2) 0.9615(2)
C50_2 C 0.7591(3) 0.1738(2) 0.8898(2)
H30_2 H 0.7857 0.2228 0.8474
C51_2 C 0.7777(4) 0.1031(3) 0.8845(3)
H31_2 H 0.8165 0.1042 0.8364
C52_2 C 0.7395(4) 0.0299(3) 0.9495(3)
O1_2 O 0.22311(13) 0.57642(13) 0.31936(13)
C1_2 C 0.1848(3) 0.59239(13) 0.2500
C2_2 C 0.0824(2) 0.54119(12) 0.2500
C3_2 C 0.03534(19) 0.54136(19) 0.1673(2)
H1_2 H 0.0668 0.5721 0.1120
H7_2 H 0.0251 0.6787 0.0639
O2_2 O 0.22311(13) 0.64669(18) 0.18064(13)
C13_2 C 0.03534(19) 0.49398(27) 0.3327(2)
H8_2 H 0.0668 0.4947 0.3880
H12_2 H 0.0155 0.2451 0.5553
H13_2 H 0.0251 0.3464 0.4361
O3_2 O 0.42358(13) 0.64669(18) 0.31936(13)
N5_2 N 0.50599(16) 0.39654(23) 0.08583(17)
C22_2 C 0.40761(13) 0.59241(33) 0.2500
C23_2 C 0.45881(12) 0.54121(23) 0.2500
C24_2 C 0.45864(19) 0.49398(27) 0.1673(2)
H14_2 H 0.4279 0.4947 0.1120
C25_2 C 0.50480(19) 0.44627(27) 0.16885(19)
C26_2 C 0.55338(13) 0.44658(33) 0.2500
H15_2 H 0.5850 0.4149 0.2500
C27_2 C 0.57878(19) 0.38818(26) 0.05757(19)
H16_2 H 0.6354 0.4187 0.0876
C32_2 C 0.3443(2) 0.3207(3) 0.0210(3)
H20_2 H 0.3213 0.3464 0.0639
C33_2 C 0.4342(2) 0.3408(3) 0.0254(2)
O4_2 O 0.35331(18) 0.57642(13) 0.18064(13)
N7_2 N 0.60346(23) 0.49401(16) 0.41417(17)
C34_2 C 0.50602(27) 0.54136(19) 0.3327(2)
H21_2 H 0.5053 0.5721 0.3880
C35_2 C 0.55373(27) 0.49520(19) 0.33115(19)
C36_2 C 0.61182(26) 0.42122(19) 0.44243(19)
H22_2 H 0.5813 0.3646 0.4124
C37_2 C 0.69864(28) 0.53024(19) 0.5385(2)
C38_2 C 0.7591(3) 0.5853(2) 0.6102(2)
H23_2 H 0.7857 0.5629 0.6526
C39_2 C 0.7777(4) 0.6746(2) 0.6155(3)
H24_2 H 0.8165 0.7123 0.6636
C40_2 C 0.7395(4) 0.7096(2) 0.5505(3)
H25_2 H 0.7549 0.7704 0.5553
C41_2 C 0.6793(3) 0.6557(2) 0.4790(3)
H26_2 H 0.6536 0.6787 0.4361
C42_2 C 0.6592(3) 0.5658(2) 0.4746(2)
O5_2 O 0.35331(18) 0.77689(13) 0.31936(13)
C43_2 C 0.40759(33) 0.8152(3) 0.2500
C44_2 C 0.45879(23) 0.9176(2) 0.2500
C45_2 C 0.50602(27) 0.96466(19) 0.1673(2)
H27_2 H 0.5053 0.9332 0.1120
H33_2 H 0.6536 0.9749 0.0639
O6_2 O 0.42358(13) 0.77689(13) 0.18064(13)
C55_2 C 0.45864(19) 0.96466(19) 0.3327(2)
H34_2 H 0.4279 0.9332 0.3880
H38_2 H 0.2296 0.9845 0.5553
H39_2 H 0.3213 0.9749 0.4361
H6_2 H 0.0155 0.7704 0.9447
C28_2 C 0.46976(19) 0.30136(28) 0.9615(2)
C29_2 C 0.4147(2) 0.2409(3) 0.8898(2)
H17_2 H 0.4371 0.2143 0.8474
C30_2 C 0.3254(2) 0.2223(4) 0.8845(3)
H18_2 H 0.2877 0.1835 0.8364
C31_2 C 0.2904(2) 0.2605(4) 0.9495(3)
H19_2 H 0.2296 0.2451 0.9447
H32_2 H 0.7549 0.9845 0.9447
N1_2 N 0.89055(16) 0.49401(16) 0.08583(17)
C4_2 C 0.94147(19) 0.49520(19) 0.16885(19)
C5_2 C 0.8932(3) 0.44662(13) 0.2500
H2_2 H 0.8299 0.4150 0.2500
C6_2 C 0.80940(18) 0.42122(19) 0.05757(19)
H3_2 H 0.7833 0.3646 0.0876
C11_2 C 0.9764(2) 0.6557(2) 0.0210(3)
C12_2 C 0.9066(2) 0.5658(2) 0.0254(2)
N3_2 N 0.89055(16) 0.39654(23) 0.41417(17)
C14_2 C 0.94147(19) 0.44627(27) 0.33115(19)
C15_2 C 0.80940(18) 0.38818(26) 0.44243(19)
H9_2 H 0.7833 0.4187 0.4124
C16_2 C 0.8316(2) 0.30136(28) 0.5385(2)
C17_2 C 0.8262(2) 0.2409(3) 0.6102(2)
H10_2 H 0.7772 0.2143 0.6526
C18_2 C 0.8969(3) 0.2223(4) 0.6155(3)
H11_2 H 0.8958 0.1835 0.6636
C19_2 C 0.9701(3) 0.2605(4) 0.5505(3)
C20_2 C 0.9764(2) 0.3207(3) 0.4790(3)
C21_2 C 0.9066(2) 0.3408(3) 0.4746(2)
C7_2 C 0.8316(2) 0.53024(19) 0.9615(2)
C8_2 C 0.8262(2) 0.5853(2) 0.8898(2)
H4_2 H 0.7772 0.5629 0.8474
C9_2 C 0.8969(3) 0.6746(2) 0.8845(3)
H5_2 H 0.8958 0.7123 0.8364
C10_2 C 0.9701(3) 0.7096(2) 0.9495(3)
loop_
_geom_bond_atom_site_label_1
_geom_bond_atom_site_label_2
_geom_bond_site_symmetry_1
_geom_bond_site_symmetry_2
C7 N2 1_555 1_555
C8 C7 1_555 1_555
H4 C8 1_555 1_555
C9 C8 1_555 1_555
H5 C9 1_555 1_555
C10 C9 1_555 1_555
Ni8 N2 1_555 1_555
N1 C4 1_555 1_555
C5 C4 1_555 1_555
H2 C5 1_555 1_555
C6 N1 1_555 1_555
H3 C6 1_555 1_555
C12 N1 1_555 1_555
N3 C14 1_555 1_555
N4 C15 1_555 1_555
C14 C5 1_555 1_555
C15 N3 1_555 1_555
H9 C15 1_555 1_555
C16 N4 1_555 1_555
C17 C16 1_555 1_555
H10 C17 1_555 1_555
C18 C17 1_555 1_555
H11 C18 1_555 1_555
C19 C18 1_555 1_555
C20 C19 1_555 1_555
C21 N3 1_555 1_555
Ni5 N4 1_555 1_555
C11 C12 1_555 1_555
C16 C21 1_555 1_555
C20 C21 1_555 1_555
C28 N6 1_555 1_555
C29 C28 1_555 1_555
H17 C29 1_555 1_555
C30 C29 1_555 1_555
H18 C30 1_555 1_555
C31 C30 1_555 1_555
H19 C31 1_555 1_555
Ni8 N6 1_555 1_555
Ni1 O1 1_555 1_555
O1 C1 1_555 1_555
C1 C2 1_555 1_555
C2 C3 1_555 1_555
C3 H1 1_555 1_555
O2 C1 1_555 1_555
C13 C2 1_555 1_555
H8 C13 1_555 1_555
O3 Ni1 1_555 1_555
N5 C25 1_555 1_555
C22 O3 1_555 1_555
C23 C22 1_555 1_555
C24 C23 1_555 1_555
H14 C24 1_555 1_555
C25 C24 1_555 1_555
C26 C25 1_555 1_555
H15 C26 1_555 1_555
C27 N5 1_555 1_555
H16 C27 1_555 1_555
H20 C32 1_555 1_555
C33 N5 1_555 1_555
O4 C22 1_555 1_555
N7 C35 1_555 1_555
N8 C36 1_555 1_555
C34 C23 1_555 1_555
H21 C34 1_555 1_555
C35 C26 1_555 1_555
C36 N7 1_555 1_555
H22 C36 1_555 1_555
C37 N8 1_555 1_555
C38 C37 1_555 1_555
H23 C38 1_555 1_555
C39 C38 1_555 1_555
H24 C39 1_555 1_555
C40 C39 1_555 1_555
H25 C40 1_555 1_555
C41 C40 1_555 1_555
H26 C41 1_555 1_555
C42 N7 1_555 1_555
O5 Ni1 1_555 1_555
C43 O5 1_555 1_555
C44 C43 1_555 1_555
C45 C44 1_555 1_555
H27 C45 1_555 1_555
O6 C43 1_555 1_555
C55 C44 1_555 1_555
H34 C55 1_555 1_555
Ni2 O2 1_555 1_555
Ni5 N8 1_555 1_555
N13 Ni2 1_555 1_555
N14 Ni2 1_555 1_555
N15 Ni2 1_555 1_555
N16 Ni1 1_555 1_555
N17 Ni1 1_555 1_555
N18 Ni1 1_555 1_555
C32 C33 1_555 1_555
O4 Ni2 1_555 1_555
C34 C35 1_555 1_555
C37 C42 1_555 1_555
C41 C42 1_555 1_555
O6 Ni2 1_555 1_555
C49 N10 1_555 1_555
C50 C49 1_555 1_555
H30 C50 1_555 1_555
C51 C50 1_555 1_555
H31 C51 1_555 1_555
C52 C51 1_555 1_555
Ni8 N10 1_555 1_555
N9 C46 1_555 1_555
C47 C46 1_555 1_555
H28 C47 1_555 1_555
C48 N9 1_555 1_555
H29 C48 1_555 1_555
C54 N9 1_555 1_555
N11 C56 1_555 1_555
N12 C57 1_555 1_555
C56 C47 1_555 1_555
C57 N11 1_555 1_555
H35 C57 1_555 1_555
C58 N12 1_555 1_555
C59 C58 1_555 1_555
H36 C59 1_555 1_555
C60 C59 1_555 1_555
H37 C60 1_555 1_555
C61 C60 1_555 1_555
C62 C61 1_555 1_555
C63 N11 1_555 1_555
Ni5 N12 1_555 1_555
C53 C54 1_555 1_555
C58 C63 1_555 1_555
C62 C63 1_555 1_555
N9_2 C46_2 1_555 1_555
C47_2 C46_2 1_555 1_555
H28_2 C47_2 1_555 1_555
C48_2 N9_2 1_555 1_555
H29_2 C48_2 1_555 1_555
C54_2 N9_2 1_555 1_555
N11_2 C56_2 1_555 1_555
N16 C57_2 1_555 1_555
C56_2 C47_2 1_555 1_555
C57_2 N11_2 1_555 1_555
H35_2 C57_2 1_555 1_555
C58_2 N16 1_555 1_555
C59_2 C58_2 1_555 1_555
H36_2 C59_2 1_555 1_555
C60_2 C59_2 1_555 1_555
H37_2 C60_2 1_555 1_555
C61_2 C60_2 1_555 1_555
C62_2 C61_2 1_555 1_555
C63_2 N11_2 1_555 1_555
C53_2 C54_2 1_555 1_555
C58_2 C63_2 1_555 1_555
C62_2 C63_2 1_555 1_555
C49_2 N15 1_555 1_555
C50_2 C49_2 1_555 1_555
H30_2 C50_2 1_555 1_555
C51_2 C50_2 1_555 1_555
H31_2 C51_2 1_555 1_555
C52_2 C51_2 1_555 1_555
Ni5 O1_2 1_555 1_555
O1_2 C1_2 1_555 1_555
C1_2 C2_2 1_555 1_555
C2_2 C3_2 1_555 1_555
C3_2 H1_2 1_555 1_555
O2_2 C1_2 1_555 1_555
C13_2 C2_2 1_555 1_555
H8_2 C13_2 1_555 1_555
O3_2 Ni5 1_555 1_555
N5_2 C25_2 1_555 1_555
C22_2 O3_2 1_555 1_555
C23_2 C22_2 1_555 1_555
C24_2 C23_2 1_555 1_555
H14_2 C24_2 1_555 1_555
C25_2 C24_2 1_555 1_555
C26_2 C25_2 1_555 1_555
H15_2 C26_2 1_555 1_555
C27_2 N5_2 1_555 1_555
H16_2 C27_2 1_555 1_555
H20_2 C32_2 1_555 1_555
C33_2 N5_2 1_555 1_555
O4_2 C22_2 1_555 1_555
N7_2 C35_2 1_555 1_555
N18 C36_2 1_555 1_555
C34_2 C23_2 1_555 1_555
H21_2 C34_2 1_555 1_555
C35_2 C26_2 1_555 1_555
C36_2 N7_2 1_555 1_555
H22_2 C36_2 1_555 1_555
C37_2 N18 1_555 1_555
C38_2 C37_2 1_555 1_555
H23_2 C38_2 1_555 1_555
C39_2 C38_2 1_555 1_555
H24_2 C39_2 1_555 1_555
C40_2 C39_2 1_555 1_555
H25_2 C40_2 1_555 1_555
C41_2 C40_2 1_555 1_555
H26_2 C41_2 1_555 1_555
C42_2 N7_2 1_555 1_555
O5_2 Ni5 1_555 1_555
C43_2 O5_2 1_555 1_555
C44_2 C43_2 1_555 1_555
C45_2 C44_2 1_555 1_555
H27_2 C45_2 1_555 1_555
O6_2 C43_2 1_555 1_555
C55_2 C44_2 1_555 1_555
H34_2 C55_2 1_555 1_555
Ni8 O2_2 1_555 1_555
C32_2 C33_2 1_555 1_555
O4_2 Ni8 1_555 1_555
C34_2 C35_2 1_555 1_555
C37_2 C42_2 1_555 1_555
C41_2 C42_2 1_555 1_555
O6_2 Ni8 1_555 1_555
C28_2 N14 1_555 1_555
C29_2 C28_2 1_555 1_555
H17_2 C29_2 1_555 1_555
C30_2 C29_2 1_555 1_555
H18_2 C30_2 1_555 1_555
C31_2 C30_2 1_555 1_555
H19_2 C31_2 1_555 1_555
N1_2 C4_2 1_555 1_555
C5_2 C4_2 1_555 1_555
H2_2 C5_2 1_555 1_555
C6_2 N1_2 1_555 1_555
H3_2 C6_2 1_555 1_555
C12_2 N1_2 1_555 1_555
N3_2 C14_2 1_555 1_555
N17 C15_2 1_555 1_555
C14_2 C5_2 1_555 1_555
C15_2 N3_2 1_555 1_555
H9_2 C15_2 1_555 1_555
C16_2 N17 1_555 1_555
C17_2 C16_2 1_555 1_555
H10_2 C17_2 1_555 1_555
C18_2 C17_2 1_555 1_555
H11_2 C18_2 1_555 1_555
C19_2 C18_2 1_555 1_555
C20_2 C19_2 1_555 1_555
C21_2 N3_2 1_555 1_555
C11_2 C12_2 1_555 1_555
C16_2 C21_2 1_555 1_555
C20_2 C21_2 1_555 1_555
C7_2 N13 1_555 1_555
C8_2 C7_2 1_555 1_555
H4_2 C8_2 1_555 1_555
C9_2 C8_2 1_555 1_555
H5_2 C9_2 1_555 1_555
C10_2 C9_2 1_555 1_555

#END
