
###############################################################################
#
# This file contains modified crystal structure data generated from the
# MOF subset of the Cambridge Structural Database (CSD) v543 
# hosted by the Cambridge Crystallographic Data Centre (CCDC).
#
# This work is licensed under the Creative Commons
# Attribution-NonCommercial-ShareAlike 4.0 International License.
# To view a copy of this license, visit
# http://creativecommons.org/licenses/by-nc-sa/4.0/
# or send a letter to
# Creative Commons, PO Box 1866, Mountain View, CA 94042, USA.
#
# CIF created using the CSD Python API on 29 September 2022
# The structure has been converted into the P1 space group
# The structure has a 3D framework
# The original CSD entry MIFQIE is in the orthorhombic crystal system
# The framework has been calculated to contain at least 10.0% void space
# The void calculation uses a probe of radius 1.32A, grid spacing 0.4
# The framework is charged, counterions have been retained in the structure
#
###############################################################################

data_MIFQIE
_chemical_formula_moiety         '(C192 H160 In4 N16 O32 2+)n'
_symmetry_cell_setting           triclinic
_symmetry_space_group_name_H-M   'P 1'
_symmetry_Int_Tables_number      1
_space_group_name_Hall           'P 1'
loop_
_symmetry_equiv_pos_site_id
_symmetry_equiv_pos_as_xyz
1 x,y,z
_cell_length_a                   11.033(2)
_cell_length_b                   12.713(3)
_cell_length_c                   36.597(7)
_cell_angle_alpha                90
_cell_angle_beta                 90
_cell_angle_gamma                90
_cell_volume                     5133.19
loop_
_atom_site_label
_atom_site_type_symbol
_atom_site_fract_x
_atom_site_fract_y
_atom_site_fract_z
N1 N 0.9620(16) 0.1565(16) 0.1713(6)
H1 H 0.9802 0.1309 0.1924
H2 H 0.9913 0.1549 0.1498
C1 C 0.9462(18) 0.2657(18) 0.1713(7)
H3 H 0.9879 0.2955 0.1507
H4 H 0.9786 0.2946 0.1935
H5 H 0.8614 0.2818 0.1697
C2 C 0.855(2) 0.102(3) 0.1521(8)
H6 H 0.7938 0.1541 0.1476
H7 H 0.8241 0.0490 0.1681
H8 H 0.8797 0.0709 0.1294
N1_2 N 0.5380(16) 0.8435(16) 0.1713(6)
H1_2 H 0.5198 0.8691 0.1924
H2_2 H 0.5087 0.8451 0.1498
C1_2 C 0.5538(18) 0.7343(18) 0.1713(7)
H3_2 H 0.5121 0.7045 0.1507
H4_2 H 0.5214 0.7054 0.1935
H5_2 H 0.6386 0.7182 0.1697
C2_2 C 0.645(2) 0.898(3) 0.1521(8)
H6_2 H 0.7062 0.8459 0.1476
H7_2 H 0.6759 0.9510 0.1681
H8_2 H 0.6203 0.9291 0.1294
N1_3 N 0.4620(16) 0.8435(16) 0.3287(6)
H1_3 H 0.4802 0.8691 0.3076
H2_3 H 0.4913 0.8451 0.3502
C1_3 C 0.4462(18) 0.7343(18) 0.3287(7)
H3_3 H 0.4879 0.7045 0.3493
H4_3 H 0.4786 0.7054 0.3065
H5_3 H 0.3614 0.7182 0.3303
C2_3 C 0.355(2) 0.898(3) 0.3479(8)
H6_3 H 0.2938 0.8459 0.3524
H7_3 H 0.3241 0.9510 0.3319
H8_3 H 0.3797 0.9291 0.3706
N1_4 N 0.0380(16) 0.1565(16) 0.3287(6)
H1_4 H 0.0198 0.1309 0.3076
H2_4 H 0.0087 0.1549 0.3502
C1_4 C 0.0538(18) 0.2657(18) 0.3287(7)
H3_4 H 0.0121 0.2955 0.3493
H4_4 H 0.0214 0.2946 0.3065
H5_4 H 0.1386 0.2818 0.3303
C2_4 C 0.145(2) 0.102(3) 0.3479(8)
H6_4 H 0.2062 0.1541 0.3524
H7_4 H 0.1759 0.0490 0.3319
H8_4 H 0.1203 0.0709 0.3706
N1_5 N 0.0380(16) 0.8435(16) 0.8287(6)
H1_5 H 0.0198 0.8691 0.8076
H2_5 H 0.0087 0.8451 0.8502
C1_5 C 0.0538(18) 0.7343(18) 0.8287(7)
H3_5 H 0.0121 0.7045 0.8493
H4_5 H 0.0214 0.7054 0.8065
H5_5 H 0.1386 0.7182 0.8303
C2_5 C 0.145(2) 0.898(3) 0.8479(8)
H6_5 H 0.2062 0.8459 0.8524
H7_5 H 0.1759 0.9510 0.8319
H8_5 H 0.1203 0.9291 0.8706
N1_6 N 0.4620(16) 0.1565(16) 0.8287(6)
H1_6 H 0.4802 0.1309 0.8076
H2_6 H 0.4913 0.1549 0.8502
C1_6 C 0.4462(18) 0.2657(18) 0.8287(7)
H3_6 H 0.4879 0.2955 0.8493
H4_6 H 0.4786 0.2946 0.8065
H5_6 H 0.3614 0.2818 0.8303
C2_6 C 0.355(2) 0.102(3) 0.8479(8)
H6_6 H 0.2938 0.1541 0.8524
H7_6 H 0.3241 0.0490 0.8319
H8_6 H 0.3797 0.0709 0.8706
N1_7 N 0.5380(16) 0.1565(16) 0.6713(6)
H1_7 H 0.5198 0.1309 0.6924
H2_7 H 0.5087 0.1549 0.6498
C1_7 C 0.5538(18) 0.2657(18) 0.6713(7)
H3_7 H 0.5121 0.2955 0.6507
H4_7 H 0.5214 0.2946 0.6935
H5_7 H 0.6386 0.2818 0.6697
C2_7 C 0.645(2) 0.102(3) 0.6521(8)
H6_7 H 0.7062 0.1541 0.6476
H7_7 H 0.6759 0.0490 0.6681
H8_7 H 0.6203 0.0709 0.6294
N1_8 N 0.9620(16) 0.8435(16) 0.6713(6)
H1_8 H 0.9802 0.8691 0.6924
H2_8 H 0.9913 0.8451 0.6498
C1_8 C 0.9462(18) 0.7343(18) 0.6713(7)
H3_8 H 0.9879 0.7045 0.6507
H4_8 H 0.9786 0.7054 0.6935
H5_8 H 0.8614 0.7182 0.6697
C2_8 C 0.855(2) 0.898(3) 0.6521(8)
H6_8 H 0.7938 0.8459 0.6476
H7_8 H 0.8241 0.9510 0.6681
H8_8 H 0.8797 0.9291 0.6294
In1 In 0.2500 -0.0000 0.09723(2)
O3 O 0.1254(5) 0.1586(5) 0.10220(16)
O4 O 0.1427(5) 0.0605(4) 0.05362(14)
C13 C 0.0234(7) 0.2146(6) 0.0483(2)
C14 C 0.0993(6) 0.1399(6) 0.0688(2)
H14 H 0.0047 0.1193 0.0044
H17 H 0.0125 0.3287 0.0851
O10 O 0.3590(4) 0.0581(4) 0.14224(14)
O12 O 0.3924(5) 0.1483(5) 0.09316(15)
O7 O 0.1410(4) 0.0581(4) 0.64224(14)
C39 C 0.0112(6) 0.2062(5) 0.64764(19)
O8 O 0.1076(5) 0.1483(5) 0.59316(15)
C43 C 0.0906(5) 0.1339(5) 0.62580(19)
H30 H 0.0203 0.1263 0.6951
In4 In 0.2500 -0.0000 0.59723(2)
N2 N 0.7500 0.5000 0.1928(2)
C3 C 0.8785(5) 0.6525(5) 0.18951(18)
C5 C 0.8151(7) 0.5740(6) 0.2495(2)
H9 H 0.8615 0.6242 0.2616
C6 C 0.8115(6) 0.5735(6) 0.21171(19)
C7 C 0.9005(7) 0.6329(6) 0.1528(2)
H10 H 0.8719 0.5712 0.1422
C9 C 0.9888(6) 0.8137(6) 0.1842(2)
C10 C 0.9645(7) 0.7045(6) 0.1316(2)
H12 H 0.9759 0.6922 0.1068
C11 C 0.9205(6) 0.7451(6) 0.20415(19)
H13 H 0.9019 0.7614 0.2283
C12 C 0.7500 0.5000 0.2695(3)
O3_2 O 0.3746(5) 0.1586(5) 0.60220(16)
O4_2 O 0.3573(5) 0.0605(4) 0.55362(14)
C13_2 C 0.4766(7) 0.2146(6) 0.5483(2)
C14_2 C 0.4007(6) 0.1399(6) 0.5688(2)
C15 C 0.6180(7) 0.3505(6) 0.50661(19)
C16 C 0.5171(8) 0.1846(6) 0.5138(2)
H14_2 H 0.4953 0.1193 0.5044
C17 C 0.5897(8) 0.2517(6) 0.4931(2)
H15 H 0.6189 0.2303 0.4704
C18 C 0.5753(9) 0.3801(6) 0.5415(2)
H16 H 0.5917 0.4468 0.5506
C19 C 0.5102(9) 0.3104(7) 0.5614(2)
H17_2 H 0.4875 0.3287 0.5851
N3 N 0.7500 0.5000 0.5032(2)
C20 C 0.6889(7) 0.4232(6) 0.4468(2)
H18 H 0.6476 0.3698 0.4347
C21 C 0.6894(7) 0.4260(5) 0.4846(2)
C22 C 0.7500 0.5000 0.3864(3)
C23 C 0.7468(7) 0.4065(6) 0.3675(2)
H19 H 0.7450 0.3430 0.3802
C24 C 0.7500 0.5000 0.4269(3)
C25 C 0.7464(7) 0.4068(6) 0.3296(2)
H20 H 0.7437 0.3432 0.3170
C26 C 0.7500 0.5000 0.3099(3)
C29 C 0.8820(7) 0.6495(6) 0.50661(19)
C30 C 0.9829(8) 0.8154(6) 0.5138(2)
C31 C 0.9103(8) 0.7483(6) 0.4931(2)
H22 H 0.8811 0.7697 0.4704
C32 C 0.9247(9) 0.6199(6) 0.5415(2)
H23 H 0.9083 0.5532 0.5506
C33 C 0.9898(9) 0.6896(7) 0.5614(2)
C34 C 0.8111(7) 0.5768(6) 0.4468(2)
H25 H 0.8524 0.6302 0.4347
C35 C 0.8106(7) 0.5740(5) 0.4846(2)
C36 C 0.7532(7) 0.5935(6) 0.3675(2)
H26 H 0.7550 0.6570 0.3802
C37 C 0.7536(7) 0.5932(6) 0.3296(2)
H27 H 0.7563 0.6568 0.3170
C38 C 0.6215(5) 0.3475(5) 0.18951(18)
C39_2 C 0.4888(6) 0.2062(5) 0.14764(19)
C40 C 0.6849(7) 0.4260(6) 0.2495(2)
H28 H 0.6385 0.3758 0.2616
C41 C 0.6885(6) 0.4265(6) 0.21171(19)
C42 C 0.5995(7) 0.3671(6) 0.1528(2)
H29 H 0.6281 0.4288 0.1422
C43_2 C 0.4094(5) 0.1339(5) 0.12580(19)
C44 C 0.5112(6) 0.1863(6) 0.1842(2)
H30_2 H 0.4797 0.1263 0.1951
C45 C 0.5355(7) 0.2955(6) 0.1316(2)
H31 H 0.5241 0.3078 0.1068
C46 C 0.5795(6) 0.2549(6) 0.20415(19)
H32 H 0.5981 0.2386 0.2283
In1_2 In 0.2500 1.0000 0.09723(2)
O9 O 0.1410(4) 0.9419(4) 0.14224(14)
O11 O 0.1076(5) 0.8517(5) 0.09316(15)
O13 O 0.3746(5) 0.8414(5) 0.10220(16)
O14 O 0.3573(5) 0.9395(4) 0.05362(14)
In4_2 In 0.2500 1.0000 0.59723(2)
C15_2 C 0.8820(7) 0.3505(6) 0.00661(19)
C16_2 C 0.9829(8) 0.1846(6) 0.0138(2)
C18_2 C 0.9247(9) 0.3801(6) 0.0415(2)
H16_2 H 0.9083 0.4468 0.0506
C19_2 C 0.9898(9) 0.3104(7) 0.0614(2)
N3_2 N 0.7500 0.5000 0.0032(2)
C27 C 0.4766(7) 0.7854(6) 0.0483(2)
C28 C 0.4007(6) 0.8601(6) 0.0688(2)
C29_2 C 0.6180(7) 0.6495(6) 0.00661(19)
C30_2 C 0.5171(8) 0.8154(6) 0.0138(2)
H21 H 0.4953 0.8807 0.0044
C32_2 C 0.5753(9) 0.6199(6) 0.0415(2)
H23_2 H 0.5917 0.5532 0.0506
C33_2 C 0.5102(9) 0.6896(7) 0.0614(2)
H24 H 0.4875 0.6713 0.0851
O1 O 0.3590(4) 0.9419(4) 0.64224(14)
N2_2 N 0.7500 0.5000 0.6928(2)
C3_2 C 0.6215(5) 0.6525(5) 0.68951(18)
C4 C 0.4888(6) 0.7938(5) 0.64764(19)
C5_2 C 0.6849(7) 0.5740(6) 0.7495(2)
H9_2 H 0.6385 0.6242 0.7616
C6_2 C 0.6885(6) 0.5735(6) 0.71171(19)
C7_2 C 0.5995(7) 0.6329(6) 0.6528(2)
H10_2 H 0.6281 0.5712 0.6422
O2 O 0.3924(5) 0.8517(5) 0.59316(15)
C8 C 0.4094(5) 0.8661(5) 0.62580(19)
C9_2 C 0.5112(6) 0.8137(6) 0.6842(2)
H11 H 0.4797 0.8737 0.6951
C10_2 C 0.5355(7) 0.7045(6) 0.6316(2)
H12_2 H 0.5241 0.6922 0.6068
C11_2 C 0.5795(6) 0.7451(6) 0.70415(19)
H13_2 H 0.5981 0.7614 0.7283
C12_2 C 0.7500 0.5000 0.7695(3)
C17_2 C 0.9103(8) 0.2517(6) 0.9931(2)
H15_2 H 0.8811 0.2303 0.9704
C20_2 C 0.8111(7) 0.4232(6) 0.9468(2)
H18_2 H 0.8524 0.3698 0.9347
C21_2 C 0.8106(7) 0.4260(5) 0.9846(2)
C22_2 C 0.7500 0.5000 0.8864(3)
C23_2 C 0.7532(7) 0.4065(6) 0.8675(2)
H19_2 H 0.7550 0.3430 0.8802
C24_2 C 0.7500 0.5000 0.9269(3)
C25_2 C 0.7536(7) 0.4068(6) 0.8296(2)
H20_2 H 0.7563 0.3432 0.8170
C26_2 C 0.7500 0.5000 0.8099(3)
C31_2 C 0.5897(8) 0.7483(6) 0.9931(2)
H22_2 H 0.6189 0.7697 0.9704
C34_2 C 0.6889(7) 0.5768(6) 0.9468(2)
H25_2 H 0.6476 0.6302 0.9347
C35_2 C 0.6894(7) 0.5740(5) 0.9846(2)
C36_2 C 0.7468(7) 0.5935(6) 0.8675(2)
H26_2 H 0.7450 0.6570 0.8802
C37_2 C 0.7464(7) 0.5932(6) 0.8296(2)
H27_2 H 0.7437 0.6568 0.8170
C38_2 C 0.8785(5) 0.3475(5) 0.68951(18)
C40_2 C 0.8151(7) 0.4260(6) 0.7495(2)
H28_2 H 0.8615 0.3758 0.7616
C41_2 C 0.8115(6) 0.4265(6) 0.71171(19)
C42_2 C 0.9005(7) 0.3671(6) 0.6528(2)
H29_2 H 0.8719 0.4288 0.6422
C44_2 C 0.9888(6) 0.1863(6) 0.6842(2)
C45_2 C 0.9645(7) 0.2955(6) 0.6316(2)
H31_2 H 0.9759 0.3078 0.6068
C46_2 C 0.9205(6) 0.2549(6) 0.70415(19)
H32_2 H 0.9019 0.2386 0.7283
C4_2 C 0.0112(6) 0.7938(5) 0.14764(19)
C8_2 C 0.0906(5) 0.8661(5) 0.12580(19)
H11_2 H 0.0203 0.8737 0.1951
O5 O 0.1254(5) 0.8414(5) 0.60220(16)
O6 O 0.1427(5) 0.9395(4) 0.55362(14)
C27_2 C 0.0234(7) 0.7854(6) 0.5483(2)
C28_2 C 0.0993(6) 0.8601(6) 0.5688(2)
H21_2 H 0.0047 0.8807 0.5044
H24_2 H 0.0125 0.6713 0.5851
In1_3 In 0.7500 0.0000 0.40277(2)
In4_3 In 0.7500 0.0000 0.90277(2)
O9_2 O 0.6410(4) 0.0581(4) 0.35776(14)
O11_2 O 0.6076(5) 0.1483(5) 0.40684(15)
O13_2 O 0.8746(5) 0.1586(5) 0.39780(16)
O14_2 O 0.8573(5) 0.0605(4) 0.44638(14)
O1_2 O 0.8590(4) 0.0581(4) 0.85776(14)
C4_3 C 0.9888(6) 0.2062(5) 0.85236(19)
O2_2 O 0.8924(5) 0.1483(5) 0.90684(15)
C8_3 C 0.9094(5) 0.1339(5) 0.87420(19)
H11_3 H 0.9797 0.1263 0.8049
C27_3 C 0.9766(7) 0.2146(6) 0.4517(2)
C28_3 C 0.9007(6) 0.1399(6) 0.4312(2)
H21_3 H 0.9953 0.1193 0.4956
H24_3 H 0.9875 0.3287 0.4149
N2_3 N 0.2500 0.5000 0.3072(2)
C3_3 C 0.3785(5) 0.3475(5) 0.31049(18)
C4_4 C 0.5112(6) 0.2062(5) 0.35236(19)
C5_3 C 0.3151(7) 0.4260(6) 0.2505(2)
H9_3 H 0.3615 0.3758 0.2384
C6_3 C 0.3115(6) 0.4265(6) 0.28829(19)
C7_3 C 0.4005(7) 0.3671(6) 0.3472(2)
H10_3 H 0.3719 0.4288 0.3578
C8_4 C 0.5906(5) 0.1339(5) 0.37420(19)
C9_3 C 0.4888(6) 0.1863(6) 0.3158(2)
H11_4 H 0.5203 0.1263 0.3049
C10_3 C 0.4645(7) 0.2955(6) 0.3684(2)
H12_3 H 0.4759 0.3078 0.3932
C11_3 C 0.4205(6) 0.2549(6) 0.29585(19)
H13_3 H 0.4019 0.2386 0.2717
C12_3 C 0.2500 0.5000 0.2305(3)
C17_3 C 0.0897(8) 0.7483(6) 0.0069(2)
H15_3 H 0.1189 0.7697 0.0296
C20_3 C 0.1889(7) 0.5768(6) 0.0532(2)
H18_3 H 0.1476 0.6302 0.0653
C21_3 C 0.1894(7) 0.5740(5) 0.0154(2)
C22_3 C 0.2500 0.5000 0.1136(3)
C23_3 C 0.2468(7) 0.5935(6) 0.1325(2)
H19_3 H 0.2450 0.6570 0.1198
C24_3 C 0.2500 0.5000 0.0731(3)
C25_3 C 0.2464(7) 0.5932(6) 0.1704(2)
H20_3 H 0.2437 0.6568 0.1830
C26_3 C 0.2500 0.5000 0.1901(3)
C31_3 C 0.4103(8) 0.2517(6) 0.0069(2)
H22_3 H 0.3811 0.2303 0.0296
C34_3 C 0.3111(7) 0.4232(6) 0.0532(2)
H25_3 H 0.3524 0.3698 0.0653
C35_3 C 0.3106(7) 0.4260(5) 0.0154(2)
C36_3 C 0.2532(7) 0.4065(6) 0.1325(2)
H26_3 H 0.2550 0.3430 0.1198
C37_3 C 0.2536(7) 0.4068(6) 0.1704(2)
H27_3 H 0.2563 0.3432 0.1830
C38_3 C 0.1215(5) 0.6525(5) 0.31049(18)
C40_3 C 0.1849(7) 0.5740(6) 0.2505(2)
H28_3 H 0.1385 0.6242 0.2384
C41_3 C 0.1885(6) 0.5735(6) 0.28829(19)
C42_3 C 0.0995(7) 0.6329(6) 0.3472(2)
H29_3 H 0.1281 0.5712 0.3578
C44_3 C 0.0112(6) 0.8137(6) 0.3158(2)
C45_3 C 0.0355(7) 0.7045(6) 0.3684(2)
H31_3 H 0.0241 0.6922 0.3932
C46_3 C 0.0795(6) 0.7451(6) 0.29585(19)
H32_3 H 0.0981 0.7614 0.2717
C15_3 C 0.1180(7) 0.6495(6) 0.99339(19)
C16_3 C 0.0171(8) 0.8154(6) 0.9862(2)
C18_3 C 0.0753(9) 0.6199(6) 0.9585(2)
H16_3 H 0.0917 0.5532 0.9494
C19_3 C 0.0102(9) 0.6896(7) 0.9386(2)
N3_3 N 0.2500 0.5000 0.9968(2)
O5_2 O 0.6254(5) 0.1586(5) 0.89780(16)
O6_2 O 0.6427(5) 0.0605(4) 0.94638(14)
C27_4 C 0.5234(7) 0.2146(6) 0.9517(2)
C28_4 C 0.5993(6) 0.1399(6) 0.9312(2)
C29_3 C 0.3820(7) 0.3505(6) 0.99339(19)
C30_3 C 0.4829(8) 0.1846(6) 0.9862(2)
H21_4 H 0.5047 0.1193 0.9956
C32_3 C 0.4247(9) 0.3801(6) 0.9585(2)
H23_3 H 0.4083 0.4468 0.9494
C33_3 C 0.4898(9) 0.3104(7) 0.9386(2)
H24_4 H 0.5125 0.3287 0.9149
In1_4 In 0.7500 1.0000 0.40277(2)
N2_4 N 0.2500 0.5000 0.8072(2)
C3_4 C 0.1215(5) 0.3475(5) 0.81049(18)
C5_4 C 0.1849(7) 0.4260(6) 0.7505(2)
H9_4 H 0.1385 0.3758 0.7384
C6_4 C 0.1885(6) 0.4265(6) 0.78829(19)
C7_4 C 0.0995(7) 0.3671(6) 0.8472(2)
H10_4 H 0.1281 0.4288 0.8578
C9_4 C 0.0112(6) 0.1863(6) 0.8158(2)
C10_4 C 0.0355(7) 0.2955(6) 0.8684(2)
H12_4 H 0.0241 0.3078 0.8932
C11_4 C 0.0795(6) 0.2549(6) 0.79585(19)
H13_4 H 0.0981 0.2386 0.7717
C12_4 C 0.2500 0.5000 0.7305(3)
O3_3 O 0.6254(5) 0.8414(5) 0.39780(16)
O4_3 O 0.6427(5) 0.9395(4) 0.44638(14)
C13_3 C 0.5234(7) 0.7854(6) 0.4517(2)
C14_3 C 0.5993(6) 0.8601(6) 0.4312(2)
C15_4 C 0.3820(7) 0.6495(6) 0.49339(19)
C16_4 C 0.4829(8) 0.8154(6) 0.4862(2)
H14_3 H 0.5047 0.8807 0.4956
C17_4 C 0.4103(8) 0.7483(6) 0.5069(2)
H15_4 H 0.3811 0.7697 0.5296
C18_4 C 0.4247(9) 0.6199(6) 0.4585(2)
H16_4 H 0.4083 0.5532 0.4494
C19_4 C 0.4898(9) 0.6896(7) 0.4386(2)
H17_3 H 0.5125 0.6713 0.4149
N3_4 N 0.2500 0.5000 0.4968(2)
C20_4 C 0.3111(7) 0.5768(6) 0.5532(2)
H18_4 H 0.3524 0.6302 0.5653
C21_4 C 0.3106(7) 0.5740(5) 0.5154(2)
C22_4 C 0.2500 0.5000 0.6136(3)
C23_4 C 0.2532(7) 0.5935(6) 0.6325(2)
H19_4 H 0.2550 0.6570 0.6198
C24_4 C 0.2500 0.5000 0.5731(3)
C25_4 C 0.2536(7) 0.5932(6) 0.6704(2)
H20_4 H 0.2563 0.6568 0.6830
C26_4 C 0.2500 0.5000 0.6901(3)
C29_4 C 0.1180(7) 0.3505(6) 0.49339(19)
C30_4 C 0.0171(8) 0.1846(6) 0.4862(2)
C31_4 C 0.0897(8) 0.2517(6) 0.5069(2)
H22_4 H 0.1189 0.2303 0.5296
C32_4 C 0.0753(9) 0.3801(6) 0.4585(2)
H23_4 H 0.0917 0.4468 0.4494
C33_4 C 0.0102(9) 0.3104(7) 0.4386(2)
C34_4 C 0.1889(7) 0.4232(6) 0.5532(2)
H25_4 H 0.1476 0.3698 0.5653
C35_4 C 0.1894(7) 0.4260(5) 0.5154(2)
C36_4 C 0.2468(7) 0.4065(6) 0.6325(2)
H26_4 H 0.2450 0.3430 0.6198
C37_4 C 0.2464(7) 0.4068(6) 0.6704(2)
H27_4 H 0.2437 0.3432 0.6830
O7_2 O 0.6410(4) 0.9419(4) 0.85776(14)
C38_4 C 0.3785(5) 0.6525(5) 0.81049(18)
C39_3 C 0.5112(6) 0.7938(5) 0.85236(19)
C40_4 C 0.3151(7) 0.5740(6) 0.7505(2)
H28_4 H 0.3615 0.6242 0.7384
C41_4 C 0.3115(6) 0.5735(6) 0.78829(19)
C42_4 C 0.4005(7) 0.6329(6) 0.8472(2)
H29_4 H 0.3719 0.5712 0.8578
O8_2 O 0.6076(5) 0.8517(5) 0.90684(15)
C43_3 C 0.5906(5) 0.8661(5) 0.87420(19)
C44_4 C 0.4888(6) 0.8137(6) 0.8158(2)
H30_3 H 0.5203 0.8737 0.8049
C45_4 C 0.4645(7) 0.7045(6) 0.8684(2)
H31_4 H 0.4759 0.6922 0.8932
C46_4 C 0.4205(6) 0.7451(6) 0.79585(19)
H32_4 H 0.4019 0.7614 0.7717
In4_4 In 0.7500 1.0000 0.90277(2)
O10_2 O 0.8590(4) 0.9419(4) 0.35776(14)
O12_2 O 0.8924(5) 0.8517(5) 0.40684(15)
C39_4 C 0.9888(6) 0.7938(5) 0.35236(19)
C43_4 C 0.9094(5) 0.8661(5) 0.37420(19)
H30_4 H 0.9797 0.8737 0.3049
O3_4 O 0.8746(5) 0.8414(5) 0.89780(16)
O4_4 O 0.8573(5) 0.9395(4) 0.94638(14)
C13_4 C 0.9766(7) 0.7854(6) 0.9517(2)
C14_4 C 0.9007(6) 0.8601(6) 0.9312(2)
H14_4 H 0.9953 0.8807 0.9956
H17_4 H 0.9875 0.6713 0.9149
loop_
_geom_bond_atom_site_label_1
_geom_bond_atom_site_label_2
_geom_bond_site_symmetry_1
_geom_bond_site_symmetry_2
N1 H1 1_555 1_555
H2 N1 1_555 1_555
C1 N1 1_555 1_555
H3 C1 1_555 1_555
H4 C1 1_555 1_555
H5 C1 1_555 1_555
C2 N1 1_555 1_555
H6 C2 1_555 1_555
H7 C2 1_555 1_555
H8 C2 1_555 1_555
N1_2 H1_2 1_555 1_555
H2_2 N1_2 1_555 1_555
C1_2 N1_2 1_555 1_555
H3_2 C1_2 1_555 1_555
H4_2 C1_2 1_555 1_555
H5_2 C1_2 1_555 1_555
C2_2 N1_2 1_555 1_555
H6_2 C2_2 1_555 1_555
H7_2 C2_2 1_555 1_555
H8_2 C2_2 1_555 1_555
N1_3 H1_3 1_555 1_555
H2_3 N1_3 1_555 1_555
C1_3 N1_3 1_555 1_555
H3_3 C1_3 1_555 1_555
H4_3 C1_3 1_555 1_555
H5_3 C1_3 1_555 1_555
C2_3 N1_3 1_555 1_555
H6_3 C2_3 1_555 1_555
H7_3 C2_3 1_555 1_555
H8_3 C2_3 1_555 1_555
N1_4 H1_4 1_555 1_555
H2_4 N1_4 1_555 1_555
C1_4 N1_4 1_555 1_555
H3_4 C1_4 1_555 1_555
H4_4 C1_4 1_555 1_555
H5_4 C1_4 1_555 1_555
C2_4 N1_4 1_555 1_555
H6_4 C2_4 1_555 1_555
H7_4 C2_4 1_555 1_555
H8_4 C2_4 1_555 1_555
N1_5 H1_5 1_555 1_555
H2_5 N1_5 1_555 1_555
C1_5 N1_5 1_555 1_555
H3_5 C1_5 1_555 1_555
H4_5 C1_5 1_555 1_555
H5_5 C1_5 1_555 1_555
C2_5 N1_5 1_555 1_555
H6_5 C2_5 1_555 1_555
H7_5 C2_5 1_555 1_555
H8_5 C2_5 1_555 1_555
N1_6 H1_6 1_555 1_555
H2_6 N1_6 1_555 1_555
C1_6 N1_6 1_555 1_555
H3_6 C1_6 1_555 1_555
H4_6 C1_6 1_555 1_555
H5_6 C1_6 1_555 1_555
C2_6 N1_6 1_555 1_555
H6_6 C2_6 1_555 1_555
H7_6 C2_6 1_555 1_555
H8_6 C2_6 1_555 1_555
N1_7 H1_7 1_555 1_555
H2_7 N1_7 1_555 1_555
C1_7 N1_7 1_555 1_555
H3_7 C1_7 1_555 1_555
H4_7 C1_7 1_555 1_555
H5_7 C1_7 1_555 1_555
C2_7 N1_7 1_555 1_555
H6_7 C2_7 1_555 1_555
H7_7 C2_7 1_555 1_555
H8_7 C2_7 1_555 1_555
N1_8 H1_8 1_555 1_555
H2_8 N1_8 1_555 1_555
C1_8 N1_8 1_555 1_555
H3_8 C1_8 1_555 1_555
H4_8 C1_8 1_555 1_555
H5_8 C1_8 1_555 1_555
C2_8 N1_8 1_555 1_555
H6_8 C2_8 1_555 1_555
H7_8 C2_8 1_555 1_555
H8_8 C2_8 1_555 1_555
In1 O3 1_555 1_555
O3 C14 1_555 1_555
O4 In1 1_555 1_555
C13 C14 1_555 1_555
C14 O4 1_555 1_555
O10 In1 1_555 1_555
O12 In1 1_555 1_555
O7 C43 1_555 1_555
C39 C43 1_555 1_555
O8 C43 1_555 1_555
In4 O7 1_555 1_555
O8 In4 1_555 1_555
In4 O3_2 1_555 1_555
N2 C6 1_555 1_555
C3 C6 1_555 1_555
C5 H9 1_555 1_555
C6 C5 1_555 1_555
C7 C3 1_555 1_555
H10 C7 1_555 1_555
H12 C10 1_555 1_555
C11 C3 1_555 1_555
H13 C11 1_555 1_555
C12 C5 1_555 1_555
O3_2 C14_2 1_555 1_555
O4_2 In4 1_555 1_555
C13_2 C14_2 1_555 1_555
C14_2 O4_2 1_555 1_555
C15 C17 1_555 1_555
C16 C13_2 1_555 1_555
H14_2 C16 1_555 1_555
C17 C16 1_555 1_555
H15 C17 1_555 1_555
C18 C15 1_555 1_555
H16 C18 1_555 1_555
C19 C13_2 1_555 1_555
H17_2 C19 1_555 1_555
N3 C21 1_555 1_555
C20 H18 1_555 1_555
C21 C15 1_555 1_555
C22 C23 1_555 1_555
C23 H19 1_555 1_555
C24 C20 1_555 1_555
C25 C23 1_555 1_555
H20 C25 1_555 1_555
C26 C12 1_555 1_555
C29 C31 1_555 1_555
C31 C30 1_555 1_555
H22 C31 1_555 1_555
C32 C29 1_555 1_555
H23 C32 1_555 1_555
C34 C24 1_555 1_555
H25 C34 1_555 1_555
C35 N3 1_555 1_555
C36 C22 1_555 1_555
H26 C36 1_555 1_555
C37 C26 1_555 1_555
H27 C37 1_555 1_555
O10 C43_2 1_555 1_555
C38 C41 1_555 1_555
C39_2 C43_2 1_555 1_555
C40 C12 1_555 1_555
H28 C40 1_555 1_555
C41 N2 1_555 1_555
C42 C38 1_555 1_555
H29 C42 1_555 1_555
O12 C43_2 1_555 1_555
C44 C39_2 1_555 1_555
H30_2 C44 1_555 1_555
C45 C39_2 1_555 1_555
H31 C45 1_555 1_555
C46 C38 1_555 1_555
H32 C46 1_555 1_555
C7 C10 1_555 1_555
C9 C11 1_555 1_555
C18 C19 1_555 1_555
C20 C21 1_555 1_555
C22 C24 1_555 1_555
C25 C26 1_555 1_555
C29 C35 1_555 1_555
C32 C33 1_555 1_555
C34 C35 1_555 1_555
C36 C37 1_555 1_555
C40 C41 1_555 1_555
C42 C45 1_555 1_555
C44 C46 1_555 1_555
O9 In1_2 1_555 1_555
O11 In1_2 1_555 1_555
O13 In1_2 1_555 1_555
O14 In1_2 1_555 1_555
C18_2 C15_2 1_555 1_555
H16_2 C18_2 1_555 1_555
O13 C28 1_555 1_555
O14 C28 1_555 1_555
C27 C28 1_555 1_555
C30_2 C27 1_555 1_555
H21 C30_2 1_555 1_555
C32_2 C29_2 1_555 1_555
H23_2 C32_2 1_555 1_555
C33_2 C27 1_555 1_555
H24 C33_2 1_555 1_555
C18_2 C19_2 1_555 1_555
C32_2 C33_2 1_555 1_555
O1 C8 1_555 1_555
N2_2 C6_2 1_555 1_555
C3_2 C6_2 1_555 1_555
C4 C8 1_555 1_555
C5_2 H9_2 1_555 1_555
C6_2 C5_2 1_555 1_555
C7_2 C3_2 1_555 1_555
H10_2 C7_2 1_555 1_555
O2 C8 1_555 1_555
C9_2 C4 1_555 1_555
H11 C9_2 1_555 1_555
C10_2 C4 1_555 1_555
H12_2 C10_2 1_555 1_555
C11_2 C3_2 1_555 1_555
H13_2 C11_2 1_555 1_555
C12_2 C5_2 1_555 1_555
H15_2 C17_2 1_555 1_555
C20_2 H18_2 1_555 1_555
C22_2 C23_2 1_555 1_555
C23_2 H19_2 1_555 1_555
C24_2 C20_2 1_555 1_555
C25_2 C23_2 1_555 1_555
H20_2 C25_2 1_555 1_555
C26_2 C12_2 1_555 1_555
H22_2 C31_2 1_555 1_555
C34_2 C24_2 1_555 1_555
H25_2 C34_2 1_555 1_555
C36_2 C22_2 1_555 1_555
H26_2 C36_2 1_555 1_555
C37_2 C26_2 1_555 1_555
H27_2 C37_2 1_555 1_555
C38_2 C41_2 1_555 1_555
C40_2 C12_2 1_555 1_555
H28_2 C40_2 1_555 1_555
C41_2 N2_2 1_555 1_555
C42_2 C38_2 1_555 1_555
H29_2 C42_2 1_555 1_555
H31_2 C45_2 1_555 1_555
C46_2 C38_2 1_555 1_555
H32_2 C46_2 1_555 1_555
In4_2 O1 1_555 1_555
C7_2 C10_2 1_555 1_555
O2 In4_2 1_555 1_555
C9_2 C11_2 1_555 1_555
C20_2 C21_2 1_555 1_555
C22_2 C24_2 1_555 1_555
C25_2 C26_2 1_555 1_555
C34_2 C35_2 1_555 1_555
C36_2 C37_2 1_555 1_555
C40_2 C41_2 1_555 1_555
C42_2 C45_2 1_555 1_555
C44_2 C46_2 1_555 1_555
O9 C8_2 1_555 1_555
C4_2 C8_2 1_555 1_555
O11 C8_2 1_555 1_555
O5 C28_2 1_555 1_555
O6 C28_2 1_555 1_555
C27_2 C28_2 1_555 1_555
In4_2 O5 1_555 1_555
O6 In4_2 1_555 1_555
O9_2 In1_3 1_555 1_555
O11_2 In1_3 1_555 1_555
O13_2 In1_3 1_555 1_555
O14_2 In1_3 1_555 1_555
O1_2 C8_3 1_555 1_555
C4_3 C8_3 1_555 1_555
O2_2 C8_3 1_555 1_555
O13_2 C28_3 1_555 1_555
O14_2 C28_3 1_555 1_555
C27_3 C28_3 1_555 1_555
In4_3 O1_2 1_555 1_555
O2_2 In4_3 1_555 1_555
O9_2 C8_4 1_555 1_555
N2_3 C6_3 1_555 1_555
C3_3 C6_3 1_555 1_555
C4_4 C8_4 1_555 1_555
C5_3 H9_3 1_555 1_555
C6_3 C5_3 1_555 1_555
C7_3 C3_3 1_555 1_555
H10_3 C7_3 1_555 1_555
O11_2 C8_4 1_555 1_555
C9_3 C4_4 1_555 1_555
H11_4 C9_3 1_555 1_555
C10_3 C4_4 1_555 1_555
H12_3 C10_3 1_555 1_555
C11_3 C3_3 1_555 1_555
H13_3 C11_3 1_555 1_555
C12_3 C5_3 1_555 1_555
H15_3 C17_3 1_555 1_555
C20_3 H18_3 1_555 1_555
C22_3 C23_3 1_555 1_555
C23_3 H19_3 1_555 1_555
C24_3 C20_3 1_555 1_555
C25_3 C23_3 1_555 1_555
H20_3 C25_3 1_555 1_555
C26_3 C12_3 1_555 1_555
H22_3 C31_3 1_555 1_555
C34_3 C24_3 1_555 1_555
H25_3 C34_3 1_555 1_555
C36_3 C22_3 1_555 1_555
H26_3 C36_3 1_555 1_555
C37_3 C26_3 1_555 1_555
H27_3 C37_3 1_555 1_555
C38_3 C41_3 1_555 1_555
C40_3 C12_3 1_555 1_555
H28_3 C40_3 1_555 1_555
C41_3 N2_3 1_555 1_555
C42_3 C38_3 1_555 1_555
H29_3 C42_3 1_555 1_555
H31_3 C45_3 1_555 1_555
C46_3 C38_3 1_555 1_555
H32_3 C46_3 1_555 1_555
C7_3 C10_3 1_555 1_555
C9_3 C11_3 1_555 1_555
C20_3 C21_3 1_555 1_555
C22_3 C24_3 1_555 1_555
C25_3 C26_3 1_555 1_555
C34_3 C35_3 1_555 1_555
C36_3 C37_3 1_555 1_555
C40_3 C41_3 1_555 1_555
C42_3 C45_3 1_555 1_555
C44_3 C46_3 1_555 1_555
C18_3 C15_3 1_555 1_555
H16_3 C18_3 1_555 1_555
O5_2 C28_4 1_555 1_555
O6_2 C28_4 1_555 1_555
C27_4 C28_4 1_555 1_555
C30_3 C27_4 1_555 1_555
H21_4 C30_3 1_555 1_555
C32_3 C29_3 1_555 1_555
H23_3 C32_3 1_555 1_555
C33_3 C27_4 1_555 1_555
H24_4 C33_3 1_555 1_555
In4_3 O5_2 1_555 1_555
C18_3 C19_3 1_555 1_555
O6_2 In4_3 1_555 1_555
C32_3 C33_3 1_555 1_555
In1_4 O3_3 1_555 1_555
N2_4 C6_4 1_555 1_555
C3_4 C6_4 1_555 1_555
C5_4 H9_4 1_555 1_555
C6_4 C5_4 1_555 1_555
C7_4 C3_4 1_555 1_555
H10_4 C7_4 1_555 1_555
H12_4 C10_4 1_555 1_555
C11_4 C3_4 1_555 1_555
H13_4 C11_4 1_555 1_555
C12_4 C5_4 1_555 1_555
O3_3 C14_3 1_555 1_555
O4_3 In1_4 1_555 1_555
C13_3 C14_3 1_555 1_555
C14_3 O4_3 1_555 1_555
C15_4 C17_4 1_555 1_555
C16_4 C13_3 1_555 1_555
H14_3 C16_4 1_555 1_555
C17_4 C16_4 1_555 1_555
H15_4 C17_4 1_555 1_555
C18_4 C15_4 1_555 1_555
H16_4 C18_4 1_555 1_555
C19_4 C13_3 1_555 1_555
H17_3 C19_4 1_555 1_555
N3_4 C21_4 1_555 1_555
C20_4 H18_4 1_555 1_555
C21_4 C15_4 1_555 1_555
C22_4 C23_4 1_555 1_555
C23_4 H19_4 1_555 1_555
C24_4 C20_4 1_555 1_555
C25_4 C23_4 1_555 1_555
H20_4 C25_4 1_555 1_555
C26_4 C12_4 1_555 1_555
C29_4 C31_4 1_555 1_555
C31_4 C30_4 1_555 1_555
H22_4 C31_4 1_555 1_555
C32_4 C29_4 1_555 1_555
H23_4 C32_4 1_555 1_555
C34_4 C24_4 1_555 1_555
H25_4 C34_4 1_555 1_555
C35_4 N3_4 1_555 1_555
C36_4 C22_4 1_555 1_555
H26_4 C36_4 1_555 1_555
C37_4 C26_4 1_555 1_555
H27_4 C37_4 1_555 1_555
O7_2 C43_3 1_555 1_555
C38_4 C41_4 1_555 1_555
C39_3 C43_3 1_555 1_555
C40_4 C12_4 1_555 1_555
H28_4 C40_4 1_555 1_555
C41_4 N2_4 1_555 1_555
C42_4 C38_4 1_555 1_555
H29_4 C42_4 1_555 1_555
O8_2 C43_3 1_555 1_555
C44_4 C39_3 1_555 1_555
H30_3 C44_4 1_555 1_555
C45_4 C39_3 1_555 1_555
H31_4 C45_4 1_555 1_555
C46_4 C38_4 1_555 1_555
H32_4 C46_4 1_555 1_555
In4_4 O7_2 1_555 1_555
O10_2 In1_4 1_555 1_555
O12_2 In1_4 1_555 1_555
C7_4 C10_4 1_555 1_555
C9_4 C11_4 1_555 1_555
C18_4 C19_4 1_555 1_555
C20_4 C21_4 1_555 1_555
C22_4 C24_4 1_555 1_555
C25_4 C26_4 1_555 1_555
C29_4 C35_4 1_555 1_555
C32_4 C33_4 1_555 1_555
C34_4 C35_4 1_555 1_555
C36_4 C37_4 1_555 1_555
C40_4 C41_4 1_555 1_555
C42_4 C45_4 1_555 1_555
O8_2 In4_4 1_555 1_555
C44_4 C46_4 1_555 1_555
O10_2 C43_4 1_555 1_555
C39_4 C43_4 1_555 1_555
O12_2 C43_4 1_555 1_555
In4_4 O3_4 1_555 1_555
O3_4 C14_4 1_555 1_555
O4_4 In4_4 1_555 1_555
C13_4 C14_4 1_555 1_555
C14_4 O4_4 1_555 1_555

#END
