
###############################################################################
#
# This file contains modified crystal structure data generated from the
# MOF subset of the Cambridge Structural Database (CSD) v543 
# hosted by the Cambridge Crystallographic Data Centre (CCDC).
#
# This work is licensed under the Creative Commons
# Attribution-NonCommercial-ShareAlike 4.0 International License.
# To view a copy of this license, visit
# http://creativecommons.org/licenses/by-nc-sa/4.0/
# or send a letter to
# Creative Commons, PO Box 1866, Mountain View, CA 94042, USA.
#
# CIF created using the CSD Python API on 29 September 2022
# The structure has been converted into the P1 space group
# The structure has a 3D framework
# The original CSD entry MIFROK is in the tetragonal crystal system
# The framework has been calculated to contain at least 10.0% void space
# The void calculation uses a probe of radius 1.32A, grid spacing 0.4
# The framework is charged, counterions have been retained in the structure
#
###############################################################################

data_MIFROK
_chemical_formula_moiety         '(C768 H576 Co16 La32 N128 O352)n'
_symmetry_cell_setting           triclinic
_symmetry_space_group_name_H-M   'P 1'
_symmetry_Int_Tables_number      1
_space_group_name_Hall           'P 1'
loop_
_symmetry_equiv_pos_site_id
_symmetry_equiv_pos_as_xyz
1 x,y,z
_cell_length_a                   46.038(3)
_cell_length_b                   46.038(3)
_cell_length_c                   11.3254(3)
_cell_angle_alpha                90
_cell_angle_beta                 90
_cell_angle_gamma                90
_cell_volume                     24004.2
loop_
_atom_site_label
_atom_site_type_symbol
_atom_site_fract_x
_atom_site_fract_y
_atom_site_fract_z
H1 H 0.1333(16) 0.544(2) 0.324(3)
H2 H 0.1541(7) 0.5518(19) 0.241(6)
C1 C 0.10559(15) 0.69112(14) 0.0294(5)
C2 C 0.07666(15) 0.68731(14) 0.0445(6)
C3 C 0.06668(15) 0.67540(15) 0.1505(6)
H5 H 0.0469 0.6729 0.1633
C4 C 0.08678(14) 0.66734(13) 0.2370(5)
C5 C 0.07521(14) 0.65423(15) 0.3509(5)
C6 C 0.11635(14) 0.67169(13) 0.2128(5)
C7 C 0.14052(14) 0.66561(14) 0.2976(5)
C8 C 0.14300(14) 0.64065(15) 0.3682(5)
C9 C 0.12468(13) 0.61404(14) 0.3508(5)
C10 C 0.16535(16) 0.63979(18) 0.4508(6)
H6 H 0.1669 0.6242 0.5029
C11 C 0.18530(18) 0.66222(19) 0.4548(7)
H7 H 0.2001 0.6622 0.5108
C12 C 0.18295(18) 0.68419(18) 0.3756(7)
H8 H 0.1971 0.6986 0.3754
H17 H 0.0198 0.5409 0.0111
N1 N 0.12563(12) 0.68375(12) 0.1114(4)
N2 N 0.16099(13) 0.68598(12) 0.2970(5)
O1 O 0.05670(10) 0.63464(10) 0.3415(4)
O2 O 0.08540(10) 0.66396(10) 0.4470(4)
O3 O 0.11587(10) 0.60953(10) 0.2464(4)
O4 O 0.12013(10) 0.59765(10) 0.4367(4)
O11 O 0.05685(10) 0.60445(11) 0.1347(4)
H27 H 0.0425 0.5954 0.1686
H28 H 0.0615 0.6194 0.1782
O13 O 0.13625(11) 0.54834(11) 0.2523(4)
O14 O 0.15514(12) 0.56541(12) 0.0242(4)
La1 La 0.100201(8) 0.570797(8) 0.11122(3)
O24 O 0.07604(11) 0.51749(11) 0.1562(4)
O25 O 0.06561(11) 0.55254(10) 0.2810(4)
Co3 Co 0.16653(2) 0.70372(2) 0.12106(7)
La4 La 0.099230(8) 0.573041(8) 0.60706(3)
H3 H 0.1120 0.6992 0.9589
H4 H 0.0637 0.6925 0.9853
C13 C 0.11101(15) 0.43074(16) 0.3497(7)
H9 H 0.1138 0.4115 0.3278
C14 C 0.13474(17) 0.44700(17) 0.3894(7)
H10 H 0.1533 0.4390 0.3915
C15 C 0.12990(16) 0.47522(15) 0.4253(7)
H11 H 0.1452 0.4863 0.4540
C16 C 0.10207(15) 0.48724(15) 0.4188(7)
C17 C 0.09744(15) 0.51608(15) 0.4763(6)
C18 C 0.08016(15) 0.47017(15) 0.3719(6)
C19 C 0.04960(15) 0.48060(15) 0.3557(6)
C20 C 0.04131(15) 0.50666(14) 0.3051(6)
C21 C 0.06300(14) 0.52694(14) 0.2447(6)
C22 C 0.01188(14) 0.51363(15) 0.3037(6)
H12 H 0.0058 0.5315 0.2739
C24 C 0.00143(16) 0.46739(16) 0.3854(6)
C27 C 0.00762(18) 0.55076(18) 0.9595(7)
C28 C 0.01942(15) 0.56945(15) 0.8748(5)
C29 C 0.00023(14) 0.58485(15) 0.8038(5)
C30 C 0.05176(14) 0.57005(13) 0.8589(5)
C31 C 0.00789(13) 0.60842(14) 0.7179(5)
C32 C 0.02667(14) 0.63150(14) 0.7410(5)
C33 C 0.04376(16) 0.63457(15) 0.8542(5)
C34 C 0.02946(15) 0.65299(15) 0.6543(6)
H18 H 0.0412 0.6691 0.6680
C35 C 0.01491(14) 0.65042(15) 0.5492(6)
H19 H 0.0175 0.6640 0.4895
C37 C 0.15510(14) 0.58324(15) 0.7312(5)
C38 C 0.18241(15) 0.59118(17) 0.7938(6)
C39 C 0.19075(18) 0.6204(2) 0.7942(7)
H21 H 0.1787 0.6344 0.7612
C40 C 0.2166(2) 0.6283(2) 0.8430(8)
H22 H 0.2228 0.6475 0.8420
C41 C 0.2328(2) 0.6074(3) 0.8928(8)
H23 H 0.2502 0.6131 0.9271
C42 C 0.20050(16) 0.5706(2) 0.8454(6)
C43 C 0.19424(19) 0.5392(2) 0.8411(7)
C44 C 0.1697(2) 0.5277(2) 0.8874(7)
C45 C 0.1471(2) 0.54426(19) 0.9627(6)
C46 C 0.1633(2) 0.4980(2) 0.8628(8)
H24 H 0.1458 0.4899 0.8878
C47 C 0.1835(2) 0.4809(2) 0.8006(8)
H25 H 0.1796 0.4617 0.7794
C48 C 0.2090(2) 0.4941(2) 0.7734(8)
H26 H 0.2235 0.4826 0.7399
N3 N 0.08446(12) 0.44218(12) 0.3424(5)
N4 N 0.02939(13) 0.46038(12) 0.3898(5)
N7 N 0.21523(17) 0.52267(19) 0.7911(6)
N8 N 0.22614(15) 0.5783(2) 0.8979(6)
O5 O 0.11882(10) 0.53380(10) 0.4734(4)
O6 O 0.07424(10) 0.52208(10) 0.5259(4)
O9 O 0.06997(10) 0.64117(11) 0.8438(4)
O10 O 0.03038(10) 0.63040(11) 0.9497(4)
O12 O 0.11222(10) 0.61413(10) 0.9788(4)
H29 H 0.1225 0.6085 0.9195
H30 H 0.0964 0.6219 0.9531
O15 O 0.12251(11) 0.53423(12) 0.9660(4)
O16 O 0.06706(10) 0.56353(10) 0.9453(4)
O17 O 0.06073(10) 0.57594(10) 0.7570(4)
O18 O 0.09371(11) 0.62733(10) 0.6324(4)
H31 H 0.0872 0.6347 0.5687
H32 H 0.0819 0.6308 0.6887
O19 O 0.05501(9) 0.58482(10) 0.4775(4)
H33 H 0.0550 0.5739 0.4157
H34 H 0.0392 0.5819 0.5166
O20 O 0.10691(12) 0.52775(12) 0.7394(4)
H35 H 0.1154 0.5324 0.8086
H36 H 0.0899 0.5189 0.7567
O21 O 0.15609(11) 0.56990(12) 0.6361(4)
O22 O 0.13120(11) 0.59061(13) 0.7769(4)
Co2 Co 0.04628(2) 0.41653(2) 0.37106(7)
C23 C 0.99198(16) 0.49435(15) 0.3458(6)
H13 H 0.9724 0.4992 0.3481
H14 H 0.9877 0.4538 0.4096
C25 C 0.96089(17) 0.5607(2) 0.8842(7)
H15 H 0.9410 0.5569 0.8843
C26 C 0.97793(17) 0.5469(2) 0.9671(7)
C36 C 0.99653(14) 0.62727(14) 0.5342(5)
H20 H 0.9862 0.6258 0.4639
N5 N 0.99281(11) 0.60681(12) 0.6156(4)
N6 N 0.97129(13) 0.57922(13) 0.8036(5)
Co1 Co 0.95372(2) 0.58347(2) 0.62894(7)
N9 N 0.93375(12) 0.62437(12) 0.6386(4)
N10 N 0.93598(12) 0.58901(13) 0.4530(5)
N11 N 0.91554(12) 0.55782(12) 0.6576(5)
N12 N 0.97061(13) 0.53962(12) 0.6102(5)
H1_2 H 0.206(2) 0.3833(16) 0.574(3)
H2_2 H 0.1982(19) 0.4041(7) 0.491(6)
C1_2 C 0.05888(14) 0.35559(15) 0.2794(5)
H3_2 H 0.0508 0.3620 0.2089
C2_2 C 0.06269(14) 0.32666(15) 0.2945(6)
H4_2 H 0.0575 0.3137 0.2353
C3_2 C 0.07460(15) 0.31668(15) 0.4005(6)
H5_2 H 0.0771 0.2969 0.4133
C4_2 C 0.08266(13) 0.33678(14) 0.4870(5)
C5_2 C 0.09577(15) 0.32521(14) 0.6009(5)
C6_2 C 0.07831(13) 0.36635(14) 0.4628(5)
C7_2 C 0.08439(14) 0.39052(14) 0.5476(5)
C8_2 C 0.10935(15) 0.39300(14) 0.6182(5)
C9_2 C 0.13596(14) 0.37468(13) 0.6008(5)
C10_2 C 0.11021(18) 0.41535(16) 0.7008(6)
H6_2 H 0.1258 0.4169 0.7529
C11_2 C 0.08778(19) 0.43530(18) 0.7048(7)
H7_2 H 0.0878 0.4501 0.7608
C12_2 C 0.06581(18) 0.43295(18) 0.6256(7)
H8_2 H 0.0514 0.4471 0.6254
C25_2 C 0.1893(2) 0.21089(17) 0.1342(7)
H15_2 H 0.1931 0.1910 0.1343
C26_2 C 0.2031(2) 0.22793(17) 0.2171(7)
H16 H 0.2146 0.2197 0.2759
C27_2 C 0.19924(18) 0.25762(18) 0.2095(7)
H17_2 H 0.2091 0.2698 0.2611
C28_2 C 0.18055(15) 0.26942(15) 0.1248(5)
C29_2 C 0.16515(15) 0.25023(14) 0.0538(5)
C30_2 C 0.17995(13) 0.30176(14) 0.1089(5)
C33_2 C 0.11543(15) 0.29376(16) 0.1042(5)
C38_2 C 0.15882(17) 0.43241(15) 0.0438(6)
C39_2 C 0.1296(2) 0.44075(18) 0.0442(7)
H21_2 H 0.1156 0.4287 0.0112
C40_2 C 0.1217(2) 0.4666(2) 0.0930(8)
H22_2 H 0.1025 0.4728 0.0920
C41_2 C 0.1426(3) 0.4828(2) 0.1428(8)
H23_2 H 0.1369 0.5002 0.1771
C42_2 C 0.1794(2) 0.45050(16) 0.0954(6)
C43_2 C 0.2108(2) 0.44424(19) 0.0911(7)
C44_2 C 0.2223(2) 0.4197(2) 0.1374(7)
C45_2 C 0.20574(19) 0.3971(2) 0.2127(6)
C46_2 C 0.2520(2) 0.4133(2) 0.1128(8)
H24_2 H 0.2601 0.3958 0.1378
C47_2 C 0.2691(2) 0.4335(2) 0.0506(8)
H25_2 H 0.2883 0.4296 0.0294
C48_2 C 0.2559(2) 0.4590(2) 0.0234(8)
N1_2 N 0.06625(12) 0.37563(12) 0.3614(4)
N2_2 N 0.06402(12) 0.41099(13) 0.5470(5)
N6_2 N 0.17078(13) 0.22129(13) 0.0536(5)
N7_2 N 0.22733(19) 0.46523(17) 0.0411(6)
N8_2 N 0.1717(2) 0.47614(15) 0.1479(6)
O1_2 O 0.11536(10) 0.30670(10) 0.5915(4)
O2_2 O 0.08604(10) 0.33540(10) 0.6970(4)
O3_2 O 0.14047(10) 0.36587(10) 0.4964(4)
O4_2 O 0.15235(10) 0.37013(10) 0.6867(4)
O9_2 O 0.10883(11) 0.31997(10) 0.0938(4)
O10_2 O 0.11960(11) 0.28038(10) 0.1997(4)
O11_2 O 0.14555(11) 0.30685(10) 0.3847(4)
H27_2 H 0.1546 0.2925 0.4186
H28_2 H 0.1306 0.3115 0.4282
O12_2 O 0.13587(10) 0.36222(10) 0.2288(4)
H29_2 H 0.1415 0.3725 0.1695
H30_2 H 0.1281 0.3464 0.2031
O13_2 O 0.20166(11) 0.38625(11) 0.5023(4)
O14_2 O 0.18459(12) 0.40514(12) 0.2742(4)
O15_2 O 0.21577(12) 0.37251(11) 0.2160(4)
O16_2 O 0.18647(10) 0.31706(10) 0.1953(4)
O17_2 O 0.17406(10) 0.31073(10) 0.0070(4)
H35_2 H 0.2176 0.3654 0.0586
H36_2 H 0.2311 0.3399 0.0067
O22_2 O 0.15939(13) 0.38120(11) 0.0269(4)
La1_2 La 0.179203(8) 0.350201(8) 0.36122(3)
O24_2 O 0.23251(11) 0.32604(11) 0.4062(4)
O25_2 O 0.19746(10) 0.31561(11) 0.5310(4)
La4_2 La 0.176959(8) 0.349230(8) 0.85706(3)
C13_2 C 0.31926(16) 0.36101(15) 0.5997(7)
H9_2 H 0.3385 0.3638 0.5778
C14_2 C 0.30300(17) 0.38474(17) 0.6394(7)
H10_2 H 0.3110 0.4033 0.6415
C15_2 C 0.27478(15) 0.37990(16) 0.6753(7)
H11_2 H 0.2637 0.3952 0.7040
C16_2 C 0.26276(15) 0.35207(15) 0.6688(7)
C17_2 C 0.23392(15) 0.34744(15) 0.7263(6)
C18_2 C 0.27983(15) 0.33016(15) 0.6219(6)
C19_2 C 0.26940(15) 0.29960(15) 0.6057(6)
C20_2 C 0.24334(14) 0.29131(15) 0.5551(6)
C21_2 C 0.22306(14) 0.31300(14) 0.4947(6)
C22_2 C 0.23637(15) 0.26188(14) 0.5537(6)
H12_2 H 0.2185 0.2558 0.5239
C23_2 C 0.25565(15) 0.24198(16) 0.5958(6)
H13_2 H 0.2508 0.2224 0.5981
C24_2 C 0.28261(16) 0.25143(16) 0.6354(6)
H14_2 H 0.2962 0.2377 0.6596
C31_2 C 0.14158(14) 0.25789(13) 0.9679(5)
C32_2 C 0.11850(14) 0.27667(14) 0.9910(5)
C34_2 C 0.09701(15) 0.27946(15) 0.9043(6)
H18_2 H 0.0809 0.2912 0.9180
C35_2 C 0.09958(15) 0.26491(14) 0.7992(6)
H19_2 H 0.0860 0.2675 0.7395
C36_2 C 0.12273(14) 0.24653(14) 0.7842(5)
H20_2 H 0.1242 0.2362 0.7139
C37_2 C 0.16676(15) 0.40510(14) 0.9812(5)
H26_2 H 0.2674 0.4735 0.9899
N3_2 N 0.30782(12) 0.33446(12) 0.5924(5)
N4_2 N 0.28962(12) 0.27939(13) 0.6398(5)
N5_2 N 0.14319(12) 0.24281(11) 0.8656(4)
O5_2 O 0.21620(10) 0.36882(10) 0.7234(4)
O6_2 O 0.22792(10) 0.32424(10) 0.7759(4)
O18_2 O 0.12267(10) 0.34371(11) 0.8824(4)
H31_2 H 0.1153 0.3372 0.8187
H32_2 H 0.1192 0.3319 0.9387
O19_2 O 0.16518(10) 0.30501(9) 0.7275(4)
H33_2 H 0.1761 0.3050 0.6657
H34_2 H 0.1681 0.2892 0.7666
O20_2 O 0.22225(12) 0.35691(12) 0.9894(4)
O21_2 O 0.18010(12) 0.40609(11) 0.8861(4)
Co1_2 Co 0.16653(2) 0.20372(2) 0.87894(7)
N9_2 N 0.12563(12) 0.18375(12) 0.8886(4)
N10_2 N 0.16099(13) 0.18598(12) 0.7030(5)
N11_2 N 0.19218(12) 0.16554(12) 0.9076(5)
N12_2 N 0.21038(12) 0.22061(13) 0.8602(5)
Co2_2 Co 0.33347(2) 0.29628(2) 0.62106(7)
C25_3 C 0.03911(17) 0.9393(2) 0.8842(7)
H15_3 H 0.0590 0.9431 0.8843
C26_3 C 0.02207(17) 0.9531(2) 0.9671(7)
C36_3 C 0.00347(14) 0.87273(14) 0.5342(5)
H20_3 H 0.0138 0.8742 0.4639
N5_3 N 0.00719(11) 0.89319(12) 0.6156(4)
N6_3 N 0.02871(13) 0.92078(13) 0.8036(5)
Co1_3 Co 0.04628(2) 0.91653(2) 0.62894(7)
N9_3 N 0.06625(12) 0.87563(12) 0.6386(4)
N10_3 N 0.06402(12) 0.91099(13) 0.4530(5)
N11_3 N 0.08446(12) 0.94218(12) 0.6576(5)
N12_3 N 0.02939(13) 0.96038(12) 0.6102(5)
C13_3 C 0.88899(15) 0.06926(16) 0.3497(7)
H9_3 H 0.8862 0.0885 0.3278
C14_3 C 0.86526(17) 0.05300(17) 0.3894(7)
H10_3 H 0.8467 0.0610 0.3915
C15_3 C 0.87010(16) 0.02478(15) 0.4253(7)
H11_3 H 0.8548 0.0137 0.4540
C16_3 C 0.89793(15) 0.01276(15) 0.4188(7)
C18_3 C 0.91984(15) 0.02983(15) 0.3719(6)
C19_3 C 0.95040(15) 0.01940(15) 0.3557(6)
C24_3 C 0.99857(16) 0.03261(16) 0.3854(6)
C46_3 C 0.8367(2) 0.0020(2) 0.8628(8)
H24_3 H 0.8542 0.0101 0.8878
C47_3 C 0.8165(2) 0.0191(2) 0.8006(8)
H25_3 H 0.8204 0.0383 0.7794
C48_3 C 0.7910(2) 0.0059(2) 0.7734(8)
H26_3 H 0.7765 0.0174 0.7399
N3_3 N 0.91554(12) 0.05782(12) 0.3424(5)
N4_3 N 0.97061(13) 0.03962(12) 0.3898(5)
Co2_3 Co 0.95372(2) 0.08347(2) 0.37106(7)
H1_3 H 0.8667(16) 0.956(2) 0.324(3)
H2_3 H 0.8459(7) 0.9482(19) 0.241(6)
C1_3 C 0.89441(15) 0.80888(14) 0.0294(5)
C2_3 C 0.92334(15) 0.81269(14) 0.0445(6)
C3_3 C 0.93332(15) 0.82460(15) 0.1505(6)
H5_3 H 0.9531 0.8271 0.1633
C4_3 C 0.91322(14) 0.83266(13) 0.2370(5)
C5_3 C 0.92479(14) 0.84577(15) 0.3509(5)
C6_3 C 0.88365(14) 0.82831(13) 0.2128(5)
C7_3 C 0.85948(14) 0.83439(14) 0.2976(5)
C8_3 C 0.85700(14) 0.85935(15) 0.3682(5)
C9_3 C 0.87532(13) 0.88596(14) 0.3508(5)
C10_3 C 0.83465(16) 0.86021(18) 0.4508(6)
H6_3 H 0.8331 0.8758 0.5029
C11_3 C 0.81470(18) 0.83778(19) 0.4548(7)
H7_3 H 0.7999 0.8378 0.5108
C12_3 C 0.81705(18) 0.81581(18) 0.3756(7)
H8_3 H 0.8029 0.8014 0.3754
H17_3 H 0.9802 0.9591 0.0111
N1_3 N 0.87437(12) 0.81625(12) 0.1114(4)
N2_3 N 0.83901(13) 0.81402(12) 0.2970(5)
O1_3 O 0.94330(10) 0.86536(10) 0.3415(4)
O2_3 O 0.91460(10) 0.83604(10) 0.4470(4)
O3_3 O 0.88413(10) 0.89047(10) 0.2464(4)
O4_3 O 0.87987(10) 0.90235(10) 0.4367(4)
O11_3 O 0.94315(10) 0.89555(11) 0.1347(4)
H27_3 H 0.9575 0.9046 0.1686
H28_3 H 0.9385 0.8806 0.1782
O13_3 O 0.86375(11) 0.95166(11) 0.2523(4)
O14_3 O 0.84486(12) 0.93459(12) 0.0242(4)
La1_3 La 0.899799(8) 0.929203(8) 0.11122(3)
O24_3 O 0.92396(11) 0.98251(11) 0.1562(4)
O25_3 O 0.93439(11) 0.94746(10) 0.2810(4)
Co3_2 Co 0.83347(2) 0.79628(2) 0.12106(7)
La4_3 La 0.900770(8) 0.926959(8) 0.60706(3)
H3_3 H 0.8880 0.8008 0.9589
H4_3 H 0.9363 0.8075 0.9853
C17_3 C 0.90256(15) 0.98392(15) 0.4763(6)
C20_3 C 0.95869(15) 0.99334(14) 0.3051(6)
C21_3 C 0.93700(14) 0.97306(14) 0.2447(6)
C22_3 C 0.98812(14) 0.98637(15) 0.3037(6)
H12_3 H 0.9942 0.9685 0.2739
C27_3 C 0.99238(18) 0.94924(18) 0.9595(7)
C28_3 C 0.98058(15) 0.93055(15) 0.8748(5)
C29_3 C 0.99977(14) 0.91515(15) 0.8038(5)
C30_3 C 0.94824(14) 0.92995(13) 0.8589(5)
C31_3 C 0.99211(13) 0.89158(14) 0.7179(5)
C32_3 C 0.97333(14) 0.86850(14) 0.7410(5)
C33_3 C 0.95624(16) 0.86543(15) 0.8542(5)
C34_3 C 0.97054(15) 0.84701(15) 0.6543(6)
H18_3 H 0.9588 0.8309 0.6680
C35_3 C 0.98509(14) 0.84958(15) 0.5492(6)
H19_3 H 0.9825 0.8360 0.4895
C37_3 C 0.84490(14) 0.91676(15) 0.7312(5)
C38_3 C 0.81759(15) 0.90882(17) 0.7938(6)
C39_3 C 0.80925(18) 0.8796(2) 0.7942(7)
H21_3 H 0.8213 0.8656 0.7612
C40_3 C 0.7834(2) 0.8717(2) 0.8430(8)
H22_3 H 0.7772 0.8525 0.8420
C41_3 C 0.7672(2) 0.8926(3) 0.8928(8)
H23_3 H 0.7498 0.8869 0.9271
C42_3 C 0.79950(16) 0.9294(2) 0.8454(6)
C43_3 C 0.80576(19) 0.9608(2) 0.8411(7)
C44_3 C 0.8303(2) 0.9723(2) 0.8874(7)
C45_3 C 0.8529(2) 0.95574(19) 0.9627(6)
N7_3 N 0.78477(17) 0.97733(19) 0.7911(6)
N8_3 N 0.77386(15) 0.9217(2) 0.8979(6)
O5_3 O 0.88118(10) 0.96620(10) 0.4734(4)
O6_3 O 0.92576(10) 0.97792(10) 0.5259(4)
O9_3 O 0.93003(10) 0.85883(11) 0.8438(4)
O10_3 O 0.96962(10) 0.86960(11) 0.9497(4)
O12_3 O 0.88778(10) 0.88587(10) 0.9788(4)
H29_3 H 0.8775 0.8915 0.9195
H30_3 H 0.9036 0.8781 0.9531
O15_3 O 0.87749(11) 0.96577(12) 0.9660(4)
O16_3 O 0.93294(10) 0.93647(10) 0.9453(4)
O17_3 O 0.93927(10) 0.92406(10) 0.7570(4)
O18_3 O 0.90629(11) 0.87267(10) 0.6324(4)
H31_3 H 0.9128 0.8653 0.5687
H32_3 H 0.9181 0.8692 0.6887
O19_3 O 0.94499(9) 0.91518(10) 0.4775(4)
H33_3 H 0.9450 0.9261 0.4157
H34_3 H 0.9608 0.9181 0.5166
O20_3 O 0.89309(12) 0.97225(12) 0.7394(4)
H35_3 H 0.8846 0.9676 0.8086
H36_3 H 0.9101 0.9811 0.7567
O21_3 O 0.84391(11) 0.93010(12) 0.6361(4)
O22_3 O 0.86880(11) 0.90939(13) 0.7769(4)
H1_4 H 0.794(2) 0.1167(16) 0.574(3)
H2_4 H 0.8018(19) 0.0959(7) 0.491(6)
C1_4 C 0.94112(14) 0.14441(15) 0.2794(5)
H3_4 H 0.9492 0.1380 0.2089
C2_4 C 0.93731(14) 0.17334(15) 0.2945(6)
H4_4 H 0.9425 0.1863 0.2353
C3_4 C 0.92540(15) 0.18332(15) 0.4005(6)
H5_4 H 0.9229 0.2031 0.4133
C4_4 C 0.91734(13) 0.16322(14) 0.4870(5)
C5_4 C 0.90423(15) 0.17479(14) 0.6009(5)
C6_4 C 0.92169(13) 0.13365(14) 0.4628(5)
C7_4 C 0.91561(14) 0.10948(14) 0.5476(5)
C8_4 C 0.89065(15) 0.10700(14) 0.6182(5)
C9_4 C 0.86404(14) 0.12532(13) 0.6008(5)
C10_4 C 0.88979(18) 0.08465(16) 0.7008(6)
H6_4 H 0.8742 0.0831 0.7529
C11_4 C 0.91222(19) 0.06470(18) 0.7048(7)
H7_4 H 0.9122 0.0499 0.7608
C12_4 C 0.93419(18) 0.06705(18) 0.6256(7)
H8_4 H 0.9486 0.0529 0.6254
C25_4 C 0.8107(2) 0.28911(17) 0.1342(7)
H15_4 H 0.8069 0.3090 0.1343
C26_4 C 0.7969(2) 0.27207(17) 0.2171(7)
H16_2 H 0.7854 0.2803 0.2759
C27_4 C 0.80076(18) 0.24238(18) 0.2095(7)
H17_4 H 0.7909 0.2302 0.2611
C28_4 C 0.81945(15) 0.23058(15) 0.1248(5)
C29_4 C 0.83485(15) 0.24977(14) 0.0538(5)
C30_4 C 0.82005(13) 0.19824(14) 0.1089(5)
C33_4 C 0.88457(15) 0.20624(16) 0.1042(5)
C38_4 C 0.84118(17) 0.06759(15) 0.0438(6)
C39_4 C 0.8704(2) 0.05925(18) 0.0442(7)
H21_4 H 0.8844 0.0713 0.0112
C40_4 C 0.8783(2) 0.0334(2) 0.0930(8)
H22_4 H 0.8975 0.0272 0.0920
C41_4 C 0.8574(3) 0.0172(2) 0.1428(8)
C42_4 C 0.8206(2) 0.04950(16) 0.0954(6)
C43_4 C 0.7892(2) 0.05576(19) 0.0911(7)
C44_4 C 0.7777(2) 0.0803(2) 0.1374(7)
C45_4 C 0.79426(19) 0.1029(2) 0.2127(6)
C46_4 C 0.7480(2) 0.0867(2) 0.1128(8)
H24_4 H 0.7399 0.1042 0.1378
C47_4 C 0.7309(2) 0.0665(2) 0.0506(8)
H25_4 H 0.7117 0.0704 0.0294
C48_4 C 0.7441(2) 0.0410(2) 0.0234(8)
N1_4 N 0.93375(12) 0.12437(12) 0.3614(4)
N2_4 N 0.93598(12) 0.08901(13) 0.5470(5)
N6_4 N 0.82922(13) 0.27871(13) 0.0536(5)
N7_4 N 0.77267(19) 0.03477(17) 0.0411(6)
N8_4 N 0.8283(2) 0.02386(15) 0.1479(6)
O1_4 O 0.88464(10) 0.19330(10) 0.5915(4)
O2_4 O 0.91396(10) 0.16460(10) 0.6970(4)
O3_4 O 0.85953(10) 0.13413(10) 0.4964(4)
O4_4 O 0.84765(10) 0.12987(10) 0.6867(4)
O9_4 O 0.89117(11) 0.18003(10) 0.0938(4)
O10_4 O 0.88040(11) 0.21962(10) 0.1997(4)
O11_4 O 0.85445(11) 0.19315(10) 0.3847(4)
H27_4 H 0.8454 0.2075 0.4186
H28_4 H 0.8694 0.1885 0.4282
O12_4 O 0.86413(10) 0.13778(10) 0.2288(4)
H29_4 H 0.8585 0.1275 0.1695
H30_4 H 0.8719 0.1536 0.2031
O13_4 O 0.79834(11) 0.11375(11) 0.5023(4)
O14_4 O 0.81541(12) 0.09486(12) 0.2742(4)
O15_4 O 0.78423(12) 0.12749(11) 0.2160(4)
O16_4 O 0.81353(10) 0.18294(10) 0.1953(4)
O17_4 O 0.82594(10) 0.18927(10) 0.0070(4)
H35_4 H 0.7824 0.1346 0.0586
H36_4 H 0.7689 0.1601 0.0067
O22_4 O 0.84061(13) 0.11880(11) 0.0269(4)
La1_4 La 0.820797(8) 0.149799(8) 0.36122(3)
O24_4 O 0.76749(11) 0.17396(11) 0.4062(4)
O25_4 O 0.80254(10) 0.18439(11) 0.5310(4)
La4_4 La 0.823041(8) 0.150770(8) 0.85706(3)
C13_4 C 0.68074(16) 0.13899(15) 0.5997(7)
H9_4 H 0.6615 0.1362 0.5778
C14_4 C 0.69700(17) 0.11526(17) 0.6394(7)
H10_4 H 0.6890 0.0967 0.6415
C15_4 C 0.72522(15) 0.12010(16) 0.6753(7)
H11_4 H 0.7363 0.1048 0.7040
C16_4 C 0.73724(15) 0.14793(15) 0.6688(7)
C17_4 C 0.76608(15) 0.15256(15) 0.7263(6)
C18_4 C 0.72017(15) 0.16984(15) 0.6219(6)
C19_4 C 0.73060(15) 0.20040(15) 0.6057(6)
C20_4 C 0.75666(14) 0.20869(15) 0.5551(6)
C21_4 C 0.77694(14) 0.18700(14) 0.4947(6)
C22_4 C 0.76363(15) 0.23812(14) 0.5537(6)
H12_4 H 0.7815 0.2442 0.5239
C23_3 C 0.74435(15) 0.25802(16) 0.5958(6)
H13_3 H 0.7492 0.2776 0.5981
C24_4 C 0.71739(16) 0.24857(16) 0.6354(6)
H14_3 H 0.7038 0.2623 0.6596
C31_4 C 0.85842(14) 0.24211(13) 0.9679(5)
C32_4 C 0.88150(14) 0.22333(14) 0.9910(5)
C34_4 C 0.90299(15) 0.22054(15) 0.9043(6)
H18_4 H 0.9191 0.2088 0.9180
C35_4 C 0.90042(15) 0.23509(14) 0.7992(6)
H19_4 H 0.9140 0.2325 0.7395
C36_4 C 0.87727(14) 0.25347(14) 0.7842(5)
H20_4 H 0.8758 0.2638 0.7139
C37_4 C 0.83324(15) 0.09490(14) 0.9812(5)
H26_4 H 0.7326 0.0265 0.9899
N3_4 N 0.69218(12) 0.16554(12) 0.5924(5)
N4_4 N 0.71038(12) 0.22061(13) 0.6398(5)
N5_4 N 0.85681(12) 0.25719(11) 0.8656(4)
O5_4 O 0.78380(10) 0.13118(10) 0.7234(4)
O6_4 O 0.77208(10) 0.17576(10) 0.7759(4)
O18_4 O 0.87733(10) 0.15629(11) 0.8824(4)
H31_4 H 0.8847 0.1628 0.8187
H32_4 H 0.8808 0.1681 0.9387
O19_4 O 0.83482(10) 0.19499(9) 0.7275(4)
H33_4 H 0.8239 0.1950 0.6657
H34_4 H 0.8319 0.2108 0.7666
O20_4 O 0.77775(12) 0.14309(12) 0.9894(4)
O21_4 O 0.81990(12) 0.09391(11) 0.8861(4)
Co1_4 Co 0.83347(2) 0.29628(2) 0.87894(7)
N9_4 N 0.87437(12) 0.31625(12) 0.8886(4)
N10_4 N 0.83901(13) 0.31402(12) 0.7030(5)
N11_4 N 0.80782(12) 0.33446(12) 0.9076(5)
N12_4 N 0.78962(12) 0.27939(13) 0.8602(5)
Co2_4 Co 0.66653(2) 0.20372(2) 0.62106(7)
H6_5 H 0.6669 0.1242 0.0029
H7_5 H 0.7001 0.1622 0.0108
La4_5 La 0.599230(8) 0.073041(8) 0.10706(3)
H1_5 H 0.6333(16) 0.044(2) 0.824(3)
H2_5 H 0.6541(7) 0.0518(19) 0.741(6)
C1_5 C 0.60559(15) 0.19112(14) 0.5294(5)
H3_5 H 0.6120 0.1992 0.4589
C2_5 C 0.57666(15) 0.18731(14) 0.5445(6)
H4_5 H 0.5637 0.1925 0.4853
C3_5 C 0.56668(15) 0.17540(15) 0.6505(6)
H5_5 H 0.5469 0.1729 0.6633
C4_5 C 0.58678(14) 0.16734(13) 0.7370(5)
C5_5 C 0.57521(14) 0.15423(15) 0.8509(5)
C6_5 C 0.61635(14) 0.17169(13) 0.7128(5)
C7_5 C 0.64052(14) 0.16561(14) 0.7976(5)
C8_5 C 0.64300(14) 0.14065(15) 0.8682(5)
C9_5 C 0.62468(13) 0.11404(14) 0.8508(5)
C10_5 C 0.66535(16) 0.13979(18) 0.9508(6)
C11_5 C 0.68530(18) 0.16222(19) 0.9548(7)
C12_5 C 0.68295(18) 0.18419(18) 0.8756(7)
H8_5 H 0.6971 0.1986 0.8754
C25_5 C 0.46089(17) 0.0607(2) 0.3842(7)
H15_5 H 0.4410 0.0569 0.3843
C26_5 C 0.47793(17) 0.0469(2) 0.4671(7)
H16_3 H 0.4697 0.0354 0.5259
C27_5 C 0.50762(18) 0.05076(18) 0.4595(7)
H17_5 H 0.5198 0.0409 0.5111
C28_5 C 0.51942(15) 0.06945(15) 0.3748(5)
C29_5 C 0.50023(14) 0.08485(15) 0.3038(5)
C30_5 C 0.55176(14) 0.07005(13) 0.3589(5)
C31_5 C 0.50789(13) 0.10842(14) 0.2179(5)
C32_5 C 0.52667(14) 0.13150(14) 0.2410(5)
C33_5 C 0.54376(16) 0.13457(15) 0.3542(5)
C34_5 C 0.52946(15) 0.15299(15) 0.1543(6)
H18_5 H 0.5412 0.1691 0.1680
C35_5 C 0.51491(14) 0.15042(15) 0.0492(6)
C36_5 C 0.49653(14) 0.12727(14) 0.0342(5)
C37_5 C 0.65510(14) 0.08324(15) 0.2312(5)
C38_5 C 0.68241(15) 0.09118(17) 0.2938(6)
C39_5 C 0.69075(18) 0.1204(2) 0.2942(7)
H21_5 H 0.6787 0.1344 0.2612
C40_5 C 0.7166(2) 0.1283(2) 0.3430(8)
H22_5 H 0.7228 0.1475 0.3420
C41_5 C 0.7328(2) 0.1074(3) 0.3928(8)
H23_4 H 0.7502 0.1131 0.4271
C42_5 C 0.70050(16) 0.0706(2) 0.3454(6)
C43_5 C 0.69424(19) 0.0392(2) 0.3411(7)
C44_5 C 0.6697(2) 0.0277(2) 0.3874(7)
C45_5 C 0.6471(2) 0.04426(19) 0.4627(6)
N1_5 N 0.62563(12) 0.18375(12) 0.6114(4)
N2_5 N 0.66099(13) 0.18598(12) 0.7970(5)
N5_5 N 0.49281(11) 0.10681(12) 0.1156(4)
N6_5 N 0.47129(13) 0.07922(13) 0.3036(5)
N7_5 N 0.71523(17) 0.02267(19) 0.2911(6)
N8_5 N 0.72614(15) 0.0783(2) 0.3979(6)
O1_5 O 0.55670(10) 0.13464(10) 0.8415(4)
O2_5 O 0.58540(10) 0.16396(10) 0.9470(4)
O3_5 O 0.61587(10) 0.10953(10) 0.7464(4)
O4_5 O 0.62013(10) 0.09765(10) 0.9367(4)
O6_5 O 0.57424(10) 0.02208(10) 0.0259(4)
O9_5 O 0.56997(10) 0.14117(11) 0.3438(4)
O10_5 O 0.53038(10) 0.13040(11) 0.4497(4)
O11_5 O 0.55685(10) 0.10445(11) 0.6347(4)
H27_5 H 0.5425 0.0954 0.6686
H28_5 H 0.5615 0.1194 0.6782
O12_5 O 0.61222(10) 0.11413(10) 0.4788(4)
H29_5 H 0.6225 0.1085 0.4195
H30_5 H 0.5964 0.1219 0.4531
O13_5 O 0.63625(11) 0.04834(11) 0.7523(4)
O14_5 O 0.65514(12) 0.06541(12) 0.5242(4)
O15_5 O 0.62251(11) 0.03423(12) 0.4660(4)
O16_5 O 0.56706(10) 0.06353(10) 0.4453(4)
O17_5 O 0.56073(10) 0.07594(10) 0.2570(4)
O18_5 O 0.59371(11) 0.12733(10) 0.1324(4)
H31_5 H 0.5872 0.1347 0.0687
H32_5 H 0.5819 0.1308 0.1887
H34_5 H 0.5392 0.0819 0.0166
O20_5 O 0.60691(12) 0.02775(12) 0.2394(4)
H35_5 H 0.6154 0.0324 0.3086
H36_5 H 0.5899 0.0189 0.2567
O21_5 O 0.65609(11) 0.06990(12) 0.1361(4)
O22_5 O 0.63120(11) 0.09061(13) 0.2769(4)
Co1_5 Co 0.45372(2) 0.08347(2) 0.12894(7)
La1_5 La 0.600201(8) 0.070797(8) 0.61122(3)
N9_5 N 0.43375(12) 0.12437(12) 0.1386(4)
N11_5 N 0.41554(12) 0.05782(12) 0.1576(5)
N12_5 N 0.47061(13) 0.03962(12) 0.1102(5)
O24_5 O 0.57604(11) 0.01749(11) 0.6562(4)
O25_5 O 0.56561(11) 0.05254(10) 0.7810(4)
C17_5 C 0.59744(15) 0.01608(15) 0.9763(6)
C20_5 C 0.54131(15) 0.00666(14) 0.8051(6)
C21_5 C 0.56300(14) 0.02694(14) 0.7447(6)
C22_5 C 0.51188(14) 0.01363(15) 0.8037(6)
H12_5 H 0.5058 0.0315 0.7739
H19_5 H 0.5175 0.1640 0.9895
H20_5 H 0.4862 0.1258 0.9639
O5_5 O 0.61882(10) 0.03380(10) 0.9734(4)
O19_5 O 0.55501(9) 0.08482(10) 0.9775(4)
H33_5 H 0.5550 0.0739 0.9157
N10_5 N 0.43598(12) 0.08901(13) 0.9530(5)
C13_5 C 0.61101(15) 0.93074(16) 0.8497(7)
H9_5 H 0.6138 0.9115 0.8278
C14_5 C 0.63474(17) 0.94700(17) 0.8894(7)
H10_5 H 0.6533 0.9390 0.8915
C15_5 C 0.62990(16) 0.97522(15) 0.9253(7)
H11_5 H 0.6452 0.9863 0.9540
C16_5 C 0.60207(15) 0.98724(15) 0.9188(7)
C18_5 C 0.58016(15) 0.97017(15) 0.8719(6)
C19_5 C 0.54960(15) 0.98060(15) 0.8557(6)
C23_4 C 0.49198(16) 0.99435(15) 0.8458(6)
H13_4 H 0.4724 0.9992 0.8481
C24_5 C 0.50143(16) 0.96739(16) 0.8854(6)
H14_4 H 0.4877 0.9538 0.9096
N3_5 N 0.58446(12) 0.94218(12) 0.8424(5)
N4_5 N 0.52939(13) 0.96038(12) 0.8898(5)
Co2_5 Co 0.54628(2) 0.91653(2) 0.87106(7)
H1_6 H 0.706(2) 0.8833(16) 0.074(3)
C5_6 C 0.59577(15) 0.82521(14) 0.1009(5)
C7_6 C 0.58439(14) 0.89052(14) 0.0476(5)
C8_6 C 0.60935(15) 0.89300(14) 0.1182(5)
C9_6 C 0.63596(14) 0.87468(13) 0.1008(5)
C10_6 C 0.61021(18) 0.91535(16) 0.2008(6)
H6_6 H 0.6258 0.9169 0.2529
C11_6 C 0.58778(19) 0.93530(18) 0.2048(7)
H7_6 H 0.5878 0.9501 0.2608
C12_6 C 0.56581(18) 0.93295(18) 0.1256(7)
H8_6 H 0.5514 0.9471 0.1254
N2_6 N 0.56402(12) 0.91099(13) 0.0470(5)
O1_6 O 0.61536(10) 0.80670(10) 0.0915(4)
O2_6 O 0.58604(10) 0.83540(10) 0.1970(4)
O4_6 O 0.65235(10) 0.87013(10) 0.1867(4)
O13_6 O 0.70166(11) 0.88625(11) 0.0023(4)
O25_6 O 0.69746(10) 0.81561(11) 0.0310(4)
La4_6 La 0.676959(8) 0.849230(8) 0.35706(3)
H2_6 H 0.6982(19) 0.9041(7) 0.991(6)
C1_6 C 0.55888(14) 0.85559(15) 0.7794(5)
H3_6 H 0.5508 0.8620 0.7089
C2_6 C 0.56269(14) 0.82666(15) 0.7945(6)
H4_6 H 0.5575 0.8137 0.7353
C3_6 C 0.57460(15) 0.81668(15) 0.9005(6)
H5_6 H 0.5771 0.7969 0.9133
C4_6 C 0.58266(13) 0.83678(14) 0.9870(5)
C6_6 C 0.57831(13) 0.86635(14) 0.9628(5)
C13_6 C 0.81926(16) 0.86101(15) 0.0997(7)
H9_6 H 0.8385 0.8638 0.0778
C14_6 C 0.80300(17) 0.88474(17) 0.1394(7)
H10_6 H 0.8110 0.9033 0.1415
C15_6 C 0.77478(15) 0.87990(16) 0.1753(7)
H11_6 H 0.7637 0.8952 0.2040
C16_6 C 0.76276(15) 0.85207(15) 0.1688(7)
C17_6 C 0.73392(15) 0.84744(15) 0.2263(6)
C18_6 C 0.77983(15) 0.83016(15) 0.1219(6)
C19_6 C 0.76940(15) 0.79960(15) 0.1057(6)
C20_6 C 0.74334(14) 0.79131(15) 0.0551(6)
C22_6 C 0.73637(15) 0.76188(14) 0.0537(6)
H12_6 H 0.7185 0.7558 0.0239
C23_5 C 0.75565(15) 0.74198(16) 0.0958(6)
H13_5 H 0.7508 0.7224 0.0981
C24_6 C 0.78261(16) 0.75143(16) 0.1354(6)
H14_5 H 0.7962 0.7377 0.1596
C25_6 C 0.6893(2) 0.71089(17) 0.6342(7)
H15_6 H 0.6931 0.6910 0.6343
C26_6 C 0.7031(2) 0.72793(17) 0.7171(7)
H16_4 H 0.7146 0.7197 0.7759
C27_6 C 0.69924(18) 0.75762(18) 0.7095(7)
H17_6 H 0.7091 0.7698 0.7611
C28_6 C 0.68055(15) 0.76942(15) 0.6248(5)
C29_6 C 0.66515(15) 0.75023(14) 0.5538(5)
C30_6 C 0.67995(13) 0.80176(14) 0.6089(5)
C31_6 C 0.64158(14) 0.75789(13) 0.4679(5)
C32_6 C 0.61850(14) 0.77667(14) 0.4910(5)
C33_6 C 0.61543(15) 0.79376(16) 0.6042(5)
C34_6 C 0.59701(15) 0.77946(15) 0.4043(6)
H18_6 H 0.5809 0.7912 0.4180
C35_6 C 0.59958(15) 0.76491(14) 0.2992(6)
H19_6 H 0.5860 0.7675 0.2395
C36_6 C 0.62273(14) 0.74653(14) 0.2842(5)
H20_6 H 0.6242 0.7362 0.2139
C37_6 C 0.66676(15) 0.90510(14) 0.4812(5)
C38_6 C 0.65882(17) 0.93241(15) 0.5438(6)
C39_6 C 0.6296(2) 0.94075(18) 0.5442(7)
H21_6 H 0.6156 0.9287 0.5112
C40_6 C 0.6217(2) 0.9666(2) 0.5930(8)
H22_6 H 0.6025 0.9728 0.5920
C41_6 C 0.6426(3) 0.9828(2) 0.6428(8)
C42_6 C 0.6794(2) 0.95050(16) 0.5954(6)
C43_6 C 0.7108(2) 0.94424(19) 0.5911(7)
C44_6 C 0.7223(2) 0.9197(2) 0.6374(7)
C45_6 C 0.70574(19) 0.8971(2) 0.7127(6)
C46_5 C 0.7520(2) 0.9133(2) 0.6128(8)
H24_5 H 0.7601 0.8958 0.6378
C47_5 C 0.7691(2) 0.9335(2) 0.5506(8)
H25_5 H 0.7883 0.9296 0.5294
C48_5 C 0.7559(2) 0.9590(2) 0.5234(8)
H26_5 H 0.7674 0.9735 0.4899
N1_6 N 0.56625(12) 0.87563(12) 0.8614(4)
N3_6 N 0.80782(12) 0.83446(12) 0.0924(5)
N4_6 N 0.78962(12) 0.77939(13) 0.1398(5)
N5_6 N 0.64319(12) 0.74281(11) 0.3656(4)
N6_6 N 0.67078(13) 0.72129(13) 0.5536(5)
N7_6 N 0.72733(19) 0.96523(17) 0.5411(6)
N8_6 N 0.6717(2) 0.97614(15) 0.6479(6)
O3_6 O 0.64047(10) 0.86587(10) 0.9964(4)
O5_6 O 0.71620(10) 0.86882(10) 0.2234(4)
O6_6 O 0.72792(10) 0.82424(10) 0.2759(4)
O9_6 O 0.60883(11) 0.81997(10) 0.5938(4)
O10_6 O 0.61960(11) 0.78038(10) 0.6997(4)
O11_6 O 0.64555(11) 0.80685(10) 0.8847(4)
H27_6 H 0.6546 0.7925 0.9186
H28_6 H 0.6306 0.8115 0.9282
O12_6 O 0.63587(10) 0.86222(10) 0.7288(4)
H29_6 H 0.6415 0.8725 0.6695
H30_6 H 0.6281 0.8464 0.7031
O14_6 O 0.68459(12) 0.90514(12) 0.7742(4)
O15_6 O 0.71577(12) 0.87251(11) 0.7160(4)
O16_6 O 0.68647(10) 0.81706(10) 0.6953(4)
O17_6 O 0.67406(10) 0.81073(10) 0.5070(4)
O18_6 O 0.62267(10) 0.84371(11) 0.3824(4)
H31_6 H 0.6153 0.8372 0.3187
H32_6 H 0.6192 0.8319 0.4387
O19_6 O 0.66518(10) 0.80501(9) 0.2275(4)
H33_6 H 0.6761 0.8050 0.1657
H34_6 H 0.6681 0.7892 0.2666
O20_6 O 0.72225(12) 0.85691(12) 0.4894(4)
H35_6 H 0.7176 0.8654 0.5586
H36_6 H 0.7311 0.8399 0.5067
O21_6 O 0.68010(12) 0.90609(11) 0.3861(4)
O22_6 O 0.65939(13) 0.88120(11) 0.5269(4)
Co1_6 Co 0.66653(2) 0.70372(2) 0.37894(7)
La1_6 La 0.679203(8) 0.850201(8) 0.86122(3)
N9_6 N 0.62563(12) 0.68375(12) 0.3886(4)
N10_6 N 0.66099(13) 0.68598(12) 0.2030(5)
N11_6 N 0.69218(12) 0.66554(12) 0.4076(5)
N12_6 N 0.71038(12) 0.72061(13) 0.3602(5)
O24_6 O 0.73251(11) 0.82604(11) 0.9062(4)
C21_6 C 0.72306(14) 0.81300(14) 0.9947(6)
H6_7 H 0.3331 0.3758 0.0029
H7_7 H 0.2999 0.3378 0.0108
La4_7 La 0.400770(8) 0.426959(8) 0.10706(3)
H1_7 H 0.3667(16) 0.456(2) 0.824(3)
H2_7 H 0.3459(7) 0.4482(19) 0.741(6)
C1_7 C 0.39441(15) 0.30888(14) 0.5294(5)
H3_7 H 0.3880 0.3008 0.4589
C2_7 C 0.42334(15) 0.31269(14) 0.5445(6)
H4_7 H 0.4363 0.3075 0.4853
C3_7 C 0.43332(15) 0.32460(15) 0.6505(6)
H5_7 H 0.4531 0.3271 0.6633
C4_7 C 0.41322(14) 0.33266(13) 0.7370(5)
C5_7 C 0.42479(14) 0.34577(15) 0.8509(5)
C6_7 C 0.38365(14) 0.32831(13) 0.7128(5)
C7_7 C 0.35948(14) 0.33439(14) 0.7976(5)
C8_7 C 0.35700(14) 0.35935(15) 0.8682(5)
C9_7 C 0.37532(13) 0.38596(14) 0.8508(5)
C10_7 C 0.33465(16) 0.36021(18) 0.9508(6)
C11_7 C 0.31470(18) 0.33778(19) 0.9548(7)
C12_7 C 0.31705(18) 0.31581(18) 0.8756(7)
H8_7 H 0.3029 0.3014 0.8754
C25_7 C 0.53911(17) 0.4393(2) 0.3842(7)
H15_7 H 0.5590 0.4431 0.3843
C26_7 C 0.52207(17) 0.4531(2) 0.4671(7)
H16_5 H 0.5303 0.4646 0.5259
C27_7 C 0.49238(18) 0.44924(18) 0.4595(7)
H17_7 H 0.4802 0.4591 0.5111
C28_7 C 0.48058(15) 0.43055(15) 0.3748(5)
C29_7 C 0.49977(14) 0.41515(15) 0.3038(5)
C30_7 C 0.44824(14) 0.42995(13) 0.3589(5)
C31_7 C 0.49211(13) 0.39158(14) 0.2179(5)
C32_7 C 0.47333(14) 0.36850(14) 0.2410(5)
C33_7 C 0.45624(16) 0.36543(15) 0.3542(5)
C34_7 C 0.47054(15) 0.34701(15) 0.1543(6)
H18_7 H 0.4588 0.3309 0.1680
C35_7 C 0.48509(14) 0.34958(15) 0.0492(6)
C36_7 C 0.50347(14) 0.37273(14) 0.0342(5)
C37_7 C 0.34490(14) 0.41676(15) 0.2312(5)
C38_7 C 0.31759(15) 0.40882(17) 0.2938(6)
C39_7 C 0.30925(18) 0.3796(2) 0.2942(7)
H21_7 H 0.3213 0.3656 0.2612
C40_7 C 0.2834(2) 0.3717(2) 0.3430(8)
H22_7 H 0.2772 0.3525 0.3420
C41_7 C 0.2672(2) 0.3926(3) 0.3928(8)
H23_5 H 0.2498 0.3869 0.4271
C42_7 C 0.29950(16) 0.4294(2) 0.3454(6)
C43_7 C 0.30576(19) 0.4608(2) 0.3411(7)
C44_7 C 0.3303(2) 0.4723(2) 0.3874(7)
C45_7 C 0.3529(2) 0.45574(19) 0.4627(6)
C46_6 C 0.3367(2) 0.5020(2) 0.3628(8)
H24_6 H 0.3542 0.5101 0.3878
C47_6 C 0.3165(2) 0.5191(2) 0.3006(8)
H25_6 H 0.3204 0.5383 0.2794
C48_6 C 0.2910(2) 0.5059(2) 0.2734(8)
H26_6 H 0.2765 0.5174 0.2399
N1_7 N 0.37437(12) 0.31625(12) 0.6114(4)
N2_7 N 0.33901(13) 0.31402(12) 0.7970(5)
N5_7 N 0.50719(11) 0.39319(12) 0.1156(4)
N6_7 N 0.52871(13) 0.42078(13) 0.3036(5)
N7_7 N 0.28477(17) 0.47733(19) 0.2911(6)
N8_7 N 0.27386(15) 0.4217(2) 0.3979(6)
O1_7 O 0.44330(10) 0.36536(10) 0.8415(4)
O2_7 O 0.41460(10) 0.33604(10) 0.9470(4)
O3_7 O 0.38413(10) 0.39047(10) 0.7464(4)
O4_7 O 0.37987(10) 0.40235(10) 0.9367(4)
O6_7 O 0.42576(10) 0.47792(10) 0.0259(4)
O9_7 O 0.43003(10) 0.35883(11) 0.3438(4)
O10_7 O 0.46962(10) 0.36960(11) 0.4497(4)
O11_7 O 0.44315(10) 0.39555(11) 0.6347(4)
H27_7 H 0.4575 0.4046 0.6686
H28_7 H 0.4385 0.3806 0.6782
O12_7 O 0.38778(10) 0.38587(10) 0.4788(4)
H29_7 H 0.3775 0.3915 0.4195
H30_7 H 0.4036 0.3781 0.4531
O13_7 O 0.36375(11) 0.45166(11) 0.7523(4)
O14_7 O 0.34486(12) 0.43459(12) 0.5242(4)
O15_7 O 0.37749(11) 0.46577(12) 0.4660(4)
O16_7 O 0.43294(10) 0.43647(10) 0.4453(4)
O17_7 O 0.43927(10) 0.42406(10) 0.2570(4)
O18_7 O 0.40629(11) 0.37267(10) 0.1324(4)
H31_7 H 0.4128 0.3653 0.0687
H32_7 H 0.4181 0.3692 0.1887
H34_7 H 0.4608 0.4181 0.0166
O20_7 O 0.39309(12) 0.47225(12) 0.2394(4)
H35_7 H 0.3846 0.4676 0.3086
H36_7 H 0.4101 0.4811 0.2567
O21_7 O 0.34391(11) 0.43010(12) 0.1361(4)
O22_7 O 0.36880(11) 0.40939(13) 0.2769(4)
Co1_7 Co 0.54628(2) 0.41653(2) 0.12894(7)
La1_7 La 0.399799(8) 0.429203(8) 0.61122(3)
N9_7 N 0.56625(12) 0.37563(12) 0.1386(4)
N11_7 N 0.58446(12) 0.44218(12) 0.1576(5)
N12_7 N 0.52939(13) 0.46038(12) 0.1102(5)
O24_7 O 0.42396(11) 0.48251(11) 0.6562(4)
O25_7 O 0.43439(11) 0.44746(10) 0.7810(4)
C13_7 C 0.38899(15) 0.56926(16) 0.8497(7)
H9_7 H 0.3862 0.5885 0.8278
C14_7 C 0.36526(17) 0.55300(17) 0.8894(7)
H10_7 H 0.3467 0.5610 0.8915
C15_7 C 0.37010(16) 0.52478(15) 0.9253(7)
H11_7 H 0.3548 0.5137 0.9540
C16_7 C 0.39793(15) 0.51276(15) 0.9188(7)
C17_7 C 0.40256(15) 0.48392(15) 0.9763(6)
C18_7 C 0.41984(15) 0.52983(15) 0.8719(6)
C19_7 C 0.45040(15) 0.51940(15) 0.8557(6)
C20_7 C 0.45869(15) 0.49334(14) 0.8051(6)
C21_7 C 0.43700(14) 0.47306(14) 0.7447(6)
C22_7 C 0.48812(14) 0.48637(15) 0.8037(6)
H12_7 H 0.4942 0.4685 0.7739
C23_6 C 0.50802(16) 0.50565(15) 0.8458(6)
H13_6 H 0.5276 0.5008 0.8481
C24_7 C 0.49857(16) 0.53261(16) 0.8854(6)
H14_6 H 0.5123 0.5462 0.9096
H19_7 H 0.4825 0.3360 0.9895
H20_7 H 0.5138 0.3742 0.9639
N3_7 N 0.41554(12) 0.55782(12) 0.8424(5)
N4_7 N 0.47061(13) 0.53962(12) 0.8898(5)
O5_7 O 0.38118(10) 0.46620(10) 0.9734(4)
O19_7 O 0.44499(9) 0.41518(10) 0.9775(4)
H33_7 H 0.4450 0.4261 0.9157
N10_7 N 0.56402(12) 0.41099(13) 0.9530(5)
Co2_6 Co 0.45372(2) 0.58347(2) 0.87106(7)
H1_8 H 0.294(2) 0.6167(16) 0.074(3)
C5_8 C 0.40423(15) 0.67479(14) 0.1009(5)
C7_8 C 0.41561(14) 0.60948(14) 0.0476(5)
C8_8 C 0.39065(15) 0.60700(14) 0.1182(5)
C9_8 C 0.36404(14) 0.62532(13) 0.1008(5)
C10_8 C 0.38979(18) 0.58465(16) 0.2008(6)
H6_8 H 0.3742 0.5831 0.2529
C11_8 C 0.41222(19) 0.56470(18) 0.2048(7)
H7_8 H 0.4122 0.5499 0.2608
C12_8 C 0.43419(18) 0.56705(18) 0.1256(7)
H8_8 H 0.4486 0.5529 0.1254
N2_8 N 0.43598(12) 0.58901(13) 0.0470(5)
O1_8 O 0.38464(10) 0.69330(10) 0.0915(4)
O2_8 O 0.41396(10) 0.66460(10) 0.1970(4)
O4_8 O 0.34765(10) 0.62987(10) 0.1867(4)
O13_8 O 0.29834(11) 0.61375(11) 0.0023(4)
O25_8 O 0.30254(10) 0.68439(11) 0.0310(4)
La4_8 La 0.323041(8) 0.650770(8) 0.35706(3)
H2_8 H 0.3018(19) 0.5959(7) 0.991(6)
C1_8 C 0.44112(14) 0.64441(15) 0.7794(5)
H3_8 H 0.4492 0.6380 0.7089
C2_8 C 0.43731(14) 0.67334(15) 0.7945(6)
H4_8 H 0.4425 0.6863 0.7353
C3_8 C 0.42540(15) 0.68332(15) 0.9005(6)
H5_8 H 0.4229 0.7031 0.9133
C4_8 C 0.41734(13) 0.66322(14) 0.9870(5)
C6_8 C 0.42169(13) 0.63365(14) 0.9628(5)
C13_8 C 0.18074(16) 0.63899(15) 0.0997(7)
H9_8 H 0.1615 0.6362 0.0778
C14_8 C 0.19700(17) 0.61526(17) 0.1394(7)
H10_8 H 0.1890 0.5967 0.1415
C15_8 C 0.22522(15) 0.62010(16) 0.1753(7)
H11_8 H 0.2363 0.6048 0.2040
C16_8 C 0.23724(15) 0.64793(15) 0.1688(7)
C17_8 C 0.26608(15) 0.65256(15) 0.2263(6)
C18_8 C 0.22017(15) 0.66984(15) 0.1219(6)
C19_8 C 0.23060(15) 0.70040(15) 0.1057(6)
C20_8 C 0.25666(14) 0.70869(15) 0.0551(6)
C22_8 C 0.26363(15) 0.73812(14) 0.0537(6)
H12_8 H 0.2815 0.7442 0.0239
C23_7 C 0.24435(15) 0.75802(16) 0.0958(6)
H13_7 H 0.2492 0.7776 0.0981
C24_8 C 0.21739(16) 0.74857(16) 0.1354(6)
H14_7 H 0.2038 0.7623 0.1596
C25_8 C 0.3107(2) 0.78911(17) 0.6342(7)
H15_8 H 0.3069 0.8090 0.6343
C26_8 C 0.2969(2) 0.77207(17) 0.7171(7)
H16_6 H 0.2854 0.7803 0.7759
C27_8 C 0.30076(18) 0.74238(18) 0.7095(7)
H17_8 H 0.2909 0.7302 0.7611
C28_8 C 0.31945(15) 0.73058(15) 0.6248(5)
C29_8 C 0.33485(15) 0.74977(14) 0.5538(5)
C30_8 C 0.32005(13) 0.69824(14) 0.6089(5)
C31_8 C 0.35842(14) 0.74211(13) 0.4679(5)
C32_8 C 0.38150(14) 0.72333(14) 0.4910(5)
C33_8 C 0.38457(15) 0.70624(16) 0.6042(5)
C34_8 C 0.40299(15) 0.72054(15) 0.4043(6)
H18_8 H 0.4191 0.7088 0.4180
C35_8 C 0.40042(15) 0.73509(14) 0.2992(6)
H19_8 H 0.4140 0.7325 0.2395
C36_8 C 0.37727(14) 0.75347(14) 0.2842(5)
H20_8 H 0.3758 0.7638 0.2139
C37_8 C 0.33324(15) 0.59490(14) 0.4812(5)
C38_8 C 0.34118(17) 0.56759(15) 0.5438(6)
C39_8 C 0.3704(2) 0.55925(18) 0.5442(7)
H21_8 H 0.3844 0.5713 0.5112
C40_8 C 0.3783(2) 0.5334(2) 0.5930(8)
H22_8 H 0.3975 0.5272 0.5920
C41_8 C 0.3574(3) 0.5172(2) 0.6428(8)
H23_6 H 0.3631 0.4998 0.6771
C42_8 C 0.3206(2) 0.54950(16) 0.5954(6)
C43_8 C 0.2892(2) 0.55576(19) 0.5911(7)
C44_8 C 0.2777(2) 0.5803(2) 0.6374(7)
C45_8 C 0.29426(19) 0.6029(2) 0.7127(6)
C46_7 C 0.2480(2) 0.5867(2) 0.6128(8)
H24_7 H 0.2399 0.6042 0.6378
C47_7 C 0.2309(2) 0.5665(2) 0.5506(8)
H25_7 H 0.2117 0.5704 0.5294
C48_7 C 0.2441(2) 0.5410(2) 0.5234(8)
H26_7 H 0.2326 0.5265 0.4899
N1_8 N 0.43375(12) 0.62437(12) 0.8614(4)
N3_8 N 0.19218(12) 0.66554(12) 0.0924(5)
N4_8 N 0.21038(12) 0.72061(13) 0.1398(5)
N5_8 N 0.35681(12) 0.75719(11) 0.3656(4)
N6_8 N 0.32922(13) 0.77871(13) 0.5536(5)
N7_8 N 0.27267(19) 0.53477(17) 0.5411(6)
N8_8 N 0.3283(2) 0.52386(15) 0.6479(6)
O3_8 O 0.35953(10) 0.63413(10) 0.9964(4)
O5_8 O 0.28380(10) 0.63118(10) 0.2234(4)
O6_8 O 0.27208(10) 0.67576(10) 0.2759(4)
O9_8 O 0.39117(11) 0.68003(10) 0.5938(4)
O10_8 O 0.38040(11) 0.71962(10) 0.6997(4)
O11_8 O 0.35445(11) 0.69315(10) 0.8847(4)
H27_8 H 0.3454 0.7075 0.9186
H28_8 H 0.3694 0.6885 0.9282
O12_8 O 0.36413(10) 0.63778(10) 0.7288(4)
H29_8 H 0.3585 0.6275 0.6695
H30_8 H 0.3719 0.6536 0.7031
O14_8 O 0.31541(12) 0.59486(12) 0.7742(4)
O15_8 O 0.28423(12) 0.62749(11) 0.7160(4)
O16_8 O 0.31353(10) 0.68294(10) 0.6953(4)
O17_8 O 0.32594(10) 0.68927(10) 0.5070(4)
O18_8 O 0.37733(10) 0.65629(11) 0.3824(4)
H31_8 H 0.3847 0.6628 0.3187
H32_8 H 0.3808 0.6681 0.4387
O19_8 O 0.33482(10) 0.69499(9) 0.2275(4)
H33_8 H 0.3239 0.6950 0.1657
H34_8 H 0.3319 0.7108 0.2666
O20_8 O 0.27775(12) 0.64309(12) 0.4894(4)
H35_8 H 0.2824 0.6346 0.5586
H36_8 H 0.2689 0.6601 0.5067
O21_8 O 0.31990(12) 0.59391(11) 0.3861(4)
O22_8 O 0.34061(13) 0.61880(11) 0.5269(4)
Co1_8 Co 0.33347(2) 0.79628(2) 0.37894(7)
La1_8 La 0.320797(8) 0.649799(8) 0.86122(3)
N9_8 N 0.37437(12) 0.81625(12) 0.3886(4)
N10_8 N 0.33901(13) 0.81402(12) 0.2030(5)
N11_8 N 0.30782(12) 0.83446(12) 0.4076(5)
N12_8 N 0.28962(12) 0.77939(13) 0.3602(5)
O24_8 O 0.26749(11) 0.67396(11) 0.9062(4)
C21_8 C 0.27694(14) 0.68700(14) 0.9947(6)
C23_8 C 0.00802(16) 0.50565(15) 0.6542(6)
H13_8 H 0.0276 0.5008 0.6519
H14_8 H 0.0123 0.5462 0.5904
C25_9 C 0.03911(17) 0.4393(2) 0.1158(7)
H15_9 H 0.0590 0.4431 0.1157
C26_9 C 0.02207(17) 0.4531(2) 0.0329(7)
C36_9 C 0.00347(14) 0.37273(14) 0.4658(5)
H20_9 H 0.0138 0.3742 0.5361
N5_9 N 0.00719(11) 0.39319(12) 0.3844(4)
N6_9 N 0.02871(13) 0.42078(13) 0.1964(5)
H3_9 H 0.8880 0.3008 0.0411
H4_9 H 0.9363 0.3075 0.0147
C13_9 C 0.88899(15) 0.56926(16) 0.6503(7)
H9_9 H 0.8862 0.5885 0.6722
C14_9 C 0.86526(17) 0.55300(17) 0.6106(7)
H10_9 H 0.8467 0.5610 0.6085
C15_9 C 0.87010(16) 0.52478(15) 0.5747(7)
H11_9 H 0.8548 0.5137 0.5460
C16_9 C 0.89793(15) 0.51276(15) 0.5812(7)
C17_9 C 0.90256(15) 0.48392(15) 0.5237(6)
C18_9 C 0.91984(15) 0.52983(15) 0.6281(6)
C19_9 C 0.95040(15) 0.51940(15) 0.6443(6)
C20_9 C 0.95869(15) 0.49334(14) 0.6949(6)
C21_9 C 0.93700(14) 0.47306(14) 0.7553(6)
C22_9 C 0.98812(14) 0.48637(15) 0.6963(6)
H12_9 H 0.9942 0.4685 0.7261
C24_9 C 0.99857(16) 0.53261(16) 0.6146(6)
C27_9 C 0.99238(18) 0.44924(18) 0.0405(7)
C28_9 C 0.98058(15) 0.43055(15) 0.1252(5)
C29_9 C 0.99977(14) 0.41515(15) 0.1962(5)
C30_9 C 0.94824(14) 0.42995(13) 0.1411(5)
C31_9 C 0.99211(13) 0.39158(14) 0.2821(5)
C32_9 C 0.97333(14) 0.36850(14) 0.2590(5)
C33_9 C 0.95624(16) 0.36543(15) 0.1458(5)
C34_9 C 0.97054(15) 0.34701(15) 0.3457(6)
H18_9 H 0.9588 0.3309 0.3320
C35_9 C 0.98509(14) 0.34958(15) 0.4508(6)
H19_9 H 0.9825 0.3360 0.5105
C37_9 C 0.84490(14) 0.41676(15) 0.2688(5)
C38_9 C 0.81759(15) 0.40882(17) 0.2062(6)
C39_9 C 0.80925(18) 0.3796(2) 0.2058(7)
H21_9 H 0.8213 0.3656 0.2388
C40_9 C 0.7834(2) 0.3717(2) 0.1570(8)
H22_9 H 0.7772 0.3525 0.1580
C41_9 C 0.7672(2) 0.3926(3) 0.1072(8)
H23_7 H 0.7498 0.3869 0.0729
C42_9 C 0.79950(16) 0.4294(2) 0.1546(6)
C43_9 C 0.80576(19) 0.4608(2) 0.1589(7)
C44_9 C 0.8303(2) 0.4723(2) 0.1126(7)
C45_9 C 0.8529(2) 0.45574(19) 0.0373(6)
C46_8 C 0.8367(2) 0.5020(2) 0.1372(8)
H24_8 H 0.8542 0.5101 0.1122
C47_8 C 0.8165(2) 0.5191(2) 0.1994(8)
H25_8 H 0.8204 0.5383 0.2206
C48_8 C 0.7910(2) 0.5059(2) 0.2266(8)
H26_8 H 0.7765 0.5174 0.2601
N7_9 N 0.78477(17) 0.47733(19) 0.2089(6)
N8_9 N 0.77386(15) 0.4217(2) 0.1021(6)
O5_9 O 0.88118(10) 0.46620(10) 0.5266(4)
O6_9 O 0.92576(10) 0.47792(10) 0.4741(4)
O7 O 0.92396(11) 0.48251(11) 0.8438(4)
O8 O 0.93439(11) 0.44746(10) 0.7190(4)
O9_9 O 0.93003(10) 0.35883(11) 0.1562(4)
O10_9 O 0.96962(10) 0.36960(11) 0.0503(4)
O12_9 O 0.88778(10) 0.38587(10) 0.0212(4)
H29_9 H 0.8775 0.3915 0.0805
H30_9 H 0.9036 0.3781 0.0469
O15_9 O 0.87749(11) 0.46577(12) 0.0340(4)
O16_9 O 0.93294(10) 0.43647(10) 0.0547(4)
O17_9 O 0.93927(10) 0.42406(10) 0.2430(4)
O18_9 O 0.90629(11) 0.37267(10) 0.3676(4)
H31_9 H 0.9128 0.3653 0.4313
H32_9 H 0.9181 0.3692 0.3113
O19_9 O 0.94499(9) 0.41518(10) 0.5225(4)
H33_9 H 0.9450 0.4261 0.5843
H34_9 H 0.9608 0.4181 0.4834
O20_9 O 0.89309(12) 0.47225(12) 0.2606(4)
H35_9 H 0.8846 0.4676 0.1914
H36_9 H 0.9101 0.4811 0.2433
O21_9 O 0.84391(11) 0.43010(12) 0.3639(4)
O22_9 O 0.86880(11) 0.40939(13) 0.2231(4)
La2 La 0.900770(8) 0.426959(8) 0.39294(3)
O23 O 0.87987(10) 0.40235(10) 0.5633(4)
La3 La 0.899799(8) 0.429203(8) 0.88878(3)
H1_9 H 0.8667(16) 0.456(2) 0.676(3)
H2_9 H 0.8459(7) 0.4482(19) 0.759(6)
C1_9 C 0.89441(15) 0.30888(14) 0.9706(5)
C2_9 C 0.92334(15) 0.31269(14) 0.9555(6)
C3_9 C 0.93332(15) 0.32460(15) 0.8495(6)
H5_9 H 0.9531 0.3271 0.8367
C4_9 C 0.91322(14) 0.33266(13) 0.7630(5)
C5_9 C 0.92479(14) 0.34577(15) 0.6491(5)
C6_9 C 0.88365(14) 0.32831(13) 0.7872(5)
C7_9 C 0.85948(14) 0.33439(14) 0.7024(5)
C8_9 C 0.85700(14) 0.35935(15) 0.6318(5)
C9_9 C 0.87532(13) 0.38596(14) 0.6492(5)
C10_9 C 0.83465(16) 0.36021(18) 0.5492(6)
H6_9 H 0.8331 0.3758 0.4971
C11_9 C 0.81470(18) 0.33778(19) 0.5452(7)
H7_9 H 0.7999 0.3378 0.4892
C12_9 C 0.81705(18) 0.31581(18) 0.6244(7)
H8_9 H 0.8029 0.3014 0.6246
H17_9 H 0.9802 0.4591 0.9889
O1_9 O 0.94330(10) 0.36536(10) 0.6585(4)
O2_9 O 0.91460(10) 0.33604(10) 0.5530(4)
O3_9 O 0.88413(10) 0.39047(10) 0.7536(4)
O11_9 O 0.94315(10) 0.39555(11) 0.8653(4)
H27_9 H 0.9575 0.4046 0.8314
H28_9 H 0.9385 0.3806 0.8218
O13_9 O 0.86375(11) 0.45166(11) 0.7477(4)
O14_9 O 0.84486(12) 0.43459(12) 0.9758(4)
C13_10 C 0.68074(16) 0.63899(15) 0.4003(7)
H9_10 H 0.6615 0.6362 0.4222
C14_10 C 0.69700(17) 0.61526(17) 0.3606(7)
H10_10 H 0.6890 0.5967 0.3585
C15_10 C 0.72522(15) 0.62010(16) 0.3247(7)
H11_10 H 0.7363 0.6048 0.2960
C16_10 C 0.73724(15) 0.64793(15) 0.3312(7)
C17_10 C 0.76608(15) 0.65256(15) 0.2737(6)
C18_10 C 0.72017(15) 0.66984(15) 0.3781(6)
C19_10 C 0.73060(15) 0.70040(15) 0.3943(6)
C20_10 C 0.75666(14) 0.70869(15) 0.4449(6)
C21_10 C 0.77694(14) 0.68700(14) 0.5053(6)
C22_10 C 0.76363(15) 0.73812(14) 0.4463(6)
H12_10 H 0.7815 0.7442 0.4761
C23_9 C 0.74435(15) 0.75802(16) 0.4042(6)
H13_9 H 0.7492 0.7776 0.4019
C24_10 C 0.71739(16) 0.74857(16) 0.3646(6)
H14_9 H 0.7038 0.7623 0.3404
C31_10 C 0.85842(14) 0.74211(13) 0.0321(5)
C32_10 C 0.88150(14) 0.72333(14) 0.0090(5)
C34_10 C 0.90299(15) 0.72054(15) 0.0957(6)
H18_10 H 0.9191 0.7088 0.0820
C35_10 C 0.90042(15) 0.73509(14) 0.2008(6)
H19_10 H 0.9140 0.7325 0.2605
C36_10 C 0.87727(14) 0.75347(14) 0.2158(5)
H20_10 H 0.8758 0.7638 0.2861
C37_10 C 0.83324(15) 0.59490(14) 0.0188(5)
H26_9 H 0.7326 0.5265 0.0101
N5_10 N 0.85681(12) 0.75719(11) 0.1344(4)
O5_10 O 0.78380(10) 0.63118(10) 0.2766(4)
O6_10 O 0.77208(10) 0.67576(10) 0.2241(4)
O7_2 O 0.76749(11) 0.67396(11) 0.5938(4)
O8_2 O 0.80254(10) 0.68439(11) 0.4690(4)
O18_10 O 0.87733(10) 0.65629(11) 0.1176(4)
H31_10 H 0.8847 0.6628 0.1813
H32_10 H 0.8808 0.6681 0.0613
O19_10 O 0.83482(10) 0.69499(9) 0.2725(4)
H33_10 H 0.8239 0.6950 0.3343
H34_10 H 0.8319 0.7108 0.2334
O20_10 O 0.77775(12) 0.64309(12) 0.0106(4)
O21_10 O 0.81990(12) 0.59391(11) 0.1139(4)
La2_2 La 0.823041(8) 0.650770(8) 0.14294(3)
O23_2 O 0.84765(10) 0.62987(10) 0.3133(4)
La3_2 La 0.820797(8) 0.649799(8) 0.63878(3)
H1_10 H 0.794(2) 0.6167(16) 0.426(3)
H2_10 H 0.8018(19) 0.5959(7) 0.509(6)
C1_10 C 0.94112(14) 0.64441(15) 0.7206(5)
H3_10 H 0.9492 0.6380 0.7911
C2_10 C 0.93731(14) 0.67334(15) 0.7055(6)
H4_10 H 0.9425 0.6863 0.7647
C3_10 C 0.92540(15) 0.68332(15) 0.5995(6)
H5_10 H 0.9229 0.7031 0.5867
C4_10 C 0.91734(13) 0.66322(14) 0.5130(5)
C5_10 C 0.90423(15) 0.67479(14) 0.3991(5)
C6_10 C 0.92169(13) 0.63365(14) 0.5372(5)
C7_10 C 0.91561(14) 0.60948(14) 0.4524(5)
C8_10 C 0.89065(15) 0.60700(14) 0.3818(5)
C9_10 C 0.86404(14) 0.62532(13) 0.3992(5)
C10_10 C 0.88979(18) 0.58465(16) 0.2992(6)
H6_10 H 0.8742 0.5831 0.2471
C11_10 C 0.91222(19) 0.56470(18) 0.2952(7)
H7_10 H 0.9122 0.5499 0.2392
C12_10 C 0.93419(18) 0.56705(18) 0.3744(7)
H8_10 H 0.9486 0.5529 0.3746
C25_10 C 0.8107(2) 0.78911(17) 0.8658(7)
H15_10 H 0.8069 0.8090 0.8657
C26_10 C 0.7969(2) 0.77207(17) 0.7829(7)
H16_7 H 0.7854 0.7803 0.7241
C27_10 C 0.80076(18) 0.74238(18) 0.7905(7)
H17_10 H 0.7909 0.7302 0.7389
C28_10 C 0.81945(15) 0.73058(15) 0.8752(5)
C29_10 C 0.83485(15) 0.74977(14) 0.9462(5)
C30_10 C 0.82005(13) 0.69824(14) 0.8911(5)
C33_10 C 0.88457(15) 0.70624(16) 0.8958(5)
C38_10 C 0.84118(17) 0.56759(15) 0.9562(6)
C39_10 C 0.8704(2) 0.55925(18) 0.9558(7)
H21_10 H 0.8844 0.5713 0.9888
C40_10 C 0.8783(2) 0.5334(2) 0.9070(8)
H22_10 H 0.8975 0.5272 0.9080
C41_10 C 0.8574(3) 0.5172(2) 0.8572(8)
H23_8 H 0.8631 0.4998 0.8229
C42_10 C 0.8206(2) 0.54950(16) 0.9046(6)
C43_10 C 0.7892(2) 0.55576(19) 0.9089(7)
C44_10 C 0.7777(2) 0.5803(2) 0.8626(7)
C45_10 C 0.79426(19) 0.6029(2) 0.7873(6)
C46_9 C 0.7480(2) 0.5867(2) 0.8872(8)
H24_9 H 0.7399 0.6042 0.8622
C47_9 C 0.7309(2) 0.5665(2) 0.9494(8)
H25_9 H 0.7117 0.5704 0.9706
C48_9 C 0.7441(2) 0.5410(2) 0.9766(8)
N6_10 N 0.82922(13) 0.77871(13) 0.9464(5)
N7_10 N 0.77267(19) 0.53477(17) 0.9589(6)
N8_10 N 0.8283(2) 0.52386(15) 0.8521(6)
O1_10 O 0.88464(10) 0.69330(10) 0.4085(4)
O2_10 O 0.91396(10) 0.66460(10) 0.3030(4)
O3_10 O 0.85953(10) 0.63413(10) 0.5036(4)
O9_10 O 0.89117(11) 0.68003(10) 0.9062(4)
O10_10 O 0.88040(11) 0.71962(10) 0.8003(4)
O11_10 O 0.85445(11) 0.69315(10) 0.6153(4)
H27_10 H 0.8454 0.7075 0.5814
H28_10 H 0.8694 0.6885 0.5718
O12_10 O 0.86413(10) 0.63778(10) 0.7712(4)
H29_10 H 0.8585 0.6275 0.8305
H30_10 H 0.8719 0.6536 0.7969
O13_10 O 0.79834(11) 0.61375(11) 0.4977(4)
O14_10 O 0.81541(12) 0.59486(12) 0.7258(4)
O15_10 O 0.78423(12) 0.62749(11) 0.7840(4)
O16_10 O 0.81353(10) 0.68294(10) 0.8047(4)
O17_10 O 0.82594(10) 0.68927(10) 0.9930(4)
H35_10 H 0.7824 0.6346 0.9414
H36_10 H 0.7689 0.6601 0.9933
O22_10 O 0.84061(13) 0.61880(11) 0.9731(4)
H3_11 H 0.1120 0.1992 0.0411
H4_11 H 0.0637 0.1925 0.0147
C17_11 C 0.09744(15) 0.01608(15) 0.5237(6)
C20_11 C 0.04131(15) 0.00666(14) 0.6949(6)
C21_11 C 0.06300(14) 0.02694(14) 0.7553(6)
C22_11 C 0.01188(14) 0.01363(15) 0.6963(6)
H12_11 H 0.0058 0.0315 0.7261
C27_11 C 0.00762(18) 0.05076(18) 0.0405(7)
C28_11 C 0.01942(15) 0.06945(15) 0.1252(5)
C29_11 C 0.00023(14) 0.08485(15) 0.1962(5)
C30_11 C 0.05176(14) 0.07005(13) 0.1411(5)
C31_11 C 0.00789(13) 0.10842(14) 0.2821(5)
C32_11 C 0.02667(14) 0.13150(14) 0.2590(5)
C33_11 C 0.04376(16) 0.13457(15) 0.1458(5)
C34_11 C 0.02946(15) 0.15299(15) 0.3457(6)
H18_11 H 0.0412 0.1691 0.3320
C35_11 C 0.01491(14) 0.15042(15) 0.4508(6)
H19_11 H 0.0175 0.1640 0.5105
C37_11 C 0.15510(14) 0.08324(15) 0.2688(5)
C38_11 C 0.18241(15) 0.09118(17) 0.2062(6)
C39_11 C 0.19075(18) 0.1204(2) 0.2058(7)
H21_11 H 0.1787 0.1344 0.2388
C40_11 C 0.2166(2) 0.1283(2) 0.1570(8)
H22_11 H 0.2228 0.1475 0.1580
C41_11 C 0.2328(2) 0.1074(3) 0.1072(8)
H23_9 H 0.2502 0.1131 0.0729
C42_11 C 0.20050(16) 0.0706(2) 0.1546(6)
C43_11 C 0.19424(19) 0.0392(2) 0.1589(7)
C44_11 C 0.1697(2) 0.0277(2) 0.1126(7)
C45_11 C 0.1471(2) 0.04426(19) 0.0373(6)
N7_11 N 0.21523(17) 0.02267(19) 0.2089(6)
N8_11 N 0.22614(15) 0.0783(2) 0.1021(6)
O5_11 O 0.11882(10) 0.03380(10) 0.5266(4)
O6_11 O 0.07424(10) 0.02208(10) 0.4741(4)
O7_3 O 0.07604(11) 0.01749(11) 0.8438(4)
O8_3 O 0.06561(11) 0.05254(10) 0.7190(4)
O9_11 O 0.06997(10) 0.14117(11) 0.1562(4)
O10_11 O 0.03038(10) 0.13040(11) 0.0503(4)
O12_11 O 0.11222(10) 0.11413(10) 0.0212(4)
H29_11 H 0.1225 0.1085 0.0805
H30_11 H 0.0964 0.1219 0.0469
O15_11 O 0.12251(11) 0.03423(12) 0.0340(4)
O16_11 O 0.06706(10) 0.06353(10) 0.0547(4)
O17_11 O 0.06073(10) 0.07594(10) 0.2430(4)
O18_11 O 0.09371(11) 0.12733(10) 0.3676(4)
H31_11 H 0.0872 0.1347 0.4313
H32_11 H 0.0819 0.1308 0.3113
O19_11 O 0.05501(9) 0.08482(10) 0.5225(4)
H33_11 H 0.0550 0.0739 0.5843
H34_11 H 0.0392 0.0819 0.4834
O20_11 O 0.10691(12) 0.02775(12) 0.2606(4)
H35_11 H 0.1154 0.0324 0.1914
H36_11 H 0.0899 0.0189 0.2433
O21_11 O 0.15609(11) 0.06990(12) 0.3639(4)
O22_11 O 0.13120(11) 0.09061(13) 0.2231(4)
La2_3 La 0.099230(8) 0.073041(8) 0.39294(3)
O23_3 O 0.12013(10) 0.09765(10) 0.5633(4)
La3_3 La 0.100201(8) 0.070797(8) 0.88878(3)
H1_11 H 0.1333(16) 0.044(2) 0.676(3)
H2_11 H 0.1541(7) 0.0518(19) 0.759(6)
C1_11 C 0.10559(15) 0.19112(14) 0.9706(5)
C2_11 C 0.07666(15) 0.18731(14) 0.9555(6)
C3_11 C 0.06668(15) 0.17540(15) 0.8495(6)
H5_11 H 0.0469 0.1729 0.8367
C4_11 C 0.08678(14) 0.16734(13) 0.7630(5)
C5_11 C 0.07521(14) 0.15423(15) 0.6491(5)
C6_11 C 0.11635(14) 0.17169(13) 0.7872(5)
C7_11 C 0.14052(14) 0.16561(14) 0.7024(5)
C8_11 C 0.14300(14) 0.14065(15) 0.6318(5)
C9_11 C 0.12468(13) 0.11404(14) 0.6492(5)
C10_11 C 0.16535(16) 0.13979(18) 0.5492(6)
H6_11 H 0.1669 0.1242 0.4971
C11_11 C 0.18530(18) 0.16222(19) 0.5452(7)
H7_11 H 0.2001 0.1622 0.4892
C12_11 C 0.18295(18) 0.18419(18) 0.6244(7)
H8_11 H 0.1971 0.1986 0.6246
H17_11 H 0.0198 0.0409 0.9889
O1_11 O 0.05670(10) 0.13464(10) 0.6585(4)
O2_11 O 0.08540(10) 0.16396(10) 0.5530(4)
O3_11 O 0.11587(10) 0.10953(10) 0.7536(4)
O11_11 O 0.05685(10) 0.10445(11) 0.8653(4)
H27_11 H 0.0425 0.0954 0.8314
H28_11 H 0.0615 0.1194 0.8218
O13_11 O 0.13625(11) 0.04834(11) 0.7477(4)
O14_11 O 0.15514(12) 0.06541(12) 0.9758(4)
C13_11 C 0.11101(15) 0.93074(16) 0.6503(7)
H9_11 H 0.1138 0.9115 0.6722
C14_11 C 0.13474(17) 0.94700(17) 0.6106(7)
H10_11 H 0.1533 0.9390 0.6085
C15_11 C 0.12990(16) 0.97522(15) 0.5747(7)
H11_11 H 0.1452 0.9863 0.5460
C16_11 C 0.10207(15) 0.98724(15) 0.5812(7)
C18_11 C 0.08016(15) 0.97017(15) 0.6281(6)
C19_11 C 0.04960(15) 0.98060(15) 0.6443(6)
C24_11 C 0.00143(16) 0.96739(16) 0.6146(6)
C46_10 C 0.1633(2) 0.9980(2) 0.1372(8)
H24_10 H 0.1458 0.9899 0.1122
C47_10 C 0.1835(2) 0.9809(2) 0.1994(8)
H25_10 H 0.1796 0.9617 0.2206
C48_10 C 0.2090(2) 0.9941(2) 0.2266(8)
H26_10 H 0.2235 0.9826 0.2601
C25_11 C 0.96089(17) 0.0607(2) 0.1158(7)
H15_11 H 0.9410 0.0569 0.1157
C26_11 C 0.97793(17) 0.0469(2) 0.0329(7)
C36_11 C 0.99653(14) 0.12727(14) 0.4658(5)
H20_11 H 0.9862 0.1258 0.5361
N5_11 N 0.99281(11) 0.10681(12) 0.3844(4)
N6_11 N 0.97129(13) 0.07922(13) 0.1964(5)
C13_12 C 0.31926(16) 0.86101(15) 0.4003(7)
H9_12 H 0.3385 0.8638 0.4222
C14_12 C 0.30300(17) 0.88474(17) 0.3606(7)
H10_12 H 0.3110 0.9033 0.3585
C15_12 C 0.27478(15) 0.87990(16) 0.3247(7)
H11_12 H 0.2637 0.8952 0.2960
C16_12 C 0.26276(15) 0.85207(15) 0.3312(7)
C17_12 C 0.23392(15) 0.84744(15) 0.2737(6)
C18_12 C 0.27983(15) 0.83016(15) 0.3781(6)
C19_12 C 0.26940(15) 0.79960(15) 0.3943(6)
C20_12 C 0.24334(14) 0.79131(15) 0.4449(6)
C21_12 C 0.22306(14) 0.81300(14) 0.5053(6)
C22_12 C 0.23637(15) 0.76188(14) 0.4463(6)
H12_12 H 0.2185 0.7558 0.4761
C23_10 C 0.25565(15) 0.74198(16) 0.4042(6)
H13_10 H 0.2508 0.7224 0.4019
C24_12 C 0.28261(16) 0.75143(16) 0.3646(6)
H14_10 H 0.2962 0.7377 0.3404
C31_12 C 0.14158(14) 0.75789(13) 0.0321(5)
C32_12 C 0.11850(14) 0.77667(14) 0.0090(5)
C34_12 C 0.09701(15) 0.77946(15) 0.0957(6)
H18_12 H 0.0809 0.7912 0.0820
C35_12 C 0.09958(15) 0.76491(14) 0.2008(6)
H19_12 H 0.0860 0.7675 0.2605
C36_12 C 0.12273(14) 0.74653(14) 0.2158(5)
H20_12 H 0.1242 0.7362 0.2861
C37_12 C 0.16676(15) 0.90510(14) 0.0188(5)
H26_11 H 0.2674 0.9735 0.0101
N5_12 N 0.14319(12) 0.74281(11) 0.1344(4)
O5_12 O 0.21620(10) 0.86882(10) 0.2766(4)
O6_12 O 0.22792(10) 0.82424(10) 0.2241(4)
O7_4 O 0.23251(11) 0.82604(11) 0.5938(4)
O8_4 O 0.19746(10) 0.81561(11) 0.4690(4)
O18_12 O 0.12267(10) 0.84371(11) 0.1176(4)
H31_12 H 0.1153 0.8372 0.1813
H32_12 H 0.1192 0.8319 0.0613
O19_12 O 0.16518(10) 0.80501(9) 0.2725(4)
H33_12 H 0.1761 0.8050 0.3343
H34_12 H 0.1681 0.7892 0.2334
O20_12 O 0.22225(12) 0.85691(12) 0.0106(4)
O21_12 O 0.18010(12) 0.90609(11) 0.1139(4)
La2_4 La 0.176959(8) 0.849230(8) 0.14294(3)
O23_4 O 0.15235(10) 0.87013(10) 0.3133(4)
La3_4 La 0.179203(8) 0.850201(8) 0.63878(3)
H1_12 H 0.206(2) 0.8833(16) 0.426(3)
H2_12 H 0.1982(19) 0.9041(7) 0.509(6)
C1_12 C 0.05888(14) 0.85559(15) 0.7206(5)
H3_12 H 0.0508 0.8620 0.7911
C2_12 C 0.06269(14) 0.82666(15) 0.7055(6)
H4_12 H 0.0575 0.8137 0.7647
C3_12 C 0.07460(15) 0.81668(15) 0.5995(6)
H5_12 H 0.0771 0.7969 0.5867
C4_12 C 0.08266(13) 0.83678(14) 0.5130(5)
C5_12 C 0.09577(15) 0.82521(14) 0.3991(5)
C6_12 C 0.07831(13) 0.86635(14) 0.5372(5)
C7_12 C 0.08439(14) 0.89052(14) 0.4524(5)
C8_12 C 0.10935(15) 0.89300(14) 0.3818(5)
C9_12 C 0.13596(14) 0.87468(13) 0.3992(5)
C10_12 C 0.11021(18) 0.91535(16) 0.2992(6)
H6_12 H 0.1258 0.9169 0.2471
C11_12 C 0.08778(19) 0.93530(18) 0.2952(7)
H7_12 H 0.0878 0.9501 0.2392
C12_12 C 0.06581(18) 0.93295(18) 0.3744(7)
H8_12 H 0.0514 0.9471 0.3746
C25_12 C 0.1893(2) 0.71089(17) 0.8658(7)
H15_12 H 0.1931 0.6910 0.8657
C26_12 C 0.2031(2) 0.72793(17) 0.7829(7)
H16_8 H 0.2146 0.7197 0.7241
C27_12 C 0.19924(18) 0.75762(18) 0.7905(7)
H17_12 H 0.2091 0.7698 0.7389
C28_12 C 0.18055(15) 0.76942(15) 0.8752(5)
C29_12 C 0.16515(15) 0.75023(14) 0.9462(5)
C30_12 C 0.17995(13) 0.80176(14) 0.8911(5)
C33_12 C 0.11543(15) 0.79376(16) 0.8958(5)
C38_12 C 0.15882(17) 0.93241(15) 0.9562(6)
C39_12 C 0.1296(2) 0.94075(18) 0.9558(7)
H21_12 H 0.1156 0.9287 0.9888
C40_12 C 0.1217(2) 0.9666(2) 0.9070(8)
H22_12 H 0.1025 0.9728 0.9080
C41_12 C 0.1426(3) 0.9828(2) 0.8572(8)
C42_12 C 0.1794(2) 0.95050(16) 0.9046(6)
C43_12 C 0.2108(2) 0.94424(19) 0.9089(7)
C44_12 C 0.2223(2) 0.9197(2) 0.8626(7)
C45_12 C 0.20574(19) 0.8971(2) 0.7873(6)
C46_11 C 0.2520(2) 0.9133(2) 0.8872(8)
H24_11 H 0.2601 0.8958 0.8622
C47_11 C 0.2691(2) 0.9335(2) 0.9494(8)
H25_11 H 0.2883 0.9296 0.9706
C48_11 C 0.2559(2) 0.9590(2) 0.9766(8)
N6_12 N 0.17078(13) 0.72129(13) 0.9464(5)
N7_12 N 0.22733(19) 0.96523(17) 0.9589(6)
N8_12 N 0.1717(2) 0.97614(15) 0.8521(6)
O1_12 O 0.11536(10) 0.80670(10) 0.4085(4)
O2_12 O 0.08604(10) 0.83540(10) 0.3030(4)
O3_12 O 0.14047(10) 0.86587(10) 0.5036(4)
O9_12 O 0.10883(11) 0.81997(10) 0.9062(4)
O10_12 O 0.11960(11) 0.78038(10) 0.8003(4)
O11_12 O 0.14555(11) 0.80685(10) 0.6153(4)
H27_12 H 0.1546 0.7925 0.5814
H28_12 H 0.1306 0.8115 0.5718
O12_12 O 0.13587(10) 0.86222(10) 0.7712(4)
H29_12 H 0.1415 0.8725 0.8305
H30_12 H 0.1281 0.8464 0.7969
O13_12 O 0.20166(11) 0.88625(11) 0.4977(4)
O14_12 O 0.18459(12) 0.90514(12) 0.7258(4)
O15_12 O 0.21577(12) 0.87251(11) 0.7840(4)
O16_12 O 0.18647(10) 0.81706(10) 0.8047(4)
O17_12 O 0.17406(10) 0.81073(10) 0.9930(4)
H35_12 H 0.2176 0.8654 0.9414
H36_12 H 0.2311 0.8399 0.9933
O22_12 O 0.15939(13) 0.88120(11) 0.9731(4)
C13_13 C 0.38899(15) 0.06926(16) 0.1503(7)
H9_13 H 0.3862 0.0885 0.1722
C14_13 C 0.36526(17) 0.05300(17) 0.1106(7)
H10_13 H 0.3467 0.0610 0.1085
C15_13 C 0.37010(16) 0.02478(15) 0.0747(7)
H11_13 H 0.3548 0.0137 0.0460
C16_13 C 0.39793(15) 0.01276(15) 0.0812(7)
C18_13 C 0.41984(15) 0.02983(15) 0.1281(6)
C19_13 C 0.45040(15) 0.01940(15) 0.1443(6)
C23_11 C 0.50802(16) 0.00565(15) 0.1542(6)
H13_11 H 0.5276 0.0008 0.1519
C24_13 C 0.49857(16) 0.03261(16) 0.1146(6)
H14_11 H 0.5123 0.0462 0.0904
C17_13 C 0.40256(15) 0.98392(15) 0.0237(6)
C20_13 C 0.45869(15) 0.99334(14) 0.1949(6)
C21_13 C 0.43700(14) 0.97306(14) 0.2553(6)
C22_13 C 0.48812(14) 0.98637(15) 0.1963(6)
H12_13 H 0.4942 0.9685 0.2261
H19_13 H 0.4825 0.8360 0.0105
H20_13 H 0.5138 0.8742 0.0361
O5_13 O 0.38118(10) 0.96620(10) 0.0266(4)
O7_5 O 0.42396(11) 0.98251(11) 0.3438(4)
O8_5 O 0.43439(11) 0.94746(10) 0.2190(4)
O19_13 O 0.44499(9) 0.91518(10) 0.0225(4)
H33_13 H 0.4450 0.9261 0.0843
O23_5 O 0.37987(10) 0.90235(10) 0.0633(4)
La3_5 La 0.399799(8) 0.929203(8) 0.38878(3)
H1_13 H 0.3667(16) 0.956(2) 0.176(3)
H2_13 H 0.3459(7) 0.9482(19) 0.259(6)
C1_13 C 0.39441(15) 0.80888(14) 0.4706(5)
H3_13 H 0.3880 0.8008 0.5411
C2_13 C 0.42334(15) 0.81269(14) 0.4555(6)
H4_13 H 0.4363 0.8075 0.5147
C3_13 C 0.43332(15) 0.82460(15) 0.3495(6)
H5_13 H 0.4531 0.8271 0.3367
C4_13 C 0.41322(14) 0.83266(13) 0.2630(5)
C5_13 C 0.42479(14) 0.84577(15) 0.1491(5)
C6_13 C 0.38365(14) 0.82831(13) 0.2872(5)
C7_13 C 0.35948(14) 0.83439(14) 0.2024(5)
C8_13 C 0.35700(14) 0.85935(15) 0.1318(5)
C9_13 C 0.37532(13) 0.88596(14) 0.1492(5)
C10_13 C 0.33465(16) 0.86021(18) 0.0492(6)
C11_13 C 0.31470(18) 0.83778(19) 0.0452(7)
C12_13 C 0.31705(18) 0.81581(18) 0.1244(7)
H8_13 H 0.3029 0.8014 0.1246
C25_13 C 0.53911(17) 0.9393(2) 0.6158(7)
H15_13 H 0.5590 0.9431 0.6157
C26_13 C 0.52207(17) 0.9531(2) 0.5329(7)
H16_9 H 0.5303 0.9646 0.4741
C27_13 C 0.49238(18) 0.94924(18) 0.5405(7)
H17_13 H 0.4802 0.9591 0.4889
C28_13 C 0.48058(15) 0.93055(15) 0.6252(5)
C29_13 C 0.49977(14) 0.91515(15) 0.6962(5)
C30_13 C 0.44824(14) 0.92995(13) 0.6411(5)
C31_13 C 0.49211(13) 0.89158(14) 0.7821(5)
C32_13 C 0.47333(14) 0.86850(14) 0.7590(5)
C33_13 C 0.45624(16) 0.86543(15) 0.6458(5)
C34_13 C 0.47054(15) 0.84701(15) 0.8457(6)
H18_13 H 0.4588 0.8309 0.8320
C35_13 C 0.48509(14) 0.84958(15) 0.9508(6)
C36_13 C 0.50347(14) 0.87273(14) 0.9658(5)
C37_13 C 0.34490(14) 0.91676(15) 0.7688(5)
C38_13 C 0.31759(15) 0.90882(17) 0.7062(6)
C39_13 C 0.30925(18) 0.8796(2) 0.7058(7)
H21_13 H 0.3213 0.8656 0.7388
C40_13 C 0.2834(2) 0.8717(2) 0.6570(8)
H22_13 H 0.2772 0.8525 0.6580
C41_13 C 0.2672(2) 0.8926(3) 0.6072(8)
H23_10 H 0.2498 0.8869 0.5729
C42_13 C 0.29950(16) 0.9294(2) 0.6546(6)
C43_13 C 0.30576(19) 0.9608(2) 0.6589(7)
C44_13 C 0.3303(2) 0.9723(2) 0.6126(7)
C45_13 C 0.3529(2) 0.95574(19) 0.5373(6)
N5_13 N 0.50719(11) 0.89319(12) 0.8844(4)
N6_13 N 0.52871(13) 0.92078(13) 0.6964(5)
N7_13 N 0.28477(17) 0.97733(19) 0.7089(6)
N8_13 N 0.27386(15) 0.9217(2) 0.6021(6)
O1_13 O 0.44330(10) 0.86536(10) 0.1585(4)
O2_13 O 0.41460(10) 0.83604(10) 0.0530(4)
O3_13 O 0.38413(10) 0.89047(10) 0.2536(4)
O6_13 O 0.42576(10) 0.97792(10) 0.9741(4)
O9_13 O 0.43003(10) 0.85883(11) 0.6562(4)
O10_13 O 0.46962(10) 0.86960(11) 0.5503(4)
O11_13 O 0.44315(10) 0.89555(11) 0.3653(4)
H27_13 H 0.4575 0.9046 0.3314
H28_13 H 0.4385 0.8806 0.3218
O12_13 O 0.38778(10) 0.88587(10) 0.5212(4)
H29_13 H 0.3775 0.8915 0.5805
H30_13 H 0.4036 0.8781 0.5469
O13_13 O 0.36375(11) 0.95166(11) 0.2477(4)
O14_13 O 0.34486(12) 0.93459(12) 0.4758(4)
O15_13 O 0.37749(11) 0.96577(12) 0.5340(4)
O16_13 O 0.43294(10) 0.93647(10) 0.5547(4)
O17_13 O 0.43927(10) 0.92406(10) 0.7430(4)
O18_13 O 0.40629(11) 0.87267(10) 0.8676(4)
H31_13 H 0.4128 0.8653 0.9313
H32_13 H 0.4181 0.8692 0.8113
H34_13 H 0.4608 0.9181 0.9834
O20_13 O 0.39309(12) 0.97225(12) 0.7606(4)
H35_13 H 0.3846 0.9676 0.6914
H36_13 H 0.4101 0.9811 0.7433
O21_13 O 0.34391(11) 0.93010(12) 0.8639(4)
O22_13 O 0.36880(11) 0.90939(13) 0.7231(4)
La2_5 La 0.400770(8) 0.926959(8) 0.89294(3)
H6_13 H 0.3331 0.8758 0.9971
H7_13 H 0.2999 0.8378 0.9892
C21_14 C 0.27694(14) 0.18700(14) 0.0053(6)
O7_6 O 0.26749(11) 0.17396(11) 0.0938(4)
La3_6 La 0.320797(8) 0.149799(8) 0.13878(3)
H2_14 H 0.3018(19) 0.0959(7) 0.009(6)
C1_14 C 0.44112(14) 0.14441(15) 0.2206(5)
H3_14 H 0.4492 0.1380 0.2911
C2_14 C 0.43731(14) 0.17334(15) 0.2055(6)
H4_14 H 0.4425 0.1863 0.2647
C3_14 C 0.42540(15) 0.18332(15) 0.0995(6)
H5_14 H 0.4229 0.2031 0.0867
C4_14 C 0.41734(13) 0.16322(14) 0.0130(5)
C6_14 C 0.42169(13) 0.13365(14) 0.0372(5)
C13_14 C 0.18074(16) 0.13899(15) 0.9003(7)
H9_14 H 0.1615 0.1362 0.9222
C14_14 C 0.19700(17) 0.11526(17) 0.8606(7)
H10_14 H 0.1890 0.0967 0.8585
C15_14 C 0.22522(15) 0.12010(16) 0.8247(7)
H11_14 H 0.2363 0.1048 0.7960
C16_14 C 0.23724(15) 0.14793(15) 0.8312(7)
C17_14 C 0.26608(15) 0.15256(15) 0.7737(6)
C18_14 C 0.22017(15) 0.16984(15) 0.8781(6)
C19_14 C 0.23060(15) 0.20040(15) 0.8943(6)
C20_14 C 0.25666(14) 0.20869(15) 0.9449(6)
C22_14 C 0.26363(15) 0.23812(14) 0.9463(6)
H12_14 H 0.2815 0.2442 0.9761
C23_12 C 0.24435(15) 0.25802(16) 0.9042(6)
H13_12 H 0.2492 0.2776 0.9019
C24_14 C 0.21739(16) 0.24857(16) 0.8646(6)
H14_12 H 0.2038 0.2623 0.8404
C25_14 C 0.3107(2) 0.28911(17) 0.3658(7)
H15_14 H 0.3069 0.3090 0.3657
C26_14 C 0.2969(2) 0.27207(17) 0.2829(7)
H16_10 H 0.2854 0.2803 0.2241
C27_14 C 0.30076(18) 0.24238(18) 0.2905(7)
H17_14 H 0.2909 0.2302 0.2389
C28_14 C 0.31945(15) 0.23058(15) 0.3752(5)
C29_14 C 0.33485(15) 0.24977(14) 0.4462(5)
C30_14 C 0.32005(13) 0.19824(14) 0.3911(5)
C31_14 C 0.35842(14) 0.24211(13) 0.5321(5)
C32_14 C 0.38150(14) 0.22333(14) 0.5090(5)
C33_14 C 0.38457(15) 0.20624(16) 0.3958(5)
C34_14 C 0.40299(15) 0.22054(15) 0.5957(6)
H18_14 H 0.4191 0.2088 0.5820
C35_14 C 0.40042(15) 0.23509(14) 0.7008(6)
H19_14 H 0.4140 0.2325 0.7605
C36_14 C 0.37727(14) 0.25347(14) 0.7158(5)
H20_14 H 0.3758 0.2638 0.7861
C37_14 C 0.33324(15) 0.09490(14) 0.5188(5)
C38_14 C 0.34118(17) 0.06759(15) 0.4562(6)
C39_14 C 0.3704(2) 0.05925(18) 0.4558(7)
H21_14 H 0.3844 0.0713 0.4888
C40_14 C 0.3783(2) 0.0334(2) 0.4070(8)
H22_14 H 0.3975 0.0272 0.4080
C41_14 C 0.3574(3) 0.0172(2) 0.3572(8)
C42_14 C 0.3206(2) 0.04950(16) 0.4046(6)
C43_14 C 0.2892(2) 0.05576(19) 0.4089(7)
C44_14 C 0.2777(2) 0.0803(2) 0.3626(7)
C45_14 C 0.29426(19) 0.1029(2) 0.2873(6)
C46_12 C 0.2480(2) 0.0867(2) 0.3872(8)
H24_12 H 0.2399 0.1042 0.3622
C47_12 C 0.2309(2) 0.0665(2) 0.4494(8)
H25_12 H 0.2117 0.0704 0.4706
C48_12 C 0.2441(2) 0.0410(2) 0.4766(8)
H26_12 H 0.2326 0.0265 0.5101
N5_14 N 0.35681(12) 0.25719(11) 0.6344(4)
N6_14 N 0.32922(13) 0.27871(13) 0.4464(5)
N7_14 N 0.27267(19) 0.03477(17) 0.4589(6)
N8_14 N 0.3283(2) 0.02386(15) 0.3521(6)
O3_14 O 0.35953(10) 0.13413(10) 0.0036(4)
O5_14 O 0.28380(10) 0.13118(10) 0.7766(4)
O6_14 O 0.27208(10) 0.17576(10) 0.7241(4)
O8_6 O 0.30254(10) 0.18439(11) 0.9690(4)
O9_14 O 0.39117(11) 0.18003(10) 0.4062(4)
O10_14 O 0.38040(11) 0.21962(10) 0.3003(4)
O11_14 O 0.35445(11) 0.19315(10) 0.1153(4)
H27_14 H 0.3454 0.2075 0.0814
H28_14 H 0.3694 0.1885 0.0718
O12_14 O 0.36413(10) 0.13778(10) 0.2712(4)
H29_14 H 0.3585 0.1275 0.3305
H30_14 H 0.3719 0.1536 0.2969
O14_14 O 0.31541(12) 0.09486(12) 0.2258(4)
O15_14 O 0.28423(12) 0.12749(11) 0.2840(4)
O16_14 O 0.31353(10) 0.18294(10) 0.3047(4)
O17_14 O 0.32594(10) 0.18927(10) 0.4930(4)
O18_14 O 0.37733(10) 0.15629(11) 0.6176(4)
H31_14 H 0.3847 0.1628 0.6813
H32_14 H 0.3808 0.1681 0.5613
O19_14 O 0.33482(10) 0.19499(9) 0.7725(4)
H33_14 H 0.3239 0.1950 0.8343
H34_14 H 0.3319 0.2108 0.7334
O20_14 O 0.27775(12) 0.14309(12) 0.5106(4)
H35_14 H 0.2824 0.1346 0.4414
H36_14 H 0.2689 0.1601 0.4933
O21_14 O 0.31990(12) 0.09391(11) 0.6139(4)
O22_14 O 0.34061(13) 0.11880(11) 0.4731(4)
La2_6 La 0.323041(8) 0.150770(8) 0.64294(3)
O23_6 O 0.34765(10) 0.12987(10) 0.8133(4)
H1_14 H 0.294(2) 0.1167(16) 0.926(3)
C5_14 C 0.40423(15) 0.17479(14) 0.8991(5)
C7_14 C 0.41561(14) 0.10948(14) 0.9524(5)
C8_14 C 0.39065(15) 0.10700(14) 0.8818(5)
C9_14 C 0.36404(14) 0.12532(13) 0.8992(5)
C10_14 C 0.38979(18) 0.08465(16) 0.7992(6)
H6_14 H 0.3742 0.0831 0.7471
C11_14 C 0.41222(19) 0.06470(18) 0.7952(7)
H7_14 H 0.4122 0.0499 0.7392
C12_14 C 0.43419(18) 0.06705(18) 0.8744(7)
H8_14 H 0.4486 0.0529 0.8746
O1_14 O 0.38464(10) 0.19330(10) 0.9085(4)
O2_14 O 0.41396(10) 0.16460(10) 0.8030(4)
O13_14 O 0.29834(11) 0.11375(11) 0.9977(4)
C13_15 C 0.61101(15) 0.43074(16) 0.1503(7)
H9_15 H 0.6138 0.4115 0.1722
C14_15 C 0.63474(17) 0.44700(17) 0.1106(7)
H10_15 H 0.6533 0.4390 0.1085
C15_15 C 0.62990(16) 0.47522(15) 0.0747(7)
H11_15 H 0.6452 0.4863 0.0460
C16_15 C 0.60207(15) 0.48724(15) 0.0812(7)
C17_15 C 0.59744(15) 0.51608(15) 0.0237(6)
C18_15 C 0.58016(15) 0.47017(15) 0.1281(6)
C19_15 C 0.54960(15) 0.48060(15) 0.1443(6)
C20_15 C 0.54131(15) 0.50666(14) 0.1949(6)
C21_15 C 0.56300(14) 0.52694(14) 0.2553(6)
C22_15 C 0.51188(14) 0.51363(15) 0.1963(6)
H12_15 H 0.5058 0.5315 0.2261
C23_13 C 0.49198(16) 0.49435(15) 0.1542(6)
H13_13 H 0.4724 0.4992 0.1519
C24_15 C 0.50143(16) 0.46739(16) 0.1146(6)
H14_13 H 0.4877 0.4538 0.0904
H19_15 H 0.5175 0.6640 0.0105
H20_15 H 0.4862 0.6258 0.0361
O5_15 O 0.61882(10) 0.53380(10) 0.0266(4)
O7_7 O 0.57604(11) 0.51749(11) 0.3438(4)
O8_7 O 0.56561(11) 0.55254(10) 0.2190(4)
O19_15 O 0.55501(9) 0.58482(10) 0.0225(4)
H33_15 H 0.5550 0.5739 0.0843
O23_7 O 0.62013(10) 0.59765(10) 0.0633(4)
La3_7 La 0.600201(8) 0.570797(8) 0.38878(3)
H1_15 H 0.6333(16) 0.544(2) 0.176(3)
H2_15 H 0.6541(7) 0.5518(19) 0.259(6)
C1_15 C 0.60559(15) 0.69112(14) 0.4706(5)
H3_15 H 0.6120 0.6992 0.5411
C2_15 C 0.57666(15) 0.68731(14) 0.4555(6)
H4_15 H 0.5637 0.6925 0.5147
C3_15 C 0.56668(15) 0.67540(15) 0.3495(6)
H5_15 H 0.5469 0.6729 0.3367
C4_15 C 0.58678(14) 0.66734(13) 0.2630(5)
C5_15 C 0.57521(14) 0.65423(15) 0.1491(5)
C6_15 C 0.61635(14) 0.67169(13) 0.2872(5)
C7_15 C 0.64052(14) 0.66561(14) 0.2024(5)
C8_15 C 0.64300(14) 0.64065(15) 0.1318(5)
C9_15 C 0.62468(13) 0.61404(14) 0.1492(5)
C10_15 C 0.66535(16) 0.63979(18) 0.0492(6)
C11_15 C 0.68530(18) 0.66222(19) 0.0452(7)
C12_15 C 0.68295(18) 0.68419(18) 0.1244(7)
H8_15 H 0.6971 0.6986 0.1246
C25_15 C 0.46089(17) 0.5607(2) 0.6158(7)
H15_15 H 0.4410 0.5569 0.6157
C26_15 C 0.47793(17) 0.5469(2) 0.5329(7)
H16_11 H 0.4697 0.5354 0.4741
C27_15 C 0.50762(18) 0.55076(18) 0.5405(7)
H17_15 H 0.5198 0.5409 0.4889
C28_15 C 0.51942(15) 0.56945(15) 0.6252(5)
C29_15 C 0.50023(14) 0.58485(15) 0.6962(5)
C30_15 C 0.55176(14) 0.57005(13) 0.6411(5)
C31_15 C 0.50789(13) 0.60842(14) 0.7821(5)
C32_15 C 0.52667(14) 0.63150(14) 0.7590(5)
C33_15 C 0.54376(16) 0.63457(15) 0.6458(5)
C34_15 C 0.52946(15) 0.65299(15) 0.8457(6)
H18_15 H 0.5412 0.6691 0.8320
C35_15 C 0.51491(14) 0.65042(15) 0.9508(6)
C36_15 C 0.49653(14) 0.62727(14) 0.9658(5)
C37_15 C 0.65510(14) 0.58324(15) 0.7688(5)
C38_15 C 0.68241(15) 0.59118(17) 0.7062(6)
C39_15 C 0.69075(18) 0.6204(2) 0.7058(7)
H21_15 H 0.6787 0.6344 0.7388
C40_15 C 0.7166(2) 0.6283(2) 0.6570(8)
H22_15 H 0.7228 0.6475 0.6580
C41_15 C 0.7328(2) 0.6074(3) 0.6072(8)
H23_11 H 0.7502 0.6131 0.5729
C42_15 C 0.70050(16) 0.5706(2) 0.6546(6)
C43_15 C 0.69424(19) 0.5392(2) 0.6589(7)
C44_15 C 0.6697(2) 0.5277(2) 0.6126(7)
C45_15 C 0.6471(2) 0.54426(19) 0.5373(6)
C46_13 C 0.6633(2) 0.4980(2) 0.6372(8)
H24_13 H 0.6458 0.4899 0.6122
C47_13 C 0.6835(2) 0.4809(2) 0.6994(8)
H25_13 H 0.6796 0.4617 0.7206
C48_13 C 0.7090(2) 0.4941(2) 0.7266(8)
H26_13 H 0.7235 0.4826 0.7601
N5_15 N 0.49281(11) 0.60681(12) 0.8844(4)
N6_15 N 0.47129(13) 0.57922(13) 0.6964(5)
N7_15 N 0.71523(17) 0.52267(19) 0.7089(6)
N8_15 N 0.72614(15) 0.5783(2) 0.6021(6)
O1_15 O 0.55670(10) 0.63464(10) 0.1585(4)
O2_15 O 0.58540(10) 0.66396(10) 0.0530(4)
O3_15 O 0.61587(10) 0.60953(10) 0.2536(4)
O6_15 O 0.57424(10) 0.52208(10) 0.9741(4)
O9_15 O 0.56997(10) 0.64117(11) 0.6562(4)
O10_15 O 0.53038(10) 0.63040(11) 0.5503(4)
O11_15 O 0.55685(10) 0.60445(11) 0.3653(4)
H27_15 H 0.5425 0.5954 0.3314
H28_15 H 0.5615 0.6194 0.3218
O12_15 O 0.61222(10) 0.61413(10) 0.5212(4)
H29_15 H 0.6225 0.6085 0.5805
H30_15 H 0.5964 0.6219 0.5469
O13_15 O 0.63625(11) 0.54834(11) 0.2477(4)
O14_15 O 0.65514(12) 0.56541(12) 0.4758(4)
O15_15 O 0.62251(11) 0.53423(12) 0.5340(4)
O16_15 O 0.56706(10) 0.56353(10) 0.5547(4)
O17_15 O 0.56073(10) 0.57594(10) 0.7430(4)
O18_15 O 0.59371(11) 0.62733(10) 0.8676(4)
H31_15 H 0.5872 0.6347 0.9313
H32_15 H 0.5819 0.6308 0.8113
H34_15 H 0.5392 0.5819 0.9834
O20_15 O 0.60691(12) 0.52775(12) 0.7606(4)
H35_15 H 0.6154 0.5324 0.6914
H36_15 H 0.5899 0.5189 0.7433
O21_15 O 0.65609(11) 0.56990(12) 0.8639(4)
O22_15 O 0.63120(11) 0.59061(13) 0.7231(4)
La2_7 La 0.599230(8) 0.573041(8) 0.89294(3)
H6_15 H 0.6669 0.6242 0.9971
H7_15 H 0.7001 0.6622 0.9892
C21_16 C 0.72306(14) 0.31300(14) 0.0053(6)
O7_8 O 0.73251(11) 0.32604(11) 0.0938(4)
La3_8 La 0.679203(8) 0.350201(8) 0.13878(3)
H2_16 H 0.6982(19) 0.4041(7) 0.009(6)
C1_16 C 0.55888(14) 0.35559(15) 0.2206(5)
H3_16 H 0.5508 0.3620 0.2911
C2_16 C 0.56269(14) 0.32666(15) 0.2055(6)
H4_16 H 0.5575 0.3137 0.2647
C3_16 C 0.57460(15) 0.31668(15) 0.0995(6)
H5_16 H 0.5771 0.2969 0.0867
C4_16 C 0.58266(13) 0.33678(14) 0.0130(5)
C6_16 C 0.57831(13) 0.36635(14) 0.0372(5)
C13_16 C 0.81926(16) 0.36101(15) 0.9003(7)
H9_16 H 0.8385 0.3638 0.9222
C14_16 C 0.80300(17) 0.38474(17) 0.8606(7)
H10_16 H 0.8110 0.4033 0.8585
C15_16 C 0.77478(15) 0.37990(16) 0.8247(7)
H11_16 H 0.7637 0.3952 0.7960
C16_16 C 0.76276(15) 0.35207(15) 0.8312(7)
C17_16 C 0.73392(15) 0.34744(15) 0.7737(6)
C18_16 C 0.77983(15) 0.33016(15) 0.8781(6)
C19_16 C 0.76940(15) 0.29960(15) 0.8943(6)
C20_16 C 0.74334(14) 0.29131(15) 0.9449(6)
C22_16 C 0.73637(15) 0.26188(14) 0.9463(6)
H12_16 H 0.7185 0.2558 0.9761
C23_14 C 0.75565(15) 0.24198(16) 0.9042(6)
H13_14 H 0.7508 0.2224 0.9019
C24_16 C 0.78261(16) 0.25143(16) 0.8646(6)
H14_14 H 0.7962 0.2377 0.8404
C25_16 C 0.6893(2) 0.21089(17) 0.3658(7)
H15_16 H 0.6931 0.1910 0.3657
C26_16 C 0.7031(2) 0.22793(17) 0.2829(7)
H16_12 H 0.7146 0.2197 0.2241
C27_16 C 0.69924(18) 0.25762(18) 0.2905(7)
H17_16 H 0.7091 0.2698 0.2389
C28_16 C 0.68055(15) 0.26942(15) 0.3752(5)
C29_16 C 0.66515(15) 0.25023(14) 0.4462(5)
C30_16 C 0.67995(13) 0.30176(14) 0.3911(5)
C31_16 C 0.64158(14) 0.25789(13) 0.5321(5)
C32_16 C 0.61850(14) 0.27667(14) 0.5090(5)
C33_16 C 0.61543(15) 0.29376(16) 0.3958(5)
C34_16 C 0.59701(15) 0.27946(15) 0.5957(6)
H18_16 H 0.5809 0.2912 0.5820
C35_16 C 0.59958(15) 0.26491(14) 0.7008(6)
H19_16 H 0.5860 0.2675 0.7605
C36_16 C 0.62273(14) 0.24653(14) 0.7158(5)
H20_16 H 0.6242 0.2362 0.7861
C37_16 C 0.66676(15) 0.40510(14) 0.5188(5)
C38_16 C 0.65882(17) 0.43241(15) 0.4562(6)
C39_16 C 0.6296(2) 0.44075(18) 0.4558(7)
H21_16 H 0.6156 0.4287 0.4888
C40_16 C 0.6217(2) 0.4666(2) 0.4070(8)
H22_16 H 0.6025 0.4728 0.4080
C41_16 C 0.6426(3) 0.4828(2) 0.3572(8)
H23_12 H 0.6369 0.5002 0.3229
C42_16 C 0.6794(2) 0.45050(16) 0.4046(6)
C43_16 C 0.7108(2) 0.44424(19) 0.4089(7)
C44_16 C 0.7223(2) 0.4197(2) 0.3626(7)
C45_16 C 0.70574(19) 0.3971(2) 0.2873(6)
C46_14 C 0.7520(2) 0.4133(2) 0.3872(8)
H24_14 H 0.7601 0.3958 0.3622
C47_14 C 0.7691(2) 0.4335(2) 0.4494(8)
H25_14 H 0.7883 0.4296 0.4706
C48_14 C 0.7559(2) 0.4590(2) 0.4766(8)
H26_14 H 0.7674 0.4735 0.5101
N5_16 N 0.64319(12) 0.24281(11) 0.6344(4)
N6_16 N 0.67078(13) 0.22129(13) 0.4464(5)
N7_16 N 0.72733(19) 0.46523(17) 0.4589(6)
N8_16 N 0.6717(2) 0.47614(15) 0.3521(6)
O3_16 O 0.64047(10) 0.36587(10) 0.0036(4)
O5_16 O 0.71620(10) 0.36882(10) 0.7766(4)
O6_16 O 0.72792(10) 0.32424(10) 0.7241(4)
O8_8 O 0.69746(10) 0.31561(11) 0.9690(4)
O9_16 O 0.60883(11) 0.31997(10) 0.4062(4)
O10_16 O 0.61960(11) 0.28038(10) 0.3003(4)
O11_16 O 0.64555(11) 0.30685(10) 0.1153(4)
H27_16 H 0.6546 0.2925 0.0814
H28_16 H 0.6306 0.3115 0.0718
O12_16 O 0.63587(10) 0.36222(10) 0.2712(4)
H29_16 H 0.6415 0.3725 0.3305
H30_16 H 0.6281 0.3464 0.2969
O14_16 O 0.68459(12) 0.40514(12) 0.2258(4)
O15_16 O 0.71577(12) 0.37251(11) 0.2840(4)
O16_16 O 0.68647(10) 0.31706(10) 0.3047(4)
O17_16 O 0.67406(10) 0.31073(10) 0.4930(4)
O18_16 O 0.62267(10) 0.34371(11) 0.6176(4)
H31_16 H 0.6153 0.3372 0.6813
H32_16 H 0.6192 0.3319 0.5613
O19_16 O 0.66518(10) 0.30501(9) 0.7725(4)
H33_16 H 0.6761 0.3050 0.8343
H34_16 H 0.6681 0.2892 0.7334
O20_16 O 0.72225(12) 0.35691(12) 0.5106(4)
H35_16 H 0.7176 0.3654 0.4414
H36_16 H 0.7311 0.3399 0.4933
O21_16 O 0.68010(12) 0.40609(11) 0.6139(4)
O22_16 O 0.65939(13) 0.38120(11) 0.4731(4)
La2_8 La 0.676959(8) 0.349230(8) 0.64294(3)
O23_8 O 0.65235(10) 0.37013(10) 0.8133(4)
H1_16 H 0.706(2) 0.3833(16) 0.926(3)
C5_16 C 0.59577(15) 0.32521(14) 0.8991(5)
C7_16 C 0.58439(14) 0.39052(14) 0.9524(5)
C8_16 C 0.60935(15) 0.39300(14) 0.8818(5)
C9_16 C 0.63596(14) 0.37468(13) 0.8992(5)
C10_16 C 0.61021(18) 0.41535(16) 0.7992(6)
H6_16 H 0.6258 0.4169 0.7471
C11_16 C 0.58778(19) 0.43530(18) 0.7952(7)
H7_16 H 0.5878 0.4501 0.7392
C12_16 C 0.56581(18) 0.43295(18) 0.8744(7)
H8_16 H 0.5514 0.4471 0.8746
O1_16 O 0.61536(10) 0.30670(10) 0.9085(4)
O2_16 O 0.58604(10) 0.33540(10) 0.8030(4)
O13_16 O 0.70166(11) 0.38625(11) 0.9977(4)
H16_13 H 0.9697 0.5354 0.0259
C23_15 C 0.00802(16) 0.00565(15) 0.3458(6)
H13_15 H 0.0276 0.0008 0.3481
H14_15 H 0.0123 0.0462 0.4096
H16_14 H 0.0303 0.9646 0.0259
H23_13 H 0.8631 0.9998 0.1771
C46_15 C 0.6633(2) 0.9980(2) 0.3628(8)
H24_15 H 0.6458 0.9899 0.3878
C47_15 C 0.6835(2) 0.9809(2) 0.3006(8)
H25_15 H 0.6796 0.9617 0.2794
C48_15 C 0.7090(2) 0.9941(2) 0.2734(8)
H26_15 H 0.7235 0.9826 0.2399
H23_14 H 0.6369 0.0002 0.6771
H16_15 H 0.0303 0.4646 0.9741
H16_16 H 0.9697 0.0354 0.9741
C23_16 C 0.99198(16) 0.99435(15) 0.6542(6)
H13_16 H 0.9724 0.9992 0.6519
H14_16 H 0.9877 0.9538 0.5904
H23_15 H 0.1369 0.0002 0.8229
C46_16 C 0.3367(2) 0.0020(2) 0.6372(8)
H24_16 H 0.3542 0.0101 0.6122
C47_16 C 0.3165(2) 0.0191(2) 0.6994(8)
H25_16 H 0.3204 0.0383 0.7206
C48_16 C 0.2910(2) 0.0059(2) 0.7266(8)
H26_16 H 0.2765 0.0174 0.7601
H23_16 H 0.3631 0.9998 0.3229
loop_
_geom_bond_atom_site_label_1
_geom_bond_atom_site_label_2
_geom_bond_site_symmetry_1
_geom_bond_site_symmetry_2
H1 O13 1_555 1_555
H2 O13 1_555 1_555
C2 C1 1_555 1_555
C3 C2 1_555 1_555
H5 C3 1_555 1_555
C4 C3 1_555 1_555
C5 C4 1_555 1_555
C6 C4 1_555 1_555
C7 C6 1_555 1_555
C8 C7 1_555 1_555
C9 C8 1_555 1_555
C10 C8 1_555 1_555
H6 C10 1_555 1_555
C11 C10 1_555 1_555
H7 C11 1_555 1_555
C12 C11 1_555 1_555
H8 C12 1_555 1_555
N1 C1 1_555 1_555
N2 C7 1_555 1_555
O1 C5 1_555 1_555
O2 C5 1_555 1_555
O3 C9 1_555 1_555
O4 C9 1_555 1_555
O11 H27 1_555 1_555
H28 O11 1_555 1_555
O13 La1 1_555 1_555
La1 O3 1_555 1_555
O24 La1 1_555 1_555
O25 La1 1_555 1_555
Co3 N1 1_555 1_555
La4 O4 1_555 1_555
C6 N1 1_555 1_555
C12 N2 1_555 1_555
N2 Co3 1_555 1_555
O11 La1 1_555 1_555
O14 La1 1_555 1_555
C13 H9 1_555 1_555
C14 C13 1_555 1_555
H10 C14 1_555 1_555
C15 C14 1_555 1_555
H11 C15 1_555 1_555
C16 C15 1_555 1_555
C17 C16 1_555 1_555
C18 C16 1_555 1_555
C19 C18 1_555 1_555
C20 C19 1_555 1_555
C21 C20 1_555 1_555
C22 C20 1_555 1_555
H12 C22 1_555 1_555
C28 C27 1_555 1_555
C29 C28 1_555 1_555
C30 C28 1_555 1_555
C31 C29 1_555 1_555
C32 C31 1_555 1_555
C33 C32 1_555 1_555
C34 C32 1_555 1_555
H18 C34 1_555 1_555
C35 C34 1_555 1_555
H19 C35 1_555 1_555
C37 C38 1_555 1_555
C38 C39 1_555 1_555
C39 H21 1_555 1_555
C40 C39 1_555 1_555
H22 C40 1_555 1_555
C41 C40 1_555 1_555
H23 C41 1_555 1_555
C42 C38 1_555 1_555
C43 C42 1_555 1_555
C44 C43 1_555 1_555
C45 C44 1_555 1_555
C46 C44 1_555 1_555
H24 C46 1_555 1_555
C47 C46 1_555 1_555
H25 C47 1_555 1_555
C48 C47 1_555 1_555
H26 C48 1_555 1_555
N3 C13 1_555 1_555
N4 C19 1_555 1_555
N7 C43 1_555 1_555
N8 C41 1_555 1_555
O5 C17 1_555 1_555
O6 C17 1_555 1_555
O24 C21 1_555 1_555
O25 C21 1_555 1_555
O9 C33 1_555 1_555
O10 C33 1_555 1_555
O12 H29 1_555 1_555
H30 O12 1_555 1_555
O15 C45 1_555 1_555
O16 C30 1_555 1_555
O17 C30 1_555 1_555
O18 H31 1_555 1_555
H32 O18 1_555 1_555
O19 H33 1_555 1_555
H34 O19 1_555 1_555
O20 H35 1_555 1_555
H36 O20 1_555 1_555
O21 C37 1_555 1_555
O22 C37 1_555 1_555
La4 O5 1_555 1_555
Co2 N3 1_555 1_555
C18 N3 1_555 1_555
C24 N4 1_555 1_555
C42 N8 1_555 1_555
C48 N7 1_555 1_555
N4 Co2 1_555 1_555
O6 La4 1_555 1_555
O17 La4 1_555 1_555
O18 La4 1_555 1_555
O19 La4 1_555 1_555
O20 La4 1_555 1_555
O21 La4 1_555 1_555
O22 La4 1_555 1_555
H13 C23 1_555 1_555
C25 H15 1_555 1_555
C26 C25 1_555 1_555
H20 C36 1_555 1_555
N6 C25 1_555 1_555
Co1 N5 1_555 1_555
N9 Co1 1_555 1_555
N10 Co1 1_555 1_555
N11 Co1 1_555 1_555
N12 Co1 1_555 1_555
C36 N5 1_555 1_555
N6 Co1 1_555 1_555
H1_2 O13_2 1_555 1_555
H2_2 O13_2 1_555 1_555
C1_2 H3_2 1_555 1_555
C2_2 C1_2 1_555 1_555
H4_2 C2_2 1_555 1_555
C3_2 C2_2 1_555 1_555
H5_2 C3_2 1_555 1_555
C4_2 C3_2 1_555 1_555
C5_2 C4_2 1_555 1_555
C6_2 C4_2 1_555 1_555
C7_2 C6_2 1_555 1_555
C8_2 C7_2 1_555 1_555
C9_2 C8_2 1_555 1_555
C10_2 C8_2 1_555 1_555
H6_2 C10_2 1_555 1_555
C11_2 C10_2 1_555 1_555
H7_2 C11_2 1_555 1_555
C12_2 C11_2 1_555 1_555
H8_2 C12_2 1_555 1_555
C25_2 H15_2 1_555 1_555
C26_2 C25_2 1_555 1_555
H16 C26_2 1_555 1_555
C27_2 C26_2 1_555 1_555
H17_2 C27_2 1_555 1_555
C28_2 C27_2 1_555 1_555
C29_2 C28_2 1_555 1_555
C30_2 C28_2 1_555 1_555
C38_2 C39_2 1_555 1_555
C39_2 H21_2 1_555 1_555
C40_2 C39_2 1_555 1_555
H22_2 C40_2 1_555 1_555
C41_2 C40_2 1_555 1_555
H23_2 C41_2 1_555 1_555
C42_2 C38_2 1_555 1_555
C43_2 C42_2 1_555 1_555
C44_2 C43_2 1_555 1_555
C45_2 C44_2 1_555 1_555
C46_2 C44_2 1_555 1_555
H24_2 C46_2 1_555 1_555
C47_2 C46_2 1_555 1_555
H25_2 C47_2 1_555 1_555
C48_2 C47_2 1_555 1_555
N1_2 C1_2 1_555 1_555
N2_2 C7_2 1_555 1_555
N6_2 C25_2 1_555 1_555
N7_2 C43_2 1_555 1_555
N8_2 C41_2 1_555 1_555
O1_2 C5_2 1_555 1_555
O2_2 C5_2 1_555 1_555
O3_2 C9_2 1_555 1_555
O4_2 C9_2 1_555 1_555
O9_2 C33_2 1_555 1_555
O10_2 C33_2 1_555 1_555
O11_2 H27_2 1_555 1_555
H28_2 O11_2 1_555 1_555
O12_2 H29_2 1_555 1_555
H30_2 O12_2 1_555 1_555
O13_2 La1_2 1_555 1_555
O14_2 C45_2 1_555 1_555
O15_2 C45_2 1_555 1_555
O16_2 C30_2 1_555 1_555
O17_2 C30_2 1_555 1_555
La1_2 O3_2 1_555 1_555
O24_2 La1_2 1_555 1_555
O25_2 La1_2 1_555 1_555
Co2 N1_2 1_555 1_555
La4_2 O4_2 1_555 1_555
C6_2 N1_2 1_555 1_555
C12_2 N2_2 1_555 1_555
C29_2 N6_2 1_555 1_555
C42_2 N8_2 1_555 1_555
C48_2 N7_2 1_555 1_555
N2_2 Co2 1_555 1_555
O11_2 La1_2 1_555 1_555
O12_2 La1_2 1_555 1_555
O14_2 La1_2 1_555 1_555
O15_2 La1_2 1_555 1_555
O16_2 La1_2 1_555 1_555
C13_2 H9_2 1_555 1_555
C14_2 C13_2 1_555 1_555
H10_2 C14_2 1_555 1_555
C15_2 C14_2 1_555 1_555
H11_2 C15_2 1_555 1_555
C16_2 C15_2 1_555 1_555
C17_2 C16_2 1_555 1_555
C18_2 C16_2 1_555 1_555
C19_2 C18_2 1_555 1_555
C20_2 C19_2 1_555 1_555
C21_2 C20_2 1_555 1_555
C22_2 C20_2 1_555 1_555
H12_2 C22_2 1_555 1_555
C23_2 C22_2 1_555 1_555
H13_2 C23_2 1_555 1_555
C24_2 C23_2 1_555 1_555
H14_2 C24_2 1_555 1_555
C32_2 C31_2 1_555 1_555
C34_2 C32_2 1_555 1_555
H18_2 C34_2 1_555 1_555
C35_2 C34_2 1_555 1_555
H19_2 C35_2 1_555 1_555
C36_2 C35_2 1_555 1_555
H20_2 C36_2 1_555 1_555
N3_2 C13_2 1_555 1_555
N4_2 C19_2 1_555 1_555
N5_2 C31_2 1_555 1_555
O5_2 C17_2 1_555 1_555
O6_2 C17_2 1_555 1_555
O24_2 C21_2 1_555 1_555
O25_2 C21_2 1_555 1_555
O18_2 H31_2 1_555 1_555
H32_2 O18_2 1_555 1_555
O19_2 H33_2 1_555 1_555
H34_2 O19_2 1_555 1_555
O21_2 C37_2 1_555 1_555
Co1_2 N5_2 1_555 1_555
La4_2 O5_2 1_555 1_555
N9_2 Co1_2 1_555 1_555
N10_2 Co1_2 1_555 1_555
N11_2 Co1_2 1_555 1_555
N12_2 Co1_2 1_555 1_555
Co2_2 N3_2 1_555 1_555
C18_2 N3_2 1_555 1_555
C24_2 N4_2 1_555 1_555
C36_2 N5_2 1_555 1_555
N4_2 Co2_2 1_555 1_555
O6_2 La4_2 1_555 1_555
O18_2 La4_2 1_555 1_555
O19_2 La4_2 1_555 1_555
O20_2 La4_2 1_555 1_555
O21_2 La4_2 1_555 1_555
C25_3 H15_3 1_555 1_555
C26_3 C25_3 1_555 1_555
H20_3 C36_3 1_555 1_555
N6_3 C25_3 1_555 1_555
Co1_3 N5_3 1_555 1_555
N9_3 Co1_3 1_555 1_555
N10_3 Co1_3 1_555 1_555
N11_3 Co1_3 1_555 1_555
N12_3 Co1_3 1_555 1_555
C36_3 N5_3 1_555 1_555
N6_3 Co1_3 1_555 1_555
C13_3 H9_3 1_555 1_555
C14_3 C13_3 1_555 1_555
H10_3 C14_3 1_555 1_555
C15_3 C14_3 1_555 1_555
H11_3 C15_3 1_555 1_555
C16_3 C15_3 1_555 1_555
C18_3 C16_3 1_555 1_555
C19_3 C18_3 1_555 1_555
H24_3 C46_3 1_555 1_555
C47_3 C46_3 1_555 1_555
H25_3 C47_3 1_555 1_555
C48_3 C47_3 1_555 1_555
H26_3 C48_3 1_555 1_555
N3_3 C13_3 1_555 1_555
N4_3 C19_3 1_555 1_555
Co2_3 N3_3 1_555 1_555
C18_3 N3_3 1_555 1_555
C24_3 N4_3 1_555 1_555
N4_3 Co2_3 1_555 1_555
H1_3 O13_3 1_555 1_555
H2_3 O13_3 1_555 1_555
C2_3 C1_3 1_555 1_555
C3_3 C2_3 1_555 1_555
H5_3 C3_3 1_555 1_555
C4_3 C3_3 1_555 1_555
C5_3 C4_3 1_555 1_555
C6_3 C4_3 1_555 1_555
C7_3 C6_3 1_555 1_555
C8_3 C7_3 1_555 1_555
C9_3 C8_3 1_555 1_555
C10_3 C8_3 1_555 1_555
H6_3 C10_3 1_555 1_555
C11_3 C10_3 1_555 1_555
H7_3 C11_3 1_555 1_555
C12_3 C11_3 1_555 1_555
H8_3 C12_3 1_555 1_555
N1_3 C1_3 1_555 1_555
N2_3 C7_3 1_555 1_555
O1_3 C5_3 1_555 1_555
O2_3 C5_3 1_555 1_555
O3_3 C9_3 1_555 1_555
O4_3 C9_3 1_555 1_555
O11_3 H27_3 1_555 1_555
H28_3 O11_3 1_555 1_555
O13_3 La1_3 1_555 1_555
La1_3 O3_3 1_555 1_555
O24_3 La1_3 1_555 1_555
O25_3 La1_3 1_555 1_555
Co3_2 N1_3 1_555 1_555
La4_3 O4_3 1_555 1_555
C6_3 N1_3 1_555 1_555
C12_3 N2_3 1_555 1_555
N2_3 Co3_2 1_555 1_555
O11_3 La1_3 1_555 1_555
O14_3 La1_3 1_555 1_555
C21_3 C20_3 1_555 1_555
C22_3 C20_3 1_555 1_555
H12_3 C22_3 1_555 1_555
C28_3 C27_3 1_555 1_555
C29_3 C28_3 1_555 1_555
C30_3 C28_3 1_555 1_555
C31_3 C29_3 1_555 1_555
C32_3 C31_3 1_555 1_555
C33_3 C32_3 1_555 1_555
C34_3 C32_3 1_555 1_555
H18_3 C34_3 1_555 1_555
C35_3 C34_3 1_555 1_555
H19_3 C35_3 1_555 1_555
C37_3 C38_3 1_555 1_555
C38_3 C39_3 1_555 1_555
C39_3 H21_3 1_555 1_555
C40_3 C39_3 1_555 1_555
H22_3 C40_3 1_555 1_555
C41_3 C40_3 1_555 1_555
H23_3 C41_3 1_555 1_555
C42_3 C38_3 1_555 1_555
C43_3 C42_3 1_555 1_555
C44_3 C43_3 1_555 1_555
C45_3 C44_3 1_555 1_555
N7_3 C43_3 1_555 1_555
N8_3 C41_3 1_555 1_555
O5_3 C17_3 1_555 1_555
O6_3 C17_3 1_555 1_555
O24_3 C21_3 1_555 1_555
O25_3 C21_3 1_555 1_555
O9_3 C33_3 1_555 1_555
O10_3 C33_3 1_555 1_555
O12_3 H29_3 1_555 1_555
H30_3 O12_3 1_555 1_555
O15_3 C45_3 1_555 1_555
O16_3 C30_3 1_555 1_555
O17_3 C30_3 1_555 1_555
O18_3 H31_3 1_555 1_555
H32_3 O18_3 1_555 1_555
O19_3 H33_3 1_555 1_555
H34_3 O19_3 1_555 1_555
O20_3 H35_3 1_555 1_555
H36_3 O20_3 1_555 1_555
O21_3 C37_3 1_555 1_555
O22_3 C37_3 1_555 1_555
La4_3 O5_3 1_555 1_555
C42_3 N8_3 1_555 1_555
O6_3 La4_3 1_555 1_555
O17_3 La4_3 1_555 1_555
O18_3 La4_3 1_555 1_555
O19_3 La4_3 1_555 1_555
O20_3 La4_3 1_555 1_555
O21_3 La4_3 1_555 1_555
O22_3 La4_3 1_555 1_555
H1_4 O13_4 1_555 1_555
H2_4 O13_4 1_555 1_555
C1_4 H3_4 1_555 1_555
C2_4 C1_4 1_555 1_555
H4_4 C2_4 1_555 1_555
C3_4 C2_4 1_555 1_555
H5_4 C3_4 1_555 1_555
C4_4 C3_4 1_555 1_555
C5_4 C4_4 1_555 1_555
C6_4 C4_4 1_555 1_555
C7_4 C6_4 1_555 1_555
C8_4 C7_4 1_555 1_555
C9_4 C8_4 1_555 1_555
C10_4 C8_4 1_555 1_555
H6_4 C10_4 1_555 1_555
C11_4 C10_4 1_555 1_555
H7_4 C11_4 1_555 1_555
C12_4 C11_4 1_555 1_555
H8_4 C12_4 1_555 1_555
C25_4 H15_4 1_555 1_555
C26_4 C25_4 1_555 1_555
H16_2 C26_4 1_555 1_555
C27_4 C26_4 1_555 1_555
H17_4 C27_4 1_555 1_555
C28_4 C27_4 1_555 1_555
C29_4 C28_4 1_555 1_555
C30_4 C28_4 1_555 1_555
C38_4 C39_4 1_555 1_555
C39_4 H21_4 1_555 1_555
C40_4 C39_4 1_555 1_555
H22_4 C40_4 1_555 1_555
C41_4 C40_4 1_555 1_555
C42_4 C38_4 1_555 1_555
C43_4 C42_4 1_555 1_555
C44_4 C43_4 1_555 1_555
C45_4 C44_4 1_555 1_555
C46_4 C44_4 1_555 1_555
H24_4 C46_4 1_555 1_555
C47_4 C46_4 1_555 1_555
H25_4 C47_4 1_555 1_555
C48_4 C47_4 1_555 1_555
N1_4 C1_4 1_555 1_555
N2_4 C7_4 1_555 1_555
N6_4 C25_4 1_555 1_555
N7_4 C43_4 1_555 1_555
N8_4 C41_4 1_555 1_555
O1_4 C5_4 1_555 1_555
O2_4 C5_4 1_555 1_555
O3_4 C9_4 1_555 1_555
O4_4 C9_4 1_555 1_555
O9_4 C33_4 1_555 1_555
O10_4 C33_4 1_555 1_555
O11_4 H27_4 1_555 1_555
H28_4 O11_4 1_555 1_555
O12_4 H29_4 1_555 1_555
H30_4 O12_4 1_555 1_555
O13_4 La1_4 1_555 1_555
O14_4 C45_4 1_555 1_555
O15_4 C45_4 1_555 1_555
O16_4 C30_4 1_555 1_555
O17_4 C30_4 1_555 1_555
La1_4 O3_4 1_555 1_555
O24_4 La1_4 1_555 1_555
O25_4 La1_4 1_555 1_555
Co2_3 N1_4 1_555 1_555
La4_4 O4_4 1_555 1_555
C6_4 N1_4 1_555 1_555
C12_4 N2_4 1_555 1_555
C29_4 N6_4 1_555 1_555
C42_4 N8_4 1_555 1_555
C48_4 N7_4 1_555 1_555
N2_4 Co2_3 1_555 1_555
O11_4 La1_4 1_555 1_555
O12_4 La1_4 1_555 1_555
O14_4 La1_4 1_555 1_555
O15_4 La1_4 1_555 1_555
O16_4 La1_4 1_555 1_555
C13_4 H9_4 1_555 1_555
C14_4 C13_4 1_555 1_555
H10_4 C14_4 1_555 1_555
C15_4 C14_4 1_555 1_555
H11_4 C15_4 1_555 1_555
C16_4 C15_4 1_555 1_555
C17_4 C16_4 1_555 1_555
C18_4 C16_4 1_555 1_555
C19_4 C18_4 1_555 1_555
C20_4 C19_4 1_555 1_555
C21_4 C20_4 1_555 1_555
C22_4 C20_4 1_555 1_555
H12_4 C22_4 1_555 1_555
C23_3 C22_4 1_555 1_555
H13_3 C23_3 1_555 1_555
C24_4 C23_3 1_555 1_555
H14_3 C24_4 1_555 1_555
C32_4 C31_4 1_555 1_555
C34_4 C32_4 1_555 1_555
H18_4 C34_4 1_555 1_555
C35_4 C34_4 1_555 1_555
H19_4 C35_4 1_555 1_555
C36_4 C35_4 1_555 1_555
H20_4 C36_4 1_555 1_555
N3_4 C13_4 1_555 1_555
N4_4 C19_4 1_555 1_555
N5_4 C31_4 1_555 1_555
O5_4 C17_4 1_555 1_555
O6_4 C17_4 1_555 1_555
O24_4 C21_4 1_555 1_555
O25_4 C21_4 1_555 1_555
O18_4 H31_4 1_555 1_555
H32_4 O18_4 1_555 1_555
O19_4 H33_4 1_555 1_555
H34_4 O19_4 1_555 1_555
O21_4 C37_4 1_555 1_555
Co1_4 N5_4 1_555 1_555
La4_4 O5_4 1_555 1_555
N9_4 Co1_4 1_555 1_555
N10_4 Co1_4 1_555 1_555
N11_4 Co1_4 1_555 1_555
N12_4 Co1_4 1_555 1_555
Co2_4 N3_4 1_555 1_555
C18_4 N3_4 1_555 1_555
C24_4 N4_4 1_555 1_555
C36_4 N5_4 1_555 1_555
N4_4 Co2_4 1_555 1_555
O6_4 La4_4 1_555 1_555
O18_4 La4_4 1_555 1_555
O19_4 La4_4 1_555 1_555
O20_4 La4_4 1_555 1_555
O21_4 La4_4 1_555 1_555
H1_5 O13_5 1_555 1_555
H2_5 O13_5 1_555 1_555
C1_5 H3_5 1_555 1_555
C2_5 C1_5 1_555 1_555
H4_5 C2_5 1_555 1_555
C3_5 C2_5 1_555 1_555
H5_5 C3_5 1_555 1_555
C4_5 C3_5 1_555 1_555
C5_5 C4_5 1_555 1_555
C6_5 C4_5 1_555 1_555
C7_5 C6_5 1_555 1_555
C8_5 C7_5 1_555 1_555
C9_5 C8_5 1_555 1_555
C10_5 C8_5 1_555 1_555
C11_5 C10_5 1_555 1_555
C12_5 C11_5 1_555 1_555
H8_5 C12_5 1_555 1_555
C25_5 H15_5 1_555 1_555
C26_5 C25_5 1_555 1_555
H16_3 C26_5 1_555 1_555
C27_5 C26_5 1_555 1_555
H17_5 C27_5 1_555 1_555
C28_5 C27_5 1_555 1_555
C29_5 C28_5 1_555 1_555
C30_5 C28_5 1_555 1_555
C31_5 C29_5 1_555 1_555
C32_5 C31_5 1_555 1_555
C33_5 C32_5 1_555 1_555
C34_5 C32_5 1_555 1_555
H18_5 C34_5 1_555 1_555
C35_5 C34_5 1_555 1_555
C36_5 C35_5 1_555 1_555
C37_5 C38_5 1_555 1_555
C38_5 C39_5 1_555 1_555
C39_5 H21_5 1_555 1_555
C40_5 C39_5 1_555 1_555
H22_5 C40_5 1_555 1_555
C41_5 C40_5 1_555 1_555
H23_4 C41_5 1_555 1_555
C42_5 C38_5 1_555 1_555
C43_5 C42_5 1_555 1_555
C44_5 C43_5 1_555 1_555
C45_5 C44_5 1_555 1_555
N1_5 C1_5 1_555 1_555
N2_5 C7_5 1_555 1_555
N5_5 C31_5 1_555 1_555
N6_5 C25_5 1_555 1_555
N7_5 C43_5 1_555 1_555
N8_5 C41_5 1_555 1_555
O1_5 C5_5 1_555 1_555
O2_5 C5_5 1_555 1_555
O3_5 C9_5 1_555 1_555
O4_5 C9_5 1_555 1_555
O9_5 C33_5 1_555 1_555
O10_5 C33_5 1_555 1_555
O11_5 H27_5 1_555 1_555
H28_5 O11_5 1_555 1_555
O12_5 H29_5 1_555 1_555
H30_5 O12_5 1_555 1_555
O13_5 La1_5 1_555 1_555
O14_5 C45_5 1_555 1_555
O15_5 C45_5 1_555 1_555
O16_5 C30_5 1_555 1_555
O17_5 C30_5 1_555 1_555
O18_5 H31_5 1_555 1_555
H32_5 O18_5 1_555 1_555
O20_5 H35_5 1_555 1_555
H36_5 O20_5 1_555 1_555
O21_5 C37_5 1_555 1_555
O22_5 C37_5 1_555 1_555
Co1_5 N5_5 1_555 1_555
La1_5 O3_5 1_555 1_555
N9_5 Co1_5 1_555 1_555
N11_5 Co1_5 1_555 1_555
N12_5 Co1_5 1_555 1_555
O24_5 La1_5 1_555 1_555
O25_5 La1_5 1_555 1_555
Co2_4 N1_5 1_555 1_555
C6_5 N1_5 1_555 1_555
C12_5 N2_5 1_555 1_555
C29_5 N6_5 1_555 1_555
C36_5 N5_5 1_555 1_555
C42_5 N8_5 1_555 1_555
N2_5 Co2_4 1_555 1_555
N6_5 Co1_5 1_555 1_555
O6_5 La4_5 1_555 1_555
O11_5 La1_5 1_555 1_555
O12_5 La1_5 1_555 1_555
O14_5 La1_5 1_555 1_555
O15_5 La1_5 1_555 1_555
O16_5 La1_5 1_555 1_555
O17_5 La4_5 1_555 1_555
O18_5 La4_5 1_555 1_555
O20_5 La4_5 1_555 1_555
O21_5 La4_5 1_555 1_555
O22_5 La4_5 1_555 1_555
C21_5 C20_5 1_555 1_555
C22_5 C20_5 1_555 1_555
H12_5 C22_5 1_555 1_555
O5_5 C17_5 1_555 1_555
O24_5 C21_5 1_555 1_555
O25_5 C21_5 1_555 1_555
O19_5 H33_5 1_555 1_555
C13_5 H9_5 1_555 1_555
C14_5 C13_5 1_555 1_555
H10_5 C14_5 1_555 1_555
C15_5 C14_5 1_555 1_555
H11_5 C15_5 1_555 1_555
C16_5 C15_5 1_555 1_555
C18_5 C16_5 1_555 1_555
C19_5 C18_5 1_555 1_555
H13_4 C23_4 1_555 1_555
C24_5 C23_4 1_555 1_555
H14_4 C24_5 1_555 1_555
N3_5 C13_5 1_555 1_555
N4_5 C19_5 1_555 1_555
Co2_5 N3_5 1_555 1_555
C18_5 N3_5 1_555 1_555
C24_5 N4_5 1_555 1_555
N4_5 Co2_5 1_555 1_555
H1_6 O13_6 1_555 1_555
C8_6 C7_6 1_555 1_555
C9_6 C8_6 1_555 1_555
C10_6 C8_6 1_555 1_555
H6_6 C10_6 1_555 1_555
C11_6 C10_6 1_555 1_555
H7_6 C11_6 1_555 1_555
C12_6 C11_6 1_555 1_555
H8_6 C12_6 1_555 1_555
N2_6 C7_6 1_555 1_555
O1_6 C5_6 1_555 1_555
O2_6 C5_6 1_555 1_555
O4_6 C9_6 1_555 1_555
La4_6 O4_6 1_555 1_555
C12_6 N2_6 1_555 1_555
C1_6 H3_6 1_555 1_555
C2_6 C1_6 1_555 1_555
H4_6 C2_6 1_555 1_555
C3_6 C2_6 1_555 1_555
H5_6 C3_6 1_555 1_555
C4_6 C3_6 1_555 1_555
C6_6 C4_6 1_555 1_555
C13_6 H9_6 1_555 1_555
C14_6 C13_6 1_555 1_555
H10_6 C14_6 1_555 1_555
C15_6 C14_6 1_555 1_555
H11_6 C15_6 1_555 1_555
C16_6 C15_6 1_555 1_555
C17_6 C16_6 1_555 1_555
C18_6 C16_6 1_555 1_555
C19_6 C18_6 1_555 1_555
C20_6 C19_6 1_555 1_555
C22_6 C20_6 1_555 1_555
H12_6 C22_6 1_555 1_555
C23_5 C22_6 1_555 1_555
H13_5 C23_5 1_555 1_555
C24_6 C23_5 1_555 1_555
H14_5 C24_6 1_555 1_555
C25_6 H15_6 1_555 1_555
C26_6 C25_6 1_555 1_555
H16_4 C26_6 1_555 1_555
C27_6 C26_6 1_555 1_555
H17_6 C27_6 1_555 1_555
C28_6 C27_6 1_555 1_555
C29_6 C28_6 1_555 1_555
C30_6 C28_6 1_555 1_555
C31_6 C29_6 1_555 1_555
C32_6 C31_6 1_555 1_555
C33_6 C32_6 1_555 1_555
C34_6 C32_6 1_555 1_555
H18_6 C34_6 1_555 1_555
C35_6 C34_6 1_555 1_555
H19_6 C35_6 1_555 1_555
C36_6 C35_6 1_555 1_555
H20_6 C36_6 1_555 1_555
C37_6 C38_6 1_555 1_555
C38_6 C39_6 1_555 1_555
C39_6 H21_6 1_555 1_555
C40_6 C39_6 1_555 1_555
H22_6 C40_6 1_555 1_555
C41_6 C40_6 1_555 1_555
C42_6 C38_6 1_555 1_555
C43_6 C42_6 1_555 1_555
C44_6 C43_6 1_555 1_555
C45_6 C44_6 1_555 1_555
C46_5 C44_6 1_555 1_555
H24_5 C46_5 1_555 1_555
C47_5 C46_5 1_555 1_555
H25_5 C47_5 1_555 1_555
C48_5 C47_5 1_555 1_555
H26_5 C48_5 1_555 1_555
N1_6 C1_6 1_555 1_555
N3_6 C13_6 1_555 1_555
N4_6 C19_6 1_555 1_555
N5_6 C31_6 1_555 1_555
N6_6 C25_6 1_555 1_555
N7_6 C43_6 1_555 1_555
N8_6 C41_6 1_555 1_555
O5_6 C17_6 1_555 1_555
O6_6 C17_6 1_555 1_555
O9_6 C33_6 1_555 1_555
O10_6 C33_6 1_555 1_555
O11_6 H27_6 1_555 1_555
H28_6 O11_6 1_555 1_555
O12_6 H29_6 1_555 1_555
H30_6 O12_6 1_555 1_555
O14_6 C45_6 1_555 1_555
O15_6 C45_6 1_555 1_555
O16_6 C30_6 1_555 1_555
O17_6 C30_6 1_555 1_555
O18_6 H31_6 1_555 1_555
H32_6 O18_6 1_555 1_555
O19_6 H33_6 1_555 1_555
H34_6 O19_6 1_555 1_555
O20_6 H35_6 1_555 1_555
H36_6 O20_6 1_555 1_555
O21_6 C37_6 1_555 1_555
O22_6 C37_6 1_555 1_555
Co1_6 N5_6 1_555 1_555
La1_6 O3_6 1_555 1_555
La4_6 O5_6 1_555 1_555
N9_6 Co1_6 1_555 1_555
N10_6 Co1_6 1_555 1_555
N11_6 Co1_6 1_555 1_555
N12_6 Co1_6 1_555 1_555
O24_6 La1_6 1_555 1_555
Co3_2 N3_6 1_555 1_555
Co2_5 N1_6 1_555 1_555
C6_6 N1_6 1_555 1_555
C18_6 N3_6 1_555 1_555
C24_6 N4_6 1_555 1_555
C29_6 N6_6 1_555 1_555
C36_6 N5_6 1_555 1_555
C42_6 N8_6 1_555 1_555
C48_5 N7_6 1_555 1_555
N4_6 Co3_2 1_555 1_555
N6_6 Co1_6 1_555 1_555
O6_6 La4_6 1_555 1_555
O11_6 La1_6 1_555 1_555
O12_6 La1_6 1_555 1_555
O14_6 La1_6 1_555 1_555
O15_6 La1_6 1_555 1_555
O16_6 La1_6 1_555 1_555
O17_6 La4_6 1_555 1_555
O18_6 La4_6 1_555 1_555
O19_6 La4_6 1_555 1_555
O20_6 La4_6 1_555 1_555
O21_6 La4_6 1_555 1_555
O22_6 La4_6 1_555 1_555
O24_6 C21_6 1_555 1_555
H1_7 O13_7 1_555 1_555
H2_7 O13_7 1_555 1_555
C1_7 H3_7 1_555 1_555
C2_7 C1_7 1_555 1_555
H4_7 C2_7 1_555 1_555
C3_7 C2_7 1_555 1_555
H5_7 C3_7 1_555 1_555
C4_7 C3_7 1_555 1_555
C5_7 C4_7 1_555 1_555
C6_7 C4_7 1_555 1_555
C7_7 C6_7 1_555 1_555
C8_7 C7_7 1_555 1_555
C9_7 C8_7 1_555 1_555
C10_7 C8_7 1_555 1_555
C11_7 C10_7 1_555 1_555
C12_7 C11_7 1_555 1_555
H8_7 C12_7 1_555 1_555
C25_7 H15_7 1_555 1_555
C26_7 C25_7 1_555 1_555
H16_5 C26_7 1_555 1_555
C27_7 C26_7 1_555 1_555
H17_7 C27_7 1_555 1_555
C28_7 C27_7 1_555 1_555
C29_7 C28_7 1_555 1_555
C30_7 C28_7 1_555 1_555
C31_7 C29_7 1_555 1_555
C32_7 C31_7 1_555 1_555
C33_7 C32_7 1_555 1_555
C34_7 C32_7 1_555 1_555
H18_7 C34_7 1_555 1_555
C35_7 C34_7 1_555 1_555
C36_7 C35_7 1_555 1_555
C37_7 C38_7 1_555 1_555
C38_7 C39_7 1_555 1_555
C39_7 H21_7 1_555 1_555
C40_7 C39_7 1_555 1_555
H22_7 C40_7 1_555 1_555
C41_7 C40_7 1_555 1_555
H23_5 C41_7 1_555 1_555
C42_7 C38_7 1_555 1_555
C43_7 C42_7 1_555 1_555
C44_7 C43_7 1_555 1_555
C45_7 C44_7 1_555 1_555
C46_6 C44_7 1_555 1_555
H24_6 C46_6 1_555 1_555
C47_6 C46_6 1_555 1_555
H25_6 C47_6 1_555 1_555
C48_6 C47_6 1_555 1_555
H26_6 C48_6 1_555 1_555
N1_7 C1_7 1_555 1_555
N2_7 C7_7 1_555 1_555
N5_7 C31_7 1_555 1_555
N6_7 C25_7 1_555 1_555
N7_7 C43_7 1_555 1_555
N8_7 C41_7 1_555 1_555
O1_7 C5_7 1_555 1_555
O2_7 C5_7 1_555 1_555
O3_7 C9_7 1_555 1_555
O4_7 C9_7 1_555 1_555
O9_7 C33_7 1_555 1_555
O10_7 C33_7 1_555 1_555
O11_7 H27_7 1_555 1_555
H28_7 O11_7 1_555 1_555
O12_7 H29_7 1_555 1_555
H30_7 O12_7 1_555 1_555
O13_7 La1_7 1_555 1_555
O14_7 C45_7 1_555 1_555
O15_7 C45_7 1_555 1_555
O16_7 C30_7 1_555 1_555
O17_7 C30_7 1_555 1_555
O18_7 H31_7 1_555 1_555
H32_7 O18_7 1_555 1_555
O20_7 H35_7 1_555 1_555
H36_7 O20_7 1_555 1_555
O21_7 C37_7 1_555 1_555
O22_7 C37_7 1_555 1_555
Co1_7 N5_7 1_555 1_555
La1_7 O3_7 1_555 1_555
N9_7 Co1_7 1_555 1_555
N11_7 Co1_7 1_555 1_555
N12_7 Co1_7 1_555 1_555
O24_7 La1_7 1_555 1_555
O25_7 La1_7 1_555 1_555
Co2_2 N1_7 1_555 1_555
C6_7 N1_7 1_555 1_555
C12_7 N2_7 1_555 1_555
C29_7 N6_7 1_555 1_555
C36_7 N5_7 1_555 1_555
C42_7 N8_7 1_555 1_555
C48_6 N7_7 1_555 1_555
N2_7 Co2_2 1_555 1_555
N6_7 Co1_7 1_555 1_555
O6_7 La4_7 1_555 1_555
O11_7 La1_7 1_555 1_555
O12_7 La1_7 1_555 1_555
O14_7 La1_7 1_555 1_555
O15_7 La1_7 1_555 1_555
O16_7 La1_7 1_555 1_555
O17_7 La4_7 1_555 1_555
O18_7 La4_7 1_555 1_555
O20_7 La4_7 1_555 1_555
O21_7 La4_7 1_555 1_555
O22_7 La4_7 1_555 1_555
C13_7 H9_7 1_555 1_555
C14_7 C13_7 1_555 1_555
H10_7 C14_7 1_555 1_555
C15_7 C14_7 1_555 1_555
H11_7 C15_7 1_555 1_555
C16_7 C15_7 1_555 1_555
C17_7 C16_7 1_555 1_555
C18_7 C16_7 1_555 1_555
C19_7 C18_7 1_555 1_555
C20_7 C19_7 1_555 1_555
C21_7 C20_7 1_555 1_555
C22_7 C20_7 1_555 1_555
H12_7 C22_7 1_555 1_555
C23_6 C22_7 1_555 1_555
H13_6 C23_6 1_555 1_555
C24_7 C23_6 1_555 1_555
H14_6 C24_7 1_555 1_555
N3_7 C13_7 1_555 1_555
N4_7 C19_7 1_555 1_555
O5_7 C17_7 1_555 1_555
O24_7 C21_7 1_555 1_555
O25_7 C21_7 1_555 1_555
O19_7 H33_7 1_555 1_555
Co2_6 N3_7 1_555 1_555
C18_7 N3_7 1_555 1_555
C24_7 N4_7 1_555 1_555
N4_7 Co2_6 1_555 1_555
H1_8 O13_8 1_555 1_555
C8_8 C7_8 1_555 1_555
C9_8 C8_8 1_555 1_555
C10_8 C8_8 1_555 1_555
H6_8 C10_8 1_555 1_555
C11_8 C10_8 1_555 1_555
H7_8 C11_8 1_555 1_555
C12_8 C11_8 1_555 1_555
H8_8 C12_8 1_555 1_555
N2_8 C7_8 1_555 1_555
O1_8 C5_8 1_555 1_555
O2_8 C5_8 1_555 1_555
O4_8 C9_8 1_555 1_555
La4_8 O4_8 1_555 1_555
C12_8 N2_8 1_555 1_555
C1_8 H3_8 1_555 1_555
C2_8 C1_8 1_555 1_555
H4_8 C2_8 1_555 1_555
C3_8 C2_8 1_555 1_555
H5_8 C3_8 1_555 1_555
C4_8 C3_8 1_555 1_555
C6_8 C4_8 1_555 1_555
C13_8 H9_8 1_555 1_555
C14_8 C13_8 1_555 1_555
H10_8 C14_8 1_555 1_555
C15_8 C14_8 1_555 1_555
H11_8 C15_8 1_555 1_555
C16_8 C15_8 1_555 1_555
C17_8 C16_8 1_555 1_555
C18_8 C16_8 1_555 1_555
C19_8 C18_8 1_555 1_555
C20_8 C19_8 1_555 1_555
C22_8 C20_8 1_555 1_555
H12_8 C22_8 1_555 1_555
C23_7 C22_8 1_555 1_555
H13_7 C23_7 1_555 1_555
C24_8 C23_7 1_555 1_555
H14_7 C24_8 1_555 1_555
C25_8 H15_8 1_555 1_555
C26_8 C25_8 1_555 1_555
H16_6 C26_8 1_555 1_555
C27_8 C26_8 1_555 1_555
H17_8 C27_8 1_555 1_555
C28_8 C27_8 1_555 1_555
C29_8 C28_8 1_555 1_555
C30_8 C28_8 1_555 1_555
C31_8 C29_8 1_555 1_555
C32_8 C31_8 1_555 1_555
C33_8 C32_8 1_555 1_555
C34_8 C32_8 1_555 1_555
H18_8 C34_8 1_555 1_555
C35_8 C34_8 1_555 1_555
H19_8 C35_8 1_555 1_555
C36_8 C35_8 1_555 1_555
H20_8 C36_8 1_555 1_555
C37_8 C38_8 1_555 1_555
C38_8 C39_8 1_555 1_555
C39_8 H21_8 1_555 1_555
C40_8 C39_8 1_555 1_555
H22_8 C40_8 1_555 1_555
C41_8 C40_8 1_555 1_555
H23_6 C41_8 1_555 1_555
C42_8 C38_8 1_555 1_555
C43_8 C42_8 1_555 1_555
C44_8 C43_8 1_555 1_555
C45_8 C44_8 1_555 1_555
C46_7 C44_8 1_555 1_555
H24_7 C46_7 1_555 1_555
C47_7 C46_7 1_555 1_555
H25_7 C47_7 1_555 1_555
C48_7 C47_7 1_555 1_555
H26_7 C48_7 1_555 1_555
N1_8 C1_8 1_555 1_555
N3_8 C13_8 1_555 1_555
N4_8 C19_8 1_555 1_555
N5_8 C31_8 1_555 1_555
N6_8 C25_8 1_555 1_555
N7_8 C43_8 1_555 1_555
N8_8 C41_8 1_555 1_555
O5_8 C17_8 1_555 1_555
O6_8 C17_8 1_555 1_555
O9_8 C33_8 1_555 1_555
O10_8 C33_8 1_555 1_555
O11_8 H27_8 1_555 1_555
H28_8 O11_8 1_555 1_555
O12_8 H29_8 1_555 1_555
H30_8 O12_8 1_555 1_555
O14_8 C45_8 1_555 1_555
O15_8 C45_8 1_555 1_555
O16_8 C30_8 1_555 1_555
O17_8 C30_8 1_555 1_555
O18_8 H31_8 1_555 1_555
H32_8 O18_8 1_555 1_555
O19_8 H33_8 1_555 1_555
H34_8 O19_8 1_555 1_555
O20_8 H35_8 1_555 1_555
H36_8 O20_8 1_555 1_555
O21_8 C37_8 1_555 1_555
O22_8 C37_8 1_555 1_555
Co1_8 N5_8 1_555 1_555
La1_8 O3_8 1_555 1_555
La4_8 O5_8 1_555 1_555
N9_8 Co1_8 1_555 1_555
N10_8 Co1_8 1_555 1_555
N11_8 Co1_8 1_555 1_555
N12_8 Co1_8 1_555 1_555
O24_8 La1_8 1_555 1_555
Co3 N3_8 1_555 1_555
Co2_6 N1_8 1_555 1_555
C6_8 N1_8 1_555 1_555
C18_8 N3_8 1_555 1_555
C24_8 N4_8 1_555 1_555
C29_8 N6_8 1_555 1_555
C36_8 N5_8 1_555 1_555
C42_8 N8_8 1_555 1_555
C48_7 N7_8 1_555 1_555
N4_8 Co3 1_555 1_555
N6_8 Co1_8 1_555 1_555
O6_8 La4_8 1_555 1_555
O11_8 La1_8 1_555 1_555
O12_8 La1_8 1_555 1_555
O14_8 La1_8 1_555 1_555
O15_8 La1_8 1_555 1_555
O16_8 La1_8 1_555 1_555
O17_8 La4_8 1_555 1_555
O18_8 La4_8 1_555 1_555
O19_8 La4_8 1_555 1_555
O20_8 La4_8 1_555 1_555
O21_8 La4_8 1_555 1_555
O22_8 La4_8 1_555 1_555
O24_8 C21_8 1_555 1_555
H13_8 C23_8 1_555 1_555
C25_9 H15_9 1_555 1_555
C26_9 C25_9 1_555 1_555
H20_9 C36_9 1_555 1_555
N6_9 C25_9 1_555 1_555
Co2 N5_9 1_555 1_555
C36_9 N5_9 1_555 1_555
N6_9 Co2 1_555 1_555
C13_9 H9_9 1_555 1_555
C14_9 C13_9 1_555 1_555
H10_9 C14_9 1_555 1_555
C15_9 C14_9 1_555 1_555
H11_9 C15_9 1_555 1_555
C16_9 C15_9 1_555 1_555
C17_9 C16_9 1_555 1_555
C18_9 C16_9 1_555 1_555
C19_9 C18_9 1_555 1_555
C20_9 C19_9 1_555 1_555
C21_9 C20_9 1_555 1_555
C22_9 C20_9 1_555 1_555
H12_9 C22_9 1_555 1_555
C28_9 C27_9 1_555 1_555
C29_9 C28_9 1_555 1_555
C30_9 C28_9 1_555 1_555
C31_9 C29_9 1_555 1_555
C32_9 C31_9 1_555 1_555
C33_9 C32_9 1_555 1_555
C34_9 C32_9 1_555 1_555
H18_9 C34_9 1_555 1_555
C35_9 C34_9 1_555 1_555
H19_9 C35_9 1_555 1_555
C37_9 C38_9 1_555 1_555
C38_9 C39_9 1_555 1_555
C39_9 H21_9 1_555 1_555
C40_9 C39_9 1_555 1_555
H22_9 C40_9 1_555 1_555
C41_9 C40_9 1_555 1_555
H23_7 C41_9 1_555 1_555
C42_9 C38_9 1_555 1_555
C43_9 C42_9 1_555 1_555
C44_9 C43_9 1_555 1_555
C45_9 C44_9 1_555 1_555
C46_8 C44_9 1_555 1_555
H24_8 C46_8 1_555 1_555
C47_8 C46_8 1_555 1_555
H25_8 C47_8 1_555 1_555
C48_8 C47_8 1_555 1_555
H26_8 C48_8 1_555 1_555
N11 C13_9 1_555 1_555
N12 C19_9 1_555 1_555
N7_9 C43_9 1_555 1_555
N8_9 C41_9 1_555 1_555
O5_9 C17_9 1_555 1_555
O6_9 C17_9 1_555 1_555
O7 C21_9 1_555 1_555
O8 C21_9 1_555 1_555
O9_9 C33_9 1_555 1_555
O10_9 C33_9 1_555 1_555
O12_9 H29_9 1_555 1_555
H30_9 O12_9 1_555 1_555
O15_9 C45_9 1_555 1_555
O16_9 C30_9 1_555 1_555
O17_9 C30_9 1_555 1_555
O18_9 H31_9 1_555 1_555
H32_9 O18_9 1_555 1_555
O19_9 H33_9 1_555 1_555
H34_9 O19_9 1_555 1_555
O20_9 H35_9 1_555 1_555
H36_9 O20_9 1_555 1_555
O21_9 C37_9 1_555 1_555
O22_9 C37_9 1_555 1_555
La2 O5_9 1_555 1_555
O23 La2 1_555 1_555
La3 O7 1_555 1_555
C18_9 N11 1_555 1_555
C24_9 N12 1_555 1_555
C42_9 N8_9 1_555 1_555
C48_8 N7_9 1_555 1_555
O6_9 La2 1_555 1_555
O8 La3 1_555 1_555
O17_9 La2 1_555 1_555
O18_9 La2 1_555 1_555
O19_9 La2 1_555 1_555
O20_9 La2 1_555 1_555
O21_9 La2 1_555 1_555
O22_9 La2 1_555 1_555
H1_9 O13_9 1_555 1_555
H2_9 O13_9 1_555 1_555
C2_9 C1_9 1_555 1_555
C3_9 C2_9 1_555 1_555
H5_9 C3_9 1_555 1_555
C4_9 C3_9 1_555 1_555
C5_9 C4_9 1_555 1_555
C6_9 C4_9 1_555 1_555
C7_9 C6_9 1_555 1_555
C8_9 C7_9 1_555 1_555
C9_9 C8_9 1_555 1_555
C10_9 C8_9 1_555 1_555
H6_9 C10_9 1_555 1_555
C11_9 C10_9 1_555 1_555
H7_9 C11_9 1_555 1_555
C12_9 C11_9 1_555 1_555
H8_9 C12_9 1_555 1_555
N9_4 C1_9 1_555 1_555
N10_4 C7_9 1_555 1_555
O1_9 C5_9 1_555 1_555
O2_9 C5_9 1_555 1_555
O3_9 C9_9 1_555 1_555
O23 C9_9 1_555 1_555
O11_9 H27_9 1_555 1_555
H28_9 O11_9 1_555 1_555
O13_9 La3 1_555 1_555
La3 O3_9 1_555 1_555
C6_9 N9_4 1_555 1_555
C12_9 N10_4 1_555 1_555
O11_9 La3 1_555 1_555
O14_9 La3 1_555 1_555
C13_10 H9_10 1_555 1_555
C14_10 C13_10 1_555 1_555
H10_10 C14_10 1_555 1_555
C15_10 C14_10 1_555 1_555
H11_10 C15_10 1_555 1_555
C16_10 C15_10 1_555 1_555
C17_10 C16_10 1_555 1_555
C18_10 C16_10 1_555 1_555
C19_10 C18_10 1_555 1_555
C20_10 C19_10 1_555 1_555
C21_10 C20_10 1_555 1_555
C22_10 C20_10 1_555 1_555
H12_10 C22_10 1_555 1_555
C23_9 C22_10 1_555 1_555
H13_9 C23_9 1_555 1_555
C24_10 C23_9 1_555 1_555
H14_9 C24_10 1_555 1_555
C32_10 C31_10 1_555 1_555
C34_10 C32_10 1_555 1_555
H18_10 C34_10 1_555 1_555
C35_10 C34_10 1_555 1_555
H19_10 C35_10 1_555 1_555
C36_10 C35_10 1_555 1_555
H20_10 C36_10 1_555 1_555
N11_6 C13_10 1_555 1_555
N12_6 C19_10 1_555 1_555
N5_10 C31_10 1_555 1_555
O5_10 C17_10 1_555 1_555
O6_10 C17_10 1_555 1_555
O7_2 C21_10 1_555 1_555
O8_2 C21_10 1_555 1_555
O18_10 H31_10 1_555 1_555
H32_10 O18_10 1_555 1_555
O19_10 H33_10 1_555 1_555
H34_10 O19_10 1_555 1_555
O21_10 C37_10 1_555 1_555
Co3_2 N5_10 1_555 1_555
La2_2 O5_10 1_555 1_555
O23_2 La2_2 1_555 1_555
La3_2 O7_2 1_555 1_555
C18_10 N11_6 1_555 1_555
C24_10 N12_6 1_555 1_555
C36_10 N5_10 1_555 1_555
O6_10 La2_2 1_555 1_555
O8_2 La3_2 1_555 1_555
O18_10 La2_2 1_555 1_555
O19_10 La2_2 1_555 1_555
O20_10 La2_2 1_555 1_555
O21_10 La2_2 1_555 1_555
H1_10 O13_10 1_555 1_555
H2_10 O13_10 1_555 1_555
C1_10 H3_10 1_555 1_555
C2_10 C1_10 1_555 1_555
H4_10 C2_10 1_555 1_555
C3_10 C2_10 1_555 1_555
H5_10 C3_10 1_555 1_555
C4_10 C3_10 1_555 1_555
C5_10 C4_10 1_555 1_555
C6_10 C4_10 1_555 1_555
C7_10 C6_10 1_555 1_555
C8_10 C7_10 1_555 1_555
C9_10 C8_10 1_555 1_555
C10_10 C8_10 1_555 1_555
H6_10 C10_10 1_555 1_555
C11_10 C10_10 1_555 1_555
H7_10 C11_10 1_555 1_555
C12_10 C11_10 1_555 1_555
H8_10 C12_10 1_555 1_555
C25_10 H15_10 1_555 1_555
C26_10 C25_10 1_555 1_555
H16_7 C26_10 1_555 1_555
C27_10 C26_10 1_555 1_555
H17_10 C27_10 1_555 1_555
C28_10 C27_10 1_555 1_555
C29_10 C28_10 1_555 1_555
C30_10 C28_10 1_555 1_555
C38_10 C39_10 1_555 1_555
C39_10 H21_10 1_555 1_555
C40_10 C39_10 1_555 1_555
H22_10 C40_10 1_555 1_555
C41_10 C40_10 1_555 1_555
H23_8 C41_10 1_555 1_555
C42_10 C38_10 1_555 1_555
C43_10 C42_10 1_555 1_555
C44_10 C43_10 1_555 1_555
C45_10 C44_10 1_555 1_555
C46_9 C44_10 1_555 1_555
H24_9 C46_9 1_555 1_555
C47_9 C46_9 1_555 1_555
H25_9 C47_9 1_555 1_555
C48_9 C47_9 1_555 1_555
N9 C1_10 1_555 1_555
N10 C7_10 1_555 1_555
N6_10 C25_10 1_555 1_555
N7_10 C43_10 1_555 1_555
N8_10 C41_10 1_555 1_555
O1_10 C5_10 1_555 1_555
O2_10 C5_10 1_555 1_555
O3_10 C9_10 1_555 1_555
O23_2 C9_10 1_555 1_555
O9_10 C33_10 1_555 1_555
O10_10 C33_10 1_555 1_555
O11_10 H27_10 1_555 1_555
H28_10 O11_10 1_555 1_555
O12_10 H29_10 1_555 1_555
H30_10 O12_10 1_555 1_555
O13_10 La3_2 1_555 1_555
O14_10 C45_10 1_555 1_555
O15_10 C45_10 1_555 1_555
O16_10 C30_10 1_555 1_555
O17_10 C30_10 1_555 1_555
La3_2 O3_10 1_555 1_555
C6_10 N9 1_555 1_555
C12_10 N10 1_555 1_555
C29_10 N6_10 1_555 1_555
C42_10 N8_10 1_555 1_555
C48_9 N7_10 1_555 1_555
O11_10 La3_2 1_555 1_555
O12_10 La3_2 1_555 1_555
O14_10 La3_2 1_555 1_555
O15_10 La3_2 1_555 1_555
O16_10 La3_2 1_555 1_555
C21_11 C20_11 1_555 1_555
C22_11 C20_11 1_555 1_555
H12_11 C22_11 1_555 1_555
C28_11 C27_11 1_555 1_555
C29_11 C28_11 1_555 1_555
C30_11 C28_11 1_555 1_555
C31_11 C29_11 1_555 1_555
C32_11 C31_11 1_555 1_555
C33_11 C32_11 1_555 1_555
C34_11 C32_11 1_555 1_555
H18_11 C34_11 1_555 1_555
C35_11 C34_11 1_555 1_555
H19_11 C35_11 1_555 1_555
C37_11 C38_11 1_555 1_555
C38_11 C39_11 1_555 1_555
C39_11 H21_11 1_555 1_555
C40_11 C39_11 1_555 1_555
H22_11 C40_11 1_555 1_555
C41_11 C40_11 1_555 1_555
H23_9 C41_11 1_555 1_555
C42_11 C38_11 1_555 1_555
C43_11 C42_11 1_555 1_555
C44_11 C43_11 1_555 1_555
C45_11 C44_11 1_555 1_555
N7_11 C43_11 1_555 1_555
N8_11 C41_11 1_555 1_555
O5_11 C17_11 1_555 1_555
O6_11 C17_11 1_555 1_555
O7_3 C21_11 1_555 1_555
O8_3 C21_11 1_555 1_555
O9_11 C33_11 1_555 1_555
O10_11 C33_11 1_555 1_555
O12_11 H29_11 1_555 1_555
H30_11 O12_11 1_555 1_555
O15_11 C45_11 1_555 1_555
O16_11 C30_11 1_555 1_555
O17_11 C30_11 1_555 1_555
O18_11 H31_11 1_555 1_555
H32_11 O18_11 1_555 1_555
O19_11 H33_11 1_555 1_555
H34_11 O19_11 1_555 1_555
O20_11 H35_11 1_555 1_555
H36_11 O20_11 1_555 1_555
O21_11 C37_11 1_555 1_555
O22_11 C37_11 1_555 1_555
La2_3 O5_11 1_555 1_555
O23_3 La2_3 1_555 1_555
La3_3 O7_3 1_555 1_555
C42_11 N8_11 1_555 1_555
O6_11 La2_3 1_555 1_555
O8_3 La3_3 1_555 1_555
O17_11 La2_3 1_555 1_555
O18_11 La2_3 1_555 1_555
O19_11 La2_3 1_555 1_555
O20_11 La2_3 1_555 1_555
O21_11 La2_3 1_555 1_555
O22_11 La2_3 1_555 1_555
H1_11 O13_11 1_555 1_555
H2_11 O13_11 1_555 1_555
C2_11 C1_11 1_555 1_555
C3_11 C2_11 1_555 1_555
H5_11 C3_11 1_555 1_555
C4_11 C3_11 1_555 1_555
C5_11 C4_11 1_555 1_555
C6_11 C4_11 1_555 1_555
C7_11 C6_11 1_555 1_555
C8_11 C7_11 1_555 1_555
C9_11 C8_11 1_555 1_555
C10_11 C8_11 1_555 1_555
H6_11 C10_11 1_555 1_555
C11_11 C10_11 1_555 1_555
H7_11 C11_11 1_555 1_555
C12_11 C11_11 1_555 1_555
H8_11 C12_11 1_555 1_555
N9_2 C1_11 1_555 1_555
N10_2 C7_11 1_555 1_555
O1_11 C5_11 1_555 1_555
O2_11 C5_11 1_555 1_555
O3_11 C9_11 1_555 1_555
O23_3 C9_11 1_555 1_555
O11_11 H27_11 1_555 1_555
H28_11 O11_11 1_555 1_555
O13_11 La3_3 1_555 1_555
La3_3 O3_11 1_555 1_555
C6_11 N9_2 1_555 1_555
C12_11 N10_2 1_555 1_555
O11_11 La3_3 1_555 1_555
O14_11 La3_3 1_555 1_555
C13_11 H9_11 1_555 1_555
C14_11 C13_11 1_555 1_555
H10_11 C14_11 1_555 1_555
C15_11 C14_11 1_555 1_555
H11_11 C15_11 1_555 1_555
C16_11 C15_11 1_555 1_555
C18_11 C16_11 1_555 1_555
C19_11 C18_11 1_555 1_555
H24_10 C46_10 1_555 1_555
C47_10 C46_10 1_555 1_555
H25_10 C47_10 1_555 1_555
C48_10 C47_10 1_555 1_555
H26_10 C48_10 1_555 1_555
N11_3 C13_11 1_555 1_555
N12_3 C19_11 1_555 1_555
C18_11 N11_3 1_555 1_555
C24_11 N12_3 1_555 1_555
C25_11 H15_11 1_555 1_555
C26_11 C25_11 1_555 1_555
H20_11 C36_11 1_555 1_555
N6_11 C25_11 1_555 1_555
Co2_3 N5_11 1_555 1_555
C36_11 N5_11 1_555 1_555
N6_11 Co2_3 1_555 1_555
C13_12 H9_12 1_555 1_555
C14_12 C13_12 1_555 1_555
H10_12 C14_12 1_555 1_555
C15_12 C14_12 1_555 1_555
H11_12 C15_12 1_555 1_555
C16_12 C15_12 1_555 1_555
C17_12 C16_12 1_555 1_555
C18_12 C16_12 1_555 1_555
C19_12 C18_12 1_555 1_555
C20_12 C19_12 1_555 1_555
C21_12 C20_12 1_555 1_555
C22_12 C20_12 1_555 1_555
H12_12 C22_12 1_555 1_555
C23_10 C22_12 1_555 1_555
H13_10 C23_10 1_555 1_555
C24_12 C23_10 1_555 1_555
H14_10 C24_12 1_555 1_555
C32_12 C31_12 1_555 1_555
C34_12 C32_12 1_555 1_555
H18_12 C34_12 1_555 1_555
C35_12 C34_12 1_555 1_555
H19_12 C35_12 1_555 1_555
C36_12 C35_12 1_555 1_555
H20_12 C36_12 1_555 1_555
N11_8 C13_12 1_555 1_555
N12_8 C19_12 1_555 1_555
N5_12 C31_12 1_555 1_555
O5_12 C17_12 1_555 1_555
O6_12 C17_12 1_555 1_555
O7_4 C21_12 1_555 1_555
O8_4 C21_12 1_555 1_555
O18_12 H31_12 1_555 1_555
H32_12 O18_12 1_555 1_555
O19_12 H33_12 1_555 1_555
H34_12 O19_12 1_555 1_555
O21_12 C37_12 1_555 1_555
Co3 N5_12 1_555 1_555
La2_4 O5_12 1_555 1_555
O23_4 La2_4 1_555 1_555
La3_4 O7_4 1_555 1_555
C18_12 N11_8 1_555 1_555
C24_12 N12_8 1_555 1_555
C36_12 N5_12 1_555 1_555
O6_12 La2_4 1_555 1_555
O8_4 La3_4 1_555 1_555
O18_12 La2_4 1_555 1_555
O19_12 La2_4 1_555 1_555
O20_12 La2_4 1_555 1_555
O21_12 La2_4 1_555 1_555
H1_12 O13_12 1_555 1_555
H2_12 O13_12 1_555 1_555
C1_12 H3_12 1_555 1_555
C2_12 C1_12 1_555 1_555
H4_12 C2_12 1_555 1_555
C3_12 C2_12 1_555 1_555
H5_12 C3_12 1_555 1_555
C4_12 C3_12 1_555 1_555
C5_12 C4_12 1_555 1_555
C6_12 C4_12 1_555 1_555
C7_12 C6_12 1_555 1_555
C8_12 C7_12 1_555 1_555
C9_12 C8_12 1_555 1_555
C10_12 C8_12 1_555 1_555
H6_12 C10_12 1_555 1_555
C11_12 C10_12 1_555 1_555
H7_12 C11_12 1_555 1_555
C12_12 C11_12 1_555 1_555
H8_12 C12_12 1_555 1_555
C25_12 H15_12 1_555 1_555
C26_12 C25_12 1_555 1_555
H16_8 C26_12 1_555 1_555
C27_12 C26_12 1_555 1_555
H17_12 C27_12 1_555 1_555
C28_12 C27_12 1_555 1_555
C29_12 C28_12 1_555 1_555
C30_12 C28_12 1_555 1_555
C38_12 C39_12 1_555 1_555
C39_12 H21_12 1_555 1_555
C40_12 C39_12 1_555 1_555
H22_12 C40_12 1_555 1_555
C41_12 C40_12 1_555 1_555
C42_12 C38_12 1_555 1_555
C43_12 C42_12 1_555 1_555
C44_12 C43_12 1_555 1_555
C45_12 C44_12 1_555 1_555
C46_11 C44_12 1_555 1_555
H24_11 C46_11 1_555 1_555
C47_11 C46_11 1_555 1_555
H25_11 C47_11 1_555 1_555
C48_11 C47_11 1_555 1_555
N9_3 C1_12 1_555 1_555
N10_3 C7_12 1_555 1_555
N6_12 C25_12 1_555 1_555
N7_12 C43_12 1_555 1_555
N8_12 C41_12 1_555 1_555
O1_12 C5_12 1_555 1_555
O2_12 C5_12 1_555 1_555
O3_12 C9_12 1_555 1_555
O23_4 C9_12 1_555 1_555
O9_12 C33_12 1_555 1_555
O10_12 C33_12 1_555 1_555
O11_12 H27_12 1_555 1_555
H28_12 O11_12 1_555 1_555
O12_12 H29_12 1_555 1_555
H30_12 O12_12 1_555 1_555
O13_12 La3_4 1_555 1_555
O14_12 C45_12 1_555 1_555
O15_12 C45_12 1_555 1_555
O16_12 C30_12 1_555 1_555
O17_12 C30_12 1_555 1_555
La3_4 O3_12 1_555 1_555
C6_12 N9_3 1_555 1_555
C12_12 N10_3 1_555 1_555
C29_12 N6_12 1_555 1_555
C42_12 N8_12 1_555 1_555
C48_11 N7_12 1_555 1_555
O11_12 La3_4 1_555 1_555
O12_12 La3_4 1_555 1_555
O14_12 La3_4 1_555 1_555
O15_12 La3_4 1_555 1_555
O16_12 La3_4 1_555 1_555
C13_13 H9_13 1_555 1_555
C14_13 C13_13 1_555 1_555
H10_13 C14_13 1_555 1_555
C15_13 C14_13 1_555 1_555
H11_13 C15_13 1_555 1_555
C16_13 C15_13 1_555 1_555
C18_13 C16_13 1_555 1_555
C19_13 C18_13 1_555 1_555
H13_11 C23_11 1_555 1_555
C24_13 C23_11 1_555 1_555
H14_11 C24_13 1_555 1_555
N11_5 C13_13 1_555 1_555
N12_5 C19_13 1_555 1_555
C18_13 N11_5 1_555 1_555
C24_13 N12_5 1_555 1_555
C21_13 C20_13 1_555 1_555
C22_13 C20_13 1_555 1_555
H12_13 C22_13 1_555 1_555
O5_13 C17_13 1_555 1_555
O7_5 C21_13 1_555 1_555
O8_5 C21_13 1_555 1_555
O19_13 H33_13 1_555 1_555
La3_5 O7_5 1_555 1_555
O8_5 La3_5 1_555 1_555
H1_13 O13_13 1_555 1_555
H2_13 O13_13 1_555 1_555
C1_13 H3_13 1_555 1_555
C2_13 C1_13 1_555 1_555
H4_13 C2_13 1_555 1_555
C3_13 C2_13 1_555 1_555
H5_13 C3_13 1_555 1_555
C4_13 C3_13 1_555 1_555
C5_13 C4_13 1_555 1_555
C6_13 C4_13 1_555 1_555
C7_13 C6_13 1_555 1_555
C8_13 C7_13 1_555 1_555
C9_13 C8_13 1_555 1_555
C10_13 C8_13 1_555 1_555
C11_13 C10_13 1_555 1_555
C12_13 C11_13 1_555 1_555
H8_13 C12_13 1_555 1_555
C25_13 H15_13 1_555 1_555
C26_13 C25_13 1_555 1_555
H16_9 C26_13 1_555 1_555
C27_13 C26_13 1_555 1_555
H17_13 C27_13 1_555 1_555
C28_13 C27_13 1_555 1_555
C29_13 C28_13 1_555 1_555
C30_13 C28_13 1_555 1_555
C31_13 C29_13 1_555 1_555
C32_13 C31_13 1_555 1_555
C33_13 C32_13 1_555 1_555
C34_13 C32_13 1_555 1_555
H18_13 C34_13 1_555 1_555
C35_13 C34_13 1_555 1_555
C36_13 C35_13 1_555 1_555
C37_13 C38_13 1_555 1_555
C38_13 C39_13 1_555 1_555
C39_13 H21_13 1_555 1_555
C40_13 C39_13 1_555 1_555
H22_13 C40_13 1_555 1_555
C41_13 C40_13 1_555 1_555
H23_10 C41_13 1_555 1_555
C42_13 C38_13 1_555 1_555
C43_13 C42_13 1_555 1_555
C44_13 C43_13 1_555 1_555
C45_13 C44_13 1_555 1_555
N9_8 C1_13 1_555 1_555
N10_8 C7_13 1_555 1_555
N5_13 C31_13 1_555 1_555
N6_13 C25_13 1_555 1_555
N7_13 C43_13 1_555 1_555
N8_13 C41_13 1_555 1_555
O1_13 C5_13 1_555 1_555
O2_13 C5_13 1_555 1_555
O3_13 C9_13 1_555 1_555
O23_5 C9_13 1_555 1_555
O9_13 C33_13 1_555 1_555
O10_13 C33_13 1_555 1_555
O11_13 H27_13 1_555 1_555
H28_13 O11_13 1_555 1_555
O12_13 H29_13 1_555 1_555
H30_13 O12_13 1_555 1_555
O13_13 La3_5 1_555 1_555
O14_13 C45_13 1_555 1_555
O15_13 C45_13 1_555 1_555
O16_13 C30_13 1_555 1_555
O17_13 C30_13 1_555 1_555
O18_13 H31_13 1_555 1_555
H32_13 O18_13 1_555 1_555
O20_13 H35_13 1_555 1_555
H36_13 O20_13 1_555 1_555
O21_13 C37_13 1_555 1_555
O22_13 C37_13 1_555 1_555
Co2_5 N5_13 1_555 1_555
La3_5 O3_13 1_555 1_555
C6_13 N9_8 1_555 1_555
C12_13 N10_8 1_555 1_555
C29_13 N6_13 1_555 1_555
C36_13 N5_13 1_555 1_555
C42_13 N8_13 1_555 1_555
N6_13 Co2_5 1_555 1_555
O6_13 La2_5 1_555 1_555
O11_13 La3_5 1_555 1_555
O12_13 La3_5 1_555 1_555
O14_13 La3_5 1_555 1_555
O15_13 La3_5 1_555 1_555
O16_13 La3_5 1_555 1_555
O17_13 La2_5 1_555 1_555
O18_13 La2_5 1_555 1_555
O20_13 La2_5 1_555 1_555
O21_13 La2_5 1_555 1_555
O22_13 La2_5 1_555 1_555
O7_6 C21_14 1_555 1_555
La3_6 O7_6 1_555 1_555
C1_14 H3_14 1_555 1_555
C2_14 C1_14 1_555 1_555
H4_14 C2_14 1_555 1_555
C3_14 C2_14 1_555 1_555
H5_14 C3_14 1_555 1_555
C4_14 C3_14 1_555 1_555
C6_14 C4_14 1_555 1_555
C13_14 H9_14 1_555 1_555
C14_14 C13_14 1_555 1_555
H10_14 C14_14 1_555 1_555
C15_14 C14_14 1_555 1_555
H11_14 C15_14 1_555 1_555
C16_14 C15_14 1_555 1_555
C17_14 C16_14 1_555 1_555
C18_14 C16_14 1_555 1_555
C19_14 C18_14 1_555 1_555
C20_14 C19_14 1_555 1_555
C22_14 C20_14 1_555 1_555
H12_14 C22_14 1_555 1_555
C23_12 C22_14 1_555 1_555
H13_12 C23_12 1_555 1_555
C24_14 C23_12 1_555 1_555
H14_12 C24_14 1_555 1_555
C25_14 H15_14 1_555 1_555
C26_14 C25_14 1_555 1_555
H16_10 C26_14 1_555 1_555
C27_14 C26_14 1_555 1_555
H17_14 C27_14 1_555 1_555
C28_14 C27_14 1_555 1_555
C29_14 C28_14 1_555 1_555
C30_14 C28_14 1_555 1_555
C31_14 C29_14 1_555 1_555
C32_14 C31_14 1_555 1_555
C33_14 C32_14 1_555 1_555
C34_14 C32_14 1_555 1_555
H18_14 C34_14 1_555 1_555
C35_14 C34_14 1_555 1_555
H19_14 C35_14 1_555 1_555
C36_14 C35_14 1_555 1_555
H20_14 C36_14 1_555 1_555
C37_14 C38_14 1_555 1_555
C38_14 C39_14 1_555 1_555
C39_14 H21_14 1_555 1_555
C40_14 C39_14 1_555 1_555
H22_14 C40_14 1_555 1_555
C41_14 C40_14 1_555 1_555
C42_14 C38_14 1_555 1_555
C43_14 C42_14 1_555 1_555
C44_14 C43_14 1_555 1_555
C45_14 C44_14 1_555 1_555
C46_12 C44_14 1_555 1_555
H24_12 C46_12 1_555 1_555
C47_12 C46_12 1_555 1_555
H25_12 C47_12 1_555 1_555
C48_12 C47_12 1_555 1_555
H26_12 C48_12 1_555 1_555
N9_5 C1_14 1_555 1_555
N11_2 C13_14 1_555 1_555
N12_2 C19_14 1_555 1_555
N5_14 C31_14 1_555 1_555
N6_14 C25_14 1_555 1_555
N7_14 C43_14 1_555 1_555
N8_14 C41_14 1_555 1_555
O5_14 C17_14 1_555 1_555
O6_14 C17_14 1_555 1_555
O9_14 C33_14 1_555 1_555
O10_14 C33_14 1_555 1_555
O11_14 H27_14 1_555 1_555
H28_14 O11_14 1_555 1_555
O12_14 H29_14 1_555 1_555
H30_14 O12_14 1_555 1_555
O14_14 C45_14 1_555 1_555
O15_14 C45_14 1_555 1_555
O16_14 C30_14 1_555 1_555
O17_14 C30_14 1_555 1_555
O18_14 H31_14 1_555 1_555
H32_14 O18_14 1_555 1_555
O19_14 H33_14 1_555 1_555
H34_14 O19_14 1_555 1_555
O20_14 H35_14 1_555 1_555
H36_14 O20_14 1_555 1_555
O21_14 C37_14 1_555 1_555
O22_14 C37_14 1_555 1_555
Co2_2 N5_14 1_555 1_555
La3_6 O3_14 1_555 1_555
La2_6 O5_14 1_555 1_555
O23_6 La2_6 1_555 1_555
C6_14 N9_5 1_555 1_555
C18_14 N11_2 1_555 1_555
C24_14 N12_2 1_555 1_555
C29_14 N6_14 1_555 1_555
C36_14 N5_14 1_555 1_555
C42_14 N8_14 1_555 1_555
C48_12 N7_14 1_555 1_555
N6_14 Co2_2 1_555 1_555
O6_14 La2_6 1_555 1_555
O11_14 La3_6 1_555 1_555
O12_14 La3_6 1_555 1_555
O14_14 La3_6 1_555 1_555
O15_14 La3_6 1_555 1_555
O16_14 La3_6 1_555 1_555
O17_14 La2_6 1_555 1_555
O18_14 La2_6 1_555 1_555
O19_14 La2_6 1_555 1_555
O20_14 La2_6 1_555 1_555
O21_14 La2_6 1_555 1_555
O22_14 La2_6 1_555 1_555
H1_14 O13_14 1_555 1_555
C8_14 C7_14 1_555 1_555
C9_14 C8_14 1_555 1_555
C10_14 C8_14 1_555 1_555
H6_14 C10_14 1_555 1_555
C11_14 C10_14 1_555 1_555
H7_14 C11_14 1_555 1_555
C12_14 C11_14 1_555 1_555
H8_14 C12_14 1_555 1_555
N10_5 C7_14 1_555 1_555
O1_14 C5_14 1_555 1_555
O2_14 C5_14 1_555 1_555
O23_6 C9_14 1_555 1_555
C12_14 N10_5 1_555 1_555
C13_15 H9_15 1_555 1_555
C14_15 C13_15 1_555 1_555
H10_15 C14_15 1_555 1_555
C15_15 C14_15 1_555 1_555
H11_15 C15_15 1_555 1_555
C16_15 C15_15 1_555 1_555
C17_15 C16_15 1_555 1_555
C18_15 C16_15 1_555 1_555
C19_15 C18_15 1_555 1_555
C20_15 C19_15 1_555 1_555
C21_15 C20_15 1_555 1_555
C22_15 C20_15 1_555 1_555
H12_15 C22_15 1_555 1_555
C23_13 C22_15 1_555 1_555
H13_13 C23_13 1_555 1_555
C24_15 C23_13 1_555 1_555
H14_13 C24_15 1_555 1_555
N11_7 C13_15 1_555 1_555
N12_7 C19_15 1_555 1_555
O5_15 C17_15 1_555 1_555
O7_7 C21_15 1_555 1_555
O8_7 C21_15 1_555 1_555
O19_15 H33_15 1_555 1_555
La3_7 O7_7 1_555 1_555
C18_15 N11_7 1_555 1_555
C24_15 N12_7 1_555 1_555
O8_7 La3_7 1_555 1_555
H1_15 O13_15 1_555 1_555
H2_15 O13_15 1_555 1_555
C1_15 H3_15 1_555 1_555
C2_15 C1_15 1_555 1_555
H4_15 C2_15 1_555 1_555
C3_15 C2_15 1_555 1_555
H5_15 C3_15 1_555 1_555
C4_15 C3_15 1_555 1_555
C5_15 C4_15 1_555 1_555
C6_15 C4_15 1_555 1_555
C7_15 C6_15 1_555 1_555
C8_15 C7_15 1_555 1_555
C9_15 C8_15 1_555 1_555
C10_15 C8_15 1_555 1_555
C11_15 C10_15 1_555 1_555
C12_15 C11_15 1_555 1_555
H8_15 C12_15 1_555 1_555
C25_15 H15_15 1_555 1_555
C26_15 C25_15 1_555 1_555
H16_11 C26_15 1_555 1_555
C27_15 C26_15 1_555 1_555
H17_15 C27_15 1_555 1_555
C28_15 C27_15 1_555 1_555
C29_15 C28_15 1_555 1_555
C30_15 C28_15 1_555 1_555
C31_15 C29_15 1_555 1_555
C32_15 C31_15 1_555 1_555
C33_15 C32_15 1_555 1_555
C34_15 C32_15 1_555 1_555
H18_15 C34_15 1_555 1_555
C35_15 C34_15 1_555 1_555
C36_15 C35_15 1_555 1_555
C37_15 C38_15 1_555 1_555
C38_15 C39_15 1_555 1_555
C39_15 H21_15 1_555 1_555
C40_15 C39_15 1_555 1_555
H22_15 C40_15 1_555 1_555
C41_15 C40_15 1_555 1_555
H23_11 C41_15 1_555 1_555
C42_15 C38_15 1_555 1_555
C43_15 C42_15 1_555 1_555
C44_15 C43_15 1_555 1_555
C45_15 C44_15 1_555 1_555
C46_13 C44_15 1_555 1_555
H24_13 C46_13 1_555 1_555
C47_13 C46_13 1_555 1_555
H25_13 C47_13 1_555 1_555
C48_13 C47_13 1_555 1_555
H26_13 C48_13 1_555 1_555
N9_6 C1_15 1_555 1_555
N10_6 C7_15 1_555 1_555
N5_15 C31_15 1_555 1_555
N6_15 C25_15 1_555 1_555
N7_15 C43_15 1_555 1_555
N8_15 C41_15 1_555 1_555
O1_15 C5_15 1_555 1_555
O2_15 C5_15 1_555 1_555
O3_15 C9_15 1_555 1_555
O23_7 C9_15 1_555 1_555
O9_15 C33_15 1_555 1_555
O10_15 C33_15 1_555 1_555
O11_15 H27_15 1_555 1_555
H28_15 O11_15 1_555 1_555
O12_15 H29_15 1_555 1_555
H30_15 O12_15 1_555 1_555
O13_15 La3_7 1_555 1_555
O14_15 C45_15 1_555 1_555
O15_15 C45_15 1_555 1_555
O16_15 C30_15 1_555 1_555
O17_15 C30_15 1_555 1_555
O18_15 H31_15 1_555 1_555
H32_15 O18_15 1_555 1_555
O20_15 H35_15 1_555 1_555
H36_15 O20_15 1_555 1_555
O21_15 C37_15 1_555 1_555
O22_15 C37_15 1_555 1_555
Co2_6 N5_15 1_555 1_555
La3_7 O3_15 1_555 1_555
C6_15 N9_6 1_555 1_555
C12_15 N10_6 1_555 1_555
C29_15 N6_15 1_555 1_555
C36_15 N5_15 1_555 1_555
C42_15 N8_15 1_555 1_555
C48_13 N7_15 1_555 1_555
N6_15 Co2_6 1_555 1_555
O6_15 La2_7 1_555 1_555
O11_15 La3_7 1_555 1_555
O12_15 La3_7 1_555 1_555
O14_15 La3_7 1_555 1_555
O15_15 La3_7 1_555 1_555
O16_15 La3_7 1_555 1_555
O17_15 La2_7 1_555 1_555
O18_15 La2_7 1_555 1_555
O20_15 La2_7 1_555 1_555
O21_15 La2_7 1_555 1_555
O22_15 La2_7 1_555 1_555
O7_8 C21_16 1_555 1_555
La3_8 O7_8 1_555 1_555
C1_16 H3_16 1_555 1_555
C2_16 C1_16 1_555 1_555
H4_16 C2_16 1_555 1_555
C3_16 C2_16 1_555 1_555
H5_16 C3_16 1_555 1_555
C4_16 C3_16 1_555 1_555
C6_16 C4_16 1_555 1_555
C13_16 H9_16 1_555 1_555
C14_16 C13_16 1_555 1_555
H10_16 C14_16 1_555 1_555
C15_16 C14_16 1_555 1_555
H11_16 C15_16 1_555 1_555
C16_16 C15_16 1_555 1_555
C17_16 C16_16 1_555 1_555
C18_16 C16_16 1_555 1_555
C19_16 C18_16 1_555 1_555
C20_16 C19_16 1_555 1_555
C22_16 C20_16 1_555 1_555
H12_16 C22_16 1_555 1_555
C23_14 C22_16 1_555 1_555
H13_14 C23_14 1_555 1_555
C24_16 C23_14 1_555 1_555
H14_14 C24_16 1_555 1_555
C25_16 H15_16 1_555 1_555
C26_16 C25_16 1_555 1_555
H16_12 C26_16 1_555 1_555
C27_16 C26_16 1_555 1_555
H17_16 C27_16 1_555 1_555
C28_16 C27_16 1_555 1_555
C29_16 C28_16 1_555 1_555
C30_16 C28_16 1_555 1_555
C31_16 C29_16 1_555 1_555
C32_16 C31_16 1_555 1_555
C33_16 C32_16 1_555 1_555
C34_16 C32_16 1_555 1_555
H18_16 C34_16 1_555 1_555
C35_16 C34_16 1_555 1_555
H19_16 C35_16 1_555 1_555
C36_16 C35_16 1_555 1_555
H20_16 C36_16 1_555 1_555
C37_16 C38_16 1_555 1_555
C38_16 C39_16 1_555 1_555
C39_16 H21_16 1_555 1_555
C40_16 C39_16 1_555 1_555
H22_16 C40_16 1_555 1_555
C41_16 C40_16 1_555 1_555
H23_12 C41_16 1_555 1_555
C42_16 C38_16 1_555 1_555
C43_16 C42_16 1_555 1_555
C44_16 C43_16 1_555 1_555
C45_16 C44_16 1_555 1_555
C46_14 C44_16 1_555 1_555
H24_14 C46_14 1_555 1_555
C47_14 C46_14 1_555 1_555
H25_14 C47_14 1_555 1_555
C48_14 C47_14 1_555 1_555
H26_14 C48_14 1_555 1_555
N9_7 C1_16 1_555 1_555
N11_4 C13_16 1_555 1_555
N12_4 C19_16 1_555 1_555
N5_16 C31_16 1_555 1_555
N6_16 C25_16 1_555 1_555
N7_16 C43_16 1_555 1_555
N8_16 C41_16 1_555 1_555
O5_16 C17_16 1_555 1_555
O6_16 C17_16 1_555 1_555
O9_16 C33_16 1_555 1_555
O10_16 C33_16 1_555 1_555
O11_16 H27_16 1_555 1_555
H28_16 O11_16 1_555 1_555
O12_16 H29_16 1_555 1_555
H30_16 O12_16 1_555 1_555
O14_16 C45_16 1_555 1_555
O15_16 C45_16 1_555 1_555
O16_16 C30_16 1_555 1_555
O17_16 C30_16 1_555 1_555
O18_16 H31_16 1_555 1_555
H32_16 O18_16 1_555 1_555
O19_16 H33_16 1_555 1_555
H34_16 O19_16 1_555 1_555
O20_16 H35_16 1_555 1_555
H36_16 O20_16 1_555 1_555
O21_16 C37_16 1_555 1_555
O22_16 C37_16 1_555 1_555
Co2_4 N5_16 1_555 1_555
La3_8 O3_16 1_555 1_555
La2_8 O5_16 1_555 1_555
O23_8 La2_8 1_555 1_555
C6_16 N9_7 1_555 1_555
C18_16 N11_4 1_555 1_555
C24_16 N12_4 1_555 1_555
C29_16 N6_16 1_555 1_555
C36_16 N5_16 1_555 1_555
C42_16 N8_16 1_555 1_555
C48_14 N7_16 1_555 1_555
N6_16 Co2_4 1_555 1_555
O6_16 La2_8 1_555 1_555
O11_16 La3_8 1_555 1_555
O12_16 La3_8 1_555 1_555
O14_16 La3_8 1_555 1_555
O15_16 La3_8 1_555 1_555
O16_16 La3_8 1_555 1_555
O17_16 La2_8 1_555 1_555
O18_16 La2_8 1_555 1_555
O19_16 La2_8 1_555 1_555
O20_16 La2_8 1_555 1_555
O21_16 La2_8 1_555 1_555
O22_16 La2_8 1_555 1_555
H1_16 O13_16 1_555 1_555
C8_16 C7_16 1_555 1_555
C9_16 C8_16 1_555 1_555
C10_16 C8_16 1_555 1_555
H6_16 C10_16 1_555 1_555
C11_16 C10_16 1_555 1_555
H7_16 C11_16 1_555 1_555
C12_16 C11_16 1_555 1_555
H8_16 C12_16 1_555 1_555
N10_7 C7_16 1_555 1_555
O1_16 C5_16 1_555 1_555
O2_16 C5_16 1_555 1_555
O23_8 C9_16 1_555 1_555
C12_16 N10_7 1_555 1_555
H13_15 C23_15 1_555 1_555
H24_15 C46_15 1_555 1_555
C47_15 C46_15 1_555 1_555
H25_15 C47_15 1_555 1_555
C48_15 C47_15 1_555 1_555
H26_15 C48_15 1_555 1_555
H13_16 C23_16 1_555 1_555
H24_16 C46_16 1_555 1_555
C47_16 C46_16 1_555 1_555
H25_16 C47_16 1_555 1_555
C48_16 C47_16 1_555 1_555
H26_16 C48_16 1_555 1_555

#END
