
###############################################################################
#
# This file contains modified crystal structure data generated from the
# MOF subset of the Cambridge Structural Database (CSD) v543 
# hosted by the Cambridge Crystallographic Data Centre (CCDC).
#
# This work is licensed under the Creative Commons
# Attribution-NonCommercial-ShareAlike 4.0 International License.
# To view a copy of this license, visit
# http://creativecommons.org/licenses/by-nc-sa/4.0/
# or send a letter to
# Creative Commons, PO Box 1866, Mountain View, CA 94042, USA.
#
# CIF created using the CSD Python API on 29 September 2022
# The structure has been converted into the P1 space group
# The structure has a 3D framework
# The original CSD entry MIFSUR is in the tetragonal crystal system
# The framework has been calculated to contain at least 10.0% void space
# The void calculation uses a probe of radius 1.32A, grid spacing 0.4
# H atom positions have been added when not included in the experimental data
#
###############################################################################

data_MIFSUR
_chemical_formula_moiety         '(C768 H576 Co16 N128 Nd32 O348)n'
_symmetry_cell_setting           triclinic
_symmetry_space_group_name_H-M   'P 1'
_symmetry_Int_Tables_number      1
_space_group_name_Hall           'P 1'
loop_
_symmetry_equiv_pos_site_id
_symmetry_equiv_pos_as_xyz
1 x,y,z
_cell_length_a                   45.7979(7)
_cell_length_b                   45.7979(7)
_cell_length_c                   11.2276(2)
_cell_angle_alpha                90
_cell_angle_beta                 90
_cell_angle_gamma                90
_cell_volume                     23549.3
loop_
_atom_site_label
_atom_site_type_symbol
_atom_site_fract_x
_atom_site_fract_y
_atom_site_fract_z
Nd2 Nd 0.599722(9) 0.426544(9) 0.10896(4)
H5 H 0.6668 0.3766 0.0045
O11 O 0.56153(12) 0.42423(13) 0.2550(5)
O12 O 0.63069(14) 0.40908(18) 0.2772(6)
O13 O 0.65589(13) 0.42951(14) 0.1343(5)
O14 O 0.59411(13) 0.37330(12) 0.1338(5)
O16 O 0.60774(16) 0.47022(16) 0.2425(6)
O17 O 0.57393(14) 0.47729(13) 0.0325(6)
H7 H 0.6994 0.3376 0.0191
C15 C 0.55256(17) 0.42976(17) 0.3583(7)
C16 C 0.65477(18) 0.41647(18) 0.2306(7)
H8 H 0.5814 0.3692 0.1905
H9 H 0.5878 0.3652 0.0673
H11 H 0.5402 0.4170 0.0248
H12 H 0.6235 0.4803 0.2198
H13 H 0.5925 0.4823 0.2398
C23 C 0.52002(17) 0.43095(18) 0.3759(7)
C24 C 0.68237(18) 0.40861(18) 0.2948(7)
C28 C 0.50073(18) 0.41547(19) 0.3045(7)
C29 C 0.5087(2) 0.4500(2) 0.4594(8)
C30 C 0.7005(2) 0.4294(2) 0.3468(9)
C31 C 0.6905(2) 0.3792(2) 0.2956(9)
C33 C 0.50833(16) 0.39155(17) 0.2179(7)
C34 C 0.4789(2) 0.4539(2) 0.4694(9)
H22 H 0.5212 0.4602 0.5094
C35 C 0.6939(2) 0.4609(2) 0.3411(9)
N7 N 0.72618(19) 0.4213(2) 0.4004(8)
C36 C 0.7169(2) 0.3710(3) 0.3438(10)
H23 H 0.6781 0.3652 0.2636
C37 C 0.52689(17) 0.36856(18) 0.2402(7)
C38 C 0.4612(2) 0.4400(2) 0.3865(9)
H25 H 0.4710 0.4655 0.5293
C39 C 0.6468(2) 0.4554(2) 0.4667(9)
C40 C 0.6689(2) 0.4726(2) 0.3875(9)
N8 N 0.7147(2) 0.4779(2) 0.2916(8)
C41 C 0.7322(3) 0.3919(3) 0.3933(10)
H26 H 0.7235 0.3518 0.3414
C42 C 0.54409(19) 0.36574(17) 0.3561(7)
C43 C 0.52995(18) 0.34705(18) 0.1536(7)
C44 C 0.49674(18) 0.37244(18) 0.0326(7)
H27 H 0.4413 0.4438 0.3872
C45 C 0.6629(3) 0.5025(3) 0.3632(10)
C46 C 0.7087(3) 0.5060(3) 0.2737(10)
H28 H 0.7495 0.3860 0.4288
O21 O 0.57049(13) 0.35904(12) 0.3458(5)
O22 O 0.53075(13) 0.36995(13) 0.4519(5)
H29 H 0.5422 0.3312 0.1668
C47 C 0.51458(17) 0.34938(17) 0.0474(7)
H31 H 0.6456 0.5108 0.3901
C48 C 0.6828(3) 0.5193(3) 0.2996(10)
H32 H 0.7234 0.5175 0.2409
H34 H 0.6787 0.5384 0.2762
O23 O 0.56828(12) 0.43594(12) 0.4472(5)
N9 N 0.56386(15) 0.58871(15) 0.0498(6)
Nd3 Nd 0.600179(9) 0.429087(9) 0.61228(4)
N11 N 0.47176(15) 0.42115(16) 0.3054(6)
O24 O 0.62210(15) 0.46556(16) 0.4716(6)
O25 O 0.65523(16) 0.43414(16) 0.5279(6)
N12 N 0.49302(14) 0.39329(14) 0.1150(6)
Co3 Co 0.45386(2) 0.41697(2) 0.12847(10)
O1 O 0.63515(13) 0.45139(12) 0.7530(5)
O2 O 0.55726(12) 0.39629(13) 0.6362(5)
O3 O 0.61242(12) 0.38688(12) 0.4824(5)
O4 O 0.61594(12) 0.39097(12) 0.7455(5)
O5 O 0.56741(13) 0.44684(12) 0.7836(5)
O6 O 0.57549(13) 0.48142(13) 0.6507(5)
H1 H 0.5603 0.3848 0.6945
H2 H 0.5421 0.4066 0.6501
H3 H 0.6158 0.3719 0.5255
H4 H 0.5981 0.3833 0.4363
C1 C 0.62419(17) 0.38686(17) 0.8507(7)
C2 C 0.56366(18) 0.47231(18) 0.7439(8)
C3 C 0.64300(17) 0.35993(18) 0.8699(7)
O10 O 0.61974(12) 0.40289(12) 0.9382(5)
C4 C 0.54182(18) 0.49241(18) 0.8057(8)
C5 C 0.6652(2) 0.3607(2) 0.9531(8)
C6 C 0.64042(18) 0.33488(18) 0.7990(7)
C7 C 0.51212(18) 0.48553(19) 0.8015(8)
C8 C 0.54956(19) 0.51921(18) 0.8563(8)
C9 C 0.6851(2) 0.3379(2) 0.9602(9)
C10 C 0.61617(17) 0.32829(16) 0.7134(7)
N1 N 0.66129(15) 0.31386(15) 0.7998(6)
O15 O 0.55611(11) 0.41583(12) 0.9825(5)
O18 O 0.61876(13) 0.46507(13) 0.9791(5)
H6 H 0.5061 0.4678 0.7695
C11 C 0.49162(18) 0.50504(19) 0.8448(8)
C12 C 0.57999(17) 0.52920(18) 0.8753(8)
N2 N 0.52940(15) 0.53907(16) 0.8906(7)
C13 C 0.6832(2) 0.3159(2) 0.8787(9)
C14 C 0.58649(17) 0.33279(17) 0.7368(7)
N3 N 0.62558(14) 0.31623(14) 0.6107(6)
Co1 Co 0.66697(2) 0.29614(2) 0.62153(10)
H10 H 0.5574 0.3982 0.9534
C17 C 0.5973(2) 0.4829(2) 0.9805(8)
H14 H 0.4719 0.5002 0.8467
C18 C 0.50113(18) 0.53189(19) 0.8852(7)
C19 C 0.60215(19) 0.51211(19) 0.9236(8)
N4 N 0.58469(15) 0.55737(15) 0.8436(7)
H15 H 0.6977 0.3017 0.8777
C20 C 0.56709(19) 0.32478(18) 0.6502(7)
C21 C 0.57527(17) 0.34604(17) 0.8525(7)
C22 C 0.60582(18) 0.30869(18) 0.5275(7)
H16 H 0.4873 0.5455 0.9096
C25 C 0.63021(18) 0.52434(19) 0.9323(9)
C26 C 0.61134(19) 0.5686(2) 0.8527(8)
N5 N 0.50698(14) 0.60671(14) 0.8850(6)
N6 N 0.52824(15) 0.57885(16) 0.6946(6)
C27 C 0.57646(19) 0.31273(19) 0.5439(8)
H17 H 0.5472 0.3275 0.6630
O19 O 0.58542(13) 0.33612(13) 0.9490(5)
O20 O 0.55690(12) 0.36595(12) 0.8427(5)
H18 H 0.6123 0.3005 0.4566
C32 C 0.63486(19) 0.55243(19) 0.8946(9)
H19 H 0.6455 0.5134 0.9636
H20 H 0.6143 0.5880 0.8304
H21 H 0.5632 0.3075 0.4850
H24 H 0.6535 0.5605 0.8969
H30 H 0.4864 0.3740 0.9615
H33 H 0.5166 0.3354 0.9880
Co2 Co 0.54614(2) 0.58303(2) 0.87153(10)
N10 N 0.56623(14) 0.62442(14) 0.8607(6)
H35 H 0.645572 0.435768 0.797207
H36 H 0.649498 0.46337 0.708182
O1_2 O 0.29861(12) 0.88515(13) 0.0030(5)
O5_2 O 0.30316(12) 0.81741(13) 0.0336(5)
C1_2 C 0.36314(17) 0.87419(17) 0.1007(7)
C3_2 C 0.39007(18) 0.89300(17) 0.1199(7)
O10_2 O 0.34711(12) 0.86974(12) 0.1882(5)
C4_2 C 0.25759(18) 0.79182(18) 0.0557(8)
C5_2 C 0.3893(2) 0.9152(2) 0.2031(8)
C6_2 C 0.41512(18) 0.89042(18) 0.0490(7)
Nd2_2 Nd 0.323456(9) 0.849722(9) 0.35896(4)
C7_2 C 0.26447(19) 0.76212(18) 0.0515(8)
C8_2 C 0.23079(18) 0.79956(19) 0.1063(8)
H5_2 H 0.3734 0.9168 0.2545
C9_2 C 0.4121(2) 0.9351(2) 0.2102(9)
N1_2 N 0.43614(15) 0.91129(15) 0.0498(6)
O11_2 O 0.32577(13) 0.81153(12) 0.5050(5)
O12_2 O 0.34092(18) 0.88069(14) 0.5272(6)
O13_2 O 0.32049(14) 0.90589(13) 0.3843(5)
O14_2 O 0.37670(12) 0.84411(13) 0.3838(5)
O15_2 O 0.33417(12) 0.80611(11) 0.2325(5)
O16_2 O 0.27978(16) 0.85774(16) 0.4925(6)
O17_2 O 0.27271(13) 0.82393(14) 0.2825(6)
O18_2 O 0.28493(13) 0.86876(13) 0.2291(5)
H6_2 H 0.2822 0.7561 0.0195
C11_2 C 0.24496(19) 0.74162(18) 0.0948(8)
C12_2 C 0.22080(18) 0.82999(17) 0.1253(8)
N2_2 N 0.21093(16) 0.77940(15) 0.1406(7)
H7_2 H 0.4124 0.9494 0.2691
C13_2 C 0.4341(2) 0.9332(2) 0.1287(9)
C15_2 C 0.32024(17) 0.80256(17) 0.6083(7)
C16_2 C 0.33353(18) 0.90477(18) 0.4806(7)
H8_2 H 0.3808 0.8314 0.4405
H9_2 H 0.3848 0.8378 0.3173
H10_2 H 0.3518 0.8074 0.2034
H11_2 H 0.3330 0.7902 0.2748
H12_2 H 0.2697 0.8735 0.4698
H13_2 H 0.2677 0.8425 0.4898
C17_2 C 0.2671(2) 0.8473(2) 0.2305(8)
H14_2 H 0.2498 0.7219 0.0967
C18_2 C 0.21811(19) 0.75113(18) 0.1352(7)
C19_2 C 0.23789(19) 0.85215(19) 0.1736(8)
N4_2 N 0.19263(15) 0.83469(15) 0.0936(7)
H15_2 H 0.4483 0.9477 0.1277
C21_2 C 0.40396(17) 0.82527(17) 0.1025(7)
C23_2 C 0.31905(18) 0.77002(17) 0.6259(7)
C24_2 C 0.34139(18) 0.93237(18) 0.5448(7)
H16_2 H 0.2045 0.7373 0.1596
C25_2 C 0.22566(19) 0.88021(18) 0.1823(9)
C26_2 C 0.1814(2) 0.86134(19) 0.1027(8)
N5_2 N 0.14329(14) 0.75698(14) 0.1350(6)
O19_2 O 0.41388(13) 0.83542(13) 0.1990(5)
O20_2 O 0.38405(12) 0.80690(12) 0.0927(5)
C28_2 C 0.33453(19) 0.75073(18) 0.5545(7)
C29_2 C 0.3000(2) 0.7587(2) 0.7094(8)
C30_2 C 0.3206(2) 0.9505(2) 0.5968(9)
C31_2 C 0.3708(2) 0.9405(2) 0.5456(9)
C32_2 C 0.19757(19) 0.88486(19) 0.1446(9)
H19_2 H 0.2366 0.8955 0.2136
H20_2 H 0.1620 0.8643 0.0804
C33_2 C 0.35845(17) 0.75833(16) 0.4679(7)
C34_2 C 0.2961(2) 0.7289(2) 0.7194(9)
H22_2 H 0.2898 0.7712 0.7594
C35_2 C 0.2891(2) 0.9439(2) 0.5911(9)
N7_2 N 0.3287(2) 0.97618(19) 0.6504(8)
C36_2 C 0.3790(3) 0.9669(2) 0.5938(10)
H23_2 H 0.3848 0.9281 0.5136
H24_2 H 0.1895 0.9035 0.1469
C37_2 C 0.38144(18) 0.77689(17) 0.4902(7)
C38_2 C 0.3100(2) 0.7112(2) 0.6365(9)
H25_2 H 0.2845 0.7210 0.7793
C39_2 C 0.2946(2) 0.8968(2) 0.7167(9)
C40_2 C 0.2774(2) 0.9189(2) 0.6375(9)
N8_2 N 0.2721(2) 0.9647(2) 0.5416(8)
C41_2 C 0.3581(3) 0.9822(3) 0.6433(10)
H26_2 H 0.3982 0.9735 0.5914
C42_2 C 0.38426(17) 0.79409(19) 0.6061(7)
C43_2 C 0.40295(18) 0.77995(18) 0.4036(7)
C44_2 C 0.37756(18) 0.74674(18) 0.2826(7)
H27_2 H 0.3062 0.6913 0.6372
C45_2 C 0.2475(3) 0.9129(3) 0.6132(10)
C46_2 C 0.2440(3) 0.9587(3) 0.5237(10)
H28_2 H 0.3640 0.9995 0.6788
O21_2 O 0.39096(12) 0.82049(13) 0.5958(5)
O22_2 O 0.38005(13) 0.78075(13) 0.7019(5)
H29_2 H 0.4188 0.7922 0.4168
C47_2 C 0.40062(17) 0.76458(17) 0.2974(7)
H30_2 H 0.3760 0.7364 0.2115
H31_2 H 0.2392 0.8956 0.6401
C48_2 C 0.2307(3) 0.9328(3) 0.5496(10)
H32_2 H 0.2325 0.9734 0.4909
H33_2 H 0.4146 0.7666 0.2380
H34_2 H 0.2116 0.9287 0.5262
Co2_2 Co 0.16697(2) 0.79614(2) 0.12153(10)
O23_2 O 0.31406(12) 0.81828(12) 0.6972(5)
N9_2 N 0.16129(15) 0.81386(15) 0.2998(6)
N10_2 N 0.12558(14) 0.81623(14) 0.1107(6)
Nd3_2 Nd 0.320913(9) 0.850179(9) 0.86228(4)
N11_2 N 0.32885(16) 0.72176(15) 0.5554(6)
O24_2 O 0.28444(16) 0.87210(15) 0.7216(6)
O25_2 O 0.31586(16) 0.90523(16) 0.7779(6)
N12_2 N 0.35671(14) 0.74302(14) 0.3650(6)
Co3_2 Co 0.33303(2) 0.70386(2) 0.37847(10)
H35_2 H 0.314232 0.895572 0.0472074
O2_2 O 0.35371(13) 0.80726(12) 0.8862(5)
O3_2 O 0.36312(12) 0.86242(12) 0.7324(5)
O4_2 O 0.35903(12) 0.86594(12) 0.9955(5)
O6_2 O 0.26858(13) 0.82549(13) 0.9007(5)
H1_2 H 0.3652 0.8103 0.9445
H2_2 H 0.3434 0.7921 0.9001
H3_2 H 0.3781 0.8658 0.7755
H4_2 H 0.3667 0.8481 0.6863
C2_2 C 0.27769(18) 0.81366(18) 0.9939(8)
C10_2 C 0.42171(16) 0.86617(17) 0.9634(7)
C14_2 C 0.41721(17) 0.83649(17) 0.9868(7)
N3_2 N 0.43377(14) 0.87558(14) 0.8607(6)
Co1_2 Co 0.45386(2) 0.91697(2) 0.87153(10)
C20_2 C 0.42522(18) 0.81709(19) 0.9002(7)
C22_2 C 0.44131(18) 0.85582(18) 0.7775(7)
N6_2 N 0.17115(16) 0.77824(15) 0.9446(6)
C27_2 C 0.43727(19) 0.82646(19) 0.7939(8)
H17_2 H 0.4225 0.7972 0.9130
H18_2 H 0.4495 0.8623 0.7066
H21_2 H 0.4425 0.8132 0.7350
H36_2 H 0.28663 0.899498 0.958182
Nd2_3 Nd 0.400278(9) 0.073456(9) 0.10896(4)
H5_3 H 0.3332 0.1234 0.0045
O11_3 O 0.43847(12) 0.07577(13) 0.2550(5)
O12_3 O 0.36931(14) 0.09092(18) 0.2772(6)
O13_3 O 0.34411(13) 0.07049(14) 0.1343(5)
O14_3 O 0.40589(13) 0.12670(12) 0.1338(5)
O16_3 O 0.39226(16) 0.02978(16) 0.2425(6)
O17_3 O 0.42607(14) 0.02271(13) 0.0325(6)
H7_3 H 0.3006 0.1624 0.0191
C15_3 C 0.44744(17) 0.07024(17) 0.3583(7)
C16_3 C 0.34523(18) 0.08353(18) 0.2306(7)
H8_3 H 0.4186 0.1308 0.1905
H9_3 H 0.4122 0.1348 0.0673
H11_3 H 0.4598 0.0830 0.0248
H12_3 H 0.3765 0.0197 0.2198
H13_3 H 0.4075 0.0177 0.2398
C23_3 C 0.47998(17) 0.06905(18) 0.3759(7)
C24_3 C 0.31763(18) 0.09139(18) 0.2948(7)
C28_3 C 0.49927(18) 0.08453(19) 0.3045(7)
C29_3 C 0.4913(2) 0.0500(2) 0.4594(8)
C30_3 C 0.2995(2) 0.0706(2) 0.3468(9)
C31_3 C 0.3095(2) 0.1208(2) 0.2956(9)
C33_3 C 0.49167(16) 0.10845(17) 0.2179(7)
C34_3 C 0.5211(2) 0.0461(2) 0.4694(9)
H22_3 H 0.4788 0.0398 0.5094
C35_3 C 0.3061(2) 0.0391(2) 0.3411(9)
N7_3 N 0.27382(19) 0.0787(2) 0.4004(8)
C36_3 C 0.2831(2) 0.1290(3) 0.3438(10)
H23_3 H 0.3219 0.1348 0.2636
C37_3 C 0.47311(17) 0.13144(18) 0.2402(7)
C38_3 C 0.5388(2) 0.0600(2) 0.3865(9)
H25_3 H 0.5290 0.0345 0.5293
C39_3 C 0.3532(2) 0.0446(2) 0.4667(9)
C40_3 C 0.3311(2) 0.0274(2) 0.3875(9)
N8_3 N 0.2853(2) 0.0221(2) 0.2916(8)
C41_3 C 0.2678(3) 0.1081(3) 0.3933(10)
H26_3 H 0.2765 0.1482 0.3414
C42_3 C 0.45591(19) 0.13426(17) 0.3561(7)
C43_3 C 0.47005(18) 0.15295(18) 0.1536(7)
C44_3 C 0.50326(18) 0.12756(18) 0.0326(7)
H27_3 H 0.5587 0.0562 0.3872
H28_3 H 0.2505 0.1140 0.4288
O21_3 O 0.42951(13) 0.14096(12) 0.3458(5)
O22_3 O 0.46925(13) 0.13005(13) 0.4519(5)
H29_3 H 0.4578 0.1688 0.1668
C47_3 C 0.48542(17) 0.15062(17) 0.0474(7)
O23_3 O 0.43172(12) 0.06406(12) 0.4472(5)
Nd3_3 Nd 0.399821(9) 0.070913(9) 0.61228(4)
N11_3 N 0.52824(15) 0.07885(16) 0.3054(6)
O24_3 O 0.37790(15) 0.03444(16) 0.4716(6)
O25_3 O 0.34477(16) 0.06586(16) 0.5279(6)
N12_3 N 0.50698(14) 0.10671(14) 0.1150(6)
Co3_3 Co 0.54614(2) 0.08303(2) 0.12847(10)
O1_3 O 0.36485(13) 0.04861(12) 0.7530(5)
O2_3 O 0.44274(12) 0.10371(13) 0.6362(5)
O3_3 O 0.38758(12) 0.11312(12) 0.4824(5)
O4_3 O 0.38406(12) 0.10903(12) 0.7455(5)
O5_3 O 0.43259(13) 0.05316(12) 0.7836(5)
O6_3 O 0.42451(13) 0.01858(13) 0.6507(5)
H1_3 H 0.4397 0.1152 0.6945
H2_3 H 0.4579 0.0934 0.6501
H3_3 H 0.3842 0.1281 0.5255
H4_3 H 0.4019 0.1167 0.4363
C1_3 C 0.37581(17) 0.11314(17) 0.8507(7)
C2_3 C 0.43634(18) 0.02769(18) 0.7439(8)
C3_3 C 0.35700(17) 0.14007(18) 0.8699(7)
O10_3 O 0.38026(12) 0.09711(12) 0.9382(5)
C4_3 C 0.45818(18) 0.00759(18) 0.8057(8)
C5_3 C 0.3348(2) 0.1393(2) 0.9531(8)
C6_3 C 0.35958(18) 0.16512(18) 0.7990(7)
C7_3 C 0.48788(18) 0.01447(19) 0.8015(8)
C9_3 C 0.3149(2) 0.1621(2) 0.9602(9)
C10_3 C 0.38383(17) 0.17171(16) 0.7134(7)
N1_3 N 0.33871(15) 0.18614(15) 0.7998(6)
O15_3 O 0.44389(11) 0.08417(12) 0.9825(5)
O18_3 O 0.38124(13) 0.03493(13) 0.9791(5)
H6_3 H 0.4939 0.0322 0.7695
C13_3 C 0.3168(2) 0.1841(2) 0.8787(9)
C14_3 C 0.41351(17) 0.16721(17) 0.7368(7)
N3_3 N 0.37442(14) 0.18377(14) 0.6107(6)
Co1_3 Co 0.33303(2) 0.20386(2) 0.62153(10)
H10_3 H 0.4426 0.1018 0.9534
C17_3 C 0.4027(2) 0.0171(2) 0.9805(8)
H15_3 H 0.3023 0.1983 0.8777
C20_3 C 0.43291(19) 0.17522(18) 0.6502(7)
C21_3 C 0.42473(17) 0.15396(17) 0.8525(7)
C22_3 C 0.39418(18) 0.19131(18) 0.5275(7)
C27_3 C 0.42354(19) 0.18727(19) 0.5439(8)
H17_3 H 0.4528 0.1725 0.6630
O19_3 O 0.41458(13) 0.16388(13) 0.9490(5)
O20_3 O 0.44310(12) 0.13405(12) 0.8427(5)
H18_3 H 0.3877 0.1995 0.4566
H21_3 H 0.4368 0.1925 0.4850
H30_3 H 0.5136 0.1260 0.9615
H33_3 H 0.4834 0.1646 0.9880
H35_3 H 0.354428 0.0642322 0.797207
H36_3 H 0.350502 0.0366298 0.708182
C45_3 C 0.3371(3) 0.9975(3) 0.3632(10)
C46_3 C 0.2913(3) 0.9940(3) 0.2737(10)
H31_3 H 0.3544 0.9892 0.3901
C48_3 C 0.3172(3) 0.9807(3) 0.2996(10)
H32_3 H 0.2766 0.9825 0.2409
H34_3 H 0.3213 0.9616 0.2762
C8_3 C 0.45044(19) 0.98079(18) 0.8563(8)
C11_3 C 0.50838(18) 0.99496(19) 0.8448(8)
C12_3 C 0.42001(17) 0.97080(18) 0.8753(8)
N2_3 N 0.47060(15) 0.96093(16) 0.8906(7)
H14_3 H 0.5281 0.9998 0.8467
C18_3 C 0.49887(18) 0.96811(19) 0.8852(7)
C19_3 C 0.39785(19) 0.98789(19) 0.9236(8)
N4_3 N 0.41531(15) 0.94263(15) 0.8436(7)
H16_3 H 0.5127 0.9545 0.9096
C25_3 C 0.36979(18) 0.97566(19) 0.9323(9)
C26_3 C 0.38866(19) 0.9314(2) 0.8527(8)
N5_3 N 0.49302(14) 0.89329(14) 0.8850(6)
N6_3 N 0.47176(15) 0.92115(16) 0.6946(6)
C32_3 C 0.36514(19) 0.94757(19) 0.8946(9)
H19_3 H 0.3545 0.9866 0.9636
H20_3 H 0.3857 0.9120 0.8304
H24_3 H 0.3465 0.9395 0.8969
O1_4 O 0.70139(12) 0.61485(13) 0.0030(5)
O5_4 O 0.69684(12) 0.68259(13) 0.0336(5)
C1_4 C 0.63686(17) 0.62581(17) 0.1007(7)
C3_4 C 0.60993(18) 0.60700(17) 0.1199(7)
O10_4 O 0.65289(12) 0.63026(12) 0.1882(5)
C4_4 C 0.74241(18) 0.70818(18) 0.0557(8)
C5_4 C 0.6107(2) 0.5848(2) 0.2031(8)
C6_4 C 0.58488(18) 0.60958(18) 0.0490(7)
Nd2_4 Nd 0.676544(9) 0.650278(9) 0.35896(4)
C7_4 C 0.73553(19) 0.73788(18) 0.0515(8)
C8_4 C 0.76921(18) 0.70044(19) 0.1063(8)
H5_4 H 0.6266 0.5832 0.2545
C9_4 C 0.5879(2) 0.5649(2) 0.2102(9)
O11_4 O 0.67423(13) 0.68847(12) 0.5050(5)
O12_4 O 0.65908(18) 0.61931(14) 0.5272(6)
O13_4 O 0.67951(14) 0.59411(13) 0.3843(5)
O14_4 O 0.62330(12) 0.65589(13) 0.3838(5)
O15_4 O 0.66583(12) 0.69389(11) 0.2325(5)
O16_4 O 0.72022(16) 0.64226(16) 0.4925(6)
O17_4 O 0.72729(13) 0.67607(14) 0.2825(6)
O18_4 O 0.71507(13) 0.63124(13) 0.2291(5)
H6_4 H 0.7178 0.7439 0.0195
C11_4 C 0.75504(19) 0.75838(18) 0.0948(8)
C12_4 C 0.77920(18) 0.67001(17) 0.1253(8)
N2_4 N 0.78907(16) 0.72060(15) 0.1406(7)
H7_4 H 0.5876 0.5506 0.2691
C13_4 C 0.5659(2) 0.5668(2) 0.1287(9)
C15_4 C 0.67976(17) 0.69744(17) 0.6083(7)
C16_4 C 0.66647(18) 0.59523(18) 0.4806(7)
H8_4 H 0.6192 0.6686 0.4405
H9_4 H 0.6152 0.6622 0.3173
H10_4 H 0.6482 0.6926 0.2034
H11_4 H 0.6670 0.7098 0.2748
H12_4 H 0.7303 0.6265 0.4698
H13_4 H 0.7323 0.6575 0.4898
C17_4 C 0.7329(2) 0.6527(2) 0.2305(8)
H14_4 H 0.7502 0.7781 0.0967
C18_4 C 0.78189(19) 0.74887(18) 0.1352(7)
C19_4 C 0.76211(19) 0.64785(19) 0.1736(8)
N4_4 N 0.80737(15) 0.66531(15) 0.0936(7)
H15_4 H 0.5517 0.5523 0.1277
C21_4 C 0.59604(17) 0.67473(17) 0.1025(7)
C23_4 C 0.68095(18) 0.72998(17) 0.6259(7)
C24_4 C 0.65861(18) 0.56763(18) 0.5448(7)
H16_4 H 0.7955 0.7627 0.1596
C25_4 C 0.77434(19) 0.61979(18) 0.1823(9)
C26_4 C 0.8186(2) 0.63866(19) 0.1027(8)
N5_4 N 0.85671(14) 0.74302(14) 0.1350(6)
O19_4 O 0.58612(13) 0.66458(13) 0.1990(5)
O20_4 O 0.61595(12) 0.69310(12) 0.0927(5)
C28_4 C 0.66547(19) 0.74927(18) 0.5545(7)
C29_4 C 0.7000(2) 0.7413(2) 0.7094(8)
C30_4 C 0.6794(2) 0.5495(2) 0.5968(9)
C31_4 C 0.6292(2) 0.5595(2) 0.5456(9)
C32_4 C 0.80243(19) 0.61514(19) 0.1446(9)
H19_4 H 0.7634 0.6045 0.2136
H20_4 H 0.8380 0.6357 0.0804
C33_4 C 0.64155(17) 0.74167(16) 0.4679(7)
C34_4 C 0.7039(2) 0.7711(2) 0.7194(9)
H22_4 H 0.7102 0.7288 0.7594
C35_4 C 0.7109(2) 0.5561(2) 0.5911(9)
N7_4 N 0.6713(2) 0.52382(19) 0.6504(8)
C36_4 C 0.6210(3) 0.5331(2) 0.5938(10)
H23_4 H 0.6152 0.5719 0.5136
H24_4 H 0.8105 0.5965 0.1469
C37_4 C 0.61856(18) 0.72311(17) 0.4902(7)
C38_4 C 0.6900(2) 0.7888(2) 0.6365(9)
H25_4 H 0.7155 0.7790 0.7793
C39_4 C 0.7054(2) 0.6032(2) 0.7167(9)
C40_4 C 0.7226(2) 0.5811(2) 0.6375(9)
N8_4 N 0.7279(2) 0.5353(2) 0.5416(8)
C41_4 C 0.6419(3) 0.5178(3) 0.6433(10)
H26_4 H 0.6018 0.5265 0.5914
C42_4 C 0.61574(17) 0.70591(19) 0.6061(7)
C43_4 C 0.59705(18) 0.72005(18) 0.4036(7)
C44_4 C 0.62244(18) 0.75326(18) 0.2826(7)
H27_4 H 0.6938 0.8087 0.6372
C45_4 C 0.7525(3) 0.5871(3) 0.6132(10)
C46_4 C 0.7560(3) 0.5413(3) 0.5237(10)
H28_4 H 0.6360 0.5005 0.6788
O21_4 O 0.60904(12) 0.67951(13) 0.5958(5)
O22_4 O 0.61995(13) 0.71925(13) 0.7019(5)
H29_4 H 0.5812 0.7078 0.4168
C47_4 C 0.59938(17) 0.73542(17) 0.2974(7)
H30_4 H 0.6240 0.7636 0.2115
H31_4 H 0.7608 0.6044 0.6401
C48_4 C 0.7693(3) 0.5672(3) 0.5496(10)
H32_4 H 0.7675 0.5266 0.4909
H33_4 H 0.5854 0.7334 0.2380
H34_4 H 0.7884 0.5713 0.5262
Co2_3 Co 0.83303(2) 0.70386(2) 0.12153(10)
O23_4 O 0.68594(12) 0.68172(12) 0.6972(5)
N9_3 N 0.83871(15) 0.68614(15) 0.2998(6)
N10_3 N 0.87442(14) 0.68377(14) 0.1107(6)
Nd3_4 Nd 0.679087(9) 0.649821(9) 0.86228(4)
N11_4 N 0.67115(16) 0.77824(15) 0.5554(6)
O24_4 O 0.71556(16) 0.62790(15) 0.7216(6)
O25_4 O 0.68414(16) 0.59477(16) 0.7779(6)
N12_4 N 0.64329(14) 0.75698(14) 0.3650(6)
Co3_4 Co 0.66697(2) 0.79614(2) 0.37847(10)
H35_4 H 0.685768 0.604428 0.0472074
O2_4 O 0.64629(13) 0.69274(12) 0.8862(5)
O3_4 O 0.63688(12) 0.63758(12) 0.7324(5)
O4_4 O 0.64097(12) 0.63406(12) 0.9955(5)
O6_4 O 0.73142(13) 0.67451(13) 0.9007(5)
H1_4 H 0.6348 0.6897 0.9445
H2_4 H 0.6566 0.7079 0.9001
H3_4 H 0.6219 0.6342 0.7755
H4_4 H 0.6333 0.6519 0.6863
C2_4 C 0.72231(18) 0.68634(18) 0.9939(8)
C10_4 C 0.57829(16) 0.63383(17) 0.9634(7)
C14_4 C 0.58279(17) 0.66351(17) 0.9868(7)
C20_4 C 0.57478(18) 0.68291(19) 0.9002(7)
C22_4 C 0.55869(18) 0.64418(18) 0.7775(7)
N6_4 N 0.82885(16) 0.72176(15) 0.9446(6)
C27_4 C 0.56273(19) 0.67354(19) 0.7939(8)
H17_4 H 0.5775 0.7028 0.9130
H18_4 H 0.5505 0.6377 0.7066
H21_4 H 0.5575 0.6868 0.7350
H36_4 H 0.71337 0.600502 0.958182
C8_5 C 0.04956(19) 0.01921(18) 0.3563(8)
C12_5 C 0.07999(17) 0.02920(18) 0.3753(8)
N2_5 N 0.02940(15) 0.03907(16) 0.3906(7)
C18_5 C 0.00113(18) 0.03189(19) 0.3852(7)
C19_5 C 0.10215(19) 0.01211(19) 0.4236(8)
N4_5 N 0.08469(15) 0.05737(15) 0.3436(7)
C25_5 C 0.13021(18) 0.02434(19) 0.4323(9)
C26_5 C 0.11134(19) 0.0686(2) 0.3527(8)
N5_5 N 0.00698(14) 0.10671(14) 0.3850(6)
N6_5 N 0.02824(15) 0.07885(16) 0.1946(6)
C32_5 C 0.13486(19) 0.05243(19) 0.3946(9)
H19_5 H 0.1455 0.0134 0.4636
H20_5 H 0.1143 0.0880 0.3304
H24_5 H 0.1535 0.0605 0.3969
C45_5 C 0.1629(3) 0.0025(3) 0.8632(10)
C46_5 C 0.2087(3) 0.0060(3) 0.7737(10)
H31_5 H 0.1456 0.0108 0.8901
C48_5 C 0.1828(3) 0.0193(3) 0.7996(10)
H32_5 H 0.2234 0.0175 0.7409
H34_5 H 0.1787 0.0384 0.7762
Co2_4 Co 0.04614(2) 0.08303(2) 0.37153(10)
N9_4 N 0.06386(15) 0.08871(15) 0.5498(6)
N10_4 N 0.06623(14) 0.12442(14) 0.3607(6)
H22_5 H 0.0212 0.9602 0.0094
Nd3_5 Nd 0.100179(9) 0.929087(9) 0.11228(4)
O25_5 O 0.15523(16) 0.93414(16) 0.0279(6)
O1_5 O 0.13515(13) 0.95139(12) 0.2530(5)
O2_5 O 0.05726(12) 0.89629(13) 0.1362(5)
O4_5 O 0.11594(12) 0.89097(12) 0.2455(5)
O5_5 O 0.06741(13) 0.94684(12) 0.2836(5)
O6_5 O 0.07549(13) 0.98142(13) 0.1507(5)
H1_5 H 0.0603 0.8848 0.1945
H2_5 H 0.0421 0.9066 0.1501
H3_5 H 0.1158 0.8719 0.0255
C1_5 C 0.12419(17) 0.88686(17) 0.3507(7)
C2_5 C 0.06366(18) 0.97231(18) 0.2439(8)
C3_5 C 0.14300(17) 0.85993(18) 0.3699(7)
O10_5 O 0.11974(12) 0.90289(12) 0.4382(5)
C4_5 C 0.04182(18) 0.99241(18) 0.3057(8)
C5_5 C 0.1652(2) 0.8607(2) 0.4531(8)
C6_5 C 0.14042(18) 0.83488(18) 0.2990(7)
Nd2_5 Nd 0.099722(9) 0.926544(9) 0.60896(4)
C7_5 C 0.01212(18) 0.98553(19) 0.3015(8)
H5_5 H 0.1668 0.8766 0.5045
C9_5 C 0.1851(2) 0.8379(2) 0.4602(9)
C10_5 C 0.11617(17) 0.82829(16) 0.2134(7)
O11_5 O 0.06153(12) 0.92423(13) 0.7550(5)
O12_5 O 0.13069(14) 0.90908(18) 0.7772(6)
O13_5 O 0.15589(13) 0.92951(14) 0.6343(5)
O14_5 O 0.09411(13) 0.87330(12) 0.6338(5)
O15_5 O 0.05611(11) 0.91583(12) 0.4825(5)
O16_5 O 0.10774(16) 0.97022(16) 0.7425(6)
O17_5 O 0.07393(14) 0.97729(13) 0.5325(6)
O18_5 O 0.11876(13) 0.96507(13) 0.4791(5)
H6_5 H 0.0061 0.9678 0.2695
H7_5 H 0.1994 0.8376 0.5191
C13_5 C 0.1832(2) 0.8159(2) 0.3787(9)
C14_5 C 0.08649(17) 0.83279(17) 0.2368(7)
C15_5 C 0.05256(17) 0.92976(17) 0.8583(7)
C16_5 C 0.15477(18) 0.91647(18) 0.7306(7)
H8_5 H 0.0814 0.8692 0.6905
H9_5 H 0.0878 0.8652 0.5673
H10_5 H 0.0574 0.8982 0.4534
H11_5 H 0.0402 0.9170 0.5248
H12_5 H 0.1235 0.9803 0.7198
H13_5 H 0.0925 0.9823 0.7398
C17_5 C 0.0973(2) 0.9829(2) 0.4805(8)
H15_5 H 0.1977 0.8017 0.3777
C20_5 C 0.06709(19) 0.82478(18) 0.1502(7)
C21_5 C 0.07527(17) 0.84604(17) 0.3525(7)
C22_5 C 0.10582(18) 0.80869(18) 0.0275(7)
C23_5 C 0.02002(17) 0.93095(18) 0.8759(7)
C24_5 C 0.18237(18) 0.90861(18) 0.7948(7)
C27_5 C 0.07646(19) 0.81273(19) 0.0439(8)
H17_5 H 0.0472 0.8275 0.1630
O19_5 O 0.08542(13) 0.83612(13) 0.4490(5)
O20_5 O 0.05690(12) 0.86595(12) 0.3427(5)
C28_5 C 0.00073(18) 0.91547(19) 0.8045(7)
C29_5 C 0.0087(2) 0.9500(2) 0.9594(8)
C30_5 C 0.2005(2) 0.9294(2) 0.8468(9)
C31_5 C 0.1905(2) 0.8792(2) 0.7956(9)
C33_5 C 0.00833(16) 0.89155(17) 0.7179(7)
C35_5 C 0.1939(2) 0.9609(2) 0.8411(9)
N7_5 N 0.22618(19) 0.9213(2) 0.9004(8)
C36_5 C 0.2169(2) 0.8710(3) 0.8438(10)
H23_5 H 0.1781 0.8652 0.7636
C37_5 C 0.02689(17) 0.86856(18) 0.7402(7)
C39_5 C 0.1468(2) 0.9554(2) 0.9667(9)
C40_5 C 0.1689(2) 0.9726(2) 0.8875(9)
N8_5 N 0.2147(2) 0.9779(2) 0.7916(8)
C41_5 C 0.2322(3) 0.8919(3) 0.8933(10)
H26_5 H 0.2235 0.8518 0.8414
C42_5 C 0.04409(19) 0.86574(17) 0.8561(7)
C43_5 C 0.02995(18) 0.84705(18) 0.6536(7)
H28_5 H 0.2495 0.8860 0.9288
O21_5 O 0.07049(13) 0.85904(12) 0.8458(5)
O22_5 O 0.03075(13) 0.86995(13) 0.9519(5)
H29_5 H 0.0422 0.8312 0.6668
C47_5 C 0.01458(17) 0.84938(17) 0.5474(7)
H33_5 H 0.0166 0.8354 0.4880
O23_5 O 0.06828(12) 0.93594(12) 0.9472(5)
O24_5 O 0.12210(15) 0.96556(16) 0.9716(6)
H35_5 H 0.145572 0.935768 0.297207
H36_5 H 0.149498 0.96337 0.208182
O3_5 O 0.11242(12) 0.88688(12) 0.9824(5)
H4_5 H 0.0981 0.8833 0.9363
H18_5 H 0.1123 0.8005 0.9566
H21_5 H 0.0632 0.8075 0.9850
C34_5 C 0.9789(2) 0.9539(2) 0.9694(9)
C38_5 C 0.9612(2) 0.9400(2) 0.8865(9)
C44_5 C 0.99674(18) 0.87244(18) 0.5326(7)
H27_5 H 0.9413 0.9438 0.8872
H30_5 H 0.9864 0.8740 0.4615
N11_5 N 0.97176(15) 0.92115(16) 0.8054(6)
N12_5 N 0.99302(14) 0.89329(14) 0.6150(6)
Co3_5 Co 0.95386(2) 0.91697(2) 0.62847(10)
O11_6 O 0.82577(13) 0.31153(12) 0.0050(5)
O12_6 O 0.84092(18) 0.38069(14) 0.0272(6)
C15_6 C 0.82024(17) 0.30256(17) 0.1083(7)
C23_6 C 0.81905(18) 0.27002(17) 0.1259(7)
C24_6 C 0.84139(18) 0.43237(18) 0.0448(7)
C28_6 C 0.83453(19) 0.25073(18) 0.0545(7)
C29_6 C 0.8000(2) 0.2587(2) 0.2094(8)
C30_6 C 0.8206(2) 0.4505(2) 0.0968(9)
C31_6 C 0.8708(2) 0.4405(2) 0.0456(9)
C34_6 C 0.7961(2) 0.2289(2) 0.2194(9)
H22_6 H 0.7898 0.2712 0.2594
C35_6 C 0.7891(2) 0.4439(2) 0.0911(9)
N7_6 N 0.8287(2) 0.47618(19) 0.1504(8)
C36_6 C 0.8790(3) 0.4669(2) 0.0938(10)
H23_6 H 0.8848 0.4281 0.0136
C38_6 C 0.8100(2) 0.2112(2) 0.1365(9)
H25_5 H 0.7845 0.2210 0.2793
C39_6 C 0.7946(2) 0.3968(2) 0.2167(9)
C40_6 C 0.7774(2) 0.4189(2) 0.1375(9)
N8_6 N 0.7721(2) 0.4647(2) 0.0416(8)
C41_6 C 0.8581(3) 0.4822(3) 0.1433(10)
H26_6 H 0.8982 0.4735 0.0914
C42_6 C 0.88426(17) 0.29409(19) 0.1061(7)
H27_6 H 0.8062 0.1913 0.1372
C45_6 C 0.7475(3) 0.4129(3) 0.1132(10)
C46_6 C 0.7440(3) 0.4587(3) 0.0237(10)
H28_6 H 0.8640 0.4995 0.1788
O21_6 O 0.89096(12) 0.32049(13) 0.0958(5)
O22_6 O 0.88005(13) 0.28075(13) 0.2019(5)
H31_6 H 0.7392 0.3956 0.1401
C48_6 C 0.7307(3) 0.4328(3) 0.0496(10)
H34_6 H 0.7116 0.4287 0.0262
O23_6 O 0.81406(12) 0.31828(12) 0.1972(5)
Nd3_6 Nd 0.820913(9) 0.350179(9) 0.36228(4)
N11_6 N 0.82885(16) 0.22176(15) 0.0554(6)
O24_6 O 0.78444(16) 0.37210(15) 0.2216(6)
O25_6 O 0.81586(16) 0.40523(16) 0.2779(6)
O1_6 O 0.79861(12) 0.38515(13) 0.5030(5)
O2_6 O 0.85371(13) 0.30726(12) 0.3862(5)
O3_6 O 0.86312(12) 0.36242(12) 0.2324(5)
O4_6 O 0.85903(12) 0.36594(12) 0.4955(5)
O5_6 O 0.80316(12) 0.31741(13) 0.5336(5)
O6_6 O 0.76858(13) 0.32549(13) 0.4007(5)
H1_6 H 0.8652 0.3103 0.4445
H2_6 H 0.8434 0.2921 0.4001
H3_6 H 0.8781 0.3658 0.2755
H4_6 H 0.8667 0.3481 0.1863
C1_6 C 0.86314(17) 0.37419(17) 0.6007(7)
C2_6 C 0.77769(18) 0.31366(18) 0.4939(8)
C3_6 C 0.89007(18) 0.39300(17) 0.6199(7)
O10_6 O 0.84711(12) 0.36974(12) 0.6882(5)
C4_6 C 0.75759(18) 0.29182(18) 0.5557(8)
C5_6 C 0.8893(2) 0.4152(2) 0.7031(8)
C6_6 C 0.91512(18) 0.39042(18) 0.5490(7)
Nd2_6 Nd 0.823456(9) 0.349722(9) 0.85896(4)
C7_6 C 0.76447(19) 0.26212(18) 0.5515(8)
C8_6 C 0.73079(18) 0.29956(19) 0.6063(8)
H5_6 H 0.8734 0.4168 0.7545
C9_6 C 0.9121(2) 0.4351(2) 0.7102(9)
C10_6 C 0.92171(16) 0.36617(17) 0.4634(7)
N1_4 N 0.93614(15) 0.41129(15) 0.5498(6)
O13_6 O 0.82049(14) 0.40589(13) 0.8843(5)
O14_6 O 0.87670(12) 0.34411(13) 0.8838(5)
O15_6 O 0.83417(12) 0.30611(11) 0.7325(5)
O16_6 O 0.77978(16) 0.35774(16) 0.9925(6)
O17_6 O 0.77271(13) 0.32393(14) 0.7825(6)
O18_6 O 0.78493(13) 0.36876(13) 0.7291(5)
H6_6 H 0.7822 0.2561 0.5195
C11_5 C 0.74496(19) 0.24162(18) 0.5948(8)
C12_6 C 0.72080(18) 0.32999(17) 0.6253(8)
N2_6 N 0.71093(16) 0.27940(15) 0.6406(7)
H7_6 H 0.9124 0.4494 0.7691
C13_6 C 0.9341(2) 0.4332(2) 0.6287(9)
C14_6 C 0.91721(17) 0.33649(17) 0.4868(7)
N3_4 N 0.93377(14) 0.37558(14) 0.3607(6)
Co1_4 Co 0.95386(2) 0.41697(2) 0.37153(10)
C16_6 C 0.83353(18) 0.40477(18) 0.9806(7)
H8_6 H 0.8808 0.3314 0.9405
H9_6 H 0.8848 0.3378 0.8173
H10_6 H 0.8518 0.3074 0.7034
H11_6 H 0.8330 0.2902 0.7748
H12_6 H 0.7697 0.3735 0.9698
H13_6 H 0.7677 0.3425 0.9898
C17_6 C 0.7671(2) 0.3473(2) 0.7305(8)
H14_5 H 0.7498 0.2219 0.5967
C18_6 C 0.71811(19) 0.25113(18) 0.6352(7)
C19_6 C 0.73789(19) 0.35215(19) 0.6736(8)
N4_6 N 0.69263(15) 0.33469(15) 0.5936(7)
H15_6 H 0.9483 0.4477 0.6277
C20_6 C 0.92522(18) 0.31709(19) 0.4002(7)
C21_6 C 0.90396(17) 0.32527(17) 0.6025(7)
C22_6 C 0.94131(18) 0.35582(18) 0.2775(7)
H16_5 H 0.7045 0.2373 0.6596
C25_6 C 0.72566(19) 0.38021(18) 0.6823(9)
C26_6 C 0.6814(2) 0.36134(19) 0.6027(8)
N5_6 N 0.64329(14) 0.25698(14) 0.6350(6)
N6_6 N 0.67115(16) 0.27824(15) 0.4446(6)
C27_6 C 0.93727(19) 0.32646(19) 0.2939(8)
H17_6 H 0.9225 0.2972 0.4130
O19_6 O 0.91388(13) 0.33542(13) 0.6990(5)
O20_6 O 0.88405(12) 0.30690(12) 0.5927(5)
H18_6 H 0.9495 0.3623 0.2066
C32_6 C 0.69757(19) 0.38486(19) 0.6446(9)
H19_6 H 0.7366 0.3955 0.7136
H20_6 H 0.6620 0.3643 0.5804
H21_6 H 0.9425 0.3132 0.2350
C33_6 C 0.85845(17) 0.25833(16) 0.9679(7)
H24_6 H 0.6895 0.4035 0.6469
C37_6 C 0.88144(18) 0.27689(17) 0.9902(7)
C43_6 C 0.90295(18) 0.27995(18) 0.9036(7)
C44_6 C 0.87756(18) 0.24674(18) 0.7826(7)
H29_6 H 0.9188 0.2922 0.9168
C47_6 C 0.90062(17) 0.26458(17) 0.7974(7)
H30_6 H 0.8760 0.2364 0.7115
H32_6 H 0.7325 0.4734 0.9909
H33_6 H 0.9146 0.2666 0.7380
N12_6 N 0.85671(14) 0.24302(14) 0.8650(6)
Co3_6 Co 0.83303(2) 0.20386(2) 0.87847(10)
H35_6 H 0.814232 0.395572 0.547207
H36_6 H 0.78663 0.399498 0.458182
C11_6 C 0.00838(18) 0.49496(19) 0.3448(8)
H14_6 H 0.0281 0.4998 0.3467
H16_6 H 0.0127 0.4545 0.4096
C34_7 C 0.0211(2) 0.5461(2) 0.9694(9)
C38_7 C 0.0388(2) 0.5600(2) 0.8865(9)
C44_7 C 0.00326(18) 0.62756(18) 0.5326(7)
H27_7 H 0.0587 0.5562 0.8872
H30_7 H 0.0136 0.6260 0.4615
N11_7 N 0.02824(15) 0.57885(16) 0.8054(6)
N12_7 N 0.00698(14) 0.60671(14) 0.6150(6)
Co3_7 Co 0.04614(2) 0.58303(2) 0.62847(10)
H22_7 H 0.9788 0.5398 0.0094
Nd3_7 Nd 0.899821(9) 0.570913(9) 0.11228(4)
O25_7 O 0.84477(16) 0.56586(16) 0.0279(6)
O1_7 O 0.86485(13) 0.54861(12) 0.2530(5)
O2_7 O 0.94274(12) 0.60371(13) 0.1362(5)
O4_7 O 0.88406(12) 0.60903(12) 0.2455(5)
O5_7 O 0.93259(13) 0.55316(12) 0.2836(5)
O6_7 O 0.92451(13) 0.51858(13) 0.1507(5)
H1_7 H 0.9397 0.6152 0.1945
H2_7 H 0.9579 0.5934 0.1501
H3_7 H 0.8842 0.6281 0.0255
C1_7 C 0.87581(17) 0.61314(17) 0.3507(7)
C2_7 C 0.93634(18) 0.52769(18) 0.2439(8)
C3_7 C 0.85700(17) 0.64007(18) 0.3699(7)
O10_7 O 0.88026(12) 0.59711(12) 0.4382(5)
C4_7 C 0.95818(18) 0.50759(18) 0.3057(8)
C5_7 C 0.8348(2) 0.6393(2) 0.4531(8)
C6_7 C 0.85958(18) 0.66512(18) 0.2990(7)
Nd2_7 Nd 0.900278(9) 0.573456(9) 0.60896(4)
C7_7 C 0.98788(18) 0.51447(19) 0.3015(8)
C8_7 C 0.95044(19) 0.48079(18) 0.3563(8)
H5_7 H 0.8332 0.6234 0.5045
C9_7 C 0.8149(2) 0.6621(2) 0.4602(9)
C10_7 C 0.88383(17) 0.67171(16) 0.2134(7)
O11_7 O 0.93847(12) 0.57577(13) 0.7550(5)
O12_7 O 0.86931(14) 0.59092(18) 0.7772(6)
O13_7 O 0.84411(13) 0.57049(14) 0.6343(5)
O14_7 O 0.90589(13) 0.62670(12) 0.6338(5)
O15_7 O 0.94389(11) 0.58417(12) 0.4825(5)
O16_7 O 0.89226(16) 0.52978(16) 0.7425(6)
O17_7 O 0.92607(14) 0.52271(13) 0.5325(6)
O18_7 O 0.88124(13) 0.53493(13) 0.4791(5)
H6_7 H 0.9939 0.5322 0.2695
C12_7 C 0.92001(17) 0.47080(18) 0.3753(8)
N2_7 N 0.97060(15) 0.46093(16) 0.3906(7)
H7_7 H 0.8006 0.6624 0.5191
C13_7 C 0.8168(2) 0.6841(2) 0.3787(9)
C14_7 C 0.91351(17) 0.66721(17) 0.2368(7)
C15_7 C 0.94744(17) 0.57024(17) 0.8583(7)
C16_7 C 0.84523(18) 0.58353(18) 0.7306(7)
H8_7 H 0.9186 0.6308 0.6905
H9_7 H 0.9122 0.6348 0.5673
H10_7 H 0.9426 0.6018 0.4534
H11_7 H 0.9598 0.5830 0.5248
H12_7 H 0.8765 0.5197 0.7198
H13_7 H 0.9075 0.5177 0.7398
C17_7 C 0.9027(2) 0.5171(2) 0.4805(8)
C18_7 C 0.99887(18) 0.46811(19) 0.3852(7)
C19_7 C 0.89785(19) 0.48789(19) 0.4236(8)
N4_7 N 0.91531(15) 0.44263(15) 0.3436(7)
H15_7 H 0.8023 0.6983 0.3777
C20_7 C 0.93291(19) 0.67522(18) 0.1502(7)
C21_7 C 0.92473(17) 0.65396(17) 0.3525(7)
C22_7 C 0.89418(18) 0.69131(18) 0.0275(7)
C23_7 C 0.97998(17) 0.56905(18) 0.8759(7)
C24_7 C 0.81763(18) 0.59139(18) 0.7948(7)
C25_7 C 0.86979(18) 0.47566(19) 0.4323(9)
C26_7 C 0.88866(19) 0.4314(2) 0.3527(8)
N5_7 N 0.99302(14) 0.39329(14) 0.3850(6)
N6_7 N 0.97176(15) 0.42115(16) 0.1946(6)
C27_7 C 0.92354(19) 0.68727(19) 0.0439(8)
H17_7 H 0.9528 0.6725 0.1630
O19_7 O 0.91458(13) 0.66388(13) 0.4490(5)
O20_7 O 0.94310(12) 0.63405(12) 0.3427(5)
C28_7 C 0.99927(18) 0.58453(19) 0.8045(7)
C29_7 C 0.9913(2) 0.5500(2) 0.9594(8)
C30_7 C 0.7995(2) 0.5706(2) 0.8468(9)
C31_7 C 0.8095(2) 0.6208(2) 0.7956(9)
C32_7 C 0.86514(19) 0.44757(19) 0.3946(9)
H19_7 H 0.8545 0.4866 0.4636
H20_7 H 0.8857 0.4120 0.3304
C33_7 C 0.99167(16) 0.60845(17) 0.7179(7)
C35_7 C 0.8061(2) 0.5391(2) 0.8411(9)
N7_7 N 0.77382(19) 0.5787(2) 0.9004(8)
C36_7 C 0.7831(2) 0.6290(3) 0.8438(10)
H23_7 H 0.8219 0.6348 0.7636
H24_7 H 0.8465 0.4395 0.3969
C37_7 C 0.97311(17) 0.63144(18) 0.7402(7)
C39_7 C 0.8532(2) 0.5446(2) 0.9667(9)
C40_7 C 0.8311(2) 0.5274(2) 0.8875(9)
N8_7 N 0.7853(2) 0.5221(2) 0.7916(8)
C41_7 C 0.7678(3) 0.6081(3) 0.8933(10)
H26_7 H 0.7765 0.6482 0.8414
C42_7 C 0.95591(19) 0.63426(17) 0.8561(7)
C43_7 C 0.97005(18) 0.65295(18) 0.6536(7)
C45_7 C 0.8371(3) 0.4975(3) 0.8632(10)
C46_7 C 0.7913(3) 0.4940(3) 0.7737(10)
H28_7 H 0.7505 0.6140 0.9288
O21_7 O 0.92951(13) 0.64096(12) 0.8458(5)
O22_7 O 0.96925(13) 0.63005(13) 0.9519(5)
H29_7 H 0.9578 0.6688 0.6668
C47_7 C 0.98542(17) 0.65062(17) 0.5474(7)
H31_7 H 0.8544 0.4892 0.8901
C48_7 C 0.8172(3) 0.4807(3) 0.7996(10)
H32_7 H 0.7766 0.4825 0.7409
H33_7 H 0.9834 0.6646 0.4880
H34_7 H 0.8213 0.4616 0.7762
O23_7 O 0.93172(12) 0.56406(12) 0.9472(5)
O24_7 O 0.87790(15) 0.53444(16) 0.9716(6)
H35_7 H 0.854428 0.564232 0.297207
H36_7 H 0.850502 0.53663 0.208182
O3_7 O 0.88758(12) 0.61312(12) 0.9824(5)
H4_7 H 0.9019 0.6167 0.9363
H18_7 H 0.8877 0.6995 0.9566
H21_7 H 0.9368 0.6925 0.9850
O11_8 O 0.17423(13) 0.18847(12) 0.0050(5)
O12_8 O 0.15908(18) 0.11931(14) 0.0272(6)
C15_8 C 0.17976(17) 0.19744(17) 0.1083(7)
C23_8 C 0.18095(18) 0.22998(17) 0.1259(7)
C24_8 C 0.15861(18) 0.06763(18) 0.0448(7)
C28_8 C 0.16547(19) 0.24927(18) 0.0545(7)
C29_8 C 0.2000(2) 0.2413(2) 0.2094(8)
C30_8 C 0.1794(2) 0.0495(2) 0.0968(9)
C31_8 C 0.1292(2) 0.0595(2) 0.0456(9)
C34_8 C 0.2039(2) 0.2711(2) 0.2194(9)
H22_8 H 0.2102 0.2288 0.2594
C35_8 C 0.2109(2) 0.0561(2) 0.0911(9)
N7_8 N 0.1713(2) 0.02382(19) 0.1504(8)
C36_8 C 0.1210(3) 0.0331(2) 0.0938(10)
H23_8 H 0.1152 0.0719 0.0136
C38_8 C 0.1900(2) 0.2888(2) 0.1365(9)
H25_6 H 0.2155 0.2790 0.2793
C39_8 C 0.2054(2) 0.1032(2) 0.2167(9)
C40_8 C 0.2226(2) 0.0811(2) 0.1375(9)
N8_8 N 0.2279(2) 0.0353(2) 0.0416(8)
C41_8 C 0.1419(3) 0.0178(3) 0.1433(10)
H26_8 H 0.1018 0.0265 0.0914
C42_8 C 0.11574(17) 0.20591(19) 0.1061(7)
H27_8 H 0.1938 0.3087 0.1372
C45_8 C 0.2525(3) 0.0871(3) 0.1132(10)
C46_8 C 0.2560(3) 0.0413(3) 0.0237(10)
H28_8 H 0.1360 0.0005 0.1788
O21_8 O 0.10904(12) 0.17951(13) 0.0958(5)
O22_8 O 0.11995(13) 0.21925(13) 0.2019(5)
H31_8 H 0.2608 0.1044 0.1401
C48_8 C 0.2693(3) 0.0672(3) 0.0496(10)
H34_8 H 0.2884 0.0713 0.0262
O23_8 O 0.18594(12) 0.18172(12) 0.1972(5)
Nd3_8 Nd 0.179087(9) 0.149821(9) 0.36228(4)
N11_8 N 0.17115(16) 0.27824(15) 0.0554(6)
O24_8 O 0.21556(16) 0.12790(15) 0.2216(6)
O25_8 O 0.18414(16) 0.09477(16) 0.2779(6)
O1_8 O 0.20139(12) 0.11485(13) 0.5030(5)
O2_8 O 0.14629(13) 0.19274(12) 0.3862(5)
O3_8 O 0.13688(12) 0.13758(12) 0.2324(5)
O4_8 O 0.14097(12) 0.13406(12) 0.4955(5)
O5_8 O 0.19684(12) 0.18259(13) 0.5336(5)
O6_8 O 0.23142(13) 0.17451(13) 0.4007(5)
H1_8 H 0.1348 0.1897 0.4445
H2_8 H 0.1566 0.2079 0.4001
H3_8 H 0.1219 0.1342 0.2755
H4_8 H 0.1333 0.1519 0.1863
C1_8 C 0.13686(17) 0.12581(17) 0.6007(7)
C2_8 C 0.22231(18) 0.18634(18) 0.4939(8)
C3_8 C 0.10993(18) 0.10700(17) 0.6199(7)
O10_8 O 0.15289(12) 0.13026(12) 0.6882(5)
C4_8 C 0.24241(18) 0.20818(18) 0.5557(8)
C5_8 C 0.1107(2) 0.0848(2) 0.7031(8)
C6_8 C 0.08488(18) 0.10958(18) 0.5490(7)
Nd2_8 Nd 0.176544(9) 0.150278(9) 0.85896(4)
C7_8 C 0.23553(19) 0.23788(18) 0.5515(8)
C8_8 C 0.26921(18) 0.20044(19) 0.6063(8)
H5_8 H 0.1266 0.0832 0.7545
C9_8 C 0.0879(2) 0.0649(2) 0.7102(9)
C10_8 C 0.07829(16) 0.13383(17) 0.4634(7)
O13_8 O 0.17951(14) 0.09411(13) 0.8843(5)
O14_8 O 0.12330(12) 0.15589(13) 0.8838(5)
O15_8 O 0.16583(12) 0.19389(11) 0.7325(5)
O16_8 O 0.22022(16) 0.14226(16) 0.9925(6)
O17_8 O 0.22729(13) 0.17607(14) 0.7825(6)
O18_8 O 0.21507(13) 0.13124(13) 0.7291(5)
H6_8 H 0.2178 0.2439 0.5195
C11_7 C 0.25504(19) 0.25838(18) 0.5948(8)
C12_8 C 0.27920(18) 0.17001(17) 0.6253(8)
N2_8 N 0.28907(16) 0.22060(15) 0.6406(7)
H7_8 H 0.0876 0.0506 0.7691
C13_8 C 0.0659(2) 0.0668(2) 0.6287(9)
C14_8 C 0.08279(17) 0.16351(17) 0.4868(7)
C16_8 C 0.16647(18) 0.09523(18) 0.9806(7)
H8_8 H 0.1192 0.1686 0.9405
H9_8 H 0.1152 0.1622 0.8173
H10_8 H 0.1482 0.1926 0.7034
H11_8 H 0.1670 0.2098 0.7748
H12_8 H 0.2303 0.1265 0.9698
H13_8 H 0.2323 0.1575 0.9898
C17_8 C 0.2329(2) 0.1527(2) 0.7305(8)
H14_7 H 0.2502 0.2781 0.5967
C18_8 C 0.28189(19) 0.24887(18) 0.6352(7)
C19_8 C 0.26211(19) 0.14785(19) 0.6736(8)
N4_8 N 0.30737(15) 0.16531(15) 0.5936(7)
H15_8 H 0.0517 0.0523 0.6277
C20_8 C 0.07478(18) 0.18291(19) 0.4002(7)
C21_8 C 0.09604(17) 0.17473(17) 0.6025(7)
C22_8 C 0.05869(18) 0.14418(18) 0.2775(7)
H16_7 H 0.2955 0.2627 0.6596
C25_8 C 0.27434(19) 0.11979(18) 0.6823(9)
C26_8 C 0.3186(2) 0.13866(19) 0.6027(8)
N5_8 N 0.35671(14) 0.24302(14) 0.6350(6)
N6_8 N 0.32885(16) 0.22176(15) 0.4446(6)
C27_8 C 0.06273(19) 0.17354(19) 0.2939(8)
H17_8 H 0.0775 0.2028 0.4130
O19_8 O 0.08612(13) 0.16458(13) 0.6990(5)
O20_8 O 0.11595(12) 0.19310(12) 0.5927(5)
H18_8 H 0.0505 0.1377 0.2066
C32_8 C 0.30243(19) 0.11514(19) 0.6446(9)
H19_8 H 0.2634 0.1045 0.7136
H20_8 H 0.3380 0.1357 0.5804
H21_8 H 0.0575 0.1868 0.2350
C33_8 C 0.14155(17) 0.24167(16) 0.9679(7)
H24_8 H 0.3105 0.0965 0.6469
C37_8 C 0.11856(18) 0.22311(17) 0.9902(7)
C43_8 C 0.09705(18) 0.22005(18) 0.9036(7)
C44_8 C 0.12244(18) 0.25326(18) 0.7826(7)
H29_8 H 0.0812 0.2078 0.9168
C47_8 C 0.09938(17) 0.23542(17) 0.7974(7)
H30_8 H 0.1240 0.2636 0.7115
H32_8 H 0.2675 0.0266 0.9909
H33_8 H 0.0854 0.2334 0.7380
N12_8 N 0.14329(14) 0.25698(14) 0.8650(6)
Co3_8 Co 0.16697(2) 0.29614(2) 0.87847(10)
H35_8 H 0.185768 0.104428 0.547207
H36_8 H 0.21337 0.100502 0.458182
Nd1 Nd 0.399821(9) 0.570913(9) 0.38772(4)
O1_9 O 0.36485(13) 0.54861(12) 0.2470(5)
O2_9 O 0.44274(12) 0.60371(13) 0.3638(5)
O3_9 O 0.38758(12) 0.61312(12) 0.5176(5)
O4_9 O 0.38406(12) 0.60903(12) 0.2545(5)
O5_9 O 0.43259(13) 0.55316(12) 0.2164(5)
O6_9 O 0.42451(13) 0.51858(13) 0.3493(5)
O7 O 0.43172(12) 0.56406(12) 0.5528(5)
O8 O 0.37790(15) 0.53444(16) 0.5284(6)
O9 O 0.34477(16) 0.56586(16) 0.4721(6)
H1_9 H 0.4397 0.6152 0.3055
H2_9 H 0.4579 0.5934 0.3499
H3_9 H 0.3842 0.6281 0.4745
H4_9 H 0.4019 0.6167 0.5637
C1_9 C 0.37581(17) 0.61314(17) 0.1493(7)
C2_9 C 0.43634(18) 0.52769(18) 0.2561(8)
C3_9 C 0.35700(17) 0.64007(18) 0.1301(7)
O10_9 O 0.38026(12) 0.59711(12) 0.0618(5)
C4_9 C 0.45818(18) 0.50759(18) 0.1943(8)
C5_9 C 0.3348(2) 0.6393(2) 0.0469(8)
C6_9 C 0.35958(18) 0.66512(18) 0.2010(7)
C7_9 C 0.48788(18) 0.51447(19) 0.1985(8)
C8_9 C 0.45044(19) 0.48079(18) 0.1437(8)
C9_9 C 0.3149(2) 0.6621(2) 0.0398(9)
C10_9 C 0.38383(17) 0.67171(16) 0.2866(7)
N1_5 N 0.33871(15) 0.68614(15) 0.2002(6)
O15_9 O 0.44389(11) 0.58417(12) 0.0175(5)
O18_9 O 0.38124(13) 0.53493(13) 0.0209(5)
H6_9 H 0.4939 0.5322 0.2305
C11_8 C 0.50838(18) 0.49496(19) 0.1552(8)
C12_9 C 0.42001(17) 0.47080(18) 0.1247(8)
N2_9 N 0.47060(15) 0.46093(16) 0.1094(7)
C13_9 C 0.3168(2) 0.6841(2) 0.1213(9)
C14_9 C 0.41351(17) 0.66721(17) 0.2632(7)
N3_5 N 0.37442(14) 0.68377(14) 0.3893(6)
H10_9 H 0.4426 0.6018 0.0466
C17_9 C 0.4027(2) 0.5171(2) 0.0195(8)
H14_8 H 0.5281 0.4998 0.1533
C18_9 C 0.49887(18) 0.46811(19) 0.1148(7)
C19_9 C 0.39785(19) 0.48789(19) 0.0764(8)
N4_9 N 0.41531(15) 0.44263(15) 0.1564(7)
H15_9 H 0.3023 0.6983 0.1223
C20_9 C 0.43291(19) 0.67522(18) 0.3498(7)
C21_9 C 0.42473(17) 0.65396(17) 0.1475(7)
C22_9 C 0.39418(18) 0.69131(18) 0.4725(7)
H16_8 H 0.5127 0.4545 0.0904
C25_9 C 0.36979(18) 0.47566(19) 0.0677(9)
C26_9 C 0.38866(19) 0.4314(2) 0.1473(8)
C27_9 C 0.42354(19) 0.68727(19) 0.4561(8)
H17_9 H 0.4528 0.6725 0.3370
O19_9 O 0.41458(13) 0.66388(13) 0.0510(5)
O20_9 O 0.44310(12) 0.63405(12) 0.1573(5)
H18_9 H 0.3877 0.6995 0.5434
C32_9 C 0.36514(19) 0.44757(19) 0.1054(9)
H19_9 H 0.3545 0.4866 0.0364
H20_9 H 0.3857 0.4120 0.1696
H21_9 H 0.4368 0.6925 0.5150
H24_9 H 0.3465 0.4395 0.1031
H30_9 H 0.5136 0.6260 0.0385
H33_9 H 0.4834 0.6646 0.0120
N10_5 N 0.43377(14) 0.37558(14) 0.1393(6)
H35_9 H 0.354428 0.564232 0.202793
H36_9 H 0.350502 0.53663 0.291818
Nd2_9 Nd 0.400278(9) 0.573456(9) 0.89104(4)
H5_9 H 0.3332 0.6234 0.9955
O11_9 O 0.43847(12) 0.57577(13) 0.7450(5)
O12_9 O 0.36931(14) 0.59092(18) 0.7228(6)
O13_9 O 0.34411(13) 0.57049(14) 0.8657(5)
O14_9 O 0.40589(13) 0.62670(12) 0.8662(5)
O16_9 O 0.39226(16) 0.52978(16) 0.7575(6)
O17_9 O 0.42607(14) 0.52271(13) 0.9675(6)
H7_9 H 0.3006 0.6624 0.9809
C15_9 C 0.44744(17) 0.57024(17) 0.6417(7)
C16_9 C 0.34523(18) 0.58353(18) 0.7694(7)
H8_9 H 0.4186 0.6308 0.8095
H9_9 H 0.4122 0.6348 0.9327
H11_9 H 0.4598 0.5830 0.9752
H12_9 H 0.3765 0.5197 0.7802
H13_9 H 0.4075 0.5177 0.7602
C23_9 C 0.47998(17) 0.56905(18) 0.6241(7)
C24_9 C 0.31763(18) 0.59139(18) 0.7052(7)
C28_9 C 0.49927(18) 0.58453(19) 0.6955(7)
C29_9 C 0.4913(2) 0.5500(2) 0.5406(8)
C30_9 C 0.2995(2) 0.5706(2) 0.6532(9)
C31_9 C 0.3095(2) 0.6208(2) 0.7044(9)
C33_9 C 0.49167(16) 0.60845(17) 0.7821(7)
C34_9 C 0.5211(2) 0.5461(2) 0.5306(9)
H22_9 H 0.4788 0.5398 0.4906
C35_9 C 0.3061(2) 0.5391(2) 0.6589(9)
N7_9 N 0.27382(19) 0.5787(2) 0.5996(8)
C36_9 C 0.2831(2) 0.6290(3) 0.6562(10)
H23_9 H 0.3219 0.6348 0.7364
C37_9 C 0.47311(17) 0.63144(18) 0.7598(7)
C38_9 C 0.5388(2) 0.5600(2) 0.6135(9)
H25_7 H 0.5290 0.5345 0.4707
C39_9 C 0.3532(2) 0.5446(2) 0.5333(9)
C40_9 C 0.3311(2) 0.5274(2) 0.6125(9)
N8_9 N 0.2853(2) 0.5221(2) 0.7084(8)
C41_9 C 0.2678(3) 0.6081(3) 0.6067(10)
H26_9 H 0.2765 0.6482 0.6586
C42_9 C 0.45591(19) 0.63426(17) 0.6439(7)
C43_9 C 0.47005(18) 0.65295(18) 0.8464(7)
C44_9 C 0.50326(18) 0.62756(18) 0.9674(7)
H27_9 H 0.5587 0.5562 0.6128
C45_9 C 0.3371(3) 0.4975(3) 0.6368(10)
C46_9 C 0.2913(3) 0.4940(3) 0.7263(10)
H28_9 H 0.2505 0.6140 0.5712
O21_9 O 0.42951(13) 0.64096(12) 0.6542(5)
O22_9 O 0.46925(13) 0.63005(13) 0.5481(5)
H29_9 H 0.4578 0.6688 0.8332
C47_9 C 0.48542(17) 0.65062(17) 0.9526(7)
H31_9 H 0.3544 0.4892 0.6099
C48_9 C 0.3172(3) 0.4807(3) 0.7004(10)
H32_9 H 0.2766 0.4825 0.7591
H34_9 H 0.3213 0.4616 0.7238
N9_5 N 0.43614(15) 0.41129(15) 0.9502(6)
Nd1_2 Nd 0.679087(9) 0.149821(9) 0.13772(4)
O2_10 O 0.64629(13) 0.19274(12) 0.1138(5)
O3_10 O 0.63688(12) 0.13758(12) 0.2676(5)
O4_10 O 0.64097(12) 0.13406(12) 0.0045(5)
O6_10 O 0.73142(13) 0.17451(13) 0.0993(5)
O7_2 O 0.68594(12) 0.18172(12) 0.3028(5)
O8_2 O 0.71556(16) 0.12790(15) 0.2784(6)
O9_2 O 0.68414(16) 0.09477(16) 0.2221(6)
H1_10 H 0.6348 0.1897 0.0555
H2_10 H 0.6566 0.2079 0.0999
H3_10 H 0.6219 0.1342 0.2245
H4_10 H 0.6333 0.1519 0.3137
C2_10 C 0.72231(18) 0.18634(18) 0.0061(8)
C10_10 C 0.57829(16) 0.13383(17) 0.0366(7)
C14_10 C 0.58279(17) 0.16351(17) 0.0132(7)
N3_6 N 0.56623(14) 0.12442(14) 0.1393(6)
C20_10 C 0.57478(18) 0.18291(19) 0.0998(7)
C22_10 C 0.55869(18) 0.14418(18) 0.2225(7)
C27_10 C 0.56273(19) 0.17354(19) 0.2061(8)
H17_10 H 0.5775 0.2028 0.0870
H18_10 H 0.5505 0.1377 0.2934
H21_10 H 0.5575 0.1868 0.2650
H36_10 H 0.71337 0.100502 0.0418185
O1_10 O 0.70139(12) 0.11485(13) 0.9970(5)
O5_10 O 0.69684(12) 0.18259(13) 0.9664(5)
C1_10 C 0.63686(17) 0.12581(17) 0.8993(7)
C3_10 C 0.60993(18) 0.10700(17) 0.8801(7)
O10_10 O 0.65289(12) 0.13026(12) 0.8118(5)
C4_10 C 0.74241(18) 0.20818(18) 0.9443(8)
C5_10 C 0.6107(2) 0.0848(2) 0.7969(8)
C6_10 C 0.58488(18) 0.10958(18) 0.9510(7)
Nd2_10 Nd 0.676544(9) 0.150278(9) 0.64104(4)
C7_10 C 0.73553(19) 0.23788(18) 0.9485(8)
C8_10 C 0.76921(18) 0.20044(19) 0.8937(8)
H5_10 H 0.6266 0.0832 0.7455
C9_10 C 0.5879(2) 0.0649(2) 0.7898(9)
N1_6 N 0.56386(15) 0.08871(15) 0.9502(6)
O11_10 O 0.67423(13) 0.18847(12) 0.4950(5)
O12_10 O 0.65908(18) 0.11931(14) 0.4728(6)
O13_10 O 0.67951(14) 0.09411(13) 0.6157(5)
O14_10 O 0.62330(12) 0.15589(13) 0.6162(5)
O15_10 O 0.66583(12) 0.19389(11) 0.7675(5)
O16_10 O 0.72022(16) 0.14226(16) 0.5075(6)
O17_10 O 0.72729(13) 0.17607(14) 0.7175(6)
O18_10 O 0.71507(13) 0.13124(13) 0.7709(5)
H6_10 H 0.7178 0.2439 0.9805
C11_9 C 0.75504(19) 0.25838(18) 0.9052(8)
C12_10 C 0.77920(18) 0.17001(17) 0.8747(8)
N2_10 N 0.78907(16) 0.22060(15) 0.8594(7)
H7_10 H 0.5876 0.0506 0.7309
C13_10 C 0.5659(2) 0.0668(2) 0.8713(9)
C15_10 C 0.67976(17) 0.19744(17) 0.3917(7)
C16_10 C 0.66647(18) 0.09523(18) 0.5194(7)
H8_10 H 0.6192 0.1686 0.5595
H9_10 H 0.6152 0.1622 0.6827
H10_10 H 0.6482 0.1926 0.7966
H11_10 H 0.6670 0.2098 0.7252
H12_10 H 0.7303 0.1265 0.5302
H13_10 H 0.7323 0.1575 0.5102
C17_10 C 0.7329(2) 0.1527(2) 0.7695(8)
H14_9 H 0.7502 0.2781 0.9033
C18_10 C 0.78189(19) 0.24887(18) 0.8648(7)
C19_10 C 0.76211(19) 0.14785(19) 0.8264(8)
N4_10 N 0.80737(15) 0.16531(15) 0.9064(7)
H15_10 H 0.5517 0.0523 0.8723
C21_10 C 0.59604(17) 0.17473(17) 0.8975(7)
C23_10 C 0.68095(18) 0.22998(17) 0.3741(7)
C24_10 C 0.65861(18) 0.06763(18) 0.4552(7)
H16_9 H 0.7955 0.2627 0.8404
C25_10 C 0.77434(19) 0.11979(18) 0.8177(9)
C26_10 C 0.8186(2) 0.13866(19) 0.8973(8)
O19_10 O 0.58612(13) 0.16458(13) 0.8010(5)
O20_10 O 0.61595(12) 0.19310(12) 0.9073(5)
C28_10 C 0.66547(19) 0.24927(18) 0.4455(7)
C29_10 C 0.7000(2) 0.2413(2) 0.2906(8)
C30_10 C 0.6794(2) 0.0495(2) 0.4032(9)
C31_10 C 0.6292(2) 0.0595(2) 0.4544(9)
C32_10 C 0.80243(19) 0.11514(19) 0.8554(9)
H19_10 H 0.7634 0.1045 0.7864
H20_10 H 0.8380 0.1357 0.9196
C33_10 C 0.64155(17) 0.24167(16) 0.5321(7)
C34_10 C 0.7039(2) 0.2711(2) 0.2806(9)
H22_10 H 0.7102 0.2288 0.2406
C35_10 C 0.7109(2) 0.0561(2) 0.4089(9)
N7_10 N 0.6713(2) 0.02382(19) 0.3496(8)
C36_10 C 0.6210(3) 0.0331(2) 0.4062(10)
H23_10 H 0.6152 0.0719 0.4864
H24_10 H 0.8105 0.0965 0.8531
C37_10 C 0.61856(18) 0.22311(17) 0.5098(7)
C38_10 C 0.6900(2) 0.2888(2) 0.3635(9)
H25_8 H 0.7155 0.2790 0.2207
C39_10 C 0.7054(2) 0.1032(2) 0.2833(9)
C40_10 C 0.7226(2) 0.0811(2) 0.3625(9)
N8_10 N 0.7279(2) 0.0353(2) 0.4584(8)
C41_10 C 0.6419(3) 0.0178(3) 0.3567(10)
H26_10 H 0.6018 0.0265 0.4086
C42_10 C 0.61574(17) 0.20591(19) 0.3939(7)
C43_10 C 0.59705(18) 0.22005(18) 0.5964(7)
C44_10 C 0.62244(18) 0.25326(18) 0.7174(7)
H27_10 H 0.6938 0.3087 0.3628
C45_10 C 0.7525(3) 0.0871(3) 0.3868(10)
C46_10 C 0.7560(3) 0.0413(3) 0.4763(10)
H28_10 H 0.6360 0.0005 0.3212
O21_10 O 0.60904(12) 0.17951(13) 0.4042(5)
O22_10 O 0.61995(13) 0.21925(13) 0.2981(5)
H29_10 H 0.5812 0.2078 0.5832
C47_10 C 0.59938(17) 0.23542(17) 0.7026(7)
H30_10 H 0.6240 0.2636 0.7885
H31_10 H 0.7608 0.1044 0.3599
C48_10 C 0.7693(3) 0.0672(3) 0.4504(10)
H32_10 H 0.7675 0.0266 0.5091
H33_10 H 0.5854 0.2334 0.7620
H34_10 H 0.7884 0.0713 0.4738
N9_6 N 0.83871(15) 0.18614(15) 0.7002(6)
N10_6 N 0.87442(14) 0.18377(14) 0.8893(6)
H35_10 H 0.685768 0.104428 0.952793
C8_11 C 0.54956(19) 0.01921(18) 0.1437(8)
C11_10 C 0.49162(18) 0.00504(19) 0.1552(8)
C12_11 C 0.57999(17) 0.02920(18) 0.1247(8)
N2_11 N 0.52940(15) 0.03907(16) 0.1094(7)
H14_10 H 0.4719 0.0002 0.1533
C18_11 C 0.50113(18) 0.03189(19) 0.1148(7)
C19_11 C 0.60215(19) 0.01211(19) 0.0764(8)
N4_11 N 0.58469(15) 0.05737(15) 0.1564(7)
H16_10 H 0.4873 0.0455 0.0904
C25_11 C 0.63021(18) 0.02434(19) 0.0677(9)
C26_11 C 0.61134(19) 0.0686(2) 0.1473(8)
C32_11 C 0.63486(19) 0.05243(19) 0.1054(9)
H19_11 H 0.6455 0.0134 0.0364
H20_11 H 0.6143 0.0880 0.1696
H24_11 H 0.6535 0.0605 0.1031
C45_11 C 0.6629(3) 0.0025(3) 0.6368(10)
C46_11 C 0.7087(3) 0.0060(3) 0.7263(10)
H31_11 H 0.6456 0.0108 0.6099
C48_11 C 0.6828(3) 0.0193(3) 0.7004(10)
H32_11 H 0.7234 0.0175 0.7591
H34_11 H 0.6787 0.0384 0.7238
Nd1_3 Nd 0.600179(9) 0.929087(9) 0.38772(4)
O1_11 O 0.63515(13) 0.95139(12) 0.2470(5)
O2_11 O 0.55726(12) 0.89629(13) 0.3638(5)
O3_11 O 0.61242(12) 0.88688(12) 0.5176(5)
O4_11 O 0.61594(12) 0.89097(12) 0.2545(5)
O5_11 O 0.56741(13) 0.94684(12) 0.2164(5)
O6_11 O 0.57549(13) 0.98142(13) 0.3493(5)
O7_3 O 0.56828(12) 0.93594(12) 0.5528(5)
O8_3 O 0.62210(15) 0.96556(16) 0.5284(6)
O9_3 O 0.65523(16) 0.93414(16) 0.4721(6)
H1_11 H 0.5603 0.8848 0.3055
H2_11 H 0.5421 0.9066 0.3499
H3_11 H 0.6158 0.8719 0.4745
H4_11 H 0.5981 0.8833 0.5637
C1_11 C 0.62419(17) 0.88686(17) 0.1493(7)
C2_11 C 0.56366(18) 0.97231(18) 0.2561(8)
C3_11 C 0.64300(17) 0.85993(18) 0.1301(7)
O10_11 O 0.61974(12) 0.90289(12) 0.0618(5)
C4_11 C 0.54182(18) 0.99241(18) 0.1943(8)
C5_11 C 0.6652(2) 0.8607(2) 0.0469(8)
C6_11 C 0.64042(18) 0.83488(18) 0.2010(7)
C7_11 C 0.51212(18) 0.98553(19) 0.1985(8)
C9_11 C 0.6851(2) 0.8379(2) 0.0398(9)
C10_11 C 0.61617(17) 0.82829(16) 0.2866(7)
N1_7 N 0.66129(15) 0.81386(15) 0.2002(6)
O15_11 O 0.55611(11) 0.91583(12) 0.0175(5)
O18_11 O 0.61876(13) 0.96507(13) 0.0209(5)
H6_11 H 0.5061 0.9678 0.2305
C13_11 C 0.6832(2) 0.8159(2) 0.1213(9)
C14_11 C 0.58649(17) 0.83279(17) 0.2632(7)
N3_7 N 0.62558(14) 0.81623(14) 0.3893(6)
H10_11 H 0.5574 0.8982 0.0466
C17_11 C 0.5973(2) 0.9829(2) 0.0195(8)
H15_11 H 0.6977 0.8017 0.1223
C20_11 C 0.56709(19) 0.82478(18) 0.3498(7)
C21_11 C 0.57527(17) 0.84604(17) 0.1475(7)
C22_11 C 0.60582(18) 0.80869(18) 0.4725(7)
C27_11 C 0.57646(19) 0.81273(19) 0.4561(8)
H17_11 H 0.5472 0.8275 0.3370
O19_11 O 0.58542(13) 0.83612(13) 0.0510(5)
O20_11 O 0.55690(12) 0.86595(12) 0.1573(5)
H18_11 H 0.6123 0.8005 0.5434
H21_11 H 0.5632 0.8075 0.5150
H30_11 H 0.4864 0.8740 0.0385
H33_11 H 0.5166 0.8354 0.0120
H35_11 H 0.645572 0.935768 0.202793
H36_11 H 0.649498 0.96337 0.291818
Nd2_11 Nd 0.599722(9) 0.926544(9) 0.89104(4)
H5_11 H 0.6668 0.8766 0.9955
O11_11 O 0.56153(12) 0.92423(13) 0.7450(5)
O12_11 O 0.63069(14) 0.90908(18) 0.7228(6)
O13_11 O 0.65589(13) 0.92951(14) 0.8657(5)
O14_11 O 0.59411(13) 0.87330(12) 0.8662(5)
O16_11 O 0.60774(16) 0.97022(16) 0.7575(6)
O17_11 O 0.57393(14) 0.97729(13) 0.9675(6)
H7_11 H 0.6994 0.8376 0.9809
C15_11 C 0.55256(17) 0.92976(17) 0.6417(7)
C16_11 C 0.65477(18) 0.91647(18) 0.7694(7)
H8_11 H 0.5814 0.8692 0.8095
H9_11 H 0.5878 0.8652 0.9327
H11_11 H 0.5402 0.9170 0.9752
H12_11 H 0.6235 0.9803 0.7802
H13_11 H 0.5925 0.9823 0.7602
C23_11 C 0.52002(17) 0.93095(18) 0.6241(7)
C24_11 C 0.68237(18) 0.90861(18) 0.7052(7)
C28_11 C 0.50073(18) 0.91547(19) 0.6955(7)
C29_11 C 0.5087(2) 0.9500(2) 0.5406(8)
C30_11 C 0.7005(2) 0.9294(2) 0.6532(9)
C31_11 C 0.6905(2) 0.8792(2) 0.7044(9)
C33_11 C 0.50833(16) 0.89155(17) 0.7821(7)
C34_11 C 0.4789(2) 0.9539(2) 0.5306(9)
H22_11 H 0.5212 0.9602 0.4906
C35_11 C 0.6939(2) 0.9609(2) 0.6589(9)
N7_11 N 0.72618(19) 0.9213(2) 0.5996(8)
C36_11 C 0.7169(2) 0.8710(3) 0.6562(10)
H23_11 H 0.6781 0.8652 0.7364
C37_11 C 0.52689(17) 0.86856(18) 0.7598(7)
C38_11 C 0.4612(2) 0.9400(2) 0.6135(9)
H25_9 H 0.4710 0.9655 0.4707
C39_11 C 0.6468(2) 0.9554(2) 0.5333(9)
C40_11 C 0.6689(2) 0.9726(2) 0.6125(9)
N8_11 N 0.7147(2) 0.9779(2) 0.7084(8)
C41_11 C 0.7322(3) 0.8919(3) 0.6067(10)
H26_11 H 0.7235 0.8518 0.6586
C42_11 C 0.54409(19) 0.86574(17) 0.6439(7)
C43_11 C 0.52995(18) 0.84705(18) 0.8464(7)
C44_11 C 0.49674(18) 0.87244(18) 0.9674(7)
H27_11 H 0.4413 0.9438 0.6128
H28_11 H 0.7495 0.8860 0.5712
O21_11 O 0.57049(13) 0.85904(12) 0.6542(5)
O22_11 O 0.53075(13) 0.86995(13) 0.5481(5)
H29_11 H 0.5422 0.8312 0.8332
C47_11 C 0.51458(17) 0.84938(17) 0.9526(7)
Nd1_4 Nd 0.320913(9) 0.350179(9) 0.13772(4)
O2_12 O 0.35371(13) 0.30726(12) 0.1138(5)
O3_12 O 0.36312(12) 0.36242(12) 0.2676(5)
O4_12 O 0.35903(12) 0.36594(12) 0.0045(5)
O6_12 O 0.26858(13) 0.32549(13) 0.0993(5)
O7_4 O 0.31406(12) 0.31828(12) 0.3028(5)
O8_4 O 0.28444(16) 0.37210(15) 0.2784(6)
O9_4 O 0.31586(16) 0.40523(16) 0.2221(6)
H1_12 H 0.3652 0.3103 0.0555
H2_12 H 0.3434 0.2921 0.0999
H3_12 H 0.3781 0.3658 0.2245
H4_12 H 0.3667 0.3481 0.3137
C2_12 C 0.27769(18) 0.31366(18) 0.0061(8)
C10_12 C 0.42171(16) 0.36617(17) 0.0366(7)
C14_12 C 0.41721(17) 0.33649(17) 0.0132(7)
C20_12 C 0.42522(18) 0.31709(19) 0.0998(7)
C22_12 C 0.44131(18) 0.35582(18) 0.2225(7)
C27_12 C 0.43727(19) 0.32646(19) 0.2061(8)
H17_12 H 0.4225 0.2972 0.0870
H18_12 H 0.4495 0.3623 0.2934
H21_12 H 0.4425 0.3132 0.2650
H36_12 H 0.28663 0.399498 0.0418185
O1_12 O 0.29861(12) 0.38515(13) 0.9970(5)
O5_12 O 0.30316(12) 0.31741(13) 0.9664(5)
C1_12 C 0.36314(17) 0.37419(17) 0.8993(7)
C3_12 C 0.39007(18) 0.39300(17) 0.8801(7)
O10_12 O 0.34711(12) 0.36974(12) 0.8118(5)
C4_12 C 0.25759(18) 0.29182(18) 0.9443(8)
C5_12 C 0.3893(2) 0.4152(2) 0.7969(8)
C6_12 C 0.41512(18) 0.39042(18) 0.9510(7)
Nd2_12 Nd 0.323456(9) 0.349722(9) 0.64104(4)
C7_12 C 0.26447(19) 0.26212(18) 0.9485(8)
C8_12 C 0.23079(18) 0.29956(19) 0.8937(8)
H5_12 H 0.3734 0.4168 0.7455
C9_12 C 0.4121(2) 0.4351(2) 0.7898(9)
O11_12 O 0.32577(13) 0.31153(12) 0.4950(5)
O12_12 O 0.34092(18) 0.38069(14) 0.4728(6)
O13_12 O 0.32049(14) 0.40589(13) 0.6157(5)
O14_12 O 0.37670(12) 0.34411(13) 0.6162(5)
O15_12 O 0.33417(12) 0.30611(11) 0.7675(5)
O16_12 O 0.27978(16) 0.35774(16) 0.5075(6)
O17_12 O 0.27271(13) 0.32393(14) 0.7175(6)
O18_12 O 0.28493(13) 0.36876(13) 0.7709(5)
H6_12 H 0.2822 0.2561 0.9805
C11_11 C 0.24496(19) 0.24162(18) 0.9052(8)
C12_12 C 0.22080(18) 0.32999(17) 0.8747(8)
N2_12 N 0.21093(16) 0.27940(15) 0.8594(7)
H7_12 H 0.4124 0.4494 0.7309
C13_12 C 0.4341(2) 0.4332(2) 0.8713(9)
C15_12 C 0.32024(17) 0.30256(17) 0.3917(7)
C16_12 C 0.33353(18) 0.40477(18) 0.5194(7)
H8_12 H 0.3808 0.3314 0.5595
H9_12 H 0.3848 0.3378 0.6827
H10_12 H 0.3518 0.3074 0.7966
H11_12 H 0.3330 0.2902 0.7252
H12_12 H 0.2697 0.3735 0.5302
H13_12 H 0.2677 0.3425 0.5102
C17_12 C 0.2671(2) 0.3473(2) 0.7695(8)
H14_11 H 0.2498 0.2219 0.9033
C18_12 C 0.21811(19) 0.25113(18) 0.8648(7)
C19_12 C 0.23789(19) 0.35215(19) 0.8264(8)
N4_12 N 0.19263(15) 0.33469(15) 0.9064(7)
H15_12 H 0.4483 0.4477 0.8723
C21_12 C 0.40396(17) 0.32527(17) 0.8975(7)
C23_12 C 0.31905(18) 0.27002(17) 0.3741(7)
C24_12 C 0.34139(18) 0.43237(18) 0.4552(7)
H16_11 H 0.2045 0.2373 0.8404
C25_12 C 0.22566(19) 0.38021(18) 0.8177(9)
C26_12 C 0.1814(2) 0.36134(19) 0.8973(8)
O19_12 O 0.41388(13) 0.33542(13) 0.8010(5)
O20_12 O 0.38405(12) 0.30690(12) 0.9073(5)
C28_12 C 0.33453(19) 0.25073(18) 0.4455(7)
C29_12 C 0.3000(2) 0.2587(2) 0.2906(8)
C30_12 C 0.3206(2) 0.4505(2) 0.4032(9)
C31_12 C 0.3708(2) 0.4405(2) 0.4544(9)
C32_12 C 0.19757(19) 0.38486(19) 0.8554(9)
H19_12 H 0.2366 0.3955 0.7864
H20_12 H 0.1620 0.3643 0.9196
C33_12 C 0.35845(17) 0.25833(16) 0.5321(7)
C34_12 C 0.2961(2) 0.2289(2) 0.2806(9)
H22_12 H 0.2898 0.2712 0.2406
C35_12 C 0.2891(2) 0.4439(2) 0.4089(9)
N7_12 N 0.3287(2) 0.47618(19) 0.3496(8)
C36_12 C 0.3790(3) 0.4669(2) 0.4062(10)
H23_12 H 0.3848 0.4281 0.4864
H24_12 H 0.1895 0.4035 0.8531
C37_12 C 0.38144(18) 0.27689(17) 0.5098(7)
C38_12 C 0.3100(2) 0.2112(2) 0.3635(9)
H25_10 H 0.2845 0.2210 0.2207
C39_12 C 0.2946(2) 0.3968(2) 0.2833(9)
C40_12 C 0.2774(2) 0.4189(2) 0.3625(9)
N8_12 N 0.2721(2) 0.4647(2) 0.4584(8)
C41_12 C 0.3581(3) 0.4822(3) 0.3567(10)
H26_12 H 0.3982 0.4735 0.4086
C42_12 C 0.38426(17) 0.29409(19) 0.3939(7)
C43_12 C 0.40295(18) 0.27995(18) 0.5964(7)
C44_12 C 0.37756(18) 0.24674(18) 0.7174(7)
H27_12 H 0.3062 0.1913 0.3628
C45_12 C 0.2475(3) 0.4129(3) 0.3868(10)
C46_12 C 0.2440(3) 0.4587(3) 0.4763(10)
H28_12 H 0.3640 0.4995 0.3212
O21_12 O 0.39096(12) 0.32049(13) 0.4042(5)
O22_12 O 0.38005(13) 0.28075(13) 0.2981(5)
H29_12 H 0.4188 0.2922 0.5832
C47_12 C 0.40062(17) 0.26458(17) 0.7026(7)
H30_12 H 0.3760 0.2364 0.7885
H31_12 H 0.2392 0.3956 0.3599
C48_12 C 0.2307(3) 0.4328(3) 0.4504(10)
H32_12 H 0.2325 0.4734 0.5091
H33_12 H 0.4146 0.2666 0.7620
H34_12 H 0.2116 0.4287 0.4738
N9_7 N 0.16129(15) 0.31386(15) 0.7002(6)
N10_7 N 0.12558(14) 0.31623(14) 0.8893(6)
H35_12 H 0.314232 0.395572 0.952793
C34_13 C 0.0211(2) 0.0461(2) 0.0306(9)
C38_13 C 0.0388(2) 0.0600(2) 0.1135(9)
C44_13 C 0.00326(18) 0.12756(18) 0.4674(7)
H27_13 H 0.0587 0.0562 0.1128
H30_13 H 0.0136 0.1260 0.5385
O3_13 O 0.88758(12) 0.11312(12) 0.0176(5)
O7_5 O 0.93172(12) 0.06406(12) 0.0528(5)
O8_5 O 0.87790(15) 0.03444(16) 0.0284(6)
H4_13 H 0.9019 0.1167 0.0637
H18_13 H 0.8877 0.1995 0.0434
H21_13 H 0.9368 0.1925 0.0150
Nd1_5 Nd 0.899821(9) 0.070913(9) 0.88772(4)
O1_13 O 0.86485(13) 0.04861(12) 0.7470(5)
O2_13 O 0.94274(12) 0.10371(13) 0.8638(5)
O4_13 O 0.88406(12) 0.10903(12) 0.7545(5)
O5_13 O 0.93259(13) 0.05316(12) 0.7164(5)
O6_13 O 0.92451(13) 0.01858(13) 0.8493(5)
O9_5 O 0.84477(16) 0.06586(16) 0.9721(6)
H1_13 H 0.9397 0.1152 0.8055
H2_13 H 0.9579 0.0934 0.8499
H3_13 H 0.8842 0.1281 0.9745
C1_13 C 0.87581(17) 0.11314(17) 0.6493(7)
C2_13 C 0.93634(18) 0.02769(18) 0.7561(8)
C3_13 C 0.85700(17) 0.14007(18) 0.6301(7)
O10_13 O 0.88026(12) 0.09711(12) 0.5618(5)
C4_13 C 0.95818(18) 0.00759(18) 0.6943(8)
C5_13 C 0.8348(2) 0.1393(2) 0.5469(8)
C6_13 C 0.85958(18) 0.16512(18) 0.7010(7)
Nd2_13 Nd 0.900278(9) 0.073456(9) 0.39104(4)
C7_13 C 0.98788(18) 0.01447(19) 0.6985(8)
H5_13 H 0.8332 0.1234 0.4955
C9_13 C 0.8149(2) 0.1621(2) 0.5398(9)
C10_13 C 0.88383(17) 0.17171(16) 0.7866(7)
O11_13 O 0.93847(12) 0.07577(13) 0.2450(5)
O12_13 O 0.86931(14) 0.09092(18) 0.2228(6)
O13_13 O 0.84411(13) 0.07049(14) 0.3657(5)
O14_13 O 0.90589(13) 0.12670(12) 0.3662(5)
O15_13 O 0.94389(11) 0.08417(12) 0.5175(5)
O16_13 O 0.89226(16) 0.02978(16) 0.2575(6)
O17_13 O 0.92607(14) 0.02271(13) 0.4675(6)
O18_13 O 0.88124(13) 0.03493(13) 0.5209(5)
H6_13 H 0.9939 0.0322 0.7305
H7_13 H 0.8006 0.1624 0.4809
C13_13 C 0.8168(2) 0.1841(2) 0.6213(9)
C14_13 C 0.91351(17) 0.16721(17) 0.7632(7)
C15_13 C 0.94744(17) 0.07024(17) 0.1417(7)
C16_13 C 0.84523(18) 0.08353(18) 0.2694(7)
H8_13 H 0.9186 0.1308 0.3095
H9_13 H 0.9122 0.1348 0.4327
H10_13 H 0.9426 0.1018 0.5466
H11_13 H 0.9598 0.0830 0.4752
H12_13 H 0.8765 0.0197 0.2802
H13_13 H 0.9075 0.0177 0.2602
C17_13 C 0.9027(2) 0.0171(2) 0.5195(8)
H15_13 H 0.8023 0.1983 0.6223
C20_13 C 0.93291(19) 0.17522(18) 0.8498(7)
C21_13 C 0.92473(17) 0.15396(17) 0.6475(7)
C22_13 C 0.89418(18) 0.19131(18) 0.9725(7)
C23_13 C 0.97998(17) 0.06905(18) 0.1241(7)
C24_13 C 0.81763(18) 0.09139(18) 0.2052(7)
C27_13 C 0.92354(19) 0.18727(19) 0.9561(8)
H17_13 H 0.9528 0.1725 0.8370
O19_13 O 0.91458(13) 0.16388(13) 0.5510(5)
O20_13 O 0.94310(12) 0.13405(12) 0.6573(5)
C28_13 C 0.99927(18) 0.08453(19) 0.1955(7)
C29_13 C 0.9913(2) 0.0500(2) 0.0406(8)
C30_13 C 0.7995(2) 0.0706(2) 0.1532(9)
C31_13 C 0.8095(2) 0.1208(2) 0.2044(9)
C33_13 C 0.99167(16) 0.10845(17) 0.2821(7)
C35_13 C 0.8061(2) 0.0391(2) 0.1589(9)
N7_13 N 0.77382(19) 0.0787(2) 0.0996(8)
C36_13 C 0.7831(2) 0.1290(3) 0.1562(10)
H23_13 H 0.8219 0.1348 0.2364
C37_13 C 0.97311(17) 0.13144(18) 0.2598(7)
C39_13 C 0.8532(2) 0.0446(2) 0.0333(9)
C40_13 C 0.8311(2) 0.0274(2) 0.1125(9)
N8_13 N 0.7853(2) 0.0221(2) 0.2084(8)
C41_13 C 0.7678(3) 0.1081(3) 0.1067(10)
H26_13 H 0.7765 0.1482 0.1586
C42_13 C 0.95591(19) 0.13426(17) 0.1439(7)
C43_13 C 0.97005(18) 0.15295(18) 0.3464(7)
H28_13 H 0.7505 0.1140 0.0712
O21_13 O 0.92951(13) 0.14096(12) 0.1542(5)
O22_13 O 0.96925(13) 0.13005(13) 0.0481(5)
H29_13 H 0.9578 0.1688 0.3332
C47_13 C 0.98542(17) 0.15062(17) 0.4526(7)
H33_13 H 0.9834 0.1646 0.5120
H35_13 H 0.854428 0.0642322 0.702793
H36_13 H 0.850502 0.0366298 0.791818
H22_13 H 0.9788 0.0398 0.9906
C8_13 C 0.95044(19) 0.98079(18) 0.6437(8)
C12_13 C 0.92001(17) 0.97080(18) 0.6247(8)
N2_13 N 0.97060(15) 0.96093(16) 0.6094(7)
C18_13 C 0.99887(18) 0.96811(19) 0.6148(7)
C19_13 C 0.89785(19) 0.98789(19) 0.5764(8)
N4_13 N 0.91531(15) 0.94263(15) 0.6564(7)
C25_13 C 0.86979(18) 0.97566(19) 0.5677(9)
C26_13 C 0.88866(19) 0.9314(2) 0.6473(8)
C32_13 C 0.86514(19) 0.94757(19) 0.6054(9)
H19_13 H 0.8545 0.9866 0.5364
H20_13 H 0.8857 0.9120 0.6696
H24_13 H 0.8465 0.9395 0.6031
C45_13 C 0.8371(3) 0.9975(3) 0.1368(10)
C46_13 C 0.7913(3) 0.9940(3) 0.2263(10)
H31_13 H 0.8544 0.9892 0.1099
C48_13 C 0.8172(3) 0.9807(3) 0.2004(10)
H32_13 H 0.7766 0.9825 0.2591
H34_13 H 0.8213 0.9616 0.2238
N9_8 N 0.93614(15) 0.91129(15) 0.4502(6)
N10_8 N 0.93377(14) 0.87558(14) 0.6393(6)
Nd1_6 Nd 0.179087(9) 0.649821(9) 0.63772(4)
O1_14 O 0.20139(12) 0.61485(13) 0.4970(5)
O2_14 O 0.14629(13) 0.69274(12) 0.6138(5)
O3_14 O 0.13688(12) 0.63758(12) 0.7676(5)
O4_14 O 0.14097(12) 0.63406(12) 0.5045(5)
O5_14 O 0.19684(12) 0.68259(13) 0.4664(5)
O6_14 O 0.23142(13) 0.67451(13) 0.5993(5)
O7_6 O 0.18594(12) 0.68172(12) 0.8028(5)
O8_6 O 0.21556(16) 0.62790(15) 0.7784(6)
O9_6 O 0.18414(16) 0.59477(16) 0.7221(6)
H1_14 H 0.1348 0.6897 0.5555
H2_14 H 0.1566 0.7079 0.5999
H3_14 H 0.1219 0.6342 0.7245
H4_14 H 0.1333 0.6519 0.8137
C1_14 C 0.13686(17) 0.62581(17) 0.3993(7)
C2_14 C 0.22231(18) 0.68634(18) 0.5061(8)
C3_14 C 0.10993(18) 0.60700(17) 0.3801(7)
O10_14 O 0.15289(12) 0.63026(12) 0.3118(5)
C4_14 C 0.24241(18) 0.70818(18) 0.4443(8)
C5_14 C 0.1107(2) 0.5848(2) 0.2969(8)
C6_14 C 0.08488(18) 0.60958(18) 0.4510(7)
Nd2_14 Nd 0.176544(9) 0.650278(9) 0.14104(4)
C7_14 C 0.23553(19) 0.73788(18) 0.4485(8)
C8_14 C 0.26921(18) 0.70044(19) 0.3937(8)
H5_14 H 0.1266 0.5832 0.2455
C9_14 C 0.0879(2) 0.5649(2) 0.2898(9)
C10_14 C 0.07829(16) 0.63383(17) 0.5366(7)
N1_8 N 0.06386(15) 0.58871(15) 0.4502(6)
O13_14 O 0.17951(14) 0.59411(13) 0.1157(5)
O14_14 O 0.12330(12) 0.65589(13) 0.1162(5)
O15_14 O 0.16583(12) 0.69389(11) 0.2675(5)
O16_14 O 0.22022(16) 0.64226(16) 0.0075(6)
O17_14 O 0.22729(13) 0.67607(14) 0.2175(6)
O18_14 O 0.21507(13) 0.63124(13) 0.2709(5)
H6_14 H 0.2178 0.7439 0.4805
C11_12 C 0.25504(19) 0.75838(18) 0.4052(8)
C12_14 C 0.27920(18) 0.67001(17) 0.3747(8)
N2_14 N 0.28907(16) 0.72060(15) 0.3594(7)
H7_14 H 0.0876 0.5506 0.2309
C13_14 C 0.0659(2) 0.5668(2) 0.3713(9)
C14_14 C 0.08279(17) 0.66351(17) 0.5132(7)
N3_8 N 0.06623(14) 0.62442(14) 0.6393(6)
C16_14 C 0.16647(18) 0.59523(18) 0.0194(7)
H8_14 H 0.1192 0.6686 0.0595
H9_14 H 0.1152 0.6622 0.1827
H10_14 H 0.1482 0.6926 0.2966
H11_14 H 0.1670 0.7098 0.2252
H12_14 H 0.2303 0.6265 0.0302
H13_14 H 0.2323 0.6575 0.0102
C17_14 C 0.2329(2) 0.6527(2) 0.2695(8)
H14_12 H 0.2502 0.7781 0.4033
C18_14 C 0.28189(19) 0.74887(18) 0.3648(7)
C19_14 C 0.26211(19) 0.64785(19) 0.3264(8)
N4_14 N 0.30737(15) 0.66531(15) 0.4064(7)
H15_14 H 0.0517 0.5523 0.3723
C20_14 C 0.07478(18) 0.68291(19) 0.5998(7)
C21_14 C 0.09604(17) 0.67473(17) 0.3975(7)
C22_14 C 0.05869(18) 0.64418(18) 0.7225(7)
H16_12 H 0.2955 0.7627 0.3404
C25_14 C 0.27434(19) 0.61979(18) 0.3177(9)
C26_14 C 0.3186(2) 0.63866(19) 0.3973(8)
C27_14 C 0.06273(19) 0.67354(19) 0.7061(8)
H17_14 H 0.0775 0.7028 0.5870
O19_14 O 0.08612(13) 0.66458(13) 0.3010(5)
O20_14 O 0.11595(12) 0.69310(12) 0.4073(5)
H18_14 H 0.0505 0.6377 0.7934
C32_14 C 0.30243(19) 0.61514(19) 0.3554(9)
H19_14 H 0.2634 0.6045 0.2864
H20_14 H 0.3380 0.6357 0.4196
H21_14 H 0.0575 0.6868 0.7650
C33_14 C 0.14155(17) 0.74167(16) 0.0321(7)
H24_14 H 0.3105 0.5965 0.3531
C37_14 C 0.11856(18) 0.72311(17) 0.0098(7)
C43_14 C 0.09705(18) 0.72005(18) 0.0964(7)
C44_14 C 0.12244(18) 0.75326(18) 0.2174(7)
H29_14 H 0.0812 0.7078 0.0832
C47_14 C 0.09938(17) 0.73542(17) 0.2026(7)
H30_14 H 0.1240 0.7636 0.2885
H32_14 H 0.2675 0.5266 0.0091
H33_14 H 0.0854 0.7334 0.2620
H35_14 H 0.185768 0.604428 0.452793
H36_14 H 0.21337 0.600502 0.541818
O11_14 O 0.17423(13) 0.68847(12) 0.9950(5)
O12_14 O 0.15908(18) 0.61931(14) 0.9728(6)
C15_14 C 0.17976(17) 0.69744(17) 0.8917(7)
C23_14 C 0.18095(18) 0.72998(17) 0.8741(7)
C24_14 C 0.15861(18) 0.56763(18) 0.9552(7)
C28_14 C 0.16547(19) 0.74927(18) 0.9455(7)
C29_14 C 0.2000(2) 0.7413(2) 0.7906(8)
C30_14 C 0.1794(2) 0.5495(2) 0.9032(9)
C31_14 C 0.1292(2) 0.5595(2) 0.9544(9)
C34_14 C 0.2039(2) 0.7711(2) 0.7806(9)
H22_14 H 0.2102 0.7288 0.7406
C35_14 C 0.2109(2) 0.5561(2) 0.9089(9)
N7_14 N 0.1713(2) 0.52382(19) 0.8496(8)
C36_14 C 0.1210(3) 0.5331(2) 0.9062(10)
H23_14 H 0.1152 0.5719 0.9864
C38_14 C 0.1900(2) 0.7888(2) 0.8635(9)
H25_11 H 0.2155 0.7790 0.7207
C39_14 C 0.2054(2) 0.6032(2) 0.7833(9)
C40_14 C 0.2226(2) 0.5811(2) 0.8625(9)
N8_14 N 0.2279(2) 0.5353(2) 0.9584(8)
C41_14 C 0.1419(3) 0.5178(3) 0.8567(10)
H26_14 H 0.1018 0.5265 0.9086
C42_14 C 0.11574(17) 0.70591(19) 0.8939(7)
H27_14 H 0.1938 0.8087 0.8628
C45_14 C 0.2525(3) 0.5871(3) 0.8868(10)
C46_14 C 0.2560(3) 0.5413(3) 0.9763(10)
H28_14 H 0.1360 0.5005 0.8212
O21_14 O 0.10904(12) 0.67951(13) 0.9042(5)
O22_14 O 0.11995(13) 0.71925(13) 0.7981(5)
H31_14 H 0.2608 0.6044 0.8599
C48_14 C 0.2693(3) 0.5672(3) 0.9504(10)
H34_14 H 0.2884 0.5713 0.9738
O3_15 O 0.11242(12) 0.38688(12) 0.0176(5)
O7_7 O 0.06828(12) 0.43594(12) 0.0528(5)
O8_7 O 0.12210(15) 0.46556(16) 0.0284(6)
H4_15 H 0.0981 0.3833 0.0637
H18_15 H 0.1123 0.3005 0.0434
H21_15 H 0.0632 0.3075 0.0150
Nd1_7 Nd 0.100179(9) 0.429087(9) 0.88772(4)
O1_15 O 0.13515(13) 0.45139(12) 0.7470(5)
O2_15 O 0.05726(12) 0.39629(13) 0.8638(5)
O4_15 O 0.11594(12) 0.39097(12) 0.7545(5)
O5_15 O 0.06741(13) 0.44684(12) 0.7164(5)
O6_15 O 0.07549(13) 0.48142(13) 0.8493(5)
O9_7 O 0.15523(16) 0.43414(16) 0.9721(6)
H1_15 H 0.0603 0.3848 0.8055
H2_15 H 0.0421 0.4066 0.8499
H3_15 H 0.1158 0.3719 0.9745
C1_15 C 0.12419(17) 0.38686(17) 0.6493(7)
C2_15 C 0.06366(18) 0.47231(18) 0.7561(8)
C3_15 C 0.14300(17) 0.35993(18) 0.6301(7)
O10_15 O 0.11974(12) 0.40289(12) 0.5618(5)
C4_15 C 0.04182(18) 0.49241(18) 0.6943(8)
C5_15 C 0.1652(2) 0.3607(2) 0.5469(8)
C6_15 C 0.14042(18) 0.33488(18) 0.7010(7)
Nd2_15 Nd 0.099722(9) 0.426544(9) 0.39104(4)
C7_15 C 0.01212(18) 0.48553(19) 0.6985(8)
C8_15 C 0.04956(19) 0.51921(18) 0.6437(8)
H5_15 H 0.1668 0.3766 0.4955
C9_15 C 0.1851(2) 0.3379(2) 0.5398(9)
C10_15 C 0.11617(17) 0.32829(16) 0.7866(7)
O11_15 O 0.06153(12) 0.42423(13) 0.2450(5)
O12_15 O 0.13069(14) 0.40908(18) 0.2228(6)
O13_15 O 0.15589(13) 0.42951(14) 0.3657(5)
O14_15 O 0.09411(13) 0.37330(12) 0.3662(5)
O15_15 O 0.05611(11) 0.41583(12) 0.5175(5)
O16_15 O 0.10774(16) 0.47022(16) 0.2575(6)
O17_15 O 0.07393(14) 0.47729(13) 0.4675(6)
O18_15 O 0.11876(13) 0.46507(13) 0.5209(5)
H6_15 H 0.0061 0.4678 0.7305
C12_15 C 0.07999(17) 0.52920(18) 0.6247(8)
N2_15 N 0.02940(15) 0.53907(16) 0.6094(7)
H7_15 H 0.1994 0.3376 0.4809
C13_15 C 0.1832(2) 0.3159(2) 0.6213(9)
C14_15 C 0.08649(17) 0.33279(17) 0.7632(7)
C15_15 C 0.05256(17) 0.42976(17) 0.1417(7)
C16_15 C 0.15477(18) 0.41647(18) 0.2694(7)
H8_15 H 0.0814 0.3692 0.3095
H9_15 H 0.0878 0.3652 0.4327
H10_15 H 0.0574 0.3982 0.5466
H11_15 H 0.0402 0.4170 0.4752
H12_15 H 0.1235 0.4803 0.2802
H13_15 H 0.0925 0.4823 0.2602
C17_15 C 0.0973(2) 0.4829(2) 0.5195(8)
C18_15 C 0.00113(18) 0.53189(19) 0.6148(7)
C19_15 C 0.10215(19) 0.51211(19) 0.5764(8)
N4_15 N 0.08469(15) 0.55737(15) 0.6564(7)
H15_15 H 0.1977 0.3017 0.6223
C20_15 C 0.06709(19) 0.32478(18) 0.8498(7)
C21_15 C 0.07527(17) 0.34604(17) 0.6475(7)
C22_15 C 0.10582(18) 0.30869(18) 0.9725(7)
C23_15 C 0.02002(17) 0.43095(18) 0.1241(7)
C24_15 C 0.18237(18) 0.40861(18) 0.2052(7)
C25_15 C 0.13021(18) 0.52434(19) 0.5677(9)
C26_15 C 0.11134(19) 0.5686(2) 0.6473(8)
C27_15 C 0.07646(19) 0.31273(19) 0.9561(8)
H17_15 H 0.0472 0.3275 0.8370
O19_15 O 0.08542(13) 0.33612(13) 0.5510(5)
O20_15 O 0.05690(12) 0.36595(12) 0.6573(5)
C28_15 C 0.00073(18) 0.41547(19) 0.1955(7)
C29_15 C 0.0087(2) 0.4500(2) 0.0406(8)
C30_15 C 0.2005(2) 0.4294(2) 0.1532(9)
C31_15 C 0.1905(2) 0.3792(2) 0.2044(9)
C32_15 C 0.13486(19) 0.55243(19) 0.6054(9)
H19_15 H 0.1455 0.5134 0.5364
H20_15 H 0.1143 0.5880 0.6696
C33_15 C 0.00833(16) 0.39155(17) 0.2821(7)
C35_15 C 0.1939(2) 0.4609(2) 0.1589(9)
N7_15 N 0.22618(19) 0.4213(2) 0.0996(8)
C36_15 C 0.2169(2) 0.3710(3) 0.1562(10)
H23_15 H 0.1781 0.3652 0.2364
H24_15 H 0.1535 0.5605 0.6031
C37_15 C 0.02689(17) 0.36856(18) 0.2598(7)
C39_15 C 0.1468(2) 0.4554(2) 0.0333(9)
C40_15 C 0.1689(2) 0.4726(2) 0.1125(9)
N8_15 N 0.2147(2) 0.4779(2) 0.2084(8)
C41_15 C 0.2322(3) 0.3919(3) 0.1067(10)
H26_15 H 0.2235 0.3518 0.1586
C42_15 C 0.04409(19) 0.36574(17) 0.1439(7)
C43_15 C 0.02995(18) 0.34705(18) 0.3464(7)
C45_15 C 0.1629(3) 0.5025(3) 0.1368(10)
C46_15 C 0.2087(3) 0.5060(3) 0.2263(10)
H28_15 H 0.2495 0.3860 0.0712
O21_15 O 0.07049(13) 0.35904(12) 0.1542(5)
O22_15 O 0.03075(13) 0.36995(13) 0.0481(5)
H29_15 H 0.0422 0.3312 0.3332
C47_15 C 0.01458(17) 0.34938(17) 0.4526(7)
H31_15 H 0.1456 0.5108 0.1099
C48_15 C 0.1828(3) 0.5193(3) 0.2004(10)
H32_15 H 0.2234 0.5175 0.2591
H33_15 H 0.0166 0.3354 0.5120
H34_15 H 0.1787 0.5384 0.2238
H35_15 H 0.145572 0.435768 0.702793
H36_15 H 0.149498 0.46337 0.791818
H22_15 H 0.0212 0.4602 0.9906
C11_13 C 0.99162(18) 0.50504(19) 0.6552(8)
H14_13 H 0.9719 0.5002 0.6533
H16_13 H 0.9873 0.5455 0.5904
C34_15 C 0.9789(2) 0.4539(2) 0.0306(9)
C38_15 C 0.9612(2) 0.4400(2) 0.1135(9)
C44_15 C 0.99674(18) 0.37244(18) 0.4674(7)
H27_15 H 0.9413 0.4438 0.1128
H30_15 H 0.9864 0.3740 0.5385
Nd1_8 Nd 0.820913(9) 0.850179(9) 0.63772(4)
O1_16 O 0.79861(12) 0.88515(13) 0.4970(5)
O2_16 O 0.85371(13) 0.80726(12) 0.6138(5)
O3_16 O 0.86312(12) 0.86242(12) 0.7676(5)
O4_16 O 0.85903(12) 0.86594(12) 0.5045(5)
O5_16 O 0.80316(12) 0.81741(13) 0.4664(5)
O6_16 O 0.76858(13) 0.82549(13) 0.5993(5)
O7_8 O 0.81406(12) 0.81828(12) 0.8028(5)
O8_8 O 0.78444(16) 0.87210(15) 0.7784(6)
O9_8 O 0.81586(16) 0.90523(16) 0.7221(6)
H1_16 H 0.8652 0.8103 0.5555
H2_16 H 0.8434 0.7921 0.5999
H3_16 H 0.8781 0.8658 0.7245
H4_16 H 0.8667 0.8481 0.8137
C1_16 C 0.86314(17) 0.87419(17) 0.3993(7)
C2_16 C 0.77769(18) 0.81366(18) 0.5061(8)
C3_16 C 0.89007(18) 0.89300(17) 0.3801(7)
O10_16 O 0.84711(12) 0.86974(12) 0.3118(5)
C4_16 C 0.75759(18) 0.79182(18) 0.4443(8)
C5_16 C 0.8893(2) 0.9152(2) 0.2969(8)
C6_16 C 0.91512(18) 0.89042(18) 0.4510(7)
Nd2_16 Nd 0.823456(9) 0.849722(9) 0.14104(4)
C7_16 C 0.76447(19) 0.76212(18) 0.4485(8)
C8_16 C 0.73079(18) 0.79956(19) 0.3937(8)
H5_16 H 0.8734 0.9168 0.2455
C9_16 C 0.9121(2) 0.9351(2) 0.2898(9)
C10_16 C 0.92171(16) 0.86617(17) 0.5366(7)
O13_16 O 0.82049(14) 0.90589(13) 0.1157(5)
O14_16 O 0.87670(12) 0.84411(13) 0.1162(5)
O15_16 O 0.83417(12) 0.80611(11) 0.2675(5)
O16_16 O 0.77978(16) 0.85774(16) 0.0075(6)
O17_16 O 0.77271(13) 0.82393(14) 0.2175(6)
O18_16 O 0.78493(13) 0.86876(13) 0.2709(5)
H6_16 H 0.7822 0.7561 0.4805
C11_14 C 0.74496(19) 0.74162(18) 0.4052(8)
C12_16 C 0.72080(18) 0.82999(17) 0.3747(8)
N2_16 N 0.71093(16) 0.77940(15) 0.3594(7)
H7_16 H 0.9124 0.9494 0.2309
C13_16 C 0.9341(2) 0.9332(2) 0.3713(9)
C14_16 C 0.91721(17) 0.83649(17) 0.5132(7)
C16_16 C 0.83353(18) 0.90477(18) 0.0194(7)
H8_16 H 0.8808 0.8314 0.0595
H9_16 H 0.8848 0.8378 0.1827
H10_16 H 0.8518 0.8074 0.2966
H11_16 H 0.8330 0.7902 0.2252
H12_16 H 0.7697 0.8735 0.0302
H13_16 H 0.7677 0.8425 0.0102
C17_16 C 0.7671(2) 0.8473(2) 0.2695(8)
H14_14 H 0.7498 0.7219 0.4033
C18_16 C 0.71811(19) 0.75113(18) 0.3648(7)
C19_16 C 0.73789(19) 0.85215(19) 0.3264(8)
N4_16 N 0.69263(15) 0.83469(15) 0.4064(7)
H15_16 H 0.9483 0.9477 0.3723
C20_16 C 0.92522(18) 0.81709(19) 0.5998(7)
C21_16 C 0.90396(17) 0.82527(17) 0.3975(7)
C22_16 C 0.94131(18) 0.85582(18) 0.7225(7)
H16_14 H 0.7045 0.7373 0.3404
C25_16 C 0.72566(19) 0.88021(18) 0.3177(9)
C26_16 C 0.6814(2) 0.86134(19) 0.3973(8)
C27_16 C 0.93727(19) 0.82646(19) 0.7061(8)
H17_16 H 0.9225 0.7972 0.5870
O19_16 O 0.91388(13) 0.83542(13) 0.3010(5)
O20_16 O 0.88405(12) 0.80690(12) 0.4073(5)
H18_16 H 0.9495 0.8623 0.7934
C32_16 C 0.69757(19) 0.88486(19) 0.3554(9)
H19_16 H 0.7366 0.8955 0.2864
H20_16 H 0.6620 0.8643 0.4196
H21_16 H 0.9425 0.8132 0.7650
C33_16 C 0.85845(17) 0.75833(16) 0.0321(7)
H24_16 H 0.6895 0.9035 0.3531
C37_16 C 0.88144(18) 0.77689(17) 0.0098(7)
C43_16 C 0.90295(18) 0.77995(18) 0.0964(7)
C44_16 C 0.87756(18) 0.74674(18) 0.2174(7)
H29_16 H 0.9188 0.7922 0.0832
C47_16 C 0.90062(17) 0.76458(17) 0.2026(7)
H30_16 H 0.8760 0.7364 0.2885
H32_16 H 0.7325 0.9734 0.0091
H33_16 H 0.9146 0.7666 0.2620
H35_16 H 0.814232 0.895572 0.452793
H36_16 H 0.78663 0.899498 0.541818
O11_16 O 0.82577(13) 0.81153(12) 0.9950(5)
O12_16 O 0.84092(18) 0.88069(14) 0.9728(6)
C15_16 C 0.82024(17) 0.80256(17) 0.8917(7)
C23_16 C 0.81905(18) 0.77002(17) 0.8741(7)
C24_16 C 0.84139(18) 0.93237(18) 0.9552(7)
C28_16 C 0.83453(19) 0.75073(18) 0.9455(7)
C29_16 C 0.8000(2) 0.7587(2) 0.7906(8)
C30_16 C 0.8206(2) 0.9505(2) 0.9032(9)
C31_16 C 0.8708(2) 0.9405(2) 0.9544(9)
C34_16 C 0.7961(2) 0.7289(2) 0.7806(9)
H22_16 H 0.7898 0.7712 0.7406
C35_16 C 0.7891(2) 0.9439(2) 0.9089(9)
N7_16 N 0.8287(2) 0.97618(19) 0.8496(8)
C36_16 C 0.8790(3) 0.9669(2) 0.9062(10)
H23_16 H 0.8848 0.9281 0.9864
C38_16 C 0.8100(2) 0.7112(2) 0.8635(9)
H25_12 H 0.7845 0.7210 0.7207
C39_16 C 0.7946(2) 0.8968(2) 0.7833(9)
C40_16 C 0.7774(2) 0.9189(2) 0.8625(9)
N8_16 N 0.7721(2) 0.9647(2) 0.9584(8)
C41_16 C 0.8581(3) 0.9822(3) 0.8567(10)
H26_16 H 0.8982 0.9735 0.9086
C42_16 C 0.88426(17) 0.79409(19) 0.8939(7)
H27_16 H 0.8062 0.6913 0.8628
C45_16 C 0.7475(3) 0.9129(3) 0.8868(10)
C46_16 C 0.7440(3) 0.9587(3) 0.9763(10)
H28_16 H 0.8640 0.9995 0.8212
O21_16 O 0.89096(12) 0.82049(13) 0.9042(5)
O22_16 O 0.88005(13) 0.78075(13) 0.7981(5)
H31_16 H 0.7392 0.8956 0.8599
C48_16 C 0.7307(3) 0.9328(3) 0.9504(10)
H34_16 H 0.7116 0.9287 0.9738
C11_15 C 0.99162(18) 0.00504(19) 0.3448(8)
H14_15 H 0.9719 0.0002 0.3467
H16_15 H 0.9873 0.0455 0.4096
H25_13 H 0.9710 0.9655 0.0293
H25_14 H 0.0290 0.5345 0.0293
H25_15 H 0.0290 0.0345 0.9707
C11_16 C 0.00838(18) 0.99496(19) 0.6552(8)
H14_16 H 0.0281 0.9998 0.6533
H16_16 H 0.0127 0.9545 0.5904
H25_16 H 0.9710 0.4655 0.9707
loop_
_geom_bond_atom_site_label_1
_geom_bond_atom_site_label_2
_geom_bond_site_symmetry_1
_geom_bond_site_symmetry_2
O11 Nd2 1_555 1_555
O12 Nd2 1_555 1_555
O13 Nd2 1_555 1_555
O14 Nd2 1_555 1_555
O16 Nd2 1_555 1_555
O17 Nd2 1_555 1_555
C15 O11 1_555 1_555
C16 O12 1_555 1_555
H8 O14 1_555 1_555
H9 O14 1_555 1_555
H12 O16 1_555 1_555
H13 O16 1_555 1_555
C23 C15 1_555 1_555
C24 C16 1_555 1_555
C28 C23 1_555 1_555
C29 C23 1_555 1_555
C30 C24 1_555 1_555
C31 C24 1_555 1_555
C33 C28 1_555 1_555
C34 C29 1_555 1_555
H22 C29 1_555 1_555
C35 C30 1_555 1_555
N7 C30 1_555 1_555
C36 C31 1_555 1_555
H23 C31 1_555 1_555
C37 C33 1_555 1_555
C38 C34 1_555 1_555
H25 C34 1_555 1_555
C39 C40 1_555 1_555
C40 C35 1_555 1_555
N8 C35 1_555 1_555
C41 N7 1_555 1_555
H26 C36 1_555 1_555
C42 C37 1_555 1_555
C43 C37 1_555 1_555
C44 C47 1_555 1_555
H27 C38 1_555 1_555
C45 C40 1_555 1_555
C46 N8 1_555 1_555
H28 C41 1_555 1_555
O21 C42 1_555 1_555
O22 C42 1_555 1_555
H29 C43 1_555 1_555
C47 C43 1_555 1_555
H31 C45 1_555 1_555
C48 C45 1_555 1_555
H32 C46 1_555 1_555
H34 C48 1_555 1_555
O23 C15 1_555 1_555
Nd3 O23 1_555 1_555
N11 C28 1_555 1_555
O24 C39 1_555 1_555
O25 C39 1_555 1_555
N12 C33 1_555 1_555
Co3 N11 1_555 1_555
O13 C16 1_555 1_555
C36 C41 1_555 1_555
C38 N11 1_555 1_555
C44 N12 1_555 1_555
C46 C48 1_555 1_555
Nd3 O24 1_555 1_555
Nd3 O25 1_555 1_555
N12 Co3 1_555 1_555
Nd3 O1 1_555 1_555
O2 Nd3 1_555 1_555
O3 Nd3 1_555 1_555
O4 Nd3 1_555 1_555
O5 Nd3 1_555 1_555
O6 Nd3 1_555 1_555
H1 O2 1_555 1_555
H2 O2 1_555 1_555
H3 O3 1_555 1_555
H4 O3 1_555 1_555
C1 O4 1_555 1_555
C2 O5 1_555 1_555
C3 C1 1_555 1_555
O10 C1 1_555 1_555
C4 C2 1_555 1_555
C5 C3 1_555 1_555
C6 C3 1_555 1_555
C7 C4 1_555 1_555
C8 C4 1_555 1_555
C9 C5 1_555 1_555
C10 C6 1_555 1_555
N1 C6 1_555 1_555
H6 C7 1_555 1_555
C11 C7 1_555 1_555
C12 C8 1_555 1_555
N2 C8 1_555 1_555
C13 C9 1_555 1_555
C14 C10 1_555 1_555
N3 C10 1_555 1_555
Co1 N1 1_555 1_555
H10 O15 1_555 1_555
H14 C11 1_555 1_555
C18 C11 1_555 1_555
C19 C12 1_555 1_555
N4 C12 1_555 1_555
H15 C13 1_555 1_555
C20 C14 1_555 1_555
C21 C14 1_555 1_555
C22 N3 1_555 1_555
H16 C18 1_555 1_555
C25 C19 1_555 1_555
C26 N4 1_555 1_555
N5 Co2 1_555 1_555
N6 Co2 1_555 1_555
C27 C20 1_555 1_555
H17 C20 1_555 1_555
O19 C21 1_555 1_555
O20 C21 1_555 1_555
H18 C22 1_555 1_555
C32 C25 1_555 1_555
H19 C25 1_555 1_555
H20 C26 1_555 1_555
H21 C27 1_555 1_555
H24 C32 1_555 1_555
Co2 N2 1_555 1_555
N10 Co2 1_555 1_555
O6 C2 1_555 1_555
N1 C13 1_555 1_555
O18 C17 1_555 1_555
N2 C18 1_555 1_555
N3 Co1 1_555 1_555
C17 C19 1_555 1_555
N4 Co2 1_555 1_555
C22 C27 1_555 1_555
C26 C32 1_555 1_555
O1 H35 1_555 1_555
O1 H36 1_555 1_555
C3_2 C1_2 1_555 1_555
O10_2 C1_2 1_555 1_555
C5_2 C3_2 1_555 1_555
C6_2 C3_2 1_555 1_555
Nd2_2 O10_2 1_555 1_555
C7_2 C4_2 1_555 1_555
C8_2 C4_2 1_555 1_555
H5_2 C5_2 1_555 1_555
C9_2 C5_2 1_555 1_555
N1_2 C6_2 1_555 1_555
O11_2 Nd2_2 1_555 1_555
O12_2 Nd2_2 1_555 1_555
O13_2 Nd2_2 1_555 1_555
O14_2 Nd2_2 1_555 1_555
O15_2 Nd2_2 1_555 1_555
O16_2 Nd2_2 1_555 1_555
O17_2 Nd2_2 1_555 1_555
O18_2 Nd2_2 1_555 1_555
H6_2 C7_2 1_555 1_555
C11_2 C7_2 1_555 1_555
C12_2 C8_2 1_555 1_555
N2_2 C8_2 1_555 1_555
H7_2 C9_2 1_555 1_555
C13_2 C9_2 1_555 1_555
C15_2 O11_2 1_555 1_555
C16_2 O12_2 1_555 1_555
H8_2 O14_2 1_555 1_555
H9_2 O14_2 1_555 1_555
H10_2 O15_2 1_555 1_555
H11_2 O15_2 1_555 1_555
H12_2 O16_2 1_555 1_555
H13_2 O16_2 1_555 1_555
C17_2 O17_2 1_555 1_555
H14_2 C11_2 1_555 1_555
C18_2 C11_2 1_555 1_555
C19_2 C12_2 1_555 1_555
N4_2 C12_2 1_555 1_555
H15_2 C13_2 1_555 1_555
C23_2 C15_2 1_555 1_555
C24_2 C16_2 1_555 1_555
H16_2 C18_2 1_555 1_555
C25_2 C19_2 1_555 1_555
C26_2 N4_2 1_555 1_555
N5_2 Co2_2 1_555 1_555
O19_2 C21_2 1_555 1_555
O20_2 C21_2 1_555 1_555
C28_2 C23_2 1_555 1_555
C29_2 C23_2 1_555 1_555
C30_2 C24_2 1_555 1_555
C31_2 C24_2 1_555 1_555
C32_2 C25_2 1_555 1_555
H19_2 C25_2 1_555 1_555
H20_2 C26_2 1_555 1_555
C33_2 C28_2 1_555 1_555
C34_2 C29_2 1_555 1_555
H22_2 C29_2 1_555 1_555
C35_2 C30_2 1_555 1_555
N7_2 C30_2 1_555 1_555
C36_2 C31_2 1_555 1_555
H23_2 C31_2 1_555 1_555
H24_2 C32_2 1_555 1_555
C37_2 C33_2 1_555 1_555
C38_2 C34_2 1_555 1_555
H25_2 C34_2 1_555 1_555
C39_2 C40_2 1_555 1_555
C40_2 C35_2 1_555 1_555
N8_2 C35_2 1_555 1_555
C41_2 N7_2 1_555 1_555
H26_2 C36_2 1_555 1_555
C42_2 C37_2 1_555 1_555
C43_2 C37_2 1_555 1_555
C44_2 C47_2 1_555 1_555
H27_2 C38_2 1_555 1_555
C45_2 C40_2 1_555 1_555
C46_2 N8_2 1_555 1_555
H28_2 C41_2 1_555 1_555
O21_2 C42_2 1_555 1_555
O22_2 C42_2 1_555 1_555
H29_2 C43_2 1_555 1_555
C47_2 C43_2 1_555 1_555
H30_2 C44_2 1_555 1_555
H31_2 C45_2 1_555 1_555
C48_2 C45_2 1_555 1_555
H32_2 C46_2 1_555 1_555
H33_2 C47_2 1_555 1_555
H34_2 C48_2 1_555 1_555
Co2_2 N2_2 1_555 1_555
O23_2 C15_2 1_555 1_555
N9_2 Co2_2 1_555 1_555
N10_2 Co2_2 1_555 1_555
Nd3_2 O23_2 1_555 1_555
N11_2 C28_2 1_555 1_555
O24_2 C39_2 1_555 1_555
O25_2 C39_2 1_555 1_555
N12_2 C33_2 1_555 1_555
Co3_2 N11_2 1_555 1_555
N1_2 C13_2 1_555 1_555
O13_2 C16_2 1_555 1_555
O18_2 C17_2 1_555 1_555
N2_2 C18_2 1_555 1_555
C17_2 C19_2 1_555 1_555
N4_2 Co2_2 1_555 1_555
C26_2 C32_2 1_555 1_555
C36_2 C41_2 1_555 1_555
C38_2 N11_2 1_555 1_555
C44_2 N12_2 1_555 1_555
C46_2 C48_2 1_555 1_555
Nd3_2 O24_2 1_555 1_555
Nd3_2 O25_2 1_555 1_555
N12_2 Co3_2 1_555 1_555
O1_2 H35_2 1_555 1_555
O2_2 Nd3_2 1_555 1_555
O3_2 Nd3_2 1_555 1_555
O4_2 Nd3_2 1_555 1_555
O6_2 Nd3_2 1_555 1_555
H1_2 O2_2 1_555 1_555
H2_2 O2_2 1_555 1_555
H3_2 O3_2 1_555 1_555
H4_2 O3_2 1_555 1_555
C14_2 C10_2 1_555 1_555
N3_2 C10_2 1_555 1_555
C20_2 C14_2 1_555 1_555
C22_2 N3_2 1_555 1_555
C27_2 C20_2 1_555 1_555
H17_2 C20_2 1_555 1_555
H18_2 C22_2 1_555 1_555
H21_2 C27_2 1_555 1_555
O6_2 C2_2 1_555 1_555
N3_2 Co1_2 1_555 1_555
C22_2 C27_2 1_555 1_555
O11_3 Nd2_3 1_555 1_555
O12_3 Nd2_3 1_555 1_555
O13_3 Nd2_3 1_555 1_555
O14_3 Nd2_3 1_555 1_555
O16_3 Nd2_3 1_555 1_555
O17_3 Nd2_3 1_555 1_555
C15_3 O11_3 1_555 1_555
C16_3 O12_3 1_555 1_555
H8_3 O14_3 1_555 1_555
H9_3 O14_3 1_555 1_555
H12_3 O16_3 1_555 1_555
H13_3 O16_3 1_555 1_555
C23_3 C15_3 1_555 1_555
C24_3 C16_3 1_555 1_555
C28_3 C23_3 1_555 1_555
C29_3 C23_3 1_555 1_555
C30_3 C24_3 1_555 1_555
C31_3 C24_3 1_555 1_555
C33_3 C28_3 1_555 1_555
C34_3 C29_3 1_555 1_555
H22_3 C29_3 1_555 1_555
C35_3 C30_3 1_555 1_555
N7_3 C30_3 1_555 1_555
C36_3 C31_3 1_555 1_555
H23_3 C31_3 1_555 1_555
C37_3 C33_3 1_555 1_555
C38_3 C34_3 1_555 1_555
H25_3 C34_3 1_555 1_555
C39_3 C40_3 1_555 1_555
C40_3 C35_3 1_555 1_555
N8_3 C35_3 1_555 1_555
C41_3 N7_3 1_555 1_555
H26_3 C36_3 1_555 1_555
C42_3 C37_3 1_555 1_555
C43_3 C37_3 1_555 1_555
C44_3 C47_3 1_555 1_555
H27_3 C38_3 1_555 1_555
H28_3 C41_3 1_555 1_555
O21_3 C42_3 1_555 1_555
O22_3 C42_3 1_555 1_555
H29_3 C43_3 1_555 1_555
C47_3 C43_3 1_555 1_555
O23_3 C15_3 1_555 1_555
Nd3_3 O23_3 1_555 1_555
N11_3 C28_3 1_555 1_555
O24_3 C39_3 1_555 1_555
O25_3 C39_3 1_555 1_555
N12_3 C33_3 1_555 1_555
Co3_3 N11_3 1_555 1_555
O13_3 C16_3 1_555 1_555
C36_3 C41_3 1_555 1_555
C38_3 N11_3 1_555 1_555
C44_3 N12_3 1_555 1_555
Nd3_3 O24_3 1_555 1_555
Nd3_3 O25_3 1_555 1_555
N12_3 Co3_3 1_555 1_555
Nd3_3 O1_3 1_555 1_555
O2_3 Nd3_3 1_555 1_555
O3_3 Nd3_3 1_555 1_555
O4_3 Nd3_3 1_555 1_555
O5_3 Nd3_3 1_555 1_555
O6_3 Nd3_3 1_555 1_555
H1_3 O2_3 1_555 1_555
H2_3 O2_3 1_555 1_555
H3_3 O3_3 1_555 1_555
H4_3 O3_3 1_555 1_555
C1_3 O4_3 1_555 1_555
C2_3 O5_3 1_555 1_555
C3_3 C1_3 1_555 1_555
O10_3 C1_3 1_555 1_555
C4_3 C2_3 1_555 1_555
C5_3 C3_3 1_555 1_555
C6_3 C3_3 1_555 1_555
C7_3 C4_3 1_555 1_555
C9_3 C5_3 1_555 1_555
C10_3 C6_3 1_555 1_555
N1_3 C6_3 1_555 1_555
H6_3 C7_3 1_555 1_555
C13_3 C9_3 1_555 1_555
C14_3 C10_3 1_555 1_555
N3_3 C10_3 1_555 1_555
Co1_3 N1_3 1_555 1_555
H10_3 O15_3 1_555 1_555
H15_3 C13_3 1_555 1_555
C20_3 C14_3 1_555 1_555
C21_3 C14_3 1_555 1_555
C22_3 N3_3 1_555 1_555
C27_3 C20_3 1_555 1_555
H17_3 C20_3 1_555 1_555
O19_3 C21_3 1_555 1_555
O20_3 C21_3 1_555 1_555
H18_3 C22_3 1_555 1_555
H21_3 C27_3 1_555 1_555
O6_3 C2_3 1_555 1_555
N1_3 C13_3 1_555 1_555
O18_3 C17_3 1_555 1_555
N3_3 Co1_3 1_555 1_555
C22_3 C27_3 1_555 1_555
O1_3 H35_3 1_555 1_555
O1_3 H36_3 1_555 1_555
H31_3 C45_3 1_555 1_555
C48_3 C45_3 1_555 1_555
H32_3 C46_3 1_555 1_555
H34_3 C48_3 1_555 1_555
C46_3 C48_3 1_555 1_555
C12_3 C8_3 1_555 1_555
N2_3 C8_3 1_555 1_555
H14_3 C11_3 1_555 1_555
C18_3 C11_3 1_555 1_555
C19_3 C12_3 1_555 1_555
N4_3 C12_3 1_555 1_555
H16_3 C18_3 1_555 1_555
C25_3 C19_3 1_555 1_555
C26_3 N4_3 1_555 1_555
N5_3 Co1_2 1_555 1_555
N6_3 Co1_2 1_555 1_555
C32_3 C25_3 1_555 1_555
H19_3 C25_3 1_555 1_555
H20_3 C26_3 1_555 1_555
H24_3 C32_3 1_555 1_555
Co1_2 N2_3 1_555 1_555
N2_3 C18_3 1_555 1_555
N4_3 Co1_2 1_555 1_555
C26_3 C32_3 1_555 1_555
C3_4 C1_4 1_555 1_555
O10_4 C1_4 1_555 1_555
C5_4 C3_4 1_555 1_555
C6_4 C3_4 1_555 1_555
Nd2_4 O10_4 1_555 1_555
C7_4 C4_4 1_555 1_555
C8_4 C4_4 1_555 1_555
H5_4 C5_4 1_555 1_555
C9_4 C5_4 1_555 1_555
N9 C6_4 1_555 1_555
O11_4 Nd2_4 1_555 1_555
O12_4 Nd2_4 1_555 1_555
O13_4 Nd2_4 1_555 1_555
O14_4 Nd2_4 1_555 1_555
O15_4 Nd2_4 1_555 1_555
O16_4 Nd2_4 1_555 1_555
O17_4 Nd2_4 1_555 1_555
O18_4 Nd2_4 1_555 1_555
H6_4 C7_4 1_555 1_555
C11_4 C7_4 1_555 1_555
C12_4 C8_4 1_555 1_555
N2_4 C8_4 1_555 1_555
H7_4 C9_4 1_555 1_555
C13_4 C9_4 1_555 1_555
C15_4 O11_4 1_555 1_555
C16_4 O12_4 1_555 1_555
H8_4 O14_4 1_555 1_555
H9_4 O14_4 1_555 1_555
H10_4 O15_4 1_555 1_555
H11_4 O15_4 1_555 1_555
H12_4 O16_4 1_555 1_555
H13_4 O16_4 1_555 1_555
C17_4 O17_4 1_555 1_555
H14_4 C11_4 1_555 1_555
C18_4 C11_4 1_555 1_555
C19_4 C12_4 1_555 1_555
N4_4 C12_4 1_555 1_555
H15_4 C13_4 1_555 1_555
C23_4 C15_4 1_555 1_555
C24_4 C16_4 1_555 1_555
H16_4 C18_4 1_555 1_555
C25_4 C19_4 1_555 1_555
C26_4 N4_4 1_555 1_555
N5_4 Co2_3 1_555 1_555
O19_4 C21_4 1_555 1_555
O20_4 C21_4 1_555 1_555
C28_4 C23_4 1_555 1_555
C29_4 C23_4 1_555 1_555
C30_4 C24_4 1_555 1_555
C31_4 C24_4 1_555 1_555
C32_4 C25_4 1_555 1_555
H19_4 C25_4 1_555 1_555
H20_4 C26_4 1_555 1_555
C33_4 C28_4 1_555 1_555
C34_4 C29_4 1_555 1_555
H22_4 C29_4 1_555 1_555
C35_4 C30_4 1_555 1_555
N7_4 C30_4 1_555 1_555
C36_4 C31_4 1_555 1_555
H23_4 C31_4 1_555 1_555
H24_4 C32_4 1_555 1_555
C37_4 C33_4 1_555 1_555
C38_4 C34_4 1_555 1_555
H25_4 C34_4 1_555 1_555
C39_4 C40_4 1_555 1_555
C40_4 C35_4 1_555 1_555
N8_4 C35_4 1_555 1_555
C41_4 N7_4 1_555 1_555
H26_4 C36_4 1_555 1_555
C42_4 C37_4 1_555 1_555
C43_4 C37_4 1_555 1_555
C44_4 C47_4 1_555 1_555
H27_4 C38_4 1_555 1_555
C45_4 C40_4 1_555 1_555
C46_4 N8_4 1_555 1_555
H28_4 C41_4 1_555 1_555
O21_4 C42_4 1_555 1_555
O22_4 C42_4 1_555 1_555
H29_4 C43_4 1_555 1_555
C47_4 C43_4 1_555 1_555
H30_4 C44_4 1_555 1_555
H31_4 C45_4 1_555 1_555
C48_4 C45_4 1_555 1_555
H32_4 C46_4 1_555 1_555
H33_4 C47_4 1_555 1_555
H34_4 C48_4 1_555 1_555
Co2_3 N2_4 1_555 1_555
O23_4 C15_4 1_555 1_555
N9_3 Co2_3 1_555 1_555
N10_3 Co2_3 1_555 1_555
Nd3_4 O23_4 1_555 1_555
N11_4 C28_4 1_555 1_555
O24_4 C39_4 1_555 1_555
O25_4 C39_4 1_555 1_555
N12_4 C33_4 1_555 1_555
Co3_4 N11_4 1_555 1_555
N9 C13_4 1_555 1_555
O13_4 C16_4 1_555 1_555
O18_4 C17_4 1_555 1_555
N2_4 C18_4 1_555 1_555
C17_4 C19_4 1_555 1_555
N4_4 Co2_3 1_555 1_555
C26_4 C32_4 1_555 1_555
C36_4 C41_4 1_555 1_555
C38_4 N11_4 1_555 1_555
C44_4 N12_4 1_555 1_555
C46_4 C48_4 1_555 1_555
Nd3_4 O24_4 1_555 1_555
Nd3_4 O25_4 1_555 1_555
N12_4 Co3_4 1_555 1_555
O1_4 H35_4 1_555 1_555
O2_4 Nd3_4 1_555 1_555
O3_4 Nd3_4 1_555 1_555
O4_4 Nd3_4 1_555 1_555
O6_4 Nd3_4 1_555 1_555
H1_4 O2_4 1_555 1_555
H2_4 O2_4 1_555 1_555
H3_4 O3_4 1_555 1_555
H4_4 O3_4 1_555 1_555
C14_4 C10_4 1_555 1_555
N10 C10_4 1_555 1_555
C20_4 C14_4 1_555 1_555
C22_4 N10 1_555 1_555
C27_4 C20_4 1_555 1_555
H17_4 C20_4 1_555 1_555
H18_4 C22_4 1_555 1_555
H21_4 C27_4 1_555 1_555
O6_4 C2_4 1_555 1_555
C22_4 C27_4 1_555 1_555
C12_5 C8_5 1_555 1_555
N2_5 C8_5 1_555 1_555
C19_5 C12_5 1_555 1_555
N4_5 C12_5 1_555 1_555
C25_5 C19_5 1_555 1_555
C26_5 N4_5 1_555 1_555
N5_5 Co2_4 1_555 1_555
N6_5 Co2_4 1_555 1_555
C32_5 C25_5 1_555 1_555
H19_5 C25_5 1_555 1_555
H20_5 C26_5 1_555 1_555
H24_5 C32_5 1_555 1_555
H31_5 C45_5 1_555 1_555
C48_5 C45_5 1_555 1_555
H32_5 C46_5 1_555 1_555
H34_5 C48_5 1_555 1_555
Co2_4 N2_5 1_555 1_555
N9_4 Co2_4 1_555 1_555
N10_4 Co2_4 1_555 1_555
N2_5 C18_5 1_555 1_555
N4_5 Co2_4 1_555 1_555
C26_5 C32_5 1_555 1_555
C46_5 C48_5 1_555 1_555
Nd3_5 O25_5 1_555 1_555
Nd3_5 O1_5 1_555 1_555
O2_5 Nd3_5 1_555 1_555
O4_5 Nd3_5 1_555 1_555
O5_5 Nd3_5 1_555 1_555
O6_5 Nd3_5 1_555 1_555
H1_5 O2_5 1_555 1_555
H2_5 O2_5 1_555 1_555
C1_5 O4_5 1_555 1_555
C2_5 O5_5 1_555 1_555
C3_5 C1_5 1_555 1_555
O10_5 C1_5 1_555 1_555
C4_5 C2_5 1_555 1_555
C5_5 C3_5 1_555 1_555
C6_5 C3_5 1_555 1_555
Nd2_5 O10_5 1_555 1_555
C7_5 C4_5 1_555 1_555
H5_5 C5_5 1_555 1_555
C9_5 C5_5 1_555 1_555
C10_5 C6_5 1_555 1_555
N9_2 C6_5 1_555 1_555
O11_5 Nd2_5 1_555 1_555
O12_5 Nd2_5 1_555 1_555
O13_5 Nd2_5 1_555 1_555
O14_5 Nd2_5 1_555 1_555
O15_5 Nd2_5 1_555 1_555
O16_5 Nd2_5 1_555 1_555
O17_5 Nd2_5 1_555 1_555
O18_5 Nd2_5 1_555 1_555
H6_5 C7_5 1_555 1_555
H7_5 C9_5 1_555 1_555
C13_5 C9_5 1_555 1_555
C14_5 C10_5 1_555 1_555
N10_2 C10_5 1_555 1_555
C15_5 O11_5 1_555 1_555
C16_5 O12_5 1_555 1_555
H8_5 O14_5 1_555 1_555
H9_5 O14_5 1_555 1_555
H10_5 O15_5 1_555 1_555
H11_5 O15_5 1_555 1_555
H12_5 O16_5 1_555 1_555
H13_5 O16_5 1_555 1_555
C17_5 O17_5 1_555 1_555
H15_5 C13_5 1_555 1_555
C20_5 C14_5 1_555 1_555
C21_5 C14_5 1_555 1_555
C22_5 N10_2 1_555 1_555
C23_5 C15_5 1_555 1_555
C24_5 C16_5 1_555 1_555
C27_5 C20_5 1_555 1_555
H17_5 C20_5 1_555 1_555
O19_5 C21_5 1_555 1_555
O20_5 C21_5 1_555 1_555
C28_5 C23_5 1_555 1_555
C29_5 C23_5 1_555 1_555
C30_5 C24_5 1_555 1_555
C31_5 C24_5 1_555 1_555
C33_5 C28_5 1_555 1_555
C35_5 C30_5 1_555 1_555
N7_5 C30_5 1_555 1_555
C36_5 C31_5 1_555 1_555
H23_5 C31_5 1_555 1_555
C37_5 C33_5 1_555 1_555
C39_5 C40_5 1_555 1_555
C40_5 C35_5 1_555 1_555
N8_5 C35_5 1_555 1_555
C41_5 N7_5 1_555 1_555
H26_5 C36_5 1_555 1_555
C42_5 C37_5 1_555 1_555
C43_5 C37_5 1_555 1_555
H28_5 C41_5 1_555 1_555
O21_5 C42_5 1_555 1_555
O22_5 C42_5 1_555 1_555
H29_5 C43_5 1_555 1_555
C47_5 C43_5 1_555 1_555
H33_5 C47_5 1_555 1_555
O23_5 C15_5 1_555 1_555
O24_5 C39_5 1_555 1_555
O6_5 C2_5 1_555 1_555
N9_2 C13_5 1_555 1_555
O13_5 C16_5 1_555 1_555
O18_5 C17_5 1_555 1_555
C22_5 C27_5 1_555 1_555
C36_5 C41_5 1_555 1_555
O1_5 H35_5 1_555 1_555
O1_5 H36_5 1_555 1_555
H4_5 O3_5 1_555 1_555
C38_5 C34_5 1_555 1_555
H27_5 C38_5 1_555 1_555
H30_5 C44_5 1_555 1_555
Co3_5 N11_5 1_555 1_555
C38_5 N11_5 1_555 1_555
C44_5 N12_5 1_555 1_555
N12_5 Co3_5 1_555 1_555
C15_6 O11_6 1_555 1_555
C23_6 C15_6 1_555 1_555
C28_6 C23_6 1_555 1_555
C29_6 C23_6 1_555 1_555
C30_6 C24_6 1_555 1_555
C31_6 C24_6 1_555 1_555
C34_6 C29_6 1_555 1_555
H22_6 C29_6 1_555 1_555
C35_6 C30_6 1_555 1_555
N7_6 C30_6 1_555 1_555
C36_6 C31_6 1_555 1_555
H23_6 C31_6 1_555 1_555
C38_6 C34_6 1_555 1_555
H25_5 C34_6 1_555 1_555
C39_6 C40_6 1_555 1_555
C40_6 C35_6 1_555 1_555
N8_6 C35_6 1_555 1_555
C41_6 N7_6 1_555 1_555
H26_6 C36_6 1_555 1_555
H27_6 C38_6 1_555 1_555
C45_6 C40_6 1_555 1_555
C46_6 N8_6 1_555 1_555
H28_6 C41_6 1_555 1_555
O21_6 C42_6 1_555 1_555
O22_6 C42_6 1_555 1_555
H31_6 C45_6 1_555 1_555
C48_6 C45_6 1_555 1_555
H34_6 C48_6 1_555 1_555
O23_6 C15_6 1_555 1_555
Nd3_6 O23_6 1_555 1_555
N11_6 C28_6 1_555 1_555
O24_6 C39_6 1_555 1_555
O25_6 C39_6 1_555 1_555
C36_6 C41_6 1_555 1_555
C38_6 N11_6 1_555 1_555
C46_6 C48_6 1_555 1_555
Nd3_6 O24_6 1_555 1_555
Nd3_6 O25_6 1_555 1_555
Nd3_6 O1_6 1_555 1_555
O2_6 Nd3_6 1_555 1_555
O3_6 Nd3_6 1_555 1_555
O4_6 Nd3_6 1_555 1_555
O5_6 Nd3_6 1_555 1_555
O6_6 Nd3_6 1_555 1_555
H1_6 O2_6 1_555 1_555
H2_6 O2_6 1_555 1_555
H3_6 O3_6 1_555 1_555
H4_6 O3_6 1_555 1_555
C1_6 O4_6 1_555 1_555
C2_6 O5_6 1_555 1_555
C3_6 C1_6 1_555 1_555
O10_6 C1_6 1_555 1_555
C4_6 C2_6 1_555 1_555
C5_6 C3_6 1_555 1_555
C6_6 C3_6 1_555 1_555
Nd2_6 O10_6 1_555 1_555
C7_6 C4_6 1_555 1_555
C8_6 C4_6 1_555 1_555
H5_6 C5_6 1_555 1_555
C9_6 C5_6 1_555 1_555
C10_6 C6_6 1_555 1_555
N1_4 C6_6 1_555 1_555
O13_6 Nd2_6 1_555 1_555
O14_6 Nd2_6 1_555 1_555
O15_6 Nd2_6 1_555 1_555
O16_6 Nd2_6 1_555 1_555
O17_6 Nd2_6 1_555 1_555
O18_6 Nd2_6 1_555 1_555
H6_6 C7_6 1_555 1_555
C11_5 C7_6 1_555 1_555
C12_6 C8_6 1_555 1_555
N2_6 C8_6 1_555 1_555
H7_6 C9_6 1_555 1_555
C13_6 C9_6 1_555 1_555
C14_6 C10_6 1_555 1_555
N3_4 C10_6 1_555 1_555
Co1_4 N1_4 1_555 1_555
H8_6 O14_6 1_555 1_555
H9_6 O14_6 1_555 1_555
H10_6 O15_6 1_555 1_555
H11_6 O15_6 1_555 1_555
H12_6 O16_6 1_555 1_555
H13_6 O16_6 1_555 1_555
C17_6 O17_6 1_555 1_555
H14_5 C11_5 1_555 1_555
C18_6 C11_5 1_555 1_555
C19_6 C12_6 1_555 1_555
N4_6 C12_6 1_555 1_555
H15_6 C13_6 1_555 1_555
C20_6 C14_6 1_555 1_555
C21_6 C14_6 1_555 1_555
C22_6 N3_4 1_555 1_555
H16_5 C18_6 1_555 1_555
C25_6 C19_6 1_555 1_555
C26_6 N4_6 1_555 1_555
N5_6 Co1 1_555 1_555
N6_6 Co1 1_555 1_555
C27_6 C20_6 1_555 1_555
H17_6 C20_6 1_555 1_555
O19_6 C21_6 1_555 1_555
O20_6 C21_6 1_555 1_555
H18_6 C22_6 1_555 1_555
C32_6 C25_6 1_555 1_555
H19_6 C25_6 1_555 1_555
H20_6 C26_6 1_555 1_555
H21_6 C27_6 1_555 1_555
H24_6 C32_6 1_555 1_555
C37_6 C33_6 1_555 1_555
C43_6 C37_6 1_555 1_555
C44_6 C47_6 1_555 1_555
H29_6 C43_6 1_555 1_555
C47_6 C43_6 1_555 1_555
H30_6 C44_6 1_555 1_555
H33_6 C47_6 1_555 1_555
Co1 N2_6 1_555 1_555
N12_6 C33_6 1_555 1_555
O6_6 C2_6 1_555 1_555
N1_4 C13_6 1_555 1_555
O13_6 C16_6 1_555 1_555
O18_6 C17_6 1_555 1_555
N2_6 C18_6 1_555 1_555
N3_4 Co1_4 1_555 1_555
C17_6 C19_6 1_555 1_555
N4_6 Co1 1_555 1_555
C22_6 C27_6 1_555 1_555
C26_6 C32_6 1_555 1_555
C44_6 N12_6 1_555 1_555
N12_6 Co3_6 1_555 1_555
O1_6 H35_6 1_555 1_555
O1_6 H36_6 1_555 1_555
H14_6 C11_6 1_555 1_555
C38_7 C34_7 1_555 1_555
H27_7 C38_7 1_555 1_555
H30_7 C44_7 1_555 1_555
Co3_7 N11_7 1_555 1_555
C38_7 N11_7 1_555 1_555
C44_7 N12_7 1_555 1_555
N12_7 Co3_7 1_555 1_555
Nd3_7 O25_7 1_555 1_555
Nd3_7 O1_7 1_555 1_555
O2_7 Nd3_7 1_555 1_555
O4_7 Nd3_7 1_555 1_555
O5_7 Nd3_7 1_555 1_555
O6_7 Nd3_7 1_555 1_555
H1_7 O2_7 1_555 1_555
H2_7 O2_7 1_555 1_555
C1_7 O4_7 1_555 1_555
C2_7 O5_7 1_555 1_555
C3_7 C1_7 1_555 1_555
O10_7 C1_7 1_555 1_555
C4_7 C2_7 1_555 1_555
C5_7 C3_7 1_555 1_555
C6_7 C3_7 1_555 1_555
Nd2_7 O10_7 1_555 1_555
C7_7 C4_7 1_555 1_555
C8_7 C4_7 1_555 1_555
H5_7 C5_7 1_555 1_555
C9_7 C5_7 1_555 1_555
C10_7 C6_7 1_555 1_555
N9_3 C6_7 1_555 1_555
O11_7 Nd2_7 1_555 1_555
O12_7 Nd2_7 1_555 1_555
O13_7 Nd2_7 1_555 1_555
O14_7 Nd2_7 1_555 1_555
O15_7 Nd2_7 1_555 1_555
O16_7 Nd2_7 1_555 1_555
O17_7 Nd2_7 1_555 1_555
O18_7 Nd2_7 1_555 1_555
H6_7 C7_7 1_555 1_555
C12_7 C8_7 1_555 1_555
N2_7 C8_7 1_555 1_555
H7_7 C9_7 1_555 1_555
C13_7 C9_7 1_555 1_555
C14_7 C10_7 1_555 1_555
N10_3 C10_7 1_555 1_555
C15_7 O11_7 1_555 1_555
C16_7 O12_7 1_555 1_555
H8_7 O14_7 1_555 1_555
H9_7 O14_7 1_555 1_555
H10_7 O15_7 1_555 1_555
H11_7 O15_7 1_555 1_555
H12_7 O16_7 1_555 1_555
H13_7 O16_7 1_555 1_555
C17_7 O17_7 1_555 1_555
C19_7 C12_7 1_555 1_555
N4_7 C12_7 1_555 1_555
H15_7 C13_7 1_555 1_555
C20_7 C14_7 1_555 1_555
C21_7 C14_7 1_555 1_555
C22_7 N10_3 1_555 1_555
C23_7 C15_7 1_555 1_555
C24_7 C16_7 1_555 1_555
C25_7 C19_7 1_555 1_555
C26_7 N4_7 1_555 1_555
N5_7 Co1_4 1_555 1_555
N6_7 Co1_4 1_555 1_555
C27_7 C20_7 1_555 1_555
H17_7 C20_7 1_555 1_555
O19_7 C21_7 1_555 1_555
O20_7 C21_7 1_555 1_555
C28_7 C23_7 1_555 1_555
C29_7 C23_7 1_555 1_555
C30_7 C24_7 1_555 1_555
C31_7 C24_7 1_555 1_555
C32_7 C25_7 1_555 1_555
H19_7 C25_7 1_555 1_555
H20_7 C26_7 1_555 1_555
C33_7 C28_7 1_555 1_555
C35_7 C30_7 1_555 1_555
N7_7 C30_7 1_555 1_555
C36_7 C31_7 1_555 1_555
H23_7 C31_7 1_555 1_555
H24_7 C32_7 1_555 1_555
C37_7 C33_7 1_555 1_555
C39_7 C40_7 1_555 1_555
C40_7 C35_7 1_555 1_555
N8_7 C35_7 1_555 1_555
C41_7 N7_7 1_555 1_555
H26_7 C36_7 1_555 1_555
C42_7 C37_7 1_555 1_555
C43_7 C37_7 1_555 1_555
C45_7 C40_7 1_555 1_555
C46_7 N8_7 1_555 1_555
H28_7 C41_7 1_555 1_555
O21_7 C42_7 1_555 1_555
O22_7 C42_7 1_555 1_555
H29_7 C43_7 1_555 1_555
C47_7 C43_7 1_555 1_555
H31_7 C45_7 1_555 1_555
C48_7 C45_7 1_555 1_555
H32_7 C46_7 1_555 1_555
H33_7 C47_7 1_555 1_555
H34_7 C48_7 1_555 1_555
Co1_4 N2_7 1_555 1_555
O23_7 C15_7 1_555 1_555
O24_7 C39_7 1_555 1_555
O6_7 C2_7 1_555 1_555
N9_3 C13_7 1_555 1_555
O13_7 C16_7 1_555 1_555
O18_7 C17_7 1_555 1_555
N2_7 C18_7 1_555 1_555
C17_7 C19_7 1_555 1_555
N4_7 Co1_4 1_555 1_555
C22_7 C27_7 1_555 1_555
C26_7 C32_7 1_555 1_555
C36_7 C41_7 1_555 1_555
C46_7 C48_7 1_555 1_555
O1_7 H35_7 1_555 1_555
O1_7 H36_7 1_555 1_555
H4_7 O3_7 1_555 1_555
C15_8 O11_8 1_555 1_555
C23_8 C15_8 1_555 1_555
C28_8 C23_8 1_555 1_555
C29_8 C23_8 1_555 1_555
C30_8 C24_8 1_555 1_555
C31_8 C24_8 1_555 1_555
C34_8 C29_8 1_555 1_555
H22_8 C29_8 1_555 1_555
C35_8 C30_8 1_555 1_555
N7_8 C30_8 1_555 1_555
C36_8 C31_8 1_555 1_555
H23_8 C31_8 1_555 1_555
C38_8 C34_8 1_555 1_555
H25_6 C34_8 1_555 1_555
C39_8 C40_8 1_555 1_555
C40_8 C35_8 1_555 1_555
N8_8 C35_8 1_555 1_555
C41_8 N7_8 1_555 1_555
H26_8 C36_8 1_555 1_555
H27_8 C38_8 1_555 1_555
C45_8 C40_8 1_555 1_555
C46_8 N8_8 1_555 1_555
H28_8 C41_8 1_555 1_555
O21_8 C42_8 1_555 1_555
O22_8 C42_8 1_555 1_555
H31_8 C45_8 1_555 1_555
C48_8 C45_8 1_555 1_555
H34_8 C48_8 1_555 1_555
O23_8 C15_8 1_555 1_555
Nd3_8 O23_8 1_555 1_555
N11_8 C28_8 1_555 1_555
O24_8 C39_8 1_555 1_555
O25_8 C39_8 1_555 1_555
C36_8 C41_8 1_555 1_555
C38_8 N11_8 1_555 1_555
C46_8 C48_8 1_555 1_555
Nd3_8 O24_8 1_555 1_555
Nd3_8 O25_8 1_555 1_555
Nd3_8 O1_8 1_555 1_555
O2_8 Nd3_8 1_555 1_555
O3_8 Nd3_8 1_555 1_555
O4_8 Nd3_8 1_555 1_555
O5_8 Nd3_8 1_555 1_555
O6_8 Nd3_8 1_555 1_555
H1_8 O2_8 1_555 1_555
H2_8 O2_8 1_555 1_555
H3_8 O3_8 1_555 1_555
H4_8 O3_8 1_555 1_555
C1_8 O4_8 1_555 1_555
C2_8 O5_8 1_555 1_555
C3_8 C1_8 1_555 1_555
O10_8 C1_8 1_555 1_555
C4_8 C2_8 1_555 1_555
C5_8 C3_8 1_555 1_555
C6_8 C3_8 1_555 1_555
Nd2_8 O10_8 1_555 1_555
C7_8 C4_8 1_555 1_555
C8_8 C4_8 1_555 1_555
H5_8 C5_8 1_555 1_555
C9_8 C5_8 1_555 1_555
C10_8 C6_8 1_555 1_555
N9_4 C6_8 1_555 1_555
O13_8 Nd2_8 1_555 1_555
O14_8 Nd2_8 1_555 1_555
O15_8 Nd2_8 1_555 1_555
O16_8 Nd2_8 1_555 1_555
O17_8 Nd2_8 1_555 1_555
O18_8 Nd2_8 1_555 1_555
H6_8 C7_8 1_555 1_555
C11_7 C7_8 1_555 1_555
C12_8 C8_8 1_555 1_555
N2_8 C8_8 1_555 1_555
H7_8 C9_8 1_555 1_555
C13_8 C9_8 1_555 1_555
C14_8 C10_8 1_555 1_555
N10_4 C10_8 1_555 1_555
H8_8 O14_8 1_555 1_555
H9_8 O14_8 1_555 1_555
H10_8 O15_8 1_555 1_555
H11_8 O15_8 1_555 1_555
H12_8 O16_8 1_555 1_555
H13_8 O16_8 1_555 1_555
C17_8 O17_8 1_555 1_555
H14_7 C11_7 1_555 1_555
C18_8 C11_7 1_555 1_555
C19_8 C12_8 1_555 1_555
N4_8 C12_8 1_555 1_555
H15_8 C13_8 1_555 1_555
C20_8 C14_8 1_555 1_555
C21_8 C14_8 1_555 1_555
C22_8 N10_4 1_555 1_555
H16_7 C18_8 1_555 1_555
C25_8 C19_8 1_555 1_555
C26_8 N4_8 1_555 1_555
N5_8 Co1_3 1_555 1_555
N6_8 Co1_3 1_555 1_555
C27_8 C20_8 1_555 1_555
H17_8 C20_8 1_555 1_555
O19_8 C21_8 1_555 1_555
O20_8 C21_8 1_555 1_555
H18_8 C22_8 1_555 1_555
C32_8 C25_8 1_555 1_555
H19_8 C25_8 1_555 1_555
H20_8 C26_8 1_555 1_555
H21_8 C27_8 1_555 1_555
H24_8 C32_8 1_555 1_555
C37_8 C33_8 1_555 1_555
C43_8 C37_8 1_555 1_555
C44_8 C47_8 1_555 1_555
H29_8 C43_8 1_555 1_555
C47_8 C43_8 1_555 1_555
H30_8 C44_8 1_555 1_555
H33_8 C47_8 1_555 1_555
Co1_3 N2_8 1_555 1_555
N12_8 C33_8 1_555 1_555
O6_8 C2_8 1_555 1_555
N9_4 C13_8 1_555 1_555
O13_8 C16_8 1_555 1_555
O18_8 C17_8 1_555 1_555
N2_8 C18_8 1_555 1_555
C17_8 C19_8 1_555 1_555
N4_8 Co1_3 1_555 1_555
C22_8 C27_8 1_555 1_555
C26_8 C32_8 1_555 1_555
C44_8 N12_8 1_555 1_555
N12_8 Co3_8 1_555 1_555
O1_8 H35_8 1_555 1_555
O1_8 H36_8 1_555 1_555
Nd1 O1_9 1_555 1_555
O2_9 Nd1 1_555 1_555
O3_9 Nd1 1_555 1_555
O4_9 Nd1 1_555 1_555
O5_9 Nd1 1_555 1_555
O6_9 Nd1 1_555 1_555
O7 Nd1 1_555 1_555
O8 Nd1 1_555 1_555
O9 Nd1 1_555 1_555
H1_9 O2_9 1_555 1_555
H2_9 O2_9 1_555 1_555
H3_9 O3_9 1_555 1_555
H4_9 O3_9 1_555 1_555
C1_9 O4_9 1_555 1_555
C2_9 O5_9 1_555 1_555
C3_9 C1_9 1_555 1_555
O10_9 C1_9 1_555 1_555
C4_9 C2_9 1_555 1_555
C5_9 C3_9 1_555 1_555
C6_9 C3_9 1_555 1_555
C7_9 C4_9 1_555 1_555
C8_9 C4_9 1_555 1_555
C9_9 C5_9 1_555 1_555
C10_9 C6_9 1_555 1_555
N1_5 C6_9 1_555 1_555
H6_9 C7_9 1_555 1_555
C11_8 C7_9 1_555 1_555
C12_9 C8_9 1_555 1_555
N2_9 C8_9 1_555 1_555
C13_9 C9_9 1_555 1_555
C14_9 C10_9 1_555 1_555
N3_5 C10_9 1_555 1_555
Co3_2 N1_5 1_555 1_555
H10_9 O15_9 1_555 1_555
H14_8 C11_8 1_555 1_555
C18_9 C11_8 1_555 1_555
C19_9 C12_9 1_555 1_555
N4_9 C12_9 1_555 1_555
H15_9 C13_9 1_555 1_555
C20_9 C14_9 1_555 1_555
C21_9 C14_9 1_555 1_555
C22_9 N3_5 1_555 1_555
H16_8 C18_9 1_555 1_555
C25_9 C19_9 1_555 1_555
C26_9 N4_9 1_555 1_555
C27_9 C20_9 1_555 1_555
H17_9 C20_9 1_555 1_555
O19_9 C21_9 1_555 1_555
O20_9 C21_9 1_555 1_555
H18_9 C22_9 1_555 1_555
C32_9 C25_9 1_555 1_555
H19_9 C25_9 1_555 1_555
H20_9 C26_9 1_555 1_555
H21_9 C27_9 1_555 1_555
H24_9 C32_9 1_555 1_555
Co3 N2_9 1_555 1_555
N10_5 Co3 1_555 1_555
O6_9 C2_9 1_555 1_555
N1_5 C13_9 1_555 1_555
O18_9 C17_9 1_555 1_555
N2_9 C18_9 1_555 1_555
N3_5 Co3_2 1_555 1_555
C17_9 C19_9 1_555 1_555
N4_9 Co3 1_555 1_555
C22_9 C27_9 1_555 1_555
C26_9 C32_9 1_555 1_555
O1_9 H35_9 1_555 1_555
O1_9 H36_9 1_555 1_555
O11_9 Nd2_9 1_555 1_555
O12_9 Nd2_9 1_555 1_555
O13_9 Nd2_9 1_555 1_555
O14_9 Nd2_9 1_555 1_555
O16_9 Nd2_9 1_555 1_555
O17_9 Nd2_9 1_555 1_555
C15_9 O11_9 1_555 1_555
C16_9 O12_9 1_555 1_555
H8_9 O14_9 1_555 1_555
H9_9 O14_9 1_555 1_555
H12_9 O16_9 1_555 1_555
H13_9 O16_9 1_555 1_555
C23_9 C15_9 1_555 1_555
C24_9 C16_9 1_555 1_555
C28_9 C23_9 1_555 1_555
C29_9 C23_9 1_555 1_555
C30_9 C24_9 1_555 1_555
C31_9 C24_9 1_555 1_555
C33_9 C28_9 1_555 1_555
C34_9 C29_9 1_555 1_555
H22_9 C29_9 1_555 1_555
C35_9 C30_9 1_555 1_555
N7_9 C30_9 1_555 1_555
C36_9 C31_9 1_555 1_555
H23_9 C31_9 1_555 1_555
C37_9 C33_9 1_555 1_555
C38_9 C34_9 1_555 1_555
H25_7 C34_9 1_555 1_555
C39_9 C40_9 1_555 1_555
C40_9 C35_9 1_555 1_555
N8_9 C35_9 1_555 1_555
C41_9 N7_9 1_555 1_555
H26_9 C36_9 1_555 1_555
C42_9 C37_9 1_555 1_555
C43_9 C37_9 1_555 1_555
C44_9 C47_9 1_555 1_555
H27_9 C38_9 1_555 1_555
C45_9 C40_9 1_555 1_555
C46_9 N8_9 1_555 1_555
H28_9 C41_9 1_555 1_555
O21_9 C42_9 1_555 1_555
O22_9 C42_9 1_555 1_555
H29_9 C43_9 1_555 1_555
C47_9 C43_9 1_555 1_555
H31_9 C45_9 1_555 1_555
C48_9 C45_9 1_555 1_555
H32_9 C46_9 1_555 1_555
H34_9 C48_9 1_555 1_555
O7 C15_9 1_555 1_555
N6 C28_9 1_555 1_555
O8 C39_9 1_555 1_555
O9 C39_9 1_555 1_555
N5 C33_9 1_555 1_555
O13_9 C16_9 1_555 1_555
C36_9 C41_9 1_555 1_555
C38_9 N6 1_555 1_555
C44_9 N5 1_555 1_555
C46_9 C48_9 1_555 1_555
O2_10 Nd1_2 1_555 1_555
O3_10 Nd1_2 1_555 1_555
O4_10 Nd1_2 1_555 1_555
O6_10 Nd1_2 1_555 1_555
O7_2 Nd1_2 1_555 1_555
O8_2 Nd1_2 1_555 1_555
O9_2 Nd1_2 1_555 1_555
H1_10 O2_10 1_555 1_555
H2_10 O2_10 1_555 1_555
H3_10 O3_10 1_555 1_555
H4_10 O3_10 1_555 1_555
C14_10 C10_10 1_555 1_555
N3_6 C10_10 1_555 1_555
C20_10 C14_10 1_555 1_555
C22_10 N3_6 1_555 1_555
C27_10 C20_10 1_555 1_555
H17_10 C20_10 1_555 1_555
H18_10 C22_10 1_555 1_555
H21_10 C27_10 1_555 1_555
O6_10 C2_10 1_555 1_555
N3_6 Co3_3 1_555 1_555
C22_10 C27_10 1_555 1_555
C3_10 C1_10 1_555 1_555
O10_10 C1_10 1_555 1_555
C5_10 C3_10 1_555 1_555
C6_10 C3_10 1_555 1_555
Nd2_10 O10_10 1_555 1_555
C7_10 C4_10 1_555 1_555
C8_10 C4_10 1_555 1_555
H5_10 C5_10 1_555 1_555
C9_10 C5_10 1_555 1_555
N1_6 C6_10 1_555 1_555
O11_10 Nd2_10 1_555 1_555
O12_10 Nd2_10 1_555 1_555
O13_10 Nd2_10 1_555 1_555
O14_10 Nd2_10 1_555 1_555
O15_10 Nd2_10 1_555 1_555
O16_10 Nd2_10 1_555 1_555
O17_10 Nd2_10 1_555 1_555
O18_10 Nd2_10 1_555 1_555
H6_10 C7_10 1_555 1_555
C11_9 C7_10 1_555 1_555
C12_10 C8_10 1_555 1_555
N2_10 C8_10 1_555 1_555
H7_10 C9_10 1_555 1_555
C13_10 C9_10 1_555 1_555
C15_10 O11_10 1_555 1_555
C16_10 O12_10 1_555 1_555
H8_10 O14_10 1_555 1_555
H9_10 O14_10 1_555 1_555
H10_10 O15_10 1_555 1_555
H11_10 O15_10 1_555 1_555
H12_10 O16_10 1_555 1_555
H13_10 O16_10 1_555 1_555
C17_10 O17_10 1_555 1_555
H14_9 C11_9 1_555 1_555
C18_10 C11_9 1_555 1_555
C19_10 C12_10 1_555 1_555
N4_10 C12_10 1_555 1_555
H15_10 C13_10 1_555 1_555
C23_10 C15_10 1_555 1_555
C24_10 C16_10 1_555 1_555
H16_9 C18_10 1_555 1_555
C25_10 C19_10 1_555 1_555
C26_10 N4_10 1_555 1_555
O19_10 C21_10 1_555 1_555
O20_10 C21_10 1_555 1_555
C28_10 C23_10 1_555 1_555
C29_10 C23_10 1_555 1_555
C30_10 C24_10 1_555 1_555
C31_10 C24_10 1_555 1_555
C32_10 C25_10 1_555 1_555
H19_10 C25_10 1_555 1_555
H20_10 C26_10 1_555 1_555
C33_10 C28_10 1_555 1_555
C34_10 C29_10 1_555 1_555
H22_10 C29_10 1_555 1_555
C35_10 C30_10 1_555 1_555
N7_10 C30_10 1_555 1_555
C36_10 C31_10 1_555 1_555
H23_10 C31_10 1_555 1_555
H24_10 C32_10 1_555 1_555
C37_10 C33_10 1_555 1_555
C38_10 C34_10 1_555 1_555
H25_8 C34_10 1_555 1_555
C39_10 C40_10 1_555 1_555
C40_10 C35_10 1_555 1_555
N8_10 C35_10 1_555 1_555
C41_10 N7_10 1_555 1_555
H26_10 C36_10 1_555 1_555
C42_10 C37_10 1_555 1_555
C43_10 C37_10 1_555 1_555
C44_10 C47_10 1_555 1_555
H27_10 C38_10 1_555 1_555
C45_10 C40_10 1_555 1_555
C46_10 N8_10 1_555 1_555
H28_10 C41_10 1_555 1_555
O21_10 C42_10 1_555 1_555
O22_10 C42_10 1_555 1_555
H29_10 C43_10 1_555 1_555
C47_10 C43_10 1_555 1_555
H30_10 C44_10 1_555 1_555
H31_10 C45_10 1_555 1_555
C48_10 C45_10 1_555 1_555
H32_10 C46_10 1_555 1_555
H33_10 C47_10 1_555 1_555
H34_10 C48_10 1_555 1_555
Co3_6 N2_10 1_555 1_555
O7_2 C15_10 1_555 1_555
N9_6 Co3_6 1_555 1_555
N10_6 Co3_6 1_555 1_555
N6_6 C28_10 1_555 1_555
O8_2 C39_10 1_555 1_555
O9_2 C39_10 1_555 1_555
N5_6 C33_10 1_555 1_555
N1_6 C13_10 1_555 1_555
O13_10 C16_10 1_555 1_555
O18_10 C17_10 1_555 1_555
N2_10 C18_10 1_555 1_555
C17_10 C19_10 1_555 1_555
N4_10 Co3_6 1_555 1_555
C26_10 C32_10 1_555 1_555
C36_10 C41_10 1_555 1_555
C38_10 N6_6 1_555 1_555
C44_10 N5_6 1_555 1_555
C46_10 C48_10 1_555 1_555
O1_10 H35_10 1_555 1_555
C12_11 C8_11 1_555 1_555
N2_11 C8_11 1_555 1_555
H14_10 C11_10 1_555 1_555
C18_11 C11_10 1_555 1_555
C19_11 C12_11 1_555 1_555
N4_11 C12_11 1_555 1_555
H16_10 C18_11 1_555 1_555
C25_11 C19_11 1_555 1_555
C26_11 N4_11 1_555 1_555
C32_11 C25_11 1_555 1_555
H19_11 C25_11 1_555 1_555
H20_11 C26_11 1_555 1_555
H24_11 C32_11 1_555 1_555
Co3_3 N2_11 1_555 1_555
N2_11 C18_11 1_555 1_555
N4_11 Co3_3 1_555 1_555
C26_11 C32_11 1_555 1_555
H31_11 C45_11 1_555 1_555
C48_11 C45_11 1_555 1_555
H32_11 C46_11 1_555 1_555
H34_11 C48_11 1_555 1_555
C46_11 C48_11 1_555 1_555
Nd1_3 O1_11 1_555 1_555
O2_11 Nd1_3 1_555 1_555
O3_11 Nd1_3 1_555 1_555
O4_11 Nd1_3 1_555 1_555
O5_11 Nd1_3 1_555 1_555
O6_11 Nd1_3 1_555 1_555
O7_3 Nd1_3 1_555 1_555
O8_3 Nd1_3 1_555 1_555
O9_3 Nd1_3 1_555 1_555
H1_11 O2_11 1_555 1_555
H2_11 O2_11 1_555 1_555
H3_11 O3_11 1_555 1_555
H4_11 O3_11 1_555 1_555
C1_11 O4_11 1_555 1_555
C2_11 O5_11 1_555 1_555
C3_11 C1_11 1_555 1_555
O10_11 C1_11 1_555 1_555
C4_11 C2_11 1_555 1_555
C5_11 C3_11 1_555 1_555
C6_11 C3_11 1_555 1_555
C7_11 C4_11 1_555 1_555
C9_11 C5_11 1_555 1_555
C10_11 C6_11 1_555 1_555
N1_7 C6_11 1_555 1_555
H6_11 C7_11 1_555 1_555
C13_11 C9_11 1_555 1_555
C14_11 C10_11 1_555 1_555
N3_7 C10_11 1_555 1_555
Co3_4 N1_7 1_555 1_555
H10_11 O15_11 1_555 1_555
H15_11 C13_11 1_555 1_555
C20_11 C14_11 1_555 1_555
C21_11 C14_11 1_555 1_555
C22_11 N3_7 1_555 1_555
C27_11 C20_11 1_555 1_555
H17_11 C20_11 1_555 1_555
O19_11 C21_11 1_555 1_555
O20_11 C21_11 1_555 1_555
H18_11 C22_11 1_555 1_555
H21_11 C27_11 1_555 1_555
O6_11 C2_11 1_555 1_555
N1_7 C13_11 1_555 1_555
O18_11 C17_11 1_555 1_555
N3_7 Co3_4 1_555 1_555
C22_11 C27_11 1_555 1_555
O1_11 H35_11 1_555 1_555
O1_11 H36_11 1_555 1_555
O11_11 Nd2_11 1_555 1_555
O12_11 Nd2_11 1_555 1_555
O13_11 Nd2_11 1_555 1_555
O14_11 Nd2_11 1_555 1_555
O16_11 Nd2_11 1_555 1_555
O17_11 Nd2_11 1_555 1_555
C15_11 O11_11 1_555 1_555
C16_11 O12_11 1_555 1_555
H8_11 O14_11 1_555 1_555
H9_11 O14_11 1_555 1_555
H12_11 O16_11 1_555 1_555
H13_11 O16_11 1_555 1_555
C23_11 C15_11 1_555 1_555
C24_11 C16_11 1_555 1_555
C28_11 C23_11 1_555 1_555
C29_11 C23_11 1_555 1_555
C30_11 C24_11 1_555 1_555
C31_11 C24_11 1_555 1_555
C33_11 C28_11 1_555 1_555
C34_11 C29_11 1_555 1_555
H22_11 C29_11 1_555 1_555
C35_11 C30_11 1_555 1_555
N7_11 C30_11 1_555 1_555
C36_11 C31_11 1_555 1_555
H23_11 C31_11 1_555 1_555
C37_11 C33_11 1_555 1_555
C38_11 C34_11 1_555 1_555
H25_9 C34_11 1_555 1_555
C39_11 C40_11 1_555 1_555
C40_11 C35_11 1_555 1_555
N8_11 C35_11 1_555 1_555
C41_11 N7_11 1_555 1_555
H26_11 C36_11 1_555 1_555
C42_11 C37_11 1_555 1_555
C43_11 C37_11 1_555 1_555
C44_11 C47_11 1_555 1_555
H27_11 C38_11 1_555 1_555
H28_11 C41_11 1_555 1_555
O21_11 C42_11 1_555 1_555
O22_11 C42_11 1_555 1_555
H29_11 C43_11 1_555 1_555
C47_11 C43_11 1_555 1_555
O7_3 C15_11 1_555 1_555
N6_3 C28_11 1_555 1_555
O8_3 C39_11 1_555 1_555
O9_3 C39_11 1_555 1_555
N5_3 C33_11 1_555 1_555
O13_11 C16_11 1_555 1_555
C36_11 C41_11 1_555 1_555
C38_11 N6_3 1_555 1_555
C44_11 N5_3 1_555 1_555
O2_12 Nd1_4 1_555 1_555
O3_12 Nd1_4 1_555 1_555
O4_12 Nd1_4 1_555 1_555
O6_12 Nd1_4 1_555 1_555
O7_4 Nd1_4 1_555 1_555
O8_4 Nd1_4 1_555 1_555
O9_4 Nd1_4 1_555 1_555
H1_12 O2_12 1_555 1_555
H2_12 O2_12 1_555 1_555
H3_12 O3_12 1_555 1_555
H4_12 O3_12 1_555 1_555
C14_12 C10_12 1_555 1_555
N10_5 C10_12 1_555 1_555
C20_12 C14_12 1_555 1_555
C22_12 N10_5 1_555 1_555
C27_12 C20_12 1_555 1_555
H17_12 C20_12 1_555 1_555
H18_12 C22_12 1_555 1_555
H21_12 C27_12 1_555 1_555
O6_12 C2_12 1_555 1_555
C22_12 C27_12 1_555 1_555
C3_12 C1_12 1_555 1_555
O10_12 C1_12 1_555 1_555
C5_12 C3_12 1_555 1_555
C6_12 C3_12 1_555 1_555
Nd2_12 O10_12 1_555 1_555
C7_12 C4_12 1_555 1_555
C8_12 C4_12 1_555 1_555
H5_12 C5_12 1_555 1_555
C9_12 C5_12 1_555 1_555
N9_5 C6_12 1_555 1_555
O11_12 Nd2_12 1_555 1_555
O12_12 Nd2_12 1_555 1_555
O13_12 Nd2_12 1_555 1_555
O14_12 Nd2_12 1_555 1_555
O15_12 Nd2_12 1_555 1_555
O16_12 Nd2_12 1_555 1_555
O17_12 Nd2_12 1_555 1_555
O18_12 Nd2_12 1_555 1_555
H6_12 C7_12 1_555 1_555
C11_11 C7_12 1_555 1_555
C12_12 C8_12 1_555 1_555
N2_12 C8_12 1_555 1_555
H7_12 C9_12 1_555 1_555
C13_12 C9_12 1_555 1_555
C15_12 O11_12 1_555 1_555
C16_12 O12_12 1_555 1_555
H8_12 O14_12 1_555 1_555
H9_12 O14_12 1_555 1_555
H10_12 O15_12 1_555 1_555
H11_12 O15_12 1_555 1_555
H12_12 O16_12 1_555 1_555
H13_12 O16_12 1_555 1_555
C17_12 O17_12 1_555 1_555
H14_11 C11_11 1_555 1_555
C18_12 C11_11 1_555 1_555
C19_12 C12_12 1_555 1_555
N4_12 C12_12 1_555 1_555
H15_12 C13_12 1_555 1_555
C23_12 C15_12 1_555 1_555
C24_12 C16_12 1_555 1_555
H16_11 C18_12 1_555 1_555
C25_12 C19_12 1_555 1_555
C26_12 N4_12 1_555 1_555
O19_12 C21_12 1_555 1_555
O20_12 C21_12 1_555 1_555
C28_12 C23_12 1_555 1_555
C29_12 C23_12 1_555 1_555
C30_12 C24_12 1_555 1_555
C31_12 C24_12 1_555 1_555
C32_12 C25_12 1_555 1_555
H19_12 C25_12 1_555 1_555
H20_12 C26_12 1_555 1_555
C33_12 C28_12 1_555 1_555
C34_12 C29_12 1_555 1_555
H22_12 C29_12 1_555 1_555
C35_12 C30_12 1_555 1_555
N7_12 C30_12 1_555 1_555
C36_12 C31_12 1_555 1_555
H23_12 C31_12 1_555 1_555
H24_12 C32_12 1_555 1_555
C37_12 C33_12 1_555 1_555
C38_12 C34_12 1_555 1_555
H25_10 C34_12 1_555 1_555
C39_12 C40_12 1_555 1_555
C40_12 C35_12 1_555 1_555
N8_12 C35_12 1_555 1_555
C41_12 N7_12 1_555 1_555
H26_12 C36_12 1_555 1_555
C42_12 C37_12 1_555 1_555
C43_12 C37_12 1_555 1_555
C44_12 C47_12 1_555 1_555
H27_12 C38_12 1_555 1_555
C45_12 C40_12 1_555 1_555
C46_12 N8_12 1_555 1_555
H28_12 C41_12 1_555 1_555
O21_12 C42_12 1_555 1_555
O22_12 C42_12 1_555 1_555
H29_12 C43_12 1_555 1_555
C47_12 C43_12 1_555 1_555
H30_12 C44_12 1_555 1_555
H31_12 C45_12 1_555 1_555
C48_12 C45_12 1_555 1_555
H32_12 C46_12 1_555 1_555
H33_12 C47_12 1_555 1_555
H34_12 C48_12 1_555 1_555
Co3_8 N2_12 1_555 1_555
O7_4 C15_12 1_555 1_555
N9_7 Co3_8 1_555 1_555
N10_7 Co3_8 1_555 1_555
N6_8 C28_12 1_555 1_555
O8_4 C39_12 1_555 1_555
O9_4 C39_12 1_555 1_555
N5_8 C33_12 1_555 1_555
N9_5 C13_12 1_555 1_555
O13_12 C16_12 1_555 1_555
O18_12 C17_12 1_555 1_555
N2_12 C18_12 1_555 1_555
C17_12 C19_12 1_555 1_555
N4_12 Co3_8 1_555 1_555
C26_12 C32_12 1_555 1_555
C36_12 C41_12 1_555 1_555
C38_12 N6_8 1_555 1_555
C44_12 N5_8 1_555 1_555
C46_12 C48_12 1_555 1_555
O1_12 H35_12 1_555 1_555
C38_13 C34_13 1_555 1_555
H27_13 C38_13 1_555 1_555
H30_13 C44_13 1_555 1_555
C38_13 N6_5 1_555 1_555
C44_13 N5_5 1_555 1_555
H4_13 O3_13 1_555 1_555
Nd1_5 O1_13 1_555 1_555
O2_13 Nd1_5 1_555 1_555
O4_13 Nd1_5 1_555 1_555
O5_13 Nd1_5 1_555 1_555
O6_13 Nd1_5 1_555 1_555
O9_5 Nd1_5 1_555 1_555
H1_13 O2_13 1_555 1_555
H2_13 O2_13 1_555 1_555
C1_13 O4_13 1_555 1_555
C2_13 O5_13 1_555 1_555
C3_13 C1_13 1_555 1_555
O10_13 C1_13 1_555 1_555
C4_13 C2_13 1_555 1_555
C5_13 C3_13 1_555 1_555
C6_13 C3_13 1_555 1_555
Nd2_13 O10_13 1_555 1_555
C7_13 C4_13 1_555 1_555
H5_13 C5_13 1_555 1_555
C9_13 C5_13 1_555 1_555
C10_13 C6_13 1_555 1_555
N9_6 C6_13 1_555 1_555
O11_13 Nd2_13 1_555 1_555
O12_13 Nd2_13 1_555 1_555
O13_13 Nd2_13 1_555 1_555
O14_13 Nd2_13 1_555 1_555
O15_13 Nd2_13 1_555 1_555
O16_13 Nd2_13 1_555 1_555
O17_13 Nd2_13 1_555 1_555
O18_13 Nd2_13 1_555 1_555
H6_13 C7_13 1_555 1_555
H7_13 C9_13 1_555 1_555
C13_13 C9_13 1_555 1_555
C14_13 C10_13 1_555 1_555
N10_6 C10_13 1_555 1_555
C15_13 O11_13 1_555 1_555
C16_13 O12_13 1_555 1_555
H8_13 O14_13 1_555 1_555
H9_13 O14_13 1_555 1_555
H10_13 O15_13 1_555 1_555
H11_13 O15_13 1_555 1_555
H12_13 O16_13 1_555 1_555
H13_13 O16_13 1_555 1_555
C17_13 O17_13 1_555 1_555
H15_13 C13_13 1_555 1_555
C20_13 C14_13 1_555 1_555
C21_13 C14_13 1_555 1_555
C22_13 N10_6 1_555 1_555
C23_13 C15_13 1_555 1_555
C24_13 C16_13 1_555 1_555
C27_13 C20_13 1_555 1_555
H17_13 C20_13 1_555 1_555
O19_13 C21_13 1_555 1_555
O20_13 C21_13 1_555 1_555
C28_13 C23_13 1_555 1_555
C29_13 C23_13 1_555 1_555
C30_13 C24_13 1_555 1_555
C31_13 C24_13 1_555 1_555
C33_13 C28_13 1_555 1_555
C35_13 C30_13 1_555 1_555
N7_13 C30_13 1_555 1_555
C36_13 C31_13 1_555 1_555
H23_13 C31_13 1_555 1_555
C37_13 C33_13 1_555 1_555
C39_13 C40_13 1_555 1_555
C40_13 C35_13 1_555 1_555
N8_13 C35_13 1_555 1_555
C41_13 N7_13 1_555 1_555
H26_13 C36_13 1_555 1_555
C42_13 C37_13 1_555 1_555
C43_13 C37_13 1_555 1_555
H28_13 C41_13 1_555 1_555
O21_13 C42_13 1_555 1_555
O22_13 C42_13 1_555 1_555
H29_13 C43_13 1_555 1_555
C47_13 C43_13 1_555 1_555
H33_13 C47_13 1_555 1_555
O7_5 C15_13 1_555 1_555
O8_5 C39_13 1_555 1_555
O6_13 C2_13 1_555 1_555
N9_6 C13_13 1_555 1_555
O13_13 C16_13 1_555 1_555
O18_13 C17_13 1_555 1_555
C22_13 C27_13 1_555 1_555
C36_13 C41_13 1_555 1_555
O1_13 H35_13 1_555 1_555
O1_13 H36_13 1_555 1_555
C12_13 C8_13 1_555 1_555
N2_13 C8_13 1_555 1_555
C19_13 C12_13 1_555 1_555
N4_13 C12_13 1_555 1_555
C25_13 C19_13 1_555 1_555
C26_13 N4_13 1_555 1_555
C32_13 C25_13 1_555 1_555
H19_13 C25_13 1_555 1_555
H20_13 C26_13 1_555 1_555
H24_13 C32_13 1_555 1_555
H31_13 C45_13 1_555 1_555
C48_13 C45_13 1_555 1_555
H32_13 C46_13 1_555 1_555
H34_13 C48_13 1_555 1_555
Co3_5 N2_13 1_555 1_555
N9_8 Co3_5 1_555 1_555
N10_8 Co3_5 1_555 1_555
N2_13 C18_13 1_555 1_555
N4_13 Co3_5 1_555 1_555
C26_13 C32_13 1_555 1_555
C46_13 C48_13 1_555 1_555
Nd1_6 O1_14 1_555 1_555
O2_14 Nd1_6 1_555 1_555
O3_14 Nd1_6 1_555 1_555
O4_14 Nd1_6 1_555 1_555
O5_14 Nd1_6 1_555 1_555
O6_14 Nd1_6 1_555 1_555
O7_6 Nd1_6 1_555 1_555
O8_6 Nd1_6 1_555 1_555
O9_6 Nd1_6 1_555 1_555
H1_14 O2_14 1_555 1_555
H2_14 O2_14 1_555 1_555
H3_14 O3_14 1_555 1_555
H4_14 O3_14 1_555 1_555
C1_14 O4_14 1_555 1_555
C2_14 O5_14 1_555 1_555
C3_14 C1_14 1_555 1_555
O10_14 C1_14 1_555 1_555
C4_14 C2_14 1_555 1_555
C5_14 C3_14 1_555 1_555
C6_14 C3_14 1_555 1_555
Nd2_14 O10_14 1_555 1_555
C7_14 C4_14 1_555 1_555
C8_14 C4_14 1_555 1_555
H5_14 C5_14 1_555 1_555
C9_14 C5_14 1_555 1_555
C10_14 C6_14 1_555 1_555
N1_8 C6_14 1_555 1_555
O13_14 Nd2_14 1_555 1_555
O14_14 Nd2_14 1_555 1_555
O15_14 Nd2_14 1_555 1_555
O16_14 Nd2_14 1_555 1_555
O17_14 Nd2_14 1_555 1_555
O18_14 Nd2_14 1_555 1_555
H6_14 C7_14 1_555 1_555
C11_12 C7_14 1_555 1_555
C12_14 C8_14 1_555 1_555
N2_14 C8_14 1_555 1_555
H7_14 C9_14 1_555 1_555
C13_14 C9_14 1_555 1_555
C14_14 C10_14 1_555 1_555
N3_8 C10_14 1_555 1_555
Co3_7 N1_8 1_555 1_555
H8_14 O14_14 1_555 1_555
H9_14 O14_14 1_555 1_555
H10_14 O15_14 1_555 1_555
H11_14 O15_14 1_555 1_555
H12_14 O16_14 1_555 1_555
H13_14 O16_14 1_555 1_555
C17_14 O17_14 1_555 1_555
H14_12 C11_12 1_555 1_555
C18_14 C11_12 1_555 1_555
C19_14 C12_14 1_555 1_555
N4_14 C12_14 1_555 1_555
H15_14 C13_14 1_555 1_555
C20_14 C14_14 1_555 1_555
C21_14 C14_14 1_555 1_555
C22_14 N3_8 1_555 1_555
H16_12 C18_14 1_555 1_555
C25_14 C19_14 1_555 1_555
C26_14 N4_14 1_555 1_555
C27_14 C20_14 1_555 1_555
H17_14 C20_14 1_555 1_555
O19_14 C21_14 1_555 1_555
O20_14 C21_14 1_555 1_555
H18_14 C22_14 1_555 1_555
C32_14 C25_14 1_555 1_555
H19_14 C25_14 1_555 1_555
H20_14 C26_14 1_555 1_555
H21_14 C27_14 1_555 1_555
H24_14 C32_14 1_555 1_555
C37_14 C33_14 1_555 1_555
C43_14 C37_14 1_555 1_555
C44_14 C47_14 1_555 1_555
H29_14 C43_14 1_555 1_555
C47_14 C43_14 1_555 1_555
H30_14 C44_14 1_555 1_555
H33_14 C47_14 1_555 1_555
Co3_2 N2_14 1_555 1_555
N5_2 C33_14 1_555 1_555
O6_14 C2_14 1_555 1_555
N1_8 C13_14 1_555 1_555
O13_14 C16_14 1_555 1_555
O18_14 C17_14 1_555 1_555
N2_14 C18_14 1_555 1_555
N3_8 Co3_7 1_555 1_555
C17_14 C19_14 1_555 1_555
N4_14 Co3_2 1_555 1_555
C22_14 C27_14 1_555 1_555
C26_14 C32_14 1_555 1_555
C44_14 N5_2 1_555 1_555
O1_14 H35_14 1_555 1_555
O1_14 H36_14 1_555 1_555
C15_14 O11_14 1_555 1_555
C23_14 C15_14 1_555 1_555
C28_14 C23_14 1_555 1_555
C29_14 C23_14 1_555 1_555
C30_14 C24_14 1_555 1_555
C31_14 C24_14 1_555 1_555
C34_14 C29_14 1_555 1_555
H22_14 C29_14 1_555 1_555
C35_14 C30_14 1_555 1_555
N7_14 C30_14 1_555 1_555
C36_14 C31_14 1_555 1_555
H23_14 C31_14 1_555 1_555
C38_14 C34_14 1_555 1_555
H25_11 C34_14 1_555 1_555
C39_14 C40_14 1_555 1_555
C40_14 C35_14 1_555 1_555
N8_14 C35_14 1_555 1_555
C41_14 N7_14 1_555 1_555
H26_14 C36_14 1_555 1_555
H27_14 C38_14 1_555 1_555
C45_14 C40_14 1_555 1_555
C46_14 N8_14 1_555 1_555
H28_14 C41_14 1_555 1_555
O21_14 C42_14 1_555 1_555
O22_14 C42_14 1_555 1_555
H31_14 C45_14 1_555 1_555
C48_14 C45_14 1_555 1_555
H34_14 C48_14 1_555 1_555
O7_6 C15_14 1_555 1_555
N6_2 C28_14 1_555 1_555
O8_6 C39_14 1_555 1_555
O9_6 C39_14 1_555 1_555
C36_14 C41_14 1_555 1_555
C38_14 N6_2 1_555 1_555
C46_14 C48_14 1_555 1_555
H4_15 O3_15 1_555 1_555
Nd1_7 O1_15 1_555 1_555
O2_15 Nd1_7 1_555 1_555
O4_15 Nd1_7 1_555 1_555
O5_15 Nd1_7 1_555 1_555
O6_15 Nd1_7 1_555 1_555
O9_7 Nd1_7 1_555 1_555
H1_15 O2_15 1_555 1_555
H2_15 O2_15 1_555 1_555
C1_15 O4_15 1_555 1_555
C2_15 O5_15 1_555 1_555
C3_15 C1_15 1_555 1_555
O10_15 C1_15 1_555 1_555
C4_15 C2_15 1_555 1_555
C5_15 C3_15 1_555 1_555
C6_15 C3_15 1_555 1_555
Nd2_15 O10_15 1_555 1_555
C7_15 C4_15 1_555 1_555
C8_15 C4_15 1_555 1_555
H5_15 C5_15 1_555 1_555
C9_15 C5_15 1_555 1_555
C10_15 C6_15 1_555 1_555
N9_7 C6_15 1_555 1_555
O11_15 Nd2_15 1_555 1_555
O12_15 Nd2_15 1_555 1_555
O13_15 Nd2_15 1_555 1_555
O14_15 Nd2_15 1_555 1_555
O15_15 Nd2_15 1_555 1_555
O16_15 Nd2_15 1_555 1_555
O17_15 Nd2_15 1_555 1_555
O18_15 Nd2_15 1_555 1_555
H6_15 C7_15 1_555 1_555
C12_15 C8_15 1_555 1_555
N2_15 C8_15 1_555 1_555
H7_15 C9_15 1_555 1_555
C13_15 C9_15 1_555 1_555
C14_15 C10_15 1_555 1_555
N10_7 C10_15 1_555 1_555
C15_15 O11_15 1_555 1_555
C16_15 O12_15 1_555 1_555
H8_15 O14_15 1_555 1_555
H9_15 O14_15 1_555 1_555
H10_15 O15_15 1_555 1_555
H11_15 O15_15 1_555 1_555
H12_15 O16_15 1_555 1_555
H13_15 O16_15 1_555 1_555
C17_15 O17_15 1_555 1_555
C19_15 C12_15 1_555 1_555
N4_15 C12_15 1_555 1_555
H15_15 C13_15 1_555 1_555
C20_15 C14_15 1_555 1_555
C21_15 C14_15 1_555 1_555
C22_15 N10_7 1_555 1_555
C23_15 C15_15 1_555 1_555
C24_15 C16_15 1_555 1_555
C25_15 C19_15 1_555 1_555
C26_15 N4_15 1_555 1_555
C27_15 C20_15 1_555 1_555
H17_15 C20_15 1_555 1_555
O19_15 C21_15 1_555 1_555
O20_15 C21_15 1_555 1_555
C28_15 C23_15 1_555 1_555
C29_15 C23_15 1_555 1_555
C30_15 C24_15 1_555 1_555
C31_15 C24_15 1_555 1_555
C32_15 C25_15 1_555 1_555
H19_15 C25_15 1_555 1_555
H20_15 C26_15 1_555 1_555
C33_15 C28_15 1_555 1_555
C35_15 C30_15 1_555 1_555
N7_15 C30_15 1_555 1_555
C36_15 C31_15 1_555 1_555
H23_15 C31_15 1_555 1_555
H24_15 C32_15 1_555 1_555
C37_15 C33_15 1_555 1_555
C39_15 C40_15 1_555 1_555
C40_15 C35_15 1_555 1_555
N8_15 C35_15 1_555 1_555
C41_15 N7_15 1_555 1_555
H26_15 C36_15 1_555 1_555
C42_15 C37_15 1_555 1_555
C43_15 C37_15 1_555 1_555
C45_15 C40_15 1_555 1_555
C46_15 N8_15 1_555 1_555
H28_15 C41_15 1_555 1_555
O21_15 C42_15 1_555 1_555
O22_15 C42_15 1_555 1_555
H29_15 C43_15 1_555 1_555
C47_15 C43_15 1_555 1_555
H31_15 C45_15 1_555 1_555
C48_15 C45_15 1_555 1_555
H32_15 C46_15 1_555 1_555
H33_15 C47_15 1_555 1_555
H34_15 C48_15 1_555 1_555
Co3_7 N2_15 1_555 1_555
O7_7 C15_15 1_555 1_555
O8_7 C39_15 1_555 1_555
O6_15 C2_15 1_555 1_555
N9_7 C13_15 1_555 1_555
O13_15 C16_15 1_555 1_555
O18_15 C17_15 1_555 1_555
N2_15 C18_15 1_555 1_555
C17_15 C19_15 1_555 1_555
N4_15 Co3_7 1_555 1_555
C22_15 C27_15 1_555 1_555
C26_15 C32_15 1_555 1_555
C36_15 C41_15 1_555 1_555
C46_15 C48_15 1_555 1_555
O1_15 H35_15 1_555 1_555
O1_15 H36_15 1_555 1_555
H14_13 C11_13 1_555 1_555
C38_15 C34_15 1_555 1_555
H27_15 C38_15 1_555 1_555
H30_15 C44_15 1_555 1_555
C38_15 N6_7 1_555 1_555
C44_15 N5_7 1_555 1_555
Nd1_8 O1_16 1_555 1_555
O2_16 Nd1_8 1_555 1_555
O3_16 Nd1_8 1_555 1_555
O4_16 Nd1_8 1_555 1_555
O5_16 Nd1_8 1_555 1_555
O6_16 Nd1_8 1_555 1_555
O7_8 Nd1_8 1_555 1_555
O8_8 Nd1_8 1_555 1_555
O9_8 Nd1_8 1_555 1_555
H1_16 O2_16 1_555 1_555
H2_16 O2_16 1_555 1_555
H3_16 O3_16 1_555 1_555
H4_16 O3_16 1_555 1_555
C1_16 O4_16 1_555 1_555
C2_16 O5_16 1_555 1_555
C3_16 C1_16 1_555 1_555
O10_16 C1_16 1_555 1_555
C4_16 C2_16 1_555 1_555
C5_16 C3_16 1_555 1_555
C6_16 C3_16 1_555 1_555
Nd2_16 O10_16 1_555 1_555
C7_16 C4_16 1_555 1_555
C8_16 C4_16 1_555 1_555
H5_16 C5_16 1_555 1_555
C9_16 C5_16 1_555 1_555
C10_16 C6_16 1_555 1_555
N9_8 C6_16 1_555 1_555
O13_16 Nd2_16 1_555 1_555
O14_16 Nd2_16 1_555 1_555
O15_16 Nd2_16 1_555 1_555
O16_16 Nd2_16 1_555 1_555
O17_16 Nd2_16 1_555 1_555
O18_16 Nd2_16 1_555 1_555
H6_16 C7_16 1_555 1_555
C11_14 C7_16 1_555 1_555
C12_16 C8_16 1_555 1_555
N2_16 C8_16 1_555 1_555
H7_16 C9_16 1_555 1_555
C13_16 C9_16 1_555 1_555
C14_16 C10_16 1_555 1_555
N10_8 C10_16 1_555 1_555
H8_16 O14_16 1_555 1_555
H9_16 O14_16 1_555 1_555
H10_16 O15_16 1_555 1_555
H11_16 O15_16 1_555 1_555
H12_16 O16_16 1_555 1_555
H13_16 O16_16 1_555 1_555
C17_16 O17_16 1_555 1_555
H14_14 C11_14 1_555 1_555
C18_16 C11_14 1_555 1_555
C19_16 C12_16 1_555 1_555
N4_16 C12_16 1_555 1_555
H15_16 C13_16 1_555 1_555
C20_16 C14_16 1_555 1_555
C21_16 C14_16 1_555 1_555
C22_16 N10_8 1_555 1_555
H16_14 C18_16 1_555 1_555
C25_16 C19_16 1_555 1_555
C26_16 N4_16 1_555 1_555
C27_16 C20_16 1_555 1_555
H17_16 C20_16 1_555 1_555
O19_16 C21_16 1_555 1_555
O20_16 C21_16 1_555 1_555
H18_16 C22_16 1_555 1_555
C32_16 C25_16 1_555 1_555
H19_16 C25_16 1_555 1_555
H20_16 C26_16 1_555 1_555
H21_16 C27_16 1_555 1_555
H24_16 C32_16 1_555 1_555
C37_16 C33_16 1_555 1_555
C43_16 C37_16 1_555 1_555
C44_16 C47_16 1_555 1_555
H29_16 C43_16 1_555 1_555
C47_16 C43_16 1_555 1_555
H30_16 C44_16 1_555 1_555
H33_16 C47_16 1_555 1_555
Co3_4 N2_16 1_555 1_555
N5_4 C33_16 1_555 1_555
O6_16 C2_16 1_555 1_555
N9_8 C13_16 1_555 1_555
O13_16 C16_16 1_555 1_555
O18_16 C17_16 1_555 1_555
N2_16 C18_16 1_555 1_555
C17_16 C19_16 1_555 1_555
N4_16 Co3_4 1_555 1_555
C22_16 C27_16 1_555 1_555
C26_16 C32_16 1_555 1_555
C44_16 N5_4 1_555 1_555
O1_16 H35_16 1_555 1_555
O1_16 H36_16 1_555 1_555
C15_16 O11_16 1_555 1_555
C23_16 C15_16 1_555 1_555
C28_16 C23_16 1_555 1_555
C29_16 C23_16 1_555 1_555
C30_16 C24_16 1_555 1_555
C31_16 C24_16 1_555 1_555
C34_16 C29_16 1_555 1_555
H22_16 C29_16 1_555 1_555
C35_16 C30_16 1_555 1_555
N7_16 C30_16 1_555 1_555
C36_16 C31_16 1_555 1_555
H23_16 C31_16 1_555 1_555
C38_16 C34_16 1_555 1_555
H25_12 C34_16 1_555 1_555
C39_16 C40_16 1_555 1_555
C40_16 C35_16 1_555 1_555
N8_16 C35_16 1_555 1_555
C41_16 N7_16 1_555 1_555
H26_16 C36_16 1_555 1_555
H27_16 C38_16 1_555 1_555
C45_16 C40_16 1_555 1_555
C46_16 N8_16 1_555 1_555
H28_16 C41_16 1_555 1_555
O21_16 C42_16 1_555 1_555
O22_16 C42_16 1_555 1_555
H31_16 C45_16 1_555 1_555
C48_16 C45_16 1_555 1_555
H34_16 C48_16 1_555 1_555
O7_8 C15_16 1_555 1_555
N6_4 C28_16 1_555 1_555
O8_8 C39_16 1_555 1_555
O9_8 C39_16 1_555 1_555
C36_16 C41_16 1_555 1_555
C38_16 N6_4 1_555 1_555
C46_16 C48_16 1_555 1_555
H14_15 C11_15 1_555 1_555
H14_16 C11_16 1_555 1_555

#END
