
###############################################################################
#
# This file contains modified crystal structure data generated from the
# MOF subset of the Cambridge Structural Database (CSD) v543 
# hosted by the Cambridge Crystallographic Data Centre (CCDC).
#
# This work is licensed under the Creative Commons
# Attribution-NonCommercial-ShareAlike 4.0 International License.
# To view a copy of this license, visit
# http://creativecommons.org/licenses/by-nc-sa/4.0/
# or send a letter to
# Creative Commons, PO Box 1866, Mountain View, CA 94042, USA.
#
# CIF created using the CSD Python API on 29 September 2022
# The structure has been converted into the P1 space group
# The structure has a 3D framework
# The original CSD entry MIFSAX is in the tetragonal crystal system
# The framework has been calculated to contain at least 10.0% void space
# The void calculation uses a probe of radius 1.32A, grid spacing 0.4
# The framework is charged, counterions have been retained in the structure
#
###############################################################################

data_MIFSAX
_chemical_formula_moiety         '(C768 H576 Co16 N128 O348 Pr32)n'
_symmetry_cell_setting           triclinic
_symmetry_space_group_name_H-M   'P 1'
_symmetry_Int_Tables_number      1
_space_group_name_Hall           'P 1'
loop_
_symmetry_equiv_pos_site_id
_symmetry_equiv_pos_as_xyz
1 x,y,z
_cell_length_a                   45.9420(13)
_cell_length_b                   45.9420(13)
_cell_length_c                   11.2367(4)
_cell_angle_alpha                90
_cell_angle_beta                 90
_cell_angle_gamma                90
_cell_volume                     23716.9
loop_
_atom_site_label
_atom_site_type_symbol
_atom_site_fract_x
_atom_site_fract_y
_atom_site_fract_z
H19 H 0.6992 0.3382 0.0194
H20 H 0.6674 0.3771 0.0019
C37 C 0.6824(3) 0.4086(4) 0.2955(12)
C38 C 0.6909(3) 0.3788(4) 0.2951(13)
H21 H 0.6785 0.3650 0.2629
C39 C 0.7165(4) 0.3705(4) 0.3403(13)
H22 H 0.7232 0.3514 0.3358
C40 C 0.7316(4) 0.3915(4) 0.3919(13)
H23 H 0.7489 0.3856 0.4279
C41 C 0.7003(3) 0.4297(4) 0.3480(13)
C42 C 0.6933(4) 0.4607(4) 0.3417(13)
C43 C 0.7081(4) 0.5054(4) 0.2766(14)
H24 H 0.7231 0.5172 0.2490
C44 C 0.6813(4) 0.5188(4) 0.2969(15)
H25 H 0.6770 0.5375 0.2702
C45 C 0.6619(4) 0.5023(4) 0.3591(14)
H26 H 0.6444 0.5104 0.3834
C46 C 0.6685(4) 0.4719(4) 0.3882(14)
C47 C 0.6462(4) 0.4544(4) 0.4636(14)
C48 C 0.6549(3) 0.4161(3) 0.2285(12)
N7 N 0.7260(3) 0.4206(3) 0.4006(11)
N8 N 0.7145(3) 0.4775(3) 0.2924(11)
O2 O 0.5736(2) 0.4771(2) 0.0324(9)
O13 O 0.6317(2) 0.4082(2) 0.2745(8)
O14 O 0.6557(2) 0.4297(2) 0.1339(7)
O15 O 0.6223(2) 0.4645(3) 0.4706(9)
O16 O 0.6553(2) 0.4337(3) 0.5273(9)
O17 O 0.59356(18) 0.37308(18) 0.1346(7)
H27 H 0.5846 0.3686 0.2035
H28 H 0.5828 0.3653 0.0756
O19 O 0.6072(2) 0.4690(2) 0.2477(9)
H31 H 0.6238 0.4801 0.2287
H32 H 0.5916 0.4822 0.2462
Pr2 Pr 0.599534(15) 0.426388(15) 0.10952(6)
N12 N 0.5644(2) 0.5879(2) 0.0468(9)
O23 O 0.56138(18) 0.42348(18) 0.2572(7)
Pr3 Pr 0.599979(15) 0.428642(15) 0.61218(6)
H1 H 0.6528(8) 0.455(4) 0.753(10)
H2 H 0.627(2) 0.455(3) 0.817(6)
C1 C 0.5526(3) 0.4295(3) 0.3603(10)
C2 C 0.5198(3) 0.4307(3) 0.3762(10)
C3 C 0.5088(3) 0.4509(3) 0.4564(11)
H3 H 0.5214 0.4621 0.5023
C4 C 0.4791(3) 0.4542(3) 0.4675(12)
H4 H 0.4711 0.4650 0.5293
C5 C 0.4612(4) 0.4404(4) 0.3811(13)
H5 H 0.4415 0.4448 0.3787
C6 C 0.5007(3) 0.4159(3) 0.3048(10)
C7 C 0.5079(3) 0.3916(3) 0.2171(10)
C8 C 0.4966(3) 0.3730(3) 0.0316(11)
C9 C 0.5140(3) 0.3501(3) 0.0476(10)
C10 C 0.5293(3) 0.3477(3) 0.1546(10)
H8 H 0.5415 0.3318 0.1667
C11 C 0.5267(3) 0.3684(2) 0.2420(9)
C12 C 0.5433(3) 0.3656(3) 0.3552(11)
C13 C 0.5961(3) 0.4826(3) 0.9813(13)
C14 C 0.6018(3) 0.5121(3) 0.9239(12)
C15 C 0.6298(3) 0.5237(3) 0.9291(12)
H9 H 0.6452 0.5125 0.9571
C16 C 0.6346(3) 0.5514(3) 0.8930(13)
H10 H 0.6531 0.5595 0.8960
C17 C 0.6108(3) 0.5680(3) 0.8507(13)
H11 H 0.6139 0.5872 0.8280
C18 C 0.5793(3) 0.5291(3) 0.8726(12)
C19 C 0.5493(3) 0.5193(3) 0.8543(11)
C20 C 0.5013(3) 0.5320(3) 0.8864(10)
H12 H 0.4875 0.5457 0.9098
C21 C 0.4916(3) 0.5046(3) 0.8453(11)
H13 H 0.4720 0.4997 0.8470
C22 C 0.5121(3) 0.4857(3) 0.8030(11)
H14 H 0.5060 0.4680 0.7707
C23 C 0.5420(3) 0.4920(3) 0.8069(12)
C24 C 0.5635(3) 0.4730(3) 0.7436(11)
C25 C 0.5757(3) 0.3450(3) 0.8530(10)
C26 C 0.5874(3) 0.3325(3) 0.7377(10)
C27 C 0.5679(3) 0.3251(3) 0.6491(10)
H15 H 0.5481 0.3283 0.6613
C28 C 0.5770(3) 0.3131(3) 0.5427(11)
H16 H 0.5638 0.3081 0.4835
C29 C 0.6066(3) 0.3087(3) 0.5278(10)
H17 H 0.6132 0.3002 0.4577
C30 C 0.6163(3) 0.3282(3) 0.7122(10)
C31 C 0.6407(3) 0.3349(3) 0.7964(10)
C32 C 0.6838(3) 0.3164(3) 0.8780(12)
H18 H 0.6983 0.3022 0.8784
C33 C 0.6852(4) 0.3384(4) 0.9595(14)
C34 C 0.6656(3) 0.3611(3) 0.9518(12)
C35 C 0.6434(3) 0.3600(3) 0.8701(10)
C36 C 0.6244(2) 0.3867(3) 0.8516(10)
N1 N 0.4718(2) 0.4214(2) 0.3041(9)
N2 N 0.4931(2) 0.3941(2) 0.1150(8)
N3 N 0.5293(2) 0.5391(2) 0.8928(9)
N4 N 0.5844(2) 0.5572(2) 0.8425(10)
N5 N 0.6259(2) 0.3163(2) 0.6105(8)
N6 N 0.6621(2) 0.3144(2) 0.7968(9)
O1 O 0.61809(19) 0.46468(18) 0.9761(7)
O3 O 0.5755(2) 0.48180(19) 0.6508(8)
O4 O 0.5668(2) 0.44713(18) 0.7827(7)
O5 O 0.56762(19) 0.43568(18) 0.4478(7)
O7 O 0.53026(19) 0.36971(19) 0.4519(7)
O8 O 0.56942(19) 0.35856(19) 0.3468(7)
O9 O 0.55708(18) 0.36523(18) 0.8432(6)
O10 O 0.58571(18) 0.33562(18) 0.9488(7)
O11 O 0.61619(18) 0.39098(17) 0.7470(7)
O12 O 0.61986(18) 0.40251(17) 0.9396(7)
O18 O 0.55577(17) 0.41549(18) 0.9821(7)
H29 H 0.5548 0.4275 0.9175
H30 H 0.5558 0.3969 0.9533
O20 O 0.6347(2) 0.4514(2) 0.7503(8)
O21 O 0.55684(18) 0.39591(19) 0.6362(7)
H33 H 0.5583 0.3802 0.5896
H34 H 0.5551 0.3896 0.7112
O22 O 0.61220(19) 0.38610(19) 0.4815(7)
H35 H 0.5960 0.3765 0.4570
H36 H 0.6219 0.3917 0.4148
Co1 Co 0.54626(4) 0.58267(4) 0.87140(15)
N9 N 0.5282(2) 0.5786(2) 0.6959(9)
N10 N 0.5069(2) 0.6059(2) 0.8850(8)
N11 N 0.5663(2) 0.6241(2) 0.8605(8)
Co2 Co 0.66733(4) 0.29626(4) 0.62140(15)
Co3 Co 0.45374(4) 0.41733(4) 0.12860(15)
H1_2 H 0.295(4) 0.9028(8) 0.003(10)
H2_2 H 0.295(3) 0.877(2) 0.067(6)
C13_2 C 0.2674(3) 0.8461(3) 0.2313(13)
C14_2 C 0.2379(3) 0.8518(3) 0.1739(12)
C15_2 C 0.2263(3) 0.8798(3) 0.1791(12)
H9_2 H 0.2375 0.8952 0.2071
C16_2 C 0.1986(3) 0.8846(3) 0.1430(13)
H10_2 H 0.1905 0.9031 0.1460
C17_2 C 0.1820(3) 0.8608(3) 0.1007(13)
H11_2 H 0.1628 0.8639 0.0780
C18_2 C 0.2209(3) 0.8293(3) 0.1226(12)
C19_2 C 0.2307(3) 0.7993(3) 0.1043(11)
C20_2 C 0.2180(3) 0.7513(3) 0.1364(10)
H12_2 H 0.2043 0.7375 0.1598
C21_2 C 0.2454(3) 0.7416(3) 0.0953(11)
H13_2 H 0.2503 0.7220 0.0970
C22_2 C 0.2643(3) 0.7621(3) 0.0530(11)
H14_2 H 0.2820 0.7560 0.0207
C23_2 C 0.2580(3) 0.7920(3) 0.0569(12)
C25_2 C 0.4050(3) 0.8257(3) 0.1030(10)
C31_2 C 0.4151(3) 0.8907(3) 0.0464(10)
C32_2 C 0.4336(3) 0.9338(3) 0.1280(12)
H18_2 H 0.4478 0.9483 0.1284
C33_2 C 0.4116(4) 0.9352(4) 0.2095(14)
H19_2 H 0.4118 0.9492 0.2694
C34_2 C 0.3889(3) 0.9156(3) 0.2018(12)
H20_2 H 0.3729 0.9174 0.2519
C35_2 C 0.3900(3) 0.8934(3) 0.1201(10)
C36_2 C 0.3633(3) 0.8744(2) 0.1016(10)
C37_2 C 0.3414(4) 0.9324(3) 0.5455(12)
C38_2 C 0.3712(4) 0.9409(3) 0.5451(13)
H21_2 H 0.3850 0.9285 0.5129
C39_2 C 0.3795(4) 0.9665(4) 0.5903(13)
H22_2 H 0.3986 0.9732 0.5858
C40_2 C 0.3585(4) 0.9816(4) 0.6419(13)
H23_2 H 0.3644 0.9989 0.6779
C41_2 C 0.3203(4) 0.9503(3) 0.5980(13)
C42_2 C 0.2893(4) 0.9433(4) 0.5917(13)
C43_2 C 0.2446(4) 0.9581(4) 0.5266(14)
H24_2 H 0.2328 0.9731 0.4990
C44_2 C 0.2312(4) 0.9313(4) 0.5469(15)
H25_2 H 0.2125 0.9270 0.5202
C45_2 C 0.2477(4) 0.9119(4) 0.6091(14)
H26_2 H 0.2396 0.8944 0.6334
C46_2 C 0.2781(4) 0.9185(4) 0.6382(14)
C47_2 C 0.2956(4) 0.8962(4) 0.7136(14)
C48_2 C 0.3339(3) 0.9049(3) 0.4785(12)
N3_2 N 0.2109(2) 0.7793(2) 0.1428(9)
N4_2 N 0.1928(2) 0.8344(2) 0.0925(10)
N6_2 N 0.4356(2) 0.9121(2) 0.0468(9)
N7_2 N 0.3294(3) 0.9760(3) 0.6506(11)
N8_2 N 0.2725(3) 0.9645(3) 0.5424(11)
O1_2 O 0.28532(18) 0.86809(19) 0.2261(7)
O2_2 O 0.2729(2) 0.8236(2) 0.2824(9)
O4_2 O 0.30287(18) 0.8168(2) 0.0327(7)
O9_2 O 0.38477(18) 0.80708(18) 0.0932(6)
O10_2 O 0.41438(18) 0.83571(18) 0.1988(7)
O12_2 O 0.34749(17) 0.86986(18) 0.1896(7)
O13_2 O 0.3418(2) 0.8817(2) 0.5245(8)
O14_2 O 0.3203(2) 0.9057(2) 0.3839(7)
O15_2 O 0.2855(3) 0.8723(2) 0.7206(9)
O16_2 O 0.3163(3) 0.9053(2) 0.7773(9)
O17_2 O 0.37692(18) 0.84356(18) 0.3846(7)
H27_2 H 0.3814 0.8346 0.4535
H28_2 H 0.3847 0.8328 0.3256
O18_2 O 0.33451(18) 0.80577(17) 0.2321(7)
H29_2 H 0.3225 0.8048 0.1675
H30_2 H 0.3531 0.8058 0.2033
O19_2 O 0.2810(2) 0.8572(2) 0.4977(9)
H31_2 H 0.2699 0.8738 0.4787
H32_2 H 0.2678 0.8416 0.4962
O20_2 O 0.2986(2) 0.8847(2) 0.0003(8)
Co1_2 Co 0.16733(4) 0.79626(4) 0.12140(15)
Pr2_2 Pr 0.323612(15) 0.849534(15) 0.35952(6)
N10_2 N 0.1441(2) 0.7569(2) 0.1350(8)
N11_2 N 0.1259(2) 0.8163(2) 0.1105(8)
N12_2 N 0.1621(2) 0.8144(2) 0.2968(9)
O23_2 O 0.32652(18) 0.81138(18) 0.5072(7)
Pr3_2 Pr 0.321358(15) 0.849979(15) 0.86218(6)
C1_2 C 0.3205(3) 0.8026(3) 0.6103(10)
C2_2 C 0.3193(3) 0.7698(3) 0.6262(10)
C3_2 C 0.2991(3) 0.7588(3) 0.7064(11)
H3_2 H 0.2879 0.7714 0.7523
C4_2 C 0.2958(3) 0.7291(3) 0.7175(12)
H4_2 H 0.2850 0.7211 0.7793
C5_2 C 0.3096(4) 0.7112(4) 0.6311(13)
H5_2 H 0.3052 0.6915 0.6287
C6_2 C 0.3341(3) 0.7507(3) 0.5548(10)
C7_2 C 0.3584(3) 0.7579(3) 0.4671(10)
C8_2 C 0.3770(3) 0.7466(3) 0.2816(11)
H6 H 0.3753 0.7364 0.2103
C9_2 C 0.3999(3) 0.7640(3) 0.2976(10)
H7 H 0.4141 0.7659 0.2388
C10_2 C 0.4023(3) 0.7793(3) 0.4046(10)
H8_2 H 0.4182 0.7915 0.4167
C11_2 C 0.3816(2) 0.7767(3) 0.4920(9)
C12_2 C 0.3844(3) 0.7933(3) 0.6052(11)
C24_2 C 0.2770(3) 0.8135(3) 0.9936(11)
C26_2 C 0.4175(3) 0.8374(3) 0.9877(10)
C27_2 C 0.4249(3) 0.8179(3) 0.8991(10)
H15_2 H 0.4217 0.7981 0.9113
C28_2 C 0.4369(3) 0.8270(3) 0.7927(11)
H16_2 H 0.4419 0.8138 0.7335
C29_2 C 0.4413(3) 0.8566(3) 0.7778(10)
H17_2 H 0.4498 0.8632 0.7077
C30_2 C 0.4218(3) 0.8663(3) 0.9622(10)
N1_2 N 0.3286(2) 0.7218(2) 0.5541(9)
N2_2 N 0.3559(2) 0.7431(2) 0.3650(8)
N5_2 N 0.4337(2) 0.8759(2) 0.8605(8)
O3_2 O 0.26820(19) 0.8255(2) 0.9008(8)
O5_2 O 0.31432(18) 0.81762(19) 0.6978(7)
O7_2 O 0.38029(19) 0.78026(19) 0.7019(7)
O8_2 O 0.39144(19) 0.81942(19) 0.5968(7)
O11_2 O 0.35902(17) 0.86619(18) 0.9970(7)
O21_2 O 0.35409(19) 0.80684(18) 0.8862(7)
H33_2 H 0.3698 0.8083 0.8396
H34_2 H 0.3604 0.8051 0.9612
O22_2 O 0.36390(19) 0.86220(19) 0.7315(7)
H35_2 H 0.3735 0.8460 0.7070
H36_2 H 0.3583 0.8719 0.6648
N9_2 N 0.1714(2) 0.7782(2) 0.9459(9)
Co2_2 Co 0.45374(4) 0.91733(4) 0.87140(15)
Co3_2 Co 0.33267(4) 0.70374(4) 0.37860(15)
H19_3 H 0.3008 0.1618 0.0194
H20_3 H 0.3326 0.1229 0.0019
C37_3 C 0.3176(3) 0.0914(4) 0.2955(12)
C38_3 C 0.3091(3) 0.1212(4) 0.2951(13)
H21_3 H 0.3215 0.1350 0.2629
C39_3 C 0.2835(4) 0.1295(4) 0.3403(13)
H22_3 H 0.2768 0.1486 0.3358
C40_3 C 0.2684(4) 0.1085(4) 0.3919(13)
H23_3 H 0.2511 0.1144 0.4279
C41_3 C 0.2997(3) 0.0703(4) 0.3480(13)
C42_3 C 0.3067(4) 0.0393(4) 0.3417(13)
C46_3 C 0.3315(4) 0.0281(4) 0.3882(14)
C47_3 C 0.3538(4) 0.0456(4) 0.4636(14)
C48_3 C 0.3451(3) 0.0839(3) 0.2285(12)
N7_3 N 0.2740(3) 0.0794(3) 0.4006(11)
N8_3 N 0.2855(3) 0.0225(3) 0.2924(11)
O2_3 O 0.4264(2) 0.0229(2) 0.0324(9)
O13_3 O 0.3683(2) 0.0918(2) 0.2745(8)
O14_3 O 0.3443(2) 0.0703(2) 0.1339(7)
O15_3 O 0.3777(2) 0.0355(3) 0.4706(9)
O16_3 O 0.3447(2) 0.0663(3) 0.5273(9)
O17_3 O 0.40644(18) 0.12692(18) 0.1346(7)
H27_3 H 0.4154 0.1314 0.2035
H28_3 H 0.4172 0.1347 0.0756
O19_3 O 0.3928(2) 0.0310(2) 0.2477(9)
H31_3 H 0.3762 0.0199 0.2287
H32_3 H 0.4084 0.0178 0.2462
Pr2_3 Pr 0.400466(15) 0.073612(15) 0.10952(6)
O23_3 O 0.43862(18) 0.07652(18) 0.2572(7)
Pr3_3 Pr 0.400021(15) 0.071358(15) 0.61218(6)
H1_3 H 0.3472(8) 0.045(4) 0.753(10)
H2_3 H 0.373(2) 0.045(3) 0.817(6)
C1_3 C 0.4474(3) 0.0705(3) 0.3603(10)
C2_3 C 0.4802(3) 0.0693(3) 0.3762(10)
C3_3 C 0.4912(3) 0.0491(3) 0.4564(11)
H3_3 H 0.4786 0.0379 0.5023
C4_3 C 0.5209(3) 0.0458(3) 0.4675(12)
H4_3 H 0.5289 0.0350 0.5293
C5_3 C 0.5388(4) 0.0596(4) 0.3811(13)
H5_3 H 0.5585 0.0552 0.3787
C6_3 C 0.4993(3) 0.0841(3) 0.3048(10)
C7_3 C 0.4921(3) 0.1084(3) 0.2171(10)
C8_3 C 0.5034(3) 0.1270(3) 0.0316(11)
C9_3 C 0.4860(3) 0.1499(3) 0.0476(10)
C10_3 C 0.4707(3) 0.1523(3) 0.1546(10)
H8_3 H 0.4585 0.1682 0.1667
C11_3 C 0.4733(3) 0.1316(2) 0.2420(9)
C12_3 C 0.4567(3) 0.1344(3) 0.3552(11)
C13_3 C 0.4039(3) 0.0174(3) 0.9813(13)
H13_3 H 0.5280 0.0003 0.8470
C22_3 C 0.4879(3) 0.0143(3) 0.8030(11)
H14_3 H 0.4940 0.0320 0.7707
C23_3 C 0.4580(3) 0.0080(3) 0.8069(12)
C24_3 C 0.4365(3) 0.0270(3) 0.7436(11)
C25_3 C 0.4243(3) 0.1550(3) 0.8530(10)
C26_3 C 0.4126(3) 0.1675(3) 0.7377(10)
C27_3 C 0.4321(3) 0.1749(3) 0.6491(10)
H15_3 H 0.4519 0.1717 0.6613
C28_3 C 0.4230(3) 0.1869(3) 0.5427(11)
H16_3 H 0.4362 0.1919 0.4835
C29_3 C 0.3934(3) 0.1913(3) 0.5278(10)
H17_3 H 0.3868 0.1998 0.4577
C30_3 C 0.3837(3) 0.1718(3) 0.7122(10)
C31_3 C 0.3593(3) 0.1651(3) 0.7964(10)
C32_3 C 0.3162(3) 0.1836(3) 0.8780(12)
H18_3 H 0.3017 0.1978 0.8784
C33_3 C 0.3148(4) 0.1616(4) 0.9595(14)
C34_3 C 0.3344(3) 0.1389(3) 0.9518(12)
C35_3 C 0.3566(3) 0.1400(3) 0.8701(10)
C36_3 C 0.3756(2) 0.1133(3) 0.8516(10)
N1_3 N 0.5282(2) 0.0786(2) 0.3041(9)
N2_3 N 0.5069(2) 0.1059(2) 0.1150(8)
N5_3 N 0.3741(2) 0.1837(2) 0.6105(8)
N6_3 N 0.3379(2) 0.1856(2) 0.7968(9)
O1_3 O 0.38191(19) 0.03532(18) 0.9761(7)
O3_3 O 0.4245(2) 0.01820(19) 0.6508(8)
O4_3 O 0.4332(2) 0.05287(18) 0.7827(7)
O5_3 O 0.43238(19) 0.06432(18) 0.4478(7)
O7_3 O 0.46974(19) 0.13029(19) 0.4519(7)
O8_3 O 0.43058(19) 0.14144(19) 0.3468(7)
O9_3 O 0.44292(18) 0.13477(18) 0.8432(6)
O10_3 O 0.41429(18) 0.16438(18) 0.9488(7)
O11_3 O 0.38381(18) 0.10902(17) 0.7470(7)
O12_3 O 0.38014(18) 0.09749(17) 0.9396(7)
O18_3 O 0.44423(17) 0.08451(18) 0.9821(7)
H29_3 H 0.4452 0.0725 0.9175
H30_3 H 0.4442 0.1031 0.9533
O20_3 O 0.3653(2) 0.0486(2) 0.7503(8)
O21_3 O 0.44316(18) 0.10409(19) 0.6362(7)
H33_3 H 0.4417 0.1198 0.5896
H34_3 H 0.4449 0.1104 0.7112
O22_3 O 0.38780(19) 0.11390(19) 0.4815(7)
H35_3 H 0.4040 0.1235 0.4570
H36_3 H 0.3781 0.1083 0.4148
Co2_3 Co 0.33267(4) 0.20374(4) 0.62140(15)
Co3_3 Co 0.54626(4) 0.08267(4) 0.12860(15)
C43_3 C 0.2919(4) 0.9946(4) 0.2766(14)
H24_3 H 0.2769 0.9828 0.2490
C44_3 C 0.3187(4) 0.9812(4) 0.2969(15)
H25_3 H 0.3230 0.9625 0.2702
C45_3 C 0.3381(4) 0.9977(4) 0.3591(14)
H26_3 H 0.3556 0.9896 0.3834
C14_3 C 0.3982(3) 0.9879(3) 0.9239(12)
C15_3 C 0.3702(3) 0.9763(3) 0.9291(12)
H9_3 H 0.3548 0.9875 0.9571
C16_3 C 0.3654(3) 0.9486(3) 0.8930(13)
H10_3 H 0.3469 0.9405 0.8960
C17_3 C 0.3892(3) 0.9320(3) 0.8507(13)
H11_3 H 0.3861 0.9128 0.8280
C18_3 C 0.4207(3) 0.9709(3) 0.8726(12)
C19_3 C 0.4507(3) 0.9807(3) 0.8543(11)
C20_3 C 0.4987(3) 0.9680(3) 0.8864(10)
H12_3 H 0.5125 0.9543 0.9098
C21_3 C 0.5084(3) 0.9954(3) 0.8453(11)
N3_3 N 0.4707(2) 0.9609(2) 0.8928(9)
N4_3 N 0.4156(2) 0.9428(2) 0.8425(10)
N9_3 N 0.4718(2) 0.9214(2) 0.6959(9)
N10_3 N 0.4931(2) 0.8941(2) 0.8850(8)
H1_4 H 0.705(4) 0.5972(8) 0.003(10)
H2_4 H 0.705(3) 0.623(2) 0.067(6)
C13_4 C 0.7326(3) 0.6539(3) 0.2313(13)
C14_4 C 0.7621(3) 0.6482(3) 0.1739(12)
C15_4 C 0.7737(3) 0.6202(3) 0.1791(12)
H9_4 H 0.7625 0.6048 0.2071
C16_4 C 0.8014(3) 0.6154(3) 0.1430(13)
H10_4 H 0.8095 0.5969 0.1460
C17_4 C 0.8180(3) 0.6392(3) 0.1007(13)
H11_4 H 0.8372 0.6361 0.0780
C18_4 C 0.7791(3) 0.6707(3) 0.1226(12)
C19_4 C 0.7693(3) 0.7007(3) 0.1043(11)
C20_4 C 0.7820(3) 0.7487(3) 0.1364(10)
H12_4 H 0.7957 0.7625 0.1598
C21_4 C 0.7546(3) 0.7584(3) 0.0953(11)
H13_4 H 0.7497 0.7780 0.0970
C22_4 C 0.7357(3) 0.7379(3) 0.0530(11)
H14_4 H 0.7180 0.7440 0.0207
C23_4 C 0.7420(3) 0.7080(3) 0.0569(12)
C25_4 C 0.5950(3) 0.6743(3) 0.1030(10)
C31_4 C 0.5849(3) 0.6093(3) 0.0464(10)
C32_4 C 0.5664(3) 0.5662(3) 0.1280(12)
H18_4 H 0.5522 0.5517 0.1284
C33_4 C 0.5884(4) 0.5648(4) 0.2095(14)
H19_4 H 0.5882 0.5508 0.2694
C34_4 C 0.6111(3) 0.5844(3) 0.2018(12)
H20_4 H 0.6271 0.5826 0.2519
C35_4 C 0.6100(3) 0.6066(3) 0.1201(10)
C36_4 C 0.6367(3) 0.6256(2) 0.1016(10)
C37_4 C 0.6586(4) 0.5676(3) 0.5455(12)
C38_4 C 0.6288(4) 0.5591(3) 0.5451(13)
H21_4 H 0.6150 0.5715 0.5129
C39_4 C 0.6205(4) 0.5335(4) 0.5903(13)
H22_4 H 0.6014 0.5268 0.5858
C40_4 C 0.6415(4) 0.5184(4) 0.6419(13)
H23_4 H 0.6356 0.5011 0.6779
C41_4 C 0.6797(4) 0.5497(3) 0.5980(13)
C42_4 C 0.7107(4) 0.5567(4) 0.5917(13)
C43_4 C 0.7554(4) 0.5419(4) 0.5266(14)
H24_4 H 0.7672 0.5269 0.4990
C44_4 C 0.7688(4) 0.5687(4) 0.5469(15)
H25_4 H 0.7875 0.5730 0.5202
C45_4 C 0.7523(4) 0.5881(4) 0.6091(14)
H26_4 H 0.7604 0.6056 0.6334
C46_4 C 0.7219(4) 0.5815(4) 0.6382(14)
C47_4 C 0.7044(4) 0.6038(4) 0.7136(14)
C48_4 C 0.6661(3) 0.5951(3) 0.4785(12)
N3_4 N 0.7891(2) 0.7207(2) 0.1428(9)
N4_4 N 0.8072(2) 0.6656(2) 0.0925(10)
N7_4 N 0.6706(3) 0.5240(3) 0.6506(11)
N8_4 N 0.7275(3) 0.5355(3) 0.5424(11)
O1_4 O 0.71468(18) 0.63191(19) 0.2261(7)
O2_4 O 0.7271(2) 0.6764(2) 0.2824(9)
O4_4 O 0.69713(18) 0.6832(2) 0.0327(7)
O9_4 O 0.61523(18) 0.69292(18) 0.0932(6)
O10_4 O 0.58562(18) 0.66429(18) 0.1988(7)
O12_4 O 0.65251(17) 0.63014(18) 0.1896(7)
O13_4 O 0.6582(2) 0.6183(2) 0.5245(8)
O14_4 O 0.6797(2) 0.5943(2) 0.3839(7)
O15_4 O 0.7145(3) 0.6277(2) 0.7206(9)
O16_4 O 0.6837(3) 0.5947(2) 0.7773(9)
O17_4 O 0.62308(18) 0.65644(18) 0.3846(7)
H27_4 H 0.6186 0.6654 0.4535
H28_4 H 0.6153 0.6672 0.3256
O18_4 O 0.66549(18) 0.69423(17) 0.2321(7)
H29_4 H 0.6775 0.6952 0.1675
H30_4 H 0.6469 0.6942 0.2033
O19_4 O 0.7190(2) 0.6428(2) 0.4977(9)
H31_4 H 0.7301 0.6262 0.4787
H32_4 H 0.7322 0.6584 0.4962
O20_4 O 0.7014(2) 0.6153(2) 0.0003(8)
Co1_3 Co 0.83267(4) 0.70374(4) 0.12140(15)
Pr2_4 Pr 0.676388(15) 0.650466(15) 0.35952(6)
N10_4 N 0.8559(2) 0.7431(2) 0.1350(8)
N11_3 N 0.8741(2) 0.6837(2) 0.1105(8)
N12_3 N 0.8379(2) 0.6856(2) 0.2968(9)
O23_4 O 0.67348(18) 0.68862(18) 0.5072(7)
Pr3_4 Pr 0.678642(15) 0.650021(15) 0.86218(6)
C1_4 C 0.6795(3) 0.6974(3) 0.6103(10)
C2_4 C 0.6807(3) 0.7302(3) 0.6262(10)
C3_4 C 0.7009(3) 0.7412(3) 0.7064(11)
H3_4 H 0.7121 0.7286 0.7523
C4_4 C 0.7042(3) 0.7709(3) 0.7175(12)
H4_4 H 0.7150 0.7789 0.7793
C5_4 C 0.6904(4) 0.7888(4) 0.6311(13)
H5_4 H 0.6948 0.8085 0.6287
C6_4 C 0.6659(3) 0.7493(3) 0.5548(10)
C7_4 C 0.6416(3) 0.7421(3) 0.4671(10)
C8_4 C 0.6230(3) 0.7534(3) 0.2816(11)
H6_2 H 0.6247 0.7636 0.2103
C9_4 C 0.6001(3) 0.7360(3) 0.2976(10)
H7_2 H 0.5859 0.7341 0.2388
C10_4 C 0.5977(3) 0.7207(3) 0.4046(10)
H8_4 H 0.5818 0.7085 0.4167
C11_4 C 0.6184(2) 0.7233(3) 0.4920(9)
C12_4 C 0.6156(3) 0.7067(3) 0.6052(11)
C24_4 C 0.7230(3) 0.6865(3) 0.9936(11)
C26_4 C 0.5825(3) 0.6626(3) 0.9877(10)
C27_4 C 0.5751(3) 0.6821(3) 0.8991(10)
H15_4 H 0.5783 0.7019 0.9113
C28_4 C 0.5631(3) 0.6730(3) 0.7927(11)
H16_4 H 0.5581 0.6862 0.7335
C29_4 C 0.5587(3) 0.6434(3) 0.7778(10)
H17_4 H 0.5502 0.6368 0.7077
C30_4 C 0.5782(3) 0.6337(3) 0.9622(10)
N1_4 N 0.6714(2) 0.7782(2) 0.5541(9)
N2_4 N 0.6441(2) 0.7569(2) 0.3650(8)
O3_4 O 0.73180(19) 0.6745(2) 0.9008(8)
O5_4 O 0.68568(18) 0.68238(19) 0.6978(7)
O7_4 O 0.61971(19) 0.71974(19) 0.7019(7)
O8_4 O 0.60856(19) 0.68058(19) 0.5968(7)
O11_4 O 0.64098(17) 0.63381(18) 0.9970(7)
O21_4 O 0.64591(19) 0.69316(18) 0.8862(7)
H33_4 H 0.6302 0.6917 0.8396
H34_4 H 0.6396 0.6949 0.9612
O22_4 O 0.63610(19) 0.63780(19) 0.7315(7)
H35_4 H 0.6265 0.6540 0.7070
H36_4 H 0.6417 0.6281 0.6648
N9_4 N 0.8286(2) 0.7218(2) 0.9459(9)
Co3_4 Co 0.66733(4) 0.79626(4) 0.37860(15)
C14_5 C 0.1018(3) 0.0121(3) 0.4239(12)
C15_5 C 0.1298(3) 0.0237(3) 0.4291(12)
H9_5 H 0.1452 0.0125 0.4571
C16_5 C 0.1346(3) 0.0514(3) 0.3930(13)
H10_5 H 0.1531 0.0595 0.3960
C17_5 C 0.1108(3) 0.0680(3) 0.3507(13)
H11_5 H 0.1139 0.0872 0.3280
C18_5 C 0.0793(3) 0.0291(3) 0.3726(12)
C19_5 C 0.0493(3) 0.0193(3) 0.3543(11)
C20_5 C 0.0013(3) 0.0320(3) 0.3864(10)
C43_5 C 0.2081(4) 0.0054(4) 0.7766(14)
H24_5 H 0.2231 0.0172 0.7490
C44_5 C 0.1813(4) 0.0188(4) 0.7969(15)
H25_5 H 0.1770 0.0375 0.7702
C45_5 C 0.1619(4) 0.0023(4) 0.8591(14)
H26_5 H 0.1444 0.0104 0.8834
N3_5 N 0.0293(2) 0.0391(2) 0.3928(9)
N4_5 N 0.0844(2) 0.0572(2) 0.3425(10)
Co1_4 Co 0.04626(4) 0.08267(4) 0.37140(15)
N9_5 N 0.0282(2) 0.0786(2) 0.1959(9)
N10_5 N 0.0069(2) 0.1059(2) 0.3850(8)
N11_4 N 0.0663(2) 0.1241(2) 0.3605(8)
N12_4 N 0.0644(2) 0.0879(2) 0.5468(9)
O16_5 O 0.1553(2) 0.9337(3) 0.0273(9)
Pr3_5 Pr 0.099979(15) 0.928642(15) 0.11218(6)
H1_5 H 0.1528(8) 0.955(4) 0.253(10)
H2_5 H 0.127(2) 0.955(3) 0.317(6)
H3_5 H 0.0214 0.9621 0.0023
C13_5 C 0.0961(3) 0.9826(3) 0.4813(13)
C22_5 C 0.0121(3) 0.9857(3) 0.3030(11)
H14_5 H 0.0060 0.9680 0.2707
C23_5 C 0.0420(3) 0.9920(3) 0.3069(12)
C24_5 C 0.0635(3) 0.9730(3) 0.2436(11)
C25_5 C 0.0757(3) 0.8450(3) 0.3530(10)
C26_5 C 0.0874(3) 0.8325(3) 0.2377(10)
C27_5 C 0.0679(3) 0.8251(3) 0.1491(10)
H15_5 H 0.0481 0.8283 0.1613
C28_5 C 0.0770(3) 0.8131(3) 0.0427(11)
C29_5 C 0.1066(3) 0.8087(3) 0.0278(10)
C30_5 C 0.1163(3) 0.8282(3) 0.2122(10)
C31_5 C 0.1407(3) 0.8349(3) 0.2964(10)
C32_5 C 0.1838(3) 0.8164(3) 0.3780(12)
H18_5 H 0.1983 0.8022 0.3784
C33_5 C 0.1852(4) 0.8384(4) 0.4595(14)
H19_5 H 0.1992 0.8382 0.5194
C34_5 C 0.1656(3) 0.8611(3) 0.4518(12)
H20_5 H 0.1674 0.8771 0.5019
C35_5 C 0.1434(3) 0.8600(3) 0.3701(10)
C36_5 C 0.1244(2) 0.8867(3) 0.3516(10)
C37_5 C 0.1824(3) 0.9086(4) 0.7955(12)
C38_5 C 0.1909(3) 0.8788(4) 0.7951(13)
H21_5 H 0.1785 0.8650 0.7629
C39_5 C 0.2165(4) 0.8705(4) 0.8403(13)
H22_5 H 0.2232 0.8514 0.8358
C40_5 C 0.2316(4) 0.8915(4) 0.8919(13)
H23_5 H 0.2489 0.8856 0.9279
C41_5 C 0.2003(3) 0.9297(4) 0.8480(13)
C42_5 C 0.1933(4) 0.9607(4) 0.8417(13)
C46_5 C 0.1685(4) 0.9719(4) 0.8882(14)
C47_5 C 0.1462(4) 0.9544(4) 0.9636(14)
C48_5 C 0.1549(3) 0.9161(3) 0.7285(12)
N7_5 N 0.2260(3) 0.9206(3) 0.9006(11)
N8_5 N 0.2145(3) 0.9775(3) 0.7924(11)
O1_5 O 0.11809(19) 0.96468(18) 0.4761(7)
O2_5 O 0.0736(2) 0.9771(2) 0.5324(9)
O3_5 O 0.0755(2) 0.98180(19) 0.1508(8)
O4_5 O 0.0668(2) 0.94713(18) 0.2827(7)
O9_5 O 0.05708(18) 0.86523(18) 0.3432(6)
O10_5 O 0.08571(18) 0.83562(18) 0.4488(7)
O11_5 O 0.11619(18) 0.89098(17) 0.2470(7)
O12_5 O 0.11986(18) 0.90251(17) 0.4396(7)
O13_5 O 0.1317(2) 0.9082(2) 0.7745(8)
O14_5 O 0.1557(2) 0.9297(2) 0.6339(7)
O15_5 O 0.1223(2) 0.9645(3) 0.9706(9)
O17_5 O 0.09356(18) 0.87308(18) 0.6346(7)
H27_5 H 0.0846 0.8686 0.7035
H28_5 H 0.0828 0.8653 0.5756
O18_5 O 0.05577(17) 0.91549(18) 0.4821(7)
H29_5 H 0.0548 0.9275 0.4175
H30_5 H 0.0558 0.8969 0.4533
O19_5 O 0.1072(2) 0.9690(2) 0.7477(9)
H31_5 H 0.1238 0.9801 0.7287
H32_5 H 0.0916 0.9822 0.7462
O20_5 O 0.1347(2) 0.9514(2) 0.2503(8)
O21_5 O 0.05684(18) 0.89591(19) 0.1362(7)
H33_5 H 0.0583 0.8802 0.0896
H34_5 H 0.0551 0.8896 0.2112
Pr2_5 Pr 0.099534(15) 0.926388(15) 0.60952(6)
O23_5 O 0.06138(18) 0.92348(18) 0.7572(7)
C1_5 C 0.0526(3) 0.9295(3) 0.8603(10)
C2_5 C 0.0198(3) 0.9307(3) 0.8762(10)
C3_5 C 0.0088(3) 0.9509(3) 0.9564(11)
C6_5 C 0.0007(3) 0.9159(3) 0.8048(10)
C7_5 C 0.0079(3) 0.8916(3) 0.7171(10)
C9_5 C 0.0140(3) 0.8501(3) 0.5476(10)
H7_3 H 0.0159 0.8359 0.4888
C10_5 C 0.0293(3) 0.8477(3) 0.6546(10)
H8_5 H 0.0415 0.8318 0.6667
C11_5 C 0.0267(3) 0.8684(2) 0.7420(9)
C12_5 C 0.0433(3) 0.8656(3) 0.8552(11)
H16_5 H 0.0638 0.8081 0.9835
H17_5 H 0.1132 0.8002 0.9577
O5_5 O 0.06762(19) 0.93568(18) 0.9478(7)
O7_5 O 0.03026(19) 0.86971(19) 0.9519(7)
O8_5 O 0.06942(19) 0.85856(19) 0.8468(7)
O22_5 O 0.11220(19) 0.88610(19) 0.9815(7)
H35_5 H 0.0960 0.8765 0.9570
H36_5 H 0.1219 0.8917 0.9148
C4_5 C 0.9791(3) 0.9542(3) 0.9675(12)
C5_5 C 0.9612(4) 0.9404(4) 0.8811(13)
H5_5 H 0.9415 0.9448 0.8787
C8_5 C 0.9966(3) 0.8730(3) 0.5316(11)
H6_3 H 0.9864 0.8747 0.4603
N1_5 N 0.9718(2) 0.9214(2) 0.8041(9)
N2_5 N 0.9931(2) 0.8941(2) 0.6150(8)
Co3_5 Co 0.95374(4) 0.91733(4) 0.62860(15)
C37_6 C 0.8414(4) 0.4324(3) 0.0455(12)
C38_6 C 0.8712(4) 0.4409(3) 0.0451(13)
H21_6 H 0.8850 0.4285 0.0129
C39_6 C 0.8795(4) 0.4665(4) 0.0903(13)
H22_6 H 0.8986 0.4732 0.0858
C40_6 C 0.8585(4) 0.4816(4) 0.1419(13)
H23_6 H 0.8644 0.4989 0.1779
C41_6 C 0.8203(4) 0.4503(3) 0.0980(13)
C42_6 C 0.7893(4) 0.4433(4) 0.0917(13)
C43_6 C 0.7446(4) 0.4581(4) 0.0266(14)
C44_6 C 0.7312(4) 0.4313(4) 0.0469(15)
H25_6 H 0.7125 0.4270 0.0202
C45_6 C 0.7477(4) 0.4119(4) 0.1091(14)
H26_6 H 0.7396 0.3944 0.1334
C46_6 C 0.7781(4) 0.4185(4) 0.1382(14)
C47_6 C 0.7956(4) 0.3962(4) 0.2136(14)
N7_6 N 0.8294(3) 0.4760(3) 0.1506(11)
N8_6 N 0.7725(3) 0.4645(3) 0.0424(11)
O13_6 O 0.8418(2) 0.3817(2) 0.0245(8)
O15_6 O 0.7855(3) 0.3723(2) 0.2206(9)
O16_6 O 0.8163(3) 0.4053(2) 0.2773(9)
O23_6 O 0.82652(18) 0.31138(18) 0.0072(7)
Pr3_6 Pr 0.821358(15) 0.349979(15) 0.36218(6)
H1_6 H 0.795(4) 0.4028(8) 0.503(10)
H2_6 H 0.795(3) 0.377(2) 0.567(6)
C1_6 C 0.8205(3) 0.3026(3) 0.1103(10)
C2_6 C 0.8193(3) 0.2698(3) 0.1262(10)
C3_6 C 0.7991(3) 0.2588(3) 0.2064(11)
H3_6 H 0.7879 0.2714 0.2523
C4_6 C 0.7958(3) 0.2291(3) 0.2175(12)
H4_5 H 0.7850 0.2211 0.2793
C5_6 C 0.8096(4) 0.2112(4) 0.1311(13)
H5_6 H 0.8052 0.1915 0.1287
C6_6 C 0.8341(3) 0.2507(3) 0.0548(10)
C12_6 C 0.8844(3) 0.2933(3) 0.1052(11)
C13_6 C 0.7674(3) 0.3461(3) 0.7313(13)
C14_6 C 0.7379(3) 0.3518(3) 0.6739(12)
C15_6 C 0.7263(3) 0.3798(3) 0.6791(12)
H9_6 H 0.7375 0.3952 0.7071
C16_6 C 0.6986(3) 0.3846(3) 0.6430(13)
H10_6 H 0.6905 0.4031 0.6460
C17_6 C 0.6820(3) 0.3608(3) 0.6007(13)
H11_6 H 0.6628 0.3639 0.5780
C18_6 C 0.7209(3) 0.3293(3) 0.6226(12)
C19_6 C 0.7307(3) 0.2993(3) 0.6043(11)
C20_6 C 0.7180(3) 0.2513(3) 0.6364(10)
H12_5 H 0.7043 0.2375 0.6598
C21_5 C 0.7454(3) 0.2416(3) 0.5953(11)
H13_5 H 0.7503 0.2220 0.5970
C22_6 C 0.7643(3) 0.2621(3) 0.5530(11)
H14_6 H 0.7820 0.2560 0.5207
C23_6 C 0.7580(3) 0.2920(3) 0.5569(12)
C24_6 C 0.7770(3) 0.3135(3) 0.4936(11)
C25_6 C 0.9050(3) 0.3257(3) 0.6030(10)
C26_6 C 0.9175(3) 0.3374(3) 0.4877(10)
C27_6 C 0.9249(3) 0.3179(3) 0.3991(10)
H15_6 H 0.9217 0.2981 0.4113
C28_6 C 0.9369(3) 0.3270(3) 0.2927(11)
H16_6 H 0.9419 0.3138 0.2335
C29_6 C 0.9413(3) 0.3566(3) 0.2778(10)
H17_6 H 0.9498 0.3632 0.2077
C30_6 C 0.9218(3) 0.3663(3) 0.4622(10)
C31_6 C 0.9151(3) 0.3907(3) 0.5464(10)
C32_6 C 0.9336(3) 0.4338(3) 0.6280(12)
H18_6 H 0.9478 0.4483 0.6284
C33_6 C 0.9116(4) 0.4352(4) 0.7095(14)
H19_6 H 0.9118 0.4492 0.7694
C34_6 C 0.8889(3) 0.4156(3) 0.7018(12)
H20_6 H 0.8729 0.4174 0.7519
C35_6 C 0.8900(3) 0.3934(3) 0.6201(10)
C36_6 C 0.8633(3) 0.3744(2) 0.6016(10)
H24_6 H 0.7328 0.4731 0.9990
C48_6 C 0.8339(3) 0.4049(3) 0.9785(12)
N1_6 N 0.8286(2) 0.2218(2) 0.0541(9)
N3_6 N 0.7109(2) 0.2793(2) 0.6428(9)
N4_6 N 0.6928(2) 0.3344(2) 0.5925(10)
N5_4 N 0.9337(2) 0.3759(2) 0.3605(8)
N6_4 N 0.9356(2) 0.4121(2) 0.5468(9)
O1_6 O 0.78532(18) 0.36809(19) 0.7261(7)
O2_6 O 0.7729(2) 0.3236(2) 0.7824(9)
O3_6 O 0.76820(19) 0.3255(2) 0.4008(8)
O4_6 O 0.80287(18) 0.3168(2) 0.5327(7)
O5_6 O 0.81432(18) 0.31762(19) 0.1978(7)
O7_6 O 0.88029(19) 0.28026(19) 0.2019(7)
O8_6 O 0.89144(19) 0.31942(19) 0.0968(7)
O9_6 O 0.88477(18) 0.30708(18) 0.5932(6)
O10_6 O 0.91438(18) 0.33571(18) 0.6988(7)
O11_6 O 0.85902(17) 0.36619(18) 0.4970(7)
O12_6 O 0.84749(17) 0.36986(18) 0.6896(7)
O14_6 O 0.8203(2) 0.4057(2) 0.8839(7)
O17_6 O 0.87692(18) 0.34356(18) 0.8846(7)
H27_6 H 0.8814 0.3346 0.9535
H28_6 H 0.8847 0.3328 0.8256
O18_6 O 0.83451(18) 0.30577(17) 0.7321(7)
H29_6 H 0.8225 0.3048 0.6675
H30_6 H 0.8531 0.3058 0.7033
O19_6 O 0.7810(2) 0.3572(2) 0.9977(9)
H31_6 H 0.7699 0.3738 0.9787
H32_6 H 0.7678 0.3416 0.9962
O20_6 O 0.7986(2) 0.3847(2) 0.5003(8)
O21_6 O 0.85409(19) 0.30684(18) 0.3862(7)
H33_6 H 0.8698 0.3083 0.3396
H34_6 H 0.8604 0.3051 0.4612
O22_6 O 0.86390(19) 0.36220(19) 0.2315(7)
H35_6 H 0.8735 0.3460 0.2070
H36_6 H 0.8583 0.3719 0.1648
Pr2_6 Pr 0.823612(15) 0.349534(15) 0.85952(6)
N9_6 N 0.6714(2) 0.2782(2) 0.4459(9)
N10_6 N 0.6441(2) 0.2569(2) 0.6350(8)
Co2_4 Co 0.95374(4) 0.41733(4) 0.37140(15)
C7_6 C 0.8584(3) 0.2579(3) 0.9671(10)
C8_6 C 0.8770(3) 0.2466(3) 0.7816(11)
H6_4 H 0.8753 0.2364 0.7103
C9_6 C 0.8999(3) 0.2640(3) 0.7976(10)
H7_4 H 0.9141 0.2659 0.7388
C10_6 C 0.9023(3) 0.2793(3) 0.9046(10)
H8_6 H 0.9182 0.2915 0.9167
C11_6 C 0.8816(2) 0.2767(3) 0.9920(9)
N2_6 N 0.8559(2) 0.2431(2) 0.8650(8)
Co3_6 Co 0.83267(4) 0.20374(4) 0.87860(15)
C4_7 C 0.0209(3) 0.5458(3) 0.9675(12)
C5_7 C 0.0388(4) 0.5596(4) 0.8811(13)
H5_7 H 0.0585 0.5552 0.8787
C8_7 C 0.0034(3) 0.6270(3) 0.5316(11)
H6_5 H 0.0136 0.6253 0.4603
N1_7 N 0.0282(2) 0.5786(2) 0.8041(9)
N2_7 N 0.0069(2) 0.6059(2) 0.6150(8)
Co3_7 Co 0.04626(4) 0.58267(4) 0.62860(15)
O16_7 O 0.8447(2) 0.5663(3) 0.0273(9)
Pr3_7 Pr 0.900021(15) 0.571358(15) 0.11218(6)
H1_7 H 0.8472(8) 0.545(4) 0.253(10)
H2_7 H 0.873(2) 0.545(3) 0.317(6)
H3_7 H 0.9786 0.5379 0.0023
C13_7 C 0.9039(3) 0.5174(3) 0.4813(13)
C14_7 C 0.8982(3) 0.4879(3) 0.4239(12)
C15_7 C 0.8702(3) 0.4763(3) 0.4291(12)
H9_7 H 0.8548 0.4875 0.4571
C16_7 C 0.8654(3) 0.4486(3) 0.3930(13)
H10_7 H 0.8469 0.4405 0.3960
C17_7 C 0.8892(3) 0.4320(3) 0.3507(13)
H11_7 H 0.8861 0.4128 0.3280
C18_7 C 0.9207(3) 0.4709(3) 0.3726(12)
C19_7 C 0.9507(3) 0.4807(3) 0.3543(11)
C20_7 C 0.9987(3) 0.4680(3) 0.3864(10)
C22_7 C 0.9879(3) 0.5143(3) 0.3030(11)
H14_7 H 0.9940 0.5320 0.2707
C23_7 C 0.9580(3) 0.5080(3) 0.3069(12)
C24_7 C 0.9365(3) 0.5270(3) 0.2436(11)
C25_7 C 0.9243(3) 0.6550(3) 0.3530(10)
C26_7 C 0.9126(3) 0.6675(3) 0.2377(10)
C27_7 C 0.9321(3) 0.6749(3) 0.1491(10)
H15_7 H 0.9519 0.6717 0.1613
C28_7 C 0.9230(3) 0.6869(3) 0.0427(11)
C29_7 C 0.8934(3) 0.6913(3) 0.0278(10)
C30_7 C 0.8837(3) 0.6718(3) 0.2122(10)
C31_7 C 0.8593(3) 0.6651(3) 0.2964(10)
C32_7 C 0.8162(3) 0.6836(3) 0.3780(12)
H18_7 H 0.8017 0.6978 0.3784
C33_7 C 0.8148(4) 0.6616(4) 0.4595(14)
H19_7 H 0.8008 0.6618 0.5194
C34_7 C 0.8344(3) 0.6389(3) 0.4518(12)
H20_7 H 0.8326 0.6229 0.5019
C35_7 C 0.8566(3) 0.6400(3) 0.3701(10)
C36_7 C 0.8756(2) 0.6133(3) 0.3516(10)
C37_7 C 0.8176(3) 0.5914(4) 0.7955(12)
C38_7 C 0.8091(3) 0.6212(4) 0.7951(13)
H21_7 H 0.8215 0.6350 0.7629
C39_7 C 0.7835(4) 0.6295(4) 0.8403(13)
H22_7 H 0.7768 0.6486 0.8358
C40_7 C 0.7684(4) 0.6085(4) 0.8919(13)
H23_7 H 0.7511 0.6144 0.9279
C41_7 C 0.7997(3) 0.5703(4) 0.8480(13)
C42_7 C 0.8067(4) 0.5393(4) 0.8417(13)
C43_7 C 0.7919(4) 0.4946(4) 0.7766(14)
H24_7 H 0.7769 0.4828 0.7490
C44_7 C 0.8187(4) 0.4812(4) 0.7969(15)
H25_7 H 0.8230 0.4625 0.7702
C45_7 C 0.8381(4) 0.4977(4) 0.8591(14)
H26_7 H 0.8556 0.4896 0.8834
C46_7 C 0.8315(4) 0.5281(4) 0.8882(14)
C47_7 C 0.8538(4) 0.5456(4) 0.9636(14)
C48_7 C 0.8451(3) 0.5839(3) 0.7285(12)
N3_7 N 0.9707(2) 0.4609(2) 0.3928(9)
N4_7 N 0.9156(2) 0.4428(2) 0.3425(10)
N7_7 N 0.7740(3) 0.5794(3) 0.9006(11)
N8_7 N 0.7855(3) 0.5225(3) 0.7924(11)
O1_7 O 0.88191(19) 0.53532(18) 0.4761(7)
O2_7 O 0.9264(2) 0.5229(2) 0.5324(9)
O3_7 O 0.9245(2) 0.51820(19) 0.1508(8)
O4_7 O 0.9332(2) 0.55287(18) 0.2827(7)
O9_7 O 0.94292(18) 0.63477(18) 0.3432(6)
O10_7 O 0.91429(18) 0.66438(18) 0.4488(7)
O11_7 O 0.88381(18) 0.60902(17) 0.2470(7)
O12_7 O 0.88014(18) 0.59749(17) 0.4396(7)
O13_7 O 0.8683(2) 0.5918(2) 0.7745(8)
O14_7 O 0.8443(2) 0.5703(2) 0.6339(7)
O15_7 O 0.8777(2) 0.5355(3) 0.9706(9)
O17_7 O 0.90644(18) 0.62692(18) 0.6346(7)
H27_7 H 0.9154 0.6314 0.7035
H28_7 H 0.9172 0.6347 0.5756
O18_7 O 0.94423(17) 0.58451(18) 0.4821(7)
H29_7 H 0.9452 0.5725 0.4175
H30_7 H 0.9442 0.6031 0.4533
O19_7 O 0.8928(2) 0.5310(2) 0.7477(9)
H31_7 H 0.8762 0.5199 0.7287
H32_7 H 0.9084 0.5178 0.7462
O20_7 O 0.8653(2) 0.5486(2) 0.2503(8)
O21_7 O 0.94316(18) 0.60409(19) 0.1362(7)
H33_7 H 0.9417 0.6198 0.0896
H34_7 H 0.9449 0.6104 0.2112
Pr2_7 Pr 0.900466(15) 0.573612(15) 0.60952(6)
N9_7 N 0.9718(2) 0.4214(2) 0.1959(9)
N10_7 N 0.9931(2) 0.3941(2) 0.3850(8)
O23_7 O 0.93862(18) 0.57652(18) 0.7572(7)
C1_7 C 0.9474(3) 0.5705(3) 0.8603(10)
C2_7 C 0.9802(3) 0.5693(3) 0.8762(10)
C3_7 C 0.9912(3) 0.5491(3) 0.9564(11)
C6_7 C 0.9993(3) 0.5841(3) 0.8048(10)
C7_7 C 0.9921(3) 0.6084(3) 0.7171(10)
C9_7 C 0.9860(3) 0.6499(3) 0.5476(10)
H7_5 H 0.9841 0.6641 0.4888
C10_7 C 0.9707(3) 0.6523(3) 0.6546(10)
H8_7 H 0.9585 0.6682 0.6667
C11_7 C 0.9733(3) 0.6316(2) 0.7420(9)
C12_7 C 0.9567(3) 0.6344(3) 0.8552(11)
H16_7 H 0.9362 0.6919 0.9835
H17_7 H 0.8868 0.6998 0.9577
O5_7 O 0.93238(19) 0.56432(18) 0.9478(7)
O7_7 O 0.96974(19) 0.63029(19) 0.9519(7)
O8_7 O 0.93058(19) 0.64144(19) 0.8468(7)
O22_7 O 0.88780(19) 0.61390(19) 0.9815(7)
H35_7 H 0.9040 0.6235 0.9570
H36_7 H 0.8781 0.6083 0.9148
C37_8 C 0.1586(4) 0.0676(3) 0.0455(12)
C38_8 C 0.1288(4) 0.0591(3) 0.0451(13)
H21_8 H 0.1150 0.0715 0.0129
C39_8 C 0.1205(4) 0.0335(4) 0.0903(13)
H22_8 H 0.1014 0.0268 0.0858
C40_8 C 0.1415(4) 0.0184(4) 0.1419(13)
H23_8 H 0.1356 0.0011 0.1779
C41_8 C 0.1797(4) 0.0497(3) 0.0980(13)
C42_8 C 0.2107(4) 0.0567(4) 0.0917(13)
C43_8 C 0.2554(4) 0.0419(4) 0.0266(14)
C44_8 C 0.2688(4) 0.0687(4) 0.0469(15)
H25_8 H 0.2875 0.0730 0.0202
C45_8 C 0.2523(4) 0.0881(4) 0.1091(14)
H26_8 H 0.2604 0.1056 0.1334
C46_8 C 0.2219(4) 0.0815(4) 0.1382(14)
C47_8 C 0.2044(4) 0.1038(4) 0.2136(14)
N7_8 N 0.1706(3) 0.0240(3) 0.1506(11)
N8_8 N 0.2275(3) 0.0355(3) 0.0424(11)
O13_8 O 0.1582(2) 0.1183(2) 0.0245(8)
O15_8 O 0.2145(3) 0.1277(2) 0.2206(9)
O16_8 O 0.1837(3) 0.0947(2) 0.2773(9)
O23_8 O 0.17348(18) 0.18862(18) 0.0072(7)
Pr3_8 Pr 0.178642(15) 0.150021(15) 0.36218(6)
H1_8 H 0.205(4) 0.0972(8) 0.503(10)
H2_8 H 0.205(3) 0.123(2) 0.567(6)
C1_8 C 0.1795(3) 0.1974(3) 0.1103(10)
C2_8 C 0.1807(3) 0.2302(3) 0.1262(10)
C3_8 C 0.2009(3) 0.2412(3) 0.2064(11)
H3_8 H 0.2121 0.2286 0.2523
C4_8 C 0.2042(3) 0.2709(3) 0.2175(12)
H4_6 H 0.2150 0.2789 0.2793
C5_8 C 0.1904(4) 0.2888(4) 0.1311(13)
H5_8 H 0.1948 0.3085 0.1287
C6_8 C 0.1659(3) 0.2493(3) 0.0548(10)
C12_8 C 0.1156(3) 0.2067(3) 0.1052(11)
C13_8 C 0.2326(3) 0.1539(3) 0.7313(13)
C14_8 C 0.2621(3) 0.1482(3) 0.6739(12)
C15_8 C 0.2737(3) 0.1202(3) 0.6791(12)
H9_8 H 0.2625 0.1048 0.7071
C16_8 C 0.3014(3) 0.1154(3) 0.6430(13)
H10_8 H 0.3095 0.0969 0.6460
C17_8 C 0.3180(3) 0.1392(3) 0.6007(13)
H11_8 H 0.3372 0.1361 0.5780
C18_8 C 0.2791(3) 0.1707(3) 0.6226(12)
C19_8 C 0.2693(3) 0.2007(3) 0.6043(11)
C20_8 C 0.2820(3) 0.2487(3) 0.6364(10)
H12_6 H 0.2957 0.2625 0.6598
C21_6 C 0.2546(3) 0.2584(3) 0.5953(11)
H13_6 H 0.2497 0.2780 0.5970
C22_8 C 0.2357(3) 0.2379(3) 0.5530(11)
H14_8 H 0.2180 0.2440 0.5207
C23_8 C 0.2420(3) 0.2080(3) 0.5569(12)
C24_8 C 0.2230(3) 0.1865(3) 0.4936(11)
C25_8 C 0.0950(3) 0.1743(3) 0.6030(10)
C26_8 C 0.0825(3) 0.1626(3) 0.4877(10)
C27_8 C 0.0751(3) 0.1821(3) 0.3991(10)
H15_8 H 0.0783 0.2019 0.4113
C28_8 C 0.0631(3) 0.1730(3) 0.2927(11)
H16_8 H 0.0581 0.1862 0.2335
C29_8 C 0.0587(3) 0.1434(3) 0.2778(10)
H17_8 H 0.0502 0.1368 0.2077
C30_8 C 0.0782(3) 0.1337(3) 0.4622(10)
C31_8 C 0.0849(3) 0.1093(3) 0.5464(10)
C32_8 C 0.0664(3) 0.0662(3) 0.6280(12)
H18_8 H 0.0522 0.0517 0.6284
C33_8 C 0.0884(4) 0.0648(4) 0.7095(14)
H19_8 H 0.0882 0.0508 0.7694
C34_8 C 0.1111(3) 0.0844(3) 0.7018(12)
H20_8 H 0.1271 0.0826 0.7519
C35_8 C 0.1100(3) 0.1066(3) 0.6201(10)
C36_8 C 0.1367(3) 0.1256(2) 0.6016(10)
H24_8 H 0.2672 0.0269 0.9990
C48_8 C 0.1661(3) 0.0951(3) 0.9785(12)
N1_8 N 0.1714(2) 0.2782(2) 0.0541(9)
N3_8 N 0.2891(2) 0.2207(2) 0.6428(9)
N4_8 N 0.3072(2) 0.1656(2) 0.5925(10)
O1_8 O 0.21468(18) 0.13191(19) 0.7261(7)
O2_8 O 0.2271(2) 0.1764(2) 0.7824(9)
O3_8 O 0.23180(19) 0.1745(2) 0.4008(8)
O4_8 O 0.19713(18) 0.1832(2) 0.5327(7)
O5_8 O 0.18568(18) 0.18238(19) 0.1978(7)
O7_8 O 0.11971(19) 0.21974(19) 0.2019(7)
O8_8 O 0.10856(19) 0.18058(19) 0.0968(7)
O9_8 O 0.11523(18) 0.19292(18) 0.5932(6)
O10_8 O 0.08562(18) 0.16429(18) 0.6988(7)
O11_8 O 0.14098(17) 0.13381(18) 0.4970(7)
O12_8 O 0.15251(17) 0.13014(18) 0.6896(7)
O14_8 O 0.1797(2) 0.0943(2) 0.8839(7)
O17_8 O 0.12308(18) 0.15644(18) 0.8846(7)
H27_8 H 0.1186 0.1654 0.9535
H28_8 H 0.1153 0.1672 0.8256
O18_8 O 0.16549(18) 0.19423(17) 0.7321(7)
H29_8 H 0.1775 0.1952 0.6675
H30_8 H 0.1469 0.1942 0.7033
O19_8 O 0.2190(2) 0.1428(2) 0.9977(9)
H31_8 H 0.2301 0.1262 0.9787
H32_8 H 0.2322 0.1584 0.9962
O20_8 O 0.2014(2) 0.1153(2) 0.5003(8)
O21_8 O 0.14591(19) 0.19316(18) 0.3862(7)
H33_8 H 0.1302 0.1917 0.3396
H34_8 H 0.1396 0.1949 0.4612
O22_8 O 0.13610(19) 0.13780(19) 0.2315(7)
H35_8 H 0.1265 0.1540 0.2070
H36_8 H 0.1417 0.1281 0.1648
Pr2_8 Pr 0.176388(15) 0.150466(15) 0.85952(6)
N9_8 N 0.3286(2) 0.2218(2) 0.4459(9)
N10_8 N 0.3559(2) 0.2431(2) 0.6350(8)
C7_8 C 0.1416(3) 0.2421(3) 0.9671(10)
C8_8 C 0.1230(3) 0.2534(3) 0.7816(11)
H6_6 H 0.1247 0.2636 0.7103
C9_8 C 0.1001(3) 0.2360(3) 0.7976(10)
H7_6 H 0.0859 0.2341 0.7388
C10_8 C 0.0977(3) 0.2207(3) 0.9046(10)
H8_8 H 0.0818 0.2085 0.9167
C11_8 C 0.1184(2) 0.2233(3) 0.9920(9)
N2_8 N 0.1441(2) 0.2569(2) 0.8650(8)
Co3_8 Co 0.16733(4) 0.29626(4) 0.87860(15)
H1_9 H 0.3472(8) 0.545(4) 0.247(10)
H2_9 H 0.373(2) 0.545(3) 0.183(6)
C1_9 C 0.4474(3) 0.5705(3) 0.6397(10)
C2_9 C 0.4802(3) 0.5693(3) 0.6238(10)
C3_9 C 0.4912(3) 0.5491(3) 0.5436(11)
H3_9 H 0.4786 0.5379 0.4977
C4_9 C 0.5209(3) 0.5458(3) 0.5325(12)
H4_7 H 0.5289 0.5350 0.4707
C5_9 C 0.5388(4) 0.5596(4) 0.6189(13)
H5_9 H 0.5585 0.5552 0.6213
C6_9 C 0.4993(3) 0.5841(3) 0.6952(10)
C7_9 C 0.4921(3) 0.6084(3) 0.7829(10)
C8_9 C 0.5034(3) 0.6270(3) 0.9684(11)
C9_9 C 0.4860(3) 0.6499(3) 0.9524(10)
C10_9 C 0.4707(3) 0.6523(3) 0.8454(10)
H8_9 H 0.4585 0.6682 0.8333
C11_9 C 0.4733(3) 0.6316(2) 0.7580(9)
C12_9 C 0.4567(3) 0.6344(3) 0.6448(11)
C13_9 C 0.4039(3) 0.5174(3) 0.0187(13)
C14_9 C 0.3982(3) 0.4879(3) 0.0761(12)
C15_9 C 0.3702(3) 0.4763(3) 0.0709(12)
H9_9 H 0.3548 0.4875 0.0429
C16_9 C 0.3654(3) 0.4486(3) 0.1070(13)
H10_9 H 0.3469 0.4405 0.1040
C17_9 C 0.3892(3) 0.4320(3) 0.1493(13)
H11_9 H 0.3861 0.4128 0.1720
C18_9 C 0.4207(3) 0.4709(3) 0.1274(12)
C19_9 C 0.4507(3) 0.4807(3) 0.1457(11)
C20_9 C 0.4987(3) 0.4680(3) 0.1136(10)
H12_7 H 0.5125 0.4543 0.0902
C21_7 C 0.5084(3) 0.4954(3) 0.1547(11)
H13_7 H 0.5280 0.5003 0.1530
C22_9 C 0.4879(3) 0.5143(3) 0.1970(11)
H14_9 H 0.4940 0.5320 0.2293
C23_9 C 0.4580(3) 0.5080(3) 0.1931(12)
C24_9 C 0.4365(3) 0.5270(3) 0.2564(11)
C25_9 C 0.4243(3) 0.6550(3) 0.1470(10)
C26_9 C 0.4126(3) 0.6675(3) 0.2623(10)
C27_9 C 0.4321(3) 0.6749(3) 0.3509(10)
H15_9 H 0.4519 0.6717 0.3387
C28_9 C 0.4230(3) 0.6869(3) 0.4573(11)
H16_9 H 0.4362 0.6919 0.5165
C29_9 C 0.3934(3) 0.6913(3) 0.4722(10)
H17_9 H 0.3868 0.6998 0.5423
C30_9 C 0.3837(3) 0.6718(3) 0.2878(10)
C31_9 C 0.3593(3) 0.6651(3) 0.2036(10)
C32_9 C 0.3162(3) 0.6836(3) 0.1220(12)
H18_9 H 0.3017 0.6978 0.1216
C33_9 C 0.3148(4) 0.6616(4) 0.0405(14)
C34_9 C 0.3344(3) 0.6389(3) 0.0482(12)
C35_9 C 0.3566(3) 0.6400(3) 0.1299(10)
C36_9 C 0.3756(2) 0.6133(3) 0.1484(10)
N3_9 N 0.4707(2) 0.4609(2) 0.1072(9)
N4_9 N 0.4156(2) 0.4428(2) 0.1575(10)
N5_5 N 0.3741(2) 0.6837(2) 0.3895(8)
N6_5 N 0.3379(2) 0.6856(2) 0.2032(9)
O1_9 O 0.38191(19) 0.53532(18) 0.0239(7)
O3_9 O 0.4245(2) 0.51820(19) 0.3492(8)
O4_9 O 0.4332(2) 0.55287(18) 0.2173(7)
O5_9 O 0.43238(19) 0.56432(18) 0.5522(7)
O6 O 0.43862(18) 0.57652(18) 0.7428(7)
O7_9 O 0.46974(19) 0.63029(19) 0.5481(7)
O8_9 O 0.43058(19) 0.64144(19) 0.6532(7)
O9_9 O 0.44292(18) 0.63477(18) 0.1568(6)
O10_9 O 0.41429(18) 0.66438(18) 0.0512(7)
O11_9 O 0.38381(18) 0.60902(17) 0.2530(7)
O12_9 O 0.38014(18) 0.59749(17) 0.0604(7)
O18_9 O 0.44423(17) 0.58451(18) 0.0179(7)
H29_9 H 0.4452 0.5725 0.0825
H30_9 H 0.4442 0.6031 0.0467
O20_9 O 0.3653(2) 0.5486(2) 0.2497(8)
O21_9 O 0.44316(18) 0.60409(19) 0.3638(7)
H33_9 H 0.4417 0.6198 0.4104
H34_9 H 0.4449 0.6104 0.2888
O22_9 O 0.38780(19) 0.61390(19) 0.5185(7)
H35_9 H 0.4040 0.6235 0.5430
H36_9 H 0.3781 0.6083 0.5852
Pr1 Pr 0.400021(15) 0.571358(15) 0.38782(6)
N11_5 N 0.4337(2) 0.3759(2) 0.1395(8)
O24 O 0.3777(2) 0.5355(3) 0.5294(9)
O25 O 0.3447(2) 0.5663(3) 0.4727(9)
Pr4 Pr 0.400466(15) 0.573612(15) 0.89048(6)
H19_9 H 0.3008 0.6618 0.9806
H20_9 H 0.3326 0.6229 0.9981
C37_9 C 0.3176(3) 0.5914(4) 0.7045(12)
C38_9 C 0.3091(3) 0.6212(4) 0.7049(13)
H21_9 H 0.3215 0.6350 0.7371
C39_9 C 0.2835(4) 0.6295(4) 0.6597(13)
H22_9 H 0.2768 0.6486 0.6642
C40_9 C 0.2684(4) 0.6085(4) 0.6081(13)
H23_9 H 0.2511 0.6144 0.5721
C41_9 C 0.2997(3) 0.5703(4) 0.6520(13)
C42_9 C 0.3067(4) 0.5393(4) 0.6583(13)
C43_9 C 0.2919(4) 0.4946(4) 0.7234(14)
H24_9 H 0.2769 0.4828 0.7510
C44_9 C 0.3187(4) 0.4812(4) 0.7031(15)
H25_9 H 0.3230 0.4625 0.7298
C45_9 C 0.3381(4) 0.4977(4) 0.6409(14)
H26_9 H 0.3556 0.4896 0.6166
C46_9 C 0.3315(4) 0.5281(4) 0.6118(14)
C47_9 C 0.3538(4) 0.5456(4) 0.5364(14)
C48_9 C 0.3451(3) 0.5839(3) 0.7715(12)
N7_9 N 0.2740(3) 0.5794(3) 0.5994(11)
N8_9 N 0.2855(3) 0.5225(3) 0.7076(11)
O2_9 O 0.4264(2) 0.5229(2) 0.9676(9)
O13_9 O 0.3683(2) 0.5918(2) 0.7255(8)
O14_9 O 0.3443(2) 0.5703(2) 0.8661(7)
O17_9 O 0.40644(18) 0.62692(18) 0.8654(7)
H27_9 H 0.4154 0.6314 0.7965
H28_9 H 0.4172 0.6347 0.9244
O19_9 O 0.3928(2) 0.5310(2) 0.7523(9)
H31_9 H 0.3762 0.5199 0.7713
H32_9 H 0.4084 0.5178 0.7538
N12_5 N 0.4356(2) 0.4121(2) 0.9532(9)
C1_10 C 0.6795(3) 0.1974(3) 0.3897(10)
C2_10 C 0.6807(3) 0.2302(3) 0.3738(10)
C3_10 C 0.7009(3) 0.2412(3) 0.2936(11)
H3_10 H 0.7121 0.2286 0.2477
C4_10 C 0.7042(3) 0.2709(3) 0.2825(12)
H4_8 H 0.7150 0.2789 0.2207
C5_10 C 0.6904(4) 0.2888(4) 0.3689(13)
H5_10 H 0.6948 0.3085 0.3713
C6_10 C 0.6659(3) 0.2493(3) 0.4452(10)
C7_10 C 0.6416(3) 0.2421(3) 0.5329(10)
C8_10 C 0.6230(3) 0.2534(3) 0.7184(11)
H6_7 H 0.6247 0.2636 0.7897
C9_10 C 0.6001(3) 0.2360(3) 0.7024(10)
H7_7 H 0.5859 0.2341 0.7612
C10_10 C 0.5977(3) 0.2207(3) 0.5954(10)
H8_10 H 0.5818 0.2085 0.5833
C11_10 C 0.6184(2) 0.2233(3) 0.5080(9)
C12_10 C 0.6156(3) 0.2067(3) 0.3948(11)
C24_10 C 0.7230(3) 0.1865(3) 0.0064(11)
C26_10 C 0.5825(3) 0.1626(3) 0.0123(10)
C27_10 C 0.5751(3) 0.1821(3) 0.1009(10)
H15_10 H 0.5783 0.2019 0.0887
C28_10 C 0.5631(3) 0.1730(3) 0.2073(11)
H16_10 H 0.5581 0.1862 0.2665
C29_10 C 0.5587(3) 0.1434(3) 0.2222(10)
H17_10 H 0.5502 0.1368 0.2923
C30_10 C 0.5782(3) 0.1337(3) 0.0378(10)
N5_6 N 0.5663(2) 0.1241(2) 0.1395(8)
O3_10 O 0.73180(19) 0.1745(2) 0.0992(8)
O5_10 O 0.68568(18) 0.18238(19) 0.3022(7)
O6_2 O 0.67348(18) 0.18862(18) 0.4928(7)
O7_10 O 0.61971(19) 0.21974(19) 0.2981(7)
O8_10 O 0.60856(19) 0.18058(19) 0.4032(7)
O11_10 O 0.64098(17) 0.13381(18) 0.0030(7)
O21_10 O 0.64591(19) 0.19316(18) 0.1138(7)
H33_10 H 0.6302 0.1917 0.1604
H34_10 H 0.6396 0.1949 0.0388
O22_10 O 0.63610(19) 0.13780(19) 0.2685(7)
H35_10 H 0.6265 0.1540 0.2930
H36_10 H 0.6417 0.1281 0.3352
Pr1_2 Pr 0.678642(15) 0.150021(15) 0.13782(6)
O24_2 O 0.7145(3) 0.1277(2) 0.2794(9)
O25_2 O 0.6837(3) 0.0947(2) 0.2227(9)
Pr4_2 Pr 0.676388(15) 0.150466(15) 0.64048(6)
H1_10 H 0.705(4) 0.0972(8) 0.997(10)
H2_10 H 0.705(3) 0.123(2) 0.933(6)
C13_10 C 0.7326(3) 0.1539(3) 0.7687(13)
C14_10 C 0.7621(3) 0.1482(3) 0.8261(12)
C15_10 C 0.7737(3) 0.1202(3) 0.8209(12)
H9_10 H 0.7625 0.1048 0.7929
C16_10 C 0.8014(3) 0.1154(3) 0.8570(13)
H10_10 H 0.8095 0.0969 0.8540
C17_10 C 0.8180(3) 0.1392(3) 0.8993(13)
H11_10 H 0.8372 0.1361 0.9220
C18_10 C 0.7791(3) 0.1707(3) 0.8774(12)
C19_10 C 0.7693(3) 0.2007(3) 0.8957(11)
C20_10 C 0.7820(3) 0.2487(3) 0.8636(10)
H12_8 H 0.7957 0.2625 0.8402
C21_8 C 0.7546(3) 0.2584(3) 0.9047(11)
H13_8 H 0.7497 0.2780 0.9030
C22_10 C 0.7357(3) 0.2379(3) 0.9470(11)
H14_10 H 0.7180 0.2440 0.9793
C23_10 C 0.7420(3) 0.2080(3) 0.9431(12)
C25_10 C 0.5950(3) 0.1743(3) 0.8970(10)
C31_10 C 0.5849(3) 0.1093(3) 0.9536(10)
C32_10 C 0.5664(3) 0.0662(3) 0.8720(12)
H18_10 H 0.5522 0.0517 0.8716
C33_10 C 0.5884(4) 0.0648(4) 0.7905(14)
H19_10 H 0.5882 0.0508 0.7306
C34_10 C 0.6111(3) 0.0844(3) 0.7982(12)
H20_10 H 0.6271 0.0826 0.7481
C35_10 C 0.6100(3) 0.1066(3) 0.8799(10)
C36_10 C 0.6367(3) 0.1256(2) 0.8984(10)
C37_10 C 0.6586(4) 0.0676(3) 0.4545(12)
C38_10 C 0.6288(4) 0.0591(3) 0.4549(13)
H21_10 H 0.6150 0.0715 0.4871
C39_10 C 0.6205(4) 0.0335(4) 0.4097(13)
H22_10 H 0.6014 0.0268 0.4142
C40_10 C 0.6415(4) 0.0184(4) 0.3581(13)
H23_10 H 0.6356 0.0011 0.3221
C41_10 C 0.6797(4) 0.0497(3) 0.4020(13)
C42_10 C 0.7107(4) 0.0567(4) 0.4083(13)
C43_10 C 0.7554(4) 0.0419(4) 0.4734(14)
H24_10 H 0.7672 0.0269 0.5010
C44_10 C 0.7688(4) 0.0687(4) 0.4531(15)
H25_10 H 0.7875 0.0730 0.4798
C45_10 C 0.7523(4) 0.0881(4) 0.3909(14)
H26_10 H 0.7604 0.1056 0.3666
C46_10 C 0.7219(4) 0.0815(4) 0.3618(14)
C47_10 C 0.7044(4) 0.1038(4) 0.2864(14)
C48_10 C 0.6661(3) 0.0951(3) 0.5215(12)
N3_10 N 0.7891(2) 0.2207(2) 0.8572(9)
N4_10 N 0.8072(2) 0.1656(2) 0.9075(10)
N6_6 N 0.5644(2) 0.0879(2) 0.9532(9)
N7_10 N 0.6706(3) 0.0240(3) 0.3494(11)
N8_10 N 0.7275(3) 0.0355(3) 0.4576(11)
O1_10 O 0.71468(18) 0.13191(19) 0.7739(7)
O2_10 O 0.7271(2) 0.1764(2) 0.7176(9)
O4_10 O 0.69713(18) 0.1832(2) 0.9673(7)
O9_10 O 0.61523(18) 0.19292(18) 0.9068(6)
O10_10 O 0.58562(18) 0.16429(18) 0.8012(7)
O12_10 O 0.65251(17) 0.13014(18) 0.8104(7)
O13_10 O 0.6582(2) 0.1183(2) 0.4755(8)
O14_10 O 0.6797(2) 0.0943(2) 0.6161(7)
O17_10 O 0.62308(18) 0.15644(18) 0.6154(7)
H27_10 H 0.6186 0.1654 0.5465
H28_10 H 0.6153 0.1672 0.6744
O18_10 O 0.66549(18) 0.19423(17) 0.7679(7)
H29_10 H 0.6775 0.1952 0.8325
H30_10 H 0.6469 0.1942 0.7967
O19_10 O 0.7190(2) 0.1428(2) 0.5023(9)
H31_10 H 0.7301 0.1262 0.5213
H32_10 H 0.7322 0.1584 0.5038
O20_10 O 0.7014(2) 0.1153(2) 0.9997(8)
N11_6 N 0.8741(2) 0.1837(2) 0.8895(8)
N12_6 N 0.8379(2) 0.1856(2) 0.7032(9)
C14_11 C 0.6018(3) 0.0121(3) 0.0761(12)
C15_11 C 0.6298(3) 0.0237(3) 0.0709(12)
H9_11 H 0.6452 0.0125 0.0429
C16_11 C 0.6346(3) 0.0514(3) 0.1070(13)
H10_11 H 0.6531 0.0595 0.1040
C17_11 C 0.6108(3) 0.0680(3) 0.1493(13)
H11_11 H 0.6139 0.0872 0.1720
C18_11 C 0.5793(3) 0.0291(3) 0.1274(12)
C19_11 C 0.5493(3) 0.0193(3) 0.1457(11)
C20_11 C 0.5013(3) 0.0320(3) 0.1136(10)
H12_9 H 0.4875 0.0457 0.0902
C21_9 C 0.4916(3) 0.0046(3) 0.1547(11)
N3_11 N 0.5293(2) 0.0391(2) 0.1072(9)
N4_11 N 0.5844(2) 0.0572(2) 0.1575(10)
C43_11 C 0.7081(4) 0.0054(4) 0.7234(14)
H24_11 H 0.7231 0.0172 0.7510
C44_11 C 0.6813(4) 0.0188(4) 0.7031(15)
H25_11 H 0.6770 0.0375 0.7298
C45_11 C 0.6619(4) 0.0023(4) 0.6409(14)
H26_11 H 0.6444 0.0104 0.6166
H1_11 H 0.6528(8) 0.955(4) 0.247(10)
H2_11 H 0.627(2) 0.955(3) 0.183(6)
C1_11 C 0.5526(3) 0.9295(3) 0.6397(10)
C2_11 C 0.5198(3) 0.9307(3) 0.6238(10)
C3_11 C 0.5088(3) 0.9509(3) 0.5436(11)
H3_11 H 0.5214 0.9621 0.4977
C4_11 C 0.4791(3) 0.9542(3) 0.5325(12)
H4_9 H 0.4711 0.9650 0.4707
C5_11 C 0.4612(4) 0.9404(4) 0.6189(13)
H5_11 H 0.4415 0.9448 0.6213
C6_11 C 0.5007(3) 0.9159(3) 0.6952(10)
C7_11 C 0.5079(3) 0.8916(3) 0.7829(10)
C8_11 C 0.4966(3) 0.8730(3) 0.9684(11)
C9_11 C 0.5140(3) 0.8501(3) 0.9524(10)
C10_11 C 0.5293(3) 0.8477(3) 0.8454(10)
H8_11 H 0.5415 0.8318 0.8333
C11_11 C 0.5267(3) 0.8684(2) 0.7580(9)
C12_11 C 0.5433(3) 0.8656(3) 0.6448(11)
C13_11 C 0.5961(3) 0.9826(3) 0.0187(13)
H13_9 H 0.4720 0.9997 0.1530
C22_11 C 0.5121(3) 0.9857(3) 0.1970(11)
H14_11 H 0.5060 0.9680 0.2293
C23_11 C 0.5420(3) 0.9920(3) 0.1931(12)
C24_11 C 0.5635(3) 0.9730(3) 0.2564(11)
C25_11 C 0.5757(3) 0.8450(3) 0.1470(10)
C26_11 C 0.5874(3) 0.8325(3) 0.2623(10)
C27_11 C 0.5679(3) 0.8251(3) 0.3509(10)
H15_11 H 0.5481 0.8283 0.3387
C28_11 C 0.5770(3) 0.8131(3) 0.4573(11)
H16_11 H 0.5638 0.8081 0.5165
C29_11 C 0.6066(3) 0.8087(3) 0.4722(10)
H17_11 H 0.6132 0.8002 0.5423
C30_11 C 0.6163(3) 0.8282(3) 0.2878(10)
C31_11 C 0.6407(3) 0.8349(3) 0.2036(10)
C32_11 C 0.6838(3) 0.8164(3) 0.1220(12)
H18_11 H 0.6983 0.8022 0.1216
C33_11 C 0.6852(4) 0.8384(4) 0.0405(14)
C34_11 C 0.6656(3) 0.8611(3) 0.0482(12)
C35_11 C 0.6434(3) 0.8600(3) 0.1299(10)
C36_11 C 0.6244(2) 0.8867(3) 0.1484(10)
N5_7 N 0.6259(2) 0.8163(2) 0.3895(8)
N6_7 N 0.6621(2) 0.8144(2) 0.2032(9)
O1_11 O 0.61809(19) 0.96468(18) 0.0239(7)
O3_11 O 0.5755(2) 0.98180(19) 0.3492(8)
O4_11 O 0.5668(2) 0.94713(18) 0.2173(7)
O5_11 O 0.56762(19) 0.93568(18) 0.5522(7)
O6_3 O 0.56138(18) 0.92348(18) 0.7428(7)
O7_11 O 0.53026(19) 0.86971(19) 0.5481(7)
O8_11 O 0.56942(19) 0.85856(19) 0.6532(7)
O9_11 O 0.55708(18) 0.86523(18) 0.1568(6)
O10_11 O 0.58571(18) 0.83562(18) 0.0512(7)
O11_11 O 0.61619(18) 0.89098(17) 0.2530(7)
O12_11 O 0.61986(18) 0.90251(17) 0.0604(7)
O18_11 O 0.55577(17) 0.91549(18) 0.0179(7)
H29_11 H 0.5548 0.9275 0.0825
H30_11 H 0.5558 0.8969 0.0467
O20_11 O 0.6347(2) 0.9514(2) 0.2497(8)
O21_11 O 0.55684(18) 0.89591(19) 0.3638(7)
H33_11 H 0.5583 0.8802 0.4104
H34_11 H 0.5551 0.8896 0.2888
O22_11 O 0.61220(19) 0.88610(19) 0.5185(7)
H35_11 H 0.5960 0.8765 0.5430
H36_11 H 0.6219 0.8917 0.5852
Pr1_3 Pr 0.599979(15) 0.928642(15) 0.38782(6)
O24_3 O 0.6223(2) 0.9645(3) 0.5294(9)
O25_3 O 0.6553(2) 0.9337(3) 0.4727(9)
Pr4_3 Pr 0.599534(15) 0.926388(15) 0.89048(6)
H19_11 H 0.6992 0.8382 0.9806
H20_11 H 0.6674 0.8771 0.9981
C37_11 C 0.6824(3) 0.9086(4) 0.7045(12)
C38_11 C 0.6909(3) 0.8788(4) 0.7049(13)
H21_11 H 0.6785 0.8650 0.7371
C39_11 C 0.7165(4) 0.8705(4) 0.6597(13)
H22_11 H 0.7232 0.8514 0.6642
C40_11 C 0.7316(4) 0.8915(4) 0.6081(13)
H23_11 H 0.7489 0.8856 0.5721
C41_11 C 0.7003(3) 0.9297(4) 0.6520(13)
C42_11 C 0.6933(4) 0.9607(4) 0.6583(13)
C46_11 C 0.6685(4) 0.9719(4) 0.6118(14)
C47_11 C 0.6462(4) 0.9544(4) 0.5364(14)
C48_11 C 0.6549(3) 0.9161(3) 0.7715(12)
N7_11 N 0.7260(3) 0.9206(3) 0.5994(11)
N8_11 N 0.7145(3) 0.9775(3) 0.7076(11)
O2_11 O 0.5736(2) 0.9771(2) 0.9676(9)
O13_11 O 0.6317(2) 0.9082(2) 0.7255(8)
O14_11 O 0.6557(2) 0.9297(2) 0.8661(7)
O17_11 O 0.59356(18) 0.87308(18) 0.8654(7)
H27_11 H 0.5846 0.8686 0.7965
H28_11 H 0.5828 0.8653 0.9244
O19_11 O 0.6072(2) 0.9690(2) 0.7523(9)
H31_11 H 0.6238 0.9801 0.7713
H32_11 H 0.5916 0.9822 0.7538
C1_12 C 0.3205(3) 0.3026(3) 0.3897(10)
C2_12 C 0.3193(3) 0.2698(3) 0.3738(10)
C3_12 C 0.2991(3) 0.2588(3) 0.2936(11)
H3_12 H 0.2879 0.2714 0.2477
C4_12 C 0.2958(3) 0.2291(3) 0.2825(12)
H4_10 H 0.2850 0.2211 0.2207
C5_12 C 0.3096(4) 0.2112(4) 0.3689(13)
H5_12 H 0.3052 0.1915 0.3713
C6_12 C 0.3341(3) 0.2507(3) 0.4452(10)
C7_12 C 0.3584(3) 0.2579(3) 0.5329(10)
C8_12 C 0.3770(3) 0.2466(3) 0.7184(11)
H6_8 H 0.3753 0.2364 0.7897
C9_12 C 0.3999(3) 0.2640(3) 0.7024(10)
H7_8 H 0.4141 0.2659 0.7612
C10_12 C 0.4023(3) 0.2793(3) 0.5954(10)
H8_12 H 0.4182 0.2915 0.5833
C11_12 C 0.3816(2) 0.2767(3) 0.5080(9)
C12_12 C 0.3844(3) 0.2933(3) 0.3948(11)
C24_12 C 0.2770(3) 0.3135(3) 0.0064(11)
C26_12 C 0.4175(3) 0.3374(3) 0.0123(10)
C27_12 C 0.4249(3) 0.3179(3) 0.1009(10)
H15_12 H 0.4217 0.2981 0.0887
C28_12 C 0.4369(3) 0.3270(3) 0.2073(11)
H16_12 H 0.4419 0.3138 0.2665
C29_12 C 0.4413(3) 0.3566(3) 0.2222(10)
H17_12 H 0.4498 0.3632 0.2923
C30_12 C 0.4218(3) 0.3663(3) 0.0378(10)
O3_12 O 0.26820(19) 0.3255(2) 0.0992(8)
O5_12 O 0.31432(18) 0.31762(19) 0.3022(7)
O6_4 O 0.32652(18) 0.31138(18) 0.4928(7)
O7_12 O 0.38029(19) 0.28026(19) 0.2981(7)
O8_12 O 0.39144(19) 0.31942(19) 0.4032(7)
O11_12 O 0.35902(17) 0.36619(18) 0.0030(7)
O21_12 O 0.35409(19) 0.30684(18) 0.1138(7)
H33_12 H 0.3698 0.3083 0.1604
H34_12 H 0.3604 0.3051 0.0388
O22_12 O 0.36390(19) 0.36220(19) 0.2685(7)
H35_12 H 0.3735 0.3460 0.2930
H36_12 H 0.3583 0.3719 0.3352
Pr1_4 Pr 0.321358(15) 0.349979(15) 0.13782(6)
O24_4 O 0.2855(3) 0.3723(2) 0.2794(9)
O25_4 O 0.3163(3) 0.4053(2) 0.2227(9)
Pr4_4 Pr 0.323612(15) 0.349534(15) 0.64048(6)
H1_12 H 0.295(4) 0.4028(8) 0.997(10)
H2_12 H 0.295(3) 0.377(2) 0.933(6)
C13_12 C 0.2674(3) 0.3461(3) 0.7687(13)
C14_12 C 0.2379(3) 0.3518(3) 0.8261(12)
C15_12 C 0.2263(3) 0.3798(3) 0.8209(12)
H9_12 H 0.2375 0.3952 0.7929
C16_12 C 0.1986(3) 0.3846(3) 0.8570(13)
H10_12 H 0.1905 0.4031 0.8540
C17_12 C 0.1820(3) 0.3608(3) 0.8993(13)
H11_12 H 0.1628 0.3639 0.9220
C18_12 C 0.2209(3) 0.3293(3) 0.8774(12)
C19_12 C 0.2307(3) 0.2993(3) 0.8957(11)
C20_12 C 0.2180(3) 0.2513(3) 0.8636(10)
H12_10 H 0.2043 0.2375 0.8402
C21_10 C 0.2454(3) 0.2416(3) 0.9047(11)
H13_10 H 0.2503 0.2220 0.9030
C22_12 C 0.2643(3) 0.2621(3) 0.9470(11)
H14_12 H 0.2820 0.2560 0.9793
C23_12 C 0.2580(3) 0.2920(3) 0.9431(12)
C25_12 C 0.4050(3) 0.3257(3) 0.8970(10)
C31_12 C 0.4151(3) 0.3907(3) 0.9536(10)
C32_12 C 0.4336(3) 0.4338(3) 0.8720(12)
H18_12 H 0.4478 0.4483 0.8716
C33_12 C 0.4116(4) 0.4352(4) 0.7905(14)
H19_12 H 0.4118 0.4492 0.7306
C34_12 C 0.3889(3) 0.4156(3) 0.7982(12)
H20_12 H 0.3729 0.4174 0.7481
C35_12 C 0.3900(3) 0.3934(3) 0.8799(10)
C36_12 C 0.3633(3) 0.3744(2) 0.8984(10)
C37_12 C 0.3414(4) 0.4324(3) 0.4545(12)
C38_12 C 0.3712(4) 0.4409(3) 0.4549(13)
H21_12 H 0.3850 0.4285 0.4871
C39_12 C 0.3795(4) 0.4665(4) 0.4097(13)
H22_12 H 0.3986 0.4732 0.4142
C40_12 C 0.3585(4) 0.4816(4) 0.3581(13)
H23_12 H 0.3644 0.4989 0.3221
C41_12 C 0.3203(4) 0.4503(3) 0.4020(13)
C42_12 C 0.2893(4) 0.4433(4) 0.4083(13)
C43_12 C 0.2446(4) 0.4581(4) 0.4734(14)
H24_12 H 0.2328 0.4731 0.5010
C44_12 C 0.2312(4) 0.4313(4) 0.4531(15)
H25_12 H 0.2125 0.4270 0.4798
C45_12 C 0.2477(4) 0.4119(4) 0.3909(14)
H26_12 H 0.2396 0.3944 0.3666
C46_12 C 0.2781(4) 0.4185(4) 0.3618(14)
C47_12 C 0.2956(4) 0.3962(4) 0.2864(14)
C48_12 C 0.3339(3) 0.4049(3) 0.5215(12)
N3_12 N 0.2109(2) 0.2793(2) 0.8572(9)
N4_12 N 0.1928(2) 0.3344(2) 0.9075(10)
N7_12 N 0.3294(3) 0.4760(3) 0.3494(11)
N8_12 N 0.2725(3) 0.4645(3) 0.4576(11)
O1_12 O 0.28532(18) 0.36809(19) 0.7739(7)
O2_12 O 0.2729(2) 0.3236(2) 0.7176(9)
O4_12 O 0.30287(18) 0.3168(2) 0.9673(7)
O9_12 O 0.38477(18) 0.30708(18) 0.9068(6)
O10_12 O 0.41438(18) 0.33571(18) 0.8012(7)
O12_12 O 0.34749(17) 0.36986(18) 0.8104(7)
O13_12 O 0.3418(2) 0.3817(2) 0.4755(8)
O14_12 O 0.3203(2) 0.4057(2) 0.6161(7)
O17_12 O 0.37692(18) 0.34356(18) 0.6154(7)
H27_12 H 0.3814 0.3346 0.5465
H28_12 H 0.3847 0.3328 0.6744
O18_12 O 0.33451(18) 0.30577(17) 0.7679(7)
H29_12 H 0.3225 0.3048 0.8325
H30_12 H 0.3531 0.3058 0.7967
O19_12 O 0.2810(2) 0.3572(2) 0.5023(9)
H31_12 H 0.2699 0.3738 0.5213
H32_12 H 0.2678 0.3416 0.5038
O20_12 O 0.2986(2) 0.3847(2) 0.9997(8)
N11_7 N 0.1259(2) 0.3163(2) 0.8895(8)
N12_7 N 0.1621(2) 0.3144(2) 0.7032(9)
C4_13 C 0.0209(3) 0.0458(3) 0.0325(12)
C5_13 C 0.0388(4) 0.0596(4) 0.1189(13)
H5_13 H 0.0585 0.0552 0.1213
C8_13 C 0.0034(3) 0.1270(3) 0.4684(11)
H6_9 H 0.0136 0.1253 0.5397
C1_13 C 0.9474(3) 0.0705(3) 0.1397(10)
C2_13 C 0.9802(3) 0.0693(3) 0.1238(10)
C3_13 C 0.9912(3) 0.0491(3) 0.0436(11)
C6_13 C 0.9993(3) 0.0841(3) 0.1952(10)
C7_13 C 0.9921(3) 0.1084(3) 0.2829(10)
C9_13 C 0.9860(3) 0.1499(3) 0.4524(10)
H7_9 H 0.9841 0.1641 0.5112
C10_13 C 0.9707(3) 0.1523(3) 0.3454(10)
H8_13 H 0.9585 0.1682 0.3333
C11_13 C 0.9733(3) 0.1316(2) 0.2580(9)
C12_13 C 0.9567(3) 0.1344(3) 0.1448(11)
H16_13 H 0.9362 0.1919 0.0165
H17_13 H 0.8868 0.1998 0.0423
O5_13 O 0.93238(19) 0.06432(18) 0.0522(7)
O6_5 O 0.93862(18) 0.07652(18) 0.2428(7)
O7_13 O 0.96974(19) 0.13029(19) 0.0481(7)
O8_13 O 0.93058(19) 0.14144(19) 0.1532(7)
O22_13 O 0.88780(19) 0.11390(19) 0.0185(7)
H35_13 H 0.9040 0.1235 0.0430
H36_13 H 0.8781 0.1083 0.0852
O24_5 O 0.8777(2) 0.0355(3) 0.0294(9)
Pr4_5 Pr 0.900466(15) 0.073612(15) 0.39048(6)
H1_13 H 0.8472(8) 0.045(4) 0.747(10)
H2_13 H 0.873(2) 0.045(3) 0.683(6)
H3_13 H 0.9786 0.0379 0.9977
C13_13 C 0.9039(3) 0.0174(3) 0.5187(13)
C22_13 C 0.9879(3) 0.0143(3) 0.6970(11)
H14_13 H 0.9940 0.0320 0.7293
C23_13 C 0.9580(3) 0.0080(3) 0.6931(12)
C24_13 C 0.9365(3) 0.0270(3) 0.7564(11)
C25_13 C 0.9243(3) 0.1550(3) 0.6470(10)
C26_13 C 0.9126(3) 0.1675(3) 0.7623(10)
C27_13 C 0.9321(3) 0.1749(3) 0.8509(10)
H15_13 H 0.9519 0.1717 0.8387
C28_13 C 0.9230(3) 0.1869(3) 0.9573(11)
C29_13 C 0.8934(3) 0.1913(3) 0.9722(10)
C30_13 C 0.8837(3) 0.1718(3) 0.7878(10)
C31_13 C 0.8593(3) 0.1651(3) 0.7036(10)
C32_13 C 0.8162(3) 0.1836(3) 0.6220(12)
H18_13 H 0.8017 0.1978 0.6216
C33_13 C 0.8148(4) 0.1616(4) 0.5405(14)
H19_13 H 0.8008 0.1618 0.4806
C34_13 C 0.8344(3) 0.1389(3) 0.5482(12)
H20_13 H 0.8326 0.1229 0.4981
C35_13 C 0.8566(3) 0.1400(3) 0.6299(10)
C36_13 C 0.8756(2) 0.1133(3) 0.6484(10)
C37_13 C 0.8176(3) 0.0914(4) 0.2045(12)
C38_13 C 0.8091(3) 0.1212(4) 0.2049(13)
H21_13 H 0.8215 0.1350 0.2371
C39_13 C 0.7835(4) 0.1295(4) 0.1597(13)
H22_13 H 0.7768 0.1486 0.1642
C40_13 C 0.7684(4) 0.1085(4) 0.1081(13)
H23_13 H 0.7511 0.1144 0.0721
C41_13 C 0.7997(3) 0.0703(4) 0.1520(13)
C42_13 C 0.8067(4) 0.0393(4) 0.1583(13)
C46_13 C 0.8315(4) 0.0281(4) 0.1118(14)
C47_13 C 0.8538(4) 0.0456(4) 0.0364(14)
C48_13 C 0.8451(3) 0.0839(3) 0.2715(12)
N7_13 N 0.7740(3) 0.0794(3) 0.0994(11)
N8_13 N 0.7855(3) 0.0225(3) 0.2076(11)
O1_13 O 0.88191(19) 0.03532(18) 0.5239(7)
O2_13 O 0.9264(2) 0.0229(2) 0.4676(9)
O3_13 O 0.9245(2) 0.01820(19) 0.8492(8)
O4_13 O 0.9332(2) 0.05287(18) 0.7173(7)
O9_13 O 0.94292(18) 0.13477(18) 0.6568(6)
O10_13 O 0.91429(18) 0.16438(18) 0.5512(7)
O11_13 O 0.88381(18) 0.10902(17) 0.7530(7)
O12_13 O 0.88014(18) 0.09749(17) 0.5604(7)
O13_13 O 0.8683(2) 0.0918(2) 0.2255(8)
O14_13 O 0.8443(2) 0.0703(2) 0.3661(7)
O17_13 O 0.90644(18) 0.12692(18) 0.3654(7)
H27_13 H 0.9154 0.1314 0.2965
H28_13 H 0.9172 0.1347 0.4244
O18_13 O 0.94423(17) 0.08451(18) 0.5179(7)
H29_13 H 0.9452 0.0725 0.5825
H30_13 H 0.9442 0.1031 0.5467
O19_13 O 0.8928(2) 0.0310(2) 0.2523(9)
H31_13 H 0.8762 0.0199 0.2713
H32_13 H 0.9084 0.0178 0.2538
O20_13 O 0.8653(2) 0.0486(2) 0.7497(8)
O21_13 O 0.94316(18) 0.10409(19) 0.8638(7)
H33_13 H 0.9417 0.1198 0.9104
H34_13 H 0.9449 0.1104 0.7888
Pr1_5 Pr 0.900021(15) 0.071358(15) 0.88782(6)
O25_5 O 0.8447(2) 0.0663(3) 0.9727(9)
C14_13 C 0.8982(3) 0.9879(3) 0.5761(12)
C15_13 C 0.8702(3) 0.9763(3) 0.5709(12)
H9_13 H 0.8548 0.9875 0.5429
C16_13 C 0.8654(3) 0.9486(3) 0.6070(13)
H10_13 H 0.8469 0.9405 0.6040
C17_13 C 0.8892(3) 0.9320(3) 0.6493(13)
H11_13 H 0.8861 0.9128 0.6720
C18_13 C 0.9207(3) 0.9709(3) 0.6274(12)
C19_13 C 0.9507(3) 0.9807(3) 0.6457(11)
C20_13 C 0.9987(3) 0.9680(3) 0.6136(10)
C43_13 C 0.7919(4) 0.9946(4) 0.2234(14)
H24_13 H 0.7769 0.9828 0.2510
C44_13 C 0.8187(4) 0.9812(4) 0.2031(15)
H25_13 H 0.8230 0.9625 0.2298
C45_13 C 0.8381(4) 0.9977(4) 0.1409(14)
H26_13 H 0.8556 0.9896 0.1166
N3_13 N 0.9707(2) 0.9609(2) 0.6072(9)
N4_13 N 0.9156(2) 0.9428(2) 0.6575(10)
N11_8 N 0.9337(2) 0.8759(2) 0.6395(8)
N12_8 N 0.9356(2) 0.9121(2) 0.4532(9)
C7_14 C 0.1416(3) 0.7421(3) 0.0329(10)
C8_14 C 0.1230(3) 0.7534(3) 0.2184(11)
H6_10 H 0.1247 0.7636 0.2897
C9_14 C 0.1001(3) 0.7360(3) 0.2024(10)
H7_10 H 0.0859 0.7341 0.2612
C10_14 C 0.0977(3) 0.7207(3) 0.0954(10)
H8_14 H 0.0818 0.7085 0.0833
C11_14 C 0.1184(2) 0.7233(3) 0.0080(9)
Pr4_6 Pr 0.176388(15) 0.650466(15) 0.14048(6)
H1_14 H 0.205(4) 0.5972(8) 0.497(10)
H2_14 H 0.205(3) 0.623(2) 0.433(6)
C1_14 C 0.1795(3) 0.6974(3) 0.8897(10)
C2_14 C 0.1807(3) 0.7302(3) 0.8738(10)
C3_14 C 0.2009(3) 0.7412(3) 0.7936(11)
H3_14 H 0.2121 0.7286 0.7477
C4_14 C 0.2042(3) 0.7709(3) 0.7825(12)
H4_11 H 0.2150 0.7789 0.7207
C5_14 C 0.1904(4) 0.7888(4) 0.8689(13)
H5_14 H 0.1948 0.8085 0.8713
C6_14 C 0.1659(3) 0.7493(3) 0.9452(10)
C12_14 C 0.1156(3) 0.7067(3) 0.8948(11)
C13_14 C 0.2326(3) 0.6539(3) 0.2687(13)
C14_14 C 0.2621(3) 0.6482(3) 0.3261(12)
C15_14 C 0.2737(3) 0.6202(3) 0.3209(12)
H9_14 H 0.2625 0.6048 0.2929
C16_14 C 0.3014(3) 0.6154(3) 0.3570(13)
H10_14 H 0.3095 0.5969 0.3540
C17_14 C 0.3180(3) 0.6392(3) 0.3993(13)
H11_14 H 0.3372 0.6361 0.4220
C18_14 C 0.2791(3) 0.6707(3) 0.3774(12)
C19_14 C 0.2693(3) 0.7007(3) 0.3957(11)
C20_14 C 0.2820(3) 0.7487(3) 0.3636(10)
H12_11 H 0.2957 0.7625 0.3402
C21_11 C 0.2546(3) 0.7584(3) 0.4047(11)
H13_11 H 0.2497 0.7780 0.4030
C22_14 C 0.2357(3) 0.7379(3) 0.4470(11)
H14_14 H 0.2180 0.7440 0.4793
C23_14 C 0.2420(3) 0.7080(3) 0.4431(12)
C24_14 C 0.2230(3) 0.6865(3) 0.5064(11)
C25_14 C 0.0950(3) 0.6743(3) 0.3970(10)
C26_14 C 0.0825(3) 0.6626(3) 0.5123(10)
C27_14 C 0.0751(3) 0.6821(3) 0.6009(10)
H15_14 H 0.0783 0.7019 0.5887
C28_14 C 0.0631(3) 0.6730(3) 0.7073(11)
H16_14 H 0.0581 0.6862 0.7665
C29_14 C 0.0587(3) 0.6434(3) 0.7222(10)
H17_14 H 0.0502 0.6368 0.7923
C30_14 C 0.0782(3) 0.6337(3) 0.5378(10)
C31_14 C 0.0849(3) 0.6093(3) 0.4536(10)
C32_14 C 0.0664(3) 0.5662(3) 0.3720(12)
H18_14 H 0.0522 0.5517 0.3716
C33_14 C 0.0884(4) 0.5648(4) 0.2905(14)
H19_14 H 0.0882 0.5508 0.2306
C34_14 C 0.1111(3) 0.5844(3) 0.2982(12)
H20_14 H 0.1271 0.5826 0.2481
C35_14 C 0.1100(3) 0.6066(3) 0.3799(10)
C36_14 C 0.1367(3) 0.6256(2) 0.3984(10)
H24_14 H 0.2672 0.5269 0.0010
C48_14 C 0.1661(3) 0.5951(3) 0.0215(12)
N3_14 N 0.2891(2) 0.7207(2) 0.3572(9)
N4_14 N 0.3072(2) 0.6656(2) 0.4075(10)
N5_8 N 0.0663(2) 0.6241(2) 0.6395(8)
N6_8 N 0.0644(2) 0.5879(2) 0.4532(9)
O1_14 O 0.21468(18) 0.63191(19) 0.2739(7)
O2_14 O 0.2271(2) 0.6764(2) 0.2176(9)
O3_14 O 0.23180(19) 0.6745(2) 0.5992(8)
O4_14 O 0.19713(18) 0.6832(2) 0.4673(7)
O5_14 O 0.18568(18) 0.68238(19) 0.8022(7)
O6_6 O 0.17348(18) 0.68862(18) 0.9928(7)
O7_14 O 0.11971(19) 0.71974(19) 0.7981(7)
O8_14 O 0.10856(19) 0.68058(19) 0.9032(7)
O9_14 O 0.11523(18) 0.69292(18) 0.4068(6)
O10_14 O 0.08562(18) 0.66429(18) 0.3012(7)
O11_14 O 0.14098(17) 0.63381(18) 0.5030(7)
O12_14 O 0.15251(17) 0.63014(18) 0.3104(7)
O14_14 O 0.1797(2) 0.5943(2) 0.1161(7)
O17_14 O 0.12308(18) 0.65644(18) 0.1154(7)
H27_14 H 0.1186 0.6654 0.0465
H28_14 H 0.1153 0.6672 0.1744
O18_14 O 0.16549(18) 0.69423(17) 0.2679(7)
H29_14 H 0.1775 0.6952 0.3325
H30_14 H 0.1469 0.6942 0.2967
O19_14 O 0.2190(2) 0.6428(2) 0.0023(9)
H31_14 H 0.2301 0.6262 0.0213
H32_14 H 0.2322 0.6584 0.0038
O20_14 O 0.2014(2) 0.6153(2) 0.4997(8)
O21_14 O 0.14591(19) 0.69316(18) 0.6138(7)
H33_14 H 0.1302 0.6917 0.6604
H34_14 H 0.1396 0.6949 0.5388
O22_14 O 0.13610(19) 0.63780(19) 0.7685(7)
H35_14 H 0.1265 0.6540 0.7930
H36_14 H 0.1417 0.6281 0.8352
Pr1_6 Pr 0.178642(15) 0.650021(15) 0.63782(6)
O24_6 O 0.2145(3) 0.6277(2) 0.7794(9)
O25_6 O 0.1837(3) 0.5947(2) 0.7227(9)
C37_14 C 0.1586(4) 0.5676(3) 0.9545(12)
C38_14 C 0.1288(4) 0.5591(3) 0.9549(13)
H21_14 H 0.1150 0.5715 0.9871
C39_14 C 0.1205(4) 0.5335(4) 0.9097(13)
H22_14 H 0.1014 0.5268 0.9142
C40_14 C 0.1415(4) 0.5184(4) 0.8581(13)
H23_14 H 0.1356 0.5011 0.8221
C41_14 C 0.1797(4) 0.5497(3) 0.9020(13)
C42_14 C 0.2107(4) 0.5567(4) 0.9083(13)
C43_14 C 0.2554(4) 0.5419(4) 0.9734(14)
C44_14 C 0.2688(4) 0.5687(4) 0.9531(15)
H25_14 H 0.2875 0.5730 0.9798
C45_14 C 0.2523(4) 0.5881(4) 0.8909(14)
H26_14 H 0.2604 0.6056 0.8666
C46_14 C 0.2219(4) 0.5815(4) 0.8618(14)
C47_14 C 0.2044(4) 0.6038(4) 0.7864(14)
N7_14 N 0.1706(3) 0.5240(3) 0.8494(11)
N8_14 N 0.2275(3) 0.5355(3) 0.9576(11)
O13_14 O 0.1582(2) 0.6183(2) 0.9755(8)
C1_15 C 0.0526(3) 0.4295(3) 0.1397(10)
C2_15 C 0.0198(3) 0.4307(3) 0.1238(10)
C3_15 C 0.0088(3) 0.4509(3) 0.0436(11)
C6_15 C 0.0007(3) 0.4159(3) 0.1952(10)
C7_15 C 0.0079(3) 0.3916(3) 0.2829(10)
C9_15 C 0.0140(3) 0.3501(3) 0.4524(10)
H7_11 H 0.0159 0.3359 0.5112
C10_15 C 0.0293(3) 0.3477(3) 0.3454(10)
H8_15 H 0.0415 0.3318 0.3333
C11_15 C 0.0267(3) 0.3684(2) 0.2580(9)
C12_15 C 0.0433(3) 0.3656(3) 0.1448(11)
H16_15 H 0.0638 0.3081 0.0165
H17_15 H 0.1132 0.3002 0.0423
O5_15 O 0.06762(19) 0.43568(18) 0.0522(7)
O6_7 O 0.06138(18) 0.42348(18) 0.2428(7)
O7_15 O 0.03026(19) 0.36971(19) 0.0481(7)
O8_15 O 0.06942(19) 0.35856(19) 0.1532(7)
O22_15 O 0.11220(19) 0.38610(19) 0.0185(7)
H35_15 H 0.0960 0.3765 0.0430
H36_15 H 0.1219 0.3917 0.0852
O24_7 O 0.1223(2) 0.4645(3) 0.0294(9)
Pr4_7 Pr 0.099534(15) 0.426388(15) 0.39048(6)
H1_15 H 0.1528(8) 0.455(4) 0.747(10)
H2_15 H 0.127(2) 0.455(3) 0.683(6)
H3_15 H 0.0214 0.4621 0.9977
C13_15 C 0.0961(3) 0.4826(3) 0.5187(13)
C14_15 C 0.1018(3) 0.5121(3) 0.5761(12)
C15_15 C 0.1298(3) 0.5237(3) 0.5709(12)
H9_15 H 0.1452 0.5125 0.5429
C16_15 C 0.1346(3) 0.5514(3) 0.6070(13)
H10_15 H 0.1531 0.5595 0.6040
C17_15 C 0.1108(3) 0.5680(3) 0.6493(13)
H11_15 H 0.1139 0.5872 0.6720
C18_15 C 0.0793(3) 0.5291(3) 0.6274(12)
C19_15 C 0.0493(3) 0.5193(3) 0.6457(11)
C20_15 C 0.0013(3) 0.5320(3) 0.6136(10)
C22_15 C 0.0121(3) 0.4857(3) 0.6970(11)
H14_15 H 0.0060 0.4680 0.7293
C23_15 C 0.0420(3) 0.4920(3) 0.6931(12)
C24_15 C 0.0635(3) 0.4730(3) 0.7564(11)
C25_15 C 0.0757(3) 0.3450(3) 0.6470(10)
C26_15 C 0.0874(3) 0.3325(3) 0.7623(10)
C27_15 C 0.0679(3) 0.3251(3) 0.8509(10)
H15_15 H 0.0481 0.3283 0.8387
C28_15 C 0.0770(3) 0.3131(3) 0.9573(11)
C29_15 C 0.1066(3) 0.3087(3) 0.9722(10)
C30_15 C 0.1163(3) 0.3282(3) 0.7878(10)
C31_15 C 0.1407(3) 0.3349(3) 0.7036(10)
C32_15 C 0.1838(3) 0.3164(3) 0.6220(12)
H18_15 H 0.1983 0.3022 0.6216
C33_15 C 0.1852(4) 0.3384(4) 0.5405(14)
H19_15 H 0.1992 0.3382 0.4806
C34_15 C 0.1656(3) 0.3611(3) 0.5482(12)
H20_15 H 0.1674 0.3771 0.4981
C35_15 C 0.1434(3) 0.3600(3) 0.6299(10)
C36_15 C 0.1244(2) 0.3867(3) 0.6484(10)
C37_15 C 0.1824(3) 0.4086(4) 0.2045(12)
C38_15 C 0.1909(3) 0.3788(4) 0.2049(13)
H21_15 H 0.1785 0.3650 0.2371
C39_15 C 0.2165(4) 0.3705(4) 0.1597(13)
H22_15 H 0.2232 0.3514 0.1642
C40_15 C 0.2316(4) 0.3915(4) 0.1081(13)
H23_15 H 0.2489 0.3856 0.0721
C41_15 C 0.2003(3) 0.4297(4) 0.1520(13)
C42_15 C 0.1933(4) 0.4607(4) 0.1583(13)
C43_15 C 0.2081(4) 0.5054(4) 0.2234(14)
H24_15 H 0.2231 0.5172 0.2510
C44_15 C 0.1813(4) 0.5188(4) 0.2031(15)
H25_15 H 0.1770 0.5375 0.2298
C45_15 C 0.1619(4) 0.5023(4) 0.1409(14)
H26_15 H 0.1444 0.5104 0.1166
C46_15 C 0.1685(4) 0.4719(4) 0.1118(14)
C47_15 C 0.1462(4) 0.4544(4) 0.0364(14)
C48_15 C 0.1549(3) 0.4161(3) 0.2715(12)
N3_15 N 0.0293(2) 0.5391(2) 0.6072(9)
N4_15 N 0.0844(2) 0.5572(2) 0.6575(10)
N7_15 N 0.2260(3) 0.4206(3) 0.0994(11)
N8_15 N 0.2145(3) 0.4775(3) 0.2076(11)
O1_15 O 0.11809(19) 0.46468(18) 0.5239(7)
O2_15 O 0.0736(2) 0.4771(2) 0.4676(9)
O3_15 O 0.0755(2) 0.48180(19) 0.8492(8)
O4_15 O 0.0668(2) 0.44713(18) 0.7173(7)
O9_15 O 0.05708(18) 0.36523(18) 0.6568(6)
O10_15 O 0.08571(18) 0.33562(18) 0.5512(7)
O11_15 O 0.11619(18) 0.39098(17) 0.7530(7)
O12_15 O 0.11986(18) 0.40251(17) 0.5604(7)
O13_15 O 0.1317(2) 0.4082(2) 0.2255(8)
O14_15 O 0.1557(2) 0.4297(2) 0.3661(7)
O17_15 O 0.09356(18) 0.37308(18) 0.3654(7)
H27_15 H 0.0846 0.3686 0.2965
H28_15 H 0.0828 0.3653 0.4244
O18_15 O 0.05577(17) 0.41549(18) 0.5179(7)
H29_15 H 0.0548 0.4275 0.5825
H30_15 H 0.0558 0.3969 0.5467
O19_15 O 0.1072(2) 0.4690(2) 0.2523(9)
H31_15 H 0.1238 0.4801 0.2713
H32_15 H 0.0916 0.4822 0.2538
O20_15 O 0.1347(2) 0.4514(2) 0.7497(8)
O21_15 O 0.05684(18) 0.39591(19) 0.8638(7)
H33_15 H 0.0583 0.3802 0.9104
H34_15 H 0.0551 0.3896 0.7888
Pr1_7 Pr 0.099979(15) 0.428642(15) 0.88782(6)
O25_7 O 0.1553(2) 0.4337(3) 0.9727(9)
C4_15 C 0.9791(3) 0.4542(3) 0.0325(12)
C5_15 C 0.9612(4) 0.4404(4) 0.1189(13)
H5_15 H 0.9415 0.4448 0.1213
C8_15 C 0.9966(3) 0.3730(3) 0.4684(11)
H6_11 H 0.9864 0.3747 0.5397
C7_16 C 0.8584(3) 0.7579(3) 0.0329(10)
C8_16 C 0.8770(3) 0.7466(3) 0.2184(11)
H6_12 H 0.8753 0.7364 0.2897
C9_16 C 0.8999(3) 0.7640(3) 0.2024(10)
H7_12 H 0.9141 0.7659 0.2612
C10_16 C 0.9023(3) 0.7793(3) 0.0954(10)
H8_16 H 0.9182 0.7915 0.0833
C11_16 C 0.8816(2) 0.7767(3) 0.0080(9)
Pr4_8 Pr 0.823612(15) 0.849534(15) 0.14048(6)
H1_16 H 0.795(4) 0.9028(8) 0.497(10)
H2_16 H 0.795(3) 0.877(2) 0.433(6)
C1_16 C 0.8205(3) 0.8026(3) 0.8897(10)
C2_16 C 0.8193(3) 0.7698(3) 0.8738(10)
C3_16 C 0.7991(3) 0.7588(3) 0.7936(11)
H3_16 H 0.7879 0.7714 0.7477
C4_16 C 0.7958(3) 0.7291(3) 0.7825(12)
H4_12 H 0.7850 0.7211 0.7207
C5_16 C 0.8096(4) 0.7112(4) 0.8689(13)
H5_16 H 0.8052 0.6915 0.8713
C6_16 C 0.8341(3) 0.7507(3) 0.9452(10)
C12_16 C 0.8844(3) 0.7933(3) 0.8948(11)
C13_16 C 0.7674(3) 0.8461(3) 0.2687(13)
C14_16 C 0.7379(3) 0.8518(3) 0.3261(12)
C15_16 C 0.7263(3) 0.8798(3) 0.3209(12)
H9_16 H 0.7375 0.8952 0.2929
C16_16 C 0.6986(3) 0.8846(3) 0.3570(13)
H10_16 H 0.6905 0.9031 0.3540
C17_16 C 0.6820(3) 0.8608(3) 0.3993(13)
H11_16 H 0.6628 0.8639 0.4220
C18_16 C 0.7209(3) 0.8293(3) 0.3774(12)
C19_16 C 0.7307(3) 0.7993(3) 0.3957(11)
C20_16 C 0.7180(3) 0.7513(3) 0.3636(10)
H12_12 H 0.7043 0.7375 0.3402
C21_12 C 0.7454(3) 0.7416(3) 0.4047(11)
H13_12 H 0.7503 0.7220 0.4030
C22_16 C 0.7643(3) 0.7621(3) 0.4470(11)
H14_16 H 0.7820 0.7560 0.4793
C23_16 C 0.7580(3) 0.7920(3) 0.4431(12)
C24_16 C 0.7770(3) 0.8135(3) 0.5064(11)
C25_16 C 0.9050(3) 0.8257(3) 0.3970(10)
C26_16 C 0.9175(3) 0.8374(3) 0.5123(10)
C27_16 C 0.9249(3) 0.8179(3) 0.6009(10)
H15_16 H 0.9217 0.7981 0.5887
C28_16 C 0.9369(3) 0.8270(3) 0.7073(11)
H16_16 H 0.9419 0.8138 0.7665
C29_16 C 0.9413(3) 0.8566(3) 0.7222(10)
H17_16 H 0.9498 0.8632 0.7923
C30_16 C 0.9218(3) 0.8663(3) 0.5378(10)
C31_16 C 0.9151(3) 0.8907(3) 0.4536(10)
C32_16 C 0.9336(3) 0.9338(3) 0.3720(12)
H18_16 H 0.9478 0.9483 0.3716
C33_16 C 0.9116(4) 0.9352(4) 0.2905(14)
H19_16 H 0.9118 0.9492 0.2306
C34_16 C 0.8889(3) 0.9156(3) 0.2982(12)
H20_16 H 0.8729 0.9174 0.2481
C35_16 C 0.8900(3) 0.8934(3) 0.3799(10)
C36_16 C 0.8633(3) 0.8744(2) 0.3984(10)
H24_16 H 0.7328 0.9731 0.0010
C48_16 C 0.8339(3) 0.9049(3) 0.0215(12)
N3_16 N 0.7109(2) 0.7793(2) 0.3572(9)
N4_16 N 0.6928(2) 0.8344(2) 0.4075(10)
O1_16 O 0.78532(18) 0.86809(19) 0.2739(7)
O2_16 O 0.7729(2) 0.8236(2) 0.2176(9)
O3_16 O 0.76820(19) 0.8255(2) 0.5992(8)
O4_16 O 0.80287(18) 0.8168(2) 0.4673(7)
O5_16 O 0.81432(18) 0.81762(19) 0.8022(7)
O6_8 O 0.82652(18) 0.81138(18) 0.9928(7)
O7_16 O 0.88029(19) 0.78026(19) 0.7981(7)
O8_16 O 0.89144(19) 0.81942(19) 0.9032(7)
O9_16 O 0.88477(18) 0.80708(18) 0.4068(6)
O10_16 O 0.91438(18) 0.83571(18) 0.3012(7)
O11_16 O 0.85902(17) 0.86619(18) 0.5030(7)
O12_16 O 0.84749(17) 0.86986(18) 0.3104(7)
O14_16 O 0.8203(2) 0.9057(2) 0.1161(7)
O17_16 O 0.87692(18) 0.84356(18) 0.1154(7)
H27_16 H 0.8814 0.8346 0.0465
H28_16 H 0.8847 0.8328 0.1744
O18_16 O 0.83451(18) 0.80577(17) 0.2679(7)
H29_16 H 0.8225 0.8048 0.3325
H30_16 H 0.8531 0.8058 0.2967
O19_16 O 0.7810(2) 0.8572(2) 0.0023(9)
H31_16 H 0.7699 0.8738 0.0213
H32_16 H 0.7678 0.8416 0.0038
O20_16 O 0.7986(2) 0.8847(2) 0.4997(8)
O21_16 O 0.85409(19) 0.80684(18) 0.6138(7)
H33_16 H 0.8698 0.8083 0.6604
H34_16 H 0.8604 0.8051 0.5388
O22_16 O 0.86390(19) 0.86220(19) 0.7685(7)
H35_16 H 0.8735 0.8460 0.7930
H36_16 H 0.8583 0.8719 0.8352
Pr1_8 Pr 0.821358(15) 0.849979(15) 0.63782(6)
O24_8 O 0.7855(3) 0.8723(2) 0.7794(9)
O25_8 O 0.8163(3) 0.9053(2) 0.7227(9)
C37_16 C 0.8414(4) 0.9324(3) 0.9545(12)
C38_16 C 0.8712(4) 0.9409(3) 0.9549(13)
H21_16 H 0.8850 0.9285 0.9871
C39_16 C 0.8795(4) 0.9665(4) 0.9097(13)
H22_16 H 0.8986 0.9732 0.9142
C40_16 C 0.8585(4) 0.9816(4) 0.8581(13)
H23_16 H 0.8644 0.9989 0.8221
C41_16 C 0.8203(4) 0.9503(3) 0.9020(13)
C42_16 C 0.7893(4) 0.9433(4) 0.9083(13)
C43_16 C 0.7446(4) 0.9581(4) 0.9734(14)
C44_16 C 0.7312(4) 0.9313(4) 0.9531(15)
H25_16 H 0.7125 0.9270 0.9798
C45_16 C 0.7477(4) 0.9119(4) 0.8909(14)
H26_16 H 0.7396 0.8944 0.8666
C46_16 C 0.7781(4) 0.9185(4) 0.8618(14)
C47_16 C 0.7956(4) 0.8962(4) 0.7864(14)
N7_16 N 0.8294(3) 0.9760(3) 0.8494(11)
N8_16 N 0.7725(3) 0.9645(3) 0.9576(11)
O13_16 O 0.8418(2) 0.8817(2) 0.9755(8)
H6_13 H 0.4864 0.3747 0.9603
H7_13 H 0.5159 0.3359 0.9888
H6_14 H 0.5136 0.1253 0.9603
H7_14 H 0.4841 0.1641 0.9888
H12_13 H 0.9875 0.0457 0.4098
C21_13 C 0.9916(3) 0.0046(3) 0.3453(11)
H4_13 H 0.9711 0.9650 0.0293
H13_13 H 0.9720 0.9997 0.3470
H4_14 H 0.0289 0.5350 0.0293
H12_14 H 0.0125 0.4543 0.4098
C21_14 C 0.0084(3) 0.4954(3) 0.3453(11)
H13_14 H 0.0280 0.5003 0.3470
H6_15 H 0.5136 0.6253 0.0397
H7_15 H 0.4841 0.6641 0.0112
H6_16 H 0.4864 0.8747 0.0397
H7_16 H 0.5159 0.8359 0.0112
H4_15 H 0.0289 0.0350 0.9707
H13_15 H 0.0280 0.0003 0.6530
H12_15 H 0.0125 0.9543 0.5902
C21_15 C 0.0084(3) 0.9954(3) 0.6547(11)
H4_16 H 0.9711 0.4650 0.9707
H12_16 H 0.9875 0.5457 0.5902
C21_16 C 0.9916(3) 0.5046(3) 0.6547(11)
H13_16 H 0.9720 0.4997 0.6530
loop_
_geom_bond_atom_site_label_1
_geom_bond_atom_site_label_2
_geom_bond_site_symmetry_1
_geom_bond_site_symmetry_2
C37 C38 1_555 1_555
C38 H21 1_555 1_555
C39 C38 1_555 1_555
H22 C39 1_555 1_555
C40 C39 1_555 1_555
H23 C40 1_555 1_555
C41 C37 1_555 1_555
C42 C41 1_555 1_555
C43 H24 1_555 1_555
C44 C43 1_555 1_555
H25 C44 1_555 1_555
C45 C44 1_555 1_555
H26 C45 1_555 1_555
C46 C42 1_555 1_555
C47 C46 1_555 1_555
C48 C37 1_555 1_555
N7 C40 1_555 1_555
N8 C42 1_555 1_555
O13 C48 1_555 1_555
O14 C48 1_555 1_555
O15 C47 1_555 1_555
O16 C47 1_555 1_555
O17 H27 1_555 1_555
H28 O17 1_555 1_555
O19 H31 1_555 1_555
H32 O19 1_555 1_555
O23 Pr2 1_555 1_555
Pr3 O15 1_555 1_555
C41 N7 1_555 1_555
C43 N8 1_555 1_555
C45 C46 1_555 1_555
O2 Pr2 1_555 1_555
O13 Pr2 1_555 1_555
O14 Pr2 1_555 1_555
O16 Pr3 1_555 1_555
O17 Pr2 1_555 1_555
O19 Pr2 1_555 1_555
H1 O20 1_555 1_555
H2 O20 1_555 1_555
C1 C2 1_555 1_555
C2 C3 1_555 1_555
C3 H3 1_555 1_555
C4 C3 1_555 1_555
H4 C4 1_555 1_555
C5 C4 1_555 1_555
H5 C5 1_555 1_555
C6 C2 1_555 1_555
C7 C6 1_555 1_555
C9 C8 1_555 1_555
C10 C9 1_555 1_555
H8 C10 1_555 1_555
C11 C7 1_555 1_555
C12 C11 1_555 1_555
C13 C14 1_555 1_555
C14 C15 1_555 1_555
C15 H9 1_555 1_555
C16 C15 1_555 1_555
H10 C16 1_555 1_555
C17 C16 1_555 1_555
H11 C17 1_555 1_555
C18 C14 1_555 1_555
C19 C18 1_555 1_555
C20 H12 1_555 1_555
C21 C20 1_555 1_555
H13 C21 1_555 1_555
C22 C21 1_555 1_555
H14 C22 1_555 1_555
C23 C19 1_555 1_555
C24 C23 1_555 1_555
C25 C26 1_555 1_555
C26 C27 1_555 1_555
C27 H15 1_555 1_555
C28 C27 1_555 1_555
H16 C28 1_555 1_555
C29 C28 1_555 1_555
H17 C29 1_555 1_555
C30 C26 1_555 1_555
C31 C30 1_555 1_555
C32 H18 1_555 1_555
C33 C32 1_555 1_555
C34 C33 1_555 1_555
C35 C31 1_555 1_555
C36 C35 1_555 1_555
N1 C5 1_555 1_555
N2 C7 1_555 1_555
N3 C19 1_555 1_555
N4 C17 1_555 1_555
N5 C29 1_555 1_555
N6 C31 1_555 1_555
O1 C13 1_555 1_555
O3 C24 1_555 1_555
O4 C24 1_555 1_555
O5 C1 1_555 1_555
O23 C1 1_555 1_555
O7 C12 1_555 1_555
O8 C12 1_555 1_555
O9 C25 1_555 1_555
O10 C25 1_555 1_555
O11 C36 1_555 1_555
O12 C36 1_555 1_555
O18 H29 1_555 1_555
H30 O18 1_555 1_555
O20 Pr3 1_555 1_555
O21 H33 1_555 1_555
H34 O21 1_555 1_555
O22 H35 1_555 1_555
H36 O22 1_555 1_555
Co1 N3 1_555 1_555
Pr3 O3 1_555 1_555
N9 Co1 1_555 1_555
N10 Co1 1_555 1_555
N11 Co1 1_555 1_555
Co2 N5 1_555 1_555
Co3 N1 1_555 1_555
C6 N1 1_555 1_555
C8 N2 1_555 1_555
C10 C11 1_555 1_555
C18 N4 1_555 1_555
C20 N3 1_555 1_555
C22 C23 1_555 1_555
C30 N5 1_555 1_555
C32 N6 1_555 1_555
C34 C35 1_555 1_555
N2 Co3 1_555 1_555
N4 Co1 1_555 1_555
N6 Co2 1_555 1_555
O4 Pr3 1_555 1_555
O5 Pr3 1_555 1_555
O11 Pr3 1_555 1_555
O21 Pr3 1_555 1_555
O22 Pr3 1_555 1_555
H1_2 O20_2 1_555 1_555
H2_2 O20_2 1_555 1_555
C13_2 C14_2 1_555 1_555
C14_2 C15_2 1_555 1_555
C15_2 H9_2 1_555 1_555
C16_2 C15_2 1_555 1_555
H10_2 C16_2 1_555 1_555
C17_2 C16_2 1_555 1_555
H11_2 C17_2 1_555 1_555
C18_2 C14_2 1_555 1_555
C19_2 C18_2 1_555 1_555
C20_2 H12_2 1_555 1_555
C21_2 C20_2 1_555 1_555
H13_2 C21_2 1_555 1_555
C22_2 C21_2 1_555 1_555
H14_2 C22_2 1_555 1_555
C23_2 C19_2 1_555 1_555
C32_2 H18_2 1_555 1_555
C33_2 C32_2 1_555 1_555
H19_2 C33_2 1_555 1_555
C34_2 C33_2 1_555 1_555
H20_2 C34_2 1_555 1_555
C35_2 C31_2 1_555 1_555
C36_2 C35_2 1_555 1_555
C37_2 C38_2 1_555 1_555
C38_2 H21_2 1_555 1_555
C39_2 C38_2 1_555 1_555
H22_2 C39_2 1_555 1_555
C40_2 C39_2 1_555 1_555
H23_2 C40_2 1_555 1_555
C41_2 C37_2 1_555 1_555
C42_2 C41_2 1_555 1_555
C43_2 H24_2 1_555 1_555
C44_2 C43_2 1_555 1_555
H25_2 C44_2 1_555 1_555
C45_2 C44_2 1_555 1_555
H26_2 C45_2 1_555 1_555
C46_2 C42_2 1_555 1_555
C47_2 C46_2 1_555 1_555
C48_2 C37_2 1_555 1_555
N3_2 C19_2 1_555 1_555
N4_2 C17_2 1_555 1_555
N6_2 C31_2 1_555 1_555
N7_2 C40_2 1_555 1_555
N8_2 C42_2 1_555 1_555
O1_2 C13_2 1_555 1_555
O2_2 C13_2 1_555 1_555
O9_2 C25_2 1_555 1_555
O10_2 C25_2 1_555 1_555
O12_2 C36_2 1_555 1_555
O13_2 C48_2 1_555 1_555
O14_2 C48_2 1_555 1_555
O15_2 C47_2 1_555 1_555
O16_2 C47_2 1_555 1_555
O17_2 H27_2 1_555 1_555
H28_2 O17_2 1_555 1_555
O18_2 H29_2 1_555 1_555
H30_2 O18_2 1_555 1_555
O19_2 H31_2 1_555 1_555
H32_2 O19_2 1_555 1_555
Co1_2 N3_2 1_555 1_555
Pr2_2 O1_2 1_555 1_555
N10_2 Co1_2 1_555 1_555
N11_2 Co1_2 1_555 1_555
N12_2 Co1_2 1_555 1_555
O23_2 Pr2_2 1_555 1_555
Pr3_2 O15_2 1_555 1_555
C18_2 N4_2 1_555 1_555
C20_2 N3_2 1_555 1_555
C22_2 C23_2 1_555 1_555
C32_2 N6_2 1_555 1_555
C34_2 C35_2 1_555 1_555
C41_2 N7_2 1_555 1_555
C43_2 N8_2 1_555 1_555
C45_2 C46_2 1_555 1_555
N4_2 Co1_2 1_555 1_555
O2_2 Pr2_2 1_555 1_555
O12_2 Pr2_2 1_555 1_555
O13_2 Pr2_2 1_555 1_555
O14_2 Pr2_2 1_555 1_555
O16_2 Pr3_2 1_555 1_555
O17_2 Pr2_2 1_555 1_555
O18_2 Pr2_2 1_555 1_555
O19_2 Pr2_2 1_555 1_555
C1_2 C2_2 1_555 1_555
C2_2 C3_2 1_555 1_555
C3_2 H3_2 1_555 1_555
C4_2 C3_2 1_555 1_555
H4_2 C4_2 1_555 1_555
C5_2 C4_2 1_555 1_555
H5_2 C5_2 1_555 1_555
C6_2 C2_2 1_555 1_555
C7_2 C6_2 1_555 1_555
C8_2 H6 1_555 1_555
C9_2 C8_2 1_555 1_555
H7 C9_2 1_555 1_555
C10_2 C9_2 1_555 1_555
H8_2 C10_2 1_555 1_555
C11_2 C7_2 1_555 1_555
C12_2 C11_2 1_555 1_555
C26_2 C27_2 1_555 1_555
C27_2 H15_2 1_555 1_555
C28_2 C27_2 1_555 1_555
H16_2 C28_2 1_555 1_555
C29_2 C28_2 1_555 1_555
H17_2 C29_2 1_555 1_555
C30_2 C26_2 1_555 1_555
N1_2 C5_2 1_555 1_555
N2_2 C7_2 1_555 1_555
N5_2 C29_2 1_555 1_555
O3_2 C24_2 1_555 1_555
O5_2 C1_2 1_555 1_555
O23_2 C1_2 1_555 1_555
O7_2 C12_2 1_555 1_555
O8_2 C12_2 1_555 1_555
O21_2 H33_2 1_555 1_555
H34_2 O21_2 1_555 1_555
O22_2 H35_2 1_555 1_555
H36_2 O22_2 1_555 1_555
Pr3_2 O3_2 1_555 1_555
Co2_2 N5_2 1_555 1_555
Co3_2 N1_2 1_555 1_555
C6_2 N1_2 1_555 1_555
C8_2 N2_2 1_555 1_555
C10_2 C11_2 1_555 1_555
C30_2 N5_2 1_555 1_555
N2_2 Co3_2 1_555 1_555
O5_2 Pr3_2 1_555 1_555
O11_2 Pr3_2 1_555 1_555
O21_2 Pr3_2 1_555 1_555
O22_2 Pr3_2 1_555 1_555
C37_3 C38_3 1_555 1_555
C38_3 H21_3 1_555 1_555
C39_3 C38_3 1_555 1_555
H22_3 C39_3 1_555 1_555
C40_3 C39_3 1_555 1_555
H23_3 C40_3 1_555 1_555
C41_3 C37_3 1_555 1_555
C42_3 C41_3 1_555 1_555
C46_3 C42_3 1_555 1_555
C47_3 C46_3 1_555 1_555
C48_3 C37_3 1_555 1_555
N7_3 C40_3 1_555 1_555
N8_3 C42_3 1_555 1_555
O13_3 C48_3 1_555 1_555
O14_3 C48_3 1_555 1_555
O15_3 C47_3 1_555 1_555
O16_3 C47_3 1_555 1_555
O17_3 H27_3 1_555 1_555
H28_3 O17_3 1_555 1_555
O19_3 H31_3 1_555 1_555
H32_3 O19_3 1_555 1_555
O23_3 Pr2_3 1_555 1_555
Pr3_3 O15_3 1_555 1_555
C41_3 N7_3 1_555 1_555
O2_3 Pr2_3 1_555 1_555
O13_3 Pr2_3 1_555 1_555
O14_3 Pr2_3 1_555 1_555
O16_3 Pr3_3 1_555 1_555
O17_3 Pr2_3 1_555 1_555
O19_3 Pr2_3 1_555 1_555
H1_3 O20_3 1_555 1_555
H2_3 O20_3 1_555 1_555
C1_3 C2_3 1_555 1_555
C2_3 C3_3 1_555 1_555
C3_3 H3_3 1_555 1_555
C4_3 C3_3 1_555 1_555
H4_3 C4_3 1_555 1_555
C5_3 C4_3 1_555 1_555
H5_3 C5_3 1_555 1_555
C6_3 C2_3 1_555 1_555
C7_3 C6_3 1_555 1_555
C9_3 C8_3 1_555 1_555
C10_3 C9_3 1_555 1_555
H8_3 C10_3 1_555 1_555
C11_3 C7_3 1_555 1_555
C12_3 C11_3 1_555 1_555
H14_3 C22_3 1_555 1_555
C24_3 C23_3 1_555 1_555
C25_3 C26_3 1_555 1_555
C26_3 C27_3 1_555 1_555
C27_3 H15_3 1_555 1_555
C28_3 C27_3 1_555 1_555
H16_3 C28_3 1_555 1_555
C29_3 C28_3 1_555 1_555
H17_3 C29_3 1_555 1_555
C30_3 C26_3 1_555 1_555
C31_3 C30_3 1_555 1_555
C32_3 H18_3 1_555 1_555
C33_3 C32_3 1_555 1_555
C34_3 C33_3 1_555 1_555
C35_3 C31_3 1_555 1_555
C36_3 C35_3 1_555 1_555
N1_3 C5_3 1_555 1_555
N2_3 C7_3 1_555 1_555
N5_3 C29_3 1_555 1_555
N6_3 C31_3 1_555 1_555
O1_3 C13_3 1_555 1_555
O3_3 C24_3 1_555 1_555
O4_3 C24_3 1_555 1_555
O5_3 C1_3 1_555 1_555
O23_3 C1_3 1_555 1_555
O7_3 C12_3 1_555 1_555
O8_3 C12_3 1_555 1_555
O9_3 C25_3 1_555 1_555
O10_3 C25_3 1_555 1_555
O11_3 C36_3 1_555 1_555
O12_3 C36_3 1_555 1_555
O18_3 H29_3 1_555 1_555
H30_3 O18_3 1_555 1_555
O20_3 Pr3_3 1_555 1_555
O21_3 H33_3 1_555 1_555
H34_3 O21_3 1_555 1_555
O22_3 H35_3 1_555 1_555
H36_3 O22_3 1_555 1_555
Pr3_3 O3_3 1_555 1_555
Co2_3 N5_3 1_555 1_555
Co3_3 N1_3 1_555 1_555
C6_3 N1_3 1_555 1_555
C8_3 N2_3 1_555 1_555
C10_3 C11_3 1_555 1_555
C22_3 C23_3 1_555 1_555
C30_3 N5_3 1_555 1_555
C32_3 N6_3 1_555 1_555
C34_3 C35_3 1_555 1_555
N2_3 Co3_3 1_555 1_555
N6_3 Co2_3 1_555 1_555
O4_3 Pr3_3 1_555 1_555
O5_3 Pr3_3 1_555 1_555
O11_3 Pr3_3 1_555 1_555
O21_3 Pr3_3 1_555 1_555
O22_3 Pr3_3 1_555 1_555
C43_3 H24_3 1_555 1_555
C44_3 C43_3 1_555 1_555
H25_3 C44_3 1_555 1_555
C45_3 C44_3 1_555 1_555
H26_3 C45_3 1_555 1_555
C14_3 C15_3 1_555 1_555
C15_3 H9_3 1_555 1_555
C16_3 C15_3 1_555 1_555
H10_3 C16_3 1_555 1_555
C17_3 C16_3 1_555 1_555
H11_3 C17_3 1_555 1_555
C18_3 C14_3 1_555 1_555
C19_3 C18_3 1_555 1_555
C20_3 H12_3 1_555 1_555
C21_3 C20_3 1_555 1_555
N3_3 C19_3 1_555 1_555
N4_3 C17_3 1_555 1_555
Co2_2 N3_3 1_555 1_555
N9_3 Co2_2 1_555 1_555
N10_3 Co2_2 1_555 1_555
C18_3 N4_3 1_555 1_555
C20_3 N3_3 1_555 1_555
N4_3 Co2_2 1_555 1_555
H1_4 O20_4 1_555 1_555
H2_4 O20_4 1_555 1_555
C13_4 C14_4 1_555 1_555
C14_4 C15_4 1_555 1_555
C15_4 H9_4 1_555 1_555
C16_4 C15_4 1_555 1_555
H10_4 C16_4 1_555 1_555
C17_4 C16_4 1_555 1_555
H11_4 C17_4 1_555 1_555
C18_4 C14_4 1_555 1_555
C19_4 C18_4 1_555 1_555
C20_4 H12_4 1_555 1_555
C21_4 C20_4 1_555 1_555
H13_4 C21_4 1_555 1_555
C22_4 C21_4 1_555 1_555
H14_4 C22_4 1_555 1_555
C23_4 C19_4 1_555 1_555
C32_4 H18_4 1_555 1_555
C33_4 C32_4 1_555 1_555
H19_4 C33_4 1_555 1_555
C34_4 C33_4 1_555 1_555
H20_4 C34_4 1_555 1_555
C35_4 C31_4 1_555 1_555
C36_4 C35_4 1_555 1_555
C37_4 C38_4 1_555 1_555
C38_4 H21_4 1_555 1_555
C39_4 C38_4 1_555 1_555
H22_4 C39_4 1_555 1_555
C40_4 C39_4 1_555 1_555
H23_4 C40_4 1_555 1_555
C41_4 C37_4 1_555 1_555
C42_4 C41_4 1_555 1_555
C43_4 H24_4 1_555 1_555
C44_4 C43_4 1_555 1_555
H25_4 C44_4 1_555 1_555
C45_4 C44_4 1_555 1_555
H26_4 C45_4 1_555 1_555
C46_4 C42_4 1_555 1_555
C47_4 C46_4 1_555 1_555
C48_4 C37_4 1_555 1_555
N3_4 C19_4 1_555 1_555
N4_4 C17_4 1_555 1_555
N12 C31_4 1_555 1_555
N7_4 C40_4 1_555 1_555
N8_4 C42_4 1_555 1_555
O1_4 C13_4 1_555 1_555
O2_4 C13_4 1_555 1_555
O9_4 C25_4 1_555 1_555
O10_4 C25_4 1_555 1_555
O12_4 C36_4 1_555 1_555
O13_4 C48_4 1_555 1_555
O14_4 C48_4 1_555 1_555
O15_4 C47_4 1_555 1_555
O16_4 C47_4 1_555 1_555
O17_4 H27_4 1_555 1_555
H28_4 O17_4 1_555 1_555
O18_4 H29_4 1_555 1_555
H30_4 O18_4 1_555 1_555
O19_4 H31_4 1_555 1_555
H32_4 O19_4 1_555 1_555
Co1_3 N3_4 1_555 1_555
Pr2_4 O1_4 1_555 1_555
N10_4 Co1_3 1_555 1_555
N11_3 Co1_3 1_555 1_555
N12_3 Co1_3 1_555 1_555
O23_4 Pr2_4 1_555 1_555
Pr3_4 O15_4 1_555 1_555
C18_4 N4_4 1_555 1_555
C20_4 N3_4 1_555 1_555
C22_4 C23_4 1_555 1_555
C32_4 N12 1_555 1_555
C34_4 C35_4 1_555 1_555
C41_4 N7_4 1_555 1_555
C43_4 N8_4 1_555 1_555
C45_4 C46_4 1_555 1_555
N4_4 Co1_3 1_555 1_555
O2_4 Pr2_4 1_555 1_555
O12_4 Pr2_4 1_555 1_555
O13_4 Pr2_4 1_555 1_555
O14_4 Pr2_4 1_555 1_555
O16_4 Pr3_4 1_555 1_555
O17_4 Pr2_4 1_555 1_555
O18_4 Pr2_4 1_555 1_555
O19_4 Pr2_4 1_555 1_555
C1_4 C2_4 1_555 1_555
C2_4 C3_4 1_555 1_555
C3_4 H3_4 1_555 1_555
C4_4 C3_4 1_555 1_555
H4_4 C4_4 1_555 1_555
C5_4 C4_4 1_555 1_555
H5_4 C5_4 1_555 1_555
C6_4 C2_4 1_555 1_555
C7_4 C6_4 1_555 1_555
C8_4 H6_2 1_555 1_555
C9_4 C8_4 1_555 1_555
H7_2 C9_4 1_555 1_555
C10_4 C9_4 1_555 1_555
H8_4 C10_4 1_555 1_555
C11_4 C7_4 1_555 1_555
C12_4 C11_4 1_555 1_555
C26_4 C27_4 1_555 1_555
C27_4 H15_4 1_555 1_555
C28_4 C27_4 1_555 1_555
H16_4 C28_4 1_555 1_555
C29_4 C28_4 1_555 1_555
H17_4 C29_4 1_555 1_555
C30_4 C26_4 1_555 1_555
N1_4 C5_4 1_555 1_555
N2_4 C7_4 1_555 1_555
N11 C29_4 1_555 1_555
O3_4 C24_4 1_555 1_555
O5_4 C1_4 1_555 1_555
O23_4 C1_4 1_555 1_555
O7_4 C12_4 1_555 1_555
O8_4 C12_4 1_555 1_555
O21_4 H33_4 1_555 1_555
H34_4 O21_4 1_555 1_555
O22_4 H35_4 1_555 1_555
H36_4 O22_4 1_555 1_555
Pr3_4 O3_4 1_555 1_555
Co3_4 N1_4 1_555 1_555
C6_4 N1_4 1_555 1_555
C8_4 N2_4 1_555 1_555
C10_4 C11_4 1_555 1_555
C30_4 N11 1_555 1_555
N2_4 Co3_4 1_555 1_555
O5_4 Pr3_4 1_555 1_555
O11_4 Pr3_4 1_555 1_555
O21_4 Pr3_4 1_555 1_555
O22_4 Pr3_4 1_555 1_555
C14_5 C15_5 1_555 1_555
C15_5 H9_5 1_555 1_555
C16_5 C15_5 1_555 1_555
H10_5 C16_5 1_555 1_555
C17_5 C16_5 1_555 1_555
H11_5 C17_5 1_555 1_555
C18_5 C14_5 1_555 1_555
C19_5 C18_5 1_555 1_555
C43_5 H24_5 1_555 1_555
C44_5 C43_5 1_555 1_555
H25_5 C44_5 1_555 1_555
C45_5 C44_5 1_555 1_555
H26_5 C45_5 1_555 1_555
N3_5 C19_5 1_555 1_555
N4_5 C17_5 1_555 1_555
Co1_4 N3_5 1_555 1_555
N9_5 Co1_4 1_555 1_555
N10_5 Co1_4 1_555 1_555
N11_4 Co1_4 1_555 1_555
N12_4 Co1_4 1_555 1_555
C18_5 N4_5 1_555 1_555
C20_5 N3_5 1_555 1_555
N4_5 Co1_4 1_555 1_555
O16_5 Pr3_5 1_555 1_555
H1_5 O20_5 1_555 1_555
H2_5 O20_5 1_555 1_555
H14_5 C22_5 1_555 1_555
C24_5 C23_5 1_555 1_555
C25_5 C26_5 1_555 1_555
C26_5 C27_5 1_555 1_555
C27_5 H15_5 1_555 1_555
C28_5 C27_5 1_555 1_555
C29_5 C28_5 1_555 1_555
C30_5 C26_5 1_555 1_555
C31_5 C30_5 1_555 1_555
C32_5 H18_5 1_555 1_555
C33_5 C32_5 1_555 1_555
H19_5 C33_5 1_555 1_555
C34_5 C33_5 1_555 1_555
H20_5 C34_5 1_555 1_555
C35_5 C31_5 1_555 1_555
C36_5 C35_5 1_555 1_555
C37_5 C38_5 1_555 1_555
C38_5 H21_5 1_555 1_555
C39_5 C38_5 1_555 1_555
H22_5 C39_5 1_555 1_555
C40_5 C39_5 1_555 1_555
H23_5 C40_5 1_555 1_555
C41_5 C37_5 1_555 1_555
C42_5 C41_5 1_555 1_555
C46_5 C42_5 1_555 1_555
C47_5 C46_5 1_555 1_555
C48_5 C37_5 1_555 1_555
N11_2 C29_5 1_555 1_555
N12_2 C31_5 1_555 1_555
N7_5 C40_5 1_555 1_555
N8_5 C42_5 1_555 1_555
O1_5 C13_5 1_555 1_555
O2_5 C13_5 1_555 1_555
O3_5 C24_5 1_555 1_555
O4_5 C24_5 1_555 1_555
O9_5 C25_5 1_555 1_555
O10_5 C25_5 1_555 1_555
O11_5 C36_5 1_555 1_555
O12_5 C36_5 1_555 1_555
O13_5 C48_5 1_555 1_555
O14_5 C48_5 1_555 1_555
O15_5 C47_5 1_555 1_555
O17_5 H27_5 1_555 1_555
H28_5 O17_5 1_555 1_555
O18_5 H29_5 1_555 1_555
H30_5 O18_5 1_555 1_555
O19_5 H31_5 1_555 1_555
H32_5 O19_5 1_555 1_555
O20_5 Pr3_5 1_555 1_555
O21_5 H33_5 1_555 1_555
H34_5 O21_5 1_555 1_555
Pr3_5 O3_5 1_555 1_555
Pr2_5 O1_5 1_555 1_555
O23_5 Pr2_5 1_555 1_555
C22_5 C23_5 1_555 1_555
C30_5 N11_2 1_555 1_555
C32_5 N12_2 1_555 1_555
C34_5 C35_5 1_555 1_555
C41_5 N7_5 1_555 1_555
O2_5 Pr2_5 1_555 1_555
O4_5 Pr3_5 1_555 1_555
O11_5 Pr3_5 1_555 1_555
O12_5 Pr2_5 1_555 1_555
O13_5 Pr2_5 1_555 1_555
O14_5 Pr2_5 1_555 1_555
O17_5 Pr2_5 1_555 1_555
O18_5 Pr2_5 1_555 1_555
O19_5 Pr2_5 1_555 1_555
O21_5 Pr3_5 1_555 1_555
C1_5 C2_5 1_555 1_555
C2_5 C3_5 1_555 1_555
C6_5 C2_5 1_555 1_555
C7_5 C6_5 1_555 1_555
H7_3 C9_5 1_555 1_555
C10_5 C9_5 1_555 1_555
H8_5 C10_5 1_555 1_555
C11_5 C7_5 1_555 1_555
C12_5 C11_5 1_555 1_555
O5_5 C1_5 1_555 1_555
O23_5 C1_5 1_555 1_555
O7_5 C12_5 1_555 1_555
O8_5 C12_5 1_555 1_555
O22_5 H35_5 1_555 1_555
H36_5 O22_5 1_555 1_555
C10_5 C11_5 1_555 1_555
C5_5 C4_5 1_555 1_555
H5_5 C5_5 1_555 1_555
C8_5 H6_3 1_555 1_555
N1_5 C5_5 1_555 1_555
Co3_5 N1_5 1_555 1_555
C8_5 N2_5 1_555 1_555
N2_5 Co3_5 1_555 1_555
C37_6 C38_6 1_555 1_555
C38_6 H21_6 1_555 1_555
C39_6 C38_6 1_555 1_555
H22_6 C39_6 1_555 1_555
C40_6 C39_6 1_555 1_555
H23_6 C40_6 1_555 1_555
C41_6 C37_6 1_555 1_555
C42_6 C41_6 1_555 1_555
C44_6 C43_6 1_555 1_555
H25_6 C44_6 1_555 1_555
C45_6 C44_6 1_555 1_555
H26_6 C45_6 1_555 1_555
C46_6 C42_6 1_555 1_555
C47_6 C46_6 1_555 1_555
N7_6 C40_6 1_555 1_555
N8_6 C42_6 1_555 1_555
O15_6 C47_6 1_555 1_555
O16_6 C47_6 1_555 1_555
Pr3_6 O15_6 1_555 1_555
C41_6 N7_6 1_555 1_555
C43_6 N8_6 1_555 1_555
C45_6 C46_6 1_555 1_555
O16_6 Pr3_6 1_555 1_555
H1_6 O20_6 1_555 1_555
H2_6 O20_6 1_555 1_555
C1_6 C2_6 1_555 1_555
C2_6 C3_6 1_555 1_555
C3_6 H3_6 1_555 1_555
C4_6 C3_6 1_555 1_555
H4_5 C4_6 1_555 1_555
C5_6 C4_6 1_555 1_555
H5_6 C5_6 1_555 1_555
C6_6 C2_6 1_555 1_555
C13_6 C14_6 1_555 1_555
C14_6 C15_6 1_555 1_555
C15_6 H9_6 1_555 1_555
C16_6 C15_6 1_555 1_555
H10_6 C16_6 1_555 1_555
C17_6 C16_6 1_555 1_555
H11_6 C17_6 1_555 1_555
C18_6 C14_6 1_555 1_555
C19_6 C18_6 1_555 1_555
C20_6 H12_5 1_555 1_555
C21_5 C20_6 1_555 1_555
H13_5 C21_5 1_555 1_555
C22_6 C21_5 1_555 1_555
H14_6 C22_6 1_555 1_555
C23_6 C19_6 1_555 1_555
C24_6 C23_6 1_555 1_555
C25_6 C26_6 1_555 1_555
C26_6 C27_6 1_555 1_555
C27_6 H15_6 1_555 1_555
C28_6 C27_6 1_555 1_555
H16_6 C28_6 1_555 1_555
C29_6 C28_6 1_555 1_555
H17_6 C29_6 1_555 1_555
C30_6 C26_6 1_555 1_555
C31_6 C30_6 1_555 1_555
C32_6 H18_6 1_555 1_555
C33_6 C32_6 1_555 1_555
H19_6 C33_6 1_555 1_555
C34_6 C33_6 1_555 1_555
H20_6 C34_6 1_555 1_555
C35_6 C31_6 1_555 1_555
C36_6 C35_6 1_555 1_555
N1_6 C5_6 1_555 1_555
N3_6 C19_6 1_555 1_555
N4_6 C17_6 1_555 1_555
N5_4 C29_6 1_555 1_555
N6_4 C31_6 1_555 1_555
O1_6 C13_6 1_555 1_555
O2_6 C13_6 1_555 1_555
O3_6 C24_6 1_555 1_555
O4_6 C24_6 1_555 1_555
O5_6 C1_6 1_555 1_555
O23_6 C1_6 1_555 1_555
O7_6 C12_6 1_555 1_555
O8_6 C12_6 1_555 1_555
O9_6 C25_6 1_555 1_555
O10_6 C25_6 1_555 1_555
O11_6 C36_6 1_555 1_555
O12_6 C36_6 1_555 1_555
O14_6 C48_6 1_555 1_555
O17_6 H27_6 1_555 1_555
H28_6 O17_6 1_555 1_555
O18_6 H29_6 1_555 1_555
H30_6 O18_6 1_555 1_555
O19_6 H31_6 1_555 1_555
H32_6 O19_6 1_555 1_555
O20_6 Pr3_6 1_555 1_555
O21_6 H33_6 1_555 1_555
H34_6 O21_6 1_555 1_555
O22_6 H35_6 1_555 1_555
H36_6 O22_6 1_555 1_555
Co2 N3_6 1_555 1_555
Pr3_6 O3_6 1_555 1_555
Pr2_6 O1_6 1_555 1_555
N9_6 Co2 1_555 1_555
N10_6 Co2 1_555 1_555
Co2_4 N5_4 1_555 1_555
C6_6 N1_6 1_555 1_555
C18_6 N4_6 1_555 1_555
C20_6 N3_6 1_555 1_555
C22_6 C23_6 1_555 1_555
C30_6 N5_4 1_555 1_555
C32_6 N6_4 1_555 1_555
C34_6 C35_6 1_555 1_555
N4_6 Co2 1_555 1_555
N6_4 Co2_4 1_555 1_555
O2_6 Pr2_6 1_555 1_555
O4_6 Pr3_6 1_555 1_555
O5_6 Pr3_6 1_555 1_555
O11_6 Pr3_6 1_555 1_555
O12_6 Pr2_6 1_555 1_555
O14_6 Pr2_6 1_555 1_555
O17_6 Pr2_6 1_555 1_555
O18_6 Pr2_6 1_555 1_555
O19_6 Pr2_6 1_555 1_555
O21_6 Pr3_6 1_555 1_555
O22_6 Pr3_6 1_555 1_555
C8_6 H6_4 1_555 1_555
C9_6 C8_6 1_555 1_555
H7_4 C9_6 1_555 1_555
C10_6 C9_6 1_555 1_555
H8_6 C10_6 1_555 1_555
C11_6 C7_6 1_555 1_555
N2_6 C7_6 1_555 1_555
C8_6 N2_6 1_555 1_555
C10_6 C11_6 1_555 1_555
N2_6 Co3_6 1_555 1_555
C5_7 C4_7 1_555 1_555
H5_7 C5_7 1_555 1_555
C8_7 H6_5 1_555 1_555
N1_7 C5_7 1_555 1_555
Co3_7 N1_7 1_555 1_555
C8_7 N2_7 1_555 1_555
N2_7 Co3_7 1_555 1_555
O16_7 Pr3_7 1_555 1_555
H1_7 O20_7 1_555 1_555
H2_7 O20_7 1_555 1_555
C13_7 C14_7 1_555 1_555
C14_7 C15_7 1_555 1_555
C15_7 H9_7 1_555 1_555
C16_7 C15_7 1_555 1_555
H10_7 C16_7 1_555 1_555
C17_7 C16_7 1_555 1_555
H11_7 C17_7 1_555 1_555
C18_7 C14_7 1_555 1_555
C19_7 C18_7 1_555 1_555
H14_7 C22_7 1_555 1_555
C23_7 C19_7 1_555 1_555
C24_7 C23_7 1_555 1_555
C25_7 C26_7 1_555 1_555
C26_7 C27_7 1_555 1_555
C27_7 H15_7 1_555 1_555
C28_7 C27_7 1_555 1_555
C29_7 C28_7 1_555 1_555
C30_7 C26_7 1_555 1_555
C31_7 C30_7 1_555 1_555
C32_7 H18_7 1_555 1_555
C33_7 C32_7 1_555 1_555
H19_7 C33_7 1_555 1_555
C34_7 C33_7 1_555 1_555
H20_7 C34_7 1_555 1_555
C35_7 C31_7 1_555 1_555
C36_7 C35_7 1_555 1_555
C37_7 C38_7 1_555 1_555
C38_7 H21_7 1_555 1_555
C39_7 C38_7 1_555 1_555
H22_7 C39_7 1_555 1_555
C40_7 C39_7 1_555 1_555
H23_7 C40_7 1_555 1_555
C41_7 C37_7 1_555 1_555
C42_7 C41_7 1_555 1_555
C43_7 H24_7 1_555 1_555
C44_7 C43_7 1_555 1_555
H25_7 C44_7 1_555 1_555
C45_7 C44_7 1_555 1_555
H26_7 C45_7 1_555 1_555
C46_7 C42_7 1_555 1_555
C47_7 C46_7 1_555 1_555
C48_7 C37_7 1_555 1_555
N3_7 C19_7 1_555 1_555
N4_7 C17_7 1_555 1_555
N11_3 C29_7 1_555 1_555
N12_3 C31_7 1_555 1_555
N7_7 C40_7 1_555 1_555
N8_7 C42_7 1_555 1_555
O1_7 C13_7 1_555 1_555
O2_7 C13_7 1_555 1_555
O3_7 C24_7 1_555 1_555
O4_7 C24_7 1_555 1_555
O9_7 C25_7 1_555 1_555
O10_7 C25_7 1_555 1_555
O11_7 C36_7 1_555 1_555
O12_7 C36_7 1_555 1_555
O13_7 C48_7 1_555 1_555
O14_7 C48_7 1_555 1_555
O15_7 C47_7 1_555 1_555
O17_7 H27_7 1_555 1_555
H28_7 O17_7 1_555 1_555
O18_7 H29_7 1_555 1_555
H30_7 O18_7 1_555 1_555
O19_7 H31_7 1_555 1_555
H32_7 O19_7 1_555 1_555
O20_7 Pr3_7 1_555 1_555
O21_7 H33_7 1_555 1_555
H34_7 O21_7 1_555 1_555
Co2_4 N3_7 1_555 1_555
Pr3_7 O3_7 1_555 1_555
Pr2_7 O1_7 1_555 1_555
N9_7 Co2_4 1_555 1_555
N10_7 Co2_4 1_555 1_555
O23_7 Pr2_7 1_555 1_555
C18_7 N4_7 1_555 1_555
C20_7 N3_7 1_555 1_555
C22_7 C23_7 1_555 1_555
C30_7 N11_3 1_555 1_555
C32_7 N12_3 1_555 1_555
C34_7 C35_7 1_555 1_555
C41_7 N7_7 1_555 1_555
C43_7 N8_7 1_555 1_555
C45_7 C46_7 1_555 1_555
N4_7 Co2_4 1_555 1_555
O2_7 Pr2_7 1_555 1_555
O4_7 Pr3_7 1_555 1_555
O11_7 Pr3_7 1_555 1_555
O12_7 Pr2_7 1_555 1_555
O13_7 Pr2_7 1_555 1_555
O14_7 Pr2_7 1_555 1_555
O17_7 Pr2_7 1_555 1_555
O18_7 Pr2_7 1_555 1_555
O19_7 Pr2_7 1_555 1_555
O21_7 Pr3_7 1_555 1_555
C1_7 C2_7 1_555 1_555
C2_7 C3_7 1_555 1_555
C6_7 C2_7 1_555 1_555
C7_7 C6_7 1_555 1_555
H7_5 C9_7 1_555 1_555
C10_7 C9_7 1_555 1_555
H8_7 C10_7 1_555 1_555
C11_7 C7_7 1_555 1_555
C12_7 C11_7 1_555 1_555
O5_7 C1_7 1_555 1_555
O23_7 C1_7 1_555 1_555
O7_7 C12_7 1_555 1_555
O8_7 C12_7 1_555 1_555
O22_7 H35_7 1_555 1_555
H36_7 O22_7 1_555 1_555
C10_7 C11_7 1_555 1_555
C37_8 C38_8 1_555 1_555
C38_8 H21_8 1_555 1_555
C39_8 C38_8 1_555 1_555
H22_8 C39_8 1_555 1_555
C40_8 C39_8 1_555 1_555
H23_8 C40_8 1_555 1_555
C41_8 C37_8 1_555 1_555
C42_8 C41_8 1_555 1_555
C44_8 C43_8 1_555 1_555
H25_8 C44_8 1_555 1_555
C45_8 C44_8 1_555 1_555
H26_8 C45_8 1_555 1_555
C46_8 C42_8 1_555 1_555
C47_8 C46_8 1_555 1_555
N7_8 C40_8 1_555 1_555
N8_8 C42_8 1_555 1_555
O15_8 C47_8 1_555 1_555
O16_8 C47_8 1_555 1_555
Pr3_8 O15_8 1_555 1_555
C41_8 N7_8 1_555 1_555
C43_8 N8_8 1_555 1_555
C45_8 C46_8 1_555 1_555
O16_8 Pr3_8 1_555 1_555
H1_8 O20_8 1_555 1_555
H2_8 O20_8 1_555 1_555
C1_8 C2_8 1_555 1_555
C2_8 C3_8 1_555 1_555
C3_8 H3_8 1_555 1_555
C4_8 C3_8 1_555 1_555
H4_6 C4_8 1_555 1_555
C5_8 C4_8 1_555 1_555
H5_8 C5_8 1_555 1_555
C6_8 C2_8 1_555 1_555
C13_8 C14_8 1_555 1_555
C14_8 C15_8 1_555 1_555
C15_8 H9_8 1_555 1_555
C16_8 C15_8 1_555 1_555
H10_8 C16_8 1_555 1_555
C17_8 C16_8 1_555 1_555
H11_8 C17_8 1_555 1_555
C18_8 C14_8 1_555 1_555
C19_8 C18_8 1_555 1_555
C20_8 H12_6 1_555 1_555
C21_6 C20_8 1_555 1_555
H13_6 C21_6 1_555 1_555
C22_8 C21_6 1_555 1_555
H14_8 C22_8 1_555 1_555
C23_8 C19_8 1_555 1_555
C24_8 C23_8 1_555 1_555
C25_8 C26_8 1_555 1_555
C26_8 C27_8 1_555 1_555
C27_8 H15_8 1_555 1_555
C28_8 C27_8 1_555 1_555
H16_8 C28_8 1_555 1_555
C29_8 C28_8 1_555 1_555
H17_8 C29_8 1_555 1_555
C30_8 C26_8 1_555 1_555
C31_8 C30_8 1_555 1_555
C32_8 H18_8 1_555 1_555
C33_8 C32_8 1_555 1_555
H19_8 C33_8 1_555 1_555
C34_8 C33_8 1_555 1_555
H20_8 C34_8 1_555 1_555
C35_8 C31_8 1_555 1_555
C36_8 C35_8 1_555 1_555
N1_8 C5_8 1_555 1_555
N3_8 C19_8 1_555 1_555
N4_8 C17_8 1_555 1_555
N11_4 C29_8 1_555 1_555
N12_4 C31_8 1_555 1_555
O1_8 C13_8 1_555 1_555
O2_8 C13_8 1_555 1_555
O3_8 C24_8 1_555 1_555
O4_8 C24_8 1_555 1_555
O5_8 C1_8 1_555 1_555
O23_8 C1_8 1_555 1_555
O7_8 C12_8 1_555 1_555
O8_8 C12_8 1_555 1_555
O9_8 C25_8 1_555 1_555
O10_8 C25_8 1_555 1_555
O11_8 C36_8 1_555 1_555
O12_8 C36_8 1_555 1_555
O14_8 C48_8 1_555 1_555
O17_8 H27_8 1_555 1_555
H28_8 O17_8 1_555 1_555
O18_8 H29_8 1_555 1_555
H30_8 O18_8 1_555 1_555
O19_8 H31_8 1_555 1_555
H32_8 O19_8 1_555 1_555
O20_8 Pr3_8 1_555 1_555
O21_8 H33_8 1_555 1_555
H34_8 O21_8 1_555 1_555
O22_8 H35_8 1_555 1_555
H36_8 O22_8 1_555 1_555
Co2_3 N3_8 1_555 1_555
Pr3_8 O3_8 1_555 1_555
Pr2_8 O1_8 1_555 1_555
N9_8 Co2_3 1_555 1_555
N10_8 Co2_3 1_555 1_555
C6_8 N1_8 1_555 1_555
C18_8 N4_8 1_555 1_555
C20_8 N3_8 1_555 1_555
C22_8 C23_8 1_555 1_555
C30_8 N11_4 1_555 1_555
C32_8 N12_4 1_555 1_555
C34_8 C35_8 1_555 1_555
N4_8 Co2_3 1_555 1_555
O2_8 Pr2_8 1_555 1_555
O4_8 Pr3_8 1_555 1_555
O5_8 Pr3_8 1_555 1_555
O11_8 Pr3_8 1_555 1_555
O12_8 Pr2_8 1_555 1_555
O14_8 Pr2_8 1_555 1_555
O17_8 Pr2_8 1_555 1_555
O18_8 Pr2_8 1_555 1_555
O19_8 Pr2_8 1_555 1_555
O21_8 Pr3_8 1_555 1_555
O22_8 Pr3_8 1_555 1_555
C8_8 H6_6 1_555 1_555
C9_8 C8_8 1_555 1_555
H7_6 C9_8 1_555 1_555
C10_8 C9_8 1_555 1_555
H8_8 C10_8 1_555 1_555
C11_8 C7_8 1_555 1_555
N2_8 C7_8 1_555 1_555
C8_8 N2_8 1_555 1_555
C10_8 C11_8 1_555 1_555
N2_8 Co3_8 1_555 1_555
H1_9 O20_9 1_555 1_555
H2_9 O20_9 1_555 1_555
C1_9 C2_9 1_555 1_555
C2_9 C3_9 1_555 1_555
C3_9 H3_9 1_555 1_555
C4_9 C3_9 1_555 1_555
H4_7 C4_9 1_555 1_555
C5_9 C4_9 1_555 1_555
H5_9 C5_9 1_555 1_555
C6_9 C2_9 1_555 1_555
C7_9 C6_9 1_555 1_555
C9_9 C8_9 1_555 1_555
C10_9 C9_9 1_555 1_555
H8_9 C10_9 1_555 1_555
C11_9 C7_9 1_555 1_555
C12_9 C11_9 1_555 1_555
C13_9 C14_9 1_555 1_555
C14_9 C15_9 1_555 1_555
C15_9 H9_9 1_555 1_555
C16_9 C15_9 1_555 1_555
H10_9 C16_9 1_555 1_555
C17_9 C16_9 1_555 1_555
H11_9 C17_9 1_555 1_555
C18_9 C14_9 1_555 1_555
C19_9 C18_9 1_555 1_555
C20_9 H12_7 1_555 1_555
C21_7 C20_9 1_555 1_555
H13_7 C21_7 1_555 1_555
C22_9 C21_7 1_555 1_555
H14_9 C22_9 1_555 1_555
C23_9 C19_9 1_555 1_555
C24_9 C23_9 1_555 1_555
C25_9 C26_9 1_555 1_555
C26_9 C27_9 1_555 1_555
C27_9 H15_9 1_555 1_555
C28_9 C27_9 1_555 1_555
H16_9 C28_9 1_555 1_555
C29_9 C28_9 1_555 1_555
H17_9 C29_9 1_555 1_555
C30_9 C26_9 1_555 1_555
C31_9 C30_9 1_555 1_555
C32_9 H18_9 1_555 1_555
C33_9 C32_9 1_555 1_555
C34_9 C33_9 1_555 1_555
C35_9 C31_9 1_555 1_555
C36_9 C35_9 1_555 1_555
N9 C5_9 1_555 1_555
N10 C7_9 1_555 1_555
N3_9 C19_9 1_555 1_555
N4_9 C17_9 1_555 1_555
N5_5 C29_9 1_555 1_555
N6_5 C31_9 1_555 1_555
O1_9 C13_9 1_555 1_555
O3_9 C24_9 1_555 1_555
O4_9 C24_9 1_555 1_555
O5_9 C1_9 1_555 1_555
O6 C1_9 1_555 1_555
O7_9 C12_9 1_555 1_555
O8_9 C12_9 1_555 1_555
O9_9 C25_9 1_555 1_555
O10_9 C25_9 1_555 1_555
O11_9 C36_9 1_555 1_555
O12_9 C36_9 1_555 1_555
O18_9 H29_9 1_555 1_555
H30_9 O18_9 1_555 1_555
O20_9 Pr1 1_555 1_555
O21_9 H33_9 1_555 1_555
H34_9 O21_9 1_555 1_555
O22_9 H35_9 1_555 1_555
H36_9 O22_9 1_555 1_555
Co3 N3_9 1_555 1_555
Pr1 O3_9 1_555 1_555
N11_5 Co3 1_555 1_555
O24 Pr1 1_555 1_555
O25 Pr1 1_555 1_555
Co3_2 N5_5 1_555 1_555
Pr4 O6 1_555 1_555
C6_9 N9 1_555 1_555
C8_9 N10 1_555 1_555
C10_9 C11_9 1_555 1_555
C18_9 N4_9 1_555 1_555
C20_9 N3_9 1_555 1_555
C22_9 C23_9 1_555 1_555
C30_9 N5_5 1_555 1_555
C32_9 N6_5 1_555 1_555
C34_9 C35_9 1_555 1_555
N4_9 Co3 1_555 1_555
N6_5 Co3_2 1_555 1_555
O4_9 Pr1 1_555 1_555
O5_9 Pr1 1_555 1_555
O11_9 Pr1 1_555 1_555
O21_9 Pr1 1_555 1_555
O22_9 Pr1 1_555 1_555
C37_9 C38_9 1_555 1_555
C38_9 H21_9 1_555 1_555
C39_9 C38_9 1_555 1_555
H22_9 C39_9 1_555 1_555
C40_9 C39_9 1_555 1_555
H23_9 C40_9 1_555 1_555
C41_9 C37_9 1_555 1_555
C42_9 C41_9 1_555 1_555
C43_9 H24_9 1_555 1_555
C44_9 C43_9 1_555 1_555
H25_9 C44_9 1_555 1_555
C45_9 C44_9 1_555 1_555
H26_9 C45_9 1_555 1_555
C46_9 C42_9 1_555 1_555
C47_9 C46_9 1_555 1_555
C48_9 C37_9 1_555 1_555
N7_9 C40_9 1_555 1_555
N8_9 C42_9 1_555 1_555
O13_9 C48_9 1_555 1_555
O14_9 C48_9 1_555 1_555
O24 C47_9 1_555 1_555
O25 C47_9 1_555 1_555
O17_9 H27_9 1_555 1_555
H28_9 O17_9 1_555 1_555
O19_9 H31_9 1_555 1_555
H32_9 O19_9 1_555 1_555
C41_9 N7_9 1_555 1_555
C43_9 N8_9 1_555 1_555
C45_9 C46_9 1_555 1_555
O2_9 Pr4 1_555 1_555
O13_9 Pr4 1_555 1_555
O14_9 Pr4 1_555 1_555
O17_9 Pr4 1_555 1_555
O19_9 Pr4 1_555 1_555
C1_10 C2_10 1_555 1_555
C2_10 C3_10 1_555 1_555
C3_10 H3_10 1_555 1_555
C4_10 C3_10 1_555 1_555
H4_8 C4_10 1_555 1_555
C5_10 C4_10 1_555 1_555
H5_10 C5_10 1_555 1_555
C6_10 C2_10 1_555 1_555
C7_10 C6_10 1_555 1_555
C8_10 H6_7 1_555 1_555
C9_10 C8_10 1_555 1_555
H7_7 C9_10 1_555 1_555
C10_10 C9_10 1_555 1_555
H8_10 C10_10 1_555 1_555
C11_10 C7_10 1_555 1_555
C12_10 C11_10 1_555 1_555
C26_10 C27_10 1_555 1_555
C27_10 H15_10 1_555 1_555
C28_10 C27_10 1_555 1_555
H16_10 C28_10 1_555 1_555
C29_10 C28_10 1_555 1_555
H17_10 C29_10 1_555 1_555
C30_10 C26_10 1_555 1_555
N9_6 C5_10 1_555 1_555
N10_6 C7_10 1_555 1_555
N5_6 C29_10 1_555 1_555
O3_10 C24_10 1_555 1_555
O5_10 C1_10 1_555 1_555
O6_2 C1_10 1_555 1_555
O7_10 C12_10 1_555 1_555
O8_10 C12_10 1_555 1_555
O21_10 H33_10 1_555 1_555
H34_10 O21_10 1_555 1_555
O22_10 H35_10 1_555 1_555
H36_10 O22_10 1_555 1_555
Pr1_2 O3_10 1_555 1_555
O24_2 Pr1_2 1_555 1_555
O25_2 Pr1_2 1_555 1_555
Co3_3 N5_6 1_555 1_555
Pr4_2 O6_2 1_555 1_555
C6_10 N9_6 1_555 1_555
C8_10 N10_6 1_555 1_555
C10_10 C11_10 1_555 1_555
C30_10 N5_6 1_555 1_555
O5_10 Pr1_2 1_555 1_555
O11_10 Pr1_2 1_555 1_555
O21_10 Pr1_2 1_555 1_555
O22_10 Pr1_2 1_555 1_555
H1_10 O20_10 1_555 1_555
H2_10 O20_10 1_555 1_555
C13_10 C14_10 1_555 1_555
C14_10 C15_10 1_555 1_555
C15_10 H9_10 1_555 1_555
C16_10 C15_10 1_555 1_555
H10_10 C16_10 1_555 1_555
C17_10 C16_10 1_555 1_555
H11_10 C17_10 1_555 1_555
C18_10 C14_10 1_555 1_555
C19_10 C18_10 1_555 1_555
C20_10 H12_8 1_555 1_555
C21_8 C20_10 1_555 1_555
H13_8 C21_8 1_555 1_555
C22_10 C21_8 1_555 1_555
H14_10 C22_10 1_555 1_555
C23_10 C19_10 1_555 1_555
C32_10 H18_10 1_555 1_555
C33_10 C32_10 1_555 1_555
H19_10 C33_10 1_555 1_555
C34_10 C33_10 1_555 1_555
H20_10 C34_10 1_555 1_555
C35_10 C31_10 1_555 1_555
C36_10 C35_10 1_555 1_555
C37_10 C38_10 1_555 1_555
C38_10 H21_10 1_555 1_555
C39_10 C38_10 1_555 1_555
H22_10 C39_10 1_555 1_555
C40_10 C39_10 1_555 1_555
H23_10 C40_10 1_555 1_555
C41_10 C37_10 1_555 1_555
C42_10 C41_10 1_555 1_555
C43_10 H24_10 1_555 1_555
C44_10 C43_10 1_555 1_555
H25_10 C44_10 1_555 1_555
C45_10 C44_10 1_555 1_555
H26_10 C45_10 1_555 1_555
C46_10 C42_10 1_555 1_555
C47_10 C46_10 1_555 1_555
C48_10 C37_10 1_555 1_555
N3_10 C19_10 1_555 1_555
N4_10 C17_10 1_555 1_555
N6_6 C31_10 1_555 1_555
N7_10 C40_10 1_555 1_555
N8_10 C42_10 1_555 1_555
O1_10 C13_10 1_555 1_555
O2_10 C13_10 1_555 1_555
O9_10 C25_10 1_555 1_555
O10_10 C25_10 1_555 1_555
O12_10 C36_10 1_555 1_555
O13_10 C48_10 1_555 1_555
O14_10 C48_10 1_555 1_555
O24_2 C47_10 1_555 1_555
O25_2 C47_10 1_555 1_555
O17_10 H27_10 1_555 1_555
H28_10 O17_10 1_555 1_555
O18_10 H29_10 1_555 1_555
H30_10 O18_10 1_555 1_555
O19_10 H31_10 1_555 1_555
H32_10 O19_10 1_555 1_555
Co3_6 N3_10 1_555 1_555
Pr4_2 O1_10 1_555 1_555
N11_6 Co3_6 1_555 1_555
N12_6 Co3_6 1_555 1_555
C18_10 N4_10 1_555 1_555
C20_10 N3_10 1_555 1_555
C22_10 C23_10 1_555 1_555
C32_10 N6_6 1_555 1_555
C34_10 C35_10 1_555 1_555
C41_10 N7_10 1_555 1_555
C43_10 N8_10 1_555 1_555
C45_10 C46_10 1_555 1_555
N4_10 Co3_6 1_555 1_555
O2_10 Pr4_2 1_555 1_555
O12_10 Pr4_2 1_555 1_555
O13_10 Pr4_2 1_555 1_555
O14_10 Pr4_2 1_555 1_555
O17_10 Pr4_2 1_555 1_555
O18_10 Pr4_2 1_555 1_555
O19_10 Pr4_2 1_555 1_555
C14_11 C15_11 1_555 1_555
C15_11 H9_11 1_555 1_555
C16_11 C15_11 1_555 1_555
H10_11 C16_11 1_555 1_555
C17_11 C16_11 1_555 1_555
H11_11 C17_11 1_555 1_555
C18_11 C14_11 1_555 1_555
C19_11 C18_11 1_555 1_555
C20_11 H12_9 1_555 1_555
C21_9 C20_11 1_555 1_555
N3_11 C19_11 1_555 1_555
N4_11 C17_11 1_555 1_555
Co3_3 N3_11 1_555 1_555
C18_11 N4_11 1_555 1_555
C20_11 N3_11 1_555 1_555
N4_11 Co3_3 1_555 1_555
C43_11 H24_11 1_555 1_555
C44_11 C43_11 1_555 1_555
H25_11 C44_11 1_555 1_555
C45_11 C44_11 1_555 1_555
H26_11 C45_11 1_555 1_555
H1_11 O20_11 1_555 1_555
H2_11 O20_11 1_555 1_555
C1_11 C2_11 1_555 1_555
C2_11 C3_11 1_555 1_555
C3_11 H3_11 1_555 1_555
C4_11 C3_11 1_555 1_555
H4_9 C4_11 1_555 1_555
C5_11 C4_11 1_555 1_555
H5_11 C5_11 1_555 1_555
C6_11 C2_11 1_555 1_555
C7_11 C6_11 1_555 1_555
C9_11 C8_11 1_555 1_555
C10_11 C9_11 1_555 1_555
H8_11 C10_11 1_555 1_555
C11_11 C7_11 1_555 1_555
C12_11 C11_11 1_555 1_555
H14_11 C22_11 1_555 1_555
C24_11 C23_11 1_555 1_555
C25_11 C26_11 1_555 1_555
C26_11 C27_11 1_555 1_555
C27_11 H15_11 1_555 1_555
C28_11 C27_11 1_555 1_555
H16_11 C28_11 1_555 1_555
C29_11 C28_11 1_555 1_555
H17_11 C29_11 1_555 1_555
C30_11 C26_11 1_555 1_555
C31_11 C30_11 1_555 1_555
C32_11 H18_11 1_555 1_555
C33_11 C32_11 1_555 1_555
C34_11 C33_11 1_555 1_555
C35_11 C31_11 1_555 1_555
C36_11 C35_11 1_555 1_555
N9_3 C5_11 1_555 1_555
N10_3 C7_11 1_555 1_555
N5_7 C29_11 1_555 1_555
N6_7 C31_11 1_555 1_555
O1_11 C13_11 1_555 1_555
O3_11 C24_11 1_555 1_555
O4_11 C24_11 1_555 1_555
O5_11 C1_11 1_555 1_555
O6_3 C1_11 1_555 1_555
O7_11 C12_11 1_555 1_555
O8_11 C12_11 1_555 1_555
O9_11 C25_11 1_555 1_555
O10_11 C25_11 1_555 1_555
O11_11 C36_11 1_555 1_555
O12_11 C36_11 1_555 1_555
O18_11 H29_11 1_555 1_555
H30_11 O18_11 1_555 1_555
O20_11 Pr1_3 1_555 1_555
O21_11 H33_11 1_555 1_555
H34_11 O21_11 1_555 1_555
O22_11 H35_11 1_555 1_555
H36_11 O22_11 1_555 1_555
Pr1_3 O3_11 1_555 1_555
O24_3 Pr1_3 1_555 1_555
O25_3 Pr1_3 1_555 1_555
Co3_4 N5_7 1_555 1_555
Pr4_3 O6_3 1_555 1_555
C6_11 N9_3 1_555 1_555
C8_11 N10_3 1_555 1_555
C10_11 C11_11 1_555 1_555
C22_11 C23_11 1_555 1_555
C30_11 N5_7 1_555 1_555
C32_11 N6_7 1_555 1_555
C34_11 C35_11 1_555 1_555
N6_7 Co3_4 1_555 1_555
O4_11 Pr1_3 1_555 1_555
O5_11 Pr1_3 1_555 1_555
O11_11 Pr1_3 1_555 1_555
O21_11 Pr1_3 1_555 1_555
O22_11 Pr1_3 1_555 1_555
C37_11 C38_11 1_555 1_555
C38_11 H21_11 1_555 1_555
C39_11 C38_11 1_555 1_555
H22_11 C39_11 1_555 1_555
C40_11 C39_11 1_555 1_555
H23_11 C40_11 1_555 1_555
C41_11 C37_11 1_555 1_555
C42_11 C41_11 1_555 1_555
C46_11 C42_11 1_555 1_555
C47_11 C46_11 1_555 1_555
C48_11 C37_11 1_555 1_555
N7_11 C40_11 1_555 1_555
N8_11 C42_11 1_555 1_555
O13_11 C48_11 1_555 1_555
O14_11 C48_11 1_555 1_555
O24_3 C47_11 1_555 1_555
O25_3 C47_11 1_555 1_555
O17_11 H27_11 1_555 1_555
H28_11 O17_11 1_555 1_555
O19_11 H31_11 1_555 1_555
H32_11 O19_11 1_555 1_555
C41_11 N7_11 1_555 1_555
O2_11 Pr4_3 1_555 1_555
O13_11 Pr4_3 1_555 1_555
O14_11 Pr4_3 1_555 1_555
O17_11 Pr4_3 1_555 1_555
O19_11 Pr4_3 1_555 1_555
C1_12 C2_12 1_555 1_555
C2_12 C3_12 1_555 1_555
C3_12 H3_12 1_555 1_555
C4_12 C3_12 1_555 1_555
H4_10 C4_12 1_555 1_555
C5_12 C4_12 1_555 1_555
H5_12 C5_12 1_555 1_555
C6_12 C2_12 1_555 1_555
C7_12 C6_12 1_555 1_555
C8_12 H6_8 1_555 1_555
C9_12 C8_12 1_555 1_555
H7_8 C9_12 1_555 1_555
C10_12 C9_12 1_555 1_555
H8_12 C10_12 1_555 1_555
C11_12 C7_12 1_555 1_555
C12_12 C11_12 1_555 1_555
C26_12 C27_12 1_555 1_555
C27_12 H15_12 1_555 1_555
C28_12 C27_12 1_555 1_555
H16_12 C28_12 1_555 1_555
C29_12 C28_12 1_555 1_555
H17_12 C29_12 1_555 1_555
C30_12 C26_12 1_555 1_555
N9_8 C5_12 1_555 1_555
N10_8 C7_12 1_555 1_555
N11_5 C29_12 1_555 1_555
O3_12 C24_12 1_555 1_555
O5_12 C1_12 1_555 1_555
O6_4 C1_12 1_555 1_555
O7_12 C12_12 1_555 1_555
O8_12 C12_12 1_555 1_555
O21_12 H33_12 1_555 1_555
H34_12 O21_12 1_555 1_555
O22_12 H35_12 1_555 1_555
H36_12 O22_12 1_555 1_555
Pr1_4 O3_12 1_555 1_555
O24_4 Pr1_4 1_555 1_555
O25_4 Pr1_4 1_555 1_555
Pr4_4 O6_4 1_555 1_555
C6_12 N9_8 1_555 1_555
C8_12 N10_8 1_555 1_555
C10_12 C11_12 1_555 1_555
C30_12 N11_5 1_555 1_555
O5_12 Pr1_4 1_555 1_555
O11_12 Pr1_4 1_555 1_555
O21_12 Pr1_4 1_555 1_555
O22_12 Pr1_4 1_555 1_555
H1_12 O20_12 1_555 1_555
H2_12 O20_12 1_555 1_555
C13_12 C14_12 1_555 1_555
C14_12 C15_12 1_555 1_555
C15_12 H9_12 1_555 1_555
C16_12 C15_12 1_555 1_555
H10_12 C16_12 1_555 1_555
C17_12 C16_12 1_555 1_555
H11_12 C17_12 1_555 1_555
C18_12 C14_12 1_555 1_555
C19_12 C18_12 1_555 1_555
C20_12 H12_10 1_555 1_555
C21_10 C20_12 1_555 1_555
H13_10 C21_10 1_555 1_555
C22_12 C21_10 1_555 1_555
H14_12 C22_12 1_555 1_555
C23_12 C19_12 1_555 1_555
C32_12 H18_12 1_555 1_555
C33_12 C32_12 1_555 1_555
H19_12 C33_12 1_555 1_555
C34_12 C33_12 1_555 1_555
H20_12 C34_12 1_555 1_555
C35_12 C31_12 1_555 1_555
C36_12 C35_12 1_555 1_555
C37_12 C38_12 1_555 1_555
C38_12 H21_12 1_555 1_555
C39_12 C38_12 1_555 1_555
H22_12 C39_12 1_555 1_555
C40_12 C39_12 1_555 1_555
H23_12 C40_12 1_555 1_555
C41_12 C37_12 1_555 1_555
C42_12 C41_12 1_555 1_555
C43_12 H24_12 1_555 1_555
C44_12 C43_12 1_555 1_555
H25_12 C44_12 1_555 1_555
C45_12 C44_12 1_555 1_555
H26_12 C45_12 1_555 1_555
C46_12 C42_12 1_555 1_555
C47_12 C46_12 1_555 1_555
C48_12 C37_12 1_555 1_555
N3_12 C19_12 1_555 1_555
N4_12 C17_12 1_555 1_555
N12_5 C31_12 1_555 1_555
N7_12 C40_12 1_555 1_555
N8_12 C42_12 1_555 1_555
O1_12 C13_12 1_555 1_555
O2_12 C13_12 1_555 1_555
O9_12 C25_12 1_555 1_555
O10_12 C25_12 1_555 1_555
O12_12 C36_12 1_555 1_555
O13_12 C48_12 1_555 1_555
O14_12 C48_12 1_555 1_555
O24_4 C47_12 1_555 1_555
O25_4 C47_12 1_555 1_555
O17_12 H27_12 1_555 1_555
H28_12 O17_12 1_555 1_555
O18_12 H29_12 1_555 1_555
H30_12 O18_12 1_555 1_555
O19_12 H31_12 1_555 1_555
H32_12 O19_12 1_555 1_555
Co3_8 N3_12 1_555 1_555
Pr4_4 O1_12 1_555 1_555
N11_7 Co3_8 1_555 1_555
N12_7 Co3_8 1_555 1_555
C18_12 N4_12 1_555 1_555
C20_12 N3_12 1_555 1_555
C22_12 C23_12 1_555 1_555
C32_12 N12_5 1_555 1_555
C34_12 C35_12 1_555 1_555
C41_12 N7_12 1_555 1_555
C43_12 N8_12 1_555 1_555
C45_12 C46_12 1_555 1_555
N4_12 Co3_8 1_555 1_555
O2_12 Pr4_4 1_555 1_555
O12_12 Pr4_4 1_555 1_555
O13_12 Pr4_4 1_555 1_555
O14_12 Pr4_4 1_555 1_555
O17_12 Pr4_4 1_555 1_555
O18_12 Pr4_4 1_555 1_555
O19_12 Pr4_4 1_555 1_555
C5_13 C4_13 1_555 1_555
H5_13 C5_13 1_555 1_555
C8_13 H6_9 1_555 1_555
N9_5 C5_13 1_555 1_555
C8_13 N10_5 1_555 1_555
C1_13 C2_13 1_555 1_555
C2_13 C3_13 1_555 1_555
C6_13 C2_13 1_555 1_555
C7_13 C6_13 1_555 1_555
H7_9 C9_13 1_555 1_555
C10_13 C9_13 1_555 1_555
H8_13 C10_13 1_555 1_555
C11_13 C7_13 1_555 1_555
C12_13 C11_13 1_555 1_555
O5_13 C1_13 1_555 1_555
O6_5 C1_13 1_555 1_555
O7_13 C12_13 1_555 1_555
O8_13 C12_13 1_555 1_555
O22_13 H35_13 1_555 1_555
H36_13 O22_13 1_555 1_555
Pr4_5 O6_5 1_555 1_555
C10_13 C11_13 1_555 1_555
H1_13 O20_13 1_555 1_555
H2_13 O20_13 1_555 1_555
H14_13 C22_13 1_555 1_555
C24_13 C23_13 1_555 1_555
C25_13 C26_13 1_555 1_555
C26_13 C27_13 1_555 1_555
C27_13 H15_13 1_555 1_555
C28_13 C27_13 1_555 1_555
C29_13 C28_13 1_555 1_555
C30_13 C26_13 1_555 1_555
C31_13 C30_13 1_555 1_555
C32_13 H18_13 1_555 1_555
C33_13 C32_13 1_555 1_555
H19_13 C33_13 1_555 1_555
C34_13 C33_13 1_555 1_555
H20_13 C34_13 1_555 1_555
C35_13 C31_13 1_555 1_555
C36_13 C35_13 1_555 1_555
C37_13 C38_13 1_555 1_555
C38_13 H21_13 1_555 1_555
C39_13 C38_13 1_555 1_555
H22_13 C39_13 1_555 1_555
C40_13 C39_13 1_555 1_555
H23_13 C40_13 1_555 1_555
C41_13 C37_13 1_555 1_555
C42_13 C41_13 1_555 1_555
C46_13 C42_13 1_555 1_555
C47_13 C46_13 1_555 1_555
C48_13 C37_13 1_555 1_555
N11_6 C29_13 1_555 1_555
N12_6 C31_13 1_555 1_555
N7_13 C40_13 1_555 1_555
N8_13 C42_13 1_555 1_555
O1_13 C13_13 1_555 1_555
O2_13 C13_13 1_555 1_555
O3_13 C24_13 1_555 1_555
O4_13 C24_13 1_555 1_555
O9_13 C25_13 1_555 1_555
O10_13 C25_13 1_555 1_555
O11_13 C36_13 1_555 1_555
O12_13 C36_13 1_555 1_555
O13_13 C48_13 1_555 1_555
O14_13 C48_13 1_555 1_555
O24_5 C47_13 1_555 1_555
O17_13 H27_13 1_555 1_555
H28_13 O17_13 1_555 1_555
O18_13 H29_13 1_555 1_555
H30_13 O18_13 1_555 1_555
O19_13 H31_13 1_555 1_555
H32_13 O19_13 1_555 1_555
O20_13 Pr1_5 1_555 1_555
O21_13 H33_13 1_555 1_555
H34_13 O21_13 1_555 1_555
Pr1_5 O3_13 1_555 1_555
Pr4_5 O1_13 1_555 1_555
O25_5 Pr1_5 1_555 1_555
C22_13 C23_13 1_555 1_555
C30_13 N11_6 1_555 1_555
C32_13 N12_6 1_555 1_555
C34_13 C35_13 1_555 1_555
C41_13 N7_13 1_555 1_555
O2_13 Pr4_5 1_555 1_555
O4_13 Pr1_5 1_555 1_555
O11_13 Pr1_5 1_555 1_555
O12_13 Pr4_5 1_555 1_555
O13_13 Pr4_5 1_555 1_555
O14_13 Pr4_5 1_555 1_555
O17_13 Pr4_5 1_555 1_555
O18_13 Pr4_5 1_555 1_555
O19_13 Pr4_5 1_555 1_555
O21_13 Pr1_5 1_555 1_555
C14_13 C15_13 1_555 1_555
C15_13 H9_13 1_555 1_555
C16_13 C15_13 1_555 1_555
H10_13 C16_13 1_555 1_555
C17_13 C16_13 1_555 1_555
H11_13 C17_13 1_555 1_555
C18_13 C14_13 1_555 1_555
C19_13 C18_13 1_555 1_555
C43_13 H24_13 1_555 1_555
C44_13 C43_13 1_555 1_555
H25_13 C44_13 1_555 1_555
C45_13 C44_13 1_555 1_555
H26_13 C45_13 1_555 1_555
N3_13 C19_13 1_555 1_555
N4_13 C17_13 1_555 1_555
Co3_5 N3_13 1_555 1_555
N11_8 Co3_5 1_555 1_555
N12_8 Co3_5 1_555 1_555
C18_13 N4_13 1_555 1_555
C20_13 N3_13 1_555 1_555
N4_13 Co3_5 1_555 1_555
C8_14 H6_10 1_555 1_555
C9_14 C8_14 1_555 1_555
H7_10 C9_14 1_555 1_555
C10_14 C9_14 1_555 1_555
H8_14 C10_14 1_555 1_555
C11_14 C7_14 1_555 1_555
N10_2 C7_14 1_555 1_555
C8_14 N10_2 1_555 1_555
C10_14 C11_14 1_555 1_555
H1_14 O20_14 1_555 1_555
H2_14 O20_14 1_555 1_555
C1_14 C2_14 1_555 1_555
C2_14 C3_14 1_555 1_555
C3_14 H3_14 1_555 1_555
C4_14 C3_14 1_555 1_555
H4_11 C4_14 1_555 1_555
C5_14 C4_14 1_555 1_555
H5_14 C5_14 1_555 1_555
C6_14 C2_14 1_555 1_555
C13_14 C14_14 1_555 1_555
C14_14 C15_14 1_555 1_555
C15_14 H9_14 1_555 1_555
C16_14 C15_14 1_555 1_555
H10_14 C16_14 1_555 1_555
C17_14 C16_14 1_555 1_555
H11_14 C17_14 1_555 1_555
C18_14 C14_14 1_555 1_555
C19_14 C18_14 1_555 1_555
C20_14 H12_11 1_555 1_555
C21_11 C20_14 1_555 1_555
H13_11 C21_11 1_555 1_555
C22_14 C21_11 1_555 1_555
H14_14 C22_14 1_555 1_555
C23_14 C19_14 1_555 1_555
C24_14 C23_14 1_555 1_555
C25_14 C26_14 1_555 1_555
C26_14 C27_14 1_555 1_555
C27_14 H15_14 1_555 1_555
C28_14 C27_14 1_555 1_555
H16_14 C28_14 1_555 1_555
C29_14 C28_14 1_555 1_555
H17_14 C29_14 1_555 1_555
C30_14 C26_14 1_555 1_555
C31_14 C30_14 1_555 1_555
C32_14 H18_14 1_555 1_555
C33_14 C32_14 1_555 1_555
H19_14 C33_14 1_555 1_555
C34_14 C33_14 1_555 1_555
H20_14 C34_14 1_555 1_555
C35_14 C31_14 1_555 1_555
C36_14 C35_14 1_555 1_555
N9_2 C5_14 1_555 1_555
N3_14 C19_14 1_555 1_555
N4_14 C17_14 1_555 1_555
N5_8 C29_14 1_555 1_555
N6_8 C31_14 1_555 1_555
O1_14 C13_14 1_555 1_555
O2_14 C13_14 1_555 1_555
O3_14 C24_14 1_555 1_555
O4_14 C24_14 1_555 1_555
O5_14 C1_14 1_555 1_555
O6_6 C1_14 1_555 1_555
O7_14 C12_14 1_555 1_555
O8_14 C12_14 1_555 1_555
O9_14 C25_14 1_555 1_555
O10_14 C25_14 1_555 1_555
O11_14 C36_14 1_555 1_555
O12_14 C36_14 1_555 1_555
O14_14 C48_14 1_555 1_555
O17_14 H27_14 1_555 1_555
H28_14 O17_14 1_555 1_555
O18_14 H29_14 1_555 1_555
H30_14 O18_14 1_555 1_555
O19_14 H31_14 1_555 1_555
H32_14 O19_14 1_555 1_555
O20_14 Pr1_6 1_555 1_555
O21_14 H33_14 1_555 1_555
H34_14 O21_14 1_555 1_555
O22_14 H35_14 1_555 1_555
H36_14 O22_14 1_555 1_555
Co3_2 N3_14 1_555 1_555
Pr1_6 O3_14 1_555 1_555
Pr4_6 O1_14 1_555 1_555
O24_6 Pr1_6 1_555 1_555
O25_6 Pr1_6 1_555 1_555
Co3_7 N5_8 1_555 1_555
C6_14 N9_2 1_555 1_555
C18_14 N4_14 1_555 1_555
C20_14 N3_14 1_555 1_555
C22_14 C23_14 1_555 1_555
C30_14 N5_8 1_555 1_555
C32_14 N6_8 1_555 1_555
C34_14 C35_14 1_555 1_555
N4_14 Co3_2 1_555 1_555
N6_8 Co3_7 1_555 1_555
O2_14 Pr4_6 1_555 1_555
O4_14 Pr1_6 1_555 1_555
O5_14 Pr1_6 1_555 1_555
O11_14 Pr1_6 1_555 1_555
O12_14 Pr4_6 1_555 1_555
O14_14 Pr4_6 1_555 1_555
O17_14 Pr4_6 1_555 1_555
O18_14 Pr4_6 1_555 1_555
O19_14 Pr4_6 1_555 1_555
O21_14 Pr1_6 1_555 1_555
O22_14 Pr1_6 1_555 1_555
C37_14 C38_14 1_555 1_555
C38_14 H21_14 1_555 1_555
C39_14 C38_14 1_555 1_555
H22_14 C39_14 1_555 1_555
C40_14 C39_14 1_555 1_555
H23_14 C40_14 1_555 1_555
C41_14 C37_14 1_555 1_555
C42_14 C41_14 1_555 1_555
C44_14 C43_14 1_555 1_555
H25_14 C44_14 1_555 1_555
C45_14 C44_14 1_555 1_555
H26_14 C45_14 1_555 1_555
C46_14 C42_14 1_555 1_555
C47_14 C46_14 1_555 1_555
N7_14 C40_14 1_555 1_555
N8_14 C42_14 1_555 1_555
O24_6 C47_14 1_555 1_555
O25_6 C47_14 1_555 1_555
C41_14 N7_14 1_555 1_555
C43_14 N8_14 1_555 1_555
C45_14 C46_14 1_555 1_555
C1_15 C2_15 1_555 1_555
C2_15 C3_15 1_555 1_555
C6_15 C2_15 1_555 1_555
C7_15 C6_15 1_555 1_555
H7_11 C9_15 1_555 1_555
C10_15 C9_15 1_555 1_555
H8_15 C10_15 1_555 1_555
C11_15 C7_15 1_555 1_555
C12_15 C11_15 1_555 1_555
O5_15 C1_15 1_555 1_555
O6_7 C1_15 1_555 1_555
O7_15 C12_15 1_555 1_555
O8_15 C12_15 1_555 1_555
O22_15 H35_15 1_555 1_555
H36_15 O22_15 1_555 1_555
Pr4_7 O6_7 1_555 1_555
C10_15 C11_15 1_555 1_555
H1_15 O20_15 1_555 1_555
H2_15 O20_15 1_555 1_555
C13_15 C14_15 1_555 1_555
C14_15 C15_15 1_555 1_555
C15_15 H9_15 1_555 1_555
C16_15 C15_15 1_555 1_555
H10_15 C16_15 1_555 1_555
C17_15 C16_15 1_555 1_555
H11_15 C17_15 1_555 1_555
C18_15 C14_15 1_555 1_555
C19_15 C18_15 1_555 1_555
H14_15 C22_15 1_555 1_555
C23_15 C19_15 1_555 1_555
C24_15 C23_15 1_555 1_555
C25_15 C26_15 1_555 1_555
C26_15 C27_15 1_555 1_555
C27_15 H15_15 1_555 1_555
C28_15 C27_15 1_555 1_555
C29_15 C28_15 1_555 1_555
C30_15 C26_15 1_555 1_555
C31_15 C30_15 1_555 1_555
C32_15 H18_15 1_555 1_555
C33_15 C32_15 1_555 1_555
H19_15 C33_15 1_555 1_555
C34_15 C33_15 1_555 1_555
H20_15 C34_15 1_555 1_555
C35_15 C31_15 1_555 1_555
C36_15 C35_15 1_555 1_555
C37_15 C38_15 1_555 1_555
C38_15 H21_15 1_555 1_555
C39_15 C38_15 1_555 1_555
H22_15 C39_15 1_555 1_555
C40_15 C39_15 1_555 1_555
H23_15 C40_15 1_555 1_555
C41_15 C37_15 1_555 1_555
C42_15 C41_15 1_555 1_555
C43_15 H24_15 1_555 1_555
C44_15 C43_15 1_555 1_555
H25_15 C44_15 1_555 1_555
C45_15 C44_15 1_555 1_555
H26_15 C45_15 1_555 1_555
C46_15 C42_15 1_555 1_555
C47_15 C46_15 1_555 1_555
C48_15 C37_15 1_555 1_555
N3_15 C19_15 1_555 1_555
N4_15 C17_15 1_555 1_555
N11_7 C29_15 1_555 1_555
N12_7 C31_15 1_555 1_555
N7_15 C40_15 1_555 1_555
N8_15 C42_15 1_555 1_555
O1_15 C13_15 1_555 1_555
O2_15 C13_15 1_555 1_555
O3_15 C24_15 1_555 1_555
O4_15 C24_15 1_555 1_555
O9_15 C25_15 1_555 1_555
O10_15 C25_15 1_555 1_555
O11_15 C36_15 1_555 1_555
O12_15 C36_15 1_555 1_555
O13_15 C48_15 1_555 1_555
O14_15 C48_15 1_555 1_555
O24_7 C47_15 1_555 1_555
O17_15 H27_15 1_555 1_555
H28_15 O17_15 1_555 1_555
O18_15 H29_15 1_555 1_555
H30_15 O18_15 1_555 1_555
O19_15 H31_15 1_555 1_555
H32_15 O19_15 1_555 1_555
O20_15 Pr1_7 1_555 1_555
O21_15 H33_15 1_555 1_555
H34_15 O21_15 1_555 1_555
Co3_7 N3_15 1_555 1_555
Pr1_7 O3_15 1_555 1_555
Pr4_7 O1_15 1_555 1_555
O25_7 Pr1_7 1_555 1_555
C18_15 N4_15 1_555 1_555
C20_15 N3_15 1_555 1_555
C22_15 C23_15 1_555 1_555
C30_15 N11_7 1_555 1_555
C32_15 N12_7 1_555 1_555
C34_15 C35_15 1_555 1_555
C41_15 N7_15 1_555 1_555
C43_15 N8_15 1_555 1_555
C45_15 C46_15 1_555 1_555
N4_15 Co3_7 1_555 1_555
O2_15 Pr4_7 1_555 1_555
O4_15 Pr1_7 1_555 1_555
O11_15 Pr1_7 1_555 1_555
O12_15 Pr4_7 1_555 1_555
O13_15 Pr4_7 1_555 1_555
O14_15 Pr4_7 1_555 1_555
O17_15 Pr4_7 1_555 1_555
O18_15 Pr4_7 1_555 1_555
O19_15 Pr4_7 1_555 1_555
O21_15 Pr1_7 1_555 1_555
C5_15 C4_15 1_555 1_555
H5_15 C5_15 1_555 1_555
C8_15 H6_11 1_555 1_555
N9_7 C5_15 1_555 1_555
C8_15 N10_7 1_555 1_555
C8_16 H6_12 1_555 1_555
C9_16 C8_16 1_555 1_555
H7_12 C9_16 1_555 1_555
C10_16 C9_16 1_555 1_555
H8_16 C10_16 1_555 1_555
C11_16 C7_16 1_555 1_555
N10_4 C7_16 1_555 1_555
C8_16 N10_4 1_555 1_555
C10_16 C11_16 1_555 1_555
H1_16 O20_16 1_555 1_555
H2_16 O20_16 1_555 1_555
C1_16 C2_16 1_555 1_555
C2_16 C3_16 1_555 1_555
C3_16 H3_16 1_555 1_555
C4_16 C3_16 1_555 1_555
H4_12 C4_16 1_555 1_555
C5_16 C4_16 1_555 1_555
H5_16 C5_16 1_555 1_555
C6_16 C2_16 1_555 1_555
C13_16 C14_16 1_555 1_555
C14_16 C15_16 1_555 1_555
C15_16 H9_16 1_555 1_555
C16_16 C15_16 1_555 1_555
H10_16 C16_16 1_555 1_555
C17_16 C16_16 1_555 1_555
H11_16 C17_16 1_555 1_555
C18_16 C14_16 1_555 1_555
C19_16 C18_16 1_555 1_555
C20_16 H12_12 1_555 1_555
C21_12 C20_16 1_555 1_555
H13_12 C21_12 1_555 1_555
C22_16 C21_12 1_555 1_555
H14_16 C22_16 1_555 1_555
C23_16 C19_16 1_555 1_555
C24_16 C23_16 1_555 1_555
C25_16 C26_16 1_555 1_555
C26_16 C27_16 1_555 1_555
C27_16 H15_16 1_555 1_555
C28_16 C27_16 1_555 1_555
H16_16 C28_16 1_555 1_555
C29_16 C28_16 1_555 1_555
H17_16 C29_16 1_555 1_555
C30_16 C26_16 1_555 1_555
C31_16 C30_16 1_555 1_555
C32_16 H18_16 1_555 1_555
C33_16 C32_16 1_555 1_555
H19_16 C33_16 1_555 1_555
C34_16 C33_16 1_555 1_555
H20_16 C34_16 1_555 1_555
C35_16 C31_16 1_555 1_555
C36_16 C35_16 1_555 1_555
N9_4 C5_16 1_555 1_555
N3_16 C19_16 1_555 1_555
N4_16 C17_16 1_555 1_555
N11_8 C29_16 1_555 1_555
N12_8 C31_16 1_555 1_555
O1_16 C13_16 1_555 1_555
O2_16 C13_16 1_555 1_555
O3_16 C24_16 1_555 1_555
O4_16 C24_16 1_555 1_555
O5_16 C1_16 1_555 1_555
O6_8 C1_16 1_555 1_555
O7_16 C12_16 1_555 1_555
O8_16 C12_16 1_555 1_555
O9_16 C25_16 1_555 1_555
O10_16 C25_16 1_555 1_555
O11_16 C36_16 1_555 1_555
O12_16 C36_16 1_555 1_555
O14_16 C48_16 1_555 1_555
O17_16 H27_16 1_555 1_555
H28_16 O17_16 1_555 1_555
O18_16 H29_16 1_555 1_555
H30_16 O18_16 1_555 1_555
O19_16 H31_16 1_555 1_555
H32_16 O19_16 1_555 1_555
O20_16 Pr1_8 1_555 1_555
O21_16 H33_16 1_555 1_555
H34_16 O21_16 1_555 1_555
O22_16 H35_16 1_555 1_555
H36_16 O22_16 1_555 1_555
Co3_4 N3_16 1_555 1_555
Pr1_8 O3_16 1_555 1_555
Pr4_8 O1_16 1_555 1_555
O24_8 Pr1_8 1_555 1_555
O25_8 Pr1_8 1_555 1_555
C6_16 N9_4 1_555 1_555
C18_16 N4_16 1_555 1_555
C20_16 N3_16 1_555 1_555
C22_16 C23_16 1_555 1_555
C30_16 N11_8 1_555 1_555
C32_16 N12_8 1_555 1_555
C34_16 C35_16 1_555 1_555
N4_16 Co3_4 1_555 1_555
O2_16 Pr4_8 1_555 1_555
O4_16 Pr1_8 1_555 1_555
O5_16 Pr1_8 1_555 1_555
O11_16 Pr1_8 1_555 1_555
O12_16 Pr4_8 1_555 1_555
O14_16 Pr4_8 1_555 1_555
O17_16 Pr4_8 1_555 1_555
O18_16 Pr4_8 1_555 1_555
O19_16 Pr4_8 1_555 1_555
O21_16 Pr1_8 1_555 1_555
O22_16 Pr1_8 1_555 1_555
C37_16 C38_16 1_555 1_555
C38_16 H21_16 1_555 1_555
C39_16 C38_16 1_555 1_555
H22_16 C39_16 1_555 1_555
C40_16 C39_16 1_555 1_555
H23_16 C40_16 1_555 1_555
C41_16 C37_16 1_555 1_555
C42_16 C41_16 1_555 1_555
C44_16 C43_16 1_555 1_555
H25_16 C44_16 1_555 1_555
C45_16 C44_16 1_555 1_555
H26_16 C45_16 1_555 1_555
C46_16 C42_16 1_555 1_555
C47_16 C46_16 1_555 1_555
N7_16 C40_16 1_555 1_555
N8_16 C42_16 1_555 1_555
O24_8 C47_16 1_555 1_555
O25_8 C47_16 1_555 1_555
C41_16 N7_16 1_555 1_555
C43_16 N8_16 1_555 1_555
C45_16 C46_16 1_555 1_555
H13_14 C21_14 1_555 1_555
H13_16 C21_16 1_555 1_555

#END
