
###############################################################################
#
# This file contains modified crystal structure data generated from the
# MOF subset of the Cambridge Structural Database (CSD) v543 
# hosted by the Cambridge Crystallographic Data Centre (CCDC).
#
# This work is licensed under the Creative Commons
# Attribution-NonCommercial-ShareAlike 4.0 International License.
# To view a copy of this license, visit
# http://creativecommons.org/licenses/by-nc-sa/4.0/
# or send a letter to
# Creative Commons, PO Box 1866, Mountain View, CA 94042, USA.
#
# CIF created using the CSD Python API on 29 September 2022
# The structure has been converted into the P1 space group
# The structure has a 3D framework
# The original CSD entry MIFTEC is in the tetragonal crystal system
# The framework has been calculated to contain at least 10.0% void space
# The void calculation uses a probe of radius 1.32A, grid spacing 0.4
# The framework is charged, counterions have been retained in the structure
#
###############################################################################

data_MIFTEC
_chemical_formula_moiety         '(C768 H576 Co16 N128 O348 Sm32)n'
_symmetry_cell_setting           triclinic
_symmetry_space_group_name_H-M   'P 1'
_symmetry_Int_Tables_number      1
_space_group_name_Hall           'P 1'
loop_
_symmetry_equiv_pos_site_id
_symmetry_equiv_pos_as_xyz
1 x,y,z
_cell_length_a                   45.9697(10)
_cell_length_b                   45.9697(10)
_cell_length_c                   11.1834(3)
_cell_angle_alpha                90
_cell_angle_beta                 90
_cell_angle_gamma                90
_cell_volume                     23632.9
loop_
_atom_site_label
_atom_site_type_symbol
_atom_site_fract_x
_atom_site_fract_y
_atom_site_fract_z
C1 C 0.54355(16) 0.36536(13) 0.3534(6)
C2 C 0.52627(14) 0.36844(14) 0.2378(5)
C3 C 0.52900(15) 0.34753(15) 0.1508(6)
H2 H 0.5412 0.3317 0.1635
C4 C 0.51385(14) 0.34985(15) 0.0449(6)
C5 C 0.49602(14) 0.37314(15) 0.0295(5)
C6 C 0.50800(12) 0.39189(13) 0.2148(5)
C7 C 0.50070(13) 0.41545(13) 0.3027(5)
C8 C 0.46211(15) 0.43970(17) 0.3877(6)
H5 H 0.4422 0.4435 0.3895
C9 C 0.47943(15) 0.45345(17) 0.4693(7)
H6 H 0.4716 0.4653 0.5286
C10 C 0.50928(15) 0.44909(16) 0.4603(6)
H7 H 0.5218 0.4588 0.5121
C11 C 0.52043(13) 0.43042(13) 0.3745(5)
C12 C 0.55265(13) 0.42943(13) 0.3558(5)
C25 C 0.64648(19) 0.45365(18) 0.4676(7)
C26 C 0.66806(19) 0.47032(19) 0.3870(7)
C27 C 0.6626(2) 0.4998(2) 0.3642(8)
H14 H 0.6457 0.5082 0.3937
C28 C 0.6819(2) 0.5169(2) 0.2987(9)
H15 H 0.6777 0.5360 0.2765
C29 C 0.7078(2) 0.5030(2) 0.2692(9)
H16 H 0.7223 0.5142 0.2340
C30 C 0.69277(17) 0.4591(2) 0.3402(7)
C31 C 0.69937(16) 0.4275(2) 0.3445(7)
C32 C 0.7318(2) 0.3904(2) 0.3897(8)
H17 H 0.7492 0.3845 0.4244
C33 C 0.71585(19) 0.3697(2) 0.3381(8)
H18 H 0.7222 0.3505 0.3348
C34 C 0.68985(17) 0.3779(2) 0.2903(7)
H19 H 0.6776 0.3640 0.2573
C35 C 0.68140(15) 0.40748(18) 0.2907(6)
C36 C 0.65406(15) 0.41554(15) 0.2281(6)
H20 H 0.6669 0.3775 0.0023
H21 H 0.6992 0.3395 0.0172
N3 N 0.72525(15) 0.4192(2) 0.3969(6)
N4 N 0.71351(16) 0.47501(18) 0.2873(7)
N5 N 0.47205(11) 0.42117(12) 0.3058(5)
N6 N 0.49256(11) 0.39377(11) 0.1128(4)
O1 O 0.53050(10) 0.36962(10) 0.4495(4)
O2 O 0.56972(10) 0.35885(10) 0.3424(4)
O3 O 0.56832(10) 0.43539(10) 0.4441(4)
O4 O 0.56132(9) 0.42406(10) 0.2522(4)
H27 H 0.5410 0.4175 0.0218
O6 O 0.60791(12) 0.46786(12) 0.2428(5)
H28 H 0.6240 0.4774 0.2221
H29 H 0.5932 0.4805 0.2399
O7 O 0.59269(11) 0.37382(10) 0.1298(4)
H30 H 0.5824 0.3700 0.1940
H31 H 0.5835 0.3667 0.0677
O8 O 0.63032(11) 0.40736(13) 0.2726(4)
O9 O 0.65479(11) 0.42910(12) 0.1327(4)
O10 O 0.57286(11) 0.47778(11) 0.0351(5)
O19 O 0.65455(13) 0.43241(13) 0.5278(5)
O20 O 0.62191(12) 0.46317(13) 0.4726(5)
Sm1 Sm 0.599429(7) 0.425799(7) 0.10766(3)
N10 N 0.56499(11) 0.58831(11) 0.0478(5)
Co3 Co 0.453518(18) 0.417425(19) 0.12904(8)
Sm3 Sm 0.599395(7) 0.428601(7) 0.61067(3)
H1 H 0.6305(13) 0.455(3) 0.823(2)
H3 H 0.5158 0.3358 0.9854
H4 H 0.4858 0.3748 0.9581
C13 C 0.56274(14) 0.47251(14) 0.7396(6)
C14 C 0.54149(14) 0.49247(14) 0.8030(6)
C15 C 0.51198(14) 0.48577(15) 0.8008(6)
H8 H 0.5058 0.4680 0.7699
C16 C 0.49207(15) 0.50513(15) 0.8437(6)
H9 H 0.4724 0.5005 0.8448
C17 C 0.50140(14) 0.53148(15) 0.8850(6)
H10 H 0.4877 0.5450 0.9104
C18 C 0.54953(14) 0.51871(14) 0.8550(5)
C19 C 0.57973(14) 0.52856(14) 0.8732(6)
C20 C 0.61132(14) 0.56752(15) 0.8523(6)
H11 H 0.6146 0.5867 0.8293
C21 C 0.63432(15) 0.55123(16) 0.8956(7)
H12 H 0.6529 0.5591 0.8995
C22 C 0.62915(14) 0.52356(15) 0.9325(7)
H13 H 0.6443 0.5126 0.9637
C23 C 0.60178(14) 0.51147(14) 0.9243(6)
C24 C 0.59596(16) 0.48248(15) 0.9836(6)
C37 C 0.62420(13) 0.38732(13) 0.8491(5)
C38 C 0.64287(13) 0.36059(13) 0.8682(5)
C39 C 0.66527(14) 0.36161(15) 0.9512(6)
C40 C 0.68490(16) 0.33945(17) 0.9583(6)
C41 C 0.68327(15) 0.31732(16) 0.8779(6)
H22 H 0.6977 0.3032 0.8786
C42 C 0.64082(13) 0.33569(13) 0.7967(5)
C43 C 0.61670(13) 0.32877(13) 0.7113(5)
C44 C 0.60636(15) 0.30903(14) 0.5265(6)
H23 H 0.6129 0.3007 0.4556
C45 C 0.57736(15) 0.31274(15) 0.5415(6)
H24 H 0.5643 0.3073 0.4820
C46 C 0.56776(15) 0.32467(14) 0.6466(6)
H25 H 0.5479 0.3271 0.6594
C47 C 0.58742(13) 0.33320(13) 0.7342(5)
C48 C 0.57553(13) 0.34606(14) 0.8501(6)
N1 N 0.62613(12) 0.31665(11) 0.6083(4)
N2 N 0.66169(11) 0.31499(11) 0.7978(5)
N7 N 0.52956(11) 0.53850(12) 0.8901(5)
N8 N 0.58464(11) 0.55671(11) 0.8424(5)
O5 O 0.55679(9) 0.41629(10) 0.9799(4)
H26 H 0.5579 0.3990 0.9497
O11 O 0.61665(11) 0.46412(10) 0.9785(4)
O12 O 0.61952(10) 0.40303(10) 0.9370(4)
O13 O 0.61595(10) 0.39176(9) 0.7438(4)
O14 O 0.55755(10) 0.39647(11) 0.6352(4)
H32 H 0.5548 0.3862 0.5699
H33 H 0.5603 0.3843 0.6948
O15 O 0.61154(10) 0.38677(10) 0.4825(4)
H34 H 0.5959 0.3753 0.4678
H35 H 0.6185 0.3925 0.4104
O16 O 0.57470(11) 0.48119(11) 0.6470(4)
O17 O 0.56670(11) 0.44715(10) 0.7781(4)
O18 O 0.63246(11) 0.45245(11) 0.7486(5)
H36 H 0.6508 0.4474 0.7343
O21 O 0.58562(10) 0.33608(11) 0.9454(4)
O22 O 0.55726(10) 0.36576(10) 0.8395(4)
Co1 Co 0.546482(18) 0.582575(19) 0.87096(8)
N9 N 0.56665(11) 0.62387(12) 0.8583(4)
N11 N 0.52795(11) 0.57883(12) 0.6942(5)
N12 N 0.50744(11) 0.60623(11) 0.8872(4)
Co2 Co 0.667425(19) 0.296482(18) 0.62096(8)
H1_2 H 0.295(3) 0.8805(13) 0.073(2)
C1_2 C 0.38464(13) 0.79355(16) 0.6034(6)
C2_2 C 0.38156(14) 0.77627(14) 0.4878(5)
C3_2 C 0.40247(15) 0.77900(15) 0.4008(6)
H2_2 H 0.4183 0.7912 0.4135
C4_2 C 0.40015(15) 0.76385(14) 0.2949(6)
H3_2 H 0.4142 0.7658 0.2354
C5_2 C 0.37686(15) 0.74602(14) 0.2795(5)
H4_2 H 0.3752 0.7358 0.2081
C6_2 C 0.35811(13) 0.75800(12) 0.4648(5)
C7_2 C 0.33455(13) 0.75070(13) 0.5527(5)
C8_2 C 0.31030(17) 0.71211(15) 0.6377(6)
H5_2 H 0.3065 0.6922 0.6395
C9_2 C 0.29655(17) 0.72943(15) 0.7193(7)
H6_2 H 0.2847 0.7216 0.7786
C10_2 C 0.30091(16) 0.75928(15) 0.7103(6)
H7_2 H 0.2912 0.7718 0.7621
C11_2 C 0.31958(13) 0.77043(13) 0.6245(5)
C12_2 C 0.32057(13) 0.80265(13) 0.6058(5)
C14_2 C 0.25753(14) 0.79149(14) 0.0530(6)
C15_2 C 0.26423(15) 0.76198(14) 0.0508(6)
H8_2 H 0.2820 0.7558 0.0199
C16_2 C 0.24487(15) 0.74207(15) 0.0937(6)
H9_2 H 0.2495 0.7224 0.0948
C17_2 C 0.21852(15) 0.75140(14) 0.1350(6)
H10_2 H 0.2050 0.7377 0.1604
C18_2 C 0.23129(14) 0.79953(14) 0.1050(5)
C19_2 C 0.22144(14) 0.82973(14) 0.1232(6)
C20_2 C 0.18248(15) 0.86132(14) 0.1023(6)
H11_2 H 0.1633 0.8646 0.0793
C21_2 C 0.19877(16) 0.88432(15) 0.1456(7)
H12_2 H 0.1909 0.9029 0.1495
C22_2 C 0.22644(15) 0.87915(14) 0.1825(7)
H13_2 H 0.2374 0.8943 0.2137
C23_2 C 0.23853(14) 0.85178(14) 0.1743(6)
C24_2 C 0.26752(15) 0.84596(16) 0.2336(6)
C25_2 C 0.29635(18) 0.89648(19) 0.7176(7)
C26_2 C 0.27968(19) 0.91806(19) 0.6370(7)
C27_2 C 0.2502(2) 0.9126(2) 0.6142(8)
H14_2 H 0.2418 0.8957 0.6437
C28_2 C 0.2331(2) 0.9319(2) 0.5487(9)
H15_2 H 0.2140 0.9277 0.5265
C29_2 C 0.2470(2) 0.9578(2) 0.5192(9)
H16_2 H 0.2358 0.9723 0.4840
C30_2 C 0.2909(2) 0.94277(17) 0.5902(7)
C31_2 C 0.3225(2) 0.94937(16) 0.5945(7)
C32_2 C 0.3596(2) 0.9818(2) 0.6397(8)
H17_2 H 0.3655 0.9992 0.6744
C33_2 C 0.3803(2) 0.96585(19) 0.5881(8)
H18_2 H 0.3995 0.9722 0.5848
C34_2 C 0.3721(2) 0.93985(17) 0.5403(7)
H19_2 H 0.3860 0.9276 0.5073
C35_2 C 0.34252(18) 0.93140(15) 0.5407(6)
C36_2 C 0.33446(15) 0.90406(15) 0.4781(6)
C37_2 C 0.36268(13) 0.87420(13) 0.0991(5)
C38_2 C 0.38941(13) 0.89287(13) 0.1182(5)
C39_2 C 0.38839(15) 0.91527(14) 0.2012(6)
H20_2 H 0.3725 0.9169 0.2523
C40_2 C 0.41055(17) 0.93490(16) 0.2083(6)
H21_2 H 0.4105 0.9492 0.2672
C41_2 C 0.43268(16) 0.93327(15) 0.1279(6)
H22_2 H 0.4468 0.9477 0.1286
C42_2 C 0.41431(13) 0.89082(13) 0.0467(5)
C48_2 C 0.40394(14) 0.82553(13) 0.1001(6)
N2_2 N 0.43501(11) 0.91169(11) 0.0478(5)
N3_2 N 0.3308(2) 0.97525(15) 0.6469(6)
N4_2 N 0.27499(18) 0.96351(16) 0.5373(7)
N5_2 N 0.32883(12) 0.72205(11) 0.5558(5)
N6_2 N 0.35623(11) 0.74256(11) 0.3628(4)
N7_2 N 0.21150(12) 0.77956(11) 0.1401(5)
N8_2 N 0.19329(11) 0.83464(11) 0.0924(5)
O1_2 O 0.38038(10) 0.78050(10) 0.6995(4)
O2_2 O 0.39115(10) 0.81972(10) 0.5924(4)
O3_2 O 0.31461(10) 0.81832(10) 0.6941(4)
O4_2 O 0.32594(10) 0.81132(9) 0.5022(4)
O5_2 O 0.33371(10) 0.80679(9) 0.2299(4)
H26_2 H 0.3510 0.8079 0.1997
H27_2 H 0.3325 0.7910 0.2718
O6_2 O 0.28214(12) 0.85791(12) 0.4928(5)
H28_2 H 0.2726 0.8740 0.4721
H29_2 H 0.2695 0.8432 0.4899
O7_2 O 0.37618(10) 0.84269(11) 0.3798(4)
H30_2 H 0.3800 0.8324 0.4440
H31_2 H 0.3833 0.8335 0.3177
O8_2 O 0.34264(13) 0.88032(11) 0.5226(4)
O9_2 O 0.32090(12) 0.90479(11) 0.3827(4)
O10_2 O 0.27222(11) 0.82286(11) 0.2851(5)
O11_2 O 0.28588(10) 0.86665(11) 0.2285(4)
O12_2 O 0.34697(10) 0.86952(10) 0.1870(4)
O17_2 O 0.30285(10) 0.81670(11) 0.0281(4)
O19_2 O 0.31759(13) 0.90455(13) 0.7778(5)
O20_2 O 0.28683(13) 0.87191(12) 0.7226(5)
O21_2 O 0.41392(11) 0.83562(10) 0.1954(4)
O22_2 O 0.38424(10) 0.80726(10) 0.0895(4)
Co1_2 Co 0.167425(19) 0.796482(18) 0.12096(8)
Sm1_2 Sm 0.324201(7) 0.849429(7) 0.35766(3)
N9_2 N 0.12613(12) 0.81665(11) 0.1083(4)
N10_2 N 0.16169(11) 0.81499(11) 0.2978(5)
N12_2 N 0.14377(11) 0.75744(11) 0.1372(4)
Co3_2 Co 0.332575(19) 0.703518(18) 0.37904(8)
Sm3_2 Sm 0.321399(7) 0.849395(7) 0.86067(3)
C13_2 C 0.27749(14) 0.81274(14) 0.9896(6)
C43_2 C 0.42123(13) 0.86670(13) 0.9613(5)
C44_2 C 0.44097(14) 0.85636(15) 0.7765(6)
H23_2 H 0.4493 0.8629 0.7056
C45_2 C 0.43726(15) 0.82736(15) 0.7915(6)
H24_2 H 0.4427 0.8143 0.7320
C46_2 C 0.42533(14) 0.81776(15) 0.8966(6)
H25_2 H 0.4229 0.7979 0.9094
C47_2 C 0.41680(13) 0.83742(13) 0.9842(5)
N1_2 N 0.43335(11) 0.87613(12) 0.8583(4)
O13_2 O 0.35824(9) 0.86595(10) 0.9938(4)
O14_2 O 0.35353(11) 0.80755(10) 0.8852(4)
H32_2 H 0.3638 0.8048 0.8199
H33_2 H 0.3657 0.8103 0.9448
O15_2 O 0.36323(10) 0.86154(10) 0.7325(4)
H34_2 H 0.3747 0.8459 0.7178
H35_2 H 0.3575 0.8685 0.6604
O16_2 O 0.26881(11) 0.82470(11) 0.8970(4)
O18_2 O 0.29755(11) 0.88246(11) 0.9986(5)
H36_2 H 0.3026 0.9008 0.9843
N11_2 N 0.17117(12) 0.77795(11) 0.9442(5)
Co2_2 Co 0.453518(18) 0.917425(19) 0.87096(8)
C1_3 C 0.45645(16) 0.13464(13) 0.3534(6)
C2_3 C 0.47373(14) 0.13156(14) 0.2378(5)
C3_3 C 0.47100(15) 0.15247(15) 0.1508(6)
H2_3 H 0.4588 0.1683 0.1635
C4_3 C 0.48615(14) 0.15015(15) 0.0449(6)
C5_3 C 0.50398(14) 0.12686(15) 0.0295(5)
C6_3 C 0.49200(12) 0.10811(13) 0.2148(5)
C7_3 C 0.49930(13) 0.08455(13) 0.3027(5)
C8_3 C 0.53789(15) 0.06030(17) 0.3877(6)
H5_3 H 0.5578 0.0565 0.3895
C9_3 C 0.52057(15) 0.04655(17) 0.4693(7)
H6_3 H 0.5284 0.0347 0.5286
C10_3 C 0.49072(15) 0.05091(16) 0.4603(6)
H7_3 H 0.4782 0.0412 0.5121
C11_3 C 0.47957(13) 0.06958(13) 0.3745(5)
C12_3 C 0.44735(13) 0.07057(13) 0.3558(5)
C25_3 C 0.35352(19) 0.04635(18) 0.4676(7)
C26_3 C 0.33194(19) 0.02968(19) 0.3870(7)
C27_3 C 0.3374(2) 0.0002(2) 0.3642(8)
C30_3 C 0.30723(17) 0.0409(2) 0.3402(7)
C31_3 C 0.30063(16) 0.0725(2) 0.3445(7)
C32_3 C 0.2682(2) 0.1096(2) 0.3897(8)
H17_3 H 0.2508 0.1155 0.4244
C33_3 C 0.28415(19) 0.1303(2) 0.3381(8)
H18_3 H 0.2778 0.1495 0.3348
C34_3 C 0.31015(17) 0.1221(2) 0.2903(7)
H19_3 H 0.3224 0.1360 0.2573
C35_3 C 0.31860(15) 0.09252(18) 0.2907(6)
C36_3 C 0.34594(15) 0.08446(15) 0.2281(6)
H20_3 H 0.3331 0.1225 0.0023
H21_3 H 0.3008 0.1605 0.0172
N3_3 N 0.27475(15) 0.0808(2) 0.3969(6)
N4_3 N 0.28649(16) 0.02499(18) 0.2873(7)
N5_3 N 0.52795(11) 0.07883(12) 0.3058(5)
N6_3 N 0.50744(11) 0.10623(11) 0.1128(4)
O1_3 O 0.46950(10) 0.13038(10) 0.4495(4)
O2_3 O 0.43028(10) 0.14115(10) 0.3424(4)
O3_3 O 0.43168(10) 0.06461(10) 0.4441(4)
O4_3 O 0.43868(9) 0.07594(10) 0.2522(4)
H27_3 H 0.4590 0.0825 0.0218
O6_3 O 0.39209(12) 0.03214(12) 0.2428(5)
H28_3 H 0.3760 0.0226 0.2221
H29_3 H 0.4068 0.0195 0.2399
O7_3 O 0.40731(11) 0.12618(10) 0.1298(4)
H30_3 H 0.4176 0.1300 0.1940
H31_3 H 0.4165 0.1333 0.0677
O8_3 O 0.36968(11) 0.09264(13) 0.2726(4)
O9_3 O 0.34521(11) 0.07090(12) 0.1327(4)
O10_3 O 0.42714(11) 0.02222(11) 0.0351(5)
O19_3 O 0.34545(13) 0.06759(13) 0.5278(5)
O20_3 O 0.37809(12) 0.03683(13) 0.4726(5)
Sm1_3 Sm 0.400571(7) 0.074201(7) 0.10766(3)
Co3_3 Co 0.546482(18) 0.082575(19) 0.12904(8)
Sm3_3 Sm 0.400605(7) 0.071399(7) 0.61067(3)
H1_3 H 0.3695(13) 0.045(3) 0.823(2)
H3_3 H 0.4842 0.1642 0.9854
H4_3 H 0.5142 0.1252 0.9581
C13_3 C 0.43726(14) 0.02749(14) 0.7396(6)
C14_3 C 0.45851(14) 0.00753(14) 0.8030(6)
C15_3 C 0.48802(14) 0.01423(15) 0.8008(6)
H8_3 H 0.4942 0.0320 0.7699
C24_3 C 0.40404(16) 0.01752(15) 0.9836(6)
C37_3 C 0.37580(13) 0.11268(13) 0.8491(5)
C38_3 C 0.35713(13) 0.13941(13) 0.8682(5)
C39_3 C 0.33473(14) 0.13839(15) 0.9512(6)
C40_3 C 0.31510(16) 0.16055(17) 0.9583(6)
C41_3 C 0.31673(15) 0.18268(16) 0.8779(6)
H22_3 H 0.3023 0.1968 0.8786
C42_3 C 0.35918(13) 0.16431(13) 0.7967(5)
C43_3 C 0.38330(13) 0.17123(13) 0.7113(5)
C44_3 C 0.39364(15) 0.19097(14) 0.5265(6)
H23_3 H 0.3871 0.1993 0.4556
C45_3 C 0.42264(15) 0.18726(15) 0.5415(6)
H24_3 H 0.4357 0.1927 0.4820
C46_3 C 0.43224(15) 0.17533(14) 0.6466(6)
H25_3 H 0.4521 0.1729 0.6594
C47_3 C 0.41258(13) 0.16680(13) 0.7342(5)
C48_3 C 0.42447(13) 0.15394(14) 0.8501(6)
N1_3 N 0.37387(12) 0.18335(11) 0.6083(4)
N2_3 N 0.33831(11) 0.18501(11) 0.7978(5)
O5_3 O 0.44321(9) 0.08371(10) 0.9799(4)
H26_3 H 0.4421 0.1010 0.9497
O11_3 O 0.38335(11) 0.03588(10) 0.9785(4)
O12_3 O 0.38048(10) 0.09697(10) 0.9370(4)
O13_3 O 0.38405(10) 0.10824(9) 0.7438(4)
O14_3 O 0.44245(10) 0.10353(11) 0.6352(4)
H32_3 H 0.4452 0.1138 0.5699
H33_3 H 0.4397 0.1157 0.6948
O15_3 O 0.38846(10) 0.11323(10) 0.4825(4)
H34_3 H 0.4041 0.1247 0.4678
H35_3 H 0.3815 0.1075 0.4104
O16_3 O 0.42530(11) 0.01881(11) 0.6470(4)
O17_3 O 0.43330(11) 0.05285(10) 0.7781(4)
O18_3 O 0.36754(11) 0.04755(11) 0.7486(5)
H36_3 H 0.3492 0.0526 0.7343
O21_3 O 0.41438(10) 0.16392(11) 0.9454(4)
O22_3 O 0.44274(10) 0.13424(10) 0.8395(4)
Co2_3 Co 0.332575(19) 0.203518(18) 0.62096(8)
H14_3 H 0.3543 0.9918 0.3937
C28_3 C 0.3181(2) 0.9831(2) 0.2987(9)
H15_3 H 0.3223 0.9640 0.2765
C29_3 C 0.2922(2) 0.9970(2) 0.2692(9)
H16_3 H 0.2777 0.9858 0.2340
C16_3 C 0.50793(15) 0.99487(15) 0.8437(6)
H9_3 H 0.5276 0.9995 0.8448
C17_3 C 0.49860(14) 0.96852(15) 0.8850(6)
H10_3 H 0.5123 0.9550 0.9104
C18_3 C 0.45047(14) 0.98129(14) 0.8550(5)
C19_3 C 0.42027(14) 0.97144(14) 0.8732(6)
C20_3 C 0.38868(14) 0.93248(15) 0.8523(6)
H11_3 H 0.3854 0.9133 0.8293
C21_3 C 0.36568(15) 0.94877(16) 0.8956(7)
H12_3 H 0.3471 0.9409 0.8995
C22_3 C 0.37085(14) 0.97644(15) 0.9325(7)
H13_3 H 0.3557 0.9874 0.9637
C23_3 C 0.39822(14) 0.98853(14) 0.9243(6)
N7_3 N 0.47044(11) 0.96150(12) 0.8901(5)
N8_3 N 0.41536(11) 0.94329(11) 0.8424(5)
N11_3 N 0.47205(11) 0.92117(12) 0.6942(5)
N12_3 N 0.49256(11) 0.89377(11) 0.8872(4)
H1_4 H 0.705(3) 0.6195(13) 0.073(2)
C1_4 C 0.61536(13) 0.70645(16) 0.6034(6)
C2_4 C 0.61844(14) 0.72373(14) 0.4878(5)
C3_4 C 0.59753(15) 0.72100(15) 0.4008(6)
H2_4 H 0.5817 0.7088 0.4135
C4_4 C 0.59985(15) 0.73615(14) 0.2949(6)
H3_4 H 0.5858 0.7342 0.2354
C5_4 C 0.62314(15) 0.75398(14) 0.2795(5)
H4_4 H 0.6248 0.7642 0.2081
C6_4 C 0.64189(13) 0.74200(12) 0.4648(5)
C7_4 C 0.66545(13) 0.74930(13) 0.5527(5)
C8_4 C 0.68970(17) 0.78789(15) 0.6377(6)
H5_4 H 0.6935 0.8078 0.6395
C9_4 C 0.70345(17) 0.77057(15) 0.7193(7)
H6_4 H 0.7153 0.7784 0.7786
C10_4 C 0.69909(16) 0.74072(15) 0.7103(6)
H7_4 H 0.7088 0.7282 0.7621
C11_4 C 0.68042(13) 0.72957(13) 0.6245(5)
C12_4 C 0.67943(13) 0.69735(13) 0.6058(5)
C14_4 C 0.74247(14) 0.70851(14) 0.0530(6)
C15_4 C 0.73577(15) 0.73802(14) 0.0508(6)
H8_4 H 0.7180 0.7442 0.0199
C16_4 C 0.75513(15) 0.75793(15) 0.0937(6)
H9_4 H 0.7505 0.7776 0.0948
C17_4 C 0.78148(15) 0.74860(14) 0.1350(6)
H10_4 H 0.7950 0.7623 0.1604
C18_4 C 0.76871(14) 0.70047(14) 0.1050(5)
C19_4 C 0.77856(14) 0.67027(14) 0.1232(6)
C20_4 C 0.81752(15) 0.63868(14) 0.1023(6)
H11_4 H 0.8367 0.6354 0.0793
C21_4 C 0.80123(16) 0.61568(15) 0.1456(7)
H12_4 H 0.8091 0.5971 0.1495
C22_4 C 0.77356(15) 0.62085(14) 0.1825(7)
H13_4 H 0.7626 0.6057 0.2137
C23_4 C 0.76147(14) 0.64822(14) 0.1743(6)
C24_4 C 0.73248(15) 0.65404(16) 0.2336(6)
C25_4 C 0.70365(18) 0.60352(19) 0.7176(7)
C26_4 C 0.72032(19) 0.58194(19) 0.6370(7)
C27_4 C 0.7498(2) 0.5874(2) 0.6142(8)
H14_4 H 0.7582 0.6043 0.6437
C28_4 C 0.7669(2) 0.5681(2) 0.5487(9)
H15_4 H 0.7860 0.5723 0.5265
C29_4 C 0.7530(2) 0.5422(2) 0.5192(9)
H16_4 H 0.7642 0.5277 0.4840
C30_4 C 0.7091(2) 0.55723(17) 0.5902(7)
C31_4 C 0.6775(2) 0.55063(16) 0.5945(7)
C32_4 C 0.6404(2) 0.5182(2) 0.6397(8)
H17_4 H 0.6345 0.5008 0.6744
C33_4 C 0.6197(2) 0.53415(19) 0.5881(8)
H18_4 H 0.6005 0.5278 0.5848
C34_4 C 0.6279(2) 0.56015(17) 0.5403(7)
H19_4 H 0.6140 0.5724 0.5073
C35_4 C 0.65748(18) 0.56860(15) 0.5407(6)
C36_4 C 0.66554(15) 0.59594(15) 0.4781(6)
C37_4 C 0.63732(13) 0.62580(13) 0.0991(5)
C38_4 C 0.61059(13) 0.60713(13) 0.1182(5)
C39_4 C 0.61161(15) 0.58473(14) 0.2012(6)
H20_4 H 0.6275 0.5831 0.2523
C40_4 C 0.58945(17) 0.56510(16) 0.2083(6)
H21_4 H 0.5895 0.5508 0.2672
C41_4 C 0.56732(16) 0.56673(15) 0.1279(6)
H22_4 H 0.5532 0.5523 0.1286
C42_4 C 0.58569(13) 0.60918(13) 0.0467(5)
C48_4 C 0.59606(14) 0.67447(13) 0.1001(6)
N3_4 N 0.6692(2) 0.52475(15) 0.6469(6)
N4_4 N 0.72501(18) 0.53649(16) 0.5373(7)
N5_4 N 0.67117(12) 0.77795(11) 0.5558(5)
N6_4 N 0.64377(11) 0.75744(11) 0.3628(4)
N7_4 N 0.78850(12) 0.72044(11) 0.1401(5)
N8_4 N 0.80671(11) 0.66536(11) 0.0924(5)
O1_4 O 0.61962(10) 0.71950(10) 0.6995(4)
O2_4 O 0.60885(10) 0.68028(10) 0.5924(4)
O3_4 O 0.68539(10) 0.68168(10) 0.6941(4)
O4_4 O 0.67406(10) 0.68868(9) 0.5022(4)
O5_4 O 0.66629(10) 0.69321(9) 0.2299(4)
H26_4 H 0.6490 0.6921 0.1997
H27_4 H 0.6675 0.7090 0.2718
O6_4 O 0.71786(12) 0.64209(12) 0.4928(5)
H28_4 H 0.7274 0.6260 0.4721
H29_4 H 0.7305 0.6568 0.4899
O7_4 O 0.62382(10) 0.65731(11) 0.3798(4)
H30_4 H 0.6200 0.6676 0.4440
H31_4 H 0.6167 0.6665 0.3177
O8_4 O 0.65736(13) 0.61968(11) 0.5226(4)
O9_4 O 0.67910(12) 0.59521(11) 0.3827(4)
O10_4 O 0.72778(11) 0.67714(11) 0.2851(5)
O11_4 O 0.71412(10) 0.63335(11) 0.2285(4)
O12_4 O 0.65303(10) 0.63048(10) 0.1870(4)
O17_4 O 0.69715(10) 0.68330(11) 0.0281(4)
O19_4 O 0.68241(13) 0.59545(13) 0.7778(5)
O20_4 O 0.71317(13) 0.62809(12) 0.7226(5)
O21_4 O 0.58608(11) 0.66438(10) 0.1954(4)
O22_4 O 0.61576(10) 0.69274(10) 0.0895(4)
Co1_3 Co 0.832575(19) 0.703518(18) 0.12096(8)
Sm1_4 Sm 0.675799(7) 0.650571(7) 0.35766(3)
N9_3 N 0.87387(12) 0.68335(11) 0.1083(4)
N10_3 N 0.83831(11) 0.68501(11) 0.2978(5)
N12_4 N 0.85623(11) 0.74256(11) 0.1372(4)
Co3_4 Co 0.667425(19) 0.796482(18) 0.37904(8)
Sm3_4 Sm 0.678601(7) 0.650605(7) 0.86067(3)
C13_4 C 0.72251(14) 0.68726(14) 0.9896(6)
C43_4 C 0.57877(13) 0.63330(13) 0.9613(5)
C44_4 C 0.55903(14) 0.64364(15) 0.7765(6)
H23_4 H 0.5507 0.6371 0.7056
C45_4 C 0.56274(15) 0.67264(15) 0.7915(6)
H24_4 H 0.5573 0.6857 0.7320
C46_4 C 0.57467(14) 0.68224(15) 0.8966(6)
H25_4 H 0.5771 0.7021 0.9094
C47_4 C 0.58320(13) 0.66258(13) 0.9842(5)
O13_4 O 0.64176(9) 0.63405(10) 0.9938(4)
O14_4 O 0.64647(11) 0.69245(10) 0.8852(4)
H32_4 H 0.6362 0.6952 0.8199
H33_4 H 0.6343 0.6897 0.9448
O15_4 O 0.63677(10) 0.63846(10) 0.7325(4)
H34_4 H 0.6253 0.6541 0.7178
H35_4 H 0.6425 0.6315 0.6604
O16_4 O 0.73119(11) 0.67530(11) 0.8970(4)
O18_4 O 0.70245(11) 0.61754(11) 0.9986(5)
H36_4 H 0.6974 0.5992 0.9843
N11_4 N 0.82883(12) 0.72205(11) 0.9442(5)
C17_5 C 0.00140(14) 0.03148(15) 0.3850(6)
C18_5 C 0.04953(14) 0.01871(14) 0.3550(5)
C19_5 C 0.07973(14) 0.02856(14) 0.3732(6)
C20_5 C 0.11132(14) 0.06752(15) 0.3523(6)
H11_5 H 0.1146 0.0867 0.3293
C21_5 C 0.13432(15) 0.05123(16) 0.3956(7)
H12_5 H 0.1529 0.0591 0.3995
C22_5 C 0.12915(14) 0.02356(15) 0.4325(7)
H13_5 H 0.1443 0.0126 0.4637
C23_5 C 0.10178(14) 0.01147(14) 0.4243(6)
H14_5 H 0.1457 0.0082 0.8937
C28_5 C 0.1819(2) 0.0169(2) 0.7987(9)
H15_5 H 0.1777 0.0360 0.7765
C29_5 C 0.2078(2) 0.0030(2) 0.7692(9)
H16_5 H 0.2223 0.0142 0.7340
N7_5 N 0.02956(11) 0.03850(12) 0.3901(5)
N8_5 N 0.08464(11) 0.05671(11) 0.3424(5)
Co1_4 Co 0.046482(18) 0.082575(19) 0.37096(8)
N9_4 N 0.06665(11) 0.12387(12) 0.3583(4)
N10_4 N 0.06499(11) 0.08831(11) 0.5478(5)
N11_5 N 0.02795(11) 0.07883(12) 0.1942(5)
N12_5 N 0.00744(11) 0.10623(11) 0.3872(4)
H7_5 H 0.0218 0.9588 0.0121
O19_5 O 0.15455(13) 0.93241(13) 0.0278(5)
Sm3_5 Sm 0.099395(7) 0.928601(7) 0.11067(3)
H1_5 H 0.1305(13) 0.955(3) 0.323(2)
C1_5 C 0.04355(16) 0.86536(13) 0.8534(6)
C2_5 C 0.02627(14) 0.86844(14) 0.7378(5)
C3_5 C 0.02900(15) 0.84753(15) 0.6508(6)
H2_5 H 0.0412 0.8317 0.6635
C4_5 C 0.01385(14) 0.84985(15) 0.5449(6)
H3_5 H 0.0158 0.8358 0.4854
C6_5 C 0.00800(12) 0.89189(13) 0.7148(5)
C7_5 C 0.00070(13) 0.91545(13) 0.8027(5)
C10_5 C 0.00928(15) 0.94909(16) 0.9603(6)
C11_5 C 0.02043(13) 0.93042(13) 0.8745(5)
C12_5 C 0.05265(13) 0.92943(13) 0.8558(5)
C13_5 C 0.06274(14) 0.97251(14) 0.2396(6)
C14_5 C 0.04149(14) 0.99247(14) 0.3030(6)
C15_5 C 0.01198(14) 0.98577(15) 0.3008(6)
H8_5 H 0.0058 0.9680 0.2699
C24_5 C 0.09596(16) 0.98248(15) 0.4836(6)
C25_5 C 0.14648(19) 0.95365(18) 0.9676(7)
C26_5 C 0.16806(19) 0.97032(19) 0.8870(7)
C27_5 C 0.1626(2) 0.9998(2) 0.8642(8)
C30_5 C 0.19277(17) 0.9591(2) 0.8402(7)
C31_5 C 0.19937(16) 0.9275(2) 0.8445(7)
C32_5 C 0.2318(2) 0.8904(2) 0.8897(8)
H17_5 H 0.2492 0.8845 0.9244
C33_5 C 0.21585(19) 0.8697(2) 0.8381(8)
H18_5 H 0.2222 0.8505 0.8348
C34_5 C 0.18985(17) 0.8779(2) 0.7903(7)
H19_5 H 0.1776 0.8640 0.7573
C35_5 C 0.18140(15) 0.90748(18) 0.7907(6)
C36_5 C 0.15406(15) 0.91554(15) 0.7281(6)
C37_5 C 0.12420(13) 0.88732(13) 0.3491(5)
C38_5 C 0.14287(13) 0.86059(13) 0.3682(5)
C39_5 C 0.16527(14) 0.86161(15) 0.4512(6)
H20_5 H 0.1669 0.8775 0.5023
C40_5 C 0.18490(16) 0.83945(17) 0.4583(6)
H21_5 H 0.1992 0.8395 0.5172
C41_5 C 0.18327(15) 0.81732(16) 0.3779(6)
H22_5 H 0.1977 0.8032 0.3786
C42_5 C 0.14082(13) 0.83569(13) 0.2967(5)
C43_5 C 0.11670(13) 0.82877(13) 0.2113(5)
C44_5 C 0.10636(15) 0.80903(14) 0.0265(6)
C45_5 C 0.07736(15) 0.81274(15) 0.0415(6)
C46_5 C 0.06776(15) 0.82467(14) 0.1466(6)
H25_5 H 0.0479 0.8271 0.1594
C47_5 C 0.08742(13) 0.83320(13) 0.2342(5)
C48_5 C 0.07553(13) 0.84606(14) 0.3501(6)
N3_5 N 0.22525(15) 0.9192(2) 0.8969(6)
N4_5 N 0.21351(16) 0.97501(18) 0.7873(7)
O1_5 O 0.03050(10) 0.86962(10) 0.9495(4)
O2_5 O 0.06972(10) 0.85885(10) 0.8424(4)
O3_5 O 0.06832(10) 0.93539(10) 0.9441(4)
O4_5 O 0.06132(9) 0.92406(10) 0.7522(4)
O5_5 O 0.05679(9) 0.91629(10) 0.4799(4)
H26_5 H 0.0579 0.8990 0.4497
H27_5 H 0.0410 0.9175 0.5218
O6_5 O 0.10791(12) 0.96786(12) 0.7428(5)
H28_5 H 0.1240 0.9774 0.7221
H29_5 H 0.0932 0.9805 0.7399
O7_5 O 0.09269(11) 0.87382(10) 0.6298(4)
H30_5 H 0.0824 0.8700 0.6940
H31_5 H 0.0835 0.8667 0.5677
O8_5 O 0.13032(11) 0.90736(13) 0.7726(4)
O9_5 O 0.15479(11) 0.92910(12) 0.6327(4)
O10_5 O 0.07286(11) 0.97778(11) 0.5351(5)
O11_5 O 0.11665(11) 0.96412(10) 0.4785(4)
O12_5 O 0.11952(10) 0.90303(10) 0.4370(4)
O13_5 O 0.11595(10) 0.89176(9) 0.2438(4)
O14_5 O 0.05755(10) 0.89647(11) 0.1352(4)
H32_5 H 0.0548 0.8862 0.0699
H33_5 H 0.0603 0.8843 0.1948
O16_5 O 0.07470(11) 0.98119(11) 0.1470(4)
O17_5 O 0.06670(11) 0.94715(10) 0.2781(4)
O18_5 O 0.13246(11) 0.95245(11) 0.2486(5)
H36_5 H 0.1508 0.9474 0.2343
O20_5 O 0.12191(12) 0.96317(13) 0.9726(5)
O21_5 O 0.08562(10) 0.83608(11) 0.4454(4)
O22_5 O 0.05726(10) 0.86576(10) 0.3395(4)
Sm1_5 Sm 0.099429(7) 0.925799(7) 0.60766(3)
H23_5 H 0.1129 0.8007 0.9556
H24_5 H 0.0643 0.8073 0.9820
O15_5 O 0.11154(10) 0.88677(10) 0.9825(4)
H34_5 H 0.0959 0.8753 0.9678
H35_5 H 0.1185 0.8925 0.9104
C5_5 C 0.99602(14) 0.87314(15) 0.5295(5)
H4_5 H 0.9858 0.8748 0.4581
C8_5 C 0.96211(15) 0.93970(17) 0.8877(6)
H5_5 H 0.9422 0.9435 0.8895
C9_5 C 0.97943(15) 0.95345(17) 0.9693(7)
N5_5 N 0.97205(11) 0.92117(12) 0.8058(5)
N6_5 N 0.99256(11) 0.89377(11) 0.6128(4)
Co3_5 Co 0.953518(18) 0.917425(19) 0.62904(8)
C1_6 C 0.88464(13) 0.29355(16) 0.1034(6)
C7_6 C 0.83455(13) 0.25070(13) 0.0527(5)
C8_6 C 0.81030(17) 0.21211(15) 0.1377(6)
H5_6 H 0.8065 0.1922 0.1395
C9_6 C 0.79655(17) 0.22943(15) 0.2193(7)
H6_5 H 0.7847 0.2216 0.2786
C10_6 C 0.80091(16) 0.25928(15) 0.2103(6)
H7_6 H 0.7912 0.2718 0.2621
C11_6 C 0.81958(13) 0.27043(13) 0.1245(5)
C12_6 C 0.82057(13) 0.30265(13) 0.1058(5)
C25_6 C 0.79635(18) 0.39648(19) 0.2176(7)
C26_6 C 0.77968(19) 0.41806(19) 0.1370(7)
C27_6 C 0.7502(2) 0.4126(2) 0.1142(8)
H14_6 H 0.7418 0.3957 0.1437
C28_6 C 0.7331(2) 0.4319(2) 0.0487(9)
H15_6 H 0.7140 0.4277 0.0265
C29_6 C 0.7470(2) 0.4578(2) 0.0192(9)
C30_6 C 0.7909(2) 0.44277(17) 0.0902(7)
C31_6 C 0.8225(2) 0.44937(16) 0.0945(7)
C32_6 C 0.8596(2) 0.4818(2) 0.1397(8)
H17_6 H 0.8655 0.4992 0.1744
C33_6 C 0.8803(2) 0.46585(19) 0.0881(8)
H18_6 H 0.8995 0.4722 0.0848
C34_6 C 0.8721(2) 0.43985(17) 0.0403(7)
H19_6 H 0.8860 0.4276 0.0073
C35_6 C 0.84252(18) 0.43140(15) 0.0407(6)
N3_6 N 0.8308(2) 0.47525(15) 0.1469(6)
N4_6 N 0.77499(18) 0.46351(16) 0.0373(7)
N5_6 N 0.82883(12) 0.22205(11) 0.0558(5)
O1_6 O 0.88038(10) 0.28050(10) 0.1995(4)
O2_6 O 0.89115(10) 0.31972(10) 0.0924(4)
O3_6 O 0.81461(10) 0.31832(10) 0.1941(4)
O4_6 O 0.82594(10) 0.31132(9) 0.0022(4)
O8_6 O 0.84264(13) 0.38032(11) 0.0226(4)
O19_6 O 0.81759(13) 0.40455(13) 0.2778(5)
O20_6 O 0.78683(13) 0.37191(12) 0.2226(5)
Sm3_6 Sm 0.821399(7) 0.349395(7) 0.36067(3)
H1_6 H 0.795(3) 0.3805(13) 0.573(2)
C2_6 C 0.88156(14) 0.27627(14) 0.9878(5)
C3_6 C 0.90247(15) 0.27900(15) 0.9008(6)
H2_6 H 0.9183 0.2912 0.9135
C4_6 C 0.90015(15) 0.26385(14) 0.7949(6)
H3_6 H 0.9142 0.2658 0.7354
C5_6 C 0.87686(15) 0.24602(14) 0.7795(5)
H4_6 H 0.8752 0.2358 0.7081
C6_6 C 0.85811(13) 0.25800(12) 0.9648(5)
C13_6 C 0.77749(14) 0.31274(14) 0.4896(6)
C14_6 C 0.75753(14) 0.29149(14) 0.5530(6)
C15_6 C 0.76423(15) 0.26198(14) 0.5508(6)
H8_6 H 0.7820 0.2558 0.5199
C16_5 C 0.74487(15) 0.24207(15) 0.5937(6)
H9_5 H 0.7495 0.2224 0.5948
C17_6 C 0.71852(15) 0.25140(14) 0.6350(6)
H10_5 H 0.7050 0.2377 0.6604
C18_6 C 0.73129(14) 0.29953(14) 0.6050(5)
C19_6 C 0.72144(14) 0.32973(14) 0.6232(6)
C20_6 C 0.68248(15) 0.36132(14) 0.6023(6)
H11_6 H 0.6633 0.3646 0.5793
C21_6 C 0.69877(16) 0.38432(15) 0.6456(7)
H12_6 H 0.6909 0.4029 0.6495
C22_6 C 0.72644(15) 0.37915(14) 0.6825(7)
H13_6 H 0.7374 0.3943 0.7137
C23_6 C 0.73853(14) 0.35178(14) 0.6743(6)
C24_6 C 0.76752(15) 0.34596(16) 0.7336(6)
H16_6 H 0.7358 0.4723 0.9840
C36_6 C 0.83446(15) 0.40406(15) 0.9781(6)
C37_6 C 0.86268(13) 0.37420(13) 0.5991(5)
C38_6 C 0.88941(13) 0.39287(13) 0.6182(5)
C39_6 C 0.88839(15) 0.41527(14) 0.7012(6)
H20_6 H 0.8725 0.4169 0.7523
C40_6 C 0.91055(17) 0.43490(16) 0.7083(6)
H21_6 H 0.9105 0.4492 0.7672
C41_6 C 0.93268(16) 0.43327(15) 0.6279(6)
H22_6 H 0.9468 0.4477 0.6286
C42_6 C 0.91431(13) 0.39082(13) 0.5467(5)
C43_6 C 0.92123(13) 0.36670(13) 0.4613(5)
C44_6 C 0.94097(14) 0.35636(15) 0.2765(6)
H23_6 H 0.9493 0.3629 0.2056
C45_6 C 0.93726(15) 0.32736(15) 0.2915(6)
H24_6 H 0.9427 0.3143 0.2320
C46_6 C 0.92533(14) 0.31776(15) 0.3966(6)
H25_6 H 0.9229 0.2979 0.4094
C47_6 C 0.91680(13) 0.33742(13) 0.4842(5)
C48_6 C 0.90394(14) 0.32553(13) 0.6001(6)
N1_4 N 0.93335(11) 0.37613(12) 0.3583(4)
N2_4 N 0.93501(11) 0.41169(11) 0.5478(5)
N6_6 N 0.85623(11) 0.24256(11) 0.8628(4)
N7_6 N 0.71150(12) 0.27956(11) 0.6401(5)
N8_6 N 0.69329(11) 0.33464(11) 0.5924(5)
O5_6 O 0.83371(10) 0.30679(9) 0.7299(4)
H26_6 H 0.8510 0.3079 0.6997
H27_6 H 0.8325 0.2910 0.7718
O6_6 O 0.78214(12) 0.35791(12) 0.9928(5)
H28_6 H 0.7726 0.3740 0.9721
H29_6 H 0.7695 0.3432 0.9899
O7_6 O 0.87618(10) 0.34269(11) 0.8798(4)
H30_6 H 0.8800 0.3324 0.9440
H31_6 H 0.8833 0.3335 0.8177
O9_6 O 0.82090(12) 0.40479(11) 0.8827(4)
O10_6 O 0.77222(11) 0.32286(11) 0.7851(5)
O11_6 O 0.78588(10) 0.36665(11) 0.7285(4)
O12_6 O 0.84697(10) 0.36952(10) 0.6870(4)
O13_6 O 0.85824(9) 0.36595(10) 0.4938(4)
O14_6 O 0.85353(11) 0.30755(10) 0.3852(4)
H32_6 H 0.8638 0.3048 0.3199
H33_6 H 0.8657 0.3103 0.4448
O15_6 O 0.86323(10) 0.36154(10) 0.2325(4)
H34_6 H 0.8747 0.3459 0.2178
H35_6 H 0.8575 0.3685 0.1604
O16_6 O 0.76881(11) 0.32470(11) 0.3970(4)
O17_6 O 0.80285(10) 0.31670(11) 0.5281(4)
O18_6 O 0.79755(11) 0.38246(11) 0.4986(5)
H36_6 H 0.8026 0.4008 0.4843
O21_6 O 0.91392(11) 0.33562(10) 0.6954(4)
O22_6 O 0.88424(10) 0.30726(10) 0.5895(4)
Sm1_6 Sm 0.824201(7) 0.349429(7) 0.85766(3)
N11_6 N 0.67117(12) 0.27795(11) 0.4442(5)
N12_6 N 0.64377(11) 0.25744(11) 0.6372(4)
Co2_4 Co 0.953518(18) 0.417425(19) 0.37096(8)
Co3_6 Co 0.832575(19) 0.203518(18) 0.87904(8)
C5_7 C 0.00398(14) 0.62686(15) 0.5295(5)
H4_7 H 0.0142 0.6252 0.4581
C8_7 C 0.03789(15) 0.56030(17) 0.8877(6)
H5_7 H 0.0578 0.5565 0.8895
C9_7 C 0.02057(15) 0.54655(17) 0.9693(7)
C16_6 C 0.00793(15) 0.49487(15) 0.3437(6)
H9_6 H 0.0276 0.4995 0.3448
H10_6 H 0.0123 0.4550 0.4104
N5_7 N 0.02795(11) 0.57883(12) 0.8058(5)
N6_7 N 0.00744(11) 0.60623(11) 0.6128(4)
Co3_7 Co 0.046482(18) 0.582575(19) 0.62904(8)
H7_7 H 0.9782 0.5412 0.0121
O19_7 O 0.84545(13) 0.56759(13) 0.0278(5)
Sm3_7 Sm 0.900605(7) 0.571399(7) 0.11067(3)
H1_7 H 0.8695(13) 0.545(3) 0.323(2)
C1_7 C 0.95645(16) 0.63464(13) 0.8534(6)
C2_7 C 0.97373(14) 0.63156(14) 0.7378(5)
C3_7 C 0.97100(15) 0.65247(15) 0.6508(6)
H2_7 H 0.9588 0.6683 0.6635
C4_7 C 0.98615(14) 0.65015(15) 0.5449(6)
H3_7 H 0.9842 0.6642 0.4854
C6_7 C 0.99200(12) 0.60811(13) 0.7148(5)
C7_7 C 0.99930(13) 0.58455(13) 0.8027(5)
C10_7 C 0.99072(15) 0.55091(16) 0.9603(6)
C11_7 C 0.97957(13) 0.56958(13) 0.8745(5)
C12_7 C 0.94735(13) 0.57057(13) 0.8558(5)
C13_7 C 0.93726(14) 0.52749(14) 0.2396(6)
C14_7 C 0.95851(14) 0.50753(14) 0.3030(6)
C15_7 C 0.98802(14) 0.51423(15) 0.3008(6)
H8_7 H 0.9942 0.5320 0.2699
C17_7 C 0.99860(14) 0.46852(15) 0.3850(6)
C18_7 C 0.95047(14) 0.48129(14) 0.3550(5)
C19_7 C 0.92027(14) 0.47144(14) 0.3732(6)
C20_7 C 0.88868(14) 0.43248(15) 0.3523(6)
H11_7 H 0.8854 0.4133 0.3293
C21_7 C 0.86568(15) 0.44877(16) 0.3956(7)
H12_7 H 0.8471 0.4409 0.3995
C22_7 C 0.87085(14) 0.47644(15) 0.4325(7)
H13_7 H 0.8557 0.4874 0.4637
C23_7 C 0.89822(14) 0.48853(14) 0.4243(6)
C24_7 C 0.90404(16) 0.51752(15) 0.4836(6)
C25_7 C 0.85352(19) 0.54635(18) 0.9676(7)
C26_7 C 0.83194(19) 0.52968(19) 0.8870(7)
C27_7 C 0.8374(2) 0.5002(2) 0.8642(8)
H14_7 H 0.8543 0.4918 0.8937
C28_7 C 0.8181(2) 0.4831(2) 0.7987(9)
H15_7 H 0.8223 0.4640 0.7765
C29_7 C 0.7922(2) 0.4970(2) 0.7692(9)
H16_7 H 0.7777 0.4858 0.7340
C30_7 C 0.80723(17) 0.5409(2) 0.8402(7)
C31_7 C 0.80063(16) 0.5725(2) 0.8445(7)
C32_7 C 0.7682(2) 0.6096(2) 0.8897(8)
H17_7 H 0.7508 0.6155 0.9244
C33_7 C 0.78415(19) 0.6303(2) 0.8381(8)
H18_7 H 0.7778 0.6495 0.8348
C34_7 C 0.81015(17) 0.6221(2) 0.7903(7)
H19_7 H 0.8224 0.6360 0.7573
C35_7 C 0.81860(15) 0.59252(18) 0.7907(6)
C36_7 C 0.84594(15) 0.58446(15) 0.7281(6)
C37_7 C 0.87580(13) 0.61268(13) 0.3491(5)
C38_7 C 0.85713(13) 0.63941(13) 0.3682(5)
C39_7 C 0.83473(14) 0.63839(15) 0.4512(6)
H20_7 H 0.8331 0.6225 0.5023
C40_7 C 0.81510(16) 0.66055(17) 0.4583(6)
H21_7 H 0.8008 0.6605 0.5172
C41_7 C 0.81673(15) 0.68268(16) 0.3779(6)
H22_7 H 0.8023 0.6968 0.3786
C42_7 C 0.85918(13) 0.66431(13) 0.2967(5)
C43_7 C 0.88330(13) 0.67123(13) 0.2113(5)
C44_7 C 0.89364(15) 0.69097(14) 0.0265(6)
C45_7 C 0.92264(15) 0.68726(15) 0.0415(6)
C46_7 C 0.93224(15) 0.67533(14) 0.1466(6)
H25_7 H 0.9521 0.6729 0.1594
C47_7 C 0.91258(13) 0.66680(13) 0.2342(5)
C48_7 C 0.92447(13) 0.65394(14) 0.3501(6)
N3_7 N 0.77475(15) 0.5808(2) 0.8969(6)
N4_7 N 0.78649(16) 0.52499(18) 0.7873(7)
N7_7 N 0.97044(11) 0.46150(12) 0.3901(5)
N8_7 N 0.91536(11) 0.44329(11) 0.3424(5)
O1_7 O 0.96950(10) 0.63038(10) 0.9495(4)
O2_7 O 0.93028(10) 0.64115(10) 0.8424(4)
O3_7 O 0.93168(10) 0.56461(10) 0.9441(4)
O4_7 O 0.93868(9) 0.57594(10) 0.7522(4)
O5_7 O 0.94321(9) 0.58371(10) 0.4799(4)
H26_7 H 0.9421 0.6010 0.4497
H27_7 H 0.9590 0.5825 0.5218
O6_7 O 0.89209(12) 0.53214(12) 0.7428(5)
H28_7 H 0.8760 0.5226 0.7221
H29_7 H 0.9068 0.5195 0.7399
O7_7 O 0.90731(11) 0.62618(10) 0.6298(4)
H30_7 H 0.9176 0.6300 0.6940
H31_7 H 0.9165 0.6333 0.5677
O8_7 O 0.86968(11) 0.59264(13) 0.7726(4)
O9_7 O 0.84521(11) 0.57090(12) 0.6327(4)
O10_7 O 0.92714(11) 0.52222(11) 0.5351(5)
O11_7 O 0.88335(11) 0.53588(10) 0.4785(4)
O12_7 O 0.88048(10) 0.59697(10) 0.4370(4)
O13_7 O 0.88405(10) 0.60824(9) 0.2438(4)
O14_7 O 0.94245(10) 0.60353(11) 0.1352(4)
H32_7 H 0.9452 0.6138 0.0699
H33_7 H 0.9397 0.6157 0.1948
O16_7 O 0.92530(11) 0.51881(11) 0.1470(4)
O17_7 O 0.93330(11) 0.55285(10) 0.2781(4)
O18_7 O 0.86754(11) 0.54755(11) 0.2486(5)
H36_7 H 0.8492 0.5526 0.2343
O20_7 O 0.87809(12) 0.53683(13) 0.9726(5)
O21_7 O 0.91438(10) 0.66392(11) 0.4454(4)
O22_7 O 0.94274(10) 0.63424(10) 0.3395(4)
Sm1_7 Sm 0.900571(7) 0.574201(7) 0.60766(3)
N11_7 N 0.97205(11) 0.42117(12) 0.1942(5)
N12_7 N 0.99256(11) 0.39377(11) 0.3872(4)
H23_7 H 0.8871 0.6993 0.9556
H24_7 H 0.9357 0.6927 0.9820
O15_7 O 0.88846(10) 0.61323(10) 0.9825(4)
H34_7 H 0.9041 0.6247 0.9678
H35_7 H 0.8815 0.6075 0.9104
C1_8 C 0.11536(13) 0.20645(16) 0.1034(6)
C7_8 C 0.16545(13) 0.24930(13) 0.0527(5)
C8_8 C 0.18970(17) 0.28789(15) 0.1377(6)
H5_8 H 0.1935 0.3078 0.1395
C9_8 C 0.20345(17) 0.27057(15) 0.2193(7)
H6_6 H 0.2153 0.2784 0.2786
C10_8 C 0.19909(16) 0.24072(15) 0.2103(6)
H7_8 H 0.2088 0.2282 0.2621
C11_8 C 0.18042(13) 0.22957(13) 0.1245(5)
C12_8 C 0.17943(13) 0.19735(13) 0.1058(5)
C25_8 C 0.20365(18) 0.10352(19) 0.2176(7)
C26_8 C 0.22032(19) 0.08194(19) 0.1370(7)
C27_8 C 0.2498(2) 0.0874(2) 0.1142(8)
H14_8 H 0.2582 0.1043 0.1437
C28_8 C 0.2669(2) 0.0681(2) 0.0487(9)
H15_8 H 0.2860 0.0723 0.0265
C29_8 C 0.2530(2) 0.0422(2) 0.0192(9)
C30_8 C 0.2091(2) 0.05723(17) 0.0902(7)
C31_8 C 0.1775(2) 0.05063(16) 0.0945(7)
C32_8 C 0.1404(2) 0.0182(2) 0.1397(8)
H17_8 H 0.1345 0.0008 0.1744
C33_8 C 0.1197(2) 0.03415(19) 0.0881(8)
H18_8 H 0.1005 0.0278 0.0848
C34_8 C 0.1279(2) 0.06015(17) 0.0403(7)
H19_8 H 0.1140 0.0724 0.0073
C35_8 C 0.15748(18) 0.06860(15) 0.0407(6)
N3_8 N 0.1692(2) 0.02475(15) 0.1469(6)
N4_8 N 0.22501(18) 0.03649(16) 0.0373(7)
N5_8 N 0.17117(12) 0.27795(11) 0.0558(5)
O1_8 O 0.11962(10) 0.21950(10) 0.1995(4)
O2_8 O 0.10885(10) 0.18028(10) 0.0924(4)
O3_8 O 0.18539(10) 0.18168(10) 0.1941(4)
O4_8 O 0.17406(10) 0.18868(9) 0.0022(4)
O8_8 O 0.15736(13) 0.11968(11) 0.0226(4)
O19_8 O 0.18241(13) 0.09545(13) 0.2778(5)
O20_8 O 0.21317(13) 0.12809(12) 0.2226(5)
Sm3_8 Sm 0.178601(7) 0.150605(7) 0.36067(3)
H1_8 H 0.205(3) 0.1195(13) 0.573(2)
C2_8 C 0.11844(14) 0.22373(14) 0.9878(5)
C3_8 C 0.09753(15) 0.22100(15) 0.9008(6)
H2_8 H 0.0817 0.2088 0.9135
C4_8 C 0.09985(15) 0.23615(14) 0.7949(6)
H3_8 H 0.0858 0.2342 0.7354
C5_8 C 0.12314(15) 0.25398(14) 0.7795(5)
H4_8 H 0.1248 0.2642 0.7081
C6_8 C 0.14189(13) 0.24200(12) 0.9648(5)
C13_8 C 0.22251(14) 0.18726(14) 0.4896(6)
C14_8 C 0.24247(14) 0.20851(14) 0.5530(6)
C15_8 C 0.23577(15) 0.23802(14) 0.5508(6)
H8_8 H 0.2180 0.2442 0.5199
C16_7 C 0.25513(15) 0.25793(15) 0.5937(6)
H9_7 H 0.2505 0.2776 0.5948
C17_8 C 0.28148(15) 0.24860(14) 0.6350(6)
H10_7 H 0.2950 0.2623 0.6604
C18_8 C 0.26871(14) 0.20047(14) 0.6050(5)
C19_8 C 0.27856(14) 0.17027(14) 0.6232(6)
C20_8 C 0.31752(15) 0.13868(14) 0.6023(6)
H11_8 H 0.3367 0.1354 0.5793
C21_8 C 0.30123(16) 0.11568(15) 0.6456(7)
H12_8 H 0.3091 0.0971 0.6495
C22_8 C 0.27356(15) 0.12085(14) 0.6825(7)
H13_8 H 0.2626 0.1057 0.7137
C23_8 C 0.26147(14) 0.14822(14) 0.6743(6)
C24_8 C 0.23248(15) 0.15404(16) 0.7336(6)
H16_8 H 0.2642 0.0277 0.9840
C36_8 C 0.16554(15) 0.09594(15) 0.9781(6)
C37_8 C 0.13732(13) 0.12580(13) 0.5991(5)
C38_8 C 0.11059(13) 0.10713(13) 0.6182(5)
C39_8 C 0.11161(15) 0.08473(14) 0.7012(6)
H20_8 H 0.1275 0.0831 0.7523
C40_8 C 0.08945(17) 0.06510(16) 0.7083(6)
H21_8 H 0.0895 0.0508 0.7672
C41_8 C 0.06732(16) 0.06673(15) 0.6279(6)
H22_8 H 0.0532 0.0523 0.6286
C42_8 C 0.08569(13) 0.10918(13) 0.5467(5)
C43_8 C 0.07877(13) 0.13330(13) 0.4613(5)
C44_8 C 0.05903(14) 0.14364(15) 0.2765(6)
H23_8 H 0.0507 0.1371 0.2056
C45_8 C 0.06274(15) 0.17264(15) 0.2915(6)
H24_8 H 0.0573 0.1857 0.2320
C46_8 C 0.07467(14) 0.18224(15) 0.3966(6)
H25_8 H 0.0771 0.2021 0.4094
C47_8 C 0.08320(13) 0.16258(13) 0.4842(5)
C48_8 C 0.09606(14) 0.17447(13) 0.6001(6)
N6_8 N 0.14377(11) 0.25744(11) 0.8628(4)
N7_8 N 0.28850(12) 0.22044(11) 0.6401(5)
N8_8 N 0.30671(11) 0.16536(11) 0.5924(5)
O5_8 O 0.16629(10) 0.19321(9) 0.7299(4)
H26_8 H 0.1490 0.1921 0.6997
H27_8 H 0.1675 0.2090 0.7718
O6_8 O 0.21786(12) 0.14209(12) 0.9928(5)
H28_8 H 0.2274 0.1260 0.9721
H29_8 H 0.2305 0.1568 0.9899
O7_8 O 0.12382(10) 0.15731(11) 0.8798(4)
H30_8 H 0.1200 0.1676 0.9440
H31_8 H 0.1167 0.1665 0.8177
O9_8 O 0.17910(12) 0.09521(11) 0.8827(4)
O10_8 O 0.22778(11) 0.17714(11) 0.7851(5)
O11_8 O 0.21412(10) 0.13335(11) 0.7285(4)
O12_8 O 0.15303(10) 0.13048(10) 0.6870(4)
O13_8 O 0.14176(9) 0.13405(10) 0.4938(4)
O14_8 O 0.14647(11) 0.19245(10) 0.3852(4)
H32_8 H 0.1362 0.1952 0.3199
H33_8 H 0.1343 0.1897 0.4448
O15_8 O 0.13677(10) 0.13846(10) 0.2325(4)
H34_8 H 0.1253 0.1541 0.2178
H35_8 H 0.1425 0.1315 0.1604
O16_8 O 0.23119(11) 0.17530(11) 0.3970(4)
O17_8 O 0.19715(10) 0.18330(11) 0.5281(4)
O18_8 O 0.20245(11) 0.11754(11) 0.4986(5)
H36_8 H 0.1974 0.0992 0.4843
O21_8 O 0.08608(11) 0.16438(10) 0.6954(4)
O22_8 O 0.11576(10) 0.19274(10) 0.5895(4)
Sm1_8 Sm 0.175799(7) 0.150571(7) 0.85766(3)
N11_8 N 0.32883(12) 0.22205(11) 0.4442(5)
N12_8 N 0.35623(11) 0.24256(11) 0.6372(4)
Co3_8 Co 0.167425(19) 0.296482(18) 0.87904(8)
H1_9 H 0.3695(13) 0.545(3) 0.177(2)
H3_9 H 0.4842 0.6642 0.0146
H4_9 H 0.5142 0.6252 0.0419
C13_9 C 0.43726(14) 0.52749(14) 0.2604(6)
C14_9 C 0.45851(14) 0.50753(14) 0.1970(6)
C15_9 C 0.48802(14) 0.51423(15) 0.1992(6)
H8_9 H 0.4942 0.5320 0.2301
C16_8 C 0.50793(15) 0.49487(15) 0.1563(6)
H9_8 H 0.5276 0.4995 0.1552
C17_9 C 0.49860(14) 0.46852(15) 0.1150(6)
H10_8 H 0.5123 0.4550 0.0896
C18_9 C 0.45047(14) 0.48129(14) 0.1450(5)
C19_9 C 0.42027(14) 0.47144(14) 0.1268(6)
C20_9 C 0.38868(14) 0.43248(15) 0.1477(6)
H11_9 H 0.3854 0.4133 0.1707
C21_9 C 0.36568(15) 0.44877(16) 0.1044(7)
H12_9 H 0.3471 0.4409 0.1005
C22_9 C 0.37085(14) 0.47644(15) 0.0675(7)
H13_9 H 0.3557 0.4874 0.0363
C23_9 C 0.39822(14) 0.48853(14) 0.0757(6)
C24_9 C 0.40404(16) 0.51752(15) 0.0164(6)
C37_9 C 0.37580(13) 0.61268(13) 0.1509(5)
C38_9 C 0.35713(13) 0.63941(13) 0.1318(5)
C39_9 C 0.33473(14) 0.63839(15) 0.0488(6)
C40_9 C 0.31510(16) 0.66055(17) 0.0417(6)
C41_9 C 0.31673(15) 0.68268(16) 0.1221(6)
H22_9 H 0.3023 0.6968 0.1214
C42_9 C 0.35918(13) 0.66431(13) 0.2033(5)
C43_9 C 0.38330(13) 0.67123(13) 0.2887(5)
C44_9 C 0.39364(15) 0.69097(14) 0.4735(6)
H23_9 H 0.3871 0.6993 0.5444
C45_9 C 0.42264(15) 0.68726(15) 0.4585(6)
H24_9 H 0.4357 0.6927 0.5180
C46_9 C 0.43224(15) 0.67533(14) 0.3534(6)
H25_9 H 0.4521 0.6729 0.3406
C47_9 C 0.41258(13) 0.66680(13) 0.2658(5)
C48_9 C 0.42447(13) 0.65394(14) 0.1499(6)
N1_5 N 0.37387(12) 0.68335(11) 0.3917(4)
N2_5 N 0.33831(11) 0.68501(11) 0.2022(5)
N7_9 N 0.47044(11) 0.46150(12) 0.1099(5)
N8_9 N 0.41536(11) 0.44329(11) 0.1576(5)
O5_9 O 0.44321(9) 0.58371(10) 0.0201(4)
H26_9 H 0.4421 0.6010 0.0503
O11_9 O 0.38335(11) 0.53588(10) 0.0215(4)
O12_9 O 0.38048(10) 0.59697(10) 0.0630(4)
O13_9 O 0.38405(10) 0.60824(9) 0.2562(4)
O14_9 O 0.44245(10) 0.60353(11) 0.3648(4)
H32_9 H 0.4452 0.6138 0.4301
H33_9 H 0.4397 0.6157 0.3052
O15_9 O 0.38846(10) 0.61323(10) 0.5175(4)
H34_9 H 0.4041 0.6247 0.5322
H35_9 H 0.3815 0.6075 0.5896
O16_9 O 0.42530(11) 0.51881(11) 0.3530(4)
O17_9 O 0.43330(11) 0.55285(10) 0.2219(4)
O18_9 O 0.36754(11) 0.54755(11) 0.2514(5)
H36_9 H 0.3492 0.5526 0.2657
O21_9 O 0.41438(10) 0.66392(11) 0.0546(4)
O22_9 O 0.44274(10) 0.63424(10) 0.1605(4)
Sm2 Sm 0.400605(7) 0.571399(7) 0.38933(3)
N9_5 N 0.43335(11) 0.37613(12) 0.1417(4)
O23 O 0.43168(10) 0.56461(10) 0.5559(4)
O24 O 0.34545(13) 0.56759(13) 0.4722(5)
O25 O 0.37809(12) 0.53683(13) 0.5274(5)
C1_9 C 0.45645(16) 0.63464(13) 0.6466(6)
C2_9 C 0.47373(14) 0.63156(14) 0.7622(5)
C3_9 C 0.47100(15) 0.65247(15) 0.8492(6)
H2_9 H 0.4588 0.6683 0.8365
C4_9 C 0.48615(14) 0.65015(15) 0.9551(6)
C5_9 C 0.50398(14) 0.62686(15) 0.9705(5)
C6_9 C 0.49200(12) 0.60811(13) 0.7852(5)
C7_9 C 0.49930(13) 0.58455(13) 0.6973(5)
C8_9 C 0.53789(15) 0.56030(17) 0.6123(6)
H5_9 H 0.5578 0.5565 0.6105
C9_9 C 0.52057(15) 0.54655(17) 0.5307(7)
H6_7 H 0.5284 0.5347 0.4714
C10_9 C 0.49072(15) 0.55091(16) 0.5397(6)
H7_9 H 0.4782 0.5412 0.4879
C11_9 C 0.47957(13) 0.56958(13) 0.6255(5)
C12_9 C 0.44735(13) 0.57057(13) 0.6442(5)
C25_9 C 0.35352(19) 0.54635(18) 0.5324(7)
C26_9 C 0.33194(19) 0.52968(19) 0.6130(7)
C27_9 C 0.3374(2) 0.5002(2) 0.6358(8)
H14_9 H 0.3543 0.4918 0.6063
C28_9 C 0.3181(2) 0.4831(2) 0.7013(9)
H15_9 H 0.3223 0.4640 0.7235
C29_9 C 0.2922(2) 0.4970(2) 0.7308(9)
H16_9 H 0.2777 0.4858 0.7660
C30_9 C 0.30723(17) 0.5409(2) 0.6598(7)
C31_9 C 0.30063(16) 0.5725(2) 0.6555(7)
C32_9 C 0.2682(2) 0.6096(2) 0.6103(8)
H17_9 H 0.2508 0.6155 0.5756
C33_9 C 0.28415(19) 0.6303(2) 0.6619(8)
H18_9 H 0.2778 0.6495 0.6652
C34_9 C 0.31015(17) 0.6221(2) 0.7097(7)
H19_9 H 0.3224 0.6360 0.7427
C35_9 C 0.31860(15) 0.59252(18) 0.7093(6)
C36_9 C 0.34594(15) 0.58446(15) 0.7719(6)
H20_9 H 0.3331 0.6225 0.9977
H21_9 H 0.3008 0.6605 0.9828
N3_9 N 0.27475(15) 0.5808(2) 0.6031(6)
N4_9 N 0.28649(16) 0.52499(18) 0.7127(7)
O1_9 O 0.46950(10) 0.63038(10) 0.5505(4)
O2_9 O 0.43028(10) 0.64115(10) 0.6576(4)
O4_9 O 0.43868(9) 0.57594(10) 0.7478(4)
H27_9 H 0.4590 0.5825 0.9782
O6_9 O 0.39209(12) 0.53214(12) 0.7572(5)
H28_9 H 0.3760 0.5226 0.7779
H29_9 H 0.4068 0.5195 0.7601
O7_9 O 0.40731(11) 0.62618(10) 0.8702(4)
H30_9 H 0.4176 0.6300 0.8060
H31_9 H 0.4165 0.6333 0.9323
O8_9 O 0.36968(11) 0.59264(13) 0.7274(4)
O9_9 O 0.34521(11) 0.57090(12) 0.8673(4)
O10_9 O 0.42714(11) 0.52222(11) 0.9649(5)
Sm1_9 Sm 0.400571(7) 0.574201(7) 0.89234(3)
N10_5 N 0.43501(11) 0.41169(11) 0.9522(5)
C13_10 C 0.72251(14) 0.18726(14) 0.0104(6)
C43_10 C 0.57877(13) 0.13330(13) 0.0387(5)
C44_10 C 0.55903(14) 0.14364(15) 0.2235(6)
H23_10 H 0.5507 0.1371 0.2944
C45_10 C 0.56274(15) 0.17264(15) 0.2085(6)
H24_10 H 0.5573 0.1857 0.2680
C46_10 C 0.57467(14) 0.18224(15) 0.1034(6)
H25_10 H 0.5771 0.2021 0.0906
C47_10 C 0.58320(13) 0.16258(13) 0.0158(5)
N1_6 N 0.56665(11) 0.12387(12) 0.1417(4)
O13_10 O 0.64176(9) 0.13405(10) 0.0062(4)
O14_10 O 0.64647(11) 0.19245(10) 0.1148(4)
H32_10 H 0.6362 0.1952 0.1801
H33_10 H 0.6343 0.1897 0.0552
O15_10 O 0.63677(10) 0.13846(10) 0.2675(4)
H34_10 H 0.6253 0.1541 0.2822
H35_10 H 0.6425 0.1315 0.3396
O16_10 O 0.73119(11) 0.17530(11) 0.1030(4)
O18_10 O 0.70245(11) 0.11754(11) 0.0014(5)
H36_10 H 0.6974 0.0992 0.0157
Sm2_2 Sm 0.678601(7) 0.150605(7) 0.13933(3)
O23_2 O 0.68539(10) 0.18168(10) 0.3059(4)
O24_2 O 0.68241(13) 0.09545(13) 0.2222(5)
O25_2 O 0.71317(13) 0.12809(12) 0.2774(5)
H1_10 H 0.705(3) 0.1195(13) 0.927(2)
C1_10 C 0.61536(13) 0.20645(16) 0.3966(6)
C2_10 C 0.61844(14) 0.22373(14) 0.5122(5)
C3_10 C 0.59753(15) 0.22100(15) 0.5992(6)
H2_10 H 0.5817 0.2088 0.5865
C4_10 C 0.59985(15) 0.23615(14) 0.7051(6)
H3_10 H 0.5858 0.2342 0.7646
C5_10 C 0.62314(15) 0.25398(14) 0.7205(5)
H4_10 H 0.6248 0.2642 0.7919
C6_10 C 0.64189(13) 0.24200(12) 0.5352(5)
C7_10 C 0.66545(13) 0.24930(13) 0.4473(5)
C8_10 C 0.68970(17) 0.28789(15) 0.3623(6)
H5_10 H 0.6935 0.3078 0.3605
C9_10 C 0.70345(17) 0.27057(15) 0.2807(7)
H6_8 H 0.7153 0.2784 0.2214
C10_10 C 0.69909(16) 0.24072(15) 0.2897(6)
H7_10 H 0.7088 0.2282 0.2379
C11_10 C 0.68042(13) 0.22957(13) 0.3755(5)
C12_10 C 0.67943(13) 0.19735(13) 0.3942(5)
C14_10 C 0.74247(14) 0.20851(14) 0.9470(6)
C15_10 C 0.73577(15) 0.23802(14) 0.9492(6)
H8_10 H 0.7180 0.2442 0.9801
C16_9 C 0.75513(15) 0.25793(15) 0.9063(6)
H9_9 H 0.7505 0.2776 0.9052
C17_10 C 0.78148(15) 0.24860(14) 0.8650(6)
H10_9 H 0.7950 0.2623 0.8396
C18_10 C 0.76871(14) 0.20047(14) 0.8950(5)
C19_10 C 0.77856(14) 0.17027(14) 0.8768(6)
C20_10 C 0.81752(15) 0.13868(14) 0.8977(6)
H11_10 H 0.8367 0.1354 0.9207
C21_10 C 0.80123(16) 0.11568(15) 0.8544(7)
H12_10 H 0.8091 0.0971 0.8505
C22_10 C 0.77356(15) 0.12085(14) 0.8175(7)
H13_10 H 0.7626 0.1057 0.7863
C23_10 C 0.76147(14) 0.14822(14) 0.8257(6)
C24_10 C 0.73248(15) 0.15404(16) 0.7664(6)
C25_10 C 0.70365(18) 0.10352(19) 0.2824(7)
C26_10 C 0.72032(19) 0.08194(19) 0.3630(7)
C27_10 C 0.7498(2) 0.0874(2) 0.3858(8)
H14_10 H 0.7582 0.1043 0.3563
C28_10 C 0.7669(2) 0.0681(2) 0.4513(9)
H15_10 H 0.7860 0.0723 0.4735
C29_10 C 0.7530(2) 0.0422(2) 0.4808(9)
H16_10 H 0.7642 0.0277 0.5160
C30_10 C 0.7091(2) 0.05723(17) 0.4098(7)
C31_10 C 0.6775(2) 0.05063(16) 0.4055(7)
C32_10 C 0.6404(2) 0.0182(2) 0.3603(8)
H17_10 H 0.6345 0.0008 0.3256
C33_10 C 0.6197(2) 0.03415(19) 0.4119(8)
H18_10 H 0.6005 0.0278 0.4152
C34_10 C 0.6279(2) 0.06015(17) 0.4597(7)
H19_10 H 0.6140 0.0724 0.4927
C35_10 C 0.65748(18) 0.06860(15) 0.4593(6)
C36_10 C 0.66554(15) 0.09594(15) 0.5219(6)
C37_10 C 0.63732(13) 0.12580(13) 0.9009(5)
C38_10 C 0.61059(13) 0.10713(13) 0.8818(5)
C39_10 C 0.61161(15) 0.08473(14) 0.7988(6)
H20_10 H 0.6275 0.0831 0.7477
C40_10 C 0.58945(17) 0.06510(16) 0.7917(6)
H21_10 H 0.5895 0.0508 0.7328
C41_10 C 0.56732(16) 0.06673(15) 0.8721(6)
H22_10 H 0.5532 0.0523 0.8714
C42_10 C 0.58569(13) 0.10918(13) 0.9533(5)
C48_10 C 0.59606(14) 0.17447(13) 0.8999(6)
N2_6 N 0.56499(11) 0.08831(11) 0.9522(5)
N3_10 N 0.6692(2) 0.02475(15) 0.3531(6)
N4_10 N 0.72501(18) 0.03649(16) 0.4627(7)
N7_10 N 0.78850(12) 0.22044(11) 0.8599(5)
N8_10 N 0.80671(11) 0.16536(11) 0.9076(5)
O1_10 O 0.61962(10) 0.21950(10) 0.3005(4)
O2_10 O 0.60885(10) 0.18028(10) 0.4076(4)
O4_10 O 0.67406(10) 0.18868(9) 0.4978(4)
O5_10 O 0.66629(10) 0.19321(9) 0.7701(4)
H26_10 H 0.6490 0.1921 0.8003
H27_10 H 0.6675 0.2090 0.7282
O6_10 O 0.71786(12) 0.14209(12) 0.5072(5)
H28_10 H 0.7274 0.1260 0.5279
H29_10 H 0.7305 0.1568 0.5101
O7_10 O 0.62382(10) 0.15731(11) 0.6202(4)
H30_10 H 0.6200 0.1676 0.5560
H31_10 H 0.6167 0.1665 0.6823
O8_10 O 0.65736(13) 0.11968(11) 0.4774(4)
O9_10 O 0.67910(12) 0.09521(11) 0.6173(4)
O10_10 O 0.72778(11) 0.17714(11) 0.7149(5)
O11_10 O 0.71412(10) 0.13335(11) 0.7715(4)
O12_10 O 0.65303(10) 0.13048(10) 0.8130(4)
O17_10 O 0.69715(10) 0.18330(11) 0.9719(4)
O21_10 O 0.58608(11) 0.16438(10) 0.8046(4)
O22_10 O 0.61576(10) 0.19274(10) 0.9105(4)
Sm1_10 Sm 0.675799(7) 0.150571(7) 0.64234(3)
N9_6 N 0.87387(12) 0.18335(11) 0.8917(4)
N10_6 N 0.83831(11) 0.18501(11) 0.7022(5)
C16_10 C 0.49207(15) 0.00513(15) 0.1563(6)
H9_10 H 0.4724 0.0005 0.1552
C17_11 C 0.50140(14) 0.03148(15) 0.1150(6)
H10_10 H 0.4877 0.0450 0.0896
C18_11 C 0.54953(14) 0.01871(14) 0.1450(5)
C19_11 C 0.57973(14) 0.02856(14) 0.1268(6)
C20_11 C 0.61132(14) 0.06752(15) 0.1477(6)
H11_11 H 0.6146 0.0867 0.1707
C21_11 C 0.63432(15) 0.05123(16) 0.1044(7)
H12_11 H 0.6529 0.0591 0.1005
C22_11 C 0.62915(14) 0.02356(15) 0.0675(7)
H13_11 H 0.6443 0.0126 0.0363
C23_11 C 0.60178(14) 0.01147(14) 0.0757(6)
N7_11 N 0.52956(11) 0.03850(12) 0.1099(5)
N8_11 N 0.58464(11) 0.05671(11) 0.1576(5)
H14_11 H 0.6457 0.0082 0.6063
C28_11 C 0.6819(2) 0.0169(2) 0.7013(9)
H15_11 H 0.6777 0.0360 0.7235
C29_11 C 0.7078(2) 0.0030(2) 0.7308(9)
H16_11 H 0.7223 0.0142 0.7660
H1_11 H 0.6305(13) 0.955(3) 0.177(2)
H3_11 H 0.5158 0.8358 0.0146
H4_11 H 0.4858 0.8748 0.0419
C13_11 C 0.56274(14) 0.97251(14) 0.2604(6)
C14_11 C 0.54149(14) 0.99247(14) 0.1970(6)
C15_11 C 0.51198(14) 0.98577(15) 0.1992(6)
H8_11 H 0.5058 0.9680 0.2301
C24_11 C 0.59596(16) 0.98248(15) 0.0164(6)
C37_11 C 0.62420(13) 0.88732(13) 0.1509(5)
C38_11 C 0.64287(13) 0.86059(13) 0.1318(5)
C39_11 C 0.66527(14) 0.86161(15) 0.0488(6)
C40_11 C 0.68490(16) 0.83945(17) 0.0417(6)
C41_11 C 0.68327(15) 0.81732(16) 0.1221(6)
H22_11 H 0.6977 0.8032 0.1214
C42_11 C 0.64082(13) 0.83569(13) 0.2033(5)
C43_11 C 0.61670(13) 0.82877(13) 0.2887(5)
C44_11 C 0.60636(15) 0.80903(14) 0.4735(6)
H23_11 H 0.6129 0.8007 0.5444
C45_11 C 0.57736(15) 0.81274(15) 0.4585(6)
H24_11 H 0.5643 0.8073 0.5180
C46_11 C 0.56776(15) 0.82467(14) 0.3534(6)
H25_11 H 0.5479 0.8271 0.3406
C47_11 C 0.58742(13) 0.83320(13) 0.2658(5)
C48_11 C 0.57553(13) 0.84606(14) 0.1499(6)
N1_7 N 0.62613(12) 0.81665(11) 0.3917(4)
N2_7 N 0.66169(11) 0.81499(11) 0.2022(5)
O5_11 O 0.55679(9) 0.91629(10) 0.0201(4)
H26_11 H 0.5579 0.8990 0.0503
O11_11 O 0.61665(11) 0.96412(10) 0.0215(4)
O12_11 O 0.61952(10) 0.90303(10) 0.0630(4)
O13_11 O 0.61595(10) 0.89176(9) 0.2562(4)
O14_11 O 0.55755(10) 0.89647(11) 0.3648(4)
H32_11 H 0.5548 0.8862 0.4301
H33_11 H 0.5603 0.8843 0.3052
O15_11 O 0.61154(10) 0.88677(10) 0.5175(4)
H34_11 H 0.5959 0.8753 0.5322
H35_11 H 0.6185 0.8925 0.5896
O16_11 O 0.57470(11) 0.98119(11) 0.3530(4)
O17_11 O 0.56670(11) 0.94715(10) 0.2219(4)
O18_11 O 0.63246(11) 0.95245(11) 0.2514(5)
H36_11 H 0.6508 0.9474 0.2657
O21_11 O 0.58562(10) 0.83608(11) 0.0546(4)
O22_11 O 0.55726(10) 0.86576(10) 0.1605(4)
Sm2_3 Sm 0.599395(7) 0.928601(7) 0.38933(3)
O23_3 O 0.56832(10) 0.93539(10) 0.5559(4)
O24_3 O 0.65455(13) 0.93241(13) 0.4722(5)
O25_3 O 0.62191(12) 0.96317(13) 0.5274(5)
C1_11 C 0.54355(16) 0.86536(13) 0.6466(6)
C2_11 C 0.52627(14) 0.86844(14) 0.7622(5)
C3_11 C 0.52900(15) 0.84753(15) 0.8492(6)
H2_11 H 0.5412 0.8317 0.8365
C4_11 C 0.51385(14) 0.84985(15) 0.9551(6)
C5_11 C 0.49602(14) 0.87314(15) 0.9705(5)
C6_11 C 0.50800(12) 0.89189(13) 0.7852(5)
C7_11 C 0.50070(13) 0.91545(13) 0.6973(5)
C8_11 C 0.46211(15) 0.93970(17) 0.6123(6)
H5_11 H 0.4422 0.9435 0.6105
C9_11 C 0.47943(15) 0.95345(17) 0.5307(7)
H6_9 H 0.4716 0.9653 0.4714
C10_11 C 0.50928(15) 0.94909(16) 0.5397(6)
H7_11 H 0.5218 0.9588 0.4879
C11_11 C 0.52043(13) 0.93042(13) 0.6255(5)
C12_11 C 0.55265(13) 0.92943(13) 0.6442(5)
C25_11 C 0.64648(19) 0.95365(18) 0.5324(7)
C26_11 C 0.66806(19) 0.97032(19) 0.6130(7)
C27_11 C 0.6626(2) 0.9998(2) 0.6358(8)
C30_11 C 0.69277(17) 0.9591(2) 0.6598(7)
C31_11 C 0.69937(16) 0.9275(2) 0.6555(7)
C32_11 C 0.7318(2) 0.8904(2) 0.6103(8)
H17_11 H 0.7492 0.8845 0.5756
C33_11 C 0.71585(19) 0.8697(2) 0.6619(8)
H18_11 H 0.7222 0.8505 0.6652
C34_11 C 0.68985(17) 0.8779(2) 0.7097(7)
H19_11 H 0.6776 0.8640 0.7427
C35_11 C 0.68140(15) 0.90748(18) 0.7093(6)
C36_11 C 0.65406(15) 0.91554(15) 0.7719(6)
H20_11 H 0.6669 0.8775 0.9977
H21_11 H 0.6992 0.8395 0.9828
N3_11 N 0.72525(15) 0.9192(2) 0.6031(6)
N4_11 N 0.71351(16) 0.97501(18) 0.7127(7)
O1_11 O 0.53050(10) 0.86962(10) 0.5505(4)
O2_11 O 0.56972(10) 0.85885(10) 0.6576(4)
O4_11 O 0.56132(9) 0.92406(10) 0.7478(4)
H27_11 H 0.5410 0.9175 0.9782
O6_11 O 0.60791(12) 0.96786(12) 0.7572(5)
H28_11 H 0.6240 0.9774 0.7779
H29_11 H 0.5932 0.9805 0.7601
O7_11 O 0.59269(11) 0.87382(10) 0.8702(4)
H30_11 H 0.5824 0.8700 0.8060
H31_11 H 0.5835 0.8667 0.9323
O8_11 O 0.63032(11) 0.90736(13) 0.7274(4)
O9_11 O 0.65479(11) 0.92910(12) 0.8673(4)
O10_11 O 0.57286(11) 0.97778(11) 0.9649(5)
Sm1_11 Sm 0.599429(7) 0.925799(7) 0.89234(3)
C13_12 C 0.27749(14) 0.31274(14) 0.0104(6)
C43_12 C 0.42123(13) 0.36670(13) 0.0387(5)
C44_12 C 0.44097(14) 0.35636(15) 0.2235(6)
H23_12 H 0.4493 0.3629 0.2944
C45_12 C 0.43726(15) 0.32736(15) 0.2085(6)
H24_12 H 0.4427 0.3143 0.2680
C46_12 C 0.42533(14) 0.31776(15) 0.1034(6)
H25_12 H 0.4229 0.2979 0.0906
C47_12 C 0.41680(13) 0.33742(13) 0.0158(5)
O13_12 O 0.35824(9) 0.36595(10) 0.0062(4)
O14_12 O 0.35353(11) 0.30755(10) 0.1148(4)
H32_12 H 0.3638 0.3048 0.1801
H33_12 H 0.3657 0.3103 0.0552
O15_12 O 0.36323(10) 0.36154(10) 0.2675(4)
H34_12 H 0.3747 0.3459 0.2822
H35_12 H 0.3575 0.3685 0.3396
O16_12 O 0.26881(11) 0.32470(11) 0.1030(4)
O18_12 O 0.29755(11) 0.38246(11) 0.0014(5)
H36_12 H 0.3026 0.4008 0.0157
Sm2_4 Sm 0.321399(7) 0.349395(7) 0.13933(3)
O23_4 O 0.31461(10) 0.31832(10) 0.3059(4)
O24_4 O 0.31759(13) 0.40455(13) 0.2222(5)
O25_4 O 0.28683(13) 0.37191(12) 0.2774(5)
H1_12 H 0.295(3) 0.3805(13) 0.927(2)
C1_12 C 0.38464(13) 0.29355(16) 0.3966(6)
C2_12 C 0.38156(14) 0.27627(14) 0.5122(5)
C3_12 C 0.40247(15) 0.27900(15) 0.5992(6)
H2_12 H 0.4183 0.2912 0.5865
C4_12 C 0.40015(15) 0.26385(14) 0.7051(6)
H3_12 H 0.4142 0.2658 0.7646
C5_12 C 0.37686(15) 0.24602(14) 0.7205(5)
H4_12 H 0.3752 0.2358 0.7919
C6_12 C 0.35811(13) 0.25800(12) 0.5352(5)
C7_12 C 0.33455(13) 0.25070(13) 0.4473(5)
C8_12 C 0.31030(17) 0.21211(15) 0.3623(6)
H5_12 H 0.3065 0.1922 0.3605
C9_12 C 0.29655(17) 0.22943(15) 0.2807(7)
H6_10 H 0.2847 0.2216 0.2214
C10_12 C 0.30091(16) 0.25928(15) 0.2897(6)
H7_12 H 0.2912 0.2718 0.2379
C11_12 C 0.31958(13) 0.27043(13) 0.3755(5)
C12_12 C 0.32057(13) 0.30265(13) 0.3942(5)
C14_12 C 0.25753(14) 0.29149(14) 0.9470(6)
C15_12 C 0.26423(15) 0.26198(14) 0.9492(6)
H8_12 H 0.2820 0.2558 0.9801
C16_11 C 0.24487(15) 0.24207(15) 0.9063(6)
H9_11 H 0.2495 0.2224 0.9052
C17_12 C 0.21852(15) 0.25140(14) 0.8650(6)
H10_11 H 0.2050 0.2377 0.8396
C18_12 C 0.23129(14) 0.29953(14) 0.8950(5)
C19_12 C 0.22144(14) 0.32973(14) 0.8768(6)
C20_12 C 0.18248(15) 0.36132(14) 0.8977(6)
H11_12 H 0.1633 0.3646 0.9207
C21_12 C 0.19877(16) 0.38432(15) 0.8544(7)
H12_12 H 0.1909 0.4029 0.8505
C22_12 C 0.22644(15) 0.37915(14) 0.8175(7)
H13_12 H 0.2374 0.3943 0.7863
C23_12 C 0.23853(14) 0.35178(14) 0.8257(6)
C24_12 C 0.26752(15) 0.34596(16) 0.7664(6)
C25_12 C 0.29635(18) 0.39648(19) 0.2824(7)
C26_12 C 0.27968(19) 0.41806(19) 0.3630(7)
C27_12 C 0.2502(2) 0.4126(2) 0.3858(8)
H14_12 H 0.2418 0.3957 0.3563
C28_12 C 0.2331(2) 0.4319(2) 0.4513(9)
H15_12 H 0.2140 0.4277 0.4735
C29_12 C 0.2470(2) 0.4578(2) 0.4808(9)
H16_12 H 0.2358 0.4723 0.5160
C30_12 C 0.2909(2) 0.44277(17) 0.4098(7)
C31_12 C 0.3225(2) 0.44937(16) 0.4055(7)
C32_12 C 0.3596(2) 0.4818(2) 0.3603(8)
H17_12 H 0.3655 0.4992 0.3256
C33_12 C 0.3803(2) 0.46585(19) 0.4119(8)
H18_12 H 0.3995 0.4722 0.4152
C34_12 C 0.3721(2) 0.43985(17) 0.4597(7)
H19_12 H 0.3860 0.4276 0.4927
C35_12 C 0.34252(18) 0.43140(15) 0.4593(6)
C36_12 C 0.33446(15) 0.40406(15) 0.5219(6)
C37_12 C 0.36268(13) 0.37420(13) 0.9009(5)
C38_12 C 0.38941(13) 0.39287(13) 0.8818(5)
C39_12 C 0.38839(15) 0.41527(14) 0.7988(6)
H20_12 H 0.3725 0.4169 0.7477
C40_12 C 0.41055(17) 0.43490(16) 0.7917(6)
H21_12 H 0.4105 0.4492 0.7328
C41_12 C 0.43268(16) 0.43327(15) 0.8721(6)
H22_12 H 0.4468 0.4477 0.8714
C42_12 C 0.41431(13) 0.39082(13) 0.9533(5)
C48_12 C 0.40394(14) 0.32553(13) 0.8999(6)
N3_12 N 0.3308(2) 0.47525(15) 0.3531(6)
N4_12 N 0.27499(18) 0.46351(16) 0.4627(7)
N7_12 N 0.21150(12) 0.27956(11) 0.8599(5)
N8_12 N 0.19329(11) 0.33464(11) 0.9076(5)
O1_12 O 0.38038(10) 0.28050(10) 0.3005(4)
O2_12 O 0.39115(10) 0.31972(10) 0.4076(4)
O4_12 O 0.32594(10) 0.31132(9) 0.4978(4)
O5_12 O 0.33371(10) 0.30679(9) 0.7701(4)
H26_12 H 0.3510 0.3079 0.8003
H27_12 H 0.3325 0.2910 0.7282
O6_12 O 0.28214(12) 0.35791(12) 0.5072(5)
H28_12 H 0.2726 0.3740 0.5279
H29_12 H 0.2695 0.3432 0.5101
O7_12 O 0.37618(10) 0.34269(11) 0.6202(4)
H30_12 H 0.3800 0.3324 0.5560
H31_12 H 0.3833 0.3335 0.6823
O8_12 O 0.34264(13) 0.38032(11) 0.4774(4)
O9_12 O 0.32090(12) 0.40479(11) 0.6173(4)
O10_12 O 0.27222(11) 0.32286(11) 0.7149(5)
O11_12 O 0.28588(10) 0.36665(11) 0.7715(4)
O12_12 O 0.34697(10) 0.36952(10) 0.8130(4)
O17_12 O 0.30285(10) 0.31670(11) 0.9719(4)
O21_12 O 0.41392(11) 0.33562(10) 0.8046(4)
O22_12 O 0.38424(10) 0.30726(10) 0.9105(4)
Sm1_12 Sm 0.324201(7) 0.349429(7) 0.64234(3)
N9_7 N 0.12613(12) 0.31665(11) 0.8917(4)
N10_7 N 0.16169(11) 0.31499(11) 0.7022(5)
C5_13 C 0.00398(14) 0.12686(15) 0.4705(5)
H4_13 H 0.0142 0.1252 0.5419
C8_13 C 0.03789(15) 0.06030(17) 0.1123(6)
H5_13 H 0.0578 0.0565 0.1105
C9_13 C 0.02057(15) 0.04655(17) 0.0307(7)
H23_13 H 0.8871 0.1993 0.0444
H24_13 H 0.9357 0.1927 0.0180
O15_13 O 0.88846(10) 0.11323(10) 0.0175(4)
H34_13 H 0.9041 0.1247 0.0322
H35_13 H 0.8815 0.1075 0.0896
O23_5 O 0.93168(10) 0.06461(10) 0.0559(4)
O25_5 O 0.87809(12) 0.03683(13) 0.0274(5)
H1_13 H 0.8695(13) 0.045(3) 0.677(2)
C1_13 C 0.95645(16) 0.13464(13) 0.1466(6)
C2_13 C 0.97373(14) 0.13156(14) 0.2622(5)
C3_13 C 0.97100(15) 0.15247(15) 0.3492(6)
H2_13 H 0.9588 0.1683 0.3365
C4_13 C 0.98615(14) 0.15015(15) 0.4551(6)
H3_13 H 0.9842 0.1642 0.5146
C6_13 C 0.99200(12) 0.10811(13) 0.2852(5)
C7_13 C 0.99930(13) 0.08455(13) 0.1973(5)
C10_13 C 0.99072(15) 0.05091(16) 0.0397(6)
C11_13 C 0.97957(13) 0.06958(13) 0.1255(5)
C12_13 C 0.94735(13) 0.07057(13) 0.1442(5)
C13_13 C 0.93726(14) 0.02749(14) 0.7604(6)
C14_13 C 0.95851(14) 0.00753(14) 0.6970(6)
C15_13 C 0.98802(14) 0.01423(15) 0.6992(6)
H8_13 H 0.9942 0.0320 0.7301
C24_13 C 0.90404(16) 0.01752(15) 0.5164(6)
C25_13 C 0.85352(19) 0.04635(18) 0.0324(7)
C26_13 C 0.83194(19) 0.02968(19) 0.1130(7)
C27_13 C 0.8374(2) 0.0002(2) 0.1358(8)
C30_13 C 0.80723(17) 0.0409(2) 0.1598(7)
C31_13 C 0.80063(16) 0.0725(2) 0.1555(7)
C32_13 C 0.7682(2) 0.1096(2) 0.1103(8)
H17_13 H 0.7508 0.1155 0.0756
C33_13 C 0.78415(19) 0.1303(2) 0.1619(8)
H18_13 H 0.7778 0.1495 0.1652
C34_13 C 0.81015(17) 0.1221(2) 0.2097(7)
H19_13 H 0.8224 0.1360 0.2427
C35_13 C 0.81860(15) 0.09252(18) 0.2093(6)
C36_13 C 0.84594(15) 0.08446(15) 0.2719(6)
C37_13 C 0.87580(13) 0.11268(13) 0.6509(5)
C38_13 C 0.85713(13) 0.13941(13) 0.6318(5)
C39_13 C 0.83473(14) 0.13839(15) 0.5488(6)
H20_13 H 0.8331 0.1225 0.4977
C40_13 C 0.81510(16) 0.16055(17) 0.5417(6)
H21_13 H 0.8008 0.1605 0.4828
C41_13 C 0.81673(15) 0.18268(16) 0.6221(6)
H22_13 H 0.8023 0.1968 0.6214
C42_13 C 0.85918(13) 0.16431(13) 0.7033(5)
C43_13 C 0.88330(13) 0.17123(13) 0.7887(5)
C44_13 C 0.89364(15) 0.19097(14) 0.9735(6)
C45_13 C 0.92264(15) 0.18726(15) 0.9585(6)
C46_13 C 0.93224(15) 0.17533(14) 0.8534(6)
H25_13 H 0.9521 0.1729 0.8406
C47_13 C 0.91258(13) 0.16680(13) 0.7658(5)
C48_13 C 0.92447(13) 0.15394(14) 0.6499(6)
N3_13 N 0.77475(15) 0.0808(2) 0.1031(6)
N4_13 N 0.78649(16) 0.02499(18) 0.2127(7)
O1_13 O 0.96950(10) 0.13038(10) 0.0505(4)
O2_13 O 0.93028(10) 0.14115(10) 0.1576(4)
O4_13 O 0.93868(9) 0.07594(10) 0.2478(4)
O5_13 O 0.94321(9) 0.08371(10) 0.5201(4)
H26_13 H 0.9421 0.1010 0.5503
H27_13 H 0.9590 0.0825 0.4782
O6_13 O 0.89209(12) 0.03214(12) 0.2572(5)
H28_13 H 0.8760 0.0226 0.2779
H29_13 H 0.9068 0.0195 0.2601
O7_13 O 0.90731(11) 0.12618(10) 0.3702(4)
H30_13 H 0.9176 0.1300 0.3060
H31_13 H 0.9165 0.1333 0.4323
O8_13 O 0.86968(11) 0.09264(13) 0.2274(4)
O9_13 O 0.84521(11) 0.07090(12) 0.3673(4)
O10_13 O 0.92714(11) 0.02222(11) 0.4649(5)
O11_13 O 0.88335(11) 0.03588(10) 0.5215(4)
O12_13 O 0.88048(10) 0.09697(10) 0.5630(4)
O13_13 O 0.88405(10) 0.10824(9) 0.7562(4)
O14_13 O 0.94245(10) 0.10353(11) 0.8648(4)
H32_13 H 0.9452 0.1138 0.9301
H33_13 H 0.9397 0.1157 0.8052
O16_13 O 0.92530(11) 0.01881(11) 0.8530(4)
O17_13 O 0.93330(11) 0.05285(10) 0.7219(4)
O18_13 O 0.86754(11) 0.04755(11) 0.7514(5)
H36_13 H 0.8492 0.0526 0.7657
O21_13 O 0.91438(10) 0.16392(11) 0.5546(4)
O22_13 O 0.94274(10) 0.13424(10) 0.6605(4)
Sm1_13 Sm 0.900571(7) 0.074201(7) 0.39234(3)
Sm2_5 Sm 0.900605(7) 0.071399(7) 0.88933(3)
O24_5 O 0.84545(13) 0.06759(13) 0.9722(5)
H7_13 H 0.9782 0.0412 0.9879
C17_13 C 0.99860(14) 0.96852(15) 0.6150(6)
C18_13 C 0.95047(14) 0.98129(14) 0.6450(5)
C19_13 C 0.92027(14) 0.97144(14) 0.6268(6)
C20_13 C 0.88868(14) 0.93248(15) 0.6477(6)
H11_13 H 0.8854 0.9133 0.6707
C21_13 C 0.86568(15) 0.94877(16) 0.6044(7)
H12_13 H 0.8471 0.9409 0.6005
C22_13 C 0.87085(14) 0.97644(15) 0.5675(7)
H13_13 H 0.8557 0.9874 0.5363
C23_13 C 0.89822(14) 0.98853(14) 0.5757(6)
H14_13 H 0.8543 0.9918 0.1063
C28_13 C 0.8181(2) 0.9831(2) 0.2013(9)
H15_13 H 0.8223 0.9640 0.2235
C29_13 C 0.7922(2) 0.9970(2) 0.2308(9)
H16_13 H 0.7777 0.9858 0.2660
N7_13 N 0.97044(11) 0.96150(12) 0.6099(5)
N8_13 N 0.91536(11) 0.94329(11) 0.6576(5)
N9_8 N 0.93335(11) 0.87613(12) 0.6417(4)
N10_8 N 0.93501(11) 0.91169(11) 0.4522(5)
H1_14 H 0.205(3) 0.6195(13) 0.427(2)
C2_14 C 0.11844(14) 0.72373(14) 0.0122(5)
C3_14 C 0.09753(15) 0.72100(15) 0.0992(6)
H2_14 H 0.0817 0.7088 0.0865
C4_14 C 0.09985(15) 0.73615(14) 0.2051(6)
H3_14 H 0.0858 0.7342 0.2646
C5_14 C 0.12314(15) 0.75398(14) 0.2205(5)
H4_14 H 0.1248 0.7642 0.2919
C6_14 C 0.14189(13) 0.74200(12) 0.0352(5)
C13_14 C 0.22251(14) 0.68726(14) 0.5104(6)
C14_14 C 0.24247(14) 0.70851(14) 0.4470(6)
C15_14 C 0.23577(15) 0.73802(14) 0.4492(6)
H8_14 H 0.2180 0.7442 0.4801
C16_12 C 0.25513(15) 0.75793(15) 0.4063(6)
H9_12 H 0.2505 0.7776 0.4052
C17_14 C 0.28148(15) 0.74860(14) 0.3650(6)
H10_12 H 0.2950 0.7623 0.3396
C18_14 C 0.26871(14) 0.70047(14) 0.3950(5)
C19_14 C 0.27856(14) 0.67027(14) 0.3768(6)
C20_14 C 0.31752(15) 0.63868(14) 0.3977(6)
H11_14 H 0.3367 0.6354 0.4207
C21_14 C 0.30123(16) 0.61568(15) 0.3544(7)
H12_14 H 0.3091 0.5971 0.3505
C22_14 C 0.27356(15) 0.62085(14) 0.3175(7)
H13_14 H 0.2626 0.6057 0.2863
C23_14 C 0.26147(14) 0.64822(14) 0.3257(6)
C24_14 C 0.23248(15) 0.65404(16) 0.2664(6)
H16_14 H 0.2642 0.5277 0.0160
C36_14 C 0.16554(15) 0.59594(15) 0.0219(6)
C37_14 C 0.13732(13) 0.62580(13) 0.4009(5)
C38_14 C 0.11059(13) 0.60713(13) 0.3818(5)
C39_14 C 0.11161(15) 0.58473(14) 0.2988(6)
H20_14 H 0.1275 0.5831 0.2477
C40_14 C 0.08945(17) 0.56510(16) 0.2917(6)
H21_14 H 0.0895 0.5508 0.2328
C41_14 C 0.06732(16) 0.56673(15) 0.3721(6)
H22_14 H 0.0532 0.5523 0.3714
C42_14 C 0.08569(13) 0.60918(13) 0.4533(5)
C43_14 C 0.07877(13) 0.63330(13) 0.5387(5)
C44_14 C 0.05903(14) 0.64364(15) 0.7235(6)
H23_14 H 0.0507 0.6371 0.7944
C45_14 C 0.06274(15) 0.67264(15) 0.7085(6)
H24_14 H 0.0573 0.6857 0.7680
C46_14 C 0.07467(14) 0.68224(15) 0.6034(6)
H25_14 H 0.0771 0.7021 0.5906
C47_14 C 0.08320(13) 0.66258(13) 0.5158(5)
C48_14 C 0.09606(14) 0.67447(13) 0.3999(6)
N1_8 N 0.06665(11) 0.62387(12) 0.6417(4)
N2_8 N 0.06499(11) 0.58831(11) 0.4522(5)
N7_14 N 0.28850(12) 0.72044(11) 0.3599(5)
N8_14 N 0.30671(11) 0.66536(11) 0.4076(5)
O5_14 O 0.16629(10) 0.69321(9) 0.2701(4)
H26_14 H 0.1490 0.6921 0.3003
H27_14 H 0.1675 0.7090 0.2282
O6_14 O 0.21786(12) 0.64209(12) 0.0072(5)
H28_14 H 0.2274 0.6260 0.0279
H29_14 H 0.2305 0.6568 0.0101
O7_14 O 0.12382(10) 0.65731(11) 0.1202(4)
H30_14 H 0.1200 0.6676 0.0560
H31_14 H 0.1167 0.6665 0.1823
O9_14 O 0.17910(12) 0.59521(11) 0.1173(4)
O10_14 O 0.22778(11) 0.67714(11) 0.2149(5)
O11_14 O 0.21412(10) 0.63335(11) 0.2715(4)
O12_14 O 0.15303(10) 0.63048(10) 0.3130(4)
O13_14 O 0.14176(9) 0.63405(10) 0.5062(4)
O14_14 O 0.14647(11) 0.69245(10) 0.6148(4)
H32_14 H 0.1362 0.6952 0.6801
H33_14 H 0.1343 0.6897 0.5552
O15_14 O 0.13677(10) 0.63846(10) 0.7675(4)
H34_14 H 0.1253 0.6541 0.7822
H35_14 H 0.1425 0.6315 0.8396
O16_14 O 0.23119(11) 0.67530(11) 0.6030(4)
O17_14 O 0.19715(10) 0.68330(11) 0.4719(4)
O18_14 O 0.20245(11) 0.61754(11) 0.5014(5)
H36_14 H 0.1974 0.5992 0.5157
O21_14 O 0.08608(11) 0.66438(10) 0.3046(4)
O22_14 O 0.11576(10) 0.69274(10) 0.4105(4)
Sm1_14 Sm 0.175799(7) 0.650571(7) 0.14234(3)
Sm2_6 Sm 0.178601(7) 0.650605(7) 0.63933(3)
O23_6 O 0.18539(10) 0.68168(10) 0.8059(4)
O24_6 O 0.18241(13) 0.59545(13) 0.7222(5)
O25_6 O 0.21317(13) 0.62809(12) 0.7774(5)
C1_14 C 0.11536(13) 0.70645(16) 0.8966(6)
C7_14 C 0.16545(13) 0.74930(13) 0.9473(5)
C8_14 C 0.18970(17) 0.78789(15) 0.8623(6)
H5_14 H 0.1935 0.8078 0.8605
C9_14 C 0.20345(17) 0.77057(15) 0.7807(7)
H6_11 H 0.2153 0.7784 0.7214
C10_14 C 0.19909(16) 0.74072(15) 0.7897(6)
H7_14 H 0.2088 0.7282 0.7379
C11_14 C 0.18042(13) 0.72957(13) 0.8755(5)
C12_14 C 0.17943(13) 0.69735(13) 0.8942(5)
C25_14 C 0.20365(18) 0.60352(19) 0.7824(7)
C26_14 C 0.22032(19) 0.58194(19) 0.8630(7)
C27_14 C 0.2498(2) 0.5874(2) 0.8858(8)
H14_14 H 0.2582 0.6043 0.8563
C28_14 C 0.2669(2) 0.5681(2) 0.9513(9)
H15_14 H 0.2860 0.5723 0.9735
C29_14 C 0.2530(2) 0.5422(2) 0.9808(9)
C30_14 C 0.2091(2) 0.55723(17) 0.9098(7)
C31_14 C 0.1775(2) 0.55063(16) 0.9055(7)
C32_14 C 0.1404(2) 0.5182(2) 0.8603(8)
H17_14 H 0.1345 0.5008 0.8256
C33_14 C 0.1197(2) 0.53415(19) 0.9119(8)
H18_14 H 0.1005 0.5278 0.9152
C34_14 C 0.1279(2) 0.56015(17) 0.9597(7)
H19_14 H 0.1140 0.5724 0.9927
C35_14 C 0.15748(18) 0.56860(15) 0.9593(6)
N3_14 N 0.1692(2) 0.52475(15) 0.8531(6)
N4_14 N 0.22501(18) 0.53649(16) 0.9627(7)
O1_14 O 0.11962(10) 0.71950(10) 0.8005(4)
O2_14 O 0.10885(10) 0.68028(10) 0.9076(4)
O4_14 O 0.17406(10) 0.68868(9) 0.9978(4)
O8_14 O 0.15736(13) 0.61968(11) 0.9774(4)
H23_15 H 0.1129 0.3007 0.0444
H24_15 H 0.0643 0.3073 0.0180
O15_15 O 0.11154(10) 0.38677(10) 0.0175(4)
H34_15 H 0.0959 0.3753 0.0322
H35_15 H 0.1185 0.3925 0.0896
O23_7 O 0.06832(10) 0.43539(10) 0.0559(4)
O25_7 O 0.12191(12) 0.46317(13) 0.0274(5)
H1_15 H 0.1305(13) 0.455(3) 0.677(2)
C1_15 C 0.04355(16) 0.36536(13) 0.1466(6)
C2_15 C 0.02627(14) 0.36844(14) 0.2622(5)
C3_15 C 0.02900(15) 0.34753(15) 0.3492(6)
H2_15 H 0.0412 0.3317 0.3365
C4_15 C 0.01385(14) 0.34985(15) 0.4551(6)
H3_15 H 0.0158 0.3358 0.5146
C6_15 C 0.00800(12) 0.39189(13) 0.2852(5)
C7_15 C 0.00070(13) 0.41545(13) 0.1973(5)
C10_15 C 0.00928(15) 0.44909(16) 0.0397(6)
C11_15 C 0.02043(13) 0.43042(13) 0.1255(5)
C12_15 C 0.05265(13) 0.42943(13) 0.1442(5)
C13_15 C 0.06274(14) 0.47251(14) 0.7604(6)
C14_15 C 0.04149(14) 0.49247(14) 0.6970(6)
C15_15 C 0.01198(14) 0.48577(15) 0.6992(6)
H8_15 H 0.0058 0.4680 0.7301
C17_15 C 0.00140(14) 0.53148(15) 0.6150(6)
C18_15 C 0.04953(14) 0.51871(14) 0.6450(5)
C19_15 C 0.07973(14) 0.52856(14) 0.6268(6)
C20_15 C 0.11132(14) 0.56752(15) 0.6477(6)
H11_15 H 0.1146 0.5867 0.6707
C21_15 C 0.13432(15) 0.55123(16) 0.6044(7)
H12_15 H 0.1529 0.5591 0.6005
C22_15 C 0.12915(14) 0.52356(15) 0.5675(7)
H13_15 H 0.1443 0.5126 0.5363
C23_15 C 0.10178(14) 0.51147(14) 0.5757(6)
C24_15 C 0.09596(16) 0.48248(15) 0.5164(6)
C25_15 C 0.14648(19) 0.45365(18) 0.0324(7)
C26_15 C 0.16806(19) 0.47032(19) 0.1130(7)
C27_15 C 0.1626(2) 0.4998(2) 0.1358(8)
H14_15 H 0.1457 0.5082 0.1063
C28_15 C 0.1819(2) 0.5169(2) 0.2013(9)
H15_15 H 0.1777 0.5360 0.2235
C29_15 C 0.2078(2) 0.5030(2) 0.2308(9)
H16_15 H 0.2223 0.5142 0.2660
C30_15 C 0.19277(17) 0.4591(2) 0.1598(7)
C31_15 C 0.19937(16) 0.4275(2) 0.1555(7)
C32_15 C 0.2318(2) 0.3904(2) 0.1103(8)
H17_15 H 0.2492 0.3845 0.0756
C33_15 C 0.21585(19) 0.3697(2) 0.1619(8)
H18_15 H 0.2222 0.3505 0.1652
C34_15 C 0.18985(17) 0.3779(2) 0.2097(7)
H19_15 H 0.1776 0.3640 0.2427
C35_15 C 0.18140(15) 0.40748(18) 0.2093(6)
C36_15 C 0.15406(15) 0.41554(15) 0.2719(6)
C37_15 C 0.12420(13) 0.38732(13) 0.6509(5)
C38_15 C 0.14287(13) 0.36059(13) 0.6318(5)
C39_15 C 0.16527(14) 0.36161(15) 0.5488(6)
H20_15 H 0.1669 0.3775 0.4977
C40_15 C 0.18490(16) 0.33945(17) 0.5417(6)
H21_15 H 0.1992 0.3395 0.4828
C41_15 C 0.18327(15) 0.31732(16) 0.6221(6)
H22_15 H 0.1977 0.3032 0.6214
C42_15 C 0.14082(13) 0.33569(13) 0.7033(5)
C43_15 C 0.11670(13) 0.32877(13) 0.7887(5)
C44_15 C 0.10636(15) 0.30903(14) 0.9735(6)
C45_15 C 0.07736(15) 0.31274(15) 0.9585(6)
C46_15 C 0.06776(15) 0.32467(14) 0.8534(6)
H25_15 H 0.0479 0.3271 0.8406
C47_15 C 0.08742(13) 0.33320(13) 0.7658(5)
C48_15 C 0.07553(13) 0.34606(14) 0.6499(6)
N3_15 N 0.22525(15) 0.4192(2) 0.1031(6)
N4_15 N 0.21351(16) 0.47501(18) 0.2127(7)
N7_15 N 0.02956(11) 0.53850(12) 0.6099(5)
N8_15 N 0.08464(11) 0.55671(11) 0.6576(5)
O1_15 O 0.03050(10) 0.36962(10) 0.0505(4)
O2_15 O 0.06972(10) 0.35885(10) 0.1576(4)
O4_15 O 0.06132(9) 0.42406(10) 0.2478(4)
O5_15 O 0.05679(9) 0.41629(10) 0.5201(4)
H26_15 H 0.0579 0.3990 0.5503
H27_15 H 0.0410 0.4175 0.4782
O6_15 O 0.10791(12) 0.46786(12) 0.2572(5)
H28_15 H 0.1240 0.4774 0.2779
H29_15 H 0.0932 0.4805 0.2601
O7_15 O 0.09269(11) 0.37382(10) 0.3702(4)
H30_15 H 0.0824 0.3700 0.3060
H31_15 H 0.0835 0.3667 0.4323
O8_15 O 0.13032(11) 0.40736(13) 0.2274(4)
O9_15 O 0.15479(11) 0.42910(12) 0.3673(4)
O10_15 O 0.07286(11) 0.47778(11) 0.4649(5)
O11_15 O 0.11665(11) 0.46412(10) 0.5215(4)
O12_15 O 0.11952(10) 0.40303(10) 0.5630(4)
O13_15 O 0.11595(10) 0.39176(9) 0.7562(4)
O14_15 O 0.05755(10) 0.39647(11) 0.8648(4)
H32_15 H 0.0548 0.3862 0.9301
H33_15 H 0.0603 0.3843 0.8052
O16_15 O 0.07470(11) 0.48119(11) 0.8530(4)
O17_15 O 0.06670(11) 0.44715(10) 0.7219(4)
O18_15 O 0.13246(11) 0.45245(11) 0.7514(5)
H36_15 H 0.1508 0.4474 0.7657
O21_15 O 0.08562(10) 0.33608(11) 0.5546(4)
O22_15 O 0.05726(10) 0.36576(10) 0.6605(4)
Sm1_15 Sm 0.099429(7) 0.425799(7) 0.39234(3)
Sm2_7 Sm 0.099395(7) 0.428601(7) 0.88933(3)
O24_7 O 0.15455(13) 0.43241(13) 0.9722(5)
H7_15 H 0.0218 0.4588 0.9879
C5_15 C 0.99602(14) 0.37314(15) 0.4705(5)
H4_15 H 0.9858 0.3748 0.5419
C8_15 C 0.96211(15) 0.43970(17) 0.1123(6)
H5_15 H 0.9422 0.4435 0.1105
C9_15 C 0.97943(15) 0.45345(17) 0.0307(7)
C16_13 C 0.99207(15) 0.50513(15) 0.6563(6)
H9_13 H 0.9724 0.5005 0.6552
H10_13 H 0.9877 0.5450 0.5896
H1_16 H 0.795(3) 0.8805(13) 0.427(2)
C2_16 C 0.88156(14) 0.77627(14) 0.0122(5)
C3_16 C 0.90247(15) 0.77900(15) 0.0992(6)
H2_16 H 0.9183 0.7912 0.0865
C4_16 C 0.90015(15) 0.76385(14) 0.2051(6)
H3_16 H 0.9142 0.7658 0.2646
C5_16 C 0.87686(15) 0.74602(14) 0.2205(5)
H4_16 H 0.8752 0.7358 0.2919
C6_16 C 0.85811(13) 0.75800(12) 0.0352(5)
C13_16 C 0.77749(14) 0.81274(14) 0.5104(6)
C14_16 C 0.75753(14) 0.79149(14) 0.4470(6)
C15_16 C 0.76423(15) 0.76198(14) 0.4492(6)
H8_16 H 0.7820 0.7558 0.4801
C16_14 C 0.74487(15) 0.74207(15) 0.4063(6)
H9_14 H 0.7495 0.7224 0.4052
C17_16 C 0.71852(15) 0.75140(14) 0.3650(6)
H10_14 H 0.7050 0.7377 0.3396
C18_16 C 0.73129(14) 0.79953(14) 0.3950(5)
C19_16 C 0.72144(14) 0.82973(14) 0.3768(6)
C20_16 C 0.68248(15) 0.86132(14) 0.3977(6)
H11_16 H 0.6633 0.8646 0.4207
C21_16 C 0.69877(16) 0.88432(15) 0.3544(7)
H12_16 H 0.6909 0.9029 0.3505
C22_16 C 0.72644(15) 0.87915(14) 0.3175(7)
H13_16 H 0.7374 0.8943 0.2863
C23_16 C 0.73853(14) 0.85178(14) 0.3257(6)
C24_16 C 0.76752(15) 0.84596(16) 0.2664(6)
H16_16 H 0.7358 0.9723 0.0160
C36_16 C 0.83446(15) 0.90406(15) 0.0219(6)
C37_16 C 0.86268(13) 0.87420(13) 0.4009(5)
C38_16 C 0.88941(13) 0.89287(13) 0.3818(5)
C39_16 C 0.88839(15) 0.91527(14) 0.2988(6)
H20_16 H 0.8725 0.9169 0.2477
C40_16 C 0.91055(17) 0.93490(16) 0.2917(6)
H21_16 H 0.9105 0.9492 0.2328
C41_16 C 0.93268(16) 0.93327(15) 0.3721(6)
H22_16 H 0.9468 0.9477 0.3714
C42_16 C 0.91431(13) 0.89082(13) 0.4533(5)
C43_16 C 0.92123(13) 0.86670(13) 0.5387(5)
C44_16 C 0.94097(14) 0.85636(15) 0.7235(6)
H23_16 H 0.9493 0.8629 0.7944
C45_16 C 0.93726(15) 0.82736(15) 0.7085(6)
H24_16 H 0.9427 0.8143 0.7680
C46_16 C 0.92533(14) 0.81776(15) 0.6034(6)
H25_16 H 0.9229 0.7979 0.5906
C47_16 C 0.91680(13) 0.83742(13) 0.5158(5)
C48_16 C 0.90394(14) 0.82553(13) 0.3999(6)
N7_16 N 0.71150(12) 0.77956(11) 0.3599(5)
N8_16 N 0.69329(11) 0.83464(11) 0.4076(5)
O5_16 O 0.83371(10) 0.80679(9) 0.2701(4)
H26_16 H 0.8510 0.8079 0.3003
H27_16 H 0.8325 0.7910 0.2282
O6_16 O 0.78214(12) 0.85791(12) 0.0072(5)
H28_16 H 0.7726 0.8740 0.0279
H29_16 H 0.7695 0.8432 0.0101
O7_16 O 0.87618(10) 0.84269(11) 0.1202(4)
H30_16 H 0.8800 0.8324 0.0560
H31_16 H 0.8833 0.8335 0.1823
O9_16 O 0.82090(12) 0.90479(11) 0.1173(4)
O10_16 O 0.77222(11) 0.82286(11) 0.2149(5)
O11_16 O 0.78588(10) 0.86665(11) 0.2715(4)
O12_16 O 0.84697(10) 0.86952(10) 0.3130(4)
O13_16 O 0.85824(9) 0.86595(10) 0.5062(4)
O14_16 O 0.85353(11) 0.80755(10) 0.6148(4)
H32_16 H 0.8638 0.8048 0.6801
H33_16 H 0.8657 0.8103 0.5552
O15_16 O 0.86323(10) 0.86154(10) 0.7675(4)
H34_16 H 0.8747 0.8459 0.7822
H35_16 H 0.8575 0.8685 0.8396
O16_16 O 0.76881(11) 0.82470(11) 0.6030(4)
O17_16 O 0.80285(10) 0.81670(11) 0.4719(4)
O18_16 O 0.79755(11) 0.88246(11) 0.5014(5)
H36_16 H 0.8026 0.9008 0.5157
O21_16 O 0.91392(11) 0.83562(10) 0.3046(4)
O22_16 O 0.88424(10) 0.80726(10) 0.4105(4)
Sm1_16 Sm 0.824201(7) 0.849429(7) 0.14234(3)
Sm2_8 Sm 0.821399(7) 0.849395(7) 0.63933(3)
O23_8 O 0.81461(10) 0.81832(10) 0.8059(4)
O24_8 O 0.81759(13) 0.90455(13) 0.7222(5)
O25_8 O 0.78683(13) 0.87191(12) 0.7774(5)
C1_16 C 0.88464(13) 0.79355(16) 0.8966(6)
C7_16 C 0.83455(13) 0.75070(13) 0.9473(5)
C8_16 C 0.81030(17) 0.71211(15) 0.8623(6)
H5_16 H 0.8065 0.6922 0.8605
C9_16 C 0.79655(17) 0.72943(15) 0.7807(7)
H6_12 H 0.7847 0.7216 0.7214
C10_16 C 0.80091(16) 0.75928(15) 0.7897(6)
H7_16 H 0.7912 0.7718 0.7379
C11_16 C 0.81958(13) 0.77043(13) 0.8755(5)
C12_16 C 0.82057(13) 0.80265(13) 0.8942(5)
C25_16 C 0.79635(18) 0.89648(19) 0.7824(7)
C26_16 C 0.77968(19) 0.91806(19) 0.8630(7)
C27_16 C 0.7502(2) 0.9126(2) 0.8858(8)
H14_16 H 0.7418 0.8957 0.8563
C28_16 C 0.7331(2) 0.9319(2) 0.9513(9)
H15_16 H 0.7140 0.9277 0.9735
C29_16 C 0.7470(2) 0.9578(2) 0.9808(9)
C30_16 C 0.7909(2) 0.94277(17) 0.9098(7)
C31_16 C 0.8225(2) 0.94937(16) 0.9055(7)
C32_16 C 0.8596(2) 0.9818(2) 0.8603(8)
H17_16 H 0.8655 0.9992 0.8256
C33_16 C 0.8803(2) 0.96585(19) 0.9119(8)
H18_16 H 0.8995 0.9722 0.9152
C34_16 C 0.8721(2) 0.93985(17) 0.9597(7)
H19_16 H 0.8860 0.9276 0.9927
C35_16 C 0.84252(18) 0.93140(15) 0.9593(6)
N3_16 N 0.8308(2) 0.97525(15) 0.8531(6)
N4_16 N 0.77499(18) 0.96351(16) 0.9627(7)
O1_16 O 0.88038(10) 0.78050(10) 0.8005(4)
O2_16 O 0.89115(10) 0.81972(10) 0.9076(4)
O4_16 O 0.82594(10) 0.81132(9) 0.9978(4)
O8_16 O 0.84264(13) 0.88032(11) 0.9774(4)
C16_15 C 0.99207(15) 0.00513(15) 0.3437(6)
H9_15 H 0.9724 0.0005 0.3448
H10_15 H 0.9877 0.0450 0.4104
H6_13 H 0.9716 0.9653 0.0286
H6_14 H 0.0284 0.5347 0.0286
H6_15 H 0.0284 0.0347 0.9714
C16_16 C 0.00793(15) 0.99487(15) 0.6563(6)
H9_16 H 0.0276 0.9995 0.6552
H10_16 H 0.0123 0.9550 0.5896
H6_16 H 0.9716 0.4653 0.9714
loop_
_geom_bond_atom_site_label_1
_geom_bond_atom_site_label_2
_geom_bond_site_symmetry_1
_geom_bond_site_symmetry_2
C1 C2 1_555 1_555
C2 C3 1_555 1_555
C3 H2 1_555 1_555
C4 C3 1_555 1_555
C5 C4 1_555 1_555
C6 C2 1_555 1_555
C7 C6 1_555 1_555
C8 H5 1_555 1_555
C9 C8 1_555 1_555
H6 C9 1_555 1_555
C10 C9 1_555 1_555
H7 C10 1_555 1_555
C11 C7 1_555 1_555
C12 C11 1_555 1_555
C25 C26 1_555 1_555
C26 C27 1_555 1_555
C27 H14 1_555 1_555
C28 C27 1_555 1_555
H15 C28 1_555 1_555
C29 C28 1_555 1_555
H16 C29 1_555 1_555
C30 C26 1_555 1_555
C31 C30 1_555 1_555
C32 H17 1_555 1_555
C33 C32 1_555 1_555
H18 C33 1_555 1_555
C34 C33 1_555 1_555
H19 C34 1_555 1_555
C35 C31 1_555 1_555
C36 C35 1_555 1_555
N3 C31 1_555 1_555
N4 C29 1_555 1_555
N5 C7 1_555 1_555
N6 C5 1_555 1_555
O1 C1 1_555 1_555
O2 C1 1_555 1_555
O3 C12 1_555 1_555
O4 C12 1_555 1_555
O6 H28 1_555 1_555
H29 O6 1_555 1_555
O7 H30 1_555 1_555
H31 O7 1_555 1_555
O8 C36 1_555 1_555
O9 C36 1_555 1_555
O19 C25 1_555 1_555
O20 C25 1_555 1_555
Sm1 O4 1_555 1_555
Co3 N5 1_555 1_555
Sm3 O3 1_555 1_555
C6 N6 1_555 1_555
C8 N5 1_555 1_555
C10 C11 1_555 1_555
C30 N4 1_555 1_555
C32 N3 1_555 1_555
C34 C35 1_555 1_555
N6 Co3 1_555 1_555
O6 Sm1 1_555 1_555
O7 Sm1 1_555 1_555
O8 Sm1 1_555 1_555
O9 Sm1 1_555 1_555
O10 Sm1 1_555 1_555
O19 Sm3 1_555 1_555
O20 Sm3 1_555 1_555
H1 O18 1_555 1_555
C13 C14 1_555 1_555
C14 C15 1_555 1_555
C15 H8 1_555 1_555
C16 C15 1_555 1_555
H9 C16 1_555 1_555
C17 C16 1_555 1_555
H10 C17 1_555 1_555
C18 C14 1_555 1_555
C19 C18 1_555 1_555
C20 H11 1_555 1_555
C21 C20 1_555 1_555
H12 C21 1_555 1_555
C22 C21 1_555 1_555
H13 C22 1_555 1_555
C23 C19 1_555 1_555
C24 C23 1_555 1_555
C37 C38 1_555 1_555
C38 C39 1_555 1_555
C40 C39 1_555 1_555
C41 C40 1_555 1_555
H22 C41 1_555 1_555
C42 C38 1_555 1_555
C43 C42 1_555 1_555
C44 H23 1_555 1_555
C45 C44 1_555 1_555
H24 C45 1_555 1_555
C46 C45 1_555 1_555
H25 C46 1_555 1_555
C47 C43 1_555 1_555
C48 C47 1_555 1_555
N1 C43 1_555 1_555
N2 C41 1_555 1_555
N7 C17 1_555 1_555
N8 C19 1_555 1_555
O5 H26 1_555 1_555
O11 C24 1_555 1_555
O12 C37 1_555 1_555
O13 C37 1_555 1_555
O14 H32 1_555 1_555
H33 O14 1_555 1_555
O15 H34 1_555 1_555
H35 O15 1_555 1_555
O16 C13 1_555 1_555
O17 C13 1_555 1_555
O18 H36 1_555 1_555
O21 C48 1_555 1_555
O22 C48 1_555 1_555
Co1 N7 1_555 1_555
Sm3 O13 1_555 1_555
N9 Co1 1_555 1_555
N11 Co1 1_555 1_555
N12 Co1 1_555 1_555
Co2 N1 1_555 1_555
C18 N7 1_555 1_555
C20 N8 1_555 1_555
C22 C23 1_555 1_555
C42 N2 1_555 1_555
C44 N1 1_555 1_555
C46 C47 1_555 1_555
N2 Co2 1_555 1_555
N8 Co1 1_555 1_555
O14 Sm3 1_555 1_555
O15 Sm3 1_555 1_555
O16 Sm3 1_555 1_555
O17 Sm3 1_555 1_555
O18 Sm3 1_555 1_555
C1_2 C2_2 1_555 1_555
C2_2 C3_2 1_555 1_555
C3_2 H2_2 1_555 1_555
C4_2 C3_2 1_555 1_555
H3_2 C4_2 1_555 1_555
C5_2 C4_2 1_555 1_555
H4_2 C5_2 1_555 1_555
C6_2 C2_2 1_555 1_555
C7_2 C6_2 1_555 1_555
C8_2 H5_2 1_555 1_555
C9_2 C8_2 1_555 1_555
H6_2 C9_2 1_555 1_555
C10_2 C9_2 1_555 1_555
H7_2 C10_2 1_555 1_555
C11_2 C7_2 1_555 1_555
C12_2 C11_2 1_555 1_555
C14_2 C15_2 1_555 1_555
C15_2 H8_2 1_555 1_555
C16_2 C15_2 1_555 1_555
H9_2 C16_2 1_555 1_555
C17_2 C16_2 1_555 1_555
H10_2 C17_2 1_555 1_555
C18_2 C14_2 1_555 1_555
C19_2 C18_2 1_555 1_555
C20_2 H11_2 1_555 1_555
C21_2 C20_2 1_555 1_555
H12_2 C21_2 1_555 1_555
C22_2 C21_2 1_555 1_555
H13_2 C22_2 1_555 1_555
C23_2 C19_2 1_555 1_555
C24_2 C23_2 1_555 1_555
C25_2 C26_2 1_555 1_555
C26_2 C27_2 1_555 1_555
C27_2 H14_2 1_555 1_555
C28_2 C27_2 1_555 1_555
H15_2 C28_2 1_555 1_555
C29_2 C28_2 1_555 1_555
H16_2 C29_2 1_555 1_555
C30_2 C26_2 1_555 1_555
C31_2 C30_2 1_555 1_555
C32_2 H17_2 1_555 1_555
C33_2 C32_2 1_555 1_555
H18_2 C33_2 1_555 1_555
C34_2 C33_2 1_555 1_555
H19_2 C34_2 1_555 1_555
C35_2 C31_2 1_555 1_555
C36_2 C35_2 1_555 1_555
C37_2 C38_2 1_555 1_555
C38_2 C39_2 1_555 1_555
C39_2 H20_2 1_555 1_555
C40_2 C39_2 1_555 1_555
H21_2 C40_2 1_555 1_555
C41_2 C40_2 1_555 1_555
H22_2 C41_2 1_555 1_555
C42_2 C38_2 1_555 1_555
N2_2 C41_2 1_555 1_555
N3_2 C31_2 1_555 1_555
N4_2 C29_2 1_555 1_555
N5_2 C7_2 1_555 1_555
N6_2 C5_2 1_555 1_555
N7_2 C17_2 1_555 1_555
N8_2 C19_2 1_555 1_555
O1_2 C1_2 1_555 1_555
O2_2 C1_2 1_555 1_555
O3_2 C12_2 1_555 1_555
O4_2 C12_2 1_555 1_555
O5_2 H26_2 1_555 1_555
H27_2 O5_2 1_555 1_555
O6_2 H28_2 1_555 1_555
H29_2 O6_2 1_555 1_555
O7_2 H30_2 1_555 1_555
H31_2 O7_2 1_555 1_555
O8_2 C36_2 1_555 1_555
O9_2 C36_2 1_555 1_555
O10_2 C24_2 1_555 1_555
O11_2 C24_2 1_555 1_555
O12_2 C37_2 1_555 1_555
O19_2 C25_2 1_555 1_555
O20_2 C25_2 1_555 1_555
O21_2 C48_2 1_555 1_555
O22_2 C48_2 1_555 1_555
Co1_2 N7_2 1_555 1_555
Sm1_2 O4_2 1_555 1_555
N9_2 Co1_2 1_555 1_555
N10_2 Co1_2 1_555 1_555
N12_2 Co1_2 1_555 1_555
Co3_2 N5_2 1_555 1_555
Sm3_2 O3_2 1_555 1_555
C6_2 N6_2 1_555 1_555
C8_2 N5_2 1_555 1_555
C10_2 C11_2 1_555 1_555
C18_2 N7_2 1_555 1_555
C20_2 N8_2 1_555 1_555
C22_2 C23_2 1_555 1_555
C30_2 N4_2 1_555 1_555
C32_2 N3_2 1_555 1_555
C34_2 C35_2 1_555 1_555
C42_2 N2_2 1_555 1_555
N6_2 Co3_2 1_555 1_555
N8_2 Co1_2 1_555 1_555
O5_2 Sm1_2 1_555 1_555
O6_2 Sm1_2 1_555 1_555
O7_2 Sm1_2 1_555 1_555
O8_2 Sm1_2 1_555 1_555
O9_2 Sm1_2 1_555 1_555
O10_2 Sm1_2 1_555 1_555
O11_2 Sm1_2 1_555 1_555
O12_2 Sm1_2 1_555 1_555
O19_2 Sm3_2 1_555 1_555
O20_2 Sm3_2 1_555 1_555
C44_2 H23_2 1_555 1_555
C45_2 C44_2 1_555 1_555
H24_2 C45_2 1_555 1_555
C46_2 C45_2 1_555 1_555
H25_2 C46_2 1_555 1_555
C47_2 C43_2 1_555 1_555
N1_2 C43_2 1_555 1_555
O14_2 H32_2 1_555 1_555
H33_2 O14_2 1_555 1_555
O15_2 H34_2 1_555 1_555
H35_2 O15_2 1_555 1_555
O16_2 C13_2 1_555 1_555
O18_2 H36_2 1_555 1_555
Sm3_2 O13_2 1_555 1_555
Co2_2 N1_2 1_555 1_555
C44_2 N1_2 1_555 1_555
C46_2 C47_2 1_555 1_555
O14_2 Sm3_2 1_555 1_555
O15_2 Sm3_2 1_555 1_555
O16_2 Sm3_2 1_555 1_555
O18_2 Sm3_2 1_555 1_555
C1_3 C2_3 1_555 1_555
C2_3 C3_3 1_555 1_555
C3_3 H2_3 1_555 1_555
C4_3 C3_3 1_555 1_555
C5_3 C4_3 1_555 1_555
C6_3 C2_3 1_555 1_555
C7_3 C6_3 1_555 1_555
C8_3 H5_3 1_555 1_555
C9_3 C8_3 1_555 1_555
H6_3 C9_3 1_555 1_555
C10_3 C9_3 1_555 1_555
H7_3 C10_3 1_555 1_555
C11_3 C7_3 1_555 1_555
C12_3 C11_3 1_555 1_555
C25_3 C26_3 1_555 1_555
C26_3 C27_3 1_555 1_555
C30_3 C26_3 1_555 1_555
C31_3 C30_3 1_555 1_555
C32_3 H17_3 1_555 1_555
C33_3 C32_3 1_555 1_555
H18_3 C33_3 1_555 1_555
C34_3 C33_3 1_555 1_555
H19_3 C34_3 1_555 1_555
C35_3 C31_3 1_555 1_555
C36_3 C35_3 1_555 1_555
N3_3 C31_3 1_555 1_555
N5_3 C7_3 1_555 1_555
N6_3 C5_3 1_555 1_555
O1_3 C1_3 1_555 1_555
O2_3 C1_3 1_555 1_555
O3_3 C12_3 1_555 1_555
O4_3 C12_3 1_555 1_555
O6_3 H28_3 1_555 1_555
H29_3 O6_3 1_555 1_555
O7_3 H30_3 1_555 1_555
H31_3 O7_3 1_555 1_555
O8_3 C36_3 1_555 1_555
O9_3 C36_3 1_555 1_555
O19_3 C25_3 1_555 1_555
O20_3 C25_3 1_555 1_555
Sm1_3 O4_3 1_555 1_555
Co3_3 N5_3 1_555 1_555
Sm3_3 O3_3 1_555 1_555
C6_3 N6_3 1_555 1_555
C8_3 N5_3 1_555 1_555
C10_3 C11_3 1_555 1_555
C30_3 N4_3 1_555 1_555
C32_3 N3_3 1_555 1_555
C34_3 C35_3 1_555 1_555
N6_3 Co3_3 1_555 1_555
O6_3 Sm1_3 1_555 1_555
O7_3 Sm1_3 1_555 1_555
O8_3 Sm1_3 1_555 1_555
O9_3 Sm1_3 1_555 1_555
O10_3 Sm1_3 1_555 1_555
O19_3 Sm3_3 1_555 1_555
O20_3 Sm3_3 1_555 1_555
H1_3 O18_3 1_555 1_555
C13_3 C14_3 1_555 1_555
C14_3 C15_3 1_555 1_555
C15_3 H8_3 1_555 1_555
C37_3 C38_3 1_555 1_555
C38_3 C39_3 1_555 1_555
C40_3 C39_3 1_555 1_555
C41_3 C40_3 1_555 1_555
H22_3 C41_3 1_555 1_555
C42_3 C38_3 1_555 1_555
C43_3 C42_3 1_555 1_555
C44_3 H23_3 1_555 1_555
C45_3 C44_3 1_555 1_555
H24_3 C45_3 1_555 1_555
C46_3 C45_3 1_555 1_555
H25_3 C46_3 1_555 1_555
C47_3 C43_3 1_555 1_555
C48_3 C47_3 1_555 1_555
N1_3 C43_3 1_555 1_555
N2_3 C41_3 1_555 1_555
O5_3 H26_3 1_555 1_555
O11_3 C24_3 1_555 1_555
O12_3 C37_3 1_555 1_555
O13_3 C37_3 1_555 1_555
O14_3 H32_3 1_555 1_555
H33_3 O14_3 1_555 1_555
O15_3 H34_3 1_555 1_555
H35_3 O15_3 1_555 1_555
O16_3 C13_3 1_555 1_555
O17_3 C13_3 1_555 1_555
O18_3 H36_3 1_555 1_555
O21_3 C48_3 1_555 1_555
O22_3 C48_3 1_555 1_555
Sm3_3 O13_3 1_555 1_555
Co2_3 N1_3 1_555 1_555
C42_3 N2_3 1_555 1_555
C44_3 N1_3 1_555 1_555
C46_3 C47_3 1_555 1_555
N2_3 Co2_3 1_555 1_555
O14_3 Sm3_3 1_555 1_555
O15_3 Sm3_3 1_555 1_555
O16_3 Sm3_3 1_555 1_555
O17_3 Sm3_3 1_555 1_555
O18_3 Sm3_3 1_555 1_555
H15_3 C28_3 1_555 1_555
C29_3 C28_3 1_555 1_555
H16_3 C29_3 1_555 1_555
H9_3 C16_3 1_555 1_555
C17_3 C16_3 1_555 1_555
H10_3 C17_3 1_555 1_555
C19_3 C18_3 1_555 1_555
C20_3 H11_3 1_555 1_555
C21_3 C20_3 1_555 1_555
H12_3 C21_3 1_555 1_555
C22_3 C21_3 1_555 1_555
H13_3 C22_3 1_555 1_555
C23_3 C19_3 1_555 1_555
N7_3 C17_3 1_555 1_555
N8_3 C19_3 1_555 1_555
Co2_2 N7_3 1_555 1_555
N11_3 Co2_2 1_555 1_555
N12_3 Co2_2 1_555 1_555
C18_3 N7_3 1_555 1_555
C20_3 N8_3 1_555 1_555
C22_3 C23_3 1_555 1_555
N8_3 Co2_2 1_555 1_555
C1_4 C2_4 1_555 1_555
C2_4 C3_4 1_555 1_555
C3_4 H2_4 1_555 1_555
C4_4 C3_4 1_555 1_555
H3_4 C4_4 1_555 1_555
C5_4 C4_4 1_555 1_555
H4_4 C5_4 1_555 1_555
C6_4 C2_4 1_555 1_555
C7_4 C6_4 1_555 1_555
C8_4 H5_4 1_555 1_555
C9_4 C8_4 1_555 1_555
H6_4 C9_4 1_555 1_555
C10_4 C9_4 1_555 1_555
H7_4 C10_4 1_555 1_555
C11_4 C7_4 1_555 1_555
C12_4 C11_4 1_555 1_555
C14_4 C15_4 1_555 1_555
C15_4 H8_4 1_555 1_555
C16_4 C15_4 1_555 1_555
H9_4 C16_4 1_555 1_555
C17_4 C16_4 1_555 1_555
H10_4 C17_4 1_555 1_555
C18_4 C14_4 1_555 1_555
C19_4 C18_4 1_555 1_555
C20_4 H11_4 1_555 1_555
C21_4 C20_4 1_555 1_555
H12_4 C21_4 1_555 1_555
C22_4 C21_4 1_555 1_555
H13_4 C22_4 1_555 1_555
C23_4 C19_4 1_555 1_555
C24_4 C23_4 1_555 1_555
C25_4 C26_4 1_555 1_555
C26_4 C27_4 1_555 1_555
C27_4 H14_4 1_555 1_555
C28_4 C27_4 1_555 1_555
H15_4 C28_4 1_555 1_555
C29_4 C28_4 1_555 1_555
H16_4 C29_4 1_555 1_555
C30_4 C26_4 1_555 1_555
C31_4 C30_4 1_555 1_555
C32_4 H17_4 1_555 1_555
C33_4 C32_4 1_555 1_555
H18_4 C33_4 1_555 1_555
C34_4 C33_4 1_555 1_555
H19_4 C34_4 1_555 1_555
C35_4 C31_4 1_555 1_555
C36_4 C35_4 1_555 1_555
C37_4 C38_4 1_555 1_555
C38_4 C39_4 1_555 1_555
C39_4 H20_4 1_555 1_555
C40_4 C39_4 1_555 1_555
H21_4 C40_4 1_555 1_555
C41_4 C40_4 1_555 1_555
H22_4 C41_4 1_555 1_555
C42_4 C38_4 1_555 1_555
N10 C41_4 1_555 1_555
N3_4 C31_4 1_555 1_555
N4_4 C29_4 1_555 1_555
N5_4 C7_4 1_555 1_555
N6_4 C5_4 1_555 1_555
N7_4 C17_4 1_555 1_555
N8_4 C19_4 1_555 1_555
O1_4 C1_4 1_555 1_555
O2_4 C1_4 1_555 1_555
O3_4 C12_4 1_555 1_555
O4_4 C12_4 1_555 1_555
O5_4 H26_4 1_555 1_555
H27_4 O5_4 1_555 1_555
O6_4 H28_4 1_555 1_555
H29_4 O6_4 1_555 1_555
O7_4 H30_4 1_555 1_555
H31_4 O7_4 1_555 1_555
O8_4 C36_4 1_555 1_555
O9_4 C36_4 1_555 1_555
O10_4 C24_4 1_555 1_555
O11_4 C24_4 1_555 1_555
O12_4 C37_4 1_555 1_555
O19_4 C25_4 1_555 1_555
O20_4 C25_4 1_555 1_555
O21_4 C48_4 1_555 1_555
O22_4 C48_4 1_555 1_555
Co1_3 N7_4 1_555 1_555
Sm1_4 O4_4 1_555 1_555
N9_3 Co1_3 1_555 1_555
N10_3 Co1_3 1_555 1_555
N12_4 Co1_3 1_555 1_555
Co3_4 N5_4 1_555 1_555
Sm3_4 O3_4 1_555 1_555
C6_4 N6_4 1_555 1_555
C8_4 N5_4 1_555 1_555
C10_4 C11_4 1_555 1_555
C18_4 N7_4 1_555 1_555
C20_4 N8_4 1_555 1_555
C22_4 C23_4 1_555 1_555
C30_4 N4_4 1_555 1_555
C32_4 N3_4 1_555 1_555
C34_4 C35_4 1_555 1_555
C42_4 N10 1_555 1_555
N6_4 Co3_4 1_555 1_555
N8_4 Co1_3 1_555 1_555
O5_4 Sm1_4 1_555 1_555
O6_4 Sm1_4 1_555 1_555
O7_4 Sm1_4 1_555 1_555
O8_4 Sm1_4 1_555 1_555
O9_4 Sm1_4 1_555 1_555
O10_4 Sm1_4 1_555 1_555
O11_4 Sm1_4 1_555 1_555
O12_4 Sm1_4 1_555 1_555
O19_4 Sm3_4 1_555 1_555
O20_4 Sm3_4 1_555 1_555
C44_4 H23_4 1_555 1_555
C45_4 C44_4 1_555 1_555
H24_4 C45_4 1_555 1_555
C46_4 C45_4 1_555 1_555
H25_4 C46_4 1_555 1_555
C47_4 C43_4 1_555 1_555
N9 C43_4 1_555 1_555
O14_4 H32_4 1_555 1_555
H33_4 O14_4 1_555 1_555
O15_4 H34_4 1_555 1_555
H35_4 O15_4 1_555 1_555
O16_4 C13_4 1_555 1_555
O18_4 H36_4 1_555 1_555
Sm3_4 O13_4 1_555 1_555
C44_4 N9 1_555 1_555
C46_4 C47_4 1_555 1_555
O14_4 Sm3_4 1_555 1_555
O15_4 Sm3_4 1_555 1_555
O16_4 Sm3_4 1_555 1_555
O18_4 Sm3_4 1_555 1_555
C19_5 C18_5 1_555 1_555
C20_5 H11_5 1_555 1_555
C21_5 C20_5 1_555 1_555
H12_5 C21_5 1_555 1_555
C22_5 C21_5 1_555 1_555
H13_5 C22_5 1_555 1_555
C23_5 C19_5 1_555 1_555
H15_5 C28_5 1_555 1_555
C29_5 C28_5 1_555 1_555
H16_5 C29_5 1_555 1_555
N7_5 C17_5 1_555 1_555
N8_5 C19_5 1_555 1_555
Co1_4 N7_5 1_555 1_555
N9_4 Co1_4 1_555 1_555
N10_4 Co1_4 1_555 1_555
N11_5 Co1_4 1_555 1_555
N12_5 Co1_4 1_555 1_555
C18_5 N7_5 1_555 1_555
C20_5 N8_5 1_555 1_555
C22_5 C23_5 1_555 1_555
N8_5 Co1_4 1_555 1_555
O19_5 Sm3_5 1_555 1_555
H1_5 O18_5 1_555 1_555
C1_5 C2_5 1_555 1_555
C2_5 C3_5 1_555 1_555
C3_5 H2_5 1_555 1_555
C4_5 C3_5 1_555 1_555
H3_5 C4_5 1_555 1_555
C6_5 C2_5 1_555 1_555
C7_5 C6_5 1_555 1_555
C11_5 C7_5 1_555 1_555
C12_5 C11_5 1_555 1_555
C13_5 C14_5 1_555 1_555
C14_5 C15_5 1_555 1_555
C15_5 H8_5 1_555 1_555
C25_5 C26_5 1_555 1_555
C26_5 C27_5 1_555 1_555
C30_5 C26_5 1_555 1_555
C31_5 C30_5 1_555 1_555
C32_5 H17_5 1_555 1_555
C33_5 C32_5 1_555 1_555
H18_5 C33_5 1_555 1_555
C34_5 C33_5 1_555 1_555
H19_5 C34_5 1_555 1_555
C35_5 C31_5 1_555 1_555
C36_5 C35_5 1_555 1_555
C37_5 C38_5 1_555 1_555
C38_5 C39_5 1_555 1_555
C39_5 H20_5 1_555 1_555
C40_5 C39_5 1_555 1_555
H21_5 C40_5 1_555 1_555
C41_5 C40_5 1_555 1_555
H22_5 C41_5 1_555 1_555
C42_5 C38_5 1_555 1_555
C43_5 C42_5 1_555 1_555
C45_5 C44_5 1_555 1_555
C46_5 C45_5 1_555 1_555
H25_5 C46_5 1_555 1_555
C47_5 C43_5 1_555 1_555
C48_5 C47_5 1_555 1_555
N9_2 C43_5 1_555 1_555
N10_2 C41_5 1_555 1_555
N3_5 C31_5 1_555 1_555
O1_5 C1_5 1_555 1_555
O2_5 C1_5 1_555 1_555
O3_5 C12_5 1_555 1_555
O4_5 C12_5 1_555 1_555
O5_5 H26_5 1_555 1_555
H27_5 O5_5 1_555 1_555
O6_5 H28_5 1_555 1_555
H29_5 O6_5 1_555 1_555
O7_5 H30_5 1_555 1_555
H31_5 O7_5 1_555 1_555
O8_5 C36_5 1_555 1_555
O9_5 C36_5 1_555 1_555
O10_5 C24_5 1_555 1_555
O11_5 C24_5 1_555 1_555
O12_5 C37_5 1_555 1_555
O13_5 C37_5 1_555 1_555
O14_5 H32_5 1_555 1_555
H33_5 O14_5 1_555 1_555
O16_5 C13_5 1_555 1_555
O17_5 C13_5 1_555 1_555
O18_5 H36_5 1_555 1_555
O20_5 C25_5 1_555 1_555
O21_5 C48_5 1_555 1_555
O22_5 C48_5 1_555 1_555
Sm1_5 O4_5 1_555 1_555
Sm3_5 O13_5 1_555 1_555
C10_5 C11_5 1_555 1_555
C30_5 N4_5 1_555 1_555
C32_5 N3_5 1_555 1_555
C34_5 C35_5 1_555 1_555
C42_5 N10_2 1_555 1_555
C44_5 N9_2 1_555 1_555
C46_5 C47_5 1_555 1_555
O5_5 Sm1_5 1_555 1_555
O6_5 Sm1_5 1_555 1_555
O7_5 Sm1_5 1_555 1_555
O8_5 Sm1_5 1_555 1_555
O9_5 Sm1_5 1_555 1_555
O10_5 Sm1_5 1_555 1_555
O11_5 Sm1_5 1_555 1_555
O12_5 Sm1_5 1_555 1_555
O14_5 Sm3_5 1_555 1_555
O16_5 Sm3_5 1_555 1_555
O17_5 Sm3_5 1_555 1_555
O18_5 Sm3_5 1_555 1_555
O15_5 H34_5 1_555 1_555
H35_5 O15_5 1_555 1_555
H4_5 C5_5 1_555 1_555
C8_5 H5_5 1_555 1_555
C9_5 C8_5 1_555 1_555
N6_5 C5_5 1_555 1_555
Co3_5 N5_5 1_555 1_555
C8_5 N5_5 1_555 1_555
N6_5 Co3_5 1_555 1_555
C8_6 H5_6 1_555 1_555
C9_6 C8_6 1_555 1_555
H6_5 C9_6 1_555 1_555
C10_6 C9_6 1_555 1_555
H7_6 C10_6 1_555 1_555
C11_6 C7_6 1_555 1_555
C12_6 C11_6 1_555 1_555
C25_6 C26_6 1_555 1_555
C26_6 C27_6 1_555 1_555
C27_6 H14_6 1_555 1_555
C28_6 C27_6 1_555 1_555
H15_6 C28_6 1_555 1_555
C29_6 C28_6 1_555 1_555
C30_6 C26_6 1_555 1_555
C31_6 C30_6 1_555 1_555
C32_6 H17_6 1_555 1_555
C33_6 C32_6 1_555 1_555
H18_6 C33_6 1_555 1_555
C34_6 C33_6 1_555 1_555
H19_6 C34_6 1_555 1_555
C35_6 C31_6 1_555 1_555
N3_6 C31_6 1_555 1_555
N4_6 C29_6 1_555 1_555
N5_6 C7_6 1_555 1_555
O1_6 C1_6 1_555 1_555
O2_6 C1_6 1_555 1_555
O3_6 C12_6 1_555 1_555
O4_6 C12_6 1_555 1_555
O19_6 C25_6 1_555 1_555
O20_6 C25_6 1_555 1_555
Sm3_6 O3_6 1_555 1_555
C8_6 N5_6 1_555 1_555
C10_6 C11_6 1_555 1_555
C30_6 N4_6 1_555 1_555
C32_6 N3_6 1_555 1_555
C34_6 C35_6 1_555 1_555
O19_6 Sm3_6 1_555 1_555
O20_6 Sm3_6 1_555 1_555
H1_6 O18_6 1_555 1_555
C2_6 C3_6 1_555 1_555
C3_6 H2_6 1_555 1_555
C4_6 C3_6 1_555 1_555
H3_6 C4_6 1_555 1_555
C5_6 C4_6 1_555 1_555
H4_6 C5_6 1_555 1_555
C6_6 C2_6 1_555 1_555
C13_6 C14_6 1_555 1_555
C14_6 C15_6 1_555 1_555
C15_6 H8_6 1_555 1_555
C16_5 C15_6 1_555 1_555
H9_5 C16_5 1_555 1_555
C17_6 C16_5 1_555 1_555
H10_5 C17_6 1_555 1_555
C18_6 C14_6 1_555 1_555
C19_6 C18_6 1_555 1_555
C20_6 H11_6 1_555 1_555
C21_6 C20_6 1_555 1_555
H12_6 C21_6 1_555 1_555
C22_6 C21_6 1_555 1_555
H13_6 C22_6 1_555 1_555
C23_6 C19_6 1_555 1_555
C24_6 C23_6 1_555 1_555
C37_6 C38_6 1_555 1_555
C38_6 C39_6 1_555 1_555
C39_6 H20_6 1_555 1_555
C40_6 C39_6 1_555 1_555
H21_6 C40_6 1_555 1_555
C41_6 C40_6 1_555 1_555
H22_6 C41_6 1_555 1_555
C42_6 C38_6 1_555 1_555
C43_6 C42_6 1_555 1_555
C44_6 H23_6 1_555 1_555
C45_6 C44_6 1_555 1_555
H24_6 C45_6 1_555 1_555
C46_6 C45_6 1_555 1_555
H25_6 C46_6 1_555 1_555
C47_6 C43_6 1_555 1_555
C48_6 C47_6 1_555 1_555
N1_4 C43_6 1_555 1_555
N2_4 C41_6 1_555 1_555
N6_6 C5_6 1_555 1_555
N7_6 C17_6 1_555 1_555
N8_6 C19_6 1_555 1_555
O5_6 H26_6 1_555 1_555
H27_6 O5_6 1_555 1_555
O6_6 H28_6 1_555 1_555
H29_6 O6_6 1_555 1_555
O7_6 H30_6 1_555 1_555
H31_6 O7_6 1_555 1_555
O9_6 C36_6 1_555 1_555
O10_6 C24_6 1_555 1_555
O11_6 C24_6 1_555 1_555
O12_6 C37_6 1_555 1_555
O13_6 C37_6 1_555 1_555
O14_6 H32_6 1_555 1_555
H33_6 O14_6 1_555 1_555
O15_6 H34_6 1_555 1_555
H35_6 O15_6 1_555 1_555
O16_6 C13_6 1_555 1_555
O17_6 C13_6 1_555 1_555
O18_6 H36_6 1_555 1_555
O21_6 C48_6 1_555 1_555
O22_6 C48_6 1_555 1_555
Co2 N7_6 1_555 1_555
Sm3_6 O13_6 1_555 1_555
N11_6 Co2 1_555 1_555
N12_6 Co2 1_555 1_555
Co2_4 N1_4 1_555 1_555
C6_6 N6_6 1_555 1_555
C18_6 N7_6 1_555 1_555
C20_6 N8_6 1_555 1_555
C22_6 C23_6 1_555 1_555
C42_6 N2_4 1_555 1_555
C44_6 N1_4 1_555 1_555
C46_6 C47_6 1_555 1_555
N2_4 Co2_4 1_555 1_555
N6_6 Co3_6 1_555 1_555
N8_6 Co2 1_555 1_555
O5_6 Sm1_6 1_555 1_555
O6_6 Sm1_6 1_555 1_555
O7_6 Sm1_6 1_555 1_555
O9_6 Sm1_6 1_555 1_555
O10_6 Sm1_6 1_555 1_555
O11_6 Sm1_6 1_555 1_555
O12_6 Sm1_6 1_555 1_555
O14_6 Sm3_6 1_555 1_555
O15_6 Sm3_6 1_555 1_555
O16_6 Sm3_6 1_555 1_555
O17_6 Sm3_6 1_555 1_555
O18_6 Sm3_6 1_555 1_555
H4_7 C5_7 1_555 1_555
C8_7 H5_7 1_555 1_555
C9_7 C8_7 1_555 1_555
H9_6 C16_6 1_555 1_555
N6_7 C5_7 1_555 1_555
Co3_7 N5_7 1_555 1_555
C8_7 N5_7 1_555 1_555
N6_7 Co3_7 1_555 1_555
O19_7 Sm3_7 1_555 1_555
H1_7 O18_7 1_555 1_555
C1_7 C2_7 1_555 1_555
C2_7 C3_7 1_555 1_555
C3_7 H2_7 1_555 1_555
C4_7 C3_7 1_555 1_555
H3_7 C4_7 1_555 1_555
C6_7 C2_7 1_555 1_555
C7_7 C6_7 1_555 1_555
C11_7 C7_7 1_555 1_555
C12_7 C11_7 1_555 1_555
C13_7 C14_7 1_555 1_555
C14_7 C15_7 1_555 1_555
C15_7 H8_7 1_555 1_555
C18_7 C14_7 1_555 1_555
C19_7 C18_7 1_555 1_555
C20_7 H11_7 1_555 1_555
C21_7 C20_7 1_555 1_555
H12_7 C21_7 1_555 1_555
C22_7 C21_7 1_555 1_555
H13_7 C22_7 1_555 1_555
C23_7 C19_7 1_555 1_555
C24_7 C23_7 1_555 1_555
C25_7 C26_7 1_555 1_555
C26_7 C27_7 1_555 1_555
C27_7 H14_7 1_555 1_555
C28_7 C27_7 1_555 1_555
H15_7 C28_7 1_555 1_555
C29_7 C28_7 1_555 1_555
H16_7 C29_7 1_555 1_555
C30_7 C26_7 1_555 1_555
C31_7 C30_7 1_555 1_555
C32_7 H17_7 1_555 1_555
C33_7 C32_7 1_555 1_555
H18_7 C33_7 1_555 1_555
C34_7 C33_7 1_555 1_555
H19_7 C34_7 1_555 1_555
C35_7 C31_7 1_555 1_555
C36_7 C35_7 1_555 1_555
C37_7 C38_7 1_555 1_555
C38_7 C39_7 1_555 1_555
C39_7 H20_7 1_555 1_555
C40_7 C39_7 1_555 1_555
H21_7 C40_7 1_555 1_555
C41_7 C40_7 1_555 1_555
H22_7 C41_7 1_555 1_555
C42_7 C38_7 1_555 1_555
C43_7 C42_7 1_555 1_555
C45_7 C44_7 1_555 1_555
C46_7 C45_7 1_555 1_555
H25_7 C46_7 1_555 1_555
C47_7 C43_7 1_555 1_555
C48_7 C47_7 1_555 1_555
N9_3 C43_7 1_555 1_555
N10_3 C41_7 1_555 1_555
N3_7 C31_7 1_555 1_555
N4_7 C29_7 1_555 1_555
N7_7 C17_7 1_555 1_555
N8_7 C19_7 1_555 1_555
O1_7 C1_7 1_555 1_555
O2_7 C1_7 1_555 1_555
O3_7 C12_7 1_555 1_555
O4_7 C12_7 1_555 1_555
O5_7 H26_7 1_555 1_555
H27_7 O5_7 1_555 1_555
O6_7 H28_7 1_555 1_555
H29_7 O6_7 1_555 1_555
O7_7 H30_7 1_555 1_555
H31_7 O7_7 1_555 1_555
O8_7 C36_7 1_555 1_555
O9_7 C36_7 1_555 1_555
O10_7 C24_7 1_555 1_555
O11_7 C24_7 1_555 1_555
O12_7 C37_7 1_555 1_555
O13_7 C37_7 1_555 1_555
O14_7 H32_7 1_555 1_555
H33_7 O14_7 1_555 1_555
O16_7 C13_7 1_555 1_555
O17_7 C13_7 1_555 1_555
O18_7 H36_7 1_555 1_555
O20_7 C25_7 1_555 1_555
O21_7 C48_7 1_555 1_555
O22_7 C48_7 1_555 1_555
Co2_4 N7_7 1_555 1_555
Sm1_7 O4_7 1_555 1_555
Sm3_7 O13_7 1_555 1_555
N11_7 Co2_4 1_555 1_555
N12_7 Co2_4 1_555 1_555
C10_7 C11_7 1_555 1_555
C18_7 N7_7 1_555 1_555
C20_7 N8_7 1_555 1_555
C22_7 C23_7 1_555 1_555
C30_7 N4_7 1_555 1_555
C32_7 N3_7 1_555 1_555
C34_7 C35_7 1_555 1_555
C42_7 N10_3 1_555 1_555
C44_7 N9_3 1_555 1_555
C46_7 C47_7 1_555 1_555
N8_7 Co2_4 1_555 1_555
O5_7 Sm1_7 1_555 1_555
O6_7 Sm1_7 1_555 1_555
O7_7 Sm1_7 1_555 1_555
O8_7 Sm1_7 1_555 1_555
O9_7 Sm1_7 1_555 1_555
O10_7 Sm1_7 1_555 1_555
O11_7 Sm1_7 1_555 1_555
O12_7 Sm1_7 1_555 1_555
O14_7 Sm3_7 1_555 1_555
O16_7 Sm3_7 1_555 1_555
O17_7 Sm3_7 1_555 1_555
O18_7 Sm3_7 1_555 1_555
O15_7 H34_7 1_555 1_555
H35_7 O15_7 1_555 1_555
C8_8 H5_8 1_555 1_555
C9_8 C8_8 1_555 1_555
H6_6 C9_8 1_555 1_555
C10_8 C9_8 1_555 1_555
H7_8 C10_8 1_555 1_555
C11_8 C7_8 1_555 1_555
C12_8 C11_8 1_555 1_555
C25_8 C26_8 1_555 1_555
C26_8 C27_8 1_555 1_555
C27_8 H14_8 1_555 1_555
C28_8 C27_8 1_555 1_555
H15_8 C28_8 1_555 1_555
C29_8 C28_8 1_555 1_555
C30_8 C26_8 1_555 1_555
C31_8 C30_8 1_555 1_555
C32_8 H17_8 1_555 1_555
C33_8 C32_8 1_555 1_555
H18_8 C33_8 1_555 1_555
C34_8 C33_8 1_555 1_555
H19_8 C34_8 1_555 1_555
C35_8 C31_8 1_555 1_555
N3_8 C31_8 1_555 1_555
N4_8 C29_8 1_555 1_555
N5_8 C7_8 1_555 1_555
O1_8 C1_8 1_555 1_555
O2_8 C1_8 1_555 1_555
O3_8 C12_8 1_555 1_555
O4_8 C12_8 1_555 1_555
O19_8 C25_8 1_555 1_555
O20_8 C25_8 1_555 1_555
Sm3_8 O3_8 1_555 1_555
C8_8 N5_8 1_555 1_555
C10_8 C11_8 1_555 1_555
C30_8 N4_8 1_555 1_555
C32_8 N3_8 1_555 1_555
C34_8 C35_8 1_555 1_555
O19_8 Sm3_8 1_555 1_555
O20_8 Sm3_8 1_555 1_555
H1_8 O18_8 1_555 1_555
C2_8 C3_8 1_555 1_555
C3_8 H2_8 1_555 1_555
C4_8 C3_8 1_555 1_555
H3_8 C4_8 1_555 1_555
C5_8 C4_8 1_555 1_555
H4_8 C5_8 1_555 1_555
C6_8 C2_8 1_555 1_555
C13_8 C14_8 1_555 1_555
C14_8 C15_8 1_555 1_555
C15_8 H8_8 1_555 1_555
C16_7 C15_8 1_555 1_555
H9_7 C16_7 1_555 1_555
C17_8 C16_7 1_555 1_555
H10_7 C17_8 1_555 1_555
C18_8 C14_8 1_555 1_555
C19_8 C18_8 1_555 1_555
C20_8 H11_8 1_555 1_555
C21_8 C20_8 1_555 1_555
H12_8 C21_8 1_555 1_555
C22_8 C21_8 1_555 1_555
H13_8 C22_8 1_555 1_555
C23_8 C19_8 1_555 1_555
C24_8 C23_8 1_555 1_555
C37_8 C38_8 1_555 1_555
C38_8 C39_8 1_555 1_555
C39_8 H20_8 1_555 1_555
C40_8 C39_8 1_555 1_555
H21_8 C40_8 1_555 1_555
C41_8 C40_8 1_555 1_555
H22_8 C41_8 1_555 1_555
C42_8 C38_8 1_555 1_555
C43_8 C42_8 1_555 1_555
C44_8 H23_8 1_555 1_555
C45_8 C44_8 1_555 1_555
H24_8 C45_8 1_555 1_555
C46_8 C45_8 1_555 1_555
H25_8 C46_8 1_555 1_555
C47_8 C43_8 1_555 1_555
C48_8 C47_8 1_555 1_555
N9_4 C43_8 1_555 1_555
N10_4 C41_8 1_555 1_555
N6_8 C5_8 1_555 1_555
N7_8 C17_8 1_555 1_555
N8_8 C19_8 1_555 1_555
O5_8 H26_8 1_555 1_555
H27_8 O5_8 1_555 1_555
O6_8 H28_8 1_555 1_555
H29_8 O6_8 1_555 1_555
O7_8 H30_8 1_555 1_555
H31_8 O7_8 1_555 1_555
O9_8 C36_8 1_555 1_555
O10_8 C24_8 1_555 1_555
O11_8 C24_8 1_555 1_555
O12_8 C37_8 1_555 1_555
O13_8 C37_8 1_555 1_555
O14_8 H32_8 1_555 1_555
H33_8 O14_8 1_555 1_555
O15_8 H34_8 1_555 1_555
H35_8 O15_8 1_555 1_555
O16_8 C13_8 1_555 1_555
O17_8 C13_8 1_555 1_555
O18_8 H36_8 1_555 1_555
O21_8 C48_8 1_555 1_555
O22_8 C48_8 1_555 1_555
Co2_3 N7_8 1_555 1_555
Sm3_8 O13_8 1_555 1_555
N11_8 Co2_3 1_555 1_555
N12_8 Co2_3 1_555 1_555
C6_8 N6_8 1_555 1_555
C18_8 N7_8 1_555 1_555
C20_8 N8_8 1_555 1_555
C22_8 C23_8 1_555 1_555
C42_8 N10_4 1_555 1_555
C44_8 N9_4 1_555 1_555
C46_8 C47_8 1_555 1_555
N6_8 Co3_8 1_555 1_555
N8_8 Co2_3 1_555 1_555
O5_8 Sm1_8 1_555 1_555
O6_8 Sm1_8 1_555 1_555
O7_8 Sm1_8 1_555 1_555
O9_8 Sm1_8 1_555 1_555
O10_8 Sm1_8 1_555 1_555
O11_8 Sm1_8 1_555 1_555
O12_8 Sm1_8 1_555 1_555
O14_8 Sm3_8 1_555 1_555
O15_8 Sm3_8 1_555 1_555
O16_8 Sm3_8 1_555 1_555
O17_8 Sm3_8 1_555 1_555
O18_8 Sm3_8 1_555 1_555
H1_9 O18_9 1_555 1_555
C13_9 C14_9 1_555 1_555
C14_9 C15_9 1_555 1_555
C15_9 H8_9 1_555 1_555
C16_8 C15_9 1_555 1_555
H9_8 C16_8 1_555 1_555
C17_9 C16_8 1_555 1_555
H10_8 C17_9 1_555 1_555
C18_9 C14_9 1_555 1_555
C19_9 C18_9 1_555 1_555
C20_9 H11_9 1_555 1_555
C21_9 C20_9 1_555 1_555
H12_9 C21_9 1_555 1_555
C22_9 C21_9 1_555 1_555
H13_9 C22_9 1_555 1_555
C23_9 C19_9 1_555 1_555
C24_9 C23_9 1_555 1_555
C37_9 C38_9 1_555 1_555
C38_9 C39_9 1_555 1_555
C40_9 C39_9 1_555 1_555
C41_9 C40_9 1_555 1_555
H22_9 C41_9 1_555 1_555
C42_9 C38_9 1_555 1_555
C43_9 C42_9 1_555 1_555
C44_9 H23_9 1_555 1_555
C45_9 C44_9 1_555 1_555
H24_9 C45_9 1_555 1_555
C46_9 C45_9 1_555 1_555
H25_9 C46_9 1_555 1_555
C47_9 C43_9 1_555 1_555
C48_9 C47_9 1_555 1_555
N1_5 C43_9 1_555 1_555
N2_5 C41_9 1_555 1_555
N7_9 C17_9 1_555 1_555
N8_9 C19_9 1_555 1_555
O5_9 H26_9 1_555 1_555
O11_9 C24_9 1_555 1_555
O12_9 C37_9 1_555 1_555
O13_9 C37_9 1_555 1_555
O14_9 H32_9 1_555 1_555
H33_9 O14_9 1_555 1_555
O15_9 H34_9 1_555 1_555
H35_9 O15_9 1_555 1_555
O16_9 C13_9 1_555 1_555
O17_9 C13_9 1_555 1_555
O18_9 H36_9 1_555 1_555
O21_9 C48_9 1_555 1_555
O22_9 C48_9 1_555 1_555
Co3 N7_9 1_555 1_555
Sm2 O13_9 1_555 1_555
N9_5 Co3 1_555 1_555
O23 Sm2 1_555 1_555
O24 Sm2 1_555 1_555
O25 Sm2 1_555 1_555
Co3_2 N1_5 1_555 1_555
C18_9 N7_9 1_555 1_555
C20_9 N8_9 1_555 1_555
C22_9 C23_9 1_555 1_555
C42_9 N2_5 1_555 1_555
C44_9 N1_5 1_555 1_555
C46_9 C47_9 1_555 1_555
N2_5 Co3_2 1_555 1_555
N8_9 Co3 1_555 1_555
O14_9 Sm2 1_555 1_555
O15_9 Sm2 1_555 1_555
O16_9 Sm2 1_555 1_555
O17_9 Sm2 1_555 1_555
O18_9 Sm2 1_555 1_555
C1_9 C2_9 1_555 1_555
C2_9 C3_9 1_555 1_555
C3_9 H2_9 1_555 1_555
C4_9 C3_9 1_555 1_555
C5_9 C4_9 1_555 1_555
C6_9 C2_9 1_555 1_555
C7_9 C6_9 1_555 1_555
C8_9 H5_9 1_555 1_555
C9_9 C8_9 1_555 1_555
H6_7 C9_9 1_555 1_555
C10_9 C9_9 1_555 1_555
H7_9 C10_9 1_555 1_555
C11_9 C7_9 1_555 1_555
C12_9 C11_9 1_555 1_555
C25_9 C26_9 1_555 1_555
C26_9 C27_9 1_555 1_555
C27_9 H14_9 1_555 1_555
C28_9 C27_9 1_555 1_555
H15_9 C28_9 1_555 1_555
C29_9 C28_9 1_555 1_555
H16_9 C29_9 1_555 1_555
C30_9 C26_9 1_555 1_555
C31_9 C30_9 1_555 1_555
C32_9 H17_9 1_555 1_555
C33_9 C32_9 1_555 1_555
H18_9 C33_9 1_555 1_555
C34_9 C33_9 1_555 1_555
H19_9 C34_9 1_555 1_555
C35_9 C31_9 1_555 1_555
C36_9 C35_9 1_555 1_555
N3_9 C31_9 1_555 1_555
N4_9 C29_9 1_555 1_555
N11 C7_9 1_555 1_555
N12 C5_9 1_555 1_555
O1_9 C1_9 1_555 1_555
O2_9 C1_9 1_555 1_555
O23 C12_9 1_555 1_555
O4_9 C12_9 1_555 1_555
O6_9 H28_9 1_555 1_555
H29_9 O6_9 1_555 1_555
O7_9 H30_9 1_555 1_555
H31_9 O7_9 1_555 1_555
O8_9 C36_9 1_555 1_555
O9_9 C36_9 1_555 1_555
O24 C25_9 1_555 1_555
O25 C25_9 1_555 1_555
Sm1_9 O4_9 1_555 1_555
C6_9 N12 1_555 1_555
C8_9 N11 1_555 1_555
C10_9 C11_9 1_555 1_555
C30_9 N4_9 1_555 1_555
C32_9 N3_9 1_555 1_555
C34_9 C35_9 1_555 1_555
O6_9 Sm1_9 1_555 1_555
O7_9 Sm1_9 1_555 1_555
O8_9 Sm1_9 1_555 1_555
O9_9 Sm1_9 1_555 1_555
O10_9 Sm1_9 1_555 1_555
C44_10 H23_10 1_555 1_555
C45_10 C44_10 1_555 1_555
H24_10 C45_10 1_555 1_555
C46_10 C45_10 1_555 1_555
H25_10 C46_10 1_555 1_555
C47_10 C43_10 1_555 1_555
N1_6 C43_10 1_555 1_555
O14_10 H32_10 1_555 1_555
H33_10 O14_10 1_555 1_555
O15_10 H34_10 1_555 1_555
H35_10 O15_10 1_555 1_555
O16_10 C13_10 1_555 1_555
O18_10 H36_10 1_555 1_555
Sm2_2 O13_10 1_555 1_555
O23_2 Sm2_2 1_555 1_555
O24_2 Sm2_2 1_555 1_555
O25_2 Sm2_2 1_555 1_555
Co3_3 N1_6 1_555 1_555
C44_10 N1_6 1_555 1_555
C46_10 C47_10 1_555 1_555
O14_10 Sm2_2 1_555 1_555
O15_10 Sm2_2 1_555 1_555
O16_10 Sm2_2 1_555 1_555
O18_10 Sm2_2 1_555 1_555
C1_10 C2_10 1_555 1_555
C2_10 C3_10 1_555 1_555
C3_10 H2_10 1_555 1_555
C4_10 C3_10 1_555 1_555
H3_10 C4_10 1_555 1_555
C5_10 C4_10 1_555 1_555
H4_10 C5_10 1_555 1_555
C6_10 C2_10 1_555 1_555
C7_10 C6_10 1_555 1_555
C8_10 H5_10 1_555 1_555
C9_10 C8_10 1_555 1_555
H6_8 C9_10 1_555 1_555
C10_10 C9_10 1_555 1_555
H7_10 C10_10 1_555 1_555
C11_10 C7_10 1_555 1_555
C12_10 C11_10 1_555 1_555
C14_10 C15_10 1_555 1_555
C15_10 H8_10 1_555 1_555
C16_9 C15_10 1_555 1_555
H9_9 C16_9 1_555 1_555
C17_10 C16_9 1_555 1_555
H10_9 C17_10 1_555 1_555
C18_10 C14_10 1_555 1_555
C19_10 C18_10 1_555 1_555
C20_10 H11_10 1_555 1_555
C21_10 C20_10 1_555 1_555
H12_10 C21_10 1_555 1_555
C22_10 C21_10 1_555 1_555
H13_10 C22_10 1_555 1_555
C23_10 C19_10 1_555 1_555
C24_10 C23_10 1_555 1_555
C25_10 C26_10 1_555 1_555
C26_10 C27_10 1_555 1_555
C27_10 H14_10 1_555 1_555
C28_10 C27_10 1_555 1_555
H15_10 C28_10 1_555 1_555
C29_10 C28_10 1_555 1_555
H16_10 C29_10 1_555 1_555
C30_10 C26_10 1_555 1_555
C31_10 C30_10 1_555 1_555
C32_10 H17_10 1_555 1_555
C33_10 C32_10 1_555 1_555
H18_10 C33_10 1_555 1_555
C34_10 C33_10 1_555 1_555
H19_10 C34_10 1_555 1_555
C35_10 C31_10 1_555 1_555
C36_10 C35_10 1_555 1_555
C37_10 C38_10 1_555 1_555
C38_10 C39_10 1_555 1_555
C39_10 H20_10 1_555 1_555
C40_10 C39_10 1_555 1_555
H21_10 C40_10 1_555 1_555
C41_10 C40_10 1_555 1_555
H22_10 C41_10 1_555 1_555
C42_10 C38_10 1_555 1_555
N2_6 C41_10 1_555 1_555
N3_10 C31_10 1_555 1_555
N4_10 C29_10 1_555 1_555
N11_6 C7_10 1_555 1_555
N12_6 C5_10 1_555 1_555
N7_10 C17_10 1_555 1_555
N8_10 C19_10 1_555 1_555
O1_10 C1_10 1_555 1_555
O2_10 C1_10 1_555 1_555
O23_2 C12_10 1_555 1_555
O4_10 C12_10 1_555 1_555
O5_10 H26_10 1_555 1_555
H27_10 O5_10 1_555 1_555
O6_10 H28_10 1_555 1_555
H29_10 O6_10 1_555 1_555
O7_10 H30_10 1_555 1_555
H31_10 O7_10 1_555 1_555
O8_10 C36_10 1_555 1_555
O9_10 C36_10 1_555 1_555
O10_10 C24_10 1_555 1_555
O11_10 C24_10 1_555 1_555
O12_10 C37_10 1_555 1_555
O24_2 C25_10 1_555 1_555
O25_2 C25_10 1_555 1_555
O21_10 C48_10 1_555 1_555
O22_10 C48_10 1_555 1_555
Co3_6 N7_10 1_555 1_555
Sm1_10 O4_10 1_555 1_555
N9_6 Co3_6 1_555 1_555
N10_6 Co3_6 1_555 1_555
C6_10 N12_6 1_555 1_555
C8_10 N11_6 1_555 1_555
C10_10 C11_10 1_555 1_555
C18_10 N7_10 1_555 1_555
C20_10 N8_10 1_555 1_555
C22_10 C23_10 1_555 1_555
C30_10 N4_10 1_555 1_555
C32_10 N3_10 1_555 1_555
C34_10 C35_10 1_555 1_555
C42_10 N2_6 1_555 1_555
N8_10 Co3_6 1_555 1_555
O5_10 Sm1_10 1_555 1_555
O6_10 Sm1_10 1_555 1_555
O7_10 Sm1_10 1_555 1_555
O8_10 Sm1_10 1_555 1_555
O9_10 Sm1_10 1_555 1_555
O10_10 Sm1_10 1_555 1_555
O11_10 Sm1_10 1_555 1_555
O12_10 Sm1_10 1_555 1_555
H9_10 C16_10 1_555 1_555
C17_11 C16_10 1_555 1_555
H10_10 C17_11 1_555 1_555
C19_11 C18_11 1_555 1_555
C20_11 H11_11 1_555 1_555
C21_11 C20_11 1_555 1_555
H12_11 C21_11 1_555 1_555
C22_11 C21_11 1_555 1_555
H13_11 C22_11 1_555 1_555
C23_11 C19_11 1_555 1_555
N7_11 C17_11 1_555 1_555
N8_11 C19_11 1_555 1_555
Co3_3 N7_11 1_555 1_555
C18_11 N7_11 1_555 1_555
C20_11 N8_11 1_555 1_555
C22_11 C23_11 1_555 1_555
N8_11 Co3_3 1_555 1_555
H15_11 C28_11 1_555 1_555
C29_11 C28_11 1_555 1_555
H16_11 C29_11 1_555 1_555
H1_11 O18_11 1_555 1_555
C13_11 C14_11 1_555 1_555
C14_11 C15_11 1_555 1_555
C15_11 H8_11 1_555 1_555
C37_11 C38_11 1_555 1_555
C38_11 C39_11 1_555 1_555
C40_11 C39_11 1_555 1_555
C41_11 C40_11 1_555 1_555
H22_11 C41_11 1_555 1_555
C42_11 C38_11 1_555 1_555
C43_11 C42_11 1_555 1_555
C44_11 H23_11 1_555 1_555
C45_11 C44_11 1_555 1_555
H24_11 C45_11 1_555 1_555
C46_11 C45_11 1_555 1_555
H25_11 C46_11 1_555 1_555
C47_11 C43_11 1_555 1_555
C48_11 C47_11 1_555 1_555
N1_7 C43_11 1_555 1_555
N2_7 C41_11 1_555 1_555
O5_11 H26_11 1_555 1_555
O11_11 C24_11 1_555 1_555
O12_11 C37_11 1_555 1_555
O13_11 C37_11 1_555 1_555
O14_11 H32_11 1_555 1_555
H33_11 O14_11 1_555 1_555
O15_11 H34_11 1_555 1_555
H35_11 O15_11 1_555 1_555
O16_11 C13_11 1_555 1_555
O17_11 C13_11 1_555 1_555
O18_11 H36_11 1_555 1_555
O21_11 C48_11 1_555 1_555
O22_11 C48_11 1_555 1_555
Sm2_3 O13_11 1_555 1_555
O23_3 Sm2_3 1_555 1_555
O24_3 Sm2_3 1_555 1_555
O25_3 Sm2_3 1_555 1_555
Co3_4 N1_7 1_555 1_555
C42_11 N2_7 1_555 1_555
C44_11 N1_7 1_555 1_555
C46_11 C47_11 1_555 1_555
N2_7 Co3_4 1_555 1_555
O14_11 Sm2_3 1_555 1_555
O15_11 Sm2_3 1_555 1_555
O16_11 Sm2_3 1_555 1_555
O17_11 Sm2_3 1_555 1_555
O18_11 Sm2_3 1_555 1_555
C1_11 C2_11 1_555 1_555
C2_11 C3_11 1_555 1_555
C3_11 H2_11 1_555 1_555
C4_11 C3_11 1_555 1_555
C5_11 C4_11 1_555 1_555
C6_11 C2_11 1_555 1_555
C7_11 C6_11 1_555 1_555
C8_11 H5_11 1_555 1_555
C9_11 C8_11 1_555 1_555
H6_9 C9_11 1_555 1_555
C10_11 C9_11 1_555 1_555
H7_11 C10_11 1_555 1_555
C11_11 C7_11 1_555 1_555
C12_11 C11_11 1_555 1_555
C25_11 C26_11 1_555 1_555
C26_11 C27_11 1_555 1_555
C30_11 C26_11 1_555 1_555
C31_11 C30_11 1_555 1_555
C32_11 H17_11 1_555 1_555
C33_11 C32_11 1_555 1_555
H18_11 C33_11 1_555 1_555
C34_11 C33_11 1_555 1_555
H19_11 C34_11 1_555 1_555
C35_11 C31_11 1_555 1_555
C36_11 C35_11 1_555 1_555
N3_11 C31_11 1_555 1_555
N11_3 C7_11 1_555 1_555
N12_3 C5_11 1_555 1_555
O1_11 C1_11 1_555 1_555
O2_11 C1_11 1_555 1_555
O23_3 C12_11 1_555 1_555
O4_11 C12_11 1_555 1_555
O6_11 H28_11 1_555 1_555
H29_11 O6_11 1_555 1_555
O7_11 H30_11 1_555 1_555
H31_11 O7_11 1_555 1_555
O8_11 C36_11 1_555 1_555
O9_11 C36_11 1_555 1_555
O24_3 C25_11 1_555 1_555
O25_3 C25_11 1_555 1_555
Sm1_11 O4_11 1_555 1_555
C6_11 N12_3 1_555 1_555
C8_11 N11_3 1_555 1_555
C10_11 C11_11 1_555 1_555
C30_11 N4_11 1_555 1_555
C32_11 N3_11 1_555 1_555
C34_11 C35_11 1_555 1_555
O6_11 Sm1_11 1_555 1_555
O7_11 Sm1_11 1_555 1_555
O8_11 Sm1_11 1_555 1_555
O9_11 Sm1_11 1_555 1_555
O10_11 Sm1_11 1_555 1_555
C44_12 H23_12 1_555 1_555
C45_12 C44_12 1_555 1_555
H24_12 C45_12 1_555 1_555
C46_12 C45_12 1_555 1_555
H25_12 C46_12 1_555 1_555
C47_12 C43_12 1_555 1_555
N9_5 C43_12 1_555 1_555
O14_12 H32_12 1_555 1_555
H33_12 O14_12 1_555 1_555
O15_12 H34_12 1_555 1_555
H35_12 O15_12 1_555 1_555
O16_12 C13_12 1_555 1_555
O18_12 H36_12 1_555 1_555
Sm2_4 O13_12 1_555 1_555
O23_4 Sm2_4 1_555 1_555
O24_4 Sm2_4 1_555 1_555
O25_4 Sm2_4 1_555 1_555
C44_12 N9_5 1_555 1_555
C46_12 C47_12 1_555 1_555
O14_12 Sm2_4 1_555 1_555
O15_12 Sm2_4 1_555 1_555
O16_12 Sm2_4 1_555 1_555
O18_12 Sm2_4 1_555 1_555
C1_12 C2_12 1_555 1_555
C2_12 C3_12 1_555 1_555
C3_12 H2_12 1_555 1_555
C4_12 C3_12 1_555 1_555
H3_12 C4_12 1_555 1_555
C5_12 C4_12 1_555 1_555
H4_12 C5_12 1_555 1_555
C6_12 C2_12 1_555 1_555
C7_12 C6_12 1_555 1_555
C8_12 H5_12 1_555 1_555
C9_12 C8_12 1_555 1_555
H6_10 C9_12 1_555 1_555
C10_12 C9_12 1_555 1_555
H7_12 C10_12 1_555 1_555
C11_12 C7_12 1_555 1_555
C12_12 C11_12 1_555 1_555
C14_12 C15_12 1_555 1_555
C15_12 H8_12 1_555 1_555
C16_11 C15_12 1_555 1_555
H9_11 C16_11 1_555 1_555
C17_12 C16_11 1_555 1_555
H10_11 C17_12 1_555 1_555
C18_12 C14_12 1_555 1_555
C19_12 C18_12 1_555 1_555
C20_12 H11_12 1_555 1_555
C21_12 C20_12 1_555 1_555
H12_12 C21_12 1_555 1_555
C22_12 C21_12 1_555 1_555
H13_12 C22_12 1_555 1_555
C23_12 C19_12 1_555 1_555
C24_12 C23_12 1_555 1_555
C25_12 C26_12 1_555 1_555
C26_12 C27_12 1_555 1_555
C27_12 H14_12 1_555 1_555
C28_12 C27_12 1_555 1_555
H15_12 C28_12 1_555 1_555
C29_12 C28_12 1_555 1_555
H16_12 C29_12 1_555 1_555
C30_12 C26_12 1_555 1_555
C31_12 C30_12 1_555 1_555
C32_12 H17_12 1_555 1_555
C33_12 C32_12 1_555 1_555
H18_12 C33_12 1_555 1_555
C34_12 C33_12 1_555 1_555
H19_12 C34_12 1_555 1_555
C35_12 C31_12 1_555 1_555
C36_12 C35_12 1_555 1_555
C37_12 C38_12 1_555 1_555
C38_12 C39_12 1_555 1_555
C39_12 H20_12 1_555 1_555
C40_12 C39_12 1_555 1_555
H21_12 C40_12 1_555 1_555
C41_12 C40_12 1_555 1_555
H22_12 C41_12 1_555 1_555
C42_12 C38_12 1_555 1_555
N10_5 C41_12 1_555 1_555
N3_12 C31_12 1_555 1_555
N4_12 C29_12 1_555 1_555
N11_8 C7_12 1_555 1_555
N12_8 C5_12 1_555 1_555
N7_12 C17_12 1_555 1_555
N8_12 C19_12 1_555 1_555
O1_12 C1_12 1_555 1_555
O2_12 C1_12 1_555 1_555
O23_4 C12_12 1_555 1_555
O4_12 C12_12 1_555 1_555
O5_12 H26_12 1_555 1_555
H27_12 O5_12 1_555 1_555
O6_12 H28_12 1_555 1_555
H29_12 O6_12 1_555 1_555
O7_12 H30_12 1_555 1_555
H31_12 O7_12 1_555 1_555
O8_12 C36_12 1_555 1_555
O9_12 C36_12 1_555 1_555
O10_12 C24_12 1_555 1_555
O11_12 C24_12 1_555 1_555
O12_12 C37_12 1_555 1_555
O24_4 C25_12 1_555 1_555
O25_4 C25_12 1_555 1_555
O21_12 C48_12 1_555 1_555
O22_12 C48_12 1_555 1_555
Co3_8 N7_12 1_555 1_555
Sm1_12 O4_12 1_555 1_555
N9_7 Co3_8 1_555 1_555
N10_7 Co3_8 1_555 1_555
C6_12 N12_8 1_555 1_555
C8_12 N11_8 1_555 1_555
C10_12 C11_12 1_555 1_555
C18_12 N7_12 1_555 1_555
C20_12 N8_12 1_555 1_555
C22_12 C23_12 1_555 1_555
C30_12 N4_12 1_555 1_555
C32_12 N3_12 1_555 1_555
C34_12 C35_12 1_555 1_555
C42_12 N10_5 1_555 1_555
N8_12 Co3_8 1_555 1_555
O5_12 Sm1_12 1_555 1_555
O6_12 Sm1_12 1_555 1_555
O7_12 Sm1_12 1_555 1_555
O8_12 Sm1_12 1_555 1_555
O9_12 Sm1_12 1_555 1_555
O10_12 Sm1_12 1_555 1_555
O11_12 Sm1_12 1_555 1_555
O12_12 Sm1_12 1_555 1_555
H4_13 C5_13 1_555 1_555
C8_13 H5_13 1_555 1_555
C9_13 C8_13 1_555 1_555
N12_5 C5_13 1_555 1_555
C8_13 N11_5 1_555 1_555
O15_13 H34_13 1_555 1_555
H35_13 O15_13 1_555 1_555
H1_13 O18_13 1_555 1_555
C1_13 C2_13 1_555 1_555
C2_13 C3_13 1_555 1_555
C3_13 H2_13 1_555 1_555
C4_13 C3_13 1_555 1_555
H3_13 C4_13 1_555 1_555
C6_13 C2_13 1_555 1_555
C7_13 C6_13 1_555 1_555
C11_13 C7_13 1_555 1_555
C12_13 C11_13 1_555 1_555
C13_13 C14_13 1_555 1_555
C14_13 C15_13 1_555 1_555
C15_13 H8_13 1_555 1_555
C25_13 C26_13 1_555 1_555
C26_13 C27_13 1_555 1_555
C30_13 C26_13 1_555 1_555
C31_13 C30_13 1_555 1_555
C32_13 H17_13 1_555 1_555
C33_13 C32_13 1_555 1_555
H18_13 C33_13 1_555 1_555
C34_13 C33_13 1_555 1_555
H19_13 C34_13 1_555 1_555
C35_13 C31_13 1_555 1_555
C36_13 C35_13 1_555 1_555
C37_13 C38_13 1_555 1_555
C38_13 C39_13 1_555 1_555
C39_13 H20_13 1_555 1_555
C40_13 C39_13 1_555 1_555
H21_13 C40_13 1_555 1_555
C41_13 C40_13 1_555 1_555
H22_13 C41_13 1_555 1_555
C42_13 C38_13 1_555 1_555
C43_13 C42_13 1_555 1_555
C45_13 C44_13 1_555 1_555
C46_13 C45_13 1_555 1_555
H25_13 C46_13 1_555 1_555
C47_13 C43_13 1_555 1_555
C48_13 C47_13 1_555 1_555
N9_6 C43_13 1_555 1_555
N10_6 C41_13 1_555 1_555
N3_13 C31_13 1_555 1_555
O1_13 C1_13 1_555 1_555
O2_13 C1_13 1_555 1_555
O23_5 C12_13 1_555 1_555
O4_13 C12_13 1_555 1_555
O5_13 H26_13 1_555 1_555
H27_13 O5_13 1_555 1_555
O6_13 H28_13 1_555 1_555
H29_13 O6_13 1_555 1_555
O7_13 H30_13 1_555 1_555
H31_13 O7_13 1_555 1_555
O8_13 C36_13 1_555 1_555
O9_13 C36_13 1_555 1_555
O10_13 C24_13 1_555 1_555
O11_13 C24_13 1_555 1_555
O12_13 C37_13 1_555 1_555
O13_13 C37_13 1_555 1_555
O14_13 H32_13 1_555 1_555
H33_13 O14_13 1_555 1_555
O16_13 C13_13 1_555 1_555
O17_13 C13_13 1_555 1_555
O18_13 H36_13 1_555 1_555
O25_5 C25_13 1_555 1_555
O21_13 C48_13 1_555 1_555
O22_13 C48_13 1_555 1_555
Sm1_13 O4_13 1_555 1_555
Sm2_5 O13_13 1_555 1_555
O24_5 Sm2_5 1_555 1_555
C10_13 C11_13 1_555 1_555
C30_13 N4_13 1_555 1_555
C32_13 N3_13 1_555 1_555
C34_13 C35_13 1_555 1_555
C42_13 N10_6 1_555 1_555
C44_13 N9_6 1_555 1_555
C46_13 C47_13 1_555 1_555
O5_13 Sm1_13 1_555 1_555
O6_13 Sm1_13 1_555 1_555
O7_13 Sm1_13 1_555 1_555
O8_13 Sm1_13 1_555 1_555
O9_13 Sm1_13 1_555 1_555
O10_13 Sm1_13 1_555 1_555
O11_13 Sm1_13 1_555 1_555
O12_13 Sm1_13 1_555 1_555
O14_13 Sm2_5 1_555 1_555
O16_13 Sm2_5 1_555 1_555
O17_13 Sm2_5 1_555 1_555
O18_13 Sm2_5 1_555 1_555
C19_13 C18_13 1_555 1_555
C20_13 H11_13 1_555 1_555
C21_13 C20_13 1_555 1_555
H12_13 C21_13 1_555 1_555
C22_13 C21_13 1_555 1_555
H13_13 C22_13 1_555 1_555
C23_13 C19_13 1_555 1_555
H15_13 C28_13 1_555 1_555
C29_13 C28_13 1_555 1_555
H16_13 C29_13 1_555 1_555
N7_13 C17_13 1_555 1_555
N8_13 C19_13 1_555 1_555
Co3_5 N7_13 1_555 1_555
N9_8 Co3_5 1_555 1_555
N10_8 Co3_5 1_555 1_555
C18_13 N7_13 1_555 1_555
C20_13 N8_13 1_555 1_555
C22_13 C23_13 1_555 1_555
N8_13 Co3_5 1_555 1_555
H1_14 O18_14 1_555 1_555
C2_14 C3_14 1_555 1_555
C3_14 H2_14 1_555 1_555
C4_14 C3_14 1_555 1_555
H3_14 C4_14 1_555 1_555
C5_14 C4_14 1_555 1_555
H4_14 C5_14 1_555 1_555
C6_14 C2_14 1_555 1_555
C13_14 C14_14 1_555 1_555
C14_14 C15_14 1_555 1_555
C15_14 H8_14 1_555 1_555
C16_12 C15_14 1_555 1_555
H9_12 C16_12 1_555 1_555
C17_14 C16_12 1_555 1_555
H10_12 C17_14 1_555 1_555
C18_14 C14_14 1_555 1_555
C19_14 C18_14 1_555 1_555
C20_14 H11_14 1_555 1_555
C21_14 C20_14 1_555 1_555
H12_14 C21_14 1_555 1_555
C22_14 C21_14 1_555 1_555
H13_14 C22_14 1_555 1_555
C23_14 C19_14 1_555 1_555
C24_14 C23_14 1_555 1_555
C37_14 C38_14 1_555 1_555
C38_14 C39_14 1_555 1_555
C39_14 H20_14 1_555 1_555
C40_14 C39_14 1_555 1_555
H21_14 C40_14 1_555 1_555
C41_14 C40_14 1_555 1_555
H22_14 C41_14 1_555 1_555
C42_14 C38_14 1_555 1_555
C43_14 C42_14 1_555 1_555
C44_14 H23_14 1_555 1_555
C45_14 C44_14 1_555 1_555
H24_14 C45_14 1_555 1_555
C46_14 C45_14 1_555 1_555
H25_14 C46_14 1_555 1_555
C47_14 C43_14 1_555 1_555
C48_14 C47_14 1_555 1_555
N1_8 C43_14 1_555 1_555
N2_8 C41_14 1_555 1_555
N12_2 C5_14 1_555 1_555
N7_14 C17_14 1_555 1_555
N8_14 C19_14 1_555 1_555
O5_14 H26_14 1_555 1_555
H27_14 O5_14 1_555 1_555
O6_14 H28_14 1_555 1_555
H29_14 O6_14 1_555 1_555
O7_14 H30_14 1_555 1_555
H31_14 O7_14 1_555 1_555
O9_14 C36_14 1_555 1_555
O10_14 C24_14 1_555 1_555
O11_14 C24_14 1_555 1_555
O12_14 C37_14 1_555 1_555
O13_14 C37_14 1_555 1_555
O14_14 H32_14 1_555 1_555
H33_14 O14_14 1_555 1_555
O15_14 H34_14 1_555 1_555
H35_14 O15_14 1_555 1_555
O16_14 C13_14 1_555 1_555
O17_14 C13_14 1_555 1_555
O18_14 H36_14 1_555 1_555
O21_14 C48_14 1_555 1_555
O22_14 C48_14 1_555 1_555
Co3_2 N7_14 1_555 1_555
Sm2_6 O13_14 1_555 1_555
O23_6 Sm2_6 1_555 1_555
O24_6 Sm2_6 1_555 1_555
O25_6 Sm2_6 1_555 1_555
Co3_7 N1_8 1_555 1_555
C6_14 N12_2 1_555 1_555
C18_14 N7_14 1_555 1_555
C20_14 N8_14 1_555 1_555
C22_14 C23_14 1_555 1_555
C42_14 N2_8 1_555 1_555
C44_14 N1_8 1_555 1_555
C46_14 C47_14 1_555 1_555
N2_8 Co3_7 1_555 1_555
N8_14 Co3_2 1_555 1_555
O5_14 Sm1_14 1_555 1_555
O6_14 Sm1_14 1_555 1_555
O7_14 Sm1_14 1_555 1_555
O9_14 Sm1_14 1_555 1_555
O10_14 Sm1_14 1_555 1_555
O11_14 Sm1_14 1_555 1_555
O12_14 Sm1_14 1_555 1_555
O14_14 Sm2_6 1_555 1_555
O15_14 Sm2_6 1_555 1_555
O16_14 Sm2_6 1_555 1_555
O17_14 Sm2_6 1_555 1_555
O18_14 Sm2_6 1_555 1_555
C8_14 H5_14 1_555 1_555
C9_14 C8_14 1_555 1_555
H6_11 C9_14 1_555 1_555
C10_14 C9_14 1_555 1_555
H7_14 C10_14 1_555 1_555
C11_14 C7_14 1_555 1_555
C12_14 C11_14 1_555 1_555
C25_14 C26_14 1_555 1_555
C26_14 C27_14 1_555 1_555
C27_14 H14_14 1_555 1_555
C28_14 C27_14 1_555 1_555
H15_14 C28_14 1_555 1_555
C29_14 C28_14 1_555 1_555
C30_14 C26_14 1_555 1_555
C31_14 C30_14 1_555 1_555
C32_14 H17_14 1_555 1_555
C33_14 C32_14 1_555 1_555
H18_14 C33_14 1_555 1_555
C34_14 C33_14 1_555 1_555
H19_14 C34_14 1_555 1_555
C35_14 C31_14 1_555 1_555
N3_14 C31_14 1_555 1_555
N4_14 C29_14 1_555 1_555
N11_2 C7_14 1_555 1_555
O1_14 C1_14 1_555 1_555
O2_14 C1_14 1_555 1_555
O23_6 C12_14 1_555 1_555
O4_14 C12_14 1_555 1_555
O24_6 C25_14 1_555 1_555
O25_6 C25_14 1_555 1_555
C8_14 N11_2 1_555 1_555
C10_14 C11_14 1_555 1_555
C30_14 N4_14 1_555 1_555
C32_14 N3_14 1_555 1_555
C34_14 C35_14 1_555 1_555
O15_15 H34_15 1_555 1_555
H35_15 O15_15 1_555 1_555
H1_15 O18_15 1_555 1_555
C1_15 C2_15 1_555 1_555
C2_15 C3_15 1_555 1_555
C3_15 H2_15 1_555 1_555
C4_15 C3_15 1_555 1_555
H3_15 C4_15 1_555 1_555
C6_15 C2_15 1_555 1_555
C7_15 C6_15 1_555 1_555
C11_15 C7_15 1_555 1_555
C12_15 C11_15 1_555 1_555
C13_15 C14_15 1_555 1_555
C14_15 C15_15 1_555 1_555
C15_15 H8_15 1_555 1_555
C18_15 C14_15 1_555 1_555
C19_15 C18_15 1_555 1_555
C20_15 H11_15 1_555 1_555
C21_15 C20_15 1_555 1_555
H12_15 C21_15 1_555 1_555
C22_15 C21_15 1_555 1_555
H13_15 C22_15 1_555 1_555
C23_15 C19_15 1_555 1_555
C24_15 C23_15 1_555 1_555
C25_15 C26_15 1_555 1_555
C26_15 C27_15 1_555 1_555
C27_15 H14_15 1_555 1_555
C28_15 C27_15 1_555 1_555
H15_15 C28_15 1_555 1_555
C29_15 C28_15 1_555 1_555
H16_15 C29_15 1_555 1_555
C30_15 C26_15 1_555 1_555
C31_15 C30_15 1_555 1_555
C32_15 H17_15 1_555 1_555
C33_15 C32_15 1_555 1_555
H18_15 C33_15 1_555 1_555
C34_15 C33_15 1_555 1_555
H19_15 C34_15 1_555 1_555
C35_15 C31_15 1_555 1_555
C36_15 C35_15 1_555 1_555
C37_15 C38_15 1_555 1_555
C38_15 C39_15 1_555 1_555
C39_15 H20_15 1_555 1_555
C40_15 C39_15 1_555 1_555
H21_15 C40_15 1_555 1_555
C41_15 C40_15 1_555 1_555
H22_15 C41_15 1_555 1_555
C42_15 C38_15 1_555 1_555
C43_15 C42_15 1_555 1_555
C45_15 C44_15 1_555 1_555
C46_15 C45_15 1_555 1_555
H25_15 C46_15 1_555 1_555
C47_15 C43_15 1_555 1_555
C48_15 C47_15 1_555 1_555
N9_7 C43_15 1_555 1_555
N10_7 C41_15 1_555 1_555
N3_15 C31_15 1_555 1_555
N4_15 C29_15 1_555 1_555
N7_15 C17_15 1_555 1_555
N8_15 C19_15 1_555 1_555
O1_15 C1_15 1_555 1_555
O2_15 C1_15 1_555 1_555
O23_7 C12_15 1_555 1_555
O4_15 C12_15 1_555 1_555
O5_15 H26_15 1_555 1_555
H27_15 O5_15 1_555 1_555
O6_15 H28_15 1_555 1_555
H29_15 O6_15 1_555 1_555
O7_15 H30_15 1_555 1_555
H31_15 O7_15 1_555 1_555
O8_15 C36_15 1_555 1_555
O9_15 C36_15 1_555 1_555
O10_15 C24_15 1_555 1_555
O11_15 C24_15 1_555 1_555
O12_15 C37_15 1_555 1_555
O13_15 C37_15 1_555 1_555
O14_15 H32_15 1_555 1_555
H33_15 O14_15 1_555 1_555
O16_15 C13_15 1_555 1_555
O17_15 C13_15 1_555 1_555
O18_15 H36_15 1_555 1_555
O25_7 C25_15 1_555 1_555
O21_15 C48_15 1_555 1_555
O22_15 C48_15 1_555 1_555
Co3_7 N7_15 1_555 1_555
Sm1_15 O4_15 1_555 1_555
Sm2_7 O13_15 1_555 1_555
O24_7 Sm2_7 1_555 1_555
C10_15 C11_15 1_555 1_555
C18_15 N7_15 1_555 1_555
C20_15 N8_15 1_555 1_555
C22_15 C23_15 1_555 1_555
C30_15 N4_15 1_555 1_555
C32_15 N3_15 1_555 1_555
C34_15 C35_15 1_555 1_555
C42_15 N10_7 1_555 1_555
C44_15 N9_7 1_555 1_555
C46_15 C47_15 1_555 1_555
N8_15 Co3_7 1_555 1_555
O5_15 Sm1_15 1_555 1_555
O6_15 Sm1_15 1_555 1_555
O7_15 Sm1_15 1_555 1_555
O8_15 Sm1_15 1_555 1_555
O9_15 Sm1_15 1_555 1_555
O10_15 Sm1_15 1_555 1_555
O11_15 Sm1_15 1_555 1_555
O12_15 Sm1_15 1_555 1_555
O14_15 Sm2_7 1_555 1_555
O16_15 Sm2_7 1_555 1_555
O17_15 Sm2_7 1_555 1_555
O18_15 Sm2_7 1_555 1_555
H4_15 C5_15 1_555 1_555
C8_15 H5_15 1_555 1_555
C9_15 C8_15 1_555 1_555
H9_13 C16_13 1_555 1_555
N12_7 C5_15 1_555 1_555
C8_15 N11_7 1_555 1_555
H1_16 O18_16 1_555 1_555
C2_16 C3_16 1_555 1_555
C3_16 H2_16 1_555 1_555
C4_16 C3_16 1_555 1_555
H3_16 C4_16 1_555 1_555
C5_16 C4_16 1_555 1_555
H4_16 C5_16 1_555 1_555
C6_16 C2_16 1_555 1_555
C13_16 C14_16 1_555 1_555
C14_16 C15_16 1_555 1_555
C15_16 H8_16 1_555 1_555
C16_14 C15_16 1_555 1_555
H9_14 C16_14 1_555 1_555
C17_16 C16_14 1_555 1_555
H10_14 C17_16 1_555 1_555
C18_16 C14_16 1_555 1_555
C19_16 C18_16 1_555 1_555
C20_16 H11_16 1_555 1_555
C21_16 C20_16 1_555 1_555
H12_16 C21_16 1_555 1_555
C22_16 C21_16 1_555 1_555
H13_16 C22_16 1_555 1_555
C23_16 C19_16 1_555 1_555
C24_16 C23_16 1_555 1_555
C37_16 C38_16 1_555 1_555
C38_16 C39_16 1_555 1_555
C39_16 H20_16 1_555 1_555
C40_16 C39_16 1_555 1_555
H21_16 C40_16 1_555 1_555
C41_16 C40_16 1_555 1_555
H22_16 C41_16 1_555 1_555
C42_16 C38_16 1_555 1_555
C43_16 C42_16 1_555 1_555
C44_16 H23_16 1_555 1_555
C45_16 C44_16 1_555 1_555
H24_16 C45_16 1_555 1_555
C46_16 C45_16 1_555 1_555
H25_16 C46_16 1_555 1_555
C47_16 C43_16 1_555 1_555
C48_16 C47_16 1_555 1_555
N9_8 C43_16 1_555 1_555
N10_8 C41_16 1_555 1_555
N12_4 C5_16 1_555 1_555
N7_16 C17_16 1_555 1_555
N8_16 C19_16 1_555 1_555
O5_16 H26_16 1_555 1_555
H27_16 O5_16 1_555 1_555
O6_16 H28_16 1_555 1_555
H29_16 O6_16 1_555 1_555
O7_16 H30_16 1_555 1_555
H31_16 O7_16 1_555 1_555
O9_16 C36_16 1_555 1_555
O10_16 C24_16 1_555 1_555
O11_16 C24_16 1_555 1_555
O12_16 C37_16 1_555 1_555
O13_16 C37_16 1_555 1_555
O14_16 H32_16 1_555 1_555
H33_16 O14_16 1_555 1_555
O15_16 H34_16 1_555 1_555
H35_16 O15_16 1_555 1_555
O16_16 C13_16 1_555 1_555
O17_16 C13_16 1_555 1_555
O18_16 H36_16 1_555 1_555
O21_16 C48_16 1_555 1_555
O22_16 C48_16 1_555 1_555
Co3_4 N7_16 1_555 1_555
Sm2_8 O13_16 1_555 1_555
O23_8 Sm2_8 1_555 1_555
O24_8 Sm2_8 1_555 1_555
O25_8 Sm2_8 1_555 1_555
C6_16 N12_4 1_555 1_555
C18_16 N7_16 1_555 1_555
C20_16 N8_16 1_555 1_555
C22_16 C23_16 1_555 1_555
C42_16 N10_8 1_555 1_555
C44_16 N9_8 1_555 1_555
C46_16 C47_16 1_555 1_555
N8_16 Co3_4 1_555 1_555
O5_16 Sm1_16 1_555 1_555
O6_16 Sm1_16 1_555 1_555
O7_16 Sm1_16 1_555 1_555
O9_16 Sm1_16 1_555 1_555
O10_16 Sm1_16 1_555 1_555
O11_16 Sm1_16 1_555 1_555
O12_16 Sm1_16 1_555 1_555
O14_16 Sm2_8 1_555 1_555
O15_16 Sm2_8 1_555 1_555
O16_16 Sm2_8 1_555 1_555
O17_16 Sm2_8 1_555 1_555
O18_16 Sm2_8 1_555 1_555
C8_16 H5_16 1_555 1_555
C9_16 C8_16 1_555 1_555
H6_12 C9_16 1_555 1_555
C10_16 C9_16 1_555 1_555
H7_16 C10_16 1_555 1_555
C11_16 C7_16 1_555 1_555
C12_16 C11_16 1_555 1_555
C25_16 C26_16 1_555 1_555
C26_16 C27_16 1_555 1_555
C27_16 H14_16 1_555 1_555
C28_16 C27_16 1_555 1_555
H15_16 C28_16 1_555 1_555
C29_16 C28_16 1_555 1_555
C30_16 C26_16 1_555 1_555
C31_16 C30_16 1_555 1_555
C32_16 H17_16 1_555 1_555
C33_16 C32_16 1_555 1_555
H18_16 C33_16 1_555 1_555
C34_16 C33_16 1_555 1_555
H19_16 C34_16 1_555 1_555
C35_16 C31_16 1_555 1_555
N3_16 C31_16 1_555 1_555
N4_16 C29_16 1_555 1_555
N11_4 C7_16 1_555 1_555
O1_16 C1_16 1_555 1_555
O2_16 C1_16 1_555 1_555
O23_8 C12_16 1_555 1_555
O4_16 C12_16 1_555 1_555
O24_8 C25_16 1_555 1_555
O25_8 C25_16 1_555 1_555
C8_16 N11_4 1_555 1_555
C10_16 C11_16 1_555 1_555
C30_16 N4_16 1_555 1_555
C32_16 N3_16 1_555 1_555
C34_16 C35_16 1_555 1_555
H9_15 C16_15 1_555 1_555
H9_16 C16_16 1_555 1_555

#END
