
###############################################################################
#
# This file contains modified crystal structure data generated from the
# MOF subset of the Cambridge Structural Database (CSD) v543 
# hosted by the Cambridge Crystallographic Data Centre (CCDC).
#
# This work is licensed under the Creative Commons
# Attribution-NonCommercial-ShareAlike 4.0 International License.
# To view a copy of this license, visit
# http://creativecommons.org/licenses/by-nc-sa/4.0/
# or send a letter to
# Creative Commons, PO Box 1866, Mountain View, CA 94042, USA.
#
# CIF created using the CSD Python API on 29 September 2022
# The structure has been converted into the P1 space group
# The structure has a 3D framework
# The original CSD entry MIFTUS is in the tetragonal crystal system
# The framework has been calculated to contain at least 10.0% void space
# The void calculation uses a probe of radius 1.32A, grid spacing 0.4
#
###############################################################################

data_MIFTUS
_chemical_formula_moiety         '(C772 H576 Co16 Gd32 N128 O348)n'
_symmetry_cell_setting           triclinic
_symmetry_space_group_name_H-M   'P 1'
_symmetry_Int_Tables_number      1
_space_group_name_Hall           'P 1'
loop_
_symmetry_equiv_pos_site_id
_symmetry_equiv_pos_as_xyz
1 x,y,z
_cell_length_a                   45.204(2)
_cell_length_b                   45.204(2)
_cell_length_c                   10.7836(5)
_cell_angle_alpha                90
_cell_angle_beta                 90
_cell_angle_gamma                90
_cell_volume                     22035.2
loop_
_atom_site_label
_atom_site_type_symbol
_atom_site_fract_x
_atom_site_fract_y
_atom_site_fract_z
C21 C 0.0417(2) 0.00882(19) 0.6915(9)
C22 C 0.0124(2) 0.01539(19) 0.6988(8)
H10 H 0.0063 0.0334 0.7316
C25 C 0.0635(2) 0.02862(19) 0.7529(8)
C26 C 0.0955(2) 0.0189(2) 0.5048(9)
O5 O 0.11593(14) 0.03773(14) 0.5126(6)
O6 O 0.07309(16) 0.02317(17) 0.4451(9)
O7 O 0.06722(14) 0.05422(13) 0.7148(6)
O8 O 0.07622(15) 0.01959(14) 0.8474(6)
Gd3 Gd 0.099025(9) 0.072804(10) 0.88101(4)
Gd5 Gd 0.099875(9) 0.075398(10) 0.38046(4)
C1 C 0.05870(19) 0.8582(2) 0.7264(7)
H1 H 0.0507 0.8651 0.8003
C2 C 0.13619(18) 0.87465(18) 0.3906(8)
C4 C 0.0624(2) 0.8286(2) 0.7101(8)
H2 H 0.0569 0.8154 0.7720
C5 C 0.0742(2) 0.8187(2) 0.6027(8)
H3 H 0.0768 0.7985 0.5899
C6 C 0.08229(19) 0.83846(19) 0.5130(7)
C7 C 0.0948(2) 0.82681(19) 0.3920(7)
C8 C 0.07825(17) 0.86798(19) 0.5341(7)
C9 C 0.08480(19) 0.89146(18) 0.4447(8)
C11 C 0.1094(2) 0.89346(19) 0.3710(7)
C12 C 0.1105(2) 0.91561(18) 0.2859(8)
H4 H 0.1268 0.9172 0.2335
C13 C 0.0882(2) 0.9353(2) 0.2770(9)
H5 H 0.0882 0.9497 0.2152
C14 C 0.0657(2) 0.9338(2) 0.3602(8)
H6 H 0.0510 0.9483 0.3588
C15 C 0.1117(2) 0.9336(2) 0.6377(8)
H7 H 0.1151 0.9141 0.6606
C16 C 0.1348(2) 0.9500(2) 0.5933(10)
H8 H 0.1539 0.9423 0.5905
C17 C 0.1289(2) 0.9777(2) 0.5536(10)
H9 H 0.1440 0.9889 0.5182
C18 C 0.1013(2) 0.9896(2) 0.5647(8)
C19 C 0.0799(2) 0.9727(2) 0.6198(8)
C20 C 0.0495(2) 0.9823(2) 0.6396(8)
C24 C 0.0009(2) 0.9691(2) 0.6156(8)
C27 C 0.0386(2) 0.9422(2) 0.8892(8)
H13 H 0.0588 0.9462 0.8900
C28 C 0.0213(2) 0.9562(2) 0.9715(8)
C31 C -0.00000(19) 0.91631(18) 0.8062(7)
C36 C 0.00412(19) 0.8741(2) 0.5267(8)
H18 H 0.0142 0.8760 0.4519
N1 N 0.06629(15) 0.87743(16) 0.6387(6)
N2 N 0.06401(15) 0.91220(16) 0.4438(6)
N3 N 0.08478(17) 0.94429(17) 0.6497(7)
N4 N 0.02902(17) 0.96232(17) 0.6066(7)
N5 N 0.02844(15) 0.92291(17) 0.8069(6)
N6 N 0.00767(15) 0.89489(16) 0.6123(6)
O1 O 0.11419(14) 0.80785(13) 0.4017(6)
O2 O 0.08474(14) 0.83706(13) 0.2951(5)
O3 O 0.14059(13) 0.86670(13) 0.5000(5)
O4 O 0.15198(13) 0.87000(13) 0.3026(6)
Co1 Co 0.04635(3) 0.91876(3) 0.62518(10)
Gd4 Gd 0.177196(10) 0.849025(9) 0.63101(4)
Gd6 Gd 0.174602(10) 0.849875(9) 0.13046(4)
H15 H 0.9791 0.9606 0.0197
O13 O 0.94221(13) 0.89543(14) 0.1445(5)
H25 H 0.9398 0.8847 0.2095
H26 H 0.9439 0.8841 0.0808
H27 H 0.8763 0.8741 0.0221
O15 O 0.86764(14) 0.95120(14) 0.2531(6)
H29 H 0.8492 0.9435 0.2484
H30 H 0.8733 0.9497 0.3332
O17 O 0.8452(2) 0.9302(2) 0.0419(10)
Gd1 Gd 0.900975(9) 0.927196(10) 0.11899(4)
O23 O 0.88330(13) 0.89059(13) 0.2500(5)
O27 O 0.93278(14) 0.94578(13) 0.2852(6)
O28 O 0.92378(15) 0.98041(14) 0.1526(6)
C3 C 0.8444(2) 0.9145(2) 0.7335(8)
C10 C 0.8553(3) 0.9501(3) 0.9729(12)
C23 C 0.99205(19) 0.99571(19) 0.6583(8)
H12 H 0.9868 0.9552 0.5920
C29 C 0.9918(2) 0.9509(2) 0.9650(8)
C30 C 0.98008(19) 0.93162(19) 0.8794(7)
C31_2 C 1.00000(19) 0.91631(18) 0.8062(7)
C32 C 0.99269(18) 0.89271(19) 0.7182(7)
C33 C 0.97466(19) 0.86922(18) 0.7408(7)
C34 C 0.97198(19) 0.84785(19) 0.6542(8)
H16 H 0.9602 0.8314 0.6699
C35 C 0.98656(18) 0.85026(19) 0.5432(7)
H17 H 0.9844 0.8360 0.4816
C37 C 0.9580(2) 0.86602(19) 0.8606(8)
C38 C 0.94773(19) 0.92952(19) 0.8656(7)
C39 C 0.7700(4) 0.8863(4) 0.8865(14)
H19 H 0.7536 0.8782 0.9258
C40 C 0.7841(4) 0.8675(4) 0.8298(14)
H20 H 0.7777 0.8483 0.8141
C41 C 0.8093(4) 0.8787(4) 0.7951(14)
H21 H 0.8233 0.8655 0.7648
C42 C 0.8173(2) 0.9081(2) 0.7987(9)
C43 C 0.8006(4) 0.9291(4) 0.8490(14)
C44 C 0.8073(4) 0.9602(4) 0.8463(14)
C45 C 0.8326(4) 0.9682(4) 0.8941(14)
C46 C 0.8397(4) 0.9997(4) 0.8614(13)
N7 N 0.7865(3) 0.9791(3) 0.8012(12)
N8 N 0.7721(3) 0.9158(3) 0.9071(11)
O9 O 0.93166(14) 0.85823(15) 0.8521(5)
O10 O 0.97129(14) 0.87166(14) 0.9589(5)
O11 O 0.93831(13) 0.92345(14) 0.7627(5)
O12 O 0.93275(13) 0.93598(13) 0.9574(6)
O14 O 0.88981(13) 0.88647(13) 0.9876(5)
H28 H 0.8823 0.8923 0.9140
O16 O 0.8775(2) 0.9598(2) 0.9803(10)
O18 O 0.86824(19) 0.90446(19) 0.7752(7)
O19 O 0.84438(14) 0.92921(15) 0.6366(5)
O20 O 0.8903(2) 0.9642(2) 0.7604(9)
H31 H 0.8806 0.9795 0.7238
H32 H 0.8788 0.9582 0.8247
O21 O 0.90820(16) 0.87364(14) 0.6385(5)
H33 H 0.9130 0.8685 0.7165
H34 H 0.8920 0.8632 0.6181
O22 O 0.94242(13) 0.91534(14) 0.4913(5)
H35 H 0.9414 0.8978 0.4600
H36 H 0.9430 0.9281 0.4318
Gd2 Gd 0.900125(9) 0.924602(10) 0.61954(4)
O24 O 0.88000(13) 0.90198(13) 0.4474(6)
O25 O 0.88407(14) 0.96227(14) 0.4874(6)
O26 O 0.92691(16) 0.97683(17) 0.5549(9)
H1_2 H 0.8849 0.3007 0.0503
H2_2 H 0.9346 0.3069 0.0220
C10_2 C 0.7999(3) 0.1053(3) 0.2229(12)
C25_2 C 0.72138(19) 0.3135(2) 0.0029(8)
C27_2 C 0.8078(2) 0.2886(2) 0.1392(8)
H13_2 H 0.8038 0.3088 0.1400
C28_2 C 0.7938(2) 0.2713(2) 0.2215(8)
H14 H 0.7810 0.2791 0.2805
C29_2 C 0.7991(2) 0.2418(2) 0.2150(8)
H15_2 H 0.7894 0.2291 0.2697
C30_2 C 0.81838(19) 0.23008(19) 0.1294(7)
C31_3 C 0.83369(18) 0.25000(19) 0.0562(7)
C37_2 C 0.88398(19) 0.2080(2) 0.1106(8)
C38_2 C 0.82048(19) 0.19773(19) 0.1156(7)
C39_2 C 0.8637(4) 0.0200(4) 0.1365(14)
H19_2 H 0.8718 0.0036 0.1758
C40_2 C 0.8825(4) 0.0341(4) 0.0798(14)
H20_2 H 0.9017 0.0277 0.0641
C41_2 C 0.8713(4) 0.0593(4) 0.0451(14)
H21_2 H 0.8845 0.0733 0.0148
C42_2 C 0.8419(2) 0.0673(2) 0.0487(9)
C43_2 C 0.8209(4) 0.0506(4) 0.0990(14)
C44_2 C 0.7898(4) 0.0573(4) 0.0963(14)
C45_2 C 0.7818(4) 0.0826(4) 0.1441(14)
C46_2 C 0.7503(4) 0.0897(4) 0.1114(13)
H22 H 0.7432 0.1081 0.1362
C47 C 0.7299(4) 0.0709(3) 0.0453(14)
H23 H 0.7113 0.0761 0.0156
C48 C 0.7431(4) 0.0441(4) 0.0349(14)
H24 H 0.7305 0.0287 0.0129
N5_2 N 0.82709(17) 0.27844(15) 0.0569(6)
N7_2 N 0.7709(3) 0.0365(3) 0.0512(12)
N8_2 N 0.8342(3) 0.0221(3) 0.1571(11)
O8_2 O 0.73041(14) 0.32622(15) 0.0974(6)
O9_2 O 0.89177(15) 0.18166(14) 0.1021(5)
O10_2 O 0.87834(14) 0.22129(14) 0.2089(5)
O11_2 O 0.82655(14) 0.18831(13) 0.0127(5)
O12_2 O 0.81402(13) 0.18275(13) 0.2074(6)
O13_2 O 0.85457(14) 0.19221(13) 0.3945(5)
H25_2 H 0.8653 0.1898 0.4595
H26_2 H 0.8659 0.1939 0.3308
O14_2 O 0.86353(13) 0.13981(13) 0.2376(5)
H27_2 H 0.8759 0.1263 0.2721
H28_2 H 0.8577 0.1323 0.1640
O15_2 O 0.79880(14) 0.11764(14) 0.5031(6)
H29_2 H 0.8065 0.0992 0.4984
H30_2 H 0.8003 0.1233 0.5832
O16_2 O 0.7902(2) 0.1275(2) 0.2303(10)
O17_2 O 0.8198(2) 0.0952(2) 0.2919(10)
O18_2 O 0.84554(19) 0.11824(19) 0.0252(7)
O20_2 O 0.7858(2) 0.1403(2) 0.0104(9)
H32_2 H 0.7918 0.1288 0.0747
Gd1_2 Gd 0.822804(10) 0.150975(9) 0.36899(4)
O23_2 O 0.85941(13) 0.13330(13) 0.5000(5)
O27_2 O 0.80422(13) 0.18278(14) 0.5352(6)
O28_2 O 0.76959(14) 0.17378(15) 0.4026(6)
Gd3_2 Gd 0.677196(10) 0.349025(9) 0.13101(4)
C1_2 C 0.8918(2) 0.30870(19) 0.9764(7)
C2_2 C 0.87535(18) 0.38619(18) 0.6406(8)
C3_2 C 0.8355(2) 0.0944(2) 0.9835(8)
C4_2 C 0.9214(2) 0.3124(2) 0.9601(8)
C5_2 C 0.9313(2) 0.3242(2) 0.8527(8)
H3_2 H 0.9515 0.3268 0.8399
C6_2 C 0.91154(19) 0.33229(19) 0.7630(7)
C7_2 C 0.92319(19) 0.3448(2) 0.6420(7)
C8_2 C 0.88202(19) 0.32825(17) 0.7841(7)
C9_2 C 0.85854(18) 0.33480(19) 0.6947(8)
C11_2 C 0.85654(19) 0.3594(2) 0.6210(7)
C12_2 C 0.83439(18) 0.3605(2) 0.5359(8)
H4_2 H 0.8328 0.3768 0.4835
C13_2 C 0.8147(2) 0.3382(2) 0.5270(9)
H5_2 H 0.8003 0.3382 0.4652
C14_2 C 0.8162(2) 0.3157(2) 0.6102(8)
H6_2 H 0.8017 0.3010 0.6088
C15_2 C 0.8164(2) 0.3617(2) 0.8877(8)
H7_2 H 0.8359 0.3651 0.9106
C16_2 C 0.8000(2) 0.3848(2) 0.8433(10)
H8_2 H 0.8077 0.4039 0.8405
C17_2 C 0.7723(2) 0.3789(2) 0.8036(10)
H9_2 H 0.7611 0.3940 0.7682
C18_2 C 0.7604(2) 0.3513(2) 0.8147(8)
C19_2 C 0.7773(2) 0.3299(2) 0.8698(8)
C20_2 C 0.7677(2) 0.2995(2) 0.8896(8)
C21_2 C 0.74118(19) 0.2917(2) 0.9415(9)
C22_2 C 0.73461(19) 0.2624(2) 0.9488(8)
H10_2 H 0.7166 0.2563 0.9816
C23_2 C 0.75429(19) 0.24205(19) 0.9083(8)
H11 H 0.7495 0.2220 0.9100
C24_2 C 0.7809(2) 0.2509(2) 0.8656(8)
H12_2 H 0.7948 0.2368 0.8420
C26_2 C 0.7311(2) 0.3455(2) 0.7548(9)
C32_2 C 0.85729(19) 0.24269(18) 0.9682(7)
C33_2 C 0.88078(18) 0.22466(19) 0.9908(7)
C34_2 C 0.90215(19) 0.22198(19) 0.9042(8)
H16_2 H 0.9186 0.2102 0.9199
C35_2 C 0.89974(19) 0.23656(18) 0.7932(7)
H17_2 H 0.9140 0.2344 0.7316
C36_2 C 0.8759(2) 0.25412(19) 0.7767(8)
H18_2 H 0.8740 0.2642 0.7019
N1_2 N 0.87257(16) 0.31629(15) 0.8887(6)
N2_2 N 0.83780(16) 0.31401(15) 0.6938(6)
N3_2 N 0.80571(17) 0.33478(17) 0.8997(7)
N4_2 N 0.78768(17) 0.27902(17) 0.8566(7)
N6_2 N 0.85511(16) 0.25767(15) 0.8623(6)
O1_2 O 0.94215(13) 0.36419(14) 0.6517(6)
O2_2 O 0.91294(13) 0.33474(14) 0.5451(5)
O3_2 O 0.88330(13) 0.39059(13) 0.7500(5)
O4_2 O 0.88000(13) 0.40198(13) 0.5526(6)
O5_2 O 0.71227(14) 0.36593(14) 0.7626(6)
O6_2 O 0.72683(17) 0.32309(16) 0.6951(9)
O7_2 O 0.69578(13) 0.31722(14) 0.9648(6)
O19_2 O 0.82079(15) 0.09438(14) 0.8866(5)
H31_2 H 0.7705 0.1306 0.9738
O21_2 O 0.87636(14) 0.15820(16) 0.8885(5)
H33_2 H 0.8815 0.1630 0.9665
H34_2 H 0.8868 0.1420 0.8681
O22_2 O 0.83466(14) 0.19242(13) 0.7413(5)
H35_2 H 0.8522 0.1914 0.7100
H36_2 H 0.8219 0.1930 0.6818
Co1_2 Co 0.83124(3) 0.29635(3) 0.87518(10)
Gd2_2 Gd 0.825398(10) 0.150125(9) 0.86954(4)
O24_2 O 0.84802(13) 0.13000(13) 0.6974(6)
O25_2 O 0.78773(14) 0.13407(14) 0.7374(6)
O26_2 O 0.77317(17) 0.17691(16) 0.8049(9)
Gd4_2 Gd 0.900975(9) 0.427196(10) 0.88101(4)
Gd5_2 Gd 0.674602(10) 0.349875(9) 0.63046(4)
Gd6_2 Gd 0.900125(9) 0.424602(10) 0.38046(4)
H15_3 H 0.0209 0.5394 0.0197
O13_3 O 0.05779(13) 0.60457(14) 0.1445(5)
H25_3 H 0.0602 0.6153 0.2095
H26_3 H 0.0561 0.6159 0.0808
H27_3 H 0.1237 0.6259 0.0221
O15_3 O 0.13236(14) 0.54880(14) 0.2531(6)
H29_3 H 0.1508 0.5565 0.2484
H30_3 H 0.1267 0.5503 0.3332
O17_3 O 0.1548(2) 0.5698(2) 0.0419(10)
Gd1_3 Gd 0.099025(9) 0.572804(10) 0.11899(4)
O23_3 O 0.11670(13) 0.60941(13) 0.2500(5)
O27_3 O 0.06722(14) 0.55422(13) 0.2852(6)
O28_3 O 0.07622(15) 0.51959(14) 0.1526(6)
C3_3 C 0.1556(2) 0.5855(2) 0.7335(8)
C10_3 C 0.1447(3) 0.5499(3) 0.9729(12)
C23_3 C 0.00795(19) 0.50429(19) 0.6583(8)
H11_2 H 0.0280 0.4995 0.6600
H12_3 H 0.0132 0.5448 0.5920
C29_3 C 0.0082(2) 0.5491(2) 0.9650(8)
C30_3 C 0.01992(19) 0.56838(19) 0.8794(7)
C31_4 C 0.00000(19) 0.58369(18) 0.8062(7)
C32_3 C 0.00731(18) 0.60729(19) 0.7182(7)
C33_3 C 0.02534(19) 0.63078(18) 0.7408(7)
C34_3 C 0.02802(19) 0.65215(19) 0.6542(8)
H16_3 H 0.0398 0.6686 0.6699
C35_3 C 0.01344(18) 0.64974(19) 0.5432(7)
H17_3 H 0.0156 0.6640 0.4816
C37_3 C 0.0420(2) 0.63398(19) 0.8606(8)
C38_3 C 0.05227(19) 0.57048(19) 0.8656(7)
C39_3 C 0.2300(4) 0.6137(4) 0.8865(14)
H19_3 H 0.2464 0.6218 0.9258
C40_3 C 0.2159(4) 0.6325(4) 0.8298(14)
H20_3 H 0.2223 0.6517 0.8141
C41_3 C 0.1907(4) 0.6213(4) 0.7951(14)
H21_3 H 0.1767 0.6345 0.7648
C42_3 C 0.1827(2) 0.5919(2) 0.7987(9)
C43_3 C 0.1994(4) 0.5709(4) 0.8490(14)
C44_3 C 0.1927(4) 0.5398(4) 0.8463(14)
C45_3 C 0.1674(4) 0.5318(4) 0.8941(14)
C46_3 C 0.1603(4) 0.5003(4) 0.8614(13)
H22_2 H 0.1419 0.4932 0.8862
C47_2 C 0.1791(3) 0.4799(4) 0.7953(14)
H23_2 H 0.1739 0.4613 0.7656
C48_2 C 0.2059(4) 0.4931(4) 0.7849(14)
H24_2 H 0.2213 0.4805 0.7629
N7_3 N 0.2135(3) 0.5209(3) 0.8012(12)
N8_3 N 0.2279(3) 0.5842(3) 0.9071(11)
O9_3 O 0.06834(14) 0.64177(15) 0.8521(5)
O10_3 O 0.02871(14) 0.62834(14) 0.9589(5)
O11_3 O 0.06169(13) 0.57655(14) 0.7627(5)
O12_3 O 0.06725(13) 0.56402(13) 0.9574(6)
O14_3 O 0.11019(13) 0.61353(13) 0.9876(5)
H28_3 H 0.1177 0.6077 0.9140
O16_3 O 0.1225(2) 0.5402(2) 0.9803(10)
O18_3 O 0.13176(19) 0.59554(19) 0.7752(7)
O19_3 O 0.15562(14) 0.57079(15) 0.6366(5)
O20_3 O 0.1097(2) 0.5358(2) 0.7604(9)
H31_3 H 0.1194 0.5205 0.7238
H32_3 H 0.1212 0.5418 0.8247
O21_3 O 0.09180(16) 0.62636(14) 0.6385(5)
H33_3 H 0.0870 0.6315 0.7165
H34_3 H 0.1080 0.6368 0.6181
O22_3 O 0.05758(13) 0.58466(14) 0.4913(5)
H35_3 H 0.0586 0.6022 0.4600
H36_3 H 0.0570 0.5719 0.4318
Gd2_3 Gd 0.099875(9) 0.575398(10) 0.61954(4)
O24_3 O 0.12000(13) 0.59802(13) 0.4474(6)
O25_3 O 0.11593(14) 0.53773(14) 0.4874(6)
O26_3 O 0.07309(16) 0.52317(17) 0.5549(9)
C1_3 C 0.94130(19) 0.6418(2) 0.7264(7)
H1_3 H 0.9493 0.6349 0.8003
C2_3 C 0.86381(18) 0.62535(18) 0.3906(8)
C4_3 C 0.9376(2) 0.6714(2) 0.7101(8)
H2_3 H 0.9431 0.6846 0.7720
C5_3 C 0.9258(2) 0.6813(2) 0.6027(8)
H3_3 H 0.9232 0.7015 0.5899
C6_3 C 0.91771(19) 0.66154(19) 0.5130(7)
C7_3 C 0.9052(2) 0.67319(19) 0.3920(7)
C8_3 C 0.92175(17) 0.63202(19) 0.5341(7)
C9_3 C 0.91520(19) 0.60854(18) 0.4447(8)
C11_3 C 0.8906(2) 0.60654(19) 0.3710(7)
C12_3 C 0.8895(2) 0.58439(18) 0.2859(8)
H4_3 H 0.8732 0.5828 0.2335
C13_3 C 0.9118(2) 0.5647(2) 0.2770(9)
H5_3 H 0.9118 0.5503 0.2152
C14_3 C 0.9343(2) 0.5662(2) 0.3602(8)
H6_3 H 0.9490 0.5517 0.3588
C15_3 C 0.8883(2) 0.5664(2) 0.6377(8)
H7_3 H 0.8849 0.5859 0.6606
C16_3 C 0.8652(2) 0.5500(2) 0.5933(10)
H8_3 H 0.8461 0.5577 0.5905
C17_3 C 0.8711(2) 0.5223(2) 0.5536(10)
H9_3 H 0.8560 0.5111 0.5182
C18_3 C 0.8987(2) 0.5104(2) 0.5647(8)
C19_3 C 0.9201(2) 0.5273(2) 0.6198(8)
C20_3 C 0.9505(2) 0.5177(2) 0.6396(8)
C21_3 C 0.9583(2) 0.49118(19) 0.6915(9)
C22_3 C 0.9876(2) 0.48461(19) 0.6988(8)
H10_3 H 0.9937 0.4666 0.7316
C24_3 C 0.9991(2) 0.5309(2) 0.6156(8)
C25_3 C 0.9365(2) 0.47138(19) 0.7529(8)
C26_3 C 0.9045(2) 0.4811(2) 0.5048(9)
C27_3 C 0.9614(2) 0.5578(2) 0.8892(8)
H13_3 H 0.9412 0.5538 0.8900
C28_3 C 0.9787(2) 0.5438(2) 0.9715(8)
C31_5 C 1.00000(19) 0.58369(18) 0.8062(7)
C36_3 C 0.99588(19) 0.6259(2) 0.5267(8)
H18_3 H 0.9858 0.6240 0.4519
N1_3 N 0.93371(15) 0.62257(16) 0.6387(6)
N2_3 N 0.93599(15) 0.58780(16) 0.4438(6)
N3_3 N 0.91522(17) 0.55571(17) 0.6497(7)
N4_3 N 0.97098(17) 0.53768(17) 0.6066(7)
N5_3 N 0.97156(15) 0.57709(17) 0.8069(6)
N6_3 N 0.99233(15) 0.60511(16) 0.6123(6)
O1_3 O 0.88581(14) 0.69215(13) 0.4017(6)
O2_3 O 0.91526(14) 0.66294(13) 0.2951(5)
O3_3 O 0.85941(13) 0.63330(13) 0.5000(5)
O4_3 O 0.84802(13) 0.63000(13) 0.3026(6)
O5_3 O 0.88407(14) 0.46227(14) 0.5126(6)
O6_3 O 0.92691(16) 0.47683(17) 0.4451(9)
O7_3 O 0.93278(14) 0.44578(13) 0.7148(6)
O8_3 O 0.92378(15) 0.48041(14) 0.8474(6)
Co1_3 Co 0.95365(3) 0.58124(3) 0.62518(10)
Gd4_3 Gd 0.822804(10) 0.650975(9) 0.63101(4)
Gd6_3 Gd 0.825398(10) 0.650125(9) 0.13046(4)
H1_4 H 0.1151 0.1993 0.0503
H2_4 H 0.0654 0.1931 0.0220
C10_4 C 0.2001(3) 0.3947(3) 0.2229(12)
C25_4 C 0.27862(19) 0.1865(2) 0.0029(8)
C27_4 C 0.1922(2) 0.2114(2) 0.1392(8)
H13_4 H 0.1962 0.1912 0.1400
C28_4 C 0.2062(2) 0.2287(2) 0.2215(8)
H14_2 H 0.2190 0.2209 0.2805
C29_4 C 0.2009(2) 0.2582(2) 0.2150(8)
H15_4 H 0.2106 0.2709 0.2697
C30_4 C 0.18162(19) 0.26992(19) 0.1294(7)
C31_6 C 0.16631(18) 0.25000(19) 0.0562(7)
C37_4 C 0.11602(19) 0.2920(2) 0.1106(8)
C38_4 C 0.17952(19) 0.30227(19) 0.1156(7)
C39_4 C 0.1363(4) 0.4800(4) 0.1365(14)
H19_4 H 0.1282 0.4964 0.1758
C40_4 C 0.1175(4) 0.4659(4) 0.0798(14)
H20_4 H 0.0983 0.4723 0.0641
C41_4 C 0.1287(4) 0.4407(4) 0.0451(14)
H21_4 H 0.1155 0.4267 0.0148
C42_4 C 0.1581(2) 0.4327(2) 0.0487(9)
C43_4 C 0.1791(4) 0.4494(4) 0.0990(14)
C44_4 C 0.2102(4) 0.4427(4) 0.0963(14)
C45_4 C 0.2182(4) 0.4174(4) 0.1441(14)
C46_4 C 0.2497(4) 0.4103(4) 0.1114(13)
H22_3 H 0.2568 0.3919 0.1362
C47_3 C 0.2701(4) 0.4291(3) 0.0453(14)
H23_3 H 0.2887 0.4239 0.0156
C48_3 C 0.2569(4) 0.4559(4) 0.0349(14)
H24_3 H 0.2695 0.4713 0.0129
N5_4 N 0.17291(17) 0.22156(15) 0.0569(6)
N7_4 N 0.2291(3) 0.4635(3) 0.0512(12)
N8_4 N 0.1658(3) 0.4779(3) 0.1571(11)
O8_4 O 0.26959(14) 0.17378(15) 0.0974(6)
O9_4 O 0.10823(15) 0.31834(14) 0.1021(5)
O10_4 O 0.12166(14) 0.27871(14) 0.2089(5)
O11_4 O 0.17345(14) 0.31169(13) 0.0127(5)
O12_4 O 0.18598(13) 0.31725(13) 0.2074(6)
O13_4 O 0.14543(14) 0.30779(13) 0.3945(5)
H25_4 H 0.1347 0.3102 0.4595
H26_4 H 0.1341 0.3061 0.3308
O14_4 O 0.13647(13) 0.36019(13) 0.2376(5)
H27_4 H 0.1241 0.3737 0.2721
H28_4 H 0.1423 0.3677 0.1640
O15_4 O 0.20120(14) 0.38236(14) 0.5031(6)
H29_4 H 0.1935 0.4008 0.4984
H30_4 H 0.1997 0.3767 0.5832
O16_4 O 0.2098(2) 0.3725(2) 0.2303(10)
O17_4 O 0.1802(2) 0.4048(2) 0.2919(10)
O18_4 O 0.15446(19) 0.38176(19) 0.0252(7)
O20_4 O 0.2142(2) 0.3597(2) 0.0104(9)
H32_4 H 0.2082 0.3712 0.0747
Gd1_4 Gd 0.177196(10) 0.349025(9) 0.36899(4)
O23_4 O 0.14059(13) 0.36670(13) 0.5000(5)
O27_4 O 0.19578(13) 0.31722(14) 0.5352(6)
O28_4 O 0.23041(14) 0.32622(15) 0.4026(6)
Gd3_3 Gd 0.322804(10) 0.150975(9) 0.13101(4)
C1_4 C 0.1082(2) 0.19130(19) 0.9764(7)
C2_4 C 0.12465(18) 0.11381(18) 0.6406(8)
C3_4 C 0.1645(2) 0.4056(2) 0.9835(8)
C4_4 C 0.0786(2) 0.1876(2) 0.9601(8)
C5_4 C 0.0687(2) 0.1758(2) 0.8527(8)
H3_4 H 0.0485 0.1732 0.8399
C6_4 C 0.08846(19) 0.16771(19) 0.7630(7)
C7_4 C 0.07681(19) 0.1552(2) 0.6420(7)
C8_4 C 0.11798(19) 0.17175(17) 0.7841(7)
C9_4 C 0.14146(18) 0.16520(19) 0.6947(8)
C11_4 C 0.14346(19) 0.1406(2) 0.6210(7)
C12_4 C 0.16561(18) 0.1395(2) 0.5359(8)
H4_4 H 0.1672 0.1232 0.4835
C13_4 C 0.1853(2) 0.1618(2) 0.5270(9)
H5_4 H 0.1997 0.1618 0.4652
C14_4 C 0.1838(2) 0.1843(2) 0.6102(8)
H6_4 H 0.1983 0.1990 0.6088
C15_4 C 0.1836(2) 0.1383(2) 0.8877(8)
H7_4 H 0.1641 0.1349 0.9106
C16_4 C 0.2000(2) 0.1152(2) 0.8433(10)
H8_4 H 0.1923 0.0961 0.8405
C17_4 C 0.2277(2) 0.1211(2) 0.8036(10)
H9_4 H 0.2389 0.1060 0.7682
C18_4 C 0.2396(2) 0.1487(2) 0.8147(8)
C19_4 C 0.2227(2) 0.1701(2) 0.8698(8)
C20_4 C 0.2323(2) 0.2005(2) 0.8896(8)
C21_4 C 0.25882(19) 0.2083(2) 0.9415(9)
C22_4 C 0.26539(19) 0.2376(2) 0.9488(8)
H10_4 H 0.2834 0.2437 0.9816
C23_4 C 0.24571(19) 0.25795(19) 0.9083(8)
H11_3 H 0.2505 0.2780 0.9100
C24_4 C 0.2191(2) 0.2491(2) 0.8656(8)
H12_4 H 0.2052 0.2632 0.8420
C26_4 C 0.2689(2) 0.1545(2) 0.7548(9)
C32_4 C 0.14271(19) 0.25731(18) 0.9682(7)
C33_4 C 0.11922(18) 0.27534(19) 0.9908(7)
C34_4 C 0.09785(19) 0.27802(19) 0.9042(8)
H16_4 H 0.0814 0.2898 0.9199
C35_4 C 0.10026(19) 0.26344(18) 0.7932(7)
H17_4 H 0.0860 0.2656 0.7316
C36_4 C 0.1241(2) 0.24588(19) 0.7767(8)
H18_4 H 0.1260 0.2358 0.7019
N1_4 N 0.12743(16) 0.18371(15) 0.8887(6)
N2_4 N 0.16220(16) 0.18599(15) 0.6938(6)
N3_4 N 0.19429(17) 0.16522(17) 0.8997(7)
N4_4 N 0.21232(17) 0.22098(17) 0.8566(7)
N6_4 N 0.14489(16) 0.24233(15) 0.8623(6)
O1_4 O 0.05785(13) 0.13581(14) 0.6517(6)
O2_4 O 0.08706(13) 0.16526(14) 0.5451(5)
O3_4 O 0.11670(13) 0.10941(13) 0.7500(5)
O4_4 O 0.12000(13) 0.09802(13) 0.5526(6)
O5_4 O 0.28773(14) 0.13407(14) 0.7626(6)
O6_4 O 0.27317(17) 0.17691(16) 0.6951(9)
O7_4 O 0.30422(13) 0.18278(14) 0.9648(6)
O19_4 O 0.17921(15) 0.40562(14) 0.8866(5)
H31_4 H 0.2295 0.3694 0.9738
O21_4 O 0.12364(14) 0.34180(16) 0.8885(5)
H33_4 H 0.1185 0.3370 0.9665
H34_4 H 0.1132 0.3580 0.8681
O22_4 O 0.16534(14) 0.30758(13) 0.7413(5)
H35_4 H 0.1478 0.3086 0.7100
H36_4 H 0.1781 0.3070 0.6818
Co1_4 Co 0.16876(3) 0.20365(3) 0.87518(10)
Gd2_4 Gd 0.174602(10) 0.349875(9) 0.86954(4)
O24_4 O 0.15198(13) 0.37000(13) 0.6974(6)
O25_4 O 0.21227(14) 0.36593(14) 0.7374(6)
O26_4 O 0.22683(17) 0.32309(16) 0.8049(9)
Gd5_3 Gd 0.325398(10) 0.150125(9) 0.63046(4)
C1_5 C 0.55870(19) 0.3582(2) 0.2264(7)
H1_5 H 0.5507 0.3651 0.3003
C3_5 C 0.3444(2) 0.4145(2) 0.2335(8)
C4_5 C 0.5624(2) 0.3286(2) 0.2101(8)
H2_5 H 0.5569 0.3154 0.2720
C5_5 C 0.5742(2) 0.3187(2) 0.1027(8)
H3_5 H 0.5768 0.2985 0.0899
C6_5 C 0.58229(19) 0.33846(19) 0.0130(7)
C8_5 C 0.57825(17) 0.36798(19) 0.0341(7)
C10_5 C 0.3553(3) 0.4501(3) 0.4729(12)
C15_5 C 0.6117(2) 0.4336(2) 0.1377(8)
H7_5 H 0.6151 0.4141 0.1606
C16_5 C 0.6348(2) 0.4500(2) 0.0933(10)
H8_5 H 0.6539 0.4423 0.0905
C17_5 C 0.6289(2) 0.4777(2) 0.0536(10)
H9_5 H 0.6440 0.4889 0.0182
C18_5 C 0.6013(2) 0.4896(2) 0.0647(8)
C19_5 C 0.5799(2) 0.4727(2) 0.1198(8)
C20_5 C 0.5495(2) 0.4823(2) 0.1396(8)
C21_5 C 0.5417(2) 0.50882(19) 0.1915(9)
C22_5 C 0.5124(2) 0.51539(19) 0.1988(8)
H10_5 H 0.5063 0.5334 0.2316
C23_5 C 0.49205(19) 0.49571(19) 0.1583(8)
H11_4 H 0.4720 0.5005 0.1600
C24_5 C 0.5009(2) 0.4691(2) 0.1156(8)
H12_5 H 0.4868 0.4552 0.0920
C25_5 C 0.5635(2) 0.52862(19) 0.2529(8)
C26_5 C 0.5955(2) 0.5189(2) 0.0048(9)
C27_5 C 0.5386(2) 0.4422(2) 0.3892(8)
H13_5 H 0.5588 0.4462 0.3900
C28_5 C 0.5213(2) 0.4562(2) 0.4715(8)
H14_3 H 0.5291 0.4690 0.5305
C29_5 C 0.4918(2) 0.4509(2) 0.4650(8)
H15_5 H 0.4791 0.4606 0.5197
C30_5 C 0.48008(19) 0.43162(19) 0.3794(7)
C31_7 C 0.50000(19) 0.41631(18) 0.3062(7)
C32_5 C 0.49269(18) 0.39271(19) 0.2182(7)
C33_5 C 0.47466(19) 0.36922(18) 0.2408(7)
C34_5 C 0.47198(19) 0.34785(19) 0.1542(8)
H16_5 H 0.4602 0.3314 0.1699
C35_5 C 0.48656(18) 0.35026(19) 0.0432(7)
C36_5 C 0.50412(19) 0.3741(2) 0.0267(8)
C37_5 C 0.4580(2) 0.36602(19) 0.3606(8)
C38_5 C 0.44773(19) 0.42952(19) 0.3656(7)
C39_5 C 0.2700(4) 0.3863(4) 0.3865(14)
H19_5 H 0.2536 0.3782 0.4258
C40_5 C 0.2841(4) 0.3675(4) 0.3298(14)
H20_5 H 0.2777 0.3483 0.3141
C41_5 C 0.3093(4) 0.3787(4) 0.2951(14)
H21_5 H 0.3233 0.3655 0.2648
C42_5 C 0.3173(2) 0.4081(2) 0.2987(9)
C43_5 C 0.3006(4) 0.4291(4) 0.3490(14)
C44_5 C 0.3073(4) 0.4602(4) 0.3463(14)
C45_5 C 0.3326(4) 0.4682(4) 0.3941(14)
C46_5 C 0.3397(4) 0.4997(4) 0.3614(13)
H22_4 H 0.3581 0.5068 0.3862
C47_4 C 0.3209(3) 0.5201(4) 0.2953(14)
H23_4 H 0.3261 0.5387 0.2656
C48_4 C 0.2941(4) 0.5069(4) 0.2849(14)
H24_4 H 0.2787 0.5195 0.2629
N1_5 N 0.56629(15) 0.37743(16) 0.1387(6)
N3_5 N 0.58478(17) 0.44429(17) 0.1497(7)
N4_5 N 0.52902(17) 0.46232(17) 0.1066(7)
N5_5 N 0.52844(15) 0.42291(17) 0.3069(6)
N6_5 N 0.50767(15) 0.39489(16) 0.1123(6)
N7_5 N 0.2865(3) 0.4791(3) 0.3012(12)
N8_5 N 0.2721(3) 0.4158(3) 0.4071(11)
O3_5 O 0.64059(13) 0.36670(13) 0.0000(5)
O5_5 O 0.61593(14) 0.53773(14) 0.0126(6)
O7_5 O 0.56722(14) 0.55422(13) 0.2148(6)
O8_5 O 0.57622(15) 0.51959(14) 0.3474(6)
O9_5 O 0.43166(14) 0.35823(15) 0.3521(5)
O10_5 O 0.47129(14) 0.37166(14) 0.4589(5)
O11_5 O 0.43831(13) 0.42345(14) 0.2627(5)
O12_5 O 0.43275(13) 0.43598(13) 0.4574(6)
O13_5 O 0.44221(13) 0.39543(14) 0.6445(5)
H25_5 H 0.4398 0.3847 0.7095
H26_5 H 0.4439 0.3841 0.5808
O14_5 O 0.38981(13) 0.38647(13) 0.4876(5)
H27_5 H 0.3763 0.3741 0.5221
H28_5 H 0.3823 0.3923 0.4140
O15_5 O 0.36764(14) 0.45120(14) 0.7531(6)
H29_5 H 0.3492 0.4435 0.7484
H30_5 H 0.3733 0.4497 0.8332
O16_5 O 0.3775(2) 0.4598(2) 0.4803(10)
O17_5 O 0.3452(2) 0.4302(2) 0.5419(10)
O18_5 O 0.36824(19) 0.40446(19) 0.2752(7)
O19_5 O 0.34438(14) 0.42921(15) 0.1366(5)
O20_5 O 0.3903(2) 0.4642(2) 0.2604(9)
H31_5 H 0.3806 0.4795 0.2238
H32_5 H 0.3788 0.4582 0.3247
O21_5 O 0.40820(16) 0.37364(14) 0.1385(5)
H33_5 H 0.4130 0.3685 0.2165
H34_5 H 0.3920 0.3632 0.1181
Co1_5 Co 0.54635(3) 0.41876(3) 0.12518(10)
Gd1_5 Gd 0.400975(9) 0.427196(10) 0.61899(4)
Gd2_5 Gd 0.400125(9) 0.424602(10) 0.11954(4)
O23_5 O 0.38330(13) 0.39059(13) 0.7500(5)
O26_5 O 0.42691(16) 0.47683(17) 0.0549(9)
O27_5 O 0.43278(14) 0.44578(13) 0.7852(6)
O28_5 O 0.42378(15) 0.48041(14) 0.6526(6)
Gd3_4 Gd 0.599025(9) 0.572804(10) 0.38101(4)
C2_5 C 0.63619(18) 0.37465(18) 0.8906(8)
C7_5 C 0.5948(2) 0.32681(19) 0.8920(7)
C9_5 C 0.58480(19) 0.39146(18) 0.9447(8)
C11_5 C 0.6094(2) 0.39346(19) 0.8710(7)
C12_5 C 0.6105(2) 0.41561(18) 0.7859(8)
H4_5 H 0.6268 0.4172 0.7335
C13_5 C 0.5882(2) 0.4353(2) 0.7770(9)
H5_5 H 0.5882 0.4497 0.7152
C14_5 C 0.5657(2) 0.4338(2) 0.8602(8)
H6_5 H 0.5510 0.4483 0.8588
H17_5 H 0.4844 0.3360 0.9816
H18_5 H 0.5142 0.3760 0.9519
N2_5 N 0.56401(15) 0.41220(16) 0.9438(6)
O1_5 O 0.61419(14) 0.30785(13) 0.9017(6)
O2_5 O 0.58474(14) 0.33706(13) 0.7951(5)
O3_6 O 0.64059(13) 0.36670(13) 1.0000(5)
O4_5 O 0.65198(13) 0.37000(13) 0.8026(6)
O6_5 O 0.57309(16) 0.52317(17) 0.9451(9)
O22_5 O 0.44242(13) 0.41534(14) 0.9913(5)
H35_5 H 0.4414 0.3978 0.9600
H36_5 H 0.4430 0.4281 0.9318
O24_5 O 0.38000(13) 0.40198(13) 0.9474(6)
O25_5 O 0.38407(14) 0.46227(14) 0.9874(6)
Gd5_4 Gd 0.599875(9) 0.575398(10) 0.88046(4)
O15_6 O 0.29880(14) 0.61764(14) 0.0031(6)
H30_6 H 0.3003 0.6233 0.0832
O23_6 O 0.35941(13) 0.63330(13) 0.0000(5)
O27_6 O 0.30422(13) 0.68278(14) 0.0352(6)
C1_6 C 0.3918(2) 0.80870(19) 0.4764(7)
H1_6 H 0.3849 0.8007 0.5503
C2_6 C 0.37535(18) 0.88619(18) 0.1406(8)
C3_6 C 0.3355(2) 0.5944(2) 0.4835(8)
C4_6 C 0.4214(2) 0.8124(2) 0.4601(8)
H2_6 H 0.4346 0.8069 0.5220
C5_6 C 0.4313(2) 0.8242(2) 0.3527(8)
H3_6 H 0.4515 0.8268 0.3399
C6_6 C 0.41154(19) 0.83229(19) 0.2630(7)
C7_6 C 0.42319(19) 0.8448(2) 0.1420(7)
C8_6 C 0.38202(19) 0.82825(17) 0.2841(7)
C9_6 C 0.35854(18) 0.83480(19) 0.1947(8)
C10_6 C 0.2999(3) 0.6053(3) 0.7229(12)
C11_6 C 0.35654(19) 0.8594(2) 0.1210(7)
C12_6 C 0.33439(18) 0.8605(2) 0.0359(8)
C13_6 C 0.3147(2) 0.8382(2) 0.0270(9)
C14_6 C 0.3162(2) 0.8157(2) 0.1102(8)
H6_6 H 0.3017 0.8010 0.1088
C15_6 C 0.3164(2) 0.8617(2) 0.3877(8)
H7_6 H 0.3359 0.8651 0.4106
C16_6 C 0.3000(2) 0.8848(2) 0.3433(10)
H8_6 H 0.3077 0.9039 0.3405
C17_6 C 0.2723(2) 0.8789(2) 0.3036(10)
H9_6 H 0.2611 0.8940 0.2682
C18_6 C 0.2604(2) 0.8513(2) 0.3147(8)
C19_6 C 0.2773(2) 0.8299(2) 0.3698(8)
C20_6 C 0.2677(2) 0.7995(2) 0.3896(8)
C21_6 C 0.24118(19) 0.7917(2) 0.4415(9)
C22_6 C 0.23461(19) 0.7624(2) 0.4488(8)
H10_6 H 0.2166 0.7563 0.4816
C23_6 C 0.25429(19) 0.74205(19) 0.4083(8)
H11_5 H 0.2495 0.7220 0.4100
C24_6 C 0.2809(2) 0.7509(2) 0.3656(8)
H12_6 H 0.2948 0.7368 0.3420
C25_6 C 0.22138(19) 0.8135(2) 0.5029(8)
C26_6 C 0.2311(2) 0.8455(2) 0.2548(9)
C27_6 C 0.3078(2) 0.7886(2) 0.6392(8)
H13_6 H 0.3038 0.8088 0.6400
C28_6 C 0.2938(2) 0.7713(2) 0.7215(8)
H14_4 H 0.2810 0.7791 0.7805
C29_6 C 0.2991(2) 0.7418(2) 0.7150(8)
H15_6 H 0.2894 0.7291 0.7697
C30_6 C 0.31838(19) 0.73008(19) 0.6294(7)
C31_8 C 0.33369(18) 0.75000(19) 0.5562(7)
C32_6 C 0.35729(19) 0.74269(18) 0.4682(7)
C33_6 C 0.38078(18) 0.72466(19) 0.4908(7)
C34_6 C 0.40215(19) 0.72198(19) 0.4042(8)
H16_6 H 0.4186 0.7102 0.4199
C35_6 C 0.39974(19) 0.73656(18) 0.2932(7)
H17_6 H 0.4140 0.7344 0.2316
C36_6 C 0.3759(2) 0.75412(19) 0.2767(8)
H18_6 H 0.3740 0.7642 0.2019
C37_6 C 0.38398(19) 0.7080(2) 0.6106(8)
C38_6 C 0.32048(19) 0.69773(19) 0.6156(7)
C39_6 C 0.3637(4) 0.5200(4) 0.6365(14)
H19_6 H 0.3718 0.5036 0.6758
C40_6 C 0.3825(4) 0.5341(4) 0.5798(14)
H20_6 H 0.4017 0.5277 0.5641
C41_6 C 0.3713(4) 0.5593(4) 0.5451(14)
H21_6 H 0.3845 0.5733 0.5148
C42_6 C 0.3419(2) 0.5673(2) 0.5487(9)
C43_6 C 0.3209(4) 0.5506(4) 0.5990(14)
C44_6 C 0.2898(4) 0.5573(4) 0.5963(14)
C45_6 C 0.2818(4) 0.5826(4) 0.6441(14)
C46_6 C 0.2503(4) 0.5897(4) 0.6114(13)
H22_5 H 0.2432 0.6081 0.6362
C47_5 C 0.2299(4) 0.5709(3) 0.5453(14)
H23_5 H 0.2113 0.5761 0.5156
C48_5 C 0.2431(4) 0.5441(4) 0.5349(14)
H24_5 H 0.2305 0.5287 0.5129
N1_6 N 0.37257(16) 0.81629(15) 0.3887(6)
N2_6 N 0.33780(16) 0.81401(15) 0.1938(6)
N3_6 N 0.30571(17) 0.83478(17) 0.3997(7)
N4_6 N 0.28768(17) 0.77902(17) 0.3566(7)
N5_6 N 0.32709(17) 0.77844(15) 0.5569(6)
N6_6 N 0.35511(16) 0.75767(15) 0.3623(6)
N7_6 N 0.2709(3) 0.5365(3) 0.5512(12)
N8_6 N 0.3342(3) 0.5221(3) 0.6571(11)
O1_6 O 0.44215(13) 0.86419(14) 0.1517(6)
O2_6 O 0.41294(13) 0.83474(14) 0.0451(5)
O3_7 O 0.38330(13) 0.89059(13) 0.2500(5)
O4_6 O 0.38000(13) 0.90198(13) 0.0526(6)
O5_6 O 0.21227(14) 0.86593(14) 0.2626(6)
O6_6 O 0.22683(17) 0.82309(16) 0.1951(9)
O7_6 O 0.19578(13) 0.81722(14) 0.4648(6)
O8_6 O 0.23041(14) 0.82622(15) 0.5974(6)
O9_6 O 0.39177(15) 0.68166(14) 0.6021(5)
O10_6 O 0.37834(14) 0.72129(14) 0.7089(5)
O11_6 O 0.32655(14) 0.68831(13) 0.5127(5)
O12_6 O 0.31402(13) 0.68275(13) 0.7074(6)
O13_6 O 0.35457(14) 0.69221(13) 0.8945(5)
H25_6 H 0.3653 0.6898 0.9595
H26_6 H 0.3659 0.6939 0.8308
O14_6 O 0.36353(13) 0.63981(13) 0.7376(5)
H27_6 H 0.3759 0.6263 0.7721
H28_6 H 0.3577 0.6323 0.6640
H29_6 H 0.3065 0.5992 0.9984
O16_6 O 0.2902(2) 0.6275(2) 0.7303(10)
O17_6 O 0.3198(2) 0.5952(2) 0.7919(10)
O18_6 O 0.34554(19) 0.61824(19) 0.5252(7)
O19_6 O 0.32079(15) 0.59438(14) 0.3866(5)
O20_6 O 0.2858(2) 0.6403(2) 0.5104(9)
H31_6 H 0.2705 0.6306 0.4738
H32_6 H 0.2918 0.6288 0.5747
O21_6 O 0.37636(14) 0.65820(16) 0.3885(5)
H33_6 H 0.3815 0.6630 0.4665
H34_6 H 0.3868 0.6420 0.3681
O22_6 O 0.33466(14) 0.69242(13) 0.2413(5)
H35_6 H 0.3522 0.6914 0.2100
H36_6 H 0.3219 0.6930 0.1818
Co1_6 Co 0.33124(3) 0.79635(3) 0.37518(10)
Gd1_6 Gd 0.322804(10) 0.650975(9) 0.86899(4)
Gd2_6 Gd 0.325398(10) 0.650125(9) 0.36954(4)
O23_7 O 0.35941(13) 0.63330(13) 1.0000(5)
O24_6 O 0.34802(13) 0.63000(13) 0.1974(6)
O25_6 O 0.28773(14) 0.63407(14) 0.2374(6)
O26_6 O 0.27317(17) 0.67691(16) 0.3049(9)
O28_6 O 0.26959(14) 0.67378(15) 0.9026(6)
Gd4_4 Gd 0.400975(9) 0.927196(10) 0.38101(4)
H4_6 H 0.3328 0.8768 0.9835
H5_6 H 0.3003 0.8382 0.9652
Gd6_4 Gd 0.400125(9) 0.924602(10) 0.88046(4)
C1_7 C 0.44130(19) 0.1418(2) 0.2264(7)
H1_7 H 0.4493 0.1349 0.3003
C3_7 C 0.6556(2) 0.0855(2) 0.2335(8)
C4_7 C 0.4376(2) 0.1714(2) 0.2101(8)
H2_7 H 0.4431 0.1846 0.2720
C5_7 C 0.4258(2) 0.1813(2) 0.1027(8)
H3_7 H 0.4232 0.2015 0.0899
C6_7 C 0.41771(19) 0.16154(19) 0.0130(7)
C8_7 C 0.42175(17) 0.13202(19) 0.0341(7)
C10_7 C 0.6447(3) 0.0499(3) 0.4729(12)
C15_7 C 0.3883(2) 0.0664(2) 0.1377(8)
H7_7 H 0.3849 0.0859 0.1606
C16_7 C 0.3652(2) 0.0500(2) 0.0933(10)
H8_7 H 0.3461 0.0577 0.0905
C17_7 C 0.3711(2) 0.0223(2) 0.0536(10)
H9_7 H 0.3560 0.0111 0.0182
C18_7 C 0.3987(2) 0.0104(2) 0.0647(8)
C19_7 C 0.4201(2) 0.0273(2) 0.1198(8)
C20_7 C 0.4505(2) 0.0177(2) 0.1396(8)
C23_7 C 0.50795(19) 0.00429(19) 0.1583(8)
C24_7 C 0.4991(2) 0.0309(2) 0.1156(8)
H12_7 H 0.5132 0.0448 0.0920
C27_7 C 0.4614(2) 0.0578(2) 0.3892(8)
H13_7 H 0.4412 0.0538 0.3900
C28_7 C 0.4787(2) 0.0438(2) 0.4715(8)
H14_5 H 0.4709 0.0310 0.5305
C29_7 C 0.5082(2) 0.0491(2) 0.4650(8)
H15_7 H 0.5209 0.0394 0.5197
C30_7 C 0.51992(19) 0.06838(19) 0.3794(7)
C31_9 C 0.50000(19) 0.08369(18) 0.3062(7)
C32_7 C 0.50731(18) 0.10729(19) 0.2182(7)
C33_7 C 0.52534(19) 0.13078(18) 0.2408(7)
C34_7 C 0.52802(19) 0.15215(19) 0.1542(8)
H16_7 H 0.5398 0.1686 0.1699
C35_7 C 0.51344(18) 0.14974(19) 0.0432(7)
C36_7 C 0.49588(19) 0.1259(2) 0.0267(8)
C37_7 C 0.5420(2) 0.13398(19) 0.3606(8)
C38_7 C 0.55227(19) 0.07048(19) 0.3656(7)
C39_7 C 0.7300(4) 0.1137(4) 0.3865(14)
H19_7 H 0.7464 0.1218 0.4258
C40_7 C 0.7159(4) 0.1325(4) 0.3298(14)
H20_7 H 0.7223 0.1517 0.3141
C41_7 C 0.6907(4) 0.1213(4) 0.2951(14)
H21_7 H 0.6767 0.1345 0.2648
C42_7 C 0.6827(2) 0.0919(2) 0.2987(9)
C43_7 C 0.6994(4) 0.0709(4) 0.3490(14)
C44_7 C 0.6927(4) 0.0398(4) 0.3463(14)
C45_7 C 0.6674(4) 0.0318(4) 0.3941(14)
C46_7 C 0.6603(4) 0.0003(4) 0.3614(13)
N1_7 N 0.43371(15) 0.12257(16) 0.1387(6)
N3_7 N 0.41522(17) 0.05571(17) 0.1497(7)
N4_7 N 0.47098(17) 0.03768(17) 0.1066(7)
N5_7 N 0.47156(15) 0.07709(17) 0.3069(6)
N6_7 N 0.49233(15) 0.10511(16) 0.1123(6)
N7_7 N 0.7135(3) 0.0209(3) 0.3012(12)
N8_7 N 0.7279(3) 0.0842(3) 0.4071(11)
O3_8 O 0.35941(13) 0.13330(13) 0.0000(5)
O9_7 O 0.56834(14) 0.14177(15) 0.3521(5)
O10_7 O 0.52871(14) 0.12834(14) 0.4589(5)
O11_7 O 0.56169(13) 0.07655(14) 0.2627(5)
O12_7 O 0.56725(13) 0.06402(13) 0.4574(6)
O13_7 O 0.55779(13) 0.10457(14) 0.6445(5)
H25_7 H 0.5602 0.1153 0.7095
H26_7 H 0.5561 0.1159 0.5808
O14_7 O 0.61019(13) 0.11353(13) 0.4876(5)
H27_7 H 0.6237 0.1259 0.5221
H28_7 H 0.6177 0.1077 0.4140
O15_7 O 0.63236(14) 0.04880(14) 0.7531(6)
H29_7 H 0.6508 0.0565 0.7484
H30_7 H 0.6267 0.0503 0.8332
O16_7 O 0.6225(2) 0.0402(2) 0.4803(10)
O17_7 O 0.6548(2) 0.0698(2) 0.5419(10)
O18_7 O 0.63176(19) 0.09554(19) 0.2752(7)
O19_7 O 0.65562(14) 0.07079(15) 0.1366(5)
O20_7 O 0.6097(2) 0.0358(2) 0.2604(9)
H31_7 H 0.6194 0.0205 0.2238
H32_7 H 0.6212 0.0418 0.3247
O21_7 O 0.59180(16) 0.12636(14) 0.1385(5)
H33_7 H 0.5870 0.1315 0.2165
H34_7 H 0.6080 0.1368 0.1181
Co1_7 Co 0.45365(3) 0.08124(3) 0.12518(10)
Gd1_7 Gd 0.599025(9) 0.072804(10) 0.61899(4)
Gd2_7 Gd 0.599875(9) 0.075398(10) 0.11954(4)
O23_8 O 0.61670(13) 0.10941(13) 0.7500(5)
O26_7 O 0.57309(16) 0.02317(17) 0.0549(9)
O27_7 O 0.56722(14) 0.05422(13) 0.7852(6)
O28_7 O 0.57622(15) 0.01959(14) 0.6526(6)
C2_7 C 0.36381(18) 0.12535(18) 0.8906(8)
C7_7 C 0.4052(2) 0.17319(19) 0.8920(7)
C9_7 C 0.41520(19) 0.10854(18) 0.9447(8)
C11_7 C 0.3906(2) 0.10654(19) 0.8710(7)
C12_7 C 0.3895(2) 0.08439(18) 0.7859(8)
H4_7 H 0.3732 0.0828 0.7335
C13_7 C 0.4118(2) 0.0647(2) 0.7770(9)
H5_7 H 0.4118 0.0503 0.7152
C14_7 C 0.4343(2) 0.0662(2) 0.8602(8)
H6_7 H 0.4490 0.0517 0.8588
H17_7 H 0.5156 0.1640 0.9816
H18_7 H 0.4858 0.1240 0.9519
N2_7 N 0.43599(15) 0.08780(16) 0.9438(6)
O1_7 O 0.38581(14) 0.19215(13) 0.9017(6)
O2_7 O 0.41526(14) 0.16294(13) 0.7951(5)
O3_9 O 0.35941(13) 0.13330(13) 1.0000(5)
O4_7 O 0.34802(13) 0.13000(13) 0.8026(6)
O22_7 O 0.55758(13) 0.08466(14) 0.9913(5)
H35_7 H 0.5586 0.1022 0.9600
H36_7 H 0.5570 0.0719 0.9318
O24_7 O 0.62000(13) 0.09802(13) 0.9474(6)
O25_7 O 0.61593(14) 0.03773(14) 0.9874(6)
C21_7 C 0.4583(2) 0.99118(19) 0.1915(9)
C22_7 C 0.4876(2) 0.98461(19) 0.1988(8)
H10_7 H 0.4937 0.9666 0.2316
H11_6 H 0.5280 0.9995 0.1600
C25_7 C 0.4365(2) 0.97138(19) 0.2529(8)
C26_7 C 0.4045(2) 0.9811(2) 0.0048(9)
H22_6 H 0.6419 0.9932 0.3862
C47_6 C 0.6791(3) 0.9799(4) 0.2953(14)
H23_6 H 0.6739 0.9613 0.2656
C48_6 C 0.7059(4) 0.9931(4) 0.2849(14)
H24_6 H 0.7213 0.9805 0.2629
O5_7 O 0.38407(14) 0.96227(14) 0.0126(6)
O7_7 O 0.43278(14) 0.94578(13) 0.2148(6)
O8_7 O 0.42378(15) 0.98041(14) 0.3474(6)
O6_7 O 0.42691(16) 0.97683(17) 0.9451(9)
O15_8 O 0.70120(14) 0.88236(14) 0.0031(6)
H30_8 H 0.6997 0.8767 0.0832
O23_9 O 0.64059(13) 0.86670(13) 0.0000(5)
O27_8 O 0.69578(13) 0.81722(14) 0.0352(6)
C1_8 C 0.6082(2) 0.69130(19) 0.4764(7)
H1_8 H 0.6151 0.6993 0.5503
C2_8 C 0.62465(18) 0.61381(18) 0.1406(8)
C3_8 C 0.6645(2) 0.9056(2) 0.4835(8)
C4_8 C 0.5786(2) 0.6876(2) 0.4601(8)
H2_8 H 0.5654 0.6931 0.5220
C5_8 C 0.5687(2) 0.6758(2) 0.3527(8)
H3_8 H 0.5485 0.6732 0.3399
C6_8 C 0.58846(19) 0.66771(19) 0.2630(7)
C7_8 C 0.57681(19) 0.6552(2) 0.1420(7)
C8_8 C 0.61798(19) 0.67175(17) 0.2841(7)
C9_8 C 0.64146(18) 0.66520(19) 0.1947(8)
C10_8 C 0.7001(3) 0.8947(3) 0.7229(12)
C11_8 C 0.64346(19) 0.6406(2) 0.1210(7)
C12_8 C 0.66561(18) 0.6395(2) 0.0359(8)
C13_8 C 0.6853(2) 0.6618(2) 0.0270(9)
C14_8 C 0.6838(2) 0.6843(2) 0.1102(8)
H6_8 H 0.6983 0.6990 0.1088
C15_8 C 0.6836(2) 0.6383(2) 0.3877(8)
H7_8 H 0.6641 0.6349 0.4106
C16_8 C 0.7000(2) 0.6152(2) 0.3433(10)
H8_8 H 0.6923 0.5961 0.3405
C17_8 C 0.7277(2) 0.6211(2) 0.3036(10)
H9_8 H 0.7389 0.6060 0.2682
C18_8 C 0.7396(2) 0.6487(2) 0.3147(8)
C19_8 C 0.7227(2) 0.6701(2) 0.3698(8)
C20_8 C 0.7323(2) 0.7005(2) 0.3896(8)
C21_8 C 0.75882(19) 0.7083(2) 0.4415(9)
C22_8 C 0.76539(19) 0.7376(2) 0.4488(8)
H10_8 H 0.7834 0.7437 0.4816
C23_8 C 0.74571(19) 0.75795(19) 0.4083(8)
H11_7 H 0.7505 0.7780 0.4100
C24_8 C 0.7191(2) 0.7491(2) 0.3656(8)
H12_8 H 0.7052 0.7632 0.3420
C25_8 C 0.77862(19) 0.6865(2) 0.5029(8)
C26_8 C 0.7689(2) 0.6545(2) 0.2548(9)
C27_8 C 0.6922(2) 0.7114(2) 0.6392(8)
H13_8 H 0.6962 0.6912 0.6400
C28_8 C 0.7062(2) 0.7287(2) 0.7215(8)
H14_6 H 0.7190 0.7209 0.7805
C29_8 C 0.7009(2) 0.7582(2) 0.7150(8)
H15_8 H 0.7106 0.7709 0.7697
C30_8 C 0.68162(19) 0.76992(19) 0.6294(7)
C31_10 C 0.66631(18) 0.75000(19) 0.5562(7)
C32_8 C 0.64271(19) 0.75731(18) 0.4682(7)
C33_8 C 0.61922(18) 0.77534(19) 0.4908(7)
C34_8 C 0.59785(19) 0.77802(19) 0.4042(8)
H16_8 H 0.5814 0.7898 0.4199
C35_8 C 0.60026(19) 0.76344(18) 0.2932(7)
H17_8 H 0.5860 0.7656 0.2316
C36_8 C 0.6241(2) 0.74588(19) 0.2767(8)
H18_8 H 0.6260 0.7358 0.2019
C37_8 C 0.61602(19) 0.7920(2) 0.6106(8)
C38_8 C 0.67952(19) 0.80227(19) 0.6156(7)
C39_8 C 0.6363(4) 0.9800(4) 0.6365(14)
H19_8 H 0.6282 0.9964 0.6758
C40_8 C 0.6175(4) 0.9659(4) 0.5798(14)
H20_8 H 0.5983 0.9723 0.5641
C41_8 C 0.6287(4) 0.9407(4) 0.5451(14)
H21_8 H 0.6155 0.9267 0.5148
C42_8 C 0.6581(2) 0.9327(2) 0.5487(9)
C43_8 C 0.6791(4) 0.9494(4) 0.5990(14)
C44_8 C 0.7102(4) 0.9427(4) 0.5963(14)
C45_8 C 0.7182(4) 0.9174(4) 0.6441(14)
C46_8 C 0.7497(4) 0.9103(4) 0.6114(13)
H22_7 H 0.7568 0.8919 0.6362
C47_7 C 0.7701(4) 0.9291(3) 0.5453(14)
H23_7 H 0.7887 0.9239 0.5156
C48_7 C 0.7569(4) 0.9559(4) 0.5349(14)
H24_7 H 0.7695 0.9713 0.5129
N1_8 N 0.62743(16) 0.68371(15) 0.3887(6)
N2_8 N 0.66220(16) 0.68599(15) 0.1938(6)
N3_8 N 0.69429(17) 0.66522(17) 0.3997(7)
N4_8 N 0.71232(17) 0.72098(17) 0.3566(7)
N5_8 N 0.67291(17) 0.72156(15) 0.5569(6)
N6_8 N 0.64489(16) 0.74233(15) 0.3623(6)
N7_8 N 0.7291(3) 0.9635(3) 0.5512(12)
N8_8 N 0.6658(3) 0.9779(3) 0.6571(11)
O1_8 O 0.55785(13) 0.63581(14) 0.1517(6)
O2_8 O 0.58706(13) 0.66526(14) 0.0451(5)
O3_10 O 0.61670(13) 0.60941(13) 0.2500(5)
O4_8 O 0.62000(13) 0.59802(13) 0.0526(6)
O5_8 O 0.78773(14) 0.63407(14) 0.2626(6)
O6_8 O 0.77317(17) 0.67691(16) 0.1951(9)
O7_8 O 0.80422(13) 0.68278(14) 0.4648(6)
O8_8 O 0.76959(14) 0.67378(15) 0.5974(6)
O9_8 O 0.60823(15) 0.81834(14) 0.6021(5)
O10_8 O 0.62166(14) 0.77871(14) 0.7089(5)
O11_8 O 0.67345(14) 0.81169(13) 0.5127(5)
O12_8 O 0.68598(13) 0.81725(13) 0.7074(6)
O13_8 O 0.64543(14) 0.80779(13) 0.8945(5)
H25_8 H 0.6347 0.8102 0.9595
H26_8 H 0.6341 0.8061 0.8308
O14_8 O 0.63647(13) 0.86019(13) 0.7376(5)
H27_8 H 0.6241 0.8737 0.7721
H28_8 H 0.6423 0.8677 0.6640
H29_8 H 0.6935 0.9008 0.9984
O16_8 O 0.7098(2) 0.8725(2) 0.7303(10)
O17_8 O 0.6802(2) 0.9048(2) 0.7919(10)
O18_8 O 0.65446(19) 0.88176(19) 0.5252(7)
O19_8 O 0.67921(15) 0.90562(14) 0.3866(5)
O20_8 O 0.7142(2) 0.8597(2) 0.5104(9)
H31_8 H 0.7295 0.8694 0.4738
H32_8 H 0.7082 0.8712 0.5747
O21_8 O 0.62364(14) 0.84180(16) 0.3885(5)
H33_8 H 0.6185 0.8370 0.4665
H34_8 H 0.6132 0.8580 0.3681
O22_8 O 0.66534(14) 0.80758(13) 0.2413(5)
H35_8 H 0.6478 0.8086 0.2100
H36_8 H 0.6781 0.8070 0.1818
Co1_8 Co 0.66876(3) 0.70365(3) 0.37518(10)
Gd1_8 Gd 0.677196(10) 0.849025(9) 0.86899(4)
Gd2_8 Gd 0.674602(10) 0.849875(9) 0.36954(4)
O23_10 O 0.64059(13) 0.86670(13) 1.0000(5)
O24_8 O 0.65198(13) 0.87000(13) 0.1974(6)
O25_8 O 0.71227(14) 0.86593(14) 0.2374(6)
O26_8 O 0.72683(17) 0.82309(16) 0.3049(9)
O28_8 O 0.73041(14) 0.82622(15) 0.9026(6)
H4_8 H 0.6672 0.6232 0.9835
H5_8 H 0.6997 0.6618 0.9652
C3_9 C 0.1556(2) 0.0855(2) 0.2665(8)
C10_9 C 0.1447(3) 0.0499(3) 0.0271(12)
C23_9 C 0.00795(19) 0.00429(19) 0.3417(8)
H12_9 H 0.0132 0.0448 0.4080
C29_9 C 0.0082(2) 0.0491(2) 0.0350(8)
C30_9 C 0.01992(19) 0.06838(19) 0.1206(7)
C31_11 C 0.00000(19) 0.08369(18) 0.1938(7)
C32_9 C 0.00731(18) 0.10729(19) 0.2818(7)
C33_9 C 0.02534(19) 0.13078(18) 0.2592(7)
C34_9 C 0.02802(19) 0.15215(19) 0.3458(8)
H16_9 H 0.0398 0.1686 0.3301
C35_9 C 0.01344(18) 0.14974(19) 0.4568(7)
H17_9 H 0.0156 0.1640 0.5184
C37_9 C 0.0420(2) 0.13398(19) 0.1394(8)
C38_9 C 0.05227(19) 0.07048(19) 0.1344(7)
C39_9 C 0.2300(4) 0.1137(4) 0.1135(14)
H19_9 H 0.2464 0.1218 0.0742
C40_9 C 0.2159(4) 0.1325(4) 0.1702(14)
H20_9 H 0.2223 0.1517 0.1859
C41_9 C 0.1907(4) 0.1213(4) 0.2049(14)
H21_9 H 0.1767 0.1345 0.2352
C42_9 C 0.1827(2) 0.0919(2) 0.2013(9)
C43_9 C 0.1994(4) 0.0709(4) 0.1510(14)
C44_9 C 0.1927(4) 0.0398(4) 0.1537(14)
C45_9 C 0.1674(4) 0.0318(4) 0.1059(14)
C46_9 C 0.1603(4) 0.0003(4) 0.1386(13)
N7_9 N 0.2135(3) 0.0209(3) 0.1988(12)
N8_9 N 0.2279(3) 0.0842(3) 0.0929(11)
O9_9 O 0.06834(14) 0.14177(15) 0.1479(5)
O10_9 O 0.02871(14) 0.12834(14) 0.0411(5)
O11_9 O 0.06169(13) 0.07655(14) 0.2373(5)
O12_9 O 0.06725(13) 0.06402(13) 0.0426(6)
O14_9 O 0.11019(13) 0.11353(13) 0.0124(5)
H28_9 H 0.1177 0.1077 0.0860
O16_9 O 0.1225(2) 0.0402(2) 0.0197(10)
O18_9 O 0.13176(19) 0.09554(19) 0.2248(7)
O19_9 O 0.15562(14) 0.07079(15) 0.3634(5)
O20_9 O 0.1097(2) 0.0358(2) 0.2396(9)
H31_9 H 0.1194 0.0205 0.2762
H32_9 H 0.1212 0.0418 0.1753
O21_9 O 0.09180(16) 0.12636(14) 0.3615(5)
H33_9 H 0.0870 0.1315 0.2835
H34_9 H 0.1080 0.1368 0.3819
O22_9 O 0.05758(13) 0.08466(14) 0.5087(5)
H35_9 H 0.0586 0.1022 0.5400
H36_9 H 0.0570 0.0719 0.5682
H15_9 H 0.0209 0.0394 0.9803
O13_9 O 0.05779(13) 0.10457(14) 0.8555(5)
H25_9 H 0.0602 0.1153 0.7905
H26_9 H 0.0561 0.1159 0.9192
H27_9 H 0.1237 0.1259 0.9779
O15_9 O 0.13236(14) 0.04880(14) 0.7469(6)
H29_9 H 0.1508 0.0565 0.7516
H30_9 H 0.1267 0.0503 0.6668
O17_9 O 0.1548(2) 0.0698(2) 0.9581(10)
C1_9 C 0.94130(19) 0.1418(2) 0.2736(7)
H1_9 H 0.9493 0.1349 0.1997
C2_9 C 0.86381(18) 0.12535(18) 0.6094(8)
C4_9 C 0.9376(2) 0.1714(2) 0.2899(8)
H2_9 H 0.9431 0.1846 0.2280
C5_9 C 0.9258(2) 0.1813(2) 0.3973(8)
H3_9 H 0.9232 0.2015 0.4101
C6_9 C 0.91771(19) 0.16154(19) 0.4870(7)
C7_9 C 0.9052(2) 0.17319(19) 0.6080(7)
C8_9 C 0.92175(17) 0.13202(19) 0.4659(7)
C9_9 C 0.91520(19) 0.10854(18) 0.5553(8)
C11_9 C 0.8906(2) 0.10654(19) 0.6290(7)
C12_9 C 0.8895(2) 0.08439(18) 0.7141(8)
H4_9 H 0.8732 0.0828 0.7665
C13_9 C 0.9118(2) 0.0647(2) 0.7230(9)
H5_9 H 0.9118 0.0503 0.7848
C14_9 C 0.9343(2) 0.0662(2) 0.6398(8)
H6_9 H 0.9490 0.0517 0.6412
C15_9 C 0.8883(2) 0.0664(2) 0.3623(8)
H7_9 H 0.8849 0.0859 0.3394
C16_9 C 0.8652(2) 0.0500(2) 0.4067(10)
H8_9 H 0.8461 0.0577 0.4095
C17_9 C 0.8711(2) 0.0223(2) 0.4464(10)
H9_9 H 0.8560 0.0111 0.4818
C18_9 C 0.8987(2) 0.0104(2) 0.4353(8)
C19_9 C 0.9201(2) 0.0273(2) 0.3802(8)
C20_9 C 0.9505(2) 0.0177(2) 0.3604(8)
C24_9 C 0.9991(2) 0.0309(2) 0.3844(8)
C27_9 C 0.9614(2) 0.0578(2) 0.1108(8)
H13_9 H 0.9412 0.0538 0.1100
C28_9 C 0.9787(2) 0.0438(2) 0.0285(8)
C31_12 C 1.00000(19) 0.08369(18) 0.1938(7)
C36_9 C 0.99588(19) 0.1259(2) 0.4733(8)
H18_9 H 0.9858 0.1240 0.5481
N1_9 N 0.93371(15) 0.12257(16) 0.3613(6)
N2_9 N 0.93599(15) 0.08780(16) 0.5562(6)
N3_9 N 0.91522(17) 0.05571(17) 0.3503(7)
N4_9 N 0.97098(17) 0.03768(17) 0.3934(7)
N5_9 N 0.97156(15) 0.07709(17) 0.1931(6)
N6_9 N 0.99233(15) 0.10511(16) 0.3877(6)
O1_9 O 0.88581(14) 0.19215(13) 0.5983(6)
O2_9 O 0.91526(14) 0.16294(13) 0.7049(5)
Co1_9 Co 0.95365(3) 0.08124(3) 0.37482(10)
C21_9 C 0.9583(2) 0.99118(19) 0.3085(9)
C22_9 C 0.9876(2) 0.98461(19) 0.3012(8)
H10_9 H 0.9937 0.9666 0.2684
C25_9 C 0.9365(2) 0.97138(19) 0.2471(8)
C26_9 C 0.9045(2) 0.9811(2) 0.4952(9)
C1_10 C 0.1082(2) 0.69130(19) 0.0236(7)
C2_10 C 0.12465(18) 0.61381(18) 0.3594(8)
C3_10 C 0.1645(2) 0.9056(2) 0.0165(8)
C4_10 C 0.0786(2) 0.6876(2) 0.0399(8)
C5_10 C 0.0687(2) 0.6758(2) 0.1473(8)
H3_10 H 0.0485 0.6732 0.1601
C6_10 C 0.08846(19) 0.66771(19) 0.2370(7)
C7_10 C 0.07681(19) 0.6552(2) 0.3580(7)
C8_10 C 0.11798(19) 0.67175(17) 0.2159(7)
C9_10 C 0.14146(18) 0.66520(19) 0.3053(8)
C11_10 C 0.14346(19) 0.6406(2) 0.3790(7)
C12_10 C 0.16561(18) 0.6395(2) 0.4641(8)
H4_10 H 0.1672 0.6232 0.5165
C13_10 C 0.1853(2) 0.6618(2) 0.4730(9)
H5_10 H 0.1997 0.6618 0.5348
C14_10 C 0.1838(2) 0.6843(2) 0.3898(8)
H6_10 H 0.1983 0.6990 0.3912
C15_10 C 0.1836(2) 0.6383(2) 0.1123(8)
H7_10 H 0.1641 0.6349 0.0894
C16_10 C 0.2000(2) 0.6152(2) 0.1567(10)
H8_10 H 0.1923 0.5961 0.1595
C17_10 C 0.2277(2) 0.6211(2) 0.1964(10)
H9_10 H 0.2389 0.6060 0.2318
C18_10 C 0.2396(2) 0.6487(2) 0.1853(8)
C19_10 C 0.2227(2) 0.6701(2) 0.1302(8)
C20_10 C 0.2323(2) 0.7005(2) 0.1104(8)
C21_10 C 0.25882(19) 0.7083(2) 0.0585(9)
C22_10 C 0.26539(19) 0.7376(2) 0.0512(8)
H10_10 H 0.2834 0.7437 0.0184
C23_10 C 0.24571(19) 0.75795(19) 0.0917(8)
H11_8 H 0.2505 0.7780 0.0900
C24_10 C 0.2191(2) 0.7491(2) 0.1344(8)
H12_10 H 0.2052 0.7632 0.1580
C26_10 C 0.2689(2) 0.6545(2) 0.2452(9)
C32_10 C 0.14271(19) 0.75731(18) 0.0318(7)
C33_10 C 0.11922(18) 0.77534(19) 0.0092(7)
C34_10 C 0.09785(19) 0.77802(19) 0.0958(8)
H16_10 H 0.0814 0.7898 0.0801
C35_10 C 0.10026(19) 0.76344(18) 0.2068(7)
H17_10 H 0.0860 0.7656 0.2684
C36_10 C 0.1241(2) 0.74588(19) 0.2233(8)
H18_10 H 0.1260 0.7358 0.2981
N1_10 N 0.12743(16) 0.68371(15) 0.1113(6)
N2_10 N 0.16220(16) 0.68599(15) 0.3062(6)
N3_10 N 0.19429(17) 0.66522(17) 0.1003(7)
N4_10 N 0.21232(17) 0.72098(17) 0.1434(7)
N6_10 N 0.14489(16) 0.74233(15) 0.1377(6)
O1_10 O 0.05785(13) 0.63581(14) 0.3483(6)
O2_10 O 0.08706(13) 0.66526(14) 0.4549(5)
O19_10 O 0.17921(15) 0.90562(14) 0.1134(5)
H31_10 H 0.2295 0.8694 0.0262
O21_10 O 0.12364(14) 0.84180(16) 0.1115(5)
H33_10 H 0.1185 0.8370 0.0335
H34_10 H 0.1132 0.8580 0.1319
O22_10 O 0.16534(14) 0.80758(13) 0.2587(5)
H35_10 H 0.1478 0.8086 0.2900
H36_10 H 0.1781 0.8070 0.3182
Co1_10 Co 0.16876(3) 0.70365(3) 0.12482(10)
H1_10 H 0.1151 0.6993 0.9497
H2_10 H 0.0654 0.6931 0.9780
C10_10 C 0.2001(3) 0.8947(3) 0.7771(12)
C25_10 C 0.27862(19) 0.6865(2) 0.9971(8)
C27_10 C 0.1922(2) 0.7114(2) 0.8608(8)
H13_10 H 0.1962 0.6912 0.8600
C28_10 C 0.2062(2) 0.7287(2) 0.7785(8)
H14_7 H 0.2190 0.7209 0.7195
C29_10 C 0.2009(2) 0.7582(2) 0.7850(8)
H15_10 H 0.2106 0.7709 0.7303
C30_10 C 0.18162(19) 0.76992(19) 0.8706(7)
C31_13 C 0.16631(18) 0.75000(19) 0.9438(7)
C37_10 C 0.11602(19) 0.7920(2) 0.8894(8)
C38_10 C 0.17952(19) 0.80227(19) 0.8844(7)
C39_10 C 0.1363(4) 0.9800(4) 0.8635(14)
H19_10 H 0.1282 0.9964 0.8242
C40_10 C 0.1175(4) 0.9659(4) 0.9202(14)
H20_10 H 0.0983 0.9723 0.9359
C41_10 C 0.1287(4) 0.9407(4) 0.9549(14)
H21_10 H 0.1155 0.9267 0.9852
C42_10 C 0.1581(2) 0.9327(2) 0.9513(9)
C43_10 C 0.1791(4) 0.9494(4) 0.9010(14)
C44_10 C 0.2102(4) 0.9427(4) 0.9037(14)
C45_10 C 0.2182(4) 0.9174(4) 0.8559(14)
C46_10 C 0.2497(4) 0.9103(4) 0.8886(13)
H22_8 H 0.2568 0.8919 0.8638
C47_8 C 0.2701(4) 0.9291(3) 0.9547(14)
H23_8 H 0.2887 0.9239 0.9844
C48_8 C 0.2569(4) 0.9559(4) 0.9651(14)
H24_8 H 0.2695 0.9713 0.9871
N5_10 N 0.17291(17) 0.72156(15) 0.9431(6)
N7_10 N 0.2291(3) 0.9635(3) 0.9488(12)
N8_10 N 0.1658(3) 0.9779(3) 0.8429(11)
O9_10 O 0.10823(15) 0.81834(14) 0.8979(5)
O10_10 O 0.12166(14) 0.77871(14) 0.7911(5)
O11_10 O 0.17345(14) 0.81169(13) 0.9873(5)
O12_10 O 0.18598(13) 0.81725(13) 0.7926(6)
O13_10 O 0.14543(14) 0.80779(13) 0.6055(5)
H25_10 H 0.1347 0.8102 0.5405
H26_10 H 0.1341 0.8061 0.6692
O14_10 O 0.13647(13) 0.86019(13) 0.7624(5)
H27_10 H 0.1241 0.8737 0.7279
H28_10 H 0.1423 0.8677 0.8360
O15_10 O 0.20120(14) 0.88236(14) 0.4969(6)
H29_10 H 0.1935 0.9008 0.5016
H30_10 H 0.1997 0.8767 0.4168
O16_10 O 0.2098(2) 0.8725(2) 0.7697(10)
O17_10 O 0.1802(2) 0.9048(2) 0.7081(10)
O18_10 O 0.15446(19) 0.88176(19) 0.9748(7)
O20_10 O 0.2142(2) 0.8597(2) 0.9896(9)
H32_10 H 0.2082 0.8712 0.9253
C1_11 C 0.05870(19) 0.3582(2) 0.2736(7)
H1_11 H 0.0507 0.3651 0.1997
C2_11 C 0.13619(18) 0.37465(18) 0.6094(8)
C4_11 C 0.0624(2) 0.3286(2) 0.2899(8)
H2_11 H 0.0569 0.3154 0.2280
C5_11 C 0.0742(2) 0.3187(2) 0.3973(8)
H3_11 H 0.0768 0.2985 0.4101
C6_11 C 0.08229(19) 0.33846(19) 0.4870(7)
C7_11 C 0.0948(2) 0.32681(19) 0.6080(7)
C8_11 C 0.07825(17) 0.36798(19) 0.4659(7)
C9_11 C 0.08480(19) 0.39146(18) 0.5553(8)
C11_11 C 0.1094(2) 0.39346(19) 0.6290(7)
C12_11 C 0.1105(2) 0.41561(18) 0.7141(8)
H4_11 H 0.1268 0.4172 0.7665
C13_11 C 0.0882(2) 0.4353(2) 0.7230(9)
H5_11 H 0.0882 0.4497 0.7848
C14_11 C 0.0657(2) 0.4338(2) 0.6398(8)
H6_11 H 0.0510 0.4483 0.6412
C15_11 C 0.1117(2) 0.4336(2) 0.3623(8)
H7_11 H 0.1151 0.4141 0.3394
C16_11 C 0.1348(2) 0.4500(2) 0.4067(10)
H8_11 H 0.1539 0.4423 0.4095
C17_11 C 0.1289(2) 0.4777(2) 0.4464(10)
H9_11 H 0.1440 0.4889 0.4818
C18_11 C 0.1013(2) 0.4896(2) 0.4353(8)
C19_11 C 0.0799(2) 0.4727(2) 0.3802(8)
C20_11 C 0.0495(2) 0.4823(2) 0.3604(8)
C21_11 C 0.0417(2) 0.50882(19) 0.3085(9)
C22_11 C 0.0124(2) 0.51539(19) 0.3012(8)
H10_11 H 0.0063 0.5334 0.2684
C24_11 C 0.0009(2) 0.4691(2) 0.3844(8)
C25_11 C 0.0635(2) 0.52862(19) 0.2471(8)
C26_11 C 0.0955(2) 0.5189(2) 0.4952(9)
C27_11 C 0.0386(2) 0.4422(2) 0.1108(8)
H13_11 H 0.0588 0.4462 0.1100
C28_11 C 0.0213(2) 0.4562(2) 0.0285(8)
C31_14 C -0.00000(19) 0.41631(18) 0.1938(7)
C36_11 C 0.00412(19) 0.3741(2) 0.4733(8)
H18_11 H 0.0142 0.3760 0.5481
N1_11 N 0.06629(15) 0.37743(16) 0.3613(6)
N2_11 N 0.06401(15) 0.41220(16) 0.5562(6)
N3_11 N 0.08478(17) 0.44429(17) 0.3503(7)
N4_11 N 0.02902(17) 0.46232(17) 0.3934(7)
N5_11 N 0.02844(15) 0.42291(17) 0.1931(6)
N6_11 N 0.00767(15) 0.39489(16) 0.3877(6)
O1_11 O 0.11419(14) 0.30785(13) 0.5983(6)
O2_11 O 0.08474(14) 0.33706(13) 0.7049(5)
Co1_11 Co 0.04635(3) 0.41876(3) 0.37482(10)
C3_11 C 0.8444(2) 0.4145(2) 0.2665(8)
C10_11 C 0.8553(3) 0.4501(3) 0.0271(12)
C23_11 C 0.99205(19) 0.49571(19) 0.3417(8)
H11_9 H 0.9720 0.5005 0.3400
H12_11 H 0.9868 0.4552 0.4080
C29_11 C 0.9918(2) 0.4509(2) 0.0350(8)
C30_11 C 0.98008(19) 0.43162(19) 0.1206(7)
C31_15 C 1.00000(19) 0.41631(18) 0.1938(7)
C32_11 C 0.99269(18) 0.39271(19) 0.2818(7)
C33_11 C 0.97466(19) 0.36922(18) 0.2592(7)
C34_11 C 0.97198(19) 0.34785(19) 0.3458(8)
H16_11 H 0.9602 0.3314 0.3301
C35_11 C 0.98656(18) 0.35026(19) 0.4568(7)
H17_11 H 0.9844 0.3360 0.5184
C37_11 C 0.9580(2) 0.36602(19) 0.1394(8)
C38_11 C 0.94773(19) 0.42952(19) 0.1344(7)
C39_11 C 0.7700(4) 0.3863(4) 0.1135(14)
H19_11 H 0.7536 0.3782 0.0742
C40_11 C 0.7841(4) 0.3675(4) 0.1702(14)
H20_11 H 0.7777 0.3483 0.1859
C41_11 C 0.8093(4) 0.3787(4) 0.2049(14)
H21_11 H 0.8233 0.3655 0.2352
C42_11 C 0.8173(2) 0.4081(2) 0.2013(9)
C43_11 C 0.8006(4) 0.4291(4) 0.1510(14)
C44_11 C 0.8073(4) 0.4602(4) 0.1537(14)
C45_11 C 0.8326(4) 0.4682(4) 0.1059(14)
C46_11 C 0.8397(4) 0.4997(4) 0.1386(13)
H22_9 H 0.8581 0.5068 0.1138
C47_9 C 0.8209(3) 0.5201(4) 0.2047(14)
H23_9 H 0.8261 0.5387 0.2344
C48_9 C 0.7941(4) 0.5069(4) 0.2151(14)
H24_9 H 0.7787 0.5195 0.2371
N7_11 N 0.7865(3) 0.4791(3) 0.1988(12)
N8_11 N 0.7721(3) 0.4158(3) 0.0929(11)
O9_11 O 0.93166(14) 0.35823(15) 0.1479(5)
O10_11 O 0.97129(14) 0.37166(14) 0.0411(5)
O11_11 O 0.93831(13) 0.42345(14) 0.2373(5)
O12_11 O 0.93275(13) 0.43598(13) 0.0426(6)
O14_11 O 0.88981(13) 0.38647(13) 0.0124(5)
H28_11 H 0.8823 0.3923 0.0860
O16_11 O 0.8775(2) 0.4598(2) 0.0197(10)
O18_11 O 0.86824(19) 0.40446(19) 0.2248(7)
O19_11 O 0.84438(14) 0.42921(15) 0.3634(5)
O20_11 O 0.8903(2) 0.4642(2) 0.2396(9)
H31_11 H 0.8806 0.4795 0.2762
H32_11 H 0.8788 0.4582 0.1753
O21_11 O 0.90820(16) 0.37364(14) 0.3615(5)
H33_11 H 0.9130 0.3685 0.2835
H34_11 H 0.8920 0.3632 0.3819
O22_11 O 0.94242(13) 0.41534(14) 0.5087(5)
H35_11 H 0.9414 0.3978 0.5400
H36_11 H 0.9430 0.4281 0.5682
H15_11 H 0.9791 0.4606 0.9803
O13_11 O 0.94221(13) 0.39543(14) 0.8555(5)
H25_11 H 0.9398 0.3847 0.7905
H26_11 H 0.9439 0.3841 0.9192
H27_11 H 0.8763 0.3741 0.9779
O15_11 O 0.86764(14) 0.45120(14) 0.7469(6)
H29_11 H 0.8492 0.4435 0.7516
H30_11 H 0.8733 0.4497 0.6668
O17_11 O 0.8452(2) 0.4302(2) 0.9581(10)
C1_12 C 0.8918(2) 0.80870(19) 0.0236(7)
C2_12 C 0.87535(18) 0.88619(18) 0.3594(8)
C3_12 C 0.8355(2) 0.5944(2) 0.0165(8)
C4_12 C 0.9214(2) 0.8124(2) 0.0399(8)
C5_12 C 0.9313(2) 0.8242(2) 0.1473(8)
H3_12 H 0.9515 0.8268 0.1601
C6_12 C 0.91154(19) 0.83229(19) 0.2370(7)
C7_12 C 0.92319(19) 0.8448(2) 0.3580(7)
C8_12 C 0.88202(19) 0.82825(17) 0.2159(7)
C9_12 C 0.85854(18) 0.83480(19) 0.3053(8)
C11_12 C 0.85654(19) 0.8594(2) 0.3790(7)
C12_12 C 0.83439(18) 0.8605(2) 0.4641(8)
H4_12 H 0.8328 0.8768 0.5165
C13_12 C 0.8147(2) 0.8382(2) 0.4730(9)
H5_12 H 0.8003 0.8382 0.5348
C14_12 C 0.8162(2) 0.8157(2) 0.3898(8)
H6_12 H 0.8017 0.8010 0.3912
C15_12 C 0.8164(2) 0.8617(2) 0.1123(8)
H7_12 H 0.8359 0.8651 0.0894
C16_12 C 0.8000(2) 0.8848(2) 0.1567(10)
H8_12 H 0.8077 0.9039 0.1595
C17_12 C 0.7723(2) 0.8789(2) 0.1964(10)
H9_12 H 0.7611 0.8940 0.2318
C18_12 C 0.7604(2) 0.8513(2) 0.1853(8)
C19_12 C 0.7773(2) 0.8299(2) 0.1302(8)
C20_12 C 0.7677(2) 0.7995(2) 0.1104(8)
C21_12 C 0.74118(19) 0.7917(2) 0.0585(9)
C22_12 C 0.73461(19) 0.7624(2) 0.0512(8)
H10_12 H 0.7166 0.7563 0.0184
C23_12 C 0.75429(19) 0.74205(19) 0.0917(8)
H11_10 H 0.7495 0.7220 0.0900
C24_12 C 0.7809(2) 0.7509(2) 0.1344(8)
H12_12 H 0.7948 0.7368 0.1580
C26_12 C 0.7311(2) 0.8455(2) 0.2452(9)
C32_12 C 0.85729(19) 0.74269(18) 0.0318(7)
C33_12 C 0.88078(18) 0.72466(19) 0.0092(7)
C34_12 C 0.90215(19) 0.72198(19) 0.0958(8)
H16_12 H 0.9186 0.7102 0.0801
C35_12 C 0.89974(19) 0.73656(18) 0.2068(7)
H17_12 H 0.9140 0.7344 0.2684
C36_12 C 0.8759(2) 0.75412(19) 0.2233(8)
H18_12 H 0.8740 0.7642 0.2981
N1_12 N 0.87257(16) 0.81629(15) 0.1113(6)
N2_12 N 0.83780(16) 0.81401(15) 0.3062(6)
N3_12 N 0.80571(17) 0.83478(17) 0.1003(7)
N4_12 N 0.78768(17) 0.77902(17) 0.1434(7)
N6_12 N 0.85511(16) 0.75767(15) 0.1377(6)
O1_12 O 0.94215(13) 0.86419(14) 0.3483(6)
O2_12 O 0.91294(13) 0.83474(14) 0.4549(5)
O19_12 O 0.82079(15) 0.59438(14) 0.1134(5)
H31_12 H 0.7705 0.6306 0.0262
O21_12 O 0.87636(14) 0.65820(16) 0.1115(5)
H33_12 H 0.8815 0.6630 0.0335
H34_12 H 0.8868 0.6420 0.1319
O22_12 O 0.83466(14) 0.69242(13) 0.2587(5)
H35_12 H 0.8522 0.6914 0.2900
H36_12 H 0.8219 0.6930 0.3182
Co1_12 Co 0.83124(3) 0.79635(3) 0.12482(10)
H1_12 H 0.8849 0.8007 0.9497
H2_12 H 0.9346 0.8069 0.9780
C10_12 C 0.7999(3) 0.6053(3) 0.7771(12)
C25_12 C 0.72138(19) 0.8135(2) 0.9971(8)
C27_12 C 0.8078(2) 0.7886(2) 0.8608(8)
H13_12 H 0.8038 0.8088 0.8600
C28_12 C 0.7938(2) 0.7713(2) 0.7785(8)
H14_8 H 0.7810 0.7791 0.7195
C29_12 C 0.7991(2) 0.7418(2) 0.7850(8)
H15_12 H 0.7894 0.7291 0.7303
C30_12 C 0.81838(19) 0.73008(19) 0.8706(7)
C31_16 C 0.83369(18) 0.75000(19) 0.9438(7)
C37_12 C 0.88398(19) 0.7080(2) 0.8894(8)
C38_12 C 0.82048(19) 0.69773(19) 0.8844(7)
C39_12 C 0.8637(4) 0.5200(4) 0.8635(14)
H19_12 H 0.8718 0.5036 0.8242
C40_12 C 0.8825(4) 0.5341(4) 0.9202(14)
H20_12 H 0.9017 0.5277 0.9359
C41_12 C 0.8713(4) 0.5593(4) 0.9549(14)
H21_12 H 0.8845 0.5733 0.9852
C42_12 C 0.8419(2) 0.5673(2) 0.9513(9)
C43_12 C 0.8209(4) 0.5506(4) 0.9010(14)
C44_12 C 0.7898(4) 0.5573(4) 0.9037(14)
C45_12 C 0.7818(4) 0.5826(4) 0.8559(14)
C46_12 C 0.7503(4) 0.5897(4) 0.8886(13)
H22_10 H 0.7432 0.6081 0.8638
C47_10 C 0.7299(4) 0.5709(3) 0.9547(14)
H23_10 H 0.7113 0.5761 0.9844
C48_10 C 0.7431(4) 0.5441(4) 0.9651(14)
H24_10 H 0.7305 0.5287 0.9871
N5_12 N 0.82709(17) 0.77844(15) 0.9431(6)
N7_12 N 0.7709(3) 0.5365(3) 0.9488(12)
N8_12 N 0.8342(3) 0.5221(3) 0.8429(11)
O9_12 O 0.89177(15) 0.68166(14) 0.8979(5)
O10_12 O 0.87834(14) 0.72129(14) 0.7911(5)
O11_12 O 0.82655(14) 0.68831(13) 0.9873(5)
O12_12 O 0.81402(13) 0.68275(13) 0.7926(6)
O13_12 O 0.85457(14) 0.69221(13) 0.6055(5)
H25_12 H 0.8653 0.6898 0.5405
H26_12 H 0.8659 0.6939 0.6692
O14_12 O 0.86353(13) 0.63981(13) 0.7624(5)
H27_12 H 0.8759 0.6263 0.7279
H28_12 H 0.8577 0.6323 0.8360
O15_12 O 0.79880(14) 0.61764(14) 0.4969(6)
H29_12 H 0.8065 0.5992 0.5016
H30_12 H 0.8003 0.6233 0.4168
O16_12 O 0.7902(2) 0.6275(2) 0.7697(10)
O17_12 O 0.8198(2) 0.5952(2) 0.7081(10)
O18_12 O 0.84554(19) 0.61824(19) 0.9748(7)
O20_12 O 0.7858(2) 0.6403(2) 0.9896(9)
H32_12 H 0.7918 0.6288 0.9253
C2_13 C 0.36381(18) 0.62535(18) 0.1094(8)
C7_13 C 0.4052(2) 0.67319(19) 0.1080(7)
C9_13 C 0.41520(19) 0.60854(18) 0.0553(8)
C11_13 C 0.3906(2) 0.60654(19) 0.1290(7)
C12_13 C 0.3895(2) 0.58439(18) 0.2141(8)
H4_13 H 0.3732 0.5828 0.2665
C13_13 C 0.4118(2) 0.5647(2) 0.2230(9)
H5_13 H 0.4118 0.5503 0.2848
C14_13 C 0.4343(2) 0.5662(2) 0.1398(8)
H6_13 H 0.4490 0.5517 0.1412
H17_13 H 0.5156 0.6640 0.0184
H18_13 H 0.4858 0.6240 0.0481
N2_13 N 0.43599(15) 0.58780(16) 0.0562(6)
O1_13 O 0.38581(14) 0.69215(13) 0.0983(6)
O2_13 O 0.41526(14) 0.66294(13) 0.2049(5)
O22_13 O 0.55758(13) 0.58466(14) 0.0087(5)
H35_13 H 0.5586 0.6022 0.0400
H36_13 H 0.5570 0.5719 0.0682
C1_13 C 0.44130(19) 0.6418(2) 0.7736(7)
H1_13 H 0.4493 0.6349 0.6997
C3_13 C 0.6556(2) 0.5855(2) 0.7665(8)
C4_13 C 0.4376(2) 0.6714(2) 0.7899(8)
H2_13 H 0.4431 0.6846 0.7280
C5_13 C 0.4258(2) 0.6813(2) 0.8973(8)
H3_13 H 0.4232 0.7015 0.9101
C6_13 C 0.41771(19) 0.66154(19) 0.9870(7)
C8_13 C 0.42175(17) 0.63202(19) 0.9659(7)
C10_13 C 0.6447(3) 0.5499(3) 0.5271(12)
C15_13 C 0.3883(2) 0.5664(2) 0.8623(8)
H7_13 H 0.3849 0.5859 0.8394
C16_13 C 0.3652(2) 0.5500(2) 0.9067(10)
H8_13 H 0.3461 0.5577 0.9095
C17_13 C 0.3711(2) 0.5223(2) 0.9464(10)
H9_13 H 0.3560 0.5111 0.9818
C18_13 C 0.3987(2) 0.5104(2) 0.9353(8)
C19_13 C 0.4201(2) 0.5273(2) 0.8802(8)
C20_13 C 0.4505(2) 0.5177(2) 0.8604(8)
C21_13 C 0.4583(2) 0.49118(19) 0.8085(9)
C22_13 C 0.4876(2) 0.48461(19) 0.8012(8)
H10_13 H 0.4937 0.4666 0.7684
C23_13 C 0.50795(19) 0.50429(19) 0.8417(8)
H11_11 H 0.5280 0.4995 0.8400
C24_13 C 0.4991(2) 0.5309(2) 0.8844(8)
H12_13 H 0.5132 0.5448 0.9080
C25_13 C 0.4365(2) 0.47138(19) 0.7471(8)
C26_13 C 0.4045(2) 0.4811(2) 0.9952(9)
C27_13 C 0.4614(2) 0.5578(2) 0.6108(8)
H13_13 H 0.4412 0.5538 0.6100
C28_13 C 0.4787(2) 0.5438(2) 0.5285(8)
H14_9 H 0.4709 0.5310 0.4695
C29_13 C 0.5082(2) 0.5491(2) 0.5350(8)
H15_13 H 0.5209 0.5394 0.4803
C30_13 C 0.51992(19) 0.56838(19) 0.6206(7)
C31_17 C 0.50000(19) 0.58369(18) 0.6938(7)
C32_13 C 0.50731(18) 0.60729(19) 0.7818(7)
C33_13 C 0.52534(19) 0.63078(18) 0.7592(7)
C34_13 C 0.52802(19) 0.65215(19) 0.8458(8)
H16_13 H 0.5398 0.6686 0.8301
C35_13 C 0.51344(18) 0.64974(19) 0.9568(7)
C36_13 C 0.49588(19) 0.6259(2) 0.9733(8)
C37_13 C 0.5420(2) 0.63398(19) 0.6394(8)
C38_13 C 0.55227(19) 0.57048(19) 0.6344(7)
C39_13 C 0.7300(4) 0.6137(4) 0.6135(14)
H19_13 H 0.7464 0.6218 0.5742
C40_13 C 0.7159(4) 0.6325(4) 0.6702(14)
H20_13 H 0.7223 0.6517 0.6859
C41_13 C 0.6907(4) 0.6213(4) 0.7049(14)
H21_13 H 0.6767 0.6345 0.7352
C42_13 C 0.6827(2) 0.5919(2) 0.7013(9)
C43_13 C 0.6994(4) 0.5709(4) 0.6510(14)
C44_13 C 0.6927(4) 0.5398(4) 0.6537(14)
C45_13 C 0.6674(4) 0.5318(4) 0.6059(14)
C46_13 C 0.6603(4) 0.5003(4) 0.6386(13)
H22_11 H 0.6419 0.4932 0.6138
C47_11 C 0.6791(3) 0.4799(4) 0.7047(14)
H23_11 H 0.6739 0.4613 0.7344
C48_11 C 0.7059(4) 0.4931(4) 0.7151(14)
H24_11 H 0.7213 0.4805 0.7371
N1_13 N 0.43371(15) 0.62257(16) 0.8613(6)
N3_13 N 0.41522(17) 0.55571(17) 0.8503(7)
N4_13 N 0.47098(17) 0.53768(17) 0.8934(7)
N5_13 N 0.47156(15) 0.57709(17) 0.6931(6)
N6_13 N 0.49233(15) 0.60511(16) 0.8877(6)
N7_13 N 0.7135(3) 0.5209(3) 0.6988(12)
N8_13 N 0.7279(3) 0.5842(3) 0.5929(11)
O9_13 O 0.56834(14) 0.64177(15) 0.6479(5)
O10_13 O 0.52871(14) 0.62834(14) 0.5411(5)
O11_13 O 0.56169(13) 0.57655(14) 0.7373(5)
O12_13 O 0.56725(13) 0.56402(13) 0.5426(6)
O13_13 O 0.55779(13) 0.60457(14) 0.3555(5)
H25_13 H 0.5602 0.6153 0.2905
H26_13 H 0.5561 0.6159 0.4192
O14_13 O 0.61019(13) 0.61353(13) 0.5124(5)
H27_13 H 0.6237 0.6259 0.4779
H28_13 H 0.6177 0.6077 0.5860
O15_13 O 0.63236(14) 0.54880(14) 0.2469(6)
H29_13 H 0.6508 0.5565 0.2516
H30_13 H 0.6267 0.5503 0.1668
O16_13 O 0.6225(2) 0.5402(2) 0.5197(10)
O17_13 O 0.6548(2) 0.5698(2) 0.4581(10)
O18_13 O 0.63176(19) 0.59554(19) 0.7248(7)
O19_13 O 0.65562(14) 0.57079(15) 0.8634(5)
O20_13 O 0.6097(2) 0.5358(2) 0.7396(9)
H31_13 H 0.6194 0.5205 0.7762
H32_13 H 0.6212 0.5418 0.6753
O21_13 O 0.59180(16) 0.62636(14) 0.8615(5)
H33_13 H 0.5870 0.6315 0.7835
H34_13 H 0.6080 0.6368 0.8819
Co1_13 Co 0.45365(3) 0.58124(3) 0.87482(10)
H4_14 H 0.6672 0.1232 0.0165
H5_14 H 0.6997 0.1618 0.0348
C1_14 C 0.6082(2) 0.19130(19) 0.5236(7)
H1_14 H 0.6151 0.1993 0.4497
C2_14 C 0.62465(18) 0.11381(18) 0.8594(8)
C3_14 C 0.6645(2) 0.4056(2) 0.5165(8)
C4_14 C 0.5786(2) 0.1876(2) 0.5399(8)
H2_14 H 0.5654 0.1931 0.4780
C5_14 C 0.5687(2) 0.1758(2) 0.6473(8)
H3_14 H 0.5485 0.1732 0.6601
C6_14 C 0.58846(19) 0.16771(19) 0.7370(7)
C7_14 C 0.57681(19) 0.1552(2) 0.8580(7)
C8_14 C 0.61798(19) 0.17175(17) 0.7159(7)
C9_14 C 0.64146(18) 0.16520(19) 0.8053(8)
C10_14 C 0.7001(3) 0.3947(3) 0.2771(12)
C11_14 C 0.64346(19) 0.1406(2) 0.8790(7)
C12_14 C 0.66561(18) 0.1395(2) 0.9641(8)
C13_14 C 0.6853(2) 0.1618(2) 0.9730(9)
C14_14 C 0.6838(2) 0.1843(2) 0.8898(8)
H6_14 H 0.6983 0.1990 0.8912
C15_14 C 0.6836(2) 0.1383(2) 0.6123(8)
H7_14 H 0.6641 0.1349 0.5894
C16_14 C 0.7000(2) 0.1152(2) 0.6567(10)
H8_14 H 0.6923 0.0961 0.6595
C17_14 C 0.7277(2) 0.1211(2) 0.6964(10)
H9_14 H 0.7389 0.1060 0.7318
C18_14 C 0.7396(2) 0.1487(2) 0.6853(8)
C19_14 C 0.7227(2) 0.1701(2) 0.6302(8)
C20_14 C 0.7323(2) 0.2005(2) 0.6104(8)
C21_14 C 0.75882(19) 0.2083(2) 0.5585(9)
C22_14 C 0.76539(19) 0.2376(2) 0.5512(8)
H10_14 H 0.7834 0.2437 0.5184
C23_14 C 0.74571(19) 0.25795(19) 0.5917(8)
H11_12 H 0.7505 0.2780 0.5900
C24_14 C 0.7191(2) 0.2491(2) 0.6344(8)
H12_14 H 0.7052 0.2632 0.6580
C25_14 C 0.77862(19) 0.1865(2) 0.4971(8)
C26_14 C 0.7689(2) 0.1545(2) 0.7452(9)
C27_14 C 0.6922(2) 0.2114(2) 0.3608(8)
H13_14 H 0.6962 0.1912 0.3600
C28_14 C 0.7062(2) 0.2287(2) 0.2785(8)
H14_10 H 0.7190 0.2209 0.2195
C29_14 C 0.7009(2) 0.2582(2) 0.2850(8)
H15_14 H 0.7106 0.2709 0.2303
C30_14 C 0.68162(19) 0.26992(19) 0.3706(7)
C31_18 C 0.66631(18) 0.25000(19) 0.4438(7)
C32_14 C 0.64271(19) 0.25731(18) 0.5318(7)
C33_14 C 0.61922(18) 0.27534(19) 0.5092(7)
C34_14 C 0.59785(19) 0.27802(19) 0.5958(8)
H16_14 H 0.5814 0.2898 0.5801
C35_14 C 0.60026(19) 0.26344(18) 0.7068(7)
H17_14 H 0.5860 0.2656 0.7684
C36_14 C 0.6241(2) 0.24588(19) 0.7233(8)
H18_14 H 0.6260 0.2358 0.7981
C37_14 C 0.61602(19) 0.2920(2) 0.3894(8)
C38_14 C 0.67952(19) 0.30227(19) 0.3844(7)
C39_14 C 0.6363(4) 0.4800(4) 0.3635(14)
H19_14 H 0.6282 0.4964 0.3242
C40_14 C 0.6175(4) 0.4659(4) 0.4202(14)
H20_14 H 0.5983 0.4723 0.4359
C41_14 C 0.6287(4) 0.4407(4) 0.4549(14)
H21_14 H 0.6155 0.4267 0.4852
C42_14 C 0.6581(2) 0.4327(2) 0.4513(9)
C43_14 C 0.6791(4) 0.4494(4) 0.4010(14)
C44_14 C 0.7102(4) 0.4427(4) 0.4037(14)
C45_14 C 0.7182(4) 0.4174(4) 0.3559(14)
C46_14 C 0.7497(4) 0.4103(4) 0.3886(13)
H22_12 H 0.7568 0.3919 0.3638
C47_12 C 0.7701(4) 0.4291(3) 0.4547(14)
H23_12 H 0.7887 0.4239 0.4844
C48_12 C 0.7569(4) 0.4559(4) 0.4651(14)
H24_12 H 0.7695 0.4713 0.4871
N1_14 N 0.62743(16) 0.18371(15) 0.6113(6)
N2_14 N 0.66220(16) 0.18599(15) 0.8062(6)
N3_14 N 0.69429(17) 0.16522(17) 0.6003(7)
N4_14 N 0.71232(17) 0.22098(17) 0.6434(7)
N5_14 N 0.67291(17) 0.22156(15) 0.4431(6)
N6_14 N 0.64489(16) 0.24233(15) 0.6377(6)
N7_14 N 0.7291(3) 0.4635(3) 0.4488(12)
N8_14 N 0.6658(3) 0.4779(3) 0.3429(11)
O1_14 O 0.55785(13) 0.13581(14) 0.8483(6)
O2_14 O 0.58706(13) 0.16526(14) 0.9549(5)
O9_14 O 0.60823(15) 0.31834(14) 0.3979(5)
O10_14 O 0.62166(14) 0.27871(14) 0.2911(5)
O11_14 O 0.67345(14) 0.31169(13) 0.4873(5)
O12_14 O 0.68598(13) 0.31725(13) 0.2926(6)
O13_14 O 0.64543(14) 0.30779(13) 0.1055(5)
H25_14 H 0.6347 0.3102 0.0405
H26_14 H 0.6341 0.3061 0.1692
O14_14 O 0.63647(13) 0.36019(13) 0.2624(5)
H27_14 H 0.6241 0.3737 0.2279
H28_14 H 0.6423 0.3677 0.3360
H29_14 H 0.6935 0.4008 0.0016
O16_14 O 0.7098(2) 0.3725(2) 0.2697(10)
O17_14 O 0.6802(2) 0.4048(2) 0.2081(10)
O18_14 O 0.65446(19) 0.38176(19) 0.4748(7)
O19_14 O 0.67921(15) 0.40562(14) 0.6134(5)
O20_14 O 0.7142(2) 0.3597(2) 0.4896(9)
H31_14 H 0.7295 0.3694 0.5262
H32_14 H 0.7082 0.3712 0.4253
O21_14 O 0.62364(14) 0.34180(16) 0.6115(5)
H33_14 H 0.6185 0.3370 0.5335
H34_14 H 0.6132 0.3580 0.6319
O22_14 O 0.66534(14) 0.30758(13) 0.7587(5)
H35_14 H 0.6478 0.3086 0.7900
H36_14 H 0.6781 0.3070 0.8182
Co1_14 Co 0.66876(3) 0.20365(3) 0.62482(10)
O15_14 O 0.70120(14) 0.38236(14) 0.9969(6)
H30_14 H 0.6997 0.3767 0.9168
C21_15 C 0.5417(2) 0.00882(19) 0.8085(9)
C22_15 C 0.5124(2) 0.01539(19) 0.8012(8)
H10_15 H 0.5063 0.0334 0.7684
H11_13 H 0.4720 0.0005 0.8400
C25_15 C 0.5635(2) 0.02862(19) 0.7471(8)
C26_15 C 0.5955(2) 0.0189(2) 0.9952(9)
H22_13 H 0.3581 0.0068 0.6138
C47_13 C 0.3209(3) 0.0201(4) 0.7047(14)
H23_13 H 0.3261 0.0387 0.7344
C48_13 C 0.2941(4) 0.0069(4) 0.7151(14)
H24_13 H 0.2787 0.0195 0.7371
C2_15 C 0.63619(18) 0.87465(18) 0.1094(8)
C7_15 C 0.5948(2) 0.82681(19) 0.1080(7)
C9_15 C 0.58480(19) 0.89146(18) 0.0553(8)
C11_15 C 0.6094(2) 0.89346(19) 0.1290(7)
C12_15 C 0.6105(2) 0.91561(18) 0.2141(8)
H4_15 H 0.6268 0.9172 0.2665
C13_15 C 0.5882(2) 0.9353(2) 0.2230(9)
H5_15 H 0.5882 0.9497 0.2848
C14_15 C 0.5657(2) 0.9338(2) 0.1398(8)
H6_15 H 0.5510 0.9483 0.1412
H17_15 H 0.4844 0.8360 0.0184
H18_15 H 0.5142 0.8760 0.0481
N2_15 N 0.56401(15) 0.91220(16) 0.0562(6)
O1_15 O 0.61419(14) 0.80785(13) 0.0983(6)
O2_15 O 0.58474(14) 0.83706(13) 0.2049(5)
O22_15 O 0.44242(13) 0.91534(14) 0.0087(5)
H35_15 H 0.4414 0.8978 0.0400
H36_15 H 0.4430 0.9281 0.0682
C1_15 C 0.55870(19) 0.8582(2) 0.7736(7)
H1_15 H 0.5507 0.8651 0.6997
C3_15 C 0.3444(2) 0.9145(2) 0.7665(8)
C4_15 C 0.5624(2) 0.8286(2) 0.7899(8)
H2_15 H 0.5569 0.8154 0.7280
C5_15 C 0.5742(2) 0.8187(2) 0.8973(8)
H3_15 H 0.5768 0.7985 0.9101
C6_15 C 0.58229(19) 0.83846(19) 0.9870(7)
C8_15 C 0.57825(17) 0.86798(19) 0.9659(7)
C10_15 C 0.3553(3) 0.9501(3) 0.5271(12)
C15_15 C 0.6117(2) 0.9336(2) 0.8623(8)
H7_15 H 0.6151 0.9141 0.8394
C16_15 C 0.6348(2) 0.9500(2) 0.9067(10)
H8_15 H 0.6539 0.9423 0.9095
C17_15 C 0.6289(2) 0.9777(2) 0.9464(10)
H9_15 H 0.6440 0.9889 0.9818
C18_15 C 0.6013(2) 0.9896(2) 0.9353(8)
C19_15 C 0.5799(2) 0.9727(2) 0.8802(8)
C20_15 C 0.5495(2) 0.9823(2) 0.8604(8)
C23_15 C 0.49205(19) 0.99571(19) 0.8417(8)
C24_15 C 0.5009(2) 0.9691(2) 0.8844(8)
H12_15 H 0.4868 0.9552 0.9080
C27_15 C 0.5386(2) 0.9422(2) 0.6108(8)
H13_15 H 0.5588 0.9462 0.6100
C28_15 C 0.5213(2) 0.9562(2) 0.5285(8)
H14_11 H 0.5291 0.9690 0.4695
C29_15 C 0.4918(2) 0.9509(2) 0.5350(8)
H15_15 H 0.4791 0.9606 0.4803
C30_15 C 0.48008(19) 0.93162(19) 0.6206(7)
C31_19 C 0.50000(19) 0.91631(18) 0.6938(7)
C32_15 C 0.49269(18) 0.89271(19) 0.7818(7)
C33_15 C 0.47466(19) 0.86922(18) 0.7592(7)
C34_15 C 0.47198(19) 0.84785(19) 0.8458(8)
H16_15 H 0.4602 0.8314 0.8301
C35_15 C 0.48656(18) 0.85026(19) 0.9568(7)
C36_15 C 0.50412(19) 0.8741(2) 0.9733(8)
C37_15 C 0.4580(2) 0.86602(19) 0.6394(8)
C38_15 C 0.44773(19) 0.92952(19) 0.6344(7)
C39_15 C 0.2700(4) 0.8863(4) 0.6135(14)
H19_15 H 0.2536 0.8782 0.5742
C40_15 C 0.2841(4) 0.8675(4) 0.6702(14)
H20_15 H 0.2777 0.8483 0.6859
C41_15 C 0.3093(4) 0.8787(4) 0.7049(14)
H21_15 H 0.3233 0.8655 0.7352
C42_15 C 0.3173(2) 0.9081(2) 0.7013(9)
C43_15 C 0.3006(4) 0.9291(4) 0.6510(14)
C44_15 C 0.3073(4) 0.9602(4) 0.6537(14)
C45_15 C 0.3326(4) 0.9682(4) 0.6059(14)
C46_15 C 0.3397(4) 0.9997(4) 0.6386(13)
N1_15 N 0.56629(15) 0.87743(16) 0.8613(6)
N3_15 N 0.58478(17) 0.94429(17) 0.8503(7)
N4_15 N 0.52902(17) 0.96232(17) 0.8934(7)
N5_15 N 0.52844(15) 0.92291(17) 0.6931(6)
N6_15 N 0.50767(15) 0.89489(16) 0.8877(6)
N7_15 N 0.2865(3) 0.9791(3) 0.6988(12)
N8_15 N 0.2721(3) 0.9158(3) 0.5929(11)
O9_15 O 0.43166(14) 0.85823(15) 0.6479(5)
O10_15 O 0.47129(14) 0.87166(14) 0.5411(5)
O11_15 O 0.43831(13) 0.92345(14) 0.7373(5)
O12_15 O 0.43275(13) 0.93598(13) 0.5426(6)
O13_15 O 0.44221(13) 0.89543(14) 0.3555(5)
H25_15 H 0.4398 0.8847 0.2905
H26_15 H 0.4439 0.8841 0.4192
O14_15 O 0.38981(13) 0.88647(13) 0.5124(5)
H27_15 H 0.3763 0.8741 0.4779
H28_15 H 0.3823 0.8923 0.5860
O15_15 O 0.36764(14) 0.95120(14) 0.2469(6)
H29_15 H 0.3492 0.9435 0.2516
H30_15 H 0.3733 0.9497 0.1668
O16_15 O 0.3775(2) 0.9598(2) 0.5197(10)
O17_15 O 0.3452(2) 0.9302(2) 0.4581(10)
O18_15 O 0.36824(19) 0.90446(19) 0.7248(7)
O19_15 O 0.34438(14) 0.92921(15) 0.8634(5)
O20_15 O 0.3903(2) 0.9642(2) 0.7396(9)
H31_15 H 0.3806 0.9795 0.7762
H32_15 H 0.3788 0.9582 0.6753
O21_15 O 0.40820(16) 0.87364(14) 0.8615(5)
H33_15 H 0.4130 0.8685 0.7835
H34_15 H 0.3920 0.8632 0.8819
Co1_15 Co 0.54635(3) 0.91876(3) 0.87482(10)
H4_16 H 0.3328 0.3768 0.0165
H5_16 H 0.3003 0.3382 0.0348
C1_16 C 0.3918(2) 0.30870(19) 0.5236(7)
H1_16 H 0.3849 0.3007 0.4497
C2_16 C 0.37535(18) 0.38619(18) 0.8594(8)
C3_16 C 0.3355(2) 0.0944(2) 0.5165(8)
C4_16 C 0.4214(2) 0.3124(2) 0.5399(8)
H2_16 H 0.4346 0.3069 0.4780
C5_16 C 0.4313(2) 0.3242(2) 0.6473(8)
H3_16 H 0.4515 0.3268 0.6601
C6_16 C 0.41154(19) 0.33229(19) 0.7370(7)
C7_16 C 0.42319(19) 0.3448(2) 0.8580(7)
C8_16 C 0.38202(19) 0.32825(17) 0.7159(7)
C9_16 C 0.35854(18) 0.33480(19) 0.8053(8)
C10_16 C 0.2999(3) 0.1053(3) 0.2771(12)
C11_16 C 0.35654(19) 0.3594(2) 0.8790(7)
C12_16 C 0.33439(18) 0.3605(2) 0.9641(8)
C13_16 C 0.3147(2) 0.3382(2) 0.9730(9)
C14_16 C 0.3162(2) 0.3157(2) 0.8898(8)
H6_16 H 0.3017 0.3010 0.8912
C15_16 C 0.3164(2) 0.3617(2) 0.6123(8)
H7_16 H 0.3359 0.3651 0.5894
C16_16 C 0.3000(2) 0.3848(2) 0.6567(10)
H8_16 H 0.3077 0.4039 0.6595
C17_16 C 0.2723(2) 0.3789(2) 0.6964(10)
H9_16 H 0.2611 0.3940 0.7318
C18_16 C 0.2604(2) 0.3513(2) 0.6853(8)
C19_16 C 0.2773(2) 0.3299(2) 0.6302(8)
C20_16 C 0.2677(2) 0.2995(2) 0.6104(8)
C21_16 C 0.24118(19) 0.2917(2) 0.5585(9)
C22_16 C 0.23461(19) 0.2624(2) 0.5512(8)
H10_16 H 0.2166 0.2563 0.5184
C23_16 C 0.25429(19) 0.24205(19) 0.5917(8)
H11_14 H 0.2495 0.2220 0.5900
C24_16 C 0.2809(2) 0.2509(2) 0.6344(8)
H12_16 H 0.2948 0.2368 0.6580
C25_16 C 0.22138(19) 0.3135(2) 0.4971(8)
C26_16 C 0.2311(2) 0.3455(2) 0.7452(9)
C27_16 C 0.3078(2) 0.2886(2) 0.3608(8)
H13_16 H 0.3038 0.3088 0.3600
C28_16 C 0.2938(2) 0.2713(2) 0.2785(8)
H14_12 H 0.2810 0.2791 0.2195
C29_16 C 0.2991(2) 0.2418(2) 0.2850(8)
H15_16 H 0.2894 0.2291 0.2303
C30_16 C 0.31838(19) 0.23008(19) 0.3706(7)
C31_20 C 0.33369(18) 0.25000(19) 0.4438(7)
C32_16 C 0.35729(19) 0.24269(18) 0.5318(7)
C33_16 C 0.38078(18) 0.22466(19) 0.5092(7)
C34_16 C 0.40215(19) 0.22198(19) 0.5958(8)
H16_16 H 0.4186 0.2102 0.5801
C35_16 C 0.39974(19) 0.23656(18) 0.7068(7)
H17_16 H 0.4140 0.2344 0.7684
C36_16 C 0.3759(2) 0.25412(19) 0.7233(8)
H18_16 H 0.3740 0.2642 0.7981
C37_16 C 0.38398(19) 0.2080(2) 0.3894(8)
C38_16 C 0.32048(19) 0.19773(19) 0.3844(7)
C39_16 C 0.3637(4) 0.0200(4) 0.3635(14)
H19_16 H 0.3718 0.0036 0.3242
C40_16 C 0.3825(4) 0.0341(4) 0.4202(14)
H20_16 H 0.4017 0.0277 0.4359
C41_16 C 0.3713(4) 0.0593(4) 0.4549(14)
H21_16 H 0.3845 0.0733 0.4852
C42_16 C 0.3419(2) 0.0673(2) 0.4513(9)
C43_16 C 0.3209(4) 0.0506(4) 0.4010(14)
C44_16 C 0.2898(4) 0.0573(4) 0.4037(14)
C45_16 C 0.2818(4) 0.0826(4) 0.3559(14)
C46_16 C 0.2503(4) 0.0897(4) 0.3886(13)
H22_14 H 0.2432 0.1081 0.3638
C47_14 C 0.2299(4) 0.0709(3) 0.4547(14)
H23_14 H 0.2113 0.0761 0.4844
C48_14 C 0.2431(4) 0.0441(4) 0.4651(14)
H24_14 H 0.2305 0.0287 0.4871
N1_16 N 0.37257(16) 0.31629(15) 0.6113(6)
N2_16 N 0.33780(16) 0.31401(15) 0.8062(6)
N3_16 N 0.30571(17) 0.33478(17) 0.6003(7)
N4_16 N 0.28768(17) 0.27902(17) 0.6434(7)
N5_16 N 0.32709(17) 0.27844(15) 0.4431(6)
N6_16 N 0.35511(16) 0.25767(15) 0.6377(6)
N7_16 N 0.2709(3) 0.0365(3) 0.4488(12)
N8_16 N 0.3342(3) 0.0221(3) 0.3429(11)
O1_16 O 0.44215(13) 0.36419(14) 0.8483(6)
O2_16 O 0.41294(13) 0.33474(14) 0.9549(5)
O9_16 O 0.39177(15) 0.18166(14) 0.3979(5)
O10_16 O 0.37834(14) 0.22129(14) 0.2911(5)
O11_16 O 0.32655(14) 0.18831(13) 0.4873(5)
O12_16 O 0.31402(13) 0.18275(13) 0.2926(6)
O13_16 O 0.35457(14) 0.19221(13) 0.1055(5)
H25_16 H 0.3653 0.1898 0.0405
H26_16 H 0.3659 0.1939 0.1692
O14_16 O 0.36353(13) 0.13981(13) 0.2624(5)
H27_16 H 0.3759 0.1263 0.2279
H28_16 H 0.3577 0.1323 0.3360
H29_16 H 0.3065 0.0992 0.0016
O16_16 O 0.2902(2) 0.1275(2) 0.2697(10)
O17_16 O 0.3198(2) 0.0952(2) 0.2081(10)
O18_16 O 0.34554(19) 0.11824(19) 0.4748(7)
O19_16 O 0.32079(15) 0.09438(14) 0.6134(5)
O20_16 O 0.2858(2) 0.1403(2) 0.4896(9)
H31_16 H 0.2705 0.1306 0.5262
H32_16 H 0.2918 0.1288 0.4253
O21_16 O 0.37636(14) 0.15820(16) 0.6115(5)
H33_16 H 0.3815 0.1630 0.5335
H34_16 H 0.3868 0.1420 0.6319
O22_16 O 0.33466(14) 0.19242(13) 0.7587(5)
H35_16 H 0.3522 0.1914 0.7900
H36_16 H 0.3219 0.1930 0.8182
Co1_16 Co 0.33124(3) 0.29635(3) 0.62482(10)
O15_16 O 0.29880(14) 0.11764(14) 0.9969(6)
H30_16 H 0.3003 0.1233 0.9168
H14_13 H 0.0291 0.9690 0.0305
H11_15 H 0.9720 0.0005 0.6600
H22_15 H 0.8581 0.0068 0.8862
C47_15 C 0.8209(3) 0.0201(4) 0.7953(14)
H23_15 H 0.8261 0.0387 0.7656
C48_15 C 0.7941(4) 0.0069(4) 0.7849(14)
H24_15 H 0.7787 0.0195 0.7629
H14_14 H 0.9709 0.5310 0.0305
H11_16 H 0.0280 0.9995 0.3400
H22_16 H 0.1419 0.9932 0.1138
C47_16 C 0.1791(3) 0.9799(4) 0.2047(14)
H23_16 H 0.1739 0.9613 0.2344
C48_16 C 0.2059(4) 0.9931(4) 0.2151(14)
H24_16 H 0.2213 0.9805 0.2371
H14_15 H 0.9709 0.0310 0.9695
H14_16 H 0.0291 0.4690 0.9695
loop_
_geom_bond_atom_site_label_1
_geom_bond_atom_site_label_2
_geom_bond_site_symmetry_1
_geom_bond_site_symmetry_2
C22 C21 1_555 1_555
H10 C22 1_555 1_555
C25 C21 1_555 1_555
O5 C26 1_555 1_555
O6 C26 1_555 1_555
O7 C25 1_555 1_555
O8 C25 1_555 1_555
Gd3 O7 1_555 1_555
Gd5 O5 1_555 1_555
O6 Gd5 1_555 1_555
O8 Gd3 1_555 1_555
C1 H1 1_555 1_555
C2 C11 1_555 1_555
C4 C1 1_555 1_555
H2 C4 1_555 1_555
C5 C4 1_555 1_555
H3 C5 1_555 1_555
C6 C5 1_555 1_555
C7 C6 1_555 1_555
C8 C6 1_555 1_555
C9 C8 1_555 1_555
C11 C9 1_555 1_555
C12 C11 1_555 1_555
H4 C12 1_555 1_555
C13 C12 1_555 1_555
H5 C13 1_555 1_555
C14 C13 1_555 1_555
H6 C14 1_555 1_555
C15 H7 1_555 1_555
C16 C15 1_555 1_555
H8 C16 1_555 1_555
C17 C16 1_555 1_555
H9 C17 1_555 1_555
C18 C17 1_555 1_555
C19 C18 1_555 1_555
C20 C19 1_555 1_555
C27 H13 1_555 1_555
C28 C27 1_555 1_555
H18 C36 1_555 1_555
N1 C1 1_555 1_555
N2 C9 1_555 1_555
N3 C15 1_555 1_555
N4 C20 1_555 1_555
N5 C27 1_555 1_555
O1 C7 1_555 1_555
O2 C7 1_555 1_555
O3 C2 1_555 1_555
O4 C2 1_555 1_555
Co1 N1 1_555 1_555
Gd4 O3 1_555 1_555
Gd6 O4 1_555 1_555
C8 N1 1_555 1_555
C14 N2 1_555 1_555
C19 N3 1_555 1_555
C24 N4 1_555 1_555
C31 N5 1_555 1_555
C36 N6 1_555 1_555
N2 Co1 1_555 1_555
N3 Co1 1_555 1_555
N4 Co1 1_555 1_555
N5 Co1 1_555 1_555
N6 Co1 1_555 1_555
O13 H25 1_555 1_555
H26 O13 1_555 1_555
O15 H29 1_555 1_555
H30 O15 1_555 1_555
O23 Gd1 1_555 1_555
O27 Gd1 1_555 1_555
O28 Gd1 1_555 1_555
O13 Gd1 1_555 1_555
O15 Gd1 1_555 1_555
O17 Gd1 1_555 1_555
C3 C42 1_555 1_555
C10 C45 1_555 1_555
C30 C29 1_555 1_555
C31_2 C30 1_555 1_555
C32 C31_2 1_555 1_555
C33 C32 1_555 1_555
C34 C33 1_555 1_555
H16 C34 1_555 1_555
C35 C34 1_555 1_555
H17 C35 1_555 1_555
C37 C33 1_555 1_555
C38 C30 1_555 1_555
C39 H19 1_555 1_555
C40 C39 1_555 1_555
H20 C40 1_555 1_555
C41 C40 1_555 1_555
H21 C41 1_555 1_555
C42 C41 1_555 1_555
C43 C42 1_555 1_555
C44 C43 1_555 1_555
C45 C44 1_555 1_555
C46 C45 1_555 1_555
N7 C44 1_555 1_555
N8 C39 1_555 1_555
O9 C37 1_555 1_555
O10 C37 1_555 1_555
O11 C38 1_555 1_555
O12 C38 1_555 1_555
H28 O14 1_555 1_555
O16 C10 1_555 1_555
O18 C3 1_555 1_555
O19 C3 1_555 1_555
O20 H31 1_555 1_555
H32 O20 1_555 1_555
O21 H33 1_555 1_555
H34 O21 1_555 1_555
O22 H35 1_555 1_555
H36 O22 1_555 1_555
Gd2 O11 1_555 1_555
O24 Gd2 1_555 1_555
O25 Gd2 1_555 1_555
O26 Gd2 1_555 1_555
C43 N8 1_555 1_555
O18 Gd2 1_555 1_555
O19 Gd2 1_555 1_555
O20 Gd2 1_555 1_555
O21 Gd2 1_555 1_555
O22 Gd2 1_555 1_555
C10_2 C45_2 1_555 1_555
C27_2 H13_2 1_555 1_555
C28_2 C27_2 1_555 1_555
H14 C28_2 1_555 1_555
C29_2 C28_2 1_555 1_555
H15_2 C29_2 1_555 1_555
C30_2 C29_2 1_555 1_555
C31_3 C30_2 1_555 1_555
C38_2 C30_2 1_555 1_555
C39_2 H19_2 1_555 1_555
C40_2 C39_2 1_555 1_555
H20_2 C40_2 1_555 1_555
C41_2 C40_2 1_555 1_555
H21_2 C41_2 1_555 1_555
C42_2 C41_2 1_555 1_555
C43_2 C42_2 1_555 1_555
C44_2 C43_2 1_555 1_555
C45_2 C44_2 1_555 1_555
C46_2 C45_2 1_555 1_555
H22 C46_2 1_555 1_555
C47 C46_2 1_555 1_555
H23 C47 1_555 1_555
C48 C47 1_555 1_555
H24 C48 1_555 1_555
N5_2 C27_2 1_555 1_555
N7_2 C44_2 1_555 1_555
N8_2 C39_2 1_555 1_555
O8_2 C25_2 1_555 1_555
O9_2 C37_2 1_555 1_555
O10_2 C37_2 1_555 1_555
O11_2 C38_2 1_555 1_555
O12_2 C38_2 1_555 1_555
O13_2 H25_2 1_555 1_555
H26_2 O13_2 1_555 1_555
O14_2 H27_2 1_555 1_555
H28_2 O14_2 1_555 1_555
O15_2 H29_2 1_555 1_555
H30_2 O15_2 1_555 1_555
O16_2 C10_2 1_555 1_555
O17_2 C10_2 1_555 1_555
H32_2 O20_2 1_555 1_555
Gd1_2 O12_2 1_555 1_555
O23_2 Gd1_2 1_555 1_555
O27_2 Gd1_2 1_555 1_555
O28_2 Gd1_2 1_555 1_555
C31_3 N5_2 1_555 1_555
C43_2 N8_2 1_555 1_555
C48 N7_2 1_555 1_555
O8_2 Gd3_2 1_555 1_555
O13_2 Gd1_2 1_555 1_555
O14_2 Gd1_2 1_555 1_555
O15_2 Gd1_2 1_555 1_555
O16_2 Gd1_2 1_555 1_555
O17_2 Gd1_2 1_555 1_555
C2_2 C11_2 1_555 1_555
C4_2 C1_2 1_555 1_555
C5_2 C4_2 1_555 1_555
H3_2 C5_2 1_555 1_555
C6_2 C5_2 1_555 1_555
C7_2 C6_2 1_555 1_555
C8_2 C6_2 1_555 1_555
C9_2 C8_2 1_555 1_555
C11_2 C9_2 1_555 1_555
C12_2 C11_2 1_555 1_555
H4_2 C12_2 1_555 1_555
C13_2 C12_2 1_555 1_555
H5_2 C13_2 1_555 1_555
C14_2 C13_2 1_555 1_555
H6_2 C14_2 1_555 1_555
C15_2 H7_2 1_555 1_555
C16_2 C15_2 1_555 1_555
H8_2 C16_2 1_555 1_555
C17_2 C16_2 1_555 1_555
H9_2 C17_2 1_555 1_555
C18_2 C17_2 1_555 1_555
C19_2 C18_2 1_555 1_555
C20_2 C19_2 1_555 1_555
C21_2 C20_2 1_555 1_555
C22_2 C21_2 1_555 1_555
H10_2 C22_2 1_555 1_555
C23_2 C22_2 1_555 1_555
H11 C23_2 1_555 1_555
C24_2 C23_2 1_555 1_555
H12_2 C24_2 1_555 1_555
C26_2 C18_2 1_555 1_555
C33_2 C32_2 1_555 1_555
C34_2 C33_2 1_555 1_555
H16_2 C34_2 1_555 1_555
C35_2 C34_2 1_555 1_555
H17_2 C35_2 1_555 1_555
C36_2 C35_2 1_555 1_555
H18_2 C36_2 1_555 1_555
N1_2 C1_2 1_555 1_555
N2_2 C9_2 1_555 1_555
N3_2 C15_2 1_555 1_555
N4_2 C20_2 1_555 1_555
N6_2 C32_2 1_555 1_555
O1_2 C7_2 1_555 1_555
O2_2 C7_2 1_555 1_555
O3_2 C2_2 1_555 1_555
O4_2 C2_2 1_555 1_555
O5_2 C26_2 1_555 1_555
O6_2 C26_2 1_555 1_555
O19_2 C3_2 1_555 1_555
O21_2 H33_2 1_555 1_555
H34_2 O21_2 1_555 1_555
O22_2 H35_2 1_555 1_555
H36_2 O22_2 1_555 1_555
Co1_2 N1_2 1_555 1_555
O24_2 Gd2_2 1_555 1_555
O25_2 Gd2_2 1_555 1_555
O26_2 Gd2_2 1_555 1_555
Gd4_2 O3_2 1_555 1_555
Gd5_2 O5_2 1_555 1_555
Gd6_2 O4_2 1_555 1_555
C8_2 N1_2 1_555 1_555
C14_2 N2_2 1_555 1_555
C19_2 N3_2 1_555 1_555
C24_2 N4_2 1_555 1_555
C36_2 N6_2 1_555 1_555
N2_2 Co1_2 1_555 1_555
N3_2 Co1_2 1_555 1_555
N4_2 Co1_2 1_555 1_555
N6_2 Co1_2 1_555 1_555
O6_2 Gd5_2 1_555 1_555
O19_2 Gd2_2 1_555 1_555
O21_2 Gd2_2 1_555 1_555
O22_2 Gd2_2 1_555 1_555
O13_3 H25_3 1_555 1_555
H26_3 O13_3 1_555 1_555
O15_3 H29_3 1_555 1_555
H30_3 O15_3 1_555 1_555
O23_3 Gd1_3 1_555 1_555
O27_3 Gd1_3 1_555 1_555
O28_3 Gd1_3 1_555 1_555
O13_3 Gd1_3 1_555 1_555
O15_3 Gd1_3 1_555 1_555
O17_3 Gd1_3 1_555 1_555
C3_3 C42_3 1_555 1_555
C10_3 C45_3 1_555 1_555
H11_2 C23_3 1_555 1_555
C30_3 C29_3 1_555 1_555
C31_4 C30_3 1_555 1_555
C32_3 C31_4 1_555 1_555
C33_3 C32_3 1_555 1_555
C34_3 C33_3 1_555 1_555
H16_3 C34_3 1_555 1_555
C35_3 C34_3 1_555 1_555
H17_3 C35_3 1_555 1_555
C37_3 C33_3 1_555 1_555
C38_3 C30_3 1_555 1_555
C39_3 H19_3 1_555 1_555
C40_3 C39_3 1_555 1_555
H20_3 C40_3 1_555 1_555
C41_3 C40_3 1_555 1_555
H21_3 C41_3 1_555 1_555
C42_3 C41_3 1_555 1_555
C43_3 C42_3 1_555 1_555
C44_3 C43_3 1_555 1_555
C45_3 C44_3 1_555 1_555
C46_3 C45_3 1_555 1_555
H22_2 C46_3 1_555 1_555
C47_2 C46_3 1_555 1_555
H23_2 C47_2 1_555 1_555
C48_2 C47_2 1_555 1_555
H24_2 C48_2 1_555 1_555
N7_3 C44_3 1_555 1_555
N8_3 C39_3 1_555 1_555
O9_3 C37_3 1_555 1_555
O10_3 C37_3 1_555 1_555
O11_3 C38_3 1_555 1_555
O12_3 C38_3 1_555 1_555
H28_3 O14_3 1_555 1_555
O16_3 C10_3 1_555 1_555
O18_3 C3_3 1_555 1_555
O19_3 C3_3 1_555 1_555
O20_3 H31_3 1_555 1_555
H32_3 O20_3 1_555 1_555
O21_3 H33_3 1_555 1_555
H34_3 O21_3 1_555 1_555
O22_3 H35_3 1_555 1_555
H36_3 O22_3 1_555 1_555
Gd2_3 O11_3 1_555 1_555
O24_3 Gd2_3 1_555 1_555
O25_3 Gd2_3 1_555 1_555
O26_3 Gd2_3 1_555 1_555
C43_3 N8_3 1_555 1_555
C48_2 N7_3 1_555 1_555
O18_3 Gd2_3 1_555 1_555
O19_3 Gd2_3 1_555 1_555
O20_3 Gd2_3 1_555 1_555
O21_3 Gd2_3 1_555 1_555
O22_3 Gd2_3 1_555 1_555
C1_3 H1_3 1_555 1_555
C2_3 C11_3 1_555 1_555
C4_3 C1_3 1_555 1_555
H2_3 C4_3 1_555 1_555
C5_3 C4_3 1_555 1_555
H3_3 C5_3 1_555 1_555
C6_3 C5_3 1_555 1_555
C7_3 C6_3 1_555 1_555
C8_3 C6_3 1_555 1_555
C9_3 C8_3 1_555 1_555
C11_3 C9_3 1_555 1_555
C12_3 C11_3 1_555 1_555
H4_3 C12_3 1_555 1_555
C13_3 C12_3 1_555 1_555
H5_3 C13_3 1_555 1_555
C14_3 C13_3 1_555 1_555
H6_3 C14_3 1_555 1_555
C15_3 H7_3 1_555 1_555
C16_3 C15_3 1_555 1_555
H8_3 C16_3 1_555 1_555
C17_3 C16_3 1_555 1_555
H9_3 C17_3 1_555 1_555
C18_3 C17_3 1_555 1_555
C19_3 C18_3 1_555 1_555
C20_3 C19_3 1_555 1_555
C21_3 C20_3 1_555 1_555
C22_3 C21_3 1_555 1_555
H10_3 C22_3 1_555 1_555
C25_3 C21_3 1_555 1_555
C26_3 C18_3 1_555 1_555
C27_3 H13_3 1_555 1_555
C28_3 C27_3 1_555 1_555
H18_3 C36_3 1_555 1_555
N1_3 C1_3 1_555 1_555
N2_3 C9_3 1_555 1_555
N3_3 C15_3 1_555 1_555
N4_3 C20_3 1_555 1_555
N5_3 C27_3 1_555 1_555
O1_3 C7_3 1_555 1_555
O2_3 C7_3 1_555 1_555
O3_3 C2_3 1_555 1_555
O4_3 C2_3 1_555 1_555
O5_3 C26_3 1_555 1_555
O6_3 C26_3 1_555 1_555
O7_3 C25_3 1_555 1_555
O8_3 C25_3 1_555 1_555
Co1_3 N1_3 1_555 1_555
Gd4_2 O7_3 1_555 1_555
Gd4_3 O3_3 1_555 1_555
Gd6_2 O5_3 1_555 1_555
Gd6_3 O4_3 1_555 1_555
C8_3 N1_3 1_555 1_555
C14_3 N2_3 1_555 1_555
C19_3 N3_3 1_555 1_555
C24_3 N4_3 1_555 1_555
C31_5 N5_3 1_555 1_555
C36_3 N6_3 1_555 1_555
N2_3 Co1_3 1_555 1_555
N3_3 Co1_3 1_555 1_555
N4_3 Co1_3 1_555 1_555
N5_3 Co1_3 1_555 1_555
N6_3 Co1_3 1_555 1_555
O6_3 Gd6_2 1_555 1_555
O8_3 Gd4_2 1_555 1_555
C10_4 C45_4 1_555 1_555
C27_4 H13_4 1_555 1_555
C28_4 C27_4 1_555 1_555
H14_2 C28_4 1_555 1_555
C29_4 C28_4 1_555 1_555
H15_4 C29_4 1_555 1_555
C30_4 C29_4 1_555 1_555
C31_6 C30_4 1_555 1_555
C38_4 C30_4 1_555 1_555
C39_4 H19_4 1_555 1_555
C40_4 C39_4 1_555 1_555
H20_4 C40_4 1_555 1_555
C41_4 C40_4 1_555 1_555
H21_4 C41_4 1_555 1_555
C42_4 C41_4 1_555 1_555
C43_4 C42_4 1_555 1_555
C44_4 C43_4 1_555 1_555
C45_4 C44_4 1_555 1_555
C46_4 C45_4 1_555 1_555
H22_3 C46_4 1_555 1_555
C47_3 C46_4 1_555 1_555
H23_3 C47_3 1_555 1_555
C48_3 C47_3 1_555 1_555
H24_3 C48_3 1_555 1_555
N5_4 C27_4 1_555 1_555
N7_4 C44_4 1_555 1_555
N8_4 C39_4 1_555 1_555
O8_4 C25_4 1_555 1_555
O9_4 C37_4 1_555 1_555
O10_4 C37_4 1_555 1_555
O11_4 C38_4 1_555 1_555
O12_4 C38_4 1_555 1_555
O13_4 H25_4 1_555 1_555
H26_4 O13_4 1_555 1_555
O14_4 H27_4 1_555 1_555
H28_4 O14_4 1_555 1_555
O15_4 H29_4 1_555 1_555
H30_4 O15_4 1_555 1_555
O16_4 C10_4 1_555 1_555
O17_4 C10_4 1_555 1_555
H32_4 O20_4 1_555 1_555
Gd1_4 O12_4 1_555 1_555
O23_4 Gd1_4 1_555 1_555
O27_4 Gd1_4 1_555 1_555
O28_4 Gd1_4 1_555 1_555
C31_6 N5_4 1_555 1_555
C43_4 N8_4 1_555 1_555
C48_3 N7_4 1_555 1_555
O8_4 Gd3_3 1_555 1_555
O13_4 Gd1_4 1_555 1_555
O14_4 Gd1_4 1_555 1_555
O15_4 Gd1_4 1_555 1_555
O16_4 Gd1_4 1_555 1_555
O17_4 Gd1_4 1_555 1_555
C2_4 C11_4 1_555 1_555
C4_4 C1_4 1_555 1_555
C5_4 C4_4 1_555 1_555
H3_4 C5_4 1_555 1_555
C6_4 C5_4 1_555 1_555
C7_4 C6_4 1_555 1_555
C8_4 C6_4 1_555 1_555
C9_4 C8_4 1_555 1_555
C11_4 C9_4 1_555 1_555
C12_4 C11_4 1_555 1_555
H4_4 C12_4 1_555 1_555
C13_4 C12_4 1_555 1_555
H5_4 C13_4 1_555 1_555
C14_4 C13_4 1_555 1_555
H6_4 C14_4 1_555 1_555
C15_4 H7_4 1_555 1_555
C16_4 C15_4 1_555 1_555
H8_4 C16_4 1_555 1_555
C17_4 C16_4 1_555 1_555
H9_4 C17_4 1_555 1_555
C18_4 C17_4 1_555 1_555
C19_4 C18_4 1_555 1_555
C20_4 C19_4 1_555 1_555
C21_4 C20_4 1_555 1_555
C22_4 C21_4 1_555 1_555
H10_4 C22_4 1_555 1_555
C23_4 C22_4 1_555 1_555
H11_3 C23_4 1_555 1_555
C24_4 C23_4 1_555 1_555
H12_4 C24_4 1_555 1_555
C26_4 C18_4 1_555 1_555
C33_4 C32_4 1_555 1_555
C34_4 C33_4 1_555 1_555
H16_4 C34_4 1_555 1_555
C35_4 C34_4 1_555 1_555
H17_4 C35_4 1_555 1_555
C36_4 C35_4 1_555 1_555
H18_4 C36_4 1_555 1_555
N1_4 C1_4 1_555 1_555
N2_4 C9_4 1_555 1_555
N3_4 C15_4 1_555 1_555
N4_4 C20_4 1_555 1_555
N6_4 C32_4 1_555 1_555
O1_4 C7_4 1_555 1_555
O2_4 C7_4 1_555 1_555
O3_4 C2_4 1_555 1_555
O4_4 C2_4 1_555 1_555
O5_4 C26_4 1_555 1_555
O6_4 C26_4 1_555 1_555
O19_4 C3_4 1_555 1_555
O21_4 H33_4 1_555 1_555
H34_4 O21_4 1_555 1_555
O22_4 H35_4 1_555 1_555
H36_4 O22_4 1_555 1_555
Co1_4 N1_4 1_555 1_555
O24_4 Gd2_4 1_555 1_555
O25_4 Gd2_4 1_555 1_555
O26_4 Gd2_4 1_555 1_555
Gd3 O3_4 1_555 1_555
Gd5_3 O5_4 1_555 1_555
Gd5 O4_4 1_555 1_555
C8_4 N1_4 1_555 1_555
C14_4 N2_4 1_555 1_555
C19_4 N3_4 1_555 1_555
C24_4 N4_4 1_555 1_555
C36_4 N6_4 1_555 1_555
N2_4 Co1_4 1_555 1_555
N3_4 Co1_4 1_555 1_555
N4_4 Co1_4 1_555 1_555
N6_4 Co1_4 1_555 1_555
O6_4 Gd5_3 1_555 1_555
O19_4 Gd2_4 1_555 1_555
O21_4 Gd2_4 1_555 1_555
O22_4 Gd2_4 1_555 1_555
C1_5 H1_5 1_555 1_555
C3_5 C42_5 1_555 1_555
C4_5 C1_5 1_555 1_555
H2_5 C4_5 1_555 1_555
C5_5 C4_5 1_555 1_555
H3_5 C5_5 1_555 1_555
C6_5 C5_5 1_555 1_555
C8_5 C6_5 1_555 1_555
C10_5 C45_5 1_555 1_555
C15_5 H7_5 1_555 1_555
C16_5 C15_5 1_555 1_555
H8_5 C16_5 1_555 1_555
C17_5 C16_5 1_555 1_555
H9_5 C17_5 1_555 1_555
C18_5 C17_5 1_555 1_555
C19_5 C18_5 1_555 1_555
C20_5 C19_5 1_555 1_555
C21_5 C20_5 1_555 1_555
C22_5 C21_5 1_555 1_555
H10_5 C22_5 1_555 1_555
C23_5 C22_5 1_555 1_555
H11_4 C23_5 1_555 1_555
C24_5 C23_5 1_555 1_555
H12_5 C24_5 1_555 1_555
C25_5 C21_5 1_555 1_555
C26_5 C18_5 1_555 1_555
C27_5 H13_5 1_555 1_555
C28_5 C27_5 1_555 1_555
H14_3 C28_5 1_555 1_555
C29_5 C28_5 1_555 1_555
H15_5 C29_5 1_555 1_555
C30_5 C29_5 1_555 1_555
C31_7 C30_5 1_555 1_555
C32_5 C31_7 1_555 1_555
C33_5 C32_5 1_555 1_555
C34_5 C33_5 1_555 1_555
H16_5 C34_5 1_555 1_555
C35_5 C34_5 1_555 1_555
C36_5 C35_5 1_555 1_555
C37_5 C33_5 1_555 1_555
C38_5 C30_5 1_555 1_555
C39_5 H19_5 1_555 1_555
C40_5 C39_5 1_555 1_555
H20_5 C40_5 1_555 1_555
C41_5 C40_5 1_555 1_555
H21_5 C41_5 1_555 1_555
C42_5 C41_5 1_555 1_555
C43_5 C42_5 1_555 1_555
C44_5 C43_5 1_555 1_555
C45_5 C44_5 1_555 1_555
C46_5 C45_5 1_555 1_555
H22_4 C46_5 1_555 1_555
C47_4 C46_5 1_555 1_555
H23_4 C47_4 1_555 1_555
C48_4 C47_4 1_555 1_555
H24_4 C48_4 1_555 1_555
N1_5 C1_5 1_555 1_555
N3_5 C15_5 1_555 1_555
N4_5 C20_5 1_555 1_555
N5_5 C27_5 1_555 1_555
N6_5 C32_5 1_555 1_555
N7_5 C44_5 1_555 1_555
N8_5 C39_5 1_555 1_555
O5_5 C26_5 1_555 1_555
O7_5 C25_5 1_555 1_555
O8_5 C25_5 1_555 1_555
O9_5 C37_5 1_555 1_555
O10_5 C37_5 1_555 1_555
O11_5 C38_5 1_555 1_555
O12_5 C38_5 1_555 1_555
O13_5 H25_5 1_555 1_555
H26_5 O13_5 1_555 1_555
O14_5 H27_5 1_555 1_555
H28_5 O14_5 1_555 1_555
O15_5 H29_5 1_555 1_555
H30_5 O15_5 1_555 1_555
O16_5 C10_5 1_555 1_555
O17_5 C10_5 1_555 1_555
O18_5 C3_5 1_555 1_555
O19_5 C3_5 1_555 1_555
O20_5 H31_5 1_555 1_555
H32_5 O20_5 1_555 1_555
O21_5 H33_5 1_555 1_555
H34_5 O21_5 1_555 1_555
Co1_5 N1_5 1_555 1_555
Gd1_5 O12_5 1_555 1_555
Gd2_5 O11_5 1_555 1_555
O23_5 Gd1_5 1_555 1_555
O26_5 Gd2_5 1_555 1_555
O27_5 Gd1_5 1_555 1_555
O28_5 Gd1_5 1_555 1_555
Gd3_4 O7_5 1_555 1_555
Gd3_2 O3_5 1_555 1_555
C8_5 N1_5 1_555 1_555
C19_5 N3_5 1_555 1_555
C24_5 N4_5 1_555 1_555
C31_7 N5_5 1_555 1_555
C36_5 N6_5 1_555 1_555
C43_5 N8_5 1_555 1_555
C48_4 N7_5 1_555 1_555
N3_5 Co1_5 1_555 1_555
N4_5 Co1_5 1_555 1_555
N5_5 Co1_5 1_555 1_555
N6_5 Co1_5 1_555 1_555
O8_5 Gd3_4 1_555 1_555
O13_5 Gd1_5 1_555 1_555
O14_5 Gd1_5 1_555 1_555
O15_5 Gd1_5 1_555 1_555
O16_5 Gd1_5 1_555 1_555
O17_5 Gd1_5 1_555 1_555
O18_5 Gd2_5 1_555 1_555
O19_5 Gd2_5 1_555 1_555
O20_5 Gd2_5 1_555 1_555
O21_5 Gd2_5 1_555 1_555
C2_5 C11_5 1_555 1_555
C11_5 C9_5 1_555 1_555
C12_5 C11_5 1_555 1_555
H4_5 C12_5 1_555 1_555
C13_5 C12_5 1_555 1_555
H5_5 C13_5 1_555 1_555
C14_5 C13_5 1_555 1_555
H6_5 C14_5 1_555 1_555
N2_5 C9_5 1_555 1_555
O1_5 C7_5 1_555 1_555
O2_5 C7_5 1_555 1_555
O3_6 C2_5 1_555 1_555
O4_5 C2_5 1_555 1_555
O22_5 H35_5 1_555 1_555
H36_5 O22_5 1_555 1_555
Gd5_2 O4_5 1_555 1_555
C14_5 N2_5 1_555 1_555
O6_5 Gd5_4 1_555 1_555
H30_6 O15_6 1_555 1_555
C1_6 H1_6 1_555 1_555
C2_6 C11_6 1_555 1_555
C3_6 C42_6 1_555 1_555
C4_6 C1_6 1_555 1_555
H2_6 C4_6 1_555 1_555
C5_6 C4_6 1_555 1_555
H3_6 C5_6 1_555 1_555
C6_6 C5_6 1_555 1_555
C7_6 C6_6 1_555 1_555
C8_6 C6_6 1_555 1_555
C9_6 C8_6 1_555 1_555
C10_6 C45_6 1_555 1_555
C11_6 C9_6 1_555 1_555
C12_6 C11_6 1_555 1_555
C13_6 C12_6 1_555 1_555
C14_6 C13_6 1_555 1_555
H6_6 C14_6 1_555 1_555
C15_6 H7_6 1_555 1_555
C16_6 C15_6 1_555 1_555
H8_6 C16_6 1_555 1_555
C17_6 C16_6 1_555 1_555
H9_6 C17_6 1_555 1_555
C18_6 C17_6 1_555 1_555
C19_6 C18_6 1_555 1_555
C20_6 C19_6 1_555 1_555
C21_6 C20_6 1_555 1_555
C22_6 C21_6 1_555 1_555
H10_6 C22_6 1_555 1_555
C23_6 C22_6 1_555 1_555
H11_5 C23_6 1_555 1_555
C24_6 C23_6 1_555 1_555
H12_6 C24_6 1_555 1_555
C25_6 C21_6 1_555 1_555
C26_6 C18_6 1_555 1_555
C27_6 H13_6 1_555 1_555
C28_6 C27_6 1_555 1_555
H14_4 C28_6 1_555 1_555
C29_6 C28_6 1_555 1_555
H15_6 C29_6 1_555 1_555
C30_6 C29_6 1_555 1_555
C31_8 C30_6 1_555 1_555
C32_6 C31_8 1_555 1_555
C33_6 C32_6 1_555 1_555
C34_6 C33_6 1_555 1_555
H16_6 C34_6 1_555 1_555
C35_6 C34_6 1_555 1_555
H17_6 C35_6 1_555 1_555
C36_6 C35_6 1_555 1_555
H18_6 C36_6 1_555 1_555
C37_6 C33_6 1_555 1_555
C38_6 C30_6 1_555 1_555
C39_6 H19_6 1_555 1_555
C40_6 C39_6 1_555 1_555
H20_6 C40_6 1_555 1_555
C41_6 C40_6 1_555 1_555
H21_6 C41_6 1_555 1_555
C42_6 C41_6 1_555 1_555
C43_6 C42_6 1_555 1_555
C44_6 C43_6 1_555 1_555
C45_6 C44_6 1_555 1_555
C46_6 C45_6 1_555 1_555
H22_5 C46_6 1_555 1_555
C47_5 C46_6 1_555 1_555
H23_5 C47_5 1_555 1_555
C48_5 C47_5 1_555 1_555
H24_5 C48_5 1_555 1_555
N1_6 C1_6 1_555 1_555
N2_6 C9_6 1_555 1_555
N3_6 C15_6 1_555 1_555
N4_6 C20_6 1_555 1_555
N5_6 C27_6 1_555 1_555
N6_6 C32_6 1_555 1_555
N7_6 C44_6 1_555 1_555
N8_6 C39_6 1_555 1_555
O1_6 C7_6 1_555 1_555
O2_6 C7_6 1_555 1_555
O3_7 C2_6 1_555 1_555
O4_6 C2_6 1_555 1_555
O5_6 C26_6 1_555 1_555
O6_6 C26_6 1_555 1_555
O7_6 C25_6 1_555 1_555
O8_6 C25_6 1_555 1_555
O9_6 C37_6 1_555 1_555
O10_6 C37_6 1_555 1_555
O11_6 C38_6 1_555 1_555
O12_6 C38_6 1_555 1_555
O13_6 H25_6 1_555 1_555
H26_6 O13_6 1_555 1_555
O14_6 H27_6 1_555 1_555
H28_6 O14_6 1_555 1_555
O16_6 C10_6 1_555 1_555
O17_6 C10_6 1_555 1_555
O18_6 C3_6 1_555 1_555
O19_6 C3_6 1_555 1_555
O20_6 H31_6 1_555 1_555
H32_6 O20_6 1_555 1_555
O21_6 H33_6 1_555 1_555
H34_6 O21_6 1_555 1_555
O22_6 H35_6 1_555 1_555
H36_6 O22_6 1_555 1_555
Co1_6 N1_6 1_555 1_555
Gd1_6 O12_6 1_555 1_555
Gd2_6 O11_6 1_555 1_555
O23_7 Gd1_6 1_555 1_555
O24_6 Gd2_6 1_555 1_555
O25_6 Gd2_6 1_555 1_555
O26_6 Gd2_6 1_555 1_555
O28_6 Gd1_6 1_555 1_555
Gd4 O7_6 1_555 1_555
Gd4_4 O3_7 1_555 1_555
Gd6 O5_6 1_555 1_555
C8_6 N1_6 1_555 1_555
C14_6 N2_6 1_555 1_555
C19_6 N3_6 1_555 1_555
C24_6 N4_6 1_555 1_555
C31_8 N5_6 1_555 1_555
C36_6 N6_6 1_555 1_555
C43_6 N8_6 1_555 1_555
C48_5 N7_6 1_555 1_555
N2_6 Co1_6 1_555 1_555
N3_6 Co1_6 1_555 1_555
N4_6 Co1_6 1_555 1_555
N5_6 Co1_6 1_555 1_555
N6_6 Co1_6 1_555 1_555
O6_6 Gd6 1_555 1_555
O8_6 Gd4 1_555 1_555
O13_6 Gd1_6 1_555 1_555
O14_6 Gd1_6 1_555 1_555
O16_6 Gd1_6 1_555 1_555
O17_6 Gd1_6 1_555 1_555
O18_6 Gd2_6 1_555 1_555
O19_6 Gd2_6 1_555 1_555
O20_6 Gd2_6 1_555 1_555
O21_6 Gd2_6 1_555 1_555
O22_6 Gd2_6 1_555 1_555
C1_7 H1_7 1_555 1_555
C3_7 C42_7 1_555 1_555
C4_7 C1_7 1_555 1_555
H2_7 C4_7 1_555 1_555
C5_7 C4_7 1_555 1_555
H3_7 C5_7 1_555 1_555
C6_7 C5_7 1_555 1_555
C8_7 C6_7 1_555 1_555
C10_7 C45_7 1_555 1_555
C15_7 H7_7 1_555 1_555
C16_7 C15_7 1_555 1_555
H8_7 C16_7 1_555 1_555
C17_7 C16_7 1_555 1_555
H9_7 C17_7 1_555 1_555
C18_7 C17_7 1_555 1_555
C19_7 C18_7 1_555 1_555
C20_7 C19_7 1_555 1_555
C24_7 C23_7 1_555 1_555
H12_7 C24_7 1_555 1_555
C27_7 H13_7 1_555 1_555
C28_7 C27_7 1_555 1_555
H14_5 C28_7 1_555 1_555
C29_7 C28_7 1_555 1_555
H15_7 C29_7 1_555 1_555
C30_7 C29_7 1_555 1_555
C31_9 C30_7 1_555 1_555
C32_7 C31_9 1_555 1_555
C33_7 C32_7 1_555 1_555
C34_7 C33_7 1_555 1_555
H16_7 C34_7 1_555 1_555
C35_7 C34_7 1_555 1_555
C36_7 C35_7 1_555 1_555
C37_7 C33_7 1_555 1_555
C38_7 C30_7 1_555 1_555
C39_7 H19_7 1_555 1_555
C40_7 C39_7 1_555 1_555
H20_7 C40_7 1_555 1_555
C41_7 C40_7 1_555 1_555
H21_7 C41_7 1_555 1_555
C42_7 C41_7 1_555 1_555
C43_7 C42_7 1_555 1_555
C44_7 C43_7 1_555 1_555
C45_7 C44_7 1_555 1_555
C46_7 C45_7 1_555 1_555
N1_7 C1_7 1_555 1_555
N3_7 C15_7 1_555 1_555
N4_7 C20_7 1_555 1_555
N5_7 C27_7 1_555 1_555
N6_7 C32_7 1_555 1_555
N7_7 C44_7 1_555 1_555
N8_7 C39_7 1_555 1_555
O9_7 C37_7 1_555 1_555
O10_7 C37_7 1_555 1_555
O11_7 C38_7 1_555 1_555
O12_7 C38_7 1_555 1_555
O13_7 H25_7 1_555 1_555
H26_7 O13_7 1_555 1_555
O14_7 H27_7 1_555 1_555
H28_7 O14_7 1_555 1_555
O15_7 H29_7 1_555 1_555
H30_7 O15_7 1_555 1_555
O16_7 C10_7 1_555 1_555
O17_7 C10_7 1_555 1_555
O18_7 C3_7 1_555 1_555
O19_7 C3_7 1_555 1_555
O20_7 H31_7 1_555 1_555
H32_7 O20_7 1_555 1_555
O21_7 H33_7 1_555 1_555
H34_7 O21_7 1_555 1_555
Co1_7 N1_7 1_555 1_555
Gd1_7 O12_7 1_555 1_555
Gd2_7 O11_7 1_555 1_555
O23_8 Gd1_7 1_555 1_555
O26_7 Gd2_7 1_555 1_555
O27_7 Gd1_7 1_555 1_555
O28_7 Gd1_7 1_555 1_555
Gd3_3 O3_8 1_555 1_555
C8_7 N1_7 1_555 1_555
C19_7 N3_7 1_555 1_555
C24_7 N4_7 1_555 1_555
C31_9 N5_7 1_555 1_555
C36_7 N6_7 1_555 1_555
C43_7 N8_7 1_555 1_555
N3_7 Co1_7 1_555 1_555
N4_7 Co1_7 1_555 1_555
N5_7 Co1_7 1_555 1_555
N6_7 Co1_7 1_555 1_555
O13_7 Gd1_7 1_555 1_555
O14_7 Gd1_7 1_555 1_555
O15_7 Gd1_7 1_555 1_555
O16_7 Gd1_7 1_555 1_555
O17_7 Gd1_7 1_555 1_555
O18_7 Gd2_7 1_555 1_555
O19_7 Gd2_7 1_555 1_555
O20_7 Gd2_7 1_555 1_555
O21_7 Gd2_7 1_555 1_555
C2_7 C11_7 1_555 1_555
C11_7 C9_7 1_555 1_555
C12_7 C11_7 1_555 1_555
H4_7 C12_7 1_555 1_555
C13_7 C12_7 1_555 1_555
H5_7 C13_7 1_555 1_555
C14_7 C13_7 1_555 1_555
H6_7 C14_7 1_555 1_555
N2_7 C9_7 1_555 1_555
O1_7 C7_7 1_555 1_555
O2_7 C7_7 1_555 1_555
O3_9 C2_7 1_555 1_555
O4_7 C2_7 1_555 1_555
O22_7 H35_7 1_555 1_555
H36_7 O22_7 1_555 1_555
Gd5_3 O4_7 1_555 1_555
C14_7 N2_7 1_555 1_555
C22_7 C21_7 1_555 1_555
H10_7 C22_7 1_555 1_555
C25_7 C21_7 1_555 1_555
H23_6 C47_6 1_555 1_555
C48_6 C47_6 1_555 1_555
H24_6 C48_6 1_555 1_555
O5_7 C26_7 1_555 1_555
O7_7 C25_7 1_555 1_555
O8_7 C25_7 1_555 1_555
Gd4_4 O7_7 1_555 1_555
O8_7 Gd4_4 1_555 1_555
O6_7 Gd6_4 1_555 1_555
H30_8 O15_8 1_555 1_555
C1_8 H1_8 1_555 1_555
C2_8 C11_8 1_555 1_555
C3_8 C42_8 1_555 1_555
C4_8 C1_8 1_555 1_555
H2_8 C4_8 1_555 1_555
C5_8 C4_8 1_555 1_555
H3_8 C5_8 1_555 1_555
C6_8 C5_8 1_555 1_555
C7_8 C6_8 1_555 1_555
C8_8 C6_8 1_555 1_555
C9_8 C8_8 1_555 1_555
C10_8 C45_8 1_555 1_555
C11_8 C9_8 1_555 1_555
C12_8 C11_8 1_555 1_555
C13_8 C12_8 1_555 1_555
C14_8 C13_8 1_555 1_555
H6_8 C14_8 1_555 1_555
C15_8 H7_8 1_555 1_555
C16_8 C15_8 1_555 1_555
H8_8 C16_8 1_555 1_555
C17_8 C16_8 1_555 1_555
H9_8 C17_8 1_555 1_555
C18_8 C17_8 1_555 1_555
C19_8 C18_8 1_555 1_555
C20_8 C19_8 1_555 1_555
C21_8 C20_8 1_555 1_555
C22_8 C21_8 1_555 1_555
H10_8 C22_8 1_555 1_555
C23_8 C22_8 1_555 1_555
H11_7 C23_8 1_555 1_555
C24_8 C23_8 1_555 1_555
H12_8 C24_8 1_555 1_555
C25_8 C21_8 1_555 1_555
C26_8 C18_8 1_555 1_555
C27_8 H13_8 1_555 1_555
C28_8 C27_8 1_555 1_555
H14_6 C28_8 1_555 1_555
C29_8 C28_8 1_555 1_555
H15_8 C29_8 1_555 1_555
C30_8 C29_8 1_555 1_555
C31_10 C30_8 1_555 1_555
C32_8 C31_10 1_555 1_555
C33_8 C32_8 1_555 1_555
C34_8 C33_8 1_555 1_555
H16_8 C34_8 1_555 1_555
C35_8 C34_8 1_555 1_555
H17_8 C35_8 1_555 1_555
C36_8 C35_8 1_555 1_555
H18_8 C36_8 1_555 1_555
C37_8 C33_8 1_555 1_555
C38_8 C30_8 1_555 1_555
C39_8 H19_8 1_555 1_555
C40_8 C39_8 1_555 1_555
H20_8 C40_8 1_555 1_555
C41_8 C40_8 1_555 1_555
H21_8 C41_8 1_555 1_555
C42_8 C41_8 1_555 1_555
C43_8 C42_8 1_555 1_555
C44_8 C43_8 1_555 1_555
C45_8 C44_8 1_555 1_555
C46_8 C45_8 1_555 1_555
H22_7 C46_8 1_555 1_555
C47_7 C46_8 1_555 1_555
H23_7 C47_7 1_555 1_555
C48_7 C47_7 1_555 1_555
H24_7 C48_7 1_555 1_555
N1_8 C1_8 1_555 1_555
N2_8 C9_8 1_555 1_555
N3_8 C15_8 1_555 1_555
N4_8 C20_8 1_555 1_555
N5_8 C27_8 1_555 1_555
N6_8 C32_8 1_555 1_555
N7_8 C44_8 1_555 1_555
N8_8 C39_8 1_555 1_555
O1_8 C7_8 1_555 1_555
O2_8 C7_8 1_555 1_555
O3_10 C2_8 1_555 1_555
O4_8 C2_8 1_555 1_555
O5_8 C26_8 1_555 1_555
O6_8 C26_8 1_555 1_555
O7_8 C25_8 1_555 1_555
O8_8 C25_8 1_555 1_555
O9_8 C37_8 1_555 1_555
O10_8 C37_8 1_555 1_555
O11_8 C38_8 1_555 1_555
O12_8 C38_8 1_555 1_555
O13_8 H25_8 1_555 1_555
H26_8 O13_8 1_555 1_555
O14_8 H27_8 1_555 1_555
H28_8 O14_8 1_555 1_555
O16_8 C10_8 1_555 1_555
O17_8 C10_8 1_555 1_555
O18_8 C3_8 1_555 1_555
O19_8 C3_8 1_555 1_555
O20_8 H31_8 1_555 1_555
H32_8 O20_8 1_555 1_555
O21_8 H33_8 1_555 1_555
H34_8 O21_8 1_555 1_555
O22_8 H35_8 1_555 1_555
H36_8 O22_8 1_555 1_555
Co1_8 N1_8 1_555 1_555
Gd1_8 O12_8 1_555 1_555
Gd2_8 O11_8 1_555 1_555
O23_10 Gd1_8 1_555 1_555
O24_8 Gd2_8 1_555 1_555
O25_8 Gd2_8 1_555 1_555
O26_8 Gd2_8 1_555 1_555
O28_8 Gd1_8 1_555 1_555
Gd4_3 O7_8 1_555 1_555
Gd3_4 O3_10 1_555 1_555
Gd6_3 O5_8 1_555 1_555
C8_8 N1_8 1_555 1_555
C14_8 N2_8 1_555 1_555
C19_8 N3_8 1_555 1_555
C24_8 N4_8 1_555 1_555
C31_10 N5_8 1_555 1_555
C36_8 N6_8 1_555 1_555
C43_8 N8_8 1_555 1_555
C48_7 N7_8 1_555 1_555
N2_8 Co1_8 1_555 1_555
N3_8 Co1_8 1_555 1_555
N4_8 Co1_8 1_555 1_555
N5_8 Co1_8 1_555 1_555
N6_8 Co1_8 1_555 1_555
O6_8 Gd6_3 1_555 1_555
O8_8 Gd4_3 1_555 1_555
O13_8 Gd1_8 1_555 1_555
O14_8 Gd1_8 1_555 1_555
O16_8 Gd1_8 1_555 1_555
O17_8 Gd1_8 1_555 1_555
O18_8 Gd2_8 1_555 1_555
O19_8 Gd2_8 1_555 1_555
O20_8 Gd2_8 1_555 1_555
O21_8 Gd2_8 1_555 1_555
O22_8 Gd2_8 1_555 1_555
C3_9 C42_9 1_555 1_555
C10_9 C45_9 1_555 1_555
C30_9 C29_9 1_555 1_555
C31_11 C30_9 1_555 1_555
C32_9 C31_11 1_555 1_555
C33_9 C32_9 1_555 1_555
C34_9 C33_9 1_555 1_555
H16_9 C34_9 1_555 1_555
C35_9 C34_9 1_555 1_555
H17_9 C35_9 1_555 1_555
C37_9 C33_9 1_555 1_555
C38_9 C30_9 1_555 1_555
C39_9 H19_9 1_555 1_555
C40_9 C39_9 1_555 1_555
H20_9 C40_9 1_555 1_555
C41_9 C40_9 1_555 1_555
H21_9 C41_9 1_555 1_555
C42_9 C41_9 1_555 1_555
C43_9 C42_9 1_555 1_555
C44_9 C43_9 1_555 1_555
C45_9 C44_9 1_555 1_555
C46_9 C45_9 1_555 1_555
N7_9 C44_9 1_555 1_555
N8_9 C39_9 1_555 1_555
O9_9 C37_9 1_555 1_555
O10_9 C37_9 1_555 1_555
O11_9 C38_9 1_555 1_555
O12_9 C38_9 1_555 1_555
H28_9 O14_9 1_555 1_555
O16_9 C10_9 1_555 1_555
O18_9 C3_9 1_555 1_555
O19_9 C3_9 1_555 1_555
O20_9 H31_9 1_555 1_555
H32_9 O20_9 1_555 1_555
O21_9 H33_9 1_555 1_555
H34_9 O21_9 1_555 1_555
O22_9 H35_9 1_555 1_555
H36_9 O22_9 1_555 1_555
Gd5 O11_9 1_555 1_555
C43_9 N8_9 1_555 1_555
O18_9 Gd5 1_555 1_555
O19_9 Gd5 1_555 1_555
O20_9 Gd5 1_555 1_555
O21_9 Gd5 1_555 1_555
O22_9 Gd5 1_555 1_555
O13_9 H25_9 1_555 1_555
H26_9 O13_9 1_555 1_555
O15_9 H29_9 1_555 1_555
H30_9 O15_9 1_555 1_555
O13_9 Gd3 1_555 1_555
O15_9 Gd3 1_555 1_555
O17_9 Gd3 1_555 1_555
C1_9 H1_9 1_555 1_555
C2_9 C11_9 1_555 1_555
C4_9 C1_9 1_555 1_555
H2_9 C4_9 1_555 1_555
C5_9 C4_9 1_555 1_555
H3_9 C5_9 1_555 1_555
C6_9 C5_9 1_555 1_555
C7_9 C6_9 1_555 1_555
C8_9 C6_9 1_555 1_555
C9_9 C8_9 1_555 1_555
C11_9 C9_9 1_555 1_555
C12_9 C11_9 1_555 1_555
H4_9 C12_9 1_555 1_555
C13_9 C12_9 1_555 1_555
H5_9 C13_9 1_555 1_555
C14_9 C13_9 1_555 1_555
H6_9 C14_9 1_555 1_555
C15_9 H7_9 1_555 1_555
C16_9 C15_9 1_555 1_555
H8_9 C16_9 1_555 1_555
C17_9 C16_9 1_555 1_555
H9_9 C17_9 1_555 1_555
C18_9 C17_9 1_555 1_555
C19_9 C18_9 1_555 1_555
C20_9 C19_9 1_555 1_555
C27_9 H13_9 1_555 1_555
C28_9 C27_9 1_555 1_555
H18_9 C36_9 1_555 1_555
N1_9 C1_9 1_555 1_555
N2_9 C9_9 1_555 1_555
N3_9 C15_9 1_555 1_555
N4_9 C20_9 1_555 1_555
N5_9 C27_9 1_555 1_555
O1_9 C7_9 1_555 1_555
O2_9 C7_9 1_555 1_555
O23_2 C2_9 1_555 1_555
O24_2 C2_9 1_555 1_555
Co1_9 N1_9 1_555 1_555
C8_9 N1_9 1_555 1_555
C14_9 N2_9 1_555 1_555
C19_9 N3_9 1_555 1_555
C24_9 N4_9 1_555 1_555
C31_12 N5_9 1_555 1_555
C36_9 N6_9 1_555 1_555
N2_9 Co1_9 1_555 1_555
N3_9 Co1_9 1_555 1_555
N4_9 Co1_9 1_555 1_555
N5_9 Co1_9 1_555 1_555
N6_9 Co1_9 1_555 1_555
C22_9 C21_9 1_555 1_555
H10_9 C22_9 1_555 1_555
C25_9 C21_9 1_555 1_555
O25 C26_9 1_555 1_555
O26 C26_9 1_555 1_555
O27 C25_9 1_555 1_555
O28 C25_9 1_555 1_555
C2_10 C11_10 1_555 1_555
C4_10 C1_10 1_555 1_555
C5_10 C4_10 1_555 1_555
H3_10 C5_10 1_555 1_555
C6_10 C5_10 1_555 1_555
C7_10 C6_10 1_555 1_555
C8_10 C6_10 1_555 1_555
C9_10 C8_10 1_555 1_555
C11_10 C9_10 1_555 1_555
C12_10 C11_10 1_555 1_555
H4_10 C12_10 1_555 1_555
C13_10 C12_10 1_555 1_555
H5_10 C13_10 1_555 1_555
C14_10 C13_10 1_555 1_555
H6_10 C14_10 1_555 1_555
C15_10 H7_10 1_555 1_555
C16_10 C15_10 1_555 1_555
H8_10 C16_10 1_555 1_555
C17_10 C16_10 1_555 1_555
H9_10 C17_10 1_555 1_555
C18_10 C17_10 1_555 1_555
C19_10 C18_10 1_555 1_555
C20_10 C19_10 1_555 1_555
C21_10 C20_10 1_555 1_555
C22_10 C21_10 1_555 1_555
H10_10 C22_10 1_555 1_555
C23_10 C22_10 1_555 1_555
H11_8 C23_10 1_555 1_555
C24_10 C23_10 1_555 1_555
H12_10 C24_10 1_555 1_555
C26_10 C18_10 1_555 1_555
C33_10 C32_10 1_555 1_555
C34_10 C33_10 1_555 1_555
H16_10 C34_10 1_555 1_555
C35_10 C34_10 1_555 1_555
H17_10 C35_10 1_555 1_555
C36_10 C35_10 1_555 1_555
H18_10 C36_10 1_555 1_555
N1_10 C1_10 1_555 1_555
N2_10 C9_10 1_555 1_555
N3_10 C15_10 1_555 1_555
N4_10 C20_10 1_555 1_555
N6_10 C32_10 1_555 1_555
O1_10 C7_10 1_555 1_555
O2_10 C7_10 1_555 1_555
O23_3 C2_10 1_555 1_555
O24_3 C2_10 1_555 1_555
O25_6 C26_10 1_555 1_555
O26_6 C26_10 1_555 1_555
O19_10 C3_10 1_555 1_555
O21_10 H33_10 1_555 1_555
H34_10 O21_10 1_555 1_555
O22_10 H35_10 1_555 1_555
H36_10 O22_10 1_555 1_555
Co1_10 N1_10 1_555 1_555
C8_10 N1_10 1_555 1_555
C14_10 N2_10 1_555 1_555
C19_10 N3_10 1_555 1_555
C24_10 N4_10 1_555 1_555
C36_10 N6_10 1_555 1_555
N2_10 Co1_10 1_555 1_555
N3_10 Co1_10 1_555 1_555
N4_10 Co1_10 1_555 1_555
N6_10 Co1_10 1_555 1_555
O19_10 Gd6 1_555 1_555
O21_10 Gd6 1_555 1_555
O22_10 Gd6 1_555 1_555
C10_10 C45_10 1_555 1_555
C27_10 H13_10 1_555 1_555
C28_10 C27_10 1_555 1_555
H14_7 C28_10 1_555 1_555
C29_10 C28_10 1_555 1_555
H15_10 C29_10 1_555 1_555
C30_10 C29_10 1_555 1_555
C31_13 C30_10 1_555 1_555
C38_10 C30_10 1_555 1_555
C39_10 H19_10 1_555 1_555
C40_10 C39_10 1_555 1_555
H20_10 C40_10 1_555 1_555
C41_10 C40_10 1_555 1_555
H21_10 C41_10 1_555 1_555
C42_10 C41_10 1_555 1_555
C43_10 C42_10 1_555 1_555
C44_10 C43_10 1_555 1_555
C45_10 C44_10 1_555 1_555
C46_10 C45_10 1_555 1_555
H22_8 C46_10 1_555 1_555
C47_8 C46_10 1_555 1_555
H23_8 C47_8 1_555 1_555
C48_8 C47_8 1_555 1_555
H24_8 C48_8 1_555 1_555
N5_10 C27_10 1_555 1_555
N7_10 C44_10 1_555 1_555
N8_10 C39_10 1_555 1_555
O28_6 C25_10 1_555 1_555
O9_10 C37_10 1_555 1_555
O10_10 C37_10 1_555 1_555
O11_10 C38_10 1_555 1_555
O12_10 C38_10 1_555 1_555
O13_10 H25_10 1_555 1_555
H26_10 O13_10 1_555 1_555
O14_10 H27_10 1_555 1_555
H28_10 O14_10 1_555 1_555
O15_10 H29_10 1_555 1_555
H30_10 O15_10 1_555 1_555
O16_10 C10_10 1_555 1_555
O17_10 C10_10 1_555 1_555
H32_10 O20_10 1_555 1_555
Gd4 O12_10 1_555 1_555
C31_13 N5_10 1_555 1_555
C43_10 N8_10 1_555 1_555
C48_8 N7_10 1_555 1_555
O13_10 Gd4 1_555 1_555
O14_10 Gd4 1_555 1_555
O15_10 Gd4 1_555 1_555
O16_10 Gd4 1_555 1_555
O17_10 Gd4 1_555 1_555
C1_11 H1_11 1_555 1_555
C2_11 C11_11 1_555 1_555
C4_11 C1_11 1_555 1_555
H2_11 C4_11 1_555 1_555
C5_11 C4_11 1_555 1_555
H3_11 C5_11 1_555 1_555
C6_11 C5_11 1_555 1_555
C7_11 C6_11 1_555 1_555
C8_11 C6_11 1_555 1_555
C9_11 C8_11 1_555 1_555
C11_11 C9_11 1_555 1_555
C12_11 C11_11 1_555 1_555
H4_11 C12_11 1_555 1_555
C13_11 C12_11 1_555 1_555
H5_11 C13_11 1_555 1_555
C14_11 C13_11 1_555 1_555
H6_11 C14_11 1_555 1_555
C15_11 H7_11 1_555 1_555
C16_11 C15_11 1_555 1_555
H8_11 C16_11 1_555 1_555
C17_11 C16_11 1_555 1_555
H9_11 C17_11 1_555 1_555
C18_11 C17_11 1_555 1_555
C19_11 C18_11 1_555 1_555
C20_11 C19_11 1_555 1_555
C21_11 C20_11 1_555 1_555
C22_11 C21_11 1_555 1_555
H10_11 C22_11 1_555 1_555
C25_11 C21_11 1_555 1_555
C26_11 C18_11 1_555 1_555
C27_11 H13_11 1_555 1_555
C28_11 C27_11 1_555 1_555
H18_11 C36_11 1_555 1_555
N1_11 C1_11 1_555 1_555
N2_11 C9_11 1_555 1_555
N3_11 C15_11 1_555 1_555
N4_11 C20_11 1_555 1_555
N5_11 C27_11 1_555 1_555
O1_11 C7_11 1_555 1_555
O2_11 C7_11 1_555 1_555
O23_4 C2_11 1_555 1_555
O24_4 C2_11 1_555 1_555
O25_3 C26_11 1_555 1_555
O26_3 C26_11 1_555 1_555
O27_3 C25_11 1_555 1_555
O28_3 C25_11 1_555 1_555
Co1_11 N1_11 1_555 1_555
C8_11 N1_11 1_555 1_555
C14_11 N2_11 1_555 1_555
C19_11 N3_11 1_555 1_555
C24_11 N4_11 1_555 1_555
C31_14 N5_11 1_555 1_555
C36_11 N6_11 1_555 1_555
N2_11 Co1_11 1_555 1_555
N3_11 Co1_11 1_555 1_555
N4_11 Co1_11 1_555 1_555
N5_11 Co1_11 1_555 1_555
N6_11 Co1_11 1_555 1_555
C3_11 C42_11 1_555 1_555
C10_11 C45_11 1_555 1_555
H11_9 C23_11 1_555 1_555
C30_11 C29_11 1_555 1_555
C31_15 C30_11 1_555 1_555
C32_11 C31_15 1_555 1_555
C33_11 C32_11 1_555 1_555
C34_11 C33_11 1_555 1_555
H16_11 C34_11 1_555 1_555
C35_11 C34_11 1_555 1_555
H17_11 C35_11 1_555 1_555
C37_11 C33_11 1_555 1_555
C38_11 C30_11 1_555 1_555
C39_11 H19_11 1_555 1_555
C40_11 C39_11 1_555 1_555
H20_11 C40_11 1_555 1_555
C41_11 C40_11 1_555 1_555
H21_11 C41_11 1_555 1_555
C42_11 C41_11 1_555 1_555
C43_11 C42_11 1_555 1_555
C44_11 C43_11 1_555 1_555
C45_11 C44_11 1_555 1_555
C46_11 C45_11 1_555 1_555
H22_9 C46_11 1_555 1_555
C47_9 C46_11 1_555 1_555
H23_9 C47_9 1_555 1_555
C48_9 C47_9 1_555 1_555
H24_9 C48_9 1_555 1_555
N7_11 C44_11 1_555 1_555
N8_11 C39_11 1_555 1_555
O9_11 C37_11 1_555 1_555
O10_11 C37_11 1_555 1_555
O11_11 C38_11 1_555 1_555
O12_11 C38_11 1_555 1_555
H28_11 O14_11 1_555 1_555
O16_11 C10_11 1_555 1_555
O18_11 C3_11 1_555 1_555
O19_11 C3_11 1_555 1_555
O20_11 H31_11 1_555 1_555
H32_11 O20_11 1_555 1_555
O21_11 H33_11 1_555 1_555
H34_11 O21_11 1_555 1_555
O22_11 H35_11 1_555 1_555
H36_11 O22_11 1_555 1_555
Gd6_2 O11_11 1_555 1_555
C43_11 N8_11 1_555 1_555
C48_9 N7_11 1_555 1_555
O18_11 Gd6_2 1_555 1_555
O19_11 Gd6_2 1_555 1_555
O20_11 Gd6_2 1_555 1_555
O21_11 Gd6_2 1_555 1_555
O22_11 Gd6_2 1_555 1_555
O13_11 H25_11 1_555 1_555
H26_11 O13_11 1_555 1_555
O15_11 H29_11 1_555 1_555
H30_11 O15_11 1_555 1_555
O13_11 Gd4_2 1_555 1_555
O15_11 Gd4_2 1_555 1_555
O17_11 Gd4_2 1_555 1_555
C2_12 C11_12 1_555 1_555
C4_12 C1_12 1_555 1_555
C5_12 C4_12 1_555 1_555
H3_12 C5_12 1_555 1_555
C6_12 C5_12 1_555 1_555
C7_12 C6_12 1_555 1_555
C8_12 C6_12 1_555 1_555
C9_12 C8_12 1_555 1_555
C11_12 C9_12 1_555 1_555
C12_12 C11_12 1_555 1_555
H4_12 C12_12 1_555 1_555
C13_12 C12_12 1_555 1_555
H5_12 C13_12 1_555 1_555
C14_12 C13_12 1_555 1_555
H6_12 C14_12 1_555 1_555
C15_12 H7_12 1_555 1_555
C16_12 C15_12 1_555 1_555
H8_12 C16_12 1_555 1_555
C17_12 C16_12 1_555 1_555
H9_12 C17_12 1_555 1_555
C18_12 C17_12 1_555 1_555
C19_12 C18_12 1_555 1_555
C20_12 C19_12 1_555 1_555
C21_12 C20_12 1_555 1_555
C22_12 C21_12 1_555 1_555
H10_12 C22_12 1_555 1_555
C23_12 C22_12 1_555 1_555
H11_10 C23_12 1_555 1_555
C24_12 C23_12 1_555 1_555
H12_12 C24_12 1_555 1_555
C26_12 C18_12 1_555 1_555
C33_12 C32_12 1_555 1_555
C34_12 C33_12 1_555 1_555
H16_12 C34_12 1_555 1_555
C35_12 C34_12 1_555 1_555
H17_12 C35_12 1_555 1_555
C36_12 C35_12 1_555 1_555
H18_12 C36_12 1_555 1_555
N1_12 C1_12 1_555 1_555
N2_12 C9_12 1_555 1_555
N3_12 C15_12 1_555 1_555
N4_12 C20_12 1_555 1_555
N6_12 C32_12 1_555 1_555
O1_12 C7_12 1_555 1_555
O2_12 C7_12 1_555 1_555
O23 C2_12 1_555 1_555
O24 C2_12 1_555 1_555
O25_8 C26_12 1_555 1_555
O26_8 C26_12 1_555 1_555
O19_12 C3_12 1_555 1_555
O21_12 H33_12 1_555 1_555
H34_12 O21_12 1_555 1_555
O22_12 H35_12 1_555 1_555
H36_12 O22_12 1_555 1_555
Co1_12 N1_12 1_555 1_555
C8_12 N1_12 1_555 1_555
C14_12 N2_12 1_555 1_555
C19_12 N3_12 1_555 1_555
C24_12 N4_12 1_555 1_555
C36_12 N6_12 1_555 1_555
N2_12 Co1_12 1_555 1_555
N3_12 Co1_12 1_555 1_555
N4_12 Co1_12 1_555 1_555
N6_12 Co1_12 1_555 1_555
O19_12 Gd6_3 1_555 1_555
O21_12 Gd6_3 1_555 1_555
O22_12 Gd6_3 1_555 1_555
C10_12 C45_12 1_555 1_555
C27_12 H13_12 1_555 1_555
C28_12 C27_12 1_555 1_555
H14_8 C28_12 1_555 1_555
C29_12 C28_12 1_555 1_555
H15_12 C29_12 1_555 1_555
C30_12 C29_12 1_555 1_555
C31_16 C30_12 1_555 1_555
C38_12 C30_12 1_555 1_555
C39_12 H19_12 1_555 1_555
C40_12 C39_12 1_555 1_555
H20_12 C40_12 1_555 1_555
C41_12 C40_12 1_555 1_555
H21_12 C41_12 1_555 1_555
C42_12 C41_12 1_555 1_555
C43_12 C42_12 1_555 1_555
C44_12 C43_12 1_555 1_555
C45_12 C44_12 1_555 1_555
C46_12 C45_12 1_555 1_555
H22_10 C46_12 1_555 1_555
C47_10 C46_12 1_555 1_555
H23_10 C47_10 1_555 1_555
C48_10 C47_10 1_555 1_555
H24_10 C48_10 1_555 1_555
N5_12 C27_12 1_555 1_555
N7_12 C44_12 1_555 1_555
N8_12 C39_12 1_555 1_555
O28_8 C25_12 1_555 1_555
O9_12 C37_12 1_555 1_555
O10_12 C37_12 1_555 1_555
O11_12 C38_12 1_555 1_555
O12_12 C38_12 1_555 1_555
O13_12 H25_12 1_555 1_555
H26_12 O13_12 1_555 1_555
O14_12 H27_12 1_555 1_555
H28_12 O14_12 1_555 1_555
O15_12 H29_12 1_555 1_555
H30_12 O15_12 1_555 1_555
O16_12 C10_12 1_555 1_555
O17_12 C10_12 1_555 1_555
H32_12 O20_12 1_555 1_555
Gd4_3 O12_12 1_555 1_555
C31_16 N5_12 1_555 1_555
C43_12 N8_12 1_555 1_555
C48_10 N7_12 1_555 1_555
O13_12 Gd4_3 1_555 1_555
O14_12 Gd4_3 1_555 1_555
O15_12 Gd4_3 1_555 1_555
O16_12 Gd4_3 1_555 1_555
O17_12 Gd4_3 1_555 1_555
C2_13 C11_13 1_555 1_555
C11_13 C9_13 1_555 1_555
C12_13 C11_13 1_555 1_555
H4_13 C12_13 1_555 1_555
C13_13 C12_13 1_555 1_555
H5_13 C13_13 1_555 1_555
C14_13 C13_13 1_555 1_555
H6_13 C14_13 1_555 1_555
N2_13 C9_13 1_555 1_555
O1_13 C7_13 1_555 1_555
O2_13 C7_13 1_555 1_555
O23_6 C2_13 1_555 1_555
O24_6 C2_13 1_555 1_555
O22_13 H35_13 1_555 1_555
H36_13 O22_13 1_555 1_555
C14_13 N2_13 1_555 1_555
C1_13 H1_13 1_555 1_555
C3_13 C42_13 1_555 1_555
C4_13 C1_13 1_555 1_555
H2_13 C4_13 1_555 1_555
C5_13 C4_13 1_555 1_555
H3_13 C5_13 1_555 1_555
C6_13 C5_13 1_555 1_555
C8_13 C6_13 1_555 1_555
C10_13 C45_13 1_555 1_555
C15_13 H7_13 1_555 1_555
C16_13 C15_13 1_555 1_555
H8_13 C16_13 1_555 1_555
C17_13 C16_13 1_555 1_555
H9_13 C17_13 1_555 1_555
C18_13 C17_13 1_555 1_555
C19_13 C18_13 1_555 1_555
C20_13 C19_13 1_555 1_555
C21_13 C20_13 1_555 1_555
C22_13 C21_13 1_555 1_555
H10_13 C22_13 1_555 1_555
C23_13 C22_13 1_555 1_555
H11_11 C23_13 1_555 1_555
C24_13 C23_13 1_555 1_555
H12_13 C24_13 1_555 1_555
C25_13 C21_13 1_555 1_555
C26_13 C18_13 1_555 1_555
C27_13 H13_13 1_555 1_555
C28_13 C27_13 1_555 1_555
H14_9 C28_13 1_555 1_555
C29_13 C28_13 1_555 1_555
H15_13 C29_13 1_555 1_555
C30_13 C29_13 1_555 1_555
C31_17 C30_13 1_555 1_555
C32_13 C31_17 1_555 1_555
C33_13 C32_13 1_555 1_555
C34_13 C33_13 1_555 1_555
H16_13 C34_13 1_555 1_555
C35_13 C34_13 1_555 1_555
C36_13 C35_13 1_555 1_555
C37_13 C33_13 1_555 1_555
C38_13 C30_13 1_555 1_555
C39_13 H19_13 1_555 1_555
C40_13 C39_13 1_555 1_555
H20_13 C40_13 1_555 1_555
C41_13 C40_13 1_555 1_555
H21_13 C41_13 1_555 1_555
C42_13 C41_13 1_555 1_555
C43_13 C42_13 1_555 1_555
C44_13 C43_13 1_555 1_555
C45_13 C44_13 1_555 1_555
C46_13 C45_13 1_555 1_555
H22_11 C46_13 1_555 1_555
C47_11 C46_13 1_555 1_555
H23_11 C47_11 1_555 1_555
C48_11 C47_11 1_555 1_555
H24_11 C48_11 1_555 1_555
N1_13 C1_13 1_555 1_555
N3_13 C15_13 1_555 1_555
N4_13 C20_13 1_555 1_555
N5_13 C27_13 1_555 1_555
N6_13 C32_13 1_555 1_555
N7_13 C44_13 1_555 1_555
N8_13 C39_13 1_555 1_555
O25_5 C26_13 1_555 1_555
O27_5 C25_13 1_555 1_555
O28_5 C25_13 1_555 1_555
O9_13 C37_13 1_555 1_555
O10_13 C37_13 1_555 1_555
O11_13 C38_13 1_555 1_555
O12_13 C38_13 1_555 1_555
O13_13 H25_13 1_555 1_555
H26_13 O13_13 1_555 1_555
O14_13 H27_13 1_555 1_555
H28_13 O14_13 1_555 1_555
O15_13 H29_13 1_555 1_555
H30_13 O15_13 1_555 1_555
O16_13 C10_13 1_555 1_555
O17_13 C10_13 1_555 1_555
O18_13 C3_13 1_555 1_555
O19_13 C3_13 1_555 1_555
O20_13 H31_13 1_555 1_555
H32_13 O20_13 1_555 1_555
O21_13 H33_13 1_555 1_555
H34_13 O21_13 1_555 1_555
Co1_13 N1_13 1_555 1_555
Gd3_4 O12_13 1_555 1_555
Gd5_4 O11_13 1_555 1_555
C8_13 N1_13 1_555 1_555
C19_13 N3_13 1_555 1_555
C24_13 N4_13 1_555 1_555
C31_17 N5_13 1_555 1_555
C36_13 N6_13 1_555 1_555
C43_13 N8_13 1_555 1_555
C48_11 N7_13 1_555 1_555
N3_13 Co1_13 1_555 1_555
N4_13 Co1_13 1_555 1_555
N5_13 Co1_13 1_555 1_555
N6_13 Co1_13 1_555 1_555
O13_13 Gd3_4 1_555 1_555
O14_13 Gd3_4 1_555 1_555
O15_13 Gd3_4 1_555 1_555
O16_13 Gd3_4 1_555 1_555
O17_13 Gd3_4 1_555 1_555
O18_13 Gd5_4 1_555 1_555
O19_13 Gd5_4 1_555 1_555
O20_13 Gd5_4 1_555 1_555
O21_13 Gd5_4 1_555 1_555
C1_14 H1_14 1_555 1_555
C2_14 C11_14 1_555 1_555
C3_14 C42_14 1_555 1_555
C4_14 C1_14 1_555 1_555
H2_14 C4_14 1_555 1_555
C5_14 C4_14 1_555 1_555
H3_14 C5_14 1_555 1_555
C6_14 C5_14 1_555 1_555
C7_14 C6_14 1_555 1_555
C8_14 C6_14 1_555 1_555
C9_14 C8_14 1_555 1_555
C10_14 C45_14 1_555 1_555
C11_14 C9_14 1_555 1_555
C12_14 C11_14 1_555 1_555
C13_14 C12_14 1_555 1_555
C14_14 C13_14 1_555 1_555
H6_14 C14_14 1_555 1_555
C15_14 H7_14 1_555 1_555
C16_14 C15_14 1_555 1_555
H8_14 C16_14 1_555 1_555
C17_14 C16_14 1_555 1_555
H9_14 C17_14 1_555 1_555
C18_14 C17_14 1_555 1_555
C19_14 C18_14 1_555 1_555
C20_14 C19_14 1_555 1_555
C21_14 C20_14 1_555 1_555
C22_14 C21_14 1_555 1_555
H10_14 C22_14 1_555 1_555
C23_14 C22_14 1_555 1_555
H11_12 C23_14 1_555 1_555
C24_14 C23_14 1_555 1_555
H12_14 C24_14 1_555 1_555
C25_14 C21_14 1_555 1_555
C26_14 C18_14 1_555 1_555
C27_14 H13_14 1_555 1_555
C28_14 C27_14 1_555 1_555
H14_10 C28_14 1_555 1_555
C29_14 C28_14 1_555 1_555
H15_14 C29_14 1_555 1_555
C30_14 C29_14 1_555 1_555
C31_18 C30_14 1_555 1_555
C32_14 C31_18 1_555 1_555
C33_14 C32_14 1_555 1_555
C34_14 C33_14 1_555 1_555
H16_14 C34_14 1_555 1_555
C35_14 C34_14 1_555 1_555
H17_14 C35_14 1_555 1_555
C36_14 C35_14 1_555 1_555
H18_14 C36_14 1_555 1_555
C37_14 C33_14 1_555 1_555
C38_14 C30_14 1_555 1_555
C39_14 H19_14 1_555 1_555
C40_14 C39_14 1_555 1_555
H20_14 C40_14 1_555 1_555
C41_14 C40_14 1_555 1_555
H21_14 C41_14 1_555 1_555
C42_14 C41_14 1_555 1_555
C43_14 C42_14 1_555 1_555
C44_14 C43_14 1_555 1_555
C45_14 C44_14 1_555 1_555
C46_14 C45_14 1_555 1_555
H22_12 C46_14 1_555 1_555
C47_12 C46_14 1_555 1_555
H23_12 C47_12 1_555 1_555
C48_12 C47_12 1_555 1_555
H24_12 C48_12 1_555 1_555
N1_14 C1_14 1_555 1_555
N2_14 C9_14 1_555 1_555
N3_14 C15_14 1_555 1_555
N4_14 C20_14 1_555 1_555
N5_14 C27_14 1_555 1_555
N6_14 C32_14 1_555 1_555
N7_14 C44_14 1_555 1_555
N8_14 C39_14 1_555 1_555
O1_14 C7_14 1_555 1_555
O2_14 C7_14 1_555 1_555
O23_8 C2_14 1_555 1_555
O24_7 C2_14 1_555 1_555
O25_2 C26_14 1_555 1_555
O26_2 C26_14 1_555 1_555
O27_2 C25_14 1_555 1_555
O28_2 C25_14 1_555 1_555
O9_14 C37_14 1_555 1_555
O10_14 C37_14 1_555 1_555
O11_14 C38_14 1_555 1_555
O12_14 C38_14 1_555 1_555
O13_14 H25_14 1_555 1_555
H26_14 O13_14 1_555 1_555
O14_14 H27_14 1_555 1_555
H28_14 O14_14 1_555 1_555
O16_14 C10_14 1_555 1_555
O17_14 C10_14 1_555 1_555
O18_14 C3_14 1_555 1_555
O19_14 C3_14 1_555 1_555
O20_14 H31_14 1_555 1_555
H32_14 O20_14 1_555 1_555
O21_14 H33_14 1_555 1_555
H34_14 O21_14 1_555 1_555
O22_14 H35_14 1_555 1_555
H36_14 O22_14 1_555 1_555
Co1_14 N1_14 1_555 1_555
Gd3_2 O12_14 1_555 1_555
Gd5_2 O11_14 1_555 1_555
C8_14 N1_14 1_555 1_555
C14_14 N2_14 1_555 1_555
C19_14 N3_14 1_555 1_555
C24_14 N4_14 1_555 1_555
C31_18 N5_14 1_555 1_555
C36_14 N6_14 1_555 1_555
C43_14 N8_14 1_555 1_555
C48_12 N7_14 1_555 1_555
N2_14 Co1_14 1_555 1_555
N3_14 Co1_14 1_555 1_555
N4_14 Co1_14 1_555 1_555
N5_14 Co1_14 1_555 1_555
N6_14 Co1_14 1_555 1_555
O13_14 Gd3_2 1_555 1_555
O14_14 Gd3_2 1_555 1_555
O16_14 Gd3_2 1_555 1_555
O17_14 Gd3_2 1_555 1_555
O18_14 Gd5_2 1_555 1_555
O19_14 Gd5_2 1_555 1_555
O20_14 Gd5_2 1_555 1_555
O21_14 Gd5_2 1_555 1_555
O22_14 Gd5_2 1_555 1_555
H30_14 O15_14 1_555 1_555
C22_15 C21_15 1_555 1_555
H10_15 C22_15 1_555 1_555
C25_15 C21_15 1_555 1_555
H23_13 C47_13 1_555 1_555
C48_13 C47_13 1_555 1_555
H24_13 C48_13 1_555 1_555
O25_7 C26_15 1_555 1_555
O27_7 C25_15 1_555 1_555
O28_7 C25_15 1_555 1_555
C2_15 C11_15 1_555 1_555
C11_15 C9_15 1_555 1_555
C12_15 C11_15 1_555 1_555
H4_15 C12_15 1_555 1_555
C13_15 C12_15 1_555 1_555
H5_15 C13_15 1_555 1_555
C14_15 C13_15 1_555 1_555
H6_15 C14_15 1_555 1_555
N2_15 C9_15 1_555 1_555
O1_15 C7_15 1_555 1_555
O2_15 C7_15 1_555 1_555
O23_9 C2_15 1_555 1_555
O24_8 C2_15 1_555 1_555
O22_15 H35_15 1_555 1_555
H36_15 O22_15 1_555 1_555
C14_15 N2_15 1_555 1_555
C1_15 H1_15 1_555 1_555
C3_15 C42_15 1_555 1_555
C4_15 C1_15 1_555 1_555
H2_15 C4_15 1_555 1_555
C5_15 C4_15 1_555 1_555
H3_15 C5_15 1_555 1_555
C6_15 C5_15 1_555 1_555
C8_15 C6_15 1_555 1_555
C10_15 C45_15 1_555 1_555
C15_15 H7_15 1_555 1_555
C16_15 C15_15 1_555 1_555
H8_15 C16_15 1_555 1_555
C17_15 C16_15 1_555 1_555
H9_15 C17_15 1_555 1_555
C18_15 C17_15 1_555 1_555
C19_15 C18_15 1_555 1_555
C20_15 C19_15 1_555 1_555
C24_15 C23_15 1_555 1_555
H12_15 C24_15 1_555 1_555
C27_15 H13_15 1_555 1_555
C28_15 C27_15 1_555 1_555
H14_11 C28_15 1_555 1_555
C29_15 C28_15 1_555 1_555
H15_15 C29_15 1_555 1_555
C30_15 C29_15 1_555 1_555
C31_19 C30_15 1_555 1_555
C32_15 C31_19 1_555 1_555
C33_15 C32_15 1_555 1_555
C34_15 C33_15 1_555 1_555
H16_15 C34_15 1_555 1_555
C35_15 C34_15 1_555 1_555
C36_15 C35_15 1_555 1_555
C37_15 C33_15 1_555 1_555
C38_15 C30_15 1_555 1_555
C39_15 H19_15 1_555 1_555
C40_15 C39_15 1_555 1_555
H20_15 C40_15 1_555 1_555
C41_15 C40_15 1_555 1_555
H21_15 C41_15 1_555 1_555
C42_15 C41_15 1_555 1_555
C43_15 C42_15 1_555 1_555
C44_15 C43_15 1_555 1_555
C45_15 C44_15 1_555 1_555
C46_15 C45_15 1_555 1_555
N1_15 C1_15 1_555 1_555
N3_15 C15_15 1_555 1_555
N4_15 C20_15 1_555 1_555
N5_15 C27_15 1_555 1_555
N6_15 C32_15 1_555 1_555
N7_15 C44_15 1_555 1_555
N8_15 C39_15 1_555 1_555
O9_15 C37_15 1_555 1_555
O10_15 C37_15 1_555 1_555
O11_15 C38_15 1_555 1_555
O12_15 C38_15 1_555 1_555
O13_15 H25_15 1_555 1_555
H26_15 O13_15 1_555 1_555
O14_15 H27_15 1_555 1_555
H28_15 O14_15 1_555 1_555
O15_15 H29_15 1_555 1_555
H30_15 O15_15 1_555 1_555
O16_15 C10_15 1_555 1_555
O17_15 C10_15 1_555 1_555
O18_15 C3_15 1_555 1_555
O19_15 C3_15 1_555 1_555
O20_15 H31_15 1_555 1_555
H32_15 O20_15 1_555 1_555
O21_15 H33_15 1_555 1_555
H34_15 O21_15 1_555 1_555
Co1_15 N1_15 1_555 1_555
Gd4_4 O12_15 1_555 1_555
Gd6_4 O11_15 1_555 1_555
C8_15 N1_15 1_555 1_555
C19_15 N3_15 1_555 1_555
C24_15 N4_15 1_555 1_555
C31_19 N5_15 1_555 1_555
C36_15 N6_15 1_555 1_555
C43_15 N8_15 1_555 1_555
N3_15 Co1_15 1_555 1_555
N4_15 Co1_15 1_555 1_555
N5_15 Co1_15 1_555 1_555
N6_15 Co1_15 1_555 1_555
O13_15 Gd4_4 1_555 1_555
O14_15 Gd4_4 1_555 1_555
O15_15 Gd4_4 1_555 1_555
O16_15 Gd4_4 1_555 1_555
O17_15 Gd4_4 1_555 1_555
O18_15 Gd6_4 1_555 1_555
O19_15 Gd6_4 1_555 1_555
O20_15 Gd6_4 1_555 1_555
O21_15 Gd6_4 1_555 1_555
C1_16 H1_16 1_555 1_555
C2_16 C11_16 1_555 1_555
C3_16 C42_16 1_555 1_555
C4_16 C1_16 1_555 1_555
H2_16 C4_16 1_555 1_555
C5_16 C4_16 1_555 1_555
H3_16 C5_16 1_555 1_555
C6_16 C5_16 1_555 1_555
C7_16 C6_16 1_555 1_555
C8_16 C6_16 1_555 1_555
C9_16 C8_16 1_555 1_555
C10_16 C45_16 1_555 1_555
C11_16 C9_16 1_555 1_555
C12_16 C11_16 1_555 1_555
C13_16 C12_16 1_555 1_555
C14_16 C13_16 1_555 1_555
H6_16 C14_16 1_555 1_555
C15_16 H7_16 1_555 1_555
C16_16 C15_16 1_555 1_555
H8_16 C16_16 1_555 1_555
C17_16 C16_16 1_555 1_555
H9_16 C17_16 1_555 1_555
C18_16 C17_16 1_555 1_555
C19_16 C18_16 1_555 1_555
C20_16 C19_16 1_555 1_555
C21_16 C20_16 1_555 1_555
C22_16 C21_16 1_555 1_555
H10_16 C22_16 1_555 1_555
C23_16 C22_16 1_555 1_555
H11_14 C23_16 1_555 1_555
C24_16 C23_16 1_555 1_555
H12_16 C24_16 1_555 1_555
C25_16 C21_16 1_555 1_555
C26_16 C18_16 1_555 1_555
C27_16 H13_16 1_555 1_555
C28_16 C27_16 1_555 1_555
H14_12 C28_16 1_555 1_555
C29_16 C28_16 1_555 1_555
H15_16 C29_16 1_555 1_555
C30_16 C29_16 1_555 1_555
C31_20 C30_16 1_555 1_555
C32_16 C31_20 1_555 1_555
C33_16 C32_16 1_555 1_555
C34_16 C33_16 1_555 1_555
H16_16 C34_16 1_555 1_555
C35_16 C34_16 1_555 1_555
H17_16 C35_16 1_555 1_555
C36_16 C35_16 1_555 1_555
H18_16 C36_16 1_555 1_555
C37_16 C33_16 1_555 1_555
C38_16 C30_16 1_555 1_555
C39_16 H19_16 1_555 1_555
C40_16 C39_16 1_555 1_555
H20_16 C40_16 1_555 1_555
C41_16 C40_16 1_555 1_555
H21_16 C41_16 1_555 1_555
C42_16 C41_16 1_555 1_555
C43_16 C42_16 1_555 1_555
C44_16 C43_16 1_555 1_555
C45_16 C44_16 1_555 1_555
C46_16 C45_16 1_555 1_555
H22_14 C46_16 1_555 1_555
C47_14 C46_16 1_555 1_555
H23_14 C47_14 1_555 1_555
C48_14 C47_14 1_555 1_555
H24_14 C48_14 1_555 1_555
N1_16 C1_16 1_555 1_555
N2_16 C9_16 1_555 1_555
N3_16 C15_16 1_555 1_555
N4_16 C20_16 1_555 1_555
N5_16 C27_16 1_555 1_555
N6_16 C32_16 1_555 1_555
N7_16 C44_16 1_555 1_555
N8_16 C39_16 1_555 1_555
O1_16 C7_16 1_555 1_555
O2_16 C7_16 1_555 1_555
O23_5 C2_16 1_555 1_555
O24_5 C2_16 1_555 1_555
O25_4 C26_16 1_555 1_555
O26_4 C26_16 1_555 1_555
O27_4 C25_16 1_555 1_555
O28_4 C25_16 1_555 1_555
O9_16 C37_16 1_555 1_555
O10_16 C37_16 1_555 1_555
O11_16 C38_16 1_555 1_555
O12_16 C38_16 1_555 1_555
O13_16 H25_16 1_555 1_555
H26_16 O13_16 1_555 1_555
O14_16 H27_16 1_555 1_555
H28_16 O14_16 1_555 1_555
O16_16 C10_16 1_555 1_555
O17_16 C10_16 1_555 1_555
O18_16 C3_16 1_555 1_555
O19_16 C3_16 1_555 1_555
O20_16 H31_16 1_555 1_555
H32_16 O20_16 1_555 1_555
O21_16 H33_16 1_555 1_555
H34_16 O21_16 1_555 1_555
O22_16 H35_16 1_555 1_555
H36_16 O22_16 1_555 1_555
Co1_16 N1_16 1_555 1_555
Gd3_3 O12_16 1_555 1_555
Gd5_3 O11_16 1_555 1_555
C8_16 N1_16 1_555 1_555
C14_16 N2_16 1_555 1_555
C19_16 N3_16 1_555 1_555
C24_16 N4_16 1_555 1_555
C31_20 N5_16 1_555 1_555
C36_16 N6_16 1_555 1_555
C43_16 N8_16 1_555 1_555
C48_14 N7_16 1_555 1_555
N2_16 Co1_16 1_555 1_555
N3_16 Co1_16 1_555 1_555
N4_16 Co1_16 1_555 1_555
N5_16 Co1_16 1_555 1_555
N6_16 Co1_16 1_555 1_555
O13_16 Gd3_3 1_555 1_555
O14_16 Gd3_3 1_555 1_555
O16_16 Gd3_3 1_555 1_555
O17_16 Gd3_3 1_555 1_555
O18_16 Gd5_3 1_555 1_555
O19_16 Gd5_3 1_555 1_555
O20_16 Gd5_3 1_555 1_555
O21_16 Gd5_3 1_555 1_555
O22_16 Gd5_3 1_555 1_555
H30_16 O15_16 1_555 1_555
H23_15 C47_15 1_555 1_555
C48_15 C47_15 1_555 1_555
H24_15 C48_15 1_555 1_555
H23_16 C47_16 1_555 1_555
C48_16 C47_16 1_555 1_555
H24_16 C48_16 1_555 1_555

#END
