
###############################################################################
#
# This file contains modified crystal structure data generated from the
# MOF subset of the Cambridge Structural Database (CSD) v543 
# hosted by the Cambridge Crystallographic Data Centre (CCDC).
#
# This work is licensed under the Creative Commons
# Attribution-NonCommercial-ShareAlike 4.0 International License.
# To view a copy of this license, visit
# http://creativecommons.org/licenses/by-nc-sa/4.0/
# or send a letter to
# Creative Commons, PO Box 1866, Mountain View, CA 94042, USA.
#
# CIF created using the CSD Python API on 29 September 2022
# The structure has been converted into the P1 space group
# The structure has a 3D framework
# The original CSD entry MIFTUT is in the cubic crystal system
# The original CSD entry MIFTUT is in a Sohncke space group
# The framework has been calculated to contain at least 10.0% void space
# The void calculation uses a probe of radius 1.32A, grid spacing 0.4
# The framework is charged, counterions have been retained in the structure
#
###############################################################################

data_MIFTUT
_chemical_formula_moiety         '(C1728 H768 N384 O758 Zn117 160-)n'
_symmetry_cell_setting           triclinic
_symmetry_space_group_name_H-M   'P 1'
_symmetry_Int_Tables_number      1
_space_group_name_Hall           'P 1'
loop_
_symmetry_equiv_pos_site_id
_symmetry_equiv_pos_as_xyz
1 x,y,z
_cell_length_a                   45.1476(7)
_cell_length_b                   45.1476(7)
_cell_length_c                   45.1476(7)
_cell_angle_alpha                90
_cell_angle_beta                 90
_cell_angle_gamma                90
_cell_volume                     92024.6
loop_
_atom_site_label
_atom_site_type_symbol
_atom_site_fract_x
_atom_site_fract_y
_atom_site_fract_z
Zn16 Zn 0.2500 0.01745(3) 0.2500
Zn1 Zn 0.5000 0.5000 0.23255(3)
Zn2 Zn 0.39710(4) 0.66089(4) 0.12550(4)
C1 C 0.5589(3) 0.5937(2) 0.0935(2)
C2 C 0.51454(13) 0.59776(15) 0.12700(14)
C3 C 0.48603(15) 0.60937(14) 0.12632(13)
H1 H 0.4807 0.6232 0.1114
C4 C 0.46536(12) 0.60068(16) 0.14741(15)
C5 C 0.47320(14) 0.58038(17) 0.16920(14)
H2 H 0.4591 0.5744 0.1836
C6 C 0.50170(16) 0.56877(15) 0.16988(13)
C7 C 0.52238(11) 0.57746(15) 0.14879(14)
H3 H 0.5419 0.5695 0.1493
C8 C 0.4362(3) 0.6138(3) 0.1476(3)
C9 C 0.5117(3) 0.5464(3) 0.1912(2)
C10 C 0.3544(2) 0.8207(3) 0.1814(2)
C11 C 0.39660(13) 0.78652(14) 0.18994(14)
C12 C 0.42393(15) 0.78713(15) 0.20410(15)
H4 H 0.4290 0.8034 0.2164
C13 C 0.44380(11) 0.76393(18) 0.20022(16)
C14 C 0.43634(12) 0.74013(15) 0.18217(16)
H5 H 0.4499 0.7243 0.1795
C15 C 0.40901(12) 0.73953(12) 0.16800(14)
C16 C 0.38914(10) 0.76273(15) 0.17189(13)
H6 H 0.3705 0.7623 0.1622
C17 C 0.4719(4) 0.7637(4) 0.2175(5)
C18 C 0.3998(2) 0.7146(3) 0.1495(2)
N1 N 0.5696(2) 0.60607(17) 0.0686(2)
N2 N 0.53312(19) 0.6065(2) 0.1038(2)
H7 H 0.5275 0.6226 0.0944
N3 N 0.3414(2) 0.84381(19) 0.1947(2)
N4 N 0.37917(19) 0.8092(2) 0.1950(2)
H8 H 0.3845 0.8195 0.2107
O1 O 0.43050(18) 0.63156(19) 0.1259(2)
O2 O 0.4173(2) 0.6032(2) 0.1670(2)
O3 O 0.48858(19) 0.53290(19) 0.20697(16)
O4 O 0.5354(2) 0.5385(2) 0.19405(16)
O5 O 0.4766(2) 0.7868(3) 0.2346(2)
O6 O 0.48958(18) 0.7455(3) 0.2161(3)
O7 O 0.41693(17) 0.69113(19) 0.15098(19)
O8 O 0.37612(19) 0.71366(18) 0.1344(2)
O9 O 0.36181(14) 0.63819(14) 0.13819(14)
C19 C 0.5937(2) 0.5935(2) 0.0589(3)
C20 C 0.59776(15) 0.62700(14) 0.01454(13)
C24 C 0.56877(15) 0.66988(13) 0.00170(16)
C25 C 0.57746(15) 0.64879(14) 0.02238(11)
H11 H 0.5695 0.6493 0.0419
C27 C 0.5464(3) 0.6912(2) 0.0117(3)
N5 N 0.60607(17) 0.5686(2) 0.0696(2)
N6 N 0.6065(2) 0.6038(2) 0.03312(19)
H12 H 0.6226 0.5944 0.0275
O13 O 0.5385(2) 0.69405(16) 0.0354(2)
C28 C 0.5935(2) 0.5589(3) 0.0937(2)
C29 C 0.62700(14) 0.51454(13) 0.09776(15)
C30 C 0.62632(13) 0.48603(15) 0.10937(14)
H13 H 0.6114 0.4807 0.1232
C31 C 0.64741(15) 0.46536(12) 0.10068(16)
C32 C 0.66920(14) 0.47320(14) 0.08038(17)
H14 H 0.6836 0.4591 0.0744
C33 C 0.66988(13) 0.50170(16) 0.06877(15)
C34 C 0.64879(14) 0.52238(11) 0.07746(15)
H15 H 0.6493 0.5419 0.0695
C35 C 0.6476(3) 0.4362(3) 0.1138(3)
C36 C 0.6912(2) 0.5117(3) 0.0464(3)
N7 N 0.5686(2) 0.5696(2) 0.10607(17)
N8 N 0.6038(2) 0.53312(19) 0.1065(2)
H16 H 0.5944 0.5275 0.1226
O14 O 0.6259(2) 0.43050(18) 0.13156(19)
O15 O 0.6670(2) 0.4173(2) 0.1032(2)
O16 O 0.70697(16) 0.48858(19) 0.03290(19)
O17 O 0.69405(16) 0.5354(2) 0.0385(2)
C37 C 0.3186(2) 0.8544(2) 0.1793(3)
C38 C 0.31006(14) 0.89660(13) 0.21348(14)
C39 C 0.29590(15) 0.92393(15) 0.21287(15)
H17 H 0.2836 0.9290 0.1966
C40 C 0.29978(16) 0.94380(11) 0.23607(18)
C41 C 0.31783(16) 0.93634(12) 0.25987(15)
H18 H 0.3205 0.9499 0.2757
C42 C 0.33200(14) 0.90901(12) 0.26047(12)
C43 C 0.32811(13) 0.88914(10) 0.23727(15)
H19 H 0.3378 0.8705 0.2377
C44 C 0.2825(5) 0.9719(4) 0.2363(4)
C45 C 0.3505(2) 0.8998(2) 0.2854(3)
N9 N 0.3053(2) 0.8414(2) 0.15619(19)
N10 N 0.3050(2) 0.87917(19) 0.1908(2)
H20 H 0.2893 0.8845 0.1805
O18 O 0.2654(2) 0.9766(2) 0.2132(3)
O19 O 0.2839(3) 0.98958(18) 0.2545(3)
O20 O 0.34902(19) 0.91693(17) 0.30887(19)
O21 O 0.3656(2) 0.87612(19) 0.28634(18)
C46 C 0.3207(3) 0.8186(2) 0.1456(2)
C47 C 0.28652(14) 0.81006(14) 0.10340(13)
C48 C 0.28713(15) 0.79590(15) 0.07607(15)
H21 H 0.3034 0.7836 0.0710
C49 C 0.26393(18) 0.79978(16) 0.05620(11)
C50 C 0.24013(15) 0.81783(16) 0.06366(12)
H22 H 0.2243 0.8205 0.0501
C51 C 0.23953(12) 0.83200(14) 0.09099(12)
C52 C 0.26273(15) 0.82811(13) 0.11086(10)
H23 H 0.2623 0.8378 0.1295
C53 C 0.2637(4) 0.7825(5) 0.0281(4)
C54 C 0.2146(3) 0.8505(2) 0.1002(2)
N11 N 0.34381(19) 0.8053(2) 0.1586(2)
N12 N 0.3092(2) 0.8050(2) 0.12083(19)
H24 H 0.3195 0.7893 0.1155
O22 O 0.2868(3) 0.7654(2) 0.0234(2)
O23 O 0.2455(3) 0.7839(3) 0.01042(18)
O24 O 0.19113(19) 0.84902(19) 0.08307(17)
O25 O 0.21366(18) 0.8656(2) 0.12388(19)
Zn3 Zn 0.73255(3) 0.5000 0.0000
C75 C 0.60937(14) 0.37368(13) 0.01397(15)
H33 H 0.6232 0.3886 0.0193
C76 C 0.60068(16) 0.35259(15) 0.03464(12)
C77 C 0.58038(17) 0.33080(14) 0.02680(14)
H34 H 0.5744 0.3164 0.0409
C80 C 0.6138(3) 0.3524(3) 0.0638(3)
O35 O 0.63156(19) 0.3741(2) 0.06950(18)
O36 O 0.6032(2) 0.3330(2) 0.0827(2)
O37 O 0.53290(19) 0.29303(16) 0.01142(19)
Zn5 Zn 0.5000 0.26745(3) 0.0000
Zn6 Zn 0.60290(4) 0.33911(4) 0.12550(4)
C82 C 0.4314(2) 0.5707(3) 0.3956(2)
C83 C 0.43994(14) 0.53652(14) 0.35340(13)
C84 C 0.45410(15) 0.53713(15) 0.32607(15)
H37 H 0.4664 0.5534 0.3210
C85 C 0.45022(16) 0.51393(18) 0.30620(11)
C86 C 0.43217(16) 0.49013(15) 0.31366(12)
H38 H 0.4295 0.4743 0.3001
C87 C 0.41800(14) 0.48953(12) 0.34099(12)
C88 C 0.42189(13) 0.51273(15) 0.36086(10)
H39 H 0.4122 0.5123 0.3795
C89 C 0.4675(5) 0.5137(4) 0.2781(4)
C90 C 0.3995(2) 0.4646(3) 0.3502(2)
N19 N 0.4447(2) 0.59381(19) 0.4086(2)
N20 N 0.4450(2) 0.5592(2) 0.37083(19)
H40 H 0.4607 0.5695 0.3655
O39 O 0.4846(2) 0.5368(3) 0.2734(2)
O40 O 0.4661(3) 0.4955(3) 0.26042(18)
O41 O 0.40098(19) 0.44113(19) 0.33307(17)
O42 O 0.3844(2) 0.46366(18) 0.37388(19)
C91 C 0.4293(3) 0.6044(2) 0.4314(2)
C92 C 0.46348(14) 0.64660(13) 0.43994(14)
C93 C 0.46287(15) 0.67393(15) 0.45410(15)
H41 H 0.4466 0.6790 0.4664
C94 C 0.48607(18) 0.69380(11) 0.45022(16)
C95 C 0.50987(15) 0.68634(12) 0.43217(16)
H42 H 0.5257 0.6999 0.4295
C96 C 0.51047(12) 0.65901(12) 0.41800(14)
C97 C 0.48727(15) 0.63914(10) 0.42189(13)
H43 H 0.4877 0.6205 0.4122
C98 C 0.4863(4) 0.7219(4) 0.4675(5)
C99 C 0.5354(3) 0.6498(2) 0.3995(2)
N21 N 0.40619(19) 0.5914(2) 0.4447(2)
N22 N 0.4408(2) 0.62917(19) 0.4450(2)
H44 H 0.4305 0.6345 0.4607
O43 O 0.4632(3) 0.7266(2) 0.4846(2)
O44 O 0.5045(3) 0.73958(18) 0.4661(3)
O45 O 0.55887(19) 0.66693(17) 0.40098(19)
O46 O 0.53634(18) 0.62612(19) 0.3844(2)
C100 C 0.3956(2) 0.5686(2) 0.4293(3)
C101 C 0.35340(13) 0.56006(14) 0.46348(14)
C102 C 0.32607(15) 0.54590(15) 0.46287(15)
H45 H 0.3210 0.5336 0.4466
C103 C 0.30620(11) 0.54978(16) 0.48607(18)
C104 C 0.31366(12) 0.56783(16) 0.50987(15)
H46 H 0.3001 0.5705 0.5257
C105 C 0.34099(12) 0.58200(14) 0.51047(12)
C106 C 0.36086(10) 0.57811(13) 0.48727(15)
H47 H 0.3795 0.5878 0.4877
C107 C 0.2781(4) 0.5325(5) 0.4863(4)
C108 C 0.3502(2) 0.6005(2) 0.5354(3)
N23 N 0.4086(2) 0.5553(2) 0.40619(19)
N24 N 0.37083(19) 0.5550(2) 0.4408(2)
H48 H 0.3655 0.5393 0.4305
O47 O 0.2734(2) 0.5154(2) 0.4632(3)
O48 O 0.26042(18) 0.5339(3) 0.5045(3)
O49 O 0.33307(17) 0.59902(19) 0.55887(19)
O50 O 0.37388(19) 0.6156(2) 0.53634(18)
Zn9 Zn 0.37450(4) 0.60290(4) 0.16089(4)
Zn10 Zn 0.23255(3) 0.5000 0.5000
Zn11 Zn 0.5000 0.73255(3) 0.0000
Zn12 Zn 0.5000 0.76745(3) 0.5000
Zn14 Zn 0.51745(3) 0.7500 0.2500
Zn17 Zn 0.37450(4) 0.89710(4) 0.33911(4)
Zn18 Zn 0.16089(4) 0.87450(4) 0.10290(4)
Zn20 Zn 0.62550(4) 0.39710(4) 0.16089(4)
Zn21 Zn 0.33911(4) 0.62550(4) 0.10290(4)
Zn23 Zn 0.66089(4) 0.37450(4) 0.10290(4)
Zn24 Zn 0.58911(4) 0.64710(4) 0.37550(4)
Zn25 Zn 0.35290(4) 0.62450(4) 0.58911(4)
Zn26 Zn 0.37550(4) 0.41089(4) 0.35290(4)
O51 O 0.56950(18) 0.36844(19) 0.1259(2)
O53 O 0.3741(2) 0.56950(18) 0.13156(19)
O54 O 0.3968(2) 0.6670(2) 0.0827(2)
O57 O 0.51142(19) 0.46710(19) 0.20697(16)
O58 O 0.5368(3) 0.2266(2) 0.0154(2)
O61 O 0.5154(2) 0.4632(3) 0.2734(2)
O62 O 0.7734(2) 0.4846(2) 0.0368(3)
O63 O 0.4955(3) 0.23958(18) 0.0339(3)
O64 O 0.76042(18) 0.5339(3) 0.0045(3)
O66 O 0.5339(3) 0.5045(3) 0.26042(18)
O69 O 0.58307(17) 0.30887(19) 0.15098(19)
O72 O 0.34902(19) 0.58307(17) 0.19113(19)
O74 O 0.63819(14) 0.36181(14) 0.13819(14)
C21 C 0.60937(14) 0.62632(13) 0.98603(15)
H9 H 0.6232 0.6114 0.9807
C22 C 0.60068(16) 0.64741(15) 0.96536(12)
C23 C 0.58038(17) 0.66920(14) 0.97320(14)
H10 H 0.5744 0.6836 0.9591
C26 C 0.6138(3) 0.6476(3) 0.9362(3)
O10 O 0.63156(19) 0.6259(2) 0.93050(18)
O11 O 0.6032(2) 0.6670(2) 0.9173(2)
O12 O 0.53290(19) 0.70697(16) 0.98858(19)
Zn3_2 Zn 0.73255(3) 0.5000 1.0000
Zn4 Zn 0.62550(4) 0.60290(4) 0.83911(4)
C55 C 0.5935(2) 0.4411(3) 0.9063(2)
C56 C 0.62700(14) 0.48546(13) 0.90224(15)
C57 C 0.62632(13) 0.51397(15) 0.89063(14)
H25 H 0.6114 0.5193 0.8768
C58 C 0.64741(15) 0.53464(12) 0.89932(16)
C59 C 0.66920(14) 0.52680(14) 0.91962(17)
H26 H 0.6836 0.5409 0.9256
C60 C 0.66988(13) 0.49830(16) 0.93123(15)
C61 C 0.64879(14) 0.47762(11) 0.92254(15)
H27 H 0.6493 0.4581 0.9305
C62 C 0.6476(3) 0.5638(3) 0.8862(3)
C63 C 0.6912(2) 0.4883(3) 0.9536(3)
N13 N 0.5686(2) 0.4304(2) 0.89393(17)
N14 N 0.6038(2) 0.46688(19) 0.8935(2)
H28 H 0.5944 0.4725 0.8774
O26 O 0.6259(2) 0.56950(18) 0.86844(19)
O27 O 0.6670(2) 0.5827(2) 0.8968(2)
O28 O 0.70697(16) 0.51142(19) 0.96710(19)
O29 O 0.69405(16) 0.4646(2) 0.9615(2)
O30 O 0.63819(14) 0.63819(14) 0.86181(14)
C64 C 0.5589(3) 0.4063(2) 0.9065(2)
C65 C 0.51454(13) 0.40224(15) 0.87300(14)
C66 C 0.48603(15) 0.39063(14) 0.87368(13)
H29 H 0.4807 0.3768 0.8886
C67 C 0.46536(12) 0.39932(16) 0.85259(15)
C68 C 0.47320(14) 0.41962(17) 0.83080(14)
H30 H 0.4591 0.4256 0.8164
C69 C 0.50170(16) 0.43123(15) 0.83012(13)
C70 C 0.52238(11) 0.42254(15) 0.85121(14)
H31 H 0.5419 0.4305 0.8507
C71 C 0.4362(3) 0.3862(3) 0.8524(3)
C72 C 0.5117(3) 0.4536(3) 0.8088(2)
N15 N 0.5696(2) 0.39393(17) 0.9314(2)
N16 N 0.53312(19) 0.3935(2) 0.8962(2)
H32 H 0.5275 0.3774 0.9056
O31 O 0.43050(18) 0.36844(19) 0.8741(2)
O32 O 0.4173(2) 0.3968(2) 0.8330(2)
O33 O 0.48858(19) 0.46710(19) 0.79303(16)
O34 O 0.5354(2) 0.4615(2) 0.80595(16)
C73 C 0.5937(2) 0.4065(2) 0.9411(3)
C74 C 0.59776(15) 0.37300(14) 0.98546(13)
C78 C 0.56877(15) 0.33012(13) 0.99830(16)
C79 C 0.57746(15) 0.35121(14) 0.97762(11)
H35 H 0.5695 0.3507 0.9581
C81 C 0.5464(3) 0.3088(2) 0.9883(3)
N17 N 0.60607(17) 0.4314(2) 0.9304(2)
N18 N 0.6065(2) 0.3962(2) 0.96688(19)
H36 H 0.6226 0.4056 0.9725
O38 O 0.5385(2) 0.30595(16) 0.9646(2)
Zn5_2 Zn 0.5000 0.26745(3) 1.0000
Zn7 Zn 0.37450(4) 0.39710(4) 0.83911(4)
Zn8 Zn 0.66089(4) 0.62550(4) 0.89710(4)
Zn11_2 Zn 0.5000 0.73255(3) 1.0000
Zn13 Zn 0.2500 0.7500 0.98255(3)
Zn15 Zn 0.5000 0.5000 0.76745(3)
Zn19 Zn 0.39710(4) 0.33911(4) 0.87450(4)
Zn22 Zn 0.60290(4) 0.66089(4) 0.87450(4)
O52 O 0.3741(2) 0.43050(18) 0.86844(19)
O55 O 0.5827(2) 0.6032(2) 0.8330(2)
O56 O 0.46710(19) 0.29303(16) 0.98858(19)
O59 O 0.7734(2) 0.5154(2) 0.9632(3)
O60 O 0.4632(3) 0.2266(2) 0.9846(2)
O65 O 0.5045(3) 0.23958(18) 0.9661(3)
O67 O 0.76042(18) 0.4661(3) 0.9955(3)
O68 O 0.65098(19) 0.58307(17) 0.80887(19)
O70 O 0.34902(19) 0.41693(17) 0.80887(19)
O71 O 0.69113(19) 0.65098(19) 0.91693(17)
O73 O 0.36181(14) 0.36181(14) 0.86181(14)
Zn10_2 Zn 0.76745(3) 0.0000 -0.0000
Zn1_2 Zn 0.5000 0.0000 0.73255(3)
C30_2 C 0.37368(13) 0.01397(15) 0.60937(14)
H13_2 H 0.3886 0.0193 0.6232
C31_2 C 0.35259(15) 0.03464(12) 0.60068(16)
C32_2 C 0.33080(14) 0.02680(14) 0.58038(17)
H14_2 H 0.3164 0.0409 0.5744
C35_2 C 0.3524(3) 0.0638(3) 0.6138(3)
O14_2 O 0.3741(2) 0.06950(18) 0.63156(19)
O15_2 O 0.3330(2) 0.0827(2) 0.6032(2)
O16_2 O 0.29303(16) 0.01142(19) 0.53290(19)
Zn3_3 Zn 0.26745(3) 0.0000 0.5000
C55_2 C 0.4065(2) 0.0589(3) 0.4063(2)
C56_2 C 0.37300(14) 0.01454(13) 0.40224(15)
C60_2 C 0.33012(13) 0.00170(16) 0.43123(15)
C61_2 C 0.35121(14) 0.02238(11) 0.42254(15)
H27_2 H 0.3507 0.0419 0.4305
C63_2 C 0.3088(2) 0.0117(3) 0.4536(3)
N13_2 N 0.4314(2) 0.0696(2) 0.39393(17)
N14_2 N 0.3962(2) 0.03312(19) 0.3935(2)
H28_2 H 0.4056 0.0275 0.3774
O29_2 O 0.30595(16) 0.0354(2) 0.4615(2)
C64_2 C 0.4411(3) 0.0937(2) 0.4065(2)
C65_2 C 0.48546(13) 0.09776(15) 0.37300(14)
C66_2 C 0.51397(15) 0.10937(14) 0.37368(13)
H29_2 H 0.5193 0.1232 0.3886
C67_2 C 0.53464(12) 0.10068(16) 0.35259(15)
C68_2 C 0.52680(14) 0.08038(17) 0.33080(14)
H30_2 H 0.5409 0.0744 0.3164
C69_2 C 0.49830(16) 0.06877(15) 0.33012(13)
C70_2 C 0.47762(11) 0.07746(15) 0.35121(14)
H31_2 H 0.4581 0.0695 0.3507
C71_2 C 0.5638(3) 0.1138(3) 0.3524(3)
C72_2 C 0.4883(3) 0.0464(3) 0.3088(2)
N15_2 N 0.4304(2) 0.10607(17) 0.4314(2)
N16_2 N 0.46688(19) 0.1065(2) 0.3962(2)
H32_2 H 0.4725 0.1226 0.4056
O31_2 O 0.56950(18) 0.13156(19) 0.3741(2)
O32_2 O 0.5827(2) 0.1032(2) 0.3330(2)
O33_2 O 0.51142(19) 0.03290(19) 0.29303(16)
O34_2 O 0.4646(2) 0.0385(2) 0.30595(16)
C73_2 C 0.4063(2) 0.0935(2) 0.4411(3)
C74_2 C 0.40224(15) 0.12700(14) 0.48546(13)
C75_2 C 0.39063(14) 0.12632(13) 0.51397(15)
H33_2 H 0.3768 0.1114 0.5193
C76_2 C 0.39932(16) 0.14741(15) 0.53464(12)
C77_2 C 0.41962(17) 0.16920(14) 0.52680(14)
H34_2 H 0.4256 0.1836 0.5409
C78_2 C 0.43123(15) 0.16988(13) 0.49830(16)
C79_2 C 0.42254(15) 0.14879(14) 0.47762(11)
H35_2 H 0.4305 0.1493 0.4581
C80_2 C 0.3862(3) 0.1476(3) 0.5638(3)
C81_2 C 0.4536(3) 0.1912(2) 0.4883(3)
N17_2 N 0.39393(17) 0.0686(2) 0.4304(2)
N18_2 N 0.3935(2) 0.1038(2) 0.46688(19)
H36_2 H 0.3774 0.0944 0.4725
O35_2 O 0.36844(19) 0.1259(2) 0.56950(18)
O36_2 O 0.3968(2) 0.1670(2) 0.5827(2)
O37_2 O 0.46710(19) 0.20697(16) 0.51142(19)
O38_2 O 0.4615(2) 0.19405(16) 0.4646(2)
Zn5_3 Zn 0.5000 0.23255(3) 0.5000
Zn6_2 Zn 0.39710(4) 0.16089(4) 0.62550(4)
Zn7_2 Zn 0.62550(4) 0.10290(4) 0.33911(4)
C86_2 C 0.56783(16) 0.00987(15) 0.81366(12)
H38_2 H 0.5705 0.0257 0.8001
C87_2 C 0.58200(14) 0.01047(12) 0.84099(12)
C90_2 C 0.6005(2) 0.0354(3) 0.8502(2)
O40_2 O 0.5339(3) 0.0045(3) 0.76042(18)
O41_2 O 0.59902(19) 0.05887(19) 0.83307(17)
O42_2 O 0.6156(2) 0.03634(18) 0.87388(19)
Zn10_3 Zn 0.76745(3) 0.0000 1.0000
Zn15_2 Zn 0.5000 0.0000 0.26745(3)
Zn19_2 Zn 0.60290(4) 0.16089(4) 0.37450(4)
Zn20_2 Zn 0.37450(4) 0.10290(4) 0.66089(4)
Zn23_2 Zn 0.33911(4) 0.12550(4) 0.60290(4)
Zn26_2 Zn 0.62450(4) 0.08911(4) 0.85290(4)
O51_2 O 0.43050(18) 0.13156(19) 0.6259(2)
O52_2 O 0.6259(2) 0.06950(18) 0.36844(19)
O56_2 O 0.53290(19) 0.20697(16) 0.48858(19)
O57_2 O 0.48858(19) 0.03290(19) 0.70697(16)
O58_2 O 0.4632(3) 0.2734(2) 0.5154(2)
O60_2 O 0.5368(3) 0.2734(2) 0.4846(2)
O61_2 O 0.4846(2) 0.0368(3) 0.7734(2)
O62_2 O 0.2266(2) 0.0154(2) 0.5368(3)
O63_2 O 0.5045(3) 0.26042(18) 0.5339(3)
O65_2 O 0.4955(3) 0.26042(18) 0.4661(3)
O67_2 O 0.23958(18) 0.0339(3) 0.4955(3)
O69_2 O 0.41693(17) 0.19113(19) 0.65098(19)
O70_2 O 0.65098(19) 0.08307(17) 0.30887(19)
O73_2 O 0.63819(14) 0.13819(14) 0.36181(14)
O74_2 O 0.36181(14) 0.13819(14) 0.63819(14)
C104_2 C 0.68634(12) 0.93217(16) 0.00987(15)
H46_2 H 0.6999 0.9295 0.0257
C105_2 C 0.65901(12) 0.91800(14) 0.01047(12)
C108_2 C 0.6498(2) 0.8995(2) 0.0354(3)
O48_2 O 0.73958(18) 0.9661(3) 0.0045(3)
O49_2 O 0.66693(17) 0.90098(19) 0.05887(19)
O50_2 O 0.62612(19) 0.8844(2) 0.03634(18)
Zn10_4 Zn 0.76745(3) 1.0000 -0.0000
Zn25_2 Zn 0.64710(4) 0.87550(4) 0.08911(4)
Zn1_3 Zn 0.5000 1.0000 0.73255(3)
Zn2_2 Zn 0.60290(4) 0.83911(4) 0.62550(4)
C1_2 C 0.4411(3) 0.9063(2) 0.5935(2)
C2_2 C 0.48546(13) 0.90224(15) 0.62700(14)
C3_2 C 0.51397(15) 0.89063(14) 0.62632(13)
H1_2 H 0.5193 0.8768 0.6114
C4_2 C 0.53464(12) 0.89932(16) 0.64741(15)
C5_2 C 0.52680(14) 0.91962(17) 0.66920(14)
H2_2 H 0.5409 0.9256 0.6836
C6_2 C 0.49830(16) 0.93123(15) 0.66988(13)
C7_2 C 0.47762(11) 0.92254(15) 0.64879(14)
H3_2 H 0.4581 0.9305 0.6493
C8_2 C 0.5638(3) 0.8862(3) 0.6476(3)
C9_2 C 0.4883(3) 0.9536(3) 0.6912(2)
C10_2 C 0.6456(2) 0.6793(3) 0.6814(2)
C11_2 C 0.60340(13) 0.71348(14) 0.68994(14)
C12_2 C 0.57607(15) 0.71287(15) 0.70410(15)
H4_2 H 0.5710 0.6966 0.7164
C13_2 C 0.55620(11) 0.73607(18) 0.70022(16)
C14_2 C 0.56366(12) 0.75987(15) 0.68217(16)
H5_2 H 0.5501 0.7757 0.6795
C15_2 C 0.59099(12) 0.76047(12) 0.66800(14)
C16_2 C 0.61086(10) 0.73727(15) 0.67189(13)
H6_2 H 0.6295 0.7377 0.6622
C17_2 C 0.5281(4) 0.7363(4) 0.7175(5)
C18_2 C 0.6002(2) 0.7854(3) 0.6495(2)
N1_2 N 0.4304(2) 0.89393(17) 0.5686(2)
N2_2 N 0.46688(19) 0.8935(2) 0.6038(2)
H7_2 H 0.4725 0.8774 0.5944
N3_2 N 0.6586(2) 0.65619(19) 0.6947(2)
N4_2 N 0.62083(19) 0.6908(2) 0.6950(2)
H8_2 H 0.6155 0.6805 0.7107
O1_2 O 0.56950(18) 0.86844(19) 0.6259(2)
O2_2 O 0.5827(2) 0.8968(2) 0.6670(2)
O3_2 O 0.51142(19) 0.96710(19) 0.70697(16)
O4_2 O 0.4646(2) 0.9615(2) 0.69405(16)
O5_2 O 0.5234(2) 0.7132(3) 0.7346(2)
O6_2 O 0.51042(18) 0.7545(3) 0.7161(3)
O7_2 O 0.58307(17) 0.80887(19) 0.65098(19)
O8_2 O 0.62388(19) 0.78634(18) 0.6344(2)
O9_2 O 0.63819(14) 0.86181(14) 0.63819(14)
C19_2 C 0.4063(2) 0.9065(2) 0.5589(3)
C20_2 C 0.40224(15) 0.87300(14) 0.51454(13)
C21_2 C 0.39063(14) 0.87368(13) 0.48603(15)
H9_2 H 0.3768 0.8886 0.4807
C22_2 C 0.39932(16) 0.85259(15) 0.46536(12)
C23_2 C 0.41962(17) 0.83080(14) 0.47320(14)
H10_2 H 0.4256 0.8164 0.4591
C24_2 C 0.43123(15) 0.83012(13) 0.50170(16)
C25_2 C 0.42254(15) 0.85121(14) 0.52238(11)
H11_2 H 0.4305 0.8507 0.5419
C26_2 C 0.3862(3) 0.8524(3) 0.4362(3)
C27_2 C 0.4536(3) 0.8088(2) 0.5117(3)
N5_2 N 0.39393(17) 0.9314(2) 0.5696(2)
N6_2 N 0.3935(2) 0.8962(2) 0.53312(19)
H12_2 H 0.3774 0.9056 0.5275
O10_2 O 0.36844(19) 0.8741(2) 0.43050(18)
O11_2 O 0.3968(2) 0.8330(2) 0.4173(2)
O12_2 O 0.46710(19) 0.79303(16) 0.48858(19)
O13_2 O 0.4615(2) 0.80595(16) 0.5354(2)
C28_2 C 0.4065(2) 0.9411(3) 0.5937(2)
C29_2 C 0.37300(14) 0.98546(13) 0.59776(15)
C33_2 C 0.33012(13) 0.99830(16) 0.56877(15)
C34_2 C 0.35121(14) 0.97762(11) 0.57746(15)
H15_2 H 0.3507 0.9581 0.5695
C36_2 C 0.3088(2) 0.9883(3) 0.5464(3)
N7_2 N 0.4314(2) 0.9304(2) 0.60607(17)
N8_2 N 0.3962(2) 0.96688(19) 0.6065(2)
H16_2 H 0.4056 0.9725 0.6226
O17_2 O 0.30595(16) 0.9646(2) 0.5385(2)
C37_2 C 0.6814(2) 0.6456(2) 0.6793(3)
C38_2 C 0.68994(14) 0.60340(13) 0.71348(14)
C39_2 C 0.70410(15) 0.57607(15) 0.71287(15)
H17_2 H 0.7164 0.5710 0.6966
C40_2 C 0.70022(16) 0.55620(11) 0.73607(18)
C41_2 C 0.68217(16) 0.56366(12) 0.75987(15)
H18_2 H 0.6795 0.5501 0.7757
C42_2 C 0.66800(14) 0.59099(12) 0.76047(12)
C43_2 C 0.67189(13) 0.61086(10) 0.73727(15)
H19_2 H 0.6622 0.6295 0.7377
C44_2 C 0.7175(5) 0.5281(4) 0.7363(4)
C45_2 C 0.6495(2) 0.6002(2) 0.7854(3)
N9_2 N 0.6947(2) 0.6586(2) 0.65619(19)
N10_2 N 0.6950(2) 0.62083(19) 0.6908(2)
H20_2 H 0.7107 0.6155 0.6805
O18_2 O 0.7346(2) 0.5234(2) 0.7132(3)
O19_2 O 0.7161(3) 0.51042(18) 0.7545(3)
O21_2 O 0.6344(2) 0.62388(19) 0.78634(18)
C46_2 C 0.6793(3) 0.6814(2) 0.6456(2)
C47_2 C 0.71348(14) 0.68994(14) 0.60340(13)
C48_2 C 0.71287(15) 0.70410(15) 0.57607(15)
H21_2 H 0.6966 0.7164 0.5710
C49_2 C 0.73607(18) 0.70022(16) 0.55620(11)
C50_2 C 0.75987(15) 0.68217(16) 0.56366(12)
H22_2 H 0.7757 0.6795 0.5501
C51_2 C 0.76047(12) 0.66800(14) 0.59099(12)
C52_2 C 0.73727(15) 0.67189(13) 0.61086(10)
H23_2 H 0.7377 0.6622 0.6295
C53_2 C 0.7363(4) 0.7175(5) 0.5281(4)
C54_2 C 0.7854(3) 0.6495(2) 0.6002(2)
N11_2 N 0.65619(19) 0.6947(2) 0.6586(2)
N12_2 N 0.6908(2) 0.6950(2) 0.62083(19)
H24_2 H 0.6805 0.7107 0.6155
O22_2 O 0.7132(3) 0.7346(2) 0.5234(2)
O23_2 O 0.7545(3) 0.7161(3) 0.51042(18)
O24_2 O 0.80887(19) 0.65098(19) 0.58307(17)
O25_2 O 0.78634(18) 0.6344(2) 0.62388(19)
Zn3_4 Zn 0.26745(3) 1.0000 0.5000
C57_2 C 0.37368(13) 0.98603(15) 0.39063(14)
H25_2 H 0.3886 0.9807 0.3768
C58_2 C 0.35259(15) 0.96536(12) 0.39932(16)
C59_2 C 0.33080(14) 0.97320(14) 0.41962(17)
H26_2 H 0.3164 0.9591 0.4256
C62_2 C 0.3524(3) 0.9362(3) 0.3862(3)
O26_2 O 0.3741(2) 0.93050(18) 0.36844(19)
O27_2 O 0.3330(2) 0.9173(2) 0.3968(2)
O28_2 O 0.29303(16) 0.98858(19) 0.46710(19)
O30_2 O 0.36181(14) 0.86181(14) 0.36181(14)
Zn8_2 Zn 0.33911(4) 0.87450(4) 0.39710(4)
C82_2 C 0.5686(2) 0.9293(3) 0.8956(2)
C83_2 C 0.56006(14) 0.96348(14) 0.85340(13)
C84_2 C 0.54590(15) 0.96287(15) 0.82607(15)
H37_2 H 0.5336 0.9466 0.8210
C85_2 C 0.54978(16) 0.98607(18) 0.80620(11)
C88_2 C 0.57811(13) 0.98727(15) 0.86086(10)
H39_2 H 0.5878 0.9877 0.8795
C89_2 C 0.5325(5) 0.9863(4) 0.7781(4)
N19_2 N 0.5553(2) 0.90619(19) 0.9086(2)
N20_2 N 0.5550(2) 0.9408(2) 0.87083(19)
H40_2 H 0.5393 0.9305 0.8655
O39_2 O 0.5154(2) 0.9632(3) 0.7734(2)
C91_2 C 0.5707(3) 0.8956(2) 0.9314(2)
C92_2 C 0.53652(14) 0.85340(13) 0.93994(14)
C93_2 C 0.53713(15) 0.82607(15) 0.95410(15)
H41_2 H 0.5534 0.8210 0.9664
C94_2 C 0.51393(18) 0.80620(11) 0.95022(16)
C95_2 C 0.49013(15) 0.81366(12) 0.93217(16)
H42_2 H 0.4743 0.8001 0.9295
C96_2 C 0.48953(12) 0.84099(12) 0.91800(14)
C97_2 C 0.51273(15) 0.86086(10) 0.92189(13)
H43_2 H 0.5123 0.8795 0.9122
C98_2 C 0.5137(4) 0.7781(4) 0.9675(5)
C99_2 C 0.4646(3) 0.8502(2) 0.8995(2)
N21_2 N 0.59381(19) 0.9086(2) 0.9447(2)
N22_2 N 0.5592(2) 0.87083(19) 0.9450(2)
H44_2 H 0.5695 0.8655 0.9607
O43_2 O 0.5368(3) 0.7734(2) 0.9846(2)
O44_2 O 0.4955(3) 0.76042(18) 0.9661(3)
O45_2 O 0.44113(19) 0.83307(17) 0.90098(19)
O46_2 O 0.46366(18) 0.87388(19) 0.8844(2)
C100_2 C 0.6044(2) 0.9314(2) 0.9293(3)
C101_2 C 0.64660(13) 0.93994(14) 0.96348(14)
C102_2 C 0.67393(15) 0.95410(15) 0.96287(15)
H45_2 H 0.6790 0.9664 0.9466
C103_2 C 0.69380(11) 0.95022(16) 0.98607(18)
C106_2 C 0.63914(10) 0.92189(13) 0.98727(15)
H47_2 H 0.6205 0.9122 0.9877
C107_2 C 0.7219(4) 0.9675(5) 0.9863(4)
N23_2 N 0.5914(2) 0.9447(2) 0.90619(19)
N24_2 N 0.62917(19) 0.9450(2) 0.9408(2)
H48_2 H 0.6345 0.9607 0.9305
O47_2 O 0.7266(2) 0.9846(2) 0.9632(3)
Zn9_2 Zn 0.62550(4) 0.89710(4) 0.66089(4)
Zn10_5 Zn 0.76745(3) 1.0000 1.0000
Zn13_2 Zn 0.7500 0.7500 0.48255(3)
Zn14_2 Zn 0.48255(3) 0.7500 0.7500
Zn15_3 Zn 0.5000 1.0000 0.26745(3)
Zn16_2 Zn 0.7500 0.48255(3) 0.7500
Zn18_2 Zn 0.83911(4) 0.62550(4) 0.60290(4)
Zn21_2 Zn 0.66089(4) 0.87450(4) 0.60290(4)
Zn22_2 Zn 0.39710(4) 0.83911(4) 0.37450(4)
Zn24_2 Zn 0.41089(4) 0.85290(4) 0.87550(4)
O53_2 O 0.6259(2) 0.93050(18) 0.63156(19)
O54_2 O 0.6032(2) 0.8330(2) 0.5827(2)
O55_2 O 0.4173(2) 0.8968(2) 0.3330(2)
O59_2 O 0.2266(2) 0.9846(2) 0.4632(3)
O64_2 O 0.23958(18) 0.9661(3) 0.5045(3)
O66_2 O 0.4661(3) 0.9955(3) 0.76042(18)
O71_2 O 0.30887(19) 0.84902(19) 0.41693(17)
O72_2 O 0.65098(19) 0.91693(17) 0.69113(19)
Zn11_3 Zn 0.0000 0.23255(3) 0.0000
Zn13_3 Zn 0.2500 0.2500 0.01745(3)
Zn15_4 Zn 0.0000 -0.0000 0.23255(3)
Zn1_4 Zn 0.0000 -0.0000 0.76745(3)
Zn2_3 Zn 0.10290(4) 0.16089(4) 0.87450(4)
C3_3 C 0.01397(15) 0.10937(14) 0.87368(13)
H1_3 H 0.0193 0.1232 0.8886
C4_3 C 0.03464(12) 0.10068(16) 0.85259(15)
C5_3 C 0.02680(14) 0.08038(17) 0.83080(14)
H2_3 H 0.0409 0.0744 0.8164
C8_3 C 0.0638(3) 0.1138(3) 0.8524(3)
C10_3 C 0.1456(2) 0.3207(3) 0.8186(2)
C11_3 C 0.10340(13) 0.28652(14) 0.81006(14)
C12_3 C 0.07607(15) 0.28713(15) 0.79590(15)
H4_3 H 0.0710 0.3034 0.7836
C13_3 C 0.05620(11) 0.26393(18) 0.79978(16)
C14_3 C 0.06366(12) 0.24013(15) 0.81783(16)
H5_3 H 0.0501 0.2243 0.8205
C15_3 C 0.09099(12) 0.23953(12) 0.83200(14)
C16_3 C 0.11086(10) 0.26273(15) 0.82811(13)
H6_3 H 0.1295 0.2623 0.8378
C17_3 C 0.0281(4) 0.2637(4) 0.7825(5)
C18_3 C 0.1002(2) 0.2146(3) 0.8505(2)
N3_3 N 0.1586(2) 0.34381(19) 0.8053(2)
N4_3 N 0.12083(19) 0.3092(2) 0.8050(2)
H8_3 H 0.1155 0.3195 0.7893
O1_3 O 0.06950(18) 0.13156(19) 0.8741(2)
O2_3 O 0.0827(2) 0.1032(2) 0.8330(2)
O3_3 O 0.01142(19) 0.03290(19) 0.79303(16)
O5_3 O 0.0234(2) 0.2868(3) 0.7654(2)
O6_3 O 0.01042(18) 0.2455(3) 0.7839(3)
O7_3 O 0.08307(17) 0.19113(19) 0.84902(19)
O8_3 O 0.12388(19) 0.21366(18) 0.8656(2)
O9_3 O 0.13819(14) 0.13819(14) 0.86181(14)
C37_3 C 0.1814(2) 0.3544(2) 0.8207(3)
C38_3 C 0.18994(14) 0.39660(13) 0.78652(14)
C39_3 C 0.20410(15) 0.42393(15) 0.78713(15)
H17_3 H 0.2164 0.4290 0.8034
C40_3 C 0.20022(16) 0.44380(11) 0.76393(18)
C41_3 C 0.18217(16) 0.43634(12) 0.74013(15)
H18_3 H 0.1795 0.4499 0.7243
C42_3 C 0.16800(14) 0.40901(12) 0.73953(12)
C43_3 C 0.17189(13) 0.38914(10) 0.76273(15)
H19_3 H 0.1622 0.3705 0.7623
C44_3 C 0.2175(5) 0.4719(4) 0.7637(4)
C45_3 C 0.1495(2) 0.3998(2) 0.7146(3)
N9_3 N 0.1947(2) 0.3414(2) 0.84381(19)
N10_3 N 0.1950(2) 0.37917(19) 0.8092(2)
H20_3 H 0.2107 0.3845 0.8195
O18_3 O 0.2346(2) 0.4766(2) 0.7868(3)
O19_3 O 0.2161(3) 0.48958(18) 0.7455(3)
O20_2 O 0.15098(19) 0.41693(17) 0.69113(19)
O21_3 O 0.1344(2) 0.37612(19) 0.71366(18)
C46_3 C 0.1793(3) 0.3186(2) 0.8544(2)
C47_3 C 0.21348(14) 0.31006(14) 0.89660(13)
C48_3 C 0.21287(15) 0.29590(15) 0.92393(15)
H21_3 H 0.1966 0.2836 0.9290
C49_3 C 0.23607(18) 0.29978(16) 0.94380(11)
C50_3 C 0.25987(15) 0.31783(16) 0.93634(12)
H22_3 H 0.2757 0.3205 0.9499
C51_3 C 0.26047(12) 0.33200(14) 0.90901(12)
C52_3 C 0.23727(15) 0.32811(13) 0.88914(10)
H23_3 H 0.2377 0.3378 0.8705
C53_3 C 0.2363(4) 0.2825(5) 0.9719(4)
C54_3 C 0.2854(3) 0.3505(2) 0.8998(2)
N11_3 N 0.15619(19) 0.3053(2) 0.8414(2)
N12_3 N 0.1908(2) 0.3050(2) 0.87917(19)
H24_3 H 0.1805 0.2893 0.8845
O22_3 O 0.2132(3) 0.2654(2) 0.9766(2)
O23_3 O 0.2545(3) 0.2839(3) 0.98958(18)
O24_3 O 0.30887(19) 0.34902(19) 0.91693(17)
O25_3 O 0.28634(18) 0.3656(2) 0.87612(19)
C82_3 C 0.0686(2) 0.0707(3) 0.6044(2)
C83_3 C 0.06006(14) 0.03652(14) 0.64660(13)
C84_3 C 0.04590(15) 0.03713(15) 0.67393(15)
H37_3 H 0.0336 0.0534 0.6790
C85_3 C 0.04978(16) 0.01393(18) 0.69380(11)
C88_3 C 0.07811(13) 0.01273(15) 0.63914(10)
H39_3 H 0.0878 0.0123 0.6205
C89_3 C 0.0325(5) 0.0137(4) 0.7219(4)
N19_3 N 0.0553(2) 0.09381(19) 0.5914(2)
N20_3 N 0.0550(2) 0.0592(2) 0.62917(19)
H40_3 H 0.0393 0.0695 0.6345
O39_3 O 0.0154(2) 0.0368(3) 0.7266(2)
C91_3 C 0.0707(3) 0.1044(2) 0.5686(2)
C92_3 C 0.03652(14) 0.14660(13) 0.56006(14)
C93_3 C 0.03713(15) 0.17393(15) 0.54590(15)
H41_3 H 0.0534 0.1790 0.5336
C94_3 C 0.01393(18) 0.19380(11) 0.54978(16)
C97_3 C 0.01273(15) 0.13914(10) 0.57811(13)
H43_3 H 0.0123 0.1205 0.5878
C98_3 C 0.0137(4) 0.2219(4) 0.5325(5)
N21_3 N 0.09381(19) 0.0914(2) 0.5553(2)
N22_3 N 0.0592(2) 0.12917(19) 0.5550(2)
H44_3 H 0.0695 0.1345 0.5393
O43_3 O 0.0368(3) 0.2266(2) 0.5154(2)
C100_3 C 0.1044(2) 0.0686(2) 0.5707(3)
C101_3 C 0.14660(13) 0.06006(14) 0.53652(14)
C102_3 C 0.17393(15) 0.04590(15) 0.53713(15)
H45_3 H 0.1790 0.0336 0.5534
C103_3 C 0.19380(11) 0.04978(16) 0.51393(18)
C104_3 C 0.18634(12) 0.06783(16) 0.49013(15)
H46_3 H 0.1999 0.0705 0.4743
C105_3 C 0.15901(12) 0.08200(14) 0.48953(12)
C106_3 C 0.13914(10) 0.07811(13) 0.51273(15)
H47_3 H 0.1205 0.0878 0.5123
C107_3 C 0.2219(4) 0.0325(5) 0.5137(4)
C108_3 C 0.1498(2) 0.1005(2) 0.4646(3)
N23_3 N 0.0914(2) 0.0553(2) 0.59381(19)
N24_3 N 0.12917(19) 0.0550(2) 0.5592(2)
H48_3 H 0.1345 0.0393 0.5695
O49_3 O 0.16693(17) 0.09902(19) 0.44113(19)
O50_3 O 0.12612(19) 0.1156(2) 0.46366(18)
Zn9_3 Zn 0.12550(4) 0.10290(4) 0.83911(4)
Zn11_4 Zn 0.0000 0.23255(3) 1.0000
Zn12_2 Zn 0.0000 0.26745(3) 0.5000
Zn16_3 Zn 0.2500 0.51745(3) 0.7500
Zn17_2 Zn 0.12550(4) 0.39710(4) 0.66089(4)
Zn18_3 Zn 0.33911(4) 0.37450(4) 0.89710(4)
Zn21_3 Zn 0.16089(4) 0.12550(4) 0.89710(4)
Zn25_3 Zn 0.14710(4) 0.12450(4) 0.41089(4)
O53_3 O 0.1259(2) 0.06950(18) 0.86844(19)
O54_3 O 0.1032(2) 0.1670(2) 0.9173(2)
O72_3 O 0.15098(19) 0.08307(17) 0.80887(19)
C66_3 C 0.01397(15) 0.89063(14) 0.12632(13)
H29_3 H 0.0193 0.8768 0.1114
C67_3 C 0.03464(12) 0.89932(16) 0.14741(15)
C68_3 C 0.02680(14) 0.91962(17) 0.16920(14)
H30_3 H 0.0409 0.9256 0.1836
C71_3 C 0.0638(3) 0.8862(3) 0.1476(3)
O31_3 O 0.06950(18) 0.86844(19) 0.1259(2)
O32_3 O 0.0827(2) 0.8968(2) 0.1670(2)
O33_3 O 0.01142(19) 0.96710(19) 0.20697(16)
Zn5_4 Zn 0.0000 0.76745(3) 0.0000
Zn7_3 Zn 0.12550(4) 0.89710(4) 0.16089(4)
Zn15_5 Zn 0.0000 1.0000 0.23255(3)
Zn19_3 Zn 0.10290(4) 0.83911(4) 0.12550(4)
O52_3 O 0.1259(2) 0.93050(18) 0.13156(19)
O56_3 O 0.03290(19) 0.79303(16) 0.01142(19)
O60_3 O 0.0368(3) 0.7266(2) 0.0154(2)
O70_3 O 0.15098(19) 0.91693(17) 0.19113(19)
O73_3 O 0.13819(14) 0.86181(14) 0.13819(14)
Zn1_5 Zn 0.0000 1.0000 0.76745(3)
Zn5_5 Zn 0.0000 0.76745(3) 1.0000
C86_3 C 0.06783(16) 0.99013(15) 0.68634(12)
H38_3 H 0.0705 0.9743 0.6999
C87_3 C 0.08200(14) 0.98953(12) 0.65901(12)
C90_3 C 0.1005(2) 0.9646(3) 0.6498(2)
O40_3 O 0.0339(3) 0.9955(3) 0.73958(18)
O41_3 O 0.09902(19) 0.94113(19) 0.66693(17)
O42_3 O 0.1156(2) 0.96366(18) 0.62612(19)
Zn26_3 Zn 0.12450(4) 0.91089(4) 0.64710(4)
O63_3 O 0.0045(3) 0.73958(18) 0.9661(3)
C21_3 C 0.89063(14) 0.12632(13) 0.01397(15)
H9_3 H 0.8768 0.1114 0.0193
C22_3 C 0.89932(16) 0.14741(15) 0.03464(12)
C23_3 C 0.91962(17) 0.16920(14) 0.02680(14)
H10_3 H 0.9256 0.1836 0.0409
C26_3 C 0.8862(3) 0.1476(3) 0.0638(3)
O10_3 O 0.86844(19) 0.1259(2) 0.06950(18)
O11_3 O 0.8968(2) 0.1670(2) 0.0827(2)
O12_3 O 0.96710(19) 0.20697(16) 0.01142(19)
Zn4_2 Zn 0.87450(4) 0.10290(4) 0.16089(4)
C57_3 C 0.87368(13) 0.01397(15) 0.10937(14)
H25_3 H 0.8886 0.0193 0.1232
C58_3 C 0.85259(15) 0.03464(12) 0.10068(16)
C59_3 C 0.83080(14) 0.02680(14) 0.08038(17)
H26_3 H 0.8164 0.0409 0.0744
C62_3 C 0.8524(3) 0.0638(3) 0.1138(3)
O26_3 O 0.8741(2) 0.06950(18) 0.13156(19)
O27_3 O 0.8330(2) 0.0827(2) 0.1032(2)
O28_3 O 0.79303(16) 0.01142(19) 0.03290(19)
O30_3 O 0.86181(14) 0.13819(14) 0.13819(14)
Zn8_3 Zn 0.83911(4) 0.12550(4) 0.10290(4)
Zn11_5 Zn 1.0000 0.23255(3) 0.0000
Zn15_6 Zn 1.0000 -0.0000 0.23255(3)
Zn22_3 Zn 0.89710(4) 0.16089(4) 0.12550(4)
O55_3 O 0.9173(2) 0.1032(2) 0.1670(2)
O59_3 O 0.7266(2) 0.0154(2) 0.0368(3)
O68_2 O 0.84902(19) 0.08307(17) 0.19113(19)
O71_3 O 0.80887(19) 0.15098(19) 0.08307(17)
Zn1_6 Zn 1.0000 -0.0000 0.76745(3)
C1_3 C 0.9411(3) 0.0937(2) 0.9065(2)
C2_3 C 0.98546(13) 0.09776(15) 0.87300(14)
C6_3 C 0.99830(16) 0.06877(15) 0.83012(13)
C7_3 C 0.97762(11) 0.07746(15) 0.85121(14)
H3_3 H 0.9581 0.0695 0.8507
C9_3 C 0.9883(3) 0.0464(3) 0.8088(2)
N1_3 N 0.9304(2) 0.10607(17) 0.9314(2)
N2_3 N 0.96688(19) 0.1065(2) 0.8962(2)
H7_3 H 0.9725 0.1226 0.9056
O4_3 O 0.9646(2) 0.0385(2) 0.80595(16)
C19_3 C 0.9063(2) 0.0935(2) 0.9411(3)
C20_3 C 0.90224(15) 0.12700(14) 0.98546(13)
C24_3 C 0.93123(15) 0.16988(13) 0.99830(16)
C25_3 C 0.92254(15) 0.14879(14) 0.97762(11)
H11_3 H 0.9305 0.1493 0.9581
C27_3 C 0.9536(3) 0.1912(2) 0.9883(3)
N5_3 N 0.89393(17) 0.0686(2) 0.9304(2)
N6_3 N 0.8935(2) 0.1038(2) 0.96688(19)
H12_3 H 0.8774 0.0944 0.9725
O13_3 O 0.9615(2) 0.19405(16) 0.9646(2)
C28_3 C 0.9065(2) 0.0589(3) 0.9063(2)
C29_3 C 0.87300(14) 0.01454(13) 0.90224(15)
C33_3 C 0.83012(13) 0.00170(16) 0.93123(15)
C34_3 C 0.85121(14) 0.02238(11) 0.92254(15)
H15_3 H 0.8507 0.0419 0.9305
C36_3 C 0.8088(2) 0.0117(3) 0.9536(3)
N7_3 N 0.9314(2) 0.0696(2) 0.89393(17)
N8_3 N 0.8962(2) 0.03312(19) 0.8935(2)
H16_3 H 0.9056 0.0275 0.8774
O17_3 O 0.80595(16) 0.0354(2) 0.9615(2)
C95_3 C 0.99013(15) 0.18634(12) 0.56783(16)
H42_3 H 0.9743 0.1999 0.5705
C96_3 C 0.98953(12) 0.15901(12) 0.58200(14)
C99_3 C 0.9646(3) 0.1498(2) 0.6005(2)
O44_3 O 0.9955(3) 0.23958(18) 0.5339(3)
O45_3 O 0.94113(19) 0.16693(17) 0.59902(19)
O46_3 O 0.96366(18) 0.12612(19) 0.6156(2)
Zn11_6 Zn 1.0000 0.23255(3) 1.0000
Zn12_3 Zn 1.0000 0.26745(3) 0.5000
Zn14_3 Zn 0.98255(3) 0.2500 0.7500
Zn24_3 Zn 0.91089(4) 0.14710(4) 0.62450(4)
O64_3 O 0.73958(18) 0.0339(3) 0.9955(3)
O66_3 O 0.9661(3) 0.0045(3) 0.73958(18)
C55_3 C 0.9065(2) 0.9411(3) 0.0937(2)
C56_3 C 0.87300(14) 0.98546(13) 0.09776(15)
C60_3 C 0.83012(13) 0.99830(16) 0.06877(15)
C61_3 C 0.85121(14) 0.97762(11) 0.07746(15)
H27_3 H 0.8507 0.9581 0.0695
C63_3 C 0.8088(2) 0.9883(3) 0.0464(3)
N13_3 N 0.9314(2) 0.9304(2) 0.10607(17)
N14_3 N 0.8962(2) 0.96688(19) 0.1065(2)
H28_3 H 0.9056 0.9725 0.1226
O29_3 O 0.80595(16) 0.9646(2) 0.0385(2)
C64_3 C 0.9411(3) 0.9063(2) 0.0935(2)
C65_3 C 0.98546(13) 0.90224(15) 0.12700(14)
C69_3 C 0.99830(16) 0.93123(15) 0.16988(13)
C70_3 C 0.97762(11) 0.92254(15) 0.14879(14)
H31_3 H 0.9581 0.9305 0.1493
C72_3 C 0.9883(3) 0.9536(3) 0.1912(2)
N15_3 N 0.9304(2) 0.89393(17) 0.0686(2)
N16_3 N 0.96688(19) 0.8935(2) 0.1038(2)
H32_3 H 0.9725 0.8774 0.0944
O34_3 O 0.9646(2) 0.9615(2) 0.19405(16)
C73_3 C 0.9063(2) 0.9065(2) 0.0589(3)
C74_3 C 0.90224(15) 0.87300(14) 0.01454(13)
C78_3 C 0.93123(15) 0.83012(13) 0.00170(16)
C79_3 C 0.92254(15) 0.85121(14) 0.02238(11)
H35_3 H 0.9305 0.8507 0.0419
C81_3 C 0.9536(3) 0.8088(2) 0.0117(3)
N17_3 N 0.89393(17) 0.9314(2) 0.0696(2)
N18_3 N 0.8935(2) 0.8962(2) 0.03312(19)
H36_3 H 0.8774 0.9056 0.0275
O38_3 O 0.9615(2) 0.80595(16) 0.0354(2)
Zn5_6 Zn 1.0000 0.76745(3) 0.0000
Zn15_7 Zn 1.0000 1.0000 0.23255(3)
O65_3 O 0.9955(3) 0.73958(18) 0.0339(3)
Zn1_7 Zn 1.0000 1.0000 0.76745(3)
C30_3 C 0.87368(13) 0.98603(15) 0.89063(14)
H13_3 H 0.8886 0.9807 0.8768
C31_3 C 0.85259(15) 0.96536(12) 0.89932(16)
C32_3 C 0.83080(14) 0.97320(14) 0.91962(17)
H14_3 H 0.8164 0.9591 0.9256
C35_3 C 0.8524(3) 0.9362(3) 0.8862(3)
O14_3 O 0.8741(2) 0.93050(18) 0.86844(19)
O15_3 O 0.8330(2) 0.9173(2) 0.8968(2)
O16_3 O 0.79303(16) 0.98858(19) 0.96710(19)
C75_3 C 0.89063(14) 0.87368(13) 0.98603(15)
H33_3 H 0.8768 0.8886 0.9807
C76_3 C 0.89932(16) 0.85259(15) 0.96536(12)
C77_3 C 0.91962(17) 0.83080(14) 0.97320(14)
H34_3 H 0.9256 0.8164 0.9591
C80_3 C 0.8862(3) 0.8524(3) 0.9362(3)
O35_3 O 0.86844(19) 0.8741(2) 0.93050(18)
O36_3 O 0.8968(2) 0.8330(2) 0.9173(2)
O37_3 O 0.96710(19) 0.79303(16) 0.98858(19)
Zn5_7 Zn 1.0000 0.76745(3) 1.0000
Zn6_3 Zn 0.89710(4) 0.83911(4) 0.87450(4)
Zn20_3 Zn 0.87450(4) 0.89710(4) 0.83911(4)
Zn23_3 Zn 0.83911(4) 0.87450(4) 0.89710(4)
O51_3 O 0.93050(18) 0.86844(19) 0.8741(2)
O57_3 O 0.98858(19) 0.96710(19) 0.79303(16)
O58_3 O 0.9632(3) 0.7266(2) 0.9846(2)
O61_3 O 0.9846(2) 0.9632(3) 0.7266(2)
O69_3 O 0.91693(17) 0.80887(19) 0.84902(19)
O74_3 O 0.86181(14) 0.86181(14) 0.86181(14)
Zn1_8 Zn -0.0000 0.5000 0.26745(3)
C1_4 C 0.0589(3) 0.4063(2) 0.4065(2)
C2_4 C 0.01454(13) 0.40224(15) 0.37300(14)
C6_4 C 0.00170(16) 0.43123(15) 0.33012(13)
C7_4 C 0.02238(11) 0.42254(15) 0.35121(14)
H3_4 H 0.0419 0.4305 0.3507
C9_4 C 0.0117(3) 0.4536(3) 0.3088(2)
N1_4 N 0.0696(2) 0.39393(17) 0.4314(2)
N2_4 N 0.03312(19) 0.3935(2) 0.3962(2)
H7_4 H 0.0275 0.3774 0.4056
O4_4 O 0.0354(2) 0.4615(2) 0.30595(16)
C19_4 C 0.0937(2) 0.4065(2) 0.4411(3)
C20_4 C 0.09776(15) 0.37300(14) 0.48546(13)
C21_4 C 0.10937(14) 0.37368(13) 0.51397(15)
H9_4 H 0.1232 0.3886 0.5193
C22_4 C 0.10068(16) 0.35259(15) 0.53464(12)
C23_4 C 0.08038(17) 0.33080(14) 0.52680(14)
H10_4 H 0.0744 0.3164 0.5409
C24_4 C 0.06877(15) 0.33012(13) 0.49830(16)
C25_4 C 0.07746(15) 0.35121(14) 0.47762(11)
H11_4 H 0.0695 0.3507 0.4581
C26_4 C 0.1138(3) 0.3524(3) 0.5638(3)
C27_4 C 0.0464(3) 0.3088(2) 0.4883(3)
N5_4 N 0.10607(17) 0.4314(2) 0.4304(2)
N6_4 N 0.1065(2) 0.3962(2) 0.46688(19)
H12_4 H 0.1226 0.4056 0.4725
O10_4 O 0.13156(19) 0.3741(2) 0.56950(18)
O11_4 O 0.1032(2) 0.3330(2) 0.5827(2)
O12_4 O 0.03290(19) 0.29303(16) 0.51142(19)
O13_4 O 0.0385(2) 0.30595(16) 0.4646(2)
C28_4 C 0.0935(2) 0.4411(3) 0.4063(2)
C29_4 C 0.12700(14) 0.48546(13) 0.40224(15)
C30_4 C 0.12632(13) 0.51397(15) 0.39063(14)
H13_4 H 0.1114 0.5193 0.3768
C31_4 C 0.14741(15) 0.53464(12) 0.39932(16)
C32_4 C 0.16920(14) 0.52680(14) 0.41962(17)
H14_4 H 0.1836 0.5409 0.4256
C33_4 C 0.16988(13) 0.49830(16) 0.43123(15)
C34_4 C 0.14879(14) 0.47762(11) 0.42254(15)
H15_4 H 0.1493 0.4581 0.4305
C35_4 C 0.1476(3) 0.5638(3) 0.3862(3)
C36_4 C 0.1912(2) 0.4883(3) 0.4536(3)
N7_4 N 0.0686(2) 0.4304(2) 0.39393(17)
N8_4 N 0.1038(2) 0.46688(19) 0.3935(2)
H16_4 H 0.0944 0.4725 0.3774
O14_4 O 0.1259(2) 0.56950(18) 0.36844(19)
O15_4 O 0.1670(2) 0.5827(2) 0.3968(2)
O16_4 O 0.20697(16) 0.51142(19) 0.46710(19)
O17_4 O 0.19405(16) 0.4646(2) 0.4615(2)
C55_4 C 0.0935(2) 0.5589(3) 0.5937(2)
C56_4 C 0.12700(14) 0.51454(13) 0.59776(15)
C57_4 C 0.12632(13) 0.48603(15) 0.60937(14)
H25_4 H 0.1114 0.4807 0.6232
C58_4 C 0.14741(15) 0.46536(12) 0.60068(16)
C59_4 C 0.16920(14) 0.47320(14) 0.58038(17)
H26_4 H 0.1836 0.4591 0.5744
C60_4 C 0.16988(13) 0.50170(16) 0.56877(15)
C61_4 C 0.14879(14) 0.52238(11) 0.57746(15)
H27_4 H 0.1493 0.5419 0.5695
C62_4 C 0.1476(3) 0.4362(3) 0.6138(3)
C63_4 C 0.1912(2) 0.5117(3) 0.5464(3)
N13_4 N 0.0686(2) 0.5696(2) 0.60607(17)
N14_4 N 0.1038(2) 0.53312(19) 0.6065(2)
H28_4 H 0.0944 0.5275 0.6226
O26_4 O 0.1259(2) 0.43050(18) 0.63156(19)
O27_4 O 0.1670(2) 0.4173(2) 0.6032(2)
O28_4 O 0.20697(16) 0.48858(19) 0.53290(19)
O29_4 O 0.19405(16) 0.5354(2) 0.5385(2)
O30_4 O 0.13819(14) 0.36181(14) 0.63819(14)
C64_4 C 0.0589(3) 0.5937(2) 0.5935(2)
C65_4 C 0.01454(13) 0.59776(15) 0.62700(14)
C69_4 C 0.00170(16) 0.56877(15) 0.66988(13)
C70_4 C 0.02238(11) 0.57746(15) 0.64879(14)
H31_4 H 0.0419 0.5695 0.6493
C72_4 C 0.0117(3) 0.5464(3) 0.6912(2)
N15_4 N 0.0696(2) 0.60607(17) 0.5686(2)
N16_4 N 0.03312(19) 0.6065(2) 0.6038(2)
H32_4 H 0.0275 0.6226 0.5944
O34_4 O 0.0354(2) 0.5385(2) 0.69405(16)
C73_4 C 0.0937(2) 0.5935(2) 0.5589(3)
C74_4 C 0.09776(15) 0.62700(14) 0.51454(13)
C75_4 C 0.10937(14) 0.62632(13) 0.48603(15)
H33_4 H 0.1232 0.6114 0.4807
C76_4 C 0.10068(16) 0.64741(15) 0.46536(12)
C77_4 C 0.08038(17) 0.66920(14) 0.47320(14)
H34_4 H 0.0744 0.6836 0.4591
C78_4 C 0.06877(15) 0.66988(13) 0.50170(16)
C79_4 C 0.07746(15) 0.64879(14) 0.52238(11)
H35_4 H 0.0695 0.6493 0.5419
C80_4 C 0.1138(3) 0.6476(3) 0.4362(3)
C81_4 C 0.0464(3) 0.6912(2) 0.5117(3)
N17_4 N 0.10607(17) 0.5686(2) 0.5696(2)
N18_4 N 0.1065(2) 0.6038(2) 0.53312(19)
H36_4 H 0.1226 0.5944 0.5275
O35_4 O 0.13156(19) 0.6259(2) 0.43050(18)
O36_4 O 0.1032(2) 0.6670(2) 0.4173(2)
O37_4 O 0.03290(19) 0.70697(16) 0.48858(19)
O38_4 O 0.0385(2) 0.69405(16) 0.5354(2)
Zn5_8 Zn -0.0000 0.73255(3) 0.5000
Zn6_4 Zn 0.10290(4) 0.66089(4) 0.37450(4)
Zn8_4 Zn 0.16089(4) 0.37450(4) 0.60290(4)
C95_4 C 0.00987(15) 0.31366(12) 0.06783(16)
H42_4 H 0.0257 0.3001 0.0705
C96_4 C 0.01047(12) 0.34099(12) 0.08200(14)
C99_4 C 0.0354(3) 0.3502(2) 0.1005(2)
O44_4 O 0.0045(3) 0.26042(18) 0.0339(3)
O45_4 O 0.05887(19) 0.33307(17) 0.09902(19)
O46_4 O 0.03634(18) 0.37388(19) 0.1156(2)
Zn14_4 Zn 0.01745(3) 0.2500 0.2500
Zn15_8 Zn -0.0000 0.5000 0.73255(3)
Zn20_4 Zn 0.12550(4) 0.60290(4) 0.33911(4)
Zn22_4 Zn 0.10290(4) 0.33911(4) 0.62550(4)
Zn23_4 Zn 0.16089(4) 0.62550(4) 0.39710(4)
Zn24_4 Zn 0.08911(4) 0.35290(4) 0.12450(4)
O51_4 O 0.06950(18) 0.63156(19) 0.3741(2)
O55_4 O 0.0827(2) 0.3968(2) 0.6670(2)
O57_4 O 0.01142(19) 0.53290(19) 0.29303(16)
O58_4 O 0.0368(3) 0.7734(2) 0.4846(2)
O59_4 O 0.2734(2) 0.4846(2) 0.5368(3)
O61_4 O 0.0154(2) 0.5368(3) 0.2266(2)
O64_4 O 0.26042(18) 0.4661(3) 0.4955(3)
O65_4 O 0.0045(3) 0.76042(18) 0.5339(3)
O66_4 O 0.0339(3) 0.4955(3) 0.23958(18)
O69_4 O 0.08307(17) 0.69113(19) 0.34902(19)
O71_4 O 0.19113(19) 0.34902(19) 0.58307(17)
O74_4 O 0.13819(14) 0.63819(14) 0.36181(14)
Zn1_9 Zn 1.0000 0.5000 0.26745(3)
Zn2_4 Zn 0.89710(4) 0.33911(4) 0.37450(4)
C3_4 C 0.98603(15) 0.39063(14) 0.37368(13)
H1_4 H 0.9807 0.3768 0.3886
C4_4 C 0.96536(12) 0.39932(16) 0.35259(15)
C5_4 C 0.97320(14) 0.41962(17) 0.33080(14)
H2_4 H 0.9591 0.4256 0.3164
C8_4 C 0.9362(3) 0.3862(3) 0.3524(3)
C10_4 C 0.8544(2) 0.1793(3) 0.3186(2)
C11_4 C 0.89660(13) 0.21348(14) 0.31006(14)
C12_4 C 0.92393(15) 0.21287(15) 0.29590(15)
H4_4 H 0.9290 0.1966 0.2836
C13_4 C 0.94380(11) 0.23607(18) 0.29978(16)
C14_4 C 0.93634(12) 0.25987(15) 0.31783(16)
H5_4 H 0.9499 0.2757 0.3205
C15_4 C 0.90901(12) 0.26047(12) 0.33200(14)
C16_4 C 0.88914(10) 0.23727(15) 0.32811(13)
H6_4 H 0.8705 0.2377 0.3378
C17_4 C 0.9719(4) 0.2363(4) 0.2825(5)
C18_4 C 0.8998(2) 0.2854(3) 0.3505(2)
N3_4 N 0.8414(2) 0.15619(19) 0.3053(2)
N4_4 N 0.87917(19) 0.1908(2) 0.3050(2)
H8_4 H 0.8845 0.1805 0.2893
O1_4 O 0.93050(18) 0.36844(19) 0.3741(2)
O2_4 O 0.9173(2) 0.3968(2) 0.3330(2)
O3_4 O 0.98858(19) 0.46710(19) 0.29303(16)
O5_4 O 0.9766(2) 0.2132(3) 0.2654(2)
O6_4 O 0.98958(18) 0.2545(3) 0.2839(3)
O7_4 O 0.91693(17) 0.30887(19) 0.34902(19)
O8_4 O 0.87612(19) 0.28634(18) 0.3656(2)
O9_4 O 0.86181(14) 0.36181(14) 0.36181(14)
C37_4 C 0.8186(2) 0.1456(2) 0.3207(3)
C38_4 C 0.81006(14) 0.10340(13) 0.28652(14)
C39_4 C 0.79590(15) 0.07607(15) 0.28713(15)
H17_4 H 0.7836 0.0710 0.3034
C40_4 C 0.79978(16) 0.05620(11) 0.26393(18)
C41_4 C 0.81783(16) 0.06366(12) 0.24013(15)
H18_4 H 0.8205 0.0501 0.2243
C42_4 C 0.83200(14) 0.09099(12) 0.23953(12)
C43_4 C 0.82811(13) 0.11086(10) 0.26273(15)
H19_4 H 0.8378 0.1295 0.2623
C44_4 C 0.7825(5) 0.0281(4) 0.2637(4)
C45_4 C 0.8505(2) 0.1002(2) 0.2146(3)
N9_4 N 0.8053(2) 0.1586(2) 0.34381(19)
N10_4 N 0.8050(2) 0.12083(19) 0.3092(2)
H20_4 H 0.7893 0.1155 0.3195
O18_4 O 0.7654(2) 0.0234(2) 0.2868(3)
O19_4 O 0.7839(3) 0.01042(18) 0.2455(3)
O21_4 O 0.8656(2) 0.12388(19) 0.21366(18)
C46_4 C 0.8207(3) 0.1814(2) 0.3544(2)
C47_4 C 0.78652(14) 0.18994(14) 0.39660(13)
C48_4 C 0.78713(15) 0.20410(15) 0.42393(15)
H21_4 H 0.8034 0.2164 0.4290
C49_4 C 0.76393(18) 0.20022(16) 0.44380(11)
C50_4 C 0.74013(15) 0.18217(16) 0.43634(12)
H22_4 H 0.7243 0.1795 0.4499
C51_4 C 0.73953(12) 0.16800(14) 0.40901(12)
C52_4 C 0.76273(15) 0.17189(13) 0.38914(10)
H23_4 H 0.7623 0.1622 0.3705
C53_4 C 0.7637(4) 0.2175(5) 0.4719(4)
C54_4 C 0.7146(3) 0.1495(2) 0.3998(2)
N11_4 N 0.84381(19) 0.1947(2) 0.3414(2)
N12_4 N 0.8092(2) 0.1950(2) 0.37917(19)
H24_4 H 0.8195 0.2107 0.3845
O22_4 O 0.7868(3) 0.2346(2) 0.4766(2)
O23_4 O 0.7455(3) 0.2161(3) 0.48958(18)
O24_4 O 0.69113(19) 0.15098(19) 0.41693(17)
O25_4 O 0.71366(18) 0.1344(2) 0.37612(19)
C66_4 C 0.98603(15) 0.60937(14) 0.62632(13)
H29_4 H 0.9807 0.6232 0.6114
C67_4 C 0.96536(12) 0.60068(16) 0.64741(15)
C68_4 C 0.97320(14) 0.58038(17) 0.66920(14)
H30_4 H 0.9591 0.5744 0.6836
C71_4 C 0.9362(3) 0.6138(3) 0.6476(3)
O31_4 O 0.93050(18) 0.63156(19) 0.6259(2)
O32_4 O 0.9173(2) 0.6032(2) 0.6670(2)
O33_4 O 0.98858(19) 0.53290(19) 0.70697(16)
Zn5_9 Zn 1.0000 0.73255(3) 0.5000
Zn7_4 Zn 0.87450(4) 0.60290(4) 0.66089(4)
C82_4 C 0.9314(2) 0.4293(3) 0.1044(2)
C83_4 C 0.93994(14) 0.46348(14) 0.14660(13)
C84_4 C 0.95410(15) 0.46287(15) 0.17393(15)
H37_4 H 0.9664 0.4466 0.1790
C85_4 C 0.95022(16) 0.48607(18) 0.19380(11)
C86_4 C 0.93217(16) 0.50987(15) 0.18634(12)
H38_4 H 0.9295 0.5257 0.1999
C87_4 C 0.91800(14) 0.51047(12) 0.15901(12)
C88_4 C 0.92189(13) 0.48727(15) 0.13914(10)
H39_4 H 0.9122 0.4877 0.1205
C89_4 C 0.9675(5) 0.4863(4) 0.2219(4)
C90_4 C 0.8995(2) 0.5354(3) 0.1498(2)
N19_4 N 0.9447(2) 0.40619(19) 0.0914(2)
N20_4 N 0.9450(2) 0.4408(2) 0.12917(19)
H40_4 H 0.9607 0.4305 0.1345
O39_4 O 0.9846(2) 0.4632(3) 0.2266(2)
O40_4 O 0.9661(3) 0.5045(3) 0.23958(18)
O41_4 O 0.90098(19) 0.55887(19) 0.16693(17)
O42_4 O 0.8844(2) 0.53634(18) 0.12612(19)
C91_4 C 0.9293(3) 0.3956(2) 0.0686(2)
C92_4 C 0.96348(14) 0.35340(13) 0.06006(14)
C93_4 C 0.96287(15) 0.32607(15) 0.04590(15)
H41_4 H 0.9466 0.3210 0.0336
C94_4 C 0.98607(18) 0.30620(11) 0.04978(16)
C97_4 C 0.98727(15) 0.36086(10) 0.07811(13)
H43_4 H 0.9877 0.3795 0.0878
C98_4 C 0.9863(4) 0.2781(4) 0.0325(5)
N21_4 N 0.90619(19) 0.4086(2) 0.0553(2)
N22_4 N 0.9408(2) 0.37083(19) 0.0550(2)
H44_4 H 0.9305 0.3655 0.0393
O43_4 O 0.9632(3) 0.2734(2) 0.0154(2)
C100_4 C 0.8956(2) 0.4314(2) 0.0707(3)
C101_4 C 0.85340(13) 0.43994(14) 0.03652(14)
C102_4 C 0.82607(15) 0.45410(15) 0.03713(15)
H45_4 H 0.8210 0.4664 0.0534
C103_4 C 0.80620(11) 0.45022(16) 0.01393(18)
C106_4 C 0.86086(10) 0.42189(13) 0.01273(15)
H47_4 H 0.8795 0.4122 0.0123
C107_4 C 0.7781(4) 0.4675(5) 0.0137(4)
N23_4 N 0.9086(2) 0.4447(2) 0.09381(19)
N24_4 N 0.87083(19) 0.4450(2) 0.0592(2)
H48_4 H 0.8655 0.4607 0.0695
Zn9_4 Zn 0.87450(4) 0.39710(4) 0.33911(4)
Zn13_4 Zn 0.7500 0.2500 0.51745(3)
Zn15_9 Zn 1.0000 0.5000 0.73255(3)
Zn18_4 Zn 0.66089(4) 0.12550(4) 0.39710(4)
Zn19_4 Zn 0.89710(4) 0.66089(4) 0.62550(4)
Zn21_4 Zn 0.83911(4) 0.37450(4) 0.39710(4)
Zn26_4 Zn 0.87550(4) 0.58911(4) 0.14710(4)
O52_4 O 0.8741(2) 0.56950(18) 0.63156(19)
O53_4 O 0.8741(2) 0.43050(18) 0.36844(19)
O54_4 O 0.8968(2) 0.3330(2) 0.4173(2)
O56_4 O 0.96710(19) 0.70697(16) 0.51142(19)
O60_4 O 0.9632(3) 0.7734(2) 0.5154(2)
O63_4 O 0.9955(3) 0.76042(18) 0.4661(3)
O70_4 O 0.84902(19) 0.58307(17) 0.69113(19)
O72_4 O 0.84902(19) 0.41693(17) 0.30887(19)
O73_4 O 0.86181(14) 0.63819(14) 0.63819(14)
C104_4 C 0.81366(12) 0.43217(16) 0.99013(15)
H46_4 H 0.8001 0.4295 0.9743
C105_4 C 0.84099(12) 0.41800(14) 0.98953(12)
C108_4 C 0.8502(2) 0.3995(2) 0.9646(3)
O49_4 O 0.83307(17) 0.40098(19) 0.94113(19)
O50_4 O 0.87388(19) 0.3844(2) 0.96366(18)
Zn25_4 Zn 0.85290(4) 0.37550(4) 0.91089(4)
Zn16_4 Zn 0.7500 0.98255(3) 0.2500
C75_5 C 0.01397(15) 0.60937(14) 0.37368(13)
H33_5 H 0.0193 0.6232 0.3886
C76_5 C 0.03464(12) 0.60068(16) 0.35259(15)
C77_5 C 0.02680(14) 0.58038(17) 0.33080(14)
H34_5 H 0.0409 0.5744 0.3164
C80_5 C 0.0638(3) 0.6138(3) 0.3524(3)
O36_5 O 0.0827(2) 0.6032(2) 0.3330(2)
C82_5 C 0.3956(2) 0.4314(2) 0.5707(3)
C83_5 C 0.35340(13) 0.43994(14) 0.53652(14)
C84_5 C 0.32607(15) 0.45410(15) 0.53713(15)
H37_5 H 0.3210 0.4664 0.5534
C85_5 C 0.30620(11) 0.45022(16) 0.51393(18)
C86_5 C 0.31366(12) 0.43217(16) 0.49013(15)
H38_5 H 0.3001 0.4295 0.4743
C87_5 C 0.34099(12) 0.41800(14) 0.48953(12)
C88_5 C 0.36086(10) 0.42189(13) 0.51273(15)
H39_5 H 0.3795 0.4122 0.5123
C89_5 C 0.2781(4) 0.4675(5) 0.5137(4)
C90_5 C 0.3502(2) 0.3995(2) 0.4646(3)
N19_5 N 0.4086(2) 0.4447(2) 0.59381(19)
N20_5 N 0.37083(19) 0.4450(2) 0.5592(2)
H40_5 H 0.3655 0.4607 0.5695
O41_5 O 0.33307(17) 0.40098(19) 0.44113(19)
O42_5 O 0.37388(19) 0.3844(2) 0.46366(18)
C91_5 C 0.4314(2) 0.4293(3) 0.6044(2)
C92_5 C 0.43994(14) 0.46348(14) 0.64660(13)
C93_5 C 0.45410(15) 0.46287(15) 0.67393(15)
H41_5 H 0.4664 0.4466 0.6790
C94_5 C 0.45022(16) 0.48607(18) 0.69380(11)
C95_5 C 0.43217(16) 0.50987(15) 0.68634(12)
H42_5 H 0.4295 0.5257 0.6999
C96_5 C 0.41800(14) 0.51047(12) 0.65901(12)
C97_5 C 0.42189(13) 0.48727(15) 0.63914(10)
H43_5 H 0.4122 0.4877 0.6205
C98_5 C 0.4675(5) 0.4863(4) 0.7219(4)
C99_5 C 0.3995(2) 0.5354(3) 0.6498(2)
N21_5 N 0.4447(2) 0.40619(19) 0.5914(2)
N22_5 N 0.4450(2) 0.4408(2) 0.62917(19)
H44_5 H 0.4607 0.4305 0.6345
O43_5 O 0.4846(2) 0.4632(3) 0.7266(2)
O44_5 O 0.4661(3) 0.5045(3) 0.73958(18)
O45_5 O 0.40098(19) 0.55887(19) 0.66693(17)
O46_5 O 0.3844(2) 0.53634(18) 0.62612(19)
C100_5 C 0.4293(3) 0.3956(2) 0.5686(2)
C101_5 C 0.46348(14) 0.35340(13) 0.56006(14)
C102_5 C 0.46287(15) 0.32607(15) 0.54590(15)
H45_5 H 0.4466 0.3210 0.5336
C103_5 C 0.48607(18) 0.30620(11) 0.54978(16)
C104_5 C 0.50987(15) 0.31366(12) 0.56783(16)
H46_5 H 0.5257 0.3001 0.5705
C105_5 C 0.51047(12) 0.34099(12) 0.58200(14)
C106_5 C 0.48727(15) 0.36086(10) 0.57811(13)
H47_5 H 0.4877 0.3795 0.5878
C107_5 C 0.4863(4) 0.2781(4) 0.5325(5)
C108_5 C 0.5354(3) 0.3502(2) 0.6005(2)
N23_5 N 0.40619(19) 0.4086(2) 0.5553(2)
N24_5 N 0.4408(2) 0.37083(19) 0.5550(2)
H48_5 H 0.4305 0.3655 0.5393
O49_5 O 0.55887(19) 0.33307(17) 0.59902(19)
O50_5 O 0.53634(18) 0.37388(19) 0.6156(2)
Zn24_5 Zn 0.37550(4) 0.58911(4) 0.64710(4)
Zn25_5 Zn 0.58911(4) 0.35290(4) 0.62450(4)
Zn26_5 Zn 0.35290(4) 0.37550(4) 0.41089(4)
O69_5 O 0.15098(19) 0.58307(17) 0.30887(19)
C55_5 C 0.9063(2) 0.5935(2) 0.4411(3)
C56_5 C 0.90224(15) 0.62700(14) 0.48546(13)
C57_5 C 0.89063(14) 0.62632(13) 0.51397(15)
H25_5 H 0.8768 0.6114 0.5193
C58_5 C 0.89932(16) 0.64741(15) 0.53464(12)
C59_5 C 0.91962(17) 0.66920(14) 0.52680(14)
H26_5 H 0.9256 0.6836 0.5409
C60_5 C 0.93123(15) 0.66988(13) 0.49830(16)
C61_5 C 0.92254(15) 0.64879(14) 0.47762(11)
H27_5 H 0.9305 0.6493 0.4581
C62_5 C 0.8862(3) 0.6476(3) 0.5638(3)
C63_5 C 0.9536(3) 0.6912(2) 0.4883(3)
N13_5 N 0.89393(17) 0.5686(2) 0.4304(2)
N14_5 N 0.8935(2) 0.6038(2) 0.46688(19)
H28_5 H 0.8774 0.5944 0.4725
O26_5 O 0.86844(19) 0.6259(2) 0.56950(18)
O27_5 O 0.8968(2) 0.6670(2) 0.5827(2)
O29_5 O 0.9615(2) 0.69405(16) 0.4646(2)
C64_5 C 0.9065(2) 0.5589(3) 0.4063(2)
C65_5 C 0.87300(14) 0.51454(13) 0.40224(15)
C66_5 C 0.87368(13) 0.48603(15) 0.39063(14)
H29_5 H 0.8886 0.4807 0.3768
C67_5 C 0.85259(15) 0.46536(12) 0.39932(16)
C68_5 C 0.83080(14) 0.47320(14) 0.41962(17)
H30_5 H 0.8164 0.4591 0.4256
C69_5 C 0.83012(13) 0.50170(16) 0.43123(15)
C70_5 C 0.85121(14) 0.52238(11) 0.42254(15)
H31_5 H 0.8507 0.5419 0.4305
C71_5 C 0.8524(3) 0.4362(3) 0.3862(3)
C72_5 C 0.8088(2) 0.5117(3) 0.4536(3)
N15_5 N 0.9314(2) 0.5696(2) 0.39393(17)
N16_5 N 0.8962(2) 0.53312(19) 0.3935(2)
H32_5 H 0.9056 0.5275 0.3774
O32_5 O 0.8330(2) 0.4173(2) 0.3968(2)
O33_5 O 0.79303(16) 0.48858(19) 0.46710(19)
O34_5 O 0.80595(16) 0.5354(2) 0.4615(2)
C73_5 C 0.9411(3) 0.5937(2) 0.4065(2)
C74_5 C 0.98546(13) 0.59776(15) 0.37300(14)
C78_5 C 0.99830(16) 0.56877(15) 0.33012(13)
C79_5 C 0.97762(11) 0.57746(15) 0.35121(14)
H35_5 H 0.9581 0.5695 0.3507
C81_5 C 0.9883(3) 0.5464(3) 0.3088(2)
N17_5 N 0.9304(2) 0.60607(17) 0.4314(2)
N18_5 N 0.96688(19) 0.6065(2) 0.3962(2)
H36_5 H 0.9725 0.6226 0.4056
O38_5 O 0.9646(2) 0.5385(2) 0.30595(16)
Zn15_10 Zn 0.76745(3) 0.5000 0.5000
O52_5 O 0.86844(19) 0.3741(2) 0.43050(18)
O55_5 O 0.8330(2) 0.5827(2) 0.6032(2)
O70_5 O 0.80887(19) 0.34902(19) 0.41693(17)
O71_5 O 0.91693(17) 0.69113(19) 0.65098(19)
C104_6 C 0.00987(15) 0.68634(12) 0.93217(16)
H46_6 H 0.0257 0.6999 0.9295
C105_6 C 0.01047(12) 0.65901(12) 0.91800(14)
C108_6 C 0.0354(3) 0.6498(2) 0.8995(2)
O49_6 O 0.05887(19) 0.66693(17) 0.90098(19)
O50_6 O 0.03634(18) 0.62612(19) 0.8844(2)
Zn25_6 Zn 0.08911(4) 0.64710(4) 0.87550(4)
C55_6 C 0.4063(2) 0.4065(2) 0.0589(3)
C56_6 C 0.40224(15) 0.37300(14) 0.01454(13)
C60_6 C 0.43123(15) 0.33012(13) 0.00170(16)
C61_6 C 0.42254(15) 0.35121(14) 0.02238(11)
H27_6 H 0.4305 0.3507 0.0419
C63_6 C 0.4536(3) 0.3088(2) 0.0117(3)
N13_6 N 0.39393(17) 0.4314(2) 0.0696(2)
N14_6 N 0.3935(2) 0.3962(2) 0.03312(19)
H28_6 H 0.3774 0.4056 0.0275
O29_6 O 0.4615(2) 0.30595(16) 0.0354(2)
C64_6 C 0.4065(2) 0.4411(3) 0.0937(2)
C65_6 C 0.37300(14) 0.48546(13) 0.09776(15)
C66_6 C 0.37368(13) 0.51397(15) 0.10937(14)
H29_6 H 0.3886 0.5193 0.1232
C67_6 C 0.35259(15) 0.53464(12) 0.10068(16)
C68_6 C 0.33080(14) 0.52680(14) 0.08038(17)
H30_6 H 0.3164 0.5409 0.0744
C69_6 C 0.33012(13) 0.49830(16) 0.06877(15)
C70_6 C 0.35121(14) 0.47762(11) 0.07746(15)
H31_6 H 0.3507 0.4581 0.0695
C71_6 C 0.3524(3) 0.5638(3) 0.1138(3)
C72_6 C 0.3088(2) 0.4883(3) 0.0464(3)
N15_6 N 0.4314(2) 0.4304(2) 0.10607(17)
N16_6 N 0.3962(2) 0.46688(19) 0.1065(2)
H32_6 H 0.4056 0.4725 0.1226
O32_6 O 0.3330(2) 0.5827(2) 0.1032(2)
O33_6 O 0.29303(16) 0.51142(19) 0.03290(19)
O34_6 O 0.30595(16) 0.4646(2) 0.0385(2)
C73_6 C 0.4411(3) 0.4063(2) 0.0935(2)
C74_6 C 0.48546(13) 0.40224(15) 0.12700(14)
C75_6 C 0.51397(15) 0.39063(14) 0.12632(13)
H33_6 H 0.5193 0.3768 0.1114
C76_6 C 0.53464(12) 0.39932(16) 0.14741(15)
C77_6 C 0.52680(14) 0.41962(17) 0.16920(14)
H34_6 H 0.5409 0.4256 0.1836
C78_6 C 0.49830(16) 0.43123(15) 0.16988(13)
C79_6 C 0.47762(11) 0.42254(15) 0.14879(14)
H35_6 H 0.4581 0.4305 0.1493
C80_6 C 0.5638(3) 0.3862(3) 0.1476(3)
C81_6 C 0.4883(3) 0.4536(3) 0.1912(2)
N17_6 N 0.4304(2) 0.39393(17) 0.0686(2)
N18_6 N 0.46688(19) 0.3935(2) 0.1038(2)
H36_6 H 0.4725 0.3774 0.0944
O36_6 O 0.5827(2) 0.3968(2) 0.1670(2)
O38_6 O 0.4646(2) 0.4615(2) 0.19405(16)
C86_6 C 0.81366(12) 0.56783(16) 0.00987(15)
H38_6 H 0.8001 0.5705 0.0257
C87_6 C 0.84099(12) 0.58200(14) 0.01047(12)
C90_6 C 0.8502(2) 0.6005(2) 0.0354(3)
O41_6 O 0.83307(17) 0.59902(19) 0.05887(19)
O42_6 O 0.87388(19) 0.6156(2) 0.03634(18)
Zn15_11 Zn 0.26745(3) 0.5000 0.0000
Zn26_6 Zn 0.85290(4) 0.62450(4) 0.08911(4)
O52_6 O 0.36844(19) 0.6259(2) 0.06950(18)
O69_6 O 0.65098(19) 0.41693(17) 0.19113(19)
O70_6 O 0.30887(19) 0.65098(19) 0.08307(17)
C57_6 C 0.39063(14) 0.37368(13) 0.98603(15)
H25_6 H 0.3768 0.3886 0.9807
C58_6 C 0.39932(16) 0.35259(15) 0.96536(12)
C59_6 C 0.41962(17) 0.33080(14) 0.97320(14)
H26_6 H 0.4256 0.3164 0.9591
C62_6 C 0.3862(3) 0.3524(3) 0.9362(3)
O26_6 O 0.36844(19) 0.3741(2) 0.93050(18)
O27_6 O 0.3968(2) 0.3330(2) 0.9173(2)
C82_6 C 0.8956(2) 0.5686(2) 0.9293(3)
C83_6 C 0.85340(13) 0.56006(14) 0.96348(14)
C84_6 C 0.82607(15) 0.54590(15) 0.96287(15)
H37_6 H 0.8210 0.5336 0.9466
C85_6 C 0.80620(11) 0.54978(16) 0.98607(18)
C88_6 C 0.86086(10) 0.57811(13) 0.98727(15)
H39_6 H 0.8795 0.5878 0.9877
C89_6 C 0.7781(4) 0.5325(5) 0.9863(4)
N19_6 N 0.9086(2) 0.5553(2) 0.90619(19)
N20_6 N 0.87083(19) 0.5550(2) 0.9408(2)
H40_6 H 0.8655 0.5393 0.9305
C91_6 C 0.9314(2) 0.5707(3) 0.8956(2)
C92_6 C 0.93994(14) 0.53652(14) 0.85340(13)
C93_6 C 0.95410(15) 0.53713(15) 0.82607(15)
H41_6 H 0.9664 0.5534 0.8210
C94_6 C 0.95022(16) 0.51393(18) 0.80620(11)
C95_6 C 0.93217(16) 0.49013(15) 0.81366(12)
H42_6 H 0.9295 0.4743 0.8001
C96_6 C 0.91800(14) 0.48953(12) 0.84099(12)
C97_6 C 0.92189(13) 0.51273(15) 0.86086(10)
H43_6 H 0.9122 0.5123 0.8795
C98_6 C 0.9675(5) 0.5137(4) 0.7781(4)
C99_6 C 0.8995(2) 0.4646(3) 0.8502(2)
N21_6 N 0.9447(2) 0.59381(19) 0.9086(2)
N22_6 N 0.9450(2) 0.5592(2) 0.87083(19)
H44_6 H 0.9607 0.5695 0.8655
O43_6 O 0.9846(2) 0.5368(3) 0.7734(2)
O44_6 O 0.9661(3) 0.4955(3) 0.76042(18)
O45_6 O 0.90098(19) 0.44113(19) 0.83307(17)
O46_6 O 0.8844(2) 0.46366(18) 0.87388(19)
C100_6 C 0.9293(3) 0.6044(2) 0.9314(2)
C101_6 C 0.96348(14) 0.64660(13) 0.93994(14)
C102_6 C 0.96287(15) 0.67393(15) 0.95410(15)
H45_6 H 0.9466 0.6790 0.9664
C103_6 C 0.98607(18) 0.69380(11) 0.95022(16)
C106_6 C 0.98727(15) 0.63914(10) 0.92189(13)
H47_6 H 0.9877 0.6205 0.9122
C107_6 C 0.9863(4) 0.7219(4) 0.9675(5)
N23_6 N 0.90619(19) 0.5914(2) 0.9447(2)
N24_6 N 0.9408(2) 0.62917(19) 0.9450(2)
H48_6 H 0.9305 0.6345 0.9607
Zn15_12 Zn 0.26745(3) 0.5000 1.0000
Zn24_6 Zn 0.87550(4) 0.41089(4) 0.85290(4)
O55_6 O 0.3330(2) 0.4173(2) 0.8968(2)
O71_6 O 0.41693(17) 0.30887(19) 0.84902(19)
Zn15_13 Zn 0.23255(3) 0.0000 -0.0000
C66_7 C 0.12632(13) 0.01397(15) 0.89063(14)
H29_7 H 0.1114 0.0193 0.8768
C67_7 C 0.14741(15) 0.03464(12) 0.89932(16)
C68_7 C 0.16920(14) 0.02680(14) 0.91962(17)
H30_7 H 0.1836 0.0409 0.9256
C71_7 C 0.1476(3) 0.0638(3) 0.8862(3)
O32_7 O 0.1670(2) 0.0827(2) 0.8968(2)
O33_7 O 0.20697(16) 0.01142(19) 0.96710(19)
Zn15_14 Zn 0.23255(3) 0.0000 1.0000
O52_7 O 0.13156(19) 0.1259(2) 0.93050(18)
O70_7 O 0.19113(19) 0.15098(19) 0.91693(17)
C57_7 C 0.10937(14) 0.87368(13) 0.01397(15)
H25_7 H 0.1232 0.8886 0.0193
C58_7 C 0.10068(16) 0.85259(15) 0.03464(12)
C59_7 C 0.08038(17) 0.83080(14) 0.02680(14)
H26_7 H 0.0744 0.8164 0.0409
C62_7 C 0.1138(3) 0.8524(3) 0.0638(3)
O26_7 O 0.13156(19) 0.8741(2) 0.06950(18)
O27_7 O 0.1032(2) 0.8330(2) 0.0827(2)
Zn15_15 Zn 0.23255(3) 1.0000 -0.0000
O55_7 O 0.1670(2) 0.9173(2) 0.1032(2)
O71_7 O 0.08307(17) 0.80887(19) 0.15098(19)
C55_7 C 0.0937(2) 0.9065(2) 0.9411(3)
C56_7 C 0.09776(15) 0.87300(14) 0.98546(13)
C60_7 C 0.06877(15) 0.83012(13) 0.99830(16)
C61_7 C 0.07746(15) 0.85121(14) 0.97762(11)
H27_7 H 0.0695 0.8507 0.9581
C63_7 C 0.0464(3) 0.8088(2) 0.9883(3)
N13_7 N 0.10607(17) 0.9314(2) 0.9304(2)
N14_7 N 0.1065(2) 0.8962(2) 0.96688(19)
H28_7 H 0.1226 0.9056 0.9725
O29_7 O 0.0385(2) 0.80595(16) 0.9646(2)
C64_7 C 0.0935(2) 0.9411(3) 0.9063(2)
C65_7 C 0.12700(14) 0.98546(13) 0.90224(15)
C69_7 C 0.16988(13) 0.99830(16) 0.93123(15)
C70_7 C 0.14879(14) 0.97762(11) 0.92254(15)
H31_7 H 0.1493 0.9581 0.9305
C72_7 C 0.1912(2) 0.9883(3) 0.9536(3)
N15_7 N 0.0686(2) 0.9304(2) 0.89393(17)
N16_7 N 0.1038(2) 0.96688(19) 0.8935(2)
H32_7 H 0.0944 0.9725 0.8774
O34_7 O 0.19405(16) 0.9646(2) 0.9615(2)
C73_7 C 0.0589(3) 0.9063(2) 0.9065(2)
C74_7 C 0.01454(13) 0.90224(15) 0.87300(14)
C78_7 C 0.00170(16) 0.93123(15) 0.83012(13)
C79_7 C 0.02238(11) 0.92254(15) 0.85121(14)
H35_7 H 0.0419 0.9305 0.8507
C81_7 C 0.0117(3) 0.9536(3) 0.8088(2)
N17_7 N 0.0696(2) 0.89393(17) 0.9314(2)
N18_7 N 0.03312(19) 0.8935(2) 0.8962(2)
H36_7 H 0.0275 0.8774 0.9056
O38_7 O 0.0354(2) 0.9615(2) 0.80595(16)
Zn15_16 Zn 0.23255(3) 1.0000 1.0000
C82_7 C 0.6044(2) 0.0686(2) 0.0707(3)
C83_7 C 0.64660(13) 0.06006(14) 0.03652(14)
C84_7 C 0.67393(15) 0.04590(15) 0.03713(15)
H37_7 H 0.6790 0.0336 0.0534
C85_7 C 0.69380(11) 0.04978(16) 0.01393(18)
C88_7 C 0.63914(10) 0.07811(13) 0.01273(15)
H39_7 H 0.6205 0.0878 0.0123
C89_7 C 0.7219(4) 0.0325(5) 0.0137(4)
N19_7 N 0.5914(2) 0.0553(2) 0.09381(19)
N20_7 N 0.62917(19) 0.0550(2) 0.0592(2)
H40_7 H 0.6345 0.0393 0.0695
C91_7 C 0.5686(2) 0.0707(3) 0.1044(2)
C92_7 C 0.56006(14) 0.03652(14) 0.14660(13)
C93_7 C 0.54590(15) 0.03713(15) 0.17393(15)
H41_7 H 0.5336 0.0534 0.1790
C94_7 C 0.54978(16) 0.01393(18) 0.19380(11)
C97_7 C 0.57811(13) 0.01273(15) 0.13914(10)
H43_7 H 0.5878 0.0123 0.1205
C98_7 C 0.5325(5) 0.0137(4) 0.2219(4)
N21_7 N 0.5553(2) 0.09381(19) 0.0914(2)
N22_7 N 0.5550(2) 0.0592(2) 0.12917(19)
H44_7 H 0.5393 0.0695 0.1345
O43_7 O 0.5154(2) 0.0368(3) 0.2266(2)
C100_7 C 0.5707(3) 0.1044(2) 0.0686(2)
C101_7 C 0.53652(14) 0.14660(13) 0.06006(14)
C102_7 C 0.53713(15) 0.17393(15) 0.04590(15)
H45_7 H 0.5534 0.1790 0.0336
C103_7 C 0.51393(18) 0.19380(11) 0.04978(16)
C104_7 C 0.49013(15) 0.18634(12) 0.06783(16)
H46_7 H 0.4743 0.1999 0.0705
C105_7 C 0.48953(12) 0.15901(12) 0.08200(14)
C106_7 C 0.51273(15) 0.13914(10) 0.07811(13)
H47_7 H 0.5123 0.1205 0.0878
C107_7 C 0.5137(4) 0.2219(4) 0.0325(5)
C108_7 C 0.4646(3) 0.1498(2) 0.1005(2)
N23_7 N 0.59381(19) 0.0914(2) 0.0553(2)
N24_7 N 0.5592(2) 0.12917(19) 0.0550(2)
H48_7 H 0.5695 0.1345 0.0393
O49_7 O 0.44113(19) 0.16693(17) 0.09902(19)
O50_7 O 0.46366(18) 0.12612(19) 0.1156(2)
Zn25_7 Zn 0.41089(4) 0.14710(4) 0.12450(4)
C86_7 C 0.68634(12) 0.06783(16) 0.99013(15)
H38_7 H 0.6999 0.0705 0.9743
C87_7 C 0.65901(12) 0.08200(14) 0.98953(12)
C90_7 C 0.6498(2) 0.1005(2) 0.9646(3)
O41_7 O 0.66693(17) 0.09902(19) 0.94113(19)
O42_7 O 0.62612(19) 0.1156(2) 0.96366(18)
Zn26_7 Zn 0.64710(4) 0.12450(4) 0.91089(4)
C95_7 C 0.56783(16) 0.99013(15) 0.18634(12)
H42_7 H 0.5705 0.9743 0.1999
C96_7 C 0.58200(14) 0.98953(12) 0.15901(12)
C99_7 C 0.6005(2) 0.9646(3) 0.1498(2)
O44_7 O 0.5339(3) 0.9955(3) 0.23958(18)
O45_7 O 0.59902(19) 0.94113(19) 0.16693(17)
O46_7 O 0.6156(2) 0.96366(18) 0.12612(19)
Zn24_7 Zn 0.62450(4) 0.91089(4) 0.14710(4)
C75_7 C 0.98603(15) 0.89063(14) 0.87368(13)
H33_7 H 0.9807 0.8768 0.8886
C76_7 C 0.96536(12) 0.89932(16) 0.85259(15)
C77_7 C 0.97320(14) 0.91962(17) 0.83080(14)
H34_7 H 0.9591 0.9256 0.8164
C80_7 C 0.9362(3) 0.8862(3) 0.8524(3)
O36_7 O 0.9173(2) 0.8968(2) 0.8330(2)
O69_7 O 0.84902(19) 0.91693(17) 0.80887(19)
C55_8 C 0.5937(2) 0.0935(2) 0.5589(3)
C56_8 C 0.59776(15) 0.12700(14) 0.51454(13)
C57_8 C 0.60937(14) 0.12632(13) 0.48603(15)
H25_8 H 0.6232 0.1114 0.4807
C58_8 C 0.60068(16) 0.14741(15) 0.46536(12)
C59_8 C 0.58038(17) 0.16920(14) 0.47320(14)
H26_8 H 0.5744 0.1836 0.4591
C60_8 C 0.56877(15) 0.16988(13) 0.50170(16)
C61_8 C 0.57746(15) 0.14879(14) 0.52238(11)
H27_8 H 0.5695 0.1493 0.5419
C62_8 C 0.6138(3) 0.1476(3) 0.4362(3)
C63_8 C 0.5464(3) 0.1912(2) 0.5117(3)
N13_8 N 0.60607(17) 0.0686(2) 0.5696(2)
N14_8 N 0.6065(2) 0.1038(2) 0.53312(19)
H28_8 H 0.6226 0.0944 0.5275
O26_8 O 0.63156(19) 0.1259(2) 0.43050(18)
O27_8 O 0.6032(2) 0.1670(2) 0.4173(2)
O29_8 O 0.5385(2) 0.19405(16) 0.5354(2)
C64_8 C 0.5935(2) 0.0589(3) 0.5937(2)
C65_8 C 0.62700(14) 0.01454(13) 0.59776(15)
C69_8 C 0.66988(13) 0.00170(16) 0.56877(15)
C70_8 C 0.64879(14) 0.02238(11) 0.57746(15)
H31_8 H 0.6493 0.0419 0.5695
C72_8 C 0.6912(2) 0.0117(3) 0.5464(3)
N15_8 N 0.5686(2) 0.0696(2) 0.60607(17)
N16_8 N 0.6038(2) 0.03312(19) 0.6065(2)
H32_8 H 0.5944 0.0275 0.6226
O34_8 O 0.69405(16) 0.0354(2) 0.5385(2)
C73_8 C 0.5589(3) 0.0937(2) 0.5935(2)
C74_8 C 0.51454(13) 0.09776(15) 0.62700(14)
C75_8 C 0.48603(15) 0.10937(14) 0.62632(13)
H33_8 H 0.4807 0.1232 0.6114
C76_8 C 0.46536(12) 0.10068(16) 0.64741(15)
C77_8 C 0.47320(14) 0.08038(17) 0.66920(14)
H34_8 H 0.4591 0.0744 0.6836
C78_8 C 0.50170(16) 0.06877(15) 0.66988(13)
C79_8 C 0.52238(11) 0.07746(15) 0.64879(14)
H35_8 H 0.5419 0.0695 0.6493
C80_8 C 0.4362(3) 0.1138(3) 0.6476(3)
C81_8 C 0.5117(3) 0.0464(3) 0.6912(2)
N17_8 N 0.5696(2) 0.10607(17) 0.5686(2)
N18_8 N 0.53312(19) 0.1065(2) 0.6038(2)
H36_8 H 0.5275 0.1226 0.5944
O36_8 O 0.4173(2) 0.1032(2) 0.6670(2)
O38_8 O 0.5354(2) 0.0385(2) 0.69405(16)
C95_8 C 0.06783(16) 0.00987(15) 0.31366(12)
H42_8 H 0.0705 0.0257 0.3001
C96_8 C 0.08200(14) 0.01047(12) 0.34099(12)
C99_8 C 0.1005(2) 0.0354(3) 0.3502(2)
O44_8 O 0.0339(3) 0.0045(3) 0.26042(18)
O45_8 O 0.09902(19) 0.05887(19) 0.33307(17)
O46_8 O 0.1156(2) 0.03634(18) 0.37388(19)
Zn15_17 Zn 0.73255(3) -0.0000 0.5000
Zn24_8 Zn 0.12450(4) 0.08911(4) 0.35290(4)
O55_8 O 0.6670(2) 0.0827(2) 0.3968(2)
O69_8 O 0.34902(19) 0.08307(17) 0.69113(19)
O71_8 O 0.58307(17) 0.19113(19) 0.34902(19)
C66_8 C 0.62632(13) 0.98603(15) 0.60937(14)
H29_8 H 0.6114 0.9807 0.6232
C67_8 C 0.64741(15) 0.96536(12) 0.60068(16)
C68_8 C 0.66920(14) 0.97320(14) 0.58038(17)
H30_8 H 0.6836 0.9591 0.5744
C71_8 C 0.6476(3) 0.9362(3) 0.6138(3)
O32_8 O 0.6670(2) 0.9173(2) 0.6032(2)
O33_8 O 0.70697(16) 0.98858(19) 0.53290(19)
C82_8 C 0.1044(2) 0.9314(2) 0.4293(3)
C83_8 C 0.14660(13) 0.93994(14) 0.46348(14)
C84_8 C 0.17393(15) 0.95410(15) 0.46287(15)
H37_8 H 0.1790 0.9664 0.4466
C85_8 C 0.19380(11) 0.95022(16) 0.48607(18)
C86_8 C 0.18634(12) 0.93217(16) 0.50987(15)
H38_8 H 0.1999 0.9295 0.5257
C87_8 C 0.15901(12) 0.91800(14) 0.51047(12)
C88_8 C 0.13914(10) 0.92189(13) 0.48727(15)
H39_8 H 0.1205 0.9122 0.4877
C89_8 C 0.2219(4) 0.9675(5) 0.4863(4)
C90_8 C 0.1498(2) 0.8995(2) 0.5354(3)
N19_8 N 0.0914(2) 0.9447(2) 0.40619(19)
N20_8 N 0.12917(19) 0.9450(2) 0.4408(2)
H40_8 H 0.1345 0.9607 0.4305
O41_8 O 0.16693(17) 0.90098(19) 0.55887(19)
O42_8 O 0.12612(19) 0.8844(2) 0.53634(18)
C91_8 C 0.0686(2) 0.9293(3) 0.3956(2)
C92_8 C 0.06006(14) 0.96348(14) 0.35340(13)
C93_8 C 0.04590(15) 0.96287(15) 0.32607(15)
H41_8 H 0.0336 0.9466 0.3210
C94_8 C 0.04978(16) 0.98607(18) 0.30620(11)
C97_8 C 0.07811(13) 0.98727(15) 0.36086(10)
H43_8 H 0.0878 0.9877 0.3795
C98_8 C 0.0325(5) 0.9863(4) 0.2781(4)
N21_8 N 0.0553(2) 0.90619(19) 0.4086(2)
N22_8 N 0.0550(2) 0.9408(2) 0.37083(19)
H44_8 H 0.0393 0.9305 0.3655
O43_8 O 0.0154(2) 0.9632(3) 0.2734(2)
C100_8 C 0.0707(3) 0.8956(2) 0.4314(2)
C101_8 C 0.03652(14) 0.85340(13) 0.43994(14)
C102_8 C 0.03713(15) 0.82607(15) 0.45410(15)
H45_8 H 0.0534 0.8210 0.4664
C103_8 C 0.01393(18) 0.80620(11) 0.45022(16)
C106_8 C 0.01273(15) 0.86086(10) 0.42189(13)
H47_8 H 0.0123 0.8795 0.4122
C107_8 C 0.0137(4) 0.7781(4) 0.4675(5)
N23_8 N 0.09381(19) 0.9086(2) 0.4447(2)
N24_8 N 0.0592(2) 0.87083(19) 0.4450(2)
H48_8 H 0.0695 0.8655 0.4607
Zn15_18 Zn 0.73255(3) 1.0000 0.5000
Zn26_8 Zn 0.14710(4) 0.87550(4) 0.58911(4)
O52_8 O 0.63156(19) 0.8741(2) 0.56950(18)
O70_8 O 0.69113(19) 0.84902(19) 0.58307(17)
C104_8 C 0.99013(15) 0.81366(12) 0.43217(16)
H46_8 H 0.9743 0.8001 0.4295
C105_8 C 0.98953(12) 0.84099(12) 0.41800(14)
C108_8 C 0.9646(3) 0.8502(2) 0.3995(2)
O49_8 O 0.94113(19) 0.83307(17) 0.40098(19)
O50_8 O 0.96366(18) 0.87388(19) 0.3844(2)
Zn25_8 Zn 0.91089(4) 0.85290(4) 0.37550(4)
C82_9 C 0.5707(3) 0.3956(2) 0.4314(2)
C83_9 C 0.53652(14) 0.35340(13) 0.43994(14)
C84_9 C 0.53713(15) 0.32607(15) 0.45410(15)
H37_9 H 0.5534 0.3210 0.4664
C85_9 C 0.51393(18) 0.30620(11) 0.45022(16)
C86_9 C 0.49013(15) 0.31366(12) 0.43217(16)
H38_9 H 0.4743 0.3001 0.4295
C87_9 C 0.48953(12) 0.34099(12) 0.41800(14)
C88_9 C 0.51273(15) 0.36086(10) 0.42189(13)
H39_9 H 0.5123 0.3795 0.4122
C89_9 C 0.5137(4) 0.2781(4) 0.4675(5)
C90_9 C 0.4646(3) 0.3502(2) 0.3995(2)
N19_9 N 0.59381(19) 0.4086(2) 0.4447(2)
N20_9 N 0.5592(2) 0.37083(19) 0.4450(2)
H40_9 H 0.5695 0.3655 0.4607
O41_9 O 0.44113(19) 0.33307(17) 0.40098(19)
O42_9 O 0.46366(18) 0.37388(19) 0.3844(2)
C91_9 C 0.6044(2) 0.4314(2) 0.4293(3)
C92_9 C 0.64660(13) 0.43994(14) 0.46348(14)
C93_9 C 0.67393(15) 0.45410(15) 0.46287(15)
H41_9 H 0.6790 0.4664 0.4466
C94_9 C 0.69380(11) 0.45022(16) 0.48607(18)
C95_9 C 0.68634(12) 0.43217(16) 0.50987(15)
H42_9 H 0.6999 0.4295 0.5257
C96_9 C 0.65901(12) 0.41800(14) 0.51047(12)
C97_9 C 0.63914(10) 0.42189(13) 0.48727(15)
H43_9 H 0.6205 0.4122 0.4877
C98_9 C 0.7219(4) 0.4675(5) 0.4863(4)
C99_9 C 0.6498(2) 0.3995(2) 0.5354(3)
N21_9 N 0.5914(2) 0.4447(2) 0.40619(19)
N22_9 N 0.62917(19) 0.4450(2) 0.4408(2)
H44_9 H 0.6345 0.4607 0.4305
O43_9 O 0.7266(2) 0.4846(2) 0.4632(3)
O44_9 O 0.73958(18) 0.4661(3) 0.5045(3)
O45_9 O 0.66693(17) 0.40098(19) 0.55887(19)
O46_9 O 0.62612(19) 0.3844(2) 0.53634(18)
C100_9 C 0.5686(2) 0.4293(3) 0.3956(2)
C101_9 C 0.56006(14) 0.46348(14) 0.35340(13)
C102_9 C 0.54590(15) 0.46287(15) 0.32607(15)
H45_9 H 0.5336 0.4466 0.3210
C103_9 C 0.54978(16) 0.48607(18) 0.30620(11)
C104_9 C 0.56783(16) 0.50987(15) 0.31366(12)
H46_9 H 0.5705 0.5257 0.3001
C105_9 C 0.58200(14) 0.51047(12) 0.34099(12)
C106_9 C 0.57811(13) 0.48727(15) 0.36086(10)
H47_9 H 0.5878 0.4877 0.3795
C107_9 C 0.5325(5) 0.4863(4) 0.2781(4)
C108_9 C 0.6005(2) 0.5354(3) 0.3502(2)
N23_9 N 0.5553(2) 0.40619(19) 0.4086(2)
N24_9 N 0.5550(2) 0.4408(2) 0.37083(19)
H48_9 H 0.5393 0.4305 0.3655
O49_9 O 0.59902(19) 0.55887(19) 0.33307(17)
O50_9 O 0.6156(2) 0.53634(18) 0.37388(19)
Zn24_9 Zn 0.64710(4) 0.37550(4) 0.58911(4)
Zn25_9 Zn 0.62450(4) 0.58911(4) 0.35290(4)
Zn26_9 Zn 0.41089(4) 0.35290(4) 0.37550(4)
O69_9 O 0.30887(19) 0.15098(19) 0.58307(17)
O52_9 O 0.43050(18) 0.86844(19) 0.3741(2)
O70_9 O 0.41693(17) 0.80887(19) 0.34902(19)
C86_10 C 0.00987(15) 0.81366(12) 0.56783(16)
H38_10 H 0.0257 0.8001 0.5705
C87_10 C 0.01047(12) 0.84099(12) 0.58200(14)
C90_10 C 0.0354(3) 0.8502(2) 0.6005(2)
O41_10 O 0.05887(19) 0.83307(17) 0.59902(19)
O42_10 O 0.03634(18) 0.87388(19) 0.6156(2)
Zn26_10 Zn 0.08911(4) 0.85290(4) 0.62450(4)
O52_10 O 0.06950(18) 0.36844(19) 0.6259(2)
O69_10 O 0.19113(19) 0.65098(19) 0.41693(17)
O70_10 O 0.08307(17) 0.30887(19) 0.65098(19)
C104_10 C 0.93217(16) 0.00987(15) 0.68634(12)
H46_10 H 0.9295 0.0257 0.6999
C105_10 C 0.91800(14) 0.01047(12) 0.65901(12)
C108_10 C 0.8995(2) 0.0354(3) 0.6498(2)
O49_10 O 0.90098(19) 0.05887(19) 0.66693(17)
O50_10 O 0.8844(2) 0.03634(18) 0.62612(19)
Zn25_10 Zn 0.87550(4) 0.08911(4) 0.64710(4)
C82_10 C 0.9293(3) 0.8956(2) 0.5686(2)
C83_10 C 0.96348(14) 0.85340(13) 0.56006(14)
C84_10 C 0.96287(15) 0.82607(15) 0.54590(15)
H37_10 H 0.9466 0.8210 0.5336
C85_10 C 0.98607(18) 0.80620(11) 0.54978(16)
C88_10 C 0.98727(15) 0.86086(10) 0.57811(13)
H39_10 H 0.9877 0.8795 0.5878
C89_10 C 0.9863(4) 0.7781(4) 0.5325(5)
N19_10 N 0.90619(19) 0.9086(2) 0.5553(2)
N20_10 N 0.9408(2) 0.87083(19) 0.5550(2)
H40_10 H 0.9305 0.8655 0.5393
C91_10 C 0.8956(2) 0.9314(2) 0.5707(3)
C92_10 C 0.85340(13) 0.93994(14) 0.53652(14)
C93_10 C 0.82607(15) 0.95410(15) 0.53713(15)
H41_10 H 0.8210 0.9664 0.5534
C94_10 C 0.80620(11) 0.95022(16) 0.51393(18)
C95_10 C 0.81366(12) 0.93217(16) 0.49013(15)
H42_10 H 0.8001 0.9295 0.4743
C96_10 C 0.84099(12) 0.91800(14) 0.48953(12)
C97_10 C 0.86086(10) 0.92189(13) 0.51273(15)
H43_10 H 0.8795 0.9122 0.5123
C98_10 C 0.7781(4) 0.9675(5) 0.5137(4)
C99_10 C 0.8502(2) 0.8995(2) 0.4646(3)
N21_10 N 0.9086(2) 0.9447(2) 0.59381(19)
N22_10 N 0.87083(19) 0.9450(2) 0.5592(2)
H44_10 H 0.8655 0.9607 0.5695
O43_10 O 0.7734(2) 0.9846(2) 0.5368(3)
O44_10 O 0.76042(18) 0.9661(3) 0.4955(3)
O45_10 O 0.83307(17) 0.90098(19) 0.44113(19)
O46_10 O 0.87388(19) 0.8844(2) 0.46366(18)
C100_10 C 0.9314(2) 0.9293(3) 0.6044(2)
C101_10 C 0.93994(14) 0.96348(14) 0.64660(13)
C102_10 C 0.95410(15) 0.96287(15) 0.67393(15)
H45_10 H 0.9664 0.9466 0.6790
C103_10 C 0.95022(16) 0.98607(18) 0.69380(11)
C106_10 C 0.92189(13) 0.98727(15) 0.63914(10)
H47_10 H 0.9122 0.9877 0.6205
C107_10 C 0.9675(5) 0.9863(4) 0.7219(4)
N23_10 N 0.9447(2) 0.90619(19) 0.5914(2)
N24_10 N 0.9450(2) 0.9408(2) 0.62917(19)
H48_10 H 0.9607 0.9305 0.6345
Zn24_10 Zn 0.85290(4) 0.87550(4) 0.41089(4)
C82_11 C 0.0707(3) 0.6044(2) 0.0686(2)
C83_11 C 0.03652(14) 0.64660(13) 0.06006(14)
C84_11 C 0.03713(15) 0.67393(15) 0.04590(15)
H37_11 H 0.0534 0.6790 0.0336
C85_11 C 0.01393(18) 0.69380(11) 0.04978(16)
C88_11 C 0.01273(15) 0.63914(10) 0.07811(13)
H39_11 H 0.0123 0.6205 0.0878
C89_11 C 0.0137(4) 0.7219(4) 0.0325(5)
N19_11 N 0.09381(19) 0.5914(2) 0.0553(2)
N20_11 N 0.0592(2) 0.62917(19) 0.0550(2)
H40_11 H 0.0695 0.6345 0.0393
C91_11 C 0.1044(2) 0.5686(2) 0.0707(3)
C92_11 C 0.14660(13) 0.56006(14) 0.03652(14)
C93_11 C 0.17393(15) 0.54590(15) 0.03713(15)
H41_11 H 0.1790 0.5336 0.0534
C94_11 C 0.19380(11) 0.54978(16) 0.01393(18)
C97_11 C 0.13914(10) 0.57811(13) 0.01273(15)
H43_11 H 0.1205 0.5878 0.0123
C98_11 C 0.2219(4) 0.5325(5) 0.0137(4)
N21_11 N 0.0914(2) 0.5553(2) 0.09381(19)
N22_11 N 0.12917(19) 0.5550(2) 0.0592(2)
H44_11 H 0.1345 0.5393 0.0695
O43_11 O 0.2266(2) 0.5154(2) 0.0368(3)
C100_11 C 0.0686(2) 0.5707(3) 0.1044(2)
C101_11 C 0.06006(14) 0.53652(14) 0.14660(13)
C102_11 C 0.04590(15) 0.53713(15) 0.17393(15)
H45_11 H 0.0336 0.5534 0.1790
C103_11 C 0.04978(16) 0.51393(18) 0.19380(11)
C104_11 C 0.06783(16) 0.49013(15) 0.18634(12)
H46_11 H 0.0705 0.4743 0.1999
C105_11 C 0.08200(14) 0.48953(12) 0.15901(12)
C106_11 C 0.07811(13) 0.51273(15) 0.13914(10)
H47_11 H 0.0878 0.5123 0.1205
C107_11 C 0.0325(5) 0.5137(4) 0.2219(4)
C108_11 C 0.1005(2) 0.4646(3) 0.1498(2)
N23_11 N 0.0553(2) 0.59381(19) 0.0914(2)
N24_11 N 0.0550(2) 0.5592(2) 0.12917(19)
H48_11 H 0.0393 0.5695 0.1345
O49_11 O 0.09902(19) 0.44113(19) 0.16693(17)
O50_11 O 0.1156(2) 0.46366(18) 0.12612(19)
Zn25_11 Zn 0.12450(4) 0.41089(4) 0.14710(4)
C95_11 C 0.18634(12) 0.56783(16) 0.99013(15)
H42_11 H 0.1999 0.5705 0.9743
C96_11 C 0.15901(12) 0.58200(14) 0.98953(12)
C99_11 C 0.1498(2) 0.6005(2) 0.9646(3)
O44_11 O 0.23958(18) 0.5339(3) 0.9955(3)
O45_11 O 0.16693(17) 0.59902(19) 0.94113(19)
O46_11 O 0.12612(19) 0.6156(2) 0.96366(18)
Zn24_11 Zn 0.14710(4) 0.62450(4) 0.91089(4)
O52_11 O 0.93050(18) 0.13156(19) 0.1259(2)
O70_11 O 0.91693(17) 0.19113(19) 0.15098(19)
C86_11 C 0.99013(15) 0.68634(12) 0.06783(16)
H38_11 H 0.9743 0.6999 0.0705
C87_11 C 0.98953(12) 0.65901(12) 0.08200(14)
C90_11 C 0.9646(3) 0.6498(2) 0.1005(2)
O41_11 O 0.94113(19) 0.66693(17) 0.09902(19)
O42_11 O 0.96366(18) 0.62612(19) 0.1156(2)
Zn26_11 Zn 0.91089(4) 0.64710(4) 0.12450(4)
O69_11 O 0.80887(19) 0.84902(19) 0.91693(17)
C95_12 C 0.31366(12) 0.06783(16) 0.00987(15)
H42_12 H 0.3001 0.0705 0.0257
C96_12 C 0.34099(12) 0.08200(14) 0.01047(12)
C99_12 C 0.3502(2) 0.1005(2) 0.0354(3)
O44_12 O 0.26042(18) 0.0339(3) 0.0045(3)
O45_12 O 0.33307(17) 0.09902(19) 0.05887(19)
O46_12 O 0.37388(19) 0.1156(2) 0.03634(18)
Zn24_12 Zn 0.35290(4) 0.12450(4) 0.08911(4)
O69_12 O 0.69113(19) 0.34902(19) 0.08307(17)
C82_12 C 0.4293(3) 0.1044(2) 0.9314(2)
C83_12 C 0.46348(14) 0.14660(13) 0.93994(14)
C84_12 C 0.46287(15) 0.17393(15) 0.95410(15)
H37_12 H 0.4466 0.1790 0.9664
C85_12 C 0.48607(18) 0.19380(11) 0.95022(16)
C86_12 C 0.50987(15) 0.18634(12) 0.93217(16)
H38_12 H 0.5257 0.1999 0.9295
C87_12 C 0.51047(12) 0.15901(12) 0.91800(14)
C88_12 C 0.48727(15) 0.13914(10) 0.92189(13)
H39_12 H 0.4877 0.1205 0.9122
C89_12 C 0.4863(4) 0.2219(4) 0.9675(5)
C90_12 C 0.5354(3) 0.1498(2) 0.8995(2)
N19_12 N 0.40619(19) 0.0914(2) 0.9447(2)
N20_12 N 0.4408(2) 0.12917(19) 0.9450(2)
H40_12 H 0.4305 0.1345 0.9607
O41_12 O 0.55887(19) 0.16693(17) 0.90098(19)
O42_12 O 0.53634(18) 0.12612(19) 0.8844(2)
C91_12 C 0.3956(2) 0.0686(2) 0.9293(3)
C92_12 C 0.35340(13) 0.06006(14) 0.96348(14)
C93_12 C 0.32607(15) 0.04590(15) 0.96287(15)
H41_12 H 0.3210 0.0336 0.9466
C94_12 C 0.30620(11) 0.04978(16) 0.98607(18)
C97_12 C 0.36086(10) 0.07811(13) 0.98727(15)
H43_12 H 0.3795 0.0878 0.9877
C98_12 C 0.2781(4) 0.0325(5) 0.9863(4)
N21_12 N 0.4086(2) 0.0553(2) 0.90619(19)
N22_12 N 0.37083(19) 0.0550(2) 0.9408(2)
H44_12 H 0.3655 0.0393 0.9305
O43_12 O 0.2734(2) 0.0154(2) 0.9632(3)
C100_12 C 0.4314(2) 0.0707(3) 0.8956(2)
C101_12 C 0.43994(14) 0.03652(14) 0.85340(13)
C102_12 C 0.45410(15) 0.03713(15) 0.82607(15)
H45_12 H 0.4664 0.0534 0.8210
C103_12 C 0.45022(16) 0.01393(18) 0.80620(11)
C106_12 C 0.42189(13) 0.01273(15) 0.86086(10)
H47_12 H 0.4122 0.0123 0.8795
C107_12 C 0.4675(5) 0.0137(4) 0.7781(4)
N23_12 N 0.4447(2) 0.09381(19) 0.9086(2)
N24_12 N 0.4450(2) 0.0592(2) 0.87083(19)
H48_12 H 0.4607 0.0695 0.8655
Zn26_12 Zn 0.58911(4) 0.14710(4) 0.87550(4)
O52_12 O 0.56950(18) 0.63156(19) 0.8741(2)
O70_12 O 0.58307(17) 0.69113(19) 0.84902(19)
C104_12 C 0.43217(16) 0.99013(15) 0.81366(12)
H46_12 H 0.4295 0.9743 0.8001
C105_12 C 0.41800(14) 0.98953(12) 0.84099(12)
C108_12 C 0.3995(2) 0.9646(3) 0.8502(2)
O49_12 O 0.40098(19) 0.94113(19) 0.83307(17)
O50_12 O 0.3844(2) 0.96366(18) 0.87388(19)
Zn25_12 Zn 0.37550(4) 0.91089(4) 0.85290(4)
O59_5 O 0.2654(2) 0.0234(2) 0.7868(3)
O62_3 O 0.2346(2) 0.0234(2) 0.7132(3)
O64_5 O 0.2839(3) 0.01042(18) 0.7455(3)
O67_3 O 0.2161(3) 0.01042(18) 0.7545(3)
Zn1_10 Zn 0.2500 0.7500 0.51745(3)
Zn2_5 Zn 0.41089(4) 0.64710(4) 0.62450(4)
C1_5 C 0.3437(2) 0.8089(3) 0.6565(2)
C2_5 C 0.34776(15) 0.76454(13) 0.62300(14)
C3_5 C 0.35937(14) 0.73603(15) 0.62368(13)
H1_5 H 0.3732 0.7307 0.6386
C4_5 C 0.35068(16) 0.71536(12) 0.60259(15)
C5_5 C 0.33038(17) 0.72320(14) 0.58080(14)
H2_5 H 0.3244 0.7091 0.5664
C6_5 C 0.31877(15) 0.75170(16) 0.58012(13)
C7_5 C 0.32746(15) 0.77238(11) 0.60121(14)
H3_5 H 0.3195 0.7919 0.6007
C8_5 C 0.3638(3) 0.6862(3) 0.6024(3)
C9_5 C 0.2964(3) 0.7617(3) 0.5588(2)
C10_5 C 0.5707(3) 0.6044(2) 0.5686(2)
C11_5 C 0.53652(14) 0.64660(13) 0.56006(14)
C12_5 C 0.53713(15) 0.67393(15) 0.54590(15)
H4_5 H 0.5534 0.6790 0.5336
C13_5 C 0.51393(18) 0.69380(11) 0.54978(16)
C14_5 C 0.49013(15) 0.68634(12) 0.56783(16)
H5_5 H 0.4743 0.6999 0.5705
C15_5 C 0.48953(12) 0.65901(12) 0.58200(14)
C16_5 C 0.51273(15) 0.63914(10) 0.57811(13)
H6_5 H 0.5123 0.6205 0.5878
C17_5 C 0.5137(4) 0.7219(4) 0.5325(5)
C18_5 C 0.4646(3) 0.6498(2) 0.6005(2)
N1_5 N 0.35607(17) 0.8196(2) 0.6814(2)
N2_5 N 0.3565(2) 0.78312(19) 0.6462(2)
H7_5 H 0.3726 0.7775 0.6556
N3_5 N 0.59381(19) 0.5914(2) 0.5553(2)
N4_5 N 0.5592(2) 0.62917(19) 0.5550(2)
H8_5 H 0.5695 0.6345 0.5393
O1_5 O 0.38156(19) 0.68050(18) 0.6241(2)
O2_5 O 0.3532(2) 0.6673(2) 0.5830(2)
O3_5 O 0.28290(19) 0.73858(19) 0.54303(16)
O4_5 O 0.2885(2) 0.7854(2) 0.55595(16)
O5_5 O 0.5368(3) 0.7266(2) 0.5154(2)
O6_5 O 0.4955(3) 0.73958(18) 0.5339(3)
O7_5 O 0.44113(19) 0.66693(17) 0.59902(19)
O8_5 O 0.46366(18) 0.62612(19) 0.6156(2)
O9_5 O 0.38819(14) 0.61181(14) 0.61181(14)
C19_5 C 0.3435(2) 0.8437(2) 0.6911(3)
C20_5 C 0.37700(14) 0.84776(15) 0.73546(13)
C21_5 C 0.37632(13) 0.85937(14) 0.76397(15)
H9_5 H 0.3614 0.8732 0.7693
C22_5 C 0.39741(15) 0.85068(16) 0.78464(12)
C23_5 C 0.41920(14) 0.83038(17) 0.77680(14)
H10_5 H 0.4336 0.8244 0.7909
C24_5 C 0.41988(13) 0.81877(15) 0.74830(16)
C25_5 C 0.39879(14) 0.82746(15) 0.72762(11)
H11_5 H 0.3993 0.8195 0.7081
C26_5 C 0.3976(3) 0.8638(3) 0.8138(3)
C27_5 C 0.4412(2) 0.7964(3) 0.7383(3)
N5_5 N 0.3186(2) 0.85607(17) 0.6804(2)
N6_5 N 0.3538(2) 0.8565(2) 0.71688(19)
H12_5 H 0.3444 0.8726 0.7225
O10_5 O 0.3759(2) 0.88156(19) 0.81950(18)
O11_5 O 0.4170(2) 0.8532(2) 0.8327(2)
O12_5 O 0.45697(16) 0.78290(19) 0.76142(19)
O13_5 O 0.44405(16) 0.7885(2) 0.7146(2)
C28_5 C 0.3089(3) 0.8435(2) 0.6563(2)
C29_5 C 0.26454(13) 0.87700(14) 0.65224(15)
C30_5 C 0.23603(15) 0.87632(13) 0.64063(14)
H13_5 H 0.2307 0.8614 0.6268
C31_5 C 0.21536(12) 0.89741(15) 0.64932(16)
C32_5 C 0.22320(14) 0.91920(14) 0.66962(17)
H14_5 H 0.2091 0.9336 0.6756
C33_5 C 0.25170(16) 0.91988(13) 0.68123(15)
C34_5 C 0.27238(11) 0.89879(14) 0.67254(15)
H15_5 H 0.2919 0.8993 0.6805
C35_5 C 0.1862(3) 0.8976(3) 0.6362(3)
C36_5 C 0.2617(3) 0.9412(2) 0.7036(3)
N7_5 N 0.3196(2) 0.8186(2) 0.64393(17)
N8_5 N 0.28312(19) 0.8538(2) 0.6435(2)
H16_5 H 0.2775 0.8444 0.6274
O14_5 O 0.18050(18) 0.8759(2) 0.61844(19)
O15_5 O 0.1673(2) 0.9170(2) 0.6468(2)
O16_5 O 0.23858(19) 0.95697(16) 0.71710(19)
O17_5 O 0.2854(2) 0.94405(16) 0.7115(2)
C37_5 C 0.6044(2) 0.5686(2) 0.5707(3)
C38_5 C 0.64660(13) 0.56006(14) 0.53652(14)
C39_5 C 0.67393(15) 0.54590(15) 0.53713(15)
H17_5 H 0.6790 0.5336 0.5534
C40_5 C 0.69380(11) 0.54978(16) 0.51393(18)
C41_5 C 0.68634(12) 0.56783(16) 0.49013(15)
H18_5 H 0.6999 0.5705 0.4743
C42_5 C 0.65901(12) 0.58200(14) 0.48953(12)
C43_5 C 0.63914(10) 0.57811(13) 0.51273(15)
H19_5 H 0.6205 0.5878 0.5123
C44_5 C 0.7219(4) 0.5325(5) 0.5137(4)
C45_5 C 0.6498(2) 0.6005(2) 0.4646(3)
N9_5 N 0.5914(2) 0.5553(2) 0.59381(19)
N10_5 N 0.62917(19) 0.5550(2) 0.5592(2)
H20_5 H 0.6345 0.5393 0.5695
O18_5 O 0.7266(2) 0.5154(2) 0.5368(3)
O19_5 O 0.73958(18) 0.5339(3) 0.4955(3)
O20_3 O 0.66693(17) 0.59902(19) 0.44113(19)
O21_5 O 0.62612(19) 0.6156(2) 0.46366(18)
C46_5 C 0.5686(2) 0.5707(3) 0.6044(2)
C47_5 C 0.56006(14) 0.53652(14) 0.64660(13)
C48_5 C 0.54590(15) 0.53713(15) 0.67393(15)
H21_5 H 0.5336 0.5534 0.6790
C49_5 C 0.54978(16) 0.51393(18) 0.69380(11)
C50_5 C 0.56783(16) 0.49013(15) 0.68634(12)
H22_5 H 0.5705 0.4743 0.6999
C51_5 C 0.58200(14) 0.48953(12) 0.65901(12)
C52_5 C 0.57811(13) 0.51273(15) 0.63914(10)
H23_5 H 0.5878 0.5123 0.6205
C53_5 C 0.5325(5) 0.5137(4) 0.7219(4)
C54_5 C 0.6005(2) 0.4646(3) 0.6498(2)
N11_5 N 0.5553(2) 0.59381(19) 0.5914(2)
N12_5 N 0.5550(2) 0.5592(2) 0.62917(19)
H24_5 H 0.5393 0.5695 0.6345
O22_5 O 0.5154(2) 0.5368(3) 0.7266(2)
O23_5 O 0.5339(3) 0.4955(3) 0.73958(18)
O24_5 O 0.59902(19) 0.44113(19) 0.66693(17)
O25_5 O 0.6156(2) 0.46366(18) 0.62612(19)
Zn3_5 Zn 0.2500 0.98255(3) 0.7500
Zn4_3 Zn 0.35290(4) 0.87550(4) 0.91089(4)
C55_9 C 0.1911(3) 0.8435(2) 0.8437(2)
C56_9 C 0.23546(13) 0.87700(14) 0.84776(15)
C57_9 C 0.26397(15) 0.87632(13) 0.85937(14)
H25_9 H 0.2693 0.8614 0.8732
C58_9 C 0.28464(12) 0.89741(15) 0.85068(16)
C59_9 C 0.27680(14) 0.91920(14) 0.83038(17)
H26_9 H 0.2909 0.9336 0.8244
C60_9 C 0.24830(16) 0.91988(13) 0.81877(15)
C61_9 C 0.22762(11) 0.89879(14) 0.82746(15)
H27_9 H 0.2081 0.8993 0.8195
C62_9 C 0.3138(3) 0.8976(3) 0.8638(3)
C63_9 C 0.2383(3) 0.9412(2) 0.7964(3)
N13_9 N 0.1804(2) 0.8186(2) 0.85607(17)
N14_9 N 0.21688(19) 0.8538(2) 0.8565(2)
H28_9 H 0.2225 0.8444 0.8726
O26_9 O 0.31950(18) 0.8759(2) 0.88156(19)
O27_9 O 0.3327(2) 0.9170(2) 0.8532(2)
O28_5 O 0.26142(19) 0.95697(16) 0.78290(19)
O29_9 O 0.2146(2) 0.94405(16) 0.7885(2)
O30_5 O 0.38819(14) 0.88819(14) 0.88819(14)
C64_9 C 0.1563(2) 0.8089(3) 0.8435(2)
C65_9 C 0.15224(15) 0.76454(13) 0.87700(14)
C66_9 C 0.14063(14) 0.73603(15) 0.87632(13)
H29_9 H 0.1268 0.7307 0.8614
C67_9 C 0.14932(16) 0.71536(12) 0.89741(15)
C68_9 C 0.16962(17) 0.72320(14) 0.91920(14)
H30_9 H 0.1756 0.7091 0.9336
C69_9 C 0.18123(15) 0.75170(16) 0.91988(13)
C70_9 C 0.17254(15) 0.77238(11) 0.89879(14)
H31_9 H 0.1805 0.7919 0.8993
C71_9 C 0.1362(3) 0.6862(3) 0.8976(3)
C72_9 C 0.2036(3) 0.7617(3) 0.9412(2)
N15_9 N 0.14393(17) 0.8196(2) 0.8186(2)
N16_9 N 0.1435(2) 0.78312(19) 0.8538(2)
H32_9 H 0.1274 0.7775 0.8444
O31_5 O 0.11844(19) 0.68050(18) 0.8759(2)
O32_9 O 0.1468(2) 0.6673(2) 0.9170(2)
O33_9 O 0.21710(19) 0.73858(19) 0.95697(16)
O34_9 O 0.2115(2) 0.7854(2) 0.94405(16)
C73_9 C 0.1565(2) 0.8437(2) 0.8089(3)
C74_9 C 0.12300(14) 0.84776(15) 0.76454(13)
C75_9 C 0.12368(13) 0.85937(14) 0.73603(15)
H33_9 H 0.1386 0.8732 0.7307
C76_9 C 0.10259(15) 0.85068(16) 0.71536(12)
C77_9 C 0.08080(14) 0.83038(17) 0.72320(14)
H34_9 H 0.0664 0.8244 0.7091
C78_9 C 0.08012(13) 0.81877(15) 0.75170(16)
C79_9 C 0.10121(14) 0.82746(15) 0.77238(11)
H35_9 H 0.1007 0.8195 0.7919
C80_9 C 0.1024(3) 0.8638(3) 0.6862(3)
C81_9 C 0.0588(2) 0.7964(3) 0.7617(3)
N17_9 N 0.1814(2) 0.85607(17) 0.8196(2)
N18_9 N 0.1462(2) 0.8565(2) 0.78312(19)
H36_9 H 0.1556 0.8726 0.7775
O35_5 O 0.1241(2) 0.88156(19) 0.68050(18)
O36_9 O 0.0830(2) 0.8532(2) 0.6673(2)
O37_5 O 0.04303(16) 0.78290(19) 0.73858(19)
O38_9 O 0.05595(16) 0.7885(2) 0.7854(2)
Zn5_10 Zn 0.01745(3) 0.7500 0.7500
C82_13 C 0.3207(3) 0.6814(2) 0.3544(2)
C83_13 C 0.28652(14) 0.68994(14) 0.39660(13)
C84_13 C 0.28713(15) 0.70410(15) 0.42393(15)
H37_13 H 0.3034 0.7164 0.4290
C85_13 C 0.26393(18) 0.70022(16) 0.44380(11)
C86_13 C 0.24013(15) 0.68217(16) 0.43634(12)
H38_13 H 0.2243 0.6795 0.4499
C87_13 C 0.23953(12) 0.66800(14) 0.40901(12)
C88_13 C 0.26273(15) 0.67189(13) 0.38914(10)
H39_13 H 0.2623 0.6622 0.3705
C89_13 C 0.2637(4) 0.7175(5) 0.4719(4)
C90_13 C 0.2146(3) 0.6495(2) 0.3998(2)
N19_13 N 0.34381(19) 0.6947(2) 0.3414(2)
N20_13 N 0.3092(2) 0.6950(2) 0.37917(19)
H40_13 H 0.3195 0.7107 0.3845
O39_5 O 0.2868(3) 0.7346(2) 0.4766(2)
O40_5 O 0.2455(3) 0.7161(3) 0.48958(18)
O42_13 O 0.21366(18) 0.6344(2) 0.37612(19)
C91_13 C 0.3544(2) 0.6793(3) 0.3186(2)
C92_13 C 0.39660(13) 0.71348(14) 0.31006(14)
C93_13 C 0.42393(15) 0.71287(15) 0.29590(15)
H41_13 H 0.4290 0.6966 0.2836
C94_13 C 0.44380(11) 0.73607(18) 0.29978(16)
C95_13 C 0.43634(12) 0.75987(15) 0.31783(16)
H42_13 H 0.4499 0.7757 0.3205
C96_13 C 0.40901(12) 0.76047(12) 0.33200(14)
C97_13 C 0.38914(10) 0.73727(15) 0.32811(13)
H43_13 H 0.3705 0.7377 0.3378
C98_13 C 0.4719(4) 0.7363(4) 0.2825(5)
C99_13 C 0.3998(2) 0.7854(3) 0.3505(2)
N21_13 N 0.3414(2) 0.65619(19) 0.3053(2)
N22_13 N 0.37917(19) 0.6908(2) 0.3050(2)
H44_13 H 0.3845 0.6805 0.2893
O43_13 O 0.4766(2) 0.7132(3) 0.2654(2)
O44_13 O 0.48958(18) 0.7545(3) 0.2839(3)
O46_13 O 0.37612(19) 0.78634(18) 0.3656(2)
C100_13 C 0.3186(2) 0.6456(2) 0.3207(3)
C101_13 C 0.31006(14) 0.60340(13) 0.28652(14)
C102_13 C 0.29590(15) 0.57607(15) 0.28713(15)
H45_13 H 0.2836 0.5710 0.3034
C103_13 C 0.29978(16) 0.55620(11) 0.26393(18)
C104_13 C 0.31783(16) 0.56366(12) 0.24013(15)
H46_13 H 0.3205 0.5501 0.2243
C105_13 C 0.33200(14) 0.59099(12) 0.23953(12)
C106_13 C 0.32811(13) 0.61086(10) 0.26273(15)
H47_13 H 0.3378 0.6295 0.2623
C107_13 C 0.2825(5) 0.5281(4) 0.2637(4)
C108_13 C 0.3505(2) 0.6002(2) 0.2146(3)
N23_13 N 0.3053(2) 0.6586(2) 0.34381(19)
N24_13 N 0.3050(2) 0.62083(19) 0.3092(2)
H48_13 H 0.2893 0.6155 0.3195
O47_3 O 0.2654(2) 0.5234(2) 0.2868(3)
O48_3 O 0.2839(3) 0.51042(18) 0.2455(3)
O50_13 O 0.3656(2) 0.62388(19) 0.21366(18)
Zn10_6 Zn 0.2500 0.48255(3) 0.2500
Zn17_3 Zn 0.64710(4) 0.62450(4) 0.41089(4)
Zn18_5 Zn 0.62450(4) 0.41089(4) 0.64710(4)
O51_5 O 0.11844(19) 0.81950(18) 0.6241(2)
O52_13 O 0.18050(18) 0.6241(2) 0.88156(19)
O53_5 O 0.31950(18) 0.6241(2) 0.61844(19)
O54_5 O 0.4170(2) 0.6468(2) 0.6673(2)
O55_9 O 0.3532(2) 0.8327(2) 0.9170(2)
O56_5 O 0.04303(16) 0.71710(19) 0.76142(19)
O57_5 O 0.21710(19) 0.76142(19) 0.54303(16)
O61_5 O 0.2132(3) 0.7654(2) 0.4766(2)
O66_5 O 0.2545(3) 0.7839(3) 0.48958(18)
O68_3 O 0.33307(17) 0.90098(19) 0.94113(19)
O73_5 O 0.11181(14) 0.61181(14) 0.88819(14)
O74_5 O 0.11181(14) 0.88819(14) 0.61181(14)
O58_5 O 0.9766(2) 0.7868(3) 0.7346(2)
O60_5 O 0.9766(2) 0.7132(3) 0.7654(2)
O63_5 O 0.98958(18) 0.7455(3) 0.7161(3)
O65_5 O 0.98958(18) 0.7545(3) 0.7839(3)
O58_6 O 0.0234(2) 0.7132(3) 0.2346(2)
O60_6 O 0.0234(2) 0.7868(3) 0.2654(2)
O63_6 O 0.01042(18) 0.7545(3) 0.2161(3)
O65_6 O 0.01042(18) 0.7455(3) 0.2839(3)
C50_6 C 0.43217(16) 0.00987(15) 0.18634(12)
H22_6 H 0.4295 0.0257 0.1999
C51_6 C 0.41800(14) 0.01047(12) 0.15901(12)
C54_6 C 0.3995(2) 0.0354(3) 0.1498(2)
O23_6 O 0.4661(3) 0.0045(3) 0.23958(18)
O24_6 O 0.40098(19) 0.05887(19) 0.16693(17)
O25_6 O 0.3844(2) 0.03634(18) 0.12612(19)
Zn18_6 Zn 0.37550(4) 0.08911(4) 0.14710(4)
Zn10_7 Zn 0.7500 0.01745(3) 0.7500
Zn1_11 Zn 0.7500 0.7500 0.01745(3)
Zn2_6 Zn 0.58911(4) 0.85290(4) 0.12450(4)
C1_6 C 0.6563(2) 0.6911(3) 0.1565(2)
C2_6 C 0.65224(15) 0.73546(13) 0.12300(14)
C3_6 C 0.64063(14) 0.76397(15) 0.12368(13)
H1_6 H 0.6268 0.7693 0.1386
C4_6 C 0.64932(16) 0.78464(12) 0.10259(15)
C5_6 C 0.66962(17) 0.77680(14) 0.08080(14)
H2_6 H 0.6756 0.7909 0.0664
C6_6 C 0.68123(15) 0.74830(16) 0.08012(13)
C7_6 C 0.67254(15) 0.72762(11) 0.10121(14)
H3_6 H 0.6805 0.7081 0.1007
C8_6 C 0.6362(3) 0.8138(3) 0.1024(3)
C9_6 C 0.7036(3) 0.7383(3) 0.0588(2)
C10_6 C 0.4293(3) 0.8956(2) 0.0686(2)
C11_6 C 0.46348(14) 0.85340(13) 0.06006(14)
C12_6 C 0.46287(15) 0.82607(15) 0.04590(15)
H4_6 H 0.4466 0.8210 0.0336
C13_6 C 0.48607(18) 0.80620(11) 0.04978(16)
C14_6 C 0.50987(15) 0.81366(12) 0.06783(16)
H5_6 H 0.5257 0.8001 0.0705
C15_6 C 0.51047(12) 0.84099(12) 0.08200(14)
C16_6 C 0.48727(15) 0.86086(10) 0.07811(13)
H6_6 H 0.4877 0.8795 0.0878
C17_6 C 0.4863(4) 0.7781(4) 0.0325(5)
C18_6 C 0.5354(3) 0.8502(2) 0.1005(2)
N1_6 N 0.64393(17) 0.6804(2) 0.1814(2)
N2_6 N 0.6435(2) 0.71688(19) 0.1462(2)
H7_6 H 0.6274 0.7225 0.1556
N3_6 N 0.40619(19) 0.9086(2) 0.0553(2)
N4_6 N 0.4408(2) 0.87083(19) 0.0550(2)
H8_6 H 0.4305 0.8655 0.0393
O1_6 O 0.61844(19) 0.81950(18) 0.1241(2)
O2_6 O 0.6468(2) 0.8327(2) 0.0830(2)
O3_6 O 0.71710(19) 0.76142(19) 0.04303(16)
O4_6 O 0.7115(2) 0.7146(2) 0.05595(16)
O5_6 O 0.4632(3) 0.7734(2) 0.0154(2)
O6_6 O 0.5045(3) 0.76042(18) 0.0339(3)
O7_6 O 0.55887(19) 0.83307(17) 0.09902(19)
O8_6 O 0.53634(18) 0.87388(19) 0.1156(2)
O9_6 O 0.61181(14) 0.88819(14) 0.11181(14)
C19_6 C 0.6565(2) 0.6563(2) 0.1911(3)
C20_6 C 0.62300(14) 0.65224(15) 0.23546(13)
C21_6 C 0.62368(13) 0.64063(14) 0.26397(15)
H9_6 H 0.6386 0.6268 0.2693
C22_6 C 0.60259(15) 0.64932(16) 0.28464(12)
C23_6 C 0.58080(14) 0.66962(17) 0.27680(14)
H10_6 H 0.5664 0.6756 0.2909
C24_6 C 0.58012(13) 0.68123(15) 0.24830(16)
C25_6 C 0.60121(14) 0.67254(15) 0.22762(11)
H11_6 H 0.6007 0.6805 0.2081
C26_6 C 0.6024(3) 0.6362(3) 0.3138(3)
C27_6 C 0.5588(2) 0.7036(3) 0.2383(3)
N5_6 N 0.6814(2) 0.64393(17) 0.1804(2)
N6_6 N 0.6462(2) 0.6435(2) 0.21688(19)
H12_6 H 0.6556 0.6274 0.2225
O10_6 O 0.6241(2) 0.61844(19) 0.31950(18)
O11_6 O 0.5830(2) 0.6468(2) 0.3327(2)
O12_6 O 0.54303(16) 0.71710(19) 0.26142(19)
O13_6 O 0.55595(16) 0.7115(2) 0.2146(2)
C28_6 C 0.6911(3) 0.6565(2) 0.1563(2)
C29_6 C 0.73546(13) 0.62300(14) 0.15224(15)
C30_6 C 0.76397(15) 0.62368(13) 0.14063(14)
H13_6 H 0.7693 0.6386 0.1268
C31_6 C 0.78464(12) 0.60259(15) 0.14932(16)
C32_6 C 0.77680(14) 0.58080(14) 0.16962(17)
H14_6 H 0.7909 0.5664 0.1756
C33_6 C 0.74830(16) 0.58012(13) 0.18123(15)
C34_6 C 0.72762(11) 0.60121(14) 0.17254(15)
H15_6 H 0.7081 0.6007 0.1805
C35_6 C 0.8138(3) 0.6024(3) 0.1362(3)
C36_6 C 0.7383(3) 0.5588(2) 0.2036(3)
N7_6 N 0.6804(2) 0.6814(2) 0.14393(17)
N8_6 N 0.71688(19) 0.6462(2) 0.1435(2)
H16_6 H 0.7225 0.6556 0.1274
O14_6 O 0.81950(18) 0.6241(2) 0.11844(19)
O15_6 O 0.8327(2) 0.5830(2) 0.1468(2)
O16_6 O 0.76142(19) 0.54303(16) 0.21710(19)
O17_6 O 0.7146(2) 0.55595(16) 0.2115(2)
C37_6 C 0.3956(2) 0.9314(2) 0.0707(3)
C38_6 C 0.35340(13) 0.93994(14) 0.03652(14)
C39_6 C 0.32607(15) 0.95410(15) 0.03713(15)
H17_6 H 0.3210 0.9664 0.0534
C40_6 C 0.30620(11) 0.95022(16) 0.01393(18)
C43_6 C 0.36086(10) 0.92189(13) 0.01273(15)
H19_6 H 0.3795 0.9122 0.0123
C44_6 C 0.2781(4) 0.9675(5) 0.0137(4)
N9_6 N 0.4086(2) 0.9447(2) 0.09381(19)
N10_6 N 0.37083(19) 0.9450(2) 0.0592(2)
H20_6 H 0.3655 0.9607 0.0695
O18_6 O 0.2734(2) 0.9846(2) 0.0368(3)
C46_6 C 0.4314(2) 0.9293(3) 0.1044(2)
C47_6 C 0.43994(14) 0.96348(14) 0.14660(13)
C48_6 C 0.45410(15) 0.96287(15) 0.17393(15)
H21_6 H 0.4664 0.9466 0.1790
C49_6 C 0.45022(16) 0.98607(18) 0.19380(11)
C52_6 C 0.42189(13) 0.98727(15) 0.13914(10)
H23_6 H 0.4122 0.9877 0.1205
C53_6 C 0.4675(5) 0.9863(4) 0.2219(4)
N11_6 N 0.4447(2) 0.90619(19) 0.0914(2)
N12_6 N 0.4450(2) 0.9408(2) 0.12917(19)
H24_6 H 0.4607 0.9305 0.1345
O22_6 O 0.4846(2) 0.9632(3) 0.2266(2)
Zn3_6 Zn 0.7500 0.51745(3) 0.2500
C55_10 C 0.8089(3) 0.6565(2) 0.3437(2)
C56_10 C 0.76454(13) 0.62300(14) 0.34776(15)
C57_10 C 0.73603(15) 0.62368(13) 0.35937(14)
H25_10 H 0.7307 0.6386 0.3732
C58_10 C 0.71536(12) 0.60259(15) 0.35068(16)
C59_10 C 0.72320(14) 0.58080(14) 0.33038(17)
H26_10 H 0.7091 0.5664 0.3244
C60_10 C 0.75170(16) 0.58012(13) 0.31877(15)
C61_10 C 0.77238(11) 0.60121(14) 0.32746(15)
H27_10 H 0.7919 0.6007 0.3195
C62_10 C 0.6862(3) 0.6024(3) 0.3638(3)
C63_10 C 0.7617(3) 0.5588(2) 0.2964(3)
N13_10 N 0.8196(2) 0.6814(2) 0.35607(17)
N14_10 N 0.78312(19) 0.6462(2) 0.3565(2)
H28_10 H 0.7775 0.6556 0.3726
O26_10 O 0.68050(18) 0.6241(2) 0.38156(19)
O27_10 O 0.6673(2) 0.5830(2) 0.3532(2)
O28_6 O 0.73858(19) 0.54303(16) 0.28290(19)
O29_10 O 0.7854(2) 0.55595(16) 0.2885(2)
O30_6 O 0.61181(14) 0.61181(14) 0.38819(14)
C64_10 C 0.8437(2) 0.6911(3) 0.3435(2)
C65_10 C 0.84776(15) 0.73546(13) 0.37700(14)
C66_10 C 0.85937(14) 0.76397(15) 0.37632(13)
H29_10 H 0.8732 0.7693 0.3614
C67_10 C 0.85068(16) 0.78464(12) 0.39741(15)
C68_10 C 0.83038(17) 0.77680(14) 0.41920(14)
H30_10 H 0.8244 0.7909 0.4336
C69_10 C 0.81877(15) 0.74830(16) 0.41988(13)
C70_10 C 0.82746(15) 0.72762(11) 0.39879(14)
H31_10 H 0.8195 0.7081 0.3993
C71_10 C 0.8638(3) 0.8138(3) 0.3976(3)
C72_10 C 0.7964(3) 0.7383(3) 0.4412(2)
N15_10 N 0.85607(17) 0.6804(2) 0.3186(2)
N16_10 N 0.8565(2) 0.71688(19) 0.3538(2)
H32_10 H 0.8726 0.7225 0.3444
O31_6 O 0.88156(19) 0.81950(18) 0.3759(2)
O32_10 O 0.8532(2) 0.8327(2) 0.4170(2)
O33_10 O 0.78290(19) 0.76142(19) 0.45697(16)
O34_10 O 0.7885(2) 0.7146(2) 0.44405(16)
C73_10 C 0.8435(2) 0.6563(2) 0.3089(3)
C74_10 C 0.87700(14) 0.65224(15) 0.26454(13)
C75_10 C 0.87632(13) 0.64063(14) 0.23603(15)
H33_10 H 0.8614 0.6268 0.2307
C76_10 C 0.89741(15) 0.64932(16) 0.21536(12)
C77_10 C 0.91920(14) 0.66962(17) 0.22320(14)
H34_10 H 0.9336 0.6756 0.2091
C78_10 C 0.91988(13) 0.68123(15) 0.25170(16)
C79_10 C 0.89879(14) 0.67254(15) 0.27238(11)
H35_10 H 0.8993 0.6805 0.2919
C80_10 C 0.8976(3) 0.6362(3) 0.1862(3)
C81_10 C 0.9412(2) 0.7036(3) 0.2617(3)
N17_10 N 0.8186(2) 0.64393(17) 0.3196(2)
N18_10 N 0.8538(2) 0.6435(2) 0.28312(19)
H36_10 H 0.8444 0.6274 0.2775
O35_6 O 0.8759(2) 0.61844(19) 0.18050(18)
O36_10 O 0.9170(2) 0.6468(2) 0.1673(2)
O37_6 O 0.95697(16) 0.71710(19) 0.23858(19)
O38_10 O 0.94405(16) 0.7115(2) 0.2854(2)
Zn5_11 Zn 0.98255(3) 0.7500 0.2500
O51_6 O 0.88156(19) 0.68050(18) 0.1241(2)
O52_14 O 0.81950(18) 0.8759(2) 0.38156(19)
O53_6 O 0.68050(18) 0.8759(2) 0.11844(19)
O54_6 O 0.5830(2) 0.8532(2) 0.1673(2)
O55_10 O 0.6468(2) 0.6673(2) 0.4170(2)
O56_6 O 0.95697(16) 0.78290(19) 0.26142(19)
O57_6 O 0.78290(19) 0.73858(19) 0.04303(16)
O59_6 O 0.7346(2) 0.4766(2) 0.2868(3)
O62_4 O 0.7654(2) 0.4766(2) 0.2132(3)
O64_6 O 0.7161(3) 0.48958(18) 0.2455(3)
O67_4 O 0.7839(3) 0.48958(18) 0.2545(3)
O73_6 O 0.88819(14) 0.88819(14) 0.38819(14)
O74_6 O 0.88819(14) 0.61181(14) 0.11181(14)
C41_6 C 0.31366(12) 0.93217(16) 0.99013(15)
H18_6 H 0.3001 0.9295 0.9743
C42_6 C 0.34099(12) 0.91800(14) 0.98953(12)
C45_6 C 0.3502(2) 0.8995(2) 0.9646(3)
O19_6 O 0.26042(18) 0.9661(3) 0.9955(3)
O21_6 O 0.37388(19) 0.8844(2) 0.96366(18)
C82_14 C 0.6793(3) 0.8186(2) 0.8544(2)
C83_14 C 0.71348(14) 0.81006(14) 0.89660(13)
C84_14 C 0.71287(15) 0.79590(15) 0.92393(15)
H37_14 H 0.6966 0.7836 0.9290
C85_14 C 0.73607(18) 0.79978(16) 0.94380(11)
C86_14 C 0.75987(15) 0.81783(16) 0.93634(12)
H38_14 H 0.7757 0.8205 0.9499
C87_14 C 0.76047(12) 0.83200(14) 0.90901(12)
C88_14 C 0.73727(15) 0.82811(13) 0.88914(10)
H39_14 H 0.7377 0.8378 0.8705
C89_14 C 0.7363(4) 0.7825(5) 0.9719(4)
C90_14 C 0.7854(3) 0.8505(2) 0.8998(2)
N19_14 N 0.65619(19) 0.8053(2) 0.8414(2)
N20_14 N 0.6908(2) 0.8050(2) 0.87917(19)
H40_14 H 0.6805 0.7893 0.8845
O39_6 O 0.7132(3) 0.7654(2) 0.9766(2)
O40_6 O 0.7545(3) 0.7839(3) 0.98958(18)
O42_14 O 0.78634(18) 0.8656(2) 0.87612(19)
C91_14 C 0.6456(2) 0.8207(3) 0.8186(2)
C92_14 C 0.60340(13) 0.78652(14) 0.81006(14)
C93_14 C 0.57607(15) 0.78713(15) 0.79590(15)
H41_14 H 0.5710 0.8034 0.7836
C94_14 C 0.55620(11) 0.76393(18) 0.79978(16)
C95_14 C 0.56366(12) 0.74013(15) 0.81783(16)
H42_14 H 0.5501 0.7243 0.8205
C96_14 C 0.59099(12) 0.73953(12) 0.83200(14)
C97_14 C 0.61086(10) 0.76273(15) 0.82811(13)
H43_14 H 0.6295 0.7623 0.8378
C98_14 C 0.5281(4) 0.7637(4) 0.7825(5)
C99_14 C 0.6002(2) 0.7146(3) 0.8505(2)
N21_14 N 0.6586(2) 0.84381(19) 0.8053(2)
N22_14 N 0.62083(19) 0.8092(2) 0.8050(2)
H44_14 H 0.6155 0.8195 0.7893
O43_14 O 0.5234(2) 0.7868(3) 0.7654(2)
O44_14 O 0.51042(18) 0.7455(3) 0.7839(3)
O46_14 O 0.62388(19) 0.71366(18) 0.8656(2)
C100_14 C 0.6814(2) 0.8544(2) 0.8207(3)
C101_14 C 0.68994(14) 0.89660(13) 0.78652(14)
C102_14 C 0.70410(15) 0.92393(15) 0.78713(15)
H45_14 H 0.7164 0.9290 0.8034
C103_14 C 0.70022(16) 0.94380(11) 0.76393(18)
C104_14 C 0.68217(16) 0.93634(12) 0.74013(15)
H46_14 H 0.6795 0.9499 0.7243
C105_14 C 0.66800(14) 0.90901(12) 0.73953(12)
C106_14 C 0.67189(13) 0.88914(10) 0.76273(15)
H47_14 H 0.6622 0.8705 0.7623
C107_14 C 0.7175(5) 0.9719(4) 0.7637(4)
C108_14 C 0.6495(2) 0.8998(2) 0.7146(3)
N23_14 N 0.6947(2) 0.8414(2) 0.84381(19)
N24_14 N 0.6950(2) 0.87917(19) 0.8092(2)
H48_14 H 0.7107 0.8845 0.8195
O47_4 O 0.7346(2) 0.9766(2) 0.7868(3)
O48_4 O 0.7161(3) 0.98958(18) 0.7455(3)
O50_14 O 0.6344(2) 0.87612(19) 0.71366(18)
O61_6 O 0.7868(3) 0.7346(2) 0.9766(2)
O66_6 O 0.7455(3) 0.7161(3) 0.98958(18)
C41_7 C 0.18634(12) 0.43217(16) 0.00987(15)
H18_7 H 0.1999 0.4295 0.0257
C42_7 C 0.15901(12) 0.41800(14) 0.01047(12)
C45_7 C 0.1498(2) 0.3995(2) 0.0354(3)
O19_7 O 0.23958(18) 0.4661(3) 0.0045(3)
O20_4 O 0.16693(17) 0.40098(19) 0.05887(19)
O21_7 O 0.12612(19) 0.3844(2) 0.03634(18)
Zn17_4 Zn 0.14710(4) 0.37550(4) 0.08911(4)
C10_7 C 0.0707(3) 0.3956(2) 0.9314(2)
C11_7 C 0.03652(14) 0.35340(13) 0.93994(14)
C12_7 C 0.03713(15) 0.32607(15) 0.95410(15)
H4_7 H 0.0534 0.3210 0.9664
C13_7 C 0.01393(18) 0.30620(11) 0.95022(16)
C16_7 C 0.01273(15) 0.36086(10) 0.92189(13)
H6_7 H 0.0123 0.3795 0.9122
C17_7 C 0.0137(4) 0.2781(4) 0.9675(5)
N3_7 N 0.09381(19) 0.4086(2) 0.9447(2)
N4_7 N 0.0592(2) 0.37083(19) 0.9450(2)
H8_7 H 0.0695 0.3655 0.9607
O5_7 O 0.0368(3) 0.2734(2) 0.9846(2)
C37_7 C 0.1044(2) 0.4314(2) 0.9293(3)
C38_7 C 0.14660(13) 0.43994(14) 0.96348(14)
C39_7 C 0.17393(15) 0.45410(15) 0.96287(15)
H17_7 H 0.1790 0.4664 0.9466
C40_7 C 0.19380(11) 0.45022(16) 0.98607(18)
C43_7 C 0.13914(10) 0.42189(13) 0.98727(15)
H19_7 H 0.1205 0.4122 0.9877
C44_7 C 0.2219(4) 0.4675(5) 0.9863(4)
N9_7 N 0.0914(2) 0.4447(2) 0.90619(19)
N10_7 N 0.12917(19) 0.4450(2) 0.9408(2)
H20_7 H 0.1345 0.4607 0.9305
O18_7 O 0.2266(2) 0.4846(2) 0.9632(3)
C46_7 C 0.0686(2) 0.4293(3) 0.8956(2)
C47_7 C 0.06006(14) 0.46348(14) 0.85340(13)
C48_7 C 0.04590(15) 0.46287(15) 0.82607(15)
H21_7 H 0.0336 0.4466 0.8210
C49_7 C 0.04978(16) 0.48607(18) 0.80620(11)
C50_7 C 0.06783(16) 0.50987(15) 0.81366(12)
H22_7 H 0.0705 0.5257 0.8001
C51_7 C 0.08200(14) 0.51047(12) 0.84099(12)
C52_7 C 0.07811(13) 0.48727(15) 0.86086(10)
H23_7 H 0.0878 0.4877 0.8795
C53_7 C 0.0325(5) 0.4863(4) 0.7781(4)
C54_7 C 0.1005(2) 0.5354(3) 0.8502(2)
N11_7 N 0.0553(2) 0.40619(19) 0.9086(2)
N12_7 N 0.0550(2) 0.4408(2) 0.87083(19)
H24_7 H 0.0393 0.4305 0.8655
O22_7 O 0.0154(2) 0.4632(3) 0.7734(2)
O23_7 O 0.0339(3) 0.5045(3) 0.76042(18)
O24_7 O 0.09902(19) 0.55887(19) 0.83307(17)
O25_7 O 0.1156(2) 0.53634(18) 0.87388(19)
Zn18_7 Zn 0.12450(4) 0.58911(4) 0.85290(4)
C82_15 C 0.8207(3) 0.3186(2) 0.1456(2)
C83_15 C 0.78652(14) 0.31006(14) 0.10340(13)
C84_15 C 0.78713(15) 0.29590(15) 0.07607(15)
H37_15 H 0.8034 0.2836 0.0710
C85_15 C 0.76393(18) 0.29978(16) 0.05620(11)
C86_15 C 0.74013(15) 0.31783(16) 0.06366(12)
H38_15 H 0.7243 0.3205 0.0501
C87_15 C 0.73953(12) 0.33200(14) 0.09099(12)
C88_15 C 0.76273(15) 0.32811(13) 0.11086(10)
H39_15 H 0.7623 0.3378 0.1295
C89_15 C 0.7637(4) 0.2825(5) 0.0281(4)
C90_15 C 0.7146(3) 0.3505(2) 0.1002(2)
N19_15 N 0.84381(19) 0.3053(2) 0.1586(2)
N20_15 N 0.8092(2) 0.3050(2) 0.12083(19)
H40_15 H 0.8195 0.2893 0.1155
O39_7 O 0.7868(3) 0.2654(2) 0.0234(2)
O40_7 O 0.7455(3) 0.2839(3) 0.01042(18)
O42_15 O 0.71366(18) 0.3656(2) 0.12388(19)
C91_15 C 0.8544(2) 0.3207(3) 0.1814(2)
C92_15 C 0.89660(13) 0.28652(14) 0.18994(14)
C93_15 C 0.92393(15) 0.28713(15) 0.20410(15)
H41_15 H 0.9290 0.3034 0.2164
C94_15 C 0.94380(11) 0.26393(18) 0.20022(16)
C95_15 C 0.93634(12) 0.24013(15) 0.18217(16)
H42_15 H 0.9499 0.2243 0.1795
C96_15 C 0.90901(12) 0.23953(12) 0.16800(14)
C97_15 C 0.88914(10) 0.26273(15) 0.17189(13)
H43_15 H 0.8705 0.2623 0.1622
C98_15 C 0.9719(4) 0.2637(4) 0.2175(5)
C99_15 C 0.8998(2) 0.2146(3) 0.1495(2)
N21_15 N 0.8414(2) 0.34381(19) 0.1947(2)
N22_15 N 0.87917(19) 0.3092(2) 0.1950(2)
H44_15 H 0.8845 0.3195 0.2107
O43_15 O 0.9766(2) 0.2868(3) 0.2346(2)
O44_15 O 0.98958(18) 0.2455(3) 0.2161(3)
O46_15 O 0.87612(19) 0.21366(18) 0.1344(2)
C100_15 C 0.8186(2) 0.3544(2) 0.1793(3)
C101_15 C 0.81006(14) 0.39660(13) 0.21348(14)
C102_15 C 0.79590(15) 0.42393(15) 0.21287(15)
H45_15 H 0.7836 0.4290 0.1966
C103_15 C 0.79978(16) 0.44380(11) 0.23607(18)
C104_15 C 0.81783(16) 0.43634(12) 0.25987(15)
H46_15 H 0.8205 0.4499 0.2757
C105_15 C 0.83200(14) 0.40901(12) 0.26047(12)
C106_15 C 0.82811(13) 0.38914(10) 0.23727(15)
H47_15 H 0.8378 0.3705 0.2377
C107_15 C 0.7825(5) 0.4719(4) 0.2363(4)
C108_15 C 0.8505(2) 0.3998(2) 0.2854(3)
N23_15 N 0.8053(2) 0.3414(2) 0.15619(19)
N24_15 N 0.8050(2) 0.37917(19) 0.1908(2)
H48_15 H 0.7893 0.3845 0.1805
O50_15 O 0.8656(2) 0.37612(19) 0.28634(18)
O61_7 O 0.7132(3) 0.2346(2) 0.0234(2)
O66_7 O 0.7545(3) 0.2161(3) 0.01042(18)
Zn1_12 Zn 0.7500 0.2500 0.98255(3)
Zn2_7 Zn 0.91089(4) 0.35290(4) 0.87550(4)
C1_7 C 0.8437(2) 0.1911(3) 0.8435(2)
C2_7 C 0.84776(15) 0.23546(13) 0.87700(14)
C3_7 C 0.85937(14) 0.26397(15) 0.87632(13)
H1_7 H 0.8732 0.2693 0.8614
C4_7 C 0.85068(16) 0.28464(12) 0.89741(15)
C5_7 C 0.83038(17) 0.27680(14) 0.91920(14)
H2_7 H 0.8244 0.2909 0.9336
C6_7 C 0.81877(15) 0.24830(16) 0.91988(13)
C7_7 C 0.82746(15) 0.22762(11) 0.89879(14)
H3_7 H 0.8195 0.2081 0.8993
C8_7 C 0.8638(3) 0.3138(3) 0.8976(3)
C9_7 C 0.7964(3) 0.2383(3) 0.9412(2)
C14_7 C 0.99013(15) 0.31366(12) 0.93217(16)
H5_7 H 0.9743 0.3001 0.9295
C15_7 C 0.98953(12) 0.34099(12) 0.91800(14)
C18_7 C 0.9646(3) 0.3502(2) 0.8995(2)
N1_7 N 0.85607(17) 0.1804(2) 0.8186(2)
N2_7 N 0.8565(2) 0.21688(19) 0.8538(2)
H7_7 H 0.8726 0.2225 0.8444
O1_7 O 0.88156(19) 0.31950(18) 0.8759(2)
O2_7 O 0.8532(2) 0.3327(2) 0.9170(2)
O3_7 O 0.78290(19) 0.26142(19) 0.95697(16)
O4_7 O 0.7885(2) 0.2146(2) 0.94405(16)
O6_7 O 0.9955(3) 0.26042(18) 0.9661(3)
O7_7 O 0.94113(19) 0.33307(17) 0.90098(19)
O8_7 O 0.96366(18) 0.37388(19) 0.8844(2)
O9_7 O 0.88819(14) 0.38819(14) 0.88819(14)
C19_7 C 0.8435(2) 0.1563(2) 0.8089(3)
C20_7 C 0.87700(14) 0.15224(15) 0.76454(13)
C21_7 C 0.87632(13) 0.14063(14) 0.73603(15)
H9_7 H 0.8614 0.1268 0.7307
C22_7 C 0.89741(15) 0.14932(16) 0.71536(12)
C23_7 C 0.91920(14) 0.16962(17) 0.72320(14)
H10_7 H 0.9336 0.1756 0.7091
C24_7 C 0.91988(13) 0.18123(15) 0.75170(16)
C25_7 C 0.89879(14) 0.17254(15) 0.77238(11)
H11_7 H 0.8993 0.1805 0.7919
C26_7 C 0.8976(3) 0.1362(3) 0.6862(3)
C27_7 C 0.9412(2) 0.2036(3) 0.7617(3)
N5_7 N 0.8186(2) 0.14393(17) 0.8196(2)
N6_7 N 0.8538(2) 0.1435(2) 0.78312(19)
H12_7 H 0.8444 0.1274 0.7775
O10_7 O 0.8759(2) 0.11844(19) 0.68050(18)
O11_7 O 0.9170(2) 0.1468(2) 0.6673(2)
O12_7 O 0.95697(16) 0.21710(19) 0.73858(19)
O13_7 O 0.94405(16) 0.2115(2) 0.7854(2)
C28_7 C 0.8089(3) 0.1565(2) 0.8437(2)
C29_7 C 0.76454(13) 0.12300(14) 0.84776(15)
C30_7 C 0.73603(15) 0.12368(13) 0.85937(14)
H13_7 H 0.7307 0.1386 0.8732
C31_7 C 0.71536(12) 0.10259(15) 0.85068(16)
C32_7 C 0.72320(14) 0.08080(14) 0.83038(17)
H14_7 H 0.7091 0.0664 0.8244
C33_7 C 0.75170(16) 0.08012(13) 0.81877(15)
C34_7 C 0.77238(11) 0.10121(14) 0.82746(15)
H15_7 H 0.7919 0.1007 0.8195
C35_7 C 0.6862(3) 0.1024(3) 0.8638(3)
C36_7 C 0.7617(3) 0.0588(2) 0.7964(3)
N7_7 N 0.8196(2) 0.1814(2) 0.85607(17)
N8_7 N 0.78312(19) 0.1462(2) 0.8565(2)
H16_7 H 0.7775 0.1556 0.8726
O14_7 O 0.68050(18) 0.1241(2) 0.88156(19)
O15_7 O 0.6673(2) 0.0830(2) 0.8532(2)
O16_7 O 0.73858(19) 0.04303(16) 0.78290(19)
O17_7 O 0.7854(2) 0.05595(16) 0.7885(2)
Zn4_4 Zn 0.85290(4) 0.12450(4) 0.58911(4)
C55_11 C 0.6911(3) 0.1565(2) 0.6563(2)
C56_11 C 0.73546(13) 0.12300(14) 0.65224(15)
C57_11 C 0.76397(15) 0.12368(13) 0.64063(14)
H25_11 H 0.7693 0.1386 0.6268
C58_11 C 0.78464(12) 0.10259(15) 0.64932(16)
C59_11 C 0.77680(14) 0.08080(14) 0.66962(17)
H26_11 H 0.7909 0.0664 0.6756
C60_11 C 0.74830(16) 0.08012(13) 0.68123(15)
C61_11 C 0.72762(11) 0.10121(14) 0.67254(15)
H27_11 H 0.7081 0.1007 0.6805
C62_11 C 0.8138(3) 0.1024(3) 0.6362(3)
C63_11 C 0.7383(3) 0.0588(2) 0.7036(3)
N13_11 N 0.6804(2) 0.1814(2) 0.64393(17)
N14_11 N 0.71688(19) 0.1462(2) 0.6435(2)
H28_11 H 0.7225 0.1556 0.6274
O26_11 O 0.81950(18) 0.1241(2) 0.61844(19)
O27_11 O 0.8327(2) 0.0830(2) 0.6468(2)
O28_7 O 0.76142(19) 0.04303(16) 0.71710(19)
O29_11 O 0.7146(2) 0.05595(16) 0.7115(2)
O30_7 O 0.88819(14) 0.11181(14) 0.61181(14)
C64_11 C 0.6563(2) 0.1911(3) 0.6565(2)
C65_11 C 0.65224(15) 0.23546(13) 0.62300(14)
C66_11 C 0.64063(14) 0.26397(15) 0.62368(13)
H29_11 H 0.6268 0.2693 0.6386
C67_11 C 0.64932(16) 0.28464(12) 0.60259(15)
C68_11 C 0.66962(17) 0.27680(14) 0.58080(14)
H30_11 H 0.6756 0.2909 0.5664
C69_11 C 0.68123(15) 0.24830(16) 0.58012(13)
C70_11 C 0.67254(15) 0.22762(11) 0.60121(14)
H31_11 H 0.6805 0.2081 0.6007
C71_11 C 0.6362(3) 0.3138(3) 0.6024(3)
C72_11 C 0.7036(3) 0.2383(3) 0.5588(2)
N15_11 N 0.64393(17) 0.1804(2) 0.6814(2)
N16_11 N 0.6435(2) 0.21688(19) 0.6462(2)
H32_11 H 0.6274 0.2225 0.6556
O31_7 O 0.61844(19) 0.31950(18) 0.6241(2)
O32_11 O 0.6468(2) 0.3327(2) 0.5830(2)
O33_11 O 0.71710(19) 0.26142(19) 0.54303(16)
O34_11 O 0.7115(2) 0.2146(2) 0.55595(16)
C73_11 C 0.6565(2) 0.1563(2) 0.6911(3)
C74_11 C 0.62300(14) 0.15224(15) 0.73546(13)
C75_11 C 0.62368(13) 0.14063(14) 0.76397(15)
H33_11 H 0.6386 0.1268 0.7693
C76_11 C 0.60259(15) 0.14932(16) 0.78464(12)
C77_11 C 0.58080(14) 0.16962(17) 0.77680(14)
H34_11 H 0.5664 0.1756 0.7909
C78_11 C 0.58012(13) 0.18123(15) 0.74830(16)
C79_11 C 0.60121(14) 0.17254(15) 0.72762(11)
H35_11 H 0.6007 0.1805 0.7081
C80_11 C 0.6024(3) 0.1362(3) 0.8138(3)
C81_11 C 0.5588(2) 0.2036(3) 0.7383(3)
N17_11 N 0.6814(2) 0.14393(17) 0.6804(2)
N18_11 N 0.6462(2) 0.1435(2) 0.71688(19)
H36_11 H 0.6556 0.1274 0.7225
O35_7 O 0.6241(2) 0.11844(19) 0.81950(18)
O36_11 O 0.5830(2) 0.1468(2) 0.8327(2)
O37_7 O 0.54303(16) 0.21710(19) 0.76142(19)
O38_11 O 0.55595(16) 0.2115(2) 0.7146(2)
Zn5_12 Zn 0.51745(3) 0.2500 0.7500
O51_7 O 0.61844(19) 0.18050(18) 0.8759(2)
O52_15 O 0.68050(18) 0.3759(2) 0.61844(19)
O53_7 O 0.81950(18) 0.3759(2) 0.88156(19)
O54_7 O 0.9170(2) 0.3532(2) 0.8327(2)
O55_11 O 0.8532(2) 0.1673(2) 0.5830(2)
O56_7 O 0.54303(16) 0.28290(19) 0.73858(19)
O57_7 O 0.71710(19) 0.23858(19) 0.95697(16)
O58_7 O 0.4766(2) 0.2132(3) 0.7654(2)
O60_7 O 0.4766(2) 0.2868(3) 0.7346(2)
O63_7 O 0.48958(18) 0.2545(3) 0.7839(3)
O65_7 O 0.48958(18) 0.2455(3) 0.7161(3)
O68_4 O 0.83307(17) 0.09902(19) 0.55887(19)
O73_7 O 0.61181(14) 0.38819(14) 0.61181(14)
O74_7 O 0.61181(14) 0.11181(14) 0.88819(14)
O59_7 O 0.7654(2) 0.9766(2) 0.7132(3)
O64_7 O 0.7839(3) 0.98958(18) 0.7545(3)
Zn1_13 Zn 0.2500 0.2500 0.48255(3)
Zn2_8 Zn 0.08911(4) 0.14710(4) 0.37550(4)
C1_8 C 0.1563(2) 0.3089(3) 0.3435(2)
C2_8 C 0.15224(15) 0.26454(13) 0.37700(14)
C3_8 C 0.14063(14) 0.23603(15) 0.37632(13)
H1_8 H 0.1268 0.2307 0.3614
C4_8 C 0.14932(16) 0.21536(12) 0.39741(15)
C5_8 C 0.16962(17) 0.22320(14) 0.41920(14)
H2_8 H 0.1756 0.2091 0.4336
C6_8 C 0.18123(15) 0.25170(16) 0.41988(13)
C7_8 C 0.17254(15) 0.27238(11) 0.39879(14)
H3_8 H 0.1805 0.2919 0.3993
C8_8 C 0.1362(3) 0.1862(3) 0.3976(3)
C9_8 C 0.2036(3) 0.2617(3) 0.4412(2)
C14_8 C 0.00987(15) 0.18634(12) 0.43217(16)
H5_8 H 0.0257 0.1999 0.4295
C15_8 C 0.01047(12) 0.15901(12) 0.41800(14)
C18_8 C 0.0354(3) 0.1498(2) 0.3995(2)
N1_8 N 0.14393(17) 0.3196(2) 0.3186(2)
N2_8 N 0.1435(2) 0.28312(19) 0.3538(2)
H7_8 H 0.1274 0.2775 0.3444
O1_8 O 0.11844(19) 0.18050(18) 0.3759(2)
O2_8 O 0.1468(2) 0.1673(2) 0.4170(2)
O3_8 O 0.21710(19) 0.23858(19) 0.45697(16)
O4_8 O 0.2115(2) 0.2854(2) 0.44405(16)
O6_8 O 0.0045(3) 0.23958(18) 0.4661(3)
O7_8 O 0.05887(19) 0.16693(17) 0.40098(19)
O8_8 O 0.03634(18) 0.12612(19) 0.3844(2)
O9_8 O 0.11181(14) 0.11181(14) 0.38819(14)
C19_8 C 0.1565(2) 0.3437(2) 0.3089(3)
C20_8 C 0.12300(14) 0.34776(15) 0.26454(13)
C21_8 C 0.12368(13) 0.35937(14) 0.23603(15)
H9_8 H 0.1386 0.3732 0.2307
C22_8 C 0.10259(15) 0.35068(16) 0.21536(12)
C23_8 C 0.08080(14) 0.33038(17) 0.22320(14)
H10_8 H 0.0664 0.3244 0.2091
C24_8 C 0.08012(13) 0.31877(15) 0.25170(16)
C25_8 C 0.10121(14) 0.32746(15) 0.27238(11)
H11_8 H 0.1007 0.3195 0.2919
C26_8 C 0.1024(3) 0.3638(3) 0.1862(3)
C27_8 C 0.0588(2) 0.2964(3) 0.2617(3)
N5_8 N 0.1814(2) 0.35607(17) 0.3196(2)
N6_8 N 0.1462(2) 0.3565(2) 0.28312(19)
H12_8 H 0.1556 0.3726 0.2775
O10_8 O 0.1241(2) 0.38156(19) 0.18050(18)
O11_8 O 0.0830(2) 0.3532(2) 0.1673(2)
O12_8 O 0.04303(16) 0.28290(19) 0.23858(19)
O13_8 O 0.05595(16) 0.2885(2) 0.2854(2)
C28_8 C 0.1911(3) 0.3435(2) 0.3437(2)
C29_8 C 0.23546(13) 0.37700(14) 0.34776(15)
C30_8 C 0.26397(15) 0.37632(13) 0.35937(14)
H13_8 H 0.2693 0.3614 0.3732
C31_8 C 0.28464(12) 0.39741(15) 0.35068(16)
C32_8 C 0.27680(14) 0.41920(14) 0.33038(17)
H14_8 H 0.2909 0.4336 0.3244
C33_8 C 0.24830(16) 0.41988(13) 0.31877(15)
C34_8 C 0.22762(11) 0.39879(14) 0.32746(15)
H15_8 H 0.2081 0.3993 0.3195
C35_8 C 0.3138(3) 0.3976(3) 0.3638(3)
C36_8 C 0.2383(3) 0.4412(2) 0.2964(3)
N7_8 N 0.1804(2) 0.3186(2) 0.35607(17)
N8_8 N 0.21688(19) 0.3538(2) 0.3565(2)
H16_8 H 0.2225 0.3444 0.3726
O14_8 O 0.31950(18) 0.3759(2) 0.38156(19)
O15_8 O 0.3327(2) 0.4170(2) 0.3532(2)
O16_8 O 0.26142(19) 0.45697(16) 0.28290(19)
O17_8 O 0.2146(2) 0.44405(16) 0.2885(2)
C55_12 C 0.3089(3) 0.3435(2) 0.1563(2)
C56_12 C 0.26454(13) 0.37700(14) 0.15224(15)
C57_12 C 0.23603(15) 0.37632(13) 0.14063(14)
H25_12 H 0.2307 0.3614 0.1268
C58_12 C 0.21536(12) 0.39741(15) 0.14932(16)
C59_12 C 0.22320(14) 0.41920(14) 0.16962(17)
H26_12 H 0.2091 0.4336 0.1756
C60_12 C 0.25170(16) 0.41988(13) 0.18123(15)
C61_12 C 0.27238(11) 0.39879(14) 0.17254(15)
H27_12 H 0.2919 0.3993 0.1805
C62_12 C 0.1862(3) 0.3976(3) 0.1362(3)
C63_12 C 0.2617(3) 0.4412(2) 0.2036(3)
N13_12 N 0.3196(2) 0.3186(2) 0.14393(17)
N14_12 N 0.28312(19) 0.3538(2) 0.1435(2)
H28_12 H 0.2775 0.3444 0.1274
O26_12 O 0.18050(18) 0.3759(2) 0.11844(19)
O27_12 O 0.1673(2) 0.4170(2) 0.1468(2)
O28_8 O 0.23858(19) 0.45697(16) 0.21710(19)
O29_12 O 0.2854(2) 0.44405(16) 0.2115(2)
O30_8 O 0.11181(14) 0.38819(14) 0.11181(14)
C64_12 C 0.3437(2) 0.3089(3) 0.1565(2)
C65_12 C 0.34776(15) 0.26454(13) 0.12300(14)
C66_12 C 0.35937(14) 0.23603(15) 0.12368(13)
H29_12 H 0.3732 0.2307 0.1386
C67_12 C 0.35068(16) 0.21536(12) 0.10259(15)
C68_12 C 0.33038(17) 0.22320(14) 0.08080(14)
H30_12 H 0.3244 0.2091 0.0664
C69_12 C 0.31877(15) 0.25170(16) 0.08012(13)
C70_12 C 0.32746(15) 0.27238(11) 0.10121(14)
H31_12 H 0.3195 0.2919 0.1007
C71_12 C 0.3638(3) 0.1862(3) 0.1024(3)
C72_12 C 0.2964(3) 0.2617(3) 0.0588(2)
N15_12 N 0.35607(17) 0.3196(2) 0.1814(2)
N16_12 N 0.3565(2) 0.28312(19) 0.1462(2)
H32_12 H 0.3726 0.2775 0.1556
O31_8 O 0.38156(19) 0.18050(18) 0.1241(2)
O32_12 O 0.3532(2) 0.1673(2) 0.0830(2)
O33_12 O 0.28290(19) 0.23858(19) 0.04303(16)
O34_12 O 0.2885(2) 0.2854(2) 0.05595(16)
C73_12 C 0.3435(2) 0.3437(2) 0.1911(3)
C74_12 C 0.37700(14) 0.34776(15) 0.23546(13)
C75_12 C 0.37632(13) 0.35937(14) 0.26397(15)
H33_12 H 0.3614 0.3732 0.2693
C76_12 C 0.39741(15) 0.35068(16) 0.28464(12)
C77_12 C 0.41920(14) 0.33038(17) 0.27680(14)
H34_12 H 0.4336 0.3244 0.2909
C78_12 C 0.41988(13) 0.31877(15) 0.24830(16)
C79_12 C 0.39879(14) 0.32746(15) 0.22762(11)
H35_12 H 0.3993 0.3195 0.2081
C80_12 C 0.3976(3) 0.3638(3) 0.3138(3)
C81_12 C 0.4412(2) 0.2964(3) 0.2383(3)
N17_12 N 0.3186(2) 0.35607(17) 0.1804(2)
N18_12 N 0.3538(2) 0.3565(2) 0.21688(19)
H36_12 H 0.3444 0.3726 0.2225
O35_8 O 0.3759(2) 0.38156(19) 0.31950(18)
O36_12 O 0.4170(2) 0.3532(2) 0.3327(2)
O37_8 O 0.45697(16) 0.28290(19) 0.26142(19)
O38_12 O 0.44405(16) 0.2885(2) 0.2146(2)
Zn5_13 Zn 0.48255(3) 0.2500 0.2500
C82_16 C 0.1793(3) 0.1814(2) 0.6456(2)
C83_16 C 0.21348(14) 0.18994(14) 0.60340(13)
C84_16 C 0.21287(15) 0.20410(15) 0.57607(15)
H37_16 H 0.1966 0.2164 0.5710
C85_16 C 0.23607(18) 0.20022(16) 0.55620(11)
C86_16 C 0.25987(15) 0.18217(16) 0.56366(12)
H38_16 H 0.2757 0.1795 0.5501
C87_16 C 0.26047(12) 0.16800(14) 0.59099(12)
C88_16 C 0.23727(15) 0.17189(13) 0.61086(10)
H39_16 H 0.2377 0.1622 0.6295
C89_16 C 0.2363(4) 0.2175(5) 0.5281(4)
C90_16 C 0.2854(3) 0.1495(2) 0.6002(2)
N19_16 N 0.15619(19) 0.1947(2) 0.6586(2)
N20_16 N 0.1908(2) 0.1950(2) 0.62083(19)
H40_16 H 0.1805 0.2107 0.6155
O39_8 O 0.2132(3) 0.2346(2) 0.5234(2)
O40_8 O 0.2545(3) 0.2161(3) 0.51042(18)
O42_16 O 0.28634(18) 0.1344(2) 0.62388(19)
C91_16 C 0.1456(2) 0.1793(3) 0.6814(2)
C92_16 C 0.10340(13) 0.21348(14) 0.68994(14)
C93_16 C 0.07607(15) 0.21287(15) 0.70410(15)
H41_16 H 0.0710 0.1966 0.7164
C94_16 C 0.05620(11) 0.23607(18) 0.70022(16)
C95_16 C 0.06366(12) 0.25987(15) 0.68217(16)
H42_16 H 0.0501 0.2757 0.6795
C96_16 C 0.09099(12) 0.26047(12) 0.66800(14)
C97_16 C 0.11086(10) 0.23727(15) 0.67189(13)
H43_16 H 0.1295 0.2377 0.6622
C98_16 C 0.0281(4) 0.2363(4) 0.7175(5)
C99_16 C 0.1002(2) 0.2854(3) 0.6495(2)
N21_16 N 0.1586(2) 0.15619(19) 0.6947(2)
N22_16 N 0.12083(19) 0.1908(2) 0.6950(2)
H44_16 H 0.1155 0.1805 0.7107
O43_16 O 0.0234(2) 0.2132(3) 0.7346(2)
O44_16 O 0.01042(18) 0.2545(3) 0.7161(3)
O46_16 O 0.12388(19) 0.28634(18) 0.6344(2)
C100_16 C 0.1814(2) 0.1456(2) 0.6793(3)
C101_16 C 0.18994(14) 0.10340(13) 0.71348(14)
C102_16 C 0.20410(15) 0.07607(15) 0.71287(15)
H45_16 H 0.2164 0.0710 0.6966
C103_16 C 0.20022(16) 0.05620(11) 0.73607(18)
C104_16 C 0.18217(16) 0.06366(12) 0.75987(15)
H46_16 H 0.1795 0.0501 0.7757
C105_16 C 0.16800(14) 0.09099(12) 0.76047(12)
C106_16 C 0.17189(13) 0.11086(10) 0.73727(15)
H47_16 H 0.1622 0.1295 0.7377
C107_16 C 0.2175(5) 0.0281(4) 0.7363(4)
C108_16 C 0.1495(2) 0.1002(2) 0.7854(3)
N23_16 N 0.1947(2) 0.1586(2) 0.65619(19)
N24_16 N 0.1950(2) 0.12083(19) 0.6908(2)
H48_16 H 0.2107 0.1155 0.6805
O50_16 O 0.1344(2) 0.12388(19) 0.78634(18)
O51_8 O 0.38156(19) 0.31950(18) 0.3759(2)
O52_16 O 0.31950(18) 0.1241(2) 0.11844(19)
O53_8 O 0.18050(18) 0.1241(2) 0.38156(19)
O54_8 O 0.0830(2) 0.1468(2) 0.3327(2)
O55_12 O 0.1468(2) 0.3327(2) 0.0830(2)
O56_8 O 0.45697(16) 0.21710(19) 0.23858(19)
O57_8 O 0.28290(19) 0.26142(19) 0.45697(16)
O58_8 O 0.5234(2) 0.2868(3) 0.2654(2)
O59_8 O 0.2346(2) 0.5234(2) 0.2132(3)
O60_8 O 0.5234(2) 0.2132(3) 0.2346(2)
O61_8 O 0.2868(3) 0.2654(2) 0.5234(2)
O63_8 O 0.51042(18) 0.2455(3) 0.2839(3)
O64_8 O 0.2161(3) 0.51042(18) 0.2545(3)
O65_8 O 0.51042(18) 0.2545(3) 0.2161(3)
O66_8 O 0.2455(3) 0.2839(3) 0.51042(18)
O73_8 O 0.38819(14) 0.11181(14) 0.11181(14)
O74_8 O 0.38819(14) 0.38819(14) 0.38819(14)
C10_8 C 0.9293(3) 0.1044(2) 0.4314(2)
C11_8 C 0.96348(14) 0.14660(13) 0.43994(14)
C12_8 C 0.96287(15) 0.17393(15) 0.45410(15)
H4_8 H 0.9466 0.1790 0.4664
C13_8 C 0.98607(18) 0.19380(11) 0.45022(16)
C16_8 C 0.98727(15) 0.13914(10) 0.42189(13)
H6_8 H 0.9877 0.1205 0.4122
C17_8 C 0.9863(4) 0.2219(4) 0.4675(5)
N3_8 N 0.90619(19) 0.0914(2) 0.4447(2)
N4_8 N 0.9408(2) 0.12917(19) 0.4450(2)
H8_8 H 0.9305 0.1345 0.4607
O5_8 O 0.9632(3) 0.2266(2) 0.4846(2)
C37_8 C 0.8956(2) 0.0686(2) 0.4293(3)
C38_8 C 0.85340(13) 0.06006(14) 0.46348(14)
C39_8 C 0.82607(15) 0.04590(15) 0.46287(15)
H17_8 H 0.8210 0.0336 0.4466
C40_8 C 0.80620(11) 0.04978(16) 0.48607(18)
C41_8 C 0.81366(12) 0.06783(16) 0.50987(15)
H18_8 H 0.8001 0.0705 0.5257
C42_8 C 0.84099(12) 0.08200(14) 0.51047(12)
C43_8 C 0.86086(10) 0.07811(13) 0.48727(15)
H19_8 H 0.8795 0.0878 0.4877
C44_8 C 0.7781(4) 0.0325(5) 0.4863(4)
C45_8 C 0.8502(2) 0.1005(2) 0.5354(3)
N9_8 N 0.9086(2) 0.0553(2) 0.40619(19)
N10_8 N 0.87083(19) 0.0550(2) 0.4408(2)
H20_8 H 0.8655 0.0393 0.4305
O18_8 O 0.7734(2) 0.0154(2) 0.4632(3)
O19_8 O 0.76042(18) 0.0339(3) 0.5045(3)
O21_8 O 0.87388(19) 0.1156(2) 0.53634(18)
C46_8 C 0.9314(2) 0.0707(3) 0.3956(2)
C47_8 C 0.93994(14) 0.03652(14) 0.35340(13)
C48_8 C 0.95410(15) 0.03713(15) 0.32607(15)
H21_8 H 0.9664 0.0534 0.3210
C49_8 C 0.95022(16) 0.01393(18) 0.30620(11)
C52_8 C 0.92189(13) 0.01273(15) 0.36086(10)
H23_8 H 0.9122 0.0123 0.3795
C53_8 C 0.9675(5) 0.0137(4) 0.2781(4)
N11_8 N 0.9447(2) 0.09381(19) 0.4086(2)
N12_8 N 0.9450(2) 0.0592(2) 0.37083(19)
H24_8 H 0.9607 0.0695 0.3655
O22_8 O 0.9846(2) 0.0368(3) 0.2734(2)
C50_8 C 0.93217(16) 0.99013(15) 0.31366(12)
H22_8 H 0.9295 0.9743 0.3001
C51_8 C 0.91800(14) 0.98953(12) 0.34099(12)
C54_8 C 0.8995(2) 0.9646(3) 0.3502(2)
O23_8 O 0.9661(3) 0.9955(3) 0.26042(18)
O24_8 O 0.90098(19) 0.94113(19) 0.33307(17)
O25_8 O 0.8844(2) 0.96366(18) 0.37388(19)
Zn18_8 Zn 0.87550(4) 0.91089(4) 0.35290(4)
C55_13 C 0.3435(2) 0.1563(2) 0.3089(3)
C56_13 C 0.37700(14) 0.15224(15) 0.26454(13)
C57_13 C 0.37632(13) 0.14063(14) 0.23603(15)
H25_13 H 0.3614 0.1268 0.2307
C58_13 C 0.39741(15) 0.14932(16) 0.21536(12)
C59_13 C 0.41920(14) 0.16962(17) 0.22320(14)
H26_13 H 0.4336 0.1756 0.2091
C60_13 C 0.41988(13) 0.18123(15) 0.25170(16)
C61_13 C 0.39879(14) 0.17254(15) 0.27238(11)
H27_13 H 0.3993 0.1805 0.2919
C62_13 C 0.3976(3) 0.1362(3) 0.1862(3)
C63_13 C 0.4412(2) 0.2036(3) 0.2617(3)
N13_13 N 0.3186(2) 0.14393(17) 0.3196(2)
N14_13 N 0.3538(2) 0.1435(2) 0.28312(19)
H28_13 H 0.3444 0.1274 0.2775
O26_13 O 0.3759(2) 0.11844(19) 0.18050(18)
O27_13 O 0.4170(2) 0.1468(2) 0.1673(2)
O29_13 O 0.44405(16) 0.2115(2) 0.2854(2)
C64_13 C 0.3089(3) 0.1565(2) 0.3437(2)
C65_13 C 0.26454(13) 0.12300(14) 0.34776(15)
C66_13 C 0.23603(15) 0.12368(13) 0.35937(14)
H29_13 H 0.2307 0.1386 0.3732
C67_13 C 0.21536(12) 0.10259(15) 0.35068(16)
C68_13 C 0.22320(14) 0.08080(14) 0.33038(17)
H30_13 H 0.2091 0.0664 0.3244
C69_13 C 0.25170(16) 0.08012(13) 0.31877(15)
C70_13 C 0.27238(11) 0.10121(14) 0.32746(15)
H31_13 H 0.2919 0.1007 0.3195
C71_13 C 0.1862(3) 0.1024(3) 0.3638(3)
C72_13 C 0.2617(3) 0.0588(2) 0.2964(3)
N15_13 N 0.3196(2) 0.1814(2) 0.35607(17)
N16_13 N 0.28312(19) 0.1462(2) 0.3565(2)
H32_13 H 0.2775 0.1556 0.3726
O32_13 O 0.1673(2) 0.0830(2) 0.3532(2)
O33_13 O 0.23858(19) 0.04303(16) 0.28290(19)
O34_13 O 0.2854(2) 0.05595(16) 0.2885(2)
C73_13 C 0.3437(2) 0.1911(3) 0.3435(2)
C74_13 C 0.34776(15) 0.23546(13) 0.37700(14)
C75_13 C 0.35937(14) 0.26397(15) 0.37632(13)
H33_13 H 0.3732 0.2693 0.3614
C76_13 C 0.35068(16) 0.28464(12) 0.39741(15)
C77_13 C 0.33038(17) 0.27680(14) 0.41920(14)
H34_13 H 0.3244 0.2909 0.4336
C78_13 C 0.31877(15) 0.24830(16) 0.41988(13)
C79_13 C 0.32746(15) 0.22762(11) 0.39879(14)
H35_13 H 0.3195 0.2081 0.3993
C80_13 C 0.3638(3) 0.3138(3) 0.3976(3)
C81_13 C 0.2964(3) 0.2383(3) 0.4412(2)
N17_13 N 0.35607(17) 0.1804(2) 0.3186(2)
N18_13 N 0.3565(2) 0.21688(19) 0.3538(2)
H36_13 H 0.3726 0.2225 0.3444
O36_13 O 0.3532(2) 0.3327(2) 0.4170(2)
O38_13 O 0.2885(2) 0.2146(2) 0.44405(16)
C82_17 C 0.1814(2) 0.6456(2) 0.1793(3)
C83_17 C 0.18994(14) 0.60340(13) 0.21348(14)
C84_17 C 0.20410(15) 0.57607(15) 0.21287(15)
H37_17 H 0.2164 0.5710 0.1966
C85_17 C 0.20022(16) 0.55620(11) 0.23607(18)
C86_17 C 0.18217(16) 0.56366(12) 0.25987(15)
H38_17 H 0.1795 0.5501 0.2757
C87_17 C 0.16800(14) 0.59099(12) 0.26047(12)
C88_17 C 0.17189(13) 0.61086(10) 0.23727(15)
H39_17 H 0.1622 0.6295 0.2377
C89_17 C 0.2175(5) 0.5281(4) 0.2363(4)
C90_17 C 0.1495(2) 0.6002(2) 0.2854(3)
N19_17 N 0.1947(2) 0.6586(2) 0.15619(19)
N20_17 N 0.1950(2) 0.62083(19) 0.1908(2)
H40_17 H 0.2107 0.6155 0.1805
O42_17 O 0.1344(2) 0.62388(19) 0.28634(18)
C91_17 C 0.1793(3) 0.6814(2) 0.1456(2)
C92_17 C 0.21348(14) 0.68994(14) 0.10340(13)
C93_17 C 0.21287(15) 0.70410(15) 0.07607(15)
H41_17 H 0.1966 0.7164 0.0710
C94_17 C 0.23607(18) 0.70022(16) 0.05620(11)
C95_17 C 0.25987(15) 0.68217(16) 0.06366(12)
H42_17 H 0.2757 0.6795 0.0501
C96_17 C 0.26047(12) 0.66800(14) 0.09099(12)
C97_17 C 0.23727(15) 0.67189(13) 0.11086(10)
H43_17 H 0.2377 0.6622 0.1295
C98_17 C 0.2363(4) 0.7175(5) 0.0281(4)
C99_17 C 0.2854(3) 0.6495(2) 0.1002(2)
N21_17 N 0.15619(19) 0.6947(2) 0.1586(2)
N22_17 N 0.1908(2) 0.6950(2) 0.12083(19)
H44_17 H 0.1805 0.7107 0.1155
O43_17 O 0.2132(3) 0.7346(2) 0.0234(2)
O44_17 O 0.2545(3) 0.7161(3) 0.01042(18)
O46_17 O 0.28634(18) 0.6344(2) 0.12388(19)
C100_17 C 0.1456(2) 0.6793(3) 0.1814(2)
C101_17 C 0.10340(13) 0.71348(14) 0.18994(14)
C102_17 C 0.07607(15) 0.71287(15) 0.20410(15)
H45_17 H 0.0710 0.6966 0.2164
C103_17 C 0.05620(11) 0.73607(18) 0.20022(16)
C104_17 C 0.06366(12) 0.75987(15) 0.18217(16)
H46_17 H 0.0501 0.7757 0.1795
C105_17 C 0.09099(12) 0.76047(12) 0.16800(14)
C106_17 C 0.11086(10) 0.73727(15) 0.17189(13)
H47_17 H 0.1295 0.7377 0.1622
C107_17 C 0.0281(4) 0.7363(4) 0.2175(5)
C108_17 C 0.1002(2) 0.7854(3) 0.1495(2)
N23_17 N 0.1586(2) 0.65619(19) 0.1947(2)
N24_17 N 0.12083(19) 0.6908(2) 0.1950(2)
H48_17 H 0.1155 0.6805 0.2107
O50_17 O 0.12388(19) 0.78634(18) 0.1344(2)
O52_17 O 0.1241(2) 0.11844(19) 0.31950(18)
O55_13 O 0.3327(2) 0.0830(2) 0.1468(2)
C82_18 C 0.3186(2) 0.1456(2) 0.8207(3)
C83_18 C 0.31006(14) 0.10340(13) 0.78652(14)
C84_18 C 0.29590(15) 0.07607(15) 0.78713(15)
H37_18 H 0.2836 0.0710 0.8034
C85_18 C 0.29978(16) 0.05620(11) 0.76393(18)
C86_18 C 0.31783(16) 0.06366(12) 0.74013(15)
H38_18 H 0.3205 0.0501 0.7243
C87_18 C 0.33200(14) 0.09099(12) 0.73953(12)
C88_18 C 0.32811(13) 0.11086(10) 0.76273(15)
H39_18 H 0.3378 0.1295 0.7623
C89_18 C 0.2825(5) 0.0281(4) 0.7637(4)
C90_18 C 0.3505(2) 0.1002(2) 0.7146(3)
N19_18 N 0.3053(2) 0.1586(2) 0.84381(19)
N20_18 N 0.3050(2) 0.12083(19) 0.8092(2)
H40_18 H 0.2893 0.1155 0.8195
O42_18 O 0.3656(2) 0.12388(19) 0.71366(18)
C91_18 C 0.3207(3) 0.1814(2) 0.8544(2)
C92_18 C 0.28652(14) 0.18994(14) 0.89660(13)
C93_18 C 0.28713(15) 0.20410(15) 0.92393(15)
H41_18 H 0.3034 0.2164 0.9290
C94_18 C 0.26393(18) 0.20022(16) 0.94380(11)
C95_18 C 0.24013(15) 0.18217(16) 0.93634(12)
H42_18 H 0.2243 0.1795 0.9499
C96_18 C 0.23953(12) 0.16800(14) 0.90901(12)
C97_18 C 0.26273(15) 0.17189(13) 0.88914(10)
H43_18 H 0.2623 0.1622 0.8705
C98_18 C 0.2637(4) 0.2175(5) 0.9719(4)
C99_18 C 0.2146(3) 0.1495(2) 0.8998(2)
N21_18 N 0.34381(19) 0.1947(2) 0.8414(2)
N22_18 N 0.3092(2) 0.1950(2) 0.87917(19)
H44_18 H 0.3195 0.2107 0.8845
O43_18 O 0.2868(3) 0.2346(2) 0.9766(2)
O44_18 O 0.2455(3) 0.2161(3) 0.98958(18)
O46_18 O 0.21366(18) 0.1344(2) 0.87612(19)
C100_18 C 0.3544(2) 0.1793(3) 0.8186(2)
C101_18 C 0.39660(13) 0.21348(14) 0.81006(14)
C102_18 C 0.42393(15) 0.21287(15) 0.79590(15)
H45_18 H 0.4290 0.1966 0.7836
C103_18 C 0.44380(11) 0.23607(18) 0.79978(16)
C104_18 C 0.43634(12) 0.25987(15) 0.81783(16)
H46_18 H 0.4499 0.2757 0.8205
C105_18 C 0.40901(12) 0.26047(12) 0.83200(14)
C106_18 C 0.38914(10) 0.23727(15) 0.82811(13)
H47_18 H 0.3705 0.2377 0.8378
C107_18 C 0.4719(4) 0.2363(4) 0.7825(5)
C108_18 C 0.3998(2) 0.2854(3) 0.8505(2)
N23_18 N 0.3414(2) 0.15619(19) 0.8053(2)
N24_18 N 0.37917(19) 0.1908(2) 0.8050(2)
H48_18 H 0.3845 0.1805 0.7893
O50_18 O 0.37612(19) 0.28634(18) 0.8656(2)
C55_14 C 0.1565(2) 0.6563(2) 0.6911(3)
C56_14 C 0.12300(14) 0.65224(15) 0.73546(13)
C57_14 C 0.12368(13) 0.64063(14) 0.76397(15)
H25_14 H 0.1386 0.6268 0.7693
C58_14 C 0.10259(15) 0.64932(16) 0.78464(12)
C59_14 C 0.08080(14) 0.66962(17) 0.77680(14)
H26_14 H 0.0664 0.6756 0.7909
C60_14 C 0.08012(13) 0.68123(15) 0.74830(16)
C61_14 C 0.10121(14) 0.67254(15) 0.72762(11)
H27_14 H 0.1007 0.6805 0.7081
C62_14 C 0.1024(3) 0.6362(3) 0.8138(3)
C63_14 C 0.0588(2) 0.7036(3) 0.7383(3)
N13_14 N 0.1814(2) 0.64393(17) 0.6804(2)
N14_14 N 0.1462(2) 0.6435(2) 0.71688(19)
H28_14 H 0.1556 0.6274 0.7225
O26_14 O 0.1241(2) 0.61844(19) 0.81950(18)
O27_14 O 0.0830(2) 0.6468(2) 0.8327(2)
O29_14 O 0.05595(16) 0.7115(2) 0.7146(2)
C64_14 C 0.1911(3) 0.6565(2) 0.6563(2)
C65_14 C 0.23546(13) 0.62300(14) 0.65224(15)
C66_14 C 0.26397(15) 0.62368(13) 0.64063(14)
H29_14 H 0.2693 0.6386 0.6268
C67_14 C 0.28464(12) 0.60259(15) 0.64932(16)
C68_14 C 0.27680(14) 0.58080(14) 0.66962(17)
H30_14 H 0.2909 0.5664 0.6756
C69_14 C 0.24830(16) 0.58012(13) 0.68123(15)
C70_14 C 0.22762(11) 0.60121(14) 0.67254(15)
H31_14 H 0.2081 0.6007 0.6805
C71_14 C 0.3138(3) 0.6024(3) 0.6362(3)
C72_14 C 0.2383(3) 0.5588(2) 0.7036(3)
N15_14 N 0.1804(2) 0.6814(2) 0.64393(17)
N16_14 N 0.21688(19) 0.6462(2) 0.6435(2)
H32_14 H 0.2225 0.6556 0.6274
O32_14 O 0.3327(2) 0.5830(2) 0.6468(2)
O33_14 O 0.26142(19) 0.54303(16) 0.71710(19)
O34_14 O 0.2146(2) 0.55595(16) 0.7115(2)
C73_14 C 0.1563(2) 0.6911(3) 0.6565(2)
C74_14 C 0.15224(15) 0.73546(13) 0.62300(14)
C75_14 C 0.14063(14) 0.76397(15) 0.62368(13)
H33_14 H 0.1268 0.7693 0.6386
C76_14 C 0.14932(16) 0.78464(12) 0.60259(15)
C77_14 C 0.16962(17) 0.77680(14) 0.58080(14)
H34_14 H 0.1756 0.7909 0.5664
C78_14 C 0.18123(15) 0.74830(16) 0.58012(13)
C79_14 C 0.17254(15) 0.72762(11) 0.60121(14)
H35_14 H 0.1805 0.7081 0.6007
C80_14 C 0.1362(3) 0.8138(3) 0.6024(3)
C81_14 C 0.2036(3) 0.7383(3) 0.5588(2)
N17_14 N 0.14393(17) 0.6804(2) 0.6814(2)
N18_14 N 0.1435(2) 0.71688(19) 0.6462(2)
H36_14 H 0.1274 0.7225 0.6556
O36_14 O 0.1468(2) 0.8327(2) 0.5830(2)
O38_14 O 0.2115(2) 0.7146(2) 0.55595(16)
O52_18 O 0.3759(2) 0.61844(19) 0.68050(18)
O55_14 O 0.1673(2) 0.5830(2) 0.8532(2)
C55_15 C 0.6565(2) 0.3437(2) 0.8089(3)
C56_15 C 0.62300(14) 0.34776(15) 0.76454(13)
C57_15 C 0.62368(13) 0.35937(14) 0.73603(15)
H25_15 H 0.6386 0.3732 0.7307
C58_15 C 0.60259(15) 0.35068(16) 0.71536(12)
C59_15 C 0.58080(14) 0.33038(17) 0.72320(14)
H26_15 H 0.5664 0.3244 0.7091
C60_15 C 0.58012(13) 0.31877(15) 0.75170(16)
C61_15 C 0.60121(14) 0.32746(15) 0.77238(11)
H27_15 H 0.6007 0.3195 0.7919
C62_15 C 0.6024(3) 0.3638(3) 0.6862(3)
C63_15 C 0.5588(2) 0.2964(3) 0.7617(3)
N13_15 N 0.6814(2) 0.35607(17) 0.8196(2)
N14_15 N 0.6462(2) 0.3565(2) 0.78312(19)
H28_15 H 0.6556 0.3726 0.7775
O26_15 O 0.6241(2) 0.38156(19) 0.68050(18)
O27_15 O 0.5830(2) 0.3532(2) 0.6673(2)
O29_15 O 0.55595(16) 0.2885(2) 0.7854(2)
C64_15 C 0.6911(3) 0.3435(2) 0.8437(2)
C65_15 C 0.73546(13) 0.37700(14) 0.84776(15)
C66_15 C 0.76397(15) 0.37632(13) 0.85937(14)
H29_15 H 0.7693 0.3614 0.8732
C67_15 C 0.78464(12) 0.39741(15) 0.85068(16)
C68_15 C 0.77680(14) 0.41920(14) 0.83038(17)
H30_15 H 0.7909 0.4336 0.8244
C69_15 C 0.74830(16) 0.41988(13) 0.81877(15)
C70_15 C 0.72762(11) 0.39879(14) 0.82746(15)
H31_15 H 0.7081 0.3993 0.8195
C71_15 C 0.8138(3) 0.3976(3) 0.8638(3)
C72_15 C 0.7383(3) 0.4412(2) 0.7964(3)
N15_15 N 0.6804(2) 0.3186(2) 0.85607(17)
N16_15 N 0.71688(19) 0.3538(2) 0.8565(2)
H32_15 H 0.7225 0.3444 0.8726
O32_15 O 0.8327(2) 0.4170(2) 0.8532(2)
O33_15 O 0.76142(19) 0.45697(16) 0.78290(19)
O34_15 O 0.7146(2) 0.44405(16) 0.7885(2)
C73_15 C 0.6563(2) 0.3089(3) 0.8435(2)
C74_15 C 0.65224(15) 0.26454(13) 0.87700(14)
C75_15 C 0.64063(14) 0.23603(15) 0.87632(13)
H33_15 H 0.6268 0.2307 0.8614
C76_15 C 0.64932(16) 0.21536(12) 0.89741(15)
C77_15 C 0.66962(17) 0.22320(14) 0.91920(14)
H34_15 H 0.6756 0.2091 0.9336
C78_15 C 0.68123(15) 0.25170(16) 0.91988(13)
C79_15 C 0.67254(15) 0.27238(11) 0.89879(14)
H35_15 H 0.6805 0.2919 0.8993
C80_15 C 0.6362(3) 0.1862(3) 0.8976(3)
C81_15 C 0.7036(3) 0.2617(3) 0.9412(2)
N17_15 N 0.64393(17) 0.3196(2) 0.8186(2)
N18_15 N 0.6435(2) 0.28312(19) 0.8538(2)
H36_15 H 0.6274 0.2775 0.8444
O36_15 O 0.6468(2) 0.1673(2) 0.9170(2)
O38_15 O 0.7115(2) 0.2854(2) 0.94405(16)
O52_19 O 0.8759(2) 0.38156(19) 0.81950(18)
O55_15 O 0.6673(2) 0.4170(2) 0.6468(2)
C82_19 C 0.8186(2) 0.8544(2) 0.6793(3)
C83_19 C 0.81006(14) 0.89660(13) 0.71348(14)
C84_19 C 0.79590(15) 0.92393(15) 0.71287(15)
H37_19 H 0.7836 0.9290 0.6966
C85_19 C 0.79978(16) 0.94380(11) 0.73607(18)
C86_19 C 0.81783(16) 0.93634(12) 0.75987(15)
H38_19 H 0.8205 0.9499 0.7757
C87_19 C 0.83200(14) 0.90901(12) 0.76047(12)
C88_19 C 0.82811(13) 0.88914(10) 0.73727(15)
H39_19 H 0.8378 0.8705 0.7377
C89_19 C 0.7825(5) 0.9719(4) 0.7363(4)
C90_19 C 0.8505(2) 0.8998(2) 0.7854(3)
N19_19 N 0.8053(2) 0.8414(2) 0.65619(19)
N20_19 N 0.8050(2) 0.87917(19) 0.6908(2)
H40_19 H 0.7893 0.8845 0.6805
O42_19 O 0.8656(2) 0.87612(19) 0.78634(18)
C91_19 C 0.8207(3) 0.8186(2) 0.6456(2)
C92_19 C 0.78652(14) 0.81006(14) 0.60340(13)
C93_19 C 0.78713(15) 0.79590(15) 0.57607(15)
H41_19 H 0.8034 0.7836 0.5710
C94_19 C 0.76393(18) 0.79978(16) 0.55620(11)
C95_19 C 0.74013(15) 0.81783(16) 0.56366(12)
H42_19 H 0.7243 0.8205 0.5501
C96_19 C 0.73953(12) 0.83200(14) 0.59099(12)
C97_19 C 0.76273(15) 0.82811(13) 0.61086(10)
H43_19 H 0.7623 0.8378 0.6295
C98_19 C 0.7637(4) 0.7825(5) 0.5281(4)
C99_19 C 0.7146(3) 0.8505(2) 0.6002(2)
N21_19 N 0.84381(19) 0.8053(2) 0.6586(2)
N22_19 N 0.8092(2) 0.8050(2) 0.62083(19)
H44_19 H 0.8195 0.7893 0.6155
O43_19 O 0.7868(3) 0.7654(2) 0.5234(2)
O44_19 O 0.7455(3) 0.7839(3) 0.51042(18)
O46_19 O 0.71366(18) 0.8656(2) 0.62388(19)
C100_19 C 0.8544(2) 0.8207(3) 0.6814(2)
C101_19 C 0.89660(13) 0.78652(14) 0.68994(14)
C102_19 C 0.92393(15) 0.78713(15) 0.70410(15)
H45_19 H 0.9290 0.8034 0.7164
C103_19 C 0.94380(11) 0.76393(18) 0.70022(16)
C104_19 C 0.93634(12) 0.74013(15) 0.68217(16)
H46_19 H 0.9499 0.7243 0.6795
C105_19 C 0.90901(12) 0.73953(12) 0.66800(14)
C106_19 C 0.88914(10) 0.76273(15) 0.67189(13)
H47_19 H 0.8705 0.7623 0.6622
C107_19 C 0.9719(4) 0.7637(4) 0.7175(5)
C108_19 C 0.8998(2) 0.7146(3) 0.6495(2)
N23_19 N 0.8414(2) 0.84381(19) 0.6947(2)
N24_19 N 0.87917(19) 0.8092(2) 0.6950(2)
H48_19 H 0.8845 0.8195 0.7107
O50_19 O 0.87612(19) 0.71366(18) 0.6344(2)
C55_16 C 0.8435(2) 0.8437(2) 0.1911(3)
C56_16 C 0.87700(14) 0.84776(15) 0.23546(13)
C57_16 C 0.87632(13) 0.85937(14) 0.26397(15)
H25_16 H 0.8614 0.8732 0.2693
C58_16 C 0.89741(15) 0.85068(16) 0.28464(12)
C59_16 C 0.91920(14) 0.83038(17) 0.27680(14)
H26_16 H 0.9336 0.8244 0.2909
C60_16 C 0.91988(13) 0.81877(15) 0.24830(16)
C61_16 C 0.89879(14) 0.82746(15) 0.22762(11)
H27_16 H 0.8993 0.8195 0.2081
C62_16 C 0.8976(3) 0.8638(3) 0.3138(3)
C63_16 C 0.9412(2) 0.7964(3) 0.2383(3)
N13_16 N 0.8186(2) 0.85607(17) 0.1804(2)
N14_16 N 0.8538(2) 0.8565(2) 0.21688(19)
H28_16 H 0.8444 0.8726 0.2225
O26_16 O 0.8759(2) 0.88156(19) 0.31950(18)
O27_16 O 0.9170(2) 0.8532(2) 0.3327(2)
O29_16 O 0.94405(16) 0.7885(2) 0.2146(2)
C64_16 C 0.8089(3) 0.8435(2) 0.1563(2)
C65_16 C 0.76454(13) 0.87700(14) 0.15224(15)
C66_16 C 0.73603(15) 0.87632(13) 0.14063(14)
H29_16 H 0.7307 0.8614 0.1268
C67_16 C 0.71536(12) 0.89741(15) 0.14932(16)
C68_16 C 0.72320(14) 0.91920(14) 0.16962(17)
H30_16 H 0.7091 0.9336 0.1756
C69_16 C 0.75170(16) 0.91988(13) 0.18123(15)
C70_16 C 0.77238(11) 0.89879(14) 0.17254(15)
H31_16 H 0.7919 0.8993 0.1805
C71_16 C 0.6862(3) 0.8976(3) 0.1362(3)
C72_16 C 0.7617(3) 0.9412(2) 0.2036(3)
N15_16 N 0.8196(2) 0.8186(2) 0.14393(17)
N16_16 N 0.78312(19) 0.8538(2) 0.1435(2)
H32_16 H 0.7775 0.8444 0.1274
O32_16 O 0.6673(2) 0.9170(2) 0.1468(2)
O33_16 O 0.73858(19) 0.95697(16) 0.21710(19)
O34_16 O 0.7854(2) 0.94405(16) 0.2115(2)
C73_16 C 0.8437(2) 0.8089(3) 0.1565(2)
C74_16 C 0.84776(15) 0.76454(13) 0.12300(14)
C75_16 C 0.85937(14) 0.73603(15) 0.12368(13)
H33_16 H 0.8732 0.7307 0.1386
C76_16 C 0.85068(16) 0.71536(12) 0.10259(15)
C77_16 C 0.83038(17) 0.72320(14) 0.08080(14)
H34_16 H 0.8244 0.7091 0.0664
C78_16 C 0.81877(15) 0.75170(16) 0.08012(13)
C79_16 C 0.82746(15) 0.77238(11) 0.10121(14)
H35_16 H 0.8195 0.7919 0.1007
C80_16 C 0.8638(3) 0.6862(3) 0.1024(3)
C81_16 C 0.7964(3) 0.7617(3) 0.0588(2)
N17_16 N 0.85607(17) 0.8196(2) 0.1814(2)
N18_16 N 0.8565(2) 0.78312(19) 0.1462(2)
H36_16 H 0.8726 0.7775 0.1556
O36_16 O 0.8532(2) 0.6673(2) 0.0830(2)
O38_16 O 0.7885(2) 0.7854(2) 0.05595(16)
C82_20 C 0.6814(2) 0.3544(2) 0.3207(3)
C83_20 C 0.68994(14) 0.39660(13) 0.28652(14)
C84_20 C 0.70410(15) 0.42393(15) 0.28713(15)
H37_20 H 0.7164 0.4290 0.3034
C85_20 C 0.70022(16) 0.44380(11) 0.26393(18)
C86_20 C 0.68217(16) 0.43634(12) 0.24013(15)
H38_20 H 0.6795 0.4499 0.2243
C87_20 C 0.66800(14) 0.40901(12) 0.23953(12)
C88_20 C 0.67189(13) 0.38914(10) 0.26273(15)
H39_20 H 0.6622 0.3705 0.2623
C89_20 C 0.7175(5) 0.4719(4) 0.2637(4)
C90_20 C 0.6495(2) 0.3998(2) 0.2146(3)
N19_20 N 0.6947(2) 0.3414(2) 0.34381(19)
N20_20 N 0.6950(2) 0.37917(19) 0.3092(2)
H40_20 H 0.7107 0.3845 0.3195
O42_20 O 0.6344(2) 0.37612(19) 0.21366(18)
C91_20 C 0.6793(3) 0.3186(2) 0.3544(2)
C92_20 C 0.71348(14) 0.31006(14) 0.39660(13)
C93_20 C 0.71287(15) 0.29590(15) 0.42393(15)
H41_20 H 0.6966 0.2836 0.4290
C94_20 C 0.73607(18) 0.29978(16) 0.44380(11)
C95_20 C 0.75987(15) 0.31783(16) 0.43634(12)
H42_20 H 0.7757 0.3205 0.4499
C96_20 C 0.76047(12) 0.33200(14) 0.40901(12)
C97_20 C 0.73727(15) 0.32811(13) 0.38914(10)
H43_20 H 0.7377 0.3378 0.3705
C98_20 C 0.7363(4) 0.2825(5) 0.4719(4)
C99_20 C 0.7854(3) 0.3505(2) 0.3998(2)
N21_20 N 0.65619(19) 0.3053(2) 0.3414(2)
N22_20 N 0.6908(2) 0.3050(2) 0.37917(19)
H44_20 H 0.6805 0.2893 0.3845
O43_20 O 0.7132(3) 0.2654(2) 0.4766(2)
O44_20 O 0.7545(3) 0.2839(3) 0.48958(18)
O46_20 O 0.78634(18) 0.3656(2) 0.37612(19)
C100_20 C 0.6456(2) 0.3207(3) 0.3186(2)
C101_20 C 0.60340(13) 0.28652(14) 0.31006(14)
C102_20 C 0.57607(15) 0.28713(15) 0.29590(15)
H45_20 H 0.5710 0.3034 0.2836
C103_20 C 0.55620(11) 0.26393(18) 0.29978(16)
C104_20 C 0.56366(12) 0.24013(15) 0.31783(16)
H46_20 H 0.5501 0.2243 0.3205
C105_20 C 0.59099(12) 0.23953(12) 0.33200(14)
C106_20 C 0.61086(10) 0.26273(15) 0.32811(13)
H47_20 H 0.6295 0.2623 0.3378
C107_20 C 0.5281(4) 0.2637(4) 0.2825(5)
C108_20 C 0.6002(2) 0.2146(3) 0.3505(2)
N23_20 N 0.6586(2) 0.34381(19) 0.3053(2)
N24_20 N 0.62083(19) 0.3092(2) 0.3050(2)
H48_20 H 0.6155 0.3195 0.2893
O50_20 O 0.62388(19) 0.21366(18) 0.3656(2)
O52_20 O 0.6241(2) 0.88156(19) 0.18050(18)
O55_16 O 0.8327(2) 0.9170(2) 0.3532(2)
C82_21 C 0.1456(2) 0.8207(3) 0.3186(2)
C83_21 C 0.10340(13) 0.78652(14) 0.31006(14)
C84_21 C 0.07607(15) 0.78713(15) 0.29590(15)
H37_21 H 0.0710 0.8034 0.2836
C85_21 C 0.05620(11) 0.76393(18) 0.29978(16)
C86_21 C 0.06366(12) 0.74013(15) 0.31783(16)
H38_21 H 0.0501 0.7243 0.3205
C87_21 C 0.09099(12) 0.73953(12) 0.33200(14)
C88_21 C 0.11086(10) 0.76273(15) 0.32811(13)
H39_21 H 0.1295 0.7623 0.3378
C89_21 C 0.0281(4) 0.7637(4) 0.2825(5)
C90_21 C 0.1002(2) 0.7146(3) 0.3505(2)
N19_21 N 0.1586(2) 0.84381(19) 0.3053(2)
N20_21 N 0.12083(19) 0.8092(2) 0.3050(2)
H40_21 H 0.1155 0.8195 0.2893
O42_21 O 0.12388(19) 0.71366(18) 0.3656(2)
C91_21 C 0.1814(2) 0.8544(2) 0.3207(3)
C92_21 C 0.18994(14) 0.89660(13) 0.28652(14)
C93_21 C 0.20410(15) 0.92393(15) 0.28713(15)
H41_21 H 0.2164 0.9290 0.3034
C94_21 C 0.20022(16) 0.94380(11) 0.26393(18)
C95_21 C 0.18217(16) 0.93634(12) 0.24013(15)
H42_21 H 0.1795 0.9499 0.2243
C96_21 C 0.16800(14) 0.90901(12) 0.23953(12)
C97_21 C 0.17189(13) 0.88914(10) 0.26273(15)
H43_21 H 0.1622 0.8705 0.2623
C98_21 C 0.2175(5) 0.9719(4) 0.2637(4)
C99_21 C 0.1495(2) 0.8998(2) 0.2146(3)
N21_21 N 0.1947(2) 0.8414(2) 0.34381(19)
N22_21 N 0.1950(2) 0.87917(19) 0.3092(2)
H44_21 H 0.2107 0.8845 0.3195
O43_21 O 0.2346(2) 0.9766(2) 0.2868(3)
O44_21 O 0.2161(3) 0.98958(18) 0.2455(3)
O46_21 O 0.1344(2) 0.87612(19) 0.21366(18)
C100_21 C 0.1793(3) 0.8186(2) 0.3544(2)
C101_21 C 0.21348(14) 0.81006(14) 0.39660(13)
C102_21 C 0.21287(15) 0.79590(15) 0.42393(15)
H45_21 H 0.1966 0.7836 0.4290
C103_21 C 0.23607(18) 0.79978(16) 0.44380(11)
C104_21 C 0.25987(15) 0.81783(16) 0.43634(12)
H46_21 H 0.2757 0.8205 0.4499
C105_21 C 0.26047(12) 0.83200(14) 0.40901(12)
C106_21 C 0.23727(15) 0.82811(13) 0.38914(10)
H47_21 H 0.2377 0.8378 0.3705
C107_21 C 0.2363(4) 0.7825(5) 0.4719(4)
C108_21 C 0.2854(3) 0.8505(2) 0.3998(2)
N23_21 N 0.15619(19) 0.8053(2) 0.3414(2)
N24_21 N 0.1908(2) 0.8050(2) 0.37917(19)
H48_21 H 0.1805 0.7893 0.3845
O50_21 O 0.28634(18) 0.8656(2) 0.37612(19)
O52_21 O 0.61844(19) 0.68050(18) 0.3759(2)
C82_22 C 0.6456(2) 0.1793(3) 0.1814(2)
C83_22 C 0.60340(13) 0.21348(14) 0.18994(14)
C84_22 C 0.57607(15) 0.21287(15) 0.20410(15)
H37_22 H 0.5710 0.1966 0.2164
C85_22 C 0.55620(11) 0.23607(18) 0.20022(16)
C86_22 C 0.56366(12) 0.25987(15) 0.18217(16)
H38_22 H 0.5501 0.2757 0.1795
C87_22 C 0.59099(12) 0.26047(12) 0.16800(14)
C88_22 C 0.61086(10) 0.23727(15) 0.17189(13)
H39_22 H 0.6295 0.2377 0.1622
C89_22 C 0.5281(4) 0.2363(4) 0.2175(5)
C90_22 C 0.6002(2) 0.2854(3) 0.1495(2)
N19_22 N 0.6586(2) 0.15619(19) 0.1947(2)
N20_22 N 0.62083(19) 0.1908(2) 0.1950(2)
H40_22 H 0.6155 0.1805 0.2107
O42_22 O 0.62388(19) 0.28634(18) 0.1344(2)
C91_22 C 0.6814(2) 0.1456(2) 0.1793(3)
C92_22 C 0.68994(14) 0.10340(13) 0.21348(14)
C93_22 C 0.70410(15) 0.07607(15) 0.21287(15)
H41_22 H 0.7164 0.0710 0.1966
C94_22 C 0.70022(16) 0.05620(11) 0.23607(18)
C95_22 C 0.68217(16) 0.06366(12) 0.25987(15)
H42_22 H 0.6795 0.0501 0.2757
C96_22 C 0.66800(14) 0.09099(12) 0.26047(12)
C97_22 C 0.67189(13) 0.11086(10) 0.23727(15)
H43_22 H 0.6622 0.1295 0.2377
C98_22 C 0.7175(5) 0.0281(4) 0.2363(4)
C99_22 C 0.6495(2) 0.1002(2) 0.2854(3)
N21_22 N 0.6947(2) 0.1586(2) 0.15619(19)
N22_22 N 0.6950(2) 0.12083(19) 0.1908(2)
H44_22 H 0.7107 0.1155 0.1805
O43_22 O 0.7346(2) 0.0234(2) 0.2132(3)
O44_22 O 0.7161(3) 0.01042(18) 0.2545(3)
O46_22 O 0.6344(2) 0.12388(19) 0.28634(18)
C100_22 C 0.6793(3) 0.1814(2) 0.1456(2)
C101_22 C 0.71348(14) 0.18994(14) 0.10340(13)
C102_22 C 0.71287(15) 0.20410(15) 0.07607(15)
H45_22 H 0.6966 0.2164 0.0710
C103_22 C 0.73607(18) 0.20022(16) 0.05620(11)
C104_22 C 0.75987(15) 0.18217(16) 0.06366(12)
H46_22 H 0.7757 0.1795 0.0501
C105_22 C 0.76047(12) 0.16800(14) 0.09099(12)
C106_22 C 0.73727(15) 0.17189(13) 0.11086(10)
H47_22 H 0.7377 0.1622 0.1295
C107_22 C 0.7363(4) 0.2175(5) 0.0281(4)
C108_22 C 0.7854(3) 0.1495(2) 0.1002(2)
N23_22 N 0.65619(19) 0.1947(2) 0.1586(2)
N24_22 N 0.6908(2) 0.1950(2) 0.12083(19)
H48_22 H 0.6805 0.2107 0.1155
O50_22 O 0.78634(18) 0.1344(2) 0.12388(19)
O52_22 O 0.11844(19) 0.31950(18) 0.1241(2)
C82_23 C 0.3544(2) 0.3207(3) 0.6814(2)
C83_23 C 0.39660(13) 0.28652(14) 0.68994(14)
C84_23 C 0.42393(15) 0.28713(15) 0.70410(15)
H37_23 H 0.4290 0.3034 0.7164
C85_23 C 0.44380(11) 0.26393(18) 0.70022(16)
C86_23 C 0.43634(12) 0.24013(15) 0.68217(16)
H38_23 H 0.4499 0.2243 0.6795
C87_23 C 0.40901(12) 0.23953(12) 0.66800(14)
C88_23 C 0.38914(10) 0.26273(15) 0.67189(13)
H39_23 H 0.3705 0.2623 0.6622
C89_23 C 0.4719(4) 0.2637(4) 0.7175(5)
C90_23 C 0.3998(2) 0.2146(3) 0.6495(2)
N19_23 N 0.3414(2) 0.34381(19) 0.6947(2)
N20_23 N 0.37917(19) 0.3092(2) 0.6950(2)
H40_23 H 0.3845 0.3195 0.7107
O42_23 O 0.37612(19) 0.21366(18) 0.6344(2)
C91_23 C 0.3186(2) 0.3544(2) 0.6793(3)
C92_23 C 0.31006(14) 0.39660(13) 0.71348(14)
C93_23 C 0.29590(15) 0.42393(15) 0.71287(15)
H41_23 H 0.2836 0.4290 0.6966
C94_23 C 0.29978(16) 0.44380(11) 0.73607(18)
C95_23 C 0.31783(16) 0.43634(12) 0.75987(15)
H42_23 H 0.3205 0.4499 0.7757
C96_23 C 0.33200(14) 0.40901(12) 0.76047(12)
C97_23 C 0.32811(13) 0.38914(10) 0.73727(15)
H43_23 H 0.3378 0.3705 0.7377
C98_23 C 0.2825(5) 0.4719(4) 0.7363(4)
C99_23 C 0.3505(2) 0.3998(2) 0.7854(3)
N21_23 N 0.3053(2) 0.3414(2) 0.65619(19)
N22_23 N 0.3050(2) 0.37917(19) 0.6908(2)
H44_23 H 0.2893 0.3845 0.6805
O43_23 O 0.2654(2) 0.4766(2) 0.7132(3)
O44_23 O 0.2839(3) 0.48958(18) 0.7545(3)
O46_23 O 0.3656(2) 0.37612(19) 0.78634(18)
C100_23 C 0.3207(3) 0.3186(2) 0.6456(2)
C101_23 C 0.28652(14) 0.31006(14) 0.60340(13)
C102_23 C 0.28713(15) 0.29590(15) 0.57607(15)
H45_23 H 0.3034 0.2836 0.5710
C103_23 C 0.26393(18) 0.29978(16) 0.55620(11)
C104_23 C 0.24013(15) 0.31783(16) 0.56366(12)
H46_23 H 0.2243 0.3205 0.5501
C105_23 C 0.23953(12) 0.33200(14) 0.59099(12)
C106_23 C 0.26273(15) 0.32811(13) 0.61086(10)
H47_23 H 0.2623 0.3378 0.6295
C107_23 C 0.2637(4) 0.2825(5) 0.5281(4)
C108_23 C 0.2146(3) 0.3505(2) 0.6002(2)
N23_23 N 0.34381(19) 0.3053(2) 0.6586(2)
N24_23 N 0.3092(2) 0.3050(2) 0.62083(19)
H48_23 H 0.3195 0.2893 0.6155
O50_23 O 0.21366(18) 0.3656(2) 0.62388(19)
O52_23 O 0.88156(19) 0.18050(18) 0.6241(2)
O52_24 O 0.38156(19) 0.81950(18) 0.8759(2)
C82_24 C 0.8544(2) 0.6793(3) 0.8186(2)
C83_24 C 0.89660(13) 0.71348(14) 0.81006(14)
C84_24 C 0.92393(15) 0.71287(15) 0.79590(15)
H37_24 H 0.9290 0.6966 0.7836
C85_24 C 0.94380(11) 0.73607(18) 0.79978(16)
C86_24 C 0.93634(12) 0.75987(15) 0.81783(16)
H38_24 H 0.9499 0.7757 0.8205
C87_24 C 0.90901(12) 0.76047(12) 0.83200(14)
C88_24 C 0.88914(10) 0.73727(15) 0.82811(13)
H39_24 H 0.8705 0.7377 0.8378
C89_24 C 0.9719(4) 0.7363(4) 0.7825(5)
C90_24 C 0.8998(2) 0.7854(3) 0.8505(2)
N19_24 N 0.8414(2) 0.65619(19) 0.8053(2)
N20_24 N 0.87917(19) 0.6908(2) 0.8050(2)
H40_24 H 0.8845 0.6805 0.7893
O42_24 O 0.87612(19) 0.78634(18) 0.8656(2)
C91_24 C 0.8186(2) 0.6456(2) 0.8207(3)
C92_24 C 0.81006(14) 0.60340(13) 0.78652(14)
C93_24 C 0.79590(15) 0.57607(15) 0.78713(15)
H41_24 H 0.7836 0.5710 0.8034
C94_24 C 0.79978(16) 0.55620(11) 0.76393(18)
C95_24 C 0.81783(16) 0.56366(12) 0.74013(15)
H42_24 H 0.8205 0.5501 0.7243
C96_24 C 0.83200(14) 0.59099(12) 0.73953(12)
C97_24 C 0.82811(13) 0.61086(10) 0.76273(15)
H43_24 H 0.8378 0.6295 0.7623
C98_24 C 0.7825(5) 0.5281(4) 0.7637(4)
C99_24 C 0.8505(2) 0.6002(2) 0.7146(3)
N21_24 N 0.8053(2) 0.6586(2) 0.84381(19)
N22_24 N 0.8050(2) 0.62083(19) 0.8092(2)
H44_24 H 0.7893 0.6155 0.8195
O43_24 O 0.7654(2) 0.5234(2) 0.7868(3)
O44_24 O 0.7839(3) 0.51042(18) 0.7455(3)
O46_24 O 0.8656(2) 0.62388(19) 0.71366(18)
C100_24 C 0.8207(3) 0.6814(2) 0.8544(2)
C101_24 C 0.78652(14) 0.68994(14) 0.89660(13)
C102_24 C 0.78713(15) 0.70410(15) 0.92393(15)
H45_24 H 0.8034 0.7164 0.9290
C103_24 C 0.76393(18) 0.70022(16) 0.94380(11)
C104_24 C 0.74013(15) 0.68217(16) 0.93634(12)
H46_24 H 0.7243 0.6795 0.9499
C105_24 C 0.73953(12) 0.66800(14) 0.90901(12)
C106_24 C 0.76273(15) 0.67189(13) 0.88914(10)
H47_24 H 0.7623 0.6622 0.8705
C107_24 C 0.7637(4) 0.7175(5) 0.9719(4)
C108_24 C 0.7146(3) 0.6495(2) 0.8998(2)
N23_24 N 0.84381(19) 0.6947(2) 0.8414(2)
N24_24 N 0.8092(2) 0.6950(2) 0.87917(19)
H48_24 H 0.8195 0.7107 0.8845
O50_24 O 0.71366(18) 0.6344(2) 0.87612(19)
C57_17 C 0.62632(13) 0.01397(15) 0.39063(14)
H25_17 H 0.6114 0.0193 0.3768
C58_17 C 0.64741(15) 0.03464(12) 0.39932(16)
C59_17 C 0.66920(14) 0.02680(14) 0.41962(17)
H26_17 H 0.6836 0.0409 0.4256
C62_17 C 0.6476(3) 0.0638(3) 0.3862(3)
O28_9 O 0.70697(16) 0.01142(19) 0.46710(19)
C55_17 C 0.5935(2) 0.9411(3) 0.4063(2)
C56_17 C 0.62700(14) 0.98546(13) 0.40224(15)
C60_17 C 0.66988(13) 0.99830(16) 0.43123(15)
C61_17 C 0.64879(14) 0.97762(11) 0.42254(15)
H27_17 H 0.6493 0.9581 0.4305
C63_17 C 0.6912(2) 0.9883(3) 0.4536(3)
N13_17 N 0.5686(2) 0.9304(2) 0.39393(17)
N14_17 N 0.6038(2) 0.96688(19) 0.3935(2)
H28_17 H 0.5944 0.9725 0.3774
O29_17 O 0.69405(16) 0.9646(2) 0.4615(2)
C64_17 C 0.5589(3) 0.9063(2) 0.4065(2)
C65_17 C 0.51454(13) 0.90224(15) 0.37300(14)
C66_17 C 0.48603(15) 0.89063(14) 0.37368(13)
H29_17 H 0.4807 0.8768 0.3886
C67_17 C 0.46536(12) 0.89932(16) 0.35259(15)
C68_17 C 0.47320(14) 0.91962(17) 0.33080(14)
H30_17 H 0.4591 0.9256 0.3164
C69_17 C 0.50170(16) 0.93123(15) 0.33012(13)
C70_17 C 0.52238(11) 0.92254(15) 0.35121(14)
H31_17 H 0.5419 0.9305 0.3507
C71_17 C 0.4362(3) 0.8862(3) 0.3524(3)
C72_17 C 0.5117(3) 0.9536(3) 0.3088(2)
N15_17 N 0.5696(2) 0.89393(17) 0.4314(2)
N16_17 N 0.53312(19) 0.8935(2) 0.3962(2)
H32_17 H 0.5275 0.8774 0.4056
O33_17 O 0.48858(19) 0.96710(19) 0.29303(16)
O34_17 O 0.5354(2) 0.9615(2) 0.30595(16)
C73_17 C 0.5937(2) 0.9065(2) 0.4411(3)
C74_17 C 0.59776(15) 0.87300(14) 0.48546(13)
C75_17 C 0.60937(14) 0.87368(13) 0.51397(15)
H33_17 H 0.6232 0.8886 0.5193
C76_17 C 0.60068(16) 0.85259(15) 0.53464(12)
C77_17 C 0.58038(17) 0.83080(14) 0.52680(14)
H34_17 H 0.5744 0.8164 0.5409
C78_17 C 0.56877(15) 0.83012(13) 0.49830(16)
C79_17 C 0.57746(15) 0.85121(14) 0.47762(11)
H35_17 H 0.5695 0.8507 0.4581
C80_17 C 0.6138(3) 0.8524(3) 0.5638(3)
C81_17 C 0.5464(3) 0.8088(2) 0.4883(3)
N17_17 N 0.60607(17) 0.9314(2) 0.4304(2)
N18_17 N 0.6065(2) 0.8962(2) 0.46688(19)
H36_17 H 0.6226 0.9056 0.4725
O37_9 O 0.53290(19) 0.79303(16) 0.51142(19)
O38_17 O 0.5385(2) 0.80595(16) 0.4646(2)
C75_18 C 0.39063(14) 0.62632(13) 0.01397(15)
H33_18 H 0.3768 0.6114 0.0193
C76_18 C 0.39932(16) 0.64741(15) 0.03464(12)
C77_18 C 0.41962(17) 0.66920(14) 0.02680(14)
H34_18 H 0.4256 0.6836 0.0409
C80_18 C 0.3862(3) 0.6476(3) 0.0638(3)
O37_10 O 0.46710(19) 0.70697(16) 0.01142(19)
C55_18 C 0.4065(2) 0.5589(3) 0.9063(2)
C56_18 C 0.37300(14) 0.51454(13) 0.90224(15)
C57_18 C 0.37368(13) 0.48603(15) 0.89063(14)
H25_18 H 0.3886 0.4807 0.8768
C58_18 C 0.35259(15) 0.46536(12) 0.89932(16)
C59_18 C 0.33080(14) 0.47320(14) 0.91962(17)
H26_18 H 0.3164 0.4591 0.9256
C60_18 C 0.33012(13) 0.50170(16) 0.93123(15)
C61_18 C 0.35121(14) 0.52238(11) 0.92254(15)
H27_18 H 0.3507 0.5419 0.9305
C62_18 C 0.3524(3) 0.4362(3) 0.8862(3)
C63_18 C 0.3088(2) 0.5117(3) 0.9536(3)
N13_18 N 0.4314(2) 0.5696(2) 0.89393(17)
N14_18 N 0.3962(2) 0.53312(19) 0.8935(2)
H28_18 H 0.4056 0.5275 0.8774
O28_10 O 0.29303(16) 0.48858(19) 0.96710(19)
O29_18 O 0.30595(16) 0.5354(2) 0.9615(2)
C64_18 C 0.4411(3) 0.5937(2) 0.9065(2)
C65_18 C 0.48546(13) 0.59776(15) 0.87300(14)
C66_18 C 0.51397(15) 0.60937(14) 0.87368(13)
H29_18 H 0.5193 0.6232 0.8886
C67_18 C 0.53464(12) 0.60068(16) 0.85259(15)
C68_18 C 0.52680(14) 0.58038(17) 0.83080(14)
H30_18 H 0.5409 0.5744 0.8164
C69_18 C 0.49830(16) 0.56877(15) 0.83012(13)
C70_18 C 0.47762(11) 0.57746(15) 0.85121(14)
H31_18 H 0.4581 0.5695 0.8507
C71_18 C 0.5638(3) 0.6138(3) 0.8524(3)
C72_18 C 0.4883(3) 0.5464(3) 0.8088(2)
N15_18 N 0.4304(2) 0.60607(17) 0.9314(2)
N16_18 N 0.46688(19) 0.6065(2) 0.8962(2)
H32_18 H 0.4725 0.6226 0.9056
O33_18 O 0.51142(19) 0.53290(19) 0.79303(16)
O34_18 O 0.4646(2) 0.5385(2) 0.80595(16)
C73_18 C 0.4063(2) 0.5935(2) 0.9411(3)
C74_18 C 0.40224(15) 0.62700(14) 0.98546(13)
C78_18 C 0.43123(15) 0.66988(13) 0.99830(16)
C79_18 C 0.42254(15) 0.64879(14) 0.97762(11)
H35_18 H 0.4305 0.6493 0.9581
C81_18 C 0.4536(3) 0.6912(2) 0.9883(3)
N17_18 N 0.39393(17) 0.5686(2) 0.9304(2)
N18_18 N 0.3935(2) 0.6038(2) 0.96688(19)
H36_18 H 0.3774 0.5944 0.9725
O38_18 O 0.4615(2) 0.69405(16) 0.9646(2)
C66_19 C 0.01397(15) 0.39063(14) 0.62632(13)
H29_19 H 0.0193 0.3768 0.6114
C67_19 C 0.03464(12) 0.39932(16) 0.64741(15)
C68_19 C 0.02680(14) 0.41962(17) 0.66920(14)
H30_19 H 0.0409 0.4256 0.6836
C71_19 C 0.0638(3) 0.3862(3) 0.6476(3)
O33_19 O 0.01142(19) 0.46710(19) 0.70697(16)
C55_19 C 0.9065(2) 0.4411(3) 0.5937(2)
C56_19 C 0.87300(14) 0.48546(13) 0.59776(15)
C57_19 C 0.87368(13) 0.51397(15) 0.60937(14)
H25_19 H 0.8886 0.5193 0.6232
C58_19 C 0.85259(15) 0.53464(12) 0.60068(16)
C59_19 C 0.83080(14) 0.52680(14) 0.58038(17)
H26_19 H 0.8164 0.5409 0.5744
C60_19 C 0.83012(13) 0.49830(16) 0.56877(15)
C61_19 C 0.85121(14) 0.47762(11) 0.57746(15)
H27_19 H 0.8507 0.4581 0.5695
C62_19 C 0.8524(3) 0.5638(3) 0.6138(3)
C63_19 C 0.8088(2) 0.4883(3) 0.5464(3)
N13_19 N 0.9314(2) 0.4304(2) 0.60607(17)
N14_19 N 0.8962(2) 0.46688(19) 0.6065(2)
H28_19 H 0.9056 0.4725 0.6226
O28_11 O 0.79303(16) 0.51142(19) 0.53290(19)
O29_19 O 0.80595(16) 0.4646(2) 0.5385(2)
C64_19 C 0.9411(3) 0.4063(2) 0.5935(2)
C65_19 C 0.98546(13) 0.40224(15) 0.62700(14)
C69_19 C 0.99830(16) 0.43123(15) 0.66988(13)
C70_19 C 0.97762(11) 0.42254(15) 0.64879(14)
H31_19 H 0.9581 0.4305 0.6493
C72_19 C 0.9883(3) 0.4536(3) 0.6912(2)
N15_19 N 0.9304(2) 0.39393(17) 0.5686(2)
N16_19 N 0.96688(19) 0.3935(2) 0.6038(2)
H32_19 H 0.9725 0.3774 0.5944
O34_19 O 0.9646(2) 0.4615(2) 0.69405(16)
C73_19 C 0.9063(2) 0.4065(2) 0.5589(3)
C74_19 C 0.90224(15) 0.37300(14) 0.51454(13)
C75_19 C 0.89063(14) 0.37368(13) 0.48603(15)
H33_19 H 0.8768 0.3886 0.4807
C76_19 C 0.89932(16) 0.35259(15) 0.46536(12)
C77_19 C 0.91962(17) 0.33080(14) 0.47320(14)
H34_19 H 0.9256 0.3164 0.4591
C78_19 C 0.93123(15) 0.33012(13) 0.50170(16)
C79_19 C 0.92254(15) 0.35121(14) 0.52238(11)
H35_19 H 0.9305 0.3507 0.5419
C80_19 C 0.8862(3) 0.3524(3) 0.4362(3)
C81_19 C 0.9536(3) 0.3088(2) 0.5117(3)
N17_19 N 0.89393(17) 0.4314(2) 0.5696(2)
N18_19 N 0.8935(2) 0.3962(2) 0.53312(19)
H36_19 H 0.8774 0.4056 0.5275
O37_11 O 0.96710(19) 0.29303(16) 0.48858(19)
O38_19 O 0.9615(2) 0.30595(16) 0.5354(2)
C55_20 C 0.0935(2) 0.0589(3) 0.0937(2)
C56_20 C 0.12700(14) 0.01454(13) 0.09776(15)
C60_20 C 0.16988(13) 0.00170(16) 0.06877(15)
C61_20 C 0.14879(14) 0.02238(11) 0.07746(15)
H27_20 H 0.1493 0.0419 0.0695
C63_20 C 0.1912(2) 0.0117(3) 0.0464(3)
N13_20 N 0.0686(2) 0.0696(2) 0.10607(17)
N14_20 N 0.1038(2) 0.03312(19) 0.1065(2)
H28_20 H 0.0944 0.0275 0.1226
O29_20 O 0.19405(16) 0.0354(2) 0.0385(2)
C64_20 C 0.0589(3) 0.0937(2) 0.0935(2)
C65_20 C 0.01454(13) 0.09776(15) 0.12700(14)
C69_20 C 0.00170(16) 0.06877(15) 0.16988(13)
C70_20 C 0.02238(11) 0.07746(15) 0.14879(14)
H31_20 H 0.0419 0.0695 0.1493
C72_20 C 0.0117(3) 0.0464(3) 0.1912(2)
N15_20 N 0.0696(2) 0.10607(17) 0.0686(2)
N16_20 N 0.03312(19) 0.1065(2) 0.1038(2)
H32_20 H 0.0275 0.1226 0.0944
O34_20 O 0.0354(2) 0.0385(2) 0.19405(16)
C73_20 C 0.0937(2) 0.0935(2) 0.0589(3)
C74_20 C 0.09776(15) 0.12700(14) 0.01454(13)
C78_20 C 0.06877(15) 0.16988(13) 0.00170(16)
C79_20 C 0.07746(15) 0.14879(14) 0.02238(11)
H35_20 H 0.0695 0.1493 0.0419
C81_20 C 0.0464(3) 0.1912(2) 0.0117(3)
N17_20 N 0.10607(17) 0.0686(2) 0.0696(2)
N18_20 N 0.1065(2) 0.1038(2) 0.03312(19)
H36_20 H 0.1226 0.0944 0.0275
O38_20 O 0.0385(2) 0.19405(16) 0.0354(2)
C75_20 C 0.10937(14) 0.12632(13) 0.98603(15)
H33_20 H 0.1232 0.1114 0.9807
C76_20 C 0.10068(16) 0.14741(15) 0.96536(12)
C77_20 C 0.08038(17) 0.16920(14) 0.97320(14)
H34_20 H 0.0744 0.1836 0.9591
C80_20 C 0.1138(3) 0.1476(3) 0.9362(3)
O37_12 O 0.03290(19) 0.20697(16) 0.98858(19)
C57_20 C 0.12632(13) 0.98603(15) 0.10937(14)
H25_20 H 0.1114 0.9807 0.1232
C58_20 C 0.14741(15) 0.96536(12) 0.10068(16)
C59_20 C 0.16920(14) 0.97320(14) 0.08038(17)
H26_20 H 0.1836 0.9591 0.0744
C62_20 C 0.1476(3) 0.9362(3) 0.1138(3)
O28_12 O 0.20697(16) 0.98858(19) 0.03290(19)
C66_20 C 0.98603(15) 0.10937(14) 0.12632(13)
H29_20 H 0.9807 0.1232 0.1114
C67_20 C 0.96536(12) 0.10068(16) 0.14741(15)
C68_20 C 0.97320(14) 0.08038(17) 0.16920(14)
H30_20 H 0.9591 0.0744 0.1836
C71_20 C 0.9362(3) 0.1138(3) 0.1476(3)
O33_20 O 0.98858(19) 0.03290(19) 0.20697(16)
O56_9 O 0.04303(16) 0.21710(19) 0.26142(19)
O57_9 O 0.21710(19) 0.26142(19) 0.04303(16)
O56_10 O 0.95697(16) 0.28290(19) 0.76142(19)
O57_10 O 0.78290(19) 0.23858(19) 0.54303(16)
O56_11 O 0.54303(16) 0.78290(19) 0.23858(19)
O57_11 O 0.71710(19) 0.73858(19) 0.45697(16)
O56_12 O 0.45697(16) 0.71710(19) 0.73858(19)
O57_12 O 0.28290(19) 0.76142(19) 0.95697(16)
C55_21 C 0.3435(2) 0.6563(2) 0.8089(3)
C56_21 C 0.37700(14) 0.65224(15) 0.76454(13)
C57_21 C 0.37632(13) 0.64063(14) 0.73603(15)
H25_21 H 0.3614 0.6268 0.7307
C58_21 C 0.39741(15) 0.64932(16) 0.71536(12)
C59_21 C 0.41920(14) 0.66962(17) 0.72320(14)
H26_21 H 0.4336 0.6756 0.7091
C60_21 C 0.41988(13) 0.68123(15) 0.75170(16)
C61_21 C 0.39879(14) 0.67254(15) 0.77238(11)
H27_21 H 0.3993 0.6805 0.7919
C62_21 C 0.3976(3) 0.6362(3) 0.6862(3)
C63_21 C 0.4412(2) 0.7036(3) 0.7617(3)
N13_21 N 0.3186(2) 0.64393(17) 0.8196(2)
N14_21 N 0.3538(2) 0.6435(2) 0.78312(19)
H28_21 H 0.3444 0.6274 0.7775
O29_21 O 0.44405(16) 0.7115(2) 0.7854(2)
C64_21 C 0.3089(3) 0.6565(2) 0.8437(2)
C65_21 C 0.26454(13) 0.62300(14) 0.84776(15)
C66_21 C 0.23603(15) 0.62368(13) 0.85937(14)
H29_21 H 0.2307 0.6386 0.8732
C67_21 C 0.21536(12) 0.60259(15) 0.85068(16)
C68_21 C 0.22320(14) 0.58080(14) 0.83038(17)
H30_21 H 0.2091 0.5664 0.8244
C69_21 C 0.25170(16) 0.58012(13) 0.81877(15)
C70_21 C 0.27238(11) 0.60121(14) 0.82746(15)
H31_21 H 0.2919 0.6007 0.8195
C71_21 C 0.1862(3) 0.6024(3) 0.8638(3)
C72_21 C 0.2617(3) 0.5588(2) 0.7964(3)
N15_21 N 0.3196(2) 0.6814(2) 0.85607(17)
N16_21 N 0.28312(19) 0.6462(2) 0.8565(2)
H32_21 H 0.2775 0.6556 0.8726
O33_21 O 0.23858(19) 0.54303(16) 0.78290(19)
O34_21 O 0.2854(2) 0.55595(16) 0.7885(2)
C73_21 C 0.3437(2) 0.6911(3) 0.8435(2)
C74_21 C 0.34776(15) 0.73546(13) 0.87700(14)
C75_21 C 0.35937(14) 0.76397(15) 0.87632(13)
H33_21 H 0.3732 0.7693 0.8614
C76_21 C 0.35068(16) 0.78464(12) 0.89741(15)
C77_21 C 0.33038(17) 0.77680(14) 0.91920(14)
H34_21 H 0.3244 0.7909 0.9336
C78_21 C 0.31877(15) 0.74830(16) 0.91988(13)
C79_21 C 0.32746(15) 0.72762(11) 0.89879(14)
H35_21 H 0.3195 0.7081 0.8993
C80_21 C 0.3638(3) 0.8138(3) 0.8976(3)
C81_21 C 0.2964(3) 0.7383(3) 0.9412(2)
N17_21 N 0.35607(17) 0.6804(2) 0.8186(2)
N18_21 N 0.3565(2) 0.71688(19) 0.8538(2)
H36_21 H 0.3726 0.7225 0.8444
O38_21 O 0.2885(2) 0.7146(2) 0.94405(16)
C55_22 C 0.1565(2) 0.1563(2) 0.1911(3)
C56_22 C 0.12300(14) 0.15224(15) 0.23546(13)
C57_22 C 0.12368(13) 0.14063(14) 0.26397(15)
H25_22 H 0.1386 0.1268 0.2693
C58_22 C 0.10259(15) 0.14932(16) 0.28464(12)
C59_22 C 0.08080(14) 0.16962(17) 0.27680(14)
H26_22 H 0.0664 0.1756 0.2909
C60_22 C 0.08012(13) 0.18123(15) 0.24830(16)
C61_22 C 0.10121(14) 0.17254(15) 0.22762(11)
H27_22 H 0.1007 0.1805 0.2081
C62_22 C 0.1024(3) 0.1362(3) 0.3138(3)
C63_22 C 0.0588(2) 0.2036(3) 0.2383(3)
N13_22 N 0.1814(2) 0.14393(17) 0.1804(2)
N14_22 N 0.1462(2) 0.1435(2) 0.21688(19)
H28_22 H 0.1556 0.1274 0.2225
O29_22 O 0.05595(16) 0.2115(2) 0.2146(2)
C64_22 C 0.1911(3) 0.1565(2) 0.1563(2)
C65_22 C 0.23546(13) 0.12300(14) 0.15224(15)
C66_22 C 0.26397(15) 0.12368(13) 0.14063(14)
H29_22 H 0.2693 0.1386 0.1268
C67_22 C 0.28464(12) 0.10259(15) 0.14932(16)
C68_22 C 0.27680(14) 0.08080(14) 0.16962(17)
H30_22 H 0.2909 0.0664 0.1756
C69_22 C 0.24830(16) 0.08012(13) 0.18123(15)
C70_22 C 0.22762(11) 0.10121(14) 0.17254(15)
H31_22 H 0.2081 0.1007 0.1805
C71_22 C 0.3138(3) 0.1024(3) 0.1362(3)
C72_22 C 0.2383(3) 0.0588(2) 0.2036(3)
N15_22 N 0.1804(2) 0.1814(2) 0.14393(17)
N16_22 N 0.21688(19) 0.1462(2) 0.1435(2)
H32_22 H 0.2225 0.1556 0.1274
O33_22 O 0.26142(19) 0.04303(16) 0.21710(19)
O34_22 O 0.2146(2) 0.05595(16) 0.2115(2)
C73_22 C 0.1563(2) 0.1911(3) 0.1565(2)
C74_22 C 0.15224(15) 0.23546(13) 0.12300(14)
C75_22 C 0.14063(14) 0.26397(15) 0.12368(13)
H33_22 H 0.1268 0.2693 0.1386
C76_22 C 0.14932(16) 0.28464(12) 0.10259(15)
C77_22 C 0.16962(17) 0.27680(14) 0.08080(14)
H34_22 H 0.1756 0.2909 0.0664
C78_22 C 0.18123(15) 0.24830(16) 0.08012(13)
C79_22 C 0.17254(15) 0.22762(11) 0.10121(14)
H35_22 H 0.1805 0.2081 0.1007
C80_22 C 0.1362(3) 0.3138(3) 0.1024(3)
C81_22 C 0.2036(3) 0.2383(3) 0.0588(2)
N17_22 N 0.14393(17) 0.1804(2) 0.1814(2)
N18_22 N 0.1435(2) 0.21688(19) 0.1462(2)
H36_22 H 0.1274 0.2225 0.1556
O38_22 O 0.2115(2) 0.2146(2) 0.05595(16)
C55_23 C 0.6565(2) 0.8437(2) 0.3089(3)
C56_23 C 0.62300(14) 0.84776(15) 0.26454(13)
C57_23 C 0.62368(13) 0.85937(14) 0.23603(15)
H25_23 H 0.6386 0.8732 0.2307
C58_23 C 0.60259(15) 0.85068(16) 0.21536(12)
C59_23 C 0.58080(14) 0.83038(17) 0.22320(14)
H26_23 H 0.5664 0.8244 0.2091
C60_23 C 0.58012(13) 0.81877(15) 0.25170(16)
C61_23 C 0.60121(14) 0.82746(15) 0.27238(11)
H27_23 H 0.6007 0.8195 0.2919
C62_23 C 0.6024(3) 0.8638(3) 0.1862(3)
C63_23 C 0.5588(2) 0.7964(3) 0.2617(3)
N13_23 N 0.6814(2) 0.85607(17) 0.3196(2)
N14_23 N 0.6462(2) 0.8565(2) 0.28312(19)
H28_23 H 0.6556 0.8726 0.2775
O29_23 O 0.55595(16) 0.7885(2) 0.2854(2)
C64_23 C 0.6911(3) 0.8435(2) 0.3437(2)
C65_23 C 0.73546(13) 0.87700(14) 0.34776(15)
C66_23 C 0.76397(15) 0.87632(13) 0.35937(14)
H29_23 H 0.7693 0.8614 0.3732
C67_23 C 0.78464(12) 0.89741(15) 0.35068(16)
C68_23 C 0.77680(14) 0.91920(14) 0.33038(17)
H30_23 H 0.7909 0.9336 0.3244
C69_23 C 0.74830(16) 0.91988(13) 0.31877(15)
C70_23 C 0.72762(11) 0.89879(14) 0.32746(15)
H31_23 H 0.7081 0.8993 0.3195
C71_23 C 0.8138(3) 0.8976(3) 0.3638(3)
C72_23 C 0.7383(3) 0.9412(2) 0.2964(3)
N15_23 N 0.6804(2) 0.8186(2) 0.35607(17)
N16_23 N 0.71688(19) 0.8538(2) 0.3565(2)
H32_23 H 0.7225 0.8444 0.3726
O33_23 O 0.76142(19) 0.95697(16) 0.28290(19)
O34_23 O 0.7146(2) 0.94405(16) 0.2885(2)
C73_23 C 0.6563(2) 0.8089(3) 0.3435(2)
C74_23 C 0.65224(15) 0.76454(13) 0.37700(14)
C75_23 C 0.64063(14) 0.73603(15) 0.37632(13)
H33_23 H 0.6268 0.7307 0.3614
C76_23 C 0.64932(16) 0.71536(12) 0.39741(15)
C77_23 C 0.66962(17) 0.72320(14) 0.41920(14)
H34_23 H 0.6756 0.7091 0.4336
C78_23 C 0.68123(15) 0.75170(16) 0.41988(13)
C79_23 C 0.67254(15) 0.77238(11) 0.39879(14)
H35_23 H 0.6805 0.7919 0.3993
C80_23 C 0.6362(3) 0.6862(3) 0.3976(3)
C81_23 C 0.7036(3) 0.7617(3) 0.4412(2)
N17_23 N 0.64393(17) 0.8196(2) 0.3186(2)
N18_23 N 0.6435(2) 0.78312(19) 0.3538(2)
H36_23 H 0.6274 0.7775 0.3444
O38_23 O 0.7115(2) 0.7854(2) 0.44405(16)
C55_24 C 0.8435(2) 0.3437(2) 0.6911(3)
C56_24 C 0.87700(14) 0.34776(15) 0.73546(13)
C57_24 C 0.87632(13) 0.35937(14) 0.76397(15)
H25_24 H 0.8614 0.3732 0.7693
C58_24 C 0.89741(15) 0.35068(16) 0.78464(12)
C59_24 C 0.91920(14) 0.33038(17) 0.77680(14)
H26_24 H 0.9336 0.3244 0.7909
C60_24 C 0.91988(13) 0.31877(15) 0.74830(16)
C61_24 C 0.89879(14) 0.32746(15) 0.72762(11)
H27_24 H 0.8993 0.3195 0.7081
C62_24 C 0.8976(3) 0.3638(3) 0.8138(3)
C63_24 C 0.9412(2) 0.2964(3) 0.7383(3)
N13_24 N 0.8186(2) 0.35607(17) 0.6804(2)
N14_24 N 0.8538(2) 0.3565(2) 0.71688(19)
H28_24 H 0.8444 0.3726 0.7225
O29_24 O 0.94405(16) 0.2885(2) 0.7146(2)
C64_24 C 0.8089(3) 0.3435(2) 0.6563(2)
C65_24 C 0.76454(13) 0.37700(14) 0.65224(15)
C66_24 C 0.73603(15) 0.37632(13) 0.64063(14)
H29_24 H 0.7307 0.3614 0.6268
C67_24 C 0.71536(12) 0.39741(15) 0.64932(16)
C68_24 C 0.72320(14) 0.41920(14) 0.66962(17)
H30_24 H 0.7091 0.4336 0.6756
C69_24 C 0.75170(16) 0.41988(13) 0.68123(15)
C70_24 C 0.77238(11) 0.39879(14) 0.67254(15)
H31_24 H 0.7919 0.3993 0.6805
C71_24 C 0.6862(3) 0.3976(3) 0.6362(3)
C72_24 C 0.7617(3) 0.4412(2) 0.7036(3)
N15_24 N 0.8196(2) 0.3186(2) 0.64393(17)
N16_24 N 0.78312(19) 0.3538(2) 0.6435(2)
H32_24 H 0.7775 0.3444 0.6274
O33_24 O 0.73858(19) 0.45697(16) 0.71710(19)
O34_24 O 0.7854(2) 0.44405(16) 0.7115(2)
C73_24 C 0.8437(2) 0.3089(3) 0.6565(2)
C74_24 C 0.84776(15) 0.26454(13) 0.62300(14)
C75_24 C 0.85937(14) 0.23603(15) 0.62368(13)
H33_24 H 0.8732 0.2307 0.6386
C76_24 C 0.85068(16) 0.21536(12) 0.60259(15)
C77_24 C 0.83038(17) 0.22320(14) 0.58080(14)
H34_24 H 0.8244 0.2091 0.5664
C78_24 C 0.81877(15) 0.25170(16) 0.58012(13)
C79_24 C 0.82746(15) 0.27238(11) 0.60121(14)
H35_24 H 0.8195 0.2919 0.6007
C80_24 C 0.8638(3) 0.1862(3) 0.6024(3)
C81_24 C 0.7964(3) 0.2617(3) 0.5588(2)
N17_24 N 0.85607(17) 0.3196(2) 0.6814(2)
N18_24 N 0.8565(2) 0.28312(19) 0.6462(2)
H36_24 H 0.8726 0.2775 0.6556
O38_24 O 0.7885(2) 0.2854(2) 0.55595(16)
loop_
_geom_bond_atom_site_label_1
_geom_bond_atom_site_label_2
_geom_bond_site_symmetry_1
_geom_bond_site_symmetry_2
Zn1 O3 1_555 1_555
Zn2 O1 1_555 1_555
C1 N1 1_555 1_555
C2 C3 1_555 1_555
C3 H1 1_555 1_555
C4 C3 1_555 1_555
C5 C4 1_555 1_555
H2 C5 1_555 1_555
C6 C5 1_555 1_555
C7 C2 1_555 1_555
H3 C7 1_555 1_555
C8 C4 1_555 1_555
C9 C6 1_555 1_555
C10 N3 1_555 1_555
C11 C12 1_555 1_555
C12 H4 1_555 1_555
C13 C12 1_555 1_555
C14 C13 1_555 1_555
H5 C14 1_555 1_555
C15 C14 1_555 1_555
C16 C11 1_555 1_555
H6 C16 1_555 1_555
C17 C13 1_555 1_555
C18 C15 1_555 1_555
N1 C19 1_555 1_555
N2 C1 1_555 1_555
H7 N2 1_555 1_555
N3 C37 1_555 1_555
N4 C10 1_555 1_555
H8 N4 1_555 1_555
O1 C8 1_555 1_555
O2 C8 1_555 1_555
O3 C9 1_555 1_555
O4 C9 1_555 1_555
O5 C17 1_555 1_555
O6 C17 1_555 1_555
O7 Zn2 1_555 1_555
O8 C18 1_555 1_555
O9 Zn2 1_555 1_555
C19 N5 1_555 1_555
C25 C20 1_555 1_555
H11 C25 1_555 1_555
C27 C24 1_555 1_555
N5 C28 1_555 1_555
N6 C19 1_555 1_555
H12 N6 1_555 1_555
O13 C27 1_555 1_555
C28 N7 1_555 1_555
C29 C30 1_555 1_555
C30 H13 1_555 1_555
C31 C30 1_555 1_555
C32 C31 1_555 1_555
H14 C32 1_555 1_555
C33 C32 1_555 1_555
C34 C29 1_555 1_555
H15 C34 1_555 1_555
C35 C31 1_555 1_555
C36 C33 1_555 1_555
N7 C1 1_555 1_555
N8 C28 1_555 1_555
H16 N8 1_555 1_555
O14 C35 1_555 1_555
O15 C35 1_555 1_555
O16 C36 1_555 1_555
O17 C36 1_555 1_555
C37 N9 1_555 1_555
C38 C39 1_555 1_555
C39 H17 1_555 1_555
C40 C39 1_555 1_555
C41 C40 1_555 1_555
H18 C41 1_555 1_555
C42 C41 1_555 1_555
C43 C38 1_555 1_555
H19 C43 1_555 1_555
C44 C40 1_555 1_555
C45 C42 1_555 1_555
N9 C46 1_555 1_555
N10 C37 1_555 1_555
H20 N10 1_555 1_555
O18 C44 1_555 1_555
O19 C44 1_555 1_555
O20 C45 1_555 1_555
O21 C45 1_555 1_555
C46 N11 1_555 1_555
C47 C48 1_555 1_555
C48 H21 1_555 1_555
C49 C48 1_555 1_555
C50 C49 1_555 1_555
H22 C50 1_555 1_555
C51 C50 1_555 1_555
C52 C47 1_555 1_555
H23 C52 1_555 1_555
C53 C49 1_555 1_555
C54 C51 1_555 1_555
N11 C10 1_555 1_555
N12 C46 1_555 1_555
H24 N12 1_555 1_555
O22 C53 1_555 1_555
O23 C53 1_555 1_555
O24 C54 1_555 1_555
O25 C54 1_555 1_555
Zn3 O16 1_555 1_555
C75 H33 1_555 1_555
C76 C75 1_555 1_555
C77 C76 1_555 1_555
H34 C77 1_555 1_555
C80 C76 1_555 1_555
O35 C80 1_555 1_555
O36 C80 1_555 1_555
Zn5 O37 1_555 1_555
Zn6 O36 1_555 1_555
C82 N19 1_555 1_555
C83 C84 1_555 1_555
C84 H37 1_555 1_555
C85 C84 1_555 1_555
C86 C85 1_555 1_555
H38 C86 1_555 1_555
C87 C86 1_555 1_555
C88 C83 1_555 1_555
H39 C88 1_555 1_555
C89 C85 1_555 1_555
C90 C87 1_555 1_555
N19 C91 1_555 1_555
N20 C82 1_555 1_555
H40 N20 1_555 1_555
O39 Zn1 1_555 1_555
O40 Zn1 1_555 1_555
O41 C90 1_555 1_555
O42 C90 1_555 1_555
C91 N21 1_555 1_555
C92 C93 1_555 1_555
C93 H41 1_555 1_555
C94 C93 1_555 1_555
C95 C94 1_555 1_555
H42 C95 1_555 1_555
C96 C95 1_555 1_555
C97 C92 1_555 1_555
H43 C97 1_555 1_555
C98 C94 1_555 1_555
C99 C96 1_555 1_555
N21 C100 1_555 1_555
N22 C91 1_555 1_555
H44 N22 1_555 1_555
O43 C98 1_555 1_555
O44 C98 1_555 1_555
O45 C99 1_555 1_555
O46 C99 1_555 1_555
C100 N23 1_555 1_555
C101 C102 1_555 1_555
C102 H45 1_555 1_555
C103 C102 1_555 1_555
C104 C103 1_555 1_555
H46 C104 1_555 1_555
C105 C104 1_555 1_555
C106 C101 1_555 1_555
H47 C106 1_555 1_555
C107 C103 1_555 1_555
C108 C105 1_555 1_555
N23 C82 1_555 1_555
N24 C100 1_555 1_555
H48 N24 1_555 1_555
O47 C107 1_555 1_555
O48 C107 1_555 1_555
O49 C108 1_555 1_555
O50 C108 1_555 1_555
Zn9 O2 1_555 1_555
Zn10 O47 1_555 1_555
Zn12 O43 1_555 1_555
Zn14 O5 1_555 1_555
Zn17 O20 1_555 1_555
Zn18 O24 1_555 1_555
Zn20 O14 1_555 1_555
Zn21 O9 1_555 1_555
Zn23 O15 1_555 1_555
Zn24 O45 1_555 1_555
Zn25 O49 1_555 1_555
Zn26 O41 1_555 1_555
O51 Zn6 1_555 1_555
O53 Zn9 1_555 1_555
O54 Zn2 1_555 1_555
O57 Zn1 1_555 1_555
O58 Zn5 1_555 1_555
O61 Zn1 1_555 1_555
O62 Zn3 1_555 1_555
O63 Zn5 1_555 1_555
O64 Zn3 1_555 1_555
O66 Zn1 1_555 1_555
O69 Zn6 1_555 1_555
O72 Zn9 1_555 1_555
O74 Zn6 1_555 1_555
C2 N2 1_555 1_555
C6 C7 1_555 1_555
C11 N4 1_555 1_555
C15 C16 1_555 1_555
C18 O7 1_555 1_555
O6 Zn14 1_555 1_555
O9 Zn9 1_555 1_555
C20 N6 1_555 1_555
C24 C25 1_555 1_555
C29 N8 1_555 1_555
C33 C34 1_555 1_555
C38 N10 1_555 1_555
C42 C43 1_555 1_555
C47 N12 1_555 1_555
C51 C52 1_555 1_555
O35 Zn23 1_555 1_555
C83 N20 1_555 1_555
C87 C88 1_555 1_555
C89 O39 1_555 1_555
C89 O40 1_555 1_555
C92 N22 1_555 1_555
C96 C97 1_555 1_555
O44 Zn12 1_555 1_555
C101 N24 1_555 1_555
C105 C106 1_555 1_555
O48 Zn10 1_555 1_555
Zn20 O74 1_555 1_555
Zn23 O74 1_555 1_555
C21 H9 1_555 1_555
C22 C21 1_555 1_555
C23 C22 1_555 1_555
H10 C23 1_555 1_555
C26 C22 1_555 1_555
O10 C26 1_555 1_555
O11 C26 1_555 1_555
Zn4 O26 1_555 1_555
C55 N13 1_555 1_555
C56 C57 1_555 1_555
C57 H25 1_555 1_555
C58 C57 1_555 1_555
C59 C58 1_555 1_555
H26 C59 1_555 1_555
C60 C59 1_555 1_555
C61 C56 1_555 1_555
H27 C61 1_555 1_555
C62 C58 1_555 1_555
C63 C60 1_555 1_555
N13 C64 1_555 1_555
N14 C55 1_555 1_555
H28 N14 1_555 1_555
O26 C62 1_555 1_555
O27 C62 1_555 1_555
O28 Zn3_2 1_555 1_555
O29 C63 1_555 1_555
O30 Zn4 1_555 1_555
C64 N15 1_555 1_555
C65 C66 1_555 1_555
C66 H29 1_555 1_555
C67 C66 1_555 1_555
C68 C67 1_555 1_555
H30 C68 1_555 1_555
C69 C68 1_555 1_555
C70 C65 1_555 1_555
H31 C70 1_555 1_555
C71 C67 1_555 1_555
C72 C69 1_555 1_555
N15 C73 1_555 1_555
N16 C64 1_555 1_555
H32 N16 1_555 1_555
O31 C71 1_555 1_555
O32 C71 1_555 1_555
O33 C72 1_555 1_555
O34 C72 1_555 1_555
C73 N17 1_555 1_555
C79 C74 1_555 1_555
H35 C79 1_555 1_555
C81 C78 1_555 1_555
N17 C55 1_555 1_555
N18 C73 1_555 1_555
H36 N18 1_555 1_555
O38 C81 1_555 1_555
Zn7 O32 1_555 1_555
Zn8 O10 1_555 1_555
Zn11_2 O12 1_555 1_555
Zn15 O33 1_555 1_555
Zn19 O31 1_555 1_555
Zn22 O11 1_555 1_555
O52 Zn7 1_555 1_555
O55 Zn4 1_555 1_555
O56 Zn5_2 1_555 1_555
O59 Zn3_2 1_555 1_555
O60 Zn5_2 1_555 1_555
O65 Zn5_2 1_555 1_555
O67 Zn3_2 1_555 1_555
O68 Zn4 1_555 1_555
O70 Zn7 1_555 1_555
O71 Zn8 1_555 1_555
O73 Zn7 1_555 1_555
C56 N14 1_555 1_555
C60 C61 1_555 1_555
C63 O28 1_555 1_555
O27 Zn8 1_555 1_555
O30 Zn8 1_555 1_555
O30 Zn22 1_555 1_555
C65 N16 1_555 1_555
C69 C70 1_555 1_555
C74 N18 1_555 1_555
C78 C79 1_555 1_555
Zn19 O73 1_555 1_555
C30_2 H13_2 1_555 1_555
C31_2 C30_2 1_555 1_555
C32_2 C31_2 1_555 1_555
H14_2 C32_2 1_555 1_555
C35_2 C31_2 1_555 1_555
O14_2 C35_2 1_555 1_555
O15_2 C35_2 1_555 1_555
Zn3_3 O16_2 1_555 1_555
C55_2 N13_2 1_555 1_555
C61_2 C56_2 1_555 1_555
H27_2 C61_2 1_555 1_555
C63_2 C60_2 1_555 1_555
N13_2 C64_2 1_555 1_555
N14_2 C55_2 1_555 1_555
H28_2 N14_2 1_555 1_555
O29_2 C63_2 1_555 1_555
C64_2 N15_2 1_555 1_555
C65_2 C66_2 1_555 1_555
C66_2 H29_2 1_555 1_555
C67_2 C66_2 1_555 1_555
C68_2 C67_2 1_555 1_555
H30_2 C68_2 1_555 1_555
C69_2 C68_2 1_555 1_555
C70_2 C65_2 1_555 1_555
H31_2 C70_2 1_555 1_555
C71_2 C67_2 1_555 1_555
C72_2 C69_2 1_555 1_555
N15_2 C73_2 1_555 1_555
N16_2 C64_2 1_555 1_555
H32_2 N16_2 1_555 1_555
O31_2 C71_2 1_555 1_555
O32_2 C71_2 1_555 1_555
O33_2 C72_2 1_555 1_555
O34_2 C72_2 1_555 1_555
C73_2 N17_2 1_555 1_555
C74_2 C75_2 1_555 1_555
C75_2 H33_2 1_555 1_555
C76_2 C75_2 1_555 1_555
C77_2 C76_2 1_555 1_555
H34_2 C77_2 1_555 1_555
C78_2 C77_2 1_555 1_555
C79_2 C74_2 1_555 1_555
H35_2 C79_2 1_555 1_555
C80_2 C76_2 1_555 1_555
C81_2 C78_2 1_555 1_555
N17_2 C55_2 1_555 1_555
N18_2 C73_2 1_555 1_555
H36_2 N18_2 1_555 1_555
O35_2 C80_2 1_555 1_555
O36_2 C80_2 1_555 1_555
O37_2 C81_2 1_555 1_555
O38_2 C81_2 1_555 1_555
Zn5_3 O37_2 1_555 1_555
Zn6_2 O36_2 1_555 1_555
Zn7_2 O32_2 1_555 1_555
H38_2 C86_2 1_555 1_555
C87_2 C86_2 1_555 1_555
C90_2 C87_2 1_555 1_555
O40_2 Zn1_2 1_555 1_555
O41_2 C90_2 1_555 1_555
O42_2 C90_2 1_555 1_555
Zn15_2 O33_2 1_555 1_555
Zn19_2 O31_2 1_555 1_555
Zn20_2 O14_2 1_555 1_555
Zn23_2 O15_2 1_555 1_555
Zn26_2 O41_2 1_555 1_555
O51_2 Zn6_2 1_555 1_555
O52_2 Zn7_2 1_555 1_555
O56_2 Zn5_3 1_555 1_555
O57_2 Zn1_2 1_555 1_555
O58_2 Zn5_3 1_555 1_555
O60_2 Zn5_3 1_555 1_555
O61_2 Zn1_2 1_555 1_555
O62_2 Zn3_3 1_555 1_555
O63_2 Zn5_3 1_555 1_555
O65_2 Zn5_3 1_555 1_555
O67_2 Zn3_3 1_555 1_555
O69_2 Zn6_2 1_555 1_555
O70_2 Zn7_2 1_555 1_555
O73_2 Zn7_2 1_555 1_555
O74_2 Zn6_2 1_555 1_555
C56_2 N14_2 1_555 1_555
C60_2 C61_2 1_555 1_555
C65_2 N16_2 1_555 1_555
C69_2 C70_2 1_555 1_555
C74_2 N18_2 1_555 1_555
C78_2 C79_2 1_555 1_555
O35_2 Zn23_2 1_555 1_555
Zn19_2 O73_2 1_555 1_555
Zn20_2 O74_2 1_555 1_555
Zn23_2 O74_2 1_555 1_555
H46_2 C104_2 1_555 1_555
C105_2 C104_2 1_555 1_555
C108_2 C105_2 1_555 1_555
O49_2 C108_2 1_555 1_555
O50_2 C108_2 1_555 1_555
Zn25_2 O49_2 1_555 1_555
O48_2 Zn10_4 1_555 1_555
Zn1_3 O3_2 1_555 1_555
Zn2_2 O1_2 1_555 1_555
C1_2 N1_2 1_555 1_555
C2_2 C3_2 1_555 1_555
C3_2 H1_2 1_555 1_555
C4_2 C3_2 1_555 1_555
C5_2 C4_2 1_555 1_555
H2_2 C5_2 1_555 1_555
C6_2 C5_2 1_555 1_555
C7_2 C2_2 1_555 1_555
H3_2 C7_2 1_555 1_555
C8_2 C4_2 1_555 1_555
C9_2 C6_2 1_555 1_555
C10_2 N3_2 1_555 1_555
C11_2 C12_2 1_555 1_555
C12_2 H4_2 1_555 1_555
C13_2 C12_2 1_555 1_555
C14_2 C13_2 1_555 1_555
H5_2 C14_2 1_555 1_555
C15_2 C14_2 1_555 1_555
C16_2 C11_2 1_555 1_555
H6_2 C16_2 1_555 1_555
C17_2 C13_2 1_555 1_555
C18_2 C15_2 1_555 1_555
N1_2 C19_2 1_555 1_555
N2_2 C1_2 1_555 1_555
H7_2 N2_2 1_555 1_555
N3_2 C37_2 1_555 1_555
N4_2 C10_2 1_555 1_555
H8_2 N4_2 1_555 1_555
O1_2 C8_2 1_555 1_555
O2_2 C8_2 1_555 1_555
O3_2 C9_2 1_555 1_555
O4_2 C9_2 1_555 1_555
O5_2 C17_2 1_555 1_555
O6_2 C17_2 1_555 1_555
O7_2 Zn2_2 1_555 1_555
O8_2 C18_2 1_555 1_555
O9_2 Zn2_2 1_555 1_555
C19_2 N5_2 1_555 1_555
C20_2 C21_2 1_555 1_555
C21_2 H9_2 1_555 1_555
C22_2 C21_2 1_555 1_555
C23_2 C22_2 1_555 1_555
H10_2 C23_2 1_555 1_555
C24_2 C23_2 1_555 1_555
C25_2 C20_2 1_555 1_555
H11_2 C25_2 1_555 1_555
C26_2 C22_2 1_555 1_555
C27_2 C24_2 1_555 1_555
N5_2 C28_2 1_555 1_555
N6_2 C19_2 1_555 1_555
H12_2 N6_2 1_555 1_555
O10_2 C26_2 1_555 1_555
O11_2 C26_2 1_555 1_555
O12_2 C27_2 1_555 1_555
O13_2 C27_2 1_555 1_555
C28_2 N7_2 1_555 1_555
C34_2 C29_2 1_555 1_555
H15_2 C34_2 1_555 1_555
C36_2 C33_2 1_555 1_555
N7_2 C1_2 1_555 1_555
N8_2 C28_2 1_555 1_555
H16_2 N8_2 1_555 1_555
O17_2 C36_2 1_555 1_555
C37_2 N9_2 1_555 1_555
C38_2 C39_2 1_555 1_555
C39_2 H17_2 1_555 1_555
C40_2 C39_2 1_555 1_555
C41_2 C40_2 1_555 1_555
H18_2 C41_2 1_555 1_555
C42_2 C41_2 1_555 1_555
C43_2 C38_2 1_555 1_555
H19_2 C43_2 1_555 1_555
C44_2 C40_2 1_555 1_555
C45_2 C42_2 1_555 1_555
N9_2 C46_2 1_555 1_555
N10_2 C37_2 1_555 1_555
H20_2 N10_2 1_555 1_555
O18_2 C44_2 1_555 1_555
O19_2 C44_2 1_555 1_555
O68 C45_2 1_555 1_555
O21_2 C45_2 1_555 1_555
C46_2 N11_2 1_555 1_555
C47_2 C48_2 1_555 1_555
C48_2 H21_2 1_555 1_555
C49_2 C48_2 1_555 1_555
C50_2 C49_2 1_555 1_555
H22_2 C50_2 1_555 1_555
C51_2 C50_2 1_555 1_555
C52_2 C47_2 1_555 1_555
H23_2 C52_2 1_555 1_555
C53_2 C49_2 1_555 1_555
C54_2 C51_2 1_555 1_555
N11_2 C10_2 1_555 1_555
N12_2 C46_2 1_555 1_555
H24_2 N12_2 1_555 1_555
O22_2 C53_2 1_555 1_555
O23_2 C53_2 1_555 1_555
O24_2 C54_2 1_555 1_555
O25_2 C54_2 1_555 1_555
Zn17 O26_2 1_555 1_555
C57_2 H25_2 1_555 1_555
C58_2 C57_2 1_555 1_555
C59_2 C58_2 1_555 1_555
H26_2 C59_2 1_555 1_555
C62_2 C58_2 1_555 1_555
O26_2 C62_2 1_555 1_555
O27_2 C62_2 1_555 1_555
O28_2 Zn3_4 1_555 1_555
O30_2 Zn17 1_555 1_555
Zn8_2 O10_2 1_555 1_555
C82_2 N19_2 1_555 1_555
C83_2 C84_2 1_555 1_555
C84_2 H37_2 1_555 1_555
C85_2 C84_2 1_555 1_555
C88_2 C83_2 1_555 1_555
H39_2 C88_2 1_555 1_555
C89_2 C85_2 1_555 1_555
N19_2 C91_2 1_555 1_555
N20_2 C82_2 1_555 1_555
H40_2 N20_2 1_555 1_555
O39_2 Zn1_3 1_555 1_555
C91_2 N21_2 1_555 1_555
C92_2 C93_2 1_555 1_555
C93_2 H41_2 1_555 1_555
C94_2 C93_2 1_555 1_555
C95_2 C94_2 1_555 1_555
H42_2 C95_2 1_555 1_555
C96_2 C95_2 1_555 1_555
C97_2 C92_2 1_555 1_555
H43_2 C97_2 1_555 1_555
C98_2 C94_2 1_555 1_555
C99_2 C96_2 1_555 1_555
N21_2 C100_2 1_555 1_555
N22_2 C91_2 1_555 1_555
H44_2 N22_2 1_555 1_555
O43_2 C98_2 1_555 1_555
O44_2 C98_2 1_555 1_555
O45_2 C99_2 1_555 1_555
O46_2 C99_2 1_555 1_555
C100_2 N23_2 1_555 1_555
C101_2 C102_2 1_555 1_555
C102_2 H45_2 1_555 1_555
C103_2 C102_2 1_555 1_555
C106_2 C101_2 1_555 1_555
H47_2 C106_2 1_555 1_555
C107_2 C103_2 1_555 1_555
N23_2 C82_2 1_555 1_555
N24_2 C100_2 1_555 1_555
H48_2 N24_2 1_555 1_555
O47_2 C107_2 1_555 1_555
Zn9_2 O2_2 1_555 1_555
Zn10_5 O47_2 1_555 1_555
Zn12 O12_2 1_555 1_555
Zn11_2 O43_2 1_555 1_555
Zn13_2 O22_2 1_555 1_555
Zn14_2 O5_2 1_555 1_555
Zn16_2 O18_2 1_555 1_555
Zn18_2 O24_2 1_555 1_555
Zn21_2 O9_2 1_555 1_555
Zn22_2 O11_2 1_555 1_555
Zn24_2 O45_2 1_555 1_555
O53_2 Zn9_2 1_555 1_555
O54_2 Zn2_2 1_555 1_555
O55_2 Zn17 1_555 1_555
O59_2 Zn3_4 1_555 1_555
O64_2 Zn3_4 1_555 1_555
O66_2 Zn1_3 1_555 1_555
O71_2 Zn8_2 1_555 1_555
O72_2 Zn9_2 1_555 1_555
C2_2 N2_2 1_555 1_555
C6_2 C7_2 1_555 1_555
C11_2 N4_2 1_555 1_555
C15_2 C16_2 1_555 1_555
C18_2 O7_2 1_555 1_555
O6_2 Zn14_2 1_555 1_555
O9_2 Zn9_2 1_555 1_555
C20_2 N6_2 1_555 1_555
C24_2 C25_2 1_555 1_555
C29_2 N8_2 1_555 1_555
C33_2 C34_2 1_555 1_555
C38_2 N10_2 1_555 1_555
C42_2 C43_2 1_555 1_555
O19_2 Zn16_2 1_555 1_555
C47_2 N12_2 1_555 1_555
C51_2 C52_2 1_555 1_555
O23_2 Zn13_2 1_555 1_555
O27_2 Zn8_2 1_555 1_555
O30_2 Zn8_2 1_555 1_555
O30_2 Zn22_2 1_555 1_555
C83_2 N20_2 1_555 1_555
C89_2 O39_2 1_555 1_555
C92_2 N22_2 1_555 1_555
C96_2 C97_2 1_555 1_555
O44_2 Zn11_2 1_555 1_555
C101_2 N24_2 1_555 1_555
Zn1_4 O3_3 1_555 1_555
Zn2_3 O1_3 1_555 1_555
C3_3 H1_3 1_555 1_555
C4_3 C3_3 1_555 1_555
C5_3 C4_3 1_555 1_555
H2_3 C5_3 1_555 1_555
C8_3 C4_3 1_555 1_555
C10_3 N3_3 1_555 1_555
C11_3 C12_3 1_555 1_555
C12_3 H4_3 1_555 1_555
C13_3 C12_3 1_555 1_555
C14_3 C13_3 1_555 1_555
H5_3 C14_3 1_555 1_555
C15_3 C14_3 1_555 1_555
C16_3 C11_3 1_555 1_555
H6_3 C16_3 1_555 1_555
C17_3 C13_3 1_555 1_555
C18_3 C15_3 1_555 1_555
N3_3 C37_3 1_555 1_555
N4_3 C10_3 1_555 1_555
H8_3 N4_3 1_555 1_555
O1_3 C8_3 1_555 1_555
O2_3 C8_3 1_555 1_555
O5_3 C17_3 1_555 1_555
O6_3 C17_3 1_555 1_555
O7_3 Zn2_3 1_555 1_555
O8_3 C18_3 1_555 1_555
O9_3 Zn2_3 1_555 1_555
C37_3 N9_3 1_555 1_555
C38_3 C39_3 1_555 1_555
C39_3 H17_3 1_555 1_555
C40_3 C39_3 1_555 1_555
C41_3 C40_3 1_555 1_555
H18_3 C41_3 1_555 1_555
C42_3 C41_3 1_555 1_555
C43_3 C38_3 1_555 1_555
H19_3 C43_3 1_555 1_555
C44_3 C40_3 1_555 1_555
C45_3 C42_3 1_555 1_555
N9_3 C46_3 1_555 1_555
N10_3 C37_3 1_555 1_555
H20_3 N10_3 1_555 1_555
O18_3 C44_3 1_555 1_555
O19_3 C44_3 1_555 1_555
O20_2 C45_3 1_555 1_555
O21_3 C45_3 1_555 1_555
C46_3 N11_3 1_555 1_555
C47_3 C48_3 1_555 1_555
C48_3 H21_3 1_555 1_555
C49_3 C48_3 1_555 1_555
C50_3 C49_3 1_555 1_555
H22_3 C50_3 1_555 1_555
C51_3 C50_3 1_555 1_555
C52_3 C47_3 1_555 1_555
H23_3 C52_3 1_555 1_555
C53_3 C49_3 1_555 1_555
C54_3 C51_3 1_555 1_555
N11_3 C10_3 1_555 1_555
N12_3 C46_3 1_555 1_555
H24_3 N12_3 1_555 1_555
O22_3 C53_3 1_555 1_555
O23_3 C53_3 1_555 1_555
O24_3 C54_3 1_555 1_555
O25_3 C54_3 1_555 1_555
C82_3 N19_3 1_555 1_555
C83_3 C84_3 1_555 1_555
C84_3 H37_3 1_555 1_555
C85_3 C84_3 1_555 1_555
C88_3 C83_3 1_555 1_555
H39_3 C88_3 1_555 1_555
C89_3 C85_3 1_555 1_555
N19_3 C91_3 1_555 1_555
N20_3 C82_3 1_555 1_555
H40_3 N20_3 1_555 1_555
O39_3 Zn1_4 1_555 1_555
C91_3 N21_3 1_555 1_555
C92_3 C93_3 1_555 1_555
C93_3 H41_3 1_555 1_555
C94_3 C93_3 1_555 1_555
C97_3 C92_3 1_555 1_555
H43_3 C97_3 1_555 1_555
C98_3 C94_3 1_555 1_555
N21_3 C100_3 1_555 1_555
N22_3 C91_3 1_555 1_555
H44_3 N22_3 1_555 1_555
O43_3 C98_3 1_555 1_555
C100_3 N23_3 1_555 1_555
C101_3 C102_3 1_555 1_555
C102_3 H45_3 1_555 1_555
C103_3 C102_3 1_555 1_555
C104_3 C103_3 1_555 1_555
H46_3 C104_3 1_555 1_555
C105_3 C104_3 1_555 1_555
C106_3 C101_3 1_555 1_555
H47_3 C106_3 1_555 1_555
C107_3 C103_3 1_555 1_555
C108_3 C105_3 1_555 1_555
N23_3 C82_3 1_555 1_555
N24_3 C100_3 1_555 1_555
H48_3 N24_3 1_555 1_555
O62_2 C107_3 1_555 1_555
O67_2 C107_3 1_555 1_555
O49_3 C108_3 1_555 1_555
O50_3 C108_3 1_555 1_555
Zn9_3 O2_3 1_555 1_555
Zn12_2 O43_3 1_555 1_555
Zn16_3 O18_3 1_555 1_555
Zn17_2 O20_2 1_555 1_555
Zn18_3 O24_3 1_555 1_555
Zn21_3 O9_3 1_555 1_555
Zn25_3 O49_3 1_555 1_555
O53_3 Zn9_3 1_555 1_555
O54_3 Zn2_3 1_555 1_555
O72_3 Zn9_3 1_555 1_555
C11_3 N4_3 1_555 1_555
C15_3 C16_3 1_555 1_555
C18_3 O7_3 1_555 1_555
O9_3 Zn9_3 1_555 1_555
C38_3 N10_3 1_555 1_555
C42_3 C43_3 1_555 1_555
O19_3 Zn16_3 1_555 1_555
C47_3 N12_3 1_555 1_555
C51_3 C52_3 1_555 1_555
C83_3 N20_3 1_555 1_555
C89_3 O39_3 1_555 1_555
C92_3 N22_3 1_555 1_555
C101_3 N24_3 1_555 1_555
C105_3 C106_3 1_555 1_555
C66_3 H29_3 1_555 1_555
C67_3 C66_3 1_555 1_555
C68_3 C67_3 1_555 1_555
H30_3 C68_3 1_555 1_555
C71_3 C67_3 1_555 1_555
O31_3 C71_3 1_555 1_555
O32_3 C71_3 1_555 1_555
Zn7_3 O32_3 1_555 1_555
Zn15_5 O33_3 1_555 1_555
Zn19_3 O31_3 1_555 1_555
O52_3 Zn7_3 1_555 1_555
O56_3 Zn5_4 1_555 1_555
O60_3 Zn5_4 1_555 1_555
O70_3 Zn7_3 1_555 1_555
O73_3 Zn7_3 1_555 1_555
Zn19_3 O73_3 1_555 1_555
H38_3 C86_3 1_555 1_555
C87_3 C86_3 1_555 1_555
C90_3 C87_3 1_555 1_555
O40_3 Zn1_5 1_555 1_555
O41_3 C90_3 1_555 1_555
O42_3 C90_3 1_555 1_555
Zn26_3 O41_3 1_555 1_555
O63_3 Zn5_5 1_555 1_555
C21_3 H9_3 1_555 1_555
C22_3 C21_3 1_555 1_555
C23_3 C22_3 1_555 1_555
H10_3 C23_3 1_555 1_555
C26_3 C22_3 1_555 1_555
O10_3 C26_3 1_555 1_555
O11_3 C26_3 1_555 1_555
Zn4_2 O26_3 1_555 1_555
C57_3 H25_3 1_555 1_555
C58_3 C57_3 1_555 1_555
C59_3 C58_3 1_555 1_555
H26_3 C59_3 1_555 1_555
C62_3 C58_3 1_555 1_555
O26_3 C62_3 1_555 1_555
O27_3 C62_3 1_555 1_555
O28_3 Zn10_2 1_555 1_555
O30_3 Zn4_2 1_555 1_555
Zn8_3 O10_3 1_555 1_555
Zn11_5 O12_3 1_555 1_555
Zn22_3 O11_3 1_555 1_555
O55_3 Zn4_2 1_555 1_555
O59_3 Zn10_2 1_555 1_555
O68_2 Zn4_2 1_555 1_555
O71_3 Zn8_3 1_555 1_555
O27_3 Zn8_3 1_555 1_555
O30_3 Zn8_3 1_555 1_555
O30_3 Zn22_3 1_555 1_555
C1_3 N1_3 1_555 1_555
C7_3 C2_3 1_555 1_555
H3_3 C7_3 1_555 1_555
C9_3 C6_3 1_555 1_555
N1_3 C19_3 1_555 1_555
N2_3 C1_3 1_555 1_555
H7_3 N2_3 1_555 1_555
O4_3 C9_3 1_555 1_555
C19_3 N5_3 1_555 1_555
C25_3 C20_3 1_555 1_555
H11_3 C25_3 1_555 1_555
C27_3 C24_3 1_555 1_555
N5_3 C28_3 1_555 1_555
N6_3 C19_3 1_555 1_555
H12_3 N6_3 1_555 1_555
O13_3 C27_3 1_555 1_555
C28_3 N7_3 1_555 1_555
C34_3 C29_3 1_555 1_555
H15_3 C34_3 1_555 1_555
C36_3 C33_3 1_555 1_555
N7_3 C1_3 1_555 1_555
N8_3 C28_3 1_555 1_555
H16_3 N8_3 1_555 1_555
O17_3 C36_3 1_555 1_555
H42_3 C95_3 1_555 1_555
C96_3 C95_3 1_555 1_555
C99_3 C96_3 1_555 1_555
O45_3 C99_3 1_555 1_555
O46_3 C99_3 1_555 1_555
Zn24_3 O45_3 1_555 1_555
O64_3 Zn10_3 1_555 1_555
O66_3 Zn1_6 1_555 1_555
C2_3 N2_3 1_555 1_555
C6_3 C7_3 1_555 1_555
C20_3 N6_3 1_555 1_555
C24_3 C25_3 1_555 1_555
C29_3 N8_3 1_555 1_555
C33_3 C34_3 1_555 1_555
O44_3 Zn12_3 1_555 1_555
C55_3 N13_3 1_555 1_555
C61_3 C56_3 1_555 1_555
H27_3 C61_3 1_555 1_555
C63_3 C60_3 1_555 1_555
N13_3 C64_3 1_555 1_555
N14_3 C55_3 1_555 1_555
H28_3 N14_3 1_555 1_555
O29_3 C63_3 1_555 1_555
C64_3 N15_3 1_555 1_555
C70_3 C65_3 1_555 1_555
H31_3 C70_3 1_555 1_555
C72_3 C69_3 1_555 1_555
N15_3 C73_3 1_555 1_555
N16_3 C64_3 1_555 1_555
H32_3 N16_3 1_555 1_555
O34_3 C72_3 1_555 1_555
C73_3 N17_3 1_555 1_555
C79_3 C74_3 1_555 1_555
H35_3 C79_3 1_555 1_555
C81_3 C78_3 1_555 1_555
N17_3 C55_3 1_555 1_555
N18_3 C73_3 1_555 1_555
H36_3 N18_3 1_555 1_555
O38_3 C81_3 1_555 1_555
O65_3 Zn5_6 1_555 1_555
C56_3 N14_3 1_555 1_555
C60_3 C61_3 1_555 1_555
C65_3 N16_3 1_555 1_555
C69_3 C70_3 1_555 1_555
C74_3 N18_3 1_555 1_555
C78_3 C79_3 1_555 1_555
C30_3 H13_3 1_555 1_555
C31_3 C30_3 1_555 1_555
C32_3 C31_3 1_555 1_555
H14_3 C32_3 1_555 1_555
C35_3 C31_3 1_555 1_555
O14_3 C35_3 1_555 1_555
O15_3 C35_3 1_555 1_555
Zn10_5 O16_3 1_555 1_555
C75_3 H33_3 1_555 1_555
C76_3 C75_3 1_555 1_555
C77_3 C76_3 1_555 1_555
H34_3 C77_3 1_555 1_555
C80_3 C76_3 1_555 1_555
O35_3 C80_3 1_555 1_555
O36_3 C80_3 1_555 1_555
Zn5_7 O37_3 1_555 1_555
Zn6_3 O36_3 1_555 1_555
Zn20_3 O14_3 1_555 1_555
Zn23_3 O15_3 1_555 1_555
O51_3 Zn6_3 1_555 1_555
O57_3 Zn1_7 1_555 1_555
O58_3 Zn5_7 1_555 1_555
O61_3 Zn1_7 1_555 1_555
O69_3 Zn6_3 1_555 1_555
O74_3 Zn6_3 1_555 1_555
O35_3 Zn23_3 1_555 1_555
Zn20_3 O74_3 1_555 1_555
Zn23_3 O74_3 1_555 1_555
C1_4 N1_4 1_555 1_555
C7_4 C2_4 1_555 1_555
H3_4 C7_4 1_555 1_555
C9_4 C6_4 1_555 1_555
N1_4 C19_4 1_555 1_555
N2_4 C1_4 1_555 1_555
H7_4 N2_4 1_555 1_555
O4_4 C9_4 1_555 1_555
C19_4 N5_4 1_555 1_555
C20_4 C21_4 1_555 1_555
C21_4 H9_4 1_555 1_555
C22_4 C21_4 1_555 1_555
C23_4 C22_4 1_555 1_555
H10_4 C23_4 1_555 1_555
C24_4 C23_4 1_555 1_555
C25_4 C20_4 1_555 1_555
H11_4 C25_4 1_555 1_555
C26_4 C22_4 1_555 1_555
C27_4 C24_4 1_555 1_555
N5_4 C28_4 1_555 1_555
N6_4 C19_4 1_555 1_555
H12_4 N6_4 1_555 1_555
O10_4 C26_4 1_555 1_555
O11_4 C26_4 1_555 1_555
O12_4 C27_4 1_555 1_555
O13_4 C27_4 1_555 1_555
C28_4 N7_4 1_555 1_555
C29_4 C30_4 1_555 1_555
C30_4 H13_4 1_555 1_555
C31_4 C30_4 1_555 1_555
C32_4 C31_4 1_555 1_555
H14_4 C32_4 1_555 1_555
C33_4 C32_4 1_555 1_555
C34_4 C29_4 1_555 1_555
H15_4 C34_4 1_555 1_555
C35_4 C31_4 1_555 1_555
C36_4 C33_4 1_555 1_555
N7_4 C1_4 1_555 1_555
N8_4 C28_4 1_555 1_555
H16_4 N8_4 1_555 1_555
O14_4 C35_4 1_555 1_555
O15_4 C35_4 1_555 1_555
O16_4 C36_4 1_555 1_555
O17_4 C36_4 1_555 1_555
Zn10 O16_4 1_555 1_555
Zn17_2 O26_4 1_555 1_555
C55_4 N13_4 1_555 1_555
C56_4 C57_4 1_555 1_555
C57_4 H25_4 1_555 1_555
C58_4 C57_4 1_555 1_555
C59_4 C58_4 1_555 1_555
H26_4 C59_4 1_555 1_555
C60_4 C59_4 1_555 1_555
C61_4 C56_4 1_555 1_555
H27_4 C61_4 1_555 1_555
C62_4 C58_4 1_555 1_555
C63_4 C60_4 1_555 1_555
N13_4 C64_4 1_555 1_555
N14_4 C55_4 1_555 1_555
H28_4 N14_4 1_555 1_555
O26_4 C62_4 1_555 1_555
O27_4 C62_4 1_555 1_555
O28_4 Zn10 1_555 1_555
O29_4 C63_4 1_555 1_555
O30_4 Zn17_2 1_555 1_555
C64_4 N15_4 1_555 1_555
C70_4 C65_4 1_555 1_555
H31_4 C70_4 1_555 1_555
C72_4 C69_4 1_555 1_555
N15_4 C73_4 1_555 1_555
N16_4 C64_4 1_555 1_555
H32_4 N16_4 1_555 1_555
O34_4 C72_4 1_555 1_555
C73_4 N17_4 1_555 1_555
C74_4 C75_4 1_555 1_555
C75_4 H33_4 1_555 1_555
C76_4 C75_4 1_555 1_555
C77_4 C76_4 1_555 1_555
H34_4 C77_4 1_555 1_555
C78_4 C77_4 1_555 1_555
C79_4 C74_4 1_555 1_555
H35_4 C79_4 1_555 1_555
C80_4 C76_4 1_555 1_555
C81_4 C78_4 1_555 1_555
N17_4 C55_4 1_555 1_555
N18_4 C73_4 1_555 1_555
H36_4 N18_4 1_555 1_555
O35_4 C80_4 1_555 1_555
O36_4 C80_4 1_555 1_555
O37_4 C81_4 1_555 1_555
O38_4 C81_4 1_555 1_555
Zn5_8 O37_4 1_555 1_555
Zn6_4 O36_4 1_555 1_555
Zn8_4 O10_4 1_555 1_555
H42_4 C95_4 1_555 1_555
C96_4 C95_4 1_555 1_555
C99_4 C96_4 1_555 1_555
O45_4 C99_4 1_555 1_555
O46_4 C99_4 1_555 1_555
Zn12_2 O12_4 1_555 1_555
Zn20_4 O14_4 1_555 1_555
Zn22_4 O11_4 1_555 1_555
Zn23_4 O15_4 1_555 1_555
Zn24_4 O45_4 1_555 1_555
O51_4 Zn6_4 1_555 1_555
O55_4 Zn17_2 1_555 1_555
O57_4 Zn1_8 1_555 1_555
O58_4 Zn5_8 1_555 1_555
O59_4 Zn10 1_555 1_555
O61_4 Zn1_8 1_555 1_555
O64_4 Zn10 1_555 1_555
O65_4 Zn5_8 1_555 1_555
O66_4 Zn1_8 1_555 1_555
O69_4 Zn6_4 1_555 1_555
O71_4 Zn8_4 1_555 1_555
O74_4 Zn6_4 1_555 1_555
C2_4 N2_4 1_555 1_555
C6_4 C7_4 1_555 1_555
C20_4 N6_4 1_555 1_555
C24_4 C25_4 1_555 1_555
C29_4 N8_4 1_555 1_555
C33_4 C34_4 1_555 1_555
C56_4 N14_4 1_555 1_555
C60_4 C61_4 1_555 1_555
C63_4 O28_4 1_555 1_555
O27_4 Zn8_4 1_555 1_555
O30_4 Zn8_4 1_555 1_555
O30_4 Zn22_4 1_555 1_555
C65_4 N16_4 1_555 1_555
C69_4 C70_4 1_555 1_555
C74_4 N18_4 1_555 1_555
C78_4 C79_4 1_555 1_555
O35_4 Zn23_4 1_555 1_555
O44_4 Zn11_3 1_555 1_555
Zn20_4 O74_4 1_555 1_555
Zn23_4 O74_4 1_555 1_555
Zn1_9 O3_4 1_555 1_555
Zn2_4 O1_4 1_555 1_555
C3_4 H1_4 1_555 1_555
C4_4 C3_4 1_555 1_555
C5_4 C4_4 1_555 1_555
H2_4 C5_4 1_555 1_555
C8_4 C4_4 1_555 1_555
C10_4 N3_4 1_555 1_555
C11_4 C12_4 1_555 1_555
C12_4 H4_4 1_555 1_555
C13_4 C12_4 1_555 1_555
C14_4 C13_4 1_555 1_555
H5_4 C14_4 1_555 1_555
C15_4 C14_4 1_555 1_555
C16_4 C11_4 1_555 1_555
H6_4 C16_4 1_555 1_555
C17_4 C13_4 1_555 1_555
C18_4 C15_4 1_555 1_555
N3_4 C37_4 1_555 1_555
N4_4 C10_4 1_555 1_555
H8_4 N4_4 1_555 1_555
O1_4 C8_4 1_555 1_555
O2_4 C8_4 1_555 1_555
O5_4 C17_4 1_555 1_555
O6_4 C17_4 1_555 1_555
O7_4 Zn2_4 1_555 1_555
O8_4 C18_4 1_555 1_555
O9_4 Zn2_4 1_555 1_555
C37_4 N9_4 1_555 1_555
C38_4 C39_4 1_555 1_555
C39_4 H17_4 1_555 1_555
C40_4 C39_4 1_555 1_555
C41_4 C40_4 1_555 1_555
H18_4 C41_4 1_555 1_555
C42_4 C41_4 1_555 1_555
C43_4 C38_4 1_555 1_555
H19_4 C43_4 1_555 1_555
C44_4 C40_4 1_555 1_555
C45_4 C42_4 1_555 1_555
N9_4 C46_4 1_555 1_555
N10_4 C37_4 1_555 1_555
H20_4 N10_4 1_555 1_555
O18_4 C44_4 1_555 1_555
O19_4 C44_4 1_555 1_555
O68_2 C45_4 1_555 1_555
O21_4 C45_4 1_555 1_555
C46_4 N11_4 1_555 1_555
C47_4 C48_4 1_555 1_555
C48_4 H21_4 1_555 1_555
C49_4 C48_4 1_555 1_555
C50_4 C49_4 1_555 1_555
H22_4 C50_4 1_555 1_555
C51_4 C50_4 1_555 1_555
C52_4 C47_4 1_555 1_555
H23_4 C52_4 1_555 1_555
C53_4 C49_4 1_555 1_555
C54_4 C51_4 1_555 1_555
N11_4 C10_4 1_555 1_555
N12_4 C46_4 1_555 1_555
H24_4 N12_4 1_555 1_555
O22_4 C53_4 1_555 1_555
O23_4 C53_4 1_555 1_555
O24_4 C54_4 1_555 1_555
O25_4 C54_4 1_555 1_555
C66_4 H29_4 1_555 1_555
C67_4 C66_4 1_555 1_555
C68_4 C67_4 1_555 1_555
H30_4 C68_4 1_555 1_555
C71_4 C67_4 1_555 1_555
O31_4 C71_4 1_555 1_555
O32_4 C71_4 1_555 1_555
Zn7_4 O32_4 1_555 1_555
C82_4 N19_4 1_555 1_555
C83_4 C84_4 1_555 1_555
C84_4 H37_4 1_555 1_555
C85_4 C84_4 1_555 1_555
C86_4 C85_4 1_555 1_555
H38_4 C86_4 1_555 1_555
C87_4 C86_4 1_555 1_555
C88_4 C83_4 1_555 1_555
H39_4 C88_4 1_555 1_555
C89_4 C85_4 1_555 1_555
C90_4 C87_4 1_555 1_555
N19_4 C91_4 1_555 1_555
N20_4 C82_4 1_555 1_555
H40_4 N20_4 1_555 1_555
O39_4 Zn1_9 1_555 1_555
O40_4 Zn1_9 1_555 1_555
O41_4 C90_4 1_555 1_555
O42_4 C90_4 1_555 1_555
C91_4 N21_4 1_555 1_555
C92_4 C93_4 1_555 1_555
C93_4 H41_4 1_555 1_555
C94_4 C93_4 1_555 1_555
C97_4 C92_4 1_555 1_555
H43_4 C97_4 1_555 1_555
C98_4 C94_4 1_555 1_555
N21_4 C100_4 1_555 1_555
N22_4 C91_4 1_555 1_555
H44_4 N22_4 1_555 1_555
O43_4 C98_4 1_555 1_555
C100_4 N23_4 1_555 1_555
C101_4 C102_4 1_555 1_555
C102_4 H45_4 1_555 1_555
C103_4 C102_4 1_555 1_555
C106_4 C101_4 1_555 1_555
H47_4 C106_4 1_555 1_555
C107_4 C103_4 1_555 1_555
N23_4 C82_4 1_555 1_555
N24_4 C100_4 1_555 1_555
H48_4 N24_4 1_555 1_555
O62 C107_4 1_555 1_555
Zn9_4 O2_4 1_555 1_555
Zn11_5 O43_4 1_555 1_555
Zn13_4 O22_4 1_555 1_555
Zn15_9 O33_4 1_555 1_555
Zn18_4 O24_4 1_555 1_555
Zn19_4 O31_4 1_555 1_555
Zn21_4 O9_4 1_555 1_555
Zn26_4 O41_4 1_555 1_555
O52_4 Zn7_4 1_555 1_555
O53_4 Zn9_4 1_555 1_555
O54_4 Zn2_4 1_555 1_555
O56_4 Zn5_9 1_555 1_555
O60_4 Zn5_9 1_555 1_555
O63_4 Zn5_9 1_555 1_555
O70_4 Zn7_4 1_555 1_555
O72_4 Zn9_4 1_555 1_555
O73_4 Zn7_4 1_555 1_555
C11_4 N4_4 1_555 1_555
C15_4 C16_4 1_555 1_555
C18_4 O7_4 1_555 1_555
O9_4 Zn9_4 1_555 1_555
C38_4 N10_4 1_555 1_555
C42_4 C43_4 1_555 1_555
C47_4 N12_4 1_555 1_555
C51_4 C52_4 1_555 1_555
O23_4 Zn13_4 1_555 1_555
C83_4 N20_4 1_555 1_555
C87_4 C88_4 1_555 1_555
C89_4 O39_4 1_555 1_555
C89_4 O40_4 1_555 1_555
C92_4 N22_4 1_555 1_555
C101_4 N24_4 1_555 1_555
Zn19_4 O73_4 1_555 1_555
H46_4 C104_4 1_555 1_555
C105_4 C104_4 1_555 1_555
C108_4 C105_4 1_555 1_555
O49_4 C108_4 1_555 1_555
O50_4 C108_4 1_555 1_555
Zn25_4 O49_4 1_555 1_555
C75_5 H33_5 1_555 1_555
C76_5 C75_5 1_555 1_555
C77_5 C76_5 1_555 1_555
H34_5 C77_5 1_555 1_555
C80_5 C76_5 1_555 1_555
O51_4 C80_5 1_555 1_555
O36_5 C80_5 1_555 1_555
Zn20_4 O36_5 1_555 1_555
C82_5 N19_5 1_555 1_555
C83_5 C84_5 1_555 1_555
C84_5 H37_5 1_555 1_555
C85_5 C84_5 1_555 1_555
C86_5 C85_5 1_555 1_555
H38_5 C86_5 1_555 1_555
C87_5 C86_5 1_555 1_555
C88_5 C83_5 1_555 1_555
H39_5 C88_5 1_555 1_555
C89_5 C85_5 1_555 1_555
C90_5 C87_5 1_555 1_555
N19_5 C91_5 1_555 1_555
N20_5 C82_5 1_555 1_555
H40_5 N20_5 1_555 1_555
O41_5 C90_5 1_555 1_555
O42_5 C90_5 1_555 1_555
C91_5 N21_5 1_555 1_555
C92_5 C93_5 1_555 1_555
C93_5 H41_5 1_555 1_555
C94_5 C93_5 1_555 1_555
C95_5 C94_5 1_555 1_555
H42_5 C95_5 1_555 1_555
C96_5 C95_5 1_555 1_555
C97_5 C92_5 1_555 1_555
H43_5 C97_5 1_555 1_555
C98_5 C94_5 1_555 1_555
C99_5 C96_5 1_555 1_555
N21_5 C100_5 1_555 1_555
N22_5 C91_5 1_555 1_555
H44_5 N22_5 1_555 1_555
O43_5 C98_5 1_555 1_555
O44_5 C98_5 1_555 1_555
O45_5 C99_5 1_555 1_555
O46_5 C99_5 1_555 1_555
C100_5 N23_5 1_555 1_555
C101_5 C102_5 1_555 1_555
C102_5 H45_5 1_555 1_555
C103_5 C102_5 1_555 1_555
C104_5 C103_5 1_555 1_555
H46_5 C104_5 1_555 1_555
C105_5 C104_5 1_555 1_555
C106_5 C101_5 1_555 1_555
H47_5 C106_5 1_555 1_555
C107_5 C103_5 1_555 1_555
C108_5 C105_5 1_555 1_555
N23_5 C82_5 1_555 1_555
N24_5 C100_5 1_555 1_555
H48_5 N24_5 1_555 1_555
O58_2 C107_5 1_555 1_555
O63_2 C107_5 1_555 1_555
O49_5 C108_5 1_555 1_555
O50_5 C108_5 1_555 1_555
Zn15 O43_5 1_555 1_555
Zn24_5 O45_5 1_555 1_555
Zn25_5 O49_5 1_555 1_555
Zn26_5 O41_5 1_555 1_555
O69_5 Zn20_4 1_555 1_555
C83_5 N20_5 1_555 1_555
C87_5 C88_5 1_555 1_555
C89_5 O59_4 1_555 1_555
C89_5 O64_4 1_555 1_555
C92_5 N22_5 1_555 1_555
C96_5 C97_5 1_555 1_555
O44_5 Zn15 1_555 1_555
C101_5 N24_5 1_555 1_555
C105_5 C106_5 1_555 1_555
Zn18_2 O26_5 1_555 1_555
C55_5 N13_5 1_555 1_555
C56_5 C57_5 1_555 1_555
C57_5 H25_5 1_555 1_555
C58_5 C57_5 1_555 1_555
C59_5 C58_5 1_555 1_555
H26_5 C59_5 1_555 1_555
C60_5 C59_5 1_555 1_555
C61_5 C56_5 1_555 1_555
H27_5 C61_5 1_555 1_555
C62_5 C58_5 1_555 1_555
C63_5 C60_5 1_555 1_555
N13_5 C64_5 1_555 1_555
N14_5 C55_5 1_555 1_555
H28_5 N14_5 1_555 1_555
O26_5 C62_5 1_555 1_555
O27_5 C62_5 1_555 1_555
O29_5 C63_5 1_555 1_555
O73_4 Zn18_2 1_555 1_555
C64_5 N15_5 1_555 1_555
C65_5 C66_5 1_555 1_555
C66_5 H29_5 1_555 1_555
C67_5 C66_5 1_555 1_555
C68_5 C67_5 1_555 1_555
H30_5 C68_5 1_555 1_555
C69_5 C68_5 1_555 1_555
C70_5 C65_5 1_555 1_555
H31_5 C70_5 1_555 1_555
C71_5 C67_5 1_555 1_555
C72_5 C69_5 1_555 1_555
N15_5 C73_5 1_555 1_555
N16_5 C64_5 1_555 1_555
H32_5 N16_5 1_555 1_555
O53_4 C71_5 1_555 1_555
O32_5 C71_5 1_555 1_555
O33_5 C72_5 1_555 1_555
O34_5 C72_5 1_555 1_555
C73_5 N17_5 1_555 1_555
C79_5 C74_5 1_555 1_555
H35_5 C79_5 1_555 1_555
C81_5 C78_5 1_555 1_555
N17_5 C55_5 1_555 1_555
N18_5 C73_5 1_555 1_555
H36_5 N18_5 1_555 1_555
O38_5 C81_5 1_555 1_555
Zn21_4 O32_5 1_555 1_555
Zn15_10 O33_5 1_555 1_555
O52_5 Zn21_4 1_555 1_555
O55_5 Zn18_2 1_555 1_555
O70_5 Zn21_4 1_555 1_555
O71_5 Zn19_4 1_555 1_555
C56_5 N14_5 1_555 1_555
C60_5 C61_5 1_555 1_555
C63_5 O56_4 1_555 1_555
O27_5 Zn19_4 1_555 1_555
C65_5 N16_5 1_555 1_555
C69_5 C70_5 1_555 1_555
C74_5 N18_5 1_555 1_555
C78_5 C79_5 1_555 1_555
H46_6 C104_6 1_555 1_555
C105_6 C104_6 1_555 1_555
C108_6 C105_6 1_555 1_555
O49_6 C108_6 1_555 1_555
O50_6 C108_6 1_555 1_555
Zn25_6 O49_6 1_555 1_555
C55_6 N13_6 1_555 1_555
C61_6 C56_6 1_555 1_555
H27_6 C61_6 1_555 1_555
C63_6 C60_6 1_555 1_555
N13_6 C64_6 1_555 1_555
N14_6 C55_6 1_555 1_555
H28_6 N14_6 1_555 1_555
O29_6 C63_6 1_555 1_555
C64_6 N15_6 1_555 1_555
C65_6 C66_6 1_555 1_555
C66_6 H29_6 1_555 1_555
C67_6 C66_6 1_555 1_555
C68_6 C67_6 1_555 1_555
H30_6 C68_6 1_555 1_555
C69_6 C68_6 1_555 1_555
C70_6 C65_6 1_555 1_555
H31_6 C70_6 1_555 1_555
C71_6 C67_6 1_555 1_555
C72_6 C69_6 1_555 1_555
N15_6 C73_6 1_555 1_555
N16_6 C64_6 1_555 1_555
H32_6 N16_6 1_555 1_555
O53 C71_6 1_555 1_555
O32_6 C71_6 1_555 1_555
O33_6 C72_6 1_555 1_555
O34_6 C72_6 1_555 1_555
C73_6 N17_6 1_555 1_555
C74_6 C75_6 1_555 1_555
C75_6 H33_6 1_555 1_555
C76_6 C75_6 1_555 1_555
C77_6 C76_6 1_555 1_555
H34_6 C77_6 1_555 1_555
C78_6 C77_6 1_555 1_555
C79_6 C74_6 1_555 1_555
H35_6 C79_6 1_555 1_555
C80_6 C76_6 1_555 1_555
C81_6 C78_6 1_555 1_555
N17_6 C55_6 1_555 1_555
N18_6 C73_6 1_555 1_555
H36_6 N18_6 1_555 1_555
O51 C80_6 1_555 1_555
O36_6 C80_6 1_555 1_555
O57 C81_6 1_555 1_555
O38_6 C81_6 1_555 1_555
Zn20 O36_6 1_555 1_555
Zn21 O32_6 1_555 1_555
H38_6 C86_6 1_555 1_555
C87_6 C86_6 1_555 1_555
C90_6 C87_6 1_555 1_555
O41_6 C90_6 1_555 1_555
O42_6 C90_6 1_555 1_555
Zn15_11 O33_6 1_555 1_555
Zn26_6 O41_6 1_555 1_555
O52_6 Zn21 1_555 1_555
O69_6 Zn20 1_555 1_555
O70_6 Zn21 1_555 1_555
C56_6 N14_6 1_555 1_555
C60_6 C61_6 1_555 1_555
C65_6 N16_6 1_555 1_555
C69_6 C70_6 1_555 1_555
C74_6 N18_6 1_555 1_555
C78_6 C79_6 1_555 1_555
Zn18_3 O26_6 1_555 1_555
C57_6 H25_6 1_555 1_555
C58_6 C57_6 1_555 1_555
C59_6 C58_6 1_555 1_555
H26_6 C59_6 1_555 1_555
C62_6 C58_6 1_555 1_555
O26_6 C62_6 1_555 1_555
O27_6 C62_6 1_555 1_555
O73 Zn18_3 1_555 1_555
C82_6 N19_6 1_555 1_555
C83_6 C84_6 1_555 1_555
C84_6 H37_6 1_555 1_555
C85_6 C84_6 1_555 1_555
C88_6 C83_6 1_555 1_555
H39_6 C88_6 1_555 1_555
C89_6 C85_6 1_555 1_555
N19_6 C91_6 1_555 1_555
N20_6 C82_6 1_555 1_555
H40_6 N20_6 1_555 1_555
C91_6 N21_6 1_555 1_555
C92_6 C93_6 1_555 1_555
C93_6 H41_6 1_555 1_555
C94_6 C93_6 1_555 1_555
C95_6 C94_6 1_555 1_555
H42_6 C95_6 1_555 1_555
C96_6 C95_6 1_555 1_555
C97_6 C92_6 1_555 1_555
H43_6 C97_6 1_555 1_555
C98_6 C94_6 1_555 1_555
C99_6 C96_6 1_555 1_555
N21_6 C100_6 1_555 1_555
N22_6 C91_6 1_555 1_555
H44_6 N22_6 1_555 1_555
O43_6 C98_6 1_555 1_555
O44_6 C98_6 1_555 1_555
O45_6 C99_6 1_555 1_555
O46_6 C99_6 1_555 1_555
C100_6 N23_6 1_555 1_555
C101_6 C102_6 1_555 1_555
C102_6 H45_6 1_555 1_555
C103_6 C102_6 1_555 1_555
C106_6 C101_6 1_555 1_555
H47_6 C106_6 1_555 1_555
C107_6 C103_6 1_555 1_555
N23_6 C82_6 1_555 1_555
N24_6 C100_6 1_555 1_555
H48_6 N24_6 1_555 1_555
O58_3 C107_6 1_555 1_555
Zn15_9 O43_6 1_555 1_555
Zn24_6 O45_6 1_555 1_555
O55_6 Zn18_3 1_555 1_555
O71_6 Zn19 1_555 1_555
O27_6 Zn19 1_555 1_555
C83_6 N20_6 1_555 1_555
C89_6 O59 1_555 1_555
C92_6 N22_6 1_555 1_555
C96_6 C97_6 1_555 1_555
O44_6 Zn15_9 1_555 1_555
C101_6 N24_6 1_555 1_555
C66_7 H29_7 1_555 1_555
C67_7 C66_7 1_555 1_555
C68_7 C67_7 1_555 1_555
H30_7 C68_7 1_555 1_555
C71_7 C67_7 1_555 1_555
O53_3 C71_7 1_555 1_555
O32_7 C71_7 1_555 1_555
Zn21_3 O32_7 1_555 1_555
Zn15_14 O33_7 1_555 1_555
O52_7 Zn21_3 1_555 1_555
O70_7 Zn21_3 1_555 1_555
Zn18 O26_7 1_555 1_555
C57_7 H25_7 1_555 1_555
C58_7 C57_7 1_555 1_555
C59_7 C58_7 1_555 1_555
H26_7 C59_7 1_555 1_555
C62_7 C58_7 1_555 1_555
O26_7 C62_7 1_555 1_555
O27_7 C62_7 1_555 1_555
O73_3 Zn18 1_555 1_555
O55_7 Zn18 1_555 1_555
O71_7 Zn19_3 1_555 1_555
O27_7 Zn19_3 1_555 1_555
C55_7 N13_7 1_555 1_555
C61_7 C56_7 1_555 1_555
H27_7 C61_7 1_555 1_555
C63_7 C60_7 1_555 1_555
N13_7 C64_7 1_555 1_555
N14_7 C55_7 1_555 1_555
H28_7 N14_7 1_555 1_555
O29_7 C63_7 1_555 1_555
C64_7 N15_7 1_555 1_555
C70_7 C65_7 1_555 1_555
H31_7 C70_7 1_555 1_555
C72_7 C69_7 1_555 1_555
N15_7 C73_7 1_555 1_555
N16_7 C64_7 1_555 1_555
H32_7 N16_7 1_555 1_555
O34_7 C72_7 1_555 1_555
C73_7 N17_7 1_555 1_555
C79_7 C74_7 1_555 1_555
H35_7 C79_7 1_555 1_555
C81_7 C78_7 1_555 1_555
N17_7 C55_7 1_555 1_555
N18_7 C73_7 1_555 1_555
H36_7 N18_7 1_555 1_555
O38_7 C81_7 1_555 1_555
C56_7 N14_7 1_555 1_555
C60_7 C61_7 1_555 1_555
C65_7 N16_7 1_555 1_555
C69_7 C70_7 1_555 1_555
C74_7 N18_7 1_555 1_555
C78_7 C79_7 1_555 1_555
C82_7 N19_7 1_555 1_555
C83_7 C84_7 1_555 1_555
C84_7 H37_7 1_555 1_555
C85_7 C84_7 1_555 1_555
C88_7 C83_7 1_555 1_555
H39_7 C88_7 1_555 1_555
C89_7 C85_7 1_555 1_555
N19_7 C91_7 1_555 1_555
N20_7 C82_7 1_555 1_555
H40_7 N20_7 1_555 1_555
C91_7 N21_7 1_555 1_555
C92_7 C93_7 1_555 1_555
C93_7 H41_7 1_555 1_555
C94_7 C93_7 1_555 1_555
C97_7 C92_7 1_555 1_555
H43_7 C97_7 1_555 1_555
C98_7 C94_7 1_555 1_555
N21_7 C100_7 1_555 1_555
N22_7 C91_7 1_555 1_555
H44_7 N22_7 1_555 1_555
O43_7 C98_7 1_555 1_555
C100_7 N23_7 1_555 1_555
C101_7 C102_7 1_555 1_555
C102_7 H45_7 1_555 1_555
C103_7 C102_7 1_555 1_555
C104_7 C103_7 1_555 1_555
H46_7 C104_7 1_555 1_555
C105_7 C104_7 1_555 1_555
C106_7 C101_7 1_555 1_555
H47_7 C106_7 1_555 1_555
C107_7 C103_7 1_555 1_555
C108_7 C105_7 1_555 1_555
N23_7 C82_7 1_555 1_555
N24_7 C100_7 1_555 1_555
H48_7 N24_7 1_555 1_555
O58 C107_7 1_555 1_555
O63 C107_7 1_555 1_555
O49_7 C108_7 1_555 1_555
O50_7 C108_7 1_555 1_555
Zn15_2 O43_7 1_555 1_555
Zn25_7 O49_7 1_555 1_555
C83_7 N20_7 1_555 1_555
C89_7 O59_3 1_555 1_555
C92_7 N22_7 1_555 1_555
C101_7 N24_7 1_555 1_555
C105_7 C106_7 1_555 1_555
H38_7 C86_7 1_555 1_555
C87_7 C86_7 1_555 1_555
C90_7 C87_7 1_555 1_555
O41_7 C90_7 1_555 1_555
O42_7 C90_7 1_555 1_555
Zn26_7 O41_7 1_555 1_555
H42_7 C95_7 1_555 1_555
C96_7 C95_7 1_555 1_555
C99_7 C96_7 1_555 1_555
O45_7 C99_7 1_555 1_555
O46_7 C99_7 1_555 1_555
Zn24_7 O45_7 1_555 1_555
O44_7 Zn15_3 1_555 1_555
C75_7 H33_7 1_555 1_555
C76_7 C75_7 1_555 1_555
C77_7 C76_7 1_555 1_555
H34_7 C77_7 1_555 1_555
C80_7 C76_7 1_555 1_555
O51_3 C80_7 1_555 1_555
O36_7 C80_7 1_555 1_555
Zn20_3 O36_7 1_555 1_555
O69_7 Zn20_3 1_555 1_555
Zn18_4 O26_8 1_555 1_555
C55_8 N13_8 1_555 1_555
C56_8 C57_8 1_555 1_555
C57_8 H25_8 1_555 1_555
C58_8 C57_8 1_555 1_555
C59_8 C58_8 1_555 1_555
H26_8 C59_8 1_555 1_555
C60_8 C59_8 1_555 1_555
C61_8 C56_8 1_555 1_555
H27_8 C61_8 1_555 1_555
C62_8 C58_8 1_555 1_555
C63_8 C60_8 1_555 1_555
N13_8 C64_8 1_555 1_555
N14_8 C55_8 1_555 1_555
H28_8 N14_8 1_555 1_555
O26_8 C62_8 1_555 1_555
O27_8 C62_8 1_555 1_555
O29_8 C63_8 1_555 1_555
O73_2 Zn18_4 1_555 1_555
C64_8 N15_8 1_555 1_555
C70_8 C65_8 1_555 1_555
H31_8 C70_8 1_555 1_555
C72_8 C69_8 1_555 1_555
N15_8 C73_8 1_555 1_555
N16_8 C64_8 1_555 1_555
H32_8 N16_8 1_555 1_555
O34_8 C72_8 1_555 1_555
C73_8 N17_8 1_555 1_555
C74_8 C75_8 1_555 1_555
C75_8 H33_8 1_555 1_555
C76_8 C75_8 1_555 1_555
C77_8 C76_8 1_555 1_555
H34_8 C77_8 1_555 1_555
C78_8 C77_8 1_555 1_555
C79_8 C74_8 1_555 1_555
H35_8 C79_8 1_555 1_555
C80_8 C76_8 1_555 1_555
C81_8 C78_8 1_555 1_555
N17_8 C55_8 1_555 1_555
N18_8 C73_8 1_555 1_555
H36_8 N18_8 1_555 1_555
O51_2 C80_8 1_555 1_555
O36_8 C80_8 1_555 1_555
O57_2 C81_8 1_555 1_555
O38_8 C81_8 1_555 1_555
Zn20_2 O36_8 1_555 1_555
H42_8 C95_8 1_555 1_555
C96_8 C95_8 1_555 1_555
C99_8 C96_8 1_555 1_555
O45_8 C99_8 1_555 1_555
O46_8 C99_8 1_555 1_555
Zn24_8 O45_8 1_555 1_555
O55_8 Zn18_4 1_555 1_555
O69_8 Zn20_2 1_555 1_555
O71_8 Zn19_2 1_555 1_555
C56_8 N14_8 1_555 1_555
C60_8 C61_8 1_555 1_555
C63_8 O56_2 1_555 1_555
O27_8 Zn19_2 1_555 1_555
C65_8 N16_8 1_555 1_555
C69_8 C70_8 1_555 1_555
C74_8 N18_8 1_555 1_555
C78_8 C79_8 1_555 1_555
O44_8 Zn15_4 1_555 1_555
C66_8 H29_8 1_555 1_555
C67_8 C66_8 1_555 1_555
C68_8 C67_8 1_555 1_555
H30_8 C68_8 1_555 1_555
C71_8 C67_8 1_555 1_555
O53_2 C71_8 1_555 1_555
O32_8 C71_8 1_555 1_555
Zn21_2 O32_8 1_555 1_555
C82_8 N19_8 1_555 1_555
C83_8 C84_8 1_555 1_555
C84_8 H37_8 1_555 1_555
C85_8 C84_8 1_555 1_555
C86_8 C85_8 1_555 1_555
H38_8 C86_8 1_555 1_555
C87_8 C86_8 1_555 1_555
C88_8 C83_8 1_555 1_555
H39_8 C88_8 1_555 1_555
C89_8 C85_8 1_555 1_555
C90_8 C87_8 1_555 1_555
N19_8 C91_8 1_555 1_555
N20_8 C82_8 1_555 1_555
H40_8 N20_8 1_555 1_555
O41_8 C90_8 1_555 1_555
O42_8 C90_8 1_555 1_555
C91_8 N21_8 1_555 1_555
C92_8 C93_8 1_555 1_555
C93_8 H41_8 1_555 1_555
C94_8 C93_8 1_555 1_555
C97_8 C92_8 1_555 1_555
H43_8 C97_8 1_555 1_555
C98_8 C94_8 1_555 1_555
N21_8 C100_8 1_555 1_555
N22_8 C91_8 1_555 1_555
H44_8 N22_8 1_555 1_555
O43_8 C98_8 1_555 1_555
C100_8 N23_8 1_555 1_555
C101_8 C102_8 1_555 1_555
C102_8 H45_8 1_555 1_555
C103_8 C102_8 1_555 1_555
C106_8 C101_8 1_555 1_555
H47_8 C106_8 1_555 1_555
C107_8 C103_8 1_555 1_555
N23_8 C82_8 1_555 1_555
N24_8 C100_8 1_555 1_555
H48_8 N24_8 1_555 1_555
O58_4 C107_8 1_555 1_555
Zn15_5 O43_8 1_555 1_555
Zn15_18 O33_8 1_555 1_555
Zn26_8 O41_8 1_555 1_555
O52_8 Zn21_2 1_555 1_555
O70_8 Zn21_2 1_555 1_555
C83_8 N20_8 1_555 1_555
C87_8 C88_8 1_555 1_555
C89_8 O59_2 1_555 1_555
C89_8 O64_2 1_555 1_555
C92_8 N22_8 1_555 1_555
C101_8 N24_8 1_555 1_555
H46_8 C104_8 1_555 1_555
C105_8 C104_8 1_555 1_555
C108_8 C105_8 1_555 1_555
O49_8 C108_8 1_555 1_555
O50_8 C108_8 1_555 1_555
Zn25_8 O49_8 1_555 1_555
C82_9 N19_9 1_555 1_555
C83_9 C84_9 1_555 1_555
C84_9 H37_9 1_555 1_555
C85_9 C84_9 1_555 1_555
C86_9 C85_9 1_555 1_555
H38_9 C86_9 1_555 1_555
C87_9 C86_9 1_555 1_555
C88_9 C83_9 1_555 1_555
H39_9 C88_9 1_555 1_555
C89_9 C85_9 1_555 1_555
C90_9 C87_9 1_555 1_555
N19_9 C91_9 1_555 1_555
N20_9 C82_9 1_555 1_555
H40_9 N20_9 1_555 1_555
O41_9 C90_9 1_555 1_555
O42_9 C90_9 1_555 1_555
C91_9 N21_9 1_555 1_555
C92_9 C93_9 1_555 1_555
C93_9 H41_9 1_555 1_555
C94_9 C93_9 1_555 1_555
C95_9 C94_9 1_555 1_555
H42_9 C95_9 1_555 1_555
C96_9 C95_9 1_555 1_555
C97_9 C92_9 1_555 1_555
H43_9 C97_9 1_555 1_555
C98_9 C94_9 1_555 1_555
C99_9 C96_9 1_555 1_555
N21_9 C100_9 1_555 1_555
N22_9 C91_9 1_555 1_555
H44_9 N22_9 1_555 1_555
O43_9 C98_9 1_555 1_555
O44_9 C98_9 1_555 1_555
O45_9 C99_9 1_555 1_555
O46_9 C99_9 1_555 1_555
C100_9 N23_9 1_555 1_555
C101_9 C102_9 1_555 1_555
C102_9 H45_9 1_555 1_555
C103_9 C102_9 1_555 1_555
C104_9 C103_9 1_555 1_555
H46_9 C104_9 1_555 1_555
C105_9 C104_9 1_555 1_555
C106_9 C101_9 1_555 1_555
H47_9 C106_9 1_555 1_555
C107_9 C103_9 1_555 1_555
C108_9 C105_9 1_555 1_555
N23_9 C82_9 1_555 1_555
N24_9 C100_9 1_555 1_555
H48_9 N24_9 1_555 1_555
O61 C107_9 1_555 1_555
O66 C107_9 1_555 1_555
O49_9 C108_9 1_555 1_555
O50_9 C108_9 1_555 1_555
Zn15_10 O43_9 1_555 1_555
Zn24_9 O45_9 1_555 1_555
Zn25_9 O49_9 1_555 1_555
Zn26_9 O41_9 1_555 1_555
O69_9 Zn23_2 1_555 1_555
C83_9 N20_9 1_555 1_555
C87_9 C88_9 1_555 1_555
C89_9 O60_2 1_555 1_555
C89_9 O65_2 1_555 1_555
C92_9 N22_9 1_555 1_555
C96_9 C97_9 1_555 1_555
O44_9 Zn15_10 1_555 1_555
C101_9 N24_9 1_555 1_555
C105_9 C106_9 1_555 1_555
O52_9 Zn22_2 1_555 1_555
O70_9 Zn22_2 1_555 1_555
H38_10 C86_10 1_555 1_555
C87_10 C86_10 1_555 1_555
C90_10 C87_10 1_555 1_555
O41_10 C90_10 1_555 1_555
O42_10 C90_10 1_555 1_555
Zn26_10 O41_10 1_555 1_555
O52_10 Zn22_4 1_555 1_555
O69_10 Zn23_4 1_555 1_555
O70_10 Zn22_4 1_555 1_555
H46_10 C104_10 1_555 1_555
C105_10 C104_10 1_555 1_555
C108_10 C105_10 1_555 1_555
O49_10 C108_10 1_555 1_555
O50_10 C108_10 1_555 1_555
Zn25_10 O49_10 1_555 1_555
C82_10 N19_10 1_555 1_555
C83_10 C84_10 1_555 1_555
C84_10 H37_10 1_555 1_555
C85_10 C84_10 1_555 1_555
C88_10 C83_10 1_555 1_555
H39_10 C88_10 1_555 1_555
C89_10 C85_10 1_555 1_555
N19_10 C91_10 1_555 1_555
N20_10 C82_10 1_555 1_555
H40_10 N20_10 1_555 1_555
C91_10 N21_10 1_555 1_555
C92_10 C93_10 1_555 1_555
C93_10 H41_10 1_555 1_555
C94_10 C93_10 1_555 1_555
C95_10 C94_10 1_555 1_555
H42_10 C95_10 1_555 1_555
C96_10 C95_10 1_555 1_555
C97_10 C92_10 1_555 1_555
H43_10 C97_10 1_555 1_555
C98_10 C94_10 1_555 1_555
C99_10 C96_10 1_555 1_555
N21_10 C100_10 1_555 1_555
N22_10 C91_10 1_555 1_555
H44_10 N22_10 1_555 1_555
O43_10 C98_10 1_555 1_555
O44_10 C98_10 1_555 1_555
O45_10 C99_10 1_555 1_555
O46_10 C99_10 1_555 1_555
C100_10 N23_10 1_555 1_555
C101_10 C102_10 1_555 1_555
C102_10 H45_10 1_555 1_555
C103_10 C102_10 1_555 1_555
C106_10 C101_10 1_555 1_555
H47_10 C106_10 1_555 1_555
C107_10 C103_10 1_555 1_555
N23_10 C82_10 1_555 1_555
N24_10 C100_10 1_555 1_555
H48_10 N24_10 1_555 1_555
O61_3 C107_10 1_555 1_555
Zn15_18 O43_10 1_555 1_555
Zn24_10 O45_10 1_555 1_555
C83_10 N20_10 1_555 1_555
C89_10 O60_4 1_555 1_555
C92_10 N22_10 1_555 1_555
C96_10 C97_10 1_555 1_555
O44_10 Zn15_18 1_555 1_555
C101_10 N24_10 1_555 1_555
C82_11 N19_11 1_555 1_555
C83_11 C84_11 1_555 1_555
C84_11 H37_11 1_555 1_555
C85_11 C84_11 1_555 1_555
C88_11 C83_11 1_555 1_555
H39_11 C88_11 1_555 1_555
C89_11 C85_11 1_555 1_555
N19_11 C91_11 1_555 1_555
N20_11 C82_11 1_555 1_555
H40_11 N20_11 1_555 1_555
C91_11 N21_11 1_555 1_555
C92_11 C93_11 1_555 1_555
C93_11 H41_11 1_555 1_555
C94_11 C93_11 1_555 1_555
C97_11 C92_11 1_555 1_555
H43_11 C97_11 1_555 1_555
C98_11 C94_11 1_555 1_555
N21_11 C100_11 1_555 1_555
N22_11 C91_11 1_555 1_555
H44_11 N22_11 1_555 1_555
O43_11 C98_11 1_555 1_555
C100_11 N23_11 1_555 1_555
C101_11 C102_11 1_555 1_555
C102_11 H45_11 1_555 1_555
C103_11 C102_11 1_555 1_555
C104_11 C103_11 1_555 1_555
H46_11 C104_11 1_555 1_555
C105_11 C104_11 1_555 1_555
C106_11 C101_11 1_555 1_555
H47_11 C106_11 1_555 1_555
C107_11 C103_11 1_555 1_555
C108_11 C105_11 1_555 1_555
N23_11 C82_11 1_555 1_555
N24_11 C100_11 1_555 1_555
H48_11 N24_11 1_555 1_555
O61_4 C107_11 1_555 1_555
O66_4 C107_11 1_555 1_555
O49_11 C108_11 1_555 1_555
O50_11 C108_11 1_555 1_555
Zn15_11 O43_11 1_555 1_555
Zn25_11 O49_11 1_555 1_555
C83_11 N20_11 1_555 1_555
C89_11 O60_3 1_555 1_555
C92_11 N22_11 1_555 1_555
C101_11 N24_11 1_555 1_555
C105_11 C106_11 1_555 1_555
H42_11 C95_11 1_555 1_555
C96_11 C95_11 1_555 1_555
C99_11 C96_11 1_555 1_555
O45_11 C99_11 1_555 1_555
O46_11 C99_11 1_555 1_555
Zn24_11 O45_11 1_555 1_555
O44_11 Zn15_12 1_555 1_555
O52_11 Zn22_3 1_555 1_555
O70_11 Zn22_3 1_555 1_555
H38_11 C86_11 1_555 1_555
C87_11 C86_11 1_555 1_555
C90_11 C87_11 1_555 1_555
O41_11 C90_11 1_555 1_555
O42_11 C90_11 1_555 1_555
Zn26_11 O41_11 1_555 1_555
O69_11 Zn23_3 1_555 1_555
H42_12 C95_12 1_555 1_555
C96_12 C95_12 1_555 1_555
C99_12 C96_12 1_555 1_555
O45_12 C99_12 1_555 1_555
O46_12 C99_12 1_555 1_555
Zn24_12 O45_12 1_555 1_555
O69_12 Zn23 1_555 1_555
O44_12 Zn15_13 1_555 1_555
C82_12 N19_12 1_555 1_555
C83_12 C84_12 1_555 1_555
C84_12 H37_12 1_555 1_555
C85_12 C84_12 1_555 1_555
C86_12 C85_12 1_555 1_555
H38_12 C86_12 1_555 1_555
C87_12 C86_12 1_555 1_555
C88_12 C83_12 1_555 1_555
H39_12 C88_12 1_555 1_555
C89_12 C85_12 1_555 1_555
C90_12 C87_12 1_555 1_555
N19_12 C91_12 1_555 1_555
N20_12 C82_12 1_555 1_555
H40_12 N20_12 1_555 1_555
O41_12 C90_12 1_555 1_555
O42_12 C90_12 1_555 1_555
C91_12 N21_12 1_555 1_555
C92_12 C93_12 1_555 1_555
C93_12 H41_12 1_555 1_555
C94_12 C93_12 1_555 1_555
C97_12 C92_12 1_555 1_555
H43_12 C97_12 1_555 1_555
C98_12 C94_12 1_555 1_555
N21_12 C100_12 1_555 1_555
N22_12 C91_12 1_555 1_555
H44_12 N22_12 1_555 1_555
O43_12 C98_12 1_555 1_555
C100_12 N23_12 1_555 1_555
C101_12 C102_12 1_555 1_555
C102_12 H45_12 1_555 1_555
C103_12 C102_12 1_555 1_555
C106_12 C101_12 1_555 1_555
H47_12 C106_12 1_555 1_555
C107_12 C103_12 1_555 1_555
N23_12 C82_12 1_555 1_555
N24_12 C100_12 1_555 1_555
H48_12 N24_12 1_555 1_555
O61_2 C107_12 1_555 1_555
Zn15_14 O43_12 1_555 1_555
Zn26_12 O41_12 1_555 1_555
O52_12 Zn22 1_555 1_555
O70_12 Zn22 1_555 1_555
C83_12 N20_12 1_555 1_555
C87_12 C88_12 1_555 1_555
C89_12 O60 1_555 1_555
C89_12 O65 1_555 1_555
C92_12 N22_12 1_555 1_555
C101_12 N24_12 1_555 1_555
H46_12 C104_12 1_555 1_555
C105_12 C104_12 1_555 1_555
C108_12 C105_12 1_555 1_555
O49_12 C108_12 1_555 1_555
O50_12 C108_12 1_555 1_555
Zn25_12 O49_12 1_555 1_555
Zn1_10 O3_5 1_555 1_555
Zn2_5 O1_5 1_555 1_555
C1_5 N1_5 1_555 1_555
C2_5 C3_5 1_555 1_555
C3_5 H1_5 1_555 1_555
C4_5 C3_5 1_555 1_555
C5_5 C4_5 1_555 1_555
H2_5 C5_5 1_555 1_555
C6_5 C5_5 1_555 1_555
C7_5 C2_5 1_555 1_555
H3_5 C7_5 1_555 1_555
C8_5 C4_5 1_555 1_555
C9_5 C6_5 1_555 1_555
C10_5 N3_5 1_555 1_555
C11_5 C12_5 1_555 1_555
C12_5 H4_5 1_555 1_555
C13_5 C12_5 1_555 1_555
C14_5 C13_5 1_555 1_555
H5_5 C14_5 1_555 1_555
C15_5 C14_5 1_555 1_555
C16_5 C11_5 1_555 1_555
H6_5 C16_5 1_555 1_555
C17_5 C13_5 1_555 1_555
C18_5 C15_5 1_555 1_555
N1_5 C19_5 1_555 1_555
N2_5 C1_5 1_555 1_555
H7_5 N2_5 1_555 1_555
N3_5 C37_5 1_555 1_555
N4_5 C10_5 1_555 1_555
H8_5 N4_5 1_555 1_555
O1_5 C8_5 1_555 1_555
O2_5 C8_5 1_555 1_555
O3_5 C9_5 1_555 1_555
O4_5 C9_5 1_555 1_555
O5_5 C17_5 1_555 1_555
O6_5 C17_5 1_555 1_555
O7_5 Zn2_5 1_555 1_555
O8_5 C18_5 1_555 1_555
O9_5 Zn2_5 1_555 1_555
C19_5 N5_5 1_555 1_555
C20_5 C21_5 1_555 1_555
C21_5 H9_5 1_555 1_555
C22_5 C21_5 1_555 1_555
C23_5 C22_5 1_555 1_555
H10_5 C23_5 1_555 1_555
C24_5 C23_5 1_555 1_555
C25_5 C20_5 1_555 1_555
H11_5 C25_5 1_555 1_555
C26_5 C22_5 1_555 1_555
C27_5 C24_5 1_555 1_555
N5_5 C28_5 1_555 1_555
N6_5 C19_5 1_555 1_555
H12_5 N6_5 1_555 1_555
O10_5 C26_5 1_555 1_555
O11_5 C26_5 1_555 1_555
O12_5 C27_5 1_555 1_555
O13_5 C27_5 1_555 1_555
C28_5 N7_5 1_555 1_555
C29_5 C30_5 1_555 1_555
C30_5 H13_5 1_555 1_555
C31_5 C30_5 1_555 1_555
C32_5 C31_5 1_555 1_555
H14_5 C32_5 1_555 1_555
C33_5 C32_5 1_555 1_555
C34_5 C29_5 1_555 1_555
H15_5 C34_5 1_555 1_555
C35_5 C31_5 1_555 1_555
C36_5 C33_5 1_555 1_555
N7_5 C1_5 1_555 1_555
N8_5 C28_5 1_555 1_555
H16_5 N8_5 1_555 1_555
O14_5 C35_5 1_555 1_555
O15_5 C35_5 1_555 1_555
O16_5 C36_5 1_555 1_555
O17_5 C36_5 1_555 1_555
C37_5 N9_5 1_555 1_555
C38_5 C39_5 1_555 1_555
C39_5 H17_5 1_555 1_555
C40_5 C39_5 1_555 1_555
C41_5 C40_5 1_555 1_555
H18_5 C41_5 1_555 1_555
C42_5 C41_5 1_555 1_555
C43_5 C38_5 1_555 1_555
H19_5 C43_5 1_555 1_555
C44_5 C40_5 1_555 1_555
C45_5 C42_5 1_555 1_555
N9_5 C46_5 1_555 1_555
N10_5 C37_5 1_555 1_555
H20_5 N10_5 1_555 1_555
O18_5 C44_5 1_555 1_555
O19_5 C44_5 1_555 1_555
O20_3 C45_5 1_555 1_555
O21_5 C45_5 1_555 1_555
C46_5 N11_5 1_555 1_555
C47_5 C48_5 1_555 1_555
C48_5 H21_5 1_555 1_555
C49_5 C48_5 1_555 1_555
C50_5 C49_5 1_555 1_555
H22_5 C50_5 1_555 1_555
C51_5 C50_5 1_555 1_555
C52_5 C47_5 1_555 1_555
H23_5 C52_5 1_555 1_555
C53_5 C49_5 1_555 1_555
C54_5 C51_5 1_555 1_555
N11_5 C10_5 1_555 1_555
N12_5 C46_5 1_555 1_555
H24_5 N12_5 1_555 1_555
O22_5 C53_5 1_555 1_555
O23_5 C53_5 1_555 1_555
O24_5 C54_5 1_555 1_555
O25_5 C54_5 1_555 1_555
Zn3_5 O16_5 1_555 1_555
Zn4_3 O26_9 1_555 1_555
C55_9 N13_9 1_555 1_555
C56_9 C57_9 1_555 1_555
C57_9 H25_9 1_555 1_555
C58_9 C57_9 1_555 1_555
C59_9 C58_9 1_555 1_555
H26_9 C59_9 1_555 1_555
C60_9 C59_9 1_555 1_555
C61_9 C56_9 1_555 1_555
H27_9 C61_9 1_555 1_555
C62_9 C58_9 1_555 1_555
C63_9 C60_9 1_555 1_555
N13_9 C64_9 1_555 1_555
N14_9 C55_9 1_555 1_555
H28_9 N14_9 1_555 1_555
O26_9 C62_9 1_555 1_555
O27_9 C62_9 1_555 1_555
O28_5 Zn3_5 1_555 1_555
O29_9 C63_9 1_555 1_555
O30_5 Zn4_3 1_555 1_555
C64_9 N15_9 1_555 1_555
C65_9 C66_9 1_555 1_555
C66_9 H29_9 1_555 1_555
C67_9 C66_9 1_555 1_555
C68_9 C67_9 1_555 1_555
H30_9 C68_9 1_555 1_555
C69_9 C68_9 1_555 1_555
C70_9 C65_9 1_555 1_555
H31_9 C70_9 1_555 1_555
C71_9 C67_9 1_555 1_555
C72_9 C69_9 1_555 1_555
N15_9 C73_9 1_555 1_555
N16_9 C64_9 1_555 1_555
H32_9 N16_9 1_555 1_555
O31_5 C71_9 1_555 1_555
O32_9 C71_9 1_555 1_555
O33_9 C72_9 1_555 1_555
O34_9 C72_9 1_555 1_555
C73_9 N17_9 1_555 1_555
C74_9 C75_9 1_555 1_555
C75_9 H33_9 1_555 1_555
C76_9 C75_9 1_555 1_555
C77_9 C76_9 1_555 1_555
H34_9 C77_9 1_555 1_555
C78_9 C77_9 1_555 1_555
C79_9 C74_9 1_555 1_555
H35_9 C79_9 1_555 1_555
C80_9 C76_9 1_555 1_555
C81_9 C78_9 1_555 1_555
N17_9 C55_9 1_555 1_555
N18_9 C73_9 1_555 1_555
H36_9 N18_9 1_555 1_555
O35_5 C80_9 1_555 1_555
O36_9 C80_9 1_555 1_555
O37_5 C81_9 1_555 1_555
O38_9 C81_9 1_555 1_555
Zn5_10 O37_5 1_555 1_555
Zn26_10 O36_9 1_555 1_555
Zn24_11 O32_9 1_555 1_555
Zn25_12 O10_5 1_555 1_555
C82_13 N19_13 1_555 1_555
C83_13 C84_13 1_555 1_555
C84_13 H37_13 1_555 1_555
C85_13 C84_13 1_555 1_555
C86_13 C85_13 1_555 1_555
H38_13 C86_13 1_555 1_555
C87_13 C86_13 1_555 1_555
C88_13 C83_13 1_555 1_555
H39_13 C88_13 1_555 1_555
C89_13 C85_13 1_555 1_555
C90_13 C87_13 1_555 1_555
N19_13 C91_13 1_555 1_555
N20_13 C82_13 1_555 1_555
H40_13 N20_13 1_555 1_555
O39_5 Zn1_10 1_555 1_555
O40_5 Zn1_10 1_555 1_555
O69_10 C90_13 1_555 1_555
O42_13 C90_13 1_555 1_555
C91_13 N21_13 1_555 1_555
C92_13 C93_13 1_555 1_555
C93_13 H41_13 1_555 1_555
C94_13 C93_13 1_555 1_555
C95_13 C94_13 1_555 1_555
H42_13 C95_13 1_555 1_555
C96_13 C95_13 1_555 1_555
C97_13 C92_13 1_555 1_555
H43_13 C97_13 1_555 1_555
C98_13 C94_13 1_555 1_555
C99_13 C96_13 1_555 1_555
N21_13 C100_13 1_555 1_555
N22_13 C91_13 1_555 1_555
H44_13 N22_13 1_555 1_555
O43_13 C98_13 1_555 1_555
O44_13 C98_13 1_555 1_555
O70_9 C99_13 1_555 1_555
O46_13 C99_13 1_555 1_555
C100_13 N23_13 1_555 1_555
C101_13 C102_13 1_555 1_555
C102_13 H45_13 1_555 1_555
C103_13 C102_13 1_555 1_555
C104_13 C103_13 1_555 1_555
H46_13 C104_13 1_555 1_555
C105_13 C104_13 1_555 1_555
C106_13 C101_13 1_555 1_555
H47_13 C106_13 1_555 1_555
C107_13 C103_13 1_555 1_555
C108_13 C105_13 1_555 1_555
N23_13 C82_13 1_555 1_555
N24_13 C100_13 1_555 1_555
H48_13 N24_13 1_555 1_555
O47_3 C107_13 1_555 1_555
O48_3 C107_13 1_555 1_555
O72 C108_13 1_555 1_555
O50_13 C108_13 1_555 1_555
Zn25 O2_5 1_555 1_555
Zn10_6 O47_3 1_555 1_555
Zn14_2 O12_5 1_555 1_555
Zn14 O43_13 1_555 1_555
Zn15 O22_5 1_555 1_555
Zn12 O5_5 1_555 1_555
Zn13 O33_9 1_555 1_555
Zn15_10 O18_5 1_555 1_555
Zn17_3 O20_3 1_555 1_555
Zn18_5 O24_5 1_555 1_555
Zn25_6 O31_5 1_555 1_555
Zn26_8 O14_5 1_555 1_555
Zn24_5 O9_5 1_555 1_555
Zn24_2 O11_5 1_555 1_555
Zn26_3 O15_5 1_555 1_555
O51_5 Zn26_10 1_555 1_555
O52_13 Zn24_11 1_555 1_555
O53_5 Zn25 1_555 1_555
O54_5 Zn2_5 1_555 1_555
O55_9 Zn4_3 1_555 1_555
O56_5 Zn5_10 1_555 1_555
O57_5 Zn1_10 1_555 1_555
O61_5 Zn1_10 1_555 1_555
O66_5 Zn1_10 1_555 1_555
O68_3 Zn4_3 1_555 1_555
O73_5 Zn24_11 1_555 1_555
O74_5 Zn26_10 1_555 1_555
C2_5 N2_5 1_555 1_555
C6_5 C7_5 1_555 1_555
C11_5 N4_5 1_555 1_555
C15_5 C16_5 1_555 1_555
C18_5 O7_5 1_555 1_555
O6_5 Zn12 1_555 1_555
O9_5 Zn25 1_555 1_555
C20_5 N6_5 1_555 1_555
C24_5 C25_5 1_555 1_555
C29_5 N8_5 1_555 1_555
C33_5 C34_5 1_555 1_555
C38_5 N10_5 1_555 1_555
C42_5 C43_5 1_555 1_555
O19_5 Zn15_10 1_555 1_555
C47_5 N12_5 1_555 1_555
C51_5 C52_5 1_555 1_555
O23_5 Zn15 1_555 1_555
C56_9 N14_9 1_555 1_555
C60_9 C61_9 1_555 1_555
C63_9 O28_5 1_555 1_555
O27_9 Zn25_12 1_555 1_555
O30_5 Zn25_12 1_555 1_555
O30_5 Zn24_2 1_555 1_555
C65_9 N16_9 1_555 1_555
C69_9 C70_9 1_555 1_555
C74_9 N18_9 1_555 1_555
C78_9 C79_9 1_555 1_555
O35_5 Zn26_3 1_555 1_555
C83_13 N20_13 1_555 1_555
C87_13 C88_13 1_555 1_555
C89_13 O39_5 1_555 1_555
C89_13 O40_5 1_555 1_555
C92_13 N22_13 1_555 1_555
C96_13 C97_13 1_555 1_555
O44_13 Zn14 1_555 1_555
C101_13 N24_13 1_555 1_555
C105_13 C106_13 1_555 1_555
O48_3 Zn10_6 1_555 1_555
Zn25_6 O73_5 1_555 1_555
Zn26_8 O74_5 1_555 1_555
Zn26_3 O74_5 1_555 1_555
H22_6 C50_6 1_555 1_555
C51_6 C50_6 1_555 1_555
C54_6 C51_6 1_555 1_555
O24_6 C54_6 1_555 1_555
O25_6 C54_6 1_555 1_555
Zn18_6 O24_6 1_555 1_555
O23_6 Zn15_2 1_555 1_555
Zn1_11 O3_6 1_555 1_555
Zn2_6 O1_6 1_555 1_555
C1_6 N1_6 1_555 1_555
C2_6 C3_6 1_555 1_555
C3_6 H1_6 1_555 1_555
C4_6 C3_6 1_555 1_555
C5_6 C4_6 1_555 1_555
H2_6 C5_6 1_555 1_555
C6_6 C5_6 1_555 1_555
C7_6 C2_6 1_555 1_555
H3_6 C7_6 1_555 1_555
C8_6 C4_6 1_555 1_555
C9_6 C6_6 1_555 1_555
C10_6 N3_6 1_555 1_555
C11_6 C12_6 1_555 1_555
C12_6 H4_6 1_555 1_555
C13_6 C12_6 1_555 1_555
C14_6 C13_6 1_555 1_555
H5_6 C14_6 1_555 1_555
C15_6 C14_6 1_555 1_555
C16_6 C11_6 1_555 1_555
H6_6 C16_6 1_555 1_555
C17_6 C13_6 1_555 1_555
C18_6 C15_6 1_555 1_555
N1_6 C19_6 1_555 1_555
N2_6 C1_6 1_555 1_555
H7_6 N2_6 1_555 1_555
N3_6 C37_6 1_555 1_555
N4_6 C10_6 1_555 1_555
H8_6 N4_6 1_555 1_555
O1_6 C8_6 1_555 1_555
O2_6 C8_6 1_555 1_555
O3_6 C9_6 1_555 1_555
O4_6 C9_6 1_555 1_555
O5_6 C17_6 1_555 1_555
O6_6 C17_6 1_555 1_555
O7_6 Zn2_6 1_555 1_555
O8_6 C18_6 1_555 1_555
O9_6 Zn2_6 1_555 1_555
C19_6 N5_6 1_555 1_555
C20_6 C21_6 1_555 1_555
C21_6 H9_6 1_555 1_555
C22_6 C21_6 1_555 1_555
C23_6 C22_6 1_555 1_555
H10_6 C23_6 1_555 1_555
C24_6 C23_6 1_555 1_555
C25_6 C20_6 1_555 1_555
H11_6 C25_6 1_555 1_555
C26_6 C22_6 1_555 1_555
C27_6 C24_6 1_555 1_555
N5_6 C28_6 1_555 1_555
N6_6 C19_6 1_555 1_555
H12_6 N6_6 1_555 1_555
O10_6 C26_6 1_555 1_555
O11_6 C26_6 1_555 1_555
O12_6 C27_6 1_555 1_555
O13_6 C27_6 1_555 1_555
C28_6 N7_6 1_555 1_555
C29_6 C30_6 1_555 1_555
C30_6 H13_6 1_555 1_555
C31_6 C30_6 1_555 1_555
C32_6 C31_6 1_555 1_555
H14_6 C32_6 1_555 1_555
C33_6 C32_6 1_555 1_555
C34_6 C29_6 1_555 1_555
H15_6 C34_6 1_555 1_555
C35_6 C31_6 1_555 1_555
C36_6 C33_6 1_555 1_555
N7_6 C1_6 1_555 1_555
N8_6 C28_6 1_555 1_555
H16_6 N8_6 1_555 1_555
O14_6 C35_6 1_555 1_555
O15_6 C35_6 1_555 1_555
O16_6 C36_6 1_555 1_555
O17_6 C36_6 1_555 1_555
C37_6 N9_6 1_555 1_555
C38_6 C39_6 1_555 1_555
C39_6 H17_6 1_555 1_555
C40_6 C39_6 1_555 1_555
C43_6 C38_6 1_555 1_555
H19_6 C43_6 1_555 1_555
C44_6 C40_6 1_555 1_555
N9_6 C46_6 1_555 1_555
N10_6 C37_6 1_555 1_555
H20_6 N10_6 1_555 1_555
O18_6 C44_6 1_555 1_555
C46_6 N11_6 1_555 1_555
C47_6 C48_6 1_555 1_555
C48_6 H21_6 1_555 1_555
C49_6 C48_6 1_555 1_555
C52_6 C47_6 1_555 1_555
H23_6 C52_6 1_555 1_555
C53_6 C49_6 1_555 1_555
N11_6 C10_6 1_555 1_555
N12_6 C46_6 1_555 1_555
H24_6 N12_6 1_555 1_555
O22_6 C53_6 1_555 1_555
Zn3_6 O16_6 1_555 1_555
Zn17_3 O26_10 1_555 1_555
C55_10 N13_10 1_555 1_555
C56_10 C57_10 1_555 1_555
C57_10 H25_10 1_555 1_555
C58_10 C57_10 1_555 1_555
C59_10 C58_10 1_555 1_555
H26_10 C59_10 1_555 1_555
C60_10 C59_10 1_555 1_555
C61_10 C56_10 1_555 1_555
H27_10 C61_10 1_555 1_555
C62_10 C58_10 1_555 1_555
C63_10 C60_10 1_555 1_555
N13_10 C64_10 1_555 1_555
N14_10 C55_10 1_555 1_555
H28_10 N14_10 1_555 1_555
O26_10 C62_10 1_555 1_555
O27_10 C62_10 1_555 1_555
O28_6 Zn3_6 1_555 1_555
O29_10 C63_10 1_555 1_555
O30_6 Zn17_3 1_555 1_555
C64_10 N15_10 1_555 1_555
C65_10 C66_10 1_555 1_555
C66_10 H29_10 1_555 1_555
C67_10 C66_10 1_555 1_555
C68_10 C67_10 1_555 1_555
H30_10 C68_10 1_555 1_555
C69_10 C68_10 1_555 1_555
C70_10 C65_10 1_555 1_555
H31_10 C70_10 1_555 1_555
C71_10 C67_10 1_555 1_555
C72_10 C69_10 1_555 1_555
N15_10 C73_10 1_555 1_555
N16_10 C64_10 1_555 1_555
H32_10 N16_10 1_555 1_555
O31_6 C71_10 1_555 1_555
O32_10 C71_10 1_555 1_555
O33_10 C72_10 1_555 1_555
O34_10 C72_10 1_555 1_555
C73_10 N17_10 1_555 1_555
C74_10 C75_10 1_555 1_555
C75_10 H33_10 1_555 1_555
C76_10 C75_10 1_555 1_555
C77_10 C76_10 1_555 1_555
H34_10 C77_10 1_555 1_555
C78_10 C77_10 1_555 1_555
C79_10 C74_10 1_555 1_555
H35_10 C79_10 1_555 1_555
C80_10 C76_10 1_555 1_555
C81_10 C78_10 1_555 1_555
N17_10 C55_10 1_555 1_555
N18_10 C73_10 1_555 1_555
H36_10 N18_10 1_555 1_555
O35_6 C80_10 1_555 1_555
O36_10 C80_10 1_555 1_555
O37_6 C81_10 1_555 1_555
O38_10 C81_10 1_555 1_555
Zn5_11 O37_6 1_555 1_555
Zn26_11 O36_10 1_555 1_555
Zn24_10 O32_10 1_555 1_555
Zn25_9 O10_6 1_555 1_555
Zn25_2 O2_6 1_555 1_555
Zn14 O12_6 1_555 1_555
Zn15_3 O22_6 1_555 1_555
Zn11 O5_6 1_555 1_555
Zn13_2 O33_10 1_555 1_555
Zn15_15 O18_6 1_555 1_555
Zn25_8 O31_6 1_555 1_555
Zn26_6 O14_6 1_555 1_555
Zn24_7 O9_6 1_555 1_555
Zn24 O11_6 1_555 1_555
Zn26_4 O15_6 1_555 1_555
O51_6 Zn26_11 1_555 1_555
O52_14 Zn24_10 1_555 1_555
O53_6 Zn25_2 1_555 1_555
O54_6 Zn2_6 1_555 1_555
O55_10 Zn17_3 1_555 1_555
O56_6 Zn5_11 1_555 1_555
O57_6 Zn1_11 1_555 1_555
O59_6 Zn3_6 1_555 1_555
O62_4 Zn3_6 1_555 1_555
O64_6 Zn3_6 1_555 1_555
O67_4 Zn3_6 1_555 1_555
O73_6 Zn24_10 1_555 1_555
O74_6 Zn26_11 1_555 1_555
C2_6 N2_6 1_555 1_555
C6_6 C7_6 1_555 1_555
C11_6 N4_6 1_555 1_555
C15_6 C16_6 1_555 1_555
C18_6 O7_6 1_555 1_555
O6_6 Zn11 1_555 1_555
O9_6 Zn25_2 1_555 1_555
C20_6 N6_6 1_555 1_555
C24_6 C25_6 1_555 1_555
C29_6 N8_6 1_555 1_555
C33_6 C34_6 1_555 1_555
C38_6 N10_6 1_555 1_555
C47_6 N12_6 1_555 1_555
C56_10 N14_10 1_555 1_555
C60_10 C61_10 1_555 1_555
C63_10 O28_6 1_555 1_555
O27_10 Zn25_9 1_555 1_555
O30_6 Zn25_9 1_555 1_555
O30_6 Zn24 1_555 1_555
C65_10 N16_10 1_555 1_555
C69_10 C70_10 1_555 1_555
C74_10 N18_10 1_555 1_555
C78_10 C79_10 1_555 1_555
O35_6 Zn26_4 1_555 1_555
Zn25_8 O73_6 1_555 1_555
Zn26_6 O74_6 1_555 1_555
Zn26_4 O74_6 1_555 1_555
H18_6 C41_6 1_555 1_555
C42_6 C41_6 1_555 1_555
C45_6 C42_6 1_555 1_555
O68_3 C45_6 1_555 1_555
O21_6 C45_6 1_555 1_555
C82_14 N19_14 1_555 1_555
C83_14 C84_14 1_555 1_555
C84_14 H37_14 1_555 1_555
C85_14 C84_14 1_555 1_555
C86_14 C85_14 1_555 1_555
H38_14 C86_14 1_555 1_555
C87_14 C86_14 1_555 1_555
C88_14 C83_14 1_555 1_555
H39_14 C88_14 1_555 1_555
C89_14 C85_14 1_555 1_555
C90_14 C87_14 1_555 1_555
N19_14 C91_14 1_555 1_555
N20_14 C82_14 1_555 1_555
H40_14 N20_14 1_555 1_555
O69_11 C90_14 1_555 1_555
O42_14 C90_14 1_555 1_555
C91_14 N21_14 1_555 1_555
C92_14 C93_14 1_555 1_555
C93_14 H41_14 1_555 1_555
C94_14 C93_14 1_555 1_555
C95_14 C94_14 1_555 1_555
H42_14 C95_14 1_555 1_555
C96_14 C95_14 1_555 1_555
C97_14 C92_14 1_555 1_555
H43_14 C97_14 1_555 1_555
C98_14 C94_14 1_555 1_555
C99_14 C96_14 1_555 1_555
N21_14 C100_14 1_555 1_555
N22_14 C91_14 1_555 1_555
H44_14 N22_14 1_555 1_555
O43_14 C98_14 1_555 1_555
O44_14 C98_14 1_555 1_555
O70_12 C99_14 1_555 1_555
O46_14 C99_14 1_555 1_555
C100_14 N23_14 1_555 1_555
C101_14 C102_14 1_555 1_555
C102_14 H45_14 1_555 1_555
C103_14 C102_14 1_555 1_555
C104_14 C103_14 1_555 1_555
H46_14 C104_14 1_555 1_555
C105_14 C104_14 1_555 1_555
C106_14 C101_14 1_555 1_555
H47_14 C106_14 1_555 1_555
C107_14 C103_14 1_555 1_555
C108_14 C105_14 1_555 1_555
N23_14 C82_14 1_555 1_555
N24_14 C100_14 1_555 1_555
H48_14 N24_14 1_555 1_555
O47_4 C107_14 1_555 1_555
O48_4 C107_14 1_555 1_555
O72_2 C108_14 1_555 1_555
O50_14 C108_14 1_555 1_555
Zn14_2 O43_14 1_555 1_555
O19_6 Zn15_16 1_555 1_555
C83_14 N20_14 1_555 1_555
C87_14 C88_14 1_555 1_555
C89_14 O39_6 1_555 1_555
C89_14 O40_6 1_555 1_555
C92_14 N22_14 1_555 1_555
C96_14 C97_14 1_555 1_555
O44_14 Zn14_2 1_555 1_555
C101_14 N24_14 1_555 1_555
C105_14 C106_14 1_555 1_555
H18_7 C41_7 1_555 1_555
C42_7 C41_7 1_555 1_555
C45_7 C42_7 1_555 1_555
O20_4 C45_7 1_555 1_555
O21_7 C45_7 1_555 1_555
Zn17_4 O20_4 1_555 1_555
O19_7 Zn15_11 1_555 1_555
C10_7 N3_7 1_555 1_555
C11_7 C12_7 1_555 1_555
C12_7 H4_7 1_555 1_555
C13_7 C12_7 1_555 1_555
C16_7 C11_7 1_555 1_555
H6_7 C16_7 1_555 1_555
C17_7 C13_7 1_555 1_555
N3_7 C37_7 1_555 1_555
N4_7 C10_7 1_555 1_555
H8_7 N4_7 1_555 1_555
O5_7 C17_7 1_555 1_555
C37_7 N9_7 1_555 1_555
C38_7 C39_7 1_555 1_555
C39_7 H17_7 1_555 1_555
C40_7 C39_7 1_555 1_555
C43_7 C38_7 1_555 1_555
H19_7 C43_7 1_555 1_555
C44_7 C40_7 1_555 1_555
N9_7 C46_7 1_555 1_555
N10_7 C37_7 1_555 1_555
H20_7 N10_7 1_555 1_555
O18_7 C44_7 1_555 1_555
C46_7 N11_7 1_555 1_555
C47_7 C48_7 1_555 1_555
C48_7 H21_7 1_555 1_555
C49_7 C48_7 1_555 1_555
C50_7 C49_7 1_555 1_555
H22_7 C50_7 1_555 1_555
C51_7 C50_7 1_555 1_555
C52_7 C47_7 1_555 1_555
H23_7 C52_7 1_555 1_555
C53_7 C49_7 1_555 1_555
C54_7 C51_7 1_555 1_555
N11_7 C10_7 1_555 1_555
N12_7 C46_7 1_555 1_555
H24_7 N12_7 1_555 1_555
O22_7 C53_7 1_555 1_555
O23_7 C53_7 1_555 1_555
O24_7 C54_7 1_555 1_555
O25_7 C54_7 1_555 1_555
Zn15_8 O22_7 1_555 1_555
Zn11_4 O5_7 1_555 1_555
Zn15_12 O18_7 1_555 1_555
Zn18_7 O24_7 1_555 1_555
C11_7 N4_7 1_555 1_555
C38_7 N10_7 1_555 1_555
C47_7 N12_7 1_555 1_555
C51_7 C52_7 1_555 1_555
O23_7 Zn15_8 1_555 1_555
C82_15 N19_15 1_555 1_555
C83_15 C84_15 1_555 1_555
C84_15 H37_15 1_555 1_555
C85_15 C84_15 1_555 1_555
C86_15 C85_15 1_555 1_555
H38_15 C86_15 1_555 1_555
C87_15 C86_15 1_555 1_555
C88_15 C83_15 1_555 1_555
H39_15 C88_15 1_555 1_555
C89_15 C85_15 1_555 1_555
C90_15 C87_15 1_555 1_555
N19_15 C91_15 1_555 1_555
N20_15 C82_15 1_555 1_555
H40_15 N20_15 1_555 1_555
O69_12 C90_15 1_555 1_555
O42_15 C90_15 1_555 1_555
C91_15 N21_15 1_555 1_555
C92_15 C93_15 1_555 1_555
C93_15 H41_15 1_555 1_555
C94_15 C93_15 1_555 1_555
C95_15 C94_15 1_555 1_555
H42_15 C95_15 1_555 1_555
C96_15 C95_15 1_555 1_555
C97_15 C92_15 1_555 1_555
H43_15 C97_15 1_555 1_555
C98_15 C94_15 1_555 1_555
C99_15 C96_15 1_555 1_555
N21_15 C100_15 1_555 1_555
N22_15 C91_15 1_555 1_555
H44_15 N22_15 1_555 1_555
O43_15 C98_15 1_555 1_555
O44_15 C98_15 1_555 1_555
O70_11 C99_15 1_555 1_555
O46_15 C99_15 1_555 1_555
C100_15 N23_15 1_555 1_555
C101_15 C102_15 1_555 1_555
C102_15 H45_15 1_555 1_555
C103_15 C102_15 1_555 1_555
C104_15 C103_15 1_555 1_555
H46_15 C104_15 1_555 1_555
C105_15 C104_15 1_555 1_555
C106_15 C101_15 1_555 1_555
H47_15 C106_15 1_555 1_555
C107_15 C103_15 1_555 1_555
C108_15 C105_15 1_555 1_555
N23_15 C82_15 1_555 1_555
N24_15 C100_15 1_555 1_555
H48_15 N24_15 1_555 1_555
O62_4 C107_15 1_555 1_555
O67_4 C107_15 1_555 1_555
O72_4 C108_15 1_555 1_555
O50_15 C108_15 1_555 1_555
C83_15 N20_15 1_555 1_555
C87_15 C88_15 1_555 1_555
C89_15 O39_7 1_555 1_555
C89_15 O40_7 1_555 1_555
C92_15 N22_15 1_555 1_555
C96_15 C97_15 1_555 1_555
C101_15 N24_15 1_555 1_555
C105_15 C106_15 1_555 1_555
Zn1_12 O3_7 1_555 1_555
Zn2_7 O1_7 1_555 1_555
C1_7 N1_7 1_555 1_555
C2_7 C3_7 1_555 1_555
C3_7 H1_7 1_555 1_555
C4_7 C3_7 1_555 1_555
C5_7 C4_7 1_555 1_555
H2_7 C5_7 1_555 1_555
C6_7 C5_7 1_555 1_555
C7_7 C2_7 1_555 1_555
H3_7 C7_7 1_555 1_555
C8_7 C4_7 1_555 1_555
C9_7 C6_7 1_555 1_555
H5_7 C14_7 1_555 1_555
C15_7 C14_7 1_555 1_555
C18_7 C15_7 1_555 1_555
N1_7 C19_7 1_555 1_555
N2_7 C1_7 1_555 1_555
H7_7 N2_7 1_555 1_555
O1_7 C8_7 1_555 1_555
O2_7 C8_7 1_555 1_555
O3_7 C9_7 1_555 1_555
O4_7 C9_7 1_555 1_555
O7_7 Zn2_7 1_555 1_555
O8_7 C18_7 1_555 1_555
O9_7 Zn2_7 1_555 1_555
C19_7 N5_7 1_555 1_555
C20_7 C21_7 1_555 1_555
C21_7 H9_7 1_555 1_555
C22_7 C21_7 1_555 1_555
C23_7 C22_7 1_555 1_555
H10_7 C23_7 1_555 1_555
C24_7 C23_7 1_555 1_555
C25_7 C20_7 1_555 1_555
H11_7 C25_7 1_555 1_555
C26_7 C22_7 1_555 1_555
C27_7 C24_7 1_555 1_555
N5_7 C28_7 1_555 1_555
N6_7 C19_7 1_555 1_555
H12_7 N6_7 1_555 1_555
O10_7 C26_7 1_555 1_555
O11_7 C26_7 1_555 1_555
O12_7 C27_7 1_555 1_555
O13_7 C27_7 1_555 1_555
C28_7 N7_7 1_555 1_555
C29_7 C30_7 1_555 1_555
C30_7 H13_7 1_555 1_555
C31_7 C30_7 1_555 1_555
C32_7 C31_7 1_555 1_555
H14_7 C32_7 1_555 1_555
C33_7 C32_7 1_555 1_555
C34_7 C29_7 1_555 1_555
H15_7 C34_7 1_555 1_555
C35_7 C31_7 1_555 1_555
C36_7 C33_7 1_555 1_555
N7_7 C1_7 1_555 1_555
N8_7 C28_7 1_555 1_555
H16_7 N8_7 1_555 1_555
O14_7 C35_7 1_555 1_555
O15_7 C35_7 1_555 1_555
O16_7 C36_7 1_555 1_555
O17_7 C36_7 1_555 1_555
Zn10_7 O16_7 1_555 1_555
Zn4_4 O26_11 1_555 1_555
C55_11 N13_11 1_555 1_555
C56_11 C57_11 1_555 1_555
C57_11 H25_11 1_555 1_555
C58_11 C57_11 1_555 1_555
C59_11 C58_11 1_555 1_555
H26_11 C59_11 1_555 1_555
C60_11 C59_11 1_555 1_555
C61_11 C56_11 1_555 1_555
H27_11 C61_11 1_555 1_555
C62_11 C58_11 1_555 1_555
C63_11 C60_11 1_555 1_555
N13_11 C64_11 1_555 1_555
N14_11 C55_11 1_555 1_555
H28_11 N14_11 1_555 1_555
O26_11 C62_11 1_555 1_555
O27_11 C62_11 1_555 1_555
O28_7 Zn10_7 1_555 1_555
O29_11 C63_11 1_555 1_555
O30_7 Zn4_4 1_555 1_555
C64_11 N15_11 1_555 1_555
C65_11 C66_11 1_555 1_555
C66_11 H29_11 1_555 1_555
C67_11 C66_11 1_555 1_555
C68_11 C67_11 1_555 1_555
H30_11 C68_11 1_555 1_555
C69_11 C68_11 1_555 1_555
C70_11 C65_11 1_555 1_555
H31_11 C70_11 1_555 1_555
C71_11 C67_11 1_555 1_555
C72_11 C69_11 1_555 1_555
N15_11 C73_11 1_555 1_555
N16_11 C64_11 1_555 1_555
H32_11 N16_11 1_555 1_555
O31_7 C71_11 1_555 1_555
O32_11 C71_11 1_555 1_555
O33_11 C72_11 1_555 1_555
O34_11 C72_11 1_555 1_555
C73_11 N17_11 1_555 1_555
C74_11 C75_11 1_555 1_555
C75_11 H33_11 1_555 1_555
C76_11 C75_11 1_555 1_555
C77_11 C76_11 1_555 1_555
H34_11 C77_11 1_555 1_555
C78_11 C77_11 1_555 1_555
C79_11 C74_11 1_555 1_555
H35_11 C79_11 1_555 1_555
C80_11 C76_11 1_555 1_555
C81_11 C78_11 1_555 1_555
N17_11 C55_11 1_555 1_555
N18_11 C73_11 1_555 1_555
H36_11 N18_11 1_555 1_555
O35_7 C80_11 1_555 1_555
O36_11 C80_11 1_555 1_555
O37_7 C81_11 1_555 1_555
O38_11 C81_11 1_555 1_555
Zn5_12 O37_7 1_555 1_555
Zn26_12 O36_11 1_555 1_555
Zn24_9 O32_11 1_555 1_555
Zn25_10 O10_7 1_555 1_555
Zn25_4 O2_7 1_555 1_555
Zn14_3 O12_7 1_555 1_555
Zn13_4 O33_11 1_555 1_555
Zn25_5 O31_7 1_555 1_555
Zn26_7 O14_7 1_555 1_555
Zn24_6 O9_7 1_555 1_555
Zn24_3 O11_7 1_555 1_555
Zn26_2 O15_7 1_555 1_555
O51_7 Zn26_12 1_555 1_555
O52_15 Zn24_9 1_555 1_555
O53_7 Zn25_4 1_555 1_555
O54_7 Zn2_7 1_555 1_555
O55_11 Zn4_4 1_555 1_555
O56_7 Zn5_12 1_555 1_555
O57_7 Zn1_12 1_555 1_555
O58_7 Zn5_12 1_555 1_555
O60_7 Zn5_12 1_555 1_555
O63_7 Zn5_12 1_555 1_555
O65_7 Zn5_12 1_555 1_555
O68_4 Zn4_4 1_555 1_555
O73_7 Zn24_9 1_555 1_555
O74_7 Zn26_12 1_555 1_555
C2_7 N2_7 1_555 1_555
C6_7 C7_7 1_555 1_555
C18_7 O7_7 1_555 1_555
O6_7 Zn11_6 1_555 1_555
O9_7 Zn25_4 1_555 1_555
C20_7 N6_7 1_555 1_555
C24_7 C25_7 1_555 1_555
C29_7 N8_7 1_555 1_555
C33_7 C34_7 1_555 1_555
C56_11 N14_11 1_555 1_555
C60_11 C61_11 1_555 1_555
C63_11 O28_7 1_555 1_555
O27_11 Zn25_10 1_555 1_555
O30_7 Zn25_10 1_555 1_555
O30_7 Zn24_3 1_555 1_555
C65_11 N16_11 1_555 1_555
C69_11 C70_11 1_555 1_555
C74_11 N18_11 1_555 1_555
C78_11 C79_11 1_555 1_555
O35_7 Zn26_2 1_555 1_555
Zn25_5 O73_7 1_555 1_555
Zn26_7 O74_7 1_555 1_555
Zn26_2 O74_7 1_555 1_555
Zn1_13 O3_8 1_555 1_555
Zn2_8 O1_8 1_555 1_555
C1_8 N1_8 1_555 1_555
C2_8 C3_8 1_555 1_555
C3_8 H1_8 1_555 1_555
C4_8 C3_8 1_555 1_555
C5_8 C4_8 1_555 1_555
H2_8 C5_8 1_555 1_555
C6_8 C5_8 1_555 1_555
C7_8 C2_8 1_555 1_555
H3_8 C7_8 1_555 1_555
C8_8 C4_8 1_555 1_555
C9_8 C6_8 1_555 1_555
H5_8 C14_8 1_555 1_555
C15_8 C14_8 1_555 1_555
C18_8 C15_8 1_555 1_555
N1_8 C19_8 1_555 1_555
N2_8 C1_8 1_555 1_555
H7_8 N2_8 1_555 1_555
O1_8 C8_8 1_555 1_555
O2_8 C8_8 1_555 1_555
O3_8 C9_8 1_555 1_555
O4_8 C9_8 1_555 1_555
O7_8 Zn2_8 1_555 1_555
O8_8 C18_8 1_555 1_555
O9_8 Zn2_8 1_555 1_555
C19_8 N5_8 1_555 1_555
C20_8 C21_8 1_555 1_555
C21_8 H9_8 1_555 1_555
C22_8 C21_8 1_555 1_555
C23_8 C22_8 1_555 1_555
H10_8 C23_8 1_555 1_555
C24_8 C23_8 1_555 1_555
C25_8 C20_8 1_555 1_555
H11_8 C25_8 1_555 1_555
C26_8 C22_8 1_555 1_555
C27_8 C24_8 1_555 1_555
N5_8 C28_8 1_555 1_555
N6_8 C19_8 1_555 1_555
H12_8 N6_8 1_555 1_555
O10_8 C26_8 1_555 1_555
O11_8 C26_8 1_555 1_555
O12_8 C27_8 1_555 1_555
O13_8 C27_8 1_555 1_555
C28_8 N7_8 1_555 1_555
C29_8 C30_8 1_555 1_555
C30_8 H13_8 1_555 1_555
C31_8 C30_8 1_555 1_555
C32_8 C31_8 1_555 1_555
H14_8 C32_8 1_555 1_555
C33_8 C32_8 1_555 1_555
C34_8 C29_8 1_555 1_555
H15_8 C34_8 1_555 1_555
C35_8 C31_8 1_555 1_555
C36_8 C33_8 1_555 1_555
N7_8 C1_8 1_555 1_555
N8_8 C28_8 1_555 1_555
H16_8 N8_8 1_555 1_555
O14_8 C35_8 1_555 1_555
O15_8 C35_8 1_555 1_555
O16_8 C36_8 1_555 1_555
O17_8 C36_8 1_555 1_555
Zn10_6 O16_8 1_555 1_555
Zn17_4 O26_12 1_555 1_555
C55_12 N13_12 1_555 1_555
C56_12 C57_12 1_555 1_555
C57_12 H25_12 1_555 1_555
C58_12 C57_12 1_555 1_555
C59_12 C58_12 1_555 1_555
H26_12 C59_12 1_555 1_555
C60_12 C59_12 1_555 1_555
C61_12 C56_12 1_555 1_555
H27_12 C61_12 1_555 1_555
C62_12 C58_12 1_555 1_555
C63_12 C60_12 1_555 1_555
N13_12 C64_12 1_555 1_555
N14_12 C55_12 1_555 1_555
H28_12 N14_12 1_555 1_555
O26_12 C62_12 1_555 1_555
O27_12 C62_12 1_555 1_555
O28_8 Zn10_6 1_555 1_555
O29_12 C63_12 1_555 1_555
O30_8 Zn17_4 1_555 1_555
C64_12 N15_12 1_555 1_555
C65_12 C66_12 1_555 1_555
C66_12 H29_12 1_555 1_555
C67_12 C66_12 1_555 1_555
C68_12 C67_12 1_555 1_555
H30_12 C68_12 1_555 1_555
C69_12 C68_12 1_555 1_555
C70_12 C65_12 1_555 1_555
H31_12 C70_12 1_555 1_555
C71_12 C67_12 1_555 1_555
C72_12 C69_12 1_555 1_555
N15_12 C73_12 1_555 1_555
N16_12 C64_12 1_555 1_555
H32_12 N16_12 1_555 1_555
O31_8 C71_12 1_555 1_555
O32_12 C71_12 1_555 1_555
O33_12 C72_12 1_555 1_555
O34_12 C72_12 1_555 1_555
C73_12 N17_12 1_555 1_555
C74_12 C75_12 1_555 1_555
C75_12 H33_12 1_555 1_555
C76_12 C75_12 1_555 1_555
C77_12 C76_12 1_555 1_555
H34_12 C77_12 1_555 1_555
C78_12 C77_12 1_555 1_555
C79_12 C74_12 1_555 1_555
H35_12 C79_12 1_555 1_555
C80_12 C76_12 1_555 1_555
C81_12 C78_12 1_555 1_555
N17_12 C55_12 1_555 1_555
N18_12 C73_12 1_555 1_555
H36_12 N18_12 1_555 1_555
O35_8 C80_12 1_555 1_555
O36_12 C80_12 1_555 1_555
O37_8 C81_12 1_555 1_555
O38_12 C81_12 1_555 1_555
Zn5_13 O37_8 1_555 1_555
Zn26_9 O36_12 1_555 1_555
Zn24_12 O32_12 1_555 1_555
Zn25_11 O10_8 1_555 1_555
C82_16 N19_16 1_555 1_555
C83_16 C84_16 1_555 1_555
C84_16 H37_16 1_555 1_555
C85_16 C84_16 1_555 1_555
C86_16 C85_16 1_555 1_555
H38_16 C86_16 1_555 1_555
C87_16 C86_16 1_555 1_555
C88_16 C83_16 1_555 1_555
H39_16 C88_16 1_555 1_555
C89_16 C85_16 1_555 1_555
C90_16 C87_16 1_555 1_555
N19_16 C91_16 1_555 1_555
N20_16 C82_16 1_555 1_555
H40_16 N20_16 1_555 1_555
O39_8 Zn1_13 1_555 1_555
O40_8 Zn1_13 1_555 1_555
O69_9 C90_16 1_555 1_555
O42_16 C90_16 1_555 1_555
C91_16 N21_16 1_555 1_555
C92_16 C93_16 1_555 1_555
C93_16 H41_16 1_555 1_555
C94_16 C93_16 1_555 1_555
C95_16 C94_16 1_555 1_555
H42_16 C95_16 1_555 1_555
C96_16 C95_16 1_555 1_555
C97_16 C92_16 1_555 1_555
H43_16 C97_16 1_555 1_555
C98_16 C94_16 1_555 1_555
C99_16 C96_16 1_555 1_555
N21_16 C100_16 1_555 1_555
N22_16 C91_16 1_555 1_555
H44_16 N22_16 1_555 1_555
O43_16 C98_16 1_555 1_555
O44_16 C98_16 1_555 1_555
O70_10 C99_16 1_555 1_555
O46_16 C99_16 1_555 1_555
C100_16 N23_16 1_555 1_555
C101_16 C102_16 1_555 1_555
C102_16 H45_16 1_555 1_555
C103_16 C102_16 1_555 1_555
C104_16 C103_16 1_555 1_555
H46_16 C104_16 1_555 1_555
C105_16 C104_16 1_555 1_555
C106_16 C101_16 1_555 1_555
H47_16 C106_16 1_555 1_555
C107_16 C103_16 1_555 1_555
C108_16 C105_16 1_555 1_555
N23_16 C82_16 1_555 1_555
N24_16 C100_16 1_555 1_555
H48_16 N24_16 1_555 1_555
O62_3 C107_16 1_555 1_555
O67_3 C107_16 1_555 1_555
O72_3 C108_16 1_555 1_555
O50_16 C108_16 1_555 1_555
Zn25_3 O2_8 1_555 1_555
Zn14_4 O12_8 1_555 1_555
Zn13_3 O33_12 1_555 1_555
Zn25_7 O31_8 1_555 1_555
Zn26_5 O14_8 1_555 1_555
Zn24_8 O9_8 1_555 1_555
Zn24_4 O11_8 1_555 1_555
Zn26 O15_8 1_555 1_555
O51_8 Zn26_9 1_555 1_555
O52_16 Zn24_12 1_555 1_555
O53_8 Zn25_3 1_555 1_555
O54_8 Zn2_8 1_555 1_555
O55_12 Zn17_4 1_555 1_555
O56_8 Zn5_13 1_555 1_555
O57_8 Zn1_13 1_555 1_555
O58_8 Zn5_13 1_555 1_555
O59_8 Zn10_6 1_555 1_555
O60_8 Zn5_13 1_555 1_555
O61_8 Zn1_13 1_555 1_555
O63_8 Zn5_13 1_555 1_555
O64_8 Zn10_6 1_555 1_555
O65_8 Zn5_13 1_555 1_555
O66_8 Zn1_13 1_555 1_555
O73_8 Zn24_12 1_555 1_555
O74_8 Zn26_9 1_555 1_555
C2_8 N2_8 1_555 1_555
C6_8 C7_8 1_555 1_555
C18_8 O7_8 1_555 1_555
O6_8 Zn12_2 1_555 1_555
O9_8 Zn25_3 1_555 1_555
C20_8 N6_8 1_555 1_555
C24_8 C25_8 1_555 1_555
C29_8 N8_8 1_555 1_555
C33_8 C34_8 1_555 1_555
C56_12 N14_12 1_555 1_555
C60_12 C61_12 1_555 1_555
C63_12 O28_8 1_555 1_555
O27_12 Zn25_11 1_555 1_555
O30_8 Zn25_11 1_555 1_555
O30_8 Zn24_4 1_555 1_555
C65_12 N16_12 1_555 1_555
C69_12 C70_12 1_555 1_555
C74_12 N18_12 1_555 1_555
C78_12 C79_12 1_555 1_555
O35_8 Zn26 1_555 1_555
C83_16 N20_16 1_555 1_555
C87_16 C88_16 1_555 1_555
C89_16 O39_8 1_555 1_555
C89_16 O40_8 1_555 1_555
C92_16 N22_16 1_555 1_555
C96_16 C97_16 1_555 1_555
C101_16 N24_16 1_555 1_555
C105_16 C106_16 1_555 1_555
Zn25_7 O73_8 1_555 1_555
Zn26_5 O74_8 1_555 1_555
Zn26 O74_8 1_555 1_555
C10_8 N3_8 1_555 1_555
C11_8 C12_8 1_555 1_555
C12_8 H4_8 1_555 1_555
C13_8 C12_8 1_555 1_555
C16_8 C11_8 1_555 1_555
H6_8 C16_8 1_555 1_555
C17_8 C13_8 1_555 1_555
N3_8 C37_8 1_555 1_555
N4_8 C10_8 1_555 1_555
H8_8 N4_8 1_555 1_555
O5_8 C17_8 1_555 1_555
C37_8 N9_8 1_555 1_555
C38_8 C39_8 1_555 1_555
C39_8 H17_8 1_555 1_555
C40_8 C39_8 1_555 1_555
C41_8 C40_8 1_555 1_555
H18_8 C41_8 1_555 1_555
C42_8 C41_8 1_555 1_555
C43_8 C38_8 1_555 1_555
H19_8 C43_8 1_555 1_555
C44_8 C40_8 1_555 1_555
C45_8 C42_8 1_555 1_555
N9_8 C46_8 1_555 1_555
N10_8 C37_8 1_555 1_555
H20_8 N10_8 1_555 1_555
O18_8 C44_8 1_555 1_555
O19_8 C44_8 1_555 1_555
O68_4 C45_8 1_555 1_555
O21_8 C45_8 1_555 1_555
C46_8 N11_8 1_555 1_555
C47_8 C48_8 1_555 1_555
C48_8 H21_8 1_555 1_555
C49_8 C48_8 1_555 1_555
C52_8 C47_8 1_555 1_555
H23_8 C52_8 1_555 1_555
C53_8 C49_8 1_555 1_555
N11_8 C10_8 1_555 1_555
N12_8 C46_8 1_555 1_555
H24_8 N12_8 1_555 1_555
O22_8 C53_8 1_555 1_555
Zn15_6 O22_8 1_555 1_555
Zn12_3 O5_8 1_555 1_555
Zn15_17 O18_8 1_555 1_555
C11_8 N4_8 1_555 1_555
C38_8 N10_8 1_555 1_555
C42_8 C43_8 1_555 1_555
O19_8 Zn15_17 1_555 1_555
C47_8 N12_8 1_555 1_555
H22_8 C50_8 1_555 1_555
C51_8 C50_8 1_555 1_555
C54_8 C51_8 1_555 1_555
O24_8 C54_8 1_555 1_555
O25_8 C54_8 1_555 1_555
Zn18_8 O24_8 1_555 1_555
O23_8 Zn15_7 1_555 1_555
Zn18_6 O26_13 1_555 1_555
C55_13 N13_13 1_555 1_555
C56_13 C57_13 1_555 1_555
C57_13 H25_13 1_555 1_555
C58_13 C57_13 1_555 1_555
C59_13 C58_13 1_555 1_555
H26_13 C59_13 1_555 1_555
C60_13 C59_13 1_555 1_555
C61_13 C56_13 1_555 1_555
H27_13 C61_13 1_555 1_555
C62_13 C58_13 1_555 1_555
C63_13 C60_13 1_555 1_555
N13_13 C64_13 1_555 1_555
N14_13 C55_13 1_555 1_555
H28_13 N14_13 1_555 1_555
O26_13 C62_13 1_555 1_555
O27_13 C62_13 1_555 1_555
O29_13 C63_13 1_555 1_555
O73_8 Zn18_6 1_555 1_555
C64_13 N15_13 1_555 1_555
C65_13 C66_13 1_555 1_555
C66_13 H29_13 1_555 1_555
C67_13 C66_13 1_555 1_555
C68_13 C67_13 1_555 1_555
H30_13 C68_13 1_555 1_555
C69_13 C68_13 1_555 1_555
C70_13 C65_13 1_555 1_555
H31_13 C70_13 1_555 1_555
C71_13 C67_13 1_555 1_555
C72_13 C69_13 1_555 1_555
N15_13 C73_13 1_555 1_555
N16_13 C64_13 1_555 1_555
H32_13 N16_13 1_555 1_555
O53_8 C71_13 1_555 1_555
O32_13 C71_13 1_555 1_555
O33_13 C72_13 1_555 1_555
O34_13 C72_13 1_555 1_555
C73_13 N17_13 1_555 1_555
C74_13 C75_13 1_555 1_555
C75_13 H33_13 1_555 1_555
C76_13 C75_13 1_555 1_555
C77_13 C76_13 1_555 1_555
H34_13 C77_13 1_555 1_555
C78_13 C77_13 1_555 1_555
C79_13 C74_13 1_555 1_555
H35_13 C79_13 1_555 1_555
C80_13 C76_13 1_555 1_555
C81_13 C78_13 1_555 1_555
N17_13 C55_13 1_555 1_555
N18_13 C73_13 1_555 1_555
H36_13 N18_13 1_555 1_555
O51_8 C80_13 1_555 1_555
O36_13 C80_13 1_555 1_555
O57_8 C81_13 1_555 1_555
O38_13 C81_13 1_555 1_555
Zn26_5 O36_13 1_555 1_555
Zn24_8 O32_13 1_555 1_555
C82_17 N19_17 1_555 1_555
C83_17 C84_17 1_555 1_555
C84_17 H37_17 1_555 1_555
C85_17 C84_17 1_555 1_555
C86_17 C85_17 1_555 1_555
H38_17 C86_17 1_555 1_555
C87_17 C86_17 1_555 1_555
C88_17 C83_17 1_555 1_555
H39_17 C88_17 1_555 1_555
C89_17 C85_17 1_555 1_555
C90_17 C87_17 1_555 1_555
N19_17 C91_17 1_555 1_555
N20_17 C82_17 1_555 1_555
H40_17 N20_17 1_555 1_555
O69_5 C90_17 1_555 1_555
O42_17 C90_17 1_555 1_555
C91_17 N21_17 1_555 1_555
C92_17 C93_17 1_555 1_555
C93_17 H41_17 1_555 1_555
C94_17 C93_17 1_555 1_555
C95_17 C94_17 1_555 1_555
H42_17 C95_17 1_555 1_555
C96_17 C95_17 1_555 1_555
C97_17 C92_17 1_555 1_555
H43_17 C97_17 1_555 1_555
C98_17 C94_17 1_555 1_555
C99_17 C96_17 1_555 1_555
N21_17 C100_17 1_555 1_555
N22_17 C91_17 1_555 1_555
H44_17 N22_17 1_555 1_555
O43_17 C98_17 1_555 1_555
O44_17 C98_17 1_555 1_555
O70_6 C99_17 1_555 1_555
O46_17 C99_17 1_555 1_555
C100_17 N23_17 1_555 1_555
C101_17 C102_17 1_555 1_555
C102_17 H45_17 1_555 1_555
C103_17 C102_17 1_555 1_555
C104_17 C103_17 1_555 1_555
H46_17 C104_17 1_555 1_555
C105_17 C104_17 1_555 1_555
C106_17 C101_17 1_555 1_555
H47_17 C106_17 1_555 1_555
C107_17 C103_17 1_555 1_555
C108_17 C105_17 1_555 1_555
N23_17 C82_17 1_555 1_555
N24_17 C100_17 1_555 1_555
H48_17 N24_17 1_555 1_555
O58_6 C107_17 1_555 1_555
O63_6 C107_17 1_555 1_555
O71_7 C108_17 1_555 1_555
O50_17 C108_17 1_555 1_555
Zn16 O33_13 1_555 1_555
O52_17 Zn24_8 1_555 1_555
O55_13 Zn18_6 1_555 1_555
C56_13 N14_13 1_555 1_555
C60_13 C61_13 1_555 1_555
C63_13 O56_8 1_555 1_555
O27_13 Zn25_7 1_555 1_555
C65_13 N16_13 1_555 1_555
C69_13 C70_13 1_555 1_555
C74_13 N18_13 1_555 1_555
C78_13 C79_13 1_555 1_555
C83_17 N20_17 1_555 1_555
C87_17 C88_17 1_555 1_555
C89_17 O59_8 1_555 1_555
C89_17 O64_8 1_555 1_555
C92_17 N22_17 1_555 1_555
C96_17 C97_17 1_555 1_555
C101_17 N24_17 1_555 1_555
C105_17 C106_17 1_555 1_555
C82_18 N19_18 1_555 1_555
C83_18 C84_18 1_555 1_555
C84_18 H37_18 1_555 1_555
C85_18 C84_18 1_555 1_555
C86_18 C85_18 1_555 1_555
H38_18 C86_18 1_555 1_555
C87_18 C86_18 1_555 1_555
C88_18 C83_18 1_555 1_555
H39_18 C88_18 1_555 1_555
C89_18 C85_18 1_555 1_555
C90_18 C87_18 1_555 1_555
N19_18 C91_18 1_555 1_555
N20_18 C82_18 1_555 1_555
H40_18 N20_18 1_555 1_555
O69_8 C90_18 1_555 1_555
O42_18 C90_18 1_555 1_555
C91_18 N21_18 1_555 1_555
C92_18 C93_18 1_555 1_555
C93_18 H41_18 1_555 1_555
C94_18 C93_18 1_555 1_555
C95_18 C94_18 1_555 1_555
H42_18 C95_18 1_555 1_555
C96_18 C95_18 1_555 1_555
C97_18 C92_18 1_555 1_555
H43_18 C97_18 1_555 1_555
C98_18 C94_18 1_555 1_555
C99_18 C96_18 1_555 1_555
N21_18 C100_18 1_555 1_555
N22_18 C91_18 1_555 1_555
H44_18 N22_18 1_555 1_555
O43_18 C98_18 1_555 1_555
O44_18 C98_18 1_555 1_555
O70_7 C99_18 1_555 1_555
O46_18 C99_18 1_555 1_555
C100_18 N23_18 1_555 1_555
C101_18 C102_18 1_555 1_555
C102_18 H45_18 1_555 1_555
C103_18 C102_18 1_555 1_555
C104_18 C103_18 1_555 1_555
H46_18 C104_18 1_555 1_555
C105_18 C104_18 1_555 1_555
C106_18 C101_18 1_555 1_555
H47_18 C106_18 1_555 1_555
C107_18 C103_18 1_555 1_555
C108_18 C105_18 1_555 1_555
N23_18 C82_18 1_555 1_555
N24_18 C100_18 1_555 1_555
H48_18 N24_18 1_555 1_555
O58_7 C107_18 1_555 1_555
O63_7 C107_18 1_555 1_555
O71_6 C108_18 1_555 1_555
O50_18 C108_18 1_555 1_555
C83_18 N20_18 1_555 1_555
C87_18 C88_18 1_555 1_555
C89_18 O59_5 1_555 1_555
C89_18 O64_5 1_555 1_555
C92_18 N22_18 1_555 1_555
C96_18 C97_18 1_555 1_555
C101_18 N24_18 1_555 1_555
C105_18 C106_18 1_555 1_555
Zn18_7 O26_14 1_555 1_555
C55_14 N13_14 1_555 1_555
C56_14 C57_14 1_555 1_555
C57_14 H25_14 1_555 1_555
C58_14 C57_14 1_555 1_555
C59_14 C58_14 1_555 1_555
H26_14 C59_14 1_555 1_555
C60_14 C59_14 1_555 1_555
C61_14 C56_14 1_555 1_555
H27_14 C61_14 1_555 1_555
C62_14 C58_14 1_555 1_555
C63_14 C60_14 1_555 1_555
N13_14 C64_14 1_555 1_555
N14_14 C55_14 1_555 1_555
H28_14 N14_14 1_555 1_555
O26_14 C62_14 1_555 1_555
O27_14 C62_14 1_555 1_555
O29_14 C63_14 1_555 1_555
O73_5 Zn18_7 1_555 1_555
C64_14 N15_14 1_555 1_555
C65_14 C66_14 1_555 1_555
C66_14 H29_14 1_555 1_555
C67_14 C66_14 1_555 1_555
C68_14 C67_14 1_555 1_555
H30_14 C68_14 1_555 1_555
C69_14 C68_14 1_555 1_555
C70_14 C65_14 1_555 1_555
H31_14 C70_14 1_555 1_555
C71_14 C67_14 1_555 1_555
C72_14 C69_14 1_555 1_555
N15_14 C73_14 1_555 1_555
N16_14 C64_14 1_555 1_555
H32_14 N16_14 1_555 1_555
O53_5 C71_14 1_555 1_555
O32_14 C71_14 1_555 1_555
O33_14 C72_14 1_555 1_555
O34_14 C72_14 1_555 1_555
C73_14 N17_14 1_555 1_555
C74_14 C75_14 1_555 1_555
C75_14 H33_14 1_555 1_555
C76_14 C75_14 1_555 1_555
C77_14 C76_14 1_555 1_555
H34_14 C77_14 1_555 1_555
C78_14 C77_14 1_555 1_555
C79_14 C74_14 1_555 1_555
H35_14 C79_14 1_555 1_555
C80_14 C76_14 1_555 1_555
C81_14 C78_14 1_555 1_555
N17_14 C55_14 1_555 1_555
N18_14 C73_14 1_555 1_555
H36_14 N18_14 1_555 1_555
O51_5 C80_14 1_555 1_555
O36_14 C80_14 1_555 1_555
O57_5 C81_14 1_555 1_555
O38_14 C81_14 1_555 1_555
Zn26_8 O36_14 1_555 1_555
Zn24_5 O32_14 1_555 1_555
Zn16_3 O33_14 1_555 1_555
O52_18 Zn24_5 1_555 1_555
O55_14 Zn18_7 1_555 1_555
C56_14 N14_14 1_555 1_555
C60_14 C61_14 1_555 1_555
C63_14 O56_5 1_555 1_555
O27_14 Zn25_6 1_555 1_555
C65_14 N16_14 1_555 1_555
C69_14 C70_14 1_555 1_555
C74_14 N18_14 1_555 1_555
C78_14 C79_14 1_555 1_555
Zn18_5 O26_15 1_555 1_555
C55_15 N13_15 1_555 1_555
C56_15 C57_15 1_555 1_555
C57_15 H25_15 1_555 1_555
C58_15 C57_15 1_555 1_555
C59_15 C58_15 1_555 1_555
H26_15 C59_15 1_555 1_555
C60_15 C59_15 1_555 1_555
C61_15 C56_15 1_555 1_555
H27_15 C61_15 1_555 1_555
C62_15 C58_15 1_555 1_555
C63_15 C60_15 1_555 1_555
N13_15 C64_15 1_555 1_555
N14_15 C55_15 1_555 1_555
H28_15 N14_15 1_555 1_555
O26_15 C62_15 1_555 1_555
O27_15 C62_15 1_555 1_555
O29_15 C63_15 1_555 1_555
O73_7 Zn18_5 1_555 1_555
C64_15 N15_15 1_555 1_555
C65_15 C66_15 1_555 1_555
C66_15 H29_15 1_555 1_555
C67_15 C66_15 1_555 1_555
C68_15 C67_15 1_555 1_555
H30_15 C68_15 1_555 1_555
C69_15 C68_15 1_555 1_555
C70_15 C65_15 1_555 1_555
H31_15 C70_15 1_555 1_555
C71_15 C67_15 1_555 1_555
C72_15 C69_15 1_555 1_555
N15_15 C73_15 1_555 1_555
N16_15 C64_15 1_555 1_555
H32_15 N16_15 1_555 1_555
O53_7 C71_15 1_555 1_555
O32_15 C71_15 1_555 1_555
O33_15 C72_15 1_555 1_555
O34_15 C72_15 1_555 1_555
C73_15 N17_15 1_555 1_555
C74_15 C75_15 1_555 1_555
C75_15 H33_15 1_555 1_555
C76_15 C75_15 1_555 1_555
C77_15 C76_15 1_555 1_555
H34_15 C77_15 1_555 1_555
C78_15 C77_15 1_555 1_555
C79_15 C74_15 1_555 1_555
H35_15 C79_15 1_555 1_555
C80_15 C76_15 1_555 1_555
C81_15 C78_15 1_555 1_555
N17_15 C55_15 1_555 1_555
N18_15 C73_15 1_555 1_555
H36_15 N18_15 1_555 1_555
O51_7 C80_15 1_555 1_555
O36_15 C80_15 1_555 1_555
O57_7 C81_15 1_555 1_555
O38_15 C81_15 1_555 1_555
Zn26_7 O36_15 1_555 1_555
Zn24_6 O32_15 1_555 1_555
Zn16_2 O33_15 1_555 1_555
O52_19 Zn24_6 1_555 1_555
O55_15 Zn18_5 1_555 1_555
C56_15 N14_15 1_555 1_555
C60_15 C61_15 1_555 1_555
C63_15 O56_7 1_555 1_555
O27_15 Zn25_5 1_555 1_555
C65_15 N16_15 1_555 1_555
C69_15 C70_15 1_555 1_555
C74_15 N18_15 1_555 1_555
C78_15 C79_15 1_555 1_555
C82_19 N19_19 1_555 1_555
C83_19 C84_19 1_555 1_555
C84_19 H37_19 1_555 1_555
C85_19 C84_19 1_555 1_555
C86_19 C85_19 1_555 1_555
H38_19 C86_19 1_555 1_555
C87_19 C86_19 1_555 1_555
C88_19 C83_19 1_555 1_555
H39_19 C88_19 1_555 1_555
C89_19 C85_19 1_555 1_555
C90_19 C87_19 1_555 1_555
N19_19 C91_19 1_555 1_555
N20_19 C82_19 1_555 1_555
H40_19 N20_19 1_555 1_555
O69_7 C90_19 1_555 1_555
O42_19 C90_19 1_555 1_555
C91_19 N21_19 1_555 1_555
C92_19 C93_19 1_555 1_555
C93_19 H41_19 1_555 1_555
C94_19 C93_19 1_555 1_555
C95_19 C94_19 1_555 1_555
H42_19 C95_19 1_555 1_555
C96_19 C95_19 1_555 1_555
C97_19 C92_19 1_555 1_555
H43_19 C97_19 1_555 1_555
C98_19 C94_19 1_555 1_555
C99_19 C96_19 1_555 1_555
N21_19 C100_19 1_555 1_555
N22_19 C91_19 1_555 1_555
H44_19 N22_19 1_555 1_555
O43_19 C98_19 1_555 1_555
O44_19 C98_19 1_555 1_555
O70_8 C99_19 1_555 1_555
O46_19 C99_19 1_555 1_555
C100_19 N23_19 1_555 1_555
C101_19 C102_19 1_555 1_555
C102_19 H45_19 1_555 1_555
C103_19 C102_19 1_555 1_555
C104_19 C103_19 1_555 1_555
H46_19 C104_19 1_555 1_555
C105_19 C104_19 1_555 1_555
C106_19 C101_19 1_555 1_555
H47_19 C106_19 1_555 1_555
C107_19 C103_19 1_555 1_555
C108_19 C105_19 1_555 1_555
N23_19 C82_19 1_555 1_555
N24_19 C100_19 1_555 1_555
H48_19 N24_19 1_555 1_555
O58_5 C107_19 1_555 1_555
O63_5 C107_19 1_555 1_555
O71_5 C108_19 1_555 1_555
O50_19 C108_19 1_555 1_555
Zn13_2 O43_19 1_555 1_555
C83_19 N20_19 1_555 1_555
C87_19 C88_19 1_555 1_555
C89_19 O59_7 1_555 1_555
C89_19 O64_7 1_555 1_555
C92_19 N22_19 1_555 1_555
C96_19 C97_19 1_555 1_555
O44_19 Zn13_2 1_555 1_555
C101_19 N24_19 1_555 1_555
C105_19 C106_19 1_555 1_555
Zn18_8 O26_16 1_555 1_555
C55_16 N13_16 1_555 1_555
C56_16 C57_16 1_555 1_555
C57_16 H25_16 1_555 1_555
C58_16 C57_16 1_555 1_555
C59_16 C58_16 1_555 1_555
H26_16 C59_16 1_555 1_555
C60_16 C59_16 1_555 1_555
C61_16 C56_16 1_555 1_555
H27_16 C61_16 1_555 1_555
C62_16 C58_16 1_555 1_555
C63_16 C60_16 1_555 1_555
N13_16 C64_16 1_555 1_555
N14_16 C55_16 1_555 1_555
H28_16 N14_16 1_555 1_555
O26_16 C62_16 1_555 1_555
O27_16 C62_16 1_555 1_555
O29_16 C63_16 1_555 1_555
O73_6 Zn18_8 1_555 1_555
C64_16 N15_16 1_555 1_555
C65_16 C66_16 1_555 1_555
C66_16 H29_16 1_555 1_555
C67_16 C66_16 1_555 1_555
C68_16 C67_16 1_555 1_555
H30_16 C68_16 1_555 1_555
C69_16 C68_16 1_555 1_555
C70_16 C65_16 1_555 1_555
H31_16 C70_16 1_555 1_555
C71_16 C67_16 1_555 1_555
C72_16 C69_16 1_555 1_555
N15_16 C73_16 1_555 1_555
N16_16 C64_16 1_555 1_555
H32_16 N16_16 1_555 1_555
O53_6 C71_16 1_555 1_555
O32_16 C71_16 1_555 1_555
O33_16 C72_16 1_555 1_555
O34_16 C72_16 1_555 1_555
C73_16 N17_16 1_555 1_555
C74_16 C75_16 1_555 1_555
C75_16 H33_16 1_555 1_555
C76_16 C75_16 1_555 1_555
C77_16 C76_16 1_555 1_555
H34_16 C77_16 1_555 1_555
C78_16 C77_16 1_555 1_555
C79_16 C74_16 1_555 1_555
H35_16 C79_16 1_555 1_555
C80_16 C76_16 1_555 1_555
C81_16 C78_16 1_555 1_555
N17_16 C55_16 1_555 1_555
N18_16 C73_16 1_555 1_555
H36_16 N18_16 1_555 1_555
O51_6 C80_16 1_555 1_555
O36_16 C80_16 1_555 1_555
O57_6 C81_16 1_555 1_555
O38_16 C81_16 1_555 1_555
Zn26_6 O36_16 1_555 1_555
Zn24_7 O32_16 1_555 1_555
C82_20 N19_20 1_555 1_555
C83_20 C84_20 1_555 1_555
C84_20 H37_20 1_555 1_555
C85_20 C84_20 1_555 1_555
C86_20 C85_20 1_555 1_555
H38_20 C86_20 1_555 1_555
C87_20 C86_20 1_555 1_555
C88_20 C83_20 1_555 1_555
H39_20 C88_20 1_555 1_555
C89_20 C85_20 1_555 1_555
C90_20 C87_20 1_555 1_555
N19_20 C91_20 1_555 1_555
N20_20 C82_20 1_555 1_555
H40_20 N20_20 1_555 1_555
O69_6 C90_20 1_555 1_555
O42_20 C90_20 1_555 1_555
C91_20 N21_20 1_555 1_555
C92_20 C93_20 1_555 1_555
C93_20 H41_20 1_555 1_555
C94_20 C93_20 1_555 1_555
C95_20 C94_20 1_555 1_555
H42_20 C95_20 1_555 1_555
C96_20 C95_20 1_555 1_555
C97_20 C92_20 1_555 1_555
H43_20 C97_20 1_555 1_555
C98_20 C94_20 1_555 1_555
C99_20 C96_20 1_555 1_555
N21_20 C100_20 1_555 1_555
N22_20 C91_20 1_555 1_555
H44_20 N22_20 1_555 1_555
O43_20 C98_20 1_555 1_555
O44_20 C98_20 1_555 1_555
O70_5 C99_20 1_555 1_555
O46_20 C99_20 1_555 1_555
C100_20 N23_20 1_555 1_555
C101_20 C102_20 1_555 1_555
C102_20 H45_20 1_555 1_555
C103_20 C102_20 1_555 1_555
C104_20 C103_20 1_555 1_555
H46_20 C104_20 1_555 1_555
C105_20 C104_20 1_555 1_555
C106_20 C101_20 1_555 1_555
H47_20 C106_20 1_555 1_555
C107_20 C103_20 1_555 1_555
C108_20 C105_20 1_555 1_555
N23_20 C82_20 1_555 1_555
N24_20 C100_20 1_555 1_555
H48_20 N24_20 1_555 1_555
O58_8 C107_20 1_555 1_555
O63_8 C107_20 1_555 1_555
O71_8 C108_20 1_555 1_555
O50_20 C108_20 1_555 1_555
Zn13_4 O43_20 1_555 1_555
Zn16_4 O33_16 1_555 1_555
O52_20 Zn24_7 1_555 1_555
O55_16 Zn18_8 1_555 1_555
C56_16 N14_16 1_555 1_555
C60_16 C61_16 1_555 1_555
C63_16 O56_6 1_555 1_555
O27_16 Zn25_8 1_555 1_555
C65_16 N16_16 1_555 1_555
C69_16 C70_16 1_555 1_555
C74_16 N18_16 1_555 1_555
C78_16 C79_16 1_555 1_555
C83_20 N20_20 1_555 1_555
C87_20 C88_20 1_555 1_555
C89_20 O59_6 1_555 1_555
C89_20 O64_6 1_555 1_555
C92_20 N22_20 1_555 1_555
C96_20 C97_20 1_555 1_555
O44_20 Zn13_4 1_555 1_555
C101_20 N24_20 1_555 1_555
C105_20 C106_20 1_555 1_555
C82_21 N19_21 1_555 1_555
C83_21 C84_21 1_555 1_555
C84_21 H37_21 1_555 1_555
C85_21 C84_21 1_555 1_555
C86_21 C85_21 1_555 1_555
H38_21 C86_21 1_555 1_555
C87_21 C86_21 1_555 1_555
C88_21 C83_21 1_555 1_555
H39_21 C88_21 1_555 1_555
C89_21 C85_21 1_555 1_555
C90_21 C87_21 1_555 1_555
N19_21 C91_21 1_555 1_555
N20_21 C82_21 1_555 1_555
H40_21 N20_21 1_555 1_555
O69_4 C90_21 1_555 1_555
O42_21 C90_21 1_555 1_555
C91_21 N21_21 1_555 1_555
C92_21 C93_21 1_555 1_555
C93_21 H41_21 1_555 1_555
C94_21 C93_21 1_555 1_555
C95_21 C94_21 1_555 1_555
H42_21 C95_21 1_555 1_555
C96_21 C95_21 1_555 1_555
C97_21 C92_21 1_555 1_555
H43_21 C97_21 1_555 1_555
C98_21 C94_21 1_555 1_555
C99_21 C96_21 1_555 1_555
N21_21 C100_21 1_555 1_555
N22_21 C91_21 1_555 1_555
H44_21 N22_21 1_555 1_555
O43_21 C98_21 1_555 1_555
O44_21 C98_21 1_555 1_555
O70_3 C99_21 1_555 1_555
O46_21 C99_21 1_555 1_555
C100_21 N23_21 1_555 1_555
C101_21 C102_21 1_555 1_555
C102_21 H45_21 1_555 1_555
C103_21 C102_21 1_555 1_555
C104_21 C103_21 1_555 1_555
H46_21 C104_21 1_555 1_555
C105_21 C104_21 1_555 1_555
C106_21 C101_21 1_555 1_555
H47_21 C106_21 1_555 1_555
C107_21 C103_21 1_555 1_555
C108_21 C105_21 1_555 1_555
N23_21 C82_21 1_555 1_555
N24_21 C100_21 1_555 1_555
H48_21 N24_21 1_555 1_555
O61_5 C107_21 1_555 1_555
O66_5 C107_21 1_555 1_555
O71_2 C108_21 1_555 1_555
O50_21 C108_21 1_555 1_555
C83_21 N20_21 1_555 1_555
C87_21 C88_21 1_555 1_555
C89_21 O60_6 1_555 1_555
C89_21 O65_6 1_555 1_555
C92_21 N22_21 1_555 1_555
C96_21 C97_21 1_555 1_555
C101_21 N24_21 1_555 1_555
C105_21 C106_21 1_555 1_555
O52_21 Zn24 1_555 1_555
C82_22 N19_22 1_555 1_555
C83_22 C84_22 1_555 1_555
C84_22 H37_22 1_555 1_555
C85_22 C84_22 1_555 1_555
C86_22 C85_22 1_555 1_555
H38_22 C86_22 1_555 1_555
C87_22 C86_22 1_555 1_555
C88_22 C83_22 1_555 1_555
H39_22 C88_22 1_555 1_555
C89_22 C85_22 1_555 1_555
C90_22 C87_22 1_555 1_555
N19_22 C91_22 1_555 1_555
N20_22 C82_22 1_555 1_555
H40_22 N20_22 1_555 1_555
O69 C90_22 1_555 1_555
O42_22 C90_22 1_555 1_555
C91_22 N21_22 1_555 1_555
C92_22 C93_22 1_555 1_555
C93_22 H41_22 1_555 1_555
C94_22 C93_22 1_555 1_555
C95_22 C94_22 1_555 1_555
H42_22 C95_22 1_555 1_555
C96_22 C95_22 1_555 1_555
C97_22 C92_22 1_555 1_555
H43_22 C97_22 1_555 1_555
C98_22 C94_22 1_555 1_555
C99_22 C96_22 1_555 1_555
N21_22 C100_22 1_555 1_555
N22_22 C91_22 1_555 1_555
H44_22 N22_22 1_555 1_555
O43_22 C98_22 1_555 1_555
O44_22 C98_22 1_555 1_555
O70_2 C99_22 1_555 1_555
O46_22 C99_22 1_555 1_555
C100_22 N23_22 1_555 1_555
C101_22 C102_22 1_555 1_555
C102_22 H45_22 1_555 1_555
C103_22 C102_22 1_555 1_555
C104_22 C103_22 1_555 1_555
H46_22 C104_22 1_555 1_555
C105_22 C104_22 1_555 1_555
C106_22 C101_22 1_555 1_555
H47_22 C106_22 1_555 1_555
C107_22 C103_22 1_555 1_555
C108_22 C105_22 1_555 1_555
N23_22 C82_22 1_555 1_555
N24_22 C100_22 1_555 1_555
H48_22 N24_22 1_555 1_555
O61_7 C107_22 1_555 1_555
O66_7 C107_22 1_555 1_555
O71_3 C108_22 1_555 1_555
O50_22 C108_22 1_555 1_555
O52_22 Zn24_4 1_555 1_555
C83_22 N20_22 1_555 1_555
C87_22 C88_22 1_555 1_555
C89_22 O60_8 1_555 1_555
C89_22 O65_8 1_555 1_555
C92_22 N22_22 1_555 1_555
C96_22 C97_22 1_555 1_555
C101_22 N24_22 1_555 1_555
C105_22 C106_22 1_555 1_555
C82_23 N19_23 1_555 1_555
C83_23 C84_23 1_555 1_555
C84_23 H37_23 1_555 1_555
C85_23 C84_23 1_555 1_555
C86_23 C85_23 1_555 1_555
H38_23 C86_23 1_555 1_555
C87_23 C86_23 1_555 1_555
C88_23 C83_23 1_555 1_555
H39_23 C88_23 1_555 1_555
C89_23 C85_23 1_555 1_555
C90_23 C87_23 1_555 1_555
N19_23 C91_23 1_555 1_555
N20_23 C82_23 1_555 1_555
H40_23 N20_23 1_555 1_555
O69_2 C90_23 1_555 1_555
O42_23 C90_23 1_555 1_555
C91_23 N21_23 1_555 1_555
C92_23 C93_23 1_555 1_555
C93_23 H41_23 1_555 1_555
C94_23 C93_23 1_555 1_555
C95_23 C94_23 1_555 1_555
H42_23 C95_23 1_555 1_555
C96_23 C95_23 1_555 1_555
C97_23 C92_23 1_555 1_555
H43_23 C97_23 1_555 1_555
C98_23 C94_23 1_555 1_555
C99_23 C96_23 1_555 1_555
N21_23 C100_23 1_555 1_555
N22_23 C91_23 1_555 1_555
H44_23 N22_23 1_555 1_555
O43_23 C98_23 1_555 1_555
O44_23 C98_23 1_555 1_555
O70 C99_23 1_555 1_555
O46_23 C99_23 1_555 1_555
C100_23 N23_23 1_555 1_555
C101_23 C102_23 1_555 1_555
C102_23 H45_23 1_555 1_555
C103_23 C102_23 1_555 1_555
C104_23 C103_23 1_555 1_555
H46_23 C104_23 1_555 1_555
C105_23 C104_23 1_555 1_555
C106_23 C101_23 1_555 1_555
H47_23 C106_23 1_555 1_555
C107_23 C103_23 1_555 1_555
C108_23 C105_23 1_555 1_555
N23_23 C82_23 1_555 1_555
N24_23 C100_23 1_555 1_555
H48_23 N24_23 1_555 1_555
O61_8 C107_23 1_555 1_555
O66_8 C107_23 1_555 1_555
O71_4 C108_23 1_555 1_555
O50_23 C108_23 1_555 1_555
Zn16_3 O43_23 1_555 1_555
O52_23 Zn24_3 1_555 1_555
C83_23 N20_23 1_555 1_555
C87_23 C88_23 1_555 1_555
C89_23 O60_7 1_555 1_555
C89_23 O65_7 1_555 1_555
C92_23 N22_23 1_555 1_555
C96_23 C97_23 1_555 1_555
O44_23 Zn16_3 1_555 1_555
C101_23 N24_23 1_555 1_555
C105_23 C106_23 1_555 1_555
O52_24 Zn24_2 1_555 1_555
C82_24 N19_24 1_555 1_555
C83_24 C84_24 1_555 1_555
C84_24 H37_24 1_555 1_555
C85_24 C84_24 1_555 1_555
C86_24 C85_24 1_555 1_555
H38_24 C86_24 1_555 1_555
C87_24 C86_24 1_555 1_555
C88_24 C83_24 1_555 1_555
H39_24 C88_24 1_555 1_555
C89_24 C85_24 1_555 1_555
C90_24 C87_24 1_555 1_555
N19_24 C91_24 1_555 1_555
N20_24 C82_24 1_555 1_555
H40_24 N20_24 1_555 1_555
O69_3 C90_24 1_555 1_555
O42_24 C90_24 1_555 1_555
C91_24 N21_24 1_555 1_555
C92_24 C93_24 1_555 1_555
C93_24 H41_24 1_555 1_555
C94_24 C93_24 1_555 1_555
C95_24 C94_24 1_555 1_555
H42_24 C95_24 1_555 1_555
C96_24 C95_24 1_555 1_555
C97_24 C92_24 1_555 1_555
H43_24 C97_24 1_555 1_555
C98_24 C94_24 1_555 1_555
C99_24 C96_24 1_555 1_555
N21_24 C100_24 1_555 1_555
N22_24 C91_24 1_555 1_555
H44_24 N22_24 1_555 1_555
O43_24 C98_24 1_555 1_555
O44_24 C98_24 1_555 1_555
O70_4 C99_24 1_555 1_555
O46_24 C99_24 1_555 1_555
C100_24 N23_24 1_555 1_555
C101_24 C102_24 1_555 1_555
C102_24 H45_24 1_555 1_555
C103_24 C102_24 1_555 1_555
C104_24 C103_24 1_555 1_555
H46_24 C104_24 1_555 1_555
C105_24 C104_24 1_555 1_555
C106_24 C101_24 1_555 1_555
H47_24 C106_24 1_555 1_555
C107_24 C103_24 1_555 1_555
C108_24 C105_24 1_555 1_555
N23_24 C82_24 1_555 1_555
N24_24 C100_24 1_555 1_555
H48_24 N24_24 1_555 1_555
O61_6 C107_24 1_555 1_555
O66_6 C107_24 1_555 1_555
O71 C108_24 1_555 1_555
O50_24 C108_24 1_555 1_555
Zn16_2 O43_24 1_555 1_555
C83_24 N20_24 1_555 1_555
C87_24 C88_24 1_555 1_555
C89_24 O60_5 1_555 1_555
C89_24 O65_5 1_555 1_555
C92_24 N22_24 1_555 1_555
C96_24 C97_24 1_555 1_555
O44_24 Zn16_2 1_555 1_555
C101_24 N24_24 1_555 1_555
C105_24 C106_24 1_555 1_555
C57_17 H25_17 1_555 1_555
C58_17 C57_17 1_555 1_555
C59_17 C58_17 1_555 1_555
H26_17 C59_17 1_555 1_555
C62_17 C58_17 1_555 1_555
O52_2 C62_17 1_555 1_555
O55_8 C62_17 1_555 1_555
O28_9 Zn15_17 1_555 1_555
C55_17 N13_17 1_555 1_555
C61_17 C56_17 1_555 1_555
H27_17 C61_17 1_555 1_555
C63_17 C60_17 1_555 1_555
N13_17 C64_17 1_555 1_555
N14_17 C55_17 1_555 1_555
H28_17 N14_17 1_555 1_555
O29_17 C63_17 1_555 1_555
C64_17 N15_17 1_555 1_555
C65_17 C66_17 1_555 1_555
C66_17 H29_17 1_555 1_555
C67_17 C66_17 1_555 1_555
C68_17 C67_17 1_555 1_555
H30_17 C68_17 1_555 1_555
C69_17 C68_17 1_555 1_555
C70_17 C65_17 1_555 1_555
H31_17 C70_17 1_555 1_555
C71_17 C67_17 1_555 1_555
C72_17 C69_17 1_555 1_555
N15_17 C73_17 1_555 1_555
N16_17 C64_17 1_555 1_555
H32_17 N16_17 1_555 1_555
O52_9 C71_17 1_555 1_555
O55_2 C71_17 1_555 1_555
O33_17 C72_17 1_555 1_555
O34_17 C72_17 1_555 1_555
C73_17 N17_17 1_555 1_555
C74_17 C75_17 1_555 1_555
C75_17 H33_17 1_555 1_555
C76_17 C75_17 1_555 1_555
C77_17 C76_17 1_555 1_555
H34_17 C77_17 1_555 1_555
C78_17 C77_17 1_555 1_555
C79_17 C74_17 1_555 1_555
H35_17 C79_17 1_555 1_555
C80_17 C76_17 1_555 1_555
C81_17 C78_17 1_555 1_555
N17_17 C55_17 1_555 1_555
N18_17 C73_17 1_555 1_555
H36_17 N18_17 1_555 1_555
O52_8 C80_17 1_555 1_555
O54_2 C80_17 1_555 1_555
O37_9 C81_17 1_555 1_555
O38_17 C81_17 1_555 1_555
Zn12 O37_9 1_555 1_555
Zn15_3 O33_17 1_555 1_555
C56_17 N14_17 1_555 1_555
C60_17 C61_17 1_555 1_555
C65_17 N16_17 1_555 1_555
C69_17 C70_17 1_555 1_555
C74_17 N18_17 1_555 1_555
C78_17 C79_17 1_555 1_555
C75_18 H33_18 1_555 1_555
C76_18 C75_18 1_555 1_555
C77_18 C76_18 1_555 1_555
H34_18 C77_18 1_555 1_555
C80_18 C76_18 1_555 1_555
O52_6 C80_18 1_555 1_555
O54 C80_18 1_555 1_555
Zn11 O37_10 1_555 1_555
C55_18 N13_18 1_555 1_555
C56_18 C57_18 1_555 1_555
C57_18 H25_18 1_555 1_555
C58_18 C57_18 1_555 1_555
C59_18 C58_18 1_555 1_555
H26_18 C59_18 1_555 1_555
C60_18 C59_18 1_555 1_555
C61_18 C56_18 1_555 1_555
H27_18 C61_18 1_555 1_555
C62_18 C58_18 1_555 1_555
C63_18 C60_18 1_555 1_555
N13_18 C64_18 1_555 1_555
N14_18 C55_18 1_555 1_555
H28_18 N14_18 1_555 1_555
O52 C62_18 1_555 1_555
O55_6 C62_18 1_555 1_555
O28_10 Zn15_12 1_555 1_555
O29_18 C63_18 1_555 1_555
C64_18 N15_18 1_555 1_555
C65_18 C66_18 1_555 1_555
C66_18 H29_18 1_555 1_555
C67_18 C66_18 1_555 1_555
C68_18 C67_18 1_555 1_555
H30_18 C68_18 1_555 1_555
C69_18 C68_18 1_555 1_555
C70_18 C65_18 1_555 1_555
H31_18 C70_18 1_555 1_555
C71_18 C67_18 1_555 1_555
C72_18 C69_18 1_555 1_555
N15_18 C73_18 1_555 1_555
N16_18 C64_18 1_555 1_555
H32_18 N16_18 1_555 1_555
O52_12 C71_18 1_555 1_555
O55 C71_18 1_555 1_555
O33_18 C72_18 1_555 1_555
O34_18 C72_18 1_555 1_555
C73_18 N17_18 1_555 1_555
C79_18 C74_18 1_555 1_555
H35_18 C79_18 1_555 1_555
C81_18 C78_18 1_555 1_555
N17_18 C55_18 1_555 1_555
N18_18 C73_18 1_555 1_555
H36_18 N18_18 1_555 1_555
O38_18 C81_18 1_555 1_555
Zn15 O33_18 1_555 1_555
C56_18 N14_18 1_555 1_555
C60_18 C61_18 1_555 1_555
C63_18 O28_10 1_555 1_555
C65_18 N16_18 1_555 1_555
C69_18 C70_18 1_555 1_555
C74_18 N18_18 1_555 1_555
C78_18 C79_18 1_555 1_555
C66_19 H29_19 1_555 1_555
C67_19 C66_19 1_555 1_555
C68_19 C67_19 1_555 1_555
H30_19 C68_19 1_555 1_555
C71_19 C67_19 1_555 1_555
O52_10 C71_19 1_555 1_555
O55_4 C71_19 1_555 1_555
Zn15_8 O33_19 1_555 1_555
C55_19 N13_19 1_555 1_555
C56_19 C57_19 1_555 1_555
C57_19 H25_19 1_555 1_555
C58_19 C57_19 1_555 1_555
C59_19 C58_19 1_555 1_555
H26_19 C59_19 1_555 1_555
C60_19 C59_19 1_555 1_555
C61_19 C56_19 1_555 1_555
H27_19 C61_19 1_555 1_555
C62_19 C58_19 1_555 1_555
C63_19 C60_19 1_555 1_555
N13_19 C64_19 1_555 1_555
N14_19 C55_19 1_555 1_555
H28_19 N14_19 1_555 1_555
O52_4 C62_19 1_555 1_555
O55_5 C62_19 1_555 1_555
O28_11 Zn15_10 1_555 1_555
O29_19 C63_19 1_555 1_555
C64_19 N15_19 1_555 1_555
C70_19 C65_19 1_555 1_555
H31_19 C70_19 1_555 1_555
C72_19 C69_19 1_555 1_555
N15_19 C73_19 1_555 1_555
N16_19 C64_19 1_555 1_555
H32_19 N16_19 1_555 1_555
O34_19 C72_19 1_555 1_555
C73_19 N17_19 1_555 1_555
C74_19 C75_19 1_555 1_555
C75_19 H33_19 1_555 1_555
C76_19 C75_19 1_555 1_555
C77_19 C76_19 1_555 1_555
H34_19 C77_19 1_555 1_555
C78_19 C77_19 1_555 1_555
C79_19 C74_19 1_555 1_555
H35_19 C79_19 1_555 1_555
C80_19 C76_19 1_555 1_555
C81_19 C78_19 1_555 1_555
N17_19 C55_19 1_555 1_555
N18_19 C73_19 1_555 1_555
H36_19 N18_19 1_555 1_555
O52_5 C80_19 1_555 1_555
O54_4 C80_19 1_555 1_555
O37_11 C81_19 1_555 1_555
O38_19 C81_19 1_555 1_555
Zn12_3 O37_11 1_555 1_555
C56_19 N14_19 1_555 1_555
C60_19 C61_19 1_555 1_555
C63_19 O28_11 1_555 1_555
C65_19 N16_19 1_555 1_555
C69_19 C70_19 1_555 1_555
C74_19 N18_19 1_555 1_555
C78_19 C79_19 1_555 1_555
C55_20 N13_20 1_555 1_555
C61_20 C56_20 1_555 1_555
H27_20 C61_20 1_555 1_555
C63_20 C60_20 1_555 1_555
N13_20 C64_20 1_555 1_555
N14_20 C55_20 1_555 1_555
H28_20 N14_20 1_555 1_555
O29_20 C63_20 1_555 1_555
C64_20 N15_20 1_555 1_555
C70_20 C65_20 1_555 1_555
H31_20 C70_20 1_555 1_555
C72_20 C69_20 1_555 1_555
N15_20 C73_20 1_555 1_555
N16_20 C64_20 1_555 1_555
H32_20 N16_20 1_555 1_555
O34_20 C72_20 1_555 1_555
C73_20 N17_20 1_555 1_555
C79_20 C74_20 1_555 1_555
H35_20 C79_20 1_555 1_555
C81_20 C78_20 1_555 1_555
N17_20 C55_20 1_555 1_555
N18_20 C73_20 1_555 1_555
H36_20 N18_20 1_555 1_555
O38_20 C81_20 1_555 1_555
C56_20 N14_20 1_555 1_555
C60_20 C61_20 1_555 1_555
C65_20 N16_20 1_555 1_555
C69_20 C70_20 1_555 1_555
C74_20 N18_20 1_555 1_555
C78_20 C79_20 1_555 1_555
C75_20 H33_20 1_555 1_555
C76_20 C75_20 1_555 1_555
C77_20 C76_20 1_555 1_555
H34_20 C77_20 1_555 1_555
C80_20 C76_20 1_555 1_555
O52_7 C80_20 1_555 1_555
O54_3 C80_20 1_555 1_555
Zn11_4 O37_12 1_555 1_555
C57_20 H25_20 1_555 1_555
C58_20 C57_20 1_555 1_555
C59_20 C58_20 1_555 1_555
H26_20 C59_20 1_555 1_555
C62_20 C58_20 1_555 1_555
O52_3 C62_20 1_555 1_555
O55_7 C62_20 1_555 1_555
O28_12 Zn15_15 1_555 1_555
C66_20 H29_20 1_555 1_555
C67_20 C66_20 1_555 1_555
C68_20 C67_20 1_555 1_555
H30_20 C68_20 1_555 1_555
C71_20 C67_20 1_555 1_555
O52_11 C71_20 1_555 1_555
O55_3 C71_20 1_555 1_555
Zn15_6 O33_20 1_555 1_555
O56_9 Zn14_4 1_555 1_555
O57_9 Zn13_3 1_555 1_555
O56_10 Zn14_3 1_555 1_555
O57_10 Zn13_4 1_555 1_555
O56_11 Zn14 1_555 1_555
O57_11 Zn13_2 1_555 1_555
O56_12 Zn14_2 1_555 1_555
O57_12 Zn13 1_555 1_555
C55_21 N13_21 1_555 1_555
C56_21 C57_21 1_555 1_555
C57_21 H25_21 1_555 1_555
C58_21 C57_21 1_555 1_555
C59_21 C58_21 1_555 1_555
H26_21 C59_21 1_555 1_555
C60_21 C59_21 1_555 1_555
C61_21 C56_21 1_555 1_555
H27_21 C61_21 1_555 1_555
C62_21 C58_21 1_555 1_555
C63_21 C60_21 1_555 1_555
N13_21 C64_21 1_555 1_555
N14_21 C55_21 1_555 1_555
H28_21 N14_21 1_555 1_555
O52_18 C62_21 1_555 1_555
O54_5 C62_21 1_555 1_555
O29_21 C63_21 1_555 1_555
C64_21 N15_21 1_555 1_555
C65_21 C66_21 1_555 1_555
C66_21 H29_21 1_555 1_555
C67_21 C66_21 1_555 1_555
C68_21 C67_21 1_555 1_555
H30_21 C68_21 1_555 1_555
C69_21 C68_21 1_555 1_555
C70_21 C65_21 1_555 1_555
H31_21 C70_21 1_555 1_555
C71_21 C67_21 1_555 1_555
C72_21 C69_21 1_555 1_555
N15_21 C73_21 1_555 1_555
N16_21 C64_21 1_555 1_555
H32_21 N16_21 1_555 1_555
O52_13 C71_21 1_555 1_555
O55_14 C71_21 1_555 1_555
O33_21 C72_21 1_555 1_555
O34_21 C72_21 1_555 1_555
C73_21 N17_21 1_555 1_555
C74_21 C75_21 1_555 1_555
C75_21 H33_21 1_555 1_555
C76_21 C75_21 1_555 1_555
C77_21 C76_21 1_555 1_555
H34_21 C77_21 1_555 1_555
C78_21 C77_21 1_555 1_555
C79_21 C74_21 1_555 1_555
H35_21 C79_21 1_555 1_555
C80_21 C76_21 1_555 1_555
C81_21 C78_21 1_555 1_555
N17_21 C55_21 1_555 1_555
N18_21 C73_21 1_555 1_555
H36_21 N18_21 1_555 1_555
O52_24 C80_21 1_555 1_555
O55_9 C80_21 1_555 1_555
O57_12 C81_21 1_555 1_555
O38_21 C81_21 1_555 1_555
Zn16_3 O33_21 1_555 1_555
C56_21 N14_21 1_555 1_555
C60_21 C61_21 1_555 1_555
C63_21 O56_12 1_555 1_555
C65_21 N16_21 1_555 1_555
C69_21 C70_21 1_555 1_555
C74_21 N18_21 1_555 1_555
C78_21 C79_21 1_555 1_555
C55_22 N13_22 1_555 1_555
C56_22 C57_22 1_555 1_555
C57_22 H25_22 1_555 1_555
C58_22 C57_22 1_555 1_555
C59_22 C58_22 1_555 1_555
H26_22 C59_22 1_555 1_555
C60_22 C59_22 1_555 1_555
C61_22 C56_22 1_555 1_555
H27_22 C61_22 1_555 1_555
C62_22 C58_22 1_555 1_555
C63_22 C60_22 1_555 1_555
N13_22 C64_22 1_555 1_555
N14_22 C55_22 1_555 1_555
H28_22 N14_22 1_555 1_555
O52_17 C62_22 1_555 1_555
O54_8 C62_22 1_555 1_555
O29_22 C63_22 1_555 1_555
C64_22 N15_22 1_555 1_555
C65_22 C66_22 1_555 1_555
C66_22 H29_22 1_555 1_555
C67_22 C66_22 1_555 1_555
C68_22 C67_22 1_555 1_555
H30_22 C68_22 1_555 1_555
C69_22 C68_22 1_555 1_555
C70_22 C65_22 1_555 1_555
H31_22 C70_22 1_555 1_555
C71_22 C67_22 1_555 1_555
C72_22 C69_22 1_555 1_555
N15_22 C73_22 1_555 1_555
N16_22 C64_22 1_555 1_555
H32_22 N16_22 1_555 1_555
O52_16 C71_22 1_555 1_555
O55_13 C71_22 1_555 1_555
O33_22 C72_22 1_555 1_555
O34_22 C72_22 1_555 1_555
C73_22 N17_22 1_555 1_555
C74_22 C75_22 1_555 1_555
C75_22 H33_22 1_555 1_555
C76_22 C75_22 1_555 1_555
C77_22 C76_22 1_555 1_555
H34_22 C77_22 1_555 1_555
C78_22 C77_22 1_555 1_555
C79_22 C74_22 1_555 1_555
H35_22 C79_22 1_555 1_555
C80_22 C76_22 1_555 1_555
C81_22 C78_22 1_555 1_555
N17_22 C55_22 1_555 1_555
N18_22 C73_22 1_555 1_555
H36_22 N18_22 1_555 1_555
O52_22 C80_22 1_555 1_555
O55_12 C80_22 1_555 1_555
O57_9 C81_22 1_555 1_555
O38_22 C81_22 1_555 1_555
Zn16 O33_22 1_555 1_555
C56_22 N14_22 1_555 1_555
C60_22 C61_22 1_555 1_555
C63_22 O56_9 1_555 1_555
C65_22 N16_22 1_555 1_555
C69_22 C70_22 1_555 1_555
C74_22 N18_22 1_555 1_555
C78_22 C79_22 1_555 1_555
C55_23 N13_23 1_555 1_555
C56_23 C57_23 1_555 1_555
C57_23 H25_23 1_555 1_555
C58_23 C57_23 1_555 1_555
C59_23 C58_23 1_555 1_555
H26_23 C59_23 1_555 1_555
C60_23 C59_23 1_555 1_555
C61_23 C56_23 1_555 1_555
H27_23 C61_23 1_555 1_555
C62_23 C58_23 1_555 1_555
C63_23 C60_23 1_555 1_555
N13_23 C64_23 1_555 1_555
N14_23 C55_23 1_555 1_555
H28_23 N14_23 1_555 1_555
O52_20 C62_23 1_555 1_555
O54_6 C62_23 1_555 1_555
O29_23 C63_23 1_555 1_555
C64_23 N15_23 1_555 1_555
C65_23 C66_23 1_555 1_555
C66_23 H29_23 1_555 1_555
C67_23 C66_23 1_555 1_555
C68_23 C67_23 1_555 1_555
H30_23 C68_23 1_555 1_555
C69_23 C68_23 1_555 1_555
C70_23 C65_23 1_555 1_555
H31_23 C70_23 1_555 1_555
C71_23 C67_23 1_555 1_555
C72_23 C69_23 1_555 1_555
N15_23 C73_23 1_555 1_555
N16_23 C64_23 1_555 1_555
H32_23 N16_23 1_555 1_555
O52_14 C71_23 1_555 1_555
O55_16 C71_23 1_555 1_555
O33_23 C72_23 1_555 1_555
O34_23 C72_23 1_555 1_555
C73_23 N17_23 1_555 1_555
C74_23 C75_23 1_555 1_555
C75_23 H33_23 1_555 1_555
C76_23 C75_23 1_555 1_555
C77_23 C76_23 1_555 1_555
H34_23 C77_23 1_555 1_555
C78_23 C77_23 1_555 1_555
C79_23 C74_23 1_555 1_555
H35_23 C79_23 1_555 1_555
C80_23 C76_23 1_555 1_555
C81_23 C78_23 1_555 1_555
N17_23 C55_23 1_555 1_555
N18_23 C73_23 1_555 1_555
H36_23 N18_23 1_555 1_555
O52_21 C80_23 1_555 1_555
O55_10 C80_23 1_555 1_555
O57_11 C81_23 1_555 1_555
O38_23 C81_23 1_555 1_555
Zn16_4 O33_23 1_555 1_555
C56_23 N14_23 1_555 1_555
C60_23 C61_23 1_555 1_555
C63_23 O56_11 1_555 1_555
C65_23 N16_23 1_555 1_555
C69_23 C70_23 1_555 1_555
C74_23 N18_23 1_555 1_555
C78_23 C79_23 1_555 1_555
C55_24 N13_24 1_555 1_555
C56_24 C57_24 1_555 1_555
C57_24 H25_24 1_555 1_555
C58_24 C57_24 1_555 1_555
C59_24 C58_24 1_555 1_555
H26_24 C59_24 1_555 1_555
C60_24 C59_24 1_555 1_555
C61_24 C56_24 1_555 1_555
H27_24 C61_24 1_555 1_555
C62_24 C58_24 1_555 1_555
C63_24 C60_24 1_555 1_555
N13_24 C64_24 1_555 1_555
N14_24 C55_24 1_555 1_555
H28_24 N14_24 1_555 1_555
O52_19 C62_24 1_555 1_555
O54_7 C62_24 1_555 1_555
O29_24 C63_24 1_555 1_555
C64_24 N15_24 1_555 1_555
C65_24 C66_24 1_555 1_555
C66_24 H29_24 1_555 1_555
C67_24 C66_24 1_555 1_555
C68_24 C67_24 1_555 1_555
H30_24 C68_24 1_555 1_555
C69_24 C68_24 1_555 1_555
C70_24 C65_24 1_555 1_555
H31_24 C70_24 1_555 1_555
C71_24 C67_24 1_555 1_555
C72_24 C69_24 1_555 1_555
N15_24 C73_24 1_555 1_555
N16_24 C64_24 1_555 1_555
H32_24 N16_24 1_555 1_555
O52_15 C71_24 1_555 1_555
O55_15 C71_24 1_555 1_555
O33_24 C72_24 1_555 1_555
O34_24 C72_24 1_555 1_555
C73_24 N17_24 1_555 1_555
C74_24 C75_24 1_555 1_555
C75_24 H33_24 1_555 1_555
C76_24 C75_24 1_555 1_555
C77_24 C76_24 1_555 1_555
H34_24 C77_24 1_555 1_555
C78_24 C77_24 1_555 1_555
C79_24 C74_24 1_555 1_555
H35_24 C79_24 1_555 1_555
C80_24 C76_24 1_555 1_555
C81_24 C78_24 1_555 1_555
N17_24 C55_24 1_555 1_555
N18_24 C73_24 1_555 1_555
H36_24 N18_24 1_555 1_555
O52_23 C80_24 1_555 1_555
O55_11 C80_24 1_555 1_555
O57_10 C81_24 1_555 1_555
O38_24 C81_24 1_555 1_555
Zn16_2 O33_24 1_555 1_555
C56_24 N14_24 1_555 1_555
C60_24 C61_24 1_555 1_555
C63_24 O56_10 1_555 1_555
C65_24 N16_24 1_555 1_555
C69_24 C70_24 1_555 1_555
C74_24 N18_24 1_555 1_555
C78_24 C79_24 1_555 1_555

#END
