
###############################################################################
#
# This file contains modified crystal structure data generated from the
# MOF subset of the Cambridge Structural Database (CSD) v543 
# hosted by the Cambridge Crystallographic Data Centre (CCDC).
#
# This work is licensed under the Creative Commons
# Attribution-NonCommercial-ShareAlike 4.0 International License.
# To view a copy of this license, visit
# http://creativecommons.org/licenses/by-nc-sa/4.0/
# or send a letter to
# Creative Commons, PO Box 1866, Mountain View, CA 94042, USA.
#
# CIF created using the CSD Python API on 29 September 2022
# The structure has been converted into the P1 space group
# The structure has a 3D framework
# The original CSD entry MIFTIG is in the tetragonal crystal system
# The framework has been calculated to contain at least 10.0% void space
# The void calculation uses a probe of radius 1.32A, grid spacing 0.4
# The framework is charged, counterions have been retained in the structure
#
###############################################################################

data_MIFTIG
_chemical_formula_moiety         '(C768 H580 Co16 Eu32 N128 O356)n'
_symmetry_cell_setting           triclinic
_symmetry_space_group_name_H-M   'P 1'
_symmetry_Int_Tables_number      1
_space_group_name_Hall           'P 1'
loop_
_symmetry_equiv_pos_site_id
_symmetry_equiv_pos_as_xyz
1 x,y,z
_cell_length_a                   45.8777(7)
_cell_length_b                   45.8777(7)
_cell_length_c                   11.10616(20)
_cell_angle_alpha                90
_cell_angle_beta                 90
_cell_angle_gamma                90
_cell_volume                     23375.8
loop_
_atom_site_label
_atom_site_type_symbol
_atom_site_fract_x
_atom_site_fract_y
_atom_site_fract_z
C19 C 0.85822(17) 0.75795(17) 0.0332(7)
C20 C 0.87703(18) 0.74628(18) 0.2201(7)
H10 H 0.8753 0.7362 0.2923
C21 C 0.90044(19) 0.76405(18) 0.2047(8)
H11 H 0.9145 0.7660 0.2646
C22 C 0.90285(19) 0.77933(19) 0.0970(8)
H12 H 0.9188 0.7914 0.0834
C23 C 0.88132(18) 0.77647(18) 0.0099(7)
C37 C 0.8347(2) 0.9047(2) 0.0209(8)
H22 H 0.7323 0.9715 0.0062
N8 N 0.85637(15) 0.74260(14) 0.1368(6)
O22 O 0.82098(14) 0.90542(13) 0.1168(5)
Co3 Co 0.83242(2) 0.70372(2) 0.12196(10)
Eu3 Eu 0.824170(9) 0.849738(9) 0.13829(4)
C1 C 0.7677(2) 0.8458(2) 0.2643(9)
C2 C 0.73883(19) 0.85129(19) 0.3230(9)
C3 C 0.7269(2) 0.8796(2) 0.3163(11)
H1 H 0.7382 0.8949 0.2871
C4 C 0.6988(2) 0.8848(2) 0.3523(10)
H2 H 0.6908 0.9034 0.3483
C5 C 0.68249(19) 0.86133(19) 0.3953(9)
H3 H 0.6632 0.8645 0.4175
C6 C 0.72157(19) 0.82974(19) 0.3746(9)
C7 C 0.73159(18) 0.79942(19) 0.3931(8)
C8 C 0.71854(19) 0.75086(18) 0.3655(8)
H4 H 0.7050 0.7370 0.3405
C9 C 0.74530(19) 0.74167(19) 0.4084(8)
H5 H 0.7500 0.7220 0.4089
C10 C 0.76489(19) 0.76194(19) 0.4504(8)
H6 H 0.7827 0.7559 0.4815
C11 C 0.75802(19) 0.79178(19) 0.4462(8)
C12 C 0.77795(17) 0.81320(18) 0.5086(8)
C13 C 0.82046(17) 0.80304(17) 0.8905(7)
C14 C 0.81912(18) 0.77044(18) 0.8739(7)
C15 C 0.7998(2) 0.7594(2) 0.7891(8)
H7 H 0.7898 0.7721 0.7387
C16 C 0.7953(2) 0.7294(2) 0.7790(10)
H8 H 0.7835 0.7215 0.7191
C17 C 0.8092(2) 0.7118(2) 0.8625(9)
H9 H 0.8051 0.6920 0.8622
C18 C 0.83433(18) 0.75078(18) 0.9460(7)
C24 C 0.88428(18) 0.79362(19) 0.8939(7)
C25 C 0.86301(17) 0.87413(16) 0.3972(7)
C26 C 0.88982(18) 0.89303(18) 0.3783(7)
C27 C 0.8888(2) 0.91544(19) 0.2943(8)
H13 H 0.8728 0.9171 0.2434
C28 C 0.9110(2) 0.9351(2) 0.2855(10)
H14 H 0.9110 0.9493 0.2257
C29 C 0.9335(2) 0.9334(2) 0.3675(9)
H15 H 0.9478 0.9477 0.3667
C30 C 0.91472(17) 0.89087(17) 0.4505(7)
C31 C 0.92128(17) 0.86693(18) 0.5364(8)
C32 C 0.94132(18) 0.85636(19) 0.7237(7)
H16 H 0.9496 0.8629 0.7951
C33 C 0.93749(18) 0.82711(19) 0.7083(8)
H17 H 0.9429 0.8139 0.7679
C34 C 0.92526(18) 0.81759(19) 0.6012(8)
H18 H 0.9227 0.7978 0.5880
C35 C 0.91693(17) 0.83726(17) 0.5142(7)
C36 C 0.90411(18) 0.82603(17) 0.3958(7)
C38 C 0.8422(2) 0.9322(2) 0.9562(9)
C39 C 0.8718(3) 0.9404(3) 0.9588(11)
H19 H 0.8853 0.9276 0.9919
C40 C 0.8813(3) 0.9660(3) 0.9157(12)
H20 H 0.9005 0.9724 0.9238
C41 C 0.8615(3) 0.9806(3) 0.8626(12)
H21 H 0.8683 0.9973 0.8247
C42 C 0.8220(3) 0.9497(3) 0.9033(10)
C43 C 0.7900(3) 0.9430(3) 0.9087(11)
C44 C 0.7442(3) 0.9568(3) 0.9761(13)
C45 C 0.7313(3) 0.9303(3) 0.9552(13)
H23 H 0.7129 0.9253 0.9830
C46 C 0.7491(3) 0.9118(3) 0.8874(13)
H24 H 0.7413 0.8944 0.8592
C47 C 0.7791(3) 0.9187(3) 0.8592(12)
C48 C 0.7967(3) 0.8965(3) 0.7786(12)
N1 N 0.7726(3) 0.9635(2) 0.9571(10)
N2 N 0.8316(3) 0.9763(2) 0.8503(10)
N3 N 0.93362(14) 0.87617(15) 0.6403(6)
N4 N 0.93553(16) 0.91173(16) 0.4490(7)
N5 N 0.71166(16) 0.77920(16) 0.3590(7)
N6 N 0.69343(16) 0.83460(15) 0.4057(7)
N7 N 0.82810(16) 0.72201(15) 0.9432(7)
O1 O 0.91419(13) 0.83561(13) 0.2999(5)
O2 O 0.88404(13) 0.80757(12) 0.4056(5)
O3 O 0.87614(13) 0.84321(14) 0.1159(5)
H25 H 0.8843 0.8330 0.1795
H26 H 0.8812 0.8329 0.0472
O4 O 0.83400(13) 0.80704(12) 0.2637(5)
H27 H 0.8275 0.8098 0.3371
H28 H 0.8254 0.7916 0.2340
O5 O 0.7830(2) 0.85834(17) 0.0005(8)
H30 H 0.7719 0.8735 0.0251
O6 O 0.77249(14) 0.82295(14) 0.2102(7)
O7 O 0.78618(13) 0.86700(14) 0.2693(6)
O8 O 0.84721(12) 0.86946(13) 0.3093(5)
O9 O 0.85836(12) 0.86627(12) 0.5042(5)
O10 O 0.85333(14) 0.80762(13) 0.6109(5)
H31 H 0.8667 0.8106 0.5506
H32 H 0.8640 0.8035 0.6788
O11 O 0.86312(12) 0.86164(12) 0.7657(5)
H33 H 0.8759 0.8476 0.7643
H34 H 0.8716 0.8776 0.7408
O12 O 0.79788(13) 0.88286(12) 0.5000(5)
O13 O 0.76916(14) 0.82499(14) 0.6034(6)
O14 O 0.80301(12) 0.81765(14) 0.4675(5)
O15 O 0.81775(18) 0.90501(18) 0.7164(7)
O16 O 0.7876(2) 0.87268(18) 0.7755(7)
O17 O 0.81430(12) 0.81844(12) 0.8018(5)
O18 O 0.82632(13) 0.81173(13) 0.9945(5)
O19 O 0.89093(13) 0.81997(13) 0.9019(5)
O20 O 0.87990(13) 0.78023(13) 0.7965(5)
O21 O 0.84242(18) 0.88096(15) 0.9744(6)
Co1 Co 0.66758(2) 0.79628(2) 0.37804(10)
Eu1 Eu 0.821679(9) 0.849584(9) 0.63670(4)
H35 H 0.8001 0.9010 0.5021
H36 H 0.7946 0.8769 0.4293
N9 N 0.62617(15) 0.81638(14) 0.3903(6)
N10 N 0.66173(16) 0.81447(16) 0.1990(7)
N11 N 0.67190(16) 0.77799(15) 0.5568(7)
N12 N 0.64363(15) 0.75740(14) 0.3632(6)
Co2 Co 0.95372(2) 0.91758(2) 0.62804(10)
H29 H 0.7710 0.8427 0.9961
C16_2 C 0.0206(2) 0.0453(2) 0.0290(10)
C17_2 C 0.0382(2) 0.0592(2) 0.1125(9)
H9_2 H 0.0580 0.0551 0.1122
C20_2 C 0.00372(18) 0.12703(18) 0.4701(7)
H10_2 H 0.0138 0.1253 0.5423
N7_2 N 0.02799(15) 0.07810(16) 0.1932(7)
N8_2 N 0.00740(14) 0.10637(15) 0.3868(6)
Co3_2 Co 0.04628(2) 0.08242(2) 0.37196(10)
C13_2 C 0.94696(17) 0.07046(17) 0.1405(7)
C14_2 C 0.97956(18) 0.06912(18) 0.1239(7)
C15_2 C 0.9906(2) 0.0498(2) 0.0391(8)
C18_2 C 0.99922(18) 0.08433(18) 0.1960(7)
C19_2 C 0.99205(17) 0.10822(17) 0.2832(7)
C21_2 C 0.98595(18) 0.15044(19) 0.4547(8)
H11_2 H 0.9840 0.1645 0.5146
C22_2 C 0.97067(19) 0.15285(19) 0.3470(8)
H12_2 H 0.9586 0.1688 0.3334
C23_2 C 0.97353(18) 0.13132(18) 0.2599(7)
C24_2 C 0.95638(19) 0.13428(18) 0.1439(7)
H16_2 H 0.8871 0.1996 0.0451
H17_2 H 0.9361 0.1929 0.0179
C37_2 C 0.8453(2) 0.0847(2) 0.2709(8)
C38_2 C 0.8178(2) 0.0922(2) 0.2062(9)
C39_2 C 0.8096(3) 0.1218(3) 0.2088(11)
H19_2 H 0.8224 0.1353 0.2419
C40_2 C 0.7840(3) 0.1313(3) 0.1657(12)
H20_2 H 0.7776 0.1505 0.1738
C41_2 C 0.7694(3) 0.1115(3) 0.1126(12)
H21_2 H 0.7527 0.1183 0.0747
C42_2 C 0.8003(3) 0.0720(3) 0.1533(10)
C43_2 C 0.8070(3) 0.0400(3) 0.1587(11)
C47_2 C 0.8313(3) 0.0291(3) 0.1092(12)
C48_2 C 0.8535(3) 0.0467(3) 0.0286(12)
N1_2 N 0.7865(2) 0.0226(3) 0.2071(10)
N2_2 N 0.7737(2) 0.0816(3) 0.1003(10)
O11_2 O 0.88836(12) 0.11312(12) 0.0157(5)
H33_2 H 0.9024 0.1259 0.0143
O16_2 O 0.87732(18) 0.0376(2) 0.0255(7)
O17_2 O 0.93156(12) 0.06430(12) 0.0518(5)
O18_2 O 0.93827(13) 0.07632(13) 0.2445(5)
O19_2 O 0.93003(13) 0.14093(13) 0.1519(5)
O20_2 O 0.96977(13) 0.12990(13) 0.0465(5)
O21_2 O 0.86904(15) 0.09242(18) 0.2244(6)
O22_2 O 0.84458(13) 0.07098(14) 0.3668(5)
Eu3_2 Eu 0.900262(9) 0.074170(9) 0.38829(4)
C1_2 C 0.9042(2) 0.0177(2) 0.5143(9)
C10_2 C 0.98806(19) 0.01489(19) 0.7004(8)
H6_2 H 0.9941 0.0327 0.7315
C11_2 C 0.95822(19) 0.00802(19) 0.6962(8)
C12_2 C 0.93680(18) 0.02795(17) 0.7586(8)
H7_2 H 0.9779 0.0398 0.9887
C25_2 C 0.87587(16) 0.11301(17) 0.6472(7)
C26_2 C 0.85697(18) 0.13982(18) 0.6283(7)
C27_2 C 0.83456(19) 0.1388(2) 0.5443(8)
H13_2 H 0.8329 0.1228 0.4934
C28_2 C 0.8149(2) 0.1610(2) 0.5355(10)
H14_2 H 0.8007 0.1610 0.4757
C29_2 C 0.8166(2) 0.1835(2) 0.6175(9)
H15_2 H 0.8023 0.1978 0.6167
C30_2 C 0.85913(17) 0.16472(17) 0.7005(7)
C31_2 C 0.88307(18) 0.17128(17) 0.7864(8)
C32_2 C 0.89364(19) 0.19132(18) 0.9737(7)
C33_2 C 0.92289(19) 0.18749(18) 0.9583(8)
C34_2 C 0.93241(19) 0.17526(18) 0.8512(8)
H18_2 H 0.9522 0.1727 0.8380
C35_2 C 0.91274(17) 0.16693(17) 0.7642(7)
C36_2 C 0.92397(17) 0.15411(18) 0.6458(7)
N3_2 N 0.87383(15) 0.18362(14) 0.8903(6)
N4_2 N 0.83827(16) 0.18553(16) 0.6990(7)
O1_2 O 0.91439(13) 0.16419(13) 0.5499(5)
O2_2 O 0.94243(12) 0.13404(13) 0.6556(5)
O3_2 O 0.90679(14) 0.12614(13) 0.3659(5)
H25_2 H 0.9170 0.1343 0.4295
H26_2 H 0.9171 0.1312 0.2972
O4_2 O 0.94296(12) 0.08400(13) 0.5137(5)
H27_2 H 0.9402 0.0775 0.5871
H28_2 H 0.9584 0.0754 0.4840
O5_2 O 0.89166(17) 0.0330(2) 0.2505(8)
H29_2 H 0.9073 0.0210 0.2461
H30_2 H 0.8765 0.0219 0.2751
O6_2 O 0.92705(14) 0.02249(14) 0.4602(7)
O7_2 O 0.88300(14) 0.03618(13) 0.5193(6)
O8_2 O 0.88054(13) 0.09721(12) 0.5593(5)
O9_2 O 0.88373(12) 0.10836(12) 0.7542(5)
O10_2 O 0.94238(13) 0.10333(14) 0.8609(5)
H31_2 H 0.9394 0.1167 0.8006
H32_2 H 0.9465 0.1140 0.9288
H34_2 H 0.8724 0.1216 0.9908
O12_2 O 0.86714(12) 0.04788(13) 0.7500(5)
O13_2 O 0.92501(14) 0.01916(14) 0.8534(6)
O14_2 O 0.93235(14) 0.05301(12) 0.7175(5)
O15_2 O 0.84499(18) 0.06775(18) 0.9664(7)
Eu1_2 Eu 0.900416(9) 0.071679(9) 0.88670(4)
H35_2 H 0.8490 0.0501 0.7521
H36_2 H 0.8731 0.0446 0.6793
Co2_2 Co 0.83242(2) 0.20372(2) 0.87804(10)
C2_2 C 0.89871(19) 0.98883(19) 0.5730(9)
C3_2 C 0.8704(2) 0.9769(2) 0.5663(11)
H1_2 H 0.8551 0.9882 0.5371
C4_2 C 0.8652(2) 0.9488(2) 0.6023(10)
H2_2 H 0.8466 0.9408 0.5983
C5_2 C 0.88867(19) 0.93249(19) 0.6453(9)
H3_2 H 0.8855 0.9132 0.6675
C6_2 C 0.92026(19) 0.97157(19) 0.6246(9)
C7_2 C 0.95058(19) 0.98159(18) 0.6431(8)
C8_2 C 0.99914(18) 0.96854(19) 0.6155(8)
N5_2 N 0.97080(16) 0.96166(16) 0.6090(7)
N6_2 N 0.91540(15) 0.94343(16) 0.6557(7)
N11_2 N 0.97201(15) 0.92190(16) 0.8068(7)
N12_2 N 0.99260(14) 0.89363(15) 0.6132(6)
C19_3 C 0.14178(17) 0.74205(17) 0.0332(7)
C20_3 C 0.12297(18) 0.75372(18) 0.2201(7)
H10_3 H 0.1247 0.7638 0.2923
C21_3 C 0.09956(19) 0.73595(18) 0.2047(8)
H11_3 H 0.0855 0.7340 0.2646
C22_3 C 0.09715(19) 0.72067(19) 0.0970(8)
H12_3 H 0.0812 0.7086 0.0834
C23_3 C 0.11868(18) 0.72353(18) 0.0099(7)
C37_3 C 0.1653(2) 0.5953(2) 0.0209(8)
H22_2 H 0.2677 0.5285 0.0062
N8_3 N 0.14363(15) 0.75740(14) 0.1368(6)
O22_3 O 0.17902(14) 0.59458(13) 0.1168(5)
Co3_3 Co 0.16758(2) 0.79628(2) 0.12196(10)
Eu3_3 Eu 0.175830(9) 0.650262(9) 0.13829(4)
C1_3 C 0.2323(2) 0.6542(2) 0.2643(9)
C2_3 C 0.26117(19) 0.64871(19) 0.3230(9)
C3_3 C 0.2731(2) 0.6204(2) 0.3163(11)
H1_3 H 0.2618 0.6051 0.2871
C4_3 C 0.3012(2) 0.6152(2) 0.3523(10)
H2_3 H 0.3092 0.5966 0.3483
C5_3 C 0.31751(19) 0.63867(19) 0.3953(9)
H3_3 H 0.3368 0.6355 0.4175
C6_3 C 0.27843(19) 0.67026(19) 0.3746(9)
C7_3 C 0.26841(18) 0.70058(19) 0.3931(8)
C8_3 C 0.28146(19) 0.74914(18) 0.3655(8)
H4_2 H 0.2950 0.7630 0.3405
C9_2 C 0.25470(19) 0.75833(19) 0.4084(8)
H5_2 H 0.2500 0.7780 0.4089
C10_3 C 0.23511(19) 0.73806(19) 0.4504(8)
H6_3 H 0.2173 0.7441 0.4815
C11_3 C 0.24198(19) 0.70822(19) 0.4462(8)
C12_3 C 0.22205(17) 0.68680(18) 0.5086(8)
C13_3 C 0.17954(17) 0.69696(17) 0.8905(7)
C14_3 C 0.18088(18) 0.72956(18) 0.8739(7)
C15_3 C 0.2002(2) 0.7406(2) 0.7891(8)
H7_3 H 0.2102 0.7279 0.7387
C16_3 C 0.2047(2) 0.7706(2) 0.7790(10)
H8_2 H 0.2165 0.7785 0.7191
C17_3 C 0.1908(2) 0.7882(2) 0.8625(9)
H9_3 H 0.1949 0.8080 0.8622
C18_3 C 0.16567(18) 0.74922(18) 0.9460(7)
C24_3 C 0.11572(18) 0.70638(19) 0.8939(7)
C25_3 C 0.13699(17) 0.62587(16) 0.3972(7)
C26_3 C 0.11018(18) 0.60697(18) 0.3783(7)
C27_3 C 0.1112(2) 0.58456(19) 0.2943(8)
H13_3 H 0.1272 0.5829 0.2434
C28_3 C 0.0890(2) 0.5649(2) 0.2855(10)
H14_3 H 0.0890 0.5507 0.2257
C29_3 C 0.0665(2) 0.5666(2) 0.3675(9)
H15_3 H 0.0522 0.5523 0.3667
C30_3 C 0.08528(17) 0.60913(17) 0.4505(7)
C31_3 C 0.07872(17) 0.63307(18) 0.5364(8)
C32_3 C 0.05868(18) 0.64364(19) 0.7237(7)
H16_3 H 0.0504 0.6371 0.7951
C33_3 C 0.06251(18) 0.67289(19) 0.7083(8)
H17_3 H 0.0571 0.6861 0.7679
C34_3 C 0.07474(18) 0.68241(19) 0.6012(8)
H18_3 H 0.0773 0.7022 0.5880
C35_3 C 0.08307(17) 0.66274(17) 0.5142(7)
C36_3 C 0.09589(18) 0.67397(17) 0.3958(7)
C38_3 C 0.1578(2) 0.5678(2) 0.9562(9)
C39_3 C 0.1282(3) 0.5596(3) 0.9588(11)
H19_3 H 0.1147 0.5724 0.9919
C40_3 C 0.1187(3) 0.5340(3) 0.9157(12)
H20_3 H 0.0995 0.5276 0.9238
C41_3 C 0.1385(3) 0.5194(3) 0.8626(12)
H21_3 H 0.1317 0.5027 0.8247
C42_3 C 0.1780(3) 0.5503(3) 0.9033(10)
C43_3 C 0.2100(3) 0.5570(3) 0.9087(11)
C44_2 C 0.2558(3) 0.5432(3) 0.9761(13)
C45_2 C 0.2687(3) 0.5697(3) 0.9552(13)
H23_2 H 0.2871 0.5747 0.9830
C46_2 C 0.2509(3) 0.5882(3) 0.8874(13)
H24_2 H 0.2587 0.6056 0.8592
C47_3 C 0.2209(3) 0.5813(3) 0.8592(12)
C48_3 C 0.2033(3) 0.6035(3) 0.7786(12)
N1_3 N 0.2274(3) 0.5365(2) 0.9571(10)
N2_3 N 0.1684(3) 0.5237(2) 0.8503(10)
N3_3 N 0.06638(14) 0.62383(15) 0.6403(6)
N4_3 N 0.06447(16) 0.58827(16) 0.4490(7)
N5_3 N 0.28834(16) 0.72080(16) 0.3590(7)
N6_3 N 0.30657(16) 0.66540(15) 0.4057(7)
N7_3 N 0.17190(16) 0.77799(15) 0.9432(7)
O1_3 O 0.08581(13) 0.66439(13) 0.2999(5)
O2_3 O 0.11596(13) 0.69243(12) 0.4056(5)
O3_3 O 0.12386(13) 0.65679(14) 0.1159(5)
H25_3 H 0.1157 0.6670 0.1795
H26_3 H 0.1188 0.6671 0.0472
O4_3 O 0.16600(13) 0.69296(12) 0.2637(5)
H27_3 H 0.1725 0.6902 0.3371
H28_3 H 0.1746 0.7084 0.2340
O5_3 O 0.2170(2) 0.64166(17) 0.0005(8)
H30_3 H 0.2281 0.6265 0.0251
O6_3 O 0.22751(14) 0.67705(14) 0.2102(7)
O7_3 O 0.21382(13) 0.63300(14) 0.2693(6)
O8_3 O 0.15279(12) 0.63054(13) 0.3093(5)
O9_3 O 0.14164(12) 0.63373(12) 0.5042(5)
O10_3 O 0.14667(14) 0.69238(13) 0.6109(5)
H31_3 H 0.1333 0.6894 0.5506
H32_3 H 0.1360 0.6965 0.6788
O11_3 O 0.13688(12) 0.63836(12) 0.7657(5)
H33_3 H 0.1241 0.6524 0.7643
H34_3 H 0.1284 0.6224 0.7408
O12_3 O 0.20212(13) 0.61714(12) 0.5000(5)
O13_3 O 0.23084(14) 0.67501(14) 0.6034(6)
O14_3 O 0.19699(12) 0.68235(14) 0.4675(5)
O15_3 O 0.18225(18) 0.59499(18) 0.7164(7)
O16_3 O 0.2124(2) 0.62732(18) 0.7755(7)
O17_3 O 0.18570(12) 0.68156(12) 0.8018(5)
O18_3 O 0.17368(13) 0.68827(13) 0.9945(5)
O19_3 O 0.10907(13) 0.68003(13) 0.9019(5)
O20_3 O 0.12010(13) 0.71977(13) 0.7965(5)
O21_3 O 0.15758(18) 0.61904(15) 0.9744(6)
Co1_2 Co 0.33242(2) 0.70372(2) 0.37804(10)
Eu1_3 Eu 0.178321(9) 0.650416(9) 0.63670(4)
H35_3 H 0.1999 0.5990 0.5021
H36_3 H 0.2054 0.6231 0.4293
N9_2 N 0.37383(15) 0.68362(14) 0.3903(6)
N10_2 N 0.33827(16) 0.68553(16) 0.1990(7)
N11_3 N 0.32810(16) 0.72201(15) 0.5568(7)
N12_3 N 0.35637(15) 0.74260(14) 0.3632(6)
Co2_3 Co 0.04628(2) 0.58242(2) 0.62804(10)
H29_3 H 0.2290 0.6573 0.9961
C13_4 C 0.05304(17) 0.42954(17) 0.1405(7)
C14_4 C 0.02044(18) 0.43088(18) 0.1239(7)
C15_4 C 0.0094(2) 0.4502(2) 0.0391(8)
C18_4 C 0.00078(18) 0.41567(18) 0.1960(7)
C19_4 C 0.00795(17) 0.39178(17) 0.2832(7)
C21_4 C 0.01405(18) 0.34956(19) 0.4547(8)
H11_4 H 0.0160 0.3355 0.5146
C22_4 C 0.02933(19) 0.34715(19) 0.3470(8)
H12_4 H 0.0414 0.3312 0.3334
C23_4 C 0.02647(18) 0.36868(18) 0.2599(7)
C24_4 C 0.04362(19) 0.36572(18) 0.1439(7)
H16_4 H 0.1129 0.3004 0.0451
H17_4 H 0.0639 0.3071 0.0179
C37_4 C 0.1547(2) 0.4153(2) 0.2709(8)
C38_4 C 0.1822(2) 0.4078(2) 0.2062(9)
C39_4 C 0.1904(3) 0.3782(3) 0.2088(11)
H19_4 H 0.1776 0.3647 0.2419
C40_4 C 0.2160(3) 0.3687(3) 0.1657(12)
H20_4 H 0.2224 0.3495 0.1738
C41_4 C 0.2306(3) 0.3885(3) 0.1126(12)
H21_4 H 0.2473 0.3817 0.0747
C42_4 C 0.1997(3) 0.4280(3) 0.1533(10)
C43_4 C 0.1930(3) 0.4600(3) 0.1587(11)
C44_3 C 0.2068(3) 0.5058(3) 0.2261(13)
H22_3 H 0.2215 0.5177 0.2562
C45_3 C 0.1803(3) 0.5187(3) 0.2052(13)
H23_3 H 0.1753 0.5371 0.2330
C46_3 C 0.1618(3) 0.5009(3) 0.1374(13)
H24_3 H 0.1444 0.5087 0.1092
C47_4 C 0.1687(3) 0.4709(3) 0.1092(12)
C48_4 C 0.1465(3) 0.4533(3) 0.0286(12)
N1_4 N 0.2135(2) 0.4774(3) 0.2071(10)
N2_4 N 0.2263(2) 0.4184(3) 0.1003(10)
O11_4 O 0.11164(12) 0.38688(12) 0.0157(5)
H33_4 H 0.0976 0.3741 0.0143
O16_4 O 0.12268(18) 0.4624(2) 0.0255(7)
O17_4 O 0.06844(12) 0.43570(12) 0.0518(5)
O18_4 O 0.06173(13) 0.42368(13) 0.2445(5)
O19_4 O 0.06997(13) 0.35907(13) 0.1519(5)
O20_4 O 0.03023(13) 0.37010(13) 0.0465(5)
O21_4 O 0.13096(15) 0.40758(18) 0.2244(6)
O22_4 O 0.15542(13) 0.42902(14) 0.3668(5)
Eu3_4 Eu 0.099738(9) 0.425830(9) 0.38829(4)
C1_4 C 0.0958(2) 0.4823(2) 0.5143(9)
C2_4 C 0.10129(19) 0.51117(19) 0.5730(9)
C3_4 C 0.1296(2) 0.5231(2) 0.5663(11)
H1_4 H 0.1449 0.5118 0.5371
C4_4 C 0.1348(2) 0.5512(2) 0.6023(10)
H2_4 H 0.1534 0.5592 0.5983
C5_4 C 0.11133(19) 0.56751(19) 0.6453(9)
H3_4 H 0.1145 0.5868 0.6675
C6_4 C 0.07974(19) 0.52843(19) 0.6246(9)
C7_4 C 0.04942(19) 0.51841(18) 0.6431(8)
C8_4 C 0.00086(18) 0.53146(19) 0.6155(8)
C10_4 C 0.01194(19) 0.48511(19) 0.7004(8)
H6_4 H 0.0059 0.4673 0.7315
C11_4 C 0.04178(19) 0.49198(19) 0.6962(8)
C12_4 C 0.06320(18) 0.47205(17) 0.7586(8)
H7_4 H 0.0221 0.4602 0.9887
C25_4 C 0.12413(16) 0.38699(17) 0.6472(7)
C26_4 C 0.14303(18) 0.36018(18) 0.6283(7)
C27_4 C 0.16544(19) 0.3612(2) 0.5443(8)
H13_4 H 0.1671 0.3772 0.4934
C28_4 C 0.1851(2) 0.3390(2) 0.5355(10)
H14_4 H 0.1993 0.3390 0.4757
C29_4 C 0.1834(2) 0.3165(2) 0.6175(9)
H15_4 H 0.1977 0.3022 0.6167
C30_4 C 0.14087(17) 0.33528(17) 0.7005(7)
C31_4 C 0.11693(18) 0.32872(17) 0.7864(8)
C32_4 C 0.10636(19) 0.30868(18) 0.9737(7)
C33_4 C 0.07711(19) 0.31251(18) 0.9583(8)
C34_4 C 0.06759(19) 0.32474(18) 0.8512(8)
H18_4 H 0.0478 0.3273 0.8380
C35_4 C 0.08726(17) 0.33307(17) 0.7642(7)
C36_4 C 0.07603(17) 0.34589(18) 0.6458(7)
N3_4 N 0.12617(15) 0.31638(14) 0.8903(6)
N4_4 N 0.16173(16) 0.31447(16) 0.6990(7)
N5_4 N 0.02920(16) 0.53834(16) 0.6090(7)
N6_4 N 0.08460(15) 0.55657(16) 0.6557(7)
O1_4 O 0.08561(13) 0.33581(13) 0.5499(5)
O2_4 O 0.05757(12) 0.36596(13) 0.6556(5)
O3_4 O 0.09321(14) 0.37386(13) 0.3659(5)
H25_4 H 0.0830 0.3657 0.4295
H26_4 H 0.0829 0.3688 0.2972
O4_4 O 0.05704(12) 0.41600(13) 0.5137(5)
H27_4 H 0.0598 0.4225 0.5871
H28_4 H 0.0416 0.4246 0.4840
O5_4 O 0.10834(17) 0.4670(2) 0.2505(8)
H29_4 H 0.0927 0.4790 0.2461
H30_4 H 0.1235 0.4781 0.2751
O6_4 O 0.07295(14) 0.47751(14) 0.4602(7)
O7_4 O 0.11700(14) 0.46382(13) 0.5193(6)
O8_4 O 0.11946(13) 0.40279(12) 0.5593(5)
O9_4 O 0.11627(12) 0.39164(12) 0.7542(5)
O10_4 O 0.05762(13) 0.39667(14) 0.8609(5)
H31_4 H 0.0606 0.3833 0.8006
H32_4 H 0.0535 0.3860 0.9288
H34_4 H 0.1276 0.3784 0.9908
O12_4 O 0.13286(12) 0.45212(13) 0.7500(5)
O13_4 O 0.07499(14) 0.48084(14) 0.8534(6)
O14_4 O 0.06765(14) 0.44699(12) 0.7175(5)
O15_4 O 0.15501(18) 0.43225(18) 0.9664(7)
Eu1_4 Eu 0.099584(9) 0.428321(9) 0.88670(4)
H35_4 H 0.1510 0.4499 0.7521
H36_4 H 0.1269 0.4554 0.6793
N11_4 N 0.02799(15) 0.57810(16) 0.8068(7)
N12_4 N 0.00740(14) 0.60637(15) 0.6132(6)
Co2_4 Co 0.16758(2) 0.29628(2) 0.87804(10)
C16_4 C 0.9794(2) 0.4547(2) 0.0290(10)
C17_4 C 0.9618(2) 0.4408(2) 0.1125(9)
H9_4 H 0.9420 0.4449 0.1122
C20_4 C 0.99628(18) 0.37297(18) 0.4701(7)
H10_4 H 0.9862 0.3747 0.5423
N7_4 N 0.97201(15) 0.42190(16) 0.1932(7)
N8_4 N 0.99260(14) 0.39363(15) 0.3868(6)
Co3_4 Co 0.95372(2) 0.41758(2) 0.37196(10)
C12_5 C 0.27795(17) 0.31320(18) 0.0086(8)
C13_5 C 0.32046(17) 0.30304(17) 0.3905(7)
C14_5 C 0.31912(18) 0.27044(18) 0.3739(7)
C15_5 C 0.2998(2) 0.2594(2) 0.2891(8)
H7_5 H 0.2898 0.2721 0.2387
C16_5 C 0.2953(2) 0.2294(2) 0.2790(10)
H8_3 H 0.2835 0.2215 0.2191
C17_5 C 0.3092(2) 0.2118(2) 0.3625(9)
H9_5 H 0.3051 0.1920 0.3622
C18_5 C 0.33433(18) 0.25078(18) 0.4460(7)
C19_5 C 0.35822(17) 0.25795(17) 0.5332(7)
C20_5 C 0.37703(18) 0.24628(18) 0.7201(7)
H10_5 H 0.3753 0.2362 0.7923
C21_5 C 0.40044(19) 0.26405(18) 0.7047(8)
H11_5 H 0.4145 0.2660 0.7646
C22_5 C 0.40285(19) 0.27933(19) 0.5970(8)
H12_5 H 0.4188 0.2914 0.5834
C23_5 C 0.38132(18) 0.27647(18) 0.5099(7)
C24_5 C 0.38428(18) 0.29362(19) 0.3939(7)
C31_5 C 0.42128(17) 0.36693(18) 0.0364(8)
C32_5 C 0.44132(18) 0.35636(19) 0.2237(7)
H16_5 H 0.4496 0.3629 0.2951
C33_5 C 0.43749(18) 0.32711(19) 0.2083(8)
H17_5 H 0.4429 0.3139 0.2679
C34_5 C 0.42526(18) 0.31759(19) 0.1012(8)
H18_5 H 0.4227 0.2978 0.0880
C35_5 C 0.41693(17) 0.33726(17) 0.0142(7)
C37_5 C 0.3347(2) 0.4047(2) 0.5209(8)
C38_5 C 0.3422(2) 0.4322(2) 0.4562(9)
C39_5 C 0.3718(3) 0.4404(3) 0.4588(11)
H19_5 H 0.3853 0.4276 0.4919
C40_5 C 0.3813(3) 0.4660(3) 0.4157(12)
H20_5 H 0.4005 0.4724 0.4238
C41_5 C 0.3615(3) 0.4806(3) 0.3626(12)
H21_5 H 0.3683 0.4973 0.3247
C42_5 C 0.3220(3) 0.4497(3) 0.4033(10)
C43_5 C 0.2900(3) 0.4430(3) 0.4087(11)
C44_4 C 0.2442(3) 0.4568(3) 0.4761(13)
H22_4 H 0.2323 0.4715 0.5062
C45_4 C 0.2313(3) 0.4303(3) 0.4552(13)
H23_4 H 0.2129 0.4253 0.4830
C46_4 C 0.2491(3) 0.4118(3) 0.3874(13)
H24_4 H 0.2413 0.3944 0.3592
C47_5 C 0.2791(3) 0.4187(3) 0.3592(12)
C48_5 C 0.2967(3) 0.3965(3) 0.2786(12)
N1_5 N 0.2726(3) 0.4635(2) 0.4571(10)
N2_5 N 0.3316(3) 0.4763(2) 0.3503(10)
N3_5 N 0.43362(14) 0.37617(15) 0.1403(6)
N7_5 N 0.32810(16) 0.22201(15) 0.4432(7)
N8_5 N 0.35637(15) 0.24260(14) 0.6368(6)
O9_5 O 0.35836(12) 0.36627(12) 0.0042(5)
O10_5 O 0.35333(14) 0.30762(13) 0.1109(5)
H31_5 H 0.3667 0.3106 0.0506
H32_5 H 0.3640 0.3035 0.1788
O11_5 O 0.36312(12) 0.36164(12) 0.2657(5)
H33_5 H 0.3759 0.3476 0.2643
H34_5 H 0.3716 0.3776 0.2408
O12_5 O 0.29788(13) 0.38286(12) 0.0000(5)
O13_5 O 0.26916(14) 0.32499(14) 0.1034(6)
O15_5 O 0.31775(18) 0.40501(18) 0.2164(7)
O16_5 O 0.2876(2) 0.37268(18) 0.2755(7)
O17_5 O 0.31430(12) 0.31844(12) 0.3018(5)
O18_5 O 0.32632(13) 0.31173(13) 0.4945(5)
O19_5 O 0.39093(13) 0.31997(13) 0.4019(5)
O20_5 O 0.37990(13) 0.28023(13) 0.2965(5)
O21_5 O 0.34242(18) 0.38096(15) 0.4744(6)
O22_5 O 0.32098(14) 0.40542(13) 0.6168(5)
Eu1_5 Eu 0.321679(9) 0.349584(9) 0.13670(4)
H35_5 H 0.3001 0.4010 0.0021
N11_5 N 0.17190(16) 0.27799(15) 0.0568(7)
Co2_5 Co 0.45372(2) 0.41758(2) 0.12804(10)
Co3_5 Co 0.33242(2) 0.20372(2) 0.62196(10)
Eu3_5 Eu 0.324170(9) 0.349738(9) 0.63829(4)
C1_5 C 0.2677(2) 0.3458(2) 0.7643(9)
C2_5 C 0.23883(19) 0.35129(19) 0.8230(9)
C3_5 C 0.2269(2) 0.3796(2) 0.8163(11)
H1_5 H 0.2382 0.3949 0.7871
C4_5 C 0.1988(2) 0.3848(2) 0.8523(10)
H2_5 H 0.1908 0.4034 0.8483
C5_5 C 0.18249(19) 0.36133(19) 0.8953(9)
H3_5 H 0.1632 0.3645 0.9175
C6_5 C 0.22157(19) 0.32974(19) 0.8746(9)
C7_5 C 0.23159(18) 0.29942(19) 0.8931(8)
C8_5 C 0.21854(19) 0.25086(18) 0.8655(8)
H4_3 H 0.2050 0.2370 0.8405
C9_3 C 0.24530(19) 0.24167(19) 0.9084(8)
H5_3 H 0.2500 0.2220 0.9089
C10_5 C 0.26489(19) 0.26194(19) 0.9504(8)
H6_5 H 0.2827 0.2559 0.9815
C11_5 C 0.25802(19) 0.29178(19) 0.9462(8)
C25_5 C 0.36301(17) 0.37413(16) 0.8972(7)
C26_5 C 0.38982(18) 0.39303(18) 0.8783(7)
C27_5 C 0.3888(2) 0.41544(19) 0.7943(8)
H13_5 H 0.3728 0.4171 0.7434
C28_5 C 0.4110(2) 0.4351(2) 0.7855(10)
H14_5 H 0.4110 0.4493 0.7257
C29_5 C 0.4335(2) 0.4334(2) 0.8675(9)
H15_5 H 0.4478 0.4477 0.8667
C30_5 C 0.41472(17) 0.39087(17) 0.9505(7)
C36_5 C 0.40411(18) 0.32603(17) 0.8958(7)
N4_5 N 0.43553(16) 0.41173(16) 0.9490(7)
N5_5 N 0.21166(16) 0.27920(16) 0.8590(7)
N6_5 N 0.19343(16) 0.33460(15) 0.9057(7)
O1_5 O 0.41419(13) 0.33561(13) 0.7999(5)
O2_5 O 0.38404(13) 0.30757(12) 0.9056(5)
O3_5 O 0.37614(13) 0.34321(14) 0.6159(5)
H25_5 H 0.3843 0.3330 0.6795
H26_5 H 0.3812 0.3329 0.5472
O4_5 O 0.33400(13) 0.30704(12) 0.7637(5)
H27_5 H 0.3275 0.3098 0.8371
H28_5 H 0.3254 0.2916 0.7340
O5_5 O 0.2830(2) 0.35834(17) 0.5005(8)
H29_5 H 0.2710 0.3427 0.4961
H30_5 H 0.2719 0.3735 0.5251
O6_5 O 0.27249(14) 0.32295(14) 0.7102(7)
O7_5 O 0.28618(13) 0.36700(14) 0.7693(6)
O8_5 O 0.34721(12) 0.36946(13) 0.8093(5)
O12_6 O 0.29788(13) 0.38286(12) 1.0000(5)
O14_5 O 0.30301(12) 0.31765(14) 0.9675(5)
H36_5 H 0.2946 0.3769 0.9293
N12_5 N 0.14363(15) 0.25740(14) 0.8632(6)
C1_6 C 0.4042(2) 0.5177(2) 0.0143(9)
C2_6 C 0.39871(19) 0.48883(19) 0.0730(9)
C3_6 C 0.3704(2) 0.4769(2) 0.0663(11)
H1_6 H 0.3551 0.4882 0.0371
C4_6 C 0.3652(2) 0.4488(2) 0.1023(10)
H2_6 H 0.3466 0.4408 0.0983
C5_6 C 0.38867(19) 0.43249(19) 0.1453(9)
H3_6 H 0.3855 0.4132 0.1675
C6_6 C 0.42026(19) 0.47157(19) 0.1246(9)
C7_6 C 0.45058(19) 0.48159(18) 0.1431(8)
C8_6 C 0.49914(18) 0.46854(19) 0.1155(8)
H4_4 H 0.5130 0.4550 0.0905
C9_4 C 0.50833(19) 0.49530(19) 0.1584(8)
H5_4 H 0.5280 0.5000 0.1589
C10_6 C 0.48806(19) 0.51489(19) 0.2004(8)
H6_6 H 0.4941 0.5327 0.2315
C11_6 C 0.45822(19) 0.50802(19) 0.1962(8)
C12_6 C 0.43680(18) 0.52795(17) 0.2586(8)
C13_6 C 0.44696(17) 0.57046(17) 0.6405(7)
C14_6 C 0.47956(18) 0.56912(18) 0.6239(7)
C15_6 C 0.4906(2) 0.5498(2) 0.5391(8)
H7_6 H 0.4779 0.5398 0.4887
C16_6 C 0.5206(2) 0.5453(2) 0.5290(10)
H8_4 H 0.5285 0.5335 0.4691
C17_6 C 0.5382(2) 0.5592(2) 0.6125(9)
H9_6 H 0.5580 0.5551 0.6122
C18_6 C 0.49922(18) 0.58433(18) 0.6960(7)
C19_6 C 0.49205(17) 0.60822(17) 0.7832(7)
C20_6 C 0.50372(18) 0.62703(18) 0.9701(7)
C21_6 C 0.48595(18) 0.65044(19) 0.9547(8)
C22_6 C 0.47067(19) 0.65285(19) 0.8470(8)
H12_6 H 0.4586 0.6688 0.8334
C23_6 C 0.47353(18) 0.63132(18) 0.7599(7)
C24_6 C 0.45638(19) 0.63428(18) 0.6439(7)
C25_6 C 0.37587(16) 0.61301(17) 0.1472(7)
C26_6 C 0.35697(18) 0.63982(18) 0.1283(7)
C27_6 C 0.33456(19) 0.6388(2) 0.0443(8)
C28_6 C 0.3149(2) 0.6610(2) 0.0355(10)
C29_6 C 0.3166(2) 0.6835(2) 0.1175(9)
H15_6 H 0.3023 0.6978 0.1167
C30_6 C 0.35913(17) 0.66472(17) 0.2005(7)
C31_6 C 0.38307(18) 0.67128(17) 0.2864(8)
C32_6 C 0.39364(19) 0.69132(18) 0.4737(7)
H16_6 H 0.3871 0.6996 0.5451
C33_6 C 0.42289(19) 0.68749(18) 0.4583(8)
H17_6 H 0.4361 0.6929 0.5179
C34_6 C 0.43241(19) 0.67526(18) 0.3512(8)
H18_6 H 0.4522 0.6727 0.3380
C35_6 C 0.41274(17) 0.66693(17) 0.2642(7)
C36_6 C 0.42397(17) 0.65411(18) 0.1458(7)
C37_6 C 0.3453(2) 0.5847(2) 0.7709(8)
C38_6 C 0.3178(2) 0.5922(2) 0.7062(9)
C39_6 C 0.3096(3) 0.6218(3) 0.7088(11)
H19_6 H 0.3224 0.6353 0.7419
C40_6 C 0.2840(3) 0.6313(3) 0.6657(12)
H20_6 H 0.2776 0.6505 0.6738
C41_6 C 0.2694(3) 0.6115(3) 0.6126(12)
H21_6 H 0.2527 0.6183 0.5747
C42_6 C 0.3003(3) 0.5720(3) 0.6533(10)
C43_6 C 0.3070(3) 0.5400(3) 0.6587(11)
C44_5 C 0.2932(3) 0.4942(3) 0.7261(13)
H22_5 H 0.2785 0.4823 0.7562
C45_5 C 0.3197(3) 0.4813(3) 0.7052(13)
H23_5 H 0.3247 0.4629 0.7330
C46_5 C 0.3382(3) 0.4991(3) 0.6374(13)
H24_5 H 0.3556 0.4913 0.6092
C47_6 C 0.3313(3) 0.5291(3) 0.6092(12)
C48_6 C 0.3535(3) 0.5467(3) 0.5286(12)
N1_6 N 0.2865(2) 0.5226(3) 0.7071(10)
N2_6 N 0.2737(2) 0.5816(3) 0.6003(10)
N5_6 N 0.47080(16) 0.46166(16) 0.1090(7)
N6_6 N 0.41540(15) 0.44343(16) 0.1557(7)
N7_6 N 0.52799(15) 0.57810(16) 0.6932(7)
N8_6 N 0.50740(14) 0.60637(15) 0.8868(6)
O1_6 O 0.41439(13) 0.66419(13) 0.0499(5)
O2_6 O 0.44243(12) 0.63404(13) 0.1556(5)
O4_6 O 0.44296(12) 0.58400(13) 0.0137(5)
H27_6 H 0.4402 0.5775 0.0871
O7_6 O 0.38300(14) 0.53618(13) 0.0193(6)
O8_6 O 0.38054(13) 0.59721(12) 0.0593(5)
O9_6 O 0.38373(12) 0.60836(12) 0.2542(5)
O10_6 O 0.44238(13) 0.60333(14) 0.3609(5)
H31_6 H 0.4394 0.6167 0.3006
H32_6 H 0.4465 0.6140 0.4288
O11_6 O 0.38836(12) 0.61312(12) 0.5157(5)
H33_6 H 0.4024 0.6259 0.5143
H34_6 H 0.3724 0.6216 0.4908
O12_7 O 0.36714(12) 0.54788(13) 0.2500(5)
O13_6 O 0.42501(14) 0.51916(14) 0.3534(6)
O14_6 O 0.43235(14) 0.55301(12) 0.2175(5)
O15_6 O 0.34499(18) 0.56775(18) 0.4664(7)
O16_6 O 0.37732(18) 0.5376(2) 0.5255(7)
O17_6 O 0.43156(12) 0.56430(12) 0.5518(5)
O18_6 O 0.43827(13) 0.57632(13) 0.7445(5)
O19_6 O 0.43003(13) 0.64093(13) 0.6519(5)
O20_6 O 0.46977(13) 0.62990(13) 0.5465(5)
O21_6 O 0.36904(15) 0.59242(18) 0.7244(6)
O22_6 O 0.34458(13) 0.57098(14) 0.8668(5)
Eu1_6 Eu 0.400416(9) 0.571679(9) 0.38670(4)
H35_6 H 0.3490 0.5501 0.2521
H36_6 H 0.3731 0.5446 0.1793
N11_6 N 0.47201(15) 0.42190(16) 0.3068(7)
N12_6 N 0.49260(14) 0.39363(15) 0.1132(6)
Co3_6 Co 0.54628(2) 0.58242(2) 0.87196(10)
Eu3_6 Eu 0.400262(9) 0.574170(9) 0.88829(4)
H13_6 H 0.3329 0.6228 0.9934
H14_6 H 0.3007 0.6610 0.9757
O3_6 O 0.40679(14) 0.62614(13) 0.8659(5)
H25_6 H 0.4170 0.6343 0.9295
H26_6 H 0.4171 0.6312 0.7972
H28_6 H 0.4584 0.5754 0.9840
O5_6 O 0.39166(17) 0.5330(2) 0.7505(8)
H29_6 H 0.4073 0.5210 0.7461
H30_6 H 0.3765 0.5219 0.7751
O6_6 O 0.42705(14) 0.52249(14) 0.9602(7)
C12_7 C 0.72205(17) 0.18680(18) 0.0086(8)
C13_7 C 0.67954(17) 0.19696(17) 0.3905(7)
C14_7 C 0.68088(18) 0.22956(18) 0.3739(7)
C15_7 C 0.7002(2) 0.2406(2) 0.2891(8)
H7_7 H 0.7102 0.2279 0.2387
C16_7 C 0.7047(2) 0.2706(2) 0.2790(10)
H8_5 H 0.7165 0.2785 0.2191
C17_7 C 0.6908(2) 0.2882(2) 0.3625(9)
H9_7 H 0.6949 0.3080 0.3622
C18_7 C 0.66567(18) 0.24922(18) 0.4460(7)
C19_7 C 0.64178(17) 0.24205(17) 0.5332(7)
C20_7 C 0.62297(18) 0.25372(18) 0.7201(7)
H10_6 H 0.6247 0.2638 0.7923
C21_7 C 0.59956(19) 0.23595(18) 0.7047(8)
H11_6 H 0.5855 0.2340 0.7646
C22_7 C 0.59715(19) 0.22067(19) 0.5970(8)
H12_7 H 0.5812 0.2086 0.5834
C23_7 C 0.61868(18) 0.22353(18) 0.5099(7)
C24_7 C 0.61572(18) 0.20638(19) 0.3939(7)
C31_7 C 0.57872(17) 0.13307(18) 0.0364(8)
C32_7 C 0.55868(18) 0.14364(19) 0.2237(7)
H16_7 H 0.5504 0.1371 0.2951
C33_7 C 0.56251(18) 0.17289(19) 0.2083(8)
H17_7 H 0.5571 0.1861 0.2679
C34_7 C 0.57474(18) 0.18241(19) 0.1012(8)
H18_7 H 0.5773 0.2022 0.0880
C35_7 C 0.58307(17) 0.16274(17) 0.0142(7)
C37_7 C 0.6653(2) 0.0953(2) 0.5209(8)
C38_7 C 0.6578(2) 0.0678(2) 0.4562(9)
C39_7 C 0.6282(3) 0.0596(3) 0.4588(11)
H19_7 H 0.6147 0.0724 0.4919
C40_7 C 0.6187(3) 0.0340(3) 0.4157(12)
H20_7 H 0.5995 0.0276 0.4238
C41_7 C 0.6385(3) 0.0194(3) 0.3626(12)
H21_7 H 0.6317 0.0027 0.3247
C42_7 C 0.6780(3) 0.0503(3) 0.4033(10)
C43_7 C 0.7100(3) 0.0570(3) 0.4087(11)
C44_6 C 0.7558(3) 0.0432(3) 0.4761(13)
H22_6 H 0.7677 0.0285 0.5062
C45_6 C 0.7687(3) 0.0697(3) 0.4552(13)
H23_6 H 0.7871 0.0747 0.4830
C46_6 C 0.7509(3) 0.0882(3) 0.3874(13)
H24_6 H 0.7587 0.1056 0.3592
C47_7 C 0.7209(3) 0.0813(3) 0.3592(12)
C48_7 C 0.7033(3) 0.1035(3) 0.2786(12)
N1_7 N 0.7274(3) 0.0365(2) 0.4571(10)
N2_7 N 0.6684(3) 0.0237(2) 0.3503(10)
N3_6 N 0.56638(14) 0.12383(15) 0.1403(6)
N7_7 N 0.67190(16) 0.27799(15) 0.4432(7)
N8_7 N 0.64363(15) 0.25740(14) 0.6368(6)
O9_7 O 0.64164(12) 0.13373(12) 0.0042(5)
O10_7 O 0.64667(14) 0.19238(13) 0.1109(5)
H31_7 H 0.6333 0.1894 0.0506
H32_7 H 0.6360 0.1965 0.1788
O11_7 O 0.63688(12) 0.13836(12) 0.2657(5)
H33_7 H 0.6241 0.1524 0.2643
H34_7 H 0.6284 0.1224 0.2408
O12_8 O 0.70212(13) 0.11714(12) 0.0000(5)
O13_7 O 0.73084(14) 0.17501(14) 0.1034(6)
O15_7 O 0.68225(18) 0.09499(18) 0.2164(7)
O16_7 O 0.7124(2) 0.12732(18) 0.2755(7)
O17_7 O 0.68570(12) 0.18156(12) 0.3018(5)
O18_7 O 0.67368(13) 0.18827(13) 0.4945(5)
O19_7 O 0.60907(13) 0.18003(13) 0.4019(5)
O20_7 O 0.62010(13) 0.21977(13) 0.2965(5)
O21_7 O 0.65758(18) 0.11904(15) 0.4744(6)
O22_7 O 0.67902(14) 0.09458(13) 0.6168(5)
Eu1_7 Eu 0.678321(9) 0.150416(9) 0.13670(4)
H35_7 H 0.6999 0.0990 0.0021
N11_7 N 0.82810(16) 0.22201(15) 0.0568(7)
Co2_6 Co 0.54628(2) 0.08242(2) 0.12804(10)
Co3_7 Co 0.66758(2) 0.29628(2) 0.62196(10)
Eu3_7 Eu 0.675830(9) 0.150262(9) 0.63829(4)
C1_7 C 0.7323(2) 0.1542(2) 0.7643(9)
C2_7 C 0.76117(19) 0.14871(19) 0.8230(9)
C3_7 C 0.7731(2) 0.1204(2) 0.8163(11)
H1_7 H 0.7618 0.1051 0.7871
C4_7 C 0.8012(2) 0.1152(2) 0.8523(10)
H2_7 H 0.8092 0.0966 0.8483
C5_7 C 0.81751(19) 0.13867(19) 0.8953(9)
H3_7 H 0.8368 0.1355 0.9175
C6_7 C 0.77843(19) 0.17026(19) 0.8746(9)
C7_7 C 0.76841(18) 0.20058(19) 0.8931(8)
C8_7 C 0.78146(19) 0.24914(18) 0.8655(8)
H4_5 H 0.7950 0.2630 0.8405
C9_5 C 0.75470(19) 0.25833(19) 0.9084(8)
H5_5 H 0.7500 0.2780 0.9089
C10_7 C 0.73511(19) 0.23806(19) 0.9504(8)
H6_7 H 0.7173 0.2441 0.9815
C11_7 C 0.74198(19) 0.20822(19) 0.9462(8)
C25_7 C 0.63699(17) 0.12587(16) 0.8972(7)
C26_7 C 0.61018(18) 0.10697(18) 0.8783(7)
C27_7 C 0.6112(2) 0.08456(19) 0.7943(8)
H13_7 H 0.6272 0.0829 0.7434
C28_7 C 0.5890(2) 0.0649(2) 0.7855(10)
H14_7 H 0.5890 0.0507 0.7257
C29_7 C 0.5665(2) 0.0666(2) 0.8675(9)
H15_7 H 0.5522 0.0523 0.8667
C30_7 C 0.58528(17) 0.10913(17) 0.9505(7)
C36_7 C 0.59589(18) 0.17397(17) 0.8958(7)
N4_6 N 0.56447(16) 0.08827(16) 0.9490(7)
N5_7 N 0.78834(16) 0.22080(16) 0.8590(7)
N6_7 N 0.80657(16) 0.16540(15) 0.9057(7)
O1_7 O 0.58581(13) 0.16439(13) 0.7999(5)
O2_7 O 0.61596(13) 0.19243(12) 0.9056(5)
O3_7 O 0.62386(13) 0.15679(14) 0.6159(5)
H25_7 H 0.6157 0.1670 0.6795
H26_7 H 0.6188 0.1671 0.5472
O4_7 O 0.66600(13) 0.19296(12) 0.7637(5)
H27_7 H 0.6725 0.1902 0.8371
H28_7 H 0.6746 0.2084 0.7340
O5_7 O 0.7170(2) 0.14166(17) 0.5005(8)
H29_7 H 0.7290 0.1573 0.4961
H30_7 H 0.7281 0.1265 0.5251
O6_7 O 0.72751(14) 0.17705(14) 0.7102(7)
O7_7 O 0.71382(13) 0.13300(14) 0.7693(6)
O8_7 O 0.65279(12) 0.13054(13) 0.8093(5)
O12_9 O 0.70212(13) 0.11714(12) 1.0000(5)
O14_7 O 0.69699(12) 0.18235(14) 0.9675(5)
H36_7 H 0.7054 0.1231 0.9293
N12_7 N 0.85637(15) 0.24260(14) 0.8632(6)
C2_8 C 0.60129(19) 0.01117(19) 0.0730(9)
C3_8 C 0.6296(2) 0.0231(2) 0.0663(11)
H1_8 H 0.6449 0.0118 0.0371
C4_8 C 0.6348(2) 0.0512(2) 0.1023(10)
H2_8 H 0.6534 0.0592 0.0983
C5_8 C 0.61133(19) 0.06751(19) 0.1453(9)
H3_8 H 0.6145 0.0868 0.1675
C6_8 C 0.57974(19) 0.02843(19) 0.1246(9)
C7_8 C 0.54942(19) 0.01841(18) 0.1431(8)
C8_8 C 0.50086(18) 0.03146(19) 0.1155(8)
H4_6 H 0.4870 0.0450 0.0905
C9_6 C 0.49167(19) 0.00470(19) 0.1584(8)
H5_6 H 0.4720 -0.0000 0.1589
C44_7 C 0.7068(3) 0.0058(3) 0.7261(13)
H22_7 H 0.7215 0.0177 0.7562
C45_7 C 0.6803(3) 0.0187(3) 0.7052(13)
H23_7 H 0.6753 0.0371 0.7330
C46_7 C 0.6618(3) 0.0009(3) 0.6374(13)
H24_7 H 0.6444 0.0087 0.6092
N5_8 N 0.52920(16) 0.03834(16) 0.1090(7)
N6_8 N 0.58460(15) 0.05657(16) 0.1557(7)
N11_8 N 0.52799(15) 0.07810(16) 0.3068(7)
N12_8 N 0.50740(14) 0.10637(15) 0.1132(6)
C1_8 C 0.5958(2) 0.9823(2) 0.0143(9)
H5_7 H 0.4720 1.0000 0.1589
C10_8 C 0.51194(19) 0.98511(19) 0.2004(8)
H6_8 H 0.5059 0.9673 0.2315
C11_8 C 0.54178(19) 0.99198(19) 0.1962(8)
C12_8 C 0.56320(18) 0.97205(17) 0.2586(8)
C13_8 C 0.55304(17) 0.92954(17) 0.6405(7)
C14_8 C 0.52044(18) 0.93088(18) 0.6239(7)
C15_8 C 0.5094(2) 0.9502(2) 0.5391(8)
H7_8 H 0.5221 0.9602 0.4887
C16_8 C 0.4794(2) 0.9547(2) 0.5290(10)
H8_6 H 0.4715 0.9665 0.4691
C17_8 C 0.4618(2) 0.9408(2) 0.6125(9)
H9_8 H 0.4420 0.9449 0.6122
C18_8 C 0.50078(18) 0.91567(18) 0.6960(7)
C19_8 C 0.50795(17) 0.89178(17) 0.7832(7)
C20_8 C 0.49628(18) 0.87297(18) 0.9701(7)
C21_8 C 0.51405(18) 0.84956(19) 0.9547(8)
C22_8 C 0.52933(19) 0.84715(19) 0.8470(8)
H12_8 H 0.5414 0.8312 0.8334
C23_8 C 0.52647(18) 0.86868(18) 0.7599(7)
C24_8 C 0.54362(19) 0.86572(18) 0.6439(7)
C25_8 C 0.62413(16) 0.88699(17) 0.1472(7)
C26_8 C 0.64303(18) 0.86018(18) 0.1283(7)
C27_8 C 0.66544(19) 0.8612(2) 0.0443(8)
C28_8 C 0.6851(2) 0.8390(2) 0.0355(10)
C29_8 C 0.6834(2) 0.8165(2) 0.1175(9)
H15_8 H 0.6977 0.8022 0.1167
C30_8 C 0.64087(17) 0.83528(17) 0.2005(7)
C31_8 C 0.61693(18) 0.82872(17) 0.2864(8)
C32_8 C 0.60636(19) 0.80868(18) 0.4737(7)
H16_8 H 0.6129 0.8004 0.5451
C33_8 C 0.57711(19) 0.81251(18) 0.4583(8)
H17_8 H 0.5639 0.8071 0.5179
C34_8 C 0.56759(19) 0.82474(18) 0.3512(8)
H18_8 H 0.5478 0.8273 0.3380
C35_8 C 0.58726(17) 0.83307(17) 0.2642(7)
C36_8 C 0.57603(17) 0.84589(18) 0.1458(7)
C37_8 C 0.6547(2) 0.9153(2) 0.7709(8)
C38_8 C 0.6822(2) 0.9078(2) 0.7062(9)
C39_8 C 0.6904(3) 0.8782(3) 0.7088(11)
H19_8 H 0.6776 0.8647 0.7419
C40_8 C 0.7160(3) 0.8687(3) 0.6657(12)
H20_8 H 0.7224 0.8495 0.6738
C41_8 C 0.7306(3) 0.8885(3) 0.6126(12)
H21_8 H 0.7473 0.8817 0.5747
C42_8 C 0.6997(3) 0.9280(3) 0.6533(10)
C43_8 C 0.6930(3) 0.9600(3) 0.6587(11)
C47_8 C 0.6687(3) 0.9709(3) 0.6092(12)
C48_8 C 0.6465(3) 0.9533(3) 0.5286(12)
N1_8 N 0.7135(2) 0.9774(3) 0.7071(10)
N2_8 N 0.7263(2) 0.9184(3) 0.6003(10)
N7_8 N 0.47201(15) 0.92190(16) 0.6932(7)
N8_8 N 0.49260(14) 0.89363(15) 0.8868(6)
O1_8 O 0.58561(13) 0.83581(13) 0.0499(5)
O2_8 O 0.55757(12) 0.86596(13) 0.1556(5)
O4_8 O 0.55704(12) 0.91600(13) 0.0137(5)
H27_8 H 0.5598 0.9225 0.0871
O7_8 O 0.61700(14) 0.96382(13) 0.0193(6)
O8_8 O 0.61946(13) 0.90279(12) 0.0593(5)
O9_8 O 0.61627(12) 0.89164(12) 0.2542(5)
O10_8 O 0.55762(13) 0.89667(14) 0.3609(5)
H31_8 H 0.5606 0.8833 0.3006
H32_8 H 0.5535 0.8860 0.4288
O11_8 O 0.61164(12) 0.88688(12) 0.5157(5)
H33_8 H 0.5976 0.8741 0.5143
H34_8 H 0.6276 0.8784 0.4908
O12_10 O 0.63286(12) 0.95212(13) 0.2500(5)
O13_8 O 0.57499(14) 0.98084(14) 0.3534(6)
O14_8 O 0.56765(14) 0.94699(12) 0.2175(5)
O15_8 O 0.65501(18) 0.93225(18) 0.4664(7)
O16_8 O 0.62268(18) 0.9624(2) 0.5255(7)
O17_8 O 0.56844(12) 0.93570(12) 0.5518(5)
O18_8 O 0.56173(13) 0.92368(13) 0.7445(5)
O19_8 O 0.56997(13) 0.85907(13) 0.6519(5)
O20_8 O 0.53023(13) 0.87010(13) 0.5465(5)
O21_8 O 0.63096(15) 0.90758(18) 0.7244(6)
O22_8 O 0.65542(13) 0.92902(14) 0.8668(5)
Eu1_8 Eu 0.599584(9) 0.928321(9) 0.38670(4)
H35_8 H 0.6510 0.9499 0.2521
H36_8 H 0.6269 0.9554 0.1793
Co3_8 Co 0.45372(2) 0.91758(2) 0.87196(10)
Eu3_8 Eu 0.599738(9) 0.925830(9) 0.88829(4)
H13_8 H 0.6671 0.8772 0.9934
H14_8 H 0.6993 0.8390 0.9757
O3_8 O 0.59321(14) 0.87386(13) 0.8659(5)
H25_8 H 0.5830 0.8657 0.9295
H26_8 H 0.5829 0.8688 0.7972
H28_8 H 0.5416 0.9246 0.9840
O5_8 O 0.60834(17) 0.9670(2) 0.7505(8)
H29_8 H 0.5927 0.9790 0.7461
H30_8 H 0.6235 0.9781 0.7751
O6_8 O 0.57295(14) 0.97751(14) 0.9602(7)
H29_9 H 0.2290 0.1573 0.0039
O23 O 0.17368(13) 0.18827(13) 0.0055(5)
O24 O 0.15758(18) 0.11904(15) 0.0256(6)
C1_9 C 0.2323(2) 0.1542(2) 0.7357(9)
C2_9 C 0.26117(19) 0.14871(19) 0.6770(9)
C3_9 C 0.2731(2) 0.1204(2) 0.6837(11)
H1_9 H 0.2618 0.1051 0.7129
C4_9 C 0.3012(2) 0.1152(2) 0.6477(10)
H2_9 H 0.3092 0.0966 0.6517
C5_9 C 0.31751(19) 0.13867(19) 0.6047(9)
H3_9 H 0.3368 0.1355 0.5825
C6_9 C 0.27843(19) 0.17026(19) 0.6254(9)
C7_9 C 0.26841(18) 0.20058(19) 0.6069(8)
C8_9 C 0.28146(19) 0.24914(18) 0.6345(8)
H4_7 H 0.2950 0.2630 0.6595
C9_7 C 0.25470(19) 0.25833(19) 0.5916(8)
H5_8 H 0.2500 0.2780 0.5911
C10_9 C 0.23511(19) 0.23806(19) 0.5496(8)
H6_9 H 0.2173 0.2441 0.5185
C11_9 C 0.24198(19) 0.20822(19) 0.5538(8)
C12_9 C 0.22205(17) 0.18680(18) 0.4914(8)
C13_9 C 0.17954(17) 0.19696(17) 0.1095(7)
C14_9 C 0.18088(18) 0.22956(18) 0.1261(7)
C15_9 C 0.2002(2) 0.2406(2) 0.2109(8)
H7_9 H 0.2102 0.2279 0.2613
C16_9 C 0.2047(2) 0.2706(2) 0.2210(10)
H8_7 H 0.2165 0.2785 0.2809
C17_9 C 0.1908(2) 0.2882(2) 0.1375(9)
H9_9 H 0.1949 0.3080 0.1378
C18_9 C 0.16567(18) 0.24922(18) 0.0540(7)
C24_9 C 0.11572(18) 0.20638(19) 0.1061(7)
C25_9 C 0.13699(17) 0.12587(16) 0.6028(7)
C26_9 C 0.11018(18) 0.10697(18) 0.6217(7)
C27_9 C 0.1112(2) 0.08456(19) 0.7057(8)
H13_9 H 0.1272 0.0829 0.7566
C28_9 C 0.0890(2) 0.0649(2) 0.7145(10)
H14_9 H 0.0890 0.0507 0.7743
C29_9 C 0.0665(2) 0.0666(2) 0.6325(9)
H15_9 H 0.0522 0.0523 0.6333
C30_9 C 0.08528(17) 0.10913(17) 0.5495(7)
C31_9 C 0.07872(17) 0.13307(18) 0.4636(8)
C32_9 C 0.05868(18) 0.14364(19) 0.2763(7)
H16_9 H 0.0504 0.1371 0.2049
C33_9 C 0.06251(18) 0.17289(19) 0.2917(8)
H17_9 H 0.0571 0.1861 0.2321
C34_9 C 0.07474(18) 0.18241(19) 0.3988(8)
H18_9 H 0.0773 0.2022 0.4120
C35_9 C 0.08307(17) 0.16274(17) 0.4858(7)
C36_9 C 0.09589(18) 0.17397(17) 0.6042(7)
C38_9 C 0.1578(2) 0.0678(2) 0.0438(9)
C39_9 C 0.1282(3) 0.0596(3) 0.0412(11)
H19_9 H 0.1147 0.0724 0.0081
C40_9 C 0.1187(3) 0.0340(3) 0.0843(12)
H20_9 H 0.0995 0.0276 0.0762
C41_9 C 0.1385(3) 0.0194(3) 0.1374(12)
H21_9 H 0.1317 0.0027 0.1753
C42_9 C 0.1780(3) 0.0503(3) 0.0967(10)
C43_9 C 0.2100(3) 0.0570(3) 0.0913(11)
C44_8 C 0.2558(3) 0.0432(3) 0.0239(13)
C45_8 C 0.2687(3) 0.0697(3) 0.0448(13)
H23_8 H 0.2871 0.0747 0.0170
C46_8 C 0.2509(3) 0.0882(3) 0.1126(13)
H24_8 H 0.2587 0.1056 0.1408
C47_9 C 0.2209(3) 0.0813(3) 0.1408(12)
C48_9 C 0.2033(3) 0.1035(3) 0.2214(12)
N1_9 N 0.2274(3) 0.0365(2) 0.0429(10)
N2_9 N 0.1684(3) 0.0237(2) 0.1497(10)
N3_7 N 0.06638(14) 0.12383(15) 0.3597(6)
N4_7 N 0.06447(16) 0.08827(16) 0.5510(7)
N5_9 N 0.28834(16) 0.22080(16) 0.6410(7)
N6_9 N 0.30657(16) 0.16540(15) 0.5943(7)
O1_9 O 0.08581(13) 0.16439(13) 0.7001(5)
O2_9 O 0.11596(13) 0.19243(12) 0.5944(5)
O3_9 O 0.12386(13) 0.15679(14) 0.8841(5)
H25_9 H 0.1157 0.1670 0.8205
H26_9 H 0.1188 0.1671 0.9528
O4_9 O 0.16600(13) 0.19296(12) 0.7363(5)
H27_9 H 0.1725 0.1902 0.6629
H28_9 H 0.1746 0.2084 0.7660
O5_9 O 0.2170(2) 0.14166(17) 0.9995(8)
H30_9 H 0.2281 0.1265 0.9749
O6_9 O 0.22751(14) 0.17705(14) 0.7898(7)
O7_9 O 0.21382(13) 0.13300(14) 0.7307(6)
O8_9 O 0.15279(12) 0.13054(13) 0.6907(5)
O9_9 O 0.14164(12) 0.13373(12) 0.4958(5)
O10_9 O 0.14667(14) 0.19238(13) 0.3891(5)
H31_9 H 0.1333 0.1894 0.4494
H32_9 H 0.1360 0.1965 0.3212
O11_9 O 0.13688(12) 0.13836(12) 0.2343(5)
H33_9 H 0.1241 0.1524 0.2357
H34_9 H 0.1284 0.1224 0.2592
O12_11 O 0.20212(13) 0.11714(12) 0.5000(5)
O13_9 O 0.23084(14) 0.17501(14) 0.3966(6)
O14_9 O 0.19699(12) 0.18235(14) 0.5325(5)
O15_9 O 0.18225(18) 0.09499(18) 0.2836(7)
O16_9 O 0.2124(2) 0.12732(18) 0.2245(7)
O17_9 O 0.18570(12) 0.18156(12) 0.1982(5)
O19_9 O 0.10907(13) 0.18003(13) 0.0981(5)
O20_9 O 0.12010(13) 0.21977(13) 0.2035(5)
Eu1_9 Eu 0.178321(9) 0.150416(9) 0.36330(4)
Eu2 Eu 0.175830(9) 0.150262(9) 0.86171(4)
H35_9 H 0.1999 0.0990 0.4979
H36_9 H 0.2054 0.1231 0.5707
N9_3 N 0.37383(15) 0.18362(14) 0.6097(6)
N10_3 N 0.33827(16) 0.18553(16) 0.8010(7)
O25 O 0.17902(14) 0.09458(13) 0.8832(5)
C19_9 C 0.14178(17) 0.24205(17) 0.9668(7)
C20_9 C 0.12297(18) 0.25372(18) 0.7799(7)
H10_7 H 0.1247 0.2638 0.7077
C21_9 C 0.09956(19) 0.23595(18) 0.7953(8)
H11_7 H 0.0855 0.2340 0.7354
C22_9 C 0.09715(19) 0.22067(19) 0.9030(8)
H12_9 H 0.0812 0.2086 0.9166
C23_9 C 0.11868(18) 0.22353(18) 0.9901(7)
C37_9 C 0.1653(2) 0.0953(2) 0.9791(8)
H22_8 H 0.2677 0.0285 0.9938
C2_10 C 0.10129(19) 0.01117(19) 0.4270(9)
C3_10 C 0.1296(2) 0.0231(2) 0.4337(11)
H1_10 H 0.1449 0.0118 0.4629
C4_10 C 0.1348(2) 0.0512(2) 0.3977(10)
H2_10 H 0.1534 0.0592 0.4017
C5_10 C 0.11133(19) 0.06751(19) 0.3547(9)
H3_10 H 0.1145 0.0868 0.3325
C6_10 C 0.07974(19) 0.02843(19) 0.3754(9)
C7_10 C 0.04942(19) 0.01841(18) 0.3569(8)
C8_10 C 0.00086(18) 0.03146(19) 0.3845(8)
N5_10 N 0.02920(16) 0.03834(16) 0.3910(7)
N6_10 N 0.08460(15) 0.05657(16) 0.3443(7)
C1_10 C 0.0958(2) 0.9823(2) 0.4857(9)
C10_10 C 0.01194(19) 0.98511(19) 0.2996(8)
H6_10 H 0.0059 0.9673 0.2685
C11_10 C 0.04178(19) 0.99198(19) 0.3038(8)
C12_10 C 0.06320(18) 0.97205(17) 0.2414(8)
H7_10 H 0.0221 0.9602 0.0113
C25_10 C 0.12413(16) 0.88699(17) 0.3528(7)
C26_10 C 0.14303(18) 0.86018(18) 0.3717(7)
C27_10 C 0.16544(19) 0.8612(2) 0.4557(8)
H13_10 H 0.1671 0.8772 0.5066
C28_10 C 0.1851(2) 0.8390(2) 0.4645(10)
H14_10 H 0.1993 0.8390 0.5243
C29_10 C 0.1834(2) 0.8165(2) 0.3825(9)
H15_10 H 0.1977 0.8022 0.3833
C30_10 C 0.14087(17) 0.83528(17) 0.2995(7)
C31_10 C 0.11693(18) 0.82872(17) 0.2136(8)
C32_10 C 0.10636(19) 0.80868(18) 0.0263(7)
C33_10 C 0.07711(19) 0.81251(18) 0.0417(8)
C34_10 C 0.06759(19) 0.82474(18) 0.1488(8)
H18_10 H 0.0478 0.8273 0.1620
C35_10 C 0.08726(17) 0.83307(17) 0.2358(7)
C36_10 C 0.07603(17) 0.84589(18) 0.3542(7)
N3_8 N 0.12617(15) 0.81638(14) 0.1097(6)
N4_8 N 0.16173(16) 0.81447(16) 0.3010(7)
O1_10 O 0.08561(13) 0.83581(13) 0.4501(5)
O2_10 O 0.05757(12) 0.86596(13) 0.3444(5)
O3_10 O 0.09321(14) 0.87386(13) 0.6341(5)
H25_10 H 0.0830 0.8657 0.5705
H26_10 H 0.0829 0.8688 0.7028
O4_10 O 0.05704(12) 0.91600(13) 0.4863(5)
H27_10 H 0.0598 0.9225 0.4129
H28_10 H 0.0416 0.9246 0.5160
O5_10 O 0.10834(17) 0.9670(2) 0.7495(8)
H29_10 H 0.0927 0.9790 0.7539
H30_10 H 0.1235 0.9781 0.7249
O6_10 O 0.07295(14) 0.97751(14) 0.5398(7)
O7_10 O 0.11700(14) 0.96382(13) 0.4807(6)
O8_10 O 0.11946(13) 0.90279(12) 0.4407(5)
O9_10 O 0.11627(12) 0.89164(12) 0.2458(5)
O10_10 O 0.05762(13) 0.89667(14) 0.1391(5)
H31_10 H 0.0606 0.8833 0.1994
H32_10 H 0.0535 0.8860 0.0712
H34_10 H 0.1276 0.8784 0.0092
O12_12 O 0.13286(12) 0.95212(13) 0.2500(5)
O13_10 O 0.07499(14) 0.98084(14) 0.1466(6)
O14_10 O 0.06765(14) 0.94699(12) 0.2825(5)
O15_10 O 0.15501(18) 0.93225(18) 0.0336(7)
Eu1_10 Eu 0.099584(9) 0.928321(9) 0.11330(4)
Eu2_2 Eu 0.099738(9) 0.925830(9) 0.61171(4)
H35_10 H 0.1510 0.9499 0.2479
H36_10 H 0.1269 0.9554 0.3207
O23_2 O 0.06173(13) 0.92368(13) 0.7555(5)
O24_2 O 0.13096(15) 0.90758(18) 0.7756(6)
O25_2 O 0.15542(13) 0.92902(14) 0.6332(5)
C13_10 C 0.05304(17) 0.92954(17) 0.8595(7)
C14_10 C 0.02044(18) 0.93088(18) 0.8761(7)
C15_10 C 0.0094(2) 0.9502(2) 0.9609(8)
C18_10 C 0.00078(18) 0.91567(18) 0.8040(7)
C19_10 C 0.00795(17) 0.89178(17) 0.7168(7)
C21_10 C 0.01405(18) 0.84956(19) 0.5453(8)
H11_8 H 0.0160 0.8355 0.4854
C22_10 C 0.02933(19) 0.84715(19) 0.6530(8)
H12_10 H 0.0414 0.8312 0.6666
C23_10 C 0.02647(18) 0.86868(18) 0.7401(7)
C24_10 C 0.04362(19) 0.86572(18) 0.8561(7)
H16_10 H 0.1129 0.8004 0.9549
H17_10 H 0.0639 0.8071 0.9821
C37_10 C 0.1547(2) 0.9153(2) 0.7291(8)
C38_10 C 0.1822(2) 0.9078(2) 0.7938(9)
C39_10 C 0.1904(3) 0.8782(3) 0.7912(11)
H19_10 H 0.1776 0.8647 0.7581
C40_10 C 0.2160(3) 0.8687(3) 0.8343(12)
H20_10 H 0.2224 0.8495 0.8262
C41_10 C 0.2306(3) 0.8885(3) 0.8874(12)
H21_10 H 0.2473 0.8817 0.9253
C42_10 C 0.1997(3) 0.9280(3) 0.8467(10)
C43_10 C 0.1930(3) 0.9600(3) 0.8413(11)
C47_10 C 0.1687(3) 0.9709(3) 0.8908(12)
C48_10 C 0.1465(3) 0.9533(3) 0.9714(12)
N1_10 N 0.2135(2) 0.9774(3) 0.7929(10)
N2_10 N 0.2263(2) 0.9184(3) 0.8997(10)
O11_10 O 0.11164(12) 0.88688(12) 0.9843(5)
H33_10 H 0.0976 0.8741 0.9857
O16_10 O 0.12268(18) 0.9624(2) 0.9745(7)
O17_10 O 0.06844(12) 0.93570(12) 0.9482(5)
O19_10 O 0.06997(13) 0.85907(13) 0.8481(5)
O20_10 O 0.03023(13) 0.87010(13) 0.9535(5)
C16_10 C 0.9794(2) 0.9547(2) 0.9710(10)
C17_10 C 0.9618(2) 0.9408(2) 0.8875(9)
H9_10 H 0.9420 0.9449 0.8878
C20_10 C 0.99628(18) 0.87297(18) 0.5299(7)
H10_8 H 0.9862 0.8747 0.4577
H29_11 H 0.7710 0.3427 0.0039
O23_3 O 0.82632(13) 0.31173(13) 0.0055(5)
O24_3 O 0.84242(18) 0.38096(15) 0.0256(6)
C1_11 C 0.7677(2) 0.3458(2) 0.7357(9)
C2_11 C 0.73883(19) 0.35129(19) 0.6770(9)
C3_11 C 0.7269(2) 0.3796(2) 0.6837(11)
H1_11 H 0.7382 0.3949 0.7129
C4_11 C 0.6988(2) 0.3848(2) 0.6477(10)
H2_11 H 0.6908 0.4034 0.6517
C5_11 C 0.68249(19) 0.36133(19) 0.6047(9)
H3_11 H 0.6632 0.3645 0.5825
C6_11 C 0.72157(19) 0.32974(19) 0.6254(9)
C7_11 C 0.73159(18) 0.29942(19) 0.6069(8)
C8_11 C 0.71854(19) 0.25086(18) 0.6345(8)
H4_8 H 0.7050 0.2370 0.6595
C9_8 C 0.74530(19) 0.24167(19) 0.5916(8)
H5_9 H 0.7500 0.2220 0.5911
C10_11 C 0.76489(19) 0.26194(19) 0.5496(8)
H6_11 H 0.7827 0.2559 0.5185
C11_11 C 0.75802(19) 0.29178(19) 0.5538(8)
C12_11 C 0.77795(17) 0.31320(18) 0.4914(8)
C13_11 C 0.82046(17) 0.30304(17) 0.1095(7)
C14_11 C 0.81912(18) 0.27044(18) 0.1261(7)
C15_11 C 0.7998(2) 0.2594(2) 0.2109(8)
H7_11 H 0.7898 0.2721 0.2613
C16_11 C 0.7953(2) 0.2294(2) 0.2210(10)
H8_8 H 0.7835 0.2215 0.2809
C17_11 C 0.8092(2) 0.2118(2) 0.1375(9)
H9_11 H 0.8051 0.1920 0.1378
C18_11 C 0.83433(18) 0.25078(18) 0.0540(7)
C24_11 C 0.88428(18) 0.29362(19) 0.1061(7)
C25_11 C 0.86301(17) 0.37413(16) 0.6028(7)
C26_11 C 0.88982(18) 0.39303(18) 0.6217(7)
C27_11 C 0.8888(2) 0.41544(19) 0.7057(8)
H13_11 H 0.8728 0.4171 0.7566
C28_11 C 0.9110(2) 0.4351(2) 0.7145(10)
H14_11 H 0.9110 0.4493 0.7743
C29_11 C 0.9335(2) 0.4334(2) 0.6325(9)
H15_11 H 0.9478 0.4477 0.6333
C30_11 C 0.91472(17) 0.39087(17) 0.5495(7)
C31_11 C 0.92128(17) 0.36693(18) 0.4636(8)
C32_11 C 0.94132(18) 0.35636(19) 0.2763(7)
H16_11 H 0.9496 0.3629 0.2049
C33_11 C 0.93749(18) 0.32711(19) 0.2917(8)
H17_11 H 0.9429 0.3139 0.2321
C34_11 C 0.92526(18) 0.31759(19) 0.3988(8)
H18_11 H 0.9227 0.2978 0.4120
C35_11 C 0.91693(17) 0.33726(17) 0.4858(7)
C36_11 C 0.90411(18) 0.32603(17) 0.6042(7)
C38_11 C 0.8422(2) 0.4322(2) 0.0438(9)
C39_11 C 0.8718(3) 0.4404(3) 0.0412(11)
H19_11 H 0.8853 0.4276 0.0081
C40_11 C 0.8813(3) 0.4660(3) 0.0843(12)
H20_11 H 0.9005 0.4724 0.0762
C41_11 C 0.8615(3) 0.4806(3) 0.1374(12)
H21_11 H 0.8683 0.4973 0.1753
C42_11 C 0.8220(3) 0.4497(3) 0.0967(10)
C43_11 C 0.7900(3) 0.4430(3) 0.0913(11)
C44_9 C 0.7442(3) 0.4568(3) 0.0239(13)
C45_9 C 0.7313(3) 0.4303(3) 0.0448(13)
H23_9 H 0.7129 0.4253 0.0170
C46_9 C 0.7491(3) 0.4118(3) 0.1126(13)
H24_9 H 0.7413 0.3944 0.1408
C47_11 C 0.7791(3) 0.4187(3) 0.1408(12)
C48_11 C 0.7967(3) 0.3965(3) 0.2214(12)
N1_11 N 0.7726(3) 0.4635(2) 0.0429(10)
N2_11 N 0.8316(3) 0.4763(2) 0.1497(10)
N3_9 N 0.93362(14) 0.37617(15) 0.3597(6)
N4_9 N 0.93553(16) 0.41173(16) 0.5510(7)
N5_11 N 0.71166(16) 0.27920(16) 0.6410(7)
N6_11 N 0.69343(16) 0.33460(15) 0.5943(7)
O1_11 O 0.91419(13) 0.33561(13) 0.7001(5)
O2_11 O 0.88404(13) 0.30757(12) 0.5944(5)
O3_11 O 0.87614(13) 0.34321(14) 0.8841(5)
H25_11 H 0.8843 0.3330 0.8205
H26_11 H 0.8812 0.3329 0.9528
O4_11 O 0.83400(13) 0.30704(12) 0.7363(5)
H27_11 H 0.8275 0.3098 0.6629
H28_11 H 0.8254 0.2916 0.7660
O5_11 O 0.7830(2) 0.35834(17) 0.9995(8)
H30_11 H 0.7719 0.3735 0.9749
O6_11 O 0.77249(14) 0.32295(14) 0.7898(7)
O7_11 O 0.78618(13) 0.36700(14) 0.7307(6)
O8_11 O 0.84721(12) 0.36946(13) 0.6907(5)
O9_11 O 0.85836(12) 0.36627(12) 0.4958(5)
O10_11 O 0.85333(14) 0.30762(13) 0.3891(5)
H31_11 H 0.8667 0.3106 0.4494
H32_11 H 0.8640 0.3035 0.3212
O11_11 O 0.86312(12) 0.36164(12) 0.2343(5)
H33_11 H 0.8759 0.3476 0.2357
H34_11 H 0.8716 0.3776 0.2592
O12_13 O 0.79788(13) 0.38286(12) 0.5000(5)
O13_11 O 0.76916(14) 0.32499(14) 0.3966(6)
O14_11 O 0.80301(12) 0.31765(14) 0.5325(5)
O15_11 O 0.81775(18) 0.40501(18) 0.2836(7)
O16_11 O 0.7876(2) 0.37268(18) 0.2245(7)
O17_11 O 0.81430(12) 0.31844(12) 0.1982(5)
O19_11 O 0.89093(13) 0.31997(13) 0.0981(5)
O20_11 O 0.87990(13) 0.28023(13) 0.2035(5)
Eu1_11 Eu 0.821679(9) 0.349584(9) 0.36330(4)
Eu2_3 Eu 0.824170(9) 0.349738(9) 0.86171(4)
H35_11 H 0.8001 0.4010 0.4979
H36_11 H 0.7946 0.3769 0.5707
N9_4 N 0.62617(15) 0.31638(14) 0.6097(6)
N10_4 N 0.66173(16) 0.31447(16) 0.8010(7)
O25_3 O 0.82098(14) 0.40542(13) 0.8832(5)
C19_11 C 0.85822(17) 0.25795(17) 0.9668(7)
C20_11 C 0.87703(18) 0.24628(18) 0.7799(7)
H10_9 H 0.8753 0.2362 0.7077
C21_11 C 0.90044(19) 0.26405(18) 0.7953(8)
H11_9 H 0.9145 0.2660 0.7354
C22_11 C 0.90285(19) 0.27933(19) 0.9030(8)
H12_11 H 0.9188 0.2914 0.9166
C23_11 C 0.88132(18) 0.27647(18) 0.9901(7)
C37_11 C 0.8347(2) 0.4047(2) 0.9791(8)
H22_9 H 0.7323 0.4715 0.9938
C16_12 C 0.0206(2) 0.5453(2) 0.9710(10)
C17_12 C 0.0382(2) 0.5592(2) 0.8875(9)
H9_12 H 0.0580 0.5551 0.8878
C20_12 C 0.00372(18) 0.62703(18) 0.5299(7)
H10_10 H 0.0138 0.6253 0.4577
C1_12 C 0.9042(2) 0.5177(2) 0.4857(9)
C2_12 C 0.89871(19) 0.48883(19) 0.4270(9)
C3_12 C 0.8704(2) 0.4769(2) 0.4337(11)
H1_12 H 0.8551 0.4882 0.4629
C4_12 C 0.8652(2) 0.4488(2) 0.3977(10)
H2_12 H 0.8466 0.4408 0.4017
C5_12 C 0.88867(19) 0.43249(19) 0.3547(9)
H3_12 H 0.8855 0.4132 0.3325
C6_12 C 0.92026(19) 0.47157(19) 0.3754(9)
C7_12 C 0.95058(19) 0.48159(18) 0.3569(8)
C8_12 C 0.99914(18) 0.46854(19) 0.3845(8)
C10_12 C 0.98806(19) 0.51489(19) 0.2996(8)
H6_12 H 0.9941 0.5327 0.2685
C11_12 C 0.95822(19) 0.50802(19) 0.3038(8)
C12_12 C 0.93680(18) 0.52795(17) 0.2414(8)
H7_12 H 0.9779 0.5398 0.0113
C25_12 C 0.87587(16) 0.61301(17) 0.3528(7)
C26_12 C 0.85697(18) 0.63982(18) 0.3717(7)
C27_12 C 0.83456(19) 0.6388(2) 0.4557(8)
H13_12 H 0.8329 0.6228 0.5066
C28_12 C 0.8149(2) 0.6610(2) 0.4645(10)
H14_12 H 0.8007 0.6610 0.5243
C29_12 C 0.8166(2) 0.6835(2) 0.3825(9)
H15_12 H 0.8023 0.6978 0.3833
C30_12 C 0.85913(17) 0.66472(17) 0.2995(7)
C31_12 C 0.88307(18) 0.67128(17) 0.2136(8)
C32_12 C 0.89364(19) 0.69132(18) 0.0263(7)
C33_12 C 0.92289(19) 0.68749(18) 0.0417(8)
C34_12 C 0.93241(19) 0.67526(18) 0.1488(8)
H18_12 H 0.9522 0.6727 0.1620
C35_12 C 0.91274(17) 0.66693(17) 0.2358(7)
C36_12 C 0.92397(17) 0.65411(18) 0.3542(7)
N3_10 N 0.87383(15) 0.68362(14) 0.1097(6)
N4_10 N 0.83827(16) 0.68553(16) 0.3010(7)
N5_12 N 0.97080(16) 0.46166(16) 0.3910(7)
N6_12 N 0.91540(15) 0.44343(16) 0.3443(7)
O1_12 O 0.91439(13) 0.66419(13) 0.4501(5)
O2_12 O 0.94243(12) 0.63404(13) 0.3444(5)
O3_12 O 0.90679(14) 0.62614(13) 0.6341(5)
H25_12 H 0.9170 0.6343 0.5705
H26_12 H 0.9171 0.6312 0.7028
O4_12 O 0.94296(12) 0.58400(13) 0.4863(5)
H27_12 H 0.9402 0.5775 0.4129
H28_12 H 0.9584 0.5754 0.5160
O5_12 O 0.89166(17) 0.5330(2) 0.7495(8)
H29_12 H 0.9073 0.5210 0.7539
H30_12 H 0.8765 0.5219 0.7249
O6_12 O 0.92705(14) 0.52249(14) 0.5398(7)
O7_12 O 0.88300(14) 0.53618(13) 0.4807(6)
O8_12 O 0.88054(13) 0.59721(12) 0.4407(5)
O9_12 O 0.88373(12) 0.60836(12) 0.2458(5)
O10_12 O 0.94238(13) 0.60333(14) 0.1391(5)
H31_12 H 0.9394 0.6167 0.1994
H32_12 H 0.9465 0.6140 0.0712
H34_12 H 0.8724 0.6216 0.0092
O12_14 O 0.86714(12) 0.54788(13) 0.2500(5)
O13_12 O 0.92501(14) 0.51916(14) 0.1466(6)
O14_12 O 0.93235(14) 0.55301(12) 0.2825(5)
O15_12 O 0.84499(18) 0.56775(18) 0.0336(7)
Eu1_12 Eu 0.900416(9) 0.571679(9) 0.11330(4)
Eu2_4 Eu 0.900262(9) 0.574170(9) 0.61171(4)
H35_12 H 0.8490 0.5501 0.2479
H36_12 H 0.8731 0.5446 0.3207
O23_4 O 0.93827(13) 0.57632(13) 0.7555(5)
O24_4 O 0.86904(15) 0.59242(18) 0.7756(6)
O25_4 O 0.84458(13) 0.57098(14) 0.6332(5)
C13_12 C 0.94696(17) 0.57046(17) 0.8595(7)
C14_12 C 0.97956(18) 0.56912(18) 0.8761(7)
C15_12 C 0.9906(2) 0.5498(2) 0.9609(8)
C18_12 C 0.99922(18) 0.58433(18) 0.8040(7)
C19_12 C 0.99205(17) 0.60822(17) 0.7168(7)
C21_12 C 0.98595(18) 0.65044(19) 0.5453(8)
H11_10 H 0.9840 0.6645 0.4854
C22_12 C 0.97067(19) 0.65285(19) 0.6530(8)
H12_12 H 0.9586 0.6688 0.6666
C23_12 C 0.97353(18) 0.63132(18) 0.7401(7)
C24_12 C 0.95638(19) 0.63428(18) 0.8561(7)
H16_12 H 0.8871 0.6996 0.9549
H17_12 H 0.9361 0.6929 0.9821
C37_12 C 0.8453(2) 0.5847(2) 0.7291(8)
C38_12 C 0.8178(2) 0.5922(2) 0.7938(9)
C39_12 C 0.8096(3) 0.6218(3) 0.7912(11)
H19_12 H 0.8224 0.6353 0.7581
C40_12 C 0.7840(3) 0.6313(3) 0.8343(12)
H20_12 H 0.7776 0.6505 0.8262
C41_12 C 0.7694(3) 0.6115(3) 0.8874(12)
H21_12 H 0.7527 0.6183 0.9253
C42_12 C 0.8003(3) 0.5720(3) 0.8467(10)
C43_12 C 0.8070(3) 0.5400(3) 0.8413(11)
C44_10 C 0.7932(3) 0.4942(3) 0.7739(13)
H22_10 H 0.7785 0.4823 0.7438
C45_10 C 0.8197(3) 0.4813(3) 0.7948(13)
H23_10 H 0.8247 0.4629 0.7670
C46_10 C 0.8382(3) 0.4991(3) 0.8626(13)
H24_10 H 0.8556 0.4913 0.8908
C47_12 C 0.8313(3) 0.5291(3) 0.8908(12)
C48_12 C 0.8535(3) 0.5467(3) 0.9714(12)
N1_12 N 0.7865(2) 0.5226(3) 0.7929(10)
N2_12 N 0.7737(2) 0.5816(3) 0.8997(10)
O11_12 O 0.88836(12) 0.61312(12) 0.9843(5)
H33_12 H 0.9024 0.6259 0.9857
O16_12 O 0.87732(18) 0.5376(2) 0.9745(7)
O17_12 O 0.93156(12) 0.56430(12) 0.9482(5)
O19_12 O 0.93003(13) 0.64093(13) 0.8481(5)
O20_12 O 0.96977(13) 0.62990(13) 0.9535(5)
C1_13 C 0.7323(2) 0.6542(2) 0.2357(9)
C2_13 C 0.76117(19) 0.64871(19) 0.1770(9)
C3_13 C 0.7731(2) 0.6204(2) 0.1837(11)
H1_13 H 0.7618 0.6051 0.2129
C4_13 C 0.8012(2) 0.6152(2) 0.1477(10)
H2_13 H 0.8092 0.5966 0.1517
C5_13 C 0.81751(19) 0.63867(19) 0.1047(9)
H3_13 H 0.8368 0.6355 0.0825
C6_13 C 0.77843(19) 0.67026(19) 0.1254(9)
C7_13 C 0.76841(18) 0.70058(19) 0.1069(8)
C8_13 C 0.78146(19) 0.74914(18) 0.1345(8)
H4_9 H 0.7950 0.7630 0.1595
C9_9 C 0.75470(19) 0.75833(19) 0.0916(8)
H5_10 H 0.7500 0.7780 0.0911
C10_13 C 0.73511(19) 0.73806(19) 0.0496(8)
H6_13 H 0.7173 0.7441 0.0185
C11_13 C 0.74198(19) 0.70822(19) 0.0538(8)
C25_13 C 0.63699(17) 0.62587(16) 0.1028(7)
C26_13 C 0.61018(18) 0.60697(18) 0.1217(7)
C27_13 C 0.6112(2) 0.58456(19) 0.2057(8)
H13_13 H 0.6272 0.5829 0.2566
C28_13 C 0.5890(2) 0.5649(2) 0.2145(10)
H14_13 H 0.5890 0.5507 0.2743
C29_13 C 0.5665(2) 0.5666(2) 0.1325(9)
H15_13 H 0.5522 0.5523 0.1333
C30_13 C 0.58528(17) 0.60913(17) 0.0495(7)
C36_13 C 0.59589(18) 0.67397(17) 0.1042(7)
N4_11 N 0.56447(16) 0.58827(16) 0.0510(7)
N5_13 N 0.78834(16) 0.72080(16) 0.1410(7)
N6_13 N 0.80657(16) 0.66540(15) 0.0943(7)
O1_13 O 0.58581(13) 0.66439(13) 0.2001(5)
O2_13 O 0.61596(13) 0.69243(12) 0.0944(5)
O3_13 O 0.62386(13) 0.65679(14) 0.3841(5)
H25_13 H 0.6157 0.6670 0.3205
H26_13 H 0.6188 0.6671 0.4528
O4_13 O 0.66600(13) 0.69296(12) 0.2363(5)
H27_13 H 0.6725 0.6902 0.1629
H28_13 H 0.6746 0.7084 0.2660
O5_13 O 0.7170(2) 0.64166(17) 0.4995(8)
H29_13 H 0.7290 0.6573 0.5039
H30_13 H 0.7281 0.6265 0.4749
O6_13 O 0.72751(14) 0.67705(14) 0.2898(7)
O7_13 O 0.71382(13) 0.63300(14) 0.2307(6)
O8_13 O 0.65279(12) 0.63054(13) 0.1907(5)
O12_15 O 0.70212(13) 0.61714(12) 0.0000(5)
O14_13 O 0.69699(12) 0.68235(14) 0.0325(5)
Eu2_5 Eu 0.675830(9) 0.650262(9) 0.36171(4)
H36_13 H 0.7054 0.6231 0.0707
O23_5 O 0.67368(13) 0.68827(13) 0.5055(5)
O24_5 O 0.65758(18) 0.61904(15) 0.5256(6)
O25_5 O 0.67902(14) 0.59458(13) 0.3832(5)
C12_13 C 0.72205(17) 0.68680(18) 0.9914(8)
C13_13 C 0.67954(17) 0.69696(17) 0.6095(7)
C14_13 C 0.68088(18) 0.72956(18) 0.6261(7)
C15_13 C 0.7002(2) 0.7406(2) 0.7109(8)
H7_13 H 0.7102 0.7279 0.7613
C16_13 C 0.7047(2) 0.7706(2) 0.7210(10)
H8_9 H 0.7165 0.7785 0.7809
C17_13 C 0.6908(2) 0.7882(2) 0.6375(9)
H9_13 H 0.6949 0.8080 0.6378
C18_13 C 0.66567(18) 0.74922(18) 0.5540(7)
C19_13 C 0.64178(17) 0.74205(17) 0.4668(7)
C20_13 C 0.62297(18) 0.75372(18) 0.2799(7)
H10_11 H 0.6247 0.7638 0.2077
C21_13 C 0.59956(19) 0.73595(18) 0.2953(8)
H11_11 H 0.5855 0.7340 0.2354
C22_13 C 0.59715(19) 0.72067(19) 0.4030(8)
H12_13 H 0.5812 0.7086 0.4166
C23_13 C 0.61868(18) 0.72353(18) 0.4901(7)
C24_13 C 0.61572(18) 0.70638(19) 0.6061(7)
C31_13 C 0.57872(17) 0.63307(18) 0.9636(8)
C32_13 C 0.55868(18) 0.64364(19) 0.7763(7)
H16_13 H 0.5504 0.6371 0.7049
C33_13 C 0.56251(18) 0.67289(19) 0.7917(8)
H17_13 H 0.5571 0.6861 0.7321
C34_13 C 0.57474(18) 0.68241(19) 0.8988(8)
H18_13 H 0.5773 0.7022 0.9120
C35_13 C 0.58307(17) 0.66274(17) 0.9858(7)
C37_13 C 0.6653(2) 0.5953(2) 0.4791(8)
C38_13 C 0.6578(2) 0.5678(2) 0.5438(9)
C39_13 C 0.6282(3) 0.5596(3) 0.5412(11)
H19_13 H 0.6147 0.5724 0.5081
C40_13 C 0.6187(3) 0.5340(3) 0.5843(12)
H20_13 H 0.5995 0.5276 0.5762
C41_13 C 0.6385(3) 0.5194(3) 0.6374(12)
H21_13 H 0.6317 0.5027 0.6753
C42_13 C 0.6780(3) 0.5503(3) 0.5967(10)
C43_13 C 0.7100(3) 0.5570(3) 0.5913(11)
C44_11 C 0.7558(3) 0.5432(3) 0.5239(13)
H22_11 H 0.7677 0.5285 0.4938
C45_11 C 0.7687(3) 0.5697(3) 0.5448(13)
H23_11 H 0.7871 0.5747 0.5170
C46_11 C 0.7509(3) 0.5882(3) 0.6126(13)
H24_11 H 0.7587 0.6056 0.6408
C47_13 C 0.7209(3) 0.5813(3) 0.6408(12)
C48_13 C 0.7033(3) 0.6035(3) 0.7214(12)
N1_13 N 0.7274(3) 0.5365(2) 0.5429(10)
N2_13 N 0.6684(3) 0.5237(2) 0.6497(10)
N3_11 N 0.56638(14) 0.62383(15) 0.8597(6)
O9_13 O 0.64164(12) 0.63373(12) 0.9958(5)
O10_13 O 0.64667(14) 0.69238(13) 0.8891(5)
H31_13 H 0.6333 0.6894 0.9494
H32_13 H 0.6360 0.6965 0.8212
O11_13 O 0.63688(12) 0.63836(12) 0.7343(5)
H33_13 H 0.6241 0.6524 0.7357
H34_13 H 0.6284 0.6224 0.7592
O12_16 O 0.70212(13) 0.61714(12) 1.0000(5)
O13_13 O 0.73084(14) 0.67501(14) 0.8966(6)
O15_13 O 0.68225(18) 0.59499(18) 0.7836(7)
O16_13 O 0.7124(2) 0.62732(18) 0.7245(7)
O17_13 O 0.68570(12) 0.68156(12) 0.6982(5)
O19_13 O 0.60907(13) 0.68003(13) 0.5981(5)
O20_13 O 0.62010(13) 0.71977(13) 0.7035(5)
Eu1_13 Eu 0.678321(9) 0.650416(9) 0.86330(4)
H35_13 H 0.6999 0.5990 0.9979
H13_14 H 0.6671 0.3772 0.0066
H14_14 H 0.6993 0.3390 0.0243
O3_14 O 0.59321(14) 0.37386(13) 0.1341(5)
H25_14 H 0.5830 0.3657 0.0705
H26_14 H 0.5829 0.3688 0.2028
H28_14 H 0.5416 0.4246 0.0160
O5_14 O 0.60834(17) 0.4670(2) 0.2495(8)
H29_14 H 0.5927 0.4790 0.2539
H30_14 H 0.6235 0.4781 0.2249
O6_14 O 0.57295(14) 0.47751(14) 0.0398(7)
Eu2_6 Eu 0.599738(9) 0.425830(9) 0.11171(4)
O23_6 O 0.56173(13) 0.42368(13) 0.2555(5)
O24_6 O 0.63096(15) 0.40758(18) 0.2756(6)
O25_6 O 0.65542(13) 0.42902(14) 0.1332(5)
C1_14 C 0.5958(2) 0.4823(2) 0.9857(9)
C2_14 C 0.60129(19) 0.51117(19) 0.9270(9)
C3_14 C 0.6296(2) 0.5231(2) 0.9337(11)
H1_14 H 0.6449 0.5118 0.9629
C4_14 C 0.6348(2) 0.5512(2) 0.8977(10)
H2_14 H 0.6534 0.5592 0.9017
C5_14 C 0.61133(19) 0.56751(19) 0.8547(9)
H3_14 H 0.6145 0.5868 0.8325
C6_14 C 0.57974(19) 0.52843(19) 0.8754(9)
C7_14 C 0.54942(19) 0.51841(18) 0.8569(8)
C8_14 C 0.50086(18) 0.53146(19) 0.8845(8)
H4_10 H 0.4870 0.5450 0.9095
C9_10 C 0.49167(19) 0.50470(19) 0.8416(8)
H5_11 H 0.4720 0.5000 0.8411
C10_14 C 0.51194(19) 0.48511(19) 0.7996(8)
H6_14 H 0.5059 0.4673 0.7685
C11_14 C 0.54178(19) 0.49198(19) 0.8038(8)
C12_14 C 0.56320(18) 0.47205(17) 0.7414(8)
C13_14 C 0.55304(17) 0.42954(17) 0.3595(7)
C14_14 C 0.52044(18) 0.43088(18) 0.3761(7)
C15_14 C 0.5094(2) 0.4502(2) 0.4609(8)
H7_14 H 0.5221 0.4602 0.5113
C16_14 C 0.4794(2) 0.4547(2) 0.4710(10)
H8_10 H 0.4715 0.4665 0.5309
C17_14 C 0.4618(2) 0.4408(2) 0.3875(9)
H9_14 H 0.4420 0.4449 0.3878
C18_14 C 0.50078(18) 0.41567(18) 0.3040(7)
C19_14 C 0.50795(17) 0.39178(17) 0.2168(7)
C20_14 C 0.49628(18) 0.37297(18) 0.0299(7)
C21_14 C 0.51405(18) 0.34956(19) 0.0453(8)
C22_14 C 0.52933(19) 0.34715(19) 0.1530(8)
H12_14 H 0.5414 0.3312 0.1666
C23_14 C 0.52647(18) 0.36868(18) 0.2401(7)
C24_14 C 0.54362(19) 0.36572(18) 0.3561(7)
C25_14 C 0.62413(16) 0.38699(17) 0.8528(7)
C26_14 C 0.64303(18) 0.36018(18) 0.8717(7)
C27_14 C 0.66544(19) 0.3612(2) 0.9557(8)
C28_14 C 0.6851(2) 0.3390(2) 0.9645(10)
C29_14 C 0.6834(2) 0.3165(2) 0.8825(9)
H15_14 H 0.6977 0.3022 0.8833
C30_14 C 0.64087(17) 0.33528(17) 0.7995(7)
C31_14 C 0.61693(18) 0.32872(17) 0.7136(8)
C32_14 C 0.60636(19) 0.30868(18) 0.5263(7)
H16_14 H 0.6129 0.3004 0.4549
C33_14 C 0.57711(19) 0.31251(18) 0.5417(8)
H17_14 H 0.5639 0.3071 0.4821
C34_14 C 0.56759(19) 0.32474(18) 0.6488(8)
H18_14 H 0.5478 0.3273 0.6620
C35_14 C 0.58726(17) 0.33307(17) 0.7358(7)
C36_14 C 0.57603(17) 0.34589(18) 0.8542(7)
C37_14 C 0.6547(2) 0.4153(2) 0.2291(8)
C38_14 C 0.6822(2) 0.4078(2) 0.2938(9)
C39_14 C 0.6904(3) 0.3782(3) 0.2912(11)
H19_14 H 0.6776 0.3647 0.2581
C40_14 C 0.7160(3) 0.3687(3) 0.3343(12)
H20_14 H 0.7224 0.3495 0.3262
C41_14 C 0.7306(3) 0.3885(3) 0.3874(12)
H21_14 H 0.7473 0.3817 0.4253
C42_14 C 0.6997(3) 0.4280(3) 0.3467(10)
C43_14 C 0.6930(3) 0.4600(3) 0.3413(11)
C44_12 C 0.7068(3) 0.5058(3) 0.2739(13)
H22_12 H 0.7215 0.5177 0.2438
C45_12 C 0.6803(3) 0.5187(3) 0.2948(13)
H23_12 H 0.6753 0.5371 0.2670
C46_12 C 0.6618(3) 0.5009(3) 0.3626(13)
H24_12 H 0.6444 0.5087 0.3908
C47_14 C 0.6687(3) 0.4709(3) 0.3908(12)
C48_14 C 0.6465(3) 0.4533(3) 0.4714(12)
N1_14 N 0.7135(2) 0.4774(3) 0.2929(10)
N2_14 N 0.7263(2) 0.4184(3) 0.3997(10)
N5_14 N 0.52920(16) 0.53834(16) 0.8910(7)
N6_14 N 0.58460(15) 0.55657(16) 0.8443(7)
O1_14 O 0.58561(13) 0.33581(13) 0.9501(5)
O2_14 O 0.55757(12) 0.36596(13) 0.8444(5)
O4_14 O 0.55704(12) 0.41600(13) 0.9863(5)
H27_14 H 0.5598 0.4225 0.9129
O7_14 O 0.61700(14) 0.46382(13) 0.9807(6)
O8_14 O 0.61946(13) 0.40279(12) 0.9407(5)
O9_14 O 0.61627(12) 0.39164(12) 0.7458(5)
O10_14 O 0.55762(13) 0.39667(14) 0.6391(5)
H31_14 H 0.5606 0.3833 0.6994
H32_14 H 0.5535 0.3860 0.5712
O11_14 O 0.61164(12) 0.38688(12) 0.4843(5)
H33_14 H 0.5976 0.3741 0.4857
H34_14 H 0.6276 0.3784 0.5092
O12_17 O 0.63286(12) 0.45212(13) 0.7500(5)
O13_14 O 0.57499(14) 0.48084(14) 0.6466(6)
O14_14 O 0.56765(14) 0.44699(12) 0.7825(5)
O15_14 O 0.65501(18) 0.43225(18) 0.5336(7)
O16_14 O 0.62268(18) 0.4624(2) 0.4745(7)
O17_14 O 0.56844(12) 0.43570(12) 0.4482(5)
O19_14 O 0.56997(13) 0.35907(13) 0.3481(5)
O20_14 O 0.53023(13) 0.37010(13) 0.4535(5)
Eu1_14 Eu 0.599584(9) 0.428321(9) 0.61330(4)
H35_14 H 0.6510 0.4499 0.7479
H36_14 H 0.6269 0.4554 0.8207
C1_15 C 0.2677(2) 0.8458(2) 0.2357(9)
C2_15 C 0.23883(19) 0.85129(19) 0.1770(9)
C3_15 C 0.2269(2) 0.8796(2) 0.1837(11)
H1_15 H 0.2382 0.8949 0.2129
C4_15 C 0.1988(2) 0.8848(2) 0.1477(10)
H2_15 H 0.1908 0.9034 0.1517
C5_15 C 0.18249(19) 0.86133(19) 0.1047(9)
H3_15 H 0.1632 0.8645 0.0825
C6_15 C 0.22157(19) 0.82974(19) 0.1254(9)
C7_15 C 0.23159(18) 0.79942(19) 0.1069(8)
C8_15 C 0.21854(19) 0.75086(18) 0.1345(8)
H4_11 H 0.2050 0.7370 0.1595
C9_11 C 0.24530(19) 0.74167(19) 0.0916(8)
H5_12 H 0.2500 0.7220 0.0911
C10_15 C 0.26489(19) 0.76194(19) 0.0496(8)
H6_15 H 0.2827 0.7559 0.0185
C11_15 C 0.25802(19) 0.79178(19) 0.0538(8)
C25_15 C 0.36301(17) 0.87413(16) 0.1028(7)
C26_15 C 0.38982(18) 0.89303(18) 0.1217(7)
C27_15 C 0.3888(2) 0.91544(19) 0.2057(8)
H13_15 H 0.3728 0.9171 0.2566
C28_15 C 0.4110(2) 0.9351(2) 0.2145(10)
H14_15 H 0.4110 0.9493 0.2743
C29_15 C 0.4335(2) 0.9334(2) 0.1325(9)
H15_15 H 0.4478 0.9477 0.1333
C30_15 C 0.41472(17) 0.89087(17) 0.0495(7)
C36_15 C 0.40411(18) 0.82603(17) 0.1042(7)
N4_12 N 0.43553(16) 0.91173(16) 0.0510(7)
N5_15 N 0.21166(16) 0.77920(16) 0.1410(7)
N6_15 N 0.19343(16) 0.83460(15) 0.0943(7)
O1_15 O 0.41419(13) 0.83561(13) 0.2001(5)
O2_15 O 0.38404(13) 0.80757(12) 0.0944(5)
O3_15 O 0.37614(13) 0.84321(14) 0.3841(5)
H25_15 H 0.3843 0.8330 0.3205
H26_15 H 0.3812 0.8329 0.4528
O4_15 O 0.33400(13) 0.80704(12) 0.2363(5)
H27_15 H 0.3275 0.8098 0.1629
H28_15 H 0.3254 0.7916 0.2660
O5_15 O 0.2830(2) 0.85834(17) 0.4995(8)
H29_15 H 0.2710 0.8427 0.5039
H30_15 H 0.2719 0.8735 0.4749
O6_15 O 0.27249(14) 0.82295(14) 0.2898(7)
O7_15 O 0.28618(13) 0.86700(14) 0.2307(6)
O8_15 O 0.34721(12) 0.86946(13) 0.1907(5)
O12_18 O 0.29788(13) 0.88286(12) 0.0000(5)
O14_15 O 0.30301(12) 0.81765(14) 0.0325(5)
Eu2_7 Eu 0.324170(9) 0.849738(9) 0.36171(4)
H36_15 H 0.2946 0.8769 0.0707
O23_7 O 0.32632(13) 0.81173(13) 0.5055(5)
O24_7 O 0.34242(18) 0.88096(15) 0.5256(6)
O25_7 O 0.32098(14) 0.90542(13) 0.3832(5)
C12_15 C 0.27795(17) 0.81320(18) 0.9914(8)
C13_15 C 0.32046(17) 0.80304(17) 0.6095(7)
C14_15 C 0.31912(18) 0.77044(18) 0.6261(7)
C15_15 C 0.2998(2) 0.7594(2) 0.7109(8)
H7_15 H 0.2898 0.7721 0.7613
C16_15 C 0.2953(2) 0.7294(2) 0.7210(10)
H8_11 H 0.2835 0.7215 0.7809
C17_15 C 0.3092(2) 0.7118(2) 0.6375(9)
H9_15 H 0.3051 0.6920 0.6378
C18_15 C 0.33433(18) 0.75078(18) 0.5540(7)
C19_15 C 0.35822(17) 0.75795(17) 0.4668(7)
C20_15 C 0.37703(18) 0.74628(18) 0.2799(7)
H10_12 H 0.3753 0.7362 0.2077
C21_15 C 0.40044(19) 0.76405(18) 0.2953(8)
H11_12 H 0.4145 0.7660 0.2354
C22_15 C 0.40285(19) 0.77933(19) 0.4030(8)
H12_15 H 0.4188 0.7914 0.4166
C23_15 C 0.38132(18) 0.77647(18) 0.4901(7)
C24_15 C 0.38428(18) 0.79362(19) 0.6061(7)
C31_15 C 0.42128(17) 0.86693(18) 0.9636(8)
C32_15 C 0.44132(18) 0.85636(19) 0.7763(7)
H16_15 H 0.4496 0.8629 0.7049
C33_15 C 0.43749(18) 0.82711(19) 0.7917(8)
H17_15 H 0.4429 0.8139 0.7321
C34_15 C 0.42526(18) 0.81759(19) 0.8988(8)
H18_15 H 0.4227 0.7978 0.9120
C35_15 C 0.41693(17) 0.83726(17) 0.9858(7)
C37_15 C 0.3347(2) 0.9047(2) 0.4791(8)
C38_15 C 0.3422(2) 0.9322(2) 0.5438(9)
C39_15 C 0.3718(3) 0.9404(3) 0.5412(11)
H19_15 H 0.3853 0.9276 0.5081
C40_15 C 0.3813(3) 0.9660(3) 0.5843(12)
H20_15 H 0.4005 0.9724 0.5762
C41_15 C 0.3615(3) 0.9806(3) 0.6374(12)
H21_15 H 0.3683 0.9973 0.6753
C42_15 C 0.3220(3) 0.9497(3) 0.5967(10)
C43_15 C 0.2900(3) 0.9430(3) 0.5913(11)
C44_13 C 0.2442(3) 0.9568(3) 0.5239(13)
H22_13 H 0.2323 0.9715 0.4938
C45_13 C 0.2313(3) 0.9303(3) 0.5448(13)
H23_13 H 0.2129 0.9253 0.5170
C46_13 C 0.2491(3) 0.9118(3) 0.6126(13)
H24_13 H 0.2413 0.8944 0.6408
C47_15 C 0.2791(3) 0.9187(3) 0.6408(12)
C48_15 C 0.2967(3) 0.8965(3) 0.7214(12)
N1_15 N 0.2726(3) 0.9635(2) 0.5429(10)
N2_15 N 0.3316(3) 0.9763(2) 0.6497(10)
N3_12 N 0.43362(14) 0.87617(15) 0.8597(6)
O9_15 O 0.35836(12) 0.86627(12) 0.9958(5)
O10_15 O 0.35333(14) 0.80762(13) 0.8891(5)
H31_15 H 0.3667 0.8106 0.9494
H32_15 H 0.3640 0.8035 0.8212
O11_15 O 0.36312(12) 0.86164(12) 0.7343(5)
H33_15 H 0.3759 0.8476 0.7357
H34_15 H 0.3716 0.8776 0.7592
O12_19 O 0.29788(13) 0.88286(12) 1.0000(5)
O13_15 O 0.26916(14) 0.82499(14) 0.8966(6)
O15_15 O 0.31775(18) 0.90501(18) 0.7836(7)
O16_15 O 0.2876(2) 0.87268(18) 0.7245(7)
O17_15 O 0.31430(12) 0.81844(12) 0.6982(5)
O19_15 O 0.39093(13) 0.81997(13) 0.5981(5)
O20_15 O 0.37990(13) 0.78023(13) 0.7035(5)
Eu1_15 Eu 0.321679(9) 0.849584(9) 0.86330(4)
H35_15 H 0.3001 0.9010 0.9979
H13_16 H 0.3329 0.1228 0.0066
H14_16 H 0.3007 0.1610 0.0243
O3_16 O 0.40679(14) 0.12614(13) 0.1341(5)
H25_16 H 0.4170 0.1343 0.0705
H26_16 H 0.4171 0.1312 0.2028
H28_16 H 0.4584 0.0754 0.0160
O5_16 O 0.39166(17) 0.0330(2) 0.2495(8)
H29_16 H 0.4073 0.0210 0.2539
H30_16 H 0.3765 0.0219 0.2249
O6_16 O 0.42705(14) 0.02249(14) 0.0398(7)
Eu2_8 Eu 0.400262(9) 0.074170(9) 0.11171(4)
O23_8 O 0.43827(13) 0.07632(13) 0.2555(5)
O24_8 O 0.36904(15) 0.09242(18) 0.2756(6)
O25_8 O 0.34458(13) 0.07098(14) 0.1332(5)
C1_16 C 0.4042(2) 0.0177(2) 0.9857(9)
H5_13 H 0.5280 0.0000 0.8411
C10_16 C 0.48806(19) 0.01489(19) 0.7996(8)
H6_16 H 0.4941 0.0327 0.7685
C11_16 C 0.45822(19) 0.00802(19) 0.8038(8)
C12_16 C 0.43680(18) 0.02795(17) 0.7414(8)
C13_16 C 0.44696(17) 0.07046(17) 0.3595(7)
C14_16 C 0.47956(18) 0.06912(18) 0.3761(7)
C15_16 C 0.4906(2) 0.0498(2) 0.4609(8)
H7_16 H 0.4779 0.0398 0.5113
C16_16 C 0.5206(2) 0.0453(2) 0.4710(10)
H8_12 H 0.5285 0.0335 0.5309
C17_16 C 0.5382(2) 0.0592(2) 0.3875(9)
H9_16 H 0.5580 0.0551 0.3878
C18_16 C 0.49922(18) 0.08433(18) 0.3040(7)
C19_16 C 0.49205(17) 0.10822(17) 0.2168(7)
C20_16 C 0.50372(18) 0.12703(18) 0.0299(7)
C21_16 C 0.48595(18) 0.15044(19) 0.0453(8)
C22_16 C 0.47067(19) 0.15285(19) 0.1530(8)
H12_16 H 0.4586 0.1688 0.1666
C23_16 C 0.47353(18) 0.13132(18) 0.2401(7)
C24_16 C 0.45638(19) 0.13428(18) 0.3561(7)
C25_16 C 0.37587(16) 0.11301(17) 0.8528(7)
C26_16 C 0.35697(18) 0.13982(18) 0.8717(7)
C27_16 C 0.33456(19) 0.1388(2) 0.9557(8)
C28_16 C 0.3149(2) 0.1610(2) 0.9645(10)
C29_16 C 0.3166(2) 0.1835(2) 0.8825(9)
H15_16 H 0.3023 0.1978 0.8833
C30_16 C 0.35913(17) 0.16472(17) 0.7995(7)
C31_16 C 0.38307(18) 0.17128(17) 0.7136(8)
C32_16 C 0.39364(19) 0.19132(18) 0.5263(7)
H16_16 H 0.3871 0.1996 0.4549
C33_16 C 0.42289(19) 0.18749(18) 0.5417(8)
H17_16 H 0.4361 0.1929 0.4821
C34_16 C 0.43241(19) 0.17526(18) 0.6488(8)
H18_16 H 0.4522 0.1727 0.6620
C35_16 C 0.41274(17) 0.16693(17) 0.7358(7)
C36_16 C 0.42397(17) 0.15411(18) 0.8542(7)
C37_16 C 0.3453(2) 0.0847(2) 0.2291(8)
C38_16 C 0.3178(2) 0.0922(2) 0.2938(9)
C39_16 C 0.3096(3) 0.1218(3) 0.2912(11)
H19_16 H 0.3224 0.1353 0.2581
C40_16 C 0.2840(3) 0.1313(3) 0.3343(12)
H20_16 H 0.2776 0.1505 0.3262
C41_16 C 0.2694(3) 0.1115(3) 0.3874(12)
H21_16 H 0.2527 0.1183 0.4253
C42_16 C 0.3003(3) 0.0720(3) 0.3467(10)
C43_16 C 0.3070(3) 0.0400(3) 0.3413(11)
C47_16 C 0.3313(3) 0.0291(3) 0.3908(12)
C48_16 C 0.3535(3) 0.0467(3) 0.4714(12)
N1_16 N 0.2865(2) 0.0226(3) 0.2929(10)
N2_16 N 0.2737(2) 0.0816(3) 0.3997(10)
O1_16 O 0.41439(13) 0.16419(13) 0.9501(5)
O2_16 O 0.44243(12) 0.13404(13) 0.8444(5)
O4_16 O 0.44296(12) 0.08400(13) 0.9863(5)
H27_16 H 0.4402 0.0775 0.9129
O7_16 O 0.38300(14) 0.03618(13) 0.9807(6)
O8_16 O 0.38054(13) 0.09721(12) 0.9407(5)
O9_16 O 0.38373(12) 0.10836(12) 0.7458(5)
O10_16 O 0.44238(13) 0.10333(14) 0.6391(5)
H31_16 H 0.4394 0.1167 0.6994
H32_16 H 0.4465 0.1140 0.5712
O11_16 O 0.38836(12) 0.11312(12) 0.4843(5)
H33_16 H 0.4024 0.1259 0.4857
H34_16 H 0.3724 0.1216 0.5092
O12_20 O 0.36714(12) 0.04788(13) 0.7500(5)
O13_16 O 0.42501(14) 0.01916(14) 0.6466(6)
O14_16 O 0.43235(14) 0.05301(12) 0.7825(5)
O15_16 O 0.34499(18) 0.06775(18) 0.5336(7)
O16_16 O 0.37732(18) 0.0376(2) 0.4745(7)
O17_16 O 0.43156(12) 0.06430(12) 0.4482(5)
O19_16 O 0.43003(13) 0.14093(13) 0.3481(5)
O20_16 O 0.46977(13) 0.12990(13) 0.4535(5)
Eu1_16 Eu 0.400416(9) 0.071679(9) 0.61330(4)
H35_16 H 0.3490 0.0501 0.7479
H36_16 H 0.3731 0.0446 0.8207
C2_16 C 0.39871(19) 0.98883(19) 0.9270(9)
C3_16 C 0.3704(2) 0.9769(2) 0.9337(11)
H1_16 H 0.3551 0.9882 0.9629
C4_16 C 0.3652(2) 0.9488(2) 0.8977(10)
H2_16 H 0.3466 0.9408 0.9017
C5_16 C 0.38867(19) 0.93249(19) 0.8547(9)
H3_16 H 0.3855 0.9132 0.8325
C6_16 C 0.42026(19) 0.97157(19) 0.8754(9)
C7_16 C 0.45058(19) 0.98159(18) 0.8569(8)
C8_16 C 0.49914(18) 0.96854(19) 0.8845(8)
H4_12 H 0.5130 0.9550 0.9095
C9_12 C 0.50833(19) 0.99530(19) 0.8416(8)
H5_14 H 0.5280 1.0000 0.8411
C44_14 C 0.2932(3) 0.9942(3) 0.2739(13)
H22_14 H 0.2785 0.9823 0.2438
C45_14 C 0.3197(3) 0.9813(3) 0.2948(13)
H23_14 H 0.3247 0.9629 0.2670
C46_14 C 0.3382(3) 0.9991(3) 0.3626(13)
H24_14 H 0.3556 0.9913 0.3908
N5_16 N 0.47080(16) 0.96166(16) 0.8910(7)
N6_16 N 0.41540(15) 0.94343(16) 0.8443(7)
H5_15 H 0.0280 0.0000 0.6589
H8_13 H 0.0285 0.0335 0.9691
H4_13 H 0.0130 0.9550 0.5905
C9_13 C 0.00833(19) 0.99530(19) 0.6584(8)
H5_16 H 0.0280 1.0000 0.6589
C44_15 C 0.7932(3) 0.9942(3) 0.2261(13)
H22_15 H 0.7785 0.9823 0.2562
C45_15 C 0.8197(3) 0.9813(3) 0.2052(13)
H23_15 H 0.8247 0.9629 0.2330
C46_15 C 0.8382(3) 0.9991(3) 0.1374(13)
H24_15 H 0.8556 0.9913 0.1092
H4_14 H 0.9870 0.5450 0.5905
C9_14 C 0.99167(19) 0.50470(19) 0.6584(8)
H5_17 H 0.9720 0.5000 0.6589
H8_14 H 0.9715 0.4665 0.9691
H10_13 H 0.5138 0.6253 0.0423
H11_13 H 0.4840 0.6645 0.0146
H10_14 H 0.4862 0.8747 0.0423
H11_14 H 0.5160 0.8355 0.0146
C44_16 C 0.2068(3) 0.0058(3) 0.7739(13)
H22_16 H 0.2215 0.0177 0.7438
C45_16 C 0.1803(3) 0.0187(3) 0.7948(13)
H23_16 H 0.1753 0.0371 0.7670
C46_16 C 0.1618(3) 0.0009(3) 0.8626(13)
H24_16 H 0.1444 0.0087 0.8908
H4_15 H 0.9870 0.0450 0.4095
C9_15 C 0.99167(19) 0.00470(19) 0.3416(8)
H5_18 H 0.9720 -0.0000 0.3411
H5_19 H 0.9720 1.0000 0.3411
H8_15 H 0.9715 0.9665 0.0309
H4_16 H 0.0130 0.4550 0.4095
C9_16 C 0.00833(19) 0.49530(19) 0.3416(8)
H5_20 H 0.0280 0.5000 0.3411
H8_16 H 0.0285 0.5335 0.0309
H10_15 H 0.4862 0.3747 0.9577
H11_15 H 0.5160 0.3355 0.9854
H10_16 H 0.5138 0.1253 0.9577
H11_16 H 0.4840 0.1645 0.9854
loop_
_geom_bond_atom_site_label_1
_geom_bond_atom_site_label_2
_geom_bond_site_symmetry_1
_geom_bond_site_symmetry_2
C20 H10 1_555 1_555
C21 C20 1_555 1_555
H11 C21 1_555 1_555
C22 C21 1_555 1_555
H12 C22 1_555 1_555
C23 C19 1_555 1_555
N8 C19 1_555 1_555
O22 C37 1_555 1_555
C20 N8 1_555 1_555
C22 C23 1_555 1_555
N8 Co3 1_555 1_555
O22 Eu3 1_555 1_555
C1 C2 1_555 1_555
C2 C3 1_555 1_555
C3 H1 1_555 1_555
C4 C3 1_555 1_555
H2 C4 1_555 1_555
C5 C4 1_555 1_555
H3 C5 1_555 1_555
C6 C2 1_555 1_555
C7 C6 1_555 1_555
C8 H4 1_555 1_555
C9 C8 1_555 1_555
H5 C9 1_555 1_555
C10 C9 1_555 1_555
H6 C10 1_555 1_555
C11 C7 1_555 1_555
C12 C11 1_555 1_555
C13 C14 1_555 1_555
C14 C15 1_555 1_555
C15 H7 1_555 1_555
C16 C15 1_555 1_555
H8 C16 1_555 1_555
C17 C16 1_555 1_555
H9 C17 1_555 1_555
C18 C14 1_555 1_555
C25 C26 1_555 1_555
C26 C27 1_555 1_555
C27 H13 1_555 1_555
C28 C27 1_555 1_555
H14 C28 1_555 1_555
C29 C28 1_555 1_555
H15 C29 1_555 1_555
C30 C26 1_555 1_555
C31 C30 1_555 1_555
C32 H16 1_555 1_555
C33 C32 1_555 1_555
H17 C33 1_555 1_555
C34 C33 1_555 1_555
H18 C34 1_555 1_555
C35 C31 1_555 1_555
C36 C35 1_555 1_555
C38 C39 1_555 1_555
C39 H19 1_555 1_555
C40 C39 1_555 1_555
H20 C40 1_555 1_555
C41 C40 1_555 1_555
H21 C41 1_555 1_555
C42 C38 1_555 1_555
C43 C42 1_555 1_555
C45 C44 1_555 1_555
H23 C45 1_555 1_555
C46 C45 1_555 1_555
H24 C46 1_555 1_555
C47 C43 1_555 1_555
C48 C47 1_555 1_555
N1 C43 1_555 1_555
N2 C41 1_555 1_555
N3 C31 1_555 1_555
N4 C29 1_555 1_555
N5 C7 1_555 1_555
N6 C5 1_555 1_555
N7 C17 1_555 1_555
O1 C36 1_555 1_555
O2 C36 1_555 1_555
O3 H25 1_555 1_555
H26 O3 1_555 1_555
O4 H27 1_555 1_555
H28 O4 1_555 1_555
H30 O5 1_555 1_555
O6 C1 1_555 1_555
O7 C1 1_555 1_555
O8 C25 1_555 1_555
O9 C25 1_555 1_555
O10 H31 1_555 1_555
H32 O10 1_555 1_555
O11 H33 1_555 1_555
H34 O11 1_555 1_555
O12 Eu1 1_555 1_555
O13 C12 1_555 1_555
O14 C12 1_555 1_555
O15 C48 1_555 1_555
O16 C48 1_555 1_555
O17 C13 1_555 1_555
O18 C13 1_555 1_555
O19 C24 1_555 1_555
O20 C24 1_555 1_555
Co1 N5 1_555 1_555
Eu1 O9 1_555 1_555
Eu3 O3 1_555 1_555
H35 O12 1_555 1_555
H36 O12 1_555 1_555
N9 Co1 1_555 1_555
N10 Co1 1_555 1_555
N11 Co1 1_555 1_555
N12 Co1 1_555 1_555
Co2 N3 1_555 1_555
C6 N6 1_555 1_555
C8 N5 1_555 1_555
C10 C11 1_555 1_555
C18 N7 1_555 1_555
C30 N4 1_555 1_555
C32 N3 1_555 1_555
C34 C35 1_555 1_555
C42 N2 1_555 1_555
C44 N1 1_555 1_555
C46 C47 1_555 1_555
N4 Co2 1_555 1_555
N6 Co1 1_555 1_555
O4 Eu3 1_555 1_555
O5 Eu3 1_555 1_555
O6 Eu3 1_555 1_555
O7 Eu3 1_555 1_555
O8 Eu3 1_555 1_555
O10 Eu1 1_555 1_555
O11 Eu1 1_555 1_555
O13 Eu1 1_555 1_555
O14 Eu1 1_555 1_555
O15 Eu1 1_555 1_555
O16 Eu1 1_555 1_555
O17 Eu1 1_555 1_555
C17_2 C16_2 1_555 1_555
H9_2 C17_2 1_555 1_555
C20_2 H10_2 1_555 1_555
N7_2 C17_2 1_555 1_555
Co3_2 N7_2 1_555 1_555
C20_2 N8_2 1_555 1_555
N8_2 Co3_2 1_555 1_555
C13_2 C14_2 1_555 1_555
C14_2 C15_2 1_555 1_555
C18_2 C14_2 1_555 1_555
C19_2 C18_2 1_555 1_555
H11_2 C21_2 1_555 1_555
C22_2 C21_2 1_555 1_555
H12_2 C22_2 1_555 1_555
C23_2 C19_2 1_555 1_555
C24_2 C23_2 1_555 1_555
C37_2 C38_2 1_555 1_555
C38_2 C39_2 1_555 1_555
C39_2 H19_2 1_555 1_555
C40_2 C39_2 1_555 1_555
H20_2 C40_2 1_555 1_555
C41_2 C40_2 1_555 1_555
H21_2 C41_2 1_555 1_555
C42_2 C38_2 1_555 1_555
C43_2 C42_2 1_555 1_555
C47_2 C43_2 1_555 1_555
C48_2 C47_2 1_555 1_555
N1_2 C43_2 1_555 1_555
N2_2 C41_2 1_555 1_555
O11_2 H33_2 1_555 1_555
O16_2 C48_2 1_555 1_555
O17_2 C13_2 1_555 1_555
O18_2 C13_2 1_555 1_555
O19_2 C24_2 1_555 1_555
O20_2 C24_2 1_555 1_555
O21_2 C37_2 1_555 1_555
O22_2 C37_2 1_555 1_555
Eu3_2 O18_2 1_555 1_555
C22_2 C23_2 1_555 1_555
C42_2 N2_2 1_555 1_555
O21_2 Eu3_2 1_555 1_555
O22_2 Eu3_2 1_555 1_555
H6_2 C10_2 1_555 1_555
C12_2 C11_2 1_555 1_555
C25_2 C26_2 1_555 1_555
C26_2 C27_2 1_555 1_555
C27_2 H13_2 1_555 1_555
C28_2 C27_2 1_555 1_555
H14_2 C28_2 1_555 1_555
C29_2 C28_2 1_555 1_555
H15_2 C29_2 1_555 1_555
C30_2 C26_2 1_555 1_555
C31_2 C30_2 1_555 1_555
C33_2 C32_2 1_555 1_555
C34_2 C33_2 1_555 1_555
H18_2 C34_2 1_555 1_555
C35_2 C31_2 1_555 1_555
C36_2 C35_2 1_555 1_555
N3_2 C31_2 1_555 1_555
N4_2 C29_2 1_555 1_555
O1_2 C36_2 1_555 1_555
O2_2 C36_2 1_555 1_555
O3_2 H25_2 1_555 1_555
H26_2 O3_2 1_555 1_555
O4_2 H27_2 1_555 1_555
H28_2 O4_2 1_555 1_555
O5_2 H29_2 1_555 1_555
H30_2 O5_2 1_555 1_555
O6_2 C1_2 1_555 1_555
O7_2 C1_2 1_555 1_555
O8_2 C25_2 1_555 1_555
O9_2 C25_2 1_555 1_555
O10_2 H31_2 1_555 1_555
H32_2 O10_2 1_555 1_555
O12_2 Eu1_2 1_555 1_555
O13_2 C12_2 1_555 1_555
O14_2 C12_2 1_555 1_555
Eu1_2 O9_2 1_555 1_555
Eu3_2 O3_2 1_555 1_555
H35_2 O12_2 1_555 1_555
H36_2 O12_2 1_555 1_555
Co2_2 N3_2 1_555 1_555
C10_2 C11_2 1_555 1_555
C30_2 N4_2 1_555 1_555
C32_2 N3_2 1_555 1_555
C34_2 C35_2 1_555 1_555
N4_2 Co2_2 1_555 1_555
O4_2 Eu3_2 1_555 1_555
O5_2 Eu3_2 1_555 1_555
O6_2 Eu3_2 1_555 1_555
O7_2 Eu3_2 1_555 1_555
O8_2 Eu3_2 1_555 1_555
O10_2 Eu1_2 1_555 1_555
O13_2 Eu1_2 1_555 1_555
O14_2 Eu1_2 1_555 1_555
O15_2 Eu1_2 1_555 1_555
C2_2 C3_2 1_555 1_555
C3_2 H1_2 1_555 1_555
C4_2 C3_2 1_555 1_555
H2_2 C4_2 1_555 1_555
C5_2 C4_2 1_555 1_555
H3_2 C5_2 1_555 1_555
C6_2 C2_2 1_555 1_555
C7_2 C6_2 1_555 1_555
N5_2 C7_2 1_555 1_555
N6_2 C5_2 1_555 1_555
Co2 N5_2 1_555 1_555
N11_2 Co2 1_555 1_555
N12_2 Co2 1_555 1_555
C6_2 N6_2 1_555 1_555
C8_2 N5_2 1_555 1_555
N6_2 Co2 1_555 1_555
C20_3 H10_3 1_555 1_555
C21_3 C20_3 1_555 1_555
H11_3 C21_3 1_555 1_555
C22_3 C21_3 1_555 1_555
H12_3 C22_3 1_555 1_555
C23_3 C19_3 1_555 1_555
N8_3 C19_3 1_555 1_555
O22_3 C37_3 1_555 1_555
C20_3 N8_3 1_555 1_555
C22_3 C23_3 1_555 1_555
N8_3 Co3_3 1_555 1_555
O22_3 Eu3_3 1_555 1_555
C1_3 C2_3 1_555 1_555
C2_3 C3_3 1_555 1_555
C3_3 H1_3 1_555 1_555
C4_3 C3_3 1_555 1_555
H2_3 C4_3 1_555 1_555
C5_3 C4_3 1_555 1_555
H3_3 C5_3 1_555 1_555
C6_3 C2_3 1_555 1_555
C7_3 C6_3 1_555 1_555
C8_3 H4_2 1_555 1_555
C9_2 C8_3 1_555 1_555
H5_2 C9_2 1_555 1_555
C10_3 C9_2 1_555 1_555
H6_3 C10_3 1_555 1_555
C11_3 C7_3 1_555 1_555
C12_3 C11_3 1_555 1_555
C13_3 C14_3 1_555 1_555
C14_3 C15_3 1_555 1_555
C15_3 H7_3 1_555 1_555
C16_3 C15_3 1_555 1_555
H8_2 C16_3 1_555 1_555
C17_3 C16_3 1_555 1_555
H9_3 C17_3 1_555 1_555
C18_3 C14_3 1_555 1_555
C25_3 C26_3 1_555 1_555
C26_3 C27_3 1_555 1_555
C27_3 H13_3 1_555 1_555
C28_3 C27_3 1_555 1_555
H14_3 C28_3 1_555 1_555
C29_3 C28_3 1_555 1_555
H15_3 C29_3 1_555 1_555
C30_3 C26_3 1_555 1_555
C31_3 C30_3 1_555 1_555
C32_3 H16_3 1_555 1_555
C33_3 C32_3 1_555 1_555
H17_3 C33_3 1_555 1_555
C34_3 C33_3 1_555 1_555
H18_3 C34_3 1_555 1_555
C35_3 C31_3 1_555 1_555
C36_3 C35_3 1_555 1_555
C38_3 C39_3 1_555 1_555
C39_3 H19_3 1_555 1_555
C40_3 C39_3 1_555 1_555
H20_3 C40_3 1_555 1_555
C41_3 C40_3 1_555 1_555
H21_3 C41_3 1_555 1_555
C42_3 C38_3 1_555 1_555
C43_3 C42_3 1_555 1_555
C45_2 C44_2 1_555 1_555
H23_2 C45_2 1_555 1_555
C46_2 C45_2 1_555 1_555
H24_2 C46_2 1_555 1_555
C47_3 C43_3 1_555 1_555
C48_3 C47_3 1_555 1_555
N1_3 C43_3 1_555 1_555
N2_3 C41_3 1_555 1_555
N3_3 C31_3 1_555 1_555
N4_3 C29_3 1_555 1_555
N5_3 C7_3 1_555 1_555
N6_3 C5_3 1_555 1_555
N7_3 C17_3 1_555 1_555
O1_3 C36_3 1_555 1_555
O2_3 C36_3 1_555 1_555
O3_3 H25_3 1_555 1_555
H26_3 O3_3 1_555 1_555
O4_3 H27_3 1_555 1_555
H28_3 O4_3 1_555 1_555
H30_3 O5_3 1_555 1_555
O6_3 C1_3 1_555 1_555
O7_3 C1_3 1_555 1_555
O8_3 C25_3 1_555 1_555
O9_3 C25_3 1_555 1_555
O10_3 H31_3 1_555 1_555
H32_3 O10_3 1_555 1_555
O11_3 H33_3 1_555 1_555
H34_3 O11_3 1_555 1_555
O12_3 Eu1_3 1_555 1_555
O13_3 C12_3 1_555 1_555
O14_3 C12_3 1_555 1_555
O15_3 C48_3 1_555 1_555
O16_3 C48_3 1_555 1_555
O17_3 C13_3 1_555 1_555
O18_3 C13_3 1_555 1_555
O19_3 C24_3 1_555 1_555
O20_3 C24_3 1_555 1_555
Co1_2 N5_3 1_555 1_555
Eu1_3 O9_3 1_555 1_555
Eu3_3 O3_3 1_555 1_555
H35_3 O12_3 1_555 1_555
H36_3 O12_3 1_555 1_555
N9_2 Co1_2 1_555 1_555
N10_2 Co1_2 1_555 1_555
N11_3 Co1_2 1_555 1_555
N12_3 Co1_2 1_555 1_555
Co2_3 N3_3 1_555 1_555
C6_3 N6_3 1_555 1_555
C8_3 N5_3 1_555 1_555
C10_3 C11_3 1_555 1_555
C18_3 N7_3 1_555 1_555
C30_3 N4_3 1_555 1_555
C32_3 N3_3 1_555 1_555
C34_3 C35_3 1_555 1_555
C42_3 N2_3 1_555 1_555
C44_2 N1_3 1_555 1_555
C46_2 C47_3 1_555 1_555
N4_3 Co2_3 1_555 1_555
N6_3 Co1_2 1_555 1_555
O4_3 Eu3_3 1_555 1_555
O5_3 Eu3_3 1_555 1_555
O6_3 Eu3_3 1_555 1_555
O7_3 Eu3_3 1_555 1_555
O8_3 Eu3_3 1_555 1_555
O10_3 Eu1_3 1_555 1_555
O11_3 Eu1_3 1_555 1_555
O13_3 Eu1_3 1_555 1_555
O14_3 Eu1_3 1_555 1_555
O15_3 Eu1_3 1_555 1_555
O16_3 Eu1_3 1_555 1_555
O17_3 Eu1_3 1_555 1_555
C13_4 C14_4 1_555 1_555
C14_4 C15_4 1_555 1_555
C18_4 C14_4 1_555 1_555
C19_4 C18_4 1_555 1_555
H11_4 C21_4 1_555 1_555
C22_4 C21_4 1_555 1_555
H12_4 C22_4 1_555 1_555
C23_4 C19_4 1_555 1_555
C24_4 C23_4 1_555 1_555
C37_4 C38_4 1_555 1_555
C38_4 C39_4 1_555 1_555
C39_4 H19_4 1_555 1_555
C40_4 C39_4 1_555 1_555
H20_4 C40_4 1_555 1_555
C41_4 C40_4 1_555 1_555
H21_4 C41_4 1_555 1_555
C42_4 C38_4 1_555 1_555
C43_4 C42_4 1_555 1_555
C44_3 H22_3 1_555 1_555
C45_3 C44_3 1_555 1_555
H23_3 C45_3 1_555 1_555
C46_3 C45_3 1_555 1_555
H24_3 C46_3 1_555 1_555
C47_4 C43_4 1_555 1_555
C48_4 C47_4 1_555 1_555
N1_4 C43_4 1_555 1_555
N2_4 C41_4 1_555 1_555
O11_4 H33_4 1_555 1_555
O16_4 C48_4 1_555 1_555
O17_4 C13_4 1_555 1_555
O18_4 C13_4 1_555 1_555
O19_4 C24_4 1_555 1_555
O20_4 C24_4 1_555 1_555
O21_4 C37_4 1_555 1_555
O22_4 C37_4 1_555 1_555
Eu3_4 O18_4 1_555 1_555
C22_4 C23_4 1_555 1_555
C42_4 N2_4 1_555 1_555
C44_3 N1_4 1_555 1_555
C46_3 C47_4 1_555 1_555
O21_4 Eu3_4 1_555 1_555
O22_4 Eu3_4 1_555 1_555
C1_4 C2_4 1_555 1_555
C2_4 C3_4 1_555 1_555
C3_4 H1_4 1_555 1_555
C4_4 C3_4 1_555 1_555
H2_4 C4_4 1_555 1_555
C5_4 C4_4 1_555 1_555
H3_4 C5_4 1_555 1_555
C6_4 C2_4 1_555 1_555
C7_4 C6_4 1_555 1_555
H6_4 C10_4 1_555 1_555
C11_4 C7_4 1_555 1_555
C12_4 C11_4 1_555 1_555
C25_4 C26_4 1_555 1_555
C26_4 C27_4 1_555 1_555
C27_4 H13_4 1_555 1_555
C28_4 C27_4 1_555 1_555
H14_4 C28_4 1_555 1_555
C29_4 C28_4 1_555 1_555
H15_4 C29_4 1_555 1_555
C30_4 C26_4 1_555 1_555
C31_4 C30_4 1_555 1_555
C33_4 C32_4 1_555 1_555
C34_4 C33_4 1_555 1_555
H18_4 C34_4 1_555 1_555
C35_4 C31_4 1_555 1_555
C36_4 C35_4 1_555 1_555
N3_4 C31_4 1_555 1_555
N4_4 C29_4 1_555 1_555
N5_4 C7_4 1_555 1_555
N6_4 C5_4 1_555 1_555
O1_4 C36_4 1_555 1_555
O2_4 C36_4 1_555 1_555
O3_4 H25_4 1_555 1_555
H26_4 O3_4 1_555 1_555
O4_4 H27_4 1_555 1_555
H28_4 O4_4 1_555 1_555
O5_4 H29_4 1_555 1_555
H30_4 O5_4 1_555 1_555
O6_4 C1_4 1_555 1_555
O7_4 C1_4 1_555 1_555
O8_4 C25_4 1_555 1_555
O9_4 C25_4 1_555 1_555
O10_4 H31_4 1_555 1_555
H32_4 O10_4 1_555 1_555
O12_4 Eu1_4 1_555 1_555
O13_4 C12_4 1_555 1_555
O14_4 C12_4 1_555 1_555
Co2_3 N5_4 1_555 1_555
Eu1_4 O9_4 1_555 1_555
Eu3_4 O3_4 1_555 1_555
H35_4 O12_4 1_555 1_555
H36_4 O12_4 1_555 1_555
N11_4 Co2_3 1_555 1_555
N12_4 Co2_3 1_555 1_555
Co2_4 N3_4 1_555 1_555
C6_4 N6_4 1_555 1_555
C8_4 N5_4 1_555 1_555
C10_4 C11_4 1_555 1_555
C30_4 N4_4 1_555 1_555
C32_4 N3_4 1_555 1_555
C34_4 C35_4 1_555 1_555
N4_4 Co2_4 1_555 1_555
N6_4 Co2_3 1_555 1_555
O4_4 Eu3_4 1_555 1_555
O5_4 Eu3_4 1_555 1_555
O6_4 Eu3_4 1_555 1_555
O7_4 Eu3_4 1_555 1_555
O8_4 Eu3_4 1_555 1_555
O10_4 Eu1_4 1_555 1_555
O13_4 Eu1_4 1_555 1_555
O14_4 Eu1_4 1_555 1_555
O15_4 Eu1_4 1_555 1_555
C17_4 C16_4 1_555 1_555
H9_4 C17_4 1_555 1_555
C20_4 H10_4 1_555 1_555
N7_4 C17_4 1_555 1_555
Co3_4 N7_4 1_555 1_555
C20_4 N8_4 1_555 1_555
N8_4 Co3_4 1_555 1_555
C13_5 C14_5 1_555 1_555
C14_5 C15_5 1_555 1_555
C15_5 H7_5 1_555 1_555
C16_5 C15_5 1_555 1_555
H8_3 C16_5 1_555 1_555
C17_5 C16_5 1_555 1_555
H9_5 C17_5 1_555 1_555
C18_5 C14_5 1_555 1_555
C19_5 C18_5 1_555 1_555
C20_5 H10_5 1_555 1_555
C21_5 C20_5 1_555 1_555
H11_5 C21_5 1_555 1_555
C22_5 C21_5 1_555 1_555
H12_5 C22_5 1_555 1_555
C23_5 C19_5 1_555 1_555
C24_5 C23_5 1_555 1_555
C32_5 H16_5 1_555 1_555
C33_5 C32_5 1_555 1_555
H17_5 C33_5 1_555 1_555
C34_5 C33_5 1_555 1_555
H18_5 C34_5 1_555 1_555
C35_5 C31_5 1_555 1_555
C37_5 C38_5 1_555 1_555
C38_5 C39_5 1_555 1_555
C39_5 H19_5 1_555 1_555
C40_5 C39_5 1_555 1_555
H20_5 C40_5 1_555 1_555
C41_5 C40_5 1_555 1_555
H21_5 C41_5 1_555 1_555
C42_5 C38_5 1_555 1_555
C43_5 C42_5 1_555 1_555
C44_4 H22_4 1_555 1_555
C45_4 C44_4 1_555 1_555
H23_4 C45_4 1_555 1_555
C46_4 C45_4 1_555 1_555
H24_4 C46_4 1_555 1_555
C47_5 C43_5 1_555 1_555
C48_5 C47_5 1_555 1_555
N1_5 C43_5 1_555 1_555
N2_5 C41_5 1_555 1_555
N3_5 C31_5 1_555 1_555
N7_5 C17_5 1_555 1_555
N8_5 C19_5 1_555 1_555
O10_5 H31_5 1_555 1_555
H32_5 O10_5 1_555 1_555
O11_5 H33_5 1_555 1_555
H34_5 O11_5 1_555 1_555
O12_5 Eu1_5 1_555 1_555
O13_5 C12_5 1_555 1_555
O15_5 C48_5 1_555 1_555
O16_5 C48_5 1_555 1_555
O17_5 C13_5 1_555 1_555
O18_5 C13_5 1_555 1_555
O19_5 C24_5 1_555 1_555
O20_5 C24_5 1_555 1_555
O21_5 C37_5 1_555 1_555
O22_5 C37_5 1_555 1_555
Eu1_5 O9_5 1_555 1_555
H35_5 O12_5 1_555 1_555
Co2_5 N3_5 1_555 1_555
Co3_5 N7_5 1_555 1_555
Eu3_5 O18_5 1_555 1_555
C18_5 N7_5 1_555 1_555
C20_5 N8_5 1_555 1_555
C22_5 C23_5 1_555 1_555
C32_5 N3_5 1_555 1_555
C34_5 C35_5 1_555 1_555
C42_5 N2_5 1_555 1_555
C44_4 N1_5 1_555 1_555
C46_4 C47_5 1_555 1_555
N8_5 Co3_5 1_555 1_555
O10_5 Eu1_5 1_555 1_555
O11_5 Eu1_5 1_555 1_555
O13_5 Eu1_5 1_555 1_555
O15_5 Eu1_5 1_555 1_555
O16_5 Eu1_5 1_555 1_555
O17_5 Eu1_5 1_555 1_555
O21_5 Eu3_5 1_555 1_555
O22_5 Eu3_5 1_555 1_555
C1_5 C2_5 1_555 1_555
C2_5 C3_5 1_555 1_555
C3_5 H1_5 1_555 1_555
C4_5 C3_5 1_555 1_555
H2_5 C4_5 1_555 1_555
C5_5 C4_5 1_555 1_555
H3_5 C5_5 1_555 1_555
C6_5 C2_5 1_555 1_555
C7_5 C6_5 1_555 1_555
C8_5 H4_3 1_555 1_555
C9_3 C8_5 1_555 1_555
H5_3 C9_3 1_555 1_555
C10_5 C9_3 1_555 1_555
H6_5 C10_5 1_555 1_555
C11_5 C7_5 1_555 1_555
C25_5 C26_5 1_555 1_555
C26_5 C27_5 1_555 1_555
C27_5 H13_5 1_555 1_555
C28_5 C27_5 1_555 1_555
H14_5 C28_5 1_555 1_555
C29_5 C28_5 1_555 1_555
H15_5 C29_5 1_555 1_555
C30_5 C26_5 1_555 1_555
N4_5 C29_5 1_555 1_555
N5_5 C7_5 1_555 1_555
N6_5 C5_5 1_555 1_555
O1_5 C36_5 1_555 1_555
O2_5 C36_5 1_555 1_555
O3_5 H25_5 1_555 1_555
H26_5 O3_5 1_555 1_555
O4_5 H27_5 1_555 1_555
H28_5 O4_5 1_555 1_555
O5_5 H29_5 1_555 1_555
H30_5 O5_5 1_555 1_555
O6_5 C1_5 1_555 1_555
O7_5 C1_5 1_555 1_555
O8_5 C25_5 1_555 1_555
Co2_4 N5_5 1_555 1_555
Eu3_5 O3_5 1_555 1_555
H36_5 O12_6 1_555 1_555
N12_5 Co2_4 1_555 1_555
C6_5 N6_5 1_555 1_555
C8_5 N5_5 1_555 1_555
C10_5 C11_5 1_555 1_555
C30_5 N4_5 1_555 1_555
N6_5 Co2_4 1_555 1_555
O4_5 Eu3_5 1_555 1_555
O5_5 Eu3_5 1_555 1_555
O6_5 Eu3_5 1_555 1_555
O7_5 Eu3_5 1_555 1_555
O8_5 Eu3_5 1_555 1_555
C1_6 C2_6 1_555 1_555
C2_6 C3_6 1_555 1_555
C3_6 H1_6 1_555 1_555
C4_6 C3_6 1_555 1_555
H2_6 C4_6 1_555 1_555
C5_6 C4_6 1_555 1_555
H3_6 C5_6 1_555 1_555
C6_6 C2_6 1_555 1_555
C7_6 C6_6 1_555 1_555
C8_6 H4_4 1_555 1_555
C9_4 C8_6 1_555 1_555
H5_4 C9_4 1_555 1_555
C10_6 C9_4 1_555 1_555
H6_6 C10_6 1_555 1_555
C11_6 C7_6 1_555 1_555
C12_6 C11_6 1_555 1_555
C13_6 C14_6 1_555 1_555
C14_6 C15_6 1_555 1_555
C15_6 H7_6 1_555 1_555
C16_6 C15_6 1_555 1_555
H8_4 C16_6 1_555 1_555
C17_6 C16_6 1_555 1_555
H9_6 C17_6 1_555 1_555
C18_6 C14_6 1_555 1_555
C19_6 C18_6 1_555 1_555
C21_6 C20_6 1_555 1_555
C22_6 C21_6 1_555 1_555
H12_6 C22_6 1_555 1_555
C23_6 C19_6 1_555 1_555
C24_6 C23_6 1_555 1_555
C25_6 C26_6 1_555 1_555
C26_6 C27_6 1_555 1_555
C28_6 C27_6 1_555 1_555
C29_6 C28_6 1_555 1_555
H15_6 C29_6 1_555 1_555
C30_6 C26_6 1_555 1_555
C31_6 C30_6 1_555 1_555
C32_6 H16_6 1_555 1_555
C33_6 C32_6 1_555 1_555
H17_6 C33_6 1_555 1_555
C34_6 C33_6 1_555 1_555
H18_6 C34_6 1_555 1_555
C35_6 C31_6 1_555 1_555
C36_6 C35_6 1_555 1_555
C37_6 C38_6 1_555 1_555
C38_6 C39_6 1_555 1_555
C39_6 H19_6 1_555 1_555
C40_6 C39_6 1_555 1_555
H20_6 C40_6 1_555 1_555
C41_6 C40_6 1_555 1_555
H21_6 C41_6 1_555 1_555
C42_6 C38_6 1_555 1_555
C43_6 C42_6 1_555 1_555
C44_5 H22_5 1_555 1_555
C45_5 C44_5 1_555 1_555
H23_5 C45_5 1_555 1_555
C46_5 C45_5 1_555 1_555
H24_5 C46_5 1_555 1_555
C47_6 C43_6 1_555 1_555
C48_6 C47_6 1_555 1_555
N1_6 C43_6 1_555 1_555
N2_6 C41_6 1_555 1_555
N9_2 C31_6 1_555 1_555
N10_2 C29_6 1_555 1_555
N5_6 C7_6 1_555 1_555
N6_6 C5_6 1_555 1_555
N7_6 C17_6 1_555 1_555
N8_6 C19_6 1_555 1_555
O1_6 C36_6 1_555 1_555
O2_6 C36_6 1_555 1_555
O4_6 H27_6 1_555 1_555
O7_6 C1_6 1_555 1_555
O8_6 C25_6 1_555 1_555
O9_6 C25_6 1_555 1_555
O10_6 H31_6 1_555 1_555
H32_6 O10_6 1_555 1_555
O11_6 H33_6 1_555 1_555
H34_6 O11_6 1_555 1_555
O12_7 Eu1_6 1_555 1_555
O13_6 C12_6 1_555 1_555
O14_6 C12_6 1_555 1_555
O15_6 C48_6 1_555 1_555
O16_6 C48_6 1_555 1_555
O17_6 C13_6 1_555 1_555
O18_6 C13_6 1_555 1_555
O19_6 C24_6 1_555 1_555
O20_6 C24_6 1_555 1_555
O21_6 C37_6 1_555 1_555
O22_6 C37_6 1_555 1_555
Co2_5 N5_6 1_555 1_555
Eu1_6 O9_6 1_555 1_555
H35_6 O12_7 1_555 1_555
H36_6 O12_7 1_555 1_555
N11_6 Co2_5 1_555 1_555
N12_6 Co2_5 1_555 1_555
Co3_6 N7_6 1_555 1_555
Eu3_6 O18_6 1_555 1_555
C6_6 N6_6 1_555 1_555
C8_6 N5_6 1_555 1_555
C10_6 C11_6 1_555 1_555
C18_6 N7_6 1_555 1_555
C20_6 N8_6 1_555 1_555
C22_6 C23_6 1_555 1_555
C30_6 N10_2 1_555 1_555
C32_6 N9_2 1_555 1_555
C34_6 C35_6 1_555 1_555
C42_6 N2_6 1_555 1_555
C44_5 N1_6 1_555 1_555
C46_5 C47_6 1_555 1_555
N6_6 Co2_5 1_555 1_555
N8_6 Co3_6 1_555 1_555
O10_6 Eu1_6 1_555 1_555
O11_6 Eu1_6 1_555 1_555
O13_6 Eu1_6 1_555 1_555
O14_6 Eu1_6 1_555 1_555
O15_6 Eu1_6 1_555 1_555
O16_6 Eu1_6 1_555 1_555
O17_6 Eu1_6 1_555 1_555
O21_6 Eu3_6 1_555 1_555
O22_6 Eu3_6 1_555 1_555
O3_6 H25_6 1_555 1_555
H26_6 O3_6 1_555 1_555
O5_6 H29_6 1_555 1_555
H30_6 O5_6 1_555 1_555
Eu3_6 O3_6 1_555 1_555
O5_6 Eu3_6 1_555 1_555
O6_6 Eu3_6 1_555 1_555
C13_7 C14_7 1_555 1_555
C14_7 C15_7 1_555 1_555
C15_7 H7_7 1_555 1_555
C16_7 C15_7 1_555 1_555
H8_5 C16_7 1_555 1_555
C17_7 C16_7 1_555 1_555
H9_7 C17_7 1_555 1_555
C18_7 C14_7 1_555 1_555
C19_7 C18_7 1_555 1_555
C20_7 H10_6 1_555 1_555
C21_7 C20_7 1_555 1_555
H11_6 C21_7 1_555 1_555
C22_7 C21_7 1_555 1_555
H12_7 C22_7 1_555 1_555
C23_7 C19_7 1_555 1_555
C24_7 C23_7 1_555 1_555
C32_7 H16_7 1_555 1_555
C33_7 C32_7 1_555 1_555
H17_7 C33_7 1_555 1_555
C34_7 C33_7 1_555 1_555
H18_7 C34_7 1_555 1_555
C35_7 C31_7 1_555 1_555
C37_7 C38_7 1_555 1_555
C38_7 C39_7 1_555 1_555
C39_7 H19_7 1_555 1_555
C40_7 C39_7 1_555 1_555
H20_7 C40_7 1_555 1_555
C41_7 C40_7 1_555 1_555
H21_7 C41_7 1_555 1_555
C42_7 C38_7 1_555 1_555
C43_7 C42_7 1_555 1_555
C44_6 H22_6 1_555 1_555
C45_6 C44_6 1_555 1_555
H23_6 C45_6 1_555 1_555
C46_6 C45_6 1_555 1_555
H24_6 C46_6 1_555 1_555
C47_7 C43_7 1_555 1_555
C48_7 C47_7 1_555 1_555
N1_7 C43_7 1_555 1_555
N2_7 C41_7 1_555 1_555
N3_6 C31_7 1_555 1_555
N7_7 C17_7 1_555 1_555
N8_7 C19_7 1_555 1_555
O10_7 H31_7 1_555 1_555
H32_7 O10_7 1_555 1_555
O11_7 H33_7 1_555 1_555
H34_7 O11_7 1_555 1_555
O12_8 Eu1_7 1_555 1_555
O13_7 C12_7 1_555 1_555
O15_7 C48_7 1_555 1_555
O16_7 C48_7 1_555 1_555
O17_7 C13_7 1_555 1_555
O18_7 C13_7 1_555 1_555
O19_7 C24_7 1_555 1_555
O20_7 C24_7 1_555 1_555
O21_7 C37_7 1_555 1_555
O22_7 C37_7 1_555 1_555
Eu1_7 O9_7 1_555 1_555
H35_7 O12_8 1_555 1_555
Co2_6 N3_6 1_555 1_555
Co3_7 N7_7 1_555 1_555
Eu3_7 O18_7 1_555 1_555
C18_7 N7_7 1_555 1_555
C20_7 N8_7 1_555 1_555
C22_7 C23_7 1_555 1_555
C32_7 N3_6 1_555 1_555
C34_7 C35_7 1_555 1_555
C42_7 N2_7 1_555 1_555
C44_6 N1_7 1_555 1_555
C46_6 C47_7 1_555 1_555
N8_7 Co3_7 1_555 1_555
O10_7 Eu1_7 1_555 1_555
O11_7 Eu1_7 1_555 1_555
O13_7 Eu1_7 1_555 1_555
O15_7 Eu1_7 1_555 1_555
O16_7 Eu1_7 1_555 1_555
O17_7 Eu1_7 1_555 1_555
O21_7 Eu3_7 1_555 1_555
O22_7 Eu3_7 1_555 1_555
C1_7 C2_7 1_555 1_555
C2_7 C3_7 1_555 1_555
C3_7 H1_7 1_555 1_555
C4_7 C3_7 1_555 1_555
H2_7 C4_7 1_555 1_555
C5_7 C4_7 1_555 1_555
H3_7 C5_7 1_555 1_555
C6_7 C2_7 1_555 1_555
C7_7 C6_7 1_555 1_555
C8_7 H4_5 1_555 1_555
C9_5 C8_7 1_555 1_555
H5_5 C9_5 1_555 1_555
C10_7 C9_5 1_555 1_555
H6_7 C10_7 1_555 1_555
C11_7 C7_7 1_555 1_555
C25_7 C26_7 1_555 1_555
C26_7 C27_7 1_555 1_555
C27_7 H13_7 1_555 1_555
C28_7 C27_7 1_555 1_555
H14_7 C28_7 1_555 1_555
C29_7 C28_7 1_555 1_555
H15_7 C29_7 1_555 1_555
C30_7 C26_7 1_555 1_555
N4_6 C29_7 1_555 1_555
N5_7 C7_7 1_555 1_555
N6_7 C5_7 1_555 1_555
O1_7 C36_7 1_555 1_555
O2_7 C36_7 1_555 1_555
O3_7 H25_7 1_555 1_555
H26_7 O3_7 1_555 1_555
O4_7 H27_7 1_555 1_555
H28_7 O4_7 1_555 1_555
O5_7 H29_7 1_555 1_555
H30_7 O5_7 1_555 1_555
O6_7 C1_7 1_555 1_555
O7_7 C1_7 1_555 1_555
O8_7 C25_7 1_555 1_555
Co2_2 N5_7 1_555 1_555
Eu3_7 O3_7 1_555 1_555
H36_7 O12_9 1_555 1_555
N12_7 Co2_2 1_555 1_555
C6_7 N6_7 1_555 1_555
C8_7 N5_7 1_555 1_555
C10_7 C11_7 1_555 1_555
C30_7 N4_6 1_555 1_555
N6_7 Co2_2 1_555 1_555
O4_7 Eu3_7 1_555 1_555
O5_7 Eu3_7 1_555 1_555
O6_7 Eu3_7 1_555 1_555
O7_7 Eu3_7 1_555 1_555
O8_7 Eu3_7 1_555 1_555
C2_8 C3_8 1_555 1_555
C3_8 H1_8 1_555 1_555
C4_8 C3_8 1_555 1_555
H2_8 C4_8 1_555 1_555
C5_8 C4_8 1_555 1_555
H3_8 C5_8 1_555 1_555
C6_8 C2_8 1_555 1_555
C7_8 C6_8 1_555 1_555
C8_8 H4_6 1_555 1_555
C9_6 C8_8 1_555 1_555
H5_6 C9_6 1_555 1_555
C44_7 H22_7 1_555 1_555
C45_7 C44_7 1_555 1_555
H23_7 C45_7 1_555 1_555
C46_7 C45_7 1_555 1_555
H24_7 C46_7 1_555 1_555
N5_8 C7_8 1_555 1_555
N6_8 C5_8 1_555 1_555
Co2_6 N5_8 1_555 1_555
N11_8 Co2_6 1_555 1_555
N12_8 Co2_6 1_555 1_555
C6_8 N6_8 1_555 1_555
C8_8 N5_8 1_555 1_555
N6_8 Co2_6 1_555 1_555
H6_8 C10_8 1_555 1_555
C12_8 C11_8 1_555 1_555
C13_8 C14_8 1_555 1_555
C14_8 C15_8 1_555 1_555
C15_8 H7_8 1_555 1_555
C16_8 C15_8 1_555 1_555
H8_6 C16_8 1_555 1_555
C17_8 C16_8 1_555 1_555
H9_8 C17_8 1_555 1_555
C18_8 C14_8 1_555 1_555
C19_8 C18_8 1_555 1_555
C21_8 C20_8 1_555 1_555
C22_8 C21_8 1_555 1_555
H12_8 C22_8 1_555 1_555
C23_8 C19_8 1_555 1_555
C24_8 C23_8 1_555 1_555
C25_8 C26_8 1_555 1_555
C26_8 C27_8 1_555 1_555
C28_8 C27_8 1_555 1_555
C29_8 C28_8 1_555 1_555
H15_8 C29_8 1_555 1_555
C30_8 C26_8 1_555 1_555
C31_8 C30_8 1_555 1_555
C32_8 H16_8 1_555 1_555
C33_8 C32_8 1_555 1_555
H17_8 C33_8 1_555 1_555
C34_8 C33_8 1_555 1_555
H18_8 C34_8 1_555 1_555
C35_8 C31_8 1_555 1_555
C36_8 C35_8 1_555 1_555
C37_8 C38_8 1_555 1_555
C38_8 C39_8 1_555 1_555
C39_8 H19_8 1_555 1_555
C40_8 C39_8 1_555 1_555
H20_8 C40_8 1_555 1_555
C41_8 C40_8 1_555 1_555
H21_8 C41_8 1_555 1_555
C42_8 C38_8 1_555 1_555
C43_8 C42_8 1_555 1_555
C47_8 C43_8 1_555 1_555
C48_8 C47_8 1_555 1_555
N1_8 C43_8 1_555 1_555
N2_8 C41_8 1_555 1_555
N9 C31_8 1_555 1_555
N10 C29_8 1_555 1_555
N7_8 C17_8 1_555 1_555
N8_8 C19_8 1_555 1_555
O1_8 C36_8 1_555 1_555
O2_8 C36_8 1_555 1_555
O4_8 H27_8 1_555 1_555
O7_8 C1_8 1_555 1_555
O8_8 C25_8 1_555 1_555
O9_8 C25_8 1_555 1_555
O10_8 H31_8 1_555 1_555
H32_8 O10_8 1_555 1_555
O11_8 H33_8 1_555 1_555
H34_8 O11_8 1_555 1_555
O12_10 Eu1_8 1_555 1_555
O13_8 C12_8 1_555 1_555
O14_8 C12_8 1_555 1_555
O15_8 C48_8 1_555 1_555
O16_8 C48_8 1_555 1_555
O17_8 C13_8 1_555 1_555
O18_8 C13_8 1_555 1_555
O19_8 C24_8 1_555 1_555
O20_8 C24_8 1_555 1_555
O21_8 C37_8 1_555 1_555
O22_8 C37_8 1_555 1_555
Eu1_8 O9_8 1_555 1_555
H35_8 O12_10 1_555 1_555
H36_8 O12_10 1_555 1_555
Co3_8 N7_8 1_555 1_555
Eu3_8 O18_8 1_555 1_555
C10_8 C11_8 1_555 1_555
C18_8 N7_8 1_555 1_555
C20_8 N8_8 1_555 1_555
C22_8 C23_8 1_555 1_555
C30_8 N10 1_555 1_555
C32_8 N9 1_555 1_555
C34_8 C35_8 1_555 1_555
C42_8 N2_8 1_555 1_555
N8_8 Co3_8 1_555 1_555
O10_8 Eu1_8 1_555 1_555
O11_8 Eu1_8 1_555 1_555
O13_8 Eu1_8 1_555 1_555
O14_8 Eu1_8 1_555 1_555
O15_8 Eu1_8 1_555 1_555
O16_8 Eu1_8 1_555 1_555
O17_8 Eu1_8 1_555 1_555
O21_8 Eu3_8 1_555 1_555
O22_8 Eu3_8 1_555 1_555
O3_8 H25_8 1_555 1_555
H26_8 O3_8 1_555 1_555
O5_8 H29_8 1_555 1_555
H30_8 O5_8 1_555 1_555
Eu3_8 O3_8 1_555 1_555
O5_8 Eu3_8 1_555 1_555
O6_8 Eu3_8 1_555 1_555
C1_9 C2_9 1_555 1_555
C2_9 C3_9 1_555 1_555
C3_9 H1_9 1_555 1_555
C4_9 C3_9 1_555 1_555
H2_9 C4_9 1_555 1_555
C5_9 C4_9 1_555 1_555
H3_9 C5_9 1_555 1_555
C6_9 C2_9 1_555 1_555
C7_9 C6_9 1_555 1_555
C8_9 H4_7 1_555 1_555
C9_7 C8_9 1_555 1_555
H5_8 C9_7 1_555 1_555
C10_9 C9_7 1_555 1_555
H6_9 C10_9 1_555 1_555
C11_9 C7_9 1_555 1_555
C12_9 C11_9 1_555 1_555
C13_9 C14_9 1_555 1_555
C14_9 C15_9 1_555 1_555
C15_9 H7_9 1_555 1_555
C16_9 C15_9 1_555 1_555
H8_7 C16_9 1_555 1_555
C17_9 C16_9 1_555 1_555
H9_9 C17_9 1_555 1_555
C18_9 C14_9 1_555 1_555
C25_9 C26_9 1_555 1_555
C26_9 C27_9 1_555 1_555
C27_9 H13_9 1_555 1_555
C28_9 C27_9 1_555 1_555
H14_9 C28_9 1_555 1_555
C29_9 C28_9 1_555 1_555
H15_9 C29_9 1_555 1_555
C30_9 C26_9 1_555 1_555
C31_9 C30_9 1_555 1_555
C32_9 H16_9 1_555 1_555
C33_9 C32_9 1_555 1_555
H17_9 C33_9 1_555 1_555
C34_9 C33_9 1_555 1_555
H18_9 C34_9 1_555 1_555
C35_9 C31_9 1_555 1_555
C36_9 C35_9 1_555 1_555
C38_9 C39_9 1_555 1_555
C39_9 H19_9 1_555 1_555
C40_9 C39_9 1_555 1_555
H20_9 C40_9 1_555 1_555
C41_9 C40_9 1_555 1_555
H21_9 C41_9 1_555 1_555
C42_9 C38_9 1_555 1_555
C43_9 C42_9 1_555 1_555
C45_8 C44_8 1_555 1_555
H23_8 C45_8 1_555 1_555
C46_8 C45_8 1_555 1_555
H24_8 C46_8 1_555 1_555
C47_9 C43_9 1_555 1_555
C48_9 C47_9 1_555 1_555
N1_9 C43_9 1_555 1_555
N2_9 C41_9 1_555 1_555
N3_7 C31_9 1_555 1_555
N4_7 C29_9 1_555 1_555
N5_9 C7_9 1_555 1_555
N6_9 C5_9 1_555 1_555
N11_5 C17_9 1_555 1_555
O1_9 C36_9 1_555 1_555
O2_9 C36_9 1_555 1_555
O3_9 H25_9 1_555 1_555
H26_9 O3_9 1_555 1_555
O4_9 H27_9 1_555 1_555
H28_9 O4_9 1_555 1_555
H30_9 O5_9 1_555 1_555
O6_9 C1_9 1_555 1_555
O7_9 C1_9 1_555 1_555
O8_9 C25_9 1_555 1_555
O9_9 C25_9 1_555 1_555
O10_9 H31_9 1_555 1_555
H32_9 O10_9 1_555 1_555
O11_9 H33_9 1_555 1_555
H34_9 O11_9 1_555 1_555
O12_11 Eu1_9 1_555 1_555
O13_9 C12_9 1_555 1_555
O14_9 C12_9 1_555 1_555
O15_9 C48_9 1_555 1_555
O16_9 C48_9 1_555 1_555
O17_9 C13_9 1_555 1_555
O23 C13_9 1_555 1_555
O19_9 C24_9 1_555 1_555
O20_9 C24_9 1_555 1_555
Co3_5 N5_9 1_555 1_555
Eu1_9 O9_9 1_555 1_555
Eu2 O3_9 1_555 1_555
H35_9 O12_11 1_555 1_555
H36_9 O12_11 1_555 1_555
N9_3 Co3_5 1_555 1_555
N10_3 Co3_5 1_555 1_555
O25 Eu2 1_555 1_555
Co3_2 N3_7 1_555 1_555
C6_9 N6_9 1_555 1_555
C8_9 N5_9 1_555 1_555
C10_9 C11_9 1_555 1_555
C18_9 N11_5 1_555 1_555
C30_9 N4_7 1_555 1_555
C32_9 N3_7 1_555 1_555
C34_9 C35_9 1_555 1_555
C42_9 N2_9 1_555 1_555
C44_8 N1_9 1_555 1_555
C46_8 C47_9 1_555 1_555
N4_7 Co3_2 1_555 1_555
N6_9 Co3_5 1_555 1_555
O4_9 Eu2 1_555 1_555
O5_9 Eu2 1_555 1_555
O6_9 Eu2 1_555 1_555
O7_9 Eu2 1_555 1_555
O8_9 Eu2 1_555 1_555
O10_9 Eu1_9 1_555 1_555
O11_9 Eu1_9 1_555 1_555
O13_9 Eu1_9 1_555 1_555
O14_9 Eu1_9 1_555 1_555
O15_9 Eu1_9 1_555 1_555
O16_9 Eu1_9 1_555 1_555
O17_9 Eu1_9 1_555 1_555
C20_9 H10_7 1_555 1_555
C21_9 C20_9 1_555 1_555
H11_7 C21_9 1_555 1_555
C22_9 C21_9 1_555 1_555
H12_9 C22_9 1_555 1_555
C23_9 C19_9 1_555 1_555
N12_5 C19_9 1_555 1_555
O25 C37_9 1_555 1_555
C20_9 N12_5 1_555 1_555
C22_9 C23_9 1_555 1_555
C2_10 C3_10 1_555 1_555
C3_10 H1_10 1_555 1_555
C4_10 C3_10 1_555 1_555
H2_10 C4_10 1_555 1_555
C5_10 C4_10 1_555 1_555
H3_10 C5_10 1_555 1_555
C6_10 C2_10 1_555 1_555
C7_10 C6_10 1_555 1_555
N5_10 C7_10 1_555 1_555
N6_10 C5_10 1_555 1_555
Co3_2 N5_10 1_555 1_555
C6_10 N6_10 1_555 1_555
C8_10 N5_10 1_555 1_555
N6_10 Co3_2 1_555 1_555
H6_10 C10_10 1_555 1_555
C12_10 C11_10 1_555 1_555
C25_10 C26_10 1_555 1_555
C26_10 C27_10 1_555 1_555
C27_10 H13_10 1_555 1_555
C28_10 C27_10 1_555 1_555
H14_10 C28_10 1_555 1_555
C29_10 C28_10 1_555 1_555
H15_10 C29_10 1_555 1_555
C30_10 C26_10 1_555 1_555
C31_10 C30_10 1_555 1_555
C33_10 C32_10 1_555 1_555
C34_10 C33_10 1_555 1_555
H18_10 C34_10 1_555 1_555
C35_10 C31_10 1_555 1_555
C36_10 C35_10 1_555 1_555
N3_8 C31_10 1_555 1_555
N4_8 C29_10 1_555 1_555
O1_10 C36_10 1_555 1_555
O2_10 C36_10 1_555 1_555
O3_10 H25_10 1_555 1_555
H26_10 O3_10 1_555 1_555
O4_10 H27_10 1_555 1_555
H28_10 O4_10 1_555 1_555
O5_10 H29_10 1_555 1_555
H30_10 O5_10 1_555 1_555
O6_10 C1_10 1_555 1_555
O7_10 C1_10 1_555 1_555
O8_10 C25_10 1_555 1_555
O9_10 C25_10 1_555 1_555
O10_10 H31_10 1_555 1_555
H32_10 O10_10 1_555 1_555
O12_12 Eu1_10 1_555 1_555
O13_10 C12_10 1_555 1_555
O14_10 C12_10 1_555 1_555
Eu1_10 O9_10 1_555 1_555
Eu2_2 O3_10 1_555 1_555
H35_10 O12_12 1_555 1_555
H36_10 O12_12 1_555 1_555
O23_2 Eu2_2 1_555 1_555
O24_2 Eu2_2 1_555 1_555
O25_2 Eu2_2 1_555 1_555
Co3_3 N3_8 1_555 1_555
C10_10 C11_10 1_555 1_555
C30_10 N4_8 1_555 1_555
C32_10 N3_8 1_555 1_555
C34_10 C35_10 1_555 1_555
N4_8 Co3_3 1_555 1_555
O4_10 Eu2_2 1_555 1_555
O5_10 Eu2_2 1_555 1_555
O6_10 Eu2_2 1_555 1_555
O7_10 Eu2_2 1_555 1_555
O8_10 Eu2_2 1_555 1_555
O10_10 Eu1_10 1_555 1_555
O13_10 Eu1_10 1_555 1_555
O14_10 Eu1_10 1_555 1_555
O15_10 Eu1_10 1_555 1_555
C13_10 C14_10 1_555 1_555
C14_10 C15_10 1_555 1_555
C18_10 C14_10 1_555 1_555
C19_10 C18_10 1_555 1_555
H11_8 C21_10 1_555 1_555
C22_10 C21_10 1_555 1_555
H12_10 C22_10 1_555 1_555
C23_10 C19_10 1_555 1_555
C24_10 C23_10 1_555 1_555
C37_10 C38_10 1_555 1_555
C38_10 C39_10 1_555 1_555
C39_10 H19_10 1_555 1_555
C40_10 C39_10 1_555 1_555
H20_10 C40_10 1_555 1_555
C41_10 C40_10 1_555 1_555
H21_10 C41_10 1_555 1_555
C42_10 C38_10 1_555 1_555
C43_10 C42_10 1_555 1_555
C47_10 C43_10 1_555 1_555
C48_10 C47_10 1_555 1_555
N1_10 C43_10 1_555 1_555
N2_10 C41_10 1_555 1_555
O11_10 H33_10 1_555 1_555
O16_10 C48_10 1_555 1_555
O17_10 C13_10 1_555 1_555
O23_2 C13_10 1_555 1_555
O19_10 C24_10 1_555 1_555
O20_10 C24_10 1_555 1_555
O24_2 C37_10 1_555 1_555
O25_2 C37_10 1_555 1_555
C22_10 C23_10 1_555 1_555
C42_10 N2_10 1_555 1_555
C17_10 C16_10 1_555 1_555
H9_10 C17_10 1_555 1_555
C20_10 H10_8 1_555 1_555
N11_2 C17_10 1_555 1_555
C20_10 N12_2 1_555 1_555
C1_11 C2_11 1_555 1_555
C2_11 C3_11 1_555 1_555
C3_11 H1_11 1_555 1_555
C4_11 C3_11 1_555 1_555
H2_11 C4_11 1_555 1_555
C5_11 C4_11 1_555 1_555
H3_11 C5_11 1_555 1_555
C6_11 C2_11 1_555 1_555
C7_11 C6_11 1_555 1_555
C8_11 H4_8 1_555 1_555
C9_8 C8_11 1_555 1_555
H5_9 C9_8 1_555 1_555
C10_11 C9_8 1_555 1_555
H6_11 C10_11 1_555 1_555
C11_11 C7_11 1_555 1_555
C12_11 C11_11 1_555 1_555
C13_11 C14_11 1_555 1_555
C14_11 C15_11 1_555 1_555
C15_11 H7_11 1_555 1_555
C16_11 C15_11 1_555 1_555
H8_8 C16_11 1_555 1_555
C17_11 C16_11 1_555 1_555
H9_11 C17_11 1_555 1_555
C18_11 C14_11 1_555 1_555
C25_11 C26_11 1_555 1_555
C26_11 C27_11 1_555 1_555
C27_11 H13_11 1_555 1_555
C28_11 C27_11 1_555 1_555
H14_11 C28_11 1_555 1_555
C29_11 C28_11 1_555 1_555
H15_11 C29_11 1_555 1_555
C30_11 C26_11 1_555 1_555
C31_11 C30_11 1_555 1_555
C32_11 H16_11 1_555 1_555
C33_11 C32_11 1_555 1_555
H17_11 C33_11 1_555 1_555
C34_11 C33_11 1_555 1_555
H18_11 C34_11 1_555 1_555
C35_11 C31_11 1_555 1_555
C36_11 C35_11 1_555 1_555
C38_11 C39_11 1_555 1_555
C39_11 H19_11 1_555 1_555
C40_11 C39_11 1_555 1_555
H20_11 C40_11 1_555 1_555
C41_11 C40_11 1_555 1_555
H21_11 C41_11 1_555 1_555
C42_11 C38_11 1_555 1_555
C43_11 C42_11 1_555 1_555
C45_9 C44_9 1_555 1_555
H23_9 C45_9 1_555 1_555
C46_9 C45_9 1_555 1_555
H24_9 C46_9 1_555 1_555
C47_11 C43_11 1_555 1_555
C48_11 C47_11 1_555 1_555
N1_11 C43_11 1_555 1_555
N2_11 C41_11 1_555 1_555
N3_9 C31_11 1_555 1_555
N4_9 C29_11 1_555 1_555
N5_11 C7_11 1_555 1_555
N6_11 C5_11 1_555 1_555
N11_7 C17_11 1_555 1_555
O1_11 C36_11 1_555 1_555
O2_11 C36_11 1_555 1_555
O3_11 H25_11 1_555 1_555
H26_11 O3_11 1_555 1_555
O4_11 H27_11 1_555 1_555
H28_11 O4_11 1_555 1_555
H30_11 O5_11 1_555 1_555
O6_11 C1_11 1_555 1_555
O7_11 C1_11 1_555 1_555
O8_11 C25_11 1_555 1_555
O9_11 C25_11 1_555 1_555
O10_11 H31_11 1_555 1_555
H32_11 O10_11 1_555 1_555
O11_11 H33_11 1_555 1_555
H34_11 O11_11 1_555 1_555
O12_13 Eu1_11 1_555 1_555
O13_11 C12_11 1_555 1_555
O14_11 C12_11 1_555 1_555
O15_11 C48_11 1_555 1_555
O16_11 C48_11 1_555 1_555
O17_11 C13_11 1_555 1_555
O23_3 C13_11 1_555 1_555
O19_11 C24_11 1_555 1_555
O20_11 C24_11 1_555 1_555
Co3_7 N5_11 1_555 1_555
Eu1_11 O9_11 1_555 1_555
Eu2_3 O3_11 1_555 1_555
H35_11 O12_13 1_555 1_555
H36_11 O12_13 1_555 1_555
N9_4 Co3_7 1_555 1_555
N10_4 Co3_7 1_555 1_555
O25_3 Eu2_3 1_555 1_555
Co3_4 N3_9 1_555 1_555
C6_11 N6_11 1_555 1_555
C8_11 N5_11 1_555 1_555
C10_11 C11_11 1_555 1_555
C18_11 N11_7 1_555 1_555
C30_11 N4_9 1_555 1_555
C32_11 N3_9 1_555 1_555
C34_11 C35_11 1_555 1_555
C42_11 N2_11 1_555 1_555
C44_9 N1_11 1_555 1_555
C46_9 C47_11 1_555 1_555
N4_9 Co3_4 1_555 1_555
N6_11 Co3_7 1_555 1_555
O4_11 Eu2_3 1_555 1_555
O5_11 Eu2_3 1_555 1_555
O6_11 Eu2_3 1_555 1_555
O7_11 Eu2_3 1_555 1_555
O8_11 Eu2_3 1_555 1_555
O10_11 Eu1_11 1_555 1_555
O11_11 Eu1_11 1_555 1_555
O13_11 Eu1_11 1_555 1_555
O14_11 Eu1_11 1_555 1_555
O15_11 Eu1_11 1_555 1_555
O16_11 Eu1_11 1_555 1_555
O17_11 Eu1_11 1_555 1_555
C20_11 H10_9 1_555 1_555
C21_11 C20_11 1_555 1_555
H11_9 C21_11 1_555 1_555
C22_11 C21_11 1_555 1_555
H12_11 C22_11 1_555 1_555
C23_11 C19_11 1_555 1_555
N12_7 C19_11 1_555 1_555
O25_3 C37_11 1_555 1_555
C20_11 N12_7 1_555 1_555
C22_11 C23_11 1_555 1_555
C17_12 C16_12 1_555 1_555
H9_12 C17_12 1_555 1_555
C20_12 H10_10 1_555 1_555
N11_4 C17_12 1_555 1_555
C20_12 N12_4 1_555 1_555
C1_12 C2_12 1_555 1_555
C2_12 C3_12 1_555 1_555
C3_12 H1_12 1_555 1_555
C4_12 C3_12 1_555 1_555
H2_12 C4_12 1_555 1_555
C5_12 C4_12 1_555 1_555
H3_12 C5_12 1_555 1_555
C6_12 C2_12 1_555 1_555
C7_12 C6_12 1_555 1_555
H6_12 C10_12 1_555 1_555
C11_12 C7_12 1_555 1_555
C12_12 C11_12 1_555 1_555
C25_12 C26_12 1_555 1_555
C26_12 C27_12 1_555 1_555
C27_12 H13_12 1_555 1_555
C28_12 C27_12 1_555 1_555
H14_12 C28_12 1_555 1_555
C29_12 C28_12 1_555 1_555
H15_12 C29_12 1_555 1_555
C30_12 C26_12 1_555 1_555
C31_12 C30_12 1_555 1_555
C33_12 C32_12 1_555 1_555
C34_12 C33_12 1_555 1_555
H18_12 C34_12 1_555 1_555
C35_12 C31_12 1_555 1_555
C36_12 C35_12 1_555 1_555
N3_10 C31_12 1_555 1_555
N4_10 C29_12 1_555 1_555
N5_12 C7_12 1_555 1_555
N6_12 C5_12 1_555 1_555
O1_12 C36_12 1_555 1_555
O2_12 C36_12 1_555 1_555
O3_12 H25_12 1_555 1_555
H26_12 O3_12 1_555 1_555
O4_12 H27_12 1_555 1_555
H28_12 O4_12 1_555 1_555
O5_12 H29_12 1_555 1_555
H30_12 O5_12 1_555 1_555
O6_12 C1_12 1_555 1_555
O7_12 C1_12 1_555 1_555
O8_12 C25_12 1_555 1_555
O9_12 C25_12 1_555 1_555
O10_12 H31_12 1_555 1_555
H32_12 O10_12 1_555 1_555
O12_14 Eu1_12 1_555 1_555
O13_12 C12_12 1_555 1_555
O14_12 C12_12 1_555 1_555
Co3_4 N5_12 1_555 1_555
Eu1_12 O9_12 1_555 1_555
Eu2_4 O3_12 1_555 1_555
H35_12 O12_14 1_555 1_555
H36_12 O12_14 1_555 1_555
O23_4 Eu2_4 1_555 1_555
O24_4 Eu2_4 1_555 1_555
O25_4 Eu2_4 1_555 1_555
Co3 N3_10 1_555 1_555
C6_12 N6_12 1_555 1_555
C8_12 N5_12 1_555 1_555
C10_12 C11_12 1_555 1_555
C30_12 N4_10 1_555 1_555
C32_12 N3_10 1_555 1_555
C34_12 C35_12 1_555 1_555
N4_10 Co3 1_555 1_555
N6_12 Co3_4 1_555 1_555
O4_12 Eu2_4 1_555 1_555
O5_12 Eu2_4 1_555 1_555
O6_12 Eu2_4 1_555 1_555
O7_12 Eu2_4 1_555 1_555
O8_12 Eu2_4 1_555 1_555
O10_12 Eu1_12 1_555 1_555
O13_12 Eu1_12 1_555 1_555
O14_12 Eu1_12 1_555 1_555
O15_12 Eu1_12 1_555 1_555
C13_12 C14_12 1_555 1_555
C14_12 C15_12 1_555 1_555
C18_12 C14_12 1_555 1_555
C19_12 C18_12 1_555 1_555
H11_10 C21_12 1_555 1_555
C22_12 C21_12 1_555 1_555
H12_12 C22_12 1_555 1_555
C23_12 C19_12 1_555 1_555
C24_12 C23_12 1_555 1_555
C37_12 C38_12 1_555 1_555
C38_12 C39_12 1_555 1_555
C39_12 H19_12 1_555 1_555
C40_12 C39_12 1_555 1_555
H20_12 C40_12 1_555 1_555
C41_12 C40_12 1_555 1_555
H21_12 C41_12 1_555 1_555
C42_12 C38_12 1_555 1_555
C43_12 C42_12 1_555 1_555
C44_10 H22_10 1_555 1_555
C45_10 C44_10 1_555 1_555
H23_10 C45_10 1_555 1_555
C46_10 C45_10 1_555 1_555
H24_10 C46_10 1_555 1_555
C47_12 C43_12 1_555 1_555
C48_12 C47_12 1_555 1_555
N1_12 C43_12 1_555 1_555
N2_12 C41_12 1_555 1_555
O11_12 H33_12 1_555 1_555
O16_12 C48_12 1_555 1_555
O17_12 C13_12 1_555 1_555
O23_4 C13_12 1_555 1_555
O19_12 C24_12 1_555 1_555
O20_12 C24_12 1_555 1_555
O24_4 C37_12 1_555 1_555
O25_4 C37_12 1_555 1_555
C22_12 C23_12 1_555 1_555
C42_12 N2_12 1_555 1_555
C44_10 N1_12 1_555 1_555
C46_10 C47_12 1_555 1_555
C1_13 C2_13 1_555 1_555
C2_13 C3_13 1_555 1_555
C3_13 H1_13 1_555 1_555
C4_13 C3_13 1_555 1_555
H2_13 C4_13 1_555 1_555
C5_13 C4_13 1_555 1_555
H3_13 C5_13 1_555 1_555
C6_13 C2_13 1_555 1_555
C7_13 C6_13 1_555 1_555
C8_13 H4_9 1_555 1_555
C9_9 C8_13 1_555 1_555
H5_10 C9_9 1_555 1_555
C10_13 C9_9 1_555 1_555
H6_13 C10_13 1_555 1_555
C11_13 C7_13 1_555 1_555
C25_13 C26_13 1_555 1_555
C26_13 C27_13 1_555 1_555
C27_13 H13_13 1_555 1_555
C28_13 C27_13 1_555 1_555
H14_13 C28_13 1_555 1_555
C29_13 C28_13 1_555 1_555
H15_13 C29_13 1_555 1_555
C30_13 C26_13 1_555 1_555
N4_11 C29_13 1_555 1_555
N5_13 C7_13 1_555 1_555
N6_13 C5_13 1_555 1_555
O1_13 C36_13 1_555 1_555
O2_13 C36_13 1_555 1_555
O3_13 H25_13 1_555 1_555
H26_13 O3_13 1_555 1_555
O4_13 H27_13 1_555 1_555
H28_13 O4_13 1_555 1_555
O5_13 H29_13 1_555 1_555
H30_13 O5_13 1_555 1_555
O6_13 C1_13 1_555 1_555
O7_13 C1_13 1_555 1_555
O8_13 C25_13 1_555 1_555
Co3 N5_13 1_555 1_555
Eu2_5 O3_13 1_555 1_555
H36_13 O12_15 1_555 1_555
O23_5 Eu2_5 1_555 1_555
O24_5 Eu2_5 1_555 1_555
O25_5 Eu2_5 1_555 1_555
C6_13 N6_13 1_555 1_555
C8_13 N5_13 1_555 1_555
C10_13 C11_13 1_555 1_555
C30_13 N4_11 1_555 1_555
N6_13 Co3 1_555 1_555
O4_13 Eu2_5 1_555 1_555
O5_13 Eu2_5 1_555 1_555
O6_13 Eu2_5 1_555 1_555
O7_13 Eu2_5 1_555 1_555
O8_13 Eu2_5 1_555 1_555
C13_13 C14_13 1_555 1_555
C14_13 C15_13 1_555 1_555
C15_13 H7_13 1_555 1_555
C16_13 C15_13 1_555 1_555
H8_9 C16_13 1_555 1_555
C17_13 C16_13 1_555 1_555
H9_13 C17_13 1_555 1_555
C18_13 C14_13 1_555 1_555
C19_13 C18_13 1_555 1_555
C20_13 H10_11 1_555 1_555
C21_13 C20_13 1_555 1_555
H11_11 C21_13 1_555 1_555
C22_13 C21_13 1_555 1_555
H12_13 C22_13 1_555 1_555
C23_13 C19_13 1_555 1_555
C24_13 C23_13 1_555 1_555
C32_13 H16_13 1_555 1_555
C33_13 C32_13 1_555 1_555
H17_13 C33_13 1_555 1_555
C34_13 C33_13 1_555 1_555
H18_13 C34_13 1_555 1_555
C35_13 C31_13 1_555 1_555
C37_13 C38_13 1_555 1_555
C38_13 C39_13 1_555 1_555
C39_13 H19_13 1_555 1_555
C40_13 C39_13 1_555 1_555
H20_13 C40_13 1_555 1_555
C41_13 C40_13 1_555 1_555
H21_13 C41_13 1_555 1_555
C42_13 C38_13 1_555 1_555
C43_13 C42_13 1_555 1_555
C44_11 H22_11 1_555 1_555
C45_11 C44_11 1_555 1_555
H23_11 C45_11 1_555 1_555
C46_11 C45_11 1_555 1_555
H24_11 C46_11 1_555 1_555
C47_13 C43_13 1_555 1_555
C48_13 C47_13 1_555 1_555
N1_13 C43_13 1_555 1_555
N2_13 C41_13 1_555 1_555
N3_11 C31_13 1_555 1_555
N11 C17_13 1_555 1_555
N12 C19_13 1_555 1_555
O10_13 H31_13 1_555 1_555
H32_13 O10_13 1_555 1_555
O11_13 H33_13 1_555 1_555
H34_13 O11_13 1_555 1_555
O12_16 Eu1_13 1_555 1_555
O13_13 C12_13 1_555 1_555
O15_13 C48_13 1_555 1_555
O16_13 C48_13 1_555 1_555
O17_13 C13_13 1_555 1_555
O23_5 C13_13 1_555 1_555
O19_13 C24_13 1_555 1_555
O20_13 C24_13 1_555 1_555
O24_5 C37_13 1_555 1_555
O25_5 C37_13 1_555 1_555
Eu1_13 O9_13 1_555 1_555
H35_13 O12_16 1_555 1_555
Co3_6 N3_11 1_555 1_555
C18_13 N11 1_555 1_555
C20_13 N12 1_555 1_555
C22_13 C23_13 1_555 1_555
C32_13 N3_11 1_555 1_555
C34_13 C35_13 1_555 1_555
C42_13 N2_13 1_555 1_555
C44_11 N1_13 1_555 1_555
C46_11 C47_13 1_555 1_555
O10_13 Eu1_13 1_555 1_555
O11_13 Eu1_13 1_555 1_555
O13_13 Eu1_13 1_555 1_555
O15_13 Eu1_13 1_555 1_555
O16_13 Eu1_13 1_555 1_555
O17_13 Eu1_13 1_555 1_555
O3_14 H25_14 1_555 1_555
H26_14 O3_14 1_555 1_555
O5_14 H29_14 1_555 1_555
H30_14 O5_14 1_555 1_555
Eu2_6 O3_14 1_555 1_555
O23_6 Eu2_6 1_555 1_555
O24_6 Eu2_6 1_555 1_555
O25_6 Eu2_6 1_555 1_555
O5_14 Eu2_6 1_555 1_555
O6_14 Eu2_6 1_555 1_555
C1_14 C2_14 1_555 1_555
C2_14 C3_14 1_555 1_555
C3_14 H1_14 1_555 1_555
C4_14 C3_14 1_555 1_555
H2_14 C4_14 1_555 1_555
C5_14 C4_14 1_555 1_555
H3_14 C5_14 1_555 1_555
C6_14 C2_14 1_555 1_555
C7_14 C6_14 1_555 1_555
C8_14 H4_10 1_555 1_555
C9_10 C8_14 1_555 1_555
H5_11 C9_10 1_555 1_555
C10_14 C9_10 1_555 1_555
H6_14 C10_14 1_555 1_555
C11_14 C7_14 1_555 1_555
C12_14 C11_14 1_555 1_555
C13_14 C14_14 1_555 1_555
C14_14 C15_14 1_555 1_555
C15_14 H7_14 1_555 1_555
C16_14 C15_14 1_555 1_555
H8_10 C16_14 1_555 1_555
C17_14 C16_14 1_555 1_555
H9_14 C17_14 1_555 1_555
C18_14 C14_14 1_555 1_555
C19_14 C18_14 1_555 1_555
C21_14 C20_14 1_555 1_555
C22_14 C21_14 1_555 1_555
H12_14 C22_14 1_555 1_555
C23_14 C19_14 1_555 1_555
C24_14 C23_14 1_555 1_555
C25_14 C26_14 1_555 1_555
C26_14 C27_14 1_555 1_555
C28_14 C27_14 1_555 1_555
C29_14 C28_14 1_555 1_555
H15_14 C29_14 1_555 1_555
C30_14 C26_14 1_555 1_555
C31_14 C30_14 1_555 1_555
C32_14 H16_14 1_555 1_555
C33_14 C32_14 1_555 1_555
H17_14 C33_14 1_555 1_555
C34_14 C33_14 1_555 1_555
H18_14 C34_14 1_555 1_555
C35_14 C31_14 1_555 1_555
C36_14 C35_14 1_555 1_555
C37_14 C38_14 1_555 1_555
C38_14 C39_14 1_555 1_555
C39_14 H19_14 1_555 1_555
C40_14 C39_14 1_555 1_555
H20_14 C40_14 1_555 1_555
C41_14 C40_14 1_555 1_555
H21_14 C41_14 1_555 1_555
C42_14 C38_14 1_555 1_555
C43_14 C42_14 1_555 1_555
C44_12 H22_12 1_555 1_555
C45_12 C44_12 1_555 1_555
H23_12 C45_12 1_555 1_555
C46_12 C45_12 1_555 1_555
H24_12 C46_12 1_555 1_555
C47_14 C43_14 1_555 1_555
C48_14 C47_14 1_555 1_555
N1_14 C43_14 1_555 1_555
N2_14 C41_14 1_555 1_555
N9_4 C31_14 1_555 1_555
N10_4 C29_14 1_555 1_555
N5_14 C7_14 1_555 1_555
N6_14 C5_14 1_555 1_555
N11_6 C17_14 1_555 1_555
N12_6 C19_14 1_555 1_555
O1_14 C36_14 1_555 1_555
O2_14 C36_14 1_555 1_555
O4_14 H27_14 1_555 1_555
O7_14 C1_14 1_555 1_555
O8_14 C25_14 1_555 1_555
O9_14 C25_14 1_555 1_555
O10_14 H31_14 1_555 1_555
H32_14 O10_14 1_555 1_555
O11_14 H33_14 1_555 1_555
H34_14 O11_14 1_555 1_555
O12_17 Eu1_14 1_555 1_555
O13_14 C12_14 1_555 1_555
O14_14 C12_14 1_555 1_555
O15_14 C48_14 1_555 1_555
O16_14 C48_14 1_555 1_555
O17_14 C13_14 1_555 1_555
O23_6 C13_14 1_555 1_555
O19_14 C24_14 1_555 1_555
O20_14 C24_14 1_555 1_555
O24_6 C37_14 1_555 1_555
O25_6 C37_14 1_555 1_555
Co3_6 N5_14 1_555 1_555
Eu1_14 O9_14 1_555 1_555
H35_14 O12_17 1_555 1_555
H36_14 O12_17 1_555 1_555
C6_14 N6_14 1_555 1_555
C8_14 N5_14 1_555 1_555
C10_14 C11_14 1_555 1_555
C18_14 N11_6 1_555 1_555
C20_14 N12_6 1_555 1_555
C22_14 C23_14 1_555 1_555
C30_14 N10_4 1_555 1_555
C32_14 N9_4 1_555 1_555
C34_14 C35_14 1_555 1_555
C42_14 N2_14 1_555 1_555
C44_12 N1_14 1_555 1_555
C46_12 C47_14 1_555 1_555
N6_14 Co3_6 1_555 1_555
O10_14 Eu1_14 1_555 1_555
O11_14 Eu1_14 1_555 1_555
O13_14 Eu1_14 1_555 1_555
O14_14 Eu1_14 1_555 1_555
O15_14 Eu1_14 1_555 1_555
O16_14 Eu1_14 1_555 1_555
O17_14 Eu1_14 1_555 1_555
C1_15 C2_15 1_555 1_555
C2_15 C3_15 1_555 1_555
C3_15 H1_15 1_555 1_555
C4_15 C3_15 1_555 1_555
H2_15 C4_15 1_555 1_555
C5_15 C4_15 1_555 1_555
H3_15 C5_15 1_555 1_555
C6_15 C2_15 1_555 1_555
C7_15 C6_15 1_555 1_555
C8_15 H4_11 1_555 1_555
C9_11 C8_15 1_555 1_555
H5_12 C9_11 1_555 1_555
C10_15 C9_11 1_555 1_555
H6_15 C10_15 1_555 1_555
C11_15 C7_15 1_555 1_555
C25_15 C26_15 1_555 1_555
C26_15 C27_15 1_555 1_555
C27_15 H13_15 1_555 1_555
C28_15 C27_15 1_555 1_555
H14_15 C28_15 1_555 1_555
C29_15 C28_15 1_555 1_555
H15_15 C29_15 1_555 1_555
C30_15 C26_15 1_555 1_555
N4_12 C29_15 1_555 1_555
N5_15 C7_15 1_555 1_555
N6_15 C5_15 1_555 1_555
O1_15 C36_15 1_555 1_555
O2_15 C36_15 1_555 1_555
O3_15 H25_15 1_555 1_555
H26_15 O3_15 1_555 1_555
O4_15 H27_15 1_555 1_555
H28_15 O4_15 1_555 1_555
O5_15 H29_15 1_555 1_555
H30_15 O5_15 1_555 1_555
O6_15 C1_15 1_555 1_555
O7_15 C1_15 1_555 1_555
O8_15 C25_15 1_555 1_555
Co3_3 N5_15 1_555 1_555
Eu2_7 O3_15 1_555 1_555
H36_15 O12_18 1_555 1_555
O23_7 Eu2_7 1_555 1_555
O24_7 Eu2_7 1_555 1_555
O25_7 Eu2_7 1_555 1_555
C6_15 N6_15 1_555 1_555
C8_15 N5_15 1_555 1_555
C10_15 C11_15 1_555 1_555
C30_15 N4_12 1_555 1_555
N6_15 Co3_3 1_555 1_555
O4_15 Eu2_7 1_555 1_555
O5_15 Eu2_7 1_555 1_555
O6_15 Eu2_7 1_555 1_555
O7_15 Eu2_7 1_555 1_555
O8_15 Eu2_7 1_555 1_555
C13_15 C14_15 1_555 1_555
C14_15 C15_15 1_555 1_555
C15_15 H7_15 1_555 1_555
C16_15 C15_15 1_555 1_555
H8_11 C16_15 1_555 1_555
C17_15 C16_15 1_555 1_555
H9_15 C17_15 1_555 1_555
C18_15 C14_15 1_555 1_555
C19_15 C18_15 1_555 1_555
C20_15 H10_12 1_555 1_555
C21_15 C20_15 1_555 1_555
H11_12 C21_15 1_555 1_555
C22_15 C21_15 1_555 1_555
H12_15 C22_15 1_555 1_555
C23_15 C19_15 1_555 1_555
C24_15 C23_15 1_555 1_555
C32_15 H16_15 1_555 1_555
C33_15 C32_15 1_555 1_555
H17_15 C33_15 1_555 1_555
C34_15 C33_15 1_555 1_555
H18_15 C34_15 1_555 1_555
C35_15 C31_15 1_555 1_555
C37_15 C38_15 1_555 1_555
C38_15 C39_15 1_555 1_555
C39_15 H19_15 1_555 1_555
C40_15 C39_15 1_555 1_555
H20_15 C40_15 1_555 1_555
C41_15 C40_15 1_555 1_555
H21_15 C41_15 1_555 1_555
C42_15 C38_15 1_555 1_555
C43_15 C42_15 1_555 1_555
C44_13 H22_13 1_555 1_555
C45_13 C44_13 1_555 1_555
H23_13 C45_13 1_555 1_555
C46_13 C45_13 1_555 1_555
H24_13 C46_13 1_555 1_555
C47_15 C43_15 1_555 1_555
C48_15 C47_15 1_555 1_555
N1_15 C43_15 1_555 1_555
N2_15 C41_15 1_555 1_555
N3_12 C31_15 1_555 1_555
N11_3 C17_15 1_555 1_555
N12_3 C19_15 1_555 1_555
O10_15 H31_15 1_555 1_555
H32_15 O10_15 1_555 1_555
O11_15 H33_15 1_555 1_555
H34_15 O11_15 1_555 1_555
O12_19 Eu1_15 1_555 1_555
O13_15 C12_15 1_555 1_555
O15_15 C48_15 1_555 1_555
O16_15 C48_15 1_555 1_555
O17_15 C13_15 1_555 1_555
O23_7 C13_15 1_555 1_555
O19_15 C24_15 1_555 1_555
O20_15 C24_15 1_555 1_555
O24_7 C37_15 1_555 1_555
O25_7 C37_15 1_555 1_555
Eu1_15 O9_15 1_555 1_555
H35_15 O12_19 1_555 1_555
Co3_8 N3_12 1_555 1_555
C18_15 N11_3 1_555 1_555
C20_15 N12_3 1_555 1_555
C22_15 C23_15 1_555 1_555
C32_15 N3_12 1_555 1_555
C34_15 C35_15 1_555 1_555
C42_15 N2_15 1_555 1_555
C44_13 N1_15 1_555 1_555
C46_13 C47_15 1_555 1_555
O10_15 Eu1_15 1_555 1_555
O11_15 Eu1_15 1_555 1_555
O13_15 Eu1_15 1_555 1_555
O15_15 Eu1_15 1_555 1_555
O16_15 Eu1_15 1_555 1_555
O17_15 Eu1_15 1_555 1_555
O3_16 H25_16 1_555 1_555
H26_16 O3_16 1_555 1_555
O5_16 H29_16 1_555 1_555
H30_16 O5_16 1_555 1_555
Eu2_8 O3_16 1_555 1_555
O23_8 Eu2_8 1_555 1_555
O24_8 Eu2_8 1_555 1_555
O25_8 Eu2_8 1_555 1_555
O5_16 Eu2_8 1_555 1_555
O6_16 Eu2_8 1_555 1_555
H6_16 C10_16 1_555 1_555
C12_16 C11_16 1_555 1_555
C13_16 C14_16 1_555 1_555
C14_16 C15_16 1_555 1_555
C15_16 H7_16 1_555 1_555
C16_16 C15_16 1_555 1_555
H8_12 C16_16 1_555 1_555
C17_16 C16_16 1_555 1_555
H9_16 C17_16 1_555 1_555
C18_16 C14_16 1_555 1_555
C19_16 C18_16 1_555 1_555
C21_16 C20_16 1_555 1_555
C22_16 C21_16 1_555 1_555
H12_16 C22_16 1_555 1_555
C23_16 C19_16 1_555 1_555
C24_16 C23_16 1_555 1_555
C25_16 C26_16 1_555 1_555
C26_16 C27_16 1_555 1_555
C28_16 C27_16 1_555 1_555
C29_16 C28_16 1_555 1_555
H15_16 C29_16 1_555 1_555
C30_16 C26_16 1_555 1_555
C31_16 C30_16 1_555 1_555
C32_16 H16_16 1_555 1_555
C33_16 C32_16 1_555 1_555
H17_16 C33_16 1_555 1_555
C34_16 C33_16 1_555 1_555
H18_16 C34_16 1_555 1_555
C35_16 C31_16 1_555 1_555
C36_16 C35_16 1_555 1_555
C37_16 C38_16 1_555 1_555
C38_16 C39_16 1_555 1_555
C39_16 H19_16 1_555 1_555
C40_16 C39_16 1_555 1_555
H20_16 C40_16 1_555 1_555
C41_16 C40_16 1_555 1_555
H21_16 C41_16 1_555 1_555
C42_16 C38_16 1_555 1_555
C43_16 C42_16 1_555 1_555
C47_16 C43_16 1_555 1_555
C48_16 C47_16 1_555 1_555
N1_16 C43_16 1_555 1_555
N2_16 C41_16 1_555 1_555
N9_3 C31_16 1_555 1_555
N10_3 C29_16 1_555 1_555
N11_8 C17_16 1_555 1_555
N12_8 C19_16 1_555 1_555
O1_16 C36_16 1_555 1_555
O2_16 C36_16 1_555 1_555
O4_16 H27_16 1_555 1_555
O7_16 C1_16 1_555 1_555
O8_16 C25_16 1_555 1_555
O9_16 C25_16 1_555 1_555
O10_16 H31_16 1_555 1_555
H32_16 O10_16 1_555 1_555
O11_16 H33_16 1_555 1_555
H34_16 O11_16 1_555 1_555
O12_20 Eu1_16 1_555 1_555
O13_16 C12_16 1_555 1_555
O14_16 C12_16 1_555 1_555
O15_16 C48_16 1_555 1_555
O16_16 C48_16 1_555 1_555
O17_16 C13_16 1_555 1_555
O23_8 C13_16 1_555 1_555
O19_16 C24_16 1_555 1_555
O20_16 C24_16 1_555 1_555
O24_8 C37_16 1_555 1_555
O25_8 C37_16 1_555 1_555
Eu1_16 O9_16 1_555 1_555
H35_16 O12_20 1_555 1_555
H36_16 O12_20 1_555 1_555
C10_16 C11_16 1_555 1_555
C18_16 N11_8 1_555 1_555
C20_16 N12_8 1_555 1_555
C22_16 C23_16 1_555 1_555
C30_16 N10_3 1_555 1_555
C32_16 N9_3 1_555 1_555
C34_16 C35_16 1_555 1_555
C42_16 N2_16 1_555 1_555
O10_16 Eu1_16 1_555 1_555
O11_16 Eu1_16 1_555 1_555
O13_16 Eu1_16 1_555 1_555
O14_16 Eu1_16 1_555 1_555
O15_16 Eu1_16 1_555 1_555
O16_16 Eu1_16 1_555 1_555
O17_16 Eu1_16 1_555 1_555
C2_16 C3_16 1_555 1_555
C3_16 H1_16 1_555 1_555
C4_16 C3_16 1_555 1_555
H2_16 C4_16 1_555 1_555
C5_16 C4_16 1_555 1_555
H3_16 C5_16 1_555 1_555
C6_16 C2_16 1_555 1_555
C7_16 C6_16 1_555 1_555
C8_16 H4_12 1_555 1_555
C9_12 C8_16 1_555 1_555
H5_14 C9_12 1_555 1_555
C44_14 H22_14 1_555 1_555
C45_14 C44_14 1_555 1_555
H23_14 C45_14 1_555 1_555
C46_14 C45_14 1_555 1_555
H24_14 C46_14 1_555 1_555
N5_16 C7_16 1_555 1_555
N6_16 C5_16 1_555 1_555
Co3_8 N5_16 1_555 1_555
C6_16 N6_16 1_555 1_555
C8_16 N5_16 1_555 1_555
N6_16 Co3_8 1_555 1_555
H5_16 C9_13 1_555 1_555
C44_15 H22_15 1_555 1_555
C45_15 C44_15 1_555 1_555
H23_15 C45_15 1_555 1_555
C46_15 C45_15 1_555 1_555
H24_15 C46_15 1_555 1_555
H5_17 C9_14 1_555 1_555
C44_16 H22_16 1_555 1_555
C45_16 C44_16 1_555 1_555
H23_16 C45_16 1_555 1_555
C46_16 C45_16 1_555 1_555
H24_16 C46_16 1_555 1_555
H5_18 C9_15 1_555 1_555
H5_20 C9_16 1_555 1_555

#END
