
###############################################################################
#
# This file contains modified crystal structure data generated from the
# MOF subset of the Cambridge Structural Database (CSD) v543 
# hosted by the Cambridge Crystallographic Data Centre (CCDC).
#
# This work is licensed under the Creative Commons
# Attribution-NonCommercial-ShareAlike 4.0 International License.
# To view a copy of this license, visit
# http://creativecommons.org/licenses/by-nc-sa/4.0/
# or send a letter to
# Creative Commons, PO Box 1866, Mountain View, CA 94042, USA.
#
# CIF created using the CSD Python API on 29 September 2022
# The structure has been converted into the P1 space group
# The structure has a 3D framework
# The original CSD entry MIFVAB is in the cubic crystal system
# The original CSD entry MIFVAB is in a Sohncke space group
# The framework has been calculated to contain at least 10.0% void space
# The void calculation uses a probe of radius 1.32A, grid spacing 0.4
# The framework is charged, counterions have been retained in the structure
#
###############################################################################

data_MIFVAB
_chemical_formula_moiety         '(C1728 H768 N384 O750 Zn80 156-)n'
_symmetry_cell_setting           triclinic
_symmetry_space_group_name_H-M   'P 1'
_symmetry_Int_Tables_number      1
_space_group_name_Hall           'P 1'
loop_
_symmetry_equiv_pos_site_id
_symmetry_equiv_pos_as_xyz
1 x,y,z
_cell_length_a                   45.1207(6)
_cell_length_b                   45.1207(6)
_cell_length_c                   45.1207(6)
_cell_angle_alpha                90
_cell_angle_beta                 90
_cell_angle_gamma                90
_cell_volume                     91860.2
loop_
_atom_site_label
_atom_site_type_symbol
_atom_site_fract_x
_atom_site_fract_y
_atom_site_fract_z
Zn1 Zn -0.0000 0.0000 0.23274(3)
Zn3 Zn 0.23274(3) 0.0000 0.0000
Zn10 Zn 0.01726(3) 0.2500 0.2500
O69 O 0.0034(3) 0.0353(3) 0.26026(19)
O70 O 0.26026(19) 0.0034(3) 0.0353(3)
Zn3_2 Zn 0.23274(3) 0.0000 1.0000
C66 C 0.10999(14) 0.01428(17) 0.87267(14)
H29 H 0.1241 0.0196 0.8873
C67 C 0.10124(16) 0.03483(13) 0.85146(16)
C68 C 0.08055(17) 0.02700(16) 0.83003(14)
H30 H 0.0746 0.0410 0.8155
C71 C 0.1139(3) 0.0643(3) 0.8523(3)
O31 O 0.1320(2) 0.06901(18) 0.8727(2)
O32 O 0.10384(19) 0.08384(18) 0.83306(19)
O33 O 0.0342(2) 0.0108(2) 0.79214(16)
Zn5 Zn 0.10282(4) 0.12620(4) 0.83898(4)
Zn15 Zn -0.0000 0.0000 0.76726(3)
Zn22 Zn 0.16102(4) 0.10282(4) 0.87380(4)
O51 O 0.06901(18) 0.1273(2) 0.8680(2)
O60 O 0.20786(16) 0.0342(2) 0.9892(2)
O61 O 0.2739(3) 0.0362(3) 0.9863(3)
O72 O 0.08271(17) 0.15160(19) 0.80816(18)
O75 O 0.13879(13) 0.13879(13) 0.86121(13)
Zn1_2 Zn -0.0000 1.0000 0.23274(3)
C21 C 0.01428(17) 0.87267(14) 0.10999(14)
H9 H 0.0196 0.8873 0.1241
C22 C 0.03483(13) 0.85146(16) 0.10124(16)
C23 C 0.02700(16) 0.83003(14) 0.08055(17)
H10 H 0.0410 0.8155 0.0746
C26 C 0.0643(3) 0.8523(3) 0.1139(3)
O10 O 0.06901(18) 0.8727(2) 0.1320(2)
O11 O 0.08384(18) 0.83306(19) 0.10384(19)
O12 O 0.0108(2) 0.79214(16) 0.0342(2)
Zn3_3 Zn 0.23274(3) 1.0000 0.0000
Zn4 Zn 0.12620(4) 0.83898(4) 0.10282(4)
C57 C 0.12733(14) 0.89001(14) 0.01428(17)
H25 H 0.1127 0.8759 0.0196
C58 C 0.14854(16) 0.89876(16) 0.03483(13)
C59 C 0.16997(14) 0.91945(17) 0.02700(16)
H26 H 0.1845 0.9254 0.0410
C62 C 0.1477(3) 0.8861(3) 0.0643(3)
O26 O 0.1273(2) 0.8680(2) 0.06901(18)
O27 O 0.16694(19) 0.89616(19) 0.08384(18)
O28 O 0.20786(16) 0.9658(2) 0.0108(2)
O30 O 0.13879(13) 0.86121(13) 0.13879(13)
Zn6 Zn 0.16102(4) 0.89718(4) 0.12620(4)
Zn12 Zn -0.0000 0.76726(3) 0.0000
Zn21 Zn 0.10282(4) 0.87380(4) 0.16102(4)
O52 O 0.1320(2) 0.93099(18) 0.1273(2)
O58 O 0.0342(2) 0.9892(2) 0.20786(16)
O62 O 0.0362(3) 0.9863(3) 0.2739(3)
O65 O 0.2739(3) 0.9638(3) 0.0137(3)
O71 O 0.15160(19) 0.80816(18) 0.08271(17)
O73 O 0.19184(18) 0.91729(17) 0.15160(19)
Zn3_4 Zn 0.23274(3) 1.0000 1.0000
C55 C 0.0939(2) 0.9067(3) 0.9420(3)
C56 C 0.12754(15) 0.90196(16) 0.98589(15)
C60 C 0.17019(14) 0.93140(15) 0.99860(18)
C61 C 0.14897(17) 0.92266(17) 0.97805(13)
H27 H 0.1491 0.9308 0.9586
C63 C 0.1918(2) 0.9540(3) 0.9889(3)
N13 N 0.10645(16) 0.9311(2) 0.9315(2)
N14 N 0.1046(2) 0.8939(2) 0.96648(18)
H28 H 0.0957 0.8772 0.9713
O29 O 0.19372(17) 0.9625(2) 0.9644(2)
C64 C 0.0933(3) 0.9420(3) 0.9061(2)
C65 C 0.09804(16) 0.98589(15) 0.87246(15)
C69 C 0.06860(15) 0.99860(18) 0.82981(14)
C70 C 0.07734(17) 0.97805(13) 0.85103(17)
H31 H 0.0692 0.9586 0.8509
C72 C 0.0460(3) 0.9889(3) 0.8082(2)
N15 N 0.0689(2) 0.9315(2) 0.89355(16)
N16 N 0.1061(2) 0.96648(18) 0.8954(2)
H32 H 0.1228 0.9713 0.9043
O34 O 0.0375(2) 0.9644(2) 0.80628(17)
C73 C 0.0580(3) 0.9061(2) 0.9067(3)
C74 C 0.01411(15) 0.87246(15) 0.90196(16)
C78 C 0.00140(18) 0.82981(14) 0.93140(15)
C79 C 0.02195(13) 0.85103(17) 0.92266(17)
H35 H 0.0414 0.8509 0.9308
C81 C 0.0111(3) 0.8082(2) 0.9540(3)
N17 N 0.0685(2) 0.89355(16) 0.9311(2)
N18 N 0.03352(18) 0.8954(2) 0.8939(2)
H36 H 0.0287 0.9043 0.8772
O38 O 0.0356(2) 0.80628(17) 0.9625(2)
Zn12_2 Zn -0.0000 0.76726(3) 1.0000
Zn15_2 Zn -0.0000 1.0000 0.76726(3)
O66 O 0.26026(19) 0.9966(3) 0.9647(3)
Zn1_3 Zn 1.0000 0.0000 0.23274(3)
Zn2 Zn 0.83898(4) 0.10282(4) 0.12620(4)
C3 C 0.89001(14) 0.01428(17) 0.12733(14)
H1 H 0.8759 0.0196 0.1127
C4 C 0.89876(16) 0.03483(13) 0.14854(16)
C5 C 0.91945(17) 0.02700(16) 0.16997(14)
H2 H 0.9254 0.0410 0.1845
C8 C 0.8861(3) 0.0643(3) 0.1477(3)
C10 C 0.6787(3) 0.1452(2) 0.1812(3)
C11 C 0.71319(15) 0.10365(15) 0.19069(18)
C12 C 0.71271(16) 0.07674(17) 0.20567(18)
H4 H 0.6966 0.0720 0.2183
C13 C 0.73586(19) 0.05672(13) 0.20211(18)
C14 C 0.75948(16) 0.06362(14) 0.18358(18)
H5 H 0.7753 0.0499 0.1812
C15 C 0.75996(14) 0.09054(15) 0.16860(16)
C16 C 0.73681(16) 0.11055(12) 0.17216(16)
H6 H 0.7371 0.1289 0.1619
C17 C 0.7367(4) 0.0287(4) 0.2194(4)
C18 C 0.7848(3) 0.0994(3) 0.1500(3)
N3 N 0.65603(19) 0.1584(2) 0.1949(2)
N4 N 0.6909(2) 0.1212(2) 0.1952(2)
H8 H 0.6810 0.1164 0.2113
O1 O 0.8680(2) 0.06901(18) 0.1273(2)
O2 O 0.89616(19) 0.08384(18) 0.16694(19)
O3 O 0.9658(2) 0.0108(2) 0.20786(16)
O5 O 0.7138(3) 0.0239(3) 0.2363(3)
O6 O 0.7534(3) 0.01026(19) 0.2147(3)
O7 O 0.80816(18) 0.08271(17) 0.15160(19)
O8 O 0.78540(18) 0.1231(2) 0.1347(2)
O9 O 0.86121(13) 0.13879(13) 0.13879(13)
C37 C 0.6452(2) 0.1812(3) 0.1787(3)
C38 C 0.60365(15) 0.19069(18) 0.21319(15)
C39 C 0.57674(17) 0.20567(18) 0.21271(16)
H17 H 0.5720 0.2183 0.1966
C40 C 0.55672(13) 0.20211(18) 0.23586(19)
C41 C 0.56362(14) 0.18358(18) 0.25948(16)
H18 H 0.5499 0.1812 0.2753
C42 C 0.59054(15) 0.16860(16) 0.25996(14)
C43 C 0.61055(12) 0.17216(16) 0.23681(16)
H19 H 0.6289 0.1619 0.2371
C44 C 0.5287(4) 0.2194(4) 0.2367(4)
C45 C 0.5994(3) 0.1500(3) 0.2848(3)
N9 N 0.6584(2) 0.1949(2) 0.15603(19)
N10 N 0.6212(2) 0.1952(2) 0.1909(2)
H20 H 0.6164 0.2113 0.1810
O18 O 0.5239(3) 0.2363(3) 0.2138(3)
O19 O 0.51026(19) 0.2147(3) 0.2534(3)
O20 O 0.58271(17) 0.15160(19) 0.30816(18)
O21 O 0.6231(2) 0.1347(2) 0.28540(18)
C46 C 0.6812(3) 0.1787(3) 0.1452(2)
C47 C 0.69069(18) 0.21319(15) 0.10365(15)
C48 C 0.70567(18) 0.21271(16) 0.07674(17)
H21 H 0.7183 0.1966 0.0720
C49 C 0.70211(18) 0.23586(19) 0.05672(13)
C50 C 0.68358(18) 0.25948(16) 0.06362(14)
H22 H 0.6812 0.2753 0.0499
C51 C 0.66860(16) 0.25996(14) 0.09054(15)
C52 C 0.67216(16) 0.23681(16) 0.11055(12)
H23 H 0.6619 0.2371 0.1289
C53 C 0.7194(4) 0.2367(4) 0.0287(4)
C54 C 0.6500(3) 0.2848(3) 0.0994(3)
N11 N 0.6949(2) 0.15603(19) 0.1584(2)
N12 N 0.6952(2) 0.1909(2) 0.1212(2)
H24 H 0.7113 0.1810 0.1164
O22 O 0.7363(3) 0.2138(3) 0.0239(3)
O23 O 0.7147(3) 0.2534(3) 0.01026(19)
O24 O 0.65160(19) 0.30816(18) 0.08271(17)
O25 O 0.6347(2) 0.28540(18) 0.1231(2)
Zn7 Zn 0.87380(4) 0.16102(4) 0.10282(4)
C82 C 0.8188(3) 0.3213(3) 0.1452(2)
C83 C 0.80931(18) 0.28681(15) 0.10365(15)
C84 C 0.79433(18) 0.28729(16) 0.07674(17)
H37 H 0.7817 0.3034 0.0720
C85 C 0.79789(18) 0.26414(19) 0.05672(13)
C86 C 0.81642(18) 0.24052(16) 0.06362(14)
H38 H 0.8188 0.2247 0.0499
C87 C 0.83140(16) 0.24004(14) 0.09054(15)
C88 C 0.82784(16) 0.26319(16) 0.11055(12)
H39 H 0.8381 0.2629 0.1289
C89 C 0.7806(4) 0.2633(4) 0.0287(4)
C90 C 0.8500(3) 0.2152(3) 0.0994(3)
N19 N 0.8051(2) 0.34397(19) 0.1584(2)
N20 N 0.8048(2) 0.3091(2) 0.1212(2)
H40 H 0.7887 0.3190 0.1164
O39 O 0.7637(3) 0.2862(3) 0.0239(3)
O40 O 0.7853(3) 0.2466(3) 0.01026(19)
O41 O 0.84840(19) 0.19184(18) 0.08271(17)
O42 O 0.8653(2) 0.21460(18) 0.1231(2)
C91 C 0.8213(3) 0.3548(2) 0.1812(3)
C92 C 0.78681(15) 0.39635(15) 0.19069(18)
C93 C 0.78729(16) 0.42326(17) 0.20567(18)
H41 H 0.8034 0.4280 0.2183
C94 C 0.76414(19) 0.44328(13) 0.20211(18)
C95 C 0.74052(16) 0.43638(14) 0.18358(18)
H42 H 0.7247 0.4501 0.1812
C96 C 0.74004(14) 0.40946(15) 0.16860(16)
C97 C 0.76319(16) 0.38945(12) 0.17216(16)
H43 H 0.7629 0.3711 0.1619
C98 C 0.7633(4) 0.4713(4) 0.2194(4)
C99 C 0.7152(3) 0.4006(3) 0.1500(3)
N21 N 0.84397(19) 0.3416(2) 0.1949(2)
N22 N 0.8091(2) 0.3788(2) 0.1952(2)
H44 H 0.8190 0.3836 0.2113
O43 O 0.7862(3) 0.4761(3) 0.2363(3)
O44 O 0.7466(3) 0.48974(19) 0.2147(3)
O45 O 0.69184(18) 0.41729(17) 0.15160(19)
O46 O 0.71460(18) 0.3769(2) 0.1347(2)
C100 C 0.8548(2) 0.3188(3) 0.1787(3)
C101 C 0.89635(15) 0.30931(18) 0.21319(15)
C102 C 0.92326(17) 0.29433(18) 0.21271(16)
H45 H 0.9280 0.2817 0.1966
C103 C 0.94328(13) 0.29789(18) 0.23586(19)
C104 C 0.93638(14) 0.31642(18) 0.25948(16)
H46 H 0.9501 0.3188 0.2753
C105 C 0.90946(15) 0.33140(16) 0.25996(14)
C106 C 0.88945(12) 0.32784(16) 0.23681(16)
H47 H 0.8711 0.3381 0.2371
C107 C 0.9713(4) 0.2806(4) 0.2367(4)
C108 C 0.9006(3) 0.3500(3) 0.2848(3)
N23 N 0.8416(2) 0.3051(2) 0.15603(19)
N24 N 0.8788(2) 0.3048(2) 0.1909(2)
H48 H 0.8836 0.2887 0.1810
O47 O 0.9761(3) 0.2637(3) 0.2138(3)
O48 O 0.98974(19) 0.2853(3) 0.2534(3)
O49 O 0.91729(17) 0.34840(19) 0.30816(18)
O50 O 0.8769(2) 0.3653(2) 0.28540(18)
Zn11 Zn 0.76726(3) 0.0000 0.0000
Zn14 Zn 0.48274(3) 0.2500 0.2500
Zn16 Zn 0.7500 0.51726(3) 0.2500
Zn17 Zn 0.89718(4) 0.37380(4) 0.33898(4)
Zn18 Zn 0.66102(4) 0.39718(4) 0.12620(4)
Zn20 Zn 0.60282(4) 0.12620(4) 0.33898(4)
Zn23 Zn 0.62620(4) 0.33898(4) 0.10282(4)
Zn25 Zn 0.89718(4) 0.12620(4) 0.16102(4)
O53 O 0.8727(2) 0.1320(2) 0.06901(18)
O54 O 0.83306(19) 0.10384(19) 0.08384(18)
O56 O 0.91616(18) 0.16694(19) 0.10384(19)
O63 O 0.7862(3) 0.0239(3) 0.2637(3)
O64 O 0.9638(3) 0.0137(3) 0.2739(3)
O68 O 0.7466(3) 0.01026(19) 0.2853(3)
Zn11_2 Zn 0.76726(3) 0.0000 1.0000
Zn13 Zn 0.7500 0.2500 0.98274(3)
Zn15_3 Zn 1.0000 0.0000 0.76726(3)
Zn1_4 Zn 1.0000 1.0000 0.23274(3)
C1 C 0.9067(3) 0.9420(3) 0.0939(2)
C2 C 0.90196(16) 0.98589(15) 0.12754(15)
C6 C 0.93140(15) 0.99860(18) 0.17019(14)
C7 C 0.92266(17) 0.97805(13) 0.14897(17)
H3 H 0.9308 0.9586 0.1491
C9 C 0.9540(3) 0.9889(3) 0.1918(2)
N1 N 0.9311(2) 0.9315(2) 0.10645(16)
N2 N 0.8939(2) 0.96648(18) 0.1046(2)
H7 H 0.8772 0.9713 0.0957
O4 O 0.9625(2) 0.9644(2) 0.19372(17)
C19 C 0.9420(3) 0.9061(2) 0.0933(3)
C20 C 0.98589(15) 0.87246(15) 0.09804(16)
C24 C 0.99860(18) 0.82981(14) 0.06860(15)
C25 C 0.97805(13) 0.85103(17) 0.07734(17)
H11 H 0.9586 0.8509 0.0692
C27 C 0.9889(3) 0.8082(2) 0.0460(3)
N5 N 0.9315(2) 0.89355(16) 0.0689(2)
N6 N 0.96648(18) 0.8954(2) 0.1061(2)
H12 H 0.9713 0.9043 0.1228
O13 O 0.9644(2) 0.80628(17) 0.0375(2)
C28 C 0.9061(2) 0.9067(3) 0.0580(3)
C29 C 0.87246(15) 0.90196(16) 0.01411(15)
C33 C 0.82981(14) 0.93140(15) 0.00140(18)
C34 C 0.85103(17) 0.92266(17) 0.02195(13)
H15 H 0.8509 0.9308 0.0414
C36 C 0.8082(2) 0.9540(3) 0.0111(3)
N7 N 0.89355(16) 0.9311(2) 0.0685(2)
N8 N 0.8954(2) 0.8939(2) 0.03352(18)
H16 H 0.9043 0.8772 0.0287
O17 O 0.80628(17) 0.9625(2) 0.0356(2)
Zn9 Zn 0.7500 0.98274(3) 0.2500
Zn11_3 Zn 0.76726(3) 1.0000 0.0000
Zn12_3 Zn 1.0000 0.76726(3) 0.0000
O57 O 0.7842(2) 0.95786(16) 0.2608(2)
O59 O 0.7158(2) 0.95786(16) 0.2392(2)
O67 O 0.9966(3) 0.9647(3) 0.26026(19)
C30 C 0.87267(14) 0.89001(14) 0.98572(17)
H13 H 0.8873 0.8759 0.9804
C31 C 0.85146(16) 0.89876(16) 0.96517(13)
C32 C 0.83003(14) 0.91945(17) 0.97300(16)
H14 H 0.8155 0.9254 0.9590
C35 C 0.8523(3) 0.8861(3) 0.9357(3)
O14 O 0.8727(2) 0.8680(2) 0.93099(18)
O15 O 0.83306(19) 0.89616(19) 0.91616(18)
O16 O 0.79214(16) 0.9658(2) 0.9892(2)
C75 C 0.98572(17) 0.87267(14) 0.89001(14)
H33 H 0.9804 0.8873 0.8759
C76 C 0.96517(13) 0.85146(16) 0.89876(16)
C77 C 0.97300(16) 0.83003(14) 0.91945(17)
H34 H 0.9590 0.8155 0.9254
C80 C 0.9357(3) 0.8523(3) 0.8861(3)
O35 O 0.93099(18) 0.8727(2) 0.8680(2)
O36 O 0.91616(18) 0.83306(19) 0.89616(19)
O37 O 0.9892(2) 0.79214(16) 0.9658(2)
Zn8 Zn 0.89718(4) 0.87380(4) 0.83898(4)
Zn11_4 Zn 0.76726(3) 1.0000 1.0000
Zn12_4 Zn 1.0000 0.76726(3) 1.0000
Zn15_4 Zn 1.0000 1.0000 0.76726(3)
Zn19 Zn 0.83898(4) 0.89718(4) 0.87380(4)
Zn24 Zn 0.87380(4) 0.83898(4) 0.89718(4)
O55 O 0.89616(19) 0.91616(18) 0.83306(19)
O74 O 0.91729(17) 0.84840(19) 0.80816(18)
O76 O 0.86121(13) 0.86121(13) 0.86121(13)
Zn1_5 Zn 0.0000 0.5000 0.73274(3)
Zn2_2 Zn 0.16102(4) 0.39718(4) 0.62620(4)
C1_2 C 0.0933(3) 0.5580(3) 0.5939(2)
C2_2 C 0.09804(16) 0.51411(15) 0.62754(15)
C3_2 C 0.10999(14) 0.48572(17) 0.62733(14)
H1_2 H 0.1241 0.4804 0.6127
C4_2 C 0.10124(16) 0.46517(13) 0.64854(16)
C5_2 C 0.08055(17) 0.47300(16) 0.66997(14)
H2_2 H 0.0746 0.4590 0.6845
C6_2 C 0.06860(15) 0.50140(18) 0.67019(14)
C7_2 C 0.07734(17) 0.52195(13) 0.64897(17)
H3_2 H 0.0692 0.5414 0.6491
C8_2 C 0.1139(3) 0.4357(3) 0.6477(3)
C9_2 C 0.0460(3) 0.5111(3) 0.6918(2)
C10_2 C 0.3213(3) 0.3548(2) 0.6812(3)
C11_2 C 0.28681(15) 0.39635(15) 0.69069(18)
C12_2 C 0.28729(16) 0.42326(17) 0.70567(18)
H4_2 H 0.3034 0.4280 0.7183
C13_2 C 0.26414(19) 0.44328(13) 0.70211(18)
C14_2 C 0.24052(16) 0.43638(14) 0.68358(18)
H5_2 H 0.2247 0.4501 0.6812
C15_2 C 0.24004(14) 0.40946(15) 0.66860(16)
C16_2 C 0.26319(16) 0.38945(12) 0.67216(16)
H6_2 H 0.2629 0.3711 0.6619
C17_2 C 0.2633(4) 0.4713(4) 0.7194(4)
C18_2 C 0.2152(3) 0.4006(3) 0.6500(3)
N1_2 N 0.0689(2) 0.5685(2) 0.60645(16)
N2_2 N 0.1061(2) 0.53352(18) 0.6046(2)
H7_2 H 0.1228 0.5287 0.5957
N3_2 N 0.34397(19) 0.3416(2) 0.6949(2)
N4_2 N 0.3091(2) 0.3788(2) 0.6952(2)
H8_2 H 0.3190 0.3836 0.7113
O1_2 O 0.1320(2) 0.43099(18) 0.6273(2)
O2_2 O 0.10384(19) 0.41616(18) 0.66694(19)
O3_2 O 0.0342(2) 0.4892(2) 0.70786(16)
O4_2 O 0.0375(2) 0.5356(2) 0.69372(17)
O5_2 O 0.2862(3) 0.4761(3) 0.7363(3)
O6_2 O 0.2466(3) 0.48974(19) 0.7147(3)
O7_2 O 0.19184(18) 0.41729(17) 0.65160(19)
O8_2 O 0.21460(18) 0.3769(2) 0.6347(2)
O9_2 O 0.13879(13) 0.36121(13) 0.63879(13)
C19_2 C 0.0580(3) 0.5939(2) 0.5933(3)
C20_2 C 0.01411(15) 0.62754(15) 0.59804(16)
C24_2 C 0.00140(18) 0.67019(14) 0.56860(15)
C25_2 C 0.02195(13) 0.64897(17) 0.57734(17)
H11_2 H 0.0414 0.6491 0.5692
C27_2 C 0.0111(3) 0.6918(2) 0.5460(3)
N5_2 N 0.0685(2) 0.60645(16) 0.5689(2)
N6_2 N 0.03352(18) 0.6046(2) 0.6061(2)
H12_2 H 0.0287 0.5957 0.6228
O13_2 O 0.0356(2) 0.69372(17) 0.5375(2)
C28_2 C 0.0939(2) 0.5933(3) 0.5580(3)
C29_2 C 0.12754(15) 0.59804(16) 0.51411(15)
C30_2 C 0.12733(14) 0.60999(14) 0.48572(17)
H13_2 H 0.1127 0.6241 0.4804
C31_2 C 0.14854(16) 0.60124(16) 0.46517(13)
C32_2 C 0.16997(14) 0.58055(17) 0.47300(16)
H14_2 H 0.1845 0.5746 0.4590
C33_2 C 0.17019(14) 0.56860(15) 0.50140(18)
C34_2 C 0.14897(17) 0.57734(17) 0.52195(13)
H15_2 H 0.1491 0.5692 0.5414
C35_2 C 0.1477(3) 0.6139(3) 0.4357(3)
C36_2 C 0.1918(2) 0.5460(3) 0.5111(3)
N7_2 N 0.10645(16) 0.5689(2) 0.5685(2)
N8_2 N 0.1046(2) 0.6061(2) 0.53352(18)
H16_2 H 0.0957 0.6228 0.5287
O14_2 O 0.1273(2) 0.6320(2) 0.43099(18)
O15_2 O 0.16694(19) 0.60384(19) 0.41616(18)
O16_2 O 0.20786(16) 0.5342(2) 0.4892(2)
O17_2 O 0.19372(17) 0.5375(2) 0.5356(2)
C37_2 C 0.3548(2) 0.3188(3) 0.6787(3)
C38_2 C 0.39635(15) 0.30931(18) 0.71319(15)
C39_2 C 0.42326(17) 0.29433(18) 0.71271(16)
H17_2 H 0.4280 0.2817 0.6966
C40_2 C 0.44328(13) 0.29789(18) 0.73586(19)
C41_2 C 0.43638(14) 0.31642(18) 0.75948(16)
H18_2 H 0.4501 0.3188 0.7753
C42_2 C 0.40946(15) 0.33140(16) 0.75996(14)
C43_2 C 0.38945(12) 0.32784(16) 0.73681(16)
H19_2 H 0.3711 0.3381 0.7371
C44_2 C 0.4713(4) 0.2806(4) 0.7367(4)
C45_2 C 0.4006(3) 0.3500(3) 0.7848(3)
N9_2 N 0.3416(2) 0.3051(2) 0.65603(19)
N10_2 N 0.3788(2) 0.3048(2) 0.6909(2)
H20_2 H 0.3836 0.2887 0.6810
O18_2 O 0.4761(3) 0.2637(3) 0.7138(3)
O19_2 O 0.48974(19) 0.2853(3) 0.7534(3)
O20_2 O 0.41729(17) 0.34840(19) 0.80816(18)
O21_2 O 0.3769(2) 0.3653(2) 0.78540(18)
C46_2 C 0.3188(3) 0.3213(3) 0.6452(2)
C47_2 C 0.30931(18) 0.28681(15) 0.60365(15)
C48_2 C 0.29433(18) 0.28729(16) 0.57674(17)
H21_2 H 0.2817 0.3034 0.5720
C49_2 C 0.29789(18) 0.26414(19) 0.55672(13)
C50_2 C 0.31642(18) 0.24052(16) 0.56362(14)
H22_2 H 0.3188 0.2247 0.5499
C51_2 C 0.33140(16) 0.24004(14) 0.59054(15)
C52_2 C 0.32784(16) 0.26319(16) 0.61055(12)
H23_2 H 0.3381 0.2629 0.6289
C53_2 C 0.2806(4) 0.2633(4) 0.5287(4)
C54_2 C 0.3500(3) 0.2152(3) 0.5994(3)
N11_2 N 0.3051(2) 0.34397(19) 0.6584(2)
N12_2 N 0.3048(2) 0.3091(2) 0.6212(2)
H24_2 H 0.2887 0.3190 0.6164
O22_2 O 0.2637(3) 0.2862(3) 0.5239(3)
O23_2 O 0.2853(3) 0.2466(3) 0.51026(19)
O24_2 O 0.34840(19) 0.19184(18) 0.58271(17)
O25_2 O 0.3653(2) 0.21460(18) 0.6231(2)
C75_2 C 0.01428(17) 0.62733(14) 0.39001(14)
H33_2 H 0.0196 0.6127 0.3759
C76_2 C 0.03483(13) 0.64854(16) 0.39876(16)
C77_2 C 0.02700(16) 0.66997(14) 0.41945(17)
H34_2 H 0.0410 0.6845 0.4254
C80_2 C 0.0643(3) 0.6477(3) 0.3861(3)
O35_2 O 0.06901(18) 0.6273(2) 0.3680(2)
O36_2 O 0.08384(18) 0.66694(19) 0.39616(19)
O37_2 O 0.0108(2) 0.70786(16) 0.4658(2)
Zn7_2 Zn 0.12620(4) 0.33898(4) 0.60282(4)
C82_2 C 0.1812(3) 0.1787(3) 0.6452(2)
C83_2 C 0.19069(18) 0.21319(15) 0.60365(15)
C84_2 C 0.20567(18) 0.21271(16) 0.57674(17)
H37_2 H 0.2183 0.1966 0.5720
C85_2 C 0.20211(18) 0.23586(19) 0.55672(13)
C86_2 C 0.18358(18) 0.25948(16) 0.56362(14)
H38_2 H 0.1812 0.2753 0.5499
C87_2 C 0.16860(16) 0.25996(14) 0.59054(15)
C88_2 C 0.17216(16) 0.23681(16) 0.61055(12)
H39_2 H 0.1619 0.2371 0.6289
C89_2 C 0.2194(4) 0.2367(4) 0.5287(4)
C90_2 C 0.1500(3) 0.2848(3) 0.5994(3)
N19_2 N 0.1949(2) 0.15603(19) 0.6584(2)
N20_2 N 0.1952(2) 0.1909(2) 0.6212(2)
H40_2 H 0.2113 0.1810 0.6164
O39_2 O 0.2363(3) 0.2138(3) 0.5239(3)
O40_2 O 0.2147(3) 0.2534(3) 0.51026(19)
O41_2 O 0.15160(19) 0.30816(18) 0.58271(17)
O42_2 O 0.1347(2) 0.28540(18) 0.6231(2)
C91_2 C 0.1787(3) 0.1452(2) 0.6812(3)
C92_2 C 0.21319(15) 0.10365(15) 0.69069(18)
C93_2 C 0.21271(16) 0.07674(17) 0.70567(18)
H41_2 H 0.1966 0.0720 0.7183
C94_2 C 0.23586(19) 0.05672(13) 0.70211(18)
C95_2 C 0.25948(16) 0.06362(14) 0.68358(18)
H42_2 H 0.2753 0.0499 0.6812
C96_2 C 0.25996(14) 0.09054(15) 0.66860(16)
C97_2 C 0.23681(16) 0.11055(12) 0.67216(16)
H43_2 H 0.2371 0.1289 0.6619
C98_2 C 0.2367(4) 0.0287(4) 0.7194(4)
C99_2 C 0.2848(3) 0.0994(3) 0.6500(3)
N21_2 N 0.15603(19) 0.1584(2) 0.6949(2)
N22_2 N 0.1909(2) 0.1212(2) 0.6952(2)
H44_2 H 0.1810 0.1164 0.7113
O43_2 O 0.2138(3) 0.0239(3) 0.7363(3)
O44_2 O 0.2534(3) 0.01026(19) 0.7147(3)
O45_2 O 0.30816(18) 0.08271(17) 0.65160(19)
O46_2 O 0.28540(18) 0.1231(2) 0.6347(2)
C100_2 C 0.1452(2) 0.1812(3) 0.6787(3)
C101_2 C 0.10365(15) 0.19069(18) 0.71319(15)
C102_2 C 0.07674(17) 0.20567(18) 0.71271(16)
H45_2 H 0.0720 0.2183 0.6966
C103_2 C 0.05672(13) 0.20211(18) 0.73586(19)
C104_2 C 0.06362(14) 0.18358(18) 0.75948(16)
H46_2 H 0.0499 0.1812 0.7753
C105_2 C 0.09054(15) 0.16860(16) 0.75996(14)
C106_2 C 0.11055(12) 0.17216(16) 0.73681(16)
H47_2 H 0.1289 0.1619 0.7371
C107_2 C 0.0287(4) 0.2194(4) 0.7367(4)
C108_2 C 0.0994(3) 0.1500(3) 0.7848(3)
N23_2 N 0.1584(2) 0.1949(2) 0.65603(19)
N24_2 N 0.1212(2) 0.1952(2) 0.6909(2)
H48_2 H 0.1164 0.2113 0.6810
O47_2 O 0.0239(3) 0.2363(3) 0.7138(3)
O48_2 O 0.01026(19) 0.2147(3) 0.7534(3)
O50_2 O 0.1231(2) 0.1347(2) 0.78540(18)
Zn8_2 Zn 0.10282(4) 0.62620(4) 0.33898(4)
Zn9_2 Zn 0.2500 0.51726(3) 0.7500
Zn11_5 Zn 0.23274(3) 0.5000 0.5000
Zn12_5 Zn 0.0000 0.73274(3) 0.5000
Zn13_2 Zn 0.2500 0.2500 0.48274(3)
Zn14_2 Zn 0.51726(3) 0.2500 0.7500
Zn15_5 Zn 0.0000 0.5000 0.26726(3)
Zn18_2 Zn 0.33898(4) 0.10282(4) 0.62620(4)
Zn19_2 Zn 0.16102(4) 0.60282(4) 0.37380(4)
Zn20_2 Zn 0.39718(4) 0.37380(4) 0.83898(4)
Zn23_2 Zn 0.37380(4) 0.16102(4) 0.60282(4)
Zn24_2 Zn 0.12620(4) 0.66102(4) 0.39718(4)
Zn25_2 Zn 0.10282(4) 0.37380(4) 0.66102(4)
O53_2 O 0.1273(2) 0.3680(2) 0.56901(18)
O54_2 O 0.16694(19) 0.39616(19) 0.58384(18)
O55_2 O 0.10384(19) 0.58384(18) 0.33306(19)
O56_2 O 0.08384(18) 0.33306(19) 0.60384(19)
O57_2 O 0.2158(2) 0.54214(16) 0.7608(2)
O59_2 O 0.2842(2) 0.54214(16) 0.7392(2)
O63_2 O 0.2138(3) 0.4761(3) 0.7637(3)
O64_2 O 0.0362(3) 0.4863(3) 0.7739(3)
O67_2 O 0.0034(3) 0.5353(3) 0.76026(19)
O68_2 O 0.2534(3) 0.48974(19) 0.7853(3)
O74_2 O 0.08271(17) 0.65160(19) 0.30816(18)
O76_2 O 0.13879(13) 0.63879(13) 0.36121(13)
Zn16_2 Zn 0.2500 0.98274(3) 0.7500
Zn1_6 Zn 1.0000 0.5000 0.73274(3)
C21_2 C 0.98572(17) 0.62733(14) 0.60999(14)
H9_2 H 0.9804 0.6127 0.6241
C22_2 C 0.96517(13) 0.64854(16) 0.60124(16)
C23_2 C 0.97300(16) 0.66997(14) 0.58055(17)
H10_2 H 0.9590 0.6845 0.5746
C26_2 C 0.9357(3) 0.6477(3) 0.6139(3)
O10_2 O 0.93099(18) 0.6273(2) 0.6320(2)
O11_2 O 0.91616(18) 0.66694(19) 0.60384(19)
O12_2 O 0.9892(2) 0.70786(16) 0.5342(2)
Zn3_5 Zn 0.76726(3) 0.5000 0.5000
Zn4_2 Zn 0.87380(4) 0.66102(4) 0.60282(4)
C55_2 C 0.9061(2) 0.5933(3) 0.4420(3)
C56_2 C 0.87246(15) 0.59804(16) 0.48589(15)
C57_2 C 0.87267(14) 0.60999(14) 0.51428(17)
H25_2 H 0.8873 0.6241 0.5196
C58_2 C 0.85146(16) 0.60124(16) 0.53483(13)
C59_2 C 0.83003(14) 0.58055(17) 0.52700(16)
H26_2 H 0.8155 0.5746 0.5410
C60_2 C 0.82981(14) 0.56860(15) 0.49860(18)
C61_2 C 0.85103(17) 0.57734(17) 0.47805(13)
H27_2 H 0.8509 0.5692 0.4586
C62_2 C 0.8523(3) 0.6139(3) 0.5643(3)
C63_2 C 0.8082(2) 0.5460(3) 0.4889(3)
N13_2 N 0.89355(16) 0.5689(2) 0.4315(2)
N14_2 N 0.8954(2) 0.6061(2) 0.46648(18)
H28_2 H 0.9043 0.6228 0.4713
O26_2 O 0.8727(2) 0.6320(2) 0.56901(18)
O27_2 O 0.83306(19) 0.60384(19) 0.58384(18)
O28_2 O 0.79214(16) 0.5342(2) 0.5108(2)
O29_2 O 0.80628(17) 0.5375(2) 0.4644(2)
O30_2 O 0.86121(13) 0.63879(13) 0.63879(13)
C64_2 C 0.9067(3) 0.5580(3) 0.4061(2)
C65_2 C 0.90196(16) 0.51411(15) 0.37246(15)
C66_2 C 0.89001(14) 0.48572(17) 0.37267(14)
H29_2 H 0.8759 0.4804 0.3873
C67_2 C 0.89876(16) 0.46517(13) 0.35146(16)
C68_2 C 0.91945(17) 0.47300(16) 0.33003(14)
H30_2 H 0.9254 0.4590 0.3155
C69_2 C 0.93140(15) 0.50140(18) 0.32981(14)
C70_2 C 0.92266(17) 0.52195(13) 0.35103(17)
H31_2 H 0.9308 0.5414 0.3509
C71_2 C 0.8861(3) 0.4357(3) 0.3523(3)
C72_2 C 0.9540(3) 0.5111(3) 0.3082(2)
N15_2 N 0.9311(2) 0.5685(2) 0.39355(16)
N16_2 N 0.8939(2) 0.53352(18) 0.3954(2)
H32_2 H 0.8772 0.5287 0.4043
O31_2 O 0.8680(2) 0.43099(18) 0.3727(2)
O32_2 O 0.89616(19) 0.41616(18) 0.33306(19)
O33_2 O 0.9658(2) 0.4892(2) 0.29214(16)
O34_2 O 0.9625(2) 0.5356(2) 0.30628(17)
C73_2 C 0.9420(3) 0.5939(2) 0.4067(3)
C74_2 C 0.98589(15) 0.62754(15) 0.40196(16)
C78_2 C 0.99860(18) 0.67019(14) 0.43140(15)
C79_2 C 0.97805(13) 0.64897(17) 0.42266(17)
H35_2 H 0.9586 0.6491 0.4308
C81_2 C 0.9889(3) 0.6918(2) 0.4540(3)
N17_2 N 0.9315(2) 0.60645(16) 0.4311(2)
N18_2 N 0.96648(18) 0.6046(2) 0.3939(2)
H36_2 H 0.9713 0.5957 0.3772
O38_2 O 0.9644(2) 0.69372(17) 0.4625(2)
Zn6_2 Zn 0.83898(4) 0.60282(4) 0.62620(4)
Zn10_2 Zn 0.98274(3) 0.2500 0.7500
Zn12_6 Zn 1.0000 0.73274(3) 0.5000
Zn15_6 Zn 1.0000 0.5000 0.26726(3)
Zn21_2 Zn 0.89718(4) 0.62620(4) 0.66102(4)
Zn22_2 Zn 0.83898(4) 0.39718(4) 0.37380(4)
O51_2 O 0.93099(18) 0.3727(2) 0.3680(2)
O52_2 O 0.8680(2) 0.56901(18) 0.6273(2)
O58_2 O 0.9658(2) 0.5108(2) 0.70786(16)
O60_2 O 0.79214(16) 0.4658(2) 0.4892(2)
O61_2 O 0.7261(3) 0.4638(3) 0.4863(3)
O62_2 O 0.9638(3) 0.5137(3) 0.7739(3)
O65_2 O 0.7261(3) 0.5362(3) 0.5137(3)
O66_2 O 0.73974(19) 0.5034(3) 0.4647(3)
O69_2 O 0.9966(3) 0.4647(3) 0.76026(19)
O70_2 O 0.73974(19) 0.4966(3) 0.5353(3)
O71_2 O 0.84840(19) 0.69184(18) 0.58271(17)
O73_2 O 0.80816(18) 0.58271(17) 0.65160(19)
O75_2 O 0.86121(13) 0.36121(13) 0.36121(13)
Zn14_3 Zn 0.01726(3) 0.7500 0.7500
Zn16_3 Zn 0.7500 0.01726(3) 0.7500
C30_3 C 0.62733(14) 0.39001(14) 0.01428(17)
H13_3 H 0.6127 0.3759 0.0196
C31_3 C 0.64854(16) 0.39876(16) 0.03483(13)
C32_3 C 0.66997(14) 0.41945(17) 0.02700(16)
H14_3 H 0.6845 0.4254 0.0410
C35_3 C 0.6477(3) 0.3861(3) 0.0643(3)
O14_3 O 0.6273(2) 0.3680(2) 0.06901(18)
O15_3 O 0.66694(19) 0.39616(19) 0.08384(18)
O16_3 O 0.70786(16) 0.4658(2) 0.0108(2)
Zn3_6 Zn 0.26726(3) 0.5000 0.0000
C55_3 C 0.4061(2) 0.4067(3) 0.0580(3)
C56_3 C 0.37246(15) 0.40196(16) 0.01411(15)
C60_3 C 0.32981(14) 0.43140(15) 0.00140(18)
C61_3 C 0.35103(17) 0.42266(17) 0.02195(13)
H27_3 H 0.3509 0.4308 0.0414
C63_3 C 0.3082(2) 0.4540(3) 0.0111(3)
N13_3 N 0.39355(16) 0.4311(2) 0.0685(2)
N14_3 N 0.3954(2) 0.3939(2) 0.03352(18)
H28_3 H 0.4043 0.3772 0.0287
O29_3 O 0.30628(17) 0.4625(2) 0.0356(2)
C64_3 C 0.4067(3) 0.4420(3) 0.0939(2)
C65_3 C 0.40196(16) 0.48589(15) 0.12754(15)
C66_3 C 0.39001(14) 0.51428(17) 0.12733(14)
H29_3 H 0.3759 0.5196 0.1127
C67_3 C 0.39876(16) 0.53483(13) 0.14854(16)
C68_3 C 0.41945(17) 0.52700(16) 0.16997(14)
H30_3 H 0.4254 0.5410 0.1845
C69_3 C 0.43140(15) 0.49860(18) 0.17019(14)
C70_3 C 0.42266(17) 0.47805(13) 0.14897(17)
H31_3 H 0.4308 0.4586 0.1491
C71_3 C 0.3861(3) 0.5643(3) 0.1477(3)
C72_3 C 0.4540(3) 0.4889(3) 0.1918(2)
N15_3 N 0.4311(2) 0.4315(2) 0.10645(16)
N16_3 N 0.3939(2) 0.46648(18) 0.1046(2)
H32_3 H 0.3772 0.4713 0.0957
O31_3 O 0.3680(2) 0.56901(18) 0.1273(2)
O32_3 O 0.39616(19) 0.58384(18) 0.16694(19)
O33_3 O 0.4658(2) 0.5108(2) 0.20786(16)
O34_3 O 0.4625(2) 0.4644(2) 0.19372(17)
C73_3 C 0.4420(3) 0.4061(2) 0.0933(3)
C74_3 C 0.48589(15) 0.37246(15) 0.09804(16)
C75_3 C 0.51428(17) 0.37267(14) 0.10999(14)
H33_3 H 0.5196 0.3873 0.1241
C76_3 C 0.53483(13) 0.35146(16) 0.10124(16)
C77_3 C 0.52700(16) 0.33003(14) 0.08055(17)
H34_3 H 0.5410 0.3155 0.0746
C78_3 C 0.49860(18) 0.32981(14) 0.06860(15)
C79_3 C 0.47805(13) 0.35103(17) 0.07734(17)
H35_3 H 0.4586 0.3509 0.0692
C80_3 C 0.5643(3) 0.3523(3) 0.1139(3)
C81_3 C 0.4889(3) 0.3082(2) 0.0460(3)
N17_3 N 0.4315(2) 0.39355(16) 0.0689(2)
N18_3 N 0.46648(18) 0.3954(2) 0.1061(2)
H36_3 H 0.4713 0.4043 0.1228
O35_3 O 0.56901(18) 0.3727(2) 0.1320(2)
O36_3 O 0.58384(18) 0.33306(19) 0.10384(19)
O37_3 O 0.5108(2) 0.29214(16) 0.0342(2)
O38_3 O 0.4644(2) 0.30628(17) 0.0375(2)
Zn5_2 Zn 0.39718(4) 0.62620(4) 0.16102(4)
Zn8_3 Zn 0.60282(4) 0.37380(4) 0.16102(4)
Zn11_6 Zn 0.73274(3) 0.5000 0.0000
Zn12_7 Zn 0.5000 0.26726(3) 0.0000
Zn13_3 Zn 0.7500 0.7500 0.01726(3)
Zn15_7 Zn 0.5000 0.5000 0.23274(3)
Zn22_3 Zn 0.33898(4) 0.60282(4) 0.12620(4)
O51_3 O 0.43099(18) 0.6273(2) 0.1320(2)
O55_3 O 0.60384(19) 0.41616(18) 0.16694(19)
O60_3 O 0.29214(16) 0.5342(2) 0.0108(2)
O61_3 O 0.2261(3) 0.5362(3) 0.0137(3)
O66_3 O 0.23974(19) 0.4966(3) 0.0353(3)
O72_2 O 0.41729(17) 0.65160(19) 0.19184(18)
O74_3 O 0.58271(17) 0.34840(19) 0.19184(18)
O75_3 O 0.36121(13) 0.63879(13) 0.13879(13)
O76_3 O 0.63879(13) 0.36121(13) 0.13879(13)
Zn1_7 Zn 0.5000 0.5000 0.76726(3)
Zn2_3 Zn 0.66102(4) 0.60282(4) 0.87380(4)
C1_3 C 0.5933(3) 0.4420(3) 0.9061(2)
C2_3 C 0.59804(16) 0.48589(15) 0.87246(15)
C3_3 C 0.60999(14) 0.51428(17) 0.87267(14)
H1_3 H 0.6241 0.5196 0.8873
C4_3 C 0.60124(16) 0.53483(13) 0.85146(16)
C5_3 C 0.58055(17) 0.52700(16) 0.83003(14)
H2_3 H 0.5746 0.5410 0.8155
C6_3 C 0.56860(15) 0.49860(18) 0.82981(14)
C7_3 C 0.57734(17) 0.47805(13) 0.85103(17)
H3_3 H 0.5692 0.4586 0.8509
C8_3 C 0.6139(3) 0.5643(3) 0.8523(3)
C9_3 C 0.5460(3) 0.4889(3) 0.8082(2)
C10_3 C 0.8213(3) 0.6452(2) 0.8188(3)
C11_3 C 0.78681(15) 0.60365(15) 0.80931(18)
C12_3 C 0.78729(16) 0.57674(17) 0.79433(18)
H4_3 H 0.8034 0.5720 0.7817
C13_3 C 0.76414(19) 0.55672(13) 0.79789(18)
C14_3 C 0.74052(16) 0.56362(14) 0.81642(18)
H5_3 H 0.7247 0.5499 0.8188
C15_3 C 0.74004(14) 0.59054(15) 0.83140(16)
C16_3 C 0.76319(16) 0.61055(12) 0.82784(16)
H6_3 H 0.7629 0.6289 0.8381
C17_3 C 0.7633(4) 0.5287(4) 0.7806(4)
C18_3 C 0.7152(3) 0.5994(3) 0.8500(3)
N1_3 N 0.5689(2) 0.4315(2) 0.89355(16)
N2_3 N 0.6061(2) 0.46648(18) 0.8954(2)
H7_3 H 0.6228 0.4713 0.9043
N3_3 N 0.84397(19) 0.6584(2) 0.8051(2)
N4_3 N 0.8091(2) 0.6212(2) 0.8048(2)
H8_3 H 0.8190 0.6164 0.7887
O1_3 O 0.6320(2) 0.56901(18) 0.8727(2)
O2_3 O 0.60384(19) 0.58384(18) 0.83306(19)
O3_3 O 0.5342(2) 0.5108(2) 0.79214(16)
O4_3 O 0.5375(2) 0.4644(2) 0.80628(17)
O5_3 O 0.7862(3) 0.5239(3) 0.7637(3)
O6_3 O 0.7466(3) 0.51026(19) 0.7853(3)
O7_3 O 0.69184(18) 0.58271(17) 0.84840(19)
O8_3 O 0.71460(18) 0.6231(2) 0.8653(2)
O9_3 O 0.63879(13) 0.63879(13) 0.86121(13)
C19_3 C 0.5580(3) 0.4061(2) 0.9067(3)
C20_3 C 0.51411(15) 0.37246(15) 0.90196(16)
C21_3 C 0.48572(17) 0.37267(14) 0.89001(14)
H9_3 H 0.4804 0.3873 0.8759
C22_3 C 0.46517(13) 0.35146(16) 0.89876(16)
C23_3 C 0.47300(16) 0.33003(14) 0.91945(17)
H10_3 H 0.4590 0.3155 0.9254
C24_3 C 0.50140(18) 0.32981(14) 0.93140(15)
C25_3 C 0.52195(13) 0.35103(17) 0.92266(17)
H11_3 H 0.5414 0.3509 0.9308
C26_3 C 0.4357(3) 0.3523(3) 0.8861(3)
C27_3 C 0.5111(3) 0.3082(2) 0.9540(3)
N5_3 N 0.5685(2) 0.39355(16) 0.9311(2)
N6_3 N 0.53352(18) 0.3954(2) 0.8939(2)
H12_3 H 0.5287 0.4043 0.8772
O10_3 O 0.43099(18) 0.3727(2) 0.8680(2)
O11_3 O 0.41616(18) 0.33306(19) 0.89616(19)
O12_3 O 0.4892(2) 0.29214(16) 0.9658(2)
O13_3 O 0.5356(2) 0.30628(17) 0.9625(2)
C28_3 C 0.5939(2) 0.4067(3) 0.9420(3)
C29_3 C 0.62754(15) 0.40196(16) 0.98589(15)
C33_3 C 0.67019(14) 0.43140(15) 0.99860(18)
C34_3 C 0.64897(17) 0.42266(17) 0.97805(13)
H15_3 H 0.6491 0.4308 0.9586
C36_3 C 0.6918(2) 0.4540(3) 0.9889(3)
N7_3 N 0.60645(16) 0.4311(2) 0.9315(2)
N8_3 N 0.6046(2) 0.3939(2) 0.96648(18)
H16_3 H 0.5957 0.3772 0.9713
O17_3 O 0.69372(17) 0.4625(2) 0.9644(2)
C37_3 C 0.8548(2) 0.6812(3) 0.8213(3)
C38_3 C 0.89635(15) 0.69069(18) 0.78681(15)
C39_3 C 0.92326(17) 0.70567(18) 0.78729(16)
H17_3 H 0.9280 0.7183 0.8034
C40_3 C 0.94328(13) 0.70211(18) 0.76414(19)
C41_3 C 0.93638(14) 0.68358(18) 0.74052(16)
H18_3 H 0.9501 0.6812 0.7247
C42_3 C 0.90946(15) 0.66860(16) 0.74004(14)
C43_3 C 0.88945(12) 0.67216(16) 0.76319(16)
H19_3 H 0.8711 0.6619 0.7629
C44_3 C 0.9713(4) 0.7194(4) 0.7633(4)
C45_3 C 0.9006(3) 0.6500(3) 0.7152(3)
N9_3 N 0.8416(2) 0.6949(2) 0.84397(19)
N10_3 N 0.8788(2) 0.6952(2) 0.8091(2)
H20_3 H 0.8836 0.7113 0.8190
O18_3 O 0.9761(3) 0.7363(3) 0.7862(3)
O19_3 O 0.98974(19) 0.7147(3) 0.7466(3)
O20_3 O 0.91729(17) 0.65160(19) 0.69184(18)
O21_3 O 0.8769(2) 0.6347(2) 0.71460(18)
C46_3 C 0.8188(3) 0.6787(3) 0.8548(2)
C47_3 C 0.80931(18) 0.71319(15) 0.89635(15)
C48_3 C 0.79433(18) 0.71271(16) 0.92326(17)
H21_3 H 0.7817 0.6966 0.9280
C49_3 C 0.79789(18) 0.73586(19) 0.94328(13)
C50_3 C 0.81642(18) 0.75948(16) 0.93638(14)
H22_3 H 0.8188 0.7753 0.9501
C51_3 C 0.83140(16) 0.75996(14) 0.90946(15)
C52_3 C 0.82784(16) 0.73681(16) 0.88945(12)
H23_3 H 0.8381 0.7371 0.8711
C53_3 C 0.7806(4) 0.7367(4) 0.9713(4)
C54_3 C 0.8500(3) 0.7848(3) 0.9006(3)
N11_3 N 0.8051(2) 0.65603(19) 0.8416(2)
N12_3 N 0.8048(2) 0.6909(2) 0.8788(2)
H24_3 H 0.7887 0.6810 0.8836
O22_3 O 0.7637(3) 0.7138(3) 0.9761(3)
O23_3 O 0.7853(3) 0.7534(3) 0.98974(19)
O24_3 O 0.84840(19) 0.80816(18) 0.91729(17)
O25_3 O 0.8653(2) 0.78540(18) 0.8769(2)
Zn3_7 Zn 0.26726(3) 0.5000 1.0000
Zn4_3 Zn 0.37380(4) 0.33898(4) 0.89718(4)
C57_3 C 0.37267(14) 0.39001(14) 0.98572(17)
H25_3 H 0.3873 0.3759 0.9804
C58_3 C 0.35146(16) 0.39876(16) 0.96517(13)
C59_3 C 0.33003(14) 0.41945(17) 0.97300(16)
H26_3 H 0.3155 0.4254 0.9590
C62_3 C 0.3523(3) 0.3861(3) 0.9357(3)
O26_3 O 0.3727(2) 0.3680(2) 0.93099(18)
O27_3 O 0.33306(19) 0.39616(19) 0.91616(18)
O28_3 O 0.29214(16) 0.4658(2) 0.9892(2)
O30_3 O 0.36121(13) 0.36121(13) 0.86121(13)
Zn6_3 Zn 0.33898(4) 0.39718(4) 0.87380(4)
Zn7_3 Zn 0.62620(4) 0.66102(4) 0.89718(4)
C82_3 C 0.6812(3) 0.8213(3) 0.8548(2)
C83_3 C 0.69069(18) 0.78681(15) 0.89635(15)
C84_3 C 0.70567(18) 0.78729(16) 0.92326(17)
H37_3 H 0.7183 0.8034 0.9280
C85_3 C 0.70211(18) 0.76414(19) 0.94328(13)
C86_3 C 0.68358(18) 0.74052(16) 0.93638(14)
H38_3 H 0.6812 0.7247 0.9501
C87_3 C 0.66860(16) 0.74004(14) 0.90946(15)
C88_3 C 0.67216(16) 0.76319(16) 0.88945(12)
H39_3 H 0.6619 0.7629 0.8711
C89_3 C 0.7194(4) 0.7633(4) 0.9713(4)
C90_3 C 0.6500(3) 0.7152(3) 0.9006(3)
N19_3 N 0.6949(2) 0.84397(19) 0.8416(2)
N20_3 N 0.6952(2) 0.8091(2) 0.8788(2)
H40_3 H 0.7113 0.8190 0.8836
O39_3 O 0.7363(3) 0.7862(3) 0.9761(3)
O40_3 O 0.7147(3) 0.7466(3) 0.98974(19)
O41_3 O 0.65160(19) 0.69184(18) 0.91729(17)
O42_3 O 0.6347(2) 0.71460(18) 0.8769(2)
C91_3 C 0.6787(3) 0.8548(2) 0.8188(3)
C92_3 C 0.71319(15) 0.89635(15) 0.80931(18)
C93_3 C 0.71271(16) 0.92326(17) 0.79433(18)
H41_3 H 0.6966 0.9280 0.7817
C94_3 C 0.73586(19) 0.94328(13) 0.79789(18)
C95_3 C 0.75948(16) 0.93638(14) 0.81642(18)
H42_3 H 0.7753 0.9501 0.8188
C96_3 C 0.75996(14) 0.90946(15) 0.83140(16)
C97_3 C 0.73681(16) 0.88945(12) 0.82784(16)
H43_3 H 0.7371 0.8711 0.8381
C98_3 C 0.7367(4) 0.9713(4) 0.7806(4)
C99_3 C 0.7848(3) 0.9006(3) 0.8500(3)
N21_3 N 0.65603(19) 0.8416(2) 0.8051(2)
N22_3 N 0.6909(2) 0.8788(2) 0.8048(2)
H44_3 H 0.6810 0.8836 0.7887
O43_3 O 0.7138(3) 0.9761(3) 0.7637(3)
O44_3 O 0.7534(3) 0.98974(19) 0.7853(3)
O45_3 O 0.80816(18) 0.91729(17) 0.84840(19)
O46_3 O 0.78540(18) 0.8769(2) 0.8653(2)
C100_3 C 0.6452(2) 0.8188(3) 0.8213(3)
C101_3 C 0.60365(15) 0.80931(18) 0.78681(15)
C102_3 C 0.57674(17) 0.79433(18) 0.78729(16)
H45_3 H 0.5720 0.7817 0.8034
C103_3 C 0.55672(13) 0.79789(18) 0.76414(19)
C104_3 C 0.56362(14) 0.81642(18) 0.74052(16)
H46_3 H 0.5499 0.8188 0.7247
C105_3 C 0.59054(15) 0.83140(16) 0.74004(14)
C106_3 C 0.61055(12) 0.82784(16) 0.76319(16)
H47_3 H 0.6289 0.8381 0.7629
C107_3 C 0.5287(4) 0.7806(4) 0.7633(4)
C108_3 C 0.5994(3) 0.8500(3) 0.7152(3)
N23_3 N 0.6584(2) 0.8051(2) 0.84397(19)
N24_3 N 0.6212(2) 0.8048(2) 0.8091(2)
H48_3 H 0.6164 0.7887 0.8190
O47_3 O 0.5239(3) 0.7637(3) 0.7862(3)
O48_3 O 0.51026(19) 0.7853(3) 0.7466(3)
O49_2 O 0.58271(17) 0.84840(19) 0.69184(18)
O50_3 O 0.6231(2) 0.8653(2) 0.71460(18)
Zn9_3 Zn 0.7500 0.48274(3) 0.7500
Zn10_3 Zn 0.48274(3) 0.7500 0.7500
Zn11_7 Zn 0.73274(3) 0.5000 1.0000
Zn12_8 Zn 0.5000 0.26726(3) 1.0000
Zn17_2 Zn 0.60282(4) 0.87380(4) 0.66102(4)
Zn25_3 Zn 0.60282(4) 0.62620(4) 0.83898(4)
O52_3 O 0.3680(2) 0.43099(18) 0.8727(2)
O53_3 O 0.6273(2) 0.6320(2) 0.93099(18)
O54_3 O 0.66694(19) 0.60384(19) 0.91616(18)
O56_3 O 0.58384(18) 0.66694(19) 0.89616(19)
O57_3 O 0.7158(2) 0.45786(16) 0.7392(2)
O58_3 O 0.4658(2) 0.4892(2) 0.79214(16)
O59_3 O 0.7842(2) 0.45786(16) 0.7608(2)
O62_3 O 0.4638(3) 0.4863(3) 0.7261(3)
O63_3 O 0.7138(3) 0.5239(3) 0.7363(3)
O64_3 O 0.5362(3) 0.5137(3) 0.7261(3)
O65_3 O 0.2261(3) 0.4638(3) 0.9863(3)
O67_3 O 0.5034(3) 0.4647(3) 0.73974(19)
O68_3 O 0.7534(3) 0.51026(19) 0.7147(3)
O69_3 O 0.4966(3) 0.5353(3) 0.73974(19)
O70_3 O 0.23974(19) 0.5034(3) 0.9647(3)
O71_3 O 0.34840(19) 0.30816(18) 0.91729(17)
O73_3 O 0.30816(18) 0.41729(17) 0.84840(19)
Zn1_8 Zn 0.5000 0.0000 0.26726(3)
C1_4 C 0.4067(3) 0.0580(3) 0.4061(2)
C2_4 C 0.40196(16) 0.01411(15) 0.37246(15)
C6_4 C 0.43140(15) 0.00140(18) 0.32981(14)
C7_4 C 0.42266(17) 0.02195(13) 0.35103(17)
H3_4 H 0.4308 0.0414 0.3509
C9_4 C 0.4540(3) 0.0111(3) 0.3082(2)
N1_4 N 0.4311(2) 0.0685(2) 0.39355(16)
N2_4 N 0.3939(2) 0.03352(18) 0.3954(2)
H7_4 H 0.3772 0.0287 0.4043
O4_4 O 0.4625(2) 0.0356(2) 0.30628(17)
C19_4 C 0.4420(3) 0.0939(2) 0.4067(3)
C20_4 C 0.48589(15) 0.12754(15) 0.40196(16)
C21_4 C 0.51428(17) 0.12733(14) 0.39001(14)
H9_4 H 0.5196 0.1127 0.3759
C22_4 C 0.53483(13) 0.14854(16) 0.39876(16)
C23_4 C 0.52700(16) 0.16997(14) 0.41945(17)
H10_4 H 0.5410 0.1845 0.4254
C24_4 C 0.49860(18) 0.17019(14) 0.43140(15)
C25_4 C 0.47805(13) 0.14897(17) 0.42266(17)
H11_4 H 0.4586 0.1491 0.4308
C26_4 C 0.5643(3) 0.1477(3) 0.3861(3)
C27_4 C 0.4889(3) 0.1918(2) 0.4540(3)
N5_4 N 0.4315(2) 0.10645(16) 0.4311(2)
N6_4 N 0.46648(18) 0.1046(2) 0.3939(2)
H12_4 H 0.4713 0.0957 0.3772
O10_4 O 0.56901(18) 0.1273(2) 0.3680(2)
O11_4 O 0.58384(18) 0.16694(19) 0.39616(19)
O12_4 O 0.5108(2) 0.20786(16) 0.4658(2)
O13_4 O 0.4644(2) 0.19372(17) 0.4625(2)
C28_4 C 0.4061(2) 0.0933(3) 0.4420(3)
C29_4 C 0.37246(15) 0.09804(16) 0.48589(15)
C30_4 C 0.37267(14) 0.10999(14) 0.51428(17)
H13_4 H 0.3873 0.1241 0.5196
C31_4 C 0.35146(16) 0.10124(16) 0.53483(13)
C32_4 C 0.33003(14) 0.08055(17) 0.52700(16)
H14_4 H 0.3155 0.0746 0.5410
C33_4 C 0.32981(14) 0.06860(15) 0.49860(18)
C34_4 C 0.35103(17) 0.07734(17) 0.47805(13)
H15_4 H 0.3509 0.0692 0.4586
C35_4 C 0.3523(3) 0.1139(3) 0.5643(3)
C36_4 C 0.3082(2) 0.0460(3) 0.4889(3)
N7_4 N 0.39355(16) 0.0689(2) 0.4315(2)
N8_4 N 0.3954(2) 0.1061(2) 0.46648(18)
H16_4 H 0.4043 0.1228 0.4713
O14_4 O 0.3727(2) 0.1320(2) 0.56901(18)
O15_4 O 0.33306(19) 0.10384(19) 0.58384(18)
O16_4 O 0.29214(16) 0.0342(2) 0.5108(2)
O17_4 O 0.30628(17) 0.0375(2) 0.4644(2)
Zn3_8 Zn 0.73274(3) 0.0000 0.5000
Zn4_4 Zn 0.62620(4) 0.16102(4) 0.39718(4)
C55_4 C 0.5939(2) 0.0933(3) 0.5580(3)
C56_4 C 0.62754(15) 0.09804(16) 0.51411(15)
C57_4 C 0.62733(14) 0.10999(14) 0.48572(17)
H25_4 H 0.6127 0.1241 0.4804
C58_4 C 0.64854(16) 0.10124(16) 0.46517(13)
C59_4 C 0.66997(14) 0.08055(17) 0.47300(16)
H26_4 H 0.6845 0.0746 0.4590
C60_4 C 0.67019(14) 0.06860(15) 0.50140(18)
C61_4 C 0.64897(17) 0.07734(17) 0.52195(13)
H27_4 H 0.6491 0.0692 0.5414
C62_4 C 0.6477(3) 0.1139(3) 0.4357(3)
C63_4 C 0.6918(2) 0.0460(3) 0.5111(3)
N13_4 N 0.60645(16) 0.0689(2) 0.5685(2)
N14_4 N 0.6046(2) 0.1061(2) 0.53352(18)
H28_4 H 0.5957 0.1228 0.5287
O26_4 O 0.6273(2) 0.1320(2) 0.43099(18)
O27_4 O 0.66694(19) 0.10384(19) 0.41616(18)
O28_4 O 0.70786(16) 0.0342(2) 0.4892(2)
O29_4 O 0.69372(17) 0.0375(2) 0.5356(2)
O30_4 O 0.63879(13) 0.13879(13) 0.36121(13)
C64_4 C 0.5933(3) 0.0580(3) 0.5939(2)
C65_4 C 0.59804(16) 0.01411(15) 0.62754(15)
C69_4 C 0.56860(15) 0.00140(18) 0.67019(14)
C70_4 C 0.57734(17) 0.02195(13) 0.64897(17)
H31_4 H 0.5692 0.0414 0.6491
C72_4 C 0.5460(3) 0.0111(3) 0.6918(2)
N15_4 N 0.5689(2) 0.0685(2) 0.60645(16)
N16_4 N 0.6061(2) 0.03352(18) 0.6046(2)
H32_4 H 0.6228 0.0287 0.5957
O34_4 O 0.5375(2) 0.0356(2) 0.69372(17)
C73_4 C 0.5580(3) 0.0939(2) 0.5933(3)
C74_4 C 0.51411(15) 0.12754(15) 0.59804(16)
C75_4 C 0.48572(17) 0.12733(14) 0.60999(14)
H33_4 H 0.4804 0.1127 0.6241
C76_4 C 0.46517(13) 0.14854(16) 0.60124(16)
C77_4 C 0.47300(16) 0.16997(14) 0.58055(17)
H34_4 H 0.4590 0.1845 0.5746
C78_4 C 0.50140(18) 0.17019(14) 0.56860(15)
C79_4 C 0.52195(13) 0.14897(17) 0.57734(17)
H35_4 H 0.5414 0.1491 0.5692
C80_4 C 0.4357(3) 0.1477(3) 0.6139(3)
C81_4 C 0.5111(3) 0.1918(2) 0.5460(3)
N17_4 N 0.5685(2) 0.10645(16) 0.5689(2)
N18_4 N 0.53352(18) 0.1046(2) 0.6061(2)
H36_4 H 0.5287 0.0957 0.6228
O35_4 O 0.43099(18) 0.1273(2) 0.6320(2)
O36_4 O 0.41616(18) 0.16694(19) 0.60384(19)
O37_4 O 0.4892(2) 0.20786(16) 0.5342(2)
O38_4 O 0.5356(2) 0.19372(17) 0.5375(2)
Zn6_4 Zn 0.66102(4) 0.10282(4) 0.37380(4)
Zn8_4 Zn 0.39718(4) 0.12620(4) 0.66102(4)
Zn9_4 Zn 0.2500 0.01726(3) 0.2500
Zn11_8 Zn 0.26726(3) 0.0000 0.5000
Zn12_9 Zn 0.5000 0.23274(3) 0.5000
Zn15_8 Zn 0.5000 0.0000 0.73274(3)
O52_4 O 0.6320(2) 0.06901(18) 0.3727(2)
O55_4 O 0.39616(19) 0.08384(18) 0.66694(19)
O57_4 O 0.2842(2) 0.04214(16) 0.2392(2)
O58_4 O 0.5342(2) 0.0108(2) 0.29214(16)
O59_4 O 0.2158(2) 0.04214(16) 0.2608(2)
O62_4 O 0.5362(3) 0.0137(3) 0.2261(3)
O65_4 O 0.7739(3) 0.0362(3) 0.4863(3)
O66_4 O 0.76026(19) 0.0034(3) 0.5353(3)
O67_4 O 0.4966(3) 0.0353(3) 0.23974(19)
O71_4 O 0.65160(19) 0.19184(18) 0.41729(17)
O73_4 O 0.69184(18) 0.08271(17) 0.34840(19)
O74_4 O 0.41729(17) 0.15160(19) 0.69184(18)
O76_4 O 0.36121(13) 0.13879(13) 0.63879(13)
Zn1_9 Zn 0.5000 1.0000 0.26726(3)
Zn2_4 Zn 0.33898(4) 0.89718(4) 0.37380(4)
C3_4 C 0.39001(14) 0.98572(17) 0.37267(14)
H1_4 H 0.3759 0.9804 0.3873
C4_4 C 0.39876(16) 0.96517(13) 0.35146(16)
C5_4 C 0.41945(17) 0.97300(16) 0.33003(14)
H2_4 H 0.4254 0.9590 0.3155
C8_4 C 0.3861(3) 0.9357(3) 0.3523(3)
C10_4 C 0.1787(3) 0.8548(2) 0.3188(3)
C11_4 C 0.21319(15) 0.89635(15) 0.30931(18)
C12_4 C 0.21271(16) 0.92326(17) 0.29433(18)
H4_4 H 0.1966 0.9280 0.2817
C13_4 C 0.23586(19) 0.94328(13) 0.29789(18)
C14_4 C 0.25948(16) 0.93638(14) 0.31642(18)
H5_4 H 0.2753 0.9501 0.3188
C15_4 C 0.25996(14) 0.90946(15) 0.33140(16)
C16_4 C 0.23681(16) 0.88945(12) 0.32784(16)
H6_4 H 0.2371 0.8711 0.3381
C17_4 C 0.2367(4) 0.9713(4) 0.2806(4)
C18_4 C 0.2848(3) 0.9006(3) 0.3500(3)
N3_4 N 0.15603(19) 0.8416(2) 0.3051(2)
N4_4 N 0.1909(2) 0.8788(2) 0.3048(2)
H8_4 H 0.1810 0.8836 0.2887
O1_4 O 0.3680(2) 0.93099(18) 0.3727(2)
O2_4 O 0.39616(19) 0.91616(18) 0.33306(19)
O3_4 O 0.4658(2) 0.9892(2) 0.29214(16)
O5_4 O 0.2138(3) 0.9761(3) 0.2637(3)
O6_4 O 0.2534(3) 0.98974(19) 0.2853(3)
O7_4 O 0.30816(18) 0.91729(17) 0.34840(19)
O8_4 O 0.28540(18) 0.8769(2) 0.3653(2)
O9_4 O 0.36121(13) 0.86121(13) 0.36121(13)
C37_4 C 0.1452(2) 0.8188(3) 0.3213(3)
C38_4 C 0.10365(15) 0.80931(18) 0.28681(15)
C39_4 C 0.07674(17) 0.79433(18) 0.28729(16)
H17_4 H 0.0720 0.7817 0.3034
C40_4 C 0.05672(13) 0.79789(18) 0.26414(19)
C41_4 C 0.06362(14) 0.81642(18) 0.24052(16)
H18_4 H 0.0499 0.8188 0.2247
C42_4 C 0.09054(15) 0.83140(16) 0.24004(14)
C43_4 C 0.11055(12) 0.82784(16) 0.26319(16)
H19_4 H 0.1289 0.8381 0.2629
C44_4 C 0.0287(4) 0.7806(4) 0.2633(4)
C45_4 C 0.0994(3) 0.8500(3) 0.2152(3)
N9_4 N 0.1584(2) 0.8051(2) 0.34397(19)
N10_4 N 0.1212(2) 0.8048(2) 0.3091(2)
H20_4 H 0.1164 0.7887 0.3190
O18_4 O 0.0239(3) 0.7637(3) 0.2862(3)
O19_4 O 0.01026(19) 0.7853(3) 0.2466(3)
O20_4 O 0.08271(17) 0.84840(19) 0.19184(18)
O21_4 O 0.1231(2) 0.8653(2) 0.21460(18)
C46_4 C 0.1812(3) 0.8213(3) 0.3548(2)
C47_4 C 0.19069(18) 0.78681(15) 0.39635(15)
C48_4 C 0.20567(18) 0.78729(16) 0.42326(17)
H21_4 H 0.2183 0.8034 0.4280
C49_4 C 0.20211(18) 0.76414(19) 0.44328(13)
C50_4 C 0.18358(18) 0.74052(16) 0.43638(14)
H22_4 H 0.1812 0.7247 0.4501
C51_4 C 0.16860(16) 0.74004(14) 0.40946(15)
C52_4 C 0.17216(16) 0.76319(16) 0.38945(12)
H23_4 H 0.1619 0.7629 0.3711
C53_4 C 0.2194(4) 0.7633(4) 0.4713(4)
C54_4 C 0.1500(3) 0.7152(3) 0.4006(3)
N11_4 N 0.1949(2) 0.84397(19) 0.3416(2)
N12_4 N 0.1952(2) 0.8091(2) 0.3788(2)
H24_4 H 0.2113 0.8190 0.3836
O22_4 O 0.2363(3) 0.7862(3) 0.4761(3)
O23_4 O 0.2147(3) 0.7466(3) 0.48974(19)
O24_4 O 0.15160(19) 0.69184(18) 0.41729(17)
O25_4 O 0.1347(2) 0.71460(18) 0.3769(2)
Zn3_9 Zn 0.73274(3) 1.0000 0.5000
C66_4 C 0.60999(14) 0.98572(17) 0.62733(14)
H29_4 H 0.6241 0.9804 0.6127
C67_4 C 0.60124(16) 0.96517(13) 0.64854(16)
C68_4 C 0.58055(17) 0.97300(16) 0.66997(14)
H30_4 H 0.5746 0.9590 0.6845
C71_4 C 0.6139(3) 0.9357(3) 0.6477(3)
O31_4 O 0.6320(2) 0.93099(18) 0.6273(2)
O32_4 O 0.60384(19) 0.91616(18) 0.66694(19)
O33_4 O 0.5342(2) 0.9892(2) 0.70786(16)
Zn7_4 Zn 0.37380(4) 0.83898(4) 0.39718(4)
C82_4 C 0.3188(3) 0.6787(3) 0.3548(2)
C83_4 C 0.30931(18) 0.71319(15) 0.39635(15)
C84_4 C 0.29433(18) 0.71271(16) 0.42326(17)
H37_4 H 0.2817 0.6966 0.4280
C85_4 C 0.29789(18) 0.73586(19) 0.44328(13)
C86_4 C 0.31642(18) 0.75948(16) 0.43638(14)
H38_4 H 0.3188 0.7753 0.4501
C87_4 C 0.33140(16) 0.75996(14) 0.40946(15)
C88_4 C 0.32784(16) 0.73681(16) 0.38945(12)
H39_4 H 0.3381 0.7371 0.3711
C89_4 C 0.2806(4) 0.7367(4) 0.4713(4)
C90_4 C 0.3500(3) 0.7848(3) 0.4006(3)
N19_4 N 0.3051(2) 0.65603(19) 0.3416(2)
N20_4 N 0.3048(2) 0.6909(2) 0.3788(2)
H40_4 H 0.2887 0.6810 0.3836
O39_4 O 0.2637(3) 0.7138(3) 0.4761(3)
O40_4 O 0.2853(3) 0.7534(3) 0.48974(19)
O41_4 O 0.34840(19) 0.80816(18) 0.41729(17)
O42_4 O 0.3653(2) 0.78540(18) 0.3769(2)
C91_4 C 0.3213(3) 0.6452(2) 0.3188(3)
C92_4 C 0.28681(15) 0.60365(15) 0.30931(18)
C93_4 C 0.28729(16) 0.57674(17) 0.29433(18)
H41_4 H 0.3034 0.5720 0.2817
C94_4 C 0.26414(19) 0.55672(13) 0.29789(18)
C95_4 C 0.24052(16) 0.56362(14) 0.31642(18)
H42_4 H 0.2247 0.5499 0.3188
C96_4 C 0.24004(14) 0.59054(15) 0.33140(16)
C97_4 C 0.26319(16) 0.61055(12) 0.32784(16)
H43_4 H 0.2629 0.6289 0.3381
C98_4 C 0.2633(4) 0.5287(4) 0.2806(4)
C99_4 C 0.2152(3) 0.5994(3) 0.3500(3)
N21_4 N 0.34397(19) 0.6584(2) 0.3051(2)
N22_4 N 0.3091(2) 0.6212(2) 0.3048(2)
H44_4 H 0.3190 0.6164 0.2887
O43_4 O 0.2862(3) 0.5239(3) 0.2637(3)
O44_4 O 0.2466(3) 0.51026(19) 0.2853(3)
O45_4 O 0.19184(18) 0.58271(17) 0.34840(19)
O46_4 O 0.21460(18) 0.6231(2) 0.3653(2)
C100_4 C 0.3548(2) 0.6812(3) 0.3213(3)
C101_4 C 0.39635(15) 0.69069(18) 0.28681(15)
C102_4 C 0.42326(17) 0.70567(18) 0.28729(16)
H45_4 H 0.4280 0.7183 0.3034
C103_4 C 0.44328(13) 0.70211(18) 0.26414(19)
C104_4 C 0.43638(14) 0.68358(18) 0.24052(16)
H46_4 H 0.4501 0.6812 0.2247
C105_4 C 0.40946(15) 0.66860(16) 0.24004(14)
C106_4 C 0.38945(12) 0.67216(16) 0.26319(16)
H47_4 H 0.3711 0.6619 0.2629
C107_4 C 0.4713(4) 0.7194(4) 0.2633(4)
C108_4 C 0.4006(3) 0.6500(3) 0.2152(3)
N23_4 N 0.3416(2) 0.6949(2) 0.34397(19)
N24_4 N 0.3788(2) 0.6952(2) 0.3091(2)
H48_4 H 0.3836 0.7113 0.3190
O47_4 O 0.4761(3) 0.7363(3) 0.2862(3)
O48_4 O 0.48974(19) 0.7147(3) 0.2466(3)
O50_4 O 0.3769(2) 0.6347(2) 0.21460(18)
Zn10_4 Zn 0.51726(3) 0.7500 0.2500
Zn11_9 Zn 0.26726(3) 1.0000 0.5000
Zn13_4 Zn 0.2500 0.7500 0.51726(3)
Zn15_9 Zn 0.5000 1.0000 0.73274(3)
Zn16_4 Zn 0.2500 0.48274(3) 0.2500
Zn22_4 Zn 0.66102(4) 0.89718(4) 0.62620(4)
Zn25_4 Zn 0.39718(4) 0.87380(4) 0.33898(4)
O51_4 O 0.56901(18) 0.8727(2) 0.6320(2)
O53_4 O 0.3727(2) 0.8680(2) 0.43099(18)
O54_4 O 0.33306(19) 0.89616(19) 0.41616(18)
O56_4 O 0.41616(18) 0.83306(19) 0.39616(19)
O60_4 O 0.70786(16) 0.9658(2) 0.5108(2)
O61_4 O 0.7739(3) 0.9638(3) 0.5137(3)
O63_4 O 0.2862(3) 0.9761(3) 0.2363(3)
O64_4 O 0.4638(3) 0.9863(3) 0.2261(3)
O68_4 O 0.2466(3) 0.98974(19) 0.2147(3)
O69_4 O 0.5034(3) 0.9647(3) 0.23974(19)
O70_4 O 0.76026(19) 0.9966(3) 0.4647(3)
O75_4 O 0.63879(13) 0.86121(13) 0.63879(13)
Zn14_4 Zn 0.98274(3) 0.7500 0.2500
Zn3_10 Zn 0.0000 0.23274(3) 0.0000
O70_5 O 0.0353(3) 0.26026(19) 0.0034(3)
Zn3_11 Zn 0.0000 0.23274(3) 1.0000
C57_5 C 0.01428(17) 0.12733(14) 0.89001(14)
H25_5 H 0.0196 0.1127 0.8759
C58_5 C 0.03483(13) 0.14854(16) 0.89876(16)
C59_5 C 0.02700(16) 0.16997(14) 0.91945(17)
H26_5 H 0.0410 0.1845 0.9254
C62_5 C 0.0643(3) 0.1477(3) 0.8861(3)
O27_5 O 0.08384(18) 0.16694(19) 0.89616(19)
O28_5 O 0.0108(2) 0.20786(16) 0.9658(2)
Zn6_5 Zn 0.12620(4) 0.16102(4) 0.89718(4)
O52_5 O 0.1273(2) 0.1320(2) 0.93099(18)
O65_5 O 0.0137(3) 0.2739(3) 0.9638(3)
O73_5 O 0.15160(19) 0.19184(18) 0.91729(17)
C10_5 C 0.1812(3) 0.6787(3) 0.1452(2)
C11_5 C 0.19069(18) 0.71319(15) 0.10365(15)
C12_5 C 0.20567(18) 0.71271(16) 0.07674(17)
H4_5 H 0.2183 0.6966 0.0720
C13_5 C 0.20211(18) 0.73586(19) 0.05672(13)
C14_5 C 0.18358(18) 0.75948(16) 0.06362(14)
H5_5 H 0.1812 0.7753 0.0499
C15_5 C 0.16860(16) 0.75996(14) 0.09054(15)
C16_5 C 0.17216(16) 0.73681(16) 0.11055(12)
H6_5 H 0.1619 0.7371 0.1289
C17_5 C 0.2194(4) 0.7367(4) 0.0287(4)
C18_5 C 0.1500(3) 0.7848(3) 0.0994(3)
N3_5 N 0.1949(2) 0.65603(19) 0.1584(2)
N4_5 N 0.1952(2) 0.6909(2) 0.1212(2)
H8_5 H 0.2113 0.6810 0.1164
O5_5 O 0.2363(3) 0.7138(3) 0.0239(3)
O6_5 O 0.2147(3) 0.7534(3) 0.01026(19)
O8_5 O 0.1347(2) 0.78540(18) 0.1231(2)
C37_5 C 0.1787(3) 0.6452(2) 0.1812(3)
C38_5 C 0.21319(15) 0.60365(15) 0.19069(18)
C39_5 C 0.21271(16) 0.57674(17) 0.20567(18)
H17_5 H 0.1966 0.5720 0.2183
C40_5 C 0.23586(19) 0.55672(13) 0.20211(18)
C41_5 C 0.25948(16) 0.56362(14) 0.18358(18)
H18_5 H 0.2753 0.5499 0.1812
C42_5 C 0.25996(14) 0.59054(15) 0.16860(16)
C43_5 C 0.23681(16) 0.61055(12) 0.17216(16)
H19_5 H 0.2371 0.6289 0.1619
C44_5 C 0.2367(4) 0.5287(4) 0.2194(4)
C45_5 C 0.2848(3) 0.5994(3) 0.1500(3)
N9_5 N 0.15603(19) 0.6584(2) 0.1949(2)
N10_5 N 0.1909(2) 0.6212(2) 0.1952(2)
H20_5 H 0.1810 0.6164 0.2113
O18_5 O 0.2138(3) 0.5239(3) 0.2363(3)
O19_5 O 0.2534(3) 0.51026(19) 0.2147(3)
O20_5 O 0.30816(18) 0.58271(17) 0.15160(19)
O21_5 O 0.28540(18) 0.6231(2) 0.1347(2)
C46_5 C 0.1452(2) 0.6812(3) 0.1787(3)
C47_5 C 0.10365(15) 0.69069(18) 0.21319(15)
C48_5 C 0.07674(17) 0.70567(18) 0.21271(16)
H21_5 H 0.0720 0.7183 0.1966
C49_5 C 0.05672(13) 0.70211(18) 0.23586(19)
C50_5 C 0.06362(14) 0.68358(18) 0.25948(16)
H22_5 H 0.0499 0.6812 0.2753
C51_5 C 0.09054(15) 0.66860(16) 0.25996(14)
C52_5 C 0.11055(12) 0.67216(16) 0.23681(16)
H23_5 H 0.1289 0.6619 0.2371
C53_5 C 0.0287(4) 0.7194(4) 0.2367(4)
C54_5 C 0.0994(3) 0.6500(3) 0.2848(3)
N11_5 N 0.1584(2) 0.6949(2) 0.15603(19)
N12_5 N 0.1212(2) 0.6952(2) 0.1909(2)
H24_5 H 0.1164 0.7113 0.1810
O22_5 O 0.0239(3) 0.7363(3) 0.2138(3)
O23_5 O 0.01026(19) 0.7147(3) 0.2534(3)
O25_5 O 0.1231(2) 0.6347(2) 0.28540(18)
O56_5 O 0.10384(19) 0.91616(18) 0.16694(19)
O63_5 O 0.2637(3) 0.7862(3) 0.0239(3)
O68_5 O 0.2853(3) 0.7466(3) 0.01026(19)
Zn9_5 Zn 0.2500 0.7500 0.98274(3)
O57_5 O 0.2608(2) 0.7842(2) 0.95786(16)
O59_5 O 0.2392(2) 0.7158(2) 0.95786(16)
Zn3_12 Zn 1.0000 0.23274(3) 0.0000
C66_5 C 0.87267(14) 0.10999(14) 0.01428(17)
H29_5 H 0.8873 0.1241 0.0196
C67_5 C 0.85146(16) 0.10124(16) 0.03483(13)
C68_5 C 0.83003(14) 0.08055(17) 0.02700(16)
H30_5 H 0.8155 0.0746 0.0410
C71_5 C 0.8523(3) 0.1139(3) 0.0643(3)
O33_5 O 0.79214(16) 0.0342(2) 0.0108(2)
O60_5 O 0.9892(2) 0.20786(16) 0.0342(2)
O61_5 O 0.9863(3) 0.2739(3) 0.0362(3)
Zn3_13 Zn 1.0000 0.23274(3) 1.0000
C55_5 C 0.9420(3) 0.0939(2) 0.9067(3)
C56_5 C 0.98589(15) 0.12754(15) 0.90196(16)
C60_5 C 0.99860(18) 0.17019(14) 0.93140(15)
C61_5 C 0.97805(13) 0.14897(17) 0.92266(17)
H27_5 H 0.9586 0.1491 0.9308
C63_5 C 0.9889(3) 0.1918(2) 0.9540(3)
N13_5 N 0.9315(2) 0.10645(16) 0.9311(2)
N14_5 N 0.96648(18) 0.1046(2) 0.8939(2)
H28_5 H 0.9713 0.0957 0.8772
O29_5 O 0.9644(2) 0.19372(17) 0.9625(2)
C64_5 C 0.9061(2) 0.0933(3) 0.9420(3)
C65_5 C 0.87246(15) 0.09804(16) 0.98589(15)
C69_5 C 0.82981(14) 0.06860(15) 0.99860(18)
C70_5 C 0.85103(17) 0.07734(17) 0.97805(13)
H31_5 H 0.8509 0.0692 0.9586
C72_5 C 0.8082(2) 0.0460(3) 0.9889(3)
N15_5 N 0.89355(16) 0.0689(2) 0.9315(2)
N16_5 N 0.8954(2) 0.1061(2) 0.96648(18)
H32_5 H 0.9043 0.1228 0.9713
O34_5 O 0.80628(17) 0.0375(2) 0.9644(2)
C73_5 C 0.9067(3) 0.0580(3) 0.9061(2)
C74_5 C 0.90196(16) 0.01411(15) 0.87246(15)
C78_5 C 0.93140(15) 0.00140(18) 0.82981(14)
C79_5 C 0.92266(17) 0.02195(13) 0.85103(17)
H35_5 H 0.9308 0.0414 0.8509
C81_5 C 0.9540(3) 0.0111(3) 0.8082(2)
N17_5 N 0.9311(2) 0.0685(2) 0.89355(16)
N18_5 N 0.8939(2) 0.03352(18) 0.8954(2)
H36_5 H 0.8772 0.0287 0.9043
O38_5 O 0.9625(2) 0.0356(2) 0.80628(17)
O66_5 O 0.9647(3) 0.26026(19) 0.9966(3)
C75_5 C 0.89001(14) 0.98572(17) 0.87267(14)
H33_5 H 0.8759 0.9804 0.8873
C76_5 C 0.89876(16) 0.96517(13) 0.85146(16)
C77_5 C 0.91945(17) 0.97300(16) 0.83003(14)
H34_5 H 0.9254 0.9590 0.8155
C80_5 C 0.8861(3) 0.9357(3) 0.8523(3)
O35_5 O 0.8680(2) 0.93099(18) 0.8727(2)
O37_5 O 0.9658(2) 0.9892(2) 0.79214(16)
C10_6 C 0.6812(3) 0.3213(3) 0.3548(2)
C11_6 C 0.69069(18) 0.28681(15) 0.39635(15)
C12_6 C 0.70567(18) 0.28729(16) 0.42326(17)
H4_6 H 0.7183 0.3034 0.4280
C13_6 C 0.70211(18) 0.26414(19) 0.44328(13)
C14_6 C 0.68358(18) 0.24052(16) 0.43638(14)
H5_6 H 0.6812 0.2247 0.4501
C15_6 C 0.66860(16) 0.24004(14) 0.40946(15)
C16_6 C 0.67216(16) 0.26319(16) 0.38945(12)
H6_6 H 0.6619 0.2629 0.3711
C17_6 C 0.7194(4) 0.2633(4) 0.4713(4)
C18_6 C 0.6500(3) 0.2152(3) 0.4006(3)
N3_6 N 0.6949(2) 0.34397(19) 0.3416(2)
N4_6 N 0.6952(2) 0.3091(2) 0.3788(2)
H8_6 H 0.7113 0.3190 0.3836
O5_6 O 0.7363(3) 0.2862(3) 0.4761(3)
O6_6 O 0.7147(3) 0.2466(3) 0.48974(19)
O8_6 O 0.6347(2) 0.21460(18) 0.3769(2)
C37_6 C 0.6787(3) 0.3548(2) 0.3188(3)
C38_6 C 0.71319(15) 0.39635(15) 0.30931(18)
C39_6 C 0.71271(16) 0.42326(17) 0.29433(18)
H17_6 H 0.6966 0.4280 0.2817
C40_6 C 0.73586(19) 0.44328(13) 0.29789(18)
C41_6 C 0.75948(16) 0.43638(14) 0.31642(18)
H18_6 H 0.7753 0.4501 0.3188
C42_6 C 0.75996(14) 0.40946(15) 0.33140(16)
C43_6 C 0.73681(16) 0.38945(12) 0.32784(16)
H19_6 H 0.7371 0.3711 0.3381
C44_6 C 0.7367(4) 0.4713(4) 0.2806(4)
C45_6 C 0.7848(3) 0.4006(3) 0.3500(3)
N9_6 N 0.65603(19) 0.3416(2) 0.3051(2)
N10_6 N 0.6909(2) 0.3788(2) 0.3048(2)
H20_6 H 0.6810 0.3836 0.2887
O18_6 O 0.7138(3) 0.4761(3) 0.2637(3)
O19_6 O 0.7534(3) 0.48974(19) 0.2853(3)
O20_6 O 0.80816(18) 0.41729(17) 0.34840(19)
O21_6 O 0.78540(18) 0.3769(2) 0.3653(2)
C46_6 C 0.6452(2) 0.3188(3) 0.3213(3)
C47_6 C 0.60365(15) 0.30931(18) 0.28681(15)
C48_6 C 0.57674(17) 0.29433(18) 0.28729(16)
H21_6 H 0.5720 0.2817 0.3034
C49_6 C 0.55672(13) 0.29789(18) 0.26414(19)
C50_6 C 0.56362(14) 0.31642(18) 0.24052(16)
H22_6 H 0.5499 0.3188 0.2247
C51_6 C 0.59054(15) 0.33140(16) 0.24004(14)
C52_6 C 0.61055(12) 0.32784(16) 0.26319(16)
H23_6 H 0.6289 0.3381 0.2629
C53_6 C 0.5287(4) 0.2806(4) 0.2633(4)
C54_6 C 0.5994(3) 0.3500(3) 0.2152(3)
N11_6 N 0.6584(2) 0.3051(2) 0.34397(19)
N12_6 N 0.6212(2) 0.3048(2) 0.3091(2)
H24_6 H 0.6164 0.2887 0.3190
O22_6 O 0.5239(3) 0.2637(3) 0.2862(3)
O23_6 O 0.51026(19) 0.2853(3) 0.2466(3)
O25_6 O 0.6231(2) 0.3653(2) 0.21460(18)
C75_6 C 0.39001(14) 0.01428(17) 0.62733(14)
H33_6 H 0.3759 0.0196 0.6127
C76_6 C 0.39876(16) 0.03483(13) 0.64854(16)
C77_6 C 0.41945(17) 0.02700(16) 0.66997(14)
H34_6 H 0.4254 0.0410 0.6845
C80_6 C 0.3861(3) 0.0643(3) 0.6477(3)
O35_6 O 0.3680(2) 0.06901(18) 0.6273(2)
O37_6 O 0.4658(2) 0.0108(2) 0.70786(16)
Zn9_6 Zn 0.7500 0.2500 0.51726(3)
O56_6 O 0.60384(19) 0.08384(18) 0.33306(19)
O57_6 O 0.7608(2) 0.2158(2) 0.54214(16)
O59_6 O 0.7392(2) 0.2842(2) 0.54214(16)
O63_6 O 0.7637(3) 0.2138(3) 0.4761(3)
O68_6 O 0.7853(3) 0.2534(3) 0.48974(19)
Zn3_14 Zn 0.5000 0.76726(3) 0.5000
C55_6 C 0.4420(3) 0.9061(2) 0.5933(3)
C56_6 C 0.48589(15) 0.87246(15) 0.59804(16)
C57_6 C 0.51428(17) 0.87267(14) 0.60999(14)
H25_6 H 0.5196 0.8873 0.6241
C58_6 C 0.53483(13) 0.85146(16) 0.60124(16)
C59_6 C 0.52700(16) 0.83003(14) 0.58055(17)
H26_6 H 0.5410 0.8155 0.5746
C60_6 C 0.49860(18) 0.82981(14) 0.56860(15)
C61_6 C 0.47805(13) 0.85103(17) 0.57734(17)
H27_6 H 0.4586 0.8509 0.5692
C62_6 C 0.5643(3) 0.8523(3) 0.6139(3)
C63_6 C 0.4889(3) 0.8082(2) 0.5460(3)
N13_6 N 0.4315(2) 0.89355(16) 0.5689(2)
N14_6 N 0.46648(18) 0.8954(2) 0.6061(2)
H28_6 H 0.4713 0.9043 0.6228
O27_6 O 0.58384(18) 0.83306(19) 0.60384(19)
O28_6 O 0.5108(2) 0.79214(16) 0.5342(2)
O29_6 O 0.4644(2) 0.80628(17) 0.5375(2)
C64_6 C 0.4061(2) 0.9067(3) 0.5580(3)
C65_6 C 0.37246(15) 0.90196(16) 0.51411(15)
C66_6 C 0.37267(14) 0.89001(14) 0.48572(17)
H29_6 H 0.3873 0.8759 0.4804
C67_6 C 0.35146(16) 0.89876(16) 0.46517(13)
C68_6 C 0.33003(14) 0.91945(17) 0.47300(16)
H30_6 H 0.3155 0.9254 0.4590
C69_6 C 0.32981(14) 0.93140(15) 0.50140(18)
C70_6 C 0.35103(17) 0.92266(17) 0.52195(13)
H31_6 H 0.3509 0.9308 0.5414
C71_6 C 0.3523(3) 0.8861(3) 0.4357(3)
C72_6 C 0.3082(2) 0.9540(3) 0.5111(3)
N15_6 N 0.39355(16) 0.9311(2) 0.5685(2)
N16_6 N 0.3954(2) 0.8939(2) 0.53352(18)
H32_6 H 0.4043 0.8772 0.5287
O33_6 O 0.29214(16) 0.9658(2) 0.4892(2)
O34_6 O 0.30628(17) 0.9625(2) 0.5356(2)
C73_6 C 0.4067(3) 0.9420(3) 0.5939(2)
C74_6 C 0.40196(16) 0.98589(15) 0.62754(15)
C78_6 C 0.43140(15) 0.99860(18) 0.67019(14)
C79_6 C 0.42266(17) 0.97805(13) 0.64897(17)
H35_6 H 0.4308 0.9586 0.6491
C81_6 C 0.4540(3) 0.9889(3) 0.6918(2)
N17_6 N 0.4311(2) 0.9315(2) 0.60645(16)
N18_6 N 0.3939(2) 0.96648(18) 0.6046(2)
H36_6 H 0.3772 0.9713 0.5957
O38_6 O 0.4625(2) 0.9644(2) 0.69372(17)
Zn6_6 Zn 0.62620(4) 0.83898(4) 0.60282(4)
O52_6 O 0.6273(2) 0.8680(2) 0.56901(18)
O60_6 O 0.4892(2) 0.79214(16) 0.4658(2)
O61_6 O 0.4863(3) 0.7261(3) 0.4638(3)
O65_6 O 0.5137(3) 0.7261(3) 0.5362(3)
O66_6 O 0.4647(3) 0.73974(19) 0.5034(3)
O70_6 O 0.5353(3) 0.73974(19) 0.4966(3)
O73_6 O 0.65160(19) 0.80816(18) 0.58271(17)
Zn3_15 Zn 0.0000 0.26726(3) 0.5000
C55_7 C 0.0580(3) 0.4061(2) 0.4067(3)
C56_7 C 0.01411(15) 0.37246(15) 0.40196(16)
C60_7 C 0.00140(18) 0.32981(14) 0.43140(15)
C61_7 C 0.02195(13) 0.35103(17) 0.42266(17)
H27_7 H 0.0414 0.3509 0.4308
C63_7 C 0.0111(3) 0.3082(2) 0.4540(3)
N13_7 N 0.0685(2) 0.39355(16) 0.4311(2)
N14_7 N 0.03352(18) 0.3954(2) 0.3939(2)
H28_7 H 0.0287 0.4043 0.3772
O29_7 O 0.0356(2) 0.30628(17) 0.4625(2)
C64_7 C 0.0939(2) 0.4067(3) 0.4420(3)
C65_7 C 0.12754(15) 0.40196(16) 0.48589(15)
C66_7 C 0.12733(14) 0.39001(14) 0.51428(17)
H29_7 H 0.1127 0.3759 0.5196
C67_7 C 0.14854(16) 0.39876(16) 0.53483(13)
C68_7 C 0.16997(14) 0.41945(17) 0.52700(16)
H30_7 H 0.1845 0.4254 0.5410
C69_7 C 0.17019(14) 0.43140(15) 0.49860(18)
C70_7 C 0.14897(17) 0.42266(17) 0.47805(13)
H31_7 H 0.1491 0.4308 0.4586
C71_7 C 0.1477(3) 0.3861(3) 0.5643(3)
C72_7 C 0.1918(2) 0.4540(3) 0.4889(3)
N15_7 N 0.10645(16) 0.4311(2) 0.4315(2)
N16_7 N 0.1046(2) 0.3939(2) 0.46648(18)
H32_7 H 0.0957 0.3772 0.4713
O33_7 O 0.20786(16) 0.4658(2) 0.5108(2)
O34_7 O 0.19372(17) 0.4625(2) 0.4644(2)
C73_7 C 0.0933(3) 0.4420(3) 0.4061(2)
C74_7 C 0.09804(16) 0.48589(15) 0.37246(15)
C75_7 C 0.10999(14) 0.51428(17) 0.37267(14)
H33_7 H 0.1241 0.5196 0.3873
C76_7 C 0.10124(16) 0.53483(13) 0.35146(16)
C77_7 C 0.08055(17) 0.52700(16) 0.33003(14)
H34_7 H 0.0746 0.5410 0.3155
C78_7 C 0.06860(15) 0.49860(18) 0.32981(14)
C79_7 C 0.07734(17) 0.47805(13) 0.35103(17)
H35_7 H 0.0692 0.4586 0.3509
C80_7 C 0.1139(3) 0.5643(3) 0.3523(3)
C81_7 C 0.0460(3) 0.4889(3) 0.3082(2)
N17_7 N 0.0689(2) 0.4315(2) 0.39355(16)
N18_7 N 0.1061(2) 0.46648(18) 0.3954(2)
H36_7 H 0.1228 0.4713 0.4043
O35_7 O 0.1320(2) 0.56901(18) 0.3727(2)
O37_7 O 0.0342(2) 0.5108(2) 0.29214(16)
O38_7 O 0.0375(2) 0.4644(2) 0.30628(17)
O60_7 O 0.0108(2) 0.29214(16) 0.5342(2)
O61_7 O 0.0137(3) 0.2261(3) 0.5362(3)
O66_7 O 0.0353(3) 0.23974(19) 0.4966(3)
C10_7 C 0.8188(3) 0.8213(3) 0.6452(2)
C11_7 C 0.80931(18) 0.78681(15) 0.60365(15)
C12_7 C 0.79433(18) 0.78729(16) 0.57674(17)
H4_7 H 0.7817 0.8034 0.5720
C13_7 C 0.79789(18) 0.76414(19) 0.55672(13)
C14_7 C 0.81642(18) 0.74052(16) 0.56362(14)
H5_7 H 0.8188 0.7247 0.5499
C15_7 C 0.83140(16) 0.74004(14) 0.59054(15)
C16_7 C 0.82784(16) 0.76319(16) 0.61055(12)
H6_7 H 0.8381 0.7629 0.6289
C17_7 C 0.7806(4) 0.7633(4) 0.5287(4)
C18_7 C 0.8500(3) 0.7152(3) 0.5994(3)
N3_7 N 0.8051(2) 0.84397(19) 0.6584(2)
N4_7 N 0.8048(2) 0.8091(2) 0.6212(2)
H8_7 H 0.7887 0.8190 0.6164
O5_7 O 0.7637(3) 0.7862(3) 0.5239(3)
O6_7 O 0.7853(3) 0.7466(3) 0.51026(19)
O8_7 O 0.8653(2) 0.71460(18) 0.6231(2)
C37_7 C 0.8213(3) 0.8548(2) 0.6812(3)
C38_7 C 0.78681(15) 0.89635(15) 0.69069(18)
C39_7 C 0.78729(16) 0.92326(17) 0.70567(18)
H17_7 H 0.8034 0.9280 0.7183
C40_7 C 0.76414(19) 0.94328(13) 0.70211(18)
C41_7 C 0.74052(16) 0.93638(14) 0.68358(18)
H18_7 H 0.7247 0.9501 0.6812
C42_7 C 0.74004(14) 0.90946(15) 0.66860(16)
C43_7 C 0.76319(16) 0.88945(12) 0.67216(16)
H19_7 H 0.7629 0.8711 0.6619
C44_7 C 0.7633(4) 0.9713(4) 0.7194(4)
C45_7 C 0.7152(3) 0.9006(3) 0.6500(3)
N9_7 N 0.84397(19) 0.8416(2) 0.6949(2)
N10_7 N 0.8091(2) 0.8788(2) 0.6952(2)
H20_7 H 0.8190 0.8836 0.7113
O18_7 O 0.7862(3) 0.9761(3) 0.7363(3)
O19_7 O 0.7466(3) 0.98974(19) 0.7147(3)
O20_7 O 0.69184(18) 0.91729(17) 0.65160(19)
O21_7 O 0.71460(18) 0.8769(2) 0.6347(2)
C46_7 C 0.8548(2) 0.8188(3) 0.6787(3)
C47_7 C 0.89635(15) 0.80931(18) 0.71319(15)
C48_7 C 0.92326(17) 0.79433(18) 0.71271(16)
H21_7 H 0.9280 0.7817 0.6966
C49_7 C 0.94328(13) 0.79789(18) 0.73586(19)
C50_7 C 0.93638(14) 0.81642(18) 0.75948(16)
H22_7 H 0.9501 0.8188 0.7753
C51_7 C 0.90946(15) 0.83140(16) 0.75996(14)
C52_7 C 0.88945(12) 0.82784(16) 0.73681(16)
H23_7 H 0.8711 0.8381 0.7371
C53_7 C 0.9713(4) 0.7806(4) 0.7367(4)
C54_7 C 0.9006(3) 0.8500(3) 0.7848(3)
N11_7 N 0.8416(2) 0.8051(2) 0.65603(19)
N12_7 N 0.8788(2) 0.8048(2) 0.6909(2)
H24_7 H 0.8836 0.7887 0.6810
O22_7 O 0.9761(3) 0.7637(3) 0.7138(3)
O23_7 O 0.98974(19) 0.7853(3) 0.7534(3)
O25_7 O 0.8769(2) 0.8653(2) 0.78540(18)
Zn3_16 Zn 1.0000 0.26726(3) 0.5000
C57_7 C 0.98572(17) 0.37267(14) 0.39001(14)
H25_7 H 0.9804 0.3873 0.3759
C58_7 C 0.96517(13) 0.35146(16) 0.39876(16)
C59_7 C 0.97300(16) 0.33003(14) 0.41945(17)
H26_7 H 0.9590 0.3155 0.4254
C62_7 C 0.9357(3) 0.3523(3) 0.3861(3)
O27_7 O 0.91616(18) 0.33306(19) 0.39616(19)
O28_7 O 0.9892(2) 0.29214(16) 0.4658(2)
Zn6_7 Zn 0.87380(4) 0.33898(4) 0.39718(4)
Zn9_7 Zn 0.7500 0.7500 0.48274(3)
O52_7 O 0.8727(2) 0.3680(2) 0.43099(18)
O56_7 O 0.89616(19) 0.58384(18) 0.66694(19)
O57_7 O 0.7392(2) 0.7158(2) 0.45786(16)
O59_7 O 0.7608(2) 0.7842(2) 0.45786(16)
O63_7 O 0.7363(3) 0.7138(3) 0.5239(3)
O65_7 O 0.9863(3) 0.2261(3) 0.4638(3)
O68_7 O 0.7147(3) 0.7534(3) 0.51026(19)
O70_7 O 0.9647(3) 0.23974(19) 0.5034(3)
O73_7 O 0.84840(19) 0.30816(18) 0.41729(17)
Zn3_17 Zn 0.5000 0.73274(3) 0.0000
C55_8 C 0.5580(3) 0.5939(2) 0.0933(3)
C56_8 C 0.51411(15) 0.62754(15) 0.09804(16)
C57_8 C 0.48572(17) 0.62733(14) 0.10999(14)
H25_8 H 0.4804 0.6127 0.1241
C58_8 C 0.46517(13) 0.64854(16) 0.10124(16)
C59_8 C 0.47300(16) 0.66997(14) 0.08055(17)
H26_8 H 0.4590 0.6845 0.0746
C60_8 C 0.50140(18) 0.67019(14) 0.06860(15)
C61_8 C 0.52195(13) 0.64897(17) 0.07734(17)
H27_8 H 0.5414 0.6491 0.0692
C62_8 C 0.4357(3) 0.6477(3) 0.1139(3)
C63_8 C 0.5111(3) 0.6918(2) 0.0460(3)
N13_8 N 0.5685(2) 0.60645(16) 0.0689(2)
N14_8 N 0.53352(18) 0.6046(2) 0.1061(2)
H28_8 H 0.5287 0.5957 0.1228
O27_8 O 0.41616(18) 0.66694(19) 0.10384(19)
O28_8 O 0.4892(2) 0.70786(16) 0.0342(2)
O29_8 O 0.5356(2) 0.69372(17) 0.0375(2)
C64_8 C 0.5939(2) 0.5933(3) 0.0580(3)
C65_8 C 0.62754(15) 0.59804(16) 0.01411(15)
C69_8 C 0.67019(14) 0.56860(15) 0.00140(18)
C70_8 C 0.64897(17) 0.57734(17) 0.02195(13)
H31_8 H 0.6491 0.5692 0.0414
C72_8 C 0.6918(2) 0.5460(3) 0.0111(3)
N15_8 N 0.60645(16) 0.5689(2) 0.0685(2)
N16_8 N 0.6046(2) 0.6061(2) 0.03352(18)
H32_8 H 0.5957 0.6228 0.0287
O34_8 O 0.69372(17) 0.5375(2) 0.0356(2)
C73_8 C 0.5933(3) 0.5580(3) 0.0939(2)
C74_8 C 0.59804(16) 0.51411(15) 0.12754(15)
C75_8 C 0.60999(14) 0.48572(17) 0.12733(14)
H33_8 H 0.6241 0.4804 0.1127
C76_8 C 0.60124(16) 0.46517(13) 0.14854(16)
C77_8 C 0.58055(17) 0.47300(16) 0.16997(14)
H34_8 H 0.5746 0.4590 0.1845
C78_8 C 0.56860(15) 0.50140(18) 0.17019(14)
C79_8 C 0.57734(17) 0.52195(13) 0.14897(17)
H35_8 H 0.5692 0.5414 0.1491
C80_8 C 0.6139(3) 0.4357(3) 0.1477(3)
C81_8 C 0.5460(3) 0.5111(3) 0.1918(2)
N17_8 N 0.5689(2) 0.5685(2) 0.10645(16)
N18_8 N 0.6061(2) 0.53352(18) 0.1046(2)
H36_8 H 0.6228 0.5287 0.0957
O35_8 O 0.6320(2) 0.43099(18) 0.1273(2)
O37_8 O 0.5342(2) 0.4892(2) 0.20786(16)
O38_8 O 0.5375(2) 0.5356(2) 0.19372(17)
Zn6_8 Zn 0.37380(4) 0.66102(4) 0.10282(4)
Zn9_8 Zn 0.2500 0.2500 0.01726(3)
O52_8 O 0.3727(2) 0.6320(2) 0.06901(18)
O57_8 O 0.2392(2) 0.2842(2) 0.04214(16)
O59_8 O 0.2608(2) 0.2158(2) 0.04214(16)
O65_8 O 0.4863(3) 0.7739(3) 0.0362(3)
O66_8 O 0.5353(3) 0.76026(19) 0.0034(3)
O73_8 O 0.34840(19) 0.69184(18) 0.08271(17)
C10_8 C 0.3188(3) 0.1787(3) 0.8548(2)
C11_8 C 0.30931(18) 0.21319(15) 0.89635(15)
C12_8 C 0.29433(18) 0.21271(16) 0.92326(17)
H4_8 H 0.2817 0.1966 0.9280
C13_8 C 0.29789(18) 0.23586(19) 0.94328(13)
C14_8 C 0.31642(18) 0.25948(16) 0.93638(14)
H5_8 H 0.3188 0.2753 0.9501
C15_8 C 0.33140(16) 0.25996(14) 0.90946(15)
C16_8 C 0.32784(16) 0.23681(16) 0.88945(12)
H6_8 H 0.3381 0.2371 0.8711
C17_8 C 0.2806(4) 0.2367(4) 0.9713(4)
C18_8 C 0.3500(3) 0.2848(3) 0.9006(3)
N3_8 N 0.3051(2) 0.15603(19) 0.8416(2)
N4_8 N 0.3048(2) 0.1909(2) 0.8788(2)
H8_8 H 0.2887 0.1810 0.8836
O5_8 O 0.2637(3) 0.2138(3) 0.9761(3)
O6_8 O 0.2853(3) 0.2534(3) 0.98974(19)
O8_8 O 0.3653(2) 0.28540(18) 0.8769(2)
C37_8 C 0.3213(3) 0.1452(2) 0.8188(3)
C38_8 C 0.28681(15) 0.10365(15) 0.80931(18)
C39_8 C 0.28729(16) 0.07674(17) 0.79433(18)
H17_8 H 0.3034 0.0720 0.7817
C40_8 C 0.26414(19) 0.05672(13) 0.79789(18)
C41_8 C 0.24052(16) 0.06362(14) 0.81642(18)
H18_8 H 0.2247 0.0499 0.8188
C42_8 C 0.24004(14) 0.09054(15) 0.83140(16)
C43_8 C 0.26319(16) 0.11055(12) 0.82784(16)
H19_8 H 0.2629 0.1289 0.8381
C44_8 C 0.2633(4) 0.0287(4) 0.7806(4)
C45_8 C 0.2152(3) 0.0994(3) 0.8500(3)
N9_8 N 0.34397(19) 0.1584(2) 0.8051(2)
N10_8 N 0.3091(2) 0.1212(2) 0.8048(2)
H20_8 H 0.3190 0.1164 0.7887
O18_8 O 0.2862(3) 0.0239(3) 0.7637(3)
O19_8 O 0.2466(3) 0.01026(19) 0.7853(3)
O20_8 O 0.19184(18) 0.08271(17) 0.84840(19)
O21_8 O 0.21460(18) 0.1231(2) 0.8653(2)
C46_8 C 0.3548(2) 0.1812(3) 0.8213(3)
C47_8 C 0.39635(15) 0.19069(18) 0.78681(15)
C48_8 C 0.42326(17) 0.20567(18) 0.78729(16)
H21_8 H 0.4280 0.2183 0.8034
C49_8 C 0.44328(13) 0.20211(18) 0.76414(19)
C50_8 C 0.43638(14) 0.18358(18) 0.74052(16)
H22_8 H 0.4501 0.1812 0.7247
C51_8 C 0.40946(15) 0.16860(16) 0.74004(14)
C52_8 C 0.38945(12) 0.17216(16) 0.76319(16)
H23_8 H 0.3711 0.1619 0.7629
C53_8 C 0.4713(4) 0.2194(4) 0.7633(4)
C54_8 C 0.4006(3) 0.1500(3) 0.7152(3)
N11_8 N 0.3416(2) 0.1949(2) 0.84397(19)
N12_8 N 0.3788(2) 0.1952(2) 0.8091(2)
H24_8 H 0.3836 0.2113 0.8190
O22_8 O 0.4761(3) 0.2363(3) 0.7862(3)
O23_8 O 0.48974(19) 0.2147(3) 0.7466(3)
O25_8 O 0.3769(2) 0.1347(2) 0.71460(18)
Zn3_18 Zn 0.5000 0.73274(3) 1.0000
C66_8 C 0.62733(14) 0.60999(14) 0.98572(17)
H29_8 H 0.6127 0.6241 0.9804
C67_8 C 0.64854(16) 0.60124(16) 0.96517(13)
C68_8 C 0.66997(14) 0.58055(17) 0.97300(16)
H30_8 H 0.6845 0.5746 0.9590
C71_8 C 0.6477(3) 0.6139(3) 0.9357(3)
O33_8 O 0.70786(16) 0.5342(2) 0.9892(2)
O56_8 O 0.39616(19) 0.41616(18) 0.83306(19)
O60_8 O 0.5108(2) 0.70786(16) 0.9658(2)
O61_8 O 0.5137(3) 0.7739(3) 0.9638(3)
O63_8 O 0.2363(3) 0.2862(3) 0.9761(3)
O68_8 O 0.2147(3) 0.2466(3) 0.98974(19)
O70_8 O 0.4647(3) 0.76026(19) 0.9966(3)
O56_9 O 0.16694(19) 0.10384(19) 0.91616(18)
O63_9 O 0.0239(3) 0.2637(3) 0.7862(3)
O68_9 O 0.01026(19) 0.2853(3) 0.7466(3)
O52_9 O 0.93099(18) 0.1273(2) 0.1320(2)
O73_9 O 0.91729(17) 0.15160(19) 0.19184(18)
O57_9 O 0.95786(16) 0.2608(2) 0.7842(2)
O59_9 O 0.95786(16) 0.2392(2) 0.7158(2)
O56_10 O 0.33306(19) 0.60384(19) 0.08384(18)
O57_10 O 0.54214(16) 0.7608(2) 0.2158(2)
O59_10 O 0.54214(16) 0.7392(2) 0.2842(2)
O63_10 O 0.4761(3) 0.7637(3) 0.2138(3)
O68_10 O 0.48974(19) 0.7853(3) 0.2534(3)
O52_10 O 0.56901(18) 0.6273(2) 0.8680(2)
O73_10 O 0.58271(17) 0.65160(19) 0.80816(18)
O52_11 O 0.43099(18) 0.8727(2) 0.3680(2)
O56_11 O 0.66694(19) 0.89616(19) 0.58384(18)
O57_11 O 0.45786(16) 0.7392(2) 0.7158(2)
O59_11 O 0.45786(16) 0.7608(2) 0.7842(2)
O63_11 O 0.5239(3) 0.7363(3) 0.7138(3)
O68_11 O 0.51026(19) 0.7147(3) 0.7534(3)
O73_11 O 0.41729(17) 0.84840(19) 0.30816(18)
O52_12 O 0.06901(18) 0.3727(2) 0.6320(2)
O57_12 O 0.04214(16) 0.2392(2) 0.2842(2)
O59_12 O 0.04214(16) 0.2608(2) 0.2158(2)
O73_12 O 0.08271(17) 0.34840(19) 0.69184(18)
O56_12 O 0.83306(19) 0.39616(19) 0.41616(18)
O63_12 O 0.9761(3) 0.2363(3) 0.2862(3)
O68_12 O 0.98974(19) 0.2147(3) 0.2466(3)
C82_5 C 0.0713(3) 0.0688(3) 0.6048(2)
C83_5 C 0.03681(15) 0.05931(18) 0.64635(15)
C84_5 C 0.03729(16) 0.04433(18) 0.67326(17)
H37_5 H 0.0534 0.0317 0.6780
C85_5 C 0.01414(19) 0.04789(18) 0.69328(13)
C88_5 C 0.01319(16) 0.07784(16) 0.63945(12)
H39_5 H 0.0129 0.0881 0.6211
C89_5 C 0.0133(4) 0.0306(4) 0.7213(4)
N19_5 N 0.09397(19) 0.0551(2) 0.5916(2)
N20_5 N 0.0591(2) 0.0548(2) 0.6288(2)
H40_5 H 0.0690 0.0387 0.6336
O39_5 O 0.0362(3) 0.0137(3) 0.7261(3)
C91_5 C 0.1048(2) 0.0713(3) 0.5688(3)
C92_5 C 0.14635(15) 0.03681(15) 0.55931(18)
C93_5 C 0.17326(17) 0.03729(16) 0.54433(18)
H41_5 H 0.1780 0.0534 0.5317
C94_5 C 0.19328(13) 0.01414(19) 0.54789(18)
C97_5 C 0.13945(12) 0.01319(16) 0.57784(16)
H43_5 H 0.1211 0.0129 0.5881
C98_5 C 0.2213(4) 0.0133(4) 0.5306(4)
N21_5 N 0.0916(2) 0.09397(19) 0.5551(2)
N22_5 N 0.1288(2) 0.0591(2) 0.5548(2)
H44_5 H 0.1336 0.0690 0.5387
O43_5 O 0.2261(3) 0.0362(3) 0.5137(3)
C100_5 C 0.0688(3) 0.1048(2) 0.5713(3)
C101_5 C 0.05931(18) 0.14635(15) 0.53681(15)
C102_5 C 0.04433(18) 0.17326(17) 0.53729(16)
H45_5 H 0.0317 0.1780 0.5534
C103_5 C 0.04789(18) 0.19328(13) 0.51414(19)
C104_5 C 0.06642(18) 0.18638(14) 0.49052(16)
H46_5 H 0.0688 0.2001 0.4747
C105_5 C 0.08140(16) 0.15946(15) 0.49004(14)
C106_5 C 0.07784(16) 0.13945(12) 0.51319(16)
H47_5 H 0.0881 0.1211 0.5129
C107_5 C 0.0306(4) 0.2213(4) 0.5133(4)
C108_5 C 0.1000(3) 0.1506(3) 0.4652(3)
N23_5 N 0.0551(2) 0.0916(2) 0.59397(19)
N24_5 N 0.0548(2) 0.1288(2) 0.5591(2)
H48_5 H 0.0387 0.1336 0.5690
O49_3 O 0.09840(19) 0.16729(17) 0.44184(18)
O50_5 O 0.1153(2) 0.1269(2) 0.46460(18)
Zn17_3 Zn 0.12380(4) 0.14718(4) 0.41102(4)
C50_9 C 0.00948(16) 0.93358(18) 0.68638(14)
H22_9 H 0.0253 0.9312 0.7001
C51_9 C 0.00996(14) 0.91860(16) 0.65946(15)
C54_9 C 0.0348(3) 0.9000(3) 0.6506(3)
O23_9 O 0.0034(3) 0.9647(3) 0.73974(19)
O24_5 O 0.05816(18) 0.90160(19) 0.66729(17)
O25_9 O 0.03540(18) 0.8847(2) 0.6269(2)
C95_5 C 0.18638(14) 0.99052(16) 0.56642(18)
H42_5 H 0.2001 0.9747 0.5688
C96_5 C 0.15946(15) 0.99004(14) 0.58140(16)
C99_5 C 0.1506(3) 0.9652(3) 0.6000(3)
O44_5 O 0.23974(19) 0.9966(3) 0.5353(3)
O45_5 O 0.16729(17) 0.94184(18) 0.59840(19)
O46_5 O 0.1269(2) 0.96460(18) 0.6153(2)
Zn18_3 Zn 0.14718(4) 0.91102(4) 0.62380(4)
Zn23_3 Zn 0.08898(4) 0.87620(4) 0.64718(4)
Zn2_5 Zn 0.85282(4) 0.08898(4) 0.62380(4)
C1_5 C 0.6920(3) 0.1567(3) 0.6561(2)
C2_5 C 0.73589(15) 0.15196(16) 0.62246(15)
C3_5 C 0.76428(17) 0.14001(14) 0.62267(14)
H1_5 H 0.7696 0.1259 0.6373
C4_5 C 0.78483(13) 0.14876(16) 0.60146(16)
C5_5 C 0.77700(16) 0.16945(17) 0.58003(14)
H2_5 H 0.7910 0.1754 0.5655
C6_5 C 0.74860(18) 0.18140(15) 0.57981(14)
C7_5 C 0.72805(13) 0.17266(17) 0.60103(17)
H3_5 H 0.7086 0.1808 0.6009
C8_5 C 0.8143(3) 0.1361(3) 0.6023(3)
C9_5 C 0.7389(3) 0.2040(3) 0.5582(2)
C14_9 C 0.81362(14) 0.00948(16) 0.56642(18)
H5_9 H 0.7999 0.0253 0.5688
C15_9 C 0.84054(15) 0.00996(14) 0.58140(16)
C18_9 C 0.8494(3) 0.0348(3) 0.6000(3)
N1_5 N 0.6815(2) 0.1811(2) 0.64355(16)
N2_5 N 0.71648(18) 0.1439(2) 0.6454(2)
H7_5 H 0.7213 0.1272 0.6543
O1_5 O 0.81901(18) 0.1180(2) 0.6227(2)
O2_5 O 0.83384(18) 0.14616(19) 0.58306(19)
O4_5 O 0.7144(2) 0.2125(2) 0.55628(17)
O7_5 O 0.83271(17) 0.05816(18) 0.59840(19)
O8_9 O 0.8731(2) 0.03540(18) 0.6153(2)
O9_5 O 0.88879(13) 0.11121(13) 0.61121(13)
C19_5 C 0.6561(2) 0.1920(3) 0.6567(3)
C20_5 C 0.62246(15) 0.23589(15) 0.65196(16)
C21_5 C 0.62267(14) 0.26428(17) 0.64001(14)
H9_5 H 0.6373 0.2696 0.6259
C22_5 C 0.60146(16) 0.28483(13) 0.64876(16)
C23_5 C 0.58003(14) 0.27700(16) 0.66945(17)
H10_5 H 0.5655 0.2910 0.6754
C24_5 C 0.57981(14) 0.24860(18) 0.68140(15)
C25_5 C 0.60103(17) 0.22805(13) 0.67266(17)
H11_5 H 0.6009 0.2086 0.6808
C26_5 C 0.6023(3) 0.3143(3) 0.6361(3)
C27_5 C 0.5582(2) 0.2389(3) 0.7040(3)
N5_5 N 0.64355(16) 0.1815(2) 0.6811(2)
N6_5 N 0.6454(2) 0.21648(18) 0.6439(2)
H12_5 H 0.6543 0.2213 0.6272
O10_5 O 0.6227(2) 0.31901(18) 0.6180(2)
O11_5 O 0.58306(19) 0.33384(18) 0.64616(19)
O12_5 O 0.54214(16) 0.2608(2) 0.7158(2)
O13_5 O 0.55628(17) 0.2144(2) 0.7125(2)
C28_5 C 0.6567(3) 0.1561(2) 0.6920(3)
C29_5 C 0.65196(16) 0.12246(15) 0.73589(15)
C30_5 C 0.64001(14) 0.12267(14) 0.76428(17)
H13_5 H 0.6259 0.1373 0.7696
C31_5 C 0.64876(16) 0.10146(16) 0.78483(13)
C32_5 C 0.66945(17) 0.08003(14) 0.77700(16)
H14_5 H 0.6754 0.0655 0.7910
C33_5 C 0.68140(15) 0.07981(14) 0.74860(18)
C34_5 C 0.67266(17) 0.10103(17) 0.72805(13)
H15_5 H 0.6808 0.1009 0.7086
C35_5 C 0.6361(3) 0.1023(3) 0.8143(3)
C36_5 C 0.7040(3) 0.0582(2) 0.7389(3)
N7_5 N 0.6811(2) 0.14355(16) 0.6815(2)
N8_5 N 0.6439(2) 0.1454(2) 0.71648(18)
H16_5 H 0.6272 0.1543 0.7213
O14_5 O 0.6180(2) 0.1227(2) 0.81901(18)
O15_5 O 0.64616(19) 0.08306(19) 0.83384(18)
O16_5 O 0.7158(2) 0.04214(16) 0.7608(2)
O17_5 O 0.7125(2) 0.05628(17) 0.7144(2)
Zn4_5 Zn 0.58898(4) 0.37620(4) 0.64718(4)
C55_9 C 0.6567(3) 0.3439(2) 0.8080(3)
C56_9 C 0.65196(16) 0.37754(15) 0.76411(15)
C57_9 C 0.64001(14) 0.37733(14) 0.73572(17)
H25_9 H 0.6259 0.3627 0.7304
C58_9 C 0.64876(16) 0.39854(16) 0.71517(13)
C59_9 C 0.66945(17) 0.41997(14) 0.72300(16)
H26_9 H 0.6754 0.4345 0.7090
C60_9 C 0.68140(15) 0.42019(14) 0.75140(18)
C61_9 C 0.67266(17) 0.39897(17) 0.77195(13)
H27_9 H 0.6808 0.3991 0.7914
C62_9 C 0.6361(3) 0.3977(3) 0.6857(3)
C63_9 C 0.7040(3) 0.4418(2) 0.7611(3)
N13_9 N 0.6811(2) 0.35645(16) 0.8185(2)
N14_9 N 0.6439(2) 0.3546(2) 0.78352(18)
H28_9 H 0.6272 0.3457 0.7787
O26_5 O 0.6180(2) 0.3773(2) 0.68099(18)
O27_9 O 0.64616(19) 0.41694(19) 0.66616(18)
O29_9 O 0.7125(2) 0.44372(17) 0.7856(2)
O30_5 O 0.61121(13) 0.38879(13) 0.61121(13)
C64_9 C 0.6920(3) 0.3433(3) 0.8439(2)
C65_9 C 0.73589(15) 0.34804(16) 0.87754(15)
C66_9 C 0.76428(17) 0.35999(14) 0.87733(14)
H29_9 H 0.7696 0.3741 0.8627
C67_9 C 0.78483(13) 0.35124(16) 0.89854(16)
C68_9 C 0.77700(16) 0.33055(17) 0.91997(14)
H30_9 H 0.7910 0.3246 0.9345
C69_9 C 0.74860(18) 0.31860(15) 0.92019(14)
C70_9 C 0.72805(13) 0.32734(17) 0.89897(17)
H31_9 H 0.7086 0.3192 0.8991
C71_9 C 0.8143(3) 0.3639(3) 0.8977(3)
C72_9 C 0.7389(3) 0.2960(3) 0.9418(2)
N15_9 N 0.6815(2) 0.3189(2) 0.85645(16)
N16_9 N 0.71648(18) 0.3561(2) 0.8546(2)
H32_9 H 0.7213 0.3728 0.8457
O31_5 O 0.81901(18) 0.3820(2) 0.8773(2)
O32_5 O 0.83384(18) 0.35384(19) 0.91694(19)
O33_9 O 0.7608(2) 0.2842(2) 0.95786(16)
O34_9 O 0.7144(2) 0.2875(2) 0.94372(17)
C73_9 C 0.6561(2) 0.3080(3) 0.8433(3)
C74_9 C 0.62246(15) 0.26411(15) 0.84804(16)
C75_9 C 0.62267(14) 0.23572(17) 0.85999(14)
H33_9 H 0.6373 0.2304 0.8741
C76_9 C 0.60146(16) 0.21517(13) 0.85124(16)
C77_9 C 0.58003(14) 0.22300(16) 0.83055(17)
H34_9 H 0.5655 0.2090 0.8246
C78_9 C 0.57981(14) 0.25140(18) 0.81860(15)
C79_9 C 0.60103(17) 0.27195(13) 0.82734(17)
H35_9 H 0.6009 0.2914 0.8192
C80_9 C 0.6023(3) 0.1857(3) 0.8639(3)
C81_9 C 0.5582(2) 0.2611(3) 0.7960(3)
N17_9 N 0.64355(16) 0.3185(2) 0.8189(2)
N18_9 N 0.6454(2) 0.28352(18) 0.8561(2)
H36_9 H 0.6543 0.2787 0.8728
O35_9 O 0.6227(2) 0.18099(18) 0.8820(2)
O36_5 O 0.58306(19) 0.16616(18) 0.85384(19)
O37_9 O 0.54214(16) 0.2392(2) 0.7842(2)
O38_9 O 0.55628(17) 0.2856(2) 0.7875(2)
Zn5_3 Zn 0.87620(4) 0.35282(4) 0.91102(4)
Zn6_9 Zn 0.64718(4) 0.41102(4) 0.62380(4)
Zn7_5 Zn 0.91102(4) 0.12380(4) 0.64718(4)
C86_5 C 0.99052(16) 0.06642(18) 0.68638(14)
H38_5 H 0.9747 0.0688 0.7001
C87_5 C 0.99004(14) 0.08140(16) 0.65946(15)
C90_5 C 0.9652(3) 0.1000(3) 0.6506(3)
O40_5 O 0.9966(3) 0.0353(3) 0.73974(19)
O41_5 O 0.94184(18) 0.09840(19) 0.66729(17)
O42_5 O 0.96460(18) 0.1153(2) 0.6269(2)
Zn8_5 Zn 0.62380(4) 0.14718(4) 0.91102(4)
Zn19_3 Zn 0.64718(4) 0.08898(4) 0.87620(4)
Zn21_3 Zn 0.62380(4) 0.35282(4) 0.58898(4)
Zn22_5 Zn 0.85282(4) 0.41102(4) 0.87620(4)
Zn24_3 Zn 0.58898(4) 0.12380(4) 0.85282(4)
Zn25_5 Zn 0.87620(4) 0.14718(4) 0.58898(4)
O51_5 O 0.8773(2) 0.31901(18) 0.8820(2)
O52_13 O 0.68099(18) 0.3820(2) 0.6227(2)
O53_5 O 0.8820(2) 0.1227(2) 0.68099(18)
O54_5 O 0.85384(19) 0.08306(19) 0.66616(18)
O55_5 O 0.66616(18) 0.14616(19) 0.91694(19)
O56_13 O 0.91694(19) 0.16616(18) 0.64616(19)
O71_5 O 0.55816(18) 0.40160(19) 0.66729(17)
O72_3 O 0.90160(19) 0.33271(17) 0.94184(18)
O73_13 O 0.66729(17) 0.44184(18) 0.59840(19)
O74_5 O 0.59840(19) 0.16729(17) 0.94184(18)
O75_5 O 0.88879(13) 0.38879(13) 0.88879(13)
O76_5 O 0.61121(13) 0.11121(13) 0.88879(13)
C10_9 C 0.8952(2) 0.9287(3) 0.5688(3)
C11_9 C 0.85365(15) 0.96319(15) 0.55931(18)
C12_9 C 0.82674(17) 0.96271(16) 0.54433(18)
H4_9 H 0.8220 0.9466 0.5317
C13_9 C 0.80672(13) 0.98586(19) 0.54789(18)
C16_9 C 0.86055(12) 0.98681(16) 0.57784(16)
H6_9 H 0.8789 0.9871 0.5881
C17_9 C 0.7787(4) 0.9867(4) 0.5306(4)
N3_9 N 0.9084(2) 0.90603(19) 0.5551(2)
N4_9 N 0.8712(2) 0.9409(2) 0.5548(2)
H8_9 H 0.8664 0.9310 0.5387
C37_9 C 0.9312(3) 0.8952(2) 0.5713(3)
C38_9 C 0.94069(18) 0.85365(15) 0.53681(15)
C39_9 C 0.95567(18) 0.82674(17) 0.53729(16)
H17_9 H 0.9683 0.8220 0.5534
C40_9 C 0.95211(18) 0.80672(13) 0.51414(19)
C41_9 C 0.93358(18) 0.81362(14) 0.49052(16)
H18_9 H 0.9312 0.7999 0.4747
C42_9 C 0.91860(16) 0.84054(15) 0.49004(14)
C43_9 C 0.92216(16) 0.86055(12) 0.51319(16)
H19_9 H 0.9119 0.8789 0.5129
C44_9 C 0.9694(4) 0.7787(4) 0.5133(4)
C45_9 C 0.9000(3) 0.8494(3) 0.4652(3)
N9_9 N 0.9449(2) 0.9084(2) 0.59397(19)
N10_9 N 0.9452(2) 0.8712(2) 0.5591(2)
H20_9 H 0.9613 0.8664 0.5690
O18_9 O 0.9863(3) 0.7739(3) 0.5362(3)
O19_9 O 0.9647(3) 0.76026(19) 0.4966(3)
O20_9 O 0.90160(19) 0.83271(17) 0.44184(18)
O21_9 O 0.8847(2) 0.8731(2) 0.46460(18)
C46_9 C 0.9287(3) 0.9312(3) 0.6048(2)
C47_9 C 0.96319(15) 0.94069(18) 0.64635(15)
C48_9 C 0.96271(16) 0.95567(18) 0.67326(17)
H21_9 H 0.9466 0.9683 0.6780
C49_9 C 0.98586(19) 0.95211(18) 0.69328(13)
C52_9 C 0.98681(16) 0.92216(16) 0.63945(12)
H23_9 H 0.9871 0.9119 0.6211
C53_9 C 0.9867(4) 0.9694(4) 0.7213(4)
N11_9 N 0.90603(19) 0.9449(2) 0.5916(2)
N12_9 N 0.9409(2) 0.9452(2) 0.6288(2)
H24_9 H 0.9310 0.9613 0.6336
O22_9 O 0.9638(3) 0.9863(3) 0.7261(3)
Zn20_3 Zn 0.87620(4) 0.85282(4) 0.41102(4)
Zn2_6 Zn 0.14718(4) 0.41102(4) 0.12380(4)
C1_6 C 0.3080(3) 0.3433(3) 0.1561(2)
C2_6 C 0.26411(15) 0.34804(16) 0.12246(15)
C3_6 C 0.23572(17) 0.35999(14) 0.12267(14)
H1_6 H 0.2304 0.3741 0.1373
C4_6 C 0.21517(13) 0.35124(16) 0.10146(16)
C5_6 C 0.22300(16) 0.33055(17) 0.08003(14)
H2_6 H 0.2090 0.3246 0.0655
C6_6 C 0.25140(18) 0.31860(15) 0.07981(14)
C7_6 C 0.27195(13) 0.32734(17) 0.10103(17)
H3_6 H 0.2914 0.3192 0.1009
C8_6 C 0.1857(3) 0.3639(3) 0.1023(3)
C9_6 C 0.2611(3) 0.2960(3) 0.0582(2)
C10_10 C 0.1048(2) 0.5713(3) 0.0688(3)
C11_10 C 0.14635(15) 0.53681(15) 0.05931(18)
C12_10 C 0.17326(17) 0.53729(16) 0.04433(18)
H4_10 H 0.1780 0.5534 0.0317
C13_10 C 0.19328(13) 0.51414(19) 0.04789(18)
C14_10 C 0.18638(14) 0.49052(16) 0.06642(18)
H5_10 H 0.2001 0.4747 0.0688
C15_10 C 0.15946(15) 0.49004(14) 0.08140(16)
C16_10 C 0.13945(12) 0.51319(16) 0.07784(16)
H6_10 H 0.1211 0.5129 0.0881
C17_10 C 0.2213(4) 0.5133(4) 0.0306(4)
C18_10 C 0.1506(3) 0.4652(3) 0.1000(3)
N1_6 N 0.3185(2) 0.3189(2) 0.14355(16)
N2_6 N 0.28352(18) 0.3561(2) 0.1454(2)
H7_6 H 0.2787 0.3728 0.1543
N3_10 N 0.0916(2) 0.59397(19) 0.0551(2)
N4_10 N 0.1288(2) 0.5591(2) 0.0548(2)
H8_10 H 0.1336 0.5690 0.0387
O1_6 O 0.18099(18) 0.3820(2) 0.1227(2)
O2_6 O 0.16616(18) 0.35384(19) 0.08306(19)
O4_6 O 0.2856(2) 0.2875(2) 0.05628(17)
O7_6 O 0.16729(17) 0.44184(18) 0.09840(19)
O8_10 O 0.1269(2) 0.46460(18) 0.1153(2)
O9_6 O 0.11121(13) 0.38879(13) 0.11121(13)
C19_6 C 0.3439(2) 0.3080(3) 0.1567(3)
C20_6 C 0.37754(15) 0.26411(15) 0.15196(16)
C21_6 C 0.37733(14) 0.23572(17) 0.14001(14)
H9_6 H 0.3627 0.2304 0.1259
C22_6 C 0.39854(16) 0.21517(13) 0.14876(16)
C23_6 C 0.41997(14) 0.22300(16) 0.16945(17)
H10_6 H 0.4345 0.2090 0.1754
C24_6 C 0.42019(14) 0.25140(18) 0.18140(15)
C25_6 C 0.39897(17) 0.27195(13) 0.17266(17)
H11_6 H 0.3991 0.2914 0.1808
C26_6 C 0.3977(3) 0.1857(3) 0.1361(3)
C27_6 C 0.4418(2) 0.2611(3) 0.2040(3)
N5_6 N 0.35645(16) 0.3185(2) 0.1811(2)
N6_6 N 0.3546(2) 0.28352(18) 0.1439(2)
H12_6 H 0.3457 0.2787 0.1272
O10_6 O 0.3773(2) 0.18099(18) 0.1180(2)
O11_6 O 0.41694(19) 0.16616(18) 0.14616(19)
O12_6 O 0.45786(16) 0.2392(2) 0.2158(2)
O13_6 O 0.44372(17) 0.2856(2) 0.2125(2)
C28_6 C 0.3433(3) 0.3439(2) 0.1920(3)
C29_6 C 0.34804(16) 0.37754(15) 0.23589(15)
C30_6 C 0.35999(14) 0.37733(14) 0.26428(17)
H13_6 H 0.3741 0.3627 0.2696
C31_6 C 0.35124(16) 0.39854(16) 0.28483(13)
C32_6 C 0.33055(17) 0.41997(14) 0.27700(16)
H14_6 H 0.3246 0.4345 0.2910
C33_6 C 0.31860(15) 0.42019(14) 0.24860(18)
C34_6 C 0.32734(17) 0.39897(17) 0.22805(13)
H15_6 H 0.3192 0.3991 0.2086
C35_6 C 0.3639(3) 0.3977(3) 0.3143(3)
C36_6 C 0.2960(3) 0.4418(2) 0.2389(3)
N7_6 N 0.3189(2) 0.35645(16) 0.1815(2)
N8_6 N 0.3561(2) 0.3546(2) 0.21648(18)
H16_6 H 0.3728 0.3457 0.2213
O14_6 O 0.3820(2) 0.3773(2) 0.31901(18)
O15_6 O 0.35384(19) 0.41694(19) 0.33384(18)
O16_6 O 0.2842(2) 0.45786(16) 0.2608(2)
O17_6 O 0.2875(2) 0.44372(17) 0.2144(2)
C37_10 C 0.0688(3) 0.6048(2) 0.0713(3)
C38_10 C 0.05931(18) 0.64635(15) 0.03681(15)
C39_10 C 0.04433(18) 0.67326(17) 0.03729(16)
H17_10 H 0.0317 0.6780 0.0534
C40_10 C 0.04789(18) 0.69328(13) 0.01414(19)
C43_10 C 0.07784(16) 0.63945(12) 0.01319(16)
H19_10 H 0.0881 0.6211 0.0129
C44_10 C 0.0306(4) 0.7213(4) 0.0133(4)
N9_10 N 0.0551(2) 0.5916(2) 0.09397(19)
N10_10 N 0.0548(2) 0.6288(2) 0.0591(2)
H20_10 H 0.0387 0.6336 0.0690
O18_10 O 0.0137(3) 0.7261(3) 0.0362(3)
C46_10 C 0.0713(3) 0.5688(3) 0.1048(2)
C47_10 C 0.03681(15) 0.55931(18) 0.14635(15)
C48_10 C 0.03729(16) 0.54433(18) 0.17326(17)
H21_10 H 0.0534 0.5317 0.1780
C49_10 C 0.01414(19) 0.54789(18) 0.19328(13)
C52_10 C 0.01319(16) 0.57784(16) 0.13945(12)
H23_10 H 0.0129 0.5881 0.1211
C53_10 C 0.0133(4) 0.5306(4) 0.2213(4)
N11_10 N 0.09397(19) 0.5551(2) 0.0916(2)
N12_10 N 0.0591(2) 0.5548(2) 0.1288(2)
H24_10 H 0.0690 0.5387 0.1336
O22_10 O 0.0362(3) 0.5137(3) 0.2261(3)
Zn4_6 Zn 0.41102(4) 0.12380(4) 0.14718(4)
C55_10 C 0.3433(3) 0.1561(2) 0.3080(3)
C56_10 C 0.34804(16) 0.12246(15) 0.26411(15)
C57_10 C 0.35999(14) 0.12267(14) 0.23572(17)
H25_10 H 0.3741 0.1373 0.2304
C58_10 C 0.35124(16) 0.10146(16) 0.21517(13)
C59_10 C 0.33055(17) 0.08003(14) 0.22300(16)
H26_10 H 0.3246 0.0655 0.2090
C60_10 C 0.31860(15) 0.07981(14) 0.25140(18)
C61_10 C 0.32734(17) 0.10103(17) 0.27195(13)
H27_10 H 0.3192 0.1009 0.2914
C62_10 C 0.3639(3) 0.1023(3) 0.1857(3)
C63_10 C 0.2960(3) 0.0582(2) 0.2611(3)
N13_10 N 0.3189(2) 0.14355(16) 0.3185(2)
N14_10 N 0.3561(2) 0.1454(2) 0.28352(18)
H28_10 H 0.3728 0.1543 0.2787
O26_6 O 0.3820(2) 0.1227(2) 0.18099(18)
O27_10 O 0.35384(19) 0.08306(19) 0.16616(18)
O29_10 O 0.2875(2) 0.05628(17) 0.2856(2)
O30_6 O 0.38879(13) 0.11121(13) 0.11121(13)
C64_10 C 0.3080(3) 0.1567(3) 0.3439(2)
C65_10 C 0.26411(15) 0.15196(16) 0.37754(15)
C66_10 C 0.23572(17) 0.14001(14) 0.37733(14)
H29_10 H 0.2304 0.1259 0.3627
C67_10 C 0.21517(13) 0.14876(16) 0.39854(16)
C68_10 C 0.22300(16) 0.16945(17) 0.41997(14)
H30_10 H 0.2090 0.1754 0.4345
C69_10 C 0.25140(18) 0.18140(15) 0.42019(14)
C70_10 C 0.27195(13) 0.17266(17) 0.39897(17)
H31_10 H 0.2914 0.1808 0.3991
C71_10 C 0.1857(3) 0.1361(3) 0.3977(3)
C72_10 C 0.2611(3) 0.2040(3) 0.4418(2)
N15_10 N 0.3185(2) 0.1811(2) 0.35645(16)
N16_10 N 0.28352(18) 0.1439(2) 0.3546(2)
H32_10 H 0.2787 0.1272 0.3457
O31_6 O 0.18099(18) 0.1180(2) 0.3773(2)
O32_6 O 0.16616(18) 0.14616(19) 0.41694(19)
O33_10 O 0.2392(2) 0.2158(2) 0.45786(16)
O34_10 O 0.2856(2) 0.2125(2) 0.44372(17)
C73_10 C 0.3439(2) 0.1920(3) 0.3433(3)
C74_10 C 0.37754(15) 0.23589(15) 0.34804(16)
C75_10 C 0.37733(14) 0.26428(17) 0.35999(14)
H33_10 H 0.3627 0.2696 0.3741
C76_10 C 0.39854(16) 0.28483(13) 0.35124(16)
C77_10 C 0.41997(14) 0.27700(16) 0.33055(17)
H34_10 H 0.4345 0.2910 0.3246
C78_10 C 0.42019(14) 0.24860(18) 0.31860(15)
C79_10 C 0.39897(17) 0.22805(13) 0.32734(17)
H35_10 H 0.3991 0.2086 0.3192
C80_10 C 0.3977(3) 0.3143(3) 0.3639(3)
C81_10 C 0.4418(2) 0.2389(3) 0.2960(3)
N17_10 N 0.35645(16) 0.1815(2) 0.3189(2)
N18_10 N 0.3546(2) 0.21648(18) 0.3561(2)
H36_10 H 0.3457 0.2213 0.3728
O35_10 O 0.3773(2) 0.31901(18) 0.3820(2)
O36_6 O 0.41694(19) 0.33384(18) 0.35384(19)
O37_10 O 0.45786(16) 0.2608(2) 0.2842(2)
O38_10 O 0.44372(17) 0.2144(2) 0.2875(2)
Zn6_10 Zn 0.35282(4) 0.08898(4) 0.12380(4)
Zn7_6 Zn 0.08898(4) 0.37620(4) 0.14718(4)
C86_6 C 0.00948(16) 0.43358(18) 0.18638(14)
H38_6 H 0.0253 0.4312 0.2001
C87_6 C 0.00996(14) 0.41860(16) 0.15946(15)
C90_6 C 0.0348(3) 0.4000(3) 0.1506(3)
O40_6 O 0.0034(3) 0.4647(3) 0.23974(19)
O41_6 O 0.05816(18) 0.40160(19) 0.16729(17)
O42_6 O 0.03540(18) 0.3847(2) 0.1269(2)
Zn8_6 Zn 0.37620(4) 0.35282(4) 0.41102(4)
Zn19_4 Zn 0.35282(4) 0.41102(4) 0.37620(4)
Zn21_4 Zn 0.37620(4) 0.14718(4) 0.08898(4)
Zn22_6 Zn 0.14718(4) 0.08898(4) 0.37620(4)
Zn24_4 Zn 0.41102(4) 0.37620(4) 0.35282(4)
Zn25_6 Zn 0.12380(4) 0.35282(4) 0.08898(4)
O51_6 O 0.1227(2) 0.18099(18) 0.3820(2)
O52_14 O 0.31901(18) 0.1180(2) 0.1227(2)
O53_6 O 0.1180(2) 0.3773(2) 0.18099(18)
O54_6 O 0.14616(19) 0.41694(19) 0.16616(18)
O55_6 O 0.33384(18) 0.35384(19) 0.41694(19)
O56_14 O 0.08306(19) 0.33384(18) 0.14616(19)
O71_6 O 0.44184(18) 0.09840(19) 0.16729(17)
O73_14 O 0.33271(17) 0.05816(18) 0.09840(19)
O74_6 O 0.40160(19) 0.33271(17) 0.44184(18)
O75_6 O 0.11121(13) 0.11121(13) 0.38879(13)
O76_6 O 0.38879(13) 0.38879(13) 0.38879(13)
C41_10 C 0.06642(18) 0.68638(14) 0.99052(16)
H18_10 H 0.0688 0.7001 0.9747
C42_10 C 0.08140(16) 0.65946(15) 0.99004(14)
C45_10 C 0.1000(3) 0.6506(3) 0.9652(3)
O19_10 O 0.0353(3) 0.73974(19) 0.9966(3)
O20_10 O 0.09840(19) 0.66729(17) 0.94184(18)
O21_10 O 0.1153(2) 0.6269(2) 0.96460(18)
Zn20_4 Zn 0.12380(4) 0.64718(4) 0.91102(4)
C50_10 C 0.99052(16) 0.56642(18) 0.18638(14)
H22_10 H 0.9747 0.5688 0.2001
C51_10 C 0.99004(14) 0.58140(16) 0.15946(15)
C54_10 C 0.9652(3) 0.6000(3) 0.1506(3)
O23_10 O 0.9966(3) 0.5353(3) 0.23974(19)
O24_6 O 0.94184(18) 0.59840(19) 0.16729(17)
O25_10 O 0.96460(18) 0.6153(2) 0.1269(2)
C82_6 C 0.9287(3) 0.4312(3) 0.1048(2)
C83_6 C 0.96319(15) 0.44069(18) 0.14635(15)
C84_6 C 0.96271(16) 0.45567(18) 0.17326(17)
H37_6 H 0.9466 0.4683 0.1780
C85_6 C 0.98586(19) 0.45211(18) 0.19328(13)
C88_6 C 0.98681(16) 0.42216(16) 0.13945(12)
H39_6 H 0.9871 0.4119 0.1211
C89_6 C 0.9867(4) 0.4694(4) 0.2213(4)
N19_6 N 0.90603(19) 0.4449(2) 0.0916(2)
N20_6 N 0.9409(2) 0.4452(2) 0.1288(2)
H40_6 H 0.9310 0.4613 0.1336
O39_6 O 0.9638(3) 0.4863(3) 0.2261(3)
C91_6 C 0.8952(2) 0.4287(3) 0.0688(3)
C92_6 C 0.85365(15) 0.46319(15) 0.05931(18)
C93_6 C 0.82674(17) 0.46271(16) 0.04433(18)
H41_6 H 0.8220 0.4466 0.0317
C94_6 C 0.80672(13) 0.48586(19) 0.04789(18)
C95_6 C 0.81362(14) 0.50948(16) 0.06642(18)
H42_6 H 0.7999 0.5253 0.0688
C96_6 C 0.84054(15) 0.50996(14) 0.08140(16)
C97_6 C 0.86055(12) 0.48681(16) 0.07784(16)
H43_6 H 0.8789 0.4871 0.0881
C98_6 C 0.7787(4) 0.4867(4) 0.0306(4)
C99_6 C 0.8494(3) 0.5348(3) 0.1000(3)
N21_6 N 0.9084(2) 0.40603(19) 0.0551(2)
N22_6 N 0.8712(2) 0.4409(2) 0.0548(2)
H44_6 H 0.8664 0.4310 0.0387
O43_6 O 0.7739(3) 0.4638(3) 0.0137(3)
O44_6 O 0.76026(19) 0.5034(3) 0.0353(3)
O45_6 O 0.83271(17) 0.55816(18) 0.09840(19)
O46_6 O 0.8731(2) 0.53540(18) 0.1153(2)
C100_6 C 0.9312(3) 0.3952(2) 0.0713(3)
C101_6 C 0.94069(18) 0.35365(15) 0.03681(15)
C102_6 C 0.95567(18) 0.32674(17) 0.03729(16)
H45_6 H 0.9683 0.3220 0.0534
C103_6 C 0.95211(18) 0.30672(13) 0.01414(19)
C106_6 C 0.92216(16) 0.36055(12) 0.01319(16)
H47_6 H 0.9119 0.3789 0.0129
C107_6 C 0.9694(4) 0.2787(4) 0.0133(4)
N23_6 N 0.9449(2) 0.4084(2) 0.09397(19)
N24_6 N 0.9452(2) 0.3712(2) 0.0591(2)
H48_6 H 0.9613 0.3664 0.0690
Zn18_4 Zn 0.85282(4) 0.58898(4) 0.12380(4)
Zn23_4 Zn 0.91102(4) 0.62380(4) 0.14718(4)
C104_6 C 0.93358(18) 0.31362(14) 0.99052(16)
H46_6 H 0.9312 0.2999 0.9747
C105_6 C 0.91860(16) 0.34054(15) 0.99004(14)
C108_6 C 0.9000(3) 0.3494(3) 0.9652(3)
O50_6 O 0.8847(2) 0.3731(2) 0.96460(18)
C41_11 C 0.43358(18) 0.18638(14) 0.00948(16)
H18_11 H 0.4312 0.2001 0.0253
C42_11 C 0.41860(16) 0.15946(15) 0.00996(14)
C45_11 C 0.4000(3) 0.1506(3) 0.0348(3)
O19_11 O 0.4647(3) 0.23974(19) 0.0034(3)
O20_11 O 0.40160(19) 0.16729(17) 0.05816(18)
O21_11 O 0.3847(2) 0.1269(2) 0.03540(18)
C10_11 C 0.3952(2) 0.0713(3) 0.9312(3)
C11_11 C 0.35365(15) 0.03681(15) 0.94069(18)
C12_11 C 0.32674(17) 0.03729(16) 0.95567(18)
H4_11 H 0.3220 0.0534 0.9683
C13_11 C 0.30672(13) 0.01414(19) 0.95211(18)
C16_11 C 0.36055(12) 0.01319(16) 0.92216(16)
H6_11 H 0.3789 0.0129 0.9119
C17_11 C 0.2787(4) 0.0133(4) 0.9694(4)
N3_11 N 0.4084(2) 0.09397(19) 0.9449(2)
N4_11 N 0.3712(2) 0.0591(2) 0.9452(2)
H8_11 H 0.3664 0.0690 0.9613
C37_11 C 0.4312(3) 0.1048(2) 0.9287(3)
C38_11 C 0.44069(18) 0.14635(15) 0.96319(15)
C39_11 C 0.45567(18) 0.17326(17) 0.96271(16)
H17_11 H 0.4683 0.1780 0.9466
C40_11 C 0.45211(18) 0.19328(13) 0.98586(19)
C43_11 C 0.42216(16) 0.13945(12) 0.98681(16)
H19_11 H 0.4119 0.1211 0.9871
C44_11 C 0.4694(4) 0.2213(4) 0.9867(4)
N9_11 N 0.4449(2) 0.0916(2) 0.90603(19)
N10_11 N 0.4452(2) 0.1288(2) 0.9409(2)
H20_11 H 0.4613 0.1336 0.9310
O18_11 O 0.4863(3) 0.2261(3) 0.9638(3)
C46_11 C 0.4287(3) 0.0688(3) 0.8952(2)
C47_11 C 0.46319(15) 0.05931(18) 0.85365(15)
C48_11 C 0.46271(16) 0.04433(18) 0.82674(17)
H21_11 H 0.4466 0.0317 0.8220
C49_11 C 0.48586(19) 0.04789(18) 0.80672(13)
C50_11 C 0.50948(16) 0.06642(18) 0.81362(14)
H22_11 H 0.5253 0.0688 0.7999
C51_11 C 0.50996(14) 0.08140(16) 0.84054(15)
C52_11 C 0.48681(16) 0.07784(16) 0.86055(12)
H23_11 H 0.4871 0.0881 0.8789
C53_11 C 0.4867(4) 0.0306(4) 0.7787(4)
C54_11 C 0.5348(3) 0.1000(3) 0.8494(3)
N11_11 N 0.40603(19) 0.0551(2) 0.9084(2)
N12_11 N 0.4409(2) 0.0548(2) 0.8712(2)
H24_11 H 0.4310 0.0387 0.8664
O22_11 O 0.4638(3) 0.0137(3) 0.7739(3)
O23_11 O 0.5034(3) 0.0353(3) 0.76026(19)
O24_7 O 0.55816(18) 0.09840(19) 0.83271(17)
O25_11 O 0.53540(18) 0.1153(2) 0.8731(2)
C95_7 C 0.68638(14) 0.00948(16) 0.93358(18)
H42_7 H 0.7001 0.0253 0.9312
C96_7 C 0.65946(15) 0.00996(14) 0.91860(16)
C99_7 C 0.6506(3) 0.0348(3) 0.9000(3)
O44_7 O 0.73974(19) 0.0034(3) 0.9647(3)
O45_7 O 0.66729(17) 0.05816(18) 0.90160(19)
O46_7 O 0.6269(2) 0.03540(18) 0.8847(2)
C104_7 C 0.56642(18) 0.81362(14) 0.00948(16)
H46_7 H 0.5688 0.7999 0.0253
C105_7 C 0.58140(16) 0.84054(15) 0.00996(14)
C108_7 C 0.6000(3) 0.8494(3) 0.0348(3)
O49_4 O 0.59840(19) 0.83271(17) 0.05816(18)
O50_7 O 0.6153(2) 0.8731(2) 0.03540(18)
Zn17_4 Zn 0.62380(4) 0.85282(4) 0.08898(4)
Zn2_7 Zn 0.35282(4) 0.91102(4) 0.87620(4)
C1_7 C 0.1920(3) 0.8433(3) 0.8439(2)
C2_7 C 0.23589(15) 0.84804(16) 0.87754(15)
C3_7 C 0.26428(17) 0.85999(14) 0.87733(14)
H1_7 H 0.2696 0.8741 0.8627
C4_7 C 0.28483(13) 0.85124(16) 0.89854(16)
C5_7 C 0.27700(16) 0.83055(17) 0.91997(14)
H2_7 H 0.2910 0.8246 0.9345
C6_7 C 0.24860(18) 0.81860(15) 0.92019(14)
C7_7 C 0.22805(13) 0.82734(17) 0.89897(17)
H3_7 H 0.2086 0.8192 0.8991
C8_7 C 0.3143(3) 0.8639(3) 0.8977(3)
C9_7 C 0.2389(3) 0.7960(3) 0.9418(2)
C14_11 C 0.31362(14) 0.99052(16) 0.93358(18)
H5_11 H 0.2999 0.9747 0.9312
C15_11 C 0.34054(15) 0.99004(14) 0.91860(16)
C18_11 C 0.3494(3) 0.9652(3) 0.9000(3)
N1_7 N 0.1815(2) 0.8189(2) 0.85645(16)
N2_7 N 0.21648(18) 0.8561(2) 0.8546(2)
H7_7 H 0.2213 0.8728 0.8457
O1_7 O 0.31901(18) 0.8820(2) 0.8773(2)
O2_7 O 0.33384(18) 0.85384(19) 0.91694(19)
O4_7 O 0.2144(2) 0.7875(2) 0.94372(17)
O7_7 O 0.33271(17) 0.94184(18) 0.90160(19)
O8_11 O 0.3731(2) 0.96460(18) 0.8847(2)
O9_7 O 0.38879(13) 0.88879(13) 0.88879(13)
C19_7 C 0.1561(2) 0.8080(3) 0.8433(3)
C20_7 C 0.12246(15) 0.76411(15) 0.84804(16)
C21_7 C 0.12267(14) 0.73572(17) 0.85999(14)
H9_7 H 0.1373 0.7304 0.8741
C22_7 C 0.10146(16) 0.71517(13) 0.85124(16)
C23_7 C 0.08003(14) 0.72300(16) 0.83055(17)
H10_7 H 0.0655 0.7090 0.8246
C24_7 C 0.07981(14) 0.75140(18) 0.81860(15)
C25_7 C 0.10103(17) 0.77195(13) 0.82734(17)
H11_7 H 0.1009 0.7914 0.8192
C26_7 C 0.1023(3) 0.6857(3) 0.8639(3)
C27_7 C 0.0582(2) 0.7611(3) 0.7960(3)
N5_7 N 0.14355(16) 0.8185(2) 0.8189(2)
N6_7 N 0.1454(2) 0.78352(18) 0.8561(2)
H12_7 H 0.1543 0.7787 0.8728
O10_7 O 0.1227(2) 0.68099(18) 0.8820(2)
O11_7 O 0.08306(19) 0.66616(18) 0.85384(19)
O12_7 O 0.04214(16) 0.7392(2) 0.7842(2)
O13_7 O 0.05628(17) 0.7856(2) 0.7875(2)
C28_7 C 0.1567(3) 0.8439(2) 0.8080(3)
C29_7 C 0.15196(16) 0.87754(15) 0.76411(15)
C30_7 C 0.14001(14) 0.87733(14) 0.73572(17)
H13_7 H 0.1259 0.8627 0.7304
C31_7 C 0.14876(16) 0.89854(16) 0.71517(13)
C32_7 C 0.16945(17) 0.91997(14) 0.72300(16)
H14_7 H 0.1754 0.9345 0.7090
C33_7 C 0.18140(15) 0.92019(14) 0.75140(18)
C34_7 C 0.17266(17) 0.89897(17) 0.77195(13)
H15_7 H 0.1808 0.8991 0.7914
C35_7 C 0.1361(3) 0.8977(3) 0.6857(3)
C36_7 C 0.2040(3) 0.9418(2) 0.7611(3)
N7_7 N 0.1811(2) 0.85645(16) 0.8185(2)
N8_7 N 0.1439(2) 0.8546(2) 0.78352(18)
H16_7 H 0.1272 0.8457 0.7787
O14_7 O 0.1180(2) 0.8773(2) 0.68099(18)
O15_7 O 0.14616(19) 0.91694(19) 0.66616(18)
O16_7 O 0.2158(2) 0.95786(16) 0.7392(2)
O17_7 O 0.2125(2) 0.94372(17) 0.7856(2)
Zn4_7 Zn 0.08898(4) 0.62380(4) 0.85282(4)
C55_11 C 0.1567(3) 0.6561(2) 0.6920(3)
C56_11 C 0.15196(16) 0.62246(15) 0.73589(15)
C57_11 C 0.14001(14) 0.62267(14) 0.76428(17)
H25_11 H 0.1259 0.6373 0.7696
C58_11 C 0.14876(16) 0.60146(16) 0.78483(13)
C59_11 C 0.16945(17) 0.58003(14) 0.77700(16)
H26_11 H 0.1754 0.5655 0.7910
C60_11 C 0.18140(15) 0.57981(14) 0.74860(18)
C61_11 C 0.17266(17) 0.60103(17) 0.72805(13)
H27_11 H 0.1808 0.6009 0.7086
C62_11 C 0.1361(3) 0.6023(3) 0.8143(3)
C63_11 C 0.2040(3) 0.5582(2) 0.7389(3)
N13_11 N 0.1811(2) 0.64355(16) 0.6815(2)
N14_11 N 0.1439(2) 0.6454(2) 0.71648(18)
H28_11 H 0.1272 0.6543 0.7213
O26_7 O 0.1180(2) 0.6227(2) 0.81901(18)
O27_11 O 0.14616(19) 0.58306(19) 0.83384(18)
O29_11 O 0.2125(2) 0.55628(17) 0.7144(2)
O30_7 O 0.11121(13) 0.61121(13) 0.88879(13)
C64_11 C 0.1920(3) 0.6567(3) 0.6561(2)
C65_11 C 0.23589(15) 0.65196(16) 0.62246(15)
C66_11 C 0.26428(17) 0.64001(14) 0.62267(14)
H29_11 H 0.2696 0.6259 0.6373
C67_11 C 0.28483(13) 0.64876(16) 0.60146(16)
C68_11 C 0.27700(16) 0.66945(17) 0.58003(14)
H30_11 H 0.2910 0.6754 0.5655
C69_11 C 0.24860(18) 0.68140(15) 0.57981(14)
C70_11 C 0.22805(13) 0.67266(17) 0.60103(17)
H31_11 H 0.2086 0.6808 0.6009
C71_11 C 0.3143(3) 0.6361(3) 0.6023(3)
C72_11 C 0.2389(3) 0.7040(3) 0.5582(2)
N15_11 N 0.1815(2) 0.6811(2) 0.64355(16)
N16_11 N 0.21648(18) 0.6439(2) 0.6454(2)
H32_11 H 0.2213 0.6272 0.6543
O31_7 O 0.31901(18) 0.6180(2) 0.6227(2)
O32_7 O 0.33384(18) 0.64616(19) 0.58306(19)
O33_11 O 0.2608(2) 0.7158(2) 0.54214(16)
O34_11 O 0.2144(2) 0.7125(2) 0.55628(17)
C73_11 C 0.1561(2) 0.6920(3) 0.6567(3)
C74_11 C 0.12246(15) 0.73589(15) 0.65196(16)
C75_11 C 0.12267(14) 0.76428(17) 0.64001(14)
H33_11 H 0.1373 0.7696 0.6259
C76_11 C 0.10146(16) 0.78483(13) 0.64876(16)
C77_11 C 0.08003(14) 0.77700(16) 0.66945(17)
H34_11 H 0.0655 0.7910 0.6754
C78_11 C 0.07981(14) 0.74860(18) 0.68140(15)
C79_11 C 0.10103(17) 0.72805(13) 0.67266(17)
H35_11 H 0.1009 0.7086 0.6808
C80_11 C 0.1023(3) 0.8143(3) 0.6361(3)
C81_11 C 0.0582(2) 0.7389(3) 0.7040(3)
N17_11 N 0.14355(16) 0.6815(2) 0.6811(2)
N18_11 N 0.1454(2) 0.71648(18) 0.6439(2)
H36_11 H 0.1543 0.7213 0.6272
O35_11 O 0.1227(2) 0.81901(18) 0.6180(2)
O36_7 O 0.08306(19) 0.83384(18) 0.64616(19)
O37_11 O 0.04214(16) 0.7608(2) 0.7158(2)
O38_11 O 0.05628(17) 0.7144(2) 0.7125(2)
Zn5_4 Zn 0.37620(4) 0.64718(4) 0.58898(4)
Zn6_11 Zn 0.14718(4) 0.58898(4) 0.87620(4)
Zn7_7 Zn 0.41102(4) 0.87620(4) 0.85282(4)
C82_7 C 0.5713(3) 0.9312(3) 0.8952(2)
C83_7 C 0.53681(15) 0.94069(18) 0.85365(15)
C84_7 C 0.53729(16) 0.95567(18) 0.82674(17)
H37_7 H 0.5534 0.9683 0.8220
C85_7 C 0.51414(19) 0.95211(18) 0.80672(13)
C86_7 C 0.49052(16) 0.93358(18) 0.81362(14)
H38_7 H 0.4747 0.9312 0.7999
C87_7 C 0.49004(14) 0.91860(16) 0.84054(15)
C88_7 C 0.51319(16) 0.92216(16) 0.86055(12)
H39_7 H 0.5129 0.9119 0.8789
C89_7 C 0.5133(4) 0.9694(4) 0.7787(4)
C90_7 C 0.4652(3) 0.9000(3) 0.8494(3)
N19_7 N 0.59397(19) 0.9449(2) 0.9084(2)
N20_7 N 0.5591(2) 0.9452(2) 0.8712(2)
H40_7 H 0.5690 0.9613 0.8664
O39_7 O 0.5362(3) 0.9863(3) 0.7739(3)
O40_7 O 0.4966(3) 0.9647(3) 0.76026(19)
O41_7 O 0.44184(18) 0.90160(19) 0.83271(17)
O42_7 O 0.46460(18) 0.8847(2) 0.8731(2)
C91_7 C 0.6048(2) 0.9287(3) 0.9312(3)
C92_7 C 0.64635(15) 0.96319(15) 0.94069(18)
C93_7 C 0.67326(17) 0.96271(16) 0.95567(18)
H41_7 H 0.6780 0.9466 0.9683
C94_7 C 0.69328(13) 0.98586(19) 0.95211(18)
C97_7 C 0.63945(12) 0.98681(16) 0.92216(16)
H43_7 H 0.6211 0.9871 0.9119
C98_7 C 0.7213(4) 0.9867(4) 0.9694(4)
N21_7 N 0.5916(2) 0.90603(19) 0.9449(2)
N22_7 N 0.6288(2) 0.9409(2) 0.9452(2)
H44_7 H 0.6336 0.9310 0.9613
O43_7 O 0.7261(3) 0.9638(3) 0.9863(3)
C100_7 C 0.5688(3) 0.8952(2) 0.9287(3)
C101_7 C 0.55931(18) 0.85365(15) 0.96319(15)
C102_7 C 0.54433(18) 0.82674(17) 0.96271(16)
H45_7 H 0.5317 0.8220 0.9466
C103_7 C 0.54789(18) 0.80672(13) 0.98586(19)
C106_7 C 0.57784(16) 0.86055(12) 0.98681(16)
H47_7 H 0.5881 0.8789 0.9871
C107_7 C 0.5306(4) 0.7787(4) 0.9867(4)
N23_7 N 0.5551(2) 0.9084(2) 0.90603(19)
N24_7 N 0.5548(2) 0.8712(2) 0.9409(2)
H48_7 H 0.5387 0.8664 0.9310
Zn8_7 Zn 0.12380(4) 0.85282(4) 0.58898(4)
Zn22_7 Zn 0.35282(4) 0.58898(4) 0.62380(4)
Zn25_7 Zn 0.37620(4) 0.85282(4) 0.91102(4)
O51_7 O 0.3773(2) 0.68099(18) 0.6180(2)
O52_15 O 0.18099(18) 0.6180(2) 0.8773(2)
O53_7 O 0.3820(2) 0.8773(2) 0.81901(18)
O54_7 O 0.35384(19) 0.91694(19) 0.83384(18)
O55_7 O 0.16616(18) 0.85384(19) 0.58306(19)
O56_15 O 0.41694(19) 0.83384(18) 0.85384(19)
O71_7 O 0.05816(18) 0.59840(19) 0.83271(17)
O72_4 O 0.40160(19) 0.66729(17) 0.55816(18)
O73_15 O 0.16729(17) 0.55816(18) 0.90160(19)
O74_7 O 0.09840(19) 0.83271(17) 0.55816(18)
O75_7 O 0.38879(13) 0.61121(13) 0.61121(13)
O76_7 O 0.11121(13) 0.88879(13) 0.61121(13)
Zn2_8 Zn 0.64718(4) 0.58898(4) 0.37620(4)
C1_8 C 0.8080(3) 0.6567(3) 0.3439(2)
C2_8 C 0.76411(15) 0.65196(16) 0.37754(15)
C3_8 C 0.73572(17) 0.64001(14) 0.37733(14)
H1_8 H 0.7304 0.6259 0.3627
C4_8 C 0.71517(13) 0.64876(16) 0.39854(16)
C5_8 C 0.72300(16) 0.66945(17) 0.41997(14)
H2_8 H 0.7090 0.6754 0.4345
C6_8 C 0.75140(18) 0.68140(15) 0.42019(14)
C7_8 C 0.77195(13) 0.67266(17) 0.39897(17)
H3_8 H 0.7914 0.6808 0.3991
C8_8 C 0.6857(3) 0.6361(3) 0.3977(3)
C9_8 C 0.7611(3) 0.7040(3) 0.4418(2)
C10_12 C 0.6048(2) 0.4287(3) 0.4312(3)
C11_12 C 0.64635(15) 0.46319(15) 0.44069(18)
C12_12 C 0.67326(17) 0.46271(16) 0.45567(18)
H4_12 H 0.6780 0.4466 0.4683
C13_12 C 0.69328(13) 0.48586(19) 0.45211(18)
C14_12 C 0.68638(14) 0.50948(16) 0.43358(18)
H5_12 H 0.7001 0.5253 0.4312
C15_12 C 0.65946(15) 0.50996(14) 0.41860(16)
C16_12 C 0.63945(12) 0.48681(16) 0.42216(16)
H6_12 H 0.6211 0.4871 0.4119
C17_12 C 0.7213(4) 0.4867(4) 0.4694(4)
C18_12 C 0.6506(3) 0.5348(3) 0.4000(3)
N1_8 N 0.8185(2) 0.6811(2) 0.35645(16)
N2_8 N 0.78352(18) 0.6439(2) 0.3546(2)
H7_8 H 0.7787 0.6272 0.3457
N3_12 N 0.5916(2) 0.40603(19) 0.4449(2)
N4_12 N 0.6288(2) 0.4409(2) 0.4452(2)
H8_12 H 0.6336 0.4310 0.4613
O1_8 O 0.68099(18) 0.6180(2) 0.3773(2)
O2_8 O 0.66616(18) 0.64616(19) 0.41694(19)
O4_8 O 0.7856(2) 0.7125(2) 0.44372(17)
O7_8 O 0.66729(17) 0.55816(18) 0.40160(19)
O8_12 O 0.6269(2) 0.53540(18) 0.3847(2)
O9_8 O 0.61121(13) 0.61121(13) 0.38879(13)
C19_8 C 0.8439(2) 0.6920(3) 0.3433(3)
C20_8 C 0.87754(15) 0.73589(15) 0.34804(16)
C21_8 C 0.87733(14) 0.76428(17) 0.35999(14)
H9_8 H 0.8627 0.7696 0.3741
C22_8 C 0.89854(16) 0.78483(13) 0.35124(16)
C23_8 C 0.91997(14) 0.77700(16) 0.33055(17)
H10_8 H 0.9345 0.7910 0.3246
C24_8 C 0.92019(14) 0.74860(18) 0.31860(15)
C25_8 C 0.89897(17) 0.72805(13) 0.32734(17)
H11_8 H 0.8991 0.7086 0.3192
C26_8 C 0.8977(3) 0.8143(3) 0.3639(3)
C27_8 C 0.9418(2) 0.7389(3) 0.2960(3)
N5_8 N 0.85645(16) 0.6815(2) 0.3189(2)
N6_8 N 0.8546(2) 0.71648(18) 0.3561(2)
H12_8 H 0.8457 0.7213 0.3728
O10_8 O 0.8773(2) 0.81901(18) 0.3820(2)
O11_8 O 0.91694(19) 0.83384(18) 0.35384(19)
O12_8 O 0.95786(16) 0.7608(2) 0.2842(2)
O13_8 O 0.94372(17) 0.7144(2) 0.2875(2)
C28_8 C 0.8433(3) 0.6561(2) 0.3080(3)
C29_8 C 0.84804(16) 0.62246(15) 0.26411(15)
C30_8 C 0.85999(14) 0.62267(14) 0.23572(17)
H13_8 H 0.8741 0.6373 0.2304
C31_8 C 0.85124(16) 0.60146(16) 0.21517(13)
C32_8 C 0.83055(17) 0.58003(14) 0.22300(16)
H14_8 H 0.8246 0.5655 0.2090
C33_8 C 0.81860(15) 0.57981(14) 0.25140(18)
C34_8 C 0.82734(17) 0.60103(17) 0.27195(13)
H15_8 H 0.8192 0.6009 0.2914
C35_8 C 0.8639(3) 0.6023(3) 0.1857(3)
C36_8 C 0.7960(3) 0.5582(2) 0.2611(3)
N7_8 N 0.8189(2) 0.64355(16) 0.3185(2)
N8_8 N 0.8561(2) 0.6454(2) 0.28352(18)
H16_8 H 0.8728 0.6543 0.2787
O14_8 O 0.8820(2) 0.6227(2) 0.18099(18)
O15_8 O 0.85384(19) 0.58306(19) 0.16616(18)
O16_8 O 0.7842(2) 0.54214(16) 0.2392(2)
O17_8 O 0.7875(2) 0.55628(17) 0.2856(2)
C37_12 C 0.5688(3) 0.3952(2) 0.4287(3)
C38_12 C 0.55931(18) 0.35365(15) 0.46319(15)
C39_12 C 0.54433(18) 0.32674(17) 0.46271(16)
H17_12 H 0.5317 0.3220 0.4466
C40_12 C 0.54789(18) 0.30672(13) 0.48586(19)
C41_12 C 0.56642(18) 0.31362(14) 0.50948(16)
H18_12 H 0.5688 0.2999 0.5253
C42_12 C 0.58140(16) 0.34054(15) 0.50996(14)
C43_12 C 0.57784(16) 0.36055(12) 0.48681(16)
H19_12 H 0.5881 0.3789 0.4871
C44_12 C 0.5306(4) 0.2787(4) 0.4867(4)
C45_12 C 0.6000(3) 0.3494(3) 0.5348(3)
N9_12 N 0.5551(2) 0.4084(2) 0.40603(19)
N10_12 N 0.5548(2) 0.3712(2) 0.4409(2)
H20_12 H 0.5387 0.3664 0.4310
O18_12 O 0.5137(3) 0.2739(3) 0.4638(3)
O19_12 O 0.5353(3) 0.26026(19) 0.5034(3)
O20_12 O 0.59840(19) 0.33271(17) 0.55816(18)
O21_12 O 0.6153(2) 0.3731(2) 0.53540(18)
C46_12 C 0.5713(3) 0.4312(3) 0.3952(2)
C47_12 C 0.53681(15) 0.44069(18) 0.35365(15)
C48_12 C 0.53729(16) 0.45567(18) 0.32674(17)
H21_12 H 0.5534 0.4683 0.3220
C49_12 C 0.51414(19) 0.45211(18) 0.30672(13)
C50_12 C 0.49052(16) 0.43358(18) 0.31362(14)
H22_12 H 0.4747 0.4312 0.2999
C51_12 C 0.49004(14) 0.41860(16) 0.34054(15)
C52_12 C 0.51319(16) 0.42216(16) 0.36055(12)
H23_12 H 0.5129 0.4119 0.3789
C53_12 C 0.5133(4) 0.4694(4) 0.2787(4)
C54_12 C 0.4652(3) 0.4000(3) 0.3494(3)
N11_12 N 0.59397(19) 0.4449(2) 0.4084(2)
N12_12 N 0.5591(2) 0.4452(2) 0.3712(2)
H24_12 H 0.5690 0.4613 0.3664
O22_12 O 0.5362(3) 0.4863(3) 0.2739(3)
O23_12 O 0.4966(3) 0.4647(3) 0.26026(19)
O24_8 O 0.44184(18) 0.40160(19) 0.33271(17)
O25_12 O 0.46460(18) 0.3847(2) 0.3731(2)
Zn4_8 Zn 0.91102(4) 0.87620(4) 0.35282(4)
C55_12 C 0.8433(3) 0.8439(2) 0.1920(3)
C56_12 C 0.84804(16) 0.87754(15) 0.23589(15)
C57_12 C 0.85999(14) 0.87733(14) 0.26428(17)
H25_12 H 0.8741 0.8627 0.2696
C58_12 C 0.85124(16) 0.89854(16) 0.28483(13)
C59_12 C 0.83055(17) 0.91997(14) 0.27700(16)
H26_12 H 0.8246 0.9345 0.2910
C60_12 C 0.81860(15) 0.92019(14) 0.24860(18)
C61_12 C 0.82734(17) 0.89897(17) 0.22805(13)
H27_12 H 0.8192 0.8991 0.2086
C62_12 C 0.8639(3) 0.8977(3) 0.3143(3)
C63_12 C 0.7960(3) 0.9418(2) 0.2389(3)
N13_12 N 0.8189(2) 0.85645(16) 0.1815(2)
N14_12 N 0.8561(2) 0.8546(2) 0.21648(18)
H28_12 H 0.8728 0.8457 0.2213
O26_8 O 0.8820(2) 0.8773(2) 0.31901(18)
O27_12 O 0.85384(19) 0.91694(19) 0.33384(18)
O29_12 O 0.7875(2) 0.94372(17) 0.2144(2)
O30_8 O 0.88879(13) 0.88879(13) 0.38879(13)
C64_12 C 0.8080(3) 0.8433(3) 0.1561(2)
C65_12 C 0.76411(15) 0.84804(16) 0.12246(15)
C66_12 C 0.73572(17) 0.85999(14) 0.12267(14)
H29_12 H 0.7304 0.8741 0.1373
C67_12 C 0.71517(13) 0.85124(16) 0.10146(16)
C68_12 C 0.72300(16) 0.83055(17) 0.08003(14)
H30_12 H 0.7090 0.8246 0.0655
C69_12 C 0.75140(18) 0.81860(15) 0.07981(14)
C70_12 C 0.77195(13) 0.82734(17) 0.10103(17)
H31_12 H 0.7914 0.8192 0.1009
C71_12 C 0.6857(3) 0.8639(3) 0.1023(3)
C72_12 C 0.7611(3) 0.7960(3) 0.0582(2)
N15_12 N 0.8185(2) 0.8189(2) 0.14355(16)
N16_12 N 0.78352(18) 0.8561(2) 0.1454(2)
H32_12 H 0.7787 0.8728 0.1543
O31_8 O 0.68099(18) 0.8820(2) 0.1227(2)
O32_8 O 0.66616(18) 0.85384(19) 0.08306(19)
O33_12 O 0.7392(2) 0.7842(2) 0.04214(16)
O34_12 O 0.7856(2) 0.7875(2) 0.05628(17)
C73_12 C 0.8439(2) 0.8080(3) 0.1567(3)
C74_12 C 0.87754(15) 0.76411(15) 0.15196(16)
C75_12 C 0.87733(14) 0.73572(17) 0.14001(14)
H33_12 H 0.8627 0.7304 0.1259
C76_12 C 0.89854(16) 0.71517(13) 0.14876(16)
C77_12 C 0.91997(14) 0.72300(16) 0.16945(17)
H34_12 H 0.9345 0.7090 0.1754
C78_12 C 0.92019(14) 0.75140(18) 0.18140(15)
C79_12 C 0.89897(17) 0.77195(13) 0.17266(17)
H35_12 H 0.8991 0.7914 0.1808
C80_12 C 0.8977(3) 0.6857(3) 0.1361(3)
C81_12 C 0.9418(2) 0.7611(3) 0.2040(3)
N17_12 N 0.85645(16) 0.8185(2) 0.1811(2)
N18_12 N 0.8546(2) 0.78352(18) 0.1439(2)
H36_12 H 0.8457 0.7787 0.1272
O35_12 O 0.8773(2) 0.68099(18) 0.1180(2)
O36_8 O 0.91694(19) 0.66616(18) 0.14616(19)
O37_12 O 0.95786(16) 0.7392(2) 0.2158(2)
O38_12 O 0.94372(17) 0.7856(2) 0.2125(2)
Zn6_12 Zn 0.85282(4) 0.91102(4) 0.37620(4)
Zn7_8 Zn 0.58898(4) 0.62380(4) 0.35282(4)
C82_8 C 0.4287(3) 0.5688(3) 0.3952(2)
C83_8 C 0.46319(15) 0.55931(18) 0.35365(15)
C84_8 C 0.46271(16) 0.54433(18) 0.32674(17)
H37_8 H 0.4466 0.5317 0.3220
C85_8 C 0.48586(19) 0.54789(18) 0.30672(13)
C86_8 C 0.50948(16) 0.56642(18) 0.31362(14)
H38_8 H 0.5253 0.5688 0.2999
C87_8 C 0.50996(14) 0.58140(16) 0.34054(15)
C88_8 C 0.48681(16) 0.57784(16) 0.36055(12)
H39_8 H 0.4871 0.5881 0.3789
C89_8 C 0.4867(4) 0.5306(4) 0.2787(4)
C90_8 C 0.5348(3) 0.6000(3) 0.3494(3)
N19_8 N 0.40603(19) 0.5551(2) 0.4084(2)
N20_8 N 0.4409(2) 0.5548(2) 0.3712(2)
H40_8 H 0.4310 0.5387 0.3664
O39_8 O 0.4638(3) 0.5137(3) 0.2739(3)
O40_8 O 0.5034(3) 0.5353(3) 0.26026(19)
O41_8 O 0.55816(18) 0.59840(19) 0.33271(17)
O42_8 O 0.53540(18) 0.6153(2) 0.3731(2)
C91_8 C 0.3952(2) 0.5713(3) 0.4312(3)
C92_8 C 0.35365(15) 0.53681(15) 0.44069(18)
C93_8 C 0.32674(17) 0.53729(16) 0.45567(18)
H41_8 H 0.3220 0.5534 0.4683
C94_8 C 0.30672(13) 0.51414(19) 0.45211(18)
C95_8 C 0.31362(14) 0.49052(16) 0.43358(18)
H42_8 H 0.2999 0.4747 0.4312
C96_8 C 0.34054(15) 0.49004(14) 0.41860(16)
C97_8 C 0.36055(12) 0.51319(16) 0.42216(16)
H43_8 H 0.3789 0.5129 0.4119
C98_8 C 0.2787(4) 0.5133(4) 0.4694(4)
C99_8 C 0.3494(3) 0.4652(3) 0.4000(3)
N21_8 N 0.4084(2) 0.59397(19) 0.4449(2)
N22_8 N 0.3712(2) 0.5591(2) 0.4452(2)
H44_8 H 0.3664 0.5690 0.4613
O43_8 O 0.2739(3) 0.5362(3) 0.4863(3)
O44_8 O 0.26026(19) 0.4966(3) 0.4647(3)
O45_8 O 0.33271(17) 0.44184(18) 0.40160(19)
O46_8 O 0.3731(2) 0.46460(18) 0.3847(2)
C100_8 C 0.4312(3) 0.6048(2) 0.4287(3)
C101_8 C 0.44069(18) 0.64635(15) 0.46319(15)
C102_8 C 0.45567(18) 0.67326(17) 0.46271(16)
H45_8 H 0.4683 0.6780 0.4466
C103_8 C 0.45211(18) 0.69328(13) 0.48586(19)
C104_8 C 0.43358(18) 0.68638(14) 0.50948(16)
H46_8 H 0.4312 0.7001 0.5253
C105_8 C 0.41860(16) 0.65946(15) 0.50996(14)
C106_8 C 0.42216(16) 0.63945(12) 0.48681(16)
H47_8 H 0.4119 0.6211 0.4871
C107_8 C 0.4694(4) 0.7213(4) 0.4867(4)
C108_8 C 0.4000(3) 0.6506(3) 0.5348(3)
N23_8 N 0.4449(2) 0.5916(2) 0.40603(19)
N24_8 N 0.4452(2) 0.6288(2) 0.4409(2)
H48_8 H 0.4613 0.6336 0.4310
O50_8 O 0.3847(2) 0.6269(2) 0.53540(18)
Zn8_8 Zn 0.87620(4) 0.64718(4) 0.08898(4)
Zn22_8 Zn 0.64718(4) 0.91102(4) 0.12380(4)
Zn25_8 Zn 0.62380(4) 0.64718(4) 0.41102(4)
O51_8 O 0.6227(2) 0.81901(18) 0.1180(2)
O52_16 O 0.81901(18) 0.8820(2) 0.3773(2)
O53_8 O 0.6180(2) 0.6227(2) 0.31901(18)
O54_8 O 0.64616(19) 0.58306(19) 0.33384(18)
O55_8 O 0.83384(18) 0.64616(19) 0.08306(19)
O56_16 O 0.58306(19) 0.66616(18) 0.35384(19)
O71_8 O 0.94184(18) 0.90160(19) 0.33271(17)
O73_16 O 0.83271(17) 0.94184(18) 0.40160(19)
O74_8 O 0.90160(19) 0.66729(17) 0.05816(18)
O75_8 O 0.61121(13) 0.88879(13) 0.11121(13)
O76_8 O 0.88879(13) 0.61121(13) 0.11121(13)
C10_13 C 0.4287(3) 0.4312(3) 0.6048(2)
C11_13 C 0.46319(15) 0.44069(18) 0.64635(15)
C12_13 C 0.46271(16) 0.45567(18) 0.67326(17)
H4_13 H 0.4466 0.4683 0.6780
C13_13 C 0.48586(19) 0.45211(18) 0.69328(13)
C14_13 C 0.50948(16) 0.43358(18) 0.68638(14)
H5_13 H 0.5253 0.4312 0.7001
C15_13 C 0.50996(14) 0.41860(16) 0.65946(15)
C16_13 C 0.48681(16) 0.42216(16) 0.63945(12)
H6_13 H 0.4871 0.4119 0.6211
C17_13 C 0.4867(4) 0.4694(4) 0.7213(4)
C18_13 C 0.5348(3) 0.4000(3) 0.6506(3)
N3_13 N 0.40603(19) 0.4449(2) 0.5916(2)
N4_13 N 0.4409(2) 0.4452(2) 0.6288(2)
H8_13 H 0.4310 0.4613 0.6336
O8_13 O 0.53540(18) 0.3847(2) 0.6269(2)
C37_13 C 0.3952(2) 0.4287(3) 0.5688(3)
C38_13 C 0.35365(15) 0.46319(15) 0.55931(18)
C39_13 C 0.32674(17) 0.46271(16) 0.54433(18)
H17_13 H 0.3220 0.4466 0.5317
C40_13 C 0.30672(13) 0.48586(19) 0.54789(18)
C41_13 C 0.31362(14) 0.50948(16) 0.56642(18)
H18_13 H 0.2999 0.5253 0.5688
C42_13 C 0.34054(15) 0.50996(14) 0.58140(16)
C43_13 C 0.36055(12) 0.48681(16) 0.57784(16)
H19_13 H 0.3789 0.4871 0.5881
C44_13 C 0.2787(4) 0.4867(4) 0.5306(4)
C45_13 C 0.3494(3) 0.5348(3) 0.6000(3)
N9_13 N 0.4084(2) 0.40603(19) 0.5551(2)
N10_13 N 0.3712(2) 0.4409(2) 0.5548(2)
H20_13 H 0.3664 0.4310 0.5387
O18_13 O 0.2739(3) 0.4638(3) 0.5137(3)
O19_13 O 0.26026(19) 0.5034(3) 0.5353(3)
O20_13 O 0.33271(17) 0.55816(18) 0.59840(19)
O21_13 O 0.3731(2) 0.53540(18) 0.6153(2)
C46_13 C 0.4312(3) 0.3952(2) 0.5713(3)
C47_13 C 0.44069(18) 0.35365(15) 0.53681(15)
C48_13 C 0.45567(18) 0.32674(17) 0.53729(16)
H21_13 H 0.4683 0.3220 0.5534
C49_13 C 0.45211(18) 0.30672(13) 0.51414(19)
C50_13 C 0.43358(18) 0.31362(14) 0.49052(16)
H22_13 H 0.4312 0.2999 0.4747
C51_13 C 0.41860(16) 0.34054(15) 0.49004(14)
C52_13 C 0.42216(16) 0.36055(12) 0.51319(16)
H23_13 H 0.4119 0.3789 0.5129
C53_13 C 0.4694(4) 0.2787(4) 0.5133(4)
C54_13 C 0.4000(3) 0.3494(3) 0.4652(3)
N11_13 N 0.4449(2) 0.4084(2) 0.59397(19)
N12_13 N 0.4452(2) 0.3712(2) 0.5591(2)
H24_13 H 0.4613 0.3664 0.5690
O22_13 O 0.4863(3) 0.2739(3) 0.5362(3)
O23_13 O 0.4647(3) 0.26026(19) 0.4966(3)
O25_13 O 0.3847(2) 0.3731(2) 0.46460(18)
C55_13 C 0.8439(2) 0.1920(3) 0.8433(3)
C56_13 C 0.87754(15) 0.23589(15) 0.84804(16)
C57_13 C 0.87733(14) 0.26428(17) 0.85999(14)
H25_13 H 0.8627 0.2696 0.8741
C58_13 C 0.89854(16) 0.28483(13) 0.85124(16)
C59_13 C 0.91997(14) 0.27700(16) 0.83055(17)
H26_13 H 0.9345 0.2910 0.8246
C60_13 C 0.92019(14) 0.24860(18) 0.81860(15)
C61_13 C 0.89897(17) 0.22805(13) 0.82734(17)
H27_13 H 0.8991 0.2086 0.8192
C62_13 C 0.8977(3) 0.3143(3) 0.8639(3)
C63_13 C 0.9418(2) 0.2389(3) 0.7960(3)
N13_13 N 0.85645(16) 0.1815(2) 0.8189(2)
N14_13 N 0.8546(2) 0.21648(18) 0.8561(2)
H28_13 H 0.8457 0.2213 0.8728
O27_13 O 0.91694(19) 0.33384(18) 0.85384(19)
O29_13 O 0.94372(17) 0.2144(2) 0.7875(2)
C64_13 C 0.8433(3) 0.1561(2) 0.8080(3)
C65_13 C 0.84804(16) 0.12246(15) 0.76411(15)
C66_13 C 0.85999(14) 0.12267(14) 0.73572(17)
H29_13 H 0.8741 0.1373 0.7304
C67_13 C 0.85124(16) 0.10146(16) 0.71517(13)
C68_13 C 0.83055(17) 0.08003(14) 0.72300(16)
H30_13 H 0.8246 0.0655 0.7090
C69_13 C 0.81860(15) 0.07981(14) 0.75140(18)
C70_13 C 0.82734(17) 0.10103(17) 0.77195(13)
H31_13 H 0.8192 0.1009 0.7914
C71_13 C 0.8639(3) 0.1023(3) 0.6857(3)
C72_13 C 0.7960(3) 0.0582(2) 0.7611(3)
N15_13 N 0.8189(2) 0.14355(16) 0.8185(2)
N16_13 N 0.8561(2) 0.1454(2) 0.78352(18)
H32_13 H 0.8728 0.1543 0.7787
O33_13 O 0.7842(2) 0.04214(16) 0.7392(2)
O34_13 O 0.7875(2) 0.05628(17) 0.7856(2)
C73_13 C 0.8080(3) 0.1567(3) 0.8439(2)
C74_13 C 0.76411(15) 0.15196(16) 0.87754(15)
C75_13 C 0.73572(17) 0.14001(14) 0.87733(14)
H33_13 H 0.7304 0.1259 0.8627
C76_13 C 0.71517(13) 0.14876(16) 0.89854(16)
C77_13 C 0.72300(16) 0.16945(17) 0.91997(14)
H34_13 H 0.7090 0.1754 0.9345
C78_13 C 0.75140(18) 0.18140(15) 0.92019(14)
C79_13 C 0.77195(13) 0.17266(17) 0.89897(17)
H35_13 H 0.7914 0.1808 0.8991
C80_13 C 0.6857(3) 0.1361(3) 0.8977(3)
C81_13 C 0.7611(3) 0.2040(3) 0.9418(2)
N17_13 N 0.8185(2) 0.1811(2) 0.85645(16)
N18_13 N 0.78352(18) 0.1439(2) 0.8546(2)
H36_13 H 0.7787 0.1272 0.8457
O35_13 O 0.68099(18) 0.1180(2) 0.8773(2)
O37_13 O 0.7392(2) 0.2158(2) 0.95786(16)
O38_13 O 0.7856(2) 0.2125(2) 0.94372(17)
Zn6_13 Zn 0.91102(4) 0.37620(4) 0.85282(4)
O52_17 O 0.8820(2) 0.3773(2) 0.81901(18)
O56_17 O 0.66616(18) 0.35384(19) 0.58306(19)
O73_17 O 0.94184(18) 0.40160(19) 0.83271(17)
C41_14 C 0.18638(14) 0.00948(16) 0.43358(18)
H18_14 H 0.2001 0.0253 0.4312
C42_14 C 0.15946(15) 0.00996(14) 0.41860(16)
C45_14 C 0.1506(3) 0.0348(3) 0.4000(3)
O19_14 O 0.23974(19) 0.0034(3) 0.4647(3)
O20_14 O 0.16729(17) 0.05816(18) 0.40160(19)
O21_14 O 0.1269(2) 0.03540(18) 0.3847(2)
C10_14 C 0.0713(3) 0.9312(3) 0.3952(2)
C11_14 C 0.03681(15) 0.94069(18) 0.35365(15)
C12_14 C 0.03729(16) 0.95567(18) 0.32674(17)
H4_14 H 0.0534 0.9683 0.3220
C13_14 C 0.01414(19) 0.95211(18) 0.30672(13)
C16_14 C 0.01319(16) 0.92216(16) 0.36055(12)
H6_14 H 0.0129 0.9119 0.3789
C17_14 C 0.0133(4) 0.9694(4) 0.2787(4)
N3_14 N 0.09397(19) 0.9449(2) 0.4084(2)
N4_14 N 0.0591(2) 0.9452(2) 0.3712(2)
H8_14 H 0.0690 0.9613 0.3664
C37_14 C 0.1048(2) 0.9287(3) 0.4312(3)
C38_14 C 0.14635(15) 0.96319(15) 0.44069(18)
C39_14 C 0.17326(17) 0.96271(16) 0.45567(18)
H17_14 H 0.1780 0.9466 0.4683
C40_14 C 0.19328(13) 0.98586(19) 0.45211(18)
C43_14 C 0.13945(12) 0.98681(16) 0.42216(16)
H19_14 H 0.1211 0.9871 0.4119
C44_14 C 0.2213(4) 0.9867(4) 0.4694(4)
N9_14 N 0.0916(2) 0.90603(19) 0.4449(2)
N10_14 N 0.1288(2) 0.9409(2) 0.4452(2)
H20_14 H 0.1336 0.9310 0.4613
O18_14 O 0.2261(3) 0.9638(3) 0.4863(3)
C46_14 C 0.0688(3) 0.8952(2) 0.4287(3)
C47_14 C 0.05931(18) 0.85365(15) 0.46319(15)
C48_14 C 0.04433(18) 0.82674(17) 0.46271(16)
H21_14 H 0.0317 0.8220 0.4466
C49_14 C 0.04789(18) 0.80672(13) 0.48586(19)
C50_14 C 0.06642(18) 0.81362(14) 0.50948(16)
H22_14 H 0.0688 0.7999 0.5253
C51_14 C 0.08140(16) 0.84054(15) 0.50996(14)
C52_14 C 0.07784(16) 0.86055(12) 0.48681(16)
H23_14 H 0.0881 0.8789 0.4871
C53_14 C 0.0306(4) 0.7787(4) 0.4867(4)
C54_14 C 0.1000(3) 0.8494(3) 0.5348(3)
N11_14 N 0.0551(2) 0.9084(2) 0.40603(19)
N12_14 N 0.0548(2) 0.8712(2) 0.4409(2)
H24_14 H 0.0387 0.8664 0.4310
O22_14 O 0.0137(3) 0.7739(3) 0.4638(3)
O23_14 O 0.0353(3) 0.76026(19) 0.5034(3)
O25_14 O 0.1153(2) 0.8731(2) 0.53540(18)
C14_14 C 0.99052(16) 0.93358(18) 0.31362(14)
H5_14 H 0.9747 0.9312 0.2999
C15_14 C 0.99004(14) 0.91860(16) 0.34054(15)
C18_14 C 0.9652(3) 0.9000(3) 0.3494(3)
O8_14 O 0.96460(18) 0.8847(2) 0.3731(2)
C55_14 C 0.6561(2) 0.6920(3) 0.1567(3)
C56_14 C 0.62246(15) 0.73589(15) 0.15196(16)
C57_14 C 0.62267(14) 0.76428(17) 0.14001(14)
H25_14 H 0.6373 0.7696 0.1259
C58_14 C 0.60146(16) 0.78483(13) 0.14876(16)
C59_14 C 0.58003(14) 0.77700(16) 0.16945(17)
H26_14 H 0.5655 0.7910 0.1754
C60_14 C 0.57981(14) 0.74860(18) 0.18140(15)
C61_14 C 0.60103(17) 0.72805(13) 0.17266(17)
H27_14 H 0.6009 0.7086 0.1808
C62_14 C 0.6023(3) 0.8143(3) 0.1361(3)
C63_14 C 0.5582(2) 0.7389(3) 0.2040(3)
N13_14 N 0.64355(16) 0.6815(2) 0.1811(2)
N14_14 N 0.6454(2) 0.71648(18) 0.1439(2)
H28_14 H 0.6543 0.7213 0.1272
O27_14 O 0.58306(19) 0.83384(18) 0.14616(19)
O29_14 O 0.55628(17) 0.7144(2) 0.2125(2)
C64_14 C 0.6567(3) 0.6561(2) 0.1920(3)
C65_14 C 0.65196(16) 0.62246(15) 0.23589(15)
C66_14 C 0.64001(14) 0.62267(14) 0.26428(17)
H29_14 H 0.6259 0.6373 0.2696
C67_14 C 0.64876(16) 0.60146(16) 0.28483(13)
C68_14 C 0.66945(17) 0.58003(14) 0.27700(16)
H30_14 H 0.6754 0.5655 0.2910
C69_14 C 0.68140(15) 0.57981(14) 0.24860(18)
C70_14 C 0.67266(17) 0.60103(17) 0.22805(13)
H31_14 H 0.6808 0.6009 0.2086
C71_14 C 0.6361(3) 0.6023(3) 0.3143(3)
C72_14 C 0.7040(3) 0.5582(2) 0.2389(3)
N15_14 N 0.6811(2) 0.64355(16) 0.1815(2)
N16_14 N 0.6439(2) 0.6454(2) 0.21648(18)
H32_14 H 0.6272 0.6543 0.2213
O33_14 O 0.7158(2) 0.54214(16) 0.2608(2)
O34_14 O 0.7125(2) 0.55628(17) 0.2144(2)
C73_14 C 0.6920(3) 0.6567(3) 0.1561(2)
C74_14 C 0.73589(15) 0.65196(16) 0.12246(15)
C75_14 C 0.76428(17) 0.64001(14) 0.12267(14)
H33_14 H 0.7696 0.6259 0.1373
C76_14 C 0.78483(13) 0.64876(16) 0.10146(16)
C77_14 C 0.77700(16) 0.66945(17) 0.08003(14)
H34_14 H 0.7910 0.6754 0.0655
C78_14 C 0.74860(18) 0.68140(15) 0.07981(14)
C79_14 C 0.72805(13) 0.67266(17) 0.10103(17)
H35_14 H 0.7086 0.6808 0.1009
C80_14 C 0.8143(3) 0.6361(3) 0.1023(3)
C81_14 C 0.7389(3) 0.7040(3) 0.0582(2)
N17_14 N 0.6815(2) 0.6811(2) 0.14355(16)
N18_14 N 0.71648(18) 0.6439(2) 0.1454(2)
H36_14 H 0.7213 0.6272 0.1543
O35_14 O 0.81901(18) 0.6180(2) 0.1227(2)
O37_14 O 0.7608(2) 0.7158(2) 0.04214(16)
O38_14 O 0.7144(2) 0.7125(2) 0.05628(17)
Zn6_14 Zn 0.58898(4) 0.87620(4) 0.14718(4)
O52_18 O 0.6180(2) 0.8773(2) 0.18099(18)
O56_18 O 0.83384(18) 0.85384(19) 0.41694(19)
O73_18 O 0.55816(18) 0.90160(19) 0.16729(17)
C10_15 C 0.5713(3) 0.0688(3) 0.1048(2)
C11_15 C 0.53681(15) 0.05931(18) 0.14635(15)
C12_15 C 0.53729(16) 0.04433(18) 0.17326(17)
H4_15 H 0.5534 0.0317 0.1780
C13_15 C 0.51414(19) 0.04789(18) 0.19328(13)
C14_15 C 0.49052(16) 0.06642(18) 0.18638(14)
H5_15 H 0.4747 0.0688 0.2001
C15_15 C 0.49004(14) 0.08140(16) 0.15946(15)
C16_15 C 0.51319(16) 0.07784(16) 0.13945(12)
H6_15 H 0.5129 0.0881 0.1211
C17_15 C 0.5133(4) 0.0306(4) 0.2213(4)
C18_15 C 0.4652(3) 0.1000(3) 0.1506(3)
N3_15 N 0.59397(19) 0.0551(2) 0.0916(2)
N4_15 N 0.5591(2) 0.0548(2) 0.1288(2)
H8_15 H 0.5690 0.0387 0.1336
O8_15 O 0.46460(18) 0.1153(2) 0.1269(2)
C37_15 C 0.6048(2) 0.0713(3) 0.0688(3)
C38_15 C 0.64635(15) 0.03681(15) 0.05931(18)
C39_15 C 0.67326(17) 0.03729(16) 0.04433(18)
H17_15 H 0.6780 0.0534 0.0317
C40_15 C 0.69328(13) 0.01414(19) 0.04789(18)
C43_15 C 0.63945(12) 0.01319(16) 0.07784(16)
H19_15 H 0.6211 0.0129 0.0881
C44_15 C 0.7213(4) 0.0133(4) 0.0306(4)
N9_15 N 0.5916(2) 0.09397(19) 0.0551(2)
N10_15 N 0.6288(2) 0.0591(2) 0.0548(2)
H20_15 H 0.6336 0.0690 0.0387
O18_15 O 0.7261(3) 0.0362(3) 0.0137(3)
C46_15 C 0.5688(3) 0.1048(2) 0.0713(3)
C47_15 C 0.55931(18) 0.14635(15) 0.03681(15)
C48_15 C 0.54433(18) 0.17326(17) 0.03729(16)
H21_15 H 0.5317 0.1780 0.0534
C49_15 C 0.54789(18) 0.19328(13) 0.01414(19)
C52_15 C 0.57784(16) 0.13945(12) 0.01319(16)
H23_15 H 0.5881 0.1211 0.0129
C53_15 C 0.5306(4) 0.2213(4) 0.0133(4)
N11_15 N 0.5551(2) 0.0916(2) 0.09397(19)
N12_15 N 0.5548(2) 0.1288(2) 0.0591(2)
H24_15 H 0.5387 0.1336 0.0690
O22_15 O 0.5137(3) 0.2261(3) 0.0362(3)
C55_15 C 0.1561(2) 0.3080(3) 0.3433(3)
C56_15 C 0.12246(15) 0.26411(15) 0.34804(16)
C57_15 C 0.12267(14) 0.23572(17) 0.35999(14)
H25_15 H 0.1373 0.2304 0.3741
C58_15 C 0.10146(16) 0.21517(13) 0.35124(16)
C59_15 C 0.08003(14) 0.22300(16) 0.33055(17)
H26_15 H 0.0655 0.2090 0.3246
C60_15 C 0.07981(14) 0.25140(18) 0.31860(15)
C61_15 C 0.10103(17) 0.27195(13) 0.32734(17)
H27_15 H 0.1009 0.2914 0.3192
C62_15 C 0.1023(3) 0.1857(3) 0.3639(3)
C63_15 C 0.0582(2) 0.2611(3) 0.2960(3)
N13_15 N 0.14355(16) 0.3185(2) 0.3189(2)
N14_15 N 0.1454(2) 0.28352(18) 0.3561(2)
H28_15 H 0.1543 0.2787 0.3728
O27_15 O 0.08306(19) 0.16616(18) 0.35384(19)
O29_15 O 0.05628(17) 0.2856(2) 0.2875(2)
C64_15 C 0.1567(3) 0.3439(2) 0.3080(3)
C65_15 C 0.15196(16) 0.37754(15) 0.26411(15)
C66_15 C 0.14001(14) 0.37733(14) 0.23572(17)
H29_15 H 0.1259 0.3627 0.2304
C67_15 C 0.14876(16) 0.39854(16) 0.21517(13)
C68_15 C 0.16945(17) 0.41997(14) 0.22300(16)
H30_15 H 0.1754 0.4345 0.2090
C69_15 C 0.18140(15) 0.42019(14) 0.25140(18)
C70_15 C 0.17266(17) 0.39897(17) 0.27195(13)
H31_15 H 0.1808 0.3991 0.2914
C71_15 C 0.1361(3) 0.3977(3) 0.1857(3)
C72_15 C 0.2040(3) 0.4418(2) 0.2611(3)
N15_15 N 0.1811(2) 0.35645(16) 0.3185(2)
N16_15 N 0.1439(2) 0.3546(2) 0.28352(18)
H32_15 H 0.1272 0.3457 0.2787
O33_15 O 0.2158(2) 0.45786(16) 0.2392(2)
O34_15 O 0.2125(2) 0.44372(17) 0.2856(2)
C73_15 C 0.1920(3) 0.3433(3) 0.3439(2)
C74_15 C 0.23589(15) 0.34804(16) 0.37754(15)
C75_15 C 0.26428(17) 0.35999(14) 0.37733(14)
H33_15 H 0.2696 0.3741 0.3627
C76_15 C 0.28483(13) 0.35124(16) 0.39854(16)
C77_15 C 0.27700(16) 0.33055(17) 0.41997(14)
H34_15 H 0.2910 0.3246 0.4345
C78_15 C 0.24860(18) 0.31860(15) 0.42019(14)
C79_15 C 0.22805(13) 0.32734(17) 0.39897(17)
H35_15 H 0.2086 0.3192 0.3991
C80_15 C 0.3143(3) 0.3639(3) 0.3977(3)
C81_15 C 0.2389(3) 0.2960(3) 0.4418(2)
N17_15 N 0.1815(2) 0.3189(2) 0.35645(16)
N18_15 N 0.21648(18) 0.3561(2) 0.3546(2)
H36_15 H 0.2213 0.3728 0.3457
O35_15 O 0.31901(18) 0.3820(2) 0.3773(2)
O37_15 O 0.2608(2) 0.2842(2) 0.45786(16)
O38_15 O 0.2144(2) 0.2875(2) 0.44372(17)
Zn6_15 Zn 0.08898(4) 0.12380(4) 0.35282(4)
O52_19 O 0.1180(2) 0.1227(2) 0.31901(18)
O56_19 O 0.33384(18) 0.14616(19) 0.08306(19)
O73_19 O 0.05816(18) 0.09840(19) 0.33271(17)
C50_15 C 0.56642(18) 0.18638(14) 0.99052(16)
H22_15 H 0.5688 0.2001 0.9747
C51_15 C 0.58140(16) 0.15946(15) 0.99004(14)
C54_15 C 0.6000(3) 0.1506(3) 0.9652(3)
O23_15 O 0.5353(3) 0.23974(19) 0.9966(3)
O25_15 O 0.6153(2) 0.1269(2) 0.96460(18)
C41_15 C 0.68638(14) 0.99052(16) 0.06642(18)
H18_15 H 0.7001 0.9747 0.0688
C42_15 C 0.65946(15) 0.99004(14) 0.08140(16)
C45_15 C 0.6506(3) 0.9652(3) 0.1000(3)
O19_15 O 0.73974(19) 0.9966(3) 0.0353(3)
O20_15 O 0.66729(17) 0.94184(18) 0.09840(19)
O21_15 O 0.6269(2) 0.96460(18) 0.1153(2)
C14_16 C 0.00948(16) 0.56642(18) 0.81362(14)
H5_16 H 0.0253 0.5688 0.7999
C15_16 C 0.00996(14) 0.58140(16) 0.84054(15)
C18_16 C 0.0348(3) 0.6000(3) 0.8494(3)
O8_16 O 0.03540(18) 0.6153(2) 0.8731(2)
C55_16 C 0.3439(2) 0.8080(3) 0.6567(3)
C56_16 C 0.37754(15) 0.76411(15) 0.65196(16)
C57_16 C 0.37733(14) 0.73572(17) 0.64001(14)
H25_16 H 0.3627 0.7304 0.6259
C58_16 C 0.39854(16) 0.71517(13) 0.64876(16)
C59_16 C 0.41997(14) 0.72300(16) 0.66945(17)
H26_16 H 0.4345 0.7090 0.6754
C60_16 C 0.42019(14) 0.75140(18) 0.68140(15)
C61_16 C 0.39897(17) 0.77195(13) 0.67266(17)
H27_16 H 0.3991 0.7914 0.6808
C62_16 C 0.3977(3) 0.6857(3) 0.6361(3)
C63_16 C 0.4418(2) 0.7611(3) 0.7040(3)
N13_16 N 0.35645(16) 0.8185(2) 0.6811(2)
N14_16 N 0.3546(2) 0.78352(18) 0.6439(2)
H28_16 H 0.3457 0.7787 0.6272
O27_16 O 0.41694(19) 0.66616(18) 0.64616(19)
O29_16 O 0.44372(17) 0.7856(2) 0.7125(2)
C64_16 C 0.3433(3) 0.8439(2) 0.6920(3)
C65_16 C 0.34804(16) 0.87754(15) 0.73589(15)
C66_16 C 0.35999(14) 0.87733(14) 0.76428(17)
H29_16 H 0.3741 0.8627 0.7696
C67_16 C 0.35124(16) 0.89854(16) 0.78483(13)
C68_16 C 0.33055(17) 0.91997(14) 0.77700(16)
H30_16 H 0.3246 0.9345 0.7910
C69_16 C 0.31860(15) 0.92019(14) 0.74860(18)
C70_16 C 0.32734(17) 0.89897(17) 0.72805(13)
H31_16 H 0.3192 0.8991 0.7086
C71_16 C 0.3639(3) 0.8977(3) 0.8143(3)
C72_16 C 0.2960(3) 0.9418(2) 0.7389(3)
N15_16 N 0.3189(2) 0.85645(16) 0.6815(2)
N16_16 N 0.3561(2) 0.8546(2) 0.71648(18)
H32_16 H 0.3728 0.8457 0.7213
O33_16 O 0.2842(2) 0.95786(16) 0.7608(2)
O34_16 O 0.2875(2) 0.94372(17) 0.7144(2)
C73_16 C 0.3080(3) 0.8433(3) 0.6561(2)
C74_16 C 0.26411(15) 0.84804(16) 0.62246(15)
C75_16 C 0.23572(17) 0.85999(14) 0.62267(14)
H33_16 H 0.2304 0.8741 0.6373
C76_16 C 0.21517(13) 0.85124(16) 0.60146(16)
C77_16 C 0.22300(16) 0.83055(17) 0.58003(14)
H34_16 H 0.2090 0.8246 0.5655
C78_16 C 0.25140(18) 0.81860(15) 0.57981(14)
C79_16 C 0.27195(13) 0.82734(17) 0.60103(17)
H35_16 H 0.2914 0.8192 0.6009
C80_16 C 0.1857(3) 0.8639(3) 0.6023(3)
C81_16 C 0.2611(3) 0.7960(3) 0.5582(2)
N17_16 N 0.3185(2) 0.8189(2) 0.64355(16)
N18_16 N 0.28352(18) 0.8561(2) 0.6454(2)
H36_16 H 0.2787 0.8728 0.6543
O35_16 O 0.18099(18) 0.8820(2) 0.6227(2)
O37_16 O 0.2392(2) 0.7842(2) 0.54214(16)
O38_16 O 0.2856(2) 0.7875(2) 0.55628(17)
Zn6_16 Zn 0.41102(4) 0.62380(4) 0.64718(4)
O52_20 O 0.3820(2) 0.6227(2) 0.68099(18)
O56_20 O 0.16616(18) 0.64616(19) 0.91694(19)
O73_20 O 0.44184(18) 0.59840(19) 0.66729(17)
C50_16 C 0.93358(18) 0.68638(14) 0.00948(16)
H22_16 H 0.9312 0.7001 0.0253
C51_16 C 0.91860(16) 0.65946(15) 0.00996(14)
C54_16 C 0.9000(3) 0.6506(3) 0.0348(3)
O23_16 O 0.9647(3) 0.73974(19) 0.0034(3)
O25_16 O 0.8847(2) 0.6269(2) 0.03540(18)
C10_16 C 0.9287(3) 0.5688(3) 0.8952(2)
C11_16 C 0.96319(15) 0.55931(18) 0.85365(15)
C12_16 C 0.96271(16) 0.54433(18) 0.82674(17)
H4_16 H 0.9466 0.5317 0.8220
C13_16 C 0.98586(19) 0.54789(18) 0.80672(13)
C16_16 C 0.98681(16) 0.57784(16) 0.86055(12)
H6_16 H 0.9871 0.5881 0.8789
C17_16 C 0.9867(4) 0.5306(4) 0.7787(4)
N3_16 N 0.90603(19) 0.5551(2) 0.9084(2)
N4_16 N 0.9409(2) 0.5548(2) 0.8712(2)
H8_16 H 0.9310 0.5387 0.8664
C37_16 C 0.8952(2) 0.5713(3) 0.9312(3)
C38_16 C 0.85365(15) 0.53681(15) 0.94069(18)
C39_16 C 0.82674(17) 0.53729(16) 0.95567(18)
H17_16 H 0.8220 0.5534 0.9683
C40_16 C 0.80672(13) 0.51414(19) 0.95211(18)
C41_16 C 0.81362(14) 0.49052(16) 0.93358(18)
H18_16 H 0.7999 0.4747 0.9312
C42_16 C 0.84054(15) 0.49004(14) 0.91860(16)
C43_16 C 0.86055(12) 0.51319(16) 0.92216(16)
H19_16 H 0.8789 0.5129 0.9119
C44_16 C 0.7787(4) 0.5133(4) 0.9694(4)
C45_16 C 0.8494(3) 0.4652(3) 0.9000(3)
N9_16 N 0.9084(2) 0.59397(19) 0.9449(2)
N10_16 N 0.8712(2) 0.5591(2) 0.9452(2)
H20_16 H 0.8664 0.5690 0.9613
O18_16 O 0.7739(3) 0.5362(3) 0.9863(3)
O19_16 O 0.76026(19) 0.4966(3) 0.9647(3)
O20_16 O 0.83271(17) 0.44184(18) 0.90160(19)
O21_16 O 0.8731(2) 0.46460(18) 0.8847(2)
C46_16 C 0.9312(3) 0.6048(2) 0.9287(3)
C47_16 C 0.94069(18) 0.64635(15) 0.96319(15)
C48_16 C 0.95567(18) 0.67326(17) 0.96271(16)
H21_16 H 0.9683 0.6780 0.9466
C49_16 C 0.95211(18) 0.69328(13) 0.98586(19)
C52_16 C 0.92216(16) 0.63945(12) 0.98681(16)
H23_16 H 0.9119 0.6211 0.9871
C53_16 C 0.9694(4) 0.7213(4) 0.9867(4)
N11_16 N 0.9449(2) 0.5916(2) 0.90603(19)
N12_16 N 0.9452(2) 0.6288(2) 0.9409(2)
H24_16 H 0.9613 0.6336 0.9310
O22_16 O 0.9863(3) 0.7261(3) 0.9638(3)
O52_21 O 0.8773(2) 0.18099(18) 0.6180(2)
O56_21 O 0.85384(19) 0.41694(19) 0.83384(18)
O73_21 O 0.90160(19) 0.16729(17) 0.55816(18)
O52_22 O 0.3773(2) 0.81901(18) 0.8820(2)
O56_22 O 0.35384(19) 0.58306(19) 0.66616(18)
O73_22 O 0.40160(19) 0.83271(17) 0.94184(18)
O52_23 O 0.6227(2) 0.68099(18) 0.3820(2)
O56_23 O 0.64616(19) 0.91694(19) 0.16616(18)
O73_23 O 0.59840(19) 0.66729(17) 0.44184(18)
O52_24 O 0.1227(2) 0.31901(18) 0.1180(2)
O56_24 O 0.14616(19) 0.08306(19) 0.33384(18)
O73_24 O 0.09840(19) 0.33271(17) 0.05816(18)
C21_9 C 0.01428(17) 0.37267(14) 0.60999(14)
H9_9 H 0.0196 0.3873 0.6241
C22_9 C 0.03483(13) 0.35146(16) 0.60124(16)
C23_9 C 0.02700(16) 0.33003(14) 0.58055(17)
H10_9 H 0.0410 0.3155 0.5746
C26_9 C 0.0643(3) 0.3523(3) 0.6139(3)
C1_9 C 0.9067(3) 0.4420(3) 0.5939(2)
C2_9 C 0.90196(16) 0.48589(15) 0.62754(15)
C3_9 C 0.89001(14) 0.51428(17) 0.62733(14)
H1_9 H 0.8759 0.5196 0.6127
C4_9 C 0.89876(16) 0.53483(13) 0.64854(16)
C5_9 C 0.91945(17) 0.52700(16) 0.66997(14)
H2_9 H 0.9254 0.5410 0.6845
C6_9 C 0.93140(15) 0.49860(18) 0.67019(14)
C7_9 C 0.92266(17) 0.47805(13) 0.64897(17)
H3_9 H 0.9308 0.4586 0.6491
C8_9 C 0.8861(3) 0.5643(3) 0.6477(3)
C9_9 C 0.9540(3) 0.4889(3) 0.6918(2)
C10_17 C 0.6787(3) 0.6452(2) 0.6812(3)
C11_17 C 0.71319(15) 0.60365(15) 0.69069(18)
C12_17 C 0.71271(16) 0.57674(17) 0.70567(18)
H4_17 H 0.6966 0.5720 0.7183
C13_17 C 0.73586(19) 0.55672(13) 0.70211(18)
C14_17 C 0.75948(16) 0.56362(14) 0.68358(18)
H5_17 H 0.7753 0.5499 0.6812
C15_17 C 0.75996(14) 0.59054(15) 0.66860(16)
C16_17 C 0.73681(16) 0.61055(12) 0.67216(16)
H6_17 H 0.7371 0.6289 0.6619
C17_17 C 0.7367(4) 0.5287(4) 0.7194(4)
C18_17 C 0.7848(3) 0.5994(3) 0.6500(3)
N1_9 N 0.9311(2) 0.4315(2) 0.60645(16)
N2_9 N 0.8939(2) 0.46648(18) 0.6046(2)
H7_9 H 0.8772 0.4713 0.5957
N3_17 N 0.65603(19) 0.6584(2) 0.6949(2)
N4_17 N 0.6909(2) 0.6212(2) 0.6952(2)
H8_17 H 0.6810 0.6164 0.7113
O4_9 O 0.9625(2) 0.4644(2) 0.69372(17)
O8_17 O 0.78540(18) 0.6231(2) 0.6347(2)
C19_9 C 0.9420(3) 0.4061(2) 0.5933(3)
C20_9 C 0.98589(15) 0.37246(15) 0.59804(16)
C24_9 C 0.99860(18) 0.32981(14) 0.56860(15)
C25_9 C 0.97805(13) 0.35103(17) 0.57734(17)
H11_9 H 0.9586 0.3509 0.5692
C27_9 C 0.9889(3) 0.3082(2) 0.5460(3)
N5_9 N 0.9315(2) 0.39355(16) 0.5689(2)
N6_9 N 0.96648(18) 0.3954(2) 0.6061(2)
H12_9 H 0.9713 0.4043 0.6228
O13_9 O 0.9644(2) 0.30628(17) 0.5375(2)
C28_9 C 0.9061(2) 0.4067(3) 0.5580(3)
C29_9 C 0.87246(15) 0.40196(16) 0.51411(15)
C30_9 C 0.87267(14) 0.39001(14) 0.48572(17)
H13_9 H 0.8873 0.3759 0.4804
C31_9 C 0.85146(16) 0.39876(16) 0.46517(13)
C32_9 C 0.83003(14) 0.41945(17) 0.47300(16)
H14_9 H 0.8155 0.4254 0.4590
C33_9 C 0.82981(14) 0.43140(15) 0.50140(18)
C34_9 C 0.85103(17) 0.42266(17) 0.52195(13)
H15_9 H 0.8509 0.4308 0.5414
C35_9 C 0.8523(3) 0.3861(3) 0.4357(3)
C36_9 C 0.8082(2) 0.4540(3) 0.5111(3)
N7_9 N 0.89355(16) 0.4311(2) 0.5685(2)
N8_9 N 0.8954(2) 0.3939(2) 0.53352(18)
H16_9 H 0.9043 0.3772 0.5287
O17_9 O 0.80628(17) 0.4625(2) 0.5356(2)
C37_17 C 0.6452(2) 0.6812(3) 0.6787(3)
C38_17 C 0.60365(15) 0.69069(18) 0.71319(15)
C39_17 C 0.57674(17) 0.70567(18) 0.71271(16)
H17_17 H 0.5720 0.7183 0.6966
C40_17 C 0.55672(13) 0.70211(18) 0.73586(19)
C41_17 C 0.56362(14) 0.68358(18) 0.75948(16)
H18_17 H 0.5499 0.6812 0.7753
C42_17 C 0.59054(15) 0.66860(16) 0.75996(14)
C43_17 C 0.61055(12) 0.67216(16) 0.73681(16)
H19_17 H 0.6289 0.6619 0.7371
C44_17 C 0.5287(4) 0.7194(4) 0.7367(4)
C45_17 C 0.5994(3) 0.6500(3) 0.7848(3)
N9_17 N 0.6584(2) 0.6949(2) 0.65603(19)
N10_17 N 0.6212(2) 0.6952(2) 0.6909(2)
H20_17 H 0.6164 0.7113 0.6810
O21_17 O 0.6231(2) 0.6347(2) 0.78540(18)
C46_17 C 0.6812(3) 0.6787(3) 0.6452(2)
C47_17 C 0.69069(18) 0.71319(15) 0.60365(15)
C48_17 C 0.70567(18) 0.71271(16) 0.57674(17)
H21_17 H 0.7183 0.6966 0.5720
C49_17 C 0.70211(18) 0.73586(19) 0.55672(13)
C50_17 C 0.68358(18) 0.75948(16) 0.56362(14)
H22_17 H 0.6812 0.7753 0.5499
C51_17 C 0.66860(16) 0.75996(14) 0.59054(15)
C52_17 C 0.67216(16) 0.73681(16) 0.61055(12)
H23_17 H 0.6619 0.7371 0.6289
C53_17 C 0.7194(4) 0.7367(4) 0.5287(4)
C54_17 C 0.6500(3) 0.7848(3) 0.5994(3)
N11_17 N 0.6949(2) 0.65603(19) 0.6584(2)
N12_17 N 0.6952(2) 0.6909(2) 0.6212(2)
H24_17 H 0.7113 0.6810 0.6164
O25_17 O 0.6347(2) 0.78540(18) 0.6231(2)
C1_10 C 0.0933(3) 0.0580(3) 0.0939(2)
C2_10 C 0.09804(16) 0.01411(15) 0.12754(15)
C6_10 C 0.06860(15) 0.00140(18) 0.17019(14)
C7_10 C 0.07734(17) 0.02195(13) 0.14897(17)
H3_10 H 0.0692 0.0414 0.1491
C9_10 C 0.0460(3) 0.0111(3) 0.1918(2)
N1_10 N 0.0689(2) 0.0685(2) 0.10645(16)
N2_10 N 0.1061(2) 0.03352(18) 0.1046(2)
H7_10 H 0.1228 0.0287 0.0957
O4_10 O 0.0375(2) 0.0356(2) 0.19372(17)
C19_10 C 0.0580(3) 0.0939(2) 0.0933(3)
C20_10 C 0.01411(15) 0.12754(15) 0.09804(16)
C24_10 C 0.00140(18) 0.17019(14) 0.06860(15)
C25_10 C 0.02195(13) 0.14897(17) 0.07734(17)
H11_10 H 0.0414 0.1491 0.0692
C27_10 C 0.0111(3) 0.1918(2) 0.0460(3)
N5_10 N 0.0685(2) 0.10645(16) 0.0689(2)
N6_10 N 0.03352(18) 0.1046(2) 0.1061(2)
H12_10 H 0.0287 0.0957 0.1228
O13_10 O 0.0356(2) 0.19372(17) 0.0375(2)
C28_10 C 0.0939(2) 0.0933(3) 0.0580(3)
C29_10 C 0.12754(15) 0.09804(16) 0.01411(15)
C33_10 C 0.17019(14) 0.06860(15) 0.00140(18)
C34_10 C 0.14897(17) 0.07734(17) 0.02195(13)
H15_10 H 0.1491 0.0692 0.0414
C36_10 C 0.1918(2) 0.0460(3) 0.0111(3)
N7_10 N 0.10645(16) 0.0689(2) 0.0685(2)
N8_10 N 0.1046(2) 0.1061(2) 0.03352(18)
H16_10 H 0.0957 0.1228 0.0287
O17_10 O 0.19372(17) 0.0375(2) 0.0356(2)
C30_10 C 0.12733(14) 0.10999(14) 0.98572(17)
H13_10 H 0.1127 0.1241 0.9804
C31_10 C 0.14854(16) 0.10124(16) 0.96517(13)
C32_10 C 0.16997(14) 0.08055(17) 0.97300(16)
H14_10 H 0.1845 0.0746 0.9590
C35_10 C 0.1477(3) 0.1139(3) 0.9357(3)
C3_10 C 0.10999(14) 0.98572(17) 0.12733(14)
H1_10 H 0.1241 0.9804 0.1127
C4_10 C 0.10124(16) 0.96517(13) 0.14854(16)
C5_10 C 0.08055(17) 0.97300(16) 0.16997(14)
H2_10 H 0.0746 0.9590 0.1845
C8_10 C 0.1139(3) 0.9357(3) 0.1477(3)
C10_18 C 0.3213(3) 0.8548(2) 0.1812(3)
C11_18 C 0.28681(15) 0.89635(15) 0.19069(18)
C12_18 C 0.28729(16) 0.92326(17) 0.20567(18)
H4_18 H 0.3034 0.9280 0.2183
C13_18 C 0.26414(19) 0.94328(13) 0.20211(18)
C14_18 C 0.24052(16) 0.93638(14) 0.18358(18)
H5_18 H 0.2247 0.9501 0.1812
C15_18 C 0.24004(14) 0.90946(15) 0.16860(16)
C16_18 C 0.26319(16) 0.88945(12) 0.17216(16)
H6_18 H 0.2629 0.8711 0.1619
C17_18 C 0.2633(4) 0.9713(4) 0.2194(4)
C18_18 C 0.2152(3) 0.9006(3) 0.1500(3)
N3_18 N 0.34397(19) 0.8416(2) 0.1949(2)
N4_18 N 0.3091(2) 0.8788(2) 0.1952(2)
H8_18 H 0.3190 0.8836 0.2113
O8_18 O 0.21460(18) 0.8769(2) 0.1347(2)
C37_18 C 0.3548(2) 0.8188(3) 0.1787(3)
C38_18 C 0.39635(15) 0.80931(18) 0.21319(15)
C39_18 C 0.42326(17) 0.79433(18) 0.21271(16)
H17_18 H 0.4280 0.7817 0.1966
C40_18 C 0.44328(13) 0.79789(18) 0.23586(19)
C41_18 C 0.43638(14) 0.81642(18) 0.25948(16)
H18_18 H 0.4501 0.8188 0.2753
C42_18 C 0.40946(15) 0.83140(16) 0.25996(14)
C43_18 C 0.38945(12) 0.82784(16) 0.23681(16)
H19_18 H 0.3711 0.8381 0.2371
C44_18 C 0.4713(4) 0.7806(4) 0.2367(4)
C45_18 C 0.4006(3) 0.8500(3) 0.2848(3)
N9_18 N 0.3416(2) 0.8051(2) 0.15603(19)
N10_18 N 0.3788(2) 0.8048(2) 0.1909(2)
H20_18 H 0.3836 0.7887 0.1810
O21_18 O 0.3769(2) 0.8653(2) 0.28540(18)
C46_18 C 0.3188(3) 0.8213(3) 0.1452(2)
C47_18 C 0.30931(18) 0.78681(15) 0.10365(15)
C48_18 C 0.29433(18) 0.78729(16) 0.07674(17)
H21_18 H 0.2817 0.8034 0.0720
C49_18 C 0.29789(18) 0.76414(19) 0.05672(13)
C50_18 C 0.31642(18) 0.74052(16) 0.06362(14)
H22_18 H 0.3188 0.7247 0.0499
C51_18 C 0.33140(16) 0.74004(14) 0.09054(15)
C52_18 C 0.32784(16) 0.76319(16) 0.11055(12)
H23_18 H 0.3381 0.7629 0.1289
C53_18 C 0.2806(4) 0.7633(4) 0.0287(4)
C54_18 C 0.3500(3) 0.7152(3) 0.0994(3)
N11_18 N 0.3051(2) 0.84397(19) 0.1584(2)
N12_18 N 0.3048(2) 0.8091(2) 0.1212(2)
H24_18 H 0.2887 0.8190 0.1164
O25_18 O 0.3653(2) 0.71460(18) 0.1231(2)
C21_10 C 0.98572(17) 0.12733(14) 0.10999(14)
H9_10 H 0.9804 0.1127 0.1241
C22_10 C 0.96517(13) 0.14854(16) 0.10124(16)
C23_10 C 0.97300(16) 0.16997(14) 0.08055(17)
H10_10 H 0.9590 0.1845 0.0746
C26_10 C 0.9357(3) 0.1477(3) 0.1139(3)
C3_11 C 0.60999(14) 0.01428(17) 0.37267(14)
H1_11 H 0.6241 0.0196 0.3873
C4_11 C 0.60124(16) 0.03483(13) 0.35146(16)
C5_11 C 0.58055(17) 0.02700(16) 0.33003(14)
H2_11 H 0.5746 0.0410 0.3155
C8_11 C 0.6139(3) 0.0643(3) 0.3523(3)
C10_19 C 0.8213(3) 0.1452(2) 0.3188(3)
C11_19 C 0.78681(15) 0.10365(15) 0.30931(18)
C12_19 C 0.78729(16) 0.07674(17) 0.29433(18)
H4_19 H 0.8034 0.0720 0.2817
C13_19 C 0.76414(19) 0.05672(13) 0.29789(18)
C14_19 C 0.74052(16) 0.06362(14) 0.31642(18)
H5_19 H 0.7247 0.0499 0.3188
C15_19 C 0.74004(14) 0.09054(15) 0.33140(16)
C16_19 C 0.76319(16) 0.11055(12) 0.32784(16)
H6_19 H 0.7629 0.1289 0.3381
C17_19 C 0.7633(4) 0.0287(4) 0.2806(4)
C18_19 C 0.7152(3) 0.0994(3) 0.3500(3)
N3_19 N 0.84397(19) 0.1584(2) 0.3051(2)
N4_19 N 0.8091(2) 0.1212(2) 0.3048(2)
H8_19 H 0.8190 0.1164 0.2887
O8_19 O 0.71460(18) 0.1231(2) 0.3653(2)
C37_19 C 0.8548(2) 0.1812(3) 0.3213(3)
C38_19 C 0.89635(15) 0.19069(18) 0.28681(15)
C39_19 C 0.92326(17) 0.20567(18) 0.28729(16)
H17_19 H 0.9280 0.2183 0.3034
C40_19 C 0.94328(13) 0.20211(18) 0.26414(19)
C41_19 C 0.93638(14) 0.18358(18) 0.24052(16)
H18_19 H 0.9501 0.1812 0.2247
C42_19 C 0.90946(15) 0.16860(16) 0.24004(14)
C43_19 C 0.88945(12) 0.17216(16) 0.26319(16)
H19_19 H 0.8711 0.1619 0.2629
C44_19 C 0.9713(4) 0.2194(4) 0.2633(4)
C45_19 C 0.9006(3) 0.1500(3) 0.2152(3)
N9_19 N 0.8416(2) 0.1949(2) 0.34397(19)
N10_19 N 0.8788(2) 0.1952(2) 0.3091(2)
H20_19 H 0.8836 0.2113 0.3190
O21_19 O 0.8769(2) 0.1347(2) 0.21460(18)
C46_19 C 0.8188(3) 0.1787(3) 0.3548(2)
C47_19 C 0.80931(18) 0.21319(15) 0.39635(15)
C48_19 C 0.79433(18) 0.21271(16) 0.42326(17)
H21_19 H 0.7817 0.1966 0.4280
C49_19 C 0.79789(18) 0.23586(19) 0.44328(13)
C50_19 C 0.81642(18) 0.25948(16) 0.43638(14)
H22_19 H 0.8188 0.2753 0.4501
C51_19 C 0.83140(16) 0.25996(14) 0.40946(15)
C52_19 C 0.82784(16) 0.23681(16) 0.38945(12)
H23_19 H 0.8381 0.2371 0.3711
C53_19 C 0.7806(4) 0.2367(4) 0.4713(4)
C54_19 C 0.8500(3) 0.2848(3) 0.4006(3)
N11_19 N 0.8051(2) 0.15603(19) 0.3416(2)
N12_19 N 0.8048(2) 0.1909(2) 0.3788(2)
H24_19 H 0.7887 0.1810 0.3836
O25_19 O 0.8653(2) 0.28540(18) 0.3769(2)
C1_11 C 0.5933(3) 0.9420(3) 0.4061(2)
C2_11 C 0.59804(16) 0.98589(15) 0.37246(15)
C6_11 C 0.56860(15) 0.99860(18) 0.32981(14)
C7_11 C 0.57734(17) 0.97805(13) 0.35103(17)
H3_11 H 0.5692 0.9586 0.3509
C9_11 C 0.5460(3) 0.9889(3) 0.3082(2)
N1_11 N 0.5689(2) 0.9315(2) 0.39355(16)
N2_11 N 0.6061(2) 0.96648(18) 0.3954(2)
H7_11 H 0.6228 0.9713 0.4043
O4_11 O 0.5375(2) 0.9644(2) 0.30628(17)
C19_11 C 0.5580(3) 0.9061(2) 0.4067(3)
C20_11 C 0.51411(15) 0.87246(15) 0.40196(16)
C21_11 C 0.48572(17) 0.87267(14) 0.39001(14)
H9_11 H 0.4804 0.8873 0.3759
C22_11 C 0.46517(13) 0.85146(16) 0.39876(16)
C23_11 C 0.47300(16) 0.83003(14) 0.41945(17)
H10_11 H 0.4590 0.8155 0.4254
C24_11 C 0.50140(18) 0.82981(14) 0.43140(15)
C25_11 C 0.52195(13) 0.85103(17) 0.42266(17)
H11_11 H 0.5414 0.8509 0.4308
C26_11 C 0.4357(3) 0.8523(3) 0.3861(3)
C27_11 C 0.5111(3) 0.8082(2) 0.4540(3)
N5_11 N 0.5685(2) 0.89355(16) 0.4311(2)
N6_11 N 0.53352(18) 0.8954(2) 0.3939(2)
H12_11 H 0.5287 0.9043 0.3772
O13_11 O 0.5356(2) 0.80628(17) 0.4625(2)
C28_11 C 0.5939(2) 0.9067(3) 0.4420(3)
C29_11 C 0.62754(15) 0.90196(16) 0.48589(15)
C30_11 C 0.62733(14) 0.89001(14) 0.51428(17)
H13_11 H 0.6127 0.8759 0.5196
C31_11 C 0.64854(16) 0.89876(16) 0.53483(13)
C32_11 C 0.66997(14) 0.91945(17) 0.52700(16)
H14_11 H 0.6845 0.9254 0.5410
C33_11 C 0.67019(14) 0.93140(15) 0.49860(18)
C34_11 C 0.64897(17) 0.92266(17) 0.47805(13)
H15_11 H 0.6491 0.9308 0.4586
C35_11 C 0.6477(3) 0.8861(3) 0.5643(3)
C36_11 C 0.6918(2) 0.9540(3) 0.4889(3)
N7_11 N 0.60645(16) 0.9311(2) 0.4315(2)
N8_11 N 0.6046(2) 0.8939(2) 0.46648(18)
H16_11 H 0.5957 0.8772 0.4713
O17_11 O 0.69372(17) 0.9625(2) 0.4644(2)
C30_12 C 0.37267(14) 0.60999(14) 0.01428(17)
H13_12 H 0.3873 0.6241 0.0196
C31_12 C 0.35146(16) 0.60124(16) 0.03483(13)
C32_12 C 0.33003(14) 0.58055(17) 0.02700(16)
H14_12 H 0.3155 0.5746 0.0410
C35_12 C 0.3523(3) 0.6139(3) 0.0643(3)
C1_12 C 0.4067(3) 0.5580(3) 0.9061(2)
C2_12 C 0.40196(16) 0.51411(15) 0.87246(15)
C3_12 C 0.39001(14) 0.48572(17) 0.87267(14)
H1_12 H 0.3759 0.4804 0.8873
C4_12 C 0.39876(16) 0.46517(13) 0.85146(16)
C5_12 C 0.41945(17) 0.47300(16) 0.83003(14)
H2_12 H 0.4254 0.4590 0.8155
C6_12 C 0.43140(15) 0.50140(18) 0.82981(14)
C7_12 C 0.42266(17) 0.52195(13) 0.85103(17)
H3_12 H 0.4308 0.5414 0.8509
C8_12 C 0.3861(3) 0.4357(3) 0.8523(3)
C9_12 C 0.4540(3) 0.5111(3) 0.8082(2)
C10_20 C 0.1787(3) 0.3548(2) 0.8188(3)
C11_20 C 0.21319(15) 0.39635(15) 0.80931(18)
C12_20 C 0.21271(16) 0.42326(17) 0.79433(18)
H4_20 H 0.1966 0.4280 0.7817
C13_20 C 0.23586(19) 0.44328(13) 0.79789(18)
C14_20 C 0.25948(16) 0.43638(14) 0.81642(18)
H5_20 H 0.2753 0.4501 0.8188
C15_20 C 0.25996(14) 0.40946(15) 0.83140(16)
C16_20 C 0.23681(16) 0.38945(12) 0.82784(16)
H6_20 H 0.2371 0.3711 0.8381
C17_20 C 0.2367(4) 0.4713(4) 0.7806(4)
C18_20 C 0.2848(3) 0.4006(3) 0.8500(3)
N1_12 N 0.4311(2) 0.5685(2) 0.89355(16)
N2_12 N 0.3939(2) 0.53352(18) 0.8954(2)
H7_12 H 0.3772 0.5287 0.9043
N3_20 N 0.15603(19) 0.3416(2) 0.8051(2)
N4_20 N 0.1909(2) 0.3788(2) 0.8048(2)
H8_20 H 0.1810 0.3836 0.7887
O4_12 O 0.4625(2) 0.5356(2) 0.80628(17)
O8_20 O 0.28540(18) 0.3769(2) 0.8653(2)
C19_12 C 0.4420(3) 0.5939(2) 0.9067(3)
C20_12 C 0.48589(15) 0.62754(15) 0.90196(16)
C21_12 C 0.51428(17) 0.62733(14) 0.89001(14)
H9_12 H 0.5196 0.6127 0.8759
C22_12 C 0.53483(13) 0.64854(16) 0.89876(16)
C23_12 C 0.52700(16) 0.66997(14) 0.91945(17)
H10_12 H 0.5410 0.6845 0.9254
C24_12 C 0.49860(18) 0.67019(14) 0.93140(15)
C25_12 C 0.47805(13) 0.64897(17) 0.92266(17)
H11_12 H 0.4586 0.6491 0.9308
C26_12 C 0.5643(3) 0.6477(3) 0.8861(3)
C27_12 C 0.4889(3) 0.6918(2) 0.9540(3)
N5_12 N 0.4315(2) 0.60645(16) 0.9311(2)
N6_12 N 0.46648(18) 0.6046(2) 0.8939(2)
H12_12 H 0.4713 0.5957 0.8772
O13_12 O 0.4644(2) 0.69372(17) 0.9625(2)
C28_12 C 0.4061(2) 0.5933(3) 0.9420(3)
C29_12 C 0.37246(15) 0.59804(16) 0.98589(15)
C33_12 C 0.32981(14) 0.56860(15) 0.99860(18)
C34_12 C 0.35103(17) 0.57734(17) 0.97805(13)
H15_12 H 0.3509 0.5692 0.9586
C36_12 C 0.3082(2) 0.5460(3) 0.9889(3)
N7_12 N 0.39355(16) 0.5689(2) 0.9315(2)
N8_12 N 0.3954(2) 0.6061(2) 0.96648(18)
H16_12 H 0.4043 0.6228 0.9713
O17_12 O 0.30628(17) 0.5375(2) 0.9644(2)
C37_20 C 0.1452(2) 0.3188(3) 0.8213(3)
C38_20 C 0.10365(15) 0.30931(18) 0.78681(15)
C39_20 C 0.07674(17) 0.29433(18) 0.78729(16)
H17_20 H 0.0720 0.2817 0.8034
C40_20 C 0.05672(13) 0.29789(18) 0.76414(19)
C41_20 C 0.06362(14) 0.31642(18) 0.74052(16)
H18_20 H 0.0499 0.3188 0.7247
C42_20 C 0.09054(15) 0.33140(16) 0.74004(14)
C43_20 C 0.11055(12) 0.32784(16) 0.76319(16)
H19_20 H 0.1289 0.3381 0.7629
C44_20 C 0.0287(4) 0.2806(4) 0.7633(4)
C45_20 C 0.0994(3) 0.3500(3) 0.7152(3)
N9_20 N 0.1584(2) 0.3051(2) 0.84397(19)
N10_20 N 0.1212(2) 0.3048(2) 0.8091(2)
H20_20 H 0.1164 0.2887 0.8190
O21_20 O 0.1231(2) 0.3653(2) 0.71460(18)
C46_20 C 0.1812(3) 0.3213(3) 0.8548(2)
C47_20 C 0.19069(18) 0.28681(15) 0.89635(15)
C48_20 C 0.20567(18) 0.28729(16) 0.92326(17)
H21_20 H 0.2183 0.3034 0.9280
C49_20 C 0.20211(18) 0.26414(19) 0.94328(13)
C50_20 C 0.18358(18) 0.24052(16) 0.93638(14)
H22_20 H 0.1812 0.2247 0.9501
C51_20 C 0.16860(16) 0.24004(14) 0.90946(15)
C52_20 C 0.17216(16) 0.26319(16) 0.88945(12)
H23_20 H 0.1619 0.2629 0.8711
C53_20 C 0.2194(4) 0.2633(4) 0.9713(4)
C54_20 C 0.1500(3) 0.2152(3) 0.9006(3)
N11_20 N 0.1949(2) 0.34397(19) 0.8416(2)
N12_20 N 0.1952(2) 0.3091(2) 0.8788(2)
H24_20 H 0.2113 0.3190 0.8836
O25_20 O 0.1347(2) 0.21460(18) 0.8769(2)
C55_17 C 0.6567(3) 0.8439(2) 0.3080(3)
C56_17 C 0.65196(16) 0.87754(15) 0.26411(15)
C57_17 C 0.64001(14) 0.87733(14) 0.23572(17)
H25_17 H 0.6259 0.8627 0.2304
C58_17 C 0.64876(16) 0.89854(16) 0.21517(13)
C59_17 C 0.66945(17) 0.91997(14) 0.22300(16)
H26_17 H 0.6754 0.9345 0.2090
C60_17 C 0.68140(15) 0.92019(14) 0.25140(18)
C61_17 C 0.67266(17) 0.89897(17) 0.27195(13)
H27_17 H 0.6808 0.8991 0.2914
C62_17 C 0.6361(3) 0.8977(3) 0.1857(3)
C63_17 C 0.7040(3) 0.9418(2) 0.2611(3)
N13_17 N 0.6811(2) 0.85645(16) 0.3185(2)
N14_17 N 0.6439(2) 0.8546(2) 0.28352(18)
H28_17 H 0.6272 0.8457 0.2787
O29_17 O 0.7125(2) 0.94372(17) 0.2856(2)
C64_17 C 0.6920(3) 0.8433(3) 0.3439(2)
C65_17 C 0.73589(15) 0.84804(16) 0.37754(15)
C66_17 C 0.76428(17) 0.85999(14) 0.37733(14)
H29_17 H 0.7696 0.8741 0.3627
C67_17 C 0.78483(13) 0.85124(16) 0.39854(16)
C68_17 C 0.77700(16) 0.83055(17) 0.41997(14)
H30_17 H 0.7910 0.8246 0.4345
C69_17 C 0.74860(18) 0.81860(15) 0.42019(14)
C70_17 C 0.72805(13) 0.82734(17) 0.39897(17)
H31_17 H 0.7086 0.8192 0.3991
C71_17 C 0.8143(3) 0.8639(3) 0.3977(3)
C72_17 C 0.7389(3) 0.7960(3) 0.4418(2)
N15_17 N 0.6815(2) 0.8189(2) 0.35645(16)
N16_17 N 0.71648(18) 0.8561(2) 0.3546(2)
H32_17 H 0.7213 0.8728 0.3457
O34_17 O 0.7144(2) 0.7875(2) 0.44372(17)
C73_17 C 0.6561(2) 0.8080(3) 0.3433(3)
C74_17 C 0.62246(15) 0.76411(15) 0.34804(16)
C75_17 C 0.62267(14) 0.73572(17) 0.35999(14)
H33_17 H 0.6373 0.7304 0.3741
C76_17 C 0.60146(16) 0.71517(13) 0.35124(16)
C77_17 C 0.58003(14) 0.72300(16) 0.33055(17)
H34_17 H 0.5655 0.7090 0.3246
C78_17 C 0.57981(14) 0.75140(18) 0.31860(15)
C79_17 C 0.60103(17) 0.77195(13) 0.32734(17)
H35_17 H 0.6009 0.7914 0.3192
C80_17 C 0.6023(3) 0.6857(3) 0.3639(3)
C81_17 C 0.5582(2) 0.7611(3) 0.2960(3)
N17_17 N 0.64355(16) 0.8185(2) 0.3189(2)
N18_17 N 0.6454(2) 0.78352(18) 0.3561(2)
H36_17 H 0.6543 0.7787 0.3728
O38_17 O 0.55628(17) 0.7856(2) 0.2875(2)
C55_18 C 0.3433(3) 0.6561(2) 0.8080(3)
C56_18 C 0.34804(16) 0.62246(15) 0.76411(15)
C57_18 C 0.35999(14) 0.62267(14) 0.73572(17)
H25_18 H 0.3741 0.6373 0.7304
C58_18 C 0.35124(16) 0.60146(16) 0.71517(13)
C59_18 C 0.33055(17) 0.58003(14) 0.72300(16)
H26_18 H 0.3246 0.5655 0.7090
C60_18 C 0.31860(15) 0.57981(14) 0.75140(18)
C61_18 C 0.32734(17) 0.60103(17) 0.77195(13)
H27_18 H 0.3192 0.6009 0.7914
C62_18 C 0.3639(3) 0.6023(3) 0.6857(3)
C63_18 C 0.2960(3) 0.5582(2) 0.7611(3)
N13_18 N 0.3189(2) 0.64355(16) 0.8185(2)
N14_18 N 0.3561(2) 0.6454(2) 0.78352(18)
H28_18 H 0.3728 0.6543 0.7787
O29_18 O 0.2875(2) 0.55628(17) 0.7856(2)
C64_18 C 0.3080(3) 0.6567(3) 0.8439(2)
C65_18 C 0.26411(15) 0.65196(16) 0.87754(15)
C66_18 C 0.23572(17) 0.64001(14) 0.87733(14)
H29_18 H 0.2304 0.6259 0.8627
C67_18 C 0.21517(13) 0.64876(16) 0.89854(16)
C68_18 C 0.22300(16) 0.66945(17) 0.91997(14)
H30_18 H 0.2090 0.6754 0.9345
C69_18 C 0.25140(18) 0.68140(15) 0.92019(14)
C70_18 C 0.27195(13) 0.67266(17) 0.89897(17)
H31_18 H 0.2914 0.6808 0.8991
C71_18 C 0.1857(3) 0.6361(3) 0.8977(3)
C72_18 C 0.2611(3) 0.7040(3) 0.9418(2)
N15_18 N 0.3185(2) 0.6811(2) 0.85645(16)
N16_18 N 0.28352(18) 0.6439(2) 0.8546(2)
H32_18 H 0.2787 0.6272 0.8457
O34_18 O 0.2856(2) 0.7125(2) 0.94372(17)
C73_18 C 0.3439(2) 0.6920(3) 0.8433(3)
C74_18 C 0.37754(15) 0.73589(15) 0.84804(16)
C75_18 C 0.37733(14) 0.76428(17) 0.85999(14)
H33_18 H 0.3627 0.7696 0.8741
C76_18 C 0.39854(16) 0.78483(13) 0.85124(16)
C77_18 C 0.41997(14) 0.77700(16) 0.83055(17)
H34_18 H 0.4345 0.7910 0.8246
C78_18 C 0.42019(14) 0.74860(18) 0.81860(15)
C79_18 C 0.39897(17) 0.72805(13) 0.82734(17)
H35_18 H 0.3991 0.7086 0.8192
C80_18 C 0.3977(3) 0.8143(3) 0.8639(3)
C81_18 C 0.4418(2) 0.7389(3) 0.7960(3)
N17_18 N 0.35645(16) 0.6815(2) 0.8189(2)
N18_18 N 0.3546(2) 0.71648(18) 0.8561(2)
H36_18 H 0.3457 0.7213 0.8728
O38_18 O 0.44372(17) 0.7144(2) 0.7875(2)
C55_19 C 0.1567(3) 0.1561(2) 0.1920(3)
C56_19 C 0.15196(16) 0.12246(15) 0.23589(15)
C57_19 C 0.14001(14) 0.12267(14) 0.26428(17)
H25_19 H 0.1259 0.1373 0.2696
C58_19 C 0.14876(16) 0.10146(16) 0.28483(13)
C59_19 C 0.16945(17) 0.08003(14) 0.27700(16)
H26_19 H 0.1754 0.0655 0.2910
C60_19 C 0.18140(15) 0.07981(14) 0.24860(18)
C61_19 C 0.17266(17) 0.10103(17) 0.22805(13)
H27_19 H 0.1808 0.1009 0.2086
C62_19 C 0.1361(3) 0.1023(3) 0.3143(3)
C63_19 C 0.2040(3) 0.0582(2) 0.2389(3)
N13_19 N 0.1811(2) 0.14355(16) 0.1815(2)
N14_19 N 0.1439(2) 0.1454(2) 0.21648(18)
H28_19 H 0.1272 0.1543 0.2213
O29_19 O 0.2125(2) 0.05628(17) 0.2144(2)
C64_19 C 0.1920(3) 0.1567(3) 0.1561(2)
C65_19 C 0.23589(15) 0.15196(16) 0.12246(15)
C66_19 C 0.26428(17) 0.14001(14) 0.12267(14)
H29_19 H 0.2696 0.1259 0.1373
C67_19 C 0.28483(13) 0.14876(16) 0.10146(16)
C68_19 C 0.27700(16) 0.16945(17) 0.08003(14)
H30_19 H 0.2910 0.1754 0.0655
C69_19 C 0.24860(18) 0.18140(15) 0.07981(14)
C70_19 C 0.22805(13) 0.17266(17) 0.10103(17)
H31_19 H 0.2086 0.1808 0.1009
C71_19 C 0.3143(3) 0.1361(3) 0.1023(3)
C72_19 C 0.2389(3) 0.2040(3) 0.0582(2)
N15_19 N 0.1815(2) 0.1811(2) 0.14355(16)
N16_19 N 0.21648(18) 0.1439(2) 0.1454(2)
H32_19 H 0.2213 0.1272 0.1543
O34_19 O 0.2144(2) 0.2125(2) 0.05628(17)
C73_19 C 0.1561(2) 0.1920(3) 0.1567(3)
C74_19 C 0.12246(15) 0.23589(15) 0.15196(16)
C75_19 C 0.12267(14) 0.26428(17) 0.14001(14)
H33_19 H 0.1373 0.2696 0.1259
C76_19 C 0.10146(16) 0.28483(13) 0.14876(16)
C77_19 C 0.08003(14) 0.27700(16) 0.16945(17)
H34_19 H 0.0655 0.2910 0.1754
C78_19 C 0.07981(14) 0.24860(18) 0.18140(15)
C79_19 C 0.10103(17) 0.22805(13) 0.17266(17)
H35_19 H 0.1009 0.2086 0.1808
C80_19 C 0.1023(3) 0.3143(3) 0.1361(3)
C81_19 C 0.0582(2) 0.2389(3) 0.2040(3)
N17_19 N 0.14355(16) 0.1815(2) 0.1811(2)
N18_19 N 0.1454(2) 0.21648(18) 0.1439(2)
H36_19 H 0.1543 0.2213 0.1272
O38_19 O 0.05628(17) 0.2144(2) 0.2125(2)
C55_20 C 0.8433(3) 0.3439(2) 0.6920(3)
C56_20 C 0.84804(16) 0.37754(15) 0.73589(15)
C57_20 C 0.85999(14) 0.37733(14) 0.76428(17)
H25_20 H 0.8741 0.3627 0.7696
C58_20 C 0.85124(16) 0.39854(16) 0.78483(13)
C59_20 C 0.83055(17) 0.41997(14) 0.77700(16)
H26_20 H 0.8246 0.4345 0.7910
C60_20 C 0.81860(15) 0.42019(14) 0.74860(18)
C61_20 C 0.82734(17) 0.39897(17) 0.72805(13)
H27_20 H 0.8192 0.3991 0.7086
C62_20 C 0.8639(3) 0.3977(3) 0.8143(3)
C63_20 C 0.7960(3) 0.4418(2) 0.7389(3)
N13_20 N 0.8189(2) 0.35645(16) 0.6815(2)
N14_20 N 0.8561(2) 0.3546(2) 0.71648(18)
H28_20 H 0.8728 0.3457 0.7213
O29_20 O 0.7875(2) 0.44372(17) 0.7144(2)
C64_20 C 0.8080(3) 0.3433(3) 0.6561(2)
C65_20 C 0.76411(15) 0.34804(16) 0.62246(15)
C66_20 C 0.73572(17) 0.35999(14) 0.62267(14)
H29_20 H 0.7304 0.3741 0.6373
C67_20 C 0.71517(13) 0.35124(16) 0.60146(16)
C68_20 C 0.72300(16) 0.33055(17) 0.58003(14)
H30_20 H 0.7090 0.3246 0.5655
C69_20 C 0.75140(18) 0.31860(15) 0.57981(14)
C70_20 C 0.77195(13) 0.32734(17) 0.60103(17)
H31_20 H 0.7914 0.3192 0.6009
C71_20 C 0.6857(3) 0.3639(3) 0.6023(3)
C72_20 C 0.7611(3) 0.2960(3) 0.5582(2)
N15_20 N 0.8185(2) 0.3189(2) 0.64355(16)
N16_20 N 0.78352(18) 0.3561(2) 0.6454(2)
H32_20 H 0.7787 0.3728 0.6543
O34_20 O 0.7856(2) 0.2875(2) 0.55628(17)
C73_20 C 0.8439(2) 0.3080(3) 0.6567(3)
C74_20 C 0.87754(15) 0.26411(15) 0.65196(16)
C75_20 C 0.87733(14) 0.23572(17) 0.64001(14)
H33_20 H 0.8627 0.2304 0.6259
C76_20 C 0.89854(16) 0.21517(13) 0.64876(16)
C77_20 C 0.91997(14) 0.22300(16) 0.66945(17)
H34_20 H 0.9345 0.2090 0.6754
C78_20 C 0.92019(14) 0.25140(18) 0.68140(15)
C79_20 C 0.89897(17) 0.27195(13) 0.67266(17)
H35_20 H 0.8991 0.2914 0.6808
C80_20 C 0.8977(3) 0.1857(3) 0.6361(3)
C81_20 C 0.9418(2) 0.2611(3) 0.7040(3)
N17_20 N 0.85645(16) 0.3185(2) 0.6811(2)
N18_20 N 0.8546(2) 0.28352(18) 0.6439(2)
H36_20 H 0.8457 0.2787 0.6272
O38_20 O 0.94372(17) 0.2856(2) 0.7125(2)
C41_21 C 0.31362(14) 0.00948(16) 0.06642(18)
H18_21 H 0.2999 0.0253 0.0688
C42_21 C 0.34054(15) 0.00996(14) 0.08140(16)
C45_21 C 0.3494(3) 0.0348(3) 0.1000(3)
O21_21 O 0.3731(2) 0.03540(18) 0.1153(2)
C10_21 C 0.4287(3) 0.9312(3) 0.1048(2)
C11_21 C 0.46319(15) 0.94069(18) 0.14635(15)
C12_21 C 0.46271(16) 0.95567(18) 0.17326(17)
H4_21 H 0.4466 0.9683 0.1780
C13_21 C 0.48586(19) 0.95211(18) 0.19328(13)
C14_21 C 0.50948(16) 0.93358(18) 0.18638(14)
H5_21 H 0.5253 0.9312 0.2001
C15_21 C 0.50996(14) 0.91860(16) 0.15946(15)
C16_21 C 0.48681(16) 0.92216(16) 0.13945(12)
H6_21 H 0.4871 0.9119 0.1211
C17_21 C 0.4867(4) 0.9694(4) 0.2213(4)
C18_21 C 0.5348(3) 0.9000(3) 0.1506(3)
N3_21 N 0.40603(19) 0.9449(2) 0.0916(2)
N4_21 N 0.4409(2) 0.9452(2) 0.1288(2)
H8_21 H 0.4310 0.9613 0.1336
O8_21 O 0.53540(18) 0.8847(2) 0.1269(2)
C37_21 C 0.3952(2) 0.9287(3) 0.0688(3)
C38_21 C 0.35365(15) 0.96319(15) 0.05931(18)
C39_21 C 0.32674(17) 0.96271(16) 0.04433(18)
H17_21 H 0.3220 0.9466 0.0317
C40_21 C 0.30672(13) 0.98586(19) 0.04789(18)
C43_21 C 0.36055(12) 0.98681(16) 0.07784(16)
H19_21 H 0.3789 0.9871 0.0881
C44_21 C 0.2787(4) 0.9867(4) 0.0306(4)
N9_21 N 0.4084(2) 0.90603(19) 0.0551(2)
N10_21 N 0.3712(2) 0.9409(2) 0.0548(2)
H20_21 H 0.3664 0.9310 0.0387
C46_21 C 0.4312(3) 0.8952(2) 0.0713(3)
C47_21 C 0.44069(18) 0.85365(15) 0.03681(15)
C48_21 C 0.45567(18) 0.82674(17) 0.03729(16)
H21_21 H 0.4683 0.8220 0.0534
C49_21 C 0.45211(18) 0.80672(13) 0.01414(19)
C52_21 C 0.42216(16) 0.86055(12) 0.01319(16)
H23_21 H 0.4119 0.8789 0.0129
C53_21 C 0.4694(4) 0.7787(4) 0.0133(4)
N11_21 N 0.4449(2) 0.9084(2) 0.09397(19)
N12_21 N 0.4452(2) 0.8712(2) 0.0591(2)
H24_21 H 0.4613 0.8664 0.0690
C50_21 C 0.43358(18) 0.81362(14) 0.99052(16)
H22_21 H 0.4312 0.7999 0.9747
C51_21 C 0.41860(16) 0.84054(15) 0.99004(14)
C54_21 C 0.4000(3) 0.8494(3) 0.9652(3)
O25_21 O 0.3847(2) 0.8731(2) 0.96460(18)
C50_22 C 0.06642(18) 0.31362(14) 0.00948(16)
H22_22 H 0.0688 0.2999 0.0253
C51_22 C 0.08140(16) 0.34054(15) 0.00996(14)
C54_22 C 0.1000(3) 0.3494(3) 0.0348(3)
O25_22 O 0.1153(2) 0.3731(2) 0.03540(18)
C10_22 C 0.0713(3) 0.4312(3) 0.8952(2)
C11_22 C 0.03681(15) 0.44069(18) 0.85365(15)
C12_22 C 0.03729(16) 0.45567(18) 0.82674(17)
H4_22 H 0.0534 0.4683 0.8220
C13_22 C 0.01414(19) 0.45211(18) 0.80672(13)
C16_22 C 0.01319(16) 0.42216(16) 0.86055(12)
H6_22 H 0.0129 0.4119 0.8789
C17_22 C 0.0133(4) 0.4694(4) 0.7787(4)
N3_22 N 0.09397(19) 0.4449(2) 0.9084(2)
N4_22 N 0.0591(2) 0.4452(2) 0.8712(2)
H8_22 H 0.0690 0.4613 0.8664
C37_22 C 0.1048(2) 0.4287(3) 0.9312(3)
C38_22 C 0.14635(15) 0.46319(15) 0.94069(18)
C39_22 C 0.17326(17) 0.46271(16) 0.95567(18)
H17_22 H 0.1780 0.4466 0.9683
C40_22 C 0.19328(13) 0.48586(19) 0.95211(18)
C41_22 C 0.18638(14) 0.50948(16) 0.93358(18)
H18_22 H 0.2001 0.5253 0.9312
C42_22 C 0.15946(15) 0.50996(14) 0.91860(16)
C43_22 C 0.13945(12) 0.48681(16) 0.92216(16)
H19_22 H 0.1211 0.4871 0.9119
C44_22 C 0.2213(4) 0.4867(4) 0.9694(4)
C45_22 C 0.1506(3) 0.5348(3) 0.9000(3)
N9_22 N 0.0916(2) 0.40603(19) 0.9449(2)
N10_22 N 0.1288(2) 0.4409(2) 0.9452(2)
H20_22 H 0.1336 0.4310 0.9613
O21_22 O 0.1269(2) 0.53540(18) 0.8847(2)
C46_22 C 0.0688(3) 0.3952(2) 0.9287(3)
C47_22 C 0.05931(18) 0.35365(15) 0.96319(15)
C48_22 C 0.04433(18) 0.32674(17) 0.96271(16)
H21_22 H 0.0317 0.3220 0.9466
C49_22 C 0.04789(18) 0.30672(13) 0.98586(19)
C52_22 C 0.07784(16) 0.36055(12) 0.98681(16)
H23_22 H 0.0881 0.3789 0.9871
C53_22 C 0.0306(4) 0.2787(4) 0.9867(4)
N11_22 N 0.0551(2) 0.4084(2) 0.90603(19)
N12_22 N 0.0548(2) 0.3712(2) 0.9409(2)
H24_22 H 0.0387 0.3664 0.9310
C14_22 C 0.99052(16) 0.43358(18) 0.81362(14)
H5_22 H 0.9747 0.4312 0.7999
C15_22 C 0.99004(14) 0.41860(16) 0.84054(15)
C18_22 C 0.9652(3) 0.4000(3) 0.8494(3)
O8_22 O 0.96460(18) 0.3847(2) 0.8731(2)
C10_23 C 0.5713(3) 0.5688(3) 0.6048(2)
C11_23 C 0.53681(15) 0.55931(18) 0.64635(15)
C12_23 C 0.53729(16) 0.54433(18) 0.67326(17)
H4_23 H 0.5534 0.5317 0.6780
C13_23 C 0.51414(19) 0.54789(18) 0.69328(13)
C14_23 C 0.49052(16) 0.56642(18) 0.68638(14)
H5_23 H 0.4747 0.5688 0.7001
C15_23 C 0.49004(14) 0.58140(16) 0.65946(15)
C16_23 C 0.51319(16) 0.57784(16) 0.63945(12)
H6_23 H 0.5129 0.5881 0.6211
C17_23 C 0.5133(4) 0.5306(4) 0.7213(4)
C18_23 C 0.4652(3) 0.6000(3) 0.6506(3)
N3_23 N 0.59397(19) 0.5551(2) 0.5916(2)
N4_23 N 0.5591(2) 0.5548(2) 0.6288(2)
H8_23 H 0.5690 0.5387 0.6336
O8_23 O 0.46460(18) 0.6153(2) 0.6269(2)
C37_23 C 0.6048(2) 0.5713(3) 0.5688(3)
C38_23 C 0.64635(15) 0.53681(15) 0.55931(18)
C39_23 C 0.67326(17) 0.53729(16) 0.54433(18)
H17_23 H 0.6780 0.5534 0.5317
C40_23 C 0.69328(13) 0.51414(19) 0.54789(18)
C41_23 C 0.68638(14) 0.49052(16) 0.56642(18)
H18_23 H 0.7001 0.4747 0.5688
C42_23 C 0.65946(15) 0.49004(14) 0.58140(16)
C43_23 C 0.63945(12) 0.51319(16) 0.57784(16)
H19_23 H 0.6211 0.5129 0.5881
C44_23 C 0.7213(4) 0.5133(4) 0.5306(4)
C45_23 C 0.6506(3) 0.4652(3) 0.6000(3)
N9_23 N 0.5916(2) 0.59397(19) 0.5551(2)
N10_23 N 0.6288(2) 0.5591(2) 0.5548(2)
H20_23 H 0.6336 0.5690 0.5387
O21_23 O 0.6269(2) 0.46460(18) 0.6153(2)
C46_23 C 0.5688(3) 0.6048(2) 0.5713(3)
C47_23 C 0.55931(18) 0.64635(15) 0.53681(15)
C48_23 C 0.54433(18) 0.67326(17) 0.53729(16)
H21_23 H 0.5317 0.6780 0.5534
C49_23 C 0.54789(18) 0.69328(13) 0.51414(19)
C50_23 C 0.56642(18) 0.68638(14) 0.49052(16)
H22_23 H 0.5688 0.7001 0.4747
C51_23 C 0.58140(16) 0.65946(15) 0.49004(14)
C52_23 C 0.57784(16) 0.63945(12) 0.51319(16)
H23_23 H 0.5881 0.6211 0.5129
C53_23 C 0.5306(4) 0.7213(4) 0.5133(4)
C54_23 C 0.6000(3) 0.6506(3) 0.4652(3)
N11_23 N 0.5551(2) 0.5916(2) 0.59397(19)
N12_23 N 0.5548(2) 0.6288(2) 0.5591(2)
H24_23 H 0.5387 0.6336 0.5690
O25_23 O 0.6153(2) 0.6269(2) 0.46460(18)
C14_24 C 0.00948(16) 0.06642(18) 0.31362(14)
H5_24 H 0.0253 0.0688 0.2999
C15_24 C 0.00996(14) 0.08140(16) 0.34054(15)
C18_24 C 0.0348(3) 0.1000(3) 0.3494(3)
O8_24 O 0.03540(18) 0.1153(2) 0.3731(2)
C10_24 C 0.9287(3) 0.0688(3) 0.3952(2)
C11_24 C 0.96319(15) 0.05931(18) 0.35365(15)
C12_24 C 0.96271(16) 0.04433(18) 0.32674(17)
H4_24 H 0.9466 0.0317 0.3220
C13_24 C 0.98586(19) 0.04789(18) 0.30672(13)
C16_24 C 0.98681(16) 0.07784(16) 0.36055(12)
H6_24 H 0.9871 0.0881 0.3789
C17_24 C 0.9867(4) 0.0306(4) 0.2787(4)
N3_24 N 0.90603(19) 0.0551(2) 0.4084(2)
N4_24 N 0.9409(2) 0.0548(2) 0.3712(2)
H8_24 H 0.9310 0.0387 0.3664
C37_24 C 0.8952(2) 0.0713(3) 0.4312(3)
C38_24 C 0.85365(15) 0.03681(15) 0.44069(18)
C39_24 C 0.82674(17) 0.03729(16) 0.45567(18)
H17_24 H 0.8220 0.0534 0.4683
C40_24 C 0.80672(13) 0.01414(19) 0.45211(18)
C43_24 C 0.86055(12) 0.01319(16) 0.42216(16)
H19_24 H 0.8789 0.0129 0.4119
C44_24 C 0.7787(4) 0.0133(4) 0.4694(4)
N9_24 N 0.9084(2) 0.09397(19) 0.4449(2)
N10_24 N 0.8712(2) 0.0591(2) 0.4452(2)
H20_24 H 0.8664 0.0690 0.4613
C46_24 C 0.9312(3) 0.1048(2) 0.4287(3)
C47_24 C 0.94069(18) 0.14635(15) 0.46319(15)
C48_24 C 0.95567(18) 0.17326(17) 0.46271(16)
H21_24 H 0.9683 0.1780 0.4466
C49_24 C 0.95211(18) 0.19328(13) 0.48586(19)
C50_24 C 0.93358(18) 0.18638(14) 0.50948(16)
H22_24 H 0.9312 0.2001 0.5253
C51_24 C 0.91860(16) 0.15946(15) 0.50996(14)
C52_24 C 0.92216(16) 0.13945(12) 0.48681(16)
H23_24 H 0.9119 0.1211 0.4871
C53_24 C 0.9694(4) 0.2213(4) 0.4867(4)
C54_24 C 0.9000(3) 0.1506(3) 0.5348(3)
N11_24 N 0.9449(2) 0.0916(2) 0.40603(19)
N12_24 N 0.9452(2) 0.1288(2) 0.4409(2)
H24_24 H 0.9613 0.1336 0.4310
O25_24 O 0.8847(2) 0.1269(2) 0.53540(18)
C41_24 C 0.81362(14) 0.99052(16) 0.43358(18)
H18_24 H 0.7999 0.9747 0.4312
C42_24 C 0.84054(15) 0.99004(14) 0.41860(16)
C45_24 C 0.8494(3) 0.9652(3) 0.4000(3)
O21_24 O 0.8731(2) 0.96460(18) 0.3847(2)
loop_
_geom_bond_atom_site_label_1
_geom_bond_atom_site_label_2
_geom_bond_site_symmetry_1
_geom_bond_site_symmetry_2
O69 Zn1 1_555 1_555
O70 Zn3 1_555 1_555
C66 H29 1_555 1_555
C67 C66 1_555 1_555
C68 C67 1_555 1_555
H30 C68 1_555 1_555
C71 C67 1_555 1_555
O31 C71 1_555 1_555
O32 C71 1_555 1_555
Zn5 O32 1_555 1_555
Zn15 O33 1_555 1_555
Zn22 O31 1_555 1_555
O51 Zn5 1_555 1_555
O60 Zn3_2 1_555 1_555
O61 Zn3_2 1_555 1_555
O72 Zn5 1_555 1_555
O75 Zn5 1_555 1_555
Zn22 O75 1_555 1_555
C21 H9 1_555 1_555
C22 C21 1_555 1_555
C23 C22 1_555 1_555
H10 C23 1_555 1_555
C26 C22 1_555 1_555
O10 C26 1_555 1_555
O11 C26 1_555 1_555
Zn3_3 O28 1_555 1_555
Zn4 O11 1_555 1_555
C57 H25 1_555 1_555
C58 C57 1_555 1_555
C59 C58 1_555 1_555
H26 C59 1_555 1_555
C62 C58 1_555 1_555
O26 Zn4 1_555 1_555
O27 C62 1_555 1_555
O30 Zn4 1_555 1_555
Zn6 O27 1_555 1_555
Zn12 O12 1_555 1_555
Zn21 O10 1_555 1_555
O52 Zn6 1_555 1_555
O58 Zn1_2 1_555 1_555
O62 Zn1_2 1_555 1_555
O65 Zn3_3 1_555 1_555
O71 Zn4 1_555 1_555
O73 Zn6 1_555 1_555
C62 O26 1_555 1_555
O30 Zn6 1_555 1_555
O30 Zn21 1_555 1_555
C55 N13 1_555 1_555
C61 C56 1_555 1_555
H27 C61 1_555 1_555
C63 C60 1_555 1_555
N13 C64 1_555 1_555
N14 C55 1_555 1_555
H28 N14 1_555 1_555
O29 C63 1_555 1_555
C64 N15 1_555 1_555
C70 C65 1_555 1_555
H31 C70 1_555 1_555
C72 C69 1_555 1_555
N15 C73 1_555 1_555
N16 C64 1_555 1_555
H32 N16 1_555 1_555
O34 C72 1_555 1_555
C73 N17 1_555 1_555
C79 C74 1_555 1_555
H35 C79 1_555 1_555
C81 C78 1_555 1_555
N17 C55 1_555 1_555
N18 C73 1_555 1_555
H36 N18 1_555 1_555
O38 C81 1_555 1_555
O66 Zn3_4 1_555 1_555
C56 N14 1_555 1_555
C60 C61 1_555 1_555
C65 N16 1_555 1_555
C69 C70 1_555 1_555
C74 N18 1_555 1_555
C78 C79 1_555 1_555
Zn1_3 O3 1_555 1_555
Zn2 O1 1_555 1_555
C3 H1 1_555 1_555
C4 C3 1_555 1_555
C5 C4 1_555 1_555
H2 C5 1_555 1_555
C8 C4 1_555 1_555
C10 N3 1_555 1_555
C11 C12 1_555 1_555
C12 H4 1_555 1_555
C13 C12 1_555 1_555
C14 C13 1_555 1_555
H5 C14 1_555 1_555
C15 C14 1_555 1_555
C16 C11 1_555 1_555
H6 C16 1_555 1_555
C17 C13 1_555 1_555
C18 C15 1_555 1_555
N3 C37 1_555 1_555
N4 C10 1_555 1_555
H8 N4 1_555 1_555
O1 C8 1_555 1_555
O2 C8 1_555 1_555
O5 C17 1_555 1_555
O6 C17 1_555 1_555
O7 Zn2 1_555 1_555
O8 C18 1_555 1_555
O9 Zn2 1_555 1_555
C37 N9 1_555 1_555
C38 C39 1_555 1_555
C39 H17 1_555 1_555
C40 C39 1_555 1_555
C41 C40 1_555 1_555
H18 C41 1_555 1_555
C42 C41 1_555 1_555
C43 C38 1_555 1_555
H19 C43 1_555 1_555
C44 C40 1_555 1_555
C45 C42 1_555 1_555
N9 C46 1_555 1_555
N10 C37 1_555 1_555
H20 N10 1_555 1_555
O18 C44 1_555 1_555
O19 C44 1_555 1_555
O20 C45 1_555 1_555
O21 C45 1_555 1_555
C46 N11 1_555 1_555
C47 C48 1_555 1_555
C48 H21 1_555 1_555
C49 C48 1_555 1_555
C50 C49 1_555 1_555
H22 C50 1_555 1_555
C51 C50 1_555 1_555
C52 C47 1_555 1_555
H23 C52 1_555 1_555
C53 C49 1_555 1_555
C54 C51 1_555 1_555
N11 C10 1_555 1_555
N12 C46 1_555 1_555
H24 N12 1_555 1_555
O22 C53 1_555 1_555
O23 C53 1_555 1_555
O24 C54 1_555 1_555
O25 C54 1_555 1_555
Zn7 O9 1_555 1_555
C82 N19 1_555 1_555
C83 C84 1_555 1_555
C84 H37 1_555 1_555
C85 C84 1_555 1_555
C86 C85 1_555 1_555
H38 C86 1_555 1_555
C87 C86 1_555 1_555
C88 C83 1_555 1_555
H39 C88 1_555 1_555
C89 C85 1_555 1_555
C90 C87 1_555 1_555
N19 C91 1_555 1_555
N20 C82 1_555 1_555
H40 N20 1_555 1_555
O39 C89 1_555 1_555
O40 C89 1_555 1_555
O41 Zn7 1_555 1_555
O42 C90 1_555 1_555
C91 N21 1_555 1_555
C92 C93 1_555 1_555
C93 H41 1_555 1_555
C94 C93 1_555 1_555
C95 C94 1_555 1_555
H42 C95 1_555 1_555
C96 C95 1_555 1_555
C97 C92 1_555 1_555
H43 C97 1_555 1_555
C98 C94 1_555 1_555
C99 C96 1_555 1_555
N21 C100 1_555 1_555
N22 C91 1_555 1_555
H44 N22 1_555 1_555
O43 C98 1_555 1_555
O44 C98 1_555 1_555
O45 C99 1_555 1_555
O46 C99 1_555 1_555
C100 N23 1_555 1_555
C101 C102 1_555 1_555
C102 H45 1_555 1_555
C103 C102 1_555 1_555
C104 C103 1_555 1_555
H46 C104 1_555 1_555
C105 C104 1_555 1_555
C106 C101 1_555 1_555
H47 C106 1_555 1_555
C107 C103 1_555 1_555
C108 C105 1_555 1_555
N23 C82 1_555 1_555
N24 C100 1_555 1_555
H48 N24 1_555 1_555
O47 C107 1_555 1_555
O48 C107 1_555 1_555
O49 C108 1_555 1_555
O50 C108 1_555 1_555
Zn14 O18 1_555 1_555
Zn16 O43 1_555 1_555
Zn17 O49 1_555 1_555
Zn18 O45 1_555 1_555
Zn20 O20 1_555 1_555
Zn23 O24 1_555 1_555
Zn25 O2 1_555 1_555
O53 Zn7 1_555 1_555
O54 Zn2 1_555 1_555
O56 Zn7 1_555 1_555
O64 Zn1_3 1_555 1_555
C11 N4 1_555 1_555
C15 C16 1_555 1_555
C18 O7 1_555 1_555
O9 Zn25 1_555 1_555
C38 N10 1_555 1_555
C42 C43 1_555 1_555
O19 Zn14 1_555 1_555
C47 N12 1_555 1_555
C51 C52 1_555 1_555
C83 N20 1_555 1_555
C87 C88 1_555 1_555
C90 O41 1_555 1_555
C92 N22 1_555 1_555
C96 C97 1_555 1_555
O44 Zn16 1_555 1_555
C101 N24 1_555 1_555
C105 C106 1_555 1_555
C1 N1 1_555 1_555
C7 C2 1_555 1_555
H3 C7 1_555 1_555
C9 C6 1_555 1_555
N1 C19 1_555 1_555
N2 C1 1_555 1_555
H7 N2 1_555 1_555
O4 C9 1_555 1_555
C19 N5 1_555 1_555
C25 C20 1_555 1_555
H11 C25 1_555 1_555
C27 C24 1_555 1_555
N5 C28 1_555 1_555
N6 C19 1_555 1_555
H12 N6 1_555 1_555
O13 C27 1_555 1_555
C28 N7 1_555 1_555
C34 C29 1_555 1_555
H15 C34 1_555 1_555
C36 C33 1_555 1_555
N7 C1 1_555 1_555
N8 C28 1_555 1_555
H16 N8 1_555 1_555
O17 C36 1_555 1_555
O57 Zn9 1_555 1_555
O59 Zn9 1_555 1_555
O67 Zn1_4 1_555 1_555
C2 N2 1_555 1_555
C6 C7 1_555 1_555
C20 N6 1_555 1_555
C24 C25 1_555 1_555
C29 N8 1_555 1_555
C33 C34 1_555 1_555
C30 H13 1_555 1_555
C31 C30 1_555 1_555
C32 C31 1_555 1_555
H14 C32 1_555 1_555
C35 C31 1_555 1_555
O14 C35 1_555 1_555
O15 C35 1_555 1_555
C75 H33 1_555 1_555
C76 C75 1_555 1_555
C77 C76 1_555 1_555
H34 C77 1_555 1_555
C80 C76 1_555 1_555
O35 C80 1_555 1_555
O36 C80 1_555 1_555
Zn8 O35 1_555 1_555
Zn11_4 O16 1_555 1_555
Zn19 O15 1_555 1_555
Zn24 O14 1_555 1_555
O55 Zn8 1_555 1_555
O74 Zn8 1_555 1_555
O76 Zn8 1_555 1_555
O36 Zn24 1_555 1_555
O37 Zn12_4 1_555 1_555
Zn19 O76 1_555 1_555
Zn24 O76 1_555 1_555
Zn1_5 O3_2 1_555 1_555
Zn2_2 O1_2 1_555 1_555
C1_2 N1_2 1_555 1_555
C2_2 C3_2 1_555 1_555
C3_2 H1_2 1_555 1_555
C4_2 C3_2 1_555 1_555
C5_2 C4_2 1_555 1_555
H2_2 C5_2 1_555 1_555
C6_2 C5_2 1_555 1_555
C7_2 C2_2 1_555 1_555
H3_2 C7_2 1_555 1_555
C8_2 C4_2 1_555 1_555
C9_2 C6_2 1_555 1_555
C10_2 N3_2 1_555 1_555
C11_2 C12_2 1_555 1_555
C12_2 H4_2 1_555 1_555
C13_2 C12_2 1_555 1_555
C14_2 C13_2 1_555 1_555
H5_2 C14_2 1_555 1_555
C15_2 C14_2 1_555 1_555
C16_2 C11_2 1_555 1_555
H6_2 C16_2 1_555 1_555
C17_2 C13_2 1_555 1_555
C18_2 C15_2 1_555 1_555
N1_2 C19_2 1_555 1_555
N2_2 C1_2 1_555 1_555
H7_2 N2_2 1_555 1_555
N3_2 C37_2 1_555 1_555
N4_2 C10_2 1_555 1_555
H8_2 N4_2 1_555 1_555
O1_2 C8_2 1_555 1_555
O2_2 C8_2 1_555 1_555
O3_2 C9_2 1_555 1_555
O4_2 C9_2 1_555 1_555
O5_2 C17_2 1_555 1_555
O6_2 C17_2 1_555 1_555
O7_2 Zn2_2 1_555 1_555
O8_2 C18_2 1_555 1_555
O9_2 Zn2_2 1_555 1_555
C19_2 N5_2 1_555 1_555
C25_2 C20_2 1_555 1_555
H11_2 C25_2 1_555 1_555
C27_2 C24_2 1_555 1_555
N5_2 C28_2 1_555 1_555
N6_2 C19_2 1_555 1_555
H12_2 N6_2 1_555 1_555
O13_2 C27_2 1_555 1_555
C28_2 N7_2 1_555 1_555
C29_2 C30_2 1_555 1_555
C30_2 H13_2 1_555 1_555
C31_2 C30_2 1_555 1_555
C32_2 C31_2 1_555 1_555
H14_2 C32_2 1_555 1_555
C33_2 C32_2 1_555 1_555
C34_2 C29_2 1_555 1_555
H15_2 C34_2 1_555 1_555
C35_2 C31_2 1_555 1_555
C36_2 C33_2 1_555 1_555
N7_2 C1_2 1_555 1_555
N8_2 C28_2 1_555 1_555
H16_2 N8_2 1_555 1_555
O14_2 C35_2 1_555 1_555
O15_2 C35_2 1_555 1_555
O16_2 C36_2 1_555 1_555
O17_2 C36_2 1_555 1_555
C37_2 N9_2 1_555 1_555
C38_2 C39_2 1_555 1_555
C39_2 H17_2 1_555 1_555
C40_2 C39_2 1_555 1_555
C41_2 C40_2 1_555 1_555
H18_2 C41_2 1_555 1_555
C42_2 C41_2 1_555 1_555
C43_2 C38_2 1_555 1_555
H19_2 C43_2 1_555 1_555
C44_2 C40_2 1_555 1_555
C45_2 C42_2 1_555 1_555
N9_2 C46_2 1_555 1_555
N10_2 C37_2 1_555 1_555
H20_2 N10_2 1_555 1_555
O18_2 C44_2 1_555 1_555
O19_2 C44_2 1_555 1_555
O20_2 C45_2 1_555 1_555
O21_2 C45_2 1_555 1_555
C46_2 N11_2 1_555 1_555
C47_2 C48_2 1_555 1_555
C48_2 H21_2 1_555 1_555
C49_2 C48_2 1_555 1_555
C50_2 C49_2 1_555 1_555
H22_2 C50_2 1_555 1_555
C51_2 C50_2 1_555 1_555
C52_2 C47_2 1_555 1_555
H23_2 C52_2 1_555 1_555
C53_2 C49_2 1_555 1_555
C54_2 C51_2 1_555 1_555
N11_2 C10_2 1_555 1_555
N12_2 C46_2 1_555 1_555
H24_2 N12_2 1_555 1_555
O22_2 C53_2 1_555 1_555
O23_2 C53_2 1_555 1_555
O24_2 C54_2 1_555 1_555
O25_2 C54_2 1_555 1_555
C75_2 H33_2 1_555 1_555
C76_2 C75_2 1_555 1_555
C77_2 C76_2 1_555 1_555
H34_2 C77_2 1_555 1_555
C80_2 C76_2 1_555 1_555
O35_2 C80_2 1_555 1_555
O36_2 C80_2 1_555 1_555
Zn7_2 O9_2 1_555 1_555
C82_2 N19_2 1_555 1_555
C83_2 C84_2 1_555 1_555
C84_2 H37_2 1_555 1_555
C85_2 C84_2 1_555 1_555
C86_2 C85_2 1_555 1_555
H38_2 C86_2 1_555 1_555
C87_2 C86_2 1_555 1_555
C88_2 C83_2 1_555 1_555
H39_2 C88_2 1_555 1_555
C89_2 C85_2 1_555 1_555
C90_2 C87_2 1_555 1_555
N19_2 C91_2 1_555 1_555
N20_2 C82_2 1_555 1_555
H40_2 N20_2 1_555 1_555
O39_2 C89_2 1_555 1_555
O40_2 C89_2 1_555 1_555
O41_2 Zn7_2 1_555 1_555
O42_2 C90_2 1_555 1_555
C91_2 N21_2 1_555 1_555
C92_2 C93_2 1_555 1_555
C93_2 H41_2 1_555 1_555
C94_2 C93_2 1_555 1_555
C95_2 C94_2 1_555 1_555
H42_2 C95_2 1_555 1_555
C96_2 C95_2 1_555 1_555
C97_2 C92_2 1_555 1_555
H43_2 C97_2 1_555 1_555
C98_2 C94_2 1_555 1_555
C99_2 C96_2 1_555 1_555
N21_2 C100_2 1_555 1_555
N22_2 C91_2 1_555 1_555
H44_2 N22_2 1_555 1_555
O43_2 C98_2 1_555 1_555
O44_2 C98_2 1_555 1_555
O45_2 C99_2 1_555 1_555
O46_2 C99_2 1_555 1_555
C100_2 N23_2 1_555 1_555
C101_2 C102_2 1_555 1_555
C102_2 H45_2 1_555 1_555
C103_2 C102_2 1_555 1_555
C104_2 C103_2 1_555 1_555
H46_2 C104_2 1_555 1_555
C105_2 C104_2 1_555 1_555
C106_2 C101_2 1_555 1_555
H47_2 C106_2 1_555 1_555
C107_2 C103_2 1_555 1_555
C108_2 C105_2 1_555 1_555
N23_2 C82_2 1_555 1_555
N24_2 C100_2 1_555 1_555
H48_2 N24_2 1_555 1_555
O47_2 C107_2 1_555 1_555
O48_2 C107_2 1_555 1_555
O72 C108_2 1_555 1_555
O50_2 C108_2 1_555 1_555
Zn8_2 O35_2 1_555 1_555
Zn9_2 O5_2 1_555 1_555
Zn11_5 O16_2 1_555 1_555
Zn13_2 O22_2 1_555 1_555
Zn14_2 O18_2 1_555 1_555
Zn18_2 O45_2 1_555 1_555
Zn19_2 O15_2 1_555 1_555
Zn20_2 O20_2 1_555 1_555
Zn23_2 O24_2 1_555 1_555
Zn24_2 O14_2 1_555 1_555
Zn25_2 O2_2 1_555 1_555
O53_2 Zn7_2 1_555 1_555
O54_2 Zn2_2 1_555 1_555
O55_2 Zn8_2 1_555 1_555
O56_2 Zn7_2 1_555 1_555
O57_2 Zn9_2 1_555 1_555
O59_2 Zn9_2 1_555 1_555
O63_2 Zn9_2 1_555 1_555
O64_2 Zn1_5 1_555 1_555
O67_2 Zn1_5 1_555 1_555
O68_2 Zn9_2 1_555 1_555
O74_2 Zn8_2 1_555 1_555
O76_2 Zn8_2 1_555 1_555
C2_2 N2_2 1_555 1_555
C6_2 C7_2 1_555 1_555
C11_2 N4_2 1_555 1_555
C15_2 C16_2 1_555 1_555
C18_2 O7_2 1_555 1_555
O6_2 Zn9_2 1_555 1_555
O9_2 Zn25_2 1_555 1_555
C20_2 N6_2 1_555 1_555
C24_2 C25_2 1_555 1_555
C29_2 N8_2 1_555 1_555
C33_2 C34_2 1_555 1_555
C38_2 N10_2 1_555 1_555
C42_2 C43_2 1_555 1_555
O19_2 Zn14_2 1_555 1_555
C47_2 N12_2 1_555 1_555
C51_2 C52_2 1_555 1_555
O23_2 Zn13_2 1_555 1_555
O36_2 Zn24_2 1_555 1_555
O37_2 Zn12_5 1_555 1_555
C83_2 N20_2 1_555 1_555
C87_2 C88_2 1_555 1_555
C90_2 O41_2 1_555 1_555
O39_2 Zn13_2 1_555 1_555
O40_2 Zn13_2 1_555 1_555
C92_2 N22_2 1_555 1_555
C96_2 C97_2 1_555 1_555
C101_2 N24_2 1_555 1_555
C105_2 C106_2 1_555 1_555
Zn19_2 O76_2 1_555 1_555
Zn24_2 O76_2 1_555 1_555
C21_2 H9_2 1_555 1_555
C22_2 C21_2 1_555 1_555
C23_2 C22_2 1_555 1_555
H10_2 C23_2 1_555 1_555
C26_2 C22_2 1_555 1_555
O10_2 C26_2 1_555 1_555
O11_2 C26_2 1_555 1_555
Zn3_5 O28_2 1_555 1_555
Zn4_2 O11_2 1_555 1_555
C55_2 N13_2 1_555 1_555
C56_2 C57_2 1_555 1_555
C57_2 H25_2 1_555 1_555
C58_2 C57_2 1_555 1_555
C59_2 C58_2 1_555 1_555
H26_2 C59_2 1_555 1_555
C60_2 C59_2 1_555 1_555
C61_2 C56_2 1_555 1_555
H27_2 C61_2 1_555 1_555
C62_2 C58_2 1_555 1_555
C63_2 C60_2 1_555 1_555
N13_2 C64_2 1_555 1_555
N14_2 C55_2 1_555 1_555
H28_2 N14_2 1_555 1_555
O26_2 Zn4_2 1_555 1_555
O27_2 C62_2 1_555 1_555
O28_2 C63_2 1_555 1_555
O29_2 C63_2 1_555 1_555
O30_2 Zn4_2 1_555 1_555
C64_2 N15_2 1_555 1_555
C65_2 C66_2 1_555 1_555
C66_2 H29_2 1_555 1_555
C67_2 C66_2 1_555 1_555
C68_2 C67_2 1_555 1_555
H30_2 C68_2 1_555 1_555
C69_2 C68_2 1_555 1_555
C70_2 C65_2 1_555 1_555
H31_2 C70_2 1_555 1_555
C71_2 C67_2 1_555 1_555
C72_2 C69_2 1_555 1_555
N15_2 C73_2 1_555 1_555
N16_2 C64_2 1_555 1_555
H32_2 N16_2 1_555 1_555
O31_2 C71_2 1_555 1_555
O32_2 C71_2 1_555 1_555
O33_2 C72_2 1_555 1_555
O34_2 C72_2 1_555 1_555
C73_2 N17_2 1_555 1_555
C79_2 C74_2 1_555 1_555
H35_2 C79_2 1_555 1_555
C81_2 C78_2 1_555 1_555
N17_2 C55_2 1_555 1_555
N18_2 C73_2 1_555 1_555
H36_2 N18_2 1_555 1_555
O38_2 C81_2 1_555 1_555
Zn17 O32_2 1_555 1_555
Zn6_2 O27_2 1_555 1_555
Zn12_6 O12_2 1_555 1_555
Zn15_6 O33_2 1_555 1_555
Zn21_2 O10_2 1_555 1_555
Zn22_2 O31_2 1_555 1_555
O51_2 Zn17 1_555 1_555
O52_2 Zn6_2 1_555 1_555
O58_2 Zn1_6 1_555 1_555
O60_2 Zn3_5 1_555 1_555
O61_2 Zn3_5 1_555 1_555
O62_2 Zn1_6 1_555 1_555
O65_2 Zn3_5 1_555 1_555
O66_2 Zn3_5 1_555 1_555
O69_2 Zn1_6 1_555 1_555
O70_2 Zn3_5 1_555 1_555
O71_2 Zn4_2 1_555 1_555
O73_2 Zn6_2 1_555 1_555
O75_2 Zn17 1_555 1_555
C56_2 N14_2 1_555 1_555
C60_2 C61_2 1_555 1_555
C62_2 O26_2 1_555 1_555
O30_2 Zn6_2 1_555 1_555
O30_2 Zn21_2 1_555 1_555
C65_2 N16_2 1_555 1_555
C69_2 C70_2 1_555 1_555
C74_2 N18_2 1_555 1_555
C78_2 C79_2 1_555 1_555
Zn22_2 O75_2 1_555 1_555
C30_3 H13_3 1_555 1_555
C31_3 C30_3 1_555 1_555
C32_3 C31_3 1_555 1_555
H14_3 C32_3 1_555 1_555
C35_3 C31_3 1_555 1_555
O14_3 C35_3 1_555 1_555
O15_3 C35_3 1_555 1_555
C55_3 N13_3 1_555 1_555
C61_3 C56_3 1_555 1_555
H27_3 C61_3 1_555 1_555
C63_3 C60_3 1_555 1_555
N13_3 C64_3 1_555 1_555
N14_3 C55_3 1_555 1_555
H28_3 N14_3 1_555 1_555
O29_3 C63_3 1_555 1_555
C64_3 N15_3 1_555 1_555
C65_3 C66_3 1_555 1_555
C66_3 H29_3 1_555 1_555
C67_3 C66_3 1_555 1_555
C68_3 C67_3 1_555 1_555
H30_3 C68_3 1_555 1_555
C69_3 C68_3 1_555 1_555
C70_3 C65_3 1_555 1_555
H31_3 C70_3 1_555 1_555
C71_3 C67_3 1_555 1_555
C72_3 C69_3 1_555 1_555
N15_3 C73_3 1_555 1_555
N16_3 C64_3 1_555 1_555
H32_3 N16_3 1_555 1_555
O31_3 C71_3 1_555 1_555
O32_3 C71_3 1_555 1_555
O33_3 C72_3 1_555 1_555
O34_3 C72_3 1_555 1_555
C73_3 N17_3 1_555 1_555
C74_3 C75_3 1_555 1_555
C75_3 H33_3 1_555 1_555
C76_3 C75_3 1_555 1_555
C77_3 C76_3 1_555 1_555
H34_3 C77_3 1_555 1_555
C78_3 C77_3 1_555 1_555
C79_3 C74_3 1_555 1_555
H35_3 C79_3 1_555 1_555
C80_3 C76_3 1_555 1_555
C81_3 C78_3 1_555 1_555
N17_3 C55_3 1_555 1_555
N18_3 C73_3 1_555 1_555
H36_3 N18_3 1_555 1_555
O35_3 C80_3 1_555 1_555
O36_3 C80_3 1_555 1_555
O37_3 C81_3 1_555 1_555
O38_3 C81_3 1_555 1_555
Zn5_2 O32_3 1_555 1_555
Zn8_3 O35_3 1_555 1_555
Zn11_6 O16_3 1_555 1_555
Zn15_7 O33_3 1_555 1_555
Zn18 O15_3 1_555 1_555
Zn22_3 O31_3 1_555 1_555
Zn23 O14_3 1_555 1_555
O51_3 Zn5_2 1_555 1_555
O55_3 Zn8_3 1_555 1_555
O60_3 Zn3_6 1_555 1_555
O61_3 Zn3_6 1_555 1_555
O66_3 Zn3_6 1_555 1_555
O72_2 Zn5_2 1_555 1_555
O74_3 Zn8_3 1_555 1_555
O75_3 Zn5_2 1_555 1_555
O76_3 Zn8_3 1_555 1_555
C56_3 N14_3 1_555 1_555
C60_3 C61_3 1_555 1_555
C65_3 N16_3 1_555 1_555
C69_3 C70_3 1_555 1_555
C74_3 N18_3 1_555 1_555
C78_3 C79_3 1_555 1_555
O36_3 Zn23 1_555 1_555
O37_3 Zn12_7 1_555 1_555
Zn18 O76_3 1_555 1_555
Zn22_3 O75_3 1_555 1_555
Zn23 O76_3 1_555 1_555
Zn1_7 O3_3 1_555 1_555
Zn2_3 O1_3 1_555 1_555
C1_3 N1_3 1_555 1_555
C2_3 C3_3 1_555 1_555
C3_3 H1_3 1_555 1_555
C4_3 C3_3 1_555 1_555
C5_3 C4_3 1_555 1_555
H2_3 C5_3 1_555 1_555
C6_3 C5_3 1_555 1_555
C7_3 C2_3 1_555 1_555
H3_3 C7_3 1_555 1_555
C8_3 C4_3 1_555 1_555
C9_3 C6_3 1_555 1_555
C10_3 N3_3 1_555 1_555
C11_3 C12_3 1_555 1_555
C12_3 H4_3 1_555 1_555
C13_3 C12_3 1_555 1_555
C14_3 C13_3 1_555 1_555
H5_3 C14_3 1_555 1_555
C15_3 C14_3 1_555 1_555
C16_3 C11_3 1_555 1_555
H6_3 C16_3 1_555 1_555
C17_3 C13_3 1_555 1_555
C18_3 C15_3 1_555 1_555
N1_3 C19_3 1_555 1_555
N2_3 C1_3 1_555 1_555
H7_3 N2_3 1_555 1_555
N3_3 C37_3 1_555 1_555
N4_3 C10_3 1_555 1_555
H8_3 N4_3 1_555 1_555
O1_3 C8_3 1_555 1_555
O2_3 C8_3 1_555 1_555
O3_3 C9_3 1_555 1_555
O4_3 C9_3 1_555 1_555
O5_3 C17_3 1_555 1_555
O6_3 C17_3 1_555 1_555
O7_3 Zn2_3 1_555 1_555
O8_3 C18_3 1_555 1_555
O9_3 Zn2_3 1_555 1_555
C19_3 N5_3 1_555 1_555
C20_3 C21_3 1_555 1_555
C21_3 H9_3 1_555 1_555
C22_3 C21_3 1_555 1_555
C23_3 C22_3 1_555 1_555
H10_3 C23_3 1_555 1_555
C24_3 C23_3 1_555 1_555
C25_3 C20_3 1_555 1_555
H11_3 C25_3 1_555 1_555
C26_3 C22_3 1_555 1_555
C27_3 C24_3 1_555 1_555
N5_3 C28_3 1_555 1_555
N6_3 C19_3 1_555 1_555
H12_3 N6_3 1_555 1_555
O10_3 C26_3 1_555 1_555
O11_3 C26_3 1_555 1_555
O12_3 C27_3 1_555 1_555
O13_3 C27_3 1_555 1_555
C28_3 N7_3 1_555 1_555
C34_3 C29_3 1_555 1_555
H15_3 C34_3 1_555 1_555
C36_3 C33_3 1_555 1_555
N7_3 C1_3 1_555 1_555
N8_3 C28_3 1_555 1_555
H16_3 N8_3 1_555 1_555
O17_3 C36_3 1_555 1_555
C37_3 N9_3 1_555 1_555
C38_3 C39_3 1_555 1_555
C39_3 H17_3 1_555 1_555
C40_3 C39_3 1_555 1_555
C41_3 C40_3 1_555 1_555
H18_3 C41_3 1_555 1_555
C42_3 C41_3 1_555 1_555
C43_3 C38_3 1_555 1_555
H19_3 C43_3 1_555 1_555
C44_3 C40_3 1_555 1_555
C45_3 C42_3 1_555 1_555
N9_3 C46_3 1_555 1_555
N10_3 C37_3 1_555 1_555
H20_3 N10_3 1_555 1_555
O18_3 C44_3 1_555 1_555
O19_3 C44_3 1_555 1_555
O20_3 C45_3 1_555 1_555
O21_3 C45_3 1_555 1_555
C46_3 N11_3 1_555 1_555
C47_3 C48_3 1_555 1_555
C48_3 H21_3 1_555 1_555
C49_3 C48_3 1_555 1_555
C50_3 C49_3 1_555 1_555
H22_3 C50_3 1_555 1_555
C51_3 C50_3 1_555 1_555
C52_3 C47_3 1_555 1_555
H23_3 C52_3 1_555 1_555
C53_3 C49_3 1_555 1_555
C54_3 C51_3 1_555 1_555
N11_3 C10_3 1_555 1_555
N12_3 C46_3 1_555 1_555
H24_3 N12_3 1_555 1_555
O22_3 C53_3 1_555 1_555
O23_3 C53_3 1_555 1_555
O24_3 C54_3 1_555 1_555
O25_3 C54_3 1_555 1_555
Zn3_7 O28_3 1_555 1_555
Zn4_3 O11_3 1_555 1_555
C57_3 H25_3 1_555 1_555
C58_3 C57_3 1_555 1_555
C59_3 C58_3 1_555 1_555
H26_3 C59_3 1_555 1_555
C62_3 C58_3 1_555 1_555
O26_3 Zn4_3 1_555 1_555
O27_3 C62_3 1_555 1_555
O30_3 Zn4_3 1_555 1_555
Zn6_3 O27_3 1_555 1_555
Zn7_3 O9_3 1_555 1_555
C82_3 N19_3 1_555 1_555
C83_3 C84_3 1_555 1_555
C84_3 H37_3 1_555 1_555
C85_3 C84_3 1_555 1_555
C86_3 C85_3 1_555 1_555
H38_3 C86_3 1_555 1_555
C87_3 C86_3 1_555 1_555
C88_3 C83_3 1_555 1_555
H39_3 C88_3 1_555 1_555
C89_3 C85_3 1_555 1_555
C90_3 C87_3 1_555 1_555
N19_3 C91_3 1_555 1_555
N20_3 C82_3 1_555 1_555
H40_3 N20_3 1_555 1_555
O39_3 C89_3 1_555 1_555
O40_3 C89_3 1_555 1_555
O41_3 Zn7_3 1_555 1_555
O42_3 C90_3 1_555 1_555
C91_3 N21_3 1_555 1_555
C92_3 C93_3 1_555 1_555
C93_3 H41_3 1_555 1_555
C94_3 C93_3 1_555 1_555
C95_3 C94_3 1_555 1_555
H42_3 C95_3 1_555 1_555
C96_3 C95_3 1_555 1_555
C97_3 C92_3 1_555 1_555
H43_3 C97_3 1_555 1_555
C98_3 C94_3 1_555 1_555
C99_3 C96_3 1_555 1_555
N21_3 C100_3 1_555 1_555
N22_3 C91_3 1_555 1_555
H44_3 N22_3 1_555 1_555
O43_3 C98_3 1_555 1_555
O44_3 C98_3 1_555 1_555
O45_3 C99_3 1_555 1_555
O46_3 C99_3 1_555 1_555
C100_3 N23_3 1_555 1_555
C101_3 C102_3 1_555 1_555
C102_3 H45_3 1_555 1_555
C103_3 C102_3 1_555 1_555
C104_3 C103_3 1_555 1_555
H46_3 C104_3 1_555 1_555
C105_3 C104_3 1_555 1_555
C106_3 C101_3 1_555 1_555
H47_3 C106_3 1_555 1_555
C107_3 C103_3 1_555 1_555
C108_3 C105_3 1_555 1_555
N23_3 C82_3 1_555 1_555
N24_3 C100_3 1_555 1_555
H48_3 N24_3 1_555 1_555
O47_3 C107_3 1_555 1_555
O48_3 C107_3 1_555 1_555
O49_2 C108_3 1_555 1_555
O50_3 C108_3 1_555 1_555
Zn9_3 O5_3 1_555 1_555
Zn10_3 O47_3 1_555 1_555
Zn12_8 O12_3 1_555 1_555
Zn17_2 O49_2 1_555 1_555
Zn19 O45_3 1_555 1_555
Zn21_2 O20_3 1_555 1_555
Zn20_2 O10_3 1_555 1_555
Zn24 O24_3 1_555 1_555
Zn25_3 O2_3 1_555 1_555
O52_3 Zn6_3 1_555 1_555
O53_3 Zn7_3 1_555 1_555
O54_3 Zn2_3 1_555 1_555
O56_3 Zn7_3 1_555 1_555
O57_3 Zn9_3 1_555 1_555
O58_3 Zn1_7 1_555 1_555
O59_3 Zn9_3 1_555 1_555
O62_3 Zn1_7 1_555 1_555
O63_3 Zn9_3 1_555 1_555
O64_3 Zn1_7 1_555 1_555
O65_3 Zn3_7 1_555 1_555
O67_3 Zn1_7 1_555 1_555
O68_3 Zn9_3 1_555 1_555
O69_3 Zn1_7 1_555 1_555
O70_3 Zn3_7 1_555 1_555
O71_3 Zn4_3 1_555 1_555
O73_3 Zn6_3 1_555 1_555
C2_3 N2_3 1_555 1_555
C6_3 C7_3 1_555 1_555
C11_3 N4_3 1_555 1_555
C15_3 C16_3 1_555 1_555
C18_3 O7_3 1_555 1_555
O6_3 Zn9_3 1_555 1_555
O9_3 Zn25_3 1_555 1_555
C20_3 N6_3 1_555 1_555
C24_3 C25_3 1_555 1_555
C29_3 N8_3 1_555 1_555
C33_3 C34_3 1_555 1_555
C38_3 N10_3 1_555 1_555
C42_3 C43_3 1_555 1_555
C47_3 N12_3 1_555 1_555
C51_3 C52_3 1_555 1_555
C62_3 O26_3 1_555 1_555
O30_3 Zn6_3 1_555 1_555
O30_3 Zn20_2 1_555 1_555
C83_3 N20_3 1_555 1_555
C87_3 C88_3 1_555 1_555
C90_3 O41_3 1_555 1_555
C92_3 N22_3 1_555 1_555
C96_3 C97_3 1_555 1_555
C101_3 N24_3 1_555 1_555
C105_3 C106_3 1_555 1_555
O48_3 Zn10_3 1_555 1_555
C1_4 N1_4 1_555 1_555
C7_4 C2_4 1_555 1_555
H3_4 C7_4 1_555 1_555
C9_4 C6_4 1_555 1_555
N1_4 C19_4 1_555 1_555
N2_4 C1_4 1_555 1_555
H7_4 N2_4 1_555 1_555
O4_4 C9_4 1_555 1_555
C19_4 N5_4 1_555 1_555
C20_4 C21_4 1_555 1_555
C21_4 H9_4 1_555 1_555
C22_4 C21_4 1_555 1_555
C23_4 C22_4 1_555 1_555
H10_4 C23_4 1_555 1_555
C24_4 C23_4 1_555 1_555
C25_4 C20_4 1_555 1_555
H11_4 C25_4 1_555 1_555
C26_4 C22_4 1_555 1_555
C27_4 C24_4 1_555 1_555
N5_4 C28_4 1_555 1_555
N6_4 C19_4 1_555 1_555
H12_4 N6_4 1_555 1_555
O10_4 C26_4 1_555 1_555
O11_4 C26_4 1_555 1_555
O12_4 C27_4 1_555 1_555
O13_4 C27_4 1_555 1_555
C28_4 N7_4 1_555 1_555
C29_4 C30_4 1_555 1_555
C30_4 H13_4 1_555 1_555
C31_4 C30_4 1_555 1_555
C32_4 C31_4 1_555 1_555
H14_4 C32_4 1_555 1_555
C33_4 C32_4 1_555 1_555
C34_4 C29_4 1_555 1_555
H15_4 C34_4 1_555 1_555
C35_4 C31_4 1_555 1_555
C36_4 C33_4 1_555 1_555
N7_4 C1_4 1_555 1_555
N8_4 C28_4 1_555 1_555
H16_4 N8_4 1_555 1_555
O14_4 C35_4 1_555 1_555
O15_4 C35_4 1_555 1_555
O16_4 C36_4 1_555 1_555
O17_4 C36_4 1_555 1_555
Zn3_8 O28_4 1_555 1_555
Zn4_4 O11_4 1_555 1_555
C55_4 N13_4 1_555 1_555
C56_4 C57_4 1_555 1_555
C57_4 H25_4 1_555 1_555
C58_4 C57_4 1_555 1_555
C59_4 C58_4 1_555 1_555
H26_4 C59_4 1_555 1_555
C60_4 C59_4 1_555 1_555
C61_4 C56_4 1_555 1_555
H27_4 C61_4 1_555 1_555
C62_4 C58_4 1_555 1_555
C63_4 C60_4 1_555 1_555
N13_4 C64_4 1_555 1_555
N14_4 C55_4 1_555 1_555
H28_4 N14_4 1_555 1_555
O26_4 Zn4_4 1_555 1_555
O27_4 C62_4 1_555 1_555
O28_4 C63_4 1_555 1_555
O29_4 C63_4 1_555 1_555
O30_4 Zn4_4 1_555 1_555
C64_4 N15_4 1_555 1_555
C70_4 C65_4 1_555 1_555
H31_4 C70_4 1_555 1_555
C72_4 C69_4 1_555 1_555
N15_4 C73_4 1_555 1_555
N16_4 C64_4 1_555 1_555
H32_4 N16_4 1_555 1_555
O34_4 C72_4 1_555 1_555
C73_4 N17_4 1_555 1_555
C74_4 C75_4 1_555 1_555
C75_4 H33_4 1_555 1_555
C76_4 C75_4 1_555 1_555
C77_4 C76_4 1_555 1_555
H34_4 C77_4 1_555 1_555
C78_4 C77_4 1_555 1_555
C79_4 C74_4 1_555 1_555
H35_4 C79_4 1_555 1_555
C80_4 C76_4 1_555 1_555
C81_4 C78_4 1_555 1_555
N17_4 C55_4 1_555 1_555
N18_4 C73_4 1_555 1_555
H36_4 N18_4 1_555 1_555
O35_4 C80_4 1_555 1_555
O36_4 C80_4 1_555 1_555
O37_4 C81_4 1_555 1_555
O38_4 C81_4 1_555 1_555
Zn6_4 O27_4 1_555 1_555
Zn8_4 O35_4 1_555 1_555
Zn11_8 O16_4 1_555 1_555
Zn12_9 O12_4 1_555 1_555
Zn18_2 O15_4 1_555 1_555
Zn20 O10_4 1_555 1_555
Zn23_2 O14_4 1_555 1_555
O52_4 Zn6_4 1_555 1_555
O55_4 Zn8_4 1_555 1_555
O57_4 Zn9_4 1_555 1_555
O58_4 Zn1_8 1_555 1_555
O59_4 Zn9_4 1_555 1_555
O62_4 Zn1_8 1_555 1_555
O65_4 Zn3_8 1_555 1_555
O66_4 Zn3_8 1_555 1_555
O67_4 Zn1_8 1_555 1_555
O71_4 Zn4_4 1_555 1_555
O73_4 Zn6_4 1_555 1_555
O74_4 Zn8_4 1_555 1_555
O76_4 Zn8_4 1_555 1_555
C2_4 N2_4 1_555 1_555
C6_4 C7_4 1_555 1_555
C20_4 N6_4 1_555 1_555
C24_4 C25_4 1_555 1_555
C29_4 N8_4 1_555 1_555
C33_4 C34_4 1_555 1_555
C56_4 N14_4 1_555 1_555
C60_4 C61_4 1_555 1_555
C62_4 O26_4 1_555 1_555
O30_4 Zn6_4 1_555 1_555
O30_4 Zn20 1_555 1_555
C65_4 N16_4 1_555 1_555
C69_4 C70_4 1_555 1_555
C74_4 N18_4 1_555 1_555
C78_4 C79_4 1_555 1_555
O36_4 Zn23_2 1_555 1_555
O37_4 Zn12_9 1_555 1_555
Zn18_2 O76_4 1_555 1_555
Zn23_2 O76_4 1_555 1_555
Zn1_9 O3_4 1_555 1_555
Zn2_4 O1_4 1_555 1_555
C3_4 H1_4 1_555 1_555
C4_4 C3_4 1_555 1_555
C5_4 C4_4 1_555 1_555
H2_4 C5_4 1_555 1_555
C8_4 C4_4 1_555 1_555
C10_4 N3_4 1_555 1_555
C11_4 C12_4 1_555 1_555
C12_4 H4_4 1_555 1_555
C13_4 C12_4 1_555 1_555
C14_4 C13_4 1_555 1_555
H5_4 C14_4 1_555 1_555
C15_4 C14_4 1_555 1_555
C16_4 C11_4 1_555 1_555
H6_4 C16_4 1_555 1_555
C17_4 C13_4 1_555 1_555
C18_4 C15_4 1_555 1_555
N3_4 C37_4 1_555 1_555
N4_4 C10_4 1_555 1_555
H8_4 N4_4 1_555 1_555
O1_4 C8_4 1_555 1_555
O2_4 C8_4 1_555 1_555
O5_4 C17_4 1_555 1_555
O6_4 C17_4 1_555 1_555
O7_4 Zn2_4 1_555 1_555
O8_4 C18_4 1_555 1_555
O9_4 Zn2_4 1_555 1_555
C37_4 N9_4 1_555 1_555
C38_4 C39_4 1_555 1_555
C39_4 H17_4 1_555 1_555
C40_4 C39_4 1_555 1_555
C41_4 C40_4 1_555 1_555
H18_4 C41_4 1_555 1_555
C42_4 C41_4 1_555 1_555
C43_4 C38_4 1_555 1_555
H19_4 C43_4 1_555 1_555
C44_4 C40_4 1_555 1_555
C45_4 C42_4 1_555 1_555
N9_4 C46_4 1_555 1_555
N10_4 C37_4 1_555 1_555
H20_4 N10_4 1_555 1_555
O18_4 C44_4 1_555 1_555
O19_4 C44_4 1_555 1_555
O20_4 C45_4 1_555 1_555
O21_4 C45_4 1_555 1_555
C46_4 N11_4 1_555 1_555
C47_4 C48_4 1_555 1_555
C48_4 H21_4 1_555 1_555
C49_4 C48_4 1_555 1_555
C50_4 C49_4 1_555 1_555
H22_4 C50_4 1_555 1_555
C51_4 C50_4 1_555 1_555
C52_4 C47_4 1_555 1_555
H23_4 C52_4 1_555 1_555
C53_4 C49_4 1_555 1_555
C54_4 C51_4 1_555 1_555
N11_4 C10_4 1_555 1_555
N12_4 C46_4 1_555 1_555
H24_4 N12_4 1_555 1_555
O22_4 C53_4 1_555 1_555
O23_4 C53_4 1_555 1_555
O24_4 C54_4 1_555 1_555
O25_4 C54_4 1_555 1_555
C66_4 H29_4 1_555 1_555
C67_4 C66_4 1_555 1_555
C68_4 C67_4 1_555 1_555
H30_4 C68_4 1_555 1_555
C71_4 C67_4 1_555 1_555
O31_4 C71_4 1_555 1_555
O32_4 C71_4 1_555 1_555
Zn17_2 O32_4 1_555 1_555
Zn7_4 O9_4 1_555 1_555
C82_4 N19_4 1_555 1_555
C83_4 C84_4 1_555 1_555
C84_4 H37_4 1_555 1_555
C85_4 C84_4 1_555 1_555
C86_4 C85_4 1_555 1_555
H38_4 C86_4 1_555 1_555
C87_4 C86_4 1_555 1_555
C88_4 C83_4 1_555 1_555
H39_4 C88_4 1_555 1_555
C89_4 C85_4 1_555 1_555
C90_4 C87_4 1_555 1_555
N19_4 C91_4 1_555 1_555
N20_4 C82_4 1_555 1_555
H40_4 N20_4 1_555 1_555
O39_4 C89_4 1_555 1_555
O40_4 C89_4 1_555 1_555
O41_4 Zn7_4 1_555 1_555
O42_4 C90_4 1_555 1_555
C91_4 N21_4 1_555 1_555
C92_4 C93_4 1_555 1_555
C93_4 H41_4 1_555 1_555
C94_4 C93_4 1_555 1_555
C95_4 C94_4 1_555 1_555
H42_4 C95_4 1_555 1_555
C96_4 C95_4 1_555 1_555
C97_4 C92_4 1_555 1_555
H43_4 C97_4 1_555 1_555
C98_4 C94_4 1_555 1_555
C99_4 C96_4 1_555 1_555
N21_4 C100_4 1_555 1_555
N22_4 C91_4 1_555 1_555
H44_4 N22_4 1_555 1_555
O43_4 C98_4 1_555 1_555
O44_4 C98_4 1_555 1_555
O45_4 C99_4 1_555 1_555
O46_4 C99_4 1_555 1_555
C100_4 N23_4 1_555 1_555
C101_4 C102_4 1_555 1_555
C102_4 H45_4 1_555 1_555
C103_4 C102_4 1_555 1_555
C104_4 C103_4 1_555 1_555
H46_4 C104_4 1_555 1_555
C105_4 C104_4 1_555 1_555
C106_4 C101_4 1_555 1_555
H47_4 C106_4 1_555 1_555
C107_4 C103_4 1_555 1_555
C108_4 C105_4 1_555 1_555
N23_4 C82_4 1_555 1_555
N24_4 C100_4 1_555 1_555
H48_4 N24_4 1_555 1_555
O47_4 C107_4 1_555 1_555
O48_4 C107_4 1_555 1_555
O72_2 C108_4 1_555 1_555
O50_4 C108_4 1_555 1_555
Zn10_4 O47_4 1_555 1_555
Zn13_4 O22_4 1_555 1_555
Zn15_9 O33_4 1_555 1_555
Zn16_4 O43_4 1_555 1_555
Zn19_2 O45_4 1_555 1_555
Zn21 O20_4 1_555 1_555
Zn22_4 O31_4 1_555 1_555
Zn24_2 O24_4 1_555 1_555
Zn25_4 O2_4 1_555 1_555
O51_4 Zn17_2 1_555 1_555
O53_4 Zn7_4 1_555 1_555
O54_4 Zn2_4 1_555 1_555
O56_4 Zn7_4 1_555 1_555
O60_4 Zn3_9 1_555 1_555
O61_4 Zn3_9 1_555 1_555
O64_4 Zn1_9 1_555 1_555
O69_4 Zn1_9 1_555 1_555
O70_4 Zn3_9 1_555 1_555
O75_4 Zn17_2 1_555 1_555
C11_4 N4_4 1_555 1_555
C15_4 C16_4 1_555 1_555
C18_4 O7_4 1_555 1_555
O9_4 Zn25_4 1_555 1_555
C38_4 N10_4 1_555 1_555
C42_4 C43_4 1_555 1_555
C47_4 N12_4 1_555 1_555
C51_4 C52_4 1_555 1_555
O23_4 Zn13_4 1_555 1_555
C83_4 N20_4 1_555 1_555
C87_4 C88_4 1_555 1_555
C90_4 O41_4 1_555 1_555
O39_4 Zn13_4 1_555 1_555
O40_4 Zn13_4 1_555 1_555
C92_4 N22_4 1_555 1_555
C96_4 C97_4 1_555 1_555
O44_4 Zn16_4 1_555 1_555
C101_4 N24_4 1_555 1_555
C105_4 C106_4 1_555 1_555
O48_4 Zn10_4 1_555 1_555
Zn22_4 O75_4 1_555 1_555
O70_5 Zn3_10 1_555 1_555
Zn3_11 O28_5 1_555 1_555
C57_5 H25_5 1_555 1_555
C58_5 C57_5 1_555 1_555
C59_5 C58_5 1_555 1_555
H26_5 C59_5 1_555 1_555
C62_5 C58_5 1_555 1_555
O27_5 C62_5 1_555 1_555
Zn6_5 O27_5 1_555 1_555
O52_5 Zn6_5 1_555 1_555
O65_5 Zn3_11 1_555 1_555
O73_5 Zn6_5 1_555 1_555
C62_5 O51 1_555 1_555
O75 Zn6_5 1_555 1_555
C10_5 N3_5 1_555 1_555
C11_5 C12_5 1_555 1_555
C12_5 H4_5 1_555 1_555
C13_5 C12_5 1_555 1_555
C14_5 C13_5 1_555 1_555
H5_5 C14_5 1_555 1_555
C15_5 C14_5 1_555 1_555
C16_5 C11_5 1_555 1_555
H6_5 C16_5 1_555 1_555
C17_5 C13_5 1_555 1_555
C18_5 C15_5 1_555 1_555
N3_5 C37_5 1_555 1_555
N4_5 C10_5 1_555 1_555
H8_5 N4_5 1_555 1_555
O5_5 C17_5 1_555 1_555
O6_5 C17_5 1_555 1_555
O8_5 C18_5 1_555 1_555
C37_5 N9_5 1_555 1_555
C38_5 C39_5 1_555 1_555
C39_5 H17_5 1_555 1_555
C40_5 C39_5 1_555 1_555
C41_5 C40_5 1_555 1_555
H18_5 C41_5 1_555 1_555
C42_5 C41_5 1_555 1_555
C43_5 C38_5 1_555 1_555
H19_5 C43_5 1_555 1_555
C44_5 C40_5 1_555 1_555
C45_5 C42_5 1_555 1_555
N9_5 C46_5 1_555 1_555
N10_5 C37_5 1_555 1_555
H20_5 N10_5 1_555 1_555
O18_5 C44_5 1_555 1_555
O19_5 C44_5 1_555 1_555
O20_5 C45_5 1_555 1_555
O21_5 C45_5 1_555 1_555
C46_5 N11_5 1_555 1_555
C47_5 C48_5 1_555 1_555
C48_5 H21_5 1_555 1_555
C49_5 C48_5 1_555 1_555
C50_5 C49_5 1_555 1_555
H22_5 C50_5 1_555 1_555
C51_5 C50_5 1_555 1_555
C52_5 C47_5 1_555 1_555
H23_5 C52_5 1_555 1_555
C53_5 C49_5 1_555 1_555
C54_5 C51_5 1_555 1_555
N11_5 C10_5 1_555 1_555
N12_5 C46_5 1_555 1_555
H24_5 N12_5 1_555 1_555
O22_5 C53_5 1_555 1_555
O23_5 C53_5 1_555 1_555
O74_2 C54_5 1_555 1_555
O25_5 C54_5 1_555 1_555
Zn16_4 O18_5 1_555 1_555
Zn22_3 O20_5 1_555 1_555
O56_5 Zn21 1_555 1_555
C11_5 N4_5 1_555 1_555
C15_5 C16_5 1_555 1_555
C18_5 O71 1_555 1_555
C38_5 N10_5 1_555 1_555
C42_5 C43_5 1_555 1_555
O19_5 Zn16_4 1_555 1_555
C47_5 N12_5 1_555 1_555
C51_5 C52_5 1_555 1_555
O57_5 Zn9_5 1_555 1_555
O59_5 Zn9_5 1_555 1_555
C66_5 H29_5 1_555 1_555
C67_5 C66_5 1_555 1_555
C68_5 C67_5 1_555 1_555
H30_5 C68_5 1_555 1_555
C71_5 C67_5 1_555 1_555
O53 C71_5 1_555 1_555
O54 C71_5 1_555 1_555
Zn11 O33_5 1_555 1_555
O60_5 Zn3_12 1_555 1_555
O61_5 Zn3_12 1_555 1_555
C55_5 N13_5 1_555 1_555
C61_5 C56_5 1_555 1_555
H27_5 C61_5 1_555 1_555
C63_5 C60_5 1_555 1_555
N13_5 C64_5 1_555 1_555
N14_5 C55_5 1_555 1_555
H28_5 N14_5 1_555 1_555
O29_5 C63_5 1_555 1_555
C64_5 N15_5 1_555 1_555
C70_5 C65_5 1_555 1_555
H31_5 C70_5 1_555 1_555
C72_5 C69_5 1_555 1_555
N15_5 C73_5 1_555 1_555
N16_5 C64_5 1_555 1_555
H32_5 N16_5 1_555 1_555
O34_5 C72_5 1_555 1_555
C73_5 N17_5 1_555 1_555
C79_5 C74_5 1_555 1_555
H35_5 C79_5 1_555 1_555
C81_5 C78_5 1_555 1_555
N17_5 C55_5 1_555 1_555
N18_5 C73_5 1_555 1_555
H36_5 N18_5 1_555 1_555
O38_5 C81_5 1_555 1_555
O66_5 Zn3_13 1_555 1_555
C56_5 N14_5 1_555 1_555
C60_5 C61_5 1_555 1_555
C65_5 N16_5 1_555 1_555
C69_5 C70_5 1_555 1_555
C74_5 N18_5 1_555 1_555
C78_5 C79_5 1_555 1_555
C75_5 H33_5 1_555 1_555
C76_5 C75_5 1_555 1_555
C77_5 C76_5 1_555 1_555
H34_5 C77_5 1_555 1_555
C80_5 C76_5 1_555 1_555
O35_5 C80_5 1_555 1_555
O55 C80_5 1_555 1_555
Zn19 O35_5 1_555 1_555
O37_5 Zn15_4 1_555 1_555
C10_6 N3_6 1_555 1_555
C11_6 C12_6 1_555 1_555
C12_6 H4_6 1_555 1_555
C13_6 C12_6 1_555 1_555
C14_6 C13_6 1_555 1_555
H5_6 C14_6 1_555 1_555
C15_6 C14_6 1_555 1_555
C16_6 C11_6 1_555 1_555
H6_6 C16_6 1_555 1_555
C17_6 C13_6 1_555 1_555
C18_6 C15_6 1_555 1_555
N3_6 C37_6 1_555 1_555
N4_6 C10_6 1_555 1_555
H8_6 N4_6 1_555 1_555
O5_6 C17_6 1_555 1_555
O6_6 C17_6 1_555 1_555
O8_6 C18_6 1_555 1_555
C37_6 N9_6 1_555 1_555
C38_6 C39_6 1_555 1_555
C39_6 H17_6 1_555 1_555
C40_6 C39_6 1_555 1_555
C41_6 C40_6 1_555 1_555
H18_6 C41_6 1_555 1_555
C42_6 C41_6 1_555 1_555
C43_6 C38_6 1_555 1_555
H19_6 C43_6 1_555 1_555
C44_6 C40_6 1_555 1_555
C45_6 C42_6 1_555 1_555
N9_6 C46_6 1_555 1_555
N10_6 C37_6 1_555 1_555
H20_6 N10_6 1_555 1_555
O18_6 C44_6 1_555 1_555
O19_6 C44_6 1_555 1_555
O20_6 C45_6 1_555 1_555
O21_6 C45_6 1_555 1_555
C46_6 N11_6 1_555 1_555
C47_6 C48_6 1_555 1_555
C48_6 H21_6 1_555 1_555
C49_6 C48_6 1_555 1_555
C50_6 C49_6 1_555 1_555
H22_6 C50_6 1_555 1_555
C51_6 C50_6 1_555 1_555
C52_6 C47_6 1_555 1_555
H23_6 C52_6 1_555 1_555
C53_6 C49_6 1_555 1_555
C54_6 C51_6 1_555 1_555
N11_6 C10_6 1_555 1_555
N12_6 C46_6 1_555 1_555
H24_6 N12_6 1_555 1_555
O22_6 C53_6 1_555 1_555
O23_6 C53_6 1_555 1_555
O74_3 C54_6 1_555 1_555
O25_6 C54_6 1_555 1_555
C75_6 H33_6 1_555 1_555
C76_6 C75_6 1_555 1_555
C77_6 C76_6 1_555 1_555
H34_6 C77_6 1_555 1_555
C80_6 C76_6 1_555 1_555
O35_6 C80_6 1_555 1_555
O55_4 C80_6 1_555 1_555
Zn18_2 O35_6 1_555 1_555
Zn9_6 O5_6 1_555 1_555
Zn14 O22_6 1_555 1_555
Zn16 O18_6 1_555 1_555
Zn22_2 O20_6 1_555 1_555
O56_6 Zn20 1_555 1_555
O57_6 Zn9_6 1_555 1_555
O59_6 Zn9_6 1_555 1_555
O63_6 Zn9_6 1_555 1_555
O68_6 Zn9_6 1_555 1_555
C11_6 N4_6 1_555 1_555
C15_6 C16_6 1_555 1_555
C18_6 O71_4 1_555 1_555
O6_6 Zn9_6 1_555 1_555
C38_6 N10_6 1_555 1_555
C42_6 C43_6 1_555 1_555
O19_6 Zn16 1_555 1_555
C47_6 N12_6 1_555 1_555
C51_6 C52_6 1_555 1_555
O23_6 Zn14 1_555 1_555
O37_6 Zn15_8 1_555 1_555
Zn3_14 O28_6 1_555 1_555
C55_6 N13_6 1_555 1_555
C56_6 C57_6 1_555 1_555
C57_6 H25_6 1_555 1_555
C58_6 C57_6 1_555 1_555
C59_6 C58_6 1_555 1_555
H26_6 C59_6 1_555 1_555
C60_6 C59_6 1_555 1_555
C61_6 C56_6 1_555 1_555
H27_6 C61_6 1_555 1_555
C62_6 C58_6 1_555 1_555
C63_6 C60_6 1_555 1_555
N13_6 C64_6 1_555 1_555
N14_6 C55_6 1_555 1_555
H28_6 N14_6 1_555 1_555
O27_6 C62_6 1_555 1_555
O28_6 C63_6 1_555 1_555
O29_6 C63_6 1_555 1_555
C64_6 N15_6 1_555 1_555
C65_6 C66_6 1_555 1_555
C66_6 H29_6 1_555 1_555
C67_6 C66_6 1_555 1_555
C68_6 C67_6 1_555 1_555
H30_6 C68_6 1_555 1_555
C69_6 C68_6 1_555 1_555
C70_6 C65_6 1_555 1_555
H31_6 C70_6 1_555 1_555
C71_6 C67_6 1_555 1_555
C72_6 C69_6 1_555 1_555
N15_6 C73_6 1_555 1_555
N16_6 C64_6 1_555 1_555
H32_6 N16_6 1_555 1_555
O53_4 C71_6 1_555 1_555
O54_4 C71_6 1_555 1_555
O33_6 C72_6 1_555 1_555
O34_6 C72_6 1_555 1_555
C73_6 N17_6 1_555 1_555
C79_6 C74_6 1_555 1_555
H35_6 C79_6 1_555 1_555
C81_6 C78_6 1_555 1_555
N17_6 C55_6 1_555 1_555
N18_6 C73_6 1_555 1_555
H36_6 N18_6 1_555 1_555
O38_6 C81_6 1_555 1_555
Zn6_6 O27_6 1_555 1_555
Zn11_9 O33_6 1_555 1_555
O52_6 Zn6_6 1_555 1_555
O60_6 Zn3_14 1_555 1_555
O61_6 Zn3_14 1_555 1_555
O65_6 Zn3_14 1_555 1_555
O66_6 Zn3_14 1_555 1_555
O70_6 Zn3_14 1_555 1_555
O73_6 Zn6_6 1_555 1_555
C56_6 N14_6 1_555 1_555
C60_6 C61_6 1_555 1_555
C62_6 O51_4 1_555 1_555
O75_4 Zn6_6 1_555 1_555
C65_6 N16_6 1_555 1_555
C69_6 C70_6 1_555 1_555
C74_6 N18_6 1_555 1_555
C78_6 C79_6 1_555 1_555
C55_7 N13_7 1_555 1_555
C61_7 C56_7 1_555 1_555
H27_7 C61_7 1_555 1_555
C63_7 C60_7 1_555 1_555
N13_7 C64_7 1_555 1_555
N14_7 C55_7 1_555 1_555
H28_7 N14_7 1_555 1_555
O29_7 C63_7 1_555 1_555
C64_7 N15_7 1_555 1_555
C65_7 C66_7 1_555 1_555
C66_7 H29_7 1_555 1_555
C67_7 C66_7 1_555 1_555
C68_7 C67_7 1_555 1_555
H30_7 C68_7 1_555 1_555
C69_7 C68_7 1_555 1_555
C70_7 C65_7 1_555 1_555
H31_7 C70_7 1_555 1_555
C71_7 C67_7 1_555 1_555
C72_7 C69_7 1_555 1_555
N15_7 C73_7 1_555 1_555
N16_7 C64_7 1_555 1_555
H32_7 N16_7 1_555 1_555
O53_2 C71_7 1_555 1_555
O54_2 C71_7 1_555 1_555
O33_7 C72_7 1_555 1_555
O34_7 C72_7 1_555 1_555
C73_7 N17_7 1_555 1_555
C74_7 C75_7 1_555 1_555
C75_7 H33_7 1_555 1_555
C76_7 C75_7 1_555 1_555
C77_7 C76_7 1_555 1_555
H34_7 C77_7 1_555 1_555
C78_7 C77_7 1_555 1_555
C79_7 C74_7 1_555 1_555
H35_7 C79_7 1_555 1_555
C80_7 C76_7 1_555 1_555
C81_7 C78_7 1_555 1_555
N17_7 C55_7 1_555 1_555
N18_7 C73_7 1_555 1_555
H36_7 N18_7 1_555 1_555
O35_7 C80_7 1_555 1_555
O55_2 C80_7 1_555 1_555
O37_7 C81_7 1_555 1_555
O38_7 C81_7 1_555 1_555
Zn19_2 O35_7 1_555 1_555
Zn11_5 O33_7 1_555 1_555
O60_7 Zn3_15 1_555 1_555
O61_7 Zn3_15 1_555 1_555
O66_7 Zn3_15 1_555 1_555
C56_7 N14_7 1_555 1_555
C60_7 C61_7 1_555 1_555
C65_7 N16_7 1_555 1_555
C69_7 C70_7 1_555 1_555
C74_7 N18_7 1_555 1_555
C78_7 C79_7 1_555 1_555
O37_7 Zn15_5 1_555 1_555
C10_7 N3_7 1_555 1_555
C11_7 C12_7 1_555 1_555
C12_7 H4_7 1_555 1_555
C13_7 C12_7 1_555 1_555
C14_7 C13_7 1_555 1_555
H5_7 C14_7 1_555 1_555
C15_7 C14_7 1_555 1_555
C16_7 C11_7 1_555 1_555
H6_7 C16_7 1_555 1_555
C17_7 C13_7 1_555 1_555
C18_7 C15_7 1_555 1_555
N3_7 C37_7 1_555 1_555
N4_7 C10_7 1_555 1_555
H8_7 N4_7 1_555 1_555
O5_7 C17_7 1_555 1_555
O6_7 C17_7 1_555 1_555
O8_7 C18_7 1_555 1_555
C37_7 N9_7 1_555 1_555
C38_7 C39_7 1_555 1_555
C39_7 H17_7 1_555 1_555
C40_7 C39_7 1_555 1_555
C41_7 C40_7 1_555 1_555
H18_7 C41_7 1_555 1_555
C42_7 C41_7 1_555 1_555
C43_7 C38_7 1_555 1_555
H19_7 C43_7 1_555 1_555
C44_7 C40_7 1_555 1_555
C45_7 C42_7 1_555 1_555
N9_7 C46_7 1_555 1_555
N10_7 C37_7 1_555 1_555
H20_7 N10_7 1_555 1_555
O18_7 C44_7 1_555 1_555
O19_7 C44_7 1_555 1_555
O20_7 C45_7 1_555 1_555
O21_7 C45_7 1_555 1_555
C46_7 N11_7 1_555 1_555
C47_7 C48_7 1_555 1_555
C48_7 H21_7 1_555 1_555
C49_7 C48_7 1_555 1_555
C50_7 C49_7 1_555 1_555
H22_7 C50_7 1_555 1_555
C51_7 C50_7 1_555 1_555
C52_7 C47_7 1_555 1_555
H23_7 C52_7 1_555 1_555
C53_7 C49_7 1_555 1_555
C54_7 C51_7 1_555 1_555
N11_7 C10_7 1_555 1_555
N12_7 C46_7 1_555 1_555
H24_7 N12_7 1_555 1_555
O22_7 C53_7 1_555 1_555
O23_7 C53_7 1_555 1_555
O74 C54_7 1_555 1_555
O25_7 C54_7 1_555 1_555
Zn3_16 O28_7 1_555 1_555
C57_7 H25_7 1_555 1_555
C58_7 C57_7 1_555 1_555
C59_7 C58_7 1_555 1_555
H26_7 C59_7 1_555 1_555
C62_7 C58_7 1_555 1_555
O27_7 C62_7 1_555 1_555
Zn6_7 O27_7 1_555 1_555
Zn9_7 O5_7 1_555 1_555
Zn22_4 O20_7 1_555 1_555
O52_7 Zn6_7 1_555 1_555
O56_7 Zn21_2 1_555 1_555
O57_7 Zn9_7 1_555 1_555
O59_7 Zn9_7 1_555 1_555
O63_7 Zn9_7 1_555 1_555
O65_7 Zn3_16 1_555 1_555
O68_7 Zn9_7 1_555 1_555
O70_7 Zn3_16 1_555 1_555
O73_7 Zn6_7 1_555 1_555
C11_7 N4_7 1_555 1_555
C15_7 C16_7 1_555 1_555
C18_7 O71_2 1_555 1_555
O6_7 Zn9_7 1_555 1_555
C38_7 N10_7 1_555 1_555
C42_7 C43_7 1_555 1_555
C47_7 N12_7 1_555 1_555
C51_7 C52_7 1_555 1_555
C62_7 O51_2 1_555 1_555
O75_2 Zn6_7 1_555 1_555
Zn3_17 O28_8 1_555 1_555
C55_8 N13_8 1_555 1_555
C56_8 C57_8 1_555 1_555
C57_8 H25_8 1_555 1_555
C58_8 C57_8 1_555 1_555
C59_8 C58_8 1_555 1_555
H26_8 C59_8 1_555 1_555
C60_8 C59_8 1_555 1_555
C61_8 C56_8 1_555 1_555
H27_8 C61_8 1_555 1_555
C62_8 C58_8 1_555 1_555
C63_8 C60_8 1_555 1_555
N13_8 C64_8 1_555 1_555
N14_8 C55_8 1_555 1_555
H28_8 N14_8 1_555 1_555
O27_8 C62_8 1_555 1_555
O28_8 C63_8 1_555 1_555
O29_8 C63_8 1_555 1_555
C64_8 N15_8 1_555 1_555
C70_8 C65_8 1_555 1_555
H31_8 C70_8 1_555 1_555
C72_8 C69_8 1_555 1_555
N15_8 C73_8 1_555 1_555
N16_8 C64_8 1_555 1_555
H32_8 N16_8 1_555 1_555
O34_8 C72_8 1_555 1_555
C73_8 N17_8 1_555 1_555
C74_8 C75_8 1_555 1_555
C75_8 H33_8 1_555 1_555
C76_8 C75_8 1_555 1_555
C77_8 C76_8 1_555 1_555
H34_8 C77_8 1_555 1_555
C78_8 C77_8 1_555 1_555
C79_8 C74_8 1_555 1_555
H35_8 C79_8 1_555 1_555
C80_8 C76_8 1_555 1_555
C81_8 C78_8 1_555 1_555
N17_8 C55_8 1_555 1_555
N18_8 C73_8 1_555 1_555
H36_8 N18_8 1_555 1_555
O35_8 C80_8 1_555 1_555
O55_3 C80_8 1_555 1_555
O37_8 C81_8 1_555 1_555
O38_8 C81_8 1_555 1_555
Zn6_8 O27_8 1_555 1_555
Zn18 O35_8 1_555 1_555
O52_8 Zn6_8 1_555 1_555
O57_8 Zn9_8 1_555 1_555
O59_8 Zn9_8 1_555 1_555
O65_8 Zn3_17 1_555 1_555
O66_8 Zn3_17 1_555 1_555
O73_8 Zn6_8 1_555 1_555
C56_8 N14_8 1_555 1_555
C60_8 C61_8 1_555 1_555
C62_8 O51_3 1_555 1_555
O75_3 Zn6_8 1_555 1_555
C65_8 N16_8 1_555 1_555
C69_8 C70_8 1_555 1_555
C74_8 N18_8 1_555 1_555
C78_8 C79_8 1_555 1_555
O37_8 Zn15_7 1_555 1_555
C10_8 N3_8 1_555 1_555
C11_8 C12_8 1_555 1_555
C12_8 H4_8 1_555 1_555
C13_8 C12_8 1_555 1_555
C14_8 C13_8 1_555 1_555
H5_8 C14_8 1_555 1_555
C15_8 C14_8 1_555 1_555
C16_8 C11_8 1_555 1_555
H6_8 C16_8 1_555 1_555
C17_8 C13_8 1_555 1_555
C18_8 C15_8 1_555 1_555
N3_8 C37_8 1_555 1_555
N4_8 C10_8 1_555 1_555
H8_8 N4_8 1_555 1_555
O5_8 C17_8 1_555 1_555
O6_8 C17_8 1_555 1_555
O8_8 C18_8 1_555 1_555
C37_8 N9_8 1_555 1_555
C38_8 C39_8 1_555 1_555
C39_8 H17_8 1_555 1_555
C40_8 C39_8 1_555 1_555
C41_8 C40_8 1_555 1_555
H18_8 C41_8 1_555 1_555
C42_8 C41_8 1_555 1_555
C43_8 C38_8 1_555 1_555
H19_8 C43_8 1_555 1_555
C44_8 C40_8 1_555 1_555
C45_8 C42_8 1_555 1_555
N9_8 C46_8 1_555 1_555
N10_8 C37_8 1_555 1_555
H20_8 N10_8 1_555 1_555
O18_8 C44_8 1_555 1_555
O19_8 C44_8 1_555 1_555
O20_8 C45_8 1_555 1_555
O21_8 C45_8 1_555 1_555
C46_8 N11_8 1_555 1_555
C47_8 C48_8 1_555 1_555
C48_8 H21_8 1_555 1_555
C49_8 C48_8 1_555 1_555
C50_8 C49_8 1_555 1_555
H22_8 C50_8 1_555 1_555
C51_8 C50_8 1_555 1_555
C52_8 C47_8 1_555 1_555
H23_8 C52_8 1_555 1_555
C53_8 C49_8 1_555 1_555
C54_8 C51_8 1_555 1_555
N11_8 C10_8 1_555 1_555
N12_8 C46_8 1_555 1_555
H24_8 N12_8 1_555 1_555
O22_8 C53_8 1_555 1_555
O23_8 C53_8 1_555 1_555
O74_4 C54_8 1_555 1_555
O25_8 C54_8 1_555 1_555
C66_8 H29_8 1_555 1_555
C67_8 C66_8 1_555 1_555
C68_8 C67_8 1_555 1_555
H30_8 C68_8 1_555 1_555
C71_8 C67_8 1_555 1_555
O53_3 C71_8 1_555 1_555
O54_3 C71_8 1_555 1_555
Zn14_2 O22_8 1_555 1_555
Zn11_7 O33_8 1_555 1_555
Zn22 O20_8 1_555 1_555
O56_8 Zn20_2 1_555 1_555
O60_8 Zn3_18 1_555 1_555
O61_8 Zn3_18 1_555 1_555
O70_8 Zn3_18 1_555 1_555
C11_8 N4_8 1_555 1_555
C15_8 C16_8 1_555 1_555
C18_8 O71_3 1_555 1_555
C38_8 N10_8 1_555 1_555
C42_8 C43_8 1_555 1_555
C47_8 N12_8 1_555 1_555
C51_8 C52_8 1_555 1_555
O23_8 Zn14_2 1_555 1_555
O56_9 Zn22 1_555 1_555
O52_9 Zn25 1_555 1_555
O73_9 Zn25 1_555 1_555
O57_9 Zn10_2 1_555 1_555
O59_9 Zn10_2 1_555 1_555
O56_10 Zn22_3 1_555 1_555
O57_10 Zn10_4 1_555 1_555
O59_10 Zn10_4 1_555 1_555
O63_10 Zn10_4 1_555 1_555
O68_10 Zn10_4 1_555 1_555
O52_10 Zn25_3 1_555 1_555
O73_10 Zn25_3 1_555 1_555
O52_11 Zn25_4 1_555 1_555
O56_11 Zn22_4 1_555 1_555
O57_11 Zn10_3 1_555 1_555
O59_11 Zn10_3 1_555 1_555
O63_11 Zn10_3 1_555 1_555
O68_11 Zn10_3 1_555 1_555
O73_11 Zn25_4 1_555 1_555
O52_12 Zn25_2 1_555 1_555
O57_12 Zn10 1_555 1_555
O59_12 Zn10 1_555 1_555
O73_12 Zn25_2 1_555 1_555
O56_12 Zn22_2 1_555 1_555
C82_5 N19_5 1_555 1_555
C83_5 C84_5 1_555 1_555
C84_5 H37_5 1_555 1_555
C85_5 C84_5 1_555 1_555
C88_5 C83_5 1_555 1_555
H39_5 C88_5 1_555 1_555
C89_5 C85_5 1_555 1_555
N19_5 C91_5 1_555 1_555
N20_5 C82_5 1_555 1_555
H40_5 N20_5 1_555 1_555
O39_5 C89_5 1_555 1_555
C91_5 N21_5 1_555 1_555
C92_5 C93_5 1_555 1_555
C93_5 H41_5 1_555 1_555
C94_5 C93_5 1_555 1_555
C97_5 C92_5 1_555 1_555
H43_5 C97_5 1_555 1_555
C98_5 C94_5 1_555 1_555
N21_5 C100_5 1_555 1_555
N22_5 C91_5 1_555 1_555
H44_5 N22_5 1_555 1_555
O43_5 C98_5 1_555 1_555
C100_5 N23_5 1_555 1_555
C101_5 C102_5 1_555 1_555
C102_5 H45_5 1_555 1_555
C103_5 C102_5 1_555 1_555
C104_5 C103_5 1_555 1_555
H46_5 C104_5 1_555 1_555
C105_5 C104_5 1_555 1_555
C106_5 C101_5 1_555 1_555
H47_5 C106_5 1_555 1_555
C107_5 C103_5 1_555 1_555
C108_5 C105_5 1_555 1_555
N23_5 C82_5 1_555 1_555
N24_5 C100_5 1_555 1_555
H48_5 N24_5 1_555 1_555
O61_7 C107_5 1_555 1_555
O66_7 C107_5 1_555 1_555
O49_3 C108_5 1_555 1_555
O50_5 C108_5 1_555 1_555
Zn11_8 O43_5 1_555 1_555
Zn17_3 O49_3 1_555 1_555
C83_5 N20_5 1_555 1_555
O39_5 Zn15 1_555 1_555
C92_5 N22_5 1_555 1_555
C101_5 N24_5 1_555 1_555
C105_5 C106_5 1_555 1_555
H22_9 C50_9 1_555 1_555
C51_9 C50_9 1_555 1_555
C54_9 C51_9 1_555 1_555
O24_5 C54_9 1_555 1_555
O25_9 C54_9 1_555 1_555
H42_5 C95_5 1_555 1_555
C96_5 C95_5 1_555 1_555
C99_5 C96_5 1_555 1_555
O45_5 C99_5 1_555 1_555
O46_5 C99_5 1_555 1_555
Zn18_3 O45_5 1_555 1_555
Zn23_3 O24_5 1_555 1_555
O23_9 Zn15_2 1_555 1_555
O44_5 Zn11_9 1_555 1_555
Zn2_5 O1_5 1_555 1_555
C1_5 N1_5 1_555 1_555
C2_5 C3_5 1_555 1_555
C3_5 H1_5 1_555 1_555
C4_5 C3_5 1_555 1_555
C5_5 C4_5 1_555 1_555
H2_5 C5_5 1_555 1_555
C6_5 C5_5 1_555 1_555
C7_5 C2_5 1_555 1_555
H3_5 C7_5 1_555 1_555
C8_5 C4_5 1_555 1_555
C9_5 C6_5 1_555 1_555
H5_9 C14_9 1_555 1_555
C15_9 C14_9 1_555 1_555
C18_9 C15_9 1_555 1_555
N1_5 C19_5 1_555 1_555
N2_5 C1_5 1_555 1_555
H7_5 N2_5 1_555 1_555
O1_5 C8_5 1_555 1_555
O2_5 C8_5 1_555 1_555
O57_6 C9_5 1_555 1_555
O4_5 C9_5 1_555 1_555
O7_5 Zn2_5 1_555 1_555
O8_9 C18_9 1_555 1_555
O9_5 Zn2_5 1_555 1_555
C19_5 N5_5 1_555 1_555
C20_5 C21_5 1_555 1_555
C21_5 H9_5 1_555 1_555
C22_5 C21_5 1_555 1_555
C23_5 C22_5 1_555 1_555
H10_5 C23_5 1_555 1_555
C24_5 C23_5 1_555 1_555
C25_5 C20_5 1_555 1_555
H11_5 C25_5 1_555 1_555
C26_5 C22_5 1_555 1_555
C27_5 C24_5 1_555 1_555
N5_5 C28_5 1_555 1_555
N6_5 C19_5 1_555 1_555
H12_5 N6_5 1_555 1_555
O10_5 C26_5 1_555 1_555
O11_5 C26_5 1_555 1_555
O12_5 C27_5 1_555 1_555
O13_5 C27_5 1_555 1_555
C28_5 N7_5 1_555 1_555
C29_5 C30_5 1_555 1_555
C30_5 H13_5 1_555 1_555
C31_5 C30_5 1_555 1_555
C32_5 C31_5 1_555 1_555
H14_5 C32_5 1_555 1_555
C33_5 C32_5 1_555 1_555
C34_5 C29_5 1_555 1_555
H15_5 C34_5 1_555 1_555
C35_5 C31_5 1_555 1_555
C36_5 C33_5 1_555 1_555
N7_5 C1_5 1_555 1_555
N8_5 C28_5 1_555 1_555
H16_5 N8_5 1_555 1_555
O14_5 C35_5 1_555 1_555
O15_5 C35_5 1_555 1_555
O16_5 C36_5 1_555 1_555
O17_5 C36_5 1_555 1_555
Zn4_5 O11_5 1_555 1_555
C55_9 N13_9 1_555 1_555
C56_9 C57_9 1_555 1_555
C57_9 H25_9 1_555 1_555
C58_9 C57_9 1_555 1_555
C59_9 C58_9 1_555 1_555
H26_9 C59_9 1_555 1_555
C60_9 C59_9 1_555 1_555
C61_9 C56_9 1_555 1_555
H27_9 C61_9 1_555 1_555
C62_9 C58_9 1_555 1_555
C63_9 C60_9 1_555 1_555
N13_9 C64_9 1_555 1_555
N14_9 C55_9 1_555 1_555
H28_9 N14_9 1_555 1_555
O26_5 Zn4_5 1_555 1_555
O27_9 C62_9 1_555 1_555
O57_3 C63_9 1_555 1_555
O29_9 C63_9 1_555 1_555
O30_5 Zn4_5 1_555 1_555
C64_9 N15_9 1_555 1_555
C65_9 C66_9 1_555 1_555
C66_9 H29_9 1_555 1_555
C67_9 C66_9 1_555 1_555
C68_9 C67_9 1_555 1_555
H30_9 C68_9 1_555 1_555
C69_9 C68_9 1_555 1_555
C70_9 C65_9 1_555 1_555
H31_9 C70_9 1_555 1_555
C71_9 C67_9 1_555 1_555
C72_9 C69_9 1_555 1_555
N15_9 C73_9 1_555 1_555
N16_9 C64_9 1_555 1_555
H32_9 N16_9 1_555 1_555
O31_5 C71_9 1_555 1_555
O32_5 C71_9 1_555 1_555
O33_9 C72_9 1_555 1_555
O34_9 C72_9 1_555 1_555
C73_9 N17_9 1_555 1_555
C74_9 C75_9 1_555 1_555
C75_9 H33_9 1_555 1_555
C76_9 C75_9 1_555 1_555
C77_9 C76_9 1_555 1_555
H34_9 C77_9 1_555 1_555
C78_9 C77_9 1_555 1_555
C79_9 C74_9 1_555 1_555
H35_9 C79_9 1_555 1_555
C80_9 C76_9 1_555 1_555
C81_9 C78_9 1_555 1_555
N17_9 C55_9 1_555 1_555
N18_9 C73_9 1_555 1_555
H36_9 N18_9 1_555 1_555
O35_9 C80_9 1_555 1_555
O36_5 C80_9 1_555 1_555
O37_9 C81_9 1_555 1_555
O38_9 C81_9 1_555 1_555
Zn5_3 O32_5 1_555 1_555
Zn6_9 O27_9 1_555 1_555
Zn7_5 O9_5 1_555 1_555
H38_5 C86_5 1_555 1_555
C87_5 C86_5 1_555 1_555
C90_5 C87_5 1_555 1_555
O41_5 Zn7_5 1_555 1_555
O42_5 C90_5 1_555 1_555
Zn8_5 O35_9 1_555 1_555
Zn16_3 O16_5 1_555 1_555
Zn14_2 O12_5 1_555 1_555
Zn13 O33_9 1_555 1_555
Zn19_3 O15_5 1_555 1_555
Zn21_3 O10_5 1_555 1_555
Zn22_5 O31_5 1_555 1_555
Zn24_3 O14_5 1_555 1_555
Zn25_5 O2_5 1_555 1_555
O51_5 Zn5_3 1_555 1_555
O52_13 Zn6_9 1_555 1_555
O53_5 Zn7_5 1_555 1_555
O54_5 Zn2_5 1_555 1_555
O55_5 Zn8_5 1_555 1_555
O56_13 Zn7_5 1_555 1_555
O71_5 Zn4_5 1_555 1_555
O72_3 Zn5_3 1_555 1_555
O73_13 Zn6_9 1_555 1_555
O74_5 Zn8_5 1_555 1_555
O75_5 Zn5_3 1_555 1_555
O76_5 Zn8_5 1_555 1_555
C2_5 N2_5 1_555 1_555
C6_5 C7_5 1_555 1_555
C18_9 O7_5 1_555 1_555
O9_5 Zn25_5 1_555 1_555
C20_5 N6_5 1_555 1_555
C24_5 C25_5 1_555 1_555
C29_5 N8_5 1_555 1_555
C33_5 C34_5 1_555 1_555
C56_9 N14_9 1_555 1_555
C60_9 C61_9 1_555 1_555
C62_9 O26_5 1_555 1_555
O30_5 Zn6_9 1_555 1_555
O30_5 Zn21_3 1_555 1_555
C65_9 N16_9 1_555 1_555
C69_9 C70_9 1_555 1_555
C74_9 N18_9 1_555 1_555
C78_9 C79_9 1_555 1_555
O36_5 Zn24_3 1_555 1_555
O37_9 Zn14_2 1_555 1_555
C90_5 O41_5 1_555 1_555
O40_5 Zn15_3 1_555 1_555
Zn19_3 O76_5 1_555 1_555
Zn22_5 O75_5 1_555 1_555
Zn24_3 O76_5 1_555 1_555
C10_9 N3_9 1_555 1_555
C11_9 C12_9 1_555 1_555
C12_9 H4_9 1_555 1_555
C13_9 C12_9 1_555 1_555
C16_9 C11_9 1_555 1_555
H6_9 C16_9 1_555 1_555
C17_9 C13_9 1_555 1_555
N3_9 C37_9 1_555 1_555
N4_9 C10_9 1_555 1_555
H8_9 N4_9 1_555 1_555
O61_4 C17_9 1_555 1_555
C37_9 N9_9 1_555 1_555
C38_9 C39_9 1_555 1_555
C39_9 H17_9 1_555 1_555
C40_9 C39_9 1_555 1_555
C41_9 C40_9 1_555 1_555
H18_9 C41_9 1_555 1_555
C42_9 C41_9 1_555 1_555
C43_9 C38_9 1_555 1_555
H19_9 C43_9 1_555 1_555
C44_9 C40_9 1_555 1_555
C45_9 C42_9 1_555 1_555
N9_9 C46_9 1_555 1_555
N10_9 C37_9 1_555 1_555
H20_9 N10_9 1_555 1_555
O18_9 C44_9 1_555 1_555
O19_9 C44_9 1_555 1_555
O20_9 C45_9 1_555 1_555
O21_9 C45_9 1_555 1_555
C46_9 N11_9 1_555 1_555
C47_9 C48_9 1_555 1_555
C48_9 H21_9 1_555 1_555
C49_9 C48_9 1_555 1_555
C52_9 C47_9 1_555 1_555
H23_9 C52_9 1_555 1_555
C53_9 C49_9 1_555 1_555
N11_9 C10_9 1_555 1_555
N12_9 C46_9 1_555 1_555
H24_9 N12_9 1_555 1_555
O22_9 C53_9 1_555 1_555
Zn15_4 O22_9 1_555 1_555
Zn12_6 O18_9 1_555 1_555
Zn20_3 O20_9 1_555 1_555
C11_9 N4_9 1_555 1_555
C38_9 N10_9 1_555 1_555
C42_9 C43_9 1_555 1_555
O19_9 Zn12_6 1_555 1_555
C47_9 N12_9 1_555 1_555
Zn2_6 O1_6 1_555 1_555
C1_6 N1_6 1_555 1_555
C2_6 C3_6 1_555 1_555
C3_6 H1_6 1_555 1_555
C4_6 C3_6 1_555 1_555
C5_6 C4_6 1_555 1_555
H2_6 C5_6 1_555 1_555
C6_6 C5_6 1_555 1_555
C7_6 C2_6 1_555 1_555
H3_6 C7_6 1_555 1_555
C8_6 C4_6 1_555 1_555
C9_6 C6_6 1_555 1_555
C10_10 N3_10 1_555 1_555
C11_10 C12_10 1_555 1_555
C12_10 H4_10 1_555 1_555
C13_10 C12_10 1_555 1_555
C14_10 C13_10 1_555 1_555
H5_10 C14_10 1_555 1_555
C15_10 C14_10 1_555 1_555
C16_10 C11_10 1_555 1_555
H6_10 C16_10 1_555 1_555
C17_10 C13_10 1_555 1_555
C18_10 C15_10 1_555 1_555
N1_6 C19_6 1_555 1_555
N2_6 C1_6 1_555 1_555
H7_6 N2_6 1_555 1_555
N3_10 C37_10 1_555 1_555
N4_10 C10_10 1_555 1_555
H8_10 N4_10 1_555 1_555
O1_6 C8_6 1_555 1_555
O2_6 C8_6 1_555 1_555
O57_8 C9_6 1_555 1_555
O4_6 C9_6 1_555 1_555
O61_3 C17_10 1_555 1_555
O66_3 C17_10 1_555 1_555
O7_6 Zn2_6 1_555 1_555
O8_10 C18_10 1_555 1_555
O9_6 Zn2_6 1_555 1_555
C19_6 N5_6 1_555 1_555
C20_6 C21_6 1_555 1_555
C21_6 H9_6 1_555 1_555
C22_6 C21_6 1_555 1_555
C23_6 C22_6 1_555 1_555
H10_6 C23_6 1_555 1_555
C24_6 C23_6 1_555 1_555
C25_6 C20_6 1_555 1_555
H11_6 C25_6 1_555 1_555
C26_6 C22_6 1_555 1_555
C27_6 C24_6 1_555 1_555
N5_6 C28_6 1_555 1_555
N6_6 C19_6 1_555 1_555
H12_6 N6_6 1_555 1_555
O10_6 C26_6 1_555 1_555
O11_6 C26_6 1_555 1_555
O12_6 C27_6 1_555 1_555
O13_6 C27_6 1_555 1_555
C28_6 N7_6 1_555 1_555
C29_6 C30_6 1_555 1_555
C30_6 H13_6 1_555 1_555
C31_6 C30_6 1_555 1_555
C32_6 C31_6 1_555 1_555
H14_6 C32_6 1_555 1_555
C33_6 C32_6 1_555 1_555
C34_6 C29_6 1_555 1_555
H15_6 C34_6 1_555 1_555
C35_6 C31_6 1_555 1_555
C36_6 C33_6 1_555 1_555
N7_6 C1_6 1_555 1_555
N8_6 C28_6 1_555 1_555
H16_6 N8_6 1_555 1_555
O14_6 C35_6 1_555 1_555
O15_6 C35_6 1_555 1_555
O16_6 C36_6 1_555 1_555
O17_6 C36_6 1_555 1_555
C37_10 N9_10 1_555 1_555
C38_10 C39_10 1_555 1_555
C39_10 H17_10 1_555 1_555
C40_10 C39_10 1_555 1_555
C43_10 C38_10 1_555 1_555
H19_10 C43_10 1_555 1_555
C44_10 C40_10 1_555 1_555
N9_10 C46_10 1_555 1_555
N10_10 C37_10 1_555 1_555
H20_10 N10_10 1_555 1_555
O18_10 C44_10 1_555 1_555
C46_10 N11_10 1_555 1_555
C47_10 C48_10 1_555 1_555
C48_10 H21_10 1_555 1_555
C49_10 C48_10 1_555 1_555
C52_10 C47_10 1_555 1_555
H23_10 C52_10 1_555 1_555
C53_10 C49_10 1_555 1_555
N11_10 C10_10 1_555 1_555
N12_10 C46_10 1_555 1_555
H24_10 N12_10 1_555 1_555
O22_10 C53_10 1_555 1_555
Zn4_6 O11_6 1_555 1_555
C55_10 N13_10 1_555 1_555
C56_10 C57_10 1_555 1_555
C57_10 H25_10 1_555 1_555
C58_10 C57_10 1_555 1_555
C59_10 C58_10 1_555 1_555
H26_10 C59_10 1_555 1_555
C60_10 C59_10 1_555 1_555
C61_10 C56_10 1_555 1_555
H27_10 C61_10 1_555 1_555
C62_10 C58_10 1_555 1_555
C63_10 C60_10 1_555 1_555
N13_10 C64_10 1_555 1_555
N14_10 C55_10 1_555 1_555
H28_10 N14_10 1_555 1_555
O26_6 Zn4_6 1_555 1_555
O27_10 C62_10 1_555 1_555
O57_4 C63_10 1_555 1_555
O29_10 C63_10 1_555 1_555
O30_6 Zn4_6 1_555 1_555
C64_10 N15_10 1_555 1_555
C65_10 C66_10 1_555 1_555
C66_10 H29_10 1_555 1_555
C67_10 C66_10 1_555 1_555
C68_10 C67_10 1_555 1_555
H30_10 C68_10 1_555 1_555
C69_10 C68_10 1_555 1_555
C70_10 C65_10 1_555 1_555
H31_10 C70_10 1_555 1_555
C71_10 C67_10 1_555 1_555
C72_10 C69_10 1_555 1_555
N15_10 C73_10 1_555 1_555
N16_10 C64_10 1_555 1_555
H32_10 N16_10 1_555 1_555
O31_6 C71_10 1_555 1_555
O32_6 C71_10 1_555 1_555
O33_10 C72_10 1_555 1_555
O34_10 C72_10 1_555 1_555
C73_10 N17_10 1_555 1_555
C74_10 C75_10 1_555 1_555
C75_10 H33_10 1_555 1_555
C76_10 C75_10 1_555 1_555
C77_10 C76_10 1_555 1_555
H34_10 C77_10 1_555 1_555
C78_10 C77_10 1_555 1_555
C79_10 C74_10 1_555 1_555
H35_10 C79_10 1_555 1_555
C80_10 C76_10 1_555 1_555
C81_10 C78_10 1_555 1_555
N17_10 C55_10 1_555 1_555
N18_10 C73_10 1_555 1_555
H36_10 N18_10 1_555 1_555
O35_10 C80_10 1_555 1_555
O36_6 C80_10 1_555 1_555
O37_10 C81_10 1_555 1_555
O38_10 C81_10 1_555 1_555
Zn17_3 O32_6 1_555 1_555
Zn6_10 O27_10 1_555 1_555
Zn7_6 O9_6 1_555 1_555
H38_6 C86_6 1_555 1_555
C87_6 C86_6 1_555 1_555
C90_6 C87_6 1_555 1_555
O41_6 Zn7_6 1_555 1_555
O42_6 C90_6 1_555 1_555
Zn8_6 O35_10 1_555 1_555
Zn16_4 O16_6 1_555 1_555
Zn14 O12_6 1_555 1_555
Zn15_5 O22_10 1_555 1_555
Zn12 O18_10 1_555 1_555
Zn13_2 O33_10 1_555 1_555
Zn19_4 O15_6 1_555 1_555
Zn21_4 O10_6 1_555 1_555
Zn22_6 O31_6 1_555 1_555
Zn24_4 O14_6 1_555 1_555
Zn25_6 O2_6 1_555 1_555
O51_6 Zn17_3 1_555 1_555
O52_14 Zn6_10 1_555 1_555
O53_6 Zn7_6 1_555 1_555
O54_6 Zn2_6 1_555 1_555
O55_6 Zn8_6 1_555 1_555
O56_14 Zn7_6 1_555 1_555
O71_6 Zn4_6 1_555 1_555
O73_14 Zn6_10 1_555 1_555
O74_6 Zn8_6 1_555 1_555
O75_6 Zn17_3 1_555 1_555
O76_6 Zn8_6 1_555 1_555
C2_6 N2_6 1_555 1_555
C6_6 C7_6 1_555 1_555
C11_10 N4_10 1_555 1_555
C15_10 C16_10 1_555 1_555
C18_10 O7_6 1_555 1_555
O9_6 Zn25_6 1_555 1_555
C20_6 N6_6 1_555 1_555
C24_6 C25_6 1_555 1_555
C29_6 N8_6 1_555 1_555
C33_6 C34_6 1_555 1_555
C38_10 N10_10 1_555 1_555
C47_10 N12_10 1_555 1_555
C56_10 N14_10 1_555 1_555
C60_10 C61_10 1_555 1_555
C62_10 O26_6 1_555 1_555
O30_6 Zn6_10 1_555 1_555
O30_6 Zn21_4 1_555 1_555
C65_10 N16_10 1_555 1_555
C69_10 C70_10 1_555 1_555
C74_10 N18_10 1_555 1_555
C78_10 C79_10 1_555 1_555
O36_6 Zn24_4 1_555 1_555
O37_10 Zn14 1_555 1_555
C90_6 O41_6 1_555 1_555
O40_6 Zn15_5 1_555 1_555
Zn19_4 O76_6 1_555 1_555
Zn22_6 O75_6 1_555 1_555
Zn24_4 O76_6 1_555 1_555
H18_10 C41_10 1_555 1_555
C42_10 C41_10 1_555 1_555
C45_10 C42_10 1_555 1_555
O20_10 C45_10 1_555 1_555
O21_10 C45_10 1_555 1_555
Zn20_4 O20_10 1_555 1_555
O19_10 Zn12_2 1_555 1_555
H22_10 C50_10 1_555 1_555
C51_10 C50_10 1_555 1_555
C54_10 C51_10 1_555 1_555
O24_6 C54_10 1_555 1_555
O25_10 C54_10 1_555 1_555
C82_6 N19_6 1_555 1_555
C83_6 C84_6 1_555 1_555
C84_6 H37_6 1_555 1_555
C85_6 C84_6 1_555 1_555
C88_6 C83_6 1_555 1_555
H39_6 C88_6 1_555 1_555
C89_6 C85_6 1_555 1_555
N19_6 C91_6 1_555 1_555
N20_6 C82_6 1_555 1_555
H40_6 N20_6 1_555 1_555
O39_6 C89_6 1_555 1_555
C91_6 N21_6 1_555 1_555
C92_6 C93_6 1_555 1_555
C93_6 H41_6 1_555 1_555
C94_6 C93_6 1_555 1_555
C95_6 C94_6 1_555 1_555
H42_6 C95_6 1_555 1_555
C96_6 C95_6 1_555 1_555
C97_6 C92_6 1_555 1_555
H43_6 C97_6 1_555 1_555
C98_6 C94_6 1_555 1_555
C99_6 C96_6 1_555 1_555
N21_6 C100_6 1_555 1_555
N22_6 C91_6 1_555 1_555
H44_6 N22_6 1_555 1_555
O43_6 C98_6 1_555 1_555
O44_6 C98_6 1_555 1_555
O45_6 C99_6 1_555 1_555
O46_6 C99_6 1_555 1_555
C100_6 N23_6 1_555 1_555
C101_6 C102_6 1_555 1_555
C102_6 H45_6 1_555 1_555
C103_6 C102_6 1_555 1_555
C106_6 C101_6 1_555 1_555
H47_6 C106_6 1_555 1_555
C107_6 C103_6 1_555 1_555
N23_6 C82_6 1_555 1_555
N24_6 C100_6 1_555 1_555
H48_6 N24_6 1_555 1_555
O61_5 C107_6 1_555 1_555
Zn11_6 O43_6 1_555 1_555
Zn18_4 O45_6 1_555 1_555
Zn23_4 O24_6 1_555 1_555
O23_10 Zn15_6 1_555 1_555
C83_6 N20_6 1_555 1_555
O39_6 Zn15_6 1_555 1_555
C92_6 N22_6 1_555 1_555
C96_6 C97_6 1_555 1_555
O44_6 Zn11_6 1_555 1_555
C101_6 N24_6 1_555 1_555
H46_6 C104_6 1_555 1_555
C105_6 C104_6 1_555 1_555
C108_6 C105_6 1_555 1_555
O72_3 C108_6 1_555 1_555
O50_6 C108_6 1_555 1_555
H18_11 C41_11 1_555 1_555
C42_11 C41_11 1_555 1_555
C45_11 C42_11 1_555 1_555
O20_11 C45_11 1_555 1_555
O21_11 C45_11 1_555 1_555
Zn21_4 O20_11 1_555 1_555
O19_11 Zn12_7 1_555 1_555
C10_11 N3_11 1_555 1_555
C11_11 C12_11 1_555 1_555
C12_11 H4_11 1_555 1_555
C13_11 C12_11 1_555 1_555
C16_11 C11_11 1_555 1_555
H6_11 C16_11 1_555 1_555
C17_11 C13_11 1_555 1_555
N3_11 C37_11 1_555 1_555
N4_11 C10_11 1_555 1_555
H8_11 N4_11 1_555 1_555
O61 C17_11 1_555 1_555
C37_11 N9_11 1_555 1_555
C38_11 C39_11 1_555 1_555
C39_11 H17_11 1_555 1_555
C40_11 C39_11 1_555 1_555
C43_11 C38_11 1_555 1_555
H19_11 C43_11 1_555 1_555
C44_11 C40_11 1_555 1_555
N9_11 C46_11 1_555 1_555
N10_11 C37_11 1_555 1_555
H20_11 N10_11 1_555 1_555
O18_11 C44_11 1_555 1_555
C46_11 N11_11 1_555 1_555
C47_11 C48_11 1_555 1_555
C48_11 H21_11 1_555 1_555
C49_11 C48_11 1_555 1_555
C50_11 C49_11 1_555 1_555
H22_11 C50_11 1_555 1_555
C51_11 C50_11 1_555 1_555
C52_11 C47_11 1_555 1_555
H23_11 C52_11 1_555 1_555
C53_11 C49_11 1_555 1_555
C54_11 C51_11 1_555 1_555
N11_11 C10_11 1_555 1_555
N12_11 C46_11 1_555 1_555
H24_11 N12_11 1_555 1_555
O22_11 C53_11 1_555 1_555
O23_11 C53_11 1_555 1_555
O24_7 C54_11 1_555 1_555
O25_11 C54_11 1_555 1_555
H42_7 C95_7 1_555 1_555
C96_7 C95_7 1_555 1_555
C99_7 C96_7 1_555 1_555
O45_7 C99_7 1_555 1_555
O46_7 C99_7 1_555 1_555
Zn15_8 O22_11 1_555 1_555
Zn12_8 O18_11 1_555 1_555
Zn19_3 O45_7 1_555 1_555
Zn24_3 O24_7 1_555 1_555
C11_11 N4_11 1_555 1_555
C38_11 N10_11 1_555 1_555
C47_11 N12_11 1_555 1_555
C51_11 C52_11 1_555 1_555
O23_11 Zn15_8 1_555 1_555
O44_7 Zn11_2 1_555 1_555
H46_7 C104_7 1_555 1_555
C105_7 C104_7 1_555 1_555
C108_7 C105_7 1_555 1_555
O49_4 C108_7 1_555 1_555
O50_7 C108_7 1_555 1_555
Zn17_4 O49_4 1_555 1_555
Zn2_7 O1_7 1_555 1_555
C1_7 N1_7 1_555 1_555
C2_7 C3_7 1_555 1_555
C3_7 H1_7 1_555 1_555
C4_7 C3_7 1_555 1_555
C5_7 C4_7 1_555 1_555
H2_7 C5_7 1_555 1_555
C6_7 C5_7 1_555 1_555
C7_7 C2_7 1_555 1_555
H3_7 C7_7 1_555 1_555
C8_7 C4_7 1_555 1_555
C9_7 C6_7 1_555 1_555
H5_11 C14_11 1_555 1_555
C15_11 C14_11 1_555 1_555
C18_11 C15_11 1_555 1_555
N1_7 C19_7 1_555 1_555
N2_7 C1_7 1_555 1_555
H7_7 N2_7 1_555 1_555
O1_7 C8_7 1_555 1_555
O2_7 C8_7 1_555 1_555
O57_5 C9_7 1_555 1_555
O4_7 C9_7 1_555 1_555
O7_7 Zn2_7 1_555 1_555
O8_11 C18_11 1_555 1_555
O9_7 Zn2_7 1_555 1_555
C19_7 N5_7 1_555 1_555
C20_7 C21_7 1_555 1_555
C21_7 H9_7 1_555 1_555
C22_7 C21_7 1_555 1_555
C23_7 C22_7 1_555 1_555
H10_7 C23_7 1_555 1_555
C24_7 C23_7 1_555 1_555
C25_7 C20_7 1_555 1_555
H11_7 C25_7 1_555 1_555
C26_7 C22_7 1_555 1_555
C27_7 C24_7 1_555 1_555
N5_7 C28_7 1_555 1_555
N6_7 C19_7 1_555 1_555
H12_7 N6_7 1_555 1_555
O10_7 C26_7 1_555 1_555
O11_7 C26_7 1_555 1_555
O12_7 C27_7 1_555 1_555
O13_7 C27_7 1_555 1_555
C28_7 N7_7 1_555 1_555
C29_7 C30_7 1_555 1_555
C30_7 H13_7 1_555 1_555
C31_7 C30_7 1_555 1_555
C32_7 C31_7 1_555 1_555
H14_7 C32_7 1_555 1_555
C33_7 C32_7 1_555 1_555
C34_7 C29_7 1_555 1_555
H15_7 C34_7 1_555 1_555
C35_7 C31_7 1_555 1_555
C36_7 C33_7 1_555 1_555
N7_7 C1_7 1_555 1_555
N8_7 C28_7 1_555 1_555
H16_7 N8_7 1_555 1_555
O14_7 C35_7 1_555 1_555
O15_7 C35_7 1_555 1_555
O16_7 C36_7 1_555 1_555
O17_7 C36_7 1_555 1_555
Zn4_7 O11_7 1_555 1_555
C55_11 N13_11 1_555 1_555
C56_11 C57_11 1_555 1_555
C57_11 H25_11 1_555 1_555
C58_11 C57_11 1_555 1_555
C59_11 C58_11 1_555 1_555
H26_11 C59_11 1_555 1_555
C60_11 C59_11 1_555 1_555
C61_11 C56_11 1_555 1_555
H27_11 C61_11 1_555 1_555
C62_11 C58_11 1_555 1_555
C63_11 C60_11 1_555 1_555
N13_11 C64_11 1_555 1_555
N14_11 C55_11 1_555 1_555
H28_11 N14_11 1_555 1_555
O26_7 Zn4_7 1_555 1_555
O27_11 C62_11 1_555 1_555
O57_2 C63_11 1_555 1_555
O29_11 C63_11 1_555 1_555
O30_7 Zn4_7 1_555 1_555
C64_11 N15_11 1_555 1_555
C65_11 C66_11 1_555 1_555
C66_11 H29_11 1_555 1_555
C67_11 C66_11 1_555 1_555
C68_11 C67_11 1_555 1_555
H30_11 C68_11 1_555 1_555
C69_11 C68_11 1_555 1_555
C70_11 C65_11 1_555 1_555
H31_11 C70_11 1_555 1_555
C71_11 C67_11 1_555 1_555
C72_11 C69_11 1_555 1_555
N15_11 C73_11 1_555 1_555
N16_11 C64_11 1_555 1_555
H32_11 N16_11 1_555 1_555
O31_7 C71_11 1_555 1_555
O32_7 C71_11 1_555 1_555
O33_11 C72_11 1_555 1_555
O34_11 C72_11 1_555 1_555
C73_11 N17_11 1_555 1_555
C74_11 C75_11 1_555 1_555
C75_11 H33_11 1_555 1_555
C76_11 C75_11 1_555 1_555
C77_11 C76_11 1_555 1_555
H34_11 C77_11 1_555 1_555
C78_11 C77_11 1_555 1_555
C79_11 C74_11 1_555 1_555
H35_11 C79_11 1_555 1_555
C80_11 C76_11 1_555 1_555
C81_11 C78_11 1_555 1_555
N17_11 C55_11 1_555 1_555
N18_11 C73_11 1_555 1_555
H36_11 N18_11 1_555 1_555
O35_11 C80_11 1_555 1_555
O36_7 C80_11 1_555 1_555
O37_11 C81_11 1_555 1_555
O38_11 C81_11 1_555 1_555
Zn5_4 O32_7 1_555 1_555
Zn6_11 O27_11 1_555 1_555
Zn7_7 O9_7 1_555 1_555
C82_7 N19_7 1_555 1_555
C83_7 C84_7 1_555 1_555
C84_7 H37_7 1_555 1_555
C85_7 C84_7 1_555 1_555
C86_7 C85_7 1_555 1_555
H38_7 C86_7 1_555 1_555
C87_7 C86_7 1_555 1_555
C88_7 C83_7 1_555 1_555
H39_7 C88_7 1_555 1_555
C89_7 C85_7 1_555 1_555
C90_7 C87_7 1_555 1_555
N19_7 C91_7 1_555 1_555
N20_7 C82_7 1_555 1_555
H40_7 N20_7 1_555 1_555
O39_7 C89_7 1_555 1_555
O40_7 C89_7 1_555 1_555
O41_7 Zn7_7 1_555 1_555
O42_7 C90_7 1_555 1_555
C91_7 N21_7 1_555 1_555
C92_7 C93_7 1_555 1_555
C93_7 H41_7 1_555 1_555
C94_7 C93_7 1_555 1_555
C97_7 C92_7 1_555 1_555
H43_7 C97_7 1_555 1_555
C98_7 C94_7 1_555 1_555
N21_7 C100_7 1_555 1_555
N22_7 C91_7 1_555 1_555
H44_7 N22_7 1_555 1_555
O43_7 C98_7 1_555 1_555
C100_7 N23_7 1_555 1_555
C101_7 C102_7 1_555 1_555
C102_7 H45_7 1_555 1_555
C103_7 C102_7 1_555 1_555
C106_7 C101_7 1_555 1_555
H47_7 C106_7 1_555 1_555
C107_7 C103_7 1_555 1_555
N23_7 C82_7 1_555 1_555
N24_7 C100_7 1_555 1_555
H48_7 N24_7 1_555 1_555
O61_8 C107_7 1_555 1_555
Zn8_7 O35_11 1_555 1_555
Zn16_2 O16_7 1_555 1_555
Zn14_3 O12_7 1_555 1_555
Zn13_4 O33_11 1_555 1_555
Zn11_4 O43_7 1_555 1_555
Zn18_3 O15_7 1_555 1_555
Zn20_4 O10_7 1_555 1_555
Zn22_7 O31_7 1_555 1_555
Zn23_3 O14_7 1_555 1_555
Zn25_7 O2_7 1_555 1_555
O51_7 Zn5_4 1_555 1_555
O52_15 Zn6_11 1_555 1_555
O53_7 Zn7_7 1_555 1_555
O54_7 Zn2_7 1_555 1_555
O55_7 Zn8_7 1_555 1_555
O56_15 Zn7_7 1_555 1_555
O71_7 Zn4_7 1_555 1_555
O72_4 Zn5_4 1_555 1_555
O73_15 Zn6_11 1_555 1_555
O74_7 Zn8_7 1_555 1_555
O75_7 Zn5_4 1_555 1_555
O76_7 Zn8_7 1_555 1_555
C2_7 N2_7 1_555 1_555
C6_7 C7_7 1_555 1_555
C18_11 O7_7 1_555 1_555
O9_7 Zn25_7 1_555 1_555
C20_7 N6_7 1_555 1_555
C24_7 C25_7 1_555 1_555
C29_7 N8_7 1_555 1_555
C33_7 C34_7 1_555 1_555
C56_11 N14_11 1_555 1_555
C60_11 C61_11 1_555 1_555
C62_11 O26_7 1_555 1_555
O30_7 Zn6_11 1_555 1_555
O30_7 Zn20_4 1_555 1_555
C65_11 N16_11 1_555 1_555
C69_11 C70_11 1_555 1_555
C74_11 N18_11 1_555 1_555
C78_11 C79_11 1_555 1_555
O36_7 Zn23_3 1_555 1_555
O37_11 Zn14_3 1_555 1_555
C83_7 N20_7 1_555 1_555
C87_7 C88_7 1_555 1_555
C90_7 O41_7 1_555 1_555
O39_7 Zn15_9 1_555 1_555
O40_7 Zn15_9 1_555 1_555
C92_7 N22_7 1_555 1_555
C101_7 N24_7 1_555 1_555
Zn18_3 O76_7 1_555 1_555
Zn22_7 O75_7 1_555 1_555
Zn23_3 O76_7 1_555 1_555
Zn2_8 O1_8 1_555 1_555
C1_8 N1_8 1_555 1_555
C2_8 C3_8 1_555 1_555
C3_8 H1_8 1_555 1_555
C4_8 C3_8 1_555 1_555
C5_8 C4_8 1_555 1_555
H2_8 C5_8 1_555 1_555
C6_8 C5_8 1_555 1_555
C7_8 C2_8 1_555 1_555
H3_8 C7_8 1_555 1_555
C8_8 C4_8 1_555 1_555
C9_8 C6_8 1_555 1_555
C10_12 N3_12 1_555 1_555
C11_12 C12_12 1_555 1_555
C12_12 H4_12 1_555 1_555
C13_12 C12_12 1_555 1_555
C14_12 C13_12 1_555 1_555
H5_12 C14_12 1_555 1_555
C15_12 C14_12 1_555 1_555
C16_12 C11_12 1_555 1_555
H6_12 C16_12 1_555 1_555
C17_12 C13_12 1_555 1_555
C18_12 C15_12 1_555 1_555
N1_8 C19_8 1_555 1_555
N2_8 C1_8 1_555 1_555
H7_8 N2_8 1_555 1_555
N3_12 C37_12 1_555 1_555
N4_12 C10_12 1_555 1_555
H8_12 N4_12 1_555 1_555
O1_8 C8_8 1_555 1_555
O2_8 C8_8 1_555 1_555
O57_7 C9_8 1_555 1_555
O4_8 C9_8 1_555 1_555
O61_2 C17_12 1_555 1_555
O66_2 C17_12 1_555 1_555
O7_8 Zn2_8 1_555 1_555
O8_12 C18_12 1_555 1_555
O9_8 Zn2_8 1_555 1_555
C19_8 N5_8 1_555 1_555
C20_8 C21_8 1_555 1_555
C21_8 H9_8 1_555 1_555
C22_8 C21_8 1_555 1_555
C23_8 C22_8 1_555 1_555
H10_8 C23_8 1_555 1_555
C24_8 C23_8 1_555 1_555
C25_8 C20_8 1_555 1_555
H11_8 C25_8 1_555 1_555
C26_8 C22_8 1_555 1_555
C27_8 C24_8 1_555 1_555
N5_8 C28_8 1_555 1_555
N6_8 C19_8 1_555 1_555
H12_8 N6_8 1_555 1_555
O10_8 C26_8 1_555 1_555
O11_8 C26_8 1_555 1_555
O12_8 C27_8 1_555 1_555
O13_8 C27_8 1_555 1_555
C28_8 N7_8 1_555 1_555
C29_8 C30_8 1_555 1_555
C30_8 H13_8 1_555 1_555
C31_8 C30_8 1_555 1_555
C32_8 C31_8 1_555 1_555
H14_8 C32_8 1_555 1_555
C33_8 C32_8 1_555 1_555
C34_8 C29_8 1_555 1_555
H15_8 C34_8 1_555 1_555
C35_8 C31_8 1_555 1_555
C36_8 C33_8 1_555 1_555
N7_8 C1_8 1_555 1_555
N8_8 C28_8 1_555 1_555
H16_8 N8_8 1_555 1_555
O14_8 C35_8 1_555 1_555
O15_8 C35_8 1_555 1_555
O16_8 C36_8 1_555 1_555
O17_8 C36_8 1_555 1_555
C37_12 N9_12 1_555 1_555
C38_12 C39_12 1_555 1_555
C39_12 H17_12 1_555 1_555
C40_12 C39_12 1_555 1_555
C41_12 C40_12 1_555 1_555
H18_12 C41_12 1_555 1_555
C42_12 C41_12 1_555 1_555
C43_12 C38_12 1_555 1_555
H19_12 C43_12 1_555 1_555
C44_12 C40_12 1_555 1_555
C45_12 C42_12 1_555 1_555
N9_12 C46_12 1_555 1_555
N10_12 C37_12 1_555 1_555
H20_12 N10_12 1_555 1_555
O18_12 C44_12 1_555 1_555
O19_12 C44_12 1_555 1_555
O20_12 C45_12 1_555 1_555
O21_12 C45_12 1_555 1_555
C46_12 N11_12 1_555 1_555
C47_12 C48_12 1_555 1_555
C48_12 H21_12 1_555 1_555
C49_12 C48_12 1_555 1_555
C50_12 C49_12 1_555 1_555
H22_12 C50_12 1_555 1_555
C51_12 C50_12 1_555 1_555
C52_12 C47_12 1_555 1_555
H23_12 C52_12 1_555 1_555
C53_12 C49_12 1_555 1_555
C54_12 C51_12 1_555 1_555
N11_12 C10_12 1_555 1_555
N12_12 C46_12 1_555 1_555
H24_12 N12_12 1_555 1_555
O22_12 C53_12 1_555 1_555
O23_12 C53_12 1_555 1_555
O24_8 C54_12 1_555 1_555
O25_12 C54_12 1_555 1_555
Zn4_8 O11_8 1_555 1_555
C55_12 N13_12 1_555 1_555
C56_12 C57_12 1_555 1_555
C57_12 H25_12 1_555 1_555
C58_12 C57_12 1_555 1_555
C59_12 C58_12 1_555 1_555
H26_12 C59_12 1_555 1_555
C60_12 C59_12 1_555 1_555
C61_12 C56_12 1_555 1_555
H27_12 C61_12 1_555 1_555
C62_12 C58_12 1_555 1_555
C63_12 C60_12 1_555 1_555
N13_12 C64_12 1_555 1_555
N14_12 C55_12 1_555 1_555
H28_12 N14_12 1_555 1_555
O26_8 Zn4_8 1_555 1_555
O27_12 C62_12 1_555 1_555
O57 C63_12 1_555 1_555
O29_12 C63_12 1_555 1_555
O30_8 Zn4_8 1_555 1_555
C64_12 N15_12 1_555 1_555
C65_12 C66_12 1_555 1_555
C66_12 H29_12 1_555 1_555
C67_12 C66_12 1_555 1_555
C68_12 C67_12 1_555 1_555
H30_12 C68_12 1_555 1_555
C69_12 C68_12 1_555 1_555
C70_12 C65_12 1_555 1_555
H31_12 C70_12 1_555 1_555
C71_12 C67_12 1_555 1_555
C72_12 C69_12 1_555 1_555
N15_12 C73_12 1_555 1_555
N16_12 C64_12 1_555 1_555
H32_12 N16_12 1_555 1_555
O31_8 C71_12 1_555 1_555
O32_8 C71_12 1_555 1_555
O33_12 C72_12 1_555 1_555
O34_12 C72_12 1_555 1_555
C73_12 N17_12 1_555 1_555
C74_12 C75_12 1_555 1_555
C75_12 H33_12 1_555 1_555
C76_12 C75_12 1_555 1_555
C77_12 C76_12 1_555 1_555
H34_12 C77_12 1_555 1_555
C78_12 C77_12 1_555 1_555
C79_12 C74_12 1_555 1_555
H35_12 C79_12 1_555 1_555
C80_12 C76_12 1_555 1_555
C81_12 C78_12 1_555 1_555
N17_12 C55_12 1_555 1_555
N18_12 C73_12 1_555 1_555
H36_12 N18_12 1_555 1_555
O35_12 C80_12 1_555 1_555
O36_8 C80_12 1_555 1_555
O37_12 C81_12 1_555 1_555
O38_12 C81_12 1_555 1_555
Zn17_4 O32_8 1_555 1_555
Zn6_12 O27_12 1_555 1_555
Zn7_8 O9_8 1_555 1_555
C82_8 N19_8 1_555 1_555
C83_8 C84_8 1_555 1_555
C84_8 H37_8 1_555 1_555
C85_8 C84_8 1_555 1_555
C86_8 C85_8 1_555 1_555
H38_8 C86_8 1_555 1_555
C87_8 C86_8 1_555 1_555
C88_8 C83_8 1_555 1_555
H39_8 C88_8 1_555 1_555
C89_8 C85_8 1_555 1_555
C90_8 C87_8 1_555 1_555
N19_8 C91_8 1_555 1_555
N20_8 C82_8 1_555 1_555
H40_8 N20_8 1_555 1_555
O39_8 C89_8 1_555 1_555
O40_8 C89_8 1_555 1_555
O41_8 Zn7_8 1_555 1_555
O42_8 C90_8 1_555 1_555
C91_8 N21_8 1_555 1_555
C92_8 C93_8 1_555 1_555
C93_8 H41_8 1_555 1_555
C94_8 C93_8 1_555 1_555
C95_8 C94_8 1_555 1_555
H42_8 C95_8 1_555 1_555
C96_8 C95_8 1_555 1_555
C97_8 C92_8 1_555 1_555
H43_8 C97_8 1_555 1_555
C98_8 C94_8 1_555 1_555
C99_8 C96_8 1_555 1_555
N21_8 C100_8 1_555 1_555
N22_8 C91_8 1_555 1_555
H44_8 N22_8 1_555 1_555
O43_8 C98_8 1_555 1_555
O44_8 C98_8 1_555 1_555
O45_8 C99_8 1_555 1_555
O46_8 C99_8 1_555 1_555
C100_8 N23_8 1_555 1_555
C101_8 C102_8 1_555 1_555
C102_8 H45_8 1_555 1_555
C103_8 C102_8 1_555 1_555
C104_8 C103_8 1_555 1_555
H46_8 C104_8 1_555 1_555
C105_8 C104_8 1_555 1_555
C106_8 C101_8 1_555 1_555
H47_8 C106_8 1_555 1_555
C107_8 C103_8 1_555 1_555
C108_8 C105_8 1_555 1_555
N23_8 C82_8 1_555 1_555
N24_8 C100_8 1_555 1_555
H48_8 N24_8 1_555 1_555
O61_6 C107_8 1_555 1_555
O66_6 C107_8 1_555 1_555
O72_4 C108_8 1_555 1_555
O50_8 C108_8 1_555 1_555
Zn8_8 O35_12 1_555 1_555
Zn16 O16_8 1_555 1_555
Zn14_4 O12_8 1_555 1_555
Zn15_7 O22_12 1_555 1_555
Zn12_9 O18_12 1_555 1_555
Zn13_3 O33_12 1_555 1_555
Zn11_5 O43_8 1_555 1_555
Zn19_4 O45_8 1_555 1_555
Zn18_4 O15_8 1_555 1_555
Zn21_3 O20_12 1_555 1_555
Zn20_3 O10_8 1_555 1_555
Zn22_8 O31_8 1_555 1_555
Zn24_4 O24_8 1_555 1_555
Zn23_4 O14_8 1_555 1_555
Zn25_8 O2_8 1_555 1_555
O51_8 Zn17_4 1_555 1_555
O52_16 Zn6_12 1_555 1_555
O53_8 Zn7_8 1_555 1_555
O54_8 Zn2_8 1_555 1_555
O55_8 Zn8_8 1_555 1_555
O56_16 Zn7_8 1_555 1_555
O71_8 Zn4_8 1_555 1_555
O73_16 Zn6_12 1_555 1_555
O74_8 Zn8_8 1_555 1_555
O75_8 Zn17_4 1_555 1_555
O76_8 Zn8_8 1_555 1_555
C2_8 N2_8 1_555 1_555
C6_8 C7_8 1_555 1_555
C11_12 N4_12 1_555 1_555
C15_12 C16_12 1_555 1_555
C18_12 O7_8 1_555 1_555
O9_8 Zn25_8 1_555 1_555
C20_8 N6_8 1_555 1_555
C24_8 C25_8 1_555 1_555
C29_8 N8_8 1_555 1_555
C33_8 C34_8 1_555 1_555
C38_12 N10_12 1_555 1_555
C42_12 C43_12 1_555 1_555
O19_12 Zn12_9 1_555 1_555
C47_12 N12_12 1_555 1_555
C51_12 C52_12 1_555 1_555
O23_12 Zn15_7 1_555 1_555
C56_12 N14_12 1_555 1_555
C60_12 C61_12 1_555 1_555
C62_12 O26_8 1_555 1_555
O30_8 Zn6_12 1_555 1_555
O30_8 Zn20_3 1_555 1_555
C65_12 N16_12 1_555 1_555
C69_12 C70_12 1_555 1_555
C74_12 N18_12 1_555 1_555
C78_12 C79_12 1_555 1_555
O36_8 Zn23_4 1_555 1_555
O37_12 Zn14_4 1_555 1_555
C83_8 N20_8 1_555 1_555
C87_8 C88_8 1_555 1_555
C90_8 O41_8 1_555 1_555
O39_8 Zn15_7 1_555 1_555
O40_8 Zn15_7 1_555 1_555
C92_8 N22_8 1_555 1_555
C96_8 C97_8 1_555 1_555
O44_8 Zn11_5 1_555 1_555
C101_8 N24_8 1_555 1_555
C105_8 C106_8 1_555 1_555
Zn18_4 O76_8 1_555 1_555
Zn22_8 O75_8 1_555 1_555
Zn23_4 O76_8 1_555 1_555
C10_13 N3_13 1_555 1_555
C11_13 C12_13 1_555 1_555
C12_13 H4_13 1_555 1_555
C13_13 C12_13 1_555 1_555
C14_13 C13_13 1_555 1_555
H5_13 C14_13 1_555 1_555
C15_13 C14_13 1_555 1_555
C16_13 C11_13 1_555 1_555
H6_13 C16_13 1_555 1_555
C17_13 C13_13 1_555 1_555
C18_13 C15_13 1_555 1_555
N3_13 C37_13 1_555 1_555
N4_13 C10_13 1_555 1_555
H8_13 N4_13 1_555 1_555
O62_3 C17_13 1_555 1_555
O67_3 C17_13 1_555 1_555
O8_13 C18_13 1_555 1_555
C37_13 N9_13 1_555 1_555
C38_13 C39_13 1_555 1_555
C39_13 H17_13 1_555 1_555
C40_13 C39_13 1_555 1_555
C41_13 C40_13 1_555 1_555
H18_13 C41_13 1_555 1_555
C42_13 C41_13 1_555 1_555
C43_13 C38_13 1_555 1_555
H19_13 C43_13 1_555 1_555
C44_13 C40_13 1_555 1_555
C45_13 C42_13 1_555 1_555
N9_13 C46_13 1_555 1_555
N10_13 C37_13 1_555 1_555
H20_13 N10_13 1_555 1_555
O18_13 C44_13 1_555 1_555
O19_13 C44_13 1_555 1_555
O20_13 C45_13 1_555 1_555
O21_13 C45_13 1_555 1_555
C46_13 N11_13 1_555 1_555
C47_13 C48_13 1_555 1_555
C48_13 H21_13 1_555 1_555
C49_13 C48_13 1_555 1_555
C50_13 C49_13 1_555 1_555
H22_13 C50_13 1_555 1_555
C51_13 C50_13 1_555 1_555
C52_13 C47_13 1_555 1_555
H23_13 C52_13 1_555 1_555
C53_13 C49_13 1_555 1_555
C54_13 C51_13 1_555 1_555
N11_13 C10_13 1_555 1_555
N12_13 C46_13 1_555 1_555
H24_13 N12_13 1_555 1_555
O22_13 C53_13 1_555 1_555
O23_13 C53_13 1_555 1_555
O74_6 C54_13 1_555 1_555
O25_13 C54_13 1_555 1_555
C55_13 N13_13 1_555 1_555
C56_13 C57_13 1_555 1_555
C57_13 H25_13 1_555 1_555
C58_13 C57_13 1_555 1_555
C59_13 C58_13 1_555 1_555
H26_13 C59_13 1_555 1_555
C60_13 C59_13 1_555 1_555
C61_13 C56_13 1_555 1_555
H27_13 C61_13 1_555 1_555
C62_13 C58_13 1_555 1_555
C63_13 C60_13 1_555 1_555
N13_13 C64_13 1_555 1_555
N14_13 C55_13 1_555 1_555
H28_13 N14_13 1_555 1_555
O27_13 C62_13 1_555 1_555
O57_9 C63_13 1_555 1_555
O29_13 C63_13 1_555 1_555
C64_13 N15_13 1_555 1_555
C65_13 C66_13 1_555 1_555
C66_13 H29_13 1_555 1_555
C67_13 C66_13 1_555 1_555
C68_13 C67_13 1_555 1_555
H30_13 C68_13 1_555 1_555
C69_13 C68_13 1_555 1_555
C70_13 C65_13 1_555 1_555
H31_13 C70_13 1_555 1_555
C71_13 C67_13 1_555 1_555
C72_13 C69_13 1_555 1_555
N15_13 C73_13 1_555 1_555
N16_13 C64_13 1_555 1_555
H32_13 N16_13 1_555 1_555
O53_5 C71_13 1_555 1_555
O54_5 C71_13 1_555 1_555
O33_13 C72_13 1_555 1_555
O34_13 C72_13 1_555 1_555
C73_13 N17_13 1_555 1_555
C74_13 C75_13 1_555 1_555
C75_13 H33_13 1_555 1_555
C76_13 C75_13 1_555 1_555
C77_13 C76_13 1_555 1_555
H34_13 C77_13 1_555 1_555
C78_13 C77_13 1_555 1_555
C79_13 C74_13 1_555 1_555
H35_13 C79_13 1_555 1_555
C80_13 C76_13 1_555 1_555
C81_13 C78_13 1_555 1_555
N17_13 C55_13 1_555 1_555
N18_13 C73_13 1_555 1_555
H36_13 N18_13 1_555 1_555
O35_13 C80_13 1_555 1_555
O55_5 C80_13 1_555 1_555
O37_13 C81_13 1_555 1_555
O38_13 C81_13 1_555 1_555
Zn6_13 O27_13 1_555 1_555
Zn19_3 O35_13 1_555 1_555
Zn12_9 O22_13 1_555 1_555
Zn11_5 O18_13 1_555 1_555
Zn16_3 O33_13 1_555 1_555
Zn22_7 O20_13 1_555 1_555
O52_17 Zn6_13 1_555 1_555
O56_17 Zn21_3 1_555 1_555
O73_17 Zn6_13 1_555 1_555
C11_13 N4_13 1_555 1_555
C15_13 C16_13 1_555 1_555
C18_13 O71_5 1_555 1_555
C38_13 N10_13 1_555 1_555
C42_13 C43_13 1_555 1_555
O19_13 Zn11_5 1_555 1_555
C47_13 N12_13 1_555 1_555
C51_13 C52_13 1_555 1_555
O23_13 Zn12_9 1_555 1_555
C56_13 N14_13 1_555 1_555
C60_13 C61_13 1_555 1_555
C62_13 O51_5 1_555 1_555
O75_5 Zn6_13 1_555 1_555
C65_13 N16_13 1_555 1_555
C69_13 C70_13 1_555 1_555
C74_13 N18_13 1_555 1_555
C78_13 C79_13 1_555 1_555
O37_13 Zn13 1_555 1_555
H18_14 C41_14 1_555 1_555
C42_14 C41_14 1_555 1_555
C45_14 C42_14 1_555 1_555
O20_14 C45_14 1_555 1_555
O21_14 C45_14 1_555 1_555
Zn22_6 O20_14 1_555 1_555
O19_14 Zn11_8 1_555 1_555
C10_14 N3_14 1_555 1_555
C11_14 C12_14 1_555 1_555
C12_14 H4_14 1_555 1_555
C13_14 C12_14 1_555 1_555
C16_14 C11_14 1_555 1_555
H6_14 C16_14 1_555 1_555
C17_14 C13_14 1_555 1_555
N3_14 C37_14 1_555 1_555
N4_14 C10_14 1_555 1_555
H8_14 N4_14 1_555 1_555
O62 C17_14 1_555 1_555
C37_14 N9_14 1_555 1_555
C38_14 C39_14 1_555 1_555
C39_14 H17_14 1_555 1_555
C40_14 C39_14 1_555 1_555
C43_14 C38_14 1_555 1_555
H19_14 C43_14 1_555 1_555
C44_14 C40_14 1_555 1_555
N9_14 C46_14 1_555 1_555
N10_14 C37_14 1_555 1_555
H20_14 N10_14 1_555 1_555
O18_14 C44_14 1_555 1_555
C46_14 N11_14 1_555 1_555
C47_14 C48_14 1_555 1_555
C48_14 H21_14 1_555 1_555
C49_14 C48_14 1_555 1_555
C50_14 C49_14 1_555 1_555
H22_14 C50_14 1_555 1_555
C51_14 C50_14 1_555 1_555
C52_14 C47_14 1_555 1_555
H23_14 C52_14 1_555 1_555
C53_14 C49_14 1_555 1_555
C54_14 C51_14 1_555 1_555
N11_14 C10_14 1_555 1_555
N12_14 C46_14 1_555 1_555
H24_14 N12_14 1_555 1_555
O22_14 C53_14 1_555 1_555
O23_14 C53_14 1_555 1_555
O74_7 C54_14 1_555 1_555
O25_14 C54_14 1_555 1_555
Zn12_5 O22_14 1_555 1_555
Zn11_9 O18_14 1_555 1_555
C11_14 N4_14 1_555 1_555
C38_14 N10_14 1_555 1_555
C47_14 N12_14 1_555 1_555
C51_14 C52_14 1_555 1_555
O23_14 Zn12_5 1_555 1_555
H5_14 C14_14 1_555 1_555
C15_14 C14_14 1_555 1_555
C18_14 C15_14 1_555 1_555
O8_14 C18_14 1_555 1_555
C55_14 N13_14 1_555 1_555
C56_14 C57_14 1_555 1_555
C57_14 H25_14 1_555 1_555
C58_14 C57_14 1_555 1_555
C59_14 C58_14 1_555 1_555
H26_14 C59_14 1_555 1_555
C60_14 C59_14 1_555 1_555
C61_14 C56_14 1_555 1_555
H27_14 C61_14 1_555 1_555
C62_14 C58_14 1_555 1_555
C63_14 C60_14 1_555 1_555
N13_14 C64_14 1_555 1_555
N14_14 C55_14 1_555 1_555
H28_14 N14_14 1_555 1_555
O27_14 C62_14 1_555 1_555
O57_10 C63_14 1_555 1_555
O29_14 C63_14 1_555 1_555
C64_14 N15_14 1_555 1_555
C65_14 C66_14 1_555 1_555
C66_14 H29_14 1_555 1_555
C67_14 C66_14 1_555 1_555
C68_14 C67_14 1_555 1_555
H30_14 C68_14 1_555 1_555
C69_14 C68_14 1_555 1_555
C70_14 C65_14 1_555 1_555
H31_14 C70_14 1_555 1_555
C71_14 C67_14 1_555 1_555
C72_14 C69_14 1_555 1_555
N15_14 C73_14 1_555 1_555
N16_14 C64_14 1_555 1_555
H32_14 N16_14 1_555 1_555
O53_8 C71_14 1_555 1_555
O54_8 C71_14 1_555 1_555
O33_14 C72_14 1_555 1_555
O34_14 C72_14 1_555 1_555
C73_14 N17_14 1_555 1_555
C74_14 C75_14 1_555 1_555
C75_14 H33_14 1_555 1_555
C76_14 C75_14 1_555 1_555
C77_14 C76_14 1_555 1_555
H34_14 C77_14 1_555 1_555
C78_14 C77_14 1_555 1_555
C79_14 C74_14 1_555 1_555
H35_14 C79_14 1_555 1_555
C80_14 C76_14 1_555 1_555
C81_14 C78_14 1_555 1_555
N17_14 C55_14 1_555 1_555
N18_14 C73_14 1_555 1_555
H36_14 N18_14 1_555 1_555
O35_14 C80_14 1_555 1_555
O55_8 C80_14 1_555 1_555
O37_14 C81_14 1_555 1_555
O38_14 C81_14 1_555 1_555
Zn6_14 O27_14 1_555 1_555
Zn18_4 O35_14 1_555 1_555
Zn16 O33_14 1_555 1_555
O52_18 Zn6_14 1_555 1_555
O56_18 Zn20_3 1_555 1_555
O73_18 Zn6_14 1_555 1_555
C18_14 O71_8 1_555 1_555
C56_14 N14_14 1_555 1_555
C60_14 C61_14 1_555 1_555
C62_14 O51_8 1_555 1_555
O75_8 Zn6_14 1_555 1_555
C65_14 N16_14 1_555 1_555
C69_14 C70_14 1_555 1_555
C74_14 N18_14 1_555 1_555
C78_14 C79_14 1_555 1_555
O37_14 Zn13_3 1_555 1_555
C10_15 N3_15 1_555 1_555
C11_15 C12_15 1_555 1_555
C12_15 H4_15 1_555 1_555
C13_15 C12_15 1_555 1_555
C14_15 C13_15 1_555 1_555
H5_15 C14_15 1_555 1_555
C15_15 C14_15 1_555 1_555
C16_15 C11_15 1_555 1_555
H6_15 C16_15 1_555 1_555
C17_15 C13_15 1_555 1_555
C18_15 C15_15 1_555 1_555
N3_15 C37_15 1_555 1_555
N4_15 C10_15 1_555 1_555
H8_15 N4_15 1_555 1_555
O62_4 C17_15 1_555 1_555
O67_4 C17_15 1_555 1_555
O8_15 C18_15 1_555 1_555
C37_15 N9_15 1_555 1_555
C38_15 C39_15 1_555 1_555
C39_15 H17_15 1_555 1_555
C40_15 C39_15 1_555 1_555
C43_15 C38_15 1_555 1_555
H19_15 C43_15 1_555 1_555
C44_15 C40_15 1_555 1_555
N9_15 C46_15 1_555 1_555
N10_15 C37_15 1_555 1_555
H20_15 N10_15 1_555 1_555
O18_15 C44_15 1_555 1_555
C46_15 N11_15 1_555 1_555
C47_15 C48_15 1_555 1_555
C48_15 H21_15 1_555 1_555
C49_15 C48_15 1_555 1_555
C52_15 C47_15 1_555 1_555
H23_15 C52_15 1_555 1_555
C53_15 C49_15 1_555 1_555
N11_15 C10_15 1_555 1_555
N12_15 C46_15 1_555 1_555
H24_15 N12_15 1_555 1_555
O22_15 C53_15 1_555 1_555
C55_15 N13_15 1_555 1_555
C56_15 C57_15 1_555 1_555
C57_15 H25_15 1_555 1_555
C58_15 C57_15 1_555 1_555
C59_15 C58_15 1_555 1_555
H26_15 C59_15 1_555 1_555
C60_15 C59_15 1_555 1_555
C61_15 C56_15 1_555 1_555
H27_15 C61_15 1_555 1_555
C62_15 C58_15 1_555 1_555
C63_15 C60_15 1_555 1_555
N13_15 C64_15 1_555 1_555
N14_15 C55_15 1_555 1_555
H28_15 N14_15 1_555 1_555
O27_15 C62_15 1_555 1_555
O57_12 C63_15 1_555 1_555
O29_15 C63_15 1_555 1_555
C64_15 N15_15 1_555 1_555
C65_15 C66_15 1_555 1_555
C66_15 H29_15 1_555 1_555
C67_15 C66_15 1_555 1_555
C68_15 C67_15 1_555 1_555
H30_15 C68_15 1_555 1_555
C69_15 C68_15 1_555 1_555
C70_15 C65_15 1_555 1_555
H31_15 C70_15 1_555 1_555
C71_15 C67_15 1_555 1_555
C72_15 C69_15 1_555 1_555
N15_15 C73_15 1_555 1_555
N16_15 C64_15 1_555 1_555
H32_15 N16_15 1_555 1_555
O53_6 C71_15 1_555 1_555
O54_6 C71_15 1_555 1_555
O33_15 C72_15 1_555 1_555
O34_15 C72_15 1_555 1_555
C73_15 N17_15 1_555 1_555
C74_15 C75_15 1_555 1_555
C75_15 H33_15 1_555 1_555
C76_15 C75_15 1_555 1_555
C77_15 C76_15 1_555 1_555
H34_15 C77_15 1_555 1_555
C78_15 C77_15 1_555 1_555
C79_15 C74_15 1_555 1_555
H35_15 C79_15 1_555 1_555
C80_15 C76_15 1_555 1_555
C81_15 C78_15 1_555 1_555
N17_15 C55_15 1_555 1_555
N18_15 C73_15 1_555 1_555
H36_15 N18_15 1_555 1_555
O35_15 C80_15 1_555 1_555
O55_6 C80_15 1_555 1_555
O37_15 C81_15 1_555 1_555
O38_15 C81_15 1_555 1_555
Zn6_15 O27_15 1_555 1_555
Zn19_4 O35_15 1_555 1_555
Zn12_7 O22_15 1_555 1_555
Zn11 O18_15 1_555 1_555
Zn16_4 O33_15 1_555 1_555
O52_19 Zn6_15 1_555 1_555
O56_19 Zn21_4 1_555 1_555
O73_19 Zn6_15 1_555 1_555
C11_15 N4_15 1_555 1_555
C15_15 C16_15 1_555 1_555
C18_15 O71_6 1_555 1_555
C38_15 N10_15 1_555 1_555
C47_15 N12_15 1_555 1_555
C56_15 N14_15 1_555 1_555
C60_15 C61_15 1_555 1_555
C62_15 O51_6 1_555 1_555
O75_6 Zn6_15 1_555 1_555
C65_15 N16_15 1_555 1_555
C69_15 C70_15 1_555 1_555
C74_15 N18_15 1_555 1_555
C78_15 C79_15 1_555 1_555
O37_15 Zn13_2 1_555 1_555
H22_15 C50_15 1_555 1_555
C51_15 C50_15 1_555 1_555
C54_15 C51_15 1_555 1_555
O74_5 C54_15 1_555 1_555
O25_15 C54_15 1_555 1_555
O23_15 Zn12_8 1_555 1_555
H18_15 C41_15 1_555 1_555
C42_15 C41_15 1_555 1_555
C45_15 C42_15 1_555 1_555
O20_15 C45_15 1_555 1_555
O21_15 C45_15 1_555 1_555
Zn22_8 O20_15 1_555 1_555
O19_15 Zn11_3 1_555 1_555
H5_16 C14_16 1_555 1_555
C15_16 C14_16 1_555 1_555
C18_16 C15_16 1_555 1_555
O8_16 C18_16 1_555 1_555
C55_16 N13_16 1_555 1_555
C56_16 C57_16 1_555 1_555
C57_16 H25_16 1_555 1_555
C58_16 C57_16 1_555 1_555
C59_16 C58_16 1_555 1_555
H26_16 C59_16 1_555 1_555
C60_16 C59_16 1_555 1_555
C61_16 C56_16 1_555 1_555
H27_16 C61_16 1_555 1_555
C62_16 C58_16 1_555 1_555
C63_16 C60_16 1_555 1_555
N13_16 C64_16 1_555 1_555
N14_16 C55_16 1_555 1_555
H28_16 N14_16 1_555 1_555
O27_16 C62_16 1_555 1_555
O57_11 C63_16 1_555 1_555
O29_16 C63_16 1_555 1_555
C64_16 N15_16 1_555 1_555
C65_16 C66_16 1_555 1_555
C66_16 H29_16 1_555 1_555
C67_16 C66_16 1_555 1_555
C68_16 C67_16 1_555 1_555
H30_16 C68_16 1_555 1_555
C69_16 C68_16 1_555 1_555
C70_16 C65_16 1_555 1_555
H31_16 C70_16 1_555 1_555
C71_16 C67_16 1_555 1_555
C72_16 C69_16 1_555 1_555
N15_16 C73_16 1_555 1_555
N16_16 C64_16 1_555 1_555
H32_16 N16_16 1_555 1_555
O53_7 C71_16 1_555 1_555
O54_7 C71_16 1_555 1_555
O33_16 C72_16 1_555 1_555
O34_16 C72_16 1_555 1_555
C73_16 N17_16 1_555 1_555
C74_16 C75_16 1_555 1_555
C75_16 H33_16 1_555 1_555
C76_16 C75_16 1_555 1_555
C77_16 C76_16 1_555 1_555
H34_16 C77_16 1_555 1_555
C78_16 C77_16 1_555 1_555
C79_16 C74_16 1_555 1_555
H35_16 C79_16 1_555 1_555
C80_16 C76_16 1_555 1_555
C81_16 C78_16 1_555 1_555
N17_16 C55_16 1_555 1_555
N18_16 C73_16 1_555 1_555
H36_16 N18_16 1_555 1_555
O35_16 C80_16 1_555 1_555
O55_7 C80_16 1_555 1_555
O37_16 C81_16 1_555 1_555
O38_16 C81_16 1_555 1_555
Zn6_16 O27_16 1_555 1_555
Zn18_3 O35_16 1_555 1_555
Zn16_2 O33_16 1_555 1_555
O52_20 Zn6_16 1_555 1_555
O56_20 Zn20_4 1_555 1_555
O73_20 Zn6_16 1_555 1_555
C18_16 O71_7 1_555 1_555
C56_16 N14_16 1_555 1_555
C60_16 C61_16 1_555 1_555
C62_16 O51_7 1_555 1_555
O75_7 Zn6_16 1_555 1_555
C65_16 N16_16 1_555 1_555
C69_16 C70_16 1_555 1_555
C74_16 N18_16 1_555 1_555
C78_16 C79_16 1_555 1_555
O37_16 Zn13_4 1_555 1_555
H22_16 C50_16 1_555 1_555
C51_16 C50_16 1_555 1_555
C54_16 C51_16 1_555 1_555
O74_8 C54_16 1_555 1_555
O25_16 C54_16 1_555 1_555
O23_16 Zn12_3 1_555 1_555
C10_16 N3_16 1_555 1_555
C11_16 C12_16 1_555 1_555
C12_16 H4_16 1_555 1_555
C13_16 C12_16 1_555 1_555
C16_16 C11_16 1_555 1_555
H6_16 C16_16 1_555 1_555
C17_16 C13_16 1_555 1_555
N3_16 C37_16 1_555 1_555
N4_16 C10_16 1_555 1_555
H8_16 N4_16 1_555 1_555
O62_2 C17_16 1_555 1_555
C37_16 N9_16 1_555 1_555
C38_16 C39_16 1_555 1_555
C39_16 H17_16 1_555 1_555
C40_16 C39_16 1_555 1_555
C41_16 C40_16 1_555 1_555
H18_16 C41_16 1_555 1_555
C42_16 C41_16 1_555 1_555
C43_16 C38_16 1_555 1_555
H19_16 C43_16 1_555 1_555
C44_16 C40_16 1_555 1_555
C45_16 C42_16 1_555 1_555
N9_16 C46_16 1_555 1_555
N10_16 C37_16 1_555 1_555
H20_16 N10_16 1_555 1_555
O18_16 C44_16 1_555 1_555
O19_16 C44_16 1_555 1_555
O20_16 C45_16 1_555 1_555
O21_16 C45_16 1_555 1_555
C46_16 N11_16 1_555 1_555
C47_16 C48_16 1_555 1_555
C48_16 H21_16 1_555 1_555
C49_16 C48_16 1_555 1_555
C52_16 C47_16 1_555 1_555
H23_16 C52_16 1_555 1_555
C53_16 C49_16 1_555 1_555
N11_16 C10_16 1_555 1_555
N12_16 C46_16 1_555 1_555
H24_16 N12_16 1_555 1_555
O22_16 C53_16 1_555 1_555
Zn12_4 O22_16 1_555 1_555
Zn11_7 O18_16 1_555 1_555
Zn22_5 O20_16 1_555 1_555
C11_16 N4_16 1_555 1_555
C38_16 N10_16 1_555 1_555
C42_16 C43_16 1_555 1_555
O19_16 Zn11_7 1_555 1_555
C47_16 N12_16 1_555 1_555
O52_21 Zn25_5 1_555 1_555
O56_21 Zn22_5 1_555 1_555
O73_21 Zn25_5 1_555 1_555
O52_22 Zn25_7 1_555 1_555
O56_22 Zn22_7 1_555 1_555
O73_22 Zn25_7 1_555 1_555
O52_23 Zn25_8 1_555 1_555
O56_23 Zn22_8 1_555 1_555
O73_23 Zn25_8 1_555 1_555
O52_24 Zn25_6 1_555 1_555
O56_24 Zn22_6 1_555 1_555
O73_24 Zn25_6 1_555 1_555
C21_9 H9_9 1_555 1_555
C22_9 C21_9 1_555 1_555
C23_9 C22_9 1_555 1_555
H10_9 C23_9 1_555 1_555
C26_9 C22_9 1_555 1_555
O52_12 C26_9 1_555 1_555
O56_2 C26_9 1_555 1_555
C1_9 N1_9 1_555 1_555
C2_9 C3_9 1_555 1_555
C3_9 H1_9 1_555 1_555
C4_9 C3_9 1_555 1_555
C5_9 C4_9 1_555 1_555
H2_9 C5_9 1_555 1_555
C6_9 C5_9 1_555 1_555
C7_9 C2_9 1_555 1_555
H3_9 C7_9 1_555 1_555
C8_9 C4_9 1_555 1_555
C9_9 C6_9 1_555 1_555
C10_17 N3_17 1_555 1_555
C11_17 C12_17 1_555 1_555
C12_17 H4_17 1_555 1_555
C13_17 C12_17 1_555 1_555
C14_17 C13_17 1_555 1_555
H5_17 C14_17 1_555 1_555
C15_17 C14_17 1_555 1_555
C16_17 C11_17 1_555 1_555
H6_17 C16_17 1_555 1_555
C17_17 C13_17 1_555 1_555
C18_17 C15_17 1_555 1_555
N1_9 C19_9 1_555 1_555
N2_9 C1_9 1_555 1_555
H7_9 N2_9 1_555 1_555
N3_17 C37_17 1_555 1_555
N4_17 C10_17 1_555 1_555
H8_17 N4_17 1_555 1_555
O52_2 C8_9 1_555 1_555
O56_7 C8_9 1_555 1_555
O58_2 C9_9 1_555 1_555
O4_9 C9_9 1_555 1_555
O63_3 C17_17 1_555 1_555
O68_3 C17_17 1_555 1_555
O8_17 C18_17 1_555 1_555
C19_9 N5_9 1_555 1_555
C25_9 C20_9 1_555 1_555
H11_9 C25_9 1_555 1_555
C27_9 C24_9 1_555 1_555
N5_9 C28_9 1_555 1_555
N6_9 C19_9 1_555 1_555
H12_9 N6_9 1_555 1_555
O13_9 C27_9 1_555 1_555
C28_9 N7_9 1_555 1_555
C29_9 C30_9 1_555 1_555
C30_9 H13_9 1_555 1_555
C31_9 C30_9 1_555 1_555
C32_9 C31_9 1_555 1_555
H14_9 C32_9 1_555 1_555
C33_9 C32_9 1_555 1_555
C34_9 C29_9 1_555 1_555
H15_9 C34_9 1_555 1_555
C35_9 C31_9 1_555 1_555
C36_9 C33_9 1_555 1_555
N7_9 C1_9 1_555 1_555
N8_9 C28_9 1_555 1_555
H16_9 N8_9 1_555 1_555
O52_7 C35_9 1_555 1_555
O56_12 C35_9 1_555 1_555
O60_2 C36_9 1_555 1_555
O17_9 C36_9 1_555 1_555
C37_17 N9_17 1_555 1_555
C38_17 C39_17 1_555 1_555
C39_17 H17_17 1_555 1_555
C40_17 C39_17 1_555 1_555
C41_17 C40_17 1_555 1_555
H18_17 C41_17 1_555 1_555
C42_17 C41_17 1_555 1_555
C43_17 C38_17 1_555 1_555
H19_17 C43_17 1_555 1_555
C44_17 C40_17 1_555 1_555
C45_17 C42_17 1_555 1_555
N9_17 C46_17 1_555 1_555
N10_17 C37_17 1_555 1_555
H20_17 N10_17 1_555 1_555
O63_11 C44_17 1_555 1_555
O68_11 C44_17 1_555 1_555
O73_10 C45_17 1_555 1_555
O21_17 C45_17 1_555 1_555
C46_17 N11_17 1_555 1_555
C47_17 C48_17 1_555 1_555
C48_17 H21_17 1_555 1_555
C49_17 C48_17 1_555 1_555
C50_17 C49_17 1_555 1_555
H22_17 C50_17 1_555 1_555
C51_17 C50_17 1_555 1_555
C52_17 C47_17 1_555 1_555
H23_17 C52_17 1_555 1_555
C53_17 C49_17 1_555 1_555
C54_17 C51_17 1_555 1_555
N11_17 C10_17 1_555 1_555
N12_17 C46_17 1_555 1_555
H24_17 N12_17 1_555 1_555
O63_7 C53_17 1_555 1_555
O68_7 C53_17 1_555 1_555
O73_6 C54_17 1_555 1_555
O25_17 C54_17 1_555 1_555
C2_9 N2_9 1_555 1_555
C6_9 C7_9 1_555 1_555
C11_17 N4_17 1_555 1_555
C15_17 C16_17 1_555 1_555
C18_17 O73_2 1_555 1_555
C20_9 N6_9 1_555 1_555
C24_9 C25_9 1_555 1_555
C29_9 N8_9 1_555 1_555
C33_9 C34_9 1_555 1_555
C38_17 N10_17 1_555 1_555
C42_17 C43_17 1_555 1_555
C47_17 N12_17 1_555 1_555
C51_17 C52_17 1_555 1_555
C1_10 N1_10 1_555 1_555
C7_10 C2_10 1_555 1_555
H3_10 C7_10 1_555 1_555
C9_10 C6_10 1_555 1_555
N1_10 C19_10 1_555 1_555
N2_10 C1_10 1_555 1_555
H7_10 N2_10 1_555 1_555
O4_10 C9_10 1_555 1_555
C19_10 N5_10 1_555 1_555
C25_10 C20_10 1_555 1_555
H11_10 C25_10 1_555 1_555
C27_10 C24_10 1_555 1_555
N5_10 C28_10 1_555 1_555
N6_10 C19_10 1_555 1_555
H12_10 N6_10 1_555 1_555
O13_10 C27_10 1_555 1_555
C28_10 N7_10 1_555 1_555
C34_10 C29_10 1_555 1_555
H15_10 C34_10 1_555 1_555
C36_10 C33_10 1_555 1_555
N7_10 C1_10 1_555 1_555
N8_10 C28_10 1_555 1_555
H16_10 N8_10 1_555 1_555
O17_10 C36_10 1_555 1_555
C2_10 N2_10 1_555 1_555
C6_10 C7_10 1_555 1_555
C20_10 N6_10 1_555 1_555
C24_10 C25_10 1_555 1_555
C29_10 N8_10 1_555 1_555
C33_10 C34_10 1_555 1_555
C30_10 H13_10 1_555 1_555
C31_10 C30_10 1_555 1_555
C32_10 C31_10 1_555 1_555
H14_10 C32_10 1_555 1_555
C35_10 C31_10 1_555 1_555
O52_5 C35_10 1_555 1_555
O56_9 C35_10 1_555 1_555
C3_10 H1_10 1_555 1_555
C4_10 C3_10 1_555 1_555
C5_10 C4_10 1_555 1_555
H2_10 C5_10 1_555 1_555
C8_10 C4_10 1_555 1_555
C10_18 N3_18 1_555 1_555
C11_18 C12_18 1_555 1_555
C12_18 H4_18 1_555 1_555
C13_18 C12_18 1_555 1_555
C14_18 C13_18 1_555 1_555
H5_18 C14_18 1_555 1_555
C15_18 C14_18 1_555 1_555
C16_18 C11_18 1_555 1_555
H6_18 C16_18 1_555 1_555
C17_18 C13_18 1_555 1_555
C18_18 C15_18 1_555 1_555
N3_18 C37_18 1_555 1_555
N4_18 C10_18 1_555 1_555
H8_18 N4_18 1_555 1_555
O52 C8_10 1_555 1_555
O56_5 C8_10 1_555 1_555
O63_4 C17_18 1_555 1_555
O68_4 C17_18 1_555 1_555
O8_18 C18_18 1_555 1_555
C37_18 N9_18 1_555 1_555
C38_18 C39_18 1_555 1_555
C39_18 H17_18 1_555 1_555
C40_18 C39_18 1_555 1_555
C41_18 C40_18 1_555 1_555
H18_18 C41_18 1_555 1_555
C42_18 C41_18 1_555 1_555
C43_18 C38_18 1_555 1_555
H19_18 C43_18 1_555 1_555
C44_18 C40_18 1_555 1_555
C45_18 C42_18 1_555 1_555
N9_18 C46_18 1_555 1_555
N10_18 C37_18 1_555 1_555
H20_18 N10_18 1_555 1_555
O63_10 C44_18 1_555 1_555
O68_10 C44_18 1_555 1_555
O73_11 C45_18 1_555 1_555
O21_18 C45_18 1_555 1_555
C46_18 N11_18 1_555 1_555
C47_18 C48_18 1_555 1_555
C48_18 H21_18 1_555 1_555
C49_18 C48_18 1_555 1_555
C50_18 C49_18 1_555 1_555
H22_18 C50_18 1_555 1_555
C51_18 C50_18 1_555 1_555
C52_18 C47_18 1_555 1_555
H23_18 C52_18 1_555 1_555
C53_18 C49_18 1_555 1_555
C54_18 C51_18 1_555 1_555
N11_18 C10_18 1_555 1_555
N12_18 C46_18 1_555 1_555
H24_18 N12_18 1_555 1_555
O63_5 C53_18 1_555 1_555
O68_5 C53_18 1_555 1_555
O73_8 C54_18 1_555 1_555
O25_18 C54_18 1_555 1_555
C11_18 N4_18 1_555 1_555
C15_18 C16_18 1_555 1_555
C18_18 O73 1_555 1_555
C38_18 N10_18 1_555 1_555
C42_18 C43_18 1_555 1_555
C47_18 N12_18 1_555 1_555
C51_18 C52_18 1_555 1_555
C21_10 H9_10 1_555 1_555
C22_10 C21_10 1_555 1_555
C23_10 C22_10 1_555 1_555
H10_10 C23_10 1_555 1_555
C26_10 C22_10 1_555 1_555
O52_9 C26_10 1_555 1_555
O56 C26_10 1_555 1_555
C3_11 H1_11 1_555 1_555
C4_11 C3_11 1_555 1_555
C5_11 C4_11 1_555 1_555
H2_11 C5_11 1_555 1_555
C8_11 C4_11 1_555 1_555
C10_19 N3_19 1_555 1_555
C11_19 C12_19 1_555 1_555
C12_19 H4_19 1_555 1_555
C13_19 C12_19 1_555 1_555
C14_19 C13_19 1_555 1_555
H5_19 C14_19 1_555 1_555
C15_19 C14_19 1_555 1_555
C16_19 C11_19 1_555 1_555
H6_19 C16_19 1_555 1_555
C17_19 C13_19 1_555 1_555
C18_19 C15_19 1_555 1_555
N3_19 C37_19 1_555 1_555
N4_19 C10_19 1_555 1_555
H8_19 N4_19 1_555 1_555
O52_4 C8_11 1_555 1_555
O56_6 C8_11 1_555 1_555
O63 C17_19 1_555 1_555
O68 C17_19 1_555 1_555
O8_19 C18_19 1_555 1_555
C37_19 N9_19 1_555 1_555
C38_19 C39_19 1_555 1_555
C39_19 H17_19 1_555 1_555
C40_19 C39_19 1_555 1_555
C41_19 C40_19 1_555 1_555
H18_19 C41_19 1_555 1_555
C42_19 C41_19 1_555 1_555
C43_19 C38_19 1_555 1_555
H19_19 C43_19 1_555 1_555
C44_19 C40_19 1_555 1_555
C45_19 C42_19 1_555 1_555
N9_19 C46_19 1_555 1_555
N10_19 C37_19 1_555 1_555
H20_19 N10_19 1_555 1_555
O63_12 C44_19 1_555 1_555
O68_12 C44_19 1_555 1_555
O73_9 C45_19 1_555 1_555
O21_19 C45_19 1_555 1_555
C46_19 N11_19 1_555 1_555
C47_19 C48_19 1_555 1_555
C48_19 H21_19 1_555 1_555
C49_19 C48_19 1_555 1_555
C50_19 C49_19 1_555 1_555
H22_19 C50_19 1_555 1_555
C51_19 C50_19 1_555 1_555
C52_19 C47_19 1_555 1_555
H23_19 C52_19 1_555 1_555
C53_19 C49_19 1_555 1_555
C54_19 C51_19 1_555 1_555
N11_19 C10_19 1_555 1_555
N12_19 C46_19 1_555 1_555
H24_19 N12_19 1_555 1_555
O63_6 C53_19 1_555 1_555
O68_6 C53_19 1_555 1_555
O73_7 C54_19 1_555 1_555
O25_19 C54_19 1_555 1_555
C11_19 N4_19 1_555 1_555
C15_19 C16_19 1_555 1_555
C18_19 O73_4 1_555 1_555
C38_19 N10_19 1_555 1_555
C42_19 C43_19 1_555 1_555
C47_19 N12_19 1_555 1_555
C51_19 C52_19 1_555 1_555
C1_11 N1_11 1_555 1_555
C7_11 C2_11 1_555 1_555
H3_11 C7_11 1_555 1_555
C9_11 C6_11 1_555 1_555
N1_11 C19_11 1_555 1_555
N2_11 C1_11 1_555 1_555
H7_11 N2_11 1_555 1_555
O4_11 C9_11 1_555 1_555
C19_11 N5_11 1_555 1_555
C20_11 C21_11 1_555 1_555
C21_11 H9_11 1_555 1_555
C22_11 C21_11 1_555 1_555
C23_11 C22_11 1_555 1_555
H10_11 C23_11 1_555 1_555
C24_11 C23_11 1_555 1_555
C25_11 C20_11 1_555 1_555
H11_11 C25_11 1_555 1_555
C26_11 C22_11 1_555 1_555
C27_11 C24_11 1_555 1_555
N5_11 C28_11 1_555 1_555
N6_11 C19_11 1_555 1_555
H12_11 N6_11 1_555 1_555
O52_11 C26_11 1_555 1_555
O56_4 C26_11 1_555 1_555
O60_6 C27_11 1_555 1_555
O13_11 C27_11 1_555 1_555
C28_11 N7_11 1_555 1_555
C29_11 C30_11 1_555 1_555
C30_11 H13_11 1_555 1_555
C31_11 C30_11 1_555 1_555
C32_11 C31_11 1_555 1_555
H14_11 C32_11 1_555 1_555
C33_11 C32_11 1_555 1_555
C34_11 C29_11 1_555 1_555
H15_11 C34_11 1_555 1_555
C35_11 C31_11 1_555 1_555
C36_11 C33_11 1_555 1_555
N7_11 C1_11 1_555 1_555
N8_11 C28_11 1_555 1_555
H16_11 N8_11 1_555 1_555
O52_6 C35_11 1_555 1_555
O56_11 C35_11 1_555 1_555
O60_4 C36_11 1_555 1_555
O17_11 C36_11 1_555 1_555
C2_11 N2_11 1_555 1_555
C6_11 C7_11 1_555 1_555
C20_11 N6_11 1_555 1_555
C24_11 C25_11 1_555 1_555
C29_11 N8_11 1_555 1_555
C33_11 C34_11 1_555 1_555
C30_12 H13_12 1_555 1_555
C31_12 C30_12 1_555 1_555
C32_12 C31_12 1_555 1_555
H14_12 C32_12 1_555 1_555
C35_12 C31_12 1_555 1_555
O52_8 C35_12 1_555 1_555
O56_10 C35_12 1_555 1_555
C1_12 N1_12 1_555 1_555
C2_12 C3_12 1_555 1_555
C3_12 H1_12 1_555 1_555
C4_12 C3_12 1_555 1_555
C5_12 C4_12 1_555 1_555
H2_12 C5_12 1_555 1_555
C6_12 C5_12 1_555 1_555
C7_12 C2_12 1_555 1_555
H3_12 C7_12 1_555 1_555
C8_12 C4_12 1_555 1_555
C9_12 C6_12 1_555 1_555
C10_20 N3_20 1_555 1_555
C11_20 C12_20 1_555 1_555
C12_20 H4_20 1_555 1_555
C13_20 C12_20 1_555 1_555
C14_20 C13_20 1_555 1_555
H5_20 C14_20 1_555 1_555
C15_20 C14_20 1_555 1_555
C16_20 C11_20 1_555 1_555
H6_20 C16_20 1_555 1_555
C17_20 C13_20 1_555 1_555
C18_20 C15_20 1_555 1_555
N1_12 C19_12 1_555 1_555
N2_12 C1_12 1_555 1_555
H7_12 N2_12 1_555 1_555
N3_20 C37_20 1_555 1_555
N4_20 C10_20 1_555 1_555
H8_20 N4_20 1_555 1_555
O52_3 C8_12 1_555 1_555
O56_8 C8_12 1_555 1_555
O58_3 C9_12 1_555 1_555
O4_12 C9_12 1_555 1_555
O63_2 C17_20 1_555 1_555
O68_2 C17_20 1_555 1_555
O8_20 C18_20 1_555 1_555
C19_12 N5_12 1_555 1_555
C20_12 C21_12 1_555 1_555
C21_12 H9_12 1_555 1_555
C22_12 C21_12 1_555 1_555
C23_12 C22_12 1_555 1_555
H10_12 C23_12 1_555 1_555
C24_12 C23_12 1_555 1_555
C25_12 C20_12 1_555 1_555
H11_12 C25_12 1_555 1_555
C26_12 C22_12 1_555 1_555
C27_12 C24_12 1_555 1_555
N5_12 C28_12 1_555 1_555
N6_12 C19_12 1_555 1_555
H12_12 N6_12 1_555 1_555
O52_10 C26_12 1_555 1_555
O56_3 C26_12 1_555 1_555
O60_8 C27_12 1_555 1_555
O13_12 C27_12 1_555 1_555
C28_12 N7_12 1_555 1_555
C34_12 C29_12 1_555 1_555
H15_12 C34_12 1_555 1_555
C36_12 C33_12 1_555 1_555
N7_12 C1_12 1_555 1_555
N8_12 C28_12 1_555 1_555
H16_12 N8_12 1_555 1_555
O17_12 C36_12 1_555 1_555
C37_20 N9_20 1_555 1_555
C38_20 C39_20 1_555 1_555
C39_20 H17_20 1_555 1_555
C40_20 C39_20 1_555 1_555
C41_20 C40_20 1_555 1_555
H18_20 C41_20 1_555 1_555
C42_20 C41_20 1_555 1_555
C43_20 C38_20 1_555 1_555
H19_20 C43_20 1_555 1_555
C44_20 C40_20 1_555 1_555
C45_20 C42_20 1_555 1_555
N9_20 C46_20 1_555 1_555
N10_20 C37_20 1_555 1_555
H20_20 N10_20 1_555 1_555
O63_9 C44_20 1_555 1_555
O68_9 C44_20 1_555 1_555
O73_12 C45_20 1_555 1_555
O21_20 C45_20 1_555 1_555
C46_20 N11_20 1_555 1_555
C47_20 C48_20 1_555 1_555
C48_20 H21_20 1_555 1_555
C49_20 C48_20 1_555 1_555
C50_20 C49_20 1_555 1_555
H22_20 C50_20 1_555 1_555
C51_20 C50_20 1_555 1_555
C52_20 C47_20 1_555 1_555
H23_20 C52_20 1_555 1_555
C53_20 C49_20 1_555 1_555
C54_20 C51_20 1_555 1_555
N11_20 C10_20 1_555 1_555
N12_20 C46_20 1_555 1_555
H24_20 N12_20 1_555 1_555
O63_8 C53_20 1_555 1_555
O68_8 C53_20 1_555 1_555
O73_5 C54_20 1_555 1_555
O25_20 C54_20 1_555 1_555
C2_12 N2_12 1_555 1_555
C6_12 C7_12 1_555 1_555
C11_20 N4_20 1_555 1_555
C15_20 C16_20 1_555 1_555
C18_20 O73_3 1_555 1_555
C20_12 N6_12 1_555 1_555
C24_12 C25_12 1_555 1_555
C29_12 N8_12 1_555 1_555
C33_12 C34_12 1_555 1_555
C38_20 N10_20 1_555 1_555
C42_20 C43_20 1_555 1_555
C47_20 N12_20 1_555 1_555
C51_20 C52_20 1_555 1_555
C55_17 N13_17 1_555 1_555
C56_17 C57_17 1_555 1_555
C57_17 H25_17 1_555 1_555
C58_17 C57_17 1_555 1_555
C59_17 C58_17 1_555 1_555
H26_17 C59_17 1_555 1_555
C60_17 C59_17 1_555 1_555
C61_17 C56_17 1_555 1_555
H27_17 C61_17 1_555 1_555
C62_17 C58_17 1_555 1_555
C63_17 C60_17 1_555 1_555
N13_17 C64_17 1_555 1_555
N14_17 C55_17 1_555 1_555
H28_17 N14_17 1_555 1_555
O56_23 C62_17 1_555 1_555
O59 C63_17 1_555 1_555
O29_17 C63_17 1_555 1_555
C64_17 N15_17 1_555 1_555
C65_17 C66_17 1_555 1_555
C66_17 H29_17 1_555 1_555
C67_17 C66_17 1_555 1_555
C68_17 C67_17 1_555 1_555
H30_17 C68_17 1_555 1_555
C69_17 C68_17 1_555 1_555
C70_17 C65_17 1_555 1_555
H31_17 C70_17 1_555 1_555
C71_17 C67_17 1_555 1_555
C72_17 C69_17 1_555 1_555
N15_17 C73_17 1_555 1_555
N16_17 C64_17 1_555 1_555
H32_17 N16_17 1_555 1_555
O52_16 C71_17 1_555 1_555
O56_18 C71_17 1_555 1_555
O59_7 C72_17 1_555 1_555
O34_17 C72_17 1_555 1_555
C73_17 N17_17 1_555 1_555
C74_17 C75_17 1_555 1_555
C75_17 H33_17 1_555 1_555
C76_17 C75_17 1_555 1_555
C77_17 C76_17 1_555 1_555
H34_17 C77_17 1_555 1_555
C78_17 C77_17 1_555 1_555
C79_17 C74_17 1_555 1_555
H35_17 C79_17 1_555 1_555
C80_17 C76_17 1_555 1_555
C81_17 C78_17 1_555 1_555
N17_17 C55_17 1_555 1_555
N18_17 C73_17 1_555 1_555
H36_17 N18_17 1_555 1_555
O52_23 C80_17 1_555 1_555
O56_16 C80_17 1_555 1_555
O59_10 C81_17 1_555 1_555
O38_17 C81_17 1_555 1_555
C56_17 N14_17 1_555 1_555
C60_17 C61_17 1_555 1_555
C62_17 O52_18 1_555 1_555
C65_17 N16_17 1_555 1_555
C69_17 C70_17 1_555 1_555
C74_17 N18_17 1_555 1_555
C78_17 C79_17 1_555 1_555
C55_18 N13_18 1_555 1_555
C56_18 C57_18 1_555 1_555
C57_18 H25_18 1_555 1_555
C58_18 C57_18 1_555 1_555
C59_18 C58_18 1_555 1_555
H26_18 C59_18 1_555 1_555
C60_18 C59_18 1_555 1_555
C61_18 C56_18 1_555 1_555
H27_18 C61_18 1_555 1_555
C62_18 C58_18 1_555 1_555
C63_18 C60_18 1_555 1_555
N13_18 C64_18 1_555 1_555
N14_18 C55_18 1_555 1_555
H28_18 N14_18 1_555 1_555
O56_22 C62_18 1_555 1_555
O59_2 C63_18 1_555 1_555
O29_18 C63_18 1_555 1_555
C64_18 N15_18 1_555 1_555
C65_18 C66_18 1_555 1_555
C66_18 H29_18 1_555 1_555
C67_18 C66_18 1_555 1_555
C68_18 C67_18 1_555 1_555
H30_18 C68_18 1_555 1_555
C69_18 C68_18 1_555 1_555
C70_18 C65_18 1_555 1_555
H31_18 C70_18 1_555 1_555
C71_18 C67_18 1_555 1_555
C72_18 C69_18 1_555 1_555
N15_18 C73_18 1_555 1_555
N16_18 C64_18 1_555 1_555
H32_18 N16_18 1_555 1_555
O52_15 C71_18 1_555 1_555
O56_20 C71_18 1_555 1_555
O59_5 C72_18 1_555 1_555
O34_18 C72_18 1_555 1_555
C73_18 N17_18 1_555 1_555
C74_18 C75_18 1_555 1_555
C75_18 H33_18 1_555 1_555
C76_18 C75_18 1_555 1_555
C77_18 C76_18 1_555 1_555
H34_18 C77_18 1_555 1_555
C78_18 C77_18 1_555 1_555
C79_18 C74_18 1_555 1_555
H35_18 C79_18 1_555 1_555
C80_18 C76_18 1_555 1_555
C81_18 C78_18 1_555 1_555
N17_18 C55_18 1_555 1_555
N18_18 C73_18 1_555 1_555
H36_18 N18_18 1_555 1_555
O52_22 C80_18 1_555 1_555
O56_15 C80_18 1_555 1_555
O59_11 C81_18 1_555 1_555
O38_18 C81_18 1_555 1_555
C56_18 N14_18 1_555 1_555
C60_18 C61_18 1_555 1_555
C62_18 O52_20 1_555 1_555
C65_18 N16_18 1_555 1_555
C69_18 C70_18 1_555 1_555
C74_18 N18_18 1_555 1_555
C78_18 C79_18 1_555 1_555
C55_19 N13_19 1_555 1_555
C56_19 C57_19 1_555 1_555
C57_19 H25_19 1_555 1_555
C58_19 C57_19 1_555 1_555
C59_19 C58_19 1_555 1_555
H26_19 C59_19 1_555 1_555
C60_19 C59_19 1_555 1_555
C61_19 C56_19 1_555 1_555
H27_19 C61_19 1_555 1_555
C62_19 C58_19 1_555 1_555
C63_19 C60_19 1_555 1_555
N13_19 C64_19 1_555 1_555
N14_19 C55_19 1_555 1_555
H28_19 N14_19 1_555 1_555
O56_24 C62_19 1_555 1_555
O59_4 C63_19 1_555 1_555
O29_19 C63_19 1_555 1_555
C64_19 N15_19 1_555 1_555
C65_19 C66_19 1_555 1_555
C66_19 H29_19 1_555 1_555
C67_19 C66_19 1_555 1_555
C68_19 C67_19 1_555 1_555
H30_19 C68_19 1_555 1_555
C69_19 C68_19 1_555 1_555
C70_19 C65_19 1_555 1_555
H31_19 C70_19 1_555 1_555
C71_19 C67_19 1_555 1_555
C72_19 C69_19 1_555 1_555
N15_19 C73_19 1_555 1_555
N16_19 C64_19 1_555 1_555
H32_19 N16_19 1_555 1_555
O52_14 C71_19 1_555 1_555
O56_19 C71_19 1_555 1_555
O59_8 C72_19 1_555 1_555
O34_19 C72_19 1_555 1_555
C73_19 N17_19 1_555 1_555
C74_19 C75_19 1_555 1_555
C75_19 H33_19 1_555 1_555
C76_19 C75_19 1_555 1_555
C77_19 C76_19 1_555 1_555
H34_19 C77_19 1_555 1_555
C78_19 C77_19 1_555 1_555
C79_19 C74_19 1_555 1_555
H35_19 C79_19 1_555 1_555
C80_19 C76_19 1_555 1_555
C81_19 C78_19 1_555 1_555
N17_19 C55_19 1_555 1_555
N18_19 C73_19 1_555 1_555
H36_19 N18_19 1_555 1_555
O52_24 C80_19 1_555 1_555
O56_14 C80_19 1_555 1_555
O59_12 C81_19 1_555 1_555
O38_19 C81_19 1_555 1_555
C56_19 N14_19 1_555 1_555
C60_19 C61_19 1_555 1_555
C62_19 O52_19 1_555 1_555
C65_19 N16_19 1_555 1_555
C69_19 C70_19 1_555 1_555
C74_19 N18_19 1_555 1_555
C78_19 C79_19 1_555 1_555
C55_20 N13_20 1_555 1_555
C56_20 C57_20 1_555 1_555
C57_20 H25_20 1_555 1_555
C58_20 C57_20 1_555 1_555
C59_20 C58_20 1_555 1_555
H26_20 C59_20 1_555 1_555
C60_20 C59_20 1_555 1_555
C61_20 C56_20 1_555 1_555
H27_20 C61_20 1_555 1_555
C62_20 C58_20 1_555 1_555
C63_20 C60_20 1_555 1_555
N13_20 C64_20 1_555 1_555
N14_20 C55_20 1_555 1_555
H28_20 N14_20 1_555 1_555
O56_21 C62_20 1_555 1_555
O59_3 C63_20 1_555 1_555
O29_20 C63_20 1_555 1_555
C64_20 N15_20 1_555 1_555
C65_20 C66_20 1_555 1_555
C66_20 H29_20 1_555 1_555
C67_20 C66_20 1_555 1_555
C68_20 C67_20 1_555 1_555
H30_20 C68_20 1_555 1_555
C69_20 C68_20 1_555 1_555
C70_20 C65_20 1_555 1_555
H31_20 C70_20 1_555 1_555
C71_20 C67_20 1_555 1_555
C72_20 C69_20 1_555 1_555
N15_20 C73_20 1_555 1_555
N16_20 C64_20 1_555 1_555
H32_20 N16_20 1_555 1_555
O52_13 C71_20 1_555 1_555
O56_17 C71_20 1_555 1_555
O59_6 C72_20 1_555 1_555
O34_20 C72_20 1_555 1_555
C73_20 N17_20 1_555 1_555
C74_20 C75_20 1_555 1_555
C75_20 H33_20 1_555 1_555
C76_20 C75_20 1_555 1_555
C77_20 C76_20 1_555 1_555
H34_20 C77_20 1_555 1_555
C78_20 C77_20 1_555 1_555
C79_20 C74_20 1_555 1_555
H35_20 C79_20 1_555 1_555
C80_20 C76_20 1_555 1_555
C81_20 C78_20 1_555 1_555
N17_20 C55_20 1_555 1_555
N18_20 C73_20 1_555 1_555
H36_20 N18_20 1_555 1_555
O52_21 C80_20 1_555 1_555
O56_13 C80_20 1_555 1_555
O59_9 C81_20 1_555 1_555
O38_20 C81_20 1_555 1_555
C56_20 N14_20 1_555 1_555
C60_20 C61_20 1_555 1_555
C62_20 O52_17 1_555 1_555
C65_20 N16_20 1_555 1_555
C69_20 C70_20 1_555 1_555
C74_20 N18_20 1_555 1_555
C78_20 C79_20 1_555 1_555
H18_21 C41_21 1_555 1_555
C42_21 C41_21 1_555 1_555
C45_21 C42_21 1_555 1_555
O73_14 C45_21 1_555 1_555
O21_21 C45_21 1_555 1_555
C10_21 N3_21 1_555 1_555
C11_21 C12_21 1_555 1_555
C12_21 H4_21 1_555 1_555
C13_21 C12_21 1_555 1_555
C14_21 C13_21 1_555 1_555
H5_21 C14_21 1_555 1_555
C15_21 C14_21 1_555 1_555
C16_21 C11_21 1_555 1_555
H6_21 C16_21 1_555 1_555
C17_21 C13_21 1_555 1_555
C18_21 C15_21 1_555 1_555
N3_21 C37_21 1_555 1_555
N4_21 C10_21 1_555 1_555
H8_21 N4_21 1_555 1_555
O64_4 C17_21 1_555 1_555
O69_4 C17_21 1_555 1_555
O8_21 C18_21 1_555 1_555
C37_21 N9_21 1_555 1_555
C38_21 C39_21 1_555 1_555
C39_21 H17_21 1_555 1_555
C40_21 C39_21 1_555 1_555
C43_21 C38_21 1_555 1_555
H19_21 C43_21 1_555 1_555
C44_21 C40_21 1_555 1_555
N9_21 C46_21 1_555 1_555
N10_21 C37_21 1_555 1_555
H20_21 N10_21 1_555 1_555
O65 C44_21 1_555 1_555
C46_21 N11_21 1_555 1_555
C47_21 C48_21 1_555 1_555
C48_21 H21_21 1_555 1_555
C49_21 C48_21 1_555 1_555
C52_21 C47_21 1_555 1_555
H23_21 C52_21 1_555 1_555
C53_21 C49_21 1_555 1_555
N11_21 C10_21 1_555 1_555
N12_21 C46_21 1_555 1_555
H24_21 N12_21 1_555 1_555
O65_8 C53_21 1_555 1_555
C11_21 N4_21 1_555 1_555
C15_21 C16_21 1_555 1_555
C18_21 O73_18 1_555 1_555
C38_21 N10_21 1_555 1_555
C47_21 N12_21 1_555 1_555
H22_21 C50_21 1_555 1_555
C51_21 C50_21 1_555 1_555
C54_21 C51_21 1_555 1_555
O73_22 C54_21 1_555 1_555
O25_21 C54_21 1_555 1_555
H22_22 C50_22 1_555 1_555
C51_22 C50_22 1_555 1_555
C54_22 C51_22 1_555 1_555
O73_24 C54_22 1_555 1_555
O25_22 C54_22 1_555 1_555
C10_22 N3_22 1_555 1_555
C11_22 C12_22 1_555 1_555
C12_22 H4_22 1_555 1_555
C13_22 C12_22 1_555 1_555
C16_22 C11_22 1_555 1_555
H6_22 C16_22 1_555 1_555
C17_22 C13_22 1_555 1_555
N3_22 C37_22 1_555 1_555
N4_22 C10_22 1_555 1_555
H8_22 N4_22 1_555 1_555
O64_2 C17_22 1_555 1_555
C37_22 N9_22 1_555 1_555
C38_22 C39_22 1_555 1_555
C39_22 H17_22 1_555 1_555
C40_22 C39_22 1_555 1_555
C41_22 C40_22 1_555 1_555
H18_22 C41_22 1_555 1_555
C42_22 C41_22 1_555 1_555
C43_22 C38_22 1_555 1_555
H19_22 C43_22 1_555 1_555
C44_22 C40_22 1_555 1_555
C45_22 C42_22 1_555 1_555
N9_22 C46_22 1_555 1_555
N10_22 C37_22 1_555 1_555
H20_22 N10_22 1_555 1_555
O65_3 C44_22 1_555 1_555
O70_3 C44_22 1_555 1_555
O73_15 C45_22 1_555 1_555
O21_22 C45_22 1_555 1_555
C46_22 N11_22 1_555 1_555
C47_22 C48_22 1_555 1_555
C48_22 H21_22 1_555 1_555
C49_22 C48_22 1_555 1_555
C52_22 C47_22 1_555 1_555
H23_22 C52_22 1_555 1_555
C53_22 C49_22 1_555 1_555
N11_22 C10_22 1_555 1_555
N12_22 C46_22 1_555 1_555
H24_22 N12_22 1_555 1_555
O65_5 C53_22 1_555 1_555
C11_22 N4_22 1_555 1_555
C38_22 N10_22 1_555 1_555
C42_22 C43_22 1_555 1_555
C47_22 N12_22 1_555 1_555
H5_22 C14_22 1_555 1_555
C15_22 C14_22 1_555 1_555
C18_22 C15_22 1_555 1_555
O8_22 C18_22 1_555 1_555
C18_22 O73_17 1_555 1_555
C10_23 N3_23 1_555 1_555
C11_23 C12_23 1_555 1_555
C12_23 H4_23 1_555 1_555
C13_23 C12_23 1_555 1_555
C14_23 C13_23 1_555 1_555
H5_23 C14_23 1_555 1_555
C15_23 C14_23 1_555 1_555
C16_23 C11_23 1_555 1_555
H6_23 C16_23 1_555 1_555
C17_23 C13_23 1_555 1_555
C18_23 C15_23 1_555 1_555
N3_23 C37_23 1_555 1_555
N4_23 C10_23 1_555 1_555
H8_23 N4_23 1_555 1_555
O64_3 C17_23 1_555 1_555
O69_3 C17_23 1_555 1_555
O8_23 C18_23 1_555 1_555
C37_23 N9_23 1_555 1_555
C38_23 C39_23 1_555 1_555
C39_23 H17_23 1_555 1_555
C40_23 C39_23 1_555 1_555
C41_23 C40_23 1_555 1_555
H18_23 C41_23 1_555 1_555
C42_23 C41_23 1_555 1_555
C43_23 C38_23 1_555 1_555
H19_23 C43_23 1_555 1_555
C44_23 C40_23 1_555 1_555
C45_23 C42_23 1_555 1_555
N9_23 C46_23 1_555 1_555
N10_23 C37_23 1_555 1_555
H20_23 N10_23 1_555 1_555
O65_2 C44_23 1_555 1_555
O70_2 C44_23 1_555 1_555
O73_13 C45_23 1_555 1_555
O21_23 C45_23 1_555 1_555
C46_23 N11_23 1_555 1_555
C47_23 C48_23 1_555 1_555
C48_23 H21_23 1_555 1_555
C49_23 C48_23 1_555 1_555
C50_23 C49_23 1_555 1_555
H22_23 C50_23 1_555 1_555
C51_23 C50_23 1_555 1_555
C52_23 C47_23 1_555 1_555
H23_23 C52_23 1_555 1_555
C53_23 C49_23 1_555 1_555
C54_23 C51_23 1_555 1_555
N11_23 C10_23 1_555 1_555
N12_23 C46_23 1_555 1_555
H24_23 N12_23 1_555 1_555
O65_6 C53_23 1_555 1_555
O70_6 C53_23 1_555 1_555
O73_23 C54_23 1_555 1_555
O25_23 C54_23 1_555 1_555
C11_23 N4_23 1_555 1_555
C15_23 C16_23 1_555 1_555
C18_23 O73_20 1_555 1_555
C38_23 N10_23 1_555 1_555
C42_23 C43_23 1_555 1_555
C47_23 N12_23 1_555 1_555
C51_23 C52_23 1_555 1_555
H5_24 C14_24 1_555 1_555
C15_24 C14_24 1_555 1_555
C18_24 C15_24 1_555 1_555
O8_24 C18_24 1_555 1_555
C18_24 O73_19 1_555 1_555
C10_24 N3_24 1_555 1_555
C11_24 C12_24 1_555 1_555
C12_24 H4_24 1_555 1_555
C13_24 C12_24 1_555 1_555
C16_24 C11_24 1_555 1_555
H6_24 C16_24 1_555 1_555
C17_24 C13_24 1_555 1_555
N3_24 C37_24 1_555 1_555
N4_24 C10_24 1_555 1_555
H8_24 N4_24 1_555 1_555
O64 C17_24 1_555 1_555
C37_24 N9_24 1_555 1_555
C38_24 C39_24 1_555 1_555
C39_24 H17_24 1_555 1_555
C40_24 C39_24 1_555 1_555
C43_24 C38_24 1_555 1_555
H19_24 C43_24 1_555 1_555
C44_24 C40_24 1_555 1_555
N9_24 C46_24 1_555 1_555
N10_24 C37_24 1_555 1_555
H20_24 N10_24 1_555 1_555
O65_4 C44_24 1_555 1_555
C46_24 N11_24 1_555 1_555
C47_24 C48_24 1_555 1_555
C48_24 H21_24 1_555 1_555
C49_24 C48_24 1_555 1_555
C50_24 C49_24 1_555 1_555
H22_24 C50_24 1_555 1_555
C51_24 C50_24 1_555 1_555
C52_24 C47_24 1_555 1_555
H23_24 C52_24 1_555 1_555
C53_24 C49_24 1_555 1_555
C54_24 C51_24 1_555 1_555
N11_24 C10_24 1_555 1_555
N12_24 C46_24 1_555 1_555
H24_24 N12_24 1_555 1_555
O65_7 C53_24 1_555 1_555
O70_7 C53_24 1_555 1_555
O73_21 C54_24 1_555 1_555
O25_24 C54_24 1_555 1_555
C11_24 N4_24 1_555 1_555
C38_24 N10_24 1_555 1_555
C47_24 N12_24 1_555 1_555
C51_24 C52_24 1_555 1_555
H18_24 C41_24 1_555 1_555
C42_24 C41_24 1_555 1_555
C45_24 C42_24 1_555 1_555
O73_16 C45_24 1_555 1_555
O21_24 C45_24 1_555 1_555

#END
