
###############################################################################
#
# This file contains modified crystal structure data generated from the
# MOF subset of the Cambridge Structural Database (CSD) v543 
# hosted by the Cambridge Crystallographic Data Centre (CCDC).
#
# This work is licensed under the Creative Commons
# Attribution-NonCommercial-ShareAlike 4.0 International License.
# To view a copy of this license, visit
# http://creativecommons.org/licenses/by-nc-sa/4.0/
# or send a letter to
# Creative Commons, PO Box 1866, Mountain View, CA 94042, USA.
#
# CIF created using the CSD Python API on 29 September 2022
# The structure has been converted into the P1 space group
# The structure has a 3D framework
# The original CSD entry MIFVEE is in the tetragonal crystal system
# The framework has been calculated to contain at least 10.0% void space
# The void calculation uses a probe of radius 1.32A, grid spacing 0.4
# The framework is charged, counterions have been retained in the structure
#
###############################################################################

data_MIFVEE
_chemical_formula_moiety         '(C768 H576 Co16 N128 O352 Tb32)n'
_symmetry_cell_setting           triclinic
_symmetry_space_group_name_H-M   'P 1'
_symmetry_Int_Tables_number      1
_space_group_name_Hall           'P 1'
loop_
_symmetry_equiv_pos_site_id
_symmetry_equiv_pos_as_xyz
1 x,y,z
_cell_length_a                   45.8220(7)
_cell_length_b                   45.8220(7)
_cell_length_c                   11.0046(3)
_cell_angle_alpha                90
_cell_angle_beta                 90
_cell_angle_gamma                90
_cell_volume                     23105.9
loop_
_atom_site_label
_atom_site_type_symbol
_atom_site_fract_x
_atom_site_fract_y
_atom_site_fract_z
C1 C 0.82073(15) 0.80315(15) 0.3879(6)
C2 C 0.81925(16) 0.77058(16) 0.3715(6)
C3 C 0.79968(17) 0.75943(17) 0.2855(7)
H3 H 0.7898 0.7720 0.2334
C4 C 0.79504(19) 0.72971(17) 0.2784(8)
H4 H 0.7827 0.7219 0.2198
C5 C 0.80932(19) 0.71173(18) 0.3611(7)
H5 H 0.8055 0.6918 0.3599
C6 C 0.83449(15) 0.75082(15) 0.4440(6)
C7 C 0.85843(15) 0.75820(15) 0.5325(6)
C8 C 0.87735(16) 0.74619(16) 0.7215(7)
H6 H 0.8757 0.7361 0.7946
C9 C 0.90105(16) 0.76388(16) 0.7040(7)
H7 H 0.9152 0.7658 0.7641
C10 C 0.90360(16) 0.77889(16) 0.5955(7)
H8 H 0.9199 0.7905 0.5809
C11 C 0.88177(15) 0.77648(15) 0.5083(6)
C12 C 0.88460(15) 0.79356(16) 0.3911(6)
C14 C 0.91713(15) 0.83701(15) 0.0130(6)
C15 C 0.92571(16) 0.81726(16) 0.1012(7)
H9 H 0.9233 0.7974 0.0879
C16 C 0.93786(15) 0.82681(16) 0.2085(7)
H10 H 0.9435 0.8136 0.2684
C17 C 0.94149(15) 0.85655(16) 0.2248(6)
H11 H 0.9497 0.8632 0.2970
C18 C 0.92130(15) 0.86679(15) 0.0358(6)
C25 C 0.77798(15) 0.81316(15) 0.0090(7)
C37 C 0.7980(2) 0.8965(3) 0.2748(9)
C38 C 0.7800(3) 0.9185(3) 0.3595(12)
C39 C 0.7504(3) 0.9117(3) 0.3845(12)
H21 H 0.7430 0.8947 0.3501
C40 C 0.7303(3) 0.9290(3) 0.4593(13)
H22 H 0.7121 0.9234 0.4890
C41 C 0.7444(3) 0.9560(3) 0.4762(13)
H23 H 0.7327 0.9710 0.5056
C42 C 0.7908(3) 0.9429(3) 0.4084(11)
C43 C 0.8221(3) 0.9499(2) 0.4010(10)
C44 C 0.8635(3) 0.9798(3) 0.3652(11)
H24 H 0.8708 0.9969 0.3309
C45 C 0.8831(3) 0.9651(3) 0.4161(11)
H25 H 0.9025 0.9709 0.4233
C46 C 0.8723(3) 0.9403(2) 0.4578(10)
H26 H 0.8853 0.9270 0.4915
C47 C 0.8422(2) 0.9323(2) 0.4552(8)
C48 C 0.83498(16) 0.90494(16) 0.5197(7)
N1 N 0.82840(13) 0.72223(13) 0.4426(6)
N2 N 0.85640(13) 0.74276(12) 0.6371(5)
N3 N 0.93364(13) 0.87601(13) 0.1405(5)
N7 N 0.8344(2) 0.9772(2) 0.3477(9)
N8 N 0.7724(3) 0.9631(2) 0.4559(10)
O1 O 0.81442(11) 0.81840(11) 0.2985(4)
O2 O 0.82669(11) 0.81203(11) 0.4927(5)
O3 O 0.89124(11) 0.81978(11) 0.3998(5)
O4 O 0.88004(11) 0.77998(11) 0.2930(4)
O5 O 0.76928(12) 0.82517(12) 0.1037(5)
O11 O 0.85853(10) 0.86631(10) 0.0027(4)
O17 O 0.86272(11) 0.86146(11) 0.2623(5)
H33 H 0.8719 0.8459 0.2817
H34 H 0.8742 0.8729 0.2243
O18 O 0.78981(18) 0.87349(16) 0.2722(6)
O19 O 0.81886(19) 0.90552(18) 0.2121(7)
O20 O 0.84401(15) 0.88137(14) 0.4751(6)
O21 O 0.82069(13) 0.90524(12) 0.6150(5)
O22 O 0.85380(11) 0.80828(11) 0.1104(4)
H35 H 0.8444 0.7923 0.1248
H36 H 0.8604 0.8078 0.0370
Co1 Co 0.95380(2) 0.91756(2) 0.12776(9)
Tb1 Tb 0.822183(7) 0.849140(7) 0.13397(3)
N9 N 0.97223(13) 0.92160(13) 0.3074(6)
N10 N 0.99276(12) 0.89360(13) 0.1129(5)
N11 N 0.91537(13) 0.94359(13) 0.1537(6)
N12 N 0.97100(13) 0.96158(13) 0.1087(6)
Co3 Co 0.83244(2) 0.70380(2) 0.62224(9)
Tb3 Tb 0.825136(8) 0.849845(7) 0.63475(3)
H1 H 0.797(2) 0.8743(14) 0.929(3)
H2 H 0.798(2) 0.8999(5) 0.997(7)
C13 C 0.90423(16) 0.82576(15) 0.8946(6)
C19 C 0.91505(15) 0.89095(15) 0.9484(6)
C20 C 0.93399(18) 0.93313(17) 0.8654(7)
H12 H 0.9484 0.9474 0.8645
C21 C 0.91155(18) 0.93501(18) 0.7823(7)
H13 H 0.9116 0.9494 0.7227
C22 C 0.88925(17) 0.91515(16) 0.7897(7)
H14 H 0.8735 0.9166 0.7369
C23 C 0.89000(16) 0.89301(15) 0.8750(6)
C24 C 0.86301(15) 0.87427(14) 0.8955(6)
C26 C 0.75815(16) 0.79135(16) 0.9466(7)
C27 C 0.76519(16) 0.76194(16) 0.9515(7)
H15 H 0.7831 0.7560 0.9828
C28 C 0.74521(16) 0.74129(16) 0.9091(7)
H16 H 0.7498 0.7215 0.9100
C29 C 0.71858(17) 0.75062(16) 0.8658(7)
H17 H 0.7050 0.7368 0.8408
C30 C 0.73152(15) 0.79921(16) 0.8930(7)
C31 C 0.72164(16) 0.82965(16) 0.8731(7)
C32 C 0.68269(16) 0.86145(17) 0.8919(7)
H18 H 0.6634 0.8648 0.9147
C33 C 0.69926(17) 0.88481(17) 0.8463(9)
H19 H 0.6915 0.9035 0.8416
C34 C 0.72738(17) 0.87913(17) 0.8086(9)
H20 H 0.7387 0.8941 0.7763
C35 C 0.73908(16) 0.85106(16) 0.8186(8)
C36 C 0.76794(17) 0.84483(18) 0.7577(8)
N4 N 0.93580(13) 0.91153(13) 0.9478(5)
N5 N 0.69359(13) 0.83463(13) 0.9037(6)
N6 N 0.71158(13) 0.77900(13) 0.8587(6)
O6 O 0.80325(11) 0.81766(12) 0.9671(5)
O7 O 0.77171(14) 0.82206(13) 0.7036(7)
O8 O 0.78690(11) 0.86525(12) 0.7647(5)
O9 O 0.88410(11) 0.80757(10) 0.9026(5)
O10 O 0.91485(11) 0.83571(11) 0.7972(5)
O12 O 0.84721(10) 0.86970(11) 0.8055(5)
O13 O 0.83388(11) 0.80782(10) 0.7611(5)
H27 H 0.8256 0.8101 0.8310
H28 H 0.8269 0.7924 0.7270
O14 O 0.87608(11) 0.84272(12) 0.6147(5)
H29 H 0.8822 0.8302 0.6684
H30 H 0.8804 0.8361 0.5426
O15 O 0.78495(17) 0.85892(14) 0.4951(7)
H31 H 0.7748 0.8425 0.4778
H32 H 0.7721 0.8718 0.5262
O16 O 0.79799(12) 0.88145(11) 0.9992(5)
Co2 Co 0.66756(2) 0.79620(2) 0.87776(9)
C4_2 C 0.02029(17) 0.04504(19) 0.5284(8)
H4_2 H 0.0281 0.0327 0.4698
C5_2 C 0.03827(18) 0.05932(19) 0.6111(7)
H5_2 H 0.0582 0.0555 0.6099
C8_2 C 0.00381(16) 0.12735(16) 0.9715(7)
N1_2 N 0.02777(13) 0.07840(13) 0.6926(6)
N2_2 N 0.00724(12) 0.10640(13) 0.8871(5)
Co3_2 Co 0.04620(2) 0.08244(2) 0.87224(9)
H1_2 H 0.8757(14) 0.047(2) 0.179(3)
H2_2 H 0.8501(5) 0.048(2) 0.247(7)
C1_2 C 0.94685(15) 0.07073(15) 0.6379(6)
C2_2 C 0.97942(16) 0.06925(16) 0.6215(6)
C3_2 C 0.99057(17) 0.04968(17) 0.5355(7)
H3_2 H 0.9780 0.0398 0.4834
C6_2 C 0.99918(15) 0.08449(15) 0.6940(6)
C7_2 C 0.99180(15) 0.10843(15) 0.7825(6)
C9_2 C 0.98612(16) 0.15105(16) 0.9540(7)
C10_2 C 0.97111(16) 0.15360(16) 0.8455(7)
H8_2 H 0.9595 0.1699 0.8309
C11_2 C 0.97352(15) 0.13177(15) 0.7583(6)
C12_2 C 0.95644(16) 0.13460(15) 0.6411(6)
C13_2 C 0.92424(15) 0.15423(16) 0.1446(6)
C14_2 C 0.91299(15) 0.16713(15) 0.2630(6)
C15_2 C 0.93274(16) 0.17571(16) 0.3512(7)
H9_2 H 0.9526 0.1733 0.3379
C16_2 C 0.92319(16) 0.18786(15) 0.4585(7)
H10_2 H 0.9364 0.1935 0.5184
C17_2 C 0.89345(16) 0.19149(15) 0.4748(6)
H11_2 H 0.8868 0.1997 0.5470
C18_2 C 0.88321(15) 0.17130(15) 0.2858(6)
C19_2 C 0.85905(15) 0.16505(15) 0.1984(6)
C20_2 C 0.81687(17) 0.18399(18) 0.1154(7)
H12_2 H 0.8026 0.1984 0.1145
C21_2 C 0.81499(18) 0.16155(18) 0.0323(7)
C22_2 C 0.83485(16) 0.13925(17) 0.0397(7)
C23_2 C 0.85699(15) 0.14000(16) 0.1250(6)
C24_2 C 0.87573(14) 0.11301(15) 0.1455(6)
C25_2 C 0.93684(15) 0.02798(15) 0.2590(7)
C26_2 C 0.95865(16) 0.00815(16) 0.1966(7)
C27_2 C 0.98806(16) 0.01519(16) 0.2015(7)
H15_2 H 0.9940 0.0331 0.2328
C36_2 C 0.90517(18) 0.01794(17) 0.0077(8)
C37_2 C 0.8535(3) 0.0480(2) 0.5248(9)
C38_2 C 0.8315(3) 0.0300(3) 0.6095(12)
C39_2 C 0.8383(3) 0.0004(3) 0.6345(12)
C42_2 C 0.8071(3) 0.0408(3) 0.6584(11)
C43_2 C 0.8001(2) 0.0721(3) 0.6510(10)
C44_2 C 0.7702(3) 0.1135(3) 0.6152(11)
H24_2 H 0.7531 0.1208 0.5809
C45_2 C 0.7849(3) 0.1331(3) 0.6661(11)
H25_2 H 0.7791 0.1525 0.6733
C46_2 C 0.8097(2) 0.1223(3) 0.7078(10)
H26_2 H 0.8230 0.1353 0.7415
C47_2 C 0.8177(2) 0.0922(2) 0.7052(8)
C48_2 C 0.84506(16) 0.08498(16) 0.7697(7)
N3_2 N 0.87399(13) 0.18364(13) 0.3905(5)
N4_2 N 0.83847(13) 0.18580(13) 0.1978(5)
N7_2 N 0.7728(2) 0.0844(2) 0.5977(9)
N8_2 N 0.7869(2) 0.0224(3) 0.7059(10)
O1_2 O 0.93160(11) 0.06442(11) 0.5485(4)
O2_2 O 0.93797(11) 0.07669(11) 0.7427(5)
O3_2 O 0.93022(11) 0.14124(11) 0.6498(5)
O4_2 O 0.97002(11) 0.13004(11) 0.5430(4)
O5_2 O 0.92483(12) 0.01928(12) 0.3537(5)
O6_2 O 0.93234(12) 0.05325(11) 0.2171(5)
O8_2 O 0.88475(12) 0.03690(11) 0.0147(5)
O9_2 O 0.94243(10) 0.13410(11) 0.1526(5)
O10_2 O 0.91429(11) 0.16485(11) 0.0472(5)
O11_2 O 0.88369(10) 0.10853(10) 0.2527(4)
O12_2 O 0.88030(11) 0.09721(10) 0.0555(5)
O13_2 O 0.94218(10) 0.08388(11) 0.0111(5)
H27_2 H 0.9399 0.0756 0.0810
O16_2 O 0.86855(11) 0.04799(12) 0.2492(5)
O17_2 O 0.88854(11) 0.11272(11) 0.5123(5)
H33_2 H 0.9041 0.1219 0.5317
H34_2 H 0.8771 0.1242 0.4743
O18_2 O 0.87651(16) 0.03981(18) 0.5222(6)
O19_2 O 0.84448(18) 0.06886(19) 0.4621(7)
O20_2 O 0.86863(14) 0.09401(15) 0.7251(6)
O21_2 O 0.84476(12) 0.07069(13) 0.8650(5)
O22_2 O 0.94172(11) 0.10380(11) 0.3604(4)
H35_2 H 0.9577 0.0944 0.3748
H36_2 H 0.9422 0.1104 0.2870
Co1_2 Co 0.83244(2) 0.20380(2) 0.37776(9)
Tb1_2 Tb 0.900860(7) 0.072183(7) 0.38397(3)
N9_2 N 0.82840(13) 0.22223(13) 0.5574(6)
N10_2 N 0.85640(13) 0.24276(12) 0.3629(5)
N11_2 N 0.80641(13) 0.16537(13) 0.4037(6)
N12_2 N 0.78842(13) 0.22100(13) 0.3587(6)
Tb3_2 Tb 0.900155(7) 0.075136(8) 0.88475(3)
H13_2 H 0.8006 0.1616 0.9727
H14_2 H 0.8334 0.1235 0.9869
O7_2 O 0.92794(13) 0.02171(14) 0.9536(7)
H28_2 H 0.9576 0.0769 0.9770
O14_2 O 0.90728(12) 0.12608(11) 0.8647(5)
H29_2 H 0.9198 0.1322 0.9184
H30_2 H 0.9139 0.1304 0.7926
O15_2 O 0.89108(14) 0.03495(17) 0.7451(7)
H31_2 H 0.9075 0.0248 0.7278
H32_2 H 0.8782 0.0221 0.7762
C29_2 C 0.99938(16) 0.96858(17) 0.1158(7)
C30_2 C 0.95079(16) 0.98152(15) 0.1430(7)
C31_2 C 0.92035(16) 0.97164(16) 0.1231(7)
C32_2 C 0.88855(17) 0.93269(16) 0.1419(7)
H18_2 H 0.8852 0.9134 0.1647
C33_2 C 0.86519(17) 0.94926(17) 0.0963(9)
H19_2 H 0.8465 0.9415 0.0916
C34_2 C 0.87087(17) 0.97738(17) 0.0586(9)
H20_2 H 0.8559 0.9887 0.0263
C35_2 C 0.89894(16) 0.98908(16) 0.0686(8)
H21_2 H 0.8553 0.9930 0.6001
C40_2 C 0.8210(3) 0.9803(3) 0.7093(13)
H22_2 H 0.8266 0.9621 0.7390
C41_2 C 0.7940(3) 0.9944(3) 0.7262(13)
H23_2 H 0.7790 0.9827 0.7556
C1_3 C 0.17927(15) 0.69685(15) 0.3879(6)
C2_3 C 0.18075(16) 0.72942(16) 0.3715(6)
C3_3 C 0.20032(17) 0.74057(17) 0.2855(7)
H3_3 H 0.2102 0.7280 0.2334
C4_3 C 0.20496(19) 0.77029(17) 0.2784(8)
H4_3 H 0.2173 0.7781 0.2198
C5_3 C 0.19068(19) 0.78827(18) 0.3611(7)
H5_3 H 0.1945 0.8082 0.3599
C6_3 C 0.16551(15) 0.74918(15) 0.4440(6)
C7_3 C 0.14157(15) 0.74180(15) 0.5325(6)
C8_3 C 0.12265(16) 0.75381(16) 0.7215(7)
H6_2 H 0.1243 0.7639 0.7946
C9_3 C 0.09895(16) 0.73612(16) 0.7040(7)
H7_2 H 0.0848 0.7342 0.7641
C10_3 C 0.09640(16) 0.72111(16) 0.5955(7)
H8_3 H 0.0801 0.7095 0.5809
C11_3 C 0.11823(15) 0.72352(15) 0.5083(6)
C12_3 C 0.11540(15) 0.70644(16) 0.3911(6)
C14_3 C 0.08287(15) 0.66299(15) 0.0130(6)
C15_3 C 0.07429(16) 0.68274(16) 0.1012(7)
H9_3 H 0.0767 0.7026 0.0879
C16_3 C 0.06214(15) 0.67319(16) 0.2085(7)
H10_3 H 0.0565 0.6864 0.2684
C17_3 C 0.05851(15) 0.64345(16) 0.2248(6)
H11_3 H 0.0503 0.6368 0.2970
C18_3 C 0.07870(15) 0.63321(15) 0.0358(6)
C25_3 C 0.22202(15) 0.68684(15) 0.0090(7)
C37_3 C 0.2020(2) 0.6035(3) 0.2748(9)
C38_3 C 0.2200(3) 0.5815(3) 0.3595(12)
C39_3 C 0.2496(3) 0.5883(3) 0.3845(12)
H21_3 H 0.2570 0.6053 0.3501
C40_3 C 0.2697(3) 0.5710(3) 0.4593(13)
H22_3 H 0.2879 0.5766 0.4890
C41_3 C 0.2556(3) 0.5440(3) 0.4762(13)
H23_3 H 0.2673 0.5290 0.5056
C42_3 C 0.2092(3) 0.5571(3) 0.4084(11)
C43_3 C 0.1779(3) 0.5501(2) 0.4010(10)
C44_3 C 0.1365(3) 0.5202(3) 0.3652(11)
H24_3 H 0.1292 0.5031 0.3309
C45_3 C 0.1169(3) 0.5349(3) 0.4161(11)
H25_3 H 0.0975 0.5291 0.4233
C46_3 C 0.1277(3) 0.5597(2) 0.4578(10)
H26_3 H 0.1147 0.5730 0.4915
C47_3 C 0.1578(2) 0.5677(2) 0.4552(8)
C48_3 C 0.16502(16) 0.59506(16) 0.5197(7)
N1_3 N 0.17160(13) 0.77777(13) 0.4426(6)
N2_3 N 0.14360(13) 0.75724(12) 0.6371(5)
N3_3 N 0.06636(13) 0.62399(13) 0.1405(5)
N7_3 N 0.1656(2) 0.5228(2) 0.3477(9)
N8_3 N 0.2276(3) 0.5369(2) 0.4559(10)
O1_3 O 0.18558(11) 0.68160(11) 0.2985(4)
O2_3 O 0.17331(11) 0.68797(11) 0.4927(5)
O3_3 O 0.10876(11) 0.68022(11) 0.3998(5)
O4_3 O 0.11996(11) 0.72002(11) 0.2930(4)
O5_3 O 0.23072(12) 0.67483(12) 0.1037(5)
O11_3 O 0.14147(10) 0.63369(10) 0.0027(4)
O17_3 O 0.13728(11) 0.63854(11) 0.2623(5)
H33_3 H 0.1281 0.6541 0.2817
H34_3 H 0.1258 0.6271 0.2243
O18_3 O 0.21019(18) 0.62651(16) 0.2722(6)
O19_3 O 0.18114(19) 0.59448(18) 0.2121(7)
O20_3 O 0.15599(15) 0.61863(14) 0.4751(6)
O21_3 O 0.17931(13) 0.59476(12) 0.6150(5)
O22_3 O 0.14620(11) 0.69172(11) 0.1104(4)
H35_3 H 0.1556 0.7077 0.1248
H36_3 H 0.1396 0.6922 0.0370
Co1_3 Co 0.04620(2) 0.58244(2) 0.12776(9)
Tb1_3 Tb 0.177817(7) 0.650860(7) 0.13397(3)
N9_3 N 0.02777(13) 0.57840(13) 0.3074(6)
N10_3 N 0.00724(12) 0.60640(13) 0.1129(5)
N11_3 N 0.08463(13) 0.55641(13) 0.1537(6)
N12_3 N 0.02900(13) 0.53842(13) 0.1087(6)
Co3_3 Co 0.16756(2) 0.79620(2) 0.62224(9)
Tb3_3 Tb 0.174864(8) 0.650155(7) 0.63475(3)
H1_3 H 0.203(2) 0.6257(14) 0.929(3)
H2_3 H 0.202(2) 0.6001(5) 0.997(7)
C13_3 C 0.09577(16) 0.67424(15) 0.8946(6)
C19_3 C 0.08495(15) 0.60905(15) 0.9484(6)
C20_3 C 0.06601(18) 0.56687(17) 0.8654(7)
H12_3 H 0.0516 0.5526 0.8645
C21_3 C 0.08845(18) 0.56499(18) 0.7823(7)
H13_3 H 0.0884 0.5506 0.7227
C22_3 C 0.11075(17) 0.58485(16) 0.7897(7)
H14_3 H 0.1265 0.5834 0.7369
C23_3 C 0.11000(16) 0.60699(15) 0.8750(6)
C24_3 C 0.13699(15) 0.62573(14) 0.8955(6)
C26_3 C 0.24185(16) 0.70865(16) 0.9466(7)
C27_3 C 0.23481(16) 0.73806(16) 0.9515(7)
H15_3 H 0.2169 0.7440 0.9828
C28_2 C 0.25479(16) 0.75871(16) 0.9091(7)
H16_2 H 0.2502 0.7785 0.9100
C29_3 C 0.28142(17) 0.74938(16) 0.8658(7)
H17_2 H 0.2950 0.7632 0.8408
C30_3 C 0.26848(15) 0.70079(16) 0.8930(7)
C31_3 C 0.27836(16) 0.67035(16) 0.8731(7)
C32_3 C 0.31731(16) 0.63855(17) 0.8919(7)
H18_3 H 0.3366 0.6352 0.9147
C33_3 C 0.30074(17) 0.61519(17) 0.8463(9)
H19_3 H 0.3085 0.5965 0.8416
C34_3 C 0.27262(17) 0.62087(17) 0.8086(9)
H20_3 H 0.2613 0.6059 0.7763
C35_3 C 0.26092(16) 0.64894(16) 0.8186(8)
C36_3 C 0.23206(17) 0.65517(18) 0.7577(8)
N4_3 N 0.06420(13) 0.58847(13) 0.9478(5)
N5_2 N 0.30641(13) 0.66537(13) 0.9037(6)
N6_2 N 0.28842(13) 0.72100(13) 0.8587(6)
O6_3 O 0.19675(11) 0.68234(12) 0.9671(5)
O7_3 O 0.22829(14) 0.67794(13) 0.7036(7)
O8_3 O 0.21310(11) 0.63475(12) 0.7647(5)
O9_3 O 0.11590(11) 0.69243(10) 0.9026(5)
O10_3 O 0.08515(11) 0.66429(11) 0.7972(5)
O12_3 O 0.15279(10) 0.63030(11) 0.8055(5)
O13_3 O 0.16612(11) 0.69218(10) 0.7611(5)
H27_3 H 0.1744 0.6899 0.8310
H28_3 H 0.1731 0.7076 0.7270
O14_3 O 0.12392(11) 0.65728(12) 0.6147(5)
H29_3 H 0.1178 0.6698 0.6684
H30_3 H 0.1196 0.6639 0.5426
O15_3 O 0.21505(17) 0.64108(14) 0.4951(7)
H31_3 H 0.2252 0.6575 0.4778
H32_3 H 0.2279 0.6282 0.5262
O16_3 O 0.20201(12) 0.61855(11) 0.9992(5)
Co2_2 Co 0.33244(2) 0.70380(2) 0.87776(9)
H1_4 H 0.1243(14) 0.453(2) 0.179(3)
H2_4 H 0.1499(5) 0.452(2) 0.247(7)
C1_4 C 0.05315(15) 0.42927(15) 0.6379(6)
C2_4 C 0.02058(16) 0.43075(16) 0.6215(6)
C3_4 C 0.00943(17) 0.45032(17) 0.5355(7)
H3_4 H 0.0220 0.4602 0.4834
C6_4 C 0.00082(15) 0.41551(15) 0.6940(6)
C7_4 C 0.00820(15) 0.39157(15) 0.7825(6)
C9_4 C 0.01388(16) 0.34895(16) 0.9540(7)
C10_4 C 0.02889(16) 0.34640(16) 0.8455(7)
H8_4 H 0.0405 0.3301 0.8309
C11_4 C 0.02648(15) 0.36823(15) 0.7583(6)
C12_4 C 0.04356(16) 0.36540(15) 0.6411(6)
C13_4 C 0.07576(15) 0.34577(16) 0.1446(6)
C14_4 C 0.08701(15) 0.33287(15) 0.2630(6)
C15_4 C 0.06726(16) 0.32429(16) 0.3512(7)
H9_4 H 0.0474 0.3267 0.3379
C16_4 C 0.07681(16) 0.31214(15) 0.4585(7)
H10_4 H 0.0636 0.3065 0.5184
C17_4 C 0.10655(16) 0.30851(15) 0.4748(6)
H11_4 H 0.1132 0.3003 0.5470
C18_4 C 0.11679(15) 0.32870(15) 0.2858(6)
C19_4 C 0.14095(15) 0.33495(15) 0.1984(6)
C20_4 C 0.18313(17) 0.31601(18) 0.1154(7)
H12_4 H 0.1974 0.3016 0.1145
C21_4 C 0.18501(18) 0.33845(18) 0.0323(7)
C22_4 C 0.16515(16) 0.36075(17) 0.0397(7)
C23_4 C 0.14301(15) 0.36000(16) 0.1250(6)
C24_4 C 0.12427(14) 0.38699(15) 0.1455(6)
C25_4 C 0.06316(15) 0.47202(15) 0.2590(7)
C26_4 C 0.04135(16) 0.49185(16) 0.1966(7)
C27_4 C 0.01194(16) 0.48481(16) 0.2015(7)
H15_4 H 0.0060 0.4669 0.2328
C29_4 C 0.00062(16) 0.53142(17) 0.1158(7)
C30_4 C 0.04921(16) 0.51848(15) 0.1430(7)
C31_4 C 0.07965(16) 0.52836(16) 0.1231(7)
C32_4 C 0.11145(17) 0.56731(16) 0.1419(7)
H18_4 H 0.1148 0.5866 0.1647
C33_4 C 0.13481(17) 0.55074(17) 0.0963(9)
H19_4 H 0.1535 0.5585 0.0916
C34_4 C 0.12913(17) 0.52262(17) 0.0586(9)
H20_4 H 0.1441 0.5113 0.0263
C35_4 C 0.10106(16) 0.51092(16) 0.0686(8)
C36_4 C 0.09483(18) 0.48206(17) 0.0077(8)
C37_4 C 0.1465(3) 0.4520(2) 0.5248(9)
C38_4 C 0.1685(3) 0.4700(3) 0.6095(12)
C39_4 C 0.1617(3) 0.4996(3) 0.6345(12)
H21_4 H 0.1447 0.5070 0.6001
C40_4 C 0.1790(3) 0.5197(3) 0.7093(13)
H22_4 H 0.1734 0.5379 0.7390
C41_4 C 0.2060(3) 0.5056(3) 0.7262(13)
H23_4 H 0.2210 0.5173 0.7556
C42_4 C 0.1929(3) 0.4592(3) 0.6584(11)
C43_4 C 0.1999(2) 0.4279(3) 0.6510(10)
C44_4 C 0.2298(3) 0.3865(3) 0.6152(11)
H24_4 H 0.2469 0.3792 0.5809
C45_4 C 0.2151(3) 0.3669(3) 0.6661(11)
H25_4 H 0.2209 0.3475 0.6733
C46_4 C 0.1903(2) 0.3777(3) 0.7078(10)
H26_4 H 0.1770 0.3647 0.7415
C47_4 C 0.1823(2) 0.4078(2) 0.7052(8)
C48_4 C 0.15494(16) 0.41502(16) 0.7697(7)
N3_4 N 0.12601(13) 0.31636(13) 0.3905(5)
N4_4 N 0.16153(13) 0.31420(13) 0.1978(5)
N7_4 N 0.2272(2) 0.4156(2) 0.5977(9)
N8_4 N 0.2131(2) 0.4776(3) 0.7059(10)
O1_4 O 0.06840(11) 0.43558(11) 0.5485(4)
O2_4 O 0.06203(11) 0.42331(11) 0.7427(5)
O3_4 O 0.06978(11) 0.35876(11) 0.6498(5)
O4_4 O 0.02998(11) 0.36996(11) 0.5430(4)
O5_4 O 0.07517(12) 0.48072(12) 0.3537(5)
O6_4 O 0.06766(12) 0.44675(11) 0.2171(5)
O8_4 O 0.11525(12) 0.46310(11) 0.0147(5)
O9_4 O 0.05757(10) 0.36590(11) 0.1526(5)
O10_4 O 0.08571(11) 0.33515(11) 0.0472(5)
O11_4 O 0.11631(10) 0.39147(10) 0.2527(4)
O12_4 O 0.11970(11) 0.40279(10) 0.0555(5)
O13_4 O 0.05782(10) 0.41612(11) 0.0111(5)
H27_4 H 0.0601 0.4244 0.0810
O16_4 O 0.13145(11) 0.45201(12) 0.2492(5)
O17_4 O 0.11146(11) 0.38728(11) 0.5123(5)
H33_4 H 0.0959 0.3781 0.5317
H34_4 H 0.1229 0.3758 0.4743
O18_4 O 0.12349(16) 0.46019(18) 0.5222(6)
O19_4 O 0.15552(18) 0.43114(19) 0.4621(7)
O20_4 O 0.13137(14) 0.40599(15) 0.7251(6)
O21_4 O 0.15524(12) 0.42931(13) 0.8650(5)
O22_4 O 0.05828(11) 0.39620(11) 0.3604(4)
H35_4 H 0.0423 0.4056 0.3748
H36_4 H 0.0578 0.3896 0.2870
Co1_4 Co 0.16756(2) 0.29620(2) 0.37776(9)
Tb1_4 Tb 0.099140(7) 0.427817(7) 0.38397(3)
N9_4 N 0.17160(13) 0.27777(13) 0.5574(6)
N10_4 N 0.14360(13) 0.25724(12) 0.3629(5)
N11_4 N 0.19359(13) 0.33463(13) 0.4037(6)
N12_4 N 0.21158(13) 0.27900(13) 0.3587(6)
Tb3_4 Tb 0.099845(7) 0.424864(8) 0.88475(3)
H13_4 H 0.1994 0.3384 0.9727
H14_4 H 0.1666 0.3765 0.9869
O7_4 O 0.07206(13) 0.47829(14) 0.9536(7)
H28_4 H 0.0424 0.4231 0.9770
O14_4 O 0.09272(12) 0.37392(11) 0.8647(5)
H29_4 H 0.0802 0.3678 0.9184
H30_4 H 0.0861 0.3696 0.7926
O15_4 O 0.10892(14) 0.46505(17) 0.7451(7)
H31_4 H 0.0925 0.4752 0.7278
H32_4 H 0.1218 0.4779 0.7762
C4_4 C 0.97971(17) 0.45496(19) 0.5284(8)
H4_4 H 0.9719 0.4673 0.4698
C5_4 C 0.96173(18) 0.44068(19) 0.6111(7)
H5_4 H 0.9418 0.4445 0.6099
C8_4 C 0.99619(16) 0.37265(16) 0.9715(7)
C28_3 C 0.99129(16) 0.50479(16) 0.1591(7)
H16_3 H 0.9715 0.5002 0.1600
H17_3 H 0.9868 0.5450 0.0908
N1_4 N 0.97223(13) 0.42160(13) 0.6926(6)
N2_4 N 0.99276(12) 0.39360(13) 0.8871(5)
Co3_4 Co 0.95380(2) 0.41756(2) 0.87224(9)
C7_5 C 0.35843(15) 0.25820(15) 0.0325(6)
C8_5 C 0.37735(16) 0.24619(16) 0.2215(7)
H6_3 H 0.3757 0.2361 0.2946
C9_5 C 0.40105(16) 0.26388(16) 0.2040(7)
H7_3 H 0.4152 0.2658 0.2641
C10_5 C 0.40360(16) 0.27889(16) 0.0955(7)
H8_5 H 0.4199 0.2905 0.0809
C11_5 C 0.38177(15) 0.27648(15) 0.0083(6)
H23_5 H 0.2327 0.4710 0.0056
C48_5 C 0.33498(16) 0.40494(16) 0.0197(7)
N2_5 N 0.35640(13) 0.24276(12) 0.1371(5)
O21_5 O 0.32069(13) 0.40524(12) 0.1150(5)
Co3_5 Co 0.33244(2) 0.20380(2) 0.12224(9)
Tb3_5 Tb 0.325136(8) 0.349845(7) 0.13475(3)
H1_5 H 0.297(2) 0.3743(14) 0.429(3)
H2_5 H 0.298(2) 0.3999(5) 0.497(7)
C1_5 C 0.32073(15) 0.30315(15) 0.8879(6)
C2_5 C 0.31925(16) 0.27058(16) 0.8715(6)
C3_5 C 0.29968(17) 0.25943(17) 0.7855(7)
H3_5 H 0.2898 0.2720 0.7334
C4_5 C 0.29504(19) 0.22971(17) 0.7784(8)
H4_5 H 0.2827 0.2219 0.7198
C5_5 C 0.30932(19) 0.21173(18) 0.8611(7)
H5_5 H 0.3055 0.1918 0.8599
C6_5 C 0.33449(15) 0.25082(15) 0.9440(6)
C12_5 C 0.38460(15) 0.29356(16) 0.8911(6)
C13_5 C 0.40423(16) 0.32576(15) 0.3946(6)
C14_5 C 0.41713(15) 0.33701(15) 0.5130(6)
C15_5 C 0.42571(16) 0.31726(16) 0.6012(7)
H9_5 H 0.4233 0.2974 0.5879
C16_5 C 0.43786(15) 0.32681(16) 0.7085(7)
H10_5 H 0.4435 0.3136 0.7684
C17_5 C 0.44149(15) 0.35655(16) 0.7248(6)
H11_5 H 0.4497 0.3632 0.7970
C18_5 C 0.42130(15) 0.36679(15) 0.5358(6)
C19_5 C 0.41505(15) 0.39095(15) 0.4484(6)
C20_5 C 0.43399(18) 0.43313(17) 0.3654(7)
H12_5 H 0.4484 0.4474 0.3645
C21_5 C 0.41155(18) 0.43501(18) 0.2823(7)
H13_5 H 0.4116 0.4494 0.2227
C22_5 C 0.38925(17) 0.41515(16) 0.2897(7)
H14_5 H 0.3735 0.4166 0.2369
C23_5 C 0.39000(16) 0.39301(15) 0.3750(6)
C24_5 C 0.36301(15) 0.37427(14) 0.3955(6)
C25_5 C 0.27798(15) 0.31316(15) 0.5090(7)
C26_5 C 0.25815(16) 0.29135(16) 0.4466(7)
C27_5 C 0.26519(16) 0.26194(16) 0.4515(7)
H15_5 H 0.2831 0.2560 0.4828
C28_4 C 0.24521(16) 0.24129(16) 0.4091(7)
H16_4 H 0.2498 0.2215 0.4100
C29_5 C 0.21858(17) 0.25062(16) 0.3658(7)
H17_4 H 0.2050 0.2368 0.3408
C30_5 C 0.23152(15) 0.29921(16) 0.3930(7)
C31_5 C 0.22164(16) 0.32965(16) 0.3731(7)
C32_5 C 0.18269(16) 0.36145(17) 0.3919(7)
H18_5 H 0.1634 0.3648 0.4147
C33_5 C 0.19926(17) 0.38481(17) 0.3463(9)
H19_5 H 0.1915 0.4035 0.3416
C34_5 C 0.22738(17) 0.37913(17) 0.3086(9)
H20_5 H 0.2387 0.3941 0.2763
C35_5 C 0.23908(16) 0.35106(16) 0.3186(8)
C36_5 C 0.26794(17) 0.34483(18) 0.2577(8)
C37_5 C 0.2980(2) 0.3965(3) 0.7748(9)
C38_5 C 0.2800(3) 0.4185(3) 0.8595(12)
C39_5 C 0.2504(3) 0.4117(3) 0.8845(12)
H21_5 H 0.2430 0.3947 0.8501
C40_5 C 0.2303(3) 0.4290(3) 0.9593(13)
H22_5 H 0.2121 0.4234 0.9890
C41_5 C 0.2444(3) 0.4560(3) 0.9762(13)
C42_5 C 0.2908(3) 0.4429(3) 0.9084(11)
C43_5 C 0.3221(3) 0.4499(2) 0.9010(10)
C44_5 C 0.3635(3) 0.4798(3) 0.8652(11)
H24_5 H 0.3708 0.4969 0.8309
C45_5 C 0.3831(3) 0.4651(3) 0.9161(11)
H25_5 H 0.4025 0.4709 0.9233
C46_5 C 0.3723(3) 0.4403(2) 0.9578(10)
H26_5 H 0.3853 0.4270 0.9915
C47_5 C 0.3422(2) 0.4323(2) 0.9552(8)
N1_5 N 0.32840(13) 0.22223(13) 0.9426(6)
N3_5 N 0.43364(13) 0.37601(13) 0.6405(5)
N4_5 N 0.43580(13) 0.41153(13) 0.4478(5)
N7_5 N 0.3344(2) 0.4772(2) 0.8477(9)
N8_5 N 0.2724(3) 0.4631(2) 0.9559(10)
O1_5 O 0.31442(11) 0.31840(11) 0.7985(4)
O2_5 O 0.32669(11) 0.31203(11) 0.9927(5)
O3_5 O 0.39124(11) 0.31978(11) 0.8998(5)
O4_5 O 0.38004(11) 0.27998(11) 0.7930(4)
O5_5 O 0.26928(12) 0.32517(12) 0.6037(5)
O6_5 O 0.30325(11) 0.31766(12) 0.4671(5)
O7_5 O 0.27171(14) 0.32206(13) 0.2036(7)
O8_5 O 0.28690(11) 0.36525(12) 0.2647(5)
O9_5 O 0.38410(11) 0.30757(10) 0.4026(5)
O10_5 O 0.41485(11) 0.33571(11) 0.2972(5)
O11_5 O 0.35853(10) 0.36631(10) 0.5027(4)
O12_5 O 0.34721(10) 0.36970(11) 0.3055(5)
O13_5 O 0.33388(11) 0.30782(10) 0.2611(5)
H27_5 H 0.3256 0.3101 0.3310
H28_5 H 0.3269 0.2924 0.2270
O14_5 O 0.37608(11) 0.34272(12) 0.1147(5)
H29_5 H 0.3822 0.3302 0.1684
H30_5 H 0.3804 0.3361 0.0426
H32_5 H 0.2721 0.3718 0.0262
O16_5 O 0.29799(12) 0.38145(11) 0.4992(5)
O17_5 O 0.36272(11) 0.36146(11) 0.7623(5)
H33_5 H 0.3719 0.3459 0.7817
H34_5 H 0.3742 0.3729 0.7243
O18_5 O 0.28981(18) 0.37349(16) 0.7722(6)
O19_5 O 0.31886(19) 0.40552(18) 0.7121(7)
O20_5 O 0.34401(15) 0.38137(14) 0.9751(6)
O22_5 O 0.35380(11) 0.30828(11) 0.6104(4)
H35_5 H 0.3444 0.2923 0.6248
H36_5 H 0.3604 0.3078 0.5370
Co1_5 Co 0.45380(2) 0.41756(2) 0.62776(9)
Tb1_5 Tb 0.322183(7) 0.349140(7) 0.63397(3)
N9_5 N 0.47223(13) 0.42160(13) 0.8074(6)
N10_5 N 0.49276(12) 0.39360(13) 0.6129(5)
N11_5 N 0.41537(13) 0.44359(13) 0.6537(6)
N12_5 N 0.47100(13) 0.46158(13) 0.6087(6)
O15_5 O 0.28495(17) 0.35892(14) 0.9951(7)
H31_5 H 0.2748 0.3425 0.9778
C1_6 C 0.44685(15) 0.57073(15) 0.1379(6)
C2_6 C 0.47942(16) 0.56925(16) 0.1215(6)
C3_6 C 0.49057(17) 0.54968(17) 0.0355(7)
C4_6 C 0.52029(17) 0.54504(19) 0.0284(8)
C5_6 C 0.53827(18) 0.55932(19) 0.1111(7)
H5_6 H 0.5582 0.5555 0.1099
C6_6 C 0.49918(15) 0.58449(15) 0.1940(6)
C7_6 C 0.49180(15) 0.60843(15) 0.2825(6)
C8_6 C 0.50381(16) 0.62735(16) 0.4715(7)
H6_4 H 0.5139 0.6257 0.5446
C9_6 C 0.48612(16) 0.65105(16) 0.4540(7)
H7_4 H 0.4842 0.6652 0.5141
C10_6 C 0.47111(16) 0.65360(16) 0.3455(7)
H8_6 H 0.4595 0.6699 0.3309
C11_6 C 0.47352(15) 0.63177(15) 0.2583(6)
C12_6 C 0.45644(16) 0.63460(15) 0.1411(6)
H10_6 H 0.4364 0.6935 0.0184
H11_6 H 0.3868 0.6997 0.0470
C37_6 C 0.3535(3) 0.5480(2) 0.0248(9)
C38_6 C 0.3315(3) 0.5300(3) 0.1095(12)
C39_6 C 0.3383(3) 0.5004(3) 0.1345(12)
H21_6 H 0.3553 0.4930 0.1001
C40_6 C 0.3210(3) 0.4803(3) 0.2093(13)
H22_6 H 0.3266 0.4621 0.2390
C41_6 C 0.2940(3) 0.4944(3) 0.2262(13)
H23_6 H 0.2790 0.4827 0.2556
C42_6 C 0.3071(3) 0.5408(3) 0.1584(11)
C43_6 C 0.3001(2) 0.5721(3) 0.1510(10)
C44_6 C 0.2702(3) 0.6135(3) 0.1152(11)
H24_6 H 0.2531 0.6208 0.0809
C45_6 C 0.2849(3) 0.6331(3) 0.1661(11)
H25_6 H 0.2791 0.6525 0.1733
C46_6 C 0.3097(2) 0.6223(3) 0.2078(10)
H26_6 H 0.3230 0.6353 0.2415
C47_6 C 0.3177(2) 0.5922(2) 0.2052(8)
C48_6 C 0.34506(16) 0.58498(16) 0.2697(7)
N1_6 N 0.52777(13) 0.57840(13) 0.1926(6)
N2_6 N 0.50724(12) 0.60640(13) 0.3871(5)
N7_6 N 0.2728(2) 0.5844(2) 0.0977(9)
N8_6 N 0.2869(2) 0.5224(3) 0.2059(10)
O1_6 O 0.43160(11) 0.56442(11) 0.0485(4)
O2_6 O 0.43797(11) 0.57669(11) 0.2427(5)
O3_6 O 0.43022(11) 0.64124(11) 0.1498(5)
O4_6 O 0.47002(11) 0.63004(11) 0.0430(4)
O17_6 O 0.38854(11) 0.61272(11) 0.0123(5)
H33_6 H 0.4041 0.6219 0.0317
O18_6 O 0.37651(16) 0.53981(18) 0.0222(6)
O20_6 O 0.36863(14) 0.59401(15) 0.2251(6)
O21_6 O 0.34476(12) 0.57069(13) 0.3650(5)
N9_6 N 0.32840(13) 0.72223(13) 0.0574(6)
Co3_6 Co 0.54620(2) 0.58244(2) 0.37224(9)
Tb3_6 Tb 0.400155(7) 0.575136(8) 0.38475(3)
H1_6 H 0.3757(14) 0.547(2) 0.679(3)
H2_6 H 0.3501(5) 0.548(2) 0.747(7)
H3_6 H 0.4780 0.5398 0.9834
H4_6 H 0.5281 0.5327 0.9698
C13_6 C 0.42424(15) 0.65423(16) 0.6446(6)
C14_6 C 0.41299(15) 0.66713(15) 0.7630(6)
C15_6 C 0.43274(16) 0.67571(16) 0.8512(7)
H9_6 H 0.4526 0.6733 0.8379
C16_6 C 0.42319(16) 0.68786(15) 0.9585(7)
C17_6 C 0.39345(16) 0.69149(15) 0.9748(6)
C18_6 C 0.38321(15) 0.67130(15) 0.7858(6)
C19_6 C 0.35905(15) 0.66505(15) 0.6984(6)
C20_6 C 0.31687(17) 0.68399(18) 0.6154(7)
H12_6 H 0.3026 0.6984 0.6145
C21_6 C 0.31499(18) 0.66155(18) 0.5323(7)
H13_6 H 0.3006 0.6616 0.4727
C22_6 C 0.33485(16) 0.63925(17) 0.5397(7)
H14_6 H 0.3334 0.6235 0.4869
C23_6 C 0.35699(15) 0.64000(16) 0.6250(6)
C24_6 C 0.37573(14) 0.61301(15) 0.6455(6)
C25_6 C 0.43684(15) 0.52798(15) 0.7590(7)
C26_6 C 0.45865(16) 0.50815(16) 0.6966(7)
C27_6 C 0.48806(16) 0.51519(16) 0.7015(7)
H15_6 H 0.4940 0.5331 0.7328
C28_5 C 0.50871(16) 0.49521(16) 0.6591(7)
H16_5 H 0.5285 0.4998 0.6600
C29_6 C 0.49938(16) 0.46858(17) 0.6158(7)
H17_5 H 0.5132 0.4550 0.5908
C30_6 C 0.45079(16) 0.48152(15) 0.6430(7)
C31_6 C 0.42035(16) 0.47164(16) 0.6231(7)
C32_6 C 0.38855(17) 0.43269(16) 0.6419(7)
H18_6 H 0.3852 0.4134 0.6647
C33_6 C 0.36519(17) 0.44926(17) 0.5963(9)
H19_6 H 0.3465 0.4415 0.5916
C34_6 C 0.37087(17) 0.47738(17) 0.5586(9)
H20_6 H 0.3559 0.4887 0.5263
C35_6 C 0.39894(16) 0.48908(16) 0.5686(8)
C36_6 C 0.40517(18) 0.51794(17) 0.5077(8)
N3_6 N 0.37399(13) 0.68364(13) 0.8905(5)
N4_6 N 0.33847(13) 0.68580(13) 0.6978(5)
O5_6 O 0.42483(12) 0.51928(12) 0.8537(5)
O6_6 O 0.43234(12) 0.55325(11) 0.7171(5)
O7_6 O 0.42794(13) 0.52171(14) 0.4536(7)
O8_6 O 0.38475(12) 0.53690(11) 0.5147(5)
O9_6 O 0.44243(10) 0.63410(11) 0.6526(5)
O10_6 O 0.41429(11) 0.66485(11) 0.5472(5)
O11_6 O 0.38369(10) 0.60853(10) 0.7527(4)
O12_6 O 0.38030(11) 0.59721(10) 0.5555(5)
O13_6 O 0.44218(10) 0.58388(11) 0.5111(5)
H27_6 H 0.4399 0.5756 0.5810
H28_6 H 0.4576 0.5769 0.4770
O14_6 O 0.40728(12) 0.62608(11) 0.3647(5)
H29_6 H 0.4198 0.6322 0.4184
H30_6 H 0.4139 0.6304 0.2926
O15_6 O 0.39108(14) 0.53495(17) 0.2451(7)
H31_6 H 0.4075 0.5248 0.2278
H32_6 H 0.3782 0.5221 0.2762
O16_6 O 0.36855(11) 0.54799(12) 0.7492(5)
H34_6 H 0.3771 0.6242 0.9743
O19_6 O 0.34448(18) 0.56886(19) 0.9621(7)
O22_6 O 0.44172(11) 0.60380(11) 0.8604(4)
H35_6 H 0.4577 0.5944 0.8748
H36_6 H 0.4422 0.6104 0.7870
Tb1_6 Tb 0.400860(7) 0.572183(7) 0.88397(3)
N10_6 N 0.35640(13) 0.74276(12) 0.8629(5)
C7_7 C 0.64157(15) 0.24180(15) 0.0325(6)
C8_7 C 0.62265(16) 0.25381(16) 0.2215(7)
H6_5 H 0.6243 0.2639 0.2946
C9_7 C 0.59895(16) 0.23612(16) 0.2040(7)
H7_5 H 0.5848 0.2342 0.2641
C10_7 C 0.59640(16) 0.22111(16) 0.0955(7)
H8_7 H 0.5801 0.2095 0.0809
C11_7 C 0.61823(15) 0.22352(15) 0.0083(6)
H23_7 H 0.7673 0.0290 0.0056
C48_7 C 0.66502(16) 0.09506(16) 0.0197(7)
N2_7 N 0.64360(13) 0.25724(12) 0.1371(5)
O21_7 O 0.67931(13) 0.09476(12) 0.1150(5)
Co3_7 Co 0.66756(2) 0.29620(2) 0.12224(9)
Tb3_7 Tb 0.674864(8) 0.150155(7) 0.13475(3)
H1_7 H 0.703(2) 0.1257(14) 0.429(3)
H2_7 H 0.702(2) 0.1001(5) 0.497(7)
C1_7 C 0.67927(15) 0.19685(15) 0.8879(6)
C2_7 C 0.68075(16) 0.22942(16) 0.8715(6)
C3_7 C 0.70032(17) 0.24057(17) 0.7855(7)
H3_7 H 0.7102 0.2280 0.7334
C4_7 C 0.70496(19) 0.27029(17) 0.7784(8)
H4_7 H 0.7173 0.2781 0.7198
C5_7 C 0.69068(19) 0.28827(18) 0.8611(7)
H5_7 H 0.6945 0.3082 0.8599
C6_7 C 0.66551(15) 0.24918(15) 0.9440(6)
C12_7 C 0.61540(15) 0.20644(16) 0.8911(6)
C13_7 C 0.59577(16) 0.17424(15) 0.3946(6)
C14_7 C 0.58287(15) 0.16299(15) 0.5130(6)
C15_7 C 0.57429(16) 0.18274(16) 0.6012(7)
H9_7 H 0.5767 0.2026 0.5879
C16_7 C 0.56214(15) 0.17319(16) 0.7085(7)
H10_7 H 0.5565 0.1864 0.7684
C17_7 C 0.55851(15) 0.14345(16) 0.7248(6)
H11_7 H 0.5503 0.1368 0.7970
C18_7 C 0.57870(15) 0.13321(15) 0.5358(6)
C19_7 C 0.58495(15) 0.10905(15) 0.4484(6)
C20_7 C 0.56601(18) 0.06687(17) 0.3654(7)
H12_7 H 0.5516 0.0526 0.3645
C21_7 C 0.58845(18) 0.06499(18) 0.2823(7)
H13_7 H 0.5884 0.0506 0.2227
C22_7 C 0.61075(17) 0.08485(16) 0.2897(7)
H14_7 H 0.6265 0.0834 0.2369
C23_7 C 0.61000(16) 0.10699(15) 0.3750(6)
C24_7 C 0.63699(15) 0.12573(14) 0.3955(6)
C25_7 C 0.72202(15) 0.18684(15) 0.5090(7)
C26_7 C 0.74185(16) 0.20865(16) 0.4466(7)
C27_7 C 0.73481(16) 0.23806(16) 0.4515(7)
H15_7 H 0.7169 0.2440 0.4828
C28_6 C 0.75479(16) 0.25871(16) 0.4091(7)
H16_6 H 0.7502 0.2785 0.4100
C29_7 C 0.78142(17) 0.24938(16) 0.3658(7)
H17_6 H 0.7950 0.2632 0.3408
C30_7 C 0.76848(15) 0.20079(16) 0.3930(7)
C31_7 C 0.77836(16) 0.17035(16) 0.3731(7)
C32_7 C 0.81731(16) 0.13855(17) 0.3919(7)
H18_7 H 0.8366 0.1352 0.4147
C33_7 C 0.80074(17) 0.11519(17) 0.3463(9)
H19_7 H 0.8085 0.0965 0.3416
C34_7 C 0.77262(17) 0.12087(17) 0.3086(9)
H20_7 H 0.7613 0.1059 0.2763
C35_7 C 0.76092(16) 0.14894(16) 0.3186(8)
C36_7 C 0.73206(17) 0.15517(18) 0.2577(8)
C37_7 C 0.7020(2) 0.1035(3) 0.7748(9)
C38_7 C 0.7200(3) 0.0815(3) 0.8595(12)
C39_7 C 0.7496(3) 0.0883(3) 0.8845(12)
H21_7 H 0.7570 0.1053 0.8501
C40_7 C 0.7697(3) 0.0710(3) 0.9593(13)
H22_7 H 0.7879 0.0766 0.9890
C41_7 C 0.7556(3) 0.0440(3) 0.9762(13)
C42_7 C 0.7092(3) 0.0571(3) 0.9084(11)
C43_7 C 0.6779(3) 0.0501(2) 0.9010(10)
C44_7 C 0.6365(3) 0.0202(3) 0.8652(11)
H24_7 H 0.6292 0.0031 0.8309
C45_7 C 0.6169(3) 0.0349(3) 0.9161(11)
H25_7 H 0.5975 0.0291 0.9233
C46_7 C 0.6277(3) 0.0597(2) 0.9578(10)
H26_7 H 0.6147 0.0730 0.9915
C47_7 C 0.6578(2) 0.0677(2) 0.9552(8)
N1_7 N 0.67160(13) 0.27777(13) 0.9426(6)
N3_7 N 0.56636(13) 0.12399(13) 0.6405(5)
N4_7 N 0.56420(13) 0.08847(13) 0.4478(5)
N7_7 N 0.6656(2) 0.0228(2) 0.8477(9)
N8_7 N 0.7276(3) 0.0369(2) 0.9559(10)
O1_7 O 0.68558(11) 0.18160(11) 0.7985(4)
O2_7 O 0.67331(11) 0.18797(11) 0.9927(5)
O3_7 O 0.60876(11) 0.18022(11) 0.8998(5)
O4_7 O 0.61996(11) 0.22002(11) 0.7930(4)
O5_7 O 0.73072(12) 0.17483(12) 0.6037(5)
O6_7 O 0.69675(11) 0.18234(12) 0.4671(5)
O7_7 O 0.72829(14) 0.17794(13) 0.2036(7)
O8_7 O 0.71310(11) 0.13475(12) 0.2647(5)
O9_7 O 0.61590(11) 0.19243(10) 0.4026(5)
O10_7 O 0.58515(11) 0.16429(11) 0.2972(5)
O11_7 O 0.64147(10) 0.13369(10) 0.5027(4)
O12_7 O 0.65279(10) 0.13030(11) 0.3055(5)
O13_7 O 0.66612(11) 0.19218(10) 0.2611(5)
H27_7 H 0.6744 0.1899 0.3310
H28_7 H 0.6731 0.2076 0.2270
O14_7 O 0.62392(11) 0.15728(12) 0.1147(5)
H29_7 H 0.6178 0.1698 0.1684
H30_7 H 0.6196 0.1639 0.0426
H32_7 H 0.7279 0.1282 0.0262
O16_7 O 0.70201(12) 0.11855(11) 0.4992(5)
O17_7 O 0.63728(11) 0.13854(11) 0.7623(5)
H33_7 H 0.6281 0.1541 0.7817
H34_7 H 0.6258 0.1271 0.7243
O18_7 O 0.71019(18) 0.12651(16) 0.7722(6)
O19_7 O 0.68114(19) 0.09448(18) 0.7121(7)
O20_7 O 0.65599(15) 0.11863(14) 0.9751(6)
O22_7 O 0.64620(11) 0.19172(11) 0.6104(4)
H35_7 H 0.6556 0.2077 0.6248
H36_7 H 0.6396 0.1922 0.5370
Co1_6 Co 0.54620(2) 0.08244(2) 0.62776(9)
Tb1_7 Tb 0.677817(7) 0.150860(7) 0.63397(3)
N9_7 N 0.52777(13) 0.07840(13) 0.8074(6)
N10_7 N 0.50724(12) 0.10640(13) 0.6129(5)
N11_6 N 0.58463(13) 0.05641(13) 0.6537(6)
N12_6 N 0.52900(13) 0.03842(13) 0.6087(6)
O15_7 O 0.71505(17) 0.14108(14) 0.9951(7)
H31_7 H 0.7252 0.1575 0.9778
C28_7 C 0.49129(16) 0.00479(16) 0.6591(7)
H16_7 H 0.4715 0.0002 0.6600
C29_8 C 0.50062(16) 0.03142(17) 0.6158(7)
H17_7 H 0.4868 0.0450 0.5908
C30_8 C 0.54921(16) 0.01848(15) 0.6430(7)
C31_8 C 0.57965(16) 0.02836(16) 0.6231(7)
C32_8 C 0.61145(17) 0.06731(16) 0.6419(7)
H18_8 H 0.6148 0.0866 0.6647
C33_8 C 0.63481(17) 0.05074(17) 0.5963(9)
H19_8 H 0.6535 0.0585 0.5916
C34_8 C 0.62913(17) 0.02262(17) 0.5586(9)
H20_8 H 0.6441 0.0113 0.5263
C35_8 C 0.60106(16) 0.01092(16) 0.5686(8)
C1_8 C 0.55315(15) 0.92927(15) 0.1379(6)
C2_8 C 0.52058(16) 0.93075(16) 0.1215(6)
C3_8 C 0.50943(17) 0.95032(17) 0.0355(7)
C4_8 C 0.47971(17) 0.95496(19) 0.0284(8)
C5_8 C 0.46173(18) 0.94068(19) 0.1111(7)
H5_8 H 0.4418 0.9445 0.1099
C6_8 C 0.50082(15) 0.91551(15) 0.1940(6)
C7_8 C 0.50820(15) 0.89157(15) 0.2825(6)
C8_8 C 0.49619(16) 0.87265(16) 0.4715(7)
H6_6 H 0.4861 0.8743 0.5446
C9_8 C 0.51388(16) 0.84895(16) 0.4540(7)
H7_6 H 0.5158 0.8348 0.5141
C10_8 C 0.52889(16) 0.84640(16) 0.3455(7)
H8_8 H 0.5405 0.8301 0.3309
C11_8 C 0.52648(15) 0.86823(15) 0.2583(6)
C12_8 C 0.54356(16) 0.86540(15) 0.1411(6)
H10_8 H 0.5636 0.8065 0.0184
H11_8 H 0.6132 0.8003 0.0470
C37_8 C 0.6465(3) 0.9520(2) 0.0248(9)
C38_8 C 0.6685(3) 0.9700(3) 0.1095(12)
C39_8 C 0.6617(3) 0.9996(3) 0.1345(12)
C42_8 C 0.6929(3) 0.9592(3) 0.1584(11)
C43_8 C 0.6999(2) 0.9279(3) 0.1510(10)
C44_8 C 0.7298(3) 0.8865(3) 0.1152(11)
H24_8 H 0.7469 0.8792 0.0809
C45_8 C 0.7151(3) 0.8669(3) 0.1661(11)
H25_8 H 0.7209 0.8475 0.1733
C46_8 C 0.6903(2) 0.8777(3) 0.2078(10)
H26_8 H 0.6770 0.8647 0.2415
C47_8 C 0.6823(2) 0.9078(2) 0.2052(8)
C48_8 C 0.65494(16) 0.91502(16) 0.2697(7)
N1_8 N 0.47223(13) 0.92160(13) 0.1926(6)
N2_8 N 0.49276(12) 0.89360(13) 0.3871(5)
N7_8 N 0.7272(2) 0.9156(2) 0.0977(9)
N8_8 N 0.7131(2) 0.9776(3) 0.2059(10)
O1_8 O 0.56840(11) 0.93558(11) 0.0485(4)
O2_8 O 0.56203(11) 0.92331(11) 0.2427(5)
O3_8 O 0.56978(11) 0.85876(11) 0.1498(5)
O4_8 O 0.52998(11) 0.86996(11) 0.0430(4)
O17_8 O 0.61146(11) 0.88728(11) 0.0123(5)
H33_8 H 0.5959 0.8781 0.0317
O18_8 O 0.62349(16) 0.96019(18) 0.0222(6)
O20_8 O 0.63137(14) 0.90599(15) 0.2251(6)
O21_8 O 0.65524(12) 0.92931(13) 0.3650(5)
N9_8 N 0.67160(13) 0.77777(13) 0.0574(6)
Co3_8 Co 0.45380(2) 0.91756(2) 0.37224(9)
Tb3_8 Tb 0.599845(7) 0.924864(8) 0.38475(3)
H1_8 H 0.6243(14) 0.953(2) 0.679(3)
H2_8 H 0.6499(5) 0.952(2) 0.747(7)
H3_8 H 0.5220 0.9602 0.9834
H4_8 H 0.4719 0.9673 0.9698
C13_8 C 0.57576(15) 0.84577(16) 0.6446(6)
C14_8 C 0.58701(15) 0.83287(15) 0.7630(6)
C15_8 C 0.56726(16) 0.82429(16) 0.8512(7)
H9_8 H 0.5474 0.8267 0.8379
C16_8 C 0.57681(16) 0.81214(15) 0.9585(7)
C17_8 C 0.60655(16) 0.80851(15) 0.9748(6)
C18_8 C 0.61679(15) 0.82870(15) 0.7858(6)
C19_8 C 0.64095(15) 0.83495(15) 0.6984(6)
C20_8 C 0.68313(17) 0.81601(18) 0.6154(7)
H12_8 H 0.6974 0.8016 0.6145
C21_8 C 0.68501(18) 0.83845(18) 0.5323(7)
H13_8 H 0.6994 0.8384 0.4727
C22_8 C 0.66515(16) 0.86075(17) 0.5397(7)
H14_8 H 0.6666 0.8765 0.4869
C23_8 C 0.64301(15) 0.86000(16) 0.6250(6)
C24_8 C 0.62427(14) 0.88699(15) 0.6455(6)
C25_8 C 0.56316(15) 0.97202(15) 0.7590(7)
C26_8 C 0.54135(16) 0.99185(16) 0.6966(7)
C27_8 C 0.51194(16) 0.98481(16) 0.7015(7)
H15_8 H 0.5060 0.9669 0.7328
C36_8 C 0.59483(18) 0.98206(17) 0.5077(8)
N3_8 N 0.62601(13) 0.81636(13) 0.8905(5)
N4_8 N 0.66153(13) 0.81420(13) 0.6978(5)
O5_8 O 0.57517(12) 0.98072(12) 0.8537(5)
O6_8 O 0.56766(12) 0.94675(11) 0.7171(5)
O7_8 O 0.57206(13) 0.97829(14) 0.4536(7)
O8_8 O 0.61525(12) 0.96310(11) 0.5147(5)
O9_8 O 0.55757(10) 0.86590(11) 0.6526(5)
O10_8 O 0.58571(11) 0.83515(11) 0.5472(5)
O11_8 O 0.61631(10) 0.89147(10) 0.7527(4)
O12_8 O 0.61970(11) 0.90279(10) 0.5555(5)
O13_8 O 0.55782(10) 0.91612(11) 0.5111(5)
H27_8 H 0.5601 0.9244 0.5810
H28_8 H 0.5424 0.9231 0.4770
O14_8 O 0.59272(12) 0.87392(11) 0.3647(5)
H29_8 H 0.5802 0.8678 0.4184
H30_8 H 0.5861 0.8696 0.2926
O15_8 O 0.60892(14) 0.96505(17) 0.2451(7)
H31_8 H 0.5925 0.9752 0.2278
H32_8 H 0.6218 0.9779 0.2762
O16_8 O 0.63145(11) 0.95201(12) 0.7492(5)
H34_8 H 0.6229 0.8758 0.9743
O19_8 O 0.65552(18) 0.93114(19) 0.9621(7)
O22_8 O 0.55828(11) 0.89620(11) 0.8604(4)
H35_8 H 0.5423 0.9056 0.8748
H36_8 H 0.5578 0.8896 0.7870
Tb1_8 Tb 0.599140(7) 0.927817(7) 0.88397(3)
N10_8 N 0.64360(13) 0.75724(12) 0.8629(5)
H1_9 H 0.203(2) 0.1257(14) 0.071(3)
H2_9 H 0.202(2) 0.1001(5) 0.003(7)
C13_9 C 0.09577(16) 0.17424(15) 0.1054(6)
C19_9 C 0.08495(15) 0.10905(15) 0.0516(6)
C20_9 C 0.06601(18) 0.06687(17) 0.1346(7)
H12_9 H 0.0516 0.0526 0.1355
C21_9 C 0.08845(18) 0.06499(18) 0.2177(7)
H13_9 H 0.0884 0.0506 0.2773
C22_9 C 0.11075(17) 0.08485(16) 0.2103(7)
H14_9 H 0.1265 0.0834 0.2631
C23_9 C 0.11000(16) 0.10699(15) 0.1250(6)
C24_9 C 0.13699(15) 0.12573(14) 0.1045(6)
C26_9 C 0.24185(16) 0.20865(16) 0.0534(7)
C27_9 C 0.23481(16) 0.23806(16) 0.0485(7)
H15_9 H 0.2169 0.2440 0.0172
C28_8 C 0.25479(16) 0.25871(16) 0.0909(7)
H16_8 H 0.2502 0.2785 0.0900
C29_9 C 0.28142(17) 0.24938(16) 0.1342(7)
H17_8 H 0.2950 0.2632 0.1592
C30_9 C 0.26848(15) 0.20079(16) 0.1070(7)
C31_9 C 0.27836(16) 0.17035(16) 0.1269(7)
C32_9 C 0.31731(16) 0.13855(17) 0.1081(7)
H18_9 H 0.3366 0.1352 0.0853
C33_9 C 0.30074(17) 0.11519(17) 0.1537(9)
H19_9 H 0.3085 0.0965 0.1584
C34_9 C 0.27262(17) 0.12087(17) 0.1914(9)
H20_9 H 0.2613 0.1059 0.2237
C35_9 C 0.26092(16) 0.14894(16) 0.1814(8)
C36_9 C 0.23206(17) 0.15517(18) 0.2423(8)
N4_9 N 0.06420(13) 0.08847(13) 0.0522(5)
N5_3 N 0.30641(13) 0.16537(13) 0.0963(6)
N6_3 N 0.28842(13) 0.22100(13) 0.1413(6)
O6_9 O 0.19675(11) 0.18234(12) 0.0329(5)
O7_9 O 0.22829(14) 0.17794(13) 0.2964(7)
O8_9 O 0.21310(11) 0.13475(12) 0.2353(5)
O9_9 O 0.11590(11) 0.19243(10) 0.0974(5)
O10_9 O 0.08515(11) 0.16429(11) 0.2028(5)
O12_9 O 0.15279(10) 0.13030(11) 0.1945(5)
O13_9 O 0.16612(11) 0.19218(10) 0.2389(5)
H27_9 H 0.1744 0.1899 0.1690
H28_9 H 0.1731 0.2076 0.2730
O14_9 O 0.12392(11) 0.15728(12) 0.3853(5)
H29_9 H 0.1178 0.1698 0.3316
H30_9 H 0.1196 0.1639 0.4574
O15_9 O 0.21505(17) 0.14108(14) 0.5049(7)
H31_9 H 0.2252 0.1575 0.5222
H32_9 H 0.2279 0.1282 0.4738
O16_9 O 0.20201(12) 0.11855(11) 0.0008(5)
Tb2 Tb 0.174864(8) 0.150155(7) 0.36525(3)
O23 O 0.17331(11) 0.18797(11) 0.5073(5)
O24 O 0.15599(15) 0.11863(14) 0.5249(6)
O25 O 0.17931(13) 0.09476(12) 0.3850(5)
C1_9 C 0.17927(15) 0.19685(15) 0.6121(6)
C2_9 C 0.18075(16) 0.22942(16) 0.6285(6)
C3_9 C 0.20032(17) 0.24057(17) 0.7145(7)
H3_9 H 0.2102 0.2280 0.7666
C4_9 C 0.20496(19) 0.27029(17) 0.7216(8)
H4_9 H 0.2173 0.2781 0.7802
C5_9 C 0.19068(19) 0.28827(18) 0.6389(7)
H5_9 H 0.1945 0.3082 0.6401
C6_9 C 0.16551(15) 0.24918(15) 0.5560(6)
C7_9 C 0.14157(15) 0.24180(15) 0.4675(6)
C8_9 C 0.12265(16) 0.25381(16) 0.2785(7)
H6_7 H 0.1243 0.2639 0.2054
C9_9 C 0.09895(16) 0.23612(16) 0.2960(7)
H7_7 H 0.0848 0.2342 0.2359
C10_9 C 0.09640(16) 0.22111(16) 0.4045(7)
H8_9 H 0.0801 0.2095 0.4191
C11_9 C 0.11823(15) 0.22352(15) 0.4917(6)
C12_9 C 0.11540(15) 0.20644(16) 0.6089(6)
C14_9 C 0.08287(15) 0.16299(15) 0.9870(6)
C15_9 C 0.07429(16) 0.18274(16) 0.8988(7)
H9_9 H 0.0767 0.2026 0.9121
C16_9 C 0.06214(15) 0.17319(16) 0.7915(7)
H10_9 H 0.0565 0.1864 0.7316
C17_9 C 0.05851(15) 0.14345(16) 0.7752(6)
H11_9 H 0.0503 0.1368 0.7030
C18_9 C 0.07870(15) 0.13321(15) 0.9642(6)
C25_9 C 0.22202(15) 0.18684(15) 0.9910(7)
C37_9 C 0.2020(2) 0.1035(3) 0.7252(9)
C38_9 C 0.2200(3) 0.0815(3) 0.6405(12)
C39_9 C 0.2496(3) 0.0883(3) 0.6155(12)
H21_8 H 0.2570 0.1053 0.6499
C40_8 C 0.2697(3) 0.0710(3) 0.5407(13)
H22_8 H 0.2879 0.0766 0.5110
C41_8 C 0.2556(3) 0.0440(3) 0.5238(13)
H23_8 H 0.2673 0.0290 0.4944
C42_9 C 0.2092(3) 0.0571(3) 0.5916(11)
C43_9 C 0.1779(3) 0.0501(2) 0.5990(10)
C44_9 C 0.1365(3) 0.0202(3) 0.6348(11)
H24_9 H 0.1292 0.0031 0.6691
C45_9 C 0.1169(3) 0.0349(3) 0.5839(11)
H25_9 H 0.0975 0.0291 0.5767
C46_9 C 0.1277(3) 0.0597(2) 0.5422(10)
H26_9 H 0.1147 0.0730 0.5085
C47_9 C 0.1578(2) 0.0677(2) 0.5448(8)
C48_9 C 0.16502(16) 0.09506(16) 0.4803(7)
N3_9 N 0.06636(13) 0.12399(13) 0.8595(5)
N7_9 N 0.1656(2) 0.0228(2) 0.6523(9)
N8_9 N 0.2276(3) 0.0369(2) 0.5441(10)
O1_9 O 0.18558(11) 0.18160(11) 0.7015(4)
O3_9 O 0.10876(11) 0.18022(11) 0.6002(5)
O4_9 O 0.11996(11) 0.22002(11) 0.7070(4)
O5_9 O 0.23072(12) 0.17483(12) 0.8963(5)
O11_9 O 0.14147(10) 0.13369(10) 0.9973(4)
O17_9 O 0.13728(11) 0.13854(11) 0.7377(5)
H33_9 H 0.1281 0.1541 0.7183
H34_9 H 0.1258 0.1271 0.7757
O18_9 O 0.21019(18) 0.12651(16) 0.7278(6)
O19_9 O 0.18114(19) 0.09448(18) 0.7879(7)
O22_9 O 0.14620(11) 0.19172(11) 0.8896(4)
H35_9 H 0.1556 0.2077 0.8752
H36_9 H 0.1396 0.1922 0.9630
Tb1_9 Tb 0.177817(7) 0.150860(7) 0.86603(3)
N11_7 N 0.08463(13) 0.05641(13) 0.8463(6)
N12_7 N 0.02900(13) 0.03842(13) 0.8913(6)
C29_10 C 0.00062(16) 0.03142(17) 0.8842(7)
C30_10 C 0.04921(16) 0.01848(15) 0.8570(7)
C31_10 C 0.07965(16) 0.02836(16) 0.8769(7)
C32_10 C 0.11145(17) 0.06731(16) 0.8581(7)
H18_10 H 0.1148 0.0866 0.8353
C33_10 C 0.13481(17) 0.05074(17) 0.9037(9)
H19_10 H 0.1535 0.0585 0.9084
C34_10 C 0.12913(17) 0.02262(17) 0.9414(9)
H20_10 H 0.1441 0.0113 0.9737
C35_10 C 0.10106(16) 0.01092(16) 0.9314(8)
H21_9 H 0.1447 0.0070 0.3999
C40_9 C 0.1790(3) 0.0197(3) 0.2907(13)
H22_9 H 0.1734 0.0379 0.2610
C41_9 C 0.2060(3) 0.0056(3) 0.2738(13)
H23_9 H 0.2210 0.0173 0.2444
H13_10 H 0.1994 0.8384 0.0273
H14_10 H 0.1666 0.8765 0.0131
O7_10 O 0.07206(13) 0.97829(14) 0.0464(7)
H28_10 H 0.0424 0.9231 0.0230
O14_10 O 0.09272(12) 0.87392(11) 0.1353(5)
H29_10 H 0.0802 0.8678 0.0816
H30_10 H 0.0861 0.8696 0.2074
O15_10 O 0.10892(14) 0.96505(17) 0.2549(7)
H31_10 H 0.0925 0.9752 0.2722
H32_10 H 0.1218 0.9779 0.2238
Tb2_2 Tb 0.099845(7) 0.924864(8) 0.11525(3)
O23_2 O 0.06203(11) 0.92331(11) 0.2573(5)
O24_2 O 0.13137(14) 0.90599(15) 0.2749(6)
O25_2 O 0.15524(12) 0.92931(13) 0.1350(5)
H1_10 H 0.1243(14) 0.953(2) 0.821(3)
H2_10 H 0.1499(5) 0.952(2) 0.753(7)
C1_10 C 0.05315(15) 0.92927(15) 0.3621(6)
C2_10 C 0.02058(16) 0.93075(16) 0.3785(6)
C3_10 C 0.00943(17) 0.95032(17) 0.4645(7)
H3_10 H 0.0220 0.9602 0.5166
C6_10 C 0.00082(15) 0.91551(15) 0.3060(6)
C7_10 C 0.00820(15) 0.89157(15) 0.2175(6)
C9_10 C 0.01388(16) 0.84895(16) 0.0460(7)
C10_10 C 0.02889(16) 0.84640(16) 0.1545(7)
H8_10 H 0.0405 0.8301 0.1691
C11_10 C 0.02648(15) 0.86823(15) 0.2417(6)
C12_10 C 0.04356(16) 0.86540(15) 0.3589(6)
C13_10 C 0.07576(15) 0.84577(16) 0.8554(6)
C14_10 C 0.08701(15) 0.83287(15) 0.7370(6)
C15_10 C 0.06726(16) 0.82429(16) 0.6488(7)
H9_10 H 0.0474 0.8267 0.6621
C16_10 C 0.07681(16) 0.81214(15) 0.5415(7)
H10_10 H 0.0636 0.8065 0.4816
C17_10 C 0.10655(16) 0.80851(15) 0.5252(6)
H11_10 H 0.1132 0.8003 0.4530
C18_10 C 0.11679(15) 0.82870(15) 0.7142(6)
C19_10 C 0.14095(15) 0.83495(15) 0.8016(6)
C20_10 C 0.18313(17) 0.81601(18) 0.8846(7)
H12_10 H 0.1974 0.8016 0.8855
C21_10 C 0.18501(18) 0.83845(18) 0.9677(7)
C22_10 C 0.16515(16) 0.86075(17) 0.9603(7)
C23_10 C 0.14301(15) 0.86000(16) 0.8750(6)
C24_10 C 0.12427(14) 0.88699(15) 0.8545(6)
C25_10 C 0.06316(15) 0.97202(15) 0.7410(7)
C26_10 C 0.04135(16) 0.99185(16) 0.8034(7)
C27_10 C 0.01194(16) 0.98481(16) 0.7985(7)
H15_10 H 0.0060 0.9669 0.7672
C36_10 C 0.09483(18) 0.98206(17) 0.9923(8)
C37_10 C 0.1465(3) 0.9520(2) 0.4752(9)
C38_10 C 0.1685(3) 0.9700(3) 0.3905(12)
C39_10 C 0.1617(3) 0.9996(3) 0.3655(12)
C42_10 C 0.1929(3) 0.9592(3) 0.3416(11)
C43_10 C 0.1999(2) 0.9279(3) 0.3490(10)
C44_10 C 0.2298(3) 0.8865(3) 0.3848(11)
H24_10 H 0.2469 0.8792 0.4191
C45_10 C 0.2151(3) 0.8669(3) 0.3339(11)
H25_10 H 0.2209 0.8475 0.3267
C46_10 C 0.1903(2) 0.8777(3) 0.2922(10)
H26_10 H 0.1770 0.8647 0.2585
C47_10 C 0.1823(2) 0.9078(2) 0.2948(8)
C48_10 C 0.15494(16) 0.91502(16) 0.2303(7)
N3_10 N 0.12601(13) 0.81636(13) 0.6095(5)
N4_10 N 0.16153(13) 0.81420(13) 0.8022(5)
N7_10 N 0.2272(2) 0.9156(2) 0.4023(9)
N8_10 N 0.2131(2) 0.9776(3) 0.2941(10)
O1_10 O 0.06840(11) 0.93558(11) 0.4515(4)
O3_10 O 0.06978(11) 0.85876(11) 0.3502(5)
O4_10 O 0.02998(11) 0.86996(11) 0.4570(4)
O5_10 O 0.07517(12) 0.98072(12) 0.6463(5)
O6_10 O 0.06766(12) 0.94675(11) 0.7829(5)
O8_10 O 0.11525(12) 0.96310(11) 0.9853(5)
O9_10 O 0.05757(10) 0.86590(11) 0.8474(5)
O10_10 O 0.08571(11) 0.83515(11) 0.9528(5)
O11_10 O 0.11631(10) 0.89147(10) 0.7473(4)
O12_10 O 0.11970(11) 0.90279(10) 0.9445(5)
O13_10 O 0.05782(10) 0.91612(11) 0.9889(5)
H27_10 H 0.0601 0.9244 0.9190
O16_10 O 0.13145(11) 0.95201(12) 0.7508(5)
O17_10 O 0.11146(11) 0.88728(11) 0.4877(5)
H33_10 H 0.0959 0.8781 0.4683
H34_10 H 0.1229 0.8758 0.5257
O18_10 O 0.12349(16) 0.96019(18) 0.4778(6)
O19_10 O 0.15552(18) 0.93114(19) 0.5379(7)
O22_10 O 0.05828(11) 0.89620(11) 0.6396(4)
H35_10 H 0.0423 0.9056 0.6252
H36_10 H 0.0578 0.8896 0.7130
Tb1_10 Tb 0.099140(7) 0.927817(7) 0.61603(3)
N11_8 N 0.19359(13) 0.83463(13) 0.5963(6)
N12_8 N 0.21158(13) 0.77900(13) 0.6413(6)
C4_10 C 0.97971(17) 0.95496(19) 0.4716(8)
H4_10 H 0.9719 0.9673 0.5302
C5_10 C 0.96173(18) 0.94068(19) 0.3889(7)
H5_10 H 0.9418 0.9445 0.3901
C8_10 C 0.99619(16) 0.87265(16) 0.0285(7)
H1_11 H 0.797(2) 0.3743(14) 0.071(3)
H2_11 H 0.798(2) 0.3999(5) 0.003(7)
C13_11 C 0.90423(16) 0.32576(15) 0.1054(6)
C19_11 C 0.91505(15) 0.39095(15) 0.0516(6)
C20_11 C 0.93399(18) 0.43313(17) 0.1346(7)
H12_11 H 0.9484 0.4474 0.1355
C21_11 C 0.91155(18) 0.43501(18) 0.2177(7)
H13_11 H 0.9116 0.4494 0.2773
C22_11 C 0.88925(17) 0.41515(16) 0.2103(7)
H14_11 H 0.8735 0.4166 0.2631
C23_11 C 0.89000(16) 0.39301(15) 0.1250(6)
C24_11 C 0.86301(15) 0.37427(14) 0.1045(6)
C26_11 C 0.75815(16) 0.29135(16) 0.0534(7)
C27_11 C 0.76519(16) 0.26194(16) 0.0485(7)
H15_11 H 0.7831 0.2560 0.0172
C28_9 C 0.74521(16) 0.24129(16) 0.0909(7)
H16_9 H 0.7498 0.2215 0.0900
C29_11 C 0.71858(17) 0.25062(16) 0.1342(7)
H17_9 H 0.7050 0.2368 0.1592
C30_11 C 0.73152(15) 0.29921(16) 0.1070(7)
C31_11 C 0.72164(16) 0.32965(16) 0.1269(7)
C32_11 C 0.68269(16) 0.36145(17) 0.1081(7)
H18_11 H 0.6634 0.3648 0.0853
C33_11 C 0.69926(17) 0.38481(17) 0.1537(9)
H19_11 H 0.6915 0.4035 0.1584
C34_11 C 0.72738(17) 0.37913(17) 0.1914(9)
H20_11 H 0.7387 0.3941 0.2237
C35_11 C 0.73908(16) 0.35106(16) 0.1814(8)
C36_11 C 0.76794(17) 0.34483(18) 0.2423(8)
N4_11 N 0.93580(13) 0.41153(13) 0.0522(5)
N5_4 N 0.69359(13) 0.33463(13) 0.0963(6)
N6_4 N 0.71158(13) 0.27900(13) 0.1413(6)
O6_11 O 0.80325(11) 0.31766(12) 0.0329(5)
O7_11 O 0.77171(14) 0.32206(13) 0.2964(7)
O8_11 O 0.78690(11) 0.36525(12) 0.2353(5)
O9_11 O 0.88410(11) 0.30757(10) 0.0974(5)
O10_11 O 0.91485(11) 0.33571(11) 0.2028(5)
O12_11 O 0.84721(10) 0.36970(11) 0.1945(5)
O13_11 O 0.83388(11) 0.30782(10) 0.2389(5)
H27_11 H 0.8256 0.3101 0.1690
H28_11 H 0.8269 0.2924 0.2730
O14_11 O 0.87608(11) 0.34272(12) 0.3853(5)
H29_11 H 0.8822 0.3302 0.3316
H30_11 H 0.8804 0.3361 0.4574
O15_11 O 0.78495(17) 0.35892(14) 0.5049(7)
H31_11 H 0.7748 0.3425 0.5222
H32_11 H 0.7721 0.3718 0.4738
O16_11 O 0.79799(12) 0.38145(11) 0.0008(5)
Tb2_3 Tb 0.825136(8) 0.349845(7) 0.36525(3)
O23_3 O 0.82669(11) 0.31203(11) 0.5073(5)
O24_3 O 0.84401(15) 0.38137(14) 0.5249(6)
O25_3 O 0.82069(13) 0.40524(12) 0.3850(5)
C1_11 C 0.82073(15) 0.30315(15) 0.6121(6)
C2_11 C 0.81925(16) 0.27058(16) 0.6285(6)
C3_11 C 0.79968(17) 0.25943(17) 0.7145(7)
H3_11 H 0.7898 0.2720 0.7666
C4_11 C 0.79504(19) 0.22971(17) 0.7216(8)
H4_11 H 0.7827 0.2219 0.7802
C5_11 C 0.80932(19) 0.21173(18) 0.6389(7)
H5_11 H 0.8055 0.1918 0.6401
C6_11 C 0.83449(15) 0.25082(15) 0.5560(6)
C7_11 C 0.85843(15) 0.25820(15) 0.4675(6)
C8_11 C 0.87735(16) 0.24619(16) 0.2785(7)
H6_8 H 0.8757 0.2361 0.2054
C9_11 C 0.90105(16) 0.26388(16) 0.2960(7)
H7_8 H 0.9152 0.2658 0.2359
C10_11 C 0.90360(16) 0.27889(16) 0.4045(7)
H8_11 H 0.9199 0.2905 0.4191
C11_11 C 0.88177(15) 0.27648(15) 0.4917(6)
C12_11 C 0.88460(15) 0.29356(16) 0.6089(6)
C14_11 C 0.91713(15) 0.33701(15) 0.9870(6)
C15_11 C 0.92571(16) 0.31726(16) 0.8988(7)
H9_11 H 0.9233 0.2974 0.9121
C16_11 C 0.93786(15) 0.32681(16) 0.7915(7)
H10_11 H 0.9435 0.3136 0.7316
C17_11 C 0.94149(15) 0.35655(16) 0.7752(6)
H11_11 H 0.9497 0.3632 0.7030
C18_11 C 0.92130(15) 0.36679(15) 0.9642(6)
C25_11 C 0.77798(15) 0.31316(15) 0.9910(7)
C37_11 C 0.7980(2) 0.3965(3) 0.7252(9)
C38_11 C 0.7800(3) 0.4185(3) 0.6405(12)
C39_11 C 0.7504(3) 0.4117(3) 0.6155(12)
H21_10 H 0.7430 0.3947 0.6499
C40_10 C 0.7303(3) 0.4290(3) 0.5407(13)
H22_10 H 0.7121 0.4234 0.5110
C41_10 C 0.7444(3) 0.4560(3) 0.5238(13)
H23_10 H 0.7327 0.4710 0.4944
C42_11 C 0.7908(3) 0.4429(3) 0.5916(11)
C43_11 C 0.8221(3) 0.4499(2) 0.5990(10)
C44_11 C 0.8635(3) 0.4798(3) 0.6348(11)
H24_11 H 0.8708 0.4969 0.6691
C45_11 C 0.8831(3) 0.4651(3) 0.5839(11)
H25_11 H 0.9025 0.4709 0.5767
C46_11 C 0.8723(3) 0.4403(2) 0.5422(10)
H26_11 H 0.8853 0.4270 0.5085
C47_11 C 0.8422(2) 0.4323(2) 0.5448(8)
C48_11 C 0.83498(16) 0.40494(16) 0.4803(7)
N3_11 N 0.93364(13) 0.37601(13) 0.8595(5)
N7_11 N 0.8344(2) 0.4772(2) 0.6523(9)
N8_11 N 0.7724(3) 0.4631(2) 0.5441(10)
O1_11 O 0.81442(11) 0.31840(11) 0.7015(4)
O3_11 O 0.89124(11) 0.31978(11) 0.6002(5)
O4_11 O 0.88004(11) 0.27998(11) 0.7070(4)
O5_11 O 0.76928(12) 0.32517(12) 0.8963(5)
O11_11 O 0.85853(10) 0.36631(10) 0.9973(4)
O17_11 O 0.86272(11) 0.36146(11) 0.7377(5)
H33_11 H 0.8719 0.3459 0.7183
H34_11 H 0.8742 0.3729 0.7757
O18_11 O 0.78981(18) 0.37349(16) 0.7278(6)
O19_11 O 0.81886(19) 0.40552(18) 0.7879(7)
O22_11 O 0.85380(11) 0.30828(11) 0.8896(4)
H35_11 H 0.8444 0.2923 0.8752
H36_11 H 0.8604 0.3078 0.9630
Tb1_11 Tb 0.822183(7) 0.349140(7) 0.86603(3)
N11_9 N 0.91537(13) 0.44359(13) 0.8463(6)
N12_9 N 0.97100(13) 0.46158(13) 0.8913(6)
C4_12 C 0.02029(17) 0.54504(19) 0.4716(8)
H4_12 H 0.0281 0.5327 0.5302
C5_12 C 0.03827(18) 0.55932(19) 0.3889(7)
H5_12 H 0.0582 0.5555 0.3901
C8_12 C 0.00381(16) 0.62735(16) 0.0285(7)
C28_10 C 0.00871(16) 0.49521(16) 0.8409(7)
H16_10 H 0.0285 0.4998 0.8400
H17_10 H 0.0132 0.4550 0.9092
H13_12 H 0.8006 0.6616 0.0273
H14_12 H 0.8334 0.6235 0.0131
O7_12 O 0.92794(13) 0.52171(14) 0.0464(7)
H28_12 H 0.9576 0.5769 0.0230
O14_12 O 0.90728(12) 0.62608(11) 0.1353(5)
H29_12 H 0.9198 0.6322 0.0816
H30_12 H 0.9139 0.6304 0.2074
O15_12 O 0.89108(14) 0.53495(17) 0.2549(7)
H31_12 H 0.9075 0.5248 0.2722
H32_12 H 0.8782 0.5221 0.2238
Tb2_4 Tb 0.900155(7) 0.575136(8) 0.11525(3)
O23_4 O 0.93797(11) 0.57669(11) 0.2573(5)
O24_4 O 0.86863(14) 0.59401(15) 0.2749(6)
O25_4 O 0.84476(12) 0.57069(13) 0.1350(5)
H1_12 H 0.8757(14) 0.547(2) 0.821(3)
H2_12 H 0.8501(5) 0.548(2) 0.753(7)
C1_12 C 0.94685(15) 0.57073(15) 0.3621(6)
C2_12 C 0.97942(16) 0.56925(16) 0.3785(6)
C3_12 C 0.99057(17) 0.54968(17) 0.4645(7)
H3_12 H 0.9780 0.5398 0.5166
C6_12 C 0.99918(15) 0.58449(15) 0.3060(6)
C7_12 C 0.99180(15) 0.60843(15) 0.2175(6)
C9_12 C 0.98612(16) 0.65105(16) 0.0460(7)
C10_12 C 0.97111(16) 0.65360(16) 0.1545(7)
H8_12 H 0.9595 0.6699 0.1691
C11_12 C 0.97352(15) 0.63177(15) 0.2417(6)
C12_12 C 0.95644(16) 0.63460(15) 0.3589(6)
C13_12 C 0.92424(15) 0.65423(16) 0.8554(6)
C14_12 C 0.91299(15) 0.66713(15) 0.7370(6)
C15_12 C 0.93274(16) 0.67571(16) 0.6488(7)
H9_12 H 0.9526 0.6733 0.6621
C16_12 C 0.92319(16) 0.68786(15) 0.5415(7)
H10_12 H 0.9364 0.6935 0.4816
C17_12 C 0.89345(16) 0.69149(15) 0.5252(6)
H11_12 H 0.8868 0.6997 0.4530
C18_12 C 0.88321(15) 0.67130(15) 0.7142(6)
C19_12 C 0.85905(15) 0.66505(15) 0.8016(6)
C20_12 C 0.81687(17) 0.68399(18) 0.8846(7)
H12_12 H 0.8026 0.6984 0.8855
C21_12 C 0.81499(18) 0.66155(18) 0.9677(7)
C22_12 C 0.83485(16) 0.63925(17) 0.9603(7)
C23_12 C 0.85699(15) 0.64000(16) 0.8750(6)
C24_12 C 0.87573(14) 0.61301(15) 0.8545(6)
C25_12 C 0.93684(15) 0.52798(15) 0.7410(7)
C26_12 C 0.95865(16) 0.50815(16) 0.8034(7)
C27_12 C 0.98806(16) 0.51519(16) 0.7985(7)
H15_12 H 0.9940 0.5331 0.7672
C29_12 C 0.99938(16) 0.46858(17) 0.8842(7)
C30_12 C 0.95079(16) 0.48152(15) 0.8570(7)
C31_12 C 0.92035(16) 0.47164(16) 0.8769(7)
C32_12 C 0.88855(17) 0.43269(16) 0.8581(7)
H18_12 H 0.8852 0.4134 0.8353
C33_12 C 0.86519(17) 0.44926(17) 0.9037(9)
H19_12 H 0.8465 0.4415 0.9084
C34_12 C 0.87087(17) 0.47738(17) 0.9414(9)
H20_12 H 0.8559 0.4887 0.9737
C35_12 C 0.89894(16) 0.48908(16) 0.9314(8)
C36_12 C 0.90517(18) 0.51794(17) 0.9923(8)
C37_12 C 0.8535(3) 0.5480(2) 0.4752(9)
C38_12 C 0.8315(3) 0.5300(3) 0.3905(12)
C39_12 C 0.8383(3) 0.5004(3) 0.3655(12)
H21_11 H 0.8553 0.4930 0.3999
C40_11 C 0.8210(3) 0.4803(3) 0.2907(13)
H22_11 H 0.8266 0.4621 0.2610
C41_11 C 0.7940(3) 0.4944(3) 0.2738(13)
H23_11 H 0.7790 0.4827 0.2444
C42_12 C 0.8071(3) 0.5408(3) 0.3416(11)
C43_12 C 0.8001(2) 0.5721(3) 0.3490(10)
C44_12 C 0.7702(3) 0.6135(3) 0.3848(11)
H24_12 H 0.7531 0.6208 0.4191
C45_12 C 0.7849(3) 0.6331(3) 0.3339(11)
H25_12 H 0.7791 0.6525 0.3267
C46_12 C 0.8097(2) 0.6223(3) 0.2922(10)
H26_12 H 0.8230 0.6353 0.2585
C47_12 C 0.8177(2) 0.5922(2) 0.2948(8)
C48_12 C 0.84506(16) 0.58498(16) 0.2303(7)
N3_12 N 0.87399(13) 0.68364(13) 0.6095(5)
N4_12 N 0.83847(13) 0.68580(13) 0.8022(5)
N7_12 N 0.7728(2) 0.5844(2) 0.4023(9)
N8_12 N 0.7869(2) 0.5224(3) 0.2941(10)
O1_12 O 0.93160(11) 0.56442(11) 0.4515(4)
O3_12 O 0.93022(11) 0.64124(11) 0.3502(5)
O4_12 O 0.97002(11) 0.63004(11) 0.4570(4)
O5_12 O 0.92483(12) 0.51928(12) 0.6463(5)
O6_12 O 0.93234(12) 0.55325(11) 0.7829(5)
O8_12 O 0.88475(12) 0.53690(11) 0.9853(5)
O9_12 O 0.94243(10) 0.63410(11) 0.8474(5)
O10_12 O 0.91429(11) 0.66485(11) 0.9528(5)
O11_12 O 0.88369(10) 0.60853(10) 0.7473(4)
O12_12 O 0.88030(11) 0.59721(10) 0.9445(5)
O13_12 O 0.94218(10) 0.58388(11) 0.9889(5)
H27_12 H 0.9399 0.5756 0.9190
O16_12 O 0.86855(11) 0.54799(12) 0.7508(5)
O17_12 O 0.88854(11) 0.61272(11) 0.4877(5)
H33_12 H 0.9041 0.6219 0.4683
H34_12 H 0.8771 0.6242 0.5257
O18_12 O 0.87651(16) 0.53981(18) 0.4778(6)
O19_12 O 0.84448(18) 0.56886(19) 0.5379(7)
O22_12 O 0.94172(11) 0.60380(11) 0.6396(4)
H35_12 H 0.9577 0.5944 0.6252
H36_12 H 0.9422 0.6104 0.7130
Tb1_12 Tb 0.900860(7) 0.572183(7) 0.61603(3)
N11_10 N 0.80641(13) 0.66537(13) 0.5963(6)
N12_10 N 0.78842(13) 0.72100(13) 0.6413(6)
O15_13 O 0.71505(17) 0.64108(14) 0.0049(7)
H31_13 H 0.7252 0.6575 0.0222
O23_5 O 0.67331(11) 0.68797(11) 0.0073(5)
O24_5 O 0.65599(15) 0.61863(14) 0.0249(6)
H1_13 H 0.703(2) 0.6257(14) 0.571(3)
H2_13 H 0.702(2) 0.6001(5) 0.503(7)
C1_13 C 0.67927(15) 0.69685(15) 0.1121(6)
C2_13 C 0.68075(16) 0.72942(16) 0.1285(6)
C3_13 C 0.70032(17) 0.74057(17) 0.2145(7)
H3_13 H 0.7102 0.7280 0.2666
C4_13 C 0.70496(19) 0.77029(17) 0.2216(8)
H4_13 H 0.7173 0.7781 0.2802
C5_13 C 0.69068(19) 0.78827(18) 0.1389(7)
H5_13 H 0.6945 0.8082 0.1401
C6_13 C 0.66551(15) 0.74918(15) 0.0560(6)
C12_13 C 0.61540(15) 0.70644(16) 0.1089(6)
C13_13 C 0.59577(16) 0.67424(15) 0.6054(6)
C14_13 C 0.58287(15) 0.66299(15) 0.4870(6)
C15_13 C 0.57429(16) 0.68274(16) 0.3988(7)
H9_13 H 0.5767 0.7026 0.4121
C16_13 C 0.56214(15) 0.67319(16) 0.2915(7)
H10_13 H 0.5565 0.6864 0.2316
C17_13 C 0.55851(15) 0.64345(16) 0.2752(6)
H11_13 H 0.5503 0.6368 0.2030
C18_13 C 0.57870(15) 0.63321(15) 0.4642(6)
C19_13 C 0.58495(15) 0.60905(15) 0.5516(6)
C20_13 C 0.56601(18) 0.56687(17) 0.6346(7)
H12_13 H 0.5516 0.5526 0.6355
C21_13 C 0.58845(18) 0.56499(18) 0.7177(7)
H13_13 H 0.5884 0.5506 0.7773
C22_13 C 0.61075(17) 0.58485(16) 0.7103(7)
H14_13 H 0.6265 0.5834 0.7631
C23_13 C 0.61000(16) 0.60699(15) 0.6250(6)
C24_13 C 0.63699(15) 0.62573(14) 0.6045(6)
C25_13 C 0.72202(15) 0.68684(15) 0.4910(7)
C26_13 C 0.74185(16) 0.70865(16) 0.5534(7)
C27_13 C 0.73481(16) 0.73806(16) 0.5485(7)
H15_13 H 0.7169 0.7440 0.5172
C28_11 C 0.75479(16) 0.75871(16) 0.5909(7)
H16_11 H 0.7502 0.7785 0.5900
C29_13 C 0.78142(17) 0.74938(16) 0.6342(7)
H17_11 H 0.7950 0.7632 0.6592
C30_13 C 0.76848(15) 0.70079(16) 0.6070(7)
C31_13 C 0.77836(16) 0.67035(16) 0.6269(7)
C32_13 C 0.81731(16) 0.63855(17) 0.6081(7)
H18_13 H 0.8366 0.6352 0.5853
C33_13 C 0.80074(17) 0.61519(17) 0.6537(9)
H19_13 H 0.8085 0.5965 0.6584
C34_13 C 0.77262(17) 0.62087(17) 0.6914(9)
H20_13 H 0.7613 0.6059 0.7237
C35_13 C 0.76092(16) 0.64894(16) 0.6814(8)
C36_13 C 0.73206(17) 0.65517(18) 0.7423(8)
C37_13 C 0.7020(2) 0.6035(3) 0.2252(9)
C38_13 C 0.7200(3) 0.5815(3) 0.1405(12)
C39_13 C 0.7496(3) 0.5883(3) 0.1155(12)
H21_12 H 0.7570 0.6053 0.1499
C40_12 C 0.7697(3) 0.5710(3) 0.0407(13)
H22_12 H 0.7879 0.5766 0.0110
C41_12 C 0.7556(3) 0.5440(3) 0.0238(13)
C42_13 C 0.7092(3) 0.5571(3) 0.0916(11)
C43_13 C 0.6779(3) 0.5501(2) 0.0990(10)
C44_13 C 0.6365(3) 0.5202(3) 0.1348(11)
H24_13 H 0.6292 0.5031 0.1691
C45_13 C 0.6169(3) 0.5349(3) 0.0839(11)
H25_13 H 0.5975 0.5291 0.0767
C46_13 C 0.6277(3) 0.5597(2) 0.0422(10)
H26_13 H 0.6147 0.5730 0.0085
C47_13 C 0.6578(2) 0.5677(2) 0.0448(8)
N3_13 N 0.56636(13) 0.62399(13) 0.3595(5)
N4_13 N 0.56420(13) 0.58847(13) 0.5522(5)
N7_13 N 0.6656(2) 0.5228(2) 0.1523(9)
N8_13 N 0.7276(3) 0.5369(2) 0.0441(10)
O1_13 O 0.68558(11) 0.68160(11) 0.2015(4)
O3_13 O 0.60876(11) 0.68022(11) 0.1002(5)
O4_13 O 0.61996(11) 0.72002(11) 0.2070(4)
O5_13 O 0.73072(12) 0.67483(12) 0.3963(5)
O6_13 O 0.69675(11) 0.68234(12) 0.5329(5)
O7_13 O 0.72829(14) 0.67794(13) 0.7964(7)
O8_13 O 0.71310(11) 0.63475(12) 0.7353(5)
O9_13 O 0.61590(11) 0.69243(10) 0.5974(5)
O10_13 O 0.58515(11) 0.66429(11) 0.7028(5)
O11_13 O 0.64147(10) 0.63369(10) 0.4973(4)
O12_13 O 0.65279(10) 0.63030(11) 0.6945(5)
O13_13 O 0.66612(11) 0.69218(10) 0.7389(5)
H27_13 H 0.6744 0.6899 0.6690
H28_13 H 0.6731 0.7076 0.7730
O14_13 O 0.62392(11) 0.65728(12) 0.8853(5)
H29_13 H 0.6178 0.6698 0.8316
H30_13 H 0.6196 0.6639 0.9574
H32_13 H 0.7279 0.6282 0.9738
O16_13 O 0.70201(12) 0.61855(11) 0.5008(5)
O17_13 O 0.63728(11) 0.63854(11) 0.2377(5)
H33_13 H 0.6281 0.6541 0.2183
H34_13 H 0.6258 0.6271 0.2757
O18_13 O 0.71019(18) 0.62651(16) 0.2278(6)
O19_13 O 0.68114(19) 0.59448(18) 0.2879(7)
O22_13 O 0.64620(11) 0.69172(11) 0.3896(4)
H35_13 H 0.6556 0.7077 0.3752
H36_13 H 0.6396 0.6922 0.4630
Tb1_13 Tb 0.677817(7) 0.650860(7) 0.36603(3)
Tb2_5 Tb 0.674864(8) 0.650155(7) 0.86525(3)
N11_11 N 0.58463(13) 0.55641(13) 0.3463(6)
N12_11 N 0.52900(13) 0.53842(13) 0.3913(6)
O25_5 O 0.67931(13) 0.59476(12) 0.8850(5)
C7_13 C 0.64157(15) 0.74180(15) 0.9675(6)
C8_13 C 0.62265(16) 0.75381(16) 0.7785(7)
H6_9 H 0.6243 0.7639 0.7054
C9_13 C 0.59895(16) 0.73612(16) 0.7960(7)
H7_9 H 0.5848 0.7342 0.7359
C10_13 C 0.59640(16) 0.72111(16) 0.9045(7)
H8_13 H 0.5801 0.7095 0.9191
C11_13 C 0.61823(15) 0.72352(15) 0.9917(6)
H23_12 H 0.7673 0.5290 0.9944
C48_13 C 0.66502(16) 0.59506(16) 0.9803(7)
H1_14 H 0.6243(14) 0.453(2) 0.321(3)
H2_14 H 0.6499(5) 0.452(2) 0.253(7)
H3_14 H 0.5220 0.4602 0.0166
H4_14 H 0.4719 0.4673 0.0302
C13_14 C 0.57576(15) 0.34577(16) 0.3554(6)
C14_14 C 0.58701(15) 0.33287(15) 0.2370(6)
C15_14 C 0.56726(16) 0.32429(16) 0.1488(7)
H9_14 H 0.5474 0.3267 0.1621
C16_14 C 0.57681(16) 0.31214(15) 0.0415(7)
C17_14 C 0.60655(16) 0.30851(15) 0.0252(6)
C18_14 C 0.61679(15) 0.32870(15) 0.2142(6)
C19_14 C 0.64095(15) 0.33495(15) 0.3016(6)
C20_14 C 0.68313(17) 0.31601(18) 0.3846(7)
H12_14 H 0.6974 0.3016 0.3855
C21_14 C 0.68501(18) 0.33845(18) 0.4677(7)
H13_14 H 0.6994 0.3384 0.5273
C22_14 C 0.66515(16) 0.36075(17) 0.4603(7)
H14_14 H 0.6666 0.3765 0.5131
C23_14 C 0.64301(15) 0.36000(16) 0.3750(6)
C24_14 C 0.62427(14) 0.38699(15) 0.3545(6)
C25_14 C 0.56316(15) 0.47202(15) 0.2410(7)
C26_14 C 0.54135(16) 0.49185(16) 0.3034(7)
C27_14 C 0.51194(16) 0.48481(16) 0.2985(7)
H15_14 H 0.5060 0.4669 0.2672
C28_12 C 0.49129(16) 0.50479(16) 0.3409(7)
H16_12 H 0.4715 0.5002 0.3400
C29_14 C 0.50062(16) 0.53142(17) 0.3842(7)
H17_12 H 0.4868 0.5450 0.4092
C30_14 C 0.54921(16) 0.51848(15) 0.3570(7)
C31_14 C 0.57965(16) 0.52836(16) 0.3769(7)
C32_14 C 0.61145(17) 0.56731(16) 0.3581(7)
H18_14 H 0.6148 0.5866 0.3353
C33_14 C 0.63481(17) 0.55074(17) 0.4037(9)
H19_14 H 0.6535 0.5585 0.4084
C34_14 C 0.62913(17) 0.52262(17) 0.4414(9)
H20_14 H 0.6441 0.5113 0.4737
C35_14 C 0.60106(16) 0.51092(16) 0.4314(8)
C36_14 C 0.59483(18) 0.48206(17) 0.4923(8)
N3_14 N 0.62601(13) 0.31636(13) 0.1095(5)
N4_14 N 0.66153(13) 0.31420(13) 0.3022(5)
O5_14 O 0.57517(12) 0.48072(12) 0.1463(5)
O6_14 O 0.56766(12) 0.44675(11) 0.2829(5)
O7_14 O 0.57206(13) 0.47829(14) 0.5464(7)
O8_14 O 0.61525(12) 0.46310(11) 0.4853(5)
O9_14 O 0.55757(10) 0.36590(11) 0.3474(5)
O10_14 O 0.58571(11) 0.33515(11) 0.4528(5)
O11_14 O 0.61631(10) 0.39147(10) 0.2473(4)
O12_14 O 0.61970(11) 0.40279(10) 0.4445(5)
O13_14 O 0.55782(10) 0.41612(11) 0.4889(5)
H27_14 H 0.5601 0.4244 0.4190
H28_14 H 0.5424 0.4231 0.5230
O14_14 O 0.59272(12) 0.37392(11) 0.6353(5)
H29_14 H 0.5802 0.3678 0.5816
H30_14 H 0.5861 0.3696 0.7074
O15_14 O 0.60892(14) 0.46505(17) 0.7549(7)
H31_14 H 0.5925 0.4752 0.7722
H32_14 H 0.6218 0.4779 0.7238
O16_14 O 0.63145(11) 0.45201(12) 0.2508(5)
H34_14 H 0.6229 0.3758 0.0257
O19_14 O 0.65552(18) 0.43114(19) 0.0379(7)
O22_14 O 0.55828(11) 0.39620(11) 0.1396(4)
H35_14 H 0.5423 0.4056 0.1252
H36_14 H 0.5578 0.3896 0.2130
Tb1_14 Tb 0.599140(7) 0.427817(7) 0.11603(3)
Tb2_6 Tb 0.599845(7) 0.424864(8) 0.61525(3)
O23_6 O 0.56203(11) 0.42331(11) 0.7573(5)
O24_6 O 0.63137(14) 0.40599(15) 0.7749(6)
O25_6 O 0.65524(12) 0.42931(13) 0.6350(5)
C1_14 C 0.55315(15) 0.42927(15) 0.8621(6)
C2_14 C 0.52058(16) 0.43075(16) 0.8785(6)
C3_14 C 0.50943(17) 0.45032(17) 0.9645(7)
C4_14 C 0.47971(17) 0.45496(19) 0.9716(8)
C5_14 C 0.46173(18) 0.44068(19) 0.8889(7)
H5_14 H 0.4418 0.4445 0.8901
C6_14 C 0.50082(15) 0.41551(15) 0.8060(6)
C7_14 C 0.50820(15) 0.39157(15) 0.7175(6)
C8_14 C 0.49619(16) 0.37265(16) 0.5285(7)
H6_10 H 0.4861 0.3743 0.4554
C9_14 C 0.51388(16) 0.34895(16) 0.5460(7)
H7_10 H 0.5158 0.3348 0.4859
C10_14 C 0.52889(16) 0.34640(16) 0.6545(7)
H8_14 H 0.5405 0.3301 0.6691
C11_14 C 0.52648(15) 0.36823(15) 0.7417(6)
C12_14 C 0.54356(16) 0.36540(15) 0.8589(6)
H10_14 H 0.5636 0.3065 0.9816
H11_14 H 0.6132 0.3003 0.9530
C37_14 C 0.6465(3) 0.4520(2) 0.9752(9)
C38_14 C 0.6685(3) 0.4700(3) 0.8905(12)
C39_14 C 0.6617(3) 0.4996(3) 0.8655(12)
H21_13 H 0.6447 0.5070 0.8999
C40_13 C 0.6790(3) 0.5197(3) 0.7907(13)
H22_13 H 0.6734 0.5379 0.7610
C41_13 C 0.7060(3) 0.5056(3) 0.7738(13)
H23_13 H 0.7210 0.5173 0.7444
C42_14 C 0.6929(3) 0.4592(3) 0.8416(11)
C43_14 C 0.6999(2) 0.4279(3) 0.8490(10)
C44_14 C 0.7298(3) 0.3865(3) 0.8848(11)
H24_14 H 0.7469 0.3792 0.9191
C45_14 C 0.7151(3) 0.3669(3) 0.8339(11)
H25_14 H 0.7209 0.3475 0.8267
C46_14 C 0.6903(2) 0.3777(3) 0.7922(10)
H26_14 H 0.6770 0.3647 0.7585
C47_14 C 0.6823(2) 0.4078(2) 0.7948(8)
C48_14 C 0.65494(16) 0.41502(16) 0.7303(7)
N7_14 N 0.7272(2) 0.4156(2) 0.9023(9)
N8_14 N 0.7131(2) 0.4776(3) 0.7941(10)
O1_14 O 0.56840(11) 0.43558(11) 0.9515(4)
O3_14 O 0.56978(11) 0.35876(11) 0.8502(5)
O4_14 O 0.52998(11) 0.36996(11) 0.9570(4)
O17_14 O 0.61146(11) 0.38728(11) 0.9877(5)
H33_14 H 0.5959 0.3781 0.9683
O18_14 O 0.62349(16) 0.46019(18) 0.9778(6)
O15_15 O 0.28495(17) 0.85892(14) 0.0049(7)
H31_15 H 0.2748 0.8425 0.0222
O23_7 O 0.32669(11) 0.81203(11) 0.0073(5)
O24_7 O 0.34401(15) 0.88137(14) 0.0249(6)
H1_15 H 0.297(2) 0.8743(14) 0.571(3)
H2_15 H 0.298(2) 0.8999(5) 0.503(7)
C1_15 C 0.32073(15) 0.80315(15) 0.1121(6)
C2_15 C 0.31925(16) 0.77058(16) 0.1285(6)
C3_15 C 0.29968(17) 0.75943(17) 0.2145(7)
H3_15 H 0.2898 0.7720 0.2666
C4_15 C 0.29504(19) 0.72971(17) 0.2216(8)
H4_15 H 0.2827 0.7219 0.2802
C5_15 C 0.30932(19) 0.71173(18) 0.1389(7)
H5_15 H 0.3055 0.6918 0.1401
C6_15 C 0.33449(15) 0.75082(15) 0.0560(6)
C12_15 C 0.38460(15) 0.79356(16) 0.1089(6)
C13_15 C 0.40423(16) 0.82576(15) 0.6054(6)
C14_15 C 0.41713(15) 0.83701(15) 0.4870(6)
C15_15 C 0.42571(16) 0.81726(16) 0.3988(7)
H9_15 H 0.4233 0.7974 0.4121
C16_15 C 0.43786(15) 0.82681(16) 0.2915(7)
H10_15 H 0.4435 0.8136 0.2316
C17_15 C 0.44149(15) 0.85655(16) 0.2752(6)
H11_15 H 0.4497 0.8632 0.2030
C18_15 C 0.42130(15) 0.86679(15) 0.4642(6)
C19_15 C 0.41505(15) 0.89095(15) 0.5516(6)
C20_15 C 0.43399(18) 0.93313(17) 0.6346(7)
H12_15 H 0.4484 0.9474 0.6355
C21_15 C 0.41155(18) 0.93501(18) 0.7177(7)
H13_15 H 0.4116 0.9494 0.7773
C22_15 C 0.38925(17) 0.91515(16) 0.7103(7)
H14_15 H 0.3735 0.9166 0.7631
C23_15 C 0.39000(16) 0.89301(15) 0.6250(6)
C24_15 C 0.36301(15) 0.87427(14) 0.6045(6)
C25_15 C 0.27798(15) 0.81316(15) 0.4910(7)
C26_15 C 0.25815(16) 0.79135(16) 0.5534(7)
C27_15 C 0.26519(16) 0.76194(16) 0.5485(7)
H15_15 H 0.2831 0.7560 0.5172
C28_13 C 0.24521(16) 0.74129(16) 0.5909(7)
H16_13 H 0.2498 0.7215 0.5900
C29_15 C 0.21858(17) 0.75062(16) 0.6342(7)
H17_13 H 0.2050 0.7368 0.6592
C30_15 C 0.23152(15) 0.79921(16) 0.6070(7)
C31_15 C 0.22164(16) 0.82965(16) 0.6269(7)
C32_15 C 0.18269(16) 0.86145(17) 0.6081(7)
H18_15 H 0.1634 0.8648 0.5853
C33_15 C 0.19926(17) 0.88481(17) 0.6537(9)
H19_15 H 0.1915 0.9035 0.6584
C34_15 C 0.22738(17) 0.87913(17) 0.6914(9)
H20_15 H 0.2387 0.8941 0.7237
C35_15 C 0.23908(16) 0.85106(16) 0.6814(8)
C36_15 C 0.26794(17) 0.84483(18) 0.7423(8)
C37_15 C 0.2980(2) 0.8965(3) 0.2252(9)
C38_15 C 0.2800(3) 0.9185(3) 0.1405(12)
C39_15 C 0.2504(3) 0.9117(3) 0.1155(12)
H21_14 H 0.2430 0.8947 0.1499
C40_14 C 0.2303(3) 0.9290(3) 0.0407(13)
H22_14 H 0.2121 0.9234 0.0110
C41_14 C 0.2444(3) 0.9560(3) 0.0238(13)
C42_15 C 0.2908(3) 0.9429(3) 0.0916(11)
C43_15 C 0.3221(3) 0.9499(2) 0.0990(10)
C44_15 C 0.3635(3) 0.9798(3) 0.1348(11)
H24_15 H 0.3708 0.9969 0.1691
C45_15 C 0.3831(3) 0.9651(3) 0.0839(11)
H25_15 H 0.4025 0.9709 0.0767
C46_15 C 0.3723(3) 0.9403(2) 0.0422(10)
H26_15 H 0.3853 0.9270 0.0085
C47_15 C 0.3422(2) 0.9323(2) 0.0448(8)
N3_15 N 0.43364(13) 0.87601(13) 0.3595(5)
N4_15 N 0.43580(13) 0.91153(13) 0.5522(5)
N7_15 N 0.3344(2) 0.9772(2) 0.1523(9)
N8_15 N 0.2724(3) 0.9631(2) 0.0441(10)
O1_15 O 0.31442(11) 0.81840(11) 0.2015(4)
O3_15 O 0.39124(11) 0.81978(11) 0.1002(5)
O4_15 O 0.38004(11) 0.77998(11) 0.2070(4)
O5_15 O 0.26928(12) 0.82517(12) 0.3963(5)
O6_15 O 0.30325(11) 0.81766(12) 0.5329(5)
O7_15 O 0.27171(14) 0.82206(13) 0.7964(7)
O8_15 O 0.28690(11) 0.86525(12) 0.7353(5)
O9_15 O 0.38410(11) 0.80757(10) 0.5974(5)
O10_15 O 0.41485(11) 0.83571(11) 0.7028(5)
O11_15 O 0.35853(10) 0.86631(10) 0.4973(4)
O12_15 O 0.34721(10) 0.86970(11) 0.6945(5)
O13_15 O 0.33388(11) 0.80782(10) 0.7389(5)
H27_15 H 0.3256 0.8101 0.6690
H28_15 H 0.3269 0.7924 0.7730
O14_15 O 0.37608(11) 0.84272(12) 0.8853(5)
H29_15 H 0.3822 0.8302 0.8316
H30_15 H 0.3804 0.8361 0.9574
H32_15 H 0.2721 0.8718 0.9738
O16_15 O 0.29799(12) 0.88145(11) 0.5008(5)
O17_15 O 0.36272(11) 0.86146(11) 0.2377(5)
H33_15 H 0.3719 0.8459 0.2183
H34_15 H 0.3742 0.8729 0.2757
O18_15 O 0.28981(18) 0.87349(16) 0.2278(6)
O19_15 O 0.31886(19) 0.90552(18) 0.2879(7)
O22_15 O 0.35380(11) 0.80828(11) 0.3896(4)
H35_15 H 0.3444 0.7923 0.3752
H36_15 H 0.3604 0.8078 0.4630
Tb1_15 Tb 0.322183(7) 0.849140(7) 0.36603(3)
Tb2_7 Tb 0.325136(8) 0.849845(7) 0.86525(3)
N11_12 N 0.41537(13) 0.94359(13) 0.3463(6)
N12_12 N 0.47100(13) 0.96158(13) 0.3913(6)
O25_7 O 0.32069(13) 0.90524(12) 0.8850(5)
C7_15 C 0.35843(15) 0.75820(15) 0.9675(6)
C8_15 C 0.37735(16) 0.74619(16) 0.7785(7)
H6_11 H 0.3757 0.7361 0.7054
C9_15 C 0.40105(16) 0.76388(16) 0.7960(7)
H7_11 H 0.4152 0.7658 0.7359
C10_15 C 0.40360(16) 0.77889(16) 0.9045(7)
H8_15 H 0.4199 0.7905 0.9191
C11_15 C 0.38177(15) 0.77648(15) 0.9917(6)
H23_14 H 0.2327 0.9710 0.9944
C48_15 C 0.33498(16) 0.90494(16) 0.9803(7)
H1_16 H 0.3757(14) 0.047(2) 0.321(3)
H2_16 H 0.3501(5) 0.048(2) 0.253(7)
H3_16 H 0.4780 0.0398 0.0166
H4_16 H 0.5281 0.0327 0.0302
C13_16 C 0.42424(15) 0.15423(16) 0.3554(6)
C14_16 C 0.41299(15) 0.16713(15) 0.2370(6)
C15_16 C 0.43274(16) 0.17571(16) 0.1488(7)
H9_16 H 0.4526 0.1733 0.1621
C16_16 C 0.42319(16) 0.18786(15) 0.0415(7)
C17_16 C 0.39345(16) 0.19149(15) 0.0252(6)
C18_16 C 0.38321(15) 0.17130(15) 0.2142(6)
C19_16 C 0.35905(15) 0.16505(15) 0.3016(6)
C20_16 C 0.31687(17) 0.18399(18) 0.3846(7)
H12_16 H 0.3026 0.1984 0.3855
C21_16 C 0.31499(18) 0.16155(18) 0.4677(7)
H13_16 H 0.3006 0.1616 0.5273
C22_16 C 0.33485(16) 0.13925(17) 0.4603(7)
H14_16 H 0.3334 0.1235 0.5131
C23_16 C 0.35699(15) 0.14000(16) 0.3750(6)
C24_16 C 0.37573(14) 0.11301(15) 0.3545(6)
C25_16 C 0.43684(15) 0.02798(15) 0.2410(7)
C26_16 C 0.45865(16) 0.00815(16) 0.3034(7)
C27_16 C 0.48806(16) 0.01519(16) 0.2985(7)
H15_16 H 0.4940 0.0331 0.2672
C36_16 C 0.40517(18) 0.01794(17) 0.4923(8)
N3_16 N 0.37399(13) 0.18364(13) 0.1095(5)
N4_16 N 0.33847(13) 0.18580(13) 0.3022(5)
O5_16 O 0.42483(12) 0.01928(12) 0.1463(5)
O6_16 O 0.43234(12) 0.05325(11) 0.2829(5)
O7_16 O 0.42794(13) 0.02171(14) 0.5464(7)
O8_16 O 0.38475(12) 0.03690(11) 0.4853(5)
O9_16 O 0.44243(10) 0.13410(11) 0.3474(5)
O10_16 O 0.41429(11) 0.16485(11) 0.4528(5)
O11_16 O 0.38369(10) 0.10853(10) 0.2473(4)
O12_16 O 0.38030(11) 0.09721(10) 0.4445(5)
O13_16 O 0.44218(10) 0.08388(11) 0.4889(5)
H27_16 H 0.4399 0.0756 0.4190
H28_16 H 0.4576 0.0769 0.5230
O14_16 O 0.40728(12) 0.12608(11) 0.6353(5)
H29_16 H 0.4198 0.1322 0.5816
H30_16 H 0.4139 0.1304 0.7074
O15_16 O 0.39108(14) 0.03495(17) 0.7549(7)
H31_16 H 0.4075 0.0248 0.7722
H32_16 H 0.3782 0.0221 0.7238
O16_16 O 0.36855(11) 0.04799(12) 0.2508(5)
H34_16 H 0.3771 0.1242 0.0257
O19_16 O 0.34448(18) 0.06886(19) 0.0379(7)
O22_16 O 0.44172(11) 0.10380(11) 0.1396(4)
H35_16 H 0.4577 0.0944 0.1252
H36_16 H 0.4422 0.1104 0.2130
Tb1_16 Tb 0.400860(7) 0.072183(7) 0.11603(3)
Tb2_8 Tb 0.400155(7) 0.075136(8) 0.61525(3)
O23_8 O 0.43797(11) 0.07669(11) 0.7573(5)
O24_8 O 0.36863(14) 0.09401(15) 0.7749(6)
O25_8 O 0.34476(12) 0.07069(13) 0.6350(5)
C1_16 C 0.44685(15) 0.07073(15) 0.8621(6)
C2_16 C 0.47942(16) 0.06925(16) 0.8785(6)
C3_16 C 0.49057(17) 0.04968(17) 0.9645(7)
C4_16 C 0.52029(17) 0.04504(19) 0.9716(8)
C5_16 C 0.53827(18) 0.05932(19) 0.8889(7)
H5_16 H 0.5582 0.0555 0.8901
C6_16 C 0.49918(15) 0.08449(15) 0.8060(6)
C7_16 C 0.49180(15) 0.10843(15) 0.7175(6)
C8_16 C 0.50381(16) 0.12735(16) 0.5285(7)
H6_12 H 0.5139 0.1257 0.4554
C9_16 C 0.48612(16) 0.15105(16) 0.5460(7)
H7_12 H 0.4842 0.1652 0.4859
C10_16 C 0.47111(16) 0.15360(16) 0.6545(7)
H8_16 H 0.4595 0.1699 0.6691
C11_16 C 0.47352(15) 0.13177(15) 0.7417(6)
C12_16 C 0.45644(16) 0.13460(15) 0.8589(6)
H10_16 H 0.4364 0.1935 0.9816
H11_16 H 0.3868 0.1997 0.9530
C37_16 C 0.3535(3) 0.0480(2) 0.9752(9)
C38_16 C 0.3315(3) 0.0300(3) 0.8905(12)
C39_16 C 0.3383(3) 0.0004(3) 0.8655(12)
C42_16 C 0.3071(3) 0.0408(3) 0.8416(11)
C43_16 C 0.3001(2) 0.0721(3) 0.8490(10)
C44_16 C 0.2702(3) 0.1135(3) 0.8848(11)
H24_16 H 0.2531 0.1208 0.9191
C45_16 C 0.2849(3) 0.1331(3) 0.8339(11)
H25_16 H 0.2791 0.1525 0.8267
C46_16 C 0.3097(2) 0.1223(3) 0.7922(10)
H26_16 H 0.3230 0.1353 0.7585
C47_16 C 0.3177(2) 0.0922(2) 0.7948(8)
C48_16 C 0.34506(16) 0.08498(16) 0.7303(7)
N7_16 N 0.2728(2) 0.0844(2) 0.9023(9)
N8_16 N 0.2869(2) 0.0224(3) 0.7941(10)
O1_16 O 0.43160(11) 0.06442(11) 0.9515(4)
O3_16 O 0.43022(11) 0.14124(11) 0.8502(5)
O4_16 O 0.47002(11) 0.13004(11) 0.9570(4)
O17_16 O 0.38854(11) 0.11272(11) 0.9877(5)
H33_16 H 0.4041 0.1219 0.9683
O18_16 O 0.37651(16) 0.03981(18) 0.9778(6)
C28_14 C 0.50871(16) 0.99521(16) 0.3409(7)
H16_14 H 0.5285 0.9998 0.3400
C29_16 C 0.49938(16) 0.96858(17) 0.3842(7)
H17_14 H 0.5132 0.9550 0.4092
C30_16 C 0.45079(16) 0.98152(15) 0.3570(7)
C31_16 C 0.42035(16) 0.97164(16) 0.3769(7)
C32_16 C 0.38855(17) 0.93269(16) 0.3581(7)
H18_16 H 0.3852 0.9134 0.3353
C33_16 C 0.36519(17) 0.94926(17) 0.4037(9)
H19_16 H 0.3465 0.9415 0.4084
C34_16 C 0.37087(17) 0.97738(17) 0.4414(9)
H20_16 H 0.3559 0.9887 0.4737
C35_16 C 0.39894(16) 0.98908(16) 0.4314(8)
H6_13 H 0.0139 0.1257 0.0446
C28_15 C 0.00871(16) 0.99521(16) 0.1591(7)
H16_15 H 0.0285 0.9998 0.1600
H17_15 H 0.0132 0.9550 0.0908
H7_13 H 0.9842 0.1652 0.0141
H7_14 H 0.0158 0.3348 0.0141
H6_14 H 0.9861 0.3743 0.0446
H21_15 H 0.6447 0.0070 0.1001
C40_15 C 0.6790(3) 0.0197(3) 0.2093(13)
H22_15 H 0.6734 0.0379 0.2390
C41_15 C 0.7060(3) 0.0056(3) 0.2262(13)
H23_15 H 0.7210 0.0173 0.2556
H7_15 H 0.0158 0.8348 0.9859
C28_16 C 0.99129(16) 0.00479(16) 0.8409(7)
H16_16 H 0.9715 0.0002 0.8400
H17_16 H 0.9868 0.0450 0.9092
H6_15 H 0.9861 0.8743 0.9554
H6_16 H 0.0139 0.6257 0.9554
H7_16 H 0.9842 0.6652 0.9859
H21_16 H 0.3553 0.9930 0.8999
C40_16 C 0.3210(3) 0.9803(3) 0.7907(13)
H22_16 H 0.3266 0.9621 0.7610
C41_16 C 0.2940(3) 0.9944(3) 0.7738(13)
H23_16 H 0.2790 0.9827 0.7444
loop_
_geom_bond_atom_site_label_1
_geom_bond_atom_site_label_2
_geom_bond_site_symmetry_1
_geom_bond_site_symmetry_2
C1 C2 1_555 1_555
C2 C3 1_555 1_555
C3 H3 1_555 1_555
C4 C3 1_555 1_555
H4 C4 1_555 1_555
C5 C4 1_555 1_555
H5 C5 1_555 1_555
C6 C2 1_555 1_555
C7 C6 1_555 1_555
C8 H6 1_555 1_555
C9 C8 1_555 1_555
H7 C9 1_555 1_555
C10 C9 1_555 1_555
H8 C10 1_555 1_555
C11 C7 1_555 1_555
C12 C11 1_555 1_555
C14 C15 1_555 1_555
C15 H9 1_555 1_555
C16 C15 1_555 1_555
H10 C16 1_555 1_555
C17 C16 1_555 1_555
H11 C17 1_555 1_555
C18 C14 1_555 1_555
C37 C38 1_555 1_555
C38 C39 1_555 1_555
C39 H21 1_555 1_555
C40 C39 1_555 1_555
H22 C40 1_555 1_555
C41 C40 1_555 1_555
H23 C41 1_555 1_555
C42 C38 1_555 1_555
C43 C42 1_555 1_555
C44 H24 1_555 1_555
C45 C44 1_555 1_555
H25 C45 1_555 1_555
C46 C45 1_555 1_555
H26 C46 1_555 1_555
C47 C43 1_555 1_555
C48 C47 1_555 1_555
N1 C5 1_555 1_555
N2 C7 1_555 1_555
N3 C17 1_555 1_555
N7 C43 1_555 1_555
N8 C41 1_555 1_555
O1 C1 1_555 1_555
O2 C1 1_555 1_555
O3 C12 1_555 1_555
O4 C12 1_555 1_555
O5 C25 1_555 1_555
O17 H33 1_555 1_555
H34 O17 1_555 1_555
O18 C37 1_555 1_555
O19 C37 1_555 1_555
O20 C48 1_555 1_555
O21 C48 1_555 1_555
O22 H35 1_555 1_555
H36 O22 1_555 1_555
Co1 N3 1_555 1_555
Tb1 O1 1_555 1_555
N9 Co1 1_555 1_555
N10 Co1 1_555 1_555
N11 Co1 1_555 1_555
N12 Co1 1_555 1_555
Co3 N1 1_555 1_555
Tb3 O2 1_555 1_555
C6 N1 1_555 1_555
C8 N2 1_555 1_555
C10 C11 1_555 1_555
C18 N3 1_555 1_555
C42 N8 1_555 1_555
C44 N7 1_555 1_555
C46 C47 1_555 1_555
N2 Co3 1_555 1_555
O5 Tb1 1_555 1_555
O11 Tb1 1_555 1_555
O17 Tb1 1_555 1_555
O18 Tb1 1_555 1_555
O19 Tb1 1_555 1_555
O20 Tb3 1_555 1_555
O21 Tb3 1_555 1_555
O22 Tb1 1_555 1_555
H1 O16 1_555 1_555
H2 O16 1_555 1_555
C20 H12 1_555 1_555
C21 C20 1_555 1_555
H13 C21 1_555 1_555
C22 C21 1_555 1_555
H14 C22 1_555 1_555
C23 C19 1_555 1_555
C24 C23 1_555 1_555
C26 C27 1_555 1_555
C27 H15 1_555 1_555
C28 C27 1_555 1_555
H16 C28 1_555 1_555
C29 C28 1_555 1_555
H17 C29 1_555 1_555
C30 C26 1_555 1_555
C31 C30 1_555 1_555
C32 H18 1_555 1_555
C33 C32 1_555 1_555
H19 C33 1_555 1_555
C34 C33 1_555 1_555
H20 C34 1_555 1_555
C35 C31 1_555 1_555
C36 C35 1_555 1_555
N4 C19 1_555 1_555
N5 C31 1_555 1_555
N6 C29 1_555 1_555
O7 C36 1_555 1_555
O8 C36 1_555 1_555
O9 C13 1_555 1_555
O10 C13 1_555 1_555
O12 C24 1_555 1_555
O13 H27 1_555 1_555
H28 O13 1_555 1_555
O14 H29 1_555 1_555
H30 O14 1_555 1_555
O15 H31 1_555 1_555
H32 O15 1_555 1_555
Tb3 O7 1_555 1_555
Co2 N5 1_555 1_555
C20 N4 1_555 1_555
C22 C23 1_555 1_555
C30 N6 1_555 1_555
C32 N5 1_555 1_555
C34 C35 1_555 1_555
N6 Co2 1_555 1_555
O8 Tb3 1_555 1_555
O12 Tb3 1_555 1_555
O13 Tb3 1_555 1_555
O14 Tb3 1_555 1_555
O15 Tb3 1_555 1_555
H4_2 C4_2 1_555 1_555
C5_2 C4_2 1_555 1_555
H5_2 C5_2 1_555 1_555
N1_2 C5_2 1_555 1_555
Co3_2 N1_2 1_555 1_555
C8_2 N2_2 1_555 1_555
N2_2 Co3_2 1_555 1_555
H1_2 O16_2 1_555 1_555
H2_2 O16_2 1_555 1_555
C1_2 C2_2 1_555 1_555
C2_2 C3_2 1_555 1_555
C3_2 H3_2 1_555 1_555
C6_2 C2_2 1_555 1_555
C7_2 C6_2 1_555 1_555
C10_2 C9_2 1_555 1_555
H8_2 C10_2 1_555 1_555
C11_2 C7_2 1_555 1_555
C12_2 C11_2 1_555 1_555
C13_2 C14_2 1_555 1_555
C14_2 C15_2 1_555 1_555
C15_2 H9_2 1_555 1_555
C16_2 C15_2 1_555 1_555
H10_2 C16_2 1_555 1_555
C17_2 C16_2 1_555 1_555
H11_2 C17_2 1_555 1_555
C18_2 C14_2 1_555 1_555
C19_2 C18_2 1_555 1_555
C20_2 H12_2 1_555 1_555
C21_2 C20_2 1_555 1_555
C22_2 C21_2 1_555 1_555
C23_2 C19_2 1_555 1_555
C24_2 C23_2 1_555 1_555
C25_2 C26_2 1_555 1_555
C26_2 C27_2 1_555 1_555
C27_2 H15_2 1_555 1_555
C37_2 C38_2 1_555 1_555
C38_2 C39_2 1_555 1_555
C42_2 C38_2 1_555 1_555
C43_2 C42_2 1_555 1_555
C44_2 H24_2 1_555 1_555
C45_2 C44_2 1_555 1_555
H25_2 C45_2 1_555 1_555
C46_2 C45_2 1_555 1_555
H26_2 C46_2 1_555 1_555
C47_2 C43_2 1_555 1_555
C48_2 C47_2 1_555 1_555
N3_2 C17_2 1_555 1_555
N4_2 C19_2 1_555 1_555
N7_2 C43_2 1_555 1_555
O1_2 C1_2 1_555 1_555
O2_2 C1_2 1_555 1_555
O3_2 C12_2 1_555 1_555
O4_2 C12_2 1_555 1_555
O5_2 C25_2 1_555 1_555
O6_2 C25_2 1_555 1_555
O8_2 C36_2 1_555 1_555
O9_2 C13_2 1_555 1_555
O10_2 C13_2 1_555 1_555
O11_2 C24_2 1_555 1_555
O12_2 C24_2 1_555 1_555
O13_2 H27_2 1_555 1_555
O16_2 Tb1_2 1_555 1_555
O17_2 H33_2 1_555 1_555
H34_2 O17_2 1_555 1_555
O18_2 C37_2 1_555 1_555
O19_2 C37_2 1_555 1_555
O20_2 C48_2 1_555 1_555
O21_2 C48_2 1_555 1_555
O22_2 H35_2 1_555 1_555
H36_2 O22_2 1_555 1_555
Co1_2 N3_2 1_555 1_555
Tb1_2 O1_2 1_555 1_555
N9_2 Co1_2 1_555 1_555
N10_2 Co1_2 1_555 1_555
N11_2 Co1_2 1_555 1_555
N12_2 Co1_2 1_555 1_555
Tb3_2 O2_2 1_555 1_555
C10_2 C11_2 1_555 1_555
C18_2 N3_2 1_555 1_555
C20_2 N4_2 1_555 1_555
C22_2 C23_2 1_555 1_555
C42_2 N8_2 1_555 1_555
C44_2 N7_2 1_555 1_555
C46_2 C47_2 1_555 1_555
N4_2 Co1_2 1_555 1_555
O5_2 Tb1_2 1_555 1_555
O6_2 Tb1_2 1_555 1_555
O11_2 Tb1_2 1_555 1_555
O17_2 Tb1_2 1_555 1_555
O18_2 Tb1_2 1_555 1_555
O19_2 Tb1_2 1_555 1_555
O20_2 Tb3_2 1_555 1_555
O21_2 Tb3_2 1_555 1_555
O22_2 Tb1_2 1_555 1_555
O14_2 H29_2 1_555 1_555
H30_2 O14_2 1_555 1_555
O15_2 H31_2 1_555 1_555
H32_2 O15_2 1_555 1_555
Tb3_2 O7_2 1_555 1_555
O14_2 Tb3_2 1_555 1_555
O15_2 Tb3_2 1_555 1_555
C31_2 C30_2 1_555 1_555
C32_2 H18_2 1_555 1_555
C33_2 C32_2 1_555 1_555
H19_2 C33_2 1_555 1_555
C34_2 C33_2 1_555 1_555
H20_2 C34_2 1_555 1_555
C35_2 C31_2 1_555 1_555
H22_2 C40_2 1_555 1_555
C41_2 C40_2 1_555 1_555
H23_2 C41_2 1_555 1_555
N11 C31_2 1_555 1_555
N12 C29_2 1_555 1_555
C30_2 N12 1_555 1_555
C32_2 N11 1_555 1_555
C34_2 C35_2 1_555 1_555
C1_3 C2_3 1_555 1_555
C2_3 C3_3 1_555 1_555
C3_3 H3_3 1_555 1_555
C4_3 C3_3 1_555 1_555
H4_3 C4_3 1_555 1_555
C5_3 C4_3 1_555 1_555
H5_3 C5_3 1_555 1_555
C6_3 C2_3 1_555 1_555
C7_3 C6_3 1_555 1_555
C8_3 H6_2 1_555 1_555
C9_3 C8_3 1_555 1_555
H7_2 C9_3 1_555 1_555
C10_3 C9_3 1_555 1_555
H8_3 C10_3 1_555 1_555
C11_3 C7_3 1_555 1_555
C12_3 C11_3 1_555 1_555
C14_3 C15_3 1_555 1_555
C15_3 H9_3 1_555 1_555
C16_3 C15_3 1_555 1_555
H10_3 C16_3 1_555 1_555
C17_3 C16_3 1_555 1_555
H11_3 C17_3 1_555 1_555
C18_3 C14_3 1_555 1_555
C37_3 C38_3 1_555 1_555
C38_3 C39_3 1_555 1_555
C39_3 H21_3 1_555 1_555
C40_3 C39_3 1_555 1_555
H22_3 C40_3 1_555 1_555
C41_3 C40_3 1_555 1_555
H23_3 C41_3 1_555 1_555
C42_3 C38_3 1_555 1_555
C43_3 C42_3 1_555 1_555
C44_3 H24_3 1_555 1_555
C45_3 C44_3 1_555 1_555
H25_3 C45_3 1_555 1_555
C46_3 C45_3 1_555 1_555
H26_3 C46_3 1_555 1_555
C47_3 C43_3 1_555 1_555
C48_3 C47_3 1_555 1_555
N1_3 C5_3 1_555 1_555
N2_3 C7_3 1_555 1_555
N3_3 C17_3 1_555 1_555
N7_3 C43_3 1_555 1_555
N8_3 C41_3 1_555 1_555
O1_3 C1_3 1_555 1_555
O2_3 C1_3 1_555 1_555
O3_3 C12_3 1_555 1_555
O4_3 C12_3 1_555 1_555
O5_3 C25_3 1_555 1_555
O17_3 H33_3 1_555 1_555
H34_3 O17_3 1_555 1_555
O18_3 C37_3 1_555 1_555
O19_3 C37_3 1_555 1_555
O20_3 C48_3 1_555 1_555
O21_3 C48_3 1_555 1_555
O22_3 H35_3 1_555 1_555
H36_3 O22_3 1_555 1_555
Co1_3 N3_3 1_555 1_555
Tb1_3 O1_3 1_555 1_555
N9_3 Co1_3 1_555 1_555
N10_3 Co1_3 1_555 1_555
N11_3 Co1_3 1_555 1_555
N12_3 Co1_3 1_555 1_555
Co3_3 N1_3 1_555 1_555
Tb3_3 O2_3 1_555 1_555
C6_3 N1_3 1_555 1_555
C8_3 N2_3 1_555 1_555
C10_3 C11_3 1_555 1_555
C18_3 N3_3 1_555 1_555
C42_3 N8_3 1_555 1_555
C44_3 N7_3 1_555 1_555
C46_3 C47_3 1_555 1_555
N2_3 Co3_3 1_555 1_555
O5_3 Tb1_3 1_555 1_555
O11_3 Tb1_3 1_555 1_555
O17_3 Tb1_3 1_555 1_555
O18_3 Tb1_3 1_555 1_555
O19_3 Tb1_3 1_555 1_555
O20_3 Tb3_3 1_555 1_555
O21_3 Tb3_3 1_555 1_555
O22_3 Tb1_3 1_555 1_555
H1_3 O16_3 1_555 1_555
H2_3 O16_3 1_555 1_555
C20_3 H12_3 1_555 1_555
C21_3 C20_3 1_555 1_555
H13_3 C21_3 1_555 1_555
C22_3 C21_3 1_555 1_555
H14_3 C22_3 1_555 1_555
C23_3 C19_3 1_555 1_555
C24_3 C23_3 1_555 1_555
C26_3 C27_3 1_555 1_555
C27_3 H15_3 1_555 1_555
C28_2 C27_3 1_555 1_555
H16_2 C28_2 1_555 1_555
C29_3 C28_2 1_555 1_555
H17_2 C29_3 1_555 1_555
C30_3 C26_3 1_555 1_555
C31_3 C30_3 1_555 1_555
C32_3 H18_3 1_555 1_555
C33_3 C32_3 1_555 1_555
H19_3 C33_3 1_555 1_555
C34_3 C33_3 1_555 1_555
H20_3 C34_3 1_555 1_555
C35_3 C31_3 1_555 1_555
C36_3 C35_3 1_555 1_555
N4_3 C19_3 1_555 1_555
N5_2 C31_3 1_555 1_555
N6_2 C29_3 1_555 1_555
O7_3 C36_3 1_555 1_555
O8_3 C36_3 1_555 1_555
O9_3 C13_3 1_555 1_555
O10_3 C13_3 1_555 1_555
O12_3 C24_3 1_555 1_555
O13_3 H27_3 1_555 1_555
H28_3 O13_3 1_555 1_555
O14_3 H29_3 1_555 1_555
H30_3 O14_3 1_555 1_555
O15_3 H31_3 1_555 1_555
H32_3 O15_3 1_555 1_555
Tb3_3 O7_3 1_555 1_555
Co2_2 N5_2 1_555 1_555
C20_3 N4_3 1_555 1_555
C22_3 C23_3 1_555 1_555
C30_3 N6_2 1_555 1_555
C32_3 N5_2 1_555 1_555
C34_3 C35_3 1_555 1_555
N6_2 Co2_2 1_555 1_555
O8_3 Tb3_3 1_555 1_555
O12_3 Tb3_3 1_555 1_555
O13_3 Tb3_3 1_555 1_555
O14_3 Tb3_3 1_555 1_555
O15_3 Tb3_3 1_555 1_555
H1_4 O16_4 1_555 1_555
H2_4 O16_4 1_555 1_555
C1_4 C2_4 1_555 1_555
C2_4 C3_4 1_555 1_555
C3_4 H3_4 1_555 1_555
C6_4 C2_4 1_555 1_555
C7_4 C6_4 1_555 1_555
C10_4 C9_4 1_555 1_555
H8_4 C10_4 1_555 1_555
C11_4 C7_4 1_555 1_555
C12_4 C11_4 1_555 1_555
C13_4 C14_4 1_555 1_555
C14_4 C15_4 1_555 1_555
C15_4 H9_4 1_555 1_555
C16_4 C15_4 1_555 1_555
H10_4 C16_4 1_555 1_555
C17_4 C16_4 1_555 1_555
H11_4 C17_4 1_555 1_555
C18_4 C14_4 1_555 1_555
C19_4 C18_4 1_555 1_555
C20_4 H12_4 1_555 1_555
C21_4 C20_4 1_555 1_555
C22_4 C21_4 1_555 1_555
C23_4 C19_4 1_555 1_555
C24_4 C23_4 1_555 1_555
C25_4 C26_4 1_555 1_555
C26_4 C27_4 1_555 1_555
C27_4 H15_4 1_555 1_555
C30_4 C26_4 1_555 1_555
C31_4 C30_4 1_555 1_555
C32_4 H18_4 1_555 1_555
C33_4 C32_4 1_555 1_555
H19_4 C33_4 1_555 1_555
C34_4 C33_4 1_555 1_555
H20_4 C34_4 1_555 1_555
C35_4 C31_4 1_555 1_555
C36_4 C35_4 1_555 1_555
C37_4 C38_4 1_555 1_555
C38_4 C39_4 1_555 1_555
C39_4 H21_4 1_555 1_555
C40_4 C39_4 1_555 1_555
H22_4 C40_4 1_555 1_555
C41_4 C40_4 1_555 1_555
H23_4 C41_4 1_555 1_555
C42_4 C38_4 1_555 1_555
C43_4 C42_4 1_555 1_555
C44_4 H24_4 1_555 1_555
C45_4 C44_4 1_555 1_555
H25_4 C45_4 1_555 1_555
C46_4 C45_4 1_555 1_555
H26_4 C46_4 1_555 1_555
C47_4 C43_4 1_555 1_555
C48_4 C47_4 1_555 1_555
N3_4 C17_4 1_555 1_555
N4_4 C19_4 1_555 1_555
N11_3 C31_4 1_555 1_555
N12_3 C29_4 1_555 1_555
N7_4 C43_4 1_555 1_555
N8_4 C41_4 1_555 1_555
O1_4 C1_4 1_555 1_555
O2_4 C1_4 1_555 1_555
O3_4 C12_4 1_555 1_555
O4_4 C12_4 1_555 1_555
O5_4 C25_4 1_555 1_555
O6_4 C25_4 1_555 1_555
O8_4 C36_4 1_555 1_555
O9_4 C13_4 1_555 1_555
O10_4 C13_4 1_555 1_555
O11_4 C24_4 1_555 1_555
O12_4 C24_4 1_555 1_555
O13_4 H27_4 1_555 1_555
O16_4 Tb1_4 1_555 1_555
O17_4 H33_4 1_555 1_555
H34_4 O17_4 1_555 1_555
O18_4 C37_4 1_555 1_555
O19_4 C37_4 1_555 1_555
O20_4 C48_4 1_555 1_555
O21_4 C48_4 1_555 1_555
O22_4 H35_4 1_555 1_555
H36_4 O22_4 1_555 1_555
Co1_4 N3_4 1_555 1_555
Tb1_4 O1_4 1_555 1_555
N9_4 Co1_4 1_555 1_555
N10_4 Co1_4 1_555 1_555
N11_4 Co1_4 1_555 1_555
N12_4 Co1_4 1_555 1_555
Tb3_4 O2_4 1_555 1_555
C10_4 C11_4 1_555 1_555
C18_4 N3_4 1_555 1_555
C20_4 N4_4 1_555 1_555
C22_4 C23_4 1_555 1_555
C30_4 N12_3 1_555 1_555
C32_4 N11_3 1_555 1_555
C34_4 C35_4 1_555 1_555
C42_4 N8_4 1_555 1_555
C44_4 N7_4 1_555 1_555
C46_4 C47_4 1_555 1_555
N4_4 Co1_4 1_555 1_555
O5_4 Tb1_4 1_555 1_555
O6_4 Tb1_4 1_555 1_555
O11_4 Tb1_4 1_555 1_555
O17_4 Tb1_4 1_555 1_555
O18_4 Tb1_4 1_555 1_555
O19_4 Tb1_4 1_555 1_555
O20_4 Tb3_4 1_555 1_555
O21_4 Tb3_4 1_555 1_555
O22_4 Tb1_4 1_555 1_555
O14_4 H29_4 1_555 1_555
H30_4 O14_4 1_555 1_555
O15_4 H31_4 1_555 1_555
H32_4 O15_4 1_555 1_555
Tb3_4 O7_4 1_555 1_555
O14_4 Tb3_4 1_555 1_555
O15_4 Tb3_4 1_555 1_555
H4_4 C4_4 1_555 1_555
C5_4 C4_4 1_555 1_555
H5_4 C5_4 1_555 1_555
H16_3 C28_3 1_555 1_555
N1_4 C5_4 1_555 1_555
Co3_4 N1_4 1_555 1_555
C8_4 N2_4 1_555 1_555
N2_4 Co3_4 1_555 1_555
C8_5 H6_3 1_555 1_555
C9_5 C8_5 1_555 1_555
H7_3 C9_5 1_555 1_555
C10_5 C9_5 1_555 1_555
H8_5 C10_5 1_555 1_555
C11_5 C7_5 1_555 1_555
N2_5 C7_5 1_555 1_555
O21_5 C48_5 1_555 1_555
C8_5 N2_5 1_555 1_555
C10_5 C11_5 1_555 1_555
N2_5 Co3_5 1_555 1_555
O21_5 Tb3_5 1_555 1_555
H1_5 O16_5 1_555 1_555
H2_5 O16_5 1_555 1_555
C1_5 C2_5 1_555 1_555
C2_5 C3_5 1_555 1_555
C3_5 H3_5 1_555 1_555
C4_5 C3_5 1_555 1_555
H4_5 C4_5 1_555 1_555
C5_5 C4_5 1_555 1_555
H5_5 C5_5 1_555 1_555
C6_5 C2_5 1_555 1_555
C13_5 C14_5 1_555 1_555
C14_5 C15_5 1_555 1_555
C15_5 H9_5 1_555 1_555
C16_5 C15_5 1_555 1_555
H10_5 C16_5 1_555 1_555
C17_5 C16_5 1_555 1_555
H11_5 C17_5 1_555 1_555
C18_5 C14_5 1_555 1_555
C19_5 C18_5 1_555 1_555
C20_5 H12_5 1_555 1_555
C21_5 C20_5 1_555 1_555
H13_5 C21_5 1_555 1_555
C22_5 C21_5 1_555 1_555
H14_5 C22_5 1_555 1_555
C23_5 C19_5 1_555 1_555
C24_5 C23_5 1_555 1_555
C25_5 C26_5 1_555 1_555
C26_5 C27_5 1_555 1_555
C27_5 H15_5 1_555 1_555
C28_4 C27_5 1_555 1_555
H16_4 C28_4 1_555 1_555
C29_5 C28_4 1_555 1_555
H17_4 C29_5 1_555 1_555
C30_5 C26_5 1_555 1_555
C31_5 C30_5 1_555 1_555
C32_5 H18_5 1_555 1_555
C33_5 C32_5 1_555 1_555
H19_5 C33_5 1_555 1_555
C34_5 C33_5 1_555 1_555
H20_5 C34_5 1_555 1_555
C35_5 C31_5 1_555 1_555
C36_5 C35_5 1_555 1_555
C37_5 C38_5 1_555 1_555
C38_5 C39_5 1_555 1_555
C39_5 H21_5 1_555 1_555
C40_5 C39_5 1_555 1_555
H22_5 C40_5 1_555 1_555
C41_5 C40_5 1_555 1_555
C42_5 C38_5 1_555 1_555
C43_5 C42_5 1_555 1_555
C44_5 H24_5 1_555 1_555
C45_5 C44_5 1_555 1_555
H25_5 C45_5 1_555 1_555
C46_5 C45_5 1_555 1_555
H26_5 C46_5 1_555 1_555
C47_5 C43_5 1_555 1_555
N1_5 C5_5 1_555 1_555
N3_5 C17_5 1_555 1_555
N4_5 C19_5 1_555 1_555
N11_4 C31_5 1_555 1_555
N12_4 C29_5 1_555 1_555
N7_5 C43_5 1_555 1_555
N8_5 C41_5 1_555 1_555
O1_5 C1_5 1_555 1_555
O2_5 C1_5 1_555 1_555
O3_5 C12_5 1_555 1_555
O4_5 C12_5 1_555 1_555
O5_5 C25_5 1_555 1_555
O6_5 C25_5 1_555 1_555
O7_5 C36_5 1_555 1_555
O8_5 C36_5 1_555 1_555
O9_5 C13_5 1_555 1_555
O10_5 C13_5 1_555 1_555
O11_5 C24_5 1_555 1_555
O12_5 C24_5 1_555 1_555
O13_5 H27_5 1_555 1_555
H28_5 O13_5 1_555 1_555
O14_5 H29_5 1_555 1_555
H30_5 O14_5 1_555 1_555
O16_5 Tb1_5 1_555 1_555
O17_5 H33_5 1_555 1_555
H34_5 O17_5 1_555 1_555
O18_5 C37_5 1_555 1_555
O19_5 C37_5 1_555 1_555
O22_5 H35_5 1_555 1_555
H36_5 O22_5 1_555 1_555
Co1_5 N3_5 1_555 1_555
Tb1_5 O1_5 1_555 1_555
Tb3_5 O7_5 1_555 1_555
N9_5 Co1_5 1_555 1_555
N10_5 Co1_5 1_555 1_555
N11_5 Co1_5 1_555 1_555
N12_5 Co1_5 1_555 1_555
C6_5 N1_5 1_555 1_555
C18_5 N3_5 1_555 1_555
C20_5 N4_5 1_555 1_555
C22_5 C23_5 1_555 1_555
C30_5 N12_4 1_555 1_555
C32_5 N11_4 1_555 1_555
C34_5 C35_5 1_555 1_555
C42_5 N8_5 1_555 1_555
C44_5 N7_5 1_555 1_555
C46_5 C47_5 1_555 1_555
N4_5 Co1_5 1_555 1_555
O5_5 Tb1_5 1_555 1_555
O6_5 Tb1_5 1_555 1_555
O8_5 Tb3_5 1_555 1_555
O11_5 Tb1_5 1_555 1_555
O12_5 Tb3_5 1_555 1_555
O13_5 Tb3_5 1_555 1_555
O14_5 Tb3_5 1_555 1_555
O17_5 Tb1_5 1_555 1_555
O18_5 Tb1_5 1_555 1_555
O19_5 Tb1_5 1_555 1_555
O22_5 Tb1_5 1_555 1_555
O15_5 H31_5 1_555 1_555
C1_6 C2_6 1_555 1_555
C2_6 C3_6 1_555 1_555
C4_6 C3_6 1_555 1_555
C5_6 C4_6 1_555 1_555
H5_6 C5_6 1_555 1_555
C6_6 C2_6 1_555 1_555
C7_6 C6_6 1_555 1_555
C8_6 H6_4 1_555 1_555
C9_6 C8_6 1_555 1_555
H7_4 C9_6 1_555 1_555
C10_6 C9_6 1_555 1_555
H8_6 C10_6 1_555 1_555
C11_6 C7_6 1_555 1_555
C12_6 C11_6 1_555 1_555
C37_6 C38_6 1_555 1_555
C38_6 C39_6 1_555 1_555
C39_6 H21_6 1_555 1_555
C40_6 C39_6 1_555 1_555
H22_6 C40_6 1_555 1_555
C41_6 C40_6 1_555 1_555
H23_6 C41_6 1_555 1_555
C42_6 C38_6 1_555 1_555
C43_6 C42_6 1_555 1_555
C44_6 H24_6 1_555 1_555
C45_6 C44_6 1_555 1_555
H25_6 C45_6 1_555 1_555
C46_6 C45_6 1_555 1_555
H26_6 C46_6 1_555 1_555
C47_6 C43_6 1_555 1_555
C48_6 C47_6 1_555 1_555
N1_6 C5_6 1_555 1_555
N2_6 C7_6 1_555 1_555
N7_6 C43_6 1_555 1_555
N8_6 C41_6 1_555 1_555
O1_6 C1_6 1_555 1_555
O2_6 C1_6 1_555 1_555
O3_6 C12_6 1_555 1_555
O4_6 C12_6 1_555 1_555
O17_6 H33_6 1_555 1_555
O18_6 C37_6 1_555 1_555
O20_6 C48_6 1_555 1_555
O21_6 C48_6 1_555 1_555
Co3_6 N1_6 1_555 1_555
Tb3_6 O2_6 1_555 1_555
C6_6 N1_6 1_555 1_555
C8_6 N2_6 1_555 1_555
C10_6 C11_6 1_555 1_555
C42_6 N8_6 1_555 1_555
C44_6 N7_6 1_555 1_555
C46_6 C47_6 1_555 1_555
N2_6 Co3_6 1_555 1_555
O20_6 Tb3_6 1_555 1_555
O21_6 Tb3_6 1_555 1_555
H1_6 O16_6 1_555 1_555
H2_6 O16_6 1_555 1_555
C13_6 C14_6 1_555 1_555
C14_6 C15_6 1_555 1_555
C15_6 H9_6 1_555 1_555
C16_6 C15_6 1_555 1_555
C17_6 C16_6 1_555 1_555
C18_6 C14_6 1_555 1_555
C19_6 C18_6 1_555 1_555
C20_6 H12_6 1_555 1_555
C21_6 C20_6 1_555 1_555
H13_6 C21_6 1_555 1_555
C22_6 C21_6 1_555 1_555
H14_6 C22_6 1_555 1_555
C23_6 C19_6 1_555 1_555
C24_6 C23_6 1_555 1_555
C25_6 C26_6 1_555 1_555
C26_6 C27_6 1_555 1_555
C27_6 H15_6 1_555 1_555
C28_5 C27_6 1_555 1_555
H16_5 C28_5 1_555 1_555
C29_6 C28_5 1_555 1_555
H17_5 C29_6 1_555 1_555
C30_6 C26_6 1_555 1_555
C31_6 C30_6 1_555 1_555
C32_6 H18_6 1_555 1_555
C33_6 C32_6 1_555 1_555
H19_6 C33_6 1_555 1_555
C34_6 C33_6 1_555 1_555
H20_6 C34_6 1_555 1_555
C35_6 C31_6 1_555 1_555
C36_6 C35_6 1_555 1_555
N3_6 C17_6 1_555 1_555
N4_6 C19_6 1_555 1_555
N11_5 C31_6 1_555 1_555
N12_5 C29_6 1_555 1_555
O5_6 C25_6 1_555 1_555
O6_6 C25_6 1_555 1_555
O7_6 C36_6 1_555 1_555
O8_6 C36_6 1_555 1_555
O9_6 C13_6 1_555 1_555
O10_6 C13_6 1_555 1_555
O11_6 C24_6 1_555 1_555
O12_6 C24_6 1_555 1_555
O13_6 H27_6 1_555 1_555
H28_6 O13_6 1_555 1_555
O14_6 H29_6 1_555 1_555
H30_6 O14_6 1_555 1_555
O15_6 H31_6 1_555 1_555
H32_6 O15_6 1_555 1_555
O16_6 Tb1_6 1_555 1_555
O22_6 H35_6 1_555 1_555
H36_6 O22_6 1_555 1_555
Co2_2 N3_6 1_555 1_555
Tb3_6 O7_6 1_555 1_555
N10_6 Co2_2 1_555 1_555
C18_6 N3_6 1_555 1_555
C20_6 N4_6 1_555 1_555
C22_6 C23_6 1_555 1_555
C30_6 N12_5 1_555 1_555
C32_6 N11_5 1_555 1_555
C34_6 C35_6 1_555 1_555
N4_6 Co2_2 1_555 1_555
O5_6 Tb1_6 1_555 1_555
O6_6 Tb1_6 1_555 1_555
O8_6 Tb3_6 1_555 1_555
O11_6 Tb1_6 1_555 1_555
O12_6 Tb3_6 1_555 1_555
O13_6 Tb3_6 1_555 1_555
O14_6 Tb3_6 1_555 1_555
O15_6 Tb3_6 1_555 1_555
O19_6 Tb1_6 1_555 1_555
O22_6 Tb1_6 1_555 1_555
C8_7 H6_5 1_555 1_555
C9_7 C8_7 1_555 1_555
H7_5 C9_7 1_555 1_555
C10_7 C9_7 1_555 1_555
H8_7 C10_7 1_555 1_555
C11_7 C7_7 1_555 1_555
N2_7 C7_7 1_555 1_555
O21_7 C48_7 1_555 1_555
C8_7 N2_7 1_555 1_555
C10_7 C11_7 1_555 1_555
N2_7 Co3_7 1_555 1_555
O21_7 Tb3_7 1_555 1_555
H1_7 O16_7 1_555 1_555
H2_7 O16_7 1_555 1_555
C1_7 C2_7 1_555 1_555
C2_7 C3_7 1_555 1_555
C3_7 H3_7 1_555 1_555
C4_7 C3_7 1_555 1_555
H4_7 C4_7 1_555 1_555
C5_7 C4_7 1_555 1_555
H5_7 C5_7 1_555 1_555
C6_7 C2_7 1_555 1_555
C13_7 C14_7 1_555 1_555
C14_7 C15_7 1_555 1_555
C15_7 H9_7 1_555 1_555
C16_7 C15_7 1_555 1_555
H10_7 C16_7 1_555 1_555
C17_7 C16_7 1_555 1_555
H11_7 C17_7 1_555 1_555
C18_7 C14_7 1_555 1_555
C19_7 C18_7 1_555 1_555
C20_7 H12_7 1_555 1_555
C21_7 C20_7 1_555 1_555
H13_7 C21_7 1_555 1_555
C22_7 C21_7 1_555 1_555
H14_7 C22_7 1_555 1_555
C23_7 C19_7 1_555 1_555
C24_7 C23_7 1_555 1_555
C25_7 C26_7 1_555 1_555
C26_7 C27_7 1_555 1_555
C27_7 H15_7 1_555 1_555
C28_6 C27_7 1_555 1_555
H16_6 C28_6 1_555 1_555
C29_7 C28_6 1_555 1_555
H17_6 C29_7 1_555 1_555
C30_7 C26_7 1_555 1_555
C31_7 C30_7 1_555 1_555
C32_7 H18_7 1_555 1_555
C33_7 C32_7 1_555 1_555
H19_7 C33_7 1_555 1_555
C34_7 C33_7 1_555 1_555
H20_7 C34_7 1_555 1_555
C35_7 C31_7 1_555 1_555
C36_7 C35_7 1_555 1_555
C37_7 C38_7 1_555 1_555
C38_7 C39_7 1_555 1_555
C39_7 H21_7 1_555 1_555
C40_7 C39_7 1_555 1_555
H22_7 C40_7 1_555 1_555
C41_7 C40_7 1_555 1_555
C42_7 C38_7 1_555 1_555
C43_7 C42_7 1_555 1_555
C44_7 H24_7 1_555 1_555
C45_7 C44_7 1_555 1_555
H25_7 C45_7 1_555 1_555
C46_7 C45_7 1_555 1_555
H26_7 C46_7 1_555 1_555
C47_7 C43_7 1_555 1_555
N1_7 C5_7 1_555 1_555
N3_7 C17_7 1_555 1_555
N4_7 C19_7 1_555 1_555
N11_2 C31_7 1_555 1_555
N12_2 C29_7 1_555 1_555
N7_7 C43_7 1_555 1_555
N8_7 C41_7 1_555 1_555
O1_7 C1_7 1_555 1_555
O2_7 C1_7 1_555 1_555
O3_7 C12_7 1_555 1_555
O4_7 C12_7 1_555 1_555
O5_7 C25_7 1_555 1_555
O6_7 C25_7 1_555 1_555
O7_7 C36_7 1_555 1_555
O8_7 C36_7 1_555 1_555
O9_7 C13_7 1_555 1_555
O10_7 C13_7 1_555 1_555
O11_7 C24_7 1_555 1_555
O12_7 C24_7 1_555 1_555
O13_7 H27_7 1_555 1_555
H28_7 O13_7 1_555 1_555
O14_7 H29_7 1_555 1_555
H30_7 O14_7 1_555 1_555
O16_7 Tb1_7 1_555 1_555
O17_7 H33_7 1_555 1_555
H34_7 O17_7 1_555 1_555
O18_7 C37_7 1_555 1_555
O19_7 C37_7 1_555 1_555
O22_7 H35_7 1_555 1_555
H36_7 O22_7 1_555 1_555
Co1_6 N3_7 1_555 1_555
Tb1_7 O1_7 1_555 1_555
Tb3_7 O7_7 1_555 1_555
N9_7 Co1_6 1_555 1_555
N10_7 Co1_6 1_555 1_555
N11_6 Co1_6 1_555 1_555
N12_6 Co1_6 1_555 1_555
C6_7 N1_7 1_555 1_555
C18_7 N3_7 1_555 1_555
C20_7 N4_7 1_555 1_555
C22_7 C23_7 1_555 1_555
C30_7 N12_2 1_555 1_555
C32_7 N11_2 1_555 1_555
C34_7 C35_7 1_555 1_555
C42_7 N8_7 1_555 1_555
C44_7 N7_7 1_555 1_555
C46_7 C47_7 1_555 1_555
N4_7 Co1_6 1_555 1_555
O5_7 Tb1_7 1_555 1_555
O6_7 Tb1_7 1_555 1_555
O8_7 Tb3_7 1_555 1_555
O11_7 Tb1_7 1_555 1_555
O12_7 Tb3_7 1_555 1_555
O13_7 Tb3_7 1_555 1_555
O14_7 Tb3_7 1_555 1_555
O17_7 Tb1_7 1_555 1_555
O18_7 Tb1_7 1_555 1_555
O19_7 Tb1_7 1_555 1_555
O22_7 Tb1_7 1_555 1_555
O15_7 H31_7 1_555 1_555
H16_7 C28_7 1_555 1_555
C29_8 C28_7 1_555 1_555
H17_7 C29_8 1_555 1_555
C31_8 C30_8 1_555 1_555
C32_8 H18_8 1_555 1_555
C33_8 C32_8 1_555 1_555
H19_8 C33_8 1_555 1_555
C34_8 C33_8 1_555 1_555
H20_8 C34_8 1_555 1_555
C35_8 C31_8 1_555 1_555
N11_6 C31_8 1_555 1_555
N12_6 C29_8 1_555 1_555
C30_8 N12_6 1_555 1_555
C32_8 N11_6 1_555 1_555
C34_8 C35_8 1_555 1_555
C1_8 C2_8 1_555 1_555
C2_8 C3_8 1_555 1_555
C4_8 C3_8 1_555 1_555
C5_8 C4_8 1_555 1_555
H5_8 C5_8 1_555 1_555
C6_8 C2_8 1_555 1_555
C7_8 C6_8 1_555 1_555
C8_8 H6_6 1_555 1_555
C9_8 C8_8 1_555 1_555
H7_6 C9_8 1_555 1_555
C10_8 C9_8 1_555 1_555
H8_8 C10_8 1_555 1_555
C11_8 C7_8 1_555 1_555
C12_8 C11_8 1_555 1_555
C37_8 C38_8 1_555 1_555
C38_8 C39_8 1_555 1_555
C42_8 C38_8 1_555 1_555
C43_8 C42_8 1_555 1_555
C44_8 H24_8 1_555 1_555
C45_8 C44_8 1_555 1_555
H25_8 C45_8 1_555 1_555
C46_8 C45_8 1_555 1_555
H26_8 C46_8 1_555 1_555
C47_8 C43_8 1_555 1_555
C48_8 C47_8 1_555 1_555
N1_8 C5_8 1_555 1_555
N2_8 C7_8 1_555 1_555
N7_8 C43_8 1_555 1_555
O1_8 C1_8 1_555 1_555
O2_8 C1_8 1_555 1_555
O3_8 C12_8 1_555 1_555
O4_8 C12_8 1_555 1_555
O17_8 H33_8 1_555 1_555
O18_8 C37_8 1_555 1_555
O20_8 C48_8 1_555 1_555
O21_8 C48_8 1_555 1_555
Co3_8 N1_8 1_555 1_555
Tb3_8 O2_8 1_555 1_555
C6_8 N1_8 1_555 1_555
C8_8 N2_8 1_555 1_555
C10_8 C11_8 1_555 1_555
C42_8 N8_8 1_555 1_555
C44_8 N7_8 1_555 1_555
C46_8 C47_8 1_555 1_555
N2_8 Co3_8 1_555 1_555
O20_8 Tb3_8 1_555 1_555
O21_8 Tb3_8 1_555 1_555
H1_8 O16_8 1_555 1_555
H2_8 O16_8 1_555 1_555
C13_8 C14_8 1_555 1_555
C14_8 C15_8 1_555 1_555
C15_8 H9_8 1_555 1_555
C16_8 C15_8 1_555 1_555
C17_8 C16_8 1_555 1_555
C18_8 C14_8 1_555 1_555
C19_8 C18_8 1_555 1_555
C20_8 H12_8 1_555 1_555
C21_8 C20_8 1_555 1_555
H13_8 C21_8 1_555 1_555
C22_8 C21_8 1_555 1_555
H14_8 C22_8 1_555 1_555
C23_8 C19_8 1_555 1_555
C24_8 C23_8 1_555 1_555
C25_8 C26_8 1_555 1_555
C26_8 C27_8 1_555 1_555
C27_8 H15_8 1_555 1_555
N3_8 C17_8 1_555 1_555
N4_8 C19_8 1_555 1_555
O5_8 C25_8 1_555 1_555
O6_8 C25_8 1_555 1_555
O7_8 C36_8 1_555 1_555
O8_8 C36_8 1_555 1_555
O9_8 C13_8 1_555 1_555
O10_8 C13_8 1_555 1_555
O11_8 C24_8 1_555 1_555
O12_8 C24_8 1_555 1_555
O13_8 H27_8 1_555 1_555
H28_8 O13_8 1_555 1_555
O14_8 H29_8 1_555 1_555
H30_8 O14_8 1_555 1_555
O15_8 H31_8 1_555 1_555
H32_8 O15_8 1_555 1_555
O16_8 Tb1_8 1_555 1_555
O22_8 H35_8 1_555 1_555
H36_8 O22_8 1_555 1_555
Co2 N3_8 1_555 1_555
Tb3_8 O7_8 1_555 1_555
N10_8 Co2 1_555 1_555
C18_8 N3_8 1_555 1_555
C20_8 N4_8 1_555 1_555
C22_8 C23_8 1_555 1_555
N4_8 Co2 1_555 1_555
O5_8 Tb1_8 1_555 1_555
O6_8 Tb1_8 1_555 1_555
O8_8 Tb3_8 1_555 1_555
O11_8 Tb1_8 1_555 1_555
O12_8 Tb3_8 1_555 1_555
O13_8 Tb3_8 1_555 1_555
O14_8 Tb3_8 1_555 1_555
O15_8 Tb3_8 1_555 1_555
O19_8 Tb1_8 1_555 1_555
O22_8 Tb1_8 1_555 1_555
H1_9 O16_9 1_555 1_555
H2_9 O16_9 1_555 1_555
C20_9 H12_9 1_555 1_555
C21_9 C20_9 1_555 1_555
H13_9 C21_9 1_555 1_555
C22_9 C21_9 1_555 1_555
H14_9 C22_9 1_555 1_555
C23_9 C19_9 1_555 1_555
C24_9 C23_9 1_555 1_555
C26_9 C27_9 1_555 1_555
C27_9 H15_9 1_555 1_555
C28_8 C27_9 1_555 1_555
H16_8 C28_8 1_555 1_555
C29_9 C28_8 1_555 1_555
H17_8 C29_9 1_555 1_555
C30_9 C26_9 1_555 1_555
C31_9 C30_9 1_555 1_555
C32_9 H18_9 1_555 1_555
C33_9 C32_9 1_555 1_555
H19_9 C33_9 1_555 1_555
C34_9 C33_9 1_555 1_555
H20_9 C34_9 1_555 1_555
C35_9 C31_9 1_555 1_555
C36_9 C35_9 1_555 1_555
N4_9 C19_9 1_555 1_555
N5_3 C31_9 1_555 1_555
N6_3 C29_9 1_555 1_555
O7_9 C36_9 1_555 1_555
O8_9 C36_9 1_555 1_555
O9_9 C13_9 1_555 1_555
O10_9 C13_9 1_555 1_555
O12_9 C24_9 1_555 1_555
O13_9 H27_9 1_555 1_555
H28_9 O13_9 1_555 1_555
O14_9 H29_9 1_555 1_555
H30_9 O14_9 1_555 1_555
O15_9 H31_9 1_555 1_555
H32_9 O15_9 1_555 1_555
Tb2 O7_9 1_555 1_555
O23 Tb2 1_555 1_555
O24 Tb2 1_555 1_555
O25 Tb2 1_555 1_555
Co3_5 N5_3 1_555 1_555
C20_9 N4_9 1_555 1_555
C22_9 C23_9 1_555 1_555
C30_9 N6_3 1_555 1_555
C32_9 N5_3 1_555 1_555
C34_9 C35_9 1_555 1_555
N6_3 Co3_5 1_555 1_555
O8_9 Tb2 1_555 1_555
O12_9 Tb2 1_555 1_555
O13_9 Tb2 1_555 1_555
O14_9 Tb2 1_555 1_555
O15_9 Tb2 1_555 1_555
C1_9 C2_9 1_555 1_555
C2_9 C3_9 1_555 1_555
C3_9 H3_9 1_555 1_555
C4_9 C3_9 1_555 1_555
H4_9 C4_9 1_555 1_555
C5_9 C4_9 1_555 1_555
H5_9 C5_9 1_555 1_555
C6_9 C2_9 1_555 1_555
C7_9 C6_9 1_555 1_555
C8_9 H6_7 1_555 1_555
C9_9 C8_9 1_555 1_555
H7_7 C9_9 1_555 1_555
C10_9 C9_9 1_555 1_555
H8_9 C10_9 1_555 1_555
C11_9 C7_9 1_555 1_555
C12_9 C11_9 1_555 1_555
C14_9 C15_9 1_555 1_555
C15_9 H9_9 1_555 1_555
C16_9 C15_9 1_555 1_555
H10_9 C16_9 1_555 1_555
C17_9 C16_9 1_555 1_555
H11_9 C17_9 1_555 1_555
C18_9 C14_9 1_555 1_555
C37_9 C38_9 1_555 1_555
C38_9 C39_9 1_555 1_555
C39_9 H21_8 1_555 1_555
C40_8 C39_9 1_555 1_555
H22_8 C40_8 1_555 1_555
C41_8 C40_8 1_555 1_555
H23_8 C41_8 1_555 1_555
C42_9 C38_9 1_555 1_555
C43_9 C42_9 1_555 1_555
C44_9 H24_9 1_555 1_555
C45_9 C44_9 1_555 1_555
H25_9 C45_9 1_555 1_555
C46_9 C45_9 1_555 1_555
H26_9 C46_9 1_555 1_555
C47_9 C43_9 1_555 1_555
C48_9 C47_9 1_555 1_555
N9_4 C5_9 1_555 1_555
N10_4 C7_9 1_555 1_555
N3_9 C17_9 1_555 1_555
N7_9 C43_9 1_555 1_555
N8_9 C41_8 1_555 1_555
O1_9 C1_9 1_555 1_555
O23 C1_9 1_555 1_555
O3_9 C12_9 1_555 1_555
O4_9 C12_9 1_555 1_555
O5_9 C25_9 1_555 1_555
O17_9 H33_9 1_555 1_555
H34_9 O17_9 1_555 1_555
O18_9 C37_9 1_555 1_555
O19_9 C37_9 1_555 1_555
O24 C48_9 1_555 1_555
O25 C48_9 1_555 1_555
O22_9 H35_9 1_555 1_555
H36_9 O22_9 1_555 1_555
Co3_2 N3_9 1_555 1_555
Tb1_9 O1_9 1_555 1_555
N11_7 Co3_2 1_555 1_555
N12_7 Co3_2 1_555 1_555
C6_9 N9_4 1_555 1_555
C8_9 N10_4 1_555 1_555
C10_9 C11_9 1_555 1_555
C18_9 N3_9 1_555 1_555
C42_9 N8_9 1_555 1_555
C44_9 N7_9 1_555 1_555
C46_9 C47_9 1_555 1_555
O5_9 Tb1_9 1_555 1_555
O11_9 Tb1_9 1_555 1_555
O17_9 Tb1_9 1_555 1_555
O18_9 Tb1_9 1_555 1_555
O19_9 Tb1_9 1_555 1_555
O22_9 Tb1_9 1_555 1_555
C31_10 C30_10 1_555 1_555
C32_10 H18_10 1_555 1_555
C33_10 C32_10 1_555 1_555
H19_10 C33_10 1_555 1_555
C34_10 C33_10 1_555 1_555
H20_10 C34_10 1_555 1_555
C35_10 C31_10 1_555 1_555
H22_9 C40_9 1_555 1_555
C41_9 C40_9 1_555 1_555
H23_9 C41_9 1_555 1_555
N11_7 C31_10 1_555 1_555
N12_7 C29_10 1_555 1_555
C30_10 N12_7 1_555 1_555
C32_10 N11_7 1_555 1_555
C34_10 C35_10 1_555 1_555
O14_10 H29_10 1_555 1_555
H30_10 O14_10 1_555 1_555
O15_10 H31_10 1_555 1_555
H32_10 O15_10 1_555 1_555
Tb2_2 O7_10 1_555 1_555
O23_2 Tb2_2 1_555 1_555
O24_2 Tb2_2 1_555 1_555
O25_2 Tb2_2 1_555 1_555
O14_10 Tb2_2 1_555 1_555
O15_10 Tb2_2 1_555 1_555
H1_10 O16_10 1_555 1_555
H2_10 O16_10 1_555 1_555
C1_10 C2_10 1_555 1_555
C2_10 C3_10 1_555 1_555
C3_10 H3_10 1_555 1_555
C6_10 C2_10 1_555 1_555
C7_10 C6_10 1_555 1_555
C10_10 C9_10 1_555 1_555
H8_10 C10_10 1_555 1_555
C11_10 C7_10 1_555 1_555
C12_10 C11_10 1_555 1_555
C13_10 C14_10 1_555 1_555
C14_10 C15_10 1_555 1_555
C15_10 H9_10 1_555 1_555
C16_10 C15_10 1_555 1_555
H10_10 C16_10 1_555 1_555
C17_10 C16_10 1_555 1_555
H11_10 C17_10 1_555 1_555
C18_10 C14_10 1_555 1_555
C19_10 C18_10 1_555 1_555
C20_10 H12_10 1_555 1_555
C21_10 C20_10 1_555 1_555
C22_10 C21_10 1_555 1_555
C23_10 C19_10 1_555 1_555
C24_10 C23_10 1_555 1_555
C25_10 C26_10 1_555 1_555
C26_10 C27_10 1_555 1_555
C27_10 H15_10 1_555 1_555
C37_10 C38_10 1_555 1_555
C38_10 C39_10 1_555 1_555
C42_10 C38_10 1_555 1_555
C43_10 C42_10 1_555 1_555
C44_10 H24_10 1_555 1_555
C45_10 C44_10 1_555 1_555
H25_10 C45_10 1_555 1_555
C46_10 C45_10 1_555 1_555
H26_10 C46_10 1_555 1_555
C47_10 C43_10 1_555 1_555
C48_10 C47_10 1_555 1_555
N3_10 C17_10 1_555 1_555
N4_10 C19_10 1_555 1_555
N7_10 C43_10 1_555 1_555
O1_10 C1_10 1_555 1_555
O23_2 C1_10 1_555 1_555
O3_10 C12_10 1_555 1_555
O4_10 C12_10 1_555 1_555
O5_10 C25_10 1_555 1_555
O6_10 C25_10 1_555 1_555
O8_10 C36_10 1_555 1_555
O9_10 C13_10 1_555 1_555
O10_10 C13_10 1_555 1_555
O11_10 C24_10 1_555 1_555
O12_10 C24_10 1_555 1_555
O13_10 H27_10 1_555 1_555
O16_10 Tb1_10 1_555 1_555
O17_10 H33_10 1_555 1_555
H34_10 O17_10 1_555 1_555
O18_10 C37_10 1_555 1_555
O19_10 C37_10 1_555 1_555
O24_2 C48_10 1_555 1_555
O25_2 C48_10 1_555 1_555
O22_10 H35_10 1_555 1_555
H36_10 O22_10 1_555 1_555
Co3_3 N3_10 1_555 1_555
Tb1_10 O1_10 1_555 1_555
N11_8 Co3_3 1_555 1_555
N12_8 Co3_3 1_555 1_555
C10_10 C11_10 1_555 1_555
C18_10 N3_10 1_555 1_555
C20_10 N4_10 1_555 1_555
C22_10 C23_10 1_555 1_555
C42_10 N8_10 1_555 1_555
C44_10 N7_10 1_555 1_555
C46_10 C47_10 1_555 1_555
N4_10 Co3_3 1_555 1_555
O5_10 Tb1_10 1_555 1_555
O6_10 Tb1_10 1_555 1_555
O11_10 Tb1_10 1_555 1_555
O17_10 Tb1_10 1_555 1_555
O18_10 Tb1_10 1_555 1_555
O19_10 Tb1_10 1_555 1_555
O22_10 Tb1_10 1_555 1_555
H4_10 C4_10 1_555 1_555
C5_10 C4_10 1_555 1_555
H5_10 C5_10 1_555 1_555
N9 C5_10 1_555 1_555
C8_10 N10 1_555 1_555
H1_11 O16_11 1_555 1_555
H2_11 O16_11 1_555 1_555
C20_11 H12_11 1_555 1_555
C21_11 C20_11 1_555 1_555
H13_11 C21_11 1_555 1_555
C22_11 C21_11 1_555 1_555
H14_11 C22_11 1_555 1_555
C23_11 C19_11 1_555 1_555
C24_11 C23_11 1_555 1_555
C26_11 C27_11 1_555 1_555
C27_11 H15_11 1_555 1_555
C28_9 C27_11 1_555 1_555
H16_9 C28_9 1_555 1_555
C29_11 C28_9 1_555 1_555
H17_9 C29_11 1_555 1_555
C30_11 C26_11 1_555 1_555
C31_11 C30_11 1_555 1_555
C32_11 H18_11 1_555 1_555
C33_11 C32_11 1_555 1_555
H19_11 C33_11 1_555 1_555
C34_11 C33_11 1_555 1_555
H20_11 C34_11 1_555 1_555
C35_11 C31_11 1_555 1_555
C36_11 C35_11 1_555 1_555
N4_11 C19_11 1_555 1_555
N5_4 C31_11 1_555 1_555
N6_4 C29_11 1_555 1_555
O7_11 C36_11 1_555 1_555
O8_11 C36_11 1_555 1_555
O9_11 C13_11 1_555 1_555
O10_11 C13_11 1_555 1_555
O12_11 C24_11 1_555 1_555
O13_11 H27_11 1_555 1_555
H28_11 O13_11 1_555 1_555
O14_11 H29_11 1_555 1_555
H30_11 O14_11 1_555 1_555
O15_11 H31_11 1_555 1_555
H32_11 O15_11 1_555 1_555
Tb2_3 O7_11 1_555 1_555
O23_3 Tb2_3 1_555 1_555
O24_3 Tb2_3 1_555 1_555
O25_3 Tb2_3 1_555 1_555
Co3_7 N5_4 1_555 1_555
C20_11 N4_11 1_555 1_555
C22_11 C23_11 1_555 1_555
C30_11 N6_4 1_555 1_555
C32_11 N5_4 1_555 1_555
C34_11 C35_11 1_555 1_555
N6_4 Co3_7 1_555 1_555
O8_11 Tb2_3 1_555 1_555
O12_11 Tb2_3 1_555 1_555
O13_11 Tb2_3 1_555 1_555
O14_11 Tb2_3 1_555 1_555
O15_11 Tb2_3 1_555 1_555
C1_11 C2_11 1_555 1_555
C2_11 C3_11 1_555 1_555
C3_11 H3_11 1_555 1_555
C4_11 C3_11 1_555 1_555
H4_11 C4_11 1_555 1_555
C5_11 C4_11 1_555 1_555
H5_11 C5_11 1_555 1_555
C6_11 C2_11 1_555 1_555
C7_11 C6_11 1_555 1_555
C8_11 H6_8 1_555 1_555
C9_11 C8_11 1_555 1_555
H7_8 C9_11 1_555 1_555
C10_11 C9_11 1_555 1_555
H8_11 C10_11 1_555 1_555
C11_11 C7_11 1_555 1_555
C12_11 C11_11 1_555 1_555
C14_11 C15_11 1_555 1_555
C15_11 H9_11 1_555 1_555
C16_11 C15_11 1_555 1_555
H10_11 C16_11 1_555 1_555
C17_11 C16_11 1_555 1_555
H11_11 C17_11 1_555 1_555
C18_11 C14_11 1_555 1_555
C37_11 C38_11 1_555 1_555
C38_11 C39_11 1_555 1_555
C39_11 H21_10 1_555 1_555
C40_10 C39_11 1_555 1_555
H22_10 C40_10 1_555 1_555
C41_10 C40_10 1_555 1_555
H23_10 C41_10 1_555 1_555
C42_11 C38_11 1_555 1_555
C43_11 C42_11 1_555 1_555
C44_11 H24_11 1_555 1_555
C45_11 C44_11 1_555 1_555
H25_11 C45_11 1_555 1_555
C46_11 C45_11 1_555 1_555
H26_11 C46_11 1_555 1_555
C47_11 C43_11 1_555 1_555
C48_11 C47_11 1_555 1_555
N9_2 C5_11 1_555 1_555
N10_2 C7_11 1_555 1_555
N3_11 C17_11 1_555 1_555
N7_11 C43_11 1_555 1_555
N8_11 C41_10 1_555 1_555
O1_11 C1_11 1_555 1_555
O23_3 C1_11 1_555 1_555
O3_11 C12_11 1_555 1_555
O4_11 C12_11 1_555 1_555
O5_11 C25_11 1_555 1_555
O17_11 H33_11 1_555 1_555
H34_11 O17_11 1_555 1_555
O18_11 C37_11 1_555 1_555
O19_11 C37_11 1_555 1_555
O24_3 C48_11 1_555 1_555
O25_3 C48_11 1_555 1_555
O22_11 H35_11 1_555 1_555
H36_11 O22_11 1_555 1_555
Co3_4 N3_11 1_555 1_555
Tb1_11 O1_11 1_555 1_555
N11_9 Co3_4 1_555 1_555
N12_9 Co3_4 1_555 1_555
C6_11 N9_2 1_555 1_555
C8_11 N10_2 1_555 1_555
C10_11 C11_11 1_555 1_555
C18_11 N3_11 1_555 1_555
C42_11 N8_11 1_555 1_555
C44_11 N7_11 1_555 1_555
C46_11 C47_11 1_555 1_555
O5_11 Tb1_11 1_555 1_555
O11_11 Tb1_11 1_555 1_555
O17_11 Tb1_11 1_555 1_555
O18_11 Tb1_11 1_555 1_555
O19_11 Tb1_11 1_555 1_555
O22_11 Tb1_11 1_555 1_555
H4_12 C4_12 1_555 1_555
C5_12 C4_12 1_555 1_555
H5_12 C5_12 1_555 1_555
H16_10 C28_10 1_555 1_555
N9_3 C5_12 1_555 1_555
C8_12 N10_3 1_555 1_555
O14_12 H29_12 1_555 1_555
H30_12 O14_12 1_555 1_555
O15_12 H31_12 1_555 1_555
H32_12 O15_12 1_555 1_555
Tb2_4 O7_12 1_555 1_555
O23_4 Tb2_4 1_555 1_555
O24_4 Tb2_4 1_555 1_555
O25_4 Tb2_4 1_555 1_555
O14_12 Tb2_4 1_555 1_555
O15_12 Tb2_4 1_555 1_555
H1_12 O16_12 1_555 1_555
H2_12 O16_12 1_555 1_555
C1_12 C2_12 1_555 1_555
C2_12 C3_12 1_555 1_555
C3_12 H3_12 1_555 1_555
C6_12 C2_12 1_555 1_555
C7_12 C6_12 1_555 1_555
C10_12 C9_12 1_555 1_555
H8_12 C10_12 1_555 1_555
C11_12 C7_12 1_555 1_555
C12_12 C11_12 1_555 1_555
C13_12 C14_12 1_555 1_555
C14_12 C15_12 1_555 1_555
C15_12 H9_12 1_555 1_555
C16_12 C15_12 1_555 1_555
H10_12 C16_12 1_555 1_555
C17_12 C16_12 1_555 1_555
H11_12 C17_12 1_555 1_555
C18_12 C14_12 1_555 1_555
C19_12 C18_12 1_555 1_555
C20_12 H12_12 1_555 1_555
C21_12 C20_12 1_555 1_555
C22_12 C21_12 1_555 1_555
C23_12 C19_12 1_555 1_555
C24_12 C23_12 1_555 1_555
C25_12 C26_12 1_555 1_555
C26_12 C27_12 1_555 1_555
C27_12 H15_12 1_555 1_555
C30_12 C26_12 1_555 1_555
C31_12 C30_12 1_555 1_555
C32_12 H18_12 1_555 1_555
C33_12 C32_12 1_555 1_555
H19_12 C33_12 1_555 1_555
C34_12 C33_12 1_555 1_555
H20_12 C34_12 1_555 1_555
C35_12 C31_12 1_555 1_555
C36_12 C35_12 1_555 1_555
C37_12 C38_12 1_555 1_555
C38_12 C39_12 1_555 1_555
C39_12 H21_11 1_555 1_555
C40_11 C39_12 1_555 1_555
H22_11 C40_11 1_555 1_555
C41_11 C40_11 1_555 1_555
H23_11 C41_11 1_555 1_555
C42_12 C38_12 1_555 1_555
C43_12 C42_12 1_555 1_555
C44_12 H24_12 1_555 1_555
C45_12 C44_12 1_555 1_555
H25_12 C45_12 1_555 1_555
C46_12 C45_12 1_555 1_555
H26_12 C46_12 1_555 1_555
C47_12 C43_12 1_555 1_555
C48_12 C47_12 1_555 1_555
N3_12 C17_12 1_555 1_555
N4_12 C19_12 1_555 1_555
N11_9 C31_12 1_555 1_555
N12_9 C29_12 1_555 1_555
N7_12 C43_12 1_555 1_555
N8_12 C41_11 1_555 1_555
O1_12 C1_12 1_555 1_555
O23_4 C1_12 1_555 1_555
O3_12 C12_12 1_555 1_555
O4_12 C12_12 1_555 1_555
O5_12 C25_12 1_555 1_555
O6_12 C25_12 1_555 1_555
O8_12 C36_12 1_555 1_555
O9_12 C13_12 1_555 1_555
O10_12 C13_12 1_555 1_555
O11_12 C24_12 1_555 1_555
O12_12 C24_12 1_555 1_555
O13_12 H27_12 1_555 1_555
O16_12 Tb1_12 1_555 1_555
O17_12 H33_12 1_555 1_555
H34_12 O17_12 1_555 1_555
O18_12 C37_12 1_555 1_555
O19_12 C37_12 1_555 1_555
O24_4 C48_12 1_555 1_555
O25_4 C48_12 1_555 1_555
O22_12 H35_12 1_555 1_555
H36_12 O22_12 1_555 1_555
Co3 N3_12 1_555 1_555
Tb1_12 O1_12 1_555 1_555
N11_10 Co3 1_555 1_555
N12_10 Co3 1_555 1_555
C10_12 C11_12 1_555 1_555
C18_12 N3_12 1_555 1_555
C20_12 N4_12 1_555 1_555
C22_12 C23_12 1_555 1_555
C30_12 N12_9 1_555 1_555
C32_12 N11_9 1_555 1_555
C34_12 C35_12 1_555 1_555
C42_12 N8_12 1_555 1_555
C44_12 N7_12 1_555 1_555
C46_12 C47_12 1_555 1_555
N4_12 Co3 1_555 1_555
O5_12 Tb1_12 1_555 1_555
O6_12 Tb1_12 1_555 1_555
O11_12 Tb1_12 1_555 1_555
O17_12 Tb1_12 1_555 1_555
O18_12 Tb1_12 1_555 1_555
O19_12 Tb1_12 1_555 1_555
O22_12 Tb1_12 1_555 1_555
O15_13 H31_13 1_555 1_555
H1_13 O16_13 1_555 1_555
H2_13 O16_13 1_555 1_555
C1_13 C2_13 1_555 1_555
C2_13 C3_13 1_555 1_555
C3_13 H3_13 1_555 1_555
C4_13 C3_13 1_555 1_555
H4_13 C4_13 1_555 1_555
C5_13 C4_13 1_555 1_555
H5_13 C5_13 1_555 1_555
C6_13 C2_13 1_555 1_555
C13_13 C14_13 1_555 1_555
C14_13 C15_13 1_555 1_555
C15_13 H9_13 1_555 1_555
C16_13 C15_13 1_555 1_555
H10_13 C16_13 1_555 1_555
C17_13 C16_13 1_555 1_555
H11_13 C17_13 1_555 1_555
C18_13 C14_13 1_555 1_555
C19_13 C18_13 1_555 1_555
C20_13 H12_13 1_555 1_555
C21_13 C20_13 1_555 1_555
H13_13 C21_13 1_555 1_555
C22_13 C21_13 1_555 1_555
H14_13 C22_13 1_555 1_555
C23_13 C19_13 1_555 1_555
C24_13 C23_13 1_555 1_555
C25_13 C26_13 1_555 1_555
C26_13 C27_13 1_555 1_555
C27_13 H15_13 1_555 1_555
C28_11 C27_13 1_555 1_555
H16_11 C28_11 1_555 1_555
C29_13 C28_11 1_555 1_555
H17_11 C29_13 1_555 1_555
C30_13 C26_13 1_555 1_555
C31_13 C30_13 1_555 1_555
C32_13 H18_13 1_555 1_555
C33_13 C32_13 1_555 1_555
H19_13 C33_13 1_555 1_555
C34_13 C33_13 1_555 1_555
H20_13 C34_13 1_555 1_555
C35_13 C31_13 1_555 1_555
C36_13 C35_13 1_555 1_555
C37_13 C38_13 1_555 1_555
C38_13 C39_13 1_555 1_555
C39_13 H21_12 1_555 1_555
C40_12 C39_13 1_555 1_555
H22_12 C40_12 1_555 1_555
C41_12 C40_12 1_555 1_555
C42_13 C38_13 1_555 1_555
C43_13 C42_13 1_555 1_555
C44_13 H24_13 1_555 1_555
C45_13 C44_13 1_555 1_555
H25_13 C45_13 1_555 1_555
C46_13 C45_13 1_555 1_555
H26_13 C46_13 1_555 1_555
C47_13 C43_13 1_555 1_555
N9_8 C5_13 1_555 1_555
N3_13 C17_13 1_555 1_555
N4_13 C19_13 1_555 1_555
N11_10 C31_13 1_555 1_555
N12_10 C29_13 1_555 1_555
N7_13 C43_13 1_555 1_555
N8_13 C41_12 1_555 1_555
O1_13 C1_13 1_555 1_555
O23_5 C1_13 1_555 1_555
O3_13 C12_13 1_555 1_555
O4_13 C12_13 1_555 1_555
O5_13 C25_13 1_555 1_555
O6_13 C25_13 1_555 1_555
O7_13 C36_13 1_555 1_555
O8_13 C36_13 1_555 1_555
O9_13 C13_13 1_555 1_555
O10_13 C13_13 1_555 1_555
O11_13 C24_13 1_555 1_555
O12_13 C24_13 1_555 1_555
O13_13 H27_13 1_555 1_555
H28_13 O13_13 1_555 1_555
O14_13 H29_13 1_555 1_555
H30_13 O14_13 1_555 1_555
O16_13 Tb1_13 1_555 1_555
O17_13 H33_13 1_555 1_555
H34_13 O17_13 1_555 1_555
O18_13 C37_13 1_555 1_555
O19_13 C37_13 1_555 1_555
O22_13 H35_13 1_555 1_555
H36_13 O22_13 1_555 1_555
Co3_6 N3_13 1_555 1_555
Tb1_13 O1_13 1_555 1_555
Tb2_5 O7_13 1_555 1_555
N11_11 Co3_6 1_555 1_555
N12_11 Co3_6 1_555 1_555
O25_5 Tb2_5 1_555 1_555
C6_13 N9_8 1_555 1_555
C18_13 N3_13 1_555 1_555
C20_13 N4_13 1_555 1_555
C22_13 C23_13 1_555 1_555
C30_13 N12_10 1_555 1_555
C32_13 N11_10 1_555 1_555
C34_13 C35_13 1_555 1_555
C42_13 N8_13 1_555 1_555
C44_13 N7_13 1_555 1_555
C46_13 C47_13 1_555 1_555
N4_13 Co3_6 1_555 1_555
O5_13 Tb1_13 1_555 1_555
O6_13 Tb1_13 1_555 1_555
O8_13 Tb2_5 1_555 1_555
O11_13 Tb1_13 1_555 1_555
O12_13 Tb2_5 1_555 1_555
O13_13 Tb2_5 1_555 1_555
O14_13 Tb2_5 1_555 1_555
O17_13 Tb1_13 1_555 1_555
O18_13 Tb1_13 1_555 1_555
O19_13 Tb1_13 1_555 1_555
O22_13 Tb1_13 1_555 1_555
C8_13 H6_9 1_555 1_555
C9_13 C8_13 1_555 1_555
H7_9 C9_13 1_555 1_555
C10_13 C9_13 1_555 1_555
H8_13 C10_13 1_555 1_555
C11_13 C7_13 1_555 1_555
N10_8 C7_13 1_555 1_555
O25_5 C48_13 1_555 1_555
C8_13 N10_8 1_555 1_555
C10_13 C11_13 1_555 1_555
H1_14 O16_14 1_555 1_555
H2_14 O16_14 1_555 1_555
C13_14 C14_14 1_555 1_555
C14_14 C15_14 1_555 1_555
C15_14 H9_14 1_555 1_555
C16_14 C15_14 1_555 1_555
C17_14 C16_14 1_555 1_555
C18_14 C14_14 1_555 1_555
C19_14 C18_14 1_555 1_555
C20_14 H12_14 1_555 1_555
C21_14 C20_14 1_555 1_555
H13_14 C21_14 1_555 1_555
C22_14 C21_14 1_555 1_555
H14_14 C22_14 1_555 1_555
C23_14 C19_14 1_555 1_555
C24_14 C23_14 1_555 1_555
C25_14 C26_14 1_555 1_555
C26_14 C27_14 1_555 1_555
C27_14 H15_14 1_555 1_555
C28_12 C27_14 1_555 1_555
H16_12 C28_12 1_555 1_555
C29_14 C28_12 1_555 1_555
H17_12 C29_14 1_555 1_555
C30_14 C26_14 1_555 1_555
C31_14 C30_14 1_555 1_555
C32_14 H18_14 1_555 1_555
C33_14 C32_14 1_555 1_555
H19_14 C33_14 1_555 1_555
C34_14 C33_14 1_555 1_555
H20_14 C34_14 1_555 1_555
C35_14 C31_14 1_555 1_555
C36_14 C35_14 1_555 1_555
N3_14 C17_14 1_555 1_555
N4_14 C19_14 1_555 1_555
N11_11 C31_14 1_555 1_555
N12_11 C29_14 1_555 1_555
O5_14 C25_14 1_555 1_555
O6_14 C25_14 1_555 1_555
O7_14 C36_14 1_555 1_555
O8_14 C36_14 1_555 1_555
O9_14 C13_14 1_555 1_555
O10_14 C13_14 1_555 1_555
O11_14 C24_14 1_555 1_555
O12_14 C24_14 1_555 1_555
O13_14 H27_14 1_555 1_555
H28_14 O13_14 1_555 1_555
O14_14 H29_14 1_555 1_555
H30_14 O14_14 1_555 1_555
O15_14 H31_14 1_555 1_555
H32_14 O15_14 1_555 1_555
O16_14 Tb1_14 1_555 1_555
O22_14 H35_14 1_555 1_555
H36_14 O22_14 1_555 1_555
Co3_7 N3_14 1_555 1_555
Tb2_6 O7_14 1_555 1_555
O23_6 Tb2_6 1_555 1_555
O24_6 Tb2_6 1_555 1_555
O25_6 Tb2_6 1_555 1_555
C18_14 N3_14 1_555 1_555
C20_14 N4_14 1_555 1_555
C22_14 C23_14 1_555 1_555
C30_14 N12_11 1_555 1_555
C32_14 N11_11 1_555 1_555
C34_14 C35_14 1_555 1_555
N4_14 Co3_7 1_555 1_555
O5_14 Tb1_14 1_555 1_555
O6_14 Tb1_14 1_555 1_555
O8_14 Tb2_6 1_555 1_555
O11_14 Tb1_14 1_555 1_555
O12_14 Tb2_6 1_555 1_555
O13_14 Tb2_6 1_555 1_555
O14_14 Tb2_6 1_555 1_555
O15_14 Tb2_6 1_555 1_555
O19_14 Tb1_14 1_555 1_555
O22_14 Tb1_14 1_555 1_555
C1_14 C2_14 1_555 1_555
C2_14 C3_14 1_555 1_555
C4_14 C3_14 1_555 1_555
C5_14 C4_14 1_555 1_555
H5_14 C5_14 1_555 1_555
C6_14 C2_14 1_555 1_555
C7_14 C6_14 1_555 1_555
C8_14 H6_10 1_555 1_555
C9_14 C8_14 1_555 1_555
H7_10 C9_14 1_555 1_555
C10_14 C9_14 1_555 1_555
H8_14 C10_14 1_555 1_555
C11_14 C7_14 1_555 1_555
C12_14 C11_14 1_555 1_555
C37_14 C38_14 1_555 1_555
C38_14 C39_14 1_555 1_555
C39_14 H21_13 1_555 1_555
C40_13 C39_14 1_555 1_555
H22_13 C40_13 1_555 1_555
C41_13 C40_13 1_555 1_555
H23_13 C41_13 1_555 1_555
C42_14 C38_14 1_555 1_555
C43_14 C42_14 1_555 1_555
C44_14 H24_14 1_555 1_555
C45_14 C44_14 1_555 1_555
H25_14 C45_14 1_555 1_555
C46_14 C45_14 1_555 1_555
H26_14 C46_14 1_555 1_555
C47_14 C43_14 1_555 1_555
C48_14 C47_14 1_555 1_555
N9_5 C5_14 1_555 1_555
N10_5 C7_14 1_555 1_555
N7_14 C43_14 1_555 1_555
N8_14 C41_13 1_555 1_555
O1_14 C1_14 1_555 1_555
O23_6 C1_14 1_555 1_555
O3_14 C12_14 1_555 1_555
O4_14 C12_14 1_555 1_555
O17_14 H33_14 1_555 1_555
O18_14 C37_14 1_555 1_555
O24_6 C48_14 1_555 1_555
O25_6 C48_14 1_555 1_555
C6_14 N9_5 1_555 1_555
C8_14 N10_5 1_555 1_555
C10_14 C11_14 1_555 1_555
C42_14 N8_14 1_555 1_555
C44_14 N7_14 1_555 1_555
C46_14 C47_14 1_555 1_555
O15_15 H31_15 1_555 1_555
H1_15 O16_15 1_555 1_555
H2_15 O16_15 1_555 1_555
C1_15 C2_15 1_555 1_555
C2_15 C3_15 1_555 1_555
C3_15 H3_15 1_555 1_555
C4_15 C3_15 1_555 1_555
H4_15 C4_15 1_555 1_555
C5_15 C4_15 1_555 1_555
H5_15 C5_15 1_555 1_555
C6_15 C2_15 1_555 1_555
C13_15 C14_15 1_555 1_555
C14_15 C15_15 1_555 1_555
C15_15 H9_15 1_555 1_555
C16_15 C15_15 1_555 1_555
H10_15 C16_15 1_555 1_555
C17_15 C16_15 1_555 1_555
H11_15 C17_15 1_555 1_555
C18_15 C14_15 1_555 1_555
C19_15 C18_15 1_555 1_555
C20_15 H12_15 1_555 1_555
C21_15 C20_15 1_555 1_555
H13_15 C21_15 1_555 1_555
C22_15 C21_15 1_555 1_555
H14_15 C22_15 1_555 1_555
C23_15 C19_15 1_555 1_555
C24_15 C23_15 1_555 1_555
C25_15 C26_15 1_555 1_555
C26_15 C27_15 1_555 1_555
C27_15 H15_15 1_555 1_555
C28_13 C27_15 1_555 1_555
H16_13 C28_13 1_555 1_555
C29_15 C28_13 1_555 1_555
H17_13 C29_15 1_555 1_555
C30_15 C26_15 1_555 1_555
C31_15 C30_15 1_555 1_555
C32_15 H18_15 1_555 1_555
C33_15 C32_15 1_555 1_555
H19_15 C33_15 1_555 1_555
C34_15 C33_15 1_555 1_555
H20_15 C34_15 1_555 1_555
C35_15 C31_15 1_555 1_555
C36_15 C35_15 1_555 1_555
C37_15 C38_15 1_555 1_555
C38_15 C39_15 1_555 1_555
C39_15 H21_14 1_555 1_555
C40_14 C39_15 1_555 1_555
H22_14 C40_14 1_555 1_555
C41_14 C40_14 1_555 1_555
C42_15 C38_15 1_555 1_555
C43_15 C42_15 1_555 1_555
C44_15 H24_15 1_555 1_555
C45_15 C44_15 1_555 1_555
H25_15 C45_15 1_555 1_555
C46_15 C45_15 1_555 1_555
H26_15 C46_15 1_555 1_555
C47_15 C43_15 1_555 1_555
N9_6 C5_15 1_555 1_555
N3_15 C17_15 1_555 1_555
N4_15 C19_15 1_555 1_555
N11_8 C31_15 1_555 1_555
N12_8 C29_15 1_555 1_555
N7_15 C43_15 1_555 1_555
N8_15 C41_14 1_555 1_555
O1_15 C1_15 1_555 1_555
O23_7 C1_15 1_555 1_555
O3_15 C12_15 1_555 1_555
O4_15 C12_15 1_555 1_555
O5_15 C25_15 1_555 1_555
O6_15 C25_15 1_555 1_555
O7_15 C36_15 1_555 1_555
O8_15 C36_15 1_555 1_555
O9_15 C13_15 1_555 1_555
O10_15 C13_15 1_555 1_555
O11_15 C24_15 1_555 1_555
O12_15 C24_15 1_555 1_555
O13_15 H27_15 1_555 1_555
H28_15 O13_15 1_555 1_555
O14_15 H29_15 1_555 1_555
H30_15 O14_15 1_555 1_555
O16_15 Tb1_15 1_555 1_555
O17_15 H33_15 1_555 1_555
H34_15 O17_15 1_555 1_555
O18_15 C37_15 1_555 1_555
O19_15 C37_15 1_555 1_555
O22_15 H35_15 1_555 1_555
H36_15 O22_15 1_555 1_555
Co3_8 N3_15 1_555 1_555
Tb1_15 O1_15 1_555 1_555
Tb2_7 O7_15 1_555 1_555
N11_12 Co3_8 1_555 1_555
N12_12 Co3_8 1_555 1_555
O25_7 Tb2_7 1_555 1_555
C6_15 N9_6 1_555 1_555
C18_15 N3_15 1_555 1_555
C20_15 N4_15 1_555 1_555
C22_15 C23_15 1_555 1_555
C30_15 N12_8 1_555 1_555
C32_15 N11_8 1_555 1_555
C34_15 C35_15 1_555 1_555
C42_15 N8_15 1_555 1_555
C44_15 N7_15 1_555 1_555
C46_15 C47_15 1_555 1_555
N4_15 Co3_8 1_555 1_555
O5_15 Tb1_15 1_555 1_555
O6_15 Tb1_15 1_555 1_555
O8_15 Tb2_7 1_555 1_555
O11_15 Tb1_15 1_555 1_555
O12_15 Tb2_7 1_555 1_555
O13_15 Tb2_7 1_555 1_555
O14_15 Tb2_7 1_555 1_555
O17_15 Tb1_15 1_555 1_555
O18_15 Tb1_15 1_555 1_555
O19_15 Tb1_15 1_555 1_555
O22_15 Tb1_15 1_555 1_555
C8_15 H6_11 1_555 1_555
C9_15 C8_15 1_555 1_555
H7_11 C9_15 1_555 1_555
C10_15 C9_15 1_555 1_555
H8_15 C10_15 1_555 1_555
C11_15 C7_15 1_555 1_555
N10_6 C7_15 1_555 1_555
O25_7 C48_15 1_555 1_555
C8_15 N10_6 1_555 1_555
C10_15 C11_15 1_555 1_555
H1_16 O16_16 1_555 1_555
H2_16 O16_16 1_555 1_555
C13_16 C14_16 1_555 1_555
C14_16 C15_16 1_555 1_555
C15_16 H9_16 1_555 1_555
C16_16 C15_16 1_555 1_555
C17_16 C16_16 1_555 1_555
C18_16 C14_16 1_555 1_555
C19_16 C18_16 1_555 1_555
C20_16 H12_16 1_555 1_555
C21_16 C20_16 1_555 1_555
H13_16 C21_16 1_555 1_555
C22_16 C21_16 1_555 1_555
H14_16 C22_16 1_555 1_555
C23_16 C19_16 1_555 1_555
C24_16 C23_16 1_555 1_555
C25_16 C26_16 1_555 1_555
C26_16 C27_16 1_555 1_555
C27_16 H15_16 1_555 1_555
N3_16 C17_16 1_555 1_555
N4_16 C19_16 1_555 1_555
O5_16 C25_16 1_555 1_555
O6_16 C25_16 1_555 1_555
O7_16 C36_16 1_555 1_555
O8_16 C36_16 1_555 1_555
O9_16 C13_16 1_555 1_555
O10_16 C13_16 1_555 1_555
O11_16 C24_16 1_555 1_555
O12_16 C24_16 1_555 1_555
O13_16 H27_16 1_555 1_555
H28_16 O13_16 1_555 1_555
O14_16 H29_16 1_555 1_555
H30_16 O14_16 1_555 1_555
O15_16 H31_16 1_555 1_555
H32_16 O15_16 1_555 1_555
O16_16 Tb1_16 1_555 1_555
O22_16 H35_16 1_555 1_555
H36_16 O22_16 1_555 1_555
Co3_5 N3_16 1_555 1_555
Tb2_8 O7_16 1_555 1_555
O23_8 Tb2_8 1_555 1_555
O24_8 Tb2_8 1_555 1_555
O25_8 Tb2_8 1_555 1_555
C18_16 N3_16 1_555 1_555
C20_16 N4_16 1_555 1_555
C22_16 C23_16 1_555 1_555
N4_16 Co3_5 1_555 1_555
O5_16 Tb1_16 1_555 1_555
O6_16 Tb1_16 1_555 1_555
O8_16 Tb2_8 1_555 1_555
O11_16 Tb1_16 1_555 1_555
O12_16 Tb2_8 1_555 1_555
O13_16 Tb2_8 1_555 1_555
O14_16 Tb2_8 1_555 1_555
O15_16 Tb2_8 1_555 1_555
O19_16 Tb1_16 1_555 1_555
O22_16 Tb1_16 1_555 1_555
C1_16 C2_16 1_555 1_555
C2_16 C3_16 1_555 1_555
C4_16 C3_16 1_555 1_555
C5_16 C4_16 1_555 1_555
H5_16 C5_16 1_555 1_555
C6_16 C2_16 1_555 1_555
C7_16 C6_16 1_555 1_555
C8_16 H6_12 1_555 1_555
C9_16 C8_16 1_555 1_555
H7_12 C9_16 1_555 1_555
C10_16 C9_16 1_555 1_555
H8_16 C10_16 1_555 1_555
C11_16 C7_16 1_555 1_555
C12_16 C11_16 1_555 1_555
C37_16 C38_16 1_555 1_555
C38_16 C39_16 1_555 1_555
C42_16 C38_16 1_555 1_555
C43_16 C42_16 1_555 1_555
C44_16 H24_16 1_555 1_555
C45_16 C44_16 1_555 1_555
H25_16 C45_16 1_555 1_555
C46_16 C45_16 1_555 1_555
H26_16 C46_16 1_555 1_555
C47_16 C43_16 1_555 1_555
C48_16 C47_16 1_555 1_555
N9_7 C5_16 1_555 1_555
N10_7 C7_16 1_555 1_555
N7_16 C43_16 1_555 1_555
O1_16 C1_16 1_555 1_555
O23_8 C1_16 1_555 1_555
O3_16 C12_16 1_555 1_555
O4_16 C12_16 1_555 1_555
O17_16 H33_16 1_555 1_555
O18_16 C37_16 1_555 1_555
O24_8 C48_16 1_555 1_555
O25_8 C48_16 1_555 1_555
C6_16 N9_7 1_555 1_555
C8_16 N10_7 1_555 1_555
C10_16 C11_16 1_555 1_555
C42_16 N8_16 1_555 1_555
C44_16 N7_16 1_555 1_555
C46_16 C47_16 1_555 1_555
H16_14 C28_14 1_555 1_555
C29_16 C28_14 1_555 1_555
H17_14 C29_16 1_555 1_555
C31_16 C30_16 1_555 1_555
C32_16 H18_16 1_555 1_555
C33_16 C32_16 1_555 1_555
H19_16 C33_16 1_555 1_555
C34_16 C33_16 1_555 1_555
H20_16 C34_16 1_555 1_555
C35_16 C31_16 1_555 1_555
N11_12 C31_16 1_555 1_555
N12_12 C29_16 1_555 1_555
C30_16 N12_12 1_555 1_555
C32_16 N11_12 1_555 1_555
C34_16 C35_16 1_555 1_555
H16_15 C28_15 1_555 1_555
H22_15 C40_15 1_555 1_555
C41_15 C40_15 1_555 1_555
H23_15 C41_15 1_555 1_555
H16_16 C28_16 1_555 1_555
H22_16 C40_16 1_555 1_555
C41_16 C40_16 1_555 1_555
H23_16 C41_16 1_555 1_555

#END
