
###############################################################################
#
# This file contains modified crystal structure data generated from the
# MOF subset of the Cambridge Structural Database (CSD) v543 
# hosted by the Cambridge Crystallographic Data Centre (CCDC).
#
# This work is licensed under the Creative Commons
# Attribution-NonCommercial-ShareAlike 4.0 International License.
# To view a copy of this license, visit
# http://creativecommons.org/licenses/by-nc-sa/4.0/
# or send a letter to
# Creative Commons, PO Box 1866, Mountain View, CA 94042, USA.
#
# CIF created using the CSD Python API on 29 September 2022
# The structure has been converted into the P1 space group
# The structure has a 3D framework
# The original CSD entry MIGVON is in the orthorhombic crystal system
# The original CSD entry MIGVON is in a Sohncke space group
# The framework has been calculated to contain at least 10.0% void space
# The void calculation uses a probe of radius 1.32A, grid spacing 0.4
#
###############################################################################

data_MIGVON
_chemical_formula_moiety         '(C168 H224 Co8 N72 O16 S12)n'
_symmetry_cell_setting           triclinic
_symmetry_space_group_name_H-M   'P 1'
_symmetry_Int_Tables_number      1
_space_group_name_Hall           'P 1'
loop_
_symmetry_equiv_pos_site_id
_symmetry_equiv_pos_as_xyz
1 x,y,z
_cell_length_a                   13.699(2)
_cell_length_b                   21.594(3)
_cell_length_c                   22.220(3)
_cell_angle_alpha                90
_cell_angle_beta                 90
_cell_angle_gamma                90
_cell_volume                     6573.04
loop_
_atom_site_label
_atom_site_type_symbol
_atom_site_fract_x
_atom_site_fract_y
_atom_site_fract_z
N7 N 0.1637(3) 0.0929(2) 0.1768(2)
N8 N 0.1836(3) 0.0796(2) 0.2351(2)
H4 H 0.2225(3) 0.1010(2) 0.2572(2)
C16 C 0.1356(4) 0.0295(2) 0.2543(2)
C17 C 0.0808(4) 0.0081(2) 0.2056(2)
C18 C 0.1025(4) 0.0497(2) 0.1584(2)
C19 C 0.0623(5) 0.0486(3) 0.0962(2)
H27 H 0.0895(5) 0.0823(3) 0.0734(2)
H29 H 0.0789(5) 0.0101(3) 0.0772(2)
C20 C 0.1480(5) 0.0060(3) 0.3169(2)
H30 H 0.1920(5) 0.0326(3) 0.3384(2)
H32 H 0.0858(5) 0.0055(3) 0.3368(2)
Co4 Co 0.26815(4) 0.15405(2) 0.13188(2)
N11 N 0.1559(3) 0.7224(2) 0.5841(2)
H6 H 0.1986(3) 0.7046(2) 0.6066(2)
N12 N 0.1260(3) 0.7818(2) 0.5918(2)
C11 C 0.0454(4) 0.8929(2) 0.2148(2)
C12 C 0.0189(3) 0.9527(2) 0.2036(2)
C15 C 0.1399(4) 0.8646(3) 0.2330(4)
H24 H 0.1319(4) 0.8206(3) 0.2369(4)
H25 H 0.1603(4) 0.8817(3) 0.2708(4)
H26 H 0.1883(4) 0.8732(3) 0.2029(4)
H31 H 0.1742(5) 0.9648(3) 0.3158(2)
C23 C 0.0117(4) 0.7282(3) 0.4009(2)
C24 C 0.1074(5) 0.7371(4) 0.3709(3)
H33 H 0.0993(5) 0.7339(4) 0.3281(3)
H34 H 0.1522(5) 0.7059(4) 0.3845(3)
H35 H 0.1325(5) 0.7774(4) 0.3808(3)
C26 C 0.1114(4) 0.6942(2) 0.5372(2)
C27 C 0.0479(4) 0.7382(3) 0.5130(2)
C28 C 0.0586(4) 0.7912(2) 0.5493(2)
C29 C 0.0035(5) 0.8501(3) 0.5427(3)
H39 H 0.0245(5) 0.8789(3) 0.5730(3)
H41 H 0.0155(5) 0.8673(3) 0.5035(3)
C30 C 0.1311(6) 0.6294(3) 0.5197(3)
H42 H 0.1794(6) 0.6121(3) 0.5461(3)
H43 H 0.1547(6) 0.6282(3) 0.4791(3)
H44 H 0.0720(6) 0.6056(3) 0.5226(3)
Co5 Co 0.23185(4) 0.84595(2) 0.63188(2)
N13 N 0.4577(3) 0.1396(2) 0.2011(2)
H7 H 0.4540(3) 0.1789(2) 0.2073(2)
N14 N 0.3857(3) 0.1061(2) 0.1774(2)
C14 C 0.8537(4) 0.0037(2) 0.1728(2)
H22 H 0.8796(4) 0.0265(2) 0.1394(2)
H23 H 0.8493(4) 0.0303(2) 0.2073(2)
H28 H 0.9926(5) 0.0529(3) 0.0977(2)
C31 C 0.5369(4) 0.1051(3) 0.2143(2)
C32 C 0.5130(4) 0.0444(2) 0.1979(2)
C33 C 0.4169(4) 0.0477(2) 0.1753(2)
H45 H 0.2939(4) 0.0108(2) 0.1398(3)
C35 C 0.6262(5) 0.1310(4) 0.2416(5)
H48 H 0.6185(5) 0.1748(4) 0.2471(5)
H49 H 0.6808(5) 0.1232(4) 0.2156(5)
H50 H 0.6374(5) 0.1117(4) 0.2799(5)
H56 H 0.6269(6) 0.0247(4) 0.3245(3)
Co1 Co 0.77433(4) 0.84719(2) 0.13498(2)
Co2 Co 0.73185(4) 0.65405(2) 0.36812(2)
S1 S 0.71255(7) 0.76461(4) 0.26177(4)
S3 S 0.7384(3) 0.5297(2) 0.54669(12)
O1 O 0.7499(2) 0.70572(13) 0.28595(13)
O2 O 0.7644(2) 0.77638(14) 0.20408(12)
O3 O 0.7322(3) 0.81519(14) 0.30388(13)
O4 O 0.6075(2) 0.7581(2) 0.24993(14)
N1 N 0.6518(3) 0.8012(2) 0.0903(2)
N2 N 0.5730(3) 0.7883(2) 0.1259(2)
H1 H 0.5743(3) 0.7890(2) 0.1645(2)
N5 N 0.8881(3) 0.8917(2) 0.1870(2)
N6 N 0.9658(3) 0.8577(2) 0.2048(2)
H3 H 0.9646(3) 0.8182(2) 0.2093(2)
N9 N 0.8515(3) 0.7081(2) 0.4041(2)
N10 N 0.9307(3) 0.7152(2) 0.3687(2)
H5 H 0.9297(3) 0.7118(2) 0.3302(2)
N15 N 0.6694(3) 0.9077(2) 0.1765(2)
N16 N 0.6722(3) 0.9174(2) 0.2369(2)
H8 H 0.7058(3) 0.8951(2) 0.2614(2)
N17 N 0.8015(3) 0.9049(2) 0.0633(2)
N18 N 0.7243(4) 0.5981(2) 0.4418(2)
C1 C 0.6200(4) 0.7946(2) 0.0334(2)
C2 C 0.5200(4) 0.7782(2) 0.0332(2)
C3 C 0.4932(4) 0.7745(2) 0.0932(2)
C4 C 0.3976(5) 0.7570(5) 0.1218(3)
H9 H 0.4037(5) 0.7591(5) 0.1648(3)
H10 H 0.3805(5) 0.7156(5) 0.1102(3)
H11 H 0.3477(5) 0.7852(5) 0.1087(3)
H20 H 0.3303(6) 0.8666(3) 0.0238(3)
C13 C 0.9197(4) 0.9503(2) 0.1869(2)
H21 H 0.7899(4) 0.9884(2) 0.1628(2)
C21 C 0.8836(4) 0.7164(2) 0.4598(2)
C22 C 0.9846(4) 0.7285(2) 0.4603(2)
C25 C 0.8187(4) 0.7144(3) 0.5126(2)
H36 H 0.7533(4) 0.7053(3) 0.4999(2)
H37 H 0.8198(4) 0.7538(3) 0.5326(2)
H38 H 0.8407(4) 0.6828(3) 0.5398(2)
H40 H 0.9350(5) 0.8421(3) 0.5474(3)
C34 C 0.3564(4) 0.9954(2) 0.1524(3)
H46 H 0.3476(4) 0.9654(2) 0.1837(3)
H47 H 0.3887(4) 0.9764(2) 0.1188(3)
C36 C 0.6171(4) 0.9654(2) 0.2542(2)
C37 C 0.5764(3) 0.9898(2) 0.2024(2)
C38 C 0.6104(3) 0.9516(2) 0.1550(2)
C39 C 0.5877(4) 0.9574(3) 0.0901(2)
H51 H 0.6207(4) 0.9253(3) 0.0683(2)
H52 H 0.6092(4) 0.9971(3) 0.0759(2)
H53 H 0.5185(4) 0.9536(3) 0.0842(2)
C40 C 0.6060(6) 0.9827(4) 0.3188(3)
H54 H 0.6452(6) 0.9557(4) 0.3431(3)
H55 H 0.5388(6) 0.9788(4) 0.3303(3)
C41 C 0.7281(6) 0.5706(3) 0.4849(3)
C42 C 0.8291(4) 0.9261(2) 0.0186(2)
N19 N 0.8776(3) 0.7791(2) 0.0960(2)
N20 N 0.8363(3) 0.5929(2) 0.3232(2)
N21 N 0.6260(3) 0.7182(2) 0.4082(2)
N22 N 0.6143(3) 0.6061(2) 0.3226(2)
S2 S 0.8669(2) 0.95614(10) 0.95589(8)
N3 N 0.3776(3) 0.7209(2) 0.9040(2)
N4 N 0.3370(3) 0.7774(2) 0.9150(2)
H2 H 0.2885(3) 0.7924(2) 0.8952(2)
C5 C 0.6845(4) 0.8039(3) 0.9808(2)
H12 H 0.7488(4) 0.8148(3) 0.9944(2)
H13 H 0.6589(4) 0.8365(3) 0.9561(2)
H14 H 0.6876(4) 0.7663(3) 0.9578(2)
C6 C 0.3819(4) 0.8067(2) 0.9606(2)
C7 C 0.4554(3) 0.7677(2) 0.9808(2)
C8 C 0.4494(3) 0.7155(2) 0.9439(2)
C9 C 0.5154(4) 0.6600(3) 0.9443(2)
H15 H 0.4943(4) 0.6311(3) 0.9142(2)
H16 H 0.5132(4) 0.6406(3) 0.9831(2)
H17 H 0.5811(4) 0.6728(3) 0.9358(2)
C10 C 0.3503(6) 0.8695(3) 0.9825(3)
H18 H 0.2967(6) 0.8839(3) 0.9585(3)
H19 H 0.4038(6) 0.8980(3) 0.9792(3)
Co3 Co 0.27433(4) 0.65281(2) 0.86502(2)
N3_2 N 0.1224(3) 0.2791(2) 0.4040(2)
N4_2 N 0.1630(3) 0.2226(2) 0.4150(2)
H2_2 H 0.2115(3) 0.2076(2) 0.3952(2)
C3_2 C 0.0068(4) 0.2255(2) 0.5932(2)
C4_2 C 0.1024(5) 0.2430(5) 0.6218(3)
H9_2 H 0.0963(5) 0.2409(5) 0.6648(3)
H10_2 H 0.1195(5) 0.2844(5) 0.6102(3)
H11_2 H 0.1523(5) 0.2148(5) 0.6087(3)
C6_2 C 0.1181(4) 0.1933(2) 0.4606(2)
C7_2 C 0.0446(3) 0.2323(2) 0.4808(2)
C8_2 C 0.0506(3) 0.2845(2) 0.4439(2)
H15_2 H 0.0057(4) 0.3689(3) 0.4142(2)
C10_2 C 0.1497(6) 0.1305(3) 0.4825(3)
H18_2 H 0.2033(6) 0.1161(3) 0.4585(3)
H19_2 H 0.0962(6) 0.1020(3) 0.4792(3)
H20_2 H 0.1697(6) 0.1334(3) 0.5238(3)
C34_2 C 0.1436(4) 0.0046(2) 0.6524(3)
H46_2 H 0.1524(4) 0.0346(2) 0.6837(3)
H47_2 H 0.1113(4) 0.0236(2) 0.6188(3)
Co3_2 Co 0.22567(4) 0.34719(2) 0.36502(2)
N13_2 N 0.0423(3) 0.8604(2) 0.7011(2)
H7_2 H 0.0460(3) 0.8211(2) 0.7073(2)
N14_2 N 0.1143(3) 0.8939(2) 0.6774(2)
C33_2 C 0.0831(4) 0.9523(2) 0.6753(2)
H45_2 H 0.2061(4) 0.9892(2) 0.6398(3)
S3_2 S 0.7616(3) 0.4703(2) 0.04669(12)
N11_2 N 0.3441(3) 0.2776(2) 0.0841(2)
H6_2 H 0.3014(3) 0.2954(2) 0.1066(2)
N12_2 N 0.3740(3) 0.2182(2) 0.0918(2)
C25_2 C 0.6813(4) 0.2856(3) 0.0126(2)
H37_2 H 0.6802(4) 0.2462(3) 0.0326(2)
H38_2 H 0.6593(4) 0.3172(3) 0.0398(2)
C26_2 C 0.3886(4) 0.3058(2) 0.0372(2)
C27_2 C 0.4521(4) 0.2618(3) 0.0130(2)
C28_2 C 0.4414(4) 0.2088(2) 0.0493(2)
C29_2 C 0.4965(5) 0.1499(3) 0.0427(3)
H39_2 H 0.4755(5) 0.1211(3) 0.0730(3)
H40_2 H 0.5650(5) 0.1579(3) 0.0474(3)
H41_2 H 0.4845(5) 0.1327(3) 0.0035(3)
C30_2 C 0.3689(6) 0.3706(3) 0.0197(3)
H42_2 H 0.3206(6) 0.3879(3) 0.0461(3)
H44_2 H 0.4280(6) 0.3944(3) 0.0226(3)
Co1_2 Co 0.72567(4) 0.15281(2) 0.63498(2)
Co2_2 Co 0.76815(4) 0.34595(2) 0.86812(2)
S1_2 S 0.78745(7) 0.23539(4) 0.76177(4)
S2_2 S 0.6331(2) 0.04386(10) 0.45589(8)
O1_2 O 0.7501(2) 0.29428(13) 0.78595(13)
O2_2 O 0.7356(2) 0.22362(14) 0.70408(12)
O3_2 O 0.7678(3) 0.18481(14) 0.80388(13)
O4_2 O 0.8925(2) 0.2419(2) 0.74993(14)
N1_2 N 0.8482(3) 0.1988(2) 0.5903(2)
N2_2 N 0.9270(3) 0.2117(2) 0.6259(2)
H1_2 H 0.9257(3) 0.2110(2) 0.6645(2)
N5_2 N 0.6119(3) 0.1083(2) 0.6870(2)
N6_2 N 0.5342(3) 0.1423(2) 0.7048(2)
H3_2 H 0.5354(3) 0.1818(2) 0.7093(2)
N9_2 N 0.6485(3) 0.2919(2) 0.9041(2)
N10_2 N 0.5693(3) 0.2848(2) 0.8687(2)
H5_2 H 0.5703(3) 0.2882(2) 0.8302(2)
N15_2 N 0.8306(3) 0.0923(2) 0.6765(2)
N16_2 N 0.8278(3) 0.0826(2) 0.7369(2)
H8_2 H 0.7942(3) 0.1049(2) 0.7614(2)
N17_2 N 0.6985(3) 0.0951(2) 0.5633(2)
N18_2 N 0.7757(4) 0.4019(2) 0.9418(2)
C1_2 C 0.8800(4) 0.2054(2) 0.5334(2)
C2_2 C 0.9800(4) 0.2218(2) 0.5332(2)
C5_2 C 0.8155(4) 0.1961(3) 0.4808(2)
H12_2 H 0.7512(4) 0.1852(3) 0.4944(2)
H13_2 H 0.8411(4) 0.1635(3) 0.4561(2)
H14_2 H 0.8124(4) 0.2337(3) 0.4578(2)
C9_2 C 0.9846(4) 0.3400(3) 0.4443(2)
H16_2 H 0.9868(4) 0.3594(3) 0.4831(2)
H17_2 H 0.9189(4) 0.3272(3) 0.4358(2)
C11_2 C 0.4546(4) 0.1071(2) 0.7148(2)
C12_2 C 0.4811(3) 0.0473(2) 0.7036(2)
C13_2 C 0.5803(4) 0.0497(2) 0.6869(2)
H21_2 H 0.7101(4) 0.0116(2) 0.6628(2)
C15_2 C 0.3601(4) 0.1354(3) 0.7330(4)
H24_2 H 0.3681(4) 0.1794(3) 0.7369(4)
H25_2 H 0.3397(4) 0.1183(3) 0.7708(4)
H26_2 H 0.3117(4) 0.1268(3) 0.7029(4)
H31_2 H 0.3258(5) 0.0352(3) 0.8158(2)
C21_2 C 0.6164(4) 0.2836(2) 0.9598(2)
C22_2 C 0.5154(4) 0.2715(2) 0.9603(2)
C23_2 C 0.4883(4) 0.2718(3) 0.9009(2)
C24_2 C 0.3926(5) 0.2629(4) 0.8709(3)
H33_2 H 0.4007(5) 0.2661(4) 0.8281(3)
H34_2 H 0.3478(5) 0.2941(4) 0.8845(3)
H35_2 H 0.3675(5) 0.2226(4) 0.8808(3)
H36_2 H 0.7467(4) 0.2947(3) 0.9999(2)
H43_2 H 0.3453(6) 0.3718(3) 0.9791(3)
C36_2 C 0.8829(4) 0.0346(2) 0.7542(2)
C37_2 C 0.9236(3) 0.0102(2) 0.7024(2)
C38_2 C 0.8896(3) 0.0484(2) 0.6550(2)
C39_2 C 0.9123(4) 0.0426(3) 0.5901(2)
H51_2 H 0.8793(4) 0.0747(3) 0.5683(2)
H52_2 H 0.8908(4) 0.0029(3) 0.5759(2)
H53_2 H 0.9815(4) 0.0464(3) 0.5842(2)
C40_2 C 0.8940(6) 0.0173(4) 0.8188(3)
H54_2 H 0.8548(6) 0.0443(4) 0.8431(3)
H55_2 H 0.9612(6) 0.0212(4) 0.8303(3)
C41_2 C 0.7719(6) 0.4294(3) 0.9849(3)
C42_2 C 0.6709(4) 0.0739(2) 0.5186(2)
N19_2 N 0.6224(3) 0.2209(2) 0.5960(2)
N20_2 N 0.6637(3) 0.4071(2) 0.8232(2)
N21_2 N 0.8740(3) 0.2818(2) 0.9082(2)
N22_2 N 0.8857(3) 0.3939(2) 0.8226(2)
N7_2 N 0.3363(3) 0.9071(2) 0.6768(2)
N8_2 N 0.3164(3) 0.9204(2) 0.7351(2)
H4_2 H 0.2775(3) 0.8990(2) 0.7572(2)
C14_2 C 0.6463(4) 0.9963(2) 0.6728(2)
H22_2 H 0.6204(4) 0.9735(2) 0.6394(2)
H23_2 H 0.6507(4) 0.9697(2) 0.7073(2)
C16_2 C 0.3644(4) 0.9705(2) 0.7543(2)
C17_2 C 0.4192(4) 0.9919(2) 0.7056(2)
C18_2 C 0.3975(4) 0.9503(2) 0.6584(2)
C19_2 C 0.4377(5) 0.9514(3) 0.5962(2)
H27_2 H 0.4105(5) 0.9177(3) 0.5734(2)
H28_2 H 0.5074(5) 0.9471(3) 0.5977(2)
H29_2 H 0.4211(5) 0.9899(3) 0.5772(2)
C20_2 C 0.3520(5) 0.9940(3) 0.8169(2)
H30_2 H 0.3080(5) 0.9674(3) 0.8384(2)
H32_2 H 0.4142(5) 0.9945(3) 0.8368(2)
C31_2 C 0.9631(4) 0.8949(3) 0.7143(2)
C32_2 C 0.9870(4) 0.9556(2) 0.6979(2)
C35_2 C 0.8738(5) 0.8690(4) 0.7416(5)
H48_2 H 0.8815(5) 0.8252(4) 0.7471(5)
H49_2 H 0.8192(5) 0.8768(4) 0.7156(5)
H50_2 H 0.8626(5) 0.8883(4) 0.7799(5)
H56_2 H 0.8731(6) 0.9753(4) 0.8245(3)
S1_3 S 0.28745(7) 0.26461(4) 0.23823(4)
S2_3 S 0.1331(2) 0.45614(10) 0.54411(8)
O1_3 O 0.2501(2) 0.20572(13) 0.21405(13)
O2_3 O 0.2356(2) 0.27638(14) 0.29592(12)
O3_3 O 0.2678(3) 0.31519(14) 0.19612(13)
O4_3 O 0.3925(2) 0.2581(2) 0.25007(14)
N1_3 N 0.3482(3) 0.3012(2) 0.4097(2)
N2_3 N 0.4270(3) 0.2883(2) 0.3741(2)
H1_3 H 0.4257(3) 0.2890(2) 0.3355(2)
N4_3 N 0.6630(3) 0.2774(2) 0.5850(2)
H2_3 H 0.7115(3) 0.2924(2) 0.6048(2)
N5_3 N 0.1119(3) 0.3917(2) 0.3130(2)
N6_3 N 0.0342(3) 0.3577(2) 0.2952(2)
H3_3 H 0.0354(3) 0.3182(2) 0.2907(2)
N9_3 N 0.1485(3) 0.2081(2) 0.0959(2)
N10_3 N 0.0693(3) 0.2152(2) 0.1313(2)
H5_3 H 0.0703(3) 0.2118(2) 0.1698(2)
N13_3 N 0.5423(3) 0.6396(2) 0.2989(2)
H7_3 H 0.5460(3) 0.6789(2) 0.2927(2)
N15_3 N 0.3306(3) 0.4077(2) 0.3235(2)
N16_3 N 0.3278(3) 0.4174(2) 0.2631(2)
H8_3 H 0.2942(3) 0.3951(2) 0.2386(2)
N17_3 N 0.1985(3) 0.4049(2) 0.4367(2)
N18_3 N 0.2757(4) 0.0981(2) 0.0582(2)
C1_3 C 0.3800(4) 0.2946(2) 0.4666(2)
C2_3 C 0.4800(4) 0.2782(2) 0.4668(2)
C3_3 C 0.5068(4) 0.2745(2) 0.4068(2)
C4_3 C 0.6024(5) 0.2570(5) 0.3782(3)
H9_3 H 0.5963(5) 0.2591(5) 0.3352(3)
H10_3 H 0.6195(5) 0.2156(5) 0.3898(3)
H11_3 H 0.6523(5) 0.2852(5) 0.3913(3)
C5_3 C 0.3155(4) 0.3039(3) 0.5192(2)
H12_3 H 0.2512(4) 0.3148(3) 0.5056(2)
H13_3 H 0.3411(4) 0.3365(3) 0.5439(2)
H14_3 H 0.3124(4) 0.2663(3) 0.5422(2)
C6_3 C 0.6181(4) 0.3067(2) 0.5394(2)
C7_3 C 0.5446(3) 0.2677(2) 0.5192(2)
C8_3 C 0.5506(3) 0.2155(2) 0.5561(2)
C9_3 C 0.4846(4) 0.1600(3) 0.5557(2)
H15_3 H 0.5057(4) 0.1311(3) 0.5858(2)
H16_3 H 0.4868(4) 0.1406(3) 0.5169(2)
H17_3 H 0.4189(4) 0.1728(3) 0.5642(2)
C10_3 C 0.6497(6) 0.3695(3) 0.5175(3)
H18_3 H 0.7033(6) 0.3839(3) 0.5415(3)
H19_3 H 0.5962(6) 0.3980(3) 0.5208(3)
H20_3 H 0.6697(6) 0.3666(3) 0.4762(3)
C13_3 C 0.0803(4) 0.4503(2) 0.3131(2)
C14_3 C 0.1463(4) 0.5037(2) 0.3272(2)
H21_3 H 0.2101(4) 0.4884(2) 0.3372(2)
H22_3 H 0.1204(4) 0.5265(2) 0.3606(2)
H23_3 H 0.1507(4) 0.5303(2) 0.2927(2)
H28_3 H 0.0074(5) 0.5529(3) 0.4023(2)
C21_3 C 0.1164(4) 0.2164(2) 0.0402(2)
C22_3 C 0.0154(4) 0.2285(2) 0.0397(2)
H36_3 H 0.2467(4) 0.2053(3) 0.0001(2)
C31_3 C 0.4631(4) 0.6051(3) 0.2857(2)
C32_3 C 0.4870(4) 0.5444(2) 0.3021(2)
C33_3 C 0.5831(4) 0.5477(2) 0.3247(2)
C34_3 C 0.6436(4) 0.4954(2) 0.3476(3)
H45_3 H 0.7061(4) 0.5108(2) 0.3602(3)
H46_3 H 0.6524(4) 0.4654(2) 0.3163(3)
H47_3 H 0.6113(4) 0.4764(2) 0.3812(3)
C35_3 C 0.3738(5) 0.6310(4) 0.2584(5)
H48_3 H 0.3815(5) 0.6748(4) 0.2529(5)
H49_3 H 0.3192(5) 0.6232(4) 0.2844(5)
H50_3 H 0.3626(5) 0.6117(4) 0.2201(5)
C36_3 C 0.3829(4) 0.4654(2) 0.2458(2)
C37_3 C 0.4236(3) 0.4898(2) 0.2976(2)
C38_3 C 0.3896(3) 0.4516(2) 0.3450(2)
C39_3 C 0.4123(4) 0.4574(3) 0.4099(2)
H51_3 H 0.3793(4) 0.4253(3) 0.4317(2)
H52_3 H 0.3908(4) 0.4971(3) 0.4241(2)
H53_3 H 0.4815(4) 0.4536(3) 0.4158(2)
C40_3 C 0.3940(6) 0.4827(4) 0.1812(3)
H54_3 H 0.3548(6) 0.4557(4) 0.1569(3)
H55_3 H 0.4612(6) 0.4788(4) 0.1697(3)
H56_3 H 0.3731(6) 0.5247(4) 0.1755(3)
C41_3 C 0.2719(6) 0.0706(3) 0.0151(3)
C42_3 C 0.1709(4) 0.4261(2) 0.4814(2)
N8_3 N 0.8164(3) 0.5796(2) 0.2649(2)
H4_3 H 0.7775(3) 0.6010(2) 0.2428(2)
C11_3 C 0.9546(4) 0.3929(2) 0.2852(2)
C12_3 C 0.9811(3) 0.4527(2) 0.2964(2)
C15_3 C 0.8601(4) 0.3646(3) 0.2670(4)
H24_3 H 0.8681(4) 0.3206(3) 0.2631(4)
H25_3 H 0.8397(4) 0.3817(3) 0.2292(4)
H26_3 H 0.8117(4) 0.3732(3) 0.2971(4)
C16_3 C 0.8644(4) 0.5295(2) 0.2457(2)
C17_3 C 0.9192(4) 0.5081(2) 0.2944(2)
C18_3 C 0.8975(4) 0.5497(2) 0.3416(2)
C19_3 C 0.9377(5) 0.5486(3) 0.4038(2)
H27_3 H 0.9105(5) 0.5823(3) 0.4266(2)
H29_3 H 0.9211(5) 0.5101(3) 0.4228(2)
C20_3 C 0.8520(5) 0.5060(3) 0.1831(2)
H30_3 H 0.8080(5) 0.5326(3) 0.1616(2)
H31_3 H 0.8258(5) 0.4648(3) 0.1842(2)
H32_3 H 0.9142(5) 0.5055(3) 0.1632(2)
C23_3 C 0.9883(4) 0.2282(3) 0.0991(2)
C24_3 C 0.8926(5) 0.2371(4) 0.1291(3)
H33_3 H 0.9007(5) 0.2339(4) 0.1719(3)
H34_3 H 0.8478(5) 0.2059(4) 0.1155(3)
H35_3 H 0.8675(5) 0.2774(4) 0.1192(3)
H43_3 H 0.8453(6) 0.1282(3) 0.0209(3)
N11_3 N 0.8441(3) 0.2224(2) 0.9159(2)
H6_3 H 0.8014(3) 0.2046(2) 0.8934(2)
C26_3 C 0.8886(4) 0.1942(2) 0.9628(2)
C27_3 C 0.9521(4) 0.2382(3) 0.9870(2)
C28_3 C 0.9414(4) 0.2912(2) 0.9507(2)
C29_3 C 0.9965(5) 0.3501(3) 0.9573(3)
H39_3 H 0.9755(5) 0.3789(3) 0.9270(3)
H41_3 H 0.9845(5) 0.3673(3) 0.9965(3)
C30_3 C 0.8689(6) 0.1294(3) 0.9803(3)
H42_3 H 0.8206(6) 0.1121(3) 0.9539(3)
H44_3 H 0.9280(6) 0.1056(3) 0.9774(3)
S1_4 S 0.21255(7) 0.73539(4) 0.73823(4)
S3_3 S 0.2384(3) 0.9703(2) 0.45331(12)
O1_4 O 0.2499(2) 0.79428(13) 0.71405(13)
O2_4 O 0.2644(2) 0.72362(14) 0.79592(12)
O3_4 O 0.2322(3) 0.68481(14) 0.69612(13)
O4_4 O 0.1075(2) 0.7419(2) 0.75007(14)
N1_4 N 0.1518(3) 0.6988(2) 0.9097(2)
N2_4 N 0.0730(3) 0.7117(2) 0.8741(2)
H1_4 H 0.0743(3) 0.7110(2) 0.8355(2)
N5_4 N 0.3881(3) 0.6083(2) 0.8130(2)
N6_4 N 0.4658(3) 0.6423(2) 0.7952(2)
H3_4 H 0.4646(3) 0.6818(2) 0.7907(2)
N8_4 N 0.6836(3) 0.4204(2) 0.7649(2)
H4_4 H 0.7225(3) 0.3990(2) 0.7428(2)
N9_4 N 0.3515(3) 0.7919(2) 0.5959(2)
N10_4 N 0.4307(3) 0.7848(2) 0.6313(2)
H5_4 H 0.4297(3) 0.7882(2) 0.6698(2)
N11_4 N 0.6559(3) 0.7776(2) 0.4159(2)
H6_4 H 0.6986(3) 0.7954(2) 0.3934(2)
N15_4 N 0.1694(3) 0.5923(2) 0.8235(2)
N16_4 N 0.1722(3) 0.5826(2) 0.7631(2)
H8_4 H 0.2058(3) 0.6049(2) 0.7386(2)
N17_4 N 0.3015(3) 0.5951(2) 0.9367(2)
N18_4 N 0.2243(4) 0.9019(2) 0.5582(2)
C1_4 C 0.1200(4) 0.7054(2) 0.9666(2)
C2_4 C 0.0200(4) 0.7218(2) 0.9668(2)
C11_4 C 0.5454(4) 0.6071(2) 0.7852(2)
C12_4 C 0.5189(3) 0.5473(2) 0.7964(2)
C13_4 C 0.4197(4) 0.5497(2) 0.8131(2)
C14_4 C 0.3537(4) 0.4963(2) 0.8272(2)
H21_4 H 0.2899(4) 0.5116(2) 0.8372(2)
H22_4 H 0.3796(4) 0.4735(2) 0.8606(2)
H23_4 H 0.3493(4) 0.4697(2) 0.7927(2)
C15_4 C 0.6399(4) 0.6354(3) 0.7670(4)
H24_4 H 0.6319(4) 0.6794(3) 0.7631(4)
H25_4 H 0.6603(4) 0.6183(3) 0.7292(4)
H26_4 H 0.6883(4) 0.6268(3) 0.7971(4)
C16_4 C 0.6356(4) 0.4705(2) 0.7457(2)
C17_4 C 0.5808(4) 0.4919(2) 0.7944(2)
C18_4 C 0.6025(4) 0.4503(2) 0.8416(2)
C19_4 C 0.5623(5) 0.4514(3) 0.9038(2)
H27_4 H 0.5895(5) 0.4177(3) 0.9266(2)
H28_4 H 0.4926(5) 0.4471(3) 0.9023(2)
H29_4 H 0.5789(5) 0.4899(3) 0.9228(2)
C20_4 C 0.6480(5) 0.4940(3) 0.6831(2)
H30_4 H 0.6920(5) 0.4674(3) 0.6616(2)
H31_4 H 0.6742(5) 0.5352(3) 0.6842(2)
H32_4 H 0.5858(5) 0.4945(3) 0.6632(2)
C21_4 C 0.3836(4) 0.7836(2) 0.5402(2)
C22_4 C 0.4846(4) 0.7715(2) 0.5397(2)
C23_4 C 0.5117(4) 0.7718(3) 0.5991(2)
C24_4 C 0.6074(5) 0.7629(4) 0.6291(3)
H33_4 H 0.5993(5) 0.7661(4) 0.6719(3)
H34_4 H 0.6522(5) 0.7941(4) 0.6155(3)
H35_4 H 0.6325(5) 0.7226(4) 0.6192(3)
C25_3 C 0.3187(4) 0.7856(3) 0.4874(2)
H36_4 H 0.2533(4) 0.7947(3) 0.5001(2)
H37_3 H 0.3198(4) 0.7462(3) 0.4674(2)
H38_3 H 0.3407(4) 0.8172(3) 0.4602(2)
C26_4 C 0.6114(4) 0.8058(2) 0.4628(2)
C27_4 C 0.5479(4) 0.7618(3) 0.4870(2)
C28_4 C 0.5586(4) 0.7088(2) 0.4507(2)
C29_4 C 0.5035(5) 0.6499(3) 0.4573(3)
H39_4 H 0.5245(5) 0.6211(3) 0.4270(3)
H40_3 H 0.4350(5) 0.6579(3) 0.4526(3)
H41_4 H 0.5155(5) 0.6327(3) 0.4965(3)
C30_4 C 0.6311(6) 0.8706(3) 0.4803(3)
H42_4 H 0.6794(6) 0.8879(3) 0.4539(3)
H43_4 H 0.6547(6) 0.8718(3) 0.5209(3)
H44_4 H 0.5720(6) 0.8944(3) 0.4774(3)
C31_4 C 0.0369(4) 0.3949(3) 0.7857(2)
C32_4 C 0.0130(4) 0.4556(2) 0.8021(2)
C35_4 C 0.1262(5) 0.3690(4) 0.7584(5)
H48_4 H 0.1185(5) 0.3252(4) 0.7529(5)
H49_4 H 0.1808(5) 0.3768(4) 0.7844(5)
H50_4 H 0.1374(5) 0.3883(4) 0.7201(5)
C36_4 C 0.1171(4) 0.5346(2) 0.7458(2)
C37_4 C 0.0764(3) 0.5102(2) 0.7976(2)
C38_4 C 0.1104(3) 0.5484(2) 0.8450(2)
C39_4 C 0.0877(4) 0.5426(3) 0.9099(2)
H51_4 H 0.1207(4) 0.5747(3) 0.9317(2)
H52_4 H 0.1092(4) 0.5029(3) 0.9241(2)
H53_4 H 0.0185(4) 0.5464(3) 0.9158(2)
C40_4 C 0.1060(6) 0.5173(4) 0.6812(3)
H54_4 H 0.1452(6) 0.5443(4) 0.6569(3)
H55_4 H 0.0388(6) 0.5212(4) 0.6697(3)
H56_4 H 0.1269(6) 0.4753(4) 0.6755(3)
C41_4 C 0.2281(6) 0.9294(3) 0.5151(3)
C42_4 C 0.3291(4) 0.5739(2) 0.9814(2)
N4_4 N 0.8370(3) 0.7226(2) 0.0850(2)
H2_4 H 0.7885(3) 0.7076(2) 0.1048(2)
C6_4 C 0.8819(4) 0.6933(2) 0.0394(2)
C7_4 C 0.9554(3) 0.7323(2) 0.0192(2)
C8_4 C 0.9494(3) 0.7845(2) 0.0561(2)
H15_4 H 0.9943(4) 0.8689(3) 0.0858(2)
C10_4 C 0.8503(6) 0.6305(3) 0.0175(3)
H18_4 H 0.7967(6) 0.6161(3) 0.0415(3)
H19_4 H 0.9038(6) 0.6020(3) 0.0208(3)
N13_4 N 0.9577(3) 0.3604(2) 0.7989(2)
H7_4 H 0.9540(3) 0.3211(2) 0.7927(2)
C3_4 C 0.9932(4) 0.7255(2) 0.9068(2)
C4_4 C 0.8976(5) 0.7430(5) 0.8782(3)
H9_4 H 0.9037(5) 0.7409(5) 0.8352(3)
H10_4 H 0.8805(5) 0.7844(5) 0.8898(3)
H11_4 H 0.8477(5) 0.7148(5) 0.8913(3)
H20_4 H 0.8303(6) 0.6334(3) 0.9762(3)
C33_4 C 0.9169(4) 0.4523(2) 0.8247(2)
C34_4 C 0.8564(4) 0.5046(2) 0.8476(3)
H45_4 H 0.7939(4) 0.4892(2) 0.8602(3)
H46_4 H 0.8476(4) 0.5346(2) 0.8163(3)
H47_4 H 0.8887(4) 0.5236(2) 0.8812(3)
S3_4 S 0.2616(3) 0.0297(2) 0.95331(12)
C25_4 C 0.1813(4) 0.2144(3) 0.9874(2)
H37_4 H 0.1802(4) 0.2538(3) 0.9674(2)
H38_4 H 0.1593(4) 0.1828(3) 0.9602(2)
H40_4 H 0.0650(5) 0.3421(3) 0.9526(3)
S2_4 S 0.3669(2) 0.54386(10) 0.04411(8)
C5_4 C 0.1845(4) 0.6961(3) 0.0192(2)
H12_4 H 0.2488(4) 0.6852(3) 0.0056(2)
H13_4 H 0.1589(4) 0.6635(3) 0.0439(2)
H14_4 H 0.1876(4) 0.7337(3) 0.0422(2)
C9_4 C 0.0154(4) 0.8400(3) 0.0557(2)
H16_4 H 0.0132(4) 0.8594(3) 0.0169(2)
H17_4 H 0.0811(4) 0.8272(3) 0.0642(2)
loop_
_geom_bond_atom_site_label_1
_geom_bond_atom_site_label_2
_geom_bond_site_symmetry_1
_geom_bond_site_symmetry_2
N7 N8 1_555 1_555
N8 H4 1_555 1_555
C16 N8 1_555 1_555
C18 N7 1_555 1_555
C19 C18 1_555 1_555
H27 C19 1_555 1_555
H29 C19 1_555 1_555
C20 C16 1_555 1_555
H30 C20 1_555 1_555
H32 C20 1_555 1_555
Co4 N7 1_555 1_555
C16 C17 1_555 1_555
C17 C18 1_555 1_555
N11 H6 1_555 1_555
N12 N11 1_555 1_555
C12 C11 1_555 1_555
C15 C11 1_555 1_555
H24 C15 1_555 1_555
H25 C15 1_555 1_555
H26 C15 1_555 1_555
C24 C23 1_555 1_555
H33 C24 1_555 1_555
H34 C24 1_555 1_555
H35 C24 1_555 1_555
C26 N11 1_555 1_555
C28 N12 1_555 1_555
C29 C28 1_555 1_555
H39 C29 1_555 1_555
H41 C29 1_555 1_555
C30 C26 1_555 1_555
H42 C30 1_555 1_555
H43 C30 1_555 1_555
H44 C30 1_555 1_555
Co5 N12 1_555 1_555
C26 C27 1_555 1_555
C27 C28 1_555 1_555
N13 H7 1_555 1_555
N14 N13 1_555 1_555
H22 C14 1_555 1_555
H23 C14 1_555 1_555
C31 N13 1_555 1_555
C32 C31 1_555 1_555
C33 N14 1_555 1_555
C35 C31 1_555 1_555
H48 C35 1_555 1_555
H49 C35 1_555 1_555
H50 C35 1_555 1_555
Co4 N14 1_555 1_555
C32 C33 1_555 1_555
Co1 O2 1_555 1_555
Co2 O1 1_555 1_555
S1 O1 1_555 1_555
S3 C41 1_555 1_555
O2 S1 1_555 1_555
O3 S1 1_555 1_555
O4 S1 1_555 1_555
N1 Co1 1_555 1_555
N2 N1 1_555 1_555
H1 N2 1_555 1_555
N5 Co1 1_555 1_555
N6 N5 1_555 1_555
H3 N6 1_555 1_555
N9 Co2 1_555 1_555
N10 N9 1_555 1_555
H5 N10 1_555 1_555
N15 Co1 1_555 1_555
N16 N15 1_555 1_555
H8 N16 1_555 1_555
N17 Co1 1_555 1_555
N18 Co2 1_555 1_555
C1 N1 1_555 1_555
C2 C1 1_555 1_555
C3 N2 1_555 1_555
C4 C3 1_555 1_555
H9 C4 1_555 1_555
H10 C4 1_555 1_555
H11 C4 1_555 1_555
C13 N5 1_555 1_555
C21 N9 1_555 1_555
C22 C21 1_555 1_555
C25 C21 1_555 1_555
H36 C25 1_555 1_555
H37 C25 1_555 1_555
H38 C25 1_555 1_555
H46 C34 1_555 1_555
H47 C34 1_555 1_555
C36 N16 1_555 1_555
C38 N15 1_555 1_555
C39 C38 1_555 1_555
H51 C39 1_555 1_555
H52 C39 1_555 1_555
H53 C39 1_555 1_555
C40 C36 1_555 1_555
H54 C40 1_555 1_555
H55 C40 1_555 1_555
C41 N18 1_555 1_555
C42 N17 1_555 1_555
N19 Co1 1_555 1_555
N20 Co2 1_555 1_555
N21 Co2 1_555 1_555
N22 Co2 1_555 1_555
C2 C3 1_555 1_555
C36 C37 1_555 1_555
C37 C38 1_555 1_555
N3 N4 1_555 1_555
N4 H2 1_555 1_555
H12 C5 1_555 1_555
H13 C5 1_555 1_555
H14 C5 1_555 1_555
C6 N4 1_555 1_555
C8 N3 1_555 1_555
C9 C8 1_555 1_555
H15 C9 1_555 1_555
H16 C9 1_555 1_555
H17 C9 1_555 1_555
C10 C6 1_555 1_555
H18 C10 1_555 1_555
H19 C10 1_555 1_555
Co3 N3 1_555 1_555
C6 C7 1_555 1_555
C7 C8 1_555 1_555
N3_2 N4_2 1_555 1_555
N4_2 H2_2 1_555 1_555
C4_2 C3_2 1_555 1_555
H9_2 C4_2 1_555 1_555
H10_2 C4_2 1_555 1_555
H11_2 C4_2 1_555 1_555
C6_2 N4_2 1_555 1_555
C8_2 N3_2 1_555 1_555
C10_2 C6_2 1_555 1_555
H18_2 C10_2 1_555 1_555
H19_2 C10_2 1_555 1_555
H20_2 C10_2 1_555 1_555
H46_2 C34_2 1_555 1_555
H47_2 C34_2 1_555 1_555
Co3_2 N3_2 1_555 1_555
C6_2 C7_2 1_555 1_555
C7_2 C8_2 1_555 1_555
N13_2 H7_2 1_555 1_555
N14_2 N13_2 1_555 1_555
C33_2 N14_2 1_555 1_555
Co5 N14_2 1_555 1_555
N11_2 H6_2 1_555 1_555
N12_2 N11_2 1_555 1_555
H37_2 C25_2 1_555 1_555
H38_2 C25_2 1_555 1_555
C26_2 N11_2 1_555 1_555
C28_2 N12_2 1_555 1_555
C29_2 C28_2 1_555 1_555
H39_2 C29_2 1_555 1_555
H40_2 C29_2 1_555 1_555
H41_2 C29_2 1_555 1_555
C30_2 C26_2 1_555 1_555
H42_2 C30_2 1_555 1_555
H44_2 C30_2 1_555 1_555
Co4 N12_2 1_555 1_555
C26_2 C27_2 1_555 1_555
C27_2 C28_2 1_555 1_555
Co1_2 O2_2 1_555 1_555
Co2_2 O1_2 1_555 1_555
S1_2 O1_2 1_555 1_555
S2_2 C42_2 1_555 1_555
O2_2 S1_2 1_555 1_555
O3_2 S1_2 1_555 1_555
O4_2 S1_2 1_555 1_555
N1_2 Co1_2 1_555 1_555
N2_2 N1_2 1_555 1_555
H1_2 N2_2 1_555 1_555
N5_2 Co1_2 1_555 1_555
N6_2 N5_2 1_555 1_555
H3_2 N6_2 1_555 1_555
N9_2 Co2_2 1_555 1_555
N10_2 N9_2 1_555 1_555
H5_2 N10_2 1_555 1_555
N15_2 Co1_2 1_555 1_555
N16_2 N15_2 1_555 1_555
H8_2 N16_2 1_555 1_555
N17_2 Co1_2 1_555 1_555
N18_2 Co2_2 1_555 1_555
C1_2 N1_2 1_555 1_555
C2_2 C1_2 1_555 1_555
C5_2 C1_2 1_555 1_555
H12_2 C5_2 1_555 1_555
H13_2 C5_2 1_555 1_555
H14_2 C5_2 1_555 1_555
H16_2 C9_2 1_555 1_555
H17_2 C9_2 1_555 1_555
C11_2 N6_2 1_555 1_555
C12_2 C11_2 1_555 1_555
C13_2 N5_2 1_555 1_555
C15_2 C11_2 1_555 1_555
H24_2 C15_2 1_555 1_555
H25_2 C15_2 1_555 1_555
H26_2 C15_2 1_555 1_555
C21_2 N9_2 1_555 1_555
C22_2 C21_2 1_555 1_555
C23_2 N10_2 1_555 1_555
C24_2 C23_2 1_555 1_555
H33_2 C24_2 1_555 1_555
H34_2 C24_2 1_555 1_555
H35_2 C24_2 1_555 1_555
C36_2 N16_2 1_555 1_555
C38_2 N15_2 1_555 1_555
C39_2 C38_2 1_555 1_555
H51_2 C39_2 1_555 1_555
H52_2 C39_2 1_555 1_555
H53_2 C39_2 1_555 1_555
C40_2 C36_2 1_555 1_555
H54_2 C40_2 1_555 1_555
H55_2 C40_2 1_555 1_555
C41_2 N18_2 1_555 1_555
C42_2 N17_2 1_555 1_555
N19_2 Co1_2 1_555 1_555
N20_2 Co2_2 1_555 1_555
N21_2 Co2_2 1_555 1_555
N22_2 Co2_2 1_555 1_555
C12_2 C13_2 1_555 1_555
C22_2 C23_2 1_555 1_555
C36_2 C37_2 1_555 1_555
C37_2 C38_2 1_555 1_555
N7_2 N8_2 1_555 1_555
N8_2 H4_2 1_555 1_555
H22_2 C14_2 1_555 1_555
H23_2 C14_2 1_555 1_555
C16_2 N8_2 1_555 1_555
C18_2 N7_2 1_555 1_555
C19_2 C18_2 1_555 1_555
H27_2 C19_2 1_555 1_555
H28_2 C19_2 1_555 1_555
H29_2 C19_2 1_555 1_555
C20_2 C16_2 1_555 1_555
H30_2 C20_2 1_555 1_555
H32_2 C20_2 1_555 1_555
C32_2 C31_2 1_555 1_555
C35_2 C31_2 1_555 1_555
H48_2 C35_2 1_555 1_555
H49_2 C35_2 1_555 1_555
H50_2 C35_2 1_555 1_555
Co5 N7_2 1_555 1_555
C16_2 C17_2 1_555 1_555
C17_2 C18_2 1_555 1_555
Co3_2 O2_3 1_555 1_555
Co4 O1_3 1_555 1_555
S1_3 O1_3 1_555 1_555
S2_3 C42_3 1_555 1_555
O2_3 S1_3 1_555 1_555
O3_3 S1_3 1_555 1_555
O4_3 S1_3 1_555 1_555
N1_3 Co3_2 1_555 1_555
N2_3 N1_3 1_555 1_555
H1_3 N2_3 1_555 1_555
N19_2 N4_3 1_555 1_555
N4_3 H2_3 1_555 1_555
N5_3 Co3_2 1_555 1_555
N6_3 N5_3 1_555 1_555
H3_3 N6_3 1_555 1_555
N9_3 Co4 1_555 1_555
N10_3 N9_3 1_555 1_555
H5_3 N10_3 1_555 1_555
N13_3 H7_3 1_555 1_555
N22 N13_3 1_555 1_555
N15_3 Co3_2 1_555 1_555
N16_3 N15_3 1_555 1_555
H8_3 N16_3 1_555 1_555
N17_3 Co3_2 1_555 1_555
N18_3 Co4 1_555 1_555
C1_3 N1_3 1_555 1_555
C2_3 C1_3 1_555 1_555
C3_3 N2_3 1_555 1_555
C4_3 C3_3 1_555 1_555
H9_3 C4_3 1_555 1_555
H10_3 C4_3 1_555 1_555
H11_3 C4_3 1_555 1_555
C5_3 C1_3 1_555 1_555
H12_3 C5_3 1_555 1_555
H13_3 C5_3 1_555 1_555
H14_3 C5_3 1_555 1_555
C6_3 N4_3 1_555 1_555
C7_3 C2_3 1_555 1_555
C8_3 N19_2 1_555 1_555
C9_3 C8_3 1_555 1_555
H15_3 C9_3 1_555 1_555
H16_3 C9_3 1_555 1_555
H17_3 C9_3 1_555 1_555
C10_3 C6_3 1_555 1_555
H18_3 C10_3 1_555 1_555
H19_3 C10_3 1_555 1_555
H20_3 C10_3 1_555 1_555
C13_3 N5_3 1_555 1_555
C14_3 C13_3 1_555 1_555
H21_3 C14_3 1_555 1_555
H22_3 C14_3 1_555 1_555
H23_3 C14_3 1_555 1_555
C21_3 N9_3 1_555 1_555
C22_3 C21_3 1_555 1_555
C31_3 N13_3 1_555 1_555
C32_3 C31_3 1_555 1_555
C33_3 N22 1_555 1_555
C34_3 C33_3 1_555 1_555
H45_3 C34_3 1_555 1_555
H46_3 C34_3 1_555 1_555
H47_3 C34_3 1_555 1_555
C35_3 C31_3 1_555 1_555
H48_3 C35_3 1_555 1_555
H49_3 C35_3 1_555 1_555
H50_3 C35_3 1_555 1_555
C36_3 N16_3 1_555 1_555
C37_3 C32_3 1_555 1_555
C38_3 N15_3 1_555 1_555
C39_3 C38_3 1_555 1_555
H51_3 C39_3 1_555 1_555
H52_3 C39_3 1_555 1_555
H53_3 C39_3 1_555 1_555
C40_3 C36_3 1_555 1_555
H54_3 C40_3 1_555 1_555
H55_3 C40_3 1_555 1_555
H56_3 C40_3 1_555 1_555
C41_3 N18_3 1_555 1_555
C42_3 N17_3 1_555 1_555
C2_3 C3_3 1_555 1_555
C6_3 C7_3 1_555 1_555
C7_3 C8_3 1_555 1_555
C32_3 C33_3 1_555 1_555
C36_3 C37_3 1_555 1_555
C37_3 C38_3 1_555 1_555
N20 N8_3 1_555 1_555
N8_3 H4_3 1_555 1_555
C12_3 C11_3 1_555 1_555
C15_3 C11_3 1_555 1_555
H24_3 C15_3 1_555 1_555
H25_3 C15_3 1_555 1_555
H26_3 C15_3 1_555 1_555
C16_3 N8_3 1_555 1_555
C17_3 C12_3 1_555 1_555
C18_3 N20 1_555 1_555
C19_3 C18_3 1_555 1_555
H27_3 C19_3 1_555 1_555
H29_3 C19_3 1_555 1_555
C20_3 C16_3 1_555 1_555
H30_3 C20_3 1_555 1_555
H31_3 C20_3 1_555 1_555
H32_3 C20_3 1_555 1_555
C24_3 C23_3 1_555 1_555
H33_3 C24_3 1_555 1_555
H34_3 C24_3 1_555 1_555
H35_3 C24_3 1_555 1_555
C16_3 C17_3 1_555 1_555
C17_3 C18_3 1_555 1_555
N11_3 H6_3 1_555 1_555
N21_2 N11_3 1_555 1_555
C26_3 N11_3 1_555 1_555
C28_3 N21_2 1_555 1_555
C29_3 C28_3 1_555 1_555
H39_3 C29_3 1_555 1_555
H41_3 C29_3 1_555 1_555
C30_3 C26_3 1_555 1_555
H42_3 C30_3 1_555 1_555
H44_3 C30_3 1_555 1_555
C26_3 C27_3 1_555 1_555
C27_3 C28_3 1_555 1_555
Co3 O2_4 1_555 1_555
Co5 O1_4 1_555 1_555
S1_4 O1_4 1_555 1_555
S3_3 C41_4 1_555 1_555
O2_4 S1_4 1_555 1_555
O3_4 S1_4 1_555 1_555
O4_4 S1_4 1_555 1_555
N1_4 Co3 1_555 1_555
N2_4 N1_4 1_555 1_555
H1_4 N2_4 1_555 1_555
N5_4 Co3 1_555 1_555
N6_4 N5_4 1_555 1_555
H3_4 N6_4 1_555 1_555
N20_2 N8_4 1_555 1_555
N8_4 H4_4 1_555 1_555
N9_4 Co5 1_555 1_555
N10_4 N9_4 1_555 1_555
H5_4 N10_4 1_555 1_555
N11_4 H6_4 1_555 1_555
N21 N11_4 1_555 1_555
N15_4 Co3 1_555 1_555
N16_4 N15_4 1_555 1_555
H8_4 N16_4 1_555 1_555
N17_4 Co3 1_555 1_555
N18_4 Co5 1_555 1_555
C1_4 N1_4 1_555 1_555
C2_4 C1_4 1_555 1_555
C11_4 N6_4 1_555 1_555
C12_4 C11_4 1_555 1_555
C13_4 N5_4 1_555 1_555
C14_4 C13_4 1_555 1_555
H21_4 C14_4 1_555 1_555
H22_4 C14_4 1_555 1_555
H23_4 C14_4 1_555 1_555
C15_4 C11_4 1_555 1_555
H24_4 C15_4 1_555 1_555
H25_4 C15_4 1_555 1_555
H26_4 C15_4 1_555 1_555
C16_4 N8_4 1_555 1_555
C17_4 C12_4 1_555 1_555
C18_4 N20_2 1_555 1_555
C19_4 C18_4 1_555 1_555
H27_4 C19_4 1_555 1_555
H28_4 C19_4 1_555 1_555
H29_4 C19_4 1_555 1_555
C20_4 C16_4 1_555 1_555
H30_4 C20_4 1_555 1_555
H31_4 C20_4 1_555 1_555
H32_4 C20_4 1_555 1_555
C21_4 N9_4 1_555 1_555
C22_4 C21_4 1_555 1_555
C23_4 N10_4 1_555 1_555
C24_4 C23_4 1_555 1_555
H33_4 C24_4 1_555 1_555
H34_4 C24_4 1_555 1_555
H35_4 C24_4 1_555 1_555
C25_3 C21_4 1_555 1_555
H36_4 C25_3 1_555 1_555
H37_3 C25_3 1_555 1_555
H38_3 C25_3 1_555 1_555
C26_4 N11_4 1_555 1_555
C27_4 C22_4 1_555 1_555
C28_4 N21 1_555 1_555
C29_4 C28_4 1_555 1_555
H39_4 C29_4 1_555 1_555
H40_3 C29_4 1_555 1_555
H41_4 C29_4 1_555 1_555
C30_4 C26_4 1_555 1_555
H42_4 C30_4 1_555 1_555
H43_4 C30_4 1_555 1_555
H44_4 C30_4 1_555 1_555
C32_4 C31_4 1_555 1_555
C35_4 C31_4 1_555 1_555
H48_4 C35_4 1_555 1_555
H49_4 C35_4 1_555 1_555
H50_4 C35_4 1_555 1_555
C36_4 N16_4 1_555 1_555
C37_4 C32_4 1_555 1_555
C38_4 N15_4 1_555 1_555
C39_4 C38_4 1_555 1_555
H51_4 C39_4 1_555 1_555
H52_4 C39_4 1_555 1_555
H53_4 C39_4 1_555 1_555
C40_4 C36_4 1_555 1_555
H54_4 C40_4 1_555 1_555
H55_4 C40_4 1_555 1_555
H56_4 C40_4 1_555 1_555
C41_4 N18_4 1_555 1_555
C42_4 N17_4 1_555 1_555
C12_4 C13_4 1_555 1_555
C16_4 C17_4 1_555 1_555
C17_4 C18_4 1_555 1_555
C22_4 C23_4 1_555 1_555
C26_4 C27_4 1_555 1_555
C27_4 C28_4 1_555 1_555
C36_4 C37_4 1_555 1_555
C37_4 C38_4 1_555 1_555
N19 N4_4 1_555 1_555
N4_4 H2_4 1_555 1_555
C6_4 N4_4 1_555 1_555
C8_4 N19 1_555 1_555
C10_4 C6_4 1_555 1_555
H18_4 C10_4 1_555 1_555
H19_4 C10_4 1_555 1_555
C6_4 C7_4 1_555 1_555
C7_4 C8_4 1_555 1_555
N13_4 H7_4 1_555 1_555
N22_2 N13_4 1_555 1_555
C4_4 C3_4 1_555 1_555
H9_4 C4_4 1_555 1_555
H10_4 C4_4 1_555 1_555
H11_4 C4_4 1_555 1_555
C33_4 N22_2 1_555 1_555
C34_4 C33_4 1_555 1_555
H45_4 C34_4 1_555 1_555
H46_4 C34_4 1_555 1_555
H47_4 C34_4 1_555 1_555
H37_4 C25_4 1_555 1_555
H38_4 C25_4 1_555 1_555
H12_4 C5_4 1_555 1_555
H13_4 C5_4 1_555 1_555
H14_4 C5_4 1_555 1_555
H16_4 C9_4 1_555 1_555
H17_4 C9_4 1_555 1_555

#END
