
###############################################################################
#
# This file contains modified crystal structure data generated from the
# MOF subset of the Cambridge Structural Database (CSD) v543 
# hosted by the Cambridge Crystallographic Data Centre (CCDC).
#
# This work is licensed under the Creative Commons
# Attribution-NonCommercial-ShareAlike 4.0 International License.
# To view a copy of this license, visit
# http://creativecommons.org/licenses/by-nc-sa/4.0/
# or send a letter to
# Creative Commons, PO Box 1866, Mountain View, CA 94042, USA.
#
# CIF created using the CSD Python API on 29 September 2022
# The structure has been converted into the P1 space group
# The structure has a 3D framework
# The original CSD entry MIGVUT is in the orthorhombic crystal system
# The original CSD entry MIGVUT is in a Sohncke space group
# The framework has been calculated to contain at least 10.0% void space
# The void calculation uses a probe of radius 1.32A, grid spacing 0.4
#
###############################################################################

data_MIGVUT
_chemical_formula_moiety         '(C168 H224 N72 Ni8 O16 S12)n'
_symmetry_cell_setting           triclinic
_symmetry_space_group_name_H-M   'P 1'
_symmetry_Int_Tables_number      1
_space_group_name_Hall           'P 1'
loop_
_symmetry_equiv_pos_site_id
_symmetry_equiv_pos_as_xyz
1 x,y,z
_cell_length_a                   13.6250(14)
_cell_length_b                   21.376(2)
_cell_length_c                   22.072(2)
_cell_angle_alpha                90
_cell_angle_beta                 90
_cell_angle_gamma                90
_cell_volume                     6428.43
loop_
_atom_site_label
_atom_site_type_symbol
_atom_site_fract_x
_atom_site_fract_y
_atom_site_fract_z
N7 N 0.1681(2) 0.09269(14) 0.17423(12)
N8 N 0.1869(2) 0.07873(14) 0.23318(13)
H4 H 0.2262(2) 0.10011(14) 0.25559(13)
C16 C 0.1382(3) 0.0284(2) 0.2527(2)
C17 C 0.0831(3) 0.0072(2) 0.2034(2)
C18 C 0.1048(3) 0.0491(2) 0.1559(2)
C19 C 0.0651(4) 0.0477(2) 0.0928(2)
H27 H 0.0923(4) 0.0818(2) 0.0700(2)
H29 H 0.0825(4) 0.0088(2) 0.0738(2)
C20 C 0.1484(4) 0.0046(2) 0.3151(2)
H30 H 0.1928(4) 0.0309(2) 0.3373(2)
H32 H 0.0854(4) 0.0048(2) 0.3346(2)
Ni4 Ni 0.26884(3) 0.15378(2) 0.13122(2)
N11 N 0.1581(2) 0.72286(15) 0.58357(14)
H6 H 0.2016(2) 0.70509(15) 0.60596(14)
N12 N 0.1283(2) 0.78203(15) 0.59127(14)
C11 C 0.0451(3) 0.8909(2) 0.2128(2)
C12 C 0.0197(3) 0.9518(2) 0.20128(15)
C15 C 0.1400(3) 0.8617(2) 0.2312(3)
H24 H 0.1313(3) 0.8173(2) 0.2354(3)
H25 H 0.1610(3) 0.8790(2) 0.2691(3)
H26 H 0.1887(3) 0.8698(2) 0.2007(3)
H31 H 0.1735(4) 0.9627(2) 0.3141(2)
C23 C 0.0105(3) 0.7266(2) 0.3999(2)
C24 C 0.1068(4) 0.7375(4) 0.3703(2)
H33 H 0.1000(4) 0.7329(4) 0.3273(2)
H34 H 0.1537(4) 0.7077(4) 0.3852(2)
H35 H 0.1291(4) 0.7791(4) 0.3794(2)
C26 C 0.1127(3) 0.6941(2) 0.5370(2)
C27 C 0.0491(3) 0.7376(2) 0.5129(2)
C28 C 0.0599(3) 0.7919(2) 0.5484(2)
C29 C 0.0040(4) 0.8509(3) 0.5422(2)
H39 H 0.0260(4) 0.8803(3) 0.5721(2)
H41 H 0.0142(4) 0.8680(3) 0.5025(2)
C30 C 0.1329(5) 0.6280(2) 0.5206(3)
H42 H 0.1823(5) 0.6113(2) 0.5471(3)
H43 H 0.1558(5) 0.6260(2) 0.4795(3)
H44 H 0.0738(5) 0.6039(2) 0.5245(3)
Ni5 Ni 0.23116(3) 0.84622(2) 0.63122(2)
N13 N 0.4569(2) 0.14055(15) 0.19877(14)
H7 H 0.4531(2) 0.18016(15) 0.20514(14)
N14 N 0.3846(2) 0.10646(15) 0.17429(14)
C14 C 0.8545(3) 0.0040(2) 0.1691(2)
H22 H 0.8814(3) 0.0269(2) 0.1356(2)
H23 H 0.8498(3) 0.0310(2) 0.2038(2)
H28 H 0.9949(4) 0.0516(2) 0.0939(2)
C31 C 0.5367(3) 0.1056(2) 0.2123(2)
C32 C 0.5139(3) 0.0445(2) 0.1956(2)
C33 C 0.4173(3) 0.0476(2) 0.1727(2)
H45 H 0.2944(3) 0.0096(2) 0.1366(2)
C35 C 0.6274(4) 0.1333(3) 0.2386(3)
H48 H 0.6180(4) 0.1773(3) 0.2447(3)
H49 H 0.6813(4) 0.1267(3) 0.2114(3)
H50 H 0.6414(4) 0.1136(3) 0.2768(3)
H56 H 0.6273(4) 0.0252(3) 0.3238(2)
Ni1 Ni 0.77421(3) 0.84666(2) 0.13415(2)
Ni2 Ni 0.73116(3) 0.65378(2) 0.36878(2)
S1 S 0.71297(5) 0.76505(3) 0.26233(3)
S3 S 0.7380(3) 0.53248(13) 0.54981(10)
O1 O 0.7491(2) 0.70507(10) 0.28632(10)
O2 O 0.7630(2) 0.77585(11) 0.20358(10)
O3 O 0.7364(2) 0.81581(11) 0.30436(10)
O4 O 0.6071(2) 0.76051(13) 0.25149(11)
N1 N 0.6530(2) 0.80195(14) 0.09048(12)
N2 N 0.5739(2) 0.79033(15) 0.12607(13)
H1 H 0.5754(2) 0.79167(15) 0.16500(13)
N5 N 0.8876(2) 0.89067(13) 0.18398(13)
N6 N 0.9651(2) 0.85588(14) 0.20273(14)
H3 H 0.9632(2) 0.81598(14) 0.20756(14)
N9 N 0.8502(2) 0.70550(15) 0.40448(13)
N10 N 0.9291(2) 0.7132(2) 0.36863(15)
H5 H 0.9274(2) 0.7099(2) 0.32981(15)
N15 N 0.6728(2) 0.90749(13) 0.17445(12)
N16 N 0.6760(2) 0.91716(13) 0.23525(13)
H8 H 0.7102(2) 0.89499(13) 0.25999(13)
N17 N 0.8010(2) 0.90336(14) 0.06266(13)
N18 N 0.7237(3) 0.59867(15) 0.44265(14)
C1 C 0.6202(3) 0.7952(2) 0.03360(15)
C2 C 0.5200(3) 0.7793(2) 0.03326(15)
C3 C 0.4924(3) 0.7764(2) 0.0937(2)
C4 C 0.3979(3) 0.7606(3) 0.1227(2)
H9 H 0.4046(3) 0.7633(3) 0.1660(2)
H10 H 0.3791(3) 0.7189(3) 0.1117(2)
H11 H 0.3484(3) 0.7895(3) 0.1095(2)
H20 H 0.3268(4) 0.8673(2) 0.0247(2)
C13 C 0.9200(3) 0.9497(2) 0.1838(2)
H21 H 0.7903(3) 0.9889(2) 0.1587(2)
C21 C 0.8822(3) 0.7150(2) 0.4608(2)
C22 C 0.9845(3) 0.7281(2) 0.4602(2)
C25 C 0.8181(3) 0.7130(3) 0.5149(2)
H36 H 0.7522(3) 0.7031(3) 0.5028(2)
H37 H 0.8188(3) 0.7531(3) 0.5346(2)
H38 H 0.8416(3) 0.6816(3) 0.5425(2)
H40 H 0.9353(4) 0.8427(3) 0.5480(2)
C34 C 0.3575(3) 0.9944(2) 0.1494(2)
H46 H 0.3490(3) 0.9639(2) 0.1809(2)
H47 H 0.3904(3) 0.9755(2) 0.1156(2)
C36 C 0.6192(3) 0.9656(2) 0.2521(2)
C37 C 0.5780(3) 0.9898(2) 0.2004(2)
C38 C 0.6122(3) 0.9516(2) 0.15285(15)
C39 C 0.5891(3) 0.9579(2) 0.0870(2)
H51 H 0.6223(3) 0.9256(2) 0.0648(2)
H52 H 0.6106(3) 0.9981(2) 0.0728(2)
H53 H 0.5196(3) 0.9540(2) 0.0811(2)
C40 C 0.6076(4) 0.9825(3) 0.3177(2)
H54 H 0.6479(4) 0.9555(3) 0.3420(2)
H55 H 0.5401(4) 0.9777(3) 0.3294(2)
C41 C 0.7269(5) 0.5718(2) 0.4864(2)
C42 C 0.8284(3) 0.9248(2) 0.0179(2)
N19 N 0.8740(2) 0.77966(14) 0.09554(13)
N20 N 0.8319(2) 0.59269(14) 0.32577(12)
N21 N 0.6283(2) 0.71797(15) 0.40873(14)
N22 N 0.6154(2) 0.60646(15) 0.32571(14)
S2 S 0.86615(12) 0.95452(8) 0.95419(6)
N3 N 0.3740(2) 0.72034(14) 0.90446(13)
N4 N 0.3344(2) 0.77776(14) 0.91583(13)
H2 H 0.2856(2) 0.79309(14) 0.89608(13)
C5 C 0.6854(3) 0.8028(2) 0.9796(2)
H12 H 0.7503(3) 0.8138(2) 0.9927(2)
H13 H 0.6599(3) 0.8353(2) 0.9540(2)
H14 H 0.6877(3) 0.7642(2) 0.9574(2)
C6 C 0.3799(3) 0.8076(2) 0.9612(2)
C7 C 0.4543(2) 0.7686(2) 0.98110(15)
C8 C 0.4480(2) 0.7152(2) 0.9443(2)
C9 C 0.5147(3) 0.6595(2) 0.9452(2)
H15 H 0.4934(3) 0.6298(2) 0.9153(2)
H16 H 0.5128(3) 0.6404(2) 0.9845(2)
H17 H 0.5805(3) 0.6725(2) 0.9363(2)
C10 C 0.3470(4) 0.8704(2) 0.9831(2)
H18 H 0.2928(4) 0.8846(2) 0.9589(2)
H19 H 0.4002(4) 0.8997(2) 0.9798(2)
Ni3 Ni 0.27421(3) 0.65334(2) 0.86585(2)
N3_2 N 0.1260(2) 0.27966(14) 0.40446(13)
N4_2 N 0.1656(2) 0.22224(14) 0.41583(13)
H2_2 H 0.2144(2) 0.20691(14) 0.39608(13)
C3_2 C 0.0076(3) 0.2236(2) 0.5937(2)
C4_2 C 0.1021(3) 0.2394(3) 0.6227(2)
H9_2 H 0.0954(3) 0.2367(3) 0.6660(2)
H10_2 H 0.1209(3) 0.2811(3) 0.6117(2)
H11_2 H 0.1516(3) 0.2105(3) 0.6095(2)
C6_2 C 0.1201(3) 0.1924(2) 0.4612(2)
C7_2 C 0.0457(2) 0.2314(2) 0.48110(15)
C8_2 C 0.0520(2) 0.2848(2) 0.4443(2)
H15_2 H 0.0066(3) 0.3702(2) 0.4153(2)
C10_2 C 0.1530(4) 0.1296(2) 0.4831(2)
H18_2 H 0.2072(4) 0.1154(2) 0.4589(2)
H19_2 H 0.0998(4) 0.1003(2) 0.4798(2)
H20_2 H 0.1732(4) 0.1327(2) 0.5247(2)
C34_2 C 0.1425(3) 0.0056(2) 0.6494(2)
H46_2 H 0.1510(3) 0.0361(2) 0.6809(2)
H47_2 H 0.1096(3) 0.0245(2) 0.6156(2)
Ni3_2 Ni 0.22579(3) 0.34666(2) 0.36585(2)
N13_2 N 0.0431(2) 0.85945(15) 0.69877(14)
H7_2 H 0.0469(2) 0.81984(15) 0.70514(14)
N14_2 N 0.1154(2) 0.89354(15) 0.67429(14)
C33_2 C 0.0827(3) 0.9524(2) 0.6727(2)
H45_2 H 0.2056(3) 0.9904(2) 0.6366(2)
S3_2 S 0.7620(3) 0.46752(13) 0.04981(10)
N11_2 N 0.3419(2) 0.27714(15) 0.08357(14)
H6_2 H 0.2984(2) 0.29491(15) 0.10596(14)
N12_2 N 0.3717(2) 0.21797(15) 0.09127(14)
C25_2 C 0.6819(3) 0.2870(3) 0.0149(2)
H36_2 H 0.7478(3) 0.2969(3) 0.0028(2)
H37_2 H 0.6812(3) 0.2469(3) 0.0346(2)
H38_2 H 0.6584(3) 0.3184(3) 0.0425(2)
C26_2 C 0.3873(3) 0.3059(2) 0.0370(2)
C27_2 C 0.4509(3) 0.2624(2) 0.0129(2)
C28_2 C 0.4401(3) 0.2081(2) 0.0484(2)
C29_2 C 0.4960(4) 0.1491(3) 0.0422(2)
H39_2 H 0.4740(4) 0.1197(3) 0.0721(2)
H40_2 H 0.5647(4) 0.1573(3) 0.0480(2)
H41_2 H 0.4858(4) 0.1320(3) 0.0025(2)
C30_2 C 0.3671(5) 0.3720(2) 0.0206(3)
H42_2 H 0.3177(5) 0.3887(2) 0.0471(3)
H44_2 H 0.4262(5) 0.3961(2) 0.0245(3)
Ni1_2 Ni 0.72579(3) 0.15334(2) 0.63415(2)
Ni2_2 Ni 0.76884(3) 0.34622(2) 0.86878(2)
S1_2 S 0.78703(5) 0.23495(3) 0.76233(3)
S2_2 S 0.63385(12) 0.04548(8) 0.45419(6)
O1_2 O 0.7509(2) 0.29493(10) 0.78632(10)
O2_2 O 0.7370(2) 0.22415(11) 0.70358(10)
O3_2 O 0.7636(2) 0.18419(11) 0.80436(10)
O4_2 O 0.8929(2) 0.23949(13) 0.75149(11)
N1_2 N 0.8470(2) 0.19805(14) 0.59048(12)
N2_2 N 0.9261(2) 0.20967(15) 0.62607(13)
H1_2 H 0.9246(2) 0.20833(15) 0.66500(13)
N5_2 N 0.6124(2) 0.10933(13) 0.68398(13)
N6_2 N 0.5349(2) 0.14412(14) 0.70273(14)
H3_2 H 0.5368(2) 0.18402(14) 0.70756(14)
N9_2 N 0.6498(2) 0.29450(15) 0.90448(13)
N10_2 N 0.5709(2) 0.2868(2) 0.86863(15)
H5_2 H 0.5726(2) 0.2901(2) 0.82981(15)
N15_2 N 0.8272(2) 0.09251(13) 0.67445(12)
N16_2 N 0.8240(2) 0.08284(13) 0.73525(13)
H8_2 H 0.7898(2) 0.10501(13) 0.75999(13)
N17_2 N 0.6990(2) 0.09664(14) 0.56266(13)
N18_2 N 0.7763(3) 0.40133(15) 0.94265(14)
C1_2 C 0.8798(3) 0.2048(2) 0.53360(15)
C2_2 C 0.9800(3) 0.2207(2) 0.53326(15)
C5_2 C 0.8146(3) 0.1972(2) 0.4796(2)
H12_2 H 0.7497(3) 0.1862(2) 0.4927(2)
H13_2 H 0.8401(3) 0.1647(2) 0.4540(2)
H14_2 H 0.8123(3) 0.2358(2) 0.4574(2)
C9_2 C 0.9853(3) 0.3405(2) 0.4452(2)
H16_2 H 0.9872(3) 0.3596(2) 0.4845(2)
H17_2 H 0.9195(3) 0.3275(2) 0.4363(2)
C11_2 C 0.4549(3) 0.1091(2) 0.7128(2)
C12_2 C 0.4803(3) 0.0482(2) 0.70128(15)
C13_2 C 0.5800(3) 0.0503(2) 0.6838(2)
H21_2 H 0.7097(3) 0.0111(2) 0.6587(2)
C15_2 C 0.3600(3) 0.1383(2) 0.7312(3)
H24_2 H 0.3687(3) 0.1827(2) 0.7354(3)
H25_2 H 0.3390(3) 0.1210(2) 0.7691(3)
H26_2 H 0.3113(3) 0.1302(2) 0.7007(3)
H31_2 H 0.3265(4) 0.0373(2) 0.8141(2)
C21_2 C 0.6178(3) 0.2850(2) 0.9608(2)
C22_2 C 0.5155(3) 0.2719(2) 0.9602(2)
C23_2 C 0.4895(3) 0.2734(2) 0.8999(2)
C24_2 C 0.3932(4) 0.2625(4) 0.8703(2)
H33_2 H 0.4000(4) 0.2671(4) 0.8273(2)
H34_2 H 0.3463(4) 0.2923(4) 0.8852(2)
H35_2 H 0.3709(4) 0.2209(4) 0.8794(2)
H43_2 H 0.3442(5) 0.3740(2) 0.9795(3)
C36_2 C 0.8808(3) 0.0344(2) 0.7521(2)
C37_2 C 0.9220(3) 0.0102(2) 0.7004(2)
C38_2 C 0.8878(3) 0.0484(2) 0.65285(15)
C39_2 C 0.9109(3) 0.0421(2) 0.5870(2)
H51_2 H 0.8777(3) 0.0744(2) 0.5648(2)
H52_2 H 0.8894(3) 0.0019(2) 0.5728(2)
H53_2 H 0.9804(3) 0.0460(2) 0.5811(2)
C40_2 C 0.8924(4) 0.0175(3) 0.8177(2)
H54_2 H 0.8521(4) 0.0445(3) 0.8420(2)
H55_2 H 0.9599(4) 0.0223(3) 0.8294(2)
C41_2 C 0.7731(5) 0.4282(2) 0.9864(2)
C42_2 C 0.6716(3) 0.0752(2) 0.5179(2)
N19_2 N 0.6260(2) 0.22034(14) 0.59554(13)
N20_2 N 0.6681(2) 0.40731(14) 0.82577(12)
N21_2 N 0.8717(2) 0.28203(15) 0.90873(14)
N22_2 N 0.8846(2) 0.39354(15) 0.82571(14)
N7_2 N 0.3319(2) 0.90731(14) 0.67423(12)
N8_2 N 0.3131(2) 0.92127(14) 0.73318(13)
H4_2 H 0.2738(2) 0.89989(14) 0.75559(13)
C14_2 C 0.6455(3) 0.9960(2) 0.6691(2)
H22_2 H 0.6186(3) 0.9731(2) 0.6356(2)
H23_2 H 0.6502(3) 0.9690(2) 0.7038(2)
C16_2 C 0.3618(3) 0.9716(2) 0.7527(2)
C17_2 C 0.4169(3) 0.9928(2) 0.7034(2)
C18_2 C 0.3952(3) 0.9509(2) 0.6559(2)
C19_2 C 0.4349(4) 0.9523(2) 0.5928(2)
H27_2 H 0.4077(4) 0.9182(2) 0.5700(2)
H28_2 H 0.5051(4) 0.9484(2) 0.5939(2)
H29_2 H 0.4175(4) 0.9912(2) 0.5738(2)
C20_2 C 0.3516(4) 0.9954(2) 0.8151(2)
H30_2 H 0.3072(4) 0.9691(2) 0.8373(2)
H32_2 H 0.4146(4) 0.9952(2) 0.8346(2)
C31_2 C 0.9633(3) 0.8944(2) 0.7123(2)
C32_2 C 0.9861(3) 0.9555(2) 0.6956(2)
C35_2 C 0.8726(4) 0.8667(3) 0.7386(3)
H48_2 H 0.8820(4) 0.8227(3) 0.7447(3)
H49_2 H 0.8187(4) 0.8733(3) 0.7114(3)
H50_2 H 0.8586(4) 0.8864(3) 0.7768(3)
H56_2 H 0.8727(4) 0.9748(3) 0.8238(2)
S1_3 S 0.28703(5) 0.26505(3) 0.23767(3)
S2_3 S 0.13385(12) 0.45452(8) 0.54581(6)
O1_3 O 0.2509(2) 0.20507(10) 0.21368(10)
O2_3 O 0.2370(2) 0.27585(11) 0.29642(10)
O3_3 O 0.2636(2) 0.31581(11) 0.19564(10)
O4_3 O 0.3929(2) 0.26051(13) 0.24851(11)
N1_3 N 0.3470(2) 0.30195(14) 0.40952(12)
N2_3 N 0.4261(2) 0.29033(15) 0.37393(13)
H1_3 H 0.4246(2) 0.29167(15) 0.33500(13)
N4_3 N 0.6656(2) 0.27776(14) 0.58417(13)
H2_3 H 0.7144(2) 0.29309(14) 0.60392(13)
N5_3 N 0.1124(2) 0.39067(13) 0.31602(13)
N6_3 N 0.0349(2) 0.35588(14) 0.29727(14)
H3_3 H 0.0368(2) 0.31598(14) 0.29244(14)
N9_3 N 0.1498(2) 0.20550(15) 0.09552(13)
N10_3 N 0.0709(2) 0.2132(2) 0.13137(15)
H5_3 H 0.0726(2) 0.2099(2) 0.17019(15)
N13_3 N 0.5431(2) 0.64055(15) 0.30123(14)
H7_3 H 0.5469(2) 0.68016(15) 0.29486(14)
N15_3 N 0.3272(2) 0.40749(13) 0.32555(12)
N16_3 N 0.3240(2) 0.41716(13) 0.26475(13)
H8_3 H 0.2898(2) 0.39499(13) 0.24001(13)
N17_3 N 0.1990(2) 0.40336(14) 0.43734(13)
N18_3 N 0.2763(3) 0.09867(15) 0.05735(14)
C1_3 C 0.3798(3) 0.2952(2) 0.46640(15)
C2_3 C 0.4800(3) 0.2793(2) 0.46674(15)
C3_3 C 0.5076(3) 0.2764(2) 0.4063(2)
C4_3 C 0.6021(3) 0.2606(3) 0.3773(2)
H9_3 H 0.5954(3) 0.2633(3) 0.3340(2)
H10_3 H 0.6209(3) 0.2189(3) 0.3883(2)
H11_3 H 0.6516(3) 0.2895(3) 0.3905(2)
C5_3 C 0.3146(3) 0.3028(2) 0.5204(2)
H12_3 H 0.2497(3) 0.3138(2) 0.5073(2)
H13_3 H 0.3401(3) 0.3353(2) 0.5460(2)
H14_3 H 0.3123(3) 0.2642(2) 0.5426(2)
C6_3 C 0.6201(3) 0.3076(2) 0.5388(2)
C7_3 C 0.5457(2) 0.2686(2) 0.51890(15)
C8_3 C 0.5520(2) 0.2152(2) 0.5557(2)
C9_3 C 0.4853(3) 0.1595(2) 0.5548(2)
H15_3 H 0.5066(3) 0.1298(2) 0.5847(2)
H16_3 H 0.4872(3) 0.1404(2) 0.5155(2)
H17_3 H 0.4195(3) 0.1725(2) 0.5637(2)
C10_3 C 0.6530(4) 0.3704(2) 0.5169(2)
H18_3 H 0.7072(4) 0.3846(2) 0.5411(2)
H19_3 H 0.5998(4) 0.3997(2) 0.5202(2)
H20_3 H 0.6732(4) 0.3673(2) 0.4753(2)
C13_3 C 0.0800(3) 0.4497(2) 0.3162(2)
C14_3 C 0.1455(3) 0.5040(2) 0.3309(2)
H21_3 H 0.2097(3) 0.4889(2) 0.3413(2)
H22_3 H 0.1186(3) 0.5269(2) 0.3644(2)
H23_3 H 0.1502(3) 0.5310(2) 0.2962(2)
H28_3 H 0.0051(4) 0.5516(2) 0.4061(2)
C21_3 C 0.1178(3) 0.2150(2) 0.0392(2)
C22_3 C 0.0155(3) 0.2281(2) 0.0398(2)
C31_3 C 0.4633(3) 0.6056(2) 0.2877(2)
C32_3 C 0.4861(3) 0.5445(2) 0.3044(2)
C33_3 C 0.5827(3) 0.5476(2) 0.3273(2)
C34_3 C 0.6425(3) 0.4944(2) 0.3506(2)
H45_3 H 0.7056(3) 0.5096(2) 0.3634(2)
H46_3 H 0.6510(3) 0.4639(2) 0.3191(2)
H47_3 H 0.6096(3) 0.4755(2) 0.3844(2)
C35_3 C 0.3726(4) 0.6333(3) 0.2614(3)
H48_3 H 0.3820(4) 0.6773(3) 0.2553(3)
H49_3 H 0.3187(4) 0.6267(3) 0.2886(3)
H50_3 H 0.3586(4) 0.6136(3) 0.2232(3)
C36_3 C 0.3808(3) 0.4656(2) 0.2479(2)
C37_3 C 0.4220(3) 0.4898(2) 0.2996(2)
C38_3 C 0.3878(3) 0.4516(2) 0.34715(15)
C39_3 C 0.4109(3) 0.4579(2) 0.4130(2)
H51_3 H 0.3777(3) 0.4256(2) 0.4352(2)
H52_3 H 0.3894(3) 0.4981(2) 0.4272(2)
H53_3 H 0.4804(3) 0.4540(2) 0.4189(2)
C40_3 C 0.3924(4) 0.4825(3) 0.1823(2)
H54_3 H 0.3521(4) 0.4555(3) 0.1580(2)
H55_3 H 0.4599(4) 0.4777(3) 0.1706(2)
H56_3 H 0.3727(4) 0.5252(3) 0.1762(2)
C41_3 C 0.2731(5) 0.0718(2) 0.0136(2)
C42_3 C 0.1716(3) 0.4248(2) 0.4821(2)
N8_3 N 0.8131(2) 0.57873(14) 0.26682(13)
H4_3 H 0.7738(2) 0.60011(14) 0.24441(13)
C11_3 C 0.9549(3) 0.3909(2) 0.2872(2)
C12_3 C 0.9803(3) 0.4518(2) 0.29872(15)
C15_3 C 0.8600(3) 0.3617(2) 0.2688(3)
H24_3 H 0.8687(3) 0.3173(2) 0.2646(3)
H25_3 H 0.8390(3) 0.3790(2) 0.2309(3)
H26_3 H 0.8113(3) 0.3698(2) 0.2993(3)
C16_3 C 0.8618(3) 0.5284(2) 0.2473(2)
C17_3 C 0.9169(3) 0.5072(2) 0.2966(2)
C18_3 C 0.8952(3) 0.5491(2) 0.3441(2)
C19_3 C 0.9349(4) 0.5477(2) 0.4072(2)
H27_3 H 0.9077(4) 0.5818(2) 0.4300(2)
H29_3 H 0.9175(4) 0.5088(2) 0.4262(2)
C20_3 C 0.8516(4) 0.5046(2) 0.1849(2)
H30_3 H 0.8072(4) 0.5309(2) 0.1627(2)
H31_3 H 0.8265(4) 0.4627(2) 0.1859(2)
H32_3 H 0.9146(4) 0.5048(2) 0.1654(2)
C23_3 C 0.9895(3) 0.2266(2) 0.1001(2)
C24_3 C 0.8932(4) 0.2375(4) 0.1297(2)
H33_3 H 0.9000(4) 0.2329(4) 0.1727(2)
H34_3 H 0.8463(4) 0.2077(4) 0.1148(2)
H35_3 H 0.8709(4) 0.2791(4) 0.1206(2)
H43_3 H 0.8442(5) 0.1260(2) 0.0205(3)
N11_3 N 0.8419(2) 0.22286(15) 0.91643(14)
H6_3 H 0.7984(2) 0.20509(15) 0.89404(14)
C26_3 C 0.8873(3) 0.1941(2) 0.9630(2)
C27_3 C 0.9509(3) 0.2376(2) 0.9871(2)
C28_3 C 0.9401(3) 0.2919(2) 0.9516(2)
C29_3 C 0.9960(4) 0.3509(3) 0.9578(2)
H39_3 H 0.9740(4) 0.3803(3) 0.9279(2)
H41_3 H 0.9858(4) 0.3680(3) 0.9975(2)
C30_3 C 0.8671(5) 0.1280(2) 0.9794(3)
H42_3 H 0.8177(5) 0.1113(2) 0.9529(3)
H44_3 H 0.9262(5) 0.1039(2) 0.9755(3)
S1_4 S 0.21297(5) 0.73495(3) 0.73767(3)
S3_3 S 0.2380(3) 0.96752(13) 0.45019(10)
O1_4 O 0.2491(2) 0.79493(10) 0.71368(10)
O2_4 O 0.2630(2) 0.72415(11) 0.79642(10)
O3_4 O 0.2364(2) 0.68419(11) 0.69564(10)
O4_4 O 0.1071(2) 0.73949(13) 0.74851(11)
N1_4 N 0.1530(2) 0.69805(14) 0.90952(12)
N2_4 N 0.0739(2) 0.70967(15) 0.87393(13)
H1_4 H 0.0754(2) 0.70833(15) 0.83500(13)
N5_4 N 0.3876(2) 0.60933(13) 0.81602(13)
N6_4 N 0.4651(2) 0.64412(14) 0.79727(14)
H3_4 H 0.4632(2) 0.68402(14) 0.79244(14)
N8_4 N 0.6869(2) 0.42127(14) 0.76682(13)
H4_4 H 0.7262(2) 0.39989(14) 0.74441(13)
N9_4 N 0.3502(2) 0.79450(15) 0.59552(13)
N10_4 N 0.4291(2) 0.7868(2) 0.63137(15)
H5_4 H 0.4274(2) 0.7901(2) 0.67019(15)
N11_4 N 0.6581(2) 0.77714(15) 0.41643(14)
H6_4 H 0.7016(2) 0.79491(15) 0.39404(14)
N15_4 N 0.1728(2) 0.59251(13) 0.82555(12)
N16_4 N 0.1760(2) 0.58284(13) 0.76475(13)
H8_4 H 0.2102(2) 0.60501(13) 0.74001(13)
N17_4 N 0.3010(2) 0.59664(14) 0.93734(13)
N18_4 N 0.2237(3) 0.90133(15) 0.55735(14)
C1_4 C 0.1202(3) 0.7048(2) 0.96640(15)
C2_4 C 0.0200(3) 0.7207(2) 0.96674(15)
C11_4 C 0.5451(3) 0.6091(2) 0.7872(2)
C12_4 C 0.5197(3) 0.5482(2) 0.79872(15)
C13_4 C 0.4200(3) 0.5503(2) 0.8162(2)
C14_4 C 0.3545(3) 0.4960(2) 0.8309(2)
H21_4 H 0.2903(3) 0.5111(2) 0.8413(2)
H22_4 H 0.3814(3) 0.4731(2) 0.8644(2)
H23_4 H 0.3498(3) 0.4690(2) 0.7962(2)
C15_4 C 0.6400(3) 0.6383(2) 0.7688(3)
H24_4 H 0.6313(3) 0.6827(2) 0.7646(3)
H25_4 H 0.6610(3) 0.6210(2) 0.7309(3)
H26_4 H 0.6887(3) 0.6302(2) 0.7993(3)
C16_4 C 0.6382(3) 0.4716(2) 0.7473(2)
C17_4 C 0.5831(3) 0.4928(2) 0.7966(2)
C18_4 C 0.6048(3) 0.4509(2) 0.8441(2)
C19_4 C 0.5651(4) 0.4523(2) 0.9072(2)
H27_4 H 0.5923(4) 0.4182(2) 0.9300(2)
H28_4 H 0.4949(4) 0.4484(2) 0.9061(2)
H29_4 H 0.5825(4) 0.4912(2) 0.9262(2)
C20_4 C 0.6484(4) 0.4954(2) 0.6849(2)
H30_4 H 0.6928(4) 0.4691(2) 0.6627(2)
H31_4 H 0.6735(4) 0.5373(2) 0.6859(2)
H32_4 H 0.5854(4) 0.4952(2) 0.6654(2)
C21_4 C 0.3822(3) 0.7850(2) 0.5392(2)
C22_4 C 0.4845(3) 0.7719(2) 0.5398(2)
C23_4 C 0.5105(3) 0.7734(2) 0.6001(2)
C24_4 C 0.6068(4) 0.7625(4) 0.6297(2)
H33_4 H 0.6000(4) 0.7671(4) 0.6727(2)
H34_4 H 0.6537(4) 0.7923(4) 0.6148(2)
H35_4 H 0.6291(4) 0.7209(4) 0.6206(2)
C25_3 C 0.3181(3) 0.7870(3) 0.4851(2)
H36_3 H 0.2522(3) 0.7969(3) 0.4972(2)
H37_3 H 0.3188(3) 0.7469(3) 0.4654(2)
H38_3 H 0.3416(3) 0.8184(3) 0.4575(2)
C26_4 C 0.6127(3) 0.8059(2) 0.4630(2)
C27_4 C 0.5491(3) 0.7624(2) 0.4871(2)
C28_4 C 0.5599(3) 0.7081(2) 0.4516(2)
C29_4 C 0.5040(4) 0.6491(3) 0.4578(2)
H39_4 H 0.5260(4) 0.6197(3) 0.4279(2)
H40_3 H 0.4353(4) 0.6573(3) 0.4520(2)
H41_4 H 0.5142(4) 0.6320(3) 0.4975(2)
C30_4 C 0.6329(5) 0.8720(2) 0.4794(3)
H42_4 H 0.6823(5) 0.8887(2) 0.4529(3)
H43_4 H 0.6558(5) 0.8740(2) 0.5205(3)
H44_4 H 0.5738(5) 0.8961(2) 0.4755(3)
C31_4 C 0.0367(3) 0.3944(2) 0.7877(2)
C32_4 C 0.0139(3) 0.4555(2) 0.8044(2)
C35_4 C 0.1274(4) 0.3667(3) 0.7614(3)
H48_4 H 0.1180(4) 0.3227(3) 0.7553(3)
H49_4 H 0.1813(4) 0.3733(3) 0.7886(3)
H50_4 H 0.1414(4) 0.3864(3) 0.7232(3)
C36_4 C 0.1192(3) 0.5344(2) 0.7479(2)
C37_4 C 0.0780(3) 0.5102(2) 0.7996(2)
C38_4 C 0.1122(3) 0.5484(2) 0.84715(15)
C39_4 C 0.0891(3) 0.5421(2) 0.9130(2)
H51_4 H 0.1223(3) 0.5744(2) 0.9352(2)
H52_4 H 0.1106(3) 0.5019(2) 0.9272(2)
H53_4 H 0.0196(3) 0.5460(2) 0.9189(2)
C40_4 C 0.1076(4) 0.5175(3) 0.6823(2)
H54_4 H 0.1479(4) 0.5445(3) 0.6580(2)
H55_4 H 0.0401(4) 0.5223(3) 0.6706(2)
H56_4 H 0.1273(4) 0.4748(3) 0.6762(2)
C41_4 C 0.2269(5) 0.9282(2) 0.5136(2)
C42_4 C 0.3284(3) 0.5752(2) 0.9821(2)
N4_4 N 0.8344(2) 0.72224(14) 0.08417(13)
H2_4 H 0.7856(2) 0.70691(14) 0.10392(13)
C6_4 C 0.8799(3) 0.6924(2) 0.0388(2)
C7_4 C 0.9543(2) 0.7314(2) 0.01890(15)
C8_4 C 0.9480(2) 0.7848(2) 0.0557(2)
H15_4 H 0.9934(3) 0.8702(2) 0.0847(2)
C10_4 C 0.8470(4) 0.6296(2) 0.0169(2)
H18_4 H 0.7928(4) 0.6154(2) 0.0411(2)
H19_4 H 0.9002(4) 0.6003(2) 0.0202(2)
N13_4 N 0.9569(2) 0.35945(15) 0.80123(14)
H7_4 H 0.9531(2) 0.31984(15) 0.79486(14)
C3_4 C 0.9924(3) 0.7236(2) 0.9063(2)
C4_4 C 0.8979(3) 0.7394(3) 0.8773(2)
H9_4 H 0.9046(3) 0.7367(3) 0.8340(2)
H10_4 H 0.8791(3) 0.7811(3) 0.8883(2)
H11_4 H 0.8484(3) 0.7105(3) 0.8905(2)
H20_4 H 0.8268(4) 0.6327(2) 0.9753(2)
C33_4 C 0.9173(3) 0.4524(2) 0.8273(2)
C34_4 C 0.8575(3) 0.5056(2) 0.8506(2)
H45_4 H 0.7944(3) 0.4904(2) 0.8634(2)
H46_4 H 0.8490(3) 0.5361(2) 0.8191(2)
H47_4 H 0.8904(3) 0.5245(2) 0.8844(2)
S3_4 S 0.2620(3) 0.03248(13) 0.95019(10)
C25_4 C 0.1819(3) 0.2130(3) 0.9851(2)
H36_4 H 0.2478(3) 0.2031(3) 0.9972(2)
H37_4 H 0.1812(3) 0.2531(3) 0.9654(2)
H38_4 H 0.1584(3) 0.1816(3) 0.9575(2)
H40_4 H 0.0647(4) 0.3427(3) 0.9520(2)
S2_4 S 0.36615(12) 0.54548(8) 0.04581(6)
C5_4 C 0.1854(3) 0.6972(2) 0.0204(2)
H12_4 H 0.2503(3) 0.6862(2) 0.0073(2)
H13_4 H 0.1599(3) 0.6647(2) 0.0460(2)
H14_4 H 0.1877(3) 0.7358(2) 0.0426(2)
C9_4 C 0.0147(3) 0.8405(2) 0.0548(2)
H16_4 H 0.0128(3) 0.8596(2) 0.0155(2)
H17_4 H 0.0805(3) 0.8275(2) 0.0637(2)
loop_
_geom_bond_atom_site_label_1
_geom_bond_atom_site_label_2
_geom_bond_site_symmetry_1
_geom_bond_site_symmetry_2
N7 N8 1_555 1_555
N8 H4 1_555 1_555
C16 N8 1_555 1_555
C18 N7 1_555 1_555
C19 C18 1_555 1_555
H27 C19 1_555 1_555
H29 C19 1_555 1_555
C20 C16 1_555 1_555
H30 C20 1_555 1_555
H32 C20 1_555 1_555
Ni4 N7 1_555 1_555
C16 C17 1_555 1_555
C17 C18 1_555 1_555
N11 H6 1_555 1_555
N12 N11 1_555 1_555
C12 C11 1_555 1_555
C15 C11 1_555 1_555
H24 C15 1_555 1_555
H25 C15 1_555 1_555
H26 C15 1_555 1_555
C24 C23 1_555 1_555
H33 C24 1_555 1_555
H34 C24 1_555 1_555
H35 C24 1_555 1_555
C26 N11 1_555 1_555
C28 N12 1_555 1_555
C29 C28 1_555 1_555
H39 C29 1_555 1_555
H41 C29 1_555 1_555
C30 C26 1_555 1_555
H42 C30 1_555 1_555
H43 C30 1_555 1_555
H44 C30 1_555 1_555
Ni5 N12 1_555 1_555
C26 C27 1_555 1_555
C27 C28 1_555 1_555
N13 H7 1_555 1_555
N14 N13 1_555 1_555
H22 C14 1_555 1_555
H23 C14 1_555 1_555
C31 N13 1_555 1_555
C32 C31 1_555 1_555
C33 N14 1_555 1_555
C35 C31 1_555 1_555
H48 C35 1_555 1_555
H49 C35 1_555 1_555
H50 C35 1_555 1_555
Ni4 N14 1_555 1_555
C32 C33 1_555 1_555
Ni1 O2 1_555 1_555
Ni2 O1 1_555 1_555
S1 O1 1_555 1_555
S3 C41 1_555 1_555
O2 S1 1_555 1_555
O3 S1 1_555 1_555
O4 S1 1_555 1_555
N1 Ni1 1_555 1_555
N2 N1 1_555 1_555
H1 N2 1_555 1_555
N5 Ni1 1_555 1_555
N6 N5 1_555 1_555
H3 N6 1_555 1_555
N9 Ni2 1_555 1_555
N10 N9 1_555 1_555
H5 N10 1_555 1_555
N15 Ni1 1_555 1_555
N16 N15 1_555 1_555
H8 N16 1_555 1_555
N17 Ni1 1_555 1_555
N18 Ni2 1_555 1_555
C1 N1 1_555 1_555
C2 C1 1_555 1_555
C3 N2 1_555 1_555
C4 C3 1_555 1_555
H9 C4 1_555 1_555
H10 C4 1_555 1_555
H11 C4 1_555 1_555
C13 N5 1_555 1_555
C21 N9 1_555 1_555
C22 C21 1_555 1_555
C25 C21 1_555 1_555
H36 C25 1_555 1_555
H37 C25 1_555 1_555
H38 C25 1_555 1_555
H46 C34 1_555 1_555
H47 C34 1_555 1_555
C36 N16 1_555 1_555
C38 N15 1_555 1_555
C39 C38 1_555 1_555
H51 C39 1_555 1_555
H52 C39 1_555 1_555
H53 C39 1_555 1_555
C40 C36 1_555 1_555
H54 C40 1_555 1_555
H55 C40 1_555 1_555
C41 N18 1_555 1_555
C42 N17 1_555 1_555
N19 Ni1 1_555 1_555
N20 Ni2 1_555 1_555
N21 Ni2 1_555 1_555
N22 Ni2 1_555 1_555
C2 C3 1_555 1_555
C36 C37 1_555 1_555
C37 C38 1_555 1_555
N3 N4 1_555 1_555
N4 H2 1_555 1_555
H12 C5 1_555 1_555
H13 C5 1_555 1_555
H14 C5 1_555 1_555
C6 N4 1_555 1_555
C8 N3 1_555 1_555
C9 C8 1_555 1_555
H15 C9 1_555 1_555
H16 C9 1_555 1_555
H17 C9 1_555 1_555
C10 C6 1_555 1_555
H18 C10 1_555 1_555
H19 C10 1_555 1_555
Ni3 N3 1_555 1_555
C6 C7 1_555 1_555
C7 C8 1_555 1_555
N3_2 N4_2 1_555 1_555
N4_2 H2_2 1_555 1_555
C4_2 C3_2 1_555 1_555
H9_2 C4_2 1_555 1_555
H10_2 C4_2 1_555 1_555
H11_2 C4_2 1_555 1_555
C6_2 N4_2 1_555 1_555
C8_2 N3_2 1_555 1_555
C10_2 C6_2 1_555 1_555
H18_2 C10_2 1_555 1_555
H19_2 C10_2 1_555 1_555
H20_2 C10_2 1_555 1_555
H46_2 C34_2 1_555 1_555
H47_2 C34_2 1_555 1_555
Ni3_2 N3_2 1_555 1_555
C6_2 C7_2 1_555 1_555
C7_2 C8_2 1_555 1_555
N13_2 H7_2 1_555 1_555
N14_2 N13_2 1_555 1_555
C33_2 N14_2 1_555 1_555
Ni5 N14_2 1_555 1_555
N11_2 H6_2 1_555 1_555
N12_2 N11_2 1_555 1_555
H36_2 C25_2 1_555 1_555
H37_2 C25_2 1_555 1_555
H38_2 C25_2 1_555 1_555
C26_2 N11_2 1_555 1_555
C28_2 N12_2 1_555 1_555
C29_2 C28_2 1_555 1_555
H39_2 C29_2 1_555 1_555
H40_2 C29_2 1_555 1_555
H41_2 C29_2 1_555 1_555
C30_2 C26_2 1_555 1_555
H42_2 C30_2 1_555 1_555
H44_2 C30_2 1_555 1_555
Ni4 N12_2 1_555 1_555
C26_2 C27_2 1_555 1_555
C27_2 C28_2 1_555 1_555
Ni1_2 O2_2 1_555 1_555
Ni2_2 O1_2 1_555 1_555
S1_2 O1_2 1_555 1_555
S2_2 C42_2 1_555 1_555
O2_2 S1_2 1_555 1_555
O3_2 S1_2 1_555 1_555
O4_2 S1_2 1_555 1_555
N1_2 Ni1_2 1_555 1_555
N2_2 N1_2 1_555 1_555
H1_2 N2_2 1_555 1_555
N5_2 Ni1_2 1_555 1_555
N6_2 N5_2 1_555 1_555
H3_2 N6_2 1_555 1_555
N9_2 Ni2_2 1_555 1_555
N10_2 N9_2 1_555 1_555
H5_2 N10_2 1_555 1_555
N15_2 Ni1_2 1_555 1_555
N16_2 N15_2 1_555 1_555
H8_2 N16_2 1_555 1_555
N17_2 Ni1_2 1_555 1_555
N18_2 Ni2_2 1_555 1_555
C1_2 N1_2 1_555 1_555
C2_2 C1_2 1_555 1_555
C5_2 C1_2 1_555 1_555
H12_2 C5_2 1_555 1_555
H13_2 C5_2 1_555 1_555
H14_2 C5_2 1_555 1_555
H16_2 C9_2 1_555 1_555
H17_2 C9_2 1_555 1_555
C11_2 N6_2 1_555 1_555
C12_2 C11_2 1_555 1_555
C13_2 N5_2 1_555 1_555
C15_2 C11_2 1_555 1_555
H24_2 C15_2 1_555 1_555
H25_2 C15_2 1_555 1_555
H26_2 C15_2 1_555 1_555
C21_2 N9_2 1_555 1_555
C22_2 C21_2 1_555 1_555
C23_2 N10_2 1_555 1_555
C24_2 C23_2 1_555 1_555
H33_2 C24_2 1_555 1_555
H34_2 C24_2 1_555 1_555
H35_2 C24_2 1_555 1_555
C36_2 N16_2 1_555 1_555
C38_2 N15_2 1_555 1_555
C39_2 C38_2 1_555 1_555
H51_2 C39_2 1_555 1_555
H52_2 C39_2 1_555 1_555
H53_2 C39_2 1_555 1_555
C40_2 C36_2 1_555 1_555
H54_2 C40_2 1_555 1_555
H55_2 C40_2 1_555 1_555
C41_2 N18_2 1_555 1_555
C42_2 N17_2 1_555 1_555
N19_2 Ni1_2 1_555 1_555
N20_2 Ni2_2 1_555 1_555
N21_2 Ni2_2 1_555 1_555
N22_2 Ni2_2 1_555 1_555
C12_2 C13_2 1_555 1_555
C22_2 C23_2 1_555 1_555
C36_2 C37_2 1_555 1_555
C37_2 C38_2 1_555 1_555
N7_2 N8_2 1_555 1_555
N8_2 H4_2 1_555 1_555
H22_2 C14_2 1_555 1_555
H23_2 C14_2 1_555 1_555
C16_2 N8_2 1_555 1_555
C18_2 N7_2 1_555 1_555
C19_2 C18_2 1_555 1_555
H27_2 C19_2 1_555 1_555
H28_2 C19_2 1_555 1_555
H29_2 C19_2 1_555 1_555
C20_2 C16_2 1_555 1_555
H30_2 C20_2 1_555 1_555
H32_2 C20_2 1_555 1_555
C32_2 C31_2 1_555 1_555
C35_2 C31_2 1_555 1_555
H48_2 C35_2 1_555 1_555
H49_2 C35_2 1_555 1_555
H50_2 C35_2 1_555 1_555
Ni5 N7_2 1_555 1_555
C16_2 C17_2 1_555 1_555
C17_2 C18_2 1_555 1_555
Ni3_2 O2_3 1_555 1_555
Ni4 O1_3 1_555 1_555
S1_3 O1_3 1_555 1_555
S2_3 C42_3 1_555 1_555
O2_3 S1_3 1_555 1_555
O3_3 S1_3 1_555 1_555
O4_3 S1_3 1_555 1_555
N1_3 Ni3_2 1_555 1_555
N2_3 N1_3 1_555 1_555
H1_3 N2_3 1_555 1_555
N19_2 N4_3 1_555 1_555
N4_3 H2_3 1_555 1_555
N5_3 Ni3_2 1_555 1_555
N6_3 N5_3 1_555 1_555
H3_3 N6_3 1_555 1_555
N9_3 Ni4 1_555 1_555
N10_3 N9_3 1_555 1_555
H5_3 N10_3 1_555 1_555
N13_3 H7_3 1_555 1_555
N22 N13_3 1_555 1_555
N15_3 Ni3_2 1_555 1_555
N16_3 N15_3 1_555 1_555
H8_3 N16_3 1_555 1_555
N17_3 Ni3_2 1_555 1_555
N18_3 Ni4 1_555 1_555
C1_3 N1_3 1_555 1_555
C2_3 C1_3 1_555 1_555
C3_3 N2_3 1_555 1_555
C4_3 C3_3 1_555 1_555
H9_3 C4_3 1_555 1_555
H10_3 C4_3 1_555 1_555
H11_3 C4_3 1_555 1_555
C5_3 C1_3 1_555 1_555
H12_3 C5_3 1_555 1_555
H13_3 C5_3 1_555 1_555
H14_3 C5_3 1_555 1_555
C6_3 N4_3 1_555 1_555
C7_3 C2_3 1_555 1_555
C8_3 N19_2 1_555 1_555
C9_3 C8_3 1_555 1_555
H15_3 C9_3 1_555 1_555
H16_3 C9_3 1_555 1_555
H17_3 C9_3 1_555 1_555
C10_3 C6_3 1_555 1_555
H18_3 C10_3 1_555 1_555
H19_3 C10_3 1_555 1_555
H20_3 C10_3 1_555 1_555
C13_3 N5_3 1_555 1_555
C14_3 C13_3 1_555 1_555
H21_3 C14_3 1_555 1_555
H22_3 C14_3 1_555 1_555
H23_3 C14_3 1_555 1_555
C21_3 N9_3 1_555 1_555
C22_3 C21_3 1_555 1_555
C31_3 N13_3 1_555 1_555
C32_3 C31_3 1_555 1_555
C33_3 N22 1_555 1_555
C34_3 C33_3 1_555 1_555
H45_3 C34_3 1_555 1_555
H46_3 C34_3 1_555 1_555
H47_3 C34_3 1_555 1_555
C35_3 C31_3 1_555 1_555
H48_3 C35_3 1_555 1_555
H49_3 C35_3 1_555 1_555
H50_3 C35_3 1_555 1_555
C36_3 N16_3 1_555 1_555
C37_3 C32_3 1_555 1_555
C38_3 N15_3 1_555 1_555
C39_3 C38_3 1_555 1_555
H51_3 C39_3 1_555 1_555
H52_3 C39_3 1_555 1_555
H53_3 C39_3 1_555 1_555
C40_3 C36_3 1_555 1_555
H54_3 C40_3 1_555 1_555
H55_3 C40_3 1_555 1_555
H56_3 C40_3 1_555 1_555
C41_3 N18_3 1_555 1_555
C42_3 N17_3 1_555 1_555
C2_3 C3_3 1_555 1_555
C6_3 C7_3 1_555 1_555
C7_3 C8_3 1_555 1_555
C32_3 C33_3 1_555 1_555
C36_3 C37_3 1_555 1_555
C37_3 C38_3 1_555 1_555
N20 N8_3 1_555 1_555
N8_3 H4_3 1_555 1_555
C12_3 C11_3 1_555 1_555
C15_3 C11_3 1_555 1_555
H24_3 C15_3 1_555 1_555
H25_3 C15_3 1_555 1_555
H26_3 C15_3 1_555 1_555
C16_3 N8_3 1_555 1_555
C17_3 C12_3 1_555 1_555
C18_3 N20 1_555 1_555
C19_3 C18_3 1_555 1_555
H27_3 C19_3 1_555 1_555
H29_3 C19_3 1_555 1_555
C20_3 C16_3 1_555 1_555
H30_3 C20_3 1_555 1_555
H31_3 C20_3 1_555 1_555
H32_3 C20_3 1_555 1_555
C24_3 C23_3 1_555 1_555
H33_3 C24_3 1_555 1_555
H34_3 C24_3 1_555 1_555
H35_3 C24_3 1_555 1_555
C16_3 C17_3 1_555 1_555
C17_3 C18_3 1_555 1_555
N11_3 H6_3 1_555 1_555
N21_2 N11_3 1_555 1_555
C26_3 N11_3 1_555 1_555
C28_3 N21_2 1_555 1_555
C29_3 C28_3 1_555 1_555
H39_3 C29_3 1_555 1_555
H41_3 C29_3 1_555 1_555
C30_3 C26_3 1_555 1_555
H42_3 C30_3 1_555 1_555
H44_3 C30_3 1_555 1_555
C26_3 C27_3 1_555 1_555
C27_3 C28_3 1_555 1_555
Ni3 O2_4 1_555 1_555
Ni5 O1_4 1_555 1_555
S1_4 O1_4 1_555 1_555
S3_3 C41_4 1_555 1_555
O2_4 S1_4 1_555 1_555
O3_4 S1_4 1_555 1_555
O4_4 S1_4 1_555 1_555
N1_4 Ni3 1_555 1_555
N2_4 N1_4 1_555 1_555
H1_4 N2_4 1_555 1_555
N5_4 Ni3 1_555 1_555
N6_4 N5_4 1_555 1_555
H3_4 N6_4 1_555 1_555
N20_2 N8_4 1_555 1_555
N8_4 H4_4 1_555 1_555
N9_4 Ni5 1_555 1_555
N10_4 N9_4 1_555 1_555
H5_4 N10_4 1_555 1_555
N11_4 H6_4 1_555 1_555
N21 N11_4 1_555 1_555
N15_4 Ni3 1_555 1_555
N16_4 N15_4 1_555 1_555
H8_4 N16_4 1_555 1_555
N17_4 Ni3 1_555 1_555
N18_4 Ni5 1_555 1_555
C1_4 N1_4 1_555 1_555
C2_4 C1_4 1_555 1_555
C11_4 N6_4 1_555 1_555
C12_4 C11_4 1_555 1_555
C13_4 N5_4 1_555 1_555
C14_4 C13_4 1_555 1_555
H21_4 C14_4 1_555 1_555
H22_4 C14_4 1_555 1_555
H23_4 C14_4 1_555 1_555
C15_4 C11_4 1_555 1_555
H24_4 C15_4 1_555 1_555
H25_4 C15_4 1_555 1_555
H26_4 C15_4 1_555 1_555
C16_4 N8_4 1_555 1_555
C17_4 C12_4 1_555 1_555
C18_4 N20_2 1_555 1_555
C19_4 C18_4 1_555 1_555
H27_4 C19_4 1_555 1_555
H28_4 C19_4 1_555 1_555
H29_4 C19_4 1_555 1_555
C20_4 C16_4 1_555 1_555
H30_4 C20_4 1_555 1_555
H31_4 C20_4 1_555 1_555
H32_4 C20_4 1_555 1_555
C21_4 N9_4 1_555 1_555
C22_4 C21_4 1_555 1_555
C23_4 N10_4 1_555 1_555
C24_4 C23_4 1_555 1_555
H33_4 C24_4 1_555 1_555
H34_4 C24_4 1_555 1_555
H35_4 C24_4 1_555 1_555
C25_3 C21_4 1_555 1_555
H36_3 C25_3 1_555 1_555
H37_3 C25_3 1_555 1_555
H38_3 C25_3 1_555 1_555
C26_4 N11_4 1_555 1_555
C27_4 C22_4 1_555 1_555
C28_4 N21 1_555 1_555
C29_4 C28_4 1_555 1_555
H39_4 C29_4 1_555 1_555
H40_3 C29_4 1_555 1_555
H41_4 C29_4 1_555 1_555
C30_4 C26_4 1_555 1_555
H42_4 C30_4 1_555 1_555
H43_4 C30_4 1_555 1_555
H44_4 C30_4 1_555 1_555
C32_4 C31_4 1_555 1_555
C35_4 C31_4 1_555 1_555
H48_4 C35_4 1_555 1_555
H49_4 C35_4 1_555 1_555
H50_4 C35_4 1_555 1_555
C36_4 N16_4 1_555 1_555
C37_4 C32_4 1_555 1_555
C38_4 N15_4 1_555 1_555
C39_4 C38_4 1_555 1_555
H51_4 C39_4 1_555 1_555
H52_4 C39_4 1_555 1_555
H53_4 C39_4 1_555 1_555
C40_4 C36_4 1_555 1_555
H54_4 C40_4 1_555 1_555
H55_4 C40_4 1_555 1_555
H56_4 C40_4 1_555 1_555
C41_4 N18_4 1_555 1_555
C42_4 N17_4 1_555 1_555
C12_4 C13_4 1_555 1_555
C16_4 C17_4 1_555 1_555
C17_4 C18_4 1_555 1_555
C22_4 C23_4 1_555 1_555
C26_4 C27_4 1_555 1_555
C27_4 C28_4 1_555 1_555
C36_4 C37_4 1_555 1_555
C37_4 C38_4 1_555 1_555
N19 N4_4 1_555 1_555
N4_4 H2_4 1_555 1_555
C6_4 N4_4 1_555 1_555
C8_4 N19 1_555 1_555
C10_4 C6_4 1_555 1_555
H18_4 C10_4 1_555 1_555
H19_4 C10_4 1_555 1_555
C6_4 C7_4 1_555 1_555
C7_4 C8_4 1_555 1_555
N13_4 H7_4 1_555 1_555
N22_2 N13_4 1_555 1_555
C4_4 C3_4 1_555 1_555
H9_4 C4_4 1_555 1_555
H10_4 C4_4 1_555 1_555
H11_4 C4_4 1_555 1_555
C33_4 N22_2 1_555 1_555
C34_4 C33_4 1_555 1_555
H45_4 C34_4 1_555 1_555
H46_4 C34_4 1_555 1_555
H47_4 C34_4 1_555 1_555
H36_4 C25_4 1_555 1_555
H37_4 C25_4 1_555 1_555
H38_4 C25_4 1_555 1_555
H12_4 C5_4 1_555 1_555
H13_4 C5_4 1_555 1_555
H14_4 C5_4 1_555 1_555
H16_4 C9_4 1_555 1_555
H17_4 C9_4 1_555 1_555

#END
