
###############################################################################
#
# This file contains modified crystal structure data generated from the
# MOF subset of the Cambridge Structural Database (CSD) v543 
# hosted by the Cambridge Crystallographic Data Centre (CCDC).
#
# This work is licensed under the Creative Commons
# Attribution-NonCommercial-ShareAlike 4.0 International License.
# To view a copy of this license, visit
# http://creativecommons.org/licenses/by-nc-sa/4.0/
# or send a letter to
# Creative Commons, PO Box 1866, Mountain View, CA 94042, USA.
#
# CIF created using the CSD Python API on 29 September 2022
# The structure has been converted into the P1 space group
# The structure has a 3D framework
# The original CSD entry MIGXUV is in the tetragonal crystal system
# The framework has been calculated to contain at least 10.0% void space
# The void calculation uses a probe of radius 1.32A, grid spacing 0.4
#
###############################################################################

data_MIGXUV
_chemical_formula_moiety         '(C96 H48 O46 Si2 Zn10)n'
_symmetry_cell_setting           triclinic
_symmetry_space_group_name_H-M   'P 1'
_symmetry_Int_Tables_number      1
_space_group_name_Hall           'P 1'
loop_
_symmetry_equiv_pos_site_id
_symmetry_equiv_pos_as_xyz
1 x,y,z
_cell_length_a                   13.7409(19)
_cell_length_b                   13.7409(19)
_cell_length_c                   14.976(3)
_cell_angle_alpha                90
_cell_angle_beta                 90
_cell_angle_gamma                90
_cell_volume                     2827.65
loop_
_atom_site_label
_atom_site_type_symbol
_atom_site_fract_x
_atom_site_fract_y
_atom_site_fract_z
Zn1 Zn 0.11914(5) 0.11553(5) 0.37818(5)
Zn2 Zn 0.04150(5) 0.31659(5) 0.32479(4)
O1 O 0.0729(4) 0.1576(3) 0.4934(3)
Si1 Si 0.2500 0.2500 0.2500
O2 O 0.0082(3) 0.2988(3) 0.4507(3)
O5 O 0.2013(4) 0.0038(3) 0.3823(3)
O7 O 0.1533(3) 0.2312(3) 0.3098(3)
C1 C 0.0315(5) 0.2372(5) 0.5087(4)
C3 C 0.0109(5) 0.2618(5) 0.6030(4)
C4 C 0.0201(6) 0.1913(5) 0.6692(4)
H2 H 0.0379 0.1282 0.6540
C5 C 0.0027(6) 0.2152(5) 0.7579(5)
H3 H 0.0075 0.1677 0.8019
O8 O 0.2312(3) 0.3467(3) 0.1902(3)
O9 O 0.2688(3) 0.1533(3) 0.1902(3)
O10 O 0.3467(3) 0.2688(3) 0.3098(3)
O15 O 0.0433(3) 0.0578(3) 0.1788(3)
Zn8 Zn 0.18341(5) 0.04150(5) 0.17521(4)
O19 O 0.0578(3) 0.4567(3) 0.3212(3)
O20 O 0.0680(3) 0.5006(3) 0.1772(3)
C26 C 0.0144(4) 0.6439(4) 0.3732(4)
H13 H 0.0211 0.5964 0.4170
C30 C 0.0216(5) 0.6911(5) 0.2195(4)
H16 H 0.0325 0.6751 0.1600
C31 C 0.0298(5) 0.6206(4) 0.2845(4)
C32 C 0.0551(4) 0.5179(5) 0.2582(4)
O21 O 0.0038(3) 0.2987(4) 0.1177(3)
Zn9 Zn 0.11553(5) 0.38086(5) 0.12182(5)
Zn10 Zn 0.31659(5) 0.45850(5) 0.17521(4)
Zn11 Zn 0.38447(5) 0.11914(5) 0.12182(5)
Zn12 Zn 0.38086(5) 0.38447(5) 0.37818(5)
Zn13 Zn 0.45850(5) 0.18341(5) 0.32479(4)
O39 O 0.0712(3) 0.7127(3) 0.7515(3)
O41 O 0.2012(3) 0.0082(3) 0.0493(3)
O6 O 0.2127(3) 0.9288(3) 0.2515(3)
C9 C 0.2141(5) 0.9290(5) 0.3348(5)
C10 C 0.2500 0.7500 0.3354(6)
H5 H 0.2500 0.7500 0.2733
C11 C 0.2333(5) 0.8364(5) 0.3827(4)
C12 C 0.2332(6) 0.8350(6) 0.4752(5)
H6 H 0.2216 0.8920 0.5070
C13 C 0.2500 0.7500 0.5195(7)
H7 H 0.2500 0.7500 0.5816
C14 C 0.2667(5) 0.6636(5) 0.3827(4)
C15 C 0.2859(5) 0.5710(5) 0.3348(5)
O11 O 0.2987(4) 0.4962(3) 0.3823(3)
O12 O 0.2873(3) 0.5712(3) 0.2515(3)
C16 C 0.2668(6) 0.6650(6) 0.4752(5)
H8 H 0.2784 0.6080 0.5070
O25 O 0.4271(4) 0.3424(3) 0.4934(3)
O26 O 0.4918(3) 0.2012(3) 0.4507(3)
O28 O 0.5680(3) 0.0006(3) 0.8228(3)
C41 C 0.4685(5) 0.2628(5) 0.5087(4)
C42 C 0.5144(4) 0.1439(4) 0.6268(4)
H21 H 0.5211 0.0964 0.5830
C43 C 0.4891(5) 0.2382(5) 0.6030(4)
C44 C 0.4799(6) 0.3087(5) 0.6692(4)
H22 H 0.4621 0.3718 0.6540
C45 C 0.4973(6) 0.2848(5) 0.7579(5)
H23 H 0.4925 0.3323 0.8019
C46 C 0.5216(5) 0.1911(5) 0.7805(4)
H24 H 0.5325 0.1751 0.8400
C47 C 0.5298(5) 0.1206(4) 0.7155(4)
C48 C 0.5551(4) 0.0179(5) 0.7418(4)
O35 O 0.5006(3) 0.4320(3) 0.3228(3)
O27 O 0.5578(3) 0.9567(3) 0.6788(3)
Zn19 Zn 0.54150(5) 0.81659(5) 0.67521(4)
Zn20 Zn 0.61553(5) 0.88086(5) 0.87818(5)
O3 O 0.9422(3) 0.5433(3) 0.6788(3)
O4 O 0.9320(3) 0.4994(3) 0.8228(3)
C2 C 0.9856(4) 0.3561(4) 0.6268(4)
H1 H 0.9789 0.4036 0.5830
C6 C 0.9784(5) 0.3089(5) 0.7805(4)
H4 H 0.9675 0.3249 0.8400
C7 C 0.9702(5) 0.3794(4) 0.7155(4)
C8 C 0.9449(4) 0.4821(5) 0.7418(4)
O16 O 0.9994(3) 0.0680(3) 0.3228(3)
C18 C 0.8561(4) 0.0144(4) 0.1268(4)
H9 H 0.9036 0.0211 0.0830
C22 C 0.8089(5) 0.0216(5) 0.2805(4)
H12 H 0.8249 0.0325 0.3400
C23 C 0.8794(4) 0.0298(5) 0.2155(4)
C24 C 0.9821(5) 0.0551(4) 0.2418(4)
Zn4 Zn 0.88447(5) 0.61914(5) 0.87818(5)
Zn7 Zn 0.95850(5) 0.68341(5) 0.67521(4)
O17 O 0.9271(4) 0.8424(3) 0.5066(3)
O18 O 0.9918(3) 0.7012(3) 0.5493(3)
C25 C 0.9685(5) 0.7628(5) 0.4913(4)
C27 C 0.9891(5) 0.7382(5) 0.3970(4)
C28 C 0.9799(6) 0.8087(5) 0.3308(4)
H14 H 0.9621 0.8718 0.3460
C29 C 0.9973(6) 0.7848(5) 0.2421(5)
H15 H 0.9925 0.8323 0.1981
O22 O 0.9288(3) 0.2873(3) 0.2485(3)
C33 C 0.9290(5) 0.2859(5) 0.1652(5)
C34 C 0.7500 0.2500 0.1646(6)
H17 H 0.7500 0.2500 0.2267
C35 C 0.8364(5) 0.2667(5) 0.1173(4)
C36 C 0.8350(6) 0.2668(6) 0.0248(5)
C38 C 0.6636(5) 0.2333(5) 0.1173(4)
C39 C 0.5710(5) 0.2141(5) 0.1652(5)
O23 O 0.4962(3) 0.2013(4) 0.1177(3)
O24 O 0.5712(3) 0.2127(3) 0.2485(3)
C40 C 0.6650(6) 0.2332(6) 0.0248(5)
O32 O 0.8424(3) 0.5729(4) 0.9934(3)
O33 O 0.9962(3) 0.7013(4) 0.8823(3)
O34 O 0.7688(3) 0.6533(3) 0.8098(3)
O40 O 0.8467(3) 0.7688(3) 0.6902(3)
Zn15 Zn 0.88086(5) 0.88447(5) 0.62182(5)
H18 H 0.8920 0.2784 0.9930
C37 C 0.7500 0.2500 0.9805(7)
H19 H 0.7500 0.2500 0.9184
H20 H 0.6080 0.2216 0.9930
O38 O 0.7873(3) 0.0712(3) 0.7485(3)
C17 C 0.7372(5) 0.9685(5) 0.0087(4)
C19 C 0.7618(5) 0.9891(5) 0.1030(4)
C20 C 0.6913(5) 0.9799(6) 0.1692(4)
H10 H 0.6282 0.9621 0.1540
C21 C 0.7152(5) 0.9973(6) 0.2579(5)
H11 H 0.6677 0.9925 0.3019
O13 O 0.6576(3) 0.9271(4) 0.9934(3)
O14 O 0.7988(3) 0.9918(3) 0.9507(3)
Zn6 Zn 0.81659(5) 0.95850(5) 0.82479(4)
O30 O 0.5038(3) 0.7987(4) 0.8823(3)
O31 O 0.7312(3) 0.8467(3) 0.8098(3)
O37 O 0.9567(3) 0.9422(3) 0.8212(3)
H6_2 H 0.1080 0.7216 0.0070
C13_2 C 0.2500 0.7500 0.0195(7)
H7_2 H 0.2500 0.7500 0.0816
H8_2 H 0.3920 0.7784 0.0070
C9_2 C 0.0710(5) 0.7141(5) 0.8348(5)
C10_2 C 0.2500 0.7500 0.8354(6)
H5_2 H 0.2500 0.7500 0.7733
C11_2 C 0.1636(5) 0.7333(5) 0.8827(4)
C12_2 C 0.1650(6) 0.7332(6) 0.9752(5)
C14_2 C 0.3364(5) 0.7667(5) 0.8827(4)
C15_2 C 0.4290(5) 0.7859(5) 0.8348(5)
O12_2 O 0.4288(3) 0.7873(3) 0.7515(3)
C16_2 C 0.3350(6) 0.7668(6) 0.9752(5)
O3_2 O 0.4567(3) 0.4422(3) 0.1788(3)
C1_2 C 0.7628(5) 0.5315(5) 0.0087(4)
C2_2 C 0.6439(4) 0.4856(4) 0.1268(4)
H1_2 H 0.5964 0.4789 0.0830
C3_2 C 0.7382(5) 0.5109(5) 0.1030(4)
C4_2 C 0.8087(5) 0.5201(6) 0.1692(4)
H2_2 H 0.8718 0.5379 0.1540
C5_2 C 0.7848(5) 0.5027(6) 0.2579(5)
H3_2 H 0.8323 0.5075 0.3019
C6_2 C 0.6911(5) 0.4784(5) 0.2805(4)
H4_2 H 0.6751 0.4675 0.3400
C7_2 C 0.6206(4) 0.4702(5) 0.2155(4)
C8_2 C 0.5179(5) 0.4449(4) 0.2418(4)
O17_2 O 0.1576(3) 0.4271(4) 0.0066(3)
O18_2 O 0.2988(3) 0.4918(3) 0.0493(3)
Zn2_2 Zn 0.68341(5) 0.54150(5) 0.82479(4)
Si1_2 Si 0.7500 0.7500 0.7500
O2_2 O 0.7012(3) 0.5082(3) 0.9507(3)
O8_2 O 0.6533(3) 0.7312(3) 0.6902(3)
O19_2 O 0.5433(3) 0.5578(3) 0.8212(3)
O20_2 O 0.4994(3) 0.5680(3) 0.6772(3)
C25_2 C 0.2372(5) 0.4685(5) 0.9913(4)
C26_2 C 0.3561(4) 0.5144(4) 0.8732(4)
H13_2 H 0.4036 0.5211 0.9170
C27_2 C 0.2618(5) 0.4891(5) 0.8970(4)
C28_2 C 0.1913(5) 0.4799(6) 0.8308(4)
H14_2 H 0.1282 0.4621 0.8460
C29_2 C 0.2152(5) 0.4973(6) 0.7421(5)
H15_2 H 0.1677 0.4925 0.6981
C30_2 C 0.3089(5) 0.5216(5) 0.7195(4)
H16_2 H 0.3249 0.5325 0.6600
C31_2 C 0.3794(4) 0.5298(5) 0.7845(4)
C32_2 C 0.4821(5) 0.5551(4) 0.7582(4)
O21_2 O 0.7013(4) 0.5038(3) 0.6177(3)
O22_2 O 0.7127(3) 0.4288(3) 0.7485(3)
C33_2 C 0.7141(5) 0.4290(5) 0.6652(5)
C34_2 C 0.7500 0.2500 0.6646(6)
H17_2 H 0.7500 0.2500 0.7267
C35_2 C 0.7333(5) 0.3364(5) 0.6173(4)
C36_2 C 0.7332(6) 0.3350(6) 0.5248(5)
H18_2 H 0.7216 0.3920 0.4930
C37_2 C 0.7500 0.2500 0.4805(7)
H19_2 H 0.7500 0.2500 0.4184
C38_2 C 0.7667(5) 0.1636(5) 0.6173(4)
C39_2 C 0.7859(5) 0.0710(5) 0.6652(5)
C40_2 C 0.7668(6) 0.1650(6) 0.5248(5)
H20_2 H 0.7784 0.1080 0.4930
Zn9_2 Zn 0.61914(5) 0.61553(5) 0.62182(5)
O23_2 O 0.7987(4) 0.9962(3) 0.6177(3)
O17_3 O 0.3424(3) 0.0729(4) 0.0066(3)
C25_3 C 0.2628(5) 0.0315(5) 0.9913(4)
C27_3 C 0.2382(5) 0.0109(5) 0.8970(4)
C28_3 C 0.3087(5) 0.0201(6) 0.8308(4)
H14_3 H 0.3718 0.0379 0.8460
C29_3 C 0.2848(5) 0.0027(6) 0.7421(5)
H15_3 H 0.3323 0.0075 0.6981
O20_3 O 0.0006(3) 0.9320(3) 0.6772(3)
C26_3 C 0.1439(4) 0.9856(4) 0.8732(4)
H13_3 H 0.0964 0.9789 0.9170
C30_3 C 0.1911(5) 0.9784(5) 0.7195(4)
H16_3 H 0.1751 0.9675 0.6600
C31_3 C 0.1206(4) 0.9702(5) 0.7845(4)
C32_3 C 0.0179(5) 0.9449(4) 0.7582(4)
O37_2 O 0.4422(3) 0.0433(3) 0.3212(3)
O41_2 O 0.5082(3) 0.7988(3) 0.5493(3)
O17_4 O 0.5729(4) 0.6576(3) 0.5066(3)
O20_4 O 0.4320(3) 0.9994(3) 0.1772(3)
C25_4 C 0.5315(5) 0.7372(5) 0.4913(4)
C26_4 C 0.4856(4) 0.8561(4) 0.3732(4)
H13_4 H 0.4789 0.9036 0.4170
C27_4 C 0.5109(5) 0.7618(5) 0.3970(4)
C28_4 C 0.5201(6) 0.6913(5) 0.3308(4)
H14_4 H 0.5379 0.6282 0.3460
C29_4 C 0.5027(6) 0.7152(5) 0.2421(5)
H15_4 H 0.5075 0.6677 0.1981
C30_4 C 0.4784(5) 0.8089(5) 0.2195(4)
H16_4 H 0.4675 0.8249 0.1600
C31_4 C 0.4702(5) 0.8794(4) 0.2845(4)
C32_4 C 0.4449(4) 0.9821(5) 0.2582(4)
loop_
_geom_bond_atom_site_label_1
_geom_bond_atom_site_label_2
_geom_bond_site_symmetry_1
_geom_bond_site_symmetry_2
Zn1 O1 1_555 1_555
Zn2 O2 1_555 1_555
O1 C1 1_555 1_555
Si1 O7 1_555 1_555
O2 C1 1_555 1_555
O5 Zn1 1_555 1_555
O7 Zn1 1_555 1_555
C1 C3 1_555 1_555
C4 C3 1_555 1_555
H2 C4 1_555 1_555
C5 C4 1_555 1_555
H3 C5 1_555 1_555
O8 Si1 1_555 1_555
O9 Si1 1_555 1_555
O10 Si1 1_555 1_555
O19 Zn2 1_555 1_555
O20 C32 1_555 1_555
C26 H13 1_555 1_555
H16 C30 1_555 1_555
C31 C26 1_555 1_555
C32 O19 1_555 1_555
Zn9 O8 1_555 1_555
Zn10 O8 1_555 1_555
Zn11 O9 1_555 1_555
Zn12 O10 1_555 1_555
Zn13 O10 1_555 1_555
O41 Zn8 1_555 1_555
Zn2 O7 1_555 1_555
O9 Zn8 1_555 1_555
O15 Zn8 1_555 1_555
O20 Zn9 1_555 1_555
C30 C31 1_555 1_555
C31 C32 1_555 1_555
O21 Zn9 1_555 1_555
O6 C9 1_555 1_555
C10 H5 1_555 1_555
C11 C9 1_555 1_555
C12 C11 1_555 1_555
H6 C12 1_555 1_555
C13 C12 1_555 1_555
H7 C13 1_555 1_555
C14 C10 1_555 1_555
C15 C14 1_555 1_555
O11 C15 1_555 1_555
O12 C15 1_555 1_555
C16 C13 1_555 1_555
H8 C16 1_555 1_555
Zn12 O11 1_555 1_555
O25 Zn12 1_555 1_555
O26 C41 1_555 1_555
O28 C48 1_555 1_555
C41 O25 1_555 1_555
C42 H21 1_555 1_555
C43 C41 1_555 1_555
C44 C43 1_555 1_555
H22 C44 1_555 1_555
C45 C44 1_555 1_555
H23 C45 1_555 1_555
C46 C45 1_555 1_555
H24 C46 1_555 1_555
C47 C42 1_555 1_555
C48 C47 1_555 1_555
Zn10 O12 1_555 1_555
O35 Zn12 1_555 1_555
Zn13 O26 1_555 1_555
C10 C11 1_555 1_555
C14 C16 1_555 1_555
C42 C43 1_555 1_555
C46 C47 1_555 1_555
Zn19 O27 1_555 1_555
O3 C8 1_555 1_555
O4 C8 1_555 1_555
C2 H1 1_555 1_555
H4 C6 1_555 1_555
C7 C2 1_555 1_555
C8 C7 1_555 1_555
C18 H9 1_555 1_555
H12 C22 1_555 1_555
C23 C18 1_555 1_555
C24 O16 1_555 1_555
Zn4 O4 1_555 1_555
Zn7 O3 1_555 1_555
O17 C25 1_555 1_555
O18 Zn7 1_555 1_555
C25 O18 1_555 1_555
C27 C25 1_555 1_555
C28 C27 1_555 1_555
H14 C28 1_555 1_555
C29 C28 1_555 1_555
H15 C29 1_555 1_555
C33 O22 1_555 1_555
C34 H17 1_555 1_555
C35 C33 1_555 1_555
C36 C35 1_555 1_555
C38 C34 1_555 1_555
C39 C38 1_555 1_555
O23 C39 1_555 1_555
O24 C39 1_555 1_555
O32 Zn4 1_555 1_555
O33 Zn4 1_555 1_555
O34 Zn4 1_555 1_555
O40 Zn7 1_555 1_555
Zn15 O17 1_555 1_555
Zn11 O23 1_555 1_555
Zn13 O24 1_555 1_555
C6 C7 1_555 1_555
C22 C23 1_555 1_555
C23 C24 1_555 1_555
C34 C35 1_555 1_555
C38 C40 1_555 1_555
O40 Zn15 1_555 1_555
H19 C37 1_555 1_555
C17 C19 1_555 1_555
C20 C19 1_555 1_555
H10 C20 1_555 1_555
C21 C20 1_555 1_555
H11 C21 1_555 1_555
Zn20 O13 1_555 1_555
Zn6 O14 1_555 1_555
O30 Zn20 1_555 1_555
O31 Zn20 1_555 1_555
O37 Zn6 1_555 1_555
Zn6 O31 1_555 1_555
H7_2 C13_2 1_555 1_555
O39 C9_2 1_555 1_555
C10_2 H5_2 1_555 1_555
C11_2 C9_2 1_555 1_555
C12_2 C11_2 1_555 1_555
C14_2 C10_2 1_555 1_555
C15_2 C14_2 1_555 1_555
O30 C15_2 1_555 1_555
O12_2 C15_2 1_555 1_555
Zn19 O12_2 1_555 1_555
C10_2 C11_2 1_555 1_555
C14_2 C16_2 1_555 1_555
O3_2 C8_2 1_555 1_555
O35 C8_2 1_555 1_555
C1_2 C3_2 1_555 1_555
C2_2 H1_2 1_555 1_555
C3_2 C2_2 1_555 1_555
C4_2 C3_2 1_555 1_555
H2_2 C4_2 1_555 1_555
C5_2 C4_2 1_555 1_555
H3_2 C5_2 1_555 1_555
C6_2 C5_2 1_555 1_555
H4_2 C6_2 1_555 1_555
C7_2 C2_2 1_555 1_555
C8_2 C7_2 1_555 1_555
Zn10 O3_2 1_555 1_555
O18_2 Zn10 1_555 1_555
Zn9 O17_2 1_555 1_555
C6_2 C7_2 1_555 1_555
Zn2_2 O2_2 1_555 1_555
Si1_2 O34 1_555 1_555
O8_2 Si1_2 1_555 1_555
O40 Si1_2 1_555 1_555
O31 Si1_2 1_555 1_555
O19_2 Zn2_2 1_555 1_555
O20_2 C32_2 1_555 1_555
C26_2 H13_2 1_555 1_555
C27_2 C25_2 1_555 1_555
C28_2 C27_2 1_555 1_555
H14_2 C28_2 1_555 1_555
C29_2 C28_2 1_555 1_555
H15_2 C29_2 1_555 1_555
C30_2 C29_2 1_555 1_555
H16_2 C30_2 1_555 1_555
C31_2 C26_2 1_555 1_555
C32_2 O19_2 1_555 1_555
O21_2 C33_2 1_555 1_555
O22_2 Zn2_2 1_555 1_555
C33_2 O22_2 1_555 1_555
C34_2 H17_2 1_555 1_555
C35_2 C33_2 1_555 1_555
C36_2 C35_2 1_555 1_555
H18_2 C36_2 1_555 1_555
C37_2 C36_2 1_555 1_555
H19_2 C37_2 1_555 1_555
C38_2 C34_2 1_555 1_555
C39_2 C38_2 1_555 1_555
O38 C39_2 1_555 1_555
C40_2 C37_2 1_555 1_555
H20_2 C40_2 1_555 1_555
Zn9_2 O8_2 1_555 1_555
Zn19 O8_2 1_555 1_555
Zn2_2 O34 1_555 1_555
O20_2 Zn9_2 1_555 1_555
C26_2 C27_2 1_555 1_555
C30_2 C31_2 1_555 1_555
C31_2 C32_2 1_555 1_555
O21_2 Zn9_2 1_555 1_555
C34_2 C35_2 1_555 1_555
C38_2 C40_2 1_555 1_555
Zn15 O23_2 1_555 1_555
Zn11 O17_3 1_555 1_555
C27_3 C25_3 1_555 1_555
C28_3 C27_3 1_555 1_555
H14_3 C28_3 1_555 1_555
C29_3 C28_3 1_555 1_555
H15_3 C29_3 1_555 1_555
O20_3 C32_3 1_555 1_555
C26_3 H13_3 1_555 1_555
H16_3 C30_3 1_555 1_555
C31_3 C26_3 1_555 1_555
C30_3 C31_3 1_555 1_555
C31_3 C32_3 1_555 1_555
O37_2 Zn13 1_555 1_555
O41_2 Zn19 1_555 1_555
O17_4 C25_4 1_555 1_555
O20_4 C32_4 1_555 1_555
C25_4 O41_2 1_555 1_555
C26_4 H13_4 1_555 1_555
C27_4 C25_4 1_555 1_555
C28_4 C27_4 1_555 1_555
H14_4 C28_4 1_555 1_555
C29_4 C28_4 1_555 1_555
H15_4 C29_4 1_555 1_555
C30_4 C29_4 1_555 1_555
H16_4 C30_4 1_555 1_555
C31_4 C26_4 1_555 1_555
Zn9_2 O17_4 1_555 1_555
C26_4 C27_4 1_555 1_555
C30_4 C31_4 1_555 1_555
C31_4 C32_4 1_555 1_555

#END
