
###############################################################################
#
# This file contains modified crystal structure data generated from the
# MOF subset of the Cambridge Structural Database (CSD) v543 
# hosted by the Cambridge Crystallographic Data Centre (CCDC).
#
# This work is licensed under the Creative Commons
# Attribution-NonCommercial-ShareAlike 4.0 International License.
# To view a copy of this license, visit
# http://creativecommons.org/licenses/by-nc-sa/4.0/
# or send a letter to
# Creative Commons, PO Box 1866, Mountain View, CA 94042, USA.
#
# CIF created using the CSD Python API on 29 September 2022
# The structure has been converted into the P1 space group
# The structure has a 3D framework
# The original CSD entry MIHHIU is in the orthorhombic crystal system
# The original CSD entry MIHHIU is in a Sohncke space group
# The framework has been calculated to contain at least 10.0% void space
# The void calculation uses a probe of radius 1.32A, grid spacing 0.4
#
###############################################################################

data_MIHHIU
_chemical_formula_moiety         '(C152 H168 Cd4 N16 O29)n'
_symmetry_cell_setting           triclinic
_symmetry_space_group_name_H-M   'P 1'
_symmetry_Int_Tables_number      1
_space_group_name_Hall           'P 1'
loop_
_symmetry_equiv_pos_site_id
_symmetry_equiv_pos_as_xyz
1 x,y,z
_cell_length_a                   13.8639(8)
_cell_length_b                   15.1012(8)
_cell_length_c                   19.4313(11)
_cell_angle_alpha                90
_cell_angle_beta                 90
_cell_angle_gamma                90
_cell_volume                     4068.17
loop_
_atom_site_label
_atom_site_type_symbol
_atom_site_fract_x
_atom_site_fract_y
_atom_site_fract_z
Cd1 Cd 0.79829(3) 0.36143(2) 0.035198(19)
N1 N 0.6333(3) 0.3805(3) 0.0074(2)
O2 O 0.3150(3) 0.2709(3) 0.0248(2)
N2 N 0.7887(4) 0.3198(3) 0.1503(2)
O3 O 0.8981(3) 0.3083(3) 0.3927(2)
H2 H 0.9439 0.2869 0.3717
C3 C 0.7986(5) 0.2833(3) 0.2927(3)
C4 C 0.4613(4) 0.3512(4) 0.0438(3)
H5 H 0.4311 0.3726 0.0862
C5 C 0.7673(4) 0.2374(4) 0.1748(3)
C7 C 0.8178(4) 0.3643(4) 0.2660(3)
H6 H 0.8359 0.4099 0.2954
C10 C 0.7696(4) 0.2164(4) 0.2462(3)
C14 C 0.4042(4) 0.2688(4) 0.0185(3)
C15 C 0.8111(5) 0.3810(3) 0.1954(3)
H11 H 0.8231 0.4382 0.1797
C17 C 0.7185(5) 0.0894(4) 0.1489(3)
H13 H 0.7017 0.0464 0.1167
C18 C 0.7417(5) 0.1695(4) 0.1276(3)
H14 H 0.7412 0.1818 0.0807
C19 C 0.5699(4) 0.3340(4) 0.0586(3)
H15 H 0.5853 0.3546 0.1046
H16 H 0.5824 0.2709 0.0569
C21 C 0.5111(5) 0.5034(4) 0.0167(4)
H18 H 0.4906 0.5180 0.0631
C23 C 0.7435(4) 0.1294(4) 0.2664(3)
H21 H 0.7438 0.1150 0.3129
C24 C 0.8126(4) 0.2698(4) 0.3694(3)
H22 H 0.8128 0.2064 0.3799
C25 C 0.7186(5) 0.0673(4) 0.2205(3)
C26 C 0.6184(4) 0.4780(4) 0.0165(3)
H24 H 0.6474 0.4965 0.0596
C30 C 0.7345(4) 0.3167(4) 0.4130(3)
H29 H 0.7367 0.3798 0.4013
N4 N 0.6353(4) 0.2847(3) 0.3970(3)
C31 C 0.7552(5) 0.3092(4) 0.4899(3)
H30 H 0.7936 0.3592 0.5050
H31 H 0.7909 0.2553 0.4993
C32 C 0.6580(5) 0.3078(4) 0.5284(3)
H32 H 0.6671 0.3160 0.5780
C33 C 0.5918(5) 0.3793(4) 0.4982(3)
H33 H 0.5308 0.3764 0.5236
C34 C 0.6079(7) 0.2186(4) 0.5125(4)
H34 H 0.6393 0.1709 0.5372
H35 H 0.5408 0.2208 0.5264
C35 C 0.6330(4) 0.4739(4) 0.5091(3)
C36 C 0.5692(4) 0.3545(5) 0.4235(3)
H36 H 0.5032 0.3334 0.4206
H37 H 0.5747 0.4068 0.3948
C37 C 0.6153(6) 0.2032(5) 0.4351(4)
H38 H 0.6663 0.1607 0.4262
H39 H 0.5552 0.1779 0.4187
O7 O 0.6494(4) 0.4978(3) 0.5685(2)
O8 O 0.6533(3) 0.5209(3) 0.4584(3)
O10 O 0.9488(3) 0.2940(3) 0.0091(2)
O11 O 0.8506(4) 0.5022(3) 0.0685(2)
Cd3 Cd 0.70171(3) 0.63857(2) 0.535198(19)
O1 O 0.6970(3) 0.4476(2) 0.86755(19)
H1 H 0.7416 0.4620 0.8929
C1 C 0.5973(3) 0.3505(4) 0.9378(3)
H3 H 0.5838 0.2871 0.9421
C2 C 0.6717(4) 0.3597(4) 0.8805(2)
H4 H 0.7297 0.3265 0.8932
O4 O 0.4488(3) 0.2060(3) 0.9909(2)
C6 C 0.6294(4) 0.3199(4) 0.8150(3)
C8 C 0.4992(4) 0.3959(4) 0.9222(3)
H7 H 0.5093 0.4472 0.8931
H8 H 0.4572 0.3550 0.8980
C9 C 0.6146(4) 0.2262(4) 0.8068(3)
C11 C 0.6049(4) 0.3717(5) 0.7613(3)
H9 H 0.6166 0.4322 0.7642
C12 C 0.5721(4) 0.1987(4) 0.7438(3)
C13 C 0.4528(4) 0.4239(4) 0.9894(3)
H10 H 0.3852 0.4403 0.9822
N3 N 0.5459(4) 0.2545(4) 0.6931(3)
C16 C 0.5791(5) 0.0469(5) 0.7830(4)
C20 C 0.6375(4) 0.1624(4) 0.8566(3)
H17 H 0.6644 0.1800 0.8982
H19 H 0.5006 0.5547 0.9876
C22 C 0.5567(5) 0.1062(5) 0.7336(4)
H20 H 0.5307 0.0865 0.6922
O5 O 0.6373(4) 0.0070(3) 0.8917(3)
H23 H 0.6507 0.5093 0.9795
C27 C 0.5634(5) 0.3389(4) 0.7023(3)
H25 H 0.5470 0.3783 0.6675
C28 C 0.6210(5) 0.0767(4) 0.8450(3)
C29 C 0.6589(8) 0.0332(6) 0.9597(5)
H27 H 0.6063 0.0672 0.9778
H28 H 0.7164 0.0686 0.9597
O9 O 0.8150(3) 0.2291(3) 0.9752(2)
O12 O 0.8467(3) 0.4791(3) 0.9584(3)
Cd2 Cd 0.29829(3) 0.13857(2) 0.964802(19)
O2_2 O 0.1850(3) 0.7291(3) 0.5248(2)
C4_2 C 0.0387(4) 0.6488(4) 0.5438(3)
H5_2 H 0.0689 0.6274 0.5862
O4_2 O 0.0512(3) 0.7940(3) 0.4909(2)
C8_2 C 0.0008(4) 0.6041(4) 0.4222(3)
H8_2 H 0.0428 0.6450 0.3980
C13_2 C 0.0472(4) 0.5761(4) 0.4894(3)
H10_2 H 0.1148 0.5597 0.4822
C14_2 C 0.0958(4) 0.7312(4) 0.5185(3)
H18_2 H 0.0094 0.4820 0.5631
Cd2_2 Cd 0.20171(3) 0.86143(2) 0.464802(19)
H30_2 H 0.7064 0.6408 0.0050
C32_2 C 0.8420(5) 0.6922(4) 0.0284(3)
H32_2 H 0.8329 0.6840 0.0780
H33_2 H 0.9692 0.6236 0.0236
C34_2 C 0.8921(7) 0.7814(4) 0.0125(4)
H34_2 H 0.8607 0.8291 0.0372
H35_2 H 0.9592 0.7792 0.0264
C35_2 C 0.8670(4) 0.5261(4) 0.0091(3)
O1_2 O 0.8030(3) 0.5524(2) 0.36755(19)
H1_2 H 0.7584 0.5380 0.3929
N1_2 N 0.8667(3) 0.6195(3) 0.5074(2)
N2_2 N 0.7113(4) 0.6802(3) 0.6503(2)
O3_2 O 0.6019(3) 0.6917(3) 0.8927(2)
H2_2 H 0.5561 0.7131 0.8717
C1_2 C 0.9027(3) 0.6495(4) 0.4378(3)
H3_2 H 0.9162 0.7129 0.4421
C2_2 C 0.8283(4) 0.6403(4) 0.3805(2)
H4_2 H 0.7703 0.6735 0.3932
C3_2 C 0.7014(5) 0.7167(3) 0.7927(3)
C5_2 C 0.7327(4) 0.7626(4) 0.6748(3)
C6_2 C 0.8706(4) 0.6801(4) 0.3150(3)
C7_2 C 0.6822(4) 0.6357(4) 0.7660(3)
H6_2 H 0.6641 0.5901 0.7954
H7_2 H 0.9907 0.5528 0.3931
C9_2 C 0.8854(4) 0.7738(4) 0.3068(3)
C10_2 C 0.7304(4) 0.7836(4) 0.7462(3)
C11_2 C 0.8951(4) 0.6283(5) 0.2613(3)
H9_2 H 0.8834 0.5678 0.2642
C12_2 C 0.9279(4) 0.8013(4) 0.2438(3)
N3_2 N 0.9541(4) 0.7455(4) 0.1931(3)
C15_2 C 0.6889(5) 0.6190(3) 0.6954(3)
H11_2 H 0.6769 0.5618 0.6797
C16_2 C 0.9209(5) 0.9531(5) 0.2830(4)
C17_2 C 0.7815(5) 0.9106(4) 0.6489(3)
H13_2 H 0.7983 0.9536 0.6167
C18_2 C 0.7583(5) 0.8305(4) 0.6276(3)
H14_2 H 0.7588 0.8182 0.5807
C19_2 C 0.9301(4) 0.6660(4) 0.5586(3)
H15_2 H 0.9147 0.6454 0.6046
H16_2 H 0.9176 0.7291 0.5569
C20_2 C 0.8625(4) 0.8376(4) 0.3566(3)
H17_2 H 0.8356 0.8200 0.3982
C21_2 C 0.9889(5) 0.4966(4) 0.5167(4)
H19_2 H 0.9994 0.4453 0.4876
C22_2 C 0.9433(5) 0.8938(5) 0.2336(4)
H20_2 H 0.9693 0.9135 0.1922
O5_2 O 0.8627(4) 0.9930(3) 0.3917(3)
C23_2 C 0.7565(4) 0.8706(4) 0.7664(3)
H21_2 H 0.7562 0.8850 0.8129
C24_2 C 0.6874(4) 0.7302(4) 0.8694(3)
H22_2 H 0.6872 0.7936 0.8799
C25_2 C 0.7814(5) 0.9327(4) 0.7205(3)
C26_2 C 0.8816(4) 0.5220(4) 0.5165(3)
H23_2 H 0.8493 0.4907 0.4795
H24_2 H 0.8526 0.5035 0.5596
C27_2 C 0.9366(5) 0.6611(4) 0.2023(3)
H25_2 H 0.9530 0.6217 0.1675
C28_2 C 0.8790(5) 0.9233(4) 0.3450(3)
C29_2 C 0.8411(8) 0.9668(6) 0.4597(5)
H27_2 H 0.8937 0.9328 0.4778
H28_2 H 0.7836 0.9314 0.4597
C30_2 C 0.7655(4) 0.6833(4) 0.9130(3)
H29_2 H 0.7633 0.6202 0.9013
N4_2 N 0.8647(4) 0.7153(3) 0.8970(3)
C31_2 C 0.7448(5) 0.6908(4) 0.9899(3)
H31_2 H 0.7091 0.7447 0.9993
C33_2 C 0.9082(5) 0.6207(4) 0.9982(3)
C36_2 C 0.9308(4) 0.6455(5) 0.9235(3)
H36_2 H 0.9968 0.6666 0.9206
H37_2 H 0.9253 0.5932 0.8948
C37_2 C 0.8847(6) 0.7968(5) 0.9351(4)
H38_2 H 0.8337 0.8393 0.9262
H39_2 H 0.9448 0.8221 0.9187
O9_2 O 0.6850(3) 0.7709(3) 0.4752(2)
O10_2 O 0.5512(3) 0.7060(3) 0.5091(2)
C21_3 C 0.4889(5) 0.0034(4) 0.4833(4)
H18_3 H 0.5094 0.0180 0.4369
H19_3 H 0.4994 0.0547 0.5124
H23_3 H 0.3493 0.0093 0.5205
O8_2 O 0.3467(3) 0.0209(3) 0.0416(3)
O11_2 O 0.1494(4) 0.0022(3) 0.4315(2)
O1_3 O 0.3030(3) 0.9476(2) 0.63245(19)
H1_3 H 0.2584 0.9620 0.6071
N1_3 N 0.3667(3) 0.8805(3) 0.4926(2)
N2_3 N 0.2113(4) 0.8198(3) 0.3497(2)
O3_3 O 0.1019(3) 0.8083(3) 0.1073(2)
H2_3 H 0.0561 0.7869 0.1283
C1_3 C 0.4027(3) 0.8505(4) 0.5622(3)
H3_3 H 0.4162 0.7871 0.5579
C2_3 C 0.3283(4) 0.8597(4) 0.6195(2)
H4_3 H 0.2703 0.8265 0.6068
C3_3 C 0.2014(5) 0.7833(3) 0.2073(3)
C4_3 C 0.5387(4) 0.8512(4) 0.4562(3)
H5_3 H 0.5689 0.8726 0.4138
C5_3 C 0.2327(4) 0.7374(4) 0.3252(3)
C6_3 C 0.3706(4) 0.8199(4) 0.6850(3)
C7_3 C 0.1822(4) 0.8643(4) 0.2340(3)
H6_3 H 0.1641 0.9099 0.2046
C8_3 C 0.5008(4) 0.8959(4) 0.5778(3)
H7_3 H 0.4907 0.9472 0.6069
H8_3 H 0.5428 0.8550 0.6020
C9_3 C 0.3854(4) 0.7262(4) 0.6932(3)
C10_3 C 0.2304(4) 0.7164(4) 0.2538(3)
C11_3 C 0.3951(4) 0.8717(5) 0.7387(3)
H9_3 H 0.3834 0.9322 0.7358
C12_3 C 0.4279(4) 0.6987(4) 0.7562(3)
C13_3 C 0.5472(4) 0.9239(4) 0.5106(3)
H10_3 H 0.6148 0.9403 0.5178
C14_3 C 0.5958(4) 0.7688(4) 0.4815(3)
N3_3 N 0.4541(4) 0.7545(4) 0.8069(3)
C15_3 C 0.1889(5) 0.8810(3) 0.3046(3)
H11_3 H 0.1769 0.9382 0.3203
C16_3 C 0.4209(5) 0.5469(5) 0.7170(4)
H12 H 0.4329 0.4869 0.7238
C17_3 C 0.2815(5) 0.5894(4) 0.3511(3)
H13_3 H 0.2983 0.5464 0.3833
C18_3 C 0.2583(5) 0.6695(4) 0.3724(3)
H14_3 H 0.2588 0.6818 0.4193
C19_3 C 0.4301(4) 0.8340(4) 0.4414(3)
H15_3 H 0.4147 0.8546 0.3954
H16_3 H 0.4176 0.7709 0.4431
C20_3 C 0.3625(4) 0.6624(4) 0.6434(3)
H17_3 H 0.3356 0.6800 0.6018
C22_3 C 0.4433(5) 0.6062(5) 0.7664(4)
H20_3 H 0.4693 0.5865 0.8078
O5_3 O 0.3627(4) 0.5070(3) 0.6083(3)
C23_3 C 0.2565(4) 0.6294(4) 0.2336(3)
H21_3 H 0.2562 0.6150 0.1871
C24_3 C 0.1874(4) 0.7698(4) 0.1306(3)
H22_3 H 0.1872 0.7064 0.1201
C25_3 C 0.2814(5) 0.5673(4) 0.2795(3)
C26_3 C 0.3816(4) 0.9780(4) 0.4835(3)
H24_3 H 0.3526 0.9965 0.4404
O6 O 0.3098(6) 0.4856(3) 0.2593(3)
C27_3 C 0.4366(5) 0.8389(4) 0.7977(3)
H25_3 H 0.4530 0.8783 0.8325
C28_3 C 0.3790(5) 0.5767(4) 0.6550(3)
C29_3 C 0.3411(8) 0.5332(6) 0.5403(5)
H26 H 0.3313 0.4816 0.5123
H27_3 H 0.3937 0.5672 0.5222
H28_3 H 0.2836 0.5686 0.5403
C30_3 C 0.2655(4) 0.8167(4) 0.0870(3)
H29_3 H 0.2633 0.8798 0.0987
N4_3 N 0.3647(4) 0.7847(3) 0.1030(3)
C31_3 C 0.2448(5) 0.8092(4) 0.0101(3)
H31_3 H 0.2091 0.7553 0.0007
C33_3 C 0.4082(5) 0.8793(4) 0.0018(3)
C36_3 C 0.4308(4) 0.8545(5) 0.0765(3)
H36_3 H 0.4968 0.8334 0.0794
H37_3 H 0.4253 0.9068 0.1052
C37_3 C 0.3847(6) 0.7032(5) 0.0649(4)
H38_3 H 0.3337 0.6607 0.0738
H39_3 H 0.4448 0.6779 0.0813
C38 C 0.3219(14) 0.4150(9) 0.3042(9)
H40 H 0.3429 0.3639 0.2790
H41 H 0.2617 0.4023 0.3265
H42 H 0.3694 0.4301 0.3382
O12_2 O 0.1533(3) 0.9791(3) 0.5416(3)
H30_3 H 0.2064 0.8592 0.9950
C32_3 C 0.3420(5) 0.8078(4) 0.9716(3)
H32_3 H 0.3329 0.8160 0.9220
H33_3 H 0.4692 0.8764 0.9764
C34_3 C 0.3921(7) 0.7186(4) 0.9875(4)
H34_3 H 0.3607 0.6709 0.9628
H35_3 H 0.4592 0.7208 0.9736
C35_3 C 0.3670(4) 0.9739(4) 0.9909(3)
O7_2 O 0.3506(4) 0.9978(3) 0.9315(2)
O1_4 O 0.1970(3) 0.0524(2) 0.13245(19)
H1_4 H 0.2416 0.0380 0.1071
C1_4 C 0.0973(3) 0.1495(4) 0.0622(3)
H3_4 H 0.0838 0.2129 0.0579
C2_4 C 0.1717(4) 0.1403(4) 0.1195(2)
H4_4 H 0.2297 0.1735 0.1068
C6_4 C 0.1294(4) 0.1801(4) 0.1850(3)
H7_4 H 0.0093 0.0528 0.1069
C9_4 C 0.1146(4) 0.2738(4) 0.1932(3)
C11_4 C 0.1049(4) 0.1283(5) 0.2387(3)
H9_4 H 0.1166 0.0678 0.2358
C12_4 C 0.0721(4) 0.3013(4) 0.2562(3)
N3_4 N 0.0459(4) 0.2455(4) 0.3069(3)
C16_4 C 0.0791(5) 0.4531(5) 0.2170(4)
H12_2 H 0.0671 0.5131 0.2238
C20_4 C 0.1375(4) 0.3376(4) 0.1434(3)
H17_4 H 0.1644 0.3200 0.1018
C22_4 C 0.0567(5) 0.3938(5) 0.2664(4)
H20_4 H 0.0307 0.4135 0.3078
O5_4 O 0.1373(4) 0.4930(3) 0.1083(3)
C27_4 C 0.0634(5) 0.1611(4) 0.2977(3)
H25_4 H 0.0470 0.1217 0.3325
C28_4 C 0.1210(5) 0.4233(4) 0.1550(3)
C29_4 C 0.1589(8) 0.4668(6) 0.0403(5)
H26_2 H 0.1687 0.5184 0.0123
H27_4 H 0.1063 0.4328 0.0222
H28_4 H 0.2164 0.4314 0.0403
N1_4 N 0.1333(3) 0.1195(3) 0.9926(2)
N2_4 N 0.2887(4) 0.1802(3) 0.8497(2)
O3_4 O 0.3981(3) 0.1917(3) 0.6073(2)
H2_4 H 0.4439 0.2131 0.6283
C3_4 C 0.2986(5) 0.2167(3) 0.7073(3)
C5_4 C 0.2673(4) 0.2626(4) 0.8252(3)
C7_4 C 0.3178(4) 0.1357(4) 0.7340(3)
H6_4 H 0.3359 0.0901 0.7046
C10_4 C 0.2696(4) 0.2836(4) 0.7538(3)
C15_4 C 0.3111(5) 0.1190(3) 0.8046(3)
H11_4 H 0.3231 0.0618 0.8203
C17_4 C 0.2185(5) 0.4106(4) 0.8511(3)
H13_4 H 0.2017 0.4536 0.8833
C18_4 C 0.2417(5) 0.3305(4) 0.8724(3)
H14_4 H 0.2412 0.3182 0.9193
C19_4 C 0.0699(4) 0.1660(4) 0.9414(3)
H15_4 H 0.0853 0.1454 0.8954
H16_4 H 0.0824 0.2291 0.9431
C23_4 C 0.2435(4) 0.3706(4) 0.7336(3)
H21_4 H 0.2438 0.3850 0.6871
C24_4 C 0.3126(4) 0.2302(4) 0.6306(3)
H22_4 H 0.3128 0.2936 0.6201
C25_4 C 0.2186(5) 0.4327(4) 0.7795(3)
C26_4 C 0.1184(4) 0.0220(4) 0.9835(3)
H24_4 H 0.1474 0.0035 0.9404
O6_2 O 0.1902(6) 0.5144(3) 0.7593(3)
C30_4 C 0.2345(4) 0.1833(4) 0.5870(3)
H29_4 H 0.2367 0.1202 0.5987
N4_4 N 0.1353(4) 0.2153(3) 0.6030(3)
C31_4 C 0.2552(5) 0.1908(4) 0.5101(3)
H30_4 H 0.2936 0.1408 0.4950
H31_4 H 0.2909 0.2447 0.5007
C32_4 C 0.1580(5) 0.1922(4) 0.4716(3)
H32_4 H 0.1671 0.1840 0.4220
C33_4 C 0.0918(5) 0.1207(4) 0.5018(3)
H33_4 H 0.0308 0.1236 0.4764
C34_4 C 0.1079(7) 0.2814(4) 0.4875(4)
H34_4 H 0.1393 0.3291 0.4628
H35_4 H 0.0408 0.2792 0.4736
C35_4 C 0.1330(4) 0.0261(4) 0.4909(3)
C36_4 C 0.0692(4) 0.1455(5) 0.5765(3)
H36_4 H 0.0032 0.1666 0.5794
H37_4 H 0.0747 0.0932 0.6052
C37_4 C 0.1153(6) 0.2968(5) 0.5649(4)
H38_4 H 0.1663 0.3393 0.5738
H39_4 H 0.0552 0.3221 0.5813
C38_2 C 0.1781(14) 0.5850(9) 0.8042(9)
H40_2 H 0.1571 0.6361 0.7790
H41_2 H 0.2383 0.5977 0.8265
H42_2 H 0.1306 0.5699 0.8382
C21_4 C 0.0111(5) 0.9966(4) 0.9833(4)
C8_4 C 0.9992(4) 0.1041(4) 0.0778(3)
H8_4 H 0.9572 0.1450 0.1020
C13_4 C 0.9528(4) 0.0761(4) 0.0106(3)
H10_4 H 0.8852 0.0597 0.0178
C4_4 C 0.9613(4) 0.1488(4) 0.9562(3)
H5_4 H 0.9311 0.1274 0.9138
C14_4 C 0.9042(4) 0.2312(4) 0.9815(3)
O6_3 O 0.6902(6) 0.9856(3) 0.2407(3)
C38_3 C 0.6781(14) 0.9150(9) 0.1958(9)
H40_3 H 0.6571 0.8639 0.2210
H41_3 H 0.7383 0.9023 0.1735
H42_3 H 0.6306 0.9301 0.1618
H12_3 H 0.5671 0.9869 0.7762
H26_3 H 0.6687 0.9816 0.9877
H12_4 H 0.9329 0.0131 0.2762
O6_4 O 0.8098(6) 0.0144(3) 0.7407(3)
H26_4 H 0.8313 0.0184 0.4877
C38_4 C 0.8219(14) 0.0850(9) 0.6958(9)
H40_4 H 0.8429 0.1361 0.7210
H41_4 H 0.7617 0.0977 0.6735
H42_4 H 0.8694 0.0699 0.6618
H19_4 H 0.0006 0.9453 0.0124
H23_4 H 0.1507 0.9907 0.0205
H18_4 H 0.9906 0.9820 0.9369
loop_
_geom_bond_atom_site_label_1
_geom_bond_atom_site_label_2
_geom_bond_site_symmetry_1
_geom_bond_site_symmetry_2
Cd1 N1 1_555 1_555
O2 C14 1_555 1_555
N2 Cd1 1_555 1_555
O3 H2 1_555 1_555
C3 C7 1_555 1_555
C4 H5 1_555 1_555
C5 N2 1_555 1_555
C7 H6 1_555 1_555
C10 C3 1_555 1_555
C14 C4 1_555 1_555
C15 N2 1_555 1_555
H11 C15 1_555 1_555
C17 H13 1_555 1_555
C18 C5 1_555 1_555
H14 C18 1_555 1_555
C19 N1 1_555 1_555
H15 C19 1_555 1_555
H16 C19 1_555 1_555
H18 C21 1_555 1_555
C23 C10 1_555 1_555
H21 C23 1_555 1_555
C24 O3 1_555 1_555
H22 C24 1_555 1_555
C25 C17 1_555 1_555
C26 N1 1_555 1_555
H24 C26 1_555 1_555
C30 C24 1_555 1_555
H29 C30 1_555 1_555
N4 C30 1_555 1_555
C31 C30 1_555 1_555
H30 C31 1_555 1_555
H31 C31 1_555 1_555
C32 C31 1_555 1_555
H32 C32 1_555 1_555
C33 C32 1_555 1_555
H33 C33 1_555 1_555
C34 C32 1_555 1_555
H34 C34 1_555 1_555
H35 C34 1_555 1_555
C35 C33 1_555 1_555
C36 N4 1_555 1_555
H36 C36 1_555 1_555
H37 C36 1_555 1_555
C37 N4 1_555 1_555
H38 C37 1_555 1_555
H39 C37 1_555 1_555
O7 C35 1_555 1_555
O8 C35 1_555 1_555
O10 Cd1 1_555 1_555
O11 Cd1 1_555 1_555
Cd3 O7 1_555 1_555
C3 C24 1_555 1_555
C4 C19 1_555 1_555
C5 C10 1_555 1_555
C7 C15 1_555 1_555
C17 C18 1_555 1_555
C21 C26 1_555 1_555
C23 C25 1_555 1_555
C33 C36 1_555 1_555
C34 C37 1_555 1_555
O8 Cd3 1_555 1_555
O1 H1 1_555 1_555
C1 H3 1_555 1_555
C2 O1 1_555 1_555
H4 C2 1_555 1_555
C6 C2 1_555 1_555
C8 C1 1_555 1_555
H7 C8 1_555 1_555
H8 C8 1_555 1_555
C9 C6 1_555 1_555
C11 C6 1_555 1_555
H9 C11 1_555 1_555
C12 C9 1_555 1_555
H10 C13 1_555 1_555
N3 C12 1_555 1_555
C20 C9 1_555 1_555
H17 C20 1_555 1_555
C22 C12 1_555 1_555
H20 C22 1_555 1_555
O5 C28 1_555 1_555
C27 C11 1_555 1_555
H25 C27 1_555 1_555
C28 C16 1_555 1_555
C29 O5 1_555 1_555
H27 C29 1_555 1_555
H28 C29 1_555 1_555
C1 C2 1_555 1_555
O4 Cd2 1_555 1_555
C8 C13 1_555 1_555
N3 C27 1_555 1_555
C16 C22 1_555 1_555
C20 C28 1_555 1_555
O2_2 C14_2 1_555 1_555
C4_2 H5_2 1_555 1_555
O4_2 C14_2 1_555 1_555
H8_2 C8_2 1_555 1_555
C13_2 C4_2 1_555 1_555
H10_2 C13_2 1_555 1_555
C14_2 C4_2 1_555 1_555
Cd2_2 O2_2 1_555 1_555
O4_2 Cd2_2 1_555 1_555
C8_2 C13_2 1_555 1_555
H32_2 C32_2 1_555 1_555
C34_2 C32_2 1_555 1_555
H34_2 C34_2 1_555 1_555
H35_2 C34_2 1_555 1_555
O11 C35_2 1_555 1_555
Cd3 N1_2 1_555 1_555
O1_2 H1_2 1_555 1_555
N1_2 C1_2 1_555 1_555
N2_2 Cd3 1_555 1_555
O3_2 H2_2 1_555 1_555
C1_2 H3_2 1_555 1_555
C2_2 O1_2 1_555 1_555
H4_2 C2_2 1_555 1_555
C3_2 C7_2 1_555 1_555
C5_2 N2_2 1_555 1_555
C6_2 C2_2 1_555 1_555
C7_2 H6_2 1_555 1_555
C9_2 C6_2 1_555 1_555
C10_2 C3_2 1_555 1_555
C11_2 C6_2 1_555 1_555
H9_2 C11_2 1_555 1_555
C12_2 C9_2 1_555 1_555
N3_2 C12_2 1_555 1_555
C15_2 N2_2 1_555 1_555
H11_2 C15_2 1_555 1_555
C17_2 H13_2 1_555 1_555
C18_2 C5_2 1_555 1_555
H14_2 C18_2 1_555 1_555
C19_2 N1_2 1_555 1_555
H15_2 C19_2 1_555 1_555
H16_2 C19_2 1_555 1_555
C20_2 C9_2 1_555 1_555
H17_2 C20_2 1_555 1_555
H19_2 C21_2 1_555 1_555
C22_2 C12_2 1_555 1_555
H20_2 C22_2 1_555 1_555
O5_2 C28_2 1_555 1_555
C23_2 C10_2 1_555 1_555
H21_2 C23_2 1_555 1_555
C24_2 O3_2 1_555 1_555
H22_2 C24_2 1_555 1_555
C25_2 C17_2 1_555 1_555
C26_2 N1_2 1_555 1_555
H23_2 C26_2 1_555 1_555
H24_2 C26_2 1_555 1_555
C27_2 C11_2 1_555 1_555
H25_2 C27_2 1_555 1_555
C28_2 C16_2 1_555 1_555
C29_2 O5_2 1_555 1_555
H27_2 C29_2 1_555 1_555
H28_2 C29_2 1_555 1_555
C30_2 C24_2 1_555 1_555
H29_2 C30_2 1_555 1_555
N4_2 C30_2 1_555 1_555
C31_2 C30_2 1_555 1_555
H31_2 C31_2 1_555 1_555
C36_2 N4_2 1_555 1_555
H36_2 C36_2 1_555 1_555
H37_2 C36_2 1_555 1_555
C37_2 N4_2 1_555 1_555
H38_2 C37_2 1_555 1_555
H39_2 C37_2 1_555 1_555
O9_2 Cd3 1_555 1_555
O10_2 Cd3 1_555 1_555
C1_2 C2_2 1_555 1_555
C3_2 C24_2 1_555 1_555
C5_2 C10_2 1_555 1_555
C7_2 C15_2 1_555 1_555
N3_2 C27_2 1_555 1_555
C16_2 C22_2 1_555 1_555
C17_2 C18_2 1_555 1_555
C20_2 C28_2 1_555 1_555
C21_2 C26_2 1_555 1_555
C23_2 C25_2 1_555 1_555
C33_2 C36_2 1_555 1_555
H18_3 C21_3 1_555 1_555
H19_3 C21_3 1_555 1_555
Cd2_2 N1_3 1_555 1_555
O1_3 H1_3 1_555 1_555
N1_3 C1_3 1_555 1_555
O9_2 C14_3 1_555 1_555
N2_3 Cd2_2 1_555 1_555
O3_3 H2_3 1_555 1_555
C1_3 H3_3 1_555 1_555
C2_3 O1_3 1_555 1_555
H4_3 C2_3 1_555 1_555
C3_3 C7_3 1_555 1_555
C4_3 H5_3 1_555 1_555
C5_3 N2_3 1_555 1_555
O10_2 C14_3 1_555 1_555
C6_3 C2_3 1_555 1_555
C7_3 H6_3 1_555 1_555
C8_3 C1_3 1_555 1_555
H7_3 C8_3 1_555 1_555
H8_3 C8_3 1_555 1_555
C9_3 C6_3 1_555 1_555
C10_3 C3_3 1_555 1_555
C11_3 C6_3 1_555 1_555
H9_3 C11_3 1_555 1_555
C12_3 C9_3 1_555 1_555
C13_3 C4_3 1_555 1_555
H10_3 C13_3 1_555 1_555
C14_3 C4_3 1_555 1_555
N3_3 C12_3 1_555 1_555
C15_3 N2_3 1_555 1_555
H11_3 C15_3 1_555 1_555
C16_3 H12 1_555 1_555
C17_3 H13_3 1_555 1_555
C18_3 C5_3 1_555 1_555
H14_3 C18_3 1_555 1_555
C19_3 N1_3 1_555 1_555
H15_3 C19_3 1_555 1_555
H16_3 C19_3 1_555 1_555
C20_3 C9_3 1_555 1_555
H17_3 C20_3 1_555 1_555
C22_3 C12_3 1_555 1_555
H20_3 C22_3 1_555 1_555
O5_3 C28_3 1_555 1_555
C23_3 C10_3 1_555 1_555
H21_3 C23_3 1_555 1_555
C24_3 O3_3 1_555 1_555
H22_3 C24_3 1_555 1_555
C25_3 C17_3 1_555 1_555
C26_3 N1_3 1_555 1_555
H24_3 C26_3 1_555 1_555
O6 C25_3 1_555 1_555
C27_3 C11_3 1_555 1_555
H25_3 C27_3 1_555 1_555
C28_3 C16_3 1_555 1_555
C29_3 O5_3 1_555 1_555
H26 C29_3 1_555 1_555
H27_3 C29_3 1_555 1_555
H28_3 C29_3 1_555 1_555
C30_3 C24_3 1_555 1_555
H29_3 C30_3 1_555 1_555
N4_3 C30_3 1_555 1_555
C31_3 C30_3 1_555 1_555
H31_3 C31_3 1_555 1_555
C36_3 N4_3 1_555 1_555
H36_3 C36_3 1_555 1_555
H37_3 C36_3 1_555 1_555
C37_3 N4_3 1_555 1_555
H38_3 C37_3 1_555 1_555
H39_3 C37_3 1_555 1_555
C38 O6 1_555 1_555
H40 C38 1_555 1_555
H41 C38 1_555 1_555
H42 C38 1_555 1_555
O12_2 Cd2_2 1_555 1_555
C1_3 C2_3 1_555 1_555
C3_3 C24_3 1_555 1_555
C4_3 C19_3 1_555 1_555
C5_3 C10_3 1_555 1_555
C7_3 C15_3 1_555 1_555
C8_3 C13_3 1_555 1_555
N3_3 C27_3 1_555 1_555
C16_3 C22_3 1_555 1_555
C17_3 C18_3 1_555 1_555
C20_3 C28_3 1_555 1_555
C23_3 C25_3 1_555 1_555
C33_3 C36_3 1_555 1_555
H32_3 C32_3 1_555 1_555
C34_3 C32_3 1_555 1_555
H34_3 C34_3 1_555 1_555
H35_3 C34_3 1_555 1_555
O7_2 C35_3 1_555 1_555
O1_4 H1_4 1_555 1_555
C1_4 H3_4 1_555 1_555
C2_4 O1_4 1_555 1_555
H4_4 C2_4 1_555 1_555
C6_4 C2_4 1_555 1_555
C9_4 C6_4 1_555 1_555
C11_4 C6_4 1_555 1_555
H9_4 C11_4 1_555 1_555
C12_4 C9_4 1_555 1_555
N3_4 C12_4 1_555 1_555
C16_4 H12_2 1_555 1_555
C20_4 C9_4 1_555 1_555
H17_4 C20_4 1_555 1_555
C22_4 C12_4 1_555 1_555
H20_4 C22_4 1_555 1_555
O5_4 C28_4 1_555 1_555
C27_4 C11_4 1_555 1_555
H25_4 C27_4 1_555 1_555
C28_4 C16_4 1_555 1_555
C29_4 O5_4 1_555 1_555
H26_2 C29_4 1_555 1_555
H27_4 C29_4 1_555 1_555
H28_4 C29_4 1_555 1_555
C1_4 C2_4 1_555 1_555
N3_4 C27_4 1_555 1_555
C16_4 C22_4 1_555 1_555
C20_4 C28_4 1_555 1_555
Cd2 N1_4 1_555 1_555
N2_4 Cd2 1_555 1_555
O3_4 H2_4 1_555 1_555
C3_4 C7_4 1_555 1_555
C5_4 N2_4 1_555 1_555
C7_4 H6_4 1_555 1_555
C10_4 C3_4 1_555 1_555
C15_4 N2_4 1_555 1_555
H11_4 C15_4 1_555 1_555
C17_4 H13_4 1_555 1_555
C18_4 C5_4 1_555 1_555
H14_4 C18_4 1_555 1_555
C19_4 N1_4 1_555 1_555
H15_4 C19_4 1_555 1_555
H16_4 C19_4 1_555 1_555
C23_4 C10_4 1_555 1_555
H21_4 C23_4 1_555 1_555
C24_4 O3_4 1_555 1_555
H22_4 C24_4 1_555 1_555
C25_4 C17_4 1_555 1_555
C26_4 N1_4 1_555 1_555
H24_4 C26_4 1_555 1_555
O6_2 C25_4 1_555 1_555
C30_4 C24_4 1_555 1_555
H29_4 C30_4 1_555 1_555
N4_4 C30_4 1_555 1_555
C31_4 C30_4 1_555 1_555
H30_4 C31_4 1_555 1_555
H31_4 C31_4 1_555 1_555
C32_4 C31_4 1_555 1_555
H32_4 C32_4 1_555 1_555
C33_4 C32_4 1_555 1_555
H33_4 C33_4 1_555 1_555
C34_4 C32_4 1_555 1_555
H34_4 C34_4 1_555 1_555
H35_4 C34_4 1_555 1_555
C35_4 C33_4 1_555 1_555
C36_4 N4_4 1_555 1_555
H36_4 C36_4 1_555 1_555
H37_4 C36_4 1_555 1_555
C37_4 N4_4 1_555 1_555
H38_4 C37_4 1_555 1_555
H39_4 C37_4 1_555 1_555
O11_2 C35_4 1_555 1_555
C38_2 O6_2 1_555 1_555
H40_2 C38_2 1_555 1_555
H41_2 C38_2 1_555 1_555
H42_2 C38_2 1_555 1_555
C3_4 C24_4 1_555 1_555
C5_4 C10_4 1_555 1_555
C7_4 C15_4 1_555 1_555
C17_4 C18_4 1_555 1_555
C23_4 C25_4 1_555 1_555
C33_4 C36_4 1_555 1_555
C34_4 C37_4 1_555 1_555
H8_4 C8_4 1_555 1_555
H10_4 C13_4 1_555 1_555
C8_4 C13_4 1_555 1_555
O9 C14_4 1_555 1_555
C4_4 H5_4 1_555 1_555
C14_4 C4_4 1_555 1_555
C38_3 O6_3 1_555 1_555
H40_3 C38_3 1_555 1_555
H41_3 C38_3 1_555 1_555
H42_3 C38_3 1_555 1_555
C38_4 O6_4 1_555 1_555
H40_4 C38_4 1_555 1_555
H41_4 C38_4 1_555 1_555
H42_4 C38_4 1_555 1_555

#END
