
###############################################################################
#
# This file contains modified crystal structure data generated from the
# MOF subset of the Cambridge Structural Database (CSD) v543 
# hosted by the Cambridge Crystallographic Data Centre (CCDC).
#
# This work is licensed under the Creative Commons
# Attribution-NonCommercial-ShareAlike 4.0 International License.
# To view a copy of this license, visit
# http://creativecommons.org/licenses/by-nc-sa/4.0/
# or send a letter to
# Creative Commons, PO Box 1866, Mountain View, CA 94042, USA.
#
# CIF created using the CSD Python API on 29 September 2022
# The structure has been converted into the P1 space group
# The structure has a 3D framework
# The original CSD entry MIHHOA is in the orthorhombic crystal system
# The original CSD entry MIHHOA is in a Sohncke space group
# The framework has been calculated to contain at least 10.0% void space
# The void calculation uses a probe of radius 1.32A, grid spacing 0.4
#
###############################################################################

data_MIHHOA
_chemical_formula_moiety         '(C152 H168 Cd4 N16 O29)n'
_symmetry_cell_setting           triclinic
_symmetry_space_group_name_H-M   'P 1'
_symmetry_Int_Tables_number      1
_space_group_name_Hall           'P 1'
loop_
_symmetry_equiv_pos_site_id
_symmetry_equiv_pos_as_xyz
1 x,y,z
_cell_length_a                   13.7818(9)
_cell_length_b                   15.0617(10)
_cell_length_c                   19.3555(13)
_cell_angle_alpha                90
_cell_angle_beta                 90
_cell_angle_gamma                90
_cell_volume                     4017.76
loop_
_atom_site_label
_atom_site_type_symbol
_atom_site_fract_x
_atom_site_fract_y
_atom_site_fract_z
O1 O 0.1988(2) 0.04906(16) 0.13345(12)
H1 H 0.2440 0.0349 0.1082
C2 C 0.1732(2) 0.1395(3) 0.12081(16)
H4 H 0.2318 0.1730 0.1088
C3 C 0.0988(2) 0.1480(2) 0.06189(16)
H5 H 0.0846 0.2116 0.0576
C5 C 0.0729(3) 0.2986(3) 0.2586(2)
N2 N 0.0437(3) 0.2409(3) 0.30977(17)
C8 C 0.1300(3) 0.1774(2) 0.18605(18)
C9 C 0.1154(3) 0.2705(3) 0.19493(19)
C10 C 0.1017(3) 0.1212(3) 0.23849(18)
H7 H 0.1111 0.0603 0.2340
C11 C 0.0593(3) 0.1550(3) 0.2981(2)
H8 H 0.0406 0.1149 0.3321
C13 C 0.1402(3) 0.3355(3) 0.1459(2)
H10 H 0.1687 0.3185 0.1044
C14 C 0.0604(4) 0.3898(3) 0.2713(2)
H11 H 0.0362 0.4087 0.3137
C18 C 0.1232(3) 0.4225(3) 0.1582(2)
C20 C 0.0010(3) 0.1023(3) 0.0770(2)
H17 H 0.0109 0.0508 0.1062
O3 O 0.1404(3) 0.4902(2) 0.11312(19)
C24 C 0.0835(4) 0.4502(3) 0.2222(3)
H22 H 0.0733 0.5102 0.2306
C29 C 0.1637(5) 0.4664(4) 0.0459(3)
H26 H 0.1739 0.5190 0.0188
H27 H 0.1115 0.4325 0.0263
H28 H 0.2218 0.4313 0.0460
O9 O 0.31838(18) 0.27141(17) 0.02708(13)
O11 O 0.3482(2) 0.02162(19) 0.04352(15)
Cd1 Cd 0.302315(18) 0.139032(17) 0.966301(13)
C1 C 0.3171(3) 0.1374(3) 0.73545(17)
H2 H 0.3339 0.0916 0.7055
O2 O 0.3946(2) 0.1989(2) 0.60840(14)
H3 H 0.4004 0.2067 0.5667
N1 N 0.2918(2) 0.18230(19) 0.85177(14)
C4 C 0.2955(3) 0.2198(2) 0.70914(17)
C7 C 0.2675(3) 0.2655(2) 0.82817(19)
N3 N 0.1360(2) 0.11881(18) 0.99263(14)
C16 C 0.1218(2) 0.02109(18) 0.98496(13)
H15 H 0.1535 0.0011 0.9430
C17 C 0.3067(2) 0.23413(18) 0.63049(13)
H16 H 0.3042 0.2977 0.6199
C19 C 0.2662(3) 0.2865(2) 0.75658(19)
C21 C 0.3143(3) 0.1214(2) 0.80584(19)
H19 H 0.3291 0.0647 0.8214
C22 C 0.2147(4) 0.4124(3) 0.8553(2)
H20 H 0.1992 0.4551 0.8882
C23 C 0.2356(3) 0.3721(3) 0.7372(2)
H21 H 0.2337 0.3870 0.6905
C25 C 0.2424(3) 0.3314(3) 0.8759(2)
H23 H 0.2450 0.3187 0.9229
O4 O 0.1750(4) 0.5138(2) 0.7680(3)
C26 C 0.2087(4) 0.4337(3) 0.7853(2)
C27 C 0.0736(3) 0.1643(2) 0.94100(18)
H24 H 0.0896 0.1426 0.8952
H25 H 0.0870 0.2275 0.9421
C30 C 0.1386(8) 0.5374(6) 0.7096(4)
H29 H 0.1204 0.5989 0.7116
H30 H 0.0824 0.5019 0.6999
H31 H 0.1860 0.5290 0.6738
C31 C 0.2285(3) 0.1855(3) 0.58987(18)
H32 H 0.2343 0.1225 0.6019
C32 C 0.2472(3) 0.1923(3) 0.51202(19)
H33 H 0.2820 0.2467 0.5016
H34 H 0.2859 0.1424 0.4965
N4 N 0.1286(3) 0.2119(2) 0.60651(18)
C33 C 0.0642(3) 0.1418(3) 0.5807(2)
H36 H 0.0724 0.0891 0.6088
C34 C 0.1054(4) 0.2952(3) 0.5691(2)
H37 H 0.1551 0.3391 0.5788
H38 H 0.0439 0.3183 0.5856
C35 C 0.0993(4) 0.2802(3) 0.4913(2)
H39 H 0.0320 0.2787 0.4766
H40 H 0.1319 0.3279 0.4669
C36 C 0.1481(3) 0.1922(3) 0.4756(2)
H41 H 0.1563 0.1846 0.4256
C37 C 0.0844(3) 0.1185(3) 0.5053(2)
H42 H 0.0222 0.1204 0.4807
C38 C 0.1284(3) 0.0260(3) 0.4932(2)
O8 O 0.1393(3) 0.00037(19) 0.43235(16)
O10 O 0.4517(2) 0.20757(19) 0.99214(15)
C15 C 0.0141(3) 0.9963(3) 0.9819(3)
O7 O 0.1518(2) 0.97838(19) 0.54352(15)
O12 O 0.3607(3) 0.99963(19) 0.93235(16)
Cd3 Cd 0.197685(18) 0.860968(17) 0.466301(13)
C12 C 0.9565(3) 0.0742(3) 0.0080(2)
H9 H 0.8883 0.0576 0.0142
H18 H 0.9578 0.1431 0.1008
O6 O 0.9517(2) 0.29243(19) 0.00786(15)
Cd2 Cd 0.802315(18) 0.360968(17) 0.033699(13)
C6 C 0.9656(3) 0.1491(3) 0.95465(18)
H6 H 0.9361 0.1283 0.9115
C28 C 0.9088(3) 0.2300(3) 0.97898(17)
O5 O 0.81838(18) 0.22859(17) 0.97292(13)
H35 H 0.9974 0.1611 0.5852
C15_2 C 0.4859(3) 0.0037(3) 0.4819(3)
H12 H 0.5044 0.0175 0.4348
H13 H 0.4982 0.0554 0.5104
H14 H 0.3481 0.0091 0.5237
O1_2 O 0.3012(2) 0.95094(16) 0.63345(12)
H1_2 H 0.2560 0.9651 0.6082
C1_2 C 0.1829(3) 0.8626(3) 0.23545(17)
H2_2 H 0.1661 0.9084 0.2055
O2_2 O 0.1054(2) 0.8011(2) 0.10840(14)
H3_2 H 0.0996 0.7933 0.0667
N1_2 N 0.2082(2) 0.81770(19) 0.35177(14)
C2_2 C 0.3268(2) 0.8605(3) 0.62081(16)
H4_2 H 0.2682 0.8270 0.6088
C3_2 C 0.4012(2) 0.8520(2) 0.56189(16)
H5_2 H 0.4154 0.7884 0.5576
C4_2 C 0.2045(3) 0.7802(2) 0.20914(17)
C5_2 C 0.4271(3) 0.7014(3) 0.7586(2)
C6_2 C 0.5344(3) 0.8509(3) 0.45465(18)
H6_2 H 0.5639 0.8717 0.4115
C7_2 C 0.2325(3) 0.7345(2) 0.32817(19)
N2_2 N 0.4563(3) 0.7591(3) 0.80977(17)
C8_2 C 0.3700(3) 0.8226(2) 0.68605(18)
C9_2 C 0.3846(3) 0.7295(3) 0.69493(19)
C10_2 C 0.3983(3) 0.8788(3) 0.73849(18)
H7_2 H 0.3889 0.9397 0.7340
C11_2 C 0.4407(3) 0.8450(3) 0.7981(2)
H8_2 H 0.4594 0.8851 0.8321
C12_2 C 0.5435(3) 0.9258(3) 0.5080(2)
H9_2 H 0.6117 0.9424 0.5142
N3_2 N 0.3640(2) 0.88119(18) 0.49263(14)
C13_2 C 0.3598(3) 0.6645(3) 0.6459(2)
H10_2 H 0.3313 0.6815 0.6044
C14_2 C 0.4396(4) 0.6102(3) 0.7713(2)
H11_2 H 0.4638 0.5913 0.8137
C16_2 C 0.3782(2) 0.97891(18) 0.48496(13)
H15_2 H 0.3465 0.9989 0.4430
C17_2 C 0.1933(2) 0.76587(18) 0.13049(13)
H16_2 H 0.1958 0.7023 0.1199
C18_2 C 0.3768(3) 0.5775(3) 0.6582(2)
C19_2 C 0.2338(3) 0.7135(2) 0.25658(19)
C20_2 C 0.4990(3) 0.8977(3) 0.5770(2)
H17_2 H 0.4891 0.9492 0.6062
H18_2 H 0.5422 0.8569 0.6008
C21_2 C 0.1857(3) 0.8786(2) 0.30584(19)
H19_2 H 0.1709 0.9353 0.3214
C22_2 C 0.2853(4) 0.5876(3) 0.3553(2)
H20_2 H 0.3008 0.5449 0.3882
C23_2 C 0.2644(3) 0.6279(3) 0.2372(2)
H21_2 H 0.2663 0.6130 0.1905
O3_2 O 0.3596(3) 0.5098(2) 0.61312(19)
C24_2 C 0.4165(4) 0.5498(3) 0.7222(3)
H22_2 H 0.4267 0.4898 0.7306
C25_2 C 0.2576(3) 0.6686(3) 0.3759(2)
H23_2 H 0.2550 0.6813 0.4229
O4_2 O 0.3250(4) 0.4862(2) 0.2680(3)
C26_2 C 0.2913(4) 0.5663(3) 0.2853(2)
C27_2 C 0.4264(3) 0.8357(2) 0.44100(18)
H24_2 H 0.4104 0.8574 0.3952
H25_2 H 0.4130 0.7725 0.4421
C28_2 C 0.5912(3) 0.7700(3) 0.47898(17)
O5_2 O 0.68162(18) 0.77141(17) 0.47292(13)
O6_2 O 0.5483(2) 0.70757(19) 0.50786(15)
C29_2 C 0.3363(5) 0.5336(4) 0.5459(3)
H26_2 H 0.3261 0.4810 0.5188
H27_2 H 0.3885 0.5675 0.5263
H28_2 H 0.2782 0.5687 0.5460
C30_2 C 0.3614(8) 0.4626(6) 0.2096(4)
H29_2 H 0.3796 0.4011 0.2116
H30_2 H 0.4176 0.4981 0.1999
H31_2 H 0.3140 0.4710 0.1738
C31_2 C 0.2715(3) 0.8145(3) 0.08987(18)
H32_2 H 0.2657 0.8775 0.1019
C32_2 C 0.2528(3) 0.8077(3) 0.01202(19)
H33_2 H 0.2180 0.7533 0.0016
N4_2 N 0.3714(3) 0.7881(2) 0.10651(18)
C33_2 C 0.4358(3) 0.8582(3) 0.0807(2)
H35_2 H 0.5026 0.8389 0.0852
H36_2 H 0.4276 0.9109 0.1088
C34_2 C 0.3946(4) 0.7048(3) 0.0691(2)
H37_2 H 0.3449 0.6609 0.0788
H38_2 H 0.4561 0.6817 0.0856
C37_2 C 0.4156(3) 0.8815(3) 0.0053(2)
O9_2 O 0.18162(18) 0.72859(17) 0.52708(13)
O10_2 O 0.0483(2) 0.79243(19) 0.49214(15)
Cd2_2 Cd 0.697685(18) 0.639032(17) 0.533699(13)
H34_2 H 0.2141 0.8576 0.9965
C35_2 C 0.4007(4) 0.7198(3) 0.9913(2)
H39_2 H 0.4680 0.7213 0.9766
H40_2 H 0.3681 0.6721 0.9669
C36_2 C 0.3519(3) 0.8078(3) 0.9756(2)
H41_2 H 0.3437 0.8154 0.9256
H42_2 H 0.4778 0.8796 0.9807
C38_2 C 0.3716(3) 0.9740(3) 0.9932(2)
C6_3 C 0.0344(3) 0.6491(3) 0.54535(18)
H6_3 H 0.0639 0.6283 0.5885
C12_3 C 0.0435(3) 0.5742(3) 0.4920(2)
H9_3 H 0.1117 0.5576 0.4858
H12_2 H 0.0044 0.4825 0.5652
H18_3 H 0.0422 0.6431 0.3992
C28_3 C 0.0912(3) 0.7300(3) 0.52102(17)
H35_3 H 0.0026 0.6611 0.9148
H34_3 H 0.7141 0.6424 0.0035
C35_3 C 0.9007(4) 0.7802(3) 0.0087(2)
H39_3 H 0.9680 0.7787 0.0234
H40_3 H 0.8681 0.8279 0.0331
C36_3 C 0.8519(3) 0.6922(3) 0.0244(2)
H41_3 H 0.8437 0.6846 0.0744
H42_3 H 0.9778 0.6204 0.0193
C38_3 C 0.8716(3) 0.5260(3) 0.0068(2)
O8_2 O 0.8607(3) 0.50037(19) 0.06765(16)
O1_3 O 0.8012(2) 0.54906(16) 0.36655(12)
H1_3 H 0.7560 0.5349 0.3918
C1_3 C 0.6829(3) 0.6374(3) 0.76455(17)
H2_3 H 0.6661 0.5916 0.7945
O2_3 O 0.6054(2) 0.6989(2) 0.89160(14)
H3_3 H 0.5996 0.7067 0.9333
N1_3 N 0.7082(2) 0.68230(19) 0.64823(14)
C2_3 C 0.8268(2) 0.6395(3) 0.37919(16)
H4_3 H 0.7682 0.6730 0.3912
C3_3 C 0.9012(2) 0.6480(2) 0.43811(16)
H5_3 H 0.9154 0.7116 0.4424
C4_3 C 0.7045(3) 0.7198(2) 0.79086(17)
C5_3 C 0.9271(3) 0.7986(3) 0.2414(2)
C7_3 C 0.7325(3) 0.7655(2) 0.67183(19)
N2_3 N 0.9563(3) 0.7409(3) 0.19023(17)
C8_3 C 0.8700(3) 0.6774(2) 0.31395(18)
C9_3 C 0.8846(3) 0.7705(3) 0.30507(19)
C10_3 C 0.8983(3) 0.6212(3) 0.26151(18)
H7_3 H 0.8889 0.5603 0.2660
C11_3 C 0.9407(3) 0.6550(3) 0.2019(2)
H8_3 H 0.9594 0.6149 0.1679
N3_3 N 0.8640(2) 0.61881(18) 0.50737(14)
C13_3 C 0.8598(3) 0.8355(3) 0.3541(2)
H10_3 H 0.8313 0.8185 0.3956
C14_3 C 0.9396(4) 0.8898(3) 0.2287(2)
H11_3 H 0.9638 0.9087 0.1863
C15_3 C 0.9859(3) 0.4963(3) 0.5181(3)
H13_2 H 0.9982 0.4446 0.4896
C16_3 C 0.8782(2) 0.52109(18) 0.51504(13)
H14_2 H 0.8481 0.4909 0.4763
H15_3 H 0.8465 0.5011 0.5570
C17_3 C 0.6933(2) 0.73413(18) 0.86951(13)
H16_3 H 0.6958 0.7977 0.8801
C18_3 C 0.8768(3) 0.9225(3) 0.3418(2)
C19_3 C 0.7338(3) 0.7865(2) 0.74342(19)
C20_3 C 0.9990(3) 0.6023(3) 0.4230(2)
H17_3 H 0.9891 0.5508 0.3938
C21_3 C 0.6857(3) 0.6214(2) 0.69416(19)
H19_3 H 0.6709 0.5647 0.6786
C22_3 C 0.7853(4) 0.9124(3) 0.6447(2)
H20_3 H 0.8008 0.9551 0.6118
C23_3 C 0.7644(3) 0.8721(3) 0.7628(2)
H21_3 H 0.7663 0.8870 0.8095
O3_3 O 0.8596(3) 0.9902(2) 0.38688(19)
C24_3 C 0.9165(4) 0.9502(3) 0.2778(3)
C25_3 C 0.7576(3) 0.8314(3) 0.6241(2)
H23_3 H 0.7550 0.8187 0.5771
C26_3 C 0.7913(4) 0.9337(3) 0.7147(2)
C27_3 C 0.9264(3) 0.6643(2) 0.55900(18)
H24_3 H 0.9104 0.6426 0.6048
H25_3 H 0.9130 0.7275 0.5579
C29_3 C 0.8363(5) 0.9664(4) 0.4541(3)
H27_3 H 0.8885 0.9325 0.4737
H28_3 H 0.7782 0.9313 0.4540
C31_3 C 0.7715(3) 0.6855(3) 0.91013(18)
H32_3 H 0.7657 0.6225 0.8981
C32_3 C 0.7528(3) 0.6923(3) 0.98798(19)
H33_3 H 0.7180 0.7467 0.9984
N4_3 N 0.8714(3) 0.7119(2) 0.89349(18)
C33_3 C 0.9358(3) 0.6418(3) 0.9193(2)
H36_3 H 0.9276 0.5891 0.8912
C34_3 C 0.8946(4) 0.7952(3) 0.9309(2)
H37_3 H 0.8449 0.8391 0.9212
H38_3 H 0.9561 0.8183 0.9144
C37_3 C 0.9156(3) 0.6185(3) 0.9947(2)
O7_2 O 0.8482(2) 0.47838(19) 0.95648(15)
O11_2 O 0.6518(2) 0.52162(19) 0.45648(15)
O12_2 O 0.6393(3) 0.49963(19) 0.56765(16)
C1_4 C 0.8171(3) 0.3626(3) 0.26455(17)
H2_4 H 0.8339 0.4084 0.2945
O2_4 O 0.8946(2) 0.3011(2) 0.39160(14)
H3_4 H 0.9004 0.2933 0.4333
N1_4 N 0.7918(2) 0.31770(19) 0.14823(14)
C4_4 C 0.7955(3) 0.2802(2) 0.29086(17)
C6_4 C 0.4656(3) 0.3509(3) 0.04535(18)
H6_4 H 0.4361 0.3717 0.0885
C7_4 C 0.7675(3) 0.2345(2) 0.17183(19)
N3_4 N 0.6360(2) 0.38119(18) 0.00737(14)
C15_4 C 0.5141(3) 0.5037(3) 0.0181(3)
H12_3 H 0.4956 0.5175 0.0652
C16_4 C 0.6218(2) 0.47891(18) 0.01504(13)
H15_4 H 0.6535 0.4989 0.0570
C17_4 C 0.8067(2) 0.26587(18) 0.36951(13)
H16_4 H 0.8042 0.2023 0.3801
C19_4 C 0.7662(3) 0.2135(2) 0.24342(19)
C21_4 C 0.8143(3) 0.3786(2) 0.19416(19)
H19_4 H 0.8291 0.4353 0.1786
C22_4 C 0.7147(4) 0.0876(3) 0.1447(2)
H20_4 H 0.6992 0.0449 0.1118
C23_4 C 0.7356(3) 0.1279(3) 0.2628(2)
H21_4 H 0.7337 0.1130 0.3095
C25_4 C 0.7424(3) 0.1686(3) 0.1241(2)
H23_4 H 0.7450 0.1813 0.0771
C26_4 C 0.7087(4) 0.0663(3) 0.2147(2)
C27_4 C 0.5736(3) 0.3357(2) 0.05900(18)
H24_4 H 0.5896 0.3574 0.1048
H25_4 H 0.5870 0.2725 0.0579
C28_4 C 0.4088(3) 0.2700(3) 0.02102(17)
C31_4 C 0.7285(3) 0.3145(3) 0.41013(18)
H32_4 H 0.7343 0.3775 0.3981
C32_4 C 0.7472(3) 0.3077(3) 0.48798(19)
H33_4 H 0.7820 0.2533 0.4984
H34_4 H 0.7859 0.3576 0.5035
N4_4 N 0.6286(3) 0.2881(2) 0.39349(18)
C33_4 C 0.5642(3) 0.3582(3) 0.4193(2)
H35_4 H 0.4974 0.3389 0.4148
H36_4 H 0.5724 0.4109 0.3912
C34_4 C 0.6054(4) 0.2048(3) 0.4309(2)
H37_4 H 0.6551 0.1609 0.4212
H38_4 H 0.5439 0.1817 0.4144
C35_4 C 0.5993(4) 0.2198(3) 0.5087(2)
H39_4 H 0.5320 0.2213 0.5234
H40_4 H 0.6319 0.1721 0.5331
C36_4 C 0.6481(3) 0.3078(3) 0.5244(2)
H41_4 H 0.6563 0.3154 0.5744
C37_4 C 0.5844(3) 0.3815(3) 0.4947(2)
H42_4 H 0.5222 0.3796 0.5193
C38_4 C 0.6284(3) 0.4740(3) 0.5068(2)
O1_4 O 0.6988(2) 0.45094(16) 0.86655(12)
H1_4 H 0.7440 0.4651 0.8918
C2_4 C 0.6732(2) 0.3605(3) 0.87919(16)
H4_4 H 0.7318 0.3270 0.8912
C3_4 C 0.5988(2) 0.3520(2) 0.93811(16)
H5_4 H 0.5846 0.2884 0.9424
C5_4 C 0.5729(3) 0.2014(3) 0.7414(2)
N2_4 N 0.5437(3) 0.2591(3) 0.69023(17)
C8_4 C 0.6300(3) 0.3226(2) 0.81395(18)
C9_4 C 0.6154(3) 0.2295(3) 0.80507(19)
C10_4 C 0.6017(3) 0.3788(3) 0.76151(18)
H7_4 H 0.6111 0.4397 0.7660
C11_4 C 0.5593(3) 0.3450(3) 0.7019(2)
H8_4 H 0.5406 0.3851 0.6679
C12_4 C 0.4565(3) 0.4258(3) 0.9920(2)
H9_4 H 0.3883 0.4424 0.9858
C13_4 C 0.6402(3) 0.1645(3) 0.8541(2)
H10_4 H 0.6687 0.1815 0.8956
C14_4 C 0.5604(4) 0.1102(3) 0.7287(2)
H11_4 H 0.5362 0.0913 0.6863
H13_3 H 0.5018 0.5554 0.9896
H14_3 H 0.6519 0.5091 0.9763
C18_4 C 0.6232(3) 0.0775(3) 0.8418(2)
C20_4 C 0.5010(3) 0.3977(3) 0.9230(2)
H17_4 H 0.5109 0.4492 0.8938
H18_4 H 0.4578 0.3569 0.8992
O3_4 O 0.6404(3) 0.0098(2) 0.88688(19)
C24_4 C 0.5835(4) 0.0498(3) 0.7778(3)
C29_4 C 0.6637(5) 0.0336(4) 0.9541(3)
H27_4 H 0.6115 0.0675 0.9737
H28_4 H 0.7218 0.0687 0.9540
H13_4 H 0.0018 0.9446 0.0104
H14_4 H 0.1519 0.9909 0.0237
H12_4 H 0.9956 0.9825 0.9348
H22_3 H 0.9267 0.0102 0.2694
O4_3 O 0.8250(4) 0.0138(2) 0.7320(3)
H26_3 H 0.8261 0.0190 0.4812
C30_3 C 0.8614(8) 0.0374(6) 0.7904(4)
H29_3 H 0.8796 0.0989 0.7884
H30_3 H 0.9176 0.0019 0.8001
H31_3 H 0.8140 0.0290 0.8262
O4_4 O 0.6750(4) 0.9862(2) 0.2320(3)
C30_4 C 0.6386(8) 0.9626(6) 0.2904(4)
H29_4 H 0.6204 0.9011 0.2884
H30_4 H 0.5824 0.9981 0.3001
H31_4 H 0.6860 0.9710 0.3262
H22_4 H 0.5733 0.9898 0.7694
H26_4 H 0.6739 0.9810 0.9812
loop_
_geom_bond_atom_site_label_1
_geom_bond_atom_site_label_2
_geom_bond_site_symmetry_1
_geom_bond_site_symmetry_2
O1 H1 1_555 1_555
C2 O1 1_555 1_555
H4 C2 1_555 1_555
C3 C2 1_555 1_555
H5 C3 1_555 1_555
C5 N2 1_555 1_555
N2 C11 1_555 1_555
C8 C2 1_555 1_555
C9 C5 1_555 1_555
C10 C8 1_555 1_555
H7 C10 1_555 1_555
C11 C10 1_555 1_555
H8 C11 1_555 1_555
C13 C9 1_555 1_555
H10 C13 1_555 1_555
C14 C5 1_555 1_555
H11 C14 1_555 1_555
C18 C13 1_555 1_555
C20 C3 1_555 1_555
H17 C20 1_555 1_555
O3 C18 1_555 1_555
C24 C14 1_555 1_555
H22 C24 1_555 1_555
C29 O3 1_555 1_555
H26 C29 1_555 1_555
H27 C29 1_555 1_555
H28 C29 1_555 1_555
C8 C9 1_555 1_555
C18 C24 1_555 1_555
Cd1 N1 1_555 1_555
C1 H2 1_555 1_555
O2 H3 1_555 1_555
N1 C7 1_555 1_555
C4 C1 1_555 1_555
C7 C19 1_555 1_555
N3 Cd1 1_555 1_555
C16 N3 1_555 1_555
H15 C16 1_555 1_555
C17 O2 1_555 1_555
H16 C17 1_555 1_555
C19 C4 1_555 1_555
C21 C1 1_555 1_555
H19 C21 1_555 1_555
C22 H20 1_555 1_555
C23 C19 1_555 1_555
H21 C23 1_555 1_555
C25 C7 1_555 1_555
H23 C25 1_555 1_555
O4 C26 1_555 1_555
C26 C22 1_555 1_555
H24 C27 1_555 1_555
H25 C27 1_555 1_555
C30 O4 1_555 1_555
H29 C30 1_555 1_555
H30 C30 1_555 1_555
H31 C30 1_555 1_555
C31 C17 1_555 1_555
H32 C31 1_555 1_555
C32 C31 1_555 1_555
H33 C32 1_555 1_555
H34 C32 1_555 1_555
N4 C31 1_555 1_555
C33 N4 1_555 1_555
H36 C33 1_555 1_555
C34 N4 1_555 1_555
H37 C34 1_555 1_555
H38 C34 1_555 1_555
C35 C34 1_555 1_555
H39 C35 1_555 1_555
H40 C35 1_555 1_555
C36 C32 1_555 1_555
H41 C36 1_555 1_555
C37 C33 1_555 1_555
H42 C37 1_555 1_555
C38 C37 1_555 1_555
O8 C38 1_555 1_555
O10 Cd1 1_555 1_555
N1 C21 1_555 1_555
C4 C17 1_555 1_555
N3 C27 1_555 1_555
C22 C25 1_555 1_555
C23 C26 1_555 1_555
C35 C36 1_555 1_555
C36 C37 1_555 1_555
Cd3 O7 1_555 1_555
H9 C12 1_555 1_555
O6 Cd2 1_555 1_555
C6 H6 1_555 1_555
C28 C6 1_555 1_555
O5 C28 1_555 1_555
H12 C15_2 1_555 1_555
H13 C15_2 1_555 1_555
Cd3 N1_2 1_555 1_555
O1_2 H1_2 1_555 1_555
C1_2 H2_2 1_555 1_555
O2_2 H3_2 1_555 1_555
N1_2 C7_2 1_555 1_555
C2_2 O1_2 1_555 1_555
H4_2 C2_2 1_555 1_555
C3_2 C2_2 1_555 1_555
H5_2 C3_2 1_555 1_555
C4_2 C1_2 1_555 1_555
C5_2 N2_2 1_555 1_555
C6_2 H6_2 1_555 1_555
C7_2 C19_2 1_555 1_555
N2_2 C11_2 1_555 1_555
C8_2 C2_2 1_555 1_555
C9_2 C5_2 1_555 1_555
C10_2 C8_2 1_555 1_555
H7_2 C10_2 1_555 1_555
C11_2 C10_2 1_555 1_555
H8_2 C11_2 1_555 1_555
C12_2 C6_2 1_555 1_555
H9_2 C12_2 1_555 1_555
N3_2 Cd3 1_555 1_555
C13_2 C9_2 1_555 1_555
H10_2 C13_2 1_555 1_555
C14_2 C5_2 1_555 1_555
H11_2 C14_2 1_555 1_555
C16_2 N3_2 1_555 1_555
H15_2 C16_2 1_555 1_555
C17_2 O2_2 1_555 1_555
H16_2 C17_2 1_555 1_555
C18_2 C13_2 1_555 1_555
C19_2 C4_2 1_555 1_555
C20_2 C3_2 1_555 1_555
H17_2 C20_2 1_555 1_555
H18_2 C20_2 1_555 1_555
C21_2 C1_2 1_555 1_555
H19_2 C21_2 1_555 1_555
C22_2 H20_2 1_555 1_555
C23_2 C19_2 1_555 1_555
H21_2 C23_2 1_555 1_555
O3_2 C18_2 1_555 1_555
C24_2 C14_2 1_555 1_555
H22_2 C24_2 1_555 1_555
C25_2 C7_2 1_555 1_555
H23_2 C25_2 1_555 1_555
O4_2 C26_2 1_555 1_555
C26_2 C22_2 1_555 1_555
C27_2 C6_2 1_555 1_555
H24_2 C27_2 1_555 1_555
H25_2 C27_2 1_555 1_555
C28_2 C6_2 1_555 1_555
O5_2 C28_2 1_555 1_555
O6_2 C28_2 1_555 1_555
C29_2 O3_2 1_555 1_555
H26_2 C29_2 1_555 1_555
H27_2 C29_2 1_555 1_555
H28_2 C29_2 1_555 1_555
C30_2 O4_2 1_555 1_555
H29_2 C30_2 1_555 1_555
H30_2 C30_2 1_555 1_555
H31_2 C30_2 1_555 1_555
C31_2 C17_2 1_555 1_555
H32_2 C31_2 1_555 1_555
C32_2 C31_2 1_555 1_555
H33_2 C32_2 1_555 1_555
N4_2 C31_2 1_555 1_555
C33_2 N4_2 1_555 1_555
H35_2 C33_2 1_555 1_555
H36_2 C33_2 1_555 1_555
C34_2 N4_2 1_555 1_555
H37_2 C34_2 1_555 1_555
H38_2 C34_2 1_555 1_555
C37_2 C33_2 1_555 1_555
O9_2 Cd3 1_555 1_555
O10_2 Cd3 1_555 1_555
Cd2_2 O5_2 1_555 1_555
N1_2 C21_2 1_555 1_555
C3_2 N3_2 1_555 1_555
C4_2 C17_2 1_555 1_555
C8_2 C9_2 1_555 1_555
C12_2 C20_2 1_555 1_555
N3_2 C27_2 1_555 1_555
C18_2 C24_2 1_555 1_555
C22_2 C25_2 1_555 1_555
C23_2 C26_2 1_555 1_555
O6_2 Cd2_2 1_555 1_555
H39_2 C35_2 1_555 1_555
H40_2 C35_2 1_555 1_555
H41_2 C36_2 1_555 1_555
O12 C38_2 1_555 1_555
C35_2 C36_2 1_555 1_555
C6_3 H6_3 1_555 1_555
C12_3 C6_3 1_555 1_555
H9_3 C12_3 1_555 1_555
C28_3 C6_3 1_555 1_555
O9_2 C28_3 1_555 1_555
O10_2 C28_3 1_555 1_555
H39_3 C35_3 1_555 1_555
H40_3 C35_3 1_555 1_555
H41_3 C36_3 1_555 1_555
O8_2 C38_3 1_555 1_555
C35_3 C36_3 1_555 1_555
O8_2 Cd2 1_555 1_555
Cd2_2 N1_3 1_555 1_555
O1_3 H1_3 1_555 1_555
C1_3 H2_3 1_555 1_555
O2_3 H3_3 1_555 1_555
N1_3 C7_3 1_555 1_555
C2_3 O1_3 1_555 1_555
H4_3 C2_3 1_555 1_555
C3_3 C2_3 1_555 1_555
H5_3 C3_3 1_555 1_555
C4_3 C1_3 1_555 1_555
C5_3 N2_3 1_555 1_555
C7_3 C19_3 1_555 1_555
N2_3 C11_3 1_555 1_555
C8_3 C2_3 1_555 1_555
C9_3 C5_3 1_555 1_555
C10_3 C8_3 1_555 1_555
H7_3 C10_3 1_555 1_555
C11_3 C10_3 1_555 1_555
H8_3 C11_3 1_555 1_555
N3_3 Cd2_2 1_555 1_555
C13_3 C9_3 1_555 1_555
H10_3 C13_3 1_555 1_555
C14_3 C5_3 1_555 1_555
H11_3 C14_3 1_555 1_555
H13_2 C15_3 1_555 1_555
C16_3 N3_3 1_555 1_555
H14_2 C16_3 1_555 1_555
H15_3 C16_3 1_555 1_555
C17_3 O2_3 1_555 1_555
H16_3 C17_3 1_555 1_555
C18_3 C13_3 1_555 1_555
C19_3 C4_3 1_555 1_555
C20_3 C3_3 1_555 1_555
H17_3 C20_3 1_555 1_555
C21_3 C1_3 1_555 1_555
H19_3 C21_3 1_555 1_555
C22_3 H20_3 1_555 1_555
C23_3 C19_3 1_555 1_555
H21_3 C23_3 1_555 1_555
O3_3 C18_3 1_555 1_555
C24_3 C14_3 1_555 1_555
C25_3 C7_3 1_555 1_555
H23_3 C25_3 1_555 1_555
C26_3 C22_3 1_555 1_555
H24_3 C27_3 1_555 1_555
H25_3 C27_3 1_555 1_555
C29_3 O3_3 1_555 1_555
H27_3 C29_3 1_555 1_555
H28_3 C29_3 1_555 1_555
C31_3 C17_3 1_555 1_555
H32_3 C31_3 1_555 1_555
C32_3 C31_3 1_555 1_555
H33_3 C32_3 1_555 1_555
N4_3 C31_3 1_555 1_555
C33_3 N4_3 1_555 1_555
H36_3 C33_3 1_555 1_555
C34_3 N4_3 1_555 1_555
H37_3 C34_3 1_555 1_555
H38_3 C34_3 1_555 1_555
C37_3 C33_3 1_555 1_555
O11_2 Cd2_2 1_555 1_555
O12_2 Cd2_2 1_555 1_555
N1_3 C21_3 1_555 1_555
C3_3 N3_3 1_555 1_555
C4_3 C17_3 1_555 1_555
C8_3 C9_3 1_555 1_555
N3_3 C27_3 1_555 1_555
C15_3 C16_3 1_555 1_555
C18_3 C24_3 1_555 1_555
C22_3 C25_3 1_555 1_555
C23_3 C26_3 1_555 1_555
Cd2 N1_4 1_555 1_555
C1_4 H2_4 1_555 1_555
O2_4 H3_4 1_555 1_555
N1_4 C7_4 1_555 1_555
C4_4 C1_4 1_555 1_555
C6_4 H6_4 1_555 1_555
C7_4 C19_4 1_555 1_555
N3_4 Cd2 1_555 1_555
H12_3 C15_4 1_555 1_555
C16_4 N3_4 1_555 1_555
H15_4 C16_4 1_555 1_555
C17_4 O2_4 1_555 1_555
H16_4 C17_4 1_555 1_555
C19_4 C4_4 1_555 1_555
C21_4 C1_4 1_555 1_555
H19_4 C21_4 1_555 1_555
C22_4 H20_4 1_555 1_555
C23_4 C19_4 1_555 1_555
H21_4 C23_4 1_555 1_555
C25_4 C7_4 1_555 1_555
H23_4 C25_4 1_555 1_555
C26_4 C22_4 1_555 1_555
C27_4 C6_4 1_555 1_555
H24_4 C27_4 1_555 1_555
H25_4 C27_4 1_555 1_555
C28_4 C6_4 1_555 1_555
O9 C28_4 1_555 1_555
C31_4 C17_4 1_555 1_555
H32_4 C31_4 1_555 1_555
C32_4 C31_4 1_555 1_555
H33_4 C32_4 1_555 1_555
H34_4 C32_4 1_555 1_555
N4_4 C31_4 1_555 1_555
C33_4 N4_4 1_555 1_555
H35_4 C33_4 1_555 1_555
H36_4 C33_4 1_555 1_555
C34_4 N4_4 1_555 1_555
H37_4 C34_4 1_555 1_555
H38_4 C34_4 1_555 1_555
C35_4 C34_4 1_555 1_555
H39_4 C35_4 1_555 1_555
H40_4 C35_4 1_555 1_555
C36_4 C32_4 1_555 1_555
H41_4 C36_4 1_555 1_555
C37_4 C33_4 1_555 1_555
H42_4 C37_4 1_555 1_555
C38_4 C37_4 1_555 1_555
O11_2 C38_4 1_555 1_555
O12_2 C38_4 1_555 1_555
N1_4 C21_4 1_555 1_555
C4_4 C17_4 1_555 1_555
N3_4 C27_4 1_555 1_555
C15_4 C16_4 1_555 1_555
C22_4 C25_4 1_555 1_555
C23_4 C26_4 1_555 1_555
C35_4 C36_4 1_555 1_555
C36_4 C37_4 1_555 1_555
O1_4 H1_4 1_555 1_555
C2_4 O1_4 1_555 1_555
H4_4 C2_4 1_555 1_555
C3_4 C2_4 1_555 1_555
H5_4 C3_4 1_555 1_555
C5_4 N2_4 1_555 1_555
N2_4 C11_4 1_555 1_555
C8_4 C2_4 1_555 1_555
C9_4 C5_4 1_555 1_555
C10_4 C8_4 1_555 1_555
H7_4 C10_4 1_555 1_555
C11_4 C10_4 1_555 1_555
H8_4 C11_4 1_555 1_555
H9_4 C12_4 1_555 1_555
C13_4 C9_4 1_555 1_555
H10_4 C13_4 1_555 1_555
C14_4 C5_4 1_555 1_555
H11_4 C14_4 1_555 1_555
C18_4 C13_4 1_555 1_555
C20_4 C3_4 1_555 1_555
H17_4 C20_4 1_555 1_555
H18_4 C20_4 1_555 1_555
O3_4 C18_4 1_555 1_555
C24_4 C14_4 1_555 1_555
C29_4 O3_4 1_555 1_555
H27_4 C29_4 1_555 1_555
H28_4 C29_4 1_555 1_555
C8_4 C9_4 1_555 1_555
C12_4 C20_4 1_555 1_555
C18_4 C24_4 1_555 1_555
C30_3 O4_3 1_555 1_555
H29_3 C30_3 1_555 1_555
H30_3 C30_3 1_555 1_555
H31_3 C30_3 1_555 1_555
C30_4 O4_4 1_555 1_555
H29_4 C30_4 1_555 1_555
H30_4 C30_4 1_555 1_555
H31_4 C30_4 1_555 1_555

#END
