
###############################################################################
#
# This file contains modified crystal structure data generated from the
# MOF subset of the Cambridge Structural Database (CSD) v543 
# hosted by the Cambridge Crystallographic Data Centre (CCDC).
#
# This work is licensed under the Creative Commons
# Attribution-NonCommercial-ShareAlike 4.0 International License.
# To view a copy of this license, visit
# http://creativecommons.org/licenses/by-nc-sa/4.0/
# or send a letter to
# Creative Commons, PO Box 1866, Mountain View, CA 94042, USA.
#
# CIF created using the CSD Python API on 29 September 2022
# The structure has been converted into the P1 space group
# The structure has a 3D framework
# The original CSD entry MIHHUG is in the orthorhombic crystal system
# The original CSD entry MIHHUG is in a Sohncke space group
# The framework has been calculated to contain at least 10.0% void space
# The void calculation uses a probe of radius 1.32A, grid spacing 0.4
#
###############################################################################

data_MIHHUG
_chemical_formula_moiety         '(C152 H168 Cd4 N16 O27)n'
_symmetry_cell_setting           triclinic
_symmetry_space_group_name_H-M   'P 1'
_symmetry_Int_Tables_number      1
_space_group_name_Hall           'P 1'
loop_
_symmetry_equiv_pos_site_id
_symmetry_equiv_pos_as_xyz
1 x,y,z
_cell_length_a                   13.8756(8)
_cell_length_b                   15.1162(8)
_cell_length_c                   19.2999(10)
_cell_angle_alpha                90
_cell_angle_beta                 90
_cell_angle_gamma                90
_cell_volume                     4048.08
loop_
_atom_site_label
_atom_site_type_symbol
_atom_site_fract_x
_atom_site_fract_y
_atom_site_fract_z
O1 O 0.6951(4) 0.0465(3) 0.1323(2)
H1 H 0.7404 0.0322 0.1074
C1 C 0.6710(5) 0.1368(5) 0.1199(3)
H2 H 0.7297 0.1698 0.1084
C3 C 0.5974(5) 0.1473(5) 0.0607(3)
H3 H 0.5844 0.2109 0.0573
C5 C 0.5722(6) 0.2956(6) 0.2597(4)
C7 C 0.6153(5) 0.2672(5) 0.1954(4)
N2 N 0.5442(5) 0.2358(5) 0.3099(3)
C8 C 0.6281(5) 0.1737(5) 0.1865(3)
C9 C 0.6011(6) 0.1182(5) 0.2374(3)
H7 H 0.6103 0.0576 0.2326
C11 C 0.5012(5) 0.1041(5) 0.0739(4)
H9 H 0.4585 0.1454 0.0971
H10 H 0.5095 0.0530 0.1037
C15 C 0.6391(6) 0.3326(5) 0.1472(4)
H14 H 0.6675 0.3162 0.1054
O2 O 0.6396(6) 0.4875(4) 0.1147(4)
C21 C 0.5584(6) 0.1527(6) 0.2986(4)
H18 H 0.5395 0.1129 0.3327
C22 C 0.5613(7) 0.3859(6) 0.2727(5)
H19 H 0.5380 0.4045 0.3155
C25 C 0.6221(7) 0.4179(5) 0.1597(5)
C26 C 0.5841(7) 0.4466(5) 0.2241(5)
H23 H 0.5751 0.5066 0.2327
C27 C 0.6610(10) 0.4645(6) 0.0459(6)
H24 H 0.6706 0.5172 0.0190
H25 H 0.6084 0.4312 0.0267
H26 H 0.7186 0.4293 0.0448
C34 C 0.4574(6) 0.0757(5) 0.0051(4)
H36 H 0.3896 0.0593 0.0115
O8 O 0.4526(4) 0.2946(3) 0.0060(3)
O9 O 0.8449(4) 0.0214(4) 0.0434(3)
O11 O 0.8203(3) 0.2704(3) 0.0293(3)
Cd3 Cd 0.30264(3) 0.36048(3) 0.03281(2)
Cd1 Cd 0.80264(3) 0.13952(3) 0.96719(2)
N1 N 0.7948(5) 0.1835(4) 0.8519(3)
C2 C 0.7994(6) 0.2218(5) 0.7092(3)
C4 C 0.5749(5) 0.1659(4) 0.9393(3)
H4 H 0.5914 0.1452 0.8933
H5 H 0.5887 0.2288 0.9412
C6 C 0.8233(5) 0.1401(6) 0.7344(3)
H6 H 0.8418 0.0952 0.7042
C10 C 0.8075(7) 0.2364(5) 0.6307(3)
H8 H 0.8025 0.2996 0.6200
N3 N 0.6333(5) 0.2128(4) 0.6065(3)
C12 C 0.8197(5) 0.1241(4) 0.8067(3)
H11 H 0.8359 0.0680 0.8226
C13 C 0.7715(5) 0.2677(5) 0.8293(4)
C14 C 0.6225(5) 0.0224(5) 0.9801(4)
H13 H 0.6531 0.0046 0.9371
C16 C 0.7700(5) 0.2892(4) 0.7572(3)
C17 C 0.7311(6) 0.1847(5) 0.5904(3)
H15 H 0.7370 0.1222 0.6034
C18 C 0.7167(7) 0.4128(5) 0.8557(4)
H16 H 0.6996 0.4550 0.8886
O3 O 0.6788(8) 0.5140(5) 0.7691(5)
C19 C 0.7396(6) 0.3730(5) 0.7367(4)
H17 H 0.7375 0.3875 0.6899
C20 C 0.7126(7) 0.4342(5) 0.7856(4)
C23 C 0.7448(6) 0.3324(5) 0.8765(4)
H20 H 0.7465 0.3196 0.9237
C24 C 0.5669(6) 0.1423(6) 0.5812(4)
H21 H 0.5008 0.1626 0.5853
H22 H 0.5742 0.0900 0.6098
O4 O 0.8974(4) 0.2027(4) 0.6070(3)
H27 H 0.9021 0.2108 0.5652
C28 C 0.7501(6) 0.1919(5) 0.5109(4)
H28 H 0.7850 0.2459 0.5006
H29 H 0.7883 0.1421 0.4951
C29 C 0.6513(7) 0.1925(5) 0.4743(5)
H30 H 0.6588 0.1842 0.4242
C30 C 0.6050(8) 0.2800(6) 0.4902(5)
H31 H 0.5386 0.2801 0.4743
H32 H 0.6392 0.3272 0.4666
C31 C 0.5876(6) 0.1185(5) 0.5060(4)
H33 H 0.5258 0.1201 0.4815
C32 C 0.6312(6) 0.0269(5) 0.4934(4)
C33 C 0.6087(7) 0.2945(5) 0.5696(5)
H34 H 0.6563 0.3396 0.5801
H35 H 0.5465 0.3157 0.5855
C35 C 0.4659(5) 0.1518(5) 0.9513(3)
H37 H 0.4368 0.1320 0.9077
C37 C 0.4112(6) 0.2333(5) 0.9767(4)
O7 O 0.3203(3) 0.2296(3) 0.9707(3)
N4 N 0.6363(4) 0.1199(3) 0.9904(3)
C38 C 0.6519(15) 0.5357(11) 0.7143(10)
H40 H 0.6319 0.5964 0.7158
H41 H 0.5985 0.4993 0.7007
H42 H 0.7033 0.5291 0.6814
O10 O 0.8600(5) 0.0009(4) 0.9325(3)
O12 O 0.9526(4) 0.2054(3) 0.9940(3)
O5 O 0.6551(4) 0.9786(4) 0.5434(3)
O6 O 0.6400(5) 0.9991(4) 0.4325(3)
C36 C 0.5139(6) 0.9976(5) 0.9777(5)
H38 H 0.4946 0.9845 0.9305
Cd2 Cd 0.69736(3) 0.86048(3) 0.46719(2)
H9_2 H 0.0415 0.8546 0.5971
C34_2 C 0.0426(6) 0.9243(5) 0.5051(4)
H36_2 H 0.1104 0.9407 0.5115
C35_2 C 0.0341(5) 0.8482(5) 0.4513(3)
H37_2 H 0.0632 0.8680 0.4077
C37_2 C 0.0888(6) 0.7667(5) 0.4767(4)
O7_2 O 0.1797(3) 0.7704(3) 0.4707(3)
O8_2 O 0.0474(4) 0.7054(3) 0.5060(3)
Cd3_2 Cd 0.19736(3) 0.63952(3) 0.53281(2)
H12 H 0.8466 0.0093 0.5177
C36_2 C 0.9861(6) 0.0024(5) 0.4777(5)
H39 H 0.9981 0.0543 0.5060
O1_2 O 0.8049(4) 0.9535(3) 0.6323(2)
H1_2 H 0.7596 0.9678 0.6074
N1_2 N 0.7052(5) 0.8165(4) 0.3519(3)
C1_2 C 0.8290(5) 0.8632(5) 0.6199(3)
H2_2 H 0.7703 0.8302 0.6084
C2_2 C 0.7006(6) 0.7782(5) 0.2092(3)
C3_2 C 0.9026(5) 0.8527(5) 0.5607(3)
H3_2 H 0.9156 0.7891 0.5573
C4_2 C 0.9251(5) 0.8341(4) 0.4393(3)
H4_2 H 0.9086 0.8548 0.3933
H5_2 H 0.9113 0.7712 0.4412
C5_2 C 0.9278(6) 0.7044(6) 0.7597(4)
C6_2 C 0.6767(5) 0.8599(6) 0.2344(3)
H6_2 H 0.6582 0.9048 0.2042
C7_2 C 0.8847(5) 0.7328(5) 0.6954(4)
N2_2 N 0.9558(5) 0.7642(5) 0.8099(3)
C8_2 C 0.8719(5) 0.8263(5) 0.6865(3)
C9_2 C 0.8989(6) 0.8818(5) 0.7374(3)
H7_2 H 0.8897 0.9424 0.7326
C10_2 C 0.6925(7) 0.7636(5) 0.1307(3)
H8_2 H 0.6975 0.7004 0.1200
N3_2 N 0.8667(5) 0.7872(4) 0.1065(3)
C11_2 C 0.9988(5) 0.8959(5) 0.5739(4)
H10_2 H 0.9905 0.9470 0.6037
C12_2 C 0.6803(5) 0.8759(4) 0.3067(3)
H11_2 H 0.6641 0.9320 0.3226
C13_2 C 0.7285(5) 0.7323(5) 0.3293(4)
C14_2 C 0.8775(5) 0.9776(5) 0.4801(4)
H13_2 H 0.8469 0.9954 0.4371
C15_2 C 0.8609(6) 0.6674(5) 0.6472(4)
H14_2 H 0.8325 0.6838 0.6054
C16_2 C 0.7300(5) 0.7108(4) 0.2572(3)
C17_2 C 0.7689(6) 0.8153(5) 0.0904(3)
H15_2 H 0.7630 0.8778 0.1034
C18_2 C 0.7833(7) 0.5872(5) 0.3557(4)
H16_2 H 0.8004 0.5450 0.3886
O2_2 O 0.8604(6) 0.5125(4) 0.6147(4)
O3_2 O 0.8212(8) 0.4860(5) 0.2691(5)
C19_2 C 0.7604(6) 0.6270(5) 0.2367(4)
H17_2 H 0.7625 0.6125 0.1899
C20_2 C 0.7874(7) 0.5658(5) 0.2856(4)
C21_2 C 0.9416(6) 0.8473(6) 0.7986(4)
H18_2 H 0.9605 0.8871 0.8327
C22_2 C 0.9387(7) 0.6141(6) 0.7727(5)
H19_2 H 0.9620 0.5955 0.8155
C23_2 C 0.7552(6) 0.6676(5) 0.3765(4)
H20_2 H 0.7535 0.6804 0.4237
C24_2 C 0.9331(6) 0.8577(6) 0.0812(4)
H21_2 H 0.9992 0.8374 0.0853
H22_2 H 0.9258 0.9100 0.1098
C25_2 C 0.8779(7) 0.5821(5) 0.6597(5)
C26_2 C 0.9159(7) 0.5534(5) 0.7241(5)
H23_2 H 0.9249 0.4934 0.7327
C27_2 C 0.8390(10) 0.5355(6) 0.5459(6)
H24_2 H 0.8294 0.4828 0.5190
H25_2 H 0.8916 0.5688 0.5267
H26_2 H 0.7814 0.5707 0.5448
O4_2 O 0.6026(4) 0.7973(4) 0.1070(3)
H27_2 H 0.5979 0.7892 0.0652
C28_2 C 0.7499(6) 0.8081(5) 0.0109(4)
H28_2 H 0.7150 0.7541 0.0006
C31_2 C 0.9124(6) 0.8815(5) 0.0060(4)
C33_2 C 0.8913(7) 0.7055(5) 0.0696(5)
H34_2 H 0.8437 0.6604 0.0801
H35_2 H 0.9535 0.6843 0.0855
N4_2 N 0.8637(4) 0.8801(3) 0.4904(3)
C38_2 C 0.8481(15) 0.4643(11) 0.2143(10)
H40_2 H 0.8681 0.4036 0.2158
H41_2 H 0.9015 0.5007 0.2007
H42_2 H 0.7967 0.4709 0.1814
O11_2 O 0.6797(3) 0.7296(3) 0.5293(3)
O12_2 O 0.5474(4) 0.7946(3) 0.4940(3)
H29_2 H 0.2117 0.6421 0.0049
C29_2 C 0.3487(7) 0.6925(5) 0.0257(5)
H30_2 H 0.3412 0.6842 0.0758
C30_2 C 0.3950(8) 0.7800(6) 0.0098(5)
H31_2 H 0.4614 0.7801 0.0257
H32_2 H 0.3608 0.8272 0.0334
H33_2 H 0.4742 0.6201 0.0185
C32_2 C 0.3688(6) 0.5269(5) 0.0066(4)
O6_2 O 0.3600(5) 0.4991(4) 0.0675(3)
O1_3 O 0.3049(4) 0.5465(3) 0.3677(2)
H1_3 H 0.2596 0.5322 0.3926
N1_3 N 0.2052(5) 0.6835(4) 0.6481(3)
C1_3 C 0.3290(5) 0.6368(5) 0.3801(3)
H2_3 H 0.2703 0.6698 0.3916
C2_3 C 0.2006(6) 0.7218(5) 0.7908(3)
C3_3 C 0.4026(5) 0.6473(5) 0.4393(3)
H3_3 H 0.4156 0.7109 0.4427
C4_3 C 0.4251(5) 0.6659(4) 0.5607(3)
H4_3 H 0.4086 0.6452 0.6067
H5_3 H 0.4113 0.7288 0.5588
C5_3 C 0.4278(6) 0.7956(6) 0.2403(4)
C6_3 C 0.1767(5) 0.6401(6) 0.7656(3)
H6_3 H 0.1582 0.5952 0.7958
C7_3 C 0.3847(5) 0.7672(5) 0.3046(4)
N2_3 N 0.4558(5) 0.7358(5) 0.1901(3)
C8_3 C 0.3719(5) 0.6737(5) 0.3135(3)
C9_3 C 0.3989(6) 0.6182(5) 0.2626(3)
H7_3 H 0.3897 0.5576 0.2674
C10_3 C 0.1925(7) 0.7364(5) 0.8693(3)
H8_3 H 0.1975 0.7996 0.8800
N3_3 N 0.3667(5) 0.7128(4) 0.8935(3)
C11_3 C 0.4988(5) 0.6041(5) 0.4261(4)
H9_3 H 0.5415 0.6454 0.4029
H10_3 H 0.4905 0.5530 0.3963
C12_3 C 0.1803(5) 0.6241(4) 0.6933(3)
H11_3 H 0.1641 0.5680 0.6774
C13_3 C 0.2285(5) 0.7677(5) 0.6707(4)
C14_3 C 0.3775(5) 0.5224(5) 0.5199(4)
H12_2 H 0.3466 0.4907 0.4823
H13_3 H 0.3469 0.5046 0.5629
C15_3 C 0.3609(6) 0.8326(5) 0.3528(4)
H14_3 H 0.3325 0.8162 0.3946
C16_3 C 0.2300(5) 0.7892(4) 0.7428(3)
C17_3 C 0.2689(6) 0.6847(5) 0.9096(3)
H15_3 H 0.2630 0.6222 0.8966
C18_3 C 0.2833(7) 0.9128(5) 0.6443(4)
H16_3 H 0.3004 0.9550 0.6114
O2_3 O 0.3604(6) 0.9875(4) 0.3853(4)
C19_3 C 0.2604(6) 0.8730(5) 0.7633(4)
H17_3 H 0.2625 0.8875 0.8101
C20_3 C 0.2874(7) 0.9342(5) 0.7144(4)
C21_3 C 0.4416(6) 0.6527(6) 0.2014(4)
H18_3 H 0.4605 0.6129 0.1673
C22_3 C 0.4387(7) 0.8859(6) 0.2273(5)
H19_3 H 0.4620 0.9045 0.1845
C23_3 C 0.2552(6) 0.8324(5) 0.6235(4)
H20_3 H 0.2535 0.8196 0.5763
C24_3 C 0.4331(6) 0.6423(6) 0.9188(4)
H21_3 H 0.4992 0.6626 0.9147
H22_3 H 0.4258 0.5900 0.8902
C25_3 C 0.3779(7) 0.9179(5) 0.3403(5)
C26_3 C 0.4159(7) 0.9466(5) 0.2759(5)
C27_3 C 0.3390(10) 0.9645(6) 0.4541(6)
H25_3 H 0.3916 0.9312 0.4733
H26_3 H 0.2814 0.9293 0.4552
O4_3 O 0.1026(4) 0.7027(4) 0.8930(3)
H27_3 H 0.0979 0.7108 0.9348
C28_3 C 0.2499(6) 0.6919(5) 0.9891(4)
H28_3 H 0.2150 0.7459 0.9994
C31_3 C 0.4124(6) 0.6185(5) 0.9940(4)
O5_2 O 0.3449(4) 0.4786(4) 0.9566(3)
C33_3 C 0.3913(7) 0.7945(5) 0.9304(5)
H34_3 H 0.3437 0.8396 0.9199
H35_3 H 0.4535 0.8157 0.9145
C34_3 C 0.5426(6) 0.5757(5) 0.4949(4)
H36_3 H 0.6104 0.5593 0.4885
C35_3 C 0.5341(5) 0.6518(5) 0.5487(3)
H37_3 H 0.5632 0.6320 0.5923
C36_3 C 0.4861(6) 0.4976(5) 0.5223(5)
H38_2 H 0.5054 0.4845 0.5695
H39_2 H 0.4981 0.4457 0.4940
C37_3 C 0.5888(6) 0.7333(5) 0.5233(4)
N4_3 N 0.3637(4) 0.6199(3) 0.5096(3)
H41_3 H 0.4015 0.9993 0.7993
O9_2 O 0.1551(4) 0.5214(4) 0.4566(3)
O10_2 O 0.1400(5) 0.5009(4) 0.5675(3)
N1_4 N 0.2948(5) 0.3165(4) 0.1481(3)
C2_4 C 0.2994(6) 0.2782(5) 0.2908(3)
C4_4 C 0.0749(5) 0.3341(4) 0.0607(3)
H4_4 H 0.0914 0.3548 0.1067
H5_4 H 0.0887 0.2712 0.0588
C6_4 C 0.3233(5) 0.3599(6) 0.2656(3)
H6_4 H 0.3418 0.4048 0.2958
C10_4 C 0.3075(7) 0.2636(5) 0.3693(3)
H8_4 H 0.3025 0.2004 0.3800
N3_4 N 0.1333(5) 0.2872(4) 0.3935(3)
C12_4 C 0.3197(5) 0.3759(4) 0.1933(3)
H11_4 H 0.3359 0.4320 0.1774
C13_4 C 0.2715(5) 0.2323(5) 0.1707(4)
C14_4 C 0.1225(5) 0.4776(5) 0.0199(4)
H13_4 H 0.1531 0.4954 0.0629
C16_4 C 0.2700(5) 0.2108(4) 0.2428(3)
C17_4 C 0.2311(6) 0.3153(5) 0.4096(3)
H15_4 H 0.2370 0.3778 0.3966
C18_4 C 0.2167(7) 0.0872(5) 0.1443(4)
H16_4 H 0.1996 0.0450 0.1114
C19_4 C 0.2396(6) 0.1270(5) 0.2633(4)
H17_4 H 0.2375 0.1125 0.3101
C20_4 C 0.2126(7) 0.0658(5) 0.2144(4)
C23_4 C 0.2448(6) 0.1676(5) 0.1235(4)
H20_4 H 0.2465 0.1804 0.0763
C24_4 C 0.0669(6) 0.3577(6) 0.4188(4)
H21_4 H 0.0008 0.3374 0.4147
H22_4 H 0.0742 0.4100 0.3902
O4_4 O 0.3974(4) 0.2973(4) 0.3930(3)
H27_4 H 0.4021 0.2892 0.4348
C28_4 C 0.2501(6) 0.3081(5) 0.4891(4)
H28_4 H 0.2850 0.2541 0.4994
H29_3 H 0.2883 0.3579 0.5049
C29_3 C 0.1513(7) 0.3075(5) 0.5257(5)
H30_3 H 0.1588 0.3158 0.5758
C30_3 C 0.1050(8) 0.2200(6) 0.5098(5)
H31_3 H 0.0386 0.2199 0.5257
H32_3 H 0.1392 0.1728 0.5334
C31_4 C 0.0876(6) 0.3815(5) 0.4940(4)
H33_3 H 0.0258 0.3799 0.5185
C32_3 C 0.1312(6) 0.4731(5) 0.5066(4)
C33_4 C 0.1087(7) 0.2055(5) 0.4304(5)
H34_4 H 0.1563 0.1604 0.4199
H35_4 H 0.0465 0.1843 0.4145
C36_4 C 0.0139(6) 0.5024(5) 0.0223(5)
N4_4 N 0.1363(4) 0.3801(3) 0.0096(3)
H41_4 H 0.0985 0.0007 0.2993
O1_4 O 0.1951(4) 0.4535(3) 0.8677(2)
H1_4 H 0.2404 0.4678 0.8926
C1_4 C 0.1710(5) 0.3632(5) 0.8801(3)
H2_4 H 0.2297 0.3302 0.8916
C3_4 C 0.0974(5) 0.3527(5) 0.9393(3)
H3_4 H 0.0844 0.2891 0.9427
C5_4 C 0.0722(6) 0.2044(6) 0.7403(4)
C7_4 C 0.1153(5) 0.2328(5) 0.8046(4)
N2_4 N 0.0442(5) 0.2642(5) 0.6901(3)
C8_4 C 0.1281(5) 0.3263(5) 0.8135(3)
C9_4 C 0.1011(6) 0.3818(5) 0.7626(3)
H7_4 H 0.1103 0.4424 0.7674
C11_4 C 0.0012(5) 0.3959(5) 0.9261(4)
H10_4 H 0.0095 0.4470 0.8963
H12_3 H 0.1534 0.5093 0.9823
C15_4 C 0.1391(6) 0.1674(5) 0.8528(4)
H14_4 H 0.1675 0.1838 0.8946
O2_4 O 0.1396(6) 0.0125(4) 0.8853(4)
C21_4 C 0.0584(6) 0.3473(6) 0.7014(4)
H18_4 H 0.0395 0.3871 0.6673
C22_4 C 0.0613(7) 0.1141(6) 0.7273(5)
H19_4 H 0.0380 0.0955 0.6845
C25_4 C 0.1221(7) 0.0821(5) 0.8403(5)
C26_4 C 0.0841(7) 0.0534(5) 0.7759(5)
C27_4 C 0.1610(10) 0.0355(6) 0.9541(6)
H25_4 H 0.1084 0.0688 0.9733
H26_4 H 0.2186 0.0707 0.9552
H39_3 H 0.0019 0.5543 0.9940
C35_4 C 0.9659(5) 0.3482(5) 0.0487(3)
H37_4 H 0.9368 0.3680 0.0923
H38_3 H 0.9946 0.5155 0.0695
C37_4 C 0.9112(6) 0.2667(5) 0.0233(4)
H9_4 H 0.9585 0.3546 0.9029
C34_4 C 0.9574(6) 0.4243(5) 0.9949(4)
H36_4 H 0.8896 0.4407 0.9885
H12_4 H 0.6534 0.9907 0.0177
H39_4 H 0.5019 0.9457 0.0060
H38_4 H 0.0054 0.0155 0.4305
H29_4 H 0.7117 0.8579 0.9951
C29_4 C 0.8487(7) 0.8075(5) 0.9743(5)
H30_4 H 0.8412 0.8158 0.9242
C30_4 C 0.8950(8) 0.7200(6) 0.9902(5)
H31_4 H 0.9614 0.7199 0.9743
H32_4 H 0.8608 0.6728 0.9666
H33_4 H 0.9742 0.8799 0.9815
C32_4 C 0.8688(6) 0.9731(5) 0.9934(4)
O3_3 O 0.3212(8) 0.0140(5) 0.7309(5)
H23_3 H 0.4249 0.0066 0.2673
H24_3 H 0.3294 0.0172 0.4810
C38_3 C 0.3481(15) 0.0357(11) 0.7857(10)
H40_3 H 0.3681 0.0964 0.7842
H42_3 H 0.2967 0.0291 0.8186
O3_4 O 0.1788(8) 0.9860(5) 0.2309(5)
C38_4 C 0.1519(15) 0.9643(11) 0.2857(10)
H40_4 H 0.1319 0.9036 0.2842
H42_4 H 0.2033 0.9709 0.3186
H23_4 H 0.0751 0.9934 0.7673
H24_4 H 0.1706 0.9828 0.9810
loop_
_geom_bond_atom_site_label_1
_geom_bond_atom_site_label_2
_geom_bond_site_symmetry_1
_geom_bond_site_symmetry_2
O1 H1 1_555 1_555
C1 O1 1_555 1_555
H2 C1 1_555 1_555
C3 C1 1_555 1_555
H3 C3 1_555 1_555
C5 C7 1_555 1_555
C7 C8 1_555 1_555
N2 C5 1_555 1_555
C8 C1 1_555 1_555
C9 C8 1_555 1_555
H7 C9 1_555 1_555
C11 C3 1_555 1_555
H9 C11 1_555 1_555
H10 C11 1_555 1_555
C15 C7 1_555 1_555
H14 C15 1_555 1_555
O2 C25 1_555 1_555
C21 N2 1_555 1_555
H18 C21 1_555 1_555
C22 C5 1_555 1_555
H19 C22 1_555 1_555
C25 C15 1_555 1_555
C26 C22 1_555 1_555
H23 C26 1_555 1_555
C27 O2 1_555 1_555
H24 C27 1_555 1_555
H25 C27 1_555 1_555
H26 C27 1_555 1_555
C34 C11 1_555 1_555
H36 C34 1_555 1_555
C9 C21 1_555 1_555
C25 C26 1_555 1_555
O8 Cd3 1_555 1_555
Cd1 N1 1_555 1_555
N1 C12 1_555 1_555
C2 C6 1_555 1_555
C4 H4 1_555 1_555
H5 C4 1_555 1_555
C6 H6 1_555 1_555
C10 C2 1_555 1_555
H8 C10 1_555 1_555
N3 C17 1_555 1_555
C12 C6 1_555 1_555
H11 C12 1_555 1_555
C13 N1 1_555 1_555
H13 C14 1_555 1_555
C16 C2 1_555 1_555
C17 C10 1_555 1_555
H15 C17 1_555 1_555
C18 H16 1_555 1_555
O3 C20 1_555 1_555
C19 C16 1_555 1_555
H17 C19 1_555 1_555
C20 C18 1_555 1_555
C23 C13 1_555 1_555
H20 C23 1_555 1_555
C24 N3 1_555 1_555
H21 C24 1_555 1_555
H22 C24 1_555 1_555
O4 C10 1_555 1_555
H27 O4 1_555 1_555
C28 C17 1_555 1_555
H28 C28 1_555 1_555
H29 C28 1_555 1_555
C29 C28 1_555 1_555
H30 C29 1_555 1_555
C30 C29 1_555 1_555
H31 C30 1_555 1_555
H32 C30 1_555 1_555
C31 C24 1_555 1_555
H33 C31 1_555 1_555
C32 C31 1_555 1_555
C33 N3 1_555 1_555
H34 C33 1_555 1_555
H35 C33 1_555 1_555
C35 C4 1_555 1_555
H37 C35 1_555 1_555
C37 C35 1_555 1_555
O7 C37 1_555 1_555
N4 Cd1 1_555 1_555
C38 O3 1_555 1_555
H40 C38 1_555 1_555
H41 C38 1_555 1_555
H42 C38 1_555 1_555
O10 Cd1 1_555 1_555
O12 Cd1 1_555 1_555
C4 N4 1_555 1_555
C13 C16 1_555 1_555
C14 N4 1_555 1_555
C18 C23 1_555 1_555
C19 C20 1_555 1_555
C29 C31 1_555 1_555
C30 C33 1_555 1_555
H38 C36 1_555 1_555
Cd2 O5 1_555 1_555
O6 Cd2 1_555 1_555
H36_2 C34_2 1_555 1_555
H37_2 C35_2 1_555 1_555
C37_2 C35_2 1_555 1_555
O7_2 C37_2 1_555 1_555
O8_2 C37_2 1_555 1_555
Cd3_2 O7_2 1_555 1_555
C34_2 C35_2 1_555 1_555
O8_2 Cd3_2 1_555 1_555
H39 C36_2 1_555 1_555
Cd2 N1_2 1_555 1_555
O1_2 H1_2 1_555 1_555
N1_2 C12_2 1_555 1_555
C1_2 O1_2 1_555 1_555
H2_2 C1_2 1_555 1_555
C2_2 C6_2 1_555 1_555
C3_2 C1_2 1_555 1_555
H3_2 C3_2 1_555 1_555
C4_2 H4_2 1_555 1_555
H5_2 C4_2 1_555 1_555
C5_2 C7_2 1_555 1_555
C6_2 H6_2 1_555 1_555
C7_2 C8_2 1_555 1_555
N2_2 C5_2 1_555 1_555
C8_2 C1_2 1_555 1_555
C9_2 C8_2 1_555 1_555
H7_2 C9_2 1_555 1_555
C10_2 C2_2 1_555 1_555
H8_2 C10_2 1_555 1_555
N3_2 C17_2 1_555 1_555
C11_2 C3_2 1_555 1_555
H10_2 C11_2 1_555 1_555
C12_2 C6_2 1_555 1_555
H11_2 C12_2 1_555 1_555
C13_2 N1_2 1_555 1_555
H13_2 C14_2 1_555 1_555
C15_2 C7_2 1_555 1_555
H14_2 C15_2 1_555 1_555
C16_2 C2_2 1_555 1_555
C17_2 C10_2 1_555 1_555
H15_2 C17_2 1_555 1_555
C18_2 H16_2 1_555 1_555
O2_2 C25_2 1_555 1_555
O3_2 C20_2 1_555 1_555
C19_2 C16_2 1_555 1_555
H17_2 C19_2 1_555 1_555
C20_2 C18_2 1_555 1_555
C21_2 N2_2 1_555 1_555
H18_2 C21_2 1_555 1_555
C22_2 C5_2 1_555 1_555
H19_2 C22_2 1_555 1_555
C23_2 C13_2 1_555 1_555
H20_2 C23_2 1_555 1_555
C24_2 N3_2 1_555 1_555
H21_2 C24_2 1_555 1_555
H22_2 C24_2 1_555 1_555
C25_2 C15_2 1_555 1_555
C26_2 C22_2 1_555 1_555
H23_2 C26_2 1_555 1_555
C27_2 O2_2 1_555 1_555
H24_2 C27_2 1_555 1_555
H25_2 C27_2 1_555 1_555
H26_2 C27_2 1_555 1_555
O4_2 C10_2 1_555 1_555
H27_2 O4_2 1_555 1_555
C28_2 C17_2 1_555 1_555
H28_2 C28_2 1_555 1_555
C31_2 C24_2 1_555 1_555
C33_2 N3_2 1_555 1_555
H34_2 C33_2 1_555 1_555
H35_2 C33_2 1_555 1_555
N4_2 Cd2 1_555 1_555
C38_2 O3_2 1_555 1_555
H40_2 C38_2 1_555 1_555
H41_2 C38_2 1_555 1_555
H42_2 C38_2 1_555 1_555
O11_2 Cd2 1_555 1_555
O12_2 Cd2 1_555 1_555
C3_2 N4_2 1_555 1_555
C4_2 N4_2 1_555 1_555
C9_2 C21_2 1_555 1_555
C13_2 C16_2 1_555 1_555
C14_2 N4_2 1_555 1_555
C18_2 C23_2 1_555 1_555
C19_2 C20_2 1_555 1_555
C25_2 C26_2 1_555 1_555
H30_2 C29_2 1_555 1_555
C30_2 C29_2 1_555 1_555
H31_2 C30_2 1_555 1_555
H32_2 C30_2 1_555 1_555
O6_2 C32_2 1_555 1_555
O6_2 Cd3 1_555 1_555
Cd3_2 N1_3 1_555 1_555
O1_3 H1_3 1_555 1_555
N1_3 C12_3 1_555 1_555
C1_3 O1_3 1_555 1_555
H2_3 C1_3 1_555 1_555
C2_3 C6_3 1_555 1_555
C3_3 C1_3 1_555 1_555
H3_3 C3_3 1_555 1_555
C4_3 H4_3 1_555 1_555
H5_3 C4_3 1_555 1_555
C5_3 C7_3 1_555 1_555
C6_3 H6_3 1_555 1_555
C7_3 C8_3 1_555 1_555
N2_3 C5_3 1_555 1_555
C8_3 C1_3 1_555 1_555
C9_3 C8_3 1_555 1_555
H7_3 C9_3 1_555 1_555
C10_3 C2_3 1_555 1_555
H8_3 C10_3 1_555 1_555
N3_3 C17_3 1_555 1_555
C11_3 C3_3 1_555 1_555
H9_3 C11_3 1_555 1_555
H10_3 C11_3 1_555 1_555
C12_3 C6_3 1_555 1_555
H11_3 C12_3 1_555 1_555
C13_3 N1_3 1_555 1_555
C14_3 H12_2 1_555 1_555
H13_3 C14_3 1_555 1_555
C15_3 C7_3 1_555 1_555
H14_3 C15_3 1_555 1_555
C16_3 C2_3 1_555 1_555
C17_3 C10_3 1_555 1_555
H15_3 C17_3 1_555 1_555
C18_3 H16_3 1_555 1_555
O2_3 C25_3 1_555 1_555
C19_3 C16_3 1_555 1_555
H17_3 C19_3 1_555 1_555
C20_3 C18_3 1_555 1_555
C21_3 N2_3 1_555 1_555
H18_3 C21_3 1_555 1_555
C22_3 C5_3 1_555 1_555
H19_3 C22_3 1_555 1_555
C23_3 C13_3 1_555 1_555
H20_3 C23_3 1_555 1_555
C24_3 N3_3 1_555 1_555
H21_3 C24_3 1_555 1_555
H22_3 C24_3 1_555 1_555
C25_3 C15_3 1_555 1_555
C26_3 C22_3 1_555 1_555
C27_3 O2_3 1_555 1_555
H25_3 C27_3 1_555 1_555
H26_3 C27_3 1_555 1_555
O4_3 C10_3 1_555 1_555
H27_3 O4_3 1_555 1_555
C28_3 C17_3 1_555 1_555
H28_3 C28_3 1_555 1_555
C31_3 C24_3 1_555 1_555
C33_3 N3_3 1_555 1_555
H34_3 C33_3 1_555 1_555
H35_3 C33_3 1_555 1_555
C34_3 C11_3 1_555 1_555
H36_3 C34_3 1_555 1_555
C35_3 C4_3 1_555 1_555
H37_3 C35_3 1_555 1_555
C36_3 C14_3 1_555 1_555
H38_2 C36_3 1_555 1_555
H39_2 C36_3 1_555 1_555
C37_3 C35_3 1_555 1_555
O11_2 C37_3 1_555 1_555
O12_2 C37_3 1_555 1_555
N4_3 Cd3_2 1_555 1_555
O9_2 Cd3_2 1_555 1_555
O10_2 Cd3_2 1_555 1_555
C3_3 N4_3 1_555 1_555
C4_3 N4_3 1_555 1_555
C9_3 C21_3 1_555 1_555
C13_3 C16_3 1_555 1_555
C14_3 N4_3 1_555 1_555
C18_3 C23_3 1_555 1_555
C19_3 C20_3 1_555 1_555
C25_3 C26_3 1_555 1_555
C34_3 C35_3 1_555 1_555
C34_3 C36_3 1_555 1_555
Cd3 N1_4 1_555 1_555
N1_4 C12_4 1_555 1_555
C2_4 C6_4 1_555 1_555
C4_4 H4_4 1_555 1_555
H5_4 C4_4 1_555 1_555
C6_4 H6_4 1_555 1_555
C10_4 C2_4 1_555 1_555
H8_4 C10_4 1_555 1_555
N3_4 C17_4 1_555 1_555
C12_4 C6_4 1_555 1_555
H11_4 C12_4 1_555 1_555
C13_4 N1_4 1_555 1_555
H13_4 C14_4 1_555 1_555
C16_4 C2_4 1_555 1_555
C17_4 C10_4 1_555 1_555
H15_4 C17_4 1_555 1_555
C18_4 H16_4 1_555 1_555
C19_4 C16_4 1_555 1_555
H17_4 C19_4 1_555 1_555
C20_4 C18_4 1_555 1_555
C23_4 C13_4 1_555 1_555
H20_4 C23_4 1_555 1_555
C24_4 N3_4 1_555 1_555
H21_4 C24_4 1_555 1_555
H22_4 C24_4 1_555 1_555
O4_4 C10_4 1_555 1_555
H27_4 O4_4 1_555 1_555
C28_4 C17_4 1_555 1_555
H28_4 C28_4 1_555 1_555
H29_3 C28_4 1_555 1_555
C29_3 C28_4 1_555 1_555
H30_3 C29_3 1_555 1_555
C30_3 C29_3 1_555 1_555
H31_3 C30_3 1_555 1_555
H32_3 C30_3 1_555 1_555
C31_4 C24_4 1_555 1_555
H33_3 C31_4 1_555 1_555
C32_3 C31_4 1_555 1_555
O9_2 C32_3 1_555 1_555
O10_2 C32_3 1_555 1_555
C33_4 N3_4 1_555 1_555
H34_4 C33_4 1_555 1_555
H35_4 C33_4 1_555 1_555
C36_4 C14_4 1_555 1_555
N4_4 Cd3 1_555 1_555
C4_4 N4_4 1_555 1_555
C13_4 C16_4 1_555 1_555
C14_4 N4_4 1_555 1_555
C18_4 C23_4 1_555 1_555
C19_4 C20_4 1_555 1_555
C29_3 C31_4 1_555 1_555
C30_3 C33_4 1_555 1_555
O1_4 H1_4 1_555 1_555
C1_4 O1_4 1_555 1_555
H2_4 C1_4 1_555 1_555
C3_4 C1_4 1_555 1_555
H3_4 C3_4 1_555 1_555
C5_4 C7_4 1_555 1_555
C7_4 C8_4 1_555 1_555
N2_4 C5_4 1_555 1_555
C8_4 C1_4 1_555 1_555
C9_4 C8_4 1_555 1_555
H7_4 C9_4 1_555 1_555
C11_4 C3_4 1_555 1_555
H10_4 C11_4 1_555 1_555
C15_4 C7_4 1_555 1_555
H14_4 C15_4 1_555 1_555
O2_4 C25_4 1_555 1_555
C21_4 N2_4 1_555 1_555
H18_4 C21_4 1_555 1_555
C22_4 C5_4 1_555 1_555
H19_4 C22_4 1_555 1_555
C25_4 C15_4 1_555 1_555
C26_4 C22_4 1_555 1_555
C27_4 O2_4 1_555 1_555
H25_4 C27_4 1_555 1_555
H26_4 C27_4 1_555 1_555
C9_4 C21_4 1_555 1_555
C25_4 C26_4 1_555 1_555
H37_4 C35_4 1_555 1_555
C37_4 C35_4 1_555 1_555
O11 C37_4 1_555 1_555
H36_4 C34_4 1_555 1_555
H30_4 C29_4 1_555 1_555
C30_4 C29_4 1_555 1_555
H31_4 C30_4 1_555 1_555
H32_4 C30_4 1_555 1_555
C38_3 O3_3 1_555 1_555
H40_3 C38_3 1_555 1_555
H42_3 C38_3 1_555 1_555
C38_4 O3_4 1_555 1_555
H40_4 C38_4 1_555 1_555
H42_4 C38_4 1_555 1_555

#END
