
###############################################################################
#
# This file contains modified crystal structure data generated from the
# MOF subset of the Cambridge Structural Database (CSD) v543 
# hosted by the Cambridge Crystallographic Data Centre (CCDC).
#
# This work is licensed under the Creative Commons
# Attribution-NonCommercial-ShareAlike 4.0 International License.
# To view a copy of this license, visit
# http://creativecommons.org/licenses/by-nc-sa/4.0/
# or send a letter to
# Creative Commons, PO Box 1866, Mountain View, CA 94042, USA.
#
# CIF created using the CSD Python API on 29 September 2022
# The structure has been converted into the P1 space group
# The structure has a 3D framework
# The original CSD entry MIHMEW is in the monoclinic crystal system
# The framework has been calculated to contain at least 10.0% void space
# The void calculation uses a probe of radius 1.32A, grid spacing 0.4
# H atom positions have been added when not included in the experimental data
#
###############################################################################

data_MIHMEW
_chemical_formula_moiety         '(C616 H376 N56 Nd16 O112 Pt16)n'
_symmetry_cell_setting           triclinic
_symmetry_space_group_name_H-M   'P 1'
_symmetry_Int_Tables_number      1
_space_group_name_Hall           'P 1'
loop_
_symmetry_equiv_pos_site_id
_symmetry_equiv_pos_as_xyz
1 x,y,z
_cell_length_a                   21.6348(6)
_cell_length_b                   24.1366(7)
_cell_length_c                   31.3773(6)
_cell_angle_alpha                90
_cell_angle_beta                 104.2919(16)
_cell_angle_gamma                90
_cell_volume                     15877.8
loop_
_atom_site_label
_atom_site_type_symbol
_atom_site_fract_x
_atom_site_fract_y
_atom_site_fract_z
Pt2 Pt 0.0005(4) 0.22725(2) 0.24979(19)
C50 C 0.0085(3) 0.11066(8) 0.21318(15)
C51 C 0.0170(2) 0.08306(17) 0.17382(17)
H26 H 0.0180 0.0443 0.1688
C52 C 0.0231(5) 0.1241(4) 0.1459(3)
H27 H 0.0290 0.1189 0.1172
C53 C 0.0192(4) 0.1755(4) 0.1658(3)
C54 C 0.0237(5) 0.2273(4) 0.1465(3)
C55 C 0.0145(4) 0.2785(4) 0.1636(3)
C56 C 0.0162(4) 0.3311(4) 0.1429(3)
H28 H 0.0218 0.3370 0.1142
C57 C 0.0089(4) 0.3690(4) 0.1703(3)
H29 H 0.0076 0.4077 0.1647
C58 C 0.0027(4) 0.3427(3) 0.2123(3)
C59 C -0.0000 0.3698(5) 0.2500
N5 N 0.0082(3) 0.1679(3) 0.2059(2)
N6 N 0.0057(3) 0.2867(3) 0.2064(2)
C60 C -0.0000 0.0232(6) 0.2500
C65 C 0.0429(5) 0.2249(4) 0.1035(3)
C67 C 0.0222(6) 0.2224(6) 0.0247(3)
C68 C 0.0858(6) 0.2152(5) 0.0267(4)
C69 C 0.1286(6) 0.2128(5) 0.0673(4)
H34 H 0.1728 0.2081 0.0693
C70 C 0.1070(5) 0.2170(5) 0.1045(3)
H35 H 0.1370 0.2145 0.1323
C72 C -0.0000 0.4345(5) 0.2500
C75 C -0.0000 0.5490(5) 0.2500
C76 C -0.0000 0.6115(4) 0.2500
Nd9 Nd 0.08476(2) 0.72817(2) 0.299121(15)
H77 H 0.0911 0.0122 0.2890
C140 C 0.0003(6) 0.2293(5) 0.4369(3)
H79 H 0.0440 0.2367 0.4389
H80 H 0.0075 0.2228 0.5032
C146 C 0.0464(5) 0.4617(4) 0.2770(3)
H83 H 0.0796 0.4416 0.2963
C147 C 0.0476(5) 0.5196(4) 0.2778(3)
H84 H 0.0813 0.5386 0.2976
O39 O 0.0473(3) 0.6364(2) 0.2739(2)
C71 C 0.1104(7) 0.2117(6) 0.9841(5)
O10 O 0.0762(5) 0.2174(5) 0.9516(4)
O11 O 0.1663(7) 0.1999(6) 0.9900(5)
Nd14 Nd 0.16883(2) 0.19053(2) 0.913004(15)
C63 C -0.0000 0.9053(5) 0.2500
C64 C 0.0000 0.8421(5) 0.2500
O25 O 0.0247(3) 0.7254(3) 0.20387(19)
C137 C 0.0544(5) 0.9927(4) 0.2733(3)
C138 C 0.0552(5) 0.9341(4) 0.2737(3)
H78 H 0.0918 0.9143 0.2895
O31 O 0.0504(3) 0.8191(2) 0.27025(19)
Nd11 Nd 0.08476(2) 0.27183(2) 0.799121(15)
C28 C 0.6564(5) 0.0118(4) 0.4280(3)
C29 C 0.6037(6) 0.0370(4) 0.4033(4)
H13 H 0.5665 0.0158 0.3914
C30 C 0.6034(5) 0.0946(5) 0.3951(3)
H14 H 0.5674 0.1115 0.3759
C31 C 0.6550(5) 0.1256(4) 0.4147(3)
C32 C 0.7059(5) 0.1005(4) 0.4436(3)
H15 H 0.7415 0.1219 0.4586
C33 C 0.7047(6) 0.0429(4) 0.4507(3)
H16 H 0.7385 0.0260 0.4718
C34 C 0.6575(5) 0.1852(4) 0.4049(3)
O3 O 0.7043(4) 0.2137(3) 0.4246(3)
O4 O 0.6119(3) 0.2076(3) 0.37701(19)
C49 C 0.9999(3) 0.08471(2) 0.25008(13)
C59_2 C 1.0000 0.3698(5) 0.2500
C60_2 C 1.0000 0.0232(6) 0.2500
H30 H 0.9089 0.0122 0.2110
C66 C 0.9997(6) 0.2293(5) 0.0631(3)
H32 H 0.9560 0.2367 0.0611
C72_2 C 1.0000 0.4345(5) 0.2500
C73 C 0.9536(5) 0.4617(4) 0.2230(3)
H36 H 0.9204 0.4416 0.2037
C74 C 0.9524(5) 0.5196(4) 0.2222(3)
H37 H 0.9187 0.5386 0.2024
C75_2 C 1.0000 0.5490(5) 0.2500
C76_2 C 1.0000 0.6115(4) 0.2500
O12 O 0.9527(3) 0.6364(2) 0.2261(2)
Nd4 Nd 0.58476(2) 0.22817(2) 0.299121(15)
Nd7 Nd 0.91524(2) 0.72817(2) 0.200879(15)
Nd13 Nd 0.66883(2) 0.30947(2) 0.413004(15)
Nd15 Nd 0.83117(2) 0.19053(2) 0.586996(15)
C128 C 0.9915(3) 0.11066(8) 0.28682(15)
C129 C 0.9830(2) 0.08306(17) 0.32618(17)
H73 H 0.9820 0.0443 0.3312
C130 C 0.9769(5) 0.1241(4) 0.3541(3)
H74 H 0.9710 0.1189 0.3828
C131 C 0.9808(4) 0.1755(4) 0.3342(3)
C132 C 0.9763(5) 0.2273(4) 0.3535(3)
C133 C 0.9855(4) 0.2785(4) 0.3364(3)
C134 C 0.9838(4) 0.3311(4) 0.3571(3)
H75 H 0.9782 0.3370 0.3858
C135 C 0.9911(4) 0.3690(4) 0.3297(3)
H76 H 0.9924 0.4077 0.3353
C136 C 0.9973(4) 0.3427(3) 0.2877(3)
N12 N 0.9918(3) 0.1679(3) 0.2941(2)
N13 N 0.9943(3) 0.2867(3) 0.2936(2)
C139 C 0.9571(5) 0.2249(4) 0.3965(3)
C141 C 0.9778(6) 0.2224(6) 0.4753(3)
C142 C 0.9142(6) 0.2152(5) 0.4733(4)
C143 C 0.8714(6) 0.2128(5) 0.4327(4)
H81 H 0.8272 0.2081 0.4307
C144 C 0.8930(5) 0.2170(5) 0.3955(3)
H82 H 0.8630 0.2145 0.3677
C145 C 0.8896(7) 0.2117(6) 0.5159(5)
O33 O 0.9238(5) 0.2174(5) 0.5484(4)
O36 O 0.8337(7) 0.1999(6) 0.5100(5)
Nd2 Nd 0.83117(2) 0.80947(2) 0.086996(15)
Pt1 Pt 0.663860(17) 0.807820(14) 0.427950(11)
C1 C 0.6635(4) 0.6943(4) 0.3857(3)
C2 C 0.6594(5) 0.6710(5) 0.3436(4)
H1 H 0.6515 0.6331 0.3360
C3 C 0.6683(5) 0.7107(4) 0.3164(3)
H2 H 0.6697 0.7060 0.2866
C4 C 0.6755(4) 0.7618(4) 0.3403(3)
C5 C 0.6913(4) 0.8116(4) 0.3246(3)
C6 C 0.6935(4) 0.8623(4) 0.3468(3)
C7 C 0.7064(5) 0.9150(4) 0.3327(3)
H3 H 0.7209 0.9224 0.3070
C8 C 0.6953(4) 0.9535(4) 0.3603(3)
H4 H 0.6984 0.9924 0.3572
C9 C 0.6778(5) 0.9251(4) 0.3953(3)
C10 C 0.6596(5) 0.9502(4) 0.4300(3)
C11 C 0.6449(5) 0.9211(4) 0.4656(3)
C12 C 0.6258(5) 0.9467(5) 0.5012(4)
H5 H 0.6176 0.9850 0.5043
C13 C 0.6218(6) 0.9058(4) 0.5298(3)
H6 H 0.6119 0.9102 0.5574
C14 C 0.6352(5) 0.8549(4) 0.5110(3)
C15 C 0.6379(5) 0.8028(4) 0.5318(3)
C16 C 0.6525(5) 0.7540(4) 0.5135(3)
C17 C 0.6586(5) 0.6991(4) 0.5340(3)
H7 H 0.6551 0.6910 0.5630
C18 C 0.6694(5) 0.6633(4) 0.5057(3)
H8 H 0.6779 0.6250 0.5112
C19 C 0.6665(4) 0.6908(4) 0.4650(3)
C20 C 0.6644(4) 0.6649(4) 0.4246(3)
N1 N 0.6693(3) 0.7510(3) 0.3821(2)
N2 N 0.6777(3) 0.8690(3) 0.3870(2)
N3 N 0.6490(4) 0.8651(3) 0.4718(2)
N4 N 0.6592(4) 0.7475(3) 0.4712(2)
C21 C 0.7100(4) 0.8135(4) 0.2811(3)
C22 C 0.6664(5) 0.8036(4) 0.2418(3)
H9 H 0.6228 0.7970 0.2408
C23 C 0.6882(4) 0.8034(4) 0.2035(3)
H10 H 0.6584 0.7977 0.1760
C24 C 0.7507(4) 0.8111(4) 0.2043(3)
C25 C 0.7940(4) 0.8236(4) 0.2432(3)
H11 H 0.8373 0.8313 0.2438
C26 C 0.7731(4) 0.8249(4) 0.2821(3)
H12 H 0.8023 0.8336 0.3092
C27 C 0.7729(5) 0.8042(4) 0.1627(3)
O1 O 0.8337(3) 0.7948(3) 0.16762(18)
O2 O 0.7357(3) 0.8069(3) 0.1257(2)
C35 C 0.6237(5) 0.8000(4) 0.5758(3)
C36 C 0.5596(5) 0.7986(4) 0.5791(3)
H17 H 0.5253 0.8010 0.5535
C37 C 0.5480(5) 0.7938(4) 0.6198(3)
H18 H 0.5051 0.7941 0.6221
C38 C 0.5953(4) 0.7885(4) 0.6572(3)
C39 C 0.6568(5) 0.7895(4) 0.6533(3)
H19 H 0.6906 0.7862 0.6791
C40 C 0.6712(5) 0.7950(4) 0.6135(3)
H20 H 0.7145 0.7954 0.6120
C41 C 0.5818(5) 0.7800(3) 0.7009(3)
O5 O 0.6260(3) 0.7779(3) 0.7341(2)
O6 O 0.5247(3) 0.7746(3) 0.70387(19)
C42 C 0.6659(3) 0.6032(2) 0.42440(15)
C43 C 0.6157(3) 0.5733(2) 0.43347(11)
H21 H 0.5822 0.5921 0.4421
C44 C 0.6146(2) 0.5159(2) 0.42995(12)
H22 H 0.5803 0.4955 0.4361
C45 C 0.6637(2) 0.4884(2) 0.41735(13)
C46 C 0.71386(18) 0.5182(2) 0.40827(17)
H23 H 0.7474 0.4994 0.3997
C47 C 0.7150(2) 0.5757(2) 0.41180(19)
H24 H 0.7493 0.5961 0.4056
C48 C 0.6644(3) 0.4263(2) 0.41071(16)
O7 O 0.6788(3) 0.4052(2) 0.38232(18)
O8 O 0.6397(3) 0.3975(2) 0.44018(17)
H25 H 0.5930 0.4020 0.4355
C61 C 0.9456(5) 0.9927(4) 0.2267(3)
C62 C 0.9448(5) 0.9341(4) 0.2263(3)
H31 H 0.9082 0.9143 0.2105
C63_2 C 1.0000 0.9053(5) 0.2500
C64_2 C 1.0000 0.8421(5) 0.2500
O9 O 0.9496(3) 0.8191(2) 0.22975(19)
O13 O 0.8142(3) 0.6725(3) 0.1820(2)
C77 C 0.7752(6) 0.6611(5) 0.2048(4)
H38 H 0.7819 0.6775 0.2331
N7 N 0.7262(4) 0.6283(4) 0.1919(3)
C78 C 0.6824(7) 0.6169(6) 0.2192(4)
H39 H 0.6999 0.6319 0.2488
H40 H 0.6766 0.5768 0.2211
H41 H 0.6411 0.6344 0.2063
C79 C 0.7113(7) 0.6016(6) 0.1502(4)
H42 H 0.6818 0.6247 0.1288
H43 H 0.6913 0.5657 0.1527
H44 H 0.7505 0.5958 0.1405
O14 O 0.9414(4) 0.8140(3) 0.1393(3)
H45 H 0.9510 0.8508 0.1534
H46 H 0.9757 0.8029 0.1252
Nd5 Nd 0.58476(2) 0.77183(2) 0.799121(15)
Nd6 Nd 0.41524(2) 0.77183(2) 0.700879(15)
Pt3 Pt 0.836140(17) 0.307820(14) 0.072050(11)
C80 C 0.8365(4) 0.1943(4) 0.1143(3)
C81 C 0.8406(5) 0.1710(5) 0.1564(4)
H47 H 0.8485 0.1331 0.1640
C82 C 0.8317(5) 0.2107(4) 0.1836(3)
H48 H 0.8303 0.2060 0.2134
C83 C 0.8245(4) 0.2618(4) 0.1597(3)
C84 C 0.8087(4) 0.3116(4) 0.1754(3)
C85 C 0.8065(4) 0.3623(4) 0.1532(3)
C86 C 0.7936(5) 0.4150(4) 0.1673(3)
H49 H 0.7791 0.4224 0.1930
C87 C 0.8047(4) 0.4535(4) 0.1397(3)
H50 H 0.8016 0.4924 0.1428
C88 C 0.8222(5) 0.4251(4) 0.1047(3)
C89 C 0.8404(5) 0.4502(4) 0.0700(3)
C90 C 0.8551(5) 0.4211(4) 0.0344(3)
C98 C 0.8335(4) 0.1908(4) 0.0350(3)
C99 C 0.8356(4) 0.1649(4) 0.0754(3)
N8 N 0.8307(3) 0.2510(3) 0.1179(2)
N9 N 0.8223(3) 0.3690(3) 0.1130(2)
N10 N 0.8510(4) 0.3651(3) 0.0282(2)
N11 N 0.8408(4) 0.2475(3) 0.0288(2)
C100 C 0.7900(4) 0.3135(4) 0.2189(3)
C101 C 0.8336(5) 0.3036(4) 0.2582(3)
H55 H 0.8772 0.2970 0.2592
C102 C 0.8118(4) 0.3034(4) 0.2965(3)
H56 H 0.8416 0.2977 0.3240
C103 C 0.7493(4) 0.3111(4) 0.2957(3)
C104 C 0.7060(4) 0.3236(4) 0.2568(3)
H57 H 0.6627 0.3313 0.2562
C105 C 0.7269(4) 0.3249(4) 0.2179(3)
H58 H 0.6977 0.3336 0.1908
C106 C 0.7271(5) 0.3042(4) 0.3373(3)
O15 O 0.6663(3) 0.2948(3) 0.33238(18)
O16 O 0.7643(3) 0.3069(3) 0.3743(2)
C107 C 0.8436(5) 0.5118(4) 0.0720(3)
C108 C 0.8963(6) 0.5370(4) 0.0967(4)
H59 H 0.9335 0.5158 0.1086
C109 C 0.8966(5) 0.5946(5) 0.1049(3)
H60 H 0.9326 0.6115 0.1241
C110 C 0.8450(5) 0.6256(4) 0.0853(3)
C111 C 0.7941(5) 0.6005(4) 0.0564(3)
H61 H 0.7585 0.6219 0.0414
C112 C 0.7953(6) 0.5429(4) 0.0493(3)
H62 H 0.7615 0.5260 0.0282
C113 C 0.8425(5) 0.6852(4) 0.0951(3)
O17 O 0.7957(4) 0.7137(3) 0.0754(3)
O19 O 0.8881(3) 0.7076(3) 0.12299(19)
O22 O 0.8740(3) 0.7221(3) 0.2659(2)
O23 O 0.6260(3) 0.2221(3) 0.2341(2)
O26 O 0.4753(3) 0.2254(3) 0.29613(19)
C121 C 0.8341(3) 0.1032(2) 0.07560(15)
C122 C 0.8843(3) 0.0733(2) 0.06653(11)
H67 H 0.9178 0.0921 0.0579
C123 C 0.8854(2) 0.0159(2) 0.07005(12)
C125 C 0.78614(18) 0.0182(2) 0.09173(17)
C126 C 0.7850(2) 0.0757(2) 0.08820(19)
H70 H 0.7507 0.0961 0.0944
O28 O 0.8212(3) 0.9052(2) 0.11768(18)
O30 O 0.8603(3) 0.8975(2) 0.05982(17)
H72 H 0.9070 0.9020 0.0645
O32 O 0.5504(3) 0.3191(2) 0.27025(19)
O34 O 0.9238(5) 0.7826(5) 0.0484(4)
O35 O 0.5762(5) 0.2826(5) 0.4516(4)
O37 O 0.8337(7) 0.8001(6) 0.0100(5)
O38 O 0.6663(7) 0.3001(6) 0.4900(5)
O41 O 0.5473(3) 0.1364(2) 0.2739(2)
O42 O 0.6858(3) 0.1725(3) 0.3180(2)
C148 C 0.7248(6) 0.1611(5) 0.2952(4)
H85 H 0.7181 0.1775 0.2669
N14 N 0.7738(4) 0.1283(4) 0.3081(3)
C149 C 0.8176(7) 0.1169(6) 0.2808(4)
H86 H 0.8001 0.1319 0.2512
H87 H 0.8234 0.0768 0.2789
H88 H 0.8589 0.1344 0.2937
C150 C 0.7887(7) 0.1016(6) 0.3498(4)
H89 H 0.8182 0.1247 0.3712
H90 H 0.8087 0.0657 0.3473
H91 H 0.7495 0.0958 0.3595
O43 O 0.5586(4) 0.3140(3) 0.3607(3)
H92 H 0.5490 0.3508 0.3466
H93 H 0.5243 0.3029 0.3748
H94 H 0.843978 0.927908 0.0753572
Nd10 Nd 0.91524(2) 0.27183(2) 0.700879(15)
C91 C 0.8742(5) 0.4467(5) 0.9988(4)
H51 H 0.8824 0.4850 0.9957
C92 C 0.8782(6) 0.4058(4) 0.9702(3)
H52 H 0.8881 0.4102 0.9426
C93 C 0.8648(5) 0.3549(4) 0.9890(3)
C94 C 0.8621(5) 0.3028(4) 0.9682(3)
C95 C 0.8475(5) 0.2540(4) 0.9865(3)
C96 C 0.8414(5) 0.1991(4) 0.9660(3)
H53 H 0.8449 0.1910 0.9370
C97 C 0.8306(5) 0.1633(4) 0.9943(3)
H54 H 0.8221 0.1250 0.9888
C114 C 0.8763(5) 0.3000(4) 0.9242(3)
C115 C 0.9404(5) 0.2986(4) 0.9209(3)
H63 H 0.9747 0.3010 0.9465
C116 C 0.9520(5) 0.2938(4) 0.8802(3)
H64 H 0.9949 0.2941 0.8779
C117 C 0.9047(4) 0.2885(4) 0.8428(3)
C118 C 0.8432(5) 0.2895(4) 0.8467(3)
H65 H 0.8094 0.2862 0.8209
C119 C 0.8288(5) 0.2950(4) 0.8865(3)
H66 H 0.7855 0.2954 0.8880
C120 C 0.9182(5) 0.2800(3) 0.7991(3)
O21 O 0.8740(3) 0.2779(3) 0.7659(2)
O24 O 0.9753(3) 0.2746(3) 0.79613(19)
H68 H 0.9197 0.9955 0.0639
C124 C 0.8363(2) 0.9884(2) 0.08265(13)
H69 H 0.7526 0.9994 0.1003
C127 C 0.8356(3) 0.9263(2) 0.08929(16)
C74_2 C 0.4524(5) 0.0196(4) 0.2222(3)
H37_2 H 0.4187 0.0386 0.2024
C75_3 C 0.5000 0.0490(5) 0.2500
C76_3 C 0.5000 0.1115(4) 0.2500
O12_2 O 0.4527(3) 0.1364(2) 0.2261(2)
Nd7_2 Nd 0.41524(2) 0.22817(2) 0.200879(15)
C147_2 C 0.5476(5) 0.0196(4) 0.2778(3)
H84_2 H 0.5813 0.0386 0.2976
Nd2_2 Nd 0.33117(2) 0.30947(2) 0.086996(15)
Pt1_2 Pt 0.163860(17) 0.307820(14) 0.427950(11)
C1_2 C 0.1635(4) 0.1943(4) 0.3857(3)
C2_2 C 0.1594(5) 0.1710(5) 0.3436(4)
H1_2 H 0.1515 0.1331 0.3360
C3_2 C 0.1683(5) 0.2107(4) 0.3164(3)
H2_2 H 0.1697 0.2060 0.2866
C4_2 C 0.1755(4) 0.2618(4) 0.3403(3)
C5_2 C 0.1913(4) 0.3116(4) 0.3246(3)
C6_2 C 0.1935(4) 0.3623(4) 0.3468(3)
C7_2 C 0.2064(5) 0.4150(4) 0.3327(3)
H3_2 H 0.2209 0.4224 0.3070
C8_2 C 0.1953(4) 0.4535(4) 0.3603(3)
H4_2 H 0.1984 0.4924 0.3572
C9_2 C 0.1778(5) 0.4251(4) 0.3953(3)
C10_2 C 0.1596(5) 0.4502(4) 0.4300(3)
C11_2 C 0.1449(5) 0.4211(4) 0.4656(3)
C12_2 C 0.1258(5) 0.4467(5) 0.5012(4)
H5_2 H 0.1176 0.4850 0.5043
C13_2 C 0.1218(6) 0.4058(4) 0.5298(3)
H6_2 H 0.1119 0.4102 0.5574
C14_2 C 0.1352(5) 0.3549(4) 0.5110(3)
C15_2 C 0.1379(5) 0.3028(4) 0.5318(3)
C16_2 C 0.1525(5) 0.2540(4) 0.5135(3)
C17_2 C 0.1586(5) 0.1991(4) 0.5340(3)
H7_2 H 0.1551 0.1910 0.5630
C18_2 C 0.1694(5) 0.1633(4) 0.5057(3)
H8_2 H 0.1779 0.1250 0.5112
C19_2 C 0.1665(4) 0.1908(4) 0.4650(3)
C20_2 C 0.1644(4) 0.1649(4) 0.4246(3)
N1_2 N 0.1693(3) 0.2510(3) 0.3821(2)
N2_2 N 0.1777(3) 0.3690(3) 0.3870(2)
N3_2 N 0.1490(4) 0.3651(3) 0.4718(2)
N4_2 N 0.1592(4) 0.2475(3) 0.4712(2)
C21_2 C 0.2100(4) 0.3135(4) 0.2811(3)
C22_2 C 0.1664(5) 0.3036(4) 0.2418(3)
H9_2 H 0.1228 0.2970 0.2408
C23_2 C 0.1882(4) 0.3034(4) 0.2035(3)
H10_2 H 0.1584 0.2977 0.1760
C24_2 C 0.2507(4) 0.3111(4) 0.2043(3)
C25_2 C 0.2940(4) 0.3236(4) 0.2432(3)
H11_2 H 0.3373 0.3313 0.2438
C26_2 C 0.2731(4) 0.3249(4) 0.2821(3)
H12_2 H 0.3023 0.3336 0.3092
C27_2 C 0.2729(5) 0.3042(4) 0.1627(3)
O1_2 O 0.3337(3) 0.2948(3) 0.16762(18)
O2_2 O 0.2357(3) 0.3069(3) 0.1257(2)
C28_2 C 0.1564(5) 0.5118(4) 0.4280(3)
C29_2 C 0.1037(6) 0.5370(4) 0.4033(4)
H13_2 H 0.0665 0.5158 0.3914
C30_2 C 0.1034(5) 0.5946(5) 0.3951(3)
H14_2 H 0.0674 0.6115 0.3759
C31_2 C 0.1550(5) 0.6256(4) 0.4147(3)
C32_2 C 0.2059(5) 0.6005(4) 0.4436(3)
H15_2 H 0.2415 0.6219 0.4586
C33_2 C 0.2047(6) 0.5429(4) 0.4507(3)
H16_2 H 0.2385 0.5260 0.4718
C34_2 C 0.1575(5) 0.6852(4) 0.4049(3)
O3_2 O 0.2043(4) 0.7137(3) 0.4246(3)
O4_2 O 0.1119(3) 0.7076(3) 0.37701(19)
C35_2 C 0.1237(5) 0.3000(4) 0.5758(3)
C36_2 C 0.0596(5) 0.2986(4) 0.5791(3)
H17_2 H 0.0253 0.3010 0.5535
C37_2 C 0.0480(5) 0.2938(4) 0.6198(3)
H18_2 H 0.0051 0.2941 0.6221
C38_2 C 0.0953(4) 0.2885(4) 0.6572(3)
C39_2 C 0.1568(5) 0.2895(4) 0.6533(3)
H19_2 H 0.1906 0.2862 0.6791
C40_2 C 0.1712(5) 0.2950(4) 0.6135(3)
H20_2 H 0.2145 0.2954 0.6120
C41_2 C 0.0818(5) 0.2800(3) 0.7009(3)
O5_2 O 0.1260(3) 0.2779(3) 0.7341(2)
O6_2 O 0.0247(3) 0.2746(3) 0.70387(19)
C42_2 C 0.1659(3) 0.1032(2) 0.42440(15)
C43_2 C 0.1157(3) 0.0733(2) 0.43347(11)
H21_2 H 0.0822 0.0921 0.4421
C44_2 C 0.1146(2) 0.0159(2) 0.42995(12)
C46_2 C 0.21386(18) 0.0182(2) 0.40827(17)
C47_2 C 0.2150(2) 0.0757(2) 0.41180(19)
H24_2 H 0.2493 0.0961 0.4056
Pt2_2 Pt 0.5005(4) 0.72725(2) 0.24979(19)
C49_2 C 0.4999(3) 0.58471(2) 0.25008(13)
C50_2 C 0.5085(3) 0.61066(8) 0.21318(15)
C51_2 C 0.5170(2) 0.58306(17) 0.17382(17)
H26_2 H 0.5180 0.5443 0.1688
C52_2 C 0.5231(5) 0.6241(4) 0.1459(3)
H27_2 H 0.5290 0.6189 0.1172
C53_2 C 0.5192(4) 0.6755(4) 0.1658(3)
C54_2 C 0.5237(5) 0.7273(4) 0.1465(3)
C55_2 C 0.5145(4) 0.7785(4) 0.1636(3)
C56_2 C 0.5162(4) 0.8311(4) 0.1429(3)
H28_2 H 0.5218 0.8370 0.1142
C57_2 C 0.5089(4) 0.8690(4) 0.1703(3)
H29_2 H 0.5076 0.9077 0.1647
C58_2 C 0.5027(4) 0.8427(3) 0.2123(3)
C59_3 C 0.5000 0.8698(5) 0.2500
N5_2 N 0.5082(3) 0.6679(3) 0.2059(2)
N6_2 N 0.5057(3) 0.7867(3) 0.2064(2)
C60_3 C 0.5000 0.5232(6) 0.2500
C61_2 C 0.4456(5) 0.4927(4) 0.2267(3)
H30_2 H 0.4089 0.5122 0.2110
C62_2 C 0.4448(5) 0.4341(4) 0.2263(3)
H31_2 H 0.4082 0.4143 0.2105
C63_3 C 0.5000 0.4053(5) 0.2500
C64_3 C 0.5000 0.3421(5) 0.2500
O9_2 O 0.4496(3) 0.3191(2) 0.22975(19)
C65_2 C 0.5429(5) 0.7249(4) 0.1035(3)
C66_2 C 0.4997(6) 0.7293(5) 0.0631(3)
H32_2 H 0.4560 0.7367 0.0611
C67_2 C 0.5222(6) 0.7224(6) 0.0247(3)
C68_2 C 0.5858(6) 0.7152(5) 0.0267(4)
C69_2 C 0.6286(6) 0.7128(5) 0.0673(4)
H34_2 H 0.6728 0.7081 0.0693
C70_2 C 0.6070(5) 0.7170(5) 0.1045(3)
H35_2 H 0.6370 0.7145 0.1323
C72_3 C 0.5000 0.9345(5) 0.2500
C73_2 C 0.4536(5) 0.9617(4) 0.2230(3)
H36_2 H 0.4204 0.9416 0.2037
O13_2 O 0.3142(3) 0.1725(3) 0.1820(2)
C77_2 C 0.2752(6) 0.1611(5) 0.2048(4)
H38_2 H 0.2819 0.1775 0.2331
N7_2 N 0.2262(4) 0.1283(4) 0.1919(3)
C78_2 C 0.1824(7) 0.1169(6) 0.2192(4)
H39_2 H 0.1999 0.1319 0.2488
H40_2 H 0.1766 0.0768 0.2211
H41_2 H 0.1411 0.1344 0.2063
C79_2 C 0.2113(7) 0.1016(6) 0.1502(4)
H42_2 H 0.1818 0.1247 0.1288
H43_2 H 0.1913 0.0657 0.1527
H44_2 H 0.2505 0.0958 0.1405
O14_2 O 0.4414(4) 0.3140(3) 0.1393(3)
H45_2 H 0.4510 0.3508 0.1534
H46_2 H 0.4757 0.3029 0.1252
Nd13_2 Nd 0.16883(2) 0.80947(2) 0.413004(15)
Nd15_2 Nd 0.33117(2) 0.69053(2) 0.586996(15)
C107_2 C 0.3436(5) 0.0118(4) 0.0720(3)
C108_2 C 0.3963(6) 0.0370(4) 0.0967(4)
H59_2 H 0.4335 0.0158 0.1086
C109_2 C 0.3966(5) 0.0946(5) 0.1049(3)
H60_2 H 0.4326 0.1115 0.1241
C110_2 C 0.3450(5) 0.1256(4) 0.0853(3)
C111_2 C 0.2941(5) 0.1005(4) 0.0564(3)
H61_2 H 0.2585 0.1219 0.0414
C112_2 C 0.2953(6) 0.0429(4) 0.0493(3)
H62_2 H 0.2615 0.0260 0.0282
C113_2 C 0.3425(5) 0.1852(4) 0.0951(3)
O17_2 O 0.2957(4) 0.2137(3) 0.0754(3)
O19_2 O 0.3881(3) 0.2076(3) 0.12299(19)
O22_2 O 0.3740(3) 0.2221(3) 0.2659(2)
O25_2 O 0.5247(3) 0.2254(3) 0.20387(19)
O28_2 O 0.3212(3) 0.4052(2) 0.11768(18)
O30_2 O 0.3603(3) 0.3975(2) 0.05982(17)
H72_2 H 0.4070 0.4020 0.0645
C128_2 C 0.4915(3) 0.61066(8) 0.28682(15)
C129_2 C 0.4830(2) 0.58306(17) 0.32618(17)
H73_2 H 0.4820 0.5443 0.3312
C130_2 C 0.4769(5) 0.6241(4) 0.3541(3)
H74_2 H 0.4710 0.6189 0.3828
C131_2 C 0.4808(4) 0.6755(4) 0.3342(3)
C132_2 C 0.4763(5) 0.7273(4) 0.3535(3)
C133_2 C 0.4855(4) 0.7785(4) 0.3364(3)
C134_2 C 0.4838(4) 0.8311(4) 0.3571(3)
H75_2 H 0.4782 0.8370 0.3858
C135_2 C 0.4911(4) 0.8690(4) 0.3297(3)
H76_2 H 0.4924 0.9077 0.3353
C136_2 C 0.4973(4) 0.8427(3) 0.2877(3)
N12_2 N 0.4918(3) 0.6679(3) 0.2941(2)
N13_2 N 0.4943(3) 0.7867(3) 0.2936(2)
C137_2 C 0.5544(5) 0.4927(4) 0.2733(3)
H77_2 H 0.5911 0.5122 0.2890
C138_2 C 0.5552(5) 0.4341(4) 0.2737(3)
H78_2 H 0.5918 0.4143 0.2895
C139_2 C 0.4571(5) 0.7249(4) 0.3965(3)
C140_2 C 0.5003(6) 0.7293(5) 0.4369(3)
H79_2 H 0.5440 0.7367 0.4389
C141_2 C 0.4778(6) 0.7224(6) 0.4753(3)
H80_2 H 0.5075 0.7228 0.5032
C142_2 C 0.4142(6) 0.7152(5) 0.4733(4)
C143_2 C 0.3714(6) 0.7128(5) 0.4327(4)
H81_2 H 0.3272 0.7081 0.4307
C144_2 C 0.3930(5) 0.7170(5) 0.3955(3)
H82_2 H 0.3630 0.7145 0.3677
C145_2 C 0.3896(7) 0.7117(6) 0.5159(5)
O33_2 O 0.4238(5) 0.7174(5) 0.5484(4)
O34_2 O 0.4238(5) 0.2826(5) 0.0484(4)
O36_2 O 0.3337(7) 0.6999(6) 0.5100(5)
O37_2 O 0.3337(7) 0.3001(6) 0.0100(5)
C146_2 C 0.5464(5) 0.9617(4) 0.2770(3)
H83_2 H 0.5796 0.9416 0.2963
H94_2 H 0.343978 0.427908 0.0753572
H33 H 0.4925 0.7228 0.9968
C71_2 C 0.6104(7) 0.7117(6) 0.9841(5)
O10_2 O 0.5762(5) 0.7174(5) 0.9516(4)
O11_2 O 0.6663(7) 0.6999(6) 0.9900(5)
Nd14_2 Nd 0.66883(2) 0.69053(2) 0.913004(15)
H22_2 H 0.0803 0.9955 0.4361
C45_2 C 0.1637(2) 0.9884(2) 0.41735(13)
H23_2 H 0.2474 0.9994 0.3997
C48_2 C 0.1644(3) 0.9263(2) 0.41071(16)
O7_2 O 0.1788(3) 0.9052(2) 0.38232(18)
O8_2 O 0.1397(3) 0.8975(2) 0.44018(17)
H25_2 H 0.0930 0.9020 0.4355
Pt3_2 Pt 0.336140(17) 0.807820(14) 0.072050(11)
C80_2 C 0.3365(4) 0.6943(4) 0.1143(3)
C81_2 C 0.3406(5) 0.6710(5) 0.1564(4)
H47_2 H 0.3485 0.6331 0.1640
C82_2 C 0.3317(5) 0.7107(4) 0.1836(3)
H48_2 H 0.3303 0.7060 0.2134
C83_2 C 0.3245(4) 0.7618(4) 0.1597(3)
C84_2 C 0.3087(4) 0.8116(4) 0.1754(3)
C85_2 C 0.3065(4) 0.8623(4) 0.1532(3)
C86_2 C 0.2936(5) 0.9150(4) 0.1673(3)
H49_2 H 0.2791 0.9224 0.1930
C87_2 C 0.3047(4) 0.9535(4) 0.1397(3)
H50_2 H 0.3016 0.9924 0.1428
C88_2 C 0.3222(5) 0.9251(4) 0.1047(3)
C89_2 C 0.3404(5) 0.9502(4) 0.0700(3)
C90_2 C 0.3551(5) 0.9211(4) 0.0344(3)
C98_2 C 0.3335(4) 0.6908(4) 0.0350(3)
C99_2 C 0.3356(4) 0.6649(4) 0.0754(3)
N8_2 N 0.3307(3) 0.7510(3) 0.1179(2)
N9_2 N 0.3223(3) 0.8690(3) 0.1130(2)
N10_2 N 0.3510(4) 0.8651(3) 0.0282(2)
N11_2 N 0.3408(4) 0.7475(3) 0.0288(2)
C100_2 C 0.2900(4) 0.8135(4) 0.2189(3)
C101_2 C 0.3336(5) 0.8036(4) 0.2582(3)
H55_2 H 0.3772 0.7970 0.2592
C102_2 C 0.3118(4) 0.8034(4) 0.2965(3)
H56_2 H 0.3416 0.7977 0.3240
C103_2 C 0.2493(4) 0.8111(4) 0.2957(3)
C104_2 C 0.2060(4) 0.8236(4) 0.2568(3)
H57_2 H 0.1627 0.8313 0.2562
C105_2 C 0.2269(4) 0.8249(4) 0.2179(3)
H58_2 H 0.1977 0.8336 0.1908
C106_2 C 0.2271(5) 0.8042(4) 0.3373(3)
O15_2 O 0.1663(3) 0.7948(3) 0.33238(18)
O16_2 O 0.2643(3) 0.8069(3) 0.3743(2)
O23_2 O 0.1260(3) 0.7221(3) 0.2341(2)
C121_2 C 0.3341(3) 0.6032(2) 0.07560(15)
C122_2 C 0.3843(3) 0.5733(2) 0.06653(11)
H67_2 H 0.4178 0.5921 0.0579
C123_2 C 0.3854(2) 0.5159(2) 0.07005(12)
H68_2 H 0.4197 0.4955 0.0639
C124_2 C 0.3363(2) 0.4884(2) 0.08265(13)
C125_2 C 0.28614(18) 0.5182(2) 0.09173(17)
H69_2 H 0.2526 0.4994 0.1003
C126_2 C 0.2850(2) 0.5757(2) 0.08820(19)
H70_2 H 0.2507 0.5961 0.0944
C127_2 C 0.3356(3) 0.4263(2) 0.08929(16)
O35_2 O 0.0762(5) 0.7826(5) 0.4516(4)
O38_2 O 0.1663(7) 0.8001(6) 0.4900(5)
O42_2 O 0.1858(3) 0.6725(3) 0.3180(2)
C148_2 C 0.2248(6) 0.6611(5) 0.2952(4)
H85_2 H 0.2181 0.6775 0.2669
N14_2 N 0.2738(4) 0.6283(4) 0.3081(3)
C149_2 C 0.3176(7) 0.6169(6) 0.2808(4)
H86_2 H 0.3001 0.6319 0.2512
H87_2 H 0.3234 0.5768 0.2789
H88_2 H 0.3589 0.6344 0.2937
C150_2 C 0.2887(7) 0.6016(6) 0.3498(4)
H89_2 H 0.3182 0.6247 0.3712
H90_2 H 0.3087 0.5657 0.3473
H91_2 H 0.2495 0.5958 0.3595
O43_2 O 0.0586(4) 0.8140(3) 0.3607(3)
H92_2 H 0.0490 0.8508 0.3466
H93_2 H 0.0243 0.8029 0.3748
C91_2 C 0.3742(5) 0.9467(5) 0.9988(4)
H51_2 H 0.3824 0.9850 0.9957
C92_2 C 0.3782(6) 0.9058(4) 0.9702(3)
H52_2 H 0.3881 0.9102 0.9426
C93_2 C 0.3648(5) 0.8549(4) 0.9890(3)
C94_2 C 0.3621(5) 0.8028(4) 0.9682(3)
C95_2 C 0.3475(5) 0.7540(4) 0.9865(3)
C96_2 C 0.3414(5) 0.6991(4) 0.9660(3)
H53_2 H 0.3449 0.6910 0.9370
C97_2 C 0.3306(5) 0.6633(4) 0.9943(3)
H54_2 H 0.3221 0.6250 0.9888
C114_2 C 0.3763(5) 0.8000(4) 0.9242(3)
C115_2 C 0.4404(5) 0.7986(4) 0.9209(3)
H63_2 H 0.4747 0.8010 0.9465
C116_2 C 0.4520(5) 0.7938(4) 0.8802(3)
H64_2 H 0.4949 0.7941 0.8779
C117_2 C 0.4047(4) 0.7885(4) 0.8428(3)
C118_2 C 0.3432(5) 0.7895(4) 0.8467(3)
H65_2 H 0.3094 0.7862 0.8209
C119_2 C 0.3288(5) 0.7950(4) 0.8865(3)
H66_2 H 0.2855 0.7954 0.8880
C120_2 C 0.4182(5) 0.7800(3) 0.7991(3)
O21_2 O 0.3740(3) 0.7779(3) 0.7659(2)
O24_2 O 0.4753(3) 0.7746(3) 0.79613(19)
O26_2 O 0.9753(3) 0.7254(3) 0.29613(19)
C49_3 C 0.0001(3) 0.08471(2) 0.24992(13)
H94_3 H 0.156022 0.927908 0.424643
Pt2_3 Pt 0.9995(4) 0.22725(2) 0.25021(19)
Pt2_4 Pt 0.4995(4) 0.72725(2) 0.25021(19)
H94_4 H 0.656022 0.427908 0.424643
H68_3 H 0.0803 0.0045 0.9361
C124_3 C 0.1637(2) 0.0116(2) 0.91735(13)
H69_3 H 0.2474 0.0006 0.8997
C127_3 C 0.1644(3) 0.0737(2) 0.91071(16)
O27 O 0.1788(3) 0.0948(2) 0.88232(18)
O29 O 0.1397(3) 0.1025(2) 0.94018(17)
H71 H 0.0930 0.0980 0.9355
C91_3 C 0.1258(5) 0.5533(5) 0.0012(4)
H51_3 H 0.1176 0.5150 0.0043
C92_3 C 0.1218(6) 0.5942(4) 0.0298(3)
H52_3 H 0.1119 0.5898 0.0574
C93_3 C 0.1352(5) 0.6451(4) 0.0110(3)
C94_3 C 0.1379(5) 0.6972(4) 0.0318(3)
C95_3 C 0.1525(5) 0.7460(4) 0.0135(3)
C96_3 C 0.1586(5) 0.8009(4) 0.0340(3)
H53_3 H 0.1551 0.8090 0.0630
C97_3 C 0.1694(5) 0.8367(4) 0.0057(3)
H54_3 H 0.1779 0.8750 0.0112
C114_3 C 0.1237(5) 0.7000(4) 0.0758(3)
C115_3 C 0.0596(5) 0.7014(4) 0.0791(3)
H63_3 H 0.0253 0.6990 0.0535
C116_3 C 0.0480(5) 0.7062(4) 0.1198(3)
H64_3 H 0.0051 0.7059 0.1221
C117_3 C 0.0953(4) 0.7115(4) 0.1572(3)
C118_3 C 0.1568(5) 0.7105(4) 0.1533(3)
H65_3 H 0.1906 0.7138 0.1791
C119_3 C 0.1712(5) 0.7050(4) 0.1135(3)
H66_3 H 0.2145 0.7046 0.1120
C120_3 C 0.0818(5) 0.7200(3) 0.2009(3)
Pt1_3 Pt 0.336140(17) 0.192180(14) 0.572050(11)
C1_3 C 0.3365(4) 0.3057(4) 0.6143(3)
C2_3 C 0.3406(5) 0.3290(5) 0.6564(4)
H1_3 H 0.3485 0.3669 0.6640
C3_3 C 0.3317(5) 0.2893(4) 0.6836(3)
H2_3 H 0.3303 0.2940 0.7134
C4_3 C 0.3245(4) 0.2382(4) 0.6597(3)
C5_3 C 0.3087(4) 0.1884(4) 0.6754(3)
C6_3 C 0.3065(4) 0.1377(4) 0.6532(3)
C7_3 C 0.2936(5) 0.0850(4) 0.6673(3)
H3_3 H 0.2791 0.0776 0.6930
C8_3 C 0.3047(4) 0.0465(4) 0.6397(3)
H4_3 H 0.3016 0.0076 0.6428
C9_3 C 0.3222(5) 0.0749(4) 0.6047(3)
C10_3 C 0.3404(5) 0.0498(4) 0.5700(3)
C11_3 C 0.3551(5) 0.0789(4) 0.5344(3)
C12_3 C 0.3742(5) 0.0533(5) 0.4988(4)
H5_3 H 0.3824 0.0150 0.4957
C13_3 C 0.3782(6) 0.0942(4) 0.4702(3)
H6_3 H 0.3881 0.0898 0.4426
C14_3 C 0.3648(5) 0.1451(4) 0.4890(3)
C15_3 C 0.3621(5) 0.1972(4) 0.4682(3)
C16_3 C 0.3475(5) 0.2460(4) 0.4865(3)
C17_3 C 0.3414(5) 0.3009(4) 0.4660(3)
H7_3 H 0.3449 0.3090 0.4370
C18_3 C 0.3306(5) 0.3367(4) 0.4943(3)
H8_3 H 0.3221 0.3750 0.4888
C19_3 C 0.3335(4) 0.3092(4) 0.5350(3)
C20_3 C 0.3356(4) 0.3351(4) 0.5754(3)
N1_3 N 0.3307(3) 0.2490(3) 0.6179(2)
N2_3 N 0.3223(3) 0.1310(3) 0.6130(2)
N3_3 N 0.3510(4) 0.1349(3) 0.5282(2)
N4_3 N 0.3408(4) 0.2525(3) 0.5288(2)
C21_3 C 0.2900(4) 0.1865(4) 0.7189(3)
C22_3 C 0.3336(5) 0.1964(4) 0.7582(3)
H9_3 H 0.3772 0.2030 0.7592
C23_3 C 0.3118(4) 0.1966(4) 0.7965(3)
H10_3 H 0.3416 0.2023 0.8240
C24_3 C 0.2493(4) 0.1889(4) 0.7957(3)
C25_3 C 0.2060(4) 0.1764(4) 0.7568(3)
H11_3 H 0.1627 0.1687 0.7562
C26_3 C 0.2269(4) 0.1751(4) 0.7179(3)
H12_3 H 0.1977 0.1664 0.6908
C27_3 C 0.2271(5) 0.1958(4) 0.8373(3)
O1_3 O 0.1663(3) 0.2052(3) 0.83238(18)
O2_3 O 0.2643(3) 0.1931(3) 0.8743(2)
C35_3 C 0.3763(5) 0.2000(4) 0.4242(3)
C36_3 C 0.4404(5) 0.2014(4) 0.4209(3)
H17_3 H 0.4747 0.1990 0.4465
C37_3 C 0.4520(5) 0.2062(4) 0.3802(3)
H18_3 H 0.4949 0.2059 0.3779
C38_3 C 0.4047(4) 0.2115(4) 0.3428(3)
C39_3 C 0.3432(5) 0.2105(4) 0.3467(3)
H19_3 H 0.3094 0.2138 0.3209
C40_3 C 0.3288(5) 0.2050(4) 0.3865(3)
H20_3 H 0.2855 0.2046 0.3880
C41_3 C 0.4182(5) 0.2200(3) 0.2991(3)
C42_3 C 0.3341(3) 0.3968(2) 0.57560(15)
C43_3 C 0.3843(3) 0.4267(2) 0.56653(11)
H21_3 H 0.4178 0.4079 0.5579
C44_3 C 0.3854(2) 0.4841(2) 0.57005(12)
H22_3 H 0.4197 0.5045 0.5639
C45_3 C 0.3363(2) 0.5116(2) 0.58265(13)
C46_3 C 0.28614(18) 0.4818(2) 0.59173(17)
H23_3 H 0.2526 0.5006 0.6003
C47_3 C 0.2850(2) 0.4243(2) 0.58820(19)
H24_3 H 0.2507 0.4039 0.5944
C48_3 C 0.3356(3) 0.5737(2) 0.58929(16)
O7_3 O 0.3212(3) 0.5948(2) 0.61768(18)
O8_3 O 0.3603(3) 0.6025(2) 0.55982(17)
H25_3 H 0.4070 0.5980 0.5645
C61_3 C 0.0544(5) 0.0073(4) 0.7733(3)
C62_3 C 0.0552(5) 0.0659(4) 0.7737(3)
H31_3 H 0.0918 0.0857 0.7895
C63_4 C 0.0000 0.0947(5) 0.7500
C64_4 C 0.0000 0.1579(5) 0.7500
O9_3 O 0.0504(3) 0.1809(2) 0.77025(19)
O13_3 O 0.1858(3) 0.3275(3) 0.8180(2)
C77_3 C 0.2248(6) 0.3389(5) 0.7952(4)
H38_3 H 0.2181 0.3225 0.7669
N7_3 N 0.2738(4) 0.3717(4) 0.8081(3)
C78_3 C 0.3176(7) 0.3831(6) 0.7808(4)
H39_3 H 0.3001 0.3681 0.7512
H40_3 H 0.3234 0.4232 0.7789
H41_3 H 0.3589 0.3656 0.7937
C79_3 C 0.2887(7) 0.3984(6) 0.8498(4)
H42_3 H 0.3182 0.3753 0.8712
H43_3 H 0.3087 0.4343 0.8473
H44_3 H 0.2495 0.4042 0.8595
O14_3 O 0.0586(4) 0.1860(3) 0.8607(3)
H45_3 H 0.0490 0.1492 0.8466
H46_3 H 0.0243 0.1971 0.8748
Pt3_3 Pt 0.163860(17) 0.692180(14) 0.927950(11)
C80_3 C 0.1635(4) 0.8057(4) 0.8857(3)
C81_3 C 0.1594(5) 0.8290(5) 0.8436(4)
H47_3 H 0.1515 0.8669 0.8360
C82_3 C 0.1683(5) 0.7893(4) 0.8164(3)
H48_3 H 0.1697 0.7940 0.7866
C83_3 C 0.1755(4) 0.7382(4) 0.8403(3)
C84_3 C 0.1913(4) 0.6884(4) 0.8246(3)
C85_3 C 0.1935(4) 0.6377(4) 0.8468(3)
C86_3 C 0.2064(5) 0.5850(4) 0.8327(3)
H49_3 H 0.2209 0.5776 0.8070
C87_3 C 0.1953(4) 0.5465(4) 0.8603(3)
H50_3 H 0.1984 0.5076 0.8572
C88_3 C 0.1778(5) 0.5749(4) 0.8953(3)
C89_3 C 0.1596(5) 0.5498(4) 0.9300(3)
C90_3 C 0.1449(5) 0.5789(4) 0.9656(3)
C98_3 C 0.1665(4) 0.8092(4) 0.9650(3)
C99_3 C 0.1644(4) 0.8351(4) 0.9246(3)
N8_3 N 0.1693(3) 0.7490(3) 0.8821(2)
N9_3 N 0.1777(3) 0.6310(3) 0.8870(2)
N10_3 N 0.1490(4) 0.6349(3) 0.9718(2)
N11_3 N 0.1592(4) 0.7525(3) 0.9712(2)
C100_3 C 0.2100(4) 0.6865(4) 0.7811(3)
C101_3 C 0.1664(5) 0.6964(4) 0.7418(3)
H55_3 H 0.1228 0.7030 0.7408
C102_3 C 0.1882(4) 0.6966(4) 0.7035(3)
H56_3 H 0.1584 0.7023 0.6760
C103_3 C 0.2507(4) 0.6889(4) 0.7043(3)
C104_3 C 0.2940(4) 0.6764(4) 0.7432(3)
H57_3 H 0.3373 0.6687 0.7438
C105_3 C 0.2731(4) 0.6751(4) 0.7821(3)
H58_3 H 0.3023 0.6664 0.8092
C106_3 C 0.2729(5) 0.6958(4) 0.6627(3)
O15_3 O 0.3337(3) 0.7052(3) 0.66762(18)
O16_3 O 0.2357(3) 0.6931(3) 0.6257(2)
C107_3 C 0.1564(5) 0.4882(4) 0.9280(3)
C108_3 C 0.1037(6) 0.4630(4) 0.9033(4)
H59_3 H 0.0665 0.4842 0.8914
C109_3 C 0.1034(5) 0.4054(5) 0.8951(3)
H60_3 H 0.0674 0.3885 0.8759
C110_3 C 0.1550(5) 0.3744(4) 0.9147(3)
C111_3 C 0.2059(5) 0.3995(4) 0.9436(3)
H61_3 H 0.2415 0.3781 0.9586
C112_3 C 0.2047(6) 0.4571(4) 0.9507(3)
H62_3 H 0.2385 0.4740 0.9718
C113_3 C 0.1575(5) 0.3148(4) 0.9049(3)
O17_3 O 0.2043(4) 0.2863(3) 0.9246(3)
O18 O 0.2957(4) 0.7863(3) 0.5754(3)
O19_3 O 0.1119(3) 0.2924(3) 0.87701(19)
O20 O 0.3881(3) 0.7924(3) 0.62299(19)
C121_3 C 0.1659(3) 0.8968(2) 0.92440(15)
C122_3 C 0.1157(3) 0.9267(2) 0.93347(11)
H67_3 H 0.0822 0.9079 0.9421
C123_3 C 0.1146(2) 0.9841(2) 0.92995(12)
C125_3 C 0.21386(18) 0.9818(2) 0.90827(17)
C126_3 C 0.2150(2) 0.9243(2) 0.91180(19)
H70_3 H 0.2493 0.9039 0.9056
O32_2 O 0.4496(3) 0.6809(2) 0.72975(19)
O40 O 0.0473(3) 0.3636(2) 0.7739(2)
O41_2 O 0.4527(3) 0.8636(2) 0.7261(2)
O42_3 O 0.3142(3) 0.8275(3) 0.6820(2)
C148_3 C 0.2752(6) 0.8389(5) 0.7048(4)
H85_3 H 0.2819 0.8225 0.7331
N14_3 N 0.2262(4) 0.8717(4) 0.6919(3)
C149_3 C 0.1824(7) 0.8831(6) 0.7192(4)
H86_3 H 0.1999 0.8681 0.7488
H87_3 H 0.1766 0.9232 0.7211
H88_3 H 0.1411 0.8656 0.7063
C150_3 C 0.2113(7) 0.8984(6) 0.6502(4)
H89_3 H 0.1818 0.8753 0.6288
H90_3 H 0.1913 0.9343 0.6527
H91_3 H 0.2505 0.9042 0.6405
O43_3 O 0.4414(4) 0.6860(3) 0.6393(3)
H92_3 H 0.4510 0.6492 0.6534
H93_3 H 0.4757 0.6971 0.6252
H94_5 H 0.156022 0.0720918 0.924643
C28_3 C 0.3436(5) 0.9882(4) 0.5720(3)
C29_3 C 0.3963(6) 0.9630(4) 0.5967(4)
H13_3 H 0.4335 0.9842 0.6086
C30_3 C 0.3966(5) 0.9054(5) 0.6049(3)
H14_3 H 0.4326 0.8885 0.6241
C31_3 C 0.3450(5) 0.8744(4) 0.5853(3)
C32_3 C 0.2941(5) 0.8995(4) 0.5564(3)
H15_3 H 0.2585 0.8781 0.5414
C33_3 C 0.2953(6) 0.9571(4) 0.5493(3)
H16_3 H 0.2615 0.9740 0.5282
C34_3 C 0.3425(5) 0.8148(4) 0.5951(3)
C49_4 C 0.0001(3) 0.91529(2) 0.74992(13)
C59_4 C 0.0000 0.6302(5) 0.7500
C60_4 C 0.0000 0.9768(6) 0.7500
H30_3 H 0.0911 0.9878 0.7890
C66_3 C 0.0003(6) 0.7707(5) 0.9369(3)
H32_3 H 0.0440 0.7633 0.9389
C72_4 C 0.0000 0.5655(5) 0.7500
C73_3 C 0.0464(5) 0.5383(4) 0.7770(3)
H36_3 H 0.0796 0.5584 0.7963
C74_3 C 0.0476(5) 0.4804(4) 0.7778(3)
H37_3 H 0.0813 0.4614 0.7976
C75_4 C 0.0000 0.4510(5) 0.7500
C76_4 C 0.0000 0.3885(4) 0.7500
C128_3 C 0.0085(3) 0.88934(8) 0.71318(15)
C129_3 C 0.0170(2) 0.91694(17) 0.67382(17)
H73_3 H 0.0180 0.9557 0.6688
C130_3 C 0.0231(5) 0.8759(4) 0.6459(3)
H74_3 H 0.0290 0.8811 0.6172
C131_3 C 0.0192(4) 0.8245(4) 0.6658(3)
C132_3 C 0.0237(5) 0.7727(4) 0.6465(3)
C133_3 C 0.0145(4) 0.7215(4) 0.6636(3)
C134_3 C 0.0162(4) 0.6689(4) 0.6429(3)
H75_3 H 0.0218 0.6630 0.6142
C135_3 C 0.0089(4) 0.6310(4) 0.6703(3)
H76_3 H 0.0076 0.5923 0.6647
C136_3 C 0.0027(4) 0.6573(3) 0.7123(3)
N12_3 N 0.0082(3) 0.8321(3) 0.7059(2)
N13_3 N 0.0057(3) 0.7133(3) 0.7064(2)
C139_3 C 0.0429(5) 0.7751(4) 0.6035(3)
C141_3 C 0.0222(6) 0.7776(6) 0.5247(3)
C142_3 C 0.0858(6) 0.7848(5) 0.5267(4)
C143_3 C 0.1286(6) 0.7872(5) 0.5673(4)
H81_3 H 0.1728 0.7919 0.5693
C144_3 C 0.1070(5) 0.7830(5) 0.6045(3)
H82_3 H 0.1370 0.7855 0.6323
C145_3 C 0.1104(7) 0.7883(6) 0.4841(5)
C63_5 C 1.0000 0.0947(5) 0.7500
C64_5 C 1.0000 0.1579(5) 0.7500
C137_3 C 0.9456(5) 0.0073(4) 0.7267(3)
C138_3 C 0.9448(5) 0.0659(4) 0.7263(3)
H78_3 H 0.9082 0.0857 0.7105
O31_2 O 0.9496(3) 0.1809(2) 0.72975(19)
C71_3 C 0.8896(7) 0.7883(6) 0.0159(5)
Pt2_5 Pt 0.9995(4) 0.77275(2) 0.75021(19)
C50_3 C 0.9915(3) 0.88934(8) 0.78682(15)
C51_3 C 0.9830(2) 0.91694(17) 0.82618(17)
H26_3 H 0.9820 0.9557 0.8312
C52_3 C 0.9769(5) 0.8759(4) 0.8541(3)
H27_3 H 0.9710 0.8811 0.8828
C53_3 C 0.9808(4) 0.8245(4) 0.8342(3)
C54_3 C 0.9763(5) 0.7727(4) 0.8535(3)
C55_3 C 0.9855(4) 0.7215(4) 0.8364(3)
C56_3 C 0.9838(4) 0.6689(4) 0.8571(3)
H28_3 H 0.9782 0.6630 0.8858
C57_3 C 0.9911(4) 0.6310(4) 0.8297(3)
H29_3 H 0.9924 0.5923 0.8353
C58_3 C 0.9973(4) 0.6573(3) 0.7877(3)
C59_5 C 1.0000 0.6302(5) 0.7500
N5_3 N 0.9918(3) 0.8321(3) 0.7941(2)
N6_3 N 0.9943(3) 0.7133(3) 0.7936(2)
C60_5 C 1.0000 0.9768(6) 0.7500
C65_3 C 0.9571(5) 0.7751(4) 0.8965(3)
C67_3 C 0.9778(6) 0.7776(6) 0.9753(3)
C68_3 C 0.9142(6) 0.7848(5) 0.9733(4)
C69_3 C 0.8714(6) 0.7872(5) 0.9327(4)
H34_3 H 0.8272 0.7919 0.9307
C70_3 C 0.8930(5) 0.7830(5) 0.8955(3)
H35_3 H 0.8630 0.7855 0.8677
C72_5 C 1.0000 0.5655(5) 0.7500
C75_5 C 1.0000 0.4510(5) 0.7500
C76_5 C 1.0000 0.3885(4) 0.7500
H77_3 H 0.9089 0.9878 0.7110
C140_3 C 0.9997(6) 0.7707(5) 0.5631(3)
H79_3 H 0.9560 0.7633 0.5611
H80_3 H 0.9925 0.7772 0.4968
C146_3 C 0.9536(5) 0.5383(4) 0.7230(3)
H83_3 H 0.9204 0.5584 0.7037
C147_3 C 0.9524(5) 0.4804(4) 0.7222(3)
H84_3 H 0.9187 0.4614 0.7024
O39_2 O 0.9527(3) 0.3636(2) 0.7261(2)
C91_4 C 0.6258(5) 0.0533(5) 0.0012(4)
H51_4 H 0.6176 0.0150 0.0043
C92_4 C 0.6218(6) 0.0942(4) 0.0298(3)
H52_4 H 0.6119 0.0898 0.0574
C93_4 C 0.6352(5) 0.1451(4) 0.0110(3)
C94_4 C 0.6379(5) 0.1972(4) 0.0318(3)
C95_4 C 0.6525(5) 0.2460(4) 0.0135(3)
C96_4 C 0.6586(5) 0.3009(4) 0.0340(3)
H53_4 H 0.6551 0.3090 0.0630
C97_4 C 0.6694(5) 0.3367(4) 0.0057(3)
H54_4 H 0.6779 0.3750 0.0112
C114_4 C 0.6237(5) 0.2000(4) 0.0758(3)
C115_4 C 0.5596(5) 0.2014(4) 0.0791(3)
H63_4 H 0.5253 0.1990 0.0535
C116_4 C 0.5480(5) 0.2062(4) 0.1198(3)
H64_4 H 0.5051 0.2059 0.1221
C117_4 C 0.5953(4) 0.2115(4) 0.1572(3)
C118_4 C 0.6568(5) 0.2105(4) 0.1533(3)
H65_4 H 0.6906 0.2138 0.1791
C119_4 C 0.6712(5) 0.2050(4) 0.1135(3)
H66_4 H 0.7145 0.2046 0.1120
C120_4 C 0.5818(5) 0.2200(3) 0.2009(3)
H22_4 H 0.9197 0.0045 0.5639
C45_4 C 0.8363(2) 0.0116(2) 0.58265(13)
H23_4 H 0.7526 0.0006 0.6003
C48_4 C 0.8356(3) 0.0737(2) 0.58929(16)
O7_4 O 0.8212(3) 0.0948(2) 0.61768(18)
O8_4 O 0.8603(3) 0.1025(2) 0.55982(17)
H25_4 H 0.9070 0.0980 0.5645
Pt3_4 Pt 0.663860(17) 0.192180(14) 0.927950(11)
C80_4 C 0.6635(4) 0.3057(4) 0.8857(3)
C81_4 C 0.6594(5) 0.3290(5) 0.8436(4)
H47_4 H 0.6515 0.3669 0.8360
C82_4 C 0.6683(5) 0.2893(4) 0.8164(3)
H48_4 H 0.6697 0.2940 0.7866
C83_4 C 0.6755(4) 0.2382(4) 0.8403(3)
C84_4 C 0.6913(4) 0.1884(4) 0.8246(3)
C85_4 C 0.6935(4) 0.1377(4) 0.8468(3)
C86_4 C 0.7064(5) 0.0850(4) 0.8327(3)
H49_4 H 0.7209 0.0776 0.8070
C87_4 C 0.6953(4) 0.0465(4) 0.8603(3)
H50_4 H 0.6984 0.0076 0.8572
C88_4 C 0.6778(5) 0.0749(4) 0.8953(3)
C89_4 C 0.6596(5) 0.0498(4) 0.9300(3)
C90_4 C 0.6449(5) 0.0789(4) 0.9656(3)
C98_4 C 0.6665(4) 0.3092(4) 0.9650(3)
C99_4 C 0.6644(4) 0.3351(4) 0.9246(3)
N8_4 N 0.6693(3) 0.2490(3) 0.8821(2)
N9_4 N 0.6777(3) 0.1310(3) 0.8870(2)
N10_4 N 0.6490(4) 0.1349(3) 0.9718(2)
N11_4 N 0.6592(4) 0.2525(3) 0.9712(2)
C100_4 C 0.7100(4) 0.1865(4) 0.7811(3)
C101_4 C 0.6664(5) 0.1964(4) 0.7418(3)
H55_4 H 0.6228 0.2030 0.7408
C102_4 C 0.6882(4) 0.1966(4) 0.7035(3)
H56_4 H 0.6584 0.2023 0.6760
C103_4 C 0.7507(4) 0.1889(4) 0.7043(3)
C104_4 C 0.7940(4) 0.1764(4) 0.7432(3)
H57_4 H 0.8373 0.1687 0.7438
C105_4 C 0.7731(4) 0.1751(4) 0.7821(3)
H58_4 H 0.8023 0.1664 0.8092
C106_4 C 0.7729(5) 0.1958(4) 0.6627(3)
O15_4 O 0.8337(3) 0.2052(3) 0.66762(18)
O16_4 O 0.7357(3) 0.1931(3) 0.6257(2)
O18_2 O 0.7957(4) 0.2863(3) 0.5754(3)
O20_2 O 0.8881(3) 0.2924(3) 0.62299(19)
C121_4 C 0.6659(3) 0.3968(2) 0.92440(15)
C122_4 C 0.6157(3) 0.4267(2) 0.93347(11)
H67_4 H 0.5822 0.4079 0.9421
C123_4 C 0.6146(2) 0.4841(2) 0.92995(12)
H68_4 H 0.5803 0.5045 0.9361
C124_4 C 0.6637(2) 0.5116(2) 0.91735(13)
C125_4 C 0.71386(18) 0.4818(2) 0.90827(17)
H69_4 H 0.7474 0.5006 0.8997
C126_4 C 0.7150(2) 0.4243(2) 0.91180(19)
H70_4 H 0.7493 0.4039 0.9056
C127_4 C 0.6644(3) 0.5737(2) 0.91071(16)
O27_2 O 0.6788(3) 0.5948(2) 0.88232(18)
O29_2 O 0.6397(3) 0.6025(2) 0.94018(17)
H71_2 H 0.5930 0.5980 0.9355
O42_4 O 0.8142(3) 0.3275(3) 0.6820(2)
C148_4 C 0.7752(6) 0.3389(5) 0.7048(4)
H85_4 H 0.7819 0.3225 0.7331
N14_4 N 0.7262(4) 0.3717(4) 0.6919(3)
C149_4 C 0.6824(7) 0.3831(6) 0.7192(4)
H86_4 H 0.6999 0.3681 0.7488
H87_4 H 0.6766 0.4232 0.7211
H88_4 H 0.6411 0.3656 0.7063
C150_4 C 0.7113(7) 0.3984(6) 0.6502(4)
H89_4 H 0.6818 0.3753 0.6288
H90_4 H 0.6913 0.4343 0.6527
H91_4 H 0.7505 0.4042 0.6405
O43_4 O 0.9414(4) 0.1860(3) 0.6393(3)
H92_4 H 0.9510 0.1492 0.6534
H93_4 H 0.9757 0.1971 0.6252
H33_2 H 0.5075 0.2772 0.0032
C71_4 C 0.3896(7) 0.2883(6) 0.0159(5)
Pt1_4 Pt 0.836140(17) 0.692180(14) 0.572050(11)
C1_4 C 0.8365(4) 0.8057(4) 0.6143(3)
C2_4 C 0.8406(5) 0.8290(5) 0.6564(4)
H1_4 H 0.8485 0.8669 0.6640
C3_4 C 0.8317(5) 0.7893(4) 0.6836(3)
H2_4 H 0.8303 0.7940 0.7134
C4_4 C 0.8245(4) 0.7382(4) 0.6597(3)
C5_4 C 0.8087(4) 0.6884(4) 0.6754(3)
C6_4 C 0.8065(4) 0.6377(4) 0.6532(3)
C7_4 C 0.7936(5) 0.5850(4) 0.6673(3)
H3_4 H 0.7791 0.5776 0.6930
C8_4 C 0.8047(4) 0.5465(4) 0.6397(3)
H4_4 H 0.8016 0.5076 0.6428
C9_4 C 0.8222(5) 0.5749(4) 0.6047(3)
C10_4 C 0.8404(5) 0.5498(4) 0.5700(3)
C11_4 C 0.8551(5) 0.5789(4) 0.5344(3)
C12_4 C 0.8742(5) 0.5533(5) 0.4988(4)
H5_4 H 0.8824 0.5150 0.4957
C13_4 C 0.8782(6) 0.5942(4) 0.4702(3)
H6_4 H 0.8881 0.5898 0.4426
C14_4 C 0.8648(5) 0.6451(4) 0.4890(3)
C15_4 C 0.8621(5) 0.6972(4) 0.4682(3)
C16_4 C 0.8475(5) 0.7460(4) 0.4865(3)
C17_4 C 0.8414(5) 0.8009(4) 0.4660(3)
H7_4 H 0.8449 0.8090 0.4370
C18_4 C 0.8306(5) 0.8367(4) 0.4943(3)
H8_4 H 0.8221 0.8750 0.4888
C19_4 C 0.8335(4) 0.8092(4) 0.5350(3)
C20_4 C 0.8356(4) 0.8351(4) 0.5754(3)
N1_4 N 0.8307(3) 0.7490(3) 0.6179(2)
N2_4 N 0.8223(3) 0.6310(3) 0.6130(2)
N3_4 N 0.8510(4) 0.6349(3) 0.5282(2)
N4_4 N 0.8408(4) 0.7525(3) 0.5288(2)
C21_4 C 0.7900(4) 0.6865(4) 0.7189(3)
C22_4 C 0.8336(5) 0.6964(4) 0.7582(3)
H9_4 H 0.8772 0.7030 0.7592
C23_4 C 0.8118(4) 0.6966(4) 0.7965(3)
H10_4 H 0.8416 0.7023 0.8240
C24_4 C 0.7493(4) 0.6889(4) 0.7957(3)
C25_4 C 0.7060(4) 0.6764(4) 0.7568(3)
H11_4 H 0.6627 0.6687 0.7562
C26_4 C 0.7269(4) 0.6751(4) 0.7179(3)
H12_4 H 0.6977 0.6664 0.6908
C27_4 C 0.7271(5) 0.6958(4) 0.8373(3)
O1_4 O 0.6663(3) 0.7052(3) 0.83238(18)
O2_4 O 0.7643(3) 0.6931(3) 0.8743(2)
C28_4 C 0.8436(5) 0.4882(4) 0.5720(3)
C29_4 C 0.8963(6) 0.4630(4) 0.5967(4)
H13_4 H 0.9335 0.4842 0.6086
C30_4 C 0.8966(5) 0.4054(5) 0.6049(3)
H14_4 H 0.9326 0.3885 0.6241
C31_4 C 0.8450(5) 0.3744(4) 0.5853(3)
C32_4 C 0.7941(5) 0.3995(4) 0.5564(3)
H15_4 H 0.7585 0.3781 0.5414
C33_4 C 0.7953(6) 0.4571(4) 0.5493(3)
H16_4 H 0.7615 0.4740 0.5282
C34_4 C 0.8425(5) 0.3148(4) 0.5951(3)
C35_4 C 0.8763(5) 0.7000(4) 0.4242(3)
C36_4 C 0.9404(5) 0.7014(4) 0.4209(3)
H17_4 H 0.9747 0.6990 0.4465
C37_4 C 0.9520(5) 0.7062(4) 0.3802(3)
H18_4 H 0.9949 0.7059 0.3779
C38_4 C 0.9047(4) 0.7115(4) 0.3428(3)
C39_4 C 0.8432(5) 0.7105(4) 0.3467(3)
H19_4 H 0.8094 0.7138 0.3209
C40_4 C 0.8288(5) 0.7050(4) 0.3865(3)
H20_4 H 0.7855 0.7046 0.3880
C41_4 C 0.9182(5) 0.7200(3) 0.2991(3)
C42_4 C 0.8341(3) 0.8968(2) 0.57560(15)
C43_4 C 0.8843(3) 0.9267(2) 0.56653(11)
H21_4 H 0.9178 0.9079 0.5579
C44_4 C 0.8854(2) 0.9841(2) 0.57005(12)
C46_4 C 0.78614(18) 0.9818(2) 0.59173(17)
C47_4 C 0.7850(2) 0.9243(2) 0.58820(19)
H24_4 H 0.7507 0.9039 0.5944
Pt2_6 Pt 0.4995(4) 0.27275(2) 0.75021(19)
C49_5 C 0.5001(3) 0.41529(2) 0.74992(13)
C50_4 C 0.4915(3) 0.38934(8) 0.78682(15)
C51_4 C 0.4830(2) 0.41694(17) 0.82618(17)
H26_4 H 0.4820 0.4557 0.8312
C52_4 C 0.4769(5) 0.3759(4) 0.8541(3)
H27_4 H 0.4710 0.3811 0.8828
C53_4 C 0.4808(4) 0.3245(4) 0.8342(3)
C54_4 C 0.4763(5) 0.2727(4) 0.8535(3)
C55_4 C 0.4855(4) 0.2215(4) 0.8364(3)
C56_4 C 0.4838(4) 0.1689(4) 0.8571(3)
H28_4 H 0.4782 0.1630 0.8858
C57_4 C 0.4911(4) 0.1310(4) 0.8297(3)
H29_4 H 0.4924 0.0923 0.8353
C58_4 C 0.4973(4) 0.1573(3) 0.7877(3)
C59_6 C 0.5000 0.1302(5) 0.7500
N5_4 N 0.4918(3) 0.3321(3) 0.7941(2)
N6_4 N 0.4943(3) 0.2133(3) 0.7936(2)
C60_6 C 0.5000 0.4768(6) 0.7500
C61_4 C 0.5544(5) 0.5073(4) 0.7733(3)
H30_4 H 0.5911 0.4878 0.7890
C62_4 C 0.5552(5) 0.5659(4) 0.7737(3)
H31_4 H 0.5918 0.5857 0.7895
C63_6 C 0.5000 0.5947(5) 0.7500
C64_6 C 0.5000 0.6579(5) 0.7500
O9_4 O 0.5504(3) 0.6809(2) 0.77025(19)
C65_4 C 0.4571(5) 0.2751(4) 0.8965(3)
C66_4 C 0.5003(6) 0.2707(5) 0.9369(3)
H32_4 H 0.5440 0.2633 0.9389
C67_4 C 0.4778(6) 0.2776(6) 0.9753(3)
C68_4 C 0.4142(6) 0.2848(5) 0.9733(4)
C69_4 C 0.3714(6) 0.2872(5) 0.9327(4)
H34_4 H 0.3272 0.2919 0.9307
C70_4 C 0.3930(5) 0.2830(5) 0.8955(3)
H35_4 H 0.3630 0.2855 0.8677
C72_6 C 0.5000 0.0655(5) 0.7500
C73_4 C 0.5464(5) 0.0383(4) 0.7770(3)
H36_4 H 0.5796 0.0584 0.7963
O13_4 O 0.6858(3) 0.8275(3) 0.8180(2)
C77_4 C 0.7248(6) 0.8389(5) 0.7952(4)
H38_4 H 0.7181 0.8225 0.7669
N7_4 N 0.7738(4) 0.8717(4) 0.8081(3)
C78_4 C 0.8176(7) 0.8831(6) 0.7808(4)
H39_4 H 0.8001 0.8681 0.7512
H40_4 H 0.8234 0.9232 0.7789
H41_4 H 0.8589 0.8656 0.7937
C79_4 C 0.7887(7) 0.8984(6) 0.8498(4)
H42_4 H 0.8182 0.8753 0.8712
H43_4 H 0.8087 0.9343 0.8473
H44_4 H 0.7495 0.9042 0.8595
O14_4 O 0.5586(4) 0.6860(3) 0.8607(3)
H45_4 H 0.5490 0.6492 0.8466
H46_4 H 0.5243 0.6971 0.8748
C107_4 C 0.6564(5) 0.9882(4) 0.9280(3)
C108_4 C 0.6037(6) 0.9630(4) 0.9033(4)
H59_4 H 0.5665 0.9842 0.8914
C109_4 C 0.6034(5) 0.9054(5) 0.8951(3)
H60_4 H 0.5674 0.8885 0.8759
C110_4 C 0.6550(5) 0.8744(4) 0.9147(3)
C111_4 C 0.7059(5) 0.8995(4) 0.9436(3)
H61_4 H 0.7415 0.8781 0.9586
C112_4 C 0.7047(6) 0.9571(4) 0.9507(3)
H62_4 H 0.7385 0.9740 0.9718
C113_4 C 0.6575(5) 0.8148(4) 0.9049(3)
O17_4 O 0.7043(4) 0.7863(3) 0.9246(3)
O19_4 O 0.6119(3) 0.7924(3) 0.87701(19)
C128_4 C 0.5085(3) 0.38934(8) 0.71318(15)
C129_4 C 0.5170(2) 0.41694(17) 0.67382(17)
H73_4 H 0.5180 0.4557 0.6688
C130_4 C 0.5231(5) 0.3759(4) 0.6459(3)
H74_4 H 0.5290 0.3811 0.6172
C131_4 C 0.5192(4) 0.3245(4) 0.6658(3)
C132_4 C 0.5237(5) 0.2727(4) 0.6465(3)
C133_4 C 0.5145(4) 0.2215(4) 0.6636(3)
C134_4 C 0.5162(4) 0.1689(4) 0.6429(3)
H75_4 H 0.5218 0.1630 0.6142
C135_4 C 0.5089(4) 0.1310(4) 0.6703(3)
H76_4 H 0.5076 0.0923 0.6647
C136_4 C 0.5027(4) 0.1573(3) 0.7123(3)
N12_4 N 0.5082(3) 0.3321(3) 0.7059(2)
N13_4 N 0.5057(3) 0.2133(3) 0.7064(2)
C137_4 C 0.4456(5) 0.5073(4) 0.7267(3)
H77_4 H 0.4089 0.4878 0.7110
C138_4 C 0.4448(5) 0.5659(4) 0.7263(3)
H78_4 H 0.4082 0.5857 0.7105
C139_4 C 0.5429(5) 0.2751(4) 0.6035(3)
C140_4 C 0.4997(6) 0.2707(5) 0.5631(3)
H79_4 H 0.4560 0.2633 0.5611
C141_4 C 0.5222(6) 0.2776(6) 0.5247(3)
H80_4 H 0.4925 0.2772 0.4968
C142_4 C 0.5858(6) 0.2848(5) 0.5267(4)
C143_4 C 0.6286(6) 0.2872(5) 0.5673(4)
H81_4 H 0.6728 0.2919 0.5693
C144_4 C 0.6070(5) 0.2830(5) 0.6045(3)
H82_4 H 0.6370 0.2855 0.6323
C145_4 C 0.6104(7) 0.2883(6) 0.4841(5)
C146_4 C 0.4536(5) 0.0383(4) 0.7230(3)
H83_4 H 0.4204 0.0584 0.7037
O40_2 O 0.5473(3) 0.8636(2) 0.7739(2)
H94_6 H 0.656022 0.572092 0.924643
C74_4 C 0.5476(5) 0.9804(4) 0.7778(3)
H37_4 H 0.5813 0.9614 0.7976
C75_6 C 0.5000 0.9510(5) 0.7500
C76_6 C 0.5000 0.8885(4) 0.7500
C147_4 C 0.4524(5) 0.9804(4) 0.7222(3)
H84_4 H 0.4187 0.9614 0.7024
Pt2_7 Pt 0.0005(4) 0.77275(2) 0.74979(19)
H94_7 H 0.843978 0.0720918 0.575357
C49_6 C 0.9999(3) 0.91529(2) 0.75008(13)
Pt2_8 Pt 0.5005(4) 0.27275(2) 0.74979(19)
H94_8 H 0.343978 0.572092 0.575357
H33_3 H 0.9925 0.2228 0.9968
H33_4 H 0.0075 0.7772 0.0032
loop_
_geom_bond_atom_site_label_1
_geom_bond_atom_site_label_2
_geom_bond_site_symmetry_1
_geom_bond_site_symmetry_2
Pt2 N5 1_555 1_555
C50 C51 1_555 1_555
C51 H26 1_555 1_555
C52 C51 1_555 1_555
H27 C52 1_555 1_555
C53 C52 1_555 1_555
C54 C53 1_555 1_555
C55 C54 1_555 1_555
C56 C55 1_555 1_555
H28 C56 1_555 1_555
C57 C56 1_555 1_555
H29 C57 1_555 1_555
C58 C57 1_555 1_555
C59 C58 1_555 1_555
N5 C50 1_555 1_555
N6 Pt2 1_555 1_555
C65 C54 1_555 1_555
C68 C67 1_555 1_555
C69 C68 1_555 1_555
H34 C69 1_555 1_555
C70 C65 1_555 1_555
H35 C70 1_555 1_555
C72 C59 1_555 1_555
C76 C75 1_555 1_555
Nd9 O39 1_555 1_555
H79 C140 1_555 1_555
C146 C72 1_555 1_555
H83 C146 1_555 1_555
C147 C75 1_555 1_555
H84 C147 1_555 1_555
O39 C76 1_555 1_555
C53 N5 1_555 1_555
C55 N6 1_555 1_555
C58 N6 1_555 1_555
C69 C70 1_555 1_555
C146 C147 1_555 1_555
O10 C71 1_555 1_555
O11 C71 1_555 1_555
Nd14 O10 1_555 1_555
O11 Nd14 1_555 1_555
C64 C63 1_555 1_555
Nd9 O31 1_555 1_555
C138 C63 1_555 1_555
H78 C138 1_555 1_555
O31 C64 1_555 1_555
C137 C138 1_555 1_555
C29 C28 1_555 1_555
H13 C29 1_555 1_555
C30 C29 1_555 1_555
H14 C30 1_555 1_555
C31 C30 1_555 1_555
C32 C31 1_555 1_555
H15 C32 1_555 1_555
C33 C28 1_555 1_555
H16 C33 1_555 1_555
C34 C31 1_555 1_555
O3 C34 1_555 1_555
O4 C34 1_555 1_555
C60_2 C49 1_555 1_555
H32 C66 1_555 1_555
C72_2 C59_2 1_555 1_555
C73 C72_2 1_555 1_555
H36 C73 1_555 1_555
C74 C73 1_555 1_555
H37 C74 1_555 1_555
C75_2 C74 1_555 1_555
C76_2 C75_2 1_555 1_555
O12 C76_2 1_555 1_555
Nd4 O4 1_555 1_555
Nd7 O12 1_555 1_555
Nd13 O3 1_555 1_555
Nd15 O33 1_555 1_555
C128 C49 1_555 1_555
C129 C128 1_555 1_555
H73 C129 1_555 1_555
C130 C129 1_555 1_555
H74 C130 1_555 1_555
C131 C130 1_555 1_555
C132 C131 1_555 1_555
C133 C132 1_555 1_555
C134 C133 1_555 1_555
H75 C134 1_555 1_555
C135 C134 1_555 1_555
H76 C135 1_555 1_555
C136 C59_2 1_555 1_555
C139 C132 1_555 1_555
C142 C141 1_555 1_555
C143 C142 1_555 1_555
H81 C143 1_555 1_555
C144 C139 1_555 1_555
H82 C144 1_555 1_555
C145 C142 1_555 1_555
O33 C145 1_555 1_555
O36 Nd15 1_555 1_555
C32 C33 1_555 1_555
C128 N12 1_555 1_555
C131 N12 1_555 1_555
C133 N13 1_555 1_555
C135 C136 1_555 1_555
C136 N13 1_555 1_555
C143 C144 1_555 1_555
C145 O36 1_555 1_555
Nd7 O1 1_555 1_555
Nd2 O1 1_555 1_555
Pt1 N1 1_555 1_555
C1 C2 1_555 1_555
C2 H1 1_555 1_555
C3 C2 1_555 1_555
H2 C3 1_555 1_555
C4 C3 1_555 1_555
C5 C4 1_555 1_555
C6 C5 1_555 1_555
C7 C6 1_555 1_555
H3 C7 1_555 1_555
C8 C7 1_555 1_555
H4 C8 1_555 1_555
C9 C8 1_555 1_555
C10 C9 1_555 1_555
C11 C10 1_555 1_555
C12 C11 1_555 1_555
H5 C12 1_555 1_555
C13 C12 1_555 1_555
H6 C13 1_555 1_555
C14 C13 1_555 1_555
C15 C14 1_555 1_555
C16 C15 1_555 1_555
C17 C16 1_555 1_555
H7 C17 1_555 1_555
C18 C17 1_555 1_555
H8 C18 1_555 1_555
C19 C18 1_555 1_555
C20 C1 1_555 1_555
N1 C1 1_555 1_555
N2 Pt1 1_555 1_555
N3 Pt1 1_555 1_555
N4 Pt1 1_555 1_555
C21 C5 1_555 1_555
C22 C21 1_555 1_555
H9 C22 1_555 1_555
C23 C22 1_555 1_555
H10 C23 1_555 1_555
C24 C23 1_555 1_555
C25 C24 1_555 1_555
H11 C25 1_555 1_555
C26 C21 1_555 1_555
H12 C26 1_555 1_555
C27 C24 1_555 1_555
O1 C27 1_555 1_555
O2 Nd2 1_555 1_555
C35 C15 1_555 1_555
C36 C35 1_555 1_555
H17 C36 1_555 1_555
C37 C36 1_555 1_555
H18 C37 1_555 1_555
C38 C37 1_555 1_555
C39 C38 1_555 1_555
H19 C39 1_555 1_555
C40 C35 1_555 1_555
H20 C40 1_555 1_555
C41 C38 1_555 1_555
O5 C41 1_555 1_555
O6 C41 1_555 1_555
C42 C20 1_555 1_555
C43 C42 1_555 1_555
H21 C43 1_555 1_555
C44 C43 1_555 1_555
H22 C44 1_555 1_555
C45 C44 1_555 1_555
C46 C45 1_555 1_555
H23 C46 1_555 1_555
C47 C42 1_555 1_555
H24 C47 1_555 1_555
C48 C45 1_555 1_555
O7 C48 1_555 1_555
O8 C48 1_555 1_555
H25 O8 1_555 1_555
C62 C61 1_555 1_555
H31 C62 1_555 1_555
C63_2 C62 1_555 1_555
C64_2 C63_2 1_555 1_555
O9 Nd7 1_555 1_555
O13 Nd7 1_555 1_555
C77 O13 1_555 1_555
H38 C77 1_555 1_555
N7 C77 1_555 1_555
C78 N7 1_555 1_555
H39 C78 1_555 1_555
H40 C78 1_555 1_555
H41 C78 1_555 1_555
C79 N7 1_555 1_555
H42 C79 1_555 1_555
H43 C79 1_555 1_555
H44 C79 1_555 1_555
O14 Nd2 1_555 1_555
H45 O14 1_555 1_555
H46 O14 1_555 1_555
Nd4 O15 1_555 1_555
Nd5 O5 1_555 1_555
Nd6 O6 1_555 1_555
Nd13 O7 1_555 1_555
Pt3 N8 1_555 1_555
C80 C81 1_555 1_555
C81 H47 1_555 1_555
C82 C81 1_555 1_555
H48 C82 1_555 1_555
C83 C82 1_555 1_555
C84 C83 1_555 1_555
C85 C84 1_555 1_555
C86 C85 1_555 1_555
H49 C86 1_555 1_555
C87 C86 1_555 1_555
H50 C87 1_555 1_555
C88 C87 1_555 1_555
C89 C88 1_555 1_555
C90 C89 1_555 1_555
C99 C80 1_555 1_555
N8 C80 1_555 1_555
N9 Pt3 1_555 1_555
N10 Pt3 1_555 1_555
N11 Pt3 1_555 1_555
C100 C84 1_555 1_555
C101 C100 1_555 1_555
H55 C101 1_555 1_555
C102 C101 1_555 1_555
H56 C102 1_555 1_555
C103 C102 1_555 1_555
C104 C103 1_555 1_555
H57 C104 1_555 1_555
C105 C100 1_555 1_555
H58 C105 1_555 1_555
C106 C103 1_555 1_555
O15 Nd13 1_555 1_555
O16 Nd13 1_555 1_555
C107 C89 1_555 1_555
C108 C107 1_555 1_555
H59 C108 1_555 1_555
C109 C108 1_555 1_555
H60 C109 1_555 1_555
C110 C109 1_555 1_555
C111 C110 1_555 1_555
H61 C111 1_555 1_555
C112 C107 1_555 1_555
H62 C112 1_555 1_555
C113 C110 1_555 1_555
O17 Nd2 1_555 1_555
O19 Nd7 1_555 1_555
O22 Nd7 1_555 1_555
O23 Nd4 1_555 1_555
O26 Nd4 1_555 1_555
C121 C99 1_555 1_555
C122 C121 1_555 1_555
H67 C122 1_555 1_555
C123 C122 1_555 1_555
C126 C121 1_555 1_555
H70 C126 1_555 1_555
O28 Nd2 1_555 1_555
O30 Nd2 1_555 1_555
H72 O30 1_555 1_555
O32 Nd4 1_555 1_555
O34 Nd2 1_555 1_555
O35 Nd13 1_555 1_555
O37 Nd2 1_555 1_555
O38 Nd13 1_555 1_555
O41 Nd4 1_555 1_555
O42 Nd4 1_555 1_555
C148 O42 1_555 1_555
H85 C148 1_555 1_555
N14 C148 1_555 1_555
C149 N14 1_555 1_555
H86 C149 1_555 1_555
H87 C149 1_555 1_555
H88 C149 1_555 1_555
C150 N14 1_555 1_555
H89 C150 1_555 1_555
H90 C150 1_555 1_555
H91 C150 1_555 1_555
O43 Nd13 1_555 1_555
H92 O43 1_555 1_555
H93 O43 1_555 1_555
C4 N1 1_555 1_555
C6 N2 1_555 1_555
C9 N2 1_555 1_555
C11 N3 1_555 1_555
C14 N3 1_555 1_555
C16 N4 1_555 1_555
C19 C20 1_555 1_555
C19 N4 1_555 1_555
C25 C26 1_555 1_555
C27 O2 1_555 1_555
C39 C40 1_555 1_555
C46 C47 1_555 1_555
O8 Nd13 1_555 1_555
C64_2 O9 1_555 1_555
C83 N8 1_555 1_555
C85 N9 1_555 1_555
C88 N9 1_555 1_555
C90 N10 1_555 1_555
C98 C99 1_555 1_555
C98 N11 1_555 1_555
C104 C105 1_555 1_555
C106 O15 1_555 1_555
C106 O16 1_555 1_555
C111 C112 1_555 1_555
C113 O17 1_555 1_555
C113 O19 1_555 1_555
C125 C126 1_555 1_555
O30 H94 1_555 1_555
Nd10 O21 1_555 1_555
H51 C91 1_555 1_555
C92 C91 1_555 1_555
H52 C92 1_555 1_555
C93 C92 1_555 1_555
C94 C93 1_555 1_555
C95 C94 1_555 1_555
C96 C95 1_555 1_555
H53 C96 1_555 1_555
C97 C96 1_555 1_555
H54 C97 1_555 1_555
C114 C94 1_555 1_555
C115 C114 1_555 1_555
H63 C115 1_555 1_555
C116 C115 1_555 1_555
H64 C116 1_555 1_555
C117 C116 1_555 1_555
C118 C117 1_555 1_555
H65 C118 1_555 1_555
C119 C114 1_555 1_555
H66 C119 1_555 1_555
C120 C117 1_555 1_555
O21 C120 1_555 1_555
O24 C120 1_555 1_555
C118 C119 1_555 1_555
C127 C124 1_555 1_555
O28 C127 1_555 1_555
C127 O30 1_555 1_555
H37_2 C74_2 1_555 1_555
C75_3 C74_2 1_555 1_555
C76_3 C75_3 1_555 1_555
O12_2 C76_3 1_555 1_555
Nd7_2 O12_2 1_555 1_555
C147_2 C75_3 1_555 1_555
H84_2 C147_2 1_555 1_555
O41 C76_3 1_555 1_555
Nd7_2 O1_2 1_555 1_555
Nd2_2 O1_2 1_555 1_555
Pt1_2 N1_2 1_555 1_555
C1_2 C2_2 1_555 1_555
C2_2 H1_2 1_555 1_555
C3_2 C2_2 1_555 1_555
H2_2 C3_2 1_555 1_555
C4_2 C3_2 1_555 1_555
C5_2 C4_2 1_555 1_555
C6_2 C5_2 1_555 1_555
C7_2 C6_2 1_555 1_555
H3_2 C7_2 1_555 1_555
C8_2 C7_2 1_555 1_555
H4_2 C8_2 1_555 1_555
C9_2 C8_2 1_555 1_555
C10_2 C9_2 1_555 1_555
C11_2 C10_2 1_555 1_555
C12_2 C11_2 1_555 1_555
H5_2 C12_2 1_555 1_555
C13_2 C12_2 1_555 1_555
H6_2 C13_2 1_555 1_555
C14_2 C13_2 1_555 1_555
C15_2 C14_2 1_555 1_555
C16_2 C15_2 1_555 1_555
C17_2 C16_2 1_555 1_555
H7_2 C17_2 1_555 1_555
C18_2 C17_2 1_555 1_555
H8_2 C18_2 1_555 1_555
C19_2 C18_2 1_555 1_555
C20_2 C1_2 1_555 1_555
N1_2 C1_2 1_555 1_555
N2_2 Pt1_2 1_555 1_555
N3_2 Pt1_2 1_555 1_555
N4_2 Pt1_2 1_555 1_555
C21_2 C5_2 1_555 1_555
C22_2 C21_2 1_555 1_555
H9_2 C22_2 1_555 1_555
C23_2 C22_2 1_555 1_555
H10_2 C23_2 1_555 1_555
C24_2 C23_2 1_555 1_555
C25_2 C24_2 1_555 1_555
H11_2 C25_2 1_555 1_555
C26_2 C21_2 1_555 1_555
H12_2 C26_2 1_555 1_555
C27_2 C24_2 1_555 1_555
O1_2 C27_2 1_555 1_555
O2_2 Nd2_2 1_555 1_555
C28_2 C10_2 1_555 1_555
C29_2 C28_2 1_555 1_555
H13_2 C29_2 1_555 1_555
C30_2 C29_2 1_555 1_555
H14_2 C30_2 1_555 1_555
C31_2 C30_2 1_555 1_555
C32_2 C31_2 1_555 1_555
H15_2 C32_2 1_555 1_555
C33_2 C28_2 1_555 1_555
H16_2 C33_2 1_555 1_555
C34_2 C31_2 1_555 1_555
O3_2 C34_2 1_555 1_555
O4_2 C34_2 1_555 1_555
C35_2 C15_2 1_555 1_555
C36_2 C35_2 1_555 1_555
H17_2 C36_2 1_555 1_555
C37_2 C36_2 1_555 1_555
H18_2 C37_2 1_555 1_555
C38_2 C37_2 1_555 1_555
C39_2 C38_2 1_555 1_555
H19_2 C39_2 1_555 1_555
C40_2 C35_2 1_555 1_555
H20_2 C40_2 1_555 1_555
C41_2 C38_2 1_555 1_555
O5_2 C41_2 1_555 1_555
O6_2 C41_2 1_555 1_555
C42_2 C20_2 1_555 1_555
C43_2 C42_2 1_555 1_555
H21_2 C43_2 1_555 1_555
C44_2 C43_2 1_555 1_555
C47_2 C42_2 1_555 1_555
H24_2 C47_2 1_555 1_555
Pt2_2 N5_2 1_555 1_555
C49_2 C50_2 1_555 1_555
C50_2 C51_2 1_555 1_555
C51_2 H26_2 1_555 1_555
C52_2 C51_2 1_555 1_555
H27_2 C52_2 1_555 1_555
C53_2 C52_2 1_555 1_555
C54_2 C53_2 1_555 1_555
C55_2 C54_2 1_555 1_555
C56_2 C55_2 1_555 1_555
H28_2 C56_2 1_555 1_555
C57_2 C56_2 1_555 1_555
H29_2 C57_2 1_555 1_555
C58_2 C57_2 1_555 1_555
C59_3 C58_2 1_555 1_555
N5_2 C50_2 1_555 1_555
N6_2 Pt2_2 1_555 1_555
C60_3 C49_2 1_555 1_555
C61_2 C60_3 1_555 1_555
H30_2 C61_2 1_555 1_555
C62_2 C61_2 1_555 1_555
H31_2 C62_2 1_555 1_555
C63_3 C62_2 1_555 1_555
C64_3 C63_3 1_555 1_555
O9_2 Nd7_2 1_555 1_555
C65_2 C54_2 1_555 1_555
C66_2 C65_2 1_555 1_555
H32_2 C66_2 1_555 1_555
C67_2 C66_2 1_555 1_555
C68_2 C67_2 1_555 1_555
C69_2 C68_2 1_555 1_555
H34_2 C69_2 1_555 1_555
C70_2 C65_2 1_555 1_555
H35_2 C70_2 1_555 1_555
C72_3 C59_3 1_555 1_555
C73_2 C72_3 1_555 1_555
H36_2 C73_2 1_555 1_555
O13_2 Nd7_2 1_555 1_555
C77_2 O13_2 1_555 1_555
H38_2 C77_2 1_555 1_555
N7_2 C77_2 1_555 1_555
C78_2 N7_2 1_555 1_555
H39_2 C78_2 1_555 1_555
H40_2 C78_2 1_555 1_555
H41_2 C78_2 1_555 1_555
C79_2 N7_2 1_555 1_555
H42_2 C79_2 1_555 1_555
H43_2 C79_2 1_555 1_555
H44_2 C79_2 1_555 1_555
O14_2 Nd2_2 1_555 1_555
H45_2 O14_2 1_555 1_555
H46_2 O14_2 1_555 1_555
Nd9 O4_2 1_555 1_555
Nd11 O5_2 1_555 1_555
Nd13_2 O3_2 1_555 1_555
Nd15_2 O33_2 1_555 1_555
C108_2 C107_2 1_555 1_555
H59_2 C108_2 1_555 1_555
C109_2 C108_2 1_555 1_555
H60_2 C109_2 1_555 1_555
C110_2 C109_2 1_555 1_555
C111_2 C110_2 1_555 1_555
H61_2 C111_2 1_555 1_555
C112_2 C107_2 1_555 1_555
H62_2 C112_2 1_555 1_555
C113_2 C110_2 1_555 1_555
O17_2 Nd2_2 1_555 1_555
O19_2 Nd7_2 1_555 1_555
O22_2 Nd7_2 1_555 1_555
O25_2 Nd7_2 1_555 1_555
O28_2 Nd2_2 1_555 1_555
O30_2 Nd2_2 1_555 1_555
H72_2 O30_2 1_555 1_555
C128_2 C49_2 1_555 1_555
C129_2 C128_2 1_555 1_555
H73_2 C129_2 1_555 1_555
C130_2 C129_2 1_555 1_555
H74_2 C130_2 1_555 1_555
C131_2 C130_2 1_555 1_555
C132_2 C131_2 1_555 1_555
C133_2 C132_2 1_555 1_555
C134_2 C133_2 1_555 1_555
H75_2 C134_2 1_555 1_555
C135_2 C134_2 1_555 1_555
H76_2 C135_2 1_555 1_555
C136_2 C59_3 1_555 1_555
N12_2 Pt2_2 1_555 1_555
N13_2 Pt2_2 1_555 1_555
C137_2 C60_3 1_555 1_555
H77_2 C137_2 1_555 1_555
C138_2 C63_3 1_555 1_555
H78_2 C138_2 1_555 1_555
O32 C64_3 1_555 1_555
C139_2 C132_2 1_555 1_555
C140_2 C139_2 1_555 1_555
H79_2 C140_2 1_555 1_555
C141_2 C140_2 1_555 1_555
H80_2 C141_2 1_555 1_555
C142_2 C141_2 1_555 1_555
C143_2 C142_2 1_555 1_555
H81_2 C143_2 1_555 1_555
C144_2 C139_2 1_555 1_555
H82_2 C144_2 1_555 1_555
C145_2 C142_2 1_555 1_555
O33_2 C145_2 1_555 1_555
O34_2 Nd2_2 1_555 1_555
O36_2 Nd15_2 1_555 1_555
O37_2 Nd2_2 1_555 1_555
C146_2 C72_3 1_555 1_555
H83_2 C146_2 1_555 1_555
C4_2 N1_2 1_555 1_555
C6_2 N2_2 1_555 1_555
C9_2 N2_2 1_555 1_555
C11_2 N3_2 1_555 1_555
C14_2 N3_2 1_555 1_555
C16_2 N4_2 1_555 1_555
C19_2 C20_2 1_555 1_555
C19_2 N4_2 1_555 1_555
C25_2 C26_2 1_555 1_555
C27_2 O2_2 1_555 1_555
C32_2 C33_2 1_555 1_555
C39_2 C40_2 1_555 1_555
C46_2 C47_2 1_555 1_555
C53_2 N5_2 1_555 1_555
C55_2 N6_2 1_555 1_555
C58_2 N6_2 1_555 1_555
C64_3 O9_2 1_555 1_555
C69_2 C70_2 1_555 1_555
C111_2 C112_2 1_555 1_555
C113_2 O17_2 1_555 1_555
C113_2 O19_2 1_555 1_555
C128_2 N12_2 1_555 1_555
C131_2 N12_2 1_555 1_555
C133_2 N13_2 1_555 1_555
C135_2 C136_2 1_555 1_555
C136_2 N13_2 1_555 1_555
C137_2 C138_2 1_555 1_555
C143_2 C144_2 1_555 1_555
C145_2 O36_2 1_555 1_555
O30_2 H94_2 1_555 1_555
O10_2 C71_2 1_555 1_555
O11_2 C71_2 1_555 1_555
Nd14_2 O10_2 1_555 1_555
O11_2 Nd14_2 1_555 1_555
C48_2 C45_2 1_555 1_555
O7_2 C48_2 1_555 1_555
O8_2 C48_2 1_555 1_555
H25_2 O8_2 1_555 1_555
Nd9 O15_2 1_555 1_555
Nd13_2 O7_2 1_555 1_555
Pt3_2 N8_2 1_555 1_555
C80_2 C81_2 1_555 1_555
C81_2 H47_2 1_555 1_555
C82_2 C81_2 1_555 1_555
H48_2 C82_2 1_555 1_555
C83_2 C82_2 1_555 1_555
C84_2 C83_2 1_555 1_555
C85_2 C84_2 1_555 1_555
C86_2 C85_2 1_555 1_555
H49_2 C86_2 1_555 1_555
C87_2 C86_2 1_555 1_555
H50_2 C87_2 1_555 1_555
C88_2 C87_2 1_555 1_555
C89_2 C88_2 1_555 1_555
C90_2 C89_2 1_555 1_555
C99_2 C80_2 1_555 1_555
N8_2 C80_2 1_555 1_555
N9_2 Pt3_2 1_555 1_555
N10_2 Pt3_2 1_555 1_555
N11_2 Pt3_2 1_555 1_555
C100_2 C84_2 1_555 1_555
C101_2 C100_2 1_555 1_555
H55_2 C101_2 1_555 1_555
C102_2 C101_2 1_555 1_555
H56_2 C102_2 1_555 1_555
C103_2 C102_2 1_555 1_555
C104_2 C103_2 1_555 1_555
H57_2 C104_2 1_555 1_555
C105_2 C100_2 1_555 1_555
H58_2 C105_2 1_555 1_555
C106_2 C103_2 1_555 1_555
O15_2 Nd13_2 1_555 1_555
O16_2 Nd13_2 1_555 1_555
O23_2 Nd9 1_555 1_555
C121_2 C99_2 1_555 1_555
C122_2 C121_2 1_555 1_555
H67_2 C122_2 1_555 1_555
C123_2 C122_2 1_555 1_555
H68_2 C123_2 1_555 1_555
C124_2 C123_2 1_555 1_555
C125_2 C124_2 1_555 1_555
H69_2 C125_2 1_555 1_555
C126_2 C121_2 1_555 1_555
H70_2 C126_2 1_555 1_555
C127_2 C124_2 1_555 1_555
O28_2 C127_2 1_555 1_555
O35_2 Nd13_2 1_555 1_555
O38_2 Nd13_2 1_555 1_555
O42_2 Nd9 1_555 1_555
C148_2 O42_2 1_555 1_555
H85_2 C148_2 1_555 1_555
N14_2 C148_2 1_555 1_555
C149_2 N14_2 1_555 1_555
H86_2 C149_2 1_555 1_555
H87_2 C149_2 1_555 1_555
H88_2 C149_2 1_555 1_555
C150_2 N14_2 1_555 1_555
H89_2 C150_2 1_555 1_555
H90_2 C150_2 1_555 1_555
H91_2 C150_2 1_555 1_555
O43_2 Nd13_2 1_555 1_555
H92_2 O43_2 1_555 1_555
H93_2 O43_2 1_555 1_555
O8_2 Nd13_2 1_555 1_555
C83_2 N8_2 1_555 1_555
C85_2 N9_2 1_555 1_555
C88_2 N9_2 1_555 1_555
C90_2 N10_2 1_555 1_555
C98_2 C99_2 1_555 1_555
C98_2 N11_2 1_555 1_555
C104_2 C105_2 1_555 1_555
C106_2 O15_2 1_555 1_555
C106_2 O16_2 1_555 1_555
C125_2 C126_2 1_555 1_555
C127_2 O30_2 1_555 1_555
Nd6 O21_2 1_555 1_555
Nd5 O24_2 1_555 1_555
H51_2 C91_2 1_555 1_555
C92_2 C91_2 1_555 1_555
H52_2 C92_2 1_555 1_555
C93_2 C92_2 1_555 1_555
C94_2 C93_2 1_555 1_555
C95_2 C94_2 1_555 1_555
C96_2 C95_2 1_555 1_555
H53_2 C96_2 1_555 1_555
C97_2 C96_2 1_555 1_555
H54_2 C97_2 1_555 1_555
C114_2 C94_2 1_555 1_555
C115_2 C114_2 1_555 1_555
H63_2 C115_2 1_555 1_555
C116_2 C115_2 1_555 1_555
H64_2 C116_2 1_555 1_555
C117_2 C116_2 1_555 1_555
C118_2 C117_2 1_555 1_555
H65_2 C118_2 1_555 1_555
C119_2 C114_2 1_555 1_555
H66_2 C119_2 1_555 1_555
C120_2 C117_2 1_555 1_555
O21_2 C120_2 1_555 1_555
O24_2 C120_2 1_555 1_555
C118_2 C119_2 1_555 1_555
C60 C49_3 1_555 1_555
C50 C49_3 1_555 1_555
O8_2 H94_3 1_555 1_555
Pt2_3 N12 1_555 1_555
N13 Pt2_3 1_555 1_555
Pt2_4 N12_2 1_555 1_555
N13_2 Pt2_4 1_555 1_555
N5_2 Pt2_4 1_555 1_555
N6_2 Pt2_4 1_555 1_555
O8 H94_4 1_555 1_555
Nd14 O27 1_555 1_555
C127_3 C124_3 1_555 1_555
O27 C127_3 1_555 1_555
O29 Nd14 1_555 1_555
H71 O29 1_555 1_555
C127_3 O29 1_555 1_555
H51_3 C91_3 1_555 1_555
C92_3 C91_3 1_555 1_555
H52_3 C92_3 1_555 1_555
C93_3 C92_3 1_555 1_555
C94_3 C93_3 1_555 1_555
C95_3 C94_3 1_555 1_555
C96_3 C95_3 1_555 1_555
H53_3 C96_3 1_555 1_555
C97_3 C96_3 1_555 1_555
H54_3 C97_3 1_555 1_555
C114_3 C94_3 1_555 1_555
C115_3 C114_3 1_555 1_555
H63_3 C115_3 1_555 1_555
C116_3 C115_3 1_555 1_555
H64_3 C116_3 1_555 1_555
C117_3 C116_3 1_555 1_555
C118_3 C117_3 1_555 1_555
H65_3 C118_3 1_555 1_555
C119_3 C114_3 1_555 1_555
H66_3 C119_3 1_555 1_555
C120_3 C117_3 1_555 1_555
O23_2 C120_3 1_555 1_555
O25 C120_3 1_555 1_555
C118_3 C119_3 1_555 1_555
Nd11 O1_3 1_555 1_555
Nd14 O1_3 1_555 1_555
Pt1_3 N1_3 1_555 1_555
C1_3 C2_3 1_555 1_555
C2_3 H1_3 1_555 1_555
C3_3 C2_3 1_555 1_555
H2_3 C3_3 1_555 1_555
C4_3 C3_3 1_555 1_555
C5_3 C4_3 1_555 1_555
C6_3 C5_3 1_555 1_555
C7_3 C6_3 1_555 1_555
H3_3 C7_3 1_555 1_555
C8_3 C7_3 1_555 1_555
H4_3 C8_3 1_555 1_555
C9_3 C8_3 1_555 1_555
C10_3 C9_3 1_555 1_555
C11_3 C10_3 1_555 1_555
C12_3 C11_3 1_555 1_555
H5_3 C12_3 1_555 1_555
C13_3 C12_3 1_555 1_555
H6_3 C13_3 1_555 1_555
C14_3 C13_3 1_555 1_555
C15_3 C14_3 1_555 1_555
C16_3 C15_3 1_555 1_555
C17_3 C16_3 1_555 1_555
H7_3 C17_3 1_555 1_555
C18_3 C17_3 1_555 1_555
H8_3 C18_3 1_555 1_555
C19_3 C18_3 1_555 1_555
C20_3 C1_3 1_555 1_555
N1_3 C1_3 1_555 1_555
N2_3 Pt1_3 1_555 1_555
N3_3 Pt1_3 1_555 1_555
N4_3 Pt1_3 1_555 1_555
C21_3 C5_3 1_555 1_555
C22_3 C21_3 1_555 1_555
H9_3 C22_3 1_555 1_555
C23_3 C22_3 1_555 1_555
H10_3 C23_3 1_555 1_555
C24_3 C23_3 1_555 1_555
C25_3 C24_3 1_555 1_555
H11_3 C25_3 1_555 1_555
C26_3 C21_3 1_555 1_555
H12_3 C26_3 1_555 1_555
C27_3 C24_3 1_555 1_555
O1_3 C27_3 1_555 1_555
O2_3 Nd14 1_555 1_555
C35_3 C15_3 1_555 1_555
C36_3 C35_3 1_555 1_555
H17_3 C36_3 1_555 1_555
C37_3 C36_3 1_555 1_555
H18_3 C37_3 1_555 1_555
C38_3 C37_3 1_555 1_555
C39_3 C38_3 1_555 1_555
H19_3 C39_3 1_555 1_555
C40_3 C35_3 1_555 1_555
H20_3 C40_3 1_555 1_555
C41_3 C38_3 1_555 1_555
O22_2 C41_3 1_555 1_555
O26 C41_3 1_555 1_555
C42_3 C20_3 1_555 1_555
C43_3 C42_3 1_555 1_555
H21_3 C43_3 1_555 1_555
C44_3 C43_3 1_555 1_555
H22_3 C44_3 1_555 1_555
C45_3 C44_3 1_555 1_555
C46_3 C45_3 1_555 1_555
H23_3 C46_3 1_555 1_555
C47_3 C42_3 1_555 1_555
H24_3 C47_3 1_555 1_555
C48_3 C45_3 1_555 1_555
O7_3 C48_3 1_555 1_555
O8_3 C48_3 1_555 1_555
H25_3 O8_3 1_555 1_555
C62_3 C61_3 1_555 1_555
H31_3 C62_3 1_555 1_555
C63_4 C62_3 1_555 1_555
C64_4 C63_4 1_555 1_555
O9_3 Nd11 1_555 1_555
O13_3 Nd11 1_555 1_555
C77_3 O13_3 1_555 1_555
H38_3 C77_3 1_555 1_555
N7_3 C77_3 1_555 1_555
C78_3 N7_3 1_555 1_555
H39_3 C78_3 1_555 1_555
H40_3 C78_3 1_555 1_555
H41_3 C78_3 1_555 1_555
C79_3 N7_3 1_555 1_555
H42_3 C79_3 1_555 1_555
H43_3 C79_3 1_555 1_555
H44_3 C79_3 1_555 1_555
O14_3 Nd14 1_555 1_555
H45_3 O14_3 1_555 1_555
H46_3 O14_3 1_555 1_555
Nd6 O15_3 1_555 1_555
Nd15_2 O7_3 1_555 1_555
Pt3_3 N8_3 1_555 1_555
C80_3 C81_3 1_555 1_555
C81_3 H47_3 1_555 1_555
C82_3 C81_3 1_555 1_555
H48_3 C82_3 1_555 1_555
C83_3 C82_3 1_555 1_555
C84_3 C83_3 1_555 1_555
C85_3 C84_3 1_555 1_555
C86_3 C85_3 1_555 1_555
H49_3 C86_3 1_555 1_555
C87_3 C86_3 1_555 1_555
H50_3 C87_3 1_555 1_555
C88_3 C87_3 1_555 1_555
C89_3 C88_3 1_555 1_555
C90_3 C89_3 1_555 1_555
C99_3 C80_3 1_555 1_555
N8_3 C80_3 1_555 1_555
N9_3 Pt3_3 1_555 1_555
N10_3 Pt3_3 1_555 1_555
N11_3 Pt3_3 1_555 1_555
C100_3 C84_3 1_555 1_555
C101_3 C100_3 1_555 1_555
H55_3 C101_3 1_555 1_555
C102_3 C101_3 1_555 1_555
H56_3 C102_3 1_555 1_555
C103_3 C102_3 1_555 1_555
C104_3 C103_3 1_555 1_555
H57_3 C104_3 1_555 1_555
C105_3 C100_3 1_555 1_555
H58_3 C105_3 1_555 1_555
C106_3 C103_3 1_555 1_555
O15_3 Nd15_2 1_555 1_555
O16_3 Nd15_2 1_555 1_555
C107_3 C89_3 1_555 1_555
C108_3 C107_3 1_555 1_555
H59_3 C108_3 1_555 1_555
C109_3 C108_3 1_555 1_555
H60_3 C109_3 1_555 1_555
C110_3 C109_3 1_555 1_555
C111_3 C110_3 1_555 1_555
H61_3 C111_3 1_555 1_555
C112_3 C107_3 1_555 1_555
H62_3 C112_3 1_555 1_555
C113_3 C110_3 1_555 1_555
O17_3 Nd14 1_555 1_555
O18 Nd15_2 1_555 1_555
O19_3 Nd11 1_555 1_555
O20 Nd6 1_555 1_555
C121_3 C99_3 1_555 1_555
C122_3 C121_3 1_555 1_555
H67_3 C122_3 1_555 1_555
C123_3 C122_3 1_555 1_555
C126_3 C121_3 1_555 1_555
H70_3 C126_3 1_555 1_555
O32_2 Nd6 1_555 1_555
O40 Nd11 1_555 1_555
O41_2 Nd6 1_555 1_555
O42_3 Nd6 1_555 1_555
C148_3 O42_3 1_555 1_555
H85_3 C148_3 1_555 1_555
N14_3 C148_3 1_555 1_555
C149_3 N14_3 1_555 1_555
H86_3 C149_3 1_555 1_555
H87_3 C149_3 1_555 1_555
H88_3 C149_3 1_555 1_555
C150_3 N14_3 1_555 1_555
H89_3 C150_3 1_555 1_555
H90_3 C150_3 1_555 1_555
H91_3 C150_3 1_555 1_555
O43_3 Nd15_2 1_555 1_555
H92_3 O43_3 1_555 1_555
H93_3 O43_3 1_555 1_555
C4_3 N1_3 1_555 1_555
C6_3 N2_3 1_555 1_555
C9_3 N2_3 1_555 1_555
C11_3 N3_3 1_555 1_555
C14_3 N3_3 1_555 1_555
C16_3 N4_3 1_555 1_555
C19_3 C20_3 1_555 1_555
C19_3 N4_3 1_555 1_555
C25_3 C26_3 1_555 1_555
C27_3 O2_3 1_555 1_555
C39_3 C40_3 1_555 1_555
C46_3 C47_3 1_555 1_555
O8_3 Nd15_2 1_555 1_555
C64_4 O9_3 1_555 1_555
C83_3 N8_3 1_555 1_555
C85_3 N9_3 1_555 1_555
C88_3 N9_3 1_555 1_555
C90_3 N10_3 1_555 1_555
C98_3 C99_3 1_555 1_555
C98_3 N11_3 1_555 1_555
C104_3 C105_3 1_555 1_555
C106_3 O15_3 1_555 1_555
C106_3 O16_3 1_555 1_555
C111_3 C112_3 1_555 1_555
C113_3 O17_3 1_555 1_555
C113_3 O19_3 1_555 1_555
C125_3 C126_3 1_555 1_555
O29 H94_5 1_555 1_555
C29_3 C28_3 1_555 1_555
H13_3 C29_3 1_555 1_555
C30_3 C29_3 1_555 1_555
H14_3 C30_3 1_555 1_555
C31_3 C30_3 1_555 1_555
C32_3 C31_3 1_555 1_555
H15_3 C32_3 1_555 1_555
C33_3 C28_3 1_555 1_555
H16_3 C33_3 1_555 1_555
C34_3 C31_3 1_555 1_555
O18 C34_3 1_555 1_555
O20 C34_3 1_555 1_555
C60_4 C49_4 1_555 1_555
H32_3 C66_3 1_555 1_555
C72_4 C59_4 1_555 1_555
C73_3 C72_4 1_555 1_555
H36_3 C73_3 1_555 1_555
C74_3 C73_3 1_555 1_555
H37_3 C74_3 1_555 1_555
C75_4 C74_3 1_555 1_555
C76_4 C75_4 1_555 1_555
O40 C76_4 1_555 1_555
C128_3 C49_4 1_555 1_555
C129_3 C128_3 1_555 1_555
H73_3 C129_3 1_555 1_555
C130_3 C129_3 1_555 1_555
H74_3 C130_3 1_555 1_555
C131_3 C130_3 1_555 1_555
C132_3 C131_3 1_555 1_555
C133_3 C132_3 1_555 1_555
C134_3 C133_3 1_555 1_555
H75_3 C134_3 1_555 1_555
C135_3 C134_3 1_555 1_555
H76_3 C135_3 1_555 1_555
C136_3 C59_4 1_555 1_555
C139_3 C132_3 1_555 1_555
C142_3 C141_3 1_555 1_555
C143_3 C142_3 1_555 1_555
H81_3 C143_3 1_555 1_555
C144_3 C139_3 1_555 1_555
H82_3 C144_3 1_555 1_555
C145_3 C142_3 1_555 1_555
O35_2 C145_3 1_555 1_555
C32_3 C33_3 1_555 1_555
C128_3 N12_3 1_555 1_555
C131_3 N12_3 1_555 1_555
C133_3 N13_3 1_555 1_555
C135_3 C136_3 1_555 1_555
C136_3 N13_3 1_555 1_555
C143_3 C144_3 1_555 1_555
C145_3 O38_2 1_555 1_555
C64_5 C63_5 1_555 1_555
Nd10 O31_2 1_555 1_555
C138_3 C63_5 1_555 1_555
H78_3 C138_3 1_555 1_555
O31_2 C64_5 1_555 1_555
C137_3 C138_3 1_555 1_555
O34 C71_3 1_555 1_555
O37 C71_3 1_555 1_555
Pt2_5 N5_3 1_555 1_555
C50_3 C51_3 1_555 1_555
C51_3 H26_3 1_555 1_555
C52_3 C51_3 1_555 1_555
H27_3 C52_3 1_555 1_555
C53_3 C52_3 1_555 1_555
C54_3 C53_3 1_555 1_555
C55_3 C54_3 1_555 1_555
C56_3 C55_3 1_555 1_555
H28_3 C56_3 1_555 1_555
C57_3 C56_3 1_555 1_555
H29_3 C57_3 1_555 1_555
C58_3 C57_3 1_555 1_555
C59_5 C58_3 1_555 1_555
N5_3 C50_3 1_555 1_555
N6_3 Pt2_5 1_555 1_555
C65_3 C54_3 1_555 1_555
C68_3 C67_3 1_555 1_555
C69_3 C68_3 1_555 1_555
H34_3 C69_3 1_555 1_555
C70_3 C65_3 1_555 1_555
H35_3 C70_3 1_555 1_555
C72_5 C59_5 1_555 1_555
C76_5 C75_5 1_555 1_555
Nd10 O39_2 1_555 1_555
H79_3 C140_3 1_555 1_555
C146_3 C72_5 1_555 1_555
H83_3 C146_3 1_555 1_555
C147_3 C75_5 1_555 1_555
H84_3 C147_3 1_555 1_555
O39_2 C76_5 1_555 1_555
C53_3 N5_3 1_555 1_555
C55_3 N6_3 1_555 1_555
C58_3 N6_3 1_555 1_555
C69_3 C70_3 1_555 1_555
C146_3 C147_3 1_555 1_555
H51_4 C91_4 1_555 1_555
C92_4 C91_4 1_555 1_555
H52_4 C92_4 1_555 1_555
C93_4 C92_4 1_555 1_555
C94_4 C93_4 1_555 1_555
C95_4 C94_4 1_555 1_555
C96_4 C95_4 1_555 1_555
H53_4 C96_4 1_555 1_555
C97_4 C96_4 1_555 1_555
H54_4 C97_4 1_555 1_555
C114_4 C94_4 1_555 1_555
C115_4 C114_4 1_555 1_555
H63_4 C115_4 1_555 1_555
C116_4 C115_4 1_555 1_555
H64_4 C116_4 1_555 1_555
C117_4 C116_4 1_555 1_555
C118_4 C117_4 1_555 1_555
H65_4 C118_4 1_555 1_555
C119_4 C114_4 1_555 1_555
H66_4 C119_4 1_555 1_555
C120_4 C117_4 1_555 1_555
O23 C120_4 1_555 1_555
O25_2 C120_4 1_555 1_555
C118_4 C119_4 1_555 1_555
C48_4 C45_4 1_555 1_555
O7_4 C48_4 1_555 1_555
O8_4 C48_4 1_555 1_555
H25_4 O8_4 1_555 1_555
Nd10 O15_4 1_555 1_555
Nd15 O7_4 1_555 1_555
Nd14_2 O27_2 1_555 1_555
Pt3_4 N8_4 1_555 1_555
C80_4 C81_4 1_555 1_555
C81_4 H47_4 1_555 1_555
C82_4 C81_4 1_555 1_555
H48_4 C82_4 1_555 1_555
C83_4 C82_4 1_555 1_555
C84_4 C83_4 1_555 1_555
C85_4 C84_4 1_555 1_555
C86_4 C85_4 1_555 1_555
H49_4 C86_4 1_555 1_555
C87_4 C86_4 1_555 1_555
H50_4 C87_4 1_555 1_555
C88_4 C87_4 1_555 1_555
C89_4 C88_4 1_555 1_555
C90_4 C89_4 1_555 1_555
C99_4 C80_4 1_555 1_555
N8_4 C80_4 1_555 1_555
N9_4 Pt3_4 1_555 1_555
N10_4 Pt3_4 1_555 1_555
N11_4 Pt3_4 1_555 1_555
C100_4 C84_4 1_555 1_555
C101_4 C100_4 1_555 1_555
H55_4 C101_4 1_555 1_555
C102_4 C101_4 1_555 1_555
H56_4 C102_4 1_555 1_555
C103_4 C102_4 1_555 1_555
C104_4 C103_4 1_555 1_555
H57_4 C104_4 1_555 1_555
C105_4 C100_4 1_555 1_555
H58_4 C105_4 1_555 1_555
C106_4 C103_4 1_555 1_555
O15_4 Nd15 1_555 1_555
O16_4 Nd15 1_555 1_555
O18_2 Nd15 1_555 1_555
O20_2 Nd10 1_555 1_555
C121_4 C99_4 1_555 1_555
C122_4 C121_4 1_555 1_555
H67_4 C122_4 1_555 1_555
C123_4 C122_4 1_555 1_555
H68_4 C123_4 1_555 1_555
C124_4 C123_4 1_555 1_555
C125_4 C124_4 1_555 1_555
H69_4 C125_4 1_555 1_555
C126_4 C121_4 1_555 1_555
H70_4 C126_4 1_555 1_555
C127_4 C124_4 1_555 1_555
O27_2 C127_4 1_555 1_555
O29_2 Nd14_2 1_555 1_555
H71_2 O29_2 1_555 1_555
O42_4 Nd10 1_555 1_555
C148_4 O42_4 1_555 1_555
H85_4 C148_4 1_555 1_555
N14_4 C148_4 1_555 1_555
C149_4 N14_4 1_555 1_555
H86_4 C149_4 1_555 1_555
H87_4 C149_4 1_555 1_555
H88_4 C149_4 1_555 1_555
C150_4 N14_4 1_555 1_555
H89_4 C150_4 1_555 1_555
H90_4 C150_4 1_555 1_555
H91_4 C150_4 1_555 1_555
O43_4 Nd15 1_555 1_555
H92_4 O43_4 1_555 1_555
H93_4 O43_4 1_555 1_555
O8_4 Nd15 1_555 1_555
C83_4 N8_4 1_555 1_555
C85_4 N9_4 1_555 1_555
C88_4 N9_4 1_555 1_555
C90_4 N10_4 1_555 1_555
C98_4 C99_4 1_555 1_555
C98_4 N11_4 1_555 1_555
C104_4 C105_4 1_555 1_555
C106_4 O15_4 1_555 1_555
C106_4 O16_4 1_555 1_555
C125_4 C126_4 1_555 1_555
C127_4 O29_2 1_555 1_555
O34_2 C71_4 1_555 1_555
O37_2 C71_4 1_555 1_555
Nd5 O1_4 1_555 1_555
Nd14_2 O1_4 1_555 1_555
Pt1_4 N1_4 1_555 1_555
C1_4 C2_4 1_555 1_555
C2_4 H1_4 1_555 1_555
C3_4 C2_4 1_555 1_555
H2_4 C3_4 1_555 1_555
C4_4 C3_4 1_555 1_555
C5_4 C4_4 1_555 1_555
C6_4 C5_4 1_555 1_555
C7_4 C6_4 1_555 1_555
H3_4 C7_4 1_555 1_555
C8_4 C7_4 1_555 1_555
H4_4 C8_4 1_555 1_555
C9_4 C8_4 1_555 1_555
C10_4 C9_4 1_555 1_555
C11_4 C10_4 1_555 1_555
C12_4 C11_4 1_555 1_555
H5_4 C12_4 1_555 1_555
C13_4 C12_4 1_555 1_555
H6_4 C13_4 1_555 1_555
C14_4 C13_4 1_555 1_555
C15_4 C14_4 1_555 1_555
C16_4 C15_4 1_555 1_555
C17_4 C16_4 1_555 1_555
H7_4 C17_4 1_555 1_555
C18_4 C17_4 1_555 1_555
H8_4 C18_4 1_555 1_555
C19_4 C18_4 1_555 1_555
C20_4 C1_4 1_555 1_555
N1_4 C1_4 1_555 1_555
N2_4 Pt1_4 1_555 1_555
N3_4 Pt1_4 1_555 1_555
N4_4 Pt1_4 1_555 1_555
C21_4 C5_4 1_555 1_555
C22_4 C21_4 1_555 1_555
H9_4 C22_4 1_555 1_555
C23_4 C22_4 1_555 1_555
H10_4 C23_4 1_555 1_555
C24_4 C23_4 1_555 1_555
C25_4 C24_4 1_555 1_555
H11_4 C25_4 1_555 1_555
C26_4 C21_4 1_555 1_555
H12_4 C26_4 1_555 1_555
C27_4 C24_4 1_555 1_555
O1_4 C27_4 1_555 1_555
O2_4 Nd14_2 1_555 1_555
C28_4 C10_4 1_555 1_555
C29_4 C28_4 1_555 1_555
H13_4 C29_4 1_555 1_555
C30_4 C29_4 1_555 1_555
H14_4 C30_4 1_555 1_555
C31_4 C30_4 1_555 1_555
C32_4 C31_4 1_555 1_555
H15_4 C32_4 1_555 1_555
C33_4 C28_4 1_555 1_555
H16_4 C33_4 1_555 1_555
C34_4 C31_4 1_555 1_555
O18_2 C34_4 1_555 1_555
O20_2 C34_4 1_555 1_555
C35_4 C15_4 1_555 1_555
C36_4 C35_4 1_555 1_555
H17_4 C36_4 1_555 1_555
C37_4 C36_4 1_555 1_555
H18_4 C37_4 1_555 1_555
C38_4 C37_4 1_555 1_555
C39_4 C38_4 1_555 1_555
H19_4 C39_4 1_555 1_555
C40_4 C35_4 1_555 1_555
H20_4 C40_4 1_555 1_555
C41_4 C38_4 1_555 1_555
O22 C41_4 1_555 1_555
O26_2 C41_4 1_555 1_555
C42_4 C20_4 1_555 1_555
C43_4 C42_4 1_555 1_555
H21_4 C43_4 1_555 1_555
C44_4 C43_4 1_555 1_555
C47_4 C42_4 1_555 1_555
H24_4 C47_4 1_555 1_555
Pt2_6 N5_4 1_555 1_555
C49_5 C50_4 1_555 1_555
C50_4 C51_4 1_555 1_555
C51_4 H26_4 1_555 1_555
C52_4 C51_4 1_555 1_555
H27_4 C52_4 1_555 1_555
C53_4 C52_4 1_555 1_555
C54_4 C53_4 1_555 1_555
C55_4 C54_4 1_555 1_555
C56_4 C55_4 1_555 1_555
H28_4 C56_4 1_555 1_555
C57_4 C56_4 1_555 1_555
H29_4 C57_4 1_555 1_555
C58_4 C57_4 1_555 1_555
C59_6 C58_4 1_555 1_555
N5_4 C50_4 1_555 1_555
N6_4 Pt2_6 1_555 1_555
C60_6 C49_5 1_555 1_555
C61_4 C60_6 1_555 1_555
H30_4 C61_4 1_555 1_555
C62_4 C61_4 1_555 1_555
H31_4 C62_4 1_555 1_555
C63_6 C62_4 1_555 1_555
C64_6 C63_6 1_555 1_555
O9_4 Nd5 1_555 1_555
C65_4 C54_4 1_555 1_555
C66_4 C65_4 1_555 1_555
H32_4 C66_4 1_555 1_555
C67_4 C66_4 1_555 1_555
C68_4 C67_4 1_555 1_555
C69_4 C68_4 1_555 1_555
H34_4 C69_4 1_555 1_555
C70_4 C65_4 1_555 1_555
H35_4 C70_4 1_555 1_555
C72_6 C59_6 1_555 1_555
C73_4 C72_6 1_555 1_555
H36_4 C73_4 1_555 1_555
O13_4 Nd5 1_555 1_555
C77_4 O13_4 1_555 1_555
H38_4 C77_4 1_555 1_555
N7_4 C77_4 1_555 1_555
C78_4 N7_4 1_555 1_555
H39_4 C78_4 1_555 1_555
H40_4 C78_4 1_555 1_555
H41_4 C78_4 1_555 1_555
C79_4 N7_4 1_555 1_555
H42_4 C79_4 1_555 1_555
H43_4 C79_4 1_555 1_555
H44_4 C79_4 1_555 1_555
O14_4 Nd14_2 1_555 1_555
H45_4 O14_4 1_555 1_555
H46_4 O14_4 1_555 1_555
C108_4 C107_4 1_555 1_555
H59_4 C108_4 1_555 1_555
C109_4 C108_4 1_555 1_555
H60_4 C109_4 1_555 1_555
C110_4 C109_4 1_555 1_555
C111_4 C110_4 1_555 1_555
H61_4 C111_4 1_555 1_555
C112_4 C107_4 1_555 1_555
H62_4 C112_4 1_555 1_555
C113_4 C110_4 1_555 1_555
O17_4 Nd14_2 1_555 1_555
O19_4 Nd5 1_555 1_555
C128_4 C49_5 1_555 1_555
C129_4 C128_4 1_555 1_555
H73_4 C129_4 1_555 1_555
C130_4 C129_4 1_555 1_555
H74_4 C130_4 1_555 1_555
C131_4 C130_4 1_555 1_555
C132_4 C131_4 1_555 1_555
C133_4 C132_4 1_555 1_555
C134_4 C133_4 1_555 1_555
H75_4 C134_4 1_555 1_555
C135_4 C134_4 1_555 1_555
H76_4 C135_4 1_555 1_555
C136_4 C59_6 1_555 1_555
N12_4 Pt2_6 1_555 1_555
N13_4 Pt2_6 1_555 1_555
C137_4 C60_6 1_555 1_555
H77_4 C137_4 1_555 1_555
C138_4 C63_6 1_555 1_555
H78_4 C138_4 1_555 1_555
O32_2 C64_6 1_555 1_555
C139_4 C132_4 1_555 1_555
C140_4 C139_4 1_555 1_555
H79_4 C140_4 1_555 1_555
C141_4 C140_4 1_555 1_555
H80_4 C141_4 1_555 1_555
C142_4 C141_4 1_555 1_555
C143_4 C142_4 1_555 1_555
H81_4 C143_4 1_555 1_555
C144_4 C139_4 1_555 1_555
H82_4 C144_4 1_555 1_555
C145_4 C142_4 1_555 1_555
O35 C145_4 1_555 1_555
C146_4 C72_6 1_555 1_555
H83_4 C146_4 1_555 1_555
O40_2 Nd5 1_555 1_555
C4_4 N1_4 1_555 1_555
C6_4 N2_4 1_555 1_555
C9_4 N2_4 1_555 1_555
C11_4 N3_4 1_555 1_555
C14_4 N3_4 1_555 1_555
C16_4 N4_4 1_555 1_555
C19_4 C20_4 1_555 1_555
C19_4 N4_4 1_555 1_555
C25_4 C26_4 1_555 1_555
C27_4 O2_4 1_555 1_555
C32_4 C33_4 1_555 1_555
C39_4 C40_4 1_555 1_555
C46_4 C47_4 1_555 1_555
C53_4 N5_4 1_555 1_555
C55_4 N6_4 1_555 1_555
C58_4 N6_4 1_555 1_555
C64_6 O9_4 1_555 1_555
C69_4 C70_4 1_555 1_555
C111_4 C112_4 1_555 1_555
C113_4 O17_4 1_555 1_555
C113_4 O19_4 1_555 1_555
C128_4 N12_4 1_555 1_555
C131_4 N12_4 1_555 1_555
C133_4 N13_4 1_555 1_555
C135_4 C136_4 1_555 1_555
C136_4 N13_4 1_555 1_555
C137_4 C138_4 1_555 1_555
C143_4 C144_4 1_555 1_555
C145_4 O38 1_555 1_555
O29_2 H94_6 1_555 1_555
H37_4 C74_4 1_555 1_555
C75_6 C74_4 1_555 1_555
C76_6 C75_6 1_555 1_555
O40_2 C76_6 1_555 1_555
C147_4 C75_6 1_555 1_555
H84_4 C147_4 1_555 1_555
O41_2 C76_6 1_555 1_555
Pt2_7 N12_3 1_555 1_555
N13_3 Pt2_7 1_555 1_555
O8_4 H94_7 1_555 1_555
C60_5 C49_6 1_555 1_555
C50_3 C49_6 1_555 1_555
Pt2_8 N12_4 1_555 1_555
N13_4 Pt2_8 1_555 1_555
N5_4 Pt2_8 1_555 1_555
N6_4 Pt2_8 1_555 1_555
O8_3 H94_8 1_555 1_555

#END
