
###############################################################################
#
# This file contains modified crystal structure data generated from the
# MOF subset of the Cambridge Structural Database (CSD) v543 
# hosted by the Cambridge Crystallographic Data Centre (CCDC).
#
# This work is licensed under the Creative Commons
# Attribution-NonCommercial-ShareAlike 4.0 International License.
# To view a copy of this license, visit
# http://creativecommons.org/licenses/by-nc-sa/4.0/
# or send a letter to
# Creative Commons, PO Box 1866, Mountain View, CA 94042, USA.
#
# CIF created using the CSD Python API on 29 September 2022
# The structure has been converted into the P1 space group
# The structure has a 3D framework
# The original CSD entry MIHMAS is in the triclinic crystal system
# The framework has been calculated to contain at least 10.0% void space
# The void calculation uses a probe of radius 1.32A, grid spacing 0.4
#
###############################################################################

data_MIHMAS
_chemical_formula_moiety         '(C98 H50 Cu2 Dy2 N8 O18)n'
_symmetry_cell_setting           triclinic
_symmetry_space_group_name_H-M   'P 1'
_symmetry_Int_Tables_number      1
_space_group_name_Hall           'P 1'
loop_
_symmetry_equiv_pos_site_id
_symmetry_equiv_pos_as_xyz
1 x,y,z
_cell_length_a                   9.5168(2)
_cell_length_b                   15.0535(3)
_cell_length_c                   18.0806(4)
_cell_angle_alpha                92.6233(11)
_cell_angle_beta                 103.7107(11)
_cell_angle_gamma                95.6065(11)
_cell_volume                     2498.03
loop_
_atom_site_label
_atom_site_type_symbol
_atom_site_fract_x
_atom_site_fract_y
_atom_site_fract_z
_atom_site_U_iso_or_equiv
_atom_site_thermal_displace_type
C8 C 0.0374(7) 0.0548(5) 0.6590(4) 0.0238 Uani
H4 H 0.1263 0.0815 0.6918 0.0290 Uiso
H5 H 0.0128 0.3306 0.4933 0.0470 Uiso
C28 C 0.1215(7) 0.2323(4) 0.6052(4) 0.0239 Uani
C29 C 0.1246(8) 0.2754(5) 0.6756(4) 0.0349 Uani
H13 H 0.0539 0.2554 0.7022 0.0420 Uiso
C30 C 0.2278(8) 0.3465(5) 0.7078(4) 0.0317 Uani
H14 H 0.2259 0.3761 0.7550 0.0390 Uiso
C31 C 0.3354(7) 0.3744(4) 0.6696(4) 0.0257 Uani
C32 C 0.3401(8) 0.3309(5) 0.6014(4) 0.0291 Uani
H15 H 0.4140 0.3491 0.5762 0.0350 Uiso
C33 C 0.2339(7) 0.2597(5) 0.5704(4) 0.0258 Uani
H16 H 0.2380 0.2288 0.5241 0.0310 Uiso
C34 C 0.4531(8) 0.4521(5) 0.7013(4) 0.0274 Uani
O3 O 0.4510(5) 0.4823(3) 0.7696(3) 0.0321 Uani
H17 H 0.5311 0.5189 0.7936 0.0280 Uiso
O4 O 0.5385(7) 0.4792(4) 0.6664(4) 0.0570 Uani
O6 O 0.0040(4) 0.3822(3) 0.0720(2) 0.0165 Uani
Dy4 Dy 0.19744(3) 0.444988(19) 0.029732(16) 0.0119 Uani
Cu1 Cu 0.72243(10) 0.02607(6) 0.44877(5) 0.0284 Uani
C9 C 0.9602(7) 0.0860(4) 0.5885(4) 0.0194 Uani
C10 C 0.9994(7) 0.1684(4) 0.5627(4) 0.0206 Uani
C11 C 0.9252(7) 0.1938(4) 0.4918(4) 0.0233 Uani
C12 C 0.9521(9) 0.2806(5) 0.4649(5) 0.0395 Uani
C13 C 0.8761(8) 0.2777(5) 0.3929(4) 0.0362 Uani
H6 H 0.8729 0.3253 0.3601 0.0430 Uiso
C14 C 0.7998(7) 0.1898(4) 0.3738(4) 0.0239 Uani
C15 C 0.7292(7) 0.1569(4) 0.3007(4) 0.0225 Uani
C16 C 0.6521(7) 0.0721(4) 0.2848(4) 0.0182 Uani
C17 C 0.5801(7) 0.0343(5) 0.2106(4) 0.0247 Uani
H7 H 0.5860 0.0588 0.1638 0.0300 Uiso
N2 N 0.8399(6) 0.0278(4) 0.5546(3) 0.0188 Uani
N3 N 0.8263(6) 0.1402(3) 0.4370(3) 0.0166 Uani
N4 N 0.6232(6) 0.0167(3) 0.3398(3) 0.0179 Uani
C35 C 0.7486(7) 0.2129(4) 0.2376(4) 0.0207 Uani
C36 C 0.6814(7) 0.2902(5) 0.2224(4) 0.0270 Uani
H18 H 0.6064 0.3023 0.2468 0.0320 Uiso
C37 C 0.7204(7) 0.3502(4) 0.1730(4) 0.0212 Uani
H19 H 0.6738 0.4030 0.1636 0.0250 Uiso
C38 C 0.8305(7) 0.3310(4) 0.1371(3) 0.0172 Uani
C39 C 0.8923(7) 0.2516(5) 0.1469(4) 0.0279 Uani
H20 H 0.9640 0.2378 0.1208 0.0330 Uiso
C40 C 0.8476(8) 0.1920(5) 0.1960(4) 0.0307 Uani
H21 H 0.8858 0.1360 0.2011 0.0370 Uiso
C41 C 0.8886(6) 0.3982(4) 0.0889(3) 0.0172 Uani
O5 O 0.8173(5) 0.4630(3) 0.0702(2) 0.0190 Uani
Dy3 Dy 0.80256(3) 0.555012(19) 0.970268(16) 0.0119 Uani
O9 O 0.6133(4) 0.6005(3) 0.0234(2) 0.0148 Uani
O10 O 0.4137(4) 0.5522(3) 0.0619(2) 0.0177 Uani
C49 C 0.5083(6) 0.5439(4) 0.0248(3) 0.0141 Uani
O24 O 0.9349(4) 0.6538(3) 0.0742(2) 0.0189 Uani
C1 C 0.4851(7) 0.8733(4) 0.4112(4) 0.0182 Uani
C2 C 0.4069(7) 0.8087(4) 0.4478(4) 0.0207 Uani
H1 H 0.3215 0.7701 0.4239 0.0250 Uiso
C3 C 0.4785(7) 0.8134(5) 0.5225(4) 0.0221 Uani
H2 H 0.4525 0.7792 0.5611 0.0270 Uiso
C4 C 0.6025(7) 0.8808(4) 0.5322(4) 0.0187 Uani
C5 C 0.7113(7) 0.8955(4) 0.5986(3) 0.0186 Uani
C6 C 0.8297(7) 0.9638(4) 0.6053(4) 0.0161 Uani
C7 C 0.9543(7) 0.9770(4) 0.6689(4) 0.0203 Uani
H3 H 0.9760 0.9396 0.7101 0.0250 Uiso
C18 C 0.5009(7) 0.9567(4) 0.2187(4) 0.0206 Uani
H8 H 0.4408 0.9167 0.1790 0.0250 Uiso
C19 C 0.5271(7) 0.9474(4) 0.3002(3) 0.0184 Uani
C20 C 0.4550(7) 0.8803(4) 0.3329(4) 0.0166 Uani
N1 N 0.6008(5) 0.9201(3) 0.4640(3) 0.0152 Uani
C21 C 0.7118(7) 0.8395(4) 0.6634(4) 0.0184 Uani
C22 C 0.7103(8) 0.7462(4) 0.6559(4) 0.0257 Uani
H9 H 0.7129 0.7185 0.6080 0.0310 Uiso
C23 C 0.7052(7) 0.6937(4) 0.7153(4) 0.0231 Uani
H10 H 0.7011 0.6306 0.7074 0.0280 Uiso
C24 C 0.7060(6) 0.7317(4) 0.7870(4) 0.0153 Uani
C25 C 0.7085(7) 0.8238(5) 0.7969(4) 0.0233 Uani
H11 H 0.7092 0.8510 0.8455 0.0280 Uiso
C26 C 0.7100(7) 0.8768(4) 0.7355(4) 0.0189 Uani
H12 H 0.7098 0.9396 0.7429 0.0220 Uiso
C27 C 0.7099(6) 0.6743(4) 0.8533(4) 0.0182 Uani
O1 O 0.7412(5) 0.7097(3) 0.9202(2) 0.0192 Uani
O2 O 0.6865(5) 0.5895(3) 0.8410(2) 0.0190 Uani
C42 C 0.3477(7) 0.8143(4) 0.2791(4) 0.0192 Uani
C43 C 0.4021(9) 0.7453(6) 0.2439(5) 0.0462 Uani
H22 H 0.5032 0.7391 0.2579 0.0550 Uiso
C44 C 0.3094(9) 0.6858(6) 0.1885(5) 0.0424 Uani
H23 H 0.3467 0.6378 0.1662 0.0510 Uiso
C45 C 0.1609(7) 0.6963(4) 0.1653(4) 0.0179 Uani
C46 C 0.1135(7) 0.7688(5) 0.1961(5) 0.0320 Uani
H24 H 0.0150 0.7798 0.1778 0.0380 Uiso
C47 C 0.2038(7) 0.8267(5) 0.2528(4) 0.0299 Uani
H25 H 0.1661 0.8754 0.2739 0.0360 Uiso
C48 C 0.0619(7) 0.6335(4) 0.1025(4) 0.0177 Uani
O7 O 0.1115(5) 0.5656(3) 0.0807(2) 0.0195 Uani
O18 O 0.9960(4) 0.6178(3) 0.9280(2) 0.0165 Uani
O21 O 0.8885(5) 0.4344(3) 0.9193(2) 0.0195 Uani
O26 O 0.3867(4) 0.3995(3) 0.9766(2) 0.0148 Uani
O28 O 0.5863(4) 0.4478(3) 0.9381(2) 0.0177 Uani
C98 C 0.4917(6) 0.4561(4) 0.9752(3) 0.0141 Uani
O23 O 0.0651(4) 0.3462(3) 0.9258(2) 0.0189 Uani
C50 C 0.5149(7) 0.1267(4) 0.5888(4) 0.0182 Uani
C51 C 0.5931(7) 0.1913(4) 0.5522(4) 0.0207 Uani
H26 H 0.6785 0.2299 0.5761 0.0250 Uiso
C52 C 0.5215(7) 0.1866(5) 0.4775(4) 0.0221 Uani
H27 H 0.5475 0.2208 0.4389 0.0270 Uiso
C53 C 0.3975(7) 0.1192(4) 0.4678(4) 0.0187 Uani
C54 C 0.2887(7) 0.1045(4) 0.4014(3) 0.0186 Uani
C55 C 0.1703(7) 0.0362(4) 0.3947(4) 0.0161 Uani
C56 C 0.0457(7) 0.0230(4) 0.3311(4) 0.0203 Uani
H28 H 0.0240 0.0604 0.2899 0.0250 Uiso
C67 C 0.4991(7) 0.0433(4) 0.7813(4) 0.0206 Uani
H33 H 0.5592 0.0833 0.8210 0.0250 Uiso
C68 C 0.4729(7) 0.0526(4) 0.6998(3) 0.0184 Uani
C69 C 0.5450(7) 0.1197(4) 0.6671(4) 0.0166 Uani
N5 N 0.3992(5) 0.0799(3) 0.5360(3) 0.0152 Uani
C70 C 0.2882(7) 0.1605(4) 0.3366(4) 0.0184 Uani
C71 C 0.2897(8) 0.2538(4) 0.3441(4) 0.0257 Uani
H34 H 0.2871 0.2815 0.3920 0.0310 Uiso
C72 C 0.2948(7) 0.3063(4) 0.2847(4) 0.0231 Uani
H35 H 0.2989 0.3694 0.2926 0.0280 Uiso
C73 C 0.2940(6) 0.2683(4) 0.2130(4) 0.0153 Uani
C74 C 0.2915(7) 0.1762(5) 0.2031(4) 0.0233 Uani
H36 H 0.2908 0.1490 0.1545 0.0280 Uiso
C75 C 0.2900(7) 0.1232(4) 0.2645(4) 0.0189 Uani
H37 H 0.2902 0.0604 0.2571 0.0220 Uiso
C76 C 0.2901(6) 0.3257(4) 0.1467(4) 0.0182 Uani
O11 O 0.2588(5) 0.2903(3) 0.0798(2) 0.0192 Uani
O12 O 0.3135(5) 0.4105(3) 0.1590(2) 0.0190 Uani
C91 C 0.6523(7) 0.1857(4) 0.7209(4) 0.0192 Uani
C92 C 0.5979(9) 0.2547(6) 0.7561(5) 0.0462 Uani
H47 H 0.4968 0.2609 0.7421 0.0550 Uiso
C93 C 0.6906(9) 0.3142(6) 0.8115(5) 0.0424 Uani
H48 H 0.6533 0.3622 0.8338 0.0510 Uiso
C94 C 0.8391(7) 0.3037(4) 0.8347(4) 0.0179 Uani
C95 C 0.8865(7) 0.2312(5) 0.8039(5) 0.0320 Uani
H49 H 0.9850 0.2202 0.8222 0.0380 Uiso
C96 C 0.7962(7) 0.1733(5) 0.7472(4) 0.0299 Uani
H50 H 0.8339 0.1246 0.7261 0.0360 Uiso
C97 C 0.9381(7) 0.3665(4) 0.8975(4) 0.0177 Uani
O16 O 0.1827(5) 0.5370(3) 0.9298(2) 0.0190 Uani
Cu2 Cu 0.27757(10) 0.97393(6) 0.55123(5) 0.0284 Uani
C58 C 0.0398(7) 0.9140(4) 0.4115(4) 0.0194 Uani
C59 C 0.0006(7) 0.8316(4) 0.4373(4) 0.0206 Uani
C60 C 0.0748(7) 0.8062(4) 0.5082(4) 0.0233 Uani
C61 C 0.0479(9) 0.7194(5) 0.5351(5) 0.0395 Uani
C62 C 0.1239(8) 0.7223(5) 0.6071(4) 0.0362 Uani
H31 H 0.1271 0.6747 0.6399 0.0430 Uiso
C63 C 0.2002(7) 0.8102(4) 0.6262(4) 0.0239 Uani
C64 C 0.2708(7) 0.8431(4) 0.6993(4) 0.0225 Uani
C65 C 0.3479(7) 0.9279(4) 0.7152(4) 0.0182 Uani
C66 C 0.4199(7) 0.9657(5) 0.7894(4) 0.0247 Uani
H32 H 0.4140 0.9412 0.8362 0.0300 Uiso
N6 N 0.1601(6) 0.9722(4) 0.4454(3) 0.0188 Uani
N7 N 0.1737(6) 0.8598(3) 0.5630(3) 0.0166 Uani
N8 N 0.3768(6) 0.9833(3) 0.6602(3) 0.0179 Uani
C84 C 0.2514(7) 0.7871(4) 0.7624(4) 0.0207 Uani
C85 C 0.3186(7) 0.7098(5) 0.7776(4) 0.0270 Uani
H43 H 0.3936 0.6977 0.7532 0.0320 Uiso
C86 C 0.2796(7) 0.6498(4) 0.8270(4) 0.0212 Uani
H44 H 0.3262 0.5970 0.8364 0.0250 Uiso
C87 C 0.1695(7) 0.6690(4) 0.8629(3) 0.0172 Uani
C88 C 0.1077(7) 0.7484(5) 0.8531(4) 0.0279 Uani
H45 H 0.0360 0.7622 0.8792 0.0330 Uiso
C89 C 0.1524(8) 0.8080(5) 0.8040(4) 0.0307 Uani
H46 H 0.1142 0.8640 0.7989 0.0370 Uiso
C90 C 0.1114(6) 0.6018(4) 0.9111(3) 0.0172 Uani
C57 C 0.9626(7) 0.9452(5) 0.3410(4) 0.0238 Uani
H29 H 0.8737 0.9185 0.3082 0.0290 Uiso
H30 H 0.9872 0.6694 0.5067 0.0470 Uiso
C77 C 0.8785(7) 0.7677(4) 0.3948(4) 0.0239 Uani
C78 C 0.8754(8) 0.7246(5) 0.3244(4) 0.0349 Uani
H38 H 0.9461 0.7446 0.2978 0.0420 Uiso
C79 C 0.7722(8) 0.6535(5) 0.2922(4) 0.0317 Uani
H39 H 0.7741 0.6239 0.2450 0.0390 Uiso
C80 C 0.6646(7) 0.6256(4) 0.3304(4) 0.0257 Uani
C81 C 0.6599(8) 0.6691(5) 0.3986(4) 0.0291 Uani
H40 H 0.5860 0.6509 0.4238 0.0350 Uiso
C82 C 0.7661(7) 0.7403(5) 0.4296(4) 0.0258 Uani
H41 H 0.7620 0.7712 0.4759 0.0310 Uiso
C83 C 0.5469(8) 0.5479(5) 0.2987(4) 0.0274 Uani
O13 O 0.5490(5) 0.5177(3) 0.2304(3) 0.0321 Uani
H42 H 0.4689 0.4811 0.2064 0.0280 Uiso
O14 O 0.4615(7) 0.5208(4) 0.3336(4) 0.0570 Uani
loop_
_atom_site_aniso_label
_atom_site_aniso_U_11
_atom_site_aniso_U_22
_atom_site_aniso_U_33
_atom_site_aniso_U_23
_atom_site_aniso_U_13
_atom_site_aniso_U_12
C8 0.023 0.026 0.021 0.002 0.004 -0.001
C28 0.027 0.022 0.021 0.005 0.002 0.002
C29 0.036 0.042 0.025 0.002 0.009 -0.008
C30 0.038 0.036 0.022 -0.006 0.01 0.005
C31 0.026 0.019 0.028 0 0 -0.001
C32 0.027 0.025 0.031 0.001 0 0
C33 0.029 0.024 0.022 0.001 0.005 -0.006
C34 0.04 0.02 0.021 0.002 0.005 0.003
O3 0.026 0.032 0.031 -0.006 -0.002 -0.007
O4 0.068 0.052 0.051 -0.013 0.034 -0.034
O6 0.012 0.019 0.021 0.0067 0.0094 -0.002
Dy4 0.01023 0.01263 0.0132 0.00529 0.00399 -0.00194
Cu1 0.0317 0.0272 0.0256 0.0071 0.0064 -0.0005
C9 0.021 0.019 0.02 0.001 0.01 -0.001
C10 0.023 0.02 0.02 0.003 0.006 0.005
C11 0.023 0.023 0.021 0.005 0.002 -0.005
C12 0.049 0.025 0.033 0.01 -0.006 -0.016
C13 0.042 0.026 0.03 0.017 -0.008 -0.013
C14 0.029 0.019 0.02 0.012 -0.001 -0.003
C15 0.019 0.02 0.028 0.008 0.004 0.001
C16 0.025 0.015 0.019 0.012 0.011 0.005
C17 0.032 0.03 0.014 0.009 0.007 0.006
N2 0.018 0.019 0.02 0.001 0.006 0.002
N3 0.02 0.016 0.013 0.003 0.004 -0.003
N4 0.025 0.016 0.013 0.005 0.006 -0.002
C35 0.023 0.018 0.019 0.008 0.002 -0.003
C36 0.023 0.038 0.026 0.011 0.017 0.002
C37 0.015 0.024 0.03 0.017 0.011 0.008
C38 0.016 0.02 0.015 0.01 0.003 -0.003
C39 0.02 0.035 0.034 0.014 0.013 0.008
C40 0.028 0.026 0.043 0.02 0.013 0.008
C41 0.013 0.029 0.006 0.008 -0.002 -0.008
O5 0.018 0.022 0.021 0.011 0.0106 0.0022
Dy3 0.01023 0.01263 0.0132 0.00529 0.00399 -0.00194
O9 0.01 0.013 0.023 0.0034 0.0083 -0.0021
O10 0.015 0.019 0.018 0.0018 0.0042 -0.0044
C49 0.009 0.021 0.017 0.01 0.009 0.006
O24 0.019 0.019 0.019 -0.0002 0.0061 0.0011
C1 0.018 0.016 0.018 0.005 0.001 -0.004
C2 0.017 0.022 0.021 0.007 0.003 -0.006
C3 0.02 0.032 0.014 0.008 0.005 -0.004
C4 0.022 0.016 0.021 0.014 0.01 -0.001
C5 0.028 0.019 0.009 -0.004 0.005 0.005
C6 0.015 0.021 0.015 0.007 0.007 0.004
C7 0.025 0.017 0.019 0.005 0.004 0.004
C18 0.028 0.017 0.015 0 0.003 0
C19 0.022 0.022 0.01 0.005 0.002 0
C20 0.017 0.015 0.016 0.003 -0.001 0.004
N1 0.019 0.013 0.013 0.003 0.004 -0.002
C21 0.018 0.02 0.015 0.006 0.001 -0.004
C22 0.04 0.017 0.02 0.001 0.007 0.004
C23 0.035 0.018 0.015 0.005 0.005 -0.002
C24 0.011 0.016 0.018 0.009 0.001 0
C25 0.026 0.026 0.017 0.004 0.002 0.005
C26 0.025 0.018 0.015 0.004 0.007 0.002
C27 0.009 0.025 0.023 0.012 0.006 0.003
O1 0.024 0.019 0.015 0.0057 0.004 0.0044
O2 0.022 0.012 0.018 0.0065 -0.0041 -0.0036
C42 0.026 0.018 0.013 0.007 0.003 0.001
C43 0.03 0.039 0.057 -0.007 -0.014 0.008
C44 0.036 0.037 0.048 0.002 -0.006 0.015
C45 0.024 0.015 0.018 0.003 0.012 0
C46 0.014 0.034 0.045 -0.015 0.006 -0.001
C47 0.019 0.028 0.039 -0.016 0.003 0.003
C48 0.019 0.02 0.014 0.005 0.006 -0.005
O7 0.023 0.015 0.021 -0.0012 0.009 -0.0031
O18 0.012 0.019 0.021 0.0067 0.0094 -0.002
O21 0.023 0.015 0.021 -0.0012 0.009 -0.0031
O26 0.01 0.013 0.023 0.0034 0.0083 -0.0021
O28 0.015 0.019 0.018 0.0018 0.0042 -0.0044
C98 0.009 0.021 0.017 0.01 0.009 0.006
O23 0.019 0.019 0.019 -0.0002 0.0061 0.0011
C50 0.018 0.016 0.018 0.005 0.001 -0.004
C51 0.017 0.022 0.021 0.007 0.003 -0.006
C52 0.02 0.032 0.014 0.008 0.005 -0.004
C53 0.022 0.016 0.021 0.014 0.01 -0.001
C54 0.028 0.019 0.009 -0.004 0.005 0.005
C55 0.015 0.021 0.015 0.007 0.007 0.004
C56 0.025 0.017 0.019 0.005 0.004 0.004
C67 0.028 0.017 0.015 0 0.003 0
C68 0.022 0.022 0.01 0.005 0.002 0
C69 0.017 0.015 0.016 0.003 -0.001 0.004
N5 0.019 0.013 0.013 0.003 0.004 -0.002
C70 0.018 0.02 0.015 0.006 0.001 -0.004
C71 0.04 0.017 0.02 0.001 0.007 0.004
C72 0.035 0.018 0.015 0.005 0.005 -0.002
C73 0.011 0.016 0.018 0.009 0.001 0
C74 0.026 0.026 0.017 0.004 0.002 0.005
C75 0.025 0.018 0.015 0.004 0.007 0.002
C76 0.009 0.025 0.023 0.012 0.006 0.003
O11 0.024 0.019 0.015 0.0057 0.004 0.0044
O12 0.022 0.012 0.018 0.0065 -0.0041 -0.0036
C91 0.026 0.018 0.013 0.007 0.003 0.001
C92 0.03 0.039 0.057 -0.007 -0.014 0.008
C93 0.036 0.037 0.048 0.002 -0.006 0.015
C94 0.024 0.015 0.018 0.003 0.012 0
C95 0.014 0.034 0.045 -0.015 0.006 -0.001
C96 0.019 0.028 0.039 -0.016 0.003 0.003
C97 0.019 0.02 0.014 0.005 0.006 -0.005
O16 0.018 0.022 0.021 0.011 0.0106 0.0022
Cu2 0.0317 0.0272 0.0256 0.0071 0.0064 -0.0005
C58 0.021 0.019 0.02 0.001 0.01 -0.001
C59 0.023 0.02 0.02 0.003 0.006 0.005
C60 0.023 0.023 0.021 0.005 0.002 -0.005
C61 0.049 0.025 0.033 0.01 -0.006 -0.016
C62 0.042 0.026 0.03 0.017 -0.008 -0.013
C63 0.029 0.019 0.02 0.012 -0.001 -0.003
C64 0.019 0.02 0.028 0.008 0.004 0.001
C65 0.025 0.015 0.019 0.012 0.011 0.005
C66 0.032 0.03 0.014 0.009 0.007 0.006
N6 0.018 0.019 0.02 0.001 0.006 0.002
N7 0.02 0.016 0.013 0.003 0.004 -0.003
N8 0.025 0.016 0.013 0.005 0.006 -0.002
C84 0.023 0.018 0.019 0.008 0.002 -0.003
C85 0.023 0.038 0.026 0.011 0.017 0.002
C86 0.015 0.024 0.03 0.017 0.011 0.008
C87 0.016 0.02 0.015 0.01 0.003 -0.003
C88 0.02 0.035 0.034 0.014 0.013 0.008
C89 0.028 0.026 0.043 0.02 0.013 0.008
C90 0.013 0.029 0.006 0.008 -0.002 -0.008
C57 0.023 0.026 0.021 0.002 0.004 -0.001
C77 0.027 0.022 0.021 0.005 0.002 0.002
C78 0.036 0.042 0.025 0.002 0.009 -0.008
C79 0.038 0.036 0.022 -0.006 0.01 0.005
C80 0.026 0.019 0.028 0 0 -0.001
C81 0.027 0.025 0.031 0.001 0 0
C82 0.029 0.024 0.022 0.001 0.005 -0.006
C83 0.04 0.02 0.021 0.002 0.005 0.003
O13 0.026 0.032 0.031 -0.006 -0.002 -0.007
O14 0.068 0.052 0.051 -0.013 0.034 -0.034
loop_
_geom_bond_atom_site_label_1
_geom_bond_atom_site_label_2
_geom_bond_site_symmetry_1
_geom_bond_site_symmetry_2
H4 C8 1_555 1_555
C29 C28 1_555 1_555
H13 C29 1_555 1_555
C30 C29 1_555 1_555
H14 C30 1_555 1_555
C31 C30 1_555 1_555
C32 C31 1_555 1_555
H15 C32 1_555 1_555
C33 C28 1_555 1_555
H16 C33 1_555 1_555
C34 C31 1_555 1_555
O3 C34 1_555 1_555
H17 O3 1_555 1_555
O4 C34 1_555 1_555
Dy4 O6 1_555 1_555
C32 C33 1_555 1_555
C10 C9 1_555 1_555
C11 C10 1_555 1_555
C12 C11 1_555 1_555
C13 C12 1_555 1_555
H6 C13 1_555 1_555
C14 C13 1_555 1_555
C15 C14 1_555 1_555
C16 C15 1_555 1_555
C17 C16 1_555 1_555
H7 C17 1_555 1_555
N2 Cu1 1_555 1_555
N3 Cu1 1_555 1_555
N4 Cu1 1_555 1_555
C35 C15 1_555 1_555
C36 C35 1_555 1_555
H18 C36 1_555 1_555
C37 C36 1_555 1_555
H19 C37 1_555 1_555
C38 C37 1_555 1_555
C39 C38 1_555 1_555
H20 C39 1_555 1_555
C40 C35 1_555 1_555
H21 C40 1_555 1_555
C41 C38 1_555 1_555
O5 C41 1_555 1_555
C9 N2 1_555 1_555
C11 N3 1_555 1_555
C14 N3 1_555 1_555
C16 N4 1_555 1_555
C39 C40 1_555 1_555
O10 C49 1_555 1_555
C49 O9 1_555 1_555
Dy4 O10 1_555 1_555
Dy3 O1 1_555 1_555
C1 C2 1_555 1_555
C2 H1 1_555 1_555
C3 C2 1_555 1_555
H2 C3 1_555 1_555
C4 C3 1_555 1_555
C5 C4 1_555 1_555
C6 C5 1_555 1_555
C7 C6 1_555 1_555
H3 C7 1_555 1_555
H8 C18 1_555 1_555
C19 C18 1_555 1_555
C20 C1 1_555 1_555
N1 C1 1_555 1_555
C21 C5 1_555 1_555
C22 C21 1_555 1_555
H9 C22 1_555 1_555
C23 C22 1_555 1_555
H10 C23 1_555 1_555
C24 C23 1_555 1_555
C25 C24 1_555 1_555
H11 C25 1_555 1_555
C26 C21 1_555 1_555
H12 C26 1_555 1_555
C27 C24 1_555 1_555
O1 C27 1_555 1_555
O2 Dy3 1_555 1_555
C42 C20 1_555 1_555
C43 C42 1_555 1_555
H22 C43 1_555 1_555
C44 C43 1_555 1_555
H23 C44 1_555 1_555
C45 C44 1_555 1_555
C46 C45 1_555 1_555
H24 C46 1_555 1_555
C47 C42 1_555 1_555
H25 C47 1_555 1_555
C48 C45 1_555 1_555
O7 C48 1_555 1_555
Dy4 O7 1_555 1_555
O18 Dy3 1_555 1_555
O21 Dy3 1_555 1_555
O28 Dy3 1_555 1_555
C4 N1 1_555 1_555
C19 C20 1_555 1_555
C25 C26 1_555 1_555
C27 O2 1_555 1_555
C46 C47 1_555 1_555
O26 C98 1_555 1_555
O28 C98 1_555 1_555
Dy4 O11 1_555 1_555
C50 C51 1_555 1_555
C51 H26 1_555 1_555
C52 C51 1_555 1_555
H27 C52 1_555 1_555
C53 C52 1_555 1_555
C54 C53 1_555 1_555
C55 C54 1_555 1_555
C56 C55 1_555 1_555
H28 C56 1_555 1_555
H33 C67 1_555 1_555
C68 C67 1_555 1_555
C69 C50 1_555 1_555
N5 C50 1_555 1_555
C70 C54 1_555 1_555
C71 C70 1_555 1_555
H34 C71 1_555 1_555
C72 C71 1_555 1_555
H35 C72 1_555 1_555
C73 C72 1_555 1_555
C74 C73 1_555 1_555
H36 C74 1_555 1_555
C75 C70 1_555 1_555
H37 C75 1_555 1_555
C76 C73 1_555 1_555
O11 C76 1_555 1_555
O12 Dy4 1_555 1_555
C91 C69 1_555 1_555
C92 C91 1_555 1_555
H47 C92 1_555 1_555
C93 C92 1_555 1_555
H48 C93 1_555 1_555
C94 C93 1_555 1_555
C95 C94 1_555 1_555
H49 C95 1_555 1_555
C96 C91 1_555 1_555
H50 C96 1_555 1_555
C97 C94 1_555 1_555
O21 C97 1_555 1_555
C53 N5 1_555 1_555
C68 C69 1_555 1_555
C74 C75 1_555 1_555
C76 O12 1_555 1_555
C95 C96 1_555 1_555
C59 C58 1_555 1_555
C60 C59 1_555 1_555
C61 C60 1_555 1_555
C62 C61 1_555 1_555
H31 C62 1_555 1_555
C63 C62 1_555 1_555
C64 C63 1_555 1_555
C65 C64 1_555 1_555
C66 C65 1_555 1_555
H32 C66 1_555 1_555
N6 Cu2 1_555 1_555
N7 Cu2 1_555 1_555
N8 Cu2 1_555 1_555
C84 C64 1_555 1_555
C85 C84 1_555 1_555
H43 C85 1_555 1_555
C86 C85 1_555 1_555
H44 C86 1_555 1_555
C87 C86 1_555 1_555
C88 C87 1_555 1_555
H45 C88 1_555 1_555
C89 C84 1_555 1_555
H46 C89 1_555 1_555
C90 C87 1_555 1_555
C58 N6 1_555 1_555
C60 N7 1_555 1_555
C63 N7 1_555 1_555
C65 N8 1_555 1_555
C88 C89 1_555 1_555
C90 O16 1_555 1_555
H29 C57 1_555 1_555
C78 C77 1_555 1_555
H38 C78 1_555 1_555
C79 C78 1_555 1_555
H39 C79 1_555 1_555
C80 C79 1_555 1_555
C81 C80 1_555 1_555
H40 C81 1_555 1_555
C82 C77 1_555 1_555
H41 C82 1_555 1_555
C83 C80 1_555 1_555
O13 C83 1_555 1_555
H42 O13 1_555 1_555
O14 C83 1_555 1_555
C81 C82 1_555 1_555

#END
