
###############################################################################
#
# This file contains modified crystal structure data generated from the
# MOF subset of the Cambridge Structural Database (CSD) v543 
# hosted by the Cambridge Crystallographic Data Centre (CCDC).
#
# This work is licensed under the Creative Commons
# Attribution-NonCommercial-ShareAlike 4.0 International License.
# To view a copy of this license, visit
# http://creativecommons.org/licenses/by-nc-sa/4.0/
# or send a letter to
# Creative Commons, PO Box 1866, Mountain View, CA 94042, USA.
#
# CIF created using the CSD Python API on 29 September 2022
# The structure has been converted into the P1 space group
# The structure has a 3D framework
# The original CSD entry MIHMOI is in the monoclinic crystal system
# The framework has been calculated to contain at least 10.0% void space
# The void calculation uses a probe of radius 1.32A, grid spacing 0.4
# H atom positions have been added when not included in the experimental data
# Generated hydrogen atom positions removed from atoms on special positions
#
###############################################################################

data_MIHMOI
_chemical_formula_moiety         '(C276 H196 Bi16 O82)n'
_symmetry_cell_setting           triclinic
_symmetry_space_group_name_H-M   'P 1'
_symmetry_Int_Tables_number      1
_space_group_name_Hall           'P 1'
loop_
_symmetry_equiv_pos_site_id
_symmetry_equiv_pos_as_xyz
1 x,y,z
_cell_length_a                   33.0010(17)
_cell_length_b                   22.9092(15)
_cell_length_c                   10.4345(12)
_cell_angle_alpha                90
_cell_angle_beta                 99.529(10)
_cell_angle_gamma                90
_cell_volume                     7779.91
loop_
_atom_site_label
_atom_site_type_symbol
_atom_site_fract_x
_atom_site_fract_y
_atom_site_fract_z
_atom_site_U_iso_or_equiv
_atom_site_thermal_displace_type
C20 C 0.0329(7) 0.0279(6) 0.4607(15) 0.0633 Uiso
C21 C 0.0029(4) 0.0601(11) 0.5061(14) 0.0633 Uiso
C29 C 0.0684(16) 0.0581(14) 0.418(3) 0.0633 Uiso
C30 C 0.087(3) 0.034(3) 0.322(8) 0.0633 Uiso
C31 C 0.120(3) 0.062(3) 0.283(9) 0.0633 Uiso
C32 C 0.134(3) 0.114(2) 0.340(6) 0.0633 Uiso
C33 C 0.115(3) 0.138(3) 0.436(8) 0.0633 Uiso
C34 C 0.083(3) 0.110(3) 0.475(8) 0.0633 Uiso
C35 C 0.170(3) 0.144(3) 0.297(7) 0.0633 Uiso
O9 O 0.196(4) 0.116(3) 0.256(13) 0.0507 Uiso
O10 O 0.173(4) 0.197(4) 0.304(13) 0.0507 Uiso
H2 H 0.0686117 0.128674 0.552302 . .
H4 H 0.174438 0.209411 0.395823 . .
H5 H 0.12574 0.179424 0.480335 . .
H6 H 0.00517129 0.107497 0.510919 . .
H7 H 0.134914 0.0429532 0.207264 . .
H13 H 0.102413 0.00650618 0.403958 . .
Bi1 Bi 0.2463(4) 0.6631(4) 0.4413(14) 0.0190 Uiso
O1 O 0.23446 0.76599 0.40549 0.0633 Uiso
C1 C 0.000 0.4262(19) 0.25002(3) 0.0633 Uiso
C2 C 0.0338(6) 0.4564(16) 0.2231(11) 0.0633 Uiso
C3 C 0.0703(15) 0.424(2) 0.194(2) 0.0633 Uiso
C4 C 0.0655(15) 0.370(3) 0.136(8) 0.0633 Uiso
C5 C 0.0993(19) 0.340(3) 0.109(9) 0.0633 Uiso
C6 C 0.138(2) 0.364(3) 0.140(4) 0.0633 Uiso
C7 C 0.143(2) 0.418(3) 0.199(9) 0.0633 Uiso
C8 C 0.1091(19) 0.448(3) 0.226(8) 0.0633 Uiso
C9 C 0.175(3) 0.331(3) 0.111(6) 0.0633 Uiso
O2 O 0.208(3) 0.355(3) 0.125(13) 0.0507 Uiso
O3 O 0.171(3) 0.281(4) 0.074(13) 0.0507 Uiso
C10 C 0.0338(6) 0.5166(16) 0.2231(11) 0.0633 Uiso
C11 C 0.000 0.5467(19) 0.24998(3) 0.0633 Uiso
C12 C 0.0703(15) 0.549(2) 0.194(2) 0.0633 Uiso
C13 C 0.098(3) 0.522(2) 0.129(10) 0.0633 Uiso
C14 C 0.132(3) 0.552(2) 0.102(10) 0.0633 Uiso
C15 C 0.138(2) 0.609(3) 0.140(4) 0.0633 Uiso
C16 C 0.110(3) 0.637(3) 0.205(10) 0.0633 Uiso
C17 C 0.076(2) 0.607(3) 0.232(10) 0.0633 Uiso
C18 C 0.175(3) 0.642(3) 0.111(6) 0.0633 Uiso
O4 O 0.193(3) 0.675(5) 0.192(8) 0.0507 Uiso
O5 O 0.186(3) 0.635(4) 0.007(8) 0.0507 Uiso
Bi2 Bi 0.2257(3) 0.7723(4) 0.1839(14) 0.0190 Uiso
O6 O 0.19186 0.59085 0.44625 0.0633 Uiso
C19 C 0.0300(6) 0.9679(7) 0.4546(15) 0.0633 Uiso
C22 C 0.0624(14) 0.9331(16) 0.406(3) 0.0633 Uiso
C23 C 0.057(2) 0.874(2) 0.380(11) 0.0633 Uiso
C24 C 0.087(2) 0.842(3) 0.335(12) 0.0633 Uiso
C25 C 0.123(2) 0.869(3) 0.315(6) 0.0633 Uiso
C26 C 0.128(3) 0.928(2) 0.340(12) 0.0633 Uiso
C27 C 0.098(2) 0.960(2) 0.385(11) 0.0633 Uiso
C28 C 0.155(3) 0.834(3) 0.266(7) 0.0633 Uiso
O7 O 0.166(3) 0.848(4) 0.164(10) 0.0507 Uiso
O8 O 0.170(3) 0.792(4) 0.328(10) 0.0507 Uiso
O11 O 0.250 0.750 0.000 0.0633 Uiso
Bi8 Bi 0.2537(4) 0.8369(4) 0.5587(14) 0.0190 Uiso
O23 O 0.26554 0.73401 0.59451 0.0633 Uiso
O24 O 0.208(3) 0.645(3) 0.625(13) 0.0507 Uiso
H1 H 0.0287008 0.852686 0.395373 . .
H3 H 0.0757682 0.992961 0.276795 . .
H8 H 0.0538766 0.628656 0.282626 . .
H11 H 0.0824693 0.79558 0.315151 . .
H12 H 0.114806 0.682399 0.234578 . .
H14 H 0.156141 0.949522 0.323826 . .
H35 H 0.0954286 0.297229 0.0630621 . .
H36 H 0.17356 0.436903 0.224191 . .
H37 H -2.72522e-06 0.594235 0.249951 . .
H38 H 0.0931992 0.476716 0.0984981 . .
H39 H 2.71168e-06 0.378665 0.250049 . .
H40 H 0.153934 0.53033 0.0506514 . .
H41 H 0.0349793 0.350918 0.111376 . .
H42 H 0.112938 0.490636 0.272579 . .
O11_2 O 0.250 0.750 1.000 0.0633 Uiso
Bi5 Bi 0.2463(4) 0.3369(4) 0.9413(14) 0.0190 Uiso
Bi10 Bi 0.2743(3) 0.7277(4) 0.8161(14) 0.0190 Uiso
C52 C 0.9700(6) 0.0321(7) 0.5454(15) 0.0633 Uiso
C55 C 0.9376(14) 0.0669(16) 0.594(3) 0.0633 Uiso
C56 C 0.943(2) 0.126(2) 0.620(11) 0.0633 Uiso
C57 C 0.913(2) 0.158(3) 0.665(12) 0.0633 Uiso
C58 C 0.877(2) 0.131(3) 0.685(6) 0.0633 Uiso
C59 C 0.872(3) 0.072(2) 0.660(12) 0.0633 Uiso
C60 C 0.902(2) 0.040(2) 0.615(11) 0.0633 Uiso
C61 C 0.845(3) 0.166(3) 0.734(7) 0.0633 Uiso
O16 O 0.834(3) 0.152(4) 0.836(10) 0.0507 Uiso
O17 O 0.830(3) 0.208(4) 0.672(10) 0.0507 Uiso
Bi9 Bi 0.7743(3) 0.2277(4) 0.8161(14) 0.0190 Uiso
H15 H 0.971299 0.147314 0.604627 . .
H16 H 0.917531 0.20442 0.684849 . .
H21 H 0.924232 0.00703913 0.723205 . .
H25 H 0.843859 0.0504776 0.676174 . .
C1_2 C 1.000 0.4262(19) 0.25002(3) 0.0633 Uiso
C11_2 C 1.000 0.5467(19) 0.24998(3) 0.0633 Uiso
C36 C 0.9662(6) 0.4564(16) 0.2769(11) 0.0633 Uiso
C37 C 0.9297(15) 0.424(2) 0.306(2) 0.0633 Uiso
C38 C 0.9345(15) 0.370(3) 0.364(8) 0.0633 Uiso
C39 C 0.9007(19) 0.340(3) 0.391(9) 0.0633 Uiso
C40 C 0.862(2) 0.364(3) 0.360(4) 0.0633 Uiso
C41 C 0.857(2) 0.418(3) 0.301(9) 0.0633 Uiso
C42 C 0.8909(19) 0.448(3) 0.274(8) 0.0633 Uiso
C43 C 0.825(3) 0.331(3) 0.389(6) 0.0633 Uiso
O12 O 0.792(3) 0.355(3) 0.375(13) 0.0507 Uiso
O13 O 0.829(3) 0.281(4) 0.426(13) 0.0507 Uiso
C44 C 0.9662(6) 0.5166(16) 0.2769(11) 0.0633 Uiso
C45 C 0.9297(15) 0.549(2) 0.306(2) 0.0633 Uiso
C46 C 0.902(3) 0.522(2) 0.371(10) 0.0633 Uiso
C47 C 0.868(3) 0.552(2) 0.398(10) 0.0633 Uiso
C48 C 0.862(2) 0.609(3) 0.360(4) 0.0633 Uiso
C49 C 0.890(3) 0.637(3) 0.295(10) 0.0633 Uiso
C50 C 0.924(2) 0.607(3) 0.268(10) 0.0633 Uiso
C51 C 0.825(3) 0.642(3) 0.389(6) 0.0633 Uiso
O14 O 0.807(3) 0.675(5) 0.308(8) 0.0507 Uiso
O15 O 0.814(3) 0.635(4) 0.493(8) 0.0507 Uiso
C53 C 0.9671(7) 0.9721(6) 0.5393(15) 0.0633 Uiso
C54 C 0.9971(4) 0.9399(11) 0.4939(14) 0.0633 Uiso
C62 C 0.9316(16) 0.9419(14) 0.582(3) 0.0633 Uiso
C63 C 0.913(3) 0.966(3) 0.678(8) 0.0633 Uiso
C64 C 0.880(3) 0.938(3) 0.717(9) 0.0633 Uiso
C65 C 0.866(3) 0.886(2) 0.660(6) 0.0633 Uiso
C66 C 0.885(3) 0.862(3) 0.564(8) 0.0633 Uiso
C67 C 0.917(3) 0.890(3) 0.525(8) 0.0633 Uiso
C68 C 0.830(3) 0.856(3) 0.703(7) 0.0633 Uiso
O18 O 0.804(4) 0.884(3) 0.744(13) 0.0507 Uiso
O19 O 0.827(4) 0.803(4) 0.696(13) 0.0507 Uiso
Bi3 Bi 0.7537(4) 0.6631(4) 0.0587(14) 0.0190 Uiso
O20 O 0.76554 0.76599 0.09451 0.0633 Uiso
Bi4 Bi 0.7743(3) 0.7723(4) 0.3161(14) 0.0190 Uiso
O21 O 0.80814 0.59085 0.05375 0.0633 Uiso
Bi6 Bi 0.7537(4) 0.3369(4) 0.5587(14) 0.0190 Uiso
O26 O 0.834(3) 0.848(4) 0.336(10) 0.0507 Uiso
O27 O 0.830(3) 0.792(4) 0.172(10) 0.0507 Uiso
O28 O 0.750 0.750 0.500 0.0633 Uiso
H17 H 0.846066 0.53033 0.449349 . .
H18 H 0.904571 0.297229 0.436938 . .
H19 H 0.82644 0.436903 0.275809 . .
H20 H 0.906801 0.476716 0.401502 . .
H22 H 0.946123 0.628656 0.217374 . .
H23 H 0.994829 0.892503 0.489081 . .
H24 H 0.965021 0.350918 0.388624 . .
H26 H 0.897587 0.993494 0.596042 . .
H27 H 0.887062 0.490636 0.227421 . .
H28 H 0.885194 0.682399 0.265422 . .
H31 H 0.931388 0.871326 0.447698 . .
H32 H 0.865086 0.957047 0.792736 . .
H33 H 0.851324 0.784832 0.750082 . .
H34 H 0.87426 0.820576 0.519665 . .
H37_2 H 0.999997 0.594235 0.249951 . .
H39_2 H 1 0.378665 0.250049 . .
Bi7 Bi 0.7463(4) 0.8369(4) 0.9413(14) 0.0190 Uiso
O22 O 0.73446 0.73401 0.90549 0.0633 Uiso
O25 O 0.792(3) 0.645(3) 0.875(13) 0.0507 Uiso
H30 H 0.803207 0.56982 0.969388 . .
C52_2 C 0.0300(6) 0.0321(7) 0.9546(15) 0.0633 Uiso
C55_2 C 0.0624(14) 0.0669(16) 0.906(3) 0.0633 Uiso
C56_2 C 0.057(2) 0.126(2) 0.880(11) 0.0633 Uiso
C57_2 C 0.087(2) 0.158(3) 0.835(12) 0.0633 Uiso
C58_2 C 0.123(2) 0.131(3) 0.815(6) 0.0633 Uiso
C59_2 C 0.128(3) 0.072(2) 0.840(12) 0.0633 Uiso
C60_2 C 0.098(2) 0.040(2) 0.885(11) 0.0633 Uiso
C61_2 C 0.155(3) 0.166(3) 0.766(7) 0.0633 Uiso
O16_2 O 0.166(3) 0.152(4) 0.664(10) 0.0507 Uiso
O17_2 O 0.170(3) 0.208(4) 0.828(10) 0.0507 Uiso
Bi9_2 Bi 0.2257(3) 0.2277(4) 0.6839(14) 0.0190 Uiso
H15_2 H 0.0287008 0.147314 0.895373 . .
H16_2 H 0.0824693 0.20442 0.815151 . .
H21_2 H 0.0757682 0.00703913 0.776795 . .
H25_2 H 0.156141 0.0504776 0.823826 . .
C54_2 C 0.0029(4) 0.9399(11) 0.0061(14) 0.0633 Uiso
H23_2 H 0.00517129 0.892503 0.0109187 . .
H31_2 H 0.0686117 0.871326 0.0523024 . .
C53_2 C 0.0329(7) 0.9721(6) 0.9607(15) 0.0633 Uiso
C62_2 C 0.0684(16) 0.9419(14) 0.918(3) 0.0633 Uiso
C63_2 C 0.087(3) 0.966(3) 0.822(8) 0.0633 Uiso
C64_2 C 0.120(3) 0.938(3) 0.783(9) 0.0633 Uiso
C65_2 C 0.134(3) 0.886(2) 0.840(6) 0.0633 Uiso
C66_2 C 0.115(3) 0.862(3) 0.936(8) 0.0633 Uiso
C67_2 C 0.083(3) 0.890(3) 0.975(8) 0.0633 Uiso
C68_2 C 0.170(3) 0.856(3) 0.797(7) 0.0633 Uiso
O18_2 O 0.196(4) 0.884(3) 0.756(13) 0.0507 Uiso
O19_2 O 0.173(4) 0.803(4) 0.804(13) 0.0507 Uiso
H26_2 H 0.102413 0.993494 0.903958 . .
H32_2 H 0.134914 0.957047 0.707264 . .
H33_2 H 0.148676 0.784832 0.749918 . .
H34_2 H 0.12574 0.820576 0.980335 . .
C20_2 C 0.9671(7) 0.0279(6) 0.0393(15) 0.0633 Uiso
C29_2 C 0.9316(16) 0.0581(14) 0.082(3) 0.0633 Uiso
C30_2 C 0.913(3) 0.034(3) 0.178(8) 0.0633 Uiso
C31_2 C 0.880(3) 0.062(3) 0.217(9) 0.0633 Uiso
C32_2 C 0.866(3) 0.114(2) 0.160(6) 0.0633 Uiso
C33_2 C 0.885(3) 0.138(3) 0.064(8) 0.0633 Uiso
C34_2 C 0.917(3) 0.110(3) 0.025(8) 0.0633 Uiso
C35_2 C 0.830(3) 0.144(3) 0.203(7) 0.0633 Uiso
O9_2 O 0.804(4) 0.116(3) 0.244(13) 0.0507 Uiso
O10_2 O 0.827(4) 0.197(4) 0.196(13) 0.0507 Uiso
H4_2 H 0.825562 0.209411 0.104177 . .
H5_2 H 0.87426 0.179424 0.0196651 . .
H7_2 H 0.865086 0.0429532 0.292736 . .
H13_2 H 0.897587 0.00650618 0.0960416 . .
C21_2 C 0.9971(4) 0.0601(11) 0.9939(14) 0.0633 Uiso
H2_2 H 0.931388 0.128674 0.947698 . .
H6_2 H 0.994829 0.107497 0.989081 . .
C19_2 C 0.9700(6) 0.9679(7) 0.0454(15) 0.0633 Uiso
C22_2 C 0.9376(14) 0.9331(16) 0.094(3) 0.0633 Uiso
C23_2 C 0.943(2) 0.874(2) 0.120(11) 0.0633 Uiso
C24_2 C 0.913(2) 0.842(3) 0.165(12) 0.0633 Uiso
C25_2 C 0.877(2) 0.869(3) 0.185(6) 0.0633 Uiso
C26_2 C 0.872(3) 0.928(2) 0.160(12) 0.0633 Uiso
C27_2 C 0.902(2) 0.960(2) 0.115(11) 0.0633 Uiso
C28_2 C 0.845(3) 0.834(3) 0.234(7) 0.0633 Uiso
Bi10_2 Bi 0.7257(3) 0.7277(4) 0.6839(14) 0.0190 Uiso
H1_2 H 0.971299 0.852686 0.104627 . .
H3_2 H 0.924232 0.992961 0.223205 . .
H11_2 H 0.917531 0.79558 0.184849 . .
H14_2 H 0.843859 0.949522 0.176174 . .
Bi1_2 Bi 0.7463(4) 0.1631(4) 0.4413(14) 0.0190 Uiso
O1_2 O 0.73446 0.26599 0.40549 0.0633 Uiso
C10_2 C 0.5338(6) 0.0166(16) 0.2231(11) 0.0633 Uiso
C11_3 C 0.500 0.0467(19) 0.24998(3) 0.0633 Uiso
C12_2 C 0.5703(15) 0.049(2) 0.194(2) 0.0633 Uiso
C13_2 C 0.598(3) 0.022(2) 0.129(10) 0.0633 Uiso
C14_2 C 0.632(3) 0.052(2) 0.102(10) 0.0633 Uiso
C15_2 C 0.638(2) 0.109(3) 0.140(4) 0.0633 Uiso
C16_2 C 0.610(3) 0.137(3) 0.205(10) 0.0633 Uiso
C17_2 C 0.576(2) 0.107(3) 0.232(10) 0.0633 Uiso
C18_2 C 0.675(3) 0.142(3) 0.111(6) 0.0633 Uiso
O4_2 O 0.693(3) 0.175(5) 0.192(8) 0.0507 Uiso
O5_2 O 0.686(3) 0.135(4) 0.007(8) 0.0507 Uiso
Bi2_2 Bi 0.7257(3) 0.2723(4) 0.1839(14) 0.0190 Uiso
O6_2 O 0.69186 0.09085 0.44625 0.0633 Uiso
C19_3 C 0.5300(6) 0.4679(7) 0.4546(15) 0.0633 Uiso
C20_3 C 0.5329(7) 0.5279(6) 0.4607(15) 0.0633 Uiso
C21_3 C 0.5029(4) 0.5601(11) 0.5061(14) 0.0633 Uiso
C22_3 C 0.5624(14) 0.4331(16) 0.406(3) 0.0633 Uiso
C23_3 C 0.557(2) 0.374(2) 0.380(11) 0.0633 Uiso
C24_3 C 0.587(2) 0.342(3) 0.335(12) 0.0633 Uiso
C25_3 C 0.623(2) 0.369(3) 0.315(6) 0.0633 Uiso
C26_3 C 0.628(3) 0.428(2) 0.340(12) 0.0633 Uiso
C27_3 C 0.598(2) 0.460(2) 0.385(11) 0.0633 Uiso
C28_3 C 0.655(3) 0.334(3) 0.266(7) 0.0633 Uiso
O7_2 O 0.666(3) 0.348(4) 0.164(10) 0.0507 Uiso
O8_2 O 0.670(3) 0.292(4) 0.328(10) 0.0507 Uiso
C29_3 C 0.5684(16) 0.5581(14) 0.418(3) 0.0633 Uiso
C30_3 C 0.587(3) 0.534(3) 0.322(8) 0.0633 Uiso
C31_3 C 0.620(3) 0.562(3) 0.283(9) 0.0633 Uiso
C32_3 C 0.634(3) 0.614(2) 0.340(6) 0.0633 Uiso
C33_3 C 0.615(3) 0.638(3) 0.436(8) 0.0633 Uiso
C34_3 C 0.583(3) 0.610(3) 0.475(8) 0.0633 Uiso
C35_3 C 0.670(3) 0.644(3) 0.297(7) 0.0633 Uiso
O9_3 O 0.696(4) 0.616(3) 0.256(13) 0.0507 Uiso
O10_3 O 0.673(4) 0.697(4) 0.304(13) 0.0507 Uiso
O11_3 O 0.750 0.250 0.000 0.0633 Uiso
C44_2 C 0.4662(6) 0.0166(16) 0.2769(11) 0.0633 Uiso
C45_2 C 0.4297(15) 0.049(2) 0.306(2) 0.0633 Uiso
C46_2 C 0.402(3) 0.022(2) 0.371(10) 0.0633 Uiso
C47_2 C 0.368(3) 0.052(2) 0.398(10) 0.0633 Uiso
C48_2 C 0.362(2) 0.109(3) 0.360(4) 0.0633 Uiso
C49_2 C 0.390(3) 0.137(3) 0.295(10) 0.0633 Uiso
C50_2 C 0.424(2) 0.107(3) 0.268(10) 0.0633 Uiso
C51_2 C 0.325(3) 0.142(3) 0.389(6) 0.0633 Uiso
O14_2 O 0.307(3) 0.175(5) 0.308(8) 0.0507 Uiso
O15_2 O 0.314(3) 0.135(4) 0.493(8) 0.0507 Uiso
C52_3 C 0.4700(6) 0.5321(7) 0.5454(15) 0.0633 Uiso
C53_3 C 0.4671(7) 0.4721(6) 0.5393(15) 0.0633 Uiso
C54_3 C 0.4971(4) 0.4399(11) 0.4939(14) 0.0633 Uiso
C55_3 C 0.4376(14) 0.5669(16) 0.594(3) 0.0633 Uiso
C56_3 C 0.443(2) 0.626(2) 0.620(11) 0.0633 Uiso
C57_3 C 0.413(2) 0.658(3) 0.665(12) 0.0633 Uiso
C58_3 C 0.377(2) 0.631(3) 0.685(6) 0.0633 Uiso
C59_3 C 0.372(3) 0.572(2) 0.660(12) 0.0633 Uiso
C60_3 C 0.402(2) 0.540(2) 0.615(11) 0.0633 Uiso
C61_3 C 0.345(3) 0.666(3) 0.734(7) 0.0633 Uiso
O16_3 O 0.334(3) 0.652(4) 0.836(10) 0.0507 Uiso
O17_3 O 0.330(3) 0.708(4) 0.672(10) 0.0507 Uiso
C62_3 C 0.4316(16) 0.4419(14) 0.582(3) 0.0633 Uiso
C63_3 C 0.413(3) 0.466(3) 0.678(8) 0.0633 Uiso
C64_3 C 0.380(3) 0.438(3) 0.717(9) 0.0633 Uiso
C65_3 C 0.366(3) 0.386(2) 0.660(6) 0.0633 Uiso
C66_3 C 0.385(3) 0.362(3) 0.564(8) 0.0633 Uiso
C67_3 C 0.417(3) 0.390(3) 0.525(8) 0.0633 Uiso
C68_3 C 0.330(3) 0.356(3) 0.703(7) 0.0633 Uiso
O18_3 O 0.304(4) 0.384(3) 0.744(13) 0.0507 Uiso
O19_3 O 0.327(4) 0.303(4) 0.696(13) 0.0507 Uiso
Bi3_2 Bi 0.2537(4) 0.1631(4) 0.0587(14) 0.0190 Uiso
O20_2 O 0.26554 0.26599 0.09451 0.0633 Uiso
Bi4_2 Bi 0.2743(3) 0.2723(4) 0.3161(14) 0.0190 Uiso
O21_2 O 0.30814 0.09085 0.05375 0.0633 Uiso
O23_2 O 0.76554 0.23401 0.59451 0.0633 Uiso
O24_2 O 0.708(3) 0.145(3) 0.625(13) 0.0507 Uiso
O26_2 O 0.334(3) 0.348(4) 0.336(10) 0.0507 Uiso
O27_2 O 0.330(3) 0.292(4) 0.172(10) 0.0507 Uiso
O28_2 O 0.250 0.250 0.500 0.0633 Uiso
H1_3 H 0.528701 0.352686 0.395373 . .
H2_3 H 0.568612 0.628674 0.552302 . .
H3_3 H 0.575768 0.492961 0.276795 . .
H4_3 H 0.674438 0.709411 0.395823 . .
H5_3 H 0.62574 0.679424 0.480335 . .
H6_3 H 0.505171 0.607497 0.510919 . .
H7_3 H 0.634914 0.542953 0.207264 . .
H8_2 H 0.553877 0.128656 0.282626 . .
H11_3 H 0.582469 0.29558 0.315151 . .
H12_2 H 0.614806 0.182399 0.234578 . .
H13_3 H 0.602413 0.506506 0.403958 . .
H14_3 H 0.656141 0.449522 0.323826 . .
H15_3 H 0.471299 0.647314 0.604627 . .
H16_3 H 0.417531 0.70442 0.684849 . .
H17_2 H 0.346066 0.0303296 0.449349 . .
H21_3 H 0.424232 0.507039 0.723205 . .
H22_2 H 0.446123 0.128656 0.217374 . .
H23_3 H 0.494829 0.392503 0.489081 . .
H25_3 H 0.343859 0.550478 0.676174 . .
H26_3 H 0.397587 0.493494 0.596042 . .
H28_2 H 0.385194 0.182399 0.265422 . .
H31_3 H 0.431388 0.371326 0.447698 . .
H32_3 H 0.365086 0.457047 0.792736 . .
H33_3 H 0.351324 0.284832 0.750082 . .
H34_3 H 0.37426 0.320576 0.519665 . .
H37_3 H 0.499997 0.0942355 0.249951 . .
H40_2 H 0.653934 0.0303296 0.0506514 . .
O11_4 O 0.750 0.250 1.000 0.0633 Uiso
O22_2 O 0.23446 0.23401 0.90549 0.0633 Uiso
O25_2 O 0.292(3) 0.145(3) 0.875(13) 0.0507 Uiso
H30_2 H 0.303207 0.0698203 0.969388 . .
C1_3 C 0.500 0.9262(19) 0.25002(3) 0.0633 Uiso
C2_2 C 0.5338(6) 0.9564(16) 0.2231(11) 0.0633 Uiso
C3_2 C 0.5703(15) 0.924(2) 0.194(2) 0.0633 Uiso
C4_2 C 0.5655(15) 0.870(3) 0.136(8) 0.0633 Uiso
C5_2 C 0.5993(19) 0.840(3) 0.109(9) 0.0633 Uiso
C6_2 C 0.638(2) 0.864(3) 0.140(4) 0.0633 Uiso
C7_2 C 0.643(2) 0.918(3) 0.199(9) 0.0633 Uiso
C8_2 C 0.6091(19) 0.948(3) 0.226(8) 0.0633 Uiso
C9_2 C 0.675(3) 0.831(3) 0.111(6) 0.0633 Uiso
O2_2 O 0.708(3) 0.855(3) 0.125(13) 0.0507 Uiso
O3_2 O 0.671(3) 0.781(4) 0.074(13) 0.0507 Uiso
C36_2 C 0.4662(6) 0.9564(16) 0.2769(11) 0.0633 Uiso
C37_2 C 0.4297(15) 0.924(2) 0.306(2) 0.0633 Uiso
C38_2 C 0.4345(15) 0.870(3) 0.364(8) 0.0633 Uiso
C39_2 C 0.4007(19) 0.840(3) 0.391(9) 0.0633 Uiso
C40_2 C 0.362(2) 0.864(3) 0.360(4) 0.0633 Uiso
C41_2 C 0.357(2) 0.918(3) 0.301(9) 0.0633 Uiso
C42_2 C 0.3909(19) 0.948(3) 0.274(8) 0.0633 Uiso
C43_2 C 0.325(3) 0.831(3) 0.389(6) 0.0633 Uiso
O12_2 O 0.292(3) 0.855(3) 0.375(13) 0.0507 Uiso
O13_2 O 0.329(3) 0.781(4) 0.426(13) 0.0507 Uiso
H18_2 H 0.404571 0.797229 0.436938 . .
H19_2 H 0.32644 0.936903 0.275809 . .
H20_2 H 0.406801 0.976716 0.401502 . .
H24_2 H 0.465021 0.850918 0.388624 . .
H27_2 H 0.387062 0.990636 0.227421 . .
H35_2 H 0.595429 0.797229 0.0630621 . .
H36_2 H 0.67356 0.936903 0.224191 . .
H38_2 H 0.593199 0.976716 0.0984981 . .
H39_3 H 0.500003 0.878665 0.250049 . .
H41_2 H 0.534979 0.850918 0.111376 . .
H42_2 H 0.612938 0.990636 0.272579 . .
C19_4 C 0.4700(6) 0.4679(7) 0.0454(15) 0.0633 Uiso
C20_4 C 0.4671(7) 0.5279(6) 0.0393(15) 0.0633 Uiso
C22_4 C 0.4376(14) 0.4331(16) 0.094(3) 0.0633 Uiso
C23_4 C 0.443(2) 0.374(2) 0.120(11) 0.0633 Uiso
C24_4 C 0.413(2) 0.342(3) 0.165(12) 0.0633 Uiso
C25_4 C 0.377(2) 0.369(3) 0.185(6) 0.0633 Uiso
C26_4 C 0.372(3) 0.428(2) 0.160(12) 0.0633 Uiso
C27_4 C 0.402(2) 0.460(2) 0.115(11) 0.0633 Uiso
C28_4 C 0.345(3) 0.334(3) 0.234(7) 0.0633 Uiso
C29_4 C 0.4316(16) 0.5581(14) 0.082(3) 0.0633 Uiso
C30_4 C 0.413(3) 0.534(3) 0.178(8) 0.0633 Uiso
C31_4 C 0.380(3) 0.562(3) 0.217(9) 0.0633 Uiso
C32_4 C 0.366(3) 0.614(2) 0.160(6) 0.0633 Uiso
C33_4 C 0.385(3) 0.638(3) 0.064(8) 0.0633 Uiso
C34_4 C 0.417(3) 0.610(3) 0.025(8) 0.0633 Uiso
C35_4 C 0.330(3) 0.644(3) 0.203(7) 0.0633 Uiso
O9_4 O 0.304(4) 0.616(3) 0.244(13) 0.0507 Uiso
O10_4 O 0.327(4) 0.697(4) 0.196(13) 0.0507 Uiso
C54_4 C 0.5029(4) 0.4399(11) 0.0061(14) 0.0633 Uiso
H1_4 H 0.471299 0.352686 0.104627 . .
H3_4 H 0.424232 0.492961 0.223205 . .
H4_4 H 0.325562 0.709411 0.104177 . .
H5_4 H 0.37426 0.679424 0.0196651 . .
H7_4 H 0.365086 0.542953 0.292736 . .
H11_4 H 0.417531 0.29558 0.184849 . .
H13_4 H 0.397587 0.506506 0.0960416 . .
H14_4 H 0.343859 0.449522 0.176174 . .
H23_4 H 0.505171 0.392503 0.0109187 . .
H31_4 H 0.568612 0.371326 0.0523024 . .
C21_4 C 0.4971(4) 0.5601(11) 0.9939(14) 0.0633 Uiso
C52_4 C 0.5300(6) 0.5321(7) 0.9546(15) 0.0633 Uiso
C53_4 C 0.5329(7) 0.4721(6) 0.9607(15) 0.0633 Uiso
C55_4 C 0.5624(14) 0.5669(16) 0.906(3) 0.0633 Uiso
C56_4 C 0.557(2) 0.626(2) 0.880(11) 0.0633 Uiso
C57_4 C 0.587(2) 0.658(3) 0.835(12) 0.0633 Uiso
C58_4 C 0.623(2) 0.631(3) 0.815(6) 0.0633 Uiso
C59_4 C 0.628(3) 0.572(2) 0.840(12) 0.0633 Uiso
C60_4 C 0.598(2) 0.540(2) 0.885(11) 0.0633 Uiso
C61_4 C 0.655(3) 0.666(3) 0.766(7) 0.0633 Uiso
O16_4 O 0.666(3) 0.652(4) 0.664(10) 0.0507 Uiso
O17_4 O 0.670(3) 0.708(4) 0.828(10) 0.0507 Uiso
C62_4 C 0.5684(16) 0.4419(14) 0.918(3) 0.0633 Uiso
C63_4 C 0.587(3) 0.466(3) 0.822(8) 0.0633 Uiso
C64_4 C 0.620(3) 0.438(3) 0.783(9) 0.0633 Uiso
C65_4 C 0.634(3) 0.386(2) 0.840(6) 0.0633 Uiso
C66_4 C 0.615(3) 0.362(3) 0.936(8) 0.0633 Uiso
C67_4 C 0.583(3) 0.390(3) 0.975(8) 0.0633 Uiso
C68_4 C 0.670(3) 0.356(3) 0.797(7) 0.0633 Uiso
O18_4 O 0.696(4) 0.384(3) 0.756(13) 0.0507 Uiso
O19_4 O 0.673(4) 0.303(4) 0.804(13) 0.0507 Uiso
H2_4 H 0.431388 0.628674 0.947698 . .
H6_4 H 0.494829 0.607497 0.989081 . .
H15_4 H 0.528701 0.647314 0.895373 . .
H16_4 H 0.582469 0.70442 0.815151 . .
H21_4 H 0.575768 0.507039 0.776795 . .
H25_4 H 0.656141 0.550478 0.823826 . .
H26_4 H 0.602413 0.493494 0.903958 . .
H32_4 H 0.634914 0.457047 0.707264 . .
H33_4 H 0.648676 0.284832 0.749918 . .
H34_4 H 0.62574 0.320576 0.980335 . .
H30_3 H 0.196793 0.43018 0.0306122 . .
C1_4 C -0.000 0.5738(19) 0.74998(3) 0.0633 Uiso
C11_4 C 0.000 0.4533(19) 0.75002(3) 0.0633 Uiso
C36_3 C 0.0338(6) 0.5436(16) 0.7231(11) 0.0633 Uiso
C37_3 C 0.0703(15) 0.576(2) 0.694(2) 0.0633 Uiso
C38_3 C 0.0655(15) 0.630(3) 0.636(8) 0.0633 Uiso
C39_3 C 0.0993(19) 0.660(3) 0.609(9) 0.0633 Uiso
C40_3 C 0.138(2) 0.636(3) 0.640(4) 0.0633 Uiso
C41_3 C 0.143(2) 0.582(3) 0.699(9) 0.0633 Uiso
C42_3 C 0.1091(19) 0.552(3) 0.726(8) 0.0633 Uiso
C43_3 C 0.175(3) 0.669(3) 0.611(6) 0.0633 Uiso
O13_3 O 0.171(3) 0.719(4) 0.574(13) 0.0507 Uiso
C44_3 C 0.0338(6) 0.4834(16) 0.7231(11) 0.0633 Uiso
C45_3 C 0.0703(15) 0.451(2) 0.694(2) 0.0633 Uiso
C46_3 C 0.098(3) 0.478(2) 0.629(10) 0.0633 Uiso
C47_3 C 0.132(3) 0.448(2) 0.602(10) 0.0633 Uiso
C48_3 C 0.138(2) 0.391(3) 0.640(4) 0.0633 Uiso
C49_3 C 0.110(3) 0.363(3) 0.705(10) 0.0633 Uiso
C50_3 C 0.076(2) 0.393(3) 0.732(10) 0.0633 Uiso
C51_3 C 0.175(3) 0.358(3) 0.611(6) 0.0633 Uiso
O14_3 O 0.193(3) 0.325(5) 0.692(8) 0.0507 Uiso
O15_3 O 0.186(3) 0.365(4) 0.507(8) 0.0507 Uiso
O21_3 O 0.19186 0.40915 0.94625 0.0633 Uiso
H17_3 H 0.153934 0.46967 0.550651 . .
H18_3 H 0.0954286 0.702771 0.563062 . .
H19_3 H 0.17356 0.563097 0.724191 . .
H20_3 H 0.0931992 0.523284 0.598498 . .
H22_3 H 0.0538766 0.371344 0.782626 . .
H24_3 H 0.0349793 0.649082 0.611376 . .
H27_3 H 0.112938 0.509364 0.772579 . .
H28_3 H 0.114806 0.317601 0.734578 . .
H33_5 H 0.148676 0.215168 0.249918 . .
H37_4 H 2.72522e-06 0.405765 0.750049 . .
H39_4 H -2.71168e-06 0.621335 0.749951 . .
C1_5 C 1.000 0.5738(19) 0.74998(3) 0.0633 Uiso
C2_3 C 0.9662(6) 0.5436(16) 0.7769(11) 0.0633 Uiso
C3_3 C 0.9297(15) 0.576(2) 0.806(2) 0.0633 Uiso
C4_3 C 0.9345(15) 0.630(3) 0.864(8) 0.0633 Uiso
C5_3 C 0.9007(19) 0.660(3) 0.891(9) 0.0633 Uiso
C6_3 C 0.862(2) 0.636(3) 0.860(4) 0.0633 Uiso
C7_3 C 0.857(2) 0.582(3) 0.801(9) 0.0633 Uiso
C8_3 C 0.8909(19) 0.552(3) 0.774(8) 0.0633 Uiso
C9_3 C 0.825(3) 0.669(3) 0.889(6) 0.0633 Uiso
O3_3 O 0.829(3) 0.719(4) 0.926(13) 0.0507 Uiso
C10_3 C 0.9662(6) 0.4834(16) 0.7769(11) 0.0633 Uiso
C11_5 C 1.000 0.4533(19) 0.75002(3) 0.0633 Uiso
C12_3 C 0.9297(15) 0.451(2) 0.806(2) 0.0633 Uiso
C13_3 C 0.902(3) 0.478(2) 0.871(10) 0.0633 Uiso
C14_3 C 0.868(3) 0.448(2) 0.898(10) 0.0633 Uiso
C15_3 C 0.862(2) 0.391(3) 0.860(4) 0.0633 Uiso
C16_3 C 0.890(3) 0.363(3) 0.795(10) 0.0633 Uiso
C17_3 C 0.924(2) 0.393(3) 0.768(10) 0.0633 Uiso
C18_3 C 0.825(3) 0.358(3) 0.889(6) 0.0633 Uiso
O4_3 O 0.807(3) 0.325(5) 0.808(8) 0.0507 Uiso
O5_3 O 0.814(3) 0.365(4) 0.993(8) 0.0507 Uiso
O6_3 O 0.80814 0.40915 0.55375 0.0633 Uiso
H8_3 H 0.946123 0.371344 0.717374 . .
H12_3 H 0.885194 0.317601 0.765422 . .
H35_3 H 0.904571 0.702771 0.936938 . .
H36_3 H 0.82644 0.563097 0.775809 . .
H37_5 H 1 0.405765 0.750049 . .
H38_3 H 0.906801 0.523284 0.901502 . .
H39_5 H 0.999997 0.621335 0.749951 . .
H40_3 H 0.846066 0.46967 0.949349 . .
H41_3 H 0.965021 0.649082 0.888624 . .
H42_3 H 0.887062 0.509364 0.727421 . .
H4_5 H 0.825562 0.790589 0.604177 . .
H4_6 H 0.174438 0.790589 0.895823 . .
H33_6 H 0.851324 0.215168 0.250082 . .
C1_6 C 0.500 0.0738(19) 0.74998(3) 0.0633 Uiso
C2_4 C 0.4662(6) 0.0436(16) 0.7769(11) 0.0633 Uiso
C3_4 C 0.4297(15) 0.076(2) 0.806(2) 0.0633 Uiso
C4_4 C 0.4345(15) 0.130(3) 0.864(8) 0.0633 Uiso
C5_4 C 0.4007(19) 0.160(3) 0.891(9) 0.0633 Uiso
C6_4 C 0.362(2) 0.136(3) 0.860(4) 0.0633 Uiso
C7_4 C 0.357(2) 0.082(3) 0.801(9) 0.0633 Uiso
C8_4 C 0.3909(19) 0.052(3) 0.774(8) 0.0633 Uiso
C9_4 C 0.325(3) 0.169(3) 0.889(6) 0.0633 Uiso
O3_4 O 0.329(3) 0.219(4) 0.926(13) 0.0507 Uiso
C36_4 C 0.5338(6) 0.0436(16) 0.7231(11) 0.0633 Uiso
C37_4 C 0.5703(15) 0.076(2) 0.694(2) 0.0633 Uiso
C38_4 C 0.5655(15) 0.130(3) 0.636(8) 0.0633 Uiso
C39_4 C 0.5993(19) 0.160(3) 0.609(9) 0.0633 Uiso
C40_4 C 0.638(2) 0.136(3) 0.640(4) 0.0633 Uiso
C41_4 C 0.643(2) 0.082(3) 0.699(9) 0.0633 Uiso
C42_4 C 0.6091(19) 0.052(3) 0.726(8) 0.0633 Uiso
C43_4 C 0.675(3) 0.169(3) 0.611(6) 0.0633 Uiso
O13_4 O 0.671(3) 0.219(4) 0.574(13) 0.0507 Uiso
H18_4 H 0.595429 0.202771 0.563062 . .
H19_4 H 0.67356 0.0630971 0.724191 . .
H20_4 H 0.593199 0.0232835 0.598498 . .
H24_4 H 0.534979 0.149082 0.611376 . .
H27_4 H 0.612938 0.00936425 0.772579 . .
H35_4 H 0.404571 0.202771 0.936938 . .
H36_4 H 0.32644 0.0630971 0.775809 . .
H38_4 H 0.406801 0.0232835 0.901502 . .
H39_6 H 0.499997 0.121335 0.749951 . .
H41_4 H 0.465021 0.149082 0.888624 . .
H42_4 H 0.387062 0.00936425 0.727421 . .
H30_4 H 0.696793 0.93018 0.0306122 . .
C10_4 C 0.4662(6) 0.9834(16) 0.7769(11) 0.0633 Uiso
C11_6 C 0.500 0.9533(19) 0.75002(3) 0.0633 Uiso
C12_4 C 0.4297(15) 0.951(2) 0.806(2) 0.0633 Uiso
C13_4 C 0.402(3) 0.978(2) 0.871(10) 0.0633 Uiso
C14_4 C 0.368(3) 0.948(2) 0.898(10) 0.0633 Uiso
C15_4 C 0.362(2) 0.891(3) 0.860(4) 0.0633 Uiso
C16_4 C 0.390(3) 0.863(3) 0.795(10) 0.0633 Uiso
C17_4 C 0.424(2) 0.893(3) 0.768(10) 0.0633 Uiso
C18_4 C 0.325(3) 0.858(3) 0.889(6) 0.0633 Uiso
O4_4 O 0.307(3) 0.825(5) 0.808(8) 0.0507 Uiso
O5_4 O 0.314(3) 0.865(4) 0.993(8) 0.0507 Uiso
O6_4 O 0.30814 0.90915 0.55375 0.0633 Uiso
C44_4 C 0.5338(6) 0.9834(16) 0.7231(11) 0.0633 Uiso
C45_4 C 0.5703(15) 0.951(2) 0.694(2) 0.0633 Uiso
C46_4 C 0.598(3) 0.978(2) 0.629(10) 0.0633 Uiso
C47_4 C 0.632(3) 0.948(2) 0.602(10) 0.0633 Uiso
C48_4 C 0.638(2) 0.891(3) 0.640(4) 0.0633 Uiso
C49_4 C 0.610(3) 0.863(3) 0.705(10) 0.0633 Uiso
C50_4 C 0.576(2) 0.893(3) 0.732(10) 0.0633 Uiso
C51_4 C 0.675(3) 0.858(3) 0.611(6) 0.0633 Uiso
O14_4 O 0.693(3) 0.825(5) 0.692(8) 0.0507 Uiso
O15_4 O 0.686(3) 0.865(4) 0.507(8) 0.0507 Uiso
O21_4 O 0.69186 0.90915 0.94625 0.0633 Uiso
H4_7 H 0.325562 0.290589 0.604177 . .
H8_4 H 0.446123 0.871344 0.717374 . .
H12_4 H 0.385194 0.817601 0.765422 . .
H17_4 H 0.653934 0.96967 0.550651 . .
H22_4 H 0.553877 0.871344 0.782626 . .
H28_4 H 0.614806 0.817601 0.734578 . .
H33_7 H 0.648676 0.715168 0.249918 . .
H37_6 H 0.500003 0.905765 0.750049 . .
H40_4 H 0.346066 0.96967 0.949349 . .
H33_8 H 0.351324 0.715168 0.250082 . .
H4_8 H 0.674438 0.290589 0.895823 . .
loop_
_geom_bond_atom_site_label_1
_geom_bond_atom_site_label_2
_geom_bond_site_symmetry_1
_geom_bond_site_symmetry_2
C20 C21 1_555 1_555
C29 C20 1_555 1_555
C30 C29 1_555 1_555
C31 C30 1_555 1_555
C32 C31 1_555 1_555
C33 C32 1_555 1_555
C34 C29 1_555 1_555
C35 C32 1_555 1_555
O9 C35 1_555 1_555
O10 C35 1_555 1_555
C33 C34 1_555 1_555
C34 H2 1_555 1_555
O10 H4 1_555 1_555
C33 H5 1_555 1_555
C21 H6 1_555 1_555
C31 H7 1_555 1_555
Bi1 O1 1_555 1_555
O1 Bi2 1_555 1_555
C1 C2 1_555 1_555
C2 C3 1_555 1_555
C3 C4 1_555 1_555
C4 C5 1_555 1_555
C5 C6 1_555 1_555
C6 C7 1_555 1_555
C7 C8 1_555 1_555
C8 C3 1_555 1_555
C9 C6 1_555 1_555
O2 C9 1_555 1_555
O3 C9 1_555 1_555
C10 C2 1_555 1_555
C11 C10 1_555 1_555
C12 C10 1_555 1_555
C13 C12 1_555 1_555
C14 C13 1_555 1_555
C15 C14 1_555 1_555
C16 C15 1_555 1_555
C17 C12 1_555 1_555
C18 C15 1_555 1_555
O4 Bi1 1_555 1_555
O5 C18 1_555 1_555
Bi2 O4 1_555 1_555
O6 Bi1 1_555 1_555
C22 C19 1_555 1_555
C23 C22 1_555 1_555
C24 C23 1_555 1_555
C25 C24 1_555 1_555
C26 C25 1_555 1_555
C27 C22 1_555 1_555
C28 C25 1_555 1_555
O7 Bi2 1_555 1_555
O8 Bi2 1_555 1_555
O11 Bi2 1_555 1_555
Bi8 O1 1_555 1_555
O23 Bi1 1_555 1_555
O24 Bi1 1_555 1_555
C16 C17 1_555 1_555
C18 O4 1_555 1_555
C26 C27 1_555 1_555
C28 O7 1_555 1_555
C28 O8 1_555 1_555
Bi8 O23 1_555 1_555
C23 H1 1_555 1_555
C17 H8 1_555 1_555
C24 H11 1_555 1_555
C16 H12 1_555 1_555
C26 H14 1_555 1_555
C5 H35 1_555 1_555
C7 H36 1_555 1_555
C11 H37 1_555 1_555
C13 H38 1_555 1_555
C1 H39 1_555 1_555
C14 H40 1_555 1_555
C4 H41 1_555 1_555
C8 H42 1_555 1_555
Bi10 O11_2 1_555 1_555
C55 C52 1_555 1_555
C56 C55 1_555 1_555
C57 C56 1_555 1_555
C58 C57 1_555 1_555
C59 C58 1_555 1_555
C60 C55 1_555 1_555
C61 C58 1_555 1_555
O16 C61 1_555 1_555
O17 C61 1_555 1_555
Bi9 O16 1_555 1_555
C59 C60 1_555 1_555
O17 Bi9 1_555 1_555
C56 H15 1_555 1_555
C57 H16 1_555 1_555
C59 H25 1_555 1_555
C36 C1_2 1_555 1_555
C37 C36 1_555 1_555
C38 C37 1_555 1_555
C39 C38 1_555 1_555
C40 C39 1_555 1_555
C41 C40 1_555 1_555
C42 C37 1_555 1_555
C43 C40 1_555 1_555
O12 C43 1_555 1_555
O13 C43 1_555 1_555
C44 C11_2 1_555 1_555
C45 C44 1_555 1_555
C46 C45 1_555 1_555
C47 C46 1_555 1_555
C48 C47 1_555 1_555
C49 C48 1_555 1_555
C50 C45 1_555 1_555
C51 C48 1_555 1_555
O14 C51 1_555 1_555
O15 C51 1_555 1_555
C53 C54 1_555 1_555
C62 C53 1_555 1_555
C63 C62 1_555 1_555
C64 C63 1_555 1_555
C65 C64 1_555 1_555
C66 C65 1_555 1_555
C67 C62 1_555 1_555
C68 C65 1_555 1_555
O18 C68 1_555 1_555
O19 C68 1_555 1_555
Bi3 O14 1_555 1_555
O20 Bi3 1_555 1_555
Bi4 O14 1_555 1_555
O21 Bi3 1_555 1_555
Bi6 O12 1_555 1_555
O26 Bi4 1_555 1_555
O27 Bi4 1_555 1_555
O28 Bi4 1_555 1_555
C36 C44 1_555 1_555
C41 C42 1_555 1_555
C49 C50 1_555 1_555
C66 C67 1_555 1_555
O20 Bi4 1_555 1_555
C47 H17 1_555 1_555
C39 H18 1_555 1_555
C41 H19 1_555 1_555
C46 H20 1_555 1_555
C50 H22 1_555 1_555
C54 H23 1_555 1_555
C38 H24 1_555 1_555
C42 H27 1_555 1_555
C49 H28 1_555 1_555
C67 H31 1_555 1_555
C64 H32 1_555 1_555
O19 H33 1_555 1_555
C66 H34 1_555 1_555
C11_2 H37_2 1_555 1_555
C1_2 H39_2 1_555 1_555
Bi7 O22 1_555 1_555
C55_2 C52_2 1_555 1_555
C56_2 C55_2 1_555 1_555
C57_2 C56_2 1_555 1_555
C58_2 C57_2 1_555 1_555
C59_2 C58_2 1_555 1_555
C60_2 C55_2 1_555 1_555
C61_2 C58_2 1_555 1_555
O16_2 C61_2 1_555 1_555
O17_2 C61_2 1_555 1_555
Bi9_2 O16_2 1_555 1_555
C59_2 C60_2 1_555 1_555
O17_2 Bi9_2 1_555 1_555
C56_2 H15_2 1_555 1_555
C57_2 H16_2 1_555 1_555
C59_2 H25_2 1_555 1_555
C54_2 H23_2 1_555 1_555
C62_2 C53_2 1_555 1_555
C63_2 C62_2 1_555 1_555
C64_2 C63_2 1_555 1_555
C65_2 C64_2 1_555 1_555
C66_2 C65_2 1_555 1_555
C67_2 C62_2 1_555 1_555
C68_2 C65_2 1_555 1_555
O18_2 C68_2 1_555 1_555
O19_2 C68_2 1_555 1_555
C66_2 C67_2 1_555 1_555
C64_2 H32_2 1_555 1_555
O19_2 H33_2 1_555 1_555
C66_2 H34_2 1_555 1_555
C29_2 C20_2 1_555 1_555
C30_2 C29_2 1_555 1_555
C31_2 C30_2 1_555 1_555
C32_2 C31_2 1_555 1_555
C33_2 C32_2 1_555 1_555
C34_2 C29_2 1_555 1_555
C35_2 C32_2 1_555 1_555
O9_2 C35_2 1_555 1_555
O10_2 C35_2 1_555 1_555
C33_2 C34_2 1_555 1_555
O10_2 H4_2 1_555 1_555
C33_2 H5_2 1_555 1_555
C31_2 H7_2 1_555 1_555
C21_2 H6_2 1_555 1_555
C22_2 C19_2 1_555 1_555
C23_2 C22_2 1_555 1_555
C24_2 C23_2 1_555 1_555
C25_2 C24_2 1_555 1_555
C26_2 C25_2 1_555 1_555
C27_2 C22_2 1_555 1_555
C28_2 C25_2 1_555 1_555
Bi10_2 O28 1_555 1_555
C26_2 C27_2 1_555 1_555
C28_2 O26 1_555 1_555
C28_2 O27 1_555 1_555
C23_2 H1_2 1_555 1_555
C24_2 H11_2 1_555 1_555
C26_2 H14_2 1_555 1_555
Bi1_2 O1_2 1_555 1_555
O1_2 Bi2_2 1_555 1_555
C11_3 C10_2 1_555 1_555
C12_2 C10_2 1_555 1_555
C13_2 C12_2 1_555 1_555
C14_2 C13_2 1_555 1_555
C15_2 C14_2 1_555 1_555
C16_2 C15_2 1_555 1_555
C17_2 C12_2 1_555 1_555
C18_2 C15_2 1_555 1_555
O4_2 Bi1_2 1_555 1_555
O5_2 C18_2 1_555 1_555
Bi2_2 O4_2 1_555 1_555
O6_2 Bi1_2 1_555 1_555
C19_3 C20_3 1_555 1_555
C20_3 C21_3 1_555 1_555
C21_3 C52_3 1_555 1_555
C22_3 C19_3 1_555 1_555
C23_3 C22_3 1_555 1_555
C24_3 C23_3 1_555 1_555
C25_3 C24_3 1_555 1_555
C26_3 C25_3 1_555 1_555
C27_3 C22_3 1_555 1_555
C28_3 C25_3 1_555 1_555
O7_2 Bi2_2 1_555 1_555
O8_2 Bi2_2 1_555 1_555
C29_3 C20_3 1_555 1_555
C30_3 C29_3 1_555 1_555
C31_3 C30_3 1_555 1_555
C32_3 C31_3 1_555 1_555
C33_3 C32_3 1_555 1_555
C34_3 C29_3 1_555 1_555
C35_3 C32_3 1_555 1_555
O9_3 C35_3 1_555 1_555
O10_3 C35_3 1_555 1_555
O11_3 Bi2_2 1_555 1_555
C44_2 C11_3 1_555 1_555
C45_2 C44_2 1_555 1_555
C46_2 C45_2 1_555 1_555
C47_2 C46_2 1_555 1_555
C48_2 C47_2 1_555 1_555
C49_2 C48_2 1_555 1_555
C50_2 C45_2 1_555 1_555
C51_2 C48_2 1_555 1_555
O14_2 C51_2 1_555 1_555
O15_2 C51_2 1_555 1_555
C52_3 C53_3 1_555 1_555
C53_3 C54_3 1_555 1_555
C54_3 C19_3 1_555 1_555
C55_3 C52_3 1_555 1_555
C56_3 C55_3 1_555 1_555
C57_3 C56_3 1_555 1_555
C58_3 C57_3 1_555 1_555
C59_3 C58_3 1_555 1_555
C60_3 C55_3 1_555 1_555
C61_3 C58_3 1_555 1_555
O16_3 C61_3 1_555 1_555
O17_3 C61_3 1_555 1_555
C62_3 C53_3 1_555 1_555
C63_3 C62_3 1_555 1_555
C64_3 C63_3 1_555 1_555
C65_3 C64_3 1_555 1_555
C66_3 C65_3 1_555 1_555
C67_3 C62_3 1_555 1_555
C68_3 C65_3 1_555 1_555
O18_3 C68_3 1_555 1_555
O19_3 C68_3 1_555 1_555
Bi3_2 O14_2 1_555 1_555
O20_2 Bi3_2 1_555 1_555
Bi4_2 O14_2 1_555 1_555
O21_2 Bi3_2 1_555 1_555
Bi6 O1_2 1_555 1_555
O23_2 Bi1_2 1_555 1_555
O24_2 Bi1_2 1_555 1_555
Bi10 O16_3 1_555 1_555
O26_2 Bi4_2 1_555 1_555
O27_2 Bi4_2 1_555 1_555
O28_2 Bi4_2 1_555 1_555
C16_2 C17_2 1_555 1_555
C18_2 O4_2 1_555 1_555
C26_3 C27_3 1_555 1_555
C28_3 O7_2 1_555 1_555
C28_3 O8_2 1_555 1_555
C33_3 C34_3 1_555 1_555
C49_2 C50_2 1_555 1_555
C59_3 C60_3 1_555 1_555
O17_3 Bi10 1_555 1_555
C66_3 C67_3 1_555 1_555
O20_2 Bi4_2 1_555 1_555
Bi6 O23_2 1_555 1_555
C23_3 H1_3 1_555 1_555
C34_3 H2_3 1_555 1_555
C30_3 H3_3 1_555 1_555
O10_3 H4_3 1_555 1_555
C33_3 H5_3 1_555 1_555
C21_3 H6_3 1_555 1_555
C31_3 H7_3 1_555 1_555
C17_2 H8_2 1_555 1_555
C24_3 H11_3 1_555 1_555
C16_2 H12_2 1_555 1_555
C27_3 H13_3 1_555 1_555
C26_3 H14_3 1_555 1_555
C56_3 H15_3 1_555 1_555
C57_3 H16_3 1_555 1_555
C47_2 H17_2 1_555 1_555
C63_3 H21_3 1_555 1_555
C50_2 H22_2 1_555 1_555
C54_3 H23_3 1_555 1_555
C59_3 H25_3 1_555 1_555
C60_3 H26_3 1_555 1_555
C49_2 H28_2 1_555 1_555
C67_3 H31_3 1_555 1_555
C64_3 H32_3 1_555 1_555
O19_3 H33_3 1_555 1_555
C66_3 H34_3 1_555 1_555
C11_3 H37_3 1_555 1_555
C14_2 H40_2 1_555 1_555
Bi9 O11_4 1_555 1_555
Bi5 O22_2 1_555 1_555
C1_3 C2_2 1_555 1_555
C2_2 C3_2 1_555 1_555
C3_2 C4_2 1_555 1_555
C4_2 C5_2 1_555 1_555
C5_2 C6_2 1_555 1_555
C6_2 C7_2 1_555 1_555
C7_2 C8_2 1_555 1_555
C8_2 C3_2 1_555 1_555
C9_2 C6_2 1_555 1_555
O2_2 C9_2 1_555 1_555
O3_2 C9_2 1_555 1_555
C36_2 C1_3 1_555 1_555
C37_2 C36_2 1_555 1_555
C38_2 C37_2 1_555 1_555
C39_2 C38_2 1_555 1_555
C40_2 C39_2 1_555 1_555
C41_2 C40_2 1_555 1_555
C42_2 C37_2 1_555 1_555
C43_2 C40_2 1_555 1_555
O12_2 C43_2 1_555 1_555
O13_2 C43_2 1_555 1_555
Bi8 O12_2 1_555 1_555
C41_2 C42_2 1_555 1_555
C39_2 H18_2 1_555 1_555
C41_2 H19_2 1_555 1_555
C38_2 H24_2 1_555 1_555
C42_2 H27_2 1_555 1_555
C5_2 H35_2 1_555 1_555
C7_2 H36_2 1_555 1_555
C1_3 H39_3 1_555 1_555
C4_2 H41_2 1_555 1_555
C8_2 H42_2 1_555 1_555
C19_4 C20_4 1_555 1_555
C22_4 C19_4 1_555 1_555
C23_4 C22_4 1_555 1_555
C24_4 C23_4 1_555 1_555
C25_4 C24_4 1_555 1_555
C26_4 C25_4 1_555 1_555
C27_4 C22_4 1_555 1_555
C28_4 C25_4 1_555 1_555
C29_4 C20_4 1_555 1_555
C30_4 C29_4 1_555 1_555
C31_4 C30_4 1_555 1_555
C32_4 C31_4 1_555 1_555
C33_4 C32_4 1_555 1_555
C34_4 C29_4 1_555 1_555
C35_4 C32_4 1_555 1_555
O9_4 C35_4 1_555 1_555
O10_4 C35_4 1_555 1_555
C54_4 C19_4 1_555 1_555
Bi9_2 O28_2 1_555 1_555
C26_4 C27_4 1_555 1_555
C28_4 O26_2 1_555 1_555
C28_4 O27_2 1_555 1_555
C33_4 C34_4 1_555 1_555
C23_4 H1_4 1_555 1_555
C30_4 H3_4 1_555 1_555
O10_4 H4_4 1_555 1_555
C33_4 H5_4 1_555 1_555
C31_4 H7_4 1_555 1_555
C24_4 H11_4 1_555 1_555
C27_4 H13_4 1_555 1_555
C26_4 H14_4 1_555 1_555
C54_4 H23_4 1_555 1_555
C21_4 C52_4 1_555 1_555
C52_4 C53_4 1_555 1_555
C55_4 C52_4 1_555 1_555
C56_4 C55_4 1_555 1_555
C57_4 C56_4 1_555 1_555
C58_4 C57_4 1_555 1_555
C59_4 C58_4 1_555 1_555
C60_4 C55_4 1_555 1_555
C61_4 C58_4 1_555 1_555
O16_4 C61_4 1_555 1_555
O17_4 C61_4 1_555 1_555
C62_4 C53_4 1_555 1_555
C63_4 C62_4 1_555 1_555
C64_4 C63_4 1_555 1_555
C65_4 C64_4 1_555 1_555
C66_4 C65_4 1_555 1_555
C67_4 C62_4 1_555 1_555
C68_4 C65_4 1_555 1_555
O18_4 C68_4 1_555 1_555
O19_4 C68_4 1_555 1_555
Bi10_2 O16_4 1_555 1_555
C59_4 C60_4 1_555 1_555
O17_4 Bi10_2 1_555 1_555
C66_4 C67_4 1_555 1_555
C21_4 H6_4 1_555 1_555
C56_4 H15_4 1_555 1_555
C57_4 H16_4 1_555 1_555
C63_4 H21_4 1_555 1_555
C59_4 H25_4 1_555 1_555
C60_4 H26_4 1_555 1_555
C64_4 H32_4 1_555 1_555
O19_4 H33_4 1_555 1_555
C66_4 H34_4 1_555 1_555
C36_3 C1_4 1_555 1_555
C37_3 C36_3 1_555 1_555
C38_3 C37_3 1_555 1_555
C39_3 C38_3 1_555 1_555
C40_3 C39_3 1_555 1_555
C41_3 C40_3 1_555 1_555
C42_3 C37_3 1_555 1_555
C43_3 C40_3 1_555 1_555
O24 C43_3 1_555 1_555
O13_3 C43_3 1_555 1_555
C44_3 C11_4 1_555 1_555
C45_3 C44_3 1_555 1_555
C46_3 C45_3 1_555 1_555
C47_3 C46_3 1_555 1_555
C48_3 C47_3 1_555 1_555
C49_3 C48_3 1_555 1_555
C50_3 C45_3 1_555 1_555
C51_3 C48_3 1_555 1_555
O14_3 C51_3 1_555 1_555
O15_3 C51_3 1_555 1_555
Bi5 O14_3 1_555 1_555
Bi9_2 O14_3 1_555 1_555
O21_3 Bi5 1_555 1_555
C36_3 C44_3 1_555 1_555
C41_3 C42_3 1_555 1_555
C49_3 C50_3 1_555 1_555
O22_2 Bi9_2 1_555 1_555
C47_3 H17_3 1_555 1_555
C39_3 H18_3 1_555 1_555
C41_3 H19_3 1_555 1_555
C46_3 H20_3 1_555 1_555
C50_3 H22_3 1_555 1_555
C38_3 H24_3 1_555 1_555
C42_3 H27_3 1_555 1_555
C49_3 H28_3 1_555 1_555
O10 H33_5 1_555 1_555
C11_4 H37_4 1_555 1_555
C1_4 H39_4 1_555 1_555
O23_2 Bi9 1_555 1_555
C1_5 C2_3 1_555 1_555
C2_3 C3_3 1_555 1_555
C3_3 C4_3 1_555 1_555
C4_3 C5_3 1_555 1_555
C5_3 C6_3 1_555 1_555
C6_3 C7_3 1_555 1_555
C7_3 C8_3 1_555 1_555
C8_3 C3_3 1_555 1_555
C9_3 C6_3 1_555 1_555
O25 C9_3 1_555 1_555
O3_3 C9_3 1_555 1_555
C10_3 C2_3 1_555 1_555
C11_5 C10_3 1_555 1_555
C12_3 C10_3 1_555 1_555
C13_3 C12_3 1_555 1_555
C14_3 C13_3 1_555 1_555
C15_3 C14_3 1_555 1_555
C16_3 C15_3 1_555 1_555
C17_3 C12_3 1_555 1_555
C18_3 C15_3 1_555 1_555
O4_3 Bi6 1_555 1_555
O5_3 C18_3 1_555 1_555
Bi9 O4_3 1_555 1_555
O6_3 Bi6 1_555 1_555
C16_3 C17_3 1_555 1_555
C18_3 O4_3 1_555 1_555
C17_3 H8_3 1_555 1_555
C16_3 H12_3 1_555 1_555
C5_3 H35_3 1_555 1_555
C7_3 H36_3 1_555 1_555
C11_5 H37_5 1_555 1_555
C13_3 H38_3 1_555 1_555
C1_5 H39_5 1_555 1_555
C14_3 H40_3 1_555 1_555
C4_3 H41_3 1_555 1_555
C8_3 H42_3 1_555 1_555
O19 H4_5 1_555 1_555
O19_2 H4_6 1_555 1_555
O10_2 H33_6 1_555 1_555
C1_6 C2_4 1_555 1_555
C2_4 C3_4 1_555 1_555
C3_4 C4_4 1_555 1_555
C4_4 C5_4 1_555 1_555
C5_4 C6_4 1_555 1_555
C6_4 C7_4 1_555 1_555
C7_4 C8_4 1_555 1_555
C8_4 C3_4 1_555 1_555
C9_4 C6_4 1_555 1_555
O25_2 C9_4 1_555 1_555
O3_4 C9_4 1_555 1_555
C36_4 C1_6 1_555 1_555
C37_4 C36_4 1_555 1_555
C38_4 C37_4 1_555 1_555
C39_4 C38_4 1_555 1_555
C40_4 C39_4 1_555 1_555
C41_4 C40_4 1_555 1_555
C42_4 C37_4 1_555 1_555
C43_4 C40_4 1_555 1_555
O24_2 C43_4 1_555 1_555
O13_4 C43_4 1_555 1_555
C41_4 C42_4 1_555 1_555
C39_4 H18_4 1_555 1_555
C41_4 H19_4 1_555 1_555
C38_4 H24_4 1_555 1_555
C42_4 H27_4 1_555 1_555
C5_4 H35_4 1_555 1_555
C7_4 H36_4 1_555 1_555
C1_6 H39_6 1_555 1_555
C4_4 H41_4 1_555 1_555
C8_4 H42_4 1_555 1_555
O23 Bi10 1_555 1_555
C11_6 C10_4 1_555 1_555
C12_4 C10_4 1_555 1_555
C13_4 C12_4 1_555 1_555
C14_4 C13_4 1_555 1_555
C15_4 C14_4 1_555 1_555
C16_4 C15_4 1_555 1_555
C17_4 C12_4 1_555 1_555
C18_4 C15_4 1_555 1_555
O4_4 Bi8 1_555 1_555
O5_4 C18_4 1_555 1_555
Bi10 O4_4 1_555 1_555
O6_4 Bi8 1_555 1_555
C44_4 C11_6 1_555 1_555
C45_4 C44_4 1_555 1_555
C46_4 C45_4 1_555 1_555
C47_4 C46_4 1_555 1_555
C48_4 C47_4 1_555 1_555
C49_4 C48_4 1_555 1_555
C50_4 C45_4 1_555 1_555
C51_4 C48_4 1_555 1_555
O14_4 C51_4 1_555 1_555
O15_4 C51_4 1_555 1_555
Bi7 O14_4 1_555 1_555
Bi10_2 O14_4 1_555 1_555
O21_4 Bi7 1_555 1_555
C16_4 C17_4 1_555 1_555
C18_4 O4_4 1_555 1_555
C49_4 C50_4 1_555 1_555
O22 Bi10_2 1_555 1_555
O19_3 H4_7 1_555 1_555
C17_4 H8_4 1_555 1_555
C16_4 H12_4 1_555 1_555
C47_4 H17_4 1_555 1_555
C50_4 H22_4 1_555 1_555
C49_4 H28_4 1_555 1_555
O10_3 H33_7 1_555 1_555
C11_6 H37_6 1_555 1_555
C14_4 H40_4 1_555 1_555
O10_4 H33_8 1_555 1_555
O19_4 H4_8 1_555 1_555

#END
