
###############################################################################
#
# This file contains modified crystal structure data generated from the
# MOF subset of the Cambridge Structural Database (CSD) v543 
# hosted by the Cambridge Crystallographic Data Centre (CCDC).
#
# This work is licensed under the Creative Commons
# Attribution-NonCommercial-ShareAlike 4.0 International License.
# To view a copy of this license, visit
# http://creativecommons.org/licenses/by-nc-sa/4.0/
# or send a letter to
# Creative Commons, PO Box 1866, Mountain View, CA 94042, USA.
#
# CIF created using the CSD Python API on 29 September 2022
# The structure has been converted into the P1 space group
# The structure has a 3D framework
# The original CSD entry MIHMIC is in the monoclinic crystal system
# The framework has been calculated to contain at least 10.0% void space
# The void calculation uses a probe of radius 1.32A, grid spacing 0.4
# The framework is charged, counterions have been retained in the structure
# H atom positions have been added when not included in the experimental data
# Generated hydrogen atom positions removed from atoms on special positions
#
###############################################################################

data_MIHMIC
_chemical_formula_moiety         '(C136 H84 Bi4 O34 4-)n'
_symmetry_cell_setting           triclinic
_symmetry_space_group_name_H-M   'P 1'
_symmetry_Int_Tables_number      1
_space_group_name_Hall           'P 1'
loop_
_symmetry_equiv_pos_site_id
_symmetry_equiv_pos_as_xyz
1 x,y,z
_cell_length_a                   11.1877(11)
_cell_length_b                   24.552(2)
_cell_length_c                   16.3146(16)
_cell_angle_alpha                90
_cell_angle_beta                 91.365(3)
_cell_angle_gamma                90
_cell_volume                     4480.03
loop_
_atom_site_label
_atom_site_type_symbol
_atom_site_fract_x
_atom_site_fract_y
_atom_site_fract_z
C53 C 0.0591(9) 0.0198(4) 0.4284(6)
O14 O 0.3121(7) 0.1727(3) 0.1633(5)
O15 O 0.3841(6) 0.0924(3) 0.1270(4)
C54 C 0.3184(9) 0.1214(4) 0.1712(6)
C55 C 0.2489(9) 0.0944(4) 0.2373(5)
C56 C 0.1921(9) 0.1247(4) 0.2937(6)
H29 H 0.1958 0.1625 0.2903
C57 C 0.1297(10) 0.1016(4) 0.3554(6)
H30 H 0.0908 0.1233 0.3931
C58 C 0.1248(8) 0.0451(4) 0.3613(5)
C59 C 0.1828(9) 0.0145(5) 0.3035(5)
C60 C 0.2449(9) 0.0380(4) 0.2429(6)
H32 H 0.2847 0.0166 0.2053
Bi6 Bi 0.49508(3) 0.16256(2) 0.05869(2)
C52 C 0.1194(9) 0.9912(4) 0.4908(5)
H28 H 0.2011 0.9856 0.4854
H31 H 0.1790 0.9767 0.3063
O16 O 0.4225(7) 0.8324(3) 0.8000(4)
O17 O 0.3568(6) 0.8917(3) 0.8882(4)
C61 C 0.3543(9) 0.8717(4) 0.8164(6)
C62 C 0.2788(9) 0.8970(4) 0.7513(5)
C63 C 0.2880(10) 0.8795(5) 0.6691(6)
H33 H 0.3408 0.8517 0.6561
C64 C 0.2186(9) 0.9037(5) 0.6082(6)
H34 H 0.2250 0.8922 0.5542
C65 C 0.1400(8) 0.9447(4) 0.6270(6)
C66 C 0.1317(9) 0.9624(5) 0.7072(6)
H35 H 0.0794 0.9904 0.7199
C67 C 0.2011(9) 0.9383(4) 0.7687(6)
H36 H 0.1948 0.9503 0.8225
C68 C 0.0656(8) 0.9705(4) 0.5605(6)
Bi3 Bi 0.50492(3) 0.83744(2) 0.94131(2)
O5 O 0.5775(7) 0.1676(3) 0.2000(4)
O6 O 0.6432(6) 0.1083(3) 0.1118(4)
C18 C 0.6457(9) 0.1283(4) 0.1836(6)
C19 C 0.7212(9) 0.1030(4) 0.2487(5)
C20 C 0.7120(10) 0.1205(5) 0.3309(6)
H10 H 0.6592 0.1483 0.3439
C21 C 0.7814(9) 0.0963(5) 0.3918(6)
H11 H 0.7750 0.1078 0.4458
C22 C 0.8600(8) 0.0553(4) 0.3730(6)
C23 C 0.8683(9) 0.0376(5) 0.2928(6)
H12 H 0.9206 0.0096 0.2801
C24 C 0.7989(9) 0.0617(4) 0.2313(6)
H13 H 0.8052 0.0497 0.1775
C25 C 0.9344(8) 0.0295(4) 0.4395(6)
C26 C 0.8806(9) 0.0088(4) 0.5092(5)
H14 H 0.7989 0.0144 0.5146
H17 H 0.8210 0.0233 0.6937
O1 O 0.0739(11) 0.3468(5) 0.4184(6)
C1 C 0.0249(10) 0.3905(5) 0.4057(6)
C2 C 0.0209(9) 0.4147(4) 0.3229(6)
C5 C 0.0052(8) 0.4567(3) 0.1652(5)
C6 C 0.0524(10) 0.4059(4) 0.1792(6)
H3 H 0.0788 0.3854 0.1352
C7 C 0.0614(11) 0.3846(4) 0.2575(6)
H4 H 0.0946 0.3503 0.2662
C9 C 0.0570(8) 0.5276(3) 0.0623(5)
H5 H 0.0952 0.5460 0.1053
C13 C 0.1918(10) 0.6910(4) 0.0032(6)
H6 H 0.1768 0.7231 0.0313
C14 C 0.1178(9) 0.6464(4) 0.0127(6)
H7 H 0.0546 0.6489 0.0485
O9 O 0.6835(16) 0.8066(10) 0.0497(12)
O19 O 0.4261(11) 0.8468(5) 0.0816(6)
O21 O 0.5159(10) 0.9148(3) 0.0361(4)
C10 C 0.0620(8) 0.5491(3) 0.9855(5)
O3 O 0.3265(7) 0.7817(3) 0.9569(5)
O4 O 0.4718(8) 0.7289(3) 0.9185(6)
C11 C 0.3678(11) 0.7346(4) 0.9418(6)
C12 C 0.2868(9) 0.6878(4) 0.9525(6)
C15 C 0.1352(9) 0.5977(3) 0.9702(5)
C16 C 0.2310(8) 0.5959(4) 0.9173(6)
H8 H 0.2437 0.5646 0.8865
C17 C 0.3066(10) 0.6392(4) 0.9099(6)
H9 H 0.3721 0.6364 0.8762
C27 C 0.9409(9) 0.9802(4) 0.5716(6)
O7 O 0.6879(7) 0.8273(3) 0.8367(5)
O8 O 0.6159(6) 0.9076(3) 0.8730(4)
C28 C 0.6816(9) 0.8786(4) 0.8288(6)
C29 C 0.7511(9) 0.9056(4) 0.7627(5)
C30 C 0.8079(9) 0.8753(4) 0.7063(6)
H15 H 0.8042 0.8375 0.7097
C31 C 0.8703(10) 0.8984(4) 0.6446(6)
H16 H 0.9092 0.8767 0.6069
C32 C 0.8752(8) 0.9549(4) 0.6387(5)
C33 C 0.8172(9) 0.9855(5) 0.6965(5)
C34 C 0.7551(9) 0.9620(4) 0.7571(6)
H18 H 0.7153 0.9834 0.7947
O13 O 0.0159(10) 0.5852(3) 0.5361(4)
C46 C 0.0257(10) 0.5345(4) 0.6917(6)
H24 H 0.0536 0.5141 0.6481
C47 C 0.0319(9) 0.5133(4) 0.7695(5)
H25 H 0.0614 0.4782 0.7778
C51 C 0.0031(8) 0.5212(3) 0.9203(5)
Bi7 Bi 0.00492(3) 0.66256(2) 0.44131(2)
O2 O 0.9841(10) 0.4148(3) 0.4639(4)
C3 C 0.9743(10) 0.4655(4) 0.3083(6)
H1 H 0.9464 0.4859 0.3519
C4 C 0.9681(9) 0.4867(4) 0.2305(5)
H2 H 0.9386 0.5218 0.2222
C8 C 0.9969(8) 0.4788(3) 0.0797(5)
C36 C 0.9380(8) 0.4509(3) 0.0145(5)
O10 O 0.6735(7) 0.2183(3) 0.0431(5)
O11 O 0.5282(8) 0.2711(3) 0.0815(6)
C37 C 0.6322(11) 0.2654(4) 0.0582(6)
C38 C 0.7132(9) 0.3122(4) 0.0475(6)
C41 C 0.8648(9) 0.4023(3) 0.0298(5)
C42 C 0.7690(8) 0.4041(4) 0.0827(6)
H22 H 0.7563 0.4354 0.1135
C43 C 0.6934(10) 0.3608(4) 0.0901(6)
H23 H 0.6279 0.3636 0.1238
Bi4 Bi 0.99508(3) 0.33744(2) 0.55869(2)
C35 C 0.9430(8) 0.4724(3) 0.9377(5)
H19 H 0.9048 0.4540 0.8947
C39 C 0.8082(10) 0.3090(4) 0.9968(6)
H20 H 0.8232 0.2769 0.9687
C40 C 0.8822(9) 0.3536(4) 0.9873(6)
H21 H 0.9454 0.3511 0.9515
O12 O 0.9261(11) 0.6532(5) 0.5816(6)
C44 C 0.9751(10) 0.6095(5) 0.5943(6)
C45 C 0.9791(9) 0.5853(4) 0.6771(6)
C48 C 0.9948(8) 0.5433(3) 0.8348(5)
C49 C 0.9476(10) 0.5941(4) 0.8208(6)
H26 H 0.9212 0.6146 0.8648
C50 C 0.9386(11) 0.6154(4) 0.7425(6)
H27 H 0.9054 0.6497 0.7338
O18 O 0.3165(16) 0.1934(10) 0.9503(12)
O20 O 0.5739(11) 0.1532(5) 0.9184(6)
O22 O 0.4841(10) 0.0852(3) 0.9639(4)
O18_2 O 0.1835(16) 0.6934(10) 0.5497(12)
O27 O 0.1879(7) 0.6727(3) 0.3367(5)
O28 O 0.1159(6) 0.5924(3) 0.3730(4)
H2_2 H 0.5614 0.0218 0.2778
C9_2 C 0.4430(8) 0.0276(3) 0.4377(5)
H5_2 H 0.4048 0.0460 0.3947
C10_2 C 0.4380(8) 0.0491(3) 0.5145(5)
O3_2 O 0.1735(7) 0.2817(3) 0.5431(5)
O4_2 O 0.0282(8) 0.2289(3) 0.5815(6)
C11_2 C 0.1322(11) 0.2346(4) 0.5582(6)
C12_2 C 0.2132(9) 0.1878(4) 0.5475(6)
C13_2 C 0.3082(10) 0.1910(4) 0.4968(6)
H6_2 H 0.3232 0.2231 0.4687
C14_2 C 0.3822(9) 0.1464(4) 0.4873(6)
H7_2 H 0.4454 0.1489 0.4515
C15_2 C 0.3648(9) 0.0977(3) 0.5298(5)
C16_2 C 0.2690(8) 0.0959(4) 0.5827(6)
H8_2 H 0.2563 0.0646 0.6135
C17_2 C 0.1934(10) 0.1392(4) 0.5901(6)
H9_2 H 0.1279 0.1364 0.6238
C44_2 C 0.5249(10) 0.1095(5) 0.9057(6)
C45_2 C 0.5209(9) 0.0853(4) 0.8229(6)
C46_2 C 0.4743(10) 0.0345(4) 0.8083(6)
H24_2 H 0.4464 0.0141 0.8519
C47_2 C 0.4681(9) 0.0133(4) 0.7305(5)
C48_2 C 0.5052(8) 0.0433(3) 0.6652(5)
C49_2 C 0.5524(10) 0.0941(4) 0.6792(6)
H26_2 H 0.5788 0.1146 0.6352
C50_2 C 0.5614(11) 0.1154(4) 0.7575(6)
H27_2 H 0.5946 0.1497 0.7662
C51_2 C 0.4969(8) 0.0212(3) 0.5797(5)
O24 O 0.0775(7) 0.3324(3) 0.7000(4)
O26 O 0.1432(6) 0.3917(3) 0.6118(4)
C1_2 C 0.4751(10) 0.8905(5) 0.0943(6)
C2_2 C 0.4791(9) 0.9147(4) 0.1771(6)
C3_2 C 0.5257(10) 0.9655(4) 0.1917(6)
H1_2 H 0.5536 0.9859 0.1481
C4_2 C 0.5319(9) 0.9867(4) 0.2695(5)
C5_2 C 0.4948(8) 0.9567(3) 0.3348(5)
C6_2 C 0.4476(10) 0.9059(4) 0.3208(6)
H3_2 H 0.4212 0.8854 0.3648
C7_2 C 0.4386(11) 0.8846(4) 0.2425(6)
H4_2 H 0.4054 0.8503 0.2338
C8_2 C 0.5031(8) 0.9788(3) 0.4203(5)
C35_2 C 0.5570(8) 0.9724(3) 0.5623(5)
H19_2 H 0.5952 0.9540 0.6053
C36_2 C 0.5620(8) 0.9509(3) 0.4855(5)
O10_2 O 0.8265(7) 0.7183(3) 0.4569(5)
O11_2 O 0.9718(8) 0.7711(3) 0.4185(6)
C37_2 C 0.8678(11) 0.7654(4) 0.4418(6)
C38_2 C 0.7868(9) 0.8122(4) 0.4525(6)
C39_2 C 0.6918(10) 0.8090(4) 0.5032(6)
H20_2 H 0.6768 0.7769 0.5313
C40_2 C 0.6178(9) 0.8536(4) 0.5127(6)
H21_2 H 0.5546 0.8511 0.5485
C41_2 C 0.6352(9) 0.9023(3) 0.4702(5)
C42_2 C 0.7310(8) 0.9041(4) 0.4173(6)
H22_2 H 0.7437 0.9354 0.3865
C43_2 C 0.8066(10) 0.8608(4) 0.4099(6)
H23_2 H 0.8721 0.8636 0.3762
H25_2 H 0.4386 0.9782 0.7222
O23 O 0.9225(7) 0.6676(3) 0.3000(4)
O25 O 0.8568(6) 0.6083(3) 0.3882(4)
C18_2 C 0.8543(9) 0.6283(4) 0.3164(6)
C19_2 C 0.7788(9) 0.6030(4) 0.2513(5)
C20_2 C 0.7880(10) 0.6205(5) 0.1691(6)
H10_2 H 0.8408 0.6483 0.1561
C21_2 C 0.7186(9) 0.5963(5) 0.1082(6)
H11_2 H 0.7250 0.6078 0.0542
C22_2 C 0.6400(8) 0.5553(4) 0.1270(6)
C23_2 C 0.6317(9) 0.5376(5) 0.2072(6)
H12_2 H 0.5794 0.5096 0.2199
C24_2 C 0.7011(9) 0.5617(4) 0.2687(6)
H13_2 H 0.6948 0.5497 0.3225
C25_2 C 0.5656(8) 0.5295(4) 0.0605(6)
C52_2 C 0.3806(9) 0.4912(4) 0.0092(5)
H28_2 H 0.2989 0.4856 0.0146
C53_2 C 0.4409(9) 0.5198(4) 0.0716(6)
C54_2 C 0.1816(9) 0.6214(4) 0.3288(6)
C55_2 C 0.2511(9) 0.5944(4) 0.2627(5)
C56_2 C 0.3079(9) 0.6247(4) 0.2063(6)
H29_2 H 0.3042 0.6625 0.2097
C57_2 C 0.3703(10) 0.6016(4) 0.1446(6)
H30_2 H 0.4092 0.6233 0.1069
C58_2 C 0.3752(8) 0.5451(4) 0.1387(5)
C59_2 C 0.3172(9) 0.5145(5) 0.1965(5)
H31_2 H 0.3210 0.4767 0.1937
C60_2 C 0.2551(9) 0.5380(4) 0.2571(6)
H32_2 H 0.2153 0.5166 0.2947
C26_2 C 0.6194(9) 0.5088(4) 0.9908(5)
H14_2 H 0.7011 0.5144 0.9854
C27_2 C 0.5591(9) 0.4802(4) 0.9284(6)
O7_2 O 0.8121(7) 0.3273(3) 0.6633(5)
O8_2 O 0.8841(6) 0.4076(3) 0.6270(4)
C28_2 C 0.8184(9) 0.3786(4) 0.6712(6)
C29_2 C 0.7489(9) 0.4056(4) 0.7373(5)
C30_2 C 0.6921(9) 0.3753(4) 0.7937(6)
H15_2 H 0.6958 0.3375 0.7903
C31_2 C 0.6297(10) 0.3984(4) 0.8554(6)
H16_2 H 0.5908 0.3767 0.8931
C32_2 C 0.6248(8) 0.4549(4) 0.8613(5)
C33_2 C 0.6828(9) 0.4855(5) 0.8035(5)
H17_2 H 0.6790 0.5233 0.8063
C34_2 C 0.7449(9) 0.4620(4) 0.7429(6)
H18_2 H 0.7847 0.4834 0.7053
O9_2 O 0.8165(16) 0.3066(10) 0.4503(12)
C61_2 C 0.1457(9) 0.3717(4) 0.6836(6)
C62_2 C 0.2212(9) 0.3970(4) 0.7487(5)
C63_2 C 0.2120(10) 0.3795(5) 0.8309(6)
H33_2 H 0.1592 0.3517 0.8439
C64_2 C 0.2814(9) 0.4037(5) 0.8918(6)
H34_2 H 0.2750 0.3922 0.9458
C65_2 C 0.3600(8) 0.4447(4) 0.8730(6)
C66_2 C 0.3683(9) 0.4624(5) 0.7928(6)
H35_2 H 0.4206 0.4904 0.7801
C67_2 C 0.2989(9) 0.4383(4) 0.7313(6)
H36_2 H 0.3052 0.4503 0.6775
C68_2 C 0.4344(8) 0.4705(4) 0.9395(6)
loop_
_geom_bond_atom_site_label_1
_geom_bond_atom_site_label_2
_geom_bond_site_symmetry_1
_geom_bond_site_symmetry_2
O14 C54 1_555 1_555
O15 C54 1_555 1_555
C54 C55 1_555 1_555
C55 C56 1_555 1_555
C56 H29 1_555 1_555
C57 C56 1_555 1_555
H30 C57 1_555 1_555
C58 C53 1_555 1_555
C59 C58 1_555 1_555
C60 C55 1_555 1_555
H32 C60 1_555 1_555
Bi6 O14 1_555 1_555
O15 Bi6 1_555 1_555
C57 C58 1_555 1_555
C59 C60 1_555 1_555
C52 H28 1_555 1_555
O16 C61 1_555 1_555
O17 C61 1_555 1_555
C61 C62 1_555 1_555
C62 C63 1_555 1_555
C63 H33 1_555 1_555
C64 C63 1_555 1_555
H34 C64 1_555 1_555
C65 C64 1_555 1_555
C66 C65 1_555 1_555
H35 C66 1_555 1_555
C67 C62 1_555 1_555
H36 C67 1_555 1_555
Bi3 O16 1_555 1_555
C52 C68 1_555 1_555
O17 Bi3 1_555 1_555
C65 C68 1_555 1_555
C66 C67 1_555 1_555
O5 C18 1_555 1_555
O6 C18 1_555 1_555
C18 C19 1_555 1_555
C19 C20 1_555 1_555
C20 H10 1_555 1_555
C21 C20 1_555 1_555
H11 C21 1_555 1_555
C22 C21 1_555 1_555
C23 C22 1_555 1_555
H12 C23 1_555 1_555
C24 C19 1_555 1_555
H13 C24 1_555 1_555
C25 C22 1_555 1_555
C26 C25 1_555 1_555
H14 C26 1_555 1_555
Bi6 O5 1_555 1_555
O6 Bi6 1_555 1_555
C23 C24 1_555 1_555
O1 C1 1_555 1_555
C1 C2 1_555 1_555
C6 C5 1_555 1_555
H3 C6 1_555 1_555
C7 C2 1_555 1_555
H4 C7 1_555 1_555
H5 C9 1_555 1_555
H6 C13 1_555 1_555
C14 C13 1_555 1_555
H7 C14 1_555 1_555
C6 C7 1_555 1_555
Bi3 O3 1_555 1_555
O3 C11 1_555 1_555
O4 Bi3 1_555 1_555
C11 O4 1_555 1_555
C12 C11 1_555 1_555
C15 C10 1_555 1_555
C16 C15 1_555 1_555
H8 C16 1_555 1_555
C17 C12 1_555 1_555
H9 C17 1_555 1_555
O7 Bi3 1_555 1_555
O8 Bi3 1_555 1_555
C28 O7 1_555 1_555
C29 C28 1_555 1_555
C30 C29 1_555 1_555
H15 C30 1_555 1_555
C31 C30 1_555 1_555
H16 C31 1_555 1_555
C32 C27 1_555 1_555
C33 C32 1_555 1_555
C34 C29 1_555 1_555
H18 C34 1_555 1_555
C46 H24 1_555 1_555
C47 C46 1_555 1_555
H25 C47 1_555 1_555
C51 C10 1_555 1_555
C16 C17 1_555 1_555
O8 C28 1_555 1_555
C31 C32 1_555 1_555
C33 C34 1_555 1_555
O13 Bi7 1_555 1_555
C3 H1 1_555 1_555
C4 C3 1_555 1_555
H2 C4 1_555 1_555
C36 C8 1_555 1_555
O10 C37 1_555 1_555
O11 C37 1_555 1_555
C37 C38 1_555 1_555
C41 C36 1_555 1_555
C42 C41 1_555 1_555
H22 C42 1_555 1_555
C43 C38 1_555 1_555
H23 C43 1_555 1_555
Bi6 O10 1_555 1_555
O2 Bi4 1_555 1_555
O11 Bi6 1_555 1_555
C42 C43 1_555 1_555
C35 H19 1_555 1_555
C39 H20 1_555 1_555
C40 C39 1_555 1_555
H21 C40 1_555 1_555
O12 C44 1_555 1_555
C44 C45 1_555 1_555
C49 C48 1_555 1_555
H26 C49 1_555 1_555
C50 C45 1_555 1_555
H27 C50 1_555 1_555
C49 C50 1_555 1_555
O18_2 Bi7 1_555 1_555
O27 Bi7 1_555 1_555
O28 Bi7 1_555 1_555
H5_2 C9_2 1_555 1_555
C10_2 C9_2 1_555 1_555
O3_2 C11_2 1_555 1_555
C11_2 O4_2 1_555 1_555
C12_2 C11_2 1_555 1_555
C13_2 C12_2 1_555 1_555
H6_2 C13_2 1_555 1_555
C14_2 C13_2 1_555 1_555
H7_2 C14_2 1_555 1_555
C15_2 C10_2 1_555 1_555
C16_2 C15_2 1_555 1_555
H8_2 C16_2 1_555 1_555
C17_2 C12_2 1_555 1_555
H9_2 C17_2 1_555 1_555
O20 C44_2 1_555 1_555
O22 C44_2 1_555 1_555
C44_2 C45_2 1_555 1_555
C45_2 C46_2 1_555 1_555
C46_2 H24_2 1_555 1_555
C47_2 C46_2 1_555 1_555
C48_2 C47_2 1_555 1_555
C49_2 C48_2 1_555 1_555
H26_2 C49_2 1_555 1_555
C50_2 C45_2 1_555 1_555
H27_2 C50_2 1_555 1_555
C51_2 C10_2 1_555 1_555
C14_2 C15_2 1_555 1_555
C16_2 C17_2 1_555 1_555
C48_2 C51_2 1_555 1_555
C49_2 C50_2 1_555 1_555
O19 C1_2 1_555 1_555
O21 C1_2 1_555 1_555
C1_2 C2_2 1_555 1_555
C2_2 C3_2 1_555 1_555
C3_2 H1_2 1_555 1_555
C4_2 C3_2 1_555 1_555
C5_2 C4_2 1_555 1_555
C6_2 C5_2 1_555 1_555
H3_2 C6_2 1_555 1_555
C7_2 C2_2 1_555 1_555
H4_2 C7_2 1_555 1_555
C8_2 C5_2 1_555 1_555
C35_2 H19_2 1_555 1_555
C36_2 C8_2 1_555 1_555
O10_2 C37_2 1_555 1_555
O11_2 C37_2 1_555 1_555
C37_2 C38_2 1_555 1_555
C38_2 C39_2 1_555 1_555
C39_2 H20_2 1_555 1_555
C40_2 C39_2 1_555 1_555
H21_2 C40_2 1_555 1_555
C41_2 C36_2 1_555 1_555
C42_2 C41_2 1_555 1_555
H22_2 C42_2 1_555 1_555
C43_2 C38_2 1_555 1_555
H23_2 C43_2 1_555 1_555
C6_2 C7_2 1_555 1_555
C35_2 C36_2 1_555 1_555
C40_2 C41_2 1_555 1_555
C42_2 C43_2 1_555 1_555
O23 C18_2 1_555 1_555
O25 C18_2 1_555 1_555
C18_2 C19_2 1_555 1_555
C19_2 C20_2 1_555 1_555
C20_2 H10_2 1_555 1_555
C21_2 C20_2 1_555 1_555
H11_2 C21_2 1_555 1_555
C22_2 C21_2 1_555 1_555
C23_2 C22_2 1_555 1_555
H12_2 C23_2 1_555 1_555
C24_2 C19_2 1_555 1_555
H13_2 C24_2 1_555 1_555
C25_2 C22_2 1_555 1_555
C52_2 H28_2 1_555 1_555
C53_2 C25_2 1_555 1_555
O27 C54_2 1_555 1_555
O28 C54_2 1_555 1_555
C54_2 C55_2 1_555 1_555
C55_2 C56_2 1_555 1_555
C56_2 H29_2 1_555 1_555
C57_2 C56_2 1_555 1_555
H30_2 C57_2 1_555 1_555
C58_2 C53_2 1_555 1_555
C59_2 C58_2 1_555 1_555
H31_2 C59_2 1_555 1_555
C60_2 C55_2 1_555 1_555
H32_2 C60_2 1_555 1_555
C23_2 C24_2 1_555 1_555
C52_2 C53_2 1_555 1_555
C57_2 C58_2 1_555 1_555
C59_2 C60_2 1_555 1_555
H14_2 C26_2 1_555 1_555
C27_2 C26_2 1_555 1_555
O7_2 Bi4 1_555 1_555
O8_2 Bi4 1_555 1_555
C28_2 O7_2 1_555 1_555
C29_2 C28_2 1_555 1_555
C30_2 C29_2 1_555 1_555
H15_2 C30_2 1_555 1_555
C31_2 C30_2 1_555 1_555
H16_2 C31_2 1_555 1_555
C32_2 C27_2 1_555 1_555
C33_2 C32_2 1_555 1_555
H17_2 C33_2 1_555 1_555
C34_2 C29_2 1_555 1_555
H18_2 C34_2 1_555 1_555
O9_2 Bi4 1_555 1_555
O24 C61_2 1_555 1_555
O26 C61_2 1_555 1_555
C61_2 C62_2 1_555 1_555
C62_2 C63_2 1_555 1_555
C63_2 H33_2 1_555 1_555
C64_2 C63_2 1_555 1_555
H34_2 C64_2 1_555 1_555
C65_2 C64_2 1_555 1_555
C66_2 C65_2 1_555 1_555
H35_2 C66_2 1_555 1_555
C67_2 C62_2 1_555 1_555
H36_2 C67_2 1_555 1_555
C68_2 C27_2 1_555 1_555
O8_2 C28_2 1_555 1_555
C31_2 C32_2 1_555 1_555
C33_2 C34_2 1_555 1_555
C65_2 C68_2 1_555 1_555
C66_2 C67_2 1_555 1_555

#END
