
###############################################################################
#
# This file contains modified crystal structure data generated from the
# MOF subset of the Cambridge Structural Database (CSD) v543 
# hosted by the Cambridge Crystallographic Data Centre (CCDC).
#
# This work is licensed under the Creative Commons
# Attribution-NonCommercial-ShareAlike 4.0 International License.
# To view a copy of this license, visit
# http://creativecommons.org/licenses/by-nc-sa/4.0/
# or send a letter to
# Creative Commons, PO Box 1866, Mountain View, CA 94042, USA.
#
# CIF created using the CSD Python API on 29 September 2022
# The structure has been converted into the P1 space group
# The structure has a 3D framework
# The original CSD entry MIJSEF is in the triclinic crystal system
# The framework has been calculated to contain at least 10.0% void space
# The void calculation uses a probe of radius 1.32A, grid spacing 0.4
#
###############################################################################

data_MIJSEF
_chemical_formula_moiety         '(C28 H12 Ag2 Eu2 N4 O14)n'
_symmetry_cell_setting           triclinic
_symmetry_space_group_name_H-M   'P 1'
_symmetry_Int_Tables_number      1
_space_group_name_Hall           'P 1'
loop_
_symmetry_equiv_pos_site_id
_symmetry_equiv_pos_as_xyz
1 x,y,z
_cell_length_a                   7.235(3)
_cell_length_b                   10.370(5)
_cell_length_c                   11.560(5)
_cell_angle_alpha                99.736(3)
_cell_angle_beta                 100.996(5)
_cell_angle_gamma                95.670(5)
_cell_volume                     831.392
loop_
_atom_site_label
_atom_site_type_symbol
_atom_site_fract_x
_atom_site_fract_y
_atom_site_fract_z
N2 N 0.5404(15) 0.1788(11) 0.0658(9)
C11 C 0.365(2) 0.1698(13) 0.0882(11)
H5 H 0.3519 0.1926 0.1672
H6 H 0.0853 0.1244 0.0184
Ag4 Ag 0.79110(17) 0.25487(13) 0.20936(11)
Ag1 Ag 0.20890(17) 0.74513(13) 0.79064(11)
Eu1 Eu 0.24336(8) 0.02590(6) 0.43292(5)
N1 N 0.0080(17) 0.5701(11) 0.6961(11)
O2 O 0.2167(12) 0.2613(9) 0.5022(9)
O5 O 0.3079(12) 0.0630(9) 0.6473(7)
O6 O 0.6006(13) 0.0273(10) 0.7267(8)
C1 C 0.0544(18) 0.2418(12) 0.5217(11)
C3 C 0.0802(18) 0.4644(13) 0.6427(12)
H1 H 0.2112 0.4672 0.6528
C8 C 0.4361(18) 0.0591(12) 0.7323(12)
C9 C 0.4058(18) 0.0997(12) 0.8590(11)
C10 C 0.5575(18) 0.1433(14) 0.9513(12)
H4 H 0.6785 0.1488 0.9348
C12 C 0.2048(18) 0.1282(14) 0.9994(11)
C13 C 0.2223(18) 0.0919(12) 0.8810(12)
C14 C 0.0454(19) 0.0478(15) 0.7835(11)
N3 N 0.4596(15) 0.8212(11) 0.9342(9)
O10 O 0.5700(11) 0.1424(8) 0.5119(8)
O12 O 0.4388(14) 0.7369(9) 0.6297(9)
O15 O 0.0118(12) 0.0746(9) 0.2510(8)
Eu4 Eu 0.75664(8) 0.97410(6) 0.56708(5)
O9 O 0.0400(11) 0.8738(8) 0.5047(7)
O11 O 0.4300(11) 0.8576(8) 0.4881(8)
O13 O 0.3994(13) 0.9727(10) 0.2733(8)
O16 O 0.0320(12) 0.8658(9) 0.2603(8)
O1 O 0.9600(11) 0.1262(8) 0.4953(7)
O4 O 0.5612(14) 0.2631(9) 0.3703(9)
O8 O 0.9680(12) 0.1342(9) 0.7397(8)
C2 C 0.9619(16) 0.3516(12) 0.5731(11)
C4 C 0.8201(19) 0.5657(13) 0.6772(13)
H2 H 0.7706 0.6397 0.7094
C5 C 0.6948(18) 0.4574(12) 0.6123(12)
H3 H 0.5647 0.4576 0.6055
C6 C 0.7632(17) 0.3484(12) 0.5572(12)
C7 C 0.6241(16) 0.2432(12) 0.4716(11)
O14 O 0.9882(12) 0.9254(9) 0.7490(8)
C2_2 C 0.0381(16) 0.6484(12) 0.4269(11)
C4_2 C 0.1799(19) 0.4343(13) 0.3228(13)
H2_2 H 0.2294 0.3603 0.2906
C5_2 C 0.3052(18) 0.5426(12) 0.3877(12)
H3_2 H 0.4353 0.5424 0.3945
C6_2 C 0.2368(17) 0.6516(12) 0.4428(12)
C7_2 C 0.3759(16) 0.7568(12) 0.5284(11)
N1_2 N 0.9920(17) 0.4299(11) 0.3039(11)
O2_2 O 0.7833(12) 0.7387(9) 0.4978(9)
O5_2 O 0.6921(12) 0.9370(9) 0.3527(7)
C1_2 C 0.9456(18) 0.7582(12) 0.4783(11)
C3_2 C 0.9198(18) 0.5356(13) 0.3573(12)
H1_2 H 0.7888 0.5328 0.3472
C8_2 C 0.5639(18) 0.9409(12) 0.2677(12)
C9_2 C 0.5942(18) 0.9003(12) 0.1410(11)
C10_2 C 0.4425(18) 0.8567(14) 0.0487(12)
H4_2 H 0.3215 0.8512 0.0652
C12_2 C 0.7952(18) 0.8718(14) 0.0006(11)
C13_2 C 0.7777(18) 0.9081(12) 0.1190(12)
C14_2 C 0.9546(19) 0.9522(15) 0.2165(11)
C11_2 C 0.635(2) 0.8302(13) 0.9118(11)
H5_2 H 0.6481 0.8074 0.8328
H6_2 H 0.9147 0.8756 0.9816
loop_
_geom_bond_atom_site_label_1
_geom_bond_atom_site_label_2
_geom_bond_site_symmetry_1
_geom_bond_site_symmetry_2
C11 N2 1_555 1_555
H5 C11 1_555 1_555
Ag4 N2 1_555 1_555
Ag1 N1 1_555 1_555
N1 C3 1_555 1_555
O2 Eu1 1_555 1_555
O5 Eu1 1_555 1_555
O6 C8 1_555 1_555
C1 O2 1_555 1_555
H1 C3 1_555 1_555
C8 O5 1_555 1_555
C9 C8 1_555 1_555
C10 C9 1_555 1_555
H4 C10 1_555 1_555
C13 C9 1_555 1_555
C14 C13 1_555 1_555
N3 Ag1 1_555 1_555
O10 Eu1 1_555 1_555
O12 Ag1 1_555 1_555
O15 Eu1 1_555 1_555
C12 C13 1_555 1_555
Eu4 O11 1_555 1_555
O10 C7 1_555 1_555
O4 C7 1_555 1_555
H2 C4 1_555 1_555
C5 C4 1_555 1_555
H3 C5 1_555 1_555
C6 C2 1_555 1_555
C7 C6 1_555 1_555
Ag4 O4 1_555 1_555
C5 C6 1_555 1_555
O14 Eu4 1_555 1_555
O11 C7_2 1_555 1_555
O12 C7_2 1_555 1_555
H2_2 C4_2 1_555 1_555
C5_2 C4_2 1_555 1_555
H3_2 C5_2 1_555 1_555
C6_2 C2_2 1_555 1_555
C7_2 C6_2 1_555 1_555
C5_2 C6_2 1_555 1_555
Ag4 N1_2 1_555 1_555
N1_2 C3_2 1_555 1_555
O2_2 Eu4 1_555 1_555
O5_2 Eu4 1_555 1_555
O13 C8_2 1_555 1_555
C1_2 O2_2 1_555 1_555
H1_2 C3_2 1_555 1_555
C8_2 O5_2 1_555 1_555
C9_2 C8_2 1_555 1_555
C10_2 C9_2 1_555 1_555
H4_2 C10_2 1_555 1_555
C13_2 C9_2 1_555 1_555
C14_2 C13_2 1_555 1_555
C12_2 C13_2 1_555 1_555
C11_2 N3 1_555 1_555
H5_2 C11_2 1_555 1_555

#END
