
###############################################################################
#
# This file contains modified crystal structure data generated from the
# MOF subset of the Cambridge Structural Database (CSD) v543 
# hosted by the Cambridge Crystallographic Data Centre (CCDC).
#
# This work is licensed under the Creative Commons
# Attribution-NonCommercial-ShareAlike 4.0 International License.
# To view a copy of this license, visit
# http://creativecommons.org/licenses/by-nc-sa/4.0/
# or send a letter to
# Creative Commons, PO Box 1866, Mountain View, CA 94042, USA.
#
# CIF created using the CSD Python API on 29 September 2022
# The structure has been converted into the P1 space group
# The structure has a 3D framework
# The original CSD entry MIJYEK is in the orthorhombic crystal system
# The framework has been calculated to contain at least 10.0% void space
# The void calculation uses a probe of radius 1.32A, grid spacing 0.4
# H atom positions have been added when not included in the experimental data
#
###############################################################################

data_MIJYEK
_chemical_formula_moiety         '(C16 H16 La11 N6 O58)n'
_symmetry_cell_setting           triclinic
_symmetry_space_group_name_H-M   'P 1'
_symmetry_Int_Tables_number      1
_space_group_name_Hall           'P 1'
loop_
_symmetry_equiv_pos_site_id
_symmetry_equiv_pos_as_xyz
1 x,y,z
_cell_length_a                   18.929(4)
_cell_length_b                   6.5600(13)
_cell_length_c                   11.411(2)
_cell_angle_alpha                90
_cell_angle_beta                 90
_cell_angle_gamma                90
_cell_volume                     1416.95
loop_
_atom_site_label
_atom_site_type_symbol
_atom_site_fract_x
_atom_site_fract_y
_atom_site_fract_z
La5 La 0.419350(14) 0.25247(4) 0.0000
O13 O 0.29918(15) 0.1741(4) 0.1199(2)
O19 O 0.16014(17) 0.0793(5) 0.5000
O21 O 0.04541(18) 0.1372(5) 0.5000
La5_2 La 0.419350(14) 0.25247(4) 1.0000
O12 O 0.29918(15) 0.1741(4) 0.8801(2)
La1 La 0.247139(14) 0.86248(4) 0.0000
La2 La 0.080650(14) 0.75247(4) 0.5000
C1 C 0.20591(19) 0.7432(5) 0.2777(3)
C2 C 0.1397(2) 0.8546(5) 0.2298(3)
N1 N 0.3923(3) 0.7048(7) 0.0000
O1 O 0.25785(14) 0.7322(4) 0.2113(2)
O2 O 0.20082(15) 0.6741(4) 0.3801(2)
O3 O 0.14428(14) 0.9270(5) 0.1275(2)
O4 O 0.08688(14) 0.8680(5) 0.2936(2)
O5 O 0.3781(2) 0.8961(6) 0.0000
O6 O 0.33986(17) 0.5793(5) 0.0000
O7 O 0.45459(18) 0.6372(5) 0.0000
O8 O 0.1827(3) 0.5134(8) 0.0000
O9 O -0.0000 0.5000 0.6369(3)
La3 La 0.252861(14) 0.36248(4) 0.5000
La7 La 0.580650(14) 0.74753(4) 0.0000
O14 O 0.20082(15) 0.6741(4) 0.6199(2)
O17 O 0.08688(14) 0.8680(5) 0.7064(2)
O18 O 0.1219(2) 0.3961(6) 0.5000
O22 O -0.0000 0.5000 0.3631(3)
H1 H 0.142837 0.517501 0.0565192
La1_2 La 0.247139(14) 0.86248(4) 1.0000
N1_2 N 0.3923(3) 0.7048(7) 1.0000
O5_2 O 0.3781(2) 0.8961(6) 1.0000
O6_2 O 0.33986(17) 0.5793(5) 1.0000
O7_2 O 0.45459(18) 0.6372(5) 1.0000
O8_2 O 0.1827(3) 0.5134(8) 1.0000
La7_2 La 0.580650(14) 0.74753(4) 1.0000
C3 C 0.20591(19) 0.7432(5) 0.7223(3)
C4 C 0.1397(2) 0.8546(5) 0.7702(3)
O10 O 0.25785(14) 0.7322(4) 0.7887(2)
O15 O 0.14428(14) 0.9270(5) 0.8725(2)
H2 H 0.164258 0.484577 0.920236
O9_2 O 1.0000 0.5000 0.6369(3)
La8 La 0.919350(14) 0.24753(4) 0.5000
O20 O 0.95459(18) 0.8628(5) 0.5000
O22_2 O 1.0000 0.5000 0.3631(3)
La1_3 La 0.752861(14) 0.13752(4) 0.0000
C1_2 C 0.79409(19) 0.2568(5) 0.2777(3)
C2_2 C 0.8603(2) 0.1454(5) 0.2298(3)
N1_3 N 0.6077(3) 0.2952(7) 0.0000
O1_2 O 0.74215(14) 0.2678(4) 0.2113(2)
O2_2 O 0.79918(15) 0.3259(4) 0.3801(2)
O3_2 O 0.85572(14) 0.0730(5) 0.1275(2)
O4_2 O 0.91312(14) 0.1320(5) 0.2936(2)
O5_3 O 0.6219(2) 0.1039(6) 0.0000
O6_3 O 0.66014(17) 0.4207(5) 0.0000
O7_3 O 0.54541(18) 0.3628(5) 0.0000
O8_3 O 0.8173(3) 0.4866(8) 0.0000
La3_2 La 0.747139(14) 0.63752(4) 0.5000
O14_2 O 0.79918(15) 0.3259(4) 0.6199(2)
O17_2 O 0.91312(14) 0.1320(5) 0.7064(2)
O18_2 O 0.8781(2) 0.6039(6) 0.5000
H1_2 H 0.857163 0.482499 0.0565192
La1_4 La 0.752861(14) 0.13752(4) 1.0000
N1_4 N 0.6077(3) 0.2952(7) 1.0000
O5_4 O 0.6219(2) 0.1039(6) 1.0000
O6_4 O 0.66014(17) 0.4207(5) 1.0000
O7_4 O 0.54541(18) 0.3628(5) 1.0000
O8_4 O 0.8173(3) 0.4866(8) 1.0000
C3_2 C 0.79409(19) 0.2568(5) 0.7223(3)
C4_2 C 0.8603(2) 0.1454(5) 0.7702(3)
O10_2 O 0.74215(14) 0.2678(4) 0.7887(2)
O15_2 O 0.85572(14) 0.0730(5) 0.8725(2)
H2_2 H 0.835742 0.515423 0.920236
O13_2 O 0.70082(15) 0.8259(4) 0.1199(2)
O19_2 O 0.83986(17) 0.9207(5) 0.5000
O12_2 O 0.70082(15) 0.8259(4) 0.8801(2)
C1_3 C 0.29409(19) 0.2432(5) 0.2223(3)
C2_3 C 0.3603(2) 0.3546(5) 0.2702(3)
N1_5 N 0.1077(3) 0.2048(7) 0.5000
O1_3 O 0.24215(14) 0.2322(4) 0.2887(2)
O3_3 O 0.35572(14) 0.4270(5) 0.3725(2)
O4_3 O 0.41312(14) 0.3680(5) 0.2064(2)
O8_5 O 0.3173(3) 0.0134(8) 0.5000
C3_3 C 0.29409(19) 0.2432(5) 0.7777(3)
C4_3 C 0.3603(2) 0.3546(5) 0.7298(3)
O10_3 O 0.24215(14) 0.2322(4) 0.7113(2)
O15_3 O 0.35572(14) 0.4270(5) 0.6275(2)
O16 O 0.41312(14) 0.3680(5) 0.7936(2)
O22_3 O 0.5000 0.0000 0.1369(3)
H1_3 H 0.357163 0.0175005 0.443481
O9_3 O 0.5000 0.0000 0.8631(3)
O22_4 O 0.5000 1.0000 0.1369(3)
H2_3 H 0.335742 0.984577 0.579764
O9_4 O 0.5000 1.0000 0.8631(3)
H2_4 H 0.664258 0.0154232 0.579764
C1_4 C 0.70591(19) 0.7568(5) 0.2223(3)
C2_4 C 0.6397(2) 0.6454(5) 0.2702(3)
N1_6 N 0.8923(3) 0.7952(7) 0.5000
O1_4 O 0.75785(14) 0.7678(4) 0.2887(2)
O3_4 O 0.64428(14) 0.5730(5) 0.3725(2)
O4_4 O 0.58688(14) 0.6320(5) 0.2064(2)
O8_6 O 0.6827(3) 0.9866(8) 0.5000
C3_4 C 0.70591(19) 0.7568(5) 0.7777(3)
C4_4 C 0.6397(2) 0.6454(5) 0.7298(3)
O10_4 O 0.75785(14) 0.7678(4) 0.7113(2)
O15_4 O 0.64428(14) 0.5730(5) 0.6275(2)
O16_2 O 0.58688(14) 0.6320(5) 0.7936(2)
H1_4 H 0.642837 0.982499 0.443481
H2_5 H 0.835742 0.515423 0.0797635
H1_5 H 0.857163 0.482499 0.943481
H2_6 H 0.164258 0.484577 0.0797635
H1_6 H 0.142837 0.517501 0.943481
H2_7 H 0.664258 0.0154232 0.420236
H1_7 H 0.642837 0.982499 0.556519
H1_8 H 0.357163 0.0175005 0.556519
H2_8 H 0.335742 0.984577 0.420236
loop_
_geom_bond_atom_site_label_1
_geom_bond_atom_site_label_2
_geom_bond_site_symmetry_1
_geom_bond_site_symmetry_2
La5 O13 1_555 1_555
La5_2 O12 1_555 1_555
La1 O1 1_555 1_555
La2 O2 1_555 1_555
C1 C2 1_555 1_555
C2 O3 1_555 1_555
N1 O5 1_555 1_555
O1 C1 1_555 1_555
O2 C1 1_555 1_555
O3 La1 1_555 1_555
O4 La2 1_555 1_555
O5 La1 1_555 1_555
O6 La1 1_555 1_555
O7 N1 1_555 1_555
O8 La1 1_555 1_555
O9 La2 1_555 1_555
La3 O2 1_555 1_555
La5 O6 1_555 1_555
La7 O7 1_555 1_555
O14 La2 1_555 1_555
O17 La2 1_555 1_555
O18 La2 1_555 1_555
O22 La2 1_555 1_555
C2 O4 1_555 1_555
N1 O6 1_555 1_555
O7 La5 1_555 1_555
La3 O14 1_555 1_555
La3 O18 1_555 1_555
O8 H1 1_555 1_555
N1_2 O5_2 1_555 1_555
O5_2 La1_2 1_555 1_555
O6_2 La1_2 1_555 1_555
O7_2 N1_2 1_555 1_555
O8_2 La1_2 1_555 1_555
La5_2 O6_2 1_555 1_555
La7_2 O7_2 1_555 1_555
C3 C4 1_555 1_555
C4 O15 1_555 1_555
O10 La1_2 1_555 1_555
O14 C3 1_555 1_555
O15 La1_2 1_555 1_555
N1_2 O6_2 1_555 1_555
O7_2 La5_2 1_555 1_555
C3 O10 1_555 1_555
C4 O17 1_555 1_555
O8_2 H2 1_555 1_555
La8 O9_2 1_555 1_555
La8 O22_2 1_555 1_555
La1_3 O1_2 1_555 1_555
La8 O2_2 1_555 1_555
C1_2 C2_2 1_555 1_555
C2_2 O3_2 1_555 1_555
N1_3 O5_3 1_555 1_555
O1_2 C1_2 1_555 1_555
O2_2 C1_2 1_555 1_555
O3_2 La1_3 1_555 1_555
O4_2 La8 1_555 1_555
O5_3 La1_3 1_555 1_555
O6_3 La1_3 1_555 1_555
O7_3 N1_3 1_555 1_555
O8_3 La1_3 1_555 1_555
La3_2 O2_2 1_555 1_555
La7 O6_3 1_555 1_555
La5 O7_3 1_555 1_555
O14_2 La8 1_555 1_555
O17_2 La8 1_555 1_555
O18_2 La8 1_555 1_555
C2_2 O4_2 1_555 1_555
N1_3 O6_3 1_555 1_555
O7_3 La7 1_555 1_555
La3_2 O14_2 1_555 1_555
La3_2 O18_2 1_555 1_555
O8_3 H1_2 1_555 1_555
N1_4 O5_4 1_555 1_555
O5_4 La1_4 1_555 1_555
O6_4 La1_4 1_555 1_555
O7_4 N1_4 1_555 1_555
O8_4 La1_4 1_555 1_555
La7_2 O6_4 1_555 1_555
La5_2 O7_4 1_555 1_555
C3_2 C4_2 1_555 1_555
C4_2 O15_2 1_555 1_555
O10_2 La1_4 1_555 1_555
O14_2 C3_2 1_555 1_555
O15_2 La1_4 1_555 1_555
N1_4 O6_4 1_555 1_555
O7_4 La7_2 1_555 1_555
C3_2 O10_2 1_555 1_555
C4_2 O17_2 1_555 1_555
O8_4 H2_2 1_555 1_555
La7 O13_2 1_555 1_555
La7_2 O12_2 1_555 1_555
La3 O1_3 1_555 1_555
C1_3 C2_3 1_555 1_555
C2_3 O3_3 1_555 1_555
N1_5 O18 1_555 1_555
O1_3 C1_3 1_555 1_555
O13 C1_3 1_555 1_555
O3_3 La3 1_555 1_555
O4_3 La5 1_555 1_555
O19 La3 1_555 1_555
O21 N1_5 1_555 1_555
O8_5 La3 1_555 1_555
C3_3 C4_3 1_555 1_555
C4_3 O15_3 1_555 1_555
O10_3 La3 1_555 1_555
O12 C3_3 1_555 1_555
O15_3 La3 1_555 1_555
O16 La5_2 1_555 1_555
O22_3 La5 1_555 1_555
C2_3 O4_3 1_555 1_555
N1_5 O19 1_555 1_555
C3_3 O10_3 1_555 1_555
C4_3 O16 1_555 1_555
O8_5 H1_3 1_555 1_555
O9_3 La5_2 1_555 1_555
La7 O22_4 1_555 1_555
La7_2 O9_4 1_555 1_555
La3_2 O1_4 1_555 1_555
C1_4 C2_4 1_555 1_555
C2_4 O3_4 1_555 1_555
N1_6 O18_2 1_555 1_555
O1_4 C1_4 1_555 1_555
O13_2 C1_4 1_555 1_555
O3_4 La3_2 1_555 1_555
O4_4 La7 1_555 1_555
O19_2 La3_2 1_555 1_555
O20 N1_6 1_555 1_555
O8_6 La3_2 1_555 1_555
C3_4 C4_4 1_555 1_555
C4_4 O15_4 1_555 1_555
O10_4 La3_2 1_555 1_555
O12_2 C3_4 1_555 1_555
O15_4 La3_2 1_555 1_555
O16_2 La7_2 1_555 1_555
C2_4 O4_4 1_555 1_555
N1_6 O19_2 1_555 1_555
C3_4 O10_4 1_555 1_555
C4_4 O16_2 1_555 1_555
O8_6 H1_4 1_555 1_555
O8_3 H2_5 1_555 1_555
O8_4 H1_5 1_555 1_555
O8 H2_6 1_555 1_555
O8_2 H1_6 1_555 1_555
O8_6 H1_7 1_555 1_555
O8_5 H1_8 1_555 1_555

#END
