
###############################################################################
#
# This file contains modified crystal structure data generated from the
# MOF subset of the Cambridge Structural Database (CSD) v543 
# hosted by the Cambridge Crystallographic Data Centre (CCDC).
#
# This work is licensed under the Creative Commons
# Attribution-NonCommercial-ShareAlike 4.0 International License.
# To view a copy of this license, visit
# http://creativecommons.org/licenses/by-nc-sa/4.0/
# or send a letter to
# Creative Commons, PO Box 1866, Mountain View, CA 94042, USA.
#
# CIF created using the CSD Python API on 29 September 2022
# The structure has been converted into the P1 space group
# The structure has a 3D framework
# The original CSD entry MIKJEW is in the cubic crystal system
# The original CSD entry MIKJEW is in a Sohncke space group
# The framework has been calculated to contain at least 10.0% void space
# The void calculation uses a probe of radius 1.32A, grid spacing 0.4
# The framework is charged, counterions have been retained in the structure
#
###############################################################################

data_MIKJEW
_chemical_formula_moiety         '(C168 H96 Fe8 N24 Na4 O48 4-)n'
_symmetry_cell_setting           triclinic
_symmetry_space_group_name_H-M   'P 1'
_symmetry_Int_Tables_number      1
_space_group_name_Hall           'P 1'
loop_
_symmetry_equiv_pos_site_id
_symmetry_equiv_pos_as_xyz
1 x,y,z
_cell_length_a                   16.1087(10)
_cell_length_b                   16.1087(10)
_cell_length_c                   16.1087(10)
_cell_angle_alpha                90
_cell_angle_beta                 90
_cell_angle_gamma                90
_cell_volume                     4180.05
loop_
_atom_site_label
_atom_site_type_symbol
_atom_site_fract_x
_atom_site_fract_y
_atom_site_fract_z
C1 C 0.1233(2) 0.5774(2) 0.04956(19)
H1 H 0.1238 0.5224 0.0319
C2 C 0.12906(17) 0.71719(16) 0.02011(16)
C4 C 0.1255(2) 0.7399(2) 0.10388(18)
C6 C 0.1289(2) 0.8255(2) 0.1245(2)
H2 H 0.1263 0.8411 0.1800
C8 C 0.1178(2) 0.6750(3) 0.1620(2)
H4 H 0.1129 0.6868 0.2183
C9 C 0.1176(3) 0.5931(2) 0.1345(2)
H5 H 0.1137 0.5496 0.1722
C25 C 0.1358(2) 0.8846(2) 0.0658(2)
H13 H 0.1397 0.9401 0.0815
Fe1 Fe 0.12954(2) 0.62954(2) 0.87046(2)
N1 N 0.12208(13) 0.63166(14) 0.74786(13)
N2 N 0.12808(14) 0.63633(13) 0.99281(13)
C3 C 0.04188(16) 0.63234(17) 0.72071(16)
C5 C 0.0196(2) 0.63709(19) 0.63649(18)
C10 C 0.1813(2) 0.6346(2) 0.69122(18)
H6 H 0.2364 0.6318 0.7081
C11 C 0.0852(3) 0.6428(3) 0.57954(19)
H7 H 0.0738 0.6472 0.5231
C12 C 0.1633(3) 0.6419(3) 0.6054(2)
H8 H 0.2063 0.6461 0.5671
N3 N 0.25214(13) 0.62208(13) 0.86834(14)
N4 N 0.13166(14) 0.75214(13) 0.87792(13)
N5 N 0.00719(13) 0.62808(14) 0.86367(13)
N6 N 0.13633(13) 0.50719(13) 0.87192(14)
C13 C 0.0774(2) 0.45044(19) 0.8767(2)
H9 H 0.0224 0.4681 0.8762
C16 C 0.21719(16) 0.47989(16) 0.87094(17)
C17 C 0.27929(16) 0.54188(16) 0.86766(17)
C18 C 0.13234(17) 0.77929(16) 0.95812(16)
C19 C 0.2399(2) 0.39612(18) 0.8745(2)
C21 C 0.13709(19) 0.86351(18) 0.9804(2)
C22 C 0.36351(18) 0.5196(2) 0.86291(19)
C23 C 0.3255(2) 0.3755(2) 0.8711(2)
H11 H 0.3411 0.3200 0.8737
C26 C 0.3846(2) 0.4342(2) 0.8642(2)
H14 H 0.4401 0.4185 0.8603
C27 C 0.1750(3) 0.3380(2) 0.8822(2)
H15 H 0.1868 0.2817 0.8871
C29 C 0.0931(2) 0.3655(2) 0.8824(3)
H17 H 0.0496 0.3278 0.8863
C31 C 0.1346(2) 0.80878(18) 0.8187(2)
C32 C 0.30878(18) 0.6813(2) 0.8654(2)
H19 H 0.1318 0.7919 0.7636
H20 H 0.2919 0.7364 0.8682
C33 C 0.1428(3) 0.92046(19) 0.9148(3)
C34 C 0.42046(19) 0.5852(3) 0.8572(3)
H21 H 0.1472 0.9769 0.9262
H22 H 0.4769 0.5738 0.8528
C35 C 0.1419(3) 0.8946(2) 0.8367(3)
C36 C 0.3946(2) 0.6633(3) 0.8581(3)
H23 H 0.1461 0.9329 0.7937
H24 H 0.4329 0.7063 0.8539
C7 C 0.9342(2) 0.6358(2) 0.6154(2)
H3 H 0.9185 0.6397 0.5599
C14 C 0.95044(19) 0.6233(2) 0.9226(2)
H10 H 0.9681 0.6238 0.9776
C15 C 0.97989(16) 0.62906(17) 0.78281(16)
C20 C 0.89612(18) 0.6255(2) 0.7601(2)
C24 C 0.8755(2) 0.6289(2) 0.6745(2)
H12 H 0.8200 0.6263 0.6589
C28 C 0.8380(2) 0.6178(2) 0.8250(3)
H16 H 0.7817 0.6129 0.8132
C30 C 0.8655(2) 0.6176(3) 0.9069(2)
H18 H 0.8278 0.6137 0.9504
Fe1_2 Fe 0.37046(2) 0.37046(2) 0.37046(2)
N1_2 N 0.37792(13) 0.36834(14) 0.24786(13)
N2_2 N 0.37192(14) 0.36367(13) 0.49281(13)
C1_2 C 0.3767(2) 0.4226(2) 0.54956(19)
H1_2 H 0.3762 0.4776 0.5319
C2_2 C 0.37094(17) 0.28281(16) 0.52011(16)
C3_2 C 0.45812(16) 0.36766(17) 0.22071(16)
C4_2 C 0.3745(2) 0.2601(2) 0.60388(18)
C5_2 C 0.4804(2) 0.36291(19) 0.13649(18)
C6_2 C 0.3711(2) 0.1745(2) 0.6245(2)
H2_2 H 0.3737 0.1589 0.6800
C7_2 C 0.5658(2) 0.3642(2) 0.1154(2)
H3_2 H 0.5815 0.3603 0.0599
C8_2 C 0.3822(2) 0.3250(3) 0.6620(2)
H4_2 H 0.3871 0.3132 0.7183
C9_2 C 0.3824(3) 0.4069(2) 0.6345(2)
H5_2 H 0.3863 0.4504 0.6722
C10_2 C 0.3187(2) 0.3654(2) 0.19122(18)
H6_2 H 0.2636 0.3682 0.2081
C11_2 C 0.4148(3) 0.3572(3) 0.07954(19)
H7_2 H 0.4262 0.3528 0.0231
C12_2 C 0.3367(3) 0.3581(3) 0.1054(2)
H8_2 H 0.2937 0.3539 0.0671
N3_2 N 0.24786(13) 0.37792(13) 0.36834(14)
N4_2 N 0.36834(14) 0.24786(13) 0.37792(13)
N5_2 N 0.49281(13) 0.37192(14) 0.36367(13)
N6_2 N 0.36367(13) 0.49281(13) 0.37192(14)
C13_2 C 0.4226(2) 0.54956(19) 0.3767(2)
C14_2 C 0.54956(19) 0.3767(2) 0.4226(2)
H9_2 H 0.4776 0.5319 0.3762
H10_2 H 0.5319 0.3762 0.4776
C15_2 C 0.52011(16) 0.37094(17) 0.28281(16)
C16_2 C 0.28281(16) 0.52011(16) 0.37094(17)
C17_2 C 0.22071(16) 0.45812(16) 0.36766(17)
C18_2 C 0.36766(17) 0.22071(16) 0.45812(16)
C19_2 C 0.2601(2) 0.60388(18) 0.3745(2)
C20_2 C 0.60388(18) 0.3745(2) 0.2601(2)
C21_2 C 0.36291(19) 0.13649(18) 0.4804(2)
C22_2 C 0.13649(18) 0.4804(2) 0.36291(19)
C23_2 C 0.1745(2) 0.6245(2) 0.3711(2)
C24_2 C 0.6245(2) 0.3711(2) 0.1745(2)
H11_2 H 0.1589 0.6800 0.3737
H12_2 H 0.6800 0.3737 0.1589
C25_2 C 0.3642(2) 0.1154(2) 0.5658(2)
C26_2 C 0.1154(2) 0.5658(2) 0.3642(2)
H13_2 H 0.3603 0.0599 0.5815
H14_2 H 0.0599 0.5815 0.3603
C27_2 C 0.3250(3) 0.6620(2) 0.3822(2)
C28_2 C 0.6620(2) 0.3822(2) 0.3250(3)
H15_2 H 0.3132 0.7183 0.3871
H16_2 H 0.7183 0.3871 0.3132
C29_2 C 0.4069(2) 0.6345(2) 0.3824(3)
C30_2 C 0.6345(2) 0.3824(3) 0.4069(2)
H17_2 H 0.4504 0.6722 0.3863
H18_2 H 0.6722 0.3863 0.4504
C31_2 C 0.3654(2) 0.19122(18) 0.3187(2)
C32_2 C 0.19122(18) 0.3187(2) 0.3654(2)
H19_2 H 0.3682 0.2081 0.2636
H20_2 H 0.2081 0.2636 0.3682
C33_2 C 0.3572(3) 0.07954(19) 0.4148(3)
C34_2 C 0.07954(19) 0.4148(3) 0.3572(3)
H21_2 H 0.3528 0.0231 0.4262
H22_2 H 0.0231 0.4262 0.3528
C35_2 C 0.3581(3) 0.1054(2) 0.3367(3)
C36_2 C 0.1054(2) 0.3367(3) 0.3581(3)
H23_2 H 0.3539 0.0671 0.2937
H24_2 H 0.0671 0.2937 0.3539
C7_3 C 0.0658(2) 0.1358(2) 0.8846(2)
H3_3 H 0.0815 0.1397 0.9401
C14_3 C 0.04956(19) 0.1233(2) 0.5774(2)
H10_3 H 0.0319 0.1238 0.5224
C15_3 C 0.02011(16) 0.12906(17) 0.71719(16)
C20_3 C 0.10388(18) 0.1255(2) 0.7399(2)
C24_3 C 0.1245(2) 0.1289(2) 0.8255(2)
H12_3 H 0.1800 0.1263 0.8411
C28_3 C 0.1620(2) 0.1178(2) 0.6750(3)
H16_3 H 0.2183 0.1129 0.6868
C30_3 C 0.1345(2) 0.1176(3) 0.5931(2)
H18_3 H 0.1722 0.1137 0.5496
Fe1_3 Fe 0.87046(2) 0.12954(2) 0.62954(2)
N1_3 N 0.87792(13) 0.13166(14) 0.75214(13)
N2_3 N 0.87192(14) 0.13633(13) 0.50719(13)
C1_3 C 0.8767(2) 0.0774(2) 0.45044(19)
H1_3 H 0.8762 0.0224 0.4681
C2_3 C 0.87094(17) 0.21719(16) 0.47989(16)
C3_3 C 0.95812(16) 0.13234(17) 0.77929(16)
C4_3 C 0.8745(2) 0.2399(2) 0.39612(18)
C5_3 C 0.9804(2) 0.13709(19) 0.86351(18)
C6_3 C 0.8711(2) 0.3255(2) 0.3755(2)
H2_3 H 0.8737 0.3411 0.3200
C8_3 C 0.8822(2) 0.1750(3) 0.3380(2)
H4_3 H 0.8871 0.1868 0.2817
C9_3 C 0.8824(3) 0.0931(2) 0.3655(2)
H5_3 H 0.8863 0.0496 0.3278
C10_3 C 0.8187(2) 0.1346(2) 0.80878(18)
H6_3 H 0.7636 0.1318 0.7919
C11_3 C 0.9148(3) 0.1428(3) 0.92046(19)
H7_3 H 0.9262 0.1472 0.9769
C12_3 C 0.8367(3) 0.1419(3) 0.8946(2)
H8_3 H 0.7937 0.1461 0.9329
N3_3 N 0.74786(13) 0.12208(13) 0.63166(14)
N4_3 N 0.86834(14) 0.25214(13) 0.62208(13)
N5_3 N 0.99281(13) 0.12808(14) 0.63633(13)
N6_3 N 0.86367(13) 0.00719(13) 0.62808(14)
C17_3 C 0.72071(16) 0.04188(16) 0.63234(17)
C18_3 C 0.86766(17) 0.27929(16) 0.54188(16)
C21_3 C 0.86291(19) 0.36351(18) 0.5196(2)
C22_3 C 0.63649(18) 0.0196(2) 0.63709(19)
C25_3 C 0.8642(2) 0.3846(2) 0.4342(2)
H13_3 H 0.8603 0.4401 0.4185
C31_3 C 0.8654(2) 0.30878(18) 0.6813(2)
C32_3 C 0.69122(18) 0.1813(2) 0.6346(2)
H19_3 H 0.8682 0.2919 0.7364
H20_3 H 0.7081 0.2364 0.6318
C33_3 C 0.8572(3) 0.42046(19) 0.5852(3)
C34_3 C 0.57954(19) 0.0852(3) 0.6428(3)
H21_3 H 0.8528 0.4769 0.5738
H22_3 H 0.5231 0.0738 0.6472
C35_3 C 0.8581(3) 0.3946(2) 0.6633(3)
C36_3 C 0.6054(2) 0.1633(3) 0.6419(3)
H23_3 H 0.8539 0.4329 0.7063
H24_3 H 0.5671 0.2063 0.6461
C13_3 C 0.9226(2) 0.95044(19) 0.6233(2)
H9_3 H 0.9776 0.9681 0.6238
C16_3 C 0.78281(16) 0.97989(16) 0.62906(17)
C19_3 C 0.7601(2) 0.89612(18) 0.6255(2)
C23_3 C 0.6745(2) 0.8755(2) 0.6289(2)
H11_3 H 0.6589 0.8200 0.6263
C26_3 C 0.6154(2) 0.9342(2) 0.6358(2)
H14_3 H 0.5599 0.9185 0.6397
C27_3 C 0.8250(3) 0.8380(2) 0.6178(2)
H15_3 H 0.8132 0.7817 0.6129
C29_3 C 0.9069(2) 0.8655(2) 0.6176(3)
H17_3 H 0.9504 0.8278 0.6137
C13_4 C 0.5774(2) 0.04956(19) 0.1233(2)
H9_4 H 0.5224 0.0319 0.1238
C16_4 C 0.71719(16) 0.02011(16) 0.12906(17)
C19_4 C 0.7399(2) 0.10388(18) 0.1255(2)
C23_4 C 0.8255(2) 0.1245(2) 0.1289(2)
H11_4 H 0.8411 0.1800 0.1263
C26_4 C 0.8846(2) 0.0658(2) 0.1358(2)
H14_4 H 0.9401 0.0815 0.1397
C27_4 C 0.6750(3) 0.1620(2) 0.1178(2)
H15_4 H 0.6868 0.2183 0.1129
C29_4 C 0.5931(2) 0.1345(2) 0.1176(3)
H17_4 H 0.5496 0.1722 0.1137
Fe1_4 Fe 0.62954(2) 0.87046(2) 0.12954(2)
N1_4 N 0.62208(13) 0.86834(14) 0.25214(13)
N2_4 N 0.62808(14) 0.86367(13) 0.00719(13)
C3_4 C 0.54188(16) 0.86766(17) 0.27929(16)
C5_4 C 0.5196(2) 0.86291(19) 0.36351(18)
C7_4 C 0.4342(2) 0.8642(2) 0.3846(2)
H3_4 H 0.4185 0.8603 0.4401
C10_4 C 0.6813(2) 0.8654(2) 0.30878(18)
H6_4 H 0.7364 0.8682 0.2919
C11_4 C 0.5852(3) 0.8572(3) 0.42046(19)
H7_4 H 0.5738 0.8528 0.4769
C12_4 C 0.6633(3) 0.8581(3) 0.3946(2)
H8_4 H 0.7063 0.8539 0.4329
N3_4 N 0.75214(13) 0.87792(13) 0.13166(14)
N4_4 N 0.63166(14) 0.74786(13) 0.12208(13)
N5_4 N 0.50719(13) 0.87192(14) 0.13633(13)
N6_4 N 0.63633(13) 0.99281(13) 0.12808(14)
C14_4 C 0.45044(19) 0.8767(2) 0.0774(2)
H10_4 H 0.4681 0.8762 0.0224
C15_4 C 0.47989(16) 0.87094(17) 0.21719(16)
C17_4 C 0.77929(16) 0.95812(16) 0.13234(17)
C18_4 C 0.63234(17) 0.72071(16) 0.04188(16)
C20_4 C 0.39612(18) 0.8745(2) 0.2399(2)
C21_4 C 0.63709(19) 0.63649(18) 0.0196(2)
C22_4 C 0.86351(18) 0.9804(2) 0.13709(19)
C24_4 C 0.3755(2) 0.8711(2) 0.3255(2)
H12_4 H 0.3200 0.8737 0.3411
C28_4 C 0.3380(2) 0.8822(2) 0.1750(3)
H16_4 H 0.2817 0.8871 0.1868
C30_4 C 0.3655(2) 0.8824(3) 0.0931(2)
H18_4 H 0.3278 0.8863 0.0496
C31_4 C 0.6346(2) 0.69122(18) 0.1813(2)
C32_4 C 0.80878(18) 0.8187(2) 0.1346(2)
H19_4 H 0.6318 0.7081 0.2364
H20_4 H 0.7919 0.7636 0.1318
C33_4 C 0.6428(3) 0.57954(19) 0.0852(3)
C34_4 C 0.92046(19) 0.9148(3) 0.1428(3)
H21_4 H 0.6472 0.5231 0.0738
H22_4 H 0.9769 0.9262 0.1472
C35_4 C 0.6419(3) 0.6054(2) 0.1633(3)
C36_4 C 0.8946(2) 0.8367(3) 0.1419(3)
H23_4 H 0.6461 0.5671 0.2063
H24_4 H 0.9329 0.7937 0.1461
C1_4 C 0.6233(2) 0.9226(2) 0.95044(19)
H1_4 H 0.6238 0.9776 0.9681
C2_4 C 0.62906(17) 0.78281(16) 0.97989(16)
C4_4 C 0.6255(2) 0.7601(2) 0.89612(18)
C6_4 C 0.6289(2) 0.6745(2) 0.8755(2)
H2_4 H 0.6263 0.6589 0.8200
C8_4 C 0.6178(2) 0.8250(3) 0.8380(2)
H4_4 H 0.6129 0.8132 0.7817
C9_4 C 0.6176(3) 0.9069(2) 0.8655(2)
H5_4 H 0.6137 0.9504 0.8278
C25_4 C 0.6358(2) 0.6154(2) 0.9342(2)
H13_4 H 0.6397 0.5599 0.9185
O1 O 0.09675(18) 0.03629(16) 0.41045(16)
O3 O 0.1361(2) 0.14092(16) 0.32625(19)
C37 C 0.1193(3) 0.0702(2) 0.3399(2)
Na1 Na 0.16702(10) 0.16702(10) 0.16702(10)
O9 O 0.32625(19) 0.1361(2) 0.14092(16)
O12 O 0.14092(16) 0.32625(19) 0.1361(2)
C42 C 0.1253(2) 0.0046(2) 0.2684(3)
O14 O 0.14100(18) 0.02805(18) 0.1991(3)
O15 O 0.1991(3) 0.14100(18) 0.02805(18)
O16 O 0.02805(18) 0.1991(3) 0.14100(18)
C38 C 0.2684(3) 0.1253(2) 0.0046(2)
O5 O 0.41045(16) 0.09675(18) 0.03629(16)
C39 C 0.3399(2) 0.1193(3) 0.0702(2)
O6 O 0.03629(16) 0.41045(16) 0.09675(18)
C40 C 0.0702(2) 0.3399(2) 0.1193(3)
C41 C 0.0046(2) 0.2684(3) 0.1253(2)
Fe2 Fe 0.08847(3) 0.91153(3) 0.41153(3)
O2 O 0.20888(19) 0.88836(14) 0.42984(15)
C38_2 C 0.2316(3) 0.8747(2) 0.5046(2)
O4 O 0.3009(3) 0.85900(18) 0.52805(18)
O5_2 O 0.08955(16) 0.90325(18) 0.53629(16)
O7 O 0.07016(15) 0.79112(19) 0.38836(14)
O8 O 0.11164(14) 0.92984(15) 0.29112(19)
O10 O 0.17375(19) 0.8639(2) 0.64092(16)
C39_2 C 0.1601(2) 0.8807(3) 0.5702(2)
Na2 Na 0.33298(10) 0.83298(10) 0.66702(10)
O6_2 O 0.96371(16) 0.91045(16) 0.40325(18)
O11 O 0.85908(16) 0.82625(19) 0.3639(2)
C40_2 C 0.9298(2) 0.8399(2) 0.3807(3)
Na3 Na 0.83298(10) 0.66702(10) 0.33298(10)
C41_2 C 0.9954(2) 0.7684(3) 0.3747(2)
O13 O 0.97195(18) 0.6991(3) 0.35900(18)
Fe2_2 Fe 0.41153(3) 0.08847(3) 0.91153(3)
O2_2 O 0.29112(19) 0.11164(14) 0.92984(15)
O6_3 O 0.53629(16) 0.08955(16) 0.90325(18)
O7_2 O 0.42984(15) 0.20888(19) 0.88836(14)
O8_2 O 0.38836(14) 0.07016(15) 0.79112(19)
O11_2 O 0.64092(16) 0.17375(19) 0.8639(2)
C40_3 C 0.5702(2) 0.1601(2) 0.8807(3)
Na3_2 Na 0.66702(10) 0.33298(10) 0.83298(10)
C41_3 C 0.5046(2) 0.2316(3) 0.8747(2)
O13_2 O 0.52805(18) 0.3009(3) 0.85900(18)
O1_2 O 0.40325(18) 0.96371(16) 0.91045(16)
O3_2 O 0.3639(2) 0.85908(16) 0.82625(19)
C37_2 C 0.3807(3) 0.9298(2) 0.8399(2)
O12_2 O 0.35908(16) 0.67375(19) 0.6361(2)
C42_2 C 0.3747(2) 0.9954(2) 0.7684(3)
O14_2 O 0.35900(18) 0.97195(18) 0.6991(3)
O16_2 O 0.47195(18) 0.8009(3) 0.64100(18)
Fe2_3 Fe 0.91153(3) 0.41153(3) 0.08847(3)
O1_3 O 0.90325(18) 0.53629(16) 0.08955(16)
O2_3 O 0.79112(19) 0.38836(14) 0.07016(15)
O3_3 O 0.8639(2) 0.64092(16) 0.17375(19)
C37_3 C 0.8807(3) 0.5702(2) 0.1601(2)
O7_3 O 0.92984(15) 0.29112(19) 0.11164(14)
O8_3 O 0.88836(14) 0.42984(15) 0.20888(19)
O9_2 O 0.67375(19) 0.6361(2) 0.35908(16)
C42_3 C 0.8747(2) 0.5046(2) 0.2316(3)
O14_3 O 0.85900(18) 0.52805(18) 0.3009(3)
O15_2 O 0.8009(3) 0.64100(18) 0.47195(18)
C38_3 C 0.7684(3) 0.3747(2) 0.9954(2)
O4_2 O 0.6991(3) 0.35900(18) 0.97195(18)
O5_3 O 0.91045(16) 0.40325(18) 0.96371(16)
O10_2 O 0.82625(19) 0.3639(2) 0.85908(16)
C39_3 C 0.8399(2) 0.3807(3) 0.9298(2)
Fe2_4 Fe 0.58847(3) 0.58847(3) 0.58847(3)
O1_4 O 0.59675(18) 0.46371(16) 0.58955(16)
O2_4 O 0.70888(19) 0.61164(14) 0.57016(15)
O3_4 O 0.6361(2) 0.35908(16) 0.67375(19)
C37_4 C 0.6193(3) 0.4298(2) 0.6601(2)
C38_4 C 0.7316(3) 0.6253(2) 0.4954(2)
O5_4 O 0.58955(16) 0.59675(18) 0.46371(16)
O6_4 O 0.46371(16) 0.58955(16) 0.59675(18)
O7_4 O 0.57016(15) 0.70888(19) 0.61164(14)
O8_4 O 0.61164(14) 0.57016(15) 0.70888(19)
C39_4 C 0.6601(2) 0.6193(3) 0.4298(2)
C40_4 C 0.4298(2) 0.6601(2) 0.6193(3)
C41_4 C 0.4954(2) 0.7316(3) 0.6253(2)
C42_4 C 0.6253(2) 0.4954(2) 0.7316(3)
O14_4 O 0.64100(18) 0.47195(18) 0.8009(3)
loop_
_geom_bond_atom_site_label_1
_geom_bond_atom_site_label_2
_geom_bond_site_symmetry_1
_geom_bond_site_symmetry_2
H1 C1 1_555 1_555
C4 C2 1_555 1_555
C6 C4 1_555 1_555
H2 C6 1_555 1_555
C8 C4 1_555 1_555
H4 C8 1_555 1_555
C9 C1 1_555 1_555
H5 C9 1_555 1_555
C25 C6 1_555 1_555
H13 C25 1_555 1_555
C8 C9 1_555 1_555
Fe1 N1 1_555 1_555
N1 C3 1_555 1_555
N2 Fe1 1_555 1_555
C3 C5 1_555 1_555
C10 N1 1_555 1_555
H6 C10 1_555 1_555
C11 C5 1_555 1_555
H7 C11 1_555 1_555
C12 C10 1_555 1_555
H8 C12 1_555 1_555
N3 Fe1 1_555 1_555
N4 Fe1 1_555 1_555
N5 Fe1 1_555 1_555
N6 Fe1 1_555 1_555
C13 N6 1_555 1_555
H9 C13 1_555 1_555
C16 N6 1_555 1_555
C17 N3 1_555 1_555
C19 C16 1_555 1_555
C21 C18 1_555 1_555
C22 C17 1_555 1_555
C23 C19 1_555 1_555
H11 C23 1_555 1_555
C26 C22 1_555 1_555
H14 C26 1_555 1_555
C27 C19 1_555 1_555
H15 C27 1_555 1_555
C29 C13 1_555 1_555
H17 C29 1_555 1_555
C31 N4 1_555 1_555
C32 N3 1_555 1_555
H19 C31 1_555 1_555
H20 C32 1_555 1_555
C33 C21 1_555 1_555
C34 C22 1_555 1_555
H21 C33 1_555 1_555
H22 C34 1_555 1_555
C35 C31 1_555 1_555
C36 C32 1_555 1_555
H23 C35 1_555 1_555
H24 C36 1_555 1_555
C11 C12 1_555 1_555
N4 C18 1_555 1_555
C16 C17 1_555 1_555
C23 C26 1_555 1_555
C27 C29 1_555 1_555
C33 C35 1_555 1_555
C34 C36 1_555 1_555
C7 H3 1_555 1_555
H10 C14 1_555 1_555
C20 C15 1_555 1_555
C24 C7 1_555 1_555
H12 C24 1_555 1_555
C28 C20 1_555 1_555
H16 C28 1_555 1_555
C30 C14 1_555 1_555
H18 C30 1_555 1_555
C20 C24 1_555 1_555
C28 C30 1_555 1_555
Fe1_2 N1_2 1_555 1_555
N1_2 C3_2 1_555 1_555
N2_2 Fe1_2 1_555 1_555
C1_2 N2_2 1_555 1_555
H1_2 C1_2 1_555 1_555
C2_2 N2_2 1_555 1_555
C3_2 C5_2 1_555 1_555
C4_2 C2_2 1_555 1_555
C5_2 C7_2 1_555 1_555
C6_2 C4_2 1_555 1_555
H2_2 C6_2 1_555 1_555
C7_2 H3_2 1_555 1_555
C8_2 C4_2 1_555 1_555
H4_2 C8_2 1_555 1_555
C9_2 C1_2 1_555 1_555
H5_2 C9_2 1_555 1_555
C10_2 N1_2 1_555 1_555
H6_2 C10_2 1_555 1_555
C11_2 C5_2 1_555 1_555
H7_2 C11_2 1_555 1_555
C12_2 C10_2 1_555 1_555
H8_2 C12_2 1_555 1_555
N3_2 Fe1_2 1_555 1_555
N4_2 Fe1_2 1_555 1_555
N5_2 Fe1_2 1_555 1_555
N6_2 Fe1_2 1_555 1_555
C13_2 N6_2 1_555 1_555
C14_2 N5_2 1_555 1_555
H9_2 C13_2 1_555 1_555
H10_2 C14_2 1_555 1_555
C15_2 C3_2 1_555 1_555
C16_2 N6_2 1_555 1_555
C17_2 N3_2 1_555 1_555
C18_2 C2_2 1_555 1_555
C19_2 C16_2 1_555 1_555
C20_2 C15_2 1_555 1_555
C21_2 C18_2 1_555 1_555
C22_2 C17_2 1_555 1_555
C23_2 C19_2 1_555 1_555
C24_2 C7_2 1_555 1_555
H11_2 C23_2 1_555 1_555
H12_2 C24_2 1_555 1_555
C25_2 C6_2 1_555 1_555
C26_2 C22_2 1_555 1_555
H13_2 C25_2 1_555 1_555
H14_2 C26_2 1_555 1_555
C27_2 C19_2 1_555 1_555
C28_2 C20_2 1_555 1_555
H15_2 C27_2 1_555 1_555
H16_2 C28_2 1_555 1_555
C29_2 C13_2 1_555 1_555
C30_2 C14_2 1_555 1_555
H17_2 C29_2 1_555 1_555
H18_2 C30_2 1_555 1_555
C31_2 N4_2 1_555 1_555
C32_2 N3_2 1_555 1_555
H19_2 C31_2 1_555 1_555
H20_2 C32_2 1_555 1_555
C33_2 C21_2 1_555 1_555
C34_2 C22_2 1_555 1_555
H21_2 C33_2 1_555 1_555
H22_2 C34_2 1_555 1_555
C35_2 C31_2 1_555 1_555
C36_2 C32_2 1_555 1_555
H23_2 C35_2 1_555 1_555
H24_2 C36_2 1_555 1_555
C8_2 C9_2 1_555 1_555
C11_2 C12_2 1_555 1_555
N4_2 C18_2 1_555 1_555
N5_2 C15_2 1_555 1_555
C16_2 C17_2 1_555 1_555
C20_2 C24_2 1_555 1_555
C21_2 C25_2 1_555 1_555
C23_2 C26_2 1_555 1_555
C27_2 C29_2 1_555 1_555
C28_2 C30_2 1_555 1_555
C33_2 C35_2 1_555 1_555
C34_2 C36_2 1_555 1_555
C7_3 H3_3 1_555 1_555
H10_3 C14_3 1_555 1_555
C20_3 C15_3 1_555 1_555
C24_3 C7_3 1_555 1_555
H12_3 C24_3 1_555 1_555
C28_3 C20_3 1_555 1_555
H16_3 C28_3 1_555 1_555
C30_3 C14_3 1_555 1_555
H18_3 C30_3 1_555 1_555
C20_3 C24_3 1_555 1_555
C28_3 C30_3 1_555 1_555
Fe1_3 N1_3 1_555 1_555
N1_3 C3_3 1_555 1_555
N2_3 Fe1_3 1_555 1_555
C1_3 N2_3 1_555 1_555
H1_3 C1_3 1_555 1_555
C2_3 N2_3 1_555 1_555
C3_3 C5_3 1_555 1_555
C4_3 C2_3 1_555 1_555
C6_3 C4_3 1_555 1_555
H2_3 C6_3 1_555 1_555
C8_3 C4_3 1_555 1_555
H4_3 C8_3 1_555 1_555
C9_3 C1_3 1_555 1_555
H5_3 C9_3 1_555 1_555
C10_3 N1_3 1_555 1_555
H6_3 C10_3 1_555 1_555
C11_3 C5_3 1_555 1_555
H7_3 C11_3 1_555 1_555
C12_3 C10_3 1_555 1_555
H8_3 C12_3 1_555 1_555
N3_3 Fe1_3 1_555 1_555
N4_3 Fe1_3 1_555 1_555
N5_3 Fe1_3 1_555 1_555
N6_3 Fe1_3 1_555 1_555
C17_3 N3_3 1_555 1_555
C18_3 C2_3 1_555 1_555
C21_3 C18_3 1_555 1_555
C22_3 C17_3 1_555 1_555
C25_3 C6_3 1_555 1_555
H13_3 C25_3 1_555 1_555
C31_3 N4_3 1_555 1_555
C32_3 N3_3 1_555 1_555
H19_3 C31_3 1_555 1_555
H20_3 C32_3 1_555 1_555
C33_3 C21_3 1_555 1_555
C34_3 C22_3 1_555 1_555
H21_3 C33_3 1_555 1_555
H22_3 C34_3 1_555 1_555
C35_3 C31_3 1_555 1_555
C36_3 C32_3 1_555 1_555
H23_3 C35_3 1_555 1_555
H24_3 C36_3 1_555 1_555
C8_3 C9_3 1_555 1_555
C11_3 C12_3 1_555 1_555
N4_3 C18_3 1_555 1_555
C21_3 C25_3 1_555 1_555
C33_3 C35_3 1_555 1_555
C34_3 C36_3 1_555 1_555
H9_3 C13_3 1_555 1_555
C19_3 C16_3 1_555 1_555
C23_3 C19_3 1_555 1_555
H11_3 C23_3 1_555 1_555
H14_3 C26_3 1_555 1_555
C27_3 C19_3 1_555 1_555
H15_3 C27_3 1_555 1_555
C29_3 C13_3 1_555 1_555
H17_3 C29_3 1_555 1_555
C23_3 C26_3 1_555 1_555
C27_3 C29_3 1_555 1_555
H9_4 C13_4 1_555 1_555
C19_4 C16_4 1_555 1_555
C23_4 C19_4 1_555 1_555
H11_4 C23_4 1_555 1_555
H14_4 C26_4 1_555 1_555
C27_4 C19_4 1_555 1_555
H15_4 C27_4 1_555 1_555
C29_4 C13_4 1_555 1_555
H17_4 C29_4 1_555 1_555
C23_4 C26_4 1_555 1_555
C27_4 C29_4 1_555 1_555
Fe1_4 N1_4 1_555 1_555
N1_4 C3_4 1_555 1_555
N2_4 Fe1_4 1_555 1_555
C3_4 C5_4 1_555 1_555
C5_4 C7_4 1_555 1_555
C7_4 H3_4 1_555 1_555
C10_4 N1_4 1_555 1_555
H6_4 C10_4 1_555 1_555
C11_4 C5_4 1_555 1_555
H7_4 C11_4 1_555 1_555
C12_4 C10_4 1_555 1_555
H8_4 C12_4 1_555 1_555
N3_4 Fe1_4 1_555 1_555
N4_4 Fe1_4 1_555 1_555
N5_4 Fe1_4 1_555 1_555
N6_4 Fe1_4 1_555 1_555
C14_4 N5_4 1_555 1_555
H10_4 C14_4 1_555 1_555
C15_4 C3_4 1_555 1_555
C17_4 N3_4 1_555 1_555
C20_4 C15_4 1_555 1_555
C21_4 C18_4 1_555 1_555
C22_4 C17_4 1_555 1_555
C24_4 C7_4 1_555 1_555
H12_4 C24_4 1_555 1_555
C28_4 C20_4 1_555 1_555
H16_4 C28_4 1_555 1_555
C30_4 C14_4 1_555 1_555
H18_4 C30_4 1_555 1_555
C31_4 N4_4 1_555 1_555
C32_4 N3_4 1_555 1_555
H19_4 C31_4 1_555 1_555
H20_4 C32_4 1_555 1_555
C33_4 C21_4 1_555 1_555
C34_4 C22_4 1_555 1_555
H21_4 C33_4 1_555 1_555
H22_4 C34_4 1_555 1_555
C35_4 C31_4 1_555 1_555
C36_4 C32_4 1_555 1_555
H23_4 C35_4 1_555 1_555
H24_4 C36_4 1_555 1_555
C11_4 C12_4 1_555 1_555
N4_4 C18_4 1_555 1_555
N5_4 C15_4 1_555 1_555
C20_4 C24_4 1_555 1_555
C28_4 C30_4 1_555 1_555
C33_4 C35_4 1_555 1_555
C34_4 C36_4 1_555 1_555
H1_4 C1_4 1_555 1_555
C4_4 C2_4 1_555 1_555
C6_4 C4_4 1_555 1_555
H2_4 C6_4 1_555 1_555
C8_4 C4_4 1_555 1_555
H4_4 C8_4 1_555 1_555
C9_4 C1_4 1_555 1_555
H5_4 C9_4 1_555 1_555
C25_4 C6_4 1_555 1_555
H13_4 C25_4 1_555 1_555
C8_4 C9_4 1_555 1_555
O1 C37 1_555 1_555
O3 C37 1_555 1_555
C37 C42 1_555 1_555
Na1 O3 1_555 1_555
O9 Na1 1_555 1_555
O12 Na1 1_555 1_555
O14 Na1 1_555 1_555
O15 Na1 1_555 1_555
O16 Na1 1_555 1_555
C42 O14 1_555 1_555
O15 C38 1_555 1_555
O9 C39 1_555 1_555
C39 C38 1_555 1_555
O5 C39 1_555 1_555
O12 C40 1_555 1_555
C40 O6 1_555 1_555
C40 C41 1_555 1_555
C41 O16 1_555 1_555
O2 Fe2 1_555 1_555
C38_2 O2 1_555 1_555
O4 C38_2 1_555 1_555
O5_2 Fe2 1_555 1_555
O7 Fe2 1_555 1_555
O8 Fe2 1_555 1_555
O10 C39_2 1_555 1_555
C39_2 C38_2 1_555 1_555
Na2 O4 1_555 1_555
O5_2 C39_2 1_555 1_555
O10 Na2 1_555 1_555
O11 C40_2 1_555 1_555
C40_2 O6_2 1_555 1_555
Na3 O11 1_555 1_555
O13 Na3 1_555 1_555
C40_2 C41_2 1_555 1_555
C41_2 O13 1_555 1_555
O2_2 Fe2_2 1_555 1_555
O6_3 Fe2_2 1_555 1_555
O7_2 Fe2_2 1_555 1_555
O8_2 Fe2_2 1_555 1_555
O11_2 C40_3 1_555 1_555
C40_3 O6_3 1_555 1_555
Na3_2 O11_2 1_555 1_555
C41_3 O7_2 1_555 1_555
O13_2 Na3_2 1_555 1_555
C40_3 C41_3 1_555 1_555
C41_3 O13_2 1_555 1_555
O1_2 C37_2 1_555 1_555
O3_2 C37_2 1_555 1_555
C37_2 C42_2 1_555 1_555
Na2 O3_2 1_555 1_555
O12_2 Na2 1_555 1_555
O14_2 Na2 1_555 1_555
O16_2 Na2 1_555 1_555
C42_2 O14_2 1_555 1_555
Fe2_3 O1_3 1_555 1_555
O1_3 C37_3 1_555 1_555
O2_3 Fe2_3 1_555 1_555
O3_3 C37_3 1_555 1_555
C37_3 C42_3 1_555 1_555
Na3 O3_3 1_555 1_555
O7_3 Fe2_3 1_555 1_555
O8_3 Fe2_3 1_555 1_555
O9_2 Na3 1_555 1_555
C42_3 O8_3 1_555 1_555
O14_3 Na3 1_555 1_555
O15_2 Na3 1_555 1_555
C42_3 O14_3 1_555 1_555
O4_2 C38_3 1_555 1_555
O10_2 C39_3 1_555 1_555
C39_3 C38_3 1_555 1_555
Na3_2 O4_2 1_555 1_555
O5_3 C39_3 1_555 1_555
O10_2 Na3_2 1_555 1_555
Fe2_4 O1_4 1_555 1_555
O1_4 C37_4 1_555 1_555
O2_4 Fe2_4 1_555 1_555
O3_4 C37_4 1_555 1_555
C37_4 C42_4 1_555 1_555
Na3_2 O3_4 1_555 1_555
C38_4 O2_4 1_555 1_555
O15_2 C38_4 1_555 1_555
O5_4 Fe2_4 1_555 1_555
O6_4 Fe2_4 1_555 1_555
O7_4 Fe2_4 1_555 1_555
O8_4 Fe2_4 1_555 1_555
O9_2 C39_4 1_555 1_555
O12_2 C40_4 1_555 1_555
C39_4 C38_4 1_555 1_555
C40_4 O6_4 1_555 1_555
C41_4 O7_4 1_555 1_555
C42_4 O8_4 1_555 1_555
O14_4 Na3_2 1_555 1_555
O5_4 C39_4 1_555 1_555
C40_4 C41_4 1_555 1_555
C41_4 O16_2 1_555 1_555
C42_4 O14_4 1_555 1_555

#END
