
###############################################################################
#
# This file contains modified crystal structure data generated from the
# MOF subset of the Cambridge Structural Database (CSD) v543 
# hosted by the Cambridge Crystallographic Data Centre (CCDC).
#
# This work is licensed under the Creative Commons
# Attribution-NonCommercial-ShareAlike 4.0 International License.
# To view a copy of this license, visit
# http://creativecommons.org/licenses/by-nc-sa/4.0/
# or send a letter to
# Creative Commons, PO Box 1866, Mountain View, CA 94042, USA.
#
# CIF created using the CSD Python API on 29 September 2022
# The structure has been converted into the P1 space group
# The structure has a 3D framework
# The original CSD entry MILQIJ is in the triclinic crystal system
# The framework has been calculated to contain at least 10.0% void space
# The void calculation uses a probe of radius 1.32A, grid spacing 0.4
# H atom positions have been added when not included in the experimental data
#
###############################################################################

data_MILQIJ
_chemical_formula_moiety         '(C16 H20 Al6 O9)n'
_symmetry_cell_setting           triclinic
_symmetry_space_group_name_H-M   'P 1'
_symmetry_Int_Tables_number      1
_space_group_name_Hall           'P 1'
loop_
_symmetry_equiv_pos_site_id
_symmetry_equiv_pos_as_xyz
1 x,y,z
_cell_length_a                   6.61686(46)
_cell_length_b                   9.43004(62)
_cell_length_c                   9.46418(57)
_cell_angle_alpha                107.5773(37)
_cell_angle_beta                 107.7250(74)
_cell_angle_gamma                93.2088(49)
_cell_volume                     529.08
loop_
_atom_site_label
_atom_site_type_symbol
_atom_site_fract_x
_atom_site_fract_y
_atom_site_fract_z
_atom_site_U_iso_or_equiv
_atom_site_thermal_displace_type
Al5 Al 0 0.000 0 0.0065 Uiso
Al5_2 Al 0 0.000 1 0.0065 Uiso
Al5_3 Al 0 1.000 0 0.0065 Uiso
Al8 Al 0.5 0.000 0 0.0065 Uiso
O8 O 0.3617(17) 0.1044(23) 0.8453(17) 0.0152 Uiso
C13 C 0.1730(23) 0.1096(18) 0.76874(98) 0.0014 Uiso
C14 C 0.1192(24) 0.1533(16) 0.6253(14) 0.0014 Uiso
C15 C 0.2514(22) 0.0489(17) 0.5503(25) 0.0014 Uiso
O9 O 0.0375(16) 0.0885(23) 0.8330(13) 0.0152 Uiso
Al5_4 Al 0 1.000 1 0.0065 Uiso
Al8_2 Al 0.5 0.000 1 0.0065 Uiso
H15 H 0.381413 0.0295593 0.642066 . .
H16 H 0.318625 0.100629 0.482511 . .
H20 H 0.163834 0.272454 0.645303 . .
Al8_3 Al 0.5 1.000 0 0.0065 Uiso
C16 C 0.1182(22) 0.9071(18) 0.4475(25) 0.0014 Uiso
Al8_4 Al 0.5 1.000 1 0.0065 Uiso
H13 H 0.169032 0.884273 0.344752 . .
H14 H 0.177839 0.830623 0.510977 . .
Al5_5 Al 1 0.000 0 0.0065 Uiso
Al5_6 Al 1 0.000 1 0.0065 Uiso
Al5_7 Al 1 1.000 0 0.0065 Uiso
O2 O 0.4947(32) 0.1784(25) 0.1736(21) 0.0152 Uiso
O3 O 0.1796(25) 0.1704(25) 0.1664(21) 0.0152 Uiso
C1 C 0.3638(26) 0.2320(24) 0.2307(18) 0.0014 Uiso
C2 C 0.4431(21) 0.3470(18) 0.3933(16) 0.0014 Uiso
C3 C 0.6503(26) 0.4367(20) 0.3913(19) 0.0014 Uiso
C4 C 0.2794(25) 0.4388(19) 0.4467(18) 0.0014 Uiso
C8 C 0.8818(22) 0.0929(18) 0.5525(25) 0.0014 Uiso
O6 O 0.5053(32) 0.8216(25) 0.8264(21) 0.0152 Uiso
O7 O 0.8204(25) 0.8296(25) 0.8336(21) 0.0152 Uiso
C9 C 0.6362(26) 0.7680(24) 0.7693(18) 0.0014 Uiso
C10 C 0.5569(21) 0.6530(18) 0.6067(16) 0.0014 Uiso
C11 C 0.3497(26) 0.5633(20) 0.6087(19) 0.0014 Uiso
C12 C 0.7206(25) 0.5612(19) 0.5533(18) 0.0014 Uiso
Al5_8 Al 1 1.000 1 0.0065 Uiso
H1 H 0.612148 0.483632 0.296117 . .
H2 H 0.773105 0.365858 0.380936 . .
H4 H 0.152907 0.358504 0.444805 . .
H5 H 0.213243 0.492389 0.359427 . .
H6 H 0.498772 0.285671 0.474834 . .
H9 H 0.830968 0.115727 0.655248 . .
H10 H 0.822161 0.169377 0.489023 . .
H11 H 0.387852 0.516368 0.703883 . .
H12 H 0.226895 0.634142 0.619064 . .
H17 H 0.501228 0.714329 0.525166 . .
H18 H 0.847093 0.641496 0.555195 . .
H19 H 0.786757 0.507611 0.640573 . .
O11 O 0.7467(40) 0.0671(22) 0.9830(24) 0.0152 Uiso
O1 O 0.2533(40) 0.9329(22) 0.0170(24) 0.0152 Uiso
O4 O 0.9625(16) 0.9115(23) 0.1670(13) 0.0152 Uiso
O5 O 0.6383(17) 0.8956(23) 0.1547(17) 0.0152 Uiso
C5 C 0.8270(23) 0.8904(18) 0.23126(98) 0.0014 Uiso
C6 C 0.8808(24) 0.8467(16) 0.3747(14) 0.0014 Uiso
C7 C 0.7486(22) 0.9511(17) 0.4497(25) 0.0014 Uiso
H3 H 0.836166 0.727546 0.354697 . .
H7 H 0.681375 0.899371 0.517489 . .
H8 H 0.618587 0.970441 0.357934 . .
loop_
_geom_bond_atom_site_label_1
_geom_bond_atom_site_label_2
_geom_bond_site_symmetry_1
_geom_bond_site_symmetry_2
O8 C13 1_555 1_555
C13 C14 1_555 1_555
C15 C14 1_555 1_555
O9 C13 1_555 1_555
Al5_2 O9 1_555 1_555
Al8_2 O8 1_555 1_555
C15 H15 1_555 1_555
C15 H16 1_555 1_555
C14 H20 1_555 1_555
C16 H13 1_555 1_555
C16 H14 1_555 1_555
O2 Al8 1_555 1_555
O3 Al5 1_555 1_555
C1 O2 1_555 1_555
C2 C1 1_555 1_555
C3 C2 1_555 1_555
C4 C2 1_555 1_555
O6 C9 1_555 1_555
O7 C9 1_555 1_555
C9 C10 1_555 1_555
C10 C11 1_555 1_555
C11 C4 1_555 1_555
C12 C3 1_555 1_555
Al5_8 O7 1_555 1_555
Al8_4 O6 1_555 1_555
O3 C1 1_555 1_555
C10 C12 1_555 1_555
C3 H1 1_555 1_555
C3 H2 1_555 1_555
C4 H4 1_555 1_555
C4 H5 1_555 1_555
C2 H6 1_555 1_555
C8 H9 1_555 1_555
C8 H10 1_555 1_555
C11 H11 1_555 1_555
C11 H12 1_555 1_555
C10 H17 1_555 1_555
C12 H18 1_555 1_555
C12 H19 1_555 1_555
O11 Al8_2 1_555 1_555
Al5_6 O11 1_555 1_555
Al5_3 O1 1_555 1_555
Al8_3 O1 1_555 1_555
O4 C5 1_555 1_555
O5 Al8_3 1_555 1_555
C5 O5 1_555 1_555
C6 C5 1_555 1_555
C7 C6 1_555 1_555
Al5_7 O4 1_555 1_555
C6 H3 1_555 1_555
C7 H7 1_555 1_555
C7 H8 1_555 1_555

#END
