
###############################################################################
#
# This file contains modified crystal structure data generated from the
# MOF subset of the Cambridge Structural Database (CSD) v543 
# hosted by the Cambridge Crystallographic Data Centre (CCDC).
#
# This work is licensed under the Creative Commons
# Attribution-NonCommercial-ShareAlike 4.0 International License.
# To view a copy of this license, visit
# http://creativecommons.org/licenses/by-nc-sa/4.0/
# or send a letter to
# Creative Commons, PO Box 1866, Mountain View, CA 94042, USA.
#
# CIF created using the CSD Python API on 29 September 2022
# The structure has been converted into the P1 space group
# The structure has a 3D framework
# The original CSD entry MILROQ is in the tetragonal crystal system
# The framework has been calculated to contain at least 10.0% void space
# The void calculation uses a probe of radius 1.32A, grid spacing 0.4
# H atom positions have been added when not included in the experimental data
# Generated hydrogen atom positions removed from atoms on special positions
#
###############################################################################

data_MILROQ
_chemical_formula_moiety         '(C616 H632 Cu72 N104 O112)n'
_symmetry_cell_setting           triclinic
_symmetry_space_group_name_H-M   'P 1'
_symmetry_Int_Tables_number      1
_space_group_name_Hall           'P 1'
loop_
_symmetry_equiv_pos_site_id
_symmetry_equiv_pos_as_xyz
1 x,y,z
_cell_length_a                   39.705(6)
_cell_length_b                   39.705(6)
_cell_length_c                   27.201(4)
_cell_angle_alpha                90
_cell_angle_beta                 90
_cell_angle_gamma                90
_cell_volume                     42882
loop_
_atom_site_label
_atom_site_type_symbol
_atom_site_fract_x
_atom_site_fract_y
_atom_site_fract_z
Cu1 Cu 0.2500 0.2500 0.02358(9)
Cu2 Cu 0.2500 0.2500 0.12083(8)
Cu6 Cu 0.05929(4) 0.01573(4) 0.03144(8)
Cu7 Cu 0.01289(4) 0.06080(4) 0.10511(8)
O1 O 0.21505(15) 0.21537(16) 0.1139(3)
O2 O 0.21493(14) 0.21525(17) 0.0333(3)
C1 C 0.2043(3) 0.2061(2) 0.0767(6)
O5 O 0.2500 0.2500 0.2019(6)
C2 C 0.1383(2) 0.1443(2) 0.1145(5)
H1 H 0.1286 0.1368 0.1445
C3 C 0.1267(2) 0.1316(2) 0.0702(5)
C4 C 0.1413(3) 0.1427(3) 0.0267(4)
C5 C 0.1009(2) 0.1043(2) 0.0685(4)
C6 C 0.1645(2) 0.1682(2) 0.1151(4)
H3 H 0.1730 0.1760 0.1458
C7 C 0.1782(2) 0.1805(3) 0.0721(5)
C8 C 0.1662(3) 0.1676(3) 0.0282(5)
N2 N 0.0550(2) 0.0760(2) 0.0837(3)
N3 N 0.0725(2) 0.0592(2) 0.0499(3)
C9 C 0.0578(2) 0.1276(2) 0.1340(4)
H5 H 0.0332 0.1254 0.1349
H6 H 0.0637 0.1509 0.1254
H7 H 0.0672 0.1221 0.1663
C12 C 0.0721(2) 0.1038(2) 0.0958(4)
C14 C 0.1258(3) 0.0628(3) 0.0021(4)
H10 H 0.1294 0.0387 0.0081
H11 H 0.1473 0.0748 0.0047
C16 C 0.1013(2) 0.0766(2) 0.0399(3)
Cu8 Cu 0.50963(4) 0.51171(5) 0.07417(9)
Cu9 Cu 0.44071(4) 0.48427(4) 0.03144(8)
Cu10 Cu 0.48711(4) 0.43920(4) 0.10511(8)
O10 O 0.28495(15) 0.28463(16) 0.1139(3)
O11 O 0.28507(14) 0.28475(17) 0.0333(3)
O12 O 0.71387(12) 0.42957(18) 0.2736(3)
C42 C 0.2957(3) 0.2939(2) 0.0767(6)
O13 O 0.71484(17) 0.48572(19) 0.2797(4)
C43 C 0.3617(2) 0.3557(2) 0.1145(5)
H36 H 0.3714 0.3632 0.1445
C44 C 0.3733(2) 0.3684(2) 0.0702(5)
C45 C 0.3587(3) 0.3573(3) 0.0267(4)
C46 C 0.3991(2) 0.3957(2) 0.0685(4)
C47 C 0.3355(2) 0.3318(2) 0.1151(4)
H38 H 0.3270 0.3240 0.1458
C48 C 0.3218(2) 0.3195(3) 0.0721(5)
C49 C 0.3338(3) 0.3324(3) 0.0282(5)
N8 N 0.4450(2) 0.4240(2) 0.0837(3)
N9 N 0.4275(2) 0.4408(2) 0.0499(3)
N10 N 0.5282(2) 0.4549(2) 0.1255(3)
C50 C 0.4422(2) 0.3724(2) 0.1340(4)
H40 H 0.4668 0.3746 0.1349
H41 H 0.4363 0.3491 0.1254
H42 H 0.4328 0.3779 0.1663
C51 C 0.6565(3) 0.4319(2) 0.2094(4)
H43 H 0.6683 0.4111 0.2104
C53 C 0.4279(2) 0.3962(2) 0.0958(4)
C54 C 0.6212(3) 0.4932(3) 0.2121(5)
H44 H 0.6086 0.5136 0.2120
C55 C 0.3742(3) 0.4372(3) 0.0021(4)
H45 H 0.3706 0.4613 0.0081
H46 H 0.3527 0.4252 0.0047
C56 C 0.6520(3) 0.4909(3) 0.2352(5)
H48 H 0.6615 0.5099 0.2513
N11 N 0.4535(3) 0.5271(3) 0.0174(4)
C57 C 0.3987(2) 0.4234(2) 0.0399(3)
C58 C 0.6690(3) 0.4600(3) 0.2346(4)
C61 C 0.7031(3) 0.4595(4) 0.2660(5)
N12 N 0.5362(2) 0.4861(2) 0.1120(4)
N13 N 0.4824(3) 0.5376(3) 0.0367(4)
C64 C 0.5507(3) 0.4063(2) 0.1741(3)
H52 H 0.5275 0.4015 0.1841
H53 H 0.5656 0.4043 0.2027
H54 H 0.5577 0.3902 0.1488
C65 C 0.4888(2) 0.5709(3) 0.0273(3)
C67 C 0.5774(2) 0.4661(3) 0.1590(3)
C68 C 0.5528(2) 0.4418(2) 0.1537(3)
C70 C 0.5665(3) 0.4932(3) 0.1330(4)
C71 C 0.6269(3) 0.4346(3) 0.1830(5)
H58 H 0.6190 0.4171 0.1622
C72 C 0.4619(3) 0.5817(2) 0.0001(4)
C73 C 0.6094(3) 0.4645(3) 0.1890(4)
C76 C 0.5196(2) 0.5913(3) 0.0439(5)
H60 H 0.5322 0.5989 0.0150
H61 H 0.5341 0.5771 0.0643
H62 H 0.5121 0.6109 0.0629
C77 C 0.5828(3) 0.5270(3) 0.1256(4)
H63 H 0.5723 0.5383 0.0974
H64 H 0.6069 0.5239 0.1193
H65 H 0.5797 0.5407 0.1551
Cu12 Cu 0.44071(4) 0.01573(4) 0.03144(8)
Cu13 Cu 0.48711(4) 0.06080(4) 0.10511(8)
O16 O 0.28495(15) 0.21537(16) 0.1139(3)
O17 O 0.28507(14) 0.21525(17) 0.0333(3)
O18 O 0.71387(12) 0.07043(18) 0.2736(3)
C78 C 0.2957(3) 0.2061(2) 0.0767(6)
O19 O 0.71484(17) 0.01428(19) 0.2797(4)
C79 C 0.3617(2) 0.1443(2) 0.1145(5)
H66 H 0.3714 0.1368 0.1445
C80 C 0.3733(2) 0.1316(2) 0.0702(5)
C81 C 0.3587(3) 0.1427(3) 0.0267(4)
C82 C 0.3991(2) 0.1043(2) 0.0685(4)
C83 C 0.3355(2) 0.1682(2) 0.1151(4)
H68 H 0.3270 0.1760 0.1458
C84 C 0.3218(2) 0.1805(3) 0.0721(5)
C85 C 0.3338(3) 0.1676(3) 0.0282(5)
N14 N 0.4450(2) 0.0760(2) 0.0837(3)
N15 N 0.4275(2) 0.0592(2) 0.0499(3)
N16 N 0.5282(2) 0.0451(2) 0.1255(3)
C86 C 0.4422(2) 0.1276(2) 0.1340(4)
H70 H 0.4668 0.1254 0.1349
H71 H 0.4363 0.1509 0.1254
H72 H 0.4328 0.1221 0.1663
C87 C 0.6565(3) 0.0681(2) 0.2094(4)
H73 H 0.6683 0.0889 0.2104
C89 C 0.4279(2) 0.1038(2) 0.0958(4)
C90 C 0.6212(3) 0.0068(3) 0.2121(5)
C91 C 0.3742(3) 0.0628(3) 0.0021(4)
H75 H 0.3706 0.0387 0.0081
H76 H 0.3527 0.0748 0.0047
C92 C 0.6520(3) 0.0091(3) 0.2352(5)
C93 C 0.3987(2) 0.0766(2) 0.0399(3)
C94 C 0.6690(3) 0.0400(3) 0.2346(4)
C97 C 0.7031(3) 0.0405(4) 0.2660(5)
N18 N 0.5362(2) 0.0139(2) 0.1120(4)
C100 C 0.5507(3) 0.0937(2) 0.1741(3)
H82 H 0.5275 0.0985 0.1841
H83 H 0.5656 0.0957 0.2027
H84 H 0.5577 0.1098 0.1488
C103 C 0.5774(2) 0.0339(3) 0.1590(3)
C104 C 0.5528(2) 0.0582(2) 0.1537(3)
C106 C 0.5665(3) 0.0068(3) 0.1330(4)
C107 C 0.6269(3) 0.0654(3) 0.1830(5)
H88 H 0.6190 0.0829 0.1622
C109 C 0.6094(3) 0.0355(3) 0.1890(4)
Cu17 Cu 0.05929(4) 0.48427(4) 0.03144(8)
Cu18 Cu 0.01289(4) 0.43920(4) 0.10511(8)
O22 O 0.21505(15) 0.28463(16) 0.1139(3)
O23 O 0.21493(14) 0.28475(17) 0.0333(3)
C114 C 0.2043(3) 0.2939(2) 0.0767(6)
C115 C 0.1383(2) 0.3557(2) 0.1145(5)
H96 H 0.1286 0.3632 0.1445
C116 C 0.1267(2) 0.3684(2) 0.0702(5)
C117 C 0.1413(3) 0.3573(3) 0.0267(4)
C118 C 0.1009(2) 0.3957(2) 0.0685(4)
C119 C 0.1645(2) 0.3318(2) 0.1151(4)
H98 H 0.1730 0.3240 0.1458
C120 C 0.1782(2) 0.3195(3) 0.0721(5)
C121 C 0.1662(3) 0.3324(3) 0.0282(5)
N21 N 0.0550(2) 0.4240(2) 0.0837(3)
N22 N 0.0725(2) 0.4408(2) 0.0499(3)
C122 C 0.0578(2) 0.3724(2) 0.1340(4)
H100 H 0.0332 0.3746 0.1349
H101 H 0.0637 0.3491 0.1254
H102 H 0.0672 0.3779 0.1663
C125 C 0.0721(2) 0.3962(2) 0.0958(4)
C127 C 0.1258(3) 0.4372(3) 0.0021(4)
H105 H 0.1294 0.4613 0.0081
H106 H 0.1473 0.4252 0.0047
N24 N 0.0465(3) 0.5271(3) 0.0174(4)
C129 C 0.1013(2) 0.4234(2) 0.0399(3)
N26 N 0.0176(3) 0.5376(3) 0.0367(4)
C137 C 0.0112(2) 0.5709(3) 0.0273(3)
C147 C 0.0381(3) 0.5817(2) 0.0001(4)
Cu19 Cu 0.7500 0.01277(4) 0.32766(7)
Cu22 Cu 0.7500 0.48723(4) 0.32766(7)
Cu25 Cu 0.7500 0.07982(4) 0.32270(8)
Cu28 Cu 0.7500 0.42018(4) 0.32270(8)
H2 H 0.1343 0.1335 0.9961
H4 H 0.1753 0.1758 0.9981
O9 O 0.2500 0.2500 0.9373(6)
H12 H 0.1165 0.0659 0.9690
H37 H 0.3657 0.3665 0.9961
O14 O 0.42271(16) 0.71495(15) 0.8725(3)
O15 O 0.47787(18) 0.71562(15) 0.8749(3)
H39 H 0.3247 0.3242 0.9981
C52 C 0.4516(3) 0.6751(2) 0.9191(4)
H47 H 0.3835 0.4341 0.9690
C59 C 0.4817(3) 0.6596(3) 0.9327(5)
H49 H 0.5018 0.6716 0.9258
C60 C 0.4218(3) 0.6599(3) 0.9338(5)
H50 H 0.4003 0.6695 0.9276
C62 C 0.4504(3) 0.7041(2) 0.8866(4)
C63 C 0.4261(2) 0.6294(3) 0.9584(5)
H51 H 0.4059 0.6182 0.9675
C66 C 0.4067(3) 0.5486(2) 0.9690(4)
H55 H 0.4074 0.5272 0.9511
H56 H 0.4020 0.5670 0.9461
H57 H 0.3888 0.5476 0.9939
C69 C 0.4402(3) 0.5546(3) 0.9940(4)
C74 C 0.4855(3) 0.6284(3) 0.9550(5)
H59 H 0.5070 0.6182 0.9589
C75 C 0.4558(3) 0.6130(3) 0.9717(4)
H67 H 0.3657 0.1335 0.9961
H69 H 0.3247 0.1758 0.9981
H77 H 0.3835 0.0659 0.9690
H97 H 0.1343 0.3665 0.9961
O26 O 0.07729(16) 0.71495(15) 0.8725(3)
O27 O 0.02213(18) 0.71562(15) 0.8749(3)
H99 H 0.1753 0.3242 0.9981
C124 C 0.0484(3) 0.6751(2) 0.9191(4)
H107 H 0.1165 0.4341 0.9690
C131 C 0.0183(3) 0.6596(3) 0.9327(5)
C132 C 0.0782(3) 0.6599(3) 0.9338(5)
H110 H 0.0997 0.6695 0.9276
C134 C 0.0496(3) 0.7041(2) 0.8866(4)
C135 C 0.0739(2) 0.6294(3) 0.9584(5)
H111 H 0.0941 0.6182 0.9675
C138 C 0.0933(3) 0.5486(2) 0.9690(4)
H115 H 0.0926 0.5272 0.9511
H116 H 0.0980 0.5670 0.9461
H117 H 0.1112 0.5476 0.9939
C141 C 0.0598(3) 0.5546(3) 0.9940(4)
C149 C 0.0145(3) 0.6284(3) 0.9550(5)
C150 C 0.0442(3) 0.6130(3) 0.9717(4)
Cu21 Cu 0.48723(4) 0.7500 0.82766(7)
Cu24 Cu 0.01277(4) 0.7500 0.82766(7)
Cu27 Cu 0.42018(4) 0.7500 0.82270(8)
Cu30 Cu 0.07982(4) 0.7500 0.82270(8)
O6 O 0.07729(16) 0.78505(15) 0.8725(3)
O7 O 0.02213(18) 0.78438(15) 0.8749(3)
C11 C 0.0484(3) 0.8249(2) 0.9191(4)
C18 C 0.0183(3) 0.8404(3) 0.9327(5)
C19 C 0.0782(3) 0.8401(3) 0.9338(5)
H15 H 0.0997 0.8305 0.9276
C21 C 0.0496(3) 0.7959(2) 0.8866(4)
C22 C 0.0739(2) 0.8706(3) 0.9584(5)
H16 H 0.0941 0.8818 0.9675
C25 C 0.0933(3) 0.9514(2) 0.9690(4)
H20 H 0.0926 0.9728 0.9511
H21 H 0.0980 0.9330 0.9461
H22 H 0.1112 0.9524 0.9939
C28 C 0.0598(3) 0.9454(3) 0.9940(4)
C36 C 0.0145(3) 0.8716(3) 0.9550(5)
C37 C 0.0442(3) 0.8870(3) 0.9717(4)
O20 O 0.42271(16) 0.78505(15) 0.8725(3)
O21 O 0.47787(18) 0.78438(15) 0.8749(3)
C88 C 0.4516(3) 0.8249(2) 0.9191(4)
C95 C 0.4817(3) 0.8404(3) 0.9327(5)
H79 H 0.5018 0.8284 0.9258
C96 C 0.4218(3) 0.8401(3) 0.9338(5)
H80 H 0.4003 0.8305 0.9276
C98 C 0.4504(3) 0.7959(2) 0.8866(4)
C99 C 0.4261(2) 0.8706(3) 0.9584(5)
H81 H 0.4059 0.8818 0.9675
C102 C 0.4067(3) 0.9514(2) 0.9690(4)
H85 H 0.4074 0.9728 0.9511
H86 H 0.4020 0.9330 0.9461
H87 H 0.3888 0.9524 0.9939
C105 C 0.4402(3) 0.9454(3) 0.9940(4)
C110 C 0.4855(3) 0.8716(3) 0.9550(5)
H89 H 0.5070 0.8818 0.9589
C111 C 0.4558(3) 0.8870(3) 0.9717(4)
O3 O 0.78613(12) 0.07043(18) 0.2736(3)
O4 O 0.78516(17) 0.01428(19) 0.2797(4)
O8 O 0.7500 0.1378(3) 0.3113(4)
N4 N 0.9718(2) 0.0451(2) 0.1255(3)
C10 C 0.8435(3) 0.0681(2) 0.2094(4)
H8 H 0.8317 0.0889 0.2104
C13 C 0.8788(3) 0.0068(3) 0.2121(5)
C15 C 0.8480(3) 0.0091(3) 0.2352(5)
C17 C 0.8310(3) 0.0400(3) 0.2346(4)
C20 C 0.7969(3) 0.0405(4) 0.2660(5)
N6 N 0.9638(2) 0.0139(2) 0.1120(4)
C23 C 0.9493(3) 0.0937(2) 0.1741(3)
H17 H 0.9725 0.0985 0.1841
H18 H 0.9344 0.0957 0.2027
H19 H 0.9423 0.1098 0.1488
C26 C 0.9226(2) 0.0339(3) 0.1590(3)
C27 C 0.9472(2) 0.0582(2) 0.1537(3)
C29 C 0.9335(3) 0.0068(3) 0.1330(4)
C30 C 0.8731(3) 0.0654(3) 0.1830(5)
H23 H 0.8810 0.0829 0.1622
C35 C 0.8906(3) 0.0355(3) 0.1890(4)
Cu16 Cu 0.99037(4) 0.51171(5) 0.07417(9)
O24 O 0.78613(12) 0.42957(18) 0.2736(3)
O25 O 0.78516(17) 0.48572(19) 0.2797(4)
N20 N 0.7500 0.5423(2) 0.3331(3)
O28 O 0.7500 0.3622(3) 0.3113(4)
N23 N 0.9718(2) 0.4549(2) 0.1255(3)
C123 C 0.8435(3) 0.4319(2) 0.2094(4)
H103 H 0.8317 0.4111 0.2104
C126 C 0.8788(3) 0.4932(3) 0.2121(5)
H104 H 0.8914 0.5136 0.2120
C128 C 0.8480(3) 0.4909(3) 0.2352(5)
H108 H 0.8385 0.5099 0.2513
C130 C 0.8310(3) 0.4600(3) 0.2346(4)
C133 C 0.7969(3) 0.4595(4) 0.2660(5)
N25 N 0.9638(2) 0.4861(2) 0.1120(4)
C136 C 0.9493(3) 0.4063(2) 0.1741(3)
H112 H 0.9725 0.4015 0.1841
H113 H 0.9344 0.4043 0.2027
H114 H 0.9423 0.3902 0.1488
C139 C 0.9226(2) 0.4661(3) 0.1590(3)
C140 C 0.9472(2) 0.4418(2) 0.1537(3)
C142 C 0.9335(3) 0.4932(3) 0.1330(4)
C143 C 0.8731(3) 0.4346(3) 0.1830(5)
H118 H 0.8810 0.4171 0.1622
C144 C 0.7500 0.6119(2) 0.3462(5)
H119 H 0.7500 0.6357 0.3505
C145 C 0.78022(10) 0.5944(2) 0.3428(3)
H120 H 0.8010 0.6064 0.3450
C146 C 0.78019(14) 0.5598(2) 0.3364(2)
H121 H 0.8010 0.5479 0.3342
C148 C 0.8906(3) 0.4645(3) 0.1890(4)
C151 C 0.9804(2) 0.5913(3) 0.0439(5)
H123 H 0.9678 0.5989 0.0150
H124 H 0.9659 0.5771 0.0643
H125 H 0.9879 0.6109 0.0629
C152 C 0.9172(3) 0.5270(3) 0.1256(4)
H126 H 0.9277 0.5383 0.0974
H127 H 0.8931 0.5239 0.1193
H128 H 0.9203 0.5407 0.1551
C153 C 0.71978(10) 0.5944(2) 0.3428(3)
H129 H 0.6990 0.6064 0.3450
C154 C 0.71981(14) 0.5598(2) 0.3364(2)
H130 H 0.6990 0.5479 0.3342
O33 O 0.71495(15) 0.07729(16) 0.3725(3)
O34 O 0.78505(15) 0.42271(16) 0.3725(3)
O35 O 0.71495(15) 0.42271(16) 0.3725(3)
O36 O 0.78505(15) 0.07729(16) 0.3725(3)
O37 O 0.71562(15) 0.02213(18) 0.3749(3)
O38 O 0.78438(15) 0.47787(18) 0.3749(3)
O39 O 0.71562(15) 0.47787(18) 0.3749(3)
O40 O 0.78438(15) 0.02213(18) 0.3749(3)
Cu1_2 Cu 0.2500 0.2500 0.52358(9)
Cu2_2 Cu 0.2500 0.2500 0.62083(8)
Cu6_2 Cu 0.48427(4) 0.05929(4) 0.53144(8)
Cu7_2 Cu 0.43920(4) 0.01289(4) 0.60511(8)
O1_2 O 0.28463(16) 0.21505(15) 0.6139(3)
O2_2 O 0.28475(17) 0.21493(14) 0.5333(3)
C1_2 C 0.2939(2) 0.2043(3) 0.5767(6)
O5_2 O 0.2500 0.2500 0.7019(6)
C2_2 C 0.3557(2) 0.1383(2) 0.6145(5)
H1_2 H 0.3632 0.1286 0.6445
C3_2 C 0.3684(2) 0.1267(2) 0.5702(5)
C4_2 C 0.3573(3) 0.1413(3) 0.5267(4)
H2_2 H 0.3665 0.1343 0.4961
C5_2 C 0.3957(2) 0.1009(2) 0.5685(4)
C6_2 C 0.3318(2) 0.1645(2) 0.6151(4)
H3_2 H 0.3240 0.1730 0.6458
C7_2 C 0.3195(3) 0.1782(2) 0.5721(5)
C8_2 C 0.3324(3) 0.1662(3) 0.5282(5)
H4_2 H 0.3242 0.1753 0.4981
N2_2 N 0.4240(2) 0.0550(2) 0.5837(3)
N3_2 N 0.4408(2) 0.0725(2) 0.5499(3)
C9_2 C 0.3724(2) 0.0578(2) 0.6340(4)
H5_2 H 0.3746 0.0332 0.6349
H6_2 H 0.3491 0.0637 0.6254
H7_2 H 0.3779 0.0672 0.6663
C11_2 C 0.6751(2) 0.0484(3) 0.4191(4)
C12_2 C 0.3962(2) 0.0721(2) 0.5958(4)
O9_2 O 0.2500 0.2500 0.4373(6)
C14_2 C 0.4372(3) 0.1258(3) 0.5021(4)
H10_2 H 0.4613 0.1294 0.5081
H11_2 H 0.4252 0.1473 0.5047
H12_2 H 0.4341 0.1165 0.4690
N5 N 0.5271(3) 0.0465(3) 0.5174(4)
C16_2 C 0.4234(2) 0.1013(2) 0.5399(3)
C18_2 C 0.6596(3) 0.0183(3) 0.4327(5)
C19_2 C 0.6599(3) 0.0782(3) 0.4338(5)
H15_2 H 0.6695 0.0997 0.4276
C21_2 C 0.7041(2) 0.0496(3) 0.3866(4)
C22_2 C 0.6294(3) 0.0739(2) 0.4584(5)
H16_2 H 0.6182 0.0941 0.4675
N7 N 0.5376(3) 0.0176(3) 0.5367(4)
C24 C 0.5709(3) 0.0112(2) 0.5273(3)
C25_2 C 0.5486(2) 0.0933(3) 0.4690(4)
H20_2 H 0.5272 0.0926 0.4511
H21_2 H 0.5670 0.0980 0.4461
H22_2 H 0.5476 0.1112 0.4939
C28_2 C 0.5546(3) 0.0598(3) 0.4940(4)
C34 C 0.5817(2) 0.0381(3) 0.5001(4)
C36_2 C 0.6284(3) 0.0145(3) 0.4550(5)
C37_2 C 0.6130(3) 0.0442(3) 0.4717(4)
Cu9_2 Cu 0.01573(4) 0.44071(4) 0.53144(8)
Cu10_2 Cu 0.06080(4) 0.48711(4) 0.60511(8)
O10_2 O 0.21537(16) 0.28495(15) 0.6139(3)
O11_2 O 0.21525(17) 0.28507(14) 0.5333(3)
O12_2 O 0.07043(18) 0.71387(12) 0.7736(3)
C42_2 C 0.2061(2) 0.2957(3) 0.5767(6)
O13_2 O 0.01428(19) 0.71484(17) 0.7797(4)
C43_2 C 0.1443(2) 0.3617(2) 0.6145(5)
H36_2 H 0.1368 0.3714 0.6445
C44_2 C 0.1316(2) 0.3733(2) 0.5702(5)
C45_2 C 0.1427(3) 0.3587(3) 0.5267(4)
H37_2 H 0.1335 0.3657 0.4961
C46_2 C 0.1043(2) 0.3991(2) 0.5685(4)
C47_2 C 0.1682(2) 0.3355(2) 0.6151(4)
H38_2 H 0.1760 0.3270 0.6458
C48_2 C 0.1805(3) 0.3218(2) 0.5721(5)
C49_2 C 0.1676(3) 0.3338(3) 0.5282(5)
H39_2 H 0.1758 0.3247 0.4981
N8_2 N 0.0760(2) 0.4450(2) 0.5837(3)
N9_2 N 0.0592(2) 0.4275(2) 0.5499(3)
N10_2 N 0.0451(2) 0.5282(2) 0.6255(3)
C50_2 C 0.1276(2) 0.4422(2) 0.6340(4)
H40_2 H 0.1254 0.4668 0.6349
H41_2 H 0.1509 0.4363 0.6254
H42_2 H 0.1221 0.4328 0.6663
C51_2 C 0.0681(2) 0.6565(3) 0.7094(4)
H43_2 H 0.0889 0.6683 0.7104
C53_2 C 0.1038(2) 0.4279(2) 0.5958(4)
C54_2 C 0.0068(3) 0.6212(3) 0.7121(5)
C55_2 C 0.0628(3) 0.3742(3) 0.5021(4)
H45_2 H 0.0387 0.3706 0.5081
H46_2 H 0.0748 0.3527 0.5047
H47_2 H 0.0659 0.3835 0.4690
C56_2 C 0.0091(3) 0.6520(3) 0.7352(5)
C57_2 C 0.0766(2) 0.3987(2) 0.5399(3)
C58_2 C 0.0400(3) 0.6690(3) 0.7346(4)
C61_2 C 0.0405(4) 0.7031(3) 0.7660(5)
N12_2 N 0.0139(2) 0.5362(2) 0.6120(4)
C64_2 C 0.0937(2) 0.5507(3) 0.6741(3)
H52_2 H 0.0985 0.5275 0.6841
H53_2 H 0.0957 0.5656 0.7027
H54_2 H 0.1098 0.5577 0.6488
C67_2 C 0.0339(3) 0.5774(2) 0.6590(3)
C68_2 C 0.0582(2) 0.5528(2) 0.6537(3)
C70_2 C 0.0068(3) 0.5665(3) 0.6330(4)
C71_2 C 0.0654(3) 0.6269(3) 0.6830(5)
H58_2 H 0.0829 0.6190 0.6622
C73_2 C 0.0355(3) 0.6094(3) 0.6890(4)
Cu11 Cu 0.51171(5) 0.50963(4) 0.57417(9)
Cu12_2 Cu 0.48427(4) 0.44071(4) 0.53144(8)
Cu13_2 Cu 0.43920(4) 0.48711(4) 0.60511(8)
O16_2 O 0.28463(16) 0.28495(15) 0.6139(3)
O17_2 O 0.28475(17) 0.28507(14) 0.5333(3)
O18_2 O 0.42957(18) 0.71387(12) 0.7736(3)
C78_2 C 0.2939(2) 0.2957(3) 0.5767(6)
O19_2 O 0.48572(19) 0.71484(17) 0.7797(4)
C79_2 C 0.3557(2) 0.3617(2) 0.6145(5)
H66_2 H 0.3632 0.3714 0.6445
C80_2 C 0.3684(2) 0.3733(2) 0.5702(5)
C81_2 C 0.3573(3) 0.3587(3) 0.5267(4)
H67_2 H 0.3665 0.3657 0.4961
C82_2 C 0.3957(2) 0.3991(2) 0.5685(4)
C83_2 C 0.3318(2) 0.3355(2) 0.6151(4)
H68_2 H 0.3240 0.3270 0.6458
C84_2 C 0.3195(3) 0.3218(2) 0.5721(5)
C85_2 C 0.3324(3) 0.3338(3) 0.5282(5)
H69_2 H 0.3242 0.3247 0.4981
N14_2 N 0.4240(2) 0.4450(2) 0.5837(3)
N15_2 N 0.4408(2) 0.4275(2) 0.5499(3)
N16_2 N 0.4549(2) 0.5282(2) 0.6255(3)
C86_2 C 0.3724(2) 0.4422(2) 0.6340(4)
H70_2 H 0.3746 0.4668 0.6349
H71_2 H 0.3491 0.4363 0.6254
H72_2 H 0.3779 0.4328 0.6663
C87_2 C 0.4319(2) 0.6565(3) 0.7094(4)
H73_2 H 0.4111 0.6683 0.7104
C88_2 C 0.6751(2) 0.4516(3) 0.4191(4)
C89_2 C 0.3962(2) 0.4279(2) 0.5958(4)
C90_2 C 0.4932(3) 0.6212(3) 0.7121(5)
H74 H 0.5136 0.6086 0.7120
C91_2 C 0.4372(3) 0.3742(3) 0.5021(4)
H75_2 H 0.4613 0.3706 0.5081
H76_2 H 0.4252 0.3527 0.5047
H77_2 H 0.4341 0.3835 0.4690
C92_2 C 0.4909(3) 0.6520(3) 0.7352(5)
H78 H 0.5099 0.6615 0.7513
N17 N 0.5271(3) 0.4535(3) 0.5174(4)
C93_2 C 0.4234(2) 0.3987(2) 0.5399(3)
C94_2 C 0.4600(3) 0.6690(3) 0.7346(4)
C95_2 C 0.6596(3) 0.4817(3) 0.4327(5)
H79_2 H 0.6716 0.5018 0.4258
C96_2 C 0.6599(3) 0.4218(3) 0.4338(5)
H80_2 H 0.6695 0.4003 0.4276
C97_2 C 0.4595(4) 0.7031(3) 0.7660(5)
C98_2 C 0.7041(2) 0.4504(3) 0.3866(4)
C99_2 C 0.6294(3) 0.4261(2) 0.4584(5)
H81_2 H 0.6182 0.4059 0.4675
N18_2 N 0.4861(2) 0.5362(2) 0.6120(4)
N19 N 0.5376(3) 0.4824(3) 0.5367(4)
C100_2 C 0.4063(2) 0.5507(3) 0.6741(3)
H82_2 H 0.4015 0.5275 0.6841
H83_2 H 0.4043 0.5656 0.7027
H84_2 H 0.3902 0.5577 0.6488
C101 C 0.5709(3) 0.4888(2) 0.5273(3)
C102_2 C 0.5486(2) 0.4067(3) 0.4690(4)
H85_2 H 0.5272 0.4074 0.4511
H86_2 H 0.5670 0.4020 0.4461
H87_2 H 0.5476 0.3888 0.4939
C103_2 C 0.4661(3) 0.5774(2) 0.6590(3)
C104_2 C 0.4418(2) 0.5528(2) 0.6537(3)
C105_2 C 0.5546(3) 0.4402(3) 0.4940(4)
C106_2 C 0.4932(3) 0.5665(3) 0.6330(4)
C107_2 C 0.4346(3) 0.6269(3) 0.6830(5)
H88_2 H 0.4171 0.6190 0.6622
C108 C 0.5817(2) 0.4619(3) 0.5001(4)
C109_2 C 0.4645(3) 0.6094(3) 0.6890(4)
C110_2 C 0.6284(3) 0.4855(3) 0.4550(5)
H89_2 H 0.6182 0.5070 0.4589
C111_2 C 0.6130(3) 0.4558(3) 0.4717(4)
C112 C 0.5913(3) 0.5196(2) 0.5439(5)
H90 H 0.5989 0.5322 0.5150
H91 H 0.5771 0.5341 0.5643
H92 H 0.6109 0.5121 0.5629
C113 C 0.5270(3) 0.5828(3) 0.6256(4)
H93 H 0.5383 0.5723 0.5974
H94 H 0.5239 0.6069 0.6193
H95 H 0.5407 0.5797 0.6551
Cu17_2 Cu 0.01573(4) 0.05929(4) 0.53144(8)
Cu18_2 Cu 0.06080(4) 0.01289(4) 0.60511(8)
O22_2 O 0.21537(16) 0.21505(15) 0.6139(3)
O23_2 O 0.21525(17) 0.21493(14) 0.5333(3)
C114_2 C 0.2061(2) 0.2043(3) 0.5767(6)
C115_2 C 0.1443(2) 0.1383(2) 0.6145(5)
H96_2 H 0.1368 0.1286 0.6445
C116_2 C 0.1316(2) 0.1267(2) 0.5702(5)
C117_2 C 0.1427(3) 0.1413(3) 0.5267(4)
H97_2 H 0.1335 0.1343 0.4961
C118_2 C 0.1043(2) 0.1009(2) 0.5685(4)
C119_2 C 0.1682(2) 0.1645(2) 0.6151(4)
H98_2 H 0.1760 0.1730 0.6458
C120_2 C 0.1805(3) 0.1782(2) 0.5721(5)
C121_2 C 0.1676(3) 0.1662(3) 0.5282(5)
H99_2 H 0.1758 0.1753 0.4981
N21_2 N 0.0760(2) 0.0550(2) 0.5837(3)
N22_2 N 0.0592(2) 0.0725(2) 0.5499(3)
C122_2 C 0.1276(2) 0.0578(2) 0.6340(4)
H100_2 H 0.1254 0.0332 0.6349
H101_2 H 0.1509 0.0637 0.6254
H102_2 H 0.1221 0.0672 0.6663
C125_2 C 0.1038(2) 0.0721(2) 0.5958(4)
C127_2 C 0.0628(3) 0.1258(3) 0.5021(4)
H105_2 H 0.0387 0.1294 0.5081
H106_2 H 0.0748 0.1473 0.5047
H107_2 H 0.0659 0.1165 0.4690
C129_2 C 0.0766(2) 0.1013(2) 0.5399(3)
Cu5 Cu 0.51171(5) 0.99037(4) 0.57417(9)
O3_2 O 0.42957(18) 0.78613(12) 0.7736(3)
O4_2 O 0.48572(19) 0.78516(17) 0.7797(4)
N1 N 0.5423(2) 0.7500 0.8331(3)
O8_2 O 0.3622(3) 0.7500 0.8113(4)
N4_2 N 0.4549(2) 0.9718(2) 0.6255(3)
C10_2 C 0.4319(2) 0.8435(3) 0.7094(4)
H8_2 H 0.4111 0.8317 0.7104
C13_2 C 0.4932(3) 0.8788(3) 0.7121(5)
H9 H 0.5136 0.8914 0.7120
C15_2 C 0.4909(3) 0.8480(3) 0.7352(5)
H13 H 0.5099 0.8385 0.7513
C17_2 C 0.4600(3) 0.8310(3) 0.7346(4)
H14 H 0.6716 0.9982 0.4258
C20_2 C 0.4595(4) 0.7969(3) 0.7660(5)
N6_2 N 0.4861(2) 0.9638(2) 0.6120(4)
C23_2 C 0.4063(2) 0.9493(3) 0.6741(3)
H17_2 H 0.4015 0.9725 0.6841
H18_2 H 0.4043 0.9344 0.7027
H19_2 H 0.3902 0.9423 0.6488
C26_2 C 0.4661(3) 0.9226(2) 0.6590(3)
C27_2 C 0.4418(2) 0.9472(2) 0.6537(3)
C29_2 C 0.4932(3) 0.9335(3) 0.6330(4)
C30_2 C 0.4346(3) 0.8731(3) 0.6830(5)
H23_2 H 0.4171 0.8810 0.6622
C31 C 0.6119(2) 0.7500 0.8462(5)
H24 H 0.6357 0.7500 0.8505
C32 C 0.5944(2) 0.78022(10) 0.8428(3)
H25 H 0.6064 0.8010 0.8450
C33 C 0.5598(2) 0.78019(14) 0.8364(2)
H26 H 0.5479 0.8010 0.8342
C35_2 C 0.4645(3) 0.8906(3) 0.6890(4)
H27 H 0.6182 0.9930 0.4589
C38 C 0.5913(3) 0.9804(2) 0.5439(5)
H28 H 0.5989 0.9678 0.5150
H29 H 0.5771 0.9659 0.5643
H30 H 0.6109 0.9879 0.5629
C39 C 0.5270(3) 0.9172(3) 0.6256(4)
H31 H 0.5383 0.9277 0.5974
H32 H 0.5239 0.8931 0.6193
H33 H 0.5407 0.9203 0.6551
C40 C 0.5944(2) 0.71978(10) 0.8428(3)
H34 H 0.6064 0.6990 0.8450
C41 C 0.5598(2) 0.71981(14) 0.8364(2)
H35 H 0.5479 0.6990 0.8342
O24_2 O 0.07043(18) 0.78613(12) 0.7736(3)
O25_2 O 0.01428(19) 0.78516(17) 0.7797(4)
O28_2 O 0.1378(3) 0.7500 0.8113(4)
N23_2 N 0.0451(2) 0.9718(2) 0.6255(3)
C123_2 C 0.0681(2) 0.8435(3) 0.7094(4)
H103_2 H 0.0889 0.8317 0.7104
C126_2 C 0.0068(3) 0.8788(3) 0.7121(5)
C128_2 C 0.0091(3) 0.8480(3) 0.7352(5)
C130_2 C 0.0400(3) 0.8310(3) 0.7346(4)
C133_2 C 0.0405(4) 0.7969(3) 0.7660(5)
N25_2 N 0.0139(2) 0.9638(2) 0.6120(4)
C136_2 C 0.0937(2) 0.9493(3) 0.6741(3)
H112_2 H 0.0985 0.9725 0.6841
H113_2 H 0.0957 0.9344 0.7027
H114_2 H 0.1098 0.9423 0.6488
C139_2 C 0.0339(3) 0.9226(2) 0.6590(3)
C140_2 C 0.0582(2) 0.9472(2) 0.6537(3)
C142_2 C 0.0068(3) 0.9335(3) 0.6330(4)
C143_2 C 0.0654(3) 0.8731(3) 0.6830(5)
H118_2 H 0.0829 0.8810 0.6622
C148_2 C 0.0355(3) 0.8906(3) 0.6890(4)
Cu8_2 Cu 0.98829(5) 0.50963(4) 0.57417(9)
C52_2 C 0.8249(2) 0.4516(3) 0.4191(4)
H44_2 H 0.9864 0.6086 0.7120
H48_2 H 0.9901 0.6615 0.7513
N11_2 N 0.9729(3) 0.4535(3) 0.5174(4)
C59_2 C 0.8404(3) 0.4817(3) 0.4327(5)
H49_2 H 0.8284 0.5018 0.4258
C60_2 C 0.8401(3) 0.4218(3) 0.4338(5)
H50_2 H 0.8305 0.4003 0.4276
C62_2 C 0.7959(2) 0.4504(3) 0.3866(4)
C63_2 C 0.8706(3) 0.4261(2) 0.4584(5)
H51_2 H 0.8818 0.4059 0.4675
N13_2 N 0.9624(3) 0.4824(3) 0.5367(4)
C65_2 C 0.9291(3) 0.4888(2) 0.5273(3)
C66_2 C 0.9514(2) 0.4067(3) 0.4690(4)
H55_2 H 0.9728 0.4074 0.4511
H56_2 H 0.9330 0.4020 0.4461
H57_2 H 0.9524 0.3888 0.4939
C69_2 C 0.9454(3) 0.4402(3) 0.4940(4)
C72_2 C 0.9183(2) 0.4619(3) 0.5001(4)
C74_2 C 0.8716(3) 0.4855(3) 0.4550(5)
H59_2 H 0.8818 0.5070 0.4589
C75_2 C 0.8870(3) 0.4558(3) 0.4717(4)
C76_2 C 0.9087(3) 0.5196(2) 0.5439(5)
H60_2 H 0.9011 0.5322 0.5150
H61_2 H 0.9229 0.5341 0.5643
H62_2 H 0.8891 0.5121 0.5629
C77_2 C 0.9730(3) 0.5828(3) 0.6256(4)
H63_2 H 0.9617 0.5723 0.5974
H64_2 H 0.9761 0.6069 0.6193
H65_2 H 0.9593 0.5797 0.6551
C124_2 C 0.8249(2) 0.0484(3) 0.4191(4)
N24_2 N 0.9729(3) 0.0465(3) 0.5174(4)
C131_2 C 0.8404(3) 0.0183(3) 0.4327(5)
C132_2 C 0.8401(3) 0.0782(3) 0.4338(5)
H110_2 H 0.8305 0.0997 0.4276
C134_2 C 0.7959(2) 0.0496(3) 0.3866(4)
C135_2 C 0.8706(3) 0.0739(2) 0.4584(5)
H111_2 H 0.8818 0.0941 0.4675
N26_2 N 0.9624(3) 0.0176(3) 0.5367(4)
C137_2 C 0.9291(3) 0.0112(2) 0.5273(3)
C138_2 C 0.9514(2) 0.0933(3) 0.4690(4)
H115_2 H 0.9728 0.0926 0.4511
H116_2 H 0.9330 0.0980 0.4461
H117_2 H 0.9524 0.1112 0.4939
C141_2 C 0.9454(3) 0.0598(3) 0.4940(4)
C147_2 C 0.9183(2) 0.0381(3) 0.5001(4)
C149_2 C 0.8716(3) 0.0145(3) 0.4550(5)
C150_2 C 0.8870(3) 0.0442(3) 0.4717(4)
Cu16_2 Cu 0.98829(5) 0.99037(4) 0.57417(9)
N20_2 N 0.9577(2) 0.7500 0.8331(3)
H104_2 H 0.9864 0.8914 0.7120
H108_2 H 0.9901 0.8385 0.7513
H109 H 0.8284 0.9982 0.4258
C144_2 C 0.8881(2) 0.7500 0.8462(5)
H119_2 H 0.8643 0.7500 0.8505
C145_2 C 0.9056(2) 0.78022(10) 0.8428(3)
H120_2 H 0.8936 0.8010 0.8450
C146_2 C 0.9402(2) 0.78019(14) 0.8364(2)
H121_2 H 0.9521 0.8010 0.8342
H122 H 0.8818 0.9930 0.4589
C151_2 C 0.9087(3) 0.9804(2) 0.5439(5)
H123_2 H 0.9011 0.9678 0.5150
H124_2 H 0.9229 0.9659 0.5643
H125_2 H 0.8891 0.9879 0.5629
C152_2 C 0.9730(3) 0.9172(3) 0.6256(4)
H126_2 H 0.9617 0.9277 0.5974
H127_2 H 0.9761 0.8931 0.6193
H128_2 H 0.9593 0.9203 0.6551
C153_2 C 0.9056(2) 0.71978(10) 0.8428(3)
H129_2 H 0.8936 0.6990 0.8450
C154_2 C 0.9402(2) 0.71981(14) 0.8364(2)
H130_2 H 0.9521 0.6990 0.8342
N5_2 N 0.0465(3) 0.9729(3) 0.0174(4)
N7_2 N 0.0176(3) 0.9624(3) 0.0367(4)
C24_2 C 0.0112(2) 0.9291(3) 0.0273(3)
C34_2 C 0.0381(3) 0.9183(2) 0.0001(4)
Cu11_2 Cu 0.50963(4) 0.98829(5) 0.07417(9)
H74_2 H 0.6086 0.9864 0.2120
H78_2 H 0.6615 0.9901 0.2513
N17_2 N 0.4535(3) 0.9729(3) 0.0174(4)
N19_2 N 0.4824(3) 0.9624(3) 0.0367(4)
C101_2 C 0.4888(2) 0.9291(3) 0.0273(3)
C108_2 C 0.4619(3) 0.9183(2) 0.0001(4)
C112_2 C 0.5196(2) 0.9087(3) 0.0439(5)
H90_2 H 0.5322 0.9011 0.0150
H91_2 H 0.5341 0.9229 0.0643
H92_2 H 0.5121 0.8891 0.0629
C113_2 C 0.5828(3) 0.9730(3) 0.1256(4)
H93_2 H 0.5723 0.9617 0.0974
H94_2 H 0.6069 0.9761 0.1193
H95_2 H 0.5797 0.9593 0.1551
Cu5_2 Cu 0.99037(4) 0.98829(5) 0.07417(9)
N1_2 N 0.7500 0.9577(2) 0.3331(3)
H9_2 H 0.8914 0.9864 0.2120
H13_2 H 0.8385 0.9901 0.2513
C31_2 C 0.7500 0.8881(2) 0.3462(5)
H24_2 H 0.7500 0.8643 0.3505
C32_2 C 0.78022(10) 0.9056(2) 0.3428(3)
H25_2 H 0.8010 0.8936 0.3450
C33_2 C 0.78019(14) 0.9402(2) 0.3364(2)
H26_2 H 0.8010 0.9521 0.3342
C38_2 C 0.9804(2) 0.9087(3) 0.0439(5)
H28_2 H 0.9678 0.9011 0.0150
H29_2 H 0.9659 0.9229 0.0643
H30_2 H 0.9879 0.8891 0.0629
C39_2 C 0.9172(3) 0.9730(3) 0.1256(4)
H31_2 H 0.9277 0.9617 0.0974
H32_2 H 0.8931 0.9761 0.1193
H33_2 H 0.9203 0.9593 0.1551
C40_2 C 0.71978(10) 0.9056(2) 0.3428(3)
H34_2 H 0.6990 0.8936 0.3450
C41_2 C 0.71981(14) 0.9402(2) 0.3364(2)
H35_2 H 0.6990 0.9521 0.3342
H109_2 H 0.9982 0.6716 0.9258
H122_2 H 0.9930 0.6182 0.9589
H14_2 H 0.9982 0.8284 0.9258
H27_2 H 0.9930 0.8818 0.9589
H79_3 H 0.0018 0.1716 0.0742
H89_3 H 0.0070 0.1182 0.0411
Cu11_3 Cu 0.00963(4) 0.01171(5) 0.92583(9)
H74_3 H 0.1086 0.0136 0.7880
H78_3 H 0.1615 0.0099 0.7487
C112_3 C 0.0196(2) 0.0913(3) 0.9561(5)
H90_3 H 0.0322 0.0989 0.9850
H91_3 H 0.0341 0.0771 0.9357
H92_3 H 0.0121 0.1109 0.9371
C113_3 C 0.0828(3) 0.0270(3) 0.8744(4)
H93_3 H 0.0723 0.0383 0.9026
H94_3 H 0.1069 0.0239 0.8807
H95_3 H 0.0797 0.0407 0.8449
Cu5_3 Cu 0.49037(4) 0.01171(5) 0.92583(9)
N1_3 N 0.2500 0.0423(2) 0.6669(3)
H9_3 H 0.3914 0.0136 0.7880
H13_3 H 0.3385 0.0099 0.7487
N5_3 N 0.5465(3) 0.0271(3) 0.9826(4)
N7_3 N 0.5176(3) 0.0376(3) 0.9633(4)
C24_3 C 0.5112(2) 0.0709(3) 0.9727(3)
C31_3 C 0.2500 0.1119(2) 0.6538(5)
H24_3 H 0.2500 0.1357 0.6495
C32_3 C 0.28022(10) 0.0944(2) 0.6572(3)
H25_3 H 0.3010 0.1064 0.6550
C33_3 C 0.28019(14) 0.0598(2) 0.6636(2)
H26_3 H 0.3010 0.0479 0.6658
C34_3 C 0.5381(3) 0.0817(2) 0.9999(4)
C38_3 C 0.4804(2) 0.0913(3) 0.9561(5)
H28_3 H 0.4678 0.0989 0.9850
H29_3 H 0.4659 0.0771 0.9357
H30_3 H 0.4879 0.1109 0.9371
C39_3 C 0.4172(3) 0.0270(3) 0.8744(4)
H31_3 H 0.4277 0.0383 0.9026
H32_3 H 0.3931 0.0239 0.8807
H33_3 H 0.4203 0.0407 0.8449
C40_3 C 0.21978(10) 0.0944(2) 0.6572(3)
H34_3 H 0.1990 0.1064 0.6550
C41_3 C 0.21981(14) 0.0598(2) 0.6636(2)
H35_3 H 0.1990 0.0479 0.6658
N17_3 N 0.9535(3) 0.0271(3) 0.9826(4)
N19_3 N 0.9824(3) 0.0376(3) 0.9633(4)
C101_3 C 0.9888(2) 0.0709(3) 0.9727(3)
C108_3 C 0.9619(3) 0.0817(2) 0.9999(4)
H49_3 H 0.0018 0.3284 0.0742
H59_3 H 0.0070 0.3818 0.0411
Cu8_3 Cu 0.00963(4) 0.48829(5) 0.92583(9)
O12_3 O 0.21387(12) 0.57043(18) 0.7264(3)
O13_3 O 0.21484(17) 0.51428(19) 0.7203(4)
N10_3 N 0.0282(2) 0.5451(2) 0.8745(3)
C51_3 C 0.1565(3) 0.5681(2) 0.7906(4)
H43_3 H 0.1683 0.5889 0.7896
C54_3 C 0.1212(3) 0.5068(3) 0.7879(5)
H44_3 H 0.1086 0.4864 0.7880
C56_3 C 0.1520(3) 0.5091(3) 0.7648(5)
H48_3 H 0.1615 0.4901 0.7487
C58_3 C 0.1690(3) 0.5400(3) 0.7654(4)
C61_3 C 0.2031(3) 0.5405(4) 0.7340(5)
N12_3 N 0.0362(2) 0.5139(2) 0.8880(4)
C64_3 C 0.0507(3) 0.5937(2) 0.8259(3)
H52_3 H 0.0275 0.5985 0.8159
H53_3 H 0.0656 0.5957 0.7973
H54_3 H 0.0577 0.6098 0.8512
C67_3 C 0.0774(2) 0.5339(3) 0.8410(3)
C68_3 C 0.0528(2) 0.5582(2) 0.8463(3)
C70_3 C 0.0665(3) 0.5068(3) 0.8670(4)
C71_3 C 0.1269(3) 0.5654(3) 0.8170(5)
H58_3 H 0.1190 0.5829 0.8378
C73_3 C 0.1094(3) 0.5355(3) 0.8110(4)
C76_3 C 0.0196(2) 0.4087(3) 0.9561(5)
H60_3 H 0.0322 0.4011 0.9850
H61_3 H 0.0341 0.4229 0.9357
H62_3 H 0.0121 0.3891 0.9371
C77_3 C 0.0828(3) 0.4730(3) 0.8744(4)
H63_3 H 0.0723 0.4617 0.9026
H64_3 H 0.1069 0.4761 0.8807
H65_3 H 0.0797 0.4593 0.8449
O18_3 O 0.21387(12) 0.92957(18) 0.7264(3)
O19_3 O 0.21484(17) 0.98572(19) 0.7203(4)
N16_3 N 0.0282(2) 0.9549(2) 0.8745(3)
C87_3 C 0.1565(3) 0.9319(2) 0.7906(4)
H73_3 H 0.1683 0.9111 0.7896
C90_3 C 0.1212(3) 0.9932(3) 0.7879(5)
C92_3 C 0.1520(3) 0.9909(3) 0.7648(5)
C94_3 C 0.1690(3) 0.9600(3) 0.7654(4)
C97_3 C 0.2031(3) 0.9595(4) 0.7340(5)
N18_3 N 0.0362(2) 0.9861(2) 0.8880(4)
C100_3 C 0.0507(3) 0.9063(2) 0.8259(3)
H82_3 H 0.0275 0.9015 0.8159
H83_3 H 0.0656 0.9043 0.7973
H84_3 H 0.0577 0.8902 0.8512
C103_3 C 0.0774(2) 0.9661(3) 0.8410(3)
C104_3 C 0.0528(2) 0.9418(2) 0.8463(3)
C106_3 C 0.0665(3) 0.9932(3) 0.8670(4)
C107_3 C 0.1269(3) 0.9346(3) 0.8170(5)
H88_3 H 0.1190 0.9171 0.8378
C109_3 C 0.1094(3) 0.9645(3) 0.8110(4)
Cu19_2 Cu 0.2500 0.98723(4) 0.67234(7)
Cu22_2 Cu 0.2500 0.51277(4) 0.67234(7)
Cu25_2 Cu 0.2500 0.92018(4) 0.67730(8)
Cu28_2 Cu 0.2500 0.57982(4) 0.67730(8)
O6_2 O 0.57729(16) 0.21495(15) 0.1275(3)
O7_2 O 0.52213(18) 0.21562(15) 0.1251(3)
C11_3 C 0.5484(3) 0.1751(2) 0.0809(4)
C18_3 C 0.5183(3) 0.1596(3) 0.0673(5)
H14_3 H 0.4982 0.1716 0.0742
C19_3 C 0.5782(3) 0.1599(3) 0.0662(5)
H15_3 H 0.5997 0.1695 0.0724
C21_3 C 0.5496(3) 0.2041(2) 0.1134(4)
C22_3 C 0.5739(2) 0.1294(3) 0.0416(5)
H16_3 H 0.5941 0.1182 0.0325
C25_3 C 0.5933(3) 0.0486(2) 0.0310(4)
H20_3 H 0.5926 0.0272 0.0489
H21_3 H 0.5980 0.0670 0.0539
H22_3 H 0.6112 0.0476 0.0061
C28_3 C 0.5598(3) 0.0546(3) 0.0060(4)
C36_3 C 0.5145(3) 0.1284(3) 0.0450(5)
H27_3 H 0.4930 0.1182 0.0411
C37_3 C 0.5442(3) 0.1130(3) 0.0283(4)
O20_2 O 0.92271(16) 0.21495(15) 0.1275(3)
O21_2 O 0.97787(18) 0.21562(15) 0.1251(3)
C88_3 C 0.9516(3) 0.1751(2) 0.0809(4)
C95_3 C 0.9817(3) 0.1596(3) 0.0673(5)
C96_3 C 0.9218(3) 0.1599(3) 0.0662(5)
H80_3 H 0.9003 0.1695 0.0724
C98_3 C 0.9504(3) 0.2041(2) 0.1134(4)
C99_3 C 0.9261(2) 0.1294(3) 0.0416(5)
H81_3 H 0.9059 0.1182 0.0325
C102_3 C 0.9067(3) 0.0486(2) 0.0310(4)
H85_3 H 0.9074 0.0272 0.0489
H86_3 H 0.9020 0.0670 0.0539
H87_3 H 0.8888 0.0476 0.0061
C105_3 C 0.9402(3) 0.0546(3) 0.0060(4)
C110_3 C 0.9855(3) 0.1284(3) 0.0450(5)
C111_3 C 0.9558(3) 0.1130(3) 0.0283(4)
Cu20 Cu 0.98723(4) 0.2500 0.17234(7)
Cu23 Cu 0.51277(4) 0.2500 0.17234(7)
Cu26 Cu 0.92018(4) 0.2500 0.17730(8)
Cu29 Cu 0.57982(4) 0.2500 0.17730(8)
H2_3 H 0.6343 0.8665 0.0039
H4_3 H 0.6753 0.8242 0.0019
O9_3 O 0.7500 0.7500 0.0627(6)
H12_3 H 0.6165 0.9341 0.0310
H37_3 H 0.8657 0.6335 0.0039
O14_2 O 0.92271(16) 0.28505(15) 0.1275(3)
O15_2 O 0.97787(18) 0.28438(15) 0.1251(3)
H39_3 H 0.8247 0.6758 0.0019
C52_3 C 0.9516(3) 0.3249(2) 0.0809(4)
H47_3 H 0.8835 0.5659 0.0310
C59_3 C 0.9817(3) 0.3404(3) 0.0673(5)
C60_3 C 0.9218(3) 0.3401(3) 0.0662(5)
H50_3 H 0.9003 0.3305 0.0724
C62_3 C 0.9504(3) 0.2959(2) 0.1134(4)
C63_3 C 0.9261(2) 0.3706(3) 0.0416(5)
H51_3 H 0.9059 0.3818 0.0325
C66_3 C 0.9067(3) 0.4514(2) 0.0310(4)
H55_3 H 0.9074 0.4728 0.0489
H56_3 H 0.9020 0.4330 0.0539
H57_3 H 0.8888 0.4524 0.0061
C69_3 C 0.9402(3) 0.4454(3) 0.0060(4)
C74_3 C 0.9855(3) 0.3716(3) 0.0450(5)
C75_3 C 0.9558(3) 0.3870(3) 0.0283(4)
H67_3 H 0.8657 0.8665 0.0039
H69_3 H 0.8247 0.8242 0.0019
H77_3 H 0.8835 0.9341 0.0310
H97_3 H 0.6343 0.6335 0.0039
O26_2 O 0.57729(16) 0.28505(15) 0.1275(3)
O27_2 O 0.52213(18) 0.28438(15) 0.1251(3)
H99_3 H 0.6753 0.6758 0.0019
C124_3 C 0.5484(3) 0.3249(2) 0.0809(4)
H107_3 H 0.6165 0.5659 0.0310
C131_3 C 0.5183(3) 0.3404(3) 0.0673(5)
H109_3 H 0.4982 0.3284 0.0742
C132_3 C 0.5782(3) 0.3401(3) 0.0662(5)
H110_3 H 0.5997 0.3305 0.0724
C134_3 C 0.5496(3) 0.2959(2) 0.1134(4)
C135_3 C 0.5739(2) 0.3706(3) 0.0416(5)
H111_3 H 0.5941 0.3818 0.0325
C138_3 C 0.5933(3) 0.4514(2) 0.0310(4)
H115_3 H 0.5926 0.4728 0.0489
H116_3 H 0.5980 0.4330 0.0539
H117_3 H 0.6112 0.4524 0.0061
C141_3 C 0.5598(3) 0.4454(3) 0.0060(4)
C149_3 C 0.5145(3) 0.3716(3) 0.0450(5)
H122_3 H 0.4930 0.3818 0.0411
C150_3 C 0.5442(3) 0.3870(3) 0.0283(4)
Cu1_3 Cu 0.7500 0.7500 0.97642(9)
Cu2_3 Cu 0.7500 0.7500 0.87917(8)
Cu6_3 Cu 0.55929(4) 0.98427(4) 0.96856(8)
Cu7_3 Cu 0.51289(4) 0.93920(4) 0.89489(8)
O1_3 O 0.71505(15) 0.78463(16) 0.8861(3)
O2_3 O 0.71493(14) 0.78475(17) 0.9667(3)
O3_3 O 0.28613(12) 0.92957(18) 0.7264(3)
C1_3 C 0.7043(3) 0.7939(2) 0.9233(6)
O4_3 O 0.28516(17) 0.98572(19) 0.7203(4)
O5_3 O 0.7500 0.7500 0.7981(6)
C2_3 C 0.6383(2) 0.8557(2) 0.8855(5)
H1_3 H 0.6286 0.8632 0.8555
C3_3 C 0.6267(2) 0.8684(2) 0.9298(5)
C4_3 C 0.6413(3) 0.8573(3) 0.9733(4)
C5_3 C 0.6009(2) 0.8957(2) 0.9315(4)
O8_3 O 0.2500 0.8622(3) 0.6887(4)
C6_3 C 0.6645(2) 0.8318(2) 0.8849(4)
H3_3 H 0.6730 0.8240 0.8542
C7_3 C 0.6782(2) 0.8195(3) 0.9279(5)
C8_3 C 0.6662(3) 0.8324(3) 0.9718(5)
N2_3 N 0.5550(2) 0.9240(2) 0.9163(3)
N3_3 N 0.5725(2) 0.9408(2) 0.9501(3)
N4_3 N 0.4718(2) 0.9549(2) 0.8745(3)
C9_3 C 0.5578(2) 0.8724(2) 0.8660(4)
H5_3 H 0.5332 0.8746 0.8651
H6_3 H 0.5637 0.8491 0.8746
H7_3 H 0.5672 0.8779 0.8337
C10_3 C 0.3435(3) 0.9319(2) 0.7906(4)
H8_3 H 0.3317 0.9111 0.7896
C12_3 C 0.5721(2) 0.8962(2) 0.9042(4)
C13_3 C 0.3788(3) 0.9932(3) 0.7879(5)
C14_3 C 0.6258(3) 0.9372(3) 0.9979(4)
H10_3 H 0.6294 0.9613 0.9919
H11_3 H 0.6473 0.9252 0.9953
C15_3 C 0.3480(3) 0.9909(3) 0.7648(5)
C16_3 C 0.6013(2) 0.9234(2) 0.9601(3)
C17_3 C 0.3310(3) 0.9600(3) 0.7654(4)
C20_3 C 0.2969(3) 0.9595(4) 0.7340(5)
N6_3 N 0.4638(2) 0.9861(2) 0.8880(4)
C23_3 C 0.4493(3) 0.9063(2) 0.8259(3)
H17_3 H 0.4725 0.9015 0.8159
H18_3 H 0.4344 0.9043 0.7973
H19_3 H 0.4423 0.8902 0.8512
C26_3 C 0.4226(2) 0.9661(3) 0.8410(3)
C27_3 C 0.4472(2) 0.9418(2) 0.8463(3)
C29_3 C 0.4335(3) 0.9932(3) 0.8670(4)
C30_3 C 0.3731(3) 0.9346(3) 0.8170(5)
H23_3 H 0.3810 0.9171 0.8378
C35_3 C 0.3906(3) 0.9645(3) 0.8110(4)
Cu9_3 Cu 0.94071(4) 0.51573(4) 0.96856(8)
Cu10_3 Cu 0.98711(4) 0.56080(4) 0.89489(8)
O10_3 O 0.78495(15) 0.71537(16) 0.8861(3)
O11_3 O 0.78507(14) 0.71525(17) 0.9667(3)
C42_3 C 0.7957(3) 0.7061(2) 0.9233(6)
C43_3 C 0.8617(2) 0.6443(2) 0.8855(5)
H36_3 H 0.8714 0.6368 0.8555
C44_3 C 0.8733(2) 0.6316(2) 0.9298(5)
C45_3 C 0.8587(3) 0.6427(3) 0.9733(4)
C46_3 C 0.8991(2) 0.6043(2) 0.9315(4)
C47_3 C 0.8355(2) 0.6682(2) 0.8849(4)
H38_3 H 0.8270 0.6760 0.8542
C48_3 C 0.8218(2) 0.6805(3) 0.9279(5)
C49_3 C 0.8338(3) 0.6676(3) 0.9718(5)
N8_3 N 0.9450(2) 0.5760(2) 0.9163(3)
N9_3 N 0.9275(2) 0.5592(2) 0.9501(3)
C50_3 C 0.9422(2) 0.6276(2) 0.8660(4)
H40_3 H 0.9668 0.6254 0.8651
H41_3 H 0.9363 0.6509 0.8746
H42_3 H 0.9328 0.6221 0.8337
C53_3 C 0.9279(2) 0.6038(2) 0.9042(4)
C55_3 C 0.8742(3) 0.5628(3) 0.9979(4)
H45_3 H 0.8706 0.5387 0.9919
H46_3 H 0.8527 0.5748 0.9953
N11_3 N 0.9535(3) 0.4729(3) 0.9826(4)
C57_3 C 0.8987(2) 0.5766(2) 0.9601(3)
N13_3 N 0.9824(3) 0.4624(3) 0.9633(4)
C65_3 C 0.9888(2) 0.4291(3) 0.9727(3)
C72_3 C 0.9619(3) 0.4183(2) 0.9999(4)
Cu12_3 Cu 0.94071(4) 0.98427(4) 0.96856(8)
Cu13_3 Cu 0.98711(4) 0.93920(4) 0.89489(8)
O16_3 O 0.78495(15) 0.78463(16) 0.8861(3)
O17_3 O 0.78507(14) 0.78475(17) 0.9667(3)
C78_3 C 0.7957(3) 0.7939(2) 0.9233(6)
C79_3 C 0.8617(2) 0.8557(2) 0.8855(5)
H66_3 H 0.8714 0.8632 0.8555
C80_3 C 0.8733(2) 0.8684(2) 0.9298(5)
C81_3 C 0.8587(3) 0.8573(3) 0.9733(4)
C82_3 C 0.8991(2) 0.8957(2) 0.9315(4)
C83_3 C 0.8355(2) 0.8318(2) 0.8849(4)
H68_3 H 0.8270 0.8240 0.8542
C84_3 C 0.8218(2) 0.8195(3) 0.9279(5)
C85_3 C 0.8338(3) 0.8324(3) 0.9718(5)
N14_3 N 0.9450(2) 0.9240(2) 0.9163(3)
N15_3 N 0.9275(2) 0.9408(2) 0.9501(3)
C86_3 C 0.9422(2) 0.8724(2) 0.8660(4)
H70_3 H 0.9668 0.8746 0.8651
H71_3 H 0.9363 0.8491 0.8746
H72_3 H 0.9328 0.8779 0.8337
C89_3 C 0.9279(2) 0.8962(2) 0.9042(4)
C91_3 C 0.8742(3) 0.9372(3) 0.9979(4)
H75_3 H 0.8706 0.9613 0.9919
H76_3 H 0.8527 0.9252 0.9953
C93_3 C 0.8987(2) 0.9234(2) 0.9601(3)
Cu16_3 Cu 0.49037(4) 0.48829(5) 0.92583(9)
Cu17_3 Cu 0.55929(4) 0.51573(4) 0.96856(8)
Cu18_3 Cu 0.51289(4) 0.56080(4) 0.89489(8)
O22_3 O 0.71505(15) 0.71537(16) 0.8861(3)
O23_3 O 0.71493(14) 0.71525(17) 0.9667(3)
O24_3 O 0.28613(12) 0.57043(18) 0.7264(3)
C114_3 C 0.7043(3) 0.7061(2) 0.9233(6)
O25_3 O 0.28516(17) 0.51428(19) 0.7203(4)
N20_3 N 0.2500 0.4577(2) 0.6669(3)
C115_3 C 0.6383(2) 0.6443(2) 0.8855(5)
H96_3 H 0.6286 0.6368 0.8555
C116_3 C 0.6267(2) 0.6316(2) 0.9298(5)
C117_3 C 0.6413(3) 0.6427(3) 0.9733(4)
C118_3 C 0.6009(2) 0.6043(2) 0.9315(4)
O28_3 O 0.2500 0.6378(3) 0.6887(4)
C119_3 C 0.6645(2) 0.6682(2) 0.8849(4)
H98_3 H 0.6730 0.6760 0.8542
C120_3 C 0.6782(2) 0.6805(3) 0.9279(5)
C121_3 C 0.6662(3) 0.6676(3) 0.9718(5)
N21_3 N 0.5550(2) 0.5760(2) 0.9163(3)
N22_3 N 0.5725(2) 0.5592(2) 0.9501(3)
N23_3 N 0.4718(2) 0.5451(2) 0.8745(3)
C122_3 C 0.5578(2) 0.6276(2) 0.8660(4)
H100_3 H 0.5332 0.6254 0.8651
H101_3 H 0.5637 0.6509 0.8746
H102_3 H 0.5672 0.6221 0.8337
C123_3 C 0.3435(3) 0.5681(2) 0.7906(4)
H103_3 H 0.3317 0.5889 0.7896
C125_3 C 0.5721(2) 0.6038(2) 0.9042(4)
C126_3 C 0.3788(3) 0.5068(3) 0.7879(5)
H104_3 H 0.3914 0.4864 0.7880
C127_3 C 0.6258(3) 0.5628(3) 0.9979(4)
H105_3 H 0.6294 0.5387 0.9919
H106_3 H 0.6473 0.5748 0.9953
C128_3 C 0.3480(3) 0.5091(3) 0.7648(5)
H108_3 H 0.3385 0.4901 0.7487
N24_3 N 0.5465(3) 0.4729(3) 0.9826(4)
C129_3 C 0.6013(2) 0.5766(2) 0.9601(3)
C130_3 C 0.3310(3) 0.5400(3) 0.7654(4)
C133_3 C 0.2969(3) 0.5405(4) 0.7340(5)
N25_3 N 0.4638(2) 0.5139(2) 0.8880(4)
N26_3 N 0.5176(3) 0.4624(3) 0.9633(4)
C136_3 C 0.4493(3) 0.5937(2) 0.8259(3)
H112_3 H 0.4725 0.5985 0.8159
H113_3 H 0.4344 0.5957 0.7973
H114_3 H 0.4423 0.6098 0.8512
C137_3 C 0.5112(2) 0.4291(3) 0.9727(3)
C139_3 C 0.4226(2) 0.5339(3) 0.8410(3)
C140_3 C 0.4472(2) 0.5582(2) 0.8463(3)
C142_3 C 0.4335(3) 0.5068(3) 0.8670(4)
C143_3 C 0.3731(3) 0.5654(3) 0.8170(5)
H118_3 H 0.3810 0.5829 0.8378
C144_3 C 0.2500 0.3881(2) 0.6538(5)
H119_3 H 0.2500 0.3643 0.6495
C145_3 C 0.28022(10) 0.4056(2) 0.6572(3)
H120_3 H 0.3010 0.3936 0.6550
C146_3 C 0.28019(14) 0.4402(2) 0.6636(2)
H121_3 H 0.3010 0.4521 0.6658
C147_3 C 0.5381(3) 0.4183(2) 0.9999(4)
C148_3 C 0.3906(3) 0.5355(3) 0.8110(4)
C151_3 C 0.4804(2) 0.4087(3) 0.9561(5)
H123_3 H 0.4678 0.4011 0.9850
H124_3 H 0.4659 0.4229 0.9357
H125_3 H 0.4879 0.3891 0.9371
C152_3 C 0.4172(3) 0.4730(3) 0.8744(4)
H126_3 H 0.4277 0.4617 0.9026
H127_3 H 0.3931 0.4761 0.8807
H128_3 H 0.4203 0.4593 0.8449
C153_3 C 0.21978(10) 0.4056(2) 0.6572(3)
H129_3 H 0.1990 0.3936 0.6550
C154_3 C 0.21981(14) 0.4402(2) 0.6636(2)
H130_3 H 0.1990 0.4521 0.6658
O33_2 O 0.21495(15) 0.92271(16) 0.6275(3)
O34_2 O 0.28505(15) 0.57729(16) 0.6275(3)
O35_2 O 0.21495(15) 0.57729(16) 0.6275(3)
O36_2 O 0.28505(15) 0.92271(16) 0.6275(3)
O37_2 O 0.21562(15) 0.97787(18) 0.6251(3)
O38_2 O 0.28438(15) 0.52213(18) 0.6251(3)
O39_2 O 0.21562(15) 0.52213(18) 0.6251(3)
O40_2 O 0.28438(15) 0.97787(18) 0.6251(3)
Cu8_4 Cu 0.01171(5) 0.00963(4) 0.42583(9)
H44_4 H 0.0136 0.1086 0.2880
H48_4 H 0.0099 0.1615 0.2487
H49_4 H 0.1716 0.0018 0.5742
H59_4 H 0.1182 0.0070 0.5411
C76_4 C 0.0913(3) 0.0196(2) 0.4561(5)
H60_4 H 0.0989 0.0322 0.4850
H61_4 H 0.0771 0.0341 0.4357
H62_4 H 0.1109 0.0121 0.4371
C77_4 C 0.0270(3) 0.0828(3) 0.3744(4)
H63_4 H 0.0383 0.0723 0.4026
H64_4 H 0.0239 0.1069 0.3807
H65_4 H 0.0407 0.0797 0.3449
C52_4 C 0.1751(2) 0.9516(3) 0.5809(4)
N11_4 N 0.0271(3) 0.9535(3) 0.4826(4)
C59_4 C 0.1596(3) 0.9817(3) 0.5673(5)
C60_4 C 0.1599(3) 0.9218(3) 0.5662(5)
H50_4 H 0.1695 0.9003 0.5724
C62_4 C 0.2041(2) 0.9504(3) 0.6134(4)
C63_4 C 0.1294(3) 0.9261(2) 0.5416(5)
H51_4 H 0.1182 0.9059 0.5325
N13_4 N 0.0376(3) 0.9824(3) 0.4633(4)
C65_4 C 0.0709(3) 0.9888(2) 0.4727(3)
C66_4 C 0.0486(2) 0.9067(3) 0.5310(4)
H55_4 H 0.0272 0.9074 0.5489
H56_4 H 0.0670 0.9020 0.5539
H57_4 H 0.0476 0.8888 0.5061
C69_4 C 0.0546(3) 0.9402(3) 0.5060(4)
C72_4 C 0.0817(2) 0.9619(3) 0.4999(4)
C74_4 C 0.1284(3) 0.9855(3) 0.5450(5)
C75_4 C 0.1130(3) 0.9558(3) 0.5283(4)
Cu16_4 Cu 0.01171(5) 0.49037(4) 0.42583(9)
N20_4 N 0.0423(2) 0.2500 0.1669(3)
C124_4 C 0.1751(2) 0.5484(3) 0.5809(4)
H104_4 H 0.0136 0.3914 0.2880
H108_4 H 0.0099 0.3385 0.2487
N24_4 N 0.0271(3) 0.5465(3) 0.4826(4)
C131_4 C 0.1596(3) 0.5183(3) 0.5673(5)
H109_4 H 0.1716 0.4982 0.5742
C132_4 C 0.1599(3) 0.5782(3) 0.5662(5)
H110_4 H 0.1695 0.5997 0.5724
C134_4 C 0.2041(2) 0.5496(3) 0.6134(4)
C135_4 C 0.1294(3) 0.5739(2) 0.5416(5)
H111_4 H 0.1182 0.5941 0.5325
N26_4 N 0.0376(3) 0.5176(3) 0.4633(4)
C137_4 C 0.0709(3) 0.5112(2) 0.4727(3)
C138_4 C 0.0486(2) 0.5933(3) 0.5310(4)
H115_4 H 0.0272 0.5926 0.5489
H116_4 H 0.0670 0.5980 0.5539
H117_4 H 0.0476 0.6112 0.5061
C141_4 C 0.0546(3) 0.5598(3) 0.5060(4)
C144_4 C 0.1119(2) 0.2500 0.1538(5)
H119_4 H 0.1357 0.2500 0.1495
C145_4 C 0.0944(2) 0.28022(10) 0.1572(3)
H120_4 H 0.1064 0.3010 0.1550
C146_4 C 0.0598(2) 0.28019(14) 0.1636(2)
H121_4 H 0.0479 0.3010 0.1658
C147_4 C 0.0817(2) 0.5381(3) 0.4999(4)
C149_4 C 0.1284(3) 0.5145(3) 0.5450(5)
H122_4 H 0.1182 0.4930 0.5411
C150_4 C 0.1130(3) 0.5442(3) 0.5283(4)
C151_4 C 0.0913(3) 0.4804(2) 0.4561(5)
H123_4 H 0.0989 0.4678 0.4850
H124_4 H 0.0771 0.4659 0.4357
H125_4 H 0.1109 0.4879 0.4371
C152_4 C 0.0270(3) 0.4172(3) 0.3744(4)
H126_4 H 0.0383 0.4277 0.4026
H127_4 H 0.0239 0.3931 0.3807
H128_4 H 0.0407 0.4203 0.3449
C153_4 C 0.0944(2) 0.21978(10) 0.1572(3)
H129_4 H 0.1064 0.1990 0.1550
C154_4 C 0.0598(2) 0.21981(14) 0.1636(2)
H130_4 H 0.0479 0.1990 0.1658
O12_4 O 0.92957(18) 0.21387(12) 0.2264(3)
O13_4 O 0.98572(19) 0.21484(17) 0.2203(4)
N10_4 N 0.9549(2) 0.0282(2) 0.3745(3)
C51_4 C 0.9319(2) 0.1565(3) 0.2906(4)
H43_4 H 0.9111 0.1683 0.2896
C54_4 C 0.9932(3) 0.1212(3) 0.2879(5)
C56_4 C 0.9909(3) 0.1520(3) 0.2648(5)
C58_4 C 0.9600(3) 0.1690(3) 0.2654(4)
C61_4 C 0.9595(4) 0.2031(3) 0.2340(5)
N12_4 N 0.9861(2) 0.0362(2) 0.3880(4)
C64_4 C 0.9063(2) 0.0507(3) 0.3259(3)
H52_4 H 0.9015 0.0275 0.3159
H53_4 H 0.9043 0.0656 0.2973
H54_4 H 0.8902 0.0577 0.3512
C67_4 C 0.9661(3) 0.0774(2) 0.3410(3)
C68_4 C 0.9418(2) 0.0528(2) 0.3463(3)
C70_4 C 0.9932(3) 0.0665(3) 0.3670(4)
C71_4 C 0.9346(3) 0.1269(3) 0.3170(5)
H58_4 H 0.9171 0.1190 0.3378
C73_4 C 0.9645(3) 0.1094(3) 0.3110(4)
Cu11_4 Cu 0.48829(5) 0.00963(4) 0.42583(9)
O18_4 O 0.57043(18) 0.21387(12) 0.2264(3)
O19_4 O 0.51428(19) 0.21484(17) 0.2203(4)
N16_4 N 0.5451(2) 0.0282(2) 0.3745(3)
C87_4 C 0.5681(2) 0.1565(3) 0.2906(4)
H73_4 H 0.5889 0.1683 0.2896
C90_4 C 0.5068(3) 0.1212(3) 0.2879(5)
H74_4 H 0.4864 0.1086 0.2880
C92_4 C 0.5091(3) 0.1520(3) 0.2648(5)
H78_4 H 0.4901 0.1615 0.2487
C94_4 C 0.5400(3) 0.1690(3) 0.2654(4)
H79_4 H 0.3284 0.0018 0.5742
C97_4 C 0.5405(4) 0.2031(3) 0.2340(5)
N18_4 N 0.5139(2) 0.0362(2) 0.3880(4)
C100_4 C 0.5937(2) 0.0507(3) 0.3259(3)
H82_4 H 0.5985 0.0275 0.3159
H83_4 H 0.5957 0.0656 0.2973
H84_4 H 0.6098 0.0577 0.3512
C103_4 C 0.5339(3) 0.0774(2) 0.3410(3)
C104_4 C 0.5582(2) 0.0528(2) 0.3463(3)
C106_4 C 0.5068(3) 0.0665(3) 0.3670(4)
C107_4 C 0.5654(3) 0.1269(3) 0.3170(5)
H88_4 H 0.5829 0.1190 0.3378
C109_4 C 0.5355(3) 0.1094(3) 0.3110(4)
H89_4 H 0.3818 0.0070 0.5411
C112_4 C 0.4087(3) 0.0196(2) 0.4561(5)
H90_4 H 0.4011 0.0322 0.4850
H91_4 H 0.4229 0.0341 0.4357
H92_4 H 0.3891 0.0121 0.4371
C113_4 C 0.4730(3) 0.0828(3) 0.3744(4)
H93_4 H 0.4617 0.0723 0.4026
H94_4 H 0.4761 0.1069 0.3807
H95_4 H 0.4593 0.0797 0.3449
Cu1_4 Cu 0.7500 0.7500 0.47642(9)
Cu2_4 Cu 0.7500 0.7500 0.37917(8)
Cu5_4 Cu 0.48829(5) 0.49037(4) 0.42583(9)
Cu6_4 Cu 0.51573(4) 0.55929(4) 0.46856(8)
Cu7_4 Cu 0.56080(4) 0.51289(4) 0.39489(8)
O1_4 O 0.71537(16) 0.71505(15) 0.3861(3)
O2_4 O 0.71525(17) 0.71493(14) 0.4667(3)
O3_4 O 0.57043(18) 0.28613(12) 0.2264(3)
C1_4 C 0.7061(2) 0.7043(3) 0.4233(6)
O4_4 O 0.51428(19) 0.28516(17) 0.2203(4)
O5_4 O 0.7500 0.7500 0.2981(6)
N1_4 N 0.4577(2) 0.2500 0.1669(3)
C2_4 C 0.6443(2) 0.6383(2) 0.3855(5)
H1_4 H 0.6368 0.6286 0.3555
C3_4 C 0.6316(2) 0.6267(2) 0.4298(5)
C4_4 C 0.6427(3) 0.6413(3) 0.4733(4)
H2_4 H 0.6335 0.6343 0.5039
C5_4 C 0.6043(2) 0.6009(2) 0.4315(4)
O8_4 O 0.6378(3) 0.2500 0.1887(4)
C6_4 C 0.6682(2) 0.6645(2) 0.3849(4)
H3_4 H 0.6760 0.6730 0.3542
C7_4 C 0.6805(3) 0.6782(2) 0.4279(5)
C8_4 C 0.6676(3) 0.6662(3) 0.4718(5)
H4_4 H 0.6758 0.6753 0.5019
N2_4 N 0.5760(2) 0.5550(2) 0.4163(3)
N3_4 N 0.5592(2) 0.5725(2) 0.4501(3)
N4_4 N 0.5451(2) 0.4718(2) 0.3745(3)
C9_4 C 0.6276(2) 0.5578(2) 0.3660(4)
H5_4 H 0.6254 0.5332 0.3651
H6_4 H 0.6509 0.5637 0.3746
H7_4 H 0.6221 0.5672 0.3337
C10_4 C 0.5681(2) 0.3435(3) 0.2906(4)
H8_4 H 0.5889 0.3317 0.2896
C11_4 C 0.3249(2) 0.5484(3) 0.5809(4)
C12_4 C 0.6038(2) 0.5721(2) 0.4042(4)
C13_4 C 0.5068(3) 0.3788(3) 0.2879(5)
H9_4 H 0.4864 0.3914 0.2880
O9_4 O 0.7500 0.7500 0.5627(6)
C14_4 C 0.5628(3) 0.6258(3) 0.4979(4)
H10_4 H 0.5387 0.6294 0.4919
H11_4 H 0.5748 0.6473 0.4953
H12_4 H 0.5659 0.6165 0.5310
C15_4 C 0.5091(3) 0.3480(3) 0.2648(5)
H13_4 H 0.4901 0.3385 0.2487
N5_4 N 0.4729(3) 0.5465(3) 0.4826(4)
C16_4 C 0.5766(2) 0.6013(2) 0.4601(3)
C17_4 C 0.5400(3) 0.3310(3) 0.2654(4)
C18_4 C 0.3404(3) 0.5183(3) 0.5673(5)
H14_4 H 0.3284 0.4982 0.5742
C19_4 C 0.3401(3) 0.5782(3) 0.5662(5)
H15_4 H 0.3305 0.5997 0.5724
C20_4 C 0.5405(4) 0.2969(3) 0.2340(5)
C21_4 C 0.2959(2) 0.5496(3) 0.6134(4)
C22_4 C 0.3706(3) 0.5739(2) 0.5416(5)
H16_4 H 0.3818 0.5941 0.5325
N6_4 N 0.5139(2) 0.4638(2) 0.3880(4)
N7_4 N 0.4624(3) 0.5176(3) 0.4633(4)
C23_4 C 0.5937(2) 0.4493(3) 0.3259(3)
H17_4 H 0.5985 0.4725 0.3159
H18_4 H 0.5957 0.4344 0.2973
H19_4 H 0.6098 0.4423 0.3512
C24_4 C 0.4291(3) 0.5112(2) 0.4727(3)
C25_4 C 0.4514(2) 0.5933(3) 0.5310(4)
H20_4 H 0.4728 0.5926 0.5489
H21_4 H 0.4330 0.5980 0.5539
H22_4 H 0.4524 0.6112 0.5061
C26_4 C 0.5339(3) 0.4226(2) 0.3410(3)
C27_4 C 0.5582(2) 0.4472(2) 0.3463(3)
C28_4 C 0.4454(3) 0.5598(3) 0.5060(4)
C29_4 C 0.5068(3) 0.4335(3) 0.3670(4)
C30_4 C 0.5654(3) 0.3731(3) 0.3170(5)
H23_4 H 0.5829 0.3810 0.3378
C31_4 C 0.3881(2) 0.2500 0.1538(5)
H24_4 H 0.3643 0.2500 0.1495
C32_4 C 0.4056(2) 0.28022(10) 0.1572(3)
H25_4 H 0.3936 0.3010 0.1550
C33_4 C 0.4402(2) 0.28019(14) 0.1636(2)
H26_4 H 0.4521 0.3010 0.1658
C34_4 C 0.4183(2) 0.5381(3) 0.4999(4)
C35_4 C 0.5355(3) 0.3906(3) 0.3110(4)
C36_4 C 0.3716(3) 0.5145(3) 0.5450(5)
H27_4 H 0.3818 0.4930 0.5411
C37_4 C 0.3870(3) 0.5442(3) 0.5283(4)
C38_4 C 0.4087(3) 0.4804(2) 0.4561(5)
H28_4 H 0.4011 0.4678 0.4850
H29_4 H 0.4229 0.4659 0.4357
H30_4 H 0.3891 0.4879 0.4371
C39_4 C 0.4730(3) 0.4172(3) 0.3744(4)
H31_4 H 0.4617 0.4277 0.4026
H32_4 H 0.4761 0.3931 0.3807
H33_4 H 0.4593 0.4203 0.3449
C40_4 C 0.4056(2) 0.21978(10) 0.1572(3)
H34_4 H 0.3936 0.1990 0.1550
C41_4 C 0.4402(2) 0.21981(14) 0.1636(2)
H35_4 H 0.4521 0.1990 0.1658
Cu9_4 Cu 0.98427(4) 0.94071(4) 0.46856(8)
Cu10_4 Cu 0.93920(4) 0.98711(4) 0.39489(8)
O10_4 O 0.78463(16) 0.78495(15) 0.3861(3)
O11_4 O 0.78475(17) 0.78507(14) 0.4667(3)
C42_4 C 0.7939(2) 0.7957(3) 0.4233(6)
C43_4 C 0.8557(2) 0.8617(2) 0.3855(5)
H36_4 H 0.8632 0.8714 0.3555
C44_4 C 0.8684(2) 0.8733(2) 0.4298(5)
C45_4 C 0.8573(3) 0.8587(3) 0.4733(4)
H37_4 H 0.8665 0.8657 0.5039
C46_4 C 0.8957(2) 0.8991(2) 0.4315(4)
C47_4 C 0.8318(2) 0.8355(2) 0.3849(4)
H38_4 H 0.8240 0.8270 0.3542
C48_4 C 0.8195(3) 0.8218(2) 0.4279(5)
C49_4 C 0.8324(3) 0.8338(3) 0.4718(5)
H39_4 H 0.8242 0.8247 0.5019
N8_4 N 0.9240(2) 0.9450(2) 0.4163(3)
N9_4 N 0.9408(2) 0.9275(2) 0.4501(3)
C50_4 C 0.8724(2) 0.9422(2) 0.3660(4)
H40_4 H 0.8746 0.9668 0.3651
H41_4 H 0.8491 0.9363 0.3746
H42_4 H 0.8779 0.9328 0.3337
C53_4 C 0.8962(2) 0.9279(2) 0.4042(4)
C55_4 C 0.9372(3) 0.8742(3) 0.4979(4)
H45_4 H 0.9613 0.8706 0.4919
H46_4 H 0.9252 0.8527 0.4953
H47_4 H 0.9341 0.8835 0.5310
C57_4 C 0.9234(2) 0.8987(2) 0.4601(3)
Cu12_4 Cu 0.51573(4) 0.94071(4) 0.46856(8)
Cu13_4 Cu 0.56080(4) 0.98711(4) 0.39489(8)
O16_4 O 0.71537(16) 0.78495(15) 0.3861(3)
O17_4 O 0.71525(17) 0.78507(14) 0.4667(3)
C78_4 C 0.7061(2) 0.7957(3) 0.4233(6)
C79_4 C 0.6443(2) 0.8617(2) 0.3855(5)
H66_4 H 0.6368 0.8714 0.3555
C80_4 C 0.6316(2) 0.8733(2) 0.4298(5)
C81_4 C 0.6427(3) 0.8587(3) 0.4733(4)
H67_4 H 0.6335 0.8657 0.5039
C82_4 C 0.6043(2) 0.8991(2) 0.4315(4)
C83_4 C 0.6682(2) 0.8355(2) 0.3849(4)
H68_4 H 0.6760 0.8270 0.3542
C84_4 C 0.6805(3) 0.8218(2) 0.4279(5)
C85_4 C 0.6676(3) 0.8338(3) 0.4718(5)
H69_4 H 0.6758 0.8247 0.5019
N14_4 N 0.5760(2) 0.9450(2) 0.4163(3)
N15_4 N 0.5592(2) 0.9275(2) 0.4501(3)
C86_4 C 0.6276(2) 0.9422(2) 0.3660(4)
H70_4 H 0.6254 0.9668 0.3651
H71_4 H 0.6509 0.9363 0.3746
H72_4 H 0.6221 0.9328 0.3337
C88_4 C 0.3249(2) 0.9516(3) 0.5809(4)
C89_4 C 0.6038(2) 0.9279(2) 0.4042(4)
C91_4 C 0.5628(3) 0.8742(3) 0.4979(4)
H75_4 H 0.5387 0.8706 0.4919
H76_4 H 0.5748 0.8527 0.4953
H77_4 H 0.5659 0.8835 0.5310
N17_4 N 0.4729(3) 0.9535(3) 0.4826(4)
C93_4 C 0.5766(2) 0.8987(2) 0.4601(3)
C95_4 C 0.3404(3) 0.9817(3) 0.5673(5)
C96_4 C 0.3401(3) 0.9218(3) 0.5662(5)
H80_4 H 0.3305 0.9003 0.5724
C98_4 C 0.2959(2) 0.9504(3) 0.6134(4)
C99_4 C 0.3706(3) 0.9261(2) 0.5416(5)
H81_4 H 0.3818 0.9059 0.5325
N19_4 N 0.4624(3) 0.9824(3) 0.4633(4)
C101_4 C 0.4291(3) 0.9888(2) 0.4727(3)
C102_4 C 0.4514(2) 0.9067(3) 0.5310(4)
H85_4 H 0.4728 0.9074 0.5489
H86_4 H 0.4330 0.9020 0.5539
H87_4 H 0.4524 0.8888 0.5061
C105_4 C 0.4454(3) 0.9402(3) 0.5060(4)
C108_4 C 0.4183(2) 0.9619(3) 0.4999(4)
C110_4 C 0.3716(3) 0.9855(3) 0.5450(5)
C111_4 C 0.3870(3) 0.9558(3) 0.5283(4)
Cu17_4 Cu 0.98427(4) 0.55929(4) 0.46856(8)
Cu18_4 Cu 0.93920(4) 0.51289(4) 0.39489(8)
O22_4 O 0.78463(16) 0.71505(15) 0.3861(3)
O23_4 O 0.78475(17) 0.71493(14) 0.4667(3)
O24_4 O 0.92957(18) 0.28613(12) 0.2264(3)
C114_4 C 0.7939(2) 0.7043(3) 0.4233(6)
O25_4 O 0.98572(19) 0.28516(17) 0.2203(4)
C115_4 C 0.8557(2) 0.6383(2) 0.3855(5)
H96_4 H 0.8632 0.6286 0.3555
C116_4 C 0.8684(2) 0.6267(2) 0.4298(5)
C117_4 C 0.8573(3) 0.6413(3) 0.4733(4)
H97_4 H 0.8665 0.6343 0.5039
C118_4 C 0.8957(2) 0.6009(2) 0.4315(4)
O28_4 O 0.8622(3) 0.2500 0.1887(4)
C119_4 C 0.8318(2) 0.6645(2) 0.3849(4)
H98_4 H 0.8240 0.6730 0.3542
C120_4 C 0.8195(3) 0.6782(2) 0.4279(5)
C121_4 C 0.8324(3) 0.6662(3) 0.4718(5)
H99_4 H 0.8242 0.6753 0.5019
N21_4 N 0.9240(2) 0.5550(2) 0.4163(3)
N22_4 N 0.9408(2) 0.5725(2) 0.4501(3)
N23_4 N 0.9549(2) 0.4718(2) 0.3745(3)
C122_4 C 0.8724(2) 0.5578(2) 0.3660(4)
H100_4 H 0.8746 0.5332 0.3651
H101_4 H 0.8491 0.5637 0.3746
H102_4 H 0.8779 0.5672 0.3337
C123_4 C 0.9319(2) 0.3435(3) 0.2906(4)
H103_4 H 0.9111 0.3317 0.2896
C125_4 C 0.8962(2) 0.5721(2) 0.4042(4)
C126_4 C 0.9932(3) 0.3788(3) 0.2879(5)
C127_4 C 0.9372(3) 0.6258(3) 0.4979(4)
H105_4 H 0.9613 0.6294 0.4919
H106_4 H 0.9252 0.6473 0.4953
H107_4 H 0.9341 0.6165 0.5310
C128_4 C 0.9909(3) 0.3480(3) 0.2648(5)
C129_4 C 0.9234(2) 0.6013(2) 0.4601(3)
C130_4 C 0.9600(3) 0.3310(3) 0.2654(4)
C133_4 C 0.9595(4) 0.2969(3) 0.2340(5)
N25_4 N 0.9861(2) 0.4638(2) 0.3880(4)
C136_4 C 0.9063(2) 0.4493(3) 0.3259(3)
H112_4 H 0.9015 0.4725 0.3159
H113_4 H 0.9043 0.4344 0.2973
H114_4 H 0.8902 0.4423 0.3512
C139_4 C 0.9661(3) 0.4226(2) 0.3410(3)
C140_4 C 0.9418(2) 0.4472(2) 0.3463(3)
C142_4 C 0.9932(3) 0.4335(3) 0.3670(4)
C143_4 C 0.9346(3) 0.3731(3) 0.3170(5)
H118_4 H 0.9171 0.3810 0.3378
C148_4 C 0.9645(3) 0.3906(3) 0.3110(4)
loop_
_geom_bond_atom_site_label_1
_geom_bond_atom_site_label_2
_geom_bond_site_symmetry_1
_geom_bond_site_symmetry_2
Cu1 O2 1_555 1_555
Cu2 O1 1_555 1_555
Cu6 N3 1_555 1_555
Cu7 N2 1_555 1_555
O1 C1 1_555 1_555
O2 C1 1_555 1_555
C1 C7 1_555 1_555
O5 Cu2 1_555 1_555
C2 H1 1_555 1_555
C3 C2 1_555 1_555
C4 C3 1_555 1_555
C5 C3 1_555 1_555
C6 C2 1_555 1_555
H3 C6 1_555 1_555
C7 C6 1_555 1_555
C8 C4 1_555 1_555
N2 N3 1_555 1_555
N3 C16 1_555 1_555
C9 H5 1_555 1_555
H6 C9 1_555 1_555
H7 C9 1_555 1_555
C12 C5 1_555 1_555
C14 H10 1_555 1_555
H11 C14 1_555 1_555
C16 C5 1_555 1_555
Cu8 N12 1_555 1_555
Cu9 N9 1_555 1_555
Cu10 N8 1_555 1_555
O10 Cu2 1_555 1_555
O11 Cu1 1_555 1_555
O12 C61 1_555 1_555
C42 O10 1_555 1_555
O13 C61 1_555 1_555
C43 H36 1_555 1_555
C44 C43 1_555 1_555
C45 C44 1_555 1_555
C46 C44 1_555 1_555
C47 C43 1_555 1_555
H38 C47 1_555 1_555
C48 C42 1_555 1_555
C49 C45 1_555 1_555
N8 N9 1_555 1_555
N9 C57 1_555 1_555
N10 Cu10 1_555 1_555
C50 H40 1_555 1_555
H41 C50 1_555 1_555
H42 C50 1_555 1_555
C51 H43 1_555 1_555
C53 C46 1_555 1_555
C54 H44 1_555 1_555
C55 H45 1_555 1_555
H46 C55 1_555 1_555
C56 C54 1_555 1_555
H48 C56 1_555 1_555
N11 Cu9 1_555 1_555
C57 C46 1_555 1_555
C58 C51 1_555 1_555
C61 C58 1_555 1_555
N12 N10 1_555 1_555
N13 Cu8 1_555 1_555
C64 H52 1_555 1_555
H53 C64 1_555 1_555
H54 C64 1_555 1_555
C65 N13 1_555 1_555
C67 C68 1_555 1_555
C68 N10 1_555 1_555
C70 N12 1_555 1_555
C71 C51 1_555 1_555
H58 C71 1_555 1_555
C72 C65 1_555 1_555
C73 C54 1_555 1_555
C76 C65 1_555 1_555
H60 C76 1_555 1_555
H61 C76 1_555 1_555
H62 C76 1_555 1_555
C77 C70 1_555 1_555
H63 C77 1_555 1_555
H64 C77 1_555 1_555
H65 C77 1_555 1_555
Cu12 N15 1_555 1_555
Cu13 N14 1_555 1_555
O16 Cu2 1_555 1_555
O17 Cu1 1_555 1_555
O18 C97 1_555 1_555
C78 O16 1_555 1_555
O19 C97 1_555 1_555
C79 H66 1_555 1_555
C80 C79 1_555 1_555
C81 C80 1_555 1_555
C82 C80 1_555 1_555
C83 C79 1_555 1_555
H68 C83 1_555 1_555
C84 C78 1_555 1_555
C85 C81 1_555 1_555
N14 N15 1_555 1_555
N15 C93 1_555 1_555
N16 Cu13 1_555 1_555
C86 H70 1_555 1_555
H71 C86 1_555 1_555
H72 C86 1_555 1_555
C87 H73 1_555 1_555
C89 C82 1_555 1_555
C91 H75 1_555 1_555
H76 C91 1_555 1_555
C92 C90 1_555 1_555
C93 C82 1_555 1_555
C94 C87 1_555 1_555
C97 C94 1_555 1_555
N18 N16 1_555 1_555
C100 H82 1_555 1_555
H83 C100 1_555 1_555
H84 C100 1_555 1_555
C103 C104 1_555 1_555
C104 N16 1_555 1_555
C106 N18 1_555 1_555
C107 C87 1_555 1_555
H88 C107 1_555 1_555
C109 C90 1_555 1_555
Cu17 N22 1_555 1_555
Cu18 N21 1_555 1_555
O22 Cu2 1_555 1_555
O23 Cu1 1_555 1_555
C114 O22 1_555 1_555
C115 H96 1_555 1_555
C116 C115 1_555 1_555
C117 C116 1_555 1_555
C118 C116 1_555 1_555
C119 C115 1_555 1_555
H98 C119 1_555 1_555
C120 C114 1_555 1_555
C121 C117 1_555 1_555
N21 N22 1_555 1_555
N22 C129 1_555 1_555
C122 H100 1_555 1_555
H101 C122 1_555 1_555
H102 C122 1_555 1_555
C125 C118 1_555 1_555
C127 H105 1_555 1_555
H106 C127 1_555 1_555
N24 Cu17 1_555 1_555
C129 C118 1_555 1_555
C137 N26 1_555 1_555
C147 C137 1_555 1_555
Cu19 O19 1_555 1_555
Cu22 O13 1_555 1_555
Cu25 O18 1_555 1_555
Cu28 O12 1_555 1_555
C7 C8 1_555 1_555
N2 C12 1_555 1_555
C9 C12 1_555 1_555
C14 C16 1_555 1_555
O11 C42 1_555 1_555
C47 C48 1_555 1_555
C48 C49 1_555 1_555
N8 C53 1_555 1_555
C50 C53 1_555 1_555
C55 C57 1_555 1_555
C56 C58 1_555 1_555
N11 N13 1_555 1_555
C64 C68 1_555 1_555
C67 C70 1_555 1_555
C67 C73 1_555 1_555
C71 C73 1_555 1_555
O17 C78 1_555 1_555
C83 C84 1_555 1_555
C84 C85 1_555 1_555
N14 C89 1_555 1_555
C86 C89 1_555 1_555
C91 C93 1_555 1_555
C92 C94 1_555 1_555
C100 C104 1_555 1_555
C103 C106 1_555 1_555
C103 C109 1_555 1_555
C107 C109 1_555 1_555
O23 C114 1_555 1_555
C119 C120 1_555 1_555
C120 C121 1_555 1_555
N21 C125 1_555 1_555
C122 C125 1_555 1_555
C127 C129 1_555 1_555
N24 N26 1_555 1_555
O14 C62 1_555 1_555
O15 C62 1_555 1_555
C52 C59 1_555 1_555
C59 H49 1_555 1_555
C60 C52 1_555 1_555
H50 C60 1_555 1_555
C62 C52 1_555 1_555
C63 C60 1_555 1_555
H51 C63 1_555 1_555
C66 H55 1_555 1_555
H56 C66 1_555 1_555
H57 C66 1_555 1_555
C74 C59 1_555 1_555
H59 C74 1_555 1_555
C75 C63 1_555 1_555
O26 C134 1_555 1_555
O27 C134 1_555 1_555
C124 C131 1_555 1_555
C132 C124 1_555 1_555
H110 C132 1_555 1_555
C134 C124 1_555 1_555
C135 C132 1_555 1_555
H111 C135 1_555 1_555
C138 H115 1_555 1_555
H116 C138 1_555 1_555
H117 C138 1_555 1_555
C149 C131 1_555 1_555
C150 C135 1_555 1_555
Cu21 O15 1_555 1_555
Cu24 O27 1_555 1_555
Cu27 O14 1_555 1_555
Cu30 O26 1_555 1_555
C66 C69 1_555 1_555
C74 C75 1_555 1_555
C138 C141 1_555 1_555
C149 C150 1_555 1_555
O6 C21 1_555 1_555
O7 C21 1_555 1_555
C11 C18 1_555 1_555
C19 C11 1_555 1_555
H15 C19 1_555 1_555
C21 C11 1_555 1_555
C22 C19 1_555 1_555
H16 C22 1_555 1_555
C25 H20 1_555 1_555
H21 C25 1_555 1_555
H22 C25 1_555 1_555
C36 C18 1_555 1_555
C37 C22 1_555 1_555
O20 C98 1_555 1_555
O21 C98 1_555 1_555
C88 C95 1_555 1_555
C95 H79 1_555 1_555
C96 C88 1_555 1_555
H80 C96 1_555 1_555
C98 C88 1_555 1_555
C99 C96 1_555 1_555
H81 C99 1_555 1_555
C102 H85 1_555 1_555
H86 C102 1_555 1_555
H87 C102 1_555 1_555
C110 C95 1_555 1_555
H89 C110 1_555 1_555
C111 C99 1_555 1_555
Cu21 O21 1_555 1_555
Cu24 O7 1_555 1_555
Cu27 O20 1_555 1_555
Cu30 O6 1_555 1_555
C25 C28 1_555 1_555
C36 C37 1_555 1_555
C102 C105 1_555 1_555
C110 C111 1_555 1_555
Cu19 O4 1_555 1_555
Cu25 O3 1_555 1_555
O3 C20 1_555 1_555
O4 C20 1_555 1_555
O8 Cu25 1_555 1_555
C10 H8 1_555 1_555
C15 C13 1_555 1_555
C17 C10 1_555 1_555
C20 C17 1_555 1_555
N6 N4 1_555 1_555
C23 H17 1_555 1_555
H18 C23 1_555 1_555
H19 C23 1_555 1_555
C26 C27 1_555 1_555
C27 N4 1_555 1_555
C29 N6 1_555 1_555
C30 C10 1_555 1_555
H23 C30 1_555 1_555
C35 C13 1_555 1_555
Cu22 O25 1_555 1_555
Cu28 O24 1_555 1_555
Cu16 N25 1_555 1_555
O24 C133 1_555 1_555
O25 C133 1_555 1_555
N20 Cu22 1_555 1_555
O28 Cu28 1_555 1_555
C123 H103 1_555 1_555
C126 H104 1_555 1_555
C128 C126 1_555 1_555
H108 C128 1_555 1_555
C130 C123 1_555 1_555
C133 C130 1_555 1_555
N25 N23 1_555 1_555
C136 H112 1_555 1_555
H113 C136 1_555 1_555
H114 C136 1_555 1_555
C139 C140 1_555 1_555
C140 N23 1_555 1_555
C142 N25 1_555 1_555
C143 C123 1_555 1_555
H118 C143 1_555 1_555
C144 H119 1_555 1_555
C145 C144 1_555 1_555
H120 C145 1_555 1_555
C146 N20 1_555 1_555
H121 C146 1_555 1_555
C148 C126 1_555 1_555
H123 C151 1_555 1_555
H124 C151 1_555 1_555
H125 C151 1_555 1_555
C152 C142 1_555 1_555
H126 C152 1_555 1_555
H127 C152 1_555 1_555
H128 C152 1_555 1_555
C153 C144 1_555 1_555
H129 C153 1_555 1_555
C154 N20 1_555 1_555
H130 C154 1_555 1_555
O33 Cu25 1_555 1_555
O34 Cu28 1_555 1_555
O35 Cu28 1_555 1_555
O36 Cu25 1_555 1_555
O37 Cu19 1_555 1_555
O38 Cu22 1_555 1_555
O39 Cu22 1_555 1_555
O40 Cu19 1_555 1_555
C15 C17 1_555 1_555
C23 C27 1_555 1_555
C26 C29 1_555 1_555
C26 C35 1_555 1_555
C30 C35 1_555 1_555
C128 C130 1_555 1_555
C136 C140 1_555 1_555
C139 C142 1_555 1_555
C139 C148 1_555 1_555
C143 C148 1_555 1_555
C145 C146 1_555 1_555
C153 C154 1_555 1_555
Cu1_2 O2_2 1_555 1_555
Cu2_2 O1_2 1_555 1_555
Cu6_2 N3_2 1_555 1_555
Cu7_2 N2_2 1_555 1_555
O1_2 C1_2 1_555 1_555
O2_2 C1_2 1_555 1_555
C1_2 C7_2 1_555 1_555
O5_2 Cu2_2 1_555 1_555
C2_2 H1_2 1_555 1_555
C3_2 C2_2 1_555 1_555
C4_2 C3_2 1_555 1_555
H2_2 C4_2 1_555 1_555
C5_2 C3_2 1_555 1_555
O33 C21_2 1_555 1_555
O37 C21_2 1_555 1_555
C6_2 C2_2 1_555 1_555
H3_2 C6_2 1_555 1_555
C7_2 C6_2 1_555 1_555
C8_2 C4_2 1_555 1_555
H4_2 C8_2 1_555 1_555
N2_2 N3_2 1_555 1_555
N3_2 C16_2 1_555 1_555
C9_2 H5_2 1_555 1_555
H6_2 C9_2 1_555 1_555
H7_2 C9_2 1_555 1_555
C11_2 C18_2 1_555 1_555
C12_2 C5_2 1_555 1_555
O9_2 Cu1_2 1_555 1_555
C14_2 H10_2 1_555 1_555
H11_2 C14_2 1_555 1_555
H12_2 C14_2 1_555 1_555
N5 Cu6_2 1_555 1_555
C16_2 C5_2 1_555 1_555
C19_2 C11_2 1_555 1_555
H15_2 C19_2 1_555 1_555
C21_2 C11_2 1_555 1_555
C22_2 C19_2 1_555 1_555
H16_2 C22_2 1_555 1_555
C24 N7 1_555 1_555
C25_2 H20_2 1_555 1_555
H21_2 C25_2 1_555 1_555
H22_2 C25_2 1_555 1_555
C28_2 N5 1_555 1_555
C34 C24 1_555 1_555
C36_2 C18_2 1_555 1_555
C37_2 C22_2 1_555 1_555
Cu9_2 N9_2 1_555 1_555
Cu10_2 N8_2 1_555 1_555
O10_2 Cu2_2 1_555 1_555
O11_2 Cu1_2 1_555 1_555
O12_2 C61_2 1_555 1_555
C42_2 O10_2 1_555 1_555
O13_2 C61_2 1_555 1_555
C43_2 H36_2 1_555 1_555
C44_2 C43_2 1_555 1_555
C45_2 C44_2 1_555 1_555
H37_2 C45_2 1_555 1_555
C46_2 C44_2 1_555 1_555
C47_2 C43_2 1_555 1_555
H38_2 C47_2 1_555 1_555
C48_2 C42_2 1_555 1_555
C49_2 C45_2 1_555 1_555
H39_2 C49_2 1_555 1_555
N8_2 N9_2 1_555 1_555
N9_2 C57_2 1_555 1_555
N10_2 Cu10_2 1_555 1_555
C50_2 H40_2 1_555 1_555
H41_2 C50_2 1_555 1_555
H42_2 C50_2 1_555 1_555
C51_2 H43_2 1_555 1_555
C53_2 C46_2 1_555 1_555
C55_2 H45_2 1_555 1_555
H46_2 C55_2 1_555 1_555
H47_2 C55_2 1_555 1_555
C56_2 C54_2 1_555 1_555
C57_2 C46_2 1_555 1_555
C58_2 C51_2 1_555 1_555
C61_2 C58_2 1_555 1_555
N12_2 N10_2 1_555 1_555
C64_2 H52_2 1_555 1_555
H53_2 C64_2 1_555 1_555
H54_2 C64_2 1_555 1_555
C67_2 C68_2 1_555 1_555
C68_2 N10_2 1_555 1_555
C70_2 N12_2 1_555 1_555
C71_2 C51_2 1_555 1_555
H58_2 C71_2 1_555 1_555
C73_2 C54_2 1_555 1_555
Cu11 N18_2 1_555 1_555
Cu12_2 N15_2 1_555 1_555
Cu13_2 N14_2 1_555 1_555
O16_2 Cu2_2 1_555 1_555
O17_2 Cu1_2 1_555 1_555
O18_2 C97_2 1_555 1_555
C78_2 O16_2 1_555 1_555
O19_2 C97_2 1_555 1_555
C79_2 H66_2 1_555 1_555
C80_2 C79_2 1_555 1_555
C81_2 C80_2 1_555 1_555
H67_2 C81_2 1_555 1_555
C82_2 C80_2 1_555 1_555
O35 C98_2 1_555 1_555
O39 C98_2 1_555 1_555
C83_2 C79_2 1_555 1_555
H68_2 C83_2 1_555 1_555
C84_2 C78_2 1_555 1_555
C85_2 C81_2 1_555 1_555
H69_2 C85_2 1_555 1_555
N14_2 N15_2 1_555 1_555
N15_2 C93_2 1_555 1_555
N16_2 Cu13_2 1_555 1_555
C86_2 H70_2 1_555 1_555
H71_2 C86_2 1_555 1_555
H72_2 C86_2 1_555 1_555
C87_2 H73_2 1_555 1_555
C88_2 C95_2 1_555 1_555
C89_2 C82_2 1_555 1_555
C90_2 H74 1_555 1_555
C91_2 H75_2 1_555 1_555
H76_2 C91_2 1_555 1_555
H77_2 C91_2 1_555 1_555
C92_2 C90_2 1_555 1_555
H78 C92_2 1_555 1_555
N17 Cu12_2 1_555 1_555
C93_2 C82_2 1_555 1_555
C94_2 C87_2 1_555 1_555
C95_2 H79_2 1_555 1_555
C96_2 C88_2 1_555 1_555
H80_2 C96_2 1_555 1_555
C97_2 C94_2 1_555 1_555
C98_2 C88_2 1_555 1_555
C99_2 C96_2 1_555 1_555
H81_2 C99_2 1_555 1_555
N18_2 N16_2 1_555 1_555
N19 Cu11 1_555 1_555
C100_2 H82_2 1_555 1_555
H83_2 C100_2 1_555 1_555
H84_2 C100_2 1_555 1_555
C101 N19 1_555 1_555
C102_2 H85_2 1_555 1_555
H86_2 C102_2 1_555 1_555
H87_2 C102_2 1_555 1_555
C103_2 C104_2 1_555 1_555
C104_2 N16_2 1_555 1_555
C105_2 N17 1_555 1_555
C106_2 N18_2 1_555 1_555
C107_2 C87_2 1_555 1_555
H88_2 C107_2 1_555 1_555
C108 C101 1_555 1_555
C109_2 C90_2 1_555 1_555
C110_2 C95_2 1_555 1_555
H89_2 C110_2 1_555 1_555
C111_2 C99_2 1_555 1_555
C112 C101 1_555 1_555
H90 C112 1_555 1_555
H91 C112 1_555 1_555
H92 C112 1_555 1_555
C113 C106_2 1_555 1_555
H93 C113 1_555 1_555
H94 C113 1_555 1_555
H95 C113 1_555 1_555
Cu17_2 N22_2 1_555 1_555
Cu18_2 N21_2 1_555 1_555
O22_2 Cu2_2 1_555 1_555
O23_2 Cu1_2 1_555 1_555
C114_2 O22_2 1_555 1_555
C115_2 H96_2 1_555 1_555
C116_2 C115_2 1_555 1_555
C117_2 C116_2 1_555 1_555
H97_2 C117_2 1_555 1_555
C118_2 C116_2 1_555 1_555
C119_2 C115_2 1_555 1_555
H98_2 C119_2 1_555 1_555
C120_2 C114_2 1_555 1_555
C121_2 C117_2 1_555 1_555
H99_2 C121_2 1_555 1_555
N21_2 N22_2 1_555 1_555
N22_2 C129_2 1_555 1_555
C122_2 H100_2 1_555 1_555
H101_2 C122_2 1_555 1_555
H102_2 C122_2 1_555 1_555
C125_2 C118_2 1_555 1_555
C127_2 H105_2 1_555 1_555
H106_2 C127_2 1_555 1_555
H107_2 C127_2 1_555 1_555
C129_2 C118_2 1_555 1_555
Cu21 O19_2 1_555 1_555
Cu24 O13_2 1_555 1_555
Cu27 O18_2 1_555 1_555
Cu30 O12_2 1_555 1_555
C7_2 C8_2 1_555 1_555
N2_2 C12_2 1_555 1_555
C9_2 C12_2 1_555 1_555
C14_2 C16_2 1_555 1_555
N5 N7 1_555 1_555
C25_2 C28_2 1_555 1_555
C28_2 C34 1_555 1_555
C34 C37_2 1_555 1_555
C36_2 C37_2 1_555 1_555
O11_2 C42_2 1_555 1_555
C47_2 C48_2 1_555 1_555
C48_2 C49_2 1_555 1_555
N8_2 C53_2 1_555 1_555
C50_2 C53_2 1_555 1_555
C55_2 C57_2 1_555 1_555
C56_2 C58_2 1_555 1_555
C64_2 C68_2 1_555 1_555
C67_2 C70_2 1_555 1_555
C67_2 C73_2 1_555 1_555
C71_2 C73_2 1_555 1_555
O17_2 C78_2 1_555 1_555
C83_2 C84_2 1_555 1_555
C84_2 C85_2 1_555 1_555
N14_2 C89_2 1_555 1_555
C86_2 C89_2 1_555 1_555
C91_2 C93_2 1_555 1_555
C92_2 C94_2 1_555 1_555
N17 N19 1_555 1_555
C100_2 C104_2 1_555 1_555
C102_2 C105_2 1_555 1_555
C103_2 C106_2 1_555 1_555
C103_2 C109_2 1_555 1_555
C105_2 C108 1_555 1_555
C107_2 C109_2 1_555 1_555
C108 C111_2 1_555 1_555
C110_2 C111_2 1_555 1_555
O23_2 C114_2 1_555 1_555
C119_2 C120_2 1_555 1_555
C120_2 C121_2 1_555 1_555
N21_2 C125_2 1_555 1_555
C122_2 C125_2 1_555 1_555
C127_2 C129_2 1_555 1_555
Cu21 O4_2 1_555 1_555
Cu27 O3_2 1_555 1_555
Cu5 N6_2 1_555 1_555
O3_2 C20_2 1_555 1_555
O4_2 C20_2 1_555 1_555
N1 Cu21 1_555 1_555
O8_2 Cu27 1_555 1_555
C10_2 H8_2 1_555 1_555
C13_2 H9 1_555 1_555
C15_2 C13_2 1_555 1_555
H13 C15_2 1_555 1_555
C17_2 C10_2 1_555 1_555
C20_2 C17_2 1_555 1_555
N6_2 N4_2 1_555 1_555
C23_2 H17_2 1_555 1_555
H18_2 C23_2 1_555 1_555
H19_2 C23_2 1_555 1_555
C26_2 C27_2 1_555 1_555
C27_2 N4_2 1_555 1_555
C29_2 N6_2 1_555 1_555
C30_2 C10_2 1_555 1_555
H23_2 C30_2 1_555 1_555
C31 H24 1_555 1_555
C32 C31 1_555 1_555
H25 C32 1_555 1_555
C33 N1 1_555 1_555
H26 C33 1_555 1_555
C35_2 C13_2 1_555 1_555
H28 C38 1_555 1_555
H29 C38 1_555 1_555
H30 C38 1_555 1_555
C39 C29_2 1_555 1_555
H31 C39 1_555 1_555
H32 C39 1_555 1_555
H33 C39 1_555 1_555
C40 C31 1_555 1_555
H34 C40 1_555 1_555
C41 N1 1_555 1_555
H35 C41 1_555 1_555
Cu24 O25_2 1_555 1_555
Cu30 O24_2 1_555 1_555
O24_2 C133_2 1_555 1_555
O25_2 C133_2 1_555 1_555
O28_2 Cu30 1_555 1_555
C123_2 H103_2 1_555 1_555
C128_2 C126_2 1_555 1_555
C130_2 C123_2 1_555 1_555
C133_2 C130_2 1_555 1_555
N25_2 N23_2 1_555 1_555
C136_2 H112_2 1_555 1_555
H113_2 C136_2 1_555 1_555
H114_2 C136_2 1_555 1_555
C139_2 C140_2 1_555 1_555
C140_2 N23_2 1_555 1_555
C142_2 N25_2 1_555 1_555
C143_2 C123_2 1_555 1_555
H118_2 C143_2 1_555 1_555
C148_2 C126_2 1_555 1_555
C15_2 C17_2 1_555 1_555
C23_2 C27_2 1_555 1_555
C26_2 C29_2 1_555 1_555
C26_2 C35_2 1_555 1_555
C30_2 C35_2 1_555 1_555
C32 C33 1_555 1_555
C40 C41 1_555 1_555
C128_2 C130_2 1_555 1_555
C136_2 C140_2 1_555 1_555
C139_2 C142_2 1_555 1_555
C139_2 C148_2 1_555 1_555
C143_2 C148_2 1_555 1_555
O34 C62_2 1_555 1_555
O38 C62_2 1_555 1_555
C52_2 C59_2 1_555 1_555
C59_2 H49_2 1_555 1_555
C60_2 C52_2 1_555 1_555
H50_2 C60_2 1_555 1_555
C62_2 C52_2 1_555 1_555
C63_2 C60_2 1_555 1_555
H51_2 C63_2 1_555 1_555
N13_2 Cu8_2 1_555 1_555
C65_2 N13_2 1_555 1_555
C66_2 H55_2 1_555 1_555
H56_2 C66_2 1_555 1_555
H57_2 C66_2 1_555 1_555
C69_2 N11_2 1_555 1_555
C72_2 C65_2 1_555 1_555
C74_2 C59_2 1_555 1_555
H59_2 C74_2 1_555 1_555
C75_2 C63_2 1_555 1_555
C76_2 C65_2 1_555 1_555
H60_2 C76_2 1_555 1_555
H61_2 C76_2 1_555 1_555
H62_2 C76_2 1_555 1_555
H63_2 C77_2 1_555 1_555
H64_2 C77_2 1_555 1_555
H65_2 C77_2 1_555 1_555
O36 C134_2 1_555 1_555
O40 C134_2 1_555 1_555
C124_2 C131_2 1_555 1_555
C132_2 C124_2 1_555 1_555
H110_2 C132_2 1_555 1_555
C134_2 C124_2 1_555 1_555
C135_2 C132_2 1_555 1_555
H111_2 C135_2 1_555 1_555
C137_2 N26_2 1_555 1_555
C138_2 H115_2 1_555 1_555
H116_2 C138_2 1_555 1_555
H117_2 C138_2 1_555 1_555
C141_2 N24_2 1_555 1_555
C147_2 C137_2 1_555 1_555
C149_2 C131_2 1_555 1_555
C150_2 C135_2 1_555 1_555
N11_2 N13_2 1_555 1_555
C66_2 C69_2 1_555 1_555
C69_2 C72_2 1_555 1_555
C72_2 C75_2 1_555 1_555
C74_2 C75_2 1_555 1_555
N24_2 N26_2 1_555 1_555
C138_2 C141_2 1_555 1_555
C141_2 C147_2 1_555 1_555
C147_2 C150_2 1_555 1_555
C149_2 C150_2 1_555 1_555
C144_2 H119_2 1_555 1_555
C145_2 C144_2 1_555 1_555
H120_2 C145_2 1_555 1_555
C146_2 N20_2 1_555 1_555
H121_2 C146_2 1_555 1_555
H123_2 C151_2 1_555 1_555
H124_2 C151_2 1_555 1_555
H125_2 C151_2 1_555 1_555
H126_2 C152_2 1_555 1_555
H127_2 C152_2 1_555 1_555
H128_2 C152_2 1_555 1_555
C153_2 C144_2 1_555 1_555
H129_2 C153_2 1_555 1_555
C154_2 N20_2 1_555 1_555
H130_2 C154_2 1_555 1_555
C145_2 C146_2 1_555 1_555
C153_2 C154_2 1_555 1_555
C24_2 N7_2 1_555 1_555
C34_2 C24_2 1_555 1_555
N19_2 Cu11_2 1_555 1_555
C101_2 N19_2 1_555 1_555
C108_2 C101_2 1_555 1_555
C112_2 C101_2 1_555 1_555
H90_2 C112_2 1_555 1_555
H91_2 C112_2 1_555 1_555
H92_2 C112_2 1_555 1_555
H93_2 C113_2 1_555 1_555
H94_2 C113_2 1_555 1_555
H95_2 C113_2 1_555 1_555
N5_2 N7_2 1_555 1_555
N17_2 N19_2 1_555 1_555
C31_2 H24_2 1_555 1_555
C32_2 C31_2 1_555 1_555
H25_2 C32_2 1_555 1_555
C33_2 N1_2 1_555 1_555
H26_2 C33_2 1_555 1_555
H28_2 C38_2 1_555 1_555
H29_2 C38_2 1_555 1_555
H30_2 C38_2 1_555 1_555
H31_2 C39_2 1_555 1_555
H32_2 C39_2 1_555 1_555
H33_2 C39_2 1_555 1_555
C40_2 C31_2 1_555 1_555
H34_2 C40_2 1_555 1_555
C41_2 N1_2 1_555 1_555
H35_2 C41_2 1_555 1_555
C32_2 C33_2 1_555 1_555
C40_2 C41_2 1_555 1_555
H90_3 C112_3 1_555 1_555
H91_3 C112_3 1_555 1_555
H92_3 C112_3 1_555 1_555
H93_3 C113_3 1_555 1_555
H94_3 C113_3 1_555 1_555
H95_3 C113_3 1_555 1_555
N7_3 Cu5_3 1_555 1_555
C24_3 N7_3 1_555 1_555
C31_3 H24_3 1_555 1_555
C32_3 C31_3 1_555 1_555
H25_3 C32_3 1_555 1_555
C33_3 N1_3 1_555 1_555
H26_3 C33_3 1_555 1_555
C34_3 C24_3 1_555 1_555
C38_3 C24_3 1_555 1_555
H28_3 C38_3 1_555 1_555
H29_3 C38_3 1_555 1_555
H30_3 C38_3 1_555 1_555
H31_3 C39_3 1_555 1_555
H32_3 C39_3 1_555 1_555
H33_3 C39_3 1_555 1_555
C40_3 C31_3 1_555 1_555
H34_3 C40_3 1_555 1_555
C41_3 N1_3 1_555 1_555
H35_3 C41_3 1_555 1_555
C101_3 N19_3 1_555 1_555
C108_3 C101_3 1_555 1_555
N5_3 N7_3 1_555 1_555
C32_3 C33_3 1_555 1_555
C40_3 C41_3 1_555 1_555
N17_3 N19_3 1_555 1_555
Cu8_3 N12_3 1_555 1_555
O12_3 C61_3 1_555 1_555
O13_3 C61_3 1_555 1_555
C51_3 H43_3 1_555 1_555
C54_3 H44_3 1_555 1_555
C56_3 C54_3 1_555 1_555
H48_3 C56_3 1_555 1_555
C58_3 C51_3 1_555 1_555
C61_3 C58_3 1_555 1_555
N12_3 N10_3 1_555 1_555
C64_3 H52_3 1_555 1_555
H53_3 C64_3 1_555 1_555
H54_3 C64_3 1_555 1_555
C67_3 C68_3 1_555 1_555
C68_3 N10_3 1_555 1_555
C70_3 N12_3 1_555 1_555
C71_3 C51_3 1_555 1_555
H58_3 C71_3 1_555 1_555
C73_3 C54_3 1_555 1_555
H60_3 C76_3 1_555 1_555
H61_3 C76_3 1_555 1_555
H62_3 C76_3 1_555 1_555
C77_3 C70_3 1_555 1_555
H63_3 C77_3 1_555 1_555
H64_3 C77_3 1_555 1_555
H65_3 C77_3 1_555 1_555
O18_3 C97_3 1_555 1_555
O19_3 C97_3 1_555 1_555
C87_3 H73_3 1_555 1_555
C92_3 C90_3 1_555 1_555
C94_3 C87_3 1_555 1_555
C97_3 C94_3 1_555 1_555
N18_3 N16_3 1_555 1_555
C100_3 H82_3 1_555 1_555
H83_3 C100_3 1_555 1_555
H84_3 C100_3 1_555 1_555
C103_3 C104_3 1_555 1_555
C104_3 N16_3 1_555 1_555
C106_3 N18_3 1_555 1_555
C107_3 C87_3 1_555 1_555
H88_3 C107_3 1_555 1_555
C109_3 C90_3 1_555 1_555
Cu19_2 O19_3 1_555 1_555
Cu22_2 O13_3 1_555 1_555
Cu25_2 O18_3 1_555 1_555
Cu28_2 O12_3 1_555 1_555
C56_3 C58_3 1_555 1_555
C64_3 C68_3 1_555 1_555
C67_3 C70_3 1_555 1_555
C67_3 C73_3 1_555 1_555
C71_3 C73_3 1_555 1_555
C92_3 C94_3 1_555 1_555
C100_3 C104_3 1_555 1_555
C103_3 C106_3 1_555 1_555
C103_3 C109_3 1_555 1_555
C107_3 C109_3 1_555 1_555
O6_2 C21_3 1_555 1_555
O7_2 C21_3 1_555 1_555
C11_3 C18_3 1_555 1_555
C18_3 H14_3 1_555 1_555
C19_3 C11_3 1_555 1_555
H15_3 C19_3 1_555 1_555
C21_3 C11_3 1_555 1_555
C22_3 C19_3 1_555 1_555
H16_3 C22_3 1_555 1_555
C25_3 H20_3 1_555 1_555
H21_3 C25_3 1_555 1_555
H22_3 C25_3 1_555 1_555
C36_3 C18_3 1_555 1_555
H27_3 C36_3 1_555 1_555
C37_3 C22_3 1_555 1_555
O20_2 C98_3 1_555 1_555
O21_2 C98_3 1_555 1_555
C88_3 C95_3 1_555 1_555
C96_3 C88_3 1_555 1_555
H80_3 C96_3 1_555 1_555
C98_3 C88_3 1_555 1_555
C99_3 C96_3 1_555 1_555
H81_3 C99_3 1_555 1_555
C102_3 H85_3 1_555 1_555
H86_3 C102_3 1_555 1_555
H87_3 C102_3 1_555 1_555
C110_3 C95_3 1_555 1_555
C111_3 C99_3 1_555 1_555
Cu20 O21_2 1_555 1_555
Cu23 O7_2 1_555 1_555
Cu26 O20_2 1_555 1_555
Cu29 O6_2 1_555 1_555
C25_3 C28_3 1_555 1_555
C36_3 C37_3 1_555 1_555
C102_3 C105_3 1_555 1_555
C110_3 C111_3 1_555 1_555
O14_2 C62_3 1_555 1_555
O15_2 C62_3 1_555 1_555
C52_3 C59_3 1_555 1_555
C60_3 C52_3 1_555 1_555
H50_3 C60_3 1_555 1_555
C62_3 C52_3 1_555 1_555
C63_3 C60_3 1_555 1_555
H51_3 C63_3 1_555 1_555
C66_3 H55_3 1_555 1_555
H56_3 C66_3 1_555 1_555
H57_3 C66_3 1_555 1_555
C74_3 C59_3 1_555 1_555
C75_3 C63_3 1_555 1_555
O26_2 C134_3 1_555 1_555
O27_2 C134_3 1_555 1_555
C124_3 C131_3 1_555 1_555
C131_3 H109_3 1_555 1_555
C132_3 C124_3 1_555 1_555
H110_3 C132_3 1_555 1_555
C134_3 C124_3 1_555 1_555
C135_3 C132_3 1_555 1_555
H111_3 C135_3 1_555 1_555
C138_3 H115_3 1_555 1_555
H116_3 C138_3 1_555 1_555
H117_3 C138_3 1_555 1_555
C149_3 C131_3 1_555 1_555
H122_3 C149_3 1_555 1_555
C150_3 C135_3 1_555 1_555
Cu20 O15_2 1_555 1_555
Cu23 O27_2 1_555 1_555
Cu26 O14_2 1_555 1_555
Cu29 O26_2 1_555 1_555
C66_3 C69_3 1_555 1_555
C74_3 C75_3 1_555 1_555
C138_3 C141_3 1_555 1_555
C149_3 C150_3 1_555 1_555
Cu1_3 O2_3 1_555 1_555
Cu2_3 O1_3 1_555 1_555
Cu19_2 O4_3 1_555 1_555
Cu25_2 O3_3 1_555 1_555
Cu6_3 N3_3 1_555 1_555
Cu7_3 N2_3 1_555 1_555
O1_3 C1_3 1_555 1_555
O2_3 C1_3 1_555 1_555
O3_3 C20_3 1_555 1_555
C1_3 C7_3 1_555 1_555
O4_3 C20_3 1_555 1_555
O5_3 Cu2_3 1_555 1_555
C2_3 H1_3 1_555 1_555
C3_3 C2_3 1_555 1_555
C4_3 C3_3 1_555 1_555
C5_3 C3_3 1_555 1_555
O8_3 Cu25_2 1_555 1_555
C6_3 C2_3 1_555 1_555
H3_3 C6_3 1_555 1_555
C7_3 C6_3 1_555 1_555
C8_3 C4_3 1_555 1_555
N2_3 N3_3 1_555 1_555
N3_3 C16_3 1_555 1_555
N4_3 Cu7_3 1_555 1_555
C9_3 H5_3 1_555 1_555
H6_3 C9_3 1_555 1_555
H7_3 C9_3 1_555 1_555
C10_3 H8_3 1_555 1_555
C12_3 C5_3 1_555 1_555
C14_3 H10_3 1_555 1_555
H11_3 C14_3 1_555 1_555
C15_3 C13_3 1_555 1_555
C16_3 C5_3 1_555 1_555
C17_3 C10_3 1_555 1_555
C20_3 C17_3 1_555 1_555
N6_3 N4_3 1_555 1_555
C23_3 H17_3 1_555 1_555
H18_3 C23_3 1_555 1_555
H19_3 C23_3 1_555 1_555
C26_3 C27_3 1_555 1_555
C27_3 N4_3 1_555 1_555
C29_3 N6_3 1_555 1_555
C30_3 C10_3 1_555 1_555
H23_3 C30_3 1_555 1_555
C35_3 C13_3 1_555 1_555
Cu9_3 N9_3 1_555 1_555
Cu10_3 N8_3 1_555 1_555
O10_3 Cu2_3 1_555 1_555
O11_3 Cu1_3 1_555 1_555
C42_3 O10_3 1_555 1_555
C43_3 H36_3 1_555 1_555
C44_3 C43_3 1_555 1_555
C45_3 C44_3 1_555 1_555
C46_3 C44_3 1_555 1_555
C47_3 C43_3 1_555 1_555
H38_3 C47_3 1_555 1_555
C48_3 C42_3 1_555 1_555
C49_3 C45_3 1_555 1_555
N8_3 N9_3 1_555 1_555
N9_3 C57_3 1_555 1_555
C50_3 H40_3 1_555 1_555
H41_3 C50_3 1_555 1_555
H42_3 C50_3 1_555 1_555
C53_3 C46_3 1_555 1_555
C55_3 H45_3 1_555 1_555
H46_3 C55_3 1_555 1_555
N11_3 Cu9_3 1_555 1_555
C57_3 C46_3 1_555 1_555
C65_3 N13_3 1_555 1_555
C72_3 C65_3 1_555 1_555
Cu12_3 N15_3 1_555 1_555
Cu13_3 N14_3 1_555 1_555
O16_3 Cu2_3 1_555 1_555
O17_3 Cu1_3 1_555 1_555
C78_3 O16_3 1_555 1_555
C79_3 H66_3 1_555 1_555
C80_3 C79_3 1_555 1_555
C81_3 C80_3 1_555 1_555
C82_3 C80_3 1_555 1_555
C83_3 C79_3 1_555 1_555
H68_3 C83_3 1_555 1_555
C84_3 C78_3 1_555 1_555
C85_3 C81_3 1_555 1_555
N14_3 N15_3 1_555 1_555
N15_3 C93_3 1_555 1_555
C86_3 H70_3 1_555 1_555
H71_3 C86_3 1_555 1_555
H72_3 C86_3 1_555 1_555
C89_3 C82_3 1_555 1_555
C91_3 H75_3 1_555 1_555
H76_3 C91_3 1_555 1_555
C93_3 C82_3 1_555 1_555
Cu22_2 O25_3 1_555 1_555
Cu28_2 O24_3 1_555 1_555
Cu16_3 N25_3 1_555 1_555
Cu17_3 N22_3 1_555 1_555
Cu18_3 N21_3 1_555 1_555
O22_3 Cu2_3 1_555 1_555
O23_3 Cu1_3 1_555 1_555
O24_3 C133_3 1_555 1_555
C114_3 O22_3 1_555 1_555
O25_3 C133_3 1_555 1_555
N20_3 Cu22_2 1_555 1_555
C115_3 H96_3 1_555 1_555
C116_3 C115_3 1_555 1_555
C117_3 C116_3 1_555 1_555
C118_3 C116_3 1_555 1_555
O28_3 Cu28_2 1_555 1_555
C119_3 C115_3 1_555 1_555
H98_3 C119_3 1_555 1_555
C120_3 C114_3 1_555 1_555
C121_3 C117_3 1_555 1_555
N21_3 N22_3 1_555 1_555
N22_3 C129_3 1_555 1_555
N23_3 Cu18_3 1_555 1_555
C122_3 H100_3 1_555 1_555
H101_3 C122_3 1_555 1_555
H102_3 C122_3 1_555 1_555
C123_3 H103_3 1_555 1_555
C125_3 C118_3 1_555 1_555
C126_3 H104_3 1_555 1_555
C127_3 H105_3 1_555 1_555
H106_3 C127_3 1_555 1_555
C128_3 C126_3 1_555 1_555
H108_3 C128_3 1_555 1_555
N24_3 Cu17_3 1_555 1_555
C129_3 C118_3 1_555 1_555
C130_3 C123_3 1_555 1_555
C133_3 C130_3 1_555 1_555
N25_3 N23_3 1_555 1_555
N26_3 Cu16_3 1_555 1_555
C136_3 H112_3 1_555 1_555
H113_3 C136_3 1_555 1_555
H114_3 C136_3 1_555 1_555
C137_3 N26_3 1_555 1_555
C139_3 C140_3 1_555 1_555
C140_3 N23_3 1_555 1_555
C142_3 N25_3 1_555 1_555
C143_3 C123_3 1_555 1_555
H118_3 C143_3 1_555 1_555
C144_3 H119_3 1_555 1_555
C145_3 C144_3 1_555 1_555
H120_3 C145_3 1_555 1_555
C146_3 N20_3 1_555 1_555
H121_3 C146_3 1_555 1_555
C147_3 C137_3 1_555 1_555
C148_3 C126_3 1_555 1_555
C151_3 C137_3 1_555 1_555
H123_3 C151_3 1_555 1_555
H124_3 C151_3 1_555 1_555
H125_3 C151_3 1_555 1_555
C152_3 C142_3 1_555 1_555
H126_3 C152_3 1_555 1_555
H127_3 C152_3 1_555 1_555
H128_3 C152_3 1_555 1_555
C153_3 C144_3 1_555 1_555
H129_3 C153_3 1_555 1_555
C154_3 N20_3 1_555 1_555
H130_3 C154_3 1_555 1_555
O33_2 Cu25_2 1_555 1_555
O34_2 Cu28_2 1_555 1_555
O35_2 Cu28_2 1_555 1_555
O36_2 Cu25_2 1_555 1_555
O37_2 Cu19_2 1_555 1_555
O38_2 Cu22_2 1_555 1_555
O39_2 Cu22_2 1_555 1_555
O40_2 Cu19_2 1_555 1_555
C7_3 C8_3 1_555 1_555
N2_3 C12_3 1_555 1_555
C9_3 C12_3 1_555 1_555
C14_3 C16_3 1_555 1_555
C15_3 C17_3 1_555 1_555
C23_3 C27_3 1_555 1_555
C26_3 C29_3 1_555 1_555
C26_3 C35_3 1_555 1_555
C30_3 C35_3 1_555 1_555
O11_3 C42_3 1_555 1_555
C47_3 C48_3 1_555 1_555
C48_3 C49_3 1_555 1_555
N8_3 C53_3 1_555 1_555
C50_3 C53_3 1_555 1_555
C55_3 C57_3 1_555 1_555
N11_3 N13_3 1_555 1_555
O17_3 C78_3 1_555 1_555
C83_3 C84_3 1_555 1_555
C84_3 C85_3 1_555 1_555
N14_3 C89_3 1_555 1_555
C86_3 C89_3 1_555 1_555
C91_3 C93_3 1_555 1_555
O23_3 C114_3 1_555 1_555
C119_3 C120_3 1_555 1_555
C120_3 C121_3 1_555 1_555
N21_3 C125_3 1_555 1_555
C122_3 C125_3 1_555 1_555
C127_3 C129_3 1_555 1_555
C128_3 C130_3 1_555 1_555
N24_3 N26_3 1_555 1_555
C136_3 C140_3 1_555 1_555
C139_3 C142_3 1_555 1_555
C139_3 C148_3 1_555 1_555
C143_3 C148_3 1_555 1_555
C145_3 C146_3 1_555 1_555
C153_3 C154_3 1_555 1_555
H60_4 C76_4 1_555 1_555
H61_4 C76_4 1_555 1_555
H62_4 C76_4 1_555 1_555
H63_4 C77_4 1_555 1_555
H64_4 C77_4 1_555 1_555
H65_4 C77_4 1_555 1_555
O33_2 C62_4 1_555 1_555
O37_2 C62_4 1_555 1_555
C52_4 C59_4 1_555 1_555
C60_4 C52_4 1_555 1_555
H50_4 C60_4 1_555 1_555
C62_4 C52_4 1_555 1_555
C63_4 C60_4 1_555 1_555
H51_4 C63_4 1_555 1_555
C65_4 N13_4 1_555 1_555
C66_4 H55_4 1_555 1_555
H56_4 C66_4 1_555 1_555
H57_4 C66_4 1_555 1_555
C69_4 N11_4 1_555 1_555
C72_4 C65_4 1_555 1_555
C74_4 C59_4 1_555 1_555
C75_4 C63_4 1_555 1_555
O35_2 C134_4 1_555 1_555
O39_2 C134_4 1_555 1_555
C124_4 C131_4 1_555 1_555
C131_4 H109_4 1_555 1_555
C132_4 C124_4 1_555 1_555
H110_4 C132_4 1_555 1_555
C134_4 C124_4 1_555 1_555
C135_4 C132_4 1_555 1_555
H111_4 C135_4 1_555 1_555
N26_4 Cu16_4 1_555 1_555
C137_4 N26_4 1_555 1_555
C138_4 H115_4 1_555 1_555
H116_4 C138_4 1_555 1_555
H117_4 C138_4 1_555 1_555
C141_4 N24_4 1_555 1_555
C144_4 H119_4 1_555 1_555
C145_4 C144_4 1_555 1_555
H120_4 C145_4 1_555 1_555
C146_4 N20_4 1_555 1_555
H121_4 C146_4 1_555 1_555
C147_4 C137_4 1_555 1_555
C149_4 C131_4 1_555 1_555
H122_4 C149_4 1_555 1_555
C150_4 C135_4 1_555 1_555
C151_4 C137_4 1_555 1_555
H123_4 C151_4 1_555 1_555
H124_4 C151_4 1_555 1_555
H125_4 C151_4 1_555 1_555
H126_4 C152_4 1_555 1_555
H127_4 C152_4 1_555 1_555
H128_4 C152_4 1_555 1_555
C153_4 C144_4 1_555 1_555
H129_4 C153_4 1_555 1_555
C154_4 N20_4 1_555 1_555
H130_4 C154_4 1_555 1_555
N11_4 N13_4 1_555 1_555
C66_4 C69_4 1_555 1_555
C69_4 C72_4 1_555 1_555
C72_4 C75_4 1_555 1_555
C74_4 C75_4 1_555 1_555
N24_4 N26_4 1_555 1_555
C138_4 C141_4 1_555 1_555
C141_4 C147_4 1_555 1_555
C145_4 C146_4 1_555 1_555
C147_4 C150_4 1_555 1_555
C149_4 C150_4 1_555 1_555
C153_4 C154_4 1_555 1_555
O12_4 C61_4 1_555 1_555
O13_4 C61_4 1_555 1_555
C51_4 H43_4 1_555 1_555
C56_4 C54_4 1_555 1_555
C58_4 C51_4 1_555 1_555
C61_4 C58_4 1_555 1_555
N12_4 N10_4 1_555 1_555
C64_4 H52_4 1_555 1_555
H53_4 C64_4 1_555 1_555
H54_4 C64_4 1_555 1_555
C67_4 C68_4 1_555 1_555
C68_4 N10_4 1_555 1_555
C70_4 N12_4 1_555 1_555
C71_4 C51_4 1_555 1_555
H58_4 C71_4 1_555 1_555
C73_4 C54_4 1_555 1_555
Cu11_4 N18_4 1_555 1_555
O18_4 C97_4 1_555 1_555
O19_4 C97_4 1_555 1_555
C87_4 H73_4 1_555 1_555
C90_4 H74_4 1_555 1_555
C92_4 C90_4 1_555 1_555
H78_4 C92_4 1_555 1_555
C94_4 C87_4 1_555 1_555
C97_4 C94_4 1_555 1_555
N18_4 N16_4 1_555 1_555
C100_4 H82_4 1_555 1_555
H83_4 C100_4 1_555 1_555
H84_4 C100_4 1_555 1_555
C103_4 C104_4 1_555 1_555
C104_4 N16_4 1_555 1_555
C106_4 N18_4 1_555 1_555
C107_4 C87_4 1_555 1_555
H88_4 C107_4 1_555 1_555
C109_4 C90_4 1_555 1_555
H90_4 C112_4 1_555 1_555
H91_4 C112_4 1_555 1_555
H92_4 C112_4 1_555 1_555
C113_4 C106_4 1_555 1_555
H93_4 C113_4 1_555 1_555
H94_4 C113_4 1_555 1_555
H95_4 C113_4 1_555 1_555
Cu23 O19_4 1_555 1_555
Cu20 O13_4 1_555 1_555
Cu29 O18_4 1_555 1_555
Cu26 O12_4 1_555 1_555
C56_4 C58_4 1_555 1_555
C64_4 C68_4 1_555 1_555
C67_4 C70_4 1_555 1_555
C67_4 C73_4 1_555 1_555
C71_4 C73_4 1_555 1_555
C92_4 C94_4 1_555 1_555
C100_4 C104_4 1_555 1_555
C103_4 C106_4 1_555 1_555
C103_4 C109_4 1_555 1_555
C107_4 C109_4 1_555 1_555
Cu1_4 O2_4 1_555 1_555
Cu2_4 O1_4 1_555 1_555
Cu23 O4_4 1_555 1_555
Cu29 O3_4 1_555 1_555
Cu5_4 N6_4 1_555 1_555
Cu6_4 N3_4 1_555 1_555
Cu7_4 N2_4 1_555 1_555
O1_4 C1_4 1_555 1_555
O2_4 C1_4 1_555 1_555
O3_4 C20_4 1_555 1_555
C1_4 C7_4 1_555 1_555
O4_4 C20_4 1_555 1_555
O5_4 Cu2_4 1_555 1_555
N1_4 Cu23 1_555 1_555
C2_4 H1_4 1_555 1_555
C3_4 C2_4 1_555 1_555
C4_4 C3_4 1_555 1_555
H2_4 C4_4 1_555 1_555
C5_4 C3_4 1_555 1_555
O34_2 C21_4 1_555 1_555
O38_2 C21_4 1_555 1_555
O8_4 Cu29 1_555 1_555
C6_4 C2_4 1_555 1_555
H3_4 C6_4 1_555 1_555
C7_4 C6_4 1_555 1_555
C8_4 C4_4 1_555 1_555
H4_4 C8_4 1_555 1_555
N2_4 N3_4 1_555 1_555
N3_4 C16_4 1_555 1_555
N4_4 Cu7_4 1_555 1_555
C9_4 H5_4 1_555 1_555
H6_4 C9_4 1_555 1_555
H7_4 C9_4 1_555 1_555
C10_4 H8_4 1_555 1_555
C11_4 C18_4 1_555 1_555
C12_4 C5_4 1_555 1_555
C13_4 H9_4 1_555 1_555
O9_4 Cu1_4 1_555 1_555
C14_4 H10_4 1_555 1_555
H11_4 C14_4 1_555 1_555
H12_4 C14_4 1_555 1_555
C15_4 C13_4 1_555 1_555
H13_4 C15_4 1_555 1_555
N5_4 Cu6_4 1_555 1_555
C16_4 C5_4 1_555 1_555
C17_4 C10_4 1_555 1_555
C18_4 H14_4 1_555 1_555
C19_4 C11_4 1_555 1_555
H15_4 C19_4 1_555 1_555
C20_4 C17_4 1_555 1_555
C21_4 C11_4 1_555 1_555
C22_4 C19_4 1_555 1_555
H16_4 C22_4 1_555 1_555
N6_4 N4_4 1_555 1_555
N7_4 Cu5_4 1_555 1_555
C23_4 H17_4 1_555 1_555
H18_4 C23_4 1_555 1_555
H19_4 C23_4 1_555 1_555
C24_4 N7_4 1_555 1_555
C25_4 H20_4 1_555 1_555
H21_4 C25_4 1_555 1_555
H22_4 C25_4 1_555 1_555
C26_4 C27_4 1_555 1_555
C27_4 N4_4 1_555 1_555
C28_4 N5_4 1_555 1_555
C29_4 N6_4 1_555 1_555
C30_4 C10_4 1_555 1_555
H23_4 C30_4 1_555 1_555
C31_4 H24_4 1_555 1_555
C32_4 C31_4 1_555 1_555
H25_4 C32_4 1_555 1_555
C33_4 N1_4 1_555 1_555
H26_4 C33_4 1_555 1_555
C34_4 C24_4 1_555 1_555
C35_4 C13_4 1_555 1_555
C36_4 C18_4 1_555 1_555
H27_4 C36_4 1_555 1_555
C37_4 C22_4 1_555 1_555
C38_4 C24_4 1_555 1_555
H28_4 C38_4 1_555 1_555
H29_4 C38_4 1_555 1_555
H30_4 C38_4 1_555 1_555
C39_4 C29_4 1_555 1_555
H31_4 C39_4 1_555 1_555
H32_4 C39_4 1_555 1_555
H33_4 C39_4 1_555 1_555
C40_4 C31_4 1_555 1_555
H34_4 C40_4 1_555 1_555
C41_4 N1_4 1_555 1_555
H35_4 C41_4 1_555 1_555
Cu9_4 N9_4 1_555 1_555
Cu10_4 N8_4 1_555 1_555
O10_4 Cu2_4 1_555 1_555
O11_4 Cu1_4 1_555 1_555
C42_4 O10_4 1_555 1_555
C43_4 H36_4 1_555 1_555
C44_4 C43_4 1_555 1_555
C45_4 C44_4 1_555 1_555
H37_4 C45_4 1_555 1_555
C46_4 C44_4 1_555 1_555
C47_4 C43_4 1_555 1_555
H38_4 C47_4 1_555 1_555
C48_4 C42_4 1_555 1_555
C49_4 C45_4 1_555 1_555
H39_4 C49_4 1_555 1_555
N8_4 N9_4 1_555 1_555
N9_4 C57_4 1_555 1_555
C50_4 H40_4 1_555 1_555
H41_4 C50_4 1_555 1_555
H42_4 C50_4 1_555 1_555
C53_4 C46_4 1_555 1_555
C55_4 H45_4 1_555 1_555
H46_4 C55_4 1_555 1_555
H47_4 C55_4 1_555 1_555
C57_4 C46_4 1_555 1_555
Cu12_4 N15_4 1_555 1_555
Cu13_4 N14_4 1_555 1_555
O16_4 Cu2_4 1_555 1_555
O17_4 Cu1_4 1_555 1_555
C78_4 O16_4 1_555 1_555
C79_4 H66_4 1_555 1_555
C80_4 C79_4 1_555 1_555
C81_4 C80_4 1_555 1_555
H67_4 C81_4 1_555 1_555
C82_4 C80_4 1_555 1_555
O36_2 C98_4 1_555 1_555
O40_2 C98_4 1_555 1_555
C83_4 C79_4 1_555 1_555
H68_4 C83_4 1_555 1_555
C84_4 C78_4 1_555 1_555
C85_4 C81_4 1_555 1_555
H69_4 C85_4 1_555 1_555
N14_4 N15_4 1_555 1_555
N15_4 C93_4 1_555 1_555
C86_4 H70_4 1_555 1_555
H71_4 C86_4 1_555 1_555
H72_4 C86_4 1_555 1_555
C88_4 C95_4 1_555 1_555
C89_4 C82_4 1_555 1_555
C91_4 H75_4 1_555 1_555
H76_4 C91_4 1_555 1_555
H77_4 C91_4 1_555 1_555
N17_4 Cu12_4 1_555 1_555
C93_4 C82_4 1_555 1_555
C96_4 C88_4 1_555 1_555
H80_4 C96_4 1_555 1_555
C98_4 C88_4 1_555 1_555
C99_4 C96_4 1_555 1_555
H81_4 C99_4 1_555 1_555
C101_4 N19_4 1_555 1_555
C102_4 H85_4 1_555 1_555
H86_4 C102_4 1_555 1_555
H87_4 C102_4 1_555 1_555
C105_4 N17_4 1_555 1_555
C108_4 C101_4 1_555 1_555
C110_4 C95_4 1_555 1_555
C111_4 C99_4 1_555 1_555
Cu20 O25_4 1_555 1_555
Cu26 O24_4 1_555 1_555
Cu17_4 N22_4 1_555 1_555
Cu18_4 N21_4 1_555 1_555
O22_4 Cu2_4 1_555 1_555
O23_4 Cu1_4 1_555 1_555
O24_4 C133_4 1_555 1_555
C114_4 O22_4 1_555 1_555
O25_4 C133_4 1_555 1_555
C115_4 H96_4 1_555 1_555
C116_4 C115_4 1_555 1_555
C117_4 C116_4 1_555 1_555
H97_4 C117_4 1_555 1_555
C118_4 C116_4 1_555 1_555
O28_4 Cu26 1_555 1_555
C119_4 C115_4 1_555 1_555
H98_4 C119_4 1_555 1_555
C120_4 C114_4 1_555 1_555
C121_4 C117_4 1_555 1_555
H99_4 C121_4 1_555 1_555
N21_4 N22_4 1_555 1_555
N22_4 C129_4 1_555 1_555
N23_4 Cu18_4 1_555 1_555
C122_4 H100_4 1_555 1_555
H101_4 C122_4 1_555 1_555
H102_4 C122_4 1_555 1_555
C123_4 H103_4 1_555 1_555
C125_4 C118_4 1_555 1_555
C127_4 H105_4 1_555 1_555
H106_4 C127_4 1_555 1_555
H107_4 C127_4 1_555 1_555
C128_4 C126_4 1_555 1_555
C129_4 C118_4 1_555 1_555
C130_4 C123_4 1_555 1_555
C133_4 C130_4 1_555 1_555
N25_4 N23_4 1_555 1_555
C136_4 H112_4 1_555 1_555
H113_4 C136_4 1_555 1_555
H114_4 C136_4 1_555 1_555
C139_4 C140_4 1_555 1_555
C140_4 N23_4 1_555 1_555
C142_4 N25_4 1_555 1_555
C143_4 C123_4 1_555 1_555
H118_4 C143_4 1_555 1_555
C148_4 C126_4 1_555 1_555
C7_4 C8_4 1_555 1_555
N2_4 C12_4 1_555 1_555
C9_4 C12_4 1_555 1_555
C14_4 C16_4 1_555 1_555
C15_4 C17_4 1_555 1_555
N5_4 N7_4 1_555 1_555
C23_4 C27_4 1_555 1_555
C25_4 C28_4 1_555 1_555
C26_4 C29_4 1_555 1_555
C26_4 C35_4 1_555 1_555
C28_4 C34_4 1_555 1_555
C30_4 C35_4 1_555 1_555
C32_4 C33_4 1_555 1_555
C34_4 C37_4 1_555 1_555
C36_4 C37_4 1_555 1_555
C40_4 C41_4 1_555 1_555
O11_4 C42_4 1_555 1_555
C47_4 C48_4 1_555 1_555
C48_4 C49_4 1_555 1_555
N8_4 C53_4 1_555 1_555
C50_4 C53_4 1_555 1_555
C55_4 C57_4 1_555 1_555
O17_4 C78_4 1_555 1_555
C83_4 C84_4 1_555 1_555
C84_4 C85_4 1_555 1_555
N14_4 C89_4 1_555 1_555
C86_4 C89_4 1_555 1_555
C91_4 C93_4 1_555 1_555
N17_4 N19_4 1_555 1_555
C102_4 C105_4 1_555 1_555
C105_4 C108_4 1_555 1_555
C108_4 C111_4 1_555 1_555
C110_4 C111_4 1_555 1_555
O23_4 C114_4 1_555 1_555
C119_4 C120_4 1_555 1_555
C120_4 C121_4 1_555 1_555
N21_4 C125_4 1_555 1_555
C122_4 C125_4 1_555 1_555
C127_4 C129_4 1_555 1_555
C128_4 C130_4 1_555 1_555
C136_4 C140_4 1_555 1_555
C139_4 C142_4 1_555 1_555
C139_4 C148_4 1_555 1_555
C143_4 C148_4 1_555 1_555

#END
