
###############################################################################
#
# This file contains modified crystal structure data generated from the
# MOF subset of the Cambridge Structural Database (CSD) v543 
# hosted by the Cambridge Crystallographic Data Centre (CCDC).
#
# This work is licensed under the Creative Commons
# Attribution-NonCommercial-ShareAlike 4.0 International License.
# To view a copy of this license, visit
# http://creativecommons.org/licenses/by-nc-sa/4.0/
# or send a letter to
# Creative Commons, PO Box 1866, Mountain View, CA 94042, USA.
#
# CIF created using the CSD Python API on 29 September 2022
# The structure has been converted into the P1 space group
# The structure has a 3D framework
# The original CSD entry MIMDAP is in the triclinic crystal system
# The framework has been calculated to contain at least 10.0% void space
# The void calculation uses a probe of radius 1.32A, grid spacing 0.4
#
###############################################################################

data_MIMDAP
_chemical_formula_moiety         '(C30 H40 Mo8 N30 Ni6 O22)n'
_symmetry_cell_setting           triclinic
_symmetry_space_group_name_H-M   'P 1'
_symmetry_Int_Tables_number      1
_space_group_name_Hall           'P 1'
loop_
_symmetry_equiv_pos_site_id
_symmetry_equiv_pos_as_xyz
1 x,y,z
_cell_length_a                   10.661(5)
_cell_length_b                   11.998(5)
_cell_length_c                   13.878(5)
_cell_angle_alpha                72.774(5)
_cell_angle_beta                 79.859(5)
_cell_angle_gamma                81.106(5)
_cell_volume                     1659.09
loop_
_atom_site_label
_atom_site_type_symbol
_atom_site_fract_x
_atom_site_fract_y
_atom_site_fract_z
O6 O 0.0457(6) 0.0011(5) 0.1398(4)
O9 O 0.0540(6) 0.1667(5) 0.2458(4)
Ni2 Ni 0.0000 0.0000 0.0000
Mo10 Mo 0.14817(7) 0.01247(6) 0.53183(5)
Ni4 Ni -0.0000 0.5000 0.5000
O28 O 0.0972(6) 0.1611(5) 0.4996(4)
Ni2_2 Ni 0.0000 -0.0000 1.0000
N31 N 0.1919(8) 0.0109(7) 0.9353(5)
C13 C 0.1109(12) 0.7330(9) 0.0881(8)
H18 H 0.1740 0.7519 0.1172
N2 N 0.0987(11) 0.6256(8) 0.0882(7)
N12 N 0.0206(8) 0.8135(7) 0.0405(6)
O2 O 0.0894(6) 0.9773(5) 0.4191(4)
O4 O 0.2518(6) 0.9937(6) 0.2291(5)
Ni2_3 Ni 0.0000 1.0000 0.0000
Mo4 Mo 0.09085(7) 0.99939(6) 0.25373(5)
H21 H 0.1195 0.2229 0.0205
H22 H 0.1263 0.4414 0.0059
O35 O 0.0673(6) 0.8392(5) 0.3225(4)
Mo12 Mo 0.12315(7) 0.78596(6) 0.45423(5)
Ni2_4 Ni 0.0000 1.0000 1.0000
C16 C 0.0487(10) 0.2519(9) 0.9863(7)
C17 C 0.0519(12) 0.4665(9) 0.9702(8)
H23 H 0.0781 0.5181 0.9035
N17 N 0.0040(9) 0.3627(7) 0.9582(6)
C1 C 0.2380(10) 0.5376(9) 0.3314(8)
H1 H 0.2573 0.6017 0.3484
C2 C 0.1435(9) 0.4003(8) 0.3284(7)
H2 H 0.0842 0.3467 0.3408
C4 C 0.2947(9) 0.3253(8) 0.1968(7)
H4 H 0.3594 0.3609 0.1428
H5 H 0.2249 0.3137 0.1657
C5 C 0.3518(10) 0.2076(9) 0.2581(8)
H6 H 0.2894 0.1748 0.3155
H7 H 0.3726 0.1539 0.2159
C6 C 0.5873(9) 0.2090(8) 0.2508(7)
H8 H 0.6123 0.1926 0.1883
C7 C 0.4254(10) 0.2246(10) 0.6739(9)
H9 H 0.4609 0.2506 0.7223
H10 H 0.4811 0.2443 0.6094
C8 C 0.1268(14) 0.3858(11) 0.6983(9)
H11 H 0.0594 0.4222 0.7343
C9 C 0.2377(10) 0.3296(9) 0.5791(7)
H12 H 0.2684 0.3148 0.5166
C11 C 0.2301(10) 0.0397(9) 0.8345(7)
H15 H 0.1772 0.0476 0.7857
C12 C 0.4253(10) 0.0910(9) 0.7117(7)
H16 H 0.3880 0.0643 0.6646
H17 H 0.5129 0.0542 0.7134
C14 C 0.2986(13) 0.0085(16) 0.9698(9)
C15 C 0.5855(10) 0.2410(9) 0.3907(7)
H20 H 0.6137 0.2506 0.4472
N1 N 0.4647(8) 0.2423(8) 0.3867(6)
N3 N 0.4013(10) 0.0345(14) 0.8983(8)
N4 N 0.1295(7) 0.3935(6) 0.5979(6)
N5 N 0.3112(8) 0.4934(8) 0.2597(7)
N6 N 0.2464(7) 0.4050(7) 0.2612(6)
N8 N 0.2240(11) 0.3245(10) 0.7403(7)
N9 N 0.2972(8) 0.2892(8) 0.6603(6)
N10 N 0.3518(8) 0.0551(7) 0.8140(6)
N13 N 0.1348(7) 0.4819(6) 0.3764(5)
N14 N 0.4689(8) 0.2201(7) 0.2955(6)
N15 N 0.6679(8) 0.2254(7) 0.3098(5)
O3 O 0.7163(6) 0.2330(6) 0.5855(4)
O5 O 0.8374(6) 0.2259(6) 0.1501(5)
O7 O 0.9198(6) 0.3558(5) 0.5002(4)
O10 O 0.8661(6) 0.1734(5) 0.4242(4)
O11 O 0.9327(6) 0.1608(5) 0.6775(4)
O12 O 0.8792(6) 0.0288(5) 0.3247(4)
O13 O 0.8852(7) 0.3651(6) 0.2581(5)
Mo2 Mo 0.87851(8) 0.22137(7) 0.26338(5)
Ni2_5 Ni 1.0000 0.0000 0.0000
Mo3 Mo 0.87685(7) 0.21404(6) 0.54577(5)
Ni4_2 Ni 1.0000 0.5000 0.5000
O30 O 0.9106(6) 0.0227(5) 0.5809(4)
O33 O 0.0802(6) 0.6442(5) 0.4998(4)
Mo14 Mo 0.90915(7) 0.00061(6) 0.74627(5)
Ni2_6 Ni 1.0000 -0.0000 1.0000
N33 N 0.9794(8) 0.1865(7) 0.9595(6)
H19 H 0.3037 0.9902 0.0390
Mo1 Mo 0.85183(7) 0.98753(6) 0.46817(5)
C3 C 0.9513(10) 0.7481(9) 0.0137(7)
C10 C 0.9481(12) 0.5335(9) 0.0298(8)
H14 H 0.9219 0.4819 0.0965
N7 N 0.9960(9) 0.6373(7) 0.0418(6)
O1 O 0.9028(6) 0.8389(5) 0.5004(4)
O8 O 0.6917(6) 0.9953(5) 0.4984(5)
Ni2_7 Ni 1.0000 1.0000 0.0000
N32 N 0.8081(8) 0.9891(7) 0.0647(5)
H3 H 0.8805 0.7771 0.9795
H13 H 0.8737 0.5586 0.9941
Ni2_8 Ni 1.0000 1.0000 1.0000
C18 C 0.8891(12) 0.2670(9) 0.9119(8)
H24 H 0.8260 0.2481 0.8828
N16 N 0.9013(11) 0.3744(8) 0.9118(7)
O31 O 0.9543(6) 0.9989(5) 0.8602(4)
O21 O 0.3083(6) 0.0047(5) 0.5016(5)
H39 H 0.6963 0.0098 0.9610
C19 C 0.7620(10) 0.4624(9) 0.6686(8)
H25 H 0.7427 0.3983 0.6516
C20 C 0.8565(9) 0.5997(8) 0.6716(7)
H26 H 0.9158 0.6533 0.6592
C21 C 0.7053(9) 0.6747(8) 0.8032(7)
H27 H 0.6406 0.6391 0.8572
H28 H 0.7751 0.6863 0.8343
C22 C 0.6482(10) 0.7924(9) 0.7419(8)
H29 H 0.7106 0.8252 0.6845
H30 H 0.6274 0.8461 0.7841
C23 C 0.4127(9) 0.7910(8) 0.7492(7)
H31 H 0.3877 0.8074 0.8117
C24 C 0.5746(10) 0.7754(10) 0.3261(9)
H32 H 0.5391 0.7494 0.2777
H33 H 0.5189 0.7557 0.3906
C25 C 0.8732(14) 0.6142(11) 0.3017(9)
H34 H 0.9406 0.5778 0.2657
C26 C 0.7623(10) 0.6704(9) 0.4209(7)
H35 H 0.7316 0.6852 0.4834
C27 C 0.7699(10) 0.9603(9) 0.1655(7)
H36 H 0.8228 0.9524 0.2143
C28 C 0.5747(10) 0.9090(9) 0.2883(7)
H37 H 0.6120 0.9357 0.3354
H38 H 0.4871 0.9458 0.2866
C29 C 0.7014(13) 0.9915(16) 0.0302(9)
C30 C 0.4145(10) 0.7590(9) 0.6093(7)
H40 H 0.3863 0.7494 0.5528
N19 N 0.5353(8) 0.7577(8) 0.6133(6)
N20 N 0.5987(10) 0.9655(14) 0.1017(8)
N21 N 0.8705(7) 0.6065(6) 0.4021(6)
N22 N 0.6888(8) 0.5066(8) 0.7403(7)
N23 N 0.7536(7) 0.5950(7) 0.7388(6)
N24 N 0.7760(11) 0.6755(10) 0.2597(7)
N25 N 0.7028(8) 0.7108(8) 0.3397(6)
N26 N 0.6482(8) 0.9449(7) 0.1860(6)
N28 N 0.8652(7) 0.5181(6) 0.6236(5)
N29 N 0.5311(8) 0.7799(7) 0.7045(6)
N30 N 0.3321(8) 0.7746(7) 0.6902(5)
O16 O 0.2837(6) 0.7670(6) 0.4145(4)
O18 O 0.1626(6) 0.7741(6) 0.8499(5)
O23 O 0.1339(6) 0.8266(5) 0.5758(4)
O25 O 0.1208(6) 0.9712(5) 0.6753(4)
O26 O 0.1148(7) 0.6349(6) 0.7419(5)
Mo6 Mo 0.12149(8) 0.77863(7) 0.73662(5)
O17 O 0.7482(6) 0.0063(6) 0.7709(5)
O22 O 0.9460(6) 0.8333(5) 0.7542(4)
loop_
_geom_bond_atom_site_label_1
_geom_bond_atom_site_label_2
_geom_bond_site_symmetry_1
_geom_bond_site_symmetry_2
O6 Ni2 1_555 1_555
Mo10 O28 1_555 1_555
N31 Ni2_2 1_555 1_555
C13 H18 1_555 1_555
N2 C13 1_555 1_555
O4 Mo4 1_555 1_555
Ni2_3 N12 1_555 1_555
Mo4 O2 1_555 1_555
O35 Mo4 1_555 1_555
Mo12 O2 1_555 1_555
C13 N12 1_555 1_555
O35 Mo12 1_555 1_555
H23 C17 1_555 1_555
N17 C16 1_555 1_555
C17 N17 1_555 1_555
Ni4 N4 1_555 1_555
C1 H1 1_555 1_555
C2 H2 1_555 1_555
C4 H4 1_555 1_555
H5 C4 1_555 1_555
C5 C4 1_555 1_555
H6 C5 1_555 1_555
H7 C5 1_555 1_555
C6 H8 1_555 1_555
C7 H9 1_555 1_555
H10 C7 1_555 1_555
C8 H11 1_555 1_555
C9 H12 1_555 1_555
C11 H15 1_555 1_555
C12 C7 1_555 1_555
H16 C12 1_555 1_555
H17 C12 1_555 1_555
C15 H20 1_555 1_555
N1 C15 1_555 1_555
N3 C14 1_555 1_555
N4 C8 1_555 1_555
N5 C1 1_555 1_555
N6 C2 1_555 1_555
N8 C8 1_555 1_555
N9 C7 1_555 1_555
N10 C11 1_555 1_555
N31 C11 1_555 1_555
N13 Ni4 1_555 1_555
N14 C5 1_555 1_555
N15 C6 1_555 1_555
O3 Mo3 1_555 1_555
O5 Mo2 1_555 1_555
O7 Mo3 1_555 1_555
O11 Mo3 1_555 1_555
O13 Mo2 1_555 1_555
Mo2 N15 1_555 1_555
Mo3 O10 1_555 1_555
Ni4_2 O7 1_555 1_555
O33 Ni4 1_555 1_555
Mo14 O11 1_555 1_555
C1 N13 1_555 1_555
C2 N13 1_555 1_555
C4 N6 1_555 1_555
C6 N14 1_555 1_555
C9 N4 1_555 1_555
C9 N9 1_555 1_555
C12 N10 1_555 1_555
C14 N31 1_555 1_555
C15 N15 1_555 1_555
N1 N14 1_555 1_555
N3 N10 1_555 1_555
N5 N6 1_555 1_555
N8 N9 1_555 1_555
O10 Mo2 1_555 1_555
O12 Mo2 1_555 1_555
Mo3 O30 1_555 1_555
O30 Mo14 1_555 1_555
N33 Ni2_6 1_555 1_555
Mo1 O1 1_555 1_555
H14 C10 1_555 1_555
N7 C3 1_555 1_555
O8 Mo1 1_555 1_555
N32 Ni2_7 1_555 1_555
C10 N7 1_555 1_555
C18 H24 1_555 1_555
N16 C18 1_555 1_555
O31 Ni2_8 1_555 1_555
C18 N33 1_555 1_555
O21 Mo10 1_555 1_555
C19 H25 1_555 1_555
C20 H26 1_555 1_555
C21 H27 1_555 1_555
H28 C21 1_555 1_555
C22 C21 1_555 1_555
H29 C22 1_555 1_555
H30 C22 1_555 1_555
C23 H31 1_555 1_555
C24 H32 1_555 1_555
H33 C24 1_555 1_555
C25 H34 1_555 1_555
C26 H35 1_555 1_555
C27 H36 1_555 1_555
C28 C24 1_555 1_555
H37 C28 1_555 1_555
H38 C28 1_555 1_555
C30 H40 1_555 1_555
N19 C30 1_555 1_555
N20 C29 1_555 1_555
N21 Ni4_2 1_555 1_555
N22 C19 1_555 1_555
N23 C20 1_555 1_555
N24 C25 1_555 1_555
N25 C24 1_555 1_555
N26 C27 1_555 1_555
N32 C27 1_555 1_555
N28 Ni4_2 1_555 1_555
N29 C22 1_555 1_555
N30 C23 1_555 1_555
O16 Mo12 1_555 1_555
O18 Mo6 1_555 1_555
O33 Mo12 1_555 1_555
O26 Mo6 1_555 1_555
Mo6 N30 1_555 1_555
Mo12 O23 1_555 1_555
C19 N28 1_555 1_555
C20 N28 1_555 1_555
C21 N23 1_555 1_555
C23 N29 1_555 1_555
C25 N21 1_555 1_555
C26 N21 1_555 1_555
C26 N25 1_555 1_555
C28 N26 1_555 1_555
C29 N32 1_555 1_555
C30 N30 1_555 1_555
N19 N29 1_555 1_555
N20 N26 1_555 1_555
N22 N23 1_555 1_555
N24 N25 1_555 1_555
O23 Mo6 1_555 1_555
O25 Mo6 1_555 1_555
O17 Mo14 1_555 1_555

#END
