
###############################################################################
#
# This file contains modified crystal structure data generated from the
# MOF subset of the Cambridge Structural Database (CSD) v543 
# hosted by the Cambridge Crystallographic Data Centre (CCDC).
#
# This work is licensed under the Creative Commons
# Attribution-NonCommercial-ShareAlike 4.0 International License.
# To view a copy of this license, visit
# http://creativecommons.org/licenses/by-nc-sa/4.0/
# or send a letter to
# Creative Commons, PO Box 1866, Mountain View, CA 94042, USA.
#
# CIF created using the CSD Python API on 29 September 2022
# The structure has been converted into the P1 space group
# The structure has a 3D framework
# The original CSD entry MIMSOS is in the monoclinic crystal system
# The framework has been calculated to contain at least 10.0% void space
# The void calculation uses a probe of radius 1.32A, grid spacing 0.4
#
###############################################################################

data_MIMSOS
_chemical_formula_moiety         '(C240 H192 N32 O60 Zn16)n'
_symmetry_cell_setting           triclinic
_symmetry_space_group_name_H-M   'P 1'
_symmetry_Int_Tables_number      1
_space_group_name_Hall           'P 1'
loop_
_symmetry_equiv_pos_site_id
_symmetry_equiv_pos_as_xyz
1 x,y,z
_cell_length_a                   12.2241(3)
_cell_length_b                   31.2482(7)
_cell_length_c                   24.8982(5)
_cell_angle_alpha                90
_cell_angle_beta                 97.846(1)
_cell_angle_gamma                90
_cell_volume                     9421.61
loop_
_atom_site_label
_atom_site_type_symbol
_atom_site_fract_x
_atom_site_fract_y
_atom_site_fract_z
O12 O 0.00571(19) 0.24614(8) 0.17499(9)
C60 C 0.0836(3) 0.14533(10) 0.02977(13)
O15 O 0.14290(19) 0.13131(8) 0.07134(9)
Zn5 Zn 0.11069(3) 0.230573(12) 0.244983(15)
Zn9 Zn 0.30369(3) 0.126743(13) 0.084820(15)
H9 H 0.0138 0.2489 0.6575
O16 O 0.12068(19) 0.15950(7) 0.98825(9)
Zn7 Zn 0.20700(3) 0.138347(12) 0.932283(15)
C41 C 0.8182(3) 0.26602(11) 0.02115(14)
C42 C 0.7032(3) 0.25711(11) 0.01584(13)
C44 C 0.8824(3) 0.26219(12) 0.07312(13)
H40 H 0.9596 0.2674 0.0769
C45 C 0.8347(3) 0.25118(11) 0.11763(13)
C46 C 0.7203(3) 0.24303(13) 0.11212(14)
H41 H 0.6872 0.2353 0.1431
C47 C 0.6563(3) 0.24606(13) 0.06269(13)
H42 H 0.5793 0.2406 0.0599
C48 C 0.9024(3) 0.24637(11) 0.17203(13)
O11 O 0.8485(2) 0.24303(8) 0.21172(9)
O14 O 0.39145(19) 0.15361(7) 0.03176(9)
C54 C 0.7347(3) 0.14332(12) 0.03380(13)
C55 C 0.6189(3) 0.14266(11) 0.03400(14)
H45 H 0.5900 0.1402 0.0674
C57 C 0.9626(3) 0.14510(11) 0.03076(14)
C58 C 0.9207(3) 0.13987(12) 0.08089(14)
H47 H 0.9702 0.1367 0.1135
C59 C 0.8105(3) 0.13933(13) 0.08213(14)
H48 H 0.7833 0.1362 0.1159
Zn6 Zn 0.91037(3) 0.242989(12) 0.291381(15)
N9 N 0.3259(2) 0.18098(9) 0.13665(11)
O18 O 0.4170(2) 0.08344(8) 0.11348(11)
O19 O 0.2748(2) 0.07941(9) 0.15802(13)
Zn1 Zn 0.61069(3) 0.269427(12) 0.744983(15)
Zn2 Zn 0.41037(3) 0.257011(12) 0.791381(15)
N1 N 0.7472(2) 0.27725(8) 0.70536(10)
N2 N 0.8259(2) 0.31902(9) 0.63665(11)
N3 N 0.8486(2) 0.24131(9) 0.64017(12)
N4 N 0.9470(2) 0.28593(10) 0.71142(12)
C1 C 0.7323(3) 0.31490(11) 0.66884(13)
H1 H 0.7274 0.3411 0.6907
H2 H 0.6623 0.3119 0.6439
C2 C 0.7569(3) 0.23792(10) 0.67138(13)
H3 H 0.7676 0.2125 0.6953
H4 H 0.6874 0.2339 0.6464
C3 C 0.8543(3) 0.28231(12) 0.74242(14)
H5 H 0.8508 0.3082 0.7650
H6 H 0.8657 0.2573 0.7669
C4 C 0.8326(3) 0.27836(11) 0.60503(13)
H7 H 0.7636 0.2747 0.5795
H8 H 0.8947 0.2804 0.5834
C5 C 0.9502(3) 0.24709(12) 0.67815(15)
H10 H 0.9614 0.2218 0.7023
C6 C 0.9301(3) 0.32305(11) 0.67535(14)
H11 H 0.9935 0.3258 0.6547
H12 H 0.9269 0.3493 0.6973
N5 N 0.2706(2) 0.24473(9) 0.82728(10)
N6 N 0.1875(2) 0.19608(8) 0.88790(10)
N7 N 0.1538(3) 0.27330(9) 0.89122(12)
N8 N 0.0711(2) 0.23172(10) 0.81324(12)
C7 C 0.2845(3) 0.20506(10) 0.86011(13)
H13 H 0.2964 0.1807 0.8362
H14 H 0.3509 0.2078 0.8875
C8 C 0.2510(3) 0.28095(11) 0.86427(14)
H15 H 0.3166 0.2845 0.8920
H16 H 0.2407 0.3078 0.8430
C9 C 0.1684(3) 0.23982(12) 0.78675(14)
H17 H 0.1567 0.2662 0.7647
H18 H 0.1787 0.2158 0.7620
C10 C 0.1709(3) 0.23387(11) 0.92300(14)
H19 H 0.1061 0.2287 0.9420
H20 H 0.2365 0.2373 0.9508
C11 C 0.0575(3) 0.26730(12) 0.84944(16)
H22 H 0.0450 0.2939 0.8278
C12 C 0.0882(3) 0.19268(11) 0.84522(14)
H23 H 0.0983 0.1683 0.8209
H24 H 0.0219 0.1869 0.8629
O1 O 0.5461(2) 0.32840(7) 0.73886(10)
O2 O 0.4061(2) 0.32284(7) 0.78776(10)
C13 C 0.4648(3) 0.34344(11) 0.75851(14)
C14 C 0.4349(3) 0.38908(11) 0.74566(14)
C15 C 0.3418(3) 0.40810(12) 0.76444(16)
H25 H 0.3002 0.3921 0.7870
C16 C 0.3113(3) 0.44915(12) 0.75037(16)
H26 H 0.2501 0.4617 0.7642
C17 C 0.3702(3) 0.47321(11) 0.71535(15)
C18 C 0.4636(3) 0.45439(11) 0.69626(14)
C19 C 0.4950(3) 0.41210(11) 0.71262(14)
H27 H 0.5581 0.3995 0.7006
C20 C 0.3380(3) 0.51491(11) 0.69783(14)
H28 H 0.2771 0.5282 0.7111
C21 C 0.3936(3) 0.53663(11) 0.66177(15)
C22 C 0.4866(3) 0.51793(12) 0.64320(15)
H29 H 0.5252 0.5331 0.6186
C23 C 0.5214(3) 0.47791(11) 0.66059(15)
H30 H 0.5852 0.4659 0.6485
C24 C 0.3486(3) 0.57856(11) 0.63876(15)
O3 O 0.2754(2) 0.59795(8) 0.65853(11)
O4 O 0.3894(2) 0.59228(8) 0.59651(10)
O5 O 0.6273(2) 0.20606(8) 0.76099(10)
O6 O 0.4590(2) 0.19435(8) 0.78359(10)
C25 C 0.5529(3) 0.18220(11) 0.77518(13)
C26 C 0.5818(3) 0.13612(11) 0.78354(14)
C27 C 0.6866(3) 0.12095(12) 0.77391(16)
H31 H 0.7373 0.1401 0.7609
C28 C 0.7159(3) 0.07915(12) 0.78305(16)
H32 H 0.7865 0.0696 0.7763
C29 C 0.6425(3) 0.04996(11) 0.80241(14)
C30 C 0.5367(3) 0.06482(11) 0.81266(13)
C31 C 0.5089(3) 0.10824(11) 0.80229(13)
H33 H 0.4383 0.1183 0.8084
C32 C 0.6702(3) 0.00651(12) 0.81361(15)
C35 C 0.4651(3) 0.03604(11) 0.83456(15)
H36 H 0.3948 0.0457 0.8417
O9 O 0.6696(2) 0.27969(9) 0.82442(9)
O10 O 0.5190(2) 0.25982(8) 0.86045(9)
C37 C 0.6198(3) 0.27007(11) 0.86378(13)
C38 C 0.6871(3) 0.26980(11) 0.91933(13)
C39 C 0.8011(3) 0.27953(13) 0.92478(14)
H37 H 0.8336 0.2874 0.8937
C40 C 0.8648(3) 0.27779(13) 0.97409(14)
H38 H 0.9411 0.2845 0.9770
C43 C 0.6398(3) 0.25905(11) 0.96417(13)
H39 H 0.5631 0.2528 0.9605
O13 O 0.36678(19) 0.13738(8) 0.94358(9)
C49 C 0.4270(3) 0.14530(10) 0.98787(13)
C50 C 0.5483(3) 0.14557(11) 0.98666(13)
C51 C 0.5898(3) 0.14868(12) 0.93612(15)
H43 H 0.5403 0.1497 0.9032
C52 C 0.7012(3) 0.15020(12) 0.93510(14)
H44 H 0.7286 0.1528 0.9014
C53 C 0.7760(3) 0.14793(11) 0.98343(13)
C56 C 0.8918(3) 0.14912(11) 0.98341(14)
H46 H 0.9207 0.1527 0.9502
Zn8 Zn 0.29300(3) 0.638347(12) 0.567717(15)
Zn11 Zn 0.80369(3) 0.373257(13) 0.584820(15)
O17 O 0.1106(2) 0.09228(8) 0.90349(10)
O20 O 0.3485(2) 0.25697(8) 0.71172(9)
O21 O 0.50571(19) 0.25386(8) 0.67499(9)
H34 H 0.7391 0.9958 0.8059
C33 C 0.5989(3) 0.97952(12) 0.83546(15)
C34 C 0.4953(3) 0.99468(12) 0.84561(16)
H35 H 0.4460 0.9759 0.8603
C36 C 0.6387(3) 0.93582(12) 0.85442(15)
O7 O 0.5830(2) 0.91656(8) 0.88652(11)
O8 O 0.7252(2) 0.92059(9) 0.84198(13)
Zn10 Zn 0.69631(3) 0.873257(13) 0.915180(15)
C20_2 C 0.1620(3) 0.01491(11) 0.80217(14)
H28_2 H 0.2229 0.0282 0.7889
C21_2 C 0.1064(3) 0.03663(11) 0.83823(15)
C22_2 C 0.0134(3) 0.01793(12) 0.85680(15)
C24_2 C 0.1514(3) 0.07856(11) 0.86124(15)
O3_2 O 0.2246(2) 0.09795(8) 0.84147(11)
Zn2_2 Zn 0.08963(3) 0.757011(12) 0.708619(15)
Zn4 Zn 0.19631(3) 0.626743(13) 0.415180(15)
N5_2 N 0.2294(2) 0.74473(9) 0.67272(10)
N6_2 N 0.3125(2) 0.69608(8) 0.61210(10)
N7_2 N 0.3462(3) 0.77330(9) 0.60878(12)
N8_2 N 0.4289(2) 0.73172(10) 0.68676(12)
C7_2 C 0.2155(3) 0.70506(10) 0.63989(13)
H13_2 H 0.2036 0.6807 0.6638
H14_2 H 0.1491 0.7078 0.6125
C8_2 C 0.2490(3) 0.78095(11) 0.63573(14)
H15_2 H 0.1834 0.7845 0.6080
H16_2 H 0.2593 0.8078 0.6570
C9_2 C 0.3316(3) 0.73982(12) 0.71325(14)
H17_2 H 0.3433 0.7662 0.7353
H18_2 H 0.3213 0.7158 0.7380
C10_2 C 0.3291(3) 0.73387(11) 0.57700(14)
H19_2 H 0.3939 0.7287 0.5580
H20_2 H 0.2635 0.7373 0.5492
C11_2 C 0.4425(3) 0.76730(12) 0.65056(16)
H21 H 0.5088 0.7622 0.6326
H22_2 H 0.4550 0.7939 0.6722
C12_2 C 0.4118(3) 0.69268(11) 0.65478(14)
H23_2 H 0.4017 0.6683 0.6791
H24_2 H 0.4781 0.6869 0.6371
O2_2 O 0.0939(2) 0.82284(7) 0.71224(10)
C13_2 C 0.0352(3) 0.84344(11) 0.74149(14)
C14_2 C 0.0651(3) 0.88908(11) 0.75434(14)
C15_2 C 0.1582(3) 0.90810(12) 0.73556(16)
H25_2 H 0.1998 0.8921 0.7130
C16_2 C 0.1887(3) 0.94915(12) 0.74963(16)
H26_2 H 0.2499 0.9617 0.7358
C17_2 C 0.1298(3) 0.97321(11) 0.78465(15)
C18_2 C 0.0364(3) 0.95439(11) 0.80374(14)
C19_2 C 0.0050(3) 0.91210(11) 0.78738(14)
O6_2 O 0.0410(2) 0.69435(8) 0.71641(10)
H33_2 H 0.0617 0.6183 0.6916
C34_2 C 0.0047(3) 0.49468(12) 0.65439(16)
H35_2 H 0.0540 0.4759 0.6397
C35_2 C 0.0349(3) 0.53604(11) 0.66544(15)
H36_2 H 0.1052 0.5457 0.6583
O13_2 O 0.13322(19) 0.63738(8) 0.55642(9)
O14_2 O 0.10855(19) 0.65361(7) 0.46824(9)
C49_2 C 0.0730(3) 0.64530(10) 0.51213(13)
N9_2 N 0.1741(2) 0.68098(9) 0.36335(11)
O18_2 O 0.0830(2) 0.58344(8) 0.38652(11)
O19_2 O 0.2252(2) 0.57941(9) 0.34198(13)
O20_2 O 0.1515(2) 0.75697(8) 0.78828(9)
O22 O 0.35710(19) 0.63131(8) 0.42866(9)
O23 O 0.37932(19) 0.65950(7) 0.51175(9)
Zn1_2 Zn 0.88931(3) 0.769427(12) 0.755017(15)
N1_2 N 0.7528(2) 0.77725(8) 0.79464(10)
N2_2 N 0.6741(2) 0.81902(9) 0.86335(11)
N3_2 N 0.6514(2) 0.74131(9) 0.85983(12)
N4_2 N 0.5530(2) 0.78593(10) 0.78858(12)
C1_2 C 0.7677(3) 0.81490(11) 0.83116(13)
H1_2 H 0.7726 0.8411 0.8093
H2_2 H 0.8377 0.8119 0.8561
C2_2 C 0.7431(3) 0.73792(10) 0.82862(13)
H3_2 H 0.7324 0.7125 0.8047
H4_2 H 0.8126 0.7339 0.8536
C3_2 C 0.6457(3) 0.78231(12) 0.75758(14)
H5_2 H 0.6492 0.8082 0.7350
H6_2 H 0.6343 0.7573 0.7331
C4_2 C 0.6674(3) 0.77836(11) 0.89497(13)
H7_2 H 0.7364 0.7747 0.9205
H8_2 H 0.6053 0.7804 0.9166
C5_2 C 0.5498(3) 0.74709(12) 0.82185(15)
H9_2 H 0.4862 0.7489 0.8425
H10_2 H 0.5386 0.7218 0.7977
C6_2 C 0.5699(3) 0.82305(11) 0.82465(14)
H11_2 H 0.5065 0.8258 0.8453
H12_2 H 0.5731 0.8493 0.8027
O1_2 O 0.9539(2) 0.82840(7) 0.76114(10)
H27_2 H 0.9419 0.8995 0.7994
C23_2 C 0.9786(3) 0.97791(11) 0.83941(15)
H30_2 H 0.9148 0.9659 0.8515
O5_2 O 0.8727(2) 0.70606(8) 0.73901(10)
C25_2 C 0.9471(3) 0.68220(11) 0.72482(13)
C26_2 C 0.9182(3) 0.63612(11) 0.71646(14)
C27_2 C 0.8134(3) 0.62095(12) 0.72609(16)
H31_2 H 0.7627 0.6401 0.7391
C28_2 C 0.7841(3) 0.57915(12) 0.71695(16)
H32_2 H 0.7135 0.5696 0.7237
C29_2 C 0.8575(3) 0.54996(11) 0.69759(14)
C30_2 C 0.9633(3) 0.56482(11) 0.68734(13)
C31_2 C 0.9911(3) 0.60824(11) 0.69771(13)
C32_2 C 0.8298(3) 0.50651(12) 0.68639(15)
H34_2 H 0.7609 0.4958 0.6941
C33_2 C 0.9011(3) 0.47952(12) 0.66454(15)
C36_2 C 0.8613(3) 0.43582(12) 0.64558(15)
O7_2 O 0.9170(2) 0.41656(8) 0.61348(11)
O8_2 O 0.7748(2) 0.42059(9) 0.65802(13)
O9_2 O 0.8304(2) 0.77969(9) 0.67558(9)
O10_2 O 0.9810(2) 0.75982(8) 0.63955(9)
C37_2 C 0.8802(3) 0.77007(11) 0.63622(13)
C38_2 C 0.8129(3) 0.76980(11) 0.58067(13)
C39_2 C 0.6989(3) 0.77953(13) 0.57522(14)
H37_2 H 0.6664 0.7874 0.6063
C40_2 C 0.6352(3) 0.77779(13) 0.52591(14)
H38_2 H 0.5589 0.7845 0.5230
C41_2 C 0.6818(3) 0.76602(11) 0.47885(14)
C42_2 C 0.7968(3) 0.75711(11) 0.48416(13)
C43_2 C 0.8602(3) 0.75905(11) 0.53583(13)
H39_2 H 0.9369 0.7528 0.5395
C44_2 C 0.6176(3) 0.76219(12) 0.42688(13)
H40_2 H 0.5404 0.7674 0.4231
C45_2 C 0.6653(3) 0.75118(11) 0.38237(13)
C46_2 C 0.7797(3) 0.74303(13) 0.38788(14)
H41_2 H 0.8128 0.7353 0.3569
C47_2 C 0.8437(3) 0.74606(13) 0.43731(13)
H42_2 H 0.9207 0.7406 0.4401
C48_2 C 0.5976(3) 0.74637(11) 0.32797(13)
O11_2 O 0.6515(2) 0.74303(8) 0.28828(9)
O12_2 O 0.49429(19) 0.74614(8) 0.32501(9)
C50_2 C 0.9517(3) 0.64557(11) 0.51334(13)
C51_2 C 0.9102(3) 0.64868(12) 0.56388(15)
H43_2 H 0.9597 0.6497 0.5968
C52_2 C 0.7988(3) 0.65020(12) 0.56490(14)
H44_2 H 0.7714 0.6528 0.5986
C53_2 C 0.7240(3) 0.64793(11) 0.51657(13)
C54_2 C 0.7653(3) 0.64332(12) 0.46620(13)
C55_2 C 0.8811(3) 0.64266(11) 0.46600(14)
H45_2 H 0.9100 0.6402 0.4326
C56_2 C 0.6082(3) 0.64912(11) 0.51659(14)
H46_2 H 0.5793 0.6527 0.5498
C57_2 C 0.5374(3) 0.64510(11) 0.46924(14)
C58_2 C 0.5793(3) 0.63987(12) 0.41911(14)
H47_2 H 0.5298 0.6367 0.3865
C59_2 C 0.6895(3) 0.63933(13) 0.41787(14)
H48_2 H 0.7167 0.6362 0.3841
C60_2 C 0.4164(3) 0.64533(10) 0.47023(13)
Zn5_2 Zn 0.38931(3) 0.730573(12) 0.255017(15)
Zn6_2 Zn 0.58963(3) 0.742989(12) 0.208619(15)
O21_2 O 0.99429(19) 0.75386(8) 0.82501(9)
H34_3 H 0.2609 0.0042 0.1941
C33_3 C 0.4011(3) 0.02048(12) 0.16454(15)
C34_3 C 0.5047(3) 0.00532(12) 0.15439(16)
H35_3 H 0.5540 0.0241 0.1397
C36_3 C 0.3613(3) 0.06418(12) 0.14558(15)
Zn3 Zn 0.79300(3) 0.861653(12) 0.067717(15)
N1_3 N 0.2528(2) 0.72275(8) 0.29464(10)
N3_3 N 0.1514(2) 0.75869(9) 0.35983(12)
N4_3 N 0.0530(2) 0.71407(10) 0.28858(12)
C1_3 C 0.2677(3) 0.68510(11) 0.33116(13)
H1_3 H 0.2726 0.6589 0.3093
H2_3 H 0.3377 0.6881 0.3561
C2_3 C 0.2431(3) 0.76208(10) 0.32862(13)
H3_3 H 0.2324 0.7875 0.3047
H4_3 H 0.3126 0.7661 0.3536
C3_3 C 0.1457(3) 0.71769(12) 0.25758(14)
H5_3 H 0.1492 0.6918 0.2350
H6_3 H 0.1343 0.7427 0.2331
C4_3 C 0.1674(3) 0.72164(11) 0.39497(13)
H7_3 H 0.2364 0.7253 0.4205
H8_3 H 0.1053 0.7196 0.4166
C5_3 C 0.0498(3) 0.75291(12) 0.32185(15)
H10_3 H 0.0386 0.7782 0.2977
C6_3 C 0.0699(3) 0.67695(11) 0.32465(14)
H11_3 H 0.0065 0.6742 0.3453
H12_3 H 0.0731 0.6507 0.3027
N5_3 N 0.7294(2) 0.75527(9) 0.17272(10)
N6_3 N 0.8125(2) 0.80392(8) 0.11210(10)
N7_3 N 0.8462(3) 0.72670(9) 0.10878(12)
N8_3 N 0.9289(2) 0.76828(10) 0.18676(12)
C7_3 C 0.7155(3) 0.79494(10) 0.13989(13)
H13_3 H 0.7036 0.8193 0.1638
H14_3 H 0.6491 0.7922 0.1125
C8_3 C 0.7490(3) 0.71905(11) 0.13573(14)
H15_3 H 0.6834 0.7155 0.1080
H16_3 H 0.7593 0.6922 0.1570
C9_3 C 0.8316(3) 0.76018(12) 0.21325(14)
H17_3 H 0.8433 0.7338 0.2353
H18_3 H 0.8213 0.7842 0.2380
C10_3 C 0.8291(3) 0.76613(11) 0.07700(14)
H19_3 H 0.8939 0.7713 0.0580
H20_3 H 0.7635 0.7627 0.0492
C11_3 C 0.9425(3) 0.73270(12) 0.15056(16)
H22_3 H 0.9550 0.7061 0.1722
C12_3 C 0.9118(3) 0.80732(11) 0.15478(14)
H23_3 H 0.9017 0.8317 0.1791
H24_3 H 0.9781 0.8131 0.1371
O1_3 O 0.4539(2) 0.67160(7) 0.26114(10)
O2_3 O 0.5939(2) 0.67716(7) 0.21224(10)
C13_3 C 0.5352(3) 0.65656(11) 0.24149(14)
C14_3 C 0.5651(3) 0.61092(11) 0.25434(14)
C15_3 C 0.6582(3) 0.59190(12) 0.23556(16)
H25_3 H 0.6998 0.6079 0.2130
C16_3 C 0.6887(3) 0.55085(12) 0.24963(16)
H26_3 H 0.7499 0.5383 0.2358
C17_3 C 0.6298(3) 0.52679(11) 0.28465(15)
C18_3 C 0.5364(3) 0.54561(11) 0.30374(14)
C19_3 C 0.5050(3) 0.58790(11) 0.28738(14)
H27_3 H 0.4419 0.6005 0.2994
C20_3 C 0.6620(3) 0.48509(11) 0.30217(14)
H28_3 H 0.7229 0.4718 0.2889
C21_3 C 0.6064(3) 0.46337(11) 0.33823(15)
C22_3 C 0.5134(3) 0.48207(12) 0.35680(15)
H29_2 H 0.4748 0.4669 0.3814
C23_3 C 0.4786(3) 0.52209(11) 0.33941(15)
H30_3 H 0.4148 0.5341 0.3515
C24_3 C 0.6514(3) 0.42144(11) 0.36124(15)
O3_3 O 0.7246(2) 0.40205(8) 0.34147(11)
O4_2 O 0.6106(2) 0.40772(8) 0.40349(10)
O5_3 O 0.3727(2) 0.79394(8) 0.23901(10)
O6_3 O 0.5410(2) 0.80565(8) 0.21641(10)
C25_3 C 0.4471(3) 0.81780(11) 0.22482(13)
C26_3 C 0.4182(3) 0.86388(11) 0.21646(14)
C27_3 C 0.3134(3) 0.87905(12) 0.22609(16)
H31_3 H 0.2627 0.8599 0.2391
C28_3 C 0.2841(3) 0.92085(12) 0.21695(16)
H32_3 H 0.2135 0.9304 0.2237
C29_3 C 0.3575(3) 0.95004(11) 0.19759(14)
C30_3 C 0.4633(3) 0.93518(11) 0.18734(13)
C31_3 C 0.4911(3) 0.89176(11) 0.19771(13)
H33_3 H 0.5617 0.8817 0.1916
C32_3 C 0.3298(3) 0.99349(12) 0.18639(15)
C35_3 C 0.5349(3) 0.96396(11) 0.16544(15)
H36_3 H 0.6052 0.9543 0.1583
O9_3 O 0.3304(2) 0.72031(9) 0.17558(9)
O10_3 O 0.4810(2) 0.74018(8) 0.13955(9)
C37_3 C 0.3802(3) 0.72993(11) 0.13622(13)
C38_3 C 0.3129(3) 0.73020(11) 0.08067(13)
C39_3 C 0.1989(3) 0.72047(13) 0.07522(14)
H37_3 H 0.1664 0.7126 0.1063
C40_3 C 0.1352(3) 0.72221(13) 0.02591(14)
H38_3 H 0.0589 0.7155 0.0230
C43_3 C 0.3602(3) 0.74095(11) 0.03583(13)
H39_3 H 0.4369 0.7472 0.0395
O13_3 O 0.63322(19) 0.86262(8) 0.05642(9)
C49_3 C 0.5730(3) 0.85470(10) 0.01213(13)
C50_3 C 0.4517(3) 0.85443(11) 0.01334(13)
C51_3 C 0.4102(3) 0.85132(12) 0.06388(15)
H43_3 H 0.4597 0.8503 0.0968
C52_3 C 0.2988(3) 0.84980(12) 0.06490(14)
H44_3 H 0.2714 0.8472 0.0986
C53_3 C 0.2240(3) 0.85207(11) 0.01657(13)
C56_3 C 0.1082(3) 0.85088(11) 0.01659(14)
H46_3 H 0.0793 0.8473 0.0498
Zn8_2 Zn 0.70700(3) 0.361653(12) 0.432283(15)
O17_2 O 0.8894(2) 0.90772(8) 0.09651(10)
O23_2 O 0.87932(19) 0.84050(7) 0.01175(9)
C41_3 C 0.1818(3) 0.73398(11) 0.97885(14)
C42_3 C 0.2968(3) 0.74289(11) 0.98416(13)
C44_3 C 0.1176(3) 0.73781(12) 0.92688(13)
H40_3 H 0.0404 0.7326 0.9231
C45_3 C 0.1653(3) 0.74882(11) 0.88237(13)
C46_3 C 0.2797(3) 0.75697(13) 0.88788(14)
H41_3 H 0.3128 0.7647 0.8569
C47_3 C 0.3437(3) 0.75394(13) 0.93731(13)
H42_3 H 0.4207 0.7594 0.9401
C48_3 C 0.0976(3) 0.75363(11) 0.82797(13)
O14_3 O 0.60855(19) 0.84639(7) 0.96824(9)
C54_3 C 0.2653(3) 0.85668(12) 0.96620(13)
C55_3 C 0.3811(3) 0.85734(11) 0.96600(14)
H45_3 H 0.4100 0.8598 0.9326
C57_3 C 0.0374(3) 0.85490(11) 0.96924(14)
C58_3 C 0.0793(3) 0.86013(12) 0.91911(14)
H47_3 H 0.0298 0.8633 0.8865
C59_3 C 0.1895(3) 0.86067(13) 0.91787(14)
H48_3 H 0.2167 0.8638 0.8841
O22_2 O 0.85710(19) 0.86869(8) 0.92866(9)
H9_3 H 0.9862 0.7511 0.3425
C60_3 C 0.9164(3) 0.85467(10) 0.97023(13)
N1_4 N 0.2472(2) 0.22275(8) 0.20536(10)
N3_4 N 0.3486(2) 0.25869(9) 0.14017(12)
N4_4 N 0.4470(2) 0.21407(10) 0.21142(12)
C1_4 C 0.2323(3) 0.18510(11) 0.16884(13)
H1_4 H 0.2274 0.1589 0.1907
H2_4 H 0.1623 0.1881 0.1439
C2_4 C 0.2569(3) 0.26208(10) 0.17138(13)
H3_4 H 0.2676 0.2875 0.1953
H4_4 H 0.1874 0.2661 0.1464
C3_4 C 0.3543(3) 0.21769(12) 0.24242(14)
H5_4 H 0.3508 0.1918 0.2650
H6_4 H 0.3657 0.2427 0.2669
C4_4 C 0.3326(3) 0.22164(11) 0.10503(13)
H7_4 H 0.2636 0.2253 0.0795
H8_4 H 0.3947 0.2196 0.0834
C5_4 C 0.4502(3) 0.25291(12) 0.17815(15)
H9_4 H 0.5138 0.2511 0.1575
H10_4 H 0.4614 0.2782 0.2023
C6_4 C 0.4301(3) 0.17695(11) 0.17535(14)
H11_4 H 0.4935 0.1742 0.1547
H12_4 H 0.4269 0.1507 0.1973
O1_4 O 0.0461(2) 0.17160(7) 0.23886(10)
H27_4 H 0.0581 0.1005 0.2006
C23_4 C 0.0214(3) 0.02209(11) 0.16059(15)
H30_4 H 0.0852 0.0341 0.1485
O5_4 O 0.1273(2) 0.29394(8) 0.26099(10)
C25_4 C 0.0529(3) 0.31780(11) 0.27518(13)
C26_4 C 0.0818(3) 0.36388(11) 0.28354(14)
C27_4 C 0.1866(3) 0.37905(12) 0.27391(16)
H31_4 H 0.2373 0.3599 0.2609
C28_4 C 0.2159(3) 0.42085(12) 0.28305(16)
H32_4 H 0.2865 0.4304 0.2763
C29_4 C 0.1425(3) 0.45004(11) 0.30241(14)
C30_4 C 0.0367(3) 0.43518(11) 0.31266(13)
C31_4 C 0.0089(3) 0.39176(11) 0.30229(13)
C32_4 C 0.1702(3) 0.49349(12) 0.31361(15)
H34_4 H 0.2391 0.5042 0.3059
C33_4 C 0.0989(3) 0.52048(12) 0.33546(15)
C36_4 C 0.1387(3) 0.56418(12) 0.35442(15)
O9_4 O 0.1696(2) 0.22031(9) 0.32442(9)
O10_4 O 0.0190(2) 0.24018(8) 0.36045(9)
C37_4 C 0.1198(3) 0.22993(11) 0.36378(13)
C38_4 C 0.1871(3) 0.23020(11) 0.41933(13)
C39_4 C 0.3011(3) 0.22047(13) 0.42478(14)
H37_4 H 0.3336 0.2126 0.3937
C40_4 C 0.3648(3) 0.22221(13) 0.47409(14)
H38_4 H 0.4411 0.2155 0.4770
C41_4 C 0.3182(3) 0.23398(11) 0.52115(14)
C42_4 C 0.2032(3) 0.24289(11) 0.51584(13)
C43_4 C 0.1398(3) 0.24095(11) 0.46417(13)
H39_4 H 0.0631 0.2472 0.4605
C44_4 C 0.3824(3) 0.23781(12) 0.57312(13)
H40_4 H 0.4596 0.2326 0.5769
C45_4 C 0.3347(3) 0.24882(11) 0.61763(13)
C46_4 C 0.2203(3) 0.25697(13) 0.61212(14)
H41_4 H 0.1872 0.2647 0.6431
C47_4 C 0.1563(3) 0.25394(13) 0.56269(13)
H42_4 H 0.0793 0.2594 0.5599
C48_4 C 0.4024(3) 0.25363(11) 0.67203(13)
C50_4 C 0.0483(3) 0.35443(11) 0.48666(13)
C51_4 C 0.0898(3) 0.35132(12) 0.43612(15)
H43_4 H 0.0403 0.3503 0.4032
C52_4 C 0.2012(3) 0.34980(12) 0.43510(14)
H44_4 H 0.2286 0.3472 0.4014
C53_4 C 0.2760(3) 0.35207(11) 0.48343(13)
C54_4 C 0.2347(3) 0.35668(12) 0.53380(13)
C55_4 C 0.1189(3) 0.35734(11) 0.53400(14)
H45_4 H 0.0900 0.3598 0.5674
C56_4 C 0.3918(3) 0.35088(11) 0.48341(14)
H46_4 H 0.4207 0.3473 0.4502
C57_4 C 0.4626(3) 0.35490(11) 0.53076(14)
C58_4 C 0.4207(3) 0.36013(12) 0.58089(14)
H47_4 H 0.4702 0.3633 0.6135
C59_4 C 0.3105(3) 0.36067(13) 0.58213(14)
H48_4 H 0.2833 0.3638 0.6159
C60_4 C 0.5836(3) 0.35467(10) 0.52977(13)
O15_2 O 0.64290(19) 0.36869(8) 0.57134(9)
O16_2 O 0.62068(19) 0.34050(7) 0.48825(9)
N5_4 N 0.7706(2) 0.25527(9) 0.32728(10)
N6_4 N 0.6875(2) 0.30392(8) 0.38790(10)
N7_4 N 0.6538(3) 0.22670(9) 0.39122(12)
N8_4 N 0.5711(2) 0.26828(10) 0.31324(12)
C7_4 C 0.7845(3) 0.29494(10) 0.36011(13)
H13_4 H 0.7964 0.3193 0.3362
H14_4 H 0.8509 0.2922 0.3875
C8_4 C 0.7510(3) 0.21905(11) 0.36427(14)
H15_4 H 0.8166 0.2155 0.3920
H16_4 H 0.7407 0.1922 0.3430
C9_4 C 0.6684(3) 0.26018(12) 0.28675(14)
H17_4 H 0.6567 0.2338 0.2647
H18_4 H 0.6787 0.2842 0.2620
C10_4 C 0.6709(3) 0.26613(11) 0.42300(14)
H19_4 H 0.6061 0.2713 0.4420
H20_4 H 0.7365 0.2627 0.4508
C11_4 C 0.5575(3) 0.23270(12) 0.34944(16)
H21_2 H 0.4912 0.2378 0.3674
H22_4 H 0.5450 0.2061 0.3278
C12_4 C 0.5882(3) 0.30732(11) 0.34522(14)
H23_4 H 0.5983 0.3317 0.3209
H24_4 H 0.5219 0.3131 0.3629
O2_4 O 0.9061(2) 0.17716(7) 0.28776(10)
C13_4 C 0.9648(3) 0.15656(11) 0.25851(14)
C14_4 C 0.9349(3) 0.11092(11) 0.24566(14)
C15_4 C 0.8418(3) 0.09190(12) 0.26444(16)
H25_4 H 0.8002 0.1079 0.2870
C16_4 C 0.8113(3) 0.05085(12) 0.25037(16)
H26_4 H 0.7501 0.0383 0.2642
C17_4 C 0.8702(3) 0.02679(11) 0.21535(15)
C18_4 C 0.9636(3) 0.04561(11) 0.19626(14)
C19_4 C 0.9950(3) 0.08790(11) 0.21262(14)
O6_4 O 0.9590(2) 0.30565(8) 0.28359(10)
H33_4 H 0.9383 0.3817 0.3084
C34_4 C 0.9953(3) 0.50532(12) 0.34561(16)
H35_4 H 0.9460 0.5241 0.3603
C35_4 C 0.9651(3) 0.46396(11) 0.33456(15)
H36_4 H 0.8948 0.4543 0.3417
O13_4 O 0.86678(19) 0.36262(8) 0.44358(9)
O14_4 O 0.89145(19) 0.34639(7) 0.53176(9)
C49_4 C 0.9270(3) 0.35470(10) 0.48787(13)
C20_4 C 0.8380(3) 0.98509(11) 0.19783(14)
H28_4 H 0.7771 0.9718 0.2111
C21_4 C 0.8936(3) 0.96337(11) 0.16177(15)
C22_4 C 0.9866(3) 0.98207(12) 0.14320(15)
C24_4 C 0.8486(3) 0.92144(11) 0.13876(15)
O3_4 O 0.7754(2) 0.90205(8) 0.15853(11)
H21_3 H 0.9912 0.2622 0.8674
H29_3 H 0.9748 0.0331 0.8814
H21_4 H 0.0088 0.7378 0.1326
H29_4 H 0.0252 0.9669 0.1186
loop_
_geom_bond_atom_site_label_1
_geom_bond_atom_site_label_2
_geom_bond_site_symmetry_1
_geom_bond_site_symmetry_2
O15 C60 1_555 1_555
Zn5 O12 1_555 1_555
Zn9 O15 1_555 1_555
Zn7 O16 1_555 1_555
Zn9 O14 1_555 1_555
C42 C41 1_555 1_555
C44 C41 1_555 1_555
H40 C44 1_555 1_555
C45 C44 1_555 1_555
C46 C45 1_555 1_555
H41 C46 1_555 1_555
C47 C42 1_555 1_555
H42 C47 1_555 1_555
C48 C45 1_555 1_555
O11 C48 1_555 1_555
H45 C55 1_555 1_555
C58 C57 1_555 1_555
H47 C58 1_555 1_555
C59 C54 1_555 1_555
H48 C59 1_555 1_555
Zn6 O11 1_555 1_555
N9 Zn9 1_555 1_555
O18 Zn9 1_555 1_555
O19 Zn9 1_555 1_555
C46 C47 1_555 1_555
C54 C55 1_555 1_555
C58 C59 1_555 1_555
Zn1 N1 1_555 1_555
Zn2 N5 1_555 1_555
Zn7 N6 1_555 1_555
N1 C1 1_555 1_555
N2 C1 1_555 1_555
N3 C2 1_555 1_555
N4 C3 1_555 1_555
C1 H1 1_555 1_555
H2 C1 1_555 1_555
C2 N1 1_555 1_555
H3 C2 1_555 1_555
H4 C2 1_555 1_555
C3 N1 1_555 1_555
H5 C3 1_555 1_555
H6 C3 1_555 1_555
C4 N2 1_555 1_555
H7 C4 1_555 1_555
H8 C4 1_555 1_555
C5 N3 1_555 1_555
H10 C5 1_555 1_555
C6 N2 1_555 1_555
H11 C6 1_555 1_555
H12 C6 1_555 1_555
N5 C7 1_555 1_555
N6 C7 1_555 1_555
N7 C8 1_555 1_555
N8 C9 1_555 1_555
C7 H13 1_555 1_555
H14 C7 1_555 1_555
C8 N5 1_555 1_555
H15 C8 1_555 1_555
H16 C8 1_555 1_555
C9 N5 1_555 1_555
H17 C9 1_555 1_555
H18 C9 1_555 1_555
C10 N6 1_555 1_555
H19 C10 1_555 1_555
H20 C10 1_555 1_555
C11 N7 1_555 1_555
H22 C11 1_555 1_555
C12 N6 1_555 1_555
H23 C12 1_555 1_555
H24 C12 1_555 1_555
O1 Zn1 1_555 1_555
O2 Zn2 1_555 1_555
C13 O1 1_555 1_555
C14 C13 1_555 1_555
C15 C14 1_555 1_555
H25 C15 1_555 1_555
C16 C15 1_555 1_555
H26 C16 1_555 1_555
C17 C16 1_555 1_555
C18 C17 1_555 1_555
C19 C14 1_555 1_555
H27 C19 1_555 1_555
C20 C17 1_555 1_555
H28 C20 1_555 1_555
C21 C20 1_555 1_555
C22 C21 1_555 1_555
H29 C22 1_555 1_555
C23 C18 1_555 1_555
H30 C23 1_555 1_555
C24 C21 1_555 1_555
O3 C24 1_555 1_555
O4 C24 1_555 1_555
O5 Zn1 1_555 1_555
O6 Zn2 1_555 1_555
C25 O5 1_555 1_555
C26 C25 1_555 1_555
C27 C26 1_555 1_555
H31 C27 1_555 1_555
C28 C27 1_555 1_555
H32 C28 1_555 1_555
C29 C28 1_555 1_555
C30 C29 1_555 1_555
C31 C26 1_555 1_555
H33 C31 1_555 1_555
C32 C29 1_555 1_555
C35 C30 1_555 1_555
H36 C35 1_555 1_555
O9 Zn1 1_555 1_555
O10 Zn2 1_555 1_555
C37 O9 1_555 1_555
C38 C37 1_555 1_555
C39 C38 1_555 1_555
H37 C39 1_555 1_555
C40 C39 1_555 1_555
H38 C40 1_555 1_555
C43 C38 1_555 1_555
H39 C43 1_555 1_555
O13 Zn7 1_555 1_555
C49 O13 1_555 1_555
C50 C49 1_555 1_555
C51 C50 1_555 1_555
H43 C51 1_555 1_555
C52 C51 1_555 1_555
H44 C52 1_555 1_555
C53 C52 1_555 1_555
C56 C53 1_555 1_555
H46 C56 1_555 1_555
Zn8 O4 1_555 1_555
Zn11 N2 1_555 1_555
O17 Zn7 1_555 1_555
O20 Zn2 1_555 1_555
O21 Zn1 1_555 1_555
N3 C4 1_555 1_555
N4 C5 1_555 1_555
N4 C6 1_555 1_555
N7 C10 1_555 1_555
N8 C11 1_555 1_555
N8 C12 1_555 1_555
O2 C13 1_555 1_555
C18 C19 1_555 1_555
C22 C23 1_555 1_555
O6 C25 1_555 1_555
C30 C31 1_555 1_555
O10 C37 1_555 1_555
C34 C33 1_555 1_555
H35 C34 1_555 1_555
C36 C33 1_555 1_555
O7 C36 1_555 1_555
O8 C36 1_555 1_555
Zn10 O7 1_555 1_555
O8 Zn10 1_555 1_555
H28_2 C20_2 1_555 1_555
C21_2 C20_2 1_555 1_555
C22_2 C21_2 1_555 1_555
C24_2 C21_2 1_555 1_555
O3_2 C24_2 1_555 1_555
O17 C24_2 1_555 1_555
Zn2_2 N5_2 1_555 1_555
Zn8 N6_2 1_555 1_555
Zn4 O14_2 1_555 1_555
N5_2 C7_2 1_555 1_555
N6_2 C7_2 1_555 1_555
N7_2 C8_2 1_555 1_555
N8_2 C9_2 1_555 1_555
C7_2 H13_2 1_555 1_555
H14_2 C7_2 1_555 1_555
C8_2 N5_2 1_555 1_555
H15_2 C8_2 1_555 1_555
H16_2 C8_2 1_555 1_555
C9_2 N5_2 1_555 1_555
H17_2 C9_2 1_555 1_555
H18_2 C9_2 1_555 1_555
C10_2 N6_2 1_555 1_555
H19_2 C10_2 1_555 1_555
H20_2 C10_2 1_555 1_555
C11_2 N7_2 1_555 1_555
H21 C11_2 1_555 1_555
H22_2 C11_2 1_555 1_555
C12_2 N6_2 1_555 1_555
H23_2 C12_2 1_555 1_555
H24_2 C12_2 1_555 1_555
O2_2 Zn2_2 1_555 1_555
C14_2 C13_2 1_555 1_555
C15_2 C14_2 1_555 1_555
H25_2 C15_2 1_555 1_555
C16_2 C15_2 1_555 1_555
H26_2 C16_2 1_555 1_555
C17_2 C16_2 1_555 1_555
C18_2 C17_2 1_555 1_555
C19_2 C14_2 1_555 1_555
O6_2 Zn2_2 1_555 1_555
H35_2 C34_2 1_555 1_555
H36_2 C35_2 1_555 1_555
O13_2 Zn8 1_555 1_555
O14_2 C49_2 1_555 1_555
C49_2 O13_2 1_555 1_555
N9_2 Zn4 1_555 1_555
O18_2 Zn4 1_555 1_555
O19_2 Zn4 1_555 1_555
O20_2 Zn2_2 1_555 1_555
O22 Zn4 1_555 1_555
O23 Zn8 1_555 1_555
N7_2 C10_2 1_555 1_555
N8_2 C11_2 1_555 1_555
N8_2 C12_2 1_555 1_555
O2_2 C13_2 1_555 1_555
C18_2 C19_2 1_555 1_555
C34_2 C35_2 1_555 1_555
Zn1_2 N1_2 1_555 1_555
N1_2 C1_2 1_555 1_555
N2_2 C1_2 1_555 1_555
N3_2 C2_2 1_555 1_555
N4_2 C3_2 1_555 1_555
C1_2 H1_2 1_555 1_555
H2_2 C1_2 1_555 1_555
C2_2 N1_2 1_555 1_555
H3_2 C2_2 1_555 1_555
H4_2 C2_2 1_555 1_555
C3_2 N1_2 1_555 1_555
H5_2 C3_2 1_555 1_555
H6_2 C3_2 1_555 1_555
C4_2 N2_2 1_555 1_555
H7_2 C4_2 1_555 1_555
H8_2 C4_2 1_555 1_555
C5_2 N3_2 1_555 1_555
H9_2 C5_2 1_555 1_555
H10_2 C5_2 1_555 1_555
C6_2 N2_2 1_555 1_555
H11_2 C6_2 1_555 1_555
H12_2 C6_2 1_555 1_555
O1_2 Zn1_2 1_555 1_555
H30_2 C23_2 1_555 1_555
O5_2 Zn1_2 1_555 1_555
C25_2 O5_2 1_555 1_555
C26_2 C25_2 1_555 1_555
C27_2 C26_2 1_555 1_555
H31_2 C27_2 1_555 1_555
C28_2 C27_2 1_555 1_555
H32_2 C28_2 1_555 1_555
C29_2 C28_2 1_555 1_555
C30_2 C29_2 1_555 1_555
C31_2 C26_2 1_555 1_555
C32_2 C29_2 1_555 1_555
H34_2 C32_2 1_555 1_555
C33_2 C32_2 1_555 1_555
C36_2 C33_2 1_555 1_555
O7_2 C36_2 1_555 1_555
O8_2 C36_2 1_555 1_555
O9_2 Zn1_2 1_555 1_555
C37_2 O9_2 1_555 1_555
C38_2 C37_2 1_555 1_555
C39_2 C38_2 1_555 1_555
H37_2 C39_2 1_555 1_555
C40_2 C39_2 1_555 1_555
H38_2 C40_2 1_555 1_555
C41_2 C40_2 1_555 1_555
C42_2 C41_2 1_555 1_555
C43_2 C38_2 1_555 1_555
H39_2 C43_2 1_555 1_555
C44_2 C41_2 1_555 1_555
H40_2 C44_2 1_555 1_555
C45_2 C44_2 1_555 1_555
C46_2 C45_2 1_555 1_555
H41_2 C46_2 1_555 1_555
C47_2 C42_2 1_555 1_555
H42_2 C47_2 1_555 1_555
C48_2 C45_2 1_555 1_555
O11_2 C48_2 1_555 1_555
O12_2 C48_2 1_555 1_555
C51_2 C50_2 1_555 1_555
H43_2 C51_2 1_555 1_555
C52_2 C51_2 1_555 1_555
H44_2 C52_2 1_555 1_555
C53_2 C52_2 1_555 1_555
C54_2 C53_2 1_555 1_555
C55_2 C50_2 1_555 1_555
H45_2 C55_2 1_555 1_555
C56_2 C53_2 1_555 1_555
H46_2 C56_2 1_555 1_555
C57_2 C56_2 1_555 1_555
C58_2 C57_2 1_555 1_555
H47_2 C58_2 1_555 1_555
C59_2 C54_2 1_555 1_555
H48_2 C59_2 1_555 1_555
C60_2 C57_2 1_555 1_555
O22 C60_2 1_555 1_555
O23 C60_2 1_555 1_555
Zn5_2 O12_2 1_555 1_555
Zn6_2 O11_2 1_555 1_555
Zn11 O7_2 1_555 1_555
Zn10 N2_2 1_555 1_555
O21_2 Zn1_2 1_555 1_555
N3_2 C4_2 1_555 1_555
N4_2 C5_2 1_555 1_555
N4_2 C6_2 1_555 1_555
C30_2 C31_2 1_555 1_555
O8_2 Zn11 1_555 1_555
O10_2 C37_2 1_555 1_555
C42_2 C43_2 1_555 1_555
C46_2 C47_2 1_555 1_555
C54_2 C55_2 1_555 1_555
C58_2 C59_2 1_555 1_555
C34_3 C33_3 1_555 1_555
H35_3 C34_3 1_555 1_555
C36_3 C33_3 1_555 1_555
O18 C36_3 1_555 1_555
O19 C36_3 1_555 1_555
Zn5_2 N1_3 1_555 1_555
Zn6_2 N5_3 1_555 1_555
Zn3 N6_3 1_555 1_555
N1_3 C1_3 1_555 1_555
N9_2 C1_3 1_555 1_555
N3_3 C2_3 1_555 1_555
N4_3 C3_3 1_555 1_555
C1_3 H1_3 1_555 1_555
H2_3 C1_3 1_555 1_555
C2_3 N1_3 1_555 1_555
H3_3 C2_3 1_555 1_555
H4_3 C2_3 1_555 1_555
C3_3 N1_3 1_555 1_555
H5_3 C3_3 1_555 1_555
H6_3 C3_3 1_555 1_555
C4_3 N9_2 1_555 1_555
H7_3 C4_3 1_555 1_555
H8_3 C4_3 1_555 1_555
C5_3 N3_3 1_555 1_555
H10_3 C5_3 1_555 1_555
C6_3 N9_2 1_555 1_555
H11_3 C6_3 1_555 1_555
H12_3 C6_3 1_555 1_555
N5_3 C7_3 1_555 1_555
N6_3 C7_3 1_555 1_555
N7_3 C8_3 1_555 1_555
N8_3 C9_3 1_555 1_555
C7_3 H13_3 1_555 1_555
H14_3 C7_3 1_555 1_555
C8_3 N5_3 1_555 1_555
H15_3 C8_3 1_555 1_555
H16_3 C8_3 1_555 1_555
C9_3 N5_3 1_555 1_555
H17_3 C9_3 1_555 1_555
H18_3 C9_3 1_555 1_555
C10_3 N6_3 1_555 1_555
H19_3 C10_3 1_555 1_555
H20_3 C10_3 1_555 1_555
C11_3 N7_3 1_555 1_555
H22_3 C11_3 1_555 1_555
C12_3 N6_3 1_555 1_555
H23_3 C12_3 1_555 1_555
H24_3 C12_3 1_555 1_555
O1_3 Zn5_2 1_555 1_555
O2_3 Zn6_2 1_555 1_555
C13_3 O1_3 1_555 1_555
C14_3 C13_3 1_555 1_555
C15_3 C14_3 1_555 1_555
H25_3 C15_3 1_555 1_555
C16_3 C15_3 1_555 1_555
H26_3 C16_3 1_555 1_555
C17_3 C16_3 1_555 1_555
C18_3 C17_3 1_555 1_555
C19_3 C14_3 1_555 1_555
H27_3 C19_3 1_555 1_555
C20_3 C17_3 1_555 1_555
H28_3 C20_3 1_555 1_555
C21_3 C20_3 1_555 1_555
C22_3 C21_3 1_555 1_555
H29_2 C22_3 1_555 1_555
C23_3 C18_3 1_555 1_555
H30_3 C23_3 1_555 1_555
C24_3 C21_3 1_555 1_555
O3_3 C24_3 1_555 1_555
O4_2 C24_3 1_555 1_555
O5_3 Zn5_2 1_555 1_555
O6_3 Zn6_2 1_555 1_555
C25_3 O5_3 1_555 1_555
C26_3 C25_3 1_555 1_555
C27_3 C26_3 1_555 1_555
H31_3 C27_3 1_555 1_555
C28_3 C27_3 1_555 1_555
H32_3 C28_3 1_555 1_555
C29_3 C28_3 1_555 1_555
C30_3 C29_3 1_555 1_555
C31_3 C26_3 1_555 1_555
H33_3 C31_3 1_555 1_555
C32_3 C29_3 1_555 1_555
C35_3 C30_3 1_555 1_555
H36_3 C35_3 1_555 1_555
O9_3 Zn5_2 1_555 1_555
O10_3 Zn6_2 1_555 1_555
C37_3 O9_3 1_555 1_555
C38_3 C37_3 1_555 1_555
C39_3 C38_3 1_555 1_555
H37_3 C39_3 1_555 1_555
C40_3 C39_3 1_555 1_555
H38_3 C40_3 1_555 1_555
C43_3 C38_3 1_555 1_555
H39_3 C43_3 1_555 1_555
O13_3 Zn3 1_555 1_555
C49_3 O13_3 1_555 1_555
C50_3 C49_3 1_555 1_555
C51_3 C50_3 1_555 1_555
H43_3 C51_3 1_555 1_555
C52_3 C51_3 1_555 1_555
H44_3 C52_3 1_555 1_555
C53_3 C52_3 1_555 1_555
C56_3 C53_3 1_555 1_555
H46_3 C56_3 1_555 1_555
Zn8_2 O4_2 1_555 1_555
O17_2 Zn3 1_555 1_555
O23_2 Zn3 1_555 1_555
N3_3 C4_3 1_555 1_555
N4_3 C5_3 1_555 1_555
N4_3 C6_3 1_555 1_555
N7_3 C10_3 1_555 1_555
N8_3 C11_3 1_555 1_555
N8_3 C12_3 1_555 1_555
O2_3 C13_3 1_555 1_555
C18_3 C19_3 1_555 1_555
C22_3 C23_3 1_555 1_555
O6_3 C25_3 1_555 1_555
C30_3 C31_3 1_555 1_555
O10_3 C37_3 1_555 1_555
Zn10 O14_3 1_555 1_555
C42_3 C41_3 1_555 1_555
C44_3 C41_3 1_555 1_555
H40_3 C44_3 1_555 1_555
C45_3 C44_3 1_555 1_555
C46_3 C45_3 1_555 1_555
H41_3 C46_3 1_555 1_555
C47_3 C42_3 1_555 1_555
H42_3 C47_3 1_555 1_555
C48_3 C45_3 1_555 1_555
O20_2 C48_3 1_555 1_555
H45_3 C55_3 1_555 1_555
C58_3 C57_3 1_555 1_555
H47_3 C58_3 1_555 1_555
C59_3 C54_3 1_555 1_555
H48_3 C59_3 1_555 1_555
O22_2 Zn10 1_555 1_555
C46_3 C47_3 1_555 1_555
C54_3 C55_3 1_555 1_555
C58_3 C59_3 1_555 1_555
O22_2 C60_3 1_555 1_555
Zn5 N1_4 1_555 1_555
N1_4 C1_4 1_555 1_555
N9 C1_4 1_555 1_555
N3_4 C2_4 1_555 1_555
N4_4 C3_4 1_555 1_555
C1_4 H1_4 1_555 1_555
H2_4 C1_4 1_555 1_555
C2_4 N1_4 1_555 1_555
H3_4 C2_4 1_555 1_555
H4_4 C2_4 1_555 1_555
C3_4 N1_4 1_555 1_555
H5_4 C3_4 1_555 1_555
H6_4 C3_4 1_555 1_555
C4_4 N9 1_555 1_555
H7_4 C4_4 1_555 1_555
H8_4 C4_4 1_555 1_555
C5_4 N3_4 1_555 1_555
H9_4 C5_4 1_555 1_555
H10_4 C5_4 1_555 1_555
C6_4 N9 1_555 1_555
H11_4 C6_4 1_555 1_555
H12_4 C6_4 1_555 1_555
O1_4 Zn5 1_555 1_555
H30_4 C23_4 1_555 1_555
O5_4 Zn5 1_555 1_555
C25_4 O5_4 1_555 1_555
C26_4 C25_4 1_555 1_555
C27_4 C26_4 1_555 1_555
H31_4 C27_4 1_555 1_555
C28_4 C27_4 1_555 1_555
H32_4 C28_4 1_555 1_555
C29_4 C28_4 1_555 1_555
C30_4 C29_4 1_555 1_555
C31_4 C26_4 1_555 1_555
C32_4 C29_4 1_555 1_555
H34_4 C32_4 1_555 1_555
C33_4 C32_4 1_555 1_555
C36_4 C33_4 1_555 1_555
O18_2 C36_4 1_555 1_555
O19_2 C36_4 1_555 1_555
O9_4 Zn5 1_555 1_555
C37_4 O9_4 1_555 1_555
C38_4 C37_4 1_555 1_555
C39_4 C38_4 1_555 1_555
H37_4 C39_4 1_555 1_555
C40_4 C39_4 1_555 1_555
H38_4 C40_4 1_555 1_555
C41_4 C40_4 1_555 1_555
C42_4 C41_4 1_555 1_555
C43_4 C38_4 1_555 1_555
H39_4 C43_4 1_555 1_555
C44_4 C41_4 1_555 1_555
H40_4 C44_4 1_555 1_555
C45_4 C44_4 1_555 1_555
C46_4 C45_4 1_555 1_555
H41_4 C46_4 1_555 1_555
C47_4 C42_4 1_555 1_555
H42_4 C47_4 1_555 1_555
C48_4 C45_4 1_555 1_555
O20 C48_4 1_555 1_555
O21 C48_4 1_555 1_555
C51_4 C50_4 1_555 1_555
H43_4 C51_4 1_555 1_555
C52_4 C51_4 1_555 1_555
H44_4 C52_4 1_555 1_555
C53_4 C52_4 1_555 1_555
C54_4 C53_4 1_555 1_555
C55_4 C50_4 1_555 1_555
H45_4 C55_4 1_555 1_555
C56_4 C53_4 1_555 1_555
H46_4 C56_4 1_555 1_555
C57_4 C56_4 1_555 1_555
C58_4 C57_4 1_555 1_555
H47_4 C58_4 1_555 1_555
C59_4 C54_4 1_555 1_555
H48_4 C59_4 1_555 1_555
C60_4 C57_4 1_555 1_555
O15_2 C60_4 1_555 1_555
O16_2 C60_4 1_555 1_555
Zn8_2 O16_2 1_555 1_555
Zn11 O15_2 1_555 1_555
N3_4 C4_4 1_555 1_555
N4_4 C5_4 1_555 1_555
N4_4 C6_4 1_555 1_555
C30_4 C31_4 1_555 1_555
O10_4 C37_4 1_555 1_555
C42_4 C43_4 1_555 1_555
C46_4 C47_4 1_555 1_555
C54_4 C55_4 1_555 1_555
C58_4 C59_4 1_555 1_555
Zn6 N5_4 1_555 1_555
Zn8_2 N6_4 1_555 1_555
Zn11 O14_4 1_555 1_555
N5_4 C7_4 1_555 1_555
N6_4 C7_4 1_555 1_555
N7_4 C8_4 1_555 1_555
N8_4 C9_4 1_555 1_555
C7_4 H13_4 1_555 1_555
H14_4 C7_4 1_555 1_555
C8_4 N5_4 1_555 1_555
H15_4 C8_4 1_555 1_555
H16_4 C8_4 1_555 1_555
C9_4 N5_4 1_555 1_555
H17_4 C9_4 1_555 1_555
H18_4 C9_4 1_555 1_555
C10_4 N6_4 1_555 1_555
H19_4 C10_4 1_555 1_555
H20_4 C10_4 1_555 1_555
C11_4 N7_4 1_555 1_555
H21_2 C11_4 1_555 1_555
H22_4 C11_4 1_555 1_555
C12_4 N6_4 1_555 1_555
H23_4 C12_4 1_555 1_555
H24_4 C12_4 1_555 1_555
O2_4 Zn6 1_555 1_555
C14_4 C13_4 1_555 1_555
C15_4 C14_4 1_555 1_555
H25_4 C15_4 1_555 1_555
C16_4 C15_4 1_555 1_555
H26_4 C16_4 1_555 1_555
C17_4 C16_4 1_555 1_555
C18_4 C17_4 1_555 1_555
C19_4 C14_4 1_555 1_555
O6_4 Zn6 1_555 1_555
H35_4 C34_4 1_555 1_555
H36_4 C35_4 1_555 1_555
O13_4 Zn8_2 1_555 1_555
O14_4 C49_4 1_555 1_555
C49_4 O13_4 1_555 1_555
N7_4 C10_4 1_555 1_555
N8_4 C11_4 1_555 1_555
N8_4 C12_4 1_555 1_555
O2_4 C13_4 1_555 1_555
C18_4 C19_4 1_555 1_555
C34_4 C35_4 1_555 1_555
H28_4 C20_4 1_555 1_555
C21_4 C20_4 1_555 1_555
C22_4 C21_4 1_555 1_555
C24_4 C21_4 1_555 1_555
O3_4 C24_4 1_555 1_555
O17_2 C24_4 1_555 1_555

#END
