
###############################################################################
#
# This file contains modified crystal structure data generated from the
# MOF subset of the Cambridge Structural Database (CSD) v543 
# hosted by the Cambridge Crystallographic Data Centre (CCDC).
#
# This work is licensed under the Creative Commons
# Attribution-NonCommercial-ShareAlike 4.0 International License.
# To view a copy of this license, visit
# http://creativecommons.org/licenses/by-nc-sa/4.0/
# or send a letter to
# Creative Commons, PO Box 1866, Mountain View, CA 94042, USA.
#
# CIF created using the CSD Python API on 29 September 2022
# The structure has been converted into the P1 space group
# The structure has a 3D framework
# The original CSD entry MIMSUY is in the monoclinic crystal system
# The framework has been calculated to contain at least 10.0% void space
# The void calculation uses a probe of radius 1.32A, grid spacing 0.4
#
###############################################################################

data_MIMSUY
_chemical_formula_moiety         '(C240 H192 N32 O56 Zn16)n'
_symmetry_cell_setting           triclinic
_symmetry_space_group_name_H-M   'P 1'
_symmetry_Int_Tables_number      1
_space_group_name_Hall           'P 1'
loop_
_symmetry_equiv_pos_site_id
_symmetry_equiv_pos_as_xyz
1 x,y,z
_cell_length_a                   25.0401(5)
_cell_length_b                   31.2285(5)
_cell_length_c                   12.3111(2)
_cell_angle_alpha                90
_cell_angle_beta                 98.2060(10)
_cell_angle_gamma                90
_cell_volume                     9528.28
loop_
_atom_site_label
_atom_site_type_symbol
_atom_site_fract_x
_atom_site_fract_y
_atom_site_fract_z
Zn1 Zn 0.226304(13) 0.243845(11) 0.09811(3)
Zn2 Zn 0.075456(14) 0.132894(11) 0.29621(3)
N1 N 0.18860(10) 0.23422(8) 0.23602(19)
N2 N 0.12420(10) 0.18918(8) 0.31648(19)
N3 N 0.19970(14) 0.22293(12) 0.4336(2)
N4 N 0.12514(14) 0.26667(10) 0.3444(3)
C1 C 0.15373(11) 0.19556(9) 0.2215(2)
H1 H 0.1280 0.1985 0.1551
H2 H 0.1758 0.1706 0.2132
C2 C 0.22743(14) 0.22890(13) 0.3387(3)
H3 H 0.2503 0.2043 0.3312
H4 H 0.2503 0.2540 0.3498
C3 C 0.15362(15) 0.27200(10) 0.2506(3)
H5 H 0.1758 0.2976 0.2606
H6 H 0.1277 0.2758 0.1849
C4 C 0.16521(15) 0.18521(13) 0.4163(3)
H7 H 0.1470 0.1810 0.4798
H8 H 0.1874 0.1602 0.4090
C5 C 0.1660(2) 0.25983(15) 0.4429(3)
H9 H 0.1886 0.2851 0.4547
H10 H 0.1476 0.2563 0.5065
C6 C 0.09152(15) 0.22851(11) 0.3284(3)
H11 H 0.0652 0.2321 0.2631
H12 H 0.0721 0.2251 0.3906
O1 O 0.23817(10) 0.30772(7) 0.1128(2)
C7 C 0.26050(13) 0.33010(10) 0.0469(3)
C8 C 0.27108(14) 0.37636(11) 0.0763(3)
C9 C 0.2555(2) 0.39315(13) 0.1728(4)
H13 H 0.2377 0.3757 0.2173
C10 C 0.2661(2) 0.43468(14) 0.2018(4)
H14 H 0.2552 0.4453 0.2658
C11 C 0.29333(16) 0.46190(12) 0.1367(3)
C12 C 0.30687(18) 0.50442(12) 0.1658(3)
H15 H 0.2958 0.5159 0.2286
C13 C 0.33586(16) 0.52922(11) 0.1045(3)
C14 C 0.35181(18) 0.51258(12) 0.0090(3)
C16 C 0.30927(15) 0.44507(11) 0.0395(3)
C17 C 0.29673(14) 0.40216(10) 0.0106(3)
C18 C 0.35598(18) 0.57256(12) 0.1471(3)
O3 O 0.39390(12) 0.58853(8) 0.1039(3)
O4 O 0.33731(16) 0.59020(9) 0.2225(3)
O7 O 0.06195(9) 0.13589(7) 0.13694(16)
C25 C 0.01926(12) 0.14641(9) 0.0773(2)
Zn10 Zn 0.424544(14) 0.632894(11) 0.20379(3)
O17 O 0.22468(10) 0.18343(7) 0.0391(2)
O20 O 0.10610(12) 0.08853(8) 0.3961(3)
O21 O 0.30543(9) 0.23671(9) 0.1598(2)
O24 O 0.02369(9) 0.15679(7) 0.38826(17)
O2 O 0.27532(10) 0.31657(7) 0.9609(2)
H16 H 0.3718 0.5295 0.9674
C15 C 0.33846(17) 0.47158(12) 0.9755(3)
H17 H 0.3486 0.4612 0.9107
H18 H 0.3061 0.3912 0.9456
O5 O 0.15681(9) 0.25502(8) 0.99224(19)
O6 O 0.19457(9) 0.26329(9) 0.8402(2)
C19 C 0.15441(12) 0.26069(11) 0.8906(3)
C20 C 0.09970(12) 0.26355(11) 0.8236(3)
C21 C 0.09500(14) 0.26507(16) 0.7088(3)
H19 H 0.1261 0.2660 0.6755
C22 C 0.05377(12) 0.26389(12) 0.8712(3)
H20 H 0.0565 0.2634 0.9473
C23 C 0.00210(12) 0.26501(11) 0.8076(2)
C24 C 0.04602(14) 0.26522(17) 0.6455(3)
H21 H 0.0442 0.2655 0.5696
C26 C 0.02084(12) 0.14752(10) 0.9561(2)
C27 C 0.07141(13) 0.14683(12) 0.9165(3)
H22 H 0.1033 0.1458 0.9656
C29 C 0.07303(13) 0.14767(13) 0.8065(3)
H24 H 0.1062 0.1477 0.7810
C40 C 0.02591(12) 0.14820(11) 0.6157(2)
H29 H 0.0588 0.1484 0.5888
C42 C 0.02535(12) 0.14853(10) 0.7307(2)
Zn5 Zn 0.273696(13) 0.256155(11) 0.90189(3)
O8 O 0.97631(9) 0.15679(7) 0.11174(17)
Zn8 Zn 0.924544(14) 0.132894(11) 0.20379(3)
C28 C 0.97409(12) 0.14820(11) 0.8843(2)
H23 H 0.9412 0.1484 0.9112
C30 C 0.97465(12) 0.14853(10) 0.7693(2)
O9 O 0.84319(9) 0.25502(8) 0.50776(19)
O10 O 0.80543(9) 0.26329(9) 0.6598(2)
C31 C 0.84559(12) 0.26069(11) 0.6094(3)
C32 C 0.90030(12) 0.26355(11) 0.6764(3)
C33 C 0.90500(14) 0.26507(16) 0.7912(3)
H25 H 0.8739 0.2660 0.8245
C34 C 0.94623(12) 0.26389(12) 0.6288(3)
H26 H 0.9435 0.2634 0.5527
C35 C 0.99790(12) 0.26501(11) 0.6924(2)
C36 C 0.95398(14) 0.26522(17) 0.8545(3)
H27 H 0.9558 0.2655 0.9304
O11 O 0.93805(9) 0.13589(7) 0.36306(16)
C37 C 0.98074(12) 0.14641(9) 0.4227(2)
C38 C 0.97916(12) 0.14752(10) 0.5439(2)
C39 C 0.92859(13) 0.14683(12) 0.5835(3)
H28 H 0.8967 0.1458 0.5344
C41 C 0.92697(13) 0.14767(13) 0.6935(3)
H30 H 0.8938 0.1477 0.7190
Zn3 Zn 0.773696(13) 0.243845(11) 0.40189(3)
N5 N 0.81140(10) 0.23422(8) 0.26398(19)
N6 N 0.87580(10) 0.18918(8) 0.18352(19)
N7 N 0.80030(14) 0.22293(12) 0.0664(2)
N8 N 0.87486(14) 0.26667(10) 0.1556(3)
C43 C 0.84627(11) 0.19556(9) 0.2785(2)
H31 H 0.8720 0.1985 0.3449
H32 H 0.8242 0.1706 0.2868
C44 C 0.77257(14) 0.22890(13) 0.1613(3)
H33 H 0.7497 0.2043 0.1688
H34 H 0.7497 0.2540 0.1502
C45 C 0.84638(15) 0.27200(10) 0.2494(3)
H35 H 0.8242 0.2976 0.2394
H36 H 0.8723 0.2758 0.3151
C46 C 0.83479(15) 0.18521(13) 0.0837(3)
H37 H 0.8530 0.1810 0.0202
H38 H 0.8126 0.1602 0.0910
C47 C 0.8340(2) 0.25983(15) 0.0571(3)
H39 H 0.8114 0.2851 0.0453
C48 C 0.90848(15) 0.22851(11) 0.1716(3)
H41 H 0.9348 0.2321 0.2369
H42 H 0.9279 0.2251 0.1094
O13 O 0.76183(10) 0.30772(7) 0.3872(2)
O14 O 0.72468(10) 0.31657(7) 0.5391(2)
C49 C 0.73950(13) 0.33010(10) 0.4531(3)
C50 C 0.72892(14) 0.37636(11) 0.4237(3)
C51 C 0.7445(2) 0.39315(13) 0.3272(4)
H43 H 0.7623 0.3757 0.2827
C52 C 0.7339(2) 0.43468(14) 0.2982(4)
H44 H 0.7448 0.4453 0.2342
C53 C 0.70667(16) 0.46190(12) 0.3633(3)
C54 C 0.69313(18) 0.50442(12) 0.3342(3)
H45 H 0.7042 0.5159 0.2714
C55 C 0.66414(16) 0.52922(11) 0.3955(3)
C56 C 0.64819(18) 0.51258(12) 0.4910(3)
H46 H 0.6282 0.5295 0.5326
C57 C 0.66154(17) 0.47158(12) 0.5245(3)
H47 H 0.6514 0.4612 0.5893
C58 C 0.69073(15) 0.44507(11) 0.4605(3)
C59 C 0.70327(14) 0.40216(10) 0.4894(3)
H48 H 0.6939 0.3912 0.5544
C60 C 0.64402(18) 0.57256(12) 0.3529(3)
O15 O 0.60610(12) 0.58853(8) 0.3961(3)
O16 O 0.66269(16) 0.59020(9) 0.2775(3)
Zn6 Zn 0.726304(13) 0.256155(11) 0.59811(3)
Zn9 Zn 0.575456(14) 0.632894(11) 0.29621(3)
O18 O 0.77532(10) 0.18343(7) 0.4609(2)
O19 O 0.89390(12) 0.08853(8) 0.1039(3)
O22 O 0.69457(9) 0.23671(9) 0.3402(2)
C12_2 C 0.80687(18) 0.00442(12) 0.1658(3)
H15_2 H 0.7958 0.0159 0.2286
C13_2 C 0.83586(16) 0.02922(11) 0.1045(3)
C14_2 C 0.85181(18) 0.01258(12) 0.0090(3)
C18_2 C 0.85598(18) 0.07256(12) 0.1471(3)
O4_2 O 0.83731(16) 0.09020(9) 0.2225(3)
H16_2 H 0.8718 0.0295 0.9674
C54_2 C 0.19313(18) 0.00442(12) 0.3342(3)
H45_2 H 0.2042 0.0159 0.2714
C55_2 C 0.16414(16) 0.02922(11) 0.3955(3)
C56_2 C 0.14819(18) 0.01258(12) 0.4910(3)
H46_2 H 0.1282 0.0295 0.5326
C60_2 C 0.14402(18) 0.07256(12) 0.3529(3)
O16_2 O 0.16269(16) 0.09020(9) 0.2775(3)
Zn1_2 Zn 0.726304(13) 0.743845(11) 0.09811(3)
N1_2 N 0.68860(10) 0.73422(8) 0.23602(19)
N2_2 N 0.62420(10) 0.68918(8) 0.31648(19)
N3_2 N 0.69970(14) 0.72293(12) 0.4336(2)
N4_2 N 0.62514(14) 0.76667(10) 0.3444(3)
C1_2 C 0.65373(11) 0.69556(9) 0.2215(2)
H1_2 H 0.6280 0.6985 0.1551
H2_2 H 0.6758 0.6706 0.2132
C2_2 C 0.72743(14) 0.72890(13) 0.3387(3)
H3_2 H 0.7503 0.7043 0.3312
H4_2 H 0.7503 0.7540 0.3498
C3_2 C 0.65362(15) 0.77200(10) 0.2506(3)
H5_2 H 0.6758 0.7976 0.2606
H6_2 H 0.6277 0.7758 0.1849
C4_2 C 0.66521(15) 0.68521(13) 0.4163(3)
H7_2 H 0.6470 0.6810 0.4798
H8_2 H 0.6874 0.6602 0.4090
C5_2 C 0.6660(2) 0.75983(15) 0.4429(3)
H9_2 H 0.6886 0.7851 0.4547
H10_2 H 0.6476 0.7563 0.5065
C6_2 C 0.59152(15) 0.72851(11) 0.3284(3)
H11_2 H 0.5652 0.7321 0.2631
H12_2 H 0.5721 0.7251 0.3906
O1_2 O 0.73817(10) 0.80772(7) 0.1128(2)
C7_2 C 0.76050(13) 0.83010(10) 0.0469(3)
C8_2 C 0.77108(14) 0.87636(11) 0.0763(3)
C9_2 C 0.7555(2) 0.89315(13) 0.1728(4)
H13_2 H 0.7377 0.8757 0.2173
C10_2 C 0.7661(2) 0.93468(14) 0.2018(4)
H14_2 H 0.7552 0.9453 0.2658
C11_2 C 0.79333(16) 0.96190(12) 0.1367(3)
C16_2 C 0.80927(15) 0.94507(11) 0.0395(3)
C17_2 C 0.79673(14) 0.90216(10) 0.0106(3)
O7_2 O 0.56195(9) 0.63589(7) 0.13694(16)
O8_2 O 0.47631(9) 0.65679(7) 0.11174(17)
C25_2 C 0.51926(12) 0.64641(9) 0.0773(2)
O17_2 O 0.72468(10) 0.68343(7) 0.0391(2)
O21_2 O 0.80543(9) 0.73671(9) 0.1598(2)
O24_2 O 0.52369(9) 0.65679(7) 0.38826(17)
O2_2 O 0.77532(10) 0.81657(7) 0.9609(2)
C15_2 C 0.83846(17) 0.97158(12) 0.9755(3)
H17_2 H 0.8486 0.9612 0.9107
H18_2 H 0.8061 0.8912 0.9456
O5_2 O 0.65681(9) 0.75502(8) 0.99224(19)
O6_2 O 0.69457(9) 0.76329(9) 0.8402(2)
C19_2 C 0.65441(12) 0.76069(11) 0.8906(3)
C20_2 C 0.59970(12) 0.76355(11) 0.8236(3)
C21_2 C 0.59500(14) 0.76507(16) 0.7088(3)
H19_2 H 0.6261 0.7660 0.6755
C22_2 C 0.55377(12) 0.76389(12) 0.8712(3)
H20_2 H 0.5565 0.7634 0.9473
C23_2 C 0.50210(12) 0.76501(11) 0.8076(2)
C24_2 C 0.54602(14) 0.76522(17) 0.6455(3)
H21_2 H 0.5442 0.7655 0.5696
C26_2 C 0.52084(12) 0.64752(10) 0.9561(2)
C27_2 C 0.57141(13) 0.64683(12) 0.9165(3)
H22_2 H 0.6033 0.6458 0.9656
C28_2 C 0.47409(12) 0.64820(11) 0.8843(2)
H23_2 H 0.4412 0.6484 0.9112
C29_2 C 0.57303(13) 0.64767(13) 0.8065(3)
H24_2 H 0.6062 0.6477 0.7810
C30_2 C 0.47465(12) 0.64853(10) 0.7693(2)
O9_2 O 0.34319(9) 0.75502(8) 0.50776(19)
O10_2 O 0.30543(9) 0.76329(9) 0.6598(2)
C31_2 C 0.34559(12) 0.76069(11) 0.6094(3)
C32_2 C 0.40030(12) 0.76355(11) 0.6764(3)
C33_2 C 0.40500(14) 0.76507(16) 0.7912(3)
H25_2 H 0.3739 0.7660 0.8245
C34_2 C 0.44623(12) 0.76389(12) 0.6288(3)
H26_2 H 0.4435 0.7634 0.5527
C35_2 C 0.49790(12) 0.76501(11) 0.6924(2)
C36_2 C 0.45398(14) 0.76522(17) 0.8545(3)
H27_2 H 0.4558 0.7655 0.9304
O11_2 O 0.43805(9) 0.63589(7) 0.36306(16)
C37_2 C 0.48074(12) 0.64641(9) 0.4227(2)
C38_2 C 0.47916(12) 0.64752(10) 0.5439(2)
C39_2 C 0.42859(13) 0.64683(12) 0.5835(3)
H28_2 H 0.3967 0.6458 0.5344
C40_2 C 0.52591(12) 0.64820(11) 0.6157(2)
H29_2 H 0.5588 0.6484 0.5888
C41_2 C 0.42697(13) 0.64767(13) 0.6935(3)
H30_2 H 0.3938 0.6477 0.7190
C42_2 C 0.52535(12) 0.64853(10) 0.7307(2)
Zn3_2 Zn 0.273696(13) 0.743845(11) 0.40189(3)
N5_2 N 0.31140(10) 0.73422(8) 0.26398(19)
N6_2 N 0.37580(10) 0.68918(8) 0.18352(19)
N7_2 N 0.30030(14) 0.72293(12) 0.0664(2)
N8_2 N 0.37486(14) 0.76667(10) 0.1556(3)
C43_2 C 0.34627(11) 0.69556(9) 0.2785(2)
H31_2 H 0.3720 0.6985 0.3449
H32_2 H 0.3242 0.6706 0.2868
C44_2 C 0.27257(14) 0.72890(13) 0.1613(3)
H33_2 H 0.2497 0.7043 0.1688
H34_2 H 0.2497 0.7540 0.1502
C45_2 C 0.34638(15) 0.77200(10) 0.2494(3)
H35_2 H 0.3242 0.7976 0.2394
H36_2 H 0.3723 0.7758 0.3151
C46_2 C 0.33479(15) 0.68521(13) 0.0837(3)
H37_2 H 0.3530 0.6810 0.0202
H38_2 H 0.3126 0.6602 0.0910
C47_2 C 0.3340(2) 0.75983(15) 0.0571(3)
H39_2 H 0.3114 0.7851 0.0453
C48_2 C 0.40848(15) 0.72851(11) 0.1716(3)
H41_2 H 0.4348 0.7321 0.2369
H42_2 H 0.4279 0.7251 0.1094
O13_2 O 0.26183(10) 0.80772(7) 0.3872(2)
O14_2 O 0.22468(10) 0.81657(7) 0.5391(2)
C49_2 C 0.23950(13) 0.83010(10) 0.4531(3)
C50_2 C 0.22892(14) 0.87636(11) 0.4237(3)
C51_2 C 0.2445(2) 0.89315(13) 0.3272(4)
H43_2 H 0.2623 0.8757 0.2827
C52_2 C 0.2339(2) 0.93468(14) 0.2982(4)
H44_2 H 0.2448 0.9453 0.2342
C53_2 C 0.20667(16) 0.96190(12) 0.3633(3)
C57_2 C 0.16154(17) 0.97158(12) 0.5245(3)
H47_2 H 0.1514 0.9612 0.5893
C58_2 C 0.19073(15) 0.94507(11) 0.4605(3)
C59_2 C 0.20327(14) 0.90216(10) 0.4894(3)
H48_2 H 0.1939 0.8912 0.5544
Zn5_2 Zn 0.773696(13) 0.756155(11) 0.90189(3)
Zn6_2 Zn 0.226304(13) 0.756155(11) 0.59811(3)
O18_2 O 0.27532(10) 0.68343(7) 0.4609(2)
O22_2 O 0.19457(9) 0.73671(9) 0.3402(2)
C28_3 C 0.02591(12) 0.85180(11) 0.1157(2)
H23_3 H 0.0588 0.8516 0.0888
C30_3 C 0.02535(12) 0.85147(10) 0.2307(2)
O9_3 O 0.15681(9) 0.74498(8) 0.49224(19)
C31_3 C 0.15441(12) 0.73931(11) 0.3906(3)
C32_3 C 0.09970(12) 0.73645(11) 0.3236(3)
C33_3 C 0.09500(14) 0.73493(16) 0.2088(3)
H25_3 H 0.1261 0.7340 0.1755
C34_3 C 0.05377(12) 0.73611(12) 0.3712(3)
H26_3 H 0.0565 0.7366 0.4473
C35_3 C 0.00210(12) 0.73499(11) 0.3076(2)
C36_3 C 0.04602(14) 0.73478(17) 0.1455(3)
H27_3 H 0.0442 0.7345 0.0696
O11_3 O 0.06195(9) 0.86411(7) 0.63694(16)
C37_3 C 0.01926(12) 0.85359(9) 0.5773(2)
C38_3 C 0.02084(12) 0.85248(10) 0.4561(2)
C39_3 C 0.07141(13) 0.85317(12) 0.4165(3)
H28_3 H 0.1033 0.8542 0.4656
C41_3 C 0.07303(13) 0.85233(13) 0.3065(3)
H30_3 H 0.1062 0.8523 0.2810
Zn4 Zn 0.075456(14) 0.867106(11) 0.79621(3)
N5_3 N 0.18860(10) 0.76578(8) 0.73602(19)
N6_3 N 0.12420(10) 0.81082(8) 0.81648(19)
N7_3 N 0.19970(14) 0.77707(12) 0.9336(2)
N8_3 N 0.12514(14) 0.73333(10) 0.8444(3)
C43_3 C 0.15373(11) 0.80444(9) 0.7215(2)
H31_3 H 0.1280 0.8015 0.6551
H32_3 H 0.1758 0.8294 0.7132
C44_3 C 0.22743(14) 0.77110(13) 0.8387(3)
H33_3 H 0.2503 0.7957 0.8312
H34_3 H 0.2503 0.7460 0.8498
C45_3 C 0.15362(15) 0.72800(10) 0.7506(3)
H35_3 H 0.1758 0.7024 0.7606
H36_3 H 0.1277 0.7242 0.6849
C46_3 C 0.16521(15) 0.81479(13) 0.9163(3)
H37_3 H 0.1470 0.8190 0.9798
H38_3 H 0.1874 0.8398 0.9090
C47_3 C 0.1660(2) 0.74017(15) 0.9429(3)
H39_3 H 0.1886 0.7149 0.9547
C48_3 C 0.09152(15) 0.77149(11) 0.8284(3)
H41_3 H 0.0652 0.7679 0.7631
H42_3 H 0.0721 0.7749 0.8906
O13_3 O 0.23817(10) 0.69228(7) 0.6128(2)
C49_3 C 0.26050(13) 0.66990(10) 0.5469(3)
C50_3 C 0.27108(14) 0.62364(11) 0.5763(3)
C51_3 C 0.2555(2) 0.60685(13) 0.6728(4)
H43_3 H 0.2377 0.6243 0.7173
C52_3 C 0.2661(2) 0.56532(14) 0.7018(4)
H44_3 H 0.2552 0.5547 0.7658
C53_3 C 0.29333(16) 0.53810(12) 0.6367(3)
C54_3 C 0.30687(18) 0.49558(12) 0.6658(3)
H45_3 H 0.2958 0.4841 0.7286
C55_3 C 0.33586(16) 0.47078(11) 0.6045(3)
C56_3 C 0.35181(18) 0.48742(12) 0.5090(3)
H46_3 H 0.3718 0.4705 0.4674
C57_3 C 0.33846(17) 0.52842(12) 0.4755(3)
H47_3 H 0.3486 0.5388 0.4107
C58_3 C 0.30927(15) 0.55493(11) 0.5395(3)
C59_3 C 0.29673(14) 0.59784(10) 0.5106(3)
H48_3 H 0.3061 0.6088 0.4456
C60_3 C 0.35598(18) 0.42744(12) 0.6471(3)
O15_2 O 0.39390(12) 0.41147(8) 0.6039(3)
O16_3 O 0.33731(16) 0.40980(9) 0.7225(3)
Zn9_2 Zn 0.424544(14) 0.367106(11) 0.70379(3)
O19_2 O 0.10610(12) 0.91147(8) 0.8961(3)
O23 O 0.02369(9) 0.84321(7) 0.88826(17)
H16_3 H 0.6282 0.4705 0.0326
C15_3 C 0.66154(17) 0.52842(12) 0.0245(3)
H17_3 H 0.6514 0.5388 0.0893
H18_3 H 0.6939 0.6088 0.0544
O5_3 O 0.84319(9) 0.74498(8) 0.00776(19)
C19_3 C 0.84559(12) 0.73931(11) 0.1094(3)
C20_3 C 0.90030(12) 0.73645(11) 0.1764(3)
C21_3 C 0.90500(14) 0.73493(16) 0.2912(3)
H19_3 H 0.8739 0.7340 0.3245
C22_3 C 0.94623(12) 0.73611(12) 0.1288(3)
H20_3 H 0.9435 0.7366 0.0527
C23_3 C 0.99790(12) 0.73499(11) 0.1924(2)
C24_3 C 0.95398(14) 0.73478(17) 0.3545(3)
H21_3 H 0.9558 0.7345 0.4304
C26_3 C 0.97916(12) 0.85248(10) 0.0439(2)
C27_3 C 0.92859(13) 0.85317(12) 0.0835(3)
H22_3 H 0.8967 0.8542 0.0344
C29_3 C 0.92697(13) 0.85233(13) 0.1935(3)
H24_3 H 0.8938 0.8523 0.2190
O12 O 0.97631(9) 0.84321(7) 0.61174(17)
C40_3 C 0.97409(12) 0.85180(11) 0.3843(2)
H29_3 H 0.9412 0.8516 0.4112
C42_3 C 0.97465(12) 0.85147(10) 0.2693(2)
Zn7 Zn 0.924544(14) 0.867106(11) 0.70379(3)
N1_3 N 0.81140(10) 0.76578(8) 0.76398(19)
N2_3 N 0.87580(10) 0.81082(8) 0.68352(19)
N3_3 N 0.80030(14) 0.77707(12) 0.5664(2)
N4_3 N 0.87486(14) 0.73333(10) 0.6556(3)
C1_3 C 0.84627(11) 0.80444(9) 0.7785(2)
H1_3 H 0.8720 0.8015 0.8449
H2_3 H 0.8242 0.8294 0.7868
C2_3 C 0.77257(14) 0.77110(13) 0.6613(3)
H3_3 H 0.7497 0.7957 0.6688
H4_3 H 0.7497 0.7460 0.6502
C3_3 C 0.84638(15) 0.72800(10) 0.7494(3)
H5_3 H 0.8242 0.7024 0.7394
H6_3 H 0.8723 0.7242 0.8151
C4_3 C 0.83479(15) 0.81479(13) 0.5837(3)
H7_3 H 0.8530 0.8190 0.5202
H8_3 H 0.8126 0.8398 0.5910
C5_3 C 0.8340(2) 0.74017(15) 0.5571(3)
H9_3 H 0.8114 0.7149 0.5453
H10_3 H 0.8524 0.7437 0.4935
C6_3 C 0.90848(15) 0.77149(11) 0.6716(3)
H11_3 H 0.9348 0.7679 0.7369
H12_3 H 0.9279 0.7749 0.6094
O1_3 O 0.76183(10) 0.69228(7) 0.8872(2)
C7_3 C 0.73950(13) 0.66990(10) 0.9531(3)
C8_3 C 0.72892(14) 0.62364(11) 0.9237(3)
C9_3 C 0.7445(2) 0.60685(13) 0.8272(4)
H13_3 H 0.7623 0.6243 0.7827
C10_3 C 0.7339(2) 0.56532(14) 0.7982(4)
H14_3 H 0.7448 0.5547 0.7342
C11_3 C 0.70667(16) 0.53810(12) 0.8633(3)
C12_3 C 0.69313(18) 0.49558(12) 0.8342(3)
H15_3 H 0.7042 0.4841 0.7714
C13_3 C 0.66414(16) 0.47078(11) 0.8955(3)
C14_3 C 0.64819(18) 0.48742(12) 0.9910(3)
C16_3 C 0.69073(15) 0.55493(11) 0.9605(3)
C17_3 C 0.70327(14) 0.59784(10) 0.9894(3)
C18_3 C 0.64402(18) 0.42744(12) 0.8529(3)
O3_2 O 0.60610(12) 0.41147(8) 0.8961(3)
O4_3 O 0.66269(16) 0.40980(9) 0.7775(3)
O7_3 O 0.93805(9) 0.86411(7) 0.86306(16)
C25_3 C 0.98074(12) 0.85359(9) 0.9227(2)
Zn10_2 Zn 0.575456(14) 0.367106(11) 0.79621(3)
O20_2 O 0.89390(12) 0.91147(8) 0.6039(3)
C15_4 C 0.16154(17) 0.02842(12) 0.0245(3)
H17_4 H 0.1514 0.0388 0.0893
H18_4 H 0.1939 0.1088 0.0544
O5_4 O 0.34319(9) 0.24498(8) 0.00776(19)
C19_4 C 0.34559(12) 0.23931(11) 0.1094(3)
C20_4 C 0.40030(12) 0.23645(11) 0.1764(3)
C21_4 C 0.40500(14) 0.23493(16) 0.2912(3)
H19_4 H 0.3739 0.2340 0.3245
C22_4 C 0.44623(12) 0.23611(12) 0.1288(3)
H20_4 H 0.4435 0.2366 0.0527
C23_4 C 0.49790(12) 0.23499(11) 0.1924(2)
C24_4 C 0.45398(14) 0.23478(17) 0.3545(3)
H21_4 H 0.4558 0.2345 0.4304
C26_4 C 0.47916(12) 0.35248(10) 0.0439(2)
C27_4 C 0.42859(13) 0.35317(12) 0.0835(3)
H22_4 H 0.3967 0.3542 0.0344
C28_4 C 0.52591(12) 0.35180(11) 0.1157(2)
H23_4 H 0.5588 0.3516 0.0888
C29_4 C 0.42697(13) 0.35233(13) 0.1935(3)
H24_4 H 0.3938 0.3523 0.2190
C30_4 C 0.52535(12) 0.35147(10) 0.2307(2)
O9_4 O 0.65681(9) 0.24498(8) 0.49224(19)
C31_4 C 0.65441(12) 0.23931(11) 0.3906(3)
C32_4 C 0.59970(12) 0.23645(11) 0.3236(3)
C33_4 C 0.59500(14) 0.23493(16) 0.2088(3)
H25_4 H 0.6261 0.2340 0.1755
C34_4 C 0.55377(12) 0.23611(12) 0.3712(3)
H26_4 H 0.5565 0.2366 0.4473
C35_4 C 0.50210(12) 0.23499(11) 0.3076(2)
C36_4 C 0.54602(14) 0.23478(17) 0.1455(3)
H27_4 H 0.5442 0.2345 0.0696
O11_4 O 0.56195(9) 0.36411(7) 0.63694(16)
O12_2 O 0.47631(9) 0.34321(7) 0.61174(17)
C37_4 C 0.51926(12) 0.35359(9) 0.5773(2)
C38_4 C 0.52084(12) 0.35248(10) 0.4561(2)
C39_4 C 0.57141(13) 0.35317(12) 0.4165(3)
H28_4 H 0.6033 0.3542 0.4656
C40_4 C 0.47409(12) 0.35180(11) 0.3843(2)
H29_4 H 0.4412 0.3516 0.4112
C41_4 C 0.57303(13) 0.35233(13) 0.3065(3)
H30_4 H 0.6062 0.3523 0.2810
C42_4 C 0.47465(12) 0.35147(10) 0.2693(2)
N5_4 N 0.68860(10) 0.26578(8) 0.73602(19)
N6_4 N 0.62420(10) 0.31082(8) 0.81648(19)
N7_4 N 0.69970(14) 0.27707(12) 0.9336(2)
N8_4 N 0.62514(14) 0.23333(10) 0.8444(3)
C43_4 C 0.65373(11) 0.30444(9) 0.7215(2)
H31_4 H 0.6280 0.3015 0.6551
H32_4 H 0.6758 0.3294 0.7132
C44_4 C 0.72743(14) 0.27110(13) 0.8387(3)
H33_4 H 0.7503 0.2957 0.8312
H34_4 H 0.7503 0.2460 0.8498
C45_4 C 0.65362(15) 0.22800(10) 0.7506(3)
H35_4 H 0.6758 0.2024 0.7606
H36_4 H 0.6277 0.2242 0.6849
C46_4 C 0.66521(15) 0.31479(13) 0.9163(3)
H37_4 H 0.6470 0.3190 0.9798
H38_4 H 0.6874 0.3398 0.9090
C47_4 C 0.6660(2) 0.24017(15) 0.9429(3)
H39_4 H 0.6886 0.2149 0.9547
C48_4 C 0.59152(15) 0.27149(11) 0.8284(3)
H41_4 H 0.5652 0.2679 0.7631
H42_4 H 0.5721 0.2749 0.8906
O13_4 O 0.73817(10) 0.19228(7) 0.6128(2)
C49_4 C 0.76050(13) 0.16990(10) 0.5469(3)
C50_4 C 0.77108(14) 0.12364(11) 0.5763(3)
C51_4 C 0.7555(2) 0.10685(13) 0.6728(4)
H43_4 H 0.7377 0.1243 0.7173
C52_4 C 0.7661(2) 0.06532(14) 0.7018(4)
H44_4 H 0.7552 0.0547 0.7658
C53_4 C 0.79333(16) 0.03810(12) 0.6367(3)
C57_4 C 0.83846(17) 0.02842(12) 0.4755(3)
H47_4 H 0.8486 0.0388 0.4107
C58_4 C 0.80927(15) 0.05493(11) 0.5395(3)
C59_4 C 0.79673(14) 0.09784(10) 0.5106(3)
H48_4 H 0.8061 0.1088 0.4456
O23_2 O 0.52369(9) 0.34321(7) 0.88826(17)
N1_4 N 0.31140(10) 0.26578(8) 0.76398(19)
N2_4 N 0.37580(10) 0.31082(8) 0.68352(19)
N3_4 N 0.30030(14) 0.27707(12) 0.5664(2)
N4_4 N 0.37486(14) 0.23333(10) 0.6556(3)
C1_4 C 0.34627(11) 0.30444(9) 0.7785(2)
H1_4 H 0.3720 0.3015 0.8449
H2_4 H 0.3242 0.3294 0.7868
C2_4 C 0.27257(14) 0.27110(13) 0.6613(3)
H3_4 H 0.2497 0.2957 0.6688
H4_4 H 0.2497 0.2460 0.6502
C3_4 C 0.34638(15) 0.22800(10) 0.7494(3)
H5_4 H 0.3242 0.2024 0.7394
H6_4 H 0.3723 0.2242 0.8151
C4_4 C 0.33479(15) 0.31479(13) 0.5837(3)
H7_4 H 0.3530 0.3190 0.5202
H8_4 H 0.3126 0.3398 0.5910
C5_4 C 0.3340(2) 0.24017(15) 0.5571(3)
H9_4 H 0.3114 0.2149 0.5453
H10_4 H 0.3524 0.2437 0.4935
C6_4 C 0.40848(15) 0.27149(11) 0.6716(3)
H11_4 H 0.4348 0.2679 0.7369
H12_4 H 0.4279 0.2749 0.6094
O1_4 O 0.26183(10) 0.19228(7) 0.8872(2)
C7_4 C 0.23950(13) 0.16990(10) 0.9531(3)
C8_4 C 0.22892(14) 0.12364(11) 0.9237(3)
C9_4 C 0.2445(2) 0.10685(13) 0.8272(4)
H13_4 H 0.2623 0.1243 0.7827
C10_4 C 0.2339(2) 0.06532(14) 0.7982(4)
H14_4 H 0.2448 0.0547 0.7342
C11_4 C 0.20667(16) 0.03810(12) 0.8633(3)
C16_4 C 0.19073(15) 0.05493(11) 0.9605(3)
C17_4 C 0.20327(14) 0.09784(10) 0.9894(3)
O7_4 O 0.43805(9) 0.36411(7) 0.86306(16)
C25_4 C 0.48074(12) 0.35359(9) 0.9227(2)
H16_4 H 0.1282 0.9705 0.0326
C54_4 C 0.80687(18) 0.99558(12) 0.6658(3)
H45_4 H 0.7958 0.9841 0.7286
C55_4 C 0.83586(16) 0.97078(11) 0.6045(3)
C56_4 C 0.85181(18) 0.98742(12) 0.5090(3)
H46_4 H 0.8718 0.9705 0.4674
C60_4 C 0.85598(18) 0.92744(12) 0.6471(3)
O16_4 O 0.83731(16) 0.90980(9) 0.7225(3)
C12_4 C 0.19313(18) 0.99558(12) 0.8342(3)
H15_4 H 0.2042 0.9841 0.7714
C13_4 C 0.16414(16) 0.97078(11) 0.8955(3)
C14_4 C 0.14819(18) 0.98742(12) 0.9910(3)
C18_4 C 0.14402(18) 0.92744(12) 0.8529(3)
O4_4 O 0.16269(16) 0.90980(9) 0.7775(3)
H40 H 0.8524 0.2563 0.9935
H40_2 H 0.3524 0.7563 0.9935
H40_3 H 0.1476 0.7437 0.0065
H40_4 H 0.6476 0.2437 0.0065
loop_
_geom_bond_atom_site_label_1
_geom_bond_atom_site_label_2
_geom_bond_site_symmetry_1
_geom_bond_site_symmetry_2
Zn1 N1 1_555 1_555
Zn2 N2 1_555 1_555
N1 C1 1_555 1_555
N2 C1 1_555 1_555
N3 C2 1_555 1_555
N4 C3 1_555 1_555
C1 H1 1_555 1_555
H2 C1 1_555 1_555
C2 N1 1_555 1_555
H3 C2 1_555 1_555
H4 C2 1_555 1_555
C3 N1 1_555 1_555
H5 C3 1_555 1_555
H6 C3 1_555 1_555
C4 N2 1_555 1_555
H7 C4 1_555 1_555
H8 C4 1_555 1_555
C5 N3 1_555 1_555
H9 C5 1_555 1_555
H10 C5 1_555 1_555
C6 N2 1_555 1_555
H11 C6 1_555 1_555
H12 C6 1_555 1_555
O1 Zn1 1_555 1_555
C7 O1 1_555 1_555
C8 C7 1_555 1_555
C9 C8 1_555 1_555
H13 C9 1_555 1_555
C10 C9 1_555 1_555
H14 C10 1_555 1_555
C11 C10 1_555 1_555
C12 C11 1_555 1_555
H15 C12 1_555 1_555
C13 C12 1_555 1_555
C14 C13 1_555 1_555
C16 C11 1_555 1_555
C17 C8 1_555 1_555
C18 C13 1_555 1_555
O3 C18 1_555 1_555
O4 C18 1_555 1_555
O7 Zn2 1_555 1_555
C25 O7 1_555 1_555
Zn10 O3 1_555 1_555
O17 Zn1 1_555 1_555
O20 Zn2 1_555 1_555
O21 Zn1 1_555 1_555
O24 Zn2 1_555 1_555
N3 C4 1_555 1_555
N4 C5 1_555 1_555
N4 C6 1_555 1_555
C16 C17 1_555 1_555
H17 C15 1_555 1_555
O6 C19 1_555 1_555
C19 O5 1_555 1_555
C20 C19 1_555 1_555
C21 C20 1_555 1_555
H19 C21 1_555 1_555
C22 C20 1_555 1_555
H20 C22 1_555 1_555
C23 C22 1_555 1_555
C24 C21 1_555 1_555
H21 C24 1_555 1_555
C27 C26 1_555 1_555
H22 C27 1_555 1_555
C29 C27 1_555 1_555
H24 C29 1_555 1_555
H29 C40 1_555 1_555
C42 C29 1_555 1_555
Zn5 O2 1_555 1_555
O6 Zn5 1_555 1_555
C40 C42 1_555 1_555
Zn8 O8 1_555 1_555
H23 C28 1_555 1_555
C30 C28 1_555 1_555
O9 C31 1_555 1_555
O10 C31 1_555 1_555
C31 C32 1_555 1_555
C32 C33 1_555 1_555
C33 H25 1_555 1_555
C34 C32 1_555 1_555
H26 C34 1_555 1_555
H27 C36 1_555 1_555
O11 C37 1_555 1_555
C37 C38 1_555 1_555
C38 C39 1_555 1_555
C39 H28 1_555 1_555
C41 C30 1_555 1_555
H30 C41 1_555 1_555
Zn3 O9 1_555 1_555
Zn8 O11 1_555 1_555
N5 Zn3 1_555 1_555
N6 Zn8 1_555 1_555
N7 C44 1_555 1_555
N8 C45 1_555 1_555
C43 N5 1_555 1_555
H31 C43 1_555 1_555
H32 C43 1_555 1_555
C44 N5 1_555 1_555
H33 C44 1_555 1_555
H34 C44 1_555 1_555
C45 N5 1_555 1_555
H35 C45 1_555 1_555
H36 C45 1_555 1_555
C46 N6 1_555 1_555
H37 C46 1_555 1_555
H38 C46 1_555 1_555
C47 N7 1_555 1_555
H39 C47 1_555 1_555
C48 N6 1_555 1_555
H41 C48 1_555 1_555
H42 C48 1_555 1_555
O13 Zn3 1_555 1_555
O14 C49 1_555 1_555
C49 O13 1_555 1_555
C50 C49 1_555 1_555
C51 C50 1_555 1_555
H43 C51 1_555 1_555
C52 C51 1_555 1_555
H44 C52 1_555 1_555
C53 C52 1_555 1_555
C54 C53 1_555 1_555
H45 C54 1_555 1_555
C55 C54 1_555 1_555
C56 C55 1_555 1_555
H46 C56 1_555 1_555
C57 C56 1_555 1_555
H47 C57 1_555 1_555
C58 C53 1_555 1_555
C59 C50 1_555 1_555
H48 C59 1_555 1_555
C60 C55 1_555 1_555
O15 C60 1_555 1_555
O16 C60 1_555 1_555
Zn6 O10 1_555 1_555
Zn9 O15 1_555 1_555
O18 Zn3 1_555 1_555
O19 Zn8 1_555 1_555
O22 Zn3 1_555 1_555
C33 C36 1_555 1_555
C34 C35 1_555 1_555
C39 C41 1_555 1_555
N6 C43 1_555 1_555
N7 C46 1_555 1_555
N8 C47 1_555 1_555
N8 C48 1_555 1_555
O14 Zn6 1_555 1_555
C57 C58 1_555 1_555
C58 C59 1_555 1_555
H15_2 C12_2 1_555 1_555
C13_2 C12_2 1_555 1_555
C14_2 C13_2 1_555 1_555
C18_2 C13_2 1_555 1_555
O19 C18_2 1_555 1_555
O4_2 C18_2 1_555 1_555
H45_2 C54_2 1_555 1_555
C55_2 C54_2 1_555 1_555
C56_2 C55_2 1_555 1_555
H46_2 C56_2 1_555 1_555
C60_2 C55_2 1_555 1_555
O20 C60_2 1_555 1_555
O16_2 C60_2 1_555 1_555
Zn1_2 N1_2 1_555 1_555
Zn9 N2_2 1_555 1_555
N1_2 C1_2 1_555 1_555
N2_2 C1_2 1_555 1_555
N3_2 C2_2 1_555 1_555
N4_2 C3_2 1_555 1_555
C1_2 H1_2 1_555 1_555
H2_2 C1_2 1_555 1_555
C2_2 N1_2 1_555 1_555
H3_2 C2_2 1_555 1_555
H4_2 C2_2 1_555 1_555
C3_2 N1_2 1_555 1_555
H5_2 C3_2 1_555 1_555
H6_2 C3_2 1_555 1_555
C4_2 N2_2 1_555 1_555
H7_2 C4_2 1_555 1_555
H8_2 C4_2 1_555 1_555
C5_2 N3_2 1_555 1_555
H9_2 C5_2 1_555 1_555
H10_2 C5_2 1_555 1_555
C6_2 N2_2 1_555 1_555
H11_2 C6_2 1_555 1_555
H12_2 C6_2 1_555 1_555
O1_2 Zn1_2 1_555 1_555
C7_2 O1_2 1_555 1_555
C8_2 C7_2 1_555 1_555
C9_2 C8_2 1_555 1_555
H13_2 C9_2 1_555 1_555
C10_2 C9_2 1_555 1_555
H14_2 C10_2 1_555 1_555
C11_2 C10_2 1_555 1_555
C16_2 C11_2 1_555 1_555
C17_2 C8_2 1_555 1_555
O7_2 Zn9 1_555 1_555
O8_2 C25_2 1_555 1_555
C25_2 O7_2 1_555 1_555
Zn10 O8_2 1_555 1_555
O17_2 Zn1_2 1_555 1_555
O21_2 Zn1_2 1_555 1_555
O24_2 Zn9 1_555 1_555
N3_2 C4_2 1_555 1_555
N4_2 C5_2 1_555 1_555
N4_2 C6_2 1_555 1_555
C16_2 C17_2 1_555 1_555
H17_2 C15_2 1_555 1_555
O6_2 C19_2 1_555 1_555
C19_2 O5_2 1_555 1_555
C20_2 C19_2 1_555 1_555
C21_2 C20_2 1_555 1_555
H19_2 C21_2 1_555 1_555
C22_2 C20_2 1_555 1_555
H20_2 C22_2 1_555 1_555
C23_2 C22_2 1_555 1_555
C24_2 C21_2 1_555 1_555
H21_2 C24_2 1_555 1_555
C27_2 C26_2 1_555 1_555
H22_2 C27_2 1_555 1_555
C28_2 C26_2 1_555 1_555
H23_2 C28_2 1_555 1_555
C29_2 C27_2 1_555 1_555
H24_2 C29_2 1_555 1_555
C30_2 C28_2 1_555 1_555
O9_2 C31_2 1_555 1_555
O10_2 C31_2 1_555 1_555
C31_2 C32_2 1_555 1_555
C32_2 C33_2 1_555 1_555
C33_2 H25_2 1_555 1_555
C34_2 C32_2 1_555 1_555
H26_2 C34_2 1_555 1_555
C35_2 C23_2 1_555 1_555
C36_2 C23_2 1_555 1_555
H27_2 C36_2 1_555 1_555
O11_2 C37_2 1_555 1_555
O24_2 C37_2 1_555 1_555
C37_2 C38_2 1_555 1_555
C38_2 C39_2 1_555 1_555
C39_2 H28_2 1_555 1_555
C40_2 C38_2 1_555 1_555
H29_2 C40_2 1_555 1_555
C41_2 C30_2 1_555 1_555
H30_2 C41_2 1_555 1_555
C42_2 C29_2 1_555 1_555
Zn3_2 O9_2 1_555 1_555
Zn10 O11_2 1_555 1_555
N5_2 Zn3_2 1_555 1_555
N6_2 Zn10 1_555 1_555
N7_2 C44_2 1_555 1_555
N8_2 C45_2 1_555 1_555
C43_2 N5_2 1_555 1_555
H31_2 C43_2 1_555 1_555
H32_2 C43_2 1_555 1_555
C44_2 N5_2 1_555 1_555
H33_2 C44_2 1_555 1_555
H34_2 C44_2 1_555 1_555
C45_2 N5_2 1_555 1_555
H35_2 C45_2 1_555 1_555
H36_2 C45_2 1_555 1_555
C46_2 N6_2 1_555 1_555
H37_2 C46_2 1_555 1_555
H38_2 C46_2 1_555 1_555
C47_2 N7_2 1_555 1_555
H39_2 C47_2 1_555 1_555
C48_2 N6_2 1_555 1_555
H41_2 C48_2 1_555 1_555
H42_2 C48_2 1_555 1_555
O13_2 Zn3_2 1_555 1_555
O14_2 C49_2 1_555 1_555
C49_2 O13_2 1_555 1_555
C50_2 C49_2 1_555 1_555
C51_2 C50_2 1_555 1_555
H43_2 C51_2 1_555 1_555
C52_2 C51_2 1_555 1_555
H44_2 C52_2 1_555 1_555
C53_2 C52_2 1_555 1_555
H47_2 C57_2 1_555 1_555
C58_2 C53_2 1_555 1_555
C59_2 C50_2 1_555 1_555
H48_2 C59_2 1_555 1_555
Zn5_2 O2_2 1_555 1_555
Zn6_2 O10_2 1_555 1_555
O18_2 Zn3_2 1_555 1_555
O22_2 Zn3_2 1_555 1_555
O6_2 Zn5_2 1_555 1_555
C24_2 C35_2 1_555 1_555
C30_2 C42_2 1_555 1_555
C33_2 C36_2 1_555 1_555
C34_2 C35_2 1_555 1_555
C39_2 C41_2 1_555 1_555
C40_2 C42_2 1_555 1_555
N6_2 C43_2 1_555 1_555
N7_2 C46_2 1_555 1_555
N8_2 C47_2 1_555 1_555
N8_2 C48_2 1_555 1_555
O14_2 Zn6_2 1_555 1_555
C57_2 C58_2 1_555 1_555
C58_2 C59_2 1_555 1_555
H23_3 C28_3 1_555 1_555
C30_3 C28_3 1_555 1_555
O9_3 C31_3 1_555 1_555
O22_2 C31_3 1_555 1_555
C31_3 C32_3 1_555 1_555
C32_3 C33_3 1_555 1_555
C33_3 H25_3 1_555 1_555
C34_3 C32_3 1_555 1_555
H26_3 C34_3 1_555 1_555
H27_3 C36_3 1_555 1_555
O11_3 C37_3 1_555 1_555
C37_3 C38_3 1_555 1_555
C38_3 C39_3 1_555 1_555
C39_3 H28_3 1_555 1_555
C41_3 C30_3 1_555 1_555
H30_3 C41_3 1_555 1_555
Zn6_2 O9_3 1_555 1_555
Zn4 O11_3 1_555 1_555
N5_3 Zn6_2 1_555 1_555
N6_3 Zn4 1_555 1_555
N7_3 C44_3 1_555 1_555
N8_3 C45_3 1_555 1_555
C43_3 N5_3 1_555 1_555
H31_3 C43_3 1_555 1_555
H32_3 C43_3 1_555 1_555
C44_3 N5_3 1_555 1_555
H33_3 C44_3 1_555 1_555
H34_3 C44_3 1_555 1_555
C45_3 N5_3 1_555 1_555
H35_3 C45_3 1_555 1_555
H36_3 C45_3 1_555 1_555
C46_3 N6_3 1_555 1_555
H37_3 C46_3 1_555 1_555
H38_3 C46_3 1_555 1_555
C47_3 N7_3 1_555 1_555
H39_3 C47_3 1_555 1_555
C48_3 N6_3 1_555 1_555
H41_3 C48_3 1_555 1_555
H42_3 C48_3 1_555 1_555
O13_3 Zn6_2 1_555 1_555
O18_2 C49_3 1_555 1_555
C49_3 O13_3 1_555 1_555
C50_3 C49_3 1_555 1_555
C51_3 C50_3 1_555 1_555
H43_3 C51_3 1_555 1_555
C52_3 C51_3 1_555 1_555
H44_3 C52_3 1_555 1_555
C53_3 C52_3 1_555 1_555
C54_3 C53_3 1_555 1_555
H45_3 C54_3 1_555 1_555
C55_3 C54_3 1_555 1_555
C56_3 C55_3 1_555 1_555
H46_3 C56_3 1_555 1_555
C57_3 C56_3 1_555 1_555
H47_3 C57_3 1_555 1_555
C58_3 C53_3 1_555 1_555
C59_3 C50_3 1_555 1_555
H48_3 C59_3 1_555 1_555
C60_3 C55_3 1_555 1_555
O15_2 C60_3 1_555 1_555
O16_3 C60_3 1_555 1_555
Zn9_2 O15_2 1_555 1_555
O19_2 Zn4 1_555 1_555
O23 Zn4 1_555 1_555
C33_3 C36_3 1_555 1_555
C34_3 C35_3 1_555 1_555
C39_3 C41_3 1_555 1_555
N6_3 C43_3 1_555 1_555
N7_3 C46_3 1_555 1_555
N8_3 C47_3 1_555 1_555
N8_3 C48_3 1_555 1_555
C57_3 C58_3 1_555 1_555
C58_3 C59_3 1_555 1_555
H17_3 C15_3 1_555 1_555
O21_2 C19_3 1_555 1_555
C19_3 O5_3 1_555 1_555
C20_3 C19_3 1_555 1_555
C21_3 C20_3 1_555 1_555
H19_3 C21_3 1_555 1_555
C22_3 C20_3 1_555 1_555
H20_3 C22_3 1_555 1_555
C23_3 C22_3 1_555 1_555
C24_3 C21_3 1_555 1_555
H21_3 C24_3 1_555 1_555
C27_3 C26_3 1_555 1_555
H22_3 C27_3 1_555 1_555
C29_3 C27_3 1_555 1_555
H24_3 C29_3 1_555 1_555
H29_3 C40_3 1_555 1_555
C42_3 C29_3 1_555 1_555
Zn7 O12 1_555 1_555
C40_3 C42_3 1_555 1_555
Zn5_2 N1_3 1_555 1_555
Zn7 N2_3 1_555 1_555
N1_3 C1_3 1_555 1_555
N2_3 C1_3 1_555 1_555
N3_3 C2_3 1_555 1_555
N4_3 C3_3 1_555 1_555
C1_3 H1_3 1_555 1_555
H2_3 C1_3 1_555 1_555
C2_3 N1_3 1_555 1_555
H3_3 C2_3 1_555 1_555
H4_3 C2_3 1_555 1_555
C3_3 N1_3 1_555 1_555
H5_3 C3_3 1_555 1_555
H6_3 C3_3 1_555 1_555
C4_3 N2_3 1_555 1_555
H7_3 C4_3 1_555 1_555
H8_3 C4_3 1_555 1_555
C5_3 N3_3 1_555 1_555
H9_3 C5_3 1_555 1_555
H10_3 C5_3 1_555 1_555
C6_3 N2_3 1_555 1_555
H11_3 C6_3 1_555 1_555
H12_3 C6_3 1_555 1_555
O1_3 Zn5_2 1_555 1_555
C7_3 O1_3 1_555 1_555
C8_3 C7_3 1_555 1_555
C9_3 C8_3 1_555 1_555
H13_3 C9_3 1_555 1_555
C10_3 C9_3 1_555 1_555
H14_3 C10_3 1_555 1_555
C11_3 C10_3 1_555 1_555
C12_3 C11_3 1_555 1_555
H15_3 C12_3 1_555 1_555
C13_3 C12_3 1_555 1_555
C14_3 C13_3 1_555 1_555
C16_3 C11_3 1_555 1_555
C17_3 C8_3 1_555 1_555
C18_3 C13_3 1_555 1_555
O3_2 C18_3 1_555 1_555
O4_3 C18_3 1_555 1_555
O7_3 Zn7 1_555 1_555
C25_3 O7_3 1_555 1_555
Zn10_2 O3_2 1_555 1_555
O20_2 Zn7 1_555 1_555
N3_3 C4_3 1_555 1_555
N4_3 C5_3 1_555 1_555
N4_3 C6_3 1_555 1_555
C16_3 C17_3 1_555 1_555
H17_4 C15_4 1_555 1_555
O21 C19_4 1_555 1_555
C19_4 O5_4 1_555 1_555
C20_4 C19_4 1_555 1_555
C21_4 C20_4 1_555 1_555
H19_4 C21_4 1_555 1_555
C22_4 C20_4 1_555 1_555
H20_4 C22_4 1_555 1_555
C23_4 C22_4 1_555 1_555
C24_4 C21_4 1_555 1_555
H21_4 C24_4 1_555 1_555
C27_4 C26_4 1_555 1_555
H22_4 C27_4 1_555 1_555
C28_4 C26_4 1_555 1_555
H23_4 C28_4 1_555 1_555
C29_4 C27_4 1_555 1_555
H24_4 C29_4 1_555 1_555
C30_4 C28_4 1_555 1_555
O9_4 C31_4 1_555 1_555
O22 C31_4 1_555 1_555
C31_4 C32_4 1_555 1_555
C32_4 C33_4 1_555 1_555
C33_4 H25_4 1_555 1_555
C34_4 C32_4 1_555 1_555
H26_4 C34_4 1_555 1_555
C35_4 C23_4 1_555 1_555
C36_4 C23_4 1_555 1_555
H27_4 C36_4 1_555 1_555
O11_4 C37_4 1_555 1_555
O12_2 C37_4 1_555 1_555
C37_4 C38_4 1_555 1_555
C38_4 C39_4 1_555 1_555
C39_4 H28_4 1_555 1_555
C40_4 C38_4 1_555 1_555
H29_4 C40_4 1_555 1_555
C41_4 C30_4 1_555 1_555
H30_4 C41_4 1_555 1_555
C42_4 C29_4 1_555 1_555
Zn6 O9_4 1_555 1_555
Zn10_2 O11_4 1_555 1_555
N5_4 Zn6 1_555 1_555
N6_4 Zn10_2 1_555 1_555
N7_4 C44_4 1_555 1_555
N8_4 C45_4 1_555 1_555
C43_4 N5_4 1_555 1_555
H31_4 C43_4 1_555 1_555
H32_4 C43_4 1_555 1_555
C44_4 N5_4 1_555 1_555
H33_4 C44_4 1_555 1_555
H34_4 C44_4 1_555 1_555
C45_4 N5_4 1_555 1_555
H35_4 C45_4 1_555 1_555
H36_4 C45_4 1_555 1_555
C46_4 N6_4 1_555 1_555
H37_4 C46_4 1_555 1_555
H38_4 C46_4 1_555 1_555
C47_4 N7_4 1_555 1_555
H39_4 C47_4 1_555 1_555
C48_4 N6_4 1_555 1_555
H41_4 C48_4 1_555 1_555
H42_4 C48_4 1_555 1_555
O13_4 Zn6 1_555 1_555
O18 C49_4 1_555 1_555
C49_4 O13_4 1_555 1_555
C50_4 C49_4 1_555 1_555
C51_4 C50_4 1_555 1_555
H43_4 C51_4 1_555 1_555
C52_4 C51_4 1_555 1_555
H44_4 C52_4 1_555 1_555
C53_4 C52_4 1_555 1_555
H47_4 C57_4 1_555 1_555
C58_4 C53_4 1_555 1_555
C59_4 C50_4 1_555 1_555
H48_4 C59_4 1_555 1_555
Zn9_2 O12_2 1_555 1_555
O23_2 Zn10_2 1_555 1_555
C24_4 C35_4 1_555 1_555
C30_4 C42_4 1_555 1_555
C33_4 C36_4 1_555 1_555
C34_4 C35_4 1_555 1_555
C39_4 C41_4 1_555 1_555
C40_4 C42_4 1_555 1_555
N6_4 C43_4 1_555 1_555
N7_4 C46_4 1_555 1_555
N8_4 C47_4 1_555 1_555
N8_4 C48_4 1_555 1_555
C57_4 C58_4 1_555 1_555
C58_4 C59_4 1_555 1_555
Zn5 N1_4 1_555 1_555
Zn9_2 N2_4 1_555 1_555
N1_4 C1_4 1_555 1_555
N2_4 C1_4 1_555 1_555
N3_4 C2_4 1_555 1_555
N4_4 C3_4 1_555 1_555
C1_4 H1_4 1_555 1_555
H2_4 C1_4 1_555 1_555
C2_4 N1_4 1_555 1_555
H3_4 C2_4 1_555 1_555
H4_4 C2_4 1_555 1_555
C3_4 N1_4 1_555 1_555
H5_4 C3_4 1_555 1_555
H6_4 C3_4 1_555 1_555
C4_4 N2_4 1_555 1_555
H7_4 C4_4 1_555 1_555
H8_4 C4_4 1_555 1_555
C5_4 N3_4 1_555 1_555
H9_4 C5_4 1_555 1_555
H10_4 C5_4 1_555 1_555
C6_4 N2_4 1_555 1_555
H11_4 C6_4 1_555 1_555
H12_4 C6_4 1_555 1_555
O1_4 Zn5 1_555 1_555
C7_4 O1_4 1_555 1_555
C8_4 C7_4 1_555 1_555
C9_4 C8_4 1_555 1_555
H13_4 C9_4 1_555 1_555
C10_4 C9_4 1_555 1_555
H14_4 C10_4 1_555 1_555
C11_4 C10_4 1_555 1_555
C16_4 C11_4 1_555 1_555
C17_4 C8_4 1_555 1_555
O7_4 Zn9_2 1_555 1_555
O23_2 C25_4 1_555 1_555
C25_4 O7_4 1_555 1_555
N3_4 C4_4 1_555 1_555
N4_4 C5_4 1_555 1_555
N4_4 C6_4 1_555 1_555
C16_4 C17_4 1_555 1_555
H45_4 C54_4 1_555 1_555
C55_4 C54_4 1_555 1_555
C56_4 C55_4 1_555 1_555
H46_4 C56_4 1_555 1_555
C60_4 C55_4 1_555 1_555
O20_2 C60_4 1_555 1_555
O16_4 C60_4 1_555 1_555
H15_4 C12_4 1_555 1_555
C13_4 C12_4 1_555 1_555
C14_4 C13_4 1_555 1_555
C18_4 C13_4 1_555 1_555
O19_2 C18_4 1_555 1_555
O4_4 C18_4 1_555 1_555

#END
