
###############################################################################
#
# This file contains modified crystal structure data generated from the
# MOF subset of the Cambridge Structural Database (CSD) v543 
# hosted by the Cambridge Crystallographic Data Centre (CCDC).
#
# This work is licensed under the Creative Commons
# Attribution-NonCommercial-ShareAlike 4.0 International License.
# To view a copy of this license, visit
# http://creativecommons.org/licenses/by-nc-sa/4.0/
# or send a letter to
# Creative Commons, PO Box 1866, Mountain View, CA 94042, USA.
#
# CIF created using the CSD Python API on 29 September 2022
# The structure has been converted into the P1 space group
# The structure has a 3D framework
# The original CSD entry MINCIX is in the monoclinic crystal system
# The framework has been calculated to contain at least 10.0% void space
# The void calculation uses a probe of radius 1.32A, grid spacing 0.4
#
###############################################################################

data_MINCIX
_chemical_formula_moiety         '(C184 H152 O68 Tb8)n'
_symmetry_cell_setting           triclinic
_symmetry_space_group_name_H-M   'P 1'
_symmetry_Int_Tables_number      1
_space_group_name_Hall           'P 1'
loop_
_symmetry_equiv_pos_site_id
_symmetry_equiv_pos_as_xyz
1 x,y,z
_cell_length_a                   24.7463(2)
_cell_length_b                   16.9612(2)
_cell_length_c                   25.1036(2)
_cell_angle_alpha                90
_cell_angle_beta                 116.887(2)
_cell_angle_gamma                90
_cell_volume                     9397.65
loop_
_atom_site_label
_atom_site_type_symbol
_atom_site_fract_x
_atom_site_fract_y
_atom_site_fract_z
O10 O 0.22622(17) 0.0241(2) 0.07650(19)
C1 C 0.2839(3) 0.8564(4) 0.1547(3)
C2 C 0.3078(3) 0.8104(4) 0.2115(3)
C3 C 0.3687(2) 0.8124(4) 0.2494(2)
H1 H 0.3940 0.8458 0.2399
C4 C 0.3952(2) 0.7664(4) 0.3020(3)
C5 C 0.3567(3) 0.7167(4) 0.3160(3)
C6 C 0.2943(3) 0.7211(4) 0.2785(3)
H2 H 0.2674 0.6924 0.2888
C7 C 0.2712(3) 0.7656(4) 0.2276(3)
H3 H 0.2287 0.7656 0.2027
C8 C 0.3305(3) 0.5070(5) 0.4433(3)
C9 C 0.3691(3) 0.5651(5) 0.4293(4)
C10 C 0.3457(3) 0.6165(4) 0.3831(3)
H4 H 0.3029 0.6200 0.3603
C11 C 0.3824(3) 0.6646(4) 0.3678(3)
C12 C 0.4459(3) 0.6612(4) 0.4025(3)
C13 C 0.4686(3) 0.6077(5) 0.4505(4)
H5 H 0.5112 0.6041 0.4742
C14 C 0.4325(3) 0.5613(5) 0.4644(4)
H6 H 0.4496 0.5265 0.4976
C15 C 0.6550(3) 0.7485(4) 0.4464(3)
C16 C 0.5869(3) 0.7546(4) 0.4092(3)
C17 C 0.5491(2) 0.7075(4) 0.4220(3)
H7 H 0.5663 0.6722 0.4549
C18 C 0.4852(2) 0.7101(4) 0.3875(3)
C19 C 0.4606(2) 0.7637(4) 0.3391(3)
C20 C 0.5012(3) 0.8119(4) 0.3283(3)
H8 H 0.4851 0.8474 0.2955
C21 C 0.5624(3) 0.8098(4) 0.3627(3)
H9 H 0.5880 0.8452 0.3553
O1 O 0.31518(17) 0.9058(2) 0.14539(18)
O2 O 0.23106(19) 0.8386(3) 0.1144(2)
O3 O 0.27378(17) 0.5241(2) 0.42350(19)
O4 O 0.35255(19) 0.4496(3) 0.4748(3)
O5 O 0.67291(17) 0.6953(3) 0.4847(2)
O6 O 0.6883(2) 0.7914(3) 0.4361(2)
O9 O 0.3284(2) 0.9771(4) 0.04148(19)
H18 H 0.3632 0.9884 0.0695
H19 H 0.3246 0.9969 0.0089
Tb1 Tb 0.244643(13) 0.90125(2) 0.034433(14)
O11 O 0.14745(19) 0.9496(3) 0.0252(3)
O13 O 0.3117(2) 0.7914(3) 0.0639(2)
Tb2 Tb 0.755357(13) 0.90125(2) 0.465567(14)
Tb3 Tb 0.255357(13) 0.40125(2) 0.465567(14)
Tb4 Tb 0.744643(13) 0.59875(2) 0.534433(14)
C23 C 0.2976(4) 0.8663(5) 0.9238(4)
H13 H 0.3042 0.9233 0.9242
H14 H 0.2803 0.8469 0.8826
H15 H 0.3364 0.8399 0.9477
O7 O 0.2057(2) 0.9926(4) 0.9512(2)
H16 H 0.2303 0.9851 0.9371
O8 O 0.2582(2) 0.8505(3) 0.9476(2)
H17 H 0.2558 0.8030 0.9557
O12 O 0.17291(17) 0.8047(3) 0.9847(2)
C22 C 0.8113(6) 0.0708(7) 0.5557(6)
H10 H 0.8543 0.0748 0.5658
H11 H 0.8044 0.0939 0.5879
H12 H 0.7871 0.0992 0.5184
O10_2 O 0.77378(17) 0.0241(2) 0.42350(19)
C1_2 C 0.7161(3) 0.8564(4) 0.3453(3)
C2_2 C 0.6922(3) 0.8104(4) 0.2885(3)
C3_2 C 0.6313(2) 0.8124(4) 0.2506(2)
H1_2 H 0.6060 0.8458 0.2601
C4_2 C 0.6048(2) 0.7664(4) 0.1980(3)
C5_2 C 0.6433(3) 0.7167(4) 0.1840(3)
C6_2 C 0.7057(3) 0.7211(4) 0.2215(3)
H2_2 H 0.7326 0.6924 0.2112
C7_2 C 0.7288(3) 0.7656(4) 0.2724(3)
H3_2 H 0.7713 0.7656 0.2973
C8_2 C 0.6695(3) 0.5070(5) 0.0567(3)
C9_2 C 0.6309(3) 0.5651(5) 0.0707(4)
C10_2 C 0.6543(3) 0.6165(4) 0.1169(3)
H4_2 H 0.6971 0.6200 0.1397
C11_2 C 0.6176(3) 0.6646(4) 0.1322(3)
C12_2 C 0.5541(3) 0.6612(4) 0.0975(3)
C13_2 C 0.5314(3) 0.6077(5) 0.0495(4)
H5_2 H 0.4888 0.6041 0.0258
C14_2 C 0.5675(3) 0.5613(5) 0.0356(4)
H6_2 H 0.5504 0.5265 0.0024
C15_2 C 0.3450(3) 0.7485(4) 0.0536(3)
C16_2 C 0.4131(3) 0.7546(4) 0.0908(3)
C17_2 C 0.4509(2) 0.7075(4) 0.0780(3)
H7_2 H 0.4337 0.6722 0.0451
C18_2 C 0.5148(2) 0.7101(4) 0.1125(3)
C19_2 C 0.5394(2) 0.7637(4) 0.1609(3)
C20_2 C 0.4988(3) 0.8119(4) 0.1717(3)
H8_2 H 0.5149 0.8474 0.2045
C21_2 C 0.4376(3) 0.8098(4) 0.1373(3)
H9_2 H 0.4120 0.8452 0.1447
C23_2 C 0.7024(4) 0.8663(5) 0.5762(4)
H13_2 H 0.6958 0.9233 0.5758
H14_2 H 0.7197 0.8469 0.6174
H15_2 H 0.6636 0.8399 0.5523
O1_2 O 0.68482(17) 0.9058(2) 0.35461(18)
O2_2 O 0.76894(19) 0.8386(3) 0.3856(2)
O3_2 O 0.72622(17) 0.5241(2) 0.07650(19)
O4_2 O 0.64745(19) 0.4496(3) 0.0252(3)
O5_2 O 0.32709(17) 0.6953(3) 0.0153(2)
O7_2 O 0.7943(2) 0.9926(4) 0.5488(2)
H16_2 H 0.7697 0.9851 0.5629
O8_2 O 0.7418(2) 0.8505(3) 0.5524(2)
H17_2 H 0.7442 0.8030 0.5443
O9_2 O 0.6716(2) 0.9771(4) 0.45852(19)
H18_2 H 0.6368 0.9884 0.4305
H19_2 H 0.6754 0.9969 0.4911
O11_2 O 0.85255(19) 0.9496(3) 0.4748(3)
O12_2 O 0.82709(17) 0.8047(3) 0.5153(2)
Tb3_2 Tb 0.744643(13) 0.40125(2) 0.034433(14)
Tb4_2 Tb 0.255357(13) 0.59875(2) 0.965567(14)
H5_3 H 0.0112 0.1041 0.4742
C15_3 C 0.1550(3) 0.2485(4) 0.4464(3)
C16_3 C 0.0869(3) 0.2546(4) 0.4092(3)
C17_3 C 0.0491(2) 0.2075(4) 0.4220(3)
H7_3 H 0.0663 0.1722 0.4549
C20_3 C 0.0012(3) 0.3119(4) 0.3283(3)
C21_3 C 0.0624(3) 0.3098(4) 0.3627(3)
H9_3 H 0.0880 0.3452 0.3553
O5_3 O 0.17291(17) 0.1953(3) 0.4847(2)
O6_2 O 0.1883(2) 0.2914(3) 0.4361(2)
Tb4_3 Tb 0.244643(13) 0.09875(2) 0.534433(14)
C1_3 C 0.7839(3) 0.3564(4) 0.1547(3)
C2_3 C 0.8078(3) 0.3104(4) 0.2115(3)
C3_3 C 0.8687(2) 0.3124(4) 0.2494(2)
H1_3 H 0.8940 0.3458 0.2399
C4_3 C 0.8952(2) 0.2664(4) 0.3020(3)
C5_3 C 0.8567(3) 0.2167(4) 0.3160(3)
C6_3 C 0.7943(3) 0.2211(4) 0.2785(3)
H2_3 H 0.7674 0.1924 0.2888
C7_3 C 0.7712(3) 0.2656(4) 0.2276(3)
H3_3 H 0.7287 0.2656 0.2027
C8_3 C 0.8305(3) 0.0070(5) 0.4433(3)
C9_3 C 0.8691(3) 0.0651(5) 0.4293(4)
C10_3 C 0.8457(3) 0.1165(4) 0.3831(3)
H4_3 H 0.8029 0.1200 0.3603
C11_3 C 0.8824(3) 0.1646(4) 0.3678(3)
C12_3 C 0.9459(3) 0.1612(4) 0.4025(3)
C13_3 C 0.9686(3) 0.1077(5) 0.4505(4)
C14_3 C 0.9325(3) 0.0613(5) 0.4644(4)
H6_3 H 0.9496 0.0265 0.4976
C18_3 C 0.9852(2) 0.2101(4) 0.3875(3)
C19_3 C 0.9606(2) 0.2637(4) 0.3391(3)
H8_3 H 0.9851 0.3474 0.2955
O1_3 O 0.81518(17) 0.4058(2) 0.14539(18)
O2_3 O 0.73106(19) 0.3386(3) 0.1144(2)
O9_3 O 0.8284(2) 0.4771(4) 0.04148(19)
H18_3 H 0.8632 0.4884 0.0695
H19_3 H 0.8246 0.4969 0.0089
O13_2 O 0.8117(2) 0.2914(3) 0.0639(2)
C22_2 C 0.6887(6) 0.5708(7) 0.9443(6)
H10_2 H 0.6457 0.5748 0.9342
H11_2 H 0.6956 0.5939 0.9121
H12_2 H 0.7129 0.5992 0.9816
C23_3 C 0.7976(4) 0.3663(5) 0.9238(4)
H13_3 H 0.8042 0.4233 0.9242
H14_3 H 0.7803 0.3469 0.8826
H15_3 H 0.8364 0.3399 0.9477
O7_3 O 0.7057(2) 0.4926(4) 0.9512(2)
H16_3 H 0.7303 0.4851 0.9371
O8_3 O 0.7582(2) 0.3505(3) 0.9476(2)
H17_3 H 0.7558 0.3030 0.9557
O12_3 O 0.67291(17) 0.3047(3) 0.9847(2)
C1_4 C 0.2161(3) 0.3564(4) 0.3453(3)
C2_4 C 0.1922(3) 0.3104(4) 0.2885(3)
C3_4 C 0.1313(2) 0.3124(4) 0.2506(2)
H1_4 H 0.1060 0.3458 0.2601
C4_4 C 0.1048(2) 0.2664(4) 0.1980(3)
C5_4 C 0.1433(3) 0.2167(4) 0.1840(3)
C6_4 C 0.2057(3) 0.2211(4) 0.2215(3)
H2_4 H 0.2326 0.1924 0.2112
C7_4 C 0.2288(3) 0.2656(4) 0.2724(3)
H3_4 H 0.2713 0.2656 0.2973
C8_4 C 0.1695(3) 0.0070(5) 0.0567(3)
C9_4 C 0.1309(3) 0.0651(5) 0.0707(4)
C10_4 C 0.1543(3) 0.1165(4) 0.1169(3)
H4_4 H 0.1971 0.1200 0.1397
C11_4 C 0.1176(3) 0.1646(4) 0.1322(3)
C12_4 C 0.0541(3) 0.1612(4) 0.0975(3)
C13_4 C 0.0314(3) 0.1077(5) 0.0495(4)
C14_4 C 0.0675(3) 0.0613(5) 0.0356(4)
H6_4 H 0.0504 0.0265 0.0024
C18_4 C 0.0148(2) 0.2101(4) 0.1125(3)
C19_4 C 0.0394(2) 0.2637(4) 0.1609(3)
H8_4 H 0.0149 0.3474 0.2045
C22_3 C 0.3113(6) 0.5708(7) 0.5557(6)
H10_3 H 0.3543 0.5748 0.5658
H11_3 H 0.3044 0.5939 0.5879
H12_3 H 0.2871 0.5992 0.5184
C23_4 C 0.2024(4) 0.3663(5) 0.5762(4)
H13_4 H 0.1958 0.4233 0.5758
H14_4 H 0.2197 0.3469 0.6174
H15_4 H 0.1636 0.3399 0.5523
O1_4 O 0.18482(17) 0.4058(2) 0.35461(18)
O2_4 O 0.26894(19) 0.3386(3) 0.3856(2)
O7_4 O 0.2943(2) 0.4926(4) 0.5488(2)
H16_4 H 0.2697 0.4851 0.5629
O8_4 O 0.2418(2) 0.3505(3) 0.5524(2)
H17_4 H 0.2442 0.3030 0.5443
O9_4 O 0.1716(2) 0.4771(4) 0.45852(19)
H18_4 H 0.1368 0.4884 0.4305
H19_4 H 0.1754 0.4969 0.4911
O12_4 O 0.32709(17) 0.3047(3) 0.5153(2)
H5_4 H 0.9888 0.1041 0.0258
C15_4 C 0.8450(3) 0.2485(4) 0.0536(3)
C16_4 C 0.9131(3) 0.2546(4) 0.0908(3)
C17_4 C 0.9509(2) 0.2075(4) 0.0780(3)
H7_4 H 0.9337 0.1722 0.0451
C20_4 C 0.9988(3) 0.3119(4) 0.1717(3)
C21_4 C 0.9376(3) 0.3098(4) 0.1373(3)
H9_4 H 0.9120 0.3452 0.1447
O5_4 O 0.82709(17) 0.1953(3) 0.0153(2)
Tb4_4 Tb 0.755357(13) 0.09875(2) 0.965567(14)
C23_5 C 0.7024(4) 0.1337(5) 0.0762(4)
H13_5 H 0.6958 0.0767 0.0758
H14_5 H 0.7197 0.1531 0.1174
H15_5 H 0.6636 0.1601 0.0523
O7_5 O 0.7943(2) 0.0074(4) 0.0488(2)
H16_5 H 0.7697 0.0149 0.0629
O8_5 O 0.7418(2) 0.1495(3) 0.0524(2)
H17_5 H 0.7442 0.1970 0.0443
C1_5 C 0.7161(3) 0.1436(4) 0.8453(3)
C2_5 C 0.6922(3) 0.1896(4) 0.7885(3)
C3_5 C 0.6313(2) 0.1876(4) 0.7506(2)
H1_5 H 0.6060 0.1542 0.7601
C4_5 C 0.6048(2) 0.2336(4) 0.6980(3)
C5_5 C 0.6433(3) 0.2833(4) 0.6840(3)
C6_5 C 0.7057(3) 0.2789(4) 0.7215(3)
H2_5 H 0.7326 0.3076 0.7112
C7_5 C 0.7288(3) 0.2344(4) 0.7724(3)
H3_5 H 0.7713 0.2344 0.7973
C8_5 C 0.6695(3) 0.4930(5) 0.5567(3)
C9_5 C 0.6309(3) 0.4349(5) 0.5707(4)
C10_5 C 0.6543(3) 0.3835(4) 0.6169(3)
H4_5 H 0.6971 0.3800 0.6397
C11_5 C 0.6176(3) 0.3354(4) 0.6322(3)
C12_5 C 0.5541(3) 0.3388(4) 0.5975(3)
C13_5 C 0.5314(3) 0.3923(5) 0.5495(4)
H5_5 H 0.4888 0.3959 0.5258
C14_5 C 0.5675(3) 0.4387(5) 0.5356(4)
H6_5 H 0.5504 0.4735 0.5024
C15_5 C 0.3450(3) 0.2515(4) 0.5536(3)
C16_5 C 0.4131(3) 0.2454(4) 0.5908(3)
C17_5 C 0.4509(2) 0.2925(4) 0.5780(3)
H7_5 H 0.4337 0.3278 0.5451
C18_5 C 0.5148(2) 0.2899(4) 0.6125(3)
C19_5 C 0.5394(2) 0.2363(4) 0.6609(3)
C20_5 C 0.4988(3) 0.1881(4) 0.6717(3)
H8_5 H 0.5149 0.1526 0.7045
C21_5 C 0.4376(3) 0.1902(4) 0.6373(3)
H9_5 H 0.4120 0.1548 0.6447
O1_5 O 0.68482(17) 0.0942(2) 0.85461(18)
O2_5 O 0.76894(19) 0.1614(3) 0.8856(2)
O3_3 O 0.72622(17) 0.4759(2) 0.57650(19)
O4_3 O 0.64745(19) 0.5504(3) 0.5252(3)
O6_3 O 0.3117(2) 0.2086(3) 0.5639(2)
O9_5 O 0.6716(2) 0.0229(4) 0.95852(19)
H18_5 H 0.6368 0.0116 0.9305
H19_5 H 0.6754 0.0031 0.9911
O11_3 O 0.85255(19) 0.0504(3) 0.9748(3)
O13_3 O 0.6883(2) 0.2086(3) 0.9361(2)
O10_3 O 0.77378(17) 0.9759(2) 0.92350(19)
C1_6 C 0.2839(3) 0.1436(4) 0.6547(3)
C2_6 C 0.3078(3) 0.1896(4) 0.7115(3)
C3_6 C 0.3687(2) 0.1876(4) 0.7494(2)
H1_6 H 0.3940 0.1542 0.7399
C4_6 C 0.3952(2) 0.2336(4) 0.8020(3)
C5_6 C 0.3567(3) 0.2833(4) 0.8160(3)
C6_6 C 0.2943(3) 0.2789(4) 0.7785(3)
H2_6 H 0.2674 0.3076 0.7888
C7_6 C 0.2712(3) 0.2344(4) 0.7276(3)
H3_6 H 0.2287 0.2344 0.7027
C8_6 C 0.3305(3) 0.4930(5) 0.9433(3)
C9_6 C 0.3691(3) 0.4349(5) 0.9293(4)
C10_6 C 0.3457(3) 0.3835(4) 0.8831(3)
H4_6 H 0.3029 0.3800 0.8603
C11_6 C 0.3824(3) 0.3354(4) 0.8678(3)
C12_6 C 0.4459(3) 0.3388(4) 0.9025(3)
C13_6 C 0.4686(3) 0.3923(5) 0.9505(4)
H5_6 H 0.5112 0.3959 0.9742
C14_6 C 0.4325(3) 0.4387(5) 0.9644(4)
H6_6 H 0.4496 0.4735 0.9976
C15_6 C 0.6550(3) 0.2515(4) 0.9464(3)
C16_6 C 0.5869(3) 0.2454(4) 0.9092(3)
C17_6 C 0.5491(2) 0.2925(4) 0.9220(3)
H7_6 H 0.5663 0.3278 0.9549
C18_6 C 0.4852(2) 0.2899(4) 0.8875(3)
C19_6 C 0.4606(2) 0.2363(4) 0.8391(3)
C20_6 C 0.5012(3) 0.1881(4) 0.8283(3)
H8_6 H 0.4851 0.1526 0.7955
C21_6 C 0.5624(3) 0.1902(4) 0.8627(3)
H9_6 H 0.5880 0.1548 0.8553
C23_6 C 0.2976(4) 0.1337(5) 0.4238(4)
H13_6 H 0.3042 0.0767 0.4242
H14_6 H 0.2803 0.1531 0.3826
H15_6 H 0.3364 0.1601 0.4477
O1_6 O 0.31518(17) 0.0942(2) 0.64539(18)
O2_6 O 0.23106(19) 0.1614(3) 0.6144(2)
O3_4 O 0.27378(17) 0.4759(2) 0.92350(19)
O4_4 O 0.35255(19) 0.5504(3) 0.9748(3)
O7_6 O 0.2057(2) 0.0074(4) 0.4512(2)
H16_6 H 0.2303 0.0149 0.4371
O8_6 O 0.2582(2) 0.1495(3) 0.4476(2)
H17_6 H 0.2558 0.1970 0.4557
O9_6 O 0.3284(2) 0.0229(4) 0.54148(19)
H18_6 H 0.3632 0.0116 0.5695
H19_6 H 0.3246 0.0031 0.5089
O11_4 O 0.14745(19) 0.0504(3) 0.5252(3)
C22_4 C 0.1887(6) 0.9292(7) 0.4443(6)
H10_4 H 0.1457 0.9252 0.4342
H11_4 H 0.1956 0.9061 0.4121
H12_4 H 0.2129 0.9008 0.4816
O10_4 O 0.22622(17) 0.9759(2) 0.57650(19)
C22_5 C 0.3113(6) 0.4292(7) 0.0557(6)
H10_5 H 0.3543 0.4252 0.0658
H11_5 H 0.3044 0.4061 0.0879
H12_5 H 0.2871 0.4008 0.0184
C23_7 C 0.2024(4) 0.6337(5) 0.0762(4)
H13_7 H 0.1958 0.5767 0.0758
H14_7 H 0.2197 0.6531 0.1174
H15_7 H 0.1636 0.6601 0.0523
O7_7 O 0.2943(2) 0.5074(4) 0.0488(2)
H16_7 H 0.2697 0.5149 0.0629
O8_7 O 0.2418(2) 0.6495(3) 0.0524(2)
H17_7 H 0.2442 0.6970 0.0443
C1_7 C 0.2161(3) 0.6436(4) 0.8453(3)
C2_7 C 0.1922(3) 0.6896(4) 0.7885(3)
C3_7 C 0.1313(2) 0.6876(4) 0.7506(2)
H1_7 H 0.1060 0.6542 0.7601
C4_7 C 0.1048(2) 0.7336(4) 0.6980(3)
C5_7 C 0.1433(3) 0.7833(4) 0.6840(3)
C6_7 C 0.2057(3) 0.7789(4) 0.7215(3)
H2_7 H 0.2326 0.8076 0.7112
C7_7 C 0.2288(3) 0.7344(4) 0.7724(3)
H3_7 H 0.2713 0.7344 0.7973
C8_7 C 0.1695(3) 0.9930(5) 0.5567(3)
C9_7 C 0.1309(3) 0.9349(5) 0.5707(4)
C10_7 C 0.1543(3) 0.8835(4) 0.6169(3)
H4_7 H 0.1971 0.8800 0.6397
C11_7 C 0.1176(3) 0.8354(4) 0.6322(3)
C12_7 C 0.0541(3) 0.8388(4) 0.5975(3)
C13_7 C 0.0314(3) 0.8923(5) 0.5495(4)
C14_7 C 0.0675(3) 0.9387(5) 0.5356(4)
H6_7 H 0.0504 0.9735 0.5024
C18_7 C 0.0148(2) 0.7899(4) 0.6125(3)
C19_7 C 0.0394(2) 0.7363(4) 0.6609(3)
H8_7 H 0.0149 0.6526 0.7045
O1_7 O 0.18482(17) 0.5942(2) 0.85461(18)
O2_7 O 0.26894(19) 0.6614(3) 0.8856(2)
O9_7 O 0.1716(2) 0.5229(4) 0.95852(19)
H18_7 H 0.1368 0.5116 0.9305
H19_7 H 0.1754 0.5031 0.9911
O13_4 O 0.1883(2) 0.7086(3) 0.9361(2)
H5_7 H 0.9888 0.8959 0.5258
C15_7 C 0.8450(3) 0.7515(4) 0.5536(3)
C16_7 C 0.9131(3) 0.7454(4) 0.5908(3)
C17_7 C 0.9509(2) 0.7925(4) 0.5780(3)
H7_7 H 0.9337 0.8278 0.5451
C20_7 C 0.9988(3) 0.6881(4) 0.6717(3)
C21_7 C 0.9376(3) 0.6902(4) 0.6373(3)
H9_7 H 0.9120 0.6548 0.6447
O6_4 O 0.8117(2) 0.7086(3) 0.5639(2)
H5_8 H 0.0112 0.8959 0.9742
C15_8 C 0.1550(3) 0.7515(4) 0.9464(3)
C16_8 C 0.0869(3) 0.7454(4) 0.9092(3)
C17_8 C 0.0491(2) 0.7925(4) 0.9220(3)
H7_8 H 0.0663 0.8278 0.9549
C20_8 C 0.0012(3) 0.6881(4) 0.8283(3)
C21_8 C 0.0624(3) 0.6902(4) 0.8627(3)
H9_8 H 0.0880 0.6548 0.8553
C1_8 C 0.7839(3) 0.6436(4) 0.6547(3)
C2_8 C 0.8078(3) 0.6896(4) 0.7115(3)
C3_8 C 0.8687(2) 0.6876(4) 0.7494(2)
H1_8 H 0.8940 0.6542 0.7399
C4_8 C 0.8952(2) 0.7336(4) 0.8020(3)
C5_8 C 0.8567(3) 0.7833(4) 0.8160(3)
C6_8 C 0.7943(3) 0.7789(4) 0.7785(3)
H2_8 H 0.7674 0.8076 0.7888
C7_8 C 0.7712(3) 0.7344(4) 0.7276(3)
H3_8 H 0.7287 0.7344 0.7027
C8_8 C 0.8305(3) 0.9930(5) 0.9433(3)
C9_8 C 0.8691(3) 0.9349(5) 0.9293(4)
C10_8 C 0.8457(3) 0.8835(4) 0.8831(3)
H4_8 H 0.8029 0.8800 0.8603
C11_8 C 0.8824(3) 0.8354(4) 0.8678(3)
C12_8 C 0.9459(3) 0.8388(4) 0.9025(3)
C13_8 C 0.9686(3) 0.8923(5) 0.9505(4)
C14_8 C 0.9325(3) 0.9387(5) 0.9644(4)
H6_8 H 0.9496 0.9735 0.9976
C18_8 C 0.9852(2) 0.7899(4) 0.8875(3)
C19_8 C 0.9606(2) 0.7363(4) 0.8391(3)
H8_8 H 0.9851 0.6526 0.7955
C22_6 C 0.6887(6) 0.4292(7) 0.4443(6)
H10_6 H 0.6457 0.4252 0.4342
H11_6 H 0.6956 0.4061 0.4121
H12_6 H 0.7129 0.4008 0.4816
C23_8 C 0.7976(4) 0.6337(5) 0.4238(4)
H13_8 H 0.8042 0.5767 0.4242
H14_8 H 0.7803 0.6531 0.3826
H15_8 H 0.8364 0.6601 0.4477
O1_8 O 0.81518(17) 0.5942(2) 0.64539(18)
O2_8 O 0.73106(19) 0.6614(3) 0.6144(2)
O7_8 O 0.7057(2) 0.5074(4) 0.4512(2)
H16_8 H 0.7303 0.5149 0.4371
O8_8 O 0.7582(2) 0.6495(3) 0.4476(2)
H17_8 H 0.7558 0.6970 0.4557
O9_8 O 0.8284(2) 0.5229(4) 0.54148(19)
H18_8 H 0.8632 0.5116 0.5695
H19_8 H 0.8246 0.5031 0.5089
C22_7 C 0.1887(6) 0.0708(7) 0.9443(6)
H10_7 H 0.1457 0.0748 0.9342
H11_7 H 0.1956 0.0939 0.9121
H12_7 H 0.2129 0.0992 0.9816
C22_8 C 0.8113(6) 0.9292(7) 0.0557(6)
H10_8 H 0.8543 0.9252 0.0658
H11_8 H 0.8044 0.9061 0.0879
H12_8 H 0.7871 0.9008 0.0184
loop_
_geom_bond_atom_site_label_1
_geom_bond_atom_site_label_2
_geom_bond_site_symmetry_1
_geom_bond_site_symmetry_2
C1 C2 1_555 1_555
C2 C3 1_555 1_555
C3 H1 1_555 1_555
C4 C3 1_555 1_555
C5 C4 1_555 1_555
C6 C5 1_555 1_555
H2 C6 1_555 1_555
C7 C2 1_555 1_555
H3 C7 1_555 1_555
C8 C9 1_555 1_555
C9 C10 1_555 1_555
C10 H4 1_555 1_555
C11 C5 1_555 1_555
C12 C11 1_555 1_555
C13 C12 1_555 1_555
H5 C13 1_555 1_555
C14 C9 1_555 1_555
H6 C14 1_555 1_555
C15 C16 1_555 1_555
C16 C17 1_555 1_555
C17 H7 1_555 1_555
C18 C12 1_555 1_555
C19 C4 1_555 1_555
C20 C19 1_555 1_555
H8 C20 1_555 1_555
C21 C16 1_555 1_555
H9 C21 1_555 1_555
O1 C1 1_555 1_555
O2 C1 1_555 1_555
O3 C8 1_555 1_555
O4 C8 1_555 1_555
O5 C15 1_555 1_555
O6 C15 1_555 1_555
O9 H18 1_555 1_555
H19 O9 1_555 1_555
Tb1 O1 1_555 1_555
O11 Tb1 1_555 1_555
O13 Tb1 1_555 1_555
Tb2 O6 1_555 1_555
Tb3 O3 1_555 1_555
Tb4 O5 1_555 1_555
C6 C7 1_555 1_555
C10 C11 1_555 1_555
C13 C14 1_555 1_555
C17 C18 1_555 1_555
C18 C19 1_555 1_555
C20 C21 1_555 1_555
O2 Tb1 1_555 1_555
O4 Tb3 1_555 1_555
O9 Tb1 1_555 1_555
C23 H13 1_555 1_555
H14 C23 1_555 1_555
H15 C23 1_555 1_555
H16 O7 1_555 1_555
O8 C23 1_555 1_555
H17 O8 1_555 1_555
C22 H10 1_555 1_555
H11 C22 1_555 1_555
H12 C22 1_555 1_555
C1_2 C2_2 1_555 1_555
C2_2 C3_2 1_555 1_555
C3_2 H1_2 1_555 1_555
C4_2 C3_2 1_555 1_555
C5_2 C4_2 1_555 1_555
C6_2 C5_2 1_555 1_555
H2_2 C6_2 1_555 1_555
C7_2 C2_2 1_555 1_555
H3_2 C7_2 1_555 1_555
C8_2 C9_2 1_555 1_555
C9_2 C10_2 1_555 1_555
C10_2 H4_2 1_555 1_555
C11_2 C5_2 1_555 1_555
C12_2 C11_2 1_555 1_555
C13_2 C12_2 1_555 1_555
H5_2 C13_2 1_555 1_555
C14_2 C9_2 1_555 1_555
H6_2 C14_2 1_555 1_555
C15_2 C16_2 1_555 1_555
C16_2 C17_2 1_555 1_555
C17_2 H7_2 1_555 1_555
C18_2 C12_2 1_555 1_555
C19_2 C4_2 1_555 1_555
C20_2 C19_2 1_555 1_555
H8_2 C20_2 1_555 1_555
C21_2 C16_2 1_555 1_555
H9_2 C21_2 1_555 1_555
C23_2 H13_2 1_555 1_555
H14_2 C23_2 1_555 1_555
H15_2 C23_2 1_555 1_555
O1_2 C1_2 1_555 1_555
O2_2 C1_2 1_555 1_555
O3_2 C8_2 1_555 1_555
O4_2 C8_2 1_555 1_555
O5_2 C15_2 1_555 1_555
O13 C15_2 1_555 1_555
H16_2 O7_2 1_555 1_555
O8_2 C23_2 1_555 1_555
H17_2 O8_2 1_555 1_555
O9_2 H18_2 1_555 1_555
H19_2 O9_2 1_555 1_555
Tb2 O1_2 1_555 1_555
O11_2 Tb2 1_555 1_555
O12_2 Tb2 1_555 1_555
Tb3_2 O3_2 1_555 1_555
C6_2 C7_2 1_555 1_555
C10_2 C11_2 1_555 1_555
C13_2 C14_2 1_555 1_555
C17_2 C18_2 1_555 1_555
C18_2 C19_2 1_555 1_555
C20_2 C21_2 1_555 1_555
O2_2 Tb2 1_555 1_555
O4_2 Tb3_2 1_555 1_555
O7_2 Tb2 1_555 1_555
O8_2 Tb2 1_555 1_555
O9_2 Tb2 1_555 1_555
C15_3 C16_3 1_555 1_555
C16_3 C17_3 1_555 1_555
C17_3 H7_3 1_555 1_555
C21_3 C16_3 1_555 1_555
H9_3 C21_3 1_555 1_555
O5_3 C15_3 1_555 1_555
O6_2 C15_3 1_555 1_555
Tb3 O6_2 1_555 1_555
Tb4_3 O5_3 1_555 1_555
C20_3 C21_3 1_555 1_555
C1_3 C2_3 1_555 1_555
C2_3 C3_3 1_555 1_555
C3_3 H1_3 1_555 1_555
C4_3 C3_3 1_555 1_555
C5_3 C4_3 1_555 1_555
C6_3 C5_3 1_555 1_555
H2_3 C6_3 1_555 1_555
C7_3 C2_3 1_555 1_555
H3_3 C7_3 1_555 1_555
C8_3 C9_3 1_555 1_555
C9_3 C10_3 1_555 1_555
C10_3 H4_3 1_555 1_555
C11_3 C5_3 1_555 1_555
C12_3 C11_3 1_555 1_555
C13_3 C12_3 1_555 1_555
C14_3 C9_3 1_555 1_555
H6_3 C14_3 1_555 1_555
C18_3 C12_3 1_555 1_555
C19_3 C4_3 1_555 1_555
O1_3 C1_3 1_555 1_555
O2_3 C1_3 1_555 1_555
O10_2 C8_3 1_555 1_555
O9_3 H18_3 1_555 1_555
H19_3 O9_3 1_555 1_555
Tb3_2 O1_3 1_555 1_555
O13_2 Tb3_2 1_555 1_555
C6_3 C7_3 1_555 1_555
C10_3 C11_3 1_555 1_555
C13_3 C14_3 1_555 1_555
C18_3 C19_3 1_555 1_555
O2_3 Tb3_2 1_555 1_555
O9_3 Tb3_2 1_555 1_555
C22_2 H10_2 1_555 1_555
H11_2 C22_2 1_555 1_555
H12_2 C22_2 1_555 1_555
C23_3 H13_3 1_555 1_555
H14_3 C23_3 1_555 1_555
H15_3 C23_3 1_555 1_555
O7_3 C22_2 1_555 1_555
H16_3 O7_3 1_555 1_555
O8_3 C23_3 1_555 1_555
H17_3 O8_3 1_555 1_555
C1_4 C2_4 1_555 1_555
C2_4 C3_4 1_555 1_555
C3_4 H1_4 1_555 1_555
C4_4 C3_4 1_555 1_555
C5_4 C4_4 1_555 1_555
C6_4 C5_4 1_555 1_555
H2_4 C6_4 1_555 1_555
C7_4 C2_4 1_555 1_555
H3_4 C7_4 1_555 1_555
C8_4 C9_4 1_555 1_555
C9_4 C10_4 1_555 1_555
C10_4 H4_4 1_555 1_555
C11_4 C5_4 1_555 1_555
C12_4 C11_4 1_555 1_555
C13_4 C12_4 1_555 1_555
C14_4 C9_4 1_555 1_555
H6_4 C14_4 1_555 1_555
C18_4 C12_4 1_555 1_555
C19_4 C4_4 1_555 1_555
C22_3 H10_3 1_555 1_555
H11_3 C22_3 1_555 1_555
H12_3 C22_3 1_555 1_555
C23_4 H13_4 1_555 1_555
H14_4 C23_4 1_555 1_555
H15_4 C23_4 1_555 1_555
O1_4 C1_4 1_555 1_555
O2_4 C1_4 1_555 1_555
O10 C8_4 1_555 1_555
O7_4 C22_3 1_555 1_555
H16_4 O7_4 1_555 1_555
O8_4 C23_4 1_555 1_555
H17_4 O8_4 1_555 1_555
O9_4 H18_4 1_555 1_555
H19_4 O9_4 1_555 1_555
Tb3 O1_4 1_555 1_555
O12_4 Tb3 1_555 1_555
C6_4 C7_4 1_555 1_555
C10_4 C11_4 1_555 1_555
C13_4 C14_4 1_555 1_555
C18_4 C19_4 1_555 1_555
O2_4 Tb3 1_555 1_555
O7_4 Tb3 1_555 1_555
O8_4 Tb3 1_555 1_555
O9_4 Tb3 1_555 1_555
C15_4 C16_4 1_555 1_555
C16_4 C17_4 1_555 1_555
C17_4 H7_4 1_555 1_555
C21_4 C16_4 1_555 1_555
H9_4 C21_4 1_555 1_555
O5_4 C15_4 1_555 1_555
O13_2 C15_4 1_555 1_555
C20_4 C21_4 1_555 1_555
C23_5 H13_5 1_555 1_555
H14_5 C23_5 1_555 1_555
H15_5 C23_5 1_555 1_555
H16_5 O7_5 1_555 1_555
O8_5 C23_5 1_555 1_555
H17_5 O8_5 1_555 1_555
C1_5 C2_5 1_555 1_555
C2_5 C3_5 1_555 1_555
C3_5 H1_5 1_555 1_555
C4_5 C3_5 1_555 1_555
C5_5 C4_5 1_555 1_555
C6_5 C5_5 1_555 1_555
H2_5 C6_5 1_555 1_555
C7_5 C2_5 1_555 1_555
H3_5 C7_5 1_555 1_555
C8_5 C9_5 1_555 1_555
C9_5 C10_5 1_555 1_555
C10_5 H4_5 1_555 1_555
C11_5 C5_5 1_555 1_555
C12_5 C11_5 1_555 1_555
C13_5 C12_5 1_555 1_555
H5_5 C13_5 1_555 1_555
C14_5 C9_5 1_555 1_555
H6_5 C14_5 1_555 1_555
C15_5 C16_5 1_555 1_555
C16_5 C17_5 1_555 1_555
C17_5 H7_5 1_555 1_555
C18_5 C12_5 1_555 1_555
C19_5 C4_5 1_555 1_555
C20_5 C19_5 1_555 1_555
H8_5 C20_5 1_555 1_555
C21_5 C16_5 1_555 1_555
H9_5 C21_5 1_555 1_555
O1_5 C1_5 1_555 1_555
O2_5 C1_5 1_555 1_555
O3_3 C8_5 1_555 1_555
O4_3 C8_5 1_555 1_555
O12_4 C15_5 1_555 1_555
O6_3 C15_5 1_555 1_555
O9_5 H18_5 1_555 1_555
H19_5 O9_5 1_555 1_555
Tb4_4 O1_5 1_555 1_555
O11_3 Tb4_4 1_555 1_555
O13_3 Tb4_4 1_555 1_555
Tb4_3 O6_3 1_555 1_555
Tb4 O3_3 1_555 1_555
C6_5 C7_5 1_555 1_555
C10_5 C11_5 1_555 1_555
C13_5 C14_5 1_555 1_555
C17_5 C18_5 1_555 1_555
C18_5 C19_5 1_555 1_555
C20_5 C21_5 1_555 1_555
O2_5 Tb4_4 1_555 1_555
O4_3 Tb4 1_555 1_555
O9_5 Tb4_4 1_555 1_555
C1_6 C2_6 1_555 1_555
C2_6 C3_6 1_555 1_555
C3_6 H1_6 1_555 1_555
C4_6 C3_6 1_555 1_555
C5_6 C4_6 1_555 1_555
C6_6 C5_6 1_555 1_555
H2_6 C6_6 1_555 1_555
C7_6 C2_6 1_555 1_555
H3_6 C7_6 1_555 1_555
C8_6 C9_6 1_555 1_555
C9_6 C10_6 1_555 1_555
C10_6 H4_6 1_555 1_555
C11_6 C5_6 1_555 1_555
C12_6 C11_6 1_555 1_555
C13_6 C12_6 1_555 1_555
H5_6 C13_6 1_555 1_555
C14_6 C9_6 1_555 1_555
H6_6 C14_6 1_555 1_555
C15_6 C16_6 1_555 1_555
C16_6 C17_6 1_555 1_555
C17_6 H7_6 1_555 1_555
C18_6 C12_6 1_555 1_555
C19_6 C4_6 1_555 1_555
C20_6 C19_6 1_555 1_555
H8_6 C20_6 1_555 1_555
C21_6 C16_6 1_555 1_555
H9_6 C21_6 1_555 1_555
C23_6 H13_6 1_555 1_555
H14_6 C23_6 1_555 1_555
H15_6 C23_6 1_555 1_555
O1_6 C1_6 1_555 1_555
O2_6 C1_6 1_555 1_555
O3_4 C8_6 1_555 1_555
O4_4 C8_6 1_555 1_555
O12_3 C15_6 1_555 1_555
O13_3 C15_6 1_555 1_555
H16_6 O7_6 1_555 1_555
O8_6 C23_6 1_555 1_555
H17_6 O8_6 1_555 1_555
O9_6 H18_6 1_555 1_555
H19_6 O9_6 1_555 1_555
Tb4_3 O1_6 1_555 1_555
O11_4 Tb4_3 1_555 1_555
Tb4_2 O3_4 1_555 1_555
C6_6 C7_6 1_555 1_555
C10_6 C11_6 1_555 1_555
C13_6 C14_6 1_555 1_555
C17_6 C18_6 1_555 1_555
C18_6 C19_6 1_555 1_555
C20_6 C21_6 1_555 1_555
O2_6 Tb4_3 1_555 1_555
O4_4 Tb4_2 1_555 1_555
O7_6 Tb4_3 1_555 1_555
O8_6 Tb4_3 1_555 1_555
O9_6 Tb4_3 1_555 1_555
C22_4 H10_4 1_555 1_555
H11_4 C22_4 1_555 1_555
H12_4 C22_4 1_555 1_555
C22_5 H10_5 1_555 1_555
H11_5 C22_5 1_555 1_555
H12_5 C22_5 1_555 1_555
C23_7 H13_7 1_555 1_555
H14_7 C23_7 1_555 1_555
H15_7 C23_7 1_555 1_555
O7_7 C22_5 1_555 1_555
H16_7 O7_7 1_555 1_555
O8_7 C23_7 1_555 1_555
H17_7 O8_7 1_555 1_555
C1_7 C2_7 1_555 1_555
C2_7 C3_7 1_555 1_555
C3_7 H1_7 1_555 1_555
C4_7 C3_7 1_555 1_555
C5_7 C4_7 1_555 1_555
C6_7 C5_7 1_555 1_555
H2_7 C6_7 1_555 1_555
C7_7 C2_7 1_555 1_555
H3_7 C7_7 1_555 1_555
C8_7 C9_7 1_555 1_555
C9_7 C10_7 1_555 1_555
C10_7 H4_7 1_555 1_555
C11_7 C5_7 1_555 1_555
C12_7 C11_7 1_555 1_555
C13_7 C12_7 1_555 1_555
C14_7 C9_7 1_555 1_555
H6_7 C14_7 1_555 1_555
C18_7 C12_7 1_555 1_555
C19_7 C4_7 1_555 1_555
O1_7 C1_7 1_555 1_555
O2_7 C1_7 1_555 1_555
O10_4 C8_7 1_555 1_555
O9_7 H18_7 1_555 1_555
H19_7 O9_7 1_555 1_555
Tb4_2 O1_7 1_555 1_555
O13_4 Tb4_2 1_555 1_555
C6_7 C7_7 1_555 1_555
C10_7 C11_7 1_555 1_555
C13_7 C14_7 1_555 1_555
C18_7 C19_7 1_555 1_555
O2_7 Tb4_2 1_555 1_555
O9_7 Tb4_2 1_555 1_555
C15_7 C16_7 1_555 1_555
C16_7 C17_7 1_555 1_555
C17_7 H7_7 1_555 1_555
C21_7 C16_7 1_555 1_555
H9_7 C21_7 1_555 1_555
O12_2 C15_7 1_555 1_555
O6_4 C15_7 1_555 1_555
Tb4 O6_4 1_555 1_555
C20_7 C21_7 1_555 1_555
C15_8 C16_8 1_555 1_555
C16_8 C17_8 1_555 1_555
C17_8 H7_8 1_555 1_555
C21_8 C16_8 1_555 1_555
H9_8 C21_8 1_555 1_555
O12 C15_8 1_555 1_555
O13_4 C15_8 1_555 1_555
C20_8 C21_8 1_555 1_555
C1_8 C2_8 1_555 1_555
C2_8 C3_8 1_555 1_555
C3_8 H1_8 1_555 1_555
C4_8 C3_8 1_555 1_555
C5_8 C4_8 1_555 1_555
C6_8 C5_8 1_555 1_555
H2_8 C6_8 1_555 1_555
C7_8 C2_8 1_555 1_555
H3_8 C7_8 1_555 1_555
C8_8 C9_8 1_555 1_555
C9_8 C10_8 1_555 1_555
C10_8 H4_8 1_555 1_555
C11_8 C5_8 1_555 1_555
C12_8 C11_8 1_555 1_555
C13_8 C12_8 1_555 1_555
C14_8 C9_8 1_555 1_555
H6_8 C14_8 1_555 1_555
C18_8 C12_8 1_555 1_555
C19_8 C4_8 1_555 1_555
C22_6 H10_6 1_555 1_555
H11_6 C22_6 1_555 1_555
H12_6 C22_6 1_555 1_555
C23_8 H13_8 1_555 1_555
H14_8 C23_8 1_555 1_555
H15_8 C23_8 1_555 1_555
O1_8 C1_8 1_555 1_555
O2_8 C1_8 1_555 1_555
O10_3 C8_8 1_555 1_555
O7_8 C22_6 1_555 1_555
H16_8 O7_8 1_555 1_555
O8_8 C23_8 1_555 1_555
H17_8 O8_8 1_555 1_555
O9_8 H18_8 1_555 1_555
H19_8 O9_8 1_555 1_555
Tb4 O1_8 1_555 1_555
C6_8 C7_8 1_555 1_555
C10_8 C11_8 1_555 1_555
C13_8 C14_8 1_555 1_555
C18_8 C19_8 1_555 1_555
O2_8 Tb4 1_555 1_555
O7_8 Tb4 1_555 1_555
O8_8 Tb4 1_555 1_555
O9_8 Tb4 1_555 1_555
C22_7 H10_7 1_555 1_555
H11_7 C22_7 1_555 1_555
H12_7 C22_7 1_555 1_555
C22_8 H10_8 1_555 1_555
H11_8 C22_8 1_555 1_555
H12_8 C22_8 1_555 1_555

#END
