
###############################################################################
#
# This file contains modified crystal structure data generated from the
# MOF subset of the Cambridge Structural Database (CSD) v543 
# hosted by the Cambridge Crystallographic Data Centre (CCDC).
#
# This work is licensed under the Creative Commons
# Attribution-NonCommercial-ShareAlike 4.0 International License.
# To view a copy of this license, visit
# http://creativecommons.org/licenses/by-nc-sa/4.0/
# or send a letter to
# Creative Commons, PO Box 1866, Mountain View, CA 94042, USA.
#
# CIF created using the CSD Python API on 29 September 2022
# The structure has been converted into the P1 space group
# The structure has a 3D framework
# The original CSD entry MINCUJ is in the monoclinic crystal system
# The framework has been calculated to contain at least 10.0% void space
# The void calculation uses a probe of radius 1.32A, grid spacing 0.4
#
###############################################################################

data_MINCUJ
_chemical_formula_moiety         '(C192 H152 O62 Tb8)n'
_symmetry_cell_setting           triclinic
_symmetry_space_group_name_H-M   'P 1'
_symmetry_Int_Tables_number      1
_space_group_name_Hall           'P 1'
loop_
_symmetry_equiv_pos_site_id
_symmetry_equiv_pos_as_xyz
1 x,y,z
_cell_length_a                   25.9498(2)
_cell_length_b                   15.6298(2)
_cell_length_c                   26.8239(2)
_cell_angle_alpha                90
_cell_angle_beta                 114.532(2)
_cell_angle_gamma                90
_cell_volume                     9897.41
loop_
_atom_site_label
_atom_site_type_symbol
_atom_site_fract_x
_atom_site_fract_y
_atom_site_fract_z
C1 C 0.1126(3) 0.0675(6) 0.1544(3)
C2 C 0.1403(3) 0.0235(6) 0.2061(3)
C3 C 0.1216(3) 0.0313(6) 0.2476(3)
H1 H 0.0903 0.0678 0.2415
C8 C 0.0529(3) 0.0110(6) 0.4580(3)
C9 C 0.0775(3) 0.0074(6) 0.4166(3)
C13 C 0.0736(3) 0.0438(7) 0.3289(3)
H5 H 0.0549 0.0716 0.2945
C14 C 0.0520(3) 0.0527(6) 0.3681(3)
H6 H 0.0205 0.0890 0.3618
O1 O 0.1260(3) 0.0474(4) 0.1140(2)
O2 O 0.0763(2) 0.1255(4) 0.1473(2)
O3 O 0.0164(2) 0.0678(4) 0.45288(19)
O8 O 0.0075(3) 0.2607(5) 0.0626(3)
H19 H 0.0171 0.2809 0.0947
Tb1 Tb 0.058923(19) 0.14322(4) 0.050970(17)
O11 O 0.1269(3) 0.2138(5) 0.0234(2)
O12 O 0.1312(3) 0.2447(6) 0.1022(2)
C22 C 0.0016(6) 0.2011(10) 0.9101(6)
H10 H 0.0416 0.1898 0.9173
H16 H 0.0182 0.1928 0.8280
O10 O 0.0729(2) 0.0368(4) 0.9983(2)
C4 C 0.1462(3) 0.9886(6) 0.2972(3)
C5 C 0.1940(3) 0.9373(7) 0.3084(3)
C6 C 0.2130(4) 0.9286(8) 0.2662(3)
H2 H 0.2441 0.8917 0.2720
C7 C 0.1887(4) 0.9710(8) 0.2177(3)
H3 H 0.2041 0.9655 0.1913
C10 C 0.1247(3) 0.9585(6) 0.4280(3)
H4 H 0.1413 0.9287 0.4618
C11 C 0.1493(3) 0.9520(6) 0.3889(3)
C12 C 0.1225(3) 0.9945(6) 0.3387(3)
C15 C 0.3485(4) 0.7505(7) 0.4330(4)
C16 C 0.2975(3) 0.8044(6) 0.4216(3)
C17 C 0.2706(4) 0.8452(6) 0.3729(3)
H7 H 0.2858 0.8410 0.3463
C18 C 0.2220(3) 0.8924(6) 0.3606(3)
C19 C 0.2002(3) 0.9018(6) 0.4009(3)
C20 C 0.2302(4) 0.8609(7) 0.4512(3)
H8 H 0.2164 0.8669 0.4788
C21 C 0.2771(3) 0.8139(6) 0.4631(3)
H9 H 0.2960 0.7878 0.4980
O4 O 0.0729(2) 0.9632(4) 0.4983(2)
O5 O 0.3731(3) 0.7138(5) 0.4766(2)
O6 O 0.3688(3) 0.7447(6) 0.3978(2)
Tb3 Tb 0.441077(19) 0.64322(4) 0.449030(17)
Tb4 Tb 0.058923(19) 0.85678(4) 0.550970(17)
H18 H 0.9716 0.2588 0.0462
O9 O 0.9836(2) 0.0678(4) 0.04712(19)
Tb2 Tb 0.941077(19) 0.14322(4) 0.449030(17)
H11 H 0.0062 0.2620 0.6006
C23 C 0.0365(7) 0.1454(11) 0.6388(6)
H12 H 0.0767 0.1621 0.6509
H13 H 0.0326 0.0843 0.6281
C24 C 0.0171(7) 0.1599(11) 0.6859(6)
H14 H 0.0465 0.1916 0.7158
H15 H 0.0109 0.1045 0.6996
O7 O 0.0053(4) 0.1879(6) 0.5395(3)
H17 H 0.0282 0.1473 0.5451
H18_2 H 0.0284 0.2588 0.4538
C1_2 C 0.8874(3) 0.0675(6) 0.3456(3)
C2_2 C 0.8597(3) 0.0235(6) 0.2939(3)
C3_2 C 0.8784(3) 0.0313(6) 0.2524(3)
H1_2 H 0.9097 0.0678 0.2585
C8_2 C 0.9471(3) 0.0110(6) 0.0420(3)
C9_2 C 0.9225(3) 0.0074(6) 0.0834(3)
C13_2 C 0.9264(3) 0.0438(7) 0.1711(3)
H5_2 H 0.9451 0.0716 0.2055
C14_2 C 0.9480(3) 0.0527(6) 0.1319(3)
H6_2 H 0.9795 0.0890 0.1382
C22_2 C 0.9984(6) 0.2011(10) 0.5899(6)
H10_2 H 0.9584 0.1898 0.5827
H16_2 H 0.9818 0.1928 0.6720
O1_2 O 0.8740(3) 0.0474(4) 0.3860(2)
O2_2 O 0.9237(2) 0.1255(4) 0.3527(2)
O8_2 O 0.9925(3) 0.2607(5) 0.4374(3)
H19_2 H 0.9829 0.2809 0.4053
O10_2 O 0.9271(2) 0.0368(4) 0.5017(2)
O11_2 O 0.8731(3) 0.2138(5) 0.4766(2)
O12_2 O 0.8688(3) 0.2447(6) 0.3978(2)
C4_2 C 0.8538(3) 0.9886(6) 0.2028(3)
C5_2 C 0.8060(3) 0.9373(7) 0.1916(3)
C6_2 C 0.7870(4) 0.9286(8) 0.2338(3)
H2_2 H 0.7559 0.8917 0.2280
C7_2 C 0.8113(4) 0.9710(8) 0.2823(3)
H3_2 H 0.7959 0.9655 0.3087
C10_2 C 0.8753(3) 0.9585(6) 0.0720(3)
H4_2 H 0.8587 0.9287 0.0382
C11_2 C 0.8507(3) 0.9520(6) 0.1111(3)
C12_2 C 0.8775(3) 0.9945(6) 0.1613(3)
C15_2 C 0.6515(4) 0.7505(7) 0.0670(4)
C16_2 C 0.7025(3) 0.8044(6) 0.0784(3)
C17_2 C 0.7294(4) 0.8452(6) 0.1271(3)
H7_2 H 0.7142 0.8410 0.1537
C18_2 C 0.7780(3) 0.8924(6) 0.1394(3)
C19_2 C 0.7998(3) 0.9018(6) 0.0991(3)
C20_2 C 0.7698(4) 0.8609(7) 0.0488(3)
H8_2 H 0.7836 0.8669 0.0212
C21_2 C 0.7229(3) 0.8139(6) 0.0369(3)
H9_2 H 0.7040 0.7878 0.0020
O4_2 O 0.9271(2) 0.9632(4) 0.0017(2)
O5_2 O 0.6269(3) 0.7138(5) 0.0234(2)
O6_2 O 0.6312(3) 0.7447(6) 0.1022(2)
Tb3_2 Tb 0.558923(19) 0.64322(4) 0.050970(17)
Tb4_2 Tb 0.941077(19) 0.85678(4) 0.949030(17)
C1_3 C 0.6126(3) 0.5675(6) 0.1544(3)
C2_3 C 0.6403(3) 0.5235(6) 0.2061(3)
C3_3 C 0.6216(3) 0.5313(6) 0.2476(3)
H1_3 H 0.5903 0.5678 0.2415
C4_3 C 0.6462(3) 0.4886(6) 0.2972(3)
C5_3 C 0.6940(3) 0.4373(7) 0.3084(3)
C6_3 C 0.7130(4) 0.4286(8) 0.2662(3)
H2_3 H 0.7441 0.3917 0.2720
C7_3 C 0.6887(4) 0.4710(8) 0.2177(3)
H3_3 H 0.7041 0.4655 0.1913
C8_3 C 0.5529(3) 0.5110(6) 0.4580(3)
C9_3 C 0.5775(3) 0.5074(6) 0.4166(3)
C10_3 C 0.6247(3) 0.4585(6) 0.4280(3)
H4_3 H 0.6413 0.4287 0.4618
C11_3 C 0.6493(3) 0.4520(6) 0.3889(3)
C12_3 C 0.6225(3) 0.4945(6) 0.3387(3)
C13_3 C 0.5736(3) 0.5438(7) 0.3289(3)
H5_3 H 0.5549 0.5716 0.2945
C14_3 C 0.5520(3) 0.5527(6) 0.3681(3)
H6_3 H 0.5205 0.5890 0.3618
C15_3 C 0.8485(4) 0.2505(7) 0.4330(4)
C16_3 C 0.7975(3) 0.3044(6) 0.4216(3)
C17_3 C 0.7706(4) 0.3452(6) 0.3729(3)
H7_3 H 0.7858 0.3410 0.3463
C18_3 C 0.7220(3) 0.3924(6) 0.3606(3)
C19_3 C 0.7002(3) 0.4018(6) 0.4009(3)
C20_3 C 0.7302(4) 0.3609(7) 0.4512(3)
H8_3 H 0.7164 0.3669 0.4788
C21_3 C 0.7771(3) 0.3139(6) 0.4631(3)
H9_3 H 0.7960 0.2878 0.4980
O1_3 O 0.6260(3) 0.5474(4) 0.1140(2)
O2_3 O 0.5763(2) 0.6255(4) 0.1473(2)
O3_2 O 0.5164(2) 0.5678(4) 0.45288(19)
O4_3 O 0.5729(2) 0.4632(4) 0.4983(2)
O8_3 O 0.5075(3) 0.7607(5) 0.0626(3)
H18_3 H 0.4716 0.7588 0.0462
H19_3 H 0.5171 0.7809 0.0947
O9_2 O 0.4836(2) 0.5678(4) 0.04712(19)
Tb4_3 Tb 0.558923(19) 0.35678(4) 0.550970(17)
C22_3 C 0.5016(6) 0.7011(10) 0.9101(6)
H10_3 H 0.5416 0.6898 0.9173
H11_2 H 0.4938 0.7620 0.8994
C23_2 C 0.4635(7) 0.6454(11) 0.8612(6)
H12_2 H 0.4233 0.6621 0.8491
H13_2 H 0.4674 0.5843 0.8719
C24_2 C 0.4829(7) 0.6599(11) 0.8141(6)
H14_2 H 0.4535 0.6916 0.7842
H15_2 H 0.4891 0.6045 0.8004
H16_3 H 0.5182 0.6928 0.8280
O7_2 O 0.4947(4) 0.6879(6) 0.9605(3)
H17_2 H 0.4718 0.6473 0.9549
O10_3 O 0.5729(2) 0.5368(4) 0.9983(2)
C1_4 C 0.3874(3) 0.5675(6) 0.3456(3)
C2_4 C 0.3597(3) 0.5235(6) 0.2939(3)
C3_4 C 0.3784(3) 0.5313(6) 0.2524(3)
H1_4 H 0.4097 0.5678 0.2585
C4_4 C 0.3538(3) 0.4886(6) 0.2028(3)
C5_4 C 0.3060(3) 0.4373(7) 0.1916(3)
C6_4 C 0.2870(4) 0.4286(8) 0.2338(3)
H2_4 H 0.2559 0.3917 0.2280
C7_4 C 0.3113(4) 0.4710(8) 0.2823(3)
H3_4 H 0.2959 0.4655 0.3087
C8_4 C 0.4471(3) 0.5110(6) 0.0420(3)
C9_4 C 0.4225(3) 0.5074(6) 0.0834(3)
C10_4 C 0.3753(3) 0.4585(6) 0.0720(3)
H4_4 H 0.3587 0.4287 0.0382
C11_4 C 0.3507(3) 0.4520(6) 0.1111(3)
C12_4 C 0.3775(3) 0.4945(6) 0.1613(3)
C13_4 C 0.4264(3) 0.5438(7) 0.1711(3)
H5_4 H 0.4451 0.5716 0.2055
C14_4 C 0.4480(3) 0.5527(6) 0.1319(3)
H6_4 H 0.4795 0.5890 0.1382
C15_4 C 0.1515(4) 0.2505(7) 0.0670(4)
C16_4 C 0.2025(3) 0.3044(6) 0.0784(3)
C17_4 C 0.2294(4) 0.3452(6) 0.1271(3)
H7_4 H 0.2142 0.3410 0.1537
C18_4 C 0.2780(3) 0.3924(6) 0.1394(3)
C19_4 C 0.2998(3) 0.4018(6) 0.0991(3)
C20_4 C 0.2698(4) 0.3609(7) 0.0488(3)
H8_4 H 0.2836 0.3669 0.0212
C21_4 C 0.2229(3) 0.3139(6) 0.0369(3)
H9_4 H 0.2040 0.2878 0.0020
C22_4 C 0.4984(6) 0.7011(10) 0.5899(6)
H10_4 H 0.4584 0.6898 0.5827
H11_3 H 0.5062 0.7620 0.6006
C23_3 C 0.5365(7) 0.6454(11) 0.6388(6)
H12_3 H 0.5767 0.6621 0.6509
H13_3 H 0.5326 0.5843 0.6281
C24_3 C 0.5171(7) 0.6599(11) 0.6859(6)
H14_3 H 0.5465 0.6916 0.7158
H15_3 H 0.5109 0.6045 0.6996
H16_4 H 0.4818 0.6928 0.6720
O1_4 O 0.3740(3) 0.5474(4) 0.3860(2)
O2_4 O 0.4237(2) 0.6255(4) 0.3527(2)
O4_4 O 0.4271(2) 0.4632(4) 0.0017(2)
O7_3 O 0.5053(4) 0.6879(6) 0.5395(3)
H17_3 H 0.5282 0.6473 0.5451
O8_4 O 0.4925(3) 0.7607(5) 0.4374(3)
H18_4 H 0.5284 0.7588 0.4538
H19_4 H 0.4829 0.7809 0.4053
O10_4 O 0.4271(2) 0.5368(4) 0.5017(2)
Tb4_4 Tb 0.441077(19) 0.35678(4) 0.949030(17)
H18_5 H 0.0284 0.7412 0.9538
O9_3 O 0.0164(2) 0.9322(4) 0.95288(19)
C4_5 C 0.8538(3) 0.0114(6) 0.7028(3)
C5_5 C 0.8060(3) 0.0627(7) 0.6916(3)
C6_5 C 0.7870(4) 0.0714(8) 0.7338(3)
H2_5 H 0.7559 0.1083 0.7280
C7_5 C 0.8113(4) 0.0290(8) 0.7823(3)
H3_5 H 0.7959 0.0345 0.8087
C10_5 C 0.8753(3) 0.0415(6) 0.5720(3)
H4_5 H 0.8587 0.0713 0.5382
C11_5 C 0.8507(3) 0.0480(6) 0.6111(3)
C12_5 C 0.8775(3) 0.0055(6) 0.6613(3)
C15_5 C 0.6515(4) 0.2495(7) 0.5670(4)
C16_5 C 0.7025(3) 0.1956(6) 0.5784(3)
C17_5 C 0.7294(4) 0.1548(6) 0.6271(3)
H7_5 H 0.7142 0.1590 0.6537
C18_5 C 0.7780(3) 0.1076(6) 0.6394(3)
C19_5 C 0.7998(3) 0.0982(6) 0.5991(3)
C20_5 C 0.7698(4) 0.1391(7) 0.5488(3)
H8_5 H 0.7836 0.1331 0.5212
C21_5 C 0.7229(3) 0.1861(6) 0.5369(3)
H9_5 H 0.7040 0.2122 0.5020
O5_3 O 0.6269(3) 0.2862(5) 0.5234(2)
O6_3 O 0.6312(3) 0.2553(6) 0.6022(2)
C22_5 C 0.9984(6) 0.7989(10) 0.0899(6)
H10_5 H 0.9584 0.8102 0.0827
H16_5 H 0.9818 0.8072 0.1720
C1_5 C 0.8874(3) 0.9325(6) 0.8456(3)
C2_5 C 0.8597(3) 0.9765(6) 0.7939(3)
C3_5 C 0.8784(3) 0.9687(6) 0.7524(3)
H1_5 H 0.9097 0.9322 0.7585
C8_5 C 0.9471(3) 0.9890(6) 0.5420(3)
C9_5 C 0.9225(3) 0.9926(6) 0.5834(3)
C13_5 C 0.9264(3) 0.9562(7) 0.6711(3)
H5_5 H 0.9451 0.9284 0.7055
C14_5 C 0.9480(3) 0.9473(6) 0.6319(3)
H6_5 H 0.9795 0.9110 0.6382
O1_5 O 0.8740(3) 0.9526(4) 0.8860(2)
O2_5 O 0.9237(2) 0.8745(4) 0.8527(2)
O3_3 O 0.9836(2) 0.9322(4) 0.54712(19)
O8_5 O 0.9925(3) 0.7393(5) 0.9374(3)
H19_5 H 0.9829 0.7191 0.9053
O11_3 O 0.8731(3) 0.7862(5) 0.9766(2)
O12_3 O 0.8688(3) 0.7553(6) 0.8978(2)
C4_6 C 0.1462(3) 0.0114(6) 0.7972(3)
C5_6 C 0.1940(3) 0.0627(7) 0.8084(3)
C6_6 C 0.2130(4) 0.0714(8) 0.7662(3)
H2_6 H 0.2441 0.1083 0.7720
C7_6 C 0.1887(4) 0.0290(8) 0.7177(3)
H3_6 H 0.2041 0.0345 0.6913
C10_6 C 0.1247(3) 0.0415(6) 0.9280(3)
H4_6 H 0.1413 0.0713 0.9618
C11_6 C 0.1493(3) 0.0480(6) 0.8889(3)
C12_6 C 0.1225(3) 0.0055(6) 0.8387(3)
C15_6 C 0.3485(4) 0.2495(7) 0.9330(4)
C16_6 C 0.2975(3) 0.1956(6) 0.9216(3)
C17_6 C 0.2706(4) 0.1548(6) 0.8729(3)
H7_6 H 0.2858 0.1590 0.8463
C18_6 C 0.2220(3) 0.1076(6) 0.8606(3)
C19_6 C 0.2002(3) 0.0982(6) 0.9009(3)
C20_6 C 0.2302(4) 0.1391(7) 0.9512(3)
H8_6 H 0.2164 0.1331 0.9788
C21_6 C 0.2771(3) 0.1861(6) 0.9631(3)
H9_6 H 0.2960 0.2122 0.9980
O5_4 O 0.3731(3) 0.2862(5) 0.9766(2)
O6_4 O 0.3688(3) 0.2553(6) 0.8978(2)
C1_6 C 0.1126(3) 0.9325(6) 0.6544(3)
C2_6 C 0.1403(3) 0.9765(6) 0.7061(3)
C3_6 C 0.1216(3) 0.9687(6) 0.7476(3)
H1_6 H 0.0903 0.9322 0.7415
C8_6 C 0.0529(3) 0.9890(6) 0.9580(3)
C9_6 C 0.0775(3) 0.9926(6) 0.9166(3)
C13_6 C 0.0736(3) 0.9562(7) 0.8289(3)
H5_6 H 0.0549 0.9284 0.7945
C14_6 C 0.0520(3) 0.9473(6) 0.8681(3)
H6_6 H 0.0205 0.9110 0.8618
C22_6 C 0.0016(6) 0.7989(10) 0.4101(6)
H10_6 H 0.0416 0.8102 0.4173
H16_6 H 0.0182 0.8072 0.3280
O1_6 O 0.1260(3) 0.9526(4) 0.6140(2)
O2_6 O 0.0763(2) 0.8745(4) 0.6473(2)
O8_6 O 0.0075(3) 0.7393(5) 0.5626(3)
H19_6 H 0.0171 0.7191 0.5947
O11_4 O 0.1269(3) 0.7862(5) 0.5234(2)
O12_4 O 0.1312(3) 0.7553(6) 0.6022(2)
H11_4 H 0.9938 0.7380 0.3994
C23_4 C 0.9635(7) 0.8546(11) 0.3612(6)
H12_4 H 0.9233 0.8379 0.3491
H13_4 H 0.9674 0.9157 0.3719
C24_4 C 0.9829(7) 0.8401(11) 0.3141(6)
H14_4 H 0.9535 0.8084 0.2842
H15_4 H 0.9891 0.8955 0.3004
O7_4 O 0.9947(4) 0.8121(6) 0.4605(3)
H17_4 H 0.9718 0.8527 0.4549
H18_6 H 0.9716 0.7412 0.5462
C22_7 C 0.4984(6) 0.2989(10) 0.0899(6)
H10_7 H 0.4584 0.3102 0.0827
H11_5 H 0.5062 0.2380 0.1006
C23_5 C 0.5365(7) 0.3546(11) 0.1388(6)
H12_5 H 0.5767 0.3379 0.1509
H13_5 H 0.5326 0.4157 0.1281
C24_5 C 0.5171(7) 0.3401(11) 0.1859(6)
H14_5 H 0.5465 0.3084 0.2158
H15_5 H 0.5109 0.3955 0.1996
H16_7 H 0.4818 0.3072 0.1720
O7_5 O 0.5053(4) 0.3121(6) 0.0395(3)
H17_5 H 0.5282 0.3527 0.0451
C1_7 C 0.3874(3) 0.4325(6) 0.8456(3)
C2_7 C 0.3597(3) 0.4765(6) 0.7939(3)
C3_7 C 0.3784(3) 0.4687(6) 0.7524(3)
H1_7 H 0.4097 0.4322 0.7585
C4_7 C 0.3538(3) 0.5114(6) 0.7028(3)
C5_7 C 0.3060(3) 0.5627(7) 0.6916(3)
C6_7 C 0.2870(4) 0.5714(8) 0.7338(3)
H2_7 H 0.2559 0.6083 0.7280
C7_7 C 0.3113(4) 0.5290(8) 0.7823(3)
H3_7 H 0.2959 0.5345 0.8087
C8_7 C 0.4471(3) 0.4890(6) 0.5420(3)
C9_7 C 0.4225(3) 0.4926(6) 0.5834(3)
C10_7 C 0.3753(3) 0.5415(6) 0.5720(3)
H4_7 H 0.3587 0.5713 0.5382
C11_7 C 0.3507(3) 0.5480(6) 0.6111(3)
C12_7 C 0.3775(3) 0.5055(6) 0.6613(3)
C13_7 C 0.4264(3) 0.4562(7) 0.6711(3)
H5_7 H 0.4451 0.4284 0.7055
C14_7 C 0.4480(3) 0.4473(6) 0.6319(3)
H6_7 H 0.4795 0.4110 0.6382
C15_7 C 0.1515(4) 0.7495(7) 0.5670(4)
C16_7 C 0.2025(3) 0.6956(6) 0.5784(3)
C17_7 C 0.2294(4) 0.6548(6) 0.6271(3)
H7_7 H 0.2142 0.6590 0.6537
C18_7 C 0.2780(3) 0.6076(6) 0.6394(3)
C19_7 C 0.2998(3) 0.5982(6) 0.5991(3)
C20_7 C 0.2698(4) 0.6391(7) 0.5488(3)
H8_7 H 0.2836 0.6331 0.5212
C21_7 C 0.2229(3) 0.6861(6) 0.5369(3)
H9_7 H 0.2040 0.7122 0.5020
O1_7 O 0.3740(3) 0.4526(4) 0.8860(2)
O2_7 O 0.4237(2) 0.3745(4) 0.8527(2)
O3_4 O 0.4836(2) 0.4322(4) 0.54712(19)
O8_7 O 0.4925(3) 0.2393(5) 0.9374(3)
H18_7 H 0.5284 0.2412 0.9538
H19_7 H 0.4829 0.2191 0.9053
O9_4 O 0.5164(2) 0.4322(4) 0.95288(19)
C1_8 C 0.6126(3) 0.4325(6) 0.6544(3)
C2_8 C 0.6403(3) 0.4765(6) 0.7061(3)
C3_8 C 0.6216(3) 0.4687(6) 0.7476(3)
H1_8 H 0.5903 0.4322 0.7415
C4_8 C 0.6462(3) 0.5114(6) 0.7972(3)
C5_8 C 0.6940(3) 0.5627(7) 0.8084(3)
C6_8 C 0.7130(4) 0.5714(8) 0.7662(3)
H2_8 H 0.7441 0.6083 0.7720
C7_8 C 0.6887(4) 0.5290(8) 0.7177(3)
H3_8 H 0.7041 0.5345 0.6913
C8_8 C 0.5529(3) 0.4890(6) 0.9580(3)
C9_8 C 0.5775(3) 0.4926(6) 0.9166(3)
C10_8 C 0.6247(3) 0.5415(6) 0.9280(3)
H4_8 H 0.6413 0.5713 0.9618
C11_8 C 0.6493(3) 0.5480(6) 0.8889(3)
C12_8 C 0.6225(3) 0.5055(6) 0.8387(3)
C13_8 C 0.5736(3) 0.4562(7) 0.8289(3)
H5_8 H 0.5549 0.4284 0.7945
C14_8 C 0.5520(3) 0.4473(6) 0.8681(3)
H6_8 H 0.5205 0.4110 0.8618
C15_8 C 0.8485(4) 0.7495(7) 0.9330(4)
C16_8 C 0.7975(3) 0.6956(6) 0.9216(3)
C17_8 C 0.7706(4) 0.6548(6) 0.8729(3)
H7_8 H 0.7858 0.6590 0.8463
C18_8 C 0.7220(3) 0.6076(6) 0.8606(3)
C19_8 C 0.7002(3) 0.5982(6) 0.9009(3)
C20_8 C 0.7302(4) 0.6391(7) 0.9512(3)
H8_8 H 0.7164 0.6331 0.9788
C21_8 C 0.7771(3) 0.6861(6) 0.9631(3)
H9_8 H 0.7960 0.7122 0.9980
C22_8 C 0.5016(6) 0.2989(10) 0.4101(6)
H10_8 H 0.5416 0.3102 0.4173
H11_6 H 0.4938 0.2380 0.3994
C23_6 C 0.4635(7) 0.3546(11) 0.3612(6)
H12_6 H 0.4233 0.3379 0.3491
H13_6 H 0.4674 0.4157 0.3719
C24_6 C 0.4829(7) 0.3401(11) 0.3141(6)
H14_6 H 0.4535 0.3084 0.2842
H15_6 H 0.4891 0.3955 0.3004
H16_8 H 0.5182 0.3072 0.3280
O1_8 O 0.6260(3) 0.4526(4) 0.6140(2)
O2_8 O 0.5763(2) 0.3745(4) 0.6473(2)
O7_6 O 0.4947(4) 0.3121(6) 0.4605(3)
H17_6 H 0.4718 0.3527 0.4549
O8_8 O 0.5075(3) 0.2393(5) 0.5626(3)
H18_8 H 0.4716 0.2412 0.5462
H19_8 H 0.5171 0.2191 0.5947
H11_7 H 0.9938 0.2620 0.8994
C23_7 C 0.9635(7) 0.1454(11) 0.8612(6)
H12_7 H 0.9233 0.1621 0.8491
H13_7 H 0.9674 0.0843 0.8719
C24_7 C 0.9829(7) 0.1599(11) 0.8141(6)
H14_7 H 0.9535 0.1916 0.7842
H15_7 H 0.9891 0.1045 0.8004
O7_7 O 0.9947(4) 0.1879(6) 0.9605(3)
H17_7 H 0.9718 0.1473 0.9549
H11_8 H 0.0062 0.7380 0.1006
C23_8 C 0.0365(7) 0.8546(11) 0.1388(6)
H12_8 H 0.0767 0.8379 0.1509
H13_8 H 0.0326 0.9157 0.1281
C24_8 C 0.0171(7) 0.8401(11) 0.1859(6)
H14_8 H 0.0465 0.8084 0.2158
H15_8 H 0.0109 0.8955 0.1996
O7_8 O 0.0053(4) 0.8121(6) 0.0395(3)
H17_8 H 0.0282 0.8527 0.0451
loop_
_geom_bond_atom_site_label_1
_geom_bond_atom_site_label_2
_geom_bond_site_symmetry_1
_geom_bond_site_symmetry_2
C1 C2 1_555 1_555
C2 C3 1_555 1_555
C3 H1 1_555 1_555
C8 C9 1_555 1_555
H5 C13 1_555 1_555
C14 C9 1_555 1_555
H6 C14 1_555 1_555
O1 C1 1_555 1_555
O2 C1 1_555 1_555
O3 C8 1_555 1_555
H19 O8 1_555 1_555
Tb1 O1 1_555 1_555
O11 Tb1 1_555 1_555
O12 Tb1 1_555 1_555
C13 C14 1_555 1_555
O2 Tb1 1_555 1_555
O8 Tb1 1_555 1_555
C22 H10 1_555 1_555
C5 C4 1_555 1_555
C6 C5 1_555 1_555
H2 C6 1_555 1_555
H3 C7 1_555 1_555
C10 H4 1_555 1_555
C11 C10 1_555 1_555
C12 C4 1_555 1_555
C15 C16 1_555 1_555
C16 C17 1_555 1_555
C17 H7 1_555 1_555
C18 C5 1_555 1_555
C19 C11 1_555 1_555
C20 C19 1_555 1_555
H8 C20 1_555 1_555
C21 C16 1_555 1_555
H9 C21 1_555 1_555
O5 C15 1_555 1_555
O6 C15 1_555 1_555
Tb3 O5 1_555 1_555
Tb4 O4 1_555 1_555
C6 C7 1_555 1_555
C11 C12 1_555 1_555
C17 C18 1_555 1_555
C18 C19 1_555 1_555
C20 C21 1_555 1_555
O6 Tb3 1_555 1_555
H12 C23 1_555 1_555
H13 C23 1_555 1_555
C24 C23 1_555 1_555
H14 C24 1_555 1_555
H15 C24 1_555 1_555
H17 O7 1_555 1_555
C1_2 C2_2 1_555 1_555
C2_2 C3_2 1_555 1_555
C3_2 H1_2 1_555 1_555
C8_2 C9_2 1_555 1_555
H5_2 C13_2 1_555 1_555
C14_2 C9_2 1_555 1_555
H6_2 C14_2 1_555 1_555
C22_2 H10_2 1_555 1_555
O1_2 C1_2 1_555 1_555
O2_2 C1_2 1_555 1_555
O9 C8_2 1_555 1_555
H19_2 O8_2 1_555 1_555
Tb2 O1_2 1_555 1_555
O10_2 Tb2 1_555 1_555
O11_2 Tb2 1_555 1_555
O12_2 Tb2 1_555 1_555
C13_2 C14_2 1_555 1_555
O2_2 Tb2 1_555 1_555
O8_2 Tb2 1_555 1_555
C5_2 C4_2 1_555 1_555
C6_2 C5_2 1_555 1_555
H2_2 C6_2 1_555 1_555
H3_2 C7_2 1_555 1_555
C10_2 H4_2 1_555 1_555
C11_2 C10_2 1_555 1_555
C12_2 C4_2 1_555 1_555
C15_2 C16_2 1_555 1_555
C16_2 C17_2 1_555 1_555
C17_2 H7_2 1_555 1_555
C18_2 C5_2 1_555 1_555
C19_2 C11_2 1_555 1_555
C20_2 C19_2 1_555 1_555
H8_2 C20_2 1_555 1_555
C21_2 C16_2 1_555 1_555
H9_2 C21_2 1_555 1_555
O5_2 C15_2 1_555 1_555
O6_2 C15_2 1_555 1_555
Tb3_2 O5_2 1_555 1_555
C6_2 C7_2 1_555 1_555
C11_2 C12_2 1_555 1_555
C17_2 C18_2 1_555 1_555
C18_2 C19_2 1_555 1_555
C20_2 C21_2 1_555 1_555
O6_2 Tb3_2 1_555 1_555
C1_3 C2_3 1_555 1_555
C2_3 C3_3 1_555 1_555
C3_3 H1_3 1_555 1_555
C4_3 C3_3 1_555 1_555
C5_3 C4_3 1_555 1_555
C6_3 C5_3 1_555 1_555
H2_3 C6_3 1_555 1_555
C7_3 C2_3 1_555 1_555
H3_3 C7_3 1_555 1_555
C8_3 C9_3 1_555 1_555
C9_3 C10_3 1_555 1_555
C10_3 H4_3 1_555 1_555
C11_3 C10_3 1_555 1_555
C12_3 C4_3 1_555 1_555
C13_3 C12_3 1_555 1_555
H5_3 C13_3 1_555 1_555
C14_3 C9_3 1_555 1_555
H6_3 C14_3 1_555 1_555
C15_3 C16_3 1_555 1_555
C16_3 C17_3 1_555 1_555
C17_3 H7_3 1_555 1_555
C18_3 C5_3 1_555 1_555
C19_3 C11_3 1_555 1_555
C20_3 C19_3 1_555 1_555
H8_3 C20_3 1_555 1_555
C21_3 C16_3 1_555 1_555
H9_3 C21_3 1_555 1_555
O1_3 C1_3 1_555 1_555
O2_3 C1_3 1_555 1_555
O3_2 C8_3 1_555 1_555
O4_3 C8_3 1_555 1_555
O11_2 C15_3 1_555 1_555
O12_2 C15_3 1_555 1_555
O8_3 H18_3 1_555 1_555
H19_3 O8_3 1_555 1_555
Tb3_2 O1_3 1_555 1_555
O9_2 Tb3_2 1_555 1_555
Tb3 O3_2 1_555 1_555
Tb4_3 O4_3 1_555 1_555
C6_3 C7_3 1_555 1_555
C11_3 C12_3 1_555 1_555
C13_3 C14_3 1_555 1_555
C17_3 C18_3 1_555 1_555
C18_3 C19_3 1_555 1_555
C20_3 C21_3 1_555 1_555
O2_3 Tb3_2 1_555 1_555
O8_3 Tb3_2 1_555 1_555
C22_3 H10_3 1_555 1_555
H11_2 C22_3 1_555 1_555
C23_2 C22_3 1_555 1_555
H12_2 C23_2 1_555 1_555
H13_2 C23_2 1_555 1_555
C24_2 C23_2 1_555 1_555
H14_2 C24_2 1_555 1_555
H15_2 C24_2 1_555 1_555
H16_3 C24_2 1_555 1_555
O7_2 C22_3 1_555 1_555
H17_2 O7_2 1_555 1_555
C1_4 C2_4 1_555 1_555
C2_4 C3_4 1_555 1_555
C3_4 H1_4 1_555 1_555
C4_4 C3_4 1_555 1_555
C5_4 C4_4 1_555 1_555
C6_4 C5_4 1_555 1_555
H2_4 C6_4 1_555 1_555
C7_4 C2_4 1_555 1_555
H3_4 C7_4 1_555 1_555
C8_4 C9_4 1_555 1_555
C9_4 C10_4 1_555 1_555
C10_4 H4_4 1_555 1_555
C11_4 C10_4 1_555 1_555
C12_4 C4_4 1_555 1_555
C13_4 C12_4 1_555 1_555
H5_4 C13_4 1_555 1_555
C14_4 C9_4 1_555 1_555
H6_4 C14_4 1_555 1_555
C15_4 C16_4 1_555 1_555
C16_4 C17_4 1_555 1_555
C17_4 H7_4 1_555 1_555
C18_4 C5_4 1_555 1_555
C19_4 C11_4 1_555 1_555
C20_4 C19_4 1_555 1_555
H8_4 C20_4 1_555 1_555
C21_4 C16_4 1_555 1_555
H9_4 C21_4 1_555 1_555
C22_4 H10_4 1_555 1_555
H11_3 C22_4 1_555 1_555
C23_3 C22_4 1_555 1_555
H12_3 C23_3 1_555 1_555
H13_3 C23_3 1_555 1_555
C24_3 C23_3 1_555 1_555
H14_3 C24_3 1_555 1_555
H15_3 C24_3 1_555 1_555
H16_4 C24_3 1_555 1_555
O1_4 C1_4 1_555 1_555
O2_4 C1_4 1_555 1_555
O9_2 C8_4 1_555 1_555
O4_4 C8_4 1_555 1_555
O11 C15_4 1_555 1_555
O12 C15_4 1_555 1_555
O7_3 C22_4 1_555 1_555
H17_3 O7_3 1_555 1_555
O8_4 H18_4 1_555 1_555
H19_4 O8_4 1_555 1_555
Tb3 O1_4 1_555 1_555
O10_4 Tb3 1_555 1_555
C6_4 C7_4 1_555 1_555
C11_4 C12_4 1_555 1_555
C13_4 C14_4 1_555 1_555
C17_4 C18_4 1_555 1_555
C18_4 C19_4 1_555 1_555
C20_4 C21_4 1_555 1_555
O2_4 Tb3 1_555 1_555
O7_3 Tb3 1_555 1_555
O8_4 Tb3 1_555 1_555
C5_5 C4_5 1_555 1_555
C6_5 C5_5 1_555 1_555
H2_5 C6_5 1_555 1_555
H3_5 C7_5 1_555 1_555
C10_5 H4_5 1_555 1_555
C11_5 C10_5 1_555 1_555
C12_5 C4_5 1_555 1_555
C15_5 C16_5 1_555 1_555
C16_5 C17_5 1_555 1_555
C17_5 H7_5 1_555 1_555
C18_5 C5_5 1_555 1_555
C19_5 C11_5 1_555 1_555
C20_5 C19_5 1_555 1_555
H8_5 C20_5 1_555 1_555
C21_5 C16_5 1_555 1_555
H9_5 C21_5 1_555 1_555
O5_3 C15_5 1_555 1_555
O6_3 C15_5 1_555 1_555
Tb4_3 O5_3 1_555 1_555
C6_5 C7_5 1_555 1_555
C11_5 C12_5 1_555 1_555
C17_5 C18_5 1_555 1_555
C18_5 C19_5 1_555 1_555
C20_5 C21_5 1_555 1_555
O6_3 Tb4_3 1_555 1_555
C22_5 H10_5 1_555 1_555
C1_5 C2_5 1_555 1_555
C2_5 C3_5 1_555 1_555
C3_5 H1_5 1_555 1_555
C8_5 C9_5 1_555 1_555
H5_5 C13_5 1_555 1_555
C14_5 C9_5 1_555 1_555
H6_5 C14_5 1_555 1_555
O1_5 C1_5 1_555 1_555
O2_5 C1_5 1_555 1_555
O3_3 C8_5 1_555 1_555
H19_5 O8_5 1_555 1_555
Tb4_2 O1_5 1_555 1_555
O11_3 Tb4_2 1_555 1_555
O12_3 Tb4_2 1_555 1_555
C13_5 C14_5 1_555 1_555
O2_5 Tb4_2 1_555 1_555
O8_5 Tb4_2 1_555 1_555
C5_6 C4_6 1_555 1_555
C6_6 C5_6 1_555 1_555
H2_6 C6_6 1_555 1_555
H3_6 C7_6 1_555 1_555
C10_6 H4_6 1_555 1_555
C11_6 C10_6 1_555 1_555
C12_6 C4_6 1_555 1_555
C15_6 C16_6 1_555 1_555
C16_6 C17_6 1_555 1_555
C17_6 H7_6 1_555 1_555
C18_6 C5_6 1_555 1_555
C19_6 C11_6 1_555 1_555
C20_6 C19_6 1_555 1_555
H8_6 C20_6 1_555 1_555
C21_6 C16_6 1_555 1_555
H9_6 C21_6 1_555 1_555
O5_4 C15_6 1_555 1_555
O6_4 C15_6 1_555 1_555
Tb4_4 O5_4 1_555 1_555
C6_6 C7_6 1_555 1_555
C11_6 C12_6 1_555 1_555
C17_6 C18_6 1_555 1_555
C18_6 C19_6 1_555 1_555
C20_6 C21_6 1_555 1_555
O6_4 Tb4_4 1_555 1_555
C1_6 C2_6 1_555 1_555
C2_6 C3_6 1_555 1_555
C3_6 H1_6 1_555 1_555
C8_6 C9_6 1_555 1_555
H5_6 C13_6 1_555 1_555
C14_6 C9_6 1_555 1_555
H6_6 C14_6 1_555 1_555
C22_6 H10_6 1_555 1_555
O1_6 C1_6 1_555 1_555
O2_6 C1_6 1_555 1_555
O9_3 C8_6 1_555 1_555
H19_6 O8_6 1_555 1_555
Tb4 O1_6 1_555 1_555
O11_4 Tb4 1_555 1_555
O12_4 Tb4 1_555 1_555
C13_6 C14_6 1_555 1_555
O2_6 Tb4 1_555 1_555
O8_6 Tb4 1_555 1_555
H12_4 C23_4 1_555 1_555
H13_4 C23_4 1_555 1_555
C24_4 C23_4 1_555 1_555
H14_4 C24_4 1_555 1_555
H15_4 C24_4 1_555 1_555
H17_4 O7_4 1_555 1_555
C22_7 H10_7 1_555 1_555
H11_5 C22_7 1_555 1_555
C23_5 C22_7 1_555 1_555
H12_5 C23_5 1_555 1_555
H13_5 C23_5 1_555 1_555
C24_5 C23_5 1_555 1_555
H14_5 C24_5 1_555 1_555
H15_5 C24_5 1_555 1_555
H16_7 C24_5 1_555 1_555
O7_5 C22_7 1_555 1_555
H17_5 O7_5 1_555 1_555
C1_7 C2_7 1_555 1_555
C2_7 C3_7 1_555 1_555
C3_7 H1_7 1_555 1_555
C4_7 C3_7 1_555 1_555
C5_7 C4_7 1_555 1_555
C6_7 C5_7 1_555 1_555
H2_7 C6_7 1_555 1_555
C7_7 C2_7 1_555 1_555
H3_7 C7_7 1_555 1_555
C8_7 C9_7 1_555 1_555
C9_7 C10_7 1_555 1_555
C10_7 H4_7 1_555 1_555
C11_7 C10_7 1_555 1_555
C12_7 C4_7 1_555 1_555
C13_7 C12_7 1_555 1_555
H5_7 C13_7 1_555 1_555
C14_7 C9_7 1_555 1_555
H6_7 C14_7 1_555 1_555
C15_7 C16_7 1_555 1_555
C16_7 C17_7 1_555 1_555
C17_7 H7_7 1_555 1_555
C18_7 C5_7 1_555 1_555
C19_7 C11_7 1_555 1_555
C20_7 C19_7 1_555 1_555
H8_7 C20_7 1_555 1_555
C21_7 C16_7 1_555 1_555
H9_7 C21_7 1_555 1_555
O1_7 C1_7 1_555 1_555
O2_7 C1_7 1_555 1_555
O3_4 C8_7 1_555 1_555
O10_4 C8_7 1_555 1_555
O11_4 C15_7 1_555 1_555
O12_4 C15_7 1_555 1_555
O8_7 H18_7 1_555 1_555
H19_7 O8_7 1_555 1_555
Tb4_4 O1_7 1_555 1_555
O9_4 Tb4_4 1_555 1_555
Tb4_3 O3_4 1_555 1_555
C6_7 C7_7 1_555 1_555
C11_7 C12_7 1_555 1_555
C13_7 C14_7 1_555 1_555
C17_7 C18_7 1_555 1_555
C18_7 C19_7 1_555 1_555
C20_7 C21_7 1_555 1_555
O2_7 Tb4_4 1_555 1_555
O8_7 Tb4_4 1_555 1_555
C1_8 C2_8 1_555 1_555
C2_8 C3_8 1_555 1_555
C3_8 H1_8 1_555 1_555
C4_8 C3_8 1_555 1_555
C5_8 C4_8 1_555 1_555
C6_8 C5_8 1_555 1_555
H2_8 C6_8 1_555 1_555
C7_8 C2_8 1_555 1_555
H3_8 C7_8 1_555 1_555
C8_8 C9_8 1_555 1_555
C9_8 C10_8 1_555 1_555
C10_8 H4_8 1_555 1_555
C11_8 C10_8 1_555 1_555
C12_8 C4_8 1_555 1_555
C13_8 C12_8 1_555 1_555
H5_8 C13_8 1_555 1_555
C14_8 C9_8 1_555 1_555
H6_8 C14_8 1_555 1_555
C15_8 C16_8 1_555 1_555
C16_8 C17_8 1_555 1_555
C17_8 H7_8 1_555 1_555
C18_8 C5_8 1_555 1_555
C19_8 C11_8 1_555 1_555
C20_8 C19_8 1_555 1_555
H8_8 C20_8 1_555 1_555
C21_8 C16_8 1_555 1_555
H9_8 C21_8 1_555 1_555
C22_8 H10_8 1_555 1_555
H11_6 C22_8 1_555 1_555
C23_6 C22_8 1_555 1_555
H12_6 C23_6 1_555 1_555
H13_6 C23_6 1_555 1_555
C24_6 C23_6 1_555 1_555
H14_6 C24_6 1_555 1_555
H15_6 C24_6 1_555 1_555
H16_8 C24_6 1_555 1_555
O1_8 C1_8 1_555 1_555
O2_8 C1_8 1_555 1_555
O9_4 C8_8 1_555 1_555
O10_3 C8_8 1_555 1_555
O11_3 C15_8 1_555 1_555
O12_3 C15_8 1_555 1_555
O7_6 C22_8 1_555 1_555
H17_6 O7_6 1_555 1_555
O8_8 H18_8 1_555 1_555
H19_8 O8_8 1_555 1_555
Tb4_3 O1_8 1_555 1_555
C6_8 C7_8 1_555 1_555
C11_8 C12_8 1_555 1_555
C13_8 C14_8 1_555 1_555
C17_8 C18_8 1_555 1_555
C18_8 C19_8 1_555 1_555
C20_8 C21_8 1_555 1_555
O2_8 Tb4_3 1_555 1_555
O7_6 Tb4_3 1_555 1_555
O8_8 Tb4_3 1_555 1_555
H12_7 C23_7 1_555 1_555
H13_7 C23_7 1_555 1_555
C24_7 C23_7 1_555 1_555
H14_7 C24_7 1_555 1_555
H15_7 C24_7 1_555 1_555
H17_7 O7_7 1_555 1_555
H12_8 C23_8 1_555 1_555
H13_8 C23_8 1_555 1_555
C24_8 C23_8 1_555 1_555
H14_8 C24_8 1_555 1_555
H15_8 C24_8 1_555 1_555
H17_8 O7_8 1_555 1_555

#END
