
###############################################################################
#
# This file contains modified crystal structure data generated from the
# MOF subset of the Cambridge Structural Database (CSD) v543 
# hosted by the Cambridge Crystallographic Data Centre (CCDC).
#
# This work is licensed under the Creative Commons
# Attribution-NonCommercial-ShareAlike 4.0 International License.
# To view a copy of this license, visit
# http://creativecommons.org/licenses/by-nc-sa/4.0/
# or send a letter to
# Creative Commons, PO Box 1866, Mountain View, CA 94042, USA.
#
# CIF created using the CSD Python API on 29 September 2022
# The structure has been converted into the P1 space group
# The structure has a 3D framework
# The original CSD entry MINMAA01 is in the cubic crystal system
# The framework has been calculated to contain at least 10.0% void space
# The void calculation uses a probe of radius 1.32A, grid spacing 0.4
#
###############################################################################

data_MINMAA01
_chemical_formula_moiety         '(C576 H384 N576 O384 Zn100)n'
_symmetry_cell_setting           triclinic
_symmetry_space_group_name_H-M   'P 1'
_symmetry_Int_Tables_number      1
_space_group_name_Hall           'P 1'
loop_
_symmetry_equiv_pos_site_id
_symmetry_equiv_pos_as_xyz
1 x,y,z
_cell_length_a                   34.6372(2)
_cell_length_b                   34.6372(2)
_cell_length_c                   34.6372(2)
_cell_angle_alpha                90
_cell_angle_beta                 90
_cell_angle_gamma                90
_cell_volume                     41555.5
loop_
_atom_site_label
_atom_site_type_symbol
_atom_site_fract_x
_atom_site_fract_y
_atom_site_fract_z
Zn1 Zn 0.000000 0.750000 0.11672(3)
C1 C 0.08383(15) 0.72803(17) 0.10170(16)
H1 H 0.085989 0.714031 0.124504
C2 C 0.11130(16) 0.73066(17) 0.07354(17)
H2 H 0.135398 0.718851 0.074451
C3 C 0.06350(14) 0.76325(14) 0.05623(15)
C9 C 0.18665(15) 0.69546(16) 0.00155(15)
C10 C 0.02080(18) 0.66537(16) 0.13116(16)
H7 H 0.034605 0.663089 0.108245
C11 C 0.01787(17) 0.63695(17) 0.15930(17)
H8 H 0.028879 0.612495 0.158084
N1 N 0.05231(13) 0.74972(12) 0.09051(14)
N2 N 0.09817(13) 0.75337(13) 0.04355(14)
N3 N 0.03998(13) 0.78822(12) 0.03454(13)
N9 N 0.20706(12) 0.71769(12) 0.03004(13)
N10 N 0.00068(12) 0.69657(13) 0.14207(14)
O1 O 0.00700(12) 0.79566(14) 0.04735(14)
O2 O 0.05216(13) 0.80112(13) 0.00407(12)
O5 O 0.19390(12) 0.75010(12) 0.03918(13)
O6 O 0.23596(13) 0.70329(13) 0.04502(13)
C24 C 0.01238(15) 0.81437(15) 0.17627(15)
N23 N 0.00399(12) 0.84899(12) 0.18920(15)
N24 N 0.03941(13) 0.78989(13) 0.19822(12)
O15 O 0.04646(13) 0.75761(13) 0.18461(14)
O16 O 0.05315(13) 0.80239(13) 0.22791(12)
Zn7 Zn 0.250000 0.63323(3) 0.000000
Zn8 Zn 0.00807(2) 0.87489(2) 0.24127(2)
Zn2 Zn 0.000000 0.750000 0.86677(3)
Zn3 Zn 0.12511(2) 0.75873(2) 0.99193(2)
C4 C 0.10505(17) 0.78798(18) 0.91165(17)
H3 H 0.126503 0.804118 0.911362
C5 C 0.07806(17) 0.78599(17) 0.88383(16)
H4 H 0.077652 0.800234 0.861071
C6 C 0.06368(15) 0.74732(15) 0.92953(16)
C7 C 0.14504(17) 0.67951(17) 0.96133(19)
H5 H 0.123729 0.679260 0.944997
C8 C 0.17302(18) 0.65140(17) 0.96324(19)
H6 H 0.173793 0.629131 0.948260
N4 N 0.09591(12) 0.76229(14) 0.94068(13)
N5 N 0.05068(13) 0.75859(13) 0.89535(13)
N6 N 0.04404(13) 0.71810(12) 0.95030(13)
N7 N 0.15352(12) 0.70743(14) 0.98696(14)
N8 N 0.19945(14) 0.66145(14) 0.99063(14)
O3 O 0.05740(13) 0.70903(13) 0.98199(13)
O4 O 0.01454(13) 0.70479(13) 0.93615(12)
Zn4 Zn 0.00807(2) 0.62511(2) 0.74127(2)
C16 C 0.08835(17) 0.60505(17) 0.71202(18)
H11 H 0.088638 0.626503 0.695882
C17 C 0.11617(16) 0.57806(17) 0.71401(17)
H12 H 0.138929 0.577652 0.699766
C18 C 0.07047(16) 0.56368(15) 0.75268(15)
C19 C 0.03867(19) 0.64504(17) 0.82049(17)
H13 H 0.055003 0.623729 0.820740
C20 C 0.03676(19) 0.67302(18) 0.84860(17)
H14 H 0.051740 0.673793 0.870869
N16 N 0.05932(13) 0.59591(12) 0.73771(14)
N17 N 0.10465(13) 0.55068(13) 0.74141(13)
N18 N 0.04970(13) 0.54404(13) 0.78190(12)
N19 N 0.01304(14) 0.65352(12) 0.79257(14)
N20 N 0.00937(14) 0.69945(14) 0.83855(14)
O11 O 0.01801(13) 0.55740(13) 0.79097(13)
O12 O 0.06385(12) 0.51454(13) 0.79521(13)
Zn6 Zn 0.13323(3) 0.500000 0.750000
Zn7_2 Zn 0.250000 0.63323(3) 1.000000
N28 N 0.00399(12) 0.65101(12) 0.68920(15)
N29 N 0.15101(12) 0.81080(15) 0.99601(12)
Zn1_2 Zn 1.000000 0.750000 0.11672(3)
C12 C 0.98762(15) 0.68563(15) 0.17627(15)
N11 N 0.99601(12) 0.65101(12) 0.18920(15)
N12 N 0.96059(13) 0.71011(13) 0.19822(12)
O7 O 0.95354(13) 0.74239(13) 0.18461(14)
O8 O 0.94685(13) 0.69761(13) 0.22791(12)
C22 C 0.97920(18) 0.83463(16) 0.13116(16)
H15 H 0.965395 0.836911 0.108245
C23 C 0.98213(17) 0.86305(17) 0.15930(17)
H16 H 0.971121 0.887505 0.158084
N22 N 0.99932(12) 0.80343(13) 0.14207(14)
Zn9 Zn 0.99193(2) 0.62511(2) 0.24127(2)
N25 N 0.94769(13) 0.75028(12) 0.09051(14)
Zn2_2 Zn 1.000000 0.750000 0.86677(3)
C13 C 0.89830(16) 0.58383(15) 0.77197(17)
H9 H 0.875496 0.585989 0.785969
C14 C 0.92646(17) 0.61130(16) 0.76934(17)
H10 H 0.925549 0.635398 0.781149
C15 C 0.94377(15) 0.56350(14) 0.73675(14)
C21 C 0.99845(15) 0.68665(15) 0.80454(16)
N13 N 0.90949(14) 0.55231(13) 0.75028(12)
N14 N 0.95645(14) 0.59817(13) 0.74663(13)
N15 N 0.96546(13) 0.53998(13) 0.71178(12)
N21 N 0.96996(13) 0.70706(12) 0.78231(12)
O9 O 0.95265(14) 0.50700(12) 0.70434(14)
O10 O 0.99593(12) 0.55216(13) 0.69888(13)
O13 O 0.96082(13) 0.69390(12) 0.74990(12)
O14 O 0.95498(13) 0.73596(13) 0.79671(13)
Zn5 Zn 0.88328(3) 0.500000 0.750000
N26 N 0.94932(13) 0.74141(13) 0.89535(13)
N27 N 0.99063(14) 0.80055(14) 0.83855(14)
Zn1_3 Zn 0.500000 0.250000 0.61672(3)
Zn2_3 Zn 0.500000 0.250000 0.36677(3)
Zn3_2 Zn 0.37489(2) 0.24127(2) 0.49193(2)
C1_2 C 0.41617(15) 0.27197(17) 0.60170(16)
H1_2 H 0.414011 0.285969 0.624504
C2_2 C 0.38870(16) 0.26934(17) 0.57354(17)
H2_2 H 0.364602 0.281149 0.574451
C3_2 C 0.43650(14) 0.23675(14) 0.55623(15)
C4_2 C 0.39495(17) 0.21202(18) 0.41165(17)
H3_2 H 0.373497 0.195882 0.411362
C5_2 C 0.42194(17) 0.21401(17) 0.38383(16)
H4_2 H 0.422348 0.199766 0.361071
C6_2 C 0.43632(15) 0.25268(15) 0.42953(16)
C7_2 C 0.35496(17) 0.32049(17) 0.46133(19)
H5_2 H 0.376271 0.320740 0.444997
C8_2 C 0.32698(18) 0.34860(17) 0.46324(19)
H6_2 H 0.326207 0.370869 0.448260
C9_2 C 0.31335(15) 0.30454(16) 0.50155(15)
C10_2 C 0.47920(18) 0.33463(16) 0.63116(16)
H7_2 H 0.465395 0.336911 0.608245
C11_2 C 0.48213(17) 0.36305(17) 0.65930(17)
H8_2 H 0.471121 0.387505 0.658084
C12_2 C 0.51238(15) 0.31437(15) 0.67627(15)
N1_2 N 0.44769(13) 0.25028(12) 0.59051(14)
N2_2 N 0.40183(13) 0.24663(13) 0.54355(14)
N3_2 N 0.46002(13) 0.21178(12) 0.53454(13)
N4_2 N 0.40409(12) 0.23771(14) 0.44068(13)
N5_2 N 0.44932(13) 0.24141(13) 0.39535(13)
N6_2 N 0.45596(13) 0.28190(12) 0.45030(13)
N7_2 N 0.34648(12) 0.29257(14) 0.48696(14)
N8_2 N 0.30055(14) 0.33855(14) 0.49063(14)
N9_2 N 0.29294(12) 0.28231(12) 0.53004(13)
N10_2 N 0.49932(12) 0.30343(13) 0.64207(14)
N11_2 N 0.50399(12) 0.34899(12) 0.68920(15)
N12_2 N 0.53941(13) 0.28989(13) 0.69822(12)
O1_2 O 0.49300(12) 0.20434(14) 0.54735(14)
O2_2 O 0.44784(13) 0.19888(13) 0.50407(12)
O3_2 O 0.44260(13) 0.29097(13) 0.48199(13)
O4_2 O 0.48546(13) 0.29521(13) 0.43615(12)
O5_2 O 0.30610(12) 0.24990(12) 0.53918(13)
O6_2 O 0.26404(13) 0.29671(13) 0.54502(13)
O7_2 O 0.54646(13) 0.25761(13) 0.68461(14)
O8_2 O 0.55315(13) 0.30239(13) 0.72791(12)
Zn4_2 Zn 0.49193(2) 0.37489(2) 0.24127(2)
C13_2 C 0.60170(16) 0.41617(15) 0.27197(17)
H9_2 H 0.624504 0.414011 0.285969
C14_2 C 0.57354(17) 0.38870(16) 0.26934(17)
H10_2 H 0.574451 0.364602 0.281149
C15_2 C 0.55623(15) 0.43650(14) 0.23675(14)
C16_2 C 0.41165(17) 0.39495(17) 0.21202(18)
H11_2 H 0.411362 0.373497 0.195882
C17_2 C 0.38383(16) 0.42194(17) 0.21401(17)
H12_2 H 0.361071 0.422348 0.199766
C18_2 C 0.42953(16) 0.43632(15) 0.25268(15)
C19_2 C 0.46133(19) 0.35496(17) 0.32049(17)
H13_2 H 0.444997 0.376271 0.320740
C20_2 C 0.46324(19) 0.32698(18) 0.34860(17)
H14_2 H 0.448260 0.326207 0.370869
C21_2 C 0.50155(15) 0.31335(15) 0.30454(16)
N13_2 N 0.59051(14) 0.44769(13) 0.25028(12)
N14_2 N 0.54355(14) 0.40183(13) 0.24663(13)
N15_2 N 0.53454(13) 0.46002(13) 0.21178(12)
N16_2 N 0.44068(13) 0.40409(12) 0.23771(14)
N17_2 N 0.39535(13) 0.44932(13) 0.24141(13)
N18_2 N 0.45030(13) 0.45596(13) 0.28190(12)
N19_2 N 0.48696(14) 0.34648(12) 0.29257(14)
N20_2 N 0.49063(14) 0.30055(14) 0.33855(14)
N21_2 N 0.53004(13) 0.29294(12) 0.28231(12)
O9_2 O 0.54735(14) 0.49300(12) 0.20434(14)
O10_2 O 0.50407(12) 0.44784(13) 0.19888(13)
O11_2 O 0.48199(13) 0.44260(13) 0.29097(13)
O12_2 O 0.43615(12) 0.48546(13) 0.29521(13)
O13_2 O 0.53918(13) 0.30610(12) 0.24990(12)
O14_2 O 0.54502(13) 0.26404(13) 0.29671(13)
C22_2 C 0.52080(18) 0.16537(16) 0.63116(16)
H15_2 H 0.534605 0.163089 0.608245
C23_2 C 0.51787(17) 0.13695(17) 0.65930(17)
H16_2 H 0.528879 0.112495 0.658084
C24_2 C 0.48762(15) 0.18563(15) 0.67627(15)
N22_2 N 0.50068(12) 0.19657(13) 0.64207(14)
N23_2 N 0.49601(12) 0.15101(12) 0.68920(15)
N24_2 N 0.46059(13) 0.21011(13) 0.69822(12)
O15_2 O 0.45354(13) 0.24239(13) 0.68461(14)
O16_2 O 0.44685(13) 0.19761(13) 0.72791(12)
Zn5_2 Zn 0.61672(3) 0.500000 0.250000
Zn6_2 Zn 0.36677(3) 0.500000 0.250000
Zn7_3 Zn 0.250000 0.36677(3) 0.500000
Zn8_2 Zn 0.49193(2) 0.12511(2) 0.74127(2)
Zn9_2 Zn 0.50807(2) 0.37489(2) 0.74127(2)
N25_2 N 0.55231(13) 0.24972(12) 0.59051(14)
N26_2 N 0.55068(13) 0.25859(13) 0.39535(13)
N27_2 N 0.50937(14) 0.19945(14) 0.33855(14)
N28_2 N 0.49601(12) 0.34899(12) 0.18920(15)
N29_2 N 0.34899(12) 0.18920(15) 0.49601(12)
Zn1_4 Zn -0.000000 0.250000 0.38328(3)
Zn2_4 Zn -0.000000 0.250000 0.63323(3)
C12_3 C 0.01238(15) 0.18563(15) 0.32373(15)
N11_3 N 0.00399(12) 0.15101(12) 0.31080(15)
N12_3 N 0.03941(13) 0.21011(13) 0.30178(12)
O7_3 O 0.04646(13) 0.24239(13) 0.31539(14)
O8_3 O 0.05315(13) 0.19761(13) 0.27209(12)
C13_3 C 0.10170(16) 0.08383(15) 0.72803(17)
H9_3 H 0.124504 0.085989 0.714031
C14_3 C 0.07354(17) 0.11130(16) 0.73066(17)
H10_3 H 0.074451 0.135398 0.718851
C15_3 C 0.05623(15) 0.06350(14) 0.76325(14)
C21_3 C 0.00155(15) 0.18665(15) 0.69546(16)
N13_3 N 0.09051(14) 0.05231(13) 0.74972(12)
N14_3 N 0.04355(14) 0.09817(13) 0.75337(13)
N15_3 N 0.03454(13) 0.03998(13) 0.78822(12)
N21_3 N 0.03004(13) 0.20706(12) 0.71769(12)
O9_3 O 0.04735(14) 0.00700(12) 0.79566(14)
O10_3 O 0.00407(12) 0.05216(13) 0.80112(13)
O13_3 O 0.03918(13) 0.19390(12) 0.75010(12)
O14_3 O 0.04502(13) 0.23596(13) 0.70329(13)
C22_3 C 0.02080(18) 0.33463(16) 0.36884(16)
H15_3 H 0.034605 0.336911 0.391755
C23_3 C 0.01787(17) 0.36305(17) 0.34070(17)
H16_3 H 0.028879 0.387505 0.341916
N22_3 N 0.00068(12) 0.30343(13) 0.35793(14)
Zn5_3 Zn 0.11672(3) -0.000000 0.750000
Zn9_3 Zn 0.00807(2) 0.12511(2) 0.25873(2)
N25_3 N 0.05231(13) 0.25028(12) 0.40949(14)
N26_3 N 0.05068(13) 0.24141(13) 0.60465(13)
N27_3 N 0.00937(14) 0.30055(14) 0.66145(14)
Zn5_4 Zn 0.11672(3) 1.000000 0.750000
Zn1_5 Zn 1.000000 0.250000 0.38328(3)
Zn2_5 Zn 1.000000 0.250000 0.63323(3)
Zn3_3 Zn 0.87489(2) 0.25873(2) 0.50807(2)
C1_3 C 0.91617(15) 0.22803(17) 0.39830(16)
H1_3 H 0.914011 0.214031 0.375496
C2_3 C 0.88870(16) 0.23066(17) 0.42646(17)
H2_3 H 0.864602 0.218851 0.425549
C3_3 C 0.93650(14) 0.26325(14) 0.44377(15)
C4_3 C 0.89495(17) 0.28798(18) 0.58835(17)
H3_3 H 0.873497 0.304118 0.588638
C5_3 C 0.92194(17) 0.28599(17) 0.61617(16)
H4_3 H 0.922348 0.300234 0.638929
C6_3 C 0.93632(15) 0.24732(15) 0.57047(16)
C7_3 C 0.85496(17) 0.17951(17) 0.53867(19)
H5_3 H 0.876271 0.179260 0.555003
C8_3 C 0.82698(18) 0.15140(17) 0.53676(19)
H6_3 H 0.826207 0.129131 0.551740
C9_3 C 0.81335(15) 0.19546(16) 0.49845(15)
C10_3 C 0.97920(18) 0.16537(16) 0.36884(16)
H7_3 H 0.965395 0.163089 0.391755
C11_3 C 0.98213(17) 0.13695(17) 0.34070(17)
H8_3 H 0.971121 0.112495 0.341916
N1_3 N 0.94769(13) 0.24972(12) 0.40949(14)
N2_3 N 0.90183(13) 0.25337(13) 0.45645(14)
N3_3 N 0.96002(13) 0.28822(12) 0.46546(13)
N4_3 N 0.90409(12) 0.26229(14) 0.55932(13)
N5_3 N 0.94932(13) 0.25859(13) 0.60465(13)
N6_3 N 0.95596(13) 0.21810(12) 0.54970(13)
N7_3 N 0.84648(12) 0.20743(14) 0.51304(14)
N8_3 N 0.80055(14) 0.16145(14) 0.50937(14)
N9_3 N 0.79294(12) 0.21769(12) 0.46996(13)
N10_3 N 0.99932(12) 0.19657(13) 0.35793(14)
O1_3 O 0.99300(12) 0.29566(14) 0.45265(14)
O2_3 O 0.94784(13) 0.30112(13) 0.49593(12)
O3_3 O 0.94260(13) 0.20903(13) 0.51801(13)
O4_3 O 0.98546(13) 0.20479(13) 0.56385(12)
O5_3 O 0.80610(12) 0.25010(12) 0.46082(13)
O6_3 O 0.76404(13) 0.20329(13) 0.45498(13)
Zn4_3 Zn 0.99193(2) 0.12511(2) 0.75873(2)
C16_3 C 0.91165(17) 0.10505(17) 0.78798(18)
H11_3 H 0.911362 0.126503 0.804118
C17_3 C 0.88383(16) 0.07806(17) 0.78599(17)
H12_3 H 0.861071 0.077652 0.800234
C18_3 C 0.92953(16) 0.06368(15) 0.74732(15)
C19_3 C 0.96133(19) 0.14504(17) 0.67951(17)
H13_3 H 0.944997 0.123729 0.679260
C20_3 C 0.96324(19) 0.17302(18) 0.65140(17)
H14_3 H 0.948260 0.173793 0.629131
N16_3 N 0.94068(13) 0.09591(12) 0.76229(14)
N17_3 N 0.89535(13) 0.05068(13) 0.75859(13)
N18_3 N 0.95030(13) 0.04404(13) 0.71810(12)
N19_3 N 0.98696(14) 0.15352(12) 0.70743(14)
N20_3 N 0.99063(14) 0.19945(14) 0.66145(14)
O11_3 O 0.98199(13) 0.05740(13) 0.70903(13)
O12_3 O 0.93615(12) 0.01454(13) 0.70479(13)
C24_3 C 0.98762(15) 0.31437(15) 0.32373(15)
N23_3 N 0.99601(12) 0.34899(12) 0.31080(15)
N24_3 N 0.96059(13) 0.28989(13) 0.30178(12)
O15_3 O 0.95354(13) 0.25761(13) 0.31539(14)
O16_3 O 0.94685(13) 0.30239(13) 0.27209(12)
Zn6_3 Zn 0.86677(3) -0.000000 0.750000
Zn7_4 Zn 0.750000 0.13323(3) 0.500000
Zn8_3 Zn 0.99193(2) 0.37489(2) 0.25873(2)
N28_3 N 0.99601(12) 0.15101(12) 0.81080(15)
N29_3 N 0.84899(12) 0.31080(15) 0.50399(12)
Zn6_4 Zn 0.86677(3) 1.000000 0.750000
Zn5_5 Zn 0.38328(3) 0.000000 0.250000
Zn6_5 Zn 0.63323(3) 0.000000 0.250000
Zn2_6 Zn 0.500000 0.750000 0.13323(3)
Zn3_4 Zn 0.62511(2) 0.74127(2) 0.00807(2)
C4_4 C 0.60505(17) 0.71202(18) 0.08835(17)
H3_4 H 0.626503 0.695882 0.088638
C5_4 C 0.57806(17) 0.71401(17) 0.11617(16)
H4_4 H 0.577652 0.699766 0.138929
C6_4 C 0.56368(15) 0.75268(15) 0.07047(16)
C7_4 C 0.64504(17) 0.82049(17) 0.03867(19)
H5_4 H 0.623729 0.820740 0.055003
C8_4 C 0.67302(18) 0.84860(17) 0.03676(19)
H6_4 H 0.673793 0.870869 0.051740
N4_4 N 0.59591(12) 0.73771(14) 0.05932(13)
N5_4 N 0.55068(13) 0.74141(13) 0.10465(13)
N6_4 N 0.54404(13) 0.78190(12) 0.04970(13)
N7_4 N 0.65352(12) 0.79257(14) 0.01304(14)
N8_4 N 0.69945(14) 0.83855(14) 0.00937(14)
O3_4 O 0.55740(13) 0.79097(13) 0.01801(13)
O4_4 O 0.51454(13) 0.79521(13) 0.06385(12)
Zn4_4 Zn 0.50807(2) 0.87489(2) 0.25873(2)
C13_4 C 0.39830(16) 0.91617(15) 0.22803(17)
H9_4 H 0.375496 0.914011 0.214031
C14_4 C 0.42646(17) 0.88870(16) 0.23066(17)
H10_4 H 0.425549 0.864602 0.218851
C15_4 C 0.44377(15) 0.93650(14) 0.26325(14)
C16_4 C 0.58835(17) 0.89495(17) 0.28798(18)
H11_4 H 0.588638 0.873497 0.304118
C17_4 C 0.61617(16) 0.92194(17) 0.28599(17)
H12_4 H 0.638929 0.922348 0.300234
C18_4 C 0.57047(16) 0.93632(15) 0.24732(15)
C19_4 C 0.53867(19) 0.85496(17) 0.17951(17)
H13_4 H 0.555003 0.876271 0.179260
C20_4 C 0.53676(19) 0.82698(18) 0.15140(17)
H14_4 H 0.551740 0.826207 0.129131
C21_4 C 0.49845(15) 0.81335(15) 0.19546(16)
N13_4 N 0.40949(14) 0.94769(13) 0.24972(12)
N14_4 N 0.45645(14) 0.90183(13) 0.25337(13)
N15_4 N 0.46546(13) 0.96002(13) 0.28822(12)
N16_4 N 0.55932(13) 0.90409(12) 0.26229(14)
N17_4 N 0.60465(13) 0.94932(13) 0.25859(13)
N18_4 N 0.54970(13) 0.95596(13) 0.21810(12)
N19_4 N 0.51304(14) 0.84648(12) 0.20743(14)
N20_4 N 0.50937(14) 0.80055(14) 0.16145(14)
N21_4 N 0.46996(13) 0.79294(12) 0.21769(12)
O9_4 O 0.45265(14) 0.99300(12) 0.29566(14)
O10_4 O 0.49593(12) 0.94784(13) 0.30112(13)
O11_4 O 0.51801(13) 0.94260(13) 0.20903(13)
O12_4 O 0.56385(12) 0.98546(13) 0.20479(13)
O13_4 O 0.46082(13) 0.80610(12) 0.25010(12)
O14_4 O 0.45498(13) 0.76404(13) 0.20329(13)
Zn5_6 Zn 0.38328(3) 1.000000 0.250000
Zn6_6 Zn 0.63323(3) 1.000000 0.250000
Zn7_5 Zn 0.750000 0.86677(3) 0.000000
N26_4 N 0.44932(13) 0.75859(13) 0.10465(13)
N27_4 N 0.49063(14) 0.69945(14) 0.16145(14)
N28_4 N 0.50399(12) 0.84899(12) 0.31080(15)
N29_4 N 0.65101(12) 0.68920(15) 0.00399(12)
Zn1_6 Zn 0.500000 0.750000 0.88328(3)
C1_4 C 0.58383(15) 0.77197(17) 0.89830(16)
H1_4 H 0.585989 0.785969 0.875496
C2_4 C 0.61130(16) 0.76934(17) 0.92646(17)
H2_4 H 0.635398 0.781149 0.925549
C3_4 C 0.56350(14) 0.73675(14) 0.94377(15)
C9_4 C 0.68665(15) 0.80454(16) 0.99845(15)
C10_4 C 0.52080(18) 0.83463(16) 0.86884(16)
H7_4 H 0.534605 0.836911 0.891755
C11_4 C 0.51787(17) 0.86305(17) 0.84070(17)
H8_4 H 0.528879 0.887505 0.841916
C12_4 C 0.48762(15) 0.81437(15) 0.82373(15)
N1_4 N 0.55231(13) 0.75028(12) 0.90949(14)
N2_4 N 0.59817(13) 0.74663(13) 0.95645(14)
N3_4 N 0.53998(13) 0.71178(12) 0.96546(13)
N9_4 N 0.70706(12) 0.78231(12) 0.96996(13)
N10_4 N 0.50068(12) 0.80343(13) 0.85793(14)
N11_4 N 0.49601(12) 0.84899(12) 0.81080(15)
N12_4 N 0.46059(13) 0.78989(13) 0.80178(12)
O1_4 O 0.50700(12) 0.70434(14) 0.95265(14)
O2_4 O 0.55216(13) 0.69888(13) 0.99593(12)
O5_4 O 0.69390(12) 0.74990(12) 0.96082(13)
O6_4 O 0.73596(13) 0.79671(13) 0.95498(13)
O7_4 O 0.45354(13) 0.75761(13) 0.81539(14)
O8_4 O 0.44685(13) 0.80239(13) 0.77209(12)
C22_4 C 0.47920(18) 0.66537(16) 0.86884(16)
H15_4 H 0.465395 0.663089 0.891755
C23_4 C 0.48213(17) 0.63695(17) 0.84070(17)
H16_4 H 0.471121 0.612495 0.841916
C24_4 C 0.51238(15) 0.68563(15) 0.82373(15)
N22_4 N 0.49932(12) 0.69657(13) 0.85793(14)
N23_4 N 0.50399(12) 0.65101(12) 0.81080(15)
N24_4 N 0.53941(13) 0.71011(13) 0.80178(12)
O15_4 O 0.54646(13) 0.74239(13) 0.81539(14)
O16_4 O 0.55315(13) 0.69761(13) 0.77209(12)
Zn7_6 Zn 0.750000 0.86677(3) 1.000000
Zn8_4 Zn 0.50807(2) 0.62511(2) 0.75873(2)
Zn9_4 Zn 0.49193(2) 0.87489(2) 0.75873(2)
N25_4 N 0.44769(13) 0.74972(12) 0.90949(14)
C10_5 C 0.13116(16) 0.02080(18) 0.66537(16)
H7_5 H 0.108245 0.034605 0.663089
C11_5 C 0.15930(17) 0.01787(17) 0.63695(17)
H8_5 H 0.158084 0.028879 0.612495
N10_5 N 0.14207(14) 0.00068(12) 0.69657(13)
C24_5 C 0.17627(15) 0.01238(15) 0.81437(15)
N23_5 N 0.18920(15) 0.00399(12) 0.84899(12)
N24_5 N 0.19822(12) 0.03941(13) 0.78989(13)
O15_5 O 0.18461(14) 0.04646(13) 0.75761(13)
O16_5 O 0.22791(12) 0.05315(13) 0.80239(13)
Zn8_5 Zn 0.24127(2) 0.00807(2) 0.87489(2)
C12_5 C 0.17627(15) 0.98762(15) 0.68563(15)
N11_5 N 0.18920(15) 0.99601(12) 0.65101(12)
N12_5 N 0.19822(12) 0.96059(13) 0.71011(13)
O7_5 O 0.18461(14) 0.95354(13) 0.74239(13)
O8_5 O 0.22791(12) 0.94685(13) 0.69761(13)
C22_5 C 0.13116(16) 0.97920(18) 0.83463(16)
H15_5 H 0.108245 0.965395 0.836911
C23_5 C 0.15930(17) 0.98213(17) 0.86305(17)
H16_5 H 0.158084 0.971121 0.887505
N22_5 N 0.14207(14) 0.99932(12) 0.80343(13)
Zn9_5 Zn 0.24127(2) 0.99193(2) 0.62511(2)
N25_5 N 0.09051(14) 0.94769(13) 0.75028(12)
Zn4_5 Zn 0.74127(2) 0.00807(2) 0.62511(2)
C16_5 C 0.71202(18) 0.08835(17) 0.60505(17)
H11_5 H 0.695882 0.088638 0.626503
C17_5 C 0.71401(17) 0.11617(16) 0.57806(17)
H12_5 H 0.699766 0.138929 0.577652
C18_5 C 0.75268(15) 0.07047(16) 0.56368(15)
C19_5 C 0.82049(17) 0.03867(19) 0.64504(17)
H13_5 H 0.820740 0.055003 0.623729
C20_5 C 0.84860(17) 0.03676(19) 0.67302(18)
H14_5 H 0.870869 0.051740 0.673793
N16_5 N 0.73771(14) 0.05932(13) 0.59591(12)
N17_5 N 0.74141(13) 0.10465(13) 0.55068(13)
N18_5 N 0.78190(12) 0.04970(13) 0.54404(13)
N19_5 N 0.79257(14) 0.01304(14) 0.65352(12)
N20_5 N 0.83855(14) 0.00937(14) 0.69945(14)
O11_5 O 0.79097(13) 0.01801(13) 0.55740(13)
O12_5 O 0.79521(13) 0.06385(12) 0.51454(13)
N28_5 N 0.68920(15) 0.00399(12) 0.65101(12)
C13_5 C 0.77197(17) 0.89830(16) 0.58383(15)
H9_5 H 0.785969 0.875496 0.585989
C14_5 C 0.76934(17) 0.92646(17) 0.61130(16)
H10_5 H 0.781149 0.925549 0.635398
C15_5 C 0.73675(14) 0.94377(15) 0.56350(14)
C21_5 C 0.80454(16) 0.99845(15) 0.68665(15)
N13_5 N 0.75028(12) 0.90949(14) 0.55231(13)
N14_5 N 0.74663(13) 0.95645(14) 0.59817(13)
N15_5 N 0.71178(12) 0.96546(13) 0.53998(13)
N21_5 N 0.78231(12) 0.96996(13) 0.70706(12)
O9_5 O 0.70434(14) 0.95265(14) 0.50700(12)
O10_5 O 0.69888(13) 0.99593(12) 0.55216(13)
O13_5 O 0.74990(12) 0.96082(13) 0.69390(12)
O14_5 O 0.79671(13) 0.95498(13) 0.73596(13)
Zn5_7 Zn 0.750000 0.88328(3) 0.500000
N26_5 N 0.89535(13) 0.94932(13) 0.74141(13)
N27_5 N 0.83855(14) 0.99063(14) 0.80055(14)
C10_6 C 0.63116(16) 0.47920(18) 0.33463(16)
H7_6 H 0.608245 0.465395 0.336911
C11_6 C 0.65930(17) 0.48213(17) 0.36305(17)
H8_6 H 0.658084 0.471121 0.387505
C12_6 C 0.67627(15) 0.51238(15) 0.31437(15)
N10_6 N 0.64207(14) 0.49932(12) 0.30343(13)
N11_6 N 0.68920(15) 0.50399(12) 0.34899(12)
N12_6 N 0.69822(12) 0.53941(13) 0.28989(13)
O7_6 O 0.68461(14) 0.54646(13) 0.25761(13)
O8_6 O 0.72791(12) 0.55315(13) 0.30239(13)
Zn4_6 Zn 0.24127(2) 0.49193(2) 0.37489(2)
C13_6 C 0.27197(17) 0.60170(16) 0.41617(15)
H9_6 H 0.285969 0.624504 0.414011
C14_6 C 0.26934(17) 0.57354(17) 0.38870(16)
H10_6 H 0.281149 0.574451 0.364602
C15_6 C 0.23675(14) 0.55623(15) 0.43650(14)
C16_6 C 0.21202(18) 0.41165(17) 0.39495(17)
H11_6 H 0.195882 0.411362 0.373497
C17_6 C 0.21401(17) 0.38383(16) 0.42194(17)
H12_6 H 0.199766 0.361071 0.422348
C18_6 C 0.25268(15) 0.42953(16) 0.43632(15)
C19_6 C 0.32049(17) 0.46133(19) 0.35496(17)
H13_6 H 0.320740 0.444997 0.376271
C20_6 C 0.34860(17) 0.46324(19) 0.32698(18)
H14_6 H 0.370869 0.448260 0.326207
C21_6 C 0.30454(16) 0.50155(15) 0.31335(15)
N13_6 N 0.25028(12) 0.59051(14) 0.44769(13)
N14_6 N 0.24663(13) 0.54355(14) 0.40183(13)
N15_6 N 0.21178(12) 0.53454(13) 0.46002(13)
N16_6 N 0.23771(14) 0.44068(13) 0.40409(12)
N17_6 N 0.24141(13) 0.39535(13) 0.44932(13)
N18_6 N 0.28190(12) 0.45030(13) 0.45596(13)
N19_6 N 0.29257(14) 0.48696(14) 0.34648(12)
N20_6 N 0.33855(14) 0.49063(14) 0.30055(14)
N21_6 N 0.28231(12) 0.53004(13) 0.29294(12)
O9_6 O 0.20434(14) 0.54735(14) 0.49300(12)
O10_6 O 0.19888(13) 0.50407(12) 0.44784(13)
O11_6 O 0.29097(13) 0.48199(13) 0.44260(13)
O12_6 O 0.29521(13) 0.43615(12) 0.48546(13)
O13_6 O 0.24990(12) 0.53918(13) 0.30610(12)
O14_6 O 0.29671(13) 0.54502(13) 0.26404(13)
C22_6 C 0.63116(16) 0.52080(18) 0.16537(16)
H15_6 H 0.608245 0.534605 0.163089
C23_6 C 0.65930(17) 0.51787(17) 0.13695(17)
H16_6 H 0.658084 0.528879 0.112495
C24_6 C 0.67627(15) 0.48762(15) 0.18563(15)
N22_6 N 0.64207(14) 0.50068(12) 0.19657(13)
N23_6 N 0.68920(15) 0.49601(12) 0.15101(12)
N24_6 N 0.69822(12) 0.46059(13) 0.21011(13)
O15_6 O 0.68461(14) 0.45354(13) 0.24239(13)
O16_6 O 0.72791(12) 0.44685(13) 0.19761(13)
Zn5_8 Zn 0.250000 0.61672(3) 0.500000
Zn8_6 Zn 0.74127(2) 0.49193(2) 0.12511(2)
Zn9_6 Zn 0.74127(2) 0.50807(2) 0.37489(2)
N25_6 N 0.59051(14) 0.55231(13) 0.24972(12)
N26_6 N 0.39535(13) 0.55068(13) 0.25859(13)
N27_6 N 0.33855(14) 0.50937(14) 0.19945(14)
N28_6 N 0.18920(15) 0.49601(12) 0.34899(12)
C12_7 C 0.32373(15) 0.01238(15) 0.18563(15)
N11_7 N 0.31080(15) 0.00399(12) 0.15101(12)
N12_7 N 0.30178(12) 0.03941(13) 0.21011(13)
O7_7 O 0.31539(14) 0.04646(13) 0.24239(13)
O8_7 O 0.27209(12) 0.05315(13) 0.19761(13)
C13_7 C 0.72803(17) 0.10170(16) 0.08383(15)
H9_7 H 0.714031 0.124504 0.085989
C14_7 C 0.73066(17) 0.07354(17) 0.11130(16)
H10_7 H 0.718851 0.074451 0.135398
C15_7 C 0.76325(14) 0.05623(15) 0.06350(14)
C21_7 C 0.69546(16) 0.00155(15) 0.18665(15)
N13_7 N 0.74972(12) 0.09051(14) 0.05231(13)
N14_7 N 0.75337(13) 0.04355(14) 0.09817(13)
N15_7 N 0.78822(12) 0.03454(13) 0.03998(13)
N21_7 N 0.71769(12) 0.03004(13) 0.20706(12)
O9_7 O 0.79566(14) 0.04735(14) 0.00700(12)
O10_7 O 0.80112(13) 0.00407(12) 0.05216(13)
O13_7 O 0.75010(12) 0.03918(13) 0.19390(12)
O14_7 O 0.70329(13) 0.04502(13) 0.23596(13)
C22_7 C 0.36884(16) 0.02080(18) 0.33463(16)
H15_7 H 0.391755 0.034605 0.336911
C23_7 C 0.34070(17) 0.01787(17) 0.36305(17)
H16_7 H 0.341916 0.028879 0.387505
N22_7 N 0.35793(14) 0.00068(12) 0.30343(13)
Zn5_9 Zn 0.750000 0.11672(3) -0.000000
Zn9_7 Zn 0.25873(2) 0.00807(2) 0.12511(2)
N25_7 N 0.40949(14) 0.05231(13) 0.25028(12)
N26_7 N 0.60465(13) 0.05068(13) 0.24141(13)
N27_7 N 0.66145(14) 0.00937(14) 0.30055(14)
Zn5_10 Zn 0.750000 0.11672(3) 1.000000
C10_7 C 0.36884(16) 0.97920(18) 0.16537(16)
H7_7 H 0.391755 0.965395 0.163089
C11_7 C 0.34070(17) 0.98213(17) 0.13695(17)
H8_7 H 0.341916 0.971121 0.112495
N10_7 N 0.35793(14) 0.99932(12) 0.19657(13)
Zn4_7 Zn 0.75873(2) 0.99193(2) 0.12511(2)
C16_7 C 0.78798(18) 0.91165(17) 0.10505(17)
H11_7 H 0.804118 0.911362 0.126503
C17_7 C 0.78599(17) 0.88383(16) 0.07806(17)
H12_7 H 0.800234 0.861071 0.077652
C18_7 C 0.74732(15) 0.92953(16) 0.06368(15)
C19_7 C 0.67951(17) 0.96133(19) 0.14504(17)
H13_7 H 0.679260 0.944997 0.123729
C20_7 C 0.65140(17) 0.96324(19) 0.17302(18)
H14_7 H 0.629131 0.948260 0.173793
N16_7 N 0.76229(14) 0.94068(13) 0.09591(12)
N17_7 N 0.75859(13) 0.89535(13) 0.05068(13)
N18_7 N 0.71810(12) 0.95030(13) 0.04404(13)
N19_7 N 0.70743(14) 0.98696(14) 0.15352(12)
N20_7 N 0.66145(14) 0.99063(14) 0.19945(14)
O11_7 O 0.70903(13) 0.98199(13) 0.05740(13)
O12_7 O 0.70479(13) 0.93615(12) 0.01454(13)
C24_7 C 0.32373(15) 0.98762(15) 0.31437(15)
N23_7 N 0.31080(15) 0.99601(12) 0.34899(12)
N24_7 N 0.30178(12) 0.96059(13) 0.28989(13)
O15_7 O 0.31539(14) 0.95354(13) 0.25761(13)
O16_7 O 0.27209(12) 0.94685(13) 0.30239(13)
Zn8_7 Zn 0.25873(2) 0.99193(2) 0.37489(2)
N28_7 N 0.81080(15) 0.99601(12) 0.15101(12)
Zn5_11 Zn 0.250000 0.38328(3) 0.000000
Zn4_8 Zn 0.25873(2) 0.50807(2) 0.87489(2)
C13_8 C 0.22803(17) 0.39830(16) 0.91617(15)
H9_8 H 0.214031 0.375496 0.914011
C14_8 C 0.23066(17) 0.42646(17) 0.88870(16)
H10_8 H 0.218851 0.425549 0.864602
C15_8 C 0.26325(14) 0.44377(15) 0.93650(14)
C16_8 C 0.28798(18) 0.58835(17) 0.89495(17)
H11_8 H 0.304118 0.588638 0.873497
C17_8 C 0.28599(17) 0.61617(16) 0.92194(17)
H12_8 H 0.300234 0.638929 0.922348
C18_8 C 0.24732(15) 0.57047(16) 0.93632(15)
C19_8 C 0.17951(17) 0.53867(19) 0.85496(17)
H13_8 H 0.179260 0.555003 0.876271
C20_8 C 0.15140(17) 0.53676(19) 0.82698(18)
H14_8 H 0.129131 0.551740 0.826207
C21_8 C 0.19546(16) 0.49845(15) 0.81335(15)
N13_8 N 0.24972(12) 0.40949(14) 0.94769(13)
N14_8 N 0.25337(13) 0.45645(14) 0.90183(13)
N15_8 N 0.28822(12) 0.46546(13) 0.96002(13)
N16_8 N 0.26229(14) 0.55932(13) 0.90409(12)
N17_8 N 0.25859(13) 0.60465(13) 0.94932(13)
N18_8 N 0.21810(12) 0.54970(13) 0.95596(13)
N19_8 N 0.20743(14) 0.51304(14) 0.84648(12)
N20_8 N 0.16145(14) 0.50937(14) 0.80055(14)
N21_8 N 0.21769(12) 0.46996(13) 0.79294(12)
O9_8 O 0.29566(14) 0.45265(14) 0.99300(12)
O10_8 O 0.30112(13) 0.49593(12) 0.94784(13)
O11_8 O 0.20903(13) 0.51801(13) 0.94260(13)
O12_8 O 0.20479(13) 0.56385(12) 0.98546(13)
O13_8 O 0.25010(12) 0.46082(13) 0.80610(12)
O14_8 O 0.20329(13) 0.45498(13) 0.76404(13)
Zn5_12 Zn 0.250000 0.38328(3) 1.000000
N26_8 N 0.10465(13) 0.44932(13) 0.75859(13)
N27_8 N 0.16145(14) 0.49063(14) 0.69945(14)
N28_8 N 0.31080(15) 0.50399(12) 0.84899(12)
C10_8 C 0.86884(16) 0.52080(18) 0.83463(16)
H7_8 H 0.891755 0.534605 0.836911
C11_8 C 0.84070(17) 0.51787(17) 0.86305(17)
H8_8 H 0.841916 0.528879 0.887505
C12_8 C 0.82373(15) 0.48762(15) 0.81437(15)
N10_8 N 0.85793(14) 0.50068(12) 0.80343(13)
N11_8 N 0.81080(15) 0.49601(12) 0.84899(12)
N12_8 N 0.80178(12) 0.46059(13) 0.78989(13)
O7_8 O 0.81539(14) 0.45354(13) 0.75761(13)
O8_8 O 0.77209(12) 0.44685(13) 0.80239(13)
C22_8 C 0.86884(16) 0.47920(18) 0.66537(16)
H15_8 H 0.891755 0.465395 0.663089
C23_8 C 0.84070(17) 0.48213(17) 0.63695(17)
H16_8 H 0.841916 0.471121 0.612495
C24_8 C 0.82373(15) 0.51238(15) 0.68563(15)
N22_8 N 0.85793(14) 0.49932(12) 0.69657(13)
N23_8 N 0.81080(15) 0.50399(12) 0.65101(12)
N24_8 N 0.80178(12) 0.53941(13) 0.71011(13)
O15_8 O 0.81539(14) 0.54646(13) 0.74239(13)
O16_8 O 0.77209(12) 0.55315(13) 0.69761(13)
Zn8_8 Zn 0.75873(2) 0.50807(2) 0.62511(2)
Zn9_8 Zn 0.75873(2) 0.49193(2) 0.87489(2)
N25_8 N 0.90949(14) 0.44769(13) 0.74972(12)
C10_9 C 0.66537(16) 0.13116(16) 0.02080(18)
H7_9 H 0.663089 0.108245 0.034605
C11_9 C 0.63695(17) 0.15930(17) 0.01787(17)
H8_9 H 0.612495 0.158084 0.028879
N10_9 N 0.69657(13) 0.14207(14) 0.00068(12)
C24_9 C 0.81437(15) 0.17627(15) 0.01238(15)
N23_9 N 0.84899(12) 0.18920(15) 0.00399(12)
N24_9 N 0.78989(13) 0.19822(12) 0.03941(13)
O15_9 O 0.75761(13) 0.18461(14) 0.04646(13)
O16_9 O 0.80239(13) 0.22791(12) 0.05315(13)
Zn8_9 Zn 0.87489(2) 0.24127(2) 0.00807(2)
C12_9 C 0.68563(15) 0.17627(15) 0.98762(15)
N11_9 N 0.65101(12) 0.18920(15) 0.99601(12)
N12_9 N 0.71011(13) 0.19822(12) 0.96059(13)
O7_9 O 0.74239(13) 0.18461(14) 0.95354(13)
O8_9 O 0.69761(13) 0.22791(12) 0.94685(13)
C22_9 C 0.83463(16) 0.13116(16) 0.97920(18)
H15_9 H 0.836911 0.108245 0.965395
C23_9 C 0.86305(17) 0.15930(17) 0.98213(17)
H16_9 H 0.887505 0.158084 0.971121
N22_9 N 0.80343(13) 0.14207(14) 0.99932(12)
Zn9_9 Zn 0.62511(2) 0.24127(2) 0.99193(2)
N25_9 N 0.75028(12) 0.09051(14) 0.94769(13)
N26_9 N 0.74141(13) 0.89535(13) 0.94932(13)
N27_9 N 0.80055(14) 0.83855(14) 0.99063(14)
C10_10 C 0.33463(16) 0.63116(16) 0.47920(18)
H7_10 H 0.336911 0.608245 0.465395
C11_10 C 0.36305(17) 0.65930(17) 0.48213(17)
H8_10 H 0.387505 0.658084 0.471121
C12_10 C 0.31437(15) 0.67627(15) 0.51238(15)
N10_10 N 0.30343(13) 0.64207(14) 0.49932(12)
N11_10 N 0.34899(12) 0.68920(15) 0.50399(12)
N12_10 N 0.28989(13) 0.69822(12) 0.53941(13)
O7_10 O 0.25761(13) 0.68461(14) 0.54646(13)
O8_10 O 0.30239(13) 0.72791(12) 0.55315(13)
C22_10 C 0.16537(16) 0.63116(16) 0.52080(18)
H15_10 H 0.163089 0.608245 0.534605
C23_10 C 0.13695(17) 0.65930(17) 0.51787(17)
H16_10 H 0.112495 0.658084 0.528879
C24_10 C 0.18563(15) 0.67627(15) 0.48762(15)
N22_10 N 0.19657(13) 0.64207(14) 0.50068(12)
N23_10 N 0.15101(12) 0.68920(15) 0.49601(12)
N24_10 N 0.21011(13) 0.69822(12) 0.46059(13)
O15_10 O 0.24239(13) 0.68461(14) 0.45354(13)
O16_10 O 0.19761(13) 0.72791(12) 0.44685(13)
Zn8_10 Zn 0.12511(2) 0.74127(2) 0.49193(2)
Zn9_10 Zn 0.37489(2) 0.74127(2) 0.50807(2)
N25_10 N 0.24972(12) 0.59051(14) 0.55231(13)
N26_10 N 0.25859(13) 0.39535(13) 0.55068(13)
N27_10 N 0.19945(14) 0.33855(14) 0.50937(14)
C12_11 C 0.18563(15) 0.32373(15) 0.01238(15)
N11_11 N 0.15101(12) 0.31080(15) 0.00399(12)
N12_11 N 0.21011(13) 0.30178(12) 0.03941(13)
O7_11 O 0.24239(13) 0.31539(14) 0.04646(13)
O8_11 O 0.19761(13) 0.27209(12) 0.05315(13)
C22_11 C 0.33463(16) 0.36884(16) 0.02080(18)
H15_11 H 0.336911 0.391755 0.034605
C23_11 C 0.36305(17) 0.34070(17) 0.01787(17)
H16_11 H 0.387505 0.341916 0.028879
N22_11 N 0.30343(13) 0.35793(14) 0.00068(12)
Zn9_11 Zn 0.12511(2) 0.25873(2) 0.00807(2)
N25_11 N 0.25028(12) 0.40949(14) 0.05231(13)
N26_11 N 0.24141(13) 0.60465(13) 0.05068(13)
N27_11 N 0.30055(14) 0.66145(14) 0.00937(14)
C10_11 C 0.16537(16) 0.36884(16) 0.97920(18)
H7_11 H 0.163089 0.391755 0.965395
C11_11 C 0.13695(17) 0.34070(17) 0.98213(17)
H8_11 H 0.112495 0.341916 0.971121
N10_11 N 0.19657(13) 0.35793(14) 0.99932(12)
C24_11 C 0.31437(15) 0.32373(15) 0.98762(15)
N23_11 N 0.34899(12) 0.31080(15) 0.99601(12)
N24_11 N 0.28989(13) 0.30178(12) 0.96059(13)
O15_11 O 0.25761(13) 0.31539(14) 0.95354(13)
O16_11 O 0.30239(13) 0.27209(12) 0.94685(13)
Zn8_11 Zn 0.37489(2) 0.25873(2) 0.99193(2)
N26_12 N 0.75859(13) 0.10465(13) 0.44932(13)
N27_12 N 0.69945(14) 0.16145(14) 0.49063(14)
C10_12 C 0.83463(16) 0.86884(16) 0.52080(18)
H7_12 H 0.836911 0.891755 0.534605
C11_12 C 0.86305(17) 0.84070(17) 0.51787(17)
H8_12 H 0.887505 0.841916 0.528879
C12_12 C 0.81437(15) 0.82373(15) 0.48762(15)
N10_12 N 0.80343(13) 0.85793(14) 0.50068(12)
N11_12 N 0.84899(12) 0.81080(15) 0.49601(12)
N12_12 N 0.78989(13) 0.80178(12) 0.46059(13)
O7_12 O 0.75761(13) 0.81539(14) 0.45354(13)
O8_12 O 0.80239(13) 0.77209(12) 0.44685(13)
C22_12 C 0.66537(16) 0.86884(16) 0.47920(18)
H15_12 H 0.663089 0.891755 0.465395
C23_12 C 0.63695(17) 0.84070(17) 0.48213(17)
H16_12 H 0.612495 0.841916 0.471121
C24_12 C 0.68563(15) 0.82373(15) 0.51238(15)
N22_12 N 0.69657(13) 0.85793(14) 0.49932(12)
N23_12 N 0.65101(12) 0.81080(15) 0.50399(12)
N24_12 N 0.71011(13) 0.80178(12) 0.53941(13)
O15_12 O 0.74239(13) 0.81539(14) 0.54646(13)
O16_12 O 0.69761(13) 0.77209(12) 0.55315(13)
Zn8_12 Zn 0.62511(2) 0.75873(2) 0.50807(2)
Zn9_12 Zn 0.87489(2) 0.75873(2) 0.49193(2)
N25_12 N 0.74972(12) 0.90949(14) 0.44769(13)
Zn3_5 Zn 0.62511(2) 0.25873(2) 0.49193(2)
C1_5 C 0.58383(15) 0.22803(17) 0.60170(16)
H1_5 H 0.585989 0.214031 0.624504
C2_5 C 0.61130(16) 0.23066(17) 0.57354(17)
H2_5 H 0.635398 0.218851 0.574451
C3_5 C 0.56350(14) 0.26325(14) 0.55623(15)
C4_5 C 0.60505(17) 0.28798(18) 0.41165(17)
H3_5 H 0.626503 0.304118 0.411362
C5_5 C 0.57806(17) 0.28599(17) 0.38383(16)
H4_5 H 0.577652 0.300234 0.361071
C6_5 C 0.56368(15) 0.24732(15) 0.42953(16)
C7_5 C 0.64504(17) 0.17951(17) 0.46133(19)
H5_5 H 0.623729 0.179260 0.444997
C8_5 C 0.67302(18) 0.15140(17) 0.46324(19)
H6_5 H 0.673793 0.129131 0.448260
C9_5 C 0.68665(15) 0.19546(16) 0.50155(15)
N2_5 N 0.59817(13) 0.25337(13) 0.54355(14)
N3_5 N 0.53998(13) 0.28822(12) 0.53454(13)
N4_5 N 0.59591(12) 0.26229(14) 0.44068(13)
N6_5 N 0.54404(13) 0.21810(12) 0.45030(13)
N7_5 N 0.65352(12) 0.20743(14) 0.48696(14)
N9_5 N 0.70706(12) 0.21769(12) 0.53004(13)
O1_5 O 0.50700(12) 0.29566(14) 0.54735(14)
O2_5 O 0.55216(13) 0.30112(13) 0.50407(12)
O3_5 O 0.55740(13) 0.20903(13) 0.48199(13)
O4_5 O 0.51454(13) 0.20479(13) 0.43615(12)
O5_5 O 0.69390(12) 0.25010(12) 0.53918(13)
O6_5 O 0.73596(13) 0.20329(13) 0.54502(13)
Zn4_9 Zn 0.50807(2) 0.12511(2) 0.24127(2)
C13_9 C 0.39830(16) 0.08383(15) 0.27197(17)
H9_9 H 0.375496 0.085989 0.285969
C14_9 C 0.42646(17) 0.11130(16) 0.26934(17)
H10_9 H 0.425549 0.135398 0.281149
C15_9 C 0.44377(15) 0.06350(14) 0.23675(14)
C16_9 C 0.58835(17) 0.10505(17) 0.21202(18)
H11_9 H 0.588638 0.126503 0.195882
C17_9 C 0.61617(16) 0.07806(17) 0.21401(17)
H12_9 H 0.638929 0.077652 0.199766
C18_9 C 0.57047(16) 0.06368(15) 0.25268(15)
C19_9 C 0.53867(19) 0.14504(17) 0.32049(17)
H13_9 H 0.555003 0.123729 0.320740
C20_9 C 0.53676(19) 0.17302(18) 0.34860(17)
H14_9 H 0.551740 0.173793 0.370869
C21_9 C 0.49845(15) 0.18665(15) 0.30454(16)
N14_9 N 0.45645(14) 0.09817(13) 0.24663(13)
N15_9 N 0.46546(13) 0.03998(13) 0.21178(12)
N16_9 N 0.55932(13) 0.09591(12) 0.23771(14)
N18_9 N 0.54970(13) 0.04404(13) 0.28190(12)
N19_9 N 0.51304(14) 0.15352(12) 0.29257(14)
N21_9 N 0.46996(13) 0.20706(12) 0.28231(12)
O9_9 O 0.45265(14) 0.00700(12) 0.20434(14)
O10_9 O 0.49593(12) 0.05216(13) 0.19888(13)
O11_9 O 0.51801(13) 0.05740(13) 0.29097(13)
O12_9 O 0.56385(12) 0.01454(13) 0.29521(13)
O13_9 O 0.46082(13) 0.19390(12) 0.24990(12)
O14_9 O 0.45498(13) 0.23596(13) 0.29671(13)
N28_9 N 0.50399(12) 0.15101(12) 0.18920(15)
N29_5 N 0.65101(12) 0.31080(15) 0.49601(12)
C13_10 C 0.10170(16) 0.91617(15) 0.77197(17)
H9_10 H 0.124504 0.914011 0.785969
C14_10 C 0.07354(17) 0.88870(16) 0.76934(17)
H10_10 H 0.074451 0.864602 0.781149
C15_10 C 0.05623(15) 0.93650(14) 0.73675(14)
C21_10 C 0.00155(15) 0.81335(15) 0.80454(16)
N14_10 N 0.04355(14) 0.90183(13) 0.74663(13)
N15_10 N 0.03454(13) 0.96002(13) 0.71178(12)
N21_10 N 0.03004(13) 0.79294(12) 0.78231(12)
O9_10 O 0.04735(14) 0.99300(12) 0.70434(14)
O10_10 O 0.00407(12) 0.94784(13) 0.69888(13)
O13_10 O 0.03918(13) 0.80610(12) 0.74990(12)
O14_10 O 0.04502(13) 0.76404(13) 0.79671(13)
C1_6 C 0.91617(15) 0.77197(17) 0.10170(16)
H1_6 H 0.914011 0.785969 0.124504
C2_6 C 0.88870(16) 0.76934(17) 0.07354(17)
H2_6 H 0.864602 0.781149 0.074451
C3_6 C 0.93650(14) 0.73675(14) 0.05623(15)
C9_6 C 0.81335(15) 0.80454(16) 0.00155(15)
N2_6 N 0.90183(13) 0.74663(13) 0.04355(14)
N3_6 N 0.96002(13) 0.71178(12) 0.03454(13)
N9_6 N 0.79294(12) 0.78231(12) 0.03004(13)
O1_6 O 0.99300(12) 0.70434(14) 0.04735(14)
O2_6 O 0.94784(13) 0.69888(13) 0.00407(12)
O5_6 O 0.80610(12) 0.74990(12) 0.03918(13)
O6_6 O 0.76404(13) 0.79671(13) 0.04502(13)
Zn3_6 Zn 0.87489(2) 0.74127(2) 0.99193(2)
C4_6 C 0.89495(17) 0.71202(18) 0.91165(17)
H3_6 H 0.873497 0.695882 0.911362
C5_6 C 0.92194(17) 0.71401(17) 0.88383(16)
H4_6 H 0.922348 0.699766 0.861071
C6_6 C 0.93632(15) 0.75268(15) 0.92953(16)
C7_6 C 0.85496(17) 0.82049(17) 0.96133(19)
H5_6 H 0.876271 0.820740 0.944997
C8_6 C 0.82698(18) 0.84860(17) 0.96324(19)
H6_6 H 0.826207 0.870869 0.948260
N4_6 N 0.90409(12) 0.73771(14) 0.94068(13)
N6_6 N 0.95596(13) 0.78190(12) 0.95030(13)
N7_6 N 0.84648(12) 0.79257(14) 0.98696(14)
O3_6 O 0.94260(13) 0.79097(13) 0.98199(13)
O4_6 O 0.98546(13) 0.79521(13) 0.93615(12)
Zn4_10 Zn 0.99193(2) 0.87489(2) 0.74127(2)
C16_10 C 0.91165(17) 0.89495(17) 0.71202(18)
H11_10 H 0.911362 0.873497 0.695882
C17_10 C 0.88383(16) 0.92194(17) 0.71401(17)
H12_10 H 0.861071 0.922348 0.699766
C18_10 C 0.92953(16) 0.93632(15) 0.75268(15)
C19_10 C 0.96133(19) 0.85496(17) 0.82049(17)
H13_10 H 0.944997 0.876271 0.820740
C20_10 C 0.96324(19) 0.82698(18) 0.84860(17)
H14_10 H 0.948260 0.826207 0.870869
N16_10 N 0.94068(13) 0.90409(12) 0.73771(14)
N18_10 N 0.95030(13) 0.95596(13) 0.78190(12)
N19_10 N 0.98696(14) 0.84648(12) 0.79257(14)
O11_10 O 0.98199(13) 0.94260(13) 0.79097(13)
O12_10 O 0.93615(12) 0.98546(13) 0.79521(13)
N28_10 N 0.99601(12) 0.84899(12) 0.68920(15)
N29_6 N 0.84899(12) 0.68920(15) 0.99601(12)
Zn3_7 Zn 0.37489(2) 0.75873(2) 0.00807(2)
C4_7 C 0.39495(17) 0.78798(18) 0.08835(17)
H3_7 H 0.373497 0.804118 0.088638
C5_7 C 0.42194(17) 0.78599(17) 0.11617(16)
H4_7 H 0.422348 0.800234 0.138929
C6_7 C 0.43632(15) 0.74732(15) 0.07047(16)
C7_7 C 0.35496(17) 0.67951(17) 0.03867(19)
H5_7 H 0.376271 0.679260 0.055003
C8_7 C 0.32698(18) 0.65140(17) 0.03676(19)
H6_7 H 0.326207 0.629131 0.051740
N4_7 N 0.40409(12) 0.76229(14) 0.05932(13)
N6_7 N 0.45596(13) 0.71810(12) 0.04970(13)
N7_7 N 0.34648(12) 0.70743(14) 0.01304(14)
O3_7 O 0.44260(13) 0.70903(13) 0.01801(13)
O4_7 O 0.48546(13) 0.70479(13) 0.06385(12)
Zn4_11 Zn 0.49193(2) 0.62511(2) 0.25873(2)
C13_11 C 0.60170(16) 0.58383(15) 0.22803(17)
H9_11 H 0.624504 0.585989 0.214031
C14_11 C 0.57354(17) 0.61130(16) 0.23066(17)
H10_11 H 0.574451 0.635398 0.218851
C15_11 C 0.55623(15) 0.56350(14) 0.26325(14)
C16_11 C 0.41165(17) 0.60505(17) 0.28798(18)
H11_11 H 0.411362 0.626503 0.304118
C17_11 C 0.38383(16) 0.57806(17) 0.28599(17)
H12_11 H 0.361071 0.577652 0.300234
C18_11 C 0.42953(16) 0.56368(15) 0.24732(15)
C19_11 C 0.46133(19) 0.64504(17) 0.17951(17)
H13_11 H 0.444997 0.623729 0.179260
C20_11 C 0.46324(19) 0.67302(18) 0.15140(17)
H14_11 H 0.448260 0.673793 0.129131
C21_11 C 0.50155(15) 0.68665(15) 0.19546(16)
N14_11 N 0.54355(14) 0.59817(13) 0.25337(13)
N15_11 N 0.53454(13) 0.53998(13) 0.28822(12)
N16_11 N 0.44068(13) 0.59591(12) 0.26229(14)
N18_11 N 0.45030(13) 0.54404(13) 0.21810(12)
N19_11 N 0.48696(14) 0.65352(12) 0.20743(14)
N21_11 N 0.53004(13) 0.70706(12) 0.21769(12)
O9_11 O 0.54735(14) 0.50700(12) 0.29566(14)
O10_11 O 0.50407(12) 0.55216(13) 0.30112(13)
O11_11 O 0.48199(13) 0.55740(13) 0.20903(13)
O12_11 O 0.43615(12) 0.51454(13) 0.20479(13)
O13_11 O 0.53918(13) 0.69390(12) 0.25010(12)
O14_11 O 0.54502(13) 0.73596(13) 0.20329(13)
N28_11 N 0.49601(12) 0.65101(12) 0.31080(15)
N29_7 N 0.34899(12) 0.81080(15) 0.00399(12)
C1_7 C 0.41617(15) 0.72803(17) 0.89830(16)
H1_7 H 0.414011 0.714031 0.875496
C2_7 C 0.38870(16) 0.73066(17) 0.92646(17)
H2_7 H 0.364602 0.718851 0.925549
C3_7 C 0.43650(14) 0.76325(14) 0.94377(15)
C9_7 C 0.31335(15) 0.69546(16) 0.99845(15)
N2_7 N 0.40183(13) 0.75337(13) 0.95645(14)
N3_7 N 0.46002(13) 0.78822(12) 0.96546(13)
N9_7 N 0.29294(12) 0.71769(12) 0.96996(13)
O1_7 O 0.49300(12) 0.79566(14) 0.95265(14)
O2_7 O 0.44784(13) 0.80112(13) 0.99593(12)
O5_7 O 0.30610(12) 0.75010(12) 0.96082(13)
O6_7 O 0.26404(13) 0.70329(13) 0.95498(13)
Zn3_8 Zn 0.12511(2) 0.24127(2) 0.50807(2)
C1_8 C 0.08383(15) 0.27197(17) 0.39830(16)
H1_8 H 0.085989 0.285969 0.375496
C2_8 C 0.11130(16) 0.26934(17) 0.42646(17)
H2_8 H 0.135398 0.281149 0.425549
C3_8 C 0.06350(14) 0.23675(14) 0.44377(15)
C4_8 C 0.10505(17) 0.21202(18) 0.58835(17)
H3_8 H 0.126503 0.195882 0.588638
C5_8 C 0.07806(17) 0.21401(17) 0.61617(16)
H4_8 H 0.077652 0.199766 0.638929
C6_8 C 0.06368(15) 0.25268(15) 0.57047(16)
C7_8 C 0.14504(17) 0.32049(17) 0.53867(19)
H5_8 H 0.123729 0.320740 0.555003
C8_8 C 0.17302(18) 0.34860(17) 0.53676(19)
H6_8 H 0.173793 0.370869 0.551740
C9_8 C 0.18665(15) 0.30454(16) 0.49845(15)
N2_8 N 0.09817(13) 0.24663(13) 0.45645(14)
N3_8 N 0.03998(13) 0.21178(12) 0.46546(13)
N4_8 N 0.09591(12) 0.23771(14) 0.55932(13)
N6_8 N 0.04404(13) 0.28190(12) 0.54970(13)
N7_8 N 0.15352(12) 0.29257(14) 0.51304(14)
N9_8 N 0.20706(12) 0.28231(12) 0.46996(13)
O1_8 O 0.00700(12) 0.20434(14) 0.45265(14)
O2_8 O 0.05216(13) 0.19888(13) 0.49593(12)
O3_8 O 0.05740(13) 0.29097(13) 0.51801(13)
O4_8 O 0.01454(13) 0.29521(13) 0.56385(12)
O5_8 O 0.19390(12) 0.24990(12) 0.46082(13)
O6_8 O 0.23596(13) 0.29671(13) 0.45498(13)
Zn4_12 Zn 0.00807(2) 0.37489(2) 0.75873(2)
C16_12 C 0.08835(17) 0.39495(17) 0.78798(18)
H11_12 H 0.088638 0.373497 0.804118
C17_12 C 0.11617(16) 0.42194(17) 0.78599(17)
H12_12 H 0.138929 0.422348 0.800234
C18_12 C 0.07047(16) 0.43632(15) 0.74732(15)
C19_12 C 0.03867(19) 0.35496(17) 0.67951(17)
H13_12 H 0.055003 0.376271 0.679260
C20_12 C 0.03676(19) 0.32698(18) 0.65140(17)
H14_12 H 0.051740 0.326207 0.629131
N16_12 N 0.05932(13) 0.40409(12) 0.76229(14)
N18_12 N 0.04970(13) 0.45596(13) 0.71810(12)
N19_12 N 0.01304(14) 0.34648(12) 0.70743(14)
O11_12 O 0.01801(13) 0.44260(13) 0.70903(13)
O12_12 O 0.06385(12) 0.48546(13) 0.70479(13)
N28_12 N 0.00399(12) 0.34899(12) 0.81080(15)
N29_8 N 0.15101(12) 0.18920(15) 0.50399(12)
C13_12 C 0.89830(16) 0.41617(15) 0.72803(17)
H9_12 H 0.875496 0.414011 0.714031
C14_12 C 0.92646(17) 0.38870(16) 0.73066(17)
H10_12 H 0.925549 0.364602 0.718851
C15_12 C 0.94377(15) 0.43650(14) 0.76325(14)
C21_12 C 0.99845(15) 0.31335(15) 0.69546(16)
N14_12 N 0.95645(14) 0.40183(13) 0.75337(13)
N15_12 N 0.96546(13) 0.46002(13) 0.78822(12)
N21_12 N 0.96996(13) 0.29294(12) 0.71769(12)
O9_12 O 0.95265(14) 0.49300(12) 0.79566(14)
O10_12 O 0.99593(12) 0.44784(13) 0.80112(13)
O13_12 O 0.96082(13) 0.30610(12) 0.75010(12)
O14_12 O 0.95498(13) 0.26404(13) 0.70329(13)
Zn4_13 Zn 0.24127(2) 0.50807(2) 0.12511(2)
C13_13 C 0.27197(17) 0.39830(16) 0.08383(15)
H9_13 H 0.285969 0.375496 0.085989
C14_13 C 0.26934(17) 0.42646(17) 0.11130(16)
H10_13 H 0.281149 0.425549 0.135398
C15_13 C 0.23675(14) 0.44377(15) 0.06350(14)
C16_13 C 0.21202(18) 0.58835(17) 0.10505(17)
H11_13 H 0.195882 0.588638 0.126503
C17_13 C 0.21401(17) 0.61617(16) 0.07806(17)
H12_13 H 0.199766 0.638929 0.077652
C18_13 C 0.25268(15) 0.57047(16) 0.06368(15)
C19_13 C 0.32049(17) 0.53867(19) 0.14504(17)
H13_13 H 0.320740 0.555003 0.123729
C20_13 C 0.34860(17) 0.53676(19) 0.17302(18)
H14_13 H 0.370869 0.551740 0.173793
C21_13 C 0.30454(16) 0.49845(15) 0.18665(15)
N14_13 N 0.24663(13) 0.45645(14) 0.09817(13)
N15_13 N 0.21178(12) 0.46546(13) 0.03998(13)
N16_13 N 0.23771(14) 0.55932(13) 0.09591(12)
N18_13 N 0.28190(12) 0.54970(13) 0.04404(13)
N19_13 N 0.29257(14) 0.51304(14) 0.15352(12)
N21_13 N 0.28231(12) 0.46996(13) 0.20706(12)
O9_13 O 0.20434(14) 0.45265(14) 0.00700(12)
O10_13 O 0.19888(13) 0.49593(12) 0.05216(13)
O11_13 O 0.29097(13) 0.51801(13) 0.05740(13)
O12_13 O 0.29521(13) 0.56385(12) 0.01454(13)
O13_13 O 0.24990(12) 0.46082(13) 0.19390(12)
O14_13 O 0.29671(13) 0.45498(13) 0.23596(13)
N28_13 N 0.18920(15) 0.50399(12) 0.15101(12)
C13_14 C 0.77197(17) 0.10170(16) 0.91617(15)
H9_14 H 0.785969 0.124504 0.914011
C14_14 C 0.76934(17) 0.07354(17) 0.88870(16)
H10_14 H 0.781149 0.074451 0.864602
C15_14 C 0.73675(14) 0.05623(15) 0.93650(14)
C21_14 C 0.80454(16) 0.00155(15) 0.81335(15)
N14_14 N 0.74663(13) 0.04355(14) 0.90183(13)
N15_14 N 0.71178(12) 0.03454(13) 0.96002(13)
N21_14 N 0.78231(12) 0.03004(13) 0.79294(12)
O9_14 O 0.70434(14) 0.04735(14) 0.99300(12)
O10_14 O 0.69888(13) 0.00407(12) 0.94784(13)
O13_14 O 0.74990(12) 0.03918(13) 0.80610(12)
O14_14 O 0.79671(13) 0.04502(13) 0.76404(13)
Zn4_14 Zn 0.74127(2) 0.99193(2) 0.87489(2)
C16_14 C 0.71202(18) 0.91165(17) 0.89495(17)
H11_14 H 0.695882 0.911362 0.873497
C17_14 C 0.71401(17) 0.88383(16) 0.92194(17)
H12_14 H 0.699766 0.861071 0.922348
C18_14 C 0.75268(15) 0.92953(16) 0.93632(15)
C19_14 C 0.82049(17) 0.96133(19) 0.85496(17)
H13_14 H 0.820740 0.944997 0.876271
C20_14 C 0.84860(17) 0.96324(19) 0.82698(18)
H14_14 H 0.870869 0.948260 0.826207
N16_14 N 0.73771(14) 0.94068(13) 0.90409(12)
N18_14 N 0.78190(12) 0.95030(13) 0.95596(13)
N19_14 N 0.79257(14) 0.98696(14) 0.84648(12)
O11_14 O 0.79097(13) 0.98199(13) 0.94260(13)
O12_14 O 0.79521(13) 0.93615(12) 0.98546(13)
N28_14 N 0.68920(15) 0.99601(12) 0.84899(12)
Zn4_15 Zn 0.25873(2) 0.49193(2) 0.62511(2)
C13_15 C 0.22803(17) 0.60170(16) 0.58383(15)
H9_15 H 0.214031 0.624504 0.585989
C14_15 C 0.23066(17) 0.57354(17) 0.61130(16)
H10_15 H 0.218851 0.574451 0.635398
C15_15 C 0.26325(14) 0.55623(15) 0.56350(14)
C16_15 C 0.28798(18) 0.41165(17) 0.60505(17)
H11_15 H 0.304118 0.411362 0.626503
C17_15 C 0.28599(17) 0.38383(16) 0.57806(17)
H12_15 H 0.300234 0.361071 0.577652
C18_15 C 0.24732(15) 0.42953(16) 0.56368(15)
C19_15 C 0.17951(17) 0.46133(19) 0.64504(17)
H13_15 H 0.179260 0.444997 0.623729
C20_15 C 0.15140(17) 0.46324(19) 0.67302(18)
H14_15 H 0.129131 0.448260 0.673793
C21_15 C 0.19546(16) 0.50155(15) 0.68665(15)
N14_15 N 0.25337(13) 0.54355(14) 0.59817(13)
N15_15 N 0.28822(12) 0.53454(13) 0.53998(13)
N16_15 N 0.26229(14) 0.44068(13) 0.59591(12)
N18_15 N 0.21810(12) 0.45030(13) 0.54404(13)
N19_15 N 0.20743(14) 0.48696(14) 0.65352(12)
N21_15 N 0.21769(12) 0.53004(13) 0.70706(12)
O9_15 O 0.29566(14) 0.54735(14) 0.50700(12)
O10_15 O 0.30112(13) 0.50407(12) 0.55216(13)
O11_15 O 0.20903(13) 0.48199(13) 0.55740(13)
O12_15 O 0.20479(13) 0.43615(12) 0.51454(13)
O13_15 O 0.25010(12) 0.53918(13) 0.69390(12)
O14_15 O 0.20329(13) 0.54502(13) 0.73596(13)
N28_15 N 0.31080(15) 0.49601(12) 0.65101(12)
Zn4_16 Zn 0.75873(2) 0.00807(2) 0.37489(2)
C16_16 C 0.78798(18) 0.08835(17) 0.39495(17)
H11_16 H 0.804118 0.088638 0.373497
C17_16 C 0.78599(17) 0.11617(16) 0.42194(17)
H12_16 H 0.800234 0.138929 0.422348
C18_16 C 0.74732(15) 0.07047(16) 0.43632(15)
C19_16 C 0.67951(17) 0.03867(19) 0.35496(17)
H13_16 H 0.679260 0.055003 0.376271
C20_16 C 0.65140(17) 0.03676(19) 0.32698(18)
H14_16 H 0.629131 0.051740 0.326207
N16_16 N 0.76229(14) 0.05932(13) 0.40409(12)
N18_16 N 0.71810(12) 0.04970(13) 0.45596(13)
N19_16 N 0.70743(14) 0.01304(14) 0.34648(12)
O11_16 O 0.70903(13) 0.01801(13) 0.44260(13)
O12_16 O 0.70479(13) 0.06385(12) 0.48546(13)
N28_16 N 0.81080(15) 0.00399(12) 0.34899(12)
C13_16 C 0.72803(17) 0.89830(16) 0.41617(15)
H9_16 H 0.714031 0.875496 0.414011
C14_16 C 0.73066(17) 0.92646(17) 0.38870(16)
H10_16 H 0.718851 0.925549 0.364602
C15_16 C 0.76325(14) 0.94377(15) 0.43650(14)
C21_16 C 0.69546(16) 0.99845(15) 0.31335(15)
N14_16 N 0.75337(13) 0.95645(14) 0.40183(13)
N15_16 N 0.78822(12) 0.96546(13) 0.46002(13)
N21_16 N 0.71769(12) 0.96996(13) 0.29294(12)
O9_16 O 0.79566(14) 0.95265(14) 0.49300(12)
O10_16 O 0.80112(13) 0.99593(12) 0.44784(13)
O13_16 O 0.75010(12) 0.96082(13) 0.30610(12)
O14_16 O 0.70329(13) 0.95498(13) 0.26404(13)
Zn2_7 Zn -0.000000 0.250000 0.13323(3)
C13_17 C 0.10170(16) 0.41617(15) 0.22803(17)
H9_17 H 0.124504 0.414011 0.214031
C14_17 C 0.07354(17) 0.38870(16) 0.23066(17)
H10_17 H 0.074451 0.364602 0.218851
C15_17 C 0.05623(15) 0.43650(14) 0.26325(14)
C21_17 C 0.00155(15) 0.31335(15) 0.19546(16)
N13_9 N 0.09051(14) 0.44769(13) 0.24972(12)
N14_17 N 0.04355(14) 0.40183(13) 0.25337(13)
N15_17 N 0.03454(13) 0.46002(13) 0.28822(12)
N21_17 N 0.03004(13) 0.29294(12) 0.21769(12)
O9_17 O 0.04735(14) 0.49300(12) 0.29566(14)
O10_17 O 0.00407(12) 0.44784(13) 0.30112(13)
O13_17 O 0.03918(13) 0.30610(12) 0.25010(12)
O14_17 O 0.04502(13) 0.26404(13) 0.20329(13)
Zn5_13 Zn 0.11672(3) 0.500000 0.250000
N26_13 N 0.05068(13) 0.25859(13) 0.10465(13)
N27_13 N 0.00937(14) 0.19945(14) 0.16145(14)
Zn1_7 Zn -0.000000 0.250000 0.88328(3)
C12_13 C 0.01238(15) 0.31437(15) 0.82373(15)
N12_13 N 0.03941(13) 0.28989(13) 0.80178(12)
O7_13 O 0.04646(13) 0.25761(13) 0.81539(14)
O8_13 O 0.05315(13) 0.30239(13) 0.77209(12)
C22_13 C 0.02080(18) 0.16537(16) 0.86884(16)
H15_13 H 0.034605 0.163089 0.891755
C23_13 C 0.01787(17) 0.13695(17) 0.84070(17)
H16_13 H 0.028879 0.112495 0.841916
N22_13 N 0.00068(12) 0.19657(13) 0.85793(14)
N25_13 N 0.05231(13) 0.24972(12) 0.90949(14)
Zn2_8 Zn 1.000000 0.250000 0.13323(3)
C4_9 C 0.89495(17) 0.21202(18) 0.08835(17)
H3_9 H 0.873497 0.195882 0.088638
C5_9 C 0.92194(17) 0.21401(17) 0.11617(16)
H4_9 H 0.922348 0.199766 0.138929
C6_9 C 0.93632(15) 0.25268(15) 0.07047(16)
C7_9 C 0.85496(17) 0.32049(17) 0.03867(19)
H5_9 H 0.876271 0.320740 0.055003
C8_9 C 0.82698(18) 0.34860(17) 0.03676(19)
H6_9 H 0.826207 0.370869 0.051740
N4_9 N 0.90409(12) 0.23771(14) 0.05932(13)
N5_5 N 0.94932(13) 0.24141(13) 0.10465(13)
N6_9 N 0.95596(13) 0.28190(12) 0.04970(13)
N7_9 N 0.84648(12) 0.29257(14) 0.01304(14)
N8_5 N 0.80055(14) 0.33855(14) 0.00937(14)
O3_9 O 0.94260(13) 0.29097(13) 0.01801(13)
O4_9 O 0.98546(13) 0.29521(13) 0.06385(12)
C16_17 C 0.91165(17) 0.39495(17) 0.28798(18)
H11_17 H 0.911362 0.373497 0.304118
C17_17 C 0.88383(16) 0.42194(17) 0.28599(17)
H12_17 H 0.861071 0.422348 0.300234
C18_17 C 0.92953(16) 0.43632(15) 0.24732(15)
C19_17 C 0.96133(19) 0.35496(17) 0.17951(17)
H13_17 H 0.944997 0.376271 0.179260
C20_17 C 0.96324(19) 0.32698(18) 0.15140(17)
H14_17 H 0.948260 0.326207 0.129131
N16_17 N 0.94068(13) 0.40409(12) 0.26229(14)
N17_9 N 0.89535(13) 0.44932(13) 0.25859(13)
N18_17 N 0.95030(13) 0.45596(13) 0.21810(12)
N19_17 N 0.98696(14) 0.34648(12) 0.20743(14)
N20_9 N 0.99063(14) 0.30055(14) 0.16145(14)
O11_17 O 0.98199(13) 0.44260(13) 0.20903(13)
O12_17 O 0.93615(12) 0.48546(13) 0.20479(13)
Zn6_7 Zn 0.86677(3) 0.500000 0.250000
Zn7_7 Zn 0.750000 0.36677(3) 0.000000
Zn1_8 Zn 1.000000 0.250000 0.88328(3)
C1_9 C 0.91617(15) 0.27197(17) 0.89830(16)
H1_9 H 0.914011 0.285969 0.875496
C2_9 C 0.88870(16) 0.26934(17) 0.92646(17)
H2_9 H 0.864602 0.281149 0.925549
C3_9 C 0.93650(14) 0.23675(14) 0.94377(15)
C9_9 C 0.81335(15) 0.30454(16) 0.99845(15)
C10_13 C 0.97920(18) 0.33463(16) 0.86884(16)
H7_13 H 0.965395 0.336911 0.891755
C11_13 C 0.98213(17) 0.36305(17) 0.84070(17)
H8_13 H 0.971121 0.387505 0.841916
N1_5 N 0.94769(13) 0.25028(12) 0.90949(14)
N2_9 N 0.90183(13) 0.24663(13) 0.95645(14)
N3_9 N 0.96002(13) 0.21178(12) 0.96546(13)
N9_9 N 0.79294(12) 0.28231(12) 0.96996(13)
N10_13 N 0.99932(12) 0.30343(13) 0.85793(14)
O1_9 O 0.99300(12) 0.20434(14) 0.95265(14)
O2_9 O 0.94784(13) 0.19888(13) 0.99593(12)
O5_9 O 0.80610(12) 0.24990(12) 0.96082(13)
O6_9 O 0.76404(13) 0.29671(13) 0.95498(13)
C24_13 C 0.98762(15) 0.18563(15) 0.82373(15)
N24_13 N 0.96059(13) 0.21011(13) 0.80178(12)
O15_13 O 0.95354(13) 0.24239(13) 0.81539(14)
O16_13 O 0.94685(13) 0.19761(13) 0.77209(12)
Zn7_8 Zn 0.750000 0.36677(3) 1.000000
Zn1_9 Zn 0.500000 0.750000 0.38328(3)
Zn2_9 Zn 0.500000 0.750000 0.63323(3)
C1_10 C 0.58383(15) 0.72803(17) 0.39830(16)
H1_10 H 0.585989 0.714031 0.375496
C2_10 C 0.61130(16) 0.73066(17) 0.42646(17)
H2_10 H 0.635398 0.718851 0.425549
C3_10 C 0.56350(14) 0.76325(14) 0.44377(15)
C4_10 C 0.60505(17) 0.78798(18) 0.58835(17)
H3_10 H 0.626503 0.804118 0.588638
C5_10 C 0.57806(17) 0.78599(17) 0.61617(16)
H4_10 H 0.577652 0.800234 0.638929
C6_10 C 0.56368(15) 0.74732(15) 0.57047(16)
C7_10 C 0.64504(17) 0.67951(17) 0.53867(19)
H5_10 H 0.623729 0.679260 0.555003
C8_10 C 0.67302(18) 0.65140(17) 0.53676(19)
H6_10 H 0.673793 0.629131 0.551740
C9_10 C 0.68665(15) 0.69546(16) 0.49845(15)
C10_14 C 0.52080(18) 0.66537(16) 0.36884(16)
H7_14 H 0.534605 0.663089 0.391755
C11_14 C 0.51787(17) 0.63695(17) 0.34070(17)
H8_14 H 0.528879 0.612495 0.341916
C12_14 C 0.48762(15) 0.68563(15) 0.32373(15)
N1_6 N 0.55231(13) 0.74972(12) 0.40949(14)
N2_10 N 0.59817(13) 0.75337(13) 0.45645(14)
N3_10 N 0.53998(13) 0.78822(12) 0.46546(13)
N4_10 N 0.59591(12) 0.76229(14) 0.55932(13)
N5_6 N 0.55068(13) 0.75859(13) 0.60465(13)
N6_10 N 0.54404(13) 0.71810(12) 0.54970(13)
N7_10 N 0.65352(12) 0.70743(14) 0.51304(14)
N8_6 N 0.69945(14) 0.66145(14) 0.50937(14)
N9_10 N 0.70706(12) 0.71769(12) 0.46996(13)
N10_14 N 0.50068(12) 0.69657(13) 0.35793(14)
N12_14 N 0.46059(13) 0.71011(13) 0.30178(12)
O1_10 O 0.50700(12) 0.79566(14) 0.45265(14)
O2_10 O 0.55216(13) 0.80112(13) 0.49593(12)
O3_10 O 0.55740(13) 0.70903(13) 0.51801(13)
O4_10 O 0.51454(13) 0.70479(13) 0.56385(12)
O5_10 O 0.69390(12) 0.75010(12) 0.46082(13)
O6_10 O 0.73596(13) 0.70329(13) 0.45498(13)
O7_14 O 0.45354(13) 0.74239(13) 0.31539(14)
O8_14 O 0.44685(13) 0.69761(13) 0.27209(12)
C13_18 C 0.39830(16) 0.58383(15) 0.72803(17)
H9_18 H 0.375496 0.585989 0.714031
C14_18 C 0.42646(17) 0.61130(16) 0.73066(17)
H10_18 H 0.425549 0.635398 0.718851
C15_18 C 0.44377(15) 0.56350(14) 0.76325(14)
C16_18 C 0.58835(17) 0.60505(17) 0.78798(18)
H11_18 H 0.588638 0.626503 0.804118
C17_18 C 0.61617(16) 0.57806(17) 0.78599(17)
H12_18 H 0.638929 0.577652 0.800234
C18_18 C 0.57047(16) 0.56368(15) 0.74732(15)
C19_18 C 0.53867(19) 0.64504(17) 0.67951(17)
H13_18 H 0.555003 0.623729 0.679260
C20_18 C 0.53676(19) 0.67302(18) 0.65140(17)
H14_18 H 0.551740 0.673793 0.629131
C21_18 C 0.49845(15) 0.68665(15) 0.69546(16)
N13_10 N 0.40949(14) 0.55231(13) 0.74972(12)
N14_18 N 0.45645(14) 0.59817(13) 0.75337(13)
N15_18 N 0.46546(13) 0.53998(13) 0.78822(12)
N16_18 N 0.55932(13) 0.59591(12) 0.76229(14)
N17_10 N 0.60465(13) 0.55068(13) 0.75859(13)
N18_18 N 0.54970(13) 0.54404(13) 0.71810(12)
N19_18 N 0.51304(14) 0.65352(12) 0.70743(14)
N20_10 N 0.50937(14) 0.69945(14) 0.66145(14)
N21_18 N 0.46996(13) 0.70706(12) 0.71769(12)
O9_18 O 0.45265(14) 0.50700(12) 0.79566(14)
O10_18 O 0.49593(12) 0.55216(13) 0.80112(13)
O11_18 O 0.51801(13) 0.55740(13) 0.70903(13)
O12_18 O 0.56385(12) 0.51454(13) 0.70479(13)
O13_18 O 0.46082(13) 0.69390(12) 0.75010(12)
O14_18 O 0.45498(13) 0.73596(13) 0.70329(13)
C22_14 C 0.47920(18) 0.83463(16) 0.36884(16)
H15_14 H 0.465395 0.836911 0.391755
C23_14 C 0.48213(17) 0.86305(17) 0.34070(17)
H16_14 H 0.471121 0.887505 0.341916
C24_14 C 0.51238(15) 0.81437(15) 0.32373(15)
N22_14 N 0.49932(12) 0.80343(13) 0.35793(14)
N24_14 N 0.53941(13) 0.78989(13) 0.30178(12)
O15_14 O 0.54646(13) 0.75761(13) 0.31539(14)
O16_14 O 0.55315(13) 0.80239(13) 0.27209(12)
Zn5_14 Zn 0.38328(3) 0.500000 0.750000
Zn6_8 Zn 0.63323(3) 0.500000 0.750000
Zn7_9 Zn 0.750000 0.63323(3) 0.500000
N25_14 N 0.44769(13) 0.75028(12) 0.40949(14)
N26_14 N 0.44932(13) 0.74141(13) 0.60465(13)
N27_14 N 0.49063(14) 0.80055(14) 0.66145(14)
Zn6_9 Zn 0.13323(3) 0.000000 0.250000
Zn1_10 Zn 0.000000 0.750000 0.61672(3)
Zn2_10 Zn 0.000000 0.750000 0.36677(3)
C1_11 C 0.08383(15) 0.77197(17) 0.60170(16)
H1_11 H 0.085989 0.785969 0.624504
C2_11 C 0.11130(16) 0.76934(17) 0.57354(17)
H2_11 H 0.135398 0.781149 0.574451
C3_11 C 0.06350(14) 0.73675(14) 0.55623(15)
C4_11 C 0.10505(17) 0.71202(18) 0.41165(17)
H3_11 H 0.126503 0.695882 0.411362
C5_11 C 0.07806(17) 0.71401(17) 0.38383(16)
H4_11 H 0.077652 0.699766 0.361071
C6_11 C 0.06368(15) 0.75268(15) 0.42953(16)
C7_11 C 0.14504(17) 0.82049(17) 0.46133(19)
H5_11 H 0.123729 0.820740 0.444997
C8_11 C 0.17302(18) 0.84860(17) 0.46324(19)
H6_11 H 0.173793 0.870869 0.448260
C9_11 C 0.18665(15) 0.80454(16) 0.50155(15)
C10_15 C 0.02080(18) 0.83463(16) 0.63116(16)
H7_15 H 0.034605 0.836911 0.608245
C11_15 C 0.01787(17) 0.86305(17) 0.65930(17)
H8_15 H 0.028879 0.887505 0.658084
N1_7 N 0.05231(13) 0.75028(12) 0.59051(14)
N2_11 N 0.09817(13) 0.74663(13) 0.54355(14)
N3_11 N 0.03998(13) 0.71178(12) 0.53454(13)
N4_11 N 0.09591(12) 0.73771(14) 0.44068(13)
N5_7 N 0.05068(13) 0.74141(13) 0.39535(13)
N6_11 N 0.04404(13) 0.78190(12) 0.45030(13)
N7_11 N 0.15352(12) 0.79257(14) 0.48696(14)
N8_7 N 0.19945(14) 0.83855(14) 0.49063(14)
N9_11 N 0.20706(12) 0.78231(12) 0.53004(13)
N10_15 N 0.00068(12) 0.80343(13) 0.64207(14)
O1_11 O 0.00700(12) 0.70434(14) 0.54735(14)
O2_11 O 0.05216(13) 0.69888(13) 0.50407(12)
O3_11 O 0.05740(13) 0.79097(13) 0.48199(13)
O4_11 O 0.01454(13) 0.79521(13) 0.43615(12)
O5_11 O 0.19390(12) 0.74990(12) 0.53918(13)
O6_11 O 0.23596(13) 0.79671(13) 0.54502(13)
C16_19 C 0.08835(17) 0.89495(17) 0.21202(18)
H11_19 H 0.088638 0.873497 0.195882
C17_19 C 0.11617(16) 0.92194(17) 0.21401(17)
H12_19 H 0.138929 0.922348 0.199766
C18_19 C 0.07047(16) 0.93632(15) 0.25268(15)
C19_19 C 0.03867(19) 0.85496(17) 0.32049(17)
H13_19 H 0.055003 0.876271 0.320740
C20_19 C 0.03676(19) 0.82698(18) 0.34860(17)
H14_19 H 0.051740 0.826207 0.370869
N16_19 N 0.05932(13) 0.90409(12) 0.23771(14)
N17_11 N 0.10465(13) 0.94932(13) 0.24141(13)
N18_19 N 0.04970(13) 0.95596(13) 0.28190(12)
N19_19 N 0.01304(14) 0.84648(12) 0.29257(14)
N20_11 N 0.00937(14) 0.80055(14) 0.33855(14)
O11_19 O 0.01801(13) 0.94260(13) 0.29097(13)
O12_19 O 0.06385(12) 0.98546(13) 0.29521(13)
C24_15 C 0.01238(15) 0.68563(15) 0.67627(15)
N24_15 N 0.03941(13) 0.71011(13) 0.69822(12)
O15_15 O 0.04646(13) 0.74239(13) 0.68461(14)
O16_15 O 0.05315(13) 0.69761(13) 0.72791(12)
Zn6_10 Zn 0.13323(3) 1.000000 0.250000
Zn7_10 Zn 0.250000 0.86677(3) 0.500000
Zn5_15 Zn 0.88328(3) 0.000000 0.250000
Zn1_11 Zn 1.000000 0.750000 0.61672(3)
Zn2_11 Zn 1.000000 0.750000 0.36677(3)
C12_15 C 0.98762(15) 0.81437(15) 0.67627(15)
N12_15 N 0.96059(13) 0.78989(13) 0.69822(12)
O7_15 O 0.95354(13) 0.75761(13) 0.68461(14)
O8_15 O 0.94685(13) 0.80239(13) 0.72791(12)
C13_19 C 0.89830(16) 0.91617(15) 0.27197(17)
H9_19 H 0.875496 0.914011 0.285969
C14_19 C 0.92646(17) 0.88870(16) 0.26934(17)
H10_19 H 0.925549 0.864602 0.281149
C15_19 C 0.94377(15) 0.93650(14) 0.23675(14)
C21_19 C 0.99845(15) 0.81335(15) 0.30454(16)
N13_11 N 0.90949(14) 0.94769(13) 0.25028(12)
N14_19 N 0.95645(14) 0.90183(13) 0.24663(13)
N15_19 N 0.96546(13) 0.96002(13) 0.21178(12)
N21_19 N 0.96996(13) 0.79294(12) 0.28231(12)
O9_19 O 0.95265(14) 0.99300(12) 0.20434(14)
O10_19 O 0.99593(12) 0.94784(13) 0.19888(13)
O13_19 O 0.96082(13) 0.80610(12) 0.24990(12)
O14_19 O 0.95498(13) 0.76404(13) 0.29671(13)
C22_15 C 0.97920(18) 0.66537(16) 0.63116(16)
H15_15 H 0.965395 0.663089 0.608245
C23_15 C 0.98213(17) 0.63695(17) 0.65930(17)
H16_15 H 0.971121 0.612495 0.658084
N22_15 N 0.99932(12) 0.69657(13) 0.64207(14)
Zn5_16 Zn 0.88328(3) 1.000000 0.250000
N25_15 N 0.94769(13) 0.74972(12) 0.59051(14)
N26_15 N 0.94932(13) 0.75859(13) 0.39535(13)
N27_15 N 0.99063(14) 0.69945(14) 0.33855(14)
Zn1_12 Zn 0.500000 0.250000 0.11672(3)
C1_12 C 0.41617(15) 0.22803(17) 0.10170(16)
H1_12 H 0.414011 0.214031 0.124504
C2_12 C 0.38870(16) 0.23066(17) 0.07354(17)
H2_12 H 0.364602 0.218851 0.074451
C3_12 C 0.43650(14) 0.26325(14) 0.05623(15)
C9_12 C 0.31335(15) 0.19546(16) 0.00155(15)
C10_16 C 0.47920(18) 0.16537(16) 0.13116(16)
H7_16 H 0.465395 0.163089 0.108245
C11_16 C 0.48213(17) 0.13695(17) 0.15930(17)
H8_16 H 0.471121 0.112495 0.158084
C12_16 C 0.51238(15) 0.18563(15) 0.17627(15)
N1_8 N 0.44769(13) 0.24972(12) 0.09051(14)
N2_12 N 0.40183(13) 0.25337(13) 0.04355(14)
N3_12 N 0.46002(13) 0.28822(12) 0.03454(13)
N9_12 N 0.29294(12) 0.21769(12) 0.03004(13)
N10_16 N 0.49932(12) 0.19657(13) 0.14207(14)
N12_16 N 0.53941(13) 0.21011(13) 0.19822(12)
O1_12 O 0.49300(12) 0.29566(14) 0.04735(14)
O2_12 O 0.44784(13) 0.30112(13) 0.00407(12)
O5_12 O 0.30610(12) 0.25010(12) 0.03918(13)
O6_12 O 0.26404(13) 0.20329(13) 0.04502(13)
O7_16 O 0.54646(13) 0.24239(13) 0.18461(14)
O8_16 O 0.55315(13) 0.19761(13) 0.22791(12)
C22_16 C 0.52080(18) 0.33463(16) 0.13116(16)
H15_16 H 0.534605 0.336911 0.108245
C23_16 C 0.51787(17) 0.36305(17) 0.15930(17)
H16_16 H 0.528879 0.387505 0.158084
C24_16 C 0.48762(15) 0.31437(15) 0.17627(15)
N22_16 N 0.50068(12) 0.30343(13) 0.14207(14)
N24_16 N 0.46059(13) 0.28989(13) 0.19822(12)
O15_16 O 0.45354(13) 0.25761(13) 0.18461(14)
O16_16 O 0.44685(13) 0.30239(13) 0.22791(12)
Zn7_11 Zn 0.250000 0.13323(3) 0.000000
N25_16 N 0.55231(13) 0.25028(12) 0.09051(14)
Zn2_12 Zn 0.500000 0.250000 0.86677(3)
C4_12 C 0.39495(17) 0.28798(18) 0.91165(17)
H3_12 H 0.373497 0.304118 0.911362
C5_12 C 0.42194(17) 0.28599(17) 0.88383(16)
H4_12 H 0.422348 0.300234 0.861071
C6_12 C 0.43632(15) 0.24732(15) 0.92953(16)
C7_12 C 0.35496(17) 0.17951(17) 0.96133(19)
H5_12 H 0.376271 0.179260 0.944997
C8_12 C 0.32698(18) 0.15140(17) 0.96324(19)
H6_12 H 0.326207 0.129131 0.948260
N4_12 N 0.40409(12) 0.26229(14) 0.94068(13)
N5_8 N 0.44932(13) 0.25859(13) 0.89535(13)
N6_12 N 0.45596(13) 0.21810(12) 0.95030(13)
N7_12 N 0.34648(12) 0.20743(14) 0.98696(14)
N8_8 N 0.30055(14) 0.16145(14) 0.99063(14)
O3_12 O 0.44260(13) 0.20903(13) 0.98199(13)
O4_12 O 0.48546(13) 0.20479(13) 0.93615(12)
C13_20 C 0.60170(16) 0.08383(15) 0.77197(17)
H9_20 H 0.624504 0.085989 0.785969
C14_20 C 0.57354(17) 0.11130(16) 0.76934(17)
H10_20 H 0.574451 0.135398 0.781149
C15_20 C 0.55623(15) 0.06350(14) 0.73675(14)
C16_20 C 0.41165(17) 0.10505(17) 0.71202(18)
H11_20 H 0.411362 0.126503 0.695882
C17_20 C 0.38383(16) 0.07806(17) 0.71401(17)
H12_20 H 0.361071 0.077652 0.699766
C18_20 C 0.42953(16) 0.06368(15) 0.75268(15)
C19_20 C 0.46133(19) 0.14504(17) 0.82049(17)
H13_20 H 0.444997 0.123729 0.820740
C20_20 C 0.46324(19) 0.17302(18) 0.84860(17)
H14_20 H 0.448260 0.173793 0.870869
C21_20 C 0.50155(15) 0.18665(15) 0.80454(16)
N13_12 N 0.59051(14) 0.05231(13) 0.75028(12)
N14_20 N 0.54355(14) 0.09817(13) 0.74663(13)
N15_20 N 0.53454(13) 0.03998(13) 0.71178(12)
N16_20 N 0.44068(13) 0.09591(12) 0.73771(14)
N17_12 N 0.39535(13) 0.05068(13) 0.74141(13)
N18_20 N 0.45030(13) 0.04404(13) 0.78190(12)
N19_20 N 0.48696(14) 0.15352(12) 0.79257(14)
N20_12 N 0.49063(14) 0.19945(14) 0.83855(14)
N21_20 N 0.53004(13) 0.20706(12) 0.78231(12)
O9_20 O 0.54735(14) 0.00700(12) 0.70434(14)
O10_20 O 0.50407(12) 0.05216(13) 0.69888(13)
O11_20 O 0.48199(13) 0.05740(13) 0.79097(13)
O12_20 O 0.43615(12) 0.01454(13) 0.79521(13)
O13_20 O 0.53918(13) 0.19390(12) 0.74990(12)
O14_20 O 0.54502(13) 0.23596(13) 0.79671(13)
Zn5_17 Zn 0.61672(3) -0.000000 0.750000
Zn6_11 Zn 0.36677(3) -0.000000 0.750000
Zn7_12 Zn 0.250000 0.13323(3) 1.000000
N26_16 N 0.55068(13) 0.24141(13) 0.89535(13)
N27_16 N 0.50937(14) 0.30055(14) 0.83855(14)
Zn5_18 Zn 0.61672(3) 1.000000 0.750000
Zn6_12 Zn 0.36677(3) 1.000000 0.750000
C13_21 C 0.22803(17) 0.10170(16) 0.41617(15)
H9_21 H 0.214031 0.124504 0.414011
C14_21 C 0.23066(17) 0.07354(17) 0.38870(16)
H10_21 H 0.218851 0.074451 0.364602
C15_21 C 0.26325(14) 0.05623(15) 0.43650(14)
C21_21 C 0.19546(16) 0.00155(15) 0.31335(15)
N13_13 N 0.24972(12) 0.09051(14) 0.44769(13)
N14_21 N 0.25337(13) 0.04355(14) 0.40183(13)
N15_21 N 0.28822(12) 0.03454(13) 0.46002(13)
N21_21 N 0.21769(12) 0.03004(13) 0.29294(12)
O9_21 O 0.29566(14) 0.04735(14) 0.49300(12)
O10_21 O 0.30112(13) 0.00407(12) 0.44784(13)
O13_21 O 0.25010(12) 0.03918(13) 0.30610(12)
O14_21 O 0.20329(13) 0.04502(13) 0.26404(13)
Zn5_19 Zn 0.250000 0.11672(3) 0.500000
N26_17 N 0.10465(13) 0.05068(13) 0.25859(13)
N27_17 N 0.16145(14) 0.00937(14) 0.19945(14)
C16_21 C 0.28798(18) 0.91165(17) 0.39495(17)
H11_21 H 0.304118 0.911362 0.373497
C17_21 C 0.28599(17) 0.88383(16) 0.42194(17)
H12_21 H 0.300234 0.861071 0.422348
C18_21 C 0.24732(15) 0.92953(16) 0.43632(15)
C19_21 C 0.17951(17) 0.96133(19) 0.35496(17)
H13_21 H 0.179260 0.944997 0.376271
C20_21 C 0.15140(17) 0.96324(19) 0.32698(18)
H14_21 H 0.129131 0.948260 0.326207
N16_21 N 0.26229(14) 0.94068(13) 0.40409(12)
N17_13 N 0.25859(13) 0.89535(13) 0.44932(13)
N18_21 N 0.21810(12) 0.95030(13) 0.45596(13)
N19_21 N 0.20743(14) 0.98696(14) 0.34648(12)
N20_13 N 0.16145(14) 0.99063(14) 0.30055(14)
O11_21 O 0.20903(13) 0.98199(13) 0.44260(13)
O12_21 O 0.20479(13) 0.93615(12) 0.48546(13)
C12_17 C 0.82373(15) 0.01238(15) 0.31437(15)
N12_17 N 0.80178(12) 0.03941(13) 0.28989(13)
O7_17 O 0.81539(14) 0.04646(13) 0.25761(13)
O8_17 O 0.77209(12) 0.05315(13) 0.30239(13)
C22_17 C 0.86884(16) 0.02080(18) 0.16537(16)
H15_17 H 0.891755 0.034605 0.163089
C23_17 C 0.84070(17) 0.01787(17) 0.13695(17)
H16_17 H 0.841916 0.028879 0.112495
N22_17 N 0.85793(14) 0.00068(12) 0.19657(13)
N25_17 N 0.90949(14) 0.05231(13) 0.24972(12)
C10_17 C 0.86884(16) 0.97920(18) 0.33463(16)
H7_17 H 0.891755 0.965395 0.336911
C11_17 C 0.84070(17) 0.98213(17) 0.36305(17)
H8_17 H 0.841916 0.971121 0.387505
N10_17 N 0.85793(14) 0.99932(12) 0.30343(13)
C24_17 C 0.82373(15) 0.98762(15) 0.18563(15)
N24_17 N 0.80178(12) 0.96059(13) 0.21011(13)
O15_17 O 0.81539(14) 0.95354(13) 0.24239(13)
O16_17 O 0.77209(12) 0.94685(13) 0.19761(13)
C10_18 C 0.36884(16) 0.52080(18) 0.66537(16)
H7_18 H 0.391755 0.534605 0.663089
C11_18 C 0.34070(17) 0.51787(17) 0.63695(17)
H8_18 H 0.341916 0.528879 0.612495
C12_18 C 0.32373(15) 0.48762(15) 0.68563(15)
N10_18 N 0.35793(14) 0.50068(12) 0.69657(13)
N12_18 N 0.30178(12) 0.46059(13) 0.71011(13)
O7_18 O 0.31539(14) 0.45354(13) 0.74239(13)
O8_18 O 0.27209(12) 0.44685(13) 0.69761(13)
C13_22 C 0.72803(17) 0.39830(16) 0.58383(15)
H9_22 H 0.714031 0.375496 0.585989
C14_22 C 0.73066(17) 0.42646(17) 0.61130(16)
H10_22 H 0.718851 0.425549 0.635398
C15_22 C 0.76325(14) 0.44377(15) 0.56350(14)
C16_22 C 0.78798(18) 0.58835(17) 0.60505(17)
H11_22 H 0.804118 0.588638 0.626503
C17_22 C 0.78599(17) 0.61617(16) 0.57806(17)
H12_22 H 0.800234 0.638929 0.577652
C18_22 C 0.74732(15) 0.57047(16) 0.56368(15)
C19_22 C 0.67951(17) 0.53867(19) 0.64504(17)
H13_22 H 0.679260 0.555003 0.623729
C20_22 C 0.65140(17) 0.53676(19) 0.67302(18)
H14_22 H 0.629131 0.551740 0.673793
C21_22 C 0.69546(16) 0.49845(15) 0.68665(15)
N13_14 N 0.74972(12) 0.40949(14) 0.55231(13)
N14_22 N 0.75337(13) 0.45645(14) 0.59817(13)
N15_22 N 0.78822(12) 0.46546(13) 0.53998(13)
N16_22 N 0.76229(14) 0.55932(13) 0.59591(12)
N17_14 N 0.75859(13) 0.60465(13) 0.55068(13)
N18_22 N 0.71810(12) 0.54970(13) 0.54404(13)
N19_22 N 0.70743(14) 0.51304(14) 0.65352(12)
N20_14 N 0.66145(14) 0.50937(14) 0.69945(14)
N21_22 N 0.71769(12) 0.46996(13) 0.70706(12)
O9_22 O 0.79566(14) 0.45265(14) 0.50700(12)
O10_22 O 0.80112(13) 0.49593(12) 0.55216(13)
O11_22 O 0.70903(13) 0.51801(13) 0.55740(13)
O12_22 O 0.70479(13) 0.56385(12) 0.51454(13)
O13_22 O 0.75010(12) 0.46082(13) 0.69390(12)
O14_22 O 0.70329(13) 0.45498(13) 0.73596(13)
C22_18 C 0.36884(16) 0.47920(18) 0.83463(16)
H15_18 H 0.391755 0.465395 0.836911
C23_18 C 0.34070(17) 0.48213(17) 0.86305(17)
H16_18 H 0.341916 0.471121 0.887505
C24_18 C 0.32373(15) 0.51238(15) 0.81437(15)
N22_18 N 0.35793(14) 0.49932(12) 0.80343(13)
N24_18 N 0.30178(12) 0.53941(13) 0.78989(13)
O15_18 O 0.31539(14) 0.54646(13) 0.75761(13)
O16_18 O 0.27209(12) 0.55315(13) 0.80239(13)
Zn5_20 Zn 0.750000 0.38328(3) 0.500000
N25_18 N 0.40949(14) 0.44769(13) 0.75028(12)
N26_18 N 0.60465(13) 0.44932(13) 0.74141(13)
N27_18 N 0.66145(14) 0.49063(14) 0.80055(14)
C10_19 C 0.63116(16) 0.02080(18) 0.83463(16)
H7_19 H 0.608245 0.034605 0.836911
C11_19 C 0.65930(17) 0.01787(17) 0.86305(17)
H8_19 H 0.658084 0.028879 0.887505
N10_19 N 0.64207(14) 0.00068(12) 0.80343(13)
C16_23 C 0.21202(18) 0.08835(17) 0.89495(17)
H11_23 H 0.195882 0.088638 0.873497
C17_23 C 0.21401(17) 0.11617(16) 0.92194(17)
H12_23 H 0.199766 0.138929 0.922348
C18_23 C 0.25268(15) 0.07047(16) 0.93632(15)
C19_23 C 0.32049(17) 0.03867(19) 0.85496(17)
H13_23 H 0.320740 0.055003 0.876271
C20_23 C 0.34860(17) 0.03676(19) 0.82698(18)
H14_23 H 0.370869 0.051740 0.826207
N16_23 N 0.23771(14) 0.05932(13) 0.90409(12)
N17_15 N 0.24141(13) 0.10465(13) 0.94932(13)
N18_23 N 0.28190(12) 0.04970(13) 0.95596(13)
N19_23 N 0.29257(14) 0.01304(14) 0.84648(12)
N20_15 N 0.33855(14) 0.00937(14) 0.80055(14)
O11_23 O 0.29097(13) 0.01801(13) 0.94260(13)
O12_23 O 0.29521(13) 0.06385(12) 0.98546(13)
C24_19 C 0.67627(15) 0.01238(15) 0.68563(15)
N24_19 N 0.69822(12) 0.03941(13) 0.71011(13)
O15_19 O 0.68461(14) 0.04646(13) 0.74239(13)
O16_19 O 0.72791(12) 0.05315(13) 0.69761(13)
Zn5_21 Zn 0.250000 0.88328(3) 0.000000
C12_19 C 0.67627(15) 0.98762(15) 0.81437(15)
N12_19 N 0.69822(12) 0.96059(13) 0.78989(13)
O7_19 O 0.68461(14) 0.95354(13) 0.75761(13)
O8_19 O 0.72791(12) 0.94685(13) 0.80239(13)
C13_23 C 0.27197(17) 0.89830(16) 0.91617(15)
H9_23 H 0.285969 0.875496 0.914011
C14_23 C 0.26934(17) 0.92646(17) 0.88870(16)
H10_23 H 0.281149 0.925549 0.864602
C15_23 C 0.23675(14) 0.94377(15) 0.93650(14)
C21_23 C 0.30454(16) 0.99845(15) 0.81335(15)
N13_15 N 0.25028(12) 0.90949(14) 0.94769(13)
N14_23 N 0.24663(13) 0.95645(14) 0.90183(13)
N15_23 N 0.21178(12) 0.96546(13) 0.96002(13)
N21_23 N 0.28231(12) 0.96996(13) 0.79294(12)
O9_23 O 0.20434(14) 0.95265(14) 0.99300(12)
O10_23 O 0.19888(13) 0.99593(12) 0.94784(13)
O13_23 O 0.24990(12) 0.96082(13) 0.80610(12)
O14_23 O 0.29671(13) 0.95498(13) 0.76404(13)
C22_19 C 0.63116(16) 0.97920(18) 0.66537(16)
H15_19 H 0.608245 0.965395 0.663089
C23_19 C 0.65930(17) 0.98213(17) 0.63695(17)
H16_19 H 0.658084 0.971121 0.612495
N22_19 N 0.64207(14) 0.99932(12) 0.69657(13)
Zn5_22 Zn 0.250000 0.88328(3) 1.000000
N25_19 N 0.59051(14) 0.94769(13) 0.74972(12)
N26_19 N 0.39535(13) 0.94932(13) 0.75859(13)
N27_19 N 0.33855(14) 0.99063(14) 0.69945(14)
C10_20 C 0.13116(16) 0.47920(18) 0.16537(16)
H7_20 H 0.108245 0.465395 0.163089
C11_20 C 0.15930(17) 0.48213(17) 0.13695(17)
H8_20 H 0.158084 0.471121 0.112495
C12_20 C 0.17627(15) 0.51238(15) 0.18563(15)
N10_20 N 0.14207(14) 0.49932(12) 0.19657(13)
N12_20 N 0.19822(12) 0.53941(13) 0.21011(13)
O7_20 O 0.18461(14) 0.54646(13) 0.24239(13)
O8_20 O 0.22791(12) 0.55315(13) 0.19761(13)
C22_20 C 0.13116(16) 0.52080(18) 0.33463(16)
H15_20 H 0.108245 0.534605 0.336911
C23_20 C 0.15930(17) 0.51787(17) 0.36305(17)
H16_20 H 0.158084 0.528879 0.387505
C24_20 C 0.17627(15) 0.48762(15) 0.31437(15)
N22_20 N 0.14207(14) 0.50068(12) 0.30343(13)
N24_20 N 0.19822(12) 0.46059(13) 0.28989(13)
O15_20 O 0.18461(14) 0.45354(13) 0.25761(13)
O16_20 O 0.22791(12) 0.44685(13) 0.30239(13)
N25_20 N 0.09051(14) 0.55231(13) 0.25028(12)
C13_24 C 0.77197(17) 0.60170(16) 0.08383(15)
H9_24 H 0.785969 0.624504 0.085989
C14_24 C 0.76934(17) 0.57354(17) 0.11130(16)
H10_24 H 0.781149 0.574451 0.135398
C15_24 C 0.73675(14) 0.55623(15) 0.06350(14)
C16_24 C 0.71202(18) 0.41165(17) 0.10505(17)
H11_24 H 0.695882 0.411362 0.126503
C17_24 C 0.71401(17) 0.38383(16) 0.07806(17)
H12_24 H 0.699766 0.361071 0.077652
C18_24 C 0.75268(15) 0.42953(16) 0.06368(15)
C19_24 C 0.82049(17) 0.46133(19) 0.14504(17)
H13_24 H 0.820740 0.444997 0.123729
C20_24 C 0.84860(17) 0.46324(19) 0.17302(18)
H14_24 H 0.870869 0.448260 0.173793
C21_24 C 0.80454(16) 0.50155(15) 0.18665(15)
N13_16 N 0.75028(12) 0.59051(14) 0.05231(13)
N14_24 N 0.74663(13) 0.54355(14) 0.09817(13)
N15_24 N 0.71178(12) 0.53454(13) 0.03998(13)
N16_24 N 0.73771(14) 0.44068(13) 0.09591(12)
N17_16 N 0.74141(13) 0.39535(13) 0.05068(13)
N18_24 N 0.78190(12) 0.45030(13) 0.04404(13)
N19_24 N 0.79257(14) 0.48696(14) 0.15352(12)
N20_16 N 0.83855(14) 0.49063(14) 0.19945(14)
N21_24 N 0.78231(12) 0.53004(13) 0.20706(12)
O9_24 O 0.70434(14) 0.54735(14) 0.00700(12)
O10_24 O 0.69888(13) 0.50407(12) 0.05216(13)
O11_24 O 0.79097(13) 0.48199(13) 0.05740(13)
O12_24 O 0.79521(13) 0.43615(12) 0.01454(13)
O13_24 O 0.74990(12) 0.53918(13) 0.19390(12)
O14_24 O 0.79671(13) 0.54502(13) 0.23596(13)
Zn5_23 Zn 0.750000 0.61672(3) -0.000000
N26_20 N 0.89535(13) 0.55068(13) 0.24141(13)
N27_20 N 0.83855(14) 0.50937(14) 0.30055(14)
Zn5_24 Zn 0.750000 0.61672(3) 1.000000
N26_21 N 0.25859(13) 0.10465(13) 0.05068(13)
N27_21 N 0.19945(14) 0.16145(14) 0.00937(14)
C12_21 C 0.31437(15) 0.82373(15) 0.01238(15)
N12_21 N 0.28989(13) 0.80178(12) 0.03941(13)
O7_21 O 0.25761(13) 0.81539(14) 0.04646(13)
O8_21 O 0.30239(13) 0.77209(12) 0.05315(13)
C22_21 C 0.16537(16) 0.86884(16) 0.02080(18)
H15_21 H 0.163089 0.891755 0.034605
C23_21 C 0.13695(17) 0.84070(17) 0.01787(17)
H16_21 H 0.112495 0.841916 0.028879
N22_21 N 0.19657(13) 0.85793(14) 0.00068(12)
N25_21 N 0.24972(12) 0.90949(14) 0.05231(13)
C10_21 C 0.33463(16) 0.86884(16) 0.97920(18)
H7_21 H 0.336911 0.891755 0.965395
C11_21 C 0.36305(17) 0.84070(17) 0.98213(17)
H8_21 H 0.387505 0.841916 0.971121
N10_21 N 0.30343(13) 0.85793(14) 0.99932(12)
C24_21 C 0.18563(15) 0.82373(15) 0.98762(15)
N24_21 N 0.21011(13) 0.80178(12) 0.96059(13)
O15_21 O 0.24239(13) 0.81539(14) 0.95354(13)
O16_21 O 0.19761(13) 0.77209(12) 0.94685(13)
C10_22 C 0.66537(16) 0.36884(16) 0.52080(18)
H7_22 H 0.663089 0.391755 0.534605
C11_22 C 0.63695(17) 0.34070(17) 0.51787(17)
H8_22 H 0.612495 0.341916 0.528879
C12_22 C 0.68563(15) 0.32373(15) 0.48762(15)
N10_22 N 0.69657(13) 0.35793(14) 0.50068(12)
N12_22 N 0.71011(13) 0.30178(12) 0.46059(13)
O7_22 O 0.74239(13) 0.31539(14) 0.45354(13)
O8_22 O 0.69761(13) 0.27209(12) 0.44685(13)
C22_22 C 0.83463(16) 0.36884(16) 0.47920(18)
H15_22 H 0.836911 0.391755 0.465395
C23_22 C 0.86305(17) 0.34070(17) 0.48213(17)
H16_22 H 0.887505 0.341916 0.471121
C24_22 C 0.81437(15) 0.32373(15) 0.51238(15)
N22_22 N 0.80343(13) 0.35793(14) 0.49932(12)
N24_22 N 0.78989(13) 0.30178(12) 0.53941(13)
O15_22 O 0.75761(13) 0.31539(14) 0.54646(13)
O16_22 O 0.80239(13) 0.27209(12) 0.55315(13)
N25_22 N 0.75028(12) 0.40949(14) 0.44769(13)
N26_22 N 0.74141(13) 0.60465(13) 0.44932(13)
N27_22 N 0.80055(14) 0.66145(14) 0.49063(14)
C10_23 C 0.83463(16) 0.63116(16) 0.02080(18)
H7_23 H 0.836911 0.608245 0.034605
C11_23 C 0.86305(17) 0.65930(17) 0.01787(17)
H8_23 H 0.887505 0.658084 0.028879
N10_23 N 0.80343(13) 0.64207(14) 0.00068(12)
C24_23 C 0.68563(15) 0.67627(15) 0.01238(15)
N24_23 N 0.71011(13) 0.69822(12) 0.03941(13)
O15_23 O 0.74239(13) 0.68461(14) 0.04646(13)
O16_23 O 0.69761(13) 0.72791(12) 0.05315(13)
C12_23 C 0.81437(15) 0.67627(15) 0.98762(15)
N12_23 N 0.78989(13) 0.69822(12) 0.96059(13)
O7_23 O 0.75761(13) 0.68461(14) 0.95354(13)
O8_23 O 0.80239(13) 0.72791(12) 0.94685(13)
C22_23 C 0.66537(16) 0.63116(16) 0.97920(18)
H15_23 H 0.663089 0.608245 0.965395
C23_23 C 0.63695(17) 0.65930(17) 0.98213(17)
H16_23 H 0.612495 0.658084 0.971121
N22_23 N 0.69657(13) 0.64207(14) 0.99932(12)
N25_23 N 0.74972(12) 0.59051(14) 0.94769(13)
N26_23 N 0.75859(13) 0.39535(13) 0.94932(13)
N27_23 N 0.69945(14) 0.33855(14) 0.99063(14)
C10_24 C 0.16537(16) 0.13116(16) 0.47920(18)
H7_24 H 0.163089 0.108245 0.465395
C11_24 C 0.13695(17) 0.15930(17) 0.48213(17)
H8_24 H 0.112495 0.158084 0.471121
C12_24 C 0.18563(15) 0.17627(15) 0.51238(15)
N10_24 N 0.19657(13) 0.14207(14) 0.49932(12)
N12_24 N 0.21011(13) 0.19822(12) 0.53941(13)
O7_24 O 0.24239(13) 0.18461(14) 0.54646(13)
O8_24 O 0.19761(13) 0.22791(12) 0.55315(13)
C22_24 C 0.33463(16) 0.13116(16) 0.52080(18)
H15_24 H 0.336911 0.108245 0.534605
C23_24 C 0.36305(17) 0.15930(17) 0.51787(17)
H16_24 H 0.387505 0.158084 0.528879
C24_24 C 0.31437(15) 0.17627(15) 0.48762(15)
N22_24 N 0.30343(13) 0.14207(14) 0.50068(12)
N24_24 N 0.28989(13) 0.19822(12) 0.46059(13)
O15_24 O 0.25761(13) 0.18461(14) 0.45354(13)
O16_24 O 0.30239(13) 0.22791(12) 0.44685(13)
N25_24 N 0.25028(12) 0.09051(14) 0.55231(13)
N26_24 N 0.24141(13) 0.89535(13) 0.55068(13)
N27_24 N 0.30055(14) 0.83855(14) 0.50937(14)
C1_13 C 0.41617(15) 0.77197(17) 0.39830(16)
H1_13 H 0.414011 0.785969 0.375496
C2_13 C 0.38870(16) 0.76934(17) 0.42646(17)
H2_13 H 0.364602 0.781149 0.425549
C3_13 C 0.43650(14) 0.73675(14) 0.44377(15)
C4_13 C 0.39495(17) 0.71202(18) 0.58835(17)
H3_13 H 0.373497 0.695882 0.588638
C5_13 C 0.42194(17) 0.71401(17) 0.61617(16)
H4_13 H 0.422348 0.699766 0.638929
C6_13 C 0.43632(15) 0.75268(15) 0.57047(16)
C7_13 C 0.35496(17) 0.82049(17) 0.53867(19)
H5_13 H 0.376271 0.820740 0.555003
C8_13 C 0.32698(18) 0.84860(17) 0.53676(19)
H6_13 H 0.326207 0.870869 0.551740
C9_13 C 0.31335(15) 0.80454(16) 0.49845(15)
N2_13 N 0.40183(13) 0.74663(13) 0.45645(14)
N3_13 N 0.46002(13) 0.71178(12) 0.46546(13)
N4_13 N 0.40409(12) 0.73771(14) 0.55932(13)
N6_13 N 0.45596(13) 0.78190(12) 0.54970(13)
N7_13 N 0.34648(12) 0.79257(14) 0.51304(14)
N9_13 N 0.29294(12) 0.78231(12) 0.46996(13)
O1_13 O 0.49300(12) 0.70434(14) 0.45265(14)
O2_13 O 0.44784(13) 0.69888(13) 0.49593(12)
O3_13 O 0.44260(13) 0.79097(13) 0.51801(13)
O4_13 O 0.48546(13) 0.79521(13) 0.56385(12)
O5_13 O 0.30610(12) 0.74990(12) 0.46082(13)
O6_13 O 0.26404(13) 0.79671(13) 0.45498(13)
C13_25 C 0.60170(16) 0.91617(15) 0.72803(17)
H9_25 H 0.624504 0.914011 0.714031
C14_25 C 0.57354(17) 0.88870(16) 0.73066(17)
H10_25 H 0.574451 0.864602 0.718851
C15_25 C 0.55623(15) 0.93650(14) 0.76325(14)
C16_25 C 0.41165(17) 0.89495(17) 0.78798(18)
H11_25 H 0.411362 0.873497 0.804118
C17_25 C 0.38383(16) 0.92194(17) 0.78599(17)
H12_25 H 0.361071 0.922348 0.800234
C18_25 C 0.42953(16) 0.93632(15) 0.74732(15)
C19_25 C 0.46133(19) 0.85496(17) 0.67951(17)
H13_25 H 0.444997 0.876271 0.679260
C20_25 C 0.46324(19) 0.82698(18) 0.65140(17)
H14_25 H 0.448260 0.826207 0.629131
C21_25 C 0.50155(15) 0.81335(15) 0.69546(16)
N14_25 N 0.54355(14) 0.90183(13) 0.75337(13)
N15_25 N 0.53454(13) 0.96002(13) 0.78822(12)
N16_25 N 0.44068(13) 0.90409(12) 0.76229(14)
N18_25 N 0.45030(13) 0.95596(13) 0.71810(12)
N19_25 N 0.48696(14) 0.84648(12) 0.70743(14)
N21_25 N 0.53004(13) 0.79294(12) 0.71769(12)
O9_25 O 0.54735(14) 0.99300(12) 0.79566(14)
O10_25 O 0.50407(12) 0.94784(13) 0.80112(13)
O11_25 O 0.48199(13) 0.94260(13) 0.70903(13)
O12_25 O 0.43615(12) 0.98546(13) 0.70479(13)
O13_25 O 0.53918(13) 0.80610(12) 0.75010(12)
O14_25 O 0.54502(13) 0.76404(13) 0.70329(13)
C4_14 C 0.10505(17) 0.28798(18) 0.08835(17)
H3_14 H 0.126503 0.304118 0.088638
C5_14 C 0.07806(17) 0.28599(17) 0.11617(16)
H4_14 H 0.077652 0.300234 0.138929
C6_14 C 0.06368(15) 0.24732(15) 0.07047(16)
C7_14 C 0.14504(17) 0.17951(17) 0.03867(19)
H5_14 H 0.123729 0.179260 0.055003
C8_14 C 0.17302(18) 0.15140(17) 0.03676(19)
H6_14 H 0.173793 0.129131 0.051740
N4_14 N 0.09591(12) 0.26229(14) 0.05932(13)
N6_14 N 0.04404(13) 0.21810(12) 0.04970(13)
N7_14 N 0.15352(12) 0.20743(14) 0.01304(14)
O3_14 O 0.05740(13) 0.20903(13) 0.01801(13)
O4_14 O 0.01454(13) 0.20479(13) 0.06385(12)
C16_26 C 0.08835(17) 0.10505(17) 0.28798(18)
H11_26 H 0.088638 0.126503 0.304118
C17_26 C 0.11617(16) 0.07806(17) 0.28599(17)
H12_26 H 0.138929 0.077652 0.300234
C18_26 C 0.07047(16) 0.06368(15) 0.24732(15)
C19_26 C 0.03867(19) 0.14504(17) 0.17951(17)
H13_26 H 0.055003 0.123729 0.179260
C20_26 C 0.03676(19) 0.17302(18) 0.15140(17)
H14_26 H 0.051740 0.173793 0.129131
N16_26 N 0.05932(13) 0.09591(12) 0.26229(14)
N18_26 N 0.04970(13) 0.04404(13) 0.21810(12)
N19_26 N 0.01304(14) 0.15352(12) 0.20743(14)
O11_26 O 0.01801(13) 0.05740(13) 0.20903(13)
O12_26 O 0.06385(12) 0.01454(13) 0.20479(13)
C1_14 C 0.08383(15) 0.22803(17) 0.89830(16)
H1_14 H 0.085989 0.214031 0.875496
C2_14 C 0.11130(16) 0.23066(17) 0.92646(17)
H2_14 H 0.135398 0.218851 0.925549
C3_14 C 0.06350(14) 0.26325(14) 0.94377(15)
C9_14 C 0.18665(15) 0.19546(16) 0.99845(15)
N2_14 N 0.09817(13) 0.25337(13) 0.95645(14)
N3_14 N 0.03998(13) 0.28822(12) 0.96546(13)
N9_14 N 0.20706(12) 0.21769(12) 0.96996(13)
O1_14 O 0.00700(12) 0.29566(14) 0.95265(14)
O2_14 O 0.05216(13) 0.30112(13) 0.99593(12)
O5_14 O 0.19390(12) 0.25010(12) 0.96082(13)
O6_14 O 0.23596(13) 0.20329(13) 0.95498(13)
C13_26 C 0.89830(16) 0.08383(15) 0.22803(17)
H9_26 H 0.875496 0.085989 0.214031
C14_26 C 0.92646(17) 0.11130(16) 0.23066(17)
H10_26 H 0.925549 0.135398 0.218851
C15_26 C 0.94377(15) 0.06350(14) 0.26325(14)
C21_26 C 0.99845(15) 0.18665(15) 0.19546(16)
N14_26 N 0.95645(14) 0.09817(13) 0.25337(13)
N15_26 N 0.96546(13) 0.03998(13) 0.28822(12)
N21_26 N 0.96996(13) 0.20706(12) 0.21769(12)
O9_26 O 0.95265(14) 0.00700(12) 0.29566(14)
O10_26 O 0.99593(12) 0.05216(13) 0.30112(13)
O13_26 O 0.96082(13) 0.19390(12) 0.25010(12)
O14_26 O 0.95498(13) 0.23596(13) 0.20329(13)
C1_15 C 0.58383(15) 0.27197(17) 0.10170(16)
H1_15 H 0.585989 0.285969 0.124504
C2_15 C 0.61130(16) 0.26934(17) 0.07354(17)
H2_15 H 0.635398 0.281149 0.074451
C3_15 C 0.56350(14) 0.23675(14) 0.05623(15)
C9_15 C 0.68665(15) 0.30454(16) 0.00155(15)
N2_15 N 0.59817(13) 0.24663(13) 0.04355(14)
N3_15 N 0.53998(13) 0.21178(12) 0.03454(13)
N9_15 N 0.70706(12) 0.28231(12) 0.03004(13)
O1_15 O 0.50700(12) 0.20434(14) 0.04735(14)
O2_15 O 0.55216(13) 0.19888(13) 0.00407(12)
O5_15 O 0.69390(12) 0.24990(12) 0.03918(13)
O6_15 O 0.73596(13) 0.29671(13) 0.04502(13)
C4_15 C 0.60505(17) 0.21202(18) 0.91165(17)
H3_15 H 0.626503 0.195882 0.911362
C5_15 C 0.57806(17) 0.21401(17) 0.88383(16)
H4_15 H 0.577652 0.199766 0.861071
C6_15 C 0.56368(15) 0.25268(15) 0.92953(16)
C7_15 C 0.64504(17) 0.32049(17) 0.96133(19)
H5_15 H 0.623729 0.320740 0.944997
C8_15 C 0.67302(18) 0.34860(17) 0.96324(19)
H6_15 H 0.673793 0.370869 0.948260
N4_15 N 0.59591(12) 0.23771(14) 0.94068(13)
N6_15 N 0.54404(13) 0.28190(12) 0.95030(13)
N7_15 N 0.65352(12) 0.29257(14) 0.98696(14)
O3_15 O 0.55740(13) 0.29097(13) 0.98199(13)
O4_15 O 0.51454(13) 0.29521(13) 0.93615(12)
C13_27 C 0.39830(16) 0.41617(15) 0.77197(17)
H9_27 H 0.375496 0.414011 0.785969
C14_27 C 0.42646(17) 0.38870(16) 0.76934(17)
H10_27 H 0.425549 0.364602 0.781149
C15_27 C 0.44377(15) 0.43650(14) 0.73675(14)
C16_27 C 0.58835(17) 0.39495(17) 0.71202(18)
H11_27 H 0.588638 0.373497 0.695882
C17_27 C 0.61617(16) 0.42194(17) 0.71401(17)
H12_27 H 0.638929 0.422348 0.699766
C18_27 C 0.57047(16) 0.43632(15) 0.75268(15)
C19_27 C 0.53867(19) 0.35496(17) 0.82049(17)
H13_27 H 0.555003 0.376271 0.820740
C20_27 C 0.53676(19) 0.32698(18) 0.84860(17)
H14_27 H 0.551740 0.326207 0.870869
C21_27 C 0.49845(15) 0.31335(15) 0.80454(16)
N14_27 N 0.45645(14) 0.40183(13) 0.74663(13)
N15_27 N 0.46546(13) 0.46002(13) 0.71178(12)
N16_27 N 0.55932(13) 0.40409(12) 0.73771(14)
N18_27 N 0.54970(13) 0.45596(13) 0.78190(12)
N19_27 N 0.51304(14) 0.34648(12) 0.79257(14)
N21_27 N 0.46996(13) 0.29294(12) 0.78231(12)
O9_27 O 0.45265(14) 0.49300(12) 0.70434(14)
O10_27 O 0.49593(12) 0.44784(13) 0.69888(13)
O11_27 O 0.51801(13) 0.44260(13) 0.79097(13)
O12_27 O 0.56385(12) 0.48546(13) 0.79521(13)
O13_27 O 0.46082(13) 0.30610(12) 0.74990(12)
O14_27 O 0.45498(13) 0.26404(13) 0.79671(13)
C13_28 C 0.10170(16) 0.58383(15) 0.27197(17)
H9_28 H 0.124504 0.585989 0.285969
C14_28 C 0.07354(17) 0.61130(16) 0.26934(17)
H10_28 H 0.074451 0.635398 0.281149
C15_28 C 0.05623(15) 0.56350(14) 0.23675(14)
C21_28 C 0.00155(15) 0.68665(15) 0.30454(16)
N14_28 N 0.04355(14) 0.59817(13) 0.24663(13)
N15_28 N 0.03454(13) 0.53998(13) 0.21178(12)
N21_28 N 0.03004(13) 0.70706(12) 0.28231(12)
O9_28 O 0.04735(14) 0.50700(12) 0.20434(14)
O10_28 O 0.00407(12) 0.55216(13) 0.19888(13)
O13_28 O 0.03918(13) 0.69390(12) 0.24990(12)
O14_28 O 0.04502(13) 0.73596(13) 0.29671(13)
C1_16 C 0.91617(15) 0.72803(17) 0.60170(16)
H1_16 H 0.914011 0.714031 0.624504
C2_16 C 0.88870(16) 0.73066(17) 0.57354(17)
H2_16 H 0.864602 0.718851 0.574451
C3_16 C 0.93650(14) 0.76325(14) 0.55623(15)
C4_16 C 0.89495(17) 0.78798(18) 0.41165(17)
H3_16 H 0.873497 0.804118 0.411362
C5_16 C 0.92194(17) 0.78599(17) 0.38383(16)
H4_16 H 0.922348 0.800234 0.361071
C6_16 C 0.93632(15) 0.74732(15) 0.42953(16)
C7_16 C 0.85496(17) 0.67951(17) 0.46133(19)
H5_16 H 0.876271 0.679260 0.444997
C8_16 C 0.82698(18) 0.65140(17) 0.46324(19)
H6_16 H 0.826207 0.629131 0.448260
C9_16 C 0.81335(15) 0.69546(16) 0.50155(15)
N2_16 N 0.90183(13) 0.75337(13) 0.54355(14)
N3_16 N 0.96002(13) 0.78822(12) 0.53454(13)
N4_16 N 0.90409(12) 0.76229(14) 0.44068(13)
N6_16 N 0.95596(13) 0.71810(12) 0.45030(13)
N7_16 N 0.84648(12) 0.70743(14) 0.48696(14)
N9_16 N 0.79294(12) 0.71769(12) 0.53004(13)
O1_16 O 0.99300(12) 0.79566(14) 0.54735(14)
O2_16 O 0.94784(13) 0.80112(13) 0.50407(12)
O3_16 O 0.94260(13) 0.70903(13) 0.48199(13)
O4_16 O 0.98546(13) 0.70479(13) 0.43615(12)
O5_16 O 0.80610(12) 0.75010(12) 0.53918(13)
O6_16 O 0.76404(13) 0.70329(13) 0.54502(13)
C16_28 C 0.91165(17) 0.60505(17) 0.21202(18)
H11_28 H 0.911362 0.626503 0.195882
C17_28 C 0.88383(16) 0.57806(17) 0.21401(17)
H12_28 H 0.861071 0.577652 0.199766
C18_28 C 0.92953(16) 0.56368(15) 0.25268(15)
C19_28 C 0.96133(19) 0.64504(17) 0.32049(17)
H13_28 H 0.944997 0.623729 0.320740
C20_28 C 0.96324(19) 0.67302(18) 0.34860(17)
H14_28 H 0.948260 0.673793 0.370869
N16_28 N 0.94068(13) 0.59591(12) 0.23771(14)
N18_28 N 0.95030(13) 0.54404(13) 0.28190(12)
N19_28 N 0.98696(14) 0.65352(12) 0.29257(14)
O11_28 O 0.98199(13) 0.55740(13) 0.29097(13)
O12_28 O 0.93615(12) 0.51454(13) 0.29521(13)
C13_29 C 0.72803(17) 0.60170(16) 0.91617(15)
H9_29 H 0.714031 0.624504 0.914011
C14_29 C 0.73066(17) 0.57354(17) 0.88870(16)
H10_29 H 0.718851 0.574451 0.864602
C15_29 C 0.76325(14) 0.55623(15) 0.93650(14)
C16_29 C 0.78798(18) 0.41165(17) 0.89495(17)
H11_29 H 0.804118 0.411362 0.873497
C17_29 C 0.78599(17) 0.38383(16) 0.92194(17)
H12_29 H 0.800234 0.361071 0.922348
C18_29 C 0.74732(15) 0.42953(16) 0.93632(15)
C19_29 C 0.67951(17) 0.46133(19) 0.85496(17)
H13_29 H 0.679260 0.444997 0.876271
C20_29 C 0.65140(17) 0.46324(19) 0.82698(18)
H14_29 H 0.629131 0.448260 0.826207
C21_29 C 0.69546(16) 0.50155(15) 0.81335(15)
N14_29 N 0.75337(13) 0.54355(14) 0.90183(13)
N15_29 N 0.78822(12) 0.53454(13) 0.96002(13)
N16_29 N 0.76229(14) 0.44068(13) 0.90409(12)
N18_29 N 0.71810(12) 0.45030(13) 0.95596(13)
N19_29 N 0.70743(14) 0.48696(14) 0.84648(12)
N21_29 N 0.71769(12) 0.53004(13) 0.79294(12)
O9_29 O 0.79566(14) 0.54735(14) 0.99300(12)
O10_29 O 0.80112(13) 0.50407(12) 0.94784(13)
O11_29 O 0.70903(13) 0.48199(13) 0.94260(13)
O12_29 O 0.70479(13) 0.43615(12) 0.98546(13)
O13_29 O 0.75010(12) 0.53918(13) 0.80610(12)
O14_29 O 0.70329(13) 0.54502(13) 0.76404(13)
C16_30 C 0.28798(18) 0.08835(17) 0.10505(17)
H11_30 H 0.304118 0.088638 0.126503
C17_30 C 0.28599(17) 0.11617(16) 0.07806(17)
H12_30 H 0.300234 0.138929 0.077652
C18_30 C 0.24732(15) 0.07047(16) 0.06368(15)
C19_30 C 0.17951(17) 0.03867(19) 0.14504(17)
H13_30 H 0.179260 0.055003 0.123729
C20_30 C 0.15140(17) 0.03676(19) 0.17302(18)
H14_30 H 0.129131 0.051740 0.173793
N16_30 N 0.26229(14) 0.05932(13) 0.09591(12)
N18_30 N 0.21810(12) 0.04970(13) 0.04404(13)
N19_30 N 0.20743(14) 0.01304(14) 0.15352(12)
O11_30 O 0.20903(13) 0.01801(13) 0.05740(13)
O12_30 O 0.20479(13) 0.06385(12) 0.01454(13)
C13_30 C 0.22803(17) 0.89830(16) 0.08383(15)
H9_30 H 0.214031 0.875496 0.085989
C14_30 C 0.23066(17) 0.92646(17) 0.11130(16)
H10_30 H 0.218851 0.925549 0.135398
C15_30 C 0.26325(14) 0.94377(15) 0.06350(14)
C21_30 C 0.19546(16) 0.99845(15) 0.18665(15)
N14_30 N 0.25337(13) 0.95645(14) 0.09817(13)
N15_30 N 0.28822(12) 0.96546(13) 0.03998(13)
N21_30 N 0.21769(12) 0.96996(13) 0.20706(12)
O9_30 O 0.29566(14) 0.95265(14) 0.00700(12)
O10_30 O 0.30112(13) 0.99593(12) 0.05216(13)
O13_30 O 0.25010(12) 0.96082(13) 0.19390(12)
O14_30 O 0.20329(13) 0.95498(13) 0.23596(13)
C13_31 C 0.77197(17) 0.39830(16) 0.41617(15)
H9_31 H 0.785969 0.375496 0.414011
C14_31 C 0.76934(17) 0.42646(17) 0.38870(16)
H10_31 H 0.781149 0.425549 0.364602
C15_31 C 0.73675(14) 0.44377(15) 0.43650(14)
C16_31 C 0.71202(18) 0.58835(17) 0.39495(17)
H11_31 H 0.695882 0.588638 0.373497
C17_31 C 0.71401(17) 0.61617(16) 0.42194(17)
H12_31 H 0.699766 0.638929 0.422348
C18_31 C 0.75268(15) 0.57047(16) 0.43632(15)
C19_31 C 0.82049(17) 0.53867(19) 0.35496(17)
H13_31 H 0.820740 0.555003 0.376271
C20_31 C 0.84860(17) 0.53676(19) 0.32698(18)
H14_31 H 0.870869 0.551740 0.326207
C21_31 C 0.80454(16) 0.49845(15) 0.31335(15)
N14_31 N 0.74663(13) 0.45645(14) 0.40183(13)
N15_31 N 0.71178(12) 0.46546(13) 0.46002(13)
N16_31 N 0.73771(14) 0.55932(13) 0.40409(12)
N18_31 N 0.78190(12) 0.54970(13) 0.45596(13)
N19_31 N 0.79257(14) 0.51304(14) 0.34648(12)
N21_31 N 0.78231(12) 0.46996(13) 0.29294(12)
O9_31 O 0.70434(14) 0.45265(14) 0.49300(12)
O10_31 O 0.69888(13) 0.49593(12) 0.44784(13)
O11_31 O 0.79097(13) 0.51801(13) 0.44260(13)
O12_31 O 0.79521(13) 0.56385(12) 0.48546(13)
O13_31 O 0.74990(12) 0.46082(13) 0.30610(12)
O14_31 O 0.79671(13) 0.45498(13) 0.26404(13)
C13_32 C 0.27197(17) 0.10170(16) 0.58383(15)
H9_32 H 0.285969 0.124504 0.585989
C14_32 C 0.26934(17) 0.07354(17) 0.61130(16)
H10_32 H 0.281149 0.074451 0.635398
C15_32 C 0.23675(14) 0.05623(15) 0.56350(14)
C21_32 C 0.30454(16) 0.00155(15) 0.68665(15)
N14_32 N 0.24663(13) 0.04355(14) 0.59817(13)
N15_32 N 0.21178(12) 0.03454(13) 0.53998(13)
N21_32 N 0.28231(12) 0.03004(13) 0.70706(12)
O9_32 O 0.20434(14) 0.04735(14) 0.50700(12)
O10_32 O 0.19888(13) 0.00407(12) 0.55216(13)
O13_32 O 0.24990(12) 0.03918(13) 0.69390(12)
O14_32 O 0.29671(13) 0.04502(13) 0.73596(13)
C16_32 C 0.21202(18) 0.91165(17) 0.60505(17)
H11_32 H 0.195882 0.911362 0.626503
C17_32 C 0.21401(17) 0.88383(16) 0.57806(17)
H12_32 H 0.199766 0.861071 0.577652
C18_32 C 0.25268(15) 0.92953(16) 0.56368(15)
C19_32 C 0.32049(17) 0.96133(19) 0.64504(17)
H13_32 H 0.320740 0.944997 0.623729
C20_32 C 0.34860(17) 0.96324(19) 0.67302(18)
H14_32 H 0.370869 0.948260 0.673793
N16_32 N 0.23771(14) 0.94068(13) 0.59591(12)
N18_32 N 0.28190(12) 0.95030(13) 0.54404(13)
N19_32 N 0.29257(14) 0.98696(14) 0.65352(12)
O11_32 O 0.29097(13) 0.98199(13) 0.55740(13)
O12_32 O 0.29521(13) 0.93615(12) 0.51454(13)
loop_
_geom_bond_atom_site_label_1
_geom_bond_atom_site_label_2
_geom_bond_site_symmetry_1
_geom_bond_site_symmetry_2
Zn1 N1 1_555 1_555
C1 H1 1_555 1_555
C2 C1 1_555 1_555
H2 C2 1_555 1_555
C3 N1 1_555 1_555
C10 H7 1_555 1_555
C11 C10 1_555 1_555
H8 C11 1_555 1_555
N1 C1 1_555 1_555
N2 C2 1_555 1_555
N3 C3 1_555 1_555
N9 C9 1_555 1_555
N10 Zn1 1_555 1_555
O1 N3 1_555 1_555
O2 N3 1_555 1_555
O5 N9 1_555 1_555
O6 N9 1_555 1_555
N24 C24 1_555 1_555
O15 N24 1_555 1_555
O16 N24 1_555 1_555
Zn8 N23 1_555 1_555
C3 N2 1_555 1_555
C10 N10 1_555 1_555
C24 N23 1_555 1_555
Zn2 N5 1_555 1_555
C4 H3 1_555 1_555
C5 C4 1_555 1_555
H4 C5 1_555 1_555
C6 N4 1_555 1_555
C7 H5 1_555 1_555
C8 C7 1_555 1_555
H6 C8 1_555 1_555
N4 Zn3 1_555 1_555
N5 C5 1_555 1_555
N6 C6 1_555 1_555
N7 Zn3 1_555 1_555
N8 C8 1_555 1_555
O3 N6 1_555 1_555
O4 N6 1_555 1_555
C16 H11 1_555 1_555
C17 C16 1_555 1_555
H12 C17 1_555 1_555
C18 N16 1_555 1_555
C19 H13 1_555 1_555
C20 C19 1_555 1_555
H14 C20 1_555 1_555
N16 Zn4 1_555 1_555
N17 C17 1_555 1_555
N18 C18 1_555 1_555
N19 Zn4 1_555 1_555
N20 Zn2 1_555 1_555
O11 N18 1_555 1_555
O12 N18 1_555 1_555
Zn6 N17 1_555 1_555
Zn7_2 N8 1_555 1_555
N28 Zn4 1_555 1_555
N29 Zn3 1_555 1_555
C4 N4 1_555 1_555
C6 N5 1_555 1_555
C7 N7 1_555 1_555
C16 N16 1_555 1_555
C18 N17 1_555 1_555
C19 N19 1_555 1_555
C20 N20 1_555 1_555
N12 C12 1_555 1_555
O7 N12 1_555 1_555
O8 N12 1_555 1_555
C22 H15 1_555 1_555
C23 C22 1_555 1_555
H16 C23 1_555 1_555
N22 Zn1_2 1_555 1_555
Zn9 N11 1_555 1_555
N25 Zn1_2 1_555 1_555
C12 N11 1_555 1_555
C22 N22 1_555 1_555
C13 H9 1_555 1_555
C14 C13 1_555 1_555
H10 C14 1_555 1_555
C15 N13 1_555 1_555
N13 C13 1_555 1_555
N14 C14 1_555 1_555
N15 C15 1_555 1_555
N21 C21 1_555 1_555
O9 N15 1_555 1_555
O10 N15 1_555 1_555
O13 N21 1_555 1_555
O14 N21 1_555 1_555
Zn5 N13 1_555 1_555
N26 Zn2_2 1_555 1_555
N27 Zn2_2 1_555 1_555
C15 N14 1_555 1_555
Zn1_3 N1_2 1_555 1_555
Zn2_3 N5_2 1_555 1_555
Zn3_2 N2_2 1_555 1_555
C1_2 H1_2 1_555 1_555
C2_2 C1_2 1_555 1_555
H2_2 C2_2 1_555 1_555
C3_2 N1_2 1_555 1_555
C4_2 H3_2 1_555 1_555
C5_2 C4_2 1_555 1_555
H4_2 C5_2 1_555 1_555
C6_2 N4_2 1_555 1_555
C7_2 H5_2 1_555 1_555
C8_2 C7_2 1_555 1_555
H6_2 C8_2 1_555 1_555
C9_2 N7_2 1_555 1_555
C10_2 H7_2 1_555 1_555
C11_2 C10_2 1_555 1_555
H8_2 C11_2 1_555 1_555
C12_2 N10_2 1_555 1_555
N1_2 C1_2 1_555 1_555
N2_2 C2_2 1_555 1_555
N3_2 C3_2 1_555 1_555
N4_2 Zn3_2 1_555 1_555
N5_2 C5_2 1_555 1_555
N6_2 C6_2 1_555 1_555
N7_2 Zn3_2 1_555 1_555
N8_2 C8_2 1_555 1_555
N9_2 C9_2 1_555 1_555
N10_2 Zn1_3 1_555 1_555
N11_2 C11_2 1_555 1_555
N12_2 C12_2 1_555 1_555
O1_2 N3_2 1_555 1_555
O2_2 N3_2 1_555 1_555
O3_2 N6_2 1_555 1_555
O4_2 N6_2 1_555 1_555
O5_2 N9_2 1_555 1_555
O6_2 N9_2 1_555 1_555
O7_2 N12_2 1_555 1_555
O8_2 N12_2 1_555 1_555
Zn4_2 N14_2 1_555 1_555
C13_2 H9_2 1_555 1_555
C14_2 C13_2 1_555 1_555
H10_2 C14_2 1_555 1_555
C15_2 N13_2 1_555 1_555
C16_2 H11_2 1_555 1_555
C17_2 C16_2 1_555 1_555
H12_2 C17_2 1_555 1_555
C18_2 N16_2 1_555 1_555
C19_2 H13_2 1_555 1_555
C20_2 C19_2 1_555 1_555
H14_2 C20_2 1_555 1_555
C21_2 N19_2 1_555 1_555
N13_2 C13_2 1_555 1_555
N14_2 C14_2 1_555 1_555
N15_2 C15_2 1_555 1_555
N16_2 Zn4_2 1_555 1_555
N17_2 C17_2 1_555 1_555
N18_2 C18_2 1_555 1_555
N19_2 Zn4_2 1_555 1_555
N20_2 Zn2_3 1_555 1_555
N21_2 C21_2 1_555 1_555
O9_2 N15_2 1_555 1_555
O10_2 N15_2 1_555 1_555
O11_2 N18_2 1_555 1_555
O12_2 N18_2 1_555 1_555
O13_2 N21_2 1_555 1_555
O14_2 N21_2 1_555 1_555
C22_2 H15_2 1_555 1_555
C23_2 C22_2 1_555 1_555
H16_2 C23_2 1_555 1_555
C24_2 N22_2 1_555 1_555
N22_2 Zn1_3 1_555 1_555
N23_2 C23_2 1_555 1_555
N24_2 C24_2 1_555 1_555
O15_2 N24_2 1_555 1_555
O16_2 N24_2 1_555 1_555
Zn5_2 N13_2 1_555 1_555
Zn6_2 N17_2 1_555 1_555
Zn7_3 N8_2 1_555 1_555
Zn8_2 N23_2 1_555 1_555
Zn9_2 N11_2 1_555 1_555
N25_2 Zn1_3 1_555 1_555
N26_2 Zn2_3 1_555 1_555
N27_2 Zn2_3 1_555 1_555
N28_2 Zn4_2 1_555 1_555
N29_2 Zn3_2 1_555 1_555
C3_2 N2_2 1_555 1_555
C4_2 N4_2 1_555 1_555
C6_2 N5_2 1_555 1_555
C7_2 N7_2 1_555 1_555
C9_2 N8_2 1_555 1_555
C10_2 N10_2 1_555 1_555
C12_2 N11_2 1_555 1_555
C15_2 N14_2 1_555 1_555
C16_2 N16_2 1_555 1_555
C18_2 N17_2 1_555 1_555
C19_2 N19_2 1_555 1_555
C20_2 N20_2 1_555 1_555
C21_2 N20_2 1_555 1_555
C22_2 N22_2 1_555 1_555
C24_2 N23_2 1_555 1_555
N12_3 C12_3 1_555 1_555
O7_3 N12_3 1_555 1_555
O8_3 N12_3 1_555 1_555
C13_3 H9_3 1_555 1_555
C14_3 C13_3 1_555 1_555
H10_3 C14_3 1_555 1_555
C15_3 N13_3 1_555 1_555
N13_3 C13_3 1_555 1_555
N14_3 C14_3 1_555 1_555
N15_3 C15_3 1_555 1_555
N21_3 C21_3 1_555 1_555
O9_3 N15_3 1_555 1_555
O10_3 N15_3 1_555 1_555
O13_3 N21_3 1_555 1_555
O14_3 N21_3 1_555 1_555
C22_3 H15_3 1_555 1_555
C23_3 C22_3 1_555 1_555
H16_3 C23_3 1_555 1_555
N22_3 Zn1_4 1_555 1_555
Zn5_3 N13_3 1_555 1_555
Zn9_3 N11_3 1_555 1_555
N25_3 Zn1_4 1_555 1_555
N26_3 Zn2_4 1_555 1_555
N27_3 Zn2_4 1_555 1_555
C12_3 N11_3 1_555 1_555
C15_3 N14_3 1_555 1_555
C22_3 N22_3 1_555 1_555
Zn1_5 N1_3 1_555 1_555
Zn2_5 N5_3 1_555 1_555
Zn3_3 N2_3 1_555 1_555
C1_3 H1_3 1_555 1_555
C2_3 C1_3 1_555 1_555
H2_3 C2_3 1_555 1_555
C3_3 N1_3 1_555 1_555
C4_3 H3_3 1_555 1_555
C5_3 C4_3 1_555 1_555
H4_3 C5_3 1_555 1_555
C6_3 N4_3 1_555 1_555
C7_3 H5_3 1_555 1_555
C8_3 C7_3 1_555 1_555
H6_3 C8_3 1_555 1_555
C9_3 N7_3 1_555 1_555
C10_3 H7_3 1_555 1_555
C11_3 C10_3 1_555 1_555
H8_3 C11_3 1_555 1_555
N1_3 C1_3 1_555 1_555
N2_3 C2_3 1_555 1_555
N3_3 C3_3 1_555 1_555
N4_3 Zn3_3 1_555 1_555
N5_3 C5_3 1_555 1_555
N6_3 C6_3 1_555 1_555
N7_3 Zn3_3 1_555 1_555
N8_3 C8_3 1_555 1_555
N9_3 C9_3 1_555 1_555
N10_3 Zn1_5 1_555 1_555
O1_3 N3_3 1_555 1_555
O2_3 N3_3 1_555 1_555
O3_3 N6_3 1_555 1_555
O4_3 N6_3 1_555 1_555
O5_3 N9_3 1_555 1_555
O6_3 N9_3 1_555 1_555
C16_3 H11_3 1_555 1_555
C17_3 C16_3 1_555 1_555
H12_3 C17_3 1_555 1_555
C18_3 N16_3 1_555 1_555
C19_3 H13_3 1_555 1_555
C20_3 C19_3 1_555 1_555
H14_3 C20_3 1_555 1_555
N16_3 Zn4_3 1_555 1_555
N17_3 C17_3 1_555 1_555
N18_3 C18_3 1_555 1_555
N19_3 Zn4_3 1_555 1_555
N20_3 Zn2_5 1_555 1_555
O11_3 N18_3 1_555 1_555
O12_3 N18_3 1_555 1_555
N24_3 C24_3 1_555 1_555
O15_3 N24_3 1_555 1_555
O16_3 N24_3 1_555 1_555
Zn6_3 N17_3 1_555 1_555
Zn7_4 N8_3 1_555 1_555
Zn8_3 N23_3 1_555 1_555
N28_3 Zn4_3 1_555 1_555
N29_3 Zn3_3 1_555 1_555
C3_3 N2_3 1_555 1_555
C4_3 N4_3 1_555 1_555
C6_3 N5_3 1_555 1_555
C7_3 N7_3 1_555 1_555
C9_3 N8_3 1_555 1_555
C10_3 N10_3 1_555 1_555
C16_3 N16_3 1_555 1_555
C18_3 N17_3 1_555 1_555
C19_3 N19_3 1_555 1_555
C20_3 N20_3 1_555 1_555
C24_3 N23_3 1_555 1_555
Zn2_6 N5_4 1_555 1_555
C4_4 H3_4 1_555 1_555
C5_4 C4_4 1_555 1_555
H4_4 C5_4 1_555 1_555
C6_4 N4_4 1_555 1_555
C7_4 H5_4 1_555 1_555
C8_4 C7_4 1_555 1_555
H6_4 C8_4 1_555 1_555
N4_4 Zn3_4 1_555 1_555
N5_4 C5_4 1_555 1_555
N6_4 C6_4 1_555 1_555
N7_4 Zn3_4 1_555 1_555
N8_4 C8_4 1_555 1_555
O3_4 N6_4 1_555 1_555
O4_4 N6_4 1_555 1_555
Zn4_4 N14_4 1_555 1_555
C13_4 H9_4 1_555 1_555
C14_4 C13_4 1_555 1_555
H10_4 C14_4 1_555 1_555
C15_4 N13_4 1_555 1_555
C16_4 H11_4 1_555 1_555
C17_4 C16_4 1_555 1_555
H12_4 C17_4 1_555 1_555
C18_4 N16_4 1_555 1_555
C19_4 H13_4 1_555 1_555
C20_4 C19_4 1_555 1_555
H14_4 C20_4 1_555 1_555
C21_4 N19_4 1_555 1_555
N13_4 C13_4 1_555 1_555
N14_4 C14_4 1_555 1_555
N15_4 C15_4 1_555 1_555
N16_4 Zn4_4 1_555 1_555
N17_4 C17_4 1_555 1_555
N18_4 C18_4 1_555 1_555
N19_4 Zn4_4 1_555 1_555
N20_4 Zn2_6 1_555 1_555
N21_4 C21_4 1_555 1_555
O9_4 N15_4 1_555 1_555
O10_4 N15_4 1_555 1_555
O11_4 N18_4 1_555 1_555
O12_4 N18_4 1_555 1_555
O13_4 N21_4 1_555 1_555
O14_4 N21_4 1_555 1_555
Zn5_6 N13_4 1_555 1_555
Zn6_6 N17_4 1_555 1_555
Zn7_5 N8_4 1_555 1_555
N26_4 Zn2_6 1_555 1_555
N27_4 Zn2_6 1_555 1_555
N28_4 Zn4_4 1_555 1_555
N29_4 Zn3_4 1_555 1_555
C4_4 N4_4 1_555 1_555
C6_4 N5_4 1_555 1_555
C7_4 N7_4 1_555 1_555
C15_4 N14_4 1_555 1_555
C16_4 N16_4 1_555 1_555
C18_4 N17_4 1_555 1_555
C19_4 N19_4 1_555 1_555
C20_4 N20_4 1_555 1_555
C21_4 N20_4 1_555 1_555
Zn1_6 N1_4 1_555 1_555
C1_4 H1_4 1_555 1_555
C2_4 C1_4 1_555 1_555
H2_4 C2_4 1_555 1_555
C3_4 N1_4 1_555 1_555
C10_4 H7_4 1_555 1_555
C11_4 C10_4 1_555 1_555
H8_4 C11_4 1_555 1_555
C12_4 N10_4 1_555 1_555
N1_4 C1_4 1_555 1_555
N2_4 C2_4 1_555 1_555
N3_4 C3_4 1_555 1_555
N9_4 C9_4 1_555 1_555
N10_4 Zn1_6 1_555 1_555
N11_4 C11_4 1_555 1_555
N12_4 C12_4 1_555 1_555
O1_4 N3_4 1_555 1_555
O2_4 N3_4 1_555 1_555
O5_4 N9_4 1_555 1_555
O6_4 N9_4 1_555 1_555
O7_4 N12_4 1_555 1_555
O8_4 N12_4 1_555 1_555
C22_4 H15_4 1_555 1_555
C23_4 C22_4 1_555 1_555
H16_4 C23_4 1_555 1_555
C24_4 N22_4 1_555 1_555
N22_4 Zn1_6 1_555 1_555
N23_4 C23_4 1_555 1_555
N24_4 C24_4 1_555 1_555
O15_4 N24_4 1_555 1_555
O16_4 N24_4 1_555 1_555
Zn8_4 N23_4 1_555 1_555
Zn9_4 N11_4 1_555 1_555
N25_4 Zn1_6 1_555 1_555
C3_4 N2_4 1_555 1_555
C10_4 N10_4 1_555 1_555
C12_4 N11_4 1_555 1_555
C22_4 N22_4 1_555 1_555
C24_4 N23_4 1_555 1_555
C10_5 H7_5 1_555 1_555
C11_5 C10_5 1_555 1_555
H8_5 C11_5 1_555 1_555
N10_5 Zn5_3 1_555 1_555
N24_5 C24_5 1_555 1_555
O15_5 N24_5 1_555 1_555
O16_5 N24_5 1_555 1_555
Zn8_5 N23_5 1_555 1_555
C10_5 N10_5 1_555 1_555
C24_5 N23_5 1_555 1_555
N12_5 C12_5 1_555 1_555
O7_5 N12_5 1_555 1_555
O8_5 N12_5 1_555 1_555
C22_5 H15_5 1_555 1_555
C23_5 C22_5 1_555 1_555
H16_5 C23_5 1_555 1_555
N22_5 Zn5_4 1_555 1_555
Zn9_5 N11_5 1_555 1_555
N25_5 Zn5_4 1_555 1_555
C12_5 N11_5 1_555 1_555
C22_5 N22_5 1_555 1_555
C16_5 H11_5 1_555 1_555
C17_5 C16_5 1_555 1_555
H12_5 C17_5 1_555 1_555
C18_5 N16_5 1_555 1_555
C19_5 H13_5 1_555 1_555
C20_5 C19_5 1_555 1_555
H14_5 C20_5 1_555 1_555
N16_5 Zn4_5 1_555 1_555
N17_5 C17_5 1_555 1_555
N18_5 C18_5 1_555 1_555
N19_5 Zn4_5 1_555 1_555
N20_5 Zn6_3 1_555 1_555
O11_5 N18_5 1_555 1_555
O12_5 N18_5 1_555 1_555
Zn7_4 N17_5 1_555 1_555
N28_5 Zn4_5 1_555 1_555
C16_5 N16_5 1_555 1_555
C18_5 N17_5 1_555 1_555
C19_5 N19_5 1_555 1_555
C20_5 N20_5 1_555 1_555
C13_5 H9_5 1_555 1_555
C14_5 C13_5 1_555 1_555
H10_5 C14_5 1_555 1_555
C15_5 N13_5 1_555 1_555
N13_5 C13_5 1_555 1_555
N14_5 C14_5 1_555 1_555
N15_5 C15_5 1_555 1_555
N21_5 C21_5 1_555 1_555
O9_5 N15_5 1_555 1_555
O10_5 N15_5 1_555 1_555
O13_5 N21_5 1_555 1_555
O14_5 N21_5 1_555 1_555
Zn5_7 N13_5 1_555 1_555
N26_5 Zn6_4 1_555 1_555
N27_5 Zn6_4 1_555 1_555
C15_5 N14_5 1_555 1_555
C10_6 H7_6 1_555 1_555
C11_6 C10_6 1_555 1_555
H8_6 C11_6 1_555 1_555
C12_6 N10_6 1_555 1_555
N10_6 Zn5_2 1_555 1_555
N11_6 C11_6 1_555 1_555
N12_6 C12_6 1_555 1_555
O7_6 N12_6 1_555 1_555
O8_6 N12_6 1_555 1_555
Zn4_6 N14_6 1_555 1_555
C13_6 H9_6 1_555 1_555
C14_6 C13_6 1_555 1_555
H10_6 C14_6 1_555 1_555
C15_6 N13_6 1_555 1_555
C16_6 H11_6 1_555 1_555
C17_6 C16_6 1_555 1_555
H12_6 C17_6 1_555 1_555
C18_6 N16_6 1_555 1_555
C19_6 H13_6 1_555 1_555
C20_6 C19_6 1_555 1_555
H14_6 C20_6 1_555 1_555
C21_6 N19_6 1_555 1_555
N13_6 C13_6 1_555 1_555
N14_6 C14_6 1_555 1_555
N15_6 C15_6 1_555 1_555
N16_6 Zn4_6 1_555 1_555
N17_6 C17_6 1_555 1_555
N18_6 C18_6 1_555 1_555
N19_6 Zn4_6 1_555 1_555
N20_6 Zn6_2 1_555 1_555
N21_6 C21_6 1_555 1_555
O9_6 N15_6 1_555 1_555
O10_6 N15_6 1_555 1_555
O11_6 N18_6 1_555 1_555
O12_6 N18_6 1_555 1_555
O13_6 N21_6 1_555 1_555
O14_6 N21_6 1_555 1_555
C22_6 H15_6 1_555 1_555
C23_6 C22_6 1_555 1_555
H16_6 C23_6 1_555 1_555
C24_6 N22_6 1_555 1_555
N22_6 Zn5_2 1_555 1_555
N23_6 C23_6 1_555 1_555
N24_6 C24_6 1_555 1_555
O15_6 N24_6 1_555 1_555
O16_6 N24_6 1_555 1_555
Zn5_8 N13_6 1_555 1_555
Zn7_3 N17_6 1_555 1_555
Zn8_6 N23_6 1_555 1_555
Zn9_6 N11_6 1_555 1_555
N25_6 Zn5_2 1_555 1_555
N26_6 Zn6_2 1_555 1_555
N27_6 Zn6_2 1_555 1_555
N28_6 Zn4_6 1_555 1_555
C10_6 N10_6 1_555 1_555
C12_6 N11_6 1_555 1_555
C15_6 N14_6 1_555 1_555
C16_6 N16_6 1_555 1_555
C18_6 N17_6 1_555 1_555
C19_6 N19_6 1_555 1_555
C20_6 N20_6 1_555 1_555
C21_6 N20_6 1_555 1_555
C22_6 N22_6 1_555 1_555
C24_6 N23_6 1_555 1_555
N12_7 C12_7 1_555 1_555
O7_7 N12_7 1_555 1_555
O8_7 N12_7 1_555 1_555
C13_7 H9_7 1_555 1_555
C14_7 C13_7 1_555 1_555
H10_7 C14_7 1_555 1_555
C15_7 N13_7 1_555 1_555
N13_7 C13_7 1_555 1_555
N14_7 C14_7 1_555 1_555
N15_7 C15_7 1_555 1_555
N21_7 C21_7 1_555 1_555
O9_7 N15_7 1_555 1_555
O10_7 N15_7 1_555 1_555
O13_7 N21_7 1_555 1_555
O14_7 N21_7 1_555 1_555
C22_7 H15_7 1_555 1_555
C23_7 C22_7 1_555 1_555
H16_7 C23_7 1_555 1_555
N22_7 Zn5_5 1_555 1_555
Zn5_9 N13_7 1_555 1_555
Zn9_7 N11_7 1_555 1_555
N25_7 Zn5_5 1_555 1_555
N26_7 Zn6_5 1_555 1_555
N27_7 Zn6_5 1_555 1_555
C12_7 N11_7 1_555 1_555
C15_7 N14_7 1_555 1_555
C22_7 N22_7 1_555 1_555
C10_7 H7_7 1_555 1_555
C11_7 C10_7 1_555 1_555
H8_7 C11_7 1_555 1_555
N10_7 Zn5_6 1_555 1_555
C16_7 H11_7 1_555 1_555
C17_7 C16_7 1_555 1_555
H12_7 C17_7 1_555 1_555
C18_7 N16_7 1_555 1_555
C19_7 H13_7 1_555 1_555
C20_7 C19_7 1_555 1_555
H14_7 C20_7 1_555 1_555
N16_7 Zn4_7 1_555 1_555
N17_7 C17_7 1_555 1_555
N18_7 C18_7 1_555 1_555
N19_7 Zn4_7 1_555 1_555
N20_7 Zn6_6 1_555 1_555
O11_7 N18_7 1_555 1_555
O12_7 N18_7 1_555 1_555
N24_7 C24_7 1_555 1_555
O15_7 N24_7 1_555 1_555
O16_7 N24_7 1_555 1_555
Zn7_5 N17_7 1_555 1_555
Zn8_7 N23_7 1_555 1_555
N28_7 Zn4_7 1_555 1_555
C10_7 N10_7 1_555 1_555
C16_7 N16_7 1_555 1_555
C18_7 N17_7 1_555 1_555
C19_7 N19_7 1_555 1_555
C20_7 N20_7 1_555 1_555
C24_7 N23_7 1_555 1_555
Zn4_8 N14_8 1_555 1_555
C13_8 H9_8 1_555 1_555
C14_8 C13_8 1_555 1_555
H10_8 C14_8 1_555 1_555
C15_8 N13_8 1_555 1_555
C16_8 H11_8 1_555 1_555
C17_8 C16_8 1_555 1_555
H12_8 C17_8 1_555 1_555
C18_8 N16_8 1_555 1_555
C19_8 H13_8 1_555 1_555
C20_8 C19_8 1_555 1_555
H14_8 C20_8 1_555 1_555
C21_8 N19_8 1_555 1_555
N13_8 C13_8 1_555 1_555
N14_8 C14_8 1_555 1_555
N15_8 C15_8 1_555 1_555
N16_8 Zn4_8 1_555 1_555
N17_8 C17_8 1_555 1_555
N18_8 C18_8 1_555 1_555
N19_8 Zn4_8 1_555 1_555
N20_8 Zn6 1_555 1_555
N21_8 C21_8 1_555 1_555
O9_8 N15_8 1_555 1_555
O10_8 N15_8 1_555 1_555
O11_8 N18_8 1_555 1_555
O12_8 N18_8 1_555 1_555
O13_8 N21_8 1_555 1_555
O14_8 N21_8 1_555 1_555
Zn5_12 N13_8 1_555 1_555
Zn7_2 N17_8 1_555 1_555
N26_8 Zn6 1_555 1_555
N27_8 Zn6 1_555 1_555
N28_8 Zn4_8 1_555 1_555
C15_8 N14_8 1_555 1_555
C16_8 N16_8 1_555 1_555
C18_8 N17_8 1_555 1_555
C19_8 N19_8 1_555 1_555
C20_8 N20_8 1_555 1_555
C21_8 N20_8 1_555 1_555
C10_8 H7_8 1_555 1_555
C11_8 C10_8 1_555 1_555
H8_8 C11_8 1_555 1_555
C12_8 N10_8 1_555 1_555
N10_8 Zn5 1_555 1_555
N11_8 C11_8 1_555 1_555
N12_8 C12_8 1_555 1_555
O7_8 N12_8 1_555 1_555
O8_8 N12_8 1_555 1_555
C22_8 H15_8 1_555 1_555
C23_8 C22_8 1_555 1_555
H16_8 C23_8 1_555 1_555
C24_8 N22_8 1_555 1_555
N22_8 Zn5 1_555 1_555
N23_8 C23_8 1_555 1_555
N24_8 C24_8 1_555 1_555
O15_8 N24_8 1_555 1_555
O16_8 N24_8 1_555 1_555
Zn8_8 N23_8 1_555 1_555
Zn9_8 N11_8 1_555 1_555
N25_8 Zn5 1_555 1_555
C10_8 N10_8 1_555 1_555
C12_8 N11_8 1_555 1_555
C22_8 N22_8 1_555 1_555
C24_8 N23_8 1_555 1_555
C10_9 H7_9 1_555 1_555
C11_9 C10_9 1_555 1_555
H8_9 C11_9 1_555 1_555
N10_9 Zn5_9 1_555 1_555
N24_9 C24_9 1_555 1_555
O15_9 N24_9 1_555 1_555
O16_9 N24_9 1_555 1_555
Zn8_9 N23_9 1_555 1_555
C10_9 N10_9 1_555 1_555
C24_9 N23_9 1_555 1_555
N12_9 C12_9 1_555 1_555
O7_9 N12_9 1_555 1_555
O8_9 N12_9 1_555 1_555
C22_9 H15_9 1_555 1_555
C23_9 C22_9 1_555 1_555
H16_9 C23_9 1_555 1_555
N22_9 Zn5_10 1_555 1_555
Zn9_9 N11_9 1_555 1_555
N25_9 Zn5_10 1_555 1_555
C12_9 N11_9 1_555 1_555
C22_9 N22_9 1_555 1_555
N26_9 Zn7_6 1_555 1_555
N27_9 Zn7_6 1_555 1_555
C10_10 H7_10 1_555 1_555
C11_10 C10_10 1_555 1_555
H8_10 C11_10 1_555 1_555
C12_10 N10_10 1_555 1_555
N10_10 Zn5_8 1_555 1_555
N11_10 C11_10 1_555 1_555
N12_10 C12_10 1_555 1_555
O7_10 N12_10 1_555 1_555
O8_10 N12_10 1_555 1_555
C22_10 H15_10 1_555 1_555
C23_10 C22_10 1_555 1_555
H16_10 C23_10 1_555 1_555
C24_10 N22_10 1_555 1_555
N22_10 Zn5_8 1_555 1_555
N23_10 C23_10 1_555 1_555
N24_10 C24_10 1_555 1_555
O15_10 N24_10 1_555 1_555
O16_10 N24_10 1_555 1_555
Zn8_10 N23_10 1_555 1_555
Zn9_10 N11_10 1_555 1_555
N25_10 Zn5_8 1_555 1_555
N26_10 Zn7_3 1_555 1_555
N27_10 Zn7_3 1_555 1_555
C10_10 N10_10 1_555 1_555
C12_10 N11_10 1_555 1_555
C22_10 N22_10 1_555 1_555
C24_10 N23_10 1_555 1_555
N12_11 C12_11 1_555 1_555
O7_11 N12_11 1_555 1_555
O8_11 N12_11 1_555 1_555
C22_11 H15_11 1_555 1_555
C23_11 C22_11 1_555 1_555
H16_11 C23_11 1_555 1_555
N22_11 Zn5_11 1_555 1_555
Zn9_11 N11_11 1_555 1_555
N25_11 Zn5_11 1_555 1_555
N26_11 Zn7 1_555 1_555
N27_11 Zn7 1_555 1_555
C12_11 N11_11 1_555 1_555
C22_11 N22_11 1_555 1_555
C10_11 H7_11 1_555 1_555
C11_11 C10_11 1_555 1_555
H8_11 C11_11 1_555 1_555
N10_11 Zn5_12 1_555 1_555
N24_11 C24_11 1_555 1_555
O15_11 N24_11 1_555 1_555
O16_11 N24_11 1_555 1_555
Zn8_11 N23_11 1_555 1_555
C10_11 N10_11 1_555 1_555
C24_11 N23_11 1_555 1_555
N26_12 Zn7_4 1_555 1_555
N27_12 Zn7_4 1_555 1_555
C10_12 H7_12 1_555 1_555
C11_12 C10_12 1_555 1_555
H8_12 C11_12 1_555 1_555
C12_12 N10_12 1_555 1_555
N10_12 Zn5_7 1_555 1_555
N11_12 C11_12 1_555 1_555
N12_12 C12_12 1_555 1_555
O7_12 N12_12 1_555 1_555
O8_12 N12_12 1_555 1_555
C22_12 H15_12 1_555 1_555
C23_12 C22_12 1_555 1_555
H16_12 C23_12 1_555 1_555
C24_12 N22_12 1_555 1_555
N22_12 Zn5_7 1_555 1_555
N23_12 C23_12 1_555 1_555
N24_12 C24_12 1_555 1_555
O15_12 N24_12 1_555 1_555
O16_12 N24_12 1_555 1_555
Zn8_12 N23_12 1_555 1_555
Zn9_12 N11_12 1_555 1_555
N25_12 Zn5_7 1_555 1_555
C10_12 N10_12 1_555 1_555
C12_12 N11_12 1_555 1_555
C22_12 N22_12 1_555 1_555
C24_12 N23_12 1_555 1_555
Zn3_5 N2_5 1_555 1_555
C1_5 H1_5 1_555 1_555
C2_5 C1_5 1_555 1_555
H2_5 C2_5 1_555 1_555
C3_5 N25_2 1_555 1_555
C4_5 H3_5 1_555 1_555
C5_5 C4_5 1_555 1_555
H4_5 C5_5 1_555 1_555
C6_5 N4_5 1_555 1_555
C7_5 H5_5 1_555 1_555
C8_5 C7_5 1_555 1_555
H6_5 C8_5 1_555 1_555
C9_5 N7_5 1_555 1_555
N25_2 C1_5 1_555 1_555
N2_5 C2_5 1_555 1_555
N3_5 C3_5 1_555 1_555
N4_5 Zn3_5 1_555 1_555
N26_2 C5_5 1_555 1_555
N6_5 C6_5 1_555 1_555
N7_5 Zn3_5 1_555 1_555
N27_12 C8_5 1_555 1_555
N9_5 C9_5 1_555 1_555
O1_5 N3_5 1_555 1_555
O2_5 N3_5 1_555 1_555
O3_5 N6_5 1_555 1_555
O4_5 N6_5 1_555 1_555
O5_5 N9_5 1_555 1_555
O6_5 N9_5 1_555 1_555
Zn4_9 N14_9 1_555 1_555
C13_9 H9_9 1_555 1_555
C14_9 C13_9 1_555 1_555
H10_9 C14_9 1_555 1_555
C15_9 N25_7 1_555 1_555
C16_9 H11_9 1_555 1_555
C17_9 C16_9 1_555 1_555
H12_9 C17_9 1_555 1_555
C18_9 N16_9 1_555 1_555
C19_9 H13_9 1_555 1_555
C20_9 C19_9 1_555 1_555
H14_9 C20_9 1_555 1_555
C21_9 N19_9 1_555 1_555
N25_7 C13_9 1_555 1_555
N14_9 C14_9 1_555 1_555
N15_9 C15_9 1_555 1_555
N16_9 Zn4_9 1_555 1_555
N26_7 C17_9 1_555 1_555
N18_9 C18_9 1_555 1_555
N19_9 Zn4_9 1_555 1_555
N21_9 C21_9 1_555 1_555
O9_9 N15_9 1_555 1_555
O10_9 N15_9 1_555 1_555
O11_9 N18_9 1_555 1_555
O12_9 N18_9 1_555 1_555
O13_9 N21_9 1_555 1_555
O14_9 N21_9 1_555 1_555
N28_9 Zn4_9 1_555 1_555
N29_5 Zn3_5 1_555 1_555
C3_5 N2_5 1_555 1_555
C4_5 N4_5 1_555 1_555
C6_5 N26_2 1_555 1_555
C7_5 N7_5 1_555 1_555
C9_5 N27_12 1_555 1_555
C15_9 N14_9 1_555 1_555
C16_9 N16_9 1_555 1_555
C18_9 N26_7 1_555 1_555
C19_9 N19_9 1_555 1_555
C20_9 N27_2 1_555 1_555
C21_9 N27_2 1_555 1_555
C13_10 H9_10 1_555 1_555
C14_10 C13_10 1_555 1_555
H10_10 C14_10 1_555 1_555
C15_10 N25_5 1_555 1_555
N25_5 C13_10 1_555 1_555
N14_10 C14_10 1_555 1_555
N15_10 C15_10 1_555 1_555
N21_10 C21_10 1_555 1_555
O9_10 N15_10 1_555 1_555
O10_10 N15_10 1_555 1_555
O13_10 N21_10 1_555 1_555
O14_10 N21_10 1_555 1_555
C15_10 N14_10 1_555 1_555
C1_6 H1_6 1_555 1_555
C2_6 C1_6 1_555 1_555
H2_6 C2_6 1_555 1_555
C3_6 N25 1_555 1_555
N25 C1_6 1_555 1_555
N2_6 C2_6 1_555 1_555
N3_6 C3_6 1_555 1_555
N9_6 C9_6 1_555 1_555
O1_6 N3_6 1_555 1_555
O2_6 N3_6 1_555 1_555
O5_6 N9_6 1_555 1_555
O6_6 N9_6 1_555 1_555
C3_6 N2_6 1_555 1_555
C4_6 H3_6 1_555 1_555
C5_6 C4_6 1_555 1_555
H4_6 C5_6 1_555 1_555
C6_6 N4_6 1_555 1_555
C7_6 H5_6 1_555 1_555
C8_6 C7_6 1_555 1_555
H6_6 C8_6 1_555 1_555
N4_6 Zn3_6 1_555 1_555
N26 C5_6 1_555 1_555
N6_6 C6_6 1_555 1_555
N7_6 Zn3_6 1_555 1_555
N27_9 C8_6 1_555 1_555
O3_6 N6_6 1_555 1_555
O4_6 N6_6 1_555 1_555
C16_10 H11_10 1_555 1_555
C17_10 C16_10 1_555 1_555
H12_10 C17_10 1_555 1_555
C18_10 N16_10 1_555 1_555
C19_10 H13_10 1_555 1_555
C20_10 C19_10 1_555 1_555
H14_10 C20_10 1_555 1_555
N16_10 Zn4_10 1_555 1_555
N26_5 C17_10 1_555 1_555
N18_10 C18_10 1_555 1_555
N19_10 Zn4_10 1_555 1_555
O11_10 N18_10 1_555 1_555
O12_10 N18_10 1_555 1_555
N28_10 Zn4_10 1_555 1_555
N29_6 Zn3_6 1_555 1_555
C4_6 N4_6 1_555 1_555
C6_6 N26 1_555 1_555
C7_6 N7_6 1_555 1_555
C16_10 N16_10 1_555 1_555
C18_10 N26_5 1_555 1_555
C19_10 N19_10 1_555 1_555
C20_10 N27 1_555 1_555
C4_7 H3_7 1_555 1_555
C5_7 C4_7 1_555 1_555
H4_7 C5_7 1_555 1_555
C6_7 N4_7 1_555 1_555
C7_7 H5_7 1_555 1_555
C8_7 C7_7 1_555 1_555
H6_7 C8_7 1_555 1_555
N4_7 Zn3_7 1_555 1_555
N26_4 C5_7 1_555 1_555
N6_7 C6_7 1_555 1_555
N7_7 Zn3_7 1_555 1_555
N27_11 C8_7 1_555 1_555
O3_7 N6_7 1_555 1_555
O4_7 N6_7 1_555 1_555
Zn4_11 N14_11 1_555 1_555
C13_11 H9_11 1_555 1_555
C14_11 C13_11 1_555 1_555
H10_11 C14_11 1_555 1_555
C15_11 N25_6 1_555 1_555
C16_11 H11_11 1_555 1_555
C17_11 C16_11 1_555 1_555
H12_11 C17_11 1_555 1_555
C18_11 N16_11 1_555 1_555
C19_11 H13_11 1_555 1_555
C20_11 C19_11 1_555 1_555
H14_11 C20_11 1_555 1_555
C21_11 N19_11 1_555 1_555
N25_6 C13_11 1_555 1_555
N14_11 C14_11 1_555 1_555
N15_11 C15_11 1_555 1_555
N16_11 Zn4_11 1_555 1_555
N26_6 C17_11 1_555 1_555
N18_11 C18_11 1_555 1_555
N19_11 Zn4_11 1_555 1_555
N21_11 C21_11 1_555 1_555
O9_11 N15_11 1_555 1_555
O10_11 N15_11 1_555 1_555
O11_11 N18_11 1_555 1_555
O12_11 N18_11 1_555 1_555
O13_11 N21_11 1_555 1_555
O14_11 N21_11 1_555 1_555
N28_11 Zn4_11 1_555 1_555
N29_7 Zn3_7 1_555 1_555
C4_7 N4_7 1_555 1_555
C6_7 N26_4 1_555 1_555
C7_7 N7_7 1_555 1_555
C15_11 N14_11 1_555 1_555
C16_11 N16_11 1_555 1_555
C18_11 N26_6 1_555 1_555
C19_11 N19_11 1_555 1_555
C20_11 N27_4 1_555 1_555
C21_11 N27_4 1_555 1_555
C1_7 H1_7 1_555 1_555
C2_7 C1_7 1_555 1_555
H2_7 C2_7 1_555 1_555
C3_7 N25_4 1_555 1_555
N25_4 C1_7 1_555 1_555
N2_7 C2_7 1_555 1_555
N3_7 C3_7 1_555 1_555
N9_7 C9_7 1_555 1_555
O1_7 N3_7 1_555 1_555
O2_7 N3_7 1_555 1_555
O5_7 N9_7 1_555 1_555
O6_7 N9_7 1_555 1_555
C3_7 N2_7 1_555 1_555
Zn3_8 N2_8 1_555 1_555
C1_8 H1_8 1_555 1_555
C2_8 C1_8 1_555 1_555
H2_8 C2_8 1_555 1_555
C3_8 N25_3 1_555 1_555
C4_8 H3_8 1_555 1_555
C5_8 C4_8 1_555 1_555
H4_8 C5_8 1_555 1_555
C6_8 N4_8 1_555 1_555
C7_8 H5_8 1_555 1_555
C8_8 C7_8 1_555 1_555
H6_8 C8_8 1_555 1_555
C9_8 N7_8 1_555 1_555
N25_3 C1_8 1_555 1_555
N2_8 C2_8 1_555 1_555
N3_8 C3_8 1_555 1_555
N4_8 Zn3_8 1_555 1_555
N26_3 C5_8 1_555 1_555
N6_8 C6_8 1_555 1_555
N7_8 Zn3_8 1_555 1_555
N27_10 C8_8 1_555 1_555
N9_8 C9_8 1_555 1_555
O1_8 N3_8 1_555 1_555
O2_8 N3_8 1_555 1_555
O3_8 N6_8 1_555 1_555
O4_8 N6_8 1_555 1_555
O5_8 N9_8 1_555 1_555
O6_8 N9_8 1_555 1_555
C16_12 H11_12 1_555 1_555
C17_12 C16_12 1_555 1_555
H12_12 C17_12 1_555 1_555
C18_12 N16_12 1_555 1_555
C19_12 H13_12 1_555 1_555
C20_12 C19_12 1_555 1_555
H14_12 C20_12 1_555 1_555
N16_12 Zn4_12 1_555 1_555
N26_8 C17_12 1_555 1_555
N18_12 C18_12 1_555 1_555
N19_12 Zn4_12 1_555 1_555
O11_12 N18_12 1_555 1_555
O12_12 N18_12 1_555 1_555
N28_12 Zn4_12 1_555 1_555
N29_8 Zn3_8 1_555 1_555
C3_8 N2_8 1_555 1_555
C4_8 N4_8 1_555 1_555
C6_8 N26_3 1_555 1_555
C7_8 N7_8 1_555 1_555
C9_8 N27_10 1_555 1_555
C16_12 N16_12 1_555 1_555
C18_12 N26_8 1_555 1_555
C19_12 N19_12 1_555 1_555
C20_12 N27_3 1_555 1_555
C13_12 H9_12 1_555 1_555
C14_12 C13_12 1_555 1_555
H10_12 C14_12 1_555 1_555
C15_12 N25_8 1_555 1_555
N25_8 C13_12 1_555 1_555
N14_12 C14_12 1_555 1_555
N15_12 C15_12 1_555 1_555
N21_12 C21_12 1_555 1_555
O9_12 N15_12 1_555 1_555
O10_12 N15_12 1_555 1_555
O13_12 N21_12 1_555 1_555
O14_12 N21_12 1_555 1_555
C15_12 N14_12 1_555 1_555
Zn4_13 N14_13 1_555 1_555
C13_13 H9_13 1_555 1_555
C14_13 C13_13 1_555 1_555
H10_13 C14_13 1_555 1_555
C15_13 N25_11 1_555 1_555
C16_13 H11_13 1_555 1_555
C17_13 C16_13 1_555 1_555
H12_13 C17_13 1_555 1_555
C18_13 N16_13 1_555 1_555
C19_13 H13_13 1_555 1_555
C20_13 C19_13 1_555 1_555
H14_13 C20_13 1_555 1_555
C21_13 N19_13 1_555 1_555
N25_11 C13_13 1_555 1_555
N14_13 C14_13 1_555 1_555
N15_13 C15_13 1_555 1_555
N16_13 Zn4_13 1_555 1_555
N26_11 C17_13 1_555 1_555
N18_13 C18_13 1_555 1_555
N19_13 Zn4_13 1_555 1_555
N21_13 C21_13 1_555 1_555
O9_13 N15_13 1_555 1_555
O10_13 N15_13 1_555 1_555
O11_13 N18_13 1_555 1_555
O12_13 N18_13 1_555 1_555
O13_13 N21_13 1_555 1_555
O14_13 N21_13 1_555 1_555
N28_13 Zn4_13 1_555 1_555
C15_13 N14_13 1_555 1_555
C16_13 N16_13 1_555 1_555
C18_13 N26_11 1_555 1_555
C19_13 N19_13 1_555 1_555
C20_13 N27_6 1_555 1_555
C21_13 N27_6 1_555 1_555
C13_14 H9_14 1_555 1_555
C14_14 C13_14 1_555 1_555
H10_14 C14_14 1_555 1_555
C15_14 N25_9 1_555 1_555
N25_9 C13_14 1_555 1_555
N14_14 C14_14 1_555 1_555
N15_14 C15_14 1_555 1_555
N21_14 C21_14 1_555 1_555
O9_14 N15_14 1_555 1_555
O10_14 N15_14 1_555 1_555
O13_14 N21_14 1_555 1_555
O14_14 N21_14 1_555 1_555
C15_14 N14_14 1_555 1_555
C16_14 H11_14 1_555 1_555
C17_14 C16_14 1_555 1_555
H12_14 C17_14 1_555 1_555
C18_14 N16_14 1_555 1_555
C19_14 H13_14 1_555 1_555
C20_14 C19_14 1_555 1_555
H14_14 C20_14 1_555 1_555
N16_14 Zn4_14 1_555 1_555
N26_9 C17_14 1_555 1_555
N18_14 C18_14 1_555 1_555
N19_14 Zn4_14 1_555 1_555
O11_14 N18_14 1_555 1_555
O12_14 N18_14 1_555 1_555
N28_14 Zn4_14 1_555 1_555
C16_14 N16_14 1_555 1_555
C18_14 N26_9 1_555 1_555
C19_14 N19_14 1_555 1_555
C20_14 N27_5 1_555 1_555
Zn4_15 N14_15 1_555 1_555
C13_15 H9_15 1_555 1_555
C14_15 C13_15 1_555 1_555
H10_15 C14_15 1_555 1_555
C15_15 N25_10 1_555 1_555
C16_15 H11_15 1_555 1_555
C17_15 C16_15 1_555 1_555
H12_15 C17_15 1_555 1_555
C18_15 N16_15 1_555 1_555
C19_15 H13_15 1_555 1_555
C20_15 C19_15 1_555 1_555
H14_15 C20_15 1_555 1_555
C21_15 N19_15 1_555 1_555
N25_10 C13_15 1_555 1_555
N14_15 C14_15 1_555 1_555
N15_15 C15_15 1_555 1_555
N16_15 Zn4_15 1_555 1_555
N26_10 C17_15 1_555 1_555
N18_15 C18_15 1_555 1_555
N19_15 Zn4_15 1_555 1_555
N21_15 C21_15 1_555 1_555
O9_15 N15_15 1_555 1_555
O10_15 N15_15 1_555 1_555
O11_15 N18_15 1_555 1_555
O12_15 N18_15 1_555 1_555
O13_15 N21_15 1_555 1_555
O14_15 N21_15 1_555 1_555
N28_15 Zn4_15 1_555 1_555
C15_15 N14_15 1_555 1_555
C16_15 N16_15 1_555 1_555
C18_15 N26_10 1_555 1_555
C19_15 N19_15 1_555 1_555
C20_15 N27_8 1_555 1_555
C21_15 N27_8 1_555 1_555
C16_16 H11_16 1_555 1_555
C17_16 C16_16 1_555 1_555
H12_16 C17_16 1_555 1_555
C18_16 N16_16 1_555 1_555
C19_16 H13_16 1_555 1_555
C20_16 C19_16 1_555 1_555
H14_16 C20_16 1_555 1_555
N16_16 Zn4_16 1_555 1_555
N26_12 C17_16 1_555 1_555
N18_16 C18_16 1_555 1_555
N19_16 Zn4_16 1_555 1_555
O11_16 N18_16 1_555 1_555
O12_16 N18_16 1_555 1_555
N28_16 Zn4_16 1_555 1_555
C16_16 N16_16 1_555 1_555
C18_16 N26_12 1_555 1_555
C19_16 N19_16 1_555 1_555
C20_16 N27_7 1_555 1_555
C13_16 H9_16 1_555 1_555
C14_16 C13_16 1_555 1_555
H10_16 C14_16 1_555 1_555
C15_16 N25_12 1_555 1_555
N25_12 C13_16 1_555 1_555
N14_16 C14_16 1_555 1_555
N15_16 C15_16 1_555 1_555
N21_16 C21_16 1_555 1_555
O9_16 N15_16 1_555 1_555
O10_16 N15_16 1_555 1_555
O13_16 N21_16 1_555 1_555
O14_16 N21_16 1_555 1_555
C15_16 N14_16 1_555 1_555
C13_17 H9_17 1_555 1_555
C14_17 C13_17 1_555 1_555
H10_17 C14_17 1_555 1_555
C15_17 N13_9 1_555 1_555
N13_9 C13_17 1_555 1_555
N14_17 C14_17 1_555 1_555
N15_17 C15_17 1_555 1_555
N21_17 C21_17 1_555 1_555
O9_17 N15_17 1_555 1_555
O10_17 N15_17 1_555 1_555
O13_17 N21_17 1_555 1_555
O14_17 N21_17 1_555 1_555
Zn5_13 N13_9 1_555 1_555
N26_13 Zn2_7 1_555 1_555
N27_13 Zn2_7 1_555 1_555
C15_17 N14_17 1_555 1_555
N12_13 C12_13 1_555 1_555
O7_13 N12_13 1_555 1_555
O8_13 N12_13 1_555 1_555
C22_13 H15_13 1_555 1_555
C23_13 C22_13 1_555 1_555
H16_13 C23_13 1_555 1_555
N22_13 Zn1_7 1_555 1_555
N25_13 Zn1_7 1_555 1_555
C12_13 N28_12 1_555 1_555
C22_13 N22_13 1_555 1_555
Zn2_8 N5_5 1_555 1_555
C4_9 H3_9 1_555 1_555
C5_9 C4_9 1_555 1_555
H4_9 C5_9 1_555 1_555
C6_9 N4_9 1_555 1_555
C7_9 H5_9 1_555 1_555
C8_9 C7_9 1_555 1_555
H6_9 C8_9 1_555 1_555
N4_9 Zn8_9 1_555 1_555
N5_5 C5_9 1_555 1_555
N6_9 C6_9 1_555 1_555
N7_9 Zn8_9 1_555 1_555
N8_5 C8_9 1_555 1_555
O3_9 N6_9 1_555 1_555
O4_9 N6_9 1_555 1_555
C16_17 H11_17 1_555 1_555
C17_17 C16_17 1_555 1_555
H12_17 C17_17 1_555 1_555
C18_17 N16_17 1_555 1_555
C19_17 H13_17 1_555 1_555
C20_17 C19_17 1_555 1_555
H14_17 C20_17 1_555 1_555
N16_17 Zn8_3 1_555 1_555
N17_9 C17_17 1_555 1_555
N18_17 C18_17 1_555 1_555
N19_17 Zn8_3 1_555 1_555
N20_9 Zn2_8 1_555 1_555
O11_17 N18_17 1_555 1_555
O12_17 N18_17 1_555 1_555
Zn6_7 N17_9 1_555 1_555
Zn7_7 N8_5 1_555 1_555
C4_9 N4_9 1_555 1_555
C6_9 N5_5 1_555 1_555
C7_9 N7_9 1_555 1_555
C16_17 N16_17 1_555 1_555
C18_17 N17_9 1_555 1_555
C19_17 N19_17 1_555 1_555
C20_17 N20_9 1_555 1_555
Zn1_8 N1_5 1_555 1_555
C1_9 H1_9 1_555 1_555
C2_9 C1_9 1_555 1_555
H2_9 C2_9 1_555 1_555
C3_9 N1_5 1_555 1_555
C10_13 H7_13 1_555 1_555
C11_13 C10_13 1_555 1_555
H8_13 C11_13 1_555 1_555
N1_5 C1_9 1_555 1_555
N2_9 C2_9 1_555 1_555
N3_9 C3_9 1_555 1_555
N9_9 C9_9 1_555 1_555
N10_13 Zn1_8 1_555 1_555
O1_9 N3_9 1_555 1_555
O2_9 N3_9 1_555 1_555
O5_9 N9_9 1_555 1_555
O6_9 N9_9 1_555 1_555
N24_13 C24_13 1_555 1_555
O15_13 N24_13 1_555 1_555
O16_13 N24_13 1_555 1_555
C3_9 N2_9 1_555 1_555
C10_13 N10_13 1_555 1_555
C24_13 N28_3 1_555 1_555
Zn1_9 N1_6 1_555 1_555
Zn2_9 N5_6 1_555 1_555
Zn8_12 N2_10 1_555 1_555
C1_10 H1_10 1_555 1_555
C2_10 C1_10 1_555 1_555
H2_10 C2_10 1_555 1_555
C3_10 N1_6 1_555 1_555
C4_10 H3_10 1_555 1_555
C5_10 C4_10 1_555 1_555
H4_10 C5_10 1_555 1_555
C6_10 N4_10 1_555 1_555
C7_10 H5_10 1_555 1_555
C8_10 C7_10 1_555 1_555
H6_10 C8_10 1_555 1_555
C9_10 N7_10 1_555 1_555
C10_14 H7_14 1_555 1_555
C11_14 C10_14 1_555 1_555
H8_14 C11_14 1_555 1_555
C12_14 N10_14 1_555 1_555
N1_6 C1_10 1_555 1_555
N2_10 C2_10 1_555 1_555
N3_10 C3_10 1_555 1_555
N4_10 Zn8_12 1_555 1_555
N5_6 C5_10 1_555 1_555
N6_10 C6_10 1_555 1_555
N7_10 Zn8_12 1_555 1_555
N8_6 C8_10 1_555 1_555
N9_10 C9_10 1_555 1_555
N10_14 Zn1_9 1_555 1_555
N28_11 C11_14 1_555 1_555
N12_14 C12_14 1_555 1_555
O1_10 N3_10 1_555 1_555
O2_10 N3_10 1_555 1_555
O3_10 N6_10 1_555 1_555
O4_10 N6_10 1_555 1_555
O5_10 N9_10 1_555 1_555
O6_10 N9_10 1_555 1_555
O7_14 N12_14 1_555 1_555
O8_14 N12_14 1_555 1_555
Zn8_4 N14_18 1_555 1_555
C13_18 H9_18 1_555 1_555
C14_18 C13_18 1_555 1_555
H10_18 C14_18 1_555 1_555
C15_18 N13_10 1_555 1_555
C16_18 H11_18 1_555 1_555
C17_18 C16_18 1_555 1_555
H12_18 C17_18 1_555 1_555
C18_18 N16_18 1_555 1_555
C19_18 H13_18 1_555 1_555
C20_18 C19_18 1_555 1_555
H14_18 C20_18 1_555 1_555
C21_18 N19_18 1_555 1_555
N13_10 C13_18 1_555 1_555
N14_18 C14_18 1_555 1_555
N15_18 C15_18 1_555 1_555
N16_18 Zn8_4 1_555 1_555
N17_10 C17_18 1_555 1_555
N18_18 C18_18 1_555 1_555
N19_18 Zn8_4 1_555 1_555
N20_10 Zn2_9 1_555 1_555
N21_18 C21_18 1_555 1_555
O9_18 N15_18 1_555 1_555
O10_18 N15_18 1_555 1_555
O11_18 N18_18 1_555 1_555
O12_18 N18_18 1_555 1_555
O13_18 N21_18 1_555 1_555
O14_18 N21_18 1_555 1_555
C22_14 H15_14 1_555 1_555
C23_14 C22_14 1_555 1_555
H16_14 C23_14 1_555 1_555
C24_14 N22_14 1_555 1_555
N22_14 Zn1_9 1_555 1_555
N28_4 C23_14 1_555 1_555
N24_14 C24_14 1_555 1_555
O15_14 N24_14 1_555 1_555
O16_14 N24_14 1_555 1_555
Zn5_14 N13_10 1_555 1_555
Zn6_8 N17_10 1_555 1_555
Zn7_9 N8_6 1_555 1_555
N25_14 Zn1_9 1_555 1_555
N26_14 Zn2_9 1_555 1_555
N27_14 Zn2_9 1_555 1_555
C3_10 N2_10 1_555 1_555
C4_10 N4_10 1_555 1_555
C6_10 N5_6 1_555 1_555
C7_10 N7_10 1_555 1_555
C9_10 N8_6 1_555 1_555
C10_14 N10_14 1_555 1_555
C12_14 N28_11 1_555 1_555
C15_18 N14_18 1_555 1_555
C16_18 N16_18 1_555 1_555
C18_18 N17_10 1_555 1_555
C19_18 N19_18 1_555 1_555
C20_18 N20_10 1_555 1_555
C21_18 N20_10 1_555 1_555
C22_14 N22_14 1_555 1_555
C24_14 N28_4 1_555 1_555
Zn1_10 N1_7 1_555 1_555
Zn2_10 N5_7 1_555 1_555
Zn8_10 N2_11 1_555 1_555
C1_11 H1_11 1_555 1_555
C2_11 C1_11 1_555 1_555
H2_11 C2_11 1_555 1_555
C3_11 N1_7 1_555 1_555
C4_11 H3_11 1_555 1_555
C5_11 C4_11 1_555 1_555
H4_11 C5_11 1_555 1_555
C6_11 N4_11 1_555 1_555
C7_11 H5_11 1_555 1_555
C8_11 C7_11 1_555 1_555
H6_11 C8_11 1_555 1_555
C9_11 N7_11 1_555 1_555
C10_15 H7_15 1_555 1_555
C11_15 C10_15 1_555 1_555
H8_15 C11_15 1_555 1_555
N1_7 C1_11 1_555 1_555
N2_11 C2_11 1_555 1_555
N3_11 C3_11 1_555 1_555
N4_11 Zn8_10 1_555 1_555
N5_7 C5_11 1_555 1_555
N6_11 C6_11 1_555 1_555
N7_11 Zn8_10 1_555 1_555
N8_7 C8_11 1_555 1_555
N9_11 C9_11 1_555 1_555
N10_15 Zn1_10 1_555 1_555
O1_11 N3_11 1_555 1_555
O2_11 N3_11 1_555 1_555
O3_11 N6_11 1_555 1_555
O4_11 N6_11 1_555 1_555
O5_11 N9_11 1_555 1_555
O6_11 N9_11 1_555 1_555
C16_19 H11_19 1_555 1_555
C17_19 C16_19 1_555 1_555
H12_19 C17_19 1_555 1_555
C18_19 N16_19 1_555 1_555
C19_19 H13_19 1_555 1_555
C20_19 C19_19 1_555 1_555
H14_19 C20_19 1_555 1_555
N16_19 Zn8 1_555 1_555
N17_11 C17_19 1_555 1_555
N18_19 C18_19 1_555 1_555
N19_19 Zn8 1_555 1_555
N20_11 Zn2_10 1_555 1_555
O11_19 N18_19 1_555 1_555
O12_19 N18_19 1_555 1_555
N24_15 C24_15 1_555 1_555
O15_15 N24_15 1_555 1_555
O16_15 N24_15 1_555 1_555
Zn6_10 N17_11 1_555 1_555
Zn7_10 N8_7 1_555 1_555
C3_11 N2_11 1_555 1_555
C4_11 N4_11 1_555 1_555
C6_11 N5_7 1_555 1_555
C7_11 N7_11 1_555 1_555
C9_11 N8_7 1_555 1_555
C10_15 N10_15 1_555 1_555
C16_19 N16_19 1_555 1_555
C18_19 N17_11 1_555 1_555
C19_19 N19_19 1_555 1_555
C20_19 N20_11 1_555 1_555
C24_15 N28 1_555 1_555
N12_15 C12_15 1_555 1_555
O7_15 N12_15 1_555 1_555
O8_15 N12_15 1_555 1_555
C13_19 H9_19 1_555 1_555
C14_19 C13_19 1_555 1_555
H10_19 C14_19 1_555 1_555
C15_19 N13_11 1_555 1_555
N13_11 C13_19 1_555 1_555
N14_19 C14_19 1_555 1_555
N15_19 C15_19 1_555 1_555
N21_19 C21_19 1_555 1_555
O9_19 N15_19 1_555 1_555
O10_19 N15_19 1_555 1_555
O13_19 N21_19 1_555 1_555
O14_19 N21_19 1_555 1_555
C22_15 H15_15 1_555 1_555
C23_15 C22_15 1_555 1_555
H16_15 C23_15 1_555 1_555
N22_15 Zn1_11 1_555 1_555
Zn5_16 N13_11 1_555 1_555
N25_15 Zn1_11 1_555 1_555
N26_15 Zn2_11 1_555 1_555
N27_15 Zn2_11 1_555 1_555
C12_15 N28_10 1_555 1_555
C15_19 N14_19 1_555 1_555
C22_15 N22_15 1_555 1_555
Zn1_12 N1_8 1_555 1_555
C1_12 H1_12 1_555 1_555
C2_12 C1_12 1_555 1_555
H2_12 C2_12 1_555 1_555
C3_12 N1_8 1_555 1_555
C10_16 H7_16 1_555 1_555
C11_16 C10_16 1_555 1_555
H8_16 C11_16 1_555 1_555
C12_16 N10_16 1_555 1_555
N1_8 C1_12 1_555 1_555
N2_12 C2_12 1_555 1_555
N3_12 C3_12 1_555 1_555
N9_12 C9_12 1_555 1_555
N10_16 Zn1_12 1_555 1_555
N28_9 C11_16 1_555 1_555
N12_16 C12_16 1_555 1_555
O1_12 N3_12 1_555 1_555
O2_12 N3_12 1_555 1_555
O5_12 N9_12 1_555 1_555
O6_12 N9_12 1_555 1_555
O7_16 N12_16 1_555 1_555
O8_16 N12_16 1_555 1_555
C22_16 H15_16 1_555 1_555
C23_16 C22_16 1_555 1_555
H16_16 C23_16 1_555 1_555
C24_16 N22_16 1_555 1_555
N22_16 Zn1_12 1_555 1_555
N28_2 C23_16 1_555 1_555
N24_16 C24_16 1_555 1_555
O15_16 N24_16 1_555 1_555
O16_16 N24_16 1_555 1_555
N25_16 Zn1_12 1_555 1_555
C3_12 N2_12 1_555 1_555
C10_16 N10_16 1_555 1_555
C12_16 N28_9 1_555 1_555
C22_16 N22_16 1_555 1_555
C24_16 N28_2 1_555 1_555
Zn2_12 N5_8 1_555 1_555
C4_12 H3_12 1_555 1_555
C5_12 C4_12 1_555 1_555
H4_12 C5_12 1_555 1_555
C6_12 N4_12 1_555 1_555
C7_12 H5_12 1_555 1_555
C8_12 C7_12 1_555 1_555
H6_12 C8_12 1_555 1_555
N4_12 Zn8_11 1_555 1_555
N5_8 C5_12 1_555 1_555
N6_12 C6_12 1_555 1_555
N7_12 Zn8_11 1_555 1_555
N8_8 C8_12 1_555 1_555
O3_12 N6_12 1_555 1_555
O4_12 N6_12 1_555 1_555
Zn8_2 N14_20 1_555 1_555
C13_20 H9_20 1_555 1_555
C14_20 C13_20 1_555 1_555
H10_20 C14_20 1_555 1_555
C15_20 N13_12 1_555 1_555
C16_20 H11_20 1_555 1_555
C17_20 C16_20 1_555 1_555
H12_20 C17_20 1_555 1_555
C18_20 N16_20 1_555 1_555
C19_20 H13_20 1_555 1_555
C20_20 C19_20 1_555 1_555
H14_20 C20_20 1_555 1_555
C21_20 N19_20 1_555 1_555
N13_12 C13_20 1_555 1_555
N14_20 C14_20 1_555 1_555
N15_20 C15_20 1_555 1_555
N16_20 Zn8_2 1_555 1_555
N17_12 C17_20 1_555 1_555
N18_20 C18_20 1_555 1_555
N19_20 Zn8_2 1_555 1_555
N20_12 Zn2_12 1_555 1_555
N21_20 C21_20 1_555 1_555
O9_20 N15_20 1_555 1_555
O10_20 N15_20 1_555 1_555
O11_20 N18_20 1_555 1_555
O12_20 N18_20 1_555 1_555
O13_20 N21_20 1_555 1_555
O14_20 N21_20 1_555 1_555
Zn5_17 N13_12 1_555 1_555
Zn6_11 N17_12 1_555 1_555
Zn7_12 N8_8 1_555 1_555
N26_16 Zn2_12 1_555 1_555
N27_16 Zn2_12 1_555 1_555
C4_12 N4_12 1_555 1_555
C6_12 N5_8 1_555 1_555
C7_12 N7_12 1_555 1_555
C15_20 N14_20 1_555 1_555
C16_20 N16_20 1_555 1_555
C18_20 N17_12 1_555 1_555
C19_20 N19_20 1_555 1_555
C20_20 N20_12 1_555 1_555
C21_20 N20_12 1_555 1_555
C13_21 H9_21 1_555 1_555
C14_21 C13_21 1_555 1_555
H10_21 C14_21 1_555 1_555
C15_21 N13_13 1_555 1_555
N13_13 C13_21 1_555 1_555
N14_21 C14_21 1_555 1_555
N15_21 C15_21 1_555 1_555
N21_21 C21_21 1_555 1_555
O9_21 N15_21 1_555 1_555
O10_21 N15_21 1_555 1_555
O13_21 N21_21 1_555 1_555
O14_21 N21_21 1_555 1_555
Zn5_19 N13_13 1_555 1_555
N26_17 Zn6_9 1_555 1_555
N27_17 Zn6_9 1_555 1_555
C15_21 N14_21 1_555 1_555
C16_21 H11_21 1_555 1_555
C17_21 C16_21 1_555 1_555
H12_21 C17_21 1_555 1_555
C18_21 N16_21 1_555 1_555
C19_21 H13_21 1_555 1_555
C20_21 C19_21 1_555 1_555
H14_21 C20_21 1_555 1_555
N16_21 Zn8_7 1_555 1_555
N17_13 C17_21 1_555 1_555
N18_21 C18_21 1_555 1_555
N19_21 Zn8_7 1_555 1_555
N20_13 Zn6_10 1_555 1_555
O11_21 N18_21 1_555 1_555
O12_21 N18_21 1_555 1_555
Zn7_10 N17_13 1_555 1_555
C16_21 N16_21 1_555 1_555
C18_21 N17_13 1_555 1_555
C19_21 N19_21 1_555 1_555
C20_21 N20_13 1_555 1_555
N12_17 C12_17 1_555 1_555
O7_17 N12_17 1_555 1_555
O8_17 N12_17 1_555 1_555
C22_17 H15_17 1_555 1_555
C23_17 C22_17 1_555 1_555
H16_17 C23_17 1_555 1_555
N22_17 Zn5_15 1_555 1_555
N25_17 Zn5_15 1_555 1_555
C12_17 N28_16 1_555 1_555
C22_17 N22_17 1_555 1_555
C10_17 H7_17 1_555 1_555
C11_17 C10_17 1_555 1_555
H8_17 C11_17 1_555 1_555
N10_17 Zn5_16 1_555 1_555
N24_17 C24_17 1_555 1_555
O15_17 N24_17 1_555 1_555
O16_17 N24_17 1_555 1_555
C10_17 N10_17 1_555 1_555
C24_17 N28_7 1_555 1_555
C10_18 H7_18 1_555 1_555
C11_18 C10_18 1_555 1_555
H8_18 C11_18 1_555 1_555
C12_18 N10_18 1_555 1_555
N10_18 Zn5_14 1_555 1_555
N28_15 C11_18 1_555 1_555
N12_18 C12_18 1_555 1_555
O7_18 N12_18 1_555 1_555
O8_18 N12_18 1_555 1_555
Zn8_8 N14_22 1_555 1_555
C13_22 H9_22 1_555 1_555
C14_22 C13_22 1_555 1_555
H10_22 C14_22 1_555 1_555
C15_22 N13_14 1_555 1_555
C16_22 H11_22 1_555 1_555
C17_22 C16_22 1_555 1_555
H12_22 C17_22 1_555 1_555
C18_22 N16_22 1_555 1_555
C19_22 H13_22 1_555 1_555
C20_22 C19_22 1_555 1_555
H14_22 C20_22 1_555 1_555
C21_22 N19_22 1_555 1_555
N13_14 C13_22 1_555 1_555
N14_22 C14_22 1_555 1_555
N15_22 C15_22 1_555 1_555
N16_22 Zn8_8 1_555 1_555
N17_14 C17_22 1_555 1_555
N18_22 C18_22 1_555 1_555
N19_22 Zn8_8 1_555 1_555
N20_14 Zn6_8 1_555 1_555
N21_22 C21_22 1_555 1_555
O9_22 N15_22 1_555 1_555
O10_22 N15_22 1_555 1_555
O11_22 N18_22 1_555 1_555
O12_22 N18_22 1_555 1_555
O13_22 N21_22 1_555 1_555
O14_22 N21_22 1_555 1_555
C22_18 H15_18 1_555 1_555
C23_18 C22_18 1_555 1_555
H16_18 C23_18 1_555 1_555
C24_18 N22_18 1_555 1_555
N22_18 Zn5_14 1_555 1_555
N28_8 C23_18 1_555 1_555
N24_18 C24_18 1_555 1_555
O15_18 N24_18 1_555 1_555
O16_18 N24_18 1_555 1_555
Zn5_20 N13_14 1_555 1_555
Zn7_9 N17_14 1_555 1_555
N25_18 Zn5_14 1_555 1_555
N26_18 Zn6_8 1_555 1_555
N27_18 Zn6_8 1_555 1_555
C10_18 N10_18 1_555 1_555
C12_18 N28_15 1_555 1_555
C15_22 N14_22 1_555 1_555
C16_22 N16_22 1_555 1_555
C18_22 N17_14 1_555 1_555
C19_22 N19_22 1_555 1_555
C20_22 N20_14 1_555 1_555
C21_22 N20_14 1_555 1_555
C22_18 N22_18 1_555 1_555
C24_18 N28_8 1_555 1_555
C10_19 H7_19 1_555 1_555
C11_19 C10_19 1_555 1_555
H8_19 C11_19 1_555 1_555
N10_19 Zn5_17 1_555 1_555
C16_23 H11_23 1_555 1_555
C17_23 C16_23 1_555 1_555
H12_23 C17_23 1_555 1_555
C18_23 N16_23 1_555 1_555
C19_23 H13_23 1_555 1_555
C20_23 C19_23 1_555 1_555
H14_23 C20_23 1_555 1_555
N16_23 Zn8_5 1_555 1_555
N17_15 C17_23 1_555 1_555
N18_23 C18_23 1_555 1_555
N19_23 Zn8_5 1_555 1_555
N20_15 Zn6_11 1_555 1_555
O11_23 N18_23 1_555 1_555
O12_23 N18_23 1_555 1_555
N24_19 C24_19 1_555 1_555
O15_19 N24_19 1_555 1_555
O16_19 N24_19 1_555 1_555
Zn7_12 N17_15 1_555 1_555
C10_19 N10_19 1_555 1_555
C16_23 N16_23 1_555 1_555
C18_23 N17_15 1_555 1_555
C19_23 N19_23 1_555 1_555
C20_23 N20_15 1_555 1_555
C24_19 N28_5 1_555 1_555
N12_19 C12_19 1_555 1_555
O7_19 N12_19 1_555 1_555
O8_19 N12_19 1_555 1_555
C13_23 H9_23 1_555 1_555
C14_23 C13_23 1_555 1_555
H10_23 C14_23 1_555 1_555
C15_23 N13_15 1_555 1_555
N13_15 C13_23 1_555 1_555
N14_23 C14_23 1_555 1_555
N15_23 C15_23 1_555 1_555
N21_23 C21_23 1_555 1_555
O9_23 N15_23 1_555 1_555
O10_23 N15_23 1_555 1_555
O13_23 N21_23 1_555 1_555
O14_23 N21_23 1_555 1_555
C22_19 H15_19 1_555 1_555
C23_19 C22_19 1_555 1_555
H16_19 C23_19 1_555 1_555
N22_19 Zn5_18 1_555 1_555
Zn5_22 N13_15 1_555 1_555
N25_19 Zn5_18 1_555 1_555
N26_19 Zn6_12 1_555 1_555
N27_19 Zn6_12 1_555 1_555
C12_19 N28_14 1_555 1_555
C15_23 N14_23 1_555 1_555
C22_19 N22_19 1_555 1_555
C10_20 H7_20 1_555 1_555
C11_20 C10_20 1_555 1_555
H8_20 C11_20 1_555 1_555
C12_20 N10_20 1_555 1_555
N10_20 Zn5_13 1_555 1_555
N28_13 C11_20 1_555 1_555
N12_20 C12_20 1_555 1_555
O7_20 N12_20 1_555 1_555
O8_20 N12_20 1_555 1_555
C22_20 H15_20 1_555 1_555
C23_20 C22_20 1_555 1_555
H16_20 C23_20 1_555 1_555
C24_20 N22_20 1_555 1_555
N22_20 Zn5_13 1_555 1_555
N28_6 C23_20 1_555 1_555
N24_20 C24_20 1_555 1_555
O15_20 N24_20 1_555 1_555
O16_20 N24_20 1_555 1_555
N25_20 Zn5_13 1_555 1_555
C10_20 N10_20 1_555 1_555
C12_20 N28_13 1_555 1_555
C22_20 N22_20 1_555 1_555
C24_20 N28_6 1_555 1_555
Zn8_6 N14_24 1_555 1_555
C13_24 H9_24 1_555 1_555
C14_24 C13_24 1_555 1_555
H10_24 C14_24 1_555 1_555
C15_24 N13_16 1_555 1_555
C16_24 H11_24 1_555 1_555
C17_24 C16_24 1_555 1_555
H12_24 C17_24 1_555 1_555
C18_24 N16_24 1_555 1_555
C19_24 H13_24 1_555 1_555
C20_24 C19_24 1_555 1_555
H14_24 C20_24 1_555 1_555
C21_24 N19_24 1_555 1_555
N13_16 C13_24 1_555 1_555
N14_24 C14_24 1_555 1_555
N15_24 C15_24 1_555 1_555
N16_24 Zn8_6 1_555 1_555
N17_16 C17_24 1_555 1_555
N18_24 C18_24 1_555 1_555
N19_24 Zn8_6 1_555 1_555
N20_16 Zn6_7 1_555 1_555
N21_24 C21_24 1_555 1_555
O9_24 N15_24 1_555 1_555
O10_24 N15_24 1_555 1_555
O11_24 N18_24 1_555 1_555
O12_24 N18_24 1_555 1_555
O13_24 N21_24 1_555 1_555
O14_24 N21_24 1_555 1_555
Zn5_23 N13_16 1_555 1_555
Zn7_7 N17_16 1_555 1_555
N26_20 Zn6_7 1_555 1_555
N27_20 Zn6_7 1_555 1_555
C15_24 N14_24 1_555 1_555
C16_24 N16_24 1_555 1_555
C18_24 N17_16 1_555 1_555
C19_24 N19_24 1_555 1_555
C20_24 N20_16 1_555 1_555
C21_24 N20_16 1_555 1_555
N26_21 Zn7_11 1_555 1_555
N27_21 Zn7_11 1_555 1_555
N12_21 C12_21 1_555 1_555
O7_21 N12_21 1_555 1_555
O8_21 N12_21 1_555 1_555
C22_21 H15_21 1_555 1_555
C23_21 C22_21 1_555 1_555
H16_21 C23_21 1_555 1_555
N22_21 Zn5_21 1_555 1_555
N25_21 Zn5_21 1_555 1_555
C12_21 N29_7 1_555 1_555
C22_21 N22_21 1_555 1_555
C10_21 H7_21 1_555 1_555
C11_21 C10_21 1_555 1_555
H8_21 C11_21 1_555 1_555
N10_21 Zn5_22 1_555 1_555
N24_21 C24_21 1_555 1_555
O15_21 N24_21 1_555 1_555
O16_21 N24_21 1_555 1_555
C10_21 N10_21 1_555 1_555
C24_21 N29 1_555 1_555
C10_22 H7_22 1_555 1_555
C11_22 C10_22 1_555 1_555
H8_22 C11_22 1_555 1_555
C12_22 N10_22 1_555 1_555
N10_22 Zn5_20 1_555 1_555
N29_5 C11_22 1_555 1_555
N12_22 C12_22 1_555 1_555
O7_22 N12_22 1_555 1_555
O8_22 N12_22 1_555 1_555
C22_22 H15_22 1_555 1_555
C23_22 C22_22 1_555 1_555
H16_22 C23_22 1_555 1_555
C24_22 N22_22 1_555 1_555
N22_22 Zn5_20 1_555 1_555
N29_3 C23_22 1_555 1_555
N24_22 C24_22 1_555 1_555
O15_22 N24_22 1_555 1_555
O16_22 N24_22 1_555 1_555
N25_22 Zn5_20 1_555 1_555
N26_22 Zn7_9 1_555 1_555
N27_22 Zn7_9 1_555 1_555
C10_22 N10_22 1_555 1_555
C12_22 N29_5 1_555 1_555
C22_22 N22_22 1_555 1_555
C24_22 N29_3 1_555 1_555
C10_23 H7_23 1_555 1_555
C11_23 C10_23 1_555 1_555
H8_23 C11_23 1_555 1_555
N10_23 Zn5_23 1_555 1_555
N24_23 C24_23 1_555 1_555
O15_23 N24_23 1_555 1_555
O16_23 N24_23 1_555 1_555
C10_23 N10_23 1_555 1_555
C24_23 N29_4 1_555 1_555
N12_23 C12_23 1_555 1_555
O7_23 N12_23 1_555 1_555
O8_23 N12_23 1_555 1_555
C22_23 H15_23 1_555 1_555
C23_23 C22_23 1_555 1_555
H16_23 C23_23 1_555 1_555
N22_23 Zn5_24 1_555 1_555
N25_23 Zn5_24 1_555 1_555
N26_23 Zn7_8 1_555 1_555
N27_23 Zn7_8 1_555 1_555
C12_23 N29_6 1_555 1_555
C22_23 N22_23 1_555 1_555
C10_24 H7_24 1_555 1_555
C11_24 C10_24 1_555 1_555
H8_24 C11_24 1_555 1_555
C12_24 N10_24 1_555 1_555
N10_24 Zn5_19 1_555 1_555
N29_8 C11_24 1_555 1_555
N12_24 C12_24 1_555 1_555
O7_24 N12_24 1_555 1_555
O8_24 N12_24 1_555 1_555
C22_24 H15_24 1_555 1_555
C23_24 C22_24 1_555 1_555
H16_24 C23_24 1_555 1_555
C24_24 N22_24 1_555 1_555
N22_24 Zn5_19 1_555 1_555
N29_2 C23_24 1_555 1_555
N24_24 C24_24 1_555 1_555
O15_24 N24_24 1_555 1_555
O16_24 N24_24 1_555 1_555
N25_24 Zn5_19 1_555 1_555
C10_24 N10_24 1_555 1_555
C12_24 N29_8 1_555 1_555
C22_24 N22_24 1_555 1_555
C24_24 N29_2 1_555 1_555
N26_24 Zn7_10 1_555 1_555
N27_24 Zn7_10 1_555 1_555
Zn9_10 N2_13 1_555 1_555
C1_13 H1_13 1_555 1_555
C2_13 C1_13 1_555 1_555
H2_13 C2_13 1_555 1_555
C3_13 N25_14 1_555 1_555
C4_13 H3_13 1_555 1_555
C5_13 C4_13 1_555 1_555
H4_13 C5_13 1_555 1_555
C6_13 N4_13 1_555 1_555
C7_13 H5_13 1_555 1_555
C8_13 C7_13 1_555 1_555
H6_13 C8_13 1_555 1_555
C9_13 N7_13 1_555 1_555
N25_14 C1_13 1_555 1_555
N2_13 C2_13 1_555 1_555
N3_13 C3_13 1_555 1_555
N4_13 Zn9_10 1_555 1_555
N26_14 C5_13 1_555 1_555
N6_13 C6_13 1_555 1_555
N7_13 Zn9_10 1_555 1_555
N27_24 C8_13 1_555 1_555
N9_13 C9_13 1_555 1_555
O1_13 N3_13 1_555 1_555
O2_13 N3_13 1_555 1_555
O3_13 N6_13 1_555 1_555
O4_13 N6_13 1_555 1_555
O5_13 N9_13 1_555 1_555
O6_13 N9_13 1_555 1_555
Zn9_4 N14_25 1_555 1_555
C13_25 H9_25 1_555 1_555
C14_25 C13_25 1_555 1_555
H10_25 C14_25 1_555 1_555
C15_25 N25_19 1_555 1_555
C16_25 H11_25 1_555 1_555
C17_25 C16_25 1_555 1_555
H12_25 C17_25 1_555 1_555
C18_25 N16_25 1_555 1_555
C19_25 H13_25 1_555 1_555
C20_25 C19_25 1_555 1_555
H14_25 C20_25 1_555 1_555
C21_25 N19_25 1_555 1_555
N25_19 C13_25 1_555 1_555
N14_25 C14_25 1_555 1_555
N15_25 C15_25 1_555 1_555
N16_25 Zn9_4 1_555 1_555
N26_19 C17_25 1_555 1_555
N18_25 C18_25 1_555 1_555
N19_25 Zn9_4 1_555 1_555
N21_25 C21_25 1_555 1_555
O9_25 N15_25 1_555 1_555
O10_25 N15_25 1_555 1_555
O11_25 N18_25 1_555 1_555
O12_25 N18_25 1_555 1_555
O13_25 N21_25 1_555 1_555
O14_25 N21_25 1_555 1_555
C3_13 N2_13 1_555 1_555
C4_13 N4_13 1_555 1_555
C6_13 N26_14 1_555 1_555
C7_13 N7_13 1_555 1_555
C9_13 N27_24 1_555 1_555
C15_25 N14_25 1_555 1_555
C16_25 N16_25 1_555 1_555
C18_25 N26_19 1_555 1_555
C19_25 N19_25 1_555 1_555
C20_25 N27_14 1_555 1_555
C21_25 N27_14 1_555 1_555
C4_14 H3_14 1_555 1_555
C5_14 C4_14 1_555 1_555
H4_14 C5_14 1_555 1_555
C6_14 N4_14 1_555 1_555
C7_14 H5_14 1_555 1_555
C8_14 C7_14 1_555 1_555
H6_14 C8_14 1_555 1_555
N4_14 Zn9_11 1_555 1_555
N26_13 C5_14 1_555 1_555
N6_14 C6_14 1_555 1_555
N7_14 Zn9_11 1_555 1_555
N27_21 C8_14 1_555 1_555
O3_14 N6_14 1_555 1_555
O4_14 N6_14 1_555 1_555
C16_26 H11_26 1_555 1_555
C17_26 C16_26 1_555 1_555
H12_26 C17_26 1_555 1_555
C18_26 N16_26 1_555 1_555
C19_26 H13_26 1_555 1_555
C20_26 C19_26 1_555 1_555
H14_26 C20_26 1_555 1_555
N16_26 Zn9_3 1_555 1_555
N26_17 C17_26 1_555 1_555
N18_26 C18_26 1_555 1_555
N19_26 Zn9_3 1_555 1_555
O11_26 N18_26 1_555 1_555
O12_26 N18_26 1_555 1_555
C4_14 N4_14 1_555 1_555
C6_14 N26_13 1_555 1_555
C7_14 N7_14 1_555 1_555
C16_26 N16_26 1_555 1_555
C18_26 N26_17 1_555 1_555
C19_26 N19_26 1_555 1_555
C20_26 N27_13 1_555 1_555
C1_14 H1_14 1_555 1_555
C2_14 C1_14 1_555 1_555
H2_14 C2_14 1_555 1_555
C3_14 N25_13 1_555 1_555
N25_13 C1_14 1_555 1_555
N2_14 C2_14 1_555 1_555
N3_14 C3_14 1_555 1_555
N9_14 C9_14 1_555 1_555
O1_14 N3_14 1_555 1_555
O2_14 N3_14 1_555 1_555
O5_14 N9_14 1_555 1_555
O6_14 N9_14 1_555 1_555
C3_14 N2_14 1_555 1_555
C13_26 H9_26 1_555 1_555
C14_26 C13_26 1_555 1_555
H10_26 C14_26 1_555 1_555
C15_26 N25_17 1_555 1_555
N25_17 C13_26 1_555 1_555
N14_26 C14_26 1_555 1_555
N15_26 C15_26 1_555 1_555
N21_26 C21_26 1_555 1_555
O9_26 N15_26 1_555 1_555
O10_26 N15_26 1_555 1_555
O13_26 N21_26 1_555 1_555
O14_26 N21_26 1_555 1_555
C15_26 N14_26 1_555 1_555
C1_15 H1_15 1_555 1_555
C2_15 C1_15 1_555 1_555
H2_15 C2_15 1_555 1_555
C3_15 N25_16 1_555 1_555
N25_16 C1_15 1_555 1_555
N2_15 C2_15 1_555 1_555
N3_15 C3_15 1_555 1_555
N9_15 C9_15 1_555 1_555
O1_15 N3_15 1_555 1_555
O2_15 N3_15 1_555 1_555
O5_15 N9_15 1_555 1_555
O6_15 N9_15 1_555 1_555
C3_15 N2_15 1_555 1_555
C4_15 H3_15 1_555 1_555
C5_15 C4_15 1_555 1_555
H4_15 C5_15 1_555 1_555
C6_15 N4_15 1_555 1_555
C7_15 H5_15 1_555 1_555
C8_15 C7_15 1_555 1_555
H6_15 C8_15 1_555 1_555
N4_15 Zn9_9 1_555 1_555
N26_16 C5_15 1_555 1_555
N6_15 C6_15 1_555 1_555
N7_15 Zn9_9 1_555 1_555
N27_23 C8_15 1_555 1_555
O3_15 N6_15 1_555 1_555
O4_15 N6_15 1_555 1_555
Zn9_2 N14_27 1_555 1_555
C13_27 H9_27 1_555 1_555
C14_27 C13_27 1_555 1_555
H10_27 C14_27 1_555 1_555
C15_27 N25_18 1_555 1_555
C16_27 H11_27 1_555 1_555
C17_27 C16_27 1_555 1_555
H12_27 C17_27 1_555 1_555
C18_27 N16_27 1_555 1_555
C19_27 H13_27 1_555 1_555
C20_27 C19_27 1_555 1_555
H14_27 C20_27 1_555 1_555
C21_27 N19_27 1_555 1_555
N25_18 C13_27 1_555 1_555
N14_27 C14_27 1_555 1_555
N15_27 C15_27 1_555 1_555
N16_27 Zn9_2 1_555 1_555
N26_18 C17_27 1_555 1_555
N18_27 C18_27 1_555 1_555
N19_27 Zn9_2 1_555 1_555
N21_27 C21_27 1_555 1_555
O9_27 N15_27 1_555 1_555
O10_27 N15_27 1_555 1_555
O11_27 N18_27 1_555 1_555
O12_27 N18_27 1_555 1_555
O13_27 N21_27 1_555 1_555
O14_27 N21_27 1_555 1_555
C4_15 N4_15 1_555 1_555
C6_15 N26_16 1_555 1_555
C7_15 N7_15 1_555 1_555
C15_27 N14_27 1_555 1_555
C16_27 N16_27 1_555 1_555
C18_27 N26_18 1_555 1_555
C19_27 N19_27 1_555 1_555
C20_27 N27_16 1_555 1_555
C21_27 N27_16 1_555 1_555
C13_28 H9_28 1_555 1_555
C14_28 C13_28 1_555 1_555
H10_28 C14_28 1_555 1_555
C15_28 N25_20 1_555 1_555
N25_20 C13_28 1_555 1_555
N14_28 C14_28 1_555 1_555
N15_28 C15_28 1_555 1_555
N21_28 C21_28 1_555 1_555
O9_28 N15_28 1_555 1_555
O10_28 N15_28 1_555 1_555
O13_28 N21_28 1_555 1_555
O14_28 N21_28 1_555 1_555
C15_28 N14_28 1_555 1_555
Zn9_12 N2_16 1_555 1_555
C1_16 H1_16 1_555 1_555
C2_16 C1_16 1_555 1_555
H2_16 C2_16 1_555 1_555
C3_16 N25_15 1_555 1_555
C4_16 H3_16 1_555 1_555
C5_16 C4_16 1_555 1_555
H4_16 C5_16 1_555 1_555
C6_16 N4_16 1_555 1_555
C7_16 H5_16 1_555 1_555
C8_16 C7_16 1_555 1_555
H6_16 C8_16 1_555 1_555
C9_16 N7_16 1_555 1_555
N25_15 C1_16 1_555 1_555
N2_16 C2_16 1_555 1_555
N3_16 C3_16 1_555 1_555
N4_16 Zn9_12 1_555 1_555
N26_15 C5_16 1_555 1_555
N6_16 C6_16 1_555 1_555
N7_16 Zn9_12 1_555 1_555
N27_22 C8_16 1_555 1_555
N9_16 C9_16 1_555 1_555
O1_16 N3_16 1_555 1_555
O2_16 N3_16 1_555 1_555
O3_16 N6_16 1_555 1_555
O4_16 N6_16 1_555 1_555
O5_16 N9_16 1_555 1_555
O6_16 N9_16 1_555 1_555
C16_28 H11_28 1_555 1_555
C17_28 C16_28 1_555 1_555
H12_28 C17_28 1_555 1_555
C18_28 N16_28 1_555 1_555
C19_28 H13_28 1_555 1_555
C20_28 C19_28 1_555 1_555
H14_28 C20_28 1_555 1_555
N16_28 Zn9 1_555 1_555
N26_20 C17_28 1_555 1_555
N18_28 C18_28 1_555 1_555
N19_28 Zn9 1_555 1_555
O11_28 N18_28 1_555 1_555
O12_28 N18_28 1_555 1_555
C3_16 N2_16 1_555 1_555
C4_16 N4_16 1_555 1_555
C6_16 N26_15 1_555 1_555
C7_16 N7_16 1_555 1_555
C9_16 N27_22 1_555 1_555
C16_28 N16_28 1_555 1_555
C18_28 N26_20 1_555 1_555
C19_28 N19_28 1_555 1_555
C20_28 N27_15 1_555 1_555
Zn9_8 N14_29 1_555 1_555
C13_29 H9_29 1_555 1_555
C14_29 C13_29 1_555 1_555
H10_29 C14_29 1_555 1_555
C15_29 N25_23 1_555 1_555
C16_29 H11_29 1_555 1_555
C17_29 C16_29 1_555 1_555
H12_29 C17_29 1_555 1_555
C18_29 N16_29 1_555 1_555
C19_29 H13_29 1_555 1_555
C20_29 C19_29 1_555 1_555
H14_29 C20_29 1_555 1_555
C21_29 N19_29 1_555 1_555
N25_23 C13_29 1_555 1_555
N14_29 C14_29 1_555 1_555
N15_29 C15_29 1_555 1_555
N16_29 Zn9_8 1_555 1_555
N26_23 C17_29 1_555 1_555
N18_29 C18_29 1_555 1_555
N19_29 Zn9_8 1_555 1_555
N21_29 C21_29 1_555 1_555
O9_29 N15_29 1_555 1_555
O10_29 N15_29 1_555 1_555
O11_29 N18_29 1_555 1_555
O12_29 N18_29 1_555 1_555
O13_29 N21_29 1_555 1_555
O14_29 N21_29 1_555 1_555
C15_29 N14_29 1_555 1_555
C16_29 N16_29 1_555 1_555
C18_29 N26_23 1_555 1_555
C19_29 N19_29 1_555 1_555
C20_29 N27_18 1_555 1_555
C21_29 N27_18 1_555 1_555
C16_30 H11_30 1_555 1_555
C17_30 C16_30 1_555 1_555
H12_30 C17_30 1_555 1_555
C18_30 N16_30 1_555 1_555
C19_30 H13_30 1_555 1_555
C20_30 C19_30 1_555 1_555
H14_30 C20_30 1_555 1_555
N16_30 Zn9_7 1_555 1_555
N26_21 C17_30 1_555 1_555
N18_30 C18_30 1_555 1_555
N19_30 Zn9_7 1_555 1_555
O11_30 N18_30 1_555 1_555
O12_30 N18_30 1_555 1_555
C16_30 N16_30 1_555 1_555
C18_30 N26_21 1_555 1_555
C19_30 N19_30 1_555 1_555
C20_30 N27_17 1_555 1_555
C13_30 H9_30 1_555 1_555
C14_30 C13_30 1_555 1_555
H10_30 C14_30 1_555 1_555
C15_30 N25_21 1_555 1_555
N25_21 C13_30 1_555 1_555
N14_30 C14_30 1_555 1_555
N15_30 C15_30 1_555 1_555
N21_30 C21_30 1_555 1_555
O9_30 N15_30 1_555 1_555
O10_30 N15_30 1_555 1_555
O13_30 N21_30 1_555 1_555
O14_30 N21_30 1_555 1_555
C15_30 N14_30 1_555 1_555
Zn9_6 N14_31 1_555 1_555
C13_31 H9_31 1_555 1_555
C14_31 C13_31 1_555 1_555
H10_31 C14_31 1_555 1_555
C15_31 N25_22 1_555 1_555
C16_31 H11_31 1_555 1_555
C17_31 C16_31 1_555 1_555
H12_31 C17_31 1_555 1_555
C18_31 N16_31 1_555 1_555
C19_31 H13_31 1_555 1_555
C20_31 C19_31 1_555 1_555
H14_31 C20_31 1_555 1_555
C21_31 N19_31 1_555 1_555
N25_22 C13_31 1_555 1_555
N14_31 C14_31 1_555 1_555
N15_31 C15_31 1_555 1_555
N16_31 Zn9_6 1_555 1_555
N26_22 C17_31 1_555 1_555
N18_31 C18_31 1_555 1_555
N19_31 Zn9_6 1_555 1_555
N21_31 C21_31 1_555 1_555
O9_31 N15_31 1_555 1_555
O10_31 N15_31 1_555 1_555
O11_31 N18_31 1_555 1_555
O12_31 N18_31 1_555 1_555
O13_31 N21_31 1_555 1_555
O14_31 N21_31 1_555 1_555
C15_31 N14_31 1_555 1_555
C16_31 N16_31 1_555 1_555
C18_31 N26_22 1_555 1_555
C19_31 N19_31 1_555 1_555
C20_31 N27_20 1_555 1_555
C21_31 N27_20 1_555 1_555
C13_32 H9_32 1_555 1_555
C14_32 C13_32 1_555 1_555
H10_32 C14_32 1_555 1_555
C15_32 N25_24 1_555 1_555
N25_24 C13_32 1_555 1_555
N14_32 C14_32 1_555 1_555
N15_32 C15_32 1_555 1_555
N21_32 C21_32 1_555 1_555
O9_32 N15_32 1_555 1_555
O10_32 N15_32 1_555 1_555
O13_32 N21_32 1_555 1_555
O14_32 N21_32 1_555 1_555
C15_32 N14_32 1_555 1_555
C16_32 H11_32 1_555 1_555
C17_32 C16_32 1_555 1_555
H12_32 C17_32 1_555 1_555
C18_32 N16_32 1_555 1_555
C19_32 H13_32 1_555 1_555
C20_32 C19_32 1_555 1_555
H14_32 C20_32 1_555 1_555
N16_32 Zn9_5 1_555 1_555
N26_24 C17_32 1_555 1_555
N18_32 C18_32 1_555 1_555
N19_32 Zn9_5 1_555 1_555
O11_32 N18_32 1_555 1_555
O12_32 N18_32 1_555 1_555
C16_32 N16_32 1_555 1_555
C18_32 N26_24 1_555 1_555
C19_32 N19_32 1_555 1_555
C20_32 N27_19 1_555 1_555

#END
