
###############################################################################
#
# This file contains modified crystal structure data generated from the
# MOF subset of the Cambridge Structural Database (CSD) v543 
# hosted by the Cambridge Crystallographic Data Centre (CCDC).
#
# This work is licensed under the Creative Commons
# Attribution-NonCommercial-ShareAlike 4.0 International License.
# To view a copy of this license, visit
# http://creativecommons.org/licenses/by-nc-sa/4.0/
# or send a letter to
# Creative Commons, PO Box 1866, Mountain View, CA 94042, USA.
#
# CIF created using the CSD Python API on 29 September 2022
# The structure has been converted into the P1 space group
# The structure has a 3D framework
# The original CSD entry MINVUA01 is in the orthorhombic crystal system
# The framework has been calculated to contain at least 10.0% void space
# The void calculation uses a probe of radius 1.32A, grid spacing 0.4
# H atom positions have been added when not included in the experimental data
#
###############################################################################

data_MINVUA01
_chemical_formula_moiety         '(C40 H16 Cr4 O20)n'
_symmetry_cell_setting           triclinic
_symmetry_space_group_name_H-M   'P 1'
_symmetry_Int_Tables_number      1
_space_group_name_Hall           'P 1'
loop_
_symmetry_equiv_pos_site_id
_symmetry_equiv_pos_as_xyz
1 x,y,z
_cell_length_a                   16.733(1)
_cell_length_b                   13.038(1)
_cell_length_c                   6.812(1)
_cell_angle_alpha                90
_cell_angle_beta                 90
_cell_angle_gamma                90
_cell_volume                     1486.14
loop_
_atom_site_label
_atom_site_type_symbol
_atom_site_fract_x
_atom_site_fract_y
_atom_site_fract_z
O3 O 0.250 0.686(1) 0.000
Cr1 Cr 0.250 0.750 0.750
O1 O 0.250 0.814(1) 0.500
O2 O 0.334(1) 0.657(1) 0.344(1)
C1 C 0.460(1) 0.518(1) 0.304(1)
C2 C 0.446(1) 0.539(2) 0.500
C3 C 0.375(1) 0.612(2) 0.500
O3_2 O 0.250 0.686(1) 1.000
Cr2 Cr 0.250 0.750 0.250
O4 O 0.334(1) 0.657(1) 0.656(1)
O5 O 0.334(1) 0.843(1) 0.844(1)
O6 O 0.166(1) 0.843(1) 0.844(1)
O7 O 0.166(1) 0.657(1) 0.656(1)
C4 C 0.460(1) 0.518(1) 0.696(1)
C5 C 0.540(1) 0.482(1) 0.304(1)
C6 C 0.540(1) 0.482(1) 0.696(1)
C7 C 0.554(1) 0.461(2) 0.500
C8 C 0.625(1) 0.388(2) 0.500
O8 O 0.666(1) 0.343(1) 0.656(1)
O9 O 0.666(1) 0.343(1) 0.344(1)
Cr3 Cr 0.750 0.250 0.750
Cr4 Cr 0.750 0.250 0.250
H1 H 0.419516 0.526918 0.82
H2 H 0.580484 0.473082 0.82
H3 H 0.580484 0.473082 0.18
H4 H 0.419516 0.526918 0.18
C2_2 C 0.054(1) 0.961(2) -0.000
C3_2 C 0.125(1) 0.888(2) -0.000
O4_2 O 0.166(1) 0.843(1) 0.156(1)
O5_2 O 0.166(1) 0.657(1) 0.344(1)
O7_2 O 0.334(1) 0.843(1) 0.156(1)
C4_2 C 0.040(1) 0.982(1) 0.196(1)
H1_2 H 0.0804843 0.973082 0.32
C1_2 C 0.040(1) 0.982(1) 0.804(1)
C2_3 C 0.054(1) 0.961(2) 1.000
C3_3 C 0.125(1) 0.888(2) 1.000
H4_2 H 0.0804843 0.973082 0.68
C6_2 C 0.960(1) 0.018(1) 0.196(1)
C7_2 C 0.946(1) 0.039(2) -0.000
C8_2 C 0.875(1) 0.112(2) -0.000
O8_2 O 0.834(1) 0.157(1) 0.156(1)
H2_2 H 0.919516 0.0269179 0.32
C5_2 C 0.960(1) 0.018(1) 0.804(1)
C7_3 C 0.946(1) 0.039(2) 1.000
C8_3 C 0.875(1) 0.112(2) 1.000
O9_2 O 0.834(1) 0.157(1) 0.844(1)
H3_2 H 0.919516 0.0269179 0.68
C5_3 C 0.540(1) 0.018(1) 0.196(1)
C7_4 C 0.554(1) 0.039(2) 0.000
C8_4 C 0.625(1) 0.112(2) 0.000
O9_3 O 0.666(1) 0.157(1) 0.156(1)
H3_3 H 0.580484 0.0269179 0.32
C6_3 C 0.540(1) 0.018(1) 0.804(1)
C7_5 C 0.554(1) 0.039(2) 1.000
C8_5 C 0.625(1) 0.112(2) 1.000
O8_3 O 0.666(1) 0.157(1) 0.844(1)
H2_3 H 0.580484 0.0269179 0.68
C1_3 C 0.460(1) 0.982(1) 0.196(1)
C2_4 C 0.446(1) 0.961(2) 0.000
C3_4 C 0.375(1) 0.888(2) 0.000
H4_3 H 0.419516 0.973082 0.32
C2_5 C 0.446(1) 0.961(2) 1.000
C3_5 C 0.375(1) 0.888(2) 1.000
C4_3 C 0.460(1) 0.982(1) 0.804(1)
H1_3 H 0.419516 0.973082 0.68
O1_2 O 0.750 0.314(1) -0.000
O3_3 O 0.750 0.186(1) 0.500
O5_3 O 0.834(1) 0.343(1) 0.344(1)
O1_3 O 0.750 0.314(1) 1.000
O7_3 O 0.834(1) 0.343(1) 0.656(1)
C5_4 C 0.040(1) 0.518(1) 0.696(1)
C6_4 C 0.040(1) 0.518(1) 0.304(1)
C7_6 C 0.054(1) 0.539(2) 0.500
C8_6 C 0.125(1) 0.612(2) 0.500
H2_4 H 0.0804843 0.526918 0.18
H3_4 H 0.0804843 0.526918 0.82
C1_4 C 0.960(1) 0.482(1) 0.696(1)
C2_6 C 0.946(1) 0.461(2) 0.500
C3_6 C 0.875(1) 0.388(2) 0.500
C4_4 C 0.960(1) 0.482(1) 0.304(1)
H1_4 H 0.919516 0.473082 0.18
H4_4 H 0.919516 0.473082 0.82
loop_
_geom_bond_atom_site_label_1
_geom_bond_atom_site_label_2
_geom_bond_site_symmetry_1
_geom_bond_site_symmetry_2
Cr1 O1 1_555 1_555
O1 Cr2 1_555 1_555
O2 C3 1_555 1_555
C1 C2 1_555 1_555
C2 C3 1_555 1_555
C3 O4 1_555 1_555
O3_2 Cr1 1_555 1_555
Cr2 O2 1_555 1_555
O4 Cr1 1_555 1_555
O5 Cr1 1_555 1_555
O6 Cr1 1_555 1_555
O7 Cr1 1_555 1_555
C4 C2 1_555 1_555
C5 C1 1_555 1_555
C6 C4 1_555 1_555
C7 C5 1_555 1_555
C8 C7 1_555 1_555
O8 C8 1_555 1_555
O9 C8 1_555 1_555
Cr3 O8 1_555 1_555
Cr4 O9 1_555 1_555
C6 C7 1_555 1_555
C4 H1 1_555 1_555
C6 H2 1_555 1_555
C5 H3 1_555 1_555
C1 H4 1_555 1_555
Cr2 O3 1_555 1_555
C2_2 C3_2 1_555 1_555
C3_2 O4_2 1_555 1_555
O4_2 Cr2 1_555 1_555
O5_2 Cr2 1_555 1_555
O7_2 Cr2 1_555 1_555
C4_2 C2_2 1_555 1_555
C4_2 H1_2 1_555 1_555
O6 C3_3 1_555 1_555
C1_2 C2_3 1_555 1_555
C2_3 C3_3 1_555 1_555
C1_2 H4_2 1_555 1_555
C8_2 C7_2 1_555 1_555
O8_2 C8_2 1_555 1_555
Cr4 O8_2 1_555 1_555
C6_2 C7_2 1_555 1_555
C6_2 H2_2 1_555 1_555
C7_3 C5_2 1_555 1_555
C8_3 C7_3 1_555 1_555
O9_2 C8_3 1_555 1_555
Cr3 O9_2 1_555 1_555
C5_2 H3_2 1_555 1_555
C7_4 C5_3 1_555 1_555
C8_4 C7_4 1_555 1_555
O9_3 C8_4 1_555 1_555
Cr4 O9_3 1_555 1_555
C5_3 H3_3 1_555 1_555
C8_5 C7_5 1_555 1_555
O8_3 C8_5 1_555 1_555
Cr3 O8_3 1_555 1_555
C6_3 C7_5 1_555 1_555
C6_3 H2_3 1_555 1_555
O7_2 C3_4 1_555 1_555
C1_3 C2_4 1_555 1_555
C2_4 C3_4 1_555 1_555
C1_3 H4_3 1_555 1_555
C2_5 C3_5 1_555 1_555
C3_5 O5 1_555 1_555
C4_3 C2_5 1_555 1_555
C4_3 H1_3 1_555 1_555
Cr4 O1_2 1_555 1_555
O3_3 Cr4 1_555 1_555
O5_3 Cr4 1_555 1_555
O1_3 Cr3 1_555 1_555
Cr3 O3_3 1_555 1_555
O7_3 Cr3 1_555 1_555
C7_6 C5_4 1_555 1_555
C8_6 C7_6 1_555 1_555
O5_2 C8_6 1_555 1_555
O7 C8_6 1_555 1_555
C6_4 C7_6 1_555 1_555
C6_4 H2_4 1_555 1_555
C5_4 H3_4 1_555 1_555
O7_3 C3_6 1_555 1_555
C1_4 C2_6 1_555 1_555
C2_6 C3_6 1_555 1_555
C3_6 O5_3 1_555 1_555
C4_4 C2_6 1_555 1_555
C4_4 H1_4 1_555 1_555
C1_4 H4_4 1_555 1_555

#END
