
###############################################################################
#
# This file contains modified crystal structure data generated from the
# MOF subset of the Cambridge Structural Database (CSD) v543 
# hosted by the Cambridge Crystallographic Data Centre (CCDC).
#
# This work is licensed under the Creative Commons
# Attribution-NonCommercial-ShareAlike 4.0 International License.
# To view a copy of this license, visit
# http://creativecommons.org/licenses/by-nc-sa/4.0/
# or send a letter to
# Creative Commons, PO Box 1866, Mountain View, CA 94042, USA.
#
# CIF created using the CSD Python API on 29 September 2022
# The structure has been converted into the P1 space group
# The structure has a 3D framework
# The original CSD entry MINVOU01 is in the orthorhombic crystal system
# The framework has been calculated to contain at least 10.0% void space
# The void calculation uses a probe of radius 1.32A, grid spacing 0.4
# H atom positions have been added when not included in the experimental data
#
###############################################################################

data_MINVOU01
_chemical_formula_moiety         '(C32 H16 Cr8 O20)n'
_symmetry_cell_setting           triclinic
_symmetry_space_group_name_H-M   'P 1'
_symmetry_Int_Tables_number      1
_space_group_name_Hall           'P 1'
loop_
_symmetry_equiv_pos_site_id
_symmetry_equiv_pos_as_xyz
1 x,y,z
_cell_length_a                   17.340(1)
_cell_length_b                   12.178(1)
_cell_length_c                   6.822(1)
_cell_angle_alpha                90
_cell_angle_beta                 90
_cell_angle_gamma                90
_cell_volume                     1440.58
loop_
_atom_site_label
_atom_site_type_symbol
_atom_site_fract_x
_atom_site_fract_y
_atom_site_fract_z
Cr1 Cr 0.000 0.000 0.000
Cr3 Cr 0.500 0.500 0.000
H2 H 0.318383 0.296313 0.056464
H3 H 0.208378 0.161722 0.0581641
Cr1_2 Cr -0.000 0.000 1.000
O2 O 0.089(1) 0.089(1) 0.913(2)
O3 O 0.427(1) 0.388(1) 0.910(2)
C1 C 0.392(2) 0.357(3) 0.750
C2 C 0.123(2) 0.117(4) 0.750
C3 C 0.329(2) 0.287(3) 0.750
C4 C 0.191(2) 0.180(4) 0.750
C5 C 0.229(1) 0.198(2) 0.922(2)
C6 C 0.295(1) 0.264(2) 0.920(2)
O4 O 0.427(1) 0.388(1) 0.590(2)
O5 O 0.089(1) 0.089(1) 0.587(2)
C7 C 0.295(1) 0.264(2) 0.580(2)
C8 C 0.229(1) 0.198(2) 0.578(2)
Cr2 Cr 0.000 0.000 0.500
Cr3_2 Cr 0.500 0.500 1.000
Cr4 Cr 0.500 0.500 0.500
H1 H 0.208378 0.161722 0.441836
H4 H 0.318383 0.296313 0.443536
Cr1_3 Cr 0.000 1.000 0.000
O8 O 0.073(1) 0.888(1) 0.090(2)
Cr1_4 Cr 0.000 1.000 1.000
O1 O 0.002(2) 0.922(1) 0.750
Cr2_2 Cr -0.000 1.000 0.500
Cr1_5 Cr 1.000 0.000 0.000
O6 O 0.998(2) 0.078(1) 0.250
Cr1_6 Cr 1.000 0.000 1.000
Cr2_3 Cr 1.000 0.000 0.500
O9 O 0.927(1) 0.112(1) 0.910(2)
Cr1_7 Cr 1.000 1.000 0.000
O7 O 0.911(1) 0.911(1) 0.087(2)
Cr1_8 Cr 1.000 1.000 1.000
Cr2_4 Cr 1.000 1.000 0.500
O9_2 O 0.073(1) 0.888(1) 0.410(2)
O8_2 O 0.927(1) 0.112(1) 0.590(2)
O2_2 O 0.911(1) 0.911(1) 0.413(2)
O3_2 O 0.573(1) 0.612(1) 0.410(2)
C1_2 C 0.608(2) 0.643(3) 0.250
C2_2 C 0.877(2) 0.883(4) 0.250
C3_2 C 0.671(2) 0.713(3) 0.250
C4_2 C 0.809(2) 0.820(4) 0.250
C5_2 C 0.771(1) 0.802(2) 0.422(2)
C6_2 C 0.705(1) 0.736(2) 0.420(2)
O4_2 O 0.573(1) 0.612(1) 0.090(2)
C7_2 C 0.705(1) 0.736(2) 0.080(2)
C8_2 C 0.771(1) 0.802(2) 0.078(2)
H2_2 H 0.681617 0.703687 0.556464
H3_2 H 0.791622 0.838278 0.558164
H1_2 H 0.791622 0.838278 0.941836
H4_2 H 0.681617 0.703687 0.943536
H1_3 H 0.708378 0.338278 0.0581641
H4_3 H 0.818383 0.203687 0.056464
O1_2 O 0.502(2) 0.578(1) 0.750
O2_3 O 0.589(1) 0.411(1) 0.587(2)
C1_3 C 0.892(2) 0.143(3) 0.750
C2_3 C 0.623(2) 0.383(4) 0.750
C3_3 C 0.829(2) 0.213(3) 0.750
C4_3 C 0.691(2) 0.320(4) 0.750
C5_3 C 0.729(1) 0.302(2) 0.578(2)
C6_3 C 0.795(1) 0.236(2) 0.580(2)
O5_2 O 0.589(1) 0.411(1) 0.913(2)
C7_3 C 0.795(1) 0.236(2) 0.920(2)
C8_3 C 0.729(1) 0.302(2) 0.922(2)
O6_2 O 0.498(2) 0.422(1) 0.250
O7_2 O 0.411(1) 0.589(1) 0.413(2)
H2_3 H 0.818383 0.203687 0.443536
H3_3 H 0.708378 0.338278 0.441836
O2_4 O 0.411(1) 0.589(1) 0.087(2)
C1_4 C 0.108(2) 0.857(3) 0.250
C2_4 C 0.377(2) 0.617(4) 0.250
C3_4 C 0.171(2) 0.787(3) 0.250
C4_4 C 0.309(2) 0.680(4) 0.250
C5_4 C 0.271(1) 0.698(2) 0.078(2)
C6_4 C 0.205(1) 0.764(2) 0.080(2)
C7_4 C 0.205(1) 0.764(2) 0.420(2)
C8_4 C 0.271(1) 0.698(2) 0.422(2)
H1_4 H 0.291622 0.661722 0.558164
H4_4 H 0.181617 0.796313 0.556464
H2_4 H 0.181617 0.796313 0.943536
H3_4 H 0.291622 0.661722 0.941836
loop_
_geom_bond_atom_site_label_1
_geom_bond_atom_site_label_2
_geom_bond_site_symmetry_1
_geom_bond_site_symmetry_2
O2 Cr1_2 1_555 1_555
O3 C1 1_555 1_555
C1 C3 1_555 1_555
C2 O2 1_555 1_555
C3 C6 1_555 1_555
C4 C2 1_555 1_555
C5 C4 1_555 1_555
C6 C5 1_555 1_555
O4 C1 1_555 1_555
O5 C2 1_555 1_555
C7 C3 1_555 1_555
C8 C4 1_555 1_555
Cr2 O5 1_555 1_555
Cr3_2 O3 1_555 1_555
Cr4 O4 1_555 1_555
C7 C8 1_555 1_555
C8 H1 1_555 1_555
C7 H4 1_555 1_555
O8 Cr1_3 1_555 1_555
Cr1_4 O1 1_555 1_555
O1 Cr2_2 1_555 1_555
O6 Cr1_5 1_555 1_555
O9 Cr1_6 1_555 1_555
O7 Cr1_7 1_555 1_555
O9_2 Cr2_2 1_555 1_555
Cr2_3 O6 1_555 1_555
O8_2 Cr2_3 1_555 1_555
O2_2 Cr2_4 1_555 1_555
O3_2 C1_2 1_555 1_555
C1_2 C3_2 1_555 1_555
C2_2 O2_2 1_555 1_555
C3_2 C6_2 1_555 1_555
C4_2 C2_2 1_555 1_555
C5_2 C4_2 1_555 1_555
C6_2 C5_2 1_555 1_555
O4_2 C1_2 1_555 1_555
O7 C2_2 1_555 1_555
C7_2 C3_2 1_555 1_555
C8_2 C4_2 1_555 1_555
Cr4 O3_2 1_555 1_555
Cr3 O4_2 1_555 1_555
C7_2 C8_2 1_555 1_555
C6_2 H2_2 1_555 1_555
C5_2 H3_2 1_555 1_555
Cr4 O1_2 1_555 1_555
O1_2 Cr3_2 1_555 1_555
O2_3 Cr4 1_555 1_555
O8_2 C1_3 1_555 1_555
C1_3 C3_3 1_555 1_555
C2_3 O2_3 1_555 1_555
C3_3 C6_3 1_555 1_555
C4_3 C2_3 1_555 1_555
C5_3 C4_3 1_555 1_555
C6_3 C5_3 1_555 1_555
O9 C1_3 1_555 1_555
O5_2 C2_3 1_555 1_555
C7_3 C3_3 1_555 1_555
C8_3 C4_3 1_555 1_555
O6_2 Cr4 1_555 1_555
O7_2 Cr4 1_555 1_555
Cr3_2 O5_2 1_555 1_555
C7_3 C8_3 1_555 1_555
C6_3 H2_3 1_555 1_555
C5_3 H3_3 1_555 1_555
Cr3 O6_2 1_555 1_555
O2_4 Cr3 1_555 1_555
O8 C1_4 1_555 1_555
C1_4 C3_4 1_555 1_555
C2_4 O2_4 1_555 1_555
C3_4 C6_4 1_555 1_555
C4_4 C2_4 1_555 1_555
C5_4 C4_4 1_555 1_555
C6_4 C5_4 1_555 1_555
O9_2 C1_4 1_555 1_555
O7_2 C2_4 1_555 1_555
C7_4 C3_4 1_555 1_555
C8_4 C4_4 1_555 1_555
C7_4 C8_4 1_555 1_555
C8_4 H1_4 1_555 1_555
C7_4 H4_4 1_555 1_555

#END
