
###############################################################################
#
# This file contains modified crystal structure data generated from the
# MOF subset of the Cambridge Structural Database (CSD) v543 
# hosted by the Cambridge Crystallographic Data Centre (CCDC).
#
# This work is licensed under the Creative Commons
# Attribution-NonCommercial-ShareAlike 4.0 International License.
# To view a copy of this license, visit
# http://creativecommons.org/licenses/by-nc-sa/4.0/
# or send a letter to
# Creative Commons, PO Box 1866, Mountain View, CA 94042, USA.
#
# CIF created using the CSD Python API on 29 September 2022
# The structure has been converted into the P1 space group
# The structure has a 3D framework
# The original CSD entry MINVUA02 is in the orthorhombic crystal system
# The framework has been calculated to contain at least 10.0% void space
# The void calculation uses a probe of radius 1.32A, grid spacing 0.4
#
###############################################################################

data_MINVUA02
_chemical_formula_moiety         '(C40 H16 Cr4 O20)n'
_symmetry_cell_setting           triclinic
_symmetry_space_group_name_H-M   'P 1'
_symmetry_Int_Tables_number      1
_space_group_name_Hall           'P 1'
loop_
_symmetry_equiv_pos_site_id
_symmetry_equiv_pos_as_xyz
1 x,y,z
_cell_length_a                   16.772(8)
_cell_length_b                   13.145(5)
_cell_length_c                   6.847(5)
_cell_angle_alpha                90
_cell_angle_beta                 90
_cell_angle_gamma                90
_cell_volume                     1509.54
loop_
_atom_site_label
_atom_site_type_symbol
_atom_site_fract_x
_atom_site_fract_y
_atom_site_fract_z
_atom_site_U_iso_or_equiv
_atom_site_thermal_displace_type
O1 O 0.250 0.7 0.000 0.0100 Uiso
O2 O 0.165 0.843 0.154 0.0075 Uiso
C2 C 0.069 0.936 0.000 0.0100 Uiso
C3 C 0.142 0.869 0.000 0.0200 Uiso
Cr1 Cr 0.250 0.750 0.250 0.0250 Uiso
C7 C 0.033 0.966 0.168 0.0300 Uiso
D3 D 0.056 0.943 0.31 0.0400 Uiso
O6 O 0.250 0.8 0.500 0.0100 Uiso
O7 O 0.335 0.843 0.154 0.0075 Uiso
O8 O 0.335 0.657 0.346 0.0075 Uiso
O9 O 0.165 0.657 0.346 0.0075 Uiso
O1_2 O 0.250 0.7 1.000 0.0100 Uiso
C1 C 0.033 0.966 0.832 0.0300 Uiso
C2_2 C 0.069 0.936 1.000 0.0100 Uiso
C3_2 C 0.142 0.869 1.000 0.0200 Uiso
D1 D 0.056 0.943 0.69 0.0400 Uiso
O4 O 0.165 0.843 0.846 0.0075 Uiso
Cr2 Cr 0.250 0.750 0.750 0.0250 Uiso
O3 O 0.835 0.157 0.154 0.0075 Uiso
C4 C 0.931 0.064 0.000 0.0100 Uiso
C5 C 0.858 0.131 0.000 0.0200 Uiso
C8 C 0.967 0.034 0.168 0.0300 Uiso
D4 D 0.944 0.057 0.31 0.0400 Uiso
Cr4 Cr 0.750 0.250 0.250 0.0250 Uiso
C4_2 C 0.931 0.064 1.000 0.0100 Uiso
C5_2 C 0.858 0.131 1.000 0.0200 Uiso
C6 C 0.967 0.034 0.832 0.0300 Uiso
D2 D 0.944 0.057 0.69 0.0400 Uiso
O5 O 0.835 0.157 0.846 0.0075 Uiso
Cr3 Cr 0.750 0.250 0.750 0.0250 Uiso
O2_2 O 0.335 0.657 0.654 0.0075 Uiso
C1_2 C 0.467 0.534 0.332 0.0300 Uiso
C2_3 C 0.431 0.564 0.500 0.0100 Uiso
C3_3 C 0.358 0.631 0.500 0.0200 Uiso
D1_2 D 0.444 0.557 0.19 0.0400 Uiso
O3_2 O 0.665 0.343 0.654 0.0075 Uiso
C4_3 C 0.569 0.436 0.500 0.0100 Uiso
C5_3 C 0.642 0.369 0.500 0.0200 Uiso
C6_2 C 0.533 0.466 0.332 0.0300 Uiso
D2_2 D 0.556 0.443 0.19 0.0400 Uiso
C7_2 C 0.467 0.534 0.668 0.0300 Uiso
D3_2 D 0.444 0.557 0.81 0.0400 Uiso
O5_2 O 0.665 0.343 0.346 0.0075 Uiso
C8_2 C 0.533 0.466 0.668 0.0300 Uiso
D4_2 D 0.556 0.443 0.81 0.0400 Uiso
O7_2 O 0.165 0.657 0.654 0.0075 Uiso
O9_2 O 0.335 0.843 0.846 0.0075 Uiso
O1_3 O 0.750 0.3 0.000 0.0100 Uiso
C1_3 C 0.533 0.034 0.168 0.0300 Uiso
C2_4 C 0.569 0.064 0.000 0.0100 Uiso
C3_4 C 0.642 0.131 0.000 0.0200 Uiso
D1_3 D 0.556 0.057 0.31 0.0400 Uiso
O4_2 O 0.665 0.157 0.154 0.0075 Uiso
O1_4 O 0.750 0.3 1.000 0.0100 Uiso
O2_3 O 0.665 0.157 0.846 0.0075 Uiso
C2_5 C 0.569 0.064 1.000 0.0100 Uiso
C3_5 C 0.642 0.131 1.000 0.0200 Uiso
C7_3 C 0.533 0.034 0.832 0.0300 Uiso
D3_3 D 0.556 0.057 0.69 0.0400 Uiso
O6_2 O 0.750 0.2 0.500 0.0100 Uiso
O8_2 O 0.835 0.343 0.654 0.0075 Uiso
C4_4 C 0.431 0.936 0.000 0.0100 Uiso
C5_4 C 0.358 0.869 0.000 0.0200 Uiso
C6_3 C 0.467 0.966 0.168 0.0300 Uiso
D2_3 D 0.444 0.943 0.31 0.0400 Uiso
C4_5 C 0.431 0.936 1.000 0.0100 Uiso
C5_5 C 0.358 0.869 1.000 0.0200 Uiso
C8_3 C 0.467 0.966 0.832 0.0300 Uiso
D4_3 D 0.444 0.943 0.69 0.0400 Uiso
C4_6 C 0.069 0.564 0.500 0.0100 Uiso
C5_6 C 0.142 0.631 0.500 0.0200 Uiso
C6_4 C 0.033 0.534 0.668 0.0300 Uiso
D2_4 D 0.056 0.557 0.81 0.0400 Uiso
C8_4 C 0.033 0.534 0.332 0.0300 Uiso
D4_4 D 0.056 0.557 0.19 0.0400 Uiso
O2_4 O 0.835 0.343 0.346 0.0075 Uiso
C1_4 C 0.967 0.466 0.668 0.0300 Uiso
C2_6 C 0.931 0.436 0.500 0.0100 Uiso
C3_6 C 0.858 0.369 0.500 0.0200 Uiso
D1_4 D 0.944 0.443 0.81 0.0400 Uiso
C7_4 C 0.967 0.466 0.332 0.0300 Uiso
D3_4 D 0.944 0.443 0.19 0.0400 Uiso
loop_
_geom_bond_atom_site_label_1
_geom_bond_atom_site_label_2
_geom_bond_site_symmetry_1
_geom_bond_site_symmetry_2
O1 Cr1 1_555 1_555
O2 C3 1_555 1_555
C2 C3 1_555 1_555
Cr1 O2 1_555 1_555
C7 C2 1_555 1_555
D3 C7 1_555 1_555
O6 Cr1 1_555 1_555
O7 Cr1 1_555 1_555
O8 Cr1 1_555 1_555
O9 Cr1 1_555 1_555
C1 C2_2 1_555 1_555
C2_2 C3_2 1_555 1_555
C3_2 O4 1_555 1_555
D1 C1 1_555 1_555
O4 Cr2 1_555 1_555
Cr2 O1_2 1_555 1_555
O3 C5 1_555 1_555
C4 C5 1_555 1_555
C8 C4 1_555 1_555
D4 C8 1_555 1_555
Cr4 O3 1_555 1_555
C4_2 C5_2 1_555 1_555
C5_2 O5 1_555 1_555
D2 C6 1_555 1_555
O5 Cr3 1_555 1_555
C4_2 C6 1_555 1_555
O6 Cr2 1_555 1_555
O2_2 C3_3 1_555 1_555
C1_2 C2_3 1_555 1_555
C2_3 C3_3 1_555 1_555
C3_3 O8 1_555 1_555
Cr2 O2_2 1_555 1_555
D1_2 C1_2 1_555 1_555
O3_2 C5_3 1_555 1_555
C4_3 C5_3 1_555 1_555
C5_3 O5_2 1_555 1_555
C6_2 C1_2 1_555 1_555
D2_2 C6_2 1_555 1_555
C7_2 C2_3 1_555 1_555
D3_2 C7_2 1_555 1_555
O5_2 Cr4 1_555 1_555
C8_2 C4_3 1_555 1_555
D4_2 C8_2 1_555 1_555
O7_2 Cr2 1_555 1_555
O9_2 Cr2 1_555 1_555
Cr3 O3_2 1_555 1_555
C4_3 C6_2 1_555 1_555
C7_2 C8_2 1_555 1_555
C1_3 C2_4 1_555 1_555
C2_4 C3_4 1_555 1_555
C3_4 O4_2 1_555 1_555
D1_3 C1_3 1_555 1_555
O4_2 Cr4 1_555 1_555
Cr4 O1_3 1_555 1_555
O1_4 Cr3 1_555 1_555
O2_3 C3_5 1_555 1_555
C2_5 C3_5 1_555 1_555
Cr3 O2_3 1_555 1_555
C7_3 C2_5 1_555 1_555
D3_3 C7_3 1_555 1_555
O6_2 Cr3 1_555 1_555
O8_2 Cr3 1_555 1_555
C4_4 C5_4 1_555 1_555
C5_4 O7 1_555 1_555
D2_3 C6_3 1_555 1_555
C4_4 C6_3 1_555 1_555
O9_2 C5_5 1_555 1_555
C4_5 C5_5 1_555 1_555
C8_3 C4_5 1_555 1_555
D4_3 C8_3 1_555 1_555
O9 C5_6 1_555 1_555
C4_6 C5_6 1_555 1_555
C5_6 O7_2 1_555 1_555
D2_4 C6_4 1_555 1_555
C8_4 C4_6 1_555 1_555
D4_4 C8_4 1_555 1_555
C4_6 C6_4 1_555 1_555
O6_2 Cr4 1_555 1_555
O2_4 C3_6 1_555 1_555
C1_4 C2_6 1_555 1_555
C2_6 C3_6 1_555 1_555
C3_6 O8_2 1_555 1_555
Cr4 O2_4 1_555 1_555
D1_4 C1_4 1_555 1_555
C7_4 C2_6 1_555 1_555
D3_4 C7_4 1_555 1_555

#END
