
###############################################################################
#
# This file contains modified crystal structure data generated from the
# MOF subset of the Cambridge Structural Database (CSD) v543 
# hosted by the Cambridge Crystallographic Data Centre (CCDC).
#
# This work is licensed under the Creative Commons
# Attribution-NonCommercial-ShareAlike 4.0 International License.
# To view a copy of this license, visit
# http://creativecommons.org/licenses/by-nc-sa/4.0/
# or send a letter to
# Creative Commons, PO Box 1866, Mountain View, CA 94042, USA.
#
# CIF created using the CSD Python API on 29 September 2022
# The structure has been converted into the P1 space group
# The structure has a 3D framework
# The original CSD entry MINVUA is in the orthorhombic crystal system
# The framework has been calculated to contain at least 10.0% void space
# The void calculation uses a probe of radius 1.32A, grid spacing 0.4
# H atom positions have been added when not included in the experimental data
#
###############################################################################

data_MINVUA
_chemical_formula_moiety         '(C40 H16 Cr3 O18)n'
_symmetry_cell_setting           triclinic
_symmetry_space_group_name_H-M   'P 1'
_symmetry_Int_Tables_number      1
_space_group_name_Hall           'P 1'
loop_
_symmetry_equiv_pos_site_id
_symmetry_equiv_pos_as_xyz
1 x,y,z
_cell_length_a                   6.812(1)
_cell_length_b                   16.733(1)
_cell_length_c                   13.038(1)
_cell_angle_alpha                90
_cell_angle_beta                 90
_cell_angle_gamma                90
_cell_volume                     1486.14
loop_
_atom_site_label
_atom_site_type_symbol
_atom_site_fract_x
_atom_site_fract_y
_atom_site_fract_z
_atom_site_U_iso_or_equiv
_atom_site_thermal_displace_type
Cr1 Cr 0.250 0.250 0.750 0.2500 Uiso
O1 O -0.000 0.250 0.686(1) 0.2500 Uiso
O2 O 0.150(1) 0.166(1) 0.843(1) 1.0000 Uiso
C2 C 0.000 0.054(1) 0.961(2) 0.5000 Uiso
C3 C 0.000 0.125(1) 0.888(2) 0.5000 Uiso
C7 C 0.196(1) 0.040(1) 0.982(1) 1.0000 Uiso
O6 O 0.500 0.250 0.814(1) 0.2500 Uiso
O7 O 0.350(1) 0.166(1) 0.657(1) 1.0000 Uiso
O8 O 0.150(1) 0.334(1) 0.843(1) 1.0000 Uiso
O9 O 0.350(1) 0.334(1) 0.657(1) 1.0000 Uiso
H4 H 0.32 0.0804843 0.973082 . .
C5 C 0.000 0.946(1) 0.039(2) 0.5000 Uiso
C6 C 0.196(1) 0.960(1) 0.018(1) 1.0000 Uiso
C8 C 0.000 0.875(1) 0.112(2) 0.5000 Uiso
O4 O 0.150(1) 0.834(1) 0.157(1) 1.0000 Uiso
Cr3 Cr 0.250 0.750 0.250 0.2500 Uiso
H2 H 0.32 0.919516 0.0269179 . .
O1_2 O 1.000 0.250 0.686(1) 0.2500 Uiso
C1 C 0.804(1) 0.040(1) 0.982(1) 1.0000 Uiso
C2_2 C 1.000 0.054(1) 0.961(2) 0.5000 Uiso
C3_2 C 1.000 0.125(1) 0.888(2) 0.5000 Uiso
O3 O 0.850(1) 0.166(1) 0.843(1) 1.0000 Uiso
Cr2 Cr 0.750 0.250 0.750 0.2500 Uiso
H3 H 0.68 0.0804843 0.973082 . .
C4 C 0.804(1) 0.960(1) 0.018(1) 1.0000 Uiso
C5_2 C 1.000 0.946(1) 0.039(2) 0.5000 Uiso
C8_2 C 1.000 0.875(1) 0.112(2) 0.5000 Uiso
O5 O 0.850(1) 0.834(1) 0.157(1) 1.0000 Uiso
Cr4 Cr 0.750 0.750 0.250 0.2500 Uiso
H1 H 0.68 0.919516 0.0269179 . .
C4_2 C 0.196(1) 0.540(1) 0.018(1) 1.0000 Uiso
C5_3 C 0.000 0.554(1) 0.039(2) 0.5000 Uiso
C8_3 C -0.000 0.625(1) 0.112(2) 0.5000 Uiso
O5_2 O 0.150(1) 0.666(1) 0.157(1) 1.0000 Uiso
H1_2 H 0.32 0.580484 0.0269179 . .
C1_2 C 0.196(1) 0.460(1) 0.982(1) 1.0000 Uiso
C2_3 C 0.000 0.446(1) 0.961(2) 0.5000 Uiso
C3_3 C 0.000 0.375(1) 0.888(2) 0.5000 Uiso
H3_2 H 0.32 0.419516 0.973082 . .
C5_4 C 1.000 0.554(1) 0.039(2) 0.5000 Uiso
C6_2 C 0.804(1) 0.540(1) 0.018(1) 1.0000 Uiso
C8_4 C 1.000 0.625(1) 0.112(2) 0.5000 Uiso
O4_2 O 0.850(1) 0.666(1) 0.157(1) 1.0000 Uiso
H2_2 H 0.68 0.580484 0.0269179 . .
O2_2 O 0.850(1) 0.334(1) 0.843(1) 1.0000 Uiso
C2_4 C 1.000 0.446(1) 0.961(2) 0.5000 Uiso
C3_4 C 1.000 0.375(1) 0.888(2) 0.5000 Uiso
C7_2 C 0.804(1) 0.460(1) 0.982(1) 1.0000 Uiso
O7_2 O 0.650(1) 0.334(1) 0.657(1) 1.0000 Uiso
O9_2 O 0.650(1) 0.166(1) 0.657(1) 1.0000 Uiso
H4_2 H 0.68 0.419516 0.973082 . .
O1_3 O 0.000 0.750 0.314(1) 0.2500 Uiso
O6_2 O 0.500 0.750 0.186(1) 0.2500 Uiso
O7_3 O 0.350(1) 0.834(1) 0.343(1) 1.0000 Uiso
O9_3 O 0.350(1) 0.666(1) 0.343(1) 1.0000 Uiso
O1_4 O 1.000 0.750 0.314(1) 0.2500 Uiso
O7_4 O 0.650(1) 0.666(1) 0.343(1) 1.0000 Uiso
O9_4 O 0.650(1) 0.834(1) 0.343(1) 1.0000 Uiso
C1_3 C 0.304(1) 0.540(1) 0.482(1) 1.0000 Uiso
C2_5 C 0.500 0.554(1) 0.461(2) 0.5000 Uiso
C3_5 C 0.500 0.625(1) 0.388(2) 0.5000 Uiso
C4_3 C 0.304(1) 0.460(1) 0.518(1) 1.0000 Uiso
C5_5 C 0.500 0.446(1) 0.539(2) 0.5000 Uiso
C6_3 C 0.696(1) 0.460(1) 0.518(1) 1.0000 Uiso
C7_3 C 0.696(1) 0.540(1) 0.482(1) 1.0000 Uiso
C8_5 C 0.500 0.375(1) 0.612(2) 0.5000 Uiso
H1_3 H 0.18 0.419516 0.526918 . .
H2_3 H 0.82 0.419516 0.526918 . .
H3_3 H 0.18 0.580484 0.473082 . .
H4_3 H 0.82 0.580484 0.473082 . .
C4_4 C 0.696(1) 0.040(1) 0.518(1) 1.0000 Uiso
C5_6 C 0.500 0.054(1) 0.539(2) 0.5000 Uiso
C6_4 C 0.304(1) 0.040(1) 0.518(1) 1.0000 Uiso
C8_6 C 0.500 0.125(1) 0.612(2) 0.5000 Uiso
H1_4 H 0.82 0.0804843 0.526918 . .
H2_4 H 0.18 0.0804843 0.526918 . .
C1_4 C 0.696(1) 0.960(1) 0.482(1) 1.0000 Uiso
C2_6 C 0.500 0.946(1) 0.461(2) 0.5000 Uiso
C3_6 C 0.500 0.875(1) 0.388(2) 0.5000 Uiso
C7_4 C 0.304(1) 0.960(1) 0.482(1) 1.0000 Uiso
H3_4 H 0.82 0.919516 0.473082 . .
H4_4 H 0.18 0.919516 0.473082 . .
loop_
_geom_bond_atom_site_label_1
_geom_bond_atom_site_label_2
_geom_bond_site_symmetry_1
_geom_bond_site_symmetry_2
Cr1 O1 1_555 1_555
O2 Cr1 1_555 1_555
C2 C3 1_555 1_555
C3 O2 1_555 1_555
C7 C2 1_555 1_555
O6 Cr1 1_555 1_555
O7 Cr1 1_555 1_555
O8 Cr1 1_555 1_555
O9 Cr1 1_555 1_555
C7 H4 1_555 1_555
C6 C5 1_555 1_555
C8 C5 1_555 1_555
O4 C8 1_555 1_555
Cr3 O4 1_555 1_555
C6 H2 1_555 1_555
O1_2 Cr2 1_555 1_555
C1 C2_2 1_555 1_555
C2_2 C3_2 1_555 1_555
O3 C3_2 1_555 1_555
Cr2 O3 1_555 1_555
C1 H3 1_555 1_555
C5_2 C4 1_555 1_555
C8_2 C5_2 1_555 1_555
O5 C8_2 1_555 1_555
Cr4 O5 1_555 1_555
C4 H1 1_555 1_555
C5_3 C4_2 1_555 1_555
C8_3 C5_3 1_555 1_555
O5_2 C8_3 1_555 1_555
Cr3 O5_2 1_555 1_555
C4_2 H1_2 1_555 1_555
C1_2 C2_3 1_555 1_555
C2_3 C3_3 1_555 1_555
O8 C3_3 1_555 1_555
C1_2 H3_2 1_555 1_555
C6_2 C5_4 1_555 1_555
C8_4 C5_4 1_555 1_555
O4_2 C8_4 1_555 1_555
Cr4 O4_2 1_555 1_555
C6_2 H2_2 1_555 1_555
O2_2 Cr2 1_555 1_555
C2_4 C3_4 1_555 1_555
C3_4 O2_2 1_555 1_555
C7_2 C2_4 1_555 1_555
O6 Cr2 1_555 1_555
O7_2 Cr2 1_555 1_555
O9_2 Cr2 1_555 1_555
C7_2 H4_2 1_555 1_555
Cr3 O1_3 1_555 1_555
O6_2 Cr3 1_555 1_555
O7_3 Cr3 1_555 1_555
O9_3 Cr3 1_555 1_555
O1_4 Cr4 1_555 1_555
O6_2 Cr4 1_555 1_555
O7_4 Cr4 1_555 1_555
O9_4 Cr4 1_555 1_555
C1_3 C2_5 1_555 1_555
C2_5 C3_5 1_555 1_555
C3_5 O7_4 1_555 1_555
O9_3 C3_5 1_555 1_555
C4_3 C1_3 1_555 1_555
C5_5 C4_3 1_555 1_555
C6_3 C5_5 1_555 1_555
C7_3 C2_5 1_555 1_555
C8_5 C5_5 1_555 1_555
O7_2 C8_5 1_555 1_555
O9 C8_5 1_555 1_555
C6_3 C7_3 1_555 1_555
C4_3 H1_3 1_555 1_555
C6_3 H2_3 1_555 1_555
C1_3 H3_3 1_555 1_555
C7_3 H4_3 1_555 1_555
C5_6 C4_4 1_555 1_555
C6_4 C5_6 1_555 1_555
C8_6 C5_6 1_555 1_555
O7 C8_6 1_555 1_555
O9_2 C8_6 1_555 1_555
C4_4 H1_4 1_555 1_555
C6_4 H2_4 1_555 1_555
C1_4 C2_6 1_555 1_555
C2_6 C3_6 1_555 1_555
C3_6 O7_3 1_555 1_555
O9_4 C3_6 1_555 1_555
C7_4 C2_6 1_555 1_555
C1_4 H3_4 1_555 1_555
C7_4 H4_4 1_555 1_555

#END
