
###############################################################################
#
# This file contains modified crystal structure data generated from the
# MOF subset of the Cambridge Structural Database (CSD) v543 
# hosted by the Cambridge Crystallographic Data Centre (CCDC).
#
# This work is licensed under the Creative Commons
# Attribution-NonCommercial-ShareAlike 4.0 International License.
# To view a copy of this license, visit
# http://creativecommons.org/licenses/by-nc-sa/4.0/
# or send a letter to
# Creative Commons, PO Box 1866, Mountain View, CA 94042, USA.
#
# CIF created using the CSD Python API on 29 September 2022
# The structure has been converted into the P1 space group
# The structure has a 3D framework
# The original CSD entry MIPQAF is in the monoclinic crystal system
# The framework has been calculated to contain at least 10.0% void space
# The void calculation uses a probe of radius 1.32A, grid spacing 0.4
#
###############################################################################

data_MIPQAF
_chemical_formula_moiety         '(C192 H96 Ag8 N56 O72)n'
_symmetry_cell_setting           triclinic
_symmetry_space_group_name_H-M   'P 1'
_symmetry_Int_Tables_number      1
_space_group_name_Hall           'P 1'
loop_
_symmetry_equiv_pos_site_id
_symmetry_equiv_pos_as_xyz
1 x,y,z
_cell_length_a                   29.2291(11)
_cell_length_b                   20.7698(8)
_cell_length_c                   9.1567(4)
_cell_angle_alpha                90
_cell_angle_beta                 98.3360(10)
_cell_angle_gamma                90
_cell_volume                     5500.14
loop_
_atom_site_label
_atom_site_type_symbol
_atom_site_fract_x
_atom_site_fract_y
_atom_site_fract_z
Ag1 Ag 0.150727(6) 0.796894(9) 0.48330(2)
N1 N 0.07262(6) 0.79762(9) 0.4375(2)
C1 C 0.00548(8) 0.85894(10) 0.4423(2)
C2 C 0.04992(7) 0.84204(11) 0.5041(2)
H1 H 0.0641 0.8618 0.5927
C3 C 0.05148(8) 0.77036(11) 0.3144(3)
H2 H 0.0666 0.7378 0.2665
C4 C 0.00725(8) 0.78982(11) 0.2569(3)
N13 N 0.16929(7) 0.83223(10) 0.8250(2)
O13 O 0.19145(7) 0.87255(9) 0.7646(2)
O14 O 0.17376(7) 0.82729(10) 0.96122(19)
O15 O 0.14209(6) 0.79455(9) 0.74672(19)
Ag4 Ag 0.150727(6) 0.703106(9) 0.98330(2)
N15 N 0.21869(6) 0.82314(10) 0.4166(2)
O19 O 0.17376(7) 0.67271(10) 0.46122(19)
N5 N 0.91582(10) 0.09110(11) 0.7916(3)
C22 C 0.91533(10) 0.10201(13) 0.9350(3)
H11 H 0.9158 0.1449 0.9711
C23 C 0.91463(11) 0.03032(14) 0.7465(3)
H12 H 0.9146 0.0209 0.6450
O9 O 0.71574(6) 0.21838(9) 0.86968(19)
O10 O 0.67684(6) 0.09334(9) 0.45293(18)
O11 O 0.51522(5) 0.10787(8) 0.49720(18)
O12 O 0.55446(6) 0.23583(10) 0.9090(2)
N8 N 0.62592(7) 0.00207(9) 0.9370(2)
N9 N 0.69499(6) 0.15420(10) 0.6645(2)
N10 N 0.78131(6) 0.17686(10) 0.5834(2)
N11 N 0.44354(8) 0.20044(12) 0.7048(3)
N12 N 0.53617(7) 0.16978(10) 0.7058(2)
C29 C 0.75033(8) 0.14070(12) 0.4992(3)
H15 H 0.7575 0.1225 0.4100
C30 C 0.70748(8) 0.12987(11) 0.5432(2)
C31 C 0.72635(8) 0.19018(11) 0.7447(3)
C32 C 0.76995(8) 0.20177(11) 0.7078(3)
H16 H 0.7916 0.2272 0.7704
C33 C 0.55859(8) 0.07749(11) 0.5297(2)
C34 C 0.56123(8) 0.02243(11) 0.6150(2)
H17 H 0.5346 0.0053 0.6493
C36 C 0.64268(8) 0.01587(11) 0.5974(2)
C37 C 0.63798(8) 0.07060(11) 0.5107(2)
C38 C 0.59636(8) 0.10227(11) 0.4747(2)
H19 H 0.5939 0.1397 0.4144
C39 C 0.59702(8) 0.20311(12) 0.9402(3)
C43 C 0.67620(8) 0.19482(11) 0.9223(3)
C44 C 0.63488(8) 0.22709(12) 0.8855(3)
H22 H 0.6327 0.2644 0.8249
C45 C 0.50314(8) 0.14687(11) 0.6058(3)
C46 C 0.45662(8) 0.16109(13) 0.6037(3)
H23 H 0.4341 0.1427 0.5302
C47 C 0.47623(9) 0.22514(15) 0.8050(3)
H24 H 0.4681 0.2540 0.8775
C48 C 0.52216(9) 0.20904(13) 0.8041(3)
Ag3 Ag 0.849273(6) 0.203106(9) 0.51670(2)
Ag5 Ag 0.356007(7) 0.201494(9) 0.74442(2)
Ag2 Ag 0.643993(7) 0.798506(9) 0.25558(2)
N2 N 0.98374(6) 0.83378(9) 0.3191(2)
N3 N 0.82169(7) 0.84456(10) 0.2152(2)
N4 N 0.73181(8) 0.80833(11) 0.2413(3)
O1 O 0.98276(6) 0.90351(8) 0.51431(17)
O2 O 0.98702(6) 0.76199(9) 0.12827(19)
O3 O 0.82181(6) 0.76947(9) 0.0296(2)
O4 O 0.81804(6) 0.91921(9) 0.4001(2)
C5 C 0.75312(9) 0.85437(13) 0.3262(3)
H3 H 0.7376 0.8754 0.3971
C6 C 0.79794(8) 0.87158(12) 0.3110(3)
C7 C 0.79949(9) 0.79919(12) 0.1322(3)
C8 C 0.75473(9) 0.78019(14) 0.1434(3)
H4 H 0.7404 0.7471 0.0813
C10 C 0.94896(8) 0.98255(11) 0.3412(2)
H5 H 0.9789 0.9976 0.3289
C11 C 0.94328(8) 0.93127(11) 0.4327(2)
C12 C 0.90040(8) 0.90840(11) 0.4521(2)
H6 H 0.8972 0.8726 0.5144
C13 C 0.86223(8) 0.93945(11) 0.3775(2)
C14 C 0.86584(8) 0.99118(11) 0.2859(3)
C17 C 0.94627(8) 0.79099(11) 0.0580(3)
C18 C 0.90432(8) 0.76671(11) 0.0838(3)
H9 H 0.9026 0.7319 0.1500
C19 C 0.86493(8) 0.79498(11) 0.0096(3)
N7 N 0.63542(7) 0.89245(10) 0.1123(2)
C27 C 0.64217(9) 0.95087(13) 0.1721(3)
H14 H 0.6504 0.9555 0.2758
N14 N 0.65798(7) 0.81944(10) 0.5823(2)
O16 O 0.66484(9) 0.81846(10) 0.7194(2)
O17 O 0.64370(8) 0.76921(10) 0.5157(2)
O18 O 0.66563(7) 0.86801(9) 0.5108(2)
Ag6 Ag 0.643993(7) 0.701494(9) 0.75558(2)
N16 N 0.55646(8) 0.79956(12) 0.2952(3)
O20 O 0.66484(9) 0.68154(10) 0.2194(2)
O21 O 0.64370(8) 0.73079(10) 0.0157(2)
Ag2_2 Ag 0.356007(7) 0.298506(9) 0.24442(2)
N2_2 N 0.01626(6) 0.33378(9) 0.1809(2)
N3_2 N 0.17831(7) 0.34456(10) 0.2848(2)
N4_2 N 0.26819(8) 0.30833(11) 0.2587(3)
N5_2 N 0.08418(10) 0.59110(11) 0.7084(3)
N6 N 0.08656(7) 0.49018(9) 0.5113(2)
O2_2 O 0.01298(6) 0.26199(9) 0.37173(19)
O3_2 O 0.17819(6) 0.26947(9) 0.4704(2)
O4_2 O 0.18196(6) 0.41921(9) 0.0999(2)
O5 O 0.08570(7) 0.56430(8) 0.32313(18)
O6 O 0.08790(8) 0.41902(9) 0.70602(19)
C5_2 C 0.24688(9) 0.35437(13) 0.1738(3)
H3_2 H 0.2624 0.3754 0.1029
C6_2 C 0.20206(8) 0.37158(12) 0.1890(3)
C7_2 C 0.20051(9) 0.29919(12) 0.3678(3)
C8_2 C 0.24527(9) 0.28019(14) 0.3566(3)
H4_2 H 0.2596 0.2471 0.4187
C9 C 0.09048(8) 0.51119(11) 0.2315(2)
C10_2 C 0.05104(8) 0.48255(11) 0.1588(2)
H5_2 H 0.0211 0.4976 0.1711
C11_2 C 0.05672(8) 0.43127(11) 0.0673(2)
C12_2 C 0.09960(8) 0.40840(11) 0.0479(2)
C13_2 C 0.13777(8) 0.43945(11) 0.1225(2)
C14_2 C 0.13416(8) 0.49118(11) 0.2141(3)
H7 H 0.1609 0.5122 0.2634
C15 C 0.09060(9) 0.36887(11) 0.6055(2)
C16 C 0.05007(8) 0.34173(11) 0.5360(3)
H8 H 0.0208 0.3575 0.5526
C17_2 C 0.05373(8) 0.29099(11) 0.4420(3)
C18_2 C 0.09568(8) 0.26671(11) 0.4162(3)
H9_2 H 0.0974 0.2319 0.3500
C19_2 C 0.13507(8) 0.29498(11) 0.4904(3)
C20 C 0.13341(8) 0.34615(12) 0.5852(3)
H10 H 0.1609 0.3651 0.6350
C21 C 0.08586(8) 0.55085(11) 0.4690(3)
C22_2 C 0.08467(10) 0.60201(13) 0.5650(3)
H11_2 H 0.0842 0.6449 0.5289
C23_2 C 0.08537(11) 0.53032(14) 0.7535(3)
H12_2 H 0.0854 0.5209 0.8550
C24 C 0.08658(9) 0.48058(12) 0.6535(3)
O7 O 0.39380(6) 0.43678(8) 0.76668(17)
O8 O 0.35588(8) 0.56322(9) 0.35112(19)
O9_2 O 0.28426(6) 0.71838(9) 0.63032(19)
O12_2 O 0.44554(6) 0.73583(10) 0.5910(2)
N7_2 N 0.36458(7) 0.39245(10) 0.3877(2)
N8_2 N 0.37408(7) 0.50207(9) 0.5630(2)
N9_2 N 0.30501(6) 0.65420(10) 0.8355(2)
N10_2 N 0.21869(6) 0.67686(10) 0.9166(2)
N11_2 N 0.55646(8) 0.70044(12) 0.7952(3)
N12_2 N 0.46383(7) 0.66978(10) 0.7942(2)
C25 C 0.38073(8) 0.44379(11) 0.6189(3)
C26 C 0.37601(9) 0.38787(12) 0.5338(3)
H13 H 0.3809 0.3469 0.5794
C27_2 C 0.35783(9) 0.45087(13) 0.3279(3)
H14_2 H 0.3496 0.4555 0.2242
C28 C 0.36283(9) 0.50467(12) 0.4177(3)
C30_2 C 0.29252(8) 0.62987(11) 0.9568(2)
C31_2 C 0.27365(8) 0.69018(11) 0.7553(3)
C32_2 C 0.23005(8) 0.70177(11) 0.7922(3)
H16_2 H 0.2084 0.7272 0.7296
C33_2 C 0.44141(8) 0.57749(11) 0.9703(2)
C34_2 C 0.43877(8) 0.52243(11) 0.8850(2)
H17_2 H 0.4654 0.5053 0.8507
C35 C 0.39636(8) 0.49308(11) 0.8513(2)
C36_2 C 0.35732(8) 0.51587(11) 0.9026(2)
H18 H 0.3283 0.4948 0.8792
C37_2 C 0.36202(8) 0.57060(11) 0.9893(2)
C39_2 C 0.40298(8) 0.70311(12) 0.5598(3)
C40 C 0.40074(9) 0.64887(13) 0.4734(3)
H20 H 0.4274 0.6331 0.4367
C41 C 0.35890(9) 0.61796(12) 0.4413(3)
C42 C 0.31951(8) 0.64055(12) 0.4908(3)
H21 H 0.2906 0.6195 0.4659
C43_2 C 0.32380(8) 0.69482(11) 0.5777(3)
C44_2 C 0.36512(8) 0.72709(12) 0.6145(3)
H22_2 H 0.3673 0.7644 0.6751
C45_2 C 0.49686(8) 0.64687(11) 0.8942(3)
C46_2 C 0.54338(8) 0.66109(13) 0.8963(3)
H23_2 H 0.5659 0.6427 0.9698
C47_2 C 0.52377(9) 0.72514(15) 0.6950(3)
H24_2 H 0.5319 0.7540 0.6225
C48_2 C 0.47784(9) 0.70904(13) 0.6959(3)
N16_2 N 0.44354(8) 0.29956(12) 0.2048(3)
O20_2 O 0.33516(9) 0.18154(10) 0.2806(2)
O21_2 O 0.35630(8) 0.23079(10) 0.4843(2)
O1_2 O 0.01724(6) 0.40351(8) 0.98569(17)
H6_2 H 0.1028 0.3726 0.9856
N14_2 N 0.34202(7) 0.31944(10) 0.9177(2)
O16_2 O 0.33516(9) 0.31846(10) 0.7806(2)
O17_2 O 0.35630(8) 0.26921(10) 0.9843(2)
O18_2 O 0.33437(7) 0.36801(9) 0.9892(2)
Ag1_2 Ag 0.849273(6) 0.296894(9) 0.01670(2)
N1_2 N 0.92738(6) 0.29762(9) 0.0625(2)
C1_2 C 0.99452(8) 0.35894(10) 0.0577(2)
C3_2 C 0.94852(8) 0.27036(11) 0.1856(3)
H2_2 H 0.9334 0.2378 0.2335
C4_2 C 0.99275(8) 0.28982(11) 0.2431(3)
N15_2 N 0.78131(6) 0.32314(10) 0.0834(2)
O19_2 O 0.82624(7) 0.17271(10) 0.03878(19)
C2_2 C 0.95008(7) 0.34204(11) 0.9959(2)
H1_2 H 0.9359 0.3618 0.9073
N13_2 N 0.83071(7) 0.33223(10) 0.6750(2)
O13_2 O 0.80855(7) 0.37255(9) 0.7354(2)
O14_2 O 0.82624(7) 0.32729(10) 0.53878(19)
O15_2 O 0.85791(6) 0.29455(9) 0.75328(19)
N2_3 N 0.01626(6) 0.16622(9) 0.6809(2)
N3_3 N 0.17831(7) 0.15544(10) 0.7848(2)
N4_3 N 0.26819(8) 0.19167(11) 0.7587(3)
O1_3 O 0.01724(6) 0.09649(8) 0.48569(17)
O2_3 O 0.01298(6) 0.23801(9) 0.87173(19)
O3_3 O 0.17819(6) 0.23053(9) 0.9704(2)
O4_3 O 0.18196(6) 0.08079(9) 0.5999(2)
C5_3 C 0.24688(9) 0.14563(13) 0.6738(3)
H3_3 H 0.2624 0.1246 0.6029
C6_3 C 0.20206(8) 0.12842(12) 0.6890(3)
C7_3 C 0.20051(9) 0.20081(12) 0.8678(3)
C8_3 C 0.24527(9) 0.21981(14) 0.8566(3)
H4_3 H 0.2596 0.2529 0.9187
C10_3 C 0.05104(8) 0.01745(11) 0.6588(2)
H5_3 H 0.0211 0.0024 0.6711
C11_3 C 0.05672(8) 0.06873(11) 0.5673(2)
C12_3 C 0.09960(8) 0.09160(11) 0.5479(2)
H6_3 H 0.1028 0.1274 0.4856
C13_3 C 0.13777(8) 0.06055(11) 0.6225(2)
C14_3 C 0.13416(8) 0.00882(11) 0.7141(3)
C17_3 C 0.05373(8) 0.20901(11) 0.9420(3)
C18_3 C 0.09568(8) 0.23329(11) 0.9162(3)
H9_3 H 0.0974 0.2681 0.8500
C19_3 C 0.13507(8) 0.20502(11) 0.9904(3)
N7_3 N 0.36458(7) 0.10755(10) 0.8877(2)
C27_3 C 0.35783(9) 0.04913(13) 0.8279(3)
H14_3 H 0.3496 0.0445 0.7242
N14_3 N 0.34202(7) 0.18056(10) 0.4177(2)
O18_3 O 0.33437(7) 0.13199(9) 0.4892(2)
N5_3 N 0.08418(10) 0.90890(11) 0.2084(3)
C22_3 C 0.08467(10) 0.89799(13) 0.0650(3)
H11_3 H 0.0842 0.8551 0.0289
C23_3 C 0.08537(11) 0.96968(14) 0.2535(3)
H12_3 H 0.0854 0.9791 0.3550
O9_3 O 0.28426(6) 0.78162(9) 0.13032(19)
O10_2 O 0.32316(6) 0.90666(9) 0.54707(18)
O11_2 O 0.48478(5) 0.89213(8) 0.50280(18)
O12_3 O 0.44554(6) 0.76417(10) 0.0910(2)
N8_3 N 0.37408(7) 0.99793(9) 0.0630(2)
N9_3 N 0.30501(6) 0.84580(10) 0.3355(2)
N12_3 N 0.46383(7) 0.83022(10) 0.2942(2)
C29_2 C 0.24967(8) 0.85930(12) 0.5008(3)
H15_2 H 0.2425 0.8775 0.5900
C30_3 C 0.29252(8) 0.87013(11) 0.4568(2)
C31_3 C 0.27365(8) 0.80982(11) 0.2553(3)
C32_3 C 0.23005(8) 0.79823(11) 0.2922(3)
H16_3 H 0.2084 0.7728 0.2296
C33_3 C 0.44141(8) 0.92251(11) 0.4703(2)
C34_3 C 0.43877(8) 0.97757(11) 0.3850(2)
H17_3 H 0.4654 0.9947 0.3507
C36_3 C 0.35732(8) 0.98413(11) 0.4026(2)
C37_3 C 0.36202(8) 0.92940(11) 0.4893(2)
C38_2 C 0.40364(8) 0.89773(11) 0.5253(2)
H19_2 H 0.4061 0.8603 0.5856
C39_3 C 0.40298(8) 0.79689(12) 0.0598(3)
C43_3 C 0.32380(8) 0.80518(11) 0.0777(3)
C44_3 C 0.36512(8) 0.77291(12) 0.1145(3)
H22_3 H 0.3673 0.7356 0.1751
C45_3 C 0.49686(8) 0.85313(11) 0.3942(3)
C46_3 C 0.54338(8) 0.83891(13) 0.3963(3)
H23_3 H 0.5659 0.8573 0.4698
C47_3 C 0.52377(9) 0.77486(15) 0.1950(3)
H24_3 H 0.5319 0.7460 0.1225
C48_3 C 0.47784(9) 0.79096(13) 0.1959(3)
N1_3 N 0.92738(6) 0.20238(9) 0.5625(2)
C1_3 C 0.99452(8) 0.14106(10) 0.5577(2)
C2_3 C 0.95008(7) 0.15796(11) 0.4959(2)
H1_3 H 0.9359 0.1382 0.4073
C3_3 C 0.94852(8) 0.22964(11) 0.6856(3)
H2_3 H 0.9334 0.2622 0.7335
C4_3 C 0.99275(8) 0.21018(11) 0.7431(3)
N13_3 N 0.83071(7) 0.16777(10) 0.1750(2)
O13_3 O 0.80855(7) 0.12745(9) 0.2354(2)
O15_3 O 0.85791(6) 0.20545(9) 0.25328(19)
C2_4 C 0.04992(7) 0.65796(11) 0.0041(2)
H1_4 H 0.0641 0.6382 0.0927
N13_4 N 0.16929(7) 0.66777(10) 0.3250(2)
O13_4 O 0.19145(7) 0.62745(9) 0.2646(2)
O15_4 O 0.14209(6) 0.70545(9) 0.24672(19)
N1_4 N 0.07262(6) 0.70238(9) 0.9375(2)
C1_4 C 0.00548(8) 0.64106(10) 0.9423(2)
C3_4 C 0.05148(8) 0.72964(11) 0.8144(3)
H2_4 H 0.0666 0.7622 0.7665
C4_4 C 0.00725(8) 0.71018(11) 0.7569(3)
O1_4 O 0.98276(6) 0.59649(8) 0.01431(17)
H6_4 H 0.8972 0.6274 0.0144
N14_4 N 0.65798(7) 0.68056(10) 0.0823(2)
O18_4 O 0.66563(7) 0.63199(9) 0.0108(2)
N2_4 N 0.98374(6) 0.66622(9) 0.8191(2)
N3_4 N 0.82169(7) 0.65544(10) 0.7152(2)
N4_4 N 0.73181(8) 0.69167(11) 0.7413(3)
N5_4 N 0.91582(10) 0.40890(11) 0.2916(3)
N6_2 N 0.91344(7) 0.50982(9) 0.4887(2)
O2_4 O 0.98702(6) 0.73801(9) 0.62827(19)
O3_4 O 0.82181(6) 0.73053(9) 0.5296(2)
O4_4 O 0.81804(6) 0.58079(9) 0.9001(2)
O5_2 O 0.91430(7) 0.43570(8) 0.67687(18)
O6_2 O 0.91210(8) 0.58098(9) 0.29398(19)
C5_4 C 0.75312(9) 0.64563(13) 0.8262(3)
H3_4 H 0.7376 0.6246 0.8971
C6_4 C 0.79794(8) 0.62842(12) 0.8110(3)
C7_4 C 0.79949(9) 0.70081(12) 0.6322(3)
C8_4 C 0.75473(9) 0.71981(14) 0.6434(3)
H4_4 H 0.7404 0.7529 0.5813
C9_2 C 0.90952(8) 0.48881(11) 0.7685(2)
C10_4 C 0.94896(8) 0.51745(11) 0.8412(2)
H5_4 H 0.9789 0.5024 0.8289
C11_4 C 0.94328(8) 0.56873(11) 0.9327(2)
C12_4 C 0.90040(8) 0.59160(11) 0.9521(2)
C13_4 C 0.86223(8) 0.56055(11) 0.8775(2)
C14_4 C 0.86584(8) 0.50882(11) 0.7859(3)
H7_2 H 0.8391 0.4878 0.7366
C15_2 C 0.90940(9) 0.63113(11) 0.3945(2)
C16_2 C 0.94993(8) 0.65827(11) 0.4640(3)
H8_2 H 0.9792 0.6425 0.4474
C17_4 C 0.94627(8) 0.70901(11) 0.5580(3)
C18_4 C 0.90432(8) 0.73329(11) 0.5838(3)
H9_4 H 0.9026 0.7681 0.6500
C19_4 C 0.86493(8) 0.70502(11) 0.5096(3)
C20_2 C 0.86659(8) 0.65385(12) 0.4148(3)
H10_2 H 0.8391 0.6349 0.3650
C21_2 C 0.91414(8) 0.44915(11) 0.5310(3)
C22_4 C 0.91533(10) 0.39799(13) 0.4350(3)
H11_4 H 0.9158 0.3551 0.4711
C23_4 C 0.91463(11) 0.46968(14) 0.2465(3)
H12_4 H 0.9146 0.4791 0.1450
C24_2 C 0.91342(9) 0.51942(12) 0.3465(3)
O7_2 O 0.60620(6) 0.56322(8) 0.23332(17)
O8_2 O 0.64412(8) 0.43678(9) 0.64888(19)
O9_4 O 0.71574(6) 0.28162(9) 0.36968(19)
O12_4 O 0.55446(6) 0.26417(10) 0.4090(2)
N7_4 N 0.63542(7) 0.60755(10) 0.6123(2)
N8_4 N 0.62592(7) 0.49793(9) 0.4370(2)
N9_4 N 0.69499(6) 0.34580(10) 0.1645(2)
N12_4 N 0.53617(7) 0.33022(10) 0.2058(2)
C25_2 C 0.61927(8) 0.55621(11) 0.3811(3)
C26_2 C 0.62399(9) 0.61213(12) 0.4662(3)
H13_2 H 0.6191 0.6531 0.4206
C27_4 C 0.64217(9) 0.54913(13) 0.6721(3)
H14_4 H 0.6504 0.5445 0.7758
C28_2 C 0.63717(9) 0.49533(12) 0.5823(3)
C30_4 C 0.70748(8) 0.37013(11) 0.0432(2)
C31_4 C 0.72635(8) 0.30982(11) 0.2447(3)
C32_4 C 0.76995(8) 0.29823(11) 0.2078(3)
H16_4 H 0.7916 0.2728 0.2704
C33_4 C 0.55859(8) 0.42251(11) 0.0297(2)
C34_4 C 0.56123(8) 0.47757(11) 0.1150(2)
H17_4 H 0.5346 0.4947 0.1493
C35_2 C 0.60364(8) 0.50692(11) 0.1487(2)
C36_4 C 0.64268(8) 0.48413(11) 0.0974(2)
H18_2 H 0.6717 0.5052 0.1208
C37_4 C 0.63798(8) 0.42940(11) 0.0107(2)
C39_4 C 0.59702(8) 0.29689(12) 0.4402(3)
C40_2 C 0.59926(9) 0.35113(13) 0.5266(3)
H20_2 H 0.5726 0.3669 0.5633
C41_2 C 0.64110(9) 0.38204(12) 0.5587(3)
C42_2 C 0.68049(8) 0.35945(12) 0.5092(3)
H21_2 H 0.7094 0.3805 0.5341
C43_4 C 0.67620(8) 0.30518(11) 0.4223(3)
C44_4 C 0.63488(8) 0.27291(12) 0.3855(3)
H22_4 H 0.6327 0.2356 0.3249
C45_4 C 0.50314(8) 0.35313(11) 0.1058(3)
C46_4 C 0.45662(8) 0.33891(13) 0.1037(3)
H23_4 H 0.4341 0.3573 0.0302
C47_4 C 0.47623(9) 0.27486(15) 0.3050(3)
H24_4 H 0.4681 0.2460 0.3775
C48_4 C 0.52216(9) 0.29096(13) 0.3041(3)
O5_3 O 0.91430(7) 0.06430(8) 0.17687(18)
C9_3 C 0.90952(8) 0.01119(11) 0.2685(2)
H7_3 H 0.8391 0.0122 0.2366
C21_3 C 0.91414(8) 0.05085(11) 0.0310(3)
O8_3 O 0.64412(8) 0.06322(9) 0.14888(19)
C28_3 C 0.63717(9) 0.00467(12) 0.0823(3)
C40_3 C 0.59926(9) 0.14887(13) 0.0266(3)
H20_3 H 0.5726 0.1331 0.0633
C41_3 C 0.64110(9) 0.11796(12) 0.0587(3)
C42_3 C 0.68049(8) 0.14055(12) 0.0092(3)
H21_3 H 0.7094 0.1195 0.0341
N6_3 N 0.91344(7) 0.99018(9) 0.9887(2)
O6_3 O 0.91210(8) 0.91902(9) 0.79398(19)
C15_3 C 0.90940(9) 0.86887(11) 0.8945(2)
C16_3 C 0.94993(8) 0.84173(11) 0.9640(3)
H8_3 H 0.9792 0.8575 0.9474
C20_3 C 0.86659(8) 0.84615(12) 0.9148(3)
H10_3 H 0.8391 0.8651 0.8650
C24_3 C 0.91342(9) 0.98058(12) 0.8465(3)
O7_3 O 0.60620(6) 0.93678(8) 0.73332(17)
C25_3 C 0.61927(8) 0.94379(11) 0.8811(3)
C26_3 C 0.62399(9) 0.88787(12) 0.9662(3)
H13_3 H 0.6191 0.8469 0.9206
C35_3 C 0.60364(8) 0.99308(11) 0.6487(2)
H18_3 H 0.6717 0.9948 0.6208
O10_3 O 0.32316(6) 0.59334(9) 0.04707(18)
O11_3 O 0.48478(5) 0.60787(8) 0.00280(18)
C29_3 C 0.24967(8) 0.64070(12) 0.0008(3)
H15_3 H 0.2425 0.6225 0.0900
C38_3 C 0.40364(8) 0.60227(11) 0.0253(2)
H19_3 H 0.4061 0.6397 0.0856
N6_4 N 0.08656(7) 0.00982(9) 0.0113(2)
O6_4 O 0.08790(8) 0.08098(9) 0.20602(19)
C15_4 C 0.09060(9) 0.13113(11) 0.1055(2)
C16_4 C 0.05007(8) 0.15827(11) 0.0360(3)
H8_4 H 0.0208 0.1425 0.0526
C20_4 C 0.13341(8) 0.15385(12) 0.0852(3)
H10_4 H 0.1609 0.1349 0.1350
C24_4 C 0.08658(9) 0.01942(12) 0.1535(3)
O7_4 O 0.39380(6) 0.06322(8) 0.26668(17)
C25_4 C 0.38073(8) 0.05621(11) 0.1189(3)
C26_4 C 0.37601(9) 0.11213(12) 0.0338(3)
H13_4 H 0.3809 0.1531 0.0794
C35_4 C 0.39636(8) 0.00692(11) 0.3513(2)
H18_4 H 0.3283 0.0052 0.3792
O5_4 O 0.08570(7) 0.93570(8) 0.82313(18)
C9_4 C 0.09048(8) 0.98881(11) 0.7315(2)
H7_4 H 0.1609 0.9878 0.7634
C21_4 C 0.08586(8) 0.94915(11) 0.9690(3)
O8_4 O 0.35588(8) 0.93678(9) 0.85112(19)
C28_4 C 0.36283(9) 0.99533(12) 0.9177(3)
C40_4 C 0.40074(9) 0.85113(13) 0.9734(3)
H20_4 H 0.4274 0.8669 0.9367
C41_4 C 0.35890(9) 0.88204(12) 0.9413(3)
C42_4 C 0.31951(8) 0.85945(12) 0.9908(3)
H21_4 H 0.2906 0.8805 0.9659
O10_4 O 0.67684(6) 0.40666(9) 0.95293(18)
O11_4 O 0.51522(5) 0.39213(8) 0.99720(18)
C29_4 C 0.75033(8) 0.35930(12) 0.9992(3)
H15_4 H 0.7575 0.3775 0.9100
C38_4 C 0.59636(8) 0.39773(11) 0.9747(2)
H19_4 H 0.5939 0.3603 0.9144
loop_
_geom_bond_atom_site_label_1
_geom_bond_atom_site_label_2
_geom_bond_site_symmetry_1
_geom_bond_site_symmetry_2
Ag1 N1 1_555 1_555
N1 C2 1_555 1_555
C1 C2 1_555 1_555
C2 H1 1_555 1_555
C3 N1 1_555 1_555
H2 C3 1_555 1_555
N13 O13 1_555 1_555
O14 N13 1_555 1_555
O15 Ag1 1_555 1_555
Ag4 O14 1_555 1_555
N15 Ag1 1_555 1_555
O19 Ag1 1_555 1_555
C3 C4 1_555 1_555
N13 O15 1_555 1_555
N5 C22 1_555 1_555
H11 C22 1_555 1_555
C23 N5 1_555 1_555
H12 C23 1_555 1_555
O9 C31 1_555 1_555
O10 C30 1_555 1_555
O11 C33 1_555 1_555
O12 C39 1_555 1_555
N9 C30 1_555 1_555
N10 C29 1_555 1_555
N11 C46 1_555 1_555
N12 C45 1_555 1_555
C29 H15 1_555 1_555
C30 C29 1_555 1_555
C31 N9 1_555 1_555
C32 N10 1_555 1_555
H16 C32 1_555 1_555
C33 C34 1_555 1_555
C34 H17 1_555 1_555
C37 O10 1_555 1_555
C38 C33 1_555 1_555
H19 C38 1_555 1_555
C43 O9 1_555 1_555
C44 C39 1_555 1_555
H22 C44 1_555 1_555
C45 O11 1_555 1_555
C46 C45 1_555 1_555
H23 C46 1_555 1_555
C47 N11 1_555 1_555
H24 C47 1_555 1_555
C48 O12 1_555 1_555
Ag3 N10 1_555 1_555
Ag5 N11 1_555 1_555
N12 C48 1_555 1_555
C31 C32 1_555 1_555
C36 C37 1_555 1_555
C37 C38 1_555 1_555
C43 C44 1_555 1_555
C47 C48 1_555 1_555
Ag2 N4 1_555 1_555
N3 C6 1_555 1_555
N4 C5 1_555 1_555
O3 C7 1_555 1_555
O4 C6 1_555 1_555
C5 H3 1_555 1_555
C6 C5 1_555 1_555
C7 N3 1_555 1_555
C8 N4 1_555 1_555
H4 C8 1_555 1_555
C10 H5 1_555 1_555
C11 O1 1_555 1_555
C12 C11 1_555 1_555
H6 C12 1_555 1_555
C13 O4 1_555 1_555
C17 O2 1_555 1_555
C18 C17 1_555 1_555
H9 C18 1_555 1_555
C19 O3 1_555 1_555
N7 Ag2 1_555 1_555
C27 N7 1_555 1_555
H14 C27 1_555 1_555
N14 O16 1_555 1_555
O16 Ag6 1_555 1_555
O17 Ag2 1_555 1_555
O18 N14 1_555 1_555
Ag6 O17 1_555 1_555
N16 Ag2 1_555 1_555
O20 Ag2 1_555 1_555
O21 Ag2 1_555 1_555
C7 C8 1_555 1_555
C10 C11 1_555 1_555
C12 C13 1_555 1_555
C13 C14 1_555 1_555
C18 C19 1_555 1_555
N14 O17 1_555 1_555
Ag2_2 N4_2 1_555 1_555
N3_2 C6_2 1_555 1_555
N4_2 C5_2 1_555 1_555
N5_2 C22_2 1_555 1_555
N6 C21 1_555 1_555
O3_2 C7_2 1_555 1_555
O4_2 C6_2 1_555 1_555
O5 C9 1_555 1_555
O6 C15 1_555 1_555
C5_2 H3_2 1_555 1_555
C6_2 C5_2 1_555 1_555
C7_2 N3_2 1_555 1_555
C8_2 N4_2 1_555 1_555
H4_2 C8_2 1_555 1_555
C9 C10_2 1_555 1_555
C10_2 H5_2 1_555 1_555
C12_2 C11_2 1_555 1_555
C13_2 O4_2 1_555 1_555
C14_2 C9 1_555 1_555
H7 C14_2 1_555 1_555
C15 C16 1_555 1_555
C16 H8 1_555 1_555
C17_2 O2_2 1_555 1_555
C18_2 C17_2 1_555 1_555
H9_2 C18_2 1_555 1_555
C19_2 O3_2 1_555 1_555
C20 C15 1_555 1_555
H10 C20 1_555 1_555
C21 O5 1_555 1_555
C22_2 C21 1_555 1_555
H11_2 C22_2 1_555 1_555
C23_2 N5_2 1_555 1_555
H12_2 C23_2 1_555 1_555
C24 N6 1_555 1_555
O7 C25 1_555 1_555
O8 C28 1_555 1_555
O9_2 C31_2 1_555 1_555
O12_2 C39_2 1_555 1_555
N7_2 Ag2_2 1_555 1_555
N8_2 C25 1_555 1_555
N9_2 C30_2 1_555 1_555
N11_2 C46_2 1_555 1_555
N12_2 C45_2 1_555 1_555
C25 C26 1_555 1_555
C26 N7_2 1_555 1_555
H13 C26 1_555 1_555
C27_2 N7_2 1_555 1_555
H14_2 C27_2 1_555 1_555
C28 N8_2 1_555 1_555
C31_2 N9_2 1_555 1_555
C32_2 N10_2 1_555 1_555
H16_2 C32_2 1_555 1_555
C33_2 C34_2 1_555 1_555
C34_2 H17_2 1_555 1_555
C35 O7 1_555 1_555
C36_2 C35 1_555 1_555
H18 C36_2 1_555 1_555
C39_2 C40 1_555 1_555
C40 H20 1_555 1_555
C41 O8 1_555 1_555
C42 C41 1_555 1_555
H21 C42 1_555 1_555
C43_2 O9_2 1_555 1_555
C44_2 C39_2 1_555 1_555
H22_2 C44_2 1_555 1_555
C46_2 C45_2 1_555 1_555
H23_2 C46_2 1_555 1_555
C47_2 N11_2 1_555 1_555
H24_2 C47_2 1_555 1_555
C48_2 O12_2 1_555 1_555
Ag4 N10_2 1_555 1_555
Ag6 N11_2 1_555 1_555
N16_2 Ag2_2 1_555 1_555
O20_2 Ag2_2 1_555 1_555
O21_2 Ag2_2 1_555 1_555
O6 C24 1_555 1_555
C7_2 C8_2 1_555 1_555
C10_2 C11_2 1_555 1_555
C12_2 C13_2 1_555 1_555
C13_2 C14_2 1_555 1_555
C16 C17_2 1_555 1_555
C18_2 C19_2 1_555 1_555
C19_2 C20 1_555 1_555
C23_2 C24 1_555 1_555
N12_2 C48_2 1_555 1_555
C27_2 C28 1_555 1_555
C31_2 C32_2 1_555 1_555
C34_2 C35 1_555 1_555
C36_2 C37_2 1_555 1_555
C40 C41 1_555 1_555
C42 C43_2 1_555 1_555
C43_2 C44_2 1_555 1_555
C47_2 C48_2 1_555 1_555
N14_2 O16_2 1_555 1_555
O16_2 Ag5 1_555 1_555
O18_2 N14_2 1_555 1_555
Ag5 O17_2 1_555 1_555
N14_2 O17_2 1_555 1_555
Ag1_2 N1_2 1_555 1_555
C3_2 N1_2 1_555 1_555
H2_2 C3_2 1_555 1_555
N15_2 Ag1_2 1_555 1_555
O19_2 Ag1_2 1_555 1_555
C3_2 C4_2 1_555 1_555
C2_2 H1_2 1_555 1_555
N13_2 O13_2 1_555 1_555
O14_2 N13_2 1_555 1_555
Ag3 O14_2 1_555 1_555
N13_2 O15_2 1_555 1_555
Ag5 N4_3 1_555 1_555
N3_3 C6_3 1_555 1_555
N4_3 C5_3 1_555 1_555
O3_3 C7_3 1_555 1_555
O4_3 C6_3 1_555 1_555
C5_3 H3_3 1_555 1_555
C6_3 C5_3 1_555 1_555
C7_3 N3_3 1_555 1_555
C8_3 N4_3 1_555 1_555
H4_3 C8_3 1_555 1_555
C10_3 H5_3 1_555 1_555
C11_3 O1_3 1_555 1_555
C12_3 C11_3 1_555 1_555
H6_3 C12_3 1_555 1_555
C13_3 O4_3 1_555 1_555
C17_3 O2_3 1_555 1_555
C18_3 C17_3 1_555 1_555
H9_3 C18_3 1_555 1_555
C19_3 O3_3 1_555 1_555
N7_3 Ag5 1_555 1_555
C27_3 N7_3 1_555 1_555
H14_3 C27_3 1_555 1_555
N14_3 O20_2 1_555 1_555
O21_2 Ag5 1_555 1_555
O18_3 N14_3 1_555 1_555
C7_3 C8_3 1_555 1_555
C10_3 C11_3 1_555 1_555
C12_3 C13_3 1_555 1_555
C13_3 C14_3 1_555 1_555
C18_3 C19_3 1_555 1_555
N14_3 O21_2 1_555 1_555
N5_3 C22_3 1_555 1_555
H11_3 C22_3 1_555 1_555
C23_3 N5_3 1_555 1_555
H12_3 C23_3 1_555 1_555
O9_3 C31_3 1_555 1_555
O10_2 C30_3 1_555 1_555
O11_2 C33_3 1_555 1_555
O12_3 C39_3 1_555 1_555
N9_3 C30_3 1_555 1_555
N15 C29_2 1_555 1_555
N16 C46_3 1_555 1_555
N12_3 C45_3 1_555 1_555
C29_2 H15_2 1_555 1_555
C30_3 C29_2 1_555 1_555
C31_3 N9_3 1_555 1_555
C32_3 N15 1_555 1_555
H16_3 C32_3 1_555 1_555
C33_3 C34_3 1_555 1_555
C34_3 H17_3 1_555 1_555
C37_3 O10_2 1_555 1_555
C38_2 C33_3 1_555 1_555
H19_2 C38_2 1_555 1_555
C43_3 O9_3 1_555 1_555
C44_3 C39_3 1_555 1_555
H22_3 C44_3 1_555 1_555
C45_3 O11_2 1_555 1_555
C46_3 C45_3 1_555 1_555
H23_3 C46_3 1_555 1_555
C47_3 N16 1_555 1_555
H24_3 C47_3 1_555 1_555
C48_3 O12_3 1_555 1_555
N12_3 C48_3 1_555 1_555
C31_3 C32_3 1_555 1_555
C36_3 C37_3 1_555 1_555
C37_3 C38_2 1_555 1_555
C43_3 C44_3 1_555 1_555
C47_3 C48_3 1_555 1_555
Ag3 N1_3 1_555 1_555
N1_3 C2_3 1_555 1_555
C1_3 C2_3 1_555 1_555
C2_3 H1_3 1_555 1_555
C3_3 N1_3 1_555 1_555
H2_3 C3_3 1_555 1_555
N13_3 O13_3 1_555 1_555
O19_2 N13_3 1_555 1_555
O15_3 Ag3 1_555 1_555
C3_3 C4_3 1_555 1_555
N13_3 O15_3 1_555 1_555
C2_4 H1_4 1_555 1_555
N13_4 O13_4 1_555 1_555
O19 N13_4 1_555 1_555
N13_4 O15_4 1_555 1_555
Ag4 N1_4 1_555 1_555
C3_4 N1_4 1_555 1_555
H2_4 C3_4 1_555 1_555
C3_4 C4_4 1_555 1_555
N14_4 O20 1_555 1_555
O18_4 N14_4 1_555 1_555
N14_4 O21 1_555 1_555
Ag6 N4_4 1_555 1_555
N3_4 C6_4 1_555 1_555
N4_4 C5_4 1_555 1_555
N5_4 C22_4 1_555 1_555
N6_2 C21_2 1_555 1_555
O3_4 C7_4 1_555 1_555
O4_4 C6_4 1_555 1_555
O5_2 C9_2 1_555 1_555
O6_2 C15_2 1_555 1_555
C5_4 H3_4 1_555 1_555
C6_4 C5_4 1_555 1_555
C7_4 N3_4 1_555 1_555
C8_4 N4_4 1_555 1_555
H4_4 C8_4 1_555 1_555
C9_2 C10_4 1_555 1_555
C10_4 H5_4 1_555 1_555
C12_4 C11_4 1_555 1_555
C13_4 O4_4 1_555 1_555
C14_4 C9_2 1_555 1_555
H7_2 C14_4 1_555 1_555
C15_2 C16_2 1_555 1_555
C16_2 H8_2 1_555 1_555
C17_4 O2_4 1_555 1_555
C18_4 C17_4 1_555 1_555
H9_4 C18_4 1_555 1_555
C19_4 O3_4 1_555 1_555
C20_2 C15_2 1_555 1_555
H10_2 C20_2 1_555 1_555
C21_2 O5_2 1_555 1_555
C22_4 C21_2 1_555 1_555
H11_4 C22_4 1_555 1_555
C23_4 N5_4 1_555 1_555
H12_4 C23_4 1_555 1_555
C24_2 N6_2 1_555 1_555
O7_2 C25_2 1_555 1_555
O8_2 C28_2 1_555 1_555
O9_4 C31_4 1_555 1_555
O12_4 C39_4 1_555 1_555
N7_4 Ag6 1_555 1_555
N8_4 C25_2 1_555 1_555
N9_4 C30_4 1_555 1_555
N16_2 C46_4 1_555 1_555
N12_4 C45_4 1_555 1_555
C25_2 C26_2 1_555 1_555
C26_2 N7_4 1_555 1_555
H13_2 C26_2 1_555 1_555
C27_4 N7_4 1_555 1_555
H14_4 C27_4 1_555 1_555
C28_2 N8_4 1_555 1_555
C31_4 N9_4 1_555 1_555
C32_4 N15_2 1_555 1_555
H16_4 C32_4 1_555 1_555
C33_4 C34_4 1_555 1_555
C34_4 H17_4 1_555 1_555
C35_2 O7_2 1_555 1_555
C36_4 C35_2 1_555 1_555
H18_2 C36_4 1_555 1_555
C39_4 C40_2 1_555 1_555
C40_2 H20_2 1_555 1_555
C41_2 O8_2 1_555 1_555
C42_2 C41_2 1_555 1_555
H21_2 C42_2 1_555 1_555
C43_4 O9_4 1_555 1_555
C44_4 C39_4 1_555 1_555
H22_4 C44_4 1_555 1_555
C46_4 C45_4 1_555 1_555
H23_4 C46_4 1_555 1_555
C47_4 N16_2 1_555 1_555
H24_4 C47_4 1_555 1_555
C48_4 O12_4 1_555 1_555
O6_2 C24_2 1_555 1_555
C7_4 C8_4 1_555 1_555
C10_4 C11_4 1_555 1_555
C12_4 C13_4 1_555 1_555
C13_4 C14_4 1_555 1_555
C16_2 C17_4 1_555 1_555
C18_4 C19_4 1_555 1_555
C19_4 C20_2 1_555 1_555
C23_4 C24_2 1_555 1_555
N12_4 C48_4 1_555 1_555
C27_4 C28_2 1_555 1_555
C31_4 C32_4 1_555 1_555
C34_4 C35_2 1_555 1_555
C36_4 C37_4 1_555 1_555
C40_2 C41_2 1_555 1_555
C42_2 C43_4 1_555 1_555
C43_4 C44_4 1_555 1_555
C47_4 C48_4 1_555 1_555
O5_3 C9_3 1_555 1_555
C21_3 O5_3 1_555 1_555
O8_3 C28_3 1_555 1_555
C40_3 H20_3 1_555 1_555
C41_3 O8_3 1_555 1_555
C42_3 C41_3 1_555 1_555
H21_3 C42_3 1_555 1_555
C40_3 C41_3 1_555 1_555
O6_3 C15_3 1_555 1_555
C15_3 C16_3 1_555 1_555
C16_3 H8_3 1_555 1_555
C20_3 C15_3 1_555 1_555
H10_3 C20_3 1_555 1_555
C24_3 N6_3 1_555 1_555
O7_3 C25_3 1_555 1_555
C25_3 C26_3 1_555 1_555
H13_3 C26_3 1_555 1_555
C35_3 O7_3 1_555 1_555
O6_3 C24_3 1_555 1_555
C29_3 H15_3 1_555 1_555
H19_3 C38_3 1_555 1_555
O6_4 C15_4 1_555 1_555
C15_4 C16_4 1_555 1_555
C16_4 H8_4 1_555 1_555
C20_4 C15_4 1_555 1_555
H10_4 C20_4 1_555 1_555
C24_4 N6_4 1_555 1_555
O7_4 C25_4 1_555 1_555
C25_4 C26_4 1_555 1_555
H13_4 C26_4 1_555 1_555
C35_4 O7_4 1_555 1_555
O6_4 C24_4 1_555 1_555
O5_4 C9_4 1_555 1_555
C21_4 O5_4 1_555 1_555
O8_4 C28_4 1_555 1_555
C40_4 H20_4 1_555 1_555
C41_4 O8_4 1_555 1_555
C42_4 C41_4 1_555 1_555
H21_4 C42_4 1_555 1_555
C40_4 C41_4 1_555 1_555
C29_4 H15_4 1_555 1_555
H19_4 C38_4 1_555 1_555

#END
