
###############################################################################
#
# This file contains modified crystal structure data generated from the
# MOF subset of the Cambridge Structural Database (CSD) v543 
# hosted by the Cambridge Crystallographic Data Centre (CCDC).
#
# This work is licensed under the Creative Commons
# Attribution-NonCommercial-ShareAlike 4.0 International License.
# To view a copy of this license, visit
# http://creativecommons.org/licenses/by-nc-sa/4.0/
# or send a letter to
# Creative Commons, PO Box 1866, Mountain View, CA 94042, USA.
#
# CIF created using the CSD Python API on 29 September 2022
# The structure has been converted into the P1 space group
# The structure has a 3D framework
# The original CSD entry MIQTUE is in the hexagonal crystal system
# The framework has been calculated to contain at least 10.0% void space
# The void calculation uses a probe of radius 1.32A, grid spacing 0.4
#
###############################################################################

data_MIQTUE
_chemical_formula_moiety         '(C318 H282 Cd12 N48 O72)n'
_symmetry_cell_setting           triclinic
_symmetry_space_group_name_H-M   'P 1'
_symmetry_Int_Tables_number      1
_space_group_name_Hall           'P 1'
loop_
_symmetry_equiv_pos_site_id
_symmetry_equiv_pos_as_xyz
1 x,y,z
_cell_length_a                   18.3047(6)
_cell_length_b                   18.3047(6)
_cell_length_c                   37.9711(15)
_cell_angle_alpha                90
_cell_angle_beta                 90
_cell_angle_gamma                120
_cell_volume                     11018.2
loop_
_atom_site_label
_atom_site_type_symbol
_atom_site_fract_x
_atom_site_fract_y
_atom_site_fract_z
C3 C 0.3541(7) 0.0000 0.0000
H1 H 0.3033 0.0000 0.0000
C5 C 0.5025(8) 0.0000 0.0000
H3 H 0.5533 0.0000 0.0000
C28 C 0.3817(9) 0.0611(7) 0.0604(3)
C29 C 0.4060(7) 0.0291(5) 0.0287(2)
C30 C 0.4813(8) 0.0301(6) 0.0285(2)
H25 H 0.5175 0.0512 0.0478
O7 O 0.4349(6) 0.1027(5) 0.0832(2)
O8 O 0.3078(7) 0.0447(5) 0.0645(2)
Cd7 Cd 0.34398(6) 0.11798(4) 0.12040(2)
C3_2 C 0.3541(7) -0.0000 1.0000
H1_2 H 0.3033 -0.0000 1.0000
C5_2 C 0.5025(8) -0.0000 1.0000
H3_2 H 0.5533 -0.0000 1.0000
C8 C 0.3865(11) 0.0840(9) 0.7807(4)
H4 H 0.4093 0.1115 0.8018
C9 C 0.4239(16) 0.1252(17) 0.7500
H5 H 0.4720 0.1784 0.7500
C33 C 0.3865(11) 0.0840(9) 0.7193(4)
H26 H 0.4093 0.1115 0.6982
C86 C 0.3541(7) -0.0000 0.5000
H71 H 0.3033 -0.0000 0.5000
C88 C 0.5025(8) -0.0000 0.5000
H73 H 0.5533 -0.0000 0.5000
C106 C 0.3817(9) 0.0611(7) 0.4396(3)
C107 C 0.4060(7) 0.0291(5) 0.4713(2)
C108 C 0.4813(8) 0.0301(6) 0.4715(2)
H92 H 0.5175 0.0512 0.4522
O27 O 0.4349(6) 0.1027(5) 0.4168(2)
O28 O 0.3078(7) 0.0447(5) 0.4355(2)
Cd9 Cd 0.34398(6) 0.11798(4) 0.37960(2)
C13 C 0.8592(8) 0.9878(9) 0.4129(4)
H9 H 0.8680 0.9546 0.4289
C14 C 0.7596(8) 0.8764(7) 0.3662(4)
H10 H 0.7451 0.8822 0.3422
H11 H 0.7906 0.8463 0.3656
C15 C 0.6802(7) 0.8262(7) 0.3871(4)
H12 H 0.6936 0.8232 0.4116
H13 H 0.6483 0.7693 0.3779
C16 C 0.5624(6) 0.8374(6) 0.4031(3)
C17 C 0.5323(5) 0.7724(7) 0.4254(3)
H14 H 0.5622 0.7439 0.4277
C18 C 0.4603(6) 0.7443(6) 0.4451(3)
C19 C 0.4172(6) 0.7876(6) 0.4436(3)
C20 C 0.4458(6) 0.8534(6) 0.4206(3)
H15 H 0.4165 0.8825 0.4185
C21 C 0.5137(6) 0.8770(6) 0.4013(3)
C22 C 0.3390(6) 0.7654(7) 0.4665(3)
H16 H 0.3377 0.7316 0.4864
H17 H 0.3433 0.8170 0.4756
C23 C 0.4908(8) 0.9750(8) 0.3675(4)
H18 H 0.4388 0.9312 0.3571
H19 H 0.4769 0.9963 0.3883
N4 N 0.8134(6) 0.9604(6) 0.3812(3)
O5 O 0.6334(5) 0.8671(5) 0.3842(2)
O6 O 0.5437(4) 0.9422(5) 0.3765(2)
C34 C 0.2120(11) 0.1819(8) 0.3674(4)
H27 H 0.2394 0.2082 0.3466
C35 C 0.1807(11) 0.1135(7) 0.4155(4)
H28 H 0.1832 0.0825 0.4343
C36 C 0.1286(12) 0.1408(8) 0.4129(4)
H29 H 0.0866 0.1320 0.4289
C37 C 0.1168(11) 0.2404(8) 0.3662(4)
H30 H 0.1371 0.2549 0.3422
H31 H 0.0557 0.2094 0.3656
C38 C 0.1460(10) 0.3198(7) 0.3871(4)
H32 H 0.1296 0.3064 0.4116
H33 H 0.1210 0.3517 0.3779
C39 C 0.2750(8) 0.4376(6) 0.4031(3)
C40 C 0.2401(9) 0.4677(5) 0.4254(3)
H34 H 0.1817 0.4378 0.4277
C41 C 0.2840(8) 0.5397(6) 0.4451(3)
C42 C 0.3704(8) 0.5828(6) 0.4436(3)
C43 C 0.4076(8) 0.5542(6) 0.4206(3)
H35 H 0.4660 0.5835 0.4185
C44 C 0.3633(8) 0.4863(6) 0.4013(3)
C45 C 0.4264(9) 0.6610(6) 0.4665(3)
H36 H 0.3939 0.6623 0.4864
H37 H 0.4737 0.6567 0.4756
C46 C 0.4842(11) 0.5092(8) 0.3675(4)
H38 H 0.4924 0.5612 0.3571
H39 H 0.5194 0.5231 0.3883
C47 C 0.5070(11) 0.4623(7) 0.3416(3)
H40 H 0.5647 0.4980 0.3337
H41 H 0.4703 0.4471 0.3212
C48 C 0.4362(11) 0.3078(7) 0.3521(3)
H42 H 0.3945 0.2935 0.3351
C49 C 0.5485(13) 0.3815(9) 0.3847(4)
H43 H 0.5975 0.4269 0.3937
C50 C 0.5145(11) 0.3025(8) 0.3946(4)
H44 H 0.5343 0.2818 0.4123
N5 N 0.4414(8) 0.2539(6) 0.3732(2)
N6 N 0.4982(8) 0.3849(5) 0.3582(3)
N7 N 0.2318(9) 0.1362(6) 0.3867(3)
N8 N 0.1470(8) 0.1866(6) 0.3812(3)
O11 O 0.2337(7) 0.3666(5) 0.3842(2)
O12 O 0.3985(6) 0.4563(4) 0.3765(2)
C53 C 0.0122(9) 0.8714(12) 0.4129(4)
H47 H 0.0454 0.9134 0.4289
C54 C 0.1236(7) 0.8832(11) 0.3662(4)
H48 H 0.1178 0.8629 0.3422
H49 H 0.1537 0.9443 0.3656
C55 C 0.1738(7) 0.8540(10) 0.3871(4)
H50 H 0.1768 0.8704 0.4116
H51 H 0.2307 0.8790 0.3779
C56 C 0.1626(6) 0.7250(8) 0.4031(3)
C57 C 0.2276(7) 0.7599(9) 0.4254(3)
H52 H 0.2561 0.8183 0.4277
C58 C 0.2557(6) 0.7160(8) 0.4451(3)
C59 C 0.2124(6) 0.6296(8) 0.4436(3)
C60 C 0.1466(6) 0.5924(8) 0.4206(3)
H53 H 0.1175 0.5340 0.4185
C61 C 0.1230(6) 0.6367(8) 0.4013(3)
C62 C 0.2346(7) 0.5736(9) 0.4665(3)
H54 H 0.2684 0.6061 0.4864
H55 H 0.1830 0.5263 0.4756
C63 C 0.0250(8) 0.5158(11) 0.3675(4)
H56 H 0.0688 0.5076 0.3571
H57 H 0.0037 0.4806 0.3883
N12 N 0.0396(6) 0.8530(8) 0.3812(3)
O13 O 0.1329(5) 0.7663(7) 0.3842(2)
O14 O 0.0578(5) 0.6015(6) 0.3765(2)
C73 C 0.3258(11) 0.0491(8) 0.3160(2)
C74 C 0.3136(10) 0.0001(7) 0.2819(3)
C77 C 0.3212(13) 0.0404(9) 0.2500
H68 H 0.3317 0.0957 0.2500
O17 O 0.3265(7) 0.0115(5) 0.3436(2)
O18 O 0.3260(8) 0.1144(5) 0.31542(19)
C81 C 0.3258(11) 0.0491(8) 0.1840(2)
C82 C 0.3136(10) 0.0001(7) 0.2181(3)
O21 O 0.3265(7) 0.0115(5) 0.1564(2)
O22 O 0.3260(8) 0.1144(5) 0.18458(19)
C91 C 0.8592(8) 0.9878(9) 0.0871(4)
H76 H 0.8680 0.9546 0.0711
C92 C 0.7596(8) 0.8764(7) 0.1338(4)
H77 H 0.7451 0.8822 0.1578
H78 H 0.7906 0.8463 0.1344
C93 C 0.6802(7) 0.8262(7) 0.1129(4)
H79 H 0.6936 0.8232 0.0884
H80 H 0.6483 0.7693 0.1221
C94 C 0.5624(6) 0.8374(6) 0.0969(3)
C95 C 0.5323(5) 0.7724(7) 0.0746(3)
H81 H 0.5622 0.7439 0.0723
C96 C 0.4603(6) 0.7443(6) 0.0549(3)
C97 C 0.4172(6) 0.7876(6) 0.0564(3)
C98 C 0.4458(6) 0.8534(6) 0.0794(3)
H82 H 0.4165 0.8825 0.0815
C99 C 0.5137(6) 0.8770(6) 0.0987(3)
C100 C 0.3390(6) 0.7654(7) 0.0335(3)
H83 H 0.3377 0.7316 0.0136
H84 H 0.3433 0.8170 0.0244
C101 C 0.4908(8) 0.9750(8) 0.1325(4)
H85 H 0.4388 0.9312 0.1429
H86 H 0.4769 0.9963 0.1117
N16 N 0.8134(6) 0.9604(6) 0.1188(3)
O25 O 0.6334(5) 0.8671(5) 0.1158(2)
O26 O 0.5437(4) 0.9422(5) 0.1235(2)
C109 C 0.2120(11) 0.1819(8) 0.1326(4)
H93 H 0.2394 0.2082 0.1534
C110 C 0.1807(11) 0.1135(7) 0.0845(4)
H94 H 0.1832 0.0825 0.0657
C111 C 0.1286(12) 0.1408(8) 0.0871(4)
H95 H 0.0866 0.1320 0.0711
C112 C 0.1168(11) 0.2404(8) 0.1338(4)
H96 H 0.1371 0.2549 0.1578
H97 H 0.0557 0.2094 0.1344
C113 C 0.1460(10) 0.3198(7) 0.1129(4)
H98 H 0.1296 0.3064 0.0884
H99 H 0.1210 0.3517 0.1221
C114 C 0.2750(8) 0.4376(6) 0.0969(3)
C115 C 0.2401(9) 0.4677(5) 0.0746(3)
H100 H 0.1817 0.4378 0.0723
C116 C 0.2840(8) 0.5397(6) 0.0549(3)
C117 C 0.3704(8) 0.5828(6) 0.0564(3)
C118 C 0.4076(8) 0.5542(6) 0.0794(3)
H101 H 0.4660 0.5835 0.0815
C119 C 0.3633(8) 0.4863(6) 0.0987(3)
C120 C 0.4264(9) 0.6610(6) 0.0335(3)
H102 H 0.3939 0.6623 0.0136
H103 H 0.4737 0.6567 0.0244
C121 C 0.4842(11) 0.5092(8) 0.1325(4)
H104 H 0.4924 0.5612 0.1429
H105 H 0.5194 0.5231 0.1117
C122 C 0.5070(11) 0.4623(7) 0.1584(3)
H106 H 0.5647 0.4980 0.1663
H107 H 0.4703 0.4471 0.1788
C123 C 0.4362(11) 0.3078(7) 0.1479(3)
H108 H 0.3945 0.2935 0.1649
C124 C 0.5485(13) 0.3815(9) 0.1153(4)
H109 H 0.5975 0.4269 0.1063
C125 C 0.5145(11) 0.3025(8) 0.1054(4)
H110 H 0.5343 0.2818 0.0877
N17 N 0.4414(8) 0.2539(6) 0.1268(2)
N18 N 0.4982(8) 0.3849(5) 0.1418(3)
N19 N 0.2318(9) 0.1362(6) 0.1133(3)
N20 N 0.1470(8) 0.1866(6) 0.1188(3)
O29 O 0.2337(7) 0.3666(5) 0.1158(2)
O30 O 0.3985(6) 0.4563(4) 0.1235(2)
C128 C 0.0122(9) 0.8714(12) 0.0871(4)
H113 H 0.0454 0.9134 0.0711
C129 C 0.1236(7) 0.8832(11) 0.1338(4)
H114 H 0.1178 0.8629 0.1578
H115 H 0.1537 0.9443 0.1344
C130 C 0.1738(7) 0.8540(10) 0.1129(4)
H116 H 0.1768 0.8704 0.0884
H117 H 0.2307 0.8790 0.1221
C131 C 0.1626(6) 0.7250(8) 0.0969(3)
C132 C 0.2276(7) 0.7599(9) 0.0746(3)
H118 H 0.2561 0.8183 0.0723
C133 C 0.2557(6) 0.7160(8) 0.0549(3)
C134 C 0.2124(6) 0.6296(8) 0.0564(3)
C135 C 0.1466(6) 0.5924(8) 0.0794(3)
H119 H 0.1175 0.5340 0.0815
C136 C 0.1230(6) 0.6367(8) 0.0987(3)
C137 C 0.2346(7) 0.5736(9) 0.0335(3)
H120 H 0.2684 0.6061 0.0136
H121 H 0.1830 0.5263 0.0244
C138 C 0.0250(8) 0.5158(11) 0.1325(4)
H122 H 0.0688 0.5076 0.1429
H123 H 0.0037 0.4806 0.1117
N24 N 0.0396(6) 0.8530(8) 0.1188(3)
O31 O 0.1329(5) 0.7663(7) 0.1158(2)
O32 O 0.0578(5) 0.6015(6) 0.1235(2)
C3_3 C 0.3541(7) 1.0000 0.0000
H1_3 H 0.3033 1.0000 0.0000
C5_3 C 0.5025(8) 1.0000 0.0000
H3_3 H 0.5533 1.0000 0.0000
Cd1 Cd 0.22600(4) 0.88202(4) 0.87960(2)
C1 C 0.3206(5) 0.9389(7) 0.9396(3)
C2 C 0.3769(5) 0.9709(5) 0.9713(2)
C3_4 C 0.3541(7) 1.0000 1.0000
H1_4 H 0.3033 1.0000 1.0000
C4 C 0.4512(6) 0.9699(6) 0.9715(2)
H2 H 0.4663 0.9488 0.9522
C5_4 C 0.5025(8) 1.0000 1.0000
H3_4 H 0.5533 1.0000 1.0000
C6 C 0.2767(8) 0.9509(8) 0.8160(2)
C7 C 0.3135(7) 0.9999(7) 0.7819(3)
C10 C 0.2808(10) 0.9596(9) 0.7500
H6 H 0.2360 0.9043 0.7500
C11 C 0.0301(8) 0.8181(8) 0.8674(4)
H7 H 0.0312 0.7918 0.8466
C12 C 0.0672(8) 0.8865(7) 0.9155(4)
H8 H 0.1007 0.9175 0.9343
C24 C 0.0447(8) 0.5377(7) 0.8416(3)
H20 H 0.0667 0.5020 0.8337
H21 H 0.0232 0.5529 0.8212
C25 C 0.1284(8) 0.6922(7) 0.8521(3)
H22 H 0.1010 0.7065 0.8351
C26 C 0.1670(9) 0.6185(9) 0.8847(4)
H23 H 0.1706 0.5731 0.8937
C27 C 0.2120(8) 0.6975(8) 0.8946(4)
H24 H 0.2525 0.7182 0.9123
N1 N 0.1875(6) 0.7461(6) 0.8732(2)
N2 N 0.1133(6) 0.6151(5) 0.8582(3)
N3 N 0.0956(7) 0.8638(6) 0.8867(3)
O1 O 0.3322(4) 0.8973(5) 0.9168(2)
O2 O 0.2631(5) 0.9553(5) 0.9355(2)
O3 O 0.3150(5) 0.9885(5) 0.8436(2)
O4 O 0.2116(6) 0.8856(5) 0.81542(19)
C31 C 0.2767(8) 0.9509(8) 0.6840(2)
C32 C 0.3135(7) 0.9999(7) 0.7181(3)
O9 O 0.3150(5) 0.9885(5) 0.6564(2)
O10 O 0.2116(6) 0.8856(5) 0.68458(19)
Cd3 Cd 0.22600(4) 0.88202(4) 0.62040(2)
C84 C 0.3206(5) 0.9389(7) 0.5604(3)
C85 C 0.3769(5) 0.9709(5) 0.5287(2)
C86_2 C 0.3541(7) 1.0000 0.5000
H71_2 H 0.3033 1.0000 0.5000
C87 C 0.4512(6) 0.9699(6) 0.5285(2)
H72 H 0.4663 0.9488 0.5478
C88_2 C 0.5025(8) 1.0000 0.5000
H73_2 H 0.5533 1.0000 0.5000
C89 C 0.0301(8) 0.8181(8) 0.6326(4)
H74 H 0.0312 0.7918 0.6534
C90 C 0.0672(8) 0.8865(7) 0.5845(4)
H75 H 0.1007 0.9175 0.5657
C102 C 0.0447(8) 0.5377(7) 0.6584(3)
H87 H 0.0667 0.5020 0.6663
H88 H 0.0232 0.5529 0.6788
C103 C 0.1284(8) 0.6922(7) 0.6479(3)
H89 H 0.1010 0.7065 0.6649
C104 C 0.1670(9) 0.6185(9) 0.6153(4)
H90 H 0.1706 0.5731 0.6063
C105 C 0.2120(8) 0.6975(8) 0.6054(4)
H91 H 0.2525 0.7182 0.5877
N13 N 0.1875(6) 0.7461(6) 0.6268(2)
N14 N 0.1133(6) 0.6151(5) 0.6418(3)
N15 N 0.0956(7) 0.8638(6) 0.6133(3)
O23 O 0.3322(4) 0.8973(5) 0.5832(2)
O24 O 0.2631(5) 0.9553(5) 0.5645(2)
C75 C 0.3025(14) 0.9160(9) 0.2807(4)
H66 H 0.2978 0.8885 0.3018
C76 C 0.2987(23) 0.8748(17) 0.2500
H67 H 0.2936 0.8216 0.2500
C83 C 0.3025(14) 0.9160(9) 0.2193(4)
H70 H 0.2978 0.8885 0.1982
C70 C 0.0000 0.3541(7) 0.0000
H63 H 0.0000 0.3033 0.0000
C72 C 0.0000 0.5025(8) 0.0000
H65 H 0.0000 0.5533 0.0000
C13_2 C 0.9878(9) 0.8592(8) 0.9129(4)
H9_2 H 0.9546 0.8680 0.9289
C14_2 C 0.8764(7) 0.7596(8) 0.8662(4)
H10_2 H 0.8822 0.7451 0.8422
H11_2 H 0.8463 0.7906 0.8656
C15_2 C 0.8262(7) 0.6802(7) 0.8871(4)
H12_2 H 0.8232 0.6936 0.9116
H13_2 H 0.7693 0.6483 0.8779
C16_2 C 0.8374(6) 0.5624(6) 0.9031(3)
C17_2 C 0.7724(7) 0.5323(5) 0.9254(3)
H14_2 H 0.7439 0.5622 0.9277
C18_2 C 0.7443(6) 0.4603(6) 0.9451(3)
C19_2 C 0.7876(6) 0.4172(6) 0.9436(3)
C20_2 C 0.8534(6) 0.4458(6) 0.9206(3)
H15_2 H 0.8825 0.4165 0.9185
C21_2 C 0.8770(6) 0.5137(6) 0.9013(3)
C22_2 C 0.7654(7) 0.3390(6) 0.9665(3)
H16_2 H 0.7316 0.3377 0.9864
H17_2 H 0.8170 0.3433 0.9756
C23_2 C 0.9750(8) 0.4908(8) 0.8675(4)
H18_2 H 0.9312 0.4388 0.8571
H19_2 H 0.9963 0.4769 0.8883
N4_2 N 0.9604(6) 0.8134(6) 0.8812(3)
O5_2 O 0.8671(5) 0.6334(5) 0.8842(2)
O6_2 O 0.9422(5) 0.5437(4) 0.8765(2)
C34_2 C 0.1819(8) 0.2120(11) 0.8674(4)
H27_2 H 0.2082 0.2394 0.8466
C35_2 C 0.1135(7) 0.1807(11) 0.9155(4)
H28_2 H 0.0825 0.1832 0.9343
C36_2 C 0.1408(8) 0.1286(12) 0.9129(4)
H29_2 H 0.1320 0.0866 0.9289
C37_2 C 0.2404(8) 0.1168(11) 0.8662(4)
H30_2 H 0.2549 0.1371 0.8422
H31_2 H 0.2094 0.0557 0.8656
C38_2 C 0.3198(7) 0.1460(10) 0.8871(4)
H32_2 H 0.3064 0.1296 0.9116
H33_2 H 0.3517 0.1210 0.8779
C39_2 C 0.4376(6) 0.2750(8) 0.9031(3)
C40_2 C 0.4677(5) 0.2401(9) 0.9254(3)
H34_2 H 0.4378 0.1817 0.9277
C41_2 C 0.5397(6) 0.2840(8) 0.9451(3)
C42_2 C 0.5828(6) 0.3704(8) 0.9436(3)
C43_2 C 0.5542(6) 0.4076(8) 0.9206(3)
H35_2 H 0.5835 0.4660 0.9185
C44_2 C 0.4863(6) 0.3633(8) 0.9013(3)
C45_2 C 0.6610(6) 0.4264(9) 0.9665(3)
H36_2 H 0.6623 0.3939 0.9864
H37_2 H 0.6567 0.4737 0.9756
C46_2 C 0.5092(8) 0.4842(11) 0.8675(4)
H38_2 H 0.5612 0.4924 0.8571
H39_2 H 0.5231 0.5194 0.8883
C47_2 C 0.4623(7) 0.5070(11) 0.8416(3)
H40_2 H 0.4980 0.5647 0.8337
H41_2 H 0.4471 0.4703 0.8212
C48_2 C 0.3078(7) 0.4362(11) 0.8521(3)
H42_2 H 0.2935 0.3945 0.8351
C49_2 C 0.3815(9) 0.5485(13) 0.8847(4)
H43_2 H 0.4269 0.5975 0.8937
C50_2 C 0.3025(8) 0.5145(11) 0.8946(4)
H44_2 H 0.2818 0.5343 0.9123
N5_2 N 0.2539(6) 0.4414(8) 0.8732(2)
N6_2 N 0.3849(5) 0.4982(8) 0.8582(3)
N7_2 N 0.1362(6) 0.2318(9) 0.8867(3)
N8_2 N 0.1866(6) 0.1470(8) 0.8812(3)
O11_2 O 0.3666(5) 0.2337(7) 0.8842(2)
O12_2 O 0.4563(4) 0.3985(6) 0.8765(2)
C53_2 C 0.8714(12) 0.0122(9) 0.9129(4)
H47_2 H 0.9134 0.0454 0.9289
C54_2 C 0.8832(11) 0.1236(7) 0.8662(4)
H48_2 H 0.8629 0.1178 0.8422
H49_2 H 0.9443 0.1537 0.8656
C55_2 C 0.8540(10) 0.1738(7) 0.8871(4)
H50_2 H 0.8704 0.1768 0.9116
H51_2 H 0.8790 0.2307 0.8779
C56_2 C 0.7250(8) 0.1626(6) 0.9031(3)
C57_2 C 0.7599(9) 0.2276(7) 0.9254(3)
H52_2 H 0.8183 0.2561 0.9277
C58_2 C 0.7160(8) 0.2557(6) 0.9451(3)
C59_2 C 0.6296(8) 0.2124(6) 0.9436(3)
C60_2 C 0.5924(8) 0.1466(6) 0.9206(3)
H53_2 H 0.5340 0.1175 0.9185
C61_2 C 0.6367(8) 0.1230(6) 0.9013(3)
C62_2 C 0.5736(9) 0.2346(7) 0.9665(3)
H54_2 H 0.6061 0.2684 0.9864
H55_2 H 0.5263 0.1830 0.9756
C63_2 C 0.5158(11) 0.0250(8) 0.8675(4)
H56_2 H 0.5076 0.0688 0.8571
H57_2 H 0.4806 0.0037 0.8883
N12_2 N 0.8530(8) 0.0396(6) 0.8812(3)
O13_2 O 0.7663(7) 0.1329(5) 0.8842(2)
O14_2 O 0.6015(6) 0.0578(5) 0.8765(2)
Cd2 Cd 0.11798(4) 0.34398(6) 0.87960(2)
C68 C 0.0611(7) 0.3817(9) 0.9396(3)
C69 C 0.0291(5) 0.4060(7) 0.9713(2)
C70_2 C 0.0000 0.3541(7) 1.0000
H63_2 H -0.0000 0.3033 1.0000
C71 C 0.0301(6) 0.4813(8) 0.9715(2)
H64 H 0.0512 0.5175 0.9522
C72_2 C 0.0000 0.5025(8) 1.0000
H65_2 H -0.0000 0.5533 1.0000
C73_2 C 0.0491(8) 0.3258(11) 0.8160(2)
C74_2 C 0.0001(7) 0.3136(10) 0.7819(3)
C77_2 C 0.0404(9) 0.3212(13) 0.7500
H68_2 H 0.0957 0.3317 0.7500
O15 O 0.1027(5) 0.4349(6) 0.9168(2)
O16 O 0.0447(5) 0.3078(7) 0.9355(2)
O17_2 O 0.0115(5) 0.3265(7) 0.8436(2)
O18_2 O 0.1144(5) 0.3260(8) 0.81542(19)
C81_2 C 0.0491(8) 0.3258(11) 0.6840(2)
C82_2 C 0.0001(7) 0.3136(10) 0.7181(3)
O21_2 O 0.0115(5) 0.3265(7) 0.6564(2)
O22_2 O 0.1144(5) 0.3260(8) 0.68458(19)
C91_2 C 0.9878(9) 0.8592(8) 0.5871(4)
H76_2 H 0.9546 0.8680 0.5711
C92_2 C 0.8764(7) 0.7596(8) 0.6338(4)
H77_2 H 0.8822 0.7451 0.6578
H78_2 H 0.8463 0.7906 0.6344
C93_2 C 0.8262(7) 0.6802(7) 0.6129(4)
H79_2 H 0.8232 0.6936 0.5884
H80_2 H 0.7693 0.6483 0.6221
C94_2 C 0.8374(6) 0.5624(6) 0.5969(3)
C95_2 C 0.7724(7) 0.5323(5) 0.5746(3)
H81_2 H 0.7439 0.5622 0.5723
C96_2 C 0.7443(6) 0.4603(6) 0.5549(3)
C97_2 C 0.7876(6) 0.4172(6) 0.5564(3)
C98_2 C 0.8534(6) 0.4458(6) 0.5794(3)
H82_2 H 0.8825 0.4165 0.5815
C99_2 C 0.8770(6) 0.5137(6) 0.5987(3)
C100_2 C 0.7654(7) 0.3390(6) 0.5335(3)
H83_2 H 0.7316 0.3377 0.5136
H84_2 H 0.8170 0.3433 0.5244
C101_2 C 0.9750(8) 0.4908(8) 0.6325(4)
H85_2 H 0.9312 0.4388 0.6429
H86_2 H 0.9963 0.4769 0.6117
N16_2 N 0.9604(6) 0.8134(6) 0.6188(3)
O25_2 O 0.8671(5) 0.6334(5) 0.6158(2)
O26_2 O 0.9422(5) 0.5437(4) 0.6235(2)
C109_2 C 0.1819(8) 0.2120(11) 0.6326(4)
H93_2 H 0.2082 0.2394 0.6534
C110_2 C 0.1135(7) 0.1807(11) 0.5845(4)
H94_2 H 0.0825 0.1832 0.5657
C111_2 C 0.1408(8) 0.1286(12) 0.5871(4)
H95_2 H 0.1320 0.0866 0.5711
C112_2 C 0.2404(8) 0.1168(11) 0.6338(4)
H96_2 H 0.2549 0.1371 0.6578
H97_2 H 0.2094 0.0557 0.6344
C113_2 C 0.3198(7) 0.1460(10) 0.6129(4)
H98_2 H 0.3064 0.1296 0.5884
H99_2 H 0.3517 0.1210 0.6221
C114_2 C 0.4376(6) 0.2750(8) 0.5969(3)
C115_2 C 0.4677(5) 0.2401(9) 0.5746(3)
H100_2 H 0.4378 0.1817 0.5723
C116_2 C 0.5397(6) 0.2840(8) 0.5549(3)
C117_2 C 0.5828(6) 0.3704(8) 0.5564(3)
C118_2 C 0.5542(6) 0.4076(8) 0.5794(3)
H101_2 H 0.5835 0.4660 0.5815
C119_2 C 0.4863(6) 0.3633(8) 0.5987(3)
C120_2 C 0.6610(6) 0.4264(9) 0.5335(3)
H102_2 H 0.6623 0.3939 0.5136
H103_2 H 0.6567 0.4737 0.5244
C121_2 C 0.5092(8) 0.4842(11) 0.6325(4)
H104_2 H 0.5612 0.4924 0.6429
H105_2 H 0.5231 0.5194 0.6117
C122_2 C 0.4623(7) 0.5070(11) 0.6584(3)
H106_2 H 0.4980 0.5647 0.6663
H107_2 H 0.4471 0.4703 0.6788
C123_2 C 0.3078(7) 0.4362(11) 0.6479(3)
H108_2 H 0.2935 0.3945 0.6649
C124_2 C 0.3815(9) 0.5485(13) 0.6153(4)
H109_2 H 0.4269 0.5975 0.6063
C125_2 C 0.3025(8) 0.5145(11) 0.6054(4)
H110_2 H 0.2818 0.5343 0.5877
N17_2 N 0.2539(6) 0.4414(8) 0.6268(2)
N18_2 N 0.3849(5) 0.4982(8) 0.6418(3)
N19_2 N 0.1362(6) 0.2318(9) 0.6133(3)
N20_2 N 0.1866(6) 0.1470(8) 0.6188(3)
O29_2 O 0.3666(5) 0.2337(7) 0.6158(2)
O30_2 O 0.4563(4) 0.3985(6) 0.6235(2)
C128_2 C 0.8714(12) 0.0122(9) 0.5871(4)
H113_2 H 0.9134 0.0454 0.5711
C129_2 C 0.8832(11) 0.1236(7) 0.6338(4)
H114_2 H 0.8629 0.1178 0.6578
H115_2 H 0.9443 0.1537 0.6344
C130_2 C 0.8540(10) 0.1738(7) 0.6129(4)
H116_2 H 0.8704 0.1768 0.5884
H117_2 H 0.8790 0.2307 0.6221
C131_2 C 0.7250(8) 0.1626(6) 0.5969(3)
C132_2 C 0.7599(9) 0.2276(7) 0.5746(3)
H118_2 H 0.8183 0.2561 0.5723
C133_2 C 0.7160(8) 0.2557(6) 0.5549(3)
C134_2 C 0.6296(8) 0.2124(6) 0.5564(3)
C135_2 C 0.5924(8) 0.1466(6) 0.5794(3)
H119_2 H 0.5340 0.1175 0.5815
C136_2 C 0.6367(8) 0.1230(6) 0.5987(3)
C137_2 C 0.5736(9) 0.2346(7) 0.5335(3)
H120_2 H 0.6061 0.2684 0.5136
H121_2 H 0.5263 0.1830 0.5244
C138_2 C 0.5158(11) 0.0250(8) 0.6325(4)
H122_2 H 0.5076 0.0688 0.6429
H123_2 H 0.4806 0.0037 0.6117
N24_2 N 0.8530(8) 0.0396(6) 0.6188(3)
O31_2 O 0.7663(7) 0.1329(5) 0.6158(2)
O32_2 O 0.6015(6) 0.0578(5) 0.6235(2)
Cd5 Cd 0.11798(4) 0.34398(6) 0.62040(2)
O39 O 0.1027(5) 0.4349(6) 0.5832(2)
O42 O 0.0447(5) 0.3078(7) 0.5645(2)
C84_2 C 0.0611(7) 0.3817(9) 0.5604(3)
C85_2 C 0.0291(5) 0.4060(7) 0.5287(2)
C86_3 C 0.0000 0.3541(7) 0.5000
H71_3 H 0.0000 0.3033 0.5000
C87_2 C 0.0301(6) 0.4813(8) 0.5285(2)
H72_2 H 0.0512 0.5175 0.5478
C88_3 C 0.0000 0.5025(8) 0.5000
H73_3 H 0.0000 0.5533 0.5000
C8_2 C 0.0840(9) 0.3865(11) 0.2807(4)
H4_2 H 0.1115 0.4093 0.3018
C9_2 C 0.1252(17) 0.4239(16) 0.2500
H5_2 H 0.1784 0.4720 0.2500
C33_2 C 0.0840(9) 0.3865(11) 0.2193(4)
H26_2 H 0.1115 0.4093 0.1982
C51 C 0.7880(11) 0.9699(8) 0.8674(4)
H45 H 0.7606 0.9688 0.8466
C52 C 0.8193(11) 0.9328(8) 0.9155(4)
H46 H 0.8168 0.8993 0.9343
C64 C 0.4930(11) 0.9553(8) 0.8416(3)
H58 H 0.4353 0.9333 0.8337
H59 H 0.5297 0.9768 0.8212
C65 C 0.5638(11) 0.8716(8) 0.8521(3)
H60 H 0.6055 0.8990 0.8351
C66 C 0.4515(13) 0.8330(9) 0.8847(4)
H61 H 0.4025 0.8294 0.8937
C67 C 0.4855(11) 0.7880(8) 0.8946(4)
H62 H 0.4657 0.7475 0.9123
N9 N 0.5586(8) 0.8125(6) 0.8732(2)
N10 N 0.5018(8) 0.8867(6) 0.8582(3)
N11 N 0.7682(9) 0.9044(7) 0.8867(3)
C126 C 0.7880(11) 0.9699(8) 0.6326(4)
H111 H 0.7606 0.9688 0.6534
C127 C 0.8193(11) 0.9328(8) 0.5845(4)
H112 H 0.8168 0.8993 0.5657
C139 C 0.4930(11) 0.9553(8) 0.6584(3)
H124 H 0.4353 0.9333 0.6663
H125 H 0.5297 0.9768 0.6788
C140 C 0.5638(11) 0.8716(8) 0.6479(3)
H126 H 0.6055 0.8990 0.6649
C141 C 0.4515(13) 0.8330(9) 0.6153(4)
H127 H 0.4025 0.8294 0.6063
C142 C 0.4855(11) 0.7880(8) 0.6054(4)
H128 H 0.4657 0.7475 0.5877
N21 N 0.5586(8) 0.8125(6) 0.6268(2)
N22 N 0.5018(8) 0.8867(6) 0.6418(3)
N23 N 0.7682(9) 0.9044(7) 0.6133(3)
Cd4 Cd 0.65602(6) 0.77400(4) 0.87960(2)
C143 C 0.6742(11) 0.7233(8) 0.8160(2)
C144 C 0.6864(10) 0.6865(7) 0.7819(3)
C145 C 0.6975(14) 0.6135(11) 0.7807(4)
H129 H 0.7022 0.5907 0.8018
C146 C 0.7013(23) 0.5761(16) 0.7500
H130 H 0.7064 0.5280 0.7500
C147 C 0.6788(13) 0.7192(10) 0.7500
H131 H 0.6683 0.7640 0.7500
O33 O 0.6735(7) 0.6850(5) 0.8436(2)
O34 O 0.6740(8) 0.7884(6) 0.81542(19)
C148 C 0.6742(11) 0.7233(8) 0.6840(2)
C149 C 0.6864(10) 0.6865(7) 0.7181(3)
C150 C 0.6975(14) 0.6135(11) 0.7193(4)
H132 H 0.7022 0.5907 0.6982
O35 O 0.6735(7) 0.6850(5) 0.6564(2)
O36 O 0.6740(8) 0.7884(6) 0.68458(19)
Cd6 Cd 0.65602(6) 0.77400(4) 0.62040(2)
O37 O 0.5651(6) 0.6678(4) 0.5832(2)
O38 O 0.5651(6) 0.6678(4) 0.9168(2)
O40 O 0.6922(7) 0.7369(5) 0.5645(2)
O41 O 0.6922(7) 0.7369(5) 0.9355(2)
C86_4 C 0.6459(7) 0.6459(7) 0.0000
H71_4 H 0.6967 0.6967 0.0000
C88_4 C 0.4975(8) 0.4975(8) 0.0000
H73_4 H 0.4467 0.4467 0.0000
C106_2 C 0.6794(11) 0.6183(9) 0.0604(3)
C107_2 C 0.6231(9) 0.5940(7) 0.0287(2)
C108_2 C 0.5488(10) 0.5187(8) 0.0285(2)
H92_2 H 0.5337 0.4825 0.0478
O27_2 O 0.6678(8) 0.5651(6) 0.0832(2)
O28_2 O 0.7369(9) 0.6922(7) 0.0645(2)
Cd9_2 Cd 0.77400(7) 0.65602(6) 0.12040(2)
C1_2 C 0.6183(9) 0.6794(5) 0.5604(3)
C2_2 C 0.5940(7) 0.6231(5) 0.5287(2)
C3_5 C 0.6459(7) 0.6459(7) 0.5000
H1_5 H 0.6967 0.6967 0.5000
C4_2 C 0.5187(8) 0.5488(6) 0.5285(2)
H2_2 H 0.4825 0.5337 0.5478
C5_5 C 0.4975(8) 0.4975(8) 0.5000
H3_5 H 0.4467 0.4467 0.5000
C28_2 C 0.6794(11) 0.6183(9) 0.4396(3)
C29_2 C 0.6231(9) 0.5940(7) 0.4713(2)
C30_2 C 0.5488(10) 0.5187(8) 0.4715(2)
H25_2 H 0.5337 0.4825 0.4522
O7_2 O 0.6678(8) 0.5651(6) 0.4168(2)
O8_2 O 0.7369(9) 0.6922(7) 0.4355(2)
C84_3 C 0.6183(9) 0.6794(5) 0.9396(3)
C85_3 C 0.5940(7) 0.6231(5) 0.9713(2)
C86_5 C 0.6459(7) 0.6459(7) 1.0000
H71_5 H 0.6967 0.6967 1.0000
C87_3 C 0.5187(8) 0.5488(6) 0.9715(2)
H72_3 H 0.4825 0.5337 0.9522
C88_5 C 0.4975(8) 0.4975(8) 1.0000
H73_5 H 0.4467 0.4467 1.0000
Cd7_2 Cd 0.77400(7) 0.65602(6) 0.37960(2)
C51_2 C 0.9699(8) 0.7880(11) 0.3674(4)
H45_2 H 0.9688 0.7606 0.3466
C52_2 C 0.9328(8) 0.8193(11) 0.4155(4)
H46_2 H 0.8993 0.8168 0.4343
C64_2 C 0.9553(8) 0.4930(11) 0.3416(3)
H58_2 H 0.9333 0.4353 0.3337
H59_2 H 0.9768 0.5297 0.3212
C65_2 C 0.8716(8) 0.5638(11) 0.3521(3)
H60_2 H 0.8990 0.6055 0.3351
C66_2 C 0.8330(9) 0.4515(13) 0.3847(4)
H61_2 H 0.8294 0.4025 0.3937
C67_2 C 0.7880(8) 0.4855(11) 0.3946(4)
H62_2 H 0.7475 0.4657 0.4123
N9_2 N 0.8125(6) 0.5586(8) 0.3732(2)
N10_2 N 0.8867(6) 0.5018(8) 0.3582(3)
N11_2 N 0.9044(7) 0.7682(9) 0.3867(3)
C126_2 C 0.9699(8) 0.7880(11) 0.1326(4)
H111_2 H 0.9688 0.7606 0.1534
C127_2 C 0.9328(8) 0.8193(11) 0.0845(4)
H112_2 H 0.8993 0.8168 0.0657
C139_2 C 0.9553(8) 0.4930(11) 0.1584(3)
H124_2 H 0.9333 0.4353 0.1663
H125_2 H 0.9768 0.5297 0.1788
C140_2 C 0.8716(8) 0.5638(11) 0.1479(3)
H126_2 H 0.8990 0.6055 0.1649
C141_2 C 0.8330(9) 0.4515(13) 0.1153(4)
H127_2 H 0.8294 0.4025 0.1063
C142_2 C 0.7880(8) 0.4855(11) 0.1054(4)
H128_2 H 0.7475 0.4657 0.0877
N21_2 N 0.8125(6) 0.5586(8) 0.1268(2)
N22_2 N 0.8867(6) 0.5018(8) 0.1418(3)
N23_2 N 0.9044(7) 0.7682(9) 0.1133(3)
C143_2 C 0.7233(8) 0.6742(11) 0.3160(2)
C144_2 C 0.6865(7) 0.6864(10) 0.2819(3)
C145_2 C 0.6135(11) 0.6975(14) 0.2807(4)
H129_2 H 0.5907 0.7022 0.3018
C146_2 C 0.5761(16) 0.7013(23) 0.2500
H130_2 H 0.5280 0.7064 0.2500
C147_2 C 0.7192(10) 0.6788(13) 0.2500
H131_2 H 0.7640 0.6683 0.2500
O33_2 O 0.6850(5) 0.6735(7) 0.3436(2)
O34_2 O 0.7884(6) 0.6740(8) 0.31542(19)
C148_2 C 0.7233(8) 0.6742(11) 0.1840(2)
C149_2 C 0.6865(7) 0.6864(10) 0.2181(3)
C150_2 C 0.6135(11) 0.6975(14) 0.2193(4)
H132_2 H 0.5907 0.7022 0.1982
O35_2 O 0.6850(5) 0.6735(7) 0.1564(2)
O36_2 O 0.7884(6) 0.6740(8) 0.18458(19)
C70_3 C 1.0000 0.3541(7) 0.0000
H63_3 H 1.0000 0.3033 0.0000
C72_3 C 1.0000 0.5025(8) 0.0000
H65_3 H 1.0000 0.5533 0.0000
C78 C 0.9389(7) 0.3206(5) 0.0604(3)
C79 C 0.9709(5) 0.3769(5) 0.0287(2)
C80 C 0.9699(6) 0.4512(6) 0.0285(2)
H69 H 0.9488 0.4663 0.0478
O19 O 0.8973(5) 0.3322(4) 0.0832(2)
O20 O 0.9553(5) 0.2631(5) 0.0645(2)
Cd8 Cd 0.88202(4) 0.22600(4) 0.12040(2)
C70_4 C 1.0000 0.3541(7) 1.0000
H63_4 H 1.0000 0.3033 1.0000
C72_4 C 1.0000 0.5025(8) 1.0000
H65_4 H 1.0000 0.5533 1.0000
C75_2 C 0.9160(9) 0.3025(14) 0.7807(4)
H66_2 H 0.8885 0.2978 0.8018
C76_2 C 0.8748(17) 0.2987(23) 0.7500
H67_2 H 0.8216 0.2936 0.7500
C83_2 C 0.9160(9) 0.3025(14) 0.7193(4)
H70_2 H 0.8885 0.2978 0.6982
C86_6 C 1.0000 0.3541(7) 0.5000
H71_6 H 1.0000 0.3033 0.5000
C88_6 C 1.0000 0.5025(8) 0.5000
H73_6 H 1.0000 0.5533 0.5000
C106_3 C 0.9389(7) 0.3206(11) 0.4396(3)
C107_3 C 0.9709(5) 0.3769(9) 0.4713(2)
C108_3 C 0.9699(6) 0.4512(10) 0.4715(2)
H92_3 H 0.9488 0.4663 0.4522
O27_3 O 0.8973(5) 0.3322(8) 0.4168(2)
O28_3 O 0.9553(5) 0.2631(9) 0.4355(2)
Cd9_3 Cd 0.88202(4) 0.22600(7) 0.37960(2)
C6_2 C 0.9509(8) 0.2767(8) 0.3160(2)
C7_2 C 0.9999(7) 0.3135(7) 0.2819(3)
C10_2 C 0.9596(9) 0.2808(10) 0.2500
H6_2 H 0.9043 0.2360 0.2500
C11_2 C 0.8181(8) 0.0301(8) 0.3674(4)
H7_2 H 0.7918 0.0312 0.3466
C12_2 C 0.8865(7) 0.0672(8) 0.4155(4)
H8_2 H 0.9175 0.1007 0.4343
C24_2 C 0.5377(7) 0.0447(8) 0.3416(3)
H20_2 H 0.5020 0.0667 0.3337
H21_2 H 0.5529 0.0232 0.3212
C25_2 C 0.6922(7) 0.1284(8) 0.3521(3)
H22_2 H 0.7065 0.1010 0.3351
C26_2 C 0.6185(9) 0.1670(9) 0.3847(4)
H23_2 H 0.5731 0.1706 0.3937
C27_2 C 0.6975(8) 0.2120(8) 0.3946(4)
H24_2 H 0.7182 0.2525 0.4123
N1_2 N 0.7461(6) 0.1875(6) 0.3732(2)
N2_2 N 0.6151(5) 0.1133(6) 0.3582(3)
N3_2 N 0.8638(6) 0.0956(7) 0.3867(3)
O3_2 O 0.9885(5) 0.3150(5) 0.3436(2)
O4_2 O 0.8856(5) 0.2116(6) 0.31542(19)
C31_2 C 0.9509(8) 0.2767(8) 0.1840(2)
C32_2 C 0.9999(7) 0.3135(7) 0.2181(3)
O9_2 O 0.9885(5) 0.3150(5) 0.1564(2)
O10_2 O 0.8856(5) 0.2116(6) 0.18458(19)
C89_2 C 0.8181(8) 0.0301(8) 0.1326(4)
H74_2 H 0.7918 0.0312 0.1534
C90_2 C 0.8865(7) 0.0672(8) 0.0845(4)
H75_2 H 0.9175 0.1007 0.0657
C102_2 C 0.5377(7) 0.0447(8) 0.1584(3)
H87_2 H 0.5020 0.0667 0.1663
H88_2 H 0.5529 0.0232 0.1788
C103_2 C 0.6922(7) 0.1284(8) 0.1479(3)
H89_2 H 0.7065 0.1010 0.1649
C104_2 C 0.6185(9) 0.1670(9) 0.1153(4)
H90_2 H 0.5731 0.1706 0.1063
C105_2 C 0.6975(8) 0.2120(8) 0.1054(4)
H91_2 H 0.7182 0.2525 0.0877
N13_2 N 0.7461(6) 0.1875(6) 0.1268(2)
N14_2 N 0.6151(5) 0.1133(6) 0.1418(3)
N15_2 N 0.8638(6) 0.0956(7) 0.1133(3)
loop_
_geom_bond_atom_site_label_1
_geom_bond_atom_site_label_2
_geom_bond_site_symmetry_1
_geom_bond_site_symmetry_2
C3 H1 1_555 1_555
H3 C5 1_555 1_555
C28 C29 1_555 1_555
C29 C3 1_555 1_555
C30 C5 1_555 1_555
H25 C30 1_555 1_555
O7 C28 1_555 1_555
O8 C28 1_555 1_555
Cd7 O7 1_555 1_555
C29 C30 1_555 1_555
O8 Cd7 1_555 1_555
C3_2 H1_2 1_555 1_555
H3_2 C5_2 1_555 1_555
C8 H4 1_555 1_555
C9 C8 1_555 1_555
H5 C9 1_555 1_555
C33 C9 1_555 1_555
H26 C33 1_555 1_555
C86 H71 1_555 1_555
H73 C88 1_555 1_555
C106 C107 1_555 1_555
C107 C86 1_555 1_555
C108 C88 1_555 1_555
H92 C108 1_555 1_555
O27 C106 1_555 1_555
O28 C106 1_555 1_555
Cd9 O27 1_555 1_555
C107 C108 1_555 1_555
O28 Cd9 1_555 1_555
H9 C13 1_555 1_555
C14 H10 1_555 1_555
H11 C14 1_555 1_555
C15 C14 1_555 1_555
H12 C15 1_555 1_555
H13 C15 1_555 1_555
C16 C17 1_555 1_555
C17 H14 1_555 1_555
C18 C17 1_555 1_555
C19 C18 1_555 1_555
C20 C19 1_555 1_555
H15 C20 1_555 1_555
C21 C16 1_555 1_555
C22 C19 1_555 1_555
H16 C22 1_555 1_555
H17 C22 1_555 1_555
C23 H18 1_555 1_555
H19 C23 1_555 1_555
O5 C15 1_555 1_555
O6 C21 1_555 1_555
C34 H27 1_555 1_555
C35 H28 1_555 1_555
C36 C35 1_555 1_555
H29 C36 1_555 1_555
C37 H30 1_555 1_555
H31 C37 1_555 1_555
C38 C37 1_555 1_555
H32 C38 1_555 1_555
H33 C38 1_555 1_555
C39 C40 1_555 1_555
C40 H34 1_555 1_555
C41 C40 1_555 1_555
C42 C41 1_555 1_555
C43 C42 1_555 1_555
H35 C43 1_555 1_555
C44 C39 1_555 1_555
C45 C18 1_555 1_555
H36 C45 1_555 1_555
H37 C45 1_555 1_555
C46 H38 1_555 1_555
H39 C46 1_555 1_555
C47 C46 1_555 1_555
H40 C47 1_555 1_555
H41 C47 1_555 1_555
C48 H42 1_555 1_555
C49 H43 1_555 1_555
C50 C49 1_555 1_555
H44 C50 1_555 1_555
N5 C48 1_555 1_555
N6 C47 1_555 1_555
N7 C34 1_555 1_555
N8 C34 1_555 1_555
O11 C38 1_555 1_555
O12 C44 1_555 1_555
H47 C53 1_555 1_555
C54 H48 1_555 1_555
H49 C54 1_555 1_555
C55 C54 1_555 1_555
H50 C55 1_555 1_555
H51 C55 1_555 1_555
C56 C57 1_555 1_555
C57 H52 1_555 1_555
C58 C22 1_555 1_555
C59 C58 1_555 1_555
C60 C59 1_555 1_555
H53 C60 1_555 1_555
C61 C56 1_555 1_555
C62 C41 1_555 1_555
H54 C62 1_555 1_555
H55 C62 1_555 1_555
C63 H56 1_555 1_555
H57 C63 1_555 1_555
O13 C55 1_555 1_555
O14 C61 1_555 1_555
Cd9 N5 1_555 1_555
C73 C74 1_555 1_555
C77 C74 1_555 1_555
H68 C77 1_555 1_555
O17 Cd9 1_555 1_555
O18 Cd9 1_555 1_555
C81 C82 1_555 1_555
C82 C77 1_555 1_555
O21 C81 1_555 1_555
O22 C81 1_555 1_555
H76 C91 1_555 1_555
C92 H77 1_555 1_555
H78 C92 1_555 1_555
C93 C92 1_555 1_555
H79 C93 1_555 1_555
H80 C93 1_555 1_555
C94 C95 1_555 1_555
C95 H81 1_555 1_555
C96 C95 1_555 1_555
C97 C96 1_555 1_555
C98 C97 1_555 1_555
H82 C98 1_555 1_555
C99 C94 1_555 1_555
C100 C97 1_555 1_555
H83 C100 1_555 1_555
H84 C100 1_555 1_555
C101 H85 1_555 1_555
H86 C101 1_555 1_555
O25 C93 1_555 1_555
O26 C99 1_555 1_555
C109 H93 1_555 1_555
C110 H94 1_555 1_555
C111 C110 1_555 1_555
H95 C111 1_555 1_555
C112 H96 1_555 1_555
H97 C112 1_555 1_555
C113 C112 1_555 1_555
H98 C113 1_555 1_555
H99 C113 1_555 1_555
C114 C115 1_555 1_555
C115 H100 1_555 1_555
C116 C115 1_555 1_555
C117 C116 1_555 1_555
C118 C117 1_555 1_555
H101 C118 1_555 1_555
C119 C114 1_555 1_555
C120 C96 1_555 1_555
H102 C120 1_555 1_555
H103 C120 1_555 1_555
C121 H104 1_555 1_555
H105 C121 1_555 1_555
C122 C121 1_555 1_555
H106 C122 1_555 1_555
H107 C122 1_555 1_555
C123 H108 1_555 1_555
C124 H109 1_555 1_555
C125 C124 1_555 1_555
H110 C125 1_555 1_555
N17 C123 1_555 1_555
N18 C122 1_555 1_555
N19 C109 1_555 1_555
N20 C109 1_555 1_555
O29 C113 1_555 1_555
O30 C119 1_555 1_555
H113 C128 1_555 1_555
C129 H114 1_555 1_555
H115 C129 1_555 1_555
C130 C129 1_555 1_555
H116 C130 1_555 1_555
H117 C130 1_555 1_555
C131 C132 1_555 1_555
C132 H118 1_555 1_555
C133 C100 1_555 1_555
C134 C133 1_555 1_555
C135 C134 1_555 1_555
H119 C135 1_555 1_555
C136 C131 1_555 1_555
C137 C116 1_555 1_555
H120 C137 1_555 1_555
H121 C137 1_555 1_555
C138 H122 1_555 1_555
H123 C138 1_555 1_555
O31 C130 1_555 1_555
O32 C136 1_555 1_555
Cd7 O21 1_555 1_555
C13 N4 1_555 1_555
C14 N4 1_555 1_555
C16 O5 1_555 1_555
C20 C21 1_555 1_555
C23 O6 1_555 1_555
C35 N7 1_555 1_555
C36 N8 1_555 1_555
C37 N8 1_555 1_555
C39 O11 1_555 1_555
C42 C45 1_555 1_555
C43 C44 1_555 1_555
C46 O12 1_555 1_555
C48 N6 1_555 1_555
C49 N6 1_555 1_555
C50 N5 1_555 1_555
N7 Cd9 1_555 1_555
C53 N12 1_555 1_555
C54 N12 1_555 1_555
C56 O13 1_555 1_555
C57 C58 1_555 1_555
C59 C62 1_555 1_555
C60 C61 1_555 1_555
C63 O14 1_555 1_555
C73 O17 1_555 1_555
C73 O18 1_555 1_555
O22 Cd7 1_555 1_555
C91 N16 1_555 1_555
C92 N16 1_555 1_555
C94 O25 1_555 1_555
C98 C99 1_555 1_555
C101 O26 1_555 1_555
C110 N19 1_555 1_555
C111 N20 1_555 1_555
C112 N20 1_555 1_555
C114 O29 1_555 1_555
C117 C120 1_555 1_555
C118 C119 1_555 1_555
C121 O30 1_555 1_555
C123 N18 1_555 1_555
C124 N18 1_555 1_555
C125 N17 1_555 1_555
N17 Cd7 1_555 1_555
N19 Cd7 1_555 1_555
C128 N24 1_555 1_555
C129 N24 1_555 1_555
C131 O31 1_555 1_555
C132 C133 1_555 1_555
C134 C137 1_555 1_555
C135 C136 1_555 1_555
C138 O32 1_555 1_555
C3_3 H1_3 1_555 1_555
H3_3 C5_3 1_555 1_555
Cd1 N1 1_555 1_555
C1 C2 1_555 1_555
C2 C3_4 1_555 1_555
C3_4 H1_4 1_555 1_555
C4 C2 1_555 1_555
H2 C4 1_555 1_555
C5_4 C4 1_555 1_555
H3_4 C5_4 1_555 1_555
C6 C7 1_555 1_555
C10 C7 1_555 1_555
H6 C10 1_555 1_555
C11 H7 1_555 1_555
C12 H8 1_555 1_555
H20 C24 1_555 1_555
H21 C24 1_555 1_555
C25 H22 1_555 1_555
C26 H23 1_555 1_555
C27 C26 1_555 1_555
H24 C27 1_555 1_555
N1 C25 1_555 1_555
N2 C24 1_555 1_555
N3 Cd1 1_555 1_555
O1 Cd1 1_555 1_555
O2 Cd1 1_555 1_555
O3 Cd1 1_555 1_555
O4 Cd1 1_555 1_555
C31 C32 1_555 1_555
C32 C10 1_555 1_555
O9 C31 1_555 1_555
O10 C31 1_555 1_555
Cd3 O9 1_555 1_555
C84 C85 1_555 1_555
C85 C86_2 1_555 1_555
C86_2 H71_2 1_555 1_555
C87 C85 1_555 1_555
H72 C87 1_555 1_555
C88_2 C87 1_555 1_555
H73_2 C88_2 1_555 1_555
C89 H74 1_555 1_555
C90 H75 1_555 1_555
H87 C102 1_555 1_555
H88 C102 1_555 1_555
C103 H89 1_555 1_555
C104 H90 1_555 1_555
C105 C104 1_555 1_555
H91 C105 1_555 1_555
N13 Cd3 1_555 1_555
N14 C102 1_555 1_555
N15 Cd3 1_555 1_555
O23 Cd3 1_555 1_555
O24 Cd3 1_555 1_555
C1 O1 1_555 1_555
C1 O2 1_555 1_555
C6 O3 1_555 1_555
C6 O4 1_555 1_555
C11 N3 1_555 1_555
C12 N3 1_555 1_555
C25 N2 1_555 1_555
C26 N2 1_555 1_555
C27 N1 1_555 1_555
O10 Cd3 1_555 1_555
C84 O23 1_555 1_555
C84 O24 1_555 1_555
C89 N15 1_555 1_555
C90 N15 1_555 1_555
C103 N13 1_555 1_555
C103 N14 1_555 1_555
C104 N14 1_555 1_555
C105 N13 1_555 1_555
C75 H66 1_555 1_555
C76 C75 1_555 1_555
H67 C76 1_555 1_555
C83 C76 1_555 1_555
H70 C83 1_555 1_555
C70 H63 1_555 1_555
H65 C72 1_555 1_555
H9_2 C13_2 1_555 1_555
C14_2 H10_2 1_555 1_555
H11_2 C14_2 1_555 1_555
C15_2 C14_2 1_555 1_555
H12_2 C15_2 1_555 1_555
H13_2 C15_2 1_555 1_555
C16_2 C17_2 1_555 1_555
C17_2 H14_2 1_555 1_555
C18_2 C17_2 1_555 1_555
C19_2 C18_2 1_555 1_555
C20_2 C19_2 1_555 1_555
H15_2 C20_2 1_555 1_555
C21_2 C16_2 1_555 1_555
C22_2 C19_2 1_555 1_555
H16_2 C22_2 1_555 1_555
H17_2 C22_2 1_555 1_555
C23_2 H18_2 1_555 1_555
H19_2 C23_2 1_555 1_555
O5_2 C15_2 1_555 1_555
O6_2 C21_2 1_555 1_555
C34_2 H27_2 1_555 1_555
C35_2 H28_2 1_555 1_555
C36_2 C35_2 1_555 1_555
H29_2 C36_2 1_555 1_555
C37_2 H30_2 1_555 1_555
H31_2 C37_2 1_555 1_555
C38_2 C37_2 1_555 1_555
H32_2 C38_2 1_555 1_555
H33_2 C38_2 1_555 1_555
C39_2 C40_2 1_555 1_555
C40_2 H34_2 1_555 1_555
C41_2 C40_2 1_555 1_555
C42_2 C41_2 1_555 1_555
C43_2 C42_2 1_555 1_555
H35_2 C43_2 1_555 1_555
C44_2 C39_2 1_555 1_555
C45_2 C18_2 1_555 1_555
H36_2 C45_2 1_555 1_555
H37_2 C45_2 1_555 1_555
C46_2 H38_2 1_555 1_555
H39_2 C46_2 1_555 1_555
C47_2 C46_2 1_555 1_555
H40_2 C47_2 1_555 1_555
H41_2 C47_2 1_555 1_555
C48_2 H42_2 1_555 1_555
C49_2 H43_2 1_555 1_555
C50_2 C49_2 1_555 1_555
H44_2 C50_2 1_555 1_555
N5_2 C48_2 1_555 1_555
N6_2 C47_2 1_555 1_555
N7_2 C34_2 1_555 1_555
N8_2 C34_2 1_555 1_555
O11_2 C38_2 1_555 1_555
O12_2 C44_2 1_555 1_555
H47_2 C53_2 1_555 1_555
C54_2 H48_2 1_555 1_555
H49_2 C54_2 1_555 1_555
C55_2 C54_2 1_555 1_555
H50_2 C55_2 1_555 1_555
H51_2 C55_2 1_555 1_555
C56_2 C57_2 1_555 1_555
C57_2 H52_2 1_555 1_555
C58_2 C22_2 1_555 1_555
C59_2 C58_2 1_555 1_555
C60_2 C59_2 1_555 1_555
H53_2 C60_2 1_555 1_555
C61_2 C56_2 1_555 1_555
C62_2 C41_2 1_555 1_555
H54_2 C62_2 1_555 1_555
H55_2 C62_2 1_555 1_555
C63_2 H56_2 1_555 1_555
H57_2 C63_2 1_555 1_555
O13_2 C55_2 1_555 1_555
O14_2 C61_2 1_555 1_555
Cd2 N5_2 1_555 1_555
C68 C69 1_555 1_555
C69 C70_2 1_555 1_555
C70_2 H63_2 1_555 1_555
C71 C69 1_555 1_555
H64 C71 1_555 1_555
C72_2 C71 1_555 1_555
H65_2 C72_2 1_555 1_555
C73_2 C74_2 1_555 1_555
C77_2 C74_2 1_555 1_555
H68_2 C77_2 1_555 1_555
O15 Cd2 1_555 1_555
O16 Cd2 1_555 1_555
O17_2 Cd2 1_555 1_555
O18_2 Cd2 1_555 1_555
C81_2 C82_2 1_555 1_555
C82_2 C77_2 1_555 1_555
O21_2 C81_2 1_555 1_555
O22_2 C81_2 1_555 1_555
H76_2 C91_2 1_555 1_555
C92_2 H77_2 1_555 1_555
H78_2 C92_2 1_555 1_555
C93_2 C92_2 1_555 1_555
H79_2 C93_2 1_555 1_555
H80_2 C93_2 1_555 1_555
C94_2 C95_2 1_555 1_555
C95_2 H81_2 1_555 1_555
C96_2 C95_2 1_555 1_555
C97_2 C96_2 1_555 1_555
C98_2 C97_2 1_555 1_555
H82_2 C98_2 1_555 1_555
C99_2 C94_2 1_555 1_555
C100_2 C97_2 1_555 1_555
H83_2 C100_2 1_555 1_555
H84_2 C100_2 1_555 1_555
C101_2 H85_2 1_555 1_555
H86_2 C101_2 1_555 1_555
O25_2 C93_2 1_555 1_555
O26_2 C99_2 1_555 1_555
C109_2 H93_2 1_555 1_555
C110_2 H94_2 1_555 1_555
C111_2 C110_2 1_555 1_555
H95_2 C111_2 1_555 1_555
C112_2 H96_2 1_555 1_555
H97_2 C112_2 1_555 1_555
C113_2 C112_2 1_555 1_555
H98_2 C113_2 1_555 1_555
H99_2 C113_2 1_555 1_555
C114_2 C115_2 1_555 1_555
C115_2 H100_2 1_555 1_555
C116_2 C115_2 1_555 1_555
C117_2 C116_2 1_555 1_555
C118_2 C117_2 1_555 1_555
H101_2 C118_2 1_555 1_555
C119_2 C114_2 1_555 1_555
C120_2 C96_2 1_555 1_555
H102_2 C120_2 1_555 1_555
H103_2 C120_2 1_555 1_555
C121_2 H104_2 1_555 1_555
H105_2 C121_2 1_555 1_555
C122_2 C121_2 1_555 1_555
H106_2 C122_2 1_555 1_555
H107_2 C122_2 1_555 1_555
C123_2 H108_2 1_555 1_555
C124_2 H109_2 1_555 1_555
C125_2 C124_2 1_555 1_555
H110_2 C125_2 1_555 1_555
N17_2 C123_2 1_555 1_555
N18_2 C122_2 1_555 1_555
N19_2 C109_2 1_555 1_555
N20_2 C109_2 1_555 1_555
O29_2 C113_2 1_555 1_555
O30_2 C119_2 1_555 1_555
H113_2 C128_2 1_555 1_555
C129_2 H114_2 1_555 1_555
H115_2 C129_2 1_555 1_555
C130_2 C129_2 1_555 1_555
H116_2 C130_2 1_555 1_555
H117_2 C130_2 1_555 1_555
C131_2 C132_2 1_555 1_555
C132_2 H118_2 1_555 1_555
C133_2 C100_2 1_555 1_555
C134_2 C133_2 1_555 1_555
C135_2 C134_2 1_555 1_555
H119_2 C135_2 1_555 1_555
C136_2 C131_2 1_555 1_555
C137_2 C116_2 1_555 1_555
H120_2 C137_2 1_555 1_555
H121_2 C137_2 1_555 1_555
C138_2 H122_2 1_555 1_555
H123_2 C138_2 1_555 1_555
O31_2 C130_2 1_555 1_555
O32_2 C136_2 1_555 1_555
Cd5 O21_2 1_555 1_555
O39 Cd5 1_555 1_555
O42 Cd5 1_555 1_555
C13_2 N4_2 1_555 1_555
C14_2 N4_2 1_555 1_555
C16_2 O5_2 1_555 1_555
C20_2 C21_2 1_555 1_555
C23_2 O6_2 1_555 1_555
C35_2 N7_2 1_555 1_555
C36_2 N8_2 1_555 1_555
C37_2 N8_2 1_555 1_555
C39_2 O11_2 1_555 1_555
C42_2 C45_2 1_555 1_555
C43_2 C44_2 1_555 1_555
C46_2 O12_2 1_555 1_555
C48_2 N6_2 1_555 1_555
C49_2 N6_2 1_555 1_555
C50_2 N5_2 1_555 1_555
N7_2 Cd2 1_555 1_555
C53_2 N12_2 1_555 1_555
C54_2 N12_2 1_555 1_555
C56_2 O13_2 1_555 1_555
C57_2 C58_2 1_555 1_555
C59_2 C62_2 1_555 1_555
C60_2 C61_2 1_555 1_555
C63_2 O14_2 1_555 1_555
C68 O15 1_555 1_555
C68 O16 1_555 1_555
C73_2 O17_2 1_555 1_555
C73_2 O18_2 1_555 1_555
O22_2 Cd5 1_555 1_555
C91_2 N16_2 1_555 1_555
C92_2 N16_2 1_555 1_555
C94_2 O25_2 1_555 1_555
C98_2 C99_2 1_555 1_555
C101_2 O26_2 1_555 1_555
C110_2 N19_2 1_555 1_555
C111_2 N20_2 1_555 1_555
C112_2 N20_2 1_555 1_555
C114_2 O29_2 1_555 1_555
C117_2 C120_2 1_555 1_555
C118_2 C119_2 1_555 1_555
C121_2 O30_2 1_555 1_555
C123_2 N18_2 1_555 1_555
C124_2 N18_2 1_555 1_555
C125_2 N17_2 1_555 1_555
N17_2 Cd5 1_555 1_555
N19_2 Cd5 1_555 1_555
C128_2 N24_2 1_555 1_555
C129_2 N24_2 1_555 1_555
C131_2 O31_2 1_555 1_555
C132_2 C133_2 1_555 1_555
C134_2 C137_2 1_555 1_555
C135_2 C136_2 1_555 1_555
C138_2 O32_2 1_555 1_555
C84_2 C85_2 1_555 1_555
C85_2 C86_3 1_555 1_555
C86_3 H71_3 1_555 1_555
C87_2 C85_2 1_555 1_555
H72_2 C87_2 1_555 1_555
C88_3 C87_2 1_555 1_555
H73_3 C88_3 1_555 1_555
C84_2 O39 1_555 1_555
C84_2 O42 1_555 1_555
C8_2 H4_2 1_555 1_555
C9_2 C8_2 1_555 1_555
H5_2 C9_2 1_555 1_555
C33_2 C9_2 1_555 1_555
H26_2 C33_2 1_555 1_555
C51 H45 1_555 1_555
C52 H46 1_555 1_555
H58 C64 1_555 1_555
H59 C64 1_555 1_555
C65 H60 1_555 1_555
C66 H61 1_555 1_555
C67 C66 1_555 1_555
H62 C67 1_555 1_555
N9 C65 1_555 1_555
N10 C64 1_555 1_555
N11 C51 1_555 1_555
C126 H111 1_555 1_555
C127 H112 1_555 1_555
H124 C139 1_555 1_555
H125 C139 1_555 1_555
C140 H126 1_555 1_555
C141 H127 1_555 1_555
C142 C141 1_555 1_555
H128 C142 1_555 1_555
N21 C140 1_555 1_555
N22 C139 1_555 1_555
N23 C126 1_555 1_555
Cd4 N9 1_555 1_555
C143 C144 1_555 1_555
C144 C145 1_555 1_555
C145 H129 1_555 1_555
C146 C145 1_555 1_555
H130 C146 1_555 1_555
C147 C144 1_555 1_555
H131 C147 1_555 1_555
O33 Cd4 1_555 1_555
O34 Cd4 1_555 1_555
C148 C149 1_555 1_555
C149 C147 1_555 1_555
C150 C146 1_555 1_555
H132 C150 1_555 1_555
O35 C148 1_555 1_555
O36 C148 1_555 1_555
Cd6 N21 1_555 1_555
O37 Cd6 1_555 1_555
O38 Cd4 1_555 1_555
O40 Cd6 1_555 1_555
O41 Cd4 1_555 1_555
C52 N11 1_555 1_555
C65 N10 1_555 1_555
C66 N10 1_555 1_555
C67 N9 1_555 1_555
N11 Cd4 1_555 1_555
C127 N23 1_555 1_555
C140 N22 1_555 1_555
C141 N22 1_555 1_555
C142 N21 1_555 1_555
N23 Cd6 1_555 1_555
C143 O33 1_555 1_555
C143 O34 1_555 1_555
C149 C150 1_555 1_555
O35 Cd6 1_555 1_555
O36 Cd6 1_555 1_555
C86_4 H71_4 1_555 1_555
H73_4 C88_4 1_555 1_555
C106_2 C107_2 1_555 1_555
C107_2 C86_4 1_555 1_555
C108_2 C88_4 1_555 1_555
H92_2 C108_2 1_555 1_555
O27_2 C106_2 1_555 1_555
O28_2 C106_2 1_555 1_555
Cd9_2 O27_2 1_555 1_555
C107_2 C108_2 1_555 1_555
O28_2 Cd9_2 1_555 1_555
C1_2 C2_2 1_555 1_555
C2_2 C3_5 1_555 1_555
C3_5 H1_5 1_555 1_555
C4_2 C2_2 1_555 1_555
H2_2 C4_2 1_555 1_555
C5_5 C4_2 1_555 1_555
H3_5 C5_5 1_555 1_555
C28_2 C29_2 1_555 1_555
C29_2 C3_5 1_555 1_555
C30_2 C5_5 1_555 1_555
H25_2 C30_2 1_555 1_555
O7_2 C28_2 1_555 1_555
O8_2 C28_2 1_555 1_555
C84_3 C85_3 1_555 1_555
C85_3 C86_5 1_555 1_555
C86_5 H71_5 1_555 1_555
C87_3 C85_3 1_555 1_555
H72_3 C87_3 1_555 1_555
C88_5 C87_3 1_555 1_555
H73_5 C88_5 1_555 1_555
Cd7_2 O7_2 1_555 1_555
C1_2 O37 1_555 1_555
C1_2 O40 1_555 1_555
C29_2 C30_2 1_555 1_555
O8_2 Cd7_2 1_555 1_555
C84_3 O38 1_555 1_555
C84_3 O41 1_555 1_555
C51_2 H45_2 1_555 1_555
C52_2 H46_2 1_555 1_555
H58_2 C64_2 1_555 1_555
H59_2 C64_2 1_555 1_555
C65_2 H60_2 1_555 1_555
C66_2 H61_2 1_555 1_555
C67_2 C66_2 1_555 1_555
H62_2 C67_2 1_555 1_555
N9_2 C65_2 1_555 1_555
N10_2 C64_2 1_555 1_555
N11_2 C51_2 1_555 1_555
C126_2 H111_2 1_555 1_555
C127_2 H112_2 1_555 1_555
H124_2 C139_2 1_555 1_555
H125_2 C139_2 1_555 1_555
C140_2 H126_2 1_555 1_555
C141_2 H127_2 1_555 1_555
C142_2 C141_2 1_555 1_555
H128_2 C142_2 1_555 1_555
N21_2 C140_2 1_555 1_555
N22_2 C139_2 1_555 1_555
N23_2 C126_2 1_555 1_555
Cd7_2 N9_2 1_555 1_555
C143_2 C144_2 1_555 1_555
C144_2 C145_2 1_555 1_555
C145_2 H129_2 1_555 1_555
C146_2 C145_2 1_555 1_555
H130_2 C146_2 1_555 1_555
C147_2 C144_2 1_555 1_555
H131_2 C147_2 1_555 1_555
O33_2 Cd7_2 1_555 1_555
O34_2 Cd7_2 1_555 1_555
C148_2 C149_2 1_555 1_555
C149_2 C147_2 1_555 1_555
C150_2 C146_2 1_555 1_555
H132_2 C150_2 1_555 1_555
O35_2 C148_2 1_555 1_555
O36_2 C148_2 1_555 1_555
Cd9_2 N21_2 1_555 1_555
C52_2 N11_2 1_555 1_555
C65_2 N10_2 1_555 1_555
C66_2 N10_2 1_555 1_555
C67_2 N9_2 1_555 1_555
N11_2 Cd7_2 1_555 1_555
C127_2 N23_2 1_555 1_555
C140_2 N22_2 1_555 1_555
C141_2 N22_2 1_555 1_555
C142_2 N21_2 1_555 1_555
N23_2 Cd9_2 1_555 1_555
C143_2 O33_2 1_555 1_555
C143_2 O34_2 1_555 1_555
C149_2 C150_2 1_555 1_555
O35_2 Cd9_2 1_555 1_555
O36_2 Cd9_2 1_555 1_555
C70_3 H63_3 1_555 1_555
H65_3 C72_3 1_555 1_555
C78 C79 1_555 1_555
C79 C70_3 1_555 1_555
C80 C72_3 1_555 1_555
H69 C80 1_555 1_555
O19 C78 1_555 1_555
O20 C78 1_555 1_555
Cd8 O19 1_555 1_555
C79 C80 1_555 1_555
O20 Cd8 1_555 1_555
C70_4 H63_4 1_555 1_555
H65_4 C72_4 1_555 1_555
C75_2 H66_2 1_555 1_555
C76_2 C75_2 1_555 1_555
H67_2 C76_2 1_555 1_555
C83_2 C76_2 1_555 1_555
H70_2 C83_2 1_555 1_555
C86_6 H71_6 1_555 1_555
H73_6 C88_6 1_555 1_555
C106_3 C107_3 1_555 1_555
C107_3 C86_6 1_555 1_555
C108_3 C88_6 1_555 1_555
H92_3 C108_3 1_555 1_555
O27_3 C106_3 1_555 1_555
O28_3 C106_3 1_555 1_555
Cd9_3 O27_3 1_555 1_555
C107_3 C108_3 1_555 1_555
O28_3 Cd9_3 1_555 1_555
Cd9_3 N1_2 1_555 1_555
C6_2 C7_2 1_555 1_555
C10_2 C7_2 1_555 1_555
H6_2 C10_2 1_555 1_555
C11_2 H7_2 1_555 1_555
C12_2 H8_2 1_555 1_555
H20_2 C24_2 1_555 1_555
H21_2 C24_2 1_555 1_555
C25_2 H22_2 1_555 1_555
C26_2 H23_2 1_555 1_555
C27_2 C26_2 1_555 1_555
H24_2 C27_2 1_555 1_555
N1_2 C25_2 1_555 1_555
N2_2 C24_2 1_555 1_555
N3_2 Cd9_3 1_555 1_555
O3_2 Cd9_3 1_555 1_555
O4_2 Cd9_3 1_555 1_555
C31_2 C32_2 1_555 1_555
C32_2 C10_2 1_555 1_555
O9_2 C31_2 1_555 1_555
O10_2 C31_2 1_555 1_555
Cd8 O9_2 1_555 1_555
C89_2 H74_2 1_555 1_555
C90_2 H75_2 1_555 1_555
H87_2 C102_2 1_555 1_555
H88_2 C102_2 1_555 1_555
C103_2 H89_2 1_555 1_555
C104_2 H90_2 1_555 1_555
C105_2 C104_2 1_555 1_555
H91_2 C105_2 1_555 1_555
N13_2 Cd8 1_555 1_555
N14_2 C102_2 1_555 1_555
N15_2 Cd8 1_555 1_555
C6_2 O3_2 1_555 1_555
C6_2 O4_2 1_555 1_555
C11_2 N3_2 1_555 1_555
C12_2 N3_2 1_555 1_555
C25_2 N2_2 1_555 1_555
C26_2 N2_2 1_555 1_555
C27_2 N1_2 1_555 1_555
O10_2 Cd8 1_555 1_555
C89_2 N15_2 1_555 1_555
C90_2 N15_2 1_555 1_555
C103_2 N13_2 1_555 1_555
C103_2 N14_2 1_555 1_555
C104_2 N14_2 1_555 1_555
C105_2 N13_2 1_555 1_555

#END
