
###############################################################################
#
# This file contains modified crystal structure data generated from the
# MOF subset of the Cambridge Structural Database (CSD) v543 
# hosted by the Cambridge Crystallographic Data Centre (CCDC).
#
# This work is licensed under the Creative Commons
# Attribution-NonCommercial-ShareAlike 4.0 International License.
# To view a copy of this license, visit
# http://creativecommons.org/licenses/by-nc-sa/4.0/
# or send a letter to
# Creative Commons, PO Box 1866, Mountain View, CA 94042, USA.
#
# CIF created using the CSD Python API on 29 September 2022
# The structure has been converted into the P1 space group
# The structure has a 3D framework
# The original CSD entry MIQVEQ is in the hexagonal crystal system
# The framework has been calculated to contain at least 10.0% void space
# The void calculation uses a probe of radius 1.32A, grid spacing 0.4
#
###############################################################################

data_MIQVEQ
_chemical_formula_moiety         '(C318 H282 Cd12 N48 O72)n'
_symmetry_cell_setting           triclinic
_symmetry_space_group_name_H-M   'P 1'
_symmetry_Int_Tables_number      1
_space_group_name_Hall           'P 1'
loop_
_symmetry_equiv_pos_site_id
_symmetry_equiv_pos_as_xyz
1 x,y,z
_cell_length_a                   18.1130(5)
_cell_length_b                   18.1130(5)
_cell_length_c                   39.2720(15)
_cell_angle_alpha                90
_cell_angle_beta                 90
_cell_angle_gamma                120
_cell_volume                     11158.2
loop_
_atom_site_label
_atom_site_type_symbol
_atom_site_fract_x
_atom_site_fract_y
_atom_site_fract_z
C28 C 0.2111(10) 0.5060(14) 0.0994(5)
H25 H 0.2471 0.5189 0.0807
C29 C 0.1692(10) 0.5461(15) 0.1080(4)
H26 H 0.1681 0.5896 0.0958
C30 C 0.1407(9) 0.4479(12) 0.1451(3)
H27 H 0.1167 0.4109 0.1634
C31 C 0.0641(10) 0.5254(13) 0.1550(4)
H28 H 0.0895 0.5853 0.1608
H29 H 0.0456 0.4928 0.1759
H31 H 0.0048 0.5287 0.1103
C43 C 0.0549(11) 0.1686(15) 0.0915(4)
H41 H 0.0832 0.1655 0.0722
C44 C 0.0328(8) 0.2086(11) 0.1391(4)
H42 H 0.0414 0.2377 0.1595
N5 N 0.1925(7) 0.4426(10) 0.1225(3)
N6 N 0.1273(6) 0.5110(8) 0.1386(3)
N8 N 0.0926(7) 0.2233(10) 0.1183(3)
Cd2 Cd 0.22229(5) 0.33680(7) 0.12033(2)
C68 C 0.2695(8) 0.3289(11) 0.1858(3)
C69 C 0.3103(6) 0.3288(8) 0.2192(3)
C70 C 0.3857(9) 0.3294(12) 0.2199(3)
H63 H 0.4106 0.3272 0.1995
C71 C 0.4257(12) 0.3335(16) 0.2500
H64 H 0.4796 0.3390 0.2500
C72 C 0.2724(9) 0.3278(12) 0.2500
H65 H 0.2205 0.3267 0.2500
C73 C 0.3080(9) 0.3613(13) 0.0611(3)
C74 C 0.3618(8) 0.3862(11) 0.0285(3)
C75 C 0.4345(9) 0.4597(12) 0.0282(3)
H66 H 0.4509 0.4942 0.0474
C76 C 0.4858(12) 0.4858(12) 0.0000
H67 H 0.5371 0.5371 0.0000
C77 C 0.3380(10) 0.3380(10) 0.0000
H68 H 0.2867 0.2867 0.0000
O15 O 0.1999(6) 0.3273(8) 0.18586(19)
O16 O 0.3064(5) 0.3288(7) 0.1588(2)
O17 O 0.3261(6) 0.4175(9) 0.0826(2)
O18 O 0.2486(7) 0.2870(10) 0.0652(2)
C78 C 0.2695(8) 0.3289(11) 0.3142(3)
C79 C 0.3103(6) 0.3288(8) 0.2808(3)
C80 C 0.3857(9) 0.3294(12) 0.2801(3)
H69 H 0.4106 0.3272 0.3005
O19 O 0.1999(6) 0.3273(8) 0.31414(19)
O20 O 0.3064(5) 0.3288(7) 0.3412(2)
C117 C 0.2111(10) 0.5060(14) 0.4006(5)
H97 H 0.2471 0.5189 0.4193
C118 C 0.1692(10) 0.5461(15) 0.3920(4)
H98 H 0.1681 0.5896 0.4042
C119 C 0.1407(9) 0.4479(12) 0.3549(3)
H99 H 0.1167 0.4109 0.3366
C120 C 0.0641(10) 0.5254(13) 0.3450(4)
H100 H 0.0895 0.5853 0.3392
H101 H 0.0456 0.4928 0.3241
H103 H 0.0048 0.5287 0.3897
C132 C 0.0549(11) 0.1686(15) 0.4085(4)
H113 H 0.0832 0.1655 0.4278
C133 C 0.0328(8) 0.2086(11) 0.3609(4)
H114 H 0.0414 0.2377 0.3405
N17 N 0.1925(7) 0.4426(10) 0.3775(3)
N18 N 0.1273(6) 0.5110(8) 0.3614(3)
N20 N 0.0926(7) 0.2233(10) 0.3817(3)
Cd6 Cd 0.22229(5) 0.33680(7) 0.37967(2)
O39 O 0.3261(6) 0.4175(9) 0.4174(2)
O42 O 0.2486(7) 0.2870(10) 0.4348(2)
C76_2 C 0.4858(12) 0.4858(12) 1.0000
H67_2 H 0.5371 0.5371 1.0000
C77_2 C 0.3380(10) 0.3380(10) 1.0000
H68_2 H 0.2867 0.2867 1.0000
C81 C 0.3613(13) 0.3080(9) 0.9389(3)
C82 C 0.3862(11) 0.3618(8) 0.9715(3)
C83 C 0.4597(12) 0.4345(9) 0.9718(3)
H70 H 0.4942 0.4509 0.9526
O21 O 0.4175(9) 0.3261(6) 0.9174(2)
O22 O 0.2870(10) 0.2486(7) 0.9348(2)
Cd7 Cd 0.33680(7) 0.22229(5) 0.87967(2)
C1 C 0.5060(14) 0.2111(10) 0.9006(5)
H1 H 0.5189 0.2471 0.9193
C2 C 0.5461(15) 0.1692(10) 0.8920(4)
H2 H 0.5896 0.1681 0.9042
C3 C 0.4479(12) 0.1407(9) 0.8549(3)
H3 H 0.4109 0.1167 0.8366
C4 C 0.5254(13) 0.0641(10) 0.8450(4)
H4 H 0.5853 0.0895 0.8392
H5 H 0.4928 0.0456 0.8241
H7 H 0.5287 0.0048 0.8897
C16 C 0.1686(15) 0.0549(11) 0.9085(4)
H17 H 0.1655 0.0832 0.9278
C17 C 0.2086(11) 0.0328(8) 0.8609(4)
H18 H 0.2377 0.0414 0.8405
C18 C 0.3289(11) 0.2695(8) 0.8142(3)
C19 C 0.3288(8) 0.3103(6) 0.7808(3)
C20 C 0.3294(12) 0.3857(9) 0.7801(3)
H19 H 0.3272 0.4106 0.8005
C21 C 0.3335(16) 0.4257(12) 0.7500
H20 H 0.3390 0.4796 0.7500
C22 C 0.3278(12) 0.2724(9) 0.7500
H21 H 0.3267 0.2205 0.7500
N1 N 0.4426(10) 0.1925(7) 0.8775(3)
N2 N 0.5110(8) 0.1273(6) 0.8614(3)
N4 N 0.2233(10) 0.0926(7) 0.8817(3)
O3 O 0.3273(8) 0.1999(6) 0.81414(19)
O4 O 0.3288(7) 0.3064(5) 0.8412(2)
C62 C 0.3289(11) 0.2695(8) 0.6858(3)
C63 C 0.3288(8) 0.3103(6) 0.7192(3)
C64 C 0.3294(12) 0.3857(9) 0.7199(3)
H61 H 0.3272 0.4106 0.6995
O11 O 0.3273(8) 0.1999(6) 0.68586(19)
O12 O 0.3288(7) 0.3064(5) 0.6588(2)
Cd4 Cd 0.33680(7) 0.22229(5) 0.62033(2)
C100 C 0.5060(14) 0.2111(10) 0.5994(5)
H79 H 0.5189 0.2471 0.5807
C101 C 0.5461(15) 0.1692(10) 0.6080(4)
H80 H 0.5896 0.1681 0.5958
C102 C 0.4479(12) 0.1407(9) 0.6451(3)
H81 H 0.4109 0.1167 0.6634
C103 C 0.5254(13) 0.0641(10) 0.6550(4)
H82 H 0.5853 0.0895 0.6608
H83 H 0.4928 0.0456 0.6759
H85 H 0.5287 0.0048 0.6103
C115 C 0.1686(15) 0.0549(11) 0.5915(4)
H95 H 0.1655 0.0832 0.5722
C116 C 0.2086(11) 0.0328(8) 0.6391(4)
H96 H 0.2377 0.0414 0.6595
N13 N 0.4426(10) 0.1925(7) 0.6225(3)
N14 N 0.5110(8) 0.1273(6) 0.6386(3)
N16 N 0.2233(10) 0.0926(7) 0.6183(3)
O37 O 0.4175(9) 0.3261(6) 0.5826(2)
O40 O 0.2870(10) 0.2486(7) 0.5652(2)
C73_2 C 0.3613(13) 0.3080(9) 0.5611(3)
C74_2 C 0.3862(11) 0.3618(8) 0.5285(3)
C75_2 C 0.4597(12) 0.4345(9) 0.5282(3)
H66_2 H 0.4942 0.4509 0.5474
C76_3 C 0.4858(12) 0.4858(12) 0.5000
H67_3 H 0.5371 0.5371 0.5000
C77_3 C 0.3380(10) 0.3380(10) 0.5000
H68_3 H 0.2867 0.2867 0.5000
C81_2 C 0.3080(9) 0.3613(13) 0.4389(3)
C82_2 C 0.3618(8) 0.3862(11) 0.4715(3)
C83_2 C 0.4345(9) 0.4597(12) 0.4718(3)
H70_2 H 0.4509 0.4942 0.4526
C86 C 0.6706(12) 0.0563(8) 0.2199(3)
H71 H 0.6728 0.0834 0.1995
C87 C 0.6665(16) 0.0922(11) 0.2500
H72 H 0.6610 0.1406 0.2500
C92 C 0.5142(12) -0.0000 0.0000
H75 H 0.4629 -0.0000 0.0000
C93 C 0.6620(10) -0.0000 0.0000
H76 H 0.7133 -0.0000 0.0000
C96 C 0.6706(12) 0.0563(8) 0.2801(3)
H77 H 0.6728 0.0834 0.3005
C92_2 C 0.5142(12) -0.0000 1.0000
H75_2 H 0.4629 -0.0000 1.0000
C93_2 C 0.6620(10) -0.0000 1.0000
H76_2 H 0.7133 -0.0000 1.0000
C97 C 0.6920(9) 0.0533(9) 0.9389(3)
C98 C 0.6382(8) 0.0244(7) 0.9715(3)
C99 C 0.5655(9) 0.0252(8) 0.9718(3)
H78 H 0.5491 0.0433 0.9526
O29 O 0.6739(6) 0.0914(7) 0.9174(2)
O30 O 0.7514(7) 0.0384(7) 0.9348(2)
Cd9 Cd 0.77771(5) 0.11451(5) 0.87967(2)
C45 C 0.7889(17) 0.2949(10) 0.9006(5)
H43 H 0.7529 0.2718 0.9193
C46 C 0.8308(19) 0.3769(11) 0.8920(4)
H44 H 0.8319 0.4215 0.9042
C47 C 0.8593(14) 0.3072(8) 0.8549(3)
H45 H 0.8833 0.2942 0.8366
C48 C 0.9359(15) 0.4613(8) 0.8450(4)
H46 H 0.9105 0.4958 0.8392
H47 H 0.9544 0.4472 0.8241
H49 H 0.9952 0.5239 0.8897
C60 C 0.9451(18) 0.1137(10) 0.9085(4)
H59 H 0.9168 0.0823 0.9278
C61 C 0.9672(14) 0.1758(8) 0.8609(4)
H60 H 0.9586 0.1963 0.8405
N9 N 0.8075(12) 0.2501(7) 0.8775(3)
N10 N 0.8727(10) 0.3837(6) 0.8614(3)
N12 N 0.9074(12) 0.1307(7) 0.8817(3)
C84 C 0.7305(14) 0.0594(8) 0.8142(3)
C85 C 0.6897(10) 0.0185(6) 0.7808(3)
C88 C 0.7276(14) 0.0554(8) 0.7500
H73 H 0.7795 0.1062 0.7500
O23 O 0.8001(9) 0.1274(5) 0.81414(19)
O24 O 0.6936(9) 0.0224(5) 0.8412(2)
C94 C 0.7305(14) 0.0594(8) 0.6858(3)
C95 C 0.6897(10) 0.0185(6) 0.7192(3)
O27 O 0.8001(9) 0.1274(5) 0.68586(19)
O28 O 0.6936(9) 0.0224(5) 0.6588(2)
C134 C 0.7889(17) 0.2949(10) 0.5994(5)
H115 H 0.7529 0.2718 0.5807
C135 C 0.8308(19) 0.3769(11) 0.6080(4)
H116 H 0.8319 0.4215 0.5958
C136 C 0.8593(14) 0.3072(8) 0.6451(3)
H117 H 0.8833 0.2942 0.6634
C137 C 0.9359(15) 0.4613(8) 0.6550(4)
H118 H 0.9105 0.4958 0.6608
H119 H 0.9544 0.4472 0.6759
H121 H 0.9952 0.5239 0.6103
C149 C 0.9451(18) 0.1137(10) 0.5915(4)
H131 H 0.9168 0.0823 0.5722
C150 C 0.9672(14) 0.1758(8) 0.6391(4)
H132 H 0.9586 0.1963 0.6595
N21 N 0.8075(12) 0.2501(7) 0.6225(3)
N22 N 0.8727(10) 0.3837(6) 0.6386(3)
N24 N 0.9074(12) 0.1307(7) 0.6183(3)
Cd5 Cd 0.77771(9) 0.11451(5) 0.62033(2)
O38 O 0.6739(11) 0.0914(7) 0.5826(2)
O41 O 0.7514(12) 0.0384(7) 0.5652(2)
C23 C 0.6920(9) 0.0533(9) 0.5611(3)
C24 C 0.6382(8) 0.0244(7) 0.5285(3)
C25 C 0.5655(9) 0.0252(8) 0.5282(3)
H22 H 0.5491 0.0433 0.5474
C26 C 0.5142(12) -0.0000 0.5000
H23 H 0.4629 -0.0000 0.5000
C27 C 0.6620(10) -0.0000 0.5000
H24 H 0.7133 -0.0000 0.5000
C5 C 0.5124(8) 0.0126(8) 0.1321(4)
H6 H 0.5661 0.0529 0.1426
C6 C 0.4878(7) 0.1165(7) 0.1051(3)
C7 C 0.5560(7) 0.1409(7) 0.0847(3)
H8 H 0.5845 0.1102 0.0854
C8 C 0.5854(7) 0.2098(7) 0.0627(3)
C9 C 0.6640(6) 0.2331(7) 0.0410(3)
H9 H 0.6625 0.1816 0.0332
H10 H 0.6639 0.2650 0.0211
C10 C 0.5419(7) 0.2556(7) 0.0615(3)
C11 C 0.4697(7) 0.2277(7) 0.0823(3)
H11 H 0.4390 0.2562 0.0813
C12 C 0.4433(6) 0.1605(7) 0.1037(3)
C13 C 0.3227(9) 0.1745(8) 0.1240(4)
H12 H 0.3572 0.2322 0.1325
H13 H 0.3054 0.1771 0.1009
C14 C 0.2480(9) 0.1276(9) 0.1455(5)
H14 H 0.2187 0.1597 0.1484
H15 H 0.2646 0.1177 0.1677
C15 C 0.1487(13) 0.0276(12) 0.0972(7)
H16 H 0.1458 0.0671 0.0830
N3 N 0.1910(7) 0.0447(7) 0.1283(4)
O1 O 0.4581(5) 0.0494(5) 0.1280(2)
O2 O 0.3718(6) 0.1301(5) 0.1247(2)
C32 C 0.9874(8) 0.4998(11) 0.1321(4)
H30 H 0.9471 0.5132 0.1426
C33 C 0.8835(7) 0.3713(10) 0.1051(3)
C34 C 0.8591(7) 0.4151(10) 0.0847(3)
H32 H 0.8898 0.4743 0.0854
C35 C 0.7902(7) 0.3756(10) 0.0627(3)
C36 C 0.7669(7) 0.4309(9) 0.0410(3)
H33 H 0.8184 0.4809 0.0332
H34 H 0.7350 0.3989 0.0211
C37 C 0.7444(7) 0.2863(10) 0.0615(3)
C38 C 0.7723(7) 0.2420(10) 0.0823(3)
H35 H 0.7438 0.1828 0.0813
C39 C 0.8395(7) 0.2828(9) 0.1037(3)
C40 C 0.8255(8) 0.1482(12) 0.1240(4)
H36 H 0.7678 0.1250 0.1325
H37 H 0.8229 0.1283 0.1009
C41 C 0.8724(9) 0.1204(13) 0.1455(5)
H38 H 0.8403 0.0590 0.1484
H39 H 0.8823 0.1469 0.1677
C42 C 0.9724(12) 0.1211(18) 0.0972(7)
H40 H 0.9329 0.0787 0.0830
N7 N 0.9553(7) 0.1463(10) 0.1283(4)
O7 O 0.9506(5) 0.4087(7) 0.1280(2)
O8 O 0.8699(5) 0.2417(8) 0.1247(2)
C45_2 C 0.4940(14) 0.7051(10) 0.0994(5)
H43_2 H 0.4811 0.7282 0.0807
C46_2 C 0.4539(15) 0.6231(11) 0.1080(4)
H44_2 H 0.4104 0.5785 0.0958
C47_2 C 0.5521(12) 0.6928(8) 0.1451(3)
H45_2 H 0.5891 0.7058 0.1634
C48_2 C 0.4746(13) 0.5387(8) 0.1550(4)
H46_2 H 0.4147 0.5042 0.1608
H47_2 H 0.5072 0.5528 0.1759
C49 C 0.5002(11) 0.4876(8) 0.1321(4)
H48 H 0.4868 0.4339 0.1426
H49_2 H 0.4713 0.4761 0.1103
C50 C 0.6287(10) 0.5122(7) 0.1051(3)
C51 C 0.5849(10) 0.4440(7) 0.0847(3)
H50 H 0.5257 0.4155 0.0854
C52 C 0.6244(10) 0.4146(7) 0.0627(3)
C53 C 0.5691(9) 0.3360(6) 0.0410(3)
H51 H 0.5191 0.3375 0.0332
H52 H 0.6011 0.3361 0.0211
C54 C 0.7137(10) 0.4581(7) 0.0615(3)
C55 C 0.7580(10) 0.5303(7) 0.0823(3)
H53 H 0.8172 0.5610 0.0813
C56 C 0.7172(9) 0.5567(6) 0.1037(3)
C57 C 0.8518(12) 0.6773(9) 0.1240(4)
H54 H 0.8750 0.6428 0.1325
H55 H 0.8717 0.6946 0.1009
C58 C 0.8796(13) 0.7520(9) 0.1455(5)
H56 H 0.9410 0.7813 0.1484
H57 H 0.8531 0.7354 0.1677
C59 C 0.8789(18) 0.8513(13) 0.0972(7)
H58 H 0.9213 0.8542 0.0830
C60_2 C 0.8314(15) 0.8863(10) 0.0915(4)
H59_2 H 0.8345 0.9177 0.0722
C61_2 C 0.7914(11) 0.8242(8) 0.1391(4)
H60_2 H 0.7623 0.8037 0.1595
N9_2 N 0.5574(10) 0.7499(7) 0.1225(3)
N10_2 N 0.4890(8) 0.6163(6) 0.1386(3)
N11 N 0.8537(10) 0.8090(7) 0.1283(4)
N12_2 N 0.7767(10) 0.8693(7) 0.1183(3)
O9 O 0.5913(7) 0.5419(5) 0.1280(2)
O10 O 0.7583(8) 0.6282(6) 0.1247(2)
Cd3 Cd 0.66320(7) 0.88549(5) 0.12033(2)
C84_2 C 0.6711(11) 0.9406(8) 0.1858(3)
C85_2 C 0.6712(8) 0.9815(6) 0.2192(3)
C88_2 C 0.6722(12) 0.9446(8) 0.2500
H73_2 H 0.6733 0.8938 0.2500
C89 C 0.6387(13) 0.9467(9) 0.0611(3)
C90 C 0.6138(11) 0.9756(7) 0.0285(3)
C91 C 0.5403(12) 0.9748(8) 0.0282(3)
H74 H 0.5058 0.9567 0.0474
C92_3 C 0.5142(12) 1.0000 0.0000
H75_3 H 0.4629 1.0000 0.0000
C93_3 C 0.6620(10) 1.0000 0.0000
H76_3 H 0.7133 1.0000 0.0000
O23_2 O 0.6727(8) 0.8726(5) 0.18586(19)
O24_2 O 0.6712(7) 0.9776(5) 0.1588(2)
O25 O 0.5825(9) 0.9086(7) 0.0826(2)
O26 O 0.7130(10) 0.9616(7) 0.0652(2)
C94_2 C 0.6711(11) 0.9406(8) 0.3142(3)
C95_2 C 0.6712(8) 0.9815(6) 0.2808(3)
O27_2 O 0.6727(8) 0.8726(5) 0.31414(19)
O28_2 O 0.6712(7) 0.9776(5) 0.3412(2)
C104 C 0.5124(8) 0.0126(8) 0.3679(4)
H84 H 0.5661 0.0529 0.3574
C105 C 0.4878(7) 0.1165(7) 0.3949(3)
C106 C 0.5560(7) 0.1409(7) 0.4153(3)
H86 H 0.5845 0.1102 0.4146
C107 C 0.5854(7) 0.2098(7) 0.4373(3)
C108 C 0.6640(6) 0.2331(7) 0.4590(3)
H87 H 0.6625 0.1816 0.4668
H88 H 0.6639 0.2650 0.4789
C109 C 0.5419(7) 0.2556(7) 0.4385(3)
C110 C 0.4697(7) 0.2277(7) 0.4177(3)
H89 H 0.4390 0.2562 0.4187
C111 C 0.4433(6) 0.1605(7) 0.3963(3)
C112 C 0.3227(9) 0.1745(8) 0.3760(4)
H90 H 0.3572 0.2322 0.3675
H91 H 0.3054 0.1771 0.3991
C113 C 0.2480(9) 0.1276(9) 0.3545(5)
H92 H 0.2187 0.1597 0.3516
H93 H 0.2646 0.1177 0.3323
C114 C 0.1487(13) 0.0276(12) 0.4028(7)
H94 H 0.1458 0.0671 0.4170
N15 N 0.1910(7) 0.0447(7) 0.3717(4)
O31 O 0.4581(5) 0.0494(5) 0.3720(2)
O32 O 0.3718(6) 0.1301(5) 0.3753(2)
C121 C 0.9874(8) 0.4998(11) 0.3679(4)
H102 H 0.9471 0.5132 0.3574
C122 C 0.8835(7) 0.3713(10) 0.3949(3)
C123 C 0.8591(7) 0.4151(10) 0.4153(3)
H104 H 0.8898 0.4743 0.4146
C124 C 0.7902(7) 0.3756(10) 0.4373(3)
C125 C 0.7669(7) 0.4309(9) 0.4590(3)
H105 H 0.8184 0.4809 0.4668
H106 H 0.7350 0.3989 0.4789
C126 C 0.7444(7) 0.2863(10) 0.4385(3)
C127 C 0.7723(7) 0.2420(10) 0.4177(3)
H107 H 0.7438 0.1828 0.4187
C128 C 0.8395(7) 0.2828(9) 0.3963(3)
C129 C 0.8255(8) 0.1482(12) 0.3760(4)
H108 H 0.7678 0.1250 0.3675
H109 H 0.8229 0.1283 0.3991
C130 C 0.8724(9) 0.1204(13) 0.3545(5)
H110 H 0.8403 0.0590 0.3516
H111 H 0.8823 0.1469 0.3323
C131 C 0.9724(12) 0.1211(18) 0.4028(7)
H112 H 0.9329 0.0787 0.4170
N19 N 0.9553(7) 0.1463(10) 0.3717(4)
O33 O 0.9506(5) 0.4087(7) 0.3720(2)
O34 O 0.8699(5) 0.2417(8) 0.3753(2)
C134_2 C 0.4940(14) 0.7051(10) 0.4006(5)
H115_2 H 0.4811 0.7282 0.4193
C135_2 C 0.4539(15) 0.6231(11) 0.3920(4)
H116_2 H 0.4104 0.5785 0.4042
C136_2 C 0.5521(12) 0.6928(8) 0.3549(3)
H117_2 H 0.5891 0.7058 0.3366
C137_2 C 0.4746(13) 0.5387(8) 0.3450(4)
H118_2 H 0.4147 0.5042 0.3392
H119_2 H 0.5072 0.5528 0.3241
C138 C 0.5002(11) 0.4876(8) 0.3679(4)
H120 H 0.4868 0.4339 0.3574
H121_2 H 0.4713 0.4761 0.3897
C139 C 0.6287(10) 0.5122(7) 0.3949(3)
C140 C 0.5849(10) 0.4440(7) 0.4153(3)
H122 H 0.5257 0.4155 0.4146
C141 C 0.6244(10) 0.4146(7) 0.4373(3)
C142 C 0.5691(9) 0.3360(6) 0.4590(3)
H123 H 0.5191 0.3375 0.4668
H124 H 0.6011 0.3361 0.4789
C143 C 0.7137(10) 0.4581(7) 0.4385(3)
C144 C 0.7580(10) 0.5303(7) 0.4177(3)
H125 H 0.8172 0.5610 0.4187
C145 C 0.7172(9) 0.5567(6) 0.3963(3)
C146 C 0.8518(12) 0.6773(9) 0.3760(4)
H126 H 0.8750 0.6428 0.3675
H127 H 0.8717 0.6946 0.3991
C147 C 0.8796(13) 0.7520(9) 0.3545(5)
H128 H 0.9410 0.7813 0.3516
H129 H 0.8531 0.7354 0.3323
C148 C 0.8789(18) 0.8513(13) 0.4028(7)
H130 H 0.9213 0.8542 0.4170
C149_2 C 0.8314(15) 0.8863(10) 0.4085(4)
H131_2 H 0.8345 0.9177 0.4278
C150_2 C 0.7914(11) 0.8242(8) 0.3609(4)
H132_2 H 0.7623 0.8037 0.3405
N21_2 N 0.5574(10) 0.7499(7) 0.3775(3)
N22_2 N 0.4890(8) 0.6163(6) 0.3614(3)
N23 N 0.8537(10) 0.8090(7) 0.3717(4)
N24_2 N 0.7767(10) 0.8693(7) 0.3817(3)
O35 O 0.5913(7) 0.5419(5) 0.3720(2)
O36 O 0.7583(8) 0.6282(6) 0.3753(2)
Cd5_2 Cd 0.66320(7) 0.88549(5) 0.37967(2)
O38_2 O 0.5825(9) 0.9086(7) 0.4174(2)
O41_2 O 0.7130(10) 0.9616(7) 0.4348(2)
C92_4 C 0.5142(12) 1.0000 1.0000
H75_4 H 0.4629 1.0000 1.0000
C93_4 C 0.6620(10) 1.0000 1.0000
H76_4 H 0.7133 1.0000 1.0000
C86_2 C 0.6143(14) 0.9437(8) 0.7801(3)
H71_2 H 0.5894 0.9166 0.8005
C87_2 C 0.5743(19) 0.9078(11) 0.7500
H72_2 H 0.5204 0.8594 0.7500
C96_2 C 0.6143(14) 0.9437(8) 0.7199(3)
H77_2 H 0.5894 0.9166 0.6995
C26_2 C 0.5142(12) 1.0000 0.5000
H23_2 H 0.4629 1.0000 0.5000
C27_2 C 0.6620(10) 1.0000 0.5000
H24_2 H 0.7133 1.0000 0.5000
C65 C 0.6387(13) 0.9467(9) 0.4389(3)
C66 C 0.6138(11) 0.9756(7) 0.4715(3)
C67 C 0.5403(12) 0.9748(8) 0.4718(3)
H62 H 0.5058 0.9567 0.4526
Cd1 Cd 0.11451(5) 0.77771(5) 0.12033(2)
C1_2 C 0.2949(10) 0.7889(10) 0.0994(5)
H1_2 H 0.2718 0.7529 0.0807
C2_2 C 0.3769(11) 0.8308(10) 0.1080(4)
H2_2 H 0.4215 0.8319 0.0958
C3_2 C 0.3072(8) 0.8593(9) 0.1451(3)
H3_2 H 0.2942 0.8833 0.1634
C4_2 C 0.4613(8) 0.9359(10) 0.1550(4)
H4_2 H 0.4958 0.9105 0.1608
H5_2 H 0.4472 0.9544 0.1759
H7_2 H 0.5239 0.9952 0.1103
C16_2 C 0.1137(10) 0.9451(11) 0.0915(4)
H17_2 H 0.0823 0.9168 0.0722
C17_2 C 0.1758(8) 0.9672(8) 0.1391(4)
H18_2 H 0.1963 0.9586 0.1595
C18_2 C 0.0594(8) 0.7305(8) 0.1858(3)
C19_2 C 0.0185(6) 0.6897(6) 0.2192(3)
C22_2 C 0.0554(8) 0.7276(9) 0.2500
H21_2 H 0.1062 0.7795 0.2500
C23_2 C 0.0533(9) 0.6920(9) 0.0611(3)
C24_2 C 0.0244(7) 0.6382(8) 0.0285(3)
C25_2 C 0.0252(8) 0.5655(9) 0.0282(3)
H22_2 H 0.0433 0.5491 0.0474
C26_3 C -0.0000 0.5142(12) 0.0000
H23_3 H -0.0000 0.4629 0.0000
C27_3 C 0.0000 0.6620(10) 0.0000
H24_3 H 0.0000 0.7133 0.0000
N1_2 N 0.2501(7) 0.8075(7) 0.1225(3)
N2_2 N 0.3837(6) 0.8727(6) 0.1386(3)
N4_2 N 0.1307(7) 0.9074(7) 0.1183(3)
O3_2 O 0.1274(5) 0.8001(6) 0.18586(19)
O4_2 O 0.0224(5) 0.6936(5) 0.1588(2)
O5 O 0.0914(7) 0.6739(6) 0.0826(2)
O6 O 0.0384(7) 0.7514(7) 0.0652(2)
C62_2 C 0.0594(8) 0.7305(8) 0.3142(3)
C63_2 C 0.0185(6) 0.6897(6) 0.2808(3)
O11_2 O 0.1274(5) 0.8001(6) 0.31414(19)
O12_2 O 0.0224(5) 0.6936(5) 0.3412(2)
Cd4_2 Cd 0.11451(5) 0.77771(5) 0.37967(2)
C100_2 C 0.2949(10) 0.7889(10) 0.4006(5)
H79_2 H 0.2718 0.7529 0.4193
C101_2 C 0.3769(11) 0.8308(10) 0.3920(4)
H80_2 H 0.4215 0.8319 0.4042
C102_2 C 0.3072(8) 0.8593(9) 0.3549(3)
H81_2 H 0.2942 0.8833 0.3366
C103_2 C 0.4613(8) 0.9359(10) 0.3450(4)
H82_2 H 0.4958 0.9105 0.3392
H83_2 H 0.4472 0.9544 0.3241
H85_2 H 0.5239 0.9952 0.3897
C115_2 C 0.1137(10) 0.9451(11) 0.4085(4)
H95_2 H 0.0823 0.9168 0.4278
C116_2 C 0.1758(8) 0.9672(8) 0.3609(4)
H96_2 H 0.1963 0.9586 0.3405
N13_2 N 0.2501(7) 0.8075(7) 0.3775(3)
N14_2 N 0.3837(6) 0.8727(6) 0.3614(3)
N16_2 N 0.1307(7) 0.9074(7) 0.3817(3)
O37_2 O 0.0914(7) 0.6739(6) 0.4174(2)
O40_2 O 0.0384(7) 0.7514(7) 0.4348(2)
C26_4 C -0.0000 0.5142(12) 1.0000
H23_4 H -0.0000 0.4629 1.0000
C27_4 C 0.0000 0.6620(10) 1.0000
H24_4 H -0.0000 0.7133 1.0000
C70_2 C 0.0563(15) 0.6706(12) 0.7801(3)
H63_2 H 0.0834 0.6728 0.8005
C71_2 C 0.0922(20) 0.6665(16) 0.7500
H64_2 H 0.1406 0.6610 0.7500
C80_2 C 0.0563(15) 0.6706(12) 0.7199(3)
H69_2 H 0.0834 0.6728 0.6995
C92_5 C -0.0000 0.5142(12) 0.5000
H75_5 H -0.0000 0.4629 0.5000
C93_5 C -0.0000 0.6620(10) 0.5000
H76_5 H -0.0000 0.7133 0.5000
C97_2 C 0.0533(9) 0.6920(9) 0.4389(3)
C98_2 C 0.0244(7) 0.6382(8) 0.4715(3)
C99_2 C 0.0252(8) 0.5655(9) 0.4718(3)
H78_2 H 0.0433 0.5491 0.4526
C20_2 C 0.9437(8) 0.6143(9) 0.2199(3)
H19_2 H 0.9166 0.5894 0.1995
C21_2 C 0.9078(11) 0.5743(12) 0.2500
H20_2 H 0.8594 0.5204 0.2500
C26_5 C 1.0000 0.5142(12) 0.0000
H23_5 H 1.0000 0.4629 0.0000
C27_5 C 1.0000 0.6620(10) 0.0000
H24_5 H 1.0000 0.7133 0.0000
C64_2 C 0.9437(8) 0.6143(9) 0.2801(3)
H61_2 H 0.9166 0.5894 0.3005
C26_6 C 1.0000 0.5142(12) 1.0000
H23_6 H 1.0000 0.4629 1.0000
C27_6 C 1.0000 0.6620(10) 1.0000
H24_6 H 1.0000 0.7133 1.0000
C65_2 C 0.9467(9) 0.6387(13) 0.9389(3)
C66_2 C 0.9756(7) 0.6138(11) 0.9715(3)
C67_2 C 0.9748(8) 0.5403(12) 0.9718(3)
H62_2 H 0.9567 0.5058 0.9526
O13 O 0.9086(7) 0.5825(9) 0.9174(2)
O14 O 0.9616(7) 0.7130(10) 0.9348(2)
Cd8 Cd 0.88549(5) 0.66320(7) 0.87967(2)
C5_2 C 0.4998(11) 0.9874(8) 0.8679(4)
H6_2 H 0.5132 0.9471 0.8574
C6_2 C 0.3713(10) 0.8835(7) 0.8949(3)
C7_2 C 0.4151(10) 0.8591(7) 0.9153(3)
H8_2 H 0.4743 0.8898 0.9146
C8_2 C 0.3756(10) 0.7902(7) 0.9373(3)
C9_2 C 0.4309(9) 0.7669(7) 0.9590(3)
H9_2 H 0.4809 0.8184 0.9668
H10_2 H 0.3989 0.7350 0.9789
C10_2 C 0.2863(10) 0.7444(7) 0.9385(3)
C11_2 C 0.2420(10) 0.7723(7) 0.9177(3)
H11_2 H 0.1828 0.7438 0.9187
C12_2 C 0.2828(9) 0.8395(7) 0.8963(3)
C13_2 C 0.1482(12) 0.8255(8) 0.8760(4)
H12_2 H 0.1250 0.7678 0.8675
H13_2 H 0.1283 0.8229 0.8991
C14_2 C 0.1204(13) 0.8724(9) 0.8545(5)
H14_2 H 0.0590 0.8403 0.8516
H15_2 H 0.1469 0.8823 0.8323
C15_2 C 0.1211(18) 0.9724(12) 0.9028(7)
H16_2 H 0.0787 0.9329 0.9170
N3_2 N 0.1463(10) 0.9553(7) 0.8717(4)
O1_2 O 0.4087(7) 0.9506(5) 0.8720(2)
O2_2 O 0.2417(8) 0.8699(5) 0.8753(2)
C28_2 C 0.7051(17) 0.4940(14) 0.9006(5)
H25_2 H 0.7282 0.4811 0.9193
C29_2 C 0.6231(18) 0.4539(15) 0.8920(4)
H26_2 H 0.5785 0.4104 0.9042
C30_2 C 0.6928(15) 0.5521(12) 0.8549(3)
H27_2 H 0.7058 0.5891 0.8366
C31_2 C 0.5387(16) 0.4746(13) 0.8450(4)
H28_2 H 0.5042 0.4147 0.8392
H29_2 H 0.5528 0.5072 0.8241
C32_2 C 0.4876(14) 0.5002(11) 0.8679(4)
H30_2 H 0.4339 0.4868 0.8574
H31_2 H 0.4761 0.4713 0.8897
C33_2 C 0.5122(12) 0.6287(10) 0.8949(3)
C34_2 C 0.4440(12) 0.5849(10) 0.9153(3)
H32_2 H 0.4155 0.5257 0.9146
C35_2 C 0.4146(12) 0.6244(10) 0.9373(3)
C36_2 C 0.3360(11) 0.5691(9) 0.9590(3)
H33_2 H 0.3375 0.5191 0.9668
H34_2 H 0.3361 0.6011 0.9789
C37_2 C 0.4581(12) 0.7137(10) 0.9385(3)
C38_2 C 0.5303(12) 0.7580(10) 0.9177(3)
H35_2 H 0.5610 0.8172 0.9187
C39_2 C 0.5567(11) 0.7172(9) 0.8963(3)
C40_2 C 0.6773(14) 0.8518(12) 0.8760(4)
H36_2 H 0.6428 0.8750 0.8675
H37_2 H 0.6946 0.8717 0.8991
C41_2 C 0.7520(16) 0.8796(13) 0.8545(5)
H38_2 H 0.7813 0.9410 0.8516
H39_2 H 0.7354 0.8531 0.8323
C42_2 C 0.8513(22) 0.8789(18) 0.9028(7)
H40_2 H 0.8542 0.9213 0.9170
C43_2 C 0.8863(19) 0.8314(15) 0.9085(4)
H41_2 H 0.9177 0.8345 0.9278
C44_2 C 0.8242(14) 0.7914(11) 0.8609(4)
H42_2 H 0.8037 0.7623 0.8405
N5_2 N 0.7499(12) 0.5574(10) 0.8775(3)
N6_2 N 0.6163(10) 0.4890(8) 0.8614(3)
N7_2 N 0.8090(12) 0.8537(10) 0.8717(4)
N8_2 N 0.8693(12) 0.7767(10) 0.8817(3)
O7_2 O 0.5419(9) 0.5913(7) 0.8720(2)
O8_2 O 0.6282(9) 0.7583(8) 0.8753(2)
C49_2 C 0.0126(14) 0.5124(8) 0.8679(4)
H48_2 H 0.0529 0.5661 0.8574
C50_2 C 0.1165(12) 0.4878(7) 0.8949(3)
C51_2 C 0.1409(12) 0.5560(7) 0.9153(3)
H50_2 H 0.1102 0.5845 0.9146
C52_2 C 0.2098(12) 0.5854(7) 0.9373(3)
C53_2 C 0.2331(11) 0.6640(6) 0.9590(3)
H51_2 H 0.1816 0.6625 0.9668
H52_2 H 0.2650 0.6639 0.9789
C54_2 C 0.2556(12) 0.5419(7) 0.9385(3)
C55_2 C 0.2277(12) 0.4697(7) 0.9177(3)
H53_2 H 0.2562 0.4390 0.9187
C56_2 C 0.1605(11) 0.4433(6) 0.8963(3)
C57_2 C 0.1745(15) 0.3227(9) 0.8760(4)
H54_2 H 0.2322 0.3572 0.8675
H55_2 H 0.1771 0.3054 0.8991
C58_2 C 0.1276(16) 0.2480(9) 0.8545(5)
H56_2 H 0.1597 0.2187 0.8516
H57_2 H 0.1177 0.2646 0.8323
C59_2 C 0.0276(22) 0.1487(13) 0.9028(7)
H58_2 H 0.0671 0.1458 0.9170
N11_2 N 0.0447(12) 0.1910(7) 0.8717(4)
O9_2 O 0.0494(9) 0.4581(5) 0.8720(2)
O10_2 O 0.1301(10) 0.3718(6) 0.8753(2)
C68_2 C 0.9406(14) 0.6711(11) 0.8142(3)
C69_2 C 0.9815(10) 0.6712(8) 0.7808(3)
C72_2 C 0.9446(15) 0.6722(12) 0.7500
H65_2 H 0.8938 0.6733 0.7500
O15_2 O 0.8726(10) 0.6727(8) 0.81414(19)
O16_2 O 0.9776(9) 0.6712(7) 0.8412(2)
C78_2 C 0.9406(14) 0.6711(11) 0.6858(3)
C79_2 C 0.9815(10) 0.6712(8) 0.7192(3)
O19_2 O 0.8726(10) 0.6727(8) 0.68586(19)
O20_2 O 0.9776(9) 0.6712(7) 0.6588(2)
C104_2 C 0.4998(11) 0.9874(8) 0.6321(4)
H84_2 H 0.5132 0.9471 0.6426
C105_2 C 0.3713(10) 0.8835(7) 0.6051(3)
C106_2 C 0.4151(10) 0.8591(7) 0.5847(3)
H86_2 H 0.4743 0.8898 0.5854
C107_2 C 0.3756(10) 0.7902(7) 0.5627(3)
C108_2 C 0.4309(9) 0.7669(7) 0.5410(3)
H87_2 H 0.4809 0.8184 0.5332
H88_2 H 0.3989 0.7350 0.5211
C109_2 C 0.2863(10) 0.7444(7) 0.5615(3)
C110_2 C 0.2420(10) 0.7723(7) 0.5823(3)
H89_2 H 0.1828 0.7438 0.5813
C111_2 C 0.2828(9) 0.8395(7) 0.6037(3)
C112_2 C 0.1482(12) 0.8255(8) 0.6240(4)
H90_2 H 0.1250 0.7678 0.6325
H91_2 H 0.1283 0.8229 0.6009
C113_2 C 0.1204(13) 0.8724(9) 0.6455(5)
H92_2 H 0.0590 0.8403 0.6484
H93_2 H 0.1469 0.8823 0.6677
C114_2 C 0.1211(18) 0.9724(12) 0.5972(7)
H94_2 H 0.0787 0.9329 0.5830
N15_2 N 0.1463(10) 0.9553(7) 0.6283(4)
O31_2 O 0.4087(7) 0.9506(5) 0.6280(2)
O32_2 O 0.2417(8) 0.8699(5) 0.6247(2)
C117_2 C 0.7051(17) 0.4940(14) 0.5994(5)
H97_2 H 0.7282 0.4811 0.5807
C118_2 C 0.6231(18) 0.4539(15) 0.6080(4)
H98_2 H 0.5785 0.4104 0.5958
C119_2 C 0.6928(15) 0.5521(12) 0.6451(3)
H99_2 H 0.7058 0.5891 0.6634
C120_2 C 0.5387(16) 0.4746(13) 0.6550(4)
H100_2 H 0.5042 0.4147 0.6608
H101_2 H 0.5528 0.5072 0.6759
C121_2 C 0.4876(14) 0.5002(11) 0.6321(4)
H102_2 H 0.4339 0.4868 0.6426
H103_2 H 0.4761 0.4713 0.6103
C122_2 C 0.5122(12) 0.6287(10) 0.6051(3)
C123_2 C 0.4440(12) 0.5849(10) 0.5847(3)
H104_2 H 0.4155 0.5257 0.5854
C124_2 C 0.4146(12) 0.6244(10) 0.5627(3)
C125_2 C 0.3360(11) 0.5691(9) 0.5410(3)
H105_2 H 0.3375 0.5191 0.5332
H106_2 H 0.3361 0.6011 0.5211
C126_2 C 0.4581(12) 0.7137(10) 0.5615(3)
C127_2 C 0.5303(12) 0.7580(10) 0.5823(3)
H107_2 H 0.5610 0.8172 0.5813
C128_2 C 0.5567(11) 0.7172(9) 0.6037(3)
C129_2 C 0.6773(14) 0.8518(12) 0.6240(4)
H108_2 H 0.6428 0.8750 0.6325
H109_2 H 0.6946 0.8717 0.6009
C130_2 C 0.7520(16) 0.8796(13) 0.6455(5)
H110_2 H 0.7813 0.9410 0.6484
H111_2 H 0.7354 0.8531 0.6677
C131_2 C 0.8513(22) 0.8789(18) 0.5972(7)
H112_2 H 0.8542 0.9213 0.5830
C132_2 C 0.8863(19) 0.8314(15) 0.5915(4)
H113_2 H 0.9177 0.8345 0.5722
C133_2 C 0.8242(14) 0.7914(11) 0.6391(4)
H114_2 H 0.8037 0.7623 0.6595
N17_2 N 0.7499(12) 0.5574(10) 0.6225(3)
N18_2 N 0.6163(10) 0.4890(8) 0.6386(3)
N19_2 N 0.8090(12) 0.8537(10) 0.6283(4)
N20_2 N 0.8693(12) 0.7767(10) 0.6183(3)
O33_2 O 0.5419(9) 0.5913(7) 0.6280(2)
O34_2 O 0.6282(9) 0.7583(8) 0.6247(2)
C138_2 C 0.0126(14) 0.5124(8) 0.6321(4)
H120_2 H 0.0529 0.5661 0.6426
C139_2 C 0.1165(12) 0.4878(7) 0.6051(3)
C140_2 C 0.1409(12) 0.5560(7) 0.5847(3)
H122_2 H 0.1102 0.5845 0.5854
C141_2 C 0.2098(12) 0.5854(7) 0.5627(3)
C142_2 C 0.2331(11) 0.6640(6) 0.5410(3)
H123_2 H 0.1816 0.6625 0.5332
H124_2 H 0.2650 0.6639 0.5211
C143_2 C 0.2556(12) 0.5419(7) 0.5615(3)
C144_2 C 0.2277(12) 0.4697(7) 0.5823(3)
H125_2 H 0.2562 0.4390 0.5813
C145_2 C 0.1605(11) 0.4433(6) 0.6037(3)
C146_2 C 0.1745(15) 0.3227(9) 0.6240(4)
H126_2 H 0.2322 0.3572 0.6325
H127_2 H 0.1771 0.3054 0.6009
C147_2 C 0.1276(16) 0.2480(9) 0.6455(5)
H128_2 H 0.1597 0.2187 0.6484
H129_2 H 0.1177 0.2646 0.6677
C148_2 C 0.0276(22) 0.1487(13) 0.5972(7)
H130_2 H 0.0671 0.1458 0.5830
N23_2 N 0.0447(12) 0.1910(7) 0.6283(4)
O35_2 O 0.0494(9) 0.4581(5) 0.6280(2)
O36_2 O 0.1301(10) 0.3718(6) 0.6247(2)
Cd6_2 Cd 0.88549(9) 0.66320(7) 0.62033(2)
O39_2 O 0.9086(11) 0.5825(9) 0.5826(2)
O42_2 O 0.9616(12) 0.7130(10) 0.5652(2)
C89_2 C 0.9467(9) 0.6387(13) 0.5611(3)
C90_2 C 0.9756(7) 0.6138(11) 0.5285(3)
C91_2 C 0.9748(8) 0.5403(12) 0.5282(3)
H74_2 H 0.9567 0.5058 0.5474
C92_6 C 1.0000 0.5142(12) 0.5000
H75_6 H 1.0000 0.4629 0.5000
C93_6 C 1.0000 0.6620(10) 0.5000
H76_6 H 1.0000 0.7133 0.5000
loop_
_geom_bond_atom_site_label_1
_geom_bond_atom_site_label_2
_geom_bond_site_symmetry_1
_geom_bond_site_symmetry_2
C28 H25 1_555 1_555
C29 C28 1_555 1_555
H26 C29 1_555 1_555
C30 H27 1_555 1_555
C31 H28 1_555 1_555
H29 C31 1_555 1_555
H41 C43 1_555 1_555
C44 H42 1_555 1_555
N5 C28 1_555 1_555
N6 C29 1_555 1_555
N8 C43 1_555 1_555
Cd2 N5 1_555 1_555
C68 C69 1_555 1_555
C69 C70 1_555 1_555
C70 H63 1_555 1_555
C71 C70 1_555 1_555
H64 C71 1_555 1_555
C72 C69 1_555 1_555
H65 C72 1_555 1_555
C73 C74 1_555 1_555
C74 C75 1_555 1_555
C75 H66 1_555 1_555
C76 C75 1_555 1_555
H67 C76 1_555 1_555
C77 C74 1_555 1_555
H68 C77 1_555 1_555
O15 Cd2 1_555 1_555
O16 Cd2 1_555 1_555
O17 Cd2 1_555 1_555
O18 Cd2 1_555 1_555
C78 C79 1_555 1_555
C79 C72 1_555 1_555
C80 C71 1_555 1_555
H69 C80 1_555 1_555
O19 C78 1_555 1_555
O20 C78 1_555 1_555
C117 H97 1_555 1_555
C118 C117 1_555 1_555
H98 C118 1_555 1_555
C119 H99 1_555 1_555
C120 H100 1_555 1_555
H101 C120 1_555 1_555
H113 C132 1_555 1_555
C133 H114 1_555 1_555
N17 C117 1_555 1_555
N18 C118 1_555 1_555
N20 C132 1_555 1_555
Cd6 O19 1_555 1_555
O39 Cd6 1_555 1_555
O42 Cd6 1_555 1_555
C30 N5 1_555 1_555
C30 N6 1_555 1_555
C31 N6 1_555 1_555
C44 N8 1_555 1_555
N8 Cd2 1_555 1_555
C68 O15 1_555 1_555
C68 O16 1_555 1_555
C73 O17 1_555 1_555
C73 O18 1_555 1_555
C79 C80 1_555 1_555
O20 Cd6 1_555 1_555
C119 N17 1_555 1_555
C119 N18 1_555 1_555
C120 N18 1_555 1_555
C133 N20 1_555 1_555
N17 Cd6 1_555 1_555
N20 Cd6 1_555 1_555
H67_2 C76_2 1_555 1_555
H68_2 C77_2 1_555 1_555
C81 C82 1_555 1_555
C82 C77_2 1_555 1_555
C83 C76_2 1_555 1_555
H70 C83 1_555 1_555
O21 C81 1_555 1_555
O22 C81 1_555 1_555
Cd7 O21 1_555 1_555
C82 C83 1_555 1_555
O22 Cd7 1_555 1_555
Cd7 N1 1_555 1_555
C1 H1 1_555 1_555
C2 C1 1_555 1_555
H2 C2 1_555 1_555
C3 H3 1_555 1_555
C4 H4 1_555 1_555
H5 C4 1_555 1_555
H17 C16 1_555 1_555
C17 H18 1_555 1_555
C18 C19 1_555 1_555
C19 C20 1_555 1_555
C20 H19 1_555 1_555
C21 C20 1_555 1_555
H20 C21 1_555 1_555
C22 C19 1_555 1_555
H21 C22 1_555 1_555
N1 C1 1_555 1_555
N2 C2 1_555 1_555
N4 Cd7 1_555 1_555
O3 Cd7 1_555 1_555
O4 Cd7 1_555 1_555
C62 C63 1_555 1_555
C63 C22 1_555 1_555
C64 C21 1_555 1_555
H61 C64 1_555 1_555
O11 C62 1_555 1_555
O12 C62 1_555 1_555
Cd4 O11 1_555 1_555
C100 H79 1_555 1_555
C101 C100 1_555 1_555
H80 C101 1_555 1_555
C102 H81 1_555 1_555
C103 H82 1_555 1_555
H83 C103 1_555 1_555
H95 C115 1_555 1_555
C116 H96 1_555 1_555
N13 Cd4 1_555 1_555
N14 C101 1_555 1_555
N16 Cd4 1_555 1_555
O37 Cd4 1_555 1_555
O40 Cd4 1_555 1_555
C3 N1 1_555 1_555
C3 N2 1_555 1_555
C4 N2 1_555 1_555
C16 N4 1_555 1_555
C17 N4 1_555 1_555
C18 O3 1_555 1_555
C18 O4 1_555 1_555
C63 C64 1_555 1_555
O12 Cd4 1_555 1_555
C100 N13 1_555 1_555
C102 N13 1_555 1_555
C102 N14 1_555 1_555
C103 N14 1_555 1_555
C115 N16 1_555 1_555
C116 N16 1_555 1_555
C73_2 C74_2 1_555 1_555
C74_2 C75_2 1_555 1_555
C75_2 H66_2 1_555 1_555
C76_3 C75_2 1_555 1_555
H67_3 C76_3 1_555 1_555
C77_3 C74_2 1_555 1_555
H68_3 C77_3 1_555 1_555
C81_2 C82_2 1_555 1_555
C82_2 C77_3 1_555 1_555
C83_2 C76_3 1_555 1_555
H70_2 C83_2 1_555 1_555
O39 C81_2 1_555 1_555
O42 C81_2 1_555 1_555
C73_2 O37 1_555 1_555
C73_2 O40 1_555 1_555
C82_2 C83_2 1_555 1_555
C86 H71 1_555 1_555
C87 C86 1_555 1_555
H72 C87 1_555 1_555
H75 C92 1_555 1_555
H76 C93 1_555 1_555
C96 C87 1_555 1_555
H77 C96 1_555 1_555
H75_2 C92_2 1_555 1_555
H76_2 C93_2 1_555 1_555
C97 C98 1_555 1_555
C98 C93_2 1_555 1_555
C99 C92_2 1_555 1_555
H78 C99 1_555 1_555
O29 C97 1_555 1_555
O30 C97 1_555 1_555
Cd9 O29 1_555 1_555
C98 C99 1_555 1_555
O30 Cd9 1_555 1_555
C45 H43 1_555 1_555
C46 C45 1_555 1_555
H44 C46 1_555 1_555
C47 H45 1_555 1_555
C48 H46 1_555 1_555
H47 C48 1_555 1_555
H59 C60 1_555 1_555
C61 H60 1_555 1_555
N9 C45 1_555 1_555
N10 C46 1_555 1_555
N12 C60 1_555 1_555
Cd9 N9 1_555 1_555
C84 C85 1_555 1_555
C88 C85 1_555 1_555
H73 C88 1_555 1_555
O23 Cd9 1_555 1_555
O24 Cd9 1_555 1_555
C94 C95 1_555 1_555
C95 C88 1_555 1_555
O27 C94 1_555 1_555
O28 C94 1_555 1_555
C134 H115 1_555 1_555
C135 C134 1_555 1_555
H116 C135 1_555 1_555
C136 H117 1_555 1_555
C137 H118 1_555 1_555
H119 C137 1_555 1_555
H131 C149 1_555 1_555
C150 H132 1_555 1_555
N21 C134 1_555 1_555
N22 C135 1_555 1_555
N24 C149 1_555 1_555
Cd5 O27 1_555 1_555
O38 Cd5 1_555 1_555
O41 Cd5 1_555 1_555
C47 N9 1_555 1_555
C47 N10 1_555 1_555
C48 N10 1_555 1_555
C61 N12 1_555 1_555
N12 Cd9 1_555 1_555
C84 O23 1_555 1_555
C84 O24 1_555 1_555
O28 Cd5 1_555 1_555
C136 N21 1_555 1_555
C136 N22 1_555 1_555
C137 N22 1_555 1_555
C150 N24 1_555 1_555
N21 Cd5 1_555 1_555
N24 Cd5 1_555 1_555
C23 C24 1_555 1_555
C24 C25 1_555 1_555
C25 H22 1_555 1_555
C26 C25 1_555 1_555
H23 C26 1_555 1_555
C27 C24 1_555 1_555
H24 C27 1_555 1_555
C23 O38 1_555 1_555
C23 O41 1_555 1_555
H6 C5 1_555 1_555
C6 C7 1_555 1_555
C7 H8 1_555 1_555
C8 C7 1_555 1_555
C9 C8 1_555 1_555
H9 C9 1_555 1_555
H10 C9 1_555 1_555
C10 C8 1_555 1_555
C11 C10 1_555 1_555
H11 C11 1_555 1_555
C12 C6 1_555 1_555
C13 H12 1_555 1_555
H13 C13 1_555 1_555
C14 C13 1_555 1_555
H14 C14 1_555 1_555
H15 C14 1_555 1_555
C15 H16 1_555 1_555
N3 C14 1_555 1_555
O1 C5 1_555 1_555
O2 C12 1_555 1_555
H30 C32 1_555 1_555
C33 C34 1_555 1_555
C34 H32 1_555 1_555
C35 C34 1_555 1_555
C36 C35 1_555 1_555
H33 C36 1_555 1_555
H34 C36 1_555 1_555
C37 C9 1_555 1_555
C38 C37 1_555 1_555
H35 C38 1_555 1_555
C39 C33 1_555 1_555
C40 H36 1_555 1_555
H37 C40 1_555 1_555
C41 C40 1_555 1_555
H38 C41 1_555 1_555
H39 C41 1_555 1_555
C42 H40 1_555 1_555
N7 C41 1_555 1_555
O7 C32 1_555 1_555
O8 C39 1_555 1_555
C45_2 H43_2 1_555 1_555
C46_2 C45_2 1_555 1_555
H44_2 C46_2 1_555 1_555
C47_2 H45_2 1_555 1_555
C48_2 H46_2 1_555 1_555
H47_2 C48_2 1_555 1_555
C49 C48_2 1_555 1_555
H48 C49 1_555 1_555
H49_2 C49 1_555 1_555
C50 C51 1_555 1_555
C51 H50 1_555 1_555
C52 C51 1_555 1_555
C53 C10 1_555 1_555
H51 C53 1_555 1_555
H52 C53 1_555 1_555
C54 C36 1_555 1_555
C55 C54 1_555 1_555
H53 C55 1_555 1_555
C56 C50 1_555 1_555
C57 H54 1_555 1_555
H55 C57 1_555 1_555
C58 C57 1_555 1_555
H56 C58 1_555 1_555
H57 C58 1_555 1_555
C59 H58 1_555 1_555
C60_2 C59 1_555 1_555
H59_2 C60_2 1_555 1_555
C61_2 H60_2 1_555 1_555
N9_2 C45_2 1_555 1_555
N10_2 C46_2 1_555 1_555
N11 C58 1_555 1_555
N12_2 C60_2 1_555 1_555
O9 C49 1_555 1_555
O10 C56 1_555 1_555
Cd3 N9_2 1_555 1_555
C84_2 C85_2 1_555 1_555
C88_2 C85_2 1_555 1_555
H73_2 C88_2 1_555 1_555
C89 C90 1_555 1_555
C90 C91 1_555 1_555
C91 H74 1_555 1_555
C92_3 C91 1_555 1_555
H75_3 C92_3 1_555 1_555
C93_3 C90 1_555 1_555
H76_3 C93_3 1_555 1_555
O23_2 Cd3 1_555 1_555
O24_2 Cd3 1_555 1_555
O25 Cd3 1_555 1_555
O26 Cd3 1_555 1_555
C94_2 C95_2 1_555 1_555
C95_2 C88_2 1_555 1_555
O27_2 C94_2 1_555 1_555
O28_2 C94_2 1_555 1_555
H84 C104 1_555 1_555
C105 C106 1_555 1_555
C106 H86 1_555 1_555
C107 C106 1_555 1_555
C108 C107 1_555 1_555
H87 C108 1_555 1_555
H88 C108 1_555 1_555
C109 C107 1_555 1_555
C110 C109 1_555 1_555
H89 C110 1_555 1_555
C111 C105 1_555 1_555
C112 H90 1_555 1_555
H91 C112 1_555 1_555
C113 C112 1_555 1_555
H92 C113 1_555 1_555
H93 C113 1_555 1_555
C114 H94 1_555 1_555
N15 C113 1_555 1_555
O31 C104 1_555 1_555
O32 C111 1_555 1_555
H102 C121 1_555 1_555
C122 C123 1_555 1_555
C123 H104 1_555 1_555
C124 C123 1_555 1_555
C125 C124 1_555 1_555
H105 C125 1_555 1_555
H106 C125 1_555 1_555
C126 C108 1_555 1_555
C127 C126 1_555 1_555
H107 C127 1_555 1_555
C128 C122 1_555 1_555
C129 H108 1_555 1_555
H109 C129 1_555 1_555
C130 C129 1_555 1_555
H110 C130 1_555 1_555
H111 C130 1_555 1_555
C131 H112 1_555 1_555
N19 C130 1_555 1_555
O33 C121 1_555 1_555
O34 C128 1_555 1_555
C134_2 H115_2 1_555 1_555
C135_2 C134_2 1_555 1_555
H116_2 C135_2 1_555 1_555
C136_2 H117_2 1_555 1_555
C137_2 H118_2 1_555 1_555
H119_2 C137_2 1_555 1_555
C138 C137_2 1_555 1_555
H120 C138 1_555 1_555
H121_2 C138 1_555 1_555
C139 C140 1_555 1_555
C140 H122 1_555 1_555
C141 C140 1_555 1_555
C142 C109 1_555 1_555
H123 C142 1_555 1_555
H124 C142 1_555 1_555
C143 C125 1_555 1_555
C144 C143 1_555 1_555
H125 C144 1_555 1_555
C145 C139 1_555 1_555
C146 H126 1_555 1_555
H127 C146 1_555 1_555
C147 C146 1_555 1_555
H128 C147 1_555 1_555
H129 C147 1_555 1_555
C148 H130 1_555 1_555
C149_2 C148 1_555 1_555
H131_2 C149_2 1_555 1_555
C150_2 H132_2 1_555 1_555
N21_2 C134_2 1_555 1_555
N22_2 C135_2 1_555 1_555
N23 C147 1_555 1_555
N24_2 C149_2 1_555 1_555
O35 C138 1_555 1_555
O36 C145 1_555 1_555
Cd5_2 O27_2 1_555 1_555
O38_2 Cd5_2 1_555 1_555
O41_2 Cd5_2 1_555 1_555
C6 O1 1_555 1_555
C11 C12 1_555 1_555
C13 O2 1_555 1_555
C15 N3 1_555 1_555
C33 O7 1_555 1_555
C35 C37 1_555 1_555
C38 C39 1_555 1_555
C40 O8 1_555 1_555
C42 N7 1_555 1_555
C47_2 N9_2 1_555 1_555
C47_2 N10_2 1_555 1_555
C48_2 N10_2 1_555 1_555
C50 O9 1_555 1_555
C52 C53 1_555 1_555
C52 C54 1_555 1_555
C55 C56 1_555 1_555
C57 O10 1_555 1_555
C59 N11 1_555 1_555
C61_2 N11 1_555 1_555
C61_2 N12_2 1_555 1_555
N12_2 Cd3 1_555 1_555
C84_2 O23_2 1_555 1_555
C84_2 O24_2 1_555 1_555
C89 O25 1_555 1_555
C89 O26 1_555 1_555
O28_2 Cd5_2 1_555 1_555
C105 O31 1_555 1_555
C110 C111 1_555 1_555
C112 O32 1_555 1_555
C114 N15 1_555 1_555
C122 O33 1_555 1_555
C124 C126 1_555 1_555
C127 C128 1_555 1_555
C129 O34 1_555 1_555
C131 N19 1_555 1_555
C136_2 N21_2 1_555 1_555
C136_2 N22_2 1_555 1_555
C137_2 N22_2 1_555 1_555
C139 O35 1_555 1_555
C141 C142 1_555 1_555
C141 C143 1_555 1_555
C144 C145 1_555 1_555
C146 O36 1_555 1_555
C148 N23 1_555 1_555
C150_2 N23 1_555 1_555
C150_2 N24_2 1_555 1_555
N21_2 Cd5_2 1_555 1_555
N24_2 Cd5_2 1_555 1_555
H75_4 C92_4 1_555 1_555
H76_4 C93_4 1_555 1_555
C86_2 H71_2 1_555 1_555
C87_2 C86_2 1_555 1_555
H72_2 C87_2 1_555 1_555
C96_2 C87_2 1_555 1_555
H77_2 C96_2 1_555 1_555
H23_2 C26_2 1_555 1_555
H24_2 C27_2 1_555 1_555
C65 C66 1_555 1_555
C66 C27_2 1_555 1_555
C67 C26_2 1_555 1_555
H62 C67 1_555 1_555
O38_2 C65 1_555 1_555
O41_2 C65 1_555 1_555
C66 C67 1_555 1_555
Cd1 N1_2 1_555 1_555
C1_2 H1_2 1_555 1_555
C2_2 C1_2 1_555 1_555
H2_2 C2_2 1_555 1_555
C3_2 H3_2 1_555 1_555
C4_2 H4_2 1_555 1_555
H5_2 C4_2 1_555 1_555
H17_2 C16_2 1_555 1_555
C17_2 H18_2 1_555 1_555
C18_2 C19_2 1_555 1_555
C22_2 C19_2 1_555 1_555
H21_2 C22_2 1_555 1_555
C23_2 C24_2 1_555 1_555
C24_2 C25_2 1_555 1_555
C25_2 H22_2 1_555 1_555
C26_3 C25_2 1_555 1_555
H23_3 C26_3 1_555 1_555
C27_3 C24_2 1_555 1_555
H24_3 C27_3 1_555 1_555
N1_2 C1_2 1_555 1_555
N2_2 C2_2 1_555 1_555
N4_2 Cd1 1_555 1_555
O3_2 Cd1 1_555 1_555
O4_2 Cd1 1_555 1_555
O5 Cd1 1_555 1_555
O6 Cd1 1_555 1_555
C62_2 C63_2 1_555 1_555
C63_2 C22_2 1_555 1_555
O11_2 C62_2 1_555 1_555
O12_2 C62_2 1_555 1_555
Cd4_2 O11_2 1_555 1_555
C100_2 H79_2 1_555 1_555
C101_2 C100_2 1_555 1_555
H80_2 C101_2 1_555 1_555
C102_2 H81_2 1_555 1_555
C103_2 H82_2 1_555 1_555
H83_2 C103_2 1_555 1_555
H95_2 C115_2 1_555 1_555
C116_2 H96_2 1_555 1_555
N13_2 Cd4_2 1_555 1_555
N14_2 C101_2 1_555 1_555
N16_2 Cd4_2 1_555 1_555
O37_2 Cd4_2 1_555 1_555
O40_2 Cd4_2 1_555 1_555
C3_2 N1_2 1_555 1_555
C3_2 N2_2 1_555 1_555
C4_2 N2_2 1_555 1_555
C16_2 N4_2 1_555 1_555
C17_2 N4_2 1_555 1_555
C18_2 O3_2 1_555 1_555
C18_2 O4_2 1_555 1_555
C23_2 O5 1_555 1_555
C23_2 O6 1_555 1_555
O12_2 Cd4_2 1_555 1_555
C100_2 N13_2 1_555 1_555
C102_2 N13_2 1_555 1_555
C102_2 N14_2 1_555 1_555
C103_2 N14_2 1_555 1_555
C115_2 N16_2 1_555 1_555
C116_2 N16_2 1_555 1_555
H23_4 C26_4 1_555 1_555
H24_4 C27_4 1_555 1_555
C70_2 H63_2 1_555 1_555
C71_2 C70_2 1_555 1_555
H64_2 C71_2 1_555 1_555
C80_2 C71_2 1_555 1_555
H69_2 C80_2 1_555 1_555
H75_5 C92_5 1_555 1_555
H76_5 C93_5 1_555 1_555
C97_2 C98_2 1_555 1_555
C98_2 C93_5 1_555 1_555
C99_2 C92_5 1_555 1_555
H78_2 C99_2 1_555 1_555
O37_2 C97_2 1_555 1_555
O40_2 C97_2 1_555 1_555
C98_2 C99_2 1_555 1_555
C20_2 H19_2 1_555 1_555
C21_2 C20_2 1_555 1_555
H20_2 C21_2 1_555 1_555
H23_5 C26_5 1_555 1_555
H24_5 C27_5 1_555 1_555
C64_2 C21_2 1_555 1_555
H61_2 C64_2 1_555 1_555
H23_6 C26_6 1_555 1_555
H24_6 C27_6 1_555 1_555
C65_2 C66_2 1_555 1_555
C66_2 C27_6 1_555 1_555
C67_2 C26_6 1_555 1_555
H62_2 C67_2 1_555 1_555
O13 C65_2 1_555 1_555
O14 C65_2 1_555 1_555
Cd8 O13 1_555 1_555
C66_2 C67_2 1_555 1_555
O14 Cd8 1_555 1_555
H6_2 C5_2 1_555 1_555
C6_2 C7_2 1_555 1_555
C7_2 H8_2 1_555 1_555
C8_2 C7_2 1_555 1_555
C9_2 C8_2 1_555 1_555
H9_2 C9_2 1_555 1_555
H10_2 C9_2 1_555 1_555
C10_2 C8_2 1_555 1_555
C11_2 C10_2 1_555 1_555
H11_2 C11_2 1_555 1_555
C12_2 C6_2 1_555 1_555
C13_2 H12_2 1_555 1_555
H13_2 C13_2 1_555 1_555
C14_2 C13_2 1_555 1_555
H14_2 C14_2 1_555 1_555
H15_2 C14_2 1_555 1_555
C15_2 H16_2 1_555 1_555
N3_2 C14_2 1_555 1_555
O1_2 C5_2 1_555 1_555
O2_2 C12_2 1_555 1_555
C28_2 H25_2 1_555 1_555
C29_2 C28_2 1_555 1_555
H26_2 C29_2 1_555 1_555
C30_2 H27_2 1_555 1_555
C31_2 H28_2 1_555 1_555
H29_2 C31_2 1_555 1_555
C32_2 C31_2 1_555 1_555
H30_2 C32_2 1_555 1_555
H31_2 C32_2 1_555 1_555
C33_2 C34_2 1_555 1_555
C34_2 H32_2 1_555 1_555
C35_2 C34_2 1_555 1_555
C36_2 C35_2 1_555 1_555
H33_2 C36_2 1_555 1_555
H34_2 C36_2 1_555 1_555
C37_2 C9_2 1_555 1_555
C38_2 C37_2 1_555 1_555
H35_2 C38_2 1_555 1_555
C39_2 C33_2 1_555 1_555
C40_2 H36_2 1_555 1_555
H37_2 C40_2 1_555 1_555
C41_2 C40_2 1_555 1_555
H38_2 C41_2 1_555 1_555
H39_2 C41_2 1_555 1_555
C42_2 H40_2 1_555 1_555
C43_2 C42_2 1_555 1_555
H41_2 C43_2 1_555 1_555
C44_2 H42_2 1_555 1_555
N5_2 C28_2 1_555 1_555
N6_2 C29_2 1_555 1_555
N7_2 C41_2 1_555 1_555
N8_2 C43_2 1_555 1_555
O7_2 C32_2 1_555 1_555
O8_2 C39_2 1_555 1_555
H48_2 C49_2 1_555 1_555
C50_2 C51_2 1_555 1_555
C51_2 H50_2 1_555 1_555
C52_2 C51_2 1_555 1_555
C53_2 C10_2 1_555 1_555
H51_2 C53_2 1_555 1_555
H52_2 C53_2 1_555 1_555
C54_2 C36_2 1_555 1_555
C55_2 C54_2 1_555 1_555
H53_2 C55_2 1_555 1_555
C56_2 C50_2 1_555 1_555
C57_2 H54_2 1_555 1_555
H55_2 C57_2 1_555 1_555
C58_2 C57_2 1_555 1_555
H56_2 C58_2 1_555 1_555
H57_2 C58_2 1_555 1_555
C59_2 H58_2 1_555 1_555
N11_2 C58_2 1_555 1_555
O9_2 C49_2 1_555 1_555
O10_2 C56_2 1_555 1_555
Cd8 N5_2 1_555 1_555
C68_2 C69_2 1_555 1_555
C72_2 C69_2 1_555 1_555
H65_2 C72_2 1_555 1_555
O15_2 Cd8 1_555 1_555
O16_2 Cd8 1_555 1_555
C78_2 C79_2 1_555 1_555
C79_2 C72_2 1_555 1_555
O19_2 C78_2 1_555 1_555
O20_2 C78_2 1_555 1_555
H84_2 C104_2 1_555 1_555
C105_2 C106_2 1_555 1_555
C106_2 H86_2 1_555 1_555
C107_2 C106_2 1_555 1_555
C108_2 C107_2 1_555 1_555
H87_2 C108_2 1_555 1_555
H88_2 C108_2 1_555 1_555
C109_2 C107_2 1_555 1_555
C110_2 C109_2 1_555 1_555
H89_2 C110_2 1_555 1_555
C111_2 C105_2 1_555 1_555
C112_2 H90_2 1_555 1_555
H91_2 C112_2 1_555 1_555
C113_2 C112_2 1_555 1_555
H92_2 C113_2 1_555 1_555
H93_2 C113_2 1_555 1_555
C114_2 H94_2 1_555 1_555
N15_2 C113_2 1_555 1_555
O31_2 C104_2 1_555 1_555
O32_2 C111_2 1_555 1_555
C117_2 H97_2 1_555 1_555
C118_2 C117_2 1_555 1_555
H98_2 C118_2 1_555 1_555
C119_2 H99_2 1_555 1_555
C120_2 H100_2 1_555 1_555
H101_2 C120_2 1_555 1_555
C121_2 C120_2 1_555 1_555
H102_2 C121_2 1_555 1_555
H103_2 C121_2 1_555 1_555
C122_2 C123_2 1_555 1_555
C123_2 H104_2 1_555 1_555
C124_2 C123_2 1_555 1_555
C125_2 C124_2 1_555 1_555
H105_2 C125_2 1_555 1_555
H106_2 C125_2 1_555 1_555
C126_2 C108_2 1_555 1_555
C127_2 C126_2 1_555 1_555
H107_2 C127_2 1_555 1_555
C128_2 C122_2 1_555 1_555
C129_2 H108_2 1_555 1_555
H109_2 C129_2 1_555 1_555
C130_2 C129_2 1_555 1_555
H110_2 C130_2 1_555 1_555
H111_2 C130_2 1_555 1_555
C131_2 H112_2 1_555 1_555
C132_2 C131_2 1_555 1_555
H113_2 C132_2 1_555 1_555
C133_2 H114_2 1_555 1_555
N17_2 C117_2 1_555 1_555
N18_2 C118_2 1_555 1_555
N19_2 C130_2 1_555 1_555
N20_2 C132_2 1_555 1_555
O33_2 C121_2 1_555 1_555
O34_2 C128_2 1_555 1_555
H120_2 C138_2 1_555 1_555
C139_2 C140_2 1_555 1_555
C140_2 H122_2 1_555 1_555
C141_2 C140_2 1_555 1_555
C142_2 C109_2 1_555 1_555
H123_2 C142_2 1_555 1_555
H124_2 C142_2 1_555 1_555
C143_2 C125_2 1_555 1_555
C144_2 C143_2 1_555 1_555
H125_2 C144_2 1_555 1_555
C145_2 C139_2 1_555 1_555
C146_2 H126_2 1_555 1_555
H127_2 C146_2 1_555 1_555
C147_2 C146_2 1_555 1_555
H128_2 C147_2 1_555 1_555
H129_2 C147_2 1_555 1_555
C148_2 H130_2 1_555 1_555
N23_2 C147_2 1_555 1_555
O35_2 C138_2 1_555 1_555
O36_2 C145_2 1_555 1_555
Cd6_2 O19_2 1_555 1_555
O39_2 Cd6_2 1_555 1_555
O42_2 Cd6_2 1_555 1_555
C6_2 O1_2 1_555 1_555
C11_2 C12_2 1_555 1_555
C13_2 O2_2 1_555 1_555
C15_2 N3_2 1_555 1_555
C30_2 N5_2 1_555 1_555
C30_2 N6_2 1_555 1_555
C31_2 N6_2 1_555 1_555
C33_2 O7_2 1_555 1_555
C35_2 C37_2 1_555 1_555
C38_2 C39_2 1_555 1_555
C40_2 O8_2 1_555 1_555
C42_2 N7_2 1_555 1_555
C44_2 N7_2 1_555 1_555
C44_2 N8_2 1_555 1_555
N8_2 Cd8 1_555 1_555
C50_2 O9_2 1_555 1_555
C52_2 C53_2 1_555 1_555
C52_2 C54_2 1_555 1_555
C55_2 C56_2 1_555 1_555
C57_2 O10_2 1_555 1_555
C59_2 N11_2 1_555 1_555
C68_2 O15_2 1_555 1_555
C68_2 O16_2 1_555 1_555
O20_2 Cd6_2 1_555 1_555
C105_2 O31_2 1_555 1_555
C110_2 C111_2 1_555 1_555
C112_2 O32_2 1_555 1_555
C114_2 N15_2 1_555 1_555
C119_2 N17_2 1_555 1_555
C119_2 N18_2 1_555 1_555
C120_2 N18_2 1_555 1_555
C122_2 O33_2 1_555 1_555
C124_2 C126_2 1_555 1_555
C127_2 C128_2 1_555 1_555
C129_2 O34_2 1_555 1_555
C131_2 N19_2 1_555 1_555
C133_2 N19_2 1_555 1_555
C133_2 N20_2 1_555 1_555
N17_2 Cd6_2 1_555 1_555
N20_2 Cd6_2 1_555 1_555
C139_2 O35_2 1_555 1_555
C141_2 C142_2 1_555 1_555
C141_2 C143_2 1_555 1_555
C144_2 C145_2 1_555 1_555
C146_2 O36_2 1_555 1_555
C148_2 N23_2 1_555 1_555
C89_2 C90_2 1_555 1_555
C90_2 C91_2 1_555 1_555
C91_2 H74_2 1_555 1_555
C92_6 C91_2 1_555 1_555
H75_6 C92_6 1_555 1_555
C93_6 C90_2 1_555 1_555
H76_6 C93_6 1_555 1_555
C89_2 O39_2 1_555 1_555
C89_2 O42_2 1_555 1_555

#END
