
###############################################################################
#
# This file contains modified crystal structure data generated from the
# MOF subset of the Cambridge Structural Database (CSD) v543 
# hosted by the Cambridge Crystallographic Data Centre (CCDC).
#
# This work is licensed under the Creative Commons
# Attribution-NonCommercial-ShareAlike 4.0 International License.
# To view a copy of this license, visit
# http://creativecommons.org/licenses/by-nc-sa/4.0/
# or send a letter to
# Creative Commons, PO Box 1866, Mountain View, CA 94042, USA.
#
# CIF created using the CSD Python API on 29 September 2022
# The structure has been converted into the P1 space group
# The structure has a 3D framework
# The original CSD entry MIRDOJ is in the cubic crystal system
# The original CSD entry MIRDOJ is in a Sohncke space group
# The framework has been calculated to contain at least 10.0% void space
# The void calculation uses a probe of radius 1.32A, grid spacing 0.4
# H atom positions have been added when not included in the experimental data
# Generated hydrogen atom positions removed from atoms on special positions
#
###############################################################################

data_MIRDOJ
_chemical_formula_moiety         '(C864 H1344 N96 O716 Zn172)n'
_symmetry_cell_setting           triclinic
_symmetry_space_group_name_H-M   'P 1'
_symmetry_Int_Tables_number      1
_space_group_name_Hall           'P 1'
loop_
_symmetry_equiv_pos_site_id
_symmetry_equiv_pos_as_xyz
1 x,y,z
_cell_length_a                   38.8595(3)
_cell_length_b                   38.8595(3)
_cell_length_c                   38.8595(3)
_cell_angle_alpha                90
_cell_angle_beta                 90
_cell_angle_gamma                90
_cell_volume                     58680.2
loop_
_atom_site_label
_atom_site_type_symbol
_atom_site_fract_x
_atom_site_fract_y
_atom_site_fract_z
Zn11 Zn 0.500000 0.78043(7) 0.000000
O77 O 0.500000 0.8315(5) 0.000000
Zn12 Zn 0.500000 0.70301(7) 0.000000
O78 O 0.500000 0.6523(4) 0.000000
Zn13 Zn 0.78043(7) 0.500000 0.000000
O79 O 0.8315(5) 0.500000 0.000000
Zn14 Zn 0.70301(7) 0.500000 0.000000
O80 O 0.6523(4) 0.500000 0.000000
Zn15 Zn 0.500000 0.21957(7) 0.000000
Zn16 Zn 0.21957(7) 0.500000 0.000000
Zn17 Zn 0.500000 0.29699(7) 0.000000
Zn18 Zn 0.29699(7) 0.500000 0.000000
O83 O 0.5386(2) 0.7696(2) 0.0324(2)
O84 O 0.4676(2) 0.7696(2) 0.0386(2)
O85 O 0.7696(2) 0.5324(2) 0.0386(2)
O86 O 0.7696(2) 0.4614(2) 0.0324(2)
O95 O 0.5445(2) 0.7132(3) 0.0242(2)
O96 O 0.4758(2) 0.7132(3) 0.0445(2)
O97 O 0.7132(3) 0.5242(2) 0.0445(2)
O98 O 0.7132(3) 0.4555(2) 0.0242(2)
Zn1 Zn 0.500000 0.500000 0.71957(7)
Zn2 Zn 0.500000 0.500000 0.79699(7)
Zn3 Zn 0.62578(3) 0.62578(3) 0.62578(3)
Zn4 Zn 0.67825(4) 0.67825(4) 0.67825(4)
O1 O 0.5386(2) 0.5324(2) 0.7304(2)
O2 O 0.500000 0.500000 0.6685(5)
O3 O 0.6520(2) 0.5884(2) 0.8186(2)
O4 O 0.6172(2) 0.6110(3) 0.67196(18)
O5 O 0.5445(2) 0.5242(2) 0.7868(3)
N1 N 0.6187(2) 0.6351(3) 0.8314(3)
O6 O 0.500000 0.500000 0.8477(4)
C1 C 0.5847(4) 0.5609(3) 0.7600(4)
C2 C 0.6308(4) 0.5863(3) 0.7911(4)
C3 C 0.5538(3) 0.5390(3) 0.7578(5)
O7 O 0.6607(3) 0.6374(2) 0.6988(3)
C4 C 0.6022(3) 0.5637(3) 0.7893(4)
H1 H 0.595580 0.550718 0.808875
C5 C 0.6429(5) 0.6159(3) 0.8398(4)
C6 C 0.6241(4) 0.5976(3) 0.7318(4)
C7 C 0.6423(4) 0.6015(3) 0.7600(4)
H2 H 0.662995 0.614488 0.759525
C8 C 0.5950(3) 0.5768(3) 0.7308(3)
H3 H 0.582507 0.573891 0.710030
C9 C 0.6352(4) 0.6169(4) 0.6993(4)
O8 O 0.5949(3) 0.5949(3) 0.5949(3)
O9 O 0.7034(10) 0.7238(8) 0.6669(11)
O10 O 0.5324(2) 0.7696(2) 0.9614(2)
O11 O 0.5884(2) 0.6814(2) 0.8480(2)
O12 O 0.6110(3) 0.82804(18) 0.8828(2)
O13 O 0.5242(2) 0.7132(3) 0.9555(2)
N2 N 0.6351(3) 0.6686(3) 0.8813(2)
C10 C 0.5609(3) 0.7400(4) 0.9153(4)
C11 C 0.5863(3) 0.7089(4) 0.8692(4)
C12 C 0.5390(3) 0.7422(5) 0.9462(3)
O14 O 0.6374(2) 0.8012(3) 0.8393(3)
C13 C 0.5637(3) 0.7107(4) 0.8978(3)
H4 H 0.550718 0.691125 0.904420
C14 C 0.6159(3) 0.6602(4) 0.8571(5)
C15 C 0.5976(3) 0.7682(4) 0.8759(4)
C16 C 0.6015(3) 0.7400(4) 0.8577(4)
H5 H 0.614488 0.740475 0.837005
C17 C 0.5768(3) 0.7692(3) 0.9050(3)
H6 H 0.573891 0.789970 0.917493
C18 C 0.6169(4) 0.8007(4) 0.8648(4)
O15 O 0.7696(2) 0.5386(2) 0.9676(2)
O16 O 0.6814(2) 0.6520(2) 0.9116(2)
O17 O 0.82804(18) 0.6172(2) 0.8890(3)
O18 O 0.7132(3) 0.5445(2) 0.9758(2)
N3 N 0.6686(3) 0.6187(2) 0.8649(3)
C19 C 0.7400(4) 0.5847(4) 0.9391(3)
C20 C 0.7089(4) 0.6308(4) 0.9137(3)
C21 C 0.7422(5) 0.5538(3) 0.9610(3)
O19 O 0.8012(3) 0.6607(3) 0.8626(2)
C22 C 0.7107(4) 0.6022(3) 0.9363(3)
H7 H 0.691125 0.595580 0.949282
C23 C 0.6602(4) 0.6429(5) 0.8841(3)
C24 C 0.7682(4) 0.6241(4) 0.9024(3)
C25 C 0.7400(4) 0.6423(4) 0.8985(3)
H8 H 0.740475 0.662995 0.885512
C26 C 0.7692(3) 0.5950(3) 0.9232(3)
H9 H 0.789970 0.582507 0.926109
C27 C 0.8007(4) 0.6352(4) 0.8831(4)
Zn5 Zn 0.37422(3) 0.62578(3) 0.62578(3)
Zn6 Zn 0.32175(4) 0.67825(4) 0.67825(4)
O20 O 0.4676(2) 0.5386(2) 0.7304(2)
O21 O 0.4116(2) 0.6520(2) 0.8186(2)
O22 O 0.3890(3) 0.6172(2) 0.67196(18)
O23 O 0.4758(2) 0.5445(2) 0.7868(3)
N4 N 0.3649(3) 0.6187(2) 0.8314(3)
C28 C 0.4391(3) 0.5847(4) 0.7600(4)
C29 C 0.4137(3) 0.6308(4) 0.7911(4)
C30 C 0.4610(3) 0.5538(3) 0.7578(5)
O24 O 0.3626(2) 0.6607(3) 0.6988(3)
C31 C 0.4363(3) 0.6022(3) 0.7893(4)
H10 H 0.449282 0.595580 0.808875
C32 C 0.3841(3) 0.6429(5) 0.8398(4)
C33 C 0.4024(3) 0.6241(4) 0.7318(4)
C34 C 0.3985(3) 0.6423(4) 0.7600(4)
H11 H 0.385512 0.662995 0.759525
C35 C 0.4232(3) 0.5950(3) 0.7308(3)
H12 H 0.426109 0.582507 0.710030
C36 C 0.3831(4) 0.6352(4) 0.6993(4)
O25 O 0.4051(3) 0.5949(3) 0.5949(3)
O26 O 0.2762(8) 0.7034(10) 0.6669(11)
O27 O 0.2304(2) 0.5324(2) 0.9614(2)
O28 O 0.3186(2) 0.5884(2) 0.8480(2)
O29 O 0.17196(18) 0.6110(3) 0.8828(2)
O30 O 0.2868(3) 0.5242(2) 0.9555(2)
N5 N 0.3314(3) 0.6351(3) 0.8813(2)
C37 C 0.2600(4) 0.5609(3) 0.9153(4)
C38 C 0.2911(4) 0.5863(3) 0.8692(4)
C39 C 0.2578(5) 0.5390(3) 0.9462(3)
O31 O 0.1988(3) 0.6374(2) 0.8393(3)
C40 C 0.2893(4) 0.5637(3) 0.8978(3)
H13 H 0.308875 0.550718 0.904420
C41 C 0.3398(4) 0.6159(3) 0.8571(5)
C42 C 0.2318(4) 0.5976(3) 0.8759(4)
C43 C 0.2600(4) 0.6015(3) 0.8577(4)
H14 H 0.259525 0.614488 0.837005
C44 C 0.2308(3) 0.5768(3) 0.9050(3)
H15 H 0.210030 0.573891 0.917493
C45 C 0.1993(4) 0.6169(4) 0.8648(4)
O32 O 0.4614(2) 0.7696(2) 0.9676(2)
O33 O 0.3480(2) 0.6814(2) 0.9116(2)
O34 O 0.3828(2) 0.82804(18) 0.8890(3)
O35 O 0.4555(2) 0.7132(3) 0.9758(2)
N6 N 0.3813(2) 0.6686(3) 0.8649(3)
C46 C 0.4153(4) 0.7400(4) 0.9391(3)
C47 C 0.3692(4) 0.7089(4) 0.9137(3)
C48 C 0.4462(3) 0.7422(5) 0.9610(3)
O36 O 0.3393(3) 0.8012(3) 0.8626(2)
C49 C 0.3978(3) 0.7107(4) 0.9363(3)
H16 H 0.404420 0.691125 0.949282
C50 C 0.3571(5) 0.6602(4) 0.8841(3)
C51 C 0.3759(4) 0.7682(4) 0.9024(3)
C52 C 0.3577(4) 0.7400(4) 0.8985(3)
H17 H 0.337005 0.740475 0.885512
C53 C 0.4050(3) 0.7692(3) 0.9232(3)
H18 H 0.417493 0.789970 0.926109
C54 C 0.3648(4) 0.8007(4) 0.8831(4)
Zn7 Zn 0.37422(3) 0.37422(3) 0.62578(3)
Zn8 Zn 0.32175(4) 0.32175(4) 0.67825(4)
O37 O 0.4614(2) 0.4676(2) 0.7304(2)
O38 O 0.3480(2) 0.4116(2) 0.8186(2)
O39 O 0.3828(2) 0.3890(3) 0.67196(18)
O40 O 0.4555(2) 0.4758(2) 0.7868(3)
N7 N 0.3813(2) 0.3649(3) 0.8314(3)
C55 C 0.4153(4) 0.4391(3) 0.7600(4)
C56 C 0.3692(4) 0.4137(3) 0.7911(4)
C57 C 0.4462(3) 0.4610(3) 0.7578(5)
O41 O 0.3393(3) 0.3626(2) 0.6988(3)
C58 C 0.3978(3) 0.4363(3) 0.7893(4)
H19 H 0.404420 0.449282 0.808875
C59 C 0.3571(5) 0.3841(3) 0.8398(4)
C60 C 0.3759(4) 0.4024(3) 0.7318(4)
C61 C 0.3577(4) 0.3985(3) 0.7600(4)
H20 H 0.337005 0.385512 0.759525
C62 C 0.4050(3) 0.4232(3) 0.7308(3)
H21 H 0.417493 0.426109 0.710030
C63 C 0.3648(4) 0.3831(4) 0.6993(4)
O42 O 0.4051(3) 0.4051(3) 0.5949(3)
O43 O 0.2966(10) 0.2762(8) 0.6669(11)
O44 O 0.4676(2) 0.2304(2) 0.9614(2)
O45 O 0.4116(2) 0.3186(2) 0.8480(2)
O46 O 0.3890(3) 0.17196(18) 0.8828(2)
O47 O 0.4758(2) 0.2868(3) 0.9555(2)
N8 N 0.3649(3) 0.3314(3) 0.8813(2)
C64 C 0.4391(3) 0.2600(4) 0.9153(4)
C65 C 0.4137(3) 0.2911(4) 0.8692(4)
C66 C 0.4610(3) 0.2578(5) 0.9462(3)
O48 O 0.3626(2) 0.1988(3) 0.8393(3)
C67 C 0.4363(3) 0.2893(4) 0.8978(3)
H22 H 0.449282 0.308875 0.904420
C68 C 0.3841(3) 0.3398(4) 0.8571(5)
C69 C 0.4024(3) 0.2318(4) 0.8759(4)
C70 C 0.3985(3) 0.2600(4) 0.8577(4)
H23 H 0.385512 0.259525 0.837005
C71 C 0.4232(3) 0.2308(3) 0.9050(3)
H24 H 0.426109 0.210030 0.917493
C72 C 0.3831(4) 0.1993(4) 0.8648(4)
O49 O 0.2304(2) 0.4614(2) 0.9676(2)
O50 O 0.3186(2) 0.3480(2) 0.9116(2)
O51 O 0.17196(18) 0.3828(2) 0.8890(3)
O52 O 0.2868(3) 0.4555(2) 0.9758(2)
N9 N 0.3314(3) 0.3813(2) 0.8649(3)
C73 C 0.2600(4) 0.4153(4) 0.9391(3)
C74 C 0.2911(4) 0.3692(4) 0.9137(3)
C75 C 0.2578(5) 0.4462(3) 0.9610(3)
O53 O 0.1988(3) 0.3393(3) 0.8626(2)
C76 C 0.2893(4) 0.3978(3) 0.9363(3)
H25 H 0.308875 0.404420 0.949282
C77 C 0.3398(4) 0.3571(5) 0.8841(3)
C78 C 0.2318(4) 0.3759(4) 0.9024(3)
C79 C 0.2600(4) 0.3577(4) 0.8985(3)
H26 H 0.259525 0.337005 0.885512
C80 C 0.2308(3) 0.4050(3) 0.9232(3)
H27 H 0.210030 0.417493 0.926109
C81 C 0.1993(4) 0.3648(4) 0.8831(4)
Zn9 Zn 0.62578(3) 0.37422(3) 0.62578(3)
Zn10 Zn 0.67825(4) 0.32175(4) 0.67825(4)
O54 O 0.5324(2) 0.4614(2) 0.7304(2)
O55 O 0.5884(2) 0.3480(2) 0.8186(2)
O56 O 0.6110(3) 0.3828(2) 0.67196(18)
O57 O 0.5242(2) 0.4555(2) 0.7868(3)
N10 N 0.6351(3) 0.3813(2) 0.8314(3)
C82 C 0.5609(3) 0.4153(4) 0.7600(4)
C83 C 0.5863(3) 0.3692(4) 0.7911(4)
C84 C 0.5390(3) 0.4462(3) 0.7578(5)
O58 O 0.6374(2) 0.3393(3) 0.6988(3)
C85 C 0.5637(3) 0.3978(3) 0.7893(4)
H28 H 0.550718 0.404420 0.808875
C86 C 0.6159(3) 0.3571(5) 0.8398(4)
C87 C 0.5976(3) 0.3759(4) 0.7318(4)
C88 C 0.6015(3) 0.3577(4) 0.7600(4)
H29 H 0.614488 0.337005 0.759525
C89 C 0.5768(3) 0.4050(3) 0.7308(3)
H30 H 0.573891 0.417493 0.710030
C90 C 0.6169(4) 0.3648(4) 0.6993(4)
O59 O 0.5949(3) 0.4051(3) 0.5949(3)
O60 O 0.7238(8) 0.2966(10) 0.6669(11)
O61 O 0.7696(2) 0.4676(2) 0.9614(2)
O62 O 0.6814(2) 0.4116(2) 0.8480(2)
O63 O 0.82804(18) 0.3890(3) 0.8828(2)
O64 O 0.7132(3) 0.4758(2) 0.9555(2)
N11 N 0.6686(3) 0.3649(3) 0.8813(2)
C91 C 0.7400(4) 0.4391(3) 0.9153(4)
C92 C 0.7089(4) 0.4137(3) 0.8692(4)
C93 C 0.7422(5) 0.4610(3) 0.9462(3)
O65 O 0.8012(3) 0.3626(2) 0.8393(3)
C94 C 0.7107(4) 0.4363(3) 0.8978(3)
H31 H 0.691125 0.449282 0.904420
C95 C 0.6602(4) 0.3841(3) 0.8571(5)
C96 C 0.7682(4) 0.4024(3) 0.8759(4)
C97 C 0.7400(4) 0.3985(3) 0.8577(4)
H32 H 0.740475 0.385512 0.837005
C98 C 0.7692(3) 0.4232(3) 0.9050(3)
H33 H 0.789970 0.426109 0.917493
C99 C 0.8007(4) 0.3831(4) 0.8648(4)
O66 O 0.5386(2) 0.2304(2) 0.9676(2)
O67 O 0.6520(2) 0.3186(2) 0.9116(2)
O68 O 0.6172(2) 0.17196(18) 0.8890(3)
O69 O 0.5445(2) 0.2868(3) 0.9758(2)
N12 N 0.6187(2) 0.3314(3) 0.8649(3)
C100 C 0.5847(4) 0.2600(4) 0.9391(3)
C101 C 0.6308(4) 0.2911(4) 0.9137(3)
C102 C 0.5538(3) 0.2578(5) 0.9610(3)
O70 O 0.6607(3) 0.1988(3) 0.8626(2)
C103 C 0.6022(3) 0.2893(4) 0.9363(3)
H34 H 0.595580 0.308875 0.949282
C104 C 0.6429(5) 0.3398(4) 0.8841(3)
C105 C 0.6241(4) 0.2318(4) 0.9024(3)
C106 C 0.6423(4) 0.2600(4) 0.8985(3)
H35 H 0.662995 0.259525 0.885512
C107 C 0.5950(3) 0.2308(3) 0.9232(3)
H36 H 0.582507 0.210030 0.926109
C108 C 0.6352(4) 0.1993(4) 0.8831(4)
O71 O 0.6669(11) 0.7034(10) 0.7238(8)
O72 O 0.7238(8) 0.6669(11) 0.7034(10)
O73 O 0.2966(10) 0.6669(11) 0.7238(8)
O74 O 0.6669(11) 0.2762(8) 0.7034(10)
O75 O 0.7034(10) 0.3331(11) 0.7238(8)
O76 O 0.3331(11) 0.7238(8) 0.7034(10)
Zn11_2 Zn 0.500000 0.78043(7) 1.000000
O77_2 O 0.500000 0.8315(5) 1.000000
Zn12_2 Zn 0.500000 0.70301(7) 1.000000
O78_2 O 0.500000 0.6523(4) 1.000000
Zn13_2 Zn 0.78043(7) 0.500000 1.000000
O79_2 O 0.8315(5) 0.500000 1.000000
Zn14_2 Zn 0.70301(7) 0.500000 1.000000
O80_2 O 0.6523(4) 0.500000 1.000000
O81 O 0.3331(11) 0.2966(10) 0.7238(8)
O82 O 0.2762(8) 0.3331(11) 0.7034(10)
Zn15_2 Zn 0.500000 0.21957(7) 1.000000
Zn16_2 Zn 0.21957(7) 0.500000 1.000000
Zn17_2 Zn 0.500000 0.29699(7) 1.000000
Zn18_2 Zn 0.29699(7) 0.500000 1.000000
Zn19 Zn 0.62578(3) 0.87422(3) 0.87422(3)
Zn20 Zn 0.62578(3) 0.12578(3) 0.87422(3)
Zn21 Zn 0.37422(3) 0.12578(3) 0.87422(3)
Zn22 Zn 0.37422(3) 0.87422(3) 0.87422(3)
Zn23 Zn 0.12578(3) 0.37422(3) 0.87422(3)
Zn24 Zn 0.12578(3) 0.62578(3) 0.87422(3)
Zn25 Zn 0.87422(3) 0.62578(3) 0.87422(3)
Zn26 Zn 0.87422(3) 0.37422(3) 0.87422(3)
Zn27 Zn 0.67825(4) 0.82175(4) 0.82175(4)
Zn28 Zn 0.67825(4) 0.17825(4) 0.82175(4)
Zn29 Zn 0.32175(4) 0.17825(4) 0.82175(4)
Zn30 Zn 0.32175(4) 0.82175(4) 0.82175(4)
Zn31 Zn 0.17825(4) 0.32175(4) 0.82175(4)
Zn32 Zn 0.17825(4) 0.67825(4) 0.82175(4)
Zn33 Zn 0.82175(4) 0.67825(4) 0.82175(4)
Zn34 Zn 0.82175(4) 0.32175(4) 0.82175(4)
O87 O 0.6172(2) 0.32804(18) 0.6110(3)
O88 O 0.32804(18) 0.6110(3) 0.6172(2)
O89 O 0.67196(18) 0.6172(2) 0.6110(3)
O90 O 0.6110(3) 0.67196(18) 0.6172(2)
O91 O 0.3890(3) 0.32804(18) 0.6172(2)
O92 O 0.32804(18) 0.3828(2) 0.6110(3)
O93 O 0.3828(2) 0.67196(18) 0.6110(3)
O94 O 0.67196(18) 0.3890(3) 0.6172(2)
O99 O 0.6607(3) 0.3012(3) 0.6374(2)
O100 O 0.3012(3) 0.6374(2) 0.6607(3)
O101 O 0.6988(3) 0.6607(3) 0.6374(2)
O102 O 0.6374(2) 0.6988(3) 0.6607(3)
O103 O 0.3626(2) 0.3012(3) 0.6607(3)
O104 O 0.3012(3) 0.3393(3) 0.6374(2)
O105 O 0.3393(3) 0.6988(3) 0.6374(2)
O106 O 0.6988(3) 0.3626(2) 0.6607(3)
O77_3 O 0.1685(5) 0.500000 0.000000
O78_3 O 0.3477(4) 0.500000 0.000000
O83_2 O 0.2304(2) 0.5386(2) 0.0324(2)
O84_2 O 0.2304(2) 0.4676(2) 0.0386(2)
O95_2 O 0.2868(3) 0.5445(2) 0.0242(2)
O96_2 O 0.2868(3) 0.4758(2) 0.0445(2)
O77_4 O 0.1685(5) 0.500000 1.000000
O78_4 O 0.3477(4) 0.500000 1.000000
O77_5 O 0.500000 0.1685(5) 0.000000
O78_5 O 0.500000 0.3477(4) 0.000000
O83_3 O 0.4614(2) 0.2304(2) 0.0324(2)
O84_3 O 0.5324(2) 0.2304(2) 0.0386(2)
O95_3 O 0.4555(2) 0.2868(3) 0.0242(2)
O96_3 O 0.5242(2) 0.2868(3) 0.0445(2)
O77_6 O 0.500000 0.1685(5) 1.000000
O78_6 O 0.500000 0.3477(4) 1.000000
Zn1_2 Zn 0.500000 0.28043(7) 0.500000
Zn2_2 Zn 0.500000 0.20301(7) 0.500000
O1_2 O 0.5386(2) 0.2696(2) 0.5324(2)
O2_2 O 0.500000 0.3315(5) 0.500000
O3_2 O 0.6520(2) 0.1814(2) 0.5884(2)
O5_2 O 0.5445(2) 0.2132(3) 0.5242(2)
N1_2 N 0.6187(2) 0.1686(3) 0.6351(3)
O6_2 O 0.500000 0.1523(4) 0.500000
C1_2 C 0.5847(4) 0.2400(4) 0.5609(3)
C2_2 C 0.6308(4) 0.2089(4) 0.5863(3)
C3_2 C 0.5538(3) 0.2422(5) 0.5390(3)
C4_2 C 0.6022(3) 0.2107(4) 0.5637(3)
H1_2 H 0.595580 0.191125 0.550718
C5_2 C 0.6429(5) 0.1602(4) 0.6159(3)
C6_2 C 0.6241(4) 0.2682(4) 0.5976(3)
C7_2 C 0.6423(4) 0.2400(4) 0.6015(3)
H2_2 H 0.662995 0.240475 0.614488
C8_2 C 0.5950(3) 0.2692(3) 0.5768(3)
H3_2 H 0.582507 0.289970 0.573891
C9_2 C 0.6352(4) 0.3007(4) 0.6169(4)
O10_2 O 0.5324(2) 0.0386(2) 0.7696(2)
O11_2 O 0.5884(2) 0.1520(2) 0.6814(2)
O12_2 O 0.6110(3) 0.1172(2) 0.82804(18)
O13_2 O 0.5242(2) 0.0445(2) 0.7132(3)
N2_2 N 0.6351(3) 0.1187(2) 0.6686(3)
C10_2 C 0.5609(3) 0.0847(4) 0.7400(4)
C11_2 C 0.5863(3) 0.1308(4) 0.7089(4)
C12_2 C 0.5390(3) 0.0538(3) 0.7422(5)
O14_2 O 0.6374(2) 0.1607(3) 0.8012(3)
C13_2 C 0.5637(3) 0.1022(3) 0.7107(4)
H4_2 H 0.550718 0.095580 0.691125
C14_2 C 0.6159(3) 0.1429(5) 0.6602(4)
C15_2 C 0.5976(3) 0.1241(4) 0.7682(4)
C16_2 C 0.6015(3) 0.1423(4) 0.7400(4)
H5_2 H 0.614488 0.162995 0.740475
C17_2 C 0.5768(3) 0.0950(3) 0.7692(3)
H6_2 H 0.573891 0.082507 0.789970
C18_2 C 0.6169(4) 0.1352(4) 0.8007(4)
O15_2 O 0.7696(2) 0.0324(2) 0.5386(2)
O16_2 O 0.6814(2) 0.0884(2) 0.6520(2)
O17_2 O 0.82804(18) 0.1110(3) 0.6172(2)
O18_2 O 0.7132(3) 0.0242(2) 0.5445(2)
N3_2 N 0.6686(3) 0.1351(3) 0.6187(2)
C19_2 C 0.7400(4) 0.0609(3) 0.5847(4)
C20_2 C 0.7089(4) 0.0863(3) 0.6308(4)
C21_2 C 0.7422(5) 0.0390(3) 0.5538(3)
O19_2 O 0.8012(3) 0.1374(2) 0.6607(3)
C22_2 C 0.7107(4) 0.0637(3) 0.6022(3)
H7_2 H 0.691125 0.050718 0.595580
C23_2 C 0.6602(4) 0.1159(3) 0.6429(5)
C24_2 C 0.7682(4) 0.0976(3) 0.6241(4)
C25_2 C 0.7400(4) 0.1015(3) 0.6423(4)
H8_2 H 0.740475 0.114488 0.662995
C26_2 C 0.7692(3) 0.0768(3) 0.5950(3)
H9_2 H 0.789970 0.073891 0.582507
C27_2 C 0.8007(4) 0.1169(4) 0.6352(4)
O20_2 O 0.4676(2) 0.2696(2) 0.5386(2)
O21_2 O 0.4116(2) 0.1814(2) 0.6520(2)
O23_2 O 0.4758(2) 0.2132(3) 0.5445(2)
N4_2 N 0.3649(3) 0.1686(3) 0.6187(2)
C28_2 C 0.4391(3) 0.2400(4) 0.5847(4)
C29_2 C 0.4137(3) 0.2089(4) 0.6308(4)
C30_2 C 0.4610(3) 0.2422(5) 0.5538(3)
C31_2 C 0.4363(3) 0.2107(4) 0.6022(3)
H10_2 H 0.449282 0.191125 0.595580
C32_2 C 0.3841(3) 0.1602(4) 0.6429(5)
C33_2 C 0.4024(3) 0.2682(4) 0.6241(4)
C34_2 C 0.3985(3) 0.2400(4) 0.6423(4)
H11_2 H 0.385512 0.240475 0.662995
C35_2 C 0.4232(3) 0.2692(3) 0.5950(3)
H12_2 H 0.426109 0.289970 0.582507
C36_2 C 0.3831(4) 0.3007(4) 0.6352(4)
O27_2 O 0.2304(2) 0.0386(2) 0.5324(2)
O28_2 O 0.3186(2) 0.1520(2) 0.5884(2)
O29_2 O 0.17196(18) 0.1172(2) 0.6110(3)
O30_2 O 0.2868(3) 0.0445(2) 0.5242(2)
N5_2 N 0.3314(3) 0.1187(2) 0.6351(3)
C37_2 C 0.2600(4) 0.0847(4) 0.5609(3)
C38_2 C 0.2911(4) 0.1308(4) 0.5863(3)
C39_2 C 0.2578(5) 0.0538(3) 0.5390(3)
O31_2 O 0.1988(3) 0.1607(3) 0.6374(2)
C40_2 C 0.2893(4) 0.1022(3) 0.5637(3)
H13_2 H 0.308875 0.095580 0.550718
C41_2 C 0.3398(4) 0.1429(5) 0.6159(3)
C42_2 C 0.2318(4) 0.1241(4) 0.5976(3)
C43_2 C 0.2600(4) 0.1423(4) 0.6015(3)
H14_2 H 0.259525 0.162995 0.614488
C44_2 C 0.2308(3) 0.0950(3) 0.5768(3)
H15_2 H 0.210030 0.082507 0.573891
C45_2 C 0.1993(4) 0.1352(4) 0.6169(4)
O32_2 O 0.4614(2) 0.0324(2) 0.7696(2)
O33_2 O 0.3480(2) 0.0884(2) 0.6814(2)
O34_2 O 0.3828(2) 0.1110(3) 0.82804(18)
O35_2 O 0.4555(2) 0.0242(2) 0.7132(3)
N6_2 N 0.3813(2) 0.1351(3) 0.6686(3)
C46_2 C 0.4153(4) 0.0609(3) 0.7400(4)
C47_2 C 0.3692(4) 0.0863(3) 0.7089(4)
C48_2 C 0.4462(3) 0.0390(3) 0.7422(5)
O36_2 O 0.3393(3) 0.1374(2) 0.8012(3)
C49_2 C 0.3978(3) 0.0637(3) 0.7107(4)
H16_2 H 0.404420 0.050718 0.691125
C50_2 C 0.3571(5) 0.1159(3) 0.6602(4)
C51_2 C 0.3759(4) 0.0976(3) 0.7682(4)
C52_2 C 0.3577(4) 0.1015(3) 0.7400(4)
H17_2 H 0.337005 0.114488 0.740475
C53_2 C 0.4050(3) 0.0768(3) 0.7692(3)
H18_2 H 0.417493 0.073891 0.789970
C54_2 C 0.3648(4) 0.1169(4) 0.8007(4)
Zn7_2 Zn 0.37422(3) 0.37422(3) 0.37422(3)
Zn8_2 Zn 0.32175(4) 0.32175(4) 0.32175(4)
O37_2 O 0.4614(2) 0.2696(2) 0.4676(2)
O38_2 O 0.3480(2) 0.1814(2) 0.4116(2)
O39_2 O 0.3828(2) 0.32804(18) 0.3890(3)
O40_2 O 0.4555(2) 0.2132(3) 0.4758(2)
N7_2 N 0.3813(2) 0.1686(3) 0.3649(3)
C55_2 C 0.4153(4) 0.2400(4) 0.4391(3)
C56_2 C 0.3692(4) 0.2089(4) 0.4137(3)
C57_2 C 0.4462(3) 0.2422(5) 0.4610(3)
O41_2 O 0.3393(3) 0.3012(3) 0.3626(2)
C58_2 C 0.3978(3) 0.2107(4) 0.4363(3)
H19_2 H 0.404420 0.191125 0.449282
C59_2 C 0.3571(5) 0.1602(4) 0.3841(3)
C60_2 C 0.3759(4) 0.2682(4) 0.4024(3)
C61_2 C 0.3577(4) 0.2400(4) 0.3985(3)
H20_2 H 0.337005 0.240475 0.385512
C62_2 C 0.4050(3) 0.2692(3) 0.4232(3)
H21_2 H 0.417493 0.289970 0.426109
C63_2 C 0.3648(4) 0.3007(4) 0.3831(4)
O42_2 O 0.4051(3) 0.4051(3) 0.4051(3)
O43_2 O 0.2966(10) 0.3331(11) 0.2762(8)
O44_2 O 0.4676(2) 0.0386(2) 0.2304(2)
O45_2 O 0.4116(2) 0.1520(2) 0.3186(2)
O46_2 O 0.3890(3) 0.1172(2) 0.17196(18)
O47_2 O 0.4758(2) 0.0445(2) 0.2868(3)
N8_2 N 0.3649(3) 0.1187(2) 0.3314(3)
C64_2 C 0.4391(3) 0.0847(4) 0.2600(4)
C65_2 C 0.4137(3) 0.1308(4) 0.2911(4)
C66_2 C 0.4610(3) 0.0538(3) 0.2578(5)
O48_2 O 0.3626(2) 0.1607(3) 0.1988(3)
C67_2 C 0.4363(3) 0.1022(3) 0.2893(4)
H22_2 H 0.449282 0.095580 0.308875
C68_2 C 0.3841(3) 0.1429(5) 0.3398(4)
C69_2 C 0.4024(3) 0.1241(4) 0.2318(4)
C70_2 C 0.3985(3) 0.1423(4) 0.2600(4)
H23_2 H 0.385512 0.162995 0.259525
C71_2 C 0.4232(3) 0.0950(3) 0.2308(3)
H24_2 H 0.426109 0.082507 0.210030
C72_2 C 0.3831(4) 0.1352(4) 0.1993(4)
O49_2 O 0.2304(2) 0.0324(2) 0.4614(2)
O50_2 O 0.3186(2) 0.0884(2) 0.3480(2)
O51_2 O 0.17196(18) 0.1110(3) 0.3828(2)
O52_2 O 0.2868(3) 0.0242(2) 0.4555(2)
N9_2 N 0.3314(3) 0.1351(3) 0.3813(2)
C73_2 C 0.2600(4) 0.0609(3) 0.4153(4)
C74_2 C 0.2911(4) 0.0863(3) 0.3692(4)
C75_2 C 0.2578(5) 0.0390(3) 0.4462(3)
O53_2 O 0.1988(3) 0.1374(2) 0.3393(3)
C76_2 C 0.2893(4) 0.0637(3) 0.3978(3)
H25_2 H 0.308875 0.050718 0.404420
C77_2 C 0.3398(4) 0.1159(3) 0.3571(5)
C78_2 C 0.2318(4) 0.0976(3) 0.3759(4)
C79_2 C 0.2600(4) 0.1015(3) 0.3577(4)
H26_2 H 0.259525 0.114488 0.337005
C80_2 C 0.2308(3) 0.0768(3) 0.4050(3)
H27_2 H 0.210030 0.073891 0.417493
C81_2 C 0.1993(4) 0.1169(4) 0.3648(4)
Zn9_2 Zn 0.62578(3) 0.37422(3) 0.37422(3)
Zn10_2 Zn 0.67825(4) 0.32175(4) 0.32175(4)
O54_2 O 0.5324(2) 0.2696(2) 0.4614(2)
O55_2 O 0.5884(2) 0.1814(2) 0.3480(2)
O56_2 O 0.6110(3) 0.32804(18) 0.3828(2)
O57_2 O 0.5242(2) 0.2132(3) 0.4555(2)
N10_2 N 0.6351(3) 0.1686(3) 0.3813(2)
C82_2 C 0.5609(3) 0.2400(4) 0.4153(4)
C83_2 C 0.5863(3) 0.2089(4) 0.3692(4)
C84_2 C 0.5390(3) 0.2422(5) 0.4462(3)
O58_2 O 0.6374(2) 0.3012(3) 0.3393(3)
C85_2 C 0.5637(3) 0.2107(4) 0.3978(3)
H28_2 H 0.550718 0.191125 0.404420
C86_2 C 0.6159(3) 0.1602(4) 0.3571(5)
C87_2 C 0.5976(3) 0.2682(4) 0.3759(4)
C88_2 C 0.6015(3) 0.2400(4) 0.3577(4)
H29_2 H 0.614488 0.240475 0.337005
C89_2 C 0.5768(3) 0.2692(3) 0.4050(3)
H30_2 H 0.573891 0.289970 0.417493
C90_2 C 0.6169(4) 0.3007(4) 0.3648(4)
O59_2 O 0.5949(3) 0.4051(3) 0.4051(3)
O60_2 O 0.7238(8) 0.3331(11) 0.2966(10)
O61_2 O 0.7696(2) 0.0386(2) 0.4676(2)
O62_2 O 0.6814(2) 0.1520(2) 0.4116(2)
O63_2 O 0.82804(18) 0.1172(2) 0.3890(3)
O64_2 O 0.7132(3) 0.0445(2) 0.4758(2)
N11_2 N 0.6686(3) 0.1187(2) 0.3649(3)
C91_2 C 0.7400(4) 0.0847(4) 0.4391(3)
C92_2 C 0.7089(4) 0.1308(4) 0.4137(3)
C93_2 C 0.7422(5) 0.0538(3) 0.4610(3)
O65_2 O 0.8012(3) 0.1607(3) 0.3626(2)
C94_2 C 0.7107(4) 0.1022(3) 0.4363(3)
H31_2 H 0.691125 0.095580 0.449282
C95_2 C 0.6602(4) 0.1429(5) 0.3841(3)
C96_2 C 0.7682(4) 0.1241(4) 0.4024(3)
C97_2 C 0.7400(4) 0.1423(4) 0.3985(3)
H32_2 H 0.740475 0.162995 0.385512
C98_2 C 0.7692(3) 0.0950(3) 0.4232(3)
H33_2 H 0.789970 0.082507 0.426109
C99_2 C 0.8007(4) 0.1352(4) 0.3831(4)
O66_2 O 0.5386(2) 0.0324(2) 0.2304(2)
O67_2 O 0.6520(2) 0.0884(2) 0.3186(2)
O68_2 O 0.6172(2) 0.1110(3) 0.17196(18)
O69_2 O 0.5445(2) 0.0242(2) 0.2868(3)
N12_2 N 0.6187(2) 0.1351(3) 0.3314(3)
C100_2 C 0.5847(4) 0.0609(3) 0.2600(4)
C101_2 C 0.6308(4) 0.0863(3) 0.2911(4)
C102_2 C 0.5538(3) 0.0390(3) 0.2578(5)
O70_2 O 0.6607(3) 0.1374(2) 0.1988(3)
C103_2 C 0.6022(3) 0.0637(3) 0.2893(4)
H34_2 H 0.595580 0.050718 0.308875
C104_2 C 0.6429(5) 0.1159(3) 0.3398(4)
C105_2 C 0.6241(4) 0.0976(3) 0.2318(4)
C106_2 C 0.6423(4) 0.1015(3) 0.2600(4)
H35_2 H 0.662995 0.114488 0.259525
C107_2 C 0.5950(3) 0.0768(3) 0.2308(3)
H36_2 H 0.582507 0.073891 0.210030
C108_2 C 0.6352(4) 0.1169(4) 0.1993(4)
O74_2 O 0.6669(11) 0.2966(10) 0.2762(8)
O75_2 O 0.7034(10) 0.2762(8) 0.3331(11)
Zn11_3 Zn 0.500000 0.000000 0.78043(7)
O77_7 O 0.500000 -0.000000 0.8315(5)
Zn12_3 Zn 0.500000 0.000000 0.70301(7)
O78_7 O 0.500000 0.000000 0.6523(4)
Zn13_3 Zn 0.78043(7) 0.000000 0.500000
O79_3 O 0.8315(5) 0.000000 0.500000
Zn14_3 Zn 0.70301(7) 0.000000 0.500000
O80_3 O 0.6523(4) 0.000000 0.500000
O81_2 O 0.3331(11) 0.2762(8) 0.2966(10)
O82_2 O 0.2762(8) 0.2966(10) 0.3331(11)
Zn15_3 Zn 0.500000 -0.000000 0.21957(7)
Zn16_3 Zn 0.21957(7) 0.000000 0.500000
Zn17_3 Zn 0.500000 0.000000 0.29699(7)
Zn18_3 Zn 0.29699(7) 0.000000 0.500000
Zn20_2 Zn 0.62578(3) 0.12578(3) 0.12578(3)
Zn21_2 Zn 0.37422(3) 0.12578(3) 0.12578(3)
Zn23_2 Zn 0.12578(3) 0.12578(3) 0.37422(3)
Zn24_2 Zn 0.12578(3) 0.12578(3) 0.62578(3)
Zn25_2 Zn 0.87422(3) 0.12578(3) 0.62578(3)
Zn26_2 Zn 0.87422(3) 0.12578(3) 0.37422(3)
Zn28_2 Zn 0.67825(4) 0.17825(4) 0.17825(4)
Zn29_2 Zn 0.32175(4) 0.17825(4) 0.17825(4)
Zn31_2 Zn 0.17825(4) 0.17825(4) 0.32175(4)
Zn32_2 Zn 0.17825(4) 0.17825(4) 0.67825(4)
Zn33_2 Zn 0.82175(4) 0.17825(4) 0.67825(4)
Zn34_2 Zn 0.82175(4) 0.17825(4) 0.32175(4)
O87_2 O 0.6172(2) 0.3890(3) 0.32804(18)
O91_2 O 0.3890(3) 0.3828(2) 0.32804(18)
O92_2 O 0.32804(18) 0.3890(3) 0.3828(2)
O94_2 O 0.67196(18) 0.3828(2) 0.3890(3)
O99_2 O 0.6607(3) 0.3626(2) 0.3012(3)
O103_2 O 0.3626(2) 0.3393(3) 0.3012(3)
O104_2 O 0.3012(3) 0.3626(2) 0.3393(3)
O106_2 O 0.6988(3) 0.3393(3) 0.3626(2)
Zn11_4 Zn 0.500000 1.000000 0.78043(7)
O77_8 O 0.500000 1.000000 0.8315(5)
Zn12_4 Zn 0.500000 1.000000 0.70301(7)
O78_8 O 0.500000 1.000000 0.6523(4)
Zn13_4 Zn 0.78043(7) 1.000000 0.500000
O79_4 O 0.8315(5) 1.000000 0.500000
Zn14_4 Zn 0.70301(7) 1.000000 0.500000
O80_4 O 0.6523(4) 1.000000 0.500000
Zn15_4 Zn 0.500000 1.000000 0.21957(7)
Zn16_4 Zn 0.21957(7) 1.000000 0.500000
Zn17_4 Zn 0.500000 1.000000 0.29699(7)
Zn18_4 Zn 0.29699(7) 1.000000 0.500000
O83_4 O 0.5386(2) 0.9676(2) 0.7696(2)
O84_4 O 0.4676(2) 0.9614(2) 0.7696(2)
O85_2 O 0.7696(2) 0.9614(2) 0.5324(2)
O86_2 O 0.7696(2) 0.9676(2) 0.4614(2)
O95_4 O 0.5445(2) 0.9758(2) 0.7132(3)
O96_4 O 0.4758(2) 0.9555(2) 0.7132(3)
O97_2 O 0.7132(3) 0.9555(2) 0.5242(2)
O98_2 O 0.7132(3) 0.9758(2) 0.4555(2)
Zn1_3 Zn 0.500000 0.500000 0.28043(7)
Zn2_3 Zn 0.500000 0.500000 0.20301(7)
O1_3 O 0.5386(2) 0.4676(2) 0.2696(2)
O2_3 O 0.500000 0.500000 0.3315(5)
O3_3 O 0.6520(2) 0.4116(2) 0.1814(2)
O5_3 O 0.5445(2) 0.4758(2) 0.2132(3)
N1_3 N 0.6187(2) 0.3649(3) 0.1686(3)
O6_3 O 0.500000 0.500000 0.1523(4)
C1_3 C 0.5847(4) 0.4391(3) 0.2400(4)
C2_3 C 0.6308(4) 0.4137(3) 0.2089(4)
C3_3 C 0.5538(3) 0.4610(3) 0.2422(5)
C4_3 C 0.6022(3) 0.4363(3) 0.2107(4)
H1_3 H 0.595580 0.449282 0.191125
C5_3 C 0.6429(5) 0.3841(3) 0.1602(4)
C6_3 C 0.6241(4) 0.4024(3) 0.2682(4)
C7_3 C 0.6423(4) 0.3985(3) 0.2400(4)
H2_3 H 0.662995 0.385512 0.240475
C8_3 C 0.5950(3) 0.4232(3) 0.2692(3)
H3_3 H 0.582507 0.426109 0.289970
C9_3 C 0.6352(4) 0.3831(4) 0.3007(4)
O11_3 O 0.5884(2) 0.3186(2) 0.1520(2)
O12_3 O 0.6110(3) 0.17196(18) 0.1172(2)
N2_3 N 0.6351(3) 0.3314(3) 0.1187(2)
C10_3 C 0.5609(3) 0.2600(4) 0.0847(4)
C11_3 C 0.5863(3) 0.2911(4) 0.1308(4)
C12_3 C 0.5390(3) 0.2578(5) 0.0538(3)
O14_3 O 0.6374(2) 0.1988(3) 0.1607(3)
C13_3 C 0.5637(3) 0.2893(4) 0.1022(3)
H4_3 H 0.550718 0.308875 0.095580
C14_3 C 0.6159(3) 0.3398(4) 0.1429(5)
C15_3 C 0.5976(3) 0.2318(4) 0.1241(4)
C16_3 C 0.6015(3) 0.2600(4) 0.1423(4)
H5_3 H 0.614488 0.259525 0.162995
C17_3 C 0.5768(3) 0.2308(3) 0.0950(3)
H6_3 H 0.573891 0.210030 0.082507
C18_3 C 0.6169(4) 0.1993(4) 0.1352(4)
O16_3 O 0.6814(2) 0.3480(2) 0.0884(2)
O17_3 O 0.82804(18) 0.3828(2) 0.1110(3)
N3_3 N 0.6686(3) 0.3813(2) 0.1351(3)
C19_3 C 0.7400(4) 0.4153(4) 0.0609(3)
C20_3 C 0.7089(4) 0.3692(4) 0.0863(3)
C21_3 C 0.7422(5) 0.4462(3) 0.0390(3)
O19_3 O 0.8012(3) 0.3393(3) 0.1374(2)
C22_3 C 0.7107(4) 0.3978(3) 0.0637(3)
H7_3 H 0.691125 0.404420 0.050718
C23_3 C 0.6602(4) 0.3571(5) 0.1159(3)
C24_3 C 0.7682(4) 0.3759(4) 0.0976(3)
C25_3 C 0.7400(4) 0.3577(4) 0.1015(3)
H8_3 H 0.740475 0.337005 0.114488
C26_3 C 0.7692(3) 0.4050(3) 0.0768(3)
H9_3 H 0.789970 0.417493 0.073891
C27_3 C 0.8007(4) 0.3648(4) 0.1169(4)
O20_3 O 0.4676(2) 0.4614(2) 0.2696(2)
O21_3 O 0.4116(2) 0.3480(2) 0.1814(2)
O23_3 O 0.4758(2) 0.4555(2) 0.2132(3)
N4_3 N 0.3649(3) 0.3813(2) 0.1686(3)
C28_3 C 0.4391(3) 0.4153(4) 0.2400(4)
C29_3 C 0.4137(3) 0.3692(4) 0.2089(4)
C30_3 C 0.4610(3) 0.4462(3) 0.2422(5)
C31_3 C 0.4363(3) 0.3978(3) 0.2107(4)
H10_3 H 0.449282 0.404420 0.191125
C32_3 C 0.3841(3) 0.3571(5) 0.1602(4)
C33_3 C 0.4024(3) 0.3759(4) 0.2682(4)
C34_3 C 0.3985(3) 0.3577(4) 0.2400(4)
H11_3 H 0.385512 0.337005 0.240475
C35_3 C 0.4232(3) 0.4050(3) 0.2692(3)
H12_3 H 0.426109 0.417493 0.289970
C36_3 C 0.3831(4) 0.3648(4) 0.3007(4)
O28_3 O 0.3186(2) 0.4116(2) 0.1520(2)
O29_3 O 0.17196(18) 0.3890(3) 0.1172(2)
N5_3 N 0.3314(3) 0.3649(3) 0.1187(2)
C37_3 C 0.2600(4) 0.4391(3) 0.0847(4)
C38_3 C 0.2911(4) 0.4137(3) 0.1308(4)
C39_3 C 0.2578(5) 0.4610(3) 0.0538(3)
O31_3 O 0.1988(3) 0.3626(2) 0.1607(3)
C40_3 C 0.2893(4) 0.4363(3) 0.1022(3)
H13_3 H 0.308875 0.449282 0.095580
C41_3 C 0.3398(4) 0.3841(3) 0.1429(5)
C42_3 C 0.2318(4) 0.4024(3) 0.1241(4)
C43_3 C 0.2600(4) 0.3985(3) 0.1423(4)
H14_3 H 0.259525 0.385512 0.162995
C44_3 C 0.2308(3) 0.4232(3) 0.0950(3)
H15_3 H 0.210030 0.426109 0.082507
C45_3 C 0.1993(4) 0.3831(4) 0.1352(4)
O33_3 O 0.3480(2) 0.3186(2) 0.0884(2)
O34_3 O 0.3828(2) 0.17196(18) 0.1110(3)
N6_3 N 0.3813(2) 0.3314(3) 0.1351(3)
C46_3 C 0.4153(4) 0.2600(4) 0.0609(3)
C47_3 C 0.3692(4) 0.2911(4) 0.0863(3)
C48_3 C 0.4462(3) 0.2578(5) 0.0390(3)
O36_3 O 0.3393(3) 0.1988(3) 0.1374(2)
C49_3 C 0.3978(3) 0.2893(4) 0.0637(3)
H16_3 H 0.404420 0.308875 0.050718
C50_3 C 0.3571(5) 0.3398(4) 0.1159(3)
C51_3 C 0.3759(4) 0.2318(4) 0.0976(3)
C52_3 C 0.3577(4) 0.2600(4) 0.1015(3)
H17_3 H 0.337005 0.259525 0.114488
C53_3 C 0.4050(3) 0.2308(3) 0.0768(3)
H18_3 H 0.417493 0.210030 0.073891
C54_3 C 0.3648(4) 0.1993(4) 0.1169(4)
Zn7_3 Zn 0.37422(3) 0.62578(3) 0.37422(3)
Zn8_3 Zn 0.32175(4) 0.67825(4) 0.32175(4)
O37_3 O 0.4614(2) 0.5324(2) 0.2696(2)
O38_3 O 0.3480(2) 0.5884(2) 0.1814(2)
O39_3 O 0.3828(2) 0.6110(3) 0.32804(18)
O40_3 O 0.4555(2) 0.5242(2) 0.2132(3)
N7_3 N 0.3813(2) 0.6351(3) 0.1686(3)
C55_3 C 0.4153(4) 0.5609(3) 0.2400(4)
C56_3 C 0.3692(4) 0.5863(3) 0.2089(4)
C57_3 C 0.4462(3) 0.5390(3) 0.2422(5)
O41_3 O 0.3393(3) 0.6374(2) 0.3012(3)
C58_3 C 0.3978(3) 0.5637(3) 0.2107(4)
H19_3 H 0.404420 0.550718 0.191125
C59_3 C 0.3571(5) 0.6159(3) 0.1602(4)
C60_3 C 0.3759(4) 0.5976(3) 0.2682(4)
C61_3 C 0.3577(4) 0.6015(3) 0.2400(4)
H20_3 H 0.337005 0.614488 0.240475
C62_3 C 0.4050(3) 0.5768(3) 0.2692(3)
H21_3 H 0.417493 0.573891 0.289970
C63_3 C 0.3648(4) 0.6169(4) 0.3007(4)
O42_3 O 0.4051(3) 0.5949(3) 0.4051(3)
O43_3 O 0.2966(10) 0.7238(8) 0.3331(11)
O45_3 O 0.4116(2) 0.6814(2) 0.1520(2)
O46_3 O 0.3890(3) 0.82804(18) 0.1172(2)
N8_3 N 0.3649(3) 0.6686(3) 0.1187(2)
C64_3 C 0.4391(3) 0.7400(4) 0.0847(4)
C65_3 C 0.4137(3) 0.7089(4) 0.1308(4)
C66_3 C 0.4610(3) 0.7422(5) 0.0538(3)
O48_3 O 0.3626(2) 0.8012(3) 0.1607(3)
C67_3 C 0.4363(3) 0.7107(4) 0.1022(3)
H22_3 H 0.449282 0.691125 0.095580
C68_3 C 0.3841(3) 0.6602(4) 0.1429(5)
C69_3 C 0.4024(3) 0.7682(4) 0.1241(4)
C70_3 C 0.3985(3) 0.7400(4) 0.1423(4)
H23_3 H 0.385512 0.740475 0.162995
C71_3 C 0.4232(3) 0.7692(3) 0.0950(3)
H24_3 H 0.426109 0.789970 0.082507
C72_3 C 0.3831(4) 0.8007(4) 0.1352(4)
O50_3 O 0.3186(2) 0.6520(2) 0.0884(2)
O51_3 O 0.17196(18) 0.6172(2) 0.1110(3)
N9_3 N 0.3314(3) 0.6187(2) 0.1351(3)
C73_3 C 0.2600(4) 0.5847(4) 0.0609(3)
C74_3 C 0.2911(4) 0.6308(4) 0.0863(3)
C75_3 C 0.2578(5) 0.5538(3) 0.0390(3)
O53_3 O 0.1988(3) 0.6607(3) 0.1374(2)
C76_3 C 0.2893(4) 0.6022(3) 0.0637(3)
H25_3 H 0.308875 0.595580 0.050718
C77_3 C 0.3398(4) 0.6429(5) 0.1159(3)
C78_3 C 0.2318(4) 0.6241(4) 0.0976(3)
C79_3 C 0.2600(4) 0.6423(4) 0.1015(3)
H26_3 H 0.259525 0.662995 0.114488
C80_3 C 0.2308(3) 0.5950(3) 0.0768(3)
H27_3 H 0.210030 0.582507 0.073891
C81_3 C 0.1993(4) 0.6352(4) 0.1169(4)
Zn9_3 Zn 0.62578(3) 0.62578(3) 0.37422(3)
Zn10_3 Zn 0.67825(4) 0.67825(4) 0.32175(4)
O54_3 O 0.5324(2) 0.5386(2) 0.2696(2)
O55_3 O 0.5884(2) 0.6520(2) 0.1814(2)
O56_3 O 0.6110(3) 0.6172(2) 0.32804(18)
O57_3 O 0.5242(2) 0.5445(2) 0.2132(3)
N10_3 N 0.6351(3) 0.6187(2) 0.1686(3)
C82_3 C 0.5609(3) 0.5847(4) 0.2400(4)
C83_3 C 0.5863(3) 0.6308(4) 0.2089(4)
C84_3 C 0.5390(3) 0.5538(3) 0.2422(5)
O58_3 O 0.6374(2) 0.6607(3) 0.3012(3)
C85_3 C 0.5637(3) 0.6022(3) 0.2107(4)
H28_3 H 0.550718 0.595580 0.191125
C86_3 C 0.6159(3) 0.6429(5) 0.1602(4)
C87_3 C 0.5976(3) 0.6241(4) 0.2682(4)
C88_3 C 0.6015(3) 0.6423(4) 0.2400(4)
H29_3 H 0.614488 0.662995 0.240475
C89_3 C 0.5768(3) 0.5950(3) 0.2692(3)
H30_3 H 0.573891 0.582507 0.289970
C90_3 C 0.6169(4) 0.6352(4) 0.3007(4)
O59_3 O 0.5949(3) 0.5949(3) 0.4051(3)
O60_3 O 0.7238(8) 0.7034(10) 0.3331(11)
O62_3 O 0.6814(2) 0.5884(2) 0.1520(2)
O63_3 O 0.82804(18) 0.6110(3) 0.1172(2)
N11_3 N 0.6686(3) 0.6351(3) 0.1187(2)
C91_3 C 0.7400(4) 0.5609(3) 0.0847(4)
C92_3 C 0.7089(4) 0.5863(3) 0.1308(4)
C93_3 C 0.7422(5) 0.5390(3) 0.0538(3)
O65_3 O 0.8012(3) 0.6374(2) 0.1607(3)
C94_3 C 0.7107(4) 0.5637(3) 0.1022(3)
H31_3 H 0.691125 0.550718 0.095580
C95_3 C 0.6602(4) 0.6159(3) 0.1429(5)
C96_3 C 0.7682(4) 0.5976(3) 0.1241(4)
C97_3 C 0.7400(4) 0.6015(3) 0.1423(4)
H32_3 H 0.740475 0.614488 0.162995
C98_3 C 0.7692(3) 0.5768(3) 0.0950(3)
H33_3 H 0.789970 0.573891 0.082507
C99_3 C 0.8007(4) 0.6169(4) 0.1352(4)
O67_3 O 0.6520(2) 0.6814(2) 0.0884(2)
O68_3 O 0.6172(2) 0.82804(18) 0.1110(3)
N12_3 N 0.6187(2) 0.6686(3) 0.1351(3)
C100_3 C 0.5847(4) 0.7400(4) 0.0609(3)
C101_3 C 0.6308(4) 0.7089(4) 0.0863(3)
C102_3 C 0.5538(3) 0.7422(5) 0.0390(3)
O70_3 O 0.6607(3) 0.8012(3) 0.1374(2)
C103_3 C 0.6022(3) 0.7107(4) 0.0637(3)
H34_3 H 0.595580 0.691125 0.050718
C104_3 C 0.6429(5) 0.6602(4) 0.1159(3)
C105_3 C 0.6241(4) 0.7682(4) 0.0976(3)
C106_3 C 0.6423(4) 0.7400(4) 0.1015(3)
H35_3 H 0.662995 0.740475 0.114488
C107_3 C 0.5950(3) 0.7692(3) 0.0768(3)
H36_3 H 0.582507 0.789970 0.073891
C108_3 C 0.6352(4) 0.8007(4) 0.1169(4)
O74_3 O 0.6669(11) 0.7238(8) 0.2966(10)
O75_3 O 0.7034(10) 0.6669(11) 0.2762(8)
O81_3 O 0.3331(11) 0.7034(10) 0.2762(8)
O82_3 O 0.2762(8) 0.6669(11) 0.2966(10)
Zn20_3 Zn 0.62578(3) 0.87422(3) 0.12578(3)
Zn21_3 Zn 0.37422(3) 0.87422(3) 0.12578(3)
Zn23_3 Zn 0.12578(3) 0.62578(3) 0.12578(3)
Zn24_3 Zn 0.12578(3) 0.37422(3) 0.12578(3)
Zn25_3 Zn 0.87422(3) 0.37422(3) 0.12578(3)
Zn26_3 Zn 0.87422(3) 0.62578(3) 0.12578(3)
Zn28_3 Zn 0.67825(4) 0.82175(4) 0.17825(4)
Zn29_3 Zn 0.32175(4) 0.82175(4) 0.17825(4)
Zn31_3 Zn 0.17825(4) 0.67825(4) 0.17825(4)
Zn32_3 Zn 0.17825(4) 0.32175(4) 0.17825(4)
Zn33_3 Zn 0.82175(4) 0.32175(4) 0.17825(4)
Zn34_3 Zn 0.82175(4) 0.67825(4) 0.17825(4)
O87_3 O 0.6172(2) 0.67196(18) 0.3890(3)
O91_3 O 0.3890(3) 0.67196(18) 0.3828(2)
O92_3 O 0.32804(18) 0.6172(2) 0.3890(3)
O94_3 O 0.67196(18) 0.6110(3) 0.3828(2)
O99_3 O 0.6607(3) 0.6988(3) 0.3626(2)
O103_3 O 0.3626(2) 0.6988(3) 0.3393(3)
O104_3 O 0.3012(3) 0.6607(3) 0.3626(2)
O106_3 O 0.6988(3) 0.6374(2) 0.3393(3)
O77_9 O 0.500000 0.000000 0.1685(5)
O78_9 O 0.500000 0.000000 0.3477(4)
Zn1_4 Zn 0.500000 0.71957(7) 0.500000
Zn2_4 Zn 0.500000 0.79699(7) 0.500000
O1_4 O 0.5386(2) 0.7304(2) 0.4676(2)
O2_4 O 0.500000 0.6685(5) 0.500000
O3_4 O 0.6520(2) 0.8186(2) 0.4116(2)
O5_4 O 0.5445(2) 0.7868(3) 0.4758(2)
N1_4 N 0.6187(2) 0.8314(3) 0.3649(3)
O6_4 O 0.500000 0.8477(4) 0.500000
C1_4 C 0.5847(4) 0.7600(4) 0.4391(3)
C2_4 C 0.6308(4) 0.7911(4) 0.4137(3)
C3_4 C 0.5538(3) 0.7578(5) 0.4610(3)
C4_4 C 0.6022(3) 0.7893(4) 0.4363(3)
H1_4 H 0.595580 0.808875 0.449282
C5_4 C 0.6429(5) 0.8398(4) 0.3841(3)
C6_4 C 0.6241(4) 0.7318(4) 0.4024(3)
C7_4 C 0.6423(4) 0.7600(4) 0.3985(3)
H2_4 H 0.662995 0.759525 0.385512
C8_4 C 0.5950(3) 0.7308(3) 0.4232(3)
H3_4 H 0.582507 0.710030 0.426109
C9_4 C 0.6352(4) 0.6993(4) 0.3831(4)
O10_3 O 0.5324(2) 0.9614(2) 0.2304(2)
O11_4 O 0.5884(2) 0.8480(2) 0.3186(2)
O12_4 O 0.6110(3) 0.8828(2) 0.17196(18)
O13_3 O 0.5242(2) 0.9555(2) 0.2868(3)
N2_4 N 0.6351(3) 0.8813(2) 0.3314(3)
C10_4 C 0.5609(3) 0.9153(4) 0.2600(4)
C11_4 C 0.5863(3) 0.8692(4) 0.2911(4)
C12_4 C 0.5390(3) 0.9462(3) 0.2578(5)
O14_4 O 0.6374(2) 0.8393(3) 0.1988(3)
C13_4 C 0.5637(3) 0.8978(3) 0.2893(4)
H4_4 H 0.550718 0.904420 0.308875
C14_4 C 0.6159(3) 0.8571(5) 0.3398(4)
C15_4 C 0.5976(3) 0.8759(4) 0.2318(4)
C16_4 C 0.6015(3) 0.8577(4) 0.2600(4)
H5_4 H 0.614488 0.837005 0.259525
C17_4 C 0.5768(3) 0.9050(3) 0.2308(3)
H6_4 H 0.573891 0.917493 0.210030
C18_4 C 0.6169(4) 0.8648(4) 0.1993(4)
O16_4 O 0.6814(2) 0.9116(2) 0.3480(2)
O17_4 O 0.82804(18) 0.8890(3) 0.3828(2)
N3_4 N 0.6686(3) 0.8649(3) 0.3813(2)
C19_4 C 0.7400(4) 0.9391(3) 0.4153(4)
C20_4 C 0.7089(4) 0.9137(3) 0.3692(4)
C21_4 C 0.7422(5) 0.9610(3) 0.4462(3)
O19_4 O 0.8012(3) 0.8626(2) 0.3393(3)
C22_4 C 0.7107(4) 0.9363(3) 0.3978(3)
H7_4 H 0.691125 0.949282 0.404420
C23_4 C 0.6602(4) 0.8841(3) 0.3571(5)
C24_4 C 0.7682(4) 0.9024(3) 0.3759(4)
C25_4 C 0.7400(4) 0.8985(3) 0.3577(4)
H8_4 H 0.740475 0.885512 0.337005
C26_4 C 0.7692(3) 0.9232(3) 0.4050(3)
H9_4 H 0.789970 0.926109 0.417493
C27_4 C 0.8007(4) 0.8831(4) 0.3648(4)
O20_4 O 0.4676(2) 0.7304(2) 0.4614(2)
O21_4 O 0.4116(2) 0.8186(2) 0.3480(2)
O23_4 O 0.4758(2) 0.7868(3) 0.4555(2)
N4_4 N 0.3649(3) 0.8314(3) 0.3813(2)
C28_4 C 0.4391(3) 0.7600(4) 0.4153(4)
C29_4 C 0.4137(3) 0.7911(4) 0.3692(4)
C30_4 C 0.4610(3) 0.7578(5) 0.4462(3)
C31_4 C 0.4363(3) 0.7893(4) 0.3978(3)
H10_4 H 0.449282 0.808875 0.404420
C32_4 C 0.3841(3) 0.8398(4) 0.3571(5)
C33_4 C 0.4024(3) 0.7318(4) 0.3759(4)
C34_4 C 0.3985(3) 0.7600(4) 0.3577(4)
H11_4 H 0.385512 0.759525 0.337005
C35_4 C 0.4232(3) 0.7308(3) 0.4050(3)
H12_4 H 0.426109 0.710030 0.417493
C36_4 C 0.3831(4) 0.6993(4) 0.3648(4)
O27_3 O 0.2304(2) 0.9614(2) 0.4676(2)
O28_4 O 0.3186(2) 0.8480(2) 0.4116(2)
O29_4 O 0.17196(18) 0.8828(2) 0.3890(3)
O30_3 O 0.2868(3) 0.9555(2) 0.4758(2)
N5_4 N 0.3314(3) 0.8813(2) 0.3649(3)
C37_4 C 0.2600(4) 0.9153(4) 0.4391(3)
C38_4 C 0.2911(4) 0.8692(4) 0.4137(3)
C39_4 C 0.2578(5) 0.9462(3) 0.4610(3)
O31_4 O 0.1988(3) 0.8393(3) 0.3626(2)
C40_4 C 0.2893(4) 0.8978(3) 0.4363(3)
H13_4 H 0.308875 0.904420 0.449282
C41_4 C 0.3398(4) 0.8571(5) 0.3841(3)
C42_4 C 0.2318(4) 0.8759(4) 0.4024(3)
C43_4 C 0.2600(4) 0.8577(4) 0.3985(3)
H14_4 H 0.259525 0.837005 0.385512
C44_4 C 0.2308(3) 0.9050(3) 0.4232(3)
H15_4 H 0.210030 0.917493 0.426109
C45_4 C 0.1993(4) 0.8648(4) 0.3831(4)
O32_3 O 0.4614(2) 0.9676(2) 0.2304(2)
O33_4 O 0.3480(2) 0.9116(2) 0.3186(2)
O34_4 O 0.3828(2) 0.8890(3) 0.17196(18)
O35_3 O 0.4555(2) 0.9758(2) 0.2868(3)
N6_4 N 0.3813(2) 0.8649(3) 0.3314(3)
C46_4 C 0.4153(4) 0.9391(3) 0.2600(4)
C47_4 C 0.3692(4) 0.9137(3) 0.2911(4)
C48_4 C 0.4462(3) 0.9610(3) 0.2578(5)
O36_4 O 0.3393(3) 0.8626(2) 0.1988(3)
C49_4 C 0.3978(3) 0.9363(3) 0.2893(4)
H16_4 H 0.404420 0.949282 0.308875
C50_4 C 0.3571(5) 0.8841(3) 0.3398(4)
C51_4 C 0.3759(4) 0.9024(3) 0.2318(4)
C52_4 C 0.3577(4) 0.8985(3) 0.2600(4)
H17_4 H 0.337005 0.885512 0.259525
C53_4 C 0.4050(3) 0.9232(3) 0.2308(3)
H18_4 H 0.417493 0.926109 0.210030
C54_4 C 0.3648(4) 0.8831(4) 0.1993(4)
O37_4 O 0.4614(2) 0.7304(2) 0.5324(2)
O38_4 O 0.3480(2) 0.8186(2) 0.5884(2)
O40_4 O 0.4555(2) 0.7868(3) 0.5242(2)
N7_4 N 0.3813(2) 0.8314(3) 0.6351(3)
C55_4 C 0.4153(4) 0.7600(4) 0.5609(3)
C56_4 C 0.3692(4) 0.7911(4) 0.5863(3)
C57_4 C 0.4462(3) 0.7578(5) 0.5390(3)
C58_4 C 0.3978(3) 0.7893(4) 0.5637(3)
H19_4 H 0.404420 0.808875 0.550718
C59_4 C 0.3571(5) 0.8398(4) 0.6159(3)
C60_4 C 0.3759(4) 0.7318(4) 0.5976(3)
C61_4 C 0.3577(4) 0.7600(4) 0.6015(3)
H20_4 H 0.337005 0.759525 0.614488
C62_4 C 0.4050(3) 0.7308(3) 0.5768(3)
H21_4 H 0.417493 0.710030 0.573891
C63_4 C 0.3648(4) 0.6993(4) 0.6169(4)
O45_4 O 0.4116(2) 0.8480(2) 0.6814(2)
O46_4 O 0.3890(3) 0.8828(2) 0.82804(18)
N8_4 N 0.3649(3) 0.8813(2) 0.6686(3)
C64_4 C 0.4391(3) 0.9153(4) 0.7400(4)
C65_4 C 0.4137(3) 0.8692(4) 0.7089(4)
C66_4 C 0.4610(3) 0.9462(3) 0.7422(5)
O48_4 O 0.3626(2) 0.8393(3) 0.8012(3)
C67_4 C 0.4363(3) 0.8978(3) 0.7107(4)
H22_4 H 0.449282 0.904420 0.691125
C68_4 C 0.3841(3) 0.8571(5) 0.6602(4)
C69_4 C 0.4024(3) 0.8759(4) 0.7682(4)
C70_4 C 0.3985(3) 0.8577(4) 0.7400(4)
H23_4 H 0.385512 0.837005 0.740475
C71_4 C 0.4232(3) 0.9050(3) 0.7692(3)
H24_4 H 0.426109 0.917493 0.789970
C72_4 C 0.3831(4) 0.8648(4) 0.8007(4)
O49_3 O 0.2304(2) 0.9676(2) 0.5386(2)
O50_4 O 0.3186(2) 0.9116(2) 0.6520(2)
O51_4 O 0.17196(18) 0.8890(3) 0.6172(2)
O52_3 O 0.2868(3) 0.9758(2) 0.5445(2)
N9_4 N 0.3314(3) 0.8649(3) 0.6187(2)
C73_4 C 0.2600(4) 0.9391(3) 0.5847(4)
C74_4 C 0.2911(4) 0.9137(3) 0.6308(4)
C75_4 C 0.2578(5) 0.9610(3) 0.5538(3)
O53_4 O 0.1988(3) 0.8626(2) 0.6607(3)
C76_4 C 0.2893(4) 0.9363(3) 0.6022(3)
H25_4 H 0.308875 0.949282 0.595580
C77_4 C 0.3398(4) 0.8841(3) 0.6429(5)
C78_4 C 0.2318(4) 0.9024(3) 0.6241(4)
C79_4 C 0.2600(4) 0.8985(3) 0.6423(4)
H26_4 H 0.259525 0.885512 0.662995
C80_4 C 0.2308(3) 0.9232(3) 0.5950(3)
H27_4 H 0.210030 0.926109 0.582507
C81_4 C 0.1993(4) 0.8831(4) 0.6352(4)
O54_4 O 0.5324(2) 0.7304(2) 0.5386(2)
O55_4 O 0.5884(2) 0.8186(2) 0.6520(2)
O57_4 O 0.5242(2) 0.7868(3) 0.5445(2)
N10_4 N 0.6351(3) 0.8314(3) 0.6187(2)
C82_4 C 0.5609(3) 0.7600(4) 0.5847(4)
C83_4 C 0.5863(3) 0.7911(4) 0.6308(4)
C84_4 C 0.5390(3) 0.7578(5) 0.5538(3)
C85_4 C 0.5637(3) 0.7893(4) 0.6022(3)
H28_4 H 0.550718 0.808875 0.595580
C86_4 C 0.6159(3) 0.8398(4) 0.6429(5)
C87_4 C 0.5976(3) 0.7318(4) 0.6241(4)
C88_4 C 0.6015(3) 0.7600(4) 0.6423(4)
H29_4 H 0.614488 0.759525 0.662995
C89_4 C 0.5768(3) 0.7308(3) 0.5950(3)
H30_4 H 0.573891 0.710030 0.582507
C90_4 C 0.6169(4) 0.6993(4) 0.6352(4)
O62_4 O 0.6814(2) 0.8480(2) 0.5884(2)
O63_4 O 0.82804(18) 0.8828(2) 0.6110(3)
N11_4 N 0.6686(3) 0.8813(2) 0.6351(3)
C91_4 C 0.7400(4) 0.9153(4) 0.5609(3)
C92_4 C 0.7089(4) 0.8692(4) 0.5863(3)
C93_4 C 0.7422(5) 0.9462(3) 0.5390(3)
O65_4 O 0.8012(3) 0.8393(3) 0.6374(2)
C94_4 C 0.7107(4) 0.8978(3) 0.5637(3)
H31_4 H 0.691125 0.904420 0.550718
C95_4 C 0.6602(4) 0.8571(5) 0.6159(3)
C96_4 C 0.7682(4) 0.8759(4) 0.5976(3)
C97_4 C 0.7400(4) 0.8577(4) 0.6015(3)
H32_4 H 0.740475 0.837005 0.614488
C98_4 C 0.7692(3) 0.9050(3) 0.5768(3)
H33_4 H 0.789970 0.917493 0.573891
C99_4 C 0.8007(4) 0.8648(4) 0.6169(4)
O67_4 O 0.6520(2) 0.9116(2) 0.6814(2)
O68_4 O 0.6172(2) 0.8890(3) 0.82804(18)
N12_4 N 0.6187(2) 0.8649(3) 0.6686(3)
C100_4 C 0.5847(4) 0.9391(3) 0.7400(4)
C101_4 C 0.6308(4) 0.9137(3) 0.7089(4)
C102_4 C 0.5538(3) 0.9610(3) 0.7422(5)
O70_4 O 0.6607(3) 0.8626(2) 0.8012(3)
C103_4 C 0.6022(3) 0.9363(3) 0.7107(4)
H34_4 H 0.595580 0.949282 0.691125
C104_4 C 0.6429(5) 0.8841(3) 0.6602(4)
C105_4 C 0.6241(4) 0.9024(3) 0.7682(4)
C106_4 C 0.6423(4) 0.8985(3) 0.7400(4)
H35_4 H 0.662995 0.885512 0.740475
C107_4 C 0.5950(3) 0.9232(3) 0.7692(3)
H36_4 H 0.582507 0.926109 0.789970
C108_4 C 0.6352(4) 0.8831(4) 0.8007(4)
O77_10 O 0.500000 1.000000 0.1685(5)
O78_10 O 0.500000 1.000000 0.3477(4)
Zn23_4 Zn 0.12578(3) 0.87422(3) 0.62578(3)
Zn24_4 Zn 0.12578(3) 0.87422(3) 0.37422(3)
Zn25_4 Zn 0.87422(3) 0.87422(3) 0.37422(3)
Zn26_4 Zn 0.87422(3) 0.87422(3) 0.62578(3)
Zn31_4 Zn 0.17825(4) 0.82175(4) 0.67825(4)
Zn32_4 Zn 0.17825(4) 0.82175(4) 0.32175(4)
Zn33_4 Zn 0.82175(4) 0.82175(4) 0.32175(4)
Zn34_4 Zn 0.82175(4) 0.82175(4) 0.67825(4)
Zn11_5 Zn 0.000000 0.78043(7) 0.500000
O77_11 O -0.000000 0.8315(5) 0.500000
Zn12_5 Zn 0.000000 0.70301(7) 0.500000
O78_11 O 0.000000 0.6523(4) 0.500000
Zn13_5 Zn 0.000000 0.500000 0.21957(7)
O79_5 O 0.000000 0.500000 0.1685(5)
Zn14_5 Zn 0.000000 0.500000 0.29699(7)
O80_5 O 0.000000 0.500000 0.3477(4)
Zn15_5 Zn 0.000000 0.21957(7) 0.500000
Zn16_5 Zn 0.000000 0.500000 0.78043(7)
Zn17_5 Zn 0.000000 0.29699(7) 0.500000
Zn18_5 Zn 0.000000 0.500000 0.70301(7)
O83_5 O 0.0324(2) 0.7696(2) 0.4614(2)
O84_5 O 0.0386(2) 0.7696(2) 0.5324(2)
O85_3 O 0.0386(2) 0.5324(2) 0.2304(2)
O86_3 O 0.0324(2) 0.4614(2) 0.2304(2)
O95_5 O 0.0242(2) 0.7132(3) 0.4555(2)
O96_5 O 0.0445(2) 0.7132(3) 0.5242(2)
O97_3 O 0.0445(2) 0.5242(2) 0.2868(3)
O98_3 O 0.0242(2) 0.4555(2) 0.2868(3)
Zn1_5 Zn 0.71957(7) 0.500000 0.500000
Zn2_5 Zn 0.79699(7) 0.500000 0.500000
O1_5 O 0.7304(2) 0.5324(2) 0.4614(2)
O2_5 O 0.6685(5) 0.500000 0.500000
O3_5 O 0.8186(2) 0.5884(2) 0.3480(2)
O5_5 O 0.7868(3) 0.5242(2) 0.4555(2)
N1_5 N 0.8314(3) 0.6351(3) 0.3813(2)
O6_5 O 0.8477(4) 0.500000 0.500000
C1_5 C 0.7600(4) 0.5609(3) 0.4153(4)
C2_5 C 0.7911(4) 0.5863(3) 0.3692(4)
C3_5 C 0.7578(5) 0.5390(3) 0.4462(3)
C4_5 C 0.7893(4) 0.5637(3) 0.3978(3)
H1_5 H 0.808875 0.550718 0.404420
C5_5 C 0.8398(4) 0.6159(3) 0.3571(5)
C6_5 C 0.7318(4) 0.5976(3) 0.3759(4)
C7_5 C 0.7600(4) 0.6015(3) 0.3577(4)
H2_5 H 0.759525 0.614488 0.337005
C8_5 C 0.7308(3) 0.5768(3) 0.4050(3)
H3_5 H 0.710030 0.573891 0.417493
C9_5 C 0.6993(4) 0.6169(4) 0.3648(4)
O10_4 O 0.9614(2) 0.7696(2) 0.4676(2)
O11_5 O 0.8480(2) 0.6814(2) 0.4116(2)
O12_5 O 0.8828(2) 0.82804(18) 0.3890(3)
O13_4 O 0.9555(2) 0.7132(3) 0.4758(2)
N2_5 N 0.8813(2) 0.6686(3) 0.3649(3)
C10_5 C 0.9153(4) 0.7400(4) 0.4391(3)
C11_5 C 0.8692(4) 0.7089(4) 0.4137(3)
C12_5 C 0.9462(3) 0.7422(5) 0.4610(3)
O14_5 O 0.8393(3) 0.8012(3) 0.3626(2)
C13_5 C 0.8978(3) 0.7107(4) 0.4363(3)
H4_5 H 0.904420 0.691125 0.449282
C14_5 C 0.8571(5) 0.6602(4) 0.3841(3)
C15_5 C 0.8759(4) 0.7682(4) 0.4024(3)
C16_5 C 0.8577(4) 0.7400(4) 0.3985(3)
H5_5 H 0.837005 0.740475 0.385512
C17_5 C 0.9050(3) 0.7692(3) 0.4232(3)
H6_5 H 0.917493 0.789970 0.426109
C18_5 C 0.8648(4) 0.8007(4) 0.3831(4)
O15_3 O 0.9676(2) 0.5386(2) 0.2304(2)
O16_5 O 0.9116(2) 0.6520(2) 0.3186(2)
O17_5 O 0.8890(3) 0.6172(2) 0.17196(18)
O18_3 O 0.9758(2) 0.5445(2) 0.2868(3)
N3_5 N 0.8649(3) 0.6187(2) 0.3314(3)
C19_5 C 0.9391(3) 0.5847(4) 0.2600(4)
C20_5 C 0.9137(3) 0.6308(4) 0.2911(4)
C21_5 C 0.9610(3) 0.5538(3) 0.2578(5)
O19_5 O 0.8626(2) 0.6607(3) 0.1988(3)
C22_5 C 0.9363(3) 0.6022(3) 0.2893(4)
H7_5 H 0.949282 0.595580 0.308875
C23_5 C 0.8841(3) 0.6429(5) 0.3398(4)
C24_5 C 0.9024(3) 0.6241(4) 0.2318(4)
C25_5 C 0.8985(3) 0.6423(4) 0.2600(4)
H8_5 H 0.885512 0.662995 0.259525
C26_5 C 0.9232(3) 0.5950(3) 0.2308(3)
H9_5 H 0.926109 0.582507 0.210030
C27_5 C 0.8831(4) 0.6352(4) 0.1993(4)
O20_5 O 0.7304(2) 0.5386(2) 0.5324(2)
O21_5 O 0.8186(2) 0.6520(2) 0.5884(2)
O23_5 O 0.7868(3) 0.5445(2) 0.5242(2)
N4_5 N 0.8314(3) 0.6187(2) 0.6351(3)
C28_5 C 0.7600(4) 0.5847(4) 0.5609(3)
C29_5 C 0.7911(4) 0.6308(4) 0.5863(3)
C30_5 C 0.7578(5) 0.5538(3) 0.5390(3)
C31_5 C 0.7893(4) 0.6022(3) 0.5637(3)
H10_5 H 0.808875 0.595580 0.550718
C32_5 C 0.8398(4) 0.6429(5) 0.6159(3)
C33_5 C 0.7318(4) 0.6241(4) 0.5976(3)
C34_5 C 0.7600(4) 0.6423(4) 0.6015(3)
H11_5 H 0.759525 0.662995 0.614488
C35_5 C 0.7308(3) 0.5950(3) 0.5768(3)
H12_5 H 0.710030 0.582507 0.573891
C36_5 C 0.6993(4) 0.6352(4) 0.6169(4)
O27_4 O 0.9614(2) 0.5324(2) 0.7696(2)
O28_5 O 0.8480(2) 0.5884(2) 0.6814(2)
O29_5 O 0.8828(2) 0.6110(3) 0.82804(18)
O30_4 O 0.9555(2) 0.5242(2) 0.7132(3)
N5_5 N 0.8813(2) 0.6351(3) 0.6686(3)
C37_5 C 0.9153(4) 0.5609(3) 0.7400(4)
C38_5 C 0.8692(4) 0.5863(3) 0.7089(4)
C39_5 C 0.9462(3) 0.5390(3) 0.7422(5)
O31_5 O 0.8393(3) 0.6374(2) 0.8012(3)
C40_5 C 0.8978(3) 0.5637(3) 0.7107(4)
H13_5 H 0.904420 0.550718 0.691125
C41_5 C 0.8571(5) 0.6159(3) 0.6602(4)
C42_5 C 0.8759(4) 0.5976(3) 0.7682(4)
C43_5 C 0.8577(4) 0.6015(3) 0.7400(4)
H14_5 H 0.837005 0.614488 0.740475
C44_5 C 0.9050(3) 0.5768(3) 0.7692(3)
H15_5 H 0.917493 0.573891 0.789970
C45_5 C 0.8648(4) 0.6169(4) 0.8007(4)
O32_4 O 0.9676(2) 0.7696(2) 0.5386(2)
O33_5 O 0.9116(2) 0.6814(2) 0.6520(2)
O34_5 O 0.8890(3) 0.82804(18) 0.6172(2)
O35_4 O 0.9758(2) 0.7132(3) 0.5445(2)
N6_5 N 0.8649(3) 0.6686(3) 0.6187(2)
C46_5 C 0.9391(3) 0.7400(4) 0.5847(4)
C47_5 C 0.9137(3) 0.7089(4) 0.6308(4)
C48_5 C 0.9610(3) 0.7422(5) 0.5538(3)
O36_5 O 0.8626(2) 0.8012(3) 0.6607(3)
C49_5 C 0.9363(3) 0.7107(4) 0.6022(3)
H16_5 H 0.949282 0.691125 0.595580
C50_5 C 0.8841(3) 0.6602(4) 0.6429(5)
C51_5 C 0.9024(3) 0.7682(4) 0.6241(4)
C52_5 C 0.8985(3) 0.7400(4) 0.6423(4)
H17_5 H 0.885512 0.740475 0.662995
C53_5 C 0.9232(3) 0.7692(3) 0.5950(3)
H18_5 H 0.926109 0.789970 0.582507
C54_5 C 0.8831(4) 0.8007(4) 0.6352(4)
O37_5 O 0.7304(2) 0.4676(2) 0.5386(2)
O38_5 O 0.8186(2) 0.4116(2) 0.6520(2)
O40_5 O 0.7868(3) 0.4758(2) 0.5445(2)
N7_5 N 0.8314(3) 0.3649(3) 0.6187(2)
C55_5 C 0.7600(4) 0.4391(3) 0.5847(4)
C56_5 C 0.7911(4) 0.4137(3) 0.6308(4)
C57_5 C 0.7578(5) 0.4610(3) 0.5538(3)
C58_5 C 0.7893(4) 0.4363(3) 0.6022(3)
H19_5 H 0.808875 0.449282 0.595580
C59_5 C 0.8398(4) 0.3841(3) 0.6429(5)
C60_5 C 0.7318(4) 0.4024(3) 0.6241(4)
C61_5 C 0.7600(4) 0.3985(3) 0.6423(4)
H20_5 H 0.759525 0.385512 0.662995
C62_5 C 0.7308(3) 0.4232(3) 0.5950(3)
H21_5 H 0.710030 0.426109 0.582507
C63_5 C 0.6993(4) 0.3831(4) 0.6352(4)
O44_3 O 0.9614(2) 0.2304(2) 0.5324(2)
O45_5 O 0.8480(2) 0.3186(2) 0.5884(2)
O46_5 O 0.8828(2) 0.17196(18) 0.6110(3)
O47_3 O 0.9555(2) 0.2868(3) 0.5242(2)
N8_5 N 0.8813(2) 0.3314(3) 0.6351(3)
C64_5 C 0.9153(4) 0.2600(4) 0.5609(3)
C65_5 C 0.8692(4) 0.2911(4) 0.5863(3)
C66_5 C 0.9462(3) 0.2578(5) 0.5390(3)
O48_5 O 0.8393(3) 0.1988(3) 0.6374(2)
C67_5 C 0.8978(3) 0.2893(4) 0.5637(3)
H22_5 H 0.904420 0.308875 0.550718
C68_5 C 0.8571(5) 0.3398(4) 0.6159(3)
C69_5 C 0.8759(4) 0.2318(4) 0.5976(3)
C70_5 C 0.8577(4) 0.2600(4) 0.6015(3)
H23_5 H 0.837005 0.259525 0.614488
C71_5 C 0.9050(3) 0.2308(3) 0.5768(3)
H24_5 H 0.917493 0.210030 0.573891
C72_5 C 0.8648(4) 0.1993(4) 0.6169(4)
O49_4 O 0.9676(2) 0.4614(2) 0.7696(2)
O50_5 O 0.9116(2) 0.3480(2) 0.6814(2)
O51_5 O 0.8890(3) 0.3828(2) 0.82804(18)
O52_4 O 0.9758(2) 0.4555(2) 0.7132(3)
N9_5 N 0.8649(3) 0.3813(2) 0.6686(3)
C73_5 C 0.9391(3) 0.4153(4) 0.7400(4)
C74_5 C 0.9137(3) 0.3692(4) 0.7089(4)
C75_5 C 0.9610(3) 0.4462(3) 0.7422(5)
O53_5 O 0.8626(2) 0.3393(3) 0.8012(3)
C76_5 C 0.9363(3) 0.3978(3) 0.7107(4)
H25_5 H 0.949282 0.404420 0.691125
C77_5 C 0.8841(3) 0.3571(5) 0.6602(4)
C78_5 C 0.9024(3) 0.3759(4) 0.7682(4)
C79_5 C 0.8985(3) 0.3577(4) 0.7400(4)
H26_5 H 0.885512 0.337005 0.740475
C80_5 C 0.9232(3) 0.4050(3) 0.7692(3)
H27_5 H 0.926109 0.417493 0.789970
C81_5 C 0.8831(4) 0.3648(4) 0.8007(4)
O54_5 O 0.7304(2) 0.4614(2) 0.4676(2)
O55_5 O 0.8186(2) 0.3480(2) 0.4116(2)
O57_5 O 0.7868(3) 0.4555(2) 0.4758(2)
N10_5 N 0.8314(3) 0.3813(2) 0.3649(3)
C82_5 C 0.7600(4) 0.4153(4) 0.4391(3)
C83_5 C 0.7911(4) 0.3692(4) 0.4137(3)
C84_5 C 0.7578(5) 0.4462(3) 0.4610(3)
C85_5 C 0.7893(4) 0.3978(3) 0.4363(3)
H28_5 H 0.808875 0.404420 0.449282
C86_5 C 0.8398(4) 0.3571(5) 0.3841(3)
C87_5 C 0.7318(4) 0.3759(4) 0.4024(3)
C88_5 C 0.7600(4) 0.3577(4) 0.3985(3)
H29_5 H 0.759525 0.337005 0.385512
C89_5 C 0.7308(3) 0.4050(3) 0.4232(3)
H30_5 H 0.710030 0.417493 0.426109
C90_5 C 0.6993(4) 0.3648(4) 0.3831(4)
O61_3 O 0.9614(2) 0.4676(2) 0.2304(2)
O62_5 O 0.8480(2) 0.4116(2) 0.3186(2)
O63_5 O 0.8828(2) 0.3890(3) 0.17196(18)
O64_3 O 0.9555(2) 0.4758(2) 0.2868(3)
N11_5 N 0.8813(2) 0.3649(3) 0.3314(3)
C91_5 C 0.9153(4) 0.4391(3) 0.2600(4)
C92_5 C 0.8692(4) 0.4137(3) 0.2911(4)
C93_5 C 0.9462(3) 0.4610(3) 0.2578(5)
O65_5 O 0.8393(3) 0.3626(2) 0.1988(3)
C94_5 C 0.8978(3) 0.4363(3) 0.2893(4)
H31_5 H 0.904420 0.449282 0.308875
C95_5 C 0.8571(5) 0.3841(3) 0.3398(4)
C96_5 C 0.8759(4) 0.4024(3) 0.2318(4)
C97_5 C 0.8577(4) 0.3985(3) 0.2600(4)
H32_5 H 0.837005 0.385512 0.259525
C98_5 C 0.9050(3) 0.4232(3) 0.2308(3)
H33_5 H 0.917493 0.426109 0.210030
C99_5 C 0.8648(4) 0.3831(4) 0.1993(4)
O66_3 O 0.9676(2) 0.2304(2) 0.4614(2)
O67_5 O 0.9116(2) 0.3186(2) 0.3480(2)
O68_5 O 0.8890(3) 0.17196(18) 0.3828(2)
O69_3 O 0.9758(2) 0.2868(3) 0.4555(2)
N12_5 N 0.8649(3) 0.3314(3) 0.3813(2)
C100_5 C 0.9391(3) 0.2600(4) 0.4153(4)
C101_5 C 0.9137(3) 0.2911(4) 0.3692(4)
C102_5 C 0.9610(3) 0.2578(5) 0.4462(3)
O70_5 O 0.8626(2) 0.1988(3) 0.3393(3)
C103_5 C 0.9363(3) 0.2893(4) 0.3978(3)
H34_5 H 0.949282 0.308875 0.404420
C104_5 C 0.8841(3) 0.3398(4) 0.3571(5)
C105_5 C 0.9024(3) 0.2318(4) 0.3759(4)
C106_5 C 0.8985(3) 0.2600(4) 0.3577(4)
H35_5 H 0.885512 0.259525 0.337005
C107_5 C 0.9232(3) 0.2308(3) 0.4050(3)
H36_5 H 0.926109 0.210030 0.417493
C108_5 C 0.8831(4) 0.1993(4) 0.3648(4)
Zn11_6 Zn 1.000000 0.78043(7) 0.500000
O77_12 O 1.000000 0.8315(5) 0.500000
Zn12_6 Zn 1.000000 0.70301(7) 0.500000
O78_12 O 1.000000 0.6523(4) 0.500000
Zn13_6 Zn 1.000000 0.500000 0.21957(7)
O79_6 O 1.000000 0.500000 0.1685(5)
Zn14_6 Zn 1.000000 0.500000 0.29699(7)
O80_6 O 1.000000 0.500000 0.3477(4)
Zn15_6 Zn 1.000000 0.21957(7) 0.500000
Zn16_6 Zn 1.000000 0.500000 0.78043(7)
Zn17_6 Zn 1.000000 0.29699(7) 0.500000
Zn18_6 Zn 1.000000 0.500000 0.70301(7)
Zn1_6 Zn 0.28043(7) 0.500000 0.500000
Zn2_6 Zn 0.20301(7) 0.500000 0.500000
O1_6 O 0.2696(2) 0.5324(2) 0.5386(2)
O2_6 O 0.3315(5) 0.500000 0.500000
O3_6 O 0.1814(2) 0.5884(2) 0.6520(2)
O5_6 O 0.2132(3) 0.5242(2) 0.5445(2)
N1_6 N 0.1686(3) 0.6351(3) 0.6187(2)
O6_6 O 0.1523(4) 0.500000 0.500000
C1_6 C 0.2400(4) 0.5609(3) 0.5847(4)
C2_6 C 0.2089(4) 0.5863(3) 0.6308(4)
C3_6 C 0.2422(5) 0.5390(3) 0.5538(3)
C4_6 C 0.2107(4) 0.5637(3) 0.6022(3)
H1_6 H 0.191125 0.550718 0.595580
C5_6 C 0.1602(4) 0.6159(3) 0.6429(5)
C6_6 C 0.2682(4) 0.5976(3) 0.6241(4)
C7_6 C 0.2400(4) 0.6015(3) 0.6423(4)
H2_6 H 0.240475 0.614488 0.662995
C8_6 C 0.2692(3) 0.5768(3) 0.5950(3)
H3_6 H 0.289970 0.573891 0.582507
C9_6 C 0.3007(4) 0.6169(4) 0.6352(4)
O11_6 O 0.1520(2) 0.6814(2) 0.5884(2)
O12_6 O 0.1172(2) 0.82804(18) 0.6110(3)
N2_6 N 0.1187(2) 0.6686(3) 0.6351(3)
C10_6 C 0.0847(4) 0.7400(4) 0.5609(3)
C11_6 C 0.1308(4) 0.7089(4) 0.5863(3)
C12_6 C 0.0538(3) 0.7422(5) 0.5390(3)
O14_6 O 0.1607(3) 0.8012(3) 0.6374(2)
C13_6 C 0.1022(3) 0.7107(4) 0.5637(3)
H4_6 H 0.095580 0.691125 0.550718
C14_6 C 0.1429(5) 0.6602(4) 0.6159(3)
C15_6 C 0.1241(4) 0.7682(4) 0.5976(3)
C16_6 C 0.1423(4) 0.7400(4) 0.6015(3)
H5_6 H 0.162995 0.740475 0.614488
C17_6 C 0.0950(3) 0.7692(3) 0.5768(3)
H6_6 H 0.082507 0.789970 0.573891
C18_6 C 0.1352(4) 0.8007(4) 0.6169(4)
O15_4 O 0.0324(2) 0.5386(2) 0.7696(2)
O16_6 O 0.0884(2) 0.6520(2) 0.6814(2)
O17_6 O 0.1110(3) 0.6172(2) 0.82804(18)
O18_4 O 0.0242(2) 0.5445(2) 0.7132(3)
N3_6 N 0.1351(3) 0.6187(2) 0.6686(3)
C19_6 C 0.0609(3) 0.5847(4) 0.7400(4)
C20_6 C 0.0863(3) 0.6308(4) 0.7089(4)
C21_6 C 0.0390(3) 0.5538(3) 0.7422(5)
O19_6 O 0.1374(2) 0.6607(3) 0.8012(3)
C22_6 C 0.0637(3) 0.6022(3) 0.7107(4)
H7_6 H 0.050718 0.595580 0.691125
C23_6 C 0.1159(3) 0.6429(5) 0.6602(4)
C24_6 C 0.0976(3) 0.6241(4) 0.7682(4)
C25_6 C 0.1015(3) 0.6423(4) 0.7400(4)
H8_6 H 0.114488 0.662995 0.740475
C26_6 C 0.0768(3) 0.5950(3) 0.7692(3)
H9_6 H 0.073891 0.582507 0.789970
C27_6 C 0.1169(4) 0.6352(4) 0.8007(4)
O20_6 O 0.2696(2) 0.5386(2) 0.4676(2)
O21_6 O 0.1814(2) 0.6520(2) 0.4116(2)
O23_6 O 0.2132(3) 0.5445(2) 0.4758(2)
N4_6 N 0.1686(3) 0.6187(2) 0.3649(3)
C28_6 C 0.2400(4) 0.5847(4) 0.4391(3)
C29_6 C 0.2089(4) 0.6308(4) 0.4137(3)
C30_6 C 0.2422(5) 0.5538(3) 0.4610(3)
C31_6 C 0.2107(4) 0.6022(3) 0.4363(3)
H10_6 H 0.191125 0.595580 0.449282
C32_6 C 0.1602(4) 0.6429(5) 0.3841(3)
C33_6 C 0.2682(4) 0.6241(4) 0.4024(3)
C34_6 C 0.2400(4) 0.6423(4) 0.3985(3)
H11_6 H 0.240475 0.662995 0.385512
C35_6 C 0.2692(3) 0.5950(3) 0.4232(3)
H12_6 H 0.289970 0.582507 0.426109
C36_6 C 0.3007(4) 0.6352(4) 0.3831(4)
O28_6 O 0.1520(2) 0.5884(2) 0.3186(2)
O29_6 O 0.1172(2) 0.6110(3) 0.17196(18)
N5_6 N 0.1187(2) 0.6351(3) 0.3314(3)
C37_6 C 0.0847(4) 0.5609(3) 0.2600(4)
C38_6 C 0.1308(4) 0.5863(3) 0.2911(4)
C39_6 C 0.0538(3) 0.5390(3) 0.2578(5)
O31_6 O 0.1607(3) 0.6374(2) 0.1988(3)
C40_6 C 0.1022(3) 0.5637(3) 0.2893(4)
H13_6 H 0.095580 0.550718 0.308875
C41_6 C 0.1429(5) 0.6159(3) 0.3398(4)
C42_6 C 0.1241(4) 0.5976(3) 0.2318(4)
C43_6 C 0.1423(4) 0.6015(3) 0.2600(4)
H14_6 H 0.162995 0.614488 0.259525
C44_6 C 0.0950(3) 0.5768(3) 0.2308(3)
H15_6 H 0.082507 0.573891 0.210030
C45_6 C 0.1352(4) 0.6169(4) 0.1993(4)
O33_6 O 0.0884(2) 0.6814(2) 0.3480(2)
O34_6 O 0.1110(3) 0.82804(18) 0.3828(2)
N6_6 N 0.1351(3) 0.6686(3) 0.3813(2)
C46_6 C 0.0609(3) 0.7400(4) 0.4153(4)
C47_6 C 0.0863(3) 0.7089(4) 0.3692(4)
C48_6 C 0.0390(3) 0.7422(5) 0.4462(3)
O36_6 O 0.1374(2) 0.8012(3) 0.3393(3)
C49_6 C 0.0637(3) 0.7107(4) 0.3978(3)
H16_6 H 0.050718 0.691125 0.404420
C50_6 C 0.1159(3) 0.6602(4) 0.3571(5)
C51_6 C 0.0976(3) 0.7682(4) 0.3759(4)
C52_6 C 0.1015(3) 0.7400(4) 0.3577(4)
H17_6 H 0.114488 0.740475 0.337005
C53_6 C 0.0768(3) 0.7692(3) 0.4050(3)
H18_6 H 0.073891 0.789970 0.417493
C54_6 C 0.1169(4) 0.8007(4) 0.3648(4)
O37_6 O 0.2696(2) 0.4676(2) 0.4614(2)
O38_6 O 0.1814(2) 0.4116(2) 0.3480(2)
O40_6 O 0.2132(3) 0.4758(2) 0.4555(2)
N7_6 N 0.1686(3) 0.3649(3) 0.3813(2)
C55_6 C 0.2400(4) 0.4391(3) 0.4153(4)
C56_6 C 0.2089(4) 0.4137(3) 0.3692(4)
C57_6 C 0.2422(5) 0.4610(3) 0.4462(3)
C58_6 C 0.2107(4) 0.4363(3) 0.3978(3)
H19_6 H 0.191125 0.449282 0.404420
C59_6 C 0.1602(4) 0.3841(3) 0.3571(5)
C60_6 C 0.2682(4) 0.4024(3) 0.3759(4)
C61_6 C 0.2400(4) 0.3985(3) 0.3577(4)
H20_6 H 0.240475 0.385512 0.337005
C62_6 C 0.2692(3) 0.4232(3) 0.4050(3)
H21_6 H 0.289970 0.426109 0.417493
C63_6 C 0.3007(4) 0.3831(4) 0.3648(4)
O44_4 O 0.0386(2) 0.2304(2) 0.4676(2)
O45_6 O 0.1520(2) 0.3186(2) 0.4116(2)
O46_6 O 0.1172(2) 0.17196(18) 0.3890(3)
O47_4 O 0.0445(2) 0.2868(3) 0.4758(2)
N8_6 N 0.1187(2) 0.3314(3) 0.3649(3)
C64_6 C 0.0847(4) 0.2600(4) 0.4391(3)
C65_6 C 0.1308(4) 0.2911(4) 0.4137(3)
C66_6 C 0.0538(3) 0.2578(5) 0.4610(3)
O48_6 O 0.1607(3) 0.1988(3) 0.3626(2)
C67_6 C 0.1022(3) 0.2893(4) 0.4363(3)
H22_6 H 0.095580 0.308875 0.449282
C68_6 C 0.1429(5) 0.3398(4) 0.3841(3)
C69_6 C 0.1241(4) 0.2318(4) 0.4024(3)
C70_6 C 0.1423(4) 0.2600(4) 0.3985(3)
H23_6 H 0.162995 0.259525 0.385512
C71_6 C 0.0950(3) 0.2308(3) 0.4232(3)
H24_6 H 0.082507 0.210030 0.426109
C72_6 C 0.1352(4) 0.1993(4) 0.3831(4)
O50_6 O 0.0884(2) 0.3480(2) 0.3186(2)
O51_6 O 0.1110(3) 0.3828(2) 0.17196(18)
N9_6 N 0.1351(3) 0.3813(2) 0.3314(3)
C73_6 C 0.0609(3) 0.4153(4) 0.2600(4)
C74_6 C 0.0863(3) 0.3692(4) 0.2911(4)
C75_6 C 0.0390(3) 0.4462(3) 0.2578(5)
O53_6 O 0.1374(2) 0.3393(3) 0.1988(3)
C76_6 C 0.0637(3) 0.3978(3) 0.2893(4)
H25_6 H 0.050718 0.404420 0.308875
C77_6 C 0.1159(3) 0.3571(5) 0.3398(4)
C78_6 C 0.0976(3) 0.3759(4) 0.2318(4)
C79_6 C 0.1015(3) 0.3577(4) 0.2600(4)
H26_6 H 0.114488 0.337005 0.259525
C80_6 C 0.0768(3) 0.4050(3) 0.2308(3)
H27_6 H 0.073891 0.417493 0.210030
C81_6 C 0.1169(4) 0.3648(4) 0.1993(4)
O54_6 O 0.2696(2) 0.4614(2) 0.5324(2)
O55_6 O 0.1814(2) 0.3480(2) 0.5884(2)
O57_6 O 0.2132(3) 0.4555(2) 0.5242(2)
N10_6 N 0.1686(3) 0.3813(2) 0.6351(3)
C82_6 C 0.2400(4) 0.4153(4) 0.5609(3)
C83_6 C 0.2089(4) 0.3692(4) 0.5863(3)
C84_6 C 0.2422(5) 0.4462(3) 0.5390(3)
C85_6 C 0.2107(4) 0.3978(3) 0.5637(3)
H28_6 H 0.191125 0.404420 0.550718
C86_6 C 0.1602(4) 0.3571(5) 0.6159(3)
C87_6 C 0.2682(4) 0.3759(4) 0.5976(3)
C88_6 C 0.2400(4) 0.3577(4) 0.6015(3)
H29_6 H 0.240475 0.337005 0.614488
C89_6 C 0.2692(3) 0.4050(3) 0.5768(3)
H30_6 H 0.289970 0.417493 0.573891
C90_6 C 0.3007(4) 0.3648(4) 0.6169(4)
O61_4 O 0.0386(2) 0.4676(2) 0.7696(2)
O62_6 O 0.1520(2) 0.4116(2) 0.6814(2)
O63_6 O 0.1172(2) 0.3890(3) 0.82804(18)
O64_4 O 0.0445(2) 0.4758(2) 0.7132(3)
N11_6 N 0.1187(2) 0.3649(3) 0.6686(3)
C91_6 C 0.0847(4) 0.4391(3) 0.7400(4)
C92_6 C 0.1308(4) 0.4137(3) 0.7089(4)
C93_6 C 0.0538(3) 0.4610(3) 0.7422(5)
O65_6 O 0.1607(3) 0.3626(2) 0.8012(3)
C94_6 C 0.1022(3) 0.4363(3) 0.7107(4)
H31_6 H 0.095580 0.449282 0.691125
C95_6 C 0.1429(5) 0.3841(3) 0.6602(4)
C96_6 C 0.1241(4) 0.4024(3) 0.7682(4)
C97_6 C 0.1423(4) 0.3985(3) 0.7400(4)
H32_6 H 0.162995 0.385512 0.740475
C98_6 C 0.0950(3) 0.4232(3) 0.7692(3)
H33_6 H 0.082507 0.426109 0.789970
C99_6 C 0.1352(4) 0.3831(4) 0.8007(4)
O66_4 O 0.0324(2) 0.2304(2) 0.5386(2)
O67_6 O 0.0884(2) 0.3186(2) 0.6520(2)
O68_6 O 0.1110(3) 0.17196(18) 0.6172(2)
O69_4 O 0.0242(2) 0.2868(3) 0.5445(2)
N12_6 N 0.1351(3) 0.3314(3) 0.6187(2)
C100_6 C 0.0609(3) 0.2600(4) 0.5847(4)
C101_6 C 0.0863(3) 0.2911(4) 0.6308(4)
C102_6 C 0.0390(3) 0.2578(5) 0.5538(3)
O70_6 O 0.1374(2) 0.1988(3) 0.6607(3)
C103_6 C 0.0637(3) 0.2893(4) 0.6022(3)
H34_6 H 0.050718 0.308875 0.595580
C104_6 C 0.1159(3) 0.3398(4) 0.6429(5)
C105_6 C 0.0976(3) 0.2318(4) 0.6241(4)
C106_6 C 0.1015(3) 0.2600(4) 0.6423(4)
H35_6 H 0.114488 0.259525 0.662995
C107_6 C 0.0768(3) 0.2308(3) 0.5950(3)
H36_6 H 0.073891 0.210030 0.582507
C108_6 C 0.1169(4) 0.1993(4) 0.6352(4)
O79_7 O -0.000000 0.500000 0.8315(5)
O80_7 O 0.000000 0.500000 0.6523(4)
O79_8 O 1.000000 0.500000 0.8315(5)
O80_8 O 1.000000 0.500000 0.6523(4)
O77_13 O 0.1685(5) 0.000000 0.500000
O78_13 O 0.3477(4) 0.000000 0.500000
O77_14 O 0.1685(5) 1.000000 0.500000
O78_14 O 0.3477(4) 1.000000 0.500000
O79_9 O 0.000000 0.1685(5) 0.500000
O80_9 O 0.000000 0.3477(4) 0.500000
O79_10 O 1.000000 0.1685(5) 0.500000
O80_10 O 1.000000 0.3477(4) 0.500000
O8_2 O 0.5949(3) 0.0949(3) 0.0949(3)
O9_2 O 0.7034(10) 0.2238(8) 0.1669(11)
O25_2 O 0.4051(3) 0.0949(3) 0.0949(3)
O26_2 O 0.2762(8) 0.2034(10) 0.1669(11)
O71_2 O 0.6669(11) 0.2034(10) 0.2238(8)
O72_2 O 0.7238(8) 0.1669(11) 0.2034(10)
O73_2 O 0.2966(10) 0.1669(11) 0.2238(8)
O76_2 O 0.3331(11) 0.2238(8) 0.2034(10)
O88_2 O 0.32804(18) 0.1110(3) 0.1172(2)
O89_2 O 0.67196(18) 0.1172(2) 0.1110(3)
O100_2 O 0.3012(3) 0.1374(2) 0.1607(3)
O101_2 O 0.6988(3) 0.1607(3) 0.1374(2)
O42_4 O 0.4051(3) 0.9051(3) 0.0949(3)
O43_4 O 0.2966(10) 0.7762(8) 0.1669(11)
O59_4 O 0.5949(3) 0.9051(3) 0.0949(3)
O60_4 O 0.7238(8) 0.7966(10) 0.1669(11)
O74_4 O 0.6669(11) 0.7762(8) 0.2034(10)
O75_4 O 0.7034(10) 0.8331(11) 0.2238(8)
O81_4 O 0.3331(11) 0.7966(10) 0.2238(8)
O82_4 O 0.2762(8) 0.8331(11) 0.2034(10)
O92_4 O 0.32804(18) 0.8828(2) 0.1110(3)
O94_4 O 0.67196(18) 0.8890(3) 0.1172(2)
O104_4 O 0.3012(3) 0.8393(3) 0.1374(2)
O106_4 O 0.6988(3) 0.8626(2) 0.1607(3)
O42_5 O 0.4051(3) 0.9051(3) 0.9051(3)
O43_5 O 0.2966(10) 0.8331(11) 0.7762(8)
O59_5 O 0.5949(3) 0.9051(3) 0.9051(3)
O60_5 O 0.7238(8) 0.8331(11) 0.7966(10)
O74_5 O 0.6669(11) 0.7966(10) 0.7762(8)
O75_5 O 0.7034(10) 0.7762(8) 0.8331(11)
O81_5 O 0.3331(11) 0.7762(8) 0.7966(10)
O82_5 O 0.2762(8) 0.7966(10) 0.8331(11)
O92_5 O 0.32804(18) 0.8890(3) 0.8828(2)
O94_5 O 0.67196(18) 0.8828(2) 0.8890(3)
O104_5 O 0.3012(3) 0.8626(2) 0.8393(3)
O106_5 O 0.6988(3) 0.8393(3) 0.8626(2)
O42_6 O 0.4051(3) 0.0949(3) 0.9051(3)
O43_6 O 0.2966(10) 0.2238(8) 0.8331(11)
O59_6 O 0.5949(3) 0.0949(3) 0.9051(3)
O60_6 O 0.7238(8) 0.2034(10) 0.8331(11)
O74_6 O 0.6669(11) 0.2238(8) 0.7966(10)
O75_6 O 0.7034(10) 0.1669(11) 0.7762(8)
O81_6 O 0.3331(11) 0.2034(10) 0.7762(8)
O82_6 O 0.2762(8) 0.1669(11) 0.7966(10)
O92_6 O 0.32804(18) 0.1172(2) 0.8890(3)
O94_6 O 0.67196(18) 0.1110(3) 0.8828(2)
O104_6 O 0.3012(3) 0.1607(3) 0.8626(2)
O106_6 O 0.6988(3) 0.1374(2) 0.8393(3)
Zn11_7 Zn -0.000000 0.28043(7) -0.000000
O77_15 O 0.000000 0.3315(5) -0.000000
Zn12_7 Zn 0.000000 0.20301(7) 0.000000
O78_15 O 0.000000 0.1523(4) 0.000000
Zn16_7 Zn 0.000000 0.000000 0.28043(7)
Zn18_7 Zn 0.000000 0.000000 0.20301(7)
O84_6 O 0.0386(2) 0.2696(2) 0.0324(2)
O96_6 O 0.0445(2) 0.2132(3) 0.0242(2)
H62 H 0.0211649 0.143782 0.0115099
H66 H 0.0184531 0.340018 0.0154892
Zn11_8 Zn 0.000000 0.28043(7) 1.000000
O77_16 O 0.000000 0.3315(5) 1.000000
Zn12_8 Zn 0.000000 0.20301(7) 1.000000
O78_16 O 0.000000 0.1523(4) 1.000000
Zn13_7 Zn 0.000000 0.000000 0.71957(7)
O79_11 O 0.000000 0.000000 0.6685(5)
Zn14_7 Zn 0.000000 0.000000 0.79699(7)
O80_11 O -0.000000 0.000000 0.8477(4)
O83_6 O 0.0324(2) 0.2696(2) 0.9614(2)
O85_4 O 0.0386(2) 0.0324(2) 0.7304(2)
O95_6 O 0.0242(2) 0.2132(3) 0.9555(2)
O97_4 O 0.0445(2) 0.0242(2) 0.7868(3)
H73 H 0.0082363 0.0226406 0.659982
Zn15_7 Zn 0.000000 0.71957(7) 0.000000
Zn16_8 Zn 0.000000 1.000000 0.28043(7)
Zn17_7 Zn 0.000000 0.79699(7) 0.000000
Zn18_8 Zn 0.000000 1.000000 0.20301(7)
Zn13_8 Zn 0.000000 1.000000 0.71957(7)
O79_12 O 0.000000 1.000000 0.6685(5)
Zn14_8 Zn 0.000000 1.000000 0.79699(7)
O80_12 O 0.000000 1.000000 0.8477(4)
Zn15_8 Zn -0.000000 0.71957(7) 1.000000
Zn17_8 Zn 0.000000 0.79699(7) 1.000000
O86_4 O 0.0324(2) 0.9614(2) 0.7304(2)
O98_4 O 0.0242(2) 0.9555(2) 0.7868(3)
H58 H 0.0115099 0.978835 0.856218
H74 H 0.0154892 0.981547 0.659982
Zn1_7 Zn 0.71957(7) -0.000000 0.000000
Zn2_7 Zn 0.79699(7) 0.000000 -0.000000
O2_7 O 0.6685(5) -0.000000 0.000000
O6_7 O 0.8477(4) 0.000000 -0.000000
O20_7 O 0.7304(2) 0.0386(2) 0.0324(2)
O21_7 O 0.8186(2) 0.1520(2) 0.0884(2)
O23_7 O 0.7868(3) 0.0445(2) 0.0242(2)
N4_7 N 0.8314(3) 0.1187(2) 0.1351(3)
C28_7 C 0.7600(4) 0.0847(4) 0.0609(3)
C29_7 C 0.7911(4) 0.1308(4) 0.0863(3)
C30_7 C 0.7578(5) 0.0538(3) 0.0390(3)
C31_7 C 0.7893(4) 0.1022(3) 0.0637(3)
H10_7 H 0.808875 0.095580 0.050718
C32_7 C 0.8398(4) 0.1429(5) 0.1159(3)
C33_7 C 0.7318(4) 0.1241(4) 0.0976(3)
C34_7 C 0.7600(4) 0.1423(4) 0.1015(3)
H11_7 H 0.759525 0.162995 0.114488
C35_7 C 0.7308(3) 0.0950(3) 0.0768(3)
H12_7 H 0.710030 0.082507 0.073891
C36_7 C 0.6993(4) 0.1352(4) 0.1169(4)
O27_5 O 0.9614(2) 0.0324(2) 0.2696(2)
O28_7 O 0.8480(2) 0.0884(2) 0.1814(2)
O29_7 O 0.8828(2) 0.1110(3) 0.32804(18)
O30_5 O 0.9555(2) 0.0242(2) 0.2132(3)
N5_7 N 0.8813(2) 0.1351(3) 0.1686(3)
C37_7 C 0.9153(4) 0.0609(3) 0.2400(4)
C38_7 C 0.8692(4) 0.0863(3) 0.2089(4)
C39_7 C 0.9462(3) 0.0390(3) 0.2422(5)
O31_7 O 0.8393(3) 0.1374(2) 0.3012(3)
C40_7 C 0.8978(3) 0.0637(3) 0.2107(4)
H13_7 H 0.904420 0.050718 0.191125
C41_7 C 0.8571(5) 0.1159(3) 0.1602(4)
C42_7 C 0.8759(4) 0.0976(3) 0.2682(4)
C43_7 C 0.8577(4) 0.1015(3) 0.2400(4)
H14_7 H 0.837005 0.114488 0.240475
C44_7 C 0.9050(3) 0.0768(3) 0.2692(3)
H15_7 H 0.917493 0.073891 0.289970
C45_7 C 0.8648(4) 0.1169(4) 0.3007(4)
O32_5 O 0.9676(2) 0.2696(2) 0.0386(2)
O33_7 O 0.9116(2) 0.1814(2) 0.1520(2)
O34_7 O 0.8890(3) 0.32804(18) 0.1172(2)
O35_5 O 0.9758(2) 0.2132(3) 0.0445(2)
N6_7 N 0.8649(3) 0.1686(3) 0.1187(2)
C46_7 C 0.9391(3) 0.2400(4) 0.0847(4)
C47_7 C 0.9137(3) 0.2089(4) 0.1308(4)
C48_7 C 0.9610(3) 0.2422(5) 0.0538(3)
O36_7 O 0.8626(2) 0.3012(3) 0.1607(3)
C49_7 C 0.9363(3) 0.2107(4) 0.1022(3)
H16_7 H 0.949282 0.191125 0.095580
C50_7 C 0.8841(3) 0.1602(4) 0.1429(5)
C51_7 C 0.9024(3) 0.2682(4) 0.1241(4)
C52_7 C 0.8985(3) 0.2400(4) 0.1423(4)
H17_7 H 0.885512 0.240475 0.162995
C53_7 C 0.9232(3) 0.2692(3) 0.0950(3)
H18_7 H 0.926109 0.289970 0.082507
C54_7 C 0.8831(4) 0.3007(4) 0.1352(4)
Zn11_9 Zn 1.000000 0.28043(7) -0.000000
O77_17 O 1.000000 0.3315(5) -0.000000
Zn12_9 Zn 1.000000 0.20301(7) 0.000000
O78_17 O 1.000000 0.1523(4) 0.000000
Zn16_9 Zn 1.000000 0.000000 0.28043(7)
Zn18_9 Zn 1.000000 0.000000 0.20301(7)
H65 H 0.977359 0.340018 0.0082363
Zn1_8 Zn 0.71957(7) -0.000000 1.000000
Zn2_8 Zn 0.79699(7) 0.000000 1.000000
O1_7 O 0.7304(2) 0.0324(2) 0.9614(2)
O2_8 O 0.6685(5) -0.000000 1.000000
O3_7 O 0.8186(2) 0.0884(2) 0.8480(2)
O5_7 O 0.7868(3) 0.0242(2) 0.9555(2)
N1_7 N 0.8314(3) 0.1351(3) 0.8813(2)
O6_8 O 0.8477(4) 0.000000 1.000000
C1_7 C 0.7600(4) 0.0609(3) 0.9153(4)
C2_7 C 0.7911(4) 0.0863(3) 0.8692(4)
C3_7 C 0.7578(5) 0.0390(3) 0.9462(3)
C4_7 C 0.7893(4) 0.0637(3) 0.8978(3)
H1_7 H 0.808875 0.050718 0.904420
C5_7 C 0.8398(4) 0.1159(3) 0.8571(5)
C6_7 C 0.7318(4) 0.0976(3) 0.8759(4)
C7_7 C 0.7600(4) 0.1015(3) 0.8577(4)
H2_7 H 0.759525 0.114488 0.837005
C8_7 C 0.7308(3) 0.0768(3) 0.9050(3)
H3_7 H 0.710030 0.073891 0.917493
C9_7 C 0.6993(4) 0.1169(4) 0.8648(4)
O10_5 O 0.9614(2) 0.2696(2) 0.9676(2)
O11_7 O 0.8480(2) 0.1814(2) 0.9116(2)
O12_7 O 0.8828(2) 0.32804(18) 0.8890(3)
O13_5 O 0.9555(2) 0.2132(3) 0.9758(2)
N2_7 N 0.8813(2) 0.1686(3) 0.8649(3)
C10_7 C 0.9153(4) 0.2400(4) 0.9391(3)
C11_7 C 0.8692(4) 0.2089(4) 0.9137(3)
C12_7 C 0.9462(3) 0.2422(5) 0.9610(3)
O14_7 O 0.8393(3) 0.3012(3) 0.8626(2)
C13_7 C 0.8978(3) 0.2107(4) 0.9363(3)
H4_7 H 0.904420 0.191125 0.949282
C14_7 C 0.8571(5) 0.1602(4) 0.8841(3)
C15_7 C 0.8759(4) 0.2682(4) 0.9024(3)
C16_7 C 0.8577(4) 0.2400(4) 0.8985(3)
H5_7 H 0.837005 0.240475 0.885512
C17_7 C 0.9050(3) 0.2692(3) 0.9232(3)
H6_7 H 0.917493 0.289970 0.926109
C18_7 C 0.8648(4) 0.3007(4) 0.8831(4)
O15_5 O 0.9676(2) 0.0386(2) 0.7304(2)
O16_7 O 0.9116(2) 0.1520(2) 0.8186(2)
O17_7 O 0.8890(3) 0.1172(2) 0.67196(18)
O18_5 O 0.9758(2) 0.0445(2) 0.7868(3)
N3_7 N 0.8649(3) 0.1187(2) 0.8314(3)
C19_7 C 0.9391(3) 0.0847(4) 0.7600(4)
C20_7 C 0.9137(3) 0.1308(4) 0.7911(4)
C21_7 C 0.9610(3) 0.0538(3) 0.7578(5)
O19_7 O 0.8626(2) 0.1607(3) 0.6988(3)
C22_7 C 0.9363(3) 0.1022(3) 0.7893(4)
H7_7 H 0.949282 0.095580 0.808875
C23_7 C 0.8841(3) 0.1429(5) 0.8398(4)
C24_7 C 0.9024(3) 0.1241(4) 0.7318(4)
C25_7 C 0.8985(3) 0.1423(4) 0.7600(4)
H8_7 H 0.885512 0.162995 0.759525
C26_7 C 0.9232(3) 0.0950(3) 0.7308(3)
H9_7 H 0.926109 0.082507 0.710030
C27_7 C 0.8831(4) 0.1352(4) 0.6993(4)
Zn11_10 Zn 1.000000 0.28043(7) 1.000000
O77_18 O 1.000000 0.3315(5) 1.000000
Zn12_10 Zn 1.000000 0.20301(7) 1.000000
O78_18 O 1.000000 0.1523(4) 1.000000
Zn13_9 Zn 1.000000 0.000000 0.71957(7)
O79_13 O 1.000000 0.000000 0.6685(5)
Zn14_9 Zn 1.000000 0.000000 0.79699(7)
O80_13 O 1.000000 0.000000 0.8477(4)
H57 H 0.975916 0.000614584 0.856218
H61 H 0.999385 0.143782 0.975916
H77 H 0.856218 0.0240843 0.999385
Zn1_9 Zn 0.71957(7) 1.000000 0.000000
Zn2_9 Zn 0.79699(7) 1.000000 -0.000000
O2_9 O 0.6685(5) 1.000000 0.000000
O6_9 O 0.8477(4) 1.000000 -0.000000
O37_7 O 0.7304(2) 0.9676(2) 0.0386(2)
O38_7 O 0.8186(2) 0.9116(2) 0.1520(2)
O40_7 O 0.7868(3) 0.9758(2) 0.0445(2)
N7_7 N 0.8314(3) 0.8649(3) 0.1187(2)
C55_7 C 0.7600(4) 0.9391(3) 0.0847(4)
C56_7 C 0.7911(4) 0.9137(3) 0.1308(4)
C57_7 C 0.7578(5) 0.9610(3) 0.0538(3)
C58_7 C 0.7893(4) 0.9363(3) 0.1022(3)
H19_7 H 0.808875 0.949282 0.095580
C59_7 C 0.8398(4) 0.8841(3) 0.1429(5)
C60_7 C 0.7318(4) 0.9024(3) 0.1241(4)
C61_7 C 0.7600(4) 0.8985(3) 0.1423(4)
H20_7 H 0.759525 0.885512 0.162995
C62_7 C 0.7308(3) 0.9232(3) 0.0950(3)
H21_7 H 0.710030 0.926109 0.082507
C63_7 C 0.6993(4) 0.8831(4) 0.1352(4)
O44_5 O 0.9614(2) 0.7304(2) 0.0324(2)
O45_7 O 0.8480(2) 0.8186(2) 0.0884(2)
O46_7 O 0.8828(2) 0.67196(18) 0.1110(3)
O47_5 O 0.9555(2) 0.7868(3) 0.0242(2)
N8_7 N 0.8813(2) 0.8314(3) 0.1351(3)
C64_7 C 0.9153(4) 0.7600(4) 0.0609(3)
C65_7 C 0.8692(4) 0.7911(4) 0.0863(3)
C66_7 C 0.9462(3) 0.7578(5) 0.0390(3)
O48_7 O 0.8393(3) 0.6988(3) 0.1374(2)
C67_7 C 0.8978(3) 0.7893(4) 0.0637(3)
H22_7 H 0.904420 0.808875 0.050718
C68_7 C 0.8571(5) 0.8398(4) 0.1159(3)
C69_7 C 0.8759(4) 0.7318(4) 0.0976(3)
C70_7 C 0.8577(4) 0.7600(4) 0.1015(3)
H23_7 H 0.837005 0.759525 0.114488
C71_7 C 0.9050(3) 0.7308(3) 0.0768(3)
H24_7 H 0.917493 0.710030 0.073891
C72_7 C 0.8648(4) 0.6993(4) 0.1169(4)
O49_5 O 0.9676(2) 0.9614(2) 0.2696(2)
O50_7 O 0.9116(2) 0.8480(2) 0.1814(2)
O51_7 O 0.8890(3) 0.8828(2) 0.32804(18)
O52_5 O 0.9758(2) 0.9555(2) 0.2132(3)
N9_7 N 0.8649(3) 0.8813(2) 0.1686(3)
C73_7 C 0.9391(3) 0.9153(4) 0.2400(4)
C74_7 C 0.9137(3) 0.8692(4) 0.2089(4)
C75_7 C 0.9610(3) 0.9462(3) 0.2422(5)
O53_7 O 0.8626(2) 0.8393(3) 0.3012(3)
C76_7 C 0.9363(3) 0.8978(3) 0.2107(4)
H25_7 H 0.949282 0.904420 0.191125
C77_7 C 0.8841(3) 0.8571(5) 0.1602(4)
C78_7 C 0.9024(3) 0.8759(4) 0.2682(4)
C79_7 C 0.8985(3) 0.8577(4) 0.2400(4)
H26_7 H 0.885512 0.837005 0.240475
C80_7 C 0.9232(3) 0.9050(3) 0.2692(3)
H27_7 H 0.926109 0.917493 0.289970
C81_7 C 0.8831(4) 0.8648(4) 0.3007(4)
Zn15_9 Zn 1.000000 0.71957(7) 0.000000
Zn16_10 Zn 1.000000 1.000000 0.28043(7)
Zn17_9 Zn 1.000000 0.79699(7) 0.000000
Zn18_10 Zn 1.000000 1.000000 0.20301(7)
H78 H 0.856218 0.98849 0.0211649
H80 H 0.659982 0.984511 0.0184531
Zn1_10 Zn 0.71957(7) 1.000000 1.000000
Zn2_10 Zn 0.79699(7) 1.000000 1.000000
O2_10 O 0.6685(5) 1.000000 1.000000
O6_10 O 0.8477(4) 1.000000 1.000000
O54_7 O 0.7304(2) 0.9614(2) 0.9676(2)
O55_7 O 0.8186(2) 0.8480(2) 0.9116(2)
O57_7 O 0.7868(3) 0.9555(2) 0.9758(2)
N10_7 N 0.8314(3) 0.8813(2) 0.8649(3)
C82_7 C 0.7600(4) 0.9153(4) 0.9391(3)
C83_7 C 0.7911(4) 0.8692(4) 0.9137(3)
C84_7 C 0.7578(5) 0.9462(3) 0.9610(3)
C85_7 C 0.7893(4) 0.8978(3) 0.9363(3)
H28_7 H 0.808875 0.904420 0.949282
C86_7 C 0.8398(4) 0.8571(5) 0.8841(3)
C87_7 C 0.7318(4) 0.8759(4) 0.9024(3)
C88_7 C 0.7600(4) 0.8577(4) 0.8985(3)
H29_7 H 0.759525 0.837005 0.885512
C89_7 C 0.7308(3) 0.9050(3) 0.9232(3)
H30_7 H 0.710030 0.917493 0.926109
C90_7 C 0.6993(4) 0.8648(4) 0.8831(4)
O61_5 O 0.9614(2) 0.9676(2) 0.7304(2)
O62_7 O 0.8480(2) 0.9116(2) 0.8186(2)
O63_7 O 0.8828(2) 0.8890(3) 0.67196(18)
O64_5 O 0.9555(2) 0.9758(2) 0.7868(3)
N11_7 N 0.8813(2) 0.8649(3) 0.8314(3)
C91_7 C 0.9153(4) 0.9391(3) 0.7600(4)
C92_7 C 0.8692(4) 0.9137(3) 0.7911(4)
C93_7 C 0.9462(3) 0.9610(3) 0.7578(5)
O65_7 O 0.8393(3) 0.8626(2) 0.6988(3)
C94_7 C 0.8978(3) 0.9363(3) 0.7893(4)
H31_7 H 0.904420 0.949282 0.808875
C95_7 C 0.8571(5) 0.8841(3) 0.8398(4)
C96_7 C 0.8759(4) 0.9024(3) 0.7318(4)
C97_7 C 0.8577(4) 0.8985(3) 0.7600(4)
H32_7 H 0.837005 0.885512 0.759525
C98_7 C 0.9050(3) 0.9232(3) 0.7308(3)
H33_7 H 0.917493 0.926109 0.710030
C99_7 C 0.8648(4) 0.8831(4) 0.6993(4)
O66_5 O 0.9676(2) 0.7304(2) 0.9614(2)
O67_7 O 0.9116(2) 0.8186(2) 0.8480(2)
O68_7 O 0.8890(3) 0.67196(18) 0.8828(2)
O69_5 O 0.9758(2) 0.7868(3) 0.9555(2)
N12_7 N 0.8649(3) 0.8314(3) 0.8813(2)
C100_7 C 0.9391(3) 0.7600(4) 0.9153(4)
C101_7 C 0.9137(3) 0.7911(4) 0.8692(4)
C102_7 C 0.9610(3) 0.7578(5) 0.9462(3)
O70_7 O 0.8626(2) 0.6988(3) 0.8393(3)
C103_7 C 0.9363(3) 0.7893(4) 0.8978(3)
H34_7 H 0.949282 0.808875 0.904420
C104_7 C 0.8841(3) 0.8398(4) 0.8571(5)
C105_7 C 0.9024(3) 0.7318(4) 0.8759(4)
C106_7 C 0.8985(3) 0.7600(4) 0.8577(4)
H35_7 H 0.885512 0.759525 0.837005
C107_7 C 0.9232(3) 0.7308(3) 0.9050(3)
H36_7 H 0.926109 0.710030 0.917493
C108_7 C 0.8831(4) 0.6993(4) 0.8648(4)
Zn13_10 Zn 1.000000 1.000000 0.71957(7)
O79_14 O 1.000000 1.000000 0.6685(5)
Zn14_10 Zn 1.000000 1.000000 0.79699(7)
O80_14 O 1.000000 1.000000 0.8477(4)
Zn15_10 Zn 1.000000 0.71957(7) 1.000000
Zn17_10 Zn 1.000000 0.79699(7) 1.000000
H79 H 0.659982 0.991764 0.977359
Zn1_11 Zn 0.28043(7) -0.000000 -0.000000
Zn2_11 Zn 0.20301(7) 0.000000 0.000000
O1_8 O 0.2696(2) 0.0324(2) 0.0386(2)
O2_11 O 0.3315(5) -0.000000 -0.000000
O3_8 O 0.1814(2) 0.0884(2) 0.1520(2)
O5_8 O 0.2132(3) 0.0242(2) 0.0445(2)
N1_8 N 0.1686(3) 0.1351(3) 0.1187(2)
O6_11 O 0.1523(4) 0.000000 0.000000
C1_8 C 0.2400(4) 0.0609(3) 0.0847(4)
C2_8 C 0.2089(4) 0.0863(3) 0.1308(4)
C3_8 C 0.2422(5) 0.0390(3) 0.0538(3)
C4_8 C 0.2107(4) 0.0637(3) 0.1022(3)
H1_8 H 0.191125 0.050718 0.095580
C5_8 C 0.1602(4) 0.1159(3) 0.1429(5)
C6_8 C 0.2682(4) 0.0976(3) 0.1241(4)
C7_8 C 0.2400(4) 0.1015(3) 0.1423(4)
H2_8 H 0.240475 0.114488 0.162995
C8_8 C 0.2692(3) 0.0768(3) 0.0950(3)
H3_8 H 0.289970 0.073891 0.082507
C9_8 C 0.3007(4) 0.1169(4) 0.1352(4)
O11_8 O 0.1520(2) 0.1814(2) 0.0884(2)
O12_8 O 0.1172(2) 0.32804(18) 0.1110(3)
N2_8 N 0.1187(2) 0.1686(3) 0.1351(3)
C10_8 C 0.0847(4) 0.2400(4) 0.0609(3)
C11_8 C 0.1308(4) 0.2089(4) 0.0863(3)
C12_8 C 0.0538(3) 0.2422(5) 0.0390(3)
O14_8 O 0.1607(3) 0.3012(3) 0.1374(2)
C13_8 C 0.1022(3) 0.2107(4) 0.0637(3)
H4_8 H 0.095580 0.191125 0.050718
C14_8 C 0.1429(5) 0.1602(4) 0.1159(3)
C15_8 C 0.1241(4) 0.2682(4) 0.0976(3)
C16_8 C 0.1423(4) 0.2400(4) 0.1015(3)
H5_8 H 0.162995 0.240475 0.114488
C17_8 C 0.0950(3) 0.2692(3) 0.0768(3)
H6_8 H 0.082507 0.289970 0.073891
C18_8 C 0.1352(4) 0.3007(4) 0.1169(4)
O15_6 O 0.0324(2) 0.0386(2) 0.2696(2)
O16_8 O 0.0884(2) 0.1520(2) 0.1814(2)
O17_8 O 0.1110(3) 0.1172(2) 0.32804(18)
O18_6 O 0.0242(2) 0.0445(2) 0.2132(3)
N3_8 N 0.1351(3) 0.1187(2) 0.1686(3)
C19_8 C 0.0609(3) 0.0847(4) 0.2400(4)
C20_8 C 0.0863(3) 0.1308(4) 0.2089(4)
C21_8 C 0.0390(3) 0.0538(3) 0.2422(5)
O19_8 O 0.1374(2) 0.1607(3) 0.3012(3)
C22_8 C 0.0637(3) 0.1022(3) 0.2107(4)
H7_8 H 0.050718 0.095580 0.191125
C23_8 C 0.1159(3) 0.1429(5) 0.1602(4)
C24_8 C 0.0976(3) 0.1241(4) 0.2682(4)
C25_8 C 0.1015(3) 0.1423(4) 0.2400(4)
H8_8 H 0.114488 0.162995 0.240475
C26_8 C 0.0768(3) 0.0950(3) 0.2692(3)
H9_8 H 0.073891 0.082507 0.289970
C27_8 C 0.1169(4) 0.1352(4) 0.3007(4)
O79_15 O 0.000000 0.000000 0.3315(5)
O80_15 O 0.000000 0.000000 0.1523(4)
H57_2 H 0.0240843 0.000614584 0.143782
H61_2 H 0.000614584 0.143782 0.0240843
H77_2 H 0.143782 0.0240843 0.000614584
Zn1_12 Zn 0.28043(7) -0.000000 1.000000
Zn2_12 Zn 0.20301(7) 0.000000 1.000000
O2_12 O 0.3315(5) -0.000000 1.000000
O6_12 O 0.1523(4) 0.000000 1.000000
O20_8 O 0.2696(2) 0.0386(2) 0.9676(2)
O21_8 O 0.1814(2) 0.1520(2) 0.9116(2)
O23_8 O 0.2132(3) 0.0445(2) 0.9758(2)
N4_8 N 0.1686(3) 0.1187(2) 0.8649(3)
C28_8 C 0.2400(4) 0.0847(4) 0.9391(3)
C29_8 C 0.2089(4) 0.1308(4) 0.9137(3)
C30_8 C 0.2422(5) 0.0538(3) 0.9610(3)
C31_8 C 0.2107(4) 0.1022(3) 0.9363(3)
H10_8 H 0.191125 0.095580 0.949282
C32_8 C 0.1602(4) 0.1429(5) 0.8841(3)
C33_8 C 0.2682(4) 0.1241(4) 0.9024(3)
C34_8 C 0.2400(4) 0.1423(4) 0.8985(3)
H11_8 H 0.240475 0.162995 0.885512
C35_8 C 0.2692(3) 0.0950(3) 0.9232(3)
H12_8 H 0.289970 0.082507 0.926109
C36_8 C 0.3007(4) 0.1352(4) 0.8831(4)
O28_8 O 0.1520(2) 0.0884(2) 0.8186(2)
O29_8 O 0.1172(2) 0.1110(3) 0.67196(18)
N5_8 N 0.1187(2) 0.1351(3) 0.8314(3)
C37_8 C 0.0847(4) 0.0609(3) 0.7600(4)
C38_8 C 0.1308(4) 0.0863(3) 0.7911(4)
C39_8 C 0.0538(3) 0.0390(3) 0.7578(5)
O31_8 O 0.1607(3) 0.1374(2) 0.6988(3)
C40_8 C 0.1022(3) 0.0637(3) 0.7893(4)
H13_8 H 0.095580 0.050718 0.808875
C41_8 C 0.1429(5) 0.1159(3) 0.8398(4)
C42_8 C 0.1241(4) 0.0976(3) 0.7318(4)
C43_8 C 0.1423(4) 0.1015(3) 0.7600(4)
H14_8 H 0.162995 0.114488 0.759525
C44_8 C 0.0950(3) 0.0768(3) 0.7308(3)
H15_8 H 0.082507 0.073891 0.710030
C45_8 C 0.1352(4) 0.1169(4) 0.6993(4)
O33_8 O 0.0884(2) 0.1814(2) 0.8480(2)
O34_8 O 0.1110(3) 0.32804(18) 0.8828(2)
N6_8 N 0.1351(3) 0.1686(3) 0.8813(2)
C46_8 C 0.0609(3) 0.2400(4) 0.9153(4)
C47_8 C 0.0863(3) 0.2089(4) 0.8692(4)
C48_8 C 0.0390(3) 0.2422(5) 0.9462(3)
O36_8 O 0.1374(2) 0.3012(3) 0.8393(3)
C49_8 C 0.0637(3) 0.2107(4) 0.8978(3)
H16_8 H 0.050718 0.191125 0.904420
C50_8 C 0.1159(3) 0.1602(4) 0.8571(5)
C51_8 C 0.0976(3) 0.2682(4) 0.8759(4)
C52_8 C 0.1015(3) 0.2400(4) 0.8577(4)
H17_8 H 0.114488 0.240475 0.837005
C53_8 C 0.0768(3) 0.2692(3) 0.9050(3)
H18_8 H 0.073891 0.289970 0.917493
C54_8 C 0.1169(4) 0.3007(4) 0.8648(4)
H65_2 H 0.0226406 0.340018 0.991764
Zn1_13 Zn 0.28043(7) 1.000000 -0.000000
Zn2_13 Zn 0.20301(7) 1.000000 0.000000
O2_13 O 0.3315(5) 1.000000 -0.000000
O6_13 O 0.1523(4) 1.000000 0.000000
O54_8 O 0.2696(2) 0.9614(2) 0.0324(2)
O55_8 O 0.1814(2) 0.8480(2) 0.0884(2)
O57_8 O 0.2132(3) 0.9555(2) 0.0242(2)
N10_8 N 0.1686(3) 0.8813(2) 0.1351(3)
C82_8 C 0.2400(4) 0.9153(4) 0.0609(3)
C83_8 C 0.2089(4) 0.8692(4) 0.0863(3)
C84_8 C 0.2422(5) 0.9462(3) 0.0390(3)
C85_8 C 0.2107(4) 0.8978(3) 0.0637(3)
H28_8 H 0.191125 0.904420 0.050718
C86_8 C 0.1602(4) 0.8571(5) 0.1159(3)
C87_8 C 0.2682(4) 0.8759(4) 0.0976(3)
C88_8 C 0.2400(4) 0.8577(4) 0.1015(3)
H29_8 H 0.240475 0.837005 0.114488
C89_8 C 0.2692(3) 0.9050(3) 0.0768(3)
H30_8 H 0.289970 0.917493 0.073891
C90_8 C 0.3007(4) 0.8648(4) 0.1169(4)
O61_6 O 0.0386(2) 0.9676(2) 0.2696(2)
O62_8 O 0.1520(2) 0.9116(2) 0.1814(2)
O63_8 O 0.1172(2) 0.8890(3) 0.32804(18)
O64_6 O 0.0445(2) 0.9758(2) 0.2132(3)
N11_8 N 0.1187(2) 0.8649(3) 0.1686(3)
C91_8 C 0.0847(4) 0.9391(3) 0.2400(4)
C92_8 C 0.1308(4) 0.9137(3) 0.2089(4)
C93_8 C 0.0538(3) 0.9610(3) 0.2422(5)
O65_8 O 0.1607(3) 0.8626(2) 0.3012(3)
C94_8 C 0.1022(3) 0.9363(3) 0.2107(4)
H31_8 H 0.095580 0.949282 0.191125
C95_8 C 0.1429(5) 0.8841(3) 0.1602(4)
C96_8 C 0.1241(4) 0.9024(3) 0.2682(4)
C97_8 C 0.1423(4) 0.8985(3) 0.2400(4)
H32_8 H 0.162995 0.885512 0.240475
C98_8 C 0.0950(3) 0.9232(3) 0.2692(3)
H33_8 H 0.082507 0.926109 0.289970
C99_8 C 0.1352(4) 0.8831(4) 0.3007(4)
O66_6 O 0.0324(2) 0.7304(2) 0.0386(2)
O67_8 O 0.0884(2) 0.8186(2) 0.1520(2)
O68_8 O 0.1110(3) 0.67196(18) 0.1172(2)
O69_6 O 0.0242(2) 0.7868(3) 0.0445(2)
N12_8 N 0.1351(3) 0.8314(3) 0.1187(2)
C100_8 C 0.0609(3) 0.7600(4) 0.0847(4)
C101_8 C 0.0863(3) 0.7911(4) 0.1308(4)
C102_8 C 0.0390(3) 0.7578(5) 0.0538(3)
O70_8 O 0.1374(2) 0.6988(3) 0.1607(3)
C103_8 C 0.0637(3) 0.7893(4) 0.1022(3)
H34_8 H 0.050718 0.808875 0.095580
C104_8 C 0.1159(3) 0.8398(4) 0.1429(5)
C105_8 C 0.0976(3) 0.7318(4) 0.1241(4)
C106_8 C 0.1015(3) 0.7600(4) 0.1423(4)
H35_8 H 0.114488 0.759525 0.162995
C107_8 C 0.0768(3) 0.7308(3) 0.0950(3)
H36_8 H 0.073891 0.710030 0.082507
C108_8 C 0.1169(4) 0.6993(4) 0.1352(4)
O79_16 O -0.000000 1.000000 0.3315(5)
O80_16 O 0.000000 1.000000 0.1523(4)
H79_2 H 0.340018 0.991764 0.0226406
Zn1_14 Zn 0.28043(7) 1.000000 1.000000
Zn2_14 Zn 0.20301(7) 1.000000 1.000000
O2_14 O 0.3315(5) 1.000000 1.000000
O6_14 O 0.1523(4) 1.000000 1.000000
O37_8 O 0.2696(2) 0.9676(2) 0.9614(2)
O38_8 O 0.1814(2) 0.9116(2) 0.8480(2)
O40_8 O 0.2132(3) 0.9758(2) 0.9555(2)
N7_8 N 0.1686(3) 0.8649(3) 0.8813(2)
C55_8 C 0.2400(4) 0.9391(3) 0.9153(4)
C56_8 C 0.2089(4) 0.9137(3) 0.8692(4)
C57_8 C 0.2422(5) 0.9610(3) 0.9462(3)
C58_8 C 0.2107(4) 0.9363(3) 0.8978(3)
H19_8 H 0.191125 0.949282 0.904420
C59_8 C 0.1602(4) 0.8841(3) 0.8571(5)
C60_8 C 0.2682(4) 0.9024(3) 0.8759(4)
C61_8 C 0.2400(4) 0.8985(3) 0.8577(4)
H20_8 H 0.240475 0.885512 0.837005
C62_8 C 0.2692(3) 0.9232(3) 0.9050(3)
H21_8 H 0.289970 0.926109 0.917493
C63_8 C 0.3007(4) 0.8831(4) 0.8648(4)
O44_6 O 0.0386(2) 0.7304(2) 0.9676(2)
O45_8 O 0.1520(2) 0.8186(2) 0.9116(2)
O46_8 O 0.1172(2) 0.67196(18) 0.8890(3)
O47_6 O 0.0445(2) 0.7868(3) 0.9758(2)
N8_8 N 0.1187(2) 0.8314(3) 0.8649(3)
C64_8 C 0.0847(4) 0.7600(4) 0.9391(3)
C65_8 C 0.1308(4) 0.7911(4) 0.9137(3)
C66_8 C 0.0538(3) 0.7578(5) 0.9610(3)
O48_8 O 0.1607(3) 0.6988(3) 0.8626(2)
C67_8 C 0.1022(3) 0.7893(4) 0.9363(3)
H22_8 H 0.095580 0.808875 0.949282
C68_8 C 0.1429(5) 0.8398(4) 0.8841(3)
C69_8 C 0.1241(4) 0.7318(4) 0.9024(3)
C70_8 C 0.1423(4) 0.7600(4) 0.8985(3)
H23_8 H 0.162995 0.759525 0.885512
C71_8 C 0.0950(3) 0.7308(3) 0.9232(3)
H24_8 H 0.082507 0.710030 0.926109
C72_8 C 0.1352(4) 0.6993(4) 0.8831(4)
O50_8 O 0.0884(2) 0.8480(2) 0.8186(2)
O51_8 O 0.1110(3) 0.8828(2) 0.67196(18)
N9_8 N 0.1351(3) 0.8813(2) 0.8314(3)
C73_8 C 0.0609(3) 0.9153(4) 0.7600(4)
C74_8 C 0.0863(3) 0.8692(4) 0.7911(4)
C75_8 C 0.0390(3) 0.9462(3) 0.7578(5)
O53_8 O 0.1374(2) 0.8393(3) 0.6988(3)
C76_8 C 0.0637(3) 0.8978(3) 0.7893(4)
H25_8 H 0.050718 0.904420 0.808875
C77_8 C 0.1159(3) 0.8571(5) 0.8398(4)
C78_8 C 0.0976(3) 0.8759(4) 0.7318(4)
C79_8 C 0.1015(3) 0.8577(4) 0.7600(4)
H26_8 H 0.114488 0.837005 0.759525
C80_8 C 0.0768(3) 0.9050(3) 0.7308(3)
H27_8 H 0.073891 0.917493 0.710030
C81_8 C 0.1169(4) 0.8648(4) 0.6993(4)
H78_2 H 0.143782 0.98849 0.978835
H80_2 H 0.340018 0.984511 0.981547
O79_17 O 1.000000 0.000000 0.3315(5)
O80_17 O 1.000000 0.000000 0.1523(4)
H73_2 H 0.991764 0.0226406 0.340018
H62_2 H 0.978835 0.143782 0.98849
H66_2 H 0.981547 0.340018 0.984511
O79_18 O 1.000000 1.000000 0.3315(5)
O80_18 O 1.000000 1.000000 0.1523(4)
H58_2 H 0.98849 0.978835 0.143782
H74_2 H 0.984511 0.981547 0.340018
H73_3 H 0.0082363 0.340018 0.0226406
H58_3 H 0.0115099 0.143782 0.978835
H74_3 H 0.0154892 0.340018 0.981547
H62_3 H 0.0211649 0.98849 0.143782
H66_3 H 0.0184531 0.984511 0.340018
H57_3 H 0.975916 0.143782 0.000614584
H61_3 H 0.999385 0.0240843 0.143782
H77_3 H 0.856218 0.000614584 0.0240843
H79_3 H 0.659982 0.0226406 0.991764
H65_3 H 0.977359 0.991764 0.340018
H78_3 H 0.856218 0.978835 0.98849
H80_3 H 0.659982 0.981547 0.984511
H62_4 H 0.0211649 0.0115099 0.856218
H66_4 H 0.0184531 0.0154892 0.659982
O79_19 O 0.000000 0.6685(5) 0.000000
O80_19 O 0.000000 0.8477(4) 0.000000
H58_4 H 0.0115099 0.856218 0.0211649
H74_4 H 0.0154892 0.659982 0.0184531
O79_20 O 0.000000 0.6685(5) 1.000000
O80_20 O 0.000000 0.8477(4) 1.000000
H73_4 H 0.0082363 0.659982 0.977359
H78_4 H 0.856218 0.0211649 0.0115099
H80_4 H 0.659982 0.0184531 0.0154892
H65_4 H 0.977359 0.0082363 0.659982
O79_21 O 1.000000 0.6685(5) 0.000000
O80_21 O 1.000000 0.8477(4) 0.000000
H79_4 H 0.659982 0.977359 0.0082363
O79_22 O 1.000000 0.6685(5) 1.000000
O80_22 O 1.000000 0.8477(4) 1.000000
H57_4 H 0.975916 0.856218 0.999385
H61_4 H 0.999385 0.975916 0.856218
H77_4 H 0.856218 0.999385 0.975916
H65_5 H 0.0226406 0.0082363 0.340018
H78_5 H 0.143782 0.0211649 0.98849
H80_5 H 0.340018 0.0184531 0.984511
H57_5 H 0.0240843 0.856218 0.000614584
H61_5 H 0.000614584 0.975916 0.143782
H77_5 H 0.143782 0.999385 0.0240843
H79_5 H 0.340018 0.977359 0.991764
H62_5 H 0.978835 0.0115099 0.143782
H66_5 H 0.981547 0.0154892 0.340018
H73_5 H 0.991764 0.659982 0.0226406
H58_5 H 0.98849 0.856218 0.978835
H74_5 H 0.984511 0.659982 0.981547
H79_6 H 0.340018 0.0226406 0.0082363
H57_6 H 0.0240843 0.143782 0.999385
H61_6 H 0.000614584 0.0240843 0.856218
H77_6 H 0.143782 0.000614584 0.975916
H78_6 H 0.143782 0.978835 0.0115099
H80_6 H 0.340018 0.981547 0.0154892
H65_6 H 0.0226406 0.991764 0.659982
H58_6 H 0.98849 0.143782 0.0211649
H74_6 H 0.984511 0.340018 0.0184531
H73_6 H 0.991764 0.340018 0.977359
H62_6 H 0.978835 0.98849 0.856218
H66_6 H 0.981547 0.984511 0.659982
H58_7 H 0.0115099 0.0211649 0.143782
H74_7 H 0.0154892 0.0184531 0.340018
H73_7 H 0.0082363 0.977359 0.340018
H62_7 H 0.0211649 0.856218 0.98849
H66_7 H 0.0184531 0.659982 0.984511
H79_7 H 0.659982 0.0082363 0.0226406
H78_7 H 0.856218 0.0115099 0.978835
H80_7 H 0.659982 0.0154892 0.981547
H57_7 H 0.975916 0.999385 0.143782
H61_7 H 0.999385 0.856218 0.0240843
H77_7 H 0.856218 0.975916 0.000614584
H65_7 H 0.977359 0.659982 0.991764
H78_8 H 0.143782 0.0115099 0.0211649
H80_8 H 0.340018 0.0154892 0.0184531
H79_8 H 0.340018 0.0082363 0.977359
H65_8 H 0.0226406 0.659982 0.0082363
H57_8 H 0.0240843 0.999385 0.856218
H61_8 H 0.000614584 0.856218 0.975916
H77_8 H 0.143782 0.975916 0.999385
H58_8 H 0.98849 0.0211649 0.856218
H74_8 H 0.984511 0.0184531 0.659982
H62_8 H 0.978835 0.856218 0.0115099
H66_8 H 0.981547 0.659982 0.0154892
H73_8 H 0.991764 0.977359 0.659982
O8_3 O 0.0949(3) 0.5949(3) 0.0949(3)
O9_3 O 0.2034(10) 0.7238(8) 0.1669(11)
O59_7 O 0.0949(3) 0.4051(3) 0.0949(3)
O60_7 O 0.2238(8) 0.2966(10) 0.1669(11)
O71_3 O 0.1669(11) 0.7034(10) 0.2238(8)
O72_3 O 0.2238(8) 0.6669(11) 0.2034(10)
O74_7 O 0.1669(11) 0.2762(8) 0.2034(10)
O75_7 O 0.2034(10) 0.3331(11) 0.2238(8)
O25_3 O 0.9051(3) 0.5949(3) 0.0949(3)
O26_3 O 0.7762(8) 0.7034(10) 0.1669(11)
O42_7 O 0.9051(3) 0.4051(3) 0.0949(3)
O43_7 O 0.7966(10) 0.2762(8) 0.1669(11)
O73_3 O 0.7966(10) 0.6669(11) 0.2238(8)
O76_3 O 0.8331(11) 0.7238(8) 0.2034(10)
O81_7 O 0.8331(11) 0.2966(10) 0.2238(8)
O82_7 O 0.7762(8) 0.3331(11) 0.2034(10)
O59_8 O 0.0949(3) 0.4051(3) 0.9051(3)
O60_8 O 0.2238(8) 0.3331(11) 0.7966(10)
O74_8 O 0.1669(11) 0.2966(10) 0.7762(8)
O75_8 O 0.2034(10) 0.2762(8) 0.8331(11)
O42_8 O 0.9051(3) 0.4051(3) 0.9051(3)
O43_8 O 0.7966(10) 0.3331(11) 0.7762(8)
O81_8 O 0.8331(11) 0.2762(8) 0.7966(10)
O82_8 O 0.7762(8) 0.2966(10) 0.8331(11)
O59_9 O 0.0949(3) 0.5949(3) 0.9051(3)
O60_9 O 0.2238(8) 0.7034(10) 0.8331(11)
O74_9 O 0.1669(11) 0.7238(8) 0.7966(10)
O75_9 O 0.2034(10) 0.6669(11) 0.7762(8)
O42_9 O 0.9051(3) 0.5949(3) 0.9051(3)
O43_9 O 0.7966(10) 0.7238(8) 0.8331(11)
O81_9 O 0.8331(11) 0.7034(10) 0.7762(8)
O82_9 O 0.7762(8) 0.6669(11) 0.7966(10)
O8_4 O 0.0949(3) 0.0949(3) 0.5949(3)
O9_4 O 0.2034(10) 0.2238(8) 0.6669(11)
O71_4 O 0.1669(11) 0.2034(10) 0.7238(8)
O72_4 O 0.2238(8) 0.1669(11) 0.7034(10)
O59_10 O 0.0949(3) 0.9051(3) 0.5949(3)
O60_10 O 0.2238(8) 0.7966(10) 0.6669(11)
O74_10 O 0.1669(11) 0.7762(8) 0.7034(10)
O75_10 O 0.2034(10) 0.8331(11) 0.7238(8)
O25_4 O 0.9051(3) 0.0949(3) 0.5949(3)
O26_4 O 0.7762(8) 0.2034(10) 0.6669(11)
O73_4 O 0.7966(10) 0.1669(11) 0.7238(8)
O76_4 O 0.8331(11) 0.2238(8) 0.7034(10)
O42_10 O 0.9051(3) 0.9051(3) 0.5949(3)
O43_10 O 0.7966(10) 0.7762(8) 0.6669(11)
O81_10 O 0.8331(11) 0.7966(10) 0.7238(8)
O82_10 O 0.7762(8) 0.8331(11) 0.7034(10)
O59_11 O 0.0949(3) 0.9051(3) 0.4051(3)
O60_11 O 0.2238(8) 0.8331(11) 0.2966(10)
O74_11 O 0.1669(11) 0.7966(10) 0.2762(8)
O75_11 O 0.2034(10) 0.7762(8) 0.3331(11)
O42_11 O 0.9051(3) 0.9051(3) 0.4051(3)
O43_11 O 0.7966(10) 0.8331(11) 0.2762(8)
O81_11 O 0.8331(11) 0.7762(8) 0.2966(10)
O82_11 O 0.7762(8) 0.7966(10) 0.3331(11)
O59_12 O 0.0949(3) 0.0949(3) 0.4051(3)
O60_12 O 0.2238(8) 0.2034(10) 0.3331(11)
O74_12 O 0.1669(11) 0.2238(8) 0.2966(10)
O75_12 O 0.2034(10) 0.1669(11) 0.2762(8)
O42_12 O 0.9051(3) 0.0949(3) 0.4051(3)
O43_12 O 0.7966(10) 0.2238(8) 0.3331(11)
O81_12 O 0.8331(11) 0.2034(10) 0.2762(8)
O82_12 O 0.7762(8) 0.1669(11) 0.2966(10)
loop_
_geom_bond_atom_site_label_1
_geom_bond_atom_site_label_2
_geom_bond_site_symmetry_1
_geom_bond_site_symmetry_2
O77 Zn11 1_555 1_555
O78 Zn12 1_555 1_555
O79 Zn13 1_555 1_555
O80 Zn14 1_555 1_555
O83 Zn11 1_555 1_555
O84 Zn11 1_555 1_555
O85 Zn13 1_555 1_555
O86 Zn13 1_555 1_555
O95 Zn12 1_555 1_555
O96 Zn12 1_555 1_555
O97 Zn14 1_555 1_555
O98 Zn14 1_555 1_555
Zn1 O1 1_555 1_555
Zn2 O5 1_555 1_555
Zn3 O4 1_555 1_555
Zn4 O7 1_555 1_555
O1 C3 1_555 1_555
O2 Zn1 1_555 1_555
O3 C2 1_555 1_555
O4 C9 1_555 1_555
O5 C3 1_555 1_555
N1 C5 1_555 1_555
O6 Zn2 1_555 1_555
C1 C3 1_555 1_555
C2 C4 1_555 1_555
O7 C9 1_555 1_555
C4 C1 1_555 1_555
H1 C4 1_555 1_555
C5 O3 1_555 1_555
C6 C7 1_555 1_555
C7 C2 1_555 1_555
H2 C7 1_555 1_555
C8 C1 1_555 1_555
H3 C8 1_555 1_555
C9 C6 1_555 1_555
O8 Zn3 1_555 1_555
O9 Zn4 1_555 1_555
O10 C12 1_555 1_555
O11 C11 1_555 1_555
O12 C18 1_555 1_555
O13 C12 1_555 1_555
N2 C14 1_555 1_555
C10 C12 1_555 1_555
C11 C13 1_555 1_555
O14 C18 1_555 1_555
C13 C10 1_555 1_555
H4 C13 1_555 1_555
C14 N1 1_555 1_555
C15 C16 1_555 1_555
C16 C11 1_555 1_555
H5 C16 1_555 1_555
C17 C10 1_555 1_555
H6 C17 1_555 1_555
C18 C15 1_555 1_555
O15 C21 1_555 1_555
O16 C20 1_555 1_555
O17 C27 1_555 1_555
O18 C21 1_555 1_555
N3 C5 1_555 1_555
C19 C21 1_555 1_555
C20 C22 1_555 1_555
O19 C27 1_555 1_555
C22 C19 1_555 1_555
H7 C22 1_555 1_555
C23 N2 1_555 1_555
C24 C25 1_555 1_555
C25 C20 1_555 1_555
H8 C25 1_555 1_555
C26 C19 1_555 1_555
H9 C26 1_555 1_555
C27 C24 1_555 1_555
Zn5 O22 1_555 1_555
Zn6 O24 1_555 1_555
O20 Zn1 1_555 1_555
O21 C29 1_555 1_555
O22 C36 1_555 1_555
O23 Zn2 1_555 1_555
N4 C32 1_555 1_555
C28 C30 1_555 1_555
C29 C31 1_555 1_555
C30 O20 1_555 1_555
O24 C36 1_555 1_555
C31 C28 1_555 1_555
H10 C31 1_555 1_555
C32 O21 1_555 1_555
C33 C34 1_555 1_555
C34 C29 1_555 1_555
H11 C34 1_555 1_555
C35 C28 1_555 1_555
H12 C35 1_555 1_555
C36 C33 1_555 1_555
O25 Zn5 1_555 1_555
O26 Zn6 1_555 1_555
O27 C39 1_555 1_555
O28 C38 1_555 1_555
O29 C45 1_555 1_555
O30 C39 1_555 1_555
N5 C41 1_555 1_555
C37 C39 1_555 1_555
C38 C40 1_555 1_555
O31 C45 1_555 1_555
C40 C37 1_555 1_555
H13 C40 1_555 1_555
C41 N4 1_555 1_555
C42 C43 1_555 1_555
C43 C38 1_555 1_555
H14 C43 1_555 1_555
C44 C37 1_555 1_555
H15 C44 1_555 1_555
C45 C42 1_555 1_555
O32 C48 1_555 1_555
O33 C47 1_555 1_555
O34 C54 1_555 1_555
O35 C48 1_555 1_555
N6 C32 1_555 1_555
C46 C48 1_555 1_555
C47 C49 1_555 1_555
O36 C54 1_555 1_555
C49 C46 1_555 1_555
H16 C49 1_555 1_555
C50 N5 1_555 1_555
C51 C52 1_555 1_555
C52 C47 1_555 1_555
H17 C52 1_555 1_555
C53 C46 1_555 1_555
H18 C53 1_555 1_555
C54 C51 1_555 1_555
Zn7 O39 1_555 1_555
Zn8 O41 1_555 1_555
O37 Zn1 1_555 1_555
O38 C56 1_555 1_555
O39 C63 1_555 1_555
O40 Zn2 1_555 1_555
N7 C59 1_555 1_555
C55 C57 1_555 1_555
C56 C58 1_555 1_555
C57 O37 1_555 1_555
O41 C63 1_555 1_555
C58 C55 1_555 1_555
H19 C58 1_555 1_555
C59 O38 1_555 1_555
C60 C61 1_555 1_555
C61 C56 1_555 1_555
H20 C61 1_555 1_555
C62 C55 1_555 1_555
H21 C62 1_555 1_555
C63 C60 1_555 1_555
O42 Zn7 1_555 1_555
O43 Zn8 1_555 1_555
O44 C66 1_555 1_555
O45 C65 1_555 1_555
O46 C72 1_555 1_555
O47 C66 1_555 1_555
N8 C68 1_555 1_555
C64 C66 1_555 1_555
C65 C67 1_555 1_555
O48 C72 1_555 1_555
C67 C64 1_555 1_555
H22 C67 1_555 1_555
C68 N7 1_555 1_555
C69 C70 1_555 1_555
C70 C65 1_555 1_555
H23 C70 1_555 1_555
C71 C64 1_555 1_555
H24 C71 1_555 1_555
C72 C69 1_555 1_555
O49 C75 1_555 1_555
O50 C74 1_555 1_555
O51 C81 1_555 1_555
O52 C75 1_555 1_555
N9 C59 1_555 1_555
C73 C75 1_555 1_555
C74 C76 1_555 1_555
O53 C81 1_555 1_555
C76 C73 1_555 1_555
H25 C76 1_555 1_555
C77 N8 1_555 1_555
C78 C79 1_555 1_555
C79 C74 1_555 1_555
H26 C79 1_555 1_555
C80 C73 1_555 1_555
H27 C80 1_555 1_555
C81 C78 1_555 1_555
Zn9 O56 1_555 1_555
Zn10 O58 1_555 1_555
O54 Zn1 1_555 1_555
O55 C83 1_555 1_555
O56 C90 1_555 1_555
O57 Zn2 1_555 1_555
N10 C86 1_555 1_555
C82 C84 1_555 1_555
C83 C85 1_555 1_555
C84 O54 1_555 1_555
O58 C90 1_555 1_555
C85 C82 1_555 1_555
H28 C85 1_555 1_555
C86 O55 1_555 1_555
C87 C88 1_555 1_555
C88 C83 1_555 1_555
H29 C88 1_555 1_555
C89 C82 1_555 1_555
H30 C89 1_555 1_555
C90 C87 1_555 1_555
O59 Zn9 1_555 1_555
O60 Zn10 1_555 1_555
O61 C93 1_555 1_555
O62 C92 1_555 1_555
O63 C99 1_555 1_555
O64 C93 1_555 1_555
N11 C95 1_555 1_555
C91 C93 1_555 1_555
C92 C94 1_555 1_555
O65 C99 1_555 1_555
C94 C91 1_555 1_555
H31 C94 1_555 1_555
C95 N10 1_555 1_555
C96 C97 1_555 1_555
C97 C92 1_555 1_555
H32 C97 1_555 1_555
C98 C91 1_555 1_555
H33 C98 1_555 1_555
C99 C96 1_555 1_555
O66 C102 1_555 1_555
O67 C101 1_555 1_555
O68 C108 1_555 1_555
O69 C102 1_555 1_555
N12 C86 1_555 1_555
C100 C102 1_555 1_555
C101 C103 1_555 1_555
O70 C108 1_555 1_555
C103 C100 1_555 1_555
H34 C103 1_555 1_555
C104 N11 1_555 1_555
C105 C106 1_555 1_555
C106 C101 1_555 1_555
H35 C106 1_555 1_555
C107 C100 1_555 1_555
H36 C107 1_555 1_555
C108 C105 1_555 1_555
O71 Zn4 1_555 1_555
O72 Zn4 1_555 1_555
O73 Zn6 1_555 1_555
O74 Zn10 1_555 1_555
O75 Zn10 1_555 1_555
O76 Zn6 1_555 1_555
Zn11_2 O10 1_555 1_555
O77_2 Zn11_2 1_555 1_555
Zn12_2 O13 1_555 1_555
O78_2 Zn12_2 1_555 1_555
Zn13_2 O15 1_555 1_555
O79_2 Zn13_2 1_555 1_555
Zn14_2 O18 1_555 1_555
O80_2 Zn14_2 1_555 1_555
O81 Zn8 1_555 1_555
O82 Zn8 1_555 1_555
Zn15_2 O44 1_555 1_555
Zn16_2 O27 1_555 1_555
Zn17_2 O47 1_555 1_555
Zn18_2 O30 1_555 1_555
Zn19 O12 1_555 1_555
Zn20 O68 1_555 1_555
Zn21 O46 1_555 1_555
Zn22 O34 1_555 1_555
Zn23 O51 1_555 1_555
Zn24 O29 1_555 1_555
Zn25 O17 1_555 1_555
Zn26 O63 1_555 1_555
Zn27 O14 1_555 1_555
Zn28 O70 1_555 1_555
Zn29 O48 1_555 1_555
Zn30 O36 1_555 1_555
Zn31 O53 1_555 1_555
Zn32 O31 1_555 1_555
Zn33 O19 1_555 1_555
Zn34 O65 1_555 1_555
O87 Zn9 1_555 1_555
O88 Zn5 1_555 1_555
O89 Zn3 1_555 1_555
O90 Zn3 1_555 1_555
O91 Zn7 1_555 1_555
O92 Zn7 1_555 1_555
O93 Zn5 1_555 1_555
O94 Zn9 1_555 1_555
O99 Zn10 1_555 1_555
O100 Zn6 1_555 1_555
O101 Zn4 1_555 1_555
O102 Zn4 1_555 1_555
O103 Zn8 1_555 1_555
O104 Zn8 1_555 1_555
O105 Zn6 1_555 1_555
O106 Zn10 1_555 1_555
C6 C8 1_555 1_555
O11 C14 1_555 1_555
C15 C17 1_555 1_555
O16 C23 1_555 1_555
N3 C23 1_555 1_555
C24 C26 1_555 1_555
O23 C30 1_555 1_555
C33 C35 1_555 1_555
O28 C41 1_555 1_555
C42 C44 1_555 1_555
O32 Zn11_2 1_555 1_555
O33 C50 1_555 1_555
O35 Zn12_2 1_555 1_555
N6 C50 1_555 1_555
C51 C53 1_555 1_555
O40 C57 1_555 1_555
C60 C62 1_555 1_555
O45 C68 1_555 1_555
C69 C71 1_555 1_555
O49 Zn16_2 1_555 1_555
O50 C77 1_555 1_555
O52 Zn18_2 1_555 1_555
N9 C77 1_555 1_555
C78 C80 1_555 1_555
O57 C84 1_555 1_555
C87 C89 1_555 1_555
O61 Zn13_2 1_555 1_555
O62 C95 1_555 1_555
O64 Zn14_2 1_555 1_555
C96 C98 1_555 1_555
O66 Zn15_2 1_555 1_555
O67 C104 1_555 1_555
O69 Zn17_2 1_555 1_555
N12 C104 1_555 1_555
C105 C107 1_555 1_555
O77_3 Zn16 1_555 1_555
O78_3 Zn18 1_555 1_555
O83_2 Zn16 1_555 1_555
O84_2 Zn16 1_555 1_555
O95_2 Zn18 1_555 1_555
O96_2 Zn18 1_555 1_555
O77_4 Zn16_2 1_555 1_555
O78_4 Zn18_2 1_555 1_555
O77_5 Zn15 1_555 1_555
O78_5 Zn17 1_555 1_555
O83_3 Zn15 1_555 1_555
O84_3 Zn15 1_555 1_555
O95_3 Zn17 1_555 1_555
O96_3 Zn17 1_555 1_555
O77_6 Zn15_2 1_555 1_555
O78_6 Zn17_2 1_555 1_555
Zn1_2 O1_2 1_555 1_555
Zn2_2 O5_2 1_555 1_555
O1_2 C3_2 1_555 1_555
O2_2 Zn1_2 1_555 1_555
O3_2 C2_2 1_555 1_555
O87 C9_2 1_555 1_555
O5_2 C3_2 1_555 1_555
N1_2 C5_2 1_555 1_555
O6_2 Zn2_2 1_555 1_555
C1_2 C3_2 1_555 1_555
C2_2 C4_2 1_555 1_555
O99 C9_2 1_555 1_555
C4_2 C1_2 1_555 1_555
H1_2 C4_2 1_555 1_555
C5_2 O3_2 1_555 1_555
C6_2 C7_2 1_555 1_555
C7_2 C2_2 1_555 1_555
H2_2 C7_2 1_555 1_555
C8_2 C1_2 1_555 1_555
H3_2 C8_2 1_555 1_555
C9_2 C6_2 1_555 1_555
O10_2 C12_2 1_555 1_555
O11_2 C11_2 1_555 1_555
O12_2 C18_2 1_555 1_555
O13_2 C12_2 1_555 1_555
N2_2 C14_2 1_555 1_555
C10_2 C12_2 1_555 1_555
C11_2 C13_2 1_555 1_555
O14_2 C18_2 1_555 1_555
C13_2 C10_2 1_555 1_555
H4_2 C13_2 1_555 1_555
C14_2 N1_2 1_555 1_555
C15_2 C16_2 1_555 1_555
C16_2 C11_2 1_555 1_555
H5_2 C16_2 1_555 1_555
C17_2 C10_2 1_555 1_555
H6_2 C17_2 1_555 1_555
C18_2 C15_2 1_555 1_555
O15_2 C21_2 1_555 1_555
O16_2 C20_2 1_555 1_555
O17_2 C27_2 1_555 1_555
O18_2 C21_2 1_555 1_555
N3_2 C5_2 1_555 1_555
C19_2 C21_2 1_555 1_555
C20_2 C22_2 1_555 1_555
O19_2 C27_2 1_555 1_555
C22_2 C19_2 1_555 1_555
H7_2 C22_2 1_555 1_555
C23_2 N2_2 1_555 1_555
C24_2 C25_2 1_555 1_555
C25_2 C20_2 1_555 1_555
H8_2 C25_2 1_555 1_555
C26_2 C19_2 1_555 1_555
H9_2 C26_2 1_555 1_555
C27_2 C24_2 1_555 1_555
O20_2 Zn1_2 1_555 1_555
O21_2 C29_2 1_555 1_555
O91 C36_2 1_555 1_555
O23_2 Zn2_2 1_555 1_555
N4_2 C32_2 1_555 1_555
C28_2 C30_2 1_555 1_555
C29_2 C31_2 1_555 1_555
C30_2 O20_2 1_555 1_555
O103 C36_2 1_555 1_555
C31_2 C28_2 1_555 1_555
H10_2 C31_2 1_555 1_555
C32_2 O21_2 1_555 1_555
C33_2 C34_2 1_555 1_555
C34_2 C29_2 1_555 1_555
H11_2 C34_2 1_555 1_555
C35_2 C28_2 1_555 1_555
H12_2 C35_2 1_555 1_555
C36_2 C33_2 1_555 1_555
O27_2 C39_2 1_555 1_555
O28_2 C38_2 1_555 1_555
O29_2 C45_2 1_555 1_555
O30_2 C39_2 1_555 1_555
N5_2 C41_2 1_555 1_555
C37_2 C39_2 1_555 1_555
C38_2 C40_2 1_555 1_555
O31_2 C45_2 1_555 1_555
C40_2 C37_2 1_555 1_555
H13_2 C40_2 1_555 1_555
C41_2 N4_2 1_555 1_555
C42_2 C43_2 1_555 1_555
C43_2 C38_2 1_555 1_555
H14_2 C43_2 1_555 1_555
C44_2 C37_2 1_555 1_555
H15_2 C44_2 1_555 1_555
C45_2 C42_2 1_555 1_555
O32_2 C48_2 1_555 1_555
O33_2 C47_2 1_555 1_555
O34_2 C54_2 1_555 1_555
O35_2 C48_2 1_555 1_555
N6_2 C32_2 1_555 1_555
C46_2 C48_2 1_555 1_555
C47_2 C49_2 1_555 1_555
O36_2 C54_2 1_555 1_555
C49_2 C46_2 1_555 1_555
H16_2 C49_2 1_555 1_555
C50_2 N5_2 1_555 1_555
C51_2 C52_2 1_555 1_555
C52_2 C47_2 1_555 1_555
H17_2 C52_2 1_555 1_555
C53_2 C46_2 1_555 1_555
H18_2 C53_2 1_555 1_555
C54_2 C51_2 1_555 1_555
Zn7_2 O39_2 1_555 1_555
Zn8_2 O41_2 1_555 1_555
O37_2 Zn1_2 1_555 1_555
O38_2 C56_2 1_555 1_555
O39_2 C63_2 1_555 1_555
O40_2 Zn2_2 1_555 1_555
N7_2 C59_2 1_555 1_555
C55_2 C57_2 1_555 1_555
C56_2 C58_2 1_555 1_555
C57_2 O37_2 1_555 1_555
O41_2 C63_2 1_555 1_555
C58_2 C55_2 1_555 1_555
H19_2 C58_2 1_555 1_555
C59_2 O38_2 1_555 1_555
C60_2 C61_2 1_555 1_555
C61_2 C56_2 1_555 1_555
H20_2 C61_2 1_555 1_555
C62_2 C55_2 1_555 1_555
H21_2 C62_2 1_555 1_555
C63_2 C60_2 1_555 1_555
O42_2 Zn7_2 1_555 1_555
O43_2 Zn8_2 1_555 1_555
O44_2 C66_2 1_555 1_555
O45_2 C65_2 1_555 1_555
O46_2 C72_2 1_555 1_555
O47_2 C66_2 1_555 1_555
N8_2 C68_2 1_555 1_555
C64_2 C66_2 1_555 1_555
C65_2 C67_2 1_555 1_555
O48_2 C72_2 1_555 1_555
C67_2 C64_2 1_555 1_555
H22_2 C67_2 1_555 1_555
C68_2 N7_2 1_555 1_555
C69_2 C70_2 1_555 1_555
C70_2 C65_2 1_555 1_555
H23_2 C70_2 1_555 1_555
C71_2 C64_2 1_555 1_555
H24_2 C71_2 1_555 1_555
C72_2 C69_2 1_555 1_555
O49_2 C75_2 1_555 1_555
O50_2 C74_2 1_555 1_555
O51_2 C81_2 1_555 1_555
O52_2 C75_2 1_555 1_555
N9_2 C59_2 1_555 1_555
C73_2 C75_2 1_555 1_555
C74_2 C76_2 1_555 1_555
O53_2 C81_2 1_555 1_555
C76_2 C73_2 1_555 1_555
H25_2 C76_2 1_555 1_555
C77_2 N8_2 1_555 1_555
C78_2 C79_2 1_555 1_555
C79_2 C74_2 1_555 1_555
H26_2 C79_2 1_555 1_555
C80_2 C73_2 1_555 1_555
H27_2 C80_2 1_555 1_555
C81_2 C78_2 1_555 1_555
Zn9_2 O56_2 1_555 1_555
Zn10_2 O58_2 1_555 1_555
O54_2 Zn1_2 1_555 1_555
O55_2 C83_2 1_555 1_555
O56_2 C90_2 1_555 1_555
O57_2 Zn2_2 1_555 1_555
N10_2 C86_2 1_555 1_555
C82_2 C84_2 1_555 1_555
C83_2 C85_2 1_555 1_555
C84_2 O54_2 1_555 1_555
O58_2 C90_2 1_555 1_555
C85_2 C82_2 1_555 1_555
H28_2 C85_2 1_555 1_555
C86_2 O55_2 1_555 1_555
C87_2 C88_2 1_555 1_555
C88_2 C83_2 1_555 1_555
H29_2 C88_2 1_555 1_555
C89_2 C82_2 1_555 1_555
H30_2 C89_2 1_555 1_555
C90_2 C87_2 1_555 1_555
O59_2 Zn9_2 1_555 1_555
O60_2 Zn10_2 1_555 1_555
O61_2 C93_2 1_555 1_555
O62_2 C92_2 1_555 1_555
O63_2 C99_2 1_555 1_555
O64_2 C93_2 1_555 1_555
N11_2 C95_2 1_555 1_555
C91_2 C93_2 1_555 1_555
C92_2 C94_2 1_555 1_555
O65_2 C99_2 1_555 1_555
C94_2 C91_2 1_555 1_555
H31_2 C94_2 1_555 1_555
C95_2 N10_2 1_555 1_555
C96_2 C97_2 1_555 1_555
C97_2 C92_2 1_555 1_555
H32_2 C97_2 1_555 1_555
C98_2 C91_2 1_555 1_555
H33_2 C98_2 1_555 1_555
C99_2 C96_2 1_555 1_555
O66_2 C102_2 1_555 1_555
O67_2 C101_2 1_555 1_555
O68_2 C108_2 1_555 1_555
O69_2 C102_2 1_555 1_555
N12_2 C86_2 1_555 1_555
C100_2 C102_2 1_555 1_555
C101_2 C103_2 1_555 1_555
O70_2 C108_2 1_555 1_555
C103_2 C100_2 1_555 1_555
H34_2 C103_2 1_555 1_555
C104_2 N11_2 1_555 1_555
C105_2 C106_2 1_555 1_555
C106_2 C101_2 1_555 1_555
H35_2 C106_2 1_555 1_555
C107_2 C100_2 1_555 1_555
H36_2 C107_2 1_555 1_555
C108_2 C105_2 1_555 1_555
O74_2 Zn10_2 1_555 1_555
O75_2 Zn10_2 1_555 1_555
Zn11_3 O10_2 1_555 1_555
O77_7 Zn11_3 1_555 1_555
Zn12_3 O13_2 1_555 1_555
O78_7 Zn12_3 1_555 1_555
Zn13_3 O15_2 1_555 1_555
O79_3 Zn13_3 1_555 1_555
Zn14_3 O18_2 1_555 1_555
O80_3 Zn14_3 1_555 1_555
O81_2 Zn8_2 1_555 1_555
O82_2 Zn8_2 1_555 1_555
Zn15_3 O44_2 1_555 1_555
Zn16_3 O27_2 1_555 1_555
Zn17_3 O47_2 1_555 1_555
Zn18_3 O30_2 1_555 1_555
Zn20 O12_2 1_555 1_555
Zn20_2 O68_2 1_555 1_555
Zn21_2 O46_2 1_555 1_555
Zn21 O34_2 1_555 1_555
Zn23_2 O51_2 1_555 1_555
Zn24_2 O29_2 1_555 1_555
Zn25_2 O17_2 1_555 1_555
Zn26_2 O63_2 1_555 1_555
Zn28 O14_2 1_555 1_555
Zn28_2 O70_2 1_555 1_555
Zn29_2 O48_2 1_555 1_555
Zn29 O36_2 1_555 1_555
Zn31_2 O53_2 1_555 1_555
Zn32_2 O31_2 1_555 1_555
Zn33_2 O19_2 1_555 1_555
Zn34_2 O65_2 1_555 1_555
O87_2 Zn9_2 1_555 1_555
O91_2 Zn7_2 1_555 1_555
O92_2 Zn7_2 1_555 1_555
O94_2 Zn9_2 1_555 1_555
O99_2 Zn10_2 1_555 1_555
O103_2 Zn8_2 1_555 1_555
O104_2 Zn8_2 1_555 1_555
O106_2 Zn10_2 1_555 1_555
C6_2 C8_2 1_555 1_555
O11_2 C14_2 1_555 1_555
C15_2 C17_2 1_555 1_555
O16_2 C23_2 1_555 1_555
N3_2 C23_2 1_555 1_555
C24_2 C26_2 1_555 1_555
O23_2 C30_2 1_555 1_555
C33_2 C35_2 1_555 1_555
O28_2 C41_2 1_555 1_555
C42_2 C44_2 1_555 1_555
O32_2 Zn11_3 1_555 1_555
O33_2 C50_2 1_555 1_555
O35_2 Zn12_3 1_555 1_555
N6_2 C50_2 1_555 1_555
C51_2 C53_2 1_555 1_555
O40_2 C57_2 1_555 1_555
C60_2 C62_2 1_555 1_555
O45_2 C68_2 1_555 1_555
C69_2 C71_2 1_555 1_555
O49_2 Zn16_3 1_555 1_555
O50_2 C77_2 1_555 1_555
O52_2 Zn18_3 1_555 1_555
N9_2 C77_2 1_555 1_555
C78_2 C80_2 1_555 1_555
O57_2 C84_2 1_555 1_555
C87_2 C89_2 1_555 1_555
O61_2 Zn13_3 1_555 1_555
O62_2 C95_2 1_555 1_555
O64_2 Zn14_3 1_555 1_555
C96_2 C98_2 1_555 1_555
O66_2 Zn15_3 1_555 1_555
O67_2 C104_2 1_555 1_555
O69_2 Zn17_3 1_555 1_555
N12_2 C104_2 1_555 1_555
C105_2 C107_2 1_555 1_555
O77_8 Zn11_4 1_555 1_555
O78_8 Zn12_4 1_555 1_555
O79_4 Zn13_4 1_555 1_555
O80_4 Zn14_4 1_555 1_555
O83_4 Zn11_4 1_555 1_555
O84_4 Zn11_4 1_555 1_555
O85_2 Zn13_4 1_555 1_555
O86_2 Zn13_4 1_555 1_555
O95_4 Zn12_4 1_555 1_555
O96_4 Zn12_4 1_555 1_555
O97_2 Zn14_4 1_555 1_555
O98_2 Zn14_4 1_555 1_555
Zn1_3 O1_3 1_555 1_555
Zn2_3 O5_3 1_555 1_555
O1_3 C3_3 1_555 1_555
O2_3 Zn1_3 1_555 1_555
O3_3 C2_3 1_555 1_555
O87_2 C9_3 1_555 1_555
O5_3 C3_3 1_555 1_555
N1_3 C5_3 1_555 1_555
O6_3 Zn2_3 1_555 1_555
C1_3 C3_3 1_555 1_555
C2_3 C4_3 1_555 1_555
O99_2 C9_3 1_555 1_555
C4_3 C1_3 1_555 1_555
H1_3 C4_3 1_555 1_555
C5_3 O3_3 1_555 1_555
C6_3 C7_3 1_555 1_555
C7_3 C2_3 1_555 1_555
H2_3 C7_3 1_555 1_555
C8_3 C1_3 1_555 1_555
H3_3 C8_3 1_555 1_555
C9_3 C6_3 1_555 1_555
O84_3 C12_3 1_555 1_555
O11_3 C11_3 1_555 1_555
O12_3 C18_3 1_555 1_555
O96_3 C12_3 1_555 1_555
N2_3 C14_3 1_555 1_555
C10_3 C12_3 1_555 1_555
C11_3 C13_3 1_555 1_555
O14_3 C18_3 1_555 1_555
C13_3 C10_3 1_555 1_555
H4_3 C13_3 1_555 1_555
C14_3 N1_3 1_555 1_555
C15_3 C16_3 1_555 1_555
C16_3 C11_3 1_555 1_555
H5_3 C16_3 1_555 1_555
C17_3 C10_3 1_555 1_555
H6_3 C17_3 1_555 1_555
C18_3 C15_3 1_555 1_555
O86 C21_3 1_555 1_555
O16_3 C20_3 1_555 1_555
O17_3 C27_3 1_555 1_555
O98 C21_3 1_555 1_555
N3_3 C5_3 1_555 1_555
C19_3 C21_3 1_555 1_555
C20_3 C22_3 1_555 1_555
O19_3 C27_3 1_555 1_555
C22_3 C19_3 1_555 1_555
H7_3 C22_3 1_555 1_555
C23_3 N2_3 1_555 1_555
C24_3 C25_3 1_555 1_555
C25_3 C20_3 1_555 1_555
H8_3 C25_3 1_555 1_555
C26_3 C19_3 1_555 1_555
H9_3 C26_3 1_555 1_555
C27_3 C24_3 1_555 1_555
O20_3 Zn1_3 1_555 1_555
O21_3 C29_3 1_555 1_555
O91_2 C36_3 1_555 1_555
O23_3 Zn2_3 1_555 1_555
N4_3 C32_3 1_555 1_555
C28_3 C30_3 1_555 1_555
C29_3 C31_3 1_555 1_555
C30_3 O20_3 1_555 1_555
O103_2 C36_3 1_555 1_555
C31_3 C28_3 1_555 1_555
H10_3 C31_3 1_555 1_555
C32_3 O21_3 1_555 1_555
C33_3 C34_3 1_555 1_555
C34_3 C29_3 1_555 1_555
H11_3 C34_3 1_555 1_555
C35_3 C28_3 1_555 1_555
H12_3 C35_3 1_555 1_555
C36_3 C33_3 1_555 1_555
O84_2 C39_3 1_555 1_555
O28_3 C38_3 1_555 1_555
O29_3 C45_3 1_555 1_555
O96_2 C39_3 1_555 1_555
N5_3 C41_3 1_555 1_555
C37_3 C39_3 1_555 1_555
C38_3 C40_3 1_555 1_555
O31_3 C45_3 1_555 1_555
C40_3 C37_3 1_555 1_555
H13_3 C40_3 1_555 1_555
C41_3 N4_3 1_555 1_555
C42_3 C43_3 1_555 1_555
C43_3 C38_3 1_555 1_555
H14_3 C43_3 1_555 1_555
C44_3 C37_3 1_555 1_555
H15_3 C44_3 1_555 1_555
C45_3 C42_3 1_555 1_555
O83_3 C48_3 1_555 1_555
O33_3 C47_3 1_555 1_555
O34_3 C54_3 1_555 1_555
O95_3 C48_3 1_555 1_555
N6_3 C32_3 1_555 1_555
C46_3 C48_3 1_555 1_555
C47_3 C49_3 1_555 1_555
O36_3 C54_3 1_555 1_555
C49_3 C46_3 1_555 1_555
H16_3 C49_3 1_555 1_555
C50_3 N5_3 1_555 1_555
C51_3 C52_3 1_555 1_555
C52_3 C47_3 1_555 1_555
H17_3 C52_3 1_555 1_555
C53_3 C46_3 1_555 1_555
H18_3 C53_3 1_555 1_555
C54_3 C51_3 1_555 1_555
Zn7_3 O39_3 1_555 1_555
Zn8_3 O41_3 1_555 1_555
O37_3 Zn1_3 1_555 1_555
O38_3 C56_3 1_555 1_555
O39_3 C63_3 1_555 1_555
O40_3 Zn2_3 1_555 1_555
N7_3 C59_3 1_555 1_555
C55_3 C57_3 1_555 1_555
C56_3 C58_3 1_555 1_555
C57_3 O37_3 1_555 1_555
O41_3 C63_3 1_555 1_555
C58_3 C55_3 1_555 1_555
H19_3 C58_3 1_555 1_555
C59_3 O38_3 1_555 1_555
C60_3 C61_3 1_555 1_555
C61_3 C56_3 1_555 1_555
H20_3 C61_3 1_555 1_555
C62_3 C55_3 1_555 1_555
H21_3 C62_3 1_555 1_555
C63_3 C60_3 1_555 1_555
O42_3 Zn7_3 1_555 1_555
O43_3 Zn8_3 1_555 1_555
O84 C66_3 1_555 1_555
O45_3 C65_3 1_555 1_555
O46_3 C72_3 1_555 1_555
O96 C66_3 1_555 1_555
N8_3 C68_3 1_555 1_555
C64_3 C66_3 1_555 1_555
C65_3 C67_3 1_555 1_555
O48_3 C72_3 1_555 1_555
C67_3 C64_3 1_555 1_555
H22_3 C67_3 1_555 1_555
C68_3 N7_3 1_555 1_555
C69_3 C70_3 1_555 1_555
C70_3 C65_3 1_555 1_555
H23_3 C70_3 1_555 1_555
C71_3 C64_3 1_555 1_555
H24_3 C71_3 1_555 1_555
C72_3 C69_3 1_555 1_555
O83_2 C75_3 1_555 1_555
O50_3 C74_3 1_555 1_555
O51_3 C81_3 1_555 1_555
O95_2 C75_3 1_555 1_555
N9_3 C59_3 1_555 1_555
C73_3 C75_3 1_555 1_555
C74_3 C76_3 1_555 1_555
O53_3 C81_3 1_555 1_555
C76_3 C73_3 1_555 1_555
H25_3 C76_3 1_555 1_555
C77_3 N8_3 1_555 1_555
C78_3 C79_3 1_555 1_555
C79_3 C74_3 1_555 1_555
H26_3 C79_3 1_555 1_555
C80_3 C73_3 1_555 1_555
H27_3 C80_3 1_555 1_555
C81_3 C78_3 1_555 1_555
Zn9_3 O56_3 1_555 1_555
Zn10_3 O58_3 1_555 1_555
O54_3 Zn1_3 1_555 1_555
O55_3 C83_3 1_555 1_555
O56_3 C90_3 1_555 1_555
O57_3 Zn2_3 1_555 1_555
N10_3 C86_3 1_555 1_555
C82_3 C84_3 1_555 1_555
C83_3 C85_3 1_555 1_555
C84_3 O54_3 1_555 1_555
O58_3 C90_3 1_555 1_555
C85_3 C82_3 1_555 1_555
H28_3 C85_3 1_555 1_555
C86_3 O55_3 1_555 1_555
C87_3 C88_3 1_555 1_555
C88_3 C83_3 1_555 1_555
H29_3 C88_3 1_555 1_555
C89_3 C82_3 1_555 1_555
H30_3 C89_3 1_555 1_555
C90_3 C87_3 1_555 1_555
O59_3 Zn9_3 1_555 1_555
O60_3 Zn10_3 1_555 1_555
O85 C93_3 1_555 1_555
O62_3 C92_3 1_555 1_555
O63_3 C99_3 1_555 1_555
O97 C93_3 1_555 1_555
N11_3 C95_3 1_555 1_555
C91_3 C93_3 1_555 1_555
C92_3 C94_3 1_555 1_555
O65_3 C99_3 1_555 1_555
C94_3 C91_3 1_555 1_555
H31_3 C94_3 1_555 1_555
C95_3 N10_3 1_555 1_555
C96_3 C97_3 1_555 1_555
C97_3 C92_3 1_555 1_555
H32_3 C97_3 1_555 1_555
C98_3 C91_3 1_555 1_555
H33_3 C98_3 1_555 1_555
C99_3 C96_3 1_555 1_555
O83 C102_3 1_555 1_555
O67_3 C101_3 1_555 1_555
O68_3 C108_3 1_555 1_555
O95 C102_3 1_555 1_555
N12_3 C86_3 1_555 1_555
C100_3 C102_3 1_555 1_555
C101_3 C103_3 1_555 1_555
O70_3 C108_3 1_555 1_555
C103_3 C100_3 1_555 1_555
H34_3 C103_3 1_555 1_555
C104_3 N11_3 1_555 1_555
C105_3 C106_3 1_555 1_555
C106_3 C101_3 1_555 1_555
H35_3 C106_3 1_555 1_555
C107_3 C100_3 1_555 1_555
H36_3 C107_3 1_555 1_555
C108_3 C105_3 1_555 1_555
O74_3 Zn10_3 1_555 1_555
O75_3 Zn10_3 1_555 1_555
O81_3 Zn8_3 1_555 1_555
O82_3 Zn8_3 1_555 1_555
Zn20_2 O12_3 1_555 1_555
Zn20_3 O68_3 1_555 1_555
Zn21_3 O46_3 1_555 1_555
Zn21_2 O34_3 1_555 1_555
Zn23_3 O51_3 1_555 1_555
Zn24_3 O29_3 1_555 1_555
Zn25_3 O17_3 1_555 1_555
Zn26_3 O63_3 1_555 1_555
Zn28_2 O14_3 1_555 1_555
Zn28_3 O70_3 1_555 1_555
Zn29_3 O48_3 1_555 1_555
Zn29_2 O36_3 1_555 1_555
Zn31_3 O53_3 1_555 1_555
Zn32_3 O31_3 1_555 1_555
Zn33_3 O19_3 1_555 1_555
Zn34_3 O65_3 1_555 1_555
O87_3 Zn9_3 1_555 1_555
O91_3 Zn7_3 1_555 1_555
O92_3 Zn7_3 1_555 1_555
O94_3 Zn9_3 1_555 1_555
O99_3 Zn10_3 1_555 1_555
O103_3 Zn8_3 1_555 1_555
O104_3 Zn8_3 1_555 1_555
O106_3 Zn10_3 1_555 1_555
C6_3 C8_3 1_555 1_555
O11_3 C14_3 1_555 1_555
C15_3 C17_3 1_555 1_555
O16_3 C23_3 1_555 1_555
N3_3 C23_3 1_555 1_555
C24_3 C26_3 1_555 1_555
O23_3 C30_3 1_555 1_555
C33_3 C35_3 1_555 1_555
O28_3 C41_3 1_555 1_555
C42_3 C44_3 1_555 1_555
O33_3 C50_3 1_555 1_555
N6_3 C50_3 1_555 1_555
C51_3 C53_3 1_555 1_555
O40_3 C57_3 1_555 1_555
C60_3 C62_3 1_555 1_555
O45_3 C68_3 1_555 1_555
C69_3 C71_3 1_555 1_555
O50_3 C77_3 1_555 1_555
N9_3 C77_3 1_555 1_555
C78_3 C80_3 1_555 1_555
O57_3 C84_3 1_555 1_555
C87_3 C89_3 1_555 1_555
O62_3 C95_3 1_555 1_555
C96_3 C98_3 1_555 1_555
O67_3 C104_3 1_555 1_555
N12_3 C104_3 1_555 1_555
C105_3 C107_3 1_555 1_555
O77_9 Zn15_3 1_555 1_555
O78_9 Zn17_3 1_555 1_555
Zn1_4 O1_4 1_555 1_555
Zn2_4 O5_4 1_555 1_555
O1_4 C3_4 1_555 1_555
O2_4 Zn1_4 1_555 1_555
O3_4 C2_4 1_555 1_555
O87_3 C9_4 1_555 1_555
O5_4 C3_4 1_555 1_555
N1_4 C5_4 1_555 1_555
O6_4 Zn2_4 1_555 1_555
C1_4 C3_4 1_555 1_555
C2_4 C4_4 1_555 1_555
O99_3 C9_4 1_555 1_555
C4_4 C1_4 1_555 1_555
H1_4 C4_4 1_555 1_555
C5_4 O3_4 1_555 1_555
C6_4 C7_4 1_555 1_555
C7_4 C2_4 1_555 1_555
H2_4 C7_4 1_555 1_555
C8_4 C1_4 1_555 1_555
H3_4 C8_4 1_555 1_555
C9_4 C6_4 1_555 1_555
O10_3 C12_4 1_555 1_555
O11_4 C11_4 1_555 1_555
O12_4 C18_4 1_555 1_555
O13_3 C12_4 1_555 1_555
N2_4 C14_4 1_555 1_555
C10_4 C12_4 1_555 1_555
C11_4 C13_4 1_555 1_555
O14_4 C18_4 1_555 1_555
C13_4 C10_4 1_555 1_555
H4_4 C13_4 1_555 1_555
C14_4 N1_4 1_555 1_555
C15_4 C16_4 1_555 1_555
C16_4 C11_4 1_555 1_555
H5_4 C16_4 1_555 1_555
C17_4 C10_4 1_555 1_555
H6_4 C17_4 1_555 1_555
C18_4 C15_4 1_555 1_555
O86_2 C21_4 1_555 1_555
O16_4 C20_4 1_555 1_555
O17_4 C27_4 1_555 1_555
O98_2 C21_4 1_555 1_555
N3_4 C5_4 1_555 1_555
C19_4 C21_4 1_555 1_555
C20_4 C22_4 1_555 1_555
O19_4 C27_4 1_555 1_555
C22_4 C19_4 1_555 1_555
H7_4 C22_4 1_555 1_555
C23_4 N2_4 1_555 1_555
C24_4 C25_4 1_555 1_555
C25_4 C20_4 1_555 1_555
H8_4 C25_4 1_555 1_555
C26_4 C19_4 1_555 1_555
H9_4 C26_4 1_555 1_555
C27_4 C24_4 1_555 1_555
O20_4 Zn1_4 1_555 1_555
O21_4 C29_4 1_555 1_555
O91_3 C36_4 1_555 1_555
O23_4 Zn2_4 1_555 1_555
N4_4 C32_4 1_555 1_555
C28_4 C30_4 1_555 1_555
C29_4 C31_4 1_555 1_555
C30_4 O20_4 1_555 1_555
O103_3 C36_4 1_555 1_555
C31_4 C28_4 1_555 1_555
H10_4 C31_4 1_555 1_555
C32_4 O21_4 1_555 1_555
C33_4 C34_4 1_555 1_555
C34_4 C29_4 1_555 1_555
H11_4 C34_4 1_555 1_555
C35_4 C28_4 1_555 1_555
H12_4 C35_4 1_555 1_555
C36_4 C33_4 1_555 1_555
O27_3 C39_4 1_555 1_555
O28_4 C38_4 1_555 1_555
O29_4 C45_4 1_555 1_555
O30_3 C39_4 1_555 1_555
N5_4 C41_4 1_555 1_555
C37_4 C39_4 1_555 1_555
C38_4 C40_4 1_555 1_555
O31_4 C45_4 1_555 1_555
C40_4 C37_4 1_555 1_555
H13_4 C40_4 1_555 1_555
C41_4 N4_4 1_555 1_555
C42_4 C43_4 1_555 1_555
C43_4 C38_4 1_555 1_555
H14_4 C43_4 1_555 1_555
C44_4 C37_4 1_555 1_555
H15_4 C44_4 1_555 1_555
C45_4 C42_4 1_555 1_555
O32_3 C48_4 1_555 1_555
O33_4 C47_4 1_555 1_555
O34_4 C54_4 1_555 1_555
O35_3 C48_4 1_555 1_555
N6_4 C32_4 1_555 1_555
C46_4 C48_4 1_555 1_555
C47_4 C49_4 1_555 1_555
O36_4 C54_4 1_555 1_555
C49_4 C46_4 1_555 1_555
H16_4 C49_4 1_555 1_555
C50_4 N5_4 1_555 1_555
C51_4 C52_4 1_555 1_555
C52_4 C47_4 1_555 1_555
H17_4 C52_4 1_555 1_555
C53_4 C46_4 1_555 1_555
H18_4 C53_4 1_555 1_555
C54_4 C51_4 1_555 1_555
O37_4 Zn1_4 1_555 1_555
O38_4 C56_4 1_555 1_555
O93 C63_4 1_555 1_555
O40_4 Zn2_4 1_555 1_555
N7_4 C59_4 1_555 1_555
C55_4 C57_4 1_555 1_555
C56_4 C58_4 1_555 1_555
C57_4 O37_4 1_555 1_555
O105 C63_4 1_555 1_555
C58_4 C55_4 1_555 1_555
H19_4 C58_4 1_555 1_555
C59_4 O38_4 1_555 1_555
C60_4 C61_4 1_555 1_555
C61_4 C56_4 1_555 1_555
H20_4 C61_4 1_555 1_555
C62_4 C55_4 1_555 1_555
H21_4 C62_4 1_555 1_555
C63_4 C60_4 1_555 1_555
O84_4 C66_4 1_555 1_555
O45_4 C65_4 1_555 1_555
O46_4 C72_4 1_555 1_555
O96_4 C66_4 1_555 1_555
N8_4 C68_4 1_555 1_555
C64_4 C66_4 1_555 1_555
C65_4 C67_4 1_555 1_555
O48_4 C72_4 1_555 1_555
C67_4 C64_4 1_555 1_555
H22_4 C67_4 1_555 1_555
C68_4 N7_4 1_555 1_555
C69_4 C70_4 1_555 1_555
C70_4 C65_4 1_555 1_555
H23_4 C70_4 1_555 1_555
C71_4 C64_4 1_555 1_555
H24_4 C71_4 1_555 1_555
C72_4 C69_4 1_555 1_555
O49_3 C75_4 1_555 1_555
O50_4 C74_4 1_555 1_555
O51_4 C81_4 1_555 1_555
O52_3 C75_4 1_555 1_555
N9_4 C59_4 1_555 1_555
C73_4 C75_4 1_555 1_555
C74_4 C76_4 1_555 1_555
O53_4 C81_4 1_555 1_555
C76_4 C73_4 1_555 1_555
H25_4 C76_4 1_555 1_555
C77_4 N8_4 1_555 1_555
C78_4 C79_4 1_555 1_555
C79_4 C74_4 1_555 1_555
H26_4 C79_4 1_555 1_555
C80_4 C73_4 1_555 1_555
H27_4 C80_4 1_555 1_555
C81_4 C78_4 1_555 1_555
O54_4 Zn1_4 1_555 1_555
O55_4 C83_4 1_555 1_555
O90 C90_4 1_555 1_555
O57_4 Zn2_4 1_555 1_555
N10_4 C86_4 1_555 1_555
C82_4 C84_4 1_555 1_555
C83_4 C85_4 1_555 1_555
C84_4 O54_4 1_555 1_555
O102 C90_4 1_555 1_555
C85_4 C82_4 1_555 1_555
H28_4 C85_4 1_555 1_555
C86_4 O55_4 1_555 1_555
C87_4 C88_4 1_555 1_555
C88_4 C83_4 1_555 1_555
H29_4 C88_4 1_555 1_555
C89_4 C82_4 1_555 1_555
H30_4 C89_4 1_555 1_555
C90_4 C87_4 1_555 1_555
O85_2 C93_4 1_555 1_555
O62_4 C92_4 1_555 1_555
O63_4 C99_4 1_555 1_555
O97_2 C93_4 1_555 1_555
N11_4 C95_4 1_555 1_555
C91_4 C93_4 1_555 1_555
C92_4 C94_4 1_555 1_555
O65_4 C99_4 1_555 1_555
C94_4 C91_4 1_555 1_555
H31_4 C94_4 1_555 1_555
C95_4 N10_4 1_555 1_555
C96_4 C97_4 1_555 1_555
C97_4 C92_4 1_555 1_555
H32_4 C97_4 1_555 1_555
C98_4 C91_4 1_555 1_555
H33_4 C98_4 1_555 1_555
C99_4 C96_4 1_555 1_555
O83_4 C102_4 1_555 1_555
O67_4 C101_4 1_555 1_555
O68_4 C108_4 1_555 1_555
O95_4 C102_4 1_555 1_555
N12_4 C86_4 1_555 1_555
C100_4 C102_4 1_555 1_555
C101_4 C103_4 1_555 1_555
O70_4 C108_4 1_555 1_555
C103_4 C100_4 1_555 1_555
H34_4 C103_4 1_555 1_555
C104_4 N11_4 1_555 1_555
C105_4 C106_4 1_555 1_555
C106_4 C101_4 1_555 1_555
H35_4 C106_4 1_555 1_555
C107_4 C100_4 1_555 1_555
H36_4 C107_4 1_555 1_555
C108_4 C105_4 1_555 1_555
Zn15_4 O10_3 1_555 1_555
O77_10 Zn15_4 1_555 1_555
Zn17_4 O13_3 1_555 1_555
O78_10 Zn17_4 1_555 1_555
Zn16_4 O27_3 1_555 1_555
Zn18_4 O30_3 1_555 1_555
Zn20_3 O12_4 1_555 1_555
Zn19 O68_4 1_555 1_555
Zn22 O46_4 1_555 1_555
Zn21_3 O34_4 1_555 1_555
Zn23_4 O51_4 1_555 1_555
Zn24_4 O29_4 1_555 1_555
Zn25_4 O17_4 1_555 1_555
Zn26_4 O63_4 1_555 1_555
Zn28_3 O14_4 1_555 1_555
Zn27 O70_4 1_555 1_555
Zn30 O48_4 1_555 1_555
Zn29_3 O36_4 1_555 1_555
Zn31_4 O53_4 1_555 1_555
Zn32_4 O31_4 1_555 1_555
Zn33_4 O19_4 1_555 1_555
Zn34_4 O65_4 1_555 1_555
C6_4 C8_4 1_555 1_555
O11_4 C14_4 1_555 1_555
C15_4 C17_4 1_555 1_555
O16_4 C23_4 1_555 1_555
N3_4 C23_4 1_555 1_555
C24_4 C26_4 1_555 1_555
O23_4 C30_4 1_555 1_555
C33_4 C35_4 1_555 1_555
O28_4 C41_4 1_555 1_555
C42_4 C44_4 1_555 1_555
O32_3 Zn15_4 1_555 1_555
O33_4 C50_4 1_555 1_555
O35_3 Zn17_4 1_555 1_555
N6_4 C50_4 1_555 1_555
C51_4 C53_4 1_555 1_555
O40_4 C57_4 1_555 1_555
C60_4 C62_4 1_555 1_555
O45_4 C68_4 1_555 1_555
C69_4 C71_4 1_555 1_555
O49_3 Zn16_4 1_555 1_555
O50_4 C77_4 1_555 1_555
O52_3 Zn18_4 1_555 1_555
N9_4 C77_4 1_555 1_555
C78_4 C80_4 1_555 1_555
O57_4 C84_4 1_555 1_555
C87_4 C89_4 1_555 1_555
O62_4 C95_4 1_555 1_555
C96_4 C98_4 1_555 1_555
O67_4 C104_4 1_555 1_555
N12_4 C104_4 1_555 1_555
C105_4 C107_4 1_555 1_555
O77_11 Zn11_5 1_555 1_555
O78_11 Zn12_5 1_555 1_555
O79_5 Zn13_5 1_555 1_555
O80_5 Zn14_5 1_555 1_555
O83_5 Zn11_5 1_555 1_555
O84_5 Zn11_5 1_555 1_555
O85_3 Zn13_5 1_555 1_555
O86_3 Zn13_5 1_555 1_555
O95_5 Zn12_5 1_555 1_555
O96_5 Zn12_5 1_555 1_555
O97_3 Zn14_5 1_555 1_555
O98_3 Zn14_5 1_555 1_555
Zn1_5 O1_5 1_555 1_555
Zn2_5 O5_5 1_555 1_555
O1_5 C3_5 1_555 1_555
O2_5 Zn1_5 1_555 1_555
O3_5 C2_5 1_555 1_555
O94_3 C9_5 1_555 1_555
O5_5 C3_5 1_555 1_555
N1_5 C5_5 1_555 1_555
O6_5 Zn2_5 1_555 1_555
C1_5 C3_5 1_555 1_555
C2_5 C4_5 1_555 1_555
O106_3 C9_5 1_555 1_555
C4_5 C1_5 1_555 1_555
H1_5 C4_5 1_555 1_555
C5_5 O3_5 1_555 1_555
C6_5 C7_5 1_555 1_555
C7_5 C2_5 1_555 1_555
H2_5 C7_5 1_555 1_555
C8_5 C1_5 1_555 1_555
H3_5 C8_5 1_555 1_555
C9_5 C6_5 1_555 1_555
O10_4 C12_5 1_555 1_555
O11_5 C11_5 1_555 1_555
O12_5 C18_5 1_555 1_555
O13_4 C12_5 1_555 1_555
N2_5 C14_5 1_555 1_555
C10_5 C12_5 1_555 1_555
C11_5 C13_5 1_555 1_555
O14_5 C18_5 1_555 1_555
C13_5 C10_5 1_555 1_555
H4_5 C13_5 1_555 1_555
C14_5 N1_5 1_555 1_555
C15_5 C16_5 1_555 1_555
C16_5 C11_5 1_555 1_555
H5_5 C16_5 1_555 1_555
C17_5 C10_5 1_555 1_555
H6_5 C17_5 1_555 1_555
C18_5 C15_5 1_555 1_555
O15_3 C21_5 1_555 1_555
O16_5 C20_5 1_555 1_555
O17_5 C27_5 1_555 1_555
O18_3 C21_5 1_555 1_555
N3_5 C5_5 1_555 1_555
C19_5 C21_5 1_555 1_555
C20_5 C22_5 1_555 1_555
O19_5 C27_5 1_555 1_555
C22_5 C19_5 1_555 1_555
H7_5 C22_5 1_555 1_555
C23_5 N2_5 1_555 1_555
C24_5 C25_5 1_555 1_555
C25_5 C20_5 1_555 1_555
H8_5 C25_5 1_555 1_555
C26_5 C19_5 1_555 1_555
H9_5 C26_5 1_555 1_555
C27_5 C24_5 1_555 1_555
O20_5 Zn1_5 1_555 1_555
O21_5 C29_5 1_555 1_555
O89 C36_5 1_555 1_555
O23_5 Zn2_5 1_555 1_555
N4_5 C32_5 1_555 1_555
C28_5 C30_5 1_555 1_555
C29_5 C31_5 1_555 1_555
C30_5 O20_5 1_555 1_555
O101 C36_5 1_555 1_555
C31_5 C28_5 1_555 1_555
H10_5 C31_5 1_555 1_555
C32_5 O21_5 1_555 1_555
C33_5 C34_5 1_555 1_555
C34_5 C29_5 1_555 1_555
H11_5 C34_5 1_555 1_555
C35_5 C28_5 1_555 1_555
H12_5 C35_5 1_555 1_555
C36_5 C33_5 1_555 1_555
O27_4 C39_5 1_555 1_555
O28_5 C38_5 1_555 1_555
O29_5 C45_5 1_555 1_555
O30_4 C39_5 1_555 1_555
N5_5 C41_5 1_555 1_555
C37_5 C39_5 1_555 1_555
C38_5 C40_5 1_555 1_555
O31_5 C45_5 1_555 1_555
C40_5 C37_5 1_555 1_555
H13_5 C40_5 1_555 1_555
C41_5 N4_5 1_555 1_555
C42_5 C43_5 1_555 1_555
C43_5 C38_5 1_555 1_555
H14_5 C43_5 1_555 1_555
C44_5 C37_5 1_555 1_555
H15_5 C44_5 1_555 1_555
C45_5 C42_5 1_555 1_555
O32_4 C48_5 1_555 1_555
O33_5 C47_5 1_555 1_555
O34_5 C54_5 1_555 1_555
O35_4 C48_5 1_555 1_555
N6_5 C32_5 1_555 1_555
C46_5 C48_5 1_555 1_555
C47_5 C49_5 1_555 1_555
O36_5 C54_5 1_555 1_555
C49_5 C46_5 1_555 1_555
H16_5 C49_5 1_555 1_555
C50_5 N5_5 1_555 1_555
C51_5 C52_5 1_555 1_555
C52_5 C47_5 1_555 1_555
H17_5 C52_5 1_555 1_555
C53_5 C46_5 1_555 1_555
H18_5 C53_5 1_555 1_555
C54_5 C51_5 1_555 1_555
O37_5 Zn1_5 1_555 1_555
O38_5 C56_5 1_555 1_555
O94 C63_5 1_555 1_555
O40_5 Zn2_5 1_555 1_555
N7_5 C59_5 1_555 1_555
C55_5 C57_5 1_555 1_555
C56_5 C58_5 1_555 1_555
C57_5 O37_5 1_555 1_555
O106 C63_5 1_555 1_555
C58_5 C55_5 1_555 1_555
H19_5 C58_5 1_555 1_555
C59_5 O38_5 1_555 1_555
C60_5 C61_5 1_555 1_555
C61_5 C56_5 1_555 1_555
H20_5 C61_5 1_555 1_555
C62_5 C55_5 1_555 1_555
H21_5 C62_5 1_555 1_555
C63_5 C60_5 1_555 1_555
O44_3 C66_5 1_555 1_555
O45_5 C65_5 1_555 1_555
O46_5 C72_5 1_555 1_555
O47_3 C66_5 1_555 1_555
N8_5 C68_5 1_555 1_555
C64_5 C66_5 1_555 1_555
C65_5 C67_5 1_555 1_555
O48_5 C72_5 1_555 1_555
C67_5 C64_5 1_555 1_555
H22_5 C67_5 1_555 1_555
C68_5 N7_5 1_555 1_555
C69_5 C70_5 1_555 1_555
C70_5 C65_5 1_555 1_555
H23_5 C70_5 1_555 1_555
C71_5 C64_5 1_555 1_555
H24_5 C71_5 1_555 1_555
C72_5 C69_5 1_555 1_555
O49_4 C75_5 1_555 1_555
O50_5 C74_5 1_555 1_555
O51_5 C81_5 1_555 1_555
O52_4 C75_5 1_555 1_555
N9_5 C59_5 1_555 1_555
C73_5 C75_5 1_555 1_555
C74_5 C76_5 1_555 1_555
O53_5 C81_5 1_555 1_555
C76_5 C73_5 1_555 1_555
H25_5 C76_5 1_555 1_555
C77_5 N8_5 1_555 1_555
C78_5 C79_5 1_555 1_555
C79_5 C74_5 1_555 1_555
H26_5 C79_5 1_555 1_555
C80_5 C73_5 1_555 1_555
H27_5 C80_5 1_555 1_555
C81_5 C78_5 1_555 1_555
O54_5 Zn1_5 1_555 1_555
O55_5 C83_5 1_555 1_555
O94_2 C90_5 1_555 1_555
O57_5 Zn2_5 1_555 1_555
N10_5 C86_5 1_555 1_555
C82_5 C84_5 1_555 1_555
C83_5 C85_5 1_555 1_555
C84_5 O54_5 1_555 1_555
O106_2 C90_5 1_555 1_555
C85_5 C82_5 1_555 1_555
H28_5 C85_5 1_555 1_555
C86_5 O55_5 1_555 1_555
C87_5 C88_5 1_555 1_555
C88_5 C83_5 1_555 1_555
H29_5 C88_5 1_555 1_555
C89_5 C82_5 1_555 1_555
H30_5 C89_5 1_555 1_555
C90_5 C87_5 1_555 1_555
O61_3 C93_5 1_555 1_555
O62_5 C92_5 1_555 1_555
O63_5 C99_5 1_555 1_555
O64_3 C93_5 1_555 1_555
N11_5 C95_5 1_555 1_555
C91_5 C93_5 1_555 1_555
C92_5 C94_5 1_555 1_555
O65_5 C99_5 1_555 1_555
C94_5 C91_5 1_555 1_555
H31_5 C94_5 1_555 1_555
C95_5 N10_5 1_555 1_555
C96_5 C97_5 1_555 1_555
C97_5 C92_5 1_555 1_555
H32_5 C97_5 1_555 1_555
C98_5 C91_5 1_555 1_555
H33_5 C98_5 1_555 1_555
C99_5 C96_5 1_555 1_555
O66_3 C102_5 1_555 1_555
O67_5 C101_5 1_555 1_555
O68_5 C108_5 1_555 1_555
O69_3 C102_5 1_555 1_555
N12_5 C86_5 1_555 1_555
C100_5 C102_5 1_555 1_555
C101_5 C103_5 1_555 1_555
O70_5 C108_5 1_555 1_555
C103_5 C100_5 1_555 1_555
H34_5 C103_5 1_555 1_555
C104_5 N11_5 1_555 1_555
C105_5 C106_5 1_555 1_555
C106_5 C101_5 1_555 1_555
H35_5 C106_5 1_555 1_555
C107_5 C100_5 1_555 1_555
H36_5 C107_5 1_555 1_555
C108_5 C105_5 1_555 1_555
Zn11_6 O10_4 1_555 1_555
O77_12 Zn11_6 1_555 1_555
Zn12_6 O13_4 1_555 1_555
O78_12 Zn12_6 1_555 1_555
Zn13_6 O15_3 1_555 1_555
O79_6 Zn13_6 1_555 1_555
Zn14_6 O18_3 1_555 1_555
O80_6 Zn14_6 1_555 1_555
Zn15_6 O44_3 1_555 1_555
Zn16_6 O27_4 1_555 1_555
Zn17_6 O47_3 1_555 1_555
Zn18_6 O30_4 1_555 1_555
Zn25_4 O12_5 1_555 1_555
Zn26_2 O68_5 1_555 1_555
Zn25_2 O46_5 1_555 1_555
Zn26_4 O34_5 1_555 1_555
Zn26 O51_5 1_555 1_555
Zn25 O29_5 1_555 1_555
Zn26_3 O17_5 1_555 1_555
Zn25_3 O63_5 1_555 1_555
Zn33_4 O14_5 1_555 1_555
Zn34_2 O70_5 1_555 1_555
Zn33_2 O48_5 1_555 1_555
Zn34_4 O36_5 1_555 1_555
Zn34 O53_5 1_555 1_555
Zn33 O31_5 1_555 1_555
Zn34_3 O19_5 1_555 1_555
Zn33_3 O65_5 1_555 1_555
C6_5 C8_5 1_555 1_555
O11_5 C14_5 1_555 1_555
C15_5 C17_5 1_555 1_555
O16_5 C23_5 1_555 1_555
N3_5 C23_5 1_555 1_555
C24_5 C26_5 1_555 1_555
O23_5 C30_5 1_555 1_555
C33_5 C35_5 1_555 1_555
O28_5 C41_5 1_555 1_555
C42_5 C44_5 1_555 1_555
O32_4 Zn11_6 1_555 1_555
O33_5 C50_5 1_555 1_555
O35_4 Zn12_6 1_555 1_555
N6_5 C50_5 1_555 1_555
C51_5 C53_5 1_555 1_555
O40_5 C57_5 1_555 1_555
C60_5 C62_5 1_555 1_555
O45_5 C68_5 1_555 1_555
C69_5 C71_5 1_555 1_555
O49_4 Zn16_6 1_555 1_555
O50_5 C77_5 1_555 1_555
O52_4 Zn18_6 1_555 1_555
N9_5 C77_5 1_555 1_555
C78_5 C80_5 1_555 1_555
O57_5 C84_5 1_555 1_555
C87_5 C89_5 1_555 1_555
O61_3 Zn13_6 1_555 1_555
O62_5 C95_5 1_555 1_555
O64_3 Zn14_6 1_555 1_555
C96_5 C98_5 1_555 1_555
O66_3 Zn15_6 1_555 1_555
O67_5 C104_5 1_555 1_555
O69_3 Zn17_6 1_555 1_555
N12_5 C104_5 1_555 1_555
C105_5 C107_5 1_555 1_555
Zn1_6 O1_6 1_555 1_555
Zn2_6 O5_6 1_555 1_555
O1_6 C3_6 1_555 1_555
O2_6 Zn1_6 1_555 1_555
O3_6 C2_6 1_555 1_555
O88 C9_6 1_555 1_555
O5_6 C3_6 1_555 1_555
N1_6 C5_6 1_555 1_555
O6_6 Zn2_6 1_555 1_555
C1_6 C3_6 1_555 1_555
C2_6 C4_6 1_555 1_555
O100 C9_6 1_555 1_555
C4_6 C1_6 1_555 1_555
H1_6 C4_6 1_555 1_555
C5_6 O3_6 1_555 1_555
C6_6 C7_6 1_555 1_555
C7_6 C2_6 1_555 1_555
H2_6 C7_6 1_555 1_555
C8_6 C1_6 1_555 1_555
H3_6 C8_6 1_555 1_555
C9_6 C6_6 1_555 1_555
O84_5 C12_6 1_555 1_555
O11_6 C11_6 1_555 1_555
O12_6 C18_6 1_555 1_555
O96_5 C12_6 1_555 1_555
N2_6 C14_6 1_555 1_555
C10_6 C12_6 1_555 1_555
C11_6 C13_6 1_555 1_555
O14_6 C18_6 1_555 1_555
C13_6 C10_6 1_555 1_555
H4_6 C13_6 1_555 1_555
C14_6 N1_6 1_555 1_555
C15_6 C16_6 1_555 1_555
C16_6 C11_6 1_555 1_555
H5_6 C16_6 1_555 1_555
C17_6 C10_6 1_555 1_555
H6_6 C17_6 1_555 1_555
C18_6 C15_6 1_555 1_555
O15_4 C21_6 1_555 1_555
O16_6 C20_6 1_555 1_555
O17_6 C27_6 1_555 1_555
O18_4 C21_6 1_555 1_555
N3_6 C5_6 1_555 1_555
C19_6 C21_6 1_555 1_555
C20_6 C22_6 1_555 1_555
O19_6 C27_6 1_555 1_555
C22_6 C19_6 1_555 1_555
H7_6 C22_6 1_555 1_555
C23_6 N2_6 1_555 1_555
C24_6 C25_6 1_555 1_555
C25_6 C20_6 1_555 1_555
H8_6 C25_6 1_555 1_555
C26_6 C19_6 1_555 1_555
H9_6 C26_6 1_555 1_555
C27_6 C24_6 1_555 1_555
O20_6 Zn1_6 1_555 1_555
O21_6 C29_6 1_555 1_555
O92_3 C36_6 1_555 1_555
O23_6 Zn2_6 1_555 1_555
N4_6 C32_6 1_555 1_555
C28_6 C30_6 1_555 1_555
C29_6 C31_6 1_555 1_555
C30_6 O20_6 1_555 1_555
O104_3 C36_6 1_555 1_555
C31_6 C28_6 1_555 1_555
H10_6 C31_6 1_555 1_555
C32_6 O21_6 1_555 1_555
C33_6 C34_6 1_555 1_555
C34_6 C29_6 1_555 1_555
H11_6 C34_6 1_555 1_555
C35_6 C28_6 1_555 1_555
H12_6 C35_6 1_555 1_555
C36_6 C33_6 1_555 1_555
O85_3 C39_6 1_555 1_555
O28_6 C38_6 1_555 1_555
O29_6 C45_6 1_555 1_555
O97_3 C39_6 1_555 1_555
N5_6 C41_6 1_555 1_555
C37_6 C39_6 1_555 1_555
C38_6 C40_6 1_555 1_555
O31_6 C45_6 1_555 1_555
C40_6 C37_6 1_555 1_555
H13_6 C40_6 1_555 1_555
C41_6 N4_6 1_555 1_555
C42_6 C43_6 1_555 1_555
C43_6 C38_6 1_555 1_555
H14_6 C43_6 1_555 1_555
C44_6 C37_6 1_555 1_555
H15_6 C44_6 1_555 1_555
C45_6 C42_6 1_555 1_555
O83_5 C48_6 1_555 1_555
O33_6 C47_6 1_555 1_555
O34_6 C54_6 1_555 1_555
O95_5 C48_6 1_555 1_555
N6_6 C32_6 1_555 1_555
C46_6 C48_6 1_555 1_555
C47_6 C49_6 1_555 1_555
O36_6 C54_6 1_555 1_555
C49_6 C46_6 1_555 1_555
H16_6 C49_6 1_555 1_555
C50_6 N5_6 1_555 1_555
C51_6 C52_6 1_555 1_555
C52_6 C47_6 1_555 1_555
H17_6 C52_6 1_555 1_555
C53_6 C46_6 1_555 1_555
H18_6 C53_6 1_555 1_555
C54_6 C51_6 1_555 1_555
O37_6 Zn1_6 1_555 1_555
O38_6 C56_6 1_555 1_555
O92_2 C63_6 1_555 1_555
O40_6 Zn2_6 1_555 1_555
N7_6 C59_6 1_555 1_555
C55_6 C57_6 1_555 1_555
C56_6 C58_6 1_555 1_555
C57_6 O37_6 1_555 1_555
O104_2 C63_6 1_555 1_555
C58_6 C55_6 1_555 1_555
H19_6 C58_6 1_555 1_555
C59_6 O38_6 1_555 1_555
C60_6 C61_6 1_555 1_555
C61_6 C56_6 1_555 1_555
H20_6 C61_6 1_555 1_555
C62_6 C55_6 1_555 1_555
H21_6 C62_6 1_555 1_555
C63_6 C60_6 1_555 1_555
O44_4 C66_6 1_555 1_555
O45_6 C65_6 1_555 1_555
O46_6 C72_6 1_555 1_555
O47_4 C66_6 1_555 1_555
N8_6 C68_6 1_555 1_555
C64_6 C66_6 1_555 1_555
C65_6 C67_6 1_555 1_555
O48_6 C72_6 1_555 1_555
C67_6 C64_6 1_555 1_555
H22_6 C67_6 1_555 1_555
C68_6 N7_6 1_555 1_555
C69_6 C70_6 1_555 1_555
C70_6 C65_6 1_555 1_555
H23_6 C70_6 1_555 1_555
C71_6 C64_6 1_555 1_555
H24_6 C71_6 1_555 1_555
C72_6 C69_6 1_555 1_555
O86_3 C75_6 1_555 1_555
O50_6 C74_6 1_555 1_555
O51_6 C81_6 1_555 1_555
O98_3 C75_6 1_555 1_555
N9_6 C59_6 1_555 1_555
C73_6 C75_6 1_555 1_555
C74_6 C76_6 1_555 1_555
O53_6 C81_6 1_555 1_555
C76_6 C73_6 1_555 1_555
H25_6 C76_6 1_555 1_555
C77_6 N8_6 1_555 1_555
C78_6 C79_6 1_555 1_555
C79_6 C74_6 1_555 1_555
H26_6 C79_6 1_555 1_555
C80_6 C73_6 1_555 1_555
H27_6 C80_6 1_555 1_555
C81_6 C78_6 1_555 1_555
O54_6 Zn1_6 1_555 1_555
O55_6 C83_6 1_555 1_555
O92 C90_6 1_555 1_555
O57_6 Zn2_6 1_555 1_555
N10_6 C86_6 1_555 1_555
C82_6 C84_6 1_555 1_555
C83_6 C85_6 1_555 1_555
C84_6 O54_6 1_555 1_555
O104 C90_6 1_555 1_555
C85_6 C82_6 1_555 1_555
H28_6 C85_6 1_555 1_555
C86_6 O55_6 1_555 1_555
C87_6 C88_6 1_555 1_555
C88_6 C83_6 1_555 1_555
H29_6 C88_6 1_555 1_555
C89_6 C82_6 1_555 1_555
H30_6 C89_6 1_555 1_555
C90_6 C87_6 1_555 1_555
O61_4 C93_6 1_555 1_555
O62_6 C92_6 1_555 1_555
O63_6 C99_6 1_555 1_555
O64_4 C93_6 1_555 1_555
N11_6 C95_6 1_555 1_555
C91_6 C93_6 1_555 1_555
C92_6 C94_6 1_555 1_555
O65_6 C99_6 1_555 1_555
C94_6 C91_6 1_555 1_555
H31_6 C94_6 1_555 1_555
C95_6 N10_6 1_555 1_555
C96_6 C97_6 1_555 1_555
C97_6 C92_6 1_555 1_555
H32_6 C97_6 1_555 1_555
C98_6 C91_6 1_555 1_555
H33_6 C98_6 1_555 1_555
C99_6 C96_6 1_555 1_555
O66_4 C102_6 1_555 1_555
O67_6 C101_6 1_555 1_555
O68_6 C108_6 1_555 1_555
O69_4 C102_6 1_555 1_555
N12_6 C86_6 1_555 1_555
C100_6 C102_6 1_555 1_555
C101_6 C103_6 1_555 1_555
O70_6 C108_6 1_555 1_555
C103_6 C100_6 1_555 1_555
H34_6 C103_6 1_555 1_555
C104_6 N11_6 1_555 1_555
C105_6 C106_6 1_555 1_555
C106_6 C101_6 1_555 1_555
H35_6 C106_6 1_555 1_555
C107_6 C100_6 1_555 1_555
H36_6 C107_6 1_555 1_555
C108_6 C105_6 1_555 1_555
Zn16_5 O15_4 1_555 1_555
O79_7 Zn16_5 1_555 1_555
Zn18_5 O18_4 1_555 1_555
O80_7 Zn18_5 1_555 1_555
Zn15_5 O44_4 1_555 1_555
Zn17_5 O47_4 1_555 1_555
Zn23_4 O12_6 1_555 1_555
Zn24_2 O68_6 1_555 1_555
Zn23_2 O46_6 1_555 1_555
Zn24_4 O34_6 1_555 1_555
Zn24_3 O51_6 1_555 1_555
Zn23_3 O29_6 1_555 1_555
Zn24 O17_6 1_555 1_555
Zn23 O63_6 1_555 1_555
Zn31_4 O14_6 1_555 1_555
Zn32_2 O70_6 1_555 1_555
Zn31_2 O48_6 1_555 1_555
Zn32_4 O36_6 1_555 1_555
Zn32_3 O53_6 1_555 1_555
Zn31_3 O31_6 1_555 1_555
Zn32 O19_6 1_555 1_555
Zn31 O65_6 1_555 1_555
C6_6 C8_6 1_555 1_555
O11_6 C14_6 1_555 1_555
C15_6 C17_6 1_555 1_555
O16_6 C23_6 1_555 1_555
N3_6 C23_6 1_555 1_555
C24_6 C26_6 1_555 1_555
O23_6 C30_6 1_555 1_555
C33_6 C35_6 1_555 1_555
O28_6 C41_6 1_555 1_555
C42_6 C44_6 1_555 1_555
O33_6 C50_6 1_555 1_555
N6_6 C50_6 1_555 1_555
C51_6 C53_6 1_555 1_555
O40_6 C57_6 1_555 1_555
C60_6 C62_6 1_555 1_555
O45_6 C68_6 1_555 1_555
C69_6 C71_6 1_555 1_555
O50_6 C77_6 1_555 1_555
N9_6 C77_6 1_555 1_555
C78_6 C80_6 1_555 1_555
O57_6 C84_6 1_555 1_555
C87_6 C89_6 1_555 1_555
O61_4 Zn16_5 1_555 1_555
O62_6 C95_6 1_555 1_555
O64_4 Zn18_5 1_555 1_555
C96_6 C98_6 1_555 1_555
O66_4 Zn15_5 1_555 1_555
O67_6 C104_6 1_555 1_555
O69_4 Zn17_5 1_555 1_555
N12_6 C104_6 1_555 1_555
C105_6 C107_6 1_555 1_555
O79_8 Zn16_6 1_555 1_555
O80_8 Zn18_6 1_555 1_555
O77_13 Zn16_3 1_555 1_555
O78_13 Zn18_3 1_555 1_555
O77_14 Zn16_4 1_555 1_555
O78_14 Zn18_4 1_555 1_555
O79_9 Zn15_5 1_555 1_555
O80_9 Zn17_5 1_555 1_555
O79_10 Zn15_6 1_555 1_555
O80_10 Zn17_6 1_555 1_555
O8_2 Zn20_2 1_555 1_555
O9_2 Zn28_2 1_555 1_555
O25_2 Zn21_2 1_555 1_555
O26_2 Zn29_2 1_555 1_555
O71_2 Zn28_2 1_555 1_555
O72_2 Zn28_2 1_555 1_555
O73_2 Zn29_2 1_555 1_555
O76_2 Zn29_2 1_555 1_555
O88_2 Zn21_2 1_555 1_555
O89_2 Zn20_2 1_555 1_555
O100_2 Zn29_2 1_555 1_555
O101_2 Zn28_2 1_555 1_555
O42_4 Zn21_3 1_555 1_555
O43_4 Zn29_3 1_555 1_555
O59_4 Zn20_3 1_555 1_555
O60_4 Zn28_3 1_555 1_555
O74_4 Zn28_3 1_555 1_555
O75_4 Zn28_3 1_555 1_555
O81_4 Zn29_3 1_555 1_555
O82_4 Zn29_3 1_555 1_555
O92_4 Zn21_3 1_555 1_555
O94_4 Zn20_3 1_555 1_555
O104_4 Zn29_3 1_555 1_555
O106_4 Zn28_3 1_555 1_555
O42_5 Zn22 1_555 1_555
O43_5 Zn30 1_555 1_555
O59_5 Zn19 1_555 1_555
O60_5 Zn27 1_555 1_555
O74_5 Zn27 1_555 1_555
O75_5 Zn27 1_555 1_555
O81_5 Zn30 1_555 1_555
O82_5 Zn30 1_555 1_555
O92_5 Zn22 1_555 1_555
O94_5 Zn19 1_555 1_555
O104_5 Zn30 1_555 1_555
O106_5 Zn27 1_555 1_555
O42_6 Zn21 1_555 1_555
O43_6 Zn29 1_555 1_555
O59_6 Zn20 1_555 1_555
O60_6 Zn28 1_555 1_555
O74_6 Zn28 1_555 1_555
O75_6 Zn28 1_555 1_555
O81_6 Zn29 1_555 1_555
O82_6 Zn29 1_555 1_555
O92_6 Zn21 1_555 1_555
O94_6 Zn20 1_555 1_555
O104_6 Zn29 1_555 1_555
O106_6 Zn28 1_555 1_555
O77_15 Zn11_7 1_555 1_555
O78_15 Zn12_7 1_555 1_555
O84_6 Zn11_7 1_555 1_555
O96_6 Zn12_7 1_555 1_555
O78_15 H62 1_555 1_555
O77_15 H66 1_555 1_555
O77_16 Zn11_8 1_555 1_555
O78_16 Zn12_8 1_555 1_555
O79_11 Zn13_7 1_555 1_555
O80_11 Zn14_7 1_555 1_555
O83_6 Zn11_8 1_555 1_555
O85_4 Zn13_7 1_555 1_555
O95_6 Zn12_8 1_555 1_555
O97_4 Zn14_7 1_555 1_555
O79_11 H73 1_555 1_555
O79_12 Zn13_8 1_555 1_555
O80_12 Zn14_8 1_555 1_555
O86_4 Zn13_8 1_555 1_555
O98_4 Zn14_8 1_555 1_555
O80_12 H58 1_555 1_555
O79_12 H74 1_555 1_555
O2_7 Zn1_7 1_555 1_555
O6_7 Zn2_7 1_555 1_555
O20_7 Zn1_7 1_555 1_555
O21_7 C29_7 1_555 1_555
O89_2 C36_7 1_555 1_555
O23_7 Zn2_7 1_555 1_555
N4_7 C32_7 1_555 1_555
C28_7 C30_7 1_555 1_555
C29_7 C31_7 1_555 1_555
C30_7 O20_7 1_555 1_555
O101_2 C36_7 1_555 1_555
C31_7 C28_7 1_555 1_555
H10_7 C31_7 1_555 1_555
C32_7 O21_7 1_555 1_555
C33_7 C34_7 1_555 1_555
C34_7 C29_7 1_555 1_555
H11_7 C34_7 1_555 1_555
C35_7 C28_7 1_555 1_555
H12_7 C35_7 1_555 1_555
C36_7 C33_7 1_555 1_555
O27_5 C39_7 1_555 1_555
O28_7 C38_7 1_555 1_555
O29_7 C45_7 1_555 1_555
O30_5 C39_7 1_555 1_555
N5_7 C41_7 1_555 1_555
C37_7 C39_7 1_555 1_555
C38_7 C40_7 1_555 1_555
O31_7 C45_7 1_555 1_555
C40_7 C37_7 1_555 1_555
H13_7 C40_7 1_555 1_555
C41_7 N4_7 1_555 1_555
C42_7 C43_7 1_555 1_555
C43_7 C38_7 1_555 1_555
H14_7 C43_7 1_555 1_555
C44_7 C37_7 1_555 1_555
H15_7 C44_7 1_555 1_555
C45_7 C42_7 1_555 1_555
O32_5 C48_7 1_555 1_555
O33_7 C47_7 1_555 1_555
O34_7 C54_7 1_555 1_555
O35_5 C48_7 1_555 1_555
N6_7 C32_7 1_555 1_555
C46_7 C48_7 1_555 1_555
C47_7 C49_7 1_555 1_555
O36_7 C54_7 1_555 1_555
C49_7 C46_7 1_555 1_555
H16_7 C49_7 1_555 1_555
C50_7 N5_7 1_555 1_555
C51_7 C52_7 1_555 1_555
C52_7 C47_7 1_555 1_555
H17_7 C52_7 1_555 1_555
C53_7 C46_7 1_555 1_555
H18_7 C53_7 1_555 1_555
C54_7 C51_7 1_555 1_555
O77_17 Zn11_9 1_555 1_555
O78_17 Zn12_9 1_555 1_555
Zn16_9 O27_5 1_555 1_555
Zn18_9 O30_5 1_555 1_555
Zn25_3 O34_7 1_555 1_555
Zn26_2 O29_7 1_555 1_555
Zn33_3 O36_7 1_555 1_555
Zn34_2 O31_7 1_555 1_555
O23_7 C30_7 1_555 1_555
C33_7 C35_7 1_555 1_555
O28_7 C41_7 1_555 1_555
C42_7 C44_7 1_555 1_555
O32_5 Zn11_9 1_555 1_555
O33_7 C50_7 1_555 1_555
O35_5 Zn12_9 1_555 1_555
N6_7 C50_7 1_555 1_555
C51_7 C53_7 1_555 1_555
O77_17 H65 1_555 1_555
Zn1_8 O1_7 1_555 1_555
Zn2_8 O5_7 1_555 1_555
O1_7 C3_7 1_555 1_555
O2_8 Zn1_8 1_555 1_555
O3_7 C2_7 1_555 1_555
O94_6 C9_7 1_555 1_555
O5_7 C3_7 1_555 1_555
N1_7 C5_7 1_555 1_555
O6_8 Zn2_8 1_555 1_555
C1_7 C3_7 1_555 1_555
C2_7 C4_7 1_555 1_555
O106_6 C9_7 1_555 1_555
C4_7 C1_7 1_555 1_555
H1_7 C4_7 1_555 1_555
C5_7 O3_7 1_555 1_555
C6_7 C7_7 1_555 1_555
C7_7 C2_7 1_555 1_555
H2_7 C7_7 1_555 1_555
C8_7 C1_7 1_555 1_555
H3_7 C8_7 1_555 1_555
C9_7 C6_7 1_555 1_555
O10_5 C12_7 1_555 1_555
O11_7 C11_7 1_555 1_555
O12_7 C18_7 1_555 1_555
O13_5 C12_7 1_555 1_555
N2_7 C14_7 1_555 1_555
C10_7 C12_7 1_555 1_555
C11_7 C13_7 1_555 1_555
O14_7 C18_7 1_555 1_555
C13_7 C10_7 1_555 1_555
H4_7 C13_7 1_555 1_555
C14_7 N1_7 1_555 1_555
C15_7 C16_7 1_555 1_555
C16_7 C11_7 1_555 1_555
H5_7 C16_7 1_555 1_555
C17_7 C10_7 1_555 1_555
H6_7 C17_7 1_555 1_555
C18_7 C15_7 1_555 1_555
O15_5 C21_7 1_555 1_555
O16_7 C20_7 1_555 1_555
O17_7 C27_7 1_555 1_555
O18_5 C21_7 1_555 1_555
N3_7 C5_7 1_555 1_555
C19_7 C21_7 1_555 1_555
C20_7 C22_7 1_555 1_555
O19_7 C27_7 1_555 1_555
C22_7 C19_7 1_555 1_555
H7_7 C22_7 1_555 1_555
C23_7 N2_7 1_555 1_555
C24_7 C25_7 1_555 1_555
C25_7 C20_7 1_555 1_555
H8_7 C25_7 1_555 1_555
C26_7 C19_7 1_555 1_555
H9_7 C26_7 1_555 1_555
C27_7 C24_7 1_555 1_555
Zn11_10 O10_5 1_555 1_555
O77_18 Zn11_10 1_555 1_555
Zn12_10 O13_5 1_555 1_555
O78_18 Zn12_10 1_555 1_555
Zn13_9 O15_5 1_555 1_555
O79_13 Zn13_9 1_555 1_555
Zn14_9 O18_5 1_555 1_555
O80_13 Zn14_9 1_555 1_555
Zn26 O12_7 1_555 1_555
Zn25_2 O17_7 1_555 1_555
Zn34 O14_7 1_555 1_555
Zn33_2 O19_7 1_555 1_555
C6_7 C8_7 1_555 1_555
O11_7 C14_7 1_555 1_555
C15_7 C17_7 1_555 1_555
O16_7 C23_7 1_555 1_555
N3_7 C23_7 1_555 1_555
C24_7 C26_7 1_555 1_555
O80_13 H57 1_555 1_555
O78_18 H61 1_555 1_555
O6_8 H77 1_555 1_555
O2_9 Zn1_9 1_555 1_555
O6_9 Zn2_9 1_555 1_555
O37_7 Zn1_9 1_555 1_555
O38_7 C56_7 1_555 1_555
O94_4 C63_7 1_555 1_555
O40_7 Zn2_9 1_555 1_555
N7_7 C59_7 1_555 1_555
C55_7 C57_7 1_555 1_555
C56_7 C58_7 1_555 1_555
C57_7 O37_7 1_555 1_555
O106_4 C63_7 1_555 1_555
C58_7 C55_7 1_555 1_555
H19_7 C58_7 1_555 1_555
C59_7 O38_7 1_555 1_555
C60_7 C61_7 1_555 1_555
C61_7 C56_7 1_555 1_555
H20_7 C61_7 1_555 1_555
C62_7 C55_7 1_555 1_555
H21_7 C62_7 1_555 1_555
C63_7 C60_7 1_555 1_555
O44_5 C66_7 1_555 1_555
O45_7 C65_7 1_555 1_555
O46_7 C72_7 1_555 1_555
O47_5 C66_7 1_555 1_555
N8_7 C68_7 1_555 1_555
C64_7 C66_7 1_555 1_555
C65_7 C67_7 1_555 1_555
O48_7 C72_7 1_555 1_555
C67_7 C64_7 1_555 1_555
H22_7 C67_7 1_555 1_555
C68_7 N7_7 1_555 1_555
C69_7 C70_7 1_555 1_555
C70_7 C65_7 1_555 1_555
H23_7 C70_7 1_555 1_555
C71_7 C64_7 1_555 1_555
H24_7 C71_7 1_555 1_555
C72_7 C69_7 1_555 1_555
O49_5 C75_7 1_555 1_555
O50_7 C74_7 1_555 1_555
O51_7 C81_7 1_555 1_555
O52_5 C75_7 1_555 1_555
N9_7 C59_7 1_555 1_555
C73_7 C75_7 1_555 1_555
C74_7 C76_7 1_555 1_555
O53_7 C81_7 1_555 1_555
C76_7 C73_7 1_555 1_555
H25_7 C76_7 1_555 1_555
C77_7 N8_7 1_555 1_555
C78_7 C79_7 1_555 1_555
C79_7 C74_7 1_555 1_555
H26_7 C79_7 1_555 1_555
C80_7 C73_7 1_555 1_555
H27_7 C80_7 1_555 1_555
C81_7 C78_7 1_555 1_555
Zn15_9 O44_5 1_555 1_555
Zn17_9 O47_5 1_555 1_555
Zn26_3 O46_7 1_555 1_555
Zn25_4 O51_7 1_555 1_555
Zn34_3 O48_7 1_555 1_555
Zn33_4 O53_7 1_555 1_555
O40_7 C57_7 1_555 1_555
C60_7 C62_7 1_555 1_555
O45_7 C68_7 1_555 1_555
C69_7 C71_7 1_555 1_555
O49_5 Zn16_10 1_555 1_555
O50_7 C77_7 1_555 1_555
O52_5 Zn18_10 1_555 1_555
N9_7 C77_7 1_555 1_555
C78_7 C80_7 1_555 1_555
O6_9 H78 1_555 1_555
O2_9 H80 1_555 1_555
O2_10 Zn1_10 1_555 1_555
O6_10 Zn2_10 1_555 1_555
O54_7 Zn1_10 1_555 1_555
O55_7 C83_7 1_555 1_555
O94_5 C90_7 1_555 1_555
O57_7 Zn2_10 1_555 1_555
N10_7 C86_7 1_555 1_555
C82_7 C84_7 1_555 1_555
C83_7 C85_7 1_555 1_555
C84_7 O54_7 1_555 1_555
O106_5 C90_7 1_555 1_555
C85_7 C82_7 1_555 1_555
H28_7 C85_7 1_555 1_555
C86_7 O55_7 1_555 1_555
C87_7 C88_7 1_555 1_555
C88_7 C83_7 1_555 1_555
H29_7 C88_7 1_555 1_555
C89_7 C82_7 1_555 1_555
H30_7 C89_7 1_555 1_555
C90_7 C87_7 1_555 1_555
O61_5 C93_7 1_555 1_555
O62_7 C92_7 1_555 1_555
O63_7 C99_7 1_555 1_555
O64_5 C93_7 1_555 1_555
N11_7 C95_7 1_555 1_555
C91_7 C93_7 1_555 1_555
C92_7 C94_7 1_555 1_555
O65_7 C99_7 1_555 1_555
C94_7 C91_7 1_555 1_555
H31_7 C94_7 1_555 1_555
C95_7 N10_7 1_555 1_555
C96_7 C97_7 1_555 1_555
C97_7 C92_7 1_555 1_555
H32_7 C97_7 1_555 1_555
C98_7 C91_7 1_555 1_555
H33_7 C98_7 1_555 1_555
C99_7 C96_7 1_555 1_555
O66_5 C102_7 1_555 1_555
O67_7 C101_7 1_555 1_555
O68_7 C108_7 1_555 1_555
O69_5 C102_7 1_555 1_555
N12_7 C86_7 1_555 1_555
C100_7 C102_7 1_555 1_555
C101_7 C103_7 1_555 1_555
O70_7 C108_7 1_555 1_555
C103_7 C100_7 1_555 1_555
H34_7 C103_7 1_555 1_555
C104_7 N11_7 1_555 1_555
C105_7 C106_7 1_555 1_555
C106_7 C101_7 1_555 1_555
H35_7 C106_7 1_555 1_555
C107_7 C100_7 1_555 1_555
H36_7 C107_7 1_555 1_555
C108_7 C105_7 1_555 1_555
O79_14 Zn13_10 1_555 1_555
O80_14 Zn14_10 1_555 1_555
Zn25 O68_7 1_555 1_555
Zn26_4 O63_7 1_555 1_555
Zn33 O70_7 1_555 1_555
Zn34_4 O65_7 1_555 1_555
O57_7 C84_7 1_555 1_555
C87_7 C89_7 1_555 1_555
O61_5 Zn13_10 1_555 1_555
O62_7 C95_7 1_555 1_555
O64_5 Zn14_10 1_555 1_555
C96_7 C98_7 1_555 1_555
O66_5 Zn15_10 1_555 1_555
O67_7 C104_7 1_555 1_555
O69_5 Zn17_10 1_555 1_555
N12_7 C104_7 1_555 1_555
C105_7 C107_7 1_555 1_555
O2_10 H79 1_555 1_555
Zn1_11 O1_8 1_555 1_555
Zn2_11 O5_8 1_555 1_555
O1_8 C3_8 1_555 1_555
O2_11 Zn1_11 1_555 1_555
O3_8 C2_8 1_555 1_555
O88_2 C9_8 1_555 1_555
O5_8 C3_8 1_555 1_555
N1_8 C5_8 1_555 1_555
O6_11 Zn2_11 1_555 1_555
C1_8 C3_8 1_555 1_555
C2_8 C4_8 1_555 1_555
O100_2 C9_8 1_555 1_555
C4_8 C1_8 1_555 1_555
H1_8 C4_8 1_555 1_555
C5_8 O3_8 1_555 1_555
C6_8 C7_8 1_555 1_555
C7_8 C2_8 1_555 1_555
H2_8 C7_8 1_555 1_555
C8_8 C1_8 1_555 1_555
H3_8 C8_8 1_555 1_555
C9_8 C6_8 1_555 1_555
O84_6 C12_8 1_555 1_555
O11_8 C11_8 1_555 1_555
O12_8 C18_8 1_555 1_555
O96_6 C12_8 1_555 1_555
N2_8 C14_8 1_555 1_555
C10_8 C12_8 1_555 1_555
C11_8 C13_8 1_555 1_555
O14_8 C18_8 1_555 1_555
C13_8 C10_8 1_555 1_555
H4_8 C13_8 1_555 1_555
C14_8 N1_8 1_555 1_555
C15_8 C16_8 1_555 1_555
C16_8 C11_8 1_555 1_555
H5_8 C16_8 1_555 1_555
C17_8 C10_8 1_555 1_555
H6_8 C17_8 1_555 1_555
C18_8 C15_8 1_555 1_555
O15_6 C21_8 1_555 1_555
O16_8 C20_8 1_555 1_555
O17_8 C27_8 1_555 1_555
O18_6 C21_8 1_555 1_555
N3_8 C5_8 1_555 1_555
C19_8 C21_8 1_555 1_555
C20_8 C22_8 1_555 1_555
O19_8 C27_8 1_555 1_555
C22_8 C19_8 1_555 1_555
H7_8 C22_8 1_555 1_555
C23_8 N2_8 1_555 1_555
C24_8 C25_8 1_555 1_555
C25_8 C20_8 1_555 1_555
H8_8 C25_8 1_555 1_555
C26_8 C19_8 1_555 1_555
H9_8 C26_8 1_555 1_555
C27_8 C24_8 1_555 1_555
Zn16_7 O15_6 1_555 1_555
O79_15 Zn16_7 1_555 1_555
Zn18_7 O18_6 1_555 1_555
O80_15 Zn18_7 1_555 1_555
Zn24_3 O12_8 1_555 1_555
Zn23_2 O17_8 1_555 1_555
Zn32_3 O14_8 1_555 1_555
Zn31_2 O19_8 1_555 1_555
C6_8 C8_8 1_555 1_555
O11_8 C14_8 1_555 1_555
C15_8 C17_8 1_555 1_555
O16_8 C23_8 1_555 1_555
N3_8 C23_8 1_555 1_555
C24_8 C26_8 1_555 1_555
O80_15 H57_2 1_555 1_555
O78_15 H61_2 1_555 1_555
O6_11 H77_2 1_555 1_555
O2_12 Zn1_12 1_555 1_555
O6_12 Zn2_12 1_555 1_555
O20_8 Zn1_12 1_555 1_555
O21_8 C29_8 1_555 1_555
O92_6 C36_8 1_555 1_555
O23_8 Zn2_12 1_555 1_555
N4_8 C32_8 1_555 1_555
C28_8 C30_8 1_555 1_555
C29_8 C31_8 1_555 1_555
C30_8 O20_8 1_555 1_555
O104_6 C36_8 1_555 1_555
C31_8 C28_8 1_555 1_555
H10_8 C31_8 1_555 1_555
C32_8 O21_8 1_555 1_555
C33_8 C34_8 1_555 1_555
C34_8 C29_8 1_555 1_555
H11_8 C34_8 1_555 1_555
C35_8 C28_8 1_555 1_555
H12_8 C35_8 1_555 1_555
C36_8 C33_8 1_555 1_555
O85_4 C39_8 1_555 1_555
O28_8 C38_8 1_555 1_555
O29_8 C45_8 1_555 1_555
O97_4 C39_8 1_555 1_555
N5_8 C41_8 1_555 1_555
C37_8 C39_8 1_555 1_555
C38_8 C40_8 1_555 1_555
O31_8 C45_8 1_555 1_555
C40_8 C37_8 1_555 1_555
H13_8 C40_8 1_555 1_555
C41_8 N4_8 1_555 1_555
C42_8 C43_8 1_555 1_555
C43_8 C38_8 1_555 1_555
H14_8 C43_8 1_555 1_555
C44_8 C37_8 1_555 1_555
H15_8 C44_8 1_555 1_555
C45_8 C42_8 1_555 1_555
O83_6 C48_8 1_555 1_555
O33_8 C47_8 1_555 1_555
O34_8 C54_8 1_555 1_555
O95_6 C48_8 1_555 1_555
N6_8 C32_8 1_555 1_555
C46_8 C48_8 1_555 1_555
C47_8 C49_8 1_555 1_555
O36_8 C54_8 1_555 1_555
C49_8 C46_8 1_555 1_555
H16_8 C49_8 1_555 1_555
C50_8 N5_8 1_555 1_555
C51_8 C52_8 1_555 1_555
C52_8 C47_8 1_555 1_555
H17_8 C52_8 1_555 1_555
C53_8 C46_8 1_555 1_555
H18_8 C53_8 1_555 1_555
C54_8 C51_8 1_555 1_555
Zn23 O34_8 1_555 1_555
Zn24_2 O29_8 1_555 1_555
Zn31 O36_8 1_555 1_555
Zn32_2 O31_8 1_555 1_555
O23_8 C30_8 1_555 1_555
C33_8 C35_8 1_555 1_555
O28_8 C41_8 1_555 1_555
C42_8 C44_8 1_555 1_555
O33_8 C50_8 1_555 1_555
N6_8 C50_8 1_555 1_555
C51_8 C53_8 1_555 1_555
O77_16 H65_2 1_555 1_555
O2_13 Zn1_13 1_555 1_555
O6_13 Zn2_13 1_555 1_555
O54_8 Zn1_13 1_555 1_555
O55_8 C83_8 1_555 1_555
O92_4 C90_8 1_555 1_555
O57_8 Zn2_13 1_555 1_555
N10_8 C86_8 1_555 1_555
C82_8 C84_8 1_555 1_555
C83_8 C85_8 1_555 1_555
C84_8 O54_8 1_555 1_555
O104_4 C90_8 1_555 1_555
C85_8 C82_8 1_555 1_555
H28_8 C85_8 1_555 1_555
C86_8 O55_8 1_555 1_555
C87_8 C88_8 1_555 1_555
C88_8 C83_8 1_555 1_555
H29_8 C88_8 1_555 1_555
C89_8 C82_8 1_555 1_555
H30_8 C89_8 1_555 1_555
C90_8 C87_8 1_555 1_555
O61_6 C93_8 1_555 1_555
O62_8 C92_8 1_555 1_555
O63_8 C99_8 1_555 1_555
O64_6 C93_8 1_555 1_555
N11_8 C95_8 1_555 1_555
C91_8 C93_8 1_555 1_555
C92_8 C94_8 1_555 1_555
O65_8 C99_8 1_555 1_555
C94_8 C91_8 1_555 1_555
H31_8 C94_8 1_555 1_555
C95_8 N10_8 1_555 1_555
C96_8 C97_8 1_555 1_555
C97_8 C92_8 1_555 1_555
H32_8 C97_8 1_555 1_555
C98_8 C91_8 1_555 1_555
H33_8 C98_8 1_555 1_555
C99_8 C96_8 1_555 1_555
O66_6 C102_8 1_555 1_555
O67_8 C101_8 1_555 1_555
O68_8 C108_8 1_555 1_555
O69_6 C102_8 1_555 1_555
N12_8 C86_8 1_555 1_555
C100_8 C102_8 1_555 1_555
C101_8 C103_8 1_555 1_555
O70_8 C108_8 1_555 1_555
C103_8 C100_8 1_555 1_555
H34_8 C103_8 1_555 1_555
C104_8 N11_8 1_555 1_555
C105_8 C106_8 1_555 1_555
C106_8 C101_8 1_555 1_555
H35_8 C106_8 1_555 1_555
C107_8 C100_8 1_555 1_555
H36_8 C107_8 1_555 1_555
C108_8 C105_8 1_555 1_555
O79_16 Zn16_8 1_555 1_555
O80_16 Zn18_8 1_555 1_555
Zn23_3 O68_8 1_555 1_555
Zn24_4 O63_8 1_555 1_555
Zn31_3 O70_8 1_555 1_555
Zn32_4 O65_8 1_555 1_555
O57_8 C84_8 1_555 1_555
C87_8 C89_8 1_555 1_555
O61_6 Zn16_8 1_555 1_555
O62_8 C95_8 1_555 1_555
O64_6 Zn18_8 1_555 1_555
C96_8 C98_8 1_555 1_555
O66_6 Zn15_7 1_555 1_555
O67_8 C104_8 1_555 1_555
O69_6 Zn17_7 1_555 1_555
N12_8 C104_8 1_555 1_555
C105_8 C107_8 1_555 1_555
O2_13 H79_2 1_555 1_555
O2_14 Zn1_14 1_555 1_555
O6_14 Zn2_14 1_555 1_555
O37_8 Zn1_14 1_555 1_555
O38_8 C56_8 1_555 1_555
O92_5 C63_8 1_555 1_555
O40_8 Zn2_14 1_555 1_555
N7_8 C59_8 1_555 1_555
C55_8 C57_8 1_555 1_555
C56_8 C58_8 1_555 1_555
C57_8 O37_8 1_555 1_555
O104_5 C63_8 1_555 1_555
C58_8 C55_8 1_555 1_555
H19_8 C58_8 1_555 1_555
C59_8 O38_8 1_555 1_555
C60_8 C61_8 1_555 1_555
C61_8 C56_8 1_555 1_555
H20_8 C61_8 1_555 1_555
C62_8 C55_8 1_555 1_555
H21_8 C62_8 1_555 1_555
C63_8 C60_8 1_555 1_555
O44_6 C66_8 1_555 1_555
O45_8 C65_8 1_555 1_555
O46_8 C72_8 1_555 1_555
O47_6 C66_8 1_555 1_555
N8_8 C68_8 1_555 1_555
C64_8 C66_8 1_555 1_555
C65_8 C67_8 1_555 1_555
O48_8 C72_8 1_555 1_555
C67_8 C64_8 1_555 1_555
H22_8 C67_8 1_555 1_555
C68_8 N7_8 1_555 1_555
C69_8 C70_8 1_555 1_555
C70_8 C65_8 1_555 1_555
H23_8 C70_8 1_555 1_555
C71_8 C64_8 1_555 1_555
H24_8 C71_8 1_555 1_555
C72_8 C69_8 1_555 1_555
O86_4 C75_8 1_555 1_555
O50_8 C74_8 1_555 1_555
O51_8 C81_8 1_555 1_555
O98_4 C75_8 1_555 1_555
N9_8 C59_8 1_555 1_555
C73_8 C75_8 1_555 1_555
C74_8 C76_8 1_555 1_555
O53_8 C81_8 1_555 1_555
C76_8 C73_8 1_555 1_555
H25_8 C76_8 1_555 1_555
C77_8 N8_8 1_555 1_555
C78_8 C79_8 1_555 1_555
C79_8 C74_8 1_555 1_555
H26_8 C79_8 1_555 1_555
C80_8 C73_8 1_555 1_555
H27_8 C80_8 1_555 1_555
C81_8 C78_8 1_555 1_555
Zn15_8 O44_6 1_555 1_555
Zn17_8 O47_6 1_555 1_555
Zn24 O46_8 1_555 1_555
Zn23_4 O51_8 1_555 1_555
Zn32 O48_8 1_555 1_555
Zn31_4 O53_8 1_555 1_555
O40_8 C57_8 1_555 1_555
C60_8 C62_8 1_555 1_555
O45_8 C68_8 1_555 1_555
C69_8 C71_8 1_555 1_555
O50_8 C77_8 1_555 1_555
N9_8 C77_8 1_555 1_555
C78_8 C80_8 1_555 1_555
O6_14 H78_2 1_555 1_555
O2_14 H80_2 1_555 1_555
O79_17 Zn16_9 1_555 1_555
O80_17 Zn18_9 1_555 1_555
O79_17 H73_2 1_555 1_555
O78_18 H62_2 1_555 1_555
O77_18 H66_2 1_555 1_555
O79_18 Zn16_10 1_555 1_555
O80_18 Zn18_10 1_555 1_555
O80_18 H58_2 1_555 1_555
O79_18 H74_2 1_555 1_555
O77_15 H73_3 1_555 1_555
O78_16 H58_3 1_555 1_555
O77_16 H74_3 1_555 1_555
O80_16 H62_3 1_555 1_555
O79_16 H66_3 1_555 1_555
O78_17 H57_3 1_555 1_555
O80_17 H61_3 1_555 1_555
O6_7 H77_3 1_555 1_555
O2_8 H79_3 1_555 1_555
O79_18 H65_3 1_555 1_555
O6_10 H78_3 1_555 1_555
O2_10 H80_3 1_555 1_555
O80_11 H62_4 1_555 1_555
O79_11 H66_4 1_555 1_555
O79_19 Zn15_7 1_555 1_555
O80_19 Zn17_7 1_555 1_555
O80_19 H58_4 1_555 1_555
O79_19 H74_4 1_555 1_555
O79_20 Zn15_8 1_555 1_555
O80_20 Zn17_8 1_555 1_555
O79_20 H73_4 1_555 1_555
O6_7 H78_4 1_555 1_555
O2_7 H80_4 1_555 1_555
O79_13 H65_4 1_555 1_555
O79_21 Zn15_9 1_555 1_555
O80_21 Zn17_9 1_555 1_555
O2_9 H79_4 1_555 1_555
O79_22 Zn15_10 1_555 1_555
O80_22 Zn17_10 1_555 1_555
O80_22 H57_4 1_555 1_555
O80_14 H61_4 1_555 1_555
O6_10 H77_4 1_555 1_555
O79_15 H65_5 1_555 1_555
O6_12 H78_5 1_555 1_555
O2_12 H80_5 1_555 1_555
O80_19 H57_5 1_555 1_555
O80_16 H61_5 1_555 1_555
O6_13 H77_5 1_555 1_555
O2_14 H79_5 1_555 1_555
O80_17 H62_5 1_555 1_555
O79_17 H66_5 1_555 1_555
O79_21 H73_5 1_555 1_555
O80_22 H58_5 1_555 1_555
O79_22 H74_5 1_555 1_555
O2_11 H79_6 1_555 1_555
O78_16 H57_6 1_555 1_555
O80_11 H61_6 1_555 1_555
O6_12 H77_6 1_555 1_555
O6_13 H78_6 1_555 1_555
O2_13 H80_6 1_555 1_555
O79_12 H65_6 1_555 1_555
O78_17 H58_6 1_555 1_555
O77_17 H74_6 1_555 1_555
O77_18 H73_6 1_555 1_555
O80_14 H62_6 1_555 1_555
O79_14 H66_6 1_555 1_555
O80_15 H58_7 1_555 1_555
O79_15 H74_7 1_555 1_555
O79_16 H73_7 1_555 1_555
O80_20 H62_7 1_555 1_555
O79_20 H66_7 1_555 1_555
O2_7 H79_7 1_555 1_555
O6_8 H78_7 1_555 1_555
O2_8 H80_7 1_555 1_555
O80_18 H57_7 1_555 1_555
O80_21 H61_7 1_555 1_555
O6_9 H77_7 1_555 1_555
O79_22 H65_7 1_555 1_555
O6_11 H78_8 1_555 1_555
O2_11 H80_8 1_555 1_555
O2_12 H79_8 1_555 1_555
O79_19 H65_8 1_555 1_555
O80_12 H57_8 1_555 1_555
O80_20 H61_8 1_555 1_555
O6_14 H77_8 1_555 1_555
O80_13 H58_8 1_555 1_555
O79_13 H74_8 1_555 1_555
O80_21 H62_8 1_555 1_555
O79_21 H66_8 1_555 1_555
O79_14 H73_8 1_555 1_555
O8_3 Zn23_3 1_555 1_555
O9_3 Zn31_3 1_555 1_555
O59_7 Zn24_3 1_555 1_555
O60_7 Zn32_3 1_555 1_555
O71_3 Zn31_3 1_555 1_555
O72_3 Zn31_3 1_555 1_555
O74_7 Zn32_3 1_555 1_555
O75_7 Zn32_3 1_555 1_555
O25_3 Zn26_3 1_555 1_555
O26_3 Zn34_3 1_555 1_555
O42_7 Zn25_3 1_555 1_555
O43_7 Zn33_3 1_555 1_555
O73_3 Zn34_3 1_555 1_555
O76_3 Zn34_3 1_555 1_555
O81_7 Zn33_3 1_555 1_555
O82_7 Zn33_3 1_555 1_555
O59_8 Zn23 1_555 1_555
O60_8 Zn31 1_555 1_555
O74_8 Zn31 1_555 1_555
O75_8 Zn31 1_555 1_555
O42_8 Zn26 1_555 1_555
O43_8 Zn34 1_555 1_555
O81_8 Zn34 1_555 1_555
O82_8 Zn34 1_555 1_555
O59_9 Zn24 1_555 1_555
O60_9 Zn32 1_555 1_555
O74_9 Zn32 1_555 1_555
O75_9 Zn32 1_555 1_555
O42_9 Zn25 1_555 1_555
O43_9 Zn33 1_555 1_555
O81_9 Zn33 1_555 1_555
O82_9 Zn33 1_555 1_555
O8_4 Zn24_2 1_555 1_555
O9_4 Zn32_2 1_555 1_555
O71_4 Zn32_2 1_555 1_555
O72_4 Zn32_2 1_555 1_555
O59_10 Zn23_4 1_555 1_555
O60_10 Zn31_4 1_555 1_555
O74_10 Zn31_4 1_555 1_555
O75_10 Zn31_4 1_555 1_555
O25_4 Zn25_2 1_555 1_555
O26_4 Zn33_2 1_555 1_555
O73_4 Zn33_2 1_555 1_555
O76_4 Zn33_2 1_555 1_555
O42_10 Zn26_4 1_555 1_555
O43_10 Zn34_4 1_555 1_555
O81_10 Zn34_4 1_555 1_555
O82_10 Zn34_4 1_555 1_555
O59_11 Zn24_4 1_555 1_555
O60_11 Zn32_4 1_555 1_555
O74_11 Zn32_4 1_555 1_555
O75_11 Zn32_4 1_555 1_555
O42_11 Zn25_4 1_555 1_555
O43_11 Zn33_4 1_555 1_555
O81_11 Zn33_4 1_555 1_555
O82_11 Zn33_4 1_555 1_555
O59_12 Zn23_2 1_555 1_555
O60_12 Zn31_2 1_555 1_555
O74_12 Zn31_2 1_555 1_555
O75_12 Zn31_2 1_555 1_555
O42_12 Zn26_2 1_555 1_555
O43_12 Zn34_2 1_555 1_555
O81_12 Zn34_2 1_555 1_555
O82_12 Zn34_2 1_555 1_555

#END
