
###############################################################################
#
# This file contains modified crystal structure data generated from the
# MOF subset of the Cambridge Structural Database (CSD) v543 
# hosted by the Cambridge Crystallographic Data Centre (CCDC).
#
# This work is licensed under the Creative Commons
# Attribution-NonCommercial-ShareAlike 4.0 International License.
# To view a copy of this license, visit
# http://creativecommons.org/licenses/by-nc-sa/4.0/
# or send a letter to
# Creative Commons, PO Box 1866, Mountain View, CA 94042, USA.
#
# CIF created using the CSD Python API on 29 September 2022
# The structure has been converted into the P1 space group
# The structure has a 3D framework
# The original CSD entry MIRKIK is in the tetragonal crystal system
# The framework has been calculated to contain at least 10.0% void space
# The void calculation uses a probe of radius 1.32A, grid spacing 0.4
# The framework is charged, counterions have been retained in the structure
#
###############################################################################

data_MIRKIK
_chemical_formula_moiety         '(C544 H640 Ag8 B28 F96 N32 O128 S32 12-)n'
_symmetry_cell_setting           triclinic
_symmetry_space_group_name_H-M   'P 1'
_symmetry_Int_Tables_number      1
_space_group_name_Hall           'P 1'
loop_
_symmetry_equiv_pos_site_id
_symmetry_equiv_pos_as_xyz
1 x,y,z
_cell_length_a                   21.4161(10)
_cell_length_b                   21.4161(10)
_cell_length_c                   50.909(6)
_cell_angle_alpha                90
_cell_angle_beta                 90
_cell_angle_gamma                90
_cell_volume                     23349.4
loop_
_atom_site_label
_atom_site_type_symbol
_atom_site_fract_x
_atom_site_fract_y
_atom_site_fract_z
F1 F 0.4515(5) 0.2560(5) 0.0503(2)
F2 F 0.4869(7) 0.2010(7) 0.0811(3)
B1 B 0.500 0.250 0.0661(7)
F3 F 0.5485(5) 0.2440(5) 0.0503(2)
F4 F 0.5131(7) 0.2990(7) 0.0811(3)
F1_2 F 0.0485(5) 0.7440(5) 0.5503(2)
F2_2 F 0.0131(7) 0.7990(7) 0.5811(3)
B1_2 B 0.000 0.750 0.5661(7)
B1_3 B 1.000 0.750 0.5661(7)
F3_2 F 0.9515(5) 0.7560(5) 0.5503(2)
F4_2 F 0.9869(7) 0.7010(7) 0.5811(3)
F1_3 F 0.4940(5) 0.7015(5) 0.3003(2)
F2_3 F 0.5490(7) 0.7369(7) 0.3311(3)
B1_4 B 0.500 0.750 0.3161(7)
F3_3 F 0.5060(5) 0.7985(5) 0.3003(2)
F4_3 F 0.4510(7) 0.7631(7) 0.3311(3)
F1_4 F 0.0060(5) 0.2985(5) 0.8003(2)
B1_5 B -0.000 0.250 0.8161(7)
F4_4 F 0.0490(7) 0.2369(7) 0.8311(3)
F2_4 F 0.9510(7) 0.2631(7) 0.8311(3)
B1_6 B 1.000 0.250 0.8161(7)
F3_4 F 0.9940(5) 0.2015(5) 0.8003(2)
F1_5 F 0.5485(5) 0.7440(5) 0.9497(2)
F2_5 F 0.5131(7) 0.7990(7) 0.9189(3)
B1_7 B 0.500 0.750 0.9339(7)
F3_5 F 0.4515(5) 0.7560(5) 0.9497(2)
F4_5 F 0.4869(7) 0.7010(7) 0.9189(3)
B1_8 B -0.000 0.250 0.4339(7)
F3_6 F 0.0485(5) 0.2440(5) 0.4497(2)
F4_6 F 0.0131(7) 0.2990(7) 0.4189(3)
F1_6 F 0.9515(5) 0.2560(5) 0.4497(2)
F2_6 F 0.9869(7) 0.2010(7) 0.4189(3)
B1_9 B 1.000 0.250 0.4339(7)
F1_7 F 0.5060(5) 0.2985(5) 0.6997(2)
F2_7 F 0.4510(7) 0.2631(7) 0.6689(3)
B1_10 B 0.500 0.250 0.6839(7)
F3_7 F 0.4940(5) 0.2015(5) 0.6997(2)
F4_7 F 0.5490(7) 0.2369(7) 0.6689(3)
F2_8 F 0.0490(7) 0.7369(7) 0.1689(3)
B1_11 B 0.000 0.750 0.1839(7)
F3_8 F 0.0060(5) 0.7985(5) 0.1997(2)
F1_8 F 0.9940(5) 0.7015(5) 0.1997(2)
B1_12 B 1.000 0.750 0.1839(7)
F4_8 F 0.9510(7) 0.7631(7) 0.1689(3)
F5 F 0.2534(10) 0.0932(10) 0.0193(5)
F6 F 0.2213(14) 0.0280(14) 0.0411(6)
F7 F 0.1523(13) 0.0467(13) 0.0140(5)
F8 F 0.1824(9) 0.1282(9) 0.0420(4)
B2 B 0.1941 0.0816 0.0314
F5_2 F 0.2466(10) 0.9068(10) 0.5193(5)
F6_2 F 0.2787(14) 0.9720(14) 0.5411(6)
F7_2 F 0.3477(13) 0.9533(13) 0.5140(5)
F8_2 F 0.3176(9) 0.8718(9) 0.5420(4)
B2_2 B 0.3059 0.9184 0.5314
F5_3 F 0.6568(10) 0.5034(10) 0.2693(5)
F6_3 F 0.7220(14) 0.4713(14) 0.2911(6)
F7_3 F 0.7033(13) 0.4023(13) 0.2640(5)
F8_3 F 0.6218(9) 0.4324(9) 0.2920(4)
B2_3 B 0.6684 0.4441 0.2814
F5_4 F 0.8432(10) 0.4966(10) 0.7693(5)
F6_4 F 0.7780(14) 0.5287(14) 0.7911(6)
F7_4 F 0.7967(13) 0.5977(13) 0.7640(5)
F8_4 F 0.8782(9) 0.5676(9) 0.7920(4)
B2_4 B 0.8316 0.5559 0.7814
F5_5 F 0.7534(10) 0.5932(10) 0.5193(5)
F6_5 F 0.7213(14) 0.5280(14) 0.5411(6)
F7_5 F 0.6523(13) 0.5467(13) 0.5140(5)
F8_5 F 0.6824(9) 0.6282(9) 0.5420(4)
B2_5 B 0.6941 0.5816 0.5314
F5_6 F 0.7466(10) 0.4068(10) 0.0193(5)
F6_6 F 0.7787(14) 0.4720(14) 0.0411(6)
F7_6 F 0.8477(13) 0.4533(13) 0.0140(5)
F8_6 F 0.8176(9) 0.3718(9) 0.0420(4)
B2_6 B 0.8059 0.4184 0.0314
F5_7 F 0.1568(10) 0.0034(10) 0.7693(5)
F6_7 F 0.2220(14) 0.9713(14) 0.7911(6)
F7_7 F 0.2033(13) 0.9023(13) 0.7640(5)
F8_7 F 0.1218(9) 0.9324(9) 0.7920(4)
B2_7 B 0.1684 0.9441 0.7814
F6_8 F 0.2780(14) 0.0287(14) 0.2911(6)
F7_8 F 0.2967(13) 0.0977(13) 0.2640(5)
F8_8 F 0.3782(9) 0.0676(9) 0.2920(4)
B2_8 B 0.3316 0.0559 0.2814
F5_8 F 0.3432(10) 0.9966(10) 0.2693(5)
F5_9 F 0.7466(10) 0.9068(10) 0.9807(5)
F6_9 F 0.7787(14) 0.9720(14) 0.9589(6)
F7_9 F 0.8477(13) 0.9533(13) 0.9860(5)
F8_9 F 0.8176(9) 0.8718(9) 0.9580(4)
B2_9 B 0.8059 0.9184 0.9686
F5_10 F 0.7534(10) 0.0932(10) 0.4807(5)
F6_10 F 0.7213(14) 0.0280(14) 0.4589(6)
F7_10 F 0.6523(13) 0.0467(13) 0.4860(5)
F8_10 F 0.6824(9) 0.1282(9) 0.4580(4)
B2_10 B 0.6941 0.0816 0.4686
F5_11 F 0.3432(10) 0.4966(10) 0.7307(5)
F6_11 F 0.2780(14) 0.5287(14) 0.7089(6)
F7_11 F 0.2967(13) 0.5977(13) 0.7360(5)
F8_11 F 0.3782(9) 0.5676(9) 0.7080(4)
B2_11 B 0.3316 0.5559 0.7186
F5_12 F 0.1568(10) 0.5034(10) 0.2307(5)
F6_12 F 0.2220(14) 0.4713(14) 0.2089(6)
F7_12 F 0.2033(13) 0.4023(13) 0.2360(5)
F8_12 F 0.1218(9) 0.4324(9) 0.2080(4)
B2_12 B 0.1684 0.4441 0.2186
F5_13 F 0.2466(10) 0.4068(10) 0.4807(5)
F6_13 F 0.2787(14) 0.4720(14) 0.4589(6)
F7_13 F 0.3477(13) 0.4533(13) 0.4860(5)
F8_13 F 0.3176(9) 0.3718(9) 0.4580(4)
B2_13 B 0.3059 0.4184 0.4686
F5_14 F 0.2534(10) 0.5932(10) 0.9807(5)
F6_14 F 0.2213(14) 0.5280(14) 0.9589(6)
F7_14 F 0.1523(13) 0.5467(13) 0.9860(5)
F8_14 F 0.1824(9) 0.6282(9) 0.9580(4)
B2_14 B 0.1941 0.5816 0.9686
F6_15 F 0.7780(14) 0.0287(14) 0.2089(6)
F7_15 F 0.7967(13) 0.0977(13) 0.2360(5)
F8_15 F 0.8782(9) 0.0676(9) 0.2080(4)
B2_15 B 0.8316 0.0559 0.2186
F5_15 F 0.8432(10) 0.9966(10) 0.2307(5)
F5_16 F 0.6568(10) 0.0034(10) 0.7307(5)
F6_16 F 0.7220(14) 0.9713(14) 0.7089(6)
F7_16 F 0.7033(13) 0.9023(13) 0.7360(5)
F8_16 F 0.6218(9) 0.9324(9) 0.7080(4)
B2_16 B 0.6684 0.9441 0.7186
C1 C 0.4127(5) 0.0546(5) 0.0348(2)
C2 C 0.3457(6) 0.1358(6) 0.0581(2)
C3 C 0.3254(6) 0.1957(6) 0.0656(3)
C4 C 0.3354(6) 0.2232(6) 0.0881(2)
H1 H 0.356137 0.201533 0.101361
C5 C 0.3156(7) 0.2846(8) 0.0927(3)
H2 H 0.322449 0.302923 0.109053
C6 C 0.2762(8) 0.2922(8) 0.0532(3)
H3 H 0.254557 0.315999 0.040901
C7 C 0.2959(6) 0.2300(7) 0.0478(3)
H4 H 0.287811 0.212842 0.031391
C8 C 0.3391(6) 0.0791(6) 0.0730(2)
C9 C 0.3026(6) 0.0693(6) 0.0956(2)
C10 C 0.3203(6) 0.0272(6) 0.1142(3)
H5 H 0.357773 0.005847 0.112077
C11 C 0.2834(8) 0.0151(8) 0.1364(4)
C12 C 0.2061(7) 0.0852(7) 0.1205(3)
H7 H 0.168219 0.105723 0.122822
C13 C 0.2430(7) 0.0969(7) 0.0987(3)
H8 H 0.228143 0.12361 0.085697
C14 C 0.4579(6) 0.0270(6) 0.0163(2)
C15 C 0.5192(6) 0.0214(6) 0.0247(3)
C16 C 0.5385(7) 0.0388(6) 0.0513(3)
H9 H 0.509664 0.05269 0.063647
C17 C 0.5999(7) 0.0338(7) 0.0573(3)
C20 C 0.6458(7) 0.0128(6) 0.0416(3)
C21 C 0.5727(9) 0.0662(9) 0.1024(4)
H11 H 0.533409 0.044585 0.099631
H12 H 0.565885 0.110957 0.102172
C22 C 0.6070(10) 0.0437(10) 0.1286(4)
H13 H 0.579603 0.043474 0.1438
H14 H 0.627299 0.00353 0.126673
C23 C 0.6796(16) 0.0880(17) 0.1607(6)
H15 H 0.646946 0.090438 0.173848
H16 H 0.704682 0.050767 0.163052
C24 C 0.7156(15) 0.1441(15) 0.1583(6)
H17 H 0.736225 0.144033 0.14137
H18 H 0.747917 0.143617 0.171706
C25 C 0.7056(12) 0.2745(14) 0.1637(5)
H19 H 0.74113 0.278227 0.152007
H20 H 0.719534 0.281746 0.181567
C26 C 0.653(2) 0.323(3) 0.1559(12)
H21 H 0.62421 0.293704 0.147882
H22 H 0.636007 0.329657 0.17329
C27 C 0.565(2) 0.3793(19) 0.1404(8)
H23 H 0.551684 0.417401 0.13214
H24 H 0.55275 0.344444 0.129669
H25 H 0.545363 0.375765 0.157327
H26 H 0.743391 0.020181 0.01431
C29 C 0.8174(9) 0.0181(9) 0.0427(4)
H29 H 0.849605 0.007514 0.030037
C30 C 0.8936(10) 0.0938(11) 0.0532(4)
H30 H 0.912243 0.062608 0.064538
H31 H 0.916073 0.095416 0.036646
C31 C 0.8904(13) 0.1476(14) 0.0643(5)
H32 H 0.868682 0.17418 0.051855
H33 H 0.93303 0.162747 0.0649
C32 C 0.8699(10) 0.2295(9) 0.1043(4)
H34 H 0.912762 0.238939 0.109018
H35 H 0.853209 0.263244 0.093736
C33 C 0.8313(14) 0.2184(15) 0.1278(6)
H36 H 0.797947 0.18853 0.12496
H37 H 0.815415 0.256369 0.135723
C34 C 0.8686(18) 0.1889(17) 0.1726(7)
H38 H 0.902975 0.17188 0.182386
H39 H 0.859721 0.230326 0.178829
H40 H 0.832462 0.163 0.175009
Ag1 Ag 0.75148(7) 0.09496(6) 0.08712(3)
N1 N 0.2903(6) 0.3133(6) 0.0761(3)
N2 N 0.2265(6) 0.0436(6) 0.1382(3)
S1 S 0.39593(19) 0.12971(14) 0.03251(8)
S2 S 0.37828(17) 0.01666(14) 0.05946(8)
O1 O 0.6230(5) 0.0458(5) 0.0830(2)
O2 O 0.6526(7) 0.0978(7) 0.1288(3)
O3 O 0.6758(10) 0.2093(10) 0.1612(4)
O4 O 0.631(2) 0.380(3) 0.1435(19)
O5 O 0.7066(5) 0.0134(5) 0.0482(2)
O6 O 0.8230(7) 0.0824(7) 0.0491(3)
O7 O 0.8646(8) 0.1624(8) 0.0891(3)
O8 O 0.8864(11) 0.1916(10) 0.1419(4)
Ag2 Ag 0.24852(7) 0.40504(6) 0.08712(3)
Ag5 Ag 0.15504(6) 0.00148(7) 0.16288(3)
N5 N 0.7097(6) 0.1867(6) 0.0761(3)
N6 N 0.2064(6) 0.4765(6) 0.1118(3)
N7 N 0.7936(6) 0.0235(6) 0.1118(3)
O17 O 0.1770(7) 0.4176(7) 0.0491(3)
C35 C 0.5873(5) 0.9454(5) 0.9652(2)
C36 C 0.6543(6) 0.8642(6) 0.9419(2)
C37 C 0.6746(6) 0.8043(6) 0.9344(3)
C38 C 0.6646(6) 0.7768(6) 0.9119(2)
H41 H 0.643863 0.798467 0.898639
C39 C 0.6844(7) 0.7154(8) 0.9073(3)
H42 H 0.677551 0.697077 0.890947
C40 C 0.7238(8) 0.7078(8) 0.9468(3)
H43 H 0.745443 0.684001 0.959099
C41 C 0.7041(6) 0.7700(7) 0.9522(3)
H44 H 0.712189 0.787158 0.968609
C42 C 0.6609(6) 0.9209(6) 0.9270(2)
C43 C 0.6974(6) 0.9307(6) 0.9044(2)
C44 C 0.6797(6) 0.9728(6) 0.8858(3)
H45 H 0.642227 0.994153 0.887923
C45 C 0.7166(8) 0.9849(8) 0.8636(4)
C46 C 0.7939(7) 0.9148(7) 0.8795(3)
H47 H 0.831781 0.894277 0.877178
C47 C 0.7570(7) 0.9031(7) 0.9013(3)
H48 H 0.771857 0.87639 0.914303
C48 C 0.5421(6) 0.9730(6) 0.9837(2)
C49 C 0.4808(6) 0.9786(6) 0.9753(3)
C50 C 0.4615(7) 0.9612(6) 0.9487(3)
H49 H 0.490336 0.94731 0.936353
C51 C 0.4001(7) 0.9662(7) 0.9427(3)
C54 C 0.3542(7) 0.9872(6) 0.9584(3)
C55 C 0.4273(9) 0.9338(9) 0.8976(4)
H51 H 0.466591 0.955415 0.900369
H52 H 0.434115 0.889043 0.897828
C56 C 0.3930(10) 0.9563(10) 0.8714(4)
H53 H 0.420397 0.956526 0.8562
H54 H 0.372701 0.99647 0.873327
C57 C 0.3204(16) 0.9120(17) 0.8393(6)
H55 H 0.353054 0.909562 0.826152
H56 H 0.295318 0.949233 0.836948
C58 C 0.2844(15) 0.8559(15) 0.8417(6)
H57 H 0.263775 0.855967 0.85863
H58 H 0.252083 0.856383 0.828294
C59 C 0.2944(12) 0.7255(14) 0.8363(5)
H59 H 0.25887 0.721773 0.847993
H60 H 0.280466 0.718254 0.818433
C60 C 0.347(2) 0.677(3) 0.8441(12)
H61 H 0.37579 0.706296 0.852118
H62 H 0.363993 0.670343 0.82671
C61 C 0.435(2) 0.6207(19) 0.8596(8)
H63 H 0.448316 0.582599 0.86786
H64 H 0.44725 0.655556 0.870331
H65 H 0.454637 0.624235 0.842673
H66 H 0.256609 0.979819 0.98569
C63 C 0.1826(9) 0.9819(9) 0.9573(4)
H69 H 0.150395 0.992486 0.969963
C64 C 0.1064(10) 0.9062(11) 0.9468(4)
H70 H 0.087757 0.937392 0.935462
H71 H 0.083927 0.904584 0.963354
C65 C 0.1096(13) 0.8524(14) 0.9357(5)
H72 H 0.131318 0.82582 0.948145
H73 H 0.06697 0.837253 0.9351
C66 C 0.1301(10) 0.7705(9) 0.8957(4)
H74 H 0.087238 0.761061 0.890982
H75 H 0.146791 0.736756 0.906264
C67 C 0.1687(14) 0.7816(15) 0.8722(6)
H76 H 0.202053 0.81147 0.87504
H77 H 0.184585 0.743631 0.864277
C68 C 0.1314(18) 0.8111(17) 0.8274(7)
H78 H 0.097025 0.82812 0.817614
H79 H 0.140279 0.769674 0.821171
H80 H 0.167538 0.837 0.824991
N3 N 0.7097(6) 0.6867(6) 0.9239(3)
N4 N 0.7735(6) 0.9564(6) 0.8618(3)
S3 S 0.60407(19) 0.87029(14) 0.96749(8)
S4 S 0.62172(17) 0.98334(14) 0.94054(8)
O9 O 0.3770(5) 0.9542(5) 0.9170(2)
O10 O 0.3474(7) 0.9022(7) 0.8712(3)
O11 O 0.3242(10) 0.7907(10) 0.8388(4)
O12 O 0.369(2) 0.620(3) 0.8565(19)
O13 O 0.2934(5) 0.9866(5) 0.9518(2)
O14 O 0.1770(7) 0.9176(7) 0.9509(3)
O15 O 0.1354(8) 0.8376(8) 0.9109(3)
O16 O 0.1136(11) 0.8084(10) 0.8581(4)
Ag3 Ag 0.84496(6) 0.99852(7) 0.83712(3)
Ag4 Ag 0.24852(7) 0.90504(6) 0.91288(3)
Ag6 Ag 0.75148(7) 0.59496(6) 0.91288(3)
H6 H 0.202709 0.011629 0.649515
C49_2 C 0.0192(6) 0.0214(6) 0.4753(3)
C50_2 C 0.0385(7) 0.0388(6) 0.4487(3)
H49_2 H 0.009664 0.05269 0.436353
C51_2 C 0.0999(7) 0.0338(7) 0.4427(3)
C54_2 C 0.1458(7) 0.0128(6) 0.4584(3)
C55_2 C 0.0727(9) 0.0662(9) 0.3976(4)
H51_2 H 0.033409 0.044585 0.400369
H52_2 H 0.065885 0.110957 0.397828
C56_2 C 0.1070(10) 0.0437(10) 0.3714(4)
H53_2 H 0.079603 0.043474 0.3562
H54_2 H 0.127299 0.00353 0.373327
C57_2 C 0.1796(16) 0.0880(17) 0.3393(6)
H55_2 H 0.146946 0.090438 0.326152
H56_2 H 0.204682 0.050767 0.336948
C58_2 C 0.2156(15) 0.1441(15) 0.3417(6)
H57_2 H 0.236225 0.144033 0.35863
H58_2 H 0.247917 0.143617 0.328294
C59_2 C 0.2056(12) 0.2745(14) 0.3363(5)
H59_2 H 0.24113 0.278227 0.347993
H60_2 H 0.219534 0.281746 0.318433
C60_2 C 0.153(2) 0.323(3) 0.3441(12)
H61_2 H 0.12421 0.293704 0.352118
H62_2 H 0.136007 0.329657 0.32671
C61_2 C 0.065(2) 0.3793(19) 0.3596(8)
H63_2 H 0.051684 0.417401 0.36786
H64_2 H 0.05275 0.344444 0.370331
H65_2 H 0.045363 0.375765 0.342673
H66_2 H 0.243391 0.020181 0.48569
C63_2 C 0.3174(9) 0.0181(9) 0.4573(4)
H69_2 H 0.349605 0.007514 0.469963
C64_2 C 0.3936(10) 0.0938(11) 0.4468(4)
H70_2 H 0.412243 0.062608 0.435462
H71_2 H 0.416073 0.095416 0.463354
C65_2 C 0.3904(13) 0.1476(14) 0.4357(5)
H72_2 H 0.368682 0.17418 0.448145
H73_2 H 0.43303 0.162747 0.4351
C66_2 C 0.3699(10) 0.2295(9) 0.3957(4)
H74_2 H 0.412762 0.238939 0.390982
H75_2 H 0.353209 0.263244 0.406264
C67_2 C 0.3313(14) 0.2184(15) 0.3722(6)
H76_2 H 0.297947 0.18853 0.37504
H77_2 H 0.315415 0.256369 0.364277
C68_2 C 0.3686(18) 0.1889(17) 0.3274(7)
H78_2 H 0.402975 0.17188 0.317614
H79_2 H 0.359721 0.230326 0.321171
H80_2 H 0.332462 0.163 0.324991
O9_2 O 0.1230(5) 0.0458(5) 0.4170(2)
O10_2 O 0.1526(7) 0.0978(7) 0.3712(3)
O11_2 O 0.1758(10) 0.2093(10) 0.3388(4)
O12_2 O 0.131(2) 0.380(3) 0.3565(19)
O13_2 O 0.2066(5) 0.0134(5) 0.4518(2)
O14_2 O 0.3230(7) 0.0824(7) 0.4509(3)
O15_2 O 0.3646(8) 0.1624(8) 0.4109(3)
O16_2 O 0.3864(11) 0.1916(10) 0.3581(4)
Ag4_2 Ag 0.25148(7) 0.09496(6) 0.41288(3)
C1_2 C 0.0873(5) 0.9454(5) 0.5348(2)
C2_2 C 0.1543(6) 0.8642(6) 0.5581(2)
C3_2 C 0.1746(6) 0.8043(6) 0.5656(3)
C4_2 C 0.1646(6) 0.7768(6) 0.5881(2)
H1_2 H 0.143863 0.798467 0.601361
C5_2 C 0.1844(7) 0.7154(8) 0.5927(3)
H2_2 H 0.177551 0.697077 0.609053
C6_2 C 0.2238(8) 0.7078(8) 0.5532(3)
H3_2 H 0.245443 0.684001 0.540901
C7_2 C 0.2041(6) 0.7700(7) 0.5478(3)
H4_2 H 0.212189 0.787158 0.531391
C8_2 C 0.1609(6) 0.9209(6) 0.5730(2)
C9_2 C 0.1974(6) 0.9307(6) 0.5956(2)
C10_2 C 0.1797(6) 0.9728(6) 0.6142(3)
H5_2 H 0.142227 0.994153 0.612077
C11_2 C 0.2166(8) 0.9849(8) 0.6364(4)
C12_2 C 0.2939(7) 0.9148(7) 0.6205(3)
H7_2 H 0.331781 0.894277 0.622822
C13_2 C 0.2570(7) 0.9031(7) 0.5987(3)
H8_2 H 0.271857 0.87639 0.585697
C14_2 C 0.0421(6) 0.9730(6) 0.5163(2)
C18 C 0.0631(5) 0.9938(5) 0.4918(2)
C19 C 0.1267(6) 0.9938(6) 0.4833(3)
H10 H 0.157033 0.980418 0.49513
N1_2 N 0.2097(6) 0.6867(6) 0.5761(3)
N2_2 N 0.2735(6) 0.9564(6) 0.6382(3)
S1_2 S 0.10407(19) 0.87029(14) 0.53251(8)
S2_2 S 0.12172(17) 0.98334(14) 0.55946(8)
C62 C 0.2507(9) 0.9984(9) 0.4693(4)
H67 H 0.249875 0.953821 0.472705
H68 H 0.324982 0.993662 0.441607
Ag2_2 Ag 0.25148(7) 0.59496(6) 0.58712(3)
Ag5_2 Ag 0.34496(6) 0.99852(7) 0.66288(3)
N6_2 N 0.2936(6) 0.5235(6) 0.6118(3)
O17_2 O 0.3230(7) 0.5824(7) 0.5491(3)
C28 C 0.7493(9) 0.0016(9) 0.5307(4)
H27 H 0.750125 0.046179 0.527295
H28 H 0.675018 0.006338 0.558393
C35_2 C 0.9127(5) 0.0546(5) 0.4652(2)
C36_2 C 0.8457(6) 0.1358(6) 0.4419(2)
C37_2 C 0.8254(6) 0.1957(6) 0.4344(3)
C38_2 C 0.8354(6) 0.2232(6) 0.4119(2)
H41_2 H 0.856137 0.201533 0.398639
C39_2 C 0.8156(7) 0.2846(8) 0.4073(3)
H42_2 H 0.822449 0.302923 0.390947
C40_2 C 0.7762(8) 0.2922(8) 0.4468(3)
H43_2 H 0.754557 0.315999 0.459099
C41_2 C 0.7959(6) 0.2300(7) 0.4522(3)
H44_2 H 0.787811 0.212842 0.468609
C42_2 C 0.8391(6) 0.0791(6) 0.4270(2)
C43_2 C 0.8026(6) 0.0693(6) 0.4044(2)
C44_2 C 0.8203(6) 0.0272(6) 0.3858(3)
H45_2 H 0.857773 0.005847 0.387923
C45_2 C 0.7834(8) 0.0151(8) 0.3636(4)
C46_2 C 0.7061(7) 0.0852(7) 0.3795(3)
H47_2 H 0.668219 0.105723 0.377178
C47_2 C 0.7430(7) 0.0969(7) 0.4013(3)
H48_2 H 0.728143 0.12361 0.414303
C48_2 C 0.9579(6) 0.0270(6) 0.4837(2)
C52 C 0.9369(5) 0.0062(5) 0.5082(2)
C53 C 0.8733(6) 0.0062(6) 0.5167(3)
H50 H 0.842967 0.019582 0.50487
N3_2 N 0.7903(6) 0.3133(6) 0.4239(3)
N4_2 N 0.7265(6) 0.0436(6) 0.3618(3)
S3_2 S 0.89593(19) 0.12971(14) 0.46749(8)
S4_2 S 0.87828(17) 0.01666(14) 0.44054(8)
Ag3_2 Ag 0.65504(6) 0.00148(7) 0.33712(3)
Ag6_2 Ag 0.74852(7) 0.40504(6) 0.41288(3)
C15_2 C 0.9808(6) 0.9786(6) 0.5247(3)
C16_2 C 0.9615(7) 0.9612(6) 0.5513(3)
H9_2 H 0.990336 0.94731 0.563647
C17_2 C 0.9001(7) 0.9662(7) 0.5573(3)
C20_2 C 0.8542(7) 0.9872(6) 0.5416(3)
C21_2 C 0.9273(9) 0.9338(9) 0.6024(4)
H11_2 H 0.966591 0.955415 0.599631
H12_2 H 0.934115 0.889043 0.602172
C22_2 C 0.8930(10) 0.9563(10) 0.6286(4)
H13_2 H 0.920397 0.956526 0.6438
H14_2 H 0.872701 0.99647 0.626673
C23_2 C 0.8204(16) 0.9120(17) 0.6607(6)
H15_2 H 0.853054 0.909562 0.673848
H16_2 H 0.795318 0.949233 0.663052
C24_2 C 0.7844(15) 0.8559(15) 0.6583(6)
H17_2 H 0.763775 0.855967 0.64137
H18_2 H 0.752083 0.856383 0.671706
C25_2 C 0.7944(12) 0.7255(14) 0.6637(5)
H19_2 H 0.75887 0.721773 0.652007
H20_2 H 0.780466 0.718254 0.681567
C26_2 C 0.847(2) 0.677(3) 0.6559(12)
H21_2 H 0.87579 0.706296 0.647882
H22_2 H 0.863993 0.670343 0.67329
C27_2 C 0.935(2) 0.6207(19) 0.6404(8)
H23_2 H 0.948316 0.582599 0.63214
H24_2 H 0.94725 0.655556 0.629669
H25_2 H 0.954637 0.624235 0.657327
H26_2 H 0.756609 0.979819 0.51431
C29_2 C 0.6826(9) 0.9819(9) 0.5427(4)
H29_2 H 0.650395 0.992486 0.530037
C30_2 C 0.6064(10) 0.9062(11) 0.5532(4)
H30_2 H 0.587757 0.937392 0.564538
H31_2 H 0.583927 0.904584 0.536646
C31_2 C 0.6096(13) 0.8524(14) 0.5643(5)
H32_2 H 0.631318 0.82582 0.551855
H33_2 H 0.56697 0.837253 0.5649
C32_2 C 0.6301(10) 0.7705(9) 0.6043(4)
H34_2 H 0.587238 0.761061 0.609018
H35_2 H 0.646791 0.736756 0.593736
C33_2 C 0.6687(14) 0.7816(15) 0.6278(6)
H36_2 H 0.702053 0.81147 0.62496
H37_2 H 0.684585 0.743631 0.635723
C34_2 C 0.6314(18) 0.8111(17) 0.6726(7)
H38_2 H 0.597025 0.82812 0.682386
H39_2 H 0.640279 0.769674 0.678829
H40_2 H 0.667538 0.837 0.675009
Ag1_2 Ag 0.74852(7) 0.90504(6) 0.58712(3)
O1_2 O 0.8770(5) 0.9542(5) 0.5830(2)
O2_2 O 0.8474(7) 0.9022(7) 0.6288(3)
O3_2 O 0.8242(10) 0.7907(10) 0.6612(4)
O4_2 O 0.869(2) 0.620(3) 0.6435(19)
O5_2 O 0.7934(5) 0.9866(5) 0.5482(2)
O6_2 O 0.6770(7) 0.9176(7) 0.5491(3)
O7_2 O 0.6354(8) 0.8376(8) 0.5891(3)
O8_2 O 0.6136(11) 0.8084(10) 0.6419(4)
H46 H 0.797291 0.988371 0.350485
N5_2 N 0.7903(6) 0.8133(6) 0.5761(3)
N7_2 N 0.7064(6) 0.9765(6) 0.6118(3)
C39_3 C 0.0346(8) 0.9344(7) 0.1573(3)
H42_3 H 0.052923 0.927551 0.140947
C40_3 C 0.0422(8) 0.9738(8) 0.1968(3)
H43_3 H 0.065999 0.995443 0.209099
C59_3 C 0.0245(14) 0.5444(12) 0.0863(5)
H59_3 H 0.028227 0.50887 0.097993
H60_3 H 0.031746 0.530466 0.068433
C60_3 C 0.073(3) 0.597(2) 0.0941(12)
H61_3 H 0.043704 0.62579 0.102118
H62_3 H 0.079657 0.613993 0.07671
C61_3 C 0.1293(19) 0.685(2) 0.1096(8)
H63_3 H 0.167401 0.698316 0.11786
H64_3 H 0.094444 0.69725 0.120331
H65_3 H 0.125765 0.704637 0.092673
H75_3 H 0.013244 0.396791 0.156264
H77_3 H 0.006369 0.434585 0.114277
N3_3 N 0.0633(6) 0.9597(6) 0.1739(3)
O12_3 O 0.130(3) 0.619(2) 0.1065(19)
C28_2 C 0.7516(9) 0.0007(9) 0.2807(4)
C29_3 C 0.7319(9) 0.0674(9) 0.2927(4)
H28_2 H 0.756338 0.074982 0.308393
H29_3 H 0.742486 0.099605 0.280037
C30_3 C 0.6562(11) 0.1436(10) 0.3032(4)
H30_3 H 0.687392 0.162243 0.314538
H31_3 H 0.654584 0.166073 0.286646
C31_3 C 0.6024(14) 0.1404(13) 0.3143(5)
H32_3 H 0.57582 0.118682 0.301855
H33_3 H 0.587253 0.18303 0.3149
C32_3 C 0.5205(9) 0.1199(10) 0.3543(4)
H34_3 H 0.511061 0.162762 0.359018
H35_3 H 0.486756 0.103209 0.343736
C33_3 C 0.5316(15) 0.0813(14) 0.3778(6)
H36_3 H 0.56147 0.047947 0.37496
H37_3 H 0.493631 0.065415 0.385723
C34_3 C 0.5611(17) 0.1186(18) 0.4226(7)
H38_3 H 0.57812 0.152975 0.432386
H39_3 H 0.519674 0.109721 0.428829
H40_3 H 0.587 0.082462 0.425009
O6_3 O 0.6676(7) 0.0730(7) 0.2991(3)
O7_3 O 0.5876(8) 0.1146(8) 0.3391(3)
O8_3 O 0.5584(10) 0.1364(11) 0.3919(4)
C46_3 C 0.8352(7) 0.0439(7) 0.1295(3)
H47_3 H 0.855723 0.081781 0.127178
C47_3 C 0.8469(7) 0.0070(7) 0.1513(3)
H48_3 H 0.87361 0.021857 0.164303
C1_3 C 0.6954(5) 0.6627(5) 0.2848(2)
C2_3 C 0.6142(6) 0.5957(6) 0.3081(2)
C3_3 C 0.5543(6) 0.5754(6) 0.3156(3)
C4_3 C 0.5268(6) 0.5854(6) 0.3381(2)
H1_3 H 0.548467 0.606137 0.351361
C5_3 C 0.4654(8) 0.5656(7) 0.3427(3)
H2_3 H 0.447077 0.572449 0.359053
C6_3 C 0.4578(8) 0.5262(8) 0.3032(3)
H3_3 H 0.434001 0.504557 0.290901
C7_3 C 0.5200(7) 0.5459(6) 0.2978(3)
H4_3 H 0.537158 0.537811 0.281391
C8_3 C 0.6709(6) 0.5891(6) 0.3230(2)
C9_3 C 0.6807(6) 0.5526(6) 0.3456(2)
C10_3 C 0.7228(6) 0.5703(6) 0.3642(3)
H5_3 H 0.744153 0.607773 0.362077
C11_3 C 0.7349(8) 0.5334(8) 0.3864(4)
H6_2 H 0.761629 0.547291 0.399515
C12_3 C 0.6648(7) 0.4561(7) 0.3705(3)
H7_3 H 0.644277 0.418219 0.372822
C13_3 C 0.6531(7) 0.4930(7) 0.3487(3)
H8_3 H 0.62639 0.478143 0.335697
C14_3 C 0.7230(6) 0.7079(6) 0.2663(2)
C15_3 C 0.7286(6) 0.7692(6) 0.2747(3)
C16_3 C 0.7112(6) 0.7885(7) 0.3013(3)
H9_3 H 0.69731 0.759664 0.313647
C17_3 C 0.7162(7) 0.8499(7) 0.3073(3)
C18_2 C 0.7438(5) 0.6869(5) 0.2418(2)
C19_2 C 0.7438(6) 0.6233(6) 0.2333(3)
H10_2 H 0.730418 0.592967 0.24513
C20_3 C 0.7372(6) 0.8958(7) 0.2916(3)
C21_3 C 0.6838(9) 0.8227(9) 0.3524(4)
H11_3 H 0.705415 0.783409 0.349631
H12_3 H 0.639043 0.815885 0.352172
C22_3 C 0.7063(10) 0.8570(10) 0.3786(4)
H13_3 H 0.706526 0.829603 0.3938
H14_3 H 0.74647 0.877299 0.376673
C23_3 C 0.6620(17) 0.9296(16) 0.4107(6)
H15_3 H 0.659562 0.896946 0.423848
H16_3 H 0.699233 0.954682 0.413052
C24_3 C 0.6059(15) 0.9656(15) 0.4083(6)
H17_3 H 0.605967 0.986225 0.39137
H18_3 H 0.606383 0.997917 0.421706
C25_3 C 0.4755(14) 0.9556(12) 0.4137(5)
H19_3 H 0.471773 0.99113 0.402007
H20_3 H 0.468254 0.969534 0.431567
C26_3 C 0.427(3) 0.903(2) 0.4059(12)
H21_3 H 0.456296 0.87421 0.397882
H22_3 H 0.420343 0.886007 0.42329
C27_3 C 0.3707(19) 0.815(2) 0.3904(8)
H23_3 H 0.332599 0.801684 0.38214
H24_3 H 0.405556 0.80275 0.379669
H25_3 H 0.374235 0.795363 0.407327
H26_3 H 0.729819 0.993391 0.26431
H27_2 H 0.796179 0.999875 0.277295
N1_3 N 0.4367(6) 0.5403(6) 0.3261(3)
N2_3 N 0.7064(6) 0.4765(6) 0.3882(3)
S1_3 S 0.62029(14) 0.64593(19) 0.28251(8)
S2_3 S 0.73334(14) 0.62828(17) 0.30946(8)
O1_3 O 0.7042(5) 0.8730(5) 0.3330(2)
O2_3 O 0.6522(7) 0.9026(7) 0.3788(3)
O3_3 O 0.5407(10) 0.9258(10) 0.4112(4)
O4_3 O 0.370(3) 0.881(2) 0.3935(19)
O5_3 O 0.7366(5) 0.9566(5) 0.2982(2)
C35_3 C 0.8046(5) 0.8373(5) 0.2152(2)
C36_3 C 0.8858(6) 0.9043(6) 0.1919(2)
C37_3 C 0.9457(6) 0.9246(6) 0.1844(3)
C38_3 C 0.9732(6) 0.9146(6) 0.1619(2)
H41_3 H 0.951533 0.893863 0.148639
C41_3 C 0.9800(7) 0.9541(6) 0.2022(3)
H44_3 H 0.962842 0.962189 0.218609
C42_3 C 0.8291(6) 0.9109(6) 0.1770(2)
C43_3 C 0.8193(6) 0.9474(6) 0.1544(2)
C44_3 C 0.7772(6) 0.9297(6) 0.1358(3)
H45_3 H 0.755847 0.892227 0.137923
C45_3 C 0.7651(8) 0.9666(8) 0.1136(4)
H46_2 H 0.738371 0.952709 0.100485
C48_3 C 0.7770(6) 0.7921(6) 0.2337(2)
C49_3 C 0.7714(6) 0.7308(6) 0.2253(3)
C50_3 C 0.7888(6) 0.7115(7) 0.1987(3)
H49_3 H 0.80269 0.740336 0.186353
C51_3 C 0.7838(7) 0.6501(7) 0.1927(3)
C52_2 C 0.7562(5) 0.8131(5) 0.2582(2)
C53_2 C 0.7562(6) 0.8767(6) 0.2667(3)
H50_2 H 0.769582 0.907033 0.25487
C54_3 C 0.7628(6) 0.6042(7) 0.2084(3)
C55_3 C 0.8162(9) 0.6773(9) 0.1476(4)
H51_3 H 0.794585 0.716591 0.150369
H52_3 H 0.860957 0.684115 0.147828
C56_3 C 0.7937(10) 0.6430(10) 0.1214(4)
H53_3 H 0.793474 0.670397 0.1062
H54_3 H 0.75353 0.622701 0.123327
C57_3 C 0.8380(17) 0.5704(16) 0.0893(6)
H55_3 H 0.840438 0.603054 0.076152
H56_3 H 0.800767 0.545318 0.086948
C58_3 C 0.8941(15) 0.5344(15) 0.0917(6)
H57_3 H 0.894033 0.513775 0.10863
H58_3 H 0.893617 0.502083 0.078294
C62_2 C 0.7484(9) 0.4993(9) 0.2193(4)
H66_3 H 0.770181 0.506609 0.23569
H67_2 H 0.703821 0.500125 0.222705
C63_3 C 0.7681(9) 0.4326(9) 0.2073(4)
H68_2 H 0.743662 0.425018 0.191607
H69_3 H 0.757514 0.400395 0.219963
C64_3 C 0.8438(11) 0.3564(10) 0.1968(4)
H70_3 H 0.812608 0.337757 0.185462
H71_3 H 0.845416 0.333927 0.213354
C65_3 C 0.8976(14) 0.3596(13) 0.1857(5)
H72_3 H 0.92418 0.381318 0.198145
H73_3 H 0.912747 0.31697 0.1851
C66_3 C 0.9795(9) 0.3801(10) 0.1457(4)
H74_3 H 0.988939 0.337238 0.140982
C67_3 C 0.9684(15) 0.4187(14) 0.1222(6)
H76_3 H 0.93853 0.452053 0.12504
C68_3 C 0.9389(17) 0.3814(18) 0.0774(7)
H78_3 H 0.92188 0.347025 0.067614
H79_3 H 0.980326 0.390279 0.071171
H80_3 H 0.913 0.417538 0.074991
S3_3 S 0.87971(14) 0.85407(19) 0.21749(8)
S4_3 S 0.76666(14) 0.87172(17) 0.19054(8)
O9_3 O 0.7958(5) 0.6270(5) 0.1670(2)
O10_3 O 0.8478(7) 0.5974(7) 0.1212(3)
O11_3 O 0.9593(10) 0.5742(10) 0.0888(4)
O13_3 O 0.7634(5) 0.5434(5) 0.2018(2)
O14_3 O 0.8324(7) 0.4270(7) 0.2009(3)
O15_3 O 0.9124(8) 0.3854(8) 0.1609(3)
O16_3 O 0.9416(10) 0.3636(11) 0.1081(4)
Ag2_3 Ag 0.34496(6) 0.49852(7) 0.33712(3)
Ag4_3 Ag 0.84496(6) 0.49852(7) 0.16288(3)
N5_3 N 0.5633(6) 0.9597(6) 0.3261(3)
N6_3 N 0.2735(6) 0.4564(6) 0.3618(3)
O17_3 O 0.3324(7) 0.4270(7) 0.2991(3)
C5_4 C 0.0346(8) 0.4344(7) 0.8427(3)
H2_4 H 0.052923 0.427551 0.859053
C6_4 C 0.0422(8) 0.4738(8) 0.8032(3)
H3_4 H 0.065999 0.495443 0.790901
C25_4 C 0.0245(14) 0.0444(12) 0.9137(5)
H19_4 H 0.028227 0.00887 0.902007
H20_4 H 0.031746 0.030466 0.931567
C26_4 C 0.073(3) 0.097(2) 0.9059(12)
H21_4 H 0.043704 0.12579 0.897882
H22_4 H 0.079657 0.113993 0.92329
C27_4 C 0.1293(19) 0.185(2) 0.8904(8)
H23_4 H 0.167401 0.198316 0.88214
H24_4 H 0.094444 0.19725 0.879669
H25_4 H 0.125765 0.204637 0.907327
N1_4 N 0.0633(6) 0.4597(6) 0.8261(3)
O4_4 O 0.130(3) 0.119(2) 0.8935(19)
Ag2_4 Ag 0.15504(6) 0.50148(7) 0.83712(3)
N6_4 N 0.2265(6) 0.5436(6) 0.8618(3)
O17_4 O 0.1676(7) 0.5730(7) 0.7991(3)
C1_4 C 0.8046(5) 0.3373(5) 0.7848(2)
C2_4 C 0.8858(6) 0.4043(6) 0.8081(2)
C3_4 C 0.9457(6) 0.4246(6) 0.8156(3)
C4_4 C 0.9732(6) 0.4146(6) 0.8381(2)
H1_4 H 0.951533 0.393863 0.851361
C7_4 C 0.9800(7) 0.4541(6) 0.7978(3)
H4_4 H 0.962842 0.462189 0.781391
C8_4 C 0.8291(6) 0.4109(6) 0.8230(2)
C9_4 C 0.8193(6) 0.4474(6) 0.8456(2)
C10_4 C 0.7772(6) 0.4297(6) 0.8642(3)
H5_4 H 0.755847 0.392227 0.862077
C11_4 C 0.7651(8) 0.4666(8) 0.8864(4)
H6_3 H 0.738371 0.452709 0.899515
C12_4 C 0.8352(7) 0.5439(7) 0.8705(3)
H7_4 H 0.855723 0.581781 0.872822
C13_4 C 0.8469(7) 0.5070(7) 0.8487(3)
H8_4 H 0.87361 0.521857 0.835697
C14_4 C 0.7770(6) 0.2921(6) 0.7663(2)
C15_4 C 0.7714(6) 0.2308(6) 0.7747(3)
C16_4 C 0.7888(6) 0.2115(7) 0.8013(3)
H9_4 H 0.80269 0.240336 0.813647
C17_4 C 0.7838(7) 0.1501(7) 0.8073(3)
C18_3 C 0.7562(5) 0.3131(5) 0.7418(2)
C19_3 C 0.7562(6) 0.3767(6) 0.7333(3)
H10_3 H 0.769582 0.407033 0.74513
C20_4 C 0.7628(6) 0.1042(7) 0.7916(3)
C21_4 C 0.8162(9) 0.1773(9) 0.8524(4)
H11_4 H 0.794585 0.216591 0.849631
H12_4 H 0.860957 0.184115 0.852172
C22_4 C 0.7937(10) 0.1430(10) 0.8786(4)
H13_4 H 0.793474 0.170397 0.8938
H14_4 H 0.75353 0.122701 0.876673
C23_4 C 0.8380(17) 0.0704(16) 0.9107(6)
H15_4 H 0.840438 0.103054 0.923848
H16_4 H 0.800767 0.045318 0.913052
C24_4 C 0.8941(15) 0.0344(15) 0.9083(6)
H17_4 H 0.894033 0.013775 0.89137
H18_4 H 0.893617 0.002083 0.921706
H26_4 H 0.770181 0.006609 0.76431
H27_3 H 0.703821 0.000125 0.777295
N2_4 N 0.7936(6) 0.5235(6) 0.8882(3)
S1_4 S 0.87971(14) 0.35407(19) 0.78251(8)
S2_4 S 0.76666(14) 0.37172(17) 0.80946(8)
O1_4 O 0.7958(5) 0.1270(5) 0.8330(2)
O2_4 O 0.8478(7) 0.0974(7) 0.8788(3)
O3_4 O 0.9593(10) 0.0742(10) 0.9112(4)
O5_4 O 0.7634(5) 0.0434(5) 0.7982(2)
C35_4 C 0.6954(5) 0.1627(5) 0.7152(2)
C36_4 C 0.6142(6) 0.0957(6) 0.6919(2)
C37_4 C 0.5543(6) 0.0754(6) 0.6844(3)
C38_4 C 0.5268(6) 0.0854(6) 0.6619(2)
H41_4 H 0.548467 0.106137 0.648639
C39_4 C 0.4654(8) 0.0656(7) 0.6573(3)
H42_4 H 0.447077 0.072449 0.640947
C40_4 C 0.4578(8) 0.0262(8) 0.6968(3)
H43_4 H 0.434001 0.004557 0.709099
C41_4 C 0.5200(7) 0.0459(6) 0.7022(3)
H44_4 H 0.537158 0.037811 0.718609
C42_4 C 0.6709(6) 0.0891(6) 0.6770(2)
C43_4 C 0.6807(6) 0.0526(6) 0.6544(2)
C44_4 C 0.7228(6) 0.0703(6) 0.6358(3)
H45_4 H 0.744153 0.107773 0.637923
C45_4 C 0.7349(8) 0.0334(8) 0.6136(4)
H46_3 H 0.761629 0.047291 0.600485
C48_4 C 0.7230(6) 0.2079(6) 0.7337(2)
C49_4 C 0.7286(6) 0.2692(6) 0.7253(3)
C50_4 C 0.7112(6) 0.2885(7) 0.6987(3)
H49_4 H 0.69731 0.259664 0.686353
C51_4 C 0.7162(7) 0.3499(7) 0.6927(3)
C52_3 C 0.7438(5) 0.1869(5) 0.7582(2)
C53_3 C 0.7438(6) 0.1233(6) 0.7667(3)
H50_3 H 0.730418 0.092967 0.75487
C54_4 C 0.7372(6) 0.3958(7) 0.7084(3)
C55_4 C 0.6838(9) 0.3227(9) 0.6476(4)
H51_4 H 0.705415 0.283409 0.650369
H52_4 H 0.639043 0.315885 0.647828
C56_4 C 0.7063(10) 0.3570(10) 0.6214(4)
H53_4 H 0.706526 0.329603 0.6062
H54_4 H 0.74647 0.377299 0.623327
C57_4 C 0.6620(17) 0.4296(16) 0.5893(6)
H55_4 H 0.659562 0.396946 0.576152
H56_4 H 0.699233 0.454682 0.586948
C58_4 C 0.6059(15) 0.4656(15) 0.5917(6)
H57_4 H 0.605967 0.486225 0.60863
H58_4 H 0.606383 0.497917 0.578294
C59_4 C 0.4755(14) 0.4556(12) 0.5863(5)
H59_4 H 0.471773 0.49113 0.597993
H60_4 H 0.468254 0.469534 0.568433
C60_4 C 0.427(3) 0.403(2) 0.5941(12)
H61_4 H 0.456296 0.37421 0.602118
H62_4 H 0.420343 0.386007 0.57671
C61_4 C 0.3707(19) 0.315(2) 0.6096(8)
H63_4 H 0.332599 0.301684 0.61786
H64_4 H 0.405556 0.30275 0.620331
H65_4 H 0.374235 0.295363 0.592673
C62_3 C 0.7516(9) 0.5007(9) 0.7193(4)
H66_4 H 0.729819 0.493391 0.73569
H67_3 H 0.796179 0.499875 0.722705
C63_4 C 0.7319(9) 0.5674(9) 0.7073(4)
H68_3 H 0.756338 0.574982 0.691607
H69_4 H 0.742486 0.599605 0.719963
C64_4 C 0.6562(11) 0.6436(10) 0.6968(4)
H70_4 H 0.687392 0.662243 0.685462
H71_4 H 0.654584 0.666073 0.713354
C65_4 C 0.6024(14) 0.6404(13) 0.6857(5)
H72_4 H 0.57582 0.618682 0.698145
H73_4 H 0.587253 0.68303 0.6851
C66_4 C 0.5205(9) 0.6199(10) 0.6457(4)
H74_4 H 0.511061 0.662762 0.640982
H75_4 H 0.486756 0.603209 0.656264
C67_4 C 0.5316(15) 0.5813(14) 0.6222(6)
H76_4 H 0.56147 0.547947 0.62504
H77_4 H 0.493631 0.565415 0.614277
C68_4 C 0.5611(17) 0.6186(18) 0.5774(7)
H78_4 H 0.57812 0.652975 0.567614
H79_4 H 0.519674 0.609721 0.571171
H80_4 H 0.587 0.582462 0.574991
N3_4 N 0.4367(6) 0.0403(6) 0.6739(3)
S3_4 S 0.62029(14) 0.14593(19) 0.71749(8)
S4_4 S 0.73334(14) 0.12828(17) 0.69054(8)
O9_4 O 0.7042(5) 0.3730(5) 0.6670(2)
O10_4 O 0.6522(7) 0.4026(7) 0.6212(3)
O11_4 O 0.5407(10) 0.4258(10) 0.5888(4)
O12_4 O 0.370(3) 0.381(2) 0.6065(19)
O13_4 O 0.7366(5) 0.4566(5) 0.7018(2)
O14_4 O 0.6676(7) 0.5730(7) 0.7009(3)
O15_4 O 0.5876(8) 0.6146(8) 0.6609(3)
O16_4 O 0.5584(10) 0.6364(11) 0.6081(4)
Ag4_4 Ag 0.65504(6) 0.50148(7) 0.66288(3)
N5_4 N 0.9367(6) 0.0403(6) 0.8261(3)
C28_3 C 0.7484(9) 0.9993(9) 0.7807(4)
C29_4 C 0.7681(9) 0.9326(9) 0.7927(4)
H28_3 H 0.743662 0.925018 0.808393
H29_4 H 0.757514 0.900395 0.780037
C30_4 C 0.8438(11) 0.8564(10) 0.8032(4)
H30_4 H 0.812608 0.837757 0.814538
H31_4 H 0.845416 0.833927 0.786646
C31_4 C 0.8976(14) 0.8596(13) 0.8143(5)
H32_4 H 0.92418 0.881318 0.801855
H33_4 H 0.912747 0.81697 0.8149
C32_4 C 0.9795(9) 0.8801(10) 0.8543(4)
H34_4 H 0.988939 0.837238 0.859018
C33_4 C 0.9684(15) 0.9187(14) 0.8778(6)
H36_4 H 0.93853 0.952053 0.87496
C34_4 C 0.9389(17) 0.8814(18) 0.9226(7)
H38_4 H 0.92188 0.847025 0.932386
H39_4 H 0.980326 0.890279 0.928829
H40_4 H 0.913 0.917538 0.925009
O6_4 O 0.8324(7) 0.9270(7) 0.7991(3)
O7_4 O 0.9124(8) 0.8854(8) 0.8391(3)
O8_4 O 0.9416(10) 0.8636(11) 0.8919(4)
C46_4 C 0.6648(7) 0.9561(7) 0.6295(3)
H47_4 H 0.644277 0.918219 0.627178
C47_4 C 0.6531(7) 0.9930(7) 0.6513(3)
H48_4 H 0.62639 0.978143 0.664303
C15_5 C 0.0192(6) 0.5214(6) 0.5247(3)
C16_5 C 0.0385(7) 0.5388(6) 0.5513(3)
H9_5 H 0.009664 0.55269 0.563647
C17_5 C 0.0999(7) 0.5338(7) 0.5573(3)
C20_5 C 0.1458(7) 0.5128(6) 0.5416(3)
C21_5 C 0.0727(9) 0.5662(9) 0.6024(4)
H11_5 H 0.033409 0.544585 0.599631
H12_5 H 0.065885 0.610957 0.602172
C22_5 C 0.1070(10) 0.5437(10) 0.6286(4)
H13_5 H 0.079603 0.543474 0.6438
H14_5 H 0.127299 0.50353 0.626673
C23_5 C 0.1796(16) 0.5880(17) 0.6607(6)
H15_5 H 0.146946 0.590438 0.673848
H16_5 H 0.204682 0.550767 0.663052
C24_5 C 0.2156(15) 0.6441(15) 0.6583(6)
H17_5 H 0.236225 0.644033 0.64137
H18_5 H 0.247917 0.643617 0.671706
C25_5 C 0.2056(12) 0.7745(14) 0.6637(5)
H19_5 H 0.24113 0.778227 0.652007
H20_5 H 0.219534 0.781746 0.681567
C26_5 C 0.153(2) 0.823(3) 0.6559(12)
H21_5 H 0.12421 0.793704 0.647882
H22_5 H 0.136007 0.829657 0.67329
C27_5 C 0.065(2) 0.8793(19) 0.6404(8)
H23_5 H 0.051684 0.917401 0.63214
H24_5 H 0.05275 0.844444 0.629669
H25_5 H 0.045363 0.875765 0.657327
C28_4 C 0.2507(9) 0.4984(9) 0.5307(4)
H26_5 H 0.243391 0.520181 0.51431
H27_4 H 0.249875 0.453821 0.527295
C29_5 C 0.3174(9) 0.5181(9) 0.5427(4)
H28_4 H 0.324982 0.493662 0.558393
H29_5 H 0.349605 0.507514 0.530037
C30_5 C 0.3936(10) 0.5938(11) 0.5532(4)
H30_5 H 0.412243 0.562608 0.564538
H31_5 H 0.416073 0.595416 0.536646
C31_5 C 0.3904(13) 0.6476(14) 0.5643(5)
H32_5 H 0.368682 0.67418 0.551855
H33_5 H 0.43303 0.662747 0.5649
C32_5 C 0.3699(10) 0.7295(9) 0.6043(4)
H34_5 H 0.412762 0.738939 0.609018
H35_4 H 0.353209 0.763244 0.593736
C33_5 C 0.3313(14) 0.7184(15) 0.6278(6)
H36_5 H 0.297947 0.68853 0.62496
H37_4 H 0.315415 0.756369 0.635723
C34_5 C 0.3686(18) 0.6889(17) 0.6726(7)
H38_5 H 0.402975 0.67188 0.682386
H39_5 H 0.359721 0.730326 0.678829
H40_5 H 0.332462 0.663 0.675009
O1_5 O 0.1230(5) 0.5458(5) 0.5830(2)
O2_5 O 0.1526(7) 0.5978(7) 0.6288(3)
O3_5 O 0.1758(10) 0.7093(10) 0.6612(4)
O4_5 O 0.131(2) 0.880(3) 0.6435(19)
O5_5 O 0.2066(5) 0.5134(5) 0.5482(2)
O7_5 O 0.3646(8) 0.6624(8) 0.5891(3)
O8_5 O 0.3864(11) 0.6916(10) 0.6419(4)
C35_5 C 0.0873(5) 0.4454(5) 0.4652(2)
C36_5 C 0.1543(6) 0.3642(6) 0.4419(2)
C37_5 C 0.1746(6) 0.3043(6) 0.4344(3)
C38_5 C 0.1646(6) 0.2768(6) 0.4119(2)
H41_5 H 0.143863 0.298467 0.398639
C39_5 C 0.1844(7) 0.2154(8) 0.4073(3)
H42_5 H 0.177551 0.197077 0.390947
C40_5 C 0.2238(8) 0.2078(8) 0.4468(3)
H43_5 H 0.245443 0.184001 0.459099
C41_5 C 0.2041(6) 0.2700(7) 0.4522(3)
H44_5 H 0.212189 0.287158 0.468609
C42_5 C 0.1609(6) 0.4209(6) 0.4270(2)
C43_5 C 0.1974(6) 0.4307(6) 0.4044(2)
C44_5 C 0.1797(6) 0.4728(6) 0.3858(3)
H45_5 H 0.142227 0.494153 0.387923
C45_5 C 0.2166(8) 0.4849(8) 0.3636(4)
H46_4 H 0.202709 0.511629 0.350485
C46_5 C 0.2939(7) 0.4148(7) 0.3795(3)
H47_5 H 0.331781 0.394277 0.377178
C47_5 C 0.2570(7) 0.4031(7) 0.4013(3)
H48_5 H 0.271857 0.37639 0.414303
C48_5 C 0.0421(6) 0.4730(6) 0.4837(2)
C52_4 C 0.0631(5) 0.4938(5) 0.5082(2)
C53_4 C 0.1267(6) 0.4938(6) 0.5167(3)
H50_4 H 0.157033 0.480418 0.50487
N3_5 N 0.2097(6) 0.1867(6) 0.4239(3)
S3_5 S 0.10407(19) 0.37029(14) 0.46749(8)
S4_5 S 0.12172(17) 0.48334(14) 0.44054(8)
C1_5 C 0.9127(5) 0.5546(5) 0.5348(2)
C2_5 C 0.8457(6) 0.6358(6) 0.5581(2)
C3_5 C 0.8254(6) 0.6957(6) 0.5656(3)
C4_5 C 0.8354(6) 0.7232(6) 0.5881(2)
H1_5 H 0.856137 0.701533 0.601361
C5_5 C 0.8156(7) 0.7846(8) 0.5927(3)
H2_5 H 0.822449 0.802923 0.609053
C6_5 C 0.7762(8) 0.7922(8) 0.5532(3)
H3_5 H 0.754557 0.815999 0.540901
C7_5 C 0.7959(6) 0.7300(7) 0.5478(3)
H4_5 H 0.787811 0.712842 0.531391
C8_5 C 0.8391(6) 0.5791(6) 0.5730(2)
C9_5 C 0.8026(6) 0.5693(6) 0.5956(2)
C10_5 C 0.8203(6) 0.5272(6) 0.6142(3)
H5_5 H 0.857773 0.505847 0.612077
C11_5 C 0.7834(8) 0.5151(8) 0.6364(4)
H6_4 H 0.797291 0.488371 0.649515
C12_5 C 0.7061(7) 0.5852(7) 0.6205(3)
H7_5 H 0.668219 0.605723 0.622822
C13_5 C 0.7430(7) 0.5969(7) 0.5987(3)
H8_5 H 0.728143 0.62361 0.585697
C14_5 C 0.9579(6) 0.5270(6) 0.5163(2)
C18_4 C 0.9369(5) 0.5062(5) 0.4918(2)
C19_4 C 0.8733(6) 0.5062(6) 0.4833(3)
H10_4 H 0.842967 0.519582 0.49513
N2_5 N 0.7265(6) 0.5436(6) 0.6382(3)
S1_5 S 0.89593(19) 0.62971(14) 0.53251(8)
S2_5 S 0.87828(17) 0.51666(14) 0.55946(8)
C49_5 C 0.9808(6) 0.4786(6) 0.4753(3)
C50_5 C 0.9615(7) 0.4612(6) 0.4487(3)
H49_5 H 0.990336 0.44731 0.436353
C51_5 C 0.9001(7) 0.4662(7) 0.4427(3)
C54_5 C 0.8542(7) 0.4872(6) 0.4584(3)
C55_5 C 0.9273(9) 0.4338(9) 0.3976(4)
H51_5 H 0.966591 0.455415 0.400369
H52_5 H 0.934115 0.389043 0.397828
C56_5 C 0.8930(10) 0.4563(10) 0.3714(4)
H53_5 H 0.920397 0.456526 0.3562
H54_5 H 0.872701 0.49647 0.373327
C57_5 C 0.8204(16) 0.4120(17) 0.3393(6)
H55_5 H 0.853054 0.409562 0.326152
H56_5 H 0.795318 0.449233 0.336948
C58_5 C 0.7844(15) 0.3559(15) 0.3417(6)
H57_5 H 0.763775 0.355967 0.35863
H58_5 H 0.752083 0.356383 0.328294
C59_5 C 0.7944(12) 0.2255(14) 0.3363(5)
H59_5 H 0.75887 0.221773 0.347993
H60_5 H 0.780466 0.218254 0.318433
C60_5 C 0.847(2) 0.177(3) 0.3441(12)
H61_5 H 0.87579 0.206296 0.352118
H62_5 H 0.863993 0.170343 0.32671
C61_5 C 0.935(2) 0.1207(19) 0.3596(8)
H63_5 H 0.948316 0.082599 0.36786
H64_5 H 0.94725 0.155556 0.370331
H65_5 H 0.954637 0.124235 0.342673
C62_4 C 0.7493(9) 0.5016(9) 0.4693(4)
H66_5 H 0.756609 0.479819 0.48569
H67_4 H 0.750125 0.546179 0.472705
C63_5 C 0.6826(9) 0.4819(9) 0.4573(4)
H68_4 H 0.675018 0.506338 0.441607
H69_5 H 0.650395 0.492486 0.469963
C64_5 C 0.6064(10) 0.4062(11) 0.4468(4)
H70_5 H 0.587757 0.437392 0.435462
H71_5 H 0.583927 0.404584 0.463354
C65_5 C 0.6096(13) 0.3524(14) 0.4357(5)
H72_5 H 0.631318 0.32582 0.448145
H73_5 H 0.56697 0.337253 0.4351
C66_5 C 0.6301(10) 0.2705(9) 0.3957(4)
H74_5 H 0.587238 0.261061 0.390982
H75_5 H 0.646791 0.236756 0.406264
C67_5 C 0.6687(14) 0.2816(15) 0.3722(6)
H76_5 H 0.702053 0.31147 0.37504
H77_5 H 0.684585 0.243631 0.364277
C68_5 C 0.6314(18) 0.3111(17) 0.3274(7)
H78_5 H 0.597025 0.32812 0.317614
H79_5 H 0.640279 0.269674 0.321171
H80_5 H 0.667538 0.337 0.324991
O9_5 O 0.8770(5) 0.4542(5) 0.4170(2)
O10_5 O 0.8474(7) 0.4022(7) 0.3712(3)
O11_5 O 0.8242(10) 0.2907(10) 0.3388(4)
O12_5 O 0.869(2) 0.120(3) 0.3565(19)
O13_5 O 0.7934(5) 0.4866(5) 0.4518(2)
O14_5 O 0.6770(7) 0.4176(7) 0.4509(3)
O15_5 O 0.6354(8) 0.3376(8) 0.4109(3)
O16_5 O 0.6136(11) 0.3084(10) 0.3581(4)
C1_6 C 0.5873(5) 0.4454(5) 0.0348(2)
C2_6 C 0.6543(6) 0.3642(6) 0.0581(2)
C3_6 C 0.6746(6) 0.3043(6) 0.0656(3)
C4_6 C 0.6646(6) 0.2768(6) 0.0881(2)
H1_6 H 0.643863 0.298467 0.101361
C5_6 C 0.6844(7) 0.2154(8) 0.0927(3)
H2_6 H 0.677551 0.197077 0.109053
C6_6 C 0.7238(8) 0.2078(8) 0.0532(3)
H3_6 H 0.745443 0.184001 0.040901
C7_6 C 0.7041(6) 0.2700(7) 0.0478(3)
H4_6 H 0.712189 0.287158 0.031391
C8_6 C 0.6609(6) 0.4209(6) 0.0730(2)
C9_6 C 0.6974(6) 0.4307(6) 0.0956(2)
C10_6 C 0.6797(6) 0.4728(6) 0.1142(3)
H5_6 H 0.642227 0.494153 0.112077
C11_6 C 0.7166(8) 0.4849(8) 0.1364(4)
H6_5 H 0.702709 0.511629 0.149515
C12_6 C 0.7939(7) 0.4148(7) 0.1205(3)
H7_6 H 0.831781 0.394277 0.122822
C13_6 C 0.7570(7) 0.4031(7) 0.0987(3)
H8_6 H 0.771857 0.37639 0.085697
C14_6 C 0.5421(6) 0.4730(6) 0.0163(2)
C15_6 C 0.4808(6) 0.4786(6) 0.0247(3)
C16_6 C 0.4615(7) 0.4612(6) 0.0513(3)
H9_6 H 0.490336 0.44731 0.063647
C17_6 C 0.4001(7) 0.4662(7) 0.0573(3)
C20_6 C 0.3542(7) 0.4872(6) 0.0416(3)
C21_6 C 0.4273(9) 0.4338(9) 0.1024(4)
H11_6 H 0.466591 0.455415 0.099631
H12_6 H 0.434115 0.389043 0.102172
C22_6 C 0.3930(10) 0.4563(10) 0.1286(4)
H13_6 H 0.420397 0.456526 0.1438
H14_6 H 0.372701 0.49647 0.126673
C23_6 C 0.3204(16) 0.4120(17) 0.1607(6)
H15_6 H 0.353054 0.409562 0.173848
H16_6 H 0.295318 0.449233 0.163052
C24_6 C 0.2844(15) 0.3559(15) 0.1583(6)
H17_6 H 0.263775 0.355967 0.14137
H18_6 H 0.252083 0.356383 0.171706
C25_6 C 0.2944(12) 0.2255(14) 0.1637(5)
H19_6 H 0.25887 0.221773 0.152007
H20_6 H 0.280466 0.218254 0.181567
C26_6 C 0.347(2) 0.177(3) 0.1559(12)
H21_6 H 0.37579 0.206296 0.147882
H22_6 H 0.363993 0.170343 0.17329
C27_6 C 0.435(2) 0.1207(19) 0.1404(8)
H23_6 H 0.448316 0.082599 0.13214
H24_6 H 0.44725 0.155556 0.129669
H25_6 H 0.454637 0.124235 0.157327
C28_5 C 0.2493(9) 0.5016(9) 0.0307(4)
H26_6 H 0.256609 0.479819 0.01431
H27_5 H 0.250125 0.546179 0.027295
C29_6 C 0.1826(9) 0.4819(9) 0.0427(4)
H28_5 H 0.175018 0.506338 0.058393
H29_6 H 0.150395 0.492486 0.030037
C30_6 C 0.1064(10) 0.4062(11) 0.0532(4)
H30_6 H 0.087757 0.437392 0.064538
H31_6 H 0.083927 0.404584 0.036646
C31_6 C 0.1096(13) 0.3524(14) 0.0643(5)
H32_6 H 0.131318 0.32582 0.051855
H33_6 H 0.06697 0.337253 0.0649
C32_6 C 0.1301(10) 0.2705(9) 0.1043(4)
H34_6 H 0.087238 0.261061 0.109018
H35_5 H 0.146791 0.236756 0.093736
C33_6 C 0.1687(14) 0.2816(15) 0.1278(6)
H36_6 H 0.202053 0.31147 0.12496
H37_5 H 0.184585 0.243631 0.135723
C34_6 C 0.1314(18) 0.3111(17) 0.1726(7)
H38_6 H 0.097025 0.32812 0.182386
H39_6 H 0.140279 0.269674 0.178829
H40_6 H 0.167538 0.337 0.175009
N2_6 N 0.7735(6) 0.4564(6) 0.1382(3)
S1_6 S 0.60407(19) 0.37029(14) 0.03251(8)
S2_6 S 0.62172(17) 0.48334(14) 0.05946(8)
O1_6 O 0.3770(5) 0.4542(5) 0.0830(2)
O2_6 O 0.3474(7) 0.4022(7) 0.1288(3)
O3_6 O 0.3242(10) 0.2907(10) 0.1612(4)
O4_6 O 0.369(2) 0.120(3) 0.1435(19)
O5_6 O 0.2934(5) 0.4866(5) 0.0482(2)
O7_6 O 0.1354(8) 0.3376(8) 0.0891(3)
O8_6 O 0.1136(11) 0.3084(10) 0.1419(4)
C52_5 C 0.4369(5) 0.5062(5) 0.0082(2)
C53_5 C 0.3733(6) 0.5062(6) 0.0167(3)
H50_5 H 0.342967 0.519582 0.00487
C18_5 C 0.5631(5) 0.4938(5) 0.9918(2)
C19_5 C 0.6267(6) 0.4938(6) 0.9833(3)
H10_5 H 0.657033 0.480418 0.99513
C35_6 C 0.4127(5) 0.5546(5) 0.9652(2)
C36_6 C 0.3457(6) 0.6358(6) 0.9419(2)
C37_6 C 0.3254(6) 0.6957(6) 0.9344(3)
C38_6 C 0.3354(6) 0.7232(6) 0.9119(2)
H41_6 H 0.356137 0.701533 0.898639
C39_6 C 0.3156(7) 0.7846(8) 0.9073(3)
H42_6 H 0.322449 0.802923 0.890947
C40_6 C 0.2762(8) 0.7922(8) 0.9468(3)
H43_6 H 0.254557 0.815999 0.959099
C41_6 C 0.2959(6) 0.7300(7) 0.9522(3)
H44_6 H 0.287811 0.712842 0.968609
C42_6 C 0.3391(6) 0.5791(6) 0.9270(2)
C43_6 C 0.3026(6) 0.5693(6) 0.9044(2)
C44_6 C 0.3203(6) 0.5272(6) 0.8858(3)
H45_6 H 0.357773 0.505847 0.887923
C45_6 C 0.2834(8) 0.5151(8) 0.8636(4)
H46_5 H 0.297291 0.488371 0.850485
C46_6 C 0.2061(7) 0.5852(7) 0.8795(3)
H47_6 H 0.168219 0.605723 0.877178
C47_6 C 0.2430(7) 0.5969(7) 0.9013(3)
H48_6 H 0.228143 0.62361 0.914303
C48_6 C 0.4579(6) 0.5270(6) 0.9837(2)
C49_6 C 0.5192(6) 0.5214(6) 0.9753(3)
C50_6 C 0.5385(7) 0.5388(6) 0.9487(3)
H49_6 H 0.509664 0.55269 0.936353
C51_6 C 0.5999(7) 0.5338(7) 0.9427(3)
C54_6 C 0.6458(7) 0.5128(6) 0.9584(3)
C55_6 C 0.5727(9) 0.5662(9) 0.8976(4)
H51_6 H 0.533409 0.544585 0.900369
H52_6 H 0.565885 0.610957 0.897828
C56_6 C 0.6070(10) 0.5437(10) 0.8714(4)
H53_6 H 0.579603 0.543474 0.8562
H54_6 H 0.627299 0.50353 0.873327
C57_6 C 0.6796(16) 0.5880(17) 0.8393(6)
H55_6 H 0.646946 0.590438 0.826152
H56_6 H 0.704682 0.550767 0.836948
C58_6 C 0.7156(15) 0.6441(15) 0.8417(6)
H57_6 H 0.736225 0.644033 0.85863
H58_6 H 0.747917 0.643617 0.828294
C59_6 C 0.7056(12) 0.7745(14) 0.8363(5)
H59_6 H 0.74113 0.778227 0.847993
H60_6 H 0.719534 0.781746 0.818433
C60_6 C 0.653(2) 0.823(3) 0.8441(12)
H61_6 H 0.62421 0.793704 0.852118
H62_6 H 0.636007 0.829657 0.82671
C61_6 C 0.565(2) 0.8793(19) 0.8596(8)
H63_6 H 0.551684 0.917401 0.86786
H64_6 H 0.55275 0.844444 0.870331
H65_6 H 0.545363 0.875765 0.842673
C62_5 C 0.7507(9) 0.4984(9) 0.9693(4)
H66_6 H 0.743391 0.520181 0.98569
H67_5 H 0.749875 0.453821 0.972705
C63_6 C 0.8174(9) 0.5181(9) 0.9573(4)
H68_5 H 0.824982 0.493662 0.941607
H69_6 H 0.849605 0.507514 0.969963
C64_6 C 0.8936(10) 0.5938(11) 0.9468(4)
H70_6 H 0.912243 0.562608 0.935462
H71_6 H 0.916073 0.595416 0.963354
C65_6 C 0.8904(13) 0.6476(14) 0.9357(5)
H72_6 H 0.868682 0.67418 0.948145
H73_6 H 0.93303 0.662747 0.9351
C66_6 C 0.8699(10) 0.7295(9) 0.8957(4)
H74_6 H 0.912762 0.738939 0.890982
H75_6 H 0.853209 0.763244 0.906264
C67_6 C 0.8313(14) 0.7184(15) 0.8722(6)
H76_6 H 0.797947 0.68853 0.87504
H77_6 H 0.815415 0.756369 0.864277
C68_6 C 0.8686(18) 0.6889(17) 0.8274(7)
H78_6 H 0.902975 0.67188 0.817614
H79_6 H 0.859721 0.730326 0.821171
H80_6 H 0.832462 0.663 0.824991
N3_6 N 0.2903(6) 0.8133(6) 0.9239(3)
S3_6 S 0.39593(19) 0.62971(14) 0.96749(8)
S4_6 S 0.37828(17) 0.51666(14) 0.94054(8)
O9_6 O 0.6230(5) 0.5458(5) 0.9170(2)
O10_6 O 0.6526(7) 0.5978(7) 0.8712(3)
O11_6 O 0.6758(10) 0.7093(10) 0.8388(4)
O12_6 O 0.631(2) 0.880(3) 0.8565(19)
O13_6 O 0.7066(5) 0.5134(5) 0.9518(2)
O14_6 O 0.8230(7) 0.5824(7) 0.9509(3)
O15_6 O 0.8646(8) 0.6624(8) 0.9109(3)
O16_6 O 0.8864(11) 0.6916(10) 0.8581(4)
C1_7 C 0.1954(5) 0.1627(5) 0.7848(2)
C2_7 C 0.1142(6) 0.0957(6) 0.8081(2)
C3_7 C 0.0543(6) 0.0754(6) 0.8156(3)
C4_7 C 0.0268(6) 0.0854(6) 0.8381(2)
H1_7 H 0.048467 0.106137 0.851361
C7_7 C 0.0200(7) 0.0459(6) 0.7978(3)
H4_7 H 0.037158 0.037811 0.781391
C8_7 C 0.1709(6) 0.0891(6) 0.8230(2)
C9_7 C 0.1807(6) 0.0526(6) 0.8456(2)
C10_7 C 0.2228(6) 0.0703(6) 0.8642(3)
H5_7 H 0.244153 0.107773 0.862077
C11_7 C 0.2349(8) 0.0334(8) 0.8864(4)
H6_6 H 0.261629 0.047291 0.899515
C14_7 C 0.2230(6) 0.2079(6) 0.7663(2)
C15_7 C 0.2286(6) 0.2692(6) 0.7747(3)
C16_7 C 0.2112(6) 0.2885(7) 0.8013(3)
H9_7 H 0.19731 0.259664 0.813647
C17_7 C 0.2162(7) 0.3499(7) 0.8073(3)
C18_6 C 0.2438(5) 0.1869(5) 0.7418(2)
C19_6 C 0.2438(6) 0.1233(6) 0.7333(3)
H10_6 H 0.230418 0.092967 0.74513
C20_7 C 0.2372(6) 0.3958(7) 0.7916(3)
C21_7 C 0.1838(9) 0.3227(9) 0.8524(4)
H11_7 H 0.205415 0.283409 0.849631
H12_7 H 0.139043 0.315885 0.852172
C22_7 C 0.2063(10) 0.3570(10) 0.8786(4)
H13_7 H 0.206526 0.329603 0.8938
H14_7 H 0.24647 0.377299 0.876673
C23_7 C 0.1620(17) 0.4296(16) 0.9107(6)
H15_7 H 0.159562 0.396946 0.923848
H16_7 H 0.199233 0.454682 0.913052
C24_7 C 0.1059(15) 0.4656(15) 0.9083(6)
H17_7 H 0.105967 0.486225 0.89137
H18_7 H 0.106383 0.497917 0.921706
C28_6 C 0.2516(9) 0.5007(9) 0.7807(4)
H26_7 H 0.229819 0.493391 0.76431
H27_6 H 0.296179 0.499875 0.777295
C29_7 C 0.2319(9) 0.5674(9) 0.7927(4)
H28_6 H 0.256338 0.574982 0.808393
H29_7 H 0.242486 0.599605 0.780037
C30_7 C 0.1562(11) 0.6436(10) 0.8032(4)
H30_7 H 0.187392 0.662243 0.814538
H31_7 H 0.154584 0.666073 0.786646
C31_7 C 0.1024(14) 0.6404(13) 0.8143(5)
H32_7 H 0.07582 0.618682 0.801855
H33_7 H 0.087253 0.68303 0.8149
C32_7 C 0.0205(9) 0.6199(10) 0.8543(4)
H34_7 H 0.011061 0.662762 0.859018
C33_7 C 0.0316(15) 0.5813(14) 0.8778(6)
H36_7 H 0.06147 0.547947 0.87496
C34_7 C 0.0611(17) 0.6186(18) 0.9226(7)
H38_7 H 0.07812 0.652975 0.932386
H39_7 H 0.019674 0.609721 0.928829
H40_7 H 0.087 0.582462 0.925009
S1_7 S 0.12029(14) 0.14593(19) 0.78251(8)
S2_7 S 0.23334(14) 0.12828(17) 0.80946(8)
O1_7 O 0.2042(5) 0.3730(5) 0.8330(2)
O2_7 O 0.1522(7) 0.4026(7) 0.8788(3)
O3_7 O 0.0407(10) 0.4258(10) 0.9112(4)
O5_7 O 0.2366(5) 0.4566(5) 0.7982(2)
O7_7 O 0.0876(8) 0.6146(8) 0.8391(3)
O8_7 O 0.0584(10) 0.6364(11) 0.8919(4)
C35_7 C 0.3046(5) 0.3373(5) 0.7152(2)
C36_7 C 0.3858(6) 0.4043(6) 0.6919(2)
C37_7 C 0.4457(6) 0.4246(6) 0.6844(3)
C38_7 C 0.4732(6) 0.4146(6) 0.6619(2)
H41_7 H 0.451533 0.393863 0.648639
C39_7 C 0.5346(8) 0.4344(7) 0.6573(3)
H42_7 H 0.552923 0.427551 0.640947
C40_7 C 0.5422(8) 0.4738(8) 0.6968(3)
H43_7 H 0.565999 0.495443 0.709099
C41_7 C 0.4800(7) 0.4541(6) 0.7022(3)
H44_7 H 0.462842 0.462189 0.718609
C42_7 C 0.3291(6) 0.4109(6) 0.6770(2)
C43_7 C 0.3193(6) 0.4474(6) 0.6544(2)
C44_7 C 0.2772(6) 0.4297(6) 0.6358(3)
H45_7 H 0.255847 0.392227 0.637923
C45_7 C 0.2651(8) 0.4666(8) 0.6136(4)
H46_6 H 0.238371 0.452709 0.600485
C46_7 C 0.3352(7) 0.5439(7) 0.6295(3)
H47_7 H 0.355723 0.581781 0.627178
C47_7 C 0.3469(7) 0.5070(7) 0.6513(3)
H48_7 H 0.37361 0.521857 0.664303
C48_7 C 0.2770(6) 0.2921(6) 0.7337(2)
C49_7 C 0.2714(6) 0.2308(6) 0.7253(3)
C50_7 C 0.2888(6) 0.2115(7) 0.6987(3)
H49_7 H 0.30269 0.240336 0.686353
C51_7 C 0.2838(7) 0.1501(7) 0.6927(3)
C52_6 C 0.2562(5) 0.3131(5) 0.7582(2)
C53_6 C 0.2562(6) 0.3767(6) 0.7667(3)
H50_6 H 0.269582 0.407033 0.75487
C54_7 C 0.2628(6) 0.1042(7) 0.7084(3)
C55_7 C 0.3162(9) 0.1773(9) 0.6476(4)
H51_7 H 0.294585 0.216591 0.650369
H52_7 H 0.360957 0.184115 0.647828
C56_7 C 0.2937(10) 0.1430(10) 0.6214(4)
H53_7 H 0.293474 0.170397 0.6062
H54_7 H 0.25353 0.122701 0.623327
C57_7 C 0.3380(17) 0.0704(16) 0.5893(6)
H55_7 H 0.340438 0.103054 0.576152
H56_7 H 0.300767 0.045318 0.586948
C58_7 C 0.3941(15) 0.0344(15) 0.5917(6)
H57_7 H 0.394033 0.013775 0.60863
H58_7 H 0.393617 0.002083 0.578294
C59_7 C 0.5245(14) 0.0444(12) 0.5863(5)
H59_7 H 0.528227 0.00887 0.597993
H60_7 H 0.531746 0.030466 0.568433
C60_7 C 0.573(3) 0.097(2) 0.5941(12)
H61_7 H 0.543704 0.12579 0.602118
H62_7 H 0.579657 0.113993 0.57671
C61_7 C 0.6293(19) 0.185(2) 0.6096(8)
H63_7 H 0.667401 0.198316 0.61786
H64_7 H 0.594444 0.19725 0.620331
H65_7 H 0.625765 0.204637 0.592673
H66_7 H 0.270181 0.006609 0.73569
H67_6 H 0.203821 0.000125 0.722705
N3_7 N 0.5633(6) 0.4597(6) 0.6739(3)
S3_7 S 0.37971(14) 0.35407(19) 0.71749(8)
S4_7 S 0.26666(14) 0.37172(17) 0.69054(8)
O9_7 O 0.2958(5) 0.1270(5) 0.6670(2)
O10_7 O 0.3478(7) 0.0974(7) 0.6212(3)
O11_7 O 0.4593(10) 0.0742(10) 0.5888(4)
O12_7 O 0.630(3) 0.119(2) 0.6065(19)
O13_7 O 0.2634(5) 0.0434(5) 0.7018(2)
C12_7 C 0.1648(7) 0.9561(7) 0.8705(3)
H7_7 H 0.144277 0.918219 0.872822
C13_7 C 0.1531(7) 0.9930(7) 0.8487(3)
H8_7 H 0.12639 0.978143 0.835697
N2_7 N 0.2064(6) 0.9765(6) 0.8882(3)
C62_6 C 0.2484(9) 0.9993(9) 0.7193(4)
C63_7 C 0.2681(9) 0.9326(9) 0.7073(4)
H68_6 H 0.243662 0.925018 0.691607
H69_7 H 0.257514 0.900395 0.719963
C64_7 C 0.3438(11) 0.8564(10) 0.6968(4)
H70_7 H 0.312608 0.837757 0.685462
H71_7 H 0.345416 0.833927 0.713354
C65_7 C 0.3976(14) 0.8596(13) 0.6857(5)
H72_7 H 0.42418 0.881318 0.698145
H73_7 H 0.412747 0.81697 0.6851
C66_7 C 0.4795(9) 0.8801(10) 0.6457(4)
H74_7 H 0.488939 0.837238 0.640982
H75_7 H 0.513244 0.896791 0.656264
C67_7 C 0.4684(15) 0.9187(14) 0.6222(6)
H76_7 H 0.43853 0.952053 0.62504
H77_7 H 0.506369 0.934585 0.614277
C68_7 C 0.4389(17) 0.8814(18) 0.5774(7)
H78_7 H 0.42188 0.847025 0.567614
H79_7 H 0.480326 0.890279 0.571171
H80_7 H 0.413 0.917538 0.574991
O14_7 O 0.3324(7) 0.9270(7) 0.7009(3)
O15_7 O 0.4124(8) 0.8854(8) 0.6609(3)
O16_7 O 0.4416(10) 0.8636(11) 0.6081(4)
C5_7 C 0.9654(8) 0.0656(7) 0.8427(3)
H2_7 H 0.947077 0.072449 0.859053
C6_7 C 0.9578(8) 0.0262(8) 0.8032(3)
H3_7 H 0.934001 0.004557 0.790901
C25_7 C 0.9755(14) 0.4556(12) 0.9137(5)
H19_7 H 0.971773 0.49113 0.902007
H20_7 H 0.968254 0.469534 0.931567
C26_7 C 0.927(3) 0.403(2) 0.9059(12)
H21_7 H 0.956296 0.37421 0.897882
H22_7 H 0.920343 0.386007 0.92329
C27_7 C 0.8707(19) 0.315(2) 0.8904(8)
H23_7 H 0.832599 0.301684 0.88214
H24_7 H 0.905556 0.30275 0.879669
H25_7 H 0.874235 0.295363 0.907327
H35_6 H 0.986756 0.603209 0.843736
H37_6 H 0.993631 0.565415 0.885723
O4_7 O 0.870(3) 0.381(2) 0.8935(19)
C12_8 C 0.3352(7) 0.0439(7) 0.3705(3)
H7_8 H 0.355723 0.081781 0.372822
C13_8 C 0.3469(7) 0.0070(7) 0.3487(3)
H8_8 H 0.37361 0.021857 0.335697
N2_8 N 0.2936(6) 0.0235(6) 0.3882(3)
C62_7 C 0.2516(9) 0.0007(9) 0.2193(4)
C63_8 C 0.2319(9) 0.0674(9) 0.2073(4)
H68_7 H 0.256338 0.074982 0.191607
H69_8 H 0.242486 0.099605 0.219963
C64_8 C 0.1562(11) 0.1436(10) 0.1968(4)
H70_8 H 0.187392 0.162243 0.185462
H71_8 H 0.154584 0.166073 0.213354
C65_8 C 0.1024(14) 0.1404(13) 0.1857(5)
H72_8 H 0.07582 0.118682 0.198145
H73_8 H 0.087253 0.18303 0.1851
C66_8 C 0.0205(9) 0.1199(10) 0.1457(4)
H74_8 H 0.011061 0.162762 0.140982
C67_8 C 0.0316(15) 0.0813(14) 0.1222(6)
H76_8 H 0.06147 0.047947 0.12504
C68_8 C 0.0611(17) 0.1186(18) 0.0774(7)
H78_8 H 0.07812 0.152975 0.067614
H79_8 H 0.019674 0.109721 0.071171
H80_8 H 0.087 0.082462 0.074991
O14_8 O 0.1676(7) 0.0730(7) 0.2009(3)
O15_8 O 0.0876(8) 0.1146(8) 0.1609(3)
O16_8 O 0.0584(10) 0.1364(11) 0.1081(4)
C1_8 C 0.3046(5) 0.8373(5) 0.2848(2)
C2_8 C 0.3858(6) 0.9043(6) 0.3081(2)
C3_8 C 0.4457(6) 0.9246(6) 0.3156(3)
C4_8 C 0.4732(6) 0.9146(6) 0.3381(2)
H1_8 H 0.451533 0.893863 0.351361
C5_8 C 0.5346(8) 0.9344(7) 0.3427(3)
H2_8 H 0.552923 0.927551 0.359053
C6_8 C 0.5422(8) 0.9738(8) 0.3032(3)
H3_8 H 0.565999 0.995443 0.290901
C7_8 C 0.4800(7) 0.9541(6) 0.2978(3)
H4_8 H 0.462842 0.962189 0.281391
C8_8 C 0.3291(6) 0.9109(6) 0.3230(2)
C9_8 C 0.3193(6) 0.9474(6) 0.3456(2)
C10_8 C 0.2772(6) 0.9297(6) 0.3642(3)
H5_8 H 0.255847 0.892227 0.362077
C11_8 C 0.2651(8) 0.9666(8) 0.3864(4)
H6_7 H 0.238371 0.952709 0.399515
C14_8 C 0.2770(6) 0.7921(6) 0.2663(2)
C15_8 C 0.2714(6) 0.7308(6) 0.2747(3)
C16_8 C 0.2888(6) 0.7115(7) 0.3013(3)
H9_8 H 0.30269 0.740336 0.313647
C17_8 C 0.2838(7) 0.6501(7) 0.3073(3)
C18_7 C 0.2562(5) 0.8131(5) 0.2418(2)
C19_7 C 0.2562(6) 0.8767(6) 0.2333(3)
H10_7 H 0.269582 0.907033 0.24513
C20_8 C 0.2628(6) 0.6042(7) 0.2916(3)
C21_8 C 0.3162(9) 0.6773(9) 0.3524(4)
H11_8 H 0.294585 0.716591 0.349631
H12_8 H 0.360957 0.684115 0.352172
C22_8 C 0.2937(10) 0.6430(10) 0.3786(4)
H13_8 H 0.293474 0.670397 0.3938
H14_8 H 0.25353 0.622701 0.376673
C23_8 C 0.3380(17) 0.5704(16) 0.4107(6)
H15_8 H 0.340438 0.603054 0.423848
H16_8 H 0.300767 0.545318 0.413052
C24_8 C 0.3941(15) 0.5344(15) 0.4083(6)
H17_8 H 0.394033 0.513775 0.39137
H18_8 H 0.393617 0.502083 0.421706
C25_8 C 0.5245(14) 0.5444(12) 0.4137(5)
H19_8 H 0.528227 0.50887 0.402007
H20_8 H 0.531746 0.530466 0.431567
C26_8 C 0.573(3) 0.597(2) 0.4059(12)
H21_8 H 0.543704 0.62579 0.397882
H22_8 H 0.579657 0.613993 0.42329
C27_8 C 0.6293(19) 0.685(2) 0.3904(8)
H23_8 H 0.667401 0.698316 0.38214
H24_8 H 0.594444 0.69725 0.379669
H25_8 H 0.625765 0.704637 0.407327
C28_7 C 0.2484(9) 0.4993(9) 0.2807(4)
H26_8 H 0.270181 0.506609 0.26431
H27_7 H 0.203821 0.500125 0.277295
C29_8 C 0.2681(9) 0.4326(9) 0.2927(4)
H28_7 H 0.243662 0.425018 0.308393
H29_8 H 0.257514 0.400395 0.280037
C30_8 C 0.3438(11) 0.3564(10) 0.3032(4)
H30_8 H 0.312608 0.337757 0.314538
H31_8 H 0.345416 0.333927 0.286646
C31_8 C 0.3976(14) 0.3596(13) 0.3143(5)
H32_8 H 0.42418 0.381318 0.301855
H33_8 H 0.412747 0.31697 0.3149
C32_8 C 0.4795(9) 0.3801(10) 0.3543(4)
H34_8 H 0.488939 0.337238 0.359018
H35_7 H 0.513244 0.396791 0.343736
C33_8 C 0.4684(15) 0.4187(14) 0.3778(6)
H36_8 H 0.43853 0.452053 0.37496
H37_7 H 0.506369 0.434585 0.385723
C34_8 C 0.4389(17) 0.3814(18) 0.4226(7)
H38_8 H 0.42188 0.347025 0.432386
H39_8 H 0.480326 0.390279 0.428829
H40_8 H 0.413 0.417538 0.425009
S1_8 S 0.37971(14) 0.85407(19) 0.28251(8)
S2_8 S 0.26666(14) 0.87172(17) 0.30946(8)
O1_8 O 0.2958(5) 0.6270(5) 0.3330(2)
O2_8 O 0.3478(7) 0.5974(7) 0.3788(3)
O3_8 O 0.4593(10) 0.5742(10) 0.4112(4)
O4_8 O 0.630(3) 0.619(2) 0.3935(19)
O5_8 O 0.2634(5) 0.5434(5) 0.2982(2)
O7_8 O 0.4124(8) 0.3854(8) 0.3391(3)
O8_8 O 0.4416(10) 0.3636(11) 0.3919(4)
C35_8 C 0.1954(5) 0.6627(5) 0.2152(2)
C36_8 C 0.1142(6) 0.5957(6) 0.1919(2)
C37_8 C 0.0543(6) 0.5754(6) 0.1844(3)
C38_8 C 0.0268(6) 0.5854(6) 0.1619(2)
H41_8 H 0.048467 0.606137 0.148639
C41_8 C 0.0200(7) 0.5459(6) 0.2022(3)
H44_8 H 0.037158 0.537811 0.218609
C42_8 C 0.1709(6) 0.5891(6) 0.1770(2)
C43_8 C 0.1807(6) 0.5526(6) 0.1544(2)
C44_8 C 0.2228(6) 0.5703(6) 0.1358(3)
H45_8 H 0.244153 0.607773 0.137923
C45_8 C 0.2349(8) 0.5334(8) 0.1136(4)
H46_7 H 0.261629 0.547291 0.100485
C46_8 C 0.1648(7) 0.4561(7) 0.1295(3)
H47_8 H 0.144277 0.418219 0.127178
C47_8 C 0.1531(7) 0.4930(7) 0.1513(3)
H48_8 H 0.12639 0.478143 0.164303
C48_8 C 0.2230(6) 0.7079(6) 0.2337(2)
C49_8 C 0.2286(6) 0.7692(6) 0.2253(3)
C50_8 C 0.2112(6) 0.7885(7) 0.1987(3)
H49_8 H 0.19731 0.759664 0.186353
C51_8 C 0.2162(7) 0.8499(7) 0.1927(3)
C52_7 C 0.2438(5) 0.6869(5) 0.2582(2)
C53_7 C 0.2438(6) 0.6233(6) 0.2667(3)
H50_7 H 0.230418 0.592967 0.25487
C54_8 C 0.2372(6) 0.8958(7) 0.2084(3)
C55_8 C 0.1838(9) 0.8227(9) 0.1476(4)
H51_8 H 0.205415 0.783409 0.150369
H52_8 H 0.139043 0.815885 0.147828
C56_8 C 0.2063(10) 0.8570(10) 0.1214(4)
H53_8 H 0.206526 0.829603 0.1062
H54_8 H 0.24647 0.877299 0.123327
C57_8 C 0.1620(17) 0.9296(16) 0.0893(6)
H55_8 H 0.159562 0.896946 0.076152
H56_8 H 0.199233 0.954682 0.086948
C58_8 C 0.1059(15) 0.9656(15) 0.0917(6)
H57_8 H 0.105967 0.986225 0.10863
H58_8 H 0.106383 0.997917 0.078294
H66_8 H 0.229819 0.993391 0.23569
H67_7 H 0.296179 0.999875 0.222705
S3_8 S 0.12029(14) 0.64593(19) 0.21749(8)
S4_8 S 0.23334(14) 0.62828(17) 0.19054(8)
O9_8 O 0.2042(5) 0.8730(5) 0.1670(2)
O10_8 O 0.1522(7) 0.9026(7) 0.1212(3)
O11_8 O 0.0407(10) 0.9258(10) 0.0888(4)
O13_8 O 0.2366(5) 0.9566(5) 0.2018(2)
C39_8 C 0.9654(8) 0.5656(7) 0.1573(3)
H42_8 H 0.947077 0.572449 0.140947
C40_8 C 0.9578(8) 0.5262(8) 0.1968(3)
H43_8 H 0.934001 0.504557 0.209099
C59_8 C 0.9755(14) 0.9556(12) 0.0863(5)
H59_8 H 0.971773 0.99113 0.097993
H60_8 H 0.968254 0.969534 0.068433
C60_8 C 0.927(3) 0.903(2) 0.0941(12)
H61_8 H 0.956296 0.87421 0.102118
H62_8 H 0.920343 0.886007 0.07671
C61_8 C 0.8707(19) 0.815(2) 0.1096(8)
H63_8 H 0.832599 0.801684 0.11786
H64_8 H 0.905556 0.80275 0.120331
H65_8 H 0.874235 0.795363 0.092673
N3_8 N 0.9367(6) 0.5403(6) 0.1739(3)
O12_8 O 0.870(3) 0.881(2) 0.1065(19)
C18_8 C 0.4369(5) 0.0062(5) 0.9918(2)
C19_8 C 0.3733(6) 0.0062(6) 0.9833(3)
H10_8 H 0.342967 0.019582 0.99513
H46_8 H 0.702709 0.011629 0.850485
C62_8 C 0.2493(9) 0.0016(9) 0.9693(4)
H67_8 H 0.250125 0.046179 0.972705
H68_8 H 0.175018 0.006338 0.941607
H6_8 H 0.297291 0.988371 0.149515
C28_8 C 0.7507(9) 0.9984(9) 0.0307(4)
H27_8 H 0.749875 0.953821 0.027295
H28_8 H 0.824982 0.993662 0.058393
C52_8 C 0.5631(5) 0.9938(5) 0.0082(2)
C53_8 C 0.6267(6) 0.9938(6) 0.0167(3)
H50_8 H 0.657033 0.980418 0.00487
H35_8 H 0.013244 0.896791 0.843736
H37_8 H 0.006369 0.934585 0.885723
H75_8 H 0.986756 0.103209 0.156264
H77_8 H 0.993631 0.065415 0.114277
loop_
_geom_bond_atom_site_label_1
_geom_bond_atom_site_label_2
_geom_bond_site_symmetry_1
_geom_bond_site_symmetry_2
F1 B1 1_555 1_555
F2 B1 1_555 1_555
B1 F3 1_555 1_555
F4 B1 1_555 1_555
F1_2 B1_2 1_555 1_555
F2_2 B1_2 1_555 1_555
B1_3 F3_2 1_555 1_555
F4_2 B1_3 1_555 1_555
F1_3 B1_4 1_555 1_555
F2_3 B1_4 1_555 1_555
B1_4 F3_3 1_555 1_555
F4_3 B1_4 1_555 1_555
F1_4 B1_5 1_555 1_555
F4_4 B1_5 1_555 1_555
F2_4 B1_6 1_555 1_555
B1_6 F3_4 1_555 1_555
F1_5 B1_7 1_555 1_555
F2_5 B1_7 1_555 1_555
B1_7 F3_5 1_555 1_555
F4_5 B1_7 1_555 1_555
B1_8 F3_6 1_555 1_555
F4_6 B1_8 1_555 1_555
F1_6 B1_9 1_555 1_555
F2_6 B1_9 1_555 1_555
F1_7 B1_10 1_555 1_555
F2_7 B1_10 1_555 1_555
B1_10 F3_7 1_555 1_555
F4_7 B1_10 1_555 1_555
F2_8 B1_11 1_555 1_555
B1_11 F3_8 1_555 1_555
F1_8 B1_12 1_555 1_555
F4_8 B1_12 1_555 1_555
F5 B2 1_555 1_555
F6 B2 1_555 1_555
F7 B2 1_555 1_555
F8 B2 1_555 1_555
F5_2 B2_2 1_555 1_555
F6_2 B2_2 1_555 1_555
F7_2 B2_2 1_555 1_555
F8_2 B2_2 1_555 1_555
F5_3 B2_3 1_555 1_555
F6_3 B2_3 1_555 1_555
F7_3 B2_3 1_555 1_555
F8_3 B2_3 1_555 1_555
F5_4 B2_4 1_555 1_555
F6_4 B2_4 1_555 1_555
F7_4 B2_4 1_555 1_555
F8_4 B2_4 1_555 1_555
F5_5 B2_5 1_555 1_555
F6_5 B2_5 1_555 1_555
F7_5 B2_5 1_555 1_555
F8_5 B2_5 1_555 1_555
F5_6 B2_6 1_555 1_555
F6_6 B2_6 1_555 1_555
F7_6 B2_6 1_555 1_555
F8_6 B2_6 1_555 1_555
F6_7 B2_7 1_555 1_555
F7_7 B2_7 1_555 1_555
F8_7 B2_7 1_555 1_555
F6_8 B2_8 1_555 1_555
F7_8 B2_8 1_555 1_555
F8_8 B2_8 1_555 1_555
F5_9 B2_9 1_555 1_555
F6_9 B2_9 1_555 1_555
F7_9 B2_9 1_555 1_555
F8_9 B2_9 1_555 1_555
F5_10 B2_10 1_555 1_555
F6_10 B2_10 1_555 1_555
F7_10 B2_10 1_555 1_555
F8_10 B2_10 1_555 1_555
F5_11 B2_11 1_555 1_555
F6_11 B2_11 1_555 1_555
F7_11 B2_11 1_555 1_555
F8_11 B2_11 1_555 1_555
F5_12 B2_12 1_555 1_555
F6_12 B2_12 1_555 1_555
F7_12 B2_12 1_555 1_555
F8_12 B2_12 1_555 1_555
F5_13 B2_13 1_555 1_555
F6_13 B2_13 1_555 1_555
F7_13 B2_13 1_555 1_555
F8_13 B2_13 1_555 1_555
F5_14 B2_14 1_555 1_555
F6_14 B2_14 1_555 1_555
F7_14 B2_14 1_555 1_555
F8_14 B2_14 1_555 1_555
F6_15 B2_15 1_555 1_555
F7_15 B2_15 1_555 1_555
F8_15 B2_15 1_555 1_555
F6_16 B2_16 1_555 1_555
F7_16 B2_16 1_555 1_555
F8_16 B2_16 1_555 1_555
C1 C14 1_555 1_555
C2 C3 1_555 1_555
C3 C4 1_555 1_555
C4 H1 1_555 1_555
C5 C4 1_555 1_555
H2 C5 1_555 1_555
C6 H3 1_555 1_555
C7 C3 1_555 1_555
H4 C7 1_555 1_555
C8 C2 1_555 1_555
C9 C8 1_555 1_555
C10 C9 1_555 1_555
H5 C10 1_555 1_555
C11 C10 1_555 1_555
C12 H7 1_555 1_555
C13 C9 1_555 1_555
H8 C13 1_555 1_555
C14 C15 1_555 1_555
C15 C16 1_555 1_555
C16 H9 1_555 1_555
C17 C16 1_555 1_555
C20 C17 1_555 1_555
C21 H11 1_555 1_555
H12 C21 1_555 1_555
C22 C21 1_555 1_555
H13 C22 1_555 1_555
H14 C22 1_555 1_555
C23 H15 1_555 1_555
H16 C23 1_555 1_555
C24 C23 1_555 1_555
H17 C24 1_555 1_555
H18 C24 1_555 1_555
C25 H19 1_555 1_555
H20 C25 1_555 1_555
C26 C25 1_555 1_555
H21 C26 1_555 1_555
H22 C26 1_555 1_555
C27 H23 1_555 1_555
H24 C27 1_555 1_555
H25 C27 1_555 1_555
H29 C29 1_555 1_555
C30 H30 1_555 1_555
H31 C30 1_555 1_555
C31 C30 1_555 1_555
H32 C31 1_555 1_555
H33 C31 1_555 1_555
C32 H34 1_555 1_555
H35 C32 1_555 1_555
C33 C32 1_555 1_555
H36 C33 1_555 1_555
H37 C33 1_555 1_555
C34 H38 1_555 1_555
H39 C34 1_555 1_555
H40 C34 1_555 1_555
Ag1 O6 1_555 1_555
N1 C5 1_555 1_555
N2 C11 1_555 1_555
S1 C1 1_555 1_555
S2 C1 1_555 1_555
O1 C17 1_555 1_555
O2 C22 1_555 1_555
O3 C24 1_555 1_555
O4 C26 1_555 1_555
O5 C20 1_555 1_555
O6 C29 1_555 1_555
O7 C31 1_555 1_555
O8 C33 1_555 1_555
Ag2 N1 1_555 1_555
Ag5 N2 1_555 1_555
N5 Ag1 1_555 1_555
N6 Ag2 1_555 1_555
N7 Ag1 1_555 1_555
O17 Ag2 1_555 1_555
C2 S1 1_555 1_555
C6 C7 1_555 1_555
C6 N1 1_555 1_555
C8 S2 1_555 1_555
C12 C13 1_555 1_555
C12 N2 1_555 1_555
C21 O1 1_555 1_555
C23 O2 1_555 1_555
C25 O3 1_555 1_555
C27 O4 1_555 1_555
C30 O6 1_555 1_555
C32 O7 1_555 1_555
C34 O8 1_555 1_555
C35 C48 1_555 1_555
C36 C37 1_555 1_555
C37 C38 1_555 1_555
C38 H41 1_555 1_555
C39 C38 1_555 1_555
H42 C39 1_555 1_555
C40 H43 1_555 1_555
C41 C37 1_555 1_555
H44 C41 1_555 1_555
C42 C36 1_555 1_555
C43 C42 1_555 1_555
C44 C43 1_555 1_555
H45 C44 1_555 1_555
C45 C44 1_555 1_555
C46 H47 1_555 1_555
C47 C43 1_555 1_555
H48 C47 1_555 1_555
C48 C49 1_555 1_555
C50 C49 1_555 1_555
H49 C50 1_555 1_555
C51 C50 1_555 1_555
C55 H51 1_555 1_555
H52 C55 1_555 1_555
C56 C55 1_555 1_555
H53 C56 1_555 1_555
H54 C56 1_555 1_555
C57 H55 1_555 1_555
H56 C57 1_555 1_555
C58 C57 1_555 1_555
H57 C58 1_555 1_555
H58 C58 1_555 1_555
C59 H59 1_555 1_555
H60 C59 1_555 1_555
C60 C59 1_555 1_555
H61 C60 1_555 1_555
H62 C60 1_555 1_555
C61 H63 1_555 1_555
H64 C61 1_555 1_555
H65 C61 1_555 1_555
H69 C63 1_555 1_555
C64 H70 1_555 1_555
H71 C64 1_555 1_555
C65 C64 1_555 1_555
H72 C65 1_555 1_555
H73 C65 1_555 1_555
C66 H74 1_555 1_555
H75 C66 1_555 1_555
C67 C66 1_555 1_555
H76 C67 1_555 1_555
H77 C67 1_555 1_555
C68 H78 1_555 1_555
H79 C68 1_555 1_555
H80 C68 1_555 1_555
N3 C39 1_555 1_555
N4 C45 1_555 1_555
S3 C35 1_555 1_555
S4 C35 1_555 1_555
O9 C51 1_555 1_555
O10 C56 1_555 1_555
O11 C58 1_555 1_555
O12 C60 1_555 1_555
O13 C54 1_555 1_555
O14 C63 1_555 1_555
O15 C65 1_555 1_555
O16 C67 1_555 1_555
Ag3 N4 1_555 1_555
Ag4 O14 1_555 1_555
Ag6 N3 1_555 1_555
C36 S3 1_555 1_555
C40 C41 1_555 1_555
C40 N3 1_555 1_555
C42 S4 1_555 1_555
C46 C47 1_555 1_555
C46 N4 1_555 1_555
C51 C54 1_555 1_555
C55 O9 1_555 1_555
C57 O10 1_555 1_555
C59 O11 1_555 1_555
C61 O12 1_555 1_555
C64 O14 1_555 1_555
C66 O15 1_555 1_555
C68 O16 1_555 1_555
C50_2 C49_2 1_555 1_555
H49_2 C50_2 1_555 1_555
C51_2 C50_2 1_555 1_555
C55_2 H51_2 1_555 1_555
H52_2 C55_2 1_555 1_555
C56_2 C55_2 1_555 1_555
H53_2 C56_2 1_555 1_555
H54_2 C56_2 1_555 1_555
C57_2 H55_2 1_555 1_555
H56_2 C57_2 1_555 1_555
C58_2 C57_2 1_555 1_555
H57_2 C58_2 1_555 1_555
H58_2 C58_2 1_555 1_555
C59_2 H59_2 1_555 1_555
H60_2 C59_2 1_555 1_555
C60_2 C59_2 1_555 1_555
H61_2 C60_2 1_555 1_555
H62_2 C60_2 1_555 1_555
C61_2 H63_2 1_555 1_555
H64_2 C61_2 1_555 1_555
H65_2 C61_2 1_555 1_555
H69_2 C63_2 1_555 1_555
C64_2 H70_2 1_555 1_555
H71_2 C64_2 1_555 1_555
C65_2 C64_2 1_555 1_555
H72_2 C65_2 1_555 1_555
H73_2 C65_2 1_555 1_555
C66_2 H74_2 1_555 1_555
H75_2 C66_2 1_555 1_555
C67_2 C66_2 1_555 1_555
H76_2 C67_2 1_555 1_555
H77_2 C67_2 1_555 1_555
C68_2 H78_2 1_555 1_555
H79_2 C68_2 1_555 1_555
H80_2 C68_2 1_555 1_555
O9_2 C51_2 1_555 1_555
O10_2 C56_2 1_555 1_555
O11_2 C58_2 1_555 1_555
O12_2 C60_2 1_555 1_555
O13_2 C54_2 1_555 1_555
O14_2 C63_2 1_555 1_555
O15_2 C65_2 1_555 1_555
O16_2 C67_2 1_555 1_555
Ag4_2 O14_2 1_555 1_555
C51_2 C54_2 1_555 1_555
C55_2 O9_2 1_555 1_555
C57_2 O10_2 1_555 1_555
C59_2 O11_2 1_555 1_555
C61_2 O12_2 1_555 1_555
C64_2 O14_2 1_555 1_555
C66_2 O15_2 1_555 1_555
C68_2 O16_2 1_555 1_555
C1_2 C14_2 1_555 1_555
C2_2 C3_2 1_555 1_555
C3_2 C4_2 1_555 1_555
C4_2 H1_2 1_555 1_555
C5_2 C4_2 1_555 1_555
H2_2 C5_2 1_555 1_555
C6_2 H3_2 1_555 1_555
C7_2 C3_2 1_555 1_555
H4_2 C7_2 1_555 1_555
C8_2 C2_2 1_555 1_555
C9_2 C8_2 1_555 1_555
C10_2 C9_2 1_555 1_555
H5_2 C10_2 1_555 1_555
C11_2 C10_2 1_555 1_555
C12_2 H7_2 1_555 1_555
C13_2 C9_2 1_555 1_555
H8_2 C13_2 1_555 1_555
C18 C14_2 1_555 1_555
C19 C18 1_555 1_555
H10 C19 1_555 1_555
N1_2 C5_2 1_555 1_555
N2_2 C11_2 1_555 1_555
S1_2 C1_2 1_555 1_555
S2_2 C1_2 1_555 1_555
H67 C62 1_555 1_555
Ag2_2 N1_2 1_555 1_555
Ag5_2 N2_2 1_555 1_555
N6_2 Ag2_2 1_555 1_555
O17_2 Ag2_2 1_555 1_555
C2_2 S1_2 1_555 1_555
C6_2 C7_2 1_555 1_555
C6_2 N1_2 1_555 1_555
C8_2 S2_2 1_555 1_555
C12_2 C13_2 1_555 1_555
C12_2 N2_2 1_555 1_555
H27 C28 1_555 1_555
C35_2 C48_2 1_555 1_555
C36_2 C37_2 1_555 1_555
C37_2 C38_2 1_555 1_555
C38_2 H41_2 1_555 1_555
C39_2 C38_2 1_555 1_555
H42_2 C39_2 1_555 1_555
C40_2 H43_2 1_555 1_555
C41_2 C37_2 1_555 1_555
H44_2 C41_2 1_555 1_555
C42_2 C36_2 1_555 1_555
C43_2 C42_2 1_555 1_555
C44_2 C43_2 1_555 1_555
H45_2 C44_2 1_555 1_555
C45_2 C44_2 1_555 1_555
C46_2 H47_2 1_555 1_555
C47_2 C43_2 1_555 1_555
H48_2 C47_2 1_555 1_555
H50 C53 1_555 1_555
N3_2 C39_2 1_555 1_555
N4_2 C45_2 1_555 1_555
S3_2 C35_2 1_555 1_555
S4_2 C35_2 1_555 1_555
Ag3_2 N4_2 1_555 1_555
Ag6_2 N3_2 1_555 1_555
C36_2 S3_2 1_555 1_555
C40_2 C41_2 1_555 1_555
C40_2 N3_2 1_555 1_555
C42_2 S4_2 1_555 1_555
C46_2 C47_2 1_555 1_555
C46_2 N4_2 1_555 1_555
C48_2 C52 1_555 1_555
C52 C53 1_555 1_555
C15_2 C16_2 1_555 1_555
C16_2 H9_2 1_555 1_555
C17_2 C16_2 1_555 1_555
C20_2 C17_2 1_555 1_555
C21_2 H11_2 1_555 1_555
H12_2 C21_2 1_555 1_555
C22_2 C21_2 1_555 1_555
H13_2 C22_2 1_555 1_555
H14_2 C22_2 1_555 1_555
C23_2 H15_2 1_555 1_555
H16_2 C23_2 1_555 1_555
C24_2 C23_2 1_555 1_555
H17_2 C24_2 1_555 1_555
H18_2 C24_2 1_555 1_555
C25_2 H19_2 1_555 1_555
H20_2 C25_2 1_555 1_555
C26_2 C25_2 1_555 1_555
H21_2 C26_2 1_555 1_555
H22_2 C26_2 1_555 1_555
C27_2 H23_2 1_555 1_555
H24_2 C27_2 1_555 1_555
H25_2 C27_2 1_555 1_555
H29_2 C29_2 1_555 1_555
C30_2 H30_2 1_555 1_555
H31_2 C30_2 1_555 1_555
C31_2 C30_2 1_555 1_555
H32_2 C31_2 1_555 1_555
H33_2 C31_2 1_555 1_555
C32_2 H34_2 1_555 1_555
H35_2 C32_2 1_555 1_555
C33_2 C32_2 1_555 1_555
H36_2 C33_2 1_555 1_555
H37_2 C33_2 1_555 1_555
C34_2 H38_2 1_555 1_555
H39_2 C34_2 1_555 1_555
H40_2 C34_2 1_555 1_555
Ag1_2 O6_2 1_555 1_555
O1_2 C17_2 1_555 1_555
O2_2 C22_2 1_555 1_555
O3_2 C24_2 1_555 1_555
O4_2 C26_2 1_555 1_555
O5_2 C20_2 1_555 1_555
O6_2 C29_2 1_555 1_555
O7_2 C31_2 1_555 1_555
O8_2 C33_2 1_555 1_555
N5_2 Ag1_2 1_555 1_555
N7_2 Ag1_2 1_555 1_555
C21_2 O1_2 1_555 1_555
C23_2 O2_2 1_555 1_555
C25_2 O3_2 1_555 1_555
C27_2 O4_2 1_555 1_555
C30_2 O6_2 1_555 1_555
C32_2 O7_2 1_555 1_555
C34_2 O8_2 1_555 1_555
H42_3 C39_3 1_555 1_555
C40_3 H43_3 1_555 1_555
C59_3 H59_3 1_555 1_555
H60_3 C59_3 1_555 1_555
C60_3 C59_3 1_555 1_555
H61_3 C60_3 1_555 1_555
H62_3 C60_3 1_555 1_555
C61_3 H63_3 1_555 1_555
H64_3 C61_3 1_555 1_555
H65_3 C61_3 1_555 1_555
N3_3 C39_3 1_555 1_555
O12_3 C60_3 1_555 1_555
C40_3 N3_3 1_555 1_555
C61_3 O12_3 1_555 1_555
C29_3 C28_2 1_555 1_555
H28_2 C29_3 1_555 1_555
H29_3 C29_3 1_555 1_555
C30_3 H30_3 1_555 1_555
H31_3 C30_3 1_555 1_555
C31_3 C30_3 1_555 1_555
H32_3 C31_3 1_555 1_555
H33_3 C31_3 1_555 1_555
C32_3 H34_3 1_555 1_555
H35_3 C32_3 1_555 1_555
C33_3 C32_3 1_555 1_555
H36_3 C33_3 1_555 1_555
H37_3 C33_3 1_555 1_555
C34_3 H38_3 1_555 1_555
H39_3 C34_3 1_555 1_555
H40_3 C34_3 1_555 1_555
Ag3_2 O6_3 1_555 1_555
O6_3 C29_3 1_555 1_555
O7_3 C31_3 1_555 1_555
O8_3 C33_3 1_555 1_555
C46_3 H47_3 1_555 1_555
H48_3 C47_3 1_555 1_555
C30_3 O6_3 1_555 1_555
C32_3 O7_3 1_555 1_555
C34_3 O8_3 1_555 1_555
C46_3 C47_3 1_555 1_555
C46_3 N7 1_555 1_555
C1_3 C14_3 1_555 1_555
C2_3 C3_3 1_555 1_555
C3_3 C4_3 1_555 1_555
C4_3 H1_3 1_555 1_555
C5_3 C4_3 1_555 1_555
H2_3 C5_3 1_555 1_555
C6_3 H3_3 1_555 1_555
C7_3 C3_3 1_555 1_555
H4_3 C7_3 1_555 1_555
C8_3 C2_3 1_555 1_555
C9_3 C8_3 1_555 1_555
C10_3 C9_3 1_555 1_555
H5_3 C10_3 1_555 1_555
C11_3 C10_3 1_555 1_555
H6_2 C11_3 1_555 1_555
C12_3 H7_3 1_555 1_555
C13_3 C9_3 1_555 1_555
H8_3 C13_3 1_555 1_555
C14_3 C15_3 1_555 1_555
C15_3 C16_3 1_555 1_555
C16_3 H9_3 1_555 1_555
C17_3 C16_3 1_555 1_555
C18_2 C14_3 1_555 1_555
C19_2 C18_2 1_555 1_555
H10_2 C19_2 1_555 1_555
C20_3 C17_3 1_555 1_555
C21_3 H11_3 1_555 1_555
H12_3 C21_3 1_555 1_555
C22_3 C21_3 1_555 1_555
H13_3 C22_3 1_555 1_555
H14_3 C22_3 1_555 1_555
C23_3 H15_3 1_555 1_555
H16_3 C23_3 1_555 1_555
C24_3 C23_3 1_555 1_555
H17_3 C24_3 1_555 1_555
H18_3 C24_3 1_555 1_555
C25_3 H19_3 1_555 1_555
H20_3 C25_3 1_555 1_555
C26_3 C25_3 1_555 1_555
H21_3 C26_3 1_555 1_555
H22_3 C26_3 1_555 1_555
C27_3 H23_3 1_555 1_555
H24_3 C27_3 1_555 1_555
H25_3 C27_3 1_555 1_555
N1_3 C5_3 1_555 1_555
N2_3 C11_3 1_555 1_555
S1_3 C1_3 1_555 1_555
S2_3 C1_3 1_555 1_555
O1_3 C17_3 1_555 1_555
O2_3 C22_3 1_555 1_555
O3_3 C24_3 1_555 1_555
O4_3 C26_3 1_555 1_555
O5_3 C20_3 1_555 1_555
C35_3 C48_3 1_555 1_555
C36_3 C37_3 1_555 1_555
C37_3 C38_3 1_555 1_555
C38_3 H41_3 1_555 1_555
C41_3 C37_3 1_555 1_555
H44_3 C41_3 1_555 1_555
C42_3 C36_3 1_555 1_555
C43_3 C42_3 1_555 1_555
C44_3 C43_3 1_555 1_555
H45_3 C44_3 1_555 1_555
C45_3 C44_3 1_555 1_555
H46_2 C45_3 1_555 1_555
C48_3 C49_3 1_555 1_555
C49_3 C18_2 1_555 1_555
C50_3 C49_3 1_555 1_555
H49_3 C50_3 1_555 1_555
C51_3 C50_3 1_555 1_555
C52_2 C15_3 1_555 1_555
C53_2 C20_3 1_555 1_555
H50_2 C53_2 1_555 1_555
C54_3 C19_2 1_555 1_555
C55_3 H51_3 1_555 1_555
H52_3 C55_3 1_555 1_555
C56_3 C55_3 1_555 1_555
H53_3 C56_3 1_555 1_555
H54_3 C56_3 1_555 1_555
C57_3 H55_3 1_555 1_555
H56_3 C57_3 1_555 1_555
C58_3 C57_3 1_555 1_555
H57_3 C58_3 1_555 1_555
H58_3 C58_3 1_555 1_555
C62_2 H66_3 1_555 1_555
H67_2 C62_2 1_555 1_555
C63_3 C62_2 1_555 1_555
H68_2 C63_3 1_555 1_555
H69_3 C63_3 1_555 1_555
C64_3 H70_3 1_555 1_555
H71_3 C64_3 1_555 1_555
C65_3 C64_3 1_555 1_555
H72_3 C65_3 1_555 1_555
H73_3 C65_3 1_555 1_555
C66_3 H74_3 1_555 1_555
C67_3 C66_3 1_555 1_555
H76_3 C67_3 1_555 1_555
C68_3 H78_3 1_555 1_555
H79_3 C68_3 1_555 1_555
H80_3 C68_3 1_555 1_555
S3_3 C35_3 1_555 1_555
S4_3 C35_3 1_555 1_555
O9_3 C51_3 1_555 1_555
O10_3 C56_3 1_555 1_555
O11_3 C58_3 1_555 1_555
O13_3 C54_3 1_555 1_555
O14_3 C63_3 1_555 1_555
O15_3 C65_3 1_555 1_555
O16_3 C67_3 1_555 1_555
Ag2_3 N1_3 1_555 1_555
Ag4_3 O14_3 1_555 1_555
Ag6_2 N2_3 1_555 1_555
N6_3 Ag2_3 1_555 1_555
O17_3 Ag2_3 1_555 1_555
C2_3 S1_3 1_555 1_555
C6_3 C7_3 1_555 1_555
C6_3 N1_3 1_555 1_555
C8_3 S2_3 1_555 1_555
C12_3 C13_3 1_555 1_555
C12_3 N2_3 1_555 1_555
C21_3 O1_3 1_555 1_555
C23_3 O2_3 1_555 1_555
C25_3 O3_3 1_555 1_555
C27_3 O4_3 1_555 1_555
C36_3 S3_3 1_555 1_555
C42_3 S4_3 1_555 1_555
C48_3 C52_2 1_555 1_555
C51_3 C54_3 1_555 1_555
C52_2 C53_2 1_555 1_555
C55_3 O9_3 1_555 1_555
C57_3 O10_3 1_555 1_555
C62_2 O13_3 1_555 1_555
C64_3 O14_3 1_555 1_555
C66_3 O15_3 1_555 1_555
C68_3 O16_3 1_555 1_555
H2_4 C5_4 1_555 1_555
C6_4 H3_4 1_555 1_555
C25_4 H19_4 1_555 1_555
H20_4 C25_4 1_555 1_555
C26_4 C25_4 1_555 1_555
H21_4 C26_4 1_555 1_555
H22_4 C26_4 1_555 1_555
C27_4 H23_4 1_555 1_555
H24_4 C27_4 1_555 1_555
H25_4 C27_4 1_555 1_555
N1_4 C5_4 1_555 1_555
O4_4 C26_4 1_555 1_555
Ag2_4 N1_4 1_555 1_555
N6_4 Ag2_4 1_555 1_555
O17_4 Ag2_4 1_555 1_555
C6_4 N1_4 1_555 1_555
C27_4 O4_4 1_555 1_555
C1_4 C14_4 1_555 1_555
C2_4 C3_4 1_555 1_555
C3_4 C4_4 1_555 1_555
C4_4 H1_4 1_555 1_555
C7_4 C3_4 1_555 1_555
H4_4 C7_4 1_555 1_555
C8_4 C2_4 1_555 1_555
C9_4 C8_4 1_555 1_555
C10_4 C9_4 1_555 1_555
H5_4 C10_4 1_555 1_555
C11_4 C10_4 1_555 1_555
H6_3 C11_4 1_555 1_555
C12_4 H7_4 1_555 1_555
C13_4 C9_4 1_555 1_555
H8_4 C13_4 1_555 1_555
C14_4 C15_4 1_555 1_555
C15_4 C16_4 1_555 1_555
C16_4 H9_4 1_555 1_555
C17_4 C16_4 1_555 1_555
C18_3 C14_4 1_555 1_555
C19_3 C18_3 1_555 1_555
H10_3 C19_3 1_555 1_555
C20_4 C17_4 1_555 1_555
C21_4 H11_4 1_555 1_555
H12_4 C21_4 1_555 1_555
C22_4 C21_4 1_555 1_555
H13_4 C22_4 1_555 1_555
H14_4 C22_4 1_555 1_555
C23_4 H15_4 1_555 1_555
H16_4 C23_4 1_555 1_555
C24_4 C23_4 1_555 1_555
H17_4 C24_4 1_555 1_555
H18_4 C24_4 1_555 1_555
N2_4 C11_4 1_555 1_555
S1_4 C1_4 1_555 1_555
S2_4 C1_4 1_555 1_555
O1_4 C17_4 1_555 1_555
O2_4 C22_4 1_555 1_555
O3_4 C24_4 1_555 1_555
O5_4 C20_4 1_555 1_555
C35_4 C48_4 1_555 1_555
C36_4 C37_4 1_555 1_555
C37_4 C38_4 1_555 1_555
C38_4 H41_4 1_555 1_555
C39_4 C38_4 1_555 1_555
H42_4 C39_4 1_555 1_555
C40_4 H43_4 1_555 1_555
C41_4 C37_4 1_555 1_555
H44_4 C41_4 1_555 1_555
C42_4 C36_4 1_555 1_555
C43_4 C42_4 1_555 1_555
C44_4 C43_4 1_555 1_555
H45_4 C44_4 1_555 1_555
C45_4 C44_4 1_555 1_555
H46_3 C45_4 1_555 1_555
C48_4 C49_4 1_555 1_555
C49_4 C18_3 1_555 1_555
C50_4 C49_4 1_555 1_555
H49_4 C50_4 1_555 1_555
C51_4 C50_4 1_555 1_555
C52_3 C15_4 1_555 1_555
C53_3 C20_4 1_555 1_555
H50_3 C53_3 1_555 1_555
C54_4 C19_3 1_555 1_555
C55_4 H51_4 1_555 1_555
H52_4 C55_4 1_555 1_555
C56_4 C55_4 1_555 1_555
H53_4 C56_4 1_555 1_555
H54_4 C56_4 1_555 1_555
C57_4 H55_4 1_555 1_555
H56_4 C57_4 1_555 1_555
C58_4 C57_4 1_555 1_555
H57_4 C58_4 1_555 1_555
H58_4 C58_4 1_555 1_555
C59_4 H59_4 1_555 1_555
H60_4 C59_4 1_555 1_555
C60_4 C59_4 1_555 1_555
H61_4 C60_4 1_555 1_555
H62_4 C60_4 1_555 1_555
C61_4 H63_4 1_555 1_555
H64_4 C61_4 1_555 1_555
H65_4 C61_4 1_555 1_555
C62_3 H66_4 1_555 1_555
H67_3 C62_3 1_555 1_555
C63_4 C62_3 1_555 1_555
H68_3 C63_4 1_555 1_555
H69_4 C63_4 1_555 1_555
C64_4 H70_4 1_555 1_555
H71_4 C64_4 1_555 1_555
C65_4 C64_4 1_555 1_555
H72_4 C65_4 1_555 1_555
H73_4 C65_4 1_555 1_555
C66_4 H74_4 1_555 1_555
H75_4 C66_4 1_555 1_555
C67_4 C66_4 1_555 1_555
H76_4 C67_4 1_555 1_555
H77_4 C67_4 1_555 1_555
C68_4 H78_4 1_555 1_555
H79_4 C68_4 1_555 1_555
H80_4 C68_4 1_555 1_555
N3_4 C39_4 1_555 1_555
S3_4 C35_4 1_555 1_555
S4_4 C35_4 1_555 1_555
O9_4 C51_4 1_555 1_555
O10_4 C56_4 1_555 1_555
O11_4 C58_4 1_555 1_555
O12_4 C60_4 1_555 1_555
O13_4 C54_4 1_555 1_555
O14_4 C63_4 1_555 1_555
O15_4 C65_4 1_555 1_555
O16_4 C67_4 1_555 1_555
Ag4_4 O14_4 1_555 1_555
Ag6 N2_4 1_555 1_555
C2_4 S1_4 1_555 1_555
C8_4 S2_4 1_555 1_555
C12_4 C13_4 1_555 1_555
C12_4 N2_4 1_555 1_555
C21_4 O1_4 1_555 1_555
C23_4 O2_4 1_555 1_555
C36_4 S3_4 1_555 1_555
C40_4 C41_4 1_555 1_555
C40_4 N3_4 1_555 1_555
C42_4 S4_4 1_555 1_555
C48_4 C52_3 1_555 1_555
C51_4 C54_4 1_555 1_555
C52_3 C53_3 1_555 1_555
C55_4 O9_4 1_555 1_555
C57_4 O10_4 1_555 1_555
C59_4 O11_4 1_555 1_555
C61_4 O12_4 1_555 1_555
C62_3 O13_4 1_555 1_555
C64_4 O14_4 1_555 1_555
C66_4 O15_4 1_555 1_555
C68_4 O16_4 1_555 1_555
C29_4 C28_3 1_555 1_555
H28_3 C29_4 1_555 1_555
H29_4 C29_4 1_555 1_555
C30_4 H30_4 1_555 1_555
H31_4 C30_4 1_555 1_555
C31_4 C30_4 1_555 1_555
H32_4 C31_4 1_555 1_555
H33_4 C31_4 1_555 1_555
C32_4 H34_4 1_555 1_555
C33_4 C32_4 1_555 1_555
H36_4 C33_4 1_555 1_555
C34_4 H38_4 1_555 1_555
H39_4 C34_4 1_555 1_555
H40_4 C34_4 1_555 1_555
Ag3 O6_4 1_555 1_555
O6_4 C29_4 1_555 1_555
O7_4 C31_4 1_555 1_555
O8_4 C33_4 1_555 1_555
C46_4 H47_4 1_555 1_555
H48_4 C47_4 1_555 1_555
C30_4 O6_4 1_555 1_555
C32_4 O7_4 1_555 1_555
C34_4 O8_4 1_555 1_555
C46_4 C47_4 1_555 1_555
C46_4 N7_2 1_555 1_555
C15_5 C16_5 1_555 1_555
C16_5 H9_5 1_555 1_555
C17_5 C16_5 1_555 1_555
C20_5 C17_5 1_555 1_555
C21_5 H11_5 1_555 1_555
H12_5 C21_5 1_555 1_555
C22_5 C21_5 1_555 1_555
H13_5 C22_5 1_555 1_555
H14_5 C22_5 1_555 1_555
C23_5 H15_5 1_555 1_555
H16_5 C23_5 1_555 1_555
C24_5 C23_5 1_555 1_555
H17_5 C24_5 1_555 1_555
H18_5 C24_5 1_555 1_555
C25_5 H19_5 1_555 1_555
H20_5 C25_5 1_555 1_555
C26_5 C25_5 1_555 1_555
H21_5 C26_5 1_555 1_555
H22_5 C26_5 1_555 1_555
C27_5 H23_5 1_555 1_555
H24_5 C27_5 1_555 1_555
H25_5 C27_5 1_555 1_555
C28_4 H26_5 1_555 1_555
H27_4 C28_4 1_555 1_555
C29_5 C28_4 1_555 1_555
H28_4 C29_5 1_555 1_555
H29_5 C29_5 1_555 1_555
C30_5 H30_5 1_555 1_555
H31_5 C30_5 1_555 1_555
C31_5 C30_5 1_555 1_555
H32_5 C31_5 1_555 1_555
H33_5 C31_5 1_555 1_555
C32_5 H34_5 1_555 1_555
H35_4 C32_5 1_555 1_555
C33_5 C32_5 1_555 1_555
H36_5 C33_5 1_555 1_555
H37_4 C33_5 1_555 1_555
C34_5 H38_5 1_555 1_555
H39_5 C34_5 1_555 1_555
H40_5 C34_5 1_555 1_555
O1_5 C17_5 1_555 1_555
O2_5 C22_5 1_555 1_555
O3_5 C24_5 1_555 1_555
O4_5 C26_5 1_555 1_555
O5_5 C20_5 1_555 1_555
O17_2 C29_5 1_555 1_555
O7_5 C31_5 1_555 1_555
O8_5 C33_5 1_555 1_555
C35_5 C48_5 1_555 1_555
C36_5 C37_5 1_555 1_555
C37_5 C38_5 1_555 1_555
C38_5 H41_5 1_555 1_555
C39_5 C38_5 1_555 1_555
H42_5 C39_5 1_555 1_555
C40_5 H43_5 1_555 1_555
C41_5 C37_5 1_555 1_555
H44_5 C41_5 1_555 1_555
C42_5 C36_5 1_555 1_555
C43_5 C42_5 1_555 1_555
C44_5 C43_5 1_555 1_555
H45_5 C44_5 1_555 1_555
C45_5 C44_5 1_555 1_555
H46_4 C45_5 1_555 1_555
C46_5 H47_5 1_555 1_555
C47_5 C43_5 1_555 1_555
H48_5 C47_5 1_555 1_555
C52_4 C15_5 1_555 1_555
C53_4 C20_5 1_555 1_555
H50_4 C53_4 1_555 1_555
N3_5 C39_5 1_555 1_555
N6_3 C45_5 1_555 1_555
S3_5 C35_5 1_555 1_555
S4_5 C35_5 1_555 1_555
Ag4_2 N3_5 1_555 1_555
C21_5 O1_5 1_555 1_555
C23_5 O2_5 1_555 1_555
C25_5 O3_5 1_555 1_555
C27_5 O4_5 1_555 1_555
C28_4 O5_5 1_555 1_555
C30_5 O17_2 1_555 1_555
C32_5 O7_5 1_555 1_555
C34_5 O8_5 1_555 1_555
C36_5 S3_5 1_555 1_555
C40_5 C41_5 1_555 1_555
C40_5 N3_5 1_555 1_555
C42_5 S4_5 1_555 1_555
C46_5 C47_5 1_555 1_555
C46_5 N6_3 1_555 1_555
C48_5 C52_4 1_555 1_555
C52_4 C53_4 1_555 1_555
C1_5 C14_5 1_555 1_555
C2_5 C3_5 1_555 1_555
C3_5 C4_5 1_555 1_555
C4_5 H1_5 1_555 1_555
C5_5 C4_5 1_555 1_555
H2_5 C5_5 1_555 1_555
C6_5 H3_5 1_555 1_555
C7_5 C3_5 1_555 1_555
H4_5 C7_5 1_555 1_555
C8_5 C2_5 1_555 1_555
C9_5 C8_5 1_555 1_555
C10_5 C9_5 1_555 1_555
H5_5 C10_5 1_555 1_555
C11_5 C10_5 1_555 1_555
H6_4 C11_5 1_555 1_555
C12_5 H7_5 1_555 1_555
C13_5 C9_5 1_555 1_555
H8_5 C13_5 1_555 1_555
C18_4 C14_5 1_555 1_555
C19_4 C18_4 1_555 1_555
H10_4 C19_4 1_555 1_555
N5_2 C5_5 1_555 1_555
N2_5 C11_5 1_555 1_555
S1_5 C1_5 1_555 1_555
S2_5 C1_5 1_555 1_555
C49_5 C18_4 1_555 1_555
C50_5 C49_5 1_555 1_555
H49_5 C50_5 1_555 1_555
C51_5 C50_5 1_555 1_555
C54_5 C19_4 1_555 1_555
C55_5 H51_5 1_555 1_555
H52_5 C55_5 1_555 1_555
C56_5 C55_5 1_555 1_555
H53_5 C56_5 1_555 1_555
H54_5 C56_5 1_555 1_555
C57_5 H55_5 1_555 1_555
H56_5 C57_5 1_555 1_555
C58_5 C57_5 1_555 1_555
H57_5 C58_5 1_555 1_555
H58_5 C58_5 1_555 1_555
C59_5 H59_5 1_555 1_555
H60_5 C59_5 1_555 1_555
C60_5 C59_5 1_555 1_555
H61_5 C60_5 1_555 1_555
H62_5 C60_5 1_555 1_555
C61_5 H63_5 1_555 1_555
H64_5 C61_5 1_555 1_555
H65_5 C61_5 1_555 1_555
C62_4 H66_5 1_555 1_555
H67_4 C62_4 1_555 1_555
C63_5 C62_4 1_555 1_555
H68_4 C63_5 1_555 1_555
H69_5 C63_5 1_555 1_555
C64_5 H70_5 1_555 1_555
H71_5 C64_5 1_555 1_555
C65_5 C64_5 1_555 1_555
H72_5 C65_5 1_555 1_555
H73_5 C65_5 1_555 1_555
C66_5 H74_5 1_555 1_555
H75_5 C66_5 1_555 1_555
C67_5 C66_5 1_555 1_555
H76_5 C67_5 1_555 1_555
H77_5 C67_5 1_555 1_555
C68_5 H78_5 1_555 1_555
H79_5 C68_5 1_555 1_555
H80_5 C68_5 1_555 1_555
O9_5 C51_5 1_555 1_555
O10_5 C56_5 1_555 1_555
O11_5 C58_5 1_555 1_555
O12_5 C60_5 1_555 1_555
O13_5 C54_5 1_555 1_555
O14_5 C63_5 1_555 1_555
O15_5 C65_5 1_555 1_555
O16_5 C67_5 1_555 1_555
Ag6_2 O14_5 1_555 1_555
Ag4_4 N2_5 1_555 1_555
C2_5 S1_5 1_555 1_555
C6_5 C7_5 1_555 1_555
C6_5 N5_2 1_555 1_555
C8_5 S2_5 1_555 1_555
C12_5 C13_5 1_555 1_555
C12_5 N2_5 1_555 1_555
C51_5 C54_5 1_555 1_555
C55_5 O9_5 1_555 1_555
C57_5 O10_5 1_555 1_555
C59_5 O11_5 1_555 1_555
C61_5 O12_5 1_555 1_555
C62_4 O13_5 1_555 1_555
C64_5 O14_5 1_555 1_555
C66_5 O15_5 1_555 1_555
C68_5 O16_5 1_555 1_555
C1_6 C14_6 1_555 1_555
C2_6 C3_6 1_555 1_555
C3_6 C4_6 1_555 1_555
C4_6 H1_6 1_555 1_555
C5_6 C4_6 1_555 1_555
H2_6 C5_6 1_555 1_555
C6_6 H3_6 1_555 1_555
C7_6 C3_6 1_555 1_555
H4_6 C7_6 1_555 1_555
C8_6 C2_6 1_555 1_555
C9_6 C8_6 1_555 1_555
C10_6 C9_6 1_555 1_555
H5_6 C10_6 1_555 1_555
C11_6 C10_6 1_555 1_555
H6_5 C11_6 1_555 1_555
C12_6 H7_6 1_555 1_555
C13_6 C9_6 1_555 1_555
H8_6 C13_6 1_555 1_555
C14_6 C15_6 1_555 1_555
C15_6 C16_6 1_555 1_555
C16_6 H9_6 1_555 1_555
C17_6 C16_6 1_555 1_555
C20_6 C17_6 1_555 1_555
C21_6 H11_6 1_555 1_555
H12_6 C21_6 1_555 1_555
C22_6 C21_6 1_555 1_555
H13_6 C22_6 1_555 1_555
H14_6 C22_6 1_555 1_555
C23_6 H15_6 1_555 1_555
H16_6 C23_6 1_555 1_555
C24_6 C23_6 1_555 1_555
H17_6 C24_6 1_555 1_555
H18_6 C24_6 1_555 1_555
C25_6 H19_6 1_555 1_555
H20_6 C25_6 1_555 1_555
C26_6 C25_6 1_555 1_555
H21_6 C26_6 1_555 1_555
H22_6 C26_6 1_555 1_555
C27_6 H23_6 1_555 1_555
H24_6 C27_6 1_555 1_555
H25_6 C27_6 1_555 1_555
C28_5 H26_6 1_555 1_555
H27_5 C28_5 1_555 1_555
C29_6 C28_5 1_555 1_555
H28_5 C29_6 1_555 1_555
H29_6 C29_6 1_555 1_555
C30_6 H30_6 1_555 1_555
H31_6 C30_6 1_555 1_555
C31_6 C30_6 1_555 1_555
H32_6 C31_6 1_555 1_555
H33_6 C31_6 1_555 1_555
C32_6 H34_6 1_555 1_555
H35_5 C32_6 1_555 1_555
C33_6 C32_6 1_555 1_555
H36_6 C33_6 1_555 1_555
H37_5 C33_6 1_555 1_555
C34_6 H38_6 1_555 1_555
H39_6 C34_6 1_555 1_555
H40_6 C34_6 1_555 1_555
N5 C5_6 1_555 1_555
N2_6 C11_6 1_555 1_555
S1_6 C1_6 1_555 1_555
S2_6 C1_6 1_555 1_555
O1_6 C17_6 1_555 1_555
O2_6 C22_6 1_555 1_555
O3_6 C24_6 1_555 1_555
O4_6 C26_6 1_555 1_555
O5_6 C20_6 1_555 1_555
O17 C29_6 1_555 1_555
O7_6 C31_6 1_555 1_555
O8_6 C33_6 1_555 1_555
C52_5 C15_6 1_555 1_555
C53_5 C20_6 1_555 1_555
H50_5 C53_5 1_555 1_555
Ag4_3 N2_6 1_555 1_555
C2_6 S1_6 1_555 1_555
C6_6 C7_6 1_555 1_555
C6_6 N5 1_555 1_555
C8_6 S2_6 1_555 1_555
C12_6 C13_6 1_555 1_555
C12_6 N2_6 1_555 1_555
C21_6 O1_6 1_555 1_555
C23_6 O2_6 1_555 1_555
C25_6 O3_6 1_555 1_555
C27_6 O4_6 1_555 1_555
C28_5 O5_6 1_555 1_555
C30_6 O17 1_555 1_555
C32_6 O7_6 1_555 1_555
C34_6 O8_6 1_555 1_555
C52_5 C53_5 1_555 1_555
C19_5 C18_5 1_555 1_555
H10_5 C19_5 1_555 1_555
C35_6 C48_6 1_555 1_555
C36_6 C37_6 1_555 1_555
C37_6 C38_6 1_555 1_555
C38_6 H41_6 1_555 1_555
C39_6 C38_6 1_555 1_555
H42_6 C39_6 1_555 1_555
C40_6 H43_6 1_555 1_555
C41_6 C37_6 1_555 1_555
H44_6 C41_6 1_555 1_555
C42_6 C36_6 1_555 1_555
C43_6 C42_6 1_555 1_555
C44_6 C43_6 1_555 1_555
H45_6 C44_6 1_555 1_555
C45_6 C44_6 1_555 1_555
H46_5 C45_6 1_555 1_555
C46_6 H47_6 1_555 1_555
C47_6 C43_6 1_555 1_555
H48_6 C47_6 1_555 1_555
C48_6 C49_6 1_555 1_555
C49_6 C18_5 1_555 1_555
C50_6 C49_6 1_555 1_555
H49_6 C50_6 1_555 1_555
C51_6 C50_6 1_555 1_555
C54_6 C19_5 1_555 1_555
C55_6 H51_6 1_555 1_555
H52_6 C55_6 1_555 1_555
C56_6 C55_6 1_555 1_555
H53_6 C56_6 1_555 1_555
H54_6 C56_6 1_555 1_555
C57_6 H55_6 1_555 1_555
H56_6 C57_6 1_555 1_555
C58_6 C57_6 1_555 1_555
H57_6 C58_6 1_555 1_555
H58_6 C58_6 1_555 1_555
C59_6 H59_6 1_555 1_555
H60_6 C59_6 1_555 1_555
C60_6 C59_6 1_555 1_555
H61_6 C60_6 1_555 1_555
H62_6 C60_6 1_555 1_555
C61_6 H63_6 1_555 1_555
H64_6 C61_6 1_555 1_555
H65_6 C61_6 1_555 1_555
C62_5 H66_6 1_555 1_555
H67_5 C62_5 1_555 1_555
C63_6 C62_5 1_555 1_555
H68_5 C63_6 1_555 1_555
H69_6 C63_6 1_555 1_555
C64_6 H70_6 1_555 1_555
H71_6 C64_6 1_555 1_555
C65_6 C64_6 1_555 1_555
H72_6 C65_6 1_555 1_555
H73_6 C65_6 1_555 1_555
C66_6 H74_6 1_555 1_555
H75_6 C66_6 1_555 1_555
C67_6 C66_6 1_555 1_555
H76_6 C67_6 1_555 1_555
H77_6 C67_6 1_555 1_555
C68_6 H78_6 1_555 1_555
H79_6 C68_6 1_555 1_555
H80_6 C68_6 1_555 1_555
N3_6 C39_6 1_555 1_555
N6_4 C45_6 1_555 1_555
S3_6 C35_6 1_555 1_555
S4_6 C35_6 1_555 1_555
O9_6 C51_6 1_555 1_555
O10_6 C56_6 1_555 1_555
O11_6 C58_6 1_555 1_555
O12_6 C60_6 1_555 1_555
O13_6 C54_6 1_555 1_555
O14_6 C63_6 1_555 1_555
O15_6 C65_6 1_555 1_555
O16_6 C67_6 1_555 1_555
Ag6 O14_6 1_555 1_555
Ag4 N3_6 1_555 1_555
C36_6 S3_6 1_555 1_555
C40_6 C41_6 1_555 1_555
C40_6 N3_6 1_555 1_555
C42_6 S4_6 1_555 1_555
C46_6 C47_6 1_555 1_555
C46_6 N6_4 1_555 1_555
C51_6 C54_6 1_555 1_555
C55_6 O9_6 1_555 1_555
C57_6 O10_6 1_555 1_555
C59_6 O11_6 1_555 1_555
C61_6 O12_6 1_555 1_555
C62_5 O13_6 1_555 1_555
C64_6 O14_6 1_555 1_555
C66_6 O15_6 1_555 1_555
C68_6 O16_6 1_555 1_555
C1_7 C14_7 1_555 1_555
C2_7 C3_7 1_555 1_555
C3_7 C4_7 1_555 1_555
C4_7 H1_7 1_555 1_555
C7_7 C3_7 1_555 1_555
H4_7 C7_7 1_555 1_555
C8_7 C2_7 1_555 1_555
C9_7 C8_7 1_555 1_555
C10_7 C9_7 1_555 1_555
H5_7 C10_7 1_555 1_555
C11_7 C10_7 1_555 1_555
H6_6 C11_7 1_555 1_555
C14_7 C15_7 1_555 1_555
C15_7 C16_7 1_555 1_555
C16_7 H9_7 1_555 1_555
C17_7 C16_7 1_555 1_555
C18_6 C14_7 1_555 1_555
C19_6 C18_6 1_555 1_555
H10_6 C19_6 1_555 1_555
C20_7 C17_7 1_555 1_555
C21_7 H11_7 1_555 1_555
H12_7 C21_7 1_555 1_555
C22_7 C21_7 1_555 1_555
H13_7 C22_7 1_555 1_555
H14_7 C22_7 1_555 1_555
C23_7 H15_7 1_555 1_555
H16_7 C23_7 1_555 1_555
C24_7 C23_7 1_555 1_555
H17_7 C24_7 1_555 1_555
H18_7 C24_7 1_555 1_555
C28_6 H26_7 1_555 1_555
H27_6 C28_6 1_555 1_555
C29_7 C28_6 1_555 1_555
H28_6 C29_7 1_555 1_555
H29_7 C29_7 1_555 1_555
C30_7 H30_7 1_555 1_555
H31_7 C30_7 1_555 1_555
C31_7 C30_7 1_555 1_555
H32_7 C31_7 1_555 1_555
H33_7 C31_7 1_555 1_555
C32_7 H34_7 1_555 1_555
C33_7 C32_7 1_555 1_555
H36_7 C33_7 1_555 1_555
C34_7 H38_7 1_555 1_555
H39_7 C34_7 1_555 1_555
H40_7 C34_7 1_555 1_555
S1_7 C1_7 1_555 1_555
S2_7 C1_7 1_555 1_555
O1_7 C17_7 1_555 1_555
O2_7 C22_7 1_555 1_555
O3_7 C24_7 1_555 1_555
O5_7 C20_7 1_555 1_555
O17_4 C29_7 1_555 1_555
O7_7 C31_7 1_555 1_555
O8_7 C33_7 1_555 1_555
C35_7 C48_7 1_555 1_555
C36_7 C37_7 1_555 1_555
C37_7 C38_7 1_555 1_555
C38_7 H41_7 1_555 1_555
C39_7 C38_7 1_555 1_555
H42_7 C39_7 1_555 1_555
C40_7 H43_7 1_555 1_555
C41_7 C37_7 1_555 1_555
H44_7 C41_7 1_555 1_555
C42_7 C36_7 1_555 1_555
C43_7 C42_7 1_555 1_555
C44_7 C43_7 1_555 1_555
H45_7 C44_7 1_555 1_555
C45_7 C44_7 1_555 1_555
H46_6 C45_7 1_555 1_555
C46_7 H47_7 1_555 1_555
C47_7 C43_7 1_555 1_555
H48_7 C47_7 1_555 1_555
C48_7 C49_7 1_555 1_555
C49_7 C18_6 1_555 1_555
C50_7 C49_7 1_555 1_555
H49_7 C50_7 1_555 1_555
C51_7 C50_7 1_555 1_555
C52_6 C15_7 1_555 1_555
C53_6 C20_7 1_555 1_555
H50_6 C53_6 1_555 1_555
C54_7 C19_6 1_555 1_555
C55_7 H51_7 1_555 1_555
H52_7 C55_7 1_555 1_555
C56_7 C55_7 1_555 1_555
H53_7 C56_7 1_555 1_555
H54_7 C56_7 1_555 1_555
C57_7 H55_7 1_555 1_555
H56_7 C57_7 1_555 1_555
C58_7 C57_7 1_555 1_555
H57_7 C58_7 1_555 1_555
H58_7 C58_7 1_555 1_555
C59_7 H59_7 1_555 1_555
H60_7 C59_7 1_555 1_555
C60_7 C59_7 1_555 1_555
H61_7 C60_7 1_555 1_555
H62_7 C60_7 1_555 1_555
C61_7 H63_7 1_555 1_555
H64_7 C61_7 1_555 1_555
H65_7 C61_7 1_555 1_555
N3_7 C39_7 1_555 1_555
N6_2 C45_7 1_555 1_555
S3_7 C35_7 1_555 1_555
S4_7 C35_7 1_555 1_555
O9_7 C51_7 1_555 1_555
O10_7 C56_7 1_555 1_555
O11_7 C58_7 1_555 1_555
O12_7 C60_7 1_555 1_555
O13_7 C54_7 1_555 1_555
Ag4_4 N3_7 1_555 1_555
C2_7 S1_7 1_555 1_555
C8_7 S2_7 1_555 1_555
C21_7 O1_7 1_555 1_555
C23_7 O2_7 1_555 1_555
C28_6 O5_7 1_555 1_555
C30_7 O17_4 1_555 1_555
C32_7 O7_7 1_555 1_555
C34_7 O8_7 1_555 1_555
C36_7 S3_7 1_555 1_555
C40_7 C41_7 1_555 1_555
C40_7 N3_7 1_555 1_555
C42_7 S4_7 1_555 1_555
C46_7 C47_7 1_555 1_555
C46_7 N6_2 1_555 1_555
C48_7 C52_6 1_555 1_555
C51_7 C54_7 1_555 1_555
C52_6 C53_6 1_555 1_555
C55_7 O9_7 1_555 1_555
C57_7 O10_7 1_555 1_555
C59_7 O11_7 1_555 1_555
C61_7 O12_7 1_555 1_555
C12_7 H7_7 1_555 1_555
H8_7 C13_7 1_555 1_555
C63_7 C62_6 1_555 1_555
H68_6 C63_7 1_555 1_555
H69_7 C63_7 1_555 1_555
C64_7 H70_7 1_555 1_555
H71_7 C64_7 1_555 1_555
C65_7 C64_7 1_555 1_555
H72_7 C65_7 1_555 1_555
H73_7 C65_7 1_555 1_555
C66_7 H74_7 1_555 1_555
H75_7 C66_7 1_555 1_555
C67_7 C66_7 1_555 1_555
H76_7 C67_7 1_555 1_555
H77_7 C67_7 1_555 1_555
C68_7 H78_7 1_555 1_555
H79_7 C68_7 1_555 1_555
H80_7 C68_7 1_555 1_555
O14_7 C63_7 1_555 1_555
O15_7 C65_7 1_555 1_555
O16_7 C67_7 1_555 1_555
Ag5_2 O14_7 1_555 1_555
Ag4 N2_7 1_555 1_555
C12_7 C13_7 1_555 1_555
C12_7 N2_7 1_555 1_555
C64_7 O14_7 1_555 1_555
C66_7 O15_7 1_555 1_555
C68_7 O16_7 1_555 1_555
H2_7 C5_7 1_555 1_555
C6_7 H3_7 1_555 1_555
C25_7 H19_7 1_555 1_555
H20_7 C25_7 1_555 1_555
C26_7 C25_7 1_555 1_555
H21_7 C26_7 1_555 1_555
H22_7 C26_7 1_555 1_555
C27_7 H23_7 1_555 1_555
H24_7 C27_7 1_555 1_555
H25_7 C27_7 1_555 1_555
N5_4 C5_7 1_555 1_555
O4_7 C26_7 1_555 1_555
C6_7 N5_4 1_555 1_555
C27_7 O4_7 1_555 1_555
C12_8 H7_8 1_555 1_555
H8_8 C13_8 1_555 1_555
C63_8 C62_7 1_555 1_555
H68_7 C63_8 1_555 1_555
H69_8 C63_8 1_555 1_555
C64_8 H70_8 1_555 1_555
H71_8 C64_8 1_555 1_555
C65_8 C64_8 1_555 1_555
H72_8 C65_8 1_555 1_555
H73_8 C65_8 1_555 1_555
C66_8 H74_8 1_555 1_555
C67_8 C66_8 1_555 1_555
H76_8 C67_8 1_555 1_555
C68_8 H78_8 1_555 1_555
H79_8 C68_8 1_555 1_555
H80_8 C68_8 1_555 1_555
O14_8 C63_8 1_555 1_555
O15_8 C65_8 1_555 1_555
O16_8 C67_8 1_555 1_555
Ag5 O14_8 1_555 1_555
Ag4_2 N2_8 1_555 1_555
C12_8 C13_8 1_555 1_555
C12_8 N2_8 1_555 1_555
C64_8 O14_8 1_555 1_555
C66_8 O15_8 1_555 1_555
C68_8 O16_8 1_555 1_555
C1_8 C14_8 1_555 1_555
C2_8 C3_8 1_555 1_555
C3_8 C4_8 1_555 1_555
C4_8 H1_8 1_555 1_555
C5_8 C4_8 1_555 1_555
H2_8 C5_8 1_555 1_555
C6_8 H3_8 1_555 1_555
C7_8 C3_8 1_555 1_555
H4_8 C7_8 1_555 1_555
C8_8 C2_8 1_555 1_555
C9_8 C8_8 1_555 1_555
C10_8 C9_8 1_555 1_555
H5_8 C10_8 1_555 1_555
C11_8 C10_8 1_555 1_555
H6_7 C11_8 1_555 1_555
C14_8 C15_8 1_555 1_555
C15_8 C16_8 1_555 1_555
C16_8 H9_8 1_555 1_555
C17_8 C16_8 1_555 1_555
C18_7 C14_8 1_555 1_555
C19_7 C18_7 1_555 1_555
H10_7 C19_7 1_555 1_555
C20_8 C17_8 1_555 1_555
C21_8 H11_8 1_555 1_555
H12_8 C21_8 1_555 1_555
C22_8 C21_8 1_555 1_555
H13_8 C22_8 1_555 1_555
H14_8 C22_8 1_555 1_555
C23_8 H15_8 1_555 1_555
H16_8 C23_8 1_555 1_555
C24_8 C23_8 1_555 1_555
H17_8 C24_8 1_555 1_555
H18_8 C24_8 1_555 1_555
C25_8 H19_8 1_555 1_555
H20_8 C25_8 1_555 1_555
C26_8 C25_8 1_555 1_555
H21_8 C26_8 1_555 1_555
H22_8 C26_8 1_555 1_555
C27_8 H23_8 1_555 1_555
H24_8 C27_8 1_555 1_555
H25_8 C27_8 1_555 1_555
C28_7 H26_8 1_555 1_555
H27_7 C28_7 1_555 1_555
C29_8 C28_7 1_555 1_555
H28_7 C29_8 1_555 1_555
H29_8 C29_8 1_555 1_555
C30_8 H30_8 1_555 1_555
H31_8 C30_8 1_555 1_555
C31_8 C30_8 1_555 1_555
H32_8 C31_8 1_555 1_555
H33_8 C31_8 1_555 1_555
C32_8 H34_8 1_555 1_555
H35_7 C32_8 1_555 1_555
C33_8 C32_8 1_555 1_555
H36_8 C33_8 1_555 1_555
H37_7 C33_8 1_555 1_555
C34_8 H38_8 1_555 1_555
H39_8 C34_8 1_555 1_555
H40_8 C34_8 1_555 1_555
N5_3 C5_8 1_555 1_555
S1_8 C1_8 1_555 1_555
S2_8 C1_8 1_555 1_555
O1_8 C17_8 1_555 1_555
O2_8 C22_8 1_555 1_555
O3_8 C24_8 1_555 1_555
O4_8 C26_8 1_555 1_555
O5_8 C20_8 1_555 1_555
O17_3 C29_8 1_555 1_555
O7_8 C31_8 1_555 1_555
O8_8 C33_8 1_555 1_555
C35_8 C48_8 1_555 1_555
C36_8 C37_8 1_555 1_555
C37_8 C38_8 1_555 1_555
C38_8 H41_8 1_555 1_555
C41_8 C37_8 1_555 1_555
H44_8 C41_8 1_555 1_555
C42_8 C36_8 1_555 1_555
C43_8 C42_8 1_555 1_555
C44_8 C43_8 1_555 1_555
H45_8 C44_8 1_555 1_555
C45_8 C44_8 1_555 1_555
H46_7 C45_8 1_555 1_555
C46_8 H47_8 1_555 1_555
C47_8 C43_8 1_555 1_555
H48_8 C47_8 1_555 1_555
C48_8 C49_8 1_555 1_555
C49_8 C18_7 1_555 1_555
C50_8 C49_8 1_555 1_555
H49_8 C50_8 1_555 1_555
C51_8 C50_8 1_555 1_555
C52_7 C15_8 1_555 1_555
C53_7 C20_8 1_555 1_555
H50_7 C53_7 1_555 1_555
C54_8 C19_7 1_555 1_555
C55_8 H51_8 1_555 1_555
H52_8 C55_8 1_555 1_555
C56_8 C55_8 1_555 1_555
H53_8 C56_8 1_555 1_555
H54_8 C56_8 1_555 1_555
C57_8 H55_8 1_555 1_555
H56_8 C57_8 1_555 1_555
C58_8 C57_8 1_555 1_555
H57_8 C58_8 1_555 1_555
H58_8 C58_8 1_555 1_555
N6 C45_8 1_555 1_555
S3_8 C35_8 1_555 1_555
S4_8 C35_8 1_555 1_555
O9_8 C51_8 1_555 1_555
O10_8 C56_8 1_555 1_555
O11_8 C58_8 1_555 1_555
O13_8 C54_8 1_555 1_555
C2_8 S1_8 1_555 1_555
C6_8 C7_8 1_555 1_555
C6_8 N5_3 1_555 1_555
C8_8 S2_8 1_555 1_555
C21_8 O1_8 1_555 1_555
C23_8 O2_8 1_555 1_555
C25_8 O3_8 1_555 1_555
C27_8 O4_8 1_555 1_555
C28_7 O5_8 1_555 1_555
C30_8 O17_3 1_555 1_555
C32_8 O7_8 1_555 1_555
C34_8 O8_8 1_555 1_555
C36_8 S3_8 1_555 1_555
C42_8 S4_8 1_555 1_555
C46_8 C47_8 1_555 1_555
C46_8 N6 1_555 1_555
C48_8 C52_7 1_555 1_555
C51_8 C54_8 1_555 1_555
C52_7 C53_7 1_555 1_555
C55_8 O9_8 1_555 1_555
C57_8 O10_8 1_555 1_555
H42_8 C39_8 1_555 1_555
C40_8 H43_8 1_555 1_555
C59_8 H59_8 1_555 1_555
H60_8 C59_8 1_555 1_555
C60_8 C59_8 1_555 1_555
H61_8 C60_8 1_555 1_555
H62_8 C60_8 1_555 1_555
C61_8 H63_8 1_555 1_555
H64_8 C61_8 1_555 1_555
H65_8 C61_8 1_555 1_555
N3_8 C39_8 1_555 1_555
O12_8 C60_8 1_555 1_555
Ag4_3 N3_8 1_555 1_555
C40_8 N3_8 1_555 1_555
C61_8 O12_8 1_555 1_555
C19_8 C18_8 1_555 1_555
H10_8 C19_8 1_555 1_555
H67_8 C62_8 1_555 1_555
H27_8 C28_8 1_555 1_555
H50_8 C53_8 1_555 1_555
C52_8 C53_8 1_555 1_555

#END
