
###############################################################################
#
# This file contains modified crystal structure data generated from the
# MOF subset of the Cambridge Structural Database (CSD) v543 
# hosted by the Cambridge Crystallographic Data Centre (CCDC).
#
# This work is licensed under the Creative Commons
# Attribution-NonCommercial-ShareAlike 4.0 International License.
# To view a copy of this license, visit
# http://creativecommons.org/licenses/by-nc-sa/4.0/
# or send a letter to
# Creative Commons, PO Box 1866, Mountain View, CA 94042, USA.
#
# CIF created using the CSD Python API on 29 September 2022
# The structure has been converted into the P1 space group
# The structure has a 3D framework
# The original CSD entry MISZEW is in the rhombohedral crystal system
# The framework has been calculated to contain at least 10.0% void space
# The void calculation uses a probe of radius 1.32A, grid spacing 0.4
#
###############################################################################

data_MISZEW
_chemical_formula_moiety         '(C648 H432 Cu28 N72 O136)n'
_symmetry_cell_setting           triclinic
_symmetry_space_group_name_H-M   'P 1'
_symmetry_Int_Tables_number      1
_space_group_name_Hall           'P 1'
loop_
_symmetry_equiv_pos_site_id
_symmetry_equiv_pos_as_xyz
1 x,y,z
_cell_length_a                   18.231(5)
_cell_length_b                   18.231(5)
_cell_length_c                   84.42(5)
_cell_angle_alpha                90
_cell_angle_beta                 90
_cell_angle_gamma                120
_cell_volume                     24299.5
loop_
_atom_site_label
_atom_site_type_symbol
_atom_site_fract_x
_atom_site_fract_y
_atom_site_fract_z
C1 C 0.0724(8) 0.8175(8) 0.56897(13)
H1 H 0.0138 0.7371 0.5419
Cu1 Cu 0.23843(8) 0.85057(9) 0.57021(2)
O1 O 0.1288(5) 0.8128(5) 0.56139(8)
O2 O 0.0828(5) 0.8544(5) 0.58219(8)
N3 N 0.2835(7) 0.8339(5) 0.54843(6)
Cu3 Cu 0.18390(9) 0.90510(8) 0.59646(2)
O5 O 0.1877(5) 0.7495(5) 0.58448(8)
O6 O 0.3435(6) 0.8901(5) 0.58074(7)
O7 O 0.2684(5) 0.9720(6) 0.56410(9)
C2 C 0.9828(7) 0.7813(8) 0.56178(11)
C3 C 0.9699(8) 0.7405(9) 0.54680(13)
C4 C 0.8943(9) 0.7074(10) 0.53990(15)
C5 C 0.8262(7) 0.7083(9) 0.54792(12)
H2 H 0.7730 0.6838 0.5432
C6 C 0.8387(8) 0.7465(8) 0.56305(13)
C7 C 0.9221(6) 0.7828(8) 0.56956(12)
H3 H 0.9331 0.8080 0.5795
C8 C 0.7698(8) 0.7526(8) 0.57166(13)
C9 C 0.8793(8) 0.6680(9) 0.52382(10)
C10 C 0.9440(8) 0.7045(8) 0.51268(15)
H4 H 0.9950 0.7524 0.5153
C11 C 0.9323(9) 0.6694(9) 0.49763(13)
H5 H 0.9756 0.6938 0.4902
C12 C 0.8560(10) 0.5978(9) 0.49372(10)
C13 C 0.7913(8) 0.5613(10) 0.50486(16)
H6 H 0.7403 0.5134 0.5022
C14 C 0.8030(8) 0.5964(10) 0.51991(14)
H7 H 0.7597 0.5720 0.5274
C15 C 0.8072(17) 0.4011(11) 0.4466(2)
H8 H 0.8447 0.3806 0.4495
H9 H 0.8183 0.4213 0.4359
H10 H 0.7496 0.3559 0.4475
N1 N 0.8339(5) 0.5504(5) 0.45157(6)
C16 C 0.8211(9) 0.4718(5) 0.45746(9)
C17 C 0.8273(10) 0.4775(6) 0.47423(9)
H11 H 0.8215 0.4349 0.4811
N2 N 0.8439(7) 0.5595(6) 0.47871(6)
C18 C 0.8480(7) 0.6045(4) 0.46471(8)
H12 H 0.8581 0.6598 0.4642
O3 O 0.7868(4) 0.7766(5) 0.58593(7)
O4 O 0.7036(4) 0.7316(5) 0.56410(9)
Cu2 Cu 0.61214(12) 0.76157(8) 0.57021(2)
Cu4 Cu 0.72119(12) 0.81610(9) 0.59646(2)
Cu5 Cu 0.85057(9) 0.61214(12) 0.42979(2)
C1_2 C 0.1825(8) 0.2549(11) 0.56897(13)
C2_2 C 0.2187(8) 0.2015(11) 0.56178(11)
C3_2 C 0.2595(9) 0.2294(12) 0.54680(13)
H1_2 H 0.2629 0.2767 0.5419
C4_2 C 0.2926(10) 0.1869(13) 0.53990(15)
C5_2 C 0.2917(9) 0.1179(11) 0.54792(12)
H2_2 H 0.3162 0.0892 0.5432
C6_2 C 0.2535(8) 0.0922(11) 0.56305(13)
C7_2 C 0.2172(8) 0.1393(10) 0.56956(12)
H3_2 H 0.1920 0.1251 0.5795
C8_2 C 0.2474(8) 0.0172(11) 0.57166(13)
C9_2 C 0.3320(9) 0.2113(12) 0.52382(10)
C10_2 C 0.2955(8) 0.2395(11) 0.51268(15)
H4_2 H 0.2476 0.2426 0.5153
C11_2 C 0.3306(9) 0.2629(13) 0.49763(13)
H5_2 H 0.3062 0.2818 0.4902
C12_2 C 0.4022(9) 0.2582(13) 0.49372(10)
C13_2 C 0.4387(10) 0.2300(13) 0.50486(16)
H6_2 H 0.4866 0.2269 0.5022
C14_2 C 0.4036(10) 0.2066(13) 0.51991(14)
H7_2 H 0.4280 0.1877 0.5274
C15_2 C 0.5989(11) 0.4061(20) 0.4466(2)
H8_2 H 0.6194 0.4641 0.4495
H9_2 H 0.5787 0.3970 0.4359
H10_2 H 0.6441 0.3937 0.4475
N1_2 N 0.4496(5) 0.2835(7) 0.45157(6)
C16_2 C 0.5282(5) 0.3493(10) 0.45746(9)
C17_2 C 0.5225(6) 0.3498(12) 0.47423(9)
H11_2 H 0.5651 0.3866 0.4811
N2_2 N 0.4405(6) 0.2844(9) 0.47871(6)
C18_2 C 0.3955(4) 0.2435(8) 0.46471(8)
H12_2 H 0.3402 0.1983 0.4642
Cu1_2 Cu 0.14943(9) 0.38786(12) 0.57021(2)
O1_2 O 0.1872(5) 0.3160(7) 0.56139(8)
O2_2 O 0.1456(5) 0.2284(7) 0.58219(8)
O3_2 O 0.2234(5) 0.0102(6) 0.58593(7)
N3_2 N 0.1661(5) 0.4496(9) 0.54843(6)
Cu3_2 Cu 0.09490(8) 0.27881(12) 0.59646(2)
Cu5_2 Cu 0.38786(12) 0.23843(15) 0.42979(2)
O5_2 O 0.2505(5) 0.4383(7) 0.58448(8)
O6_2 O 0.1099(5) 0.4535(8) 0.58074(7)
O7_2 O 0.0280(6) 0.2964(8) 0.56410(9)
C2_3 C 0.7985(11) 0.0172(7) 0.56178(11)
C3_3 C 0.7706(12) 0.0301(8) 0.54680(13)
C4_3 C 0.8131(13) 0.1057(9) 0.53990(15)
C5_3 C 0.8821(11) 0.1738(7) 0.54792(12)
H2_3 H 0.9108 0.2270 0.5432
C6_3 C 0.9078(11) 0.1613(8) 0.56305(13)
C7_3 C 0.8607(10) 0.0779(6) 0.56956(12)
H3_3 H 0.8749 0.0669 0.5795
C8_3 C 0.9828(11) 0.2302(8) 0.57166(13)
C9_3 C 0.7887(12) 0.1207(8) 0.52382(10)
C10_3 C 0.7605(11) 0.0560(8) 0.51268(15)
H4_3 H 0.7574 0.0050 0.5153
C11_3 C 0.7371(13) 0.0677(9) 0.49763(13)
H5_3 H 0.7182 0.0244 0.4902
C12_3 C 0.7418(13) 0.1440(10) 0.49372(10)
C13_3 C 0.7700(13) 0.2087(8) 0.50486(16)
H6_3 H 0.7731 0.2597 0.5022
C14_3 C 0.7934(13) 0.1970(8) 0.51991(14)
H7_3 H 0.8123 0.2403 0.5274
C15_3 C 0.5939(20) 0.1928(17) 0.4466(2)
H8_3 H 0.5359 0.1553 0.4495
H9_3 H 0.6030 0.1817 0.4359
H10_3 H 0.6063 0.2504 0.4475
N1_3 N 0.7165(7) 0.1661(5) 0.45157(6)
C16_3 C 0.6507(10) 0.1789(9) 0.45746(9)
C17_3 C 0.6502(12) 0.1727(10) 0.47423(9)
H11_3 H 0.6134 0.1785 0.4811
N2_3 N 0.7156(9) 0.1561(7) 0.47871(6)
C18_3 C 0.7565(8) 0.1520(7) 0.46471(8)
H12_3 H 0.8017 0.1419 0.4642
O3_3 O 0.9898(6) 0.2132(4) 0.58593(7)
Cu5_3 Cu 0.76157(15) 0.14943(9) 0.42979(2)
C1_3 C 0.7451(11) 0.9276(8) 0.56897(13)
H1_3 H 0.7233 0.9862 0.5419
O1_3 O 0.6840(7) 0.8712(5) 0.56139(8)
O2_3 O 0.7716(7) 0.9172(5) 0.58219(8)
N3_3 N 0.5504(9) 0.7165(7) 0.54843(6)
O5_3 O 0.5617(7) 0.8123(5) 0.58448(8)
O6_3 O 0.5465(8) 0.6565(6) 0.58074(7)
C1_4 C 0.8175(8) 0.0724(8) 0.93103(13)
H1_4 H 0.7371 0.0138 0.9581
Cu1_3 Cu 0.85057(9) 0.23843(8) 0.92979(2)
O1_4 O 0.8128(5) 0.1288(5) 0.93861(8)
O2_4 O 0.8544(5) 0.0828(5) 0.91781(8)
N3_4 N 0.8339(5) 0.2835(7) 0.95157(6)
Cu3_3 Cu 0.90510(8) 0.18390(9) 0.90354(2)
O5_4 O 0.7495(5) 0.1877(5) 0.91552(8)
O6_4 O 0.8901(5) 0.3435(6) 0.91926(7)
O7_3 O 0.9720(6) 0.2684(5) 0.93590(9)
C11_4 C 0.6694(9) 0.9323(9) 0.00237(13)
H5_4 H 0.6938 0.9756 0.0098
C12_4 C 0.5978(9) 0.8560(10) 0.00628(10)
C15_4 C 0.4011(11) 0.8072(17) 0.0534(2)
H8_4 H 0.3806 0.8447 0.0505
H9_4 H 0.4213 0.8183 0.0641
H10_4 H 0.3559 0.7496 0.0525
N1_4 N 0.5504(5) 0.8339(5) 0.04843(6)
C16_4 C 0.4718(5) 0.8211(9) 0.04254(9)
C17_4 C 0.4775(6) 0.8273(10) 0.02577(9)
H11_4 H 0.4349 0.8215 0.0189
N2_4 N 0.5595(6) 0.8439(7) 0.02129(6)
C18_4 C 0.6045(4) 0.8480(7) 0.03529(8)
H12_4 H 0.6598 0.8581 0.0358
Cu5_4 Cu 0.61214(12) 0.85057(9) 0.07021(2)
C2_4 C 0.7813(8) 0.9828(7) 0.93822(11)
C3_4 C 0.7405(9) 0.9699(8) 0.95320(13)
C4_4 C 0.7074(10) 0.8943(9) 0.96010(15)
C5_4 C 0.7083(9) 0.8262(7) 0.95208(12)
H2_4 H 0.6838 0.7730 0.9568
C6_4 C 0.7465(8) 0.8387(8) 0.93695(13)
C7_4 C 0.7828(8) 0.9221(6) 0.93044(12)
H3_4 H 0.8080 0.9331 0.9205
C8_4 C 0.7526(8) 0.7698(8) 0.92834(13)
C9_4 C 0.6680(9) 0.8793(8) 0.97618(10)
C10_4 C 0.7045(8) 0.9440(8) 0.98732(15)
H4_4 H 0.7524 0.9950 0.9847
C13_4 C 0.5613(10) 0.7913(8) 0.99514(16)
H6_4 H 0.5134 0.7403 0.9978
C14_4 C 0.5964(10) 0.8030(8) 0.98009(14)
H7_4 H 0.5720 0.7597 0.9726
O3_4 O 0.7766(5) 0.7868(4) 0.91407(7)
O4_2 O 0.7316(5) 0.7036(4) 0.93590(9)
Cu2_2 Cu 0.76157(8) 0.61214(12) 0.92979(2)
Cu4_2 Cu 0.81610(9) 0.72119(12) 0.90354(2)
C11_5 C 0.2629(13) 0.3306(9) 0.00237(13)
H5_5 H 0.2818 0.3062 0.0098
C12_5 C 0.2582(13) 0.4022(9) 0.00628(10)
C15_5 C 0.4061(20) 0.5989(11) 0.0534(2)
H8_5 H 0.4641 0.6194 0.0505
H9_5 H 0.3970 0.5787 0.0641
H10_5 H 0.3937 0.6441 0.0525
N1_5 N 0.2835(7) 0.4496(5) 0.04843(6)
C16_5 C 0.3493(10) 0.5282(5) 0.04254(9)
C17_5 C 0.3498(12) 0.5225(6) 0.02577(9)
H11_5 H 0.3866 0.5651 0.0189
N2_5 N 0.2844(9) 0.4405(6) 0.02129(6)
C18_5 C 0.2435(8) 0.3955(4) 0.03529(8)
H12_5 H 0.1983 0.3402 0.0358
Cu5_5 Cu 0.23843(15) 0.38786(12) 0.07021(2)
C1_5 C 0.2549(11) 0.1825(8) 0.93103(13)
C2_5 C 0.2015(11) 0.2187(8) 0.93822(11)
C3_5 C 0.2294(12) 0.2595(9) 0.95320(13)
H1_5 H 0.2767 0.2629 0.9581
C4_5 C 0.1869(13) 0.2926(10) 0.96010(15)
C5_5 C 0.1179(11) 0.2917(9) 0.95208(12)
H2_5 H 0.0892 0.3162 0.9568
C6_5 C 0.0922(11) 0.2535(8) 0.93695(13)
C7_5 C 0.1393(10) 0.2172(8) 0.93044(12)
H3_5 H 0.1251 0.1920 0.9205
C8_5 C 0.0172(11) 0.2474(8) 0.92834(13)
C9_5 C 0.2113(12) 0.3320(9) 0.97618(10)
C10_5 C 0.2395(11) 0.2955(8) 0.98732(15)
H4_5 H 0.2426 0.2476 0.9847
C13_5 C 0.2300(13) 0.4387(10) 0.99514(16)
H6_5 H 0.2269 0.4866 0.9978
C14_5 C 0.2066(13) 0.4036(10) 0.98009(14)
H7_5 H 0.1877 0.4280 0.9726
Cu1_4 Cu 0.38786(12) 0.14943(9) 0.92979(2)
O1_5 O 0.3160(7) 0.1872(5) 0.93861(8)
O2_5 O 0.2284(7) 0.1456(5) 0.91781(8)
O3_5 O 0.0102(6) 0.2234(5) 0.91407(7)
N3_5 N 0.4496(9) 0.1661(5) 0.95157(6)
Cu3_4 Cu 0.27881(12) 0.09490(8) 0.90354(2)
O5_5 O 0.4383(7) 0.2505(5) 0.91552(8)
O6_5 O 0.4535(8) 0.1099(5) 0.91926(7)
O7_4 O 0.2964(8) 0.0280(6) 0.93590(9)
C11_6 C 0.0677(9) 0.7371(13) 0.00237(13)
H5_6 H 0.0244 0.7182 0.0098
C12_6 C 0.1440(10) 0.7418(13) 0.00628(10)
C15_6 C 0.1928(17) 0.5939(20) 0.0534(2)
H8_6 H 0.1553 0.5359 0.0505
H9_6 H 0.1817 0.6030 0.0641
H10_6 H 0.2504 0.6063 0.0525
N1_6 N 0.1661(5) 0.7165(7) 0.04843(6)
C16_6 C 0.1789(9) 0.6507(10) 0.04254(9)
C17_6 C 0.1727(10) 0.6502(12) 0.02577(9)
H11_6 H 0.1785 0.6134 0.0189
N2_6 N 0.1561(7) 0.7156(9) 0.02129(6)
C18_6 C 0.1520(7) 0.7565(8) 0.03529(8)
H12_6 H 0.1419 0.8017 0.0358
Cu5_6 Cu 0.14943(9) 0.76157(15) 0.07021(2)
C1_6 C 0.9276(8) 0.7451(11) 0.93103(13)
H1_6 H 0.9862 0.7233 0.9581
O1_6 O 0.8712(5) 0.6840(7) 0.93861(8)
O2_6 O 0.9172(5) 0.7716(7) 0.91781(8)
N3_6 N 0.7165(7) 0.5504(9) 0.95157(6)
O5_6 O 0.8123(5) 0.5617(7) 0.91552(8)
O6_6 O 0.6565(6) 0.5465(8) 0.91926(7)
C1_7 C 0.7391(8) 0.1508(8) 0.90230(13)
C2_6 C 0.6495(7) 0.1146(8) 0.89511(11)
C3_6 C 0.6366(8) 0.0738(9) 0.88013(13)
H1_7 H 0.6805 0.0704 0.8752
C4_6 C 0.5610(9) 0.0407(10) 0.87323(15)
C5_6 C 0.4929(7) 0.0416(9) 0.88125(12)
H2_6 H 0.4397 0.0171 0.8765
C6_6 C 0.5054(8) 0.0798(8) 0.89638(13)
C7_6 C 0.5888(6) 0.1161(8) 0.90289(12)
H3_6 H 0.5998 0.1413 0.9128
C8_6 C 0.4365(8) 0.0859(8) 0.90499(13)
C9_6 C 0.5460(8) 0.0013(9) 0.85715(10)
C10_6 C 0.6107(8) 0.0378(8) 0.84601(15)
H4_6 H 0.6617 0.0857 0.8486
C11_7 C 0.5990(9) 0.0027(9) 0.83096(13)
H5_7 H 0.6423 0.0271 0.8235
O1_7 O 0.7955(5) 0.1461(5) 0.89472(8)
O4_3 O 0.3703(4) 0.0649(5) 0.89743(9)
N3_7 N 0.9502(7) 0.1672(5) 0.88176(6)
O7_5 O 0.9351(5) 0.3053(6) 0.89743(9)
C12_7 C 0.5227(10) 0.9311(9) 0.82705(10)
C13_6 C 0.4580(8) 0.8946(10) 0.83819(16)
H6_6 H 0.4070 0.8467 0.8355
C14_6 C 0.4697(8) 0.9297(10) 0.85324(14)
H7_6 H 0.4264 0.9053 0.8607
C15_7 C 0.4739(17) 0.7344(11) 0.7799(2)
H8_7 H 0.5114 0.7139 0.7828
H9_7 H 0.4850 0.7546 0.7692
H10_7 H 0.4163 0.6892 0.7808
N1_7 N 0.5006(5) 0.8837(5) 0.78490(6)
C16_7 C 0.4878(9) 0.8051(5) 0.79079(9)
C17_7 C 0.4940(10) 0.8108(6) 0.80756(9)
H11_7 H 0.4882 0.7682 0.8144
N2_7 N 0.5106(7) 0.8928(6) 0.81204(6)
C18_7 C 0.5147(7) 0.9378(4) 0.79804(8)
H12_7 H 0.5248 0.9931 0.7975
Cu5_7 Cu 0.51724(9) 0.94547(12) 0.76312(2)
C12_8 C 0.0689(9) 0.5915(13) 0.82705(10)
C13_7 C 0.1054(10) 0.5633(13) 0.83819(16)
H6_7 H 0.1533 0.5602 0.8355
C14_7 C 0.0703(10) 0.5399(13) 0.85324(14)
H7_7 H 0.0947 0.5210 0.8607
C15_8 C 0.2656(11) 0.7394(20) 0.7799(2)
H8_8 H 0.2861 0.7974 0.7828
H9_8 H 0.2454 0.7303 0.7692
H10_8 H 0.3108 0.7270 0.7808
N1_8 N 0.1163(5) 0.6168(7) 0.78490(6)
C16_8 C 0.1949(5) 0.6826(10) 0.79079(9)
C17_8 C 0.1892(6) 0.6831(12) 0.80756(9)
H11_8 H 0.2318 0.7199 0.8144
N2_8 N 0.1072(6) 0.6177(9) 0.81204(6)
C18_8 C 0.0622(4) 0.5768(8) 0.79804(8)
H12_8 H 0.0069 0.5316 0.7975
Cu5_8 Cu 0.05453(12) 0.57176(15) 0.76312(2)
C1_8 C 0.8492(8) 0.5882(11) 0.90230(13)
C2_7 C 0.8854(8) 0.5348(11) 0.89511(11)
C3_7 C 0.9262(9) 0.5627(12) 0.88013(13)
H1_8 H 0.9296 0.6100 0.8752
C4_7 C 0.9593(10) 0.5202(13) 0.87323(15)
C5_7 C 0.9584(9) 0.4512(11) 0.88125(12)
H2_7 H 0.9829 0.4225 0.8765
C6_7 C 0.9202(8) 0.4255(11) 0.89638(13)
C7_7 C 0.8839(8) 0.4726(10) 0.90289(12)
H3_7 H 0.8587 0.4584 0.9128
C8_7 C 0.9141(8) 0.3505(11) 0.90499(13)
C9_7 C 0.9987(9) 0.5446(12) 0.85715(10)
C10_7 C 0.9622(8) 0.5728(11) 0.84601(15)
H4_7 H 0.9143 0.5759 0.8486
C11_8 C 0.9973(9) 0.5962(13) 0.83096(13)
H5_8 H 0.9729 0.6151 0.8235
O1_8 O 0.8539(5) 0.6493(7) 0.89472(8)
N3_8 N 0.8328(5) 0.7829(9) 0.88176(6)
O7_6 O 0.6947(6) 0.6297(8) 0.89743(9)
C1_9 C 0.4118(11) 0.2609(8) 0.90230(13)
C2_8 C 0.4652(11) 0.3505(7) 0.89511(11)
C3_8 C 0.4373(12) 0.3634(8) 0.88013(13)
H1_9 H 0.3900 0.3195 0.8752
C4_8 C 0.4798(13) 0.4390(9) 0.87323(15)
C5_8 C 0.5488(11) 0.5071(7) 0.88125(12)
H2_8 H 0.5775 0.5603 0.8765
C6_8 C 0.5745(11) 0.4946(8) 0.89638(13)
C7_8 C 0.5274(10) 0.4112(6) 0.90289(12)
H3_8 H 0.5416 0.4002 0.9128
C8_8 C 0.6495(11) 0.5635(8) 0.90499(13)
C9_8 C 0.4554(12) 0.4540(8) 0.85715(10)
C10_8 C 0.4272(11) 0.3893(8) 0.84601(15)
H4_8 H 0.4241 0.3383 0.8486
C11_9 C 0.4038(13) 0.4010(9) 0.83096(13)
H5_9 H 0.3849 0.3577 0.8235
C12_9 C 0.4085(13) 0.4773(10) 0.82705(10)
C13_8 C 0.4367(13) 0.5420(8) 0.83819(16)
H6_8 H 0.4398 0.5930 0.8355
C14_8 C 0.4601(13) 0.5303(8) 0.85324(14)
H7_8 H 0.4790 0.5736 0.8607
C15_9 C 0.2606(20) 0.5261(17) 0.7799(2)
H8_9 H 0.2026 0.4886 0.7828
H9_9 H 0.2697 0.5150 0.7692
H10_9 H 0.2730 0.5837 0.7808
N1_9 N 0.3832(7) 0.4994(5) 0.78490(6)
C16_9 C 0.3174(10) 0.5122(9) 0.79079(9)
C17_9 C 0.3169(12) 0.5060(10) 0.80756(9)
H11_9 H 0.2801 0.5118 0.8144
N2_9 N 0.3823(9) 0.4894(7) 0.81204(6)
C18_9 C 0.4232(8) 0.4853(7) 0.79804(8)
H12_9 H 0.4684 0.4752 0.7975
O1_9 O 0.3507(7) 0.2045(5) 0.89472(8)
N3_9 N 0.2171(9) 0.0498(7) 0.88176(6)
Cu5_9 Cu 0.42824(15) 0.48276(9) 0.76312(2)
C1_10 C 0.4842(8) 0.4057(8) 0.26436(13)
C2_9 C 0.4480(8) 0.3161(7) 0.27155(11)
C3_9 C 0.4072(9) 0.3032(8) 0.28653(13)
H1_10 H 0.4038 0.3471 0.2914
C4_9 C 0.3741(10) 0.2276(9) 0.29343(15)
C5_9 C 0.3750(9) 0.1595(7) 0.28541(12)
H2_9 H 0.3505 0.1063 0.2901
C6_9 C 0.4132(8) 0.1720(8) 0.27028(13)
C7_9 C 0.4495(8) 0.2554(6) 0.26377(12)
H3_9 H 0.4747 0.2664 0.2538
C8_9 C 0.4193(8) 0.1031(8) 0.26167(13)
C9_9 C 0.3347(9) 0.2126(8) 0.30951(10)
C10_9 C 0.3712(8) 0.2773(8) 0.32065(15)
H4_9 H 0.4191 0.3283 0.3180
C11_10 C 0.3361(9) 0.2656(9) 0.33570(13)
H5_10 H 0.3605 0.3089 0.3431
C12_10 C 0.2645(9) 0.1893(10) 0.33961(10)
C13_9 C 0.2280(10) 0.1246(8) 0.32847(16)
H6_9 H 0.1801 0.0736 0.3311
C14_9 C 0.2631(10) 0.1363(8) 0.31342(14)
H7_9 H 0.2387 0.0930 0.3059
C15_10 C 0.0678(11) 0.1405(17) 0.3867(2)
H8_10 H 0.0473 0.1780 0.3838
H9_10 H 0.0880 0.1516 0.3974
H10_10 H 0.0226 0.0829 0.3858
N1_10 N 0.2171(5) 0.1672(5) 0.38176(6)
C16_10 C 0.1385(5) 0.1544(9) 0.37587(9)
C17_10 C 0.1442(6) 0.1606(10) 0.35910(9)
H11_10 H 0.1016 0.1548 0.3522
N2_10 N 0.2262(6) 0.1772(7) 0.35462(6)
C18_10 C 0.2712(4) 0.1813(7) 0.36862(8)
H12_10 H 0.3265 0.1914 0.3691
Cu1_5 Cu 0.51724(9) 0.57176(8) 0.26312(2)
O1_10 O 0.4795(5) 0.4621(5) 0.27194(8)
O2_7 O 0.5211(5) 0.4161(5) 0.25114(8)
O3_6 O 0.4433(5) 0.1201(4) 0.24740(7)
O4_4 O 0.3983(5) 0.0369(4) 0.26923(9)
N3_10 N 0.5006(5) 0.6168(7) 0.28490(6)
Cu3_5 Cu 0.57176(8) 0.51724(9) 0.23688(2)
Cu4_3 Cu 0.48276(9) 0.05453(12) 0.23688(2)
Cu5_10 Cu 0.27881(12) 0.18390(9) 0.40354(2)
O5_7 O 0.4161(5) 0.5211(5) 0.24886(8)
O6_7 O 0.5567(5) 0.6769(6) 0.25260(7)
O7_7 O 0.6387(6) 0.6017(5) 0.26923(9)
Cu2_3 Cu 0.42824(8) 0.94547(12) 0.26312(2)
C15_11 C 0.0728(20) 0.9322(11) 0.3867(2)
H8_11 H 0.1308 0.9527 0.3838
H9_11 H 0.0637 0.9120 0.3974
H10_11 H 0.0604 0.9774 0.3858
C16_11 C 0.0160(10) 0.8615(5) 0.37587(9)
C17_11 C 0.0165(12) 0.8558(6) 0.35910(9)
H11_11 H 0.0533 0.8984 0.3522
Cu1_6 Cu 0.05453(12) 0.48276(9) 0.26312(2)
N3_11 N 0.1163(9) 0.4994(5) 0.28490(6)
O5_8 O 0.1049(7) 0.5839(5) 0.24886(8)
O6_8 O 0.1201(8) 0.4433(5) 0.25260(7)
C1_11 C 0.9216(11) 0.5158(8) 0.26436(13)
C2_10 C 0.8682(11) 0.5520(8) 0.27155(11)
C3_10 C 0.8961(12) 0.5928(9) 0.28653(13)
H1_11 H 0.9434 0.5962 0.2914
C4_10 C 0.8536(13) 0.6259(10) 0.29343(15)
C5_10 C 0.7846(11) 0.6250(9) 0.28541(12)
H2_10 H 0.7559 0.6495 0.2901
C6_10 C 0.7589(11) 0.5868(8) 0.27028(13)
C7_10 C 0.8060(10) 0.5505(8) 0.26377(12)
H3_10 H 0.7918 0.5253 0.2538
C8_10 C 0.6839(11) 0.5807(8) 0.26167(13)
C9_10 C 0.8780(12) 0.6653(9) 0.30951(10)
C10_10 C 0.9062(11) 0.6288(8) 0.32065(15)
H4_10 H 0.9093 0.5809 0.3180
C11_11 C 0.9296(13) 0.6639(9) 0.33570(13)
H5_11 H 0.9485 0.6395 0.3431
C12_11 C 0.9249(13) 0.7355(9) 0.33961(10)
C13_10 C 0.8967(13) 0.7720(10) 0.32847(16)
H6_10 H 0.8936 0.8199 0.3311
C14_10 C 0.8733(13) 0.7369(10) 0.31342(14)
H7_10 H 0.8544 0.7613 0.3059
N1_11 N 0.9502(7) 0.7829(5) 0.38176(6)
N2_11 N 0.9511(9) 0.7738(6) 0.35462(6)
C18_11 C 0.9102(8) 0.7288(4) 0.36862(8)
H12_11 H 0.8650 0.6735 0.3691
O1_11 O 0.9827(7) 0.5205(5) 0.27194(8)
O2_8 O 0.8951(7) 0.4789(5) 0.25114(8)
O3_7 O 0.6769(6) 0.5567(5) 0.24740(7)
Cu3_6 Cu 0.94547(12) 0.42824(8) 0.23688(2)
Cu5_11 Cu 0.90510(15) 0.72119(12) 0.40354(2)
O7_8 O 0.9631(8) 0.3613(6) 0.26923(9)
C1_12 C 0.5943(8) 0.0784(11) 0.26436(13)
C2_11 C 0.6839(7) 0.1318(11) 0.27155(11)
C3_11 C 0.6968(8) 0.1039(12) 0.28653(13)
H1_12 H 0.6529 0.0566 0.2914
C4_11 C 0.7724(9) 0.1464(13) 0.29343(15)
C5_11 C 0.8405(7) 0.2154(11) 0.28541(12)
H2_11 H 0.8937 0.2441 0.2901
C6_11 C 0.8280(8) 0.2411(11) 0.27028(13)
C7_11 C 0.7446(6) 0.1940(10) 0.26377(12)
H3_11 H 0.7336 0.2082 0.2538
C8_11 C 0.8969(8) 0.3161(11) 0.26167(13)
C9_11 C 0.7874(8) 0.1220(12) 0.30951(10)
C10_11 C 0.7227(8) 0.0938(11) 0.32065(15)
H4_11 H 0.6717 0.0907 0.3180
C11_12 C 0.7344(9) 0.0704(13) 0.33570(13)
H5_12 H 0.6911 0.0515 0.3431
C12_12 C 0.8107(10) 0.0751(13) 0.33961(10)
C13_11 C 0.8754(8) 0.1033(13) 0.32847(16)
H6_11 H 0.9264 0.1064 0.3311
C14_11 C 0.8637(8) 0.1267(13) 0.31342(14)
H7_11 H 0.9070 0.1456 0.3059
N1_12 N 0.8328(5) 0.0498(7) 0.38176(6)
N2_12 N 0.8228(7) 0.0489(9) 0.35462(6)
C18_12 C 0.8187(7) 0.0898(8) 0.36862(8)
H12_12 H 0.8086 0.1350 0.3691
O1_12 O 0.5379(5) 0.0173(7) 0.27194(8)
O2_9 O 0.5839(5) 0.1049(7) 0.25114(8)
O3_8 O 0.8799(4) 0.3231(6) 0.24740(7)
Cu5_12 Cu 0.81610(9) 0.09490(15) 0.40354(2)
C15_12 C 0.8595(17) 0.9272(20) 0.3867(2)
H8_12 H 0.8220 0.8692 0.3838
H9_12 H 0.8484 0.9363 0.3974
H10_12 H 0.9171 0.9396 0.3858
C16_12 C 0.8456(9) 0.9840(10) 0.37587(9)
C17_12 C 0.8394(10) 0.9835(12) 0.35910(9)
H11_12 H 0.8452 0.9467 0.3522
N3_12 N 0.3832(7) 0.8837(9) 0.28490(6)
O5_9 O 0.4789(5) 0.8951(7) 0.24886(8)
O6_9 O 0.3231(6) 0.8799(8) 0.25260(7)
C1_13 C 0.4057(8) 0.4842(8) 0.23564(13)
C2_12 C 0.3161(7) 0.4480(8) 0.22845(11)
C3_12 C 0.3032(8) 0.4072(9) 0.21347(13)
H1_13 H 0.3471 0.4038 0.2086
C4_12 C 0.2276(9) 0.3741(10) 0.20657(15)
C5_12 C 0.1595(7) 0.3750(9) 0.21459(12)
H2_12 H 0.1063 0.3505 0.2099
C6_12 C 0.1720(8) 0.4132(8) 0.22972(13)
C7_12 C 0.2554(6) 0.4495(8) 0.23623(12)
H3_12 H 0.2664 0.4747 0.2462
C8_12 C 0.1031(8) 0.4193(8) 0.23833(13)
C9_12 C 0.2126(8) 0.3347(9) 0.19049(10)
C10_12 C 0.2773(8) 0.3712(8) 0.17935(15)
H4_12 H 0.3283 0.4191 0.1820
C11_13 C 0.2656(9) 0.3361(9) 0.16430(13)
H5_13 H 0.3089 0.3605 0.1569
C12_13 C 0.1893(10) 0.2645(9) 0.16039(10)
C13_12 C 0.1246(8) 0.2280(10) 0.17153(16)
H6_12 H 0.0736 0.1801 0.1689
C14_12 C 0.1363(8) 0.2631(10) 0.18658(14)
H7_12 H 0.0930 0.2387 0.1941
C15_13 C 0.1405(17) 0.0678(11) 0.1133(2)
H8_13 H 0.1780 0.0473 0.1162
H9_13 H 0.1516 0.0880 0.1026
H10_13 H 0.0829 0.0226 0.1142
N1_13 N 0.1672(5) 0.2171(5) 0.11824(6)
C16_13 C 0.1544(9) 0.1385(5) 0.12413(9)
C17_13 C 0.1606(10) 0.1442(6) 0.14090(9)
H11_13 H 0.1548 0.1016 0.1478
N2_13 N 0.1772(7) 0.2262(6) 0.14538(6)
C18_13 C 0.1813(7) 0.2712(4) 0.13138(8)
H12_13 H 0.1914 0.3265 0.1309
O1_13 O 0.4621(5) 0.4795(5) 0.22806(8)
O4_5 O 0.0369(4) 0.3983(5) 0.23077(9)
N3_13 N 0.6168(7) 0.5006(5) 0.21510(6)
Cu5_13 Cu 0.18390(9) 0.27881(12) 0.09646(2)
O7_9 O 0.6017(5) 0.6387(6) 0.23077(9)
C15_14 C 0.9322(11) 0.0728(20) 0.1133(2)
H8_14 H 0.9527 0.1308 0.1162
H9_14 H 0.9120 0.0637 0.1026
H10_14 H 0.9774 0.0604 0.1142
C16_14 C 0.8615(5) 0.0160(10) 0.12413(9)
C17_14 C 0.8558(6) 0.0165(12) 0.14090(9)
H11_14 H 0.8984 0.0533 0.1478
N3_14 N 0.4994(5) 0.1163(9) 0.21510(6)
C1_14 C 0.5158(8) 0.9216(11) 0.23564(13)
C2_13 C 0.5520(8) 0.8682(11) 0.22845(11)
C3_13 C 0.5928(9) 0.8961(12) 0.21347(13)
H1_14 H 0.5962 0.9434 0.2086
C4_13 C 0.6259(10) 0.8536(13) 0.20657(15)
C5_13 C 0.6250(9) 0.7846(11) 0.21459(12)
H2_13 H 0.6495 0.7559 0.2099
C6_13 C 0.5868(8) 0.7589(11) 0.22972(13)
C7_13 C 0.5505(8) 0.8060(10) 0.23623(12)
H3_13 H 0.5253 0.7918 0.2462
C8_13 C 0.5807(8) 0.6839(11) 0.23833(13)
C9_13 C 0.6653(9) 0.8780(12) 0.19049(10)
C10_13 C 0.6288(8) 0.9062(11) 0.17935(15)
H4_13 H 0.5809 0.9093 0.1820
C11_14 C 0.6639(9) 0.9296(13) 0.16430(13)
H5_14 H 0.6395 0.9485 0.1569
C12_14 C 0.7355(9) 0.9249(13) 0.16039(10)
C13_13 C 0.7720(10) 0.8967(13) 0.17153(16)
H6_13 H 0.8199 0.8936 0.1689
C14_13 C 0.7369(10) 0.8733(13) 0.18658(14)
H7_13 H 0.7613 0.8544 0.1941
N1_14 N 0.7829(5) 0.9502(7) 0.11824(6)
N2_14 N 0.7738(6) 0.9511(9) 0.14538(6)
C18_14 C 0.7288(4) 0.9102(8) 0.13138(8)
H12_14 H 0.6735 0.8650 0.1309
O1_14 O 0.5205(5) 0.9827(7) 0.22806(8)
Cu5_14 Cu 0.72119(12) 0.90510(15) 0.09646(2)
O7_10 O 0.3613(6) 0.9631(8) 0.23077(9)
C1_15 C 0.0784(11) 0.5943(8) 0.23564(13)
C2_14 C 0.1318(11) 0.6839(7) 0.22845(11)
C3_14 C 0.1039(12) 0.6968(8) 0.21347(13)
H1_15 H 0.0566 0.6529 0.2086
C4_14 C 0.1464(13) 0.7724(9) 0.20657(15)
C5_14 C 0.2154(11) 0.8405(7) 0.21459(12)
H2_14 H 0.2441 0.8937 0.2099
C6_14 C 0.2411(11) 0.8280(8) 0.22972(13)
C7_14 C 0.1940(10) 0.7446(6) 0.23623(12)
H3_14 H 0.2082 0.7336 0.2462
C8_14 C 0.3161(11) 0.8969(8) 0.23833(13)
C9_14 C 0.1220(12) 0.7874(8) 0.19049(10)
C10_14 C 0.0938(11) 0.7227(8) 0.17935(15)
H4_14 H 0.0907 0.6717 0.1820
C11_15 C 0.0704(13) 0.7344(9) 0.16430(13)
H5_15 H 0.0515 0.6911 0.1569
C12_15 C 0.0751(13) 0.8107(10) 0.16039(10)
C13_14 C 0.1033(13) 0.8754(8) 0.17153(16)
H6_14 H 0.1064 0.9264 0.1689
C14_14 C 0.1267(13) 0.8637(8) 0.18658(14)
H7_14 H 0.1456 0.9070 0.1941
N1_15 N 0.0498(7) 0.8328(5) 0.11824(6)
N2_15 N 0.0489(9) 0.8228(7) 0.14538(6)
C18_15 C 0.0898(8) 0.8187(7) 0.13138(8)
H12_15 H 0.1350 0.8086 0.1309
O1_15 O 0.0173(7) 0.5379(5) 0.22806(8)
Cu5_15 Cu 0.09490(15) 0.81610(9) 0.09646(2)
C15_15 C 0.9272(20) 0.8595(17) 0.1133(2)
H8_15 H 0.8692 0.8220 0.1162
H9_15 H 0.9363 0.8484 0.1026
H10_15 H 0.9396 0.9171 0.1142
C16_15 C 0.9840(10) 0.8456(9) 0.12413(9)
C17_15 C 0.9835(12) 0.8394(10) 0.14090(9)
H11_15 H 0.9467 0.8452 0.1478
N3_15 N 0.8837(9) 0.3832(7) 0.21510(6)
C1_16 C 0.1508(8) 0.7391(8) 0.59770(13)
C2_15 C 0.1146(8) 0.6495(7) 0.60489(11)
C3_15 C 0.0738(9) 0.6366(8) 0.61987(13)
H1_16 H 0.0704 0.6805 0.6248
C4_15 C 0.0407(10) 0.5610(9) 0.62677(15)
C5_15 C 0.0416(9) 0.4929(7) 0.61875(12)
H2_15 H 0.0171 0.4397 0.6235
C6_15 C 0.0798(8) 0.5054(8) 0.60362(13)
C7_15 C 0.1161(8) 0.5888(6) 0.59711(12)
H3_15 H 0.1413 0.5998 0.5872
C8_15 C 0.0859(8) 0.4365(8) 0.59501(13)
C9_15 C 0.0013(9) 0.5460(8) 0.64285(10)
C10_15 C 0.0378(8) 0.6107(8) 0.65399(15)
H4_15 H 0.0857 0.6617 0.6514
C11_16 C 0.0027(9) 0.5990(9) 0.66904(13)
H5_16 H 0.0271 0.6423 0.6765
O1_16 O 0.1461(5) 0.7955(5) 0.60528(8)
O4_6 O 0.0649(5) 0.3703(4) 0.60257(9)
N3_16 N 0.1672(5) 0.9502(7) 0.61824(6)
O7_11 O 0.3053(6) 0.9351(5) 0.60257(9)
C12_16 C 0.9311(9) 0.5227(10) 0.67295(10)
C13_15 C 0.8946(10) 0.4580(8) 0.66181(16)
H6_15 H 0.8467 0.4070 0.6645
C14_15 C 0.9297(10) 0.4697(8) 0.64676(14)
H7_15 H 0.9053 0.4264 0.6393
C15_16 C 0.7344(11) 0.4739(17) 0.7201(2)
H8_16 H 0.7139 0.5114 0.7172
H9_16 H 0.7546 0.4850 0.7308
H10_16 H 0.6892 0.4163 0.7192
N1_16 N 0.8837(5) 0.5006(5) 0.71510(6)
C16_16 C 0.8051(5) 0.4878(9) 0.70921(9)
C17_16 C 0.8108(6) 0.4940(10) 0.69244(9)
H11_16 H 0.7682 0.4882 0.6856
N2_16 N 0.8928(6) 0.5106(7) 0.68796(6)
C18_16 C 0.9378(4) 0.5147(7) 0.70196(8)
H12_16 H 0.9931 0.5248 0.7025
Cu5_16 Cu 0.94547(12) 0.51724(9) 0.73688(2)
C12_17 C 0.5915(13) 0.0689(9) 0.67295(10)
C13_16 C 0.5633(13) 0.1054(10) 0.66181(16)
H6_16 H 0.5602 0.1533 0.6645
C14_16 C 0.5399(13) 0.0703(10) 0.64676(14)
H7_16 H 0.5210 0.0947 0.6393
C15_17 C 0.7394(20) 0.2656(11) 0.7201(2)
H8_17 H 0.7974 0.2861 0.7172
H9_17 H 0.7303 0.2454 0.7308
H10_17 H 0.7270 0.3108 0.7192
N1_17 N 0.6168(7) 0.1163(5) 0.71510(6)
C16_17 C 0.6826(10) 0.1949(5) 0.70921(9)
C17_17 C 0.6831(12) 0.1892(6) 0.69244(9)
H11_17 H 0.7199 0.2318 0.6856
N2_17 N 0.6177(9) 0.1072(6) 0.68796(6)
C18_17 C 0.5768(8) 0.0622(4) 0.70196(8)
H12_17 H 0.5316 0.0069 0.7025
Cu5_17 Cu 0.57176(15) 0.05453(12) 0.73688(2)
C1_17 C 0.5882(11) 0.8492(8) 0.59770(13)
C2_16 C 0.5348(11) 0.8854(8) 0.60489(11)
C3_16 C 0.5627(12) 0.9262(9) 0.61987(13)
H1_17 H 0.6100 0.9296 0.6248
C4_16 C 0.5202(13) 0.9593(10) 0.62677(15)
C5_16 C 0.4512(11) 0.9584(9) 0.61875(12)
H2_16 H 0.4225 0.9829 0.6235
C6_16 C 0.4255(11) 0.9202(8) 0.60362(13)
C7_16 C 0.4726(10) 0.8839(8) 0.59711(12)
H3_16 H 0.4584 0.8587 0.5872
C8_16 C 0.3505(11) 0.9141(8) 0.59501(13)
C9_16 C 0.5446(12) 0.9987(9) 0.64285(10)
C10_16 C 0.5728(11) 0.9622(8) 0.65399(15)
H4_16 H 0.5759 0.9143 0.6514
C11_17 C 0.5962(13) 0.9973(9) 0.66904(13)
H5_17 H 0.6151 0.9729 0.6765
O1_17 O 0.6493(7) 0.8539(5) 0.60528(8)
N3_17 N 0.7829(9) 0.8328(5) 0.61824(6)
O7_12 O 0.6297(8) 0.6947(6) 0.60257(9)
C1_18 C 0.2609(8) 0.4118(11) 0.59770(13)
C2_17 C 0.3505(7) 0.4652(11) 0.60489(11)
C3_17 C 0.3634(8) 0.4373(12) 0.61987(13)
H1_18 H 0.3195 0.3900 0.6248
C4_17 C 0.4390(9) 0.4798(13) 0.62677(15)
C5_17 C 0.5071(7) 0.5488(11) 0.61875(12)
H2_17 H 0.5603 0.5775 0.6235
C6_17 C 0.4946(8) 0.5745(11) 0.60362(13)
C7_17 C 0.4112(6) 0.5274(10) 0.59711(12)
H3_17 H 0.4002 0.5416 0.5872
C8_17 C 0.5635(8) 0.6495(11) 0.59501(13)
C9_17 C 0.4540(8) 0.4554(12) 0.64285(10)
C10_17 C 0.3893(8) 0.4272(11) 0.65399(15)
H4_17 H 0.3383 0.4241 0.6514
C11_18 C 0.4010(9) 0.4038(13) 0.66904(13)
H5_18 H 0.3577 0.3849 0.6765
C12_18 C 0.4773(10) 0.4085(13) 0.67295(10)
C13_17 C 0.5420(8) 0.4367(13) 0.66181(16)
H6_17 H 0.5930 0.4398 0.6645
C14_17 C 0.5303(8) 0.4601(13) 0.64676(14)
H7_17 H 0.5736 0.4790 0.6393
C15_18 C 0.5261(17) 0.2606(20) 0.7201(2)
H8_18 H 0.4886 0.2026 0.7172
H9_18 H 0.5150 0.2697 0.7308
H10_18 H 0.5837 0.2730 0.7192
N1_18 N 0.4994(5) 0.3832(7) 0.71510(6)
C16_18 C 0.5122(9) 0.3174(10) 0.70921(9)
C17_18 C 0.5060(10) 0.3169(12) 0.69244(9)
H11_18 H 0.5118 0.2801 0.6856
N2_18 N 0.4894(7) 0.3823(9) 0.68796(6)
C18_18 C 0.4853(7) 0.4232(8) 0.70196(8)
H12_18 H 0.4752 0.4684 0.7025
O1_18 O 0.2045(5) 0.3507(7) 0.60528(8)
N3_18 N 0.0498(7) 0.2171(9) 0.61824(6)
Cu5_18 Cu 0.48276(9) 0.42824(15) 0.73688(2)
C2_18 C 0.0172(7) 0.2187(8) 0.43822(11)
C3_18 C 0.0301(8) 0.2595(9) 0.45320(13)
C4_18 C 0.1057(9) 0.2926(10) 0.46010(15)
C5_18 C 0.1738(7) 0.2917(9) 0.45208(12)
H2_18 H 0.2270 0.3162 0.4568
C6_18 C 0.1613(8) 0.2535(8) 0.43695(13)
C7_18 C 0.0779(6) 0.2172(8) 0.43044(12)
H3_18 H 0.0669 0.1920 0.4205
C8_18 C 0.2302(8) 0.2474(8) 0.42834(13)
C9_18 C 0.1207(8) 0.3320(9) 0.47618(10)
C10_18 C 0.0560(8) 0.2955(8) 0.48732(15)
H4_18 H 0.0050 0.2476 0.4847
C11_19 C 0.0677(9) 0.3306(9) 0.50237(13)
H5_19 H 0.0244 0.3062 0.5098
C12_19 C 0.1440(10) 0.4022(9) 0.50628(10)
C13_18 C 0.2087(8) 0.4387(10) 0.49514(16)
H6_18 H 0.2597 0.4866 0.4978
C14_18 C 0.1970(8) 0.4036(10) 0.48009(14)
H7_18 H 0.2403 0.4280 0.4726
C15_19 C 0.1928(17) 0.5989(11) 0.5534(2)
H8_19 H 0.1553 0.6194 0.5505
H9_19 H 0.1817 0.5787 0.5641
H10_19 H 0.2504 0.6441 0.5525
C16_19 C 0.1789(9) 0.5282(5) 0.54254(9)
C17_19 C 0.1727(10) 0.5225(6) 0.52577(9)
H11_19 H 0.1785 0.5651 0.5189
N2_19 N 0.1561(7) 0.4405(6) 0.52129(6)
C18_19 C 0.1520(7) 0.3955(4) 0.53529(8)
H12_19 H 0.1419 0.3402 0.5358
O3_9 O 0.2132(4) 0.2234(5) 0.41407(7)
O4_7 O 0.2964(4) 0.2684(5) 0.43590(9)
C1_19 C 0.9276(8) 0.1825(8) 0.43103(13)
H1_19 H 0.9862 0.2629 0.4581
O1_19 O 0.8712(5) 0.1872(5) 0.43861(8)
O2_10 O 0.9172(5) 0.1456(5) 0.41781(8)
O5_10 O 0.8123(5) 0.2505(5) 0.41552(8)
O6_10 O 0.6565(6) 0.1099(5) 0.41926(7)
O7_13 O 0.7316(5) 0.0280(6) 0.43590(9)
C1_20 C 0.8175(8) 0.7451(11) 0.43103(13)
C2_19 C 0.7813(8) 0.7985(11) 0.43822(11)
C3_19 C 0.7405(9) 0.7706(12) 0.45320(13)
H1_20 H 0.7371 0.7233 0.4581
C4_19 C 0.7074(10) 0.8131(13) 0.46010(15)
C5_19 C 0.7083(9) 0.8821(11) 0.45208(12)
H2_19 H 0.6838 0.9108 0.4568
C6_19 C 0.7465(8) 0.9078(11) 0.43695(13)
C7_19 C 0.7828(8) 0.8607(10) 0.43044(12)
H3_19 H 0.8080 0.8749 0.4205
C8_19 C 0.7526(8) 0.9828(11) 0.42834(13)
C9_19 C 0.6680(9) 0.7887(12) 0.47618(10)
C10_19 C 0.7045(8) 0.7605(11) 0.48732(15)
H4_19 H 0.7524 0.7574 0.4847
C11_20 C 0.6694(9) 0.7371(13) 0.50237(13)
H5_20 H 0.6938 0.7182 0.5098
C12_20 C 0.5978(9) 0.7418(13) 0.50628(10)
C13_19 C 0.5613(10) 0.7700(13) 0.49514(16)
H6_19 H 0.5134 0.7731 0.4978
C14_19 C 0.5964(10) 0.7934(13) 0.48009(14)
H7_19 H 0.5720 0.8123 0.4726
C15_20 C 0.4011(11) 0.5939(20) 0.5534(2)
H8_20 H 0.3806 0.5359 0.5505
H9_20 H 0.4213 0.6030 0.5641
H10_20 H 0.3559 0.6063 0.5525
C16_20 C 0.4718(5) 0.6507(10) 0.54254(9)
C17_20 C 0.4775(6) 0.6502(12) 0.52577(9)
H11_20 H 0.4349 0.6134 0.5189
N2_20 N 0.5595(6) 0.7156(9) 0.52129(6)
C18_20 C 0.6045(4) 0.7565(8) 0.53529(8)
H12_20 H 0.6598 0.8017 0.5358
O1_20 O 0.8128(5) 0.6840(7) 0.43861(8)
O2_11 O 0.8544(5) 0.7716(7) 0.41781(8)
O3_10 O 0.7766(5) 0.9898(6) 0.41407(7)
O5_11 O 0.7495(5) 0.5617(7) 0.41552(8)
O6_11 O 0.8901(5) 0.5465(8) 0.41926(7)
O7_14 O 0.9720(6) 0.7036(8) 0.43590(9)
C1_21 C 0.2549(11) 0.0724(8) 0.43103(13)
H1_21 H 0.2767 0.0138 0.4581
O1_21 O 0.3160(7) 0.1288(5) 0.43861(8)
O2_12 O 0.2284(7) 0.0828(5) 0.41781(8)
O5_12 O 0.4383(7) 0.1877(5) 0.41552(8)
O6_12 O 0.4535(8) 0.3435(6) 0.41926(7)
C2_20 C 0.2015(11) 0.9828(7) 0.43822(11)
C3_20 C 0.2294(12) 0.9699(8) 0.45320(13)
C4_20 C 0.1869(13) 0.8943(9) 0.46010(15)
C5_20 C 0.1179(11) 0.8262(7) 0.45208(12)
H2_20 H 0.0892 0.7730 0.4568
C6_20 C 0.0922(11) 0.8387(8) 0.43695(13)
C7_20 C 0.1393(10) 0.9221(6) 0.43044(12)
H3_20 H 0.1251 0.9331 0.4205
C8_20 C 0.0172(11) 0.7698(8) 0.42834(13)
C9_20 C 0.2113(12) 0.8793(8) 0.47618(10)
C10_20 C 0.2395(11) 0.9440(8) 0.48732(15)
H4_20 H 0.2426 0.9950 0.4847
C11_21 C 0.2629(13) 0.9323(9) 0.50237(13)
H5_21 H 0.2818 0.9756 0.5098
C12_21 C 0.2582(13) 0.8560(10) 0.50628(10)
C13_20 C 0.2300(13) 0.7913(8) 0.49514(16)
H6_20 H 0.2269 0.7403 0.4978
C14_20 C 0.2066(13) 0.8030(8) 0.48009(14)
H7_20 H 0.1877 0.7597 0.4726
C15_21 C 0.4061(20) 0.8072(17) 0.5534(2)
H8_21 H 0.4641 0.8447 0.5505
H9_21 H 0.3970 0.8183 0.5641
H10_21 H 0.3937 0.7496 0.5525
C16_21 C 0.3493(10) 0.8211(9) 0.54254(9)
C17_21 C 0.3498(12) 0.8273(10) 0.52577(9)
H11_21 H 0.3866 0.8215 0.5189
N2_21 N 0.2844(9) 0.8439(7) 0.52129(6)
C18_21 C 0.2435(8) 0.8480(7) 0.53529(8)
H12_21 H 0.1983 0.8581 0.5358
O3_11 O 0.0102(6) 0.7868(4) 0.41407(7)
C2_21 C 0.2187(8) 0.0172(7) 0.06178(11)
C3_21 C 0.2595(9) 0.0301(8) 0.04680(13)
C4_21 C 0.2926(10) 0.1057(9) 0.03990(15)
C5_21 C 0.2917(9) 0.1738(7) 0.04792(12)
H2_21 H 0.3162 0.2270 0.0432
C6_21 C 0.2535(8) 0.1613(8) 0.06305(13)
C7_21 C 0.2172(8) 0.0779(6) 0.06956(12)
H3_21 H 0.1920 0.0669 0.0795
C8_21 C 0.2474(8) 0.2302(8) 0.07166(13)
C9_21 C 0.3320(9) 0.1207(8) 0.02382(10)
C10_21 C 0.2955(8) 0.0560(8) 0.01268(15)
H4_21 H 0.2476 0.0050 0.0153
C13_21 C 0.4387(10) 0.2087(8) 0.00486(16)
H6_21 H 0.4866 0.2597 0.0022
C14_21 C 0.4036(10) 0.1970(8) 0.01991(14)
H7_21 H 0.4280 0.2403 0.0274
O3_12 O 0.2234(5) 0.2132(4) 0.08593(7)
O4_8 O 0.2684(5) 0.2964(4) 0.06410(9)
C11_22 C 0.3306(9) 0.0677(9) 0.99763(13)
H5_22 H 0.3062 0.0244 0.9902
C12_22 C 0.4022(9) 0.1440(10) 0.99372(10)
C15_22 C 0.5989(11) 0.1928(17) 0.9466(2)
H8_22 H 0.6194 0.1553 0.9495
H9_22 H 0.5787 0.1817 0.9359
H10_22 H 0.6441 0.2504 0.9475
C16_22 C 0.5282(5) 0.1789(9) 0.95746(9)
C17_22 C 0.5225(6) 0.1727(10) 0.97423(9)
H11_22 H 0.5651 0.1785 0.9811
N2_22 N 0.4405(6) 0.1561(7) 0.97871(6)
C18_22 C 0.3955(4) 0.1520(7) 0.96471(8)
H12_22 H 0.3402 0.1419 0.9642
C1_22 C 0.1825(8) 0.9276(8) 0.06897(13)
H1_22 H 0.2629 0.9862 0.0419
O1_22 O 0.1872(5) 0.8712(5) 0.06139(8)
O2_13 O 0.1456(5) 0.9172(5) 0.08219(8)
O5_13 O 0.2505(5) 0.8123(5) 0.08448(8)
O6_13 O 0.1099(5) 0.6565(6) 0.08074(7)
O7_15 O 0.0280(6) 0.7316(5) 0.06410(9)
C1_23 C 0.7451(11) 0.8175(8) 0.06897(13)
C2_22 C 0.7985(11) 0.7813(8) 0.06178(11)
C3_22 C 0.7706(12) 0.7405(9) 0.04680(13)
H1_23 H 0.7233 0.7371 0.0419
C4_22 C 0.8131(13) 0.7074(10) 0.03990(15)
C5_22 C 0.8821(11) 0.7083(9) 0.04792(12)
H2_22 H 0.9108 0.6838 0.0432
C6_22 C 0.9078(11) 0.7465(8) 0.06305(13)
C7_22 C 0.8607(10) 0.7828(8) 0.06956(12)
H3_22 H 0.8749 0.8080 0.0795
C8_22 C 0.9828(11) 0.7526(8) 0.07166(13)
C9_22 C 0.7887(12) 0.6680(9) 0.02382(10)
C10_22 C 0.7605(11) 0.7045(8) 0.01268(15)
H4_22 H 0.7574 0.7524 0.0153
C13_22 C 0.7700(13) 0.5613(10) 0.00486(16)
H6_22 H 0.7731 0.5134 0.0022
C14_22 C 0.7934(13) 0.5964(10) 0.01991(14)
H7_22 H 0.8123 0.5720 0.0274
O1_23 O 0.6840(7) 0.8128(5) 0.06139(8)
O2_14 O 0.7716(7) 0.8544(5) 0.08219(8)
O3_13 O 0.9898(6) 0.7766(5) 0.08593(7)
O5_14 O 0.5617(7) 0.7495(5) 0.08448(8)
O6_14 O 0.5465(8) 0.8901(5) 0.08074(7)
O7_16 O 0.7036(8) 0.9720(6) 0.06410(9)
C11_23 C 0.7371(13) 0.6694(9) 0.99763(13)
H5_23 H 0.7182 0.6938 0.9902
C12_23 C 0.7418(13) 0.5978(9) 0.99372(10)
C15_23 C 0.5939(20) 0.4011(11) 0.9466(2)
H8_23 H 0.5359 0.3806 0.9495
H9_23 H 0.6030 0.4213 0.9359
H10_23 H 0.6063 0.3559 0.9475
C16_23 C 0.6507(10) 0.4718(5) 0.95746(9)
C17_23 C 0.6502(12) 0.4775(6) 0.97423(9)
H11_23 H 0.6134 0.4349 0.9811
N2_23 N 0.7156(9) 0.5595(6) 0.97871(6)
C18_23 C 0.7565(8) 0.6045(4) 0.96471(8)
H12_23 H 0.8017 0.6598 0.9642
C1_24 C 0.0724(8) 0.2549(11) 0.06897(13)
H1_24 H 0.0138 0.2767 0.0419
O1_24 O 0.1288(5) 0.3160(7) 0.06139(8)
O2_15 O 0.0828(5) 0.2284(7) 0.08219(8)
O5_15 O 0.1877(5) 0.4383(7) 0.08448(8)
O6_15 O 0.3435(6) 0.4535(8) 0.08074(7)
C11_24 C 0.9323(9) 0.2629(13) 0.99763(13)
H5_24 H 0.9756 0.2818 0.9902
C12_24 C 0.8560(10) 0.2582(13) 0.99372(10)
C15_24 C 0.8072(17) 0.4061(20) 0.9466(2)
H8_24 H 0.8447 0.4641 0.9495
H9_24 H 0.8183 0.3970 0.9359
H10_24 H 0.7496 0.3937 0.9475
C16_24 C 0.8211(9) 0.3493(10) 0.95746(9)
C17_24 C 0.8273(10) 0.3498(12) 0.97423(9)
H11_24 H 0.8215 0.3866 0.9811
N2_24 N 0.8439(7) 0.2844(9) 0.97871(6)
C18_24 C 0.8480(7) 0.2435(8) 0.96471(8)
H12_24 H 0.8581 0.1983 0.9642
C12_25 C 0.4773(10) 0.0689(9) 0.17295(10)
C13_23 C 0.5420(8) 0.1054(10) 0.16181(16)
H6_23 H 0.5930 0.1533 0.1645
C14_23 C 0.5303(8) 0.0703(10) 0.14676(14)
H7_23 H 0.5736 0.0947 0.1393
C15_25 C 0.5261(17) 0.2656(11) 0.2201(2)
H8_25 H 0.4886 0.2861 0.2172
H9_25 H 0.5150 0.2454 0.2308
H10_25 H 0.5837 0.3108 0.2192
C16_25 C 0.5122(9) 0.1949(5) 0.20921(9)
C17_25 C 0.5060(10) 0.1892(6) 0.19244(9)
H11_25 H 0.5118 0.2318 0.1856
N2_25 N 0.4894(7) 0.1072(6) 0.18796(6)
C18_25 C 0.4853(7) 0.0622(4) 0.20196(8)
H12_25 H 0.4752 0.0069 0.2025
C1_25 C 0.2609(8) 0.8492(8) 0.09770(13)
C2_23 C 0.3505(7) 0.8854(8) 0.10489(11)
C3_23 C 0.3634(8) 0.9262(9) 0.11987(13)
H1_25 H 0.3195 0.9296 0.1248
C4_23 C 0.4390(9) 0.9593(10) 0.12677(15)
C5_23 C 0.5071(7) 0.9584(9) 0.11875(12)
H2_23 H 0.5603 0.9829 0.1235
C6_23 C 0.4946(8) 0.9202(8) 0.10362(13)
C7_23 C 0.4112(6) 0.8839(8) 0.09711(12)
H3_23 H 0.4002 0.8587 0.0872
C8_23 C 0.5635(8) 0.9141(8) 0.09501(13)
C9_23 C 0.4540(8) 0.9987(9) 0.14285(10)
C10_23 C 0.3893(8) 0.9622(8) 0.15399(15)
H4_23 H 0.3383 0.9143 0.1514
C11_25 C 0.4010(9) 0.9973(9) 0.16904(13)
H5_25 H 0.3577 0.9729 0.1765
O1_25 O 0.2045(5) 0.8539(5) 0.10528(8)
O4_9 O 0.6297(4) 0.9351(5) 0.10257(9)
O7_17 O 0.0649(5) 0.6947(6) 0.10257(9)
C1_26 C 0.1508(8) 0.4118(11) 0.09770(13)
C2_24 C 0.1146(8) 0.4652(11) 0.10489(11)
C3_24 C 0.0738(9) 0.4373(12) 0.11987(13)
H1_26 H 0.0704 0.3900 0.1248
C4_24 C 0.0407(10) 0.4798(13) 0.12677(15)
C5_24 C 0.0416(9) 0.5488(11) 0.11875(12)
H2_24 H 0.0171 0.5775 0.1235
C6_24 C 0.0798(8) 0.5745(11) 0.10362(13)
C7_24 C 0.1161(8) 0.5274(10) 0.09711(12)
H3_24 H 0.1413 0.5416 0.0872
C8_24 C 0.0859(8) 0.6495(11) 0.09501(13)
C9_24 C 0.0013(9) 0.4554(12) 0.14285(10)
C10_24 C 0.0378(8) 0.4272(11) 0.15399(15)
H4_24 H 0.0857 0.4241 0.1514
C11_26 C 0.0027(9) 0.4038(13) 0.16904(13)
H5_26 H 0.0271 0.3849 0.1765
O1_26 O 0.1461(5) 0.3507(7) 0.10528(8)
O7_18 O 0.3053(6) 0.3703(8) 0.10257(9)
C12_26 C 0.9311(9) 0.4085(13) 0.17295(10)
C13_24 C 0.8946(10) 0.4367(13) 0.16181(16)
H6_24 H 0.8467 0.4398 0.1645
C14_24 C 0.9297(10) 0.4601(13) 0.14676(14)
H7_24 H 0.9053 0.4790 0.1393
C15_26 C 0.7344(11) 0.2606(20) 0.2201(2)
H8_26 H 0.7139 0.2026 0.2172
H9_26 H 0.7546 0.2697 0.2308
H10_26 H 0.6892 0.2730 0.2192
C16_26 C 0.8051(5) 0.3174(10) 0.20921(9)
C17_26 C 0.8108(6) 0.3169(12) 0.19244(9)
H11_26 H 0.7682 0.2801 0.1856
N2_26 N 0.8928(6) 0.3823(9) 0.18796(6)
C18_26 C 0.9378(4) 0.4232(8) 0.20196(8)
H12_26 H 0.9931 0.4684 0.2025
C1_27 C 0.5882(11) 0.7391(8) 0.09770(13)
C2_25 C 0.5348(11) 0.6495(7) 0.10489(11)
C3_25 C 0.5627(12) 0.6366(8) 0.11987(13)
H1_27 H 0.6100 0.6805 0.1248
C4_25 C 0.5202(13) 0.5610(9) 0.12677(15)
C5_25 C 0.4512(11) 0.4929(7) 0.11875(12)
H2_25 H 0.4225 0.4397 0.1235
C6_25 C 0.4255(11) 0.5054(8) 0.10362(13)
C7_25 C 0.4726(10) 0.5888(6) 0.09711(12)
H3_25 H 0.4584 0.5998 0.0872
C8_25 C 0.3505(11) 0.4365(8) 0.09501(13)
C9_25 C 0.5446(12) 0.5460(8) 0.14285(10)
C10_25 C 0.5728(11) 0.6107(8) 0.15399(15)
H4_25 H 0.5759 0.6617 0.1514
C11_27 C 0.5962(13) 0.5990(9) 0.16904(13)
H5_27 H 0.6151 0.6423 0.1765
C12_27 C 0.5915(13) 0.5227(10) 0.17295(10)
C13_25 C 0.5633(13) 0.4580(8) 0.16181(16)
H6_25 H 0.5602 0.4070 0.1645
C14_25 C 0.5399(13) 0.4697(8) 0.14676(14)
H7_25 H 0.5210 0.4264 0.1393
C15_27 C 0.7394(20) 0.4739(17) 0.2201(2)
H8_27 H 0.7974 0.5114 0.2172
H9_27 H 0.7303 0.4850 0.2308
H10_27 H 0.7270 0.4163 0.2192
C16_27 C 0.6826(10) 0.4878(9) 0.20921(9)
C17_27 C 0.6831(12) 0.4940(10) 0.19244(9)
H11_27 H 0.7199 0.4882 0.1856
N2_27 N 0.6177(9) 0.5106(7) 0.18796(6)
C18_27 C 0.5768(8) 0.5147(7) 0.20196(8)
H12_27 H 0.5316 0.5248 0.2025
O1_27 O 0.6493(7) 0.7955(5) 0.10528(8)
C1_28 C 0.5158(8) 0.5943(8) 0.73564(13)
C2_26 C 0.5520(8) 0.6839(7) 0.72845(11)
C3_26 C 0.5928(9) 0.6968(8) 0.71347(13)
H1_28 H 0.5962 0.6529 0.7086
C4_26 C 0.6259(10) 0.7724(9) 0.70657(15)
C5_26 C 0.6250(9) 0.8405(7) 0.71459(12)
H2_26 H 0.6495 0.8937 0.7099
C6_26 C 0.5868(8) 0.8280(8) 0.72972(13)
C7_26 C 0.5505(8) 0.7446(6) 0.73623(12)
H3_26 H 0.5253 0.7336 0.7462
C8_26 C 0.5807(8) 0.8969(8) 0.73833(13)
C9_26 C 0.6653(9) 0.7874(8) 0.69049(10)
C10_26 C 0.6288(8) 0.7227(8) 0.67935(15)
H4_26 H 0.5809 0.6717 0.6820
C11_28 C 0.6639(9) 0.7344(9) 0.66430(13)
H5_28 H 0.6395 0.6911 0.6569
C12_28 C 0.7355(9) 0.8107(10) 0.66039(10)
C13_26 C 0.7720(10) 0.8754(8) 0.67153(16)
H6_26 H 0.8199 0.9264 0.6689
C14_26 C 0.7369(10) 0.8637(8) 0.68658(14)
H7_26 H 0.7613 0.9070 0.6941
C15_28 C 0.9322(11) 0.8595(17) 0.6133(2)
H8_28 H 0.9527 0.8220 0.6162
H9_28 H 0.9120 0.8484 0.6026
H10_28 H 0.9774 0.9171 0.6142
C16_28 C 0.8615(5) 0.8456(9) 0.62413(9)
C17_28 C 0.8558(6) 0.8394(10) 0.64090(9)
H11_28 H 0.8984 0.8452 0.6478
N2_28 N 0.7738(6) 0.8228(7) 0.64538(6)
C18_28 C 0.7288(4) 0.8187(7) 0.63138(8)
H12_28 H 0.6735 0.8086 0.6309
O1_28 O 0.5205(5) 0.5379(5) 0.72806(8)
O2_16 O 0.4789(5) 0.5839(5) 0.74886(8)
O3_14 O 0.5567(5) 0.8799(4) 0.75260(7)
O4_10 O 0.6017(5) 0.9631(4) 0.73077(9)
O5_16 O 0.5839(5) 0.4789(5) 0.75114(8)
O6_16 O 0.4433(5) 0.3231(6) 0.74740(7)
O7_19 O 0.3613(6) 0.3983(5) 0.73077(9)
C1_29 C 0.0784(11) 0.4842(8) 0.73564(13)
C2_27 C 0.1318(11) 0.4480(8) 0.72845(11)
C3_27 C 0.1039(12) 0.4072(9) 0.71347(13)
H1_29 H 0.0566 0.4038 0.7086
C4_27 C 0.1464(13) 0.3741(10) 0.70657(15)
C5_27 C 0.2154(11) 0.3750(9) 0.71459(12)
H2_27 H 0.2441 0.3505 0.7099
C6_27 C 0.2411(11) 0.4132(8) 0.72972(13)
C7_27 C 0.1940(10) 0.4495(8) 0.73623(12)
H3_27 H 0.2082 0.4747 0.7462
C8_27 C 0.3161(11) 0.4193(8) 0.73833(13)
C9_27 C 0.1220(12) 0.3347(9) 0.69049(10)
C10_27 C 0.0938(11) 0.3712(8) 0.67935(15)
H4_27 H 0.0907 0.4191 0.6820
C11_29 C 0.0704(13) 0.3361(9) 0.66430(13)
H5_29 H 0.0515 0.3605 0.6569
C12_29 C 0.0751(13) 0.2645(9) 0.66039(10)
C13_27 C 0.1033(13) 0.2280(10) 0.67153(16)
H6_27 H 0.1064 0.1801 0.6689
C14_27 C 0.1267(13) 0.2631(10) 0.68658(14)
H7_27 H 0.1456 0.2387 0.6941
N2_29 N 0.0489(9) 0.2262(6) 0.64538(6)
C18_29 C 0.0898(8) 0.2712(4) 0.63138(8)
H12_29 H 0.1350 0.3265 0.6309
O1_29 O 0.0173(7) 0.4795(5) 0.72806(8)
O2_17 O 0.1049(7) 0.5211(5) 0.74886(8)
O3_15 O 0.3231(6) 0.4433(5) 0.75260(7)
O7_20 O 0.0369(8) 0.6387(6) 0.73077(9)
C15_29 C 0.9272(20) 0.0678(11) 0.6133(2)
H8_29 H 0.8692 0.0473 0.6162
H9_29 H 0.9363 0.0880 0.6026
H10_29 H 0.9396 0.0226 0.6142
C16_29 C 0.9840(10) 0.1385(5) 0.62413(9)
C17_29 C 0.9835(12) 0.1442(6) 0.64090(9)
H11_29 H 0.9467 0.1016 0.6478
O5_17 O 0.8951(7) 0.4161(5) 0.75114(8)
O6_17 O 0.8799(8) 0.5567(5) 0.74740(7)
C15_30 C 0.1405(17) 0.0728(20) 0.6133(2)
H8_30 H 0.1780 0.1308 0.6162
H9_30 H 0.1516 0.0637 0.6026
H10_30 H 0.0829 0.0604 0.6142
C16_30 C 0.1544(9) 0.0160(10) 0.62413(9)
C17_30 C 0.1606(10) 0.0165(12) 0.64090(9)
H11_30 H 0.1548 0.0533 0.6478
O5_18 O 0.5211(5) 0.1049(7) 0.75114(8)
O6_18 O 0.6769(6) 0.1201(8) 0.74740(7)
C1_30 C 0.4057(8) 0.9216(11) 0.73564(13)
C2_28 C 0.3161(7) 0.8682(11) 0.72845(11)
C3_28 C 0.3032(8) 0.8961(12) 0.71347(13)
H1_30 H 0.3471 0.9434 0.7086
C4_28 C 0.2276(9) 0.8536(13) 0.70657(15)
C5_28 C 0.1595(7) 0.7846(11) 0.71459(12)
H2_28 H 0.1063 0.7559 0.7099
C6_28 C 0.1720(8) 0.7589(11) 0.72972(13)
C7_28 C 0.2554(6) 0.8060(10) 0.73623(12)
H3_28 H 0.2664 0.7918 0.7462
C8_28 C 0.1031(8) 0.6839(11) 0.73833(13)
C9_28 C 0.2126(8) 0.8780(12) 0.69049(10)
C10_28 C 0.2773(8) 0.9062(11) 0.67935(15)
H4_28 H 0.3283 0.9093 0.6820
C11_30 C 0.2656(9) 0.9296(13) 0.66430(13)
H5_30 H 0.3089 0.9485 0.6569
C12_30 C 0.1893(10) 0.9249(13) 0.66039(10)
C13_28 C 0.1246(8) 0.8967(13) 0.67153(16)
H6_28 H 0.0736 0.8936 0.6689
C14_28 C 0.1363(8) 0.8733(13) 0.68658(14)
H7_28 H 0.0930 0.8544 0.6941
N2_30 N 0.1772(7) 0.9511(9) 0.64538(6)
C18_30 C 0.1813(7) 0.9102(8) 0.63138(8)
H12_30 H 0.1914 0.8650 0.6309
O1_30 O 0.4621(5) 0.9827(7) 0.72806(8)
O2_18 O 0.4161(5) 0.8951(7) 0.74886(8)
O3_16 O 0.1201(4) 0.6769(6) 0.75260(7)
C1_31 C 0.5943(8) 0.5158(8) 0.76436(13)
C2_29 C 0.6839(7) 0.5520(8) 0.77155(11)
C3_29 C 0.6968(8) 0.5928(9) 0.78653(13)
H1_31 H 0.6529 0.5962 0.7914
C4_29 C 0.7724(9) 0.6259(10) 0.79343(15)
C5_29 C 0.8405(7) 0.6250(9) 0.78541(12)
H2_29 H 0.8937 0.6495 0.7901
C6_29 C 0.8280(8) 0.5868(8) 0.77028(13)
C7_29 C 0.7446(6) 0.5505(8) 0.76377(12)
H3_29 H 0.7336 0.5253 0.7538
C8_29 C 0.8969(8) 0.5807(8) 0.76167(13)
C9_29 C 0.7874(8) 0.6653(9) 0.80951(10)
C10_29 C 0.7227(8) 0.6288(8) 0.82065(15)
H4_29 H 0.6717 0.5809 0.8180
C11_31 C 0.7344(9) 0.6639(9) 0.83570(13)
H5_31 H 0.6911 0.6395 0.8431
C12_31 C 0.8107(10) 0.7355(9) 0.83961(10)
C13_29 C 0.8754(8) 0.7720(10) 0.82847(16)
H6_29 H 0.9264 0.8199 0.8311
C14_29 C 0.8637(8) 0.7369(10) 0.81342(14)
H7_29 H 0.9070 0.7613 0.8059
C15_31 C 0.8595(17) 0.9322(11) 0.8867(2)
H8_31 H 0.8220 0.9527 0.8838
H9_31 H 0.8484 0.9120 0.8974
H10_31 H 0.9171 0.9774 0.8858
C16_31 C 0.8456(9) 0.8615(5) 0.87587(9)
C17_31 C 0.8394(10) 0.8558(6) 0.85910(9)
H11_31 H 0.8452 0.8984 0.8522
N2_31 N 0.8228(7) 0.7738(6) 0.85462(6)
C18_31 C 0.8187(7) 0.7288(4) 0.86862(8)
H12_31 H 0.8086 0.6735 0.8691
O1_31 O 0.5379(5) 0.5205(5) 0.77194(8)
O4_11 O 0.9631(4) 0.6017(5) 0.76923(9)
O7_21 O 0.3983(5) 0.3613(6) 0.76923(9)
C1_32 C 0.4842(8) 0.0784(11) 0.76436(13)
C2_30 C 0.4480(8) 0.1318(11) 0.77155(11)
C3_30 C 0.4072(9) 0.1039(12) 0.78653(13)
H1_32 H 0.4038 0.0566 0.7914
C4_30 C 0.3741(10) 0.1464(13) 0.79343(15)
C5_30 C 0.3750(9) 0.2154(11) 0.78541(12)
H2_30 H 0.3505 0.2441 0.7901
C6_30 C 0.4132(8) 0.2411(11) 0.77028(13)
C7_30 C 0.4495(8) 0.1940(10) 0.76377(12)
H3_30 H 0.4747 0.2082 0.7538
C8_30 C 0.4193(8) 0.3161(11) 0.76167(13)
C9_30 C 0.3347(9) 0.1220(12) 0.80951(10)
C10_30 C 0.3712(8) 0.0938(11) 0.82065(15)
H4_30 H 0.4191 0.0907 0.8180
C11_32 C 0.3361(9) 0.0704(13) 0.83570(13)
H5_32 H 0.3605 0.0515 0.8431
C12_32 C 0.2645(9) 0.0751(13) 0.83961(10)
C13_30 C 0.2280(10) 0.1033(13) 0.82847(16)
H6_30 H 0.1801 0.1064 0.8311
C14_30 C 0.2631(10) 0.1267(13) 0.81342(14)
H7_30 H 0.2387 0.1456 0.8059
N2_32 N 0.2262(6) 0.0489(9) 0.85462(6)
C18_32 C 0.2712(4) 0.0898(8) 0.86862(8)
H12_32 H 0.3265 0.1350 0.8691
O1_32 O 0.4795(5) 0.0173(7) 0.77194(8)
O7_22 O 0.6387(6) 0.0369(8) 0.76923(9)
C15_32 C 0.0678(11) 0.9272(20) 0.8867(2)
H8_32 H 0.0473 0.8692 0.8838
H9_32 H 0.0880 0.9363 0.8974
H10_32 H 0.0226 0.9396 0.8858
C16_32 C 0.1385(5) 0.9840(10) 0.87587(9)
C17_32 C 0.1442(6) 0.9835(12) 0.85910(9)
H11_32 H 0.1016 0.9467 0.8522
C15_33 C 0.0728(20) 0.1405(17) 0.8867(2)
H8_33 H 0.1308 0.1780 0.8838
H9_33 H 0.0637 0.1516 0.8974
H10_33 H 0.0604 0.0829 0.8858
C16_33 C 0.0160(10) 0.1544(9) 0.87587(9)
C17_33 C 0.0165(12) 0.1606(10) 0.85910(9)
H11_33 H 0.0533 0.1548 0.8522
C1_33 C 0.9216(11) 0.4057(8) 0.76436(13)
C2_31 C 0.8682(11) 0.3161(7) 0.77155(11)
C3_31 C 0.8961(12) 0.3032(8) 0.78653(13)
H1_33 H 0.9434 0.3471 0.7914
C4_31 C 0.8536(13) 0.2276(9) 0.79343(15)
C5_31 C 0.7846(11) 0.1595(7) 0.78541(12)
H2_31 H 0.7559 0.1063 0.7901
C6_31 C 0.7589(11) 0.1720(8) 0.77028(13)
C7_31 C 0.8060(10) 0.2554(6) 0.76377(12)
H3_31 H 0.7918 0.2664 0.7538
C8_31 C 0.6839(11) 0.1031(8) 0.76167(13)
C9_31 C 0.8780(12) 0.2126(8) 0.80951(10)
C10_31 C 0.9062(11) 0.2773(8) 0.82065(15)
H4_31 H 0.9093 0.3283 0.8180
C11_33 C 0.9296(13) 0.2656(9) 0.83570(13)
H5_33 H 0.9485 0.3089 0.8431
C12_33 C 0.9249(13) 0.1893(10) 0.83961(10)
C13_31 C 0.8967(13) 0.1246(8) 0.82847(16)
H6_31 H 0.8936 0.0736 0.8311
C14_31 C 0.8733(13) 0.1363(8) 0.81342(14)
H7_31 H 0.8544 0.0930 0.8059
N2_33 N 0.9511(9) 0.1772(7) 0.85462(6)
C18_33 C 0.9102(8) 0.1813(7) 0.86862(8)
H12_33 H 0.8650 0.1914 0.8691
O1_33 O 0.9827(7) 0.4621(5) 0.77194(8)
C12_34 C 0.0689(9) 0.4773(10) 0.32705(10)
C13_32 C 0.1054(10) 0.5420(8) 0.33819(16)
H6_32 H 0.1533 0.5930 0.3355
C14_32 C 0.0703(10) 0.5303(8) 0.35324(14)
H7_32 H 0.0947 0.5736 0.3607
C15_34 C 0.2656(11) 0.5261(17) 0.2799(2)
H8_34 H 0.2861 0.4886 0.2828
H9_34 H 0.2454 0.5150 0.2692
H10_34 H 0.3108 0.5837 0.2808
C16_34 C 0.1949(5) 0.5122(9) 0.29079(9)
C17_34 C 0.1892(6) 0.5060(10) 0.30756(9)
H11_34 H 0.2318 0.5118 0.3144
N2_34 N 0.1072(6) 0.4894(7) 0.31204(6)
C18_34 C 0.0622(4) 0.4853(7) 0.29804(8)
H12_34 H 0.0069 0.4752 0.2975
C1_34 C 0.8492(8) 0.2609(8) 0.40230(13)
C2_32 C 0.8854(8) 0.3505(7) 0.39511(11)
C3_32 C 0.9262(9) 0.3634(8) 0.38013(13)
H1_34 H 0.9296 0.3195 0.3752
C4_32 C 0.9593(10) 0.4390(9) 0.37323(15)
C5_32 C 0.9584(9) 0.5071(7) 0.38125(12)
H2_32 H 0.9829 0.5603 0.3765
C6_32 C 0.9202(8) 0.4946(8) 0.39638(13)
C7_32 C 0.8839(8) 0.4112(6) 0.40289(12)
H3_32 H 0.8587 0.4002 0.4128
C8_32 C 0.9141(8) 0.5635(8) 0.40499(13)
C9_32 C 0.9987(9) 0.4540(8) 0.35715(10)
C10_32 C 0.9622(8) 0.3893(8) 0.34601(15)
H4_32 H 0.9143 0.3383 0.3486
C11_34 C 0.9973(9) 0.4010(9) 0.33096(13)
H5_34 H 0.9729 0.3577 0.3235
O1_34 O 0.8539(5) 0.2045(5) 0.39472(8)
O4_12 O 0.9351(5) 0.6297(4) 0.39743(9)
O7_23 O 0.6947(6) 0.0649(5) 0.39743(9)
C1_35 C 0.4118(11) 0.1508(8) 0.40230(13)
C2_33 C 0.4652(11) 0.1146(8) 0.39511(11)
C3_33 C 0.4373(12) 0.0738(9) 0.38013(13)
H1_35 H 0.3900 0.0704 0.3752
C4_33 C 0.4798(13) 0.0407(10) 0.37323(15)
C5_33 C 0.5488(11) 0.0416(9) 0.38125(12)
H2_33 H 0.5775 0.0171 0.3765
C6_33 C 0.5745(11) 0.0798(8) 0.39638(13)
C7_33 C 0.5274(10) 0.1161(8) 0.40289(12)
H3_33 H 0.5416 0.1413 0.4128
C8_33 C 0.6495(11) 0.0859(8) 0.40499(13)
C9_33 C 0.4554(12) 0.0013(9) 0.35715(10)
C10_33 C 0.4272(11) 0.0378(8) 0.34601(15)
H4_33 H 0.4241 0.0857 0.3486
C11_35 C 0.4038(13) 0.0027(9) 0.33096(13)
H5_35 H 0.3849 0.0271 0.3235
O1_35 O 0.3507(7) 0.1461(5) 0.39472(8)
O7_24 O 0.3703(8) 0.3053(6) 0.39743(9)
C12_35 C 0.4085(13) 0.9311(9) 0.32705(10)
C13_33 C 0.4367(13) 0.8946(10) 0.33819(16)
H6_33 H 0.4398 0.8467 0.3355
C14_33 C 0.4601(13) 0.9297(10) 0.35324(14)
H7_33 H 0.4790 0.9053 0.3607
C15_35 C 0.2606(20) 0.7344(11) 0.2799(2)
H8_35 H 0.2026 0.7139 0.2828
H9_35 H 0.2697 0.7546 0.2692
H10_35 H 0.2730 0.6892 0.2808
C16_35 C 0.3174(10) 0.8051(5) 0.29079(9)
C17_35 C 0.3169(12) 0.8108(6) 0.30756(9)
H11_35 H 0.2801 0.7682 0.3144
N2_35 N 0.3823(9) 0.8928(6) 0.31204(6)
C18_35 C 0.4232(8) 0.9378(4) 0.29804(8)
H12_35 H 0.4684 0.9931 0.2975
C1_36 C 0.7391(8) 0.5882(11) 0.40230(13)
C2_34 C 0.6495(7) 0.5348(11) 0.39511(11)
C3_34 C 0.6366(8) 0.5627(12) 0.38013(13)
H1_36 H 0.6805 0.6100 0.3752
C4_34 C 0.5610(9) 0.5202(13) 0.37323(15)
C5_34 C 0.4929(7) 0.4512(11) 0.38125(12)
H2_34 H 0.4397 0.4225 0.3765
C6_34 C 0.5054(8) 0.4255(11) 0.39638(13)
C7_34 C 0.5888(6) 0.4726(10) 0.40289(12)
H3_34 H 0.5998 0.4584 0.4128
C8_34 C 0.4365(8) 0.3505(11) 0.40499(13)
C9_34 C 0.5460(8) 0.5446(12) 0.35715(10)
C10_34 C 0.6107(8) 0.5728(11) 0.34601(15)
H4_34 H 0.6617 0.5759 0.3486
C11_36 C 0.5990(9) 0.5962(13) 0.33096(13)
H5_36 H 0.6423 0.6151 0.3235
C12_36 C 0.5227(10) 0.5915(13) 0.32705(10)
C13_34 C 0.4580(8) 0.5633(13) 0.33819(16)
H6_34 H 0.4070 0.5602 0.3355
C14_34 C 0.4697(8) 0.5399(13) 0.35324(14)
H7_34 H 0.4264 0.5210 0.3607
C15_36 C 0.4739(17) 0.7394(20) 0.2799(2)
H8_36 H 0.5114 0.7974 0.2828
H9_36 H 0.4850 0.7303 0.2692
H10_36 H 0.4163 0.7270 0.2808
C16_36 C 0.4878(9) 0.6826(10) 0.29079(9)
C17_36 C 0.4940(10) 0.6831(12) 0.30756(9)
H11_36 H 0.4882 0.7199 0.3144
N2_36 N 0.5106(7) 0.6177(9) 0.31204(6)
C18_36 C 0.5147(7) 0.5768(8) 0.29804(8)
H12_36 H 0.5248 0.5316 0.2975
O1_36 O 0.7955(5) 0.6493(7) 0.39472(8)
C2_35 C 0.0172(7) 0.7985(11) 0.93822(11)
C3_35 C 0.0301(8) 0.7706(12) 0.95320(13)
C4_35 C 0.1057(9) 0.8131(13) 0.96010(15)
C5_35 C 0.1738(7) 0.8821(11) 0.95208(12)
H2_35 H 0.2270 0.9108 0.9568
C6_35 C 0.1613(8) 0.9078(11) 0.93695(13)
C7_35 C 0.0779(6) 0.8607(10) 0.93044(12)
H3_35 H 0.0669 0.8749 0.9205
C8_35 C 0.2302(8) 0.9828(11) 0.92834(13)
C9_35 C 0.1207(8) 0.7887(12) 0.97618(10)
C10_35 C 0.0560(8) 0.7605(11) 0.98732(15)
H4_35 H 0.0050 0.7574 0.9847
C13_35 C 0.2087(8) 0.7700(13) 0.99514(16)
H6_35 H 0.2597 0.7731 0.9978
C14_35 C 0.1970(8) 0.7934(13) 0.98009(14)
H7_35 H 0.2403 0.8123 0.9726
O3_17 O 0.2132(4) 0.9898(6) 0.91407(7)
C2_36 C 0.9828(7) 0.2015(11) 0.06178(11)
C3_36 C 0.9699(8) 0.2294(12) 0.04680(13)
C4_36 C 0.8943(9) 0.1869(13) 0.03990(15)
C5_36 C 0.8262(7) 0.1179(11) 0.04792(12)
H2_36 H 0.7730 0.0892 0.0432
C6_36 C 0.8387(8) 0.0922(11) 0.06305(13)
C7_36 C 0.9221(6) 0.1393(10) 0.06956(12)
H3_36 H 0.9331 0.1251 0.0795
C8_36 C 0.7698(8) 0.0172(11) 0.07166(13)
C9_36 C 0.8793(8) 0.2113(12) 0.02382(10)
C10_36 C 0.9440(8) 0.2395(11) 0.01268(15)
H4_36 H 0.9950 0.2426 0.0153
C13_36 C 0.7913(8) 0.2300(13) 0.00486(16)
H6_36 H 0.7403 0.2269 0.0022
C14_36 C 0.8030(8) 0.2066(13) 0.01991(14)
H7_36 H 0.7597 0.1877 0.0274
O3_18 O 0.7868(4) 0.0102(6) 0.08593(7)
loop_
_geom_bond_atom_site_label_1
_geom_bond_atom_site_label_2
_geom_bond_site_symmetry_1
_geom_bond_site_symmetry_2
Cu1 O1 1_555 1_555
O1 C1 1_555 1_555
O2 C1 1_555 1_555
N3 Cu1 1_555 1_555
Cu3 Cu1 1_555 1_555
O5 Cu1 1_555 1_555
O6 Cu1 1_555 1_555
O7 Cu1 1_555 1_555
O2 Cu3 1_555 1_555
C2 C3 1_555 1_555
C4 C3 1_555 1_555
C5 C4 1_555 1_555
H2 C5 1_555 1_555
C6 C5 1_555 1_555
C7 C2 1_555 1_555
H3 C7 1_555 1_555
C8 C6 1_555 1_555
C9 C4 1_555 1_555
C10 C9 1_555 1_555
H4 C10 1_555 1_555
C11 C10 1_555 1_555
H5 C11 1_555 1_555
C12 C11 1_555 1_555
C13 C12 1_555 1_555
H6 C13 1_555 1_555
C14 C9 1_555 1_555
H7 C14 1_555 1_555
C15 H8 1_555 1_555
H9 C15 1_555 1_555
H10 C15 1_555 1_555
N1 C16 1_555 1_555
C16 C15 1_555 1_555
C17 C16 1_555 1_555
H11 C17 1_555 1_555
N2 C12 1_555 1_555
C18 N1 1_555 1_555
H12 C18 1_555 1_555
O3 C8 1_555 1_555
O4 C8 1_555 1_555
Cu2 O4 1_555 1_555
Cu4 O3 1_555 1_555
Cu5 N1 1_555 1_555
C6 C7 1_555 1_555
C13 C14 1_555 1_555
C17 N2 1_555 1_555
N2 C18 1_555 1_555
Cu2 Cu4 1_555 1_555
C1_2 C2_2 1_555 1_555
C2_2 C3_2 1_555 1_555
C3_2 H1_2 1_555 1_555
C4_2 C3_2 1_555 1_555
C5_2 C4_2 1_555 1_555
H2_2 C5_2 1_555 1_555
C6_2 C5_2 1_555 1_555
C7_2 C2_2 1_555 1_555
H3_2 C7_2 1_555 1_555
C8_2 C6_2 1_555 1_555
C9_2 C4_2 1_555 1_555
C10_2 C9_2 1_555 1_555
H4_2 C10_2 1_555 1_555
C11_2 C10_2 1_555 1_555
H5_2 C11_2 1_555 1_555
C12_2 C11_2 1_555 1_555
C13_2 C12_2 1_555 1_555
H6_2 C13_2 1_555 1_555
C14_2 C9_2 1_555 1_555
H7_2 C14_2 1_555 1_555
C15_2 H8_2 1_555 1_555
H9_2 C15_2 1_555 1_555
H10_2 C15_2 1_555 1_555
N1_2 C16_2 1_555 1_555
C16_2 C15_2 1_555 1_555
C17_2 C16_2 1_555 1_555
H11_2 C17_2 1_555 1_555
N2_2 C12_2 1_555 1_555
C18_2 N1_2 1_555 1_555
H12_2 C18_2 1_555 1_555
Cu1_2 O1_2 1_555 1_555
O1_2 C1_2 1_555 1_555
O2_2 C1_2 1_555 1_555
O3_2 C8_2 1_555 1_555
N3_2 Cu1_2 1_555 1_555
Cu3_2 Cu1_2 1_555 1_555
Cu5_2 N1_2 1_555 1_555
O5_2 Cu1_2 1_555 1_555
O6_2 Cu1_2 1_555 1_555
O7_2 Cu1_2 1_555 1_555
C6_2 C7_2 1_555 1_555
C13_2 C14_2 1_555 1_555
C17_2 N2_2 1_555 1_555
N2_2 C18_2 1_555 1_555
O2_2 Cu3_2 1_555 1_555
C2_3 C3_3 1_555 1_555
C4_3 C3_3 1_555 1_555
C5_3 C4_3 1_555 1_555
H2_3 C5_3 1_555 1_555
C6_3 C5_3 1_555 1_555
C7_3 C2_3 1_555 1_555
H3_3 C7_3 1_555 1_555
C8_3 C6_3 1_555 1_555
C9_3 C4_3 1_555 1_555
C10_3 C9_3 1_555 1_555
H4_3 C10_3 1_555 1_555
C11_3 C10_3 1_555 1_555
H5_3 C11_3 1_555 1_555
C12_3 C11_3 1_555 1_555
C13_3 C12_3 1_555 1_555
H6_3 C13_3 1_555 1_555
C14_3 C9_3 1_555 1_555
H7_3 C14_3 1_555 1_555
C15_3 H8_3 1_555 1_555
H9_3 C15_3 1_555 1_555
H10_3 C15_3 1_555 1_555
N1_3 C16_3 1_555 1_555
C16_3 C15_3 1_555 1_555
C17_3 C16_3 1_555 1_555
H11_3 C17_3 1_555 1_555
N2_3 C12_3 1_555 1_555
C18_3 N1_3 1_555 1_555
H12_3 C18_3 1_555 1_555
O3_3 C8_3 1_555 1_555
Cu5_3 N1_3 1_555 1_555
C6_3 C7_3 1_555 1_555
C13_3 C14_3 1_555 1_555
C17_3 N2_3 1_555 1_555
N2_3 C18_3 1_555 1_555
Cu2 O1_3 1_555 1_555
O1_3 C1_3 1_555 1_555
O2_3 C1_3 1_555 1_555
N3_3 Cu2 1_555 1_555
O5_3 Cu2 1_555 1_555
O6_3 Cu2 1_555 1_555
O2_3 Cu4 1_555 1_555
Cu1_3 O1_4 1_555 1_555
O1_4 C1_4 1_555 1_555
O2_4 C1_4 1_555 1_555
N3_4 Cu1_3 1_555 1_555
Cu3_3 Cu1_3 1_555 1_555
O5_4 Cu1_3 1_555 1_555
O6_4 Cu1_3 1_555 1_555
O7_3 Cu1_3 1_555 1_555
O2_4 Cu3_3 1_555 1_555
H5_4 C11_4 1_555 1_555
C12_4 C11_4 1_555 1_555
C15_4 H8_4 1_555 1_555
H9_4 C15_4 1_555 1_555
H10_4 C15_4 1_555 1_555
N1_4 C16_4 1_555 1_555
C16_4 C15_4 1_555 1_555
C17_4 C16_4 1_555 1_555
H11_4 C17_4 1_555 1_555
N2_4 C12_4 1_555 1_555
C18_4 N1_4 1_555 1_555
H12_4 C18_4 1_555 1_555
Cu5_4 N1_4 1_555 1_555
C17_4 N2_4 1_555 1_555
N2_4 C18_4 1_555 1_555
C2_4 C3_4 1_555 1_555
C4_4 C3_4 1_555 1_555
C5_4 C4_4 1_555 1_555
H2_4 C5_4 1_555 1_555
C6_4 C5_4 1_555 1_555
C7_4 C2_4 1_555 1_555
H3_4 C7_4 1_555 1_555
C8_4 C6_4 1_555 1_555
C9_4 C4_4 1_555 1_555
C10_4 C9_4 1_555 1_555
H4_4 C10_4 1_555 1_555
H6_4 C13_4 1_555 1_555
C14_4 C9_4 1_555 1_555
H7_4 C14_4 1_555 1_555
O3_4 C8_4 1_555 1_555
O4_2 C8_4 1_555 1_555
Cu2_2 O4_2 1_555 1_555
Cu4_2 O3_4 1_555 1_555
C6_4 C7_4 1_555 1_555
C13_4 C14_4 1_555 1_555
Cu2_2 Cu4_2 1_555 1_555
H5_5 C11_5 1_555 1_555
C12_5 C11_5 1_555 1_555
C15_5 H8_5 1_555 1_555
H9_5 C15_5 1_555 1_555
H10_5 C15_5 1_555 1_555
N1_5 C16_5 1_555 1_555
C16_5 C15_5 1_555 1_555
C17_5 C16_5 1_555 1_555
H11_5 C17_5 1_555 1_555
N2_5 C12_5 1_555 1_555
C18_5 N1_5 1_555 1_555
H12_5 C18_5 1_555 1_555
Cu5_5 N1_5 1_555 1_555
C17_5 N2_5 1_555 1_555
N2_5 C18_5 1_555 1_555
C1_5 C2_5 1_555 1_555
C2_5 C3_5 1_555 1_555
C3_5 H1_5 1_555 1_555
C4_5 C3_5 1_555 1_555
C5_5 C4_5 1_555 1_555
H2_5 C5_5 1_555 1_555
C6_5 C5_5 1_555 1_555
C7_5 C2_5 1_555 1_555
H3_5 C7_5 1_555 1_555
C8_5 C6_5 1_555 1_555
C9_5 C4_5 1_555 1_555
C10_5 C9_5 1_555 1_555
H4_5 C10_5 1_555 1_555
H6_5 C13_5 1_555 1_555
C14_5 C9_5 1_555 1_555
H7_5 C14_5 1_555 1_555
Cu1_4 O1_5 1_555 1_555
O1_5 C1_5 1_555 1_555
O2_5 C1_5 1_555 1_555
O3_5 C8_5 1_555 1_555
N3_5 Cu1_4 1_555 1_555
Cu3_4 Cu1_4 1_555 1_555
O5_5 Cu1_4 1_555 1_555
O6_5 Cu1_4 1_555 1_555
O7_4 Cu1_4 1_555 1_555
C6_5 C7_5 1_555 1_555
C13_5 C14_5 1_555 1_555
O2_5 Cu3_4 1_555 1_555
H5_6 C11_6 1_555 1_555
C12_6 C11_6 1_555 1_555
C15_6 H8_6 1_555 1_555
H9_6 C15_6 1_555 1_555
H10_6 C15_6 1_555 1_555
N1_6 C16_6 1_555 1_555
C16_6 C15_6 1_555 1_555
C17_6 C16_6 1_555 1_555
H11_6 C17_6 1_555 1_555
N2_6 C12_6 1_555 1_555
C18_6 N1_6 1_555 1_555
H12_6 C18_6 1_555 1_555
Cu5_6 N1_6 1_555 1_555
C17_6 N2_6 1_555 1_555
N2_6 C18_6 1_555 1_555
Cu2_2 O1_6 1_555 1_555
O1_6 C1_6 1_555 1_555
O2_6 C1_6 1_555 1_555
N3_6 Cu2_2 1_555 1_555
O5_6 Cu2_2 1_555 1_555
O6_6 Cu2_2 1_555 1_555
O2_6 Cu4_2 1_555 1_555
C1_7 C2_6 1_555 1_555
C2_6 C3_6 1_555 1_555
C3_6 H1_7 1_555 1_555
C4_6 C3_6 1_555 1_555
C5_6 C4_6 1_555 1_555
H2_6 C5_6 1_555 1_555
C6_6 C5_6 1_555 1_555
C7_6 C2_6 1_555 1_555
H3_6 C7_6 1_555 1_555
C8_6 C6_6 1_555 1_555
C9_6 C4_6 1_555 1_555
C10_6 C9_6 1_555 1_555
H4_6 C10_6 1_555 1_555
C11_7 C10_6 1_555 1_555
H5_7 C11_7 1_555 1_555
Cu3_3 O1_7 1_555 1_555
O1_7 C1_7 1_555 1_555
O5_4 C1_7 1_555 1_555
O6_5 C8_6 1_555 1_555
O4_3 C8_6 1_555 1_555
N3_7 Cu3_3 1_555 1_555
Cu3_4 O4_3 1_555 1_555
O7_5 Cu3_3 1_555 1_555
C6_6 C7_6 1_555 1_555
C13_6 C12_7 1_555 1_555
H6_6 C13_6 1_555 1_555
H7_6 C14_6 1_555 1_555
C15_7 H8_7 1_555 1_555
H9_7 C15_7 1_555 1_555
H10_7 C15_7 1_555 1_555
N1_7 C16_7 1_555 1_555
C16_7 C15_7 1_555 1_555
C17_7 C16_7 1_555 1_555
H11_7 C17_7 1_555 1_555
N2_7 C12_7 1_555 1_555
C18_7 N1_7 1_555 1_555
H12_7 C18_7 1_555 1_555
Cu5_7 N1_7 1_555 1_555
C13_6 C14_6 1_555 1_555
C17_7 N2_7 1_555 1_555
N2_7 C18_7 1_555 1_555
C13_7 C12_8 1_555 1_555
H6_7 C13_7 1_555 1_555
H7_7 C14_7 1_555 1_555
C15_8 H8_8 1_555 1_555
H9_8 C15_8 1_555 1_555
H10_8 C15_8 1_555 1_555
N1_8 C16_8 1_555 1_555
C16_8 C15_8 1_555 1_555
C17_8 C16_8 1_555 1_555
H11_8 C17_8 1_555 1_555
N2_8 C12_8 1_555 1_555
C18_8 N1_8 1_555 1_555
H12_8 C18_8 1_555 1_555
Cu5_8 N1_8 1_555 1_555
C13_7 C14_7 1_555 1_555
C17_8 N2_8 1_555 1_555
N2_8 C18_8 1_555 1_555
C1_8 C2_7 1_555 1_555
C2_7 C3_7 1_555 1_555
C3_7 H1_8 1_555 1_555
C4_7 C3_7 1_555 1_555
C5_7 C4_7 1_555 1_555
H2_7 C5_7 1_555 1_555
C6_7 C5_7 1_555 1_555
C7_7 C2_7 1_555 1_555
H3_7 C7_7 1_555 1_555
C8_7 C6_7 1_555 1_555
C9_7 C4_7 1_555 1_555
C10_7 C9_7 1_555 1_555
H4_7 C10_7 1_555 1_555
C11_8 C10_7 1_555 1_555
H5_8 C11_8 1_555 1_555
Cu4_2 O1_8 1_555 1_555
O1_8 C1_8 1_555 1_555
O5_6 C1_8 1_555 1_555
O6_4 C8_7 1_555 1_555
O7_5 C8_7 1_555 1_555
N3_8 Cu4_2 1_555 1_555
O7_6 Cu4_2 1_555 1_555
C6_7 C7_7 1_555 1_555
C1_9 C2_8 1_555 1_555
C2_8 C3_8 1_555 1_555
C3_8 H1_9 1_555 1_555
C4_8 C3_8 1_555 1_555
C5_8 C4_8 1_555 1_555
H2_8 C5_8 1_555 1_555
C6_8 C5_8 1_555 1_555
C7_8 C2_8 1_555 1_555
H3_8 C7_8 1_555 1_555
C8_8 C6_8 1_555 1_555
C9_8 C4_8 1_555 1_555
C10_8 C9_8 1_555 1_555
H4_8 C10_8 1_555 1_555
C11_9 C10_8 1_555 1_555
H5_9 C11_9 1_555 1_555
C12_9 C11_9 1_555 1_555
C13_8 C12_9 1_555 1_555
H6_8 C13_8 1_555 1_555
C14_8 C9_8 1_555 1_555
H7_8 C14_8 1_555 1_555
C15_9 H8_9 1_555 1_555
H9_9 C15_9 1_555 1_555
H10_9 C15_9 1_555 1_555
N1_9 C16_9 1_555 1_555
C16_9 C15_9 1_555 1_555
C17_9 C16_9 1_555 1_555
H11_9 C17_9 1_555 1_555
N2_9 C12_9 1_555 1_555
C18_9 N1_9 1_555 1_555
H12_9 C18_9 1_555 1_555
Cu3_4 O1_9 1_555 1_555
O1_9 C1_9 1_555 1_555
O5_5 C1_9 1_555 1_555
O6_6 C8_8 1_555 1_555
O7_6 C8_8 1_555 1_555
N3_9 Cu3_4 1_555 1_555
Cu5_9 N1_9 1_555 1_555
C6_8 C7_8 1_555 1_555
C13_8 C14_8 1_555 1_555
C17_9 N2_9 1_555 1_555
N2_9 C18_9 1_555 1_555
C1_10 C2_9 1_555 1_555
C2_9 C3_9 1_555 1_555
C3_9 H1_10 1_555 1_555
C4_9 C3_9 1_555 1_555
C5_9 C4_9 1_555 1_555
H2_9 C5_9 1_555 1_555
C6_9 C5_9 1_555 1_555
C7_9 C2_9 1_555 1_555
H3_9 C7_9 1_555 1_555
C8_9 C6_9 1_555 1_555
C9_9 C4_9 1_555 1_555
C10_9 C9_9 1_555 1_555
H4_9 C10_9 1_555 1_555
C11_10 C10_9 1_555 1_555
H5_10 C11_10 1_555 1_555
C12_10 C11_10 1_555 1_555
C13_9 C12_10 1_555 1_555
H6_9 C13_9 1_555 1_555
C14_9 C9_9 1_555 1_555
H7_9 C14_9 1_555 1_555
C15_10 H8_10 1_555 1_555
H9_10 C15_10 1_555 1_555
H10_10 C15_10 1_555 1_555
N1_10 C16_10 1_555 1_555
C16_10 C15_10 1_555 1_555
C17_10 C16_10 1_555 1_555
H11_10 C17_10 1_555 1_555
N2_10 C12_10 1_555 1_555
C18_10 N1_10 1_555 1_555
H12_10 C18_10 1_555 1_555
Cu1_5 O1_10 1_555 1_555
O1_10 C1_10 1_555 1_555
O2_7 C1_10 1_555 1_555
O3_6 C8_9 1_555 1_555
O4_4 C8_9 1_555 1_555
N3_10 Cu1_5 1_555 1_555
Cu3_5 Cu1_5 1_555 1_555
Cu4_3 O3_6 1_555 1_555
Cu5_10 N1_10 1_555 1_555
O5_7 Cu1_5 1_555 1_555
O6_7 Cu1_5 1_555 1_555
O7_7 Cu1_5 1_555 1_555
C6_9 C7_9 1_555 1_555
C13_9 C14_9 1_555 1_555
C17_10 N2_10 1_555 1_555
N2_10 C18_10 1_555 1_555
O2_7 Cu3_5 1_555 1_555
C15_11 H8_11 1_555 1_555
H9_11 C15_11 1_555 1_555
H10_11 C15_11 1_555 1_555
C16_11 C15_11 1_555 1_555
C17_11 C16_11 1_555 1_555
H11_11 C17_11 1_555 1_555
N3_11 Cu1_6 1_555 1_555
O5_8 Cu1_6 1_555 1_555
O6_8 Cu1_6 1_555 1_555
C1_11 C2_10 1_555 1_555
C2_10 C3_10 1_555 1_555
C3_10 H1_11 1_555 1_555
C4_10 C3_10 1_555 1_555
C5_10 C4_10 1_555 1_555
H2_10 C5_10 1_555 1_555
C6_10 C5_10 1_555 1_555
C7_10 C2_10 1_555 1_555
H3_10 C7_10 1_555 1_555
C8_10 C6_10 1_555 1_555
C9_10 C4_10 1_555 1_555
C10_10 C9_10 1_555 1_555
H4_10 C10_10 1_555 1_555
C11_11 C10_10 1_555 1_555
H5_11 C11_11 1_555 1_555
C12_11 C11_11 1_555 1_555
C13_10 C12_11 1_555 1_555
H6_10 C13_10 1_555 1_555
C14_10 C9_10 1_555 1_555
H7_10 C14_10 1_555 1_555
N2_11 C12_11 1_555 1_555
C18_11 N1_11 1_555 1_555
H12_11 C18_11 1_555 1_555
O1_11 C1_11 1_555 1_555
O2_8 C1_11 1_555 1_555
O3_7 C8_10 1_555 1_555
O7_7 C8_10 1_555 1_555
Cu3_5 O3_7 1_555 1_555
Cu5_11 N1_11 1_555 1_555
C6_10 C7_10 1_555 1_555
C13_10 C14_10 1_555 1_555
N2_11 C18_11 1_555 1_555
O2_8 Cu3_6 1_555 1_555
C1_12 C2_11 1_555 1_555
C2_11 C3_11 1_555 1_555
C3_11 H1_12 1_555 1_555
C4_11 C3_11 1_555 1_555
C5_11 C4_11 1_555 1_555
H2_11 C5_11 1_555 1_555
C6_11 C5_11 1_555 1_555
C7_11 C2_11 1_555 1_555
H3_11 C7_11 1_555 1_555
C8_11 C6_11 1_555 1_555
C9_11 C4_11 1_555 1_555
C10_11 C9_11 1_555 1_555
H4_11 C10_11 1_555 1_555
C11_12 C10_11 1_555 1_555
H5_12 C11_12 1_555 1_555
C12_12 C11_12 1_555 1_555
C13_11 C12_12 1_555 1_555
H6_11 C13_11 1_555 1_555
C14_11 C9_11 1_555 1_555
H7_11 C14_11 1_555 1_555
N2_12 C12_12 1_555 1_555
C18_12 N1_12 1_555 1_555
H12_12 C18_12 1_555 1_555
O1_12 C1_12 1_555 1_555
O2_9 C1_12 1_555 1_555
O3_8 C8_11 1_555 1_555
O7_8 C8_11 1_555 1_555
Cu3_6 O3_8 1_555 1_555
Cu5_12 N1_12 1_555 1_555
C6_11 C7_11 1_555 1_555
C13_11 C14_11 1_555 1_555
N2_12 C18_12 1_555 1_555
O2_9 Cu4_3 1_555 1_555
C15_12 H8_12 1_555 1_555
H9_12 C15_12 1_555 1_555
H10_12 C15_12 1_555 1_555
C16_12 C15_12 1_555 1_555
C17_12 C16_12 1_555 1_555
H11_12 C17_12 1_555 1_555
N3_12 Cu2_3 1_555 1_555
O5_9 Cu2_3 1_555 1_555
O6_9 Cu2_3 1_555 1_555
C1_13 C2_12 1_555 1_555
C2_12 C3_12 1_555 1_555
C3_12 H1_13 1_555 1_555
C4_12 C3_12 1_555 1_555
C5_12 C4_12 1_555 1_555
H2_12 C5_12 1_555 1_555
C6_12 C5_12 1_555 1_555
C7_12 C2_12 1_555 1_555
H3_12 C7_12 1_555 1_555
C8_12 C6_12 1_555 1_555
C9_12 C4_12 1_555 1_555
C10_12 C9_12 1_555 1_555
H4_12 C10_12 1_555 1_555
C11_13 C10_12 1_555 1_555
H5_13 C11_13 1_555 1_555
C12_13 C11_13 1_555 1_555
C13_12 C12_13 1_555 1_555
H6_12 C13_12 1_555 1_555
C14_12 C9_12 1_555 1_555
H7_12 C14_12 1_555 1_555
C15_13 H8_13 1_555 1_555
H9_13 C15_13 1_555 1_555
H10_13 C15_13 1_555 1_555
N1_13 C16_13 1_555 1_555
C16_13 C15_13 1_555 1_555
C17_13 C16_13 1_555 1_555
H11_13 C17_13 1_555 1_555
N2_13 C12_13 1_555 1_555
C18_13 N1_13 1_555 1_555
H12_13 C18_13 1_555 1_555
Cu3_5 O1_13 1_555 1_555
O1_13 C1_13 1_555 1_555
O5_7 C1_13 1_555 1_555
O6_8 C8_12 1_555 1_555
O4_5 C8_12 1_555 1_555
N3_13 Cu3_5 1_555 1_555
Cu5_13 N1_13 1_555 1_555
O7_9 Cu3_5 1_555 1_555
C6_12 C7_12 1_555 1_555
C13_12 C14_12 1_555 1_555
C17_13 N2_13 1_555 1_555
N2_13 C18_13 1_555 1_555
C15_14 H8_14 1_555 1_555
H9_14 C15_14 1_555 1_555
H10_14 C15_14 1_555 1_555
C16_14 C15_14 1_555 1_555
C17_14 C16_14 1_555 1_555
H11_14 C17_14 1_555 1_555
N3_14 Cu4_3 1_555 1_555
C1_14 C2_13 1_555 1_555
C2_13 C3_13 1_555 1_555
C3_13 H1_14 1_555 1_555
C4_13 C3_13 1_555 1_555
C5_13 C4_13 1_555 1_555
H2_13 C5_13 1_555 1_555
C6_13 C5_13 1_555 1_555
C7_13 C2_13 1_555 1_555
H3_13 C7_13 1_555 1_555
C8_13 C6_13 1_555 1_555
C9_13 C4_13 1_555 1_555
C10_13 C9_13 1_555 1_555
H4_13 C10_13 1_555 1_555
C11_14 C10_13 1_555 1_555
H5_14 C11_14 1_555 1_555
C12_14 C11_14 1_555 1_555
C13_13 C12_14 1_555 1_555
H6_13 C13_13 1_555 1_555
C14_13 C9_13 1_555 1_555
H7_13 C14_13 1_555 1_555
N2_14 C12_14 1_555 1_555
C18_14 N1_14 1_555 1_555
H12_14 C18_14 1_555 1_555
O1_14 C1_14 1_555 1_555
O5_9 C1_14 1_555 1_555
O6_7 C8_13 1_555 1_555
O7_9 C8_13 1_555 1_555
Cu5_14 N1_14 1_555 1_555
C6_13 C7_13 1_555 1_555
C13_13 C14_13 1_555 1_555
N2_14 C18_14 1_555 1_555
C1_15 C2_14 1_555 1_555
C2_14 C3_14 1_555 1_555
C3_14 H1_15 1_555 1_555
C4_14 C3_14 1_555 1_555
C5_14 C4_14 1_555 1_555
H2_14 C5_14 1_555 1_555
C6_14 C5_14 1_555 1_555
C7_14 C2_14 1_555 1_555
H3_14 C7_14 1_555 1_555
C8_14 C6_14 1_555 1_555
C9_14 C4_14 1_555 1_555
C10_14 C9_14 1_555 1_555
H4_14 C10_14 1_555 1_555
C11_15 C10_14 1_555 1_555
H5_15 C11_15 1_555 1_555
C12_15 C11_15 1_555 1_555
C13_14 C12_15 1_555 1_555
H6_14 C13_14 1_555 1_555
C14_14 C9_14 1_555 1_555
H7_14 C14_14 1_555 1_555
N2_15 C12_15 1_555 1_555
C18_15 N1_15 1_555 1_555
H12_15 C18_15 1_555 1_555
O1_15 C1_15 1_555 1_555
O5_8 C1_15 1_555 1_555
O6_9 C8_14 1_555 1_555
O7_10 C8_14 1_555 1_555
Cu5_15 N1_15 1_555 1_555
C6_14 C7_14 1_555 1_555
C13_14 C14_14 1_555 1_555
N2_15 C18_15 1_555 1_555
C15_15 H8_15 1_555 1_555
H9_15 C15_15 1_555 1_555
H10_15 C15_15 1_555 1_555
C16_15 C15_15 1_555 1_555
C17_15 C16_15 1_555 1_555
H11_15 C17_15 1_555 1_555
N3_15 Cu3_6 1_555 1_555
C1_16 C2_15 1_555 1_555
C2_15 C3_15 1_555 1_555
C3_15 H1_16 1_555 1_555
C4_15 C3_15 1_555 1_555
C5_15 C4_15 1_555 1_555
H2_15 C5_15 1_555 1_555
C6_15 C5_15 1_555 1_555
C7_15 C2_15 1_555 1_555
H3_15 C7_15 1_555 1_555
C8_15 C6_15 1_555 1_555
C9_15 C4_15 1_555 1_555
C10_15 C9_15 1_555 1_555
H4_15 C10_15 1_555 1_555
C11_16 C10_15 1_555 1_555
H5_16 C11_16 1_555 1_555
Cu3 O1_16 1_555 1_555
O1_16 C1_16 1_555 1_555
O5 C1_16 1_555 1_555
O6_2 C8_15 1_555 1_555
O4_6 C8_15 1_555 1_555
N3_16 Cu3 1_555 1_555
Cu3_2 O4_6 1_555 1_555
O7_11 Cu3 1_555 1_555
C6_15 C7_15 1_555 1_555
C13_15 C12_16 1_555 1_555
H6_15 C13_15 1_555 1_555
H7_15 C14_15 1_555 1_555
C15_16 H8_16 1_555 1_555
H9_16 C15_16 1_555 1_555
H10_16 C15_16 1_555 1_555
N1_16 C16_16 1_555 1_555
C16_16 C15_16 1_555 1_555
C17_16 C16_16 1_555 1_555
H11_16 C17_16 1_555 1_555
N2_16 C12_16 1_555 1_555
C18_16 N1_16 1_555 1_555
H12_16 C18_16 1_555 1_555
Cu5_16 N1_16 1_555 1_555
C13_15 C14_15 1_555 1_555
C17_16 N2_16 1_555 1_555
N2_16 C18_16 1_555 1_555
C13_16 C12_17 1_555 1_555
H6_16 C13_16 1_555 1_555
H7_16 C14_16 1_555 1_555
C15_17 H8_17 1_555 1_555
H9_17 C15_17 1_555 1_555
H10_17 C15_17 1_555 1_555
N1_17 C16_17 1_555 1_555
C16_17 C15_17 1_555 1_555
C17_17 C16_17 1_555 1_555
H11_17 C17_17 1_555 1_555
N2_17 C12_17 1_555 1_555
C18_17 N1_17 1_555 1_555
H12_17 C18_17 1_555 1_555
Cu5_17 N1_17 1_555 1_555
C13_16 C14_16 1_555 1_555
C17_17 N2_17 1_555 1_555
N2_17 C18_17 1_555 1_555
C1_17 C2_16 1_555 1_555
C2_16 C3_16 1_555 1_555
C3_16 H1_17 1_555 1_555
C4_16 C3_16 1_555 1_555
C5_16 C4_16 1_555 1_555
H2_16 C5_16 1_555 1_555
C6_16 C5_16 1_555 1_555
C7_16 C2_16 1_555 1_555
H3_16 C7_16 1_555 1_555
C8_16 C6_16 1_555 1_555
C9_16 C4_16 1_555 1_555
C10_16 C9_16 1_555 1_555
H4_16 C10_16 1_555 1_555
C11_17 C10_16 1_555 1_555
H5_17 C11_17 1_555 1_555
Cu4 O1_17 1_555 1_555
O1_17 C1_17 1_555 1_555
O5_3 C1_17 1_555 1_555
O6 C8_16 1_555 1_555
O7_11 C8_16 1_555 1_555
N3_17 Cu4 1_555 1_555
O7_12 Cu4 1_555 1_555
C6_16 C7_16 1_555 1_555
C1_18 C2_17 1_555 1_555
C2_17 C3_17 1_555 1_555
C3_17 H1_18 1_555 1_555
C4_17 C3_17 1_555 1_555
C5_17 C4_17 1_555 1_555
H2_17 C5_17 1_555 1_555
C6_17 C5_17 1_555 1_555
C7_17 C2_17 1_555 1_555
H3_17 C7_17 1_555 1_555
C8_17 C6_17 1_555 1_555
C9_17 C4_17 1_555 1_555
C10_17 C9_17 1_555 1_555
H4_17 C10_17 1_555 1_555
C11_18 C10_17 1_555 1_555
H5_18 C11_18 1_555 1_555
C12_18 C11_18 1_555 1_555
C13_17 C12_18 1_555 1_555
H6_17 C13_17 1_555 1_555
C14_17 C9_17 1_555 1_555
H7_17 C14_17 1_555 1_555
C15_18 H8_18 1_555 1_555
H9_18 C15_18 1_555 1_555
H10_18 C15_18 1_555 1_555
N1_18 C16_18 1_555 1_555
C16_18 C15_18 1_555 1_555
C17_18 C16_18 1_555 1_555
H11_18 C17_18 1_555 1_555
N2_18 C12_18 1_555 1_555
C18_18 N1_18 1_555 1_555
H12_18 C18_18 1_555 1_555
Cu3_2 O1_18 1_555 1_555
O1_18 C1_18 1_555 1_555
O5_2 C1_18 1_555 1_555
O6_3 C8_17 1_555 1_555
O7_12 C8_17 1_555 1_555
N3_18 Cu3_2 1_555 1_555
Cu5_18 N1_18 1_555 1_555
C6_17 C7_17 1_555 1_555
C13_17 C14_17 1_555 1_555
C17_18 N2_18 1_555 1_555
N2_18 C18_18 1_555 1_555
C2_18 C3_18 1_555 1_555
C4_18 C3_18 1_555 1_555
C5_18 C4_18 1_555 1_555
H2_18 C5_18 1_555 1_555
C6_18 C5_18 1_555 1_555
C7_18 C2_18 1_555 1_555
H3_18 C7_18 1_555 1_555
C8_18 C6_18 1_555 1_555
C9_18 C4_18 1_555 1_555
C10_18 C9_18 1_555 1_555
H4_18 C10_18 1_555 1_555
C11_19 C10_18 1_555 1_555
H5_19 C11_19 1_555 1_555
C12_19 C11_19 1_555 1_555
C13_18 C12_19 1_555 1_555
H6_18 C13_18 1_555 1_555
C14_18 C9_18 1_555 1_555
H7_18 C14_18 1_555 1_555
C15_19 H8_19 1_555 1_555
H9_19 C15_19 1_555 1_555
H10_19 C15_19 1_555 1_555
N3_2 C16_19 1_555 1_555
C16_19 C15_19 1_555 1_555
C17_19 C16_19 1_555 1_555
H11_19 C17_19 1_555 1_555
N2_19 C12_19 1_555 1_555
C18_19 N3_2 1_555 1_555
H12_19 C18_19 1_555 1_555
O3_9 C8_18 1_555 1_555
O4_7 C8_18 1_555 1_555
Cu5_2 O4_7 1_555 1_555
Cu5_10 O3_9 1_555 1_555
C6_18 C7_18 1_555 1_555
C13_18 C14_18 1_555 1_555
C17_19 N2_19 1_555 1_555
N2_19 C18_19 1_555 1_555
Cu5_2 Cu5_10 1_555 1_555
Cu5_3 O1_19 1_555 1_555
O1_19 C1_19 1_555 1_555
O2_10 C1_19 1_555 1_555
Cu5_12 Cu5_3 1_555 1_555
O5_10 Cu5_3 1_555 1_555
O6_10 Cu5_3 1_555 1_555
O7_13 Cu5_3 1_555 1_555
O2_10 Cu5_12 1_555 1_555
C1_20 C2_19 1_555 1_555
C2_19 C3_19 1_555 1_555
C3_19 H1_20 1_555 1_555
C4_19 C3_19 1_555 1_555
C5_19 C4_19 1_555 1_555
H2_19 C5_19 1_555 1_555
C6_19 C5_19 1_555 1_555
C7_19 C2_19 1_555 1_555
H3_19 C7_19 1_555 1_555
C8_19 C6_19 1_555 1_555
C9_19 C4_19 1_555 1_555
C10_19 C9_19 1_555 1_555
H4_19 C10_19 1_555 1_555
C11_20 C10_19 1_555 1_555
H5_20 C11_20 1_555 1_555
C12_20 C11_20 1_555 1_555
C13_19 C12_20 1_555 1_555
H6_19 C13_19 1_555 1_555
C14_19 C9_19 1_555 1_555
H7_19 C14_19 1_555 1_555
C15_20 H8_20 1_555 1_555
H9_20 C15_20 1_555 1_555
H10_20 C15_20 1_555 1_555
N3_3 C16_20 1_555 1_555
C16_20 C15_20 1_555 1_555
C17_20 C16_20 1_555 1_555
H11_20 C17_20 1_555 1_555
N2_20 C12_20 1_555 1_555
C18_20 N3_3 1_555 1_555
H12_20 C18_20 1_555 1_555
Cu5 O1_20 1_555 1_555
O1_20 C1_20 1_555 1_555
O2_11 C1_20 1_555 1_555
O3_10 C8_19 1_555 1_555
Cu5_11 Cu5 1_555 1_555
O5_11 Cu5 1_555 1_555
O6_11 Cu5 1_555 1_555
O7_14 Cu5 1_555 1_555
C6_19 C7_19 1_555 1_555
C13_19 C14_19 1_555 1_555
C17_20 N2_20 1_555 1_555
N2_20 C18_20 1_555 1_555
O2_11 Cu5_11 1_555 1_555
Cu5_2 O1_21 1_555 1_555
O1_21 C1_21 1_555 1_555
O2_12 C1_21 1_555 1_555
O5_12 Cu5_2 1_555 1_555
O6_12 Cu5_2 1_555 1_555
O2_12 Cu5_10 1_555 1_555
C2_20 C3_20 1_555 1_555
C4_20 C3_20 1_555 1_555
C5_20 C4_20 1_555 1_555
H2_20 C5_20 1_555 1_555
C6_20 C5_20 1_555 1_555
C7_20 C2_20 1_555 1_555
H3_20 C7_20 1_555 1_555
C8_20 C6_20 1_555 1_555
C9_20 C4_20 1_555 1_555
C10_20 C9_20 1_555 1_555
H4_20 C10_20 1_555 1_555
C11_21 C10_20 1_555 1_555
H5_21 C11_21 1_555 1_555
C12_21 C11_21 1_555 1_555
C13_20 C12_21 1_555 1_555
H6_20 C13_20 1_555 1_555
C14_20 C9_20 1_555 1_555
H7_20 C14_20 1_555 1_555
C15_21 H8_21 1_555 1_555
H9_21 C15_21 1_555 1_555
H10_21 C15_21 1_555 1_555
N3 C16_21 1_555 1_555
C16_21 C15_21 1_555 1_555
C17_21 C16_21 1_555 1_555
H11_21 C17_21 1_555 1_555
N2_21 C12_21 1_555 1_555
C18_21 N3 1_555 1_555
H12_21 C18_21 1_555 1_555
O3_11 C8_20 1_555 1_555
C6_20 C7_20 1_555 1_555
C13_20 C14_20 1_555 1_555
C17_21 N2_21 1_555 1_555
N2_21 C18_21 1_555 1_555
C2_21 C3_21 1_555 1_555
C4_21 C3_21 1_555 1_555
C5_21 C4_21 1_555 1_555
H2_21 C5_21 1_555 1_555
C6_21 C5_21 1_555 1_555
C7_21 C2_21 1_555 1_555
H3_21 C7_21 1_555 1_555
C8_21 C6_21 1_555 1_555
C9_21 C4_21 1_555 1_555
C10_21 C9_21 1_555 1_555
H4_21 C10_21 1_555 1_555
H6_21 C13_21 1_555 1_555
C14_21 C9_21 1_555 1_555
H7_21 C14_21 1_555 1_555
O3_12 C8_21 1_555 1_555
O4_8 C8_21 1_555 1_555
Cu5_5 O4_8 1_555 1_555
Cu5_13 O3_12 1_555 1_555
C6_21 C7_21 1_555 1_555
C13_21 C14_21 1_555 1_555
Cu5_5 Cu5_13 1_555 1_555
H5_22 C11_22 1_555 1_555
C12_22 C11_22 1_555 1_555
C15_22 H8_22 1_555 1_555
H9_22 C15_22 1_555 1_555
H10_22 C15_22 1_555 1_555
N3_5 C16_22 1_555 1_555
C16_22 C15_22 1_555 1_555
C17_22 C16_22 1_555 1_555
H11_22 C17_22 1_555 1_555
N2_22 C12_22 1_555 1_555
C18_22 N3_5 1_555 1_555
H12_22 C18_22 1_555 1_555
C17_22 N2_22 1_555 1_555
N2_22 C18_22 1_555 1_555
Cu5_6 O1_22 1_555 1_555
O1_22 C1_22 1_555 1_555
O2_13 C1_22 1_555 1_555
Cu5_15 Cu5_6 1_555 1_555
O5_13 Cu5_6 1_555 1_555
O6_13 Cu5_6 1_555 1_555
O7_15 Cu5_6 1_555 1_555
O2_13 Cu5_15 1_555 1_555
C1_23 C2_22 1_555 1_555
C2_22 C3_22 1_555 1_555
C3_22 H1_23 1_555 1_555
C4_22 C3_22 1_555 1_555
C5_22 C4_22 1_555 1_555
H2_22 C5_22 1_555 1_555
C6_22 C5_22 1_555 1_555
C7_22 C2_22 1_555 1_555
H3_22 C7_22 1_555 1_555
C8_22 C6_22 1_555 1_555
C9_22 C4_22 1_555 1_555
C10_22 C9_22 1_555 1_555
H4_22 C10_22 1_555 1_555
H6_22 C13_22 1_555 1_555
C14_22 C9_22 1_555 1_555
H7_22 C14_22 1_555 1_555
Cu5_4 O1_23 1_555 1_555
O1_23 C1_23 1_555 1_555
O2_14 C1_23 1_555 1_555
O3_13 C8_22 1_555 1_555
Cu5_14 Cu5_4 1_555 1_555
O5_14 Cu5_4 1_555 1_555
O6_14 Cu5_4 1_555 1_555
O7_16 Cu5_4 1_555 1_555
C6_22 C7_22 1_555 1_555
C13_22 C14_22 1_555 1_555
O2_14 Cu5_14 1_555 1_555
H5_23 C11_23 1_555 1_555
C12_23 C11_23 1_555 1_555
C15_23 H8_23 1_555 1_555
H9_23 C15_23 1_555 1_555
H10_23 C15_23 1_555 1_555
N3_6 C16_23 1_555 1_555
C16_23 C15_23 1_555 1_555
C17_23 C16_23 1_555 1_555
H11_23 C17_23 1_555 1_555
N2_23 C12_23 1_555 1_555
C18_23 N3_6 1_555 1_555
H12_23 C18_23 1_555 1_555
C17_23 N2_23 1_555 1_555
N2_23 C18_23 1_555 1_555
Cu5_5 O1_24 1_555 1_555
O1_24 C1_24 1_555 1_555
O2_15 C1_24 1_555 1_555
O5_15 Cu5_5 1_555 1_555
O6_15 Cu5_5 1_555 1_555
O2_15 Cu5_13 1_555 1_555
H5_24 C11_24 1_555 1_555
C12_24 C11_24 1_555 1_555
C15_24 H8_24 1_555 1_555
H9_24 C15_24 1_555 1_555
H10_24 C15_24 1_555 1_555
N3_4 C16_24 1_555 1_555
C16_24 C15_24 1_555 1_555
C17_24 C16_24 1_555 1_555
H11_24 C17_24 1_555 1_555
N2_24 C12_24 1_555 1_555
C18_24 N3_4 1_555 1_555
H12_24 C18_24 1_555 1_555
C17_24 N2_24 1_555 1_555
N2_24 C18_24 1_555 1_555
C13_23 C12_25 1_555 1_555
H6_23 C13_23 1_555 1_555
H7_23 C14_23 1_555 1_555
C15_25 H8_25 1_555 1_555
H9_25 C15_25 1_555 1_555
H10_25 C15_25 1_555 1_555
N3_14 C16_25 1_555 1_555
C16_25 C15_25 1_555 1_555
C17_25 C16_25 1_555 1_555
H11_25 C17_25 1_555 1_555
N2_25 C12_25 1_555 1_555
C18_25 N3_14 1_555 1_555
H12_25 C18_25 1_555 1_555
C13_23 C14_23 1_555 1_555
C17_25 N2_25 1_555 1_555
N2_25 C18_25 1_555 1_555
C1_25 C2_23 1_555 1_555
C2_23 C3_23 1_555 1_555
C3_23 H1_25 1_555 1_555
C4_23 C3_23 1_555 1_555
C5_23 C4_23 1_555 1_555
H2_23 C5_23 1_555 1_555
C6_23 C5_23 1_555 1_555
C7_23 C2_23 1_555 1_555
H3_23 C7_23 1_555 1_555
C8_23 C6_23 1_555 1_555
C9_23 C4_23 1_555 1_555
C10_23 C9_23 1_555 1_555
H4_23 C10_23 1_555 1_555
C11_25 C10_23 1_555 1_555
H5_25 C11_25 1_555 1_555
Cu5_15 O1_25 1_555 1_555
O1_25 C1_25 1_555 1_555
O5_13 C1_25 1_555 1_555
O6_14 C8_23 1_555 1_555
O4_9 C8_23 1_555 1_555
Cu5_14 O4_9 1_555 1_555
O7_17 Cu5_15 1_555 1_555
C6_23 C7_23 1_555 1_555
C1_26 C2_24 1_555 1_555
C2_24 C3_24 1_555 1_555
C3_24 H1_26 1_555 1_555
C4_24 C3_24 1_555 1_555
C5_24 C4_24 1_555 1_555
H2_24 C5_24 1_555 1_555
C6_24 C5_24 1_555 1_555
C7_24 C2_24 1_555 1_555
H3_24 C7_24 1_555 1_555
C8_24 C6_24 1_555 1_555
C9_24 C4_24 1_555 1_555
C10_24 C9_24 1_555 1_555
H4_24 C10_24 1_555 1_555
C11_26 C10_24 1_555 1_555
H5_26 C11_26 1_555 1_555
Cu5_13 O1_26 1_555 1_555
O1_26 C1_26 1_555 1_555
O5_15 C1_26 1_555 1_555
O6_13 C8_24 1_555 1_555
O7_17 C8_24 1_555 1_555
O7_18 Cu5_13 1_555 1_555
C6_24 C7_24 1_555 1_555
C13_24 C12_26 1_555 1_555
H6_24 C13_24 1_555 1_555
H7_24 C14_24 1_555 1_555
C15_26 H8_26 1_555 1_555
H9_26 C15_26 1_555 1_555
H10_26 C15_26 1_555 1_555
N3_15 C16_26 1_555 1_555
C16_26 C15_26 1_555 1_555
C17_26 C16_26 1_555 1_555
H11_26 C17_26 1_555 1_555
N2_26 C12_26 1_555 1_555
C18_26 N3_15 1_555 1_555
H12_26 C18_26 1_555 1_555
C13_24 C14_24 1_555 1_555
C17_26 N2_26 1_555 1_555
N2_26 C18_26 1_555 1_555
C1_27 C2_25 1_555 1_555
C2_25 C3_25 1_555 1_555
C3_25 H1_27 1_555 1_555
C4_25 C3_25 1_555 1_555
C5_25 C4_25 1_555 1_555
H2_25 C5_25 1_555 1_555
C6_25 C5_25 1_555 1_555
C7_25 C2_25 1_555 1_555
H3_25 C7_25 1_555 1_555
C8_25 C6_25 1_555 1_555
C9_25 C4_25 1_555 1_555
C10_25 C9_25 1_555 1_555
H4_25 C10_25 1_555 1_555
C11_27 C10_25 1_555 1_555
H5_27 C11_27 1_555 1_555
C12_27 C11_27 1_555 1_555
C13_25 C12_27 1_555 1_555
H6_25 C13_25 1_555 1_555
C14_25 C9_25 1_555 1_555
H7_25 C14_25 1_555 1_555
C15_27 H8_27 1_555 1_555
H9_27 C15_27 1_555 1_555
H10_27 C15_27 1_555 1_555
N3_13 C16_27 1_555 1_555
C16_27 C15_27 1_555 1_555
C17_27 C16_27 1_555 1_555
H11_27 C17_27 1_555 1_555
N2_27 C12_27 1_555 1_555
C18_27 N3_13 1_555 1_555
H12_27 C18_27 1_555 1_555
Cu5_14 O1_27 1_555 1_555
O1_27 C1_27 1_555 1_555
O5_14 C1_27 1_555 1_555
O6_15 C8_25 1_555 1_555
O7_18 C8_25 1_555 1_555
C6_25 C7_25 1_555 1_555
C13_25 C14_25 1_555 1_555
C17_27 N2_27 1_555 1_555
N2_27 C18_27 1_555 1_555
C1_28 C2_26 1_555 1_555
C2_26 C3_26 1_555 1_555
C3_26 H1_28 1_555 1_555
C4_26 C3_26 1_555 1_555
C5_26 C4_26 1_555 1_555
H2_26 C5_26 1_555 1_555
C6_26 C5_26 1_555 1_555
C7_26 C2_26 1_555 1_555
H3_26 C7_26 1_555 1_555
C8_26 C6_26 1_555 1_555
C9_26 C4_26 1_555 1_555
C10_26 C9_26 1_555 1_555
H4_26 C10_26 1_555 1_555
C11_28 C10_26 1_555 1_555
H5_28 C11_28 1_555 1_555
C12_28 C11_28 1_555 1_555
C13_26 C12_28 1_555 1_555
H6_26 C13_26 1_555 1_555
C14_26 C9_26 1_555 1_555
H7_26 C14_26 1_555 1_555
C15_28 H8_28 1_555 1_555
H9_28 C15_28 1_555 1_555
H10_28 C15_28 1_555 1_555
N3_17 C16_28 1_555 1_555
C16_28 C15_28 1_555 1_555
C17_28 C16_28 1_555 1_555
H11_28 C17_28 1_555 1_555
N2_28 C12_28 1_555 1_555
C18_28 N3_17 1_555 1_555
H12_28 C18_28 1_555 1_555
Cu5_18 O1_28 1_555 1_555
O1_28 C1_28 1_555 1_555
O2_16 C1_28 1_555 1_555
O3_14 C8_26 1_555 1_555
O4_10 C8_26 1_555 1_555
Cu5_9 Cu5_18 1_555 1_555
Cu5_7 O3_14 1_555 1_555
O5_16 Cu5_18 1_555 1_555
O6_16 Cu5_18 1_555 1_555
O7_19 Cu5_18 1_555 1_555
C6_26 C7_26 1_555 1_555
C13_26 C14_26 1_555 1_555
C17_28 N2_28 1_555 1_555
N2_28 C18_28 1_555 1_555
O2_16 Cu5_9 1_555 1_555
C1_29 C2_27 1_555 1_555
C2_27 C3_27 1_555 1_555
C3_27 H1_29 1_555 1_555
C4_27 C3_27 1_555 1_555
C5_27 C4_27 1_555 1_555
H2_27 C5_27 1_555 1_555
C6_27 C5_27 1_555 1_555
C7_27 C2_27 1_555 1_555
H3_27 C7_27 1_555 1_555
C8_27 C6_27 1_555 1_555
C9_27 C4_27 1_555 1_555
C10_27 C9_27 1_555 1_555
H4_27 C10_27 1_555 1_555
C11_29 C10_27 1_555 1_555
H5_29 C11_29 1_555 1_555
C12_29 C11_29 1_555 1_555
C13_27 C12_29 1_555 1_555
H6_27 C13_27 1_555 1_555
C14_27 C9_27 1_555 1_555
H7_27 C14_27 1_555 1_555
N2_29 C12_29 1_555 1_555
C18_29 N3_18 1_555 1_555
H12_29 C18_29 1_555 1_555
O1_29 C1_29 1_555 1_555
O2_17 C1_29 1_555 1_555
O3_15 C8_27 1_555 1_555
O7_19 C8_27 1_555 1_555
Cu5_9 O3_15 1_555 1_555
C6_27 C7_27 1_555 1_555
C13_27 C14_27 1_555 1_555
N2_29 C18_29 1_555 1_555
O2_17 Cu5_8 1_555 1_555
C15_29 H8_29 1_555 1_555
H9_29 C15_29 1_555 1_555
H10_29 C15_29 1_555 1_555
C16_29 C15_29 1_555 1_555
C17_29 C16_29 1_555 1_555
H11_29 C17_29 1_555 1_555
O5_17 Cu5_16 1_555 1_555
O6_17 Cu5_16 1_555 1_555
C15_30 H8_30 1_555 1_555
H9_30 C15_30 1_555 1_555
H10_30 C15_30 1_555 1_555
C16_30 C15_30 1_555 1_555
C17_30 C16_30 1_555 1_555
H11_30 C17_30 1_555 1_555
O5_18 Cu5_17 1_555 1_555
O6_18 Cu5_17 1_555 1_555
C1_30 C2_28 1_555 1_555
C2_28 C3_28 1_555 1_555
C3_28 H1_30 1_555 1_555
C4_28 C3_28 1_555 1_555
C5_28 C4_28 1_555 1_555
H2_28 C5_28 1_555 1_555
C6_28 C5_28 1_555 1_555
C7_28 C2_28 1_555 1_555
H3_28 C7_28 1_555 1_555
C8_28 C6_28 1_555 1_555
C9_28 C4_28 1_555 1_555
C10_28 C9_28 1_555 1_555
H4_28 C10_28 1_555 1_555
C11_30 C10_28 1_555 1_555
H5_30 C11_30 1_555 1_555
C12_30 C11_30 1_555 1_555
C13_28 C12_30 1_555 1_555
H6_28 C13_28 1_555 1_555
C14_28 C9_28 1_555 1_555
H7_28 C14_28 1_555 1_555
N2_30 C12_30 1_555 1_555
C18_30 N3_16 1_555 1_555
H12_30 C18_30 1_555 1_555
O1_30 C1_30 1_555 1_555
O2_18 C1_30 1_555 1_555
O3_16 C8_28 1_555 1_555
O7_20 C8_28 1_555 1_555
Cu5_8 O3_16 1_555 1_555
C6_28 C7_28 1_555 1_555
C13_28 C14_28 1_555 1_555
N2_30 C18_30 1_555 1_555
O2_18 Cu5_7 1_555 1_555
C1_31 C2_29 1_555 1_555
C2_29 C3_29 1_555 1_555
C3_29 H1_31 1_555 1_555
C4_29 C3_29 1_555 1_555
C5_29 C4_29 1_555 1_555
H2_29 C5_29 1_555 1_555
C6_29 C5_29 1_555 1_555
C7_29 C2_29 1_555 1_555
H3_29 C7_29 1_555 1_555
C8_29 C6_29 1_555 1_555
C9_29 C4_29 1_555 1_555
C10_29 C9_29 1_555 1_555
H4_29 C10_29 1_555 1_555
C11_31 C10_29 1_555 1_555
H5_31 C11_31 1_555 1_555
C12_31 C11_31 1_555 1_555
C13_29 C12_31 1_555 1_555
H6_29 C13_29 1_555 1_555
C14_29 C9_29 1_555 1_555
H7_29 C14_29 1_555 1_555
C15_31 H8_31 1_555 1_555
H9_31 C15_31 1_555 1_555
H10_31 C15_31 1_555 1_555
N3_8 C16_31 1_555 1_555
C16_31 C15_31 1_555 1_555
C17_31 C16_31 1_555 1_555
H11_31 C17_31 1_555 1_555
N2_31 C12_31 1_555 1_555
C18_31 N3_8 1_555 1_555
H12_31 C18_31 1_555 1_555
Cu5_9 O1_31 1_555 1_555
O1_31 C1_31 1_555 1_555
O5_16 C1_31 1_555 1_555
O6_17 C8_29 1_555 1_555
O4_11 C8_29 1_555 1_555
O7_21 Cu5_9 1_555 1_555
C6_29 C7_29 1_555 1_555
C13_29 C14_29 1_555 1_555
C17_31 N2_31 1_555 1_555
N2_31 C18_31 1_555 1_555
C1_32 C2_30 1_555 1_555
C2_30 C3_30 1_555 1_555
C3_30 H1_32 1_555 1_555
C4_30 C3_30 1_555 1_555
C5_30 C4_30 1_555 1_555
H2_30 C5_30 1_555 1_555
C6_30 C5_30 1_555 1_555
C7_30 C2_30 1_555 1_555
H3_30 C7_30 1_555 1_555
C8_30 C6_30 1_555 1_555
C9_30 C4_30 1_555 1_555
C10_30 C9_30 1_555 1_555
H4_30 C10_30 1_555 1_555
C11_32 C10_30 1_555 1_555
H5_32 C11_32 1_555 1_555
C12_32 C11_32 1_555 1_555
C13_30 C12_32 1_555 1_555
H6_30 C13_30 1_555 1_555
C14_30 C9_30 1_555 1_555
H7_30 C14_30 1_555 1_555
N2_32 C12_32 1_555 1_555
C18_32 N3_9 1_555 1_555
H12_32 C18_32 1_555 1_555
O1_32 C1_32 1_555 1_555
O5_18 C1_32 1_555 1_555
O6_16 C8_30 1_555 1_555
O7_21 C8_30 1_555 1_555
C6_30 C7_30 1_555 1_555
C13_30 C14_30 1_555 1_555
N2_32 C18_32 1_555 1_555
C15_32 H8_32 1_555 1_555
H9_32 C15_32 1_555 1_555
H10_32 C15_32 1_555 1_555
C16_32 C15_32 1_555 1_555
C17_32 C16_32 1_555 1_555
H11_32 C17_32 1_555 1_555
C15_33 H8_33 1_555 1_555
H9_33 C15_33 1_555 1_555
H10_33 C15_33 1_555 1_555
C16_33 C15_33 1_555 1_555
C17_33 C16_33 1_555 1_555
H11_33 C17_33 1_555 1_555
C1_33 C2_31 1_555 1_555
C2_31 C3_31 1_555 1_555
C3_31 H1_33 1_555 1_555
C4_31 C3_31 1_555 1_555
C5_31 C4_31 1_555 1_555
H2_31 C5_31 1_555 1_555
C6_31 C5_31 1_555 1_555
C7_31 C2_31 1_555 1_555
H3_31 C7_31 1_555 1_555
C8_31 C6_31 1_555 1_555
C9_31 C4_31 1_555 1_555
C10_31 C9_31 1_555 1_555
H4_31 C10_31 1_555 1_555
C11_33 C10_31 1_555 1_555
H5_33 C11_33 1_555 1_555
C12_33 C11_33 1_555 1_555
C13_31 C12_33 1_555 1_555
H6_31 C13_31 1_555 1_555
C14_31 C9_31 1_555 1_555
H7_31 C14_31 1_555 1_555
N2_33 C12_33 1_555 1_555
C18_33 N3_7 1_555 1_555
H12_33 C18_33 1_555 1_555
O1_33 C1_33 1_555 1_555
O5_17 C1_33 1_555 1_555
O6_18 C8_31 1_555 1_555
O7_22 C8_31 1_555 1_555
C6_31 C7_31 1_555 1_555
C13_31 C14_31 1_555 1_555
N2_33 C18_33 1_555 1_555
C13_32 C12_34 1_555 1_555
H6_32 C13_32 1_555 1_555
H7_32 C14_32 1_555 1_555
C15_34 H8_34 1_555 1_555
H9_34 C15_34 1_555 1_555
H10_34 C15_34 1_555 1_555
N3_11 C16_34 1_555 1_555
C16_34 C15_34 1_555 1_555
C17_34 C16_34 1_555 1_555
H11_34 C17_34 1_555 1_555
N2_34 C12_34 1_555 1_555
C18_34 N3_11 1_555 1_555
H12_34 C18_34 1_555 1_555
C13_32 C14_32 1_555 1_555
C17_34 N2_34 1_555 1_555
N2_34 C18_34 1_555 1_555
C1_34 C2_32 1_555 1_555
C2_32 C3_32 1_555 1_555
C3_32 H1_34 1_555 1_555
C4_32 C3_32 1_555 1_555
C5_32 C4_32 1_555 1_555
H2_32 C5_32 1_555 1_555
C6_32 C5_32 1_555 1_555
C7_32 C2_32 1_555 1_555
H3_32 C7_32 1_555 1_555
C8_32 C6_32 1_555 1_555
C9_32 C4_32 1_555 1_555
C10_32 C9_32 1_555 1_555
H4_32 C10_32 1_555 1_555
C11_34 C10_32 1_555 1_555
H5_34 C11_34 1_555 1_555
Cu5_12 O1_34 1_555 1_555
O1_34 C1_34 1_555 1_555
O5_10 C1_34 1_555 1_555
O6_11 C8_32 1_555 1_555
O4_12 C8_32 1_555 1_555
Cu5_11 O4_12 1_555 1_555
O7_23 Cu5_12 1_555 1_555
C6_32 C7_32 1_555 1_555
C1_35 C2_33 1_555 1_555
C2_33 C3_33 1_555 1_555
C3_33 H1_35 1_555 1_555
C4_33 C3_33 1_555 1_555
C5_33 C4_33 1_555 1_555
H2_33 C5_33 1_555 1_555
C6_33 C5_33 1_555 1_555
C7_33 C2_33 1_555 1_555
H3_33 C7_33 1_555 1_555
C8_33 C6_33 1_555 1_555
C9_33 C4_33 1_555 1_555
C10_33 C9_33 1_555 1_555
H4_33 C10_33 1_555 1_555
C11_35 C10_33 1_555 1_555
H5_35 C11_35 1_555 1_555
Cu5_10 O1_35 1_555 1_555
O1_35 C1_35 1_555 1_555
O5_12 C1_35 1_555 1_555
O6_10 C8_33 1_555 1_555
O7_23 C8_33 1_555 1_555
O7_24 Cu5_10 1_555 1_555
C6_33 C7_33 1_555 1_555
C13_33 C12_35 1_555 1_555
H6_33 C13_33 1_555 1_555
H7_33 C14_33 1_555 1_555
C15_35 H8_35 1_555 1_555
H9_35 C15_35 1_555 1_555
H10_35 C15_35 1_555 1_555
N3_12 C16_35 1_555 1_555
C16_35 C15_35 1_555 1_555
C17_35 C16_35 1_555 1_555
H11_35 C17_35 1_555 1_555
N2_35 C12_35 1_555 1_555
C18_35 N3_12 1_555 1_555
H12_35 C18_35 1_555 1_555
C13_33 C14_33 1_555 1_555
C17_35 N2_35 1_555 1_555
N2_35 C18_35 1_555 1_555
C1_36 C2_34 1_555 1_555
C2_34 C3_34 1_555 1_555
C3_34 H1_36 1_555 1_555
C4_34 C3_34 1_555 1_555
C5_34 C4_34 1_555 1_555
H2_34 C5_34 1_555 1_555
C6_34 C5_34 1_555 1_555
C7_34 C2_34 1_555 1_555
H3_34 C7_34 1_555 1_555
C8_34 C6_34 1_555 1_555
C9_34 C4_34 1_555 1_555
C10_34 C9_34 1_555 1_555
H4_34 C10_34 1_555 1_555
C11_36 C10_34 1_555 1_555
H5_36 C11_36 1_555 1_555
C12_36 C11_36 1_555 1_555
C13_34 C12_36 1_555 1_555
H6_34 C13_34 1_555 1_555
C14_34 C9_34 1_555 1_555
H7_34 C14_34 1_555 1_555
C15_36 H8_36 1_555 1_555
H9_36 C15_36 1_555 1_555
H10_36 C15_36 1_555 1_555
N3_10 C16_36 1_555 1_555
C16_36 C15_36 1_555 1_555
C17_36 C16_36 1_555 1_555
H11_36 C17_36 1_555 1_555
N2_36 C12_36 1_555 1_555
C18_36 N3_10 1_555 1_555
H12_36 C18_36 1_555 1_555
Cu5_11 O1_36 1_555 1_555
O1_36 C1_36 1_555 1_555
O5_11 C1_36 1_555 1_555
O6_12 C8_34 1_555 1_555
O7_24 C8_34 1_555 1_555
C6_34 C7_34 1_555 1_555
C13_34 C14_34 1_555 1_555
C17_36 N2_36 1_555 1_555
N2_36 C18_36 1_555 1_555
C2_35 C3_35 1_555 1_555
C4_35 C3_35 1_555 1_555
C5_35 C4_35 1_555 1_555
H2_35 C5_35 1_555 1_555
C6_35 C5_35 1_555 1_555
C7_35 C2_35 1_555 1_555
H3_35 C7_35 1_555 1_555
C8_35 C6_35 1_555 1_555
C9_35 C4_35 1_555 1_555
C10_35 C9_35 1_555 1_555
H4_35 C10_35 1_555 1_555
H6_35 C13_35 1_555 1_555
C14_35 C9_35 1_555 1_555
H7_35 C14_35 1_555 1_555
O3_17 C8_35 1_555 1_555
C6_35 C7_35 1_555 1_555
C13_35 C14_35 1_555 1_555
C2_36 C3_36 1_555 1_555
C4_36 C3_36 1_555 1_555
C5_36 C4_36 1_555 1_555
H2_36 C5_36 1_555 1_555
C6_36 C5_36 1_555 1_555
C7_36 C2_36 1_555 1_555
H3_36 C7_36 1_555 1_555
C8_36 C6_36 1_555 1_555
C9_36 C4_36 1_555 1_555
C10_36 C9_36 1_555 1_555
H4_36 C10_36 1_555 1_555
H6_36 C13_36 1_555 1_555
C14_36 C9_36 1_555 1_555
H7_36 C14_36 1_555 1_555
O3_18 C8_36 1_555 1_555
C6_36 C7_36 1_555 1_555
C13_36 C14_36 1_555 1_555

#END
