
###############################################################################
#
# This file contains modified crystal structure data generated from the
# MOF subset of the Cambridge Structural Database (CSD) v543 
# hosted by the Cambridge Crystallographic Data Centre (CCDC).
#
# This work is licensed under the Creative Commons
# Attribution-NonCommercial-ShareAlike 4.0 International License.
# To view a copy of this license, visit
# http://creativecommons.org/licenses/by-nc-sa/4.0/
# or send a letter to
# Creative Commons, PO Box 1866, Mountain View, CA 94042, USA.
#
# CIF created using the CSD Python API on 29 September 2022
# The structure has been converted into the P1 space group
# The structure has a 3D framework
# The original CSD entry MISZOG is in the rhombohedral crystal system
# The framework has been calculated to contain at least 10.0% void space
# The void calculation uses a probe of radius 1.32A, grid spacing 0.4
#
###############################################################################

data_MISZOG
_chemical_formula_moiety         '(C648 H432 Cu36 N72 O144)n'
_symmetry_cell_setting           triclinic
_symmetry_space_group_name_H-M   'P 1'
_symmetry_Int_Tables_number      1
_space_group_name_Hall           'P 1'
loop_
_symmetry_equiv_pos_site_id
_symmetry_equiv_pos_as_xyz
1 x,y,z
_cell_length_a                   18.866(5)
_cell_length_b                   18.866(5)
_cell_length_c                   83.32(4)
_cell_angle_alpha                90
_cell_angle_beta                 90
_cell_angle_gamma                120
_cell_volume                     25682.6
loop_
_atom_site_label
_atom_site_type_symbol
_atom_site_fract_x
_atom_site_fract_y
_atom_site_fract_z
H5 H 0.3174 0.3946 0.0011
C12 C 0.2191(4) 0.4101(4) 0.00316(5)
H6 H 0.1152 0.4147 0.0001
C15 C 0.2078(4) 0.3888(4) 0.03212(6)
C16 C 0.1583(5) 0.2967(4) 0.03059(10)
H8 H 0.1106 0.2760 0.0373
H9 H 0.1911 0.2734 0.0339
H10 H 0.1419 0.2823 0.0196
C17 C 0.2699(4) 0.5096(4) 0.04125(8)
H11 H 0.2912 0.5534 0.0484
C18 C 0.2762(5) 0.5170(5) 0.02542(9)
H12 H 0.3029 0.5651 0.0195
N1 N 0.2343(3) 0.4370(3) 0.01955(6)
N2 N 0.2278(3) 0.4292(3) 0.04575(5)
Cu5 Cu 0.20058(4) 0.37897(6) 0.06953(2)
C2 C 0.0677(3) 0.2448(3) 0.93416(6)
C3 C 0.1176(3) 0.2205(3) 0.92709(6)
H1 H 0.1033 0.1936 0.9173
C4 C 0.1880(3) 0.2358(3) 0.93445(6)
C5 C 0.2106(3) 0.2777(4) 0.94893(6)
H2 H 0.2597 0.2892 0.9537
C6 C 0.1610(4) 0.3028(4) 0.95637(7)
C7 C 0.0897(3) 0.2859(4) 0.94874(6)
H3 H 0.0555 0.3024 0.9534
C8 C 0.2412(3) 0.2048(3) 0.92747(6)
C9 C 0.1845(3) 0.3446(4) 0.97237(5)
C10 C 0.2538(3) 0.3550(4) 0.98037(6)
H4 H 0.2885 0.3400 0.9754
C11 C 0.2711(3) 0.3877(4) 0.99576(6)
C13 C 0.1499(3) 0.3997(4) 0.99517(6)
C14 C 0.1326(3) 0.3670(4) 0.97977(6)
H7 H 0.0863 0.3600 0.9744
O3 O 0.2216(2) 0.1730(2) 0.91373(4)
O4 O 0.2997(2) 0.2131(3) 0.93553(4)
Cu2 Cu 0.28770(6) 0.13275(4) 0.90286(2)
Cu4 Cu 0.37897(6) 0.17838(4) 0.93047(2)
C1 C 0.9854(3) 0.2207(3) 0.92673(6)
Cu1 Cu 0.86725(4) 0.15495(4) 0.90286(2)
O1 O 0.9371(2) 0.2330(3) 0.93499(4)
O2 O 0.9733(2) 0.1925(2) 0.91278(4)
Cu3 Cu 0.82162(4) 0.20058(4) 0.93047(2)
N3 N 0.8945(3) 0.1319(4) 0.87908(5)
O5 O 0.8997(3) 0.2704(2) 0.89834(4)
O6 O 0.8270(2) 0.0486(3) 0.91373(4)
O7 O 0.7533(4) 0.1202(3) 0.89780(4)
C8_2 C 0.7952(3) 0.0364(4) 0.92747(6)
O4_2 O 0.7869(3) 0.0866(4) 0.93553(4)
H5_2 H 0.6054 0.9228 0.0011
C12_2 C 0.5899(4) 0.8090(6) 0.00316(5)
H6_2 H 0.5853 0.7005 0.0001
C15_2 C 0.6112(4) 0.8190(6) 0.03212(6)
C16_2 C 0.7033(4) 0.8616(6) 0.03059(10)
H8_2 H 0.7240 0.8346 0.0373
H9_2 H 0.7266 0.9177 0.0339
H10_2 H 0.7177 0.8596 0.0196
C17_2 C 0.4904(4) 0.7603(6) 0.04125(8)
H11_2 H 0.4466 0.7378 0.0484
C18_2 C 0.4830(5) 0.7592(7) 0.02542(9)
H12_2 H 0.4349 0.7378 0.0195
N1_2 N 0.5630(3) 0.7973(4) 0.01955(6)
N2_2 N 0.5708(3) 0.7986(4) 0.04575(5)
Cu5_2 Cu 0.62103(6) 0.82162(7) 0.06953(2)
C1_2 C 0.7793(3) 0.7647(4) 0.92673(6)
C2_2 C 0.7552(3) 0.8229(4) 0.93416(6)
C3_2 C 0.7795(3) 0.8971(4) 0.92709(6)
H1_2 H 0.8064 0.9097 0.9173
C4_2 C 0.7642(3) 0.9522(4) 0.93445(6)
C5_2 C 0.7223(4) 0.9329(5) 0.94893(6)
H2_2 H 0.7108 0.9705 0.9537
C6_2 C 0.6972(4) 0.8582(6) 0.95637(7)
C7_2 C 0.7141(4) 0.8038(5) 0.94874(6)
H3_2 H 0.6976 0.7531 0.9534
C9_2 C 0.6554(4) 0.8399(5) 0.97237(5)
C10_2 C 0.6450(4) 0.8988(5) 0.98037(6)
H4_2 H 0.6600 0.9485 0.9754
C11_2 C 0.6123(4) 0.8834(5) 0.99576(6)
C13_2 C 0.6003(4) 0.7502(5) 0.99517(6)
C14_2 C 0.6330(4) 0.7656(5) 0.97977(6)
H7_2 H 0.6400 0.7263 0.9744
Cu1_2 Cu 0.84505(4) 0.71230(6) 0.90286(2)
O1_2 O 0.7670(3) 0.7041(4) 0.93499(4)
O2_2 O 0.8075(2) 0.7808(3) 0.91278(4)
Cu3_2 Cu 0.79942(4) 0.62103(6) 0.93047(2)
N3_2 N 0.8681(4) 0.7625(5) 0.87908(5)
O5_2 O 0.7296(2) 0.6292(4) 0.89834(4)
O6_2 O 0.9514(3) 0.7784(4) 0.91373(4)
O7_2 O 0.8798(3) 0.6330(5) 0.89780(4)
C1_3 C 0.2353(4) 0.0146(3) 0.92673(6)
O1_3 O 0.2959(4) 0.0629(2) 0.93499(4)
O2_3 O 0.2192(3) 0.0267(2) 0.91278(4)
N3_3 N 0.2375(5) 0.1055(3) 0.87908(5)
O5_3 O 0.3708(4) 0.1003(3) 0.89834(4)
O7_3 O 0.3670(5) 0.2467(4) 0.89780(4)
H5_3 H 0.0772 0.6826 0.0011
C12_3 C 0.1910(6) 0.7809(4) 0.00316(5)
H6_3 H 0.2995 0.8848 0.0001
C15_3 C 0.1810(6) 0.7922(4) 0.03212(6)
C16_3 C 0.1384(6) 0.8417(5) 0.03059(10)
H8_3 H 0.1654 0.8894 0.0373
H9_3 H 0.0823 0.8089 0.0339
H10_3 H 0.1404 0.8581 0.0196
C17_3 C 0.2397(6) 0.7301(4) 0.04125(8)
H11_3 H 0.2622 0.7088 0.0484
C18_3 C 0.2408(7) 0.7238(5) 0.02542(9)
H12_3 H 0.2622 0.6971 0.0195
N1_3 N 0.2027(4) 0.7657(3) 0.01955(6)
N2_3 N 0.2014(4) 0.7722(3) 0.04575(5)
Cu5_3 Cu 0.17838(7) 0.79942(4) 0.06953(2)
C8_3 C 0.9636(4) 0.7588(3) 0.92747(6)
O4_3 O 0.9134(4) 0.7003(2) 0.93553(4)
C2_3 C 0.2448(3) 0.0677(3) 0.56584(6)
C3_3 C 0.2205(3) 0.1176(3) 0.57291(6)
H1_3 H 0.1936 0.1033 0.5827
C4_3 C 0.2358(3) 0.1880(3) 0.56555(6)
C5_3 C 0.2777(4) 0.2106(3) 0.55107(6)
H2_3 H 0.2892 0.2597 0.5463
C6_3 C 0.3028(4) 0.1610(4) 0.54363(7)
C7_3 C 0.2859(4) 0.0897(3) 0.55126(6)
H3_3 H 0.3024 0.0555 0.5466
C8_4 C 0.2048(3) 0.2412(3) 0.57253(6)
C9_3 C 0.3446(4) 0.1845(3) 0.52763(5)
C10_3 C 0.3550(4) 0.2538(3) 0.51963(6)
H4_3 H 0.3400 0.2885 0.5246
C11_3 C 0.3877(4) 0.2711(3) 0.50424(6)
H5_4 H 0.3946 0.3174 0.4989
C12_4 C 0.4101(4) 0.2191(4) 0.49684(5)
C13_3 C 0.3997(4) 0.1499(3) 0.50483(6)
H6_4 H 0.4147 0.1152 0.4999
C14_3 C 0.3670(4) 0.1326(3) 0.52023(6)
H7_3 H 0.3600 0.0863 0.5256
C15_4 C 0.3888(4) 0.2078(4) 0.46788(6)
C16_4 C 0.2967(4) 0.1583(5) 0.46941(10)
H8_4 H 0.2760 0.1106 0.4627
H9_4 H 0.2734 0.1911 0.4661
H10_4 H 0.2823 0.1419 0.4804
C17_4 C 0.5096(4) 0.2699(4) 0.45875(8)
H11_4 H 0.5534 0.2912 0.4516
C18_4 C 0.5170(5) 0.2762(5) 0.47458(9)
H12_4 H 0.5651 0.3029 0.4805
N1_4 N 0.4370(3) 0.2343(3) 0.48045(6)
N2_4 N 0.4292(3) 0.2278(3) 0.45425(5)
O3_2 O 0.1730(2) 0.2216(2) 0.58627(4)
O4_4 O 0.2131(3) 0.2997(2) 0.56447(4)
Cu2_2 Cu 0.13275(4) 0.28770(6) 0.59714(2)
Cu4_2 Cu 0.17838(4) 0.37897(6) 0.56953(2)
Cu5_4 Cu 0.37897(6) 0.20058(4) 0.43047(2)
C1_4 C 0.2207(3) 0.9854(3) 0.57327(6)
Cu1_3 Cu 0.15495(4) 0.86725(4) 0.59714(2)
O1_4 O 0.2330(3) 0.9371(2) 0.56501(4)
O2_4 O 0.1925(2) 0.9733(2) 0.58722(4)
Cu3_3 Cu 0.20058(4) 0.82162(4) 0.56953(2)
N3_4 N 0.1319(4) 0.8945(3) 0.62092(5)
O5_4 O 0.2704(2) 0.8997(3) 0.60166(4)
O6_3 O 0.0486(3) 0.8270(2) 0.58627(4)
O7_4 O 0.1202(3) 0.7533(4) 0.60220(4)
C8_5 C 0.0364(4) 0.7952(3) 0.57253(6)
O4_5 O 0.0866(4) 0.7869(3) 0.56447(4)
C1_5 C 0.7647(4) 0.7793(3) 0.57327(6)
C2_4 C 0.8229(4) 0.7552(3) 0.56584(6)
C3_4 C 0.8971(4) 0.7795(3) 0.57291(6)
H1_4 H 0.9097 0.8064 0.5827
C4_4 C 0.9522(4) 0.7642(3) 0.56555(6)
C5_4 C 0.9329(5) 0.7223(4) 0.55107(6)
H2_4 H 0.9705 0.7108 0.5463
C6_4 C 0.8582(6) 0.6972(4) 0.54363(7)
C7_4 C 0.8038(5) 0.7141(4) 0.55126(6)
H3_4 H 0.7531 0.6976 0.5466
C9_4 C 0.8399(5) 0.6554(4) 0.52763(5)
C10_4 C 0.8988(5) 0.6450(4) 0.51963(6)
H4_4 H 0.9485 0.6600 0.5246
C11_4 C 0.8834(5) 0.6123(4) 0.50424(6)
H5_5 H 0.9228 0.6054 0.4989
C12_5 C 0.8090(6) 0.5899(4) 0.49684(5)
C13_4 C 0.7502(5) 0.6003(4) 0.50483(6)
H6_5 H 0.7005 0.5853 0.4999
C14_4 C 0.7656(5) 0.6330(4) 0.52023(6)
H7_4 H 0.7263 0.6400 0.5256
C15_5 C 0.8190(6) 0.6112(4) 0.46788(6)
C16_5 C 0.8616(6) 0.7033(4) 0.46941(10)
H8_5 H 0.8346 0.7240 0.4627
H9_5 H 0.9177 0.7266 0.4661
H10_5 H 0.8596 0.7177 0.4804
C17_5 C 0.7603(6) 0.4904(4) 0.45875(8)
H11_5 H 0.7378 0.4466 0.4516
C18_5 C 0.7592(7) 0.4830(5) 0.47458(9)
H12_5 H 0.7378 0.4349 0.4805
Cu1_4 Cu 0.71230(6) 0.84505(4) 0.59714(2)
N1_5 N 0.7973(4) 0.5630(3) 0.48045(6)
N2_5 N 0.7986(4) 0.5708(3) 0.45425(5)
O1_5 O 0.7041(4) 0.7670(3) 0.56501(4)
O2_5 O 0.7808(3) 0.8075(2) 0.58722(4)
Cu3_4 Cu 0.62103(6) 0.79942(4) 0.56953(2)
Cu5_5 Cu 0.82162(7) 0.62103(6) 0.43047(2)
N3_5 N 0.7625(5) 0.8681(4) 0.62092(5)
O5_5 O 0.6292(4) 0.7296(2) 0.60166(4)
O6_4 O 0.7784(4) 0.9514(3) 0.58627(4)
O7_5 O 0.6330(5) 0.8798(3) 0.60220(4)
C1_6 C 0.0146(3) 0.2353(4) 0.57327(6)
O1_6 O 0.0629(2) 0.2959(4) 0.56501(4)
O2_6 O 0.0267(2) 0.2192(3) 0.58722(4)
N3_6 N 0.1055(3) 0.2375(5) 0.62092(5)
O5_6 O 0.1003(3) 0.3708(4) 0.60166(4)
O7_6 O 0.2467(4) 0.3670(5) 0.60220(4)
C2_5 C 0.9323(3) 0.1771(4) 0.56584(6)
C3_5 C 0.8824(3) 0.1029(4) 0.57291(6)
H1_5 H 0.8967 0.0903 0.5827
C4_5 C 0.8120(3) 0.0478(4) 0.56555(6)
C5_5 C 0.7894(3) 0.0671(5) 0.55107(6)
H2_5 H 0.7403 0.0295 0.5463
C6_5 C 0.8390(4) 0.1418(6) 0.54363(7)
C7_5 C 0.9103(3) 0.1962(5) 0.55126(6)
H3_5 H 0.9445 0.2469 0.5466
C9_5 C 0.8155(3) 0.1601(5) 0.52763(5)
C10_5 C 0.7462(3) 0.1012(5) 0.51963(6)
H4_5 H 0.7115 0.0515 0.5246
C11_5 C 0.7289(3) 0.1166(5) 0.50424(6)
H5_6 H 0.6826 0.0772 0.4989
C12_6 C 0.7809(4) 0.1910(6) 0.49684(5)
C13_5 C 0.8501(3) 0.2498(5) 0.50483(6)
H6_6 H 0.8848 0.2995 0.4999
C14_5 C 0.8674(3) 0.2344(5) 0.52023(6)
H7_5 H 0.9137 0.2737 0.5256
C15_6 C 0.7922(4) 0.1810(6) 0.46788(6)
C16_6 C 0.8417(5) 0.1384(6) 0.46941(10)
H8_6 H 0.8894 0.1654 0.4627
H9_6 H 0.8089 0.0823 0.4661
H10_6 H 0.8581 0.1404 0.4804
C17_6 C 0.7301(4) 0.2397(6) 0.45875(8)
H11_6 H 0.7088 0.2622 0.4516
C18_6 C 0.7238(5) 0.2408(7) 0.47458(9)
H12_6 H 0.6971 0.2622 0.4805
N1_6 N 0.7657(3) 0.2027(4) 0.48045(6)
N2_6 N 0.7722(3) 0.2014(4) 0.45425(5)
Cu5_6 Cu 0.79942(4) 0.17838(7) 0.43047(2)
C8_6 C 0.7588(3) 0.9636(4) 0.57253(6)
O4_6 O 0.7003(2) 0.9134(4) 0.56447(4)
Cu4_3 Cu 0.04563(6) 0.51172(4) 0.26381(2)
C1_7 C 0.6521(3) 0.5540(3) 0.26006(6)
C2_6 C 0.7344(3) 0.5781(3) 0.26749(6)
C3_6 C 0.7843(3) 0.5538(3) 0.26042(6)
H1_6 H 0.7700 0.5269 0.2506
C4_6 C 0.8547(3) 0.5691(3) 0.26778(6)
C5_6 C 0.8773(3) 0.6110(4) 0.28226(6)
H2_6 H 0.9264 0.6225 0.2870
C6_6 C 0.8277(4) 0.6361(4) 0.28970(7)
C7_6 C 0.7564(3) 0.6192(4) 0.28207(6)
H3_6 H 0.7222 0.6357 0.2867
C8_7 C 0.9079(3) 0.5381(3) 0.26080(6)
C9_6 C 0.8512(3) 0.6779(4) 0.30570(5)
C10_6 C 0.9205(3) 0.6883(4) 0.31370(6)
H4_6 H 0.9552 0.6733 0.3087
C11_6 C 0.9378(3) 0.7210(4) 0.32909(6)
H5_7 H 0.9841 0.7279 0.3344
C12_7 C 0.8858(4) 0.7434(4) 0.33649(5)
C13_6 C 0.8166(3) 0.7330(4) 0.32850(6)
H6_7 H 0.7819 0.7480 0.3334
C14_6 C 0.7993(3) 0.7003(4) 0.31310(6)
H7_6 H 0.7530 0.6933 0.3077
C15_7 C 0.8745(4) 0.7221(4) 0.36545(6)
C16_7 C 0.8250(5) 0.6300(4) 0.36392(10)
H8_7 H 0.7773 0.6093 0.3706
H9_7 H 0.8578 0.6067 0.3672
H10_7 H 0.8086 0.6156 0.3529
C17_7 C 0.9366(4) 0.8429(4) 0.37458(8)
H11_7 H 0.9579 0.8867 0.3817
C18_7 C 0.9429(5) 0.8503(5) 0.35875(9)
H12_7 H 0.9696 0.8984 0.3528
Cu1_5 Cu 0.53392(4) 0.48828(4) 0.23619(2)
N1_7 N 0.9010(3) 0.7703(3) 0.35288(6)
N2_7 N 0.8945(3) 0.7625(3) 0.37908(5)
O1_7 O 0.6038(2) 0.5663(3) 0.26832(4)
O2_7 O 0.6400(2) 0.5258(2) 0.24611(4)
O3_3 O 0.8883(2) 0.5063(2) 0.24706(4)
O4_7 O 0.9664(2) 0.5464(3) 0.26886(4)
Cu2_3 Cu 0.95437(6) 0.46608(4) 0.23619(2)
Cu3_5 Cu 0.48828(4) 0.53392(4) 0.26381(2)
Cu5_7 Cu 0.86725(4) 0.71230(6) 0.40286(2)
N3_7 N 0.5611(3) 0.4653(4) 0.21242(5)
O5_7 O 0.5663(3) 0.6038(2) 0.23168(4)
O6_5 O 0.4937(2) 0.3819(3) 0.24706(4)
O7_7 O 0.4199(4) 0.4536(3) 0.23114(4)
C1_8 C 0.4460(3) 0.0980(4) 0.26006(6)
C2_7 C 0.4219(3) 0.1562(4) 0.26749(6)
C3_7 C 0.4462(3) 0.2304(4) 0.26042(6)
H1_7 H 0.4731 0.2430 0.2506
C4_7 C 0.4309(3) 0.2855(4) 0.26778(6)
C5_7 C 0.3890(4) 0.2662(5) 0.28226(6)
H2_7 H 0.3775 0.3038 0.2870
C6_7 C 0.3639(4) 0.1915(6) 0.28970(7)
C7_7 C 0.3808(4) 0.1371(5) 0.28207(6)
H3_7 H 0.3643 0.0864 0.2867
C8_8 C 0.4619(3) 0.3697(4) 0.26080(6)
C9_7 C 0.3221(4) 0.1732(5) 0.30570(5)
C10_7 C 0.3117(4) 0.2321(5) 0.31370(6)
H4_7 H 0.3267 0.2818 0.3087
C11_7 C 0.2790(4) 0.2167(5) 0.32909(6)
H5_8 H 0.2721 0.2561 0.3344
C12_8 C 0.2566(4) 0.1423(6) 0.33649(5)
C13_7 C 0.2670(4) 0.0835(5) 0.32850(6)
H6_8 H 0.2520 0.0338 0.3334
C14_7 C 0.2997(4) 0.0989(5) 0.31310(6)
H7_7 H 0.3067 0.0596 0.3077
C15_8 C 0.2779(4) 0.1523(6) 0.36545(6)
C16_8 C 0.3700(4) 0.1949(6) 0.36392(10)
H8_8 H 0.3907 0.1679 0.3706
H9_8 H 0.3933 0.2510 0.3672
H10_8 H 0.3844 0.1929 0.3529
C17_8 C 0.1571(4) 0.0936(6) 0.37458(8)
H11_8 H 0.1133 0.0711 0.3817
C18_8 C 0.1497(5) 0.0925(7) 0.35875(9)
H12_8 H 0.1016 0.0711 0.3528
Cu1_6 Cu 0.51172(4) 0.04563(6) 0.23619(2)
N1_8 N 0.2297(3) 0.1306(4) 0.35288(6)
N2_8 N 0.2375(3) 0.1319(4) 0.37908(5)
O1_8 O 0.4337(3) 0.0374(4) 0.26832(4)
O2_8 O 0.4742(2) 0.1141(3) 0.24611(4)
O4_8 O 0.4536(3) 0.4199(4) 0.26886(4)
Cu5_8 Cu 0.28770(6) 0.15495(7) 0.40286(2)
N3_8 N 0.5347(4) 0.0959(5) 0.21242(5)
O6_6 O 0.6181(3) 0.1117(4) 0.24706(4)
Cu3_6 Cu 0.46608(4) 0.95437(6) 0.26381(2)
O5_8 O 0.3962(2) 0.9626(4) 0.23168(4)
O7_8 O 0.5464(3) 0.9664(5) 0.23114(4)
O5_9 O 0.0374(4) 0.4337(3) 0.23168(4)
O7_9 O 0.0336(5) 0.5801(4) 0.23114(4)
C1_9 C 0.9020(4) 0.3479(3) 0.26006(6)
C2_8 C 0.8438(4) 0.2656(3) 0.26749(6)
C3_8 C 0.7696(4) 0.2157(3) 0.26042(6)
H1_8 H 0.7570 0.2300 0.2506
C4_8 C 0.7145(4) 0.1453(3) 0.26778(6)
C5_8 C 0.7338(5) 0.1227(3) 0.28226(6)
H2_8 H 0.6962 0.0736 0.2870
C6_8 C 0.8085(6) 0.1723(4) 0.28970(7)
C7_8 C 0.8629(5) 0.2436(3) 0.28207(6)
H3_8 H 0.9136 0.2778 0.2867
C8_9 C 0.6303(4) 0.0921(3) 0.26080(6)
C9_8 C 0.8268(5) 0.1488(3) 0.30570(5)
C10_8 C 0.7679(5) 0.0795(3) 0.31370(6)
H4_8 H 0.7182 0.0448 0.3087
C11_8 C 0.7833(5) 0.0622(3) 0.32909(6)
H5_9 H 0.7439 0.0159 0.3344
C12_9 C 0.8577(6) 0.1142(4) 0.33649(5)
C13_8 C 0.9165(5) 0.1834(3) 0.32850(6)
H6_9 H 0.9662 0.2181 0.3334
C14_8 C 0.9011(5) 0.2007(3) 0.31310(6)
H7_8 H 0.9404 0.2470 0.3077
C15_9 C 0.8477(6) 0.1255(4) 0.36545(6)
C16_9 C 0.8051(6) 0.1750(5) 0.36392(10)
H8_9 H 0.8321 0.2227 0.3706
H9_9 H 0.7490 0.1422 0.3672
H10_9 H 0.8071 0.1914 0.3529
C17_9 C 0.9064(6) 0.0634(4) 0.37458(8)
H11_9 H 0.9289 0.0421 0.3817
C18_9 C 0.9075(7) 0.0571(5) 0.35875(9)
H12_9 H 0.9289 0.0304 0.3528
N1_9 N 0.8694(4) 0.0990(3) 0.35288(6)
N2_9 N 0.8681(4) 0.1055(3) 0.37908(5)
O1_9 O 0.9626(4) 0.3962(2) 0.26832(4)
O2_9 O 0.8859(3) 0.3600(2) 0.24611(4)
O4_9 O 0.5801(4) 0.0336(2) 0.26886(4)
Cu5_9 Cu 0.84505(7) 0.13275(4) 0.40286(2)
N3_9 N 0.9041(5) 0.4389(3) 0.21242(5)
C9_9 C 0.0113(4) 0.5178(3) 0.86096(5)
C10_9 C 0.0217(4) 0.5871(3) 0.85296(6)
H4_9 H 0.0067 0.6218 0.8579
C11_9 C 0.0544(4) 0.6044(3) 0.83757(6)
H5_10 H 0.0613 0.6507 0.8322
C12_10 C 0.0768(4) 0.5524(4) 0.83017(5)
C13_9 C 0.0664(4) 0.4832(3) 0.83816(6)
H6_10 H 0.0814 0.4485 0.8332
C14_9 C 0.0337(4) 0.4659(3) 0.85356(6)
H7_9 H 0.0267 0.4196 0.8589
C15_10 C 0.0555(4) 0.5411(4) 0.80121(6)
C17_10 C 0.1763(4) 0.6032(4) 0.79208(8)
H11_10 H 0.2201 0.6245 0.7849
C18_10 C 0.1837(5) 0.6095(5) 0.80791(9)
H12_10 H 0.2318 0.6362 0.8138
N1_10 N 0.1037(3) 0.5676(3) 0.81378(6)
N2_10 N 0.0959(3) 0.5611(3) 0.78758(5)
Cu5_10 Cu 0.04563(6) 0.53392(4) 0.76381(2)
C1_10 C 0.8874(3) 0.3187(3) 0.90660(6)
C2_9 C 0.9115(3) 0.4010(3) 0.89917(6)
C3_9 C 0.8872(3) 0.4509(3) 0.90624(6)
H1_9 H 0.8603 0.4366 0.9160
C4_9 C 0.9025(3) 0.5213(3) 0.89888(6)
C5_9 C 0.9444(4) 0.5439(3) 0.88440(6)
H2_9 H 0.9559 0.5930 0.8796
C6_9 C 0.9695(4) 0.4943(4) 0.87696(7)
C7_9 C 0.9526(4) 0.4230(3) 0.88459(6)
H3_9 H 0.9691 0.3888 0.8799
C8_10 C 0.8715(3) 0.5745(3) 0.90586(6)
C16_10 C 0.9634(4) 0.4916(5) 0.80274(10)
H8_10 H 0.9427 0.4439 0.7960
H9_10 H 0.9401 0.5244 0.7994
H10_10 H 0.9490 0.4752 0.8137
O2_10 O 0.8592(2) 0.3066(2) 0.92055(4)
O3_4 O 0.8397(2) 0.5549(2) 0.91960(4)
N3_10 N 0.7986(4) 0.2278(3) 0.95425(5)
O6_7 O 0.7153(3) 0.1603(2) 0.91960(4)
C1_11 C 0.4314(4) 0.1126(3) 0.90660(6)
C2_10 C 0.4896(4) 0.0885(3) 0.89917(6)
C3_10 C 0.5638(4) 0.1128(3) 0.90624(6)
H1_10 H 0.5764 0.1397 0.9160
C4_10 C 0.6189(4) 0.0975(3) 0.89888(6)
C5_10 C 0.5996(5) 0.0556(4) 0.88440(6)
H2_10 H 0.6372 0.0441 0.8796
C6_10 C 0.5249(6) 0.0305(4) 0.87696(7)
C7_10 C 0.4705(5) 0.0474(4) 0.88459(6)
H3_10 H 0.4198 0.0309 0.8799
C8_11 C 0.7031(4) 0.1285(3) 0.90586(6)
C16_11 C 0.5283(6) 0.0366(4) 0.80274(10)
H8_11 H 0.5013 0.0573 0.7960
H9_11 H 0.5844 0.0599 0.7994
H10_11 H 0.5263 0.0510 0.8137
O2_11 O 0.4475(3) 0.1408(2) 0.92055(4)
N3_11 N 0.4292(5) 0.2014(4) 0.95425(5)
O6_8 O 0.4451(4) 0.2847(3) 0.91960(4)
C9_10 C 0.5066(5) 0.9887(4) 0.86096(5)
C10_10 C 0.5655(5) 0.9783(4) 0.85296(6)
H4_10 H 0.6152 0.9933 0.8579
C11_10 C 0.5501(5) 0.9456(4) 0.83757(6)
H5_11 H 0.5895 0.9387 0.8322
C12_11 C 0.4757(6) 0.9232(4) 0.83017(5)
C13_10 C 0.4169(5) 0.9336(4) 0.83816(6)
H6_11 H 0.3672 0.9186 0.8332
C14_10 C 0.4323(5) 0.9663(4) 0.85356(6)
H7_10 H 0.3930 0.9733 0.8589
C15_11 C 0.4857(6) 0.9445(4) 0.80121(6)
C17_11 C 0.4270(6) 0.8237(4) 0.79208(8)
H11_11 H 0.4045 0.7799 0.7849
C18_11 C 0.4259(7) 0.8163(5) 0.80791(9)
H12_11 H 0.4045 0.7682 0.8138
N1_11 N 0.4640(4) 0.8963(3) 0.81378(6)
N2_11 N 0.4653(4) 0.9041(3) 0.78758(5)
Cu5_11 Cu 0.48828(7) 0.95437(6) 0.76381(2)
C1_12 C 0.6813(3) 0.5686(4) 0.90660(6)
C2_11 C 0.5990(3) 0.5104(4) 0.89917(6)
C3_11 C 0.5491(3) 0.4362(4) 0.90624(6)
H1_11 H 0.5634 0.4236 0.9160
C4_11 C 0.4787(3) 0.3811(4) 0.89888(6)
C5_11 C 0.4561(3) 0.4004(5) 0.88440(6)
H2_11 H 0.4070 0.3628 0.8796
C6_11 C 0.5057(4) 0.4751(6) 0.87696(7)
C7_11 C 0.5770(3) 0.5295(5) 0.88459(6)
H3_11 H 0.6112 0.5802 0.8799
C8_12 C 0.4255(3) 0.2969(4) 0.90586(6)
C9_11 C 0.4822(3) 0.4934(5) 0.86096(5)
C10_11 C 0.4129(3) 0.4345(5) 0.85296(6)
H4_11 H 0.3782 0.3848 0.8579
C11_11 C 0.3956(3) 0.4499(5) 0.83757(6)
H5_12 H 0.3493 0.4105 0.8322
C12_12 C 0.4476(4) 0.5243(6) 0.83017(5)
C13_11 C 0.5168(3) 0.5831(5) 0.83816(6)
H6_12 H 0.5515 0.6328 0.8332
C14_11 C 0.5341(3) 0.5677(5) 0.85356(6)
H7_11 H 0.5804 0.6070 0.8589
C15_12 C 0.4589(4) 0.5143(6) 0.80121(6)
C16_12 C 0.5084(5) 0.4717(6) 0.80274(10)
H8_12 H 0.5561 0.4987 0.7960
H9_12 H 0.4756 0.4156 0.7994
H10_12 H 0.5248 0.4737 0.8137
C17_12 C 0.3968(4) 0.5730(6) 0.79208(8)
H11_12 H 0.3755 0.5955 0.7849
C18_12 C 0.3905(5) 0.5741(7) 0.80791(9)
H12_12 H 0.3638 0.5955 0.8138
N1_12 N 0.4324(3) 0.5360(4) 0.81378(6)
N2_12 N 0.4389(3) 0.5347(4) 0.78758(5)
O2_12 O 0.6934(2) 0.5525(3) 0.92055(4)
Cu5_12 Cu 0.46608(4) 0.51172(7) 0.76381(2)
N3_12 N 0.7722(3) 0.5708(5) 0.95425(5)
C9_12 C 0.5178(3) 0.0113(4) 0.63904(5)
C10_12 C 0.5871(3) 0.0217(4) 0.64704(6)
H4_12 H 0.6218 0.0067 0.6421
C11_12 C 0.6044(3) 0.0544(4) 0.66243(6)
H5_13 H 0.6507 0.0613 0.6678
C12_13 C 0.5524(4) 0.0768(4) 0.66983(5)
C13_12 C 0.4832(3) 0.0664(4) 0.66184(6)
H6_13 H 0.4485 0.0814 0.6668
C14_12 C 0.4659(3) 0.0337(4) 0.64644(6)
H7_12 H 0.4196 0.0267 0.6411
C15_13 C 0.5411(4) 0.0555(4) 0.69879(6)
C17_13 C 0.6032(4) 0.1763(4) 0.70792(8)
H11_13 H 0.6245 0.2201 0.7151
C18_13 C 0.6095(5) 0.1837(5) 0.69209(9)
H12_13 H 0.6362 0.2318 0.6862
N1_13 N 0.5676(3) 0.1037(3) 0.68622(6)
N2_13 N 0.5611(3) 0.0959(3) 0.71242(5)
Cu5_13 Cu 0.53392(4) 0.04563(6) 0.73619(2)
C1_13 C 0.3187(3) 0.8874(3) 0.59340(6)
C2_12 C 0.4010(3) 0.9115(3) 0.60083(6)
C3_12 C 0.4509(3) 0.8872(3) 0.59376(6)
H1_12 H 0.4366 0.8603 0.5840
C4_12 C 0.5213(3) 0.9025(3) 0.60112(6)
C5_12 C 0.5439(3) 0.9444(4) 0.61560(6)
H2_12 H 0.5930 0.9559 0.6204
C6_12 C 0.4943(4) 0.9695(4) 0.62304(7)
C7_12 C 0.4230(3) 0.9526(4) 0.61541(6)
H3_12 H 0.3888 0.9691 0.6201
C8_13 C 0.5745(3) 0.8715(3) 0.59414(6)
C16_13 C 0.4916(5) 0.9634(4) 0.69726(10)
H8_13 H 0.4439 0.9427 0.7040
H9_13 H 0.5244 0.9401 0.7006
H10_13 H 0.4752 0.9490 0.6863
O2_13 O 0.3066(2) 0.8592(2) 0.57945(4)
O3_5 O 0.5549(2) 0.8397(2) 0.58040(4)
N3_13 N 0.2278(3) 0.7986(4) 0.54575(5)
O6_9 O 0.1603(2) 0.7153(3) 0.58040(4)
C1_14 C 0.1126(3) 0.4314(4) 0.59340(6)
C2_13 C 0.0885(3) 0.4896(4) 0.60083(6)
C3_13 C 0.1128(3) 0.5638(4) 0.59376(6)
H1_13 H 0.1397 0.5764 0.5840
C4_13 C 0.0975(3) 0.6189(4) 0.60112(6)
C5_13 C 0.0556(4) 0.5996(5) 0.61560(6)
H2_13 H 0.0441 0.6372 0.6204
C6_13 C 0.0305(4) 0.5249(6) 0.62304(7)
C7_13 C 0.0474(4) 0.4705(5) 0.61541(6)
H3_13 H 0.0309 0.4198 0.6201
C8_14 C 0.1285(3) 0.7031(4) 0.59414(6)
C16_14 C 0.0366(4) 0.5283(6) 0.69726(10)
H8_14 H 0.0573 0.5013 0.7040
H9_14 H 0.0599 0.5844 0.7006
H10_14 H 0.0510 0.5263 0.6863
O2_14 O 0.1408(2) 0.4475(3) 0.57945(4)
N3_14 N 0.2014(4) 0.4292(5) 0.54575(5)
O6_10 O 0.2847(3) 0.4451(4) 0.58040(4)
C9_13 C 0.9887(4) 0.5066(5) 0.63904(5)
C10_13 C 0.9783(4) 0.5655(5) 0.64704(6)
H4_13 H 0.9933 0.6152 0.6421
C11_13 C 0.9456(4) 0.5501(5) 0.66243(6)
H5_14 H 0.9387 0.5895 0.6678
C12_14 C 0.9232(4) 0.4757(6) 0.66983(5)
C13_13 C 0.9336(4) 0.4169(5) 0.66184(6)
H6_14 H 0.9186 0.3672 0.6668
C14_13 C 0.9663(4) 0.4323(5) 0.64644(6)
H7_13 H 0.9733 0.3930 0.6411
C15_14 C 0.9445(4) 0.4857(6) 0.69879(6)
C17_14 C 0.8237(4) 0.4270(6) 0.70792(8)
H11_14 H 0.7799 0.4045 0.7151
C18_14 C 0.8163(5) 0.4259(7) 0.69209(9)
H12_14 H 0.7682 0.4045 0.6862
N1_14 N 0.8963(3) 0.4640(4) 0.68622(6)
N2_14 N 0.9041(3) 0.4653(4) 0.71242(5)
Cu5_14 Cu 0.95437(6) 0.48828(7) 0.73619(2)
C1_15 C 0.5686(4) 0.6813(3) 0.59340(6)
C2_14 C 0.5104(4) 0.5990(3) 0.60083(6)
C3_14 C 0.4362(4) 0.5491(3) 0.59376(6)
H1_14 H 0.4236 0.5634 0.5840
C4_14 C 0.3811(4) 0.4787(3) 0.60112(6)
C5_14 C 0.4004(5) 0.4561(3) 0.61560(6)
H2_14 H 0.3628 0.4070 0.6204
C6_14 C 0.4751(6) 0.5057(4) 0.62304(7)
C7_14 C 0.5295(5) 0.5770(3) 0.61541(6)
H3_14 H 0.5802 0.6112 0.6201
C8_15 C 0.2969(4) 0.4255(3) 0.59414(6)
C9_14 C 0.4934(5) 0.4822(3) 0.63904(5)
C10_14 C 0.4345(5) 0.4129(3) 0.64704(6)
H4_14 H 0.3848 0.3782 0.6421
C11_14 C 0.4499(5) 0.3956(3) 0.66243(6)
H5_15 H 0.4105 0.3493 0.6678
C12_15 C 0.5243(6) 0.4476(4) 0.66983(5)
C13_14 C 0.5831(5) 0.5168(3) 0.66184(6)
H6_15 H 0.6328 0.5515 0.6668
C14_14 C 0.5677(5) 0.5341(3) 0.64644(6)
H7_14 H 0.6070 0.5804 0.6411
C15_15 C 0.5143(6) 0.4589(4) 0.69879(6)
C16_15 C 0.4717(6) 0.5084(5) 0.69726(10)
H8_15 H 0.4987 0.5561 0.7040
H9_15 H 0.4156 0.4756 0.7006
H10_15 H 0.4737 0.5248 0.6863
C17_15 C 0.5730(6) 0.3968(4) 0.70792(8)
H11_15 H 0.5955 0.3755 0.7151
C18_15 C 0.5741(7) 0.3905(5) 0.69209(9)
H12_15 H 0.5955 0.3638 0.6862
N1_15 N 0.5360(4) 0.4324(3) 0.68622(6)
N2_15 N 0.5347(4) 0.4389(3) 0.71242(5)
O2_15 O 0.5525(3) 0.6934(2) 0.57945(4)
Cu5_15 Cu 0.51172(7) 0.46608(4) 0.73619(2)
N3_15 N 0.5708(5) 0.7722(3) 0.54575(5)
C1_16 C 0.5540(3) 0.6521(3) 0.23994(6)
C2_15 C 0.5781(3) 0.7344(3) 0.23251(6)
C3_15 C 0.5538(3) 0.7843(3) 0.23958(6)
H1_15 H 0.5269 0.7700 0.2494
C4_15 C 0.5691(3) 0.8547(3) 0.23222(6)
C5_15 C 0.6110(4) 0.8773(3) 0.21774(6)
H2_15 H 0.6225 0.9264 0.2130
C6_15 C 0.6361(4) 0.8277(4) 0.21030(7)
C7_15 C 0.6192(4) 0.7564(3) 0.21793(6)
H3_15 H 0.6357 0.7222 0.2133
C8_16 C 0.5381(3) 0.9079(3) 0.23920(6)
C9_15 C 0.6779(4) 0.8512(3) 0.19430(5)
C10_15 C 0.6883(4) 0.9205(3) 0.18630(6)
H4_15 H 0.6733 0.9552 0.1913
C11_15 C 0.7210(4) 0.9378(3) 0.17091(6)
H5_16 H 0.7279 0.9841 0.1656
C12_16 C 0.7434(4) 0.8858(4) 0.16351(5)
C13_15 C 0.7330(4) 0.8166(3) 0.17150(6)
H6_16 H 0.7480 0.7819 0.1666
C14_15 C 0.7003(4) 0.7993(3) 0.18690(6)
H7_15 H 0.6933 0.7530 0.1923
C15_16 C 0.7221(4) 0.8745(4) 0.13455(6)
C16_16 C 0.6300(4) 0.8250(5) 0.13608(10)
H8_16 H 0.6093 0.7773 0.1294
H9_16 H 0.6067 0.8578 0.1328
H10_16 H 0.6156 0.8086 0.1471
C17_16 C 0.8429(4) 0.9366(4) 0.12542(8)
H11_16 H 0.8867 0.9579 0.1183
C18_16 C 0.8503(5) 0.9429(5) 0.14125(9)
H12_16 H 0.8984 0.9696 0.1472
N1_16 N 0.7703(3) 0.9010(3) 0.14712(6)
N2_16 N 0.7625(3) 0.8945(3) 0.12092(5)
O2_16 O 0.5258(2) 0.6400(2) 0.25389(4)
O3_6 O 0.5063(2) 0.8883(2) 0.25294(4)
Cu5_16 Cu 0.71230(6) 0.86725(4) 0.09714(2)
N3_16 N 0.4653(4) 0.5611(3) 0.28758(5)
O6_11 O 0.3819(3) 0.4937(2) 0.25294(4)
C1_17 C 0.0980(4) 0.4460(3) 0.23994(6)
C2_16 C 0.1562(4) 0.4219(3) 0.23251(6)
C3_16 C 0.2304(4) 0.4462(3) 0.23958(6)
H1_16 H 0.2430 0.4731 0.2494
C4_16 C 0.2855(4) 0.4309(3) 0.23222(6)
C5_16 C 0.2662(5) 0.3890(4) 0.21774(6)
H2_16 H 0.3038 0.3775 0.2130
C6_16 C 0.1915(6) 0.3639(4) 0.21030(7)
C7_16 C 0.1371(5) 0.3808(4) 0.21793(6)
H3_16 H 0.0864 0.3643 0.2133
C8_17 C 0.3697(4) 0.4619(3) 0.23920(6)
C9_16 C 0.1732(5) 0.3221(4) 0.19430(5)
C10_16 C 0.2321(5) 0.3117(4) 0.18630(6)
H4_16 H 0.2818 0.3267 0.1913
C11_16 C 0.2167(5) 0.2790(4) 0.17091(6)
H5_17 H 0.2561 0.2721 0.1656
C12_17 C 0.1423(6) 0.2566(4) 0.16351(5)
C13_16 C 0.0835(5) 0.2670(4) 0.17150(6)
H6_17 H 0.0338 0.2520 0.1666
C14_16 C 0.0989(5) 0.2997(4) 0.18690(6)
H7_16 H 0.0596 0.3067 0.1923
C15_17 C 0.1523(6) 0.2779(4) 0.13455(6)
C16_17 C 0.1949(6) 0.3700(4) 0.13608(10)
H8_17 H 0.1679 0.3907 0.1294
H9_17 H 0.2510 0.3933 0.1328
H10_17 H 0.1929 0.3844 0.1471
C17_17 C 0.0936(6) 0.1571(4) 0.12542(8)
H11_17 H 0.0711 0.1133 0.1183
C18_17 C 0.0925(7) 0.1497(5) 0.14125(9)
H12_17 H 0.0711 0.1016 0.1472
N1_17 N 0.1306(4) 0.2297(3) 0.14712(6)
N2_17 N 0.1319(4) 0.2375(3) 0.12092(5)
O2_17 O 0.1141(3) 0.4742(2) 0.25389(4)
Cu5_17 Cu 0.15495(7) 0.28770(6) 0.09714(2)
N3_17 N 0.0959(5) 0.5347(4) 0.28758(5)
O6_12 O 0.1117(4) 0.6181(3) 0.25294(4)
C1_18 C 0.3479(3) 0.9020(4) 0.23994(6)
C2_17 C 0.2656(3) 0.8438(4) 0.23251(6)
C3_17 C 0.2157(3) 0.7696(4) 0.23958(6)
H1_17 H 0.2300 0.7570 0.2494
C4_17 C 0.1453(3) 0.7145(4) 0.23222(6)
C5_17 C 0.1227(3) 0.7338(5) 0.21774(6)
H2_17 H 0.0736 0.6962 0.2130
C6_17 C 0.1723(4) 0.8085(6) 0.21030(7)
C7_17 C 0.2436(3) 0.8629(5) 0.21793(6)
H3_17 H 0.2778 0.9136 0.2133
C8_18 C 0.0921(3) 0.6303(4) 0.23920(6)
C9_17 C 0.1488(3) 0.8268(5) 0.19430(5)
C10_17 C 0.0795(3) 0.7679(5) 0.18630(6)
H4_17 H 0.0448 0.7182 0.1913
C11_17 C 0.0622(3) 0.7833(5) 0.17091(6)
H5_18 H 0.0159 0.7439 0.1656
C12_18 C 0.1142(4) 0.8577(6) 0.16351(5)
C13_17 C 0.1834(3) 0.9165(5) 0.17150(6)
H6_18 H 0.2181 0.9662 0.1666
C14_17 C 0.2007(3) 0.9011(5) 0.18690(6)
H7_17 H 0.2470 0.9404 0.1923
C15_18 C 0.1255(4) 0.8477(6) 0.13455(6)
C16_18 C 0.1750(5) 0.8051(6) 0.13608(10)
H8_18 H 0.2227 0.8321 0.1294
H9_18 H 0.1422 0.7490 0.1328
H10_18 H 0.1914 0.8071 0.1471
C17_18 C 0.0634(4) 0.9064(6) 0.12542(8)
H11_18 H 0.0421 0.9289 0.1183
C18_18 C 0.0571(5) 0.9075(7) 0.14125(9)
H12_18 H 0.0304 0.9289 0.1472
N1_18 N 0.0990(3) 0.8694(4) 0.14712(6)
N2_18 N 0.1055(3) 0.8681(4) 0.12092(5)
O2_18 O 0.3600(2) 0.8859(3) 0.25389(4)
Cu5_18 Cu 0.13275(4) 0.84505(7) 0.09714(2)
N3_18 N 0.4389(3) 0.9041(5) 0.28758(5)
C1_19 C 0.0146(3) 0.7793(3) 0.07327(6)
O1_10 O 0.0629(2) 0.7670(3) 0.06501(4)
O2_19 O 0.0267(2) 0.8075(2) 0.08722(4)
O5_10 O 0.1003(3) 0.7296(2) 0.10166(4)
O6_13 O 0.1730(2) 0.9514(3) 0.08627(4)
O7_10 O 0.2467(4) 0.8798(3) 0.10220(4)
C2_18 C 0.9323(3) 0.7552(3) 0.06584(6)
C3_18 C 0.8824(3) 0.7795(3) 0.07291(6)
H1_18 H 0.8967 0.8064 0.0827
C4_18 C 0.8120(3) 0.7642(3) 0.06555(6)
C5_18 C 0.7894(3) 0.7223(4) 0.05107(6)
H2_18 H 0.7403 0.7108 0.0463
C6_18 C 0.8390(4) 0.6972(4) 0.04363(7)
C7_18 C 0.9103(3) 0.7141(4) 0.05126(6)
H3_18 H 0.9445 0.6976 0.0466
C8_19 C 0.7588(3) 0.7952(3) 0.07253(6)
C9_18 C 0.8155(3) 0.6554(4) 0.02763(5)
C10_18 C 0.7462(3) 0.6450(4) 0.01963(6)
H4_18 H 0.7115 0.6600 0.0246
C11_18 C 0.7289(3) 0.6123(4) 0.00424(6)
C13_18 C 0.8501(3) 0.6003(4) 0.00483(6)
C14_18 C 0.8674(3) 0.6330(4) 0.02023(6)
H7_18 H 0.9137 0.6400 0.0256
O3_7 O 0.7784(2) 0.8270(2) 0.08627(4)
O4_10 O 0.7003(2) 0.7869(3) 0.06447(4)
H5_19 H 0.6826 0.6054 0.9989
C12_19 C 0.7809(4) 0.5899(4) 0.99684(5)
H6_19 H 0.8848 0.5853 0.9999
C15_19 C 0.7922(4) 0.6112(4) 0.96788(6)
C16_19 C 0.8417(5) 0.7033(4) 0.96941(10)
H8_19 H 0.8894 0.7240 0.9627
H9_19 H 0.8089 0.7266 0.9661
H10_19 H 0.8581 0.7177 0.9804
C17_19 C 0.7301(4) 0.4904(4) 0.95875(8)
H11_19 H 0.7088 0.4466 0.9516
C18_19 C 0.7238(5) 0.4830(5) 0.97458(9)
H12_19 H 0.6971 0.4349 0.9805
N1_19 N 0.7657(3) 0.5630(3) 0.98045(6)
C1_20 C 0.2207(3) 0.2353(4) 0.07327(6)
C2_19 C 0.2448(3) 0.1771(4) 0.06584(6)
C3_19 C 0.2205(3) 0.1029(4) 0.07291(6)
H1_19 H 0.1936 0.0903 0.0827
C4_19 C 0.2358(3) 0.0478(4) 0.06555(6)
C5_19 C 0.2777(4) 0.0671(5) 0.05107(6)
H2_19 H 0.2892 0.0295 0.0463
C6_19 C 0.3028(4) 0.1418(6) 0.04363(7)
C7_19 C 0.2859(4) 0.1962(5) 0.05126(6)
H3_19 H 0.3024 0.2469 0.0466
C9_19 C 0.3446(4) 0.1601(5) 0.02763(5)
C10_19 C 0.3550(4) 0.1012(5) 0.01963(6)
H4_19 H 0.3400 0.0515 0.0246
C11_19 C 0.3877(4) 0.1166(5) 0.00424(6)
C13_19 C 0.3997(4) 0.2498(5) 0.00483(6)
C14_19 C 0.3670(4) 0.2344(5) 0.02023(6)
H7_19 H 0.3600 0.2737 0.0256
O1_11 O 0.2330(3) 0.2959(4) 0.06501(4)
O2_20 O 0.1925(2) 0.2192(3) 0.08722(4)
O5_11 O 0.2704(2) 0.3708(4) 0.10166(4)
O6_14 O 0.0486(3) 0.2216(4) 0.08627(4)
O7_11 O 0.1202(3) 0.3670(5) 0.10220(4)
H5_20 H 0.3946 0.0772 0.9989
C12_20 C 0.4101(4) 0.1910(6) 0.99684(5)
H6_20 H 0.4147 0.2995 0.9999
C15_20 C 0.3888(4) 0.1810(6) 0.96788(6)
C16_20 C 0.2967(4) 0.1384(6) 0.96941(10)
H8_20 H 0.2760 0.1654 0.9627
H9_20 H 0.2734 0.0823 0.9661
H10_20 H 0.2823 0.1404 0.9804
C17_20 C 0.5096(4) 0.2397(6) 0.95875(8)
H11_20 H 0.5534 0.2622 0.9516
C18_20 C 0.5170(5) 0.2408(7) 0.97458(9)
H12_20 H 0.5651 0.2622 0.9805
N1_20 N 0.4370(3) 0.2027(4) 0.98045(6)
C8_20 C 0.2048(3) 0.9636(4) 0.07253(6)
O4_11 O 0.2131(3) 0.9134(4) 0.06447(4)
C8_21 C 0.0364(4) 0.2412(3) 0.07253(6)
O4_12 O 0.0866(4) 0.2997(2) 0.06447(4)
H5_21 H 0.9228 0.3174 0.9989
C12_21 C 0.8090(6) 0.2191(4) 0.99684(5)
H6_21 H 0.7005 0.1152 0.9999
C15_21 C 0.8190(6) 0.2078(4) 0.96788(6)
C16_21 C 0.8616(6) 0.1583(5) 0.96941(10)
H8_21 H 0.8346 0.1106 0.9627
H9_21 H 0.9177 0.1911 0.9661
H10_21 H 0.8596 0.1419 0.9804
C17_21 C 0.7603(6) 0.2699(4) 0.95875(8)
H11_21 H 0.7378 0.2912 0.9516
C18_21 C 0.7592(7) 0.2762(5) 0.97458(9)
H12_21 H 0.7378 0.3029 0.9805
N1_21 N 0.7973(4) 0.2343(3) 0.98045(6)
C1_21 C 0.7647(4) 0.9854(3) 0.07327(6)
O1_12 O 0.7041(4) 0.9371(2) 0.06501(4)
O2_21 O 0.7808(3) 0.9733(2) 0.08722(4)
O5_12 O 0.6292(4) 0.8997(3) 0.10166(4)
O7_12 O 0.6330(5) 0.7533(4) 0.10220(4)
C1_22 C 0.7793(3) 0.0146(3) 0.42673(6)
O1_13 O 0.7670(3) 0.0629(2) 0.43499(4)
O2_22 O 0.8075(2) 0.0267(2) 0.41278(4)
O5_13 O 0.7296(2) 0.1003(3) 0.39834(4)
O6_15 O 0.9514(3) 0.1730(2) 0.41373(4)
O7_13 O 0.8798(3) 0.2467(4) 0.39780(4)
C2_20 C 0.7552(3) 0.9323(3) 0.43416(6)
C3_20 C 0.7795(3) 0.8824(3) 0.42709(6)
H1_20 H 0.8064 0.8967 0.4173
C4_20 C 0.7642(3) 0.8120(3) 0.43445(6)
C5_20 C 0.7223(4) 0.7894(3) 0.44893(6)
H2_20 H 0.7108 0.7403 0.4537
C6_20 C 0.6972(4) 0.8390(4) 0.45637(7)
C7_20 C 0.7141(4) 0.9103(3) 0.44874(6)
H3_20 H 0.6976 0.9445 0.4534
C8_22 C 0.7952(3) 0.7588(3) 0.42747(6)
C9_20 C 0.6554(4) 0.8155(3) 0.47237(5)
C10_20 C 0.6450(4) 0.7462(3) 0.48037(6)
H4_20 H 0.6600 0.7115 0.4754
C11_20 C 0.6123(4) 0.7289(3) 0.49576(6)
H5_22 H 0.6054 0.6826 0.5011
C12_22 C 0.5899(4) 0.7809(4) 0.50316(5)
C13_20 C 0.6003(4) 0.8501(3) 0.49517(6)
H6_22 H 0.5853 0.8848 0.5001
C14_20 C 0.6330(4) 0.8674(3) 0.47977(6)
H7_20 H 0.6400 0.9137 0.4744
C15_22 C 0.6112(4) 0.7922(4) 0.53212(6)
C16_22 C 0.7033(4) 0.8417(5) 0.53059(10)
H8_22 H 0.7240 0.8894 0.5373
H9_22 H 0.7266 0.8089 0.5339
H10_22 H 0.7177 0.8581 0.5196
C17_22 C 0.4904(4) 0.7301(4) 0.54125(8)
H11_22 H 0.4466 0.7088 0.5484
C18_22 C 0.4830(5) 0.7238(5) 0.52542(9)
H12_22 H 0.4349 0.6971 0.5195
N1_22 N 0.5630(3) 0.7657(3) 0.51955(6)
O3_8 O 0.8270(2) 0.7784(2) 0.41373(4)
O4_13 O 0.7869(3) 0.7003(2) 0.43553(4)
C1_23 C 0.2353(4) 0.2207(3) 0.42673(6)
C2_21 C 0.1771(4) 0.2448(3) 0.43416(6)
C3_21 C 0.1029(4) 0.2205(3) 0.42709(6)
H1_21 H 0.0903 0.1936 0.4173
C4_21 C 0.0478(4) 0.2358(3) 0.43445(6)
C5_21 C 0.0671(5) 0.2777(4) 0.44893(6)
H2_21 H 0.0295 0.2892 0.4537
C6_21 C 0.1418(6) 0.3028(4) 0.45637(7)
C7_21 C 0.1962(5) 0.2859(4) 0.44874(6)
H3_21 H 0.2469 0.3024 0.4534
C9_21 C 0.1601(5) 0.3446(4) 0.47237(5)
C10_21 C 0.1012(5) 0.3550(4) 0.48037(6)
H4_21 H 0.0515 0.3400 0.4754
C11_21 C 0.1166(5) 0.3877(4) 0.49576(6)
H5_23 H 0.0772 0.3946 0.5011
C12_23 C 0.1910(6) 0.4101(4) 0.50316(5)
C13_21 C 0.2498(5) 0.3997(4) 0.49517(6)
H6_23 H 0.2995 0.4147 0.5001
C14_21 C 0.2344(5) 0.3670(4) 0.47977(6)
H7_21 H 0.2737 0.3600 0.4744
C15_23 C 0.1810(6) 0.3888(4) 0.53212(6)
C16_23 C 0.1384(6) 0.2967(4) 0.53059(10)
H8_23 H 0.1654 0.2760 0.5373
H9_23 H 0.0823 0.2734 0.5339
H10_23 H 0.1404 0.2823 0.5196
C17_23 C 0.2397(6) 0.5096(4) 0.54125(8)
H11_23 H 0.2622 0.5534 0.5484
C18_23 C 0.2408(7) 0.5170(5) 0.52542(9)
H12_23 H 0.2622 0.5651 0.5195
N1_23 N 0.2027(4) 0.4370(3) 0.51955(6)
O1_14 O 0.2959(4) 0.2330(3) 0.43499(4)
O2_23 O 0.2192(3) 0.1925(2) 0.41278(4)
O5_14 O 0.3708(4) 0.2704(2) 0.39834(4)
O6_16 O 0.2216(4) 0.0486(3) 0.41373(4)
O7_14 O 0.3670(5) 0.1202(3) 0.39780(4)
C8_23 C 0.9636(4) 0.2048(3) 0.42747(6)
O4_14 O 0.9134(4) 0.2131(3) 0.43553(4)
C8_24 C 0.2412(3) 0.0364(4) 0.42747(6)
O4_15 O 0.2997(2) 0.0866(4) 0.43553(4)
C2_22 C 0.0677(3) 0.8229(4) 0.43416(6)
C3_22 C 0.1176(3) 0.8971(4) 0.42709(6)
H1_22 H 0.1033 0.9097 0.4173
C4_22 C 0.1880(3) 0.9522(4) 0.43445(6)
C5_22 C 0.2106(3) 0.9329(5) 0.44893(6)
H2_22 H 0.2597 0.9705 0.4537
C6_22 C 0.1610(4) 0.8582(6) 0.45637(7)
C7_22 C 0.0897(3) 0.8038(5) 0.44874(6)
H3_22 H 0.0555 0.7531 0.4534
C9_22 C 0.1845(3) 0.8399(5) 0.47237(5)
C10_22 C 0.2538(3) 0.8988(5) 0.48037(6)
H4_22 H 0.2885 0.9485 0.4754
C11_22 C 0.2711(3) 0.8834(5) 0.49576(6)
H5_24 H 0.3174 0.9228 0.5011
C12_24 C 0.2191(4) 0.8090(6) 0.50316(5)
C13_22 C 0.1499(3) 0.7502(5) 0.49517(6)
H6_24 H 0.1152 0.7005 0.5001
C14_22 C 0.1326(3) 0.7656(5) 0.47977(6)
H7_22 H 0.0863 0.7263 0.4744
C15_24 C 0.2078(4) 0.8190(6) 0.53212(6)
C16_24 C 0.1583(5) 0.8616(6) 0.53059(10)
H8_24 H 0.1106 0.8346 0.5373
H9_24 H 0.1911 0.9177 0.5339
H10_24 H 0.1419 0.8596 0.5196
C17_24 C 0.2699(4) 0.7603(6) 0.54125(8)
H11_24 H 0.2912 0.7378 0.5484
C18_24 C 0.2762(5) 0.7592(7) 0.52542(9)
H12_24 H 0.3029 0.7378 0.5195
N1_24 N 0.2343(3) 0.7973(4) 0.51955(6)
C1_24 C 0.9854(3) 0.7647(4) 0.42673(6)
O1_15 O 0.9371(2) 0.7041(4) 0.43499(4)
O2_24 O 0.9733(2) 0.7808(3) 0.41278(4)
O5_15 O 0.8997(3) 0.6292(4) 0.39834(4)
O7_15 O 0.7533(4) 0.6330(5) 0.39780(4)
C1_25 C 0.3479(3) 0.4460(3) 0.73994(6)
C2_23 C 0.2656(3) 0.4219(3) 0.73251(6)
C3_23 C 0.2157(3) 0.4462(3) 0.73958(6)
H1_23 H 0.2300 0.4731 0.7494
C4_23 C 0.1453(3) 0.4309(3) 0.73222(6)
C5_23 C 0.1227(3) 0.3890(4) 0.71774(6)
H2_23 H 0.0736 0.3775 0.7130
C6_23 C 0.1723(4) 0.3639(4) 0.71030(7)
C7_23 C 0.2436(3) 0.3808(4) 0.71793(6)
H3_23 H 0.2778 0.3643 0.7133
C8_25 C 0.0921(3) 0.4619(3) 0.73920(6)
C9_23 C 0.1488(3) 0.3221(4) 0.69430(5)
C10_23 C 0.0795(3) 0.3117(4) 0.68630(6)
H4_23 H 0.0448 0.3267 0.6913
C11_23 C 0.0622(3) 0.2790(4) 0.67091(6)
H5_25 H 0.0159 0.2721 0.6656
C12_25 C 0.1142(4) 0.2566(4) 0.66351(5)
C13_23 C 0.1834(3) 0.2670(4) 0.67150(6)
H6_25 H 0.2181 0.2520 0.6666
C14_23 C 0.2007(3) 0.2997(4) 0.68690(6)
H7_23 H 0.2470 0.3067 0.6923
C15_25 C 0.1255(4) 0.2779(4) 0.63455(6)
C16_25 C 0.1750(5) 0.3700(4) 0.63608(10)
H8_25 H 0.2227 0.3907 0.6294
H9_25 H 0.1422 0.3933 0.6328
H10_25 H 0.1914 0.3844 0.6471
C17_25 C 0.0634(4) 0.1571(4) 0.62542(8)
H11_25 H 0.0421 0.1133 0.6183
C18_25 C 0.0571(5) 0.1497(5) 0.64125(9)
H12_25 H 0.0304 0.1016 0.6472
N1_25 N 0.0990(3) 0.2297(3) 0.64712(6)
O1_16 O 0.3962(2) 0.4337(3) 0.73168(4)
O2_25 O 0.3600(2) 0.4742(2) 0.75389(4)
O3_9 O 0.1117(2) 0.4937(2) 0.75294(4)
O4_16 O 0.0336(2) 0.4536(3) 0.73114(4)
O5_16 O 0.4337(3) 0.3962(2) 0.76832(4)
O6_17 O 0.5063(2) 0.6181(3) 0.75294(4)
O7_16 O 0.5801(4) 0.5464(3) 0.76886(4)
O5_17 O 0.6038(2) 0.0374(4) 0.76832(4)
O7_17 O 0.4536(3) 0.0336(5) 0.76886(4)
C1_26 C 0.5540(3) 0.9020(4) 0.73994(6)
C2_24 C 0.5781(3) 0.8438(4) 0.73251(6)
C3_24 C 0.5538(3) 0.7696(4) 0.73958(6)
H1_24 H 0.5269 0.7570 0.7494
C4_24 C 0.5691(3) 0.7145(4) 0.73222(6)
C5_24 C 0.6110(4) 0.7338(5) 0.71774(6)
H2_24 H 0.6225 0.6962 0.7130
C6_24 C 0.6361(4) 0.8085(6) 0.71030(7)
C7_24 C 0.6192(4) 0.8629(5) 0.71793(6)
H3_24 H 0.6357 0.9136 0.7133
C8_26 C 0.5381(3) 0.6303(4) 0.73920(6)
C9_24 C 0.6779(4) 0.8268(5) 0.69430(5)
C10_24 C 0.6883(4) 0.7679(5) 0.68630(6)
H4_24 H 0.6733 0.7182 0.6913
C11_24 C 0.7210(4) 0.7833(5) 0.67091(6)
H5_26 H 0.7279 0.7439 0.6656
C12_26 C 0.7434(4) 0.8577(6) 0.66351(5)
C13_24 C 0.7330(4) 0.9165(5) 0.67150(6)
H6_26 H 0.7480 0.9662 0.6666
C14_24 C 0.7003(4) 0.9011(5) 0.68690(6)
H7_24 H 0.6933 0.9404 0.6923
C15_26 C 0.7221(4) 0.8477(6) 0.63455(6)
C16_26 C 0.6300(4) 0.8051(6) 0.63608(10)
H8_26 H 0.6093 0.8321 0.6294
H9_26 H 0.6067 0.7490 0.6328
H10_26 H 0.6156 0.8071 0.6471
C17_26 C 0.8429(4) 0.9064(6) 0.62542(8)
H11_26 H 0.8867 0.9289 0.6183
C18_26 C 0.8503(5) 0.9075(7) 0.64125(9)
H12_26 H 0.8984 0.9289 0.6472
N1_26 N 0.7703(3) 0.8694(4) 0.64712(6)
O1_17 O 0.5663(3) 0.9626(4) 0.73168(4)
O2_26 O 0.5258(2) 0.8859(3) 0.75389(4)
O4_17 O 0.5464(3) 0.5801(4) 0.73114(4)
O6_18 O 0.3819(3) 0.8883(4) 0.75294(4)
C1_27 C 0.0980(4) 0.6521(3) 0.73994(6)
C2_25 C 0.1562(4) 0.7344(3) 0.73251(6)
C3_25 C 0.2304(4) 0.7843(3) 0.73958(6)
H1_25 H 0.2430 0.7700 0.7494
C4_25 C 0.2855(4) 0.8547(3) 0.73222(6)
C5_25 C 0.2662(5) 0.8773(3) 0.71774(6)
H2_25 H 0.3038 0.9264 0.7130
C6_25 C 0.1915(6) 0.8277(4) 0.71030(7)
C7_25 C 0.1371(5) 0.7564(3) 0.71793(6)
H3_25 H 0.0864 0.7222 0.7133
C8_27 C 0.3697(4) 0.9079(3) 0.73920(6)
C9_25 C 0.1732(5) 0.8512(3) 0.69430(5)
C10_25 C 0.2321(5) 0.9205(3) 0.68630(6)
H4_25 H 0.2818 0.9552 0.6913
C11_25 C 0.2167(5) 0.9378(3) 0.67091(6)
H5_27 H 0.2561 0.9841 0.6656
C12_27 C 0.1423(6) 0.8858(4) 0.66351(5)
C13_25 C 0.0835(5) 0.8166(3) 0.67150(6)
H6_27 H 0.0338 0.7819 0.6666
C14_25 C 0.0989(5) 0.7993(3) 0.68690(6)
H7_25 H 0.0596 0.7530 0.6923
C15_27 C 0.1523(6) 0.8745(4) 0.63455(6)
C16_27 C 0.1949(6) 0.8250(5) 0.63608(10)
H8_27 H 0.1679 0.7773 0.6294
H9_27 H 0.2510 0.8578 0.6328
H10_27 H 0.1929 0.8086 0.6471
C17_27 C 0.0936(6) 0.9366(4) 0.62542(8)
H11_27 H 0.0711 0.9579 0.6183
C18_27 C 0.0925(7) 0.9429(5) 0.64125(9)
H12_27 H 0.0711 0.9696 0.6472
N1_27 N 0.1306(4) 0.9010(3) 0.64712(6)
O1_18 O 0.0374(4) 0.6038(2) 0.73168(4)
O2_27 O 0.1141(3) 0.6400(2) 0.75389(4)
O4_18 O 0.4199(4) 0.9664(2) 0.73114(4)
O5_18 O 0.9626(4) 0.5663(3) 0.76832(4)
O7_18 O 0.9664(5) 0.4199(4) 0.76886(4)
C1_28 C 0.1126(3) 0.6813(3) 0.09340(6)
C2_26 C 0.0885(3) 0.5990(3) 0.10083(6)
C3_26 C 0.1128(3) 0.5491(3) 0.09376(6)
H1_26 H 0.1397 0.5634 0.0840
C4_26 C 0.0975(3) 0.4787(3) 0.10112(6)
C5_26 C 0.0556(4) 0.4561(3) 0.11560(6)
H2_26 H 0.0441 0.4070 0.1204
C6_26 C 0.0305(4) 0.5057(4) 0.12304(7)
C7_26 C 0.0474(4) 0.5770(3) 0.11541(6)
H3_26 H 0.0309 0.6112 0.1201
C8_28 C 0.1285(3) 0.4255(3) 0.09414(6)
C16_28 C 0.0366(4) 0.5084(5) 0.19726(10)
H8_28 H 0.0573 0.5561 0.2040
H9_28 H 0.0599 0.4756 0.2006
H10_28 H 0.0510 0.5248 0.1863
O2_28 O 0.1408(2) 0.6934(2) 0.07945(4)
O3_10 O 0.1603(2) 0.4451(2) 0.08040(4)
O6_19 O 0.2847(3) 0.8397(2) 0.08040(4)
C9_26 C 0.9887(4) 0.4822(3) 0.13904(5)
C10_26 C 0.9783(4) 0.4129(3) 0.14704(6)
H4_26 H 0.9933 0.3782 0.1421
C11_26 C 0.9456(4) 0.3956(3) 0.16243(6)
H5_28 H 0.9387 0.3493 0.1678
C12_28 C 0.9232(4) 0.4476(4) 0.16983(5)
C13_26 C 0.9336(4) 0.5168(3) 0.16184(6)
H6_28 H 0.9186 0.5515 0.1668
C14_26 C 0.9663(4) 0.5341(3) 0.14644(6)
H7_26 H 0.9733 0.5804 0.1411
C15_28 C 0.9445(4) 0.4589(4) 0.19879(6)
C17_28 C 0.8237(4) 0.3968(4) 0.20792(8)
H11_28 H 0.7799 0.3755 0.2151
C18_28 C 0.8163(5) 0.3905(5) 0.19209(9)
H12_28 H 0.7682 0.3638 0.1862
N1_28 N 0.8963(3) 0.4324(3) 0.18622(6)
C9_27 C 0.4934(5) 0.0113(4) 0.13904(5)
C10_27 C 0.4345(5) 0.0217(4) 0.14704(6)
H4_27 H 0.3848 0.0067 0.1421
C11_27 C 0.4499(5) 0.0544(4) 0.16243(6)
H5_29 H 0.4105 0.0613 0.1678
C12_29 C 0.5243(6) 0.0768(4) 0.16983(5)
C13_27 C 0.5831(5) 0.0664(4) 0.16184(6)
H6_29 H 0.6328 0.0814 0.1668
C14_27 C 0.5677(5) 0.0337(4) 0.14644(6)
H7_27 H 0.6070 0.0267 0.1411
C15_29 C 0.5143(6) 0.0555(4) 0.19879(6)
C17_29 C 0.5730(6) 0.1763(4) 0.20792(8)
H11_29 H 0.5955 0.2201 0.2151
C18_29 C 0.5741(7) 0.1837(5) 0.19209(9)
H12_29 H 0.5955 0.2318 0.1862
N1_29 N 0.5360(4) 0.1037(3) 0.18622(6)
C1_29 C 0.5686(4) 0.8874(3) 0.09340(6)
C2_27 C 0.5104(4) 0.9115(3) 0.10083(6)
C3_27 C 0.4362(4) 0.8872(3) 0.09376(6)
H1_27 H 0.4236 0.8603 0.0840
C4_27 C 0.3811(4) 0.9025(3) 0.10112(6)
C5_27 C 0.4004(5) 0.9444(4) 0.11560(6)
H2_27 H 0.3628 0.9559 0.1204
C6_27 C 0.4751(6) 0.9695(4) 0.12304(7)
C7_27 C 0.5295(5) 0.9526(4) 0.11541(6)
H3_27 H 0.5802 0.9691 0.1201
C8_29 C 0.2969(4) 0.8715(3) 0.09414(6)
C16_29 C 0.4717(6) 0.9634(4) 0.19726(10)
H8_29 H 0.4987 0.9427 0.2040
H9_29 H 0.4156 0.9401 0.2006
H10_29 H 0.4737 0.9490 0.1863
O2_29 O 0.5525(3) 0.8592(2) 0.07945(4)
O6_20 O 0.5549(4) 0.7153(3) 0.08040(4)
C1_30 C 0.3187(3) 0.4314(4) 0.09340(6)
C2_28 C 0.4010(3) 0.4896(4) 0.10083(6)
C3_28 C 0.4509(3) 0.5638(4) 0.09376(6)
H1_28 H 0.4366 0.5764 0.0840
C4_28 C 0.5213(3) 0.6189(4) 0.10112(6)
C5_28 C 0.5439(3) 0.5996(5) 0.11560(6)
H2_28 H 0.5930 0.6372 0.1204
C6_28 C 0.4943(4) 0.5249(6) 0.12304(7)
C7_28 C 0.4230(3) 0.4705(5) 0.11541(6)
H3_28 H 0.3888 0.4198 0.1201
C8_30 C 0.5745(3) 0.7031(4) 0.09414(6)
C9_28 C 0.5178(3) 0.5066(5) 0.13904(5)
C10_28 C 0.5871(3) 0.5655(5) 0.14704(6)
H4_28 H 0.6218 0.6152 0.1421
C11_28 C 0.6044(3) 0.5501(5) 0.16243(6)
H5_30 H 0.6507 0.5895 0.1678
C12_30 C 0.5524(4) 0.4757(6) 0.16983(5)
C13_28 C 0.4832(3) 0.4169(5) 0.16184(6)
H6_30 H 0.4485 0.3672 0.1668
C14_28 C 0.4659(3) 0.4323(5) 0.14644(6)
H7_28 H 0.4196 0.3930 0.1411
C15_30 C 0.5411(4) 0.4857(6) 0.19879(6)
C16_30 C 0.4916(5) 0.5283(6) 0.19726(10)
H8_30 H 0.4439 0.5013 0.2040
H9_30 H 0.5244 0.5844 0.2006
H10_30 H 0.4752 0.5263 0.1863
C17_30 C 0.6032(4) 0.4270(6) 0.20792(8)
H11_30 H 0.6245 0.4045 0.2151
C18_30 C 0.6095(5) 0.4259(7) 0.19209(9)
H12_30 H 0.6362 0.4045 0.1862
N1_30 N 0.5676(3) 0.4640(4) 0.18622(6)
O2_30 O 0.3066(2) 0.4475(3) 0.07945(4)
C1_31 C 0.6813(3) 0.1126(3) 0.40660(6)
C2_29 C 0.5990(3) 0.0885(3) 0.39917(6)
C3_29 C 0.5491(3) 0.1128(3) 0.40624(6)
H1_29 H 0.5634 0.1397 0.4160
C4_29 C 0.4787(3) 0.0975(3) 0.39888(6)
C5_29 C 0.4561(3) 0.0556(4) 0.38440(6)
H2_29 H 0.4070 0.0441 0.3796
C6_29 C 0.5057(4) 0.0305(4) 0.37696(7)
C7_29 C 0.5770(3) 0.0474(4) 0.38459(6)
H3_29 H 0.6112 0.0309 0.3799
C8_31 C 0.4255(3) 0.1285(3) 0.40586(6)
C16_31 C 0.5084(5) 0.0366(4) 0.30274(10)
H8_31 H 0.5561 0.0573 0.2960
H9_31 H 0.4756 0.0599 0.2994
H10_31 H 0.5248 0.0510 0.3137
O2_31 O 0.6934(2) 0.1408(2) 0.42055(4)
O3_11 O 0.4451(2) 0.1603(2) 0.41960(4)
O6_21 O 0.8397(2) 0.2847(3) 0.41960(4)
C9_29 C 0.4822(3) 0.9887(4) 0.36096(5)
C10_29 C 0.4129(3) 0.9783(4) 0.35296(6)
H4_29 H 0.3782 0.9933 0.3579
C11_29 C 0.3956(3) 0.9456(4) 0.33757(6)
H5_31 H 0.3493 0.9387 0.3322
C12_31 C 0.4476(4) 0.9232(4) 0.33017(5)
C13_29 C 0.5168(3) 0.9336(4) 0.33816(6)
H6_31 H 0.5515 0.9186 0.3332
C14_29 C 0.5341(3) 0.9663(4) 0.35356(6)
H7_29 H 0.5804 0.9733 0.3589
C15_31 C 0.4589(4) 0.9445(4) 0.30121(6)
C17_31 C 0.3968(4) 0.8237(4) 0.29208(8)
H11_31 H 0.3755 0.7799 0.2849
C18_31 C 0.3905(5) 0.8163(5) 0.30791(9)
H12_31 H 0.3638 0.7682 0.3138
N1_31 N 0.4324(3) 0.8963(3) 0.31378(6)
C9_30 C 0.0113(4) 0.4934(5) 0.36096(5)
C10_30 C 0.0217(4) 0.4345(5) 0.35296(6)
H4_30 H 0.0067 0.3848 0.3579
C11_30 C 0.0544(4) 0.4499(5) 0.33757(6)
H5_32 H 0.0613 0.4105 0.3322
C12_32 C 0.0768(4) 0.5243(6) 0.33017(5)
C13_30 C 0.0664(4) 0.5831(5) 0.33816(6)
H6_32 H 0.0814 0.6328 0.3332
C14_30 C 0.0337(4) 0.5677(5) 0.35356(6)
H7_30 H 0.0267 0.6070 0.3589
C15_32 C 0.0555(4) 0.5143(6) 0.30121(6)
C17_32 C 0.1763(4) 0.5730(6) 0.29208(8)
H11_32 H 0.2201 0.5955 0.2849
C18_32 C 0.1837(5) 0.5741(7) 0.30791(9)
H12_32 H 0.2318 0.5955 0.3138
N1_32 N 0.1037(3) 0.5360(4) 0.31378(6)
C1_32 C 0.8874(3) 0.5686(4) 0.40660(6)
C2_30 C 0.9115(3) 0.5104(4) 0.39917(6)
C3_30 C 0.8872(3) 0.4362(4) 0.40624(6)
H1_30 H 0.8603 0.4236 0.4160
C4_30 C 0.9025(3) 0.3811(4) 0.39888(6)
C5_30 C 0.9444(4) 0.4004(5) 0.38440(6)
H2_30 H 0.9559 0.3628 0.3796
C6_30 C 0.9695(4) 0.4751(6) 0.37696(7)
C7_30 C 0.9526(4) 0.5295(5) 0.38459(6)
H3_30 H 0.9691 0.5802 0.3799
C8_32 C 0.8715(3) 0.2969(4) 0.40586(6)
C16_32 C 0.9634(4) 0.4717(6) 0.30274(10)
H8_32 H 0.9427 0.4987 0.2960
H9_32 H 0.9401 0.4156 0.2994
H10_32 H 0.9490 0.4737 0.3137
O2_32 O 0.8592(2) 0.5525(3) 0.42055(4)
O6_22 O 0.7153(3) 0.5549(4) 0.41960(4)
C1_33 C 0.4314(4) 0.3187(3) 0.40660(6)
C2_31 C 0.4896(4) 0.4010(3) 0.39917(6)
C3_31 C 0.5638(4) 0.4509(3) 0.40624(6)
H1_31 H 0.5764 0.4366 0.4160
C4_31 C 0.6189(4) 0.5213(3) 0.39888(6)
C5_31 C 0.5996(5) 0.5439(3) 0.38440(6)
H2_31 H 0.6372 0.5930 0.3796
C6_31 C 0.5249(6) 0.4943(4) 0.37696(7)
C7_31 C 0.4705(5) 0.4230(3) 0.38459(6)
H3_31 H 0.4198 0.3888 0.3799
C8_33 C 0.7031(4) 0.5745(3) 0.40586(6)
C9_31 C 0.5066(5) 0.5178(3) 0.36096(5)
C10_31 C 0.5655(5) 0.5871(3) 0.35296(6)
H4_31 H 0.6152 0.6218 0.3579
C11_31 C 0.5501(5) 0.6044(3) 0.33757(6)
H5_33 H 0.5895 0.6507 0.3322
C12_33 C 0.4757(6) 0.5524(4) 0.33017(5)
C13_31 C 0.4169(5) 0.4832(3) 0.33816(6)
H6_33 H 0.3672 0.4485 0.3332
C14_31 C 0.4323(5) 0.4659(3) 0.35356(6)
H7_31 H 0.3930 0.4196 0.3589
C15_33 C 0.4857(6) 0.5411(4) 0.30121(6)
C16_33 C 0.5283(6) 0.4916(5) 0.30274(10)
H8_33 H 0.5013 0.4439 0.2960
H9_33 H 0.5844 0.5244 0.2994
H10_33 H 0.5263 0.4752 0.3137
C17_33 C 0.4270(6) 0.6032(4) 0.29208(8)
H11_33 H 0.4045 0.6245 0.2849
C18_33 C 0.4259(7) 0.6095(5) 0.30791(9)
H12_33 H 0.4045 0.6362 0.3138
N1_33 N 0.4640(4) 0.5676(3) 0.31378(6)
O2_33 O 0.4475(3) 0.3066(2) 0.42055(4)
C1_34 C 0.4460(3) 0.3479(3) 0.76006(6)
C2_32 C 0.4219(3) 0.2656(3) 0.76749(6)
C3_32 C 0.4462(3) 0.2157(3) 0.76042(6)
H1_32 H 0.4731 0.2300 0.7506
C4_32 C 0.4309(3) 0.1453(3) 0.76778(6)
C5_32 C 0.3890(4) 0.1227(3) 0.78226(6)
H2_32 H 0.3775 0.0736 0.7870
C6_32 C 0.3639(4) 0.1723(4) 0.78970(7)
C7_32 C 0.3808(4) 0.2436(3) 0.78207(6)
H3_32 H 0.3643 0.2778 0.7867
C8_34 C 0.4619(3) 0.0921(3) 0.76080(6)
C9_32 C 0.3221(4) 0.1488(3) 0.80570(5)
C10_32 C 0.3117(4) 0.0795(3) 0.81370(6)
H4_32 H 0.3267 0.0448 0.8087
C11_32 C 0.2790(4) 0.0622(3) 0.82909(6)
H5_34 H 0.2721 0.0159 0.8344
C12_34 C 0.2566(4) 0.1142(4) 0.83649(5)
C13_32 C 0.2670(4) 0.1834(3) 0.82850(6)
H6_34 H 0.2520 0.2181 0.8334
C14_32 C 0.2997(4) 0.2007(3) 0.81310(6)
H7_32 H 0.3067 0.2470 0.8077
C15_34 C 0.2779(4) 0.1255(4) 0.86545(6)
C16_34 C 0.3700(4) 0.1750(5) 0.86392(10)
H8_34 H 0.3907 0.2227 0.8706
H9_34 H 0.3933 0.1422 0.8672
H10_34 H 0.3844 0.1914 0.8529
C17_34 C 0.1571(4) 0.0634(4) 0.87458(8)
H11_34 H 0.1133 0.0421 0.8817
C18_34 C 0.1497(5) 0.0571(5) 0.85875(9)
H12_34 H 0.1016 0.0304 0.8528
N1_34 N 0.2297(3) 0.0990(3) 0.85288(6)
O2_34 O 0.4742(2) 0.3600(2) 0.74611(4)
O3_12 O 0.4937(2) 0.1117(2) 0.74706(4)
O6_23 O 0.6181(3) 0.5063(2) 0.74706(4)
C1_35 C 0.9020(4) 0.5540(3) 0.76006(6)
C2_33 C 0.8438(4) 0.5781(3) 0.76749(6)
C3_33 C 0.7696(4) 0.5538(3) 0.76042(6)
H1_33 H 0.7570 0.5269 0.7506
C4_33 C 0.7145(4) 0.5691(3) 0.76778(6)
C5_33 C 0.7338(5) 0.6110(4) 0.78226(6)
H2_33 H 0.6962 0.6225 0.7870
C6_33 C 0.8085(6) 0.6361(4) 0.78970(7)
C7_33 C 0.8629(5) 0.6192(4) 0.78207(6)
H3_33 H 0.9136 0.6357 0.7867
C8_35 C 0.6303(4) 0.5381(3) 0.76080(6)
C9_33 C 0.8268(5) 0.6779(4) 0.80570(5)
C10_33 C 0.7679(5) 0.6883(4) 0.81370(6)
H4_33 H 0.7182 0.6733 0.8087
C11_33 C 0.7833(5) 0.7210(4) 0.82909(6)
H5_35 H 0.7439 0.7279 0.8344
C12_35 C 0.8577(6) 0.7434(4) 0.83649(5)
C13_33 C 0.9165(5) 0.7330(4) 0.82850(6)
H6_35 H 0.9662 0.7480 0.8334
C14_33 C 0.9011(5) 0.7003(4) 0.81310(6)
H7_33 H 0.9404 0.6933 0.8077
C15_35 C 0.8477(6) 0.7221(4) 0.86545(6)
C16_35 C 0.8051(6) 0.6300(4) 0.86392(10)
H8_35 H 0.8321 0.6093 0.8706
H9_35 H 0.7490 0.6067 0.8672
H10_35 H 0.8071 0.6156 0.8529
C17_35 C 0.9064(6) 0.8429(4) 0.87458(8)
H11_35 H 0.9289 0.8867 0.8817
C18_35 C 0.9075(7) 0.8503(5) 0.85875(9)
H12_35 H 0.9289 0.8984 0.8528
N1_35 N 0.8694(4) 0.7703(3) 0.85288(6)
O2_35 O 0.8859(3) 0.5258(2) 0.74611(4)
O6_24 O 0.8883(4) 0.3819(3) 0.74706(4)
C1_36 C 0.6521(3) 0.0980(4) 0.76006(6)
C2_34 C 0.7344(3) 0.1562(4) 0.76749(6)
C3_34 C 0.7843(3) 0.2304(4) 0.76042(6)
H1_34 H 0.7700 0.2430 0.7506
C4_34 C 0.8547(3) 0.2855(4) 0.76778(6)
C5_34 C 0.8773(3) 0.2662(5) 0.78226(6)
H2_34 H 0.9264 0.3038 0.7870
C6_34 C 0.8277(4) 0.1915(6) 0.78970(7)
C7_34 C 0.7564(3) 0.1371(5) 0.78207(6)
H3_34 H 0.7222 0.0864 0.7867
C8_36 C 0.9079(3) 0.3697(4) 0.76080(6)
C9_34 C 0.8512(3) 0.1732(5) 0.80570(5)
C10_34 C 0.9205(3) 0.2321(5) 0.81370(6)
H4_34 H 0.9552 0.2818 0.8087
C11_34 C 0.9378(3) 0.2167(5) 0.82909(6)
H5_36 H 0.9841 0.2561 0.8344
C12_36 C 0.8858(4) 0.1423(6) 0.83649(5)
C13_34 C 0.8166(3) 0.0835(5) 0.82850(6)
H6_36 H 0.7819 0.0338 0.8334
C14_34 C 0.7993(3) 0.0989(5) 0.81310(6)
H7_34 H 0.7530 0.0596 0.8077
C15_36 C 0.8745(4) 0.1523(6) 0.86545(6)
C16_36 C 0.8250(5) 0.1949(6) 0.86392(10)
H8_36 H 0.7773 0.1679 0.8706
H9_36 H 0.8578 0.2510 0.8672
H10_36 H 0.8086 0.1929 0.8529
C17_36 C 0.9366(4) 0.0936(6) 0.87458(8)
H11_36 H 0.9579 0.0711 0.8817
C18_36 C 0.9429(5) 0.0925(7) 0.85875(9)
H12_36 H 0.9696 0.0711 0.8528
N1_36 N 0.9010(3) 0.1306(4) 0.85288(6)
O2_36 O 0.6400(2) 0.1141(3) 0.74611(4)
C2_35 C 0.1771(4) 0.9323(3) 0.93416(6)
C3_35 C 0.1029(4) 0.8824(3) 0.92709(6)
H1_35 H 0.0903 0.8967 0.9173
C4_35 C 0.0478(4) 0.8120(3) 0.93445(6)
C5_35 C 0.0671(5) 0.7894(3) 0.94893(6)
H2_35 H 0.0295 0.7403 0.9537
C6_35 C 0.1418(6) 0.8390(4) 0.95637(7)
C7_35 C 0.1962(5) 0.9103(3) 0.94874(6)
H3_35 H 0.2469 0.9445 0.9534
C9_35 C 0.1601(5) 0.8155(3) 0.97237(5)
C10_35 C 0.1012(5) 0.7462(3) 0.98037(6)
H4_35 H 0.0515 0.7115 0.9754
C11_35 C 0.1166(5) 0.7289(3) 0.99576(6)
C13_35 C 0.2498(5) 0.8501(3) 0.99517(6)
C14_35 C 0.2344(5) 0.8674(3) 0.97977(6)
H7_35 H 0.2737 0.9137 0.9744
C2_36 C 0.8229(4) 0.0677(3) 0.06584(6)
C3_36 C 0.8971(4) 0.1176(3) 0.07291(6)
H1_36 H 0.9097 0.1033 0.0827
C4_36 C 0.9522(4) 0.1880(3) 0.06555(6)
C5_36 C 0.9329(5) 0.2106(3) 0.05107(6)
H2_36 H 0.9705 0.2597 0.0463
C6_36 C 0.8582(6) 0.1610(4) 0.04363(7)
C7_36 C 0.8038(5) 0.0897(3) 0.05126(6)
H3_36 H 0.7531 0.0555 0.0466
C9_36 C 0.8399(5) 0.1845(3) 0.02763(5)
C10_36 C 0.8988(5) 0.2538(3) 0.01963(6)
H4_36 H 0.9485 0.2885 0.0246
C11_36 C 0.8834(5) 0.2711(3) 0.00424(6)
C13_36 C 0.7502(5) 0.1499(3) 0.00483(6)
C14_36 C 0.7656(5) 0.1326(3) 0.02023(6)
H7_36 H 0.7263 0.0863 0.0256
loop_
_geom_bond_atom_site_label_1
_geom_bond_atom_site_label_2
_geom_bond_site_symmetry_1
_geom_bond_site_symmetry_2
C15 C16 1_555 1_555
C16 H8 1_555 1_555
H9 C16 1_555 1_555
H10 C16 1_555 1_555
C17 H11 1_555 1_555
C18 C17 1_555 1_555
H12 C18 1_555 1_555
N1 C12 1_555 1_555
N2 C15 1_555 1_555
Cu5 N2 1_555 1_555
C15 N1 1_555 1_555
C17 N2 1_555 1_555
C18 N1 1_555 1_555
C2 C3 1_555 1_555
C3 H1 1_555 1_555
C4 C3 1_555 1_555
C5 C4 1_555 1_555
H2 C5 1_555 1_555
C6 C5 1_555 1_555
C7 C2 1_555 1_555
H3 C7 1_555 1_555
C8 C4 1_555 1_555
C9 C6 1_555 1_555
C10 C9 1_555 1_555
H4 C10 1_555 1_555
C11 C10 1_555 1_555
C14 C9 1_555 1_555
H7 C14 1_555 1_555
O3 C8 1_555 1_555
O4 C8 1_555 1_555
Cu2 O3 1_555 1_555
Cu4 O4 1_555 1_555
C6 C7 1_555 1_555
C13 C14 1_555 1_555
Cu2 Cu4 1_555 1_555
Cu1 O2 1_555 1_555
O1 C1 1_555 1_555
O2 C1 1_555 1_555
Cu3 Cu1 1_555 1_555
N3 Cu1 1_555 1_555
O5 Cu1 1_555 1_555
O6 Cu1 1_555 1_555
O7 Cu1 1_555 1_555
O1 Cu3 1_555 1_555
O6 C8_2 1_555 1_555
O4_2 C8_2 1_555 1_555
Cu3 O4_2 1_555 1_555
C15_2 C16_2 1_555 1_555
C16_2 H8_2 1_555 1_555
H9_2 C16_2 1_555 1_555
H10_2 C16_2 1_555 1_555
C17_2 H11_2 1_555 1_555
C18_2 C17_2 1_555 1_555
H12_2 C18_2 1_555 1_555
N1_2 C12_2 1_555 1_555
N2_2 C15_2 1_555 1_555
Cu5_2 N2_2 1_555 1_555
C15_2 N1_2 1_555 1_555
C17_2 N2_2 1_555 1_555
C18_2 N1_2 1_555 1_555
C1_2 C2_2 1_555 1_555
C2_2 C3_2 1_555 1_555
C3_2 H1_2 1_555 1_555
C4_2 C3_2 1_555 1_555
C5_2 C4_2 1_555 1_555
H2_2 C5_2 1_555 1_555
C6_2 C5_2 1_555 1_555
C7_2 C2_2 1_555 1_555
H3_2 C7_2 1_555 1_555
C9_2 C6_2 1_555 1_555
C10_2 C9_2 1_555 1_555
H4_2 C10_2 1_555 1_555
C11_2 C10_2 1_555 1_555
C14_2 C9_2 1_555 1_555
H7_2 C14_2 1_555 1_555
Cu1_2 O2_2 1_555 1_555
O1_2 C1_2 1_555 1_555
O2_2 C1_2 1_555 1_555
Cu3_2 Cu1_2 1_555 1_555
N3_2 Cu1_2 1_555 1_555
O5_2 Cu1_2 1_555 1_555
O6_2 Cu1_2 1_555 1_555
O7_2 Cu1_2 1_555 1_555
C6_2 C7_2 1_555 1_555
C13_2 C14_2 1_555 1_555
O1_2 Cu3_2 1_555 1_555
Cu2 O2_3 1_555 1_555
O1_3 C1_3 1_555 1_555
O2_3 C1_3 1_555 1_555
N3_3 Cu2 1_555 1_555
O5_3 Cu2 1_555 1_555
O7_3 Cu2 1_555 1_555
O1_3 Cu4 1_555 1_555
C15_3 C16_3 1_555 1_555
C16_3 H8_3 1_555 1_555
H9_3 C16_3 1_555 1_555
H10_3 C16_3 1_555 1_555
C17_3 H11_3 1_555 1_555
C18_3 C17_3 1_555 1_555
H12_3 C18_3 1_555 1_555
N1_3 C12_3 1_555 1_555
N2_3 C15_3 1_555 1_555
Cu5_3 N2_3 1_555 1_555
C15_3 N1_3 1_555 1_555
C17_3 N2_3 1_555 1_555
C18_3 N1_3 1_555 1_555
O6_2 C8_3 1_555 1_555
O4_3 C8_3 1_555 1_555
Cu3_2 O4_3 1_555 1_555
C2_3 C3_3 1_555 1_555
C3_3 H1_3 1_555 1_555
C4_3 C3_3 1_555 1_555
C5_3 C4_3 1_555 1_555
H2_3 C5_3 1_555 1_555
C6_3 C5_3 1_555 1_555
C7_3 C2_3 1_555 1_555
H3_3 C7_3 1_555 1_555
C8_4 C4_3 1_555 1_555
C9_3 C6_3 1_555 1_555
C10_3 C9_3 1_555 1_555
H4_3 C10_3 1_555 1_555
C11_3 C10_3 1_555 1_555
H5_4 C11_3 1_555 1_555
C12_4 C11_3 1_555 1_555
C13_3 C12_4 1_555 1_555
H6_4 C13_3 1_555 1_555
C14_3 C9_3 1_555 1_555
H7_3 C14_3 1_555 1_555
C15_4 C16_4 1_555 1_555
C16_4 H8_4 1_555 1_555
H9_4 C16_4 1_555 1_555
H10_4 C16_4 1_555 1_555
C17_4 H11_4 1_555 1_555
C18_4 C17_4 1_555 1_555
H12_4 C18_4 1_555 1_555
N1_4 C12_4 1_555 1_555
N2_4 C15_4 1_555 1_555
O3_2 C8_4 1_555 1_555
O4_4 C8_4 1_555 1_555
Cu2_2 O3_2 1_555 1_555
Cu4_2 O4_4 1_555 1_555
Cu5_4 N2_4 1_555 1_555
C6_3 C7_3 1_555 1_555
C13_3 C14_3 1_555 1_555
C15_4 N1_4 1_555 1_555
C17_4 N2_4 1_555 1_555
C18_4 N1_4 1_555 1_555
Cu2_2 Cu4_2 1_555 1_555
Cu1_3 O2_4 1_555 1_555
O1_4 C1_4 1_555 1_555
O2_4 C1_4 1_555 1_555
Cu3_3 Cu1_3 1_555 1_555
N3_4 Cu1_3 1_555 1_555
O5_4 Cu1_3 1_555 1_555
O6_3 Cu1_3 1_555 1_555
O7_4 Cu1_3 1_555 1_555
O1_4 Cu3_3 1_555 1_555
O6_3 C8_5 1_555 1_555
O4_5 C8_5 1_555 1_555
Cu3_3 O4_5 1_555 1_555
C1_5 C2_4 1_555 1_555
C2_4 C3_4 1_555 1_555
C3_4 H1_4 1_555 1_555
C4_4 C3_4 1_555 1_555
C5_4 C4_4 1_555 1_555
H2_4 C5_4 1_555 1_555
C6_4 C5_4 1_555 1_555
C7_4 C2_4 1_555 1_555
H3_4 C7_4 1_555 1_555
C9_4 C6_4 1_555 1_555
C10_4 C9_4 1_555 1_555
H4_4 C10_4 1_555 1_555
C11_4 C10_4 1_555 1_555
H5_5 C11_4 1_555 1_555
C12_5 C11_4 1_555 1_555
C13_4 C12_5 1_555 1_555
H6_5 C13_4 1_555 1_555
C14_4 C9_4 1_555 1_555
H7_4 C14_4 1_555 1_555
C15_5 C16_5 1_555 1_555
C16_5 H8_5 1_555 1_555
H9_5 C16_5 1_555 1_555
H10_5 C16_5 1_555 1_555
C17_5 H11_5 1_555 1_555
C18_5 C17_5 1_555 1_555
H12_5 C18_5 1_555 1_555
Cu1_4 O2_5 1_555 1_555
N1_5 C12_5 1_555 1_555
N2_5 C15_5 1_555 1_555
O1_5 C1_5 1_555 1_555
O2_5 C1_5 1_555 1_555
Cu3_4 Cu1_4 1_555 1_555
Cu5_5 N2_5 1_555 1_555
N3_5 Cu1_4 1_555 1_555
O5_5 Cu1_4 1_555 1_555
O6_4 Cu1_4 1_555 1_555
O7_5 Cu1_4 1_555 1_555
C6_4 C7_4 1_555 1_555
C13_4 C14_4 1_555 1_555
C15_5 N1_5 1_555 1_555
C17_5 N2_5 1_555 1_555
C18_5 N1_5 1_555 1_555
O1_5 Cu3_4 1_555 1_555
Cu2_2 O2_6 1_555 1_555
O1_6 C1_6 1_555 1_555
O2_6 C1_6 1_555 1_555
N3_6 Cu2_2 1_555 1_555
O5_6 Cu2_2 1_555 1_555
O7_6 Cu2_2 1_555 1_555
O1_6 Cu4_2 1_555 1_555
C2_5 C3_5 1_555 1_555
C3_5 H1_5 1_555 1_555
C4_5 C3_5 1_555 1_555
C5_5 C4_5 1_555 1_555
H2_5 C5_5 1_555 1_555
C6_5 C5_5 1_555 1_555
C7_5 C2_5 1_555 1_555
H3_5 C7_5 1_555 1_555
C9_5 C6_5 1_555 1_555
C10_5 C9_5 1_555 1_555
H4_5 C10_5 1_555 1_555
C11_5 C10_5 1_555 1_555
H5_6 C11_5 1_555 1_555
C12_6 C11_5 1_555 1_555
C13_5 C12_6 1_555 1_555
H6_6 C13_5 1_555 1_555
C14_5 C9_5 1_555 1_555
H7_5 C14_5 1_555 1_555
C15_6 C16_6 1_555 1_555
C16_6 H8_6 1_555 1_555
H9_6 C16_6 1_555 1_555
H10_6 C16_6 1_555 1_555
C17_6 H11_6 1_555 1_555
C18_6 C17_6 1_555 1_555
H12_6 C18_6 1_555 1_555
N1_6 C12_6 1_555 1_555
N2_6 C15_6 1_555 1_555
Cu5_6 N2_6 1_555 1_555
C6_5 C7_5 1_555 1_555
C13_5 C14_5 1_555 1_555
C15_6 N1_6 1_555 1_555
C17_6 N2_6 1_555 1_555
C18_6 N1_6 1_555 1_555
O6_4 C8_6 1_555 1_555
O4_6 C8_6 1_555 1_555
Cu3_4 O4_6 1_555 1_555
C1_7 C2_6 1_555 1_555
C2_6 C3_6 1_555 1_555
C3_6 H1_6 1_555 1_555
C4_6 C3_6 1_555 1_555
C5_6 C4_6 1_555 1_555
H2_6 C5_6 1_555 1_555
C6_6 C5_6 1_555 1_555
C7_6 C2_6 1_555 1_555
H3_6 C7_6 1_555 1_555
C8_7 C4_6 1_555 1_555
C9_6 C6_6 1_555 1_555
C10_6 C9_6 1_555 1_555
H4_6 C10_6 1_555 1_555
C11_6 C10_6 1_555 1_555
H5_7 C11_6 1_555 1_555
C12_7 C11_6 1_555 1_555
C13_6 C12_7 1_555 1_555
H6_7 C13_6 1_555 1_555
C14_6 C9_6 1_555 1_555
H7_6 C14_6 1_555 1_555
C15_7 C16_7 1_555 1_555
C16_7 H8_7 1_555 1_555
H9_7 C16_7 1_555 1_555
H10_7 C16_7 1_555 1_555
C17_7 H11_7 1_555 1_555
C18_7 C17_7 1_555 1_555
H12_7 C18_7 1_555 1_555
Cu1_5 O2_7 1_555 1_555
N1_7 C12_7 1_555 1_555
N2_7 C15_7 1_555 1_555
O1_7 C1_7 1_555 1_555
O2_7 C1_7 1_555 1_555
O3_3 C8_7 1_555 1_555
O4_7 C8_7 1_555 1_555
Cu2_3 O3_3 1_555 1_555
Cu3_5 Cu1_5 1_555 1_555
Cu5_7 N2_7 1_555 1_555
N3_7 Cu1_5 1_555 1_555
O5_7 Cu1_5 1_555 1_555
O6_5 Cu1_5 1_555 1_555
O7_7 Cu1_5 1_555 1_555
C6_6 C7_6 1_555 1_555
C13_6 C14_6 1_555 1_555
C15_7 N1_7 1_555 1_555
C17_7 N2_7 1_555 1_555
C18_7 N1_7 1_555 1_555
O1_7 Cu3_5 1_555 1_555
C1_8 C2_7 1_555 1_555
C2_7 C3_7 1_555 1_555
C3_7 H1_7 1_555 1_555
C4_7 C3_7 1_555 1_555
C5_7 C4_7 1_555 1_555
H2_7 C5_7 1_555 1_555
C6_7 C5_7 1_555 1_555
C7_7 C2_7 1_555 1_555
H3_7 C7_7 1_555 1_555
C8_8 C4_7 1_555 1_555
C9_7 C6_7 1_555 1_555
C10_7 C9_7 1_555 1_555
H4_7 C10_7 1_555 1_555
C11_7 C10_7 1_555 1_555
H5_8 C11_7 1_555 1_555
C12_8 C11_7 1_555 1_555
C13_7 C12_8 1_555 1_555
H6_8 C13_7 1_555 1_555
C14_7 C9_7 1_555 1_555
H7_7 C14_7 1_555 1_555
C15_8 C16_8 1_555 1_555
C16_8 H8_8 1_555 1_555
H9_8 C16_8 1_555 1_555
H10_8 C16_8 1_555 1_555
C17_8 H11_8 1_555 1_555
C18_8 C17_8 1_555 1_555
H12_8 C18_8 1_555 1_555
Cu1_6 O2_8 1_555 1_555
N1_8 C12_8 1_555 1_555
N2_8 C15_8 1_555 1_555
O1_8 C1_8 1_555 1_555
O2_8 C1_8 1_555 1_555
O6_5 C8_8 1_555 1_555
O4_8 C8_8 1_555 1_555
Cu3_5 O4_8 1_555 1_555
Cu5_8 N2_8 1_555 1_555
N3_8 Cu1_6 1_555 1_555
O6_6 Cu1_6 1_555 1_555
C6_7 C7_7 1_555 1_555
C13_7 C14_7 1_555 1_555
C15_8 N1_8 1_555 1_555
C17_8 N2_8 1_555 1_555
C18_8 N1_8 1_555 1_555
C1_9 C2_8 1_555 1_555
C2_8 C3_8 1_555 1_555
C3_8 H1_8 1_555 1_555
C4_8 C3_8 1_555 1_555
C5_8 C4_8 1_555 1_555
H2_8 C5_8 1_555 1_555
C6_8 C5_8 1_555 1_555
C7_8 C2_8 1_555 1_555
H3_8 C7_8 1_555 1_555
C8_9 C4_8 1_555 1_555
C9_8 C6_8 1_555 1_555
C10_8 C9_8 1_555 1_555
H4_8 C10_8 1_555 1_555
C11_8 C10_8 1_555 1_555
H5_9 C11_8 1_555 1_555
C12_9 C11_8 1_555 1_555
C13_8 C12_9 1_555 1_555
H6_9 C13_8 1_555 1_555
C14_8 C9_8 1_555 1_555
H7_8 C14_8 1_555 1_555
C15_9 C16_9 1_555 1_555
C16_9 H8_9 1_555 1_555
H9_9 C16_9 1_555 1_555
H10_9 C16_9 1_555 1_555
C17_9 H11_9 1_555 1_555
C18_9 C17_9 1_555 1_555
H12_9 C18_9 1_555 1_555
Cu2_3 O2_9 1_555 1_555
N1_9 C12_9 1_555 1_555
N2_9 C15_9 1_555 1_555
O1_9 C1_9 1_555 1_555
O2_9 C1_9 1_555 1_555
O6_6 C8_9 1_555 1_555
O4_9 C8_9 1_555 1_555
Cu5_9 N2_9 1_555 1_555
N3_9 Cu2_3 1_555 1_555
C6_8 C7_8 1_555 1_555
C13_8 C14_8 1_555 1_555
C15_9 N1_9 1_555 1_555
C17_9 N2_9 1_555 1_555
C18_9 N1_9 1_555 1_555
C10_9 C9_9 1_555 1_555
H4_9 C10_9 1_555 1_555
C11_9 C10_9 1_555 1_555
H5_10 C11_9 1_555 1_555
C12_10 C11_9 1_555 1_555
C13_9 C12_10 1_555 1_555
H6_10 C13_9 1_555 1_555
C14_9 C9_9 1_555 1_555
H7_9 C14_9 1_555 1_555
C17_10 H11_10 1_555 1_555
C18_10 C17_10 1_555 1_555
H12_10 C18_10 1_555 1_555
N1_10 C12_10 1_555 1_555
N2_10 C15_10 1_555 1_555
Cu5_10 N2_10 1_555 1_555
C13_9 C14_9 1_555 1_555
C15_10 N1_10 1_555 1_555
C17_10 N2_10 1_555 1_555
C18_10 N1_10 1_555 1_555
C1_10 C2_9 1_555 1_555
C2_9 C3_9 1_555 1_555
C3_9 H1_9 1_555 1_555
C4_9 C3_9 1_555 1_555
C5_9 C4_9 1_555 1_555
H2_9 C5_9 1_555 1_555
C6_9 C5_9 1_555 1_555
C7_9 C2_9 1_555 1_555
H3_9 C7_9 1_555 1_555
C8_10 C4_9 1_555 1_555
C16_10 H8_10 1_555 1_555
H9_10 C16_10 1_555 1_555
H10_10 C16_10 1_555 1_555
Cu3 O2_10 1_555 1_555
O5 C1_10 1_555 1_555
O2_10 C1_10 1_555 1_555
O3_4 C8_10 1_555 1_555
O7_2 C8_10 1_555 1_555
Cu3_2 O3_4 1_555 1_555
N3_10 Cu3 1_555 1_555
O6_7 Cu3 1_555 1_555
C6_9 C7_9 1_555 1_555
C1_11 C2_10 1_555 1_555
C2_10 C3_10 1_555 1_555
C3_10 H1_10 1_555 1_555
C4_10 C3_10 1_555 1_555
C5_10 C4_10 1_555 1_555
H2_10 C5_10 1_555 1_555
C6_10 C5_10 1_555 1_555
C7_10 C2_10 1_555 1_555
H3_10 C7_10 1_555 1_555
C8_11 C4_10 1_555 1_555
C16_11 H8_11 1_555 1_555
H9_11 C16_11 1_555 1_555
H10_11 C16_11 1_555 1_555
Cu4 O2_11 1_555 1_555
O5_3 C1_11 1_555 1_555
O2_11 C1_11 1_555 1_555
O6_7 C8_11 1_555 1_555
O7 C8_11 1_555 1_555
N3_11 Cu4 1_555 1_555
O6_8 Cu4 1_555 1_555
C6_10 C7_10 1_555 1_555
C10_10 C9_10 1_555 1_555
H4_10 C10_10 1_555 1_555
C11_10 C10_10 1_555 1_555
H5_11 C11_10 1_555 1_555
C12_11 C11_10 1_555 1_555
C13_10 C12_11 1_555 1_555
H6_11 C13_10 1_555 1_555
C14_10 C9_10 1_555 1_555
H7_10 C14_10 1_555 1_555
C17_11 H11_11 1_555 1_555
C18_11 C17_11 1_555 1_555
H12_11 C18_11 1_555 1_555
N1_11 C12_11 1_555 1_555
N2_11 C15_11 1_555 1_555
Cu5_11 N2_11 1_555 1_555
C13_10 C14_10 1_555 1_555
C15_11 N1_11 1_555 1_555
C17_11 N2_11 1_555 1_555
C18_11 N1_11 1_555 1_555
C1_12 C2_11 1_555 1_555
C2_11 C3_11 1_555 1_555
C3_11 H1_11 1_555 1_555
C4_11 C3_11 1_555 1_555
C5_11 C4_11 1_555 1_555
H2_11 C5_11 1_555 1_555
C6_11 C5_11 1_555 1_555
C7_11 C2_11 1_555 1_555
H3_11 C7_11 1_555 1_555
C8_12 C4_11 1_555 1_555
C9_11 C6_11 1_555 1_555
C10_11 C9_11 1_555 1_555
H4_11 C10_11 1_555 1_555
C11_11 C10_11 1_555 1_555
H5_12 C11_11 1_555 1_555
C12_12 C11_11 1_555 1_555
C13_11 C12_12 1_555 1_555
H6_12 C13_11 1_555 1_555
C14_11 C9_11 1_555 1_555
H7_11 C14_11 1_555 1_555
C15_12 C16_12 1_555 1_555
C16_12 H8_12 1_555 1_555
H9_12 C16_12 1_555 1_555
H10_12 C16_12 1_555 1_555
C17_12 H11_12 1_555 1_555
C18_12 C17_12 1_555 1_555
H12_12 C18_12 1_555 1_555
Cu3_2 O2_12 1_555 1_555
N1_12 C12_12 1_555 1_555
N2_12 C15_12 1_555 1_555
O5_2 C1_12 1_555 1_555
O2_12 C1_12 1_555 1_555
O6_8 C8_12 1_555 1_555
O7_3 C8_12 1_555 1_555
Cu5_12 N2_12 1_555 1_555
N3_12 Cu3_2 1_555 1_555
C6_11 C7_11 1_555 1_555
C13_11 C14_11 1_555 1_555
C15_12 N1_12 1_555 1_555
C17_12 N2_12 1_555 1_555
C18_12 N1_12 1_555 1_555
C10_12 C9_12 1_555 1_555
H4_12 C10_12 1_555 1_555
C11_12 C10_12 1_555 1_555
H5_13 C11_12 1_555 1_555
C12_13 C11_12 1_555 1_555
C13_12 C12_13 1_555 1_555
H6_13 C13_12 1_555 1_555
C14_12 C9_12 1_555 1_555
H7_12 C14_12 1_555 1_555
C17_13 H11_13 1_555 1_555
C18_13 C17_13 1_555 1_555
H12_13 C18_13 1_555 1_555
N1_13 C12_13 1_555 1_555
N2_13 C15_13 1_555 1_555
Cu5_13 N2_13 1_555 1_555
C13_12 C14_12 1_555 1_555
C15_13 N1_13 1_555 1_555
C17_13 N2_13 1_555 1_555
C18_13 N1_13 1_555 1_555
C1_13 C2_12 1_555 1_555
C2_12 C3_12 1_555 1_555
C3_12 H1_12 1_555 1_555
C4_12 C3_12 1_555 1_555
C5_12 C4_12 1_555 1_555
H2_12 C5_12 1_555 1_555
C6_12 C5_12 1_555 1_555
C7_12 C2_12 1_555 1_555
H3_12 C7_12 1_555 1_555
C8_13 C4_12 1_555 1_555
C16_13 H8_13 1_555 1_555
H9_13 C16_13 1_555 1_555
H10_13 C16_13 1_555 1_555
Cu3_3 O2_13 1_555 1_555
O5_4 C1_13 1_555 1_555
O2_13 C1_13 1_555 1_555
O3_5 C8_13 1_555 1_555
O7_5 C8_13 1_555 1_555
Cu3_4 O3_5 1_555 1_555
N3_13 Cu3_3 1_555 1_555
O6_9 Cu3_3 1_555 1_555
C6_12 C7_12 1_555 1_555
C1_14 C2_13 1_555 1_555
C2_13 C3_13 1_555 1_555
C3_13 H1_13 1_555 1_555
C4_13 C3_13 1_555 1_555
C5_13 C4_13 1_555 1_555
H2_13 C5_13 1_555 1_555
C6_13 C5_13 1_555 1_555
C7_13 C2_13 1_555 1_555
H3_13 C7_13 1_555 1_555
C8_14 C4_13 1_555 1_555
C16_14 H8_14 1_555 1_555
H9_14 C16_14 1_555 1_555
H10_14 C16_14 1_555 1_555
Cu4_2 O2_14 1_555 1_555
O5_6 C1_14 1_555 1_555
O2_14 C1_14 1_555 1_555
O6_9 C8_14 1_555 1_555
O7_4 C8_14 1_555 1_555
N3_14 Cu4_2 1_555 1_555
O6_10 Cu4_2 1_555 1_555
C6_13 C7_13 1_555 1_555
C10_13 C9_13 1_555 1_555
H4_13 C10_13 1_555 1_555
C11_13 C10_13 1_555 1_555
H5_14 C11_13 1_555 1_555
C12_14 C11_13 1_555 1_555
C13_13 C12_14 1_555 1_555
H6_14 C13_13 1_555 1_555
C14_13 C9_13 1_555 1_555
H7_13 C14_13 1_555 1_555
C17_14 H11_14 1_555 1_555
C18_14 C17_14 1_555 1_555
H12_14 C18_14 1_555 1_555
N1_14 C12_14 1_555 1_555
N2_14 C15_14 1_555 1_555
Cu5_14 N2_14 1_555 1_555
C13_13 C14_13 1_555 1_555
C15_14 N1_14 1_555 1_555
C17_14 N2_14 1_555 1_555
C18_14 N1_14 1_555 1_555
C1_15 C2_14 1_555 1_555
C2_14 C3_14 1_555 1_555
C3_14 H1_14 1_555 1_555
C4_14 C3_14 1_555 1_555
C5_14 C4_14 1_555 1_555
H2_14 C5_14 1_555 1_555
C6_14 C5_14 1_555 1_555
C7_14 C2_14 1_555 1_555
H3_14 C7_14 1_555 1_555
C8_15 C4_14 1_555 1_555
C9_14 C6_14 1_555 1_555
C10_14 C9_14 1_555 1_555
H4_14 C10_14 1_555 1_555
C11_14 C10_14 1_555 1_555
H5_15 C11_14 1_555 1_555
C12_15 C11_14 1_555 1_555
C13_14 C12_15 1_555 1_555
H6_15 C13_14 1_555 1_555
C14_14 C9_14 1_555 1_555
H7_14 C14_14 1_555 1_555
C15_15 C16_15 1_555 1_555
C16_15 H8_15 1_555 1_555
H9_15 C16_15 1_555 1_555
H10_15 C16_15 1_555 1_555
C17_15 H11_15 1_555 1_555
C18_15 C17_15 1_555 1_555
H12_15 C18_15 1_555 1_555
Cu3_4 O2_15 1_555 1_555
N1_15 C12_15 1_555 1_555
N2_15 C15_15 1_555 1_555
O5_5 C1_15 1_555 1_555
O2_15 C1_15 1_555 1_555
O6_10 C8_15 1_555 1_555
O7_6 C8_15 1_555 1_555
Cu5_15 N2_15 1_555 1_555
N3_15 Cu3_4 1_555 1_555
C6_14 C7_14 1_555 1_555
C13_14 C14_14 1_555 1_555
C15_15 N1_15 1_555 1_555
C17_15 N2_15 1_555 1_555
C18_15 N1_15 1_555 1_555
C1_16 C2_15 1_555 1_555
C2_15 C3_15 1_555 1_555
C3_15 H1_15 1_555 1_555
C4_15 C3_15 1_555 1_555
C5_15 C4_15 1_555 1_555
H2_15 C5_15 1_555 1_555
C6_15 C5_15 1_555 1_555
C7_15 C2_15 1_555 1_555
H3_15 C7_15 1_555 1_555
C8_16 C4_15 1_555 1_555
C9_15 C6_15 1_555 1_555
C10_15 C9_15 1_555 1_555
H4_15 C10_15 1_555 1_555
C11_15 C10_15 1_555 1_555
H5_16 C11_15 1_555 1_555
C12_16 C11_15 1_555 1_555
C13_15 C12_16 1_555 1_555
H6_16 C13_15 1_555 1_555
C14_15 C9_15 1_555 1_555
H7_15 C14_15 1_555 1_555
C15_16 C16_16 1_555 1_555
C16_16 H8_16 1_555 1_555
H9_16 C16_16 1_555 1_555
H10_16 C16_16 1_555 1_555
C17_16 H11_16 1_555 1_555
C18_16 C17_16 1_555 1_555
H12_16 C18_16 1_555 1_555
Cu3_5 O2_16 1_555 1_555
N1_16 C12_16 1_555 1_555
N2_16 C15_16 1_555 1_555
O5_7 C1_16 1_555 1_555
O2_16 C1_16 1_555 1_555
O3_6 C8_16 1_555 1_555
O7_8 C8_16 1_555 1_555
Cu3_6 O3_6 1_555 1_555
Cu5_16 N2_16 1_555 1_555
N3_16 Cu3_5 1_555 1_555
O6_11 Cu3_5 1_555 1_555
C6_15 C7_15 1_555 1_555
C13_15 C14_15 1_555 1_555
C15_16 N1_16 1_555 1_555
C17_16 N2_16 1_555 1_555
C18_16 N1_16 1_555 1_555
C1_17 C2_16 1_555 1_555
C2_16 C3_16 1_555 1_555
C3_16 H1_16 1_555 1_555
C4_16 C3_16 1_555 1_555
C5_16 C4_16 1_555 1_555
H2_16 C5_16 1_555 1_555
C6_16 C5_16 1_555 1_555
C7_16 C2_16 1_555 1_555
H3_16 C7_16 1_555 1_555
C8_17 C4_16 1_555 1_555
C9_16 C6_16 1_555 1_555
C10_16 C9_16 1_555 1_555
H4_16 C10_16 1_555 1_555
C11_16 C10_16 1_555 1_555
H5_17 C11_16 1_555 1_555
C12_17 C11_16 1_555 1_555
C13_16 C12_17 1_555 1_555
H6_17 C13_16 1_555 1_555
C14_16 C9_16 1_555 1_555
H7_16 C14_16 1_555 1_555
C15_17 C16_17 1_555 1_555
C16_17 H8_17 1_555 1_555
H9_17 C16_17 1_555 1_555
H10_17 C16_17 1_555 1_555
C17_17 H11_17 1_555 1_555
C18_17 C17_17 1_555 1_555
H12_17 C18_17 1_555 1_555
Cu4_3 O2_17 1_555 1_555
N1_17 C12_17 1_555 1_555
N2_17 C15_17 1_555 1_555
O5_9 C1_17 1_555 1_555
O2_17 C1_17 1_555 1_555
O6_11 C8_17 1_555 1_555
O7_7 C8_17 1_555 1_555
Cu5_17 N2_17 1_555 1_555
N3_17 Cu4_3 1_555 1_555
O6_12 Cu4_3 1_555 1_555
C6_16 C7_16 1_555 1_555
C13_16 C14_16 1_555 1_555
C15_17 N1_17 1_555 1_555
C17_17 N2_17 1_555 1_555
C18_17 N1_17 1_555 1_555
C1_18 C2_17 1_555 1_555
C2_17 C3_17 1_555 1_555
C3_17 H1_17 1_555 1_555
C4_17 C3_17 1_555 1_555
C5_17 C4_17 1_555 1_555
H2_17 C5_17 1_555 1_555
C6_17 C5_17 1_555 1_555
C7_17 C2_17 1_555 1_555
H3_17 C7_17 1_555 1_555
C8_18 C4_17 1_555 1_555
C9_17 C6_17 1_555 1_555
C10_17 C9_17 1_555 1_555
H4_17 C10_17 1_555 1_555
C11_17 C10_17 1_555 1_555
H5_18 C11_17 1_555 1_555
C12_18 C11_17 1_555 1_555
C13_17 C12_18 1_555 1_555
H6_18 C13_17 1_555 1_555
C14_17 C9_17 1_555 1_555
H7_17 C14_17 1_555 1_555
C15_18 C16_18 1_555 1_555
C16_18 H8_18 1_555 1_555
H9_18 C16_18 1_555 1_555
H10_18 C16_18 1_555 1_555
C17_18 H11_18 1_555 1_555
C18_18 C17_18 1_555 1_555
H12_18 C18_18 1_555 1_555
Cu3_6 O2_18 1_555 1_555
N1_18 C12_18 1_555 1_555
N2_18 C15_18 1_555 1_555
O5_8 C1_18 1_555 1_555
O2_18 C1_18 1_555 1_555
O6_12 C8_18 1_555 1_555
O7_9 C8_18 1_555 1_555
Cu5_18 N2_18 1_555 1_555
N3_18 Cu3_6 1_555 1_555
C6_17 C7_17 1_555 1_555
C13_17 C14_17 1_555 1_555
C15_18 N1_18 1_555 1_555
C17_18 N2_18 1_555 1_555
C18_18 N1_18 1_555 1_555
Cu5_18 O2_19 1_555 1_555
O1_10 C1_19 1_555 1_555
O2_19 C1_19 1_555 1_555
Cu5_3 Cu5_18 1_555 1_555
O5_10 Cu5_18 1_555 1_555
O6_13 Cu5_18 1_555 1_555
O7_10 Cu5_18 1_555 1_555
O1_10 Cu5_3 1_555 1_555
C2_18 C3_18 1_555 1_555
C3_18 H1_18 1_555 1_555
C4_18 C3_18 1_555 1_555
C5_18 C4_18 1_555 1_555
H2_18 C5_18 1_555 1_555
C6_18 C5_18 1_555 1_555
C7_18 C2_18 1_555 1_555
H3_18 C7_18 1_555 1_555
C8_19 C4_18 1_555 1_555
C9_18 C6_18 1_555 1_555
C10_18 C9_18 1_555 1_555
H4_18 C10_18 1_555 1_555
C11_18 C10_18 1_555 1_555
C14_18 C9_18 1_555 1_555
H7_18 C14_18 1_555 1_555
O3_7 C8_19 1_555 1_555
O4_10 C8_19 1_555 1_555
Cu5_16 O3_7 1_555 1_555
Cu5_2 O4_10 1_555 1_555
C6_18 C7_18 1_555 1_555
C13_18 C14_18 1_555 1_555
Cu5_16 Cu5_2 1_555 1_555
C15_19 C16_19 1_555 1_555
C16_19 H8_19 1_555 1_555
H9_19 C16_19 1_555 1_555
H10_19 C16_19 1_555 1_555
C17_19 H11_19 1_555 1_555
C18_19 C17_19 1_555 1_555
H12_19 C18_19 1_555 1_555
N1_19 C12_19 1_555 1_555
N3_12 C15_19 1_555 1_555
C15_19 N1_19 1_555 1_555
C17_19 N3_12 1_555 1_555
C18_19 N1_19 1_555 1_555
C1_20 C2_19 1_555 1_555
C2_19 C3_19 1_555 1_555
C3_19 H1_19 1_555 1_555
C4_19 C3_19 1_555 1_555
C5_19 C4_19 1_555 1_555
H2_19 C5_19 1_555 1_555
C6_19 C5_19 1_555 1_555
C7_19 C2_19 1_555 1_555
H3_19 C7_19 1_555 1_555
C9_19 C6_19 1_555 1_555
C10_19 C9_19 1_555 1_555
H4_19 C10_19 1_555 1_555
C11_19 C10_19 1_555 1_555
C14_19 C9_19 1_555 1_555
H7_19 C14_19 1_555 1_555
Cu5_17 O2_20 1_555 1_555
O1_11 C1_20 1_555 1_555
O2_20 C1_20 1_555 1_555
Cu5 Cu5_17 1_555 1_555
O5_11 Cu5_17 1_555 1_555
O6_14 Cu5_17 1_555 1_555
O7_11 Cu5_17 1_555 1_555
C6_19 C7_19 1_555 1_555
C13_19 C14_19 1_555 1_555
O1_11 Cu5 1_555 1_555
C15_20 C16_20 1_555 1_555
C16_20 H8_20 1_555 1_555
H9_20 C16_20 1_555 1_555
H10_20 C16_20 1_555 1_555
C17_20 H11_20 1_555 1_555
C18_20 C17_20 1_555 1_555
H12_20 C18_20 1_555 1_555
N1_20 C12_20 1_555 1_555
N3_11 C15_20 1_555 1_555
C15_20 N1_20 1_555 1_555
C17_20 N3_11 1_555 1_555
C18_20 N1_20 1_555 1_555
O6_13 C8_20 1_555 1_555
O4_11 C8_20 1_555 1_555
Cu5_3 O4_11 1_555 1_555
O6_14 C8_21 1_555 1_555
O4_12 C8_21 1_555 1_555
Cu5 O4_12 1_555 1_555
C15_21 C16_21 1_555 1_555
C16_21 H8_21 1_555 1_555
H9_21 C16_21 1_555 1_555
H10_21 C16_21 1_555 1_555
C17_21 H11_21 1_555 1_555
C18_21 C17_21 1_555 1_555
H12_21 C18_21 1_555 1_555
N1_21 C12_21 1_555 1_555
N3_10 C15_21 1_555 1_555
C15_21 N1_21 1_555 1_555
C17_21 N3_10 1_555 1_555
C18_21 N1_21 1_555 1_555
Cu5_16 O2_21 1_555 1_555
O1_12 C1_21 1_555 1_555
O2_21 C1_21 1_555 1_555
O5_12 Cu5_16 1_555 1_555
O7_12 Cu5_16 1_555 1_555
O1_12 Cu5_2 1_555 1_555
Cu5_9 O2_22 1_555 1_555
O1_13 C1_22 1_555 1_555
O2_22 C1_22 1_555 1_555
Cu5_6 Cu5_9 1_555 1_555
O5_13 Cu5_9 1_555 1_555
O6_15 Cu5_9 1_555 1_555
O7_13 Cu5_9 1_555 1_555
O1_13 Cu5_6 1_555 1_555
C2_20 C3_20 1_555 1_555
C3_20 H1_20 1_555 1_555
C4_20 C3_20 1_555 1_555
C5_20 C4_20 1_555 1_555
H2_20 C5_20 1_555 1_555
C6_20 C5_20 1_555 1_555
C7_20 C2_20 1_555 1_555
H3_20 C7_20 1_555 1_555
C8_22 C4_20 1_555 1_555
C9_20 C6_20 1_555 1_555
C10_20 C9_20 1_555 1_555
H4_20 C10_20 1_555 1_555
C11_20 C10_20 1_555 1_555
H5_22 C11_20 1_555 1_555
C12_22 C11_20 1_555 1_555
C13_20 C12_22 1_555 1_555
H6_22 C13_20 1_555 1_555
C14_20 C9_20 1_555 1_555
H7_20 C14_20 1_555 1_555
C15_22 C16_22 1_555 1_555
C16_22 H8_22 1_555 1_555
H9_22 C16_22 1_555 1_555
H10_22 C16_22 1_555 1_555
C17_22 H11_22 1_555 1_555
C18_22 C17_22 1_555 1_555
H12_22 C18_22 1_555 1_555
N1_22 C12_22 1_555 1_555
N3_15 C15_22 1_555 1_555
O3_8 C8_22 1_555 1_555
O4_13 C8_22 1_555 1_555
Cu5_7 O3_8 1_555 1_555
Cu5_5 O4_13 1_555 1_555
C6_20 C7_20 1_555 1_555
C13_20 C14_20 1_555 1_555
C15_22 N1_22 1_555 1_555
C17_22 N3_15 1_555 1_555
C18_22 N1_22 1_555 1_555
Cu5_7 Cu5_5 1_555 1_555
C1_23 C2_21 1_555 1_555
C2_21 C3_21 1_555 1_555
C3_21 H1_21 1_555 1_555
C4_21 C3_21 1_555 1_555
C5_21 C4_21 1_555 1_555
H2_21 C5_21 1_555 1_555
C6_21 C5_21 1_555 1_555
C7_21 C2_21 1_555 1_555
H3_21 C7_21 1_555 1_555
C9_21 C6_21 1_555 1_555
C10_21 C9_21 1_555 1_555
H4_21 C10_21 1_555 1_555
C11_21 C10_21 1_555 1_555
H5_23 C11_21 1_555 1_555
C12_23 C11_21 1_555 1_555
C13_21 C12_23 1_555 1_555
H6_23 C13_21 1_555 1_555
C14_21 C9_21 1_555 1_555
H7_21 C14_21 1_555 1_555
C15_23 C16_23 1_555 1_555
C16_23 H8_23 1_555 1_555
H9_23 C16_23 1_555 1_555
H10_23 C16_23 1_555 1_555
C17_23 H11_23 1_555 1_555
C18_23 C17_23 1_555 1_555
H12_23 C18_23 1_555 1_555
Cu5_8 O2_23 1_555 1_555
N1_23 C12_23 1_555 1_555
N3_14 C15_23 1_555 1_555
O1_14 C1_23 1_555 1_555
O2_23 C1_23 1_555 1_555
Cu5_4 Cu5_8 1_555 1_555
O5_14 Cu5_8 1_555 1_555
O6_16 Cu5_8 1_555 1_555
O7_14 Cu5_8 1_555 1_555
C6_21 C7_21 1_555 1_555
C13_21 C14_21 1_555 1_555
C15_23 N1_23 1_555 1_555
C17_23 N3_14 1_555 1_555
C18_23 N1_23 1_555 1_555
O1_14 Cu5_4 1_555 1_555
O6_15 C8_23 1_555 1_555
O4_14 C8_23 1_555 1_555
Cu5_6 O4_14 1_555 1_555
O6_16 C8_24 1_555 1_555
O4_15 C8_24 1_555 1_555
Cu5_4 O4_15 1_555 1_555
C2_22 C3_22 1_555 1_555
C3_22 H1_22 1_555 1_555
C4_22 C3_22 1_555 1_555
C5_22 C4_22 1_555 1_555
H2_22 C5_22 1_555 1_555
C6_22 C5_22 1_555 1_555
C7_22 C2_22 1_555 1_555
H3_22 C7_22 1_555 1_555
C9_22 C6_22 1_555 1_555
C10_22 C9_22 1_555 1_555
H4_22 C10_22 1_555 1_555
C11_22 C10_22 1_555 1_555
H5_24 C11_22 1_555 1_555
C12_24 C11_22 1_555 1_555
C13_22 C12_24 1_555 1_555
H6_24 C13_22 1_555 1_555
C14_22 C9_22 1_555 1_555
H7_22 C14_22 1_555 1_555
C15_24 C16_24 1_555 1_555
C16_24 H8_24 1_555 1_555
H9_24 C16_24 1_555 1_555
H10_24 C16_24 1_555 1_555
C17_24 H11_24 1_555 1_555
C18_24 C17_24 1_555 1_555
H12_24 C18_24 1_555 1_555
N1_24 C12_24 1_555 1_555
N3_13 C15_24 1_555 1_555
C6_22 C7_22 1_555 1_555
C13_22 C14_22 1_555 1_555
C15_24 N1_24 1_555 1_555
C17_24 N3_13 1_555 1_555
C18_24 N1_24 1_555 1_555
Cu5_7 O2_24 1_555 1_555
O1_15 C1_24 1_555 1_555
O2_24 C1_24 1_555 1_555
O5_15 Cu5_7 1_555 1_555
O7_15 Cu5_7 1_555 1_555
O1_15 Cu5_5 1_555 1_555
C1_25 C2_23 1_555 1_555
C2_23 C3_23 1_555 1_555
C3_23 H1_23 1_555 1_555
C4_23 C3_23 1_555 1_555
C5_23 C4_23 1_555 1_555
H2_23 C5_23 1_555 1_555
C6_23 C5_23 1_555 1_555
C7_23 C2_23 1_555 1_555
H3_23 C7_23 1_555 1_555
C8_25 C4_23 1_555 1_555
C9_23 C6_23 1_555 1_555
C10_23 C9_23 1_555 1_555
H4_23 C10_23 1_555 1_555
C11_23 C10_23 1_555 1_555
H5_25 C11_23 1_555 1_555
C12_25 C11_23 1_555 1_555
C13_23 C12_25 1_555 1_555
H6_25 C13_23 1_555 1_555
C14_23 C9_23 1_555 1_555
H7_23 C14_23 1_555 1_555
C15_25 C16_25 1_555 1_555
C16_25 H8_25 1_555 1_555
H9_25 C16_25 1_555 1_555
H10_25 C16_25 1_555 1_555
C17_25 H11_25 1_555 1_555
C18_25 C17_25 1_555 1_555
H12_25 C18_25 1_555 1_555
Cu5_12 O2_25 1_555 1_555
N1_25 C12_25 1_555 1_555
N3_6 C15_25 1_555 1_555
O1_16 C1_25 1_555 1_555
O2_25 C1_25 1_555 1_555
O3_9 C8_25 1_555 1_555
O4_16 C8_25 1_555 1_555
Cu5_10 O3_9 1_555 1_555
Cu5_15 Cu5_12 1_555 1_555
O5_16 Cu5_12 1_555 1_555
O6_17 Cu5_12 1_555 1_555
O7_16 Cu5_12 1_555 1_555
C6_23 C7_23 1_555 1_555
C13_23 C14_23 1_555 1_555
C15_25 N1_25 1_555 1_555
C17_25 N3_6 1_555 1_555
C18_25 N1_25 1_555 1_555
O1_16 Cu5_15 1_555 1_555
C1_26 C2_24 1_555 1_555
C2_24 C3_24 1_555 1_555
C3_24 H1_24 1_555 1_555
C4_24 C3_24 1_555 1_555
C5_24 C4_24 1_555 1_555
H2_24 C5_24 1_555 1_555
C6_24 C5_24 1_555 1_555
C7_24 C2_24 1_555 1_555
H3_24 C7_24 1_555 1_555
C8_26 C4_24 1_555 1_555
C9_24 C6_24 1_555 1_555
C10_24 C9_24 1_555 1_555
H4_24 C10_24 1_555 1_555
C11_24 C10_24 1_555 1_555
H5_26 C11_24 1_555 1_555
C12_26 C11_24 1_555 1_555
C13_24 C12_26 1_555 1_555
H6_26 C13_24 1_555 1_555
C14_24 C9_24 1_555 1_555
H7_24 C14_24 1_555 1_555
C15_26 C16_26 1_555 1_555
C16_26 H8_26 1_555 1_555
H9_26 C16_26 1_555 1_555
H10_26 C16_26 1_555 1_555
C17_26 H11_26 1_555 1_555
C18_26 C17_26 1_555 1_555
H12_26 C18_26 1_555 1_555
Cu5_11 O2_26 1_555 1_555
N1_26 C12_26 1_555 1_555
N3_5 C15_26 1_555 1_555
O1_17 C1_26 1_555 1_555
O2_26 C1_26 1_555 1_555
O6_17 C8_26 1_555 1_555
O4_17 C8_26 1_555 1_555
Cu5_15 O4_17 1_555 1_555
O6_18 Cu5_11 1_555 1_555
C6_24 C7_24 1_555 1_555
C13_24 C14_24 1_555 1_555
C15_26 N1_26 1_555 1_555
C17_26 N3_5 1_555 1_555
C18_26 N1_26 1_555 1_555
C1_27 C2_25 1_555 1_555
C2_25 C3_25 1_555 1_555
C3_25 H1_25 1_555 1_555
C4_25 C3_25 1_555 1_555
C5_25 C4_25 1_555 1_555
H2_25 C5_25 1_555 1_555
C6_25 C5_25 1_555 1_555
C7_25 C2_25 1_555 1_555
H3_25 C7_25 1_555 1_555
C8_27 C4_25 1_555 1_555
C9_25 C6_25 1_555 1_555
C10_25 C9_25 1_555 1_555
H4_25 C10_25 1_555 1_555
C11_25 C10_25 1_555 1_555
H5_27 C11_25 1_555 1_555
C12_27 C11_25 1_555 1_555
C13_25 C12_27 1_555 1_555
H6_27 C13_25 1_555 1_555
C14_25 C9_25 1_555 1_555
H7_25 C14_25 1_555 1_555
C15_27 C16_27 1_555 1_555
C16_27 H8_27 1_555 1_555
H9_27 C16_27 1_555 1_555
H10_27 C16_27 1_555 1_555
C17_27 H11_27 1_555 1_555
C18_27 C17_27 1_555 1_555
H12_27 C18_27 1_555 1_555
Cu5_10 O2_27 1_555 1_555
N1_27 C12_27 1_555 1_555
N3_4 C15_27 1_555 1_555
O1_18 C1_27 1_555 1_555
O2_27 C1_27 1_555 1_555
O6_18 C8_27 1_555 1_555
O4_18 C8_27 1_555 1_555
C6_25 C7_25 1_555 1_555
C13_25 C14_25 1_555 1_555
C15_27 N1_27 1_555 1_555
C17_27 N3_4 1_555 1_555
C18_27 N1_27 1_555 1_555
C1_28 C2_26 1_555 1_555
C2_26 C3_26 1_555 1_555
C3_26 H1_26 1_555 1_555
C4_26 C3_26 1_555 1_555
C5_26 C4_26 1_555 1_555
H2_26 C5_26 1_555 1_555
C6_26 C5_26 1_555 1_555
C7_26 C2_26 1_555 1_555
H3_26 C7_26 1_555 1_555
C8_28 C4_26 1_555 1_555
C16_28 H8_28 1_555 1_555
H9_28 C16_28 1_555 1_555
H10_28 C16_28 1_555 1_555
Cu5_3 O2_28 1_555 1_555
O5_10 C1_28 1_555 1_555
O2_28 C1_28 1_555 1_555
O3_10 C8_28 1_555 1_555
O7_11 C8_28 1_555 1_555
Cu5 O3_10 1_555 1_555
O6_19 Cu5_3 1_555 1_555
C6_26 C7_26 1_555 1_555
C10_26 C9_26 1_555 1_555
H4_26 C10_26 1_555 1_555
C11_26 C10_26 1_555 1_555
H5_28 C11_26 1_555 1_555
C12_28 C11_26 1_555 1_555
C13_26 C12_28 1_555 1_555
H6_28 C13_26 1_555 1_555
C14_26 C9_26 1_555 1_555
H7_26 C14_26 1_555 1_555
C17_28 H11_28 1_555 1_555
C18_28 C17_28 1_555 1_555
H12_28 C18_28 1_555 1_555
N1_28 C12_28 1_555 1_555
N3_9 C15_28 1_555 1_555
C13_26 C14_26 1_555 1_555
C15_28 N1_28 1_555 1_555
C17_28 N3_9 1_555 1_555
C18_28 N1_28 1_555 1_555
C10_27 C9_27 1_555 1_555
H4_27 C10_27 1_555 1_555
C11_27 C10_27 1_555 1_555
H5_29 C11_27 1_555 1_555
C12_29 C11_27 1_555 1_555
C13_27 C12_29 1_555 1_555
H6_29 C13_27 1_555 1_555
C14_27 C9_27 1_555 1_555
H7_27 C14_27 1_555 1_555
C17_29 H11_29 1_555 1_555
C18_29 C17_29 1_555 1_555
H12_29 C18_29 1_555 1_555
N1_29 C12_29 1_555 1_555
N3_8 C15_29 1_555 1_555
C13_27 C14_27 1_555 1_555
C15_29 N1_29 1_555 1_555
C17_29 N3_8 1_555 1_555
C18_29 N1_29 1_555 1_555
C1_29 C2_27 1_555 1_555
C2_27 C3_27 1_555 1_555
C3_27 H1_27 1_555 1_555
C4_27 C3_27 1_555 1_555
C5_27 C4_27 1_555 1_555
H2_27 C5_27 1_555 1_555
C6_27 C5_27 1_555 1_555
C7_27 C2_27 1_555 1_555
H3_27 C7_27 1_555 1_555
C8_29 C4_27 1_555 1_555
C16_29 H8_29 1_555 1_555
H9_29 C16_29 1_555 1_555
H10_29 C16_29 1_555 1_555
Cu5_2 O2_29 1_555 1_555
O5_12 C1_29 1_555 1_555
O2_29 C1_29 1_555 1_555
O6_19 C8_29 1_555 1_555
O7_10 C8_29 1_555 1_555
O6_20 Cu5_2 1_555 1_555
C6_27 C7_27 1_555 1_555
C1_30 C2_28 1_555 1_555
C2_28 C3_28 1_555 1_555
C3_28 H1_28 1_555 1_555
C4_28 C3_28 1_555 1_555
C5_28 C4_28 1_555 1_555
H2_28 C5_28 1_555 1_555
C6_28 C5_28 1_555 1_555
C7_28 C2_28 1_555 1_555
H3_28 C7_28 1_555 1_555
C8_30 C4_28 1_555 1_555
C9_28 C6_28 1_555 1_555
C10_28 C9_28 1_555 1_555
H4_28 C10_28 1_555 1_555
C11_28 C10_28 1_555 1_555
H5_30 C11_28 1_555 1_555
C12_30 C11_28 1_555 1_555
C13_28 C12_30 1_555 1_555
H6_30 C13_28 1_555 1_555
C14_28 C9_28 1_555 1_555
H7_28 C14_28 1_555 1_555
C15_30 C16_30 1_555 1_555
C16_30 H8_30 1_555 1_555
H9_30 C16_30 1_555 1_555
H10_30 C16_30 1_555 1_555
C17_30 H11_30 1_555 1_555
C18_30 C17_30 1_555 1_555
H12_30 C18_30 1_555 1_555
Cu5 O2_30 1_555 1_555
N1_30 C12_30 1_555 1_555
N3_7 C15_30 1_555 1_555
O5_11 C1_30 1_555 1_555
O2_30 C1_30 1_555 1_555
O6_20 C8_30 1_555 1_555
O7_12 C8_30 1_555 1_555
C6_28 C7_28 1_555 1_555
C13_28 C14_28 1_555 1_555
C15_30 N1_30 1_555 1_555
C17_30 N3_7 1_555 1_555
C18_30 N1_30 1_555 1_555
C1_31 C2_29 1_555 1_555
C2_29 C3_29 1_555 1_555
C3_29 H1_29 1_555 1_555
C4_29 C3_29 1_555 1_555
C5_29 C4_29 1_555 1_555
H2_29 C5_29 1_555 1_555
C6_29 C5_29 1_555 1_555
C7_29 C2_29 1_555 1_555
H3_29 C7_29 1_555 1_555
C8_31 C4_29 1_555 1_555
C16_31 H8_31 1_555 1_555
H9_31 C16_31 1_555 1_555
H10_31 C16_31 1_555 1_555
Cu5_6 O2_31 1_555 1_555
O5_13 C1_31 1_555 1_555
O2_31 C1_31 1_555 1_555
O3_11 C8_31 1_555 1_555
O7_14 C8_31 1_555 1_555
Cu5_4 O3_11 1_555 1_555
O6_21 Cu5_6 1_555 1_555
C6_29 C7_29 1_555 1_555
C10_29 C9_29 1_555 1_555
H4_29 C10_29 1_555 1_555
C11_29 C10_29 1_555 1_555
H5_31 C11_29 1_555 1_555
C12_31 C11_29 1_555 1_555
C13_29 C12_31 1_555 1_555
H6_31 C13_29 1_555 1_555
C14_29 C9_29 1_555 1_555
H7_29 C14_29 1_555 1_555
C17_31 H11_31 1_555 1_555
C18_31 C17_31 1_555 1_555
H12_31 C18_31 1_555 1_555
N1_31 C12_31 1_555 1_555
N3_18 C15_31 1_555 1_555
C13_29 C14_29 1_555 1_555
C15_31 N1_31 1_555 1_555
C17_31 N3_18 1_555 1_555
C18_31 N1_31 1_555 1_555
C10_30 C9_30 1_555 1_555
H4_30 C10_30 1_555 1_555
C11_30 C10_30 1_555 1_555
H5_32 C11_30 1_555 1_555
C12_32 C11_30 1_555 1_555
C13_30 C12_32 1_555 1_555
H6_32 C13_30 1_555 1_555
C14_30 C9_30 1_555 1_555
H7_30 C14_30 1_555 1_555
C17_32 H11_32 1_555 1_555
C18_32 C17_32 1_555 1_555
H12_32 C18_32 1_555 1_555
N1_32 C12_32 1_555 1_555
N3_17 C15_32 1_555 1_555
C13_30 C14_30 1_555 1_555
C15_32 N1_32 1_555 1_555
C17_32 N3_17 1_555 1_555
C18_32 N1_32 1_555 1_555
C1_32 C2_30 1_555 1_555
C2_30 C3_30 1_555 1_555
C3_30 H1_30 1_555 1_555
C4_30 C3_30 1_555 1_555
C5_30 C4_30 1_555 1_555
H2_30 C5_30 1_555 1_555
C6_30 C5_30 1_555 1_555
C7_30 C2_30 1_555 1_555
H3_30 C7_30 1_555 1_555
C8_32 C4_30 1_555 1_555
C16_32 H8_32 1_555 1_555
H9_32 C16_32 1_555 1_555
H10_32 C16_32 1_555 1_555
Cu5_5 O2_32 1_555 1_555
O5_15 C1_32 1_555 1_555
O2_32 C1_32 1_555 1_555
O6_21 C8_32 1_555 1_555
O7_13 C8_32 1_555 1_555
O6_22 Cu5_5 1_555 1_555
C6_30 C7_30 1_555 1_555
C1_33 C2_31 1_555 1_555
C2_31 C3_31 1_555 1_555
C3_31 H1_31 1_555 1_555
C4_31 C3_31 1_555 1_555
C5_31 C4_31 1_555 1_555
H2_31 C5_31 1_555 1_555
C6_31 C5_31 1_555 1_555
C7_31 C2_31 1_555 1_555
H3_31 C7_31 1_555 1_555
C8_33 C4_31 1_555 1_555
C9_31 C6_31 1_555 1_555
C10_31 C9_31 1_555 1_555
H4_31 C10_31 1_555 1_555
C11_31 C10_31 1_555 1_555
H5_33 C11_31 1_555 1_555
C12_33 C11_31 1_555 1_555
C13_31 C12_33 1_555 1_555
H6_33 C13_31 1_555 1_555
C14_31 C9_31 1_555 1_555
H7_31 C14_31 1_555 1_555
C15_33 C16_33 1_555 1_555
C16_33 H8_33 1_555 1_555
H9_33 C16_33 1_555 1_555
H10_33 C16_33 1_555 1_555
C17_33 H11_33 1_555 1_555
C18_33 C17_33 1_555 1_555
H12_33 C18_33 1_555 1_555
Cu5_4 O2_33 1_555 1_555
N1_33 C12_33 1_555 1_555
N3_16 C15_33 1_555 1_555
O5_14 C1_33 1_555 1_555
O2_33 C1_33 1_555 1_555
O6_22 C8_33 1_555 1_555
O7_15 C8_33 1_555 1_555
C6_31 C7_31 1_555 1_555
C13_31 C14_31 1_555 1_555
C15_33 N1_33 1_555 1_555
C17_33 N3_16 1_555 1_555
C18_33 N1_33 1_555 1_555
C1_34 C2_32 1_555 1_555
C2_32 C3_32 1_555 1_555
C3_32 H1_32 1_555 1_555
C4_32 C3_32 1_555 1_555
C5_32 C4_32 1_555 1_555
H2_32 C5_32 1_555 1_555
C6_32 C5_32 1_555 1_555
C7_32 C2_32 1_555 1_555
H3_32 C7_32 1_555 1_555
C8_34 C4_32 1_555 1_555
C9_32 C6_32 1_555 1_555
C10_32 C9_32 1_555 1_555
H4_32 C10_32 1_555 1_555
C11_32 C10_32 1_555 1_555
H5_34 C11_32 1_555 1_555
C12_34 C11_32 1_555 1_555
C13_32 C12_34 1_555 1_555
H6_34 C13_32 1_555 1_555
C14_32 C9_32 1_555 1_555
H7_32 C14_32 1_555 1_555
C15_34 C16_34 1_555 1_555
C16_34 H8_34 1_555 1_555
H9_34 C16_34 1_555 1_555
H10_34 C16_34 1_555 1_555
C17_34 H11_34 1_555 1_555
C18_34 C17_34 1_555 1_555
H12_34 C18_34 1_555 1_555
Cu5_15 O2_34 1_555 1_555
N1_34 C12_34 1_555 1_555
N3_3 C15_34 1_555 1_555
O5_16 C1_34 1_555 1_555
O2_34 C1_34 1_555 1_555
O3_12 C8_34 1_555 1_555
O7_17 C8_34 1_555 1_555
Cu5_13 O3_12 1_555 1_555
O6_23 Cu5_15 1_555 1_555
C6_32 C7_32 1_555 1_555
C13_32 C14_32 1_555 1_555
C15_34 N1_34 1_555 1_555
C17_34 N3_3 1_555 1_555
C18_34 N1_34 1_555 1_555
C1_35 C2_33 1_555 1_555
C2_33 C3_33 1_555 1_555
C3_33 H1_33 1_555 1_555
C4_33 C3_33 1_555 1_555
C5_33 C4_33 1_555 1_555
H2_33 C5_33 1_555 1_555
C6_33 C5_33 1_555 1_555
C7_33 C2_33 1_555 1_555
H3_33 C7_33 1_555 1_555
C8_35 C4_33 1_555 1_555
C9_33 C6_33 1_555 1_555
C10_33 C9_33 1_555 1_555
H4_33 C10_33 1_555 1_555
C11_33 C10_33 1_555 1_555
H5_35 C11_33 1_555 1_555
C12_35 C11_33 1_555 1_555
C13_33 C12_35 1_555 1_555
H6_35 C13_33 1_555 1_555
C14_33 C9_33 1_555 1_555
H7_33 C14_33 1_555 1_555
C15_35 C16_35 1_555 1_555
C16_35 H8_35 1_555 1_555
H9_35 C16_35 1_555 1_555
H10_35 C16_35 1_555 1_555
C17_35 H11_35 1_555 1_555
C18_35 C17_35 1_555 1_555
H12_35 C18_35 1_555 1_555
Cu5_14 O2_35 1_555 1_555
N1_35 C12_35 1_555 1_555
N3_2 C15_35 1_555 1_555
O5_18 C1_35 1_555 1_555
O2_35 C1_35 1_555 1_555
O6_23 C8_35 1_555 1_555
O7_16 C8_35 1_555 1_555
O6_24 Cu5_14 1_555 1_555
C6_33 C7_33 1_555 1_555
C13_33 C14_33 1_555 1_555
C15_35 N1_35 1_555 1_555
C17_35 N3_2 1_555 1_555
C18_35 N1_35 1_555 1_555
C1_36 C2_34 1_555 1_555
C2_34 C3_34 1_555 1_555
C3_34 H1_34 1_555 1_555
C4_34 C3_34 1_555 1_555
C5_34 C4_34 1_555 1_555
H2_34 C5_34 1_555 1_555
C6_34 C5_34 1_555 1_555
C7_34 C2_34 1_555 1_555
H3_34 C7_34 1_555 1_555
C8_36 C4_34 1_555 1_555
C9_34 C6_34 1_555 1_555
C10_34 C9_34 1_555 1_555
H4_34 C10_34 1_555 1_555
C11_34 C10_34 1_555 1_555
H5_36 C11_34 1_555 1_555
C12_36 C11_34 1_555 1_555
C13_34 C12_36 1_555 1_555
H6_36 C13_34 1_555 1_555
C14_34 C9_34 1_555 1_555
H7_34 C14_34 1_555 1_555
C15_36 C16_36 1_555 1_555
C16_36 H8_36 1_555 1_555
H9_36 C16_36 1_555 1_555
H10_36 C16_36 1_555 1_555
C17_36 H11_36 1_555 1_555
C18_36 C17_36 1_555 1_555
H12_36 C18_36 1_555 1_555
Cu5_13 O2_36 1_555 1_555
N1_36 C12_36 1_555 1_555
N3 C15_36 1_555 1_555
O5_17 C1_36 1_555 1_555
O2_36 C1_36 1_555 1_555
O6_24 C8_36 1_555 1_555
O7_18 C8_36 1_555 1_555
C6_34 C7_34 1_555 1_555
C13_34 C14_34 1_555 1_555
C15_36 N1_36 1_555 1_555
C17_36 N3 1_555 1_555
C18_36 N1_36 1_555 1_555
C2_35 C3_35 1_555 1_555
C3_35 H1_35 1_555 1_555
C4_35 C3_35 1_555 1_555
C5_35 C4_35 1_555 1_555
H2_35 C5_35 1_555 1_555
C6_35 C5_35 1_555 1_555
C7_35 C2_35 1_555 1_555
H3_35 C7_35 1_555 1_555
C9_35 C6_35 1_555 1_555
C10_35 C9_35 1_555 1_555
H4_35 C10_35 1_555 1_555
C11_35 C10_35 1_555 1_555
C14_35 C9_35 1_555 1_555
H7_35 C14_35 1_555 1_555
C6_35 C7_35 1_555 1_555
C13_35 C14_35 1_555 1_555
C2_36 C3_36 1_555 1_555
C3_36 H1_36 1_555 1_555
C4_36 C3_36 1_555 1_555
C5_36 C4_36 1_555 1_555
H2_36 C5_36 1_555 1_555
C6_36 C5_36 1_555 1_555
C7_36 C2_36 1_555 1_555
H3_36 C7_36 1_555 1_555
C9_36 C6_36 1_555 1_555
C10_36 C9_36 1_555 1_555
H4_36 C10_36 1_555 1_555
C11_36 C10_36 1_555 1_555
C14_36 C9_36 1_555 1_555
H7_36 C14_36 1_555 1_555
C6_36 C7_36 1_555 1_555
C13_36 C14_36 1_555 1_555

#END
