
###############################################################################
#
# This file contains modified crystal structure data generated from the
# MOF subset of the Cambridge Structural Database (CSD) v543 
# hosted by the Cambridge Crystallographic Data Centre (CCDC).
#
# This work is licensed under the Creative Commons
# Attribution-NonCommercial-ShareAlike 4.0 International License.
# To view a copy of this license, visit
# http://creativecommons.org/licenses/by-nc-sa/4.0/
# or send a letter to
# Creative Commons, PO Box 1866, Mountain View, CA 94042, USA.
#
# CIF created using the CSD Python API on 29 September 2022
# The structure has been converted into the P1 space group
# The structure has a 3D framework
# The original CSD entry MISZIA is in the rhombohedral crystal system
# The framework has been calculated to contain at least 10.0% void space
# The void calculation uses a probe of radius 1.32A, grid spacing 0.4
#
###############################################################################

data_MISZIA
_chemical_formula_moiety         '(C612 H360 Cu36 N72 O144)n'
_symmetry_cell_setting           triclinic
_symmetry_space_group_name_H-M   'P 1'
_symmetry_Int_Tables_number      1
_space_group_name_Hall           'P 1'
loop_
_symmetry_equiv_pos_site_id
_symmetry_equiv_pos_as_xyz
1 x,y,z
_cell_length_a                   18.534(5)
_cell_length_b                   18.534(5)
_cell_length_c                   83.78(3)
_cell_angle_alpha                90
_cell_angle_beta                 90
_cell_angle_gamma                120
_cell_volume                     24923.5
loop_
_atom_site_label
_atom_site_type_symbol
_atom_site_fract_x
_atom_site_fract_y
_atom_site_fract_z
C1 C 0.2238(5) 0.2372(5) 0.07106(10)
C2 C 0.2440(5) 0.1773(5) 0.06338(9)
C3 C 0.2202(5) 0.1007(5) 0.07038(9)
H1 H 0.1949 0.0882 0.0804
C4 C 0.2337(5) 0.0435(5) 0.06271(10)
C5 C 0.2686(6) 0.0597(5) 0.04804(10)
H2 H 0.2779 0.0205 0.0430
C6 C 0.2910(7) 0.1358(6) 0.04047(12)
C7 C 0.2794(6) 0.1925(5) 0.04834(10)
H3 H 0.2957 0.2436 0.0435
C9 C 0.3367(6) 0.1543(5) 0.02436(7)
C10 C 0.3096(5) 0.0909(4) 0.01310(10)
H4 H 0.2683 0.0372 0.0157
C13 C 0.4329(5) 0.2516(4) 0.00519(10)
H6 H 0.4742 0.3054 0.0025
C14 C 0.3984(6) 0.2347(5) 0.02041(9)
H7 H 0.4166 0.2771 0.0279
O3 O 0.1952(4) 0.2190(3) 0.08499(6)
O4 O 0.2359(4) 0.3003(3) 0.06357(6)
Cu2 Cu 0.15448(6) 0.28371(8) 0.09634(2)
Cu4 Cu 0.20410(6) 0.38296(8) 0.07033(2)
C11 C 0.3441(6) 0.1079(5) 0.99789(9)
H5 H 0.3259 0.0655 0.9904
C12 C 0.4058(5) 0.1883(6) 0.99393(7)
C15 C 0.3987(6) 0.1861(6) 0.96522(11)
H8 H 0.3409 0.1599 0.9649
C16 C 0.5224(7) 0.2427(7) 0.97385(13)
H9 H 0.5683 0.2627 0.9806
C17 C 0.5241(6) 0.2449(7) 0.95801(12)
H10 H 0.5719 0.2687 0.9517
N1 N 0.4396(5) 0.2050(5) 0.97852(9)
N2 N 0.4435(4) 0.2061(4) 0.95239(7)
Cu5 Cu 0.38296(8) 0.17885(6) 0.92967(2)
C8 C 0.2051(5) 0.9603(5) 0.07028(10)
Cu1 Cu 0.12923(6) 0.84552(6) 0.09634(2)
O1 O 0.2131(4) 0.9078(4) 0.06271(7)
O2 O 0.1742(4) 0.9506(3) 0.08403(7)
Cu3 Cu 0.17885(6) 0.79590(6) 0.07033(2)
N3 N 0.0959(6) 0.8728(4) 0.11906(7)
O5 O 0.2411(4) 0.8798(4) 0.10396(7)
O6 O 0.0238(5) 0.8048(4) 0.08499(6)
O7 O 0.0974(4) 0.7311(5) 0.10310(6)
C8_2 C 0.0397(5) 0.2448(7) 0.07028(10)
O1_2 O 0.0922(4) 0.3053(6) 0.06271(7)
O2_2 O 0.0494(3) 0.2236(5) 0.08403(7)
N3_2 N 0.1272(4) 0.2232(7) 0.11906(7)
O5_2 O 0.1202(4) 0.3614(6) 0.10396(7)
O7_2 O 0.2689(5) 0.3664(6) 0.10310(6)
C11_2 C 0.8921(5) 0.2362(8) 0.99789(9)
H5_2 H 0.9345 0.2604 0.9904
C12_2 C 0.8117(6) 0.2175(8) 0.99393(7)
C15_2 C 0.8139(6) 0.2126(8) 0.96522(11)
H8_2 H 0.8401 0.1810 0.9649
C16_2 C 0.7573(7) 0.2797(10) 0.97385(13)
H9_2 H 0.7373 0.3056 0.9806
C17_2 C 0.7551(7) 0.2792(9) 0.95801(12)
H10_2 H 0.7313 0.3032 0.9517
N1_2 N 0.7950(5) 0.2346(7) 0.97852(9)
N2_2 N 0.7939(4) 0.2374(6) 0.95239(7)
Cu5_2 Cu 0.82115(6) 0.20410(10) 0.92967(2)
C1_2 C 0.7628(5) 0.9866(7) 0.07106(10)
O3_2 O 0.7810(3) 0.9762(5) 0.08499(6)
O4_2 O 0.6997(3) 0.9356(5) 0.06357(6)
Cu2_2 Cu 0.71629(8) 0.87077(10) 0.09634(2)
Cu4_2 Cu 0.61704(8) 0.82115(10) 0.07033(2)
C1_3 C 0.0134(7) 0.7762(5) 0.07106(10)
O4_3 O 0.0644(5) 0.7641(4) 0.06357(6)
C2_2 C 0.9333(7) 0.7560(5) 0.06338(9)
C3_2 C 0.8805(7) 0.7798(5) 0.07038(9)
H1_2 H 0.8933 0.8051 0.0804
C4_2 C 0.8098(7) 0.7663(5) 0.06271(10)
C5_2 C 0.7911(8) 0.7314(6) 0.04804(10)
H2_2 H 0.7426 0.7221 0.0430
C6_2 C 0.8448(9) 0.7090(7) 0.04047(12)
C7_2 C 0.9131(8) 0.7206(6) 0.04834(10)
H3_2 H 0.9479 0.7043 0.0435
C8_3 C 0.7552(7) 0.7949(5) 0.07028(10)
C9_2 C 0.8176(8) 0.6633(6) 0.02436(7)
C10_2 C 0.7813(6) 0.6904(5) 0.01310(10)
H4_2 H 0.7689 0.7317 0.0157
C13_2 C 0.8187(6) 0.5671(5) 0.00519(10)
H6_2 H 0.8312 0.5258 0.0025
C14_2 C 0.8363(8) 0.6016(6) 0.02041(9)
H7_2 H 0.8605 0.5834 0.0279
O1_3 O 0.6947(6) 0.7869(4) 0.06271(7)
O2_3 O 0.7764(5) 0.8258(4) 0.08403(7)
N3_3 N 0.7768(7) 0.9041(6) 0.11906(7)
O5_3 O 0.6386(6) 0.7589(4) 0.10396(7)
O7_3 O 0.6336(6) 0.9026(4) 0.10310(6)
C11_3 C 0.7638(8) 0.6559(6) 0.99789(9)
H5_3 H 0.7396 0.6741 0.9904
C12_3 C 0.7825(8) 0.5942(5) 0.99393(7)
C15_3 C 0.7874(8) 0.6013(6) 0.96522(11)
H8_3 H 0.8190 0.6591 0.9649
C16_3 C 0.7203(10) 0.4776(7) 0.97385(13)
H9_3 H 0.6944 0.4317 0.9806
C17_3 C 0.7208(9) 0.4759(6) 0.95801(12)
H10_3 H 0.6968 0.4281 0.9517
N1_3 N 0.7654(7) 0.5604(5) 0.97852(9)
N2_3 N 0.7626(6) 0.5565(4) 0.95239(7)
Cu5_3 Cu 0.79590(10) 0.61704(8) 0.92967(2)
C1_4 C 0.2372(5) 0.2238(5) 0.42894(10)
C2_3 C 0.1773(5) 0.2440(5) 0.43662(9)
C3_3 C 0.1007(5) 0.2202(5) 0.42962(9)
H1_3 H 0.0882 0.1949 0.4196
C4_3 C 0.0435(5) 0.2337(5) 0.43729(10)
C5_3 C 0.0597(5) 0.2686(6) 0.45196(10)
H2_3 H 0.0205 0.2779 0.4570
C6_3 C 0.1358(6) 0.2910(7) 0.45953(12)
C7_3 C 0.1925(5) 0.2794(6) 0.45166(10)
H3_3 H 0.2436 0.2957 0.4565
C9_3 C 0.1543(5) 0.3367(6) 0.47564(7)
C10_3 C 0.0909(4) 0.3096(5) 0.48690(10)
H4_3 H 0.0372 0.2683 0.4843
C11_4 C 0.1079(5) 0.3441(6) 0.50211(9)
H5_4 H 0.0655 0.3259 0.5096
C12_4 C 0.1883(6) 0.4058(5) 0.50607(7)
C13_3 C 0.2516(4) 0.4329(5) 0.49481(10)
H6_3 H 0.3054 0.4742 0.4975
C14_3 C 0.2347(5) 0.3984(6) 0.47959(9)
H7_3 H 0.2771 0.4166 0.4721
C15_4 C 0.1861(6) 0.3987(6) 0.53478(11)
H8_4 H 0.1599 0.3409 0.5351
C16_4 C 0.2427(7) 0.5224(7) 0.52615(13)
H9_4 H 0.2627 0.5683 0.5194
C17_4 C 0.2449(7) 0.5241(6) 0.54199(12)
H10_4 H 0.2687 0.5719 0.5483
N1_4 N 0.2050(5) 0.4396(5) 0.52148(9)
N2_4 N 0.2061(4) 0.4435(4) 0.54761(7)
O3_3 O 0.2190(3) 0.1952(4) 0.41501(6)
O4_4 O 0.3003(3) 0.2359(4) 0.43643(6)
Cu2_3 Cu 0.28371(8) 0.15448(6) 0.40366(2)
Cu4_3 Cu 0.38296(8) 0.20410(6) 0.42967(2)
Cu5_4 Cu 0.17885(6) 0.38296(8) 0.57033(2)
C8_4 C 0.9603(5) 0.2051(5) 0.42972(10)
Cu1_2 Cu 0.84552(6) 0.12923(6) 0.40366(2)
O1_4 O 0.9078(4) 0.2131(4) 0.43729(7)
O2_4 O 0.9506(3) 0.1742(4) 0.41597(7)
Cu3_2 Cu 0.79590(6) 0.17885(6) 0.42967(2)
N3_4 N 0.8728(4) 0.0959(6) 0.38094(7)
O5_4 O 0.8798(4) 0.2411(4) 0.39604(7)
O6_2 O 0.8048(4) 0.0238(5) 0.41501(6)
O7_4 O 0.7311(5) 0.0974(4) 0.39690(6)
C1_5 C 0.7762(5) 0.0134(7) 0.42894(10)
O4_5 O 0.7641(4) 0.0644(5) 0.43643(6)
C2_4 C 0.7560(5) 0.9333(7) 0.43662(9)
C3_4 C 0.7798(5) 0.8805(7) 0.42962(9)
H1_4 H 0.8051 0.8933 0.4196
C4_4 C 0.7663(5) 0.8098(7) 0.43729(10)
C5_4 C 0.7314(6) 0.7911(8) 0.45196(10)
H2_4 H 0.7221 0.7426 0.4570
C6_4 C 0.7090(7) 0.8448(9) 0.45953(12)
C7_4 C 0.7206(6) 0.9131(8) 0.45166(10)
H3_4 H 0.7043 0.9479 0.4565
C8_5 C 0.7949(5) 0.7552(7) 0.42972(10)
C9_4 C 0.6633(6) 0.8176(8) 0.47564(7)
C10_4 C 0.6904(5) 0.7813(6) 0.48690(10)
H4_4 H 0.7317 0.7689 0.4843
C11_5 C 0.6559(6) 0.7638(8) 0.50211(9)
H5_5 H 0.6741 0.7396 0.5096
C12_5 C 0.5942(5) 0.7825(8) 0.50607(7)
C13_4 C 0.5671(5) 0.8187(6) 0.49481(10)
H6_4 H 0.5258 0.8312 0.4975
C14_4 C 0.6016(6) 0.8363(8) 0.47959(9)
H7_4 H 0.5834 0.8605 0.4721
C15_5 C 0.6013(6) 0.7874(8) 0.53478(11)
H8_5 H 0.6591 0.8190 0.5351
C16_5 C 0.4776(7) 0.7203(10) 0.52615(13)
H9_5 H 0.4317 0.6944 0.5194
C17_5 C 0.4759(6) 0.7208(9) 0.54199(12)
H10_5 H 0.4281 0.6968 0.5483
Cu1_3 Cu 0.87077(6) 0.71629(8) 0.40366(2)
N1_5 N 0.5604(5) 0.7654(7) 0.52148(9)
N2_5 N 0.5565(4) 0.7626(6) 0.54761(7)
O1_5 O 0.7869(4) 0.6947(6) 0.43729(7)
O2_5 O 0.8258(4) 0.7764(5) 0.41597(7)
Cu3_3 Cu 0.82115(6) 0.61704(8) 0.42967(2)
Cu5_5 Cu 0.61704(8) 0.79590(10) 0.57033(2)
N3_5 N 0.9041(6) 0.7768(7) 0.38094(7)
O5_5 O 0.7589(4) 0.6386(6) 0.39604(7)
O6_3 O 0.9762(5) 0.7810(6) 0.41501(6)
O7_5 O 0.9026(4) 0.6336(6) 0.39690(6)
C8_6 C 0.2448(7) 0.0397(5) 0.42972(10)
O1_6 O 0.3053(6) 0.0922(4) 0.43729(7)
O2_6 O 0.2236(5) 0.0494(3) 0.41597(7)
N3_6 N 0.2232(7) 0.1272(4) 0.38094(7)
O5_6 O 0.3614(6) 0.1202(4) 0.39604(7)
O7_6 O 0.3664(6) 0.2689(5) 0.39690(6)
C2_5 C 0.0667(7) 0.8227(5) 0.43662(9)
C3_5 C 0.1195(7) 0.8993(5) 0.42962(9)
H1_5 H 0.1067 0.9118 0.4196
C4_5 C 0.1902(7) 0.9565(5) 0.43729(10)
C5_5 C 0.2089(8) 0.9403(5) 0.45196(10)
H2_5 H 0.2574 0.9795 0.4570
C6_5 C 0.1552(9) 0.8642(6) 0.45953(12)
C7_5 C 0.0869(8) 0.8075(5) 0.45166(10)
H3_5 H 0.0521 0.7564 0.4565
C9_5 C 0.1824(8) 0.8457(5) 0.47564(7)
C10_5 C 0.2187(6) 0.9091(4) 0.48690(10)
H4_5 H 0.2311 0.9628 0.4843
C11_6 C 0.2362(8) 0.8921(5) 0.50211(9)
H5_6 H 0.2604 0.9345 0.5096
C12_6 C 0.2175(8) 0.8117(6) 0.50607(7)
C13_5 C 0.1813(6) 0.7484(4) 0.49481(10)
H6_5 H 0.1688 0.6946 0.4975
C14_5 C 0.1637(8) 0.7653(5) 0.47959(9)
H7_5 H 0.1395 0.7229 0.4721
C15_6 C 0.2126(8) 0.8139(6) 0.53478(11)
H8_6 H 0.1810 0.8401 0.5351
C16_6 C 0.2797(10) 0.7573(7) 0.52615(13)
H9_6 H 0.3056 0.7373 0.5194
C17_6 C 0.2792(9) 0.7551(7) 0.54199(12)
H10_6 H 0.3032 0.7313 0.5483
N1_6 N 0.2346(7) 0.7950(5) 0.52148(9)
N2_6 N 0.2374(6) 0.7939(4) 0.54761(7)
Cu5_6 Cu 0.20410(10) 0.82115(6) 0.57033(2)
C1_6 C 0.9866(7) 0.7628(5) 0.42894(10)
O4_6 O 0.9356(5) 0.6997(3) 0.43643(6)
C9_6 C 0.0034(6) 0.4876(5) 0.35769(7)
C11_7 C 0.0108(6) 0.4412(5) 0.33122(9)
C12_7 C 0.0725(5) 0.5216(6) 0.32726(7)
C13_6 C 0.0996(5) 0.5849(4) 0.33852(10)
H6_6 H 0.1409 0.6387 0.3358
C14_6 C 0.0651(6) 0.5680(5) 0.35374(9)
H7_6 H 0.0833 0.6104 0.3612
C15_7 C 0.0654(6) 0.5194(6) 0.29855(11)
H8_7 H 0.0076 0.4932 0.2982
C16_7 C 0.1891(7) 0.5760(7) 0.30718(13)
H9_7 H 0.2350 0.5960 0.3139
C17_7 C 0.1908(6) 0.5782(7) 0.29134(12)
H10_7 H 0.2386 0.6020 0.2850
N1_7 N 0.1063(5) 0.5383(5) 0.31185(9)
N2_7 N 0.1102(4) 0.5394(4) 0.28572(7)
Cu5_7 Cu 0.04962(8) 0.51219(6) 0.26301(2)
C1_7 C 0.8905(5) 0.5705(5) 0.40439(10)
C2_6 C 0.9107(5) 0.5106(5) 0.39671(9)
C3_6 C 0.8869(5) 0.4340(5) 0.40371(9)
H1_6 H 0.8616 0.4215 0.4137
C4_6 C 0.9004(5) 0.3768(5) 0.39604(10)
C5_6 C 0.9353(6) 0.3930(5) 0.38137(10)
H2_6 H 0.9446 0.3538 0.3763
C6_6 C 0.9577(7) 0.4691(6) 0.37380(12)
C7_6 C 0.9461(6) 0.5258(5) 0.38167(10)
H3_6 H 0.9624 0.5769 0.3768
C8_7 C 0.8718(5) 0.2936(5) 0.40361(10)
C10_6 C 0.9763(5) 0.4242(4) 0.34643(10)
H4_6 H 0.9350 0.3705 0.3490
H5_7 H 0.9926 0.3988 0.3237
O2_7 O 0.8409(4) 0.2839(3) 0.41736(7)
O3_4 O 0.8619(4) 0.5523(3) 0.41832(6)
N3_7 N 0.7626(6) 0.2061(4) 0.45239(7)
O6_4 O 0.6905(5) 0.1381(4) 0.41832(6)
C1_8 C 0.4295(5) 0.3199(7) 0.40439(10)
C2_7 C 0.4894(5) 0.4000(7) 0.39671(9)
C3_7 C 0.5660(5) 0.4528(7) 0.40371(9)
H1_7 H 0.5785 0.4400 0.4137
C4_7 C 0.6232(5) 0.5235(7) 0.39604(10)
C5_7 C 0.6070(5) 0.5422(8) 0.38137(10)
H2_7 H 0.6462 0.5907 0.3763
C6_7 C 0.5309(6) 0.4885(9) 0.37380(12)
C7_7 C 0.4742(5) 0.4202(8) 0.38167(10)
H3_7 H 0.4231 0.3854 0.3768
C8_8 C 0.7064(5) 0.5781(7) 0.40361(10)
C9_7 C 0.5124(5) 0.5157(8) 0.35769(7)
C10_7 C 0.5758(4) 0.5520(6) 0.34643(10)
H4_7 H 0.6295 0.5644 0.3490
C11_8 C 0.5588(5) 0.5695(8) 0.33122(9)
H5_8 H 0.6012 0.5937 0.3237
C12_8 C 0.4784(6) 0.5508(8) 0.32726(7)
C13_7 C 0.4151(4) 0.5146(6) 0.33852(10)
H6_7 H 0.3613 0.5021 0.3358
C14_7 C 0.4320(5) 0.4970(8) 0.35374(9)
H7_7 H 0.3896 0.4728 0.3612
C15_8 C 0.4806(6) 0.5459(8) 0.29855(11)
H8_8 H 0.5068 0.5143 0.2982
C16_8 C 0.4240(7) 0.6130(10) 0.30718(13)
H9_8 H 0.4040 0.6389 0.3139
C17_8 C 0.4218(7) 0.6125(9) 0.29134(12)
H10_8 H 0.3980 0.6365 0.2850
N1_8 N 0.4617(5) 0.5679(7) 0.31185(9)
N2_8 N 0.4606(4) 0.5707(6) 0.28572(7)
O2_8 O 0.7161(3) 0.5569(5) 0.41736(7)
O3_5 O 0.4477(3) 0.3095(5) 0.41832(6)
Cu5_8 Cu 0.48781(6) 0.53744(10) 0.26301(2)
N3_8 N 0.7939(4) 0.5565(7) 0.45239(7)
C1_9 C 0.6801(7) 0.1095(5) 0.40439(10)
C2_8 C 0.6000(7) 0.0893(5) 0.39671(9)
C3_8 C 0.5472(7) 0.1131(5) 0.40371(9)
H1_8 H 0.5600 0.1384 0.4137
C4_8 C 0.4765(7) 0.0996(5) 0.39604(10)
C5_8 C 0.4578(8) 0.0647(6) 0.38137(10)
H2_8 H 0.4093 0.0554 0.3763
C6_8 C 0.5115(9) 0.0423(7) 0.37380(12)
C7_8 C 0.5798(8) 0.0539(6) 0.38167(10)
H3_8 H 0.6146 0.0376 0.3768
C8_9 C 0.4219(7) 0.1282(5) 0.40361(10)
C10_8 C 0.4480(6) 0.0237(5) 0.34643(10)
H4_8 H 0.4356 0.0650 0.3490
H5_9 H 0.4063 0.0074 0.3237
O2_9 O 0.4431(5) 0.1591(4) 0.41736(7)
N3_9 N 0.4435(7) 0.2374(6) 0.45239(7)
C9_8 C 0.4843(8) 0.9966(6) 0.35769(7)
C11_9 C 0.4305(8) 0.9892(6) 0.33122(9)
C12_9 C 0.4492(8) 0.9275(5) 0.32726(7)
C13_8 C 0.4854(6) 0.9004(5) 0.33852(10)
H6_8 H 0.4979 0.8591 0.3358
C14_8 C 0.5030(8) 0.9349(6) 0.35374(9)
H7_8 H 0.5272 0.9167 0.3612
C15_9 C 0.4541(8) 0.9346(6) 0.29855(11)
H8_9 H 0.4857 0.9924 0.2982
C16_9 C 0.3870(10) 0.8109(7) 0.30718(13)
H9_9 H 0.3611 0.7650 0.3139
C17_9 C 0.3875(9) 0.8092(6) 0.29134(12)
H10_9 H 0.3635 0.7614 0.2850
N1_9 N 0.4321(7) 0.8937(5) 0.31185(9)
N2_9 N 0.4293(6) 0.8898(4) 0.28572(7)
Cu5_9 Cu 0.46256(10) 0.95038(8) 0.26301(2)
Cu4_4 Cu 0.04962(8) 0.53744(6) 0.76301(2)
C1_10 C 0.9039(5) 0.5571(5) 0.76227(10)
C2_9 C 0.8440(5) 0.5773(5) 0.76995(9)
C3_9 C 0.7674(5) 0.5535(5) 0.76295(9)
H1_9 H 0.7549 0.5282 0.7529
C4_9 C 0.7102(5) 0.5670(5) 0.77062(10)
C5_9 C 0.7264(5) 0.6019(6) 0.78529(10)
H2_9 H 0.6872 0.6112 0.7903
C6_9 C 0.8025(6) 0.6243(7) 0.79286(12)
C7_9 C 0.8592(5) 0.6127(6) 0.78499(10)
H3_9 H 0.9103 0.6290 0.7898
C8_10 C 0.6270(5) 0.5384(5) 0.76305(10)
C9_9 C 0.8210(5) 0.6700(6) 0.80897(7)
C10_9 C 0.7576(4) 0.6429(5) 0.82023(10)
H4_9 H 0.7039 0.6016 0.8176
C11_10 C 0.7746(5) 0.6774(6) 0.83544(9)
H5_10 H 0.7322 0.6592 0.8429
C12_10 C 0.8550(6) 0.7391(5) 0.83940(7)
C13_9 C 0.9183(4) 0.7662(5) 0.82814(10)
H6_9 H 0.9721 0.8075 0.8308
C14_9 C 0.9014(5) 0.7317(6) 0.81292(9)
H7_9 H 0.9438 0.7499 0.8054
C15_10 C 0.8528(6) 0.7320(6) 0.86811(11)
H8_10 H 0.8266 0.6742 0.8684
C16_10 C 0.9094(7) 0.8557(7) 0.85948(13)
H9_10 H 0.9294 0.9016 0.8527
C17_10 C 0.9116(7) 0.8574(6) 0.87532(12)
H10_10 H 0.9354 0.9052 0.8816
Cu1_4 Cu 0.51219(6) 0.46256(6) 0.73699(2)
N1_10 N 0.8717(5) 0.7729(5) 0.85481(9)
N2_10 N 0.8728(4) 0.7768(4) 0.88094(7)
O1_7 O 0.5745(4) 0.5464(4) 0.77062(7)
O2_10 O 0.6173(3) 0.5075(4) 0.74930(7)
O3_6 O 0.8857(3) 0.5285(4) 0.74834(6)
O4_7 O 0.9670(3) 0.5692(4) 0.76976(6)
Cu2_4 Cu 0.95038(8) 0.48781(6) 0.73699(2)
Cu3_4 Cu 0.46256(6) 0.51219(6) 0.76301(2)
Cu5_10 Cu 0.84552(6) 0.71629(8) 0.90366(2)
N3_10 N 0.5394(4) 0.4293(6) 0.71428(7)
O5_7 O 0.5464(4) 0.5745(4) 0.72938(7)
O6_5 O 0.4715(4) 0.3571(5) 0.74834(6)
O7_7 O 0.3977(5) 0.4308(4) 0.73024(6)
C1_11 C 0.4429(5) 0.3467(7) 0.76227(10)
C2_10 C 0.4227(5) 0.2666(7) 0.76995(9)
C3_10 C 0.4465(5) 0.2138(7) 0.76295(9)
H1_10 H 0.4718 0.2266 0.7529
C4_10 C 0.4330(5) 0.1431(7) 0.77062(10)
C5_10 C 0.3981(6) 0.1244(8) 0.78529(10)
H2_10 H 0.3888 0.0759 0.7903
C6_10 C 0.3757(7) 0.1781(9) 0.79286(12)
C7_10 C 0.3873(6) 0.2464(8) 0.78499(10)
H3_10 H 0.3710 0.2812 0.7898
C8_11 C 0.4616(5) 0.0885(7) 0.76305(10)
C9_10 C 0.3300(6) 0.1509(8) 0.80897(7)
C10_10 C 0.3571(5) 0.1146(6) 0.82023(10)
H4_10 H 0.3984 0.1022 0.8176
C11_11 C 0.3226(6) 0.0971(8) 0.83544(9)
H5_11 H 0.3408 0.0729 0.8429
C12_11 C 0.2609(5) 0.1158(8) 0.83940(7)
C13_10 C 0.2338(5) 0.1520(6) 0.82814(10)
H6_10 H 0.1925 0.1645 0.8308
C14_10 C 0.2683(6) 0.1696(8) 0.81292(9)
H7_10 H 0.2501 0.1938 0.8054
C15_11 C 0.2680(6) 0.1207(8) 0.86811(11)
H8_11 H 0.3258 0.1523 0.8684
C16_11 C 0.1443(7) 0.0536(10) 0.85948(13)
H9_11 H 0.0984 0.0277 0.8527
C17_11 C 0.1426(6) 0.0541(9) 0.87532(12)
H10_11 H 0.0948 0.0301 0.8816
Cu1_5 Cu 0.53744(6) 0.04962(8) 0.73699(2)
N1_11 N 0.2271(5) 0.0987(7) 0.85481(9)
N2_11 N 0.2232(4) 0.0959(6) 0.88094(7)
O1_8 O 0.4536(4) 0.0280(6) 0.77062(7)
O2_11 O 0.4925(4) 0.1097(5) 0.74930(7)
O4_8 O 0.4308(4) 0.3977(5) 0.76976(6)
Cu5_11 Cu 0.28371(8) 0.12923(10) 0.90366(2)
N3_11 N 0.5707(6) 0.1102(7) 0.71428(7)
O6_6 O 0.6429(5) 0.1143(6) 0.74834(6)
Cu3_5 Cu 0.48781(6) 0.95038(8) 0.76301(2)
O5_8 O 0.4255(4) 0.9720(6) 0.72938(7)
O7_8 O 0.5692(4) 0.9670(6) 0.73024(6)
O5_9 O 0.0280(6) 0.4536(4) 0.72938(7)
O7_9 O 0.0330(6) 0.6023(5) 0.73024(6)
C1_12 C 0.6533(7) 0.0961(5) 0.76227(10)
C2_11 C 0.7334(7) 0.1560(5) 0.76995(9)
C3_11 C 0.7862(7) 0.2326(5) 0.76295(9)
H1_11 H 0.7734 0.2451 0.7529
C4_11 C 0.8569(7) 0.2898(5) 0.77062(10)
C5_11 C 0.8756(8) 0.2736(5) 0.78529(10)
H2_11 H 0.9241 0.3128 0.7903
C6_11 C 0.8219(9) 0.1975(6) 0.79286(12)
C7_11 C 0.7536(8) 0.1408(5) 0.78499(10)
H3_11 H 0.7188 0.0897 0.7898
C8_12 C 0.9115(7) 0.3730(5) 0.76305(10)
C9_11 C 0.8491(8) 0.1790(5) 0.80897(7)
C10_11 C 0.8854(6) 0.2424(4) 0.82023(10)
H4_11 H 0.8978 0.2961 0.8176
C11_12 C 0.9029(8) 0.2254(5) 0.83544(9)
H5_12 H 0.9271 0.2678 0.8429
C12_12 C 0.8842(8) 0.1450(6) 0.83940(7)
C13_11 C 0.8480(6) 0.0817(4) 0.82814(10)
H6_11 H 0.8355 0.0279 0.8308
C14_11 C 0.8304(8) 0.0986(5) 0.81292(9)
H7_11 H 0.8062 0.0562 0.8054
C15_12 C 0.8793(8) 0.1472(6) 0.86811(11)
H8_12 H 0.8477 0.1734 0.8684
C16_12 C 0.9464(10) 0.0906(7) 0.85948(13)
H9_12 H 0.9723 0.0706 0.8527
C17_12 C 0.9459(9) 0.0884(7) 0.87532(12)
H10_12 H 0.9699 0.0646 0.8816
N1_12 N 0.9013(7) 0.1283(5) 0.85481(9)
N2_12 N 0.9041(6) 0.1272(4) 0.88094(7)
O1_9 O 0.9720(6) 0.4255(4) 0.77062(7)
O2_12 O 0.8903(5) 0.3827(3) 0.74930(7)
O4_9 O 0.6023(5) 0.0330(3) 0.76976(6)
Cu5_12 Cu 0.87077(10) 0.15448(6) 0.90366(2)
N3_12 N 0.8898(7) 0.4606(4) 0.71428(7)
C1_13 C 0.5571(5) 0.9039(5) 0.73773(10)
C2_12 C 0.5773(5) 0.8440(5) 0.73005(9)
C3_12 C 0.5535(5) 0.7674(5) 0.73705(9)
H1_12 H 0.5282 0.7549 0.7471
C4_12 C 0.5670(5) 0.7102(5) 0.72938(10)
C5_12 C 0.6019(6) 0.7264(5) 0.71471(10)
H2_12 H 0.6112 0.6872 0.7097
C6_12 C 0.6243(7) 0.8025(6) 0.70714(12)
C7_12 C 0.6127(6) 0.8592(5) 0.71501(10)
H3_12 H 0.6290 0.9103 0.7102
C8_13 C 0.5384(5) 0.6270(5) 0.73695(10)
C9_12 C 0.6700(6) 0.8210(5) 0.69103(7)
C10_12 C 0.6429(5) 0.7576(4) 0.67977(10)
H4_12 H 0.6016 0.7039 0.6824
C11_13 C 0.6774(6) 0.7746(5) 0.66456(9)
H5_13 H 0.6592 0.7322 0.6571
C12_13 C 0.7391(5) 0.8550(6) 0.66060(7)
C13_12 C 0.7662(5) 0.9183(4) 0.67186(10)
H6_12 H 0.8075 0.9721 0.6692
C14_12 C 0.7317(6) 0.9014(5) 0.68708(9)
H7_12 H 0.7499 0.9438 0.6946
C15_13 C 0.7320(6) 0.8528(6) 0.63189(11)
H8_13 H 0.6742 0.8266 0.6316
C16_13 C 0.8557(7) 0.9094(7) 0.64052(13)
H9_13 H 0.9016 0.9294 0.6473
C17_13 C 0.8574(6) 0.9116(7) 0.62468(12)
H10_13 H 0.9052 0.9354 0.6184
N1_13 N 0.7729(5) 0.8717(5) 0.64519(9)
N2_13 N 0.7768(4) 0.8728(4) 0.61906(7)
O2_13 O 0.5075(4) 0.6173(3) 0.75070(7)
O3_7 O 0.5285(4) 0.8857(3) 0.75166(6)
Cu5_13 Cu 0.71629(8) 0.84552(6) 0.59634(2)
N3_13 N 0.4293(6) 0.5394(4) 0.78572(7)
O6_7 O 0.3571(5) 0.4715(4) 0.75166(6)
C1_14 C 0.0961(5) 0.6533(7) 0.73773(10)
C2_13 C 0.1560(5) 0.7334(7) 0.73005(9)
C3_13 C 0.2326(5) 0.7862(7) 0.73705(9)
H1_13 H 0.2451 0.7734 0.7471
C4_13 C 0.2898(5) 0.8569(7) 0.72938(10)
C5_13 C 0.2736(5) 0.8756(8) 0.71471(10)
H2_13 H 0.3128 0.9241 0.7097
C6_13 C 0.1975(6) 0.8219(9) 0.70714(12)
C7_13 C 0.1408(5) 0.7536(8) 0.71501(10)
H3_13 H 0.0897 0.7188 0.7102
C8_14 C 0.3730(5) 0.9115(7) 0.73695(10)
C9_13 C 0.1790(5) 0.8491(8) 0.69103(7)
C10_13 C 0.2424(4) 0.8854(6) 0.67977(10)
H4_13 H 0.2961 0.8978 0.6824
C11_14 C 0.2254(5) 0.9029(8) 0.66456(9)
H5_14 H 0.2678 0.9271 0.6571
C12_14 C 0.1450(6) 0.8842(8) 0.66060(7)
C13_13 C 0.0817(4) 0.8480(6) 0.67186(10)
H6_13 H 0.0279 0.8355 0.6692
C14_13 C 0.0986(5) 0.8304(8) 0.68708(9)
H7_13 H 0.0562 0.8062 0.6946
C15_14 C 0.1472(6) 0.8793(8) 0.63189(11)
H8_14 H 0.1734 0.8477 0.6316
C16_14 C 0.0906(7) 0.9464(10) 0.64052(13)
H9_14 H 0.0706 0.9723 0.6473
C17_14 C 0.0884(7) 0.9459(9) 0.62468(12)
H10_14 H 0.0646 0.9699 0.6184
N1_14 N 0.1283(5) 0.9013(7) 0.64519(9)
N2_14 N 0.1272(4) 0.9041(6) 0.61906(7)
O2_14 O 0.3827(3) 0.8903(5) 0.75070(7)
O3_8 O 0.1143(3) 0.6429(5) 0.75166(6)
Cu5_14 Cu 0.15448(6) 0.87077(10) 0.59634(2)
N3_14 N 0.4606(4) 0.8898(7) 0.78572(7)
C1_15 C 0.3467(7) 0.4429(5) 0.73773(10)
C2_14 C 0.2666(7) 0.4227(5) 0.73005(9)
C3_14 C 0.2138(7) 0.4465(5) 0.73705(9)
H1_14 H 0.2266 0.4718 0.7471
C4_14 C 0.1431(7) 0.4330(5) 0.72938(10)
C5_14 C 0.1244(8) 0.3981(6) 0.71471(10)
H2_14 H 0.0759 0.3888 0.7097
C6_14 C 0.1781(9) 0.3757(7) 0.70714(12)
C7_14 C 0.2464(8) 0.3873(6) 0.71501(10)
H3_14 H 0.2812 0.3710 0.7102
C8_15 C 0.0885(7) 0.4616(5) 0.73695(10)
C9_14 C 0.1509(8) 0.3300(6) 0.69103(7)
C10_14 C 0.1146(6) 0.3571(5) 0.67977(10)
H4_14 H 0.1022 0.3984 0.6824
C11_15 C 0.0971(8) 0.3226(6) 0.66456(9)
H5_15 H 0.0729 0.3408 0.6571
C12_15 C 0.1158(8) 0.2609(5) 0.66060(7)
C13_14 C 0.1520(6) 0.2338(5) 0.67186(10)
H6_14 H 0.1645 0.1925 0.6692
C14_14 C 0.1696(8) 0.2683(6) 0.68708(9)
H7_14 H 0.1938 0.2501 0.6946
C15_15 C 0.1207(8) 0.2680(6) 0.63189(11)
H8_15 H 0.1523 0.3258 0.6316
C16_15 C 0.0536(10) 0.1443(7) 0.64052(13)
H9_15 H 0.0277 0.0984 0.6473
C17_15 C 0.0541(9) 0.1426(6) 0.62468(12)
H10_15 H 0.0301 0.0948 0.6184
N1_15 N 0.0987(7) 0.2271(5) 0.64519(9)
N2_15 N 0.0959(6) 0.2232(4) 0.61906(7)
O2_15 O 0.1097(5) 0.4925(4) 0.75070(7)
Cu5_15 Cu 0.12923(10) 0.28371(8) 0.59634(2)
N3_15 N 0.1102(7) 0.5707(6) 0.78572(7)
C9_15 C 0.4876(5) 0.0034(6) 0.14231(7)
C11_16 C 0.4412(5) 0.0108(6) 0.16878(9)
C12_16 C 0.5216(6) 0.0725(5) 0.17274(7)
C13_15 C 0.5849(4) 0.0996(5) 0.16148(10)
H6_15 H 0.6387 0.1409 0.1642
C14_15 C 0.5680(5) 0.0651(6) 0.14626(9)
H7_15 H 0.6104 0.0833 0.1388
C15_16 C 0.5194(6) 0.0654(6) 0.20145(11)
H8_16 H 0.4932 0.0076 0.2018
C16_16 C 0.5760(7) 0.1891(7) 0.19282(13)
H9_16 H 0.5960 0.2350 0.1861
C17_16 C 0.5782(7) 0.1908(6) 0.20866(12)
H10_16 H 0.6020 0.2386 0.2150
N1_16 N 0.5383(5) 0.1063(5) 0.18815(9)
N2_16 N 0.5394(4) 0.1102(4) 0.21428(7)
Cu5_16 Cu 0.51219(6) 0.04962(8) 0.23699(2)
C1_16 C 0.5705(5) 0.8905(5) 0.09561(10)
C2_15 C 0.5106(5) 0.9107(5) 0.10329(9)
C3_15 C 0.4340(5) 0.8869(5) 0.09629(9)
H1_15 H 0.4215 0.8616 0.0863
C4_15 C 0.3768(5) 0.9004(5) 0.10396(10)
C5_15 C 0.3930(5) 0.9353(6) 0.11863(10)
H2_15 H 0.3538 0.9446 0.1237
C6_15 C 0.4691(6) 0.9577(7) 0.12620(12)
C7_15 C 0.5258(5) 0.9461(6) 0.11833(10)
H3_15 H 0.5769 0.9624 0.1232
C8_16 C 0.2936(5) 0.8718(5) 0.09639(10)
C10_15 C 0.4242(4) 0.9763(5) 0.15357(10)
H4_15 H 0.3705 0.9350 0.1510
H5_16 H 0.3988 0.9926 0.1763
O2_16 O 0.2839(3) 0.8409(4) 0.08264(7)
O3_9 O 0.5523(3) 0.8619(4) 0.08168(6)
N3_16 N 0.2061(4) 0.7626(6) 0.04761(7)
O6_8 O 0.1381(4) 0.6905(5) 0.08168(6)
C1_17 C 0.1095(5) 0.6801(7) 0.09561(10)
C2_16 C 0.0893(5) 0.6000(7) 0.10329(9)
C3_16 C 0.1131(5) 0.5472(7) 0.09629(9)
H1_16 H 0.1384 0.5600 0.0863
C4_16 C 0.0996(5) 0.4765(7) 0.10396(10)
C5_16 C 0.0647(6) 0.4578(8) 0.11863(10)
H2_16 H 0.0554 0.4093 0.1237
C6_16 C 0.0423(7) 0.5115(9) 0.12620(12)
C7_16 C 0.0539(6) 0.5798(8) 0.11833(10)
H3_16 H 0.0376 0.6146 0.1232
C8_17 C 0.1282(5) 0.4219(7) 0.09639(10)
C10_16 C 0.0237(5) 0.4480(6) 0.15357(10)
H4_16 H 0.0650 0.4356 0.1510
H5_17 H 0.0074 0.4063 0.1763
O2_17 O 0.1591(4) 0.4431(5) 0.08264(7)
N3_17 N 0.2374(6) 0.4435(7) 0.04761(7)
O6_9 O 0.3095(5) 0.4477(6) 0.08168(6)
C9_16 C 0.9966(6) 0.4843(8) 0.14231(7)
C11_17 C 0.9892(6) 0.4305(8) 0.16878(9)
C12_17 C 0.9275(5) 0.4492(8) 0.17274(7)
C13_16 C 0.9004(5) 0.4854(6) 0.16148(10)
H6_16 H 0.8591 0.4979 0.1642
C14_16 C 0.9349(6) 0.5030(8) 0.14626(9)
H7_16 H 0.9167 0.5272 0.1388
C15_17 C 0.9346(6) 0.4541(8) 0.20145(11)
H8_17 H 0.9924 0.4857 0.2018
C16_17 C 0.8109(7) 0.3870(10) 0.19282(13)
H9_17 H 0.7650 0.3611 0.1861
C17_17 C 0.8092(6) 0.3875(9) 0.20866(12)
H10_17 H 0.7614 0.3635 0.2150
N1_17 N 0.8937(5) 0.4321(7) 0.18815(9)
N2_17 N 0.8898(4) 0.4293(6) 0.21428(7)
Cu5_17 Cu 0.95038(8) 0.46256(10) 0.23699(2)
C1_18 C 0.3199(7) 0.4295(5) 0.09561(10)
C2_17 C 0.4000(7) 0.4894(5) 0.10329(9)
C3_17 C 0.4528(7) 0.5660(5) 0.09629(9)
H1_17 H 0.4400 0.5785 0.0863
C4_17 C 0.5235(7) 0.6232(5) 0.10396(10)
C5_17 C 0.5422(8) 0.6070(5) 0.11863(10)
H2_17 H 0.5907 0.6462 0.1237
C6_17 C 0.4885(9) 0.5309(6) 0.12620(12)
C7_17 C 0.4202(8) 0.4742(5) 0.11833(10)
H3_17 H 0.3854 0.4231 0.1232
C8_18 C 0.5781(7) 0.7064(5) 0.09639(10)
C9_17 C 0.5157(8) 0.5124(5) 0.14231(7)
C10_17 C 0.5520(6) 0.5758(4) 0.15357(10)
H4_17 H 0.5644 0.6295 0.1510
C11_18 C 0.5695(8) 0.5588(5) 0.16878(9)
H5_18 H 0.5937 0.6012 0.1763
C12_18 C 0.5508(8) 0.4784(6) 0.17274(7)
C13_17 C 0.5146(6) 0.4151(4) 0.16148(10)
H6_17 H 0.5021 0.3613 0.1642
C14_17 C 0.4970(8) 0.4320(5) 0.14626(9)
H7_17 H 0.4728 0.3896 0.1388
C15_18 C 0.5459(8) 0.4806(6) 0.20145(11)
H8_18 H 0.5143 0.5068 0.2018
C16_18 C 0.6130(10) 0.4240(7) 0.19282(13)
H9_18 H 0.6389 0.4040 0.1861
C17_18 C 0.6125(9) 0.4218(7) 0.20866(12)
H10_18 H 0.6365 0.3980 0.2150
N1_18 N 0.5679(7) 0.4617(5) 0.18815(9)
N2_18 N 0.5707(6) 0.4606(4) 0.21428(7)
O2_18 O 0.5569(5) 0.7161(3) 0.08264(7)
Cu5_18 Cu 0.53744(10) 0.48781(6) 0.23699(2)
N3_18 N 0.5565(7) 0.7939(4) 0.04761(7)
C8_19 C 0.7949(5) 0.0397(5) 0.92972(10)
O1_10 O 0.7869(4) 0.0922(4) 0.93729(7)
O2_19 O 0.8258(4) 0.0494(3) 0.91597(7)
O5_10 O 0.7589(4) 0.1202(4) 0.89604(7)
O6_10 O 0.9762(5) 0.1952(4) 0.91501(6)
O7_10 O 0.9026(4) 0.2689(5) 0.89690(6)
C11_19 C 0.6559(6) 0.8921(5) 0.00211(9)
H5_19 H 0.6741 0.9345 0.0096
C12_19 C 0.5942(5) 0.8117(6) 0.00607(7)
C15_19 C 0.6013(6) 0.8139(6) 0.03478(11)
H8_19 H 0.6591 0.8401 0.0351
C16_19 C 0.4776(7) 0.7573(7) 0.02615(13)
H9_19 H 0.4317 0.7373 0.0194
C17_19 C 0.4759(6) 0.7551(7) 0.04199(12)
H10_19 H 0.4281 0.7313 0.0483
N1_19 N 0.5604(5) 0.7950(5) 0.02148(9)
C1_19 C 0.7762(5) 0.7628(5) 0.92894(10)
C2_18 C 0.7560(5) 0.8227(5) 0.93662(9)
C3_18 C 0.7798(5) 0.8993(5) 0.92962(9)
H1_18 H 0.8051 0.9118 0.9196
C4_18 C 0.7663(5) 0.9565(5) 0.93729(10)
C5_18 C 0.7314(6) 0.9403(5) 0.95196(10)
H2_18 H 0.7221 0.9795 0.9570
C6_18 C 0.7090(7) 0.8642(6) 0.95953(12)
C7_18 C 0.7206(6) 0.8075(5) 0.95166(10)
H3_18 H 0.7043 0.7564 0.9565
C9_18 C 0.6633(6) 0.8457(5) 0.97564(7)
C10_18 C 0.6904(5) 0.9091(4) 0.98690(10)
H4_18 H 0.7317 0.9628 0.9843
C13_18 C 0.5671(5) 0.7484(4) 0.99481(10)
H6_18 H 0.5258 0.6946 0.9975
C14_18 C 0.6016(6) 0.7653(5) 0.97959(9)
H7_18 H 0.5834 0.7229 0.9721
O3_10 O 0.8048(4) 0.7810(3) 0.91501(6)
O4_10 O 0.7641(4) 0.6997(3) 0.93643(6)
C1_20 C 0.2372(5) 0.0134(7) 0.92894(10)
O3_11 O 0.2190(3) 0.0238(5) 0.91501(6)
O4_11 O 0.3003(3) 0.0644(5) 0.93643(6)
C11_20 C 0.1079(5) 0.7638(8) 0.00211(9)
H5_20 H 0.0655 0.7396 0.0096
C12_20 C 0.1883(6) 0.7825(8) 0.00607(7)
C15_20 C 0.1861(6) 0.7874(8) 0.03478(11)
H8_20 H 0.1599 0.8190 0.0351
C16_20 C 0.2427(7) 0.7203(10) 0.02615(13)
H9_20 H 0.2627 0.6944 0.0194
C17_20 C 0.2449(7) 0.7208(9) 0.04199(12)
H10_20 H 0.2687 0.6968 0.0483
N1_20 N 0.2050(5) 0.7654(7) 0.02148(9)
C8_20 C 0.9603(5) 0.7552(7) 0.92972(10)
O1_11 O 0.9078(4) 0.6947(6) 0.93729(7)
O2_20 O 0.9506(3) 0.7764(5) 0.91597(7)
O5_11 O 0.8798(4) 0.6386(6) 0.89604(7)
O7_11 O 0.7311(5) 0.6336(6) 0.89690(6)
C11_21 C 0.2362(8) 0.3441(6) 0.00211(9)
H5_21 H 0.2604 0.3259 0.0096
C12_21 C 0.2175(8) 0.4058(5) 0.00607(7)
C15_21 C 0.2126(8) 0.3987(6) 0.03478(11)
H8_21 H 0.1810 0.3409 0.0351
C16_21 C 0.2797(10) 0.5224(7) 0.02615(13)
H9_21 H 0.3056 0.5683 0.0194
C17_21 C 0.2792(9) 0.5241(6) 0.04199(12)
H10_21 H 0.3032 0.5719 0.0483
N1_21 N 0.2346(7) 0.4396(5) 0.02148(9)
C2_19 C 0.0667(7) 0.2440(5) 0.93662(9)
C3_19 C 0.1195(7) 0.2202(5) 0.92962(9)
H1_19 H 0.1067 0.1949 0.9196
C4_19 C 0.1902(7) 0.2337(5) 0.93729(10)
C5_19 C 0.2089(8) 0.2686(6) 0.95196(10)
H2_19 H 0.2574 0.2779 0.9570
C6_19 C 0.1552(9) 0.2910(7) 0.95953(12)
C7_19 C 0.0869(8) 0.2794(6) 0.95166(10)
H3_19 H 0.0521 0.2957 0.9565
C8_21 C 0.2448(7) 0.2051(5) 0.92972(10)
C9_19 C 0.1824(8) 0.3367(6) 0.97564(7)
C10_19 C 0.2187(6) 0.3096(5) 0.98690(10)
H4_19 H 0.2311 0.2683 0.9843
C13_19 C 0.1813(6) 0.4329(5) 0.99481(10)
H6_19 H 0.1688 0.4742 0.9975
C14_19 C 0.1637(8) 0.3984(6) 0.97959(9)
H7_19 H 0.1395 0.4166 0.9721
O1_12 O 0.3053(6) 0.2131(4) 0.93729(7)
O2_21 O 0.2236(5) 0.1742(4) 0.91597(7)
O5_12 O 0.3614(6) 0.2411(4) 0.89604(7)
O7_12 O 0.3664(6) 0.0974(4) 0.89690(6)
C1_21 C 0.9866(7) 0.2238(5) 0.92894(10)
O4_12 O 0.9356(5) 0.2359(4) 0.93643(6)
C8_22 C 0.0397(5) 0.7949(5) 0.57028(10)
O1_13 O 0.0922(4) 0.7869(4) 0.56271(7)
O2_22 O 0.0494(3) 0.8258(4) 0.58403(7)
O5_13 O 0.1202(4) 0.7589(4) 0.60396(7)
O6_11 O 0.1952(4) 0.9762(5) 0.58499(6)
O7_13 O 0.2689(5) 0.9026(4) 0.60310(6)
C1_22 C 0.7628(5) 0.7762(5) 0.57106(10)
C2_20 C 0.8227(5) 0.7560(5) 0.56338(9)
C3_20 C 0.8993(5) 0.7798(5) 0.57038(9)
H1_20 H 0.9118 0.8051 0.5804
C4_20 C 0.9565(5) 0.7663(5) 0.56271(10)
C5_20 C 0.9403(5) 0.7314(6) 0.54804(10)
H2_20 H 0.9795 0.7221 0.5430
C6_20 C 0.8642(6) 0.7090(7) 0.54047(12)
C7_20 C 0.8075(5) 0.7206(6) 0.54834(10)
H3_20 H 0.7564 0.7043 0.5435
C9_20 C 0.8457(5) 0.6633(6) 0.52436(7)
C10_20 C 0.9091(4) 0.6904(5) 0.51310(10)
H4_20 H 0.9628 0.7317 0.5157
C11_22 C 0.8921(5) 0.6559(6) 0.49789(9)
H5_22 H 0.9345 0.6741 0.4904
C12_22 C 0.8117(6) 0.5942(5) 0.49393(7)
C13_20 C 0.7484(4) 0.5671(5) 0.50519(10)
H6_20 H 0.6946 0.5258 0.5025
C14_20 C 0.7653(5) 0.6016(6) 0.52041(9)
H7_20 H 0.7229 0.5834 0.5279
C15_22 C 0.8139(6) 0.6013(6) 0.46522(11)
H8_22 H 0.8401 0.6591 0.4649
C16_22 C 0.7573(7) 0.4776(7) 0.47385(13)
H9_22 H 0.7373 0.4317 0.4806
C17_22 C 0.7551(7) 0.4759(6) 0.45801(12)
H10_22 H 0.7313 0.4281 0.4517
N1_22 N 0.7950(5) 0.5604(5) 0.47852(9)
O3_12 O 0.7810(3) 0.8048(4) 0.58499(6)
O4_13 O 0.6997(3) 0.7641(4) 0.56357(6)
C2_21 C 0.2440(5) 0.0667(7) 0.56338(9)
C3_21 C 0.2202(5) 0.1195(7) 0.57038(9)
H1_21 H 0.1949 0.1067 0.5804
C4_21 C 0.2337(5) 0.1902(7) 0.56271(10)
C5_21 C 0.2686(6) 0.2089(8) 0.54804(10)
H2_21 H 0.2779 0.2574 0.5430
C6_21 C 0.2910(7) 0.1552(9) 0.54047(12)
C7_21 C 0.2794(6) 0.0869(8) 0.54834(10)
H3_21 H 0.2957 0.0521 0.5435
C8_23 C 0.2051(5) 0.2448(7) 0.57028(10)
C9_21 C 0.3367(6) 0.1824(8) 0.52436(7)
C10_21 C 0.3096(5) 0.2187(6) 0.51310(10)
H4_21 H 0.2683 0.2311 0.5157
C11_23 C 0.3441(6) 0.2362(8) 0.49789(9)
H5_23 H 0.3259 0.2604 0.4904
C12_23 C 0.4058(5) 0.2175(8) 0.49393(7)
C13_21 C 0.4329(5) 0.1813(6) 0.50519(10)
H6_21 H 0.4742 0.1688 0.5025
C14_21 C 0.3984(6) 0.1637(8) 0.52041(9)
H7_21 H 0.4166 0.1395 0.5279
C15_23 C 0.3987(6) 0.2126(8) 0.46522(11)
H8_23 H 0.3409 0.1810 0.4649
C16_23 C 0.5224(7) 0.2797(10) 0.47385(13)
H9_23 H 0.5683 0.3056 0.4806
C17_23 C 0.5241(6) 0.2792(9) 0.45801(12)
H10_23 H 0.5719 0.3032 0.4517
N1_23 N 0.4396(5) 0.2346(7) 0.47852(9)
O1_14 O 0.2131(4) 0.3053(6) 0.56271(7)
O2_23 O 0.1742(4) 0.2236(5) 0.58403(7)
O5_14 O 0.2411(4) 0.3614(6) 0.60396(7)
O6_12 O 0.0238(5) 0.2190(6) 0.58499(6)
O7_14 O 0.0974(4) 0.3664(6) 0.60310(6)
C1_23 C 0.2238(5) 0.9866(7) 0.57106(10)
O4_14 O 0.2359(4) 0.9356(5) 0.56357(6)
C1_24 C 0.0134(7) 0.2372(5) 0.57106(10)
O4_15 O 0.0644(5) 0.3003(3) 0.56357(6)
C2_22 C 0.9333(7) 0.1773(5) 0.56338(9)
C3_22 C 0.8805(7) 0.1007(5) 0.57038(9)
H1_22 H 0.8933 0.0882 0.5804
C4_22 C 0.8098(7) 0.0435(5) 0.56271(10)
C5_22 C 0.7911(8) 0.0597(5) 0.54804(10)
H2_22 H 0.7426 0.0205 0.5430
C6_22 C 0.8448(9) 0.1358(6) 0.54047(12)
C7_22 C 0.9131(8) 0.1925(5) 0.54834(10)
H3_22 H 0.9479 0.2436 0.5435
C9_22 C 0.8176(8) 0.1543(5) 0.52436(7)
C10_22 C 0.7813(6) 0.0909(4) 0.51310(10)
H4_22 H 0.7689 0.0372 0.5157
C11_24 C 0.7638(8) 0.1079(5) 0.49789(9)
H5_24 H 0.7396 0.0655 0.4904
C12_24 C 0.7825(8) 0.1883(6) 0.49393(7)
C13_22 C 0.8187(6) 0.2516(4) 0.50519(10)
H6_22 H 0.8312 0.3054 0.5025
C14_22 C 0.8363(8) 0.2347(5) 0.52041(9)
H7_22 H 0.8605 0.2771 0.5279
C15_24 C 0.7874(8) 0.1861(6) 0.46522(11)
H8_24 H 0.8190 0.1599 0.4649
C16_24 C 0.7203(10) 0.2427(7) 0.47385(13)
H9_24 H 0.6944 0.2627 0.4806
C17_24 C 0.7208(9) 0.2449(7) 0.45801(12)
H10_24 H 0.6968 0.2687 0.4517
N1_24 N 0.7654(7) 0.2050(5) 0.47852(9)
C8_24 C 0.7552(7) 0.9603(5) 0.57028(10)
O1_15 O 0.6947(6) 0.9078(4) 0.56271(7)
O2_24 O 0.7764(5) 0.9506(3) 0.58403(7)
O5_15 O 0.6386(6) 0.8798(4) 0.60396(7)
O7_15 O 0.6336(6) 0.7311(5) 0.60310(6)
C1_25 C 0.1095(5) 0.4295(5) 0.59561(10)
C2_23 C 0.0893(5) 0.4894(5) 0.60329(9)
C3_23 C 0.1131(5) 0.5660(5) 0.59629(9)
H1_23 H 0.1384 0.5785 0.5863
C4_23 C 0.0996(5) 0.6232(5) 0.60396(10)
C5_23 C 0.0647(6) 0.6070(5) 0.61863(10)
H2_23 H 0.0554 0.6462 0.6237
C6_23 C 0.0423(7) 0.5309(6) 0.62620(12)
C7_23 C 0.0539(6) 0.4742(5) 0.61833(10)
H3_23 H 0.0376 0.4231 0.6232
C8_25 C 0.1282(5) 0.7064(5) 0.59639(10)
C10_23 C 0.0237(5) 0.5758(4) 0.65357(10)
H4_23 H 0.0650 0.6295 0.6510
H5_25 H 0.0074 0.6012 0.6763
O2_25 O 0.1591(4) 0.7161(3) 0.58264(7)
O3_13 O 0.1381(4) 0.4477(3) 0.58168(6)
O6_13 O 0.3095(5) 0.8619(4) 0.58168(6)
C9_23 C 0.9966(6) 0.5124(5) 0.64231(7)
C11_25 C 0.9892(6) 0.5588(5) 0.66878(9)
C12_25 C 0.9275(5) 0.4784(6) 0.67274(7)
C13_23 C 0.9004(5) 0.4151(4) 0.66148(10)
H6_23 H 0.8591 0.3613 0.6642
C14_23 C 0.9349(6) 0.4320(5) 0.64626(9)
H7_23 H 0.9167 0.3896 0.6388
C15_25 C 0.9346(6) 0.4806(6) 0.70145(11)
H8_25 H 0.9924 0.5068 0.7018
C16_25 C 0.8109(7) 0.4240(7) 0.69282(13)
H9_25 H 0.7650 0.4040 0.6861
C17_25 C 0.8092(6) 0.4218(7) 0.70866(12)
H10_25 H 0.7614 0.3980 0.7150
N1_25 N 0.8937(5) 0.4617(5) 0.68815(9)
C1_26 C 0.5705(5) 0.6801(7) 0.59561(10)
C2_24 C 0.5106(5) 0.6000(7) 0.60329(9)
C3_24 C 0.4340(5) 0.5472(7) 0.59629(9)
H1_24 H 0.4215 0.5600 0.5863
C4_24 C 0.3768(5) 0.4765(7) 0.60396(10)
C5_24 C 0.3930(5) 0.4578(8) 0.61863(10)
H2_24 H 0.3538 0.4093 0.6237
C6_24 C 0.4691(6) 0.5115(9) 0.62620(12)
C7_24 C 0.5258(5) 0.5798(8) 0.61833(10)
H3_24 H 0.5769 0.6146 0.6232
C8_26 C 0.2936(5) 0.4219(7) 0.59639(10)
C9_24 C 0.4876(5) 0.4843(8) 0.64231(7)
C10_24 C 0.4242(4) 0.4480(6) 0.65357(10)
H4_24 H 0.3705 0.4356 0.6510
C11_26 C 0.4412(5) 0.4305(8) 0.66878(9)
H5_26 H 0.3988 0.4063 0.6763
C12_26 C 0.5216(6) 0.4492(8) 0.67274(7)
C13_24 C 0.5849(4) 0.4854(6) 0.66148(10)
H6_24 H 0.6387 0.4979 0.6642
C14_24 C 0.5680(5) 0.5030(8) 0.64626(9)
H7_24 H 0.6104 0.5272 0.6388
C15_26 C 0.5194(6) 0.4541(8) 0.70145(11)
H8_26 H 0.4932 0.4857 0.7018
C16_26 C 0.5760(7) 0.3870(10) 0.69282(13)
H9_26 H 0.5960 0.3611 0.6861
C17_26 C 0.5782(7) 0.3875(9) 0.70866(12)
H10_26 H 0.6020 0.3635 0.7150
N1_26 N 0.5383(5) 0.4321(7) 0.68815(9)
O2_26 O 0.2839(3) 0.4431(5) 0.58264(7)
O3_14 O 0.5523(3) 0.6905(5) 0.58168(6)
C9_25 C 0.5157(8) 0.0034(6) 0.64231(7)
C11_27 C 0.5695(8) 0.0108(6) 0.66878(9)
C12_27 C 0.5508(8) 0.0725(5) 0.67274(7)
C13_25 C 0.5146(6) 0.0996(5) 0.66148(10)
H6_25 H 0.5021 0.1409 0.6642
C14_25 C 0.4970(8) 0.0651(6) 0.64626(9)
H7_25 H 0.4728 0.0833 0.6388
C15_27 C 0.5459(8) 0.0654(6) 0.70145(11)
H8_27 H 0.5143 0.0076 0.7018
C16_27 C 0.6130(10) 0.1891(7) 0.69282(13)
H9_27 H 0.6389 0.2350 0.6861
C17_27 C 0.6125(9) 0.1908(6) 0.70866(12)
H10_27 H 0.6365 0.2386 0.7150
N1_27 N 0.5679(7) 0.1063(5) 0.68815(9)
C1_27 C 0.3199(7) 0.8905(5) 0.59561(10)
C2_25 C 0.4000(7) 0.9107(5) 0.60329(9)
C3_25 C 0.4528(7) 0.8869(5) 0.59629(9)
H1_25 H 0.4400 0.8616 0.5863
C4_25 C 0.5235(7) 0.9004(5) 0.60396(10)
C5_25 C 0.5422(8) 0.9353(6) 0.61863(10)
H2_25 H 0.5907 0.9446 0.6237
C6_25 C 0.4885(9) 0.9577(7) 0.62620(12)
C7_25 C 0.4202(8) 0.9461(6) 0.61833(10)
H3_25 H 0.3854 0.9624 0.6232
C8_27 C 0.5781(7) 0.8718(5) 0.59639(10)
C10_25 C 0.5520(6) 0.9763(5) 0.65357(10)
H4_25 H 0.5644 0.9350 0.6510
H5_27 H 0.5937 0.9926 0.6763
O2_27 O 0.5569(5) 0.8409(4) 0.58264(7)
C1_28 C 0.0961(5) 0.4429(5) 0.23773(10)
C2_26 C 0.1560(5) 0.4227(5) 0.23005(9)
C3_26 C 0.2326(5) 0.4465(5) 0.23705(9)
H1_26 H 0.2451 0.4718 0.2471
C4_26 C 0.2898(5) 0.4330(5) 0.22938(10)
C5_26 C 0.2736(5) 0.3981(6) 0.21471(10)
H2_26 H 0.3128 0.3888 0.2097
C6_26 C 0.1975(6) 0.3757(7) 0.20714(12)
C7_26 C 0.1408(5) 0.3873(6) 0.21501(10)
H3_26 H 0.0897 0.3710 0.2102
C8_28 C 0.3730(5) 0.4616(5) 0.23695(10)
C9_26 C 0.1790(5) 0.3300(6) 0.19103(7)
C10_26 C 0.2424(4) 0.3571(5) 0.17977(10)
H4_26 H 0.2961 0.3984 0.1824
C11_28 C 0.2254(5) 0.3226(6) 0.16456(9)
H5_28 H 0.2678 0.3408 0.1571
C12_28 C 0.1450(6) 0.2609(5) 0.16060(7)
C13_26 C 0.0817(4) 0.2338(5) 0.17186(10)
H6_26 H 0.0279 0.1925 0.1692
C14_26 C 0.0986(5) 0.2683(6) 0.18708(9)
H7_26 H 0.0562 0.2501 0.1946
C15_28 C 0.1472(6) 0.2680(6) 0.13189(11)
H8_28 H 0.1734 0.3258 0.1316
C16_28 C 0.0906(7) 0.1443(7) 0.14052(13)
H9_28 H 0.0706 0.0984 0.1473
C17_28 C 0.0884(7) 0.1426(6) 0.12468(12)
H10_28 H 0.0646 0.0948 0.1184
N1_28 N 0.1283(5) 0.2271(5) 0.14519(9)
O1_16 O 0.4255(4) 0.4536(4) 0.22938(7)
O2_28 O 0.3827(3) 0.4925(4) 0.25070(7)
O3_15 O 0.1143(3) 0.4715(4) 0.25166(6)
O4_16 O 0.0330(3) 0.4308(4) 0.23024(6)
O5_16 O 0.4536(4) 0.4255(4) 0.27062(7)
O6_14 O 0.5285(4) 0.6429(5) 0.25166(6)
O7_16 O 0.6023(5) 0.5692(4) 0.26976(6)
O5_17 O 0.5745(4) 0.0280(6) 0.27062(7)
O7_17 O 0.4308(4) 0.0330(6) 0.26976(6)
C1_29 C 0.5571(5) 0.6533(7) 0.23773(10)
C2_27 C 0.5773(5) 0.7334(7) 0.23005(9)
C3_27 C 0.5535(5) 0.7862(7) 0.23705(9)
H1_27 H 0.5282 0.7734 0.2471
C4_27 C 0.5670(5) 0.8569(7) 0.22938(10)
C5_27 C 0.6019(6) 0.8756(8) 0.21471(10)
H2_27 H 0.6112 0.9241 0.2097
C6_27 C 0.6243(7) 0.8219(9) 0.20714(12)
C7_27 C 0.6127(6) 0.7536(8) 0.21501(10)
H3_27 H 0.6290 0.7188 0.2102
C8_29 C 0.5384(5) 0.9115(7) 0.23695(10)
C9_27 C 0.6700(6) 0.8491(8) 0.19103(7)
C10_27 C 0.6429(5) 0.8854(6) 0.17977(10)
H4_27 H 0.6016 0.8978 0.1824
C11_29 C 0.6774(6) 0.9029(8) 0.16456(9)
H5_29 H 0.6592 0.9271 0.1571
C12_29 C 0.7391(5) 0.8842(8) 0.16060(7)
C13_27 C 0.7662(5) 0.8480(6) 0.17186(10)
H6_27 H 0.8075 0.8355 0.1692
C14_27 C 0.7317(6) 0.8304(8) 0.18708(9)
H7_27 H 0.7499 0.8062 0.1946
C15_29 C 0.7320(6) 0.8793(8) 0.13189(11)
H8_29 H 0.6742 0.8477 0.1316
C16_29 C 0.8557(7) 0.9464(10) 0.14052(13)
H9_29 H 0.9016 0.9723 0.1473
C17_29 C 0.8574(6) 0.9459(9) 0.12468(12)
H10_29 H 0.9052 0.9699 0.1184
N1_29 N 0.7729(5) 0.9013(7) 0.14519(9)
O1_17 O 0.5464(4) 0.9720(6) 0.22938(7)
O2_29 O 0.5075(4) 0.8903(5) 0.25070(7)
O4_17 O 0.5692(4) 0.6023(5) 0.23024(6)
O6_15 O 0.3571(5) 0.8857(6) 0.25166(6)
C1_30 C 0.3467(7) 0.9039(5) 0.23773(10)
C2_28 C 0.2666(7) 0.8440(5) 0.23005(9)
C3_28 C 0.2138(7) 0.7674(5) 0.23705(9)
H1_28 H 0.2266 0.7549 0.2471
C4_28 C 0.1431(7) 0.7102(5) 0.22938(10)
C5_28 C 0.1244(8) 0.7264(5) 0.21471(10)
H2_28 H 0.0759 0.6872 0.2097
C6_28 C 0.1781(9) 0.8025(6) 0.20714(12)
C7_28 C 0.2464(8) 0.8592(5) 0.21501(10)
H3_28 H 0.2812 0.9103 0.2102
C8_30 C 0.0885(7) 0.6270(5) 0.23695(10)
C9_28 C 0.1509(8) 0.8210(5) 0.19103(7)
C10_28 C 0.1146(6) 0.7576(4) 0.17977(10)
H4_28 H 0.1022 0.7039 0.1824
C11_30 C 0.0971(8) 0.7746(5) 0.16456(9)
H5_30 H 0.0729 0.7322 0.1571
C12_30 C 0.1158(8) 0.8550(6) 0.16060(7)
C13_28 C 0.1520(6) 0.9183(4) 0.17186(10)
H6_28 H 0.1645 0.9721 0.1692
C14_28 C 0.1696(8) 0.9014(5) 0.18708(9)
H7_28 H 0.1938 0.9438 0.1946
C15_30 C 0.1207(8) 0.8528(6) 0.13189(11)
H8_30 H 0.1523 0.8266 0.1316
C16_30 C 0.0536(10) 0.9094(7) 0.14052(13)
H9_30 H 0.0277 0.9294 0.1473
C17_30 C 0.0541(9) 0.9116(7) 0.12468(12)
H10_30 H 0.0301 0.9354 0.1184
N1_30 N 0.0987(7) 0.8717(5) 0.14519(9)
O1_18 O 0.0280(6) 0.5745(4) 0.22938(7)
O2_30 O 0.1097(5) 0.6173(3) 0.25070(7)
O4_18 O 0.3977(5) 0.9670(3) 0.23024(6)
O5_18 O 0.9720(6) 0.5464(4) 0.27062(7)
O7_18 O 0.9670(6) 0.3977(5) 0.26976(6)
C1_31 C 0.4429(5) 0.0961(5) 0.26227(10)
C2_29 C 0.4227(5) 0.1560(5) 0.26995(9)
C3_29 C 0.4465(5) 0.2326(5) 0.26295(9)
H1_29 H 0.4718 0.2451 0.2529
C4_29 C 0.4330(5) 0.2898(5) 0.27062(10)
C5_29 C 0.3981(6) 0.2736(5) 0.28529(10)
H2_29 H 0.3888 0.3128 0.2903
C6_29 C 0.3757(7) 0.1975(6) 0.29286(12)
C7_29 C 0.3873(6) 0.1408(5) 0.28499(10)
H3_29 H 0.3710 0.0897 0.2898
C8_31 C 0.4616(5) 0.3730(5) 0.26305(10)
C9_29 C 0.3300(6) 0.1790(5) 0.30897(7)
C10_29 C 0.3571(5) 0.2424(4) 0.32023(10)
H4_29 H 0.3984 0.2961 0.3176
C11_31 C 0.3226(6) 0.2254(5) 0.33544(9)
H5_31 H 0.3408 0.2678 0.3429
C12_31 C 0.2609(5) 0.1450(6) 0.33940(7)
C13_29 C 0.2338(5) 0.0817(4) 0.32814(10)
H6_29 H 0.1925 0.0279 0.3308
C14_29 C 0.2683(6) 0.0986(5) 0.31292(9)
H7_29 H 0.2501 0.0562 0.3054
C15_31 C 0.2680(6) 0.1472(6) 0.36811(11)
H8_31 H 0.3258 0.1734 0.3684
C16_31 C 0.1443(7) 0.0906(7) 0.35948(13)
H9_31 H 0.0984 0.0706 0.3527
C17_31 C 0.1426(6) 0.0884(7) 0.37532(12)
H10_31 H 0.0948 0.0646 0.3816
N1_31 N 0.2271(5) 0.1283(5) 0.35481(9)
O2_31 O 0.4925(4) 0.3827(3) 0.24930(7)
O3_16 O 0.4715(4) 0.1143(3) 0.24834(6)
O6_16 O 0.6429(5) 0.5285(4) 0.24834(6)
C1_32 C 0.9039(5) 0.3467(7) 0.26227(10)
C2_30 C 0.8440(5) 0.2666(7) 0.26995(9)
C3_30 C 0.7674(5) 0.2138(7) 0.26295(9)
H1_30 H 0.7549 0.2266 0.2529
C4_30 C 0.7102(5) 0.1431(7) 0.27062(10)
C5_30 C 0.7264(5) 0.1244(8) 0.28529(10)
H2_30 H 0.6872 0.0759 0.2903
C6_30 C 0.8025(6) 0.1781(9) 0.29286(12)
C7_30 C 0.8592(5) 0.2464(8) 0.28499(10)
H3_30 H 0.9103 0.2812 0.2898
C8_32 C 0.6270(5) 0.0885(7) 0.26305(10)
C9_30 C 0.8210(5) 0.1509(8) 0.30897(7)
C10_30 C 0.7576(4) 0.1146(6) 0.32023(10)
H4_30 H 0.7039 0.1022 0.3176
C11_32 C 0.7746(5) 0.0971(8) 0.33544(9)
H5_32 H 0.7322 0.0729 0.3429
C12_32 C 0.8550(6) 0.1158(8) 0.33940(7)
C13_30 C 0.9183(4) 0.1520(6) 0.32814(10)
H6_30 H 0.9721 0.1645 0.3308
C14_30 C 0.9014(5) 0.1696(8) 0.31292(9)
H7_30 H 0.9438 0.1938 0.3054
C15_32 C 0.8528(6) 0.1207(8) 0.36811(11)
H8_32 H 0.8266 0.1523 0.3684
C16_32 C 0.9094(7) 0.0536(10) 0.35948(13)
H9_32 H 0.9294 0.0277 0.3527
C17_32 C 0.9116(7) 0.0541(9) 0.37532(12)
H10_32 H 0.9354 0.0301 0.3816
N1_32 N 0.8717(5) 0.0987(7) 0.35481(9)
O2_32 O 0.6173(3) 0.1097(5) 0.24930(7)
O3_17 O 0.8857(3) 0.3571(5) 0.24834(6)
C1_33 C 0.6533(7) 0.5571(5) 0.26227(10)
C2_31 C 0.7334(7) 0.5773(5) 0.26995(9)
C3_31 C 0.7862(7) 0.5535(5) 0.26295(9)
H1_31 H 0.7734 0.5282 0.2529
C4_31 C 0.8569(7) 0.5670(5) 0.27062(10)
C5_31 C 0.8756(8) 0.6019(6) 0.28529(10)
H2_31 H 0.9241 0.6112 0.2903
C6_31 C 0.8219(9) 0.6243(7) 0.29286(12)
C7_31 C 0.7536(8) 0.6127(6) 0.28499(10)
H3_31 H 0.7188 0.6290 0.2898
C8_33 C 0.9115(7) 0.5384(5) 0.26305(10)
C9_31 C 0.8491(8) 0.6700(6) 0.30897(7)
C10_31 C 0.8854(6) 0.6429(5) 0.32023(10)
H4_31 H 0.8978 0.6016 0.3176
C11_33 C 0.9029(8) 0.6774(6) 0.33544(9)
H5_33 H 0.9271 0.6592 0.3429
C12_33 C 0.8842(8) 0.7391(5) 0.33940(7)
C13_31 C 0.8480(6) 0.7662(5) 0.32814(10)
H6_31 H 0.8355 0.8075 0.3308
C14_31 C 0.8304(8) 0.7317(6) 0.31292(9)
H7_31 H 0.8062 0.7499 0.3054
C15_33 C 0.8793(8) 0.7320(6) 0.36811(11)
H8_33 H 0.8477 0.6742 0.3684
C16_33 C 0.9464(10) 0.8557(7) 0.35948(13)
H9_33 H 0.9723 0.9016 0.3527
C17_33 C 0.9459(9) 0.8574(6) 0.37532(12)
H10_33 H 0.9699 0.9052 0.3816
N1_33 N 0.9013(7) 0.7729(5) 0.35481(9)
O2_33 O 0.8903(5) 0.5075(4) 0.24930(7)
C1_34 C 0.4295(5) 0.1095(5) 0.90439(10)
C2_32 C 0.4894(5) 0.0893(5) 0.89671(9)
C3_32 C 0.5660(5) 0.1131(5) 0.90371(9)
H1_32 H 0.5785 0.1384 0.9137
C4_32 C 0.6232(5) 0.0996(5) 0.89604(10)
C5_32 C 0.6070(5) 0.0647(6) 0.88137(10)
H2_32 H 0.6462 0.0554 0.8763
C6_32 C 0.5309(6) 0.0423(7) 0.87380(12)
C7_32 C 0.4742(5) 0.0539(6) 0.88167(10)
H3_32 H 0.4231 0.0376 0.8768
C8_34 C 0.7064(5) 0.1282(5) 0.90361(10)
C10_32 C 0.5758(4) 0.0237(5) 0.84643(10)
H4_32 H 0.6295 0.0650 0.8490
H5_34 H 0.6012 0.0074 0.8237
O2_34 O 0.7161(3) 0.1591(4) 0.91736(7)
O3_18 O 0.4477(3) 0.1381(4) 0.91832(6)
O6_17 O 0.8619(4) 0.3095(5) 0.91832(6)
C9_32 C 0.5124(5) 0.9966(6) 0.85769(7)
C11_34 C 0.5588(5) 0.9892(6) 0.83122(9)
C12_34 C 0.4784(6) 0.9275(5) 0.82726(7)
C13_32 C 0.4151(4) 0.9004(5) 0.83852(10)
H6_32 H 0.3613 0.8591 0.8358
C14_32 C 0.4320(5) 0.9349(6) 0.85374(9)
H7_32 H 0.3896 0.9167 0.8612
C15_34 C 0.4806(6) 0.9346(6) 0.79855(11)
H8_34 H 0.5068 0.9924 0.7982
C16_34 C 0.4240(7) 0.8109(7) 0.80718(13)
H9_34 H 0.4040 0.7650 0.8139
C17_34 C 0.4218(7) 0.8092(6) 0.79134(12)
H10_34 H 0.3980 0.7614 0.7850
N1_34 N 0.4617(5) 0.8937(5) 0.81185(9)
C9_33 C 0.0034(6) 0.5157(8) 0.85769(7)
C11_35 C 0.0108(6) 0.5695(8) 0.83122(9)
C12_35 C 0.0725(5) 0.5508(8) 0.82726(7)
C13_33 C 0.0996(5) 0.5146(6) 0.83852(10)
H6_33 H 0.1409 0.5021 0.8358
C14_33 C 0.0651(6) 0.4970(8) 0.85374(9)
H7_33 H 0.0833 0.4728 0.8612
C15_35 C 0.0654(6) 0.5459(8) 0.79855(11)
H8_35 H 0.0076 0.5143 0.7982
C16_35 C 0.1891(7) 0.6130(10) 0.80718(13)
H9_35 H 0.2350 0.6389 0.8139
C17_35 C 0.1908(6) 0.6125(9) 0.79134(12)
H10_35 H 0.2386 0.6365 0.7850
N1_35 N 0.1063(5) 0.5679(7) 0.81185(9)
C1_35 C 0.8905(5) 0.3199(7) 0.90439(10)
C2_33 C 0.9107(5) 0.4000(7) 0.89671(9)
C3_33 C 0.8869(5) 0.4528(7) 0.90371(9)
H1_33 H 0.8616 0.4400 0.9137
C4_33 C 0.9004(5) 0.5235(7) 0.89604(10)
C5_33 C 0.9353(6) 0.5422(8) 0.88137(10)
H2_33 H 0.9446 0.5907 0.8763
C6_33 C 0.9577(7) 0.4885(9) 0.87380(12)
C7_33 C 0.9461(6) 0.4202(8) 0.88167(10)
H3_33 H 0.9624 0.3854 0.8768
C8_35 C 0.8718(5) 0.5781(7) 0.90361(10)
C10_33 C 0.9763(5) 0.5520(6) 0.84643(10)
H4_33 H 0.9350 0.5644 0.8490
H5_35 H 0.9926 0.5937 0.8237
O2_35 O 0.8409(4) 0.5569(5) 0.91736(7)
O6_18 O 0.6905(5) 0.5523(6) 0.91832(6)
C1_36 C 0.6801(7) 0.5705(5) 0.90439(10)
C2_34 C 0.6000(7) 0.5106(5) 0.89671(9)
C3_34 C 0.5472(7) 0.4340(5) 0.90371(9)
H1_34 H 0.5600 0.4215 0.9137
C4_34 C 0.4765(7) 0.3768(5) 0.89604(10)
C5_34 C 0.4578(8) 0.3930(5) 0.88137(10)
H2_34 H 0.4093 0.3538 0.8763
C6_34 C 0.5115(9) 0.4691(6) 0.87380(12)
C7_34 C 0.5798(8) 0.5258(5) 0.88167(10)
H3_34 H 0.6146 0.5769 0.8768
C8_36 C 0.4219(7) 0.2936(5) 0.90361(10)
C9_34 C 0.4843(8) 0.4876(5) 0.85769(7)
C10_34 C 0.4480(6) 0.4242(4) 0.84643(10)
H4_34 H 0.4356 0.3705 0.8490
C11_36 C 0.4305(8) 0.4412(5) 0.83122(9)
H5_36 H 0.4063 0.3988 0.8237
C12_36 C 0.4492(8) 0.5216(6) 0.82726(7)
C13_34 C 0.4854(6) 0.5849(4) 0.83852(10)
H6_34 H 0.4979 0.6387 0.8358
C14_34 C 0.5030(8) 0.5680(5) 0.85374(9)
H7_34 H 0.5272 0.6104 0.8612
C15_36 C 0.4541(8) 0.5194(6) 0.79855(11)
H8_36 H 0.4857 0.4932 0.7982
C16_36 C 0.3870(10) 0.5760(7) 0.80718(13)
H9_36 H 0.3611 0.5960 0.8139
C17_36 C 0.3875(9) 0.5782(7) 0.79134(12)
H10_36 H 0.3635 0.6020 0.7850
N1_36 N 0.4321(7) 0.5383(5) 0.81185(9)
O2_36 O 0.4431(5) 0.2839(3) 0.91736(7)
C2_35 C 0.8227(5) 0.0667(7) 0.06338(9)
C3_35 C 0.8993(5) 0.1195(7) 0.07038(9)
H1_35 H 0.9118 0.1067 0.0804
C4_35 C 0.9565(5) 0.1902(7) 0.06271(10)
C5_35 C 0.9403(5) 0.2089(8) 0.04804(10)
H2_35 H 0.9795 0.2574 0.0430
C6_35 C 0.8642(6) 0.1552(9) 0.04047(12)
C7_35 C 0.8075(5) 0.0869(8) 0.04834(10)
H3_35 H 0.7564 0.0521 0.0435
C9_35 C 0.8457(5) 0.1824(8) 0.02436(7)
C10_35 C 0.9091(4) 0.2187(6) 0.01310(10)
H4_35 H 0.9628 0.2311 0.0157
C13_35 C 0.7484(4) 0.1813(6) 0.00519(10)
H6_35 H 0.6946 0.1688 0.0025
C14_35 C 0.7653(5) 0.1637(8) 0.02041(9)
H7_35 H 0.7229 0.1395 0.0279
C2_36 C 0.1773(5) 0.9333(7) 0.93662(9)
C3_36 C 0.1007(5) 0.8805(7) 0.92962(9)
H1_36 H 0.0882 0.8933 0.9196
C4_36 C 0.0435(5) 0.8098(7) 0.93729(10)
C5_36 C 0.0597(5) 0.7911(8) 0.95196(10)
H2_36 H 0.0205 0.7426 0.9570
C6_36 C 0.1358(6) 0.8448(9) 0.95953(12)
C7_36 C 0.1925(5) 0.9131(8) 0.95166(10)
H3_36 H 0.2436 0.9479 0.9565
C9_36 C 0.1543(5) 0.8176(8) 0.97564(7)
C10_36 C 0.0909(4) 0.7813(6) 0.98690(10)
H4_36 H 0.0372 0.7689 0.9843
C13_36 C 0.2516(4) 0.8187(6) 0.99481(10)
H6_36 H 0.3054 0.8312 0.9975
C14_36 C 0.2347(5) 0.8363(8) 0.97959(9)
H7_36 H 0.2771 0.8605 0.9721
loop_
_geom_bond_atom_site_label_1
_geom_bond_atom_site_label_2
_geom_bond_site_symmetry_1
_geom_bond_site_symmetry_2
C1 C2 1_555 1_555
C2 C3 1_555 1_555
C3 H1 1_555 1_555
C4 C3 1_555 1_555
C5 C4 1_555 1_555
H2 C5 1_555 1_555
C6 C5 1_555 1_555
C7 C2 1_555 1_555
H3 C7 1_555 1_555
C9 C6 1_555 1_555
C10 C9 1_555 1_555
H4 C10 1_555 1_555
H6 C13 1_555 1_555
C14 C9 1_555 1_555
H7 C14 1_555 1_555
O3 C1 1_555 1_555
O4 C1 1_555 1_555
Cu2 O3 1_555 1_555
Cu4 O4 1_555 1_555
C6 C7 1_555 1_555
C13 C14 1_555 1_555
Cu2 Cu4 1_555 1_555
H5 C11 1_555 1_555
C12 C11 1_555 1_555
C15 H8 1_555 1_555
C16 H9 1_555 1_555
C17 C16 1_555 1_555
H10 C17 1_555 1_555
N1 C12 1_555 1_555
N2 C15 1_555 1_555
Cu5 N2 1_555 1_555
C15 N1 1_555 1_555
C16 N1 1_555 1_555
C17 N2 1_555 1_555
Cu1 O2 1_555 1_555
O1 C8 1_555 1_555
O2 C8 1_555 1_555
Cu3 Cu1 1_555 1_555
N3 Cu1 1_555 1_555
O5 Cu1 1_555 1_555
O6 Cu1 1_555 1_555
O7 Cu1 1_555 1_555
O1 Cu3 1_555 1_555
Cu2 O2_2 1_555 1_555
O1_2 C8_2 1_555 1_555
O2_2 C8_2 1_555 1_555
N3_2 Cu2 1_555 1_555
O5_2 Cu2 1_555 1_555
O7_2 Cu2 1_555 1_555
O1_2 Cu4 1_555 1_555
H5_2 C11_2 1_555 1_555
C12_2 C11_2 1_555 1_555
C15_2 H8_2 1_555 1_555
C16_2 H9_2 1_555 1_555
C17_2 C16_2 1_555 1_555
H10_2 C17_2 1_555 1_555
N1_2 C12_2 1_555 1_555
N2_2 C15_2 1_555 1_555
Cu5_2 N2_2 1_555 1_555
C15_2 N1_2 1_555 1_555
C16_2 N1_2 1_555 1_555
C17_2 N2_2 1_555 1_555
O3_2 C1_2 1_555 1_555
O4_2 C1_2 1_555 1_555
Cu2_2 O3_2 1_555 1_555
Cu4_2 O4_2 1_555 1_555
Cu2_2 Cu4_2 1_555 1_555
O6 C1_3 1_555 1_555
O4_3 C1_3 1_555 1_555
Cu3 O4_3 1_555 1_555
C2_2 C3_2 1_555 1_555
C3_2 H1_2 1_555 1_555
C4_2 C3_2 1_555 1_555
C5_2 C4_2 1_555 1_555
H2_2 C5_2 1_555 1_555
C6_2 C5_2 1_555 1_555
C7_2 C2_2 1_555 1_555
H3_2 C7_2 1_555 1_555
C8_3 C4_2 1_555 1_555
C9_2 C6_2 1_555 1_555
C10_2 C9_2 1_555 1_555
H4_2 C10_2 1_555 1_555
H6_2 C13_2 1_555 1_555
C14_2 C9_2 1_555 1_555
H7_2 C14_2 1_555 1_555
Cu2_2 O2_3 1_555 1_555
O1_3 C8_3 1_555 1_555
O2_3 C8_3 1_555 1_555
N3_3 Cu2_2 1_555 1_555
O5_3 Cu2_2 1_555 1_555
O7_3 Cu2_2 1_555 1_555
C6_2 C7_2 1_555 1_555
C13_2 C14_2 1_555 1_555
O1_3 Cu4_2 1_555 1_555
H5_3 C11_3 1_555 1_555
C12_3 C11_3 1_555 1_555
C15_3 H8_3 1_555 1_555
C16_3 H9_3 1_555 1_555
C17_3 C16_3 1_555 1_555
H10_3 C17_3 1_555 1_555
N1_3 C12_3 1_555 1_555
N2_3 C15_3 1_555 1_555
Cu5_3 N2_3 1_555 1_555
C15_3 N1_3 1_555 1_555
C16_3 N1_3 1_555 1_555
C17_3 N2_3 1_555 1_555
C1_4 C2_3 1_555 1_555
C2_3 C3_3 1_555 1_555
C3_3 H1_3 1_555 1_555
C4_3 C3_3 1_555 1_555
C5_3 C4_3 1_555 1_555
H2_3 C5_3 1_555 1_555
C6_3 C5_3 1_555 1_555
C7_3 C2_3 1_555 1_555
H3_3 C7_3 1_555 1_555
C9_3 C6_3 1_555 1_555
C10_3 C9_3 1_555 1_555
H4_3 C10_3 1_555 1_555
C11_4 C10_3 1_555 1_555
H5_4 C11_4 1_555 1_555
C12_4 C11_4 1_555 1_555
C13_3 C12_4 1_555 1_555
H6_3 C13_3 1_555 1_555
C14_3 C9_3 1_555 1_555
H7_3 C14_3 1_555 1_555
C15_4 H8_4 1_555 1_555
C16_4 H9_4 1_555 1_555
C17_4 C16_4 1_555 1_555
H10_4 C17_4 1_555 1_555
N1_4 C12_4 1_555 1_555
N2_4 C15_4 1_555 1_555
O3_3 C1_4 1_555 1_555
O4_4 C1_4 1_555 1_555
Cu2_3 O3_3 1_555 1_555
Cu4_3 O4_4 1_555 1_555
Cu5_4 N2_4 1_555 1_555
C6_3 C7_3 1_555 1_555
C13_3 C14_3 1_555 1_555
C15_4 N1_4 1_555 1_555
C16_4 N1_4 1_555 1_555
C17_4 N2_4 1_555 1_555
Cu2_3 Cu4_3 1_555 1_555
Cu1_2 O2_4 1_555 1_555
O1_4 C8_4 1_555 1_555
O2_4 C8_4 1_555 1_555
Cu3_2 Cu1_2 1_555 1_555
N3_4 Cu1_2 1_555 1_555
O5_4 Cu1_2 1_555 1_555
O6_2 Cu1_2 1_555 1_555
O7_4 Cu1_2 1_555 1_555
O1_4 Cu3_2 1_555 1_555
O6_2 C1_5 1_555 1_555
O4_5 C1_5 1_555 1_555
Cu3_2 O4_5 1_555 1_555
C2_4 C3_4 1_555 1_555
C3_4 H1_4 1_555 1_555
C4_4 C3_4 1_555 1_555
C5_4 C4_4 1_555 1_555
H2_4 C5_4 1_555 1_555
C6_4 C5_4 1_555 1_555
C7_4 C2_4 1_555 1_555
H3_4 C7_4 1_555 1_555
C8_5 C4_4 1_555 1_555
C9_4 C6_4 1_555 1_555
C10_4 C9_4 1_555 1_555
H4_4 C10_4 1_555 1_555
C11_5 C10_4 1_555 1_555
H5_5 C11_5 1_555 1_555
C12_5 C11_5 1_555 1_555
C13_4 C12_5 1_555 1_555
H6_4 C13_4 1_555 1_555
C14_4 C9_4 1_555 1_555
H7_4 C14_4 1_555 1_555
C15_5 H8_5 1_555 1_555
C16_5 H9_5 1_555 1_555
C17_5 C16_5 1_555 1_555
H10_5 C17_5 1_555 1_555
Cu1_3 O2_5 1_555 1_555
N1_5 C12_5 1_555 1_555
N2_5 C15_5 1_555 1_555
O1_5 C8_5 1_555 1_555
O2_5 C8_5 1_555 1_555
Cu3_3 Cu1_3 1_555 1_555
Cu5_5 N2_5 1_555 1_555
N3_5 Cu1_3 1_555 1_555
O5_5 Cu1_3 1_555 1_555
O6_3 Cu1_3 1_555 1_555
O7_5 Cu1_3 1_555 1_555
C6_4 C7_4 1_555 1_555
C13_4 C14_4 1_555 1_555
C15_5 N1_5 1_555 1_555
C16_5 N1_5 1_555 1_555
C17_5 N2_5 1_555 1_555
O1_5 Cu3_3 1_555 1_555
Cu2_3 O2_6 1_555 1_555
O1_6 C8_6 1_555 1_555
O2_6 C8_6 1_555 1_555
N3_6 Cu2_3 1_555 1_555
O5_6 Cu2_3 1_555 1_555
O7_6 Cu2_3 1_555 1_555
O1_6 Cu4_3 1_555 1_555
C2_5 C3_5 1_555 1_555
C3_5 H1_5 1_555 1_555
C4_5 C3_5 1_555 1_555
C5_5 C4_5 1_555 1_555
H2_5 C5_5 1_555 1_555
C6_5 C5_5 1_555 1_555
C7_5 C2_5 1_555 1_555
H3_5 C7_5 1_555 1_555
C9_5 C6_5 1_555 1_555
C10_5 C9_5 1_555 1_555
H4_5 C10_5 1_555 1_555
C11_6 C10_5 1_555 1_555
H5_6 C11_6 1_555 1_555
C12_6 C11_6 1_555 1_555
C13_5 C12_6 1_555 1_555
H6_5 C13_5 1_555 1_555
C14_5 C9_5 1_555 1_555
H7_5 C14_5 1_555 1_555
C15_6 H8_6 1_555 1_555
C16_6 H9_6 1_555 1_555
C17_6 C16_6 1_555 1_555
H10_6 C17_6 1_555 1_555
N1_6 C12_6 1_555 1_555
N2_6 C15_6 1_555 1_555
Cu5_6 N2_6 1_555 1_555
C6_5 C7_5 1_555 1_555
C13_5 C14_5 1_555 1_555
C15_6 N1_6 1_555 1_555
C16_6 N1_6 1_555 1_555
C17_6 N2_6 1_555 1_555
O6_3 C1_6 1_555 1_555
O4_6 C1_6 1_555 1_555
Cu3_3 O4_6 1_555 1_555
C12_7 C11_7 1_555 1_555
C13_6 C12_7 1_555 1_555
H6_6 C13_6 1_555 1_555
C14_6 C9_6 1_555 1_555
H7_6 C14_6 1_555 1_555
C15_7 H8_7 1_555 1_555
C16_7 H9_7 1_555 1_555
C17_7 C16_7 1_555 1_555
H10_7 C17_7 1_555 1_555
N1_7 C12_7 1_555 1_555
N2_7 C15_7 1_555 1_555
Cu5_7 N2_7 1_555 1_555
C13_6 C14_6 1_555 1_555
C15_7 N1_7 1_555 1_555
C16_7 N1_7 1_555 1_555
C17_7 N2_7 1_555 1_555
C1_7 C2_6 1_555 1_555
C2_6 C3_6 1_555 1_555
C3_6 H1_6 1_555 1_555
C4_6 C3_6 1_555 1_555
C5_6 C4_6 1_555 1_555
H2_6 C5_6 1_555 1_555
C6_6 C5_6 1_555 1_555
C7_6 C2_6 1_555 1_555
H3_6 C7_6 1_555 1_555
C8_7 C4_6 1_555 1_555
H4_6 C10_6 1_555 1_555
Cu3_2 O2_7 1_555 1_555
O5_4 C8_7 1_555 1_555
O2_7 C8_7 1_555 1_555
O3_4 C1_7 1_555 1_555
O7_5 C1_7 1_555 1_555
Cu3_3 O3_4 1_555 1_555
N3_7 Cu3_2 1_555 1_555
O6_4 Cu3_2 1_555 1_555
C6_6 C7_6 1_555 1_555
C1_8 C2_7 1_555 1_555
C2_7 C3_7 1_555 1_555
C3_7 H1_7 1_555 1_555
C4_7 C3_7 1_555 1_555
C5_7 C4_7 1_555 1_555
H2_7 C5_7 1_555 1_555
C6_7 C5_7 1_555 1_555
C7_7 C2_7 1_555 1_555
H3_7 C7_7 1_555 1_555
C8_8 C4_7 1_555 1_555
C9_7 C6_7 1_555 1_555
C10_7 C9_7 1_555 1_555
H4_7 C10_7 1_555 1_555
C11_8 C10_7 1_555 1_555
H5_8 C11_8 1_555 1_555
C12_8 C11_8 1_555 1_555
C13_7 C12_8 1_555 1_555
H6_7 C13_7 1_555 1_555
C14_7 C9_7 1_555 1_555
H7_7 C14_7 1_555 1_555
C15_8 H8_8 1_555 1_555
C16_8 H9_8 1_555 1_555
C17_8 C16_8 1_555 1_555
H10_8 C17_8 1_555 1_555
Cu3_3 O2_8 1_555 1_555
N1_8 C12_8 1_555 1_555
N2_8 C15_8 1_555 1_555
O5_5 C8_8 1_555 1_555
O2_8 C8_8 1_555 1_555
O3_5 C1_8 1_555 1_555
O7_6 C1_8 1_555 1_555
Cu4_3 O3_5 1_555 1_555
Cu5_8 N2_8 1_555 1_555
N3_8 Cu3_3 1_555 1_555
C6_7 C7_7 1_555 1_555
C13_7 C14_7 1_555 1_555
C15_8 N1_8 1_555 1_555
C16_8 N1_8 1_555 1_555
C17_8 N2_8 1_555 1_555
C1_9 C2_8 1_555 1_555
C2_8 C3_8 1_555 1_555
C3_8 H1_8 1_555 1_555
C4_8 C3_8 1_555 1_555
C5_8 C4_8 1_555 1_555
H2_8 C5_8 1_555 1_555
C6_8 C5_8 1_555 1_555
C7_8 C2_8 1_555 1_555
H3_8 C7_8 1_555 1_555
C8_9 C4_8 1_555 1_555
H4_8 C10_8 1_555 1_555
Cu4_3 O2_9 1_555 1_555
O5_6 C8_9 1_555 1_555
O2_9 C8_9 1_555 1_555
O6_4 C1_9 1_555 1_555
O7_4 C1_9 1_555 1_555
N3_9 Cu4_3 1_555 1_555
C6_8 C7_8 1_555 1_555
C12_9 C11_9 1_555 1_555
C13_8 C12_9 1_555 1_555
H6_8 C13_8 1_555 1_555
C14_8 C9_8 1_555 1_555
H7_8 C14_8 1_555 1_555
C15_9 H8_9 1_555 1_555
C16_9 H9_9 1_555 1_555
C17_9 C16_9 1_555 1_555
H10_9 C17_9 1_555 1_555
N1_9 C12_9 1_555 1_555
N2_9 C15_9 1_555 1_555
Cu5_9 N2_9 1_555 1_555
C13_8 C14_8 1_555 1_555
C15_9 N1_9 1_555 1_555
C16_9 N1_9 1_555 1_555
C17_9 N2_9 1_555 1_555
C1_10 C2_9 1_555 1_555
C2_9 C3_9 1_555 1_555
C3_9 H1_9 1_555 1_555
C4_9 C3_9 1_555 1_555
C5_9 C4_9 1_555 1_555
H2_9 C5_9 1_555 1_555
C6_9 C5_9 1_555 1_555
C7_9 C2_9 1_555 1_555
H3_9 C7_9 1_555 1_555
C8_10 C4_9 1_555 1_555
C9_9 C6_9 1_555 1_555
C10_9 C9_9 1_555 1_555
H4_9 C10_9 1_555 1_555
C11_10 C10_9 1_555 1_555
H5_10 C11_10 1_555 1_555
C12_10 C11_10 1_555 1_555
C13_9 C12_10 1_555 1_555
H6_9 C13_9 1_555 1_555
C14_9 C9_9 1_555 1_555
H7_9 C14_9 1_555 1_555
C15_10 H8_10 1_555 1_555
C16_10 H9_10 1_555 1_555
C17_10 C16_10 1_555 1_555
H10_10 C17_10 1_555 1_555
Cu1_4 O2_10 1_555 1_555
N1_10 C12_10 1_555 1_555
N2_10 C15_10 1_555 1_555
O1_7 C8_10 1_555 1_555
O2_10 C8_10 1_555 1_555
O3_6 C1_10 1_555 1_555
O4_7 C1_10 1_555 1_555
Cu2_4 O3_6 1_555 1_555
Cu3_4 Cu1_4 1_555 1_555
Cu5_10 N2_10 1_555 1_555
N3_10 Cu1_4 1_555 1_555
O5_7 Cu1_4 1_555 1_555
O6_5 Cu1_4 1_555 1_555
O7_7 Cu1_4 1_555 1_555
C6_9 C7_9 1_555 1_555
C13_9 C14_9 1_555 1_555
C15_10 N1_10 1_555 1_555
C16_10 N1_10 1_555 1_555
C17_10 N2_10 1_555 1_555
O1_7 Cu3_4 1_555 1_555
C1_11 C2_10 1_555 1_555
C2_10 C3_10 1_555 1_555
C3_10 H1_10 1_555 1_555
C4_10 C3_10 1_555 1_555
C5_10 C4_10 1_555 1_555
H2_10 C5_10 1_555 1_555
C6_10 C5_10 1_555 1_555
C7_10 C2_10 1_555 1_555
H3_10 C7_10 1_555 1_555
C8_11 C4_10 1_555 1_555
C9_10 C6_10 1_555 1_555
C10_10 C9_10 1_555 1_555
H4_10 C10_10 1_555 1_555
C11_11 C10_10 1_555 1_555
H5_11 C11_11 1_555 1_555
C12_11 C11_11 1_555 1_555
C13_10 C12_11 1_555 1_555
H6_10 C13_10 1_555 1_555
C14_10 C9_10 1_555 1_555
H7_10 C14_10 1_555 1_555
C15_11 H8_11 1_555 1_555
C16_11 H9_11 1_555 1_555
C17_11 C16_11 1_555 1_555
H10_11 C17_11 1_555 1_555
Cu1_5 O2_11 1_555 1_555
N1_11 C12_11 1_555 1_555
N2_11 C15_11 1_555 1_555
O1_8 C8_11 1_555 1_555
O2_11 C8_11 1_555 1_555
O6_5 C1_11 1_555 1_555
O4_8 C1_11 1_555 1_555
Cu3_4 O4_8 1_555 1_555
Cu5_11 N2_11 1_555 1_555
N3_11 Cu1_5 1_555 1_555
O6_6 Cu1_5 1_555 1_555
C6_10 C7_10 1_555 1_555
C13_10 C14_10 1_555 1_555
C15_11 N1_11 1_555 1_555
C16_11 N1_11 1_555 1_555
C17_11 N2_11 1_555 1_555
C1_12 C2_11 1_555 1_555
C2_11 C3_11 1_555 1_555
C3_11 H1_11 1_555 1_555
C4_11 C3_11 1_555 1_555
C5_11 C4_11 1_555 1_555
H2_11 C5_11 1_555 1_555
C6_11 C5_11 1_555 1_555
C7_11 C2_11 1_555 1_555
H3_11 C7_11 1_555 1_555
C8_12 C4_11 1_555 1_555
C9_11 C6_11 1_555 1_555
C10_11 C9_11 1_555 1_555
H4_11 C10_11 1_555 1_555
C11_12 C10_11 1_555 1_555
H5_12 C11_12 1_555 1_555
C12_12 C11_12 1_555 1_555
C13_11 C12_12 1_555 1_555
H6_11 C13_11 1_555 1_555
C14_11 C9_11 1_555 1_555
H7_11 C14_11 1_555 1_555
C15_12 H8_12 1_555 1_555
C16_12 H9_12 1_555 1_555
C17_12 C16_12 1_555 1_555
H10_12 C17_12 1_555 1_555
Cu2_4 O2_12 1_555 1_555
N1_12 C12_12 1_555 1_555
N2_12 C15_12 1_555 1_555
O1_9 C8_12 1_555 1_555
O2_12 C8_12 1_555 1_555
O6_6 C1_12 1_555 1_555
O4_9 C1_12 1_555 1_555
Cu5_12 N2_12 1_555 1_555
N3_12 Cu2_4 1_555 1_555
C6_11 C7_11 1_555 1_555
C13_11 C14_11 1_555 1_555
C15_12 N1_12 1_555 1_555
C16_12 N1_12 1_555 1_555
C17_12 N2_12 1_555 1_555
C1_13 C2_12 1_555 1_555
C2_12 C3_12 1_555 1_555
C3_12 H1_12 1_555 1_555
C4_12 C3_12 1_555 1_555
C5_12 C4_12 1_555 1_555
H2_12 C5_12 1_555 1_555
C6_12 C5_12 1_555 1_555
C7_12 C2_12 1_555 1_555
H3_12 C7_12 1_555 1_555
C8_13 C4_12 1_555 1_555
C9_12 C6_12 1_555 1_555
C10_12 C9_12 1_555 1_555
H4_12 C10_12 1_555 1_555
C11_13 C10_12 1_555 1_555
H5_13 C11_13 1_555 1_555
C12_13 C11_13 1_555 1_555
C13_12 C12_13 1_555 1_555
H6_12 C13_12 1_555 1_555
C14_12 C9_12 1_555 1_555
H7_12 C14_12 1_555 1_555
C15_13 H8_13 1_555 1_555
C16_13 H9_13 1_555 1_555
C17_13 C16_13 1_555 1_555
H10_13 C17_13 1_555 1_555
Cu3_4 O2_13 1_555 1_555
N1_13 C12_13 1_555 1_555
N2_13 C15_13 1_555 1_555
O5_7 C8_13 1_555 1_555
O2_13 C8_13 1_555 1_555
O3_7 C1_13 1_555 1_555
O7_8 C1_13 1_555 1_555
Cu3_5 O3_7 1_555 1_555
Cu5_13 N2_13 1_555 1_555
N3_13 Cu3_4 1_555 1_555
O6_7 Cu3_4 1_555 1_555
C6_12 C7_12 1_555 1_555
C13_12 C14_12 1_555 1_555
C15_13 N1_13 1_555 1_555
C16_13 N1_13 1_555 1_555
C17_13 N2_13 1_555 1_555
C1_14 C2_13 1_555 1_555
C2_13 C3_13 1_555 1_555
C3_13 H1_13 1_555 1_555
C4_13 C3_13 1_555 1_555
C5_13 C4_13 1_555 1_555
H2_13 C5_13 1_555 1_555
C6_13 C5_13 1_555 1_555
C7_13 C2_13 1_555 1_555
H3_13 C7_13 1_555 1_555
C8_14 C4_13 1_555 1_555
C9_13 C6_13 1_555 1_555
C10_13 C9_13 1_555 1_555
H4_13 C10_13 1_555 1_555
C11_14 C10_13 1_555 1_555
H5_14 C11_14 1_555 1_555
C12_14 C11_14 1_555 1_555
C13_13 C12_14 1_555 1_555
H6_13 C13_13 1_555 1_555
C14_13 C9_13 1_555 1_555
H7_13 C14_13 1_555 1_555
C15_14 H8_14 1_555 1_555
C16_14 H9_14 1_555 1_555
C17_14 C16_14 1_555 1_555
H10_14 C17_14 1_555 1_555
Cu3_5 O2_14 1_555 1_555
N1_14 C12_14 1_555 1_555
N2_14 C15_14 1_555 1_555
O5_8 C8_14 1_555 1_555
O2_14 C8_14 1_555 1_555
O3_8 C1_14 1_555 1_555
O7_9 C1_14 1_555 1_555
Cu4_4 O3_8 1_555 1_555
Cu5_14 N2_14 1_555 1_555
N3_14 Cu3_5 1_555 1_555
C6_13 C7_13 1_555 1_555
C13_13 C14_13 1_555 1_555
C15_14 N1_14 1_555 1_555
C16_14 N1_14 1_555 1_555
C17_14 N2_14 1_555 1_555
C1_15 C2_14 1_555 1_555
C2_14 C3_14 1_555 1_555
C3_14 H1_14 1_555 1_555
C4_14 C3_14 1_555 1_555
C5_14 C4_14 1_555 1_555
H2_14 C5_14 1_555 1_555
C6_14 C5_14 1_555 1_555
C7_14 C2_14 1_555 1_555
H3_14 C7_14 1_555 1_555
C8_15 C4_14 1_555 1_555
C9_14 C6_14 1_555 1_555
C10_14 C9_14 1_555 1_555
H4_14 C10_14 1_555 1_555
C11_15 C10_14 1_555 1_555
H5_15 C11_15 1_555 1_555
C12_15 C11_15 1_555 1_555
C13_14 C12_15 1_555 1_555
H6_14 C13_14 1_555 1_555
C14_14 C9_14 1_555 1_555
H7_14 C14_14 1_555 1_555
C15_15 H8_15 1_555 1_555
C16_15 H9_15 1_555 1_555
C17_15 C16_15 1_555 1_555
H10_15 C17_15 1_555 1_555
Cu4_4 O2_15 1_555 1_555
N1_15 C12_15 1_555 1_555
N2_15 C15_15 1_555 1_555
O5_9 C8_15 1_555 1_555
O2_15 C8_15 1_555 1_555
O6_7 C1_15 1_555 1_555
O7_7 C1_15 1_555 1_555
Cu5_15 N2_15 1_555 1_555
N3_15 Cu4_4 1_555 1_555
C6_14 C7_14 1_555 1_555
C13_14 C14_14 1_555 1_555
C15_15 N1_15 1_555 1_555
C16_15 N1_15 1_555 1_555
C17_15 N2_15 1_555 1_555
C12_16 C11_16 1_555 1_555
C13_15 C12_16 1_555 1_555
H6_15 C13_15 1_555 1_555
C14_15 C9_15 1_555 1_555
H7_15 C14_15 1_555 1_555
C15_16 H8_16 1_555 1_555
C16_16 H9_16 1_555 1_555
C17_16 C16_16 1_555 1_555
H10_16 C17_16 1_555 1_555
N1_16 C12_16 1_555 1_555
N2_16 C15_16 1_555 1_555
Cu5_16 N2_16 1_555 1_555
C13_15 C14_15 1_555 1_555
C15_16 N1_16 1_555 1_555
C16_16 N1_16 1_555 1_555
C17_16 N2_16 1_555 1_555
C1_16 C2_15 1_555 1_555
C2_15 C3_15 1_555 1_555
C3_15 H1_15 1_555 1_555
C4_15 C3_15 1_555 1_555
C5_15 C4_15 1_555 1_555
H2_15 C5_15 1_555 1_555
C6_15 C5_15 1_555 1_555
C7_15 C2_15 1_555 1_555
H3_15 C7_15 1_555 1_555
C8_16 C4_15 1_555 1_555
H4_15 C10_15 1_555 1_555
Cu3 O2_16 1_555 1_555
O5 C8_16 1_555 1_555
O2_16 C8_16 1_555 1_555
O3_9 C1_16 1_555 1_555
O7_3 C1_16 1_555 1_555
Cu4_2 O3_9 1_555 1_555
N3_16 Cu3 1_555 1_555
O6_8 Cu3 1_555 1_555
C6_15 C7_15 1_555 1_555
C1_17 C2_16 1_555 1_555
C2_16 C3_16 1_555 1_555
C3_16 H1_16 1_555 1_555
C4_16 C3_16 1_555 1_555
C5_16 C4_16 1_555 1_555
H2_16 C5_16 1_555 1_555
C6_16 C5_16 1_555 1_555
C7_16 C2_16 1_555 1_555
H3_16 C7_16 1_555 1_555
C8_17 C4_16 1_555 1_555
H4_16 C10_16 1_555 1_555
Cu4 O2_17 1_555 1_555
O5_2 C8_17 1_555 1_555
O2_17 C8_17 1_555 1_555
O6_8 C1_17 1_555 1_555
O7 C1_17 1_555 1_555
N3_17 Cu4 1_555 1_555
O6_9 Cu4 1_555 1_555
C6_16 C7_16 1_555 1_555
C12_17 C11_17 1_555 1_555
C13_16 C12_17 1_555 1_555
H6_16 C13_16 1_555 1_555
C14_16 C9_16 1_555 1_555
H7_16 C14_16 1_555 1_555
C15_17 H8_17 1_555 1_555
C16_17 H9_17 1_555 1_555
C17_17 C16_17 1_555 1_555
H10_17 C17_17 1_555 1_555
N1_17 C12_17 1_555 1_555
N2_17 C15_17 1_555 1_555
Cu5_17 N2_17 1_555 1_555
C13_16 C14_16 1_555 1_555
C15_17 N1_17 1_555 1_555
C16_17 N1_17 1_555 1_555
C17_17 N2_17 1_555 1_555
C1_18 C2_17 1_555 1_555
C2_17 C3_17 1_555 1_555
C3_17 H1_17 1_555 1_555
C4_17 C3_17 1_555 1_555
C5_17 C4_17 1_555 1_555
H2_17 C5_17 1_555 1_555
C6_17 C5_17 1_555 1_555
C7_17 C2_17 1_555 1_555
H3_17 C7_17 1_555 1_555
C8_18 C4_17 1_555 1_555
C9_17 C6_17 1_555 1_555
C10_17 C9_17 1_555 1_555
H4_17 C10_17 1_555 1_555
C11_18 C10_17 1_555 1_555
H5_18 C11_18 1_555 1_555
C12_18 C11_18 1_555 1_555
C13_17 C12_18 1_555 1_555
H6_17 C13_17 1_555 1_555
C14_17 C9_17 1_555 1_555
H7_17 C14_17 1_555 1_555
C15_18 H8_18 1_555 1_555
C16_18 H9_18 1_555 1_555
C17_18 C16_18 1_555 1_555
H10_18 C17_18 1_555 1_555
Cu4_2 O2_18 1_555 1_555
N1_18 C12_18 1_555 1_555
N2_18 C15_18 1_555 1_555
O5_3 C8_18 1_555 1_555
O2_18 C8_18 1_555 1_555
O6_9 C1_18 1_555 1_555
O7_2 C1_18 1_555 1_555
Cu5_18 N2_18 1_555 1_555
N3_18 Cu4_2 1_555 1_555
C6_17 C7_17 1_555 1_555
C13_17 C14_17 1_555 1_555
C15_18 N1_18 1_555 1_555
C16_18 N1_18 1_555 1_555
C17_18 N2_18 1_555 1_555
Cu5_12 O2_19 1_555 1_555
O1_10 C8_19 1_555 1_555
O2_19 C8_19 1_555 1_555
Cu5_2 Cu5_12 1_555 1_555
O5_10 Cu5_12 1_555 1_555
O6_10 Cu5_12 1_555 1_555
O7_10 Cu5_12 1_555 1_555
O1_10 Cu5_2 1_555 1_555
H5_19 C11_19 1_555 1_555
C12_19 C11_19 1_555 1_555
C15_19 H8_19 1_555 1_555
C16_19 H9_19 1_555 1_555
C17_19 C16_19 1_555 1_555
H10_19 C17_19 1_555 1_555
N1_19 C12_19 1_555 1_555
N3_18 C15_19 1_555 1_555
C15_19 N1_19 1_555 1_555
C16_19 N1_19 1_555 1_555
C17_19 N3_18 1_555 1_555
C1_19 C2_18 1_555 1_555
C2_18 C3_18 1_555 1_555
C3_18 H1_18 1_555 1_555
C4_18 C3_18 1_555 1_555
C5_18 C4_18 1_555 1_555
H2_18 C5_18 1_555 1_555
C6_18 C5_18 1_555 1_555
C7_18 C2_18 1_555 1_555
H3_18 C7_18 1_555 1_555
C9_18 C6_18 1_555 1_555
C10_18 C9_18 1_555 1_555
H4_18 C10_18 1_555 1_555
H6_18 C13_18 1_555 1_555
C14_18 C9_18 1_555 1_555
H7_18 C14_18 1_555 1_555
O3_10 C1_19 1_555 1_555
O4_10 C1_19 1_555 1_555
Cu5_10 O3_10 1_555 1_555
Cu5_3 O4_10 1_555 1_555
C6_18 C7_18 1_555 1_555
C13_18 C14_18 1_555 1_555
Cu5_10 Cu5_3 1_555 1_555
O3_11 C1_20 1_555 1_555
O4_11 C1_20 1_555 1_555
Cu5_11 O3_11 1_555 1_555
Cu5 O4_11 1_555 1_555
Cu5_11 Cu5 1_555 1_555
H5_20 C11_20 1_555 1_555
C12_20 C11_20 1_555 1_555
C15_20 H8_20 1_555 1_555
C16_20 H9_20 1_555 1_555
C17_20 C16_20 1_555 1_555
H10_20 C17_20 1_555 1_555
N1_20 C12_20 1_555 1_555
N3_16 C15_20 1_555 1_555
C15_20 N1_20 1_555 1_555
C16_20 N1_20 1_555 1_555
C17_20 N3_16 1_555 1_555
Cu5_10 O2_20 1_555 1_555
O1_11 C8_20 1_555 1_555
O2_20 C8_20 1_555 1_555
O5_11 Cu5_10 1_555 1_555
O7_11 Cu5_10 1_555 1_555
O1_11 Cu5_3 1_555 1_555
H5_21 C11_21 1_555 1_555
C12_21 C11_21 1_555 1_555
C15_21 H8_21 1_555 1_555
C16_21 H9_21 1_555 1_555
C17_21 C16_21 1_555 1_555
H10_21 C17_21 1_555 1_555
N1_21 C12_21 1_555 1_555
N3_17 C15_21 1_555 1_555
C15_21 N1_21 1_555 1_555
C16_21 N1_21 1_555 1_555
C17_21 N3_17 1_555 1_555
C2_19 C3_19 1_555 1_555
C3_19 H1_19 1_555 1_555
C4_19 C3_19 1_555 1_555
C5_19 C4_19 1_555 1_555
H2_19 C5_19 1_555 1_555
C6_19 C5_19 1_555 1_555
C7_19 C2_19 1_555 1_555
H3_19 C7_19 1_555 1_555
C8_21 C4_19 1_555 1_555
C9_19 C6_19 1_555 1_555
C10_19 C9_19 1_555 1_555
H4_19 C10_19 1_555 1_555
H6_19 C13_19 1_555 1_555
C14_19 C9_19 1_555 1_555
H7_19 C14_19 1_555 1_555
Cu5_11 O2_21 1_555 1_555
O1_12 C8_21 1_555 1_555
O2_21 C8_21 1_555 1_555
O5_12 Cu5_11 1_555 1_555
O7_12 Cu5_11 1_555 1_555
C6_19 C7_19 1_555 1_555
C13_19 C14_19 1_555 1_555
O1_12 Cu5 1_555 1_555
O6_10 C1_21 1_555 1_555
O4_12 C1_21 1_555 1_555
Cu5_2 O4_12 1_555 1_555
Cu5_14 O2_22 1_555 1_555
O1_13 C8_22 1_555 1_555
O2_22 C8_22 1_555 1_555
Cu5_6 Cu5_14 1_555 1_555
O5_13 Cu5_14 1_555 1_555
O6_11 Cu5_14 1_555 1_555
O7_13 Cu5_14 1_555 1_555
O1_13 Cu5_6 1_555 1_555
C1_22 C2_20 1_555 1_555
C2_20 C3_20 1_555 1_555
C3_20 H1_20 1_555 1_555
C4_20 C3_20 1_555 1_555
C5_20 C4_20 1_555 1_555
H2_20 C5_20 1_555 1_555
C6_20 C5_20 1_555 1_555
C7_20 C2_20 1_555 1_555
H3_20 C7_20 1_555 1_555
C9_20 C6_20 1_555 1_555
C10_20 C9_20 1_555 1_555
H4_20 C10_20 1_555 1_555
C11_22 C10_20 1_555 1_555
H5_22 C11_22 1_555 1_555
C12_22 C11_22 1_555 1_555
C13_20 C12_22 1_555 1_555
H6_20 C13_20 1_555 1_555
C14_20 C9_20 1_555 1_555
H7_20 C14_20 1_555 1_555
C15_22 H8_22 1_555 1_555
C16_22 H9_22 1_555 1_555
C17_22 C16_22 1_555 1_555
H10_22 C17_22 1_555 1_555
N1_22 C12_22 1_555 1_555
N3_8 C15_22 1_555 1_555
O3_12 C1_22 1_555 1_555
O4_13 C1_22 1_555 1_555
Cu5_13 O3_12 1_555 1_555
Cu5_5 O4_13 1_555 1_555
C6_20 C7_20 1_555 1_555
C13_20 C14_20 1_555 1_555
C15_22 N1_22 1_555 1_555
C16_22 N1_22 1_555 1_555
C17_22 N3_8 1_555 1_555
Cu5_13 Cu5_5 1_555 1_555
C2_21 C3_21 1_555 1_555
C3_21 H1_21 1_555 1_555
C4_21 C3_21 1_555 1_555
C5_21 C4_21 1_555 1_555
H2_21 C5_21 1_555 1_555
C6_21 C5_21 1_555 1_555
C7_21 C2_21 1_555 1_555
H3_21 C7_21 1_555 1_555
C8_23 C4_21 1_555 1_555
C9_21 C6_21 1_555 1_555
C10_21 C9_21 1_555 1_555
H4_21 C10_21 1_555 1_555
C11_23 C10_21 1_555 1_555
H5_23 C11_23 1_555 1_555
C12_23 C11_23 1_555 1_555
C13_21 C12_23 1_555 1_555
H6_21 C13_21 1_555 1_555
C14_21 C9_21 1_555 1_555
H7_21 C14_21 1_555 1_555
C15_23 H8_23 1_555 1_555
C16_23 H9_23 1_555 1_555
C17_23 C16_23 1_555 1_555
H10_23 C17_23 1_555 1_555
Cu5_15 O2_23 1_555 1_555
N1_23 C12_23 1_555 1_555
N3_9 C15_23 1_555 1_555
O1_14 C8_23 1_555 1_555
O2_23 C8_23 1_555 1_555
Cu5_4 Cu5_15 1_555 1_555
O5_14 Cu5_15 1_555 1_555
O6_12 Cu5_15 1_555 1_555
O7_14 Cu5_15 1_555 1_555
C6_21 C7_21 1_555 1_555
C13_21 C14_21 1_555 1_555
C15_23 N1_23 1_555 1_555
C16_23 N1_23 1_555 1_555
C17_23 N3_9 1_555 1_555
O1_14 Cu5_4 1_555 1_555
O6_11 C1_23 1_555 1_555
O4_14 C1_23 1_555 1_555
Cu5_6 O4_14 1_555 1_555
O6_12 C1_24 1_555 1_555
O4_15 C1_24 1_555 1_555
Cu5_4 O4_15 1_555 1_555
C2_22 C3_22 1_555 1_555
C3_22 H1_22 1_555 1_555
C4_22 C3_22 1_555 1_555
C5_22 C4_22 1_555 1_555
H2_22 C5_22 1_555 1_555
C6_22 C5_22 1_555 1_555
C7_22 C2_22 1_555 1_555
H3_22 C7_22 1_555 1_555
C9_22 C6_22 1_555 1_555
C10_22 C9_22 1_555 1_555
H4_22 C10_22 1_555 1_555
C11_24 C10_22 1_555 1_555
H5_24 C11_24 1_555 1_555
C12_24 C11_24 1_555 1_555
C13_22 C12_24 1_555 1_555
H6_22 C13_22 1_555 1_555
C14_22 C9_22 1_555 1_555
H7_22 C14_22 1_555 1_555
C15_24 H8_24 1_555 1_555
C16_24 H9_24 1_555 1_555
C17_24 C16_24 1_555 1_555
H10_24 C17_24 1_555 1_555
N1_24 C12_24 1_555 1_555
N3_7 C15_24 1_555 1_555
C6_22 C7_22 1_555 1_555
C13_22 C14_22 1_555 1_555
C15_24 N1_24 1_555 1_555
C16_24 N1_24 1_555 1_555
C17_24 N3_7 1_555 1_555
Cu5_13 O2_24 1_555 1_555
O1_15 C8_24 1_555 1_555
O2_24 C8_24 1_555 1_555
O5_15 Cu5_13 1_555 1_555
O7_15 Cu5_13 1_555 1_555
O1_15 Cu5_5 1_555 1_555
C1_25 C2_23 1_555 1_555
C2_23 C3_23 1_555 1_555
C3_23 H1_23 1_555 1_555
C4_23 C3_23 1_555 1_555
C5_23 C4_23 1_555 1_555
H2_23 C5_23 1_555 1_555
C6_23 C5_23 1_555 1_555
C7_23 C2_23 1_555 1_555
H3_23 C7_23 1_555 1_555
C8_25 C4_23 1_555 1_555
H4_23 C10_23 1_555 1_555
Cu5_6 O2_25 1_555 1_555
O5_13 C8_25 1_555 1_555
O2_25 C8_25 1_555 1_555
O3_13 C1_25 1_555 1_555
O7_14 C1_25 1_555 1_555
Cu5_4 O3_13 1_555 1_555
O6_13 Cu5_6 1_555 1_555
C6_23 C7_23 1_555 1_555
C12_25 C11_25 1_555 1_555
C13_23 C12_25 1_555 1_555
H6_23 C13_23 1_555 1_555
C14_23 C9_23 1_555 1_555
H7_23 C14_23 1_555 1_555
C15_25 H8_25 1_555 1_555
C16_25 H9_25 1_555 1_555
C17_25 C16_25 1_555 1_555
H10_25 C17_25 1_555 1_555
N1_25 C12_25 1_555 1_555
N3_12 C15_25 1_555 1_555
C13_23 C14_23 1_555 1_555
C15_25 N1_25 1_555 1_555
C16_25 N1_25 1_555 1_555
C17_25 N3_12 1_555 1_555
C1_26 C2_24 1_555 1_555
C2_24 C3_24 1_555 1_555
C3_24 H1_24 1_555 1_555
C4_24 C3_24 1_555 1_555
C5_24 C4_24 1_555 1_555
H2_24 C5_24 1_555 1_555
C6_24 C5_24 1_555 1_555
C7_24 C2_24 1_555 1_555
H3_24 C7_24 1_555 1_555
C8_26 C4_24 1_555 1_555
C9_24 C6_24 1_555 1_555
C10_24 C9_24 1_555 1_555
H4_24 C10_24 1_555 1_555
C11_26 C10_24 1_555 1_555
H5_26 C11_26 1_555 1_555
C12_26 C11_26 1_555 1_555
C13_24 C12_26 1_555 1_555
H6_24 C13_24 1_555 1_555
C14_24 C9_24 1_555 1_555
H7_24 C14_24 1_555 1_555
C15_26 H8_26 1_555 1_555
C16_26 H9_26 1_555 1_555
C17_26 C16_26 1_555 1_555
H10_26 C17_26 1_555 1_555
Cu5_4 O2_26 1_555 1_555
N1_26 C12_26 1_555 1_555
N3_10 C15_26 1_555 1_555
O5_14 C8_26 1_555 1_555
O2_26 C8_26 1_555 1_555
O3_14 C1_26 1_555 1_555
O7_15 C1_26 1_555 1_555
Cu5_5 O3_14 1_555 1_555
C6_24 C7_24 1_555 1_555
C13_24 C14_24 1_555 1_555
C15_26 N1_26 1_555 1_555
C16_26 N1_26 1_555 1_555
C17_26 N3_10 1_555 1_555
C12_27 C11_27 1_555 1_555
C13_25 C12_27 1_555 1_555
H6_25 C13_25 1_555 1_555
C14_25 C9_25 1_555 1_555
H7_25 C14_25 1_555 1_555
C15_27 H8_27 1_555 1_555
C16_27 H9_27 1_555 1_555
C17_27 C16_27 1_555 1_555
H10_27 C17_27 1_555 1_555
N1_27 C12_27 1_555 1_555
N3_11 C15_27 1_555 1_555
C13_25 C14_25 1_555 1_555
C15_27 N1_27 1_555 1_555
C16_27 N1_27 1_555 1_555
C17_27 N3_11 1_555 1_555
C1_27 C2_25 1_555 1_555
C2_25 C3_25 1_555 1_555
C3_25 H1_25 1_555 1_555
C4_25 C3_25 1_555 1_555
C5_25 C4_25 1_555 1_555
H2_25 C5_25 1_555 1_555
C6_25 C5_25 1_555 1_555
C7_25 C2_25 1_555 1_555
H3_25 C7_25 1_555 1_555
C8_27 C4_25 1_555 1_555
H4_25 C10_25 1_555 1_555
Cu5_5 O2_27 1_555 1_555
O5_15 C8_27 1_555 1_555
O2_27 C8_27 1_555 1_555
O6_13 C1_27 1_555 1_555
O7_13 C1_27 1_555 1_555
C6_25 C7_25 1_555 1_555
C1_28 C2_26 1_555 1_555
C2_26 C3_26 1_555 1_555
C3_26 H1_26 1_555 1_555
C4_26 C3_26 1_555 1_555
C5_26 C4_26 1_555 1_555
H2_26 C5_26 1_555 1_555
C6_26 C5_26 1_555 1_555
C7_26 C2_26 1_555 1_555
H3_26 C7_26 1_555 1_555
C8_28 C4_26 1_555 1_555
C9_26 C6_26 1_555 1_555
C10_26 C9_26 1_555 1_555
H4_26 C10_26 1_555 1_555
C11_28 C10_26 1_555 1_555
H5_28 C11_28 1_555 1_555
C12_28 C11_28 1_555 1_555
C13_26 C12_28 1_555 1_555
H6_26 C13_26 1_555 1_555
C14_26 C9_26 1_555 1_555
H7_26 C14_26 1_555 1_555
C15_28 H8_28 1_555 1_555
C16_28 H9_28 1_555 1_555
C17_28 C16_28 1_555 1_555
H10_28 C17_28 1_555 1_555
Cu5_8 O2_28 1_555 1_555
N1_28 C12_28 1_555 1_555
N3_2 C15_28 1_555 1_555
O1_16 C8_28 1_555 1_555
O2_28 C8_28 1_555 1_555
O3_15 C1_28 1_555 1_555
O4_16 C1_28 1_555 1_555
Cu5_7 O3_15 1_555 1_555
Cu5_18 Cu5_8 1_555 1_555
O5_16 Cu5_8 1_555 1_555
O6_14 Cu5_8 1_555 1_555
O7_16 Cu5_8 1_555 1_555
C6_26 C7_26 1_555 1_555
C13_26 C14_26 1_555 1_555
C15_28 N1_28 1_555 1_555
C16_28 N1_28 1_555 1_555
C17_28 N3_2 1_555 1_555
O1_16 Cu5_18 1_555 1_555
C1_29 C2_27 1_555 1_555
C2_27 C3_27 1_555 1_555
C3_27 H1_27 1_555 1_555
C4_27 C3_27 1_555 1_555
C5_27 C4_27 1_555 1_555
H2_27 C5_27 1_555 1_555
C6_27 C5_27 1_555 1_555
C7_27 C2_27 1_555 1_555
H3_27 C7_27 1_555 1_555
C8_29 C4_27 1_555 1_555
C9_27 C6_27 1_555 1_555
C10_27 C9_27 1_555 1_555
H4_27 C10_27 1_555 1_555
C11_29 C10_27 1_555 1_555
H5_29 C11_29 1_555 1_555
C12_29 C11_29 1_555 1_555
C13_27 C12_29 1_555 1_555
H6_27 C13_27 1_555 1_555
C14_27 C9_27 1_555 1_555
H7_27 C14_27 1_555 1_555
C15_29 H8_29 1_555 1_555
C16_29 H9_29 1_555 1_555
C17_29 C16_29 1_555 1_555
H10_29 C17_29 1_555 1_555
Cu5_9 O2_29 1_555 1_555
N1_29 C12_29 1_555 1_555
N3_3 C15_29 1_555 1_555
O1_17 C8_29 1_555 1_555
O2_29 C8_29 1_555 1_555
O6_14 C1_29 1_555 1_555
O4_17 C1_29 1_555 1_555
Cu5_18 O4_17 1_555 1_555
O6_15 Cu5_9 1_555 1_555
C6_27 C7_27 1_555 1_555
C13_27 C14_27 1_555 1_555
C15_29 N1_29 1_555 1_555
C16_29 N1_29 1_555 1_555
C17_29 N3_3 1_555 1_555
C1_30 C2_28 1_555 1_555
C2_28 C3_28 1_555 1_555
C3_28 H1_28 1_555 1_555
C4_28 C3_28 1_555 1_555
C5_28 C4_28 1_555 1_555
H2_28 C5_28 1_555 1_555
C6_28 C5_28 1_555 1_555
C7_28 C2_28 1_555 1_555
H3_28 C7_28 1_555 1_555
C8_30 C4_28 1_555 1_555
C9_28 C6_28 1_555 1_555
C10_28 C9_28 1_555 1_555
H4_28 C10_28 1_555 1_555
C11_30 C10_28 1_555 1_555
H5_30 C11_30 1_555 1_555
C12_30 C11_30 1_555 1_555
C13_28 C12_30 1_555 1_555
H6_28 C13_28 1_555 1_555
C14_28 C9_28 1_555 1_555
H7_28 C14_28 1_555 1_555
C15_30 H8_30 1_555 1_555
C16_30 H9_30 1_555 1_555
C17_30 C16_30 1_555 1_555
H10_30 C17_30 1_555 1_555
Cu5_7 O2_30 1_555 1_555
N1_30 C12_30 1_555 1_555
N3 C15_30 1_555 1_555
O1_18 C8_30 1_555 1_555
O2_30 C8_30 1_555 1_555
O6_15 C1_30 1_555 1_555
O4_18 C1_30 1_555 1_555
C6_28 C7_28 1_555 1_555
C13_28 C14_28 1_555 1_555
C15_30 N1_30 1_555 1_555
C16_30 N1_30 1_555 1_555
C17_30 N3 1_555 1_555
C1_31 C2_29 1_555 1_555
C2_29 C3_29 1_555 1_555
C3_29 H1_29 1_555 1_555
C4_29 C3_29 1_555 1_555
C5_29 C4_29 1_555 1_555
H2_29 C5_29 1_555 1_555
C6_29 C5_29 1_555 1_555
C7_29 C2_29 1_555 1_555
H3_29 C7_29 1_555 1_555
C8_31 C4_29 1_555 1_555
C9_29 C6_29 1_555 1_555
C10_29 C9_29 1_555 1_555
H4_29 C10_29 1_555 1_555
C11_31 C10_29 1_555 1_555
H5_31 C11_31 1_555 1_555
C12_31 C11_31 1_555 1_555
C13_29 C12_31 1_555 1_555
H6_29 C13_29 1_555 1_555
C14_29 C9_29 1_555 1_555
H7_29 C14_29 1_555 1_555
C15_31 H8_31 1_555 1_555
C16_31 H9_31 1_555 1_555
C17_31 C16_31 1_555 1_555
H10_31 C17_31 1_555 1_555
Cu5_18 O2_31 1_555 1_555
N1_31 C12_31 1_555 1_555
N3_6 C15_31 1_555 1_555
O5_16 C8_31 1_555 1_555
O2_31 C8_31 1_555 1_555
O3_16 C1_31 1_555 1_555
O7_17 C1_31 1_555 1_555
Cu5_16 O3_16 1_555 1_555
O6_16 Cu5_18 1_555 1_555
C6_29 C7_29 1_555 1_555
C13_29 C14_29 1_555 1_555
C15_31 N1_31 1_555 1_555
C16_31 N1_31 1_555 1_555
C17_31 N3_6 1_555 1_555
C1_32 C2_30 1_555 1_555
C2_30 C3_30 1_555 1_555
C3_30 H1_30 1_555 1_555
C4_30 C3_30 1_555 1_555
C5_30 C4_30 1_555 1_555
H2_30 C5_30 1_555 1_555
C6_30 C5_30 1_555 1_555
C7_30 C2_30 1_555 1_555
H3_30 C7_30 1_555 1_555
C8_32 C4_30 1_555 1_555
C9_30 C6_30 1_555 1_555
C10_30 C9_30 1_555 1_555
H4_30 C10_30 1_555 1_555
C11_32 C10_30 1_555 1_555
H5_32 C11_32 1_555 1_555
C12_32 C11_32 1_555 1_555
C13_30 C12_32 1_555 1_555
H6_30 C13_30 1_555 1_555
C14_30 C9_30 1_555 1_555
H7_30 C14_30 1_555 1_555
C15_32 H8_32 1_555 1_555
C16_32 H9_32 1_555 1_555
C17_32 C16_32 1_555 1_555
H10_32 C17_32 1_555 1_555
Cu5_16 O2_32 1_555 1_555
N1_32 C12_32 1_555 1_555
N3_4 C15_32 1_555 1_555
O5_17 C8_32 1_555 1_555
O2_32 C8_32 1_555 1_555
O3_17 C1_32 1_555 1_555
O7_18 C1_32 1_555 1_555
Cu5_17 O3_17 1_555 1_555
C6_30 C7_30 1_555 1_555
C13_30 C14_30 1_555 1_555
C15_32 N1_32 1_555 1_555
C16_32 N1_32 1_555 1_555
C17_32 N3_4 1_555 1_555
C1_33 C2_31 1_555 1_555
C2_31 C3_31 1_555 1_555
C3_31 H1_31 1_555 1_555
C4_31 C3_31 1_555 1_555
C5_31 C4_31 1_555 1_555
H2_31 C5_31 1_555 1_555
C6_31 C5_31 1_555 1_555
C7_31 C2_31 1_555 1_555
H3_31 C7_31 1_555 1_555
C8_33 C4_31 1_555 1_555
C9_31 C6_31 1_555 1_555
C10_31 C9_31 1_555 1_555
H4_31 C10_31 1_555 1_555
C11_33 C10_31 1_555 1_555
H5_33 C11_33 1_555 1_555
C12_33 C11_33 1_555 1_555
C13_31 C12_33 1_555 1_555
H6_31 C13_31 1_555 1_555
C14_31 C9_31 1_555 1_555
H7_31 C14_31 1_555 1_555
C15_33 H8_33 1_555 1_555
C16_33 H9_33 1_555 1_555
C17_33 C16_33 1_555 1_555
H10_33 C17_33 1_555 1_555
Cu5_17 O2_33 1_555 1_555
N1_33 C12_33 1_555 1_555
N3_5 C15_33 1_555 1_555
O5_18 C8_33 1_555 1_555
O2_33 C8_33 1_555 1_555
O6_16 C1_33 1_555 1_555
O7_16 C1_33 1_555 1_555
C6_31 C7_31 1_555 1_555
C13_31 C14_31 1_555 1_555
C15_33 N1_33 1_555 1_555
C16_33 N1_33 1_555 1_555
C17_33 N3_5 1_555 1_555
C1_34 C2_32 1_555 1_555
C2_32 C3_32 1_555 1_555
C3_32 H1_32 1_555 1_555
C4_32 C3_32 1_555 1_555
C5_32 C4_32 1_555 1_555
H2_32 C5_32 1_555 1_555
C6_32 C5_32 1_555 1_555
C7_32 C2_32 1_555 1_555
H3_32 C7_32 1_555 1_555
C8_34 C4_32 1_555 1_555
H4_32 C10_32 1_555 1_555
Cu5_2 O2_34 1_555 1_555
O5_10 C8_34 1_555 1_555
O2_34 C8_34 1_555 1_555
O3_18 C1_34 1_555 1_555
O7_12 C1_34 1_555 1_555
Cu5 O3_18 1_555 1_555
O6_17 Cu5_2 1_555 1_555
C6_32 C7_32 1_555 1_555
C12_34 C11_34 1_555 1_555
C13_32 C12_34 1_555 1_555
H6_32 C13_32 1_555 1_555
C14_32 C9_32 1_555 1_555
H7_32 C14_32 1_555 1_555
C15_34 H8_34 1_555 1_555
C16_34 H9_34 1_555 1_555
C17_34 C16_34 1_555 1_555
H10_34 C17_34 1_555 1_555
N1_34 C12_34 1_555 1_555
N3_14 C15_34 1_555 1_555
C13_32 C14_32 1_555 1_555
C15_34 N1_34 1_555 1_555
C16_34 N1_34 1_555 1_555
C17_34 N3_14 1_555 1_555
C12_35 C11_35 1_555 1_555
C13_33 C12_35 1_555 1_555
H6_33 C13_33 1_555 1_555
C14_33 C9_33 1_555 1_555
H7_33 C14_33 1_555 1_555
C15_35 H8_35 1_555 1_555
C16_35 H9_35 1_555 1_555
C17_35 C16_35 1_555 1_555
H10_35 C17_35 1_555 1_555
N1_35 C12_35 1_555 1_555
N3_15 C15_35 1_555 1_555
C13_33 C14_33 1_555 1_555
C15_35 N1_35 1_555 1_555
C16_35 N1_35 1_555 1_555
C17_35 N3_15 1_555 1_555
C1_35 C2_33 1_555 1_555
C2_33 C3_33 1_555 1_555
C3_33 H1_33 1_555 1_555
C4_33 C3_33 1_555 1_555
C5_33 C4_33 1_555 1_555
H2_33 C5_33 1_555 1_555
C6_33 C5_33 1_555 1_555
C7_33 C2_33 1_555 1_555
H3_33 C7_33 1_555 1_555
C8_35 C4_33 1_555 1_555
H4_33 C10_33 1_555 1_555
Cu5_3 O2_35 1_555 1_555
O5_11 C8_35 1_555 1_555
O2_35 C8_35 1_555 1_555
O6_17 C1_35 1_555 1_555
O7_10 C1_35 1_555 1_555
O6_18 Cu5_3 1_555 1_555
C6_33 C7_33 1_555 1_555
C1_36 C2_34 1_555 1_555
C2_34 C3_34 1_555 1_555
C3_34 H1_34 1_555 1_555
C4_34 C3_34 1_555 1_555
C5_34 C4_34 1_555 1_555
H2_34 C5_34 1_555 1_555
C6_34 C5_34 1_555 1_555
C7_34 C2_34 1_555 1_555
H3_34 C7_34 1_555 1_555
C8_36 C4_34 1_555 1_555
C9_34 C6_34 1_555 1_555
C10_34 C9_34 1_555 1_555
H4_34 C10_34 1_555 1_555
C11_36 C10_34 1_555 1_555
H5_36 C11_36 1_555 1_555
C12_36 C11_36 1_555 1_555
C13_34 C12_36 1_555 1_555
H6_34 C13_34 1_555 1_555
C14_34 C9_34 1_555 1_555
H7_34 C14_34 1_555 1_555
C15_36 H8_36 1_555 1_555
C16_36 H9_36 1_555 1_555
C17_36 C16_36 1_555 1_555
H10_36 C17_36 1_555 1_555
Cu5 O2_36 1_555 1_555
N1_36 C12_36 1_555 1_555
N3_13 C15_36 1_555 1_555
O5_12 C8_36 1_555 1_555
O2_36 C8_36 1_555 1_555
O6_18 C1_36 1_555 1_555
O7_11 C1_36 1_555 1_555
C6_34 C7_34 1_555 1_555
C13_34 C14_34 1_555 1_555
C15_36 N1_36 1_555 1_555
C16_36 N1_36 1_555 1_555
C17_36 N3_13 1_555 1_555
C2_35 C3_35 1_555 1_555
C3_35 H1_35 1_555 1_555
C4_35 C3_35 1_555 1_555
C5_35 C4_35 1_555 1_555
H2_35 C5_35 1_555 1_555
C6_35 C5_35 1_555 1_555
C7_35 C2_35 1_555 1_555
H3_35 C7_35 1_555 1_555
C9_35 C6_35 1_555 1_555
C10_35 C9_35 1_555 1_555
H4_35 C10_35 1_555 1_555
H6_35 C13_35 1_555 1_555
C14_35 C9_35 1_555 1_555
H7_35 C14_35 1_555 1_555
C6_35 C7_35 1_555 1_555
C13_35 C14_35 1_555 1_555
C2_36 C3_36 1_555 1_555
C3_36 H1_36 1_555 1_555
C4_36 C3_36 1_555 1_555
C5_36 C4_36 1_555 1_555
H2_36 C5_36 1_555 1_555
C6_36 C5_36 1_555 1_555
C7_36 C2_36 1_555 1_555
H3_36 C7_36 1_555 1_555
C9_36 C6_36 1_555 1_555
C10_36 C9_36 1_555 1_555
H4_36 C10_36 1_555 1_555
H6_36 C13_36 1_555 1_555
C14_36 C9_36 1_555 1_555
H7_36 C14_36 1_555 1_555
C6_36 C7_36 1_555 1_555
C13_36 C14_36 1_555 1_555

#END
