
###############################################################################
#
# This file contains modified crystal structure data generated from the
# MOF subset of the Cambridge Structural Database (CSD) v543 
# hosted by the Cambridge Crystallographic Data Centre (CCDC).
#
# This work is licensed under the Creative Commons
# Attribution-NonCommercial-ShareAlike 4.0 International License.
# To view a copy of this license, visit
# http://creativecommons.org/licenses/by-nc-sa/4.0/
# or send a letter to
# Creative Commons, PO Box 1866, Mountain View, CA 94042, USA.
#
# CIF created using the CSD Python API on 29 September 2022
# The structure has been converted into the P1 space group
# The structure has a 3D framework
# The original CSD entry MITGOL is in the triclinic crystal system
# The framework has been calculated to contain at least 10.0% void space
# The void calculation uses a probe of radius 1.32A, grid spacing 0.4
# H atom positions have been added when not included in the experimental data
# Generated hydrogen atom positions removed from atoms on special positions
#
###############################################################################

data_MITGOL
_chemical_formula_moiety         '(C30 H30 Er4 O32)n'
_symmetry_cell_setting           triclinic
_symmetry_space_group_name_H-M   'P 1'
_symmetry_Int_Tables_number      1
_space_group_name_Hall           'P 1'
loop_
_symmetry_equiv_pos_site_id
_symmetry_equiv_pos_as_xyz
1 x,y,z
_cell_length_a                   9.6739(5)
_cell_length_b                   11.0039(5)
_cell_length_c                   11.5523(6)
_cell_angle_alpha                104.8330(10)
_cell_angle_beta                 91.0000(10)
_cell_angle_gamma                114.2570(10)
_cell_volume                     1073.27
loop_
_atom_site_label
_atom_site_type_symbol
_atom_site_fract_x
_atom_site_fract_y
_atom_site_fract_z
_atom_site_U_iso_or_equiv
_atom_site_thermal_displace_type
C22 C 0.1529(8) 0.0644(7) 0.0509(6) 0.0154 Uani
C23 C 0.3141(8) 0.1293(7) 0.1118(6) 0.0139 Uani
O21 O 0.3713(6) 0.0502(5) 0.1265(5) 0.0223 Uani
O22 O 0.3836(5) 0.2612(5) 0.1494(5) 0.0179 Uani
C24 C 0.0534(8) 0.1208(7) 0.0953(6) 0.0155 Uani
H5 H 0.0898 0.2022 0.1593 0.0190 Uiso
Er9 Er 0.51686(3) 0.42447(3) 0.32999(3) 0.0104 Uani
C27 C 0.1266(8) 0.1193(7) 0.4964(6) 0.0139 Uani
C28 C 0.2585(7) 0.2536(7) 0.4911(6) 0.0129 Uani
O25 O 0.2954(6) 0.3535(5) 0.5876(5) 0.0194 Uani
O26 O 0.3137(5) 0.2582(5) 0.3947(4) 0.0165 Uani
C29 C 0.0077(8) 0.1301(7) 0.5541(7) 0.0158 Uani
H6 H 0.0126 0.2178 0.5910 0.0190 Uiso
O27 O 0.3877(5) 0.0481(5) 0.4320(5) 0.0162 Uani
Er10 Er 0.50773(3) 0.00724(3) 0.74647(3) 0.0121 Uani
Er11 Er 0.48314(3) 0.57553(3) 0.67001(3) 0.0104 Uani
Er8 Er 0.49227(3) 0.99276(3) 0.25353(3) 0.0121 Uani
C21 C 0.0989(8) 0.9416(7) 0.9540(6) 0.0140 Uani
C25 C 0.2096(8) 0.8871(8) 0.8972(7) 0.0187 Uani
O23 O 0.3188(6) 0.9710(6) 0.8599(5) 0.0293 Uani
O24 O 0.1832(7) 0.7637(6) 0.8868(6) 0.0362 Uani
C26 C 0.1203(8) 0.9880(7) 0.4417(6) 0.0146 Uani
C30 C 0.2496(8) 0.9701(7) 0.3824(7) 0.0160 Uani
O28 O 0.2236(6) 0.8797(6) 0.2830(5) 0.0295 Uani
O11 O 0.6812(6) 0.0290(6) 0.1401(5) 0.0293 Uani
O12 O 0.8168(7) 0.2363(6) 0.1132(6) 0.0362 Uani
C9 C 0.9011(8) 0.0584(7) 0.0460(6) 0.0140 Uani
C10 C 0.7904(8) 0.1129(8) 0.1028(7) 0.0187 Uani
O2 O 0.4790(7) 0.1693(6) 0.6692(5) 0.0302 Uani
O4 O 0.6078(7) 0.2171(6) 0.9110(5) 0.0312 Uani
O16 O 0.7764(6) 0.1203(6) 0.7170(5) 0.0295 Uani
C14 C 0.8797(8) 0.0120(7) 0.5583(6) 0.0146 Uani
C15 C 0.7504(8) 0.0299(7) 0.6176(7) 0.0160 Uani
O1 O 0.2828(5) 0.8612(5) 0.6015(5) 0.0185 Uani
O3 O 0.3944(5) 0.7490(5) 0.6668(4) 0.0134 Uani
O5 O 0.4012(5) 0.5533(5) 0.4664(4) 0.0147 Uani
O6 O 0.2741(6) 0.5539(6) 0.7834(5) 0.0266 Uani
O7 O 0.2578(6) 0.4416(6) 0.2903(5) 0.0221 Uani
O8 O 0.4846(7) 0.4318(6) 0.8016(5) 0.0297 Uani
O9 O 0.6287(6) 0.9498(5) 0.8735(5) 0.0223 Uani
O10 O 0.6164(5) 0.7388(5) 0.8506(5) 0.0179 Uani
O13 O 0.7046(6) 0.6465(5) 0.4124(5) 0.0194 Uani
O14 O 0.6863(5) 0.7418(5) 0.6053(4) 0.0165 Uani
O15 O 0.6123(5) 0.9519(5) 0.5680(5) 0.0162 Uani
C1 C 0.2825(8) 0.7498(7) 0.6069(6) 0.0133 Uani
C2 C 0.1408(8) 0.6177(7) 0.5499(6) 0.0135 Uani
C3 C 0.0047(8) 0.6097(7) 0.5928(6) 0.0135 Uani
H1 H 0.0070 0.6835 0.6553 0.0160 Uiso
C4 C 0.1344(8) 0.5052(7) 0.4547(6) 0.0138 Uani
C5 C 0.2719(7) 0.5018(7) 0.3991(6) 0.0137 Uani
C6 C 0.6859(8) 0.8707(7) 0.8882(6) 0.0139 Uani
C7 C 0.8471(8) 0.9356(7) 0.9491(6) 0.0154 Uani
C8 C 0.9466(8) 0.8792(7) 0.9047(6) 0.0155 Uani
H2 H 0.9102 0.7978 0.8407 0.0190 Uiso
C11 C 0.7415(7) 0.7464(7) 0.5089(6) 0.0129 Uani
C12 C 0.8734(8) 0.8807(7) 0.5036(6) 0.0139 Uani
C13 C 0.9923(8) 0.8699(7) 0.4459(7) 0.0158 Uani
H3 H 0.9874 0.7822 0.4090 0.0190 Uiso
O34 O 0.5988(5) 0.4467(5) 0.5336(4) 0.0147 Uani
O35 O 0.7422(6) 0.5584(6) 0.7097(5) 0.0221 Uani
C16 C 0.8656(8) 0.4948(7) 0.5453(6) 0.0138 Uani
C17 C 0.8592(8) 0.3823(7) 0.4501(6) 0.0135 Uani
C18 C 0.7175(8) 0.2502(7) 0.3931(6) 0.0133 Uani
O17 O 0.7172(5) 0.1388(5) 0.3985(5) 0.0185 Uani
O18 O 0.6056(5) 0.2510(5) 0.3332(4) 0.0134 Uani
C19 C 0.9953(8) 0.3903(7) 0.4072(6) 0.0135 Uani
H4 H 0.9930 0.3165 0.3447 0.0160 Uiso
C20 C 0.7281(7) 0.4982(7) 0.6009(6) 0.0137 Uani
O31 O 0.7259(6) 0.4461(6) 0.2166(5) 0.0266 Uani
O32 O 0.5154(7) 0.5682(6) 0.1984(5) 0.0297 Uani
O29 O 0.5210(7) 0.8307(6) 0.3308(5) 0.0302 Uani
O30 O 0.3922(7) 0.7829(6) 0.0890(5) 0.0312 Uani
loop_
_atom_site_aniso_label
_atom_site_aniso_U_11
_atom_site_aniso_U_22
_atom_site_aniso_U_33
_atom_site_aniso_U_23
_atom_site_aniso_U_13
_atom_site_aniso_U_12
C22 0.016 0.019 0.014 0.007 0.002 0.009
C23 0.017 0.018 0.007 0.005 0 0.007
O21 0.021 0.019 0.026 0 -0.011 0.012
O22 0.01 0.017 0.023 0.005 -0.002 0.003
C24 0.015 0.022 0.009 0 0.001 0.01
Er9 0.00777 0.00913 0.01214 0.00214 0.0005 0.00227
C27 0.011 0.011 0.015 0.001 0 0.002
C28 0.005 0.013 0.02 0.007 0.001 0.002
O25 0.017 0.009 0.02 -0.001 0 -0.003
O26 0.012 0.014 0.021 0.005 0.006 0.003
C29 0.012 0.013 0.022 0.005 0.003 0.005
O27 0.014 0.016 0.02 0.005 0.003 0.008
Er10 0.00882 0.01154 0.01387 0.00186 0.0001 0.00358
Er11 0.00777 0.00913 0.01214 0.00214 0.0005 0.00227
Er8 0.00882 0.01154 0.01387 0.00186 0.0001 0.00358
C21 0.01 0.015 0.014 0 0.001 0.005
C25 0.012 0.022 0.015 -0.002 -0.005 0.005
O23 0.017 0.035 0.03 0.003 0.013 0.009
O24 0.034 0.028 0.046 -0.002 0.01 0.02
C26 0.014 0.013 0.017 0.006 0.005 0.005
C30 0.011 0.009 0.027 0.006 0.001 0.003
O28 0.011 0.033 0.027 -0.009 0.003 0.003
O11 0.017 0.035 0.03 0.003 0.013 0.009
O12 0.034 0.028 0.046 -0.002 0.01 0.02
C9 0.01 0.015 0.014 0 0.001 0.005
C10 0.012 0.022 0.015 -0.002 -0.005 0.005
O2 0.053 0.02 0.023 0.005 -0.006 0.022
O4 0.037 0.025 0.023 -0.004 -0.007 0.012
O16 0.011 0.033 0.027 -0.009 0.003 0.003
C14 0.014 0.013 0.017 0.006 0.005 0.005
C15 0.011 0.009 0.027 0.006 0.001 0.003
O1 0.013 0.012 0.027 0.003 -0.007 0.004
O3 0.01 0.013 0.016 0.001 -0.0024 0.0059
O5 0.015 0.013 0.017 0.006 0.002 0.006
O6 0.026 0.024 0.035 0.014 0.017 0.012
O7 0.019 0.029 0.015 -0.002 0.002 0.012
O8 0.026 0.027 0.034 0.011 0.007 0.008
O9 0.021 0.019 0.026 0 -0.011 0.012
O10 0.01 0.017 0.023 0.005 -0.002 0.003
O13 0.017 0.009 0.02 -0.001 0 -0.003
O14 0.012 0.014 0.021 0.005 0.006 0.003
O15 0.014 0.016 0.02 0.005 0.003 0.008
C1 0.015 0.015 0.011 0.006 0.006 0.006
C2 0.011 0.013 0.015 0.002 -0.002 0.005
C3 0.014 0.014 0.012 0 -0.003 0.008
C4 0.012 0.019 0.014 0.005 0.002 0.01
C5 0.011 0.013 0.014 0.001 0 0.004
C6 0.017 0.018 0.007 0.005 0 0.007
C7 0.016 0.019 0.014 0.007 0.002 0.009
C8 0.015 0.022 0.009 0 0.001 0.01
C11 0.005 0.013 0.02 0.007 0.001 0.002
C12 0.011 0.011 0.015 0.001 0 0.002
C13 0.012 0.013 0.022 0.005 0.003 0.005
O34 0.015 0.013 0.017 0.006 0.002 0.006
O35 0.019 0.029 0.015 -0.002 0.002 0.012
C16 0.012 0.019 0.014 0.005 0.002 0.01
C17 0.011 0.013 0.015 0.002 -0.002 0.005
C18 0.015 0.015 0.011 0.006 0.006 0.006
O17 0.013 0.012 0.027 0.003 -0.007 0.004
O18 0.01 0.013 0.016 0.001 -0.0024 0.0059
C19 0.014 0.014 0.012 0 -0.003 0.008
C20 0.011 0.013 0.014 0.001 0 0.004
O31 0.026 0.024 0.035 0.014 0.017 0.012
O32 0.026 0.027 0.034 0.011 0.007 0.008
O29 0.053 0.02 0.023 0.005 -0.006 0.022
O30 0.037 0.025 0.023 -0.004 -0.007 0.012
loop_
_geom_bond_atom_site_label_1
_geom_bond_atom_site_label_2
_geom_bond_site_symmetry_1
_geom_bond_site_symmetry_2
C23 C22 1_555 1_555
O21 C23 1_555 1_555
O22 C23 1_555 1_555
H5 C24 1_555 1_555
Er9 O22 1_555 1_555
C22 C24 1_555 1_555
C28 C27 1_555 1_555
O25 C28 1_555 1_555
O26 C28 1_555 1_555
H6 C29 1_555 1_555
Er11 O25 1_555 1_555
Er9 O26 1_555 1_555
C27 C29 1_555 1_555
C25 C21 1_555 1_555
O23 C25 1_555 1_555
O24 C25 1_555 1_555
C30 C26 1_555 1_555
O28 C30 1_555 1_555
O28 Er8 1_555 1_555
O11 C10 1_555 1_555
O12 C10 1_555 1_555
C10 C9 1_555 1_555
O2 Er10 1_555 1_555
O4 Er10 1_555 1_555
O16 Er10 1_555 1_555
O16 C15 1_555 1_555
C14 C15 1_555 1_555
Er11 O3 1_555 1_555
O1 C1 1_555 1_555
O5 Er11 1_555 1_555
O6 Er11 1_555 1_555
O7 C5 1_555 1_555
O8 Er11 1_555 1_555
O10 Er11 1_555 1_555
O13 C11 1_555 1_555
O14 Er11 1_555 1_555
C1 O3 1_555 1_555
C2 C1 1_555 1_555
C3 C2 1_555 1_555
H1 C3 1_555 1_555
C4 C2 1_555 1_555
C5 O5 1_555 1_555
C6 O9 1_555 1_555
C7 C6 1_555 1_555
C8 C7 1_555 1_555
H2 C8 1_555 1_555
C11 O14 1_555 1_555
C12 C11 1_555 1_555
C13 C12 1_555 1_555
H3 C13 1_555 1_555
O34 Er11 1_555 1_555
O35 Er11 1_555 1_555
Er9 O5 1_555 1_555
O7 Er9 1_555 1_555
O10 C6 1_555 1_555
O13 Er9 1_555 1_555
C4 C5 1_555 1_555
O34 Er9 1_555 1_555
C17 C16 1_555 1_555
C18 C17 1_555 1_555
O17 C18 1_555 1_555
O18 C18 1_555 1_555
H4 C19 1_555 1_555
C20 C16 1_555 1_555
O34 C20 1_555 1_555
O35 C20 1_555 1_555
Er9 O18 1_555 1_555
O31 Er9 1_555 1_555
O32 Er9 1_555 1_555
C17 C19 1_555 1_555
O29 Er8 1_555 1_555
O30 Er8 1_555 1_555

#END
