
###############################################################################
#
# This file contains modified crystal structure data generated from the
# MOF subset of the Cambridge Structural Database (CSD) v543 
# hosted by the Cambridge Crystallographic Data Centre (CCDC).
#
# This work is licensed under the Creative Commons
# Attribution-NonCommercial-ShareAlike 4.0 International License.
# To view a copy of this license, visit
# http://creativecommons.org/licenses/by-nc-sa/4.0/
# or send a letter to
# Creative Commons, PO Box 1866, Mountain View, CA 94042, USA.
#
# CIF created using the CSD Python API on 29 September 2022
# The structure has been converted into the P1 space group
# The structure has a 3D framework
# The original CSD entry MITGIF is in the monoclinic crystal system
# The framework has been calculated to contain at least 10.0% void space
# The void calculation uses a probe of radius 1.32A, grid spacing 0.4
# H atom positions have been added when not included in the experimental data
# Generated hydrogen atom positions removed from atoms on special positions
#
###############################################################################

data_MITGIF
_chemical_formula_moiety         '(C66 H66 O64 Yb8)n'
_symmetry_cell_setting           triclinic
_symmetry_space_group_name_H-M   'P 1'
_symmetry_Int_Tables_number      1
_space_group_name_Hall           'P 1'
loop_
_symmetry_equiv_pos_site_id
_symmetry_equiv_pos_as_xyz
1 x,y,z
_cell_length_a                   20.8119(5)
_cell_length_b                   17.61740(10)
_cell_length_c                   5.7252(2)
_cell_angle_alpha                90
_cell_angle_beta                 92.3240(10)
_cell_angle_gamma                90
_cell_volume                     2097.43
loop_
_atom_site_label
_atom_site_type_symbol
_atom_site_fract_x
_atom_site_fract_y
_atom_site_fract_z
O19 O 0.1033(4) 0.3564(4) 0.2487(13)
O20 O 0.1898(4) 0.3028(4) 0.1133(12)
C21 C 0.1503(8) 0.5000 0.095(2)
H3 H 0.1220 0.5000 0.2169
C22 C 0.1711(5) 0.4315(5) 0.0058(17)
C25 C 0.1526(6) 0.3593(5) 0.1277(18)
C27 C 0.1711(5) 0.5685(5) 0.0058(17)
C30 C 0.1526(6) 0.6407(5) 0.1277(18)
O25 O 0.1033(4) 0.6436(4) 0.2487(13)
O26 O 0.1898(4) 0.6972(4) 0.1133(12)
Yb3 Yb 0.13781(2) 0.23814(2) 0.41566(7)
Yb4 Yb 0.13781(2) 0.76186(2) 0.41566(7)
O29 O 0.0625(5) 0.2776(5) 0.6772(16)
O30 O 0.1740(4) 0.1687(4) 0.7433(13)
O31 O 0.0625(5) 0.7224(5) 0.6772(16)
O32 O 0.1740(4) 0.8313(4) 0.7433(13)
O37 O 0.2041(4) 0.3178(4) 0.6048(13)
O38 O 0.1997(4) 0.1481(4) 0.2522(13)
O39 O 0.0671(4) 0.1968(4) 0.0948(13)
O40 O 0.0707(4) 0.1328(4) 0.4214(12)
O41 O 0.2041(4) 0.6822(4) 0.6048(13)
O42 O 0.1997(4) 0.8519(4) 0.2522(13)
O43 O 0.0671(4) 0.8032(4) 0.0948(13)
O44 O 0.0707(4) 0.8672(4) 0.4214(12)
C7 C 0.0529(5) 0.1374(5) 0.2111(18)
C8 C 0.0211(5) 0.0692(6) 0.0994(17)
C9 C 0.0416(8) 0.0000 0.193(3)
O22 O 0.3003(4) 0.3519(4) 0.7478(13)
C23 C 0.2133(5) 0.4313(5) 0.8283(17)
C24 C 0.2361(8) 0.5000 0.736(2)
H4 H 0.2653 0.5000 0.6171
C26 C 0.2419(5) 0.3608(5) 0.7204(16)
C28 C 0.2133(5) 0.5687(5) 0.8283(17)
C29 C 0.2419(5) 0.6392(5) 0.7204(16)
O24 O 0.3003(4) 0.6481(4) 0.7478(13)
Yb12 Yb 0.36219(2) 0.26186(2) 0.58434(7)
Yb13 Yb 0.36219(2) 0.73814(2) 0.58434(7)
H22 H 0.0748554 -1.73716e-17 0.344839
C9_2 C 0.0416(8) 1.0000 0.193(3)
C19 C 0.0211(5) 0.9308(6) 0.0994(17)
C20 C 0.0529(5) 0.8626(5) 0.2111(18)
H22_2 H 0.0748554 1 0.344839
C14 C 0.9789(5) 0.0692(6) 0.9006(17)
C15 C 0.9471(5) 0.1374(5) 0.7889(18)
O13 O 0.9329(4) 0.1968(4) 0.9052(13)
O14 O 0.9293(4) 0.1328(4) 0.5786(12)
C16 C 0.9584(8) 0.0000 0.807(3)
Yb9 Yb 0.86219(2) 0.23814(2) 0.58434(7)
H21 H 0.925145 1.73716e-17 0.655161
C16_2 C 0.9584(8) 1.0000 0.807(3)
C17 C 0.9789(5) 0.9308(6) 0.9006(17)
C18 C 0.9471(5) 0.8626(5) 0.7889(18)
O15 O 0.9329(4) 0.8032(4) 0.9052(13)
O16 O 0.9293(4) 0.8672(4) 0.5786(12)
Yb10 Yb 0.86219(2) 0.76186(2) 0.58434(7)
H21_2 H 0.925145 1 0.655161
C21_2 C 0.6503(8) 0.0000 0.095(2)
H3_2 H 0.6220 0.0000 0.2169
C27_2 C 0.6711(5) 0.0685(5) 0.0058(17)
C30_2 C 0.6526(6) 0.1407(5) 0.1277(18)
O25_2 O 0.6033(4) 0.1436(4) 0.2487(13)
O26_2 O 0.6898(4) 0.1972(4) 0.1133(12)
Yb4_2 Yb 0.63781(2) 0.26186(2) 0.41566(7)
O31_2 O 0.5625(5) 0.2224(5) 0.6772(16)
O32_2 O 0.6740(4) 0.3313(4) 0.7433(13)
O41_2 O 0.7041(4) 0.1822(4) 0.6048(13)
O42_2 O 0.6997(4) 0.3519(4) 0.2522(13)
O43_2 O 0.5671(4) 0.3032(4) 0.0948(13)
O44_2 O 0.5707(4) 0.3672(4) 0.4214(12)
C24_2 C 0.7361(8) 0.0000 0.736(2)
H4_2 H 0.7653 0.0000 0.6171
C28_2 C 0.7133(5) 0.0687(5) 0.8283(17)
C29_2 C 0.7419(5) 0.1392(5) 0.7204(16)
O24_2 O 0.8003(4) 0.1481(4) 0.7478(13)
O19_2 O 0.6033(4) 0.8564(4) 0.2487(13)
O20_2 O 0.6898(4) 0.8028(4) 0.1133(12)
C21_3 C 0.6503(8) 1.0000 0.095(2)
H3_3 H 0.6220 1.0000 0.2169
C22_2 C 0.6711(5) 0.9315(5) 0.0058(17)
C25_2 C 0.6526(6) 0.8593(5) 0.1277(18)
Yb3_2 Yb 0.63781(2) 0.73814(2) 0.41566(7)
O29_2 O 0.5625(5) 0.7776(5) 0.6772(16)
O30_2 O 0.6740(4) 0.6687(4) 0.7433(13)
O37_2 O 0.7041(4) 0.8178(4) 0.6048(13)
O38_2 O 0.6997(4) 0.6481(4) 0.2522(13)
O39_2 O 0.5671(4) 0.6968(4) 0.0948(13)
O40_2 O 0.5707(4) 0.6328(4) 0.4214(12)
C7_2 C 0.5529(5) 0.6374(5) 0.2111(18)
C8_2 C 0.5211(5) 0.5692(6) 0.0994(17)
C9_3 C 0.5416(8) 0.5000 0.193(3)
C19_2 C 0.5211(5) 0.4308(6) 0.0994(17)
C20_2 C 0.5529(5) 0.3626(5) 0.2111(18)
O22_2 O 0.8003(4) 0.8519(4) 0.7478(13)
C23_2 C 0.7133(5) 0.9313(5) 0.8283(17)
C24_3 C 0.7361(8) 1.0000 0.736(2)
H4_3 H 0.7653 1.0000 0.6171
C26_2 C 0.7419(5) 0.8608(5) 0.7204(16)
H22_3 H 0.574855 0.5 0.344839
C14_2 C 0.4789(5) 0.5692(6) 0.9006(17)
C15_2 C 0.4471(5) 0.6374(5) 0.7889(18)
O13_2 O 0.4329(4) 0.6968(4) 0.9052(13)
O14_2 O 0.4293(4) 0.6328(4) 0.5786(12)
C16_3 C 0.4584(8) 0.5000 0.807(3)
C17_2 C 0.4789(5) 0.4308(6) 0.9006(17)
C18_2 C 0.4471(5) 0.3626(5) 0.7889(18)
O15_2 O 0.4329(4) 0.3032(4) 0.9052(13)
O16_2 O 0.4293(4) 0.3672(4) 0.5786(12)
H21_3 H 0.425145 0.5 0.655161
O3 O 0.7959(4) 0.6822(4) 0.3952(13)
C3 C 0.7867(5) 0.5687(5) 0.1717(17)
C4 C 0.7639(8) 0.5000 0.264(2)
H2 H 0.7347 0.5000 0.3829
C6 C 0.7581(5) 0.6392(5) 0.2796(16)
C11 C 0.7867(5) 0.4313(5) 0.1717(17)
C12 C 0.7581(5) 0.3608(5) 0.2796(16)
O9 O 0.7959(4) 0.3178(4) 0.3952(13)
O1 O 0.8967(4) 0.6436(4) 0.7513(13)
O2 O 0.8102(4) 0.6972(4) 0.8867(12)
O7 O 0.9375(5) 0.7224(5) 0.3228(16)
O8 O 0.8260(4) 0.8313(4) 0.2567(13)
C1 C 0.8497(8) 0.5000 0.905(2)
H1 H 0.8780 0.5000 0.7831
C2 C 0.8289(5) 0.5685(5) 0.9942(17)
C5 C 0.8474(6) 0.6407(5) 0.8723(18)
C10 C 0.8289(5) 0.4315(5) 0.9942(17)
C13 C 0.8474(6) 0.3593(5) 0.8723(18)
O11 O 0.8967(4) 0.3564(4) 0.7513(13)
O12 O 0.8102(4) 0.3028(4) 0.8867(12)
O27 O 0.9375(5) 0.2776(5) 0.3228(16)
O28 O 0.8260(4) 0.1687(4) 0.2567(13)
O3_2 O 0.2959(4) 0.1822(4) 0.3952(13)
C3_2 C 0.2867(5) 0.0687(5) 0.1717(17)
C4_2 C 0.2639(8) 0.0000 0.264(2)
H2_2 H 0.2347 0.0000 0.3829
C6_2 C 0.2581(5) 0.1392(5) 0.2796(16)
O1_2 O 0.3967(4) 0.1436(4) 0.7513(13)
O2_2 O 0.3102(4) 0.1972(4) 0.8867(12)
O7_2 O 0.4375(5) 0.2224(5) 0.3228(16)
O8_2 O 0.3260(4) 0.3313(4) 0.2567(13)
C1_2 C 0.3497(8) 0.0000 0.905(2)
H1_2 H 0.3780 0.0000 0.7831
C2_2 C 0.3289(5) 0.0685(5) 0.9942(17)
C5_2 C 0.3474(6) 0.1407(5) 0.8723(18)
C4_3 C 0.2639(8) 1.0000 0.264(2)
H2_3 H 0.2347 1.0000 0.3829
C11_2 C 0.2867(5) 0.9313(5) 0.1717(17)
C12_2 C 0.2581(5) 0.8608(5) 0.2796(16)
O9_2 O 0.2959(4) 0.8178(4) 0.3952(13)
C1_3 C 0.3497(8) 1.0000 0.905(2)
H1_3 H 0.3780 1.0000 0.7831
C10_2 C 0.3289(5) 0.9315(5) 0.9942(17)
C13_2 C 0.3474(6) 0.8593(5) 0.8723(18)
O11_2 O 0.3967(4) 0.8564(4) 0.7513(13)
O12_2 O 0.3102(4) 0.8028(4) 0.8867(12)
O27_2 O 0.4375(5) 0.7776(5) 0.3228(16)
O28_2 O 0.3260(4) 0.6687(4) 0.2567(13)
loop_
_geom_bond_atom_site_label_1
_geom_bond_atom_site_label_2
_geom_bond_site_symmetry_1
_geom_bond_site_symmetry_2
O19 C25 1_555 1_555
O20 C25 1_555 1_555
C21 H3 1_555 1_555
C22 C21 1_555 1_555
C25 C22 1_555 1_555
C27 C21 1_555 1_555
C30 C27 1_555 1_555
O25 C30 1_555 1_555
O26 C30 1_555 1_555
Yb3 O19 1_555 1_555
Yb4 O25 1_555 1_555
O29 Yb3 1_555 1_555
O30 Yb3 1_555 1_555
O31 Yb4 1_555 1_555
O32 Yb4 1_555 1_555
O37 Yb3 1_555 1_555
O38 Yb3 1_555 1_555
O39 Yb3 1_555 1_555
O40 Yb3 1_555 1_555
O41 Yb4 1_555 1_555
O42 Yb4 1_555 1_555
O43 Yb4 1_555 1_555
O44 Yb4 1_555 1_555
O20 Yb3 1_555 1_555
O26 Yb4 1_555 1_555
C7 O39 1_555 1_555
C8 C7 1_555 1_555
C9 C8 1_555 1_555
O22 C26 1_555 1_555
C24 C23 1_555 1_555
H4 C24 1_555 1_555
C26 O37 1_555 1_555
C28 C24 1_555 1_555
C29 C28 1_555 1_555
O41 C29 1_555 1_555
O24 C29 1_555 1_555
Yb12 O22 1_555 1_555
Yb13 O24 1_555 1_555
O40 C7 1_555 1_555
C23 C26 1_555 1_555
C9 H22 1_555 1_555
C19 C9_2 1_555 1_555
C20 C19 1_555 1_555
O43 C20 1_555 1_555
O44 C20 1_555 1_555
C9_2 H22_2 1_555 1_555
C15 C14 1_555 1_555
O13 C15 1_555 1_555
O14 C15 1_555 1_555
C16 C14 1_555 1_555
Yb9 O13 1_555 1_555
O14 Yb9 1_555 1_555
C16 H21 1_555 1_555
C17 C16_2 1_555 1_555
C18 C17 1_555 1_555
O15 C18 1_555 1_555
O16 C18 1_555 1_555
Yb10 O15 1_555 1_555
O16 Yb10 1_555 1_555
C16_2 H21_2 1_555 1_555
C21_2 H3_2 1_555 1_555
C27_2 C21_2 1_555 1_555
C30_2 C27_2 1_555 1_555
O25_2 C30_2 1_555 1_555
O26_2 C30_2 1_555 1_555
Yb4_2 O25_2 1_555 1_555
O31_2 Yb4_2 1_555 1_555
O32_2 Yb4_2 1_555 1_555
O41_2 Yb4_2 1_555 1_555
O42_2 Yb4_2 1_555 1_555
O43_2 Yb4_2 1_555 1_555
O44_2 Yb4_2 1_555 1_555
O26_2 Yb4_2 1_555 1_555
H4_2 C24_2 1_555 1_555
C28_2 C24_2 1_555 1_555
C29_2 C28_2 1_555 1_555
O41_2 C29_2 1_555 1_555
O24_2 C29_2 1_555 1_555
Yb9 O24_2 1_555 1_555
O19_2 C25_2 1_555 1_555
O20_2 C25_2 1_555 1_555
C21_3 H3_3 1_555 1_555
C22_2 C21_3 1_555 1_555
C25_2 C22_2 1_555 1_555
Yb3_2 O19_2 1_555 1_555
O29_2 Yb3_2 1_555 1_555
O30_2 Yb3_2 1_555 1_555
O37_2 Yb3_2 1_555 1_555
O38_2 Yb3_2 1_555 1_555
O39_2 Yb3_2 1_555 1_555
O40_2 Yb3_2 1_555 1_555
O20_2 Yb3_2 1_555 1_555
C7_2 O39_2 1_555 1_555
C8_2 C7_2 1_555 1_555
C9_3 C8_2 1_555 1_555
C19_2 C9_3 1_555 1_555
C20_2 C19_2 1_555 1_555
O43_2 C20_2 1_555 1_555
O44_2 C20_2 1_555 1_555
O22_2 C26_2 1_555 1_555
C24_3 C23_2 1_555 1_555
H4_3 C24_3 1_555 1_555
C26_2 O37_2 1_555 1_555
Yb10 O22_2 1_555 1_555
O40_2 C7_2 1_555 1_555
C23_2 C26_2 1_555 1_555
C9_3 H22_3 1_555 1_555
C15_2 C14_2 1_555 1_555
O13_2 C15_2 1_555 1_555
O14_2 C15_2 1_555 1_555
C16_3 C14_2 1_555 1_555
C17_2 C16_3 1_555 1_555
C18_2 C17_2 1_555 1_555
O15_2 C18_2 1_555 1_555
O16_2 C18_2 1_555 1_555
Yb13 O13_2 1_555 1_555
Yb12 O15_2 1_555 1_555
O14_2 Yb13 1_555 1_555
O16_2 Yb12 1_555 1_555
C16_3 H21_3 1_555 1_555
O3 C6 1_555 1_555
O38_2 C6 1_555 1_555
C4 C3 1_555 1_555
H2 C4 1_555 1_555
C6 C3 1_555 1_555
C11 C4 1_555 1_555
C12 C11 1_555 1_555
O9 C12 1_555 1_555
O42_2 C12 1_555 1_555
Yb10 O3 1_555 1_555
Yb9 O9 1_555 1_555
Yb10 O1 1_555 1_555
O1 C5 1_555 1_555
O2 Yb10 1_555 1_555
O7 Yb10 1_555 1_555
O8 Yb10 1_555 1_555
C1 H1 1_555 1_555
C2 C1 1_555 1_555
C5 O2 1_555 1_555
C10 C1 1_555 1_555
C13 C10 1_555 1_555
O11 C13 1_555 1_555
O12 C13 1_555 1_555
Yb9 O11 1_555 1_555
O27 Yb9 1_555 1_555
O28 Yb9 1_555 1_555
C2 C5 1_555 1_555
O12 Yb9 1_555 1_555
O3_2 C6_2 1_555 1_555
O38 C6_2 1_555 1_555
C4_2 C3_2 1_555 1_555
H2_2 C4_2 1_555 1_555
C6_2 C3_2 1_555 1_555
Yb12 O3_2 1_555 1_555
Yb12 O1_2 1_555 1_555
O1_2 C5_2 1_555 1_555
O2_2 Yb12 1_555 1_555
O7_2 Yb12 1_555 1_555
O8_2 Yb12 1_555 1_555
C1_2 H1_2 1_555 1_555
C2_2 C1_2 1_555 1_555
C5_2 O2_2 1_555 1_555
C2_2 C5_2 1_555 1_555
H2_3 C4_3 1_555 1_555
C11_2 C4_3 1_555 1_555
C12_2 C11_2 1_555 1_555
O9_2 C12_2 1_555 1_555
O42 C12_2 1_555 1_555
Yb13 O9_2 1_555 1_555
C1_3 H1_3 1_555 1_555
C10_2 C1_3 1_555 1_555
C13_2 C10_2 1_555 1_555
O11_2 C13_2 1_555 1_555
O12_2 C13_2 1_555 1_555
Yb13 O11_2 1_555 1_555
O27_2 Yb13 1_555 1_555
O28_2 Yb13 1_555 1_555
O12_2 Yb13 1_555 1_555

#END
