
###############################################################################
#
# This file contains modified crystal structure data generated from the
# MOF subset of the Cambridge Structural Database (CSD) v543 
# hosted by the Cambridge Crystallographic Data Centre (CCDC).
#
# This work is licensed under the Creative Commons
# Attribution-NonCommercial-ShareAlike 4.0 International License.
# To view a copy of this license, visit
# http://creativecommons.org/licenses/by-nc-sa/4.0/
# or send a letter to
# Creative Commons, PO Box 1866, Mountain View, CA 94042, USA.
#
# CIF created using the CSD Python API on 29 September 2022
# The structure has been converted into the P1 space group
# The structure has a 3D framework
# The original CSD entry MITGUR is in the monoclinic crystal system
# The framework has been calculated to contain at least 10.0% void space
# The void calculation uses a probe of radius 1.32A, grid spacing 0.4
# H atom positions have been added when not included in the experimental data
# Generated hydrogen atom positions removed from atoms on special positions
#
###############################################################################

data_MITGUR
_chemical_formula_moiety         '(C40 H28 O36 Tb2)n'
_symmetry_cell_setting           triclinic
_symmetry_space_group_name_H-M   'P 1'
_symmetry_Int_Tables_number      1
_space_group_name_Hall           'P 1'
loop_
_symmetry_equiv_pos_site_id
_symmetry_equiv_pos_as_xyz
1 x,y,z
_cell_length_a                   10.7246(12)
_cell_length_b                   7.1693(9)
_cell_length_c                   17.158(2)
_cell_angle_alpha                90
_cell_angle_beta                 97.109(2)
_cell_angle_gamma                90
_cell_volume                     1309.1
loop_
_atom_site_label
_atom_site_type_symbol
_atom_site_fract_x
_atom_site_fract_y
_atom_site_fract_z
H10 H 0.427261 0.00816512 0.497365
Tb1 Tb 0.17571(5) 0.52005(7) 0.74673(3)
O2 O 0.0836(8) 0.4239(10) 0.6139(5)
O3 O 0.1465(7) 0.1904(9) 0.6917(4)
O6 O 0.3452(7) 0.4712(11) 0.6763(4)
O7 O 0.3861(7) 0.1788(10) 0.6432(4)
O8 O 0.6520(8) 0.1806(11) 0.6495(5)
O9 O 0.6503(9) 0.0440(12) 0.5323(5)
C1 C 0.0069(11) 0.1873(15) 0.4889(7)
H1 H 0.0099 0.3155 0.4812
C2 C 0.0495(11) 0.1180(14) 0.5622(7)
C4 C 0.0951(10) 0.2515(16) 0.6267(7)
C6 C 0.4016(11) 0.5892(15) 0.5299(7)
H2 H 0.3355 0.6498 0.5496
C7 C 0.4520(11) 0.4283(15) 0.5677(7)
C8 C 0.5531(11) 0.3389(16) 0.5361(7)
C9 C 0.3891(10) 0.3525(16) 0.6359(7)
C10 C 0.6203(11) 0.1806(17) 0.5778(7)
C16 C 0.4469(11) 0.6611(16) 0.4639(7)
C17 C 0.5480(11) 0.5717(15) 0.4323(7)
C18 C 0.5984(11) 0.4108(15) 0.4701(7)
H4 H 0.6645 0.3502 0.4504
C19 C 0.6109(10) 0.6475(16) 0.3641(7)
O14 O 0.6548(7) 0.5288(11) 0.3237(4)
O15 O 0.6139(7) 0.8212(10) 0.3568(4)
C20 C 0.3797(11) 0.8194(17) 0.4222(7)
O16 O 0.3480(8) 0.8194(11) 0.3505(5)
O17 O 0.3497(9) 0.9560(12) 0.4677(5)
O19 O 0.3535(7) 0.6904(9) 0.8083(4)
O20 O 0.2051(7) 0.8080(11) 0.6701(4)
O21 O 0.2949(7) 0.3080(11) 0.8299(4)
O22 O 0.0062(7) 0.7479(10) 0.6850(4)
O23 O 0.1139(7) 0.6788(10) 0.8568(4)
Tb3 Tb 0.32429(5) 0.02005(7) 0.75327(3)
Tb7 Tb 0.82429(5) 0.47995(7) 0.25327(3)
Tb8 Tb 0.67571(5) 0.97995(7) 0.24673(3)
C3 C 0.0406(11) 0.9242(14) 0.5741(7)
C5 C 0.0860(12) 0.8276(15) 0.6488(7)
O18 O 0.0105(8) 0.6159(12) 0.2175(5)
H7 H 0.61434 0.925144 0.549153
O1 O 0.9895(8) 0.3841(12) 0.7825(5)
C11 C 0.9594(11) 0.0758(14) 0.4259(7)
C15 C 0.9140(12) 0.1724(15) 0.3512(7)
O12 O 0.7949(7) 0.1920(11) 0.3299(4)
O13 O 0.9938(7) 0.2521(10) 0.3150(4)
C12 C 0.9505(11) 0.8820(14) 0.4378(7)
C13 C 0.9931(11) 0.8127(15) 0.5111(7)
H3 H 0.9901 0.6845 0.5188
C14 C 0.9049(10) 0.7485(16) 0.3733(7)
O10 O 0.9164(8) 0.5761(10) 0.3861(5)
O11 O 0.8535(7) 0.8096(9) 0.3083(4)
O24 O 0.6465(7) 0.3096(9) 0.1917(4)
O25 O 0.7051(7) 0.6920(11) 0.1701(4)
O29 O 0.8861(7) 0.3212(10) 0.1432(4)
C18_2 C 0.0984(11) 0.0892(15) 0.9701(7)
H4_2 H 0.1645 0.1498 0.9504
C17_2 C 0.0480(11) 0.9283(15) 0.9323(7)
C19_2 C 0.1109(10) 0.8525(16) 0.8641(7)
O14_2 O 0.1548(7) 0.9712(11) 0.8237(4)
O27 O 0.4938(7) 0.2479(10) 0.8150(4)
O1_2 O 0.4895(8) 0.1159(12) 0.2825(5)
O2_2 O 0.5836(8) 0.0761(10) 0.1139(5)
O5 O 0.5062(7) 0.7521(10) 0.1850(4)
O6_2 O 0.8452(7) 0.0288(11) 0.1763(4)
C2_2 C 0.5495(11) 0.3820(14) 0.0622(7)
C3_2 C 0.5406(11) 0.5758(14) 0.0741(7)
C4_2 C 0.5951(10) 0.2485(16) 0.1267(7)
C5_2 C 0.5860(12) 0.6724(15) 0.1488(7)
C7_2 C 0.9520(11) 0.0717(15) 0.0677(7)
C9_2 C 0.8891(10) 0.1475(16) 0.1359(7)
C13_2 C 0.4931(11) 0.6873(15) 0.0111(7)
H3_2 H 0.4901 0.8155 0.0188
C1_2 C 0.5069(11) 0.3127(15) 0.9889(7)
H1_2 H 0.5099 0.1845 0.9812
C11_2 C 0.4594(11) 0.4242(14) 0.9259(7)
C12_2 C 0.4505(11) 0.6180(14) 0.9378(7)
C14_2 C 0.4049(10) 0.7515(16) 0.8733(7)
O10_2 O 0.4164(8) 0.9239(10) 0.8861(5)
C15_2 C 0.4140(12) 0.3276(15) 0.8512(7)
O18_2 O 0.5105(8) 0.8841(12) 0.7175(5)
C6_2 C 0.9016(11) 0.9108(15) 0.0299(7)
H2_2 H 0.8355 0.8502 0.0496
H7_2 H 0.38566 0.0748561 0.450847
O8_2 O 0.1520(8) 0.3194(11) 0.1495(5)
O9_2 O 0.1503(9) 0.4560(12) 0.0323(5)
C8_2 C 0.0531(11) 0.1611(16) 0.0361(7)
C10_2 C 0.1203(11) 0.3194(17) 0.0778(7)
H7_3 H 0.11434 0.574856 0.0491531
H10_2 H 0.0727393 0.508165 0.00263508
C16_2 C 0.9469(11) 0.8389(16) 0.9639(7)
C20_2 C 0.8797(11) 0.6806(17) 0.9222(7)
O16_2 O 0.8480(8) 0.6806(11) 0.8505(5)
O17_2 O 0.8497(9) 0.5440(12) 0.9677(5)
H10_3 H 0.927261 0.491835 0.997365
H7_4 H 0.88566 0.425144 0.950847
H10_4 H 0.572739 0.991835 0.502635
loop_
_geom_bond_atom_site_label_1
_geom_bond_atom_site_label_2
_geom_bond_site_symmetry_1
_geom_bond_site_symmetry_2
O2 Tb1 1_555 1_555
O3 Tb1 1_555 1_555
O6 Tb1 1_555 1_555
O7 C9 1_555 1_555
O8 C10 1_555 1_555
O9 C10 1_555 1_555
C1 H1 1_555 1_555
C2 C1 1_555 1_555
C4 O2 1_555 1_555
C6 H2 1_555 1_555
C7 C6 1_555 1_555
C8 C7 1_555 1_555
C9 O6 1_555 1_555
C10 C8 1_555 1_555
C16 C6 1_555 1_555
C17 C16 1_555 1_555
C18 C8 1_555 1_555
H4 C18 1_555 1_555
C19 C17 1_555 1_555
O14 C19 1_555 1_555
O15 C19 1_555 1_555
C20 C16 1_555 1_555
O16 C20 1_555 1_555
O17 C20 1_555 1_555
O19 Tb1 1_555 1_555
O20 Tb1 1_555 1_555
O21 Tb1 1_555 1_555
O22 Tb1 1_555 1_555
O23 Tb1 1_555 1_555
Tb3 O3 1_555 1_555
Tb7 O14 1_555 1_555
Tb8 O15 1_555 1_555
O3 C4 1_555 1_555
O7 Tb3 1_555 1_555
C2 C4 1_555 1_555
C7 C9 1_555 1_555
C17 C18 1_555 1_555
O21 Tb3 1_555 1_555
O20 C5 1_555 1_555
O22 C5 1_555 1_555
C5 C3 1_555 1_555
C15 C11 1_555 1_555
O12 C15 1_555 1_555
O13 C15 1_555 1_555
Tb7 O12 1_555 1_555
O13 Tb7 1_555 1_555
H3 C13 1_555 1_555
C14 C12 1_555 1_555
O10 C14 1_555 1_555
O11 C14 1_555 1_555
Tb7 O10 1_555 1_555
Tb8 O11 1_555 1_555
O24 Tb7 1_555 1_555
O25 Tb7 1_555 1_555
O29 Tb7 1_555 1_555
C12 C13 1_555 1_555
O11 Tb7 1_555 1_555
Tb8 O25 1_555 1_555
H4_2 C18_2 1_555 1_555
C19_2 C17_2 1_555 1_555
O14_2 C19_2 1_555 1_555
O23 C19_2 1_555 1_555
O27 Tb3 1_555 1_555
O25 C5_2 1_555 1_555
O5 C5_2 1_555 1_555
O29 C9_2 1_555 1_555
C3_2 C2_2 1_555 1_555
C4_2 O2_2 1_555 1_555
C5_2 C3_2 1_555 1_555
C9_2 O6_2 1_555 1_555
C13_2 C3_2 1_555 1_555
H3_2 C13_2 1_555 1_555
O24 C4_2 1_555 1_555
O5 Tb8 1_555 1_555
C2_2 C4_2 1_555 1_555
C7_2 C9_2 1_555 1_555
C1_2 H1_2 1_555 1_555
C11_2 C1_2 1_555 1_555
C12_2 C11_2 1_555 1_555
C14_2 C12_2 1_555 1_555
O10_2 C14_2 1_555 1_555
O19 C14_2 1_555 1_555
C15_2 C11_2 1_555 1_555
O21 C15_2 1_555 1_555
O27 C15_2 1_555 1_555
C6_2 H2_2 1_555 1_555
O8_2 C10_2 1_555 1_555
O9_2 C10_2 1_555 1_555
C10_2 C8_2 1_555 1_555
O9_2 H7_3 1_555 1_555
O9_2 H10_2 1_555 1_555
C20_2 C16_2 1_555 1_555
O16_2 C20_2 1_555 1_555
O17_2 C20_2 1_555 1_555
O17_2 H10_3 1_555 1_555
O17_2 H7_4 1_555 1_555

#END
