
###############################################################################
#
# This file contains modified crystal structure data generated from the
# MOF subset of the Cambridge Structural Database (CSD) v543 
# hosted by the Cambridge Crystallographic Data Centre (CCDC).
#
# This work is licensed under the Creative Commons
# Attribution-NonCommercial-ShareAlike 4.0 International License.
# To view a copy of this license, visit
# http://creativecommons.org/licenses/by-nc-sa/4.0/
# or send a letter to
# Creative Commons, PO Box 1866, Mountain View, CA 94042, USA.
#
# CIF created using the CSD Python API on 29 September 2022
# The structure has been converted into the P1 space group
# The structure has a 3D framework
# The original CSD entry MITQEM is in the monoclinic crystal system
# The framework has been calculated to contain at least 10.0% void space
# The void calculation uses a probe of radius 1.32A, grid spacing 0.4
#
###############################################################################

data_MITQEM
_chemical_formula_moiety         '(C36 H32 N4 Nd4 O28)n'
_symmetry_cell_setting           triclinic
_symmetry_space_group_name_H-M   'P 1'
_symmetry_Int_Tables_number      1
_space_group_name_Hall           'P 1'
loop_
_symmetry_equiv_pos_site_id
_symmetry_equiv_pos_as_xyz
1 x,y,z
_cell_length_a                   9.412(5)
_cell_length_b                   8.372(4)
_cell_length_c                   16.858(8)
_cell_angle_alpha                90
_cell_angle_beta                 105.969(5)
_cell_angle_gamma                90
_cell_volume                     1277.1
loop_
_atom_site_label
_atom_site_type_symbol
_atom_site_fract_x
_atom_site_fract_y
_atom_site_fract_z
Nd4 Nd 0.166434(19) 0.06730(2) 0.098850(11)
O1 O 0.2320(3) 0.2803(4) 0.20172(17)
O2 O 0.3784(4) 0.4687(4) 0.27358(19)
O3 O 0.7433(3) 0.0369(4) 0.01525(18)
O4 O 0.9254(3) 0.1659(4) 0.10547(17)
O6 O 0.1668(4) 0.3188(4) 0.01589(19)
N1 N 0.4386(3) 0.1824(4) 0.1333(2)
C1 C 0.5415(4) 0.1293(5) 0.1000(2)
H1 H 0.5156 0.0466 0.0600
C2 C 0.6853(4) 0.1877(5) 0.1200(2)
C3 C 0.7229(4) 0.3044(5) 0.1800(3)
H2 H 0.8214 0.3435 0.1975
C4 C 0.6160(5) 0.3641(6) 0.2144(3)
H3 H 0.6390 0.4465 0.2546
C5 C 0.4748(4) 0.3006(5) 0.1886(2)
C6 C 0.3526(4) 0.3562(5) 0.2242(2)
C7 C 0.7944(4) 0.1253(5) 0.0766(2)
Nd2 Nd 0.333566(19) 0.56730(2) 0.401150(11)
O7 O 0.3464(4) 0.8449(4) 0.1546(2)
H7 H 0.4043 0.8851 0.1968
H8 H 0.3738 0.7760 0.1258
O8 O 0.1216(4) 0.9687(4) 0.22642(19)
O11 O 0.0062(3) 0.8453(3) 0.04831(17)
Nd3 Nd 0.833566(19) 0.93270(2) 0.901150(11)
O9 O 0.2567(3) 0.9631(4) 0.98475(18)
O5 O 0.9938(3) 0.1547(3) 0.95169(17)
H5 H 0.9018 0.4008 0.8654
H4 H 0.4587 0.0112 0.5933
O1_2 O 0.2680(3) 0.7803(4) 0.29828(17)
O5_2 O 0.5062(3) 0.6547(3) 0.54831(17)
O6_2 O 0.3332(4) 0.8188(4) 0.48411(19)
O7_2 O 0.1536(4) 0.3449(4) 0.3454(2)
N1_2 N 0.0614(3) 0.6824(4) 0.3667(2)
C5_2 C 0.0252(4) 0.8006(5) 0.3114(2)
C6_2 C 0.1474(4) 0.8562(5) 0.2758(2)
C8 C 0.4408(4) 0.7864(5) 0.5453(2)
C9 C 0.4902(6) 0.9037(6) 0.6138(3)
H5_2 H 0.5982 0.9008 0.6346
H6 H 0.4463 0.8764 0.6584
H7_2 H 0.0957 0.3851 0.3032
H8_2 H 0.1262 0.2760 0.3742
Nd5 Nd 0.666434(19) 0.43270(2) 0.598850(11)
O9_2 O 0.2433(3) 0.4631(4) 0.51525(18)
O10 O 0.5746(3) 0.6659(4) 0.39453(17)
O11_2 O 0.4938(3) 0.3453(3) 0.45169(17)
O3_2 O 0.7567(3) 0.5369(4) 0.48475(18)
C1_2 C 0.9585(4) 0.6293(5) 0.4000(2)
H1_2 H 0.9844 0.5466 0.4400
C2_2 C 0.8147(4) 0.6877(5) 0.3800(2)
C3_2 C 0.7771(4) 0.8044(5) 0.3200(3)
H2_2 H 0.6786 0.8435 0.3025
C4_2 C 0.8840(5) 0.8641(6) 0.2856(3)
H3_2 H 0.8610 0.9465 0.2454
C7_2 C 0.7056(4) 0.6253(5) 0.4234(2)
H5_3 H 0.0982 0.5992 0.1346
O10_2 O 0.0746(3) 0.8341(4) 0.89453(17)
O7_3 O 0.6536(4) 0.1551(4) 0.8454(2)
H7_3 H 0.5957 0.1149 0.8032
H8_3 H 0.6262 0.2240 0.8742
O8_2 O 0.8784(4) 0.0313(4) 0.77358(19)
O1_3 O 0.7680(3) 0.7197(4) 0.79828(17)
O2_2 O 0.6216(4) 0.5313(4) 0.72642(19)
O6_3 O 0.8332(4) 0.6812(4) 0.98411(19)
N1_3 N 0.5614(3) 0.8176(4) 0.8667(2)
C1_3 C 0.4585(4) 0.8707(5) 0.9000(2)
H1_3 H 0.4844 0.9534 0.9400
C2_3 C 0.3147(4) 0.8123(5) 0.8800(2)
C3_3 C 0.2771(4) 0.6956(5) 0.8200(3)
H2_3 H 0.1786 0.6565 0.8025
C4_3 C 0.3840(5) 0.6359(6) 0.7856(3)
H3_3 H 0.3610 0.5535 0.7454
C5_3 C 0.5252(4) 0.6994(5) 0.8114(2)
C6_3 C 0.6474(4) 0.6438(5) 0.7758(2)
C7_3 C 0.2056(4) 0.8747(5) 0.9234(2)
O4_2 O 0.4254(3) 0.3341(4) 0.60547(17)
C1_4 C 0.0415(4) 0.3707(5) 0.6000(2)
H1_4 H 0.0156 0.4534 0.5600
C2_4 C 0.1853(4) 0.3123(5) 0.6200(2)
C3_4 C 0.2229(4) 0.1956(5) 0.6800(3)
H2_4 H 0.3214 0.1565 0.6975
C4_4 C 0.1160(5) 0.1359(6) 0.7144(3)
H3_4 H 0.1390 0.0535 0.7546
C7_4 C 0.2944(4) 0.3747(5) 0.5766(2)
O1_4 O 0.7320(3) 0.2197(4) 0.70172(17)
O6_4 O 0.6668(4) 0.1812(4) 0.51589(19)
O7_4 O 0.8464(4) 0.6551(4) 0.6546(2)
N1_4 N 0.9386(3) 0.3176(4) 0.6333(2)
C5_4 C 0.9748(4) 0.1994(5) 0.6886(2)
C6_4 C 0.8526(4) 0.1438(5) 0.7242(2)
C8_2 C 0.5592(4) 0.2136(5) 0.4547(2)
C9_2 C 0.5098(6) 0.0963(6) 0.3862(3)
H5_4 H 0.4018 0.0992 0.3654
H6_2 H 0.5537 0.1236 0.3416
H7_4 H 0.9043 0.6149 0.6968
H8_4 H 0.8738 0.7240 0.6258
H4_2 H 0.5413 0.9888 0.4067
C8_3 C 0.0592(4) 0.2864(5) 0.9547(2)
C9_3 C 0.0098(6) 0.4037(6) 0.8862(3)
H4_3 H 0.0413 0.5112 0.9067
H6_3 H 0.0537 0.3764 0.8416
C8_4 C 0.9408(4) 0.7136(5) 0.0453(2)
C9_4 C 0.9902(6) 0.5963(6) 0.1138(3)
H4_4 H 0.9587 0.4888 0.0933
H6_4 H 0.9463 0.6236 0.1584
loop_
_geom_bond_atom_site_label_1
_geom_bond_atom_site_label_2
_geom_bond_site_symmetry_1
_geom_bond_site_symmetry_2
Nd4 O1 1_555 1_555
O1 C6 1_555 1_555
O2 C6 1_555 1_555
O3 C7 1_555 1_555
O4 C7 1_555 1_555
O6 Nd4 1_555 1_555
N1 Nd4 1_555 1_555
C1 N1 1_555 1_555
H1 C1 1_555 1_555
C2 C1 1_555 1_555
C3 C2 1_555 1_555
H2 C3 1_555 1_555
C4 C3 1_555 1_555
H3 C4 1_555 1_555
C5 N1 1_555 1_555
C6 C5 1_555 1_555
C7 C2 1_555 1_555
Nd2 O2 1_555 1_555
C4 C5 1_555 1_555
H7 O7 1_555 1_555
H8 O7 1_555 1_555
Nd2 O1_2 1_555 1_555
O1_2 C6_2 1_555 1_555
O8 C6_2 1_555 1_555
O5_2 Nd2 1_555 1_555
O6_2 Nd2 1_555 1_555
O7_2 Nd2 1_555 1_555
N1_2 Nd2 1_555 1_555
C5_2 N1_2 1_555 1_555
C6_2 C5_2 1_555 1_555
C8 O5_2 1_555 1_555
C9 C8 1_555 1_555
H5_2 C9 1_555 1_555
H6 C9 1_555 1_555
H7_2 O7_2 1_555 1_555
H8_2 O7_2 1_555 1_555
Nd5 O5_2 1_555 1_555
O9_2 Nd2 1_555 1_555
O10 Nd2 1_555 1_555
O11_2 Nd2 1_555 1_555
O6_2 C8 1_555 1_555
Nd5 O11_2 1_555 1_555
O3_2 C7_2 1_555 1_555
O10 C7_2 1_555 1_555
H1_2 C1_2 1_555 1_555
C2_2 C1_2 1_555 1_555
C3_2 C2_2 1_555 1_555
H2_2 C3_2 1_555 1_555
C4_2 C3_2 1_555 1_555
H3_2 C4_2 1_555 1_555
C7_2 C2_2 1_555 1_555
Nd5 O3_2 1_555 1_555
H7_3 O7_3 1_555 1_555
H8_3 O7_3 1_555 1_555
Nd3 O1_3 1_555 1_555
O1_3 C6_3 1_555 1_555
O2_2 C6_3 1_555 1_555
O9 C7_3 1_555 1_555
O10_2 C7_3 1_555 1_555
O6_3 Nd3 1_555 1_555
N1_3 Nd3 1_555 1_555
C1_3 N1_3 1_555 1_555
H1_3 C1_3 1_555 1_555
C2_3 C1_3 1_555 1_555
C3_3 C2_3 1_555 1_555
H2_3 C3_3 1_555 1_555
C4_3 C3_3 1_555 1_555
H3_3 C4_3 1_555 1_555
C5_3 N1_3 1_555 1_555
C6_3 C5_3 1_555 1_555
C7_3 C2_3 1_555 1_555
Nd5 O2_2 1_555 1_555
C4_3 C5_3 1_555 1_555
O9_2 C7_4 1_555 1_555
O4_2 C7_4 1_555 1_555
H1_4 C1_4 1_555 1_555
C2_4 C1_4 1_555 1_555
C3_4 C2_4 1_555 1_555
H2_4 C3_4 1_555 1_555
C4_4 C3_4 1_555 1_555
H3_4 C4_4 1_555 1_555
C7_4 C2_4 1_555 1_555
Nd5 O4_2 1_555 1_555
Nd5 O1_4 1_555 1_555
O1_4 C6_4 1_555 1_555
O8_2 C6_4 1_555 1_555
O6_4 Nd5 1_555 1_555
O7_4 Nd5 1_555 1_555
N1_4 Nd5 1_555 1_555
C5_4 N1_4 1_555 1_555
C6_4 C5_4 1_555 1_555
C8_2 O11_2 1_555 1_555
C9_2 C8_2 1_555 1_555
H5_4 C9_2 1_555 1_555
H6_2 C9_2 1_555 1_555
H7_4 O7_4 1_555 1_555
H8_4 O7_4 1_555 1_555
O6_4 C8_2 1_555 1_555
C9_3 C8_3 1_555 1_555
H4_3 C9_3 1_555 1_555
H6_3 C9_3 1_555 1_555
C9_4 C8_4 1_555 1_555
H4_4 C9_4 1_555 1_555
H6_4 C9_4 1_555 1_555

#END
