
###############################################################################
#
# This file contains modified crystal structure data generated from the
# MOF subset of the Cambridge Structural Database (CSD) v543 
# hosted by the Cambridge Crystallographic Data Centre (CCDC).
#
# This work is licensed under the Creative Commons
# Attribution-NonCommercial-ShareAlike 4.0 International License.
# To view a copy of this license, visit
# http://creativecommons.org/licenses/by-nc-sa/4.0/
# or send a letter to
# Creative Commons, PO Box 1866, Mountain View, CA 94042, USA.
#
# CIF created using the CSD Python API on 29 September 2022
# The structure has been converted into the P1 space group
# The structure has a 3D framework
# The original CSD entry MITSIS is in the monoclinic crystal system
# The framework has been calculated to contain at least 10.0% void space
# The void calculation uses a probe of radius 1.32A, grid spacing 0.4
# The framework is charged, counterions have been retained in the structure
# H atom positions have been added when not included in the experimental data
#
###############################################################################

data_MITSIS
_chemical_formula_moiety         '(C132 H108 Cd12 N4 O74 8-)n'
_symmetry_cell_setting           triclinic
_symmetry_space_group_name_H-M   'P 1'
_symmetry_Int_Tables_number      1
_space_group_name_Hall           'P 1'
loop_
_symmetry_equiv_pos_site_id
_symmetry_equiv_pos_as_xyz
1 x,y,z
_cell_length_a                   10.243(2)
_cell_length_b                   36.485(8)
_cell_length_c                   17.971(4)
_cell_angle_alpha                90
_cell_angle_beta                 99.753(4)
_cell_angle_gamma                90
_cell_volume                     6618.98
loop_
_atom_site_label
_atom_site_type_symbol
_atom_site_fract_x
_atom_site_fract_y
_atom_site_fract_z
C1 C 0.4308(15) 0.0630(4) 0.6702(8)
H1 H 0.5040 0.0636 0.6424
H2 H 0.4143 0.0376 0.6810
C2 C 0.3256(19) 0.0760(5) 0.6265(10)
H3 H 0.3076 0.0616 0.5811
H4 H 0.3411 0.1010 0.6139
H5 H 0.2511 0.0748 0.6524
C3 C 0.3746(15) 0.0852(4) 0.7923(8)
H6 H 0.2975 0.0975 0.7645
H7 H 0.4057 0.0994 0.8376
C4 C 0.3341(16) 0.0448(4) 0.8154(9)
H8 H 0.2683 0.0465 0.8475
H9 H 0.4109 0.0324 0.8419
H10 H 0.2989 0.0312 0.7707
C5 C 0.6114(16) 0.0708(4) 0.7922(10)
H11 H 0.6189 0.0807 0.8428
H12 H 0.6076 0.0443 0.7968
C6 C 0.745(2) 0.0803(6) 0.7628(11)
H13 H 0.8193 0.0710 0.7979
H14 H 0.7536 0.1064 0.7585
H15 H 0.7446 0.0692 0.7143
N1 N 0.4751(10) 0.0835(2) 0.7474(5)
H25 H 0.489592 0.109892 0.732899
C1_2 C 0.5692(15) 0.5630(4) 0.8298(8)
H1_2 H 0.4960 0.5636 0.8576
H2_2 H 0.5857 0.5376 0.8190
C2_2 C 0.6744(19) 0.5760(5) 0.8735(10)
H3_2 H 0.6924 0.5616 0.9189
H4_2 H 0.6589 0.6010 0.8861
H5_2 H 0.7489 0.5748 0.8476
C3_2 C 0.6254(15) 0.5852(4) 0.7077(8)
H6_2 H 0.7025 0.5975 0.7355
H7_2 H 0.5943 0.5994 0.6624
C4_2 C 0.6659(16) 0.5448(4) 0.6846(9)
H8_2 H 0.7317 0.5465 0.6525
H9_2 H 0.5891 0.5324 0.6581
H10_2 H 0.7011 0.5312 0.7293
C5_2 C 0.3886(16) 0.5708(4) 0.7078(10)
H11_2 H 0.3811 0.5807 0.6572
H12_2 H 0.3924 0.5443 0.7032
C6_2 C 0.255(2) 0.5803(6) 0.7372(11)
H13_2 H 0.1807 0.5710 0.7021
H14_2 H 0.2464 0.6064 0.7415
H15_2 H 0.2554 0.5692 0.7857
N1_2 N 0.5249(10) 0.5835(2) 0.7526(5)
H25_2 H 0.510408 0.609892 0.767101
C1_3 C 0.5692(15) 0.9370(4) 0.3298(8)
H1_3 H 0.4960 0.9364 0.3576
H2_3 H 0.5857 0.9624 0.3190
C2_3 C 0.6744(19) 0.9240(5) 0.3735(10)
H3_3 H 0.6924 0.9384 0.4189
H4_3 H 0.6589 0.8990 0.3861
H5_3 H 0.7489 0.9252 0.3476
C3_3 C 0.6254(15) 0.9148(4) 0.2077(8)
H6_3 H 0.7025 0.9025 0.2355
H7_3 H 0.5943 0.9006 0.1624
C4_3 C 0.6659(16) 0.9552(4) 0.1846(9)
H8_3 H 0.7317 0.9535 0.1525
H9_3 H 0.5891 0.9676 0.1581
H10_3 H 0.7011 0.9688 0.2293
C5_3 C 0.3886(16) 0.9292(4) 0.2078(10)
H11_3 H 0.3811 0.9193 0.1572
H12_3 H 0.3924 0.9557 0.2032
C6_3 C 0.255(2) 0.9197(6) 0.2372(11)
H13_3 H 0.1807 0.9290 0.2021
H14_3 H 0.2464 0.8936 0.2415
H15_3 H 0.2554 0.9308 0.2857
N1_3 N 0.5249(10) 0.9165(2) 0.2526(5)
H25_3 H 0.510408 0.890108 0.267101
C1_4 C 0.4308(15) 0.4370(4) 0.1702(8)
H1_4 H 0.5040 0.4364 0.1424
H2_4 H 0.4143 0.4624 0.1810
C2_4 C 0.3256(19) 0.4240(5) 0.1265(10)
H3_4 H 0.3076 0.4384 0.0811
H4_4 H 0.3411 0.3990 0.1139
H5_4 H 0.2511 0.4252 0.1524
C3_4 C 0.3746(15) 0.4148(4) 0.2923(8)
H6_4 H 0.2975 0.4025 0.2645
H7_4 H 0.4057 0.4006 0.3376
C4_4 C 0.3341(16) 0.4552(4) 0.3154(9)
H8_4 H 0.2683 0.4535 0.3475
H9_4 H 0.4109 0.4676 0.3419
H10_4 H 0.2989 0.4688 0.2707
C5_4 C 0.6114(16) 0.4292(4) 0.2922(10)
H11_4 H 0.6189 0.4193 0.3428
H12_4 H 0.6076 0.4557 0.2968
C6_4 C 0.745(2) 0.4197(6) 0.2628(11)
H13_4 H 0.8193 0.4290 0.2979
H14_4 H 0.7536 0.3936 0.2585
H15_4 H 0.7446 0.4308 0.2143
N1_4 N 0.4751(10) 0.4165(2) 0.2474(5)
H25_4 H 0.489592 0.390108 0.232899
C25 C 0.2824(8) 0.1773(2) 0.8716(5)
C26 C 0.1598(6) 0.15979(19) 0.8908(4)
C27 C 0.1653(6) 0.12516(19) 0.9223(4)
H22 H 0.2455 0.1126 0.9323
C28 C 0.0516(7) 0.1093(2) 0.9389(4)
C29 C 0.0572(12) 0.0706(3) 0.9695(4)
C33 C 0.0361(7) 0.1787(2) 0.8737(5)
H24 H 0.0302 0.2015 0.8501
O9 O 0.2770(7) 0.20576(17) 0.8356(4)
O10 O 0.3910(5) 0.16063(14) 0.8947(3)
O18 O 0.1677(7) 0.05407(17) 0.9808(3)
Cd7 Cd 0.52492(5) 0.203076(12) 0.84699(3)
Cd6 Cd 0.15781(4) 0.995200(13) 0.00419(2)
C12 C 0.0458(5) 0.98360(16) 0.7263(3)
H17 H 0.1303 0.9831 0.7551
C13 C 0.0307(5) 0.98038(15) 0.6495(3)
C14 C 0.1507(5) 0.97616(16) 0.6126(3)
O6 O 0.0683(4) 0.98906(16) 0.8821(2)
O13 O 0.1384(4) 0.96565(14) 0.5460(2)
O14 O 0.2618(4) 0.98384(14) 0.6499(2)
Cd5 Cd 0.37450(3) 0.969392(10) 0.552703(19)
O21 O 0.9317(4) 0.01094(16) 0.1179(2)
H27 H 0.599859 0.0283339 0.0436193
Cd1 Cd 0.62550(3) 0.030608(10) 0.447297(19)
Cd2 Cd 0.84219(4) 0.004800(13) 0.99581(2)
C16 C 0.5981(6) 0.10190(17) 0.4867(3)
C17 C 0.5786(6) 0.13920(16) 0.5149(3)
C18 C 0.5683(6) 0.14498(16) 0.5885(3)
H19 H 0.5787 0.1251 0.6215
C19 C 0.5428(7) 0.17948(15) 0.6166(4)
C20 C 0.5262(7) 0.18452(16) 0.6968(4)
C21 C 0.5329(8) 0.20896(17) 0.5667(4)
H20 H 0.5158 0.2322 0.5838
C22 C 0.5482(7) 0.20428(17) 0.4914(4)
C23 C 0.5408(7) 0.2367(2) 0.4404(4)
C24 C 0.5688(7) 0.16943(17) 0.4657(4)
H21 H 0.5762 0.1659 0.4153
C30 C 0.9321(6) 0.1286(2) 0.9238(4)
H23 H 0.8555 0.1179 0.9352
C31 C 0.9258(6) 0.1621(2) 0.8933(4)
C32 C 0.7905(9) 0.1805(3) 0.8782(6)
O3 O 0.6133(5) 0.07562(11) 0.5337(2)
O4 O 0.6000(6) 0.09599(12) 0.4189(3)
O7 O 0.5193(6) 0.21596(12) 0.7220(3)
O8 O 0.5194(6) 0.15698(12) 0.7366(3)
O11 O 0.5323(6) 0.23206(13) 0.3701(3)
O12 O 0.5407(7) 0.26785(14) 0.4688(3)
O15 O 0.7818(8) 0.2105(3) 0.8457(6)
O16 O 0.6983(6) 0.1665(2) 0.8986(4)
O17 O 0.9458(7) 0.05789(18) 0.9790(4)
O19 O 0.6157(5) 0.02325(16) 0.9916(3)
Cd8 Cd 0.52492(5) 0.296924(12) 0.34699(3)
O20 O 0.4378(3) 0.01870(13) 0.3693(2)
O24 O 0.5323(6) 0.26794(13) 0.8701(3)
O25 O 0.5407(7) 0.23215(14) 0.9688(3)
O26 O 0.8616(4) 0.03435(14) 0.4540(2)
O27 O 0.7382(4) 0.01616(14) 0.3501(2)
H26 H 0.555841 0.00329815 0.969035
O28 O 0.8323(7) 0.94593(17) 0.0192(3)
C7 C 0.6577(5) 0.98254(15) 0.5955(3)
C8 C 0.7951(4) 0.98310(14) 0.6413(3)
C9 C 0.8115(5) 0.98658(15) 0.7186(3)
H16 H 0.7372 0.9883 0.7418
C10 C 0.9353(5) 0.98758(16) 0.7620(3)
C11 C 0.9526(6) 0.99043(19) 0.8468(3)
C15 C 0.9042(5) 0.98024(15) 0.6067(3)
H18 H 0.8936 0.9782 0.5544
O1 O 0.6438(3) 0.98185(10) 0.52507(19)
O2 O 0.5622(3) 0.98130(13) 0.6307(2)
O5 O 0.8493(5) 0.99540(15) 0.8743(2)
Cd1_2 Cd 0.37450(3) 0.530608(10) 0.052703(19)
C16_2 C 0.4019(6) 0.60190(17) 0.0133(3)
C22_2 C 0.4518(7) 0.70428(17) 0.0086(4)
C23_2 C 0.4592(7) 0.7367(2) 0.0596(4)
C24_2 C 0.4312(7) 0.66943(17) 0.0343(4)
H21_2 H 0.4238 0.6659 0.0847
O4_2 O 0.4000(6) 0.59599(12) 0.0811(3)
O11_2 O 0.4677(6) 0.73206(13) 0.1299(3)
O12_2 O 0.4593(7) 0.76785(14) 0.0312(3)
Cd8_2 Cd 0.47508(5) 0.796924(12) 0.15301(3)
O20_2 O 0.5622(3) 0.51870(13) 0.1307(2)
O26_2 O 0.1384(4) 0.53435(14) 0.0460(2)
O27_2 O 0.2618(4) 0.51616(14) 0.1499(2)
Cd2_2 Cd 0.15781(4) 0.504800(13) 0.50419(2)
Cd3 Cd 0.47508(5) 0.703076(12) 0.65301(3)
C7_2 C 0.3423(5) 0.48254(15) 0.9045(3)
C8_2 C 0.2049(4) 0.48310(14) 0.8587(3)
C9_2 C 0.1885(5) 0.48658(15) 0.7814(3)
H16_2 H 0.2628 0.4883 0.7582
C10_2 C 0.0647(5) 0.48758(16) 0.7380(3)
C11_2 C 0.0474(6) 0.49043(19) 0.6532(3)
C15_2 C 0.0958(5) 0.48024(15) 0.8933(3)
H18_2 H 0.1064 0.4782 0.9456
C17_2 C 0.4214(6) 0.63920(16) 0.9851(3)
C18_2 C 0.4317(6) 0.64498(16) 0.9115(3)
H19_2 H 0.4213 0.6251 0.8785
C19_2 C 0.4572(7) 0.67948(15) 0.8834(4)
C20_2 C 0.4738(7) 0.68452(16) 0.8032(4)
C21_2 C 0.4671(8) 0.70896(17) 0.9333(4)
H20_2 H 0.4842 0.7322 0.9162
C30_2 C 0.0679(6) 0.6286(2) 0.5762(4)
H23_2 H 0.1445 0.6179 0.5648
C31_2 C 0.0742(6) 0.6621(2) 0.6067(4)
C32_2 C 0.2095(9) 0.6805(3) 0.6218(6)
O1_2 O 0.3562(3) 0.48185(10) 0.97493(19)
O2_2 O 0.4378(3) 0.48130(13) 0.8693(2)
O3_2 O 0.3867(5) 0.57562(11) 0.9663(2)
O5_2 O 0.1507(5) 0.49540(15) 0.6257(2)
O7_2 O 0.4807(6) 0.71596(12) 0.7780(3)
O8_2 O 0.4806(6) 0.65698(12) 0.7634(3)
O15_2 O 0.2182(8) 0.7105(3) 0.6543(6)
O16_2 O 0.3017(6) 0.6665(2) 0.6014(4)
O17_2 O 0.0542(7) 0.55789(18) 0.5210(4)
O19_2 O 0.3843(5) 0.52325(16) 0.5084(3)
Cd4 Cd 0.62550(3) 0.469392(10) 0.947297(19)
O21_2 O 0.0683(4) 0.51094(16) 0.3821(2)
O22 O 0.7230(7) 0.70576(17) 0.6644(4)
O23 O 0.6090(5) 0.66063(14) 0.6053(3)
O24_2 O 0.4677(6) 0.76794(13) 0.6299(3)
O25_2 O 0.4593(7) 0.73215(14) 0.5312(3)
O28_2 O 0.1677(7) 0.44593(17) 0.4808(3)
H26_2 H 0.444159 0.503298 0.530965
H27_2 H 0.400141 0.528334 0.456381
C12_2 C 0.9542(5) 0.48360(16) 0.7737(3)
H17_2 H 0.8697 0.4831 0.7449
C13_2 C 0.9693(5) 0.48038(15) 0.8505(3)
C14_2 C 0.8493(5) 0.47616(16) 0.8874(3)
C25_2 C 0.7176(8) 0.6773(2) 0.6284(5)
C26_2 C 0.8402(6) 0.65979(19) 0.6092(4)
C27_2 C 0.8347(6) 0.62516(19) 0.5777(4)
H22_2 H 0.7545 0.6126 0.5677
C28_2 C 0.9484(7) 0.6093(2) 0.5611(4)
C29_2 C 0.9428(12) 0.5706(3) 0.5305(4)
C33_2 C 0.9639(7) 0.6787(2) 0.6263(5)
H24_2 H 0.9698 0.7015 0.6499
O6_2 O 0.9317(4) 0.48906(16) 0.6179(2)
O13_2 O 0.8616(4) 0.46565(14) 0.9540(2)
O14_2 O 0.7382(4) 0.48384(14) 0.8501(2)
O18_2 O 0.8323(7) 0.55407(17) 0.5192(3)
Cd6_2 Cd 0.84219(4) 0.495200(13) 0.49581(2)
C7_3 C 0.3423(5) 0.01746(15) 0.4045(3)
C8_3 C 0.2049(4) 0.01690(14) 0.3587(3)
C9_3 C 0.1885(5) 0.01342(15) 0.2814(3)
H16_3 H 0.2628 0.0117 0.2582
C10_3 C 0.0647(5) 0.01242(16) 0.2380(3)
C11_3 C 0.0474(6) 0.00957(19) 0.1532(3)
C15_3 C 0.0958(5) 0.01976(15) 0.3933(3)
H18_3 H 0.1064 0.0218 0.4456
O1_3 O 0.3562(3) 0.01815(10) 0.47493(19)
O5_3 O 0.1507(5) 0.00460(15) 0.1257(2)
C16_3 C 0.4019(6) 0.89810(17) 0.5133(3)
C17_3 C 0.4214(6) 0.86080(16) 0.4851(3)
C18_3 C 0.4317(6) 0.85502(16) 0.4115(3)
H19_3 H 0.4213 0.8749 0.3785
C19_3 C 0.4572(7) 0.82052(15) 0.3834(4)
C20_3 C 0.4738(7) 0.81548(16) 0.3032(4)
C21_3 C 0.4671(8) 0.79104(17) 0.4333(4)
H20_3 H 0.4842 0.7678 0.4162
C22_3 C 0.4518(7) 0.79572(17) 0.5086(4)
C23_3 C 0.4592(7) 0.7633(2) 0.5596(4)
C24_3 C 0.4312(7) 0.83057(17) 0.5343(4)
H21_3 H 0.4238 0.8341 0.5847
C30_3 C 0.0679(6) 0.8714(2) 0.0762(4)
H23_3 H 0.1445 0.8821 0.0648
C31_3 C 0.0742(6) 0.8379(2) 0.1067(4)
C32_3 C 0.2095(9) 0.8195(3) 0.1218(6)
O3_3 O 0.3867(5) 0.92438(11) 0.4663(2)
O4_3 O 0.4000(6) 0.90401(12) 0.5811(3)
O7_3 O 0.4807(6) 0.78404(12) 0.2780(3)
O8_3 O 0.4806(6) 0.84302(12) 0.2634(3)
O15_3 O 0.2182(8) 0.7895(3) 0.1543(6)
O16_3 O 0.3017(6) 0.8335(2) 0.1014(4)
O17_3 O 0.0542(7) 0.94211(18) 0.0210(4)
O19_3 O 0.3843(5) 0.97675(16) 0.0084(3)
O22_2 O 0.7230(7) 0.79424(17) 0.1644(4)
O23_2 O 0.6090(5) 0.83937(14) 0.1053(3)
H26_3 H 0.444159 0.996702 0.0309654
H27_3 H 0.400141 0.971666 0.956381
C12_3 C 0.9542(5) 0.01640(16) 0.2737(3)
H17_3 H 0.8697 0.0169 0.2449
C13_3 C 0.9693(5) 0.01962(15) 0.3505(3)
C14_3 C 0.8493(5) 0.02384(16) 0.3874(3)
C25_3 C 0.7176(8) 0.8227(2) 0.1284(5)
C26_3 C 0.8402(6) 0.84021(19) 0.1092(4)
C27_3 C 0.8347(6) 0.87484(19) 0.0777(4)
H22_3 H 0.7545 0.8874 0.0677
C28_3 C 0.9484(7) 0.8907(2) 0.0611(4)
C29_3 C 0.9428(12) 0.9294(3) 0.0305(4)
C33_3 C 0.9639(7) 0.8213(2) 0.1263(5)
H24_3 H 0.9698 0.7985 0.1499
C12_4 C 0.0458(5) 0.51640(16) 0.2263(3)
H17_4 H 0.1303 0.5169 0.2551
C13_4 C 0.0307(5) 0.51962(15) 0.1495(3)
C14_4 C 0.1507(5) 0.52384(16) 0.1126(3)
C25_4 C 0.2824(8) 0.3227(2) 0.3716(5)
C26_4 C 0.1598(6) 0.34021(19) 0.3908(4)
C27_4 C 0.1653(6) 0.37484(19) 0.4223(4)
H22_4 H 0.2455 0.3874 0.4323
C28_4 C 0.0516(7) 0.3907(2) 0.4389(4)
C29_4 C 0.0572(12) 0.4294(3) 0.4695(4)
C33_4 C 0.0361(7) 0.3213(2) 0.3737(5)
H24_4 H 0.0302 0.2985 0.3501
O9_2 O 0.2770(7) 0.29424(17) 0.3356(4)
O10_2 O 0.3910(5) 0.33937(14) 0.3947(3)
C7_4 C 0.6577(5) 0.51746(15) 0.0955(3)
C8_4 C 0.7951(4) 0.51690(14) 0.1413(3)
C9_4 C 0.8115(5) 0.51342(15) 0.2186(3)
H16_4 H 0.7372 0.5117 0.2418
C10_4 C 0.9353(5) 0.51242(16) 0.2620(3)
C11_4 C 0.9526(6) 0.50957(19) 0.3468(3)
C15_4 C 0.9042(5) 0.51976(15) 0.1067(3)
H18_4 H 0.8936 0.5218 0.0544
C17_4 C 0.5786(6) 0.36080(16) 0.0149(3)
C18_4 C 0.5683(6) 0.35502(16) 0.0885(3)
H19_4 H 0.5787 0.3749 0.1215
C19_4 C 0.5428(7) 0.32052(15) 0.1166(4)
C20_4 C 0.5262(7) 0.31548(16) 0.1968(4)
C21_4 C 0.5329(8) 0.29104(17) 0.0667(4)
H20_4 H 0.5158 0.2678 0.0838
C30_4 C 0.9321(6) 0.3714(2) 0.4238(4)
H23_4 H 0.8555 0.3821 0.4352
C31_4 C 0.9258(6) 0.3379(2) 0.3933(4)
C32_4 C 0.7905(9) 0.3195(3) 0.3782(6)
O1_4 O 0.6438(3) 0.51815(10) 0.02507(19)
O3_4 O 0.6133(5) 0.42438(11) 0.0337(2)
O5_4 O 0.8493(5) 0.50460(15) 0.3743(2)
O7_4 O 0.5193(6) 0.28404(12) 0.2220(3)
O8_4 O 0.5194(6) 0.34302(12) 0.2366(3)
O15_4 O 0.7818(8) 0.2895(3) 0.3457(6)
O16_4 O 0.6983(6) 0.3335(2) 0.3986(4)
O17_4 O 0.9458(7) 0.44211(18) 0.4790(4)
O19_4 O 0.6157(5) 0.47675(16) 0.4916(3)
H26_4 H 0.555841 0.496702 0.469035
H27_4 H 0.599859 0.471666 0.543619
C16_4 C 0.5981(6) 0.39810(17) 0.9867(3)
C22_4 C 0.5482(7) 0.29572(17) 0.9914(4)
C23_4 C 0.5408(7) 0.2633(2) 0.9404(4)
C24_4 C 0.5688(7) 0.33057(17) 0.9657(4)
H21_4 H 0.5762 0.3341 0.9153
O4_4 O 0.6000(6) 0.40401(12) 0.9189(3)
loop_
_geom_bond_atom_site_label_1
_geom_bond_atom_site_label_2
_geom_bond_site_symmetry_1
_geom_bond_site_symmetry_2
C1 H1 1_555 1_555
H2 C1 1_555 1_555
C2 C1 1_555 1_555
H3 C2 1_555 1_555
H4 C2 1_555 1_555
H5 C2 1_555 1_555
C3 H6 1_555 1_555
H7 C3 1_555 1_555
C4 C3 1_555 1_555
H8 C4 1_555 1_555
H9 C4 1_555 1_555
H10 C4 1_555 1_555
C5 H11 1_555 1_555
H12 C5 1_555 1_555
C6 C5 1_555 1_555
H13 C6 1_555 1_555
H14 C6 1_555 1_555
H15 C6 1_555 1_555
N1 C1 1_555 1_555
C3 N1 1_555 1_555
C5 N1 1_555 1_555
N1 H25 1_555 1_555
C1_2 H1_2 1_555 1_555
H2_2 C1_2 1_555 1_555
C2_2 C1_2 1_555 1_555
H3_2 C2_2 1_555 1_555
H4_2 C2_2 1_555 1_555
H5_2 C2_2 1_555 1_555
C3_2 H6_2 1_555 1_555
H7_2 C3_2 1_555 1_555
C4_2 C3_2 1_555 1_555
H8_2 C4_2 1_555 1_555
H9_2 C4_2 1_555 1_555
H10_2 C4_2 1_555 1_555
C5_2 H11_2 1_555 1_555
H12_2 C5_2 1_555 1_555
C6_2 C5_2 1_555 1_555
H13_2 C6_2 1_555 1_555
H14_2 C6_2 1_555 1_555
H15_2 C6_2 1_555 1_555
N1_2 C1_2 1_555 1_555
C3_2 N1_2 1_555 1_555
C5_2 N1_2 1_555 1_555
N1_2 H25_2 1_555 1_555
C1_3 H1_3 1_555 1_555
H2_3 C1_3 1_555 1_555
C2_3 C1_3 1_555 1_555
H3_3 C2_3 1_555 1_555
H4_3 C2_3 1_555 1_555
H5_3 C2_3 1_555 1_555
C3_3 H6_3 1_555 1_555
H7_3 C3_3 1_555 1_555
C4_3 C3_3 1_555 1_555
H8_3 C4_3 1_555 1_555
H9_3 C4_3 1_555 1_555
H10_3 C4_3 1_555 1_555
C5_3 H11_3 1_555 1_555
H12_3 C5_3 1_555 1_555
C6_3 C5_3 1_555 1_555
H13_3 C6_3 1_555 1_555
H14_3 C6_3 1_555 1_555
H15_3 C6_3 1_555 1_555
N1_3 C1_3 1_555 1_555
C3_3 N1_3 1_555 1_555
C5_3 N1_3 1_555 1_555
N1_3 H25_3 1_555 1_555
C1_4 H1_4 1_555 1_555
H2_4 C1_4 1_555 1_555
C2_4 C1_4 1_555 1_555
H3_4 C2_4 1_555 1_555
H4_4 C2_4 1_555 1_555
H5_4 C2_4 1_555 1_555
C3_4 H6_4 1_555 1_555
H7_4 C3_4 1_555 1_555
C4_4 C3_4 1_555 1_555
H8_4 C4_4 1_555 1_555
H9_4 C4_4 1_555 1_555
H10_4 C4_4 1_555 1_555
C5_4 H11_4 1_555 1_555
H12_4 C5_4 1_555 1_555
C6_4 C5_4 1_555 1_555
H13_4 C6_4 1_555 1_555
H14_4 C6_4 1_555 1_555
H15_4 C6_4 1_555 1_555
N1_4 C1_4 1_555 1_555
C3_4 N1_4 1_555 1_555
C5_4 N1_4 1_555 1_555
N1_4 H25_4 1_555 1_555
C25 C26 1_555 1_555
C26 C27 1_555 1_555
C27 H22 1_555 1_555
C28 C27 1_555 1_555
C29 C28 1_555 1_555
C33 C26 1_555 1_555
H24 C33 1_555 1_555
O9 C25 1_555 1_555
O10 C25 1_555 1_555
O18 C29 1_555 1_555
Cd7 O9 1_555 1_555
O10 Cd7 1_555 1_555
H17 C12 1_555 1_555
C13 C12 1_555 1_555
C14 C13 1_555 1_555
O13 C14 1_555 1_555
O14 C14 1_555 1_555
Cd5 O13 1_555 1_555
O14 Cd5 1_555 1_555
Cd7 O7 1_555 1_555
C16 C17 1_555 1_555
C17 C18 1_555 1_555
C18 H19 1_555 1_555
C19 C18 1_555 1_555
C20 C19 1_555 1_555
C21 C19 1_555 1_555
H20 C21 1_555 1_555
C22 C21 1_555 1_555
C23 C22 1_555 1_555
C24 C17 1_555 1_555
H21 C24 1_555 1_555
H23 C30 1_555 1_555
C31 C30 1_555 1_555
C32 C31 1_555 1_555
O3 Cd1 1_555 1_555
O4 Cd1 1_555 1_555
O7 C20 1_555 1_555
O8 Cd7 1_555 1_555
O11 C23 1_555 1_555
O12 C23 1_555 1_555
O15 Cd7 1_555 1_555
O16 Cd7 1_555 1_555
O17 Cd2 1_555 1_555
O19 Cd2 1_555 1_555
Cd8 O11 1_555 1_555
O20 Cd1 1_555 1_555
O24 Cd7 1_555 1_555
O25 Cd7 1_555 1_555
O26 Cd1 1_555 1_555
O27 Cd1 1_555 1_555
C16 O3 1_555 1_555
C16 O4 1_555 1_555
C20 O8 1_555 1_555
C22 C24 1_555 1_555
C32 O15 1_555 1_555
C32 O16 1_555 1_555
O12 Cd8 1_555 1_555
O19 H26 1_555 1_555
C7 C8 1_555 1_555
C8 C9 1_555 1_555
C9 H16 1_555 1_555
C10 C9 1_555 1_555
C11 C10 1_555 1_555
C15 C8 1_555 1_555
H18 C15 1_555 1_555
O1 C7 1_555 1_555
O2 C7 1_555 1_555
O5 C11 1_555 1_555
Cd5 O2 1_555 1_555
C23_2 C22_2 1_555 1_555
H21_2 C24_2 1_555 1_555
O4_2 Cd1_2 1_555 1_555
O11_2 C23_2 1_555 1_555
O12_2 C23_2 1_555 1_555
Cd8_2 O11_2 1_555 1_555
O20_2 Cd1_2 1_555 1_555
O26_2 Cd1_2 1_555 1_555
O27_2 Cd1_2 1_555 1_555
C16_2 O4_2 1_555 1_555
C22_2 C24_2 1_555 1_555
O12_2 Cd8_2 1_555 1_555
Cd2_2 O5_2 1_555 1_555
Cd3 O7_2 1_555 1_555
C7_2 C8_2 1_555 1_555
C8_2 C9_2 1_555 1_555
C9_2 H16_2 1_555 1_555
C10_2 C9_2 1_555 1_555
C11_2 C10_2 1_555 1_555
C15_2 C8_2 1_555 1_555
H18_2 C15_2 1_555 1_555
C17_2 C18_2 1_555 1_555
C18_2 H19_2 1_555 1_555
C19_2 C18_2 1_555 1_555
C20_2 C19_2 1_555 1_555
C21_2 C19_2 1_555 1_555
H20_2 C21_2 1_555 1_555
H23_2 C30_2 1_555 1_555
C31_2 C30_2 1_555 1_555
C32_2 C31_2 1_555 1_555
O1_2 C7_2 1_555 1_555
O2_2 C7_2 1_555 1_555
O5_2 C11_2 1_555 1_555
O7_2 C20_2 1_555 1_555
O8_2 Cd3 1_555 1_555
O15_2 Cd3 1_555 1_555
O16_2 Cd3 1_555 1_555
O17_2 Cd2_2 1_555 1_555
O19_2 Cd2_2 1_555 1_555
Cd4 O2_2 1_555 1_555
O21_2 Cd2_2 1_555 1_555
O22 Cd3 1_555 1_555
O23 Cd3 1_555 1_555
O24_2 Cd3 1_555 1_555
O25_2 Cd3 1_555 1_555
O28_2 Cd2_2 1_555 1_555
C20_2 O8_2 1_555 1_555
C32_2 O15_2 1_555 1_555
C32_2 O16_2 1_555 1_555
O19_2 H26_2 1_555 1_555
O19_2 H27_2 1_555 1_555
H17_2 C12_2 1_555 1_555
C13_2 C12_2 1_555 1_555
C14_2 C13_2 1_555 1_555
C25_2 C26_2 1_555 1_555
C26_2 C27_2 1_555 1_555
C27_2 H22_2 1_555 1_555
C28_2 C27_2 1_555 1_555
C29_2 C28_2 1_555 1_555
C33_2 C26_2 1_555 1_555
H24_2 C33_2 1_555 1_555
O22 C25_2 1_555 1_555
O23 C25_2 1_555 1_555
O13_2 C14_2 1_555 1_555
O14_2 C14_2 1_555 1_555
O18_2 C29_2 1_555 1_555
Cd4 O13_2 1_555 1_555
O6_2 Cd6_2 1_555 1_555
O14_2 Cd4 1_555 1_555
O18_2 Cd6_2 1_555 1_555
C7_3 C8_3 1_555 1_555
C8_3 C9_3 1_555 1_555
C9_3 H16_3 1_555 1_555
C10_3 C9_3 1_555 1_555
C11_3 C10_3 1_555 1_555
C15_3 C8_3 1_555 1_555
H18_3 C15_3 1_555 1_555
O1_3 C7_3 1_555 1_555
O20 C7_3 1_555 1_555
O5_3 C11_3 1_555 1_555
Cd8_2 O7_3 1_555 1_555
C16_3 C17_3 1_555 1_555
C17_3 C18_3 1_555 1_555
C18_3 H19_3 1_555 1_555
C19_3 C18_3 1_555 1_555
C20_3 C19_3 1_555 1_555
C21_3 C19_3 1_555 1_555
H20_3 C21_3 1_555 1_555
C22_3 C21_3 1_555 1_555
C23_3 C22_3 1_555 1_555
C24_3 C17_3 1_555 1_555
H21_3 C24_3 1_555 1_555
H23_3 C30_3 1_555 1_555
C31_3 C30_3 1_555 1_555
C32_3 C31_3 1_555 1_555
O3_3 Cd5 1_555 1_555
O4_3 Cd5 1_555 1_555
O7_3 C20_3 1_555 1_555
O8_3 Cd8_2 1_555 1_555
O24_2 C23_3 1_555 1_555
O25_2 C23_3 1_555 1_555
O15_3 Cd8_2 1_555 1_555
O16_3 Cd8_2 1_555 1_555
O17_3 Cd6 1_555 1_555
O19_3 Cd6 1_555 1_555
O22_2 Cd8_2 1_555 1_555
O23_2 Cd8_2 1_555 1_555
C16_3 O3_3 1_555 1_555
C16_3 O4_3 1_555 1_555
C20_3 O8_3 1_555 1_555
C22_3 C24_3 1_555 1_555
C32_3 O15_3 1_555 1_555
C32_3 O16_3 1_555 1_555
O19_3 H26_3 1_555 1_555
H17_3 C12_3 1_555 1_555
C13_3 C12_3 1_555 1_555
C14_3 C13_3 1_555 1_555
O26 C14_3 1_555 1_555
O27 C14_3 1_555 1_555
C25_3 C26_3 1_555 1_555
C26_3 C27_3 1_555 1_555
C27_3 H22_3 1_555 1_555
C28_3 C27_3 1_555 1_555
C29_3 C28_3 1_555 1_555
C33_3 C26_3 1_555 1_555
H24_3 C33_3 1_555 1_555
O22_2 C25_3 1_555 1_555
O23_2 C25_3 1_555 1_555
O28 C29_3 1_555 1_555
H17_4 C12_4 1_555 1_555
C13_4 C12_4 1_555 1_555
C14_4 C13_4 1_555 1_555
C25_4 C26_4 1_555 1_555
C26_4 C27_4 1_555 1_555
C27_4 H22_4 1_555 1_555
C28_4 C27_4 1_555 1_555
C29_4 C28_4 1_555 1_555
C33_4 C26_4 1_555 1_555
H24_4 C33_4 1_555 1_555
O9_2 C25_4 1_555 1_555
O10_2 C25_4 1_555 1_555
O26_2 C14_4 1_555 1_555
O27_2 C14_4 1_555 1_555
O28_2 C29_4 1_555 1_555
Cd8 O9_2 1_555 1_555
O10_2 Cd8 1_555 1_555
Cd6_2 O5_4 1_555 1_555
Cd8 O7_4 1_555 1_555
C7_4 C8_4 1_555 1_555
C8_4 C9_4 1_555 1_555
C9_4 H16_4 1_555 1_555
C10_4 C9_4 1_555 1_555
C11_4 C10_4 1_555 1_555
C15_4 C8_4 1_555 1_555
H18_4 C15_4 1_555 1_555
C17_4 C18_4 1_555 1_555
C18_4 H19_4 1_555 1_555
C19_4 C18_4 1_555 1_555
C20_4 C19_4 1_555 1_555
C21_4 C19_4 1_555 1_555
H20_4 C21_4 1_555 1_555
H23_4 C30_4 1_555 1_555
C31_4 C30_4 1_555 1_555
C32_4 C31_4 1_555 1_555
O1_4 C7_4 1_555 1_555
O20_2 C7_4 1_555 1_555
O5_4 C11_4 1_555 1_555
O7_4 C20_4 1_555 1_555
O8_4 Cd8 1_555 1_555
O15_4 Cd8 1_555 1_555
O16_4 Cd8 1_555 1_555
O17_4 Cd6_2 1_555 1_555
O19_4 Cd6_2 1_555 1_555
C20_4 O8_4 1_555 1_555
C32_4 O15_4 1_555 1_555
C32_4 O16_4 1_555 1_555
O19_4 H26_4 1_555 1_555
O19_4 H27_4 1_555 1_555
C23_4 C22_4 1_555 1_555
H21_4 C24_4 1_555 1_555
O4_4 Cd4 1_555 1_555
O24 C23_4 1_555 1_555
O25 C23_4 1_555 1_555
C16_4 O4_4 1_555 1_555
C22_4 C24_4 1_555 1_555

#END
