
###############################################################################
#
# This file contains modified crystal structure data generated from the
# MOF subset of the Cambridge Structural Database (CSD) v543 
# hosted by the Cambridge Crystallographic Data Centre (CCDC).
#
# This work is licensed under the Creative Commons
# Attribution-NonCommercial-ShareAlike 4.0 International License.
# To view a copy of this license, visit
# http://creativecommons.org/licenses/by-nc-sa/4.0/
# or send a letter to
# Creative Commons, PO Box 1866, Mountain View, CA 94042, USA.
#
# CIF created using the CSD Python API on 29 September 2022
# The structure has been converted into the P1 space group
# The structure has a 3D framework
# The original CSD entry MITSEO is in the tetragonal crystal system
# The original CSD entry MITSEO is in a Sohncke space group
# The framework has been calculated to contain at least 10.0% void space
# The void calculation uses a probe of radius 1.32A, grid spacing 0.4
# The framework is charged, counterions have been retained in the structure
# H atom positions have been added when not included in the experimental data
#
###############################################################################

data_MITSEO
_chemical_formula_moiety         '(C120 H152 Cd18 Cl8 N8 O48 1+)n'
_symmetry_cell_setting           triclinic
_symmetry_space_group_name_H-M   'P 1'
_symmetry_Int_Tables_number      1
_space_group_name_Hall           'P 1'
loop_
_symmetry_equiv_pos_site_id
_symmetry_equiv_pos_as_xyz
1 x,y,z
_cell_length_a                   20.1824(14)
_cell_length_b                   20.1824(14)
_cell_length_c                   12.6052(18)
_cell_angle_alpha                90
_cell_angle_beta                 90
_cell_angle_gamma                90
_cell_volume                     5134.47
loop_
_atom_site_label
_atom_site_type_symbol
_atom_site_fract_x
_atom_site_fract_y
_atom_site_fract_z
N1 N 0.5184(3) 0.3188(3) 0.2202(5)
C1 C 0.5588(4) 0.2672(3) 0.2742(7)
H1 H 0.5971 0.2578 0.2304
H2 H 0.5748 0.2854 0.3407
C2 C 0.5260(4) 0.2063(4) 0.2963(7)
H3 H 0.5561 0.1768 0.3316
H4 H 0.5115 0.1866 0.2310
H5 H 0.4884 0.2145 0.3410
C3 C 0.4643(5) 0.3417(5) 0.2889(10)
H6 H 0.4437 0.3043 0.3243
H7 H 0.4308 0.3642 0.2470
C4 C 0.4946(8) 0.3906(6) 0.3731(9)
H8 H 0.4601 0.4069 0.4185
H9 H 0.5153 0.4272 0.3372
H10 H 0.5271 0.3677 0.4149
C5 C 0.4906(5) 0.2926(5) 0.1136(9)
H11 H 0.4610 0.2559 0.1285
H12 H 0.4644 0.3274 0.0810
C6 C 0.5403(6) 0.2703(6) 0.0369(9)
H14 H 0.5651 0.2342 0.0666
H15 H 0.5698 0.3063 0.0207
H28 H 0.548237 0.358063 0.204401
H13 H 0.5186 0.2559 0.9732
N1_2 N 0.4816(3) 0.6812(3) 0.2202(5)
C1_2 C 0.4412(4) 0.7328(3) 0.2742(7)
H1_2 H 0.4029 0.7422 0.2304
H2_2 H 0.4252 0.7146 0.3407
C2_2 C 0.4740(4) 0.7937(4) 0.2963(7)
H3_2 H 0.4439 0.8232 0.3316
H4_2 H 0.4885 0.8134 0.2310
H5_2 H 0.5116 0.7855 0.3410
C3_2 C 0.5357(5) 0.6583(5) 0.2889(10)
H6_2 H 0.5563 0.6957 0.3243
H7_2 H 0.5692 0.6358 0.2470
C4_2 C 0.5054(8) 0.6094(6) 0.3731(9)
H8_2 H 0.5399 0.5931 0.4185
H9_2 H 0.4847 0.5728 0.3372
H10_2 H 0.4729 0.6323 0.4149
C5_2 C 0.5094(5) 0.7074(5) 0.1136(9)
H11_2 H 0.5390 0.7441 0.1285
H12_2 H 0.5356 0.6726 0.0810
C6_2 C 0.4597(6) 0.7297(6) 0.0369(9)
H14_2 H 0.4349 0.7658 0.0666
H15_2 H 0.4302 0.6937 0.0207
H28_2 H 0.451763 0.641937 0.204401
H13_2 H 0.4814 0.7441 0.9732
N1_3 N 0.1812(3) 0.0184(3) 0.2202(5)
C1_3 C 0.2328(3) 0.0588(4) 0.2742(7)
H1_3 H 0.2422 0.0971 0.2304
H2_3 H 0.2146 0.0748 0.3407
C2_3 C 0.2937(4) 0.0260(4) 0.2963(7)
H3_3 H 0.3232 0.0561 0.3316
H4_3 H 0.3134 0.0115 0.2310
H9_3 H 0.0728 0.0153 0.3372
H10_3 H 0.1323 0.0271 0.4149
C6_3 C 0.2297(6) 0.0403(6) 0.0369(9)
H14_3 H 0.2658 0.0651 0.0666
H15_3 H 0.1937 0.0698 0.0207
H28_3 H 0.141937 0.0482368 0.204401
H13_3 H 0.2441 0.0186 0.9732
H5_3 H 0.2855 0.9884 0.3410
C3_3 C 0.1583(5) 0.9643(5) 0.2889(10)
H6_3 H 0.1957 0.9437 0.3243
H7_3 H 0.1358 0.9308 0.2470
C4_3 C 0.1094(6) 0.9946(8) 0.3731(9)
H8_3 H 0.0931 0.9601 0.4185
C5_3 C 0.2074(5) 0.9906(5) 0.1136(9)
H11_3 H 0.2441 0.9610 0.1285
H12_3 H 0.1726 0.9644 0.0810
H5_4 H 0.7145 0.0116 0.3410
C3_4 C 0.8417(5) 0.0357(5) 0.2889(10)
H6_4 H 0.8043 0.0563 0.3243
H7_4 H 0.8642 0.0692 0.2470
C4_4 C 0.8906(6) 0.0054(8) 0.3731(9)
H8_4 H 0.9069 0.0399 0.4185
C5_4 C 0.7926(5) 0.0094(5) 0.1136(9)
H11_4 H 0.7559 0.0390 0.1285
H12_4 H 0.8274 0.0356 0.0810
N1_4 N 0.8188(3) 0.9816(3) 0.2202(5)
C1_4 C 0.7672(3) 0.9412(4) 0.2742(7)
H1_4 H 0.7578 0.9029 0.2304
H2_4 H 0.7854 0.9252 0.3407
C2_4 C 0.7063(4) 0.9740(4) 0.2963(7)
H3_4 H 0.6768 0.9439 0.3316
H4_4 H 0.6866 0.9885 0.2310
H9_4 H 0.9272 0.9847 0.3372
H10_4 H 0.8677 0.9729 0.4149
C6_4 C 0.7703(6) 0.9597(6) 0.0369(9)
H14_4 H 0.7342 0.9349 0.0666
H15_4 H 0.8063 0.9302 0.0207
H28_4 H 0.858063 0.951763 0.204401
H13_4 H 0.7559 0.9814 0.9732
H5_5 H 0.0116 0.7145 0.6590
C3_5 C 0.0357(5) 0.8417(5) 0.7111(10)
H6_5 H 0.0563 0.8043 0.6757
H7_5 H 0.0692 0.8642 0.7530
C4_5 C 0.0054(8) 0.8906(6) 0.6269(9)
H8_5 H 0.0399 0.9069 0.5815
C5_5 C 0.0094(5) 0.7926(5) 0.8864(9)
H11_5 H 0.0390 0.7559 0.8715
H12_5 H 0.0356 0.8274 0.9190
H13_5 H 0.9814 0.7559 0.0268
N1_5 N 0.9816(3) 0.8188(3) 0.7798(5)
C1_5 C 0.9412(4) 0.7672(3) 0.7258(7)
H1_5 H 0.9029 0.7578 0.7696
H2_5 H 0.9252 0.7854 0.6593
C2_5 C 0.9740(4) 0.7063(4) 0.7037(7)
H3_5 H 0.9439 0.6768 0.6684
H4_5 H 0.9885 0.6866 0.7690
H9_5 H 0.9847 0.9272 0.6628
H10_5 H 0.9729 0.8677 0.5851
C6_5 C 0.9597(6) 0.7703(6) 0.9631(9)
H14_5 H 0.9349 0.7342 0.9334
H15_5 H 0.9302 0.8063 0.9793
H28_5 H 0.951763 0.858063 0.795599
H13_6 H 0.0186 0.2441 0.0268
N1_6 N 0.0184(3) 0.1812(3) 0.7798(5)
C1_6 C 0.0588(4) 0.2328(3) 0.7258(7)
H1_6 H 0.0971 0.2422 0.7696
H2_6 H 0.0748 0.2146 0.6593
C2_6 C 0.0260(4) 0.2937(4) 0.7037(7)
H3_6 H 0.0561 0.3232 0.6684
H4_6 H 0.0115 0.3134 0.7690
H9_6 H 0.0153 0.0728 0.6628
H10_6 H 0.0271 0.1323 0.5851
C6_6 C 0.0403(6) 0.2297(6) 0.9631(9)
H14_6 H 0.0651 0.2658 0.9334
H15_6 H 0.0698 0.1937 0.9793
H28_6 H 0.0482368 0.141937 0.795599
H5_6 H 0.9884 0.2855 0.6590
C3_6 C 0.9643(5) 0.1583(5) 0.7111(10)
H6_6 H 0.9437 0.1957 0.6757
H7_6 H 0.9308 0.1358 0.7530
C4_6 C 0.9946(8) 0.1094(6) 0.6269(9)
H8_6 H 0.9601 0.0931 0.5815
C5_6 C 0.9906(5) 0.2074(5) 0.8864(9)
H11_6 H 0.9610 0.2441 0.8715
H12_6 H 0.9644 0.1726 0.9190
H13_7 H 0.2559 0.5186 0.0268
N1_7 N 0.3188(3) 0.5184(3) 0.7798(5)
C1_7 C 0.2672(3) 0.5588(4) 0.7258(7)
H1_7 H 0.2578 0.5971 0.7696
H2_7 H 0.2854 0.5748 0.6593
C2_7 C 0.2063(4) 0.5260(4) 0.7037(7)
H3_7 H 0.1768 0.5561 0.6684
H4_7 H 0.1866 0.5115 0.7690
H5_7 H 0.2145 0.4884 0.6590
C3_7 C 0.3417(5) 0.4643(5) 0.7111(10)
H6_7 H 0.3043 0.4437 0.6757
H7_7 H 0.3642 0.4308 0.7530
C4_7 C 0.3906(6) 0.4946(8) 0.6269(9)
H8_7 H 0.4069 0.4601 0.5815
H9_7 H 0.4272 0.5153 0.6628
H10_7 H 0.3677 0.5271 0.5851
C5_7 C 0.2926(5) 0.4906(5) 0.8864(9)
H11_7 H 0.2559 0.4610 0.8715
H12_7 H 0.3274 0.4644 0.9190
C6_7 C 0.2703(6) 0.5403(6) 0.9631(9)
H14_7 H 0.2342 0.5651 0.9334
H15_7 H 0.3063 0.5698 0.9793
H28_7 H 0.358063 0.548237 0.795599
H13_8 H 0.7441 0.4814 0.0268
N1_8 N 0.6812(3) 0.4816(3) 0.7798(5)
C1_8 C 0.7328(3) 0.4412(4) 0.7258(7)
H1_8 H 0.7422 0.4029 0.7696
H2_8 H 0.7146 0.4252 0.6593
C2_8 C 0.7937(4) 0.4740(4) 0.7037(7)
H3_8 H 0.8232 0.4439 0.6684
H4_8 H 0.8134 0.4885 0.7690
H5_8 H 0.7855 0.5116 0.6590
C3_8 C 0.6583(5) 0.5357(5) 0.7111(10)
H6_8 H 0.6957 0.5563 0.6757
H7_8 H 0.6358 0.5692 0.7530
C4_8 C 0.6094(6) 0.5054(8) 0.6269(9)
H8_8 H 0.5931 0.5399 0.5815
H9_8 H 0.5728 0.4847 0.6628
H10_8 H 0.6323 0.4729 0.5851
C5_8 C 0.7074(5) 0.5094(5) 0.8864(9)
H11_8 H 0.7441 0.5390 0.8715
H12_8 H 0.6726 0.5356 0.9190
C6_8 C 0.7297(6) 0.4597(6) 0.9631(9)
H14_8 H 0.7658 0.4349 0.9334
H15_8 H 0.6937 0.4302 0.9793
H28_8 H 0.641937 0.451763 0.795599
Cd2 Cd 0.0000 0.0000 0.0000
O4 O 0.0730(2) 0.0732(2) 0.1280(3)
O5 O 0.19307(18) 0.2262(2) 0.3673(4)
O6 O 0.13847(19) 0.2767(2) 0.4985(4)
C10 C 0.0186(3) 0.1522(3) 0.2382(4)
C11 C 0.0767(3) 0.1759(3) 0.2819(4)
H17 H 0.1170 0.1628 0.2533
C12 C 0.0760(2) 0.2195(3) 0.3688(4)
C13 C 0.0144(3) 0.2369(3) 0.4119(4)
H18 H 0.0129 0.2656 0.4696
C14 C 0.0201(3) 0.1009(3) 0.1509(4)
C15 C 0.1409(3) 0.2437(3) 0.4148(5)
Cd7 Cd 0.300239(16) 0.227615(16) 0.39967(3)
Cd8 Cd 0.227615(16) 0.300239(16) 0.60033(3)
Cd2_2 Cd 0.0000 0.0000 1.0000
O21 O 0.0732(2) 0.0730(2) 0.8720(3)
O24 O 0.2262(2) 0.19307(18) 0.6327(4)
O31 O 0.2767(2) 0.13847(19) 0.5015(4)
C26 C 0.1522(3) 0.0186(3) 0.7618(4)
C29 C 0.1759(3) 0.0767(3) 0.7181(4)
H23 H 0.1628 0.1170 0.7467
C32 C 0.2195(3) 0.0760(2) 0.6312(4)
C35 C 0.2369(3) 0.0144(3) 0.5881(4)
H26 H 0.2656 0.0129 0.5304
C38 C 0.1009(3) 0.0201(3) 0.8491(4)
C41 C 0.2437(3) 0.1409(3) 0.5852(5)
Cd2_3 Cd 0.0000 1.0000 0.0000
Cd3 Cd 0.272385(16) 0.800239(16) 0.39967(3)
Cd9 Cd 0.199761(16) 0.727615(16) 0.60033(3)
Cl2 Cl 0.30665(10) 0.84271(10) 0.22634(14)
O7 O 0.15993(18) 0.7962(2) 0.3786(3)
O10 O 0.10749(17) 0.7414(2) 0.5063(4)
O14 O 0.2586(2) 0.89251(17) 0.4937(4)
O17 O 0.0331(2) 0.9134(2) 0.1052(4)
O27 O 0.2738(2) 0.69307(18) 0.3673(4)
O34 O 0.36153(19) 0.7767(2) 0.5015(4)
C16 C 0.1098(2) 0.7732(2) 0.4213(4)
C19 C 0.0435(2) 0.7876(3) 0.3708(4)
C22 C 0.0416(3) 0.8284(3) 0.2820(4)
H19 H 0.0810 0.8428 0.2515
Cd2_4 Cd -0.0000 1.0000 1.0000
Cl3 Cl 0.15729(10) 0.69335(10) 0.77366(14)
O8 O 0.2038(2) 0.84007(18) 0.6214(3)
O18 O 0.0866(2) 0.9669(2) 0.8948(4)
O28 O 0.30693(18) 0.7262(2) 0.6327(4)
O35 O 0.2233(2) 0.63847(19) 0.4985(4)
C17 C 0.2268(2) 0.8902(2) 0.5787(4)
C20 C 0.2124(3) 0.9565(2) 0.6292(4)
C23 C 0.1716(3) 0.9584(3) 0.7180(4)
H20 H 0.1572 0.9190 0.7485
Cd1 Cd 0.727615(16) 0.199761(16) 0.39967(3)
Cd2_5 Cd 1.0000 0.0000 0.0000
Cl1 Cl 0.69335(10) 0.15729(10) 0.22634(14)
O1 O 0.84007(18) 0.2038(2) 0.3786(3)
O2 O 0.89251(17) 0.2586(2) 0.5063(4)
O3 O 0.9669(2) 0.0866(2) 0.1052(4)
C7 C 0.8902(2) 0.2268(2) 0.4213(4)
C8 C 0.9565(2) 0.2124(3) 0.3708(4)
C9 C 0.9584(3) 0.1716(3) 0.2820(4)
H16 H 0.9190 0.1572 0.2515
Cd6 Cd 0.800239(16) 0.272385(16) 0.60033(3)
O13 O 0.7414(2) 0.10749(17) 0.4937(4)
O26 O 0.7262(2) 0.30693(18) 0.3673(4)
O33 O 0.63847(19) 0.2233(2) 0.5015(4)
Cd2_6 Cd 1.0000 0.0000 1.0000
Cl4 Cl 0.84271(10) 0.30665(10) 0.77366(14)
O9 O 0.7962(2) 0.15993(18) 0.6214(3)
O19 O 0.9134(2) 0.0331(2) 0.8948(4)
O29 O 0.69307(18) 0.2738(2) 0.6327(4)
O36 O 0.7767(2) 0.36153(19) 0.4985(4)
C18 C 0.7732(2) 0.1098(2) 0.5787(4)
C21 C 0.7876(3) 0.0435(2) 0.6292(4)
C24 C 0.8284(3) 0.0416(3) 0.7180(4)
H21 H 0.8428 0.0810 0.7485
Cd2_7 Cd 1.0000 1.0000 0.0000
Cd10 Cd 0.699761(16) 0.772385(16) 0.39967(3)
Cd11 Cd 0.772385(16) 0.699761(16) 0.60033(3)
O20 O 0.9270(2) 0.9268(2) 0.1280(3)
O23 O 0.80693(18) 0.7738(2) 0.3673(4)
O30 O 0.86153(19) 0.7233(2) 0.4985(4)
C25 C 0.9814(3) 0.8478(3) 0.2382(4)
C28 C 0.9233(3) 0.8241(3) 0.2819(4)
H22 H 0.8830 0.8372 0.2533
C31 C 0.9240(2) 0.7805(3) 0.3688(4)
C34 C 0.9856(3) 0.7631(3) 0.4119(4)
H25 H 0.9871 0.7344 0.4696
C37 C 0.9799(3) 0.8991(3) 0.1509(4)
C40 C 0.8591(3) 0.7563(3) 0.4148(5)
Cd2_8 Cd 1.0000 1.0000 1.0000
O22 O 0.9268(2) 0.9270(2) 0.8720(3)
O25 O 0.7738(2) 0.80693(18) 0.6327(4)
O32 O 0.7233(2) 0.86153(19) 0.5015(4)
C27 C 0.8478(3) 0.9814(3) 0.7618(4)
C30 C 0.8241(3) 0.9233(3) 0.7181(4)
H24 H 0.8372 0.8830 0.7467
C33 C 0.7805(3) 0.9240(2) 0.6312(4)
C36 C 0.7631(3) 0.9856(3) 0.5881(4)
H27 H 0.7344 0.9871 0.5304
C39 C 0.8991(3) 0.9799(3) 0.8491(4)
C42 C 0.7563(3) 0.8591(3) 0.5852(5)
Cd2_9 Cd 0.5000 0.5000 0.0000
Cl1_2 Cl 0.34271(10) 0.19335(10) 0.22634(14)
O1_2 O 0.2962(2) 0.34007(18) 0.3786(3)
O2_2 O 0.2414(2) 0.39251(17) 0.5063(4)
O3_2 O 0.4134(2) 0.4669(2) 0.1052(4)
O4_2 O 0.4268(2) 0.5730(2) 0.1280(3)
C7_2 C 0.2732(2) 0.3902(2) 0.4213(4)
C8_2 C 0.2876(3) 0.4565(2) 0.3708(4)
C9_2 C 0.3284(3) 0.4584(3) 0.2820(4)
H16_2 H 0.3428 0.4190 0.2515
C10_2 C 0.3478(3) 0.5186(3) 0.2382(4)
C11_2 C 0.3241(3) 0.5767(3) 0.2819(4)
H17_2 H 0.3372 0.6170 0.2533
C12_2 C 0.2805(3) 0.5760(2) 0.3688(4)
C13_2 C 0.2631(3) 0.5144(3) 0.4119(4)
H18_2 H 0.2344 0.5129 0.4696
C14_2 C 0.3991(3) 0.5201(3) 0.1509(4)
C15_2 C 0.2563(3) 0.6409(3) 0.4148(5)
Cl2_2 Cl 0.65729(10) 0.80665(10) 0.22634(14)
O7_2 O 0.7038(2) 0.65993(18) 0.3786(3)
O10_2 O 0.7586(2) 0.60749(17) 0.5063(4)
O13_2 O 0.39251(17) 0.2414(2) 0.4937(4)
O14_2 O 0.60749(17) 0.7586(2) 0.4937(4)
O17_2 O 0.5866(2) 0.5331(2) 0.1052(4)
O20_2 O 0.5732(2) 0.4270(2) 0.1280(3)
C16_2 C 0.7268(2) 0.6098(2) 0.4213(4)
C19_2 C 0.7124(3) 0.5435(2) 0.3708(4)
C22_2 C 0.6716(3) 0.5416(3) 0.2820(4)
H19_2 H 0.6572 0.5810 0.2515
C25_2 C 0.6522(3) 0.4814(3) 0.2382(4)
C28_2 C 0.6759(3) 0.4233(3) 0.2819(4)
H22_2 H 0.6628 0.3830 0.2533
C31_2 C 0.7195(3) 0.4240(2) 0.3688(4)
C34_2 C 0.7369(3) 0.4856(3) 0.4119(4)
H25_2 H 0.7656 0.4871 0.4696
C37_2 C 0.6009(3) 0.4799(3) 0.1509(4)
C40_2 C 0.7437(3) 0.3591(3) 0.4148(5)
Cd2_10 Cd 0.5000 0.5000 1.0000
Cl3_2 Cl 0.80665(10) 0.65729(10) 0.77366(14)
Cl4_2 Cl 0.19335(10) 0.34271(10) 0.77366(14)
O8_2 O 0.65993(18) 0.7038(2) 0.6214(3)
O9_2 O 0.34007(18) 0.2962(2) 0.6214(3)
O18_2 O 0.5331(2) 0.5866(2) 0.8948(4)
O19_2 O 0.4669(2) 0.4134(2) 0.8948(4)
O21_2 O 0.4270(2) 0.5732(2) 0.8720(3)
O22_2 O 0.5730(2) 0.4268(2) 0.8720(3)
C17_2 C 0.6098(2) 0.7268(2) 0.5787(4)
C18_2 C 0.3902(2) 0.2732(2) 0.5787(4)
C20_2 C 0.5435(2) 0.7124(3) 0.6292(4)
C21_2 C 0.4565(2) 0.2876(3) 0.6292(4)
C23_2 C 0.5416(3) 0.6716(3) 0.7180(4)
C24_2 C 0.4584(3) 0.3284(3) 0.7180(4)
H20_2 H 0.5810 0.6572 0.7485
H21_2 H 0.4190 0.3428 0.7485
C26_2 C 0.4814(3) 0.6522(3) 0.7618(4)
C27_2 C 0.5186(3) 0.3478(3) 0.7618(4)
C29_2 C 0.4233(3) 0.6759(3) 0.7181(4)
C30_2 C 0.5767(3) 0.3241(3) 0.7181(4)
H23_2 H 0.3830 0.6628 0.7467
H24_2 H 0.6170 0.3372 0.7467
C32_2 C 0.4240(2) 0.7195(3) 0.6312(4)
C33_2 C 0.5760(2) 0.2805(3) 0.6312(4)
C35_2 C 0.4856(3) 0.7369(3) 0.5881(4)
C36_2 C 0.5144(3) 0.2631(3) 0.5881(4)
H26_2 H 0.4871 0.7656 0.5304
H27_2 H 0.5129 0.2344 0.5304
C38_2 C 0.4799(3) 0.6009(3) 0.8491(4)
C39_2 C 0.5201(3) 0.3991(3) 0.8491(4)
C41_2 C 0.3591(3) 0.7437(3) 0.5852(5)
C42_2 C 0.6409(3) 0.2563(3) 0.5852(5)
loop_
_geom_bond_atom_site_label_1
_geom_bond_atom_site_label_2
_geom_bond_site_symmetry_1
_geom_bond_site_symmetry_2
N1 C1 1_555 1_555
C1 H1 1_555 1_555
H2 C1 1_555 1_555
C2 C1 1_555 1_555
H3 C2 1_555 1_555
H4 C2 1_555 1_555
H5 C2 1_555 1_555
C3 N1 1_555 1_555
H6 C3 1_555 1_555
H7 C3 1_555 1_555
C4 C3 1_555 1_555
H8 C4 1_555 1_555
H9 C4 1_555 1_555
H10 C4 1_555 1_555
C5 N1 1_555 1_555
H11 C5 1_555 1_555
H12 C5 1_555 1_555
C6 C5 1_555 1_555
H14 C6 1_555 1_555
H15 C6 1_555 1_555
N1 H28 1_555 1_555
N1_2 C1_2 1_555 1_555
C1_2 H1_2 1_555 1_555
H2_2 C1_2 1_555 1_555
C2_2 C1_2 1_555 1_555
H3_2 C2_2 1_555 1_555
H4_2 C2_2 1_555 1_555
H5_2 C2_2 1_555 1_555
C3_2 N1_2 1_555 1_555
H6_2 C3_2 1_555 1_555
H7_2 C3_2 1_555 1_555
C4_2 C3_2 1_555 1_555
H8_2 C4_2 1_555 1_555
H9_2 C4_2 1_555 1_555
H10_2 C4_2 1_555 1_555
C5_2 N1_2 1_555 1_555
H11_2 C5_2 1_555 1_555
H12_2 C5_2 1_555 1_555
C6_2 C5_2 1_555 1_555
H14_2 C6_2 1_555 1_555
H15_2 C6_2 1_555 1_555
N1_2 H28_2 1_555 1_555
N1_3 C1_3 1_555 1_555
C1_3 H1_3 1_555 1_555
H2_3 C1_3 1_555 1_555
C2_3 C1_3 1_555 1_555
H3_3 C2_3 1_555 1_555
H4_3 C2_3 1_555 1_555
H14_3 C6_3 1_555 1_555
H15_3 C6_3 1_555 1_555
N1_3 H28_3 1_555 1_555
H6_3 C3_3 1_555 1_555
H7_3 C3_3 1_555 1_555
C4_3 C3_3 1_555 1_555
H8_3 C4_3 1_555 1_555
H11_3 C5_3 1_555 1_555
H12_3 C5_3 1_555 1_555
H6_4 C3_4 1_555 1_555
H7_4 C3_4 1_555 1_555
C4_4 C3_4 1_555 1_555
H8_4 C4_4 1_555 1_555
H11_4 C5_4 1_555 1_555
H12_4 C5_4 1_555 1_555
N1_4 C1_4 1_555 1_555
C1_4 H1_4 1_555 1_555
H2_4 C1_4 1_555 1_555
C2_4 C1_4 1_555 1_555
H3_4 C2_4 1_555 1_555
H4_4 C2_4 1_555 1_555
H14_4 C6_4 1_555 1_555
H15_4 C6_4 1_555 1_555
N1_4 H28_4 1_555 1_555
H6_5 C3_5 1_555 1_555
H7_5 C3_5 1_555 1_555
C4_5 C3_5 1_555 1_555
H8_5 C4_5 1_555 1_555
H11_5 C5_5 1_555 1_555
H12_5 C5_5 1_555 1_555
N1_5 C1_5 1_555 1_555
C1_5 H1_5 1_555 1_555
H2_5 C1_5 1_555 1_555
C2_5 C1_5 1_555 1_555
H3_5 C2_5 1_555 1_555
H4_5 C2_5 1_555 1_555
H14_5 C6_5 1_555 1_555
H15_5 C6_5 1_555 1_555
N1_5 H28_5 1_555 1_555
N1_6 C1_6 1_555 1_555
C1_6 H1_6 1_555 1_555
H2_6 C1_6 1_555 1_555
C2_6 C1_6 1_555 1_555
H3_6 C2_6 1_555 1_555
H4_6 C2_6 1_555 1_555
H14_6 C6_6 1_555 1_555
H15_6 C6_6 1_555 1_555
N1_6 H28_6 1_555 1_555
H6_6 C3_6 1_555 1_555
H7_6 C3_6 1_555 1_555
C4_6 C3_6 1_555 1_555
H8_6 C4_6 1_555 1_555
H11_6 C5_6 1_555 1_555
H12_6 C5_6 1_555 1_555
N1_7 C1_7 1_555 1_555
C1_7 H1_7 1_555 1_555
H2_7 C1_7 1_555 1_555
C2_7 C1_7 1_555 1_555
H3_7 C2_7 1_555 1_555
H4_7 C2_7 1_555 1_555
H5_7 C2_7 1_555 1_555
C3_7 N1_7 1_555 1_555
H6_7 C3_7 1_555 1_555
H7_7 C3_7 1_555 1_555
C4_7 C3_7 1_555 1_555
H8_7 C4_7 1_555 1_555
H9_7 C4_7 1_555 1_555
H10_7 C4_7 1_555 1_555
C5_7 N1_7 1_555 1_555
H11_7 C5_7 1_555 1_555
H12_7 C5_7 1_555 1_555
C6_7 C5_7 1_555 1_555
H14_7 C6_7 1_555 1_555
H15_7 C6_7 1_555 1_555
N1_7 H28_7 1_555 1_555
N1_8 C1_8 1_555 1_555
C1_8 H1_8 1_555 1_555
H2_8 C1_8 1_555 1_555
C2_8 C1_8 1_555 1_555
H3_8 C2_8 1_555 1_555
H4_8 C2_8 1_555 1_555
H5_8 C2_8 1_555 1_555
C3_8 N1_8 1_555 1_555
H6_8 C3_8 1_555 1_555
H7_8 C3_8 1_555 1_555
C4_8 C3_8 1_555 1_555
H8_8 C4_8 1_555 1_555
H9_8 C4_8 1_555 1_555
H10_8 C4_8 1_555 1_555
C5_8 N1_8 1_555 1_555
H11_8 C5_8 1_555 1_555
H12_8 C5_8 1_555 1_555
C6_8 C5_8 1_555 1_555
H14_8 C6_8 1_555 1_555
H15_8 C6_8 1_555 1_555
N1_8 H28_8 1_555 1_555
O4 Cd2 1_555 1_555
O5 C15 1_555 1_555
O6 C15 1_555 1_555
C11 C10 1_555 1_555
H17 C11 1_555 1_555
C12 C11 1_555 1_555
H18 C13 1_555 1_555
C14 O4 1_555 1_555
C15 C12 1_555 1_555
Cd7 O5 1_555 1_555
Cd8 O6 1_555 1_555
C10 C14 1_555 1_555
C12 C13 1_555 1_555
Cd8 O24 1_555 1_555
Cd7 O31 1_555 1_555
O21 Cd2_2 1_555 1_555
O24 C41 1_555 1_555
O31 C41 1_555 1_555
C29 C26 1_555 1_555
H23 C29 1_555 1_555
C32 C29 1_555 1_555
H26 C35 1_555 1_555
C41 C32 1_555 1_555
O21 C38 1_555 1_555
C26 C38 1_555 1_555
C32 C35 1_555 1_555
Cd3 Cl2 1_555 1_555
Cd9 O10 1_555 1_555
O7 Cd3 1_555 1_555
O10 C16 1_555 1_555
O14 Cd3 1_555 1_555
O17 Cd2_3 1_555 1_555
O27 Cd3 1_555 1_555
O34 Cd3 1_555 1_555
C16 O7 1_555 1_555
C19 C16 1_555 1_555
C22 C19 1_555 1_555
H19 C22 1_555 1_555
Cd9 Cl3 1_555 1_555
O8 Cd9 1_555 1_555
O14 C17 1_555 1_555
O18 Cd2_4 1_555 1_555
O28 Cd9 1_555 1_555
O35 Cd9 1_555 1_555
C17 O8 1_555 1_555
C20 C17 1_555 1_555
C23 C20 1_555 1_555
H20 C23 1_555 1_555
Cd1 Cl1 1_555 1_555
Cd2_5 O3 1_555 1_555
O1 Cd1 1_555 1_555
O2 C7 1_555 1_555
C7 O1 1_555 1_555
C8 C7 1_555 1_555
C9 C8 1_555 1_555
H16 C9 1_555 1_555
Cd6 O2 1_555 1_555
O13 Cd1 1_555 1_555
O26 Cd1 1_555 1_555
O33 Cd1 1_555 1_555
Cd6 Cl4 1_555 1_555
O9 Cd6 1_555 1_555
O13 C18 1_555 1_555
O19 Cd2_6 1_555 1_555
O29 Cd6 1_555 1_555
O36 Cd6 1_555 1_555
C18 O9 1_555 1_555
C21 C18 1_555 1_555
C24 C21 1_555 1_555
H21 C24 1_555 1_555
Cd10 O23 1_555 1_555
Cd11 O30 1_555 1_555
O20 Cd2_7 1_555 1_555
O23 C40 1_555 1_555
O30 C40 1_555 1_555
C28 C25 1_555 1_555
H22 C28 1_555 1_555
C31 C28 1_555 1_555
H25 C34 1_555 1_555
C40 C31 1_555 1_555
O20 C37 1_555 1_555
C25 C37 1_555 1_555
C31 C34 1_555 1_555
Cd11 O25 1_555 1_555
Cd10 O32 1_555 1_555
O22 Cd2_8 1_555 1_555
O25 C42 1_555 1_555
O32 C42 1_555 1_555
C30 C27 1_555 1_555
H24 C30 1_555 1_555
C33 C30 1_555 1_555
H27 C36 1_555 1_555
C42 C33 1_555 1_555
O22 C39 1_555 1_555
C27 C39 1_555 1_555
C33 C36 1_555 1_555
Cd7 Cl1_2 1_555 1_555
Cd2_9 O3_2 1_555 1_555
O1_2 Cd7 1_555 1_555
O2_2 C7_2 1_555 1_555
O3_2 C14_2 1_555 1_555
O4_2 Cd2_9 1_555 1_555
O27 C15_2 1_555 1_555
O35 C15_2 1_555 1_555
C7_2 O1_2 1_555 1_555
C8_2 C7_2 1_555 1_555
C9_2 C8_2 1_555 1_555
H16_2 C9_2 1_555 1_555
C10_2 C9_2 1_555 1_555
C11_2 C10_2 1_555 1_555
H17_2 C11_2 1_555 1_555
C12_2 C11_2 1_555 1_555
C13_2 C8_2 1_555 1_555
H18_2 C13_2 1_555 1_555
C14_2 O4_2 1_555 1_555
C15_2 C12_2 1_555 1_555
Cd10 Cl2_2 1_555 1_555
Cd8 O2_2 1_555 1_555
Cd11 O10_2 1_555 1_555
O7_2 Cd10 1_555 1_555
O10_2 C16_2 1_555 1_555
O13_2 Cd7 1_555 1_555
O14_2 Cd10 1_555 1_555
O17_2 Cd2_9 1_555 1_555
O20_2 Cd2_9 1_555 1_555
O26 C40_2 1_555 1_555
O36 C40_2 1_555 1_555
C16_2 O7_2 1_555 1_555
C19_2 C16_2 1_555 1_555
C22_2 C19_2 1_555 1_555
H19_2 C22_2 1_555 1_555
C25_2 C22_2 1_555 1_555
C28_2 C25_2 1_555 1_555
H22_2 C28_2 1_555 1_555
C31_2 C28_2 1_555 1_555
C34_2 C19_2 1_555 1_555
H25_2 C34_2 1_555 1_555
C37_2 O17_2 1_555 1_555
C40_2 C31_2 1_555 1_555
C10_2 C14_2 1_555 1_555
C12_2 C13_2 1_555 1_555
O20_2 C37_2 1_555 1_555
C25_2 C37_2 1_555 1_555
C31_2 C34_2 1_555 1_555
Cd11 Cl3_2 1_555 1_555
Cd8 Cl4_2 1_555 1_555
O8_2 Cd11 1_555 1_555
O9_2 Cd8 1_555 1_555
O14_2 C17_2 1_555 1_555
O13_2 C18_2 1_555 1_555
O18_2 Cd2_10 1_555 1_555
O19_2 Cd2_10 1_555 1_555
O21_2 Cd2_10 1_555 1_555
O22_2 Cd2_10 1_555 1_555
O28 C41_2 1_555 1_555
O29 C42_2 1_555 1_555
O34 C41_2 1_555 1_555
O33 C42_2 1_555 1_555
C17_2 O8_2 1_555 1_555
C18_2 O9_2 1_555 1_555
C20_2 C17_2 1_555 1_555
C21_2 C18_2 1_555 1_555
C23_2 C20_2 1_555 1_555
C24_2 C21_2 1_555 1_555
H20_2 C23_2 1_555 1_555
H21_2 C24_2 1_555 1_555
C26_2 C23_2 1_555 1_555
C27_2 C24_2 1_555 1_555
C29_2 C26_2 1_555 1_555
C30_2 C27_2 1_555 1_555
H23_2 C29_2 1_555 1_555
H24_2 C30_2 1_555 1_555
C32_2 C29_2 1_555 1_555
C33_2 C30_2 1_555 1_555
C35_2 C20_2 1_555 1_555
C36_2 C21_2 1_555 1_555
H26_2 C35_2 1_555 1_555
H27_2 C36_2 1_555 1_555
C38_2 O18_2 1_555 1_555
C39_2 O19_2 1_555 1_555
C41_2 C32_2 1_555 1_555
C42_2 C33_2 1_555 1_555
O21_2 C38_2 1_555 1_555
O22_2 C39_2 1_555 1_555
C26_2 C38_2 1_555 1_555
C27_2 C39_2 1_555 1_555
C32_2 C35_2 1_555 1_555
C33_2 C36_2 1_555 1_555

#END
