
###############################################################################
#
# This file contains modified crystal structure data generated from the
# MOF subset of the Cambridge Structural Database (CSD) v543 
# hosted by the Cambridge Crystallographic Data Centre (CCDC).
#
# This work is licensed under the Creative Commons
# Attribution-NonCommercial-ShareAlike 4.0 International License.
# To view a copy of this license, visit
# http://creativecommons.org/licenses/by-nc-sa/4.0/
# or send a letter to
# Creative Commons, PO Box 1866, Mountain View, CA 94042, USA.
#
# CIF created using the CSD Python API on 29 September 2022
# The structure has been converted into the P1 space group
# The structure has a 3D framework
# The original CSD entry MITSAK is in the monoclinic crystal system
# The framework has been calculated to contain at least 10.0% void space
# The void calculation uses a probe of radius 1.32A, grid spacing 0.4
# The framework is charged, counterions have been retained in the structure
# H atom positions have been added when not included in the experimental data
# Generated hydrogen atom positions removed from atoms on special positions
#
###############################################################################

data_MITSAK
_chemical_formula_moiety         '(C72 H52 Cd8 O56 8-)n'
_symmetry_cell_setting           triclinic
_symmetry_space_group_name_H-M   'P 1'
_symmetry_Int_Tables_number      1
_space_group_name_Hall           'P 1'
loop_
_symmetry_equiv_pos_site_id
_symmetry_equiv_pos_as_xyz
1 x,y,z
_cell_length_a                   16.0984(16)
_cell_length_b                   14.6070(14)
_cell_length_c                   16.1257(16)
_cell_angle_alpha                90
_cell_angle_beta                 101.479(2)
_cell_angle_gamma                90
_cell_volume                     3716.1
loop_
_atom_site_label
_atom_site_type_symbol
_atom_site_fract_x
_atom_site_fract_y
_atom_site_fract_z
O38 O 0.0139(2) 0.0723(3) 0.8529(2)
H20 H 0.0658051 0.0879632 0.895023
O35 O 0.0944(2) 0.8765(3) 0.91557(18)
Cd2 Cd 0.04233(2) 0.06734(3) 0.108630(19)
O1 O 0.14716(19) 0.0354(2) 0.23729(16)
O2 O 0.05373(18) 0.1449(2) 0.23592(17)
O3 O 0.40412(17) 0.0340(2) 0.47292(17)
O4 O 0.40564(15) 0.12585(19) 0.58346(16)
O5 O 0.1673(2) 0.3269(3) 0.59854(18)
O6 O 0.05363(19) 0.3274(3) 0.49656(19)
O14 O 0.5112(2) 0.0709(2) 0.3506(2)
C1 C 0.1177(2) 0.1033(3) 0.2709(2)
C2 C 0.1665(3) 0.1336(3) 0.3601(2)
C3 C 0.1289(2) 0.2004(3) 0.4009(2)
H1 H 0.0768 0.2249 0.3751
C4 C 0.1679(3) 0.2304(3) 0.4785(2)
C5 C 0.2460(2) 0.1939(2) 0.5152(2)
H2 H 0.2738 0.2150 0.5678
C6 C 0.2836(2) 0.1259(2) 0.4744(2)
C7 C 0.2439(2) 0.0981(3) 0.3957(2)
H3 H 0.2695 0.0552 0.3663
C8 C 0.1291(3) 0.2989(3) 0.5314(3)
C9 C 0.3698(2) 0.0921(3) 0.5127(2)
Cd3 Cd 0.542281(16) 0.068204(18) 0.608604(16)
Cd7 Cd 0.04233(2) 0.43266(3) 0.608630(19)
O20 O 0.1673(2) 0.1731(3) 0.09854(18)
O26 O 0.55630(19) 0.1723(2) 0.49953(17)
O28 O 0.6697(2) 0.1726(3) 0.5995(2)
O30 O 0.5552(2) 0.1493(3) 0.7371(2)
O32 O 0.6471(2) 0.0405(3) 0.73532(19)
O37 O 0.90578(19) 0.0372(3) 0.97600(19)
H19 H 0.971207 0.121651 0.851421
O23 O 0.05363(19) 0.1726(3) 0.99656(19)
O24 O 0.94637(19) 0.8274(3) 0.00344(19)
Cd1 Cd 0.457719(16) 0.931796(18) 0.391396(16)
O7 O 0.44370(19) 0.8277(2) 0.50047(17)
O8 O 0.3303(2) 0.8274(3) 0.4005(2)
O9 O 0.4448(2) 0.6493(3) 0.7629(2)
O10 O 0.3529(2) 0.5405(3) 0.76468(19)
O11 O 0.0944(2) 0.6235(3) 0.41557(18)
O12 O 0.09422(19) 0.5372(3) 0.52400(19)
C10 C 0.3717(3) 0.7984(3) 0.4721(2)
C11 C 0.3294(3) 0.7307(3) 0.5148(3)
C12 C 0.3718(3) 0.6994(4) 0.6019(3)
H4 H 0.4230 0.7259 0.6277
C13 C 0.3388(3) 0.6364(4) 0.6418(3)
C14 C 0.2597(3) 0.5976(4) 0.6064(3)
H5 H 0.2362 0.5525 0.6354
C15 C 0.2141(3) 0.6295(4) 0.5222(3)
C16 C 0.2537(3) 0.6915(3) 0.4844(3)
H6 H 0.2262 0.7101 0.4308
C17 C 0.3806(3) 0.6037(4) 0.7311(3)
C18 C 0.1284(3) 0.5918(3) 0.4867(3)
Cd4 Cd 0.457719(16) 0.568204(18) 0.891396(16)
Cd6 Cd 0.95767(2) 0.93266(3) 0.891370(19)
Cd10 Cd 0.95767(2) 0.56734(3) 0.391370(19)
O15 O 0.85284(19) 0.9646(2) 0.76271(16)
O16 O 0.94627(18) 0.8551(2) 0.76408(17)
O17 O 0.59588(17) 0.9660(2) 0.52708(17)
O18 O 0.59436(15) 0.87415(19) 0.41654(16)
O19 O 0.8327(2) 0.6731(3) 0.40146(18)
O21 O 0.8327(2) 0.8269(3) 0.90146(18)
O22 O 0.94637(19) 0.6726(3) 0.50344(19)
O25 O 0.44370(19) 0.6723(2) 0.00047(17)
O29 O 0.4448(2) 0.8507(3) 0.2629(2)
O31 O 0.3529(2) 0.9595(3) 0.26468(19)
O36 O 0.09422(19) 0.9628(3) 0.02400(19)
O39 O 0.4888(2) 0.9291(2) 0.6494(2)
C19 C 0.8823(2) 0.8967(3) 0.7291(2)
C20 C 0.8335(3) 0.8664(3) 0.6399(2)
C21 C 0.8711(2) 0.7996(3) 0.5991(2)
H7 H 0.9232 0.7751 0.6249
C22 C 0.8321(3) 0.7696(3) 0.5215(2)
C23 C 0.7540(2) 0.8061(2) 0.4848(2)
H8 H 0.7262 0.7850 0.4322
C24 C 0.7164(2) 0.8741(2) 0.5256(2)
C25 C 0.7561(2) 0.9019(3) 0.6043(2)
H9 H 0.7305 0.9448 0.6337
C26 C 0.8709(3) 0.7011(3) 0.4686(3)
C27 C 0.6302(2) 0.9079(3) 0.4873(2)
C29 C 0.3294(3) 0.7693(3) 0.0148(3)
C30 C 0.3718(3) 0.8006(4) 0.1019(3)
H10 H 0.4230 0.7741 0.1277
C31 C 0.3388(3) 0.8636(4) 0.1418(3)
C32 C 0.2597(3) 0.9024(4) 0.1064(3)
H11 H 0.2362 0.9475 0.1354
C33 C 0.2141(3) 0.8705(4) 0.0222(3)
C35 C 0.3806(3) 0.8963(4) 0.2311(3)
O27 O 0.3303(2) 0.6726(3) 0.9005(2)
C28 C 0.3717(3) 0.7016(3) 0.9721(2)
C34 C 0.2537(3) 0.8085(3) 0.9844(3)
H12 H 0.2262 0.7899 0.9308
C36 C 0.1284(3) 0.9082(3) 0.9867(3)
O34 O 0.9056(2) 0.1235(3) 0.08443(18)
O13 O 0.9861(2) 0.9277(3) 0.1471(2)
H17 H 0.971693 0.934057 0.203904
H18 H 0.934195 0.912037 0.104977
O13_2 O 0.0139(2) 0.4277(3) 0.3529(2)
H17_2 H 0.0283075 0.434057 0.296096
H18_2 H 0.0658051 0.412037 0.395023
Cd1_2 Cd 0.542281(16) 0.431796(18) 0.108604(16)
O1_2 O 0.85284(19) 0.5354(2) 0.26271(16)
O2_2 O 0.94627(18) 0.6449(2) 0.26408(17)
O3_2 O 0.59588(17) 0.5340(2) 0.02708(17)
O8_2 O 0.6697(2) 0.3274(3) 0.0995(2)
O14_2 O 0.4888(2) 0.5709(2) 0.1494(2)
C1_2 C 0.8823(2) 0.6033(3) 0.2291(2)
C2_2 C 0.8335(3) 0.6336(3) 0.1399(2)
C3_2 C 0.8711(2) 0.7004(3) 0.0991(2)
H1_2 H 0.9232 0.7249 0.1249
C4_2 C 0.8321(3) 0.7304(3) 0.0215(2)
C6_2 C 0.7164(2) 0.6259(2) 0.0256(2)
C7_2 C 0.7561(2) 0.5981(3) 0.1043(2)
H3_2 H 0.7305 0.5552 0.1337
C10_2 C 0.6283(3) 0.2984(3) 0.0279(2)
C16_2 C 0.7463(3) 0.1915(3) 0.0156(3)
H6_2 H 0.7738 0.2101 0.0692
C18_2 C 0.8716(3) 0.0918(3) 0.0133(3)
O18_2 O 0.40564(15) 0.37415(19) 0.08346(16)
O29_2 O 0.5552(2) 0.3507(3) 0.2371(2)
O31_2 O 0.6471(2) 0.4595(3) 0.23532(19)
O33 O 0.9056(2) 0.3765(3) 0.58443(18)
O36_2 O 0.90578(19) 0.4628(3) 0.47600(19)
C23_2 C 0.2460(2) 0.3061(2) 0.0152(2)
H8_2 H 0.2738 0.2850 0.0678
C26_2 C 0.1291(3) 0.2011(3) 0.0314(3)
C27_2 C 0.3698(2) 0.4079(3) 0.0127(2)
C28_2 C 0.6283(3) 0.2016(3) 0.5279(2)
C29_2 C 0.6706(3) 0.2693(3) 0.4852(3)
C30_2 C 0.6282(3) 0.3006(4) 0.3981(3)
H10_2 H 0.5770 0.2741 0.3723
C31_2 C 0.6612(3) 0.3636(4) 0.3582(3)
C32_2 C 0.7403(3) 0.4024(4) 0.3936(3)
H11_2 H 0.7638 0.4475 0.3646
C33_2 C 0.7859(3) 0.3705(4) 0.4778(3)
C34_2 C 0.7463(3) 0.3085(3) 0.5156(3)
H12_2 H 0.7738 0.2899 0.5692
C35_2 C 0.6194(3) 0.3963(4) 0.2689(3)
C36_2 C 0.8716(3) 0.4082(3) 0.5133(3)
O4_2 O 0.59436(15) 0.62585(19) 0.91654(16)
O7_2 O 0.55630(19) 0.3277(2) 0.99953(17)
C5_2 C 0.7540(2) 0.6939(2) 0.9848(2)
H2_2 H 0.7262 0.7150 0.9322
C8_2 C 0.8709(3) 0.7989(3) 0.9686(3)
C9_2 C 0.6302(2) 0.5921(3) 0.9873(2)
C11_2 C 0.6706(3) 0.2307(3) 0.9852(3)
C12_2 C 0.6282(3) 0.1994(4) 0.8981(3)
H4_2 H 0.5770 0.2259 0.8723
C13_2 C 0.6612(3) 0.1364(4) 0.8582(3)
C14_2 C 0.7403(3) 0.0976(4) 0.8936(3)
H5_2 H 0.7638 0.0525 0.8646
C15_2 C 0.7859(3) 0.1295(4) 0.9778(3)
C17_2 C 0.6194(3) 0.1037(4) 0.7689(3)
O15_2 O 0.14716(19) 0.4646(2) 0.73729(16)
O16_2 O 0.05373(18) 0.3551(2) 0.73592(17)
O17_2 O 0.40412(17) 0.4660(2) 0.97292(17)
O39_2 O 0.5112(2) 0.4291(2) 0.8506(2)
C19_2 C 0.1177(2) 0.3967(3) 0.7709(2)
C20_2 C 0.1665(3) 0.3664(3) 0.8601(2)
C21_2 C 0.1289(2) 0.2996(3) 0.9009(2)
H7_2 H 0.0768 0.2751 0.8751
C22_2 C 0.1679(3) 0.2696(3) 0.9785(2)
C24_2 C 0.2836(2) 0.3741(2) 0.9744(2)
C25_2 C 0.2439(2) 0.4019(3) 0.8957(2)
H9_2 H 0.2695 0.4448 0.8663
H19_2 H 0.0287926 0.621651 0.648579
O38_2 O 0.9861(2) 0.5723(3) 0.6471(2)
H20_2 H 0.934195 0.587963 0.604977
H17_3 H 0.0283075 0.0659435 0.796096
H19_3 H 0.0287926 0.878349 0.148579
H19_4 H 0.971207 0.378349 0.351421
H17_4 H 0.971693 0.565943 0.703904
loop_
_geom_bond_atom_site_label_1
_geom_bond_atom_site_label_2
_geom_bond_site_symmetry_1
_geom_bond_site_symmetry_2
O38 H20 1_555 1_555
Cd2 O1 1_555 1_555
O1 C1 1_555 1_555
O2 Cd2 1_555 1_555
O3 C9 1_555 1_555
O4 C9 1_555 1_555
O5 C8 1_555 1_555
O6 C8 1_555 1_555
C1 O2 1_555 1_555
C2 C1 1_555 1_555
C3 C2 1_555 1_555
H1 C3 1_555 1_555
C4 C3 1_555 1_555
C5 C4 1_555 1_555
H2 C5 1_555 1_555
C6 C5 1_555 1_555
C7 C2 1_555 1_555
H3 C7 1_555 1_555
C8 C4 1_555 1_555
C9 C6 1_555 1_555
Cd3 O4 1_555 1_555
Cd7 O5 1_555 1_555
O20 Cd2 1_555 1_555
O26 Cd3 1_555 1_555
O28 Cd3 1_555 1_555
O30 Cd3 1_555 1_555
O32 Cd3 1_555 1_555
O6 Cd7 1_555 1_555
C6 C7 1_555 1_555
O7 Cd1 1_555 1_555
O8 Cd1 1_555 1_555
O9 C17 1_555 1_555
O10 C17 1_555 1_555
O11 C18 1_555 1_555
O12 C18 1_555 1_555
C10 O7 1_555 1_555
C11 C10 1_555 1_555
C12 C11 1_555 1_555
H4 C12 1_555 1_555
C13 C12 1_555 1_555
C14 C13 1_555 1_555
H5 C14 1_555 1_555
C15 C14 1_555 1_555
C16 C11 1_555 1_555
H6 C16 1_555 1_555
C17 C13 1_555 1_555
C18 C15 1_555 1_555
Cd4 O9 1_555 1_555
Cd6 O15 1_555 1_555
Cd7 O12 1_555 1_555
Cd10 O19 1_555 1_555
O15 C19 1_555 1_555
O16 Cd6 1_555 1_555
O18 Cd1 1_555 1_555
O19 C26 1_555 1_555
O21 Cd6 1_555 1_555
O22 Cd10 1_555 1_555
O29 Cd1 1_555 1_555
O31 Cd1 1_555 1_555
C19 O16 1_555 1_555
C20 C19 1_555 1_555
C21 C20 1_555 1_555
H7 C21 1_555 1_555
C22 C21 1_555 1_555
C23 C22 1_555 1_555
H8 C23 1_555 1_555
C24 C23 1_555 1_555
C25 C20 1_555 1_555
H9 C25 1_555 1_555
C26 O22 1_555 1_555
C27 O17 1_555 1_555
C30 C29 1_555 1_555
H10 C30 1_555 1_555
C31 C30 1_555 1_555
C32 C31 1_555 1_555
H11 C32 1_555 1_555
C33 C32 1_555 1_555
C35 O29 1_555 1_555
O8 C10 1_555 1_555
O10 Cd4 1_555 1_555
C15 C16 1_555 1_555
O18 C27 1_555 1_555
O31 C35 1_555 1_555
C22 C26 1_555 1_555
C24 C25 1_555 1_555
C24 C27 1_555 1_555
C31 C35 1_555 1_555
O27 Cd4 1_555 1_555
O35 C36 1_555 1_555
C28 O27 1_555 1_555
H12 C34 1_555 1_555
O13 H17 1_555 1_555
O13 H18 1_555 1_555
O13_2 H17_2 1_555 1_555
O13_2 H18_2 1_555 1_555
Cd1_2 O3_2 1_555 1_555
Cd10 O1_2 1_555 1_555
O1_2 C1_2 1_555 1_555
O2_2 Cd10 1_555 1_555
O8_2 Cd1_2 1_555 1_555
O34 C18_2 1_555 1_555
O14_2 Cd1_2 1_555 1_555
C1_2 O2_2 1_555 1_555
C2_2 C1_2 1_555 1_555
C3_2 C2_2 1_555 1_555
H1_2 C3_2 1_555 1_555
C4_2 C3_2 1_555 1_555
C7_2 C2_2 1_555 1_555
H3_2 C7_2 1_555 1_555
H6_2 C16_2 1_555 1_555
O18_2 Cd1_2 1_555 1_555
O20 C26_2 1_555 1_555
O26 C28_2 1_555 1_555
O29_2 Cd1_2 1_555 1_555
O31_2 Cd1_2 1_555 1_555
O33 C36_2 1_555 1_555
O36_2 Cd10 1_555 1_555
H8_2 C23_2 1_555 1_555
C28_2 O28 1_555 1_555
C29_2 C28_2 1_555 1_555
C30_2 C29_2 1_555 1_555
H10_2 C30_2 1_555 1_555
C31_2 C30_2 1_555 1_555
C32_2 C31_2 1_555 1_555
H11_2 C32_2 1_555 1_555
C33_2 C32_2 1_555 1_555
C34_2 C29_2 1_555 1_555
H12_2 C34_2 1_555 1_555
C35_2 O29_2 1_555 1_555
C36_2 O36_2 1_555 1_555
O8_2 C10_2 1_555 1_555
C6_2 C7_2 1_555 1_555
O18_2 C27_2 1_555 1_555
O31_2 C35_2 1_555 1_555
C31_2 C35_2 1_555 1_555
C33_2 C34_2 1_555 1_555
C33_2 C36_2 1_555 1_555
O4_2 C9_2 1_555 1_555
O21 C8_2 1_555 1_555
O30 C17_2 1_555 1_555
O32 C17_2 1_555 1_555
H2_2 C5_2 1_555 1_555
C12_2 C11_2 1_555 1_555
H4_2 C12_2 1_555 1_555
C13_2 C12_2 1_555 1_555
C14_2 C13_2 1_555 1_555
H5_2 C14_2 1_555 1_555
C15_2 C14_2 1_555 1_555
C17_2 C13_2 1_555 1_555
Cd4 O4_2 1_555 1_555
Cd7 O15_2 1_555 1_555
O15_2 C19_2 1_555 1_555
O16_2 Cd7 1_555 1_555
O17_2 Cd4 1_555 1_555
O39_2 Cd4 1_555 1_555
C19_2 O16_2 1_555 1_555
C20_2 C19_2 1_555 1_555
C21_2 C20_2 1_555 1_555
H7_2 C21_2 1_555 1_555
C22_2 C21_2 1_555 1_555
C25_2 C20_2 1_555 1_555
H9_2 C25_2 1_555 1_555
C24_2 C25_2 1_555 1_555
O38_2 H20_2 1_555 1_555
O38 H17_3 1_555 1_555
O38_2 H17_4 1_555 1_555

#END
