
###############################################################################
#
# This file contains modified crystal structure data generated from the
# MOF subset of the Cambridge Structural Database (CSD) v543 
# hosted by the Cambridge Crystallographic Data Centre (CCDC).
#
# This work is licensed under the Creative Commons
# Attribution-NonCommercial-ShareAlike 4.0 International License.
# To view a copy of this license, visit
# http://creativecommons.org/licenses/by-nc-sa/4.0/
# or send a letter to
# Creative Commons, PO Box 1866, Mountain View, CA 94042, USA.
#
# CIF created using the CSD Python API on 29 September 2022
# The structure has been converted into the P1 space group
# The structure has a 3D framework
# The original CSD entry MITZUN is in the trigonal crystal system
# The original CSD entry MITZUN is in a Sohncke space group
# The framework has been calculated to contain at least 10.0% void space
# The void calculation uses a probe of radius 1.32A, grid spacing 0.4
# The framework is charged, counterions have been retained in the structure
#
###############################################################################

data_MITZUN
_chemical_formula_moiety         '(C96 H36 O44 Tb2 4-)n'
_symmetry_cell_setting           triclinic
_symmetry_space_group_name_H-M   'P 1'
_symmetry_Int_Tables_number      1
_space_group_name_Hall           'P 1'
loop_
_symmetry_equiv_pos_site_id
_symmetry_equiv_pos_as_xyz
1 x,y,z
_cell_length_a                   13.825(5)
_cell_length_b                   13.825(5)
_cell_length_c                   22.984(5)
_cell_angle_alpha                90
_cell_angle_beta                 90
_cell_angle_gamma                120
_cell_volume                     3804.4
loop_
_atom_site_label
_atom_site_type_symbol
_atom_site_fract_x
_atom_site_fract_y
_atom_site_fract_z
Tb6 Tb 0.02841(4) 0.33350(3) 0.25637(2)
O3 O 0.9672(5) 0.1837(5) 0.3343(2)
O4 O 0.8760(5) 0.2751(5) 0.3265(2)
O5 O 0.4185(5) 0.1852(3) 0.67367(19)
O6 O 0.4891(5) 0.0767(5) 0.6753(2)
O7 O 0.6767(4) 0.5094(4) 0.4631(2)
O8 O 0.6035(4) 0.5219(4) 0.54760(19)
C2 C 0.7559(6) 0.0053(6) 0.4784(3)
C3 C 0.7138(7) 0.0603(6) 0.5096(3)
H1 H 0.681303 0.032642 0.545719
C4 C 0.8153(6) 0.0513(6) 0.4267(3)
H2 H 0.846523 0.015474 0.406330
C5 C 0.8270(6) 0.1514(6) 0.4064(3)
C6 C 0.8947(7) 0.2056(7) 0.3514(3)
C7 C 0.7804(6) 0.2038(7) 0.4366(3)
H3 H 0.790034 0.271123 0.422575
C8 C 0.7191(6) 0.1594(5) 0.4878(3)
C9 C 0.6652(7) 0.2144(6) 0.5205(3)
C10 C 0.6040(6) 0.1656(6) 0.5698(3)
H4 H 0.597666 0.098966 0.582875
C11 C 0.5516(7) 0.2118(6) 0.6006(3)
C12 C 0.4827(7) 0.1544(7) 0.6528(3)
C13 C 0.5643(6) 0.3132(6) 0.5818(3)
H5 H 0.532037 0.347228 0.602889
C14 C 0.6246(6) 0.3633(6) 0.5321(3)
C15 C 0.6362(6) 0.4743(6) 0.5125(3)
C16 C 0.6751(6) 0.3153(6) 0.5012(3)
H6 H 0.715526 0.349542 0.467686
Tb2 Tb 0.69491(3) 0.66650(3) 0.41030(2)
Tb3 Tb 0.33350(3) 0.02841(4) 0.74363(2)
Tb5 Tb 0.66650(3) 0.69491(3) 0.58970(2)
O1 O 0.7245(5) 0.8236(4) 0.4627(2)
O2 O 0.7336(4) 0.8807(4) 0.5541(2)
C1 C 0.7374(6) 0.8957(5) 0.5008(3)
O9 O 0.8807(4) 0.7336(4) 0.4459(2)
O10 O 0.7835(7) 0.8163(5) 0.3324(2)
O11 O 0.6009(7) 0.7249(5) 0.3402(2)
O12 O 0.7667(6) 0.5815(5) 0.34034(19)
O13 O 0.5876(7) 0.5109(5) 0.3420(2)
O15 O 0.5219(4) 0.6035(4) 0.45240(19)
O9_2 O 0.2664(4) 0.1471(6) 0.7792(2)
O14 O 0.4906(4) 0.1673(6) 0.7964(2)
O1_2 O 0.1764(4) 0.9009(6) 0.7960(2)
O2_2 O 0.1193(4) 0.8529(6) 0.8874(2)
C1_2 C 0.1043(5) 0.8417(8) 0.8341(3)
Tb4 Tb 0.30509(3) 0.97159(4) 0.92303(2)
O10_2 O 0.1837(5) 0.9672(9) 0.6657(2)
O11_2 O 0.2751(5) 0.8760(9) 0.6735(2)
O15_2 O 0.3965(4) 0.9184(6) 0.78573(19)
O5_2 O 0.8148(3) 0.2333(6) 0.00700(19)
O6_2 O 0.9233(5) 0.4124(7) 0.0086(2)
Tb3_2 Tb 0.97159(4) 0.30509(5) 0.07697(2)
O3_2 O 0.8163(5) 0.7835(7) 0.6676(2)
O4_2 O 0.7249(5) 0.6009(7) 0.6598(2)
O8_2 O 0.4781(4) 0.0816(6) 0.88093(19)
C2_2 C 0.9947(6) 0.7506(8) 0.8117(3)
C3_2 C 0.9397(6) 0.6535(9) 0.8429(3)
H1_2 H 0.967358 0.648661 0.879052
C4_2 C 0.9487(6) 0.7640(8) 0.7600(3)
H2_2 H 0.984526 0.831049 0.739663
C5_2 C 0.8486(6) 0.6756(8) 0.7397(3)
C6_2 C 0.7944(7) 0.6891(10) 0.6847(3)
C7_2 C 0.7962(7) 0.5766(9) 0.7699(3)
H3_2 H 0.728877 0.518911 0.755908
C8_2 C 0.8406(5) 0.5597(8) 0.8211(3)
C9_2 C 0.7856(6) 0.4508(9) 0.8538(3)
C10_2 C 0.8344(6) 0.4384(8) 0.9031(3)
H4_2 H 0.901034 0.498700 0.916208
C11_2 C 0.7882(6) 0.3398(9) 0.9339(3)
C12_2 C 0.8456(7) 0.3283(10) 0.9861(3)
C13_2 C 0.6868(6) 0.2511(8) 0.9151(3)
H5_2 H 0.652772 0.184809 0.936222
C14_2 C 0.6367(6) 0.2613(8) 0.8654(3)
C15_2 C 0.5257(6) 0.1619(8) 0.8458(3)
C16_2 C 0.6847(6) 0.3598(8) 0.8345(3)
H6_2 H 0.650458 0.365984 0.801019
O1_3 O 0.0991(6) 0.2755(5) 0.1294(2)
O2_3 O 0.1471(6) 0.2664(4) 0.2208(2)
O3_3 O 0.2165(7) 0.0328(5) 0.0010(2)
O7_2 O 0.8327(6) 0.3233(4) 0.1298(2)
O8_3 O 0.9184(6) 0.3965(4) 0.21427(19)
C1_3 C 0.1583(8) 0.2626(6) 0.1675(3)
C2_3 C 0.2494(8) 0.2441(6) 0.1451(3)
C3_3 C 0.3465(9) 0.2862(7) 0.1763(3)
H1_3 H 0.351339 0.318697 0.212386
C4_3 C 0.2360(8) 0.1847(6) 0.0934(3)
H2_3 H 0.168951 0.153477 0.072997
C5_3 C 0.3244(8) 0.1730(6) 0.0731(3)
C6_3 C 0.3109(10) 0.1053(7) 0.0181(3)
C7_3 C 0.4234(9) 0.2196(6) 0.1033(3)
H3_3 H 0.481089 0.209966 0.089242
C8_3 C 0.4403(8) 0.2809(6) 0.1545(3)
C9_3 C 0.5492(9) 0.3348(7) 0.1872(3)
C10_3 C 0.5616(8) 0.3960(6) 0.2365(3)
H4_3 H 0.501300 0.402334 0.249542
C11_3 C 0.6602(9) 0.4484(7) 0.2673(3)
C12_3 C 0.6717(10) 0.5173(7) 0.3195(3)
C13_3 C 0.7489(8) 0.4357(6) 0.2485(3)
H5_3 H 0.815191 0.467963 0.269556
C14_3 C 0.7387(8) 0.3754(6) 0.1988(3)
C15_3 C 0.8381(8) 0.3638(6) 0.1792(3)
C16_3 C 0.6402(8) 0.3249(6) 0.1679(3)
H6_3 H 0.634016 0.284474 0.134353
O11_3 O 0.1240(9) 0.3991(7) 0.0068(2)
O15_3 O 0.0816(6) 0.4781(4) 0.11907(19)
O4_3 O 0.3991(7) 0.1240(5) 0.9932(2)
O10_3 O 0.0328(9) 0.2165(7) 0.9990(2)
O9_3 O 0.8529(6) 0.1193(4) 0.1126(2)
O5_3 O 0.1852(3) 0.4185(5) 0.32633(19)
O6_3 O 0.0767(5) 0.4891(5) 0.3247(2)
O7_3 O 0.5094(4) 0.6767(4) 0.5369(2)
C2_4 C 0.0053(6) 0.7559(6) 0.5216(3)
C3_4 C 0.0603(6) 0.7138(7) 0.4904(3)
H1_4 H 0.032642 0.681303 0.454281
C4_4 C 0.0513(6) 0.8153(6) 0.5733(3)
H2_4 H 0.015474 0.846523 0.593670
C5_4 C 0.1514(6) 0.8270(6) 0.5936(3)
C6_4 C 0.2056(7) 0.8947(7) 0.6486(3)
C7_4 C 0.2038(7) 0.7804(6) 0.5634(3)
H3_4 H 0.271123 0.790034 0.577425
C8_4 C 0.1594(5) 0.7191(6) 0.5122(3)
C9_4 C 0.2144(6) 0.6652(7) 0.4795(3)
C10_4 C 0.1656(6) 0.6040(6) 0.4302(3)
H4_4 H 0.098966 0.597666 0.417125
C11_4 C 0.2118(6) 0.5516(7) 0.3994(3)
C12_4 C 0.1544(7) 0.4827(7) 0.3472(3)
C13_4 C 0.3132(6) 0.5643(6) 0.4182(3)
H5_4 H 0.347228 0.532037 0.397111
C14_4 C 0.3633(6) 0.6246(6) 0.4679(3)
C15_4 C 0.4743(6) 0.6362(6) 0.4875(3)
C16_4 C 0.3153(6) 0.6751(6) 0.4988(3)
H6_4 H 0.349542 0.715526 0.532314
O1_4 O 0.8236(4) 0.7245(5) 0.5373(2)
C1_4 C 0.8957(5) 0.7374(6) 0.4992(3)
O12_2 O 0.5815(5) 0.7667(6) 0.65966(19)
O13_2 O 0.5109(5) 0.5876(7) 0.6580(2)
O1_5 O 0.2755(5) 0.0991(6) 0.8706(2)
O7_4 O 0.3233(4) 0.8327(6) 0.8702(2)
C1_5 C 0.2626(6) 0.1583(8) 0.8325(3)
C2_5 C 0.2441(6) 0.2494(8) 0.8549(3)
C3_5 C 0.2862(7) 0.3465(9) 0.8237(3)
H1_5 H 0.318697 0.351339 0.787614
C4_5 C 0.1847(6) 0.2360(8) 0.9066(3)
H2_5 H 0.153477 0.168951 0.927003
C5_5 C 0.1730(6) 0.3244(8) 0.9269(3)
C6_5 C 0.1053(7) 0.3109(10) 0.9819(3)
C7_5 C 0.2196(6) 0.4234(9) 0.8967(3)
H3_5 H 0.209966 0.481089 0.910758
C8_5 C 0.2809(6) 0.4403(8) 0.8455(3)
C9_5 C 0.3348(7) 0.5492(9) 0.8128(3)
C10_5 C 0.3960(6) 0.5616(8) 0.7635(3)
H4_5 H 0.402334 0.501300 0.750458
C11_5 C 0.4484(7) 0.6602(9) 0.7327(3)
C12_5 C 0.5173(7) 0.6717(10) 0.6805(3)
C13_5 C 0.4357(6) 0.7489(8) 0.7515(3)
H5_5 H 0.467963 0.815191 0.730444
C14_5 C 0.3754(6) 0.7387(8) 0.8012(3)
C15_5 C 0.3638(6) 0.8381(8) 0.8208(3)
C16_5 C 0.3249(6) 0.6402(8) 0.8321(3)
H6_5 H 0.284474 0.634016 0.865647
O12_3 O 0.2333(6) 0.8148(8) 0.99300(19)
O13_3 O 0.4124(7) 0.9233(9) 0.9914(2)
O14_2 O 0.1673(6) 0.4906(4) 0.2036(2)
O1_6 O 0.9009(6) 0.1764(4) 0.2040(2)
C1_6 C 0.8417(8) 0.1043(5) 0.1659(3)
C2_6 C 0.7506(8) 0.9947(6) 0.1883(3)
C3_6 C 0.6535(9) 0.9397(6) 0.1571(3)
H1_6 H 0.648661 0.967358 0.120948
C4_6 C 0.7640(8) 0.9487(6) 0.2400(3)
H2_6 H 0.831049 0.984526 0.260337
C5_6 C 0.6756(8) 0.8486(6) 0.2603(3)
C6_6 C 0.6891(10) 0.7944(7) 0.3153(3)
C7_6 C 0.5766(9) 0.7962(7) 0.2301(3)
H3_6 H 0.518911 0.728877 0.244092
C8_6 C 0.5597(8) 0.8406(5) 0.1789(3)
C9_6 C 0.4508(9) 0.7856(6) 0.1462(3)
C10_6 C 0.4384(8) 0.8344(6) 0.0969(3)
H4_6 H 0.498700 0.901034 0.083792
C11_6 C 0.3398(9) 0.7882(6) 0.0661(3)
C12_6 C 0.3283(10) 0.8456(7) 0.0139(3)
C13_6 C 0.2511(8) 0.6868(6) 0.0849(3)
H5_6 H 0.184809 0.652772 0.063778
C14_6 C 0.2613(8) 0.6367(6) 0.1346(3)
C15_6 C 0.1619(8) 0.5257(6) 0.1542(3)
C16_6 C 0.3598(8) 0.6847(6) 0.1655(3)
H6_6 H 0.365984 0.650458 0.198981
loop_
_geom_bond_atom_site_label_1
_geom_bond_atom_site_label_2
_geom_bond_site_symmetry_1
_geom_bond_site_symmetry_2
O3 C6 1_555 1_555
O4 C6 1_555 1_555
O5 C12 1_555 1_555
O6 C12 1_555 1_555
O7 C15 1_555 1_555
O8 C15 1_555 1_555
C2 C3 1_555 1_555
C3 H1 1_555 1_555
C4 C2 1_555 1_555
H2 C4 1_555 1_555
C5 C4 1_555 1_555
C6 C5 1_555 1_555
C7 C5 1_555 1_555
H3 C7 1_555 1_555
C8 C3 1_555 1_555
C9 C8 1_555 1_555
C10 C9 1_555 1_555
H4 C10 1_555 1_555
C11 C10 1_555 1_555
C12 C11 1_555 1_555
C13 C11 1_555 1_555
H5 C13 1_555 1_555
C14 C13 1_555 1_555
C15 C14 1_555 1_555
C16 C9 1_555 1_555
H6 C16 1_555 1_555
Tb2 O7 1_555 1_555
Tb3 O5 1_555 1_555
Tb5 O8 1_555 1_555
O6 Tb3 1_555 1_555
C7 C8 1_555 1_555
C14 C16 1_555 1_555
Tb2 O1 1_555 1_555
O1 C1 1_555 1_555
O2 C1 1_555 1_555
Tb5 O2 1_555 1_555
O9 Tb2 1_555 1_555
O10 Tb2 1_555 1_555
O11 Tb2 1_555 1_555
O12 Tb2 1_555 1_555
O13 Tb2 1_555 1_555
O15 Tb2 1_555 1_555
O9_2 Tb3 1_555 1_555
O14 Tb3 1_555 1_555
O1_2 C1_2 1_555 1_555
O2_2 C1_2 1_555 1_555
Tb4 O2_2 1_555 1_555
Tb3_2 O5_2 1_555 1_555
O6_2 Tb3_2 1_555 1_555
O3_2 C6_2 1_555 1_555
O4_2 C6_2 1_555 1_555
O14 C15_2 1_555 1_555
O8_2 C15_2 1_555 1_555
C2_2 C3_2 1_555 1_555
C3_2 H1_2 1_555 1_555
C4_2 C2_2 1_555 1_555
H2_2 C4_2 1_555 1_555
C5_2 C4_2 1_555 1_555
C6_2 C5_2 1_555 1_555
C7_2 C5_2 1_555 1_555
H3_2 C7_2 1_555 1_555
C8_2 C3_2 1_555 1_555
C9_2 C8_2 1_555 1_555
C10_2 C9_2 1_555 1_555
H4_2 C10_2 1_555 1_555
C11_2 C10_2 1_555 1_555
C12_2 C11_2 1_555 1_555
C13_2 C11_2 1_555 1_555
H5_2 C13_2 1_555 1_555
C14_2 C13_2 1_555 1_555
C15_2 C14_2 1_555 1_555
C16_2 C9_2 1_555 1_555
H6_2 C16_2 1_555 1_555
Tb5 O3_2 1_555 1_555
O4_2 Tb5 1_555 1_555
C7_2 C8_2 1_555 1_555
C14_2 C16_2 1_555 1_555
O1_3 C1_3 1_555 1_555
O2_3 C1_3 1_555 1_555
O3_3 C6_3 1_555 1_555
O12 C12_3 1_555 1_555
O13 C12_3 1_555 1_555
O7_2 C15_3 1_555 1_555
O8_3 C15_3 1_555 1_555
C1_3 C2_3 1_555 1_555
C2_3 C3_3 1_555 1_555
C3_3 H1_3 1_555 1_555
C4_3 C2_3 1_555 1_555
H2_3 C4_3 1_555 1_555
C5_3 C4_3 1_555 1_555
C6_3 C5_3 1_555 1_555
C7_3 C5_3 1_555 1_555
H3_3 C7_3 1_555 1_555
C8_3 C3_3 1_555 1_555
C9_3 C8_3 1_555 1_555
C10_3 C9_3 1_555 1_555
H4_3 C10_3 1_555 1_555
C11_3 C10_3 1_555 1_555
C12_3 C11_3 1_555 1_555
C13_3 C11_3 1_555 1_555
H5_3 C13_3 1_555 1_555
C14_3 C13_3 1_555 1_555
C15_3 C14_3 1_555 1_555
C16_3 C9_3 1_555 1_555
H6_3 C16_3 1_555 1_555
Tb3_2 O7_2 1_555 1_555
Tb6 O2_3 1_555 1_555
C7_3 C8_3 1_555 1_555
C14_3 C16_3 1_555 1_555
O9_3 Tb3_2 1_555 1_555
O10_2 C6_4 1_555 1_555
O11_2 C6_4 1_555 1_555
O5_3 C12_4 1_555 1_555
O6_3 C12_4 1_555 1_555
O7_3 C15_4 1_555 1_555
O15 C15_4 1_555 1_555
C2_4 C3_4 1_555 1_555
C3_4 H1_4 1_555 1_555
C4_4 C2_4 1_555 1_555
H2_4 C4_4 1_555 1_555
C5_4 C4_4 1_555 1_555
C6_4 C5_4 1_555 1_555
C7_4 C5_4 1_555 1_555
H3_4 C7_4 1_555 1_555
C8_4 C3_4 1_555 1_555
C9_4 C8_4 1_555 1_555
C10_4 C9_4 1_555 1_555
H4_4 C10_4 1_555 1_555
C11_4 C10_4 1_555 1_555
C12_4 C11_4 1_555 1_555
C13_4 C11_4 1_555 1_555
H5_4 C13_4 1_555 1_555
C14_4 C13_4 1_555 1_555
C15_4 C14_4 1_555 1_555
C16_4 C9_4 1_555 1_555
H6_4 C16_4 1_555 1_555
Tb5 O7_3 1_555 1_555
Tb6 O5_3 1_555 1_555
O6_3 Tb6 1_555 1_555
C7_4 C8_4 1_555 1_555
C14_4 C16_4 1_555 1_555
Tb5 O1_4 1_555 1_555
O1_4 C1_4 1_555 1_555
O9 C1_4 1_555 1_555
O12_2 Tb5 1_555 1_555
O13_2 Tb5 1_555 1_555
O1_5 C1_5 1_555 1_555
O9_2 C1_5 1_555 1_555
O10_3 C6_5 1_555 1_555
O12_2 C12_5 1_555 1_555
O13_2 C12_5 1_555 1_555
O7_4 C15_5 1_555 1_555
O15_2 C15_5 1_555 1_555
C1_5 C2_5 1_555 1_555
C2_5 C3_5 1_555 1_555
C3_5 H1_5 1_555 1_555
C4_5 C2_5 1_555 1_555
H2_5 C4_5 1_555 1_555
C5_5 C4_5 1_555 1_555
C6_5 C5_5 1_555 1_555
C7_5 C5_5 1_555 1_555
H3_5 C7_5 1_555 1_555
C8_5 C3_5 1_555 1_555
C9_5 C8_5 1_555 1_555
C10_5 C9_5 1_555 1_555
H4_5 C10_5 1_555 1_555
C11_5 C10_5 1_555 1_555
C12_5 C11_5 1_555 1_555
C13_5 C11_5 1_555 1_555
H5_5 C13_5 1_555 1_555
C14_5 C13_5 1_555 1_555
C15_5 C14_5 1_555 1_555
C16_5 C9_5 1_555 1_555
H6_5 C16_5 1_555 1_555
Tb4 O7_4 1_555 1_555
C7_5 C8_5 1_555 1_555
C14_5 C16_5 1_555 1_555
O12_3 Tb4 1_555 1_555
O13_3 Tb4 1_555 1_555
O14_2 Tb6 1_555 1_555
O1_6 C1_6 1_555 1_555
O9_3 C1_6 1_555 1_555
O10 C6_6 1_555 1_555
O11 C6_6 1_555 1_555
O14_2 C15_6 1_555 1_555
O15_3 C15_6 1_555 1_555
C2_6 C3_6 1_555 1_555
C3_6 H1_6 1_555 1_555
C4_6 C2_6 1_555 1_555
H2_6 C4_6 1_555 1_555
C5_6 C4_6 1_555 1_555
C6_6 C5_6 1_555 1_555
C7_6 C5_6 1_555 1_555
H3_6 C7_6 1_555 1_555
C8_6 C3_6 1_555 1_555
C9_6 C8_6 1_555 1_555
C10_6 C9_6 1_555 1_555
H4_6 C10_6 1_555 1_555
C11_6 C10_6 1_555 1_555
C12_6 C11_6 1_555 1_555
C13_6 C11_6 1_555 1_555
H5_6 C13_6 1_555 1_555
C14_6 C13_6 1_555 1_555
C15_6 C14_6 1_555 1_555
C16_6 C9_6 1_555 1_555
H6_6 C16_6 1_555 1_555
C7_6 C8_6 1_555 1_555
C14_6 C16_6 1_555 1_555

#END
