
###############################################################################
#
# This file contains modified crystal structure data generated from the
# MOF subset of the Cambridge Structural Database (CSD) v543 
# hosted by the Cambridge Crystallographic Data Centre (CCDC).
#
# This work is licensed under the Creative Commons
# Attribution-NonCommercial-ShareAlike 4.0 International License.
# To view a copy of this license, visit
# http://creativecommons.org/licenses/by-nc-sa/4.0/
# or send a letter to
# Creative Commons, PO Box 1866, Mountain View, CA 94042, USA.
#
# CIF created using the CSD Python API on 29 September 2022
# The structure has been converted into the P1 space group
# The structure has a 3D framework
# The original CSD entry MITZOH is in the trigonal crystal system
# The original CSD entry MITZOH is in a Sohncke space group
# The framework has been calculated to contain at least 10.0% void space
# The void calculation uses a probe of radius 1.32A, grid spacing 0.4
# The framework is charged, counterions have been retained in the structure
#
###############################################################################

data_MITZOH
_chemical_formula_moiety         '(C96 H36 Eu2 O44 6-)n'
_symmetry_cell_setting           triclinic
_symmetry_space_group_name_H-M   'P 1'
_symmetry_Int_Tables_number      1
_space_group_name_Hall           'P 1'
loop_
_symmetry_equiv_pos_site_id
_symmetry_equiv_pos_as_xyz
1 x,y,z
_cell_length_a                   13.8165(16)
_cell_length_b                   13.8165(16)
_cell_length_c                   22.984(3)
_cell_angle_alpha                90
_cell_angle_beta                 90
_cell_angle_gamma                120
_cell_volume                     3799.73
loop_
_atom_site_label
_atom_site_type_symbol
_atom_site_fract_x
_atom_site_fract_y
_atom_site_fract_z
Eu3 Eu 0.02888(4) 0.33374(3) 0.75647(2)
Eu1 Eu 0.66626(3) 0.69514(3) 0.08980(2)
O1 O 0.6037(4) 0.5210(3) 0.04823(18)
O3 O 0.4202(5) 0.1857(4) 0.17416(18)
O4 O 0.4909(5) 0.0773(5) 0.1761(2)
C1 C 0.6358(6) 0.4740(6) 0.0133(3)
C2 C 0.6257(6) 0.3629(6) 0.0328(3)
C3 C 0.5642(6) 0.3138(6) 0.0827(3)
H1 H 0.530738 0.347247 0.103234
C4 C 0.5537(7) 0.2138(6) 0.1010(3)
C5 C 0.4838(7) 0.1551(7) 0.1537(3)
C6 C 0.6041(6) 0.1667(6) 0.0704(3)
H2 H 0.597037 0.099915 0.083701
C7 C 0.6655(6) 0.2144(6) 0.0202(3)
C8 C 0.6758(6) 0.3163(6) 0.0015(3)
C10 C 0.7138(7) 0.0606(6) 0.0085(3)
H4 H 0.679922 0.031875 0.044217
Eu6 Eu 0.33374(3) 0.02888(4) 0.24353(2)
O9 O 0.5096(4) 0.6765(4) 0.0366(2)
O10 O 0.5798(5) 0.7655(6) 0.15917(18)
O11 O 0.5091(5) 0.5864(7) 0.1572(2)
O12 O 0.7317(4) 0.8793(4) 0.05338(19)
O13 O 0.8236(4) 0.7258(5) 0.03829(19)
O14 O 0.7222(5) 0.6008(7) 0.1607(2)
O15 O 0.8157(5) 0.7829(7) 0.1672(2)
O2 O 0.6765(4) 0.5096(4) 0.9634(2)
O7 O 0.8786(5) 0.2778(5) 0.8274(2)
O8 O 0.9672(5) 0.1843(5) 0.8339(2)
H3 H 0.716265 0.351367 0.968122
C9 C 0.7201(6) 0.1593(6) 0.9878(3)
C11 C 0.7562(6) 0.0055(6) 0.9776(3)
C12 C 0.8154(6) 0.0514(6) 0.9262(3)
H5 H 0.846752 0.015582 0.905854
C13 C 0.8270(6) 0.1520(6) 0.9060(3)
C14 C 0.7803(6) 0.2060(7) 0.9372(3)
H6 H 0.789781 0.273769 0.923787
C15 C 0.8958(7) 0.2070(7) 0.8523(3)
Eu5 Eu 0.69514(3) 0.66626(3) 0.91020(2)
C16 C 0.7365(6) 0.8947(6) 0.0003(3)
O6 O 0.7258(5) 0.8236(4) 0.96171(19)
O5 O 0.1207(4) 0.8524(6) 0.38671(19)
O6_2 O 0.1764(4) 0.9022(6) 0.29504(19)
C16_2 C 0.1053(6) 0.8418(8) 0.3336(3)
Eu2 Eu 0.30486(3) 0.97112(4) 0.42313(2)
O1_2 O 0.4790(3) 0.0827(5) 0.38156(18)
O2_2 O 0.4904(4) 0.1669(6) 0.2967(2)
O3_2 O 0.8143(4) 0.2345(6) 0.50749(18)
O4_2 O 0.9227(5) 0.4136(7) 0.5094(2)
C1_2 C 0.5260(6) 0.1618(8) 0.3466(3)
C2_2 C 0.6371(6) 0.2628(8) 0.3661(3)
C3_2 C 0.6862(6) 0.2504(8) 0.4160(3)
H1_2 H 0.652753 0.183491 0.436567
C4_2 C 0.7862(6) 0.3399(9) 0.4343(3)
C5_2 C 0.8449(7) 0.3287(10) 0.4870(3)
C6_2 C 0.8333(6) 0.4374(8) 0.4037(3)
H2_2 H 0.900085 0.497122 0.417034
C7_2 C 0.7856(6) 0.4511(8) 0.3535(3)
C8_2 C 0.6837(6) 0.3595(8) 0.3348(3)
H3_2 H 0.648633 0.364898 0.301455
C9_2 C 0.8407(6) 0.5608(8) 0.3211(3)
C10_2 C 0.9394(6) 0.6532(9) 0.3418(3)
H4_2 H 0.968125 0.648047 0.377550
C11_2 C 0.9945(6) 0.7507(8) 0.3109(3)
C12_2 C 0.9486(6) 0.7640(8) 0.2595(3)
H5_2 H 0.984418 0.831170 0.239187
C13_2 C 0.8480(6) 0.6750(8) 0.2393(3)
C14_2 C 0.7940(7) 0.5743(9) 0.2705(3)
H6_2 H 0.726231 0.516012 0.257120
C15_2 C 0.7930(7) 0.6888(10) 0.1856(3)
Eu6_2 Eu 0.97112(4) 0.30486(5) 0.57687(2)
O13_2 O 0.2742(5) 0.0978(6) 0.37162(19)
O14_2 O 0.3992(7) 0.1214(9) 0.4941(2)
O15_2 O 0.2171(7) 0.0328(9) 0.5006(2)
O9_2 O 0.3235(4) 0.8331(6) 0.3699(2)
O10_2 O 0.2345(6) 0.8143(8) 0.49251(18)
O11_2 O 0.4136(7) 0.9227(9) 0.4906(2)
O9_3 O 0.1669(6) 0.4904(4) 0.7033(2)
O10_3 O 0.1857(8) 0.4202(5) 0.82584(18)
O11_3 O 0.0773(9) 0.4909(5) 0.8239(2)
O12_2 O 0.1476(6) 0.2683(4) 0.72005(19)
O1_3 O 0.9173(5) 0.3963(4) 0.71490(18)
O2_3 O 0.8331(6) 0.3235(4) 0.6301(2)
O3_3 O 0.7655(6) 0.5798(5) 0.84083(18)
O4_3 O 0.5864(7) 0.5091(5) 0.8428(2)
O6_3 O 0.0978(6) 0.2742(5) 0.62838(19)
C1_3 C 0.8382(8) 0.3642(6) 0.6800(3)
C2_3 C 0.7372(8) 0.3743(6) 0.6995(3)
C3_3 C 0.7496(8) 0.4358(6) 0.7494(3)
H1_3 H 0.816509 0.469262 0.769901
C4_3 C 0.6601(9) 0.4463(7) 0.7677(3)
C5_3 C 0.6713(10) 0.5162(7) 0.8204(3)
C6_3 C 0.5626(8) 0.3959(6) 0.7371(3)
H2_3 H 0.502878 0.402963 0.750368
C7_3 C 0.5489(8) 0.3345(6) 0.6869(3)
C8_3 C 0.6405(8) 0.3242(6) 0.6682(3)
H3_3 H 0.635102 0.283735 0.634789
C9_3 C 0.4392(8) 0.2799(6) 0.6545(3)
C10_3 C 0.3468(9) 0.2862(7) 0.6752(3)
H4_3 H 0.351953 0.320078 0.710884
C11_3 C 0.2493(8) 0.2438(6) 0.6443(3)
C12_3 C 0.2360(8) 0.1846(6) 0.5929(3)
H5_3 H 0.168830 0.153248 0.572521
C13_3 C 0.3250(8) 0.1730(6) 0.5727(3)
C14_3 C 0.4257(9) 0.2197(6) 0.6039(3)
H6_3 H 0.483988 0.210219 0.590454
C15_3 C 0.3112(10) 0.1042(7) 0.5190(3)
C16_3 C 0.1582(8) 0.2635(6) 0.6670(3)
O13_3 O 0.9022(6) 0.1764(4) 0.70496(19)
O7_2 O 0.2778(5) 0.8786(5) 0.1726(2)
O8_2 O 0.1843(5) 0.9672(5) 0.1661(2)
H3_4 H 0.351367 0.716265 0.031878
C9_4 C 0.1593(6) 0.7201(6) 0.0122(3)
C11_4 C 0.0055(6) 0.7562(6) 0.0224(3)
C12_4 C 0.0514(6) 0.8154(6) 0.0738(3)
H5_4 H 0.015582 0.846752 0.094146
C13_4 C 0.1520(6) 0.8270(6) 0.0940(3)
C14_4 C 0.2060(7) 0.7803(6) 0.0628(3)
H6_4 H 0.273769 0.789781 0.076213
C15_4 C 0.2070(7) 0.8958(7) 0.1477(3)
O1_4 O 0.5210(3) 0.6037(4) 0.95177(18)
C1_4 C 0.4740(6) 0.6358(6) 0.9867(3)
C2_4 C 0.3629(6) 0.6257(6) 0.9672(3)
C3_4 C 0.3138(6) 0.5642(6) 0.9173(3)
H1_4 H 0.347247 0.530738 0.896766
C4_4 C 0.2138(6) 0.5537(7) 0.8990(3)
C5_4 C 0.1551(7) 0.4838(7) 0.8463(3)
C6_4 C 0.1667(6) 0.6041(6) 0.9296(3)
H2_4 H 0.099915 0.597037 0.916299
C7_4 C 0.2144(6) 0.6655(6) 0.9798(3)
C8_4 C 0.3163(6) 0.6758(6) 0.9985(3)
C10_4 C 0.0606(6) 0.7138(7) 0.9915(3)
H4_4 H 0.031875 0.679922 0.955783
O12_3 O 0.8793(4) 0.7317(4) 0.94662(19)
O14_3 O 0.6008(7) 0.7222(5) 0.8393(2)
O15_3 O 0.7829(7) 0.8157(5) 0.8328(2)
C16_4 C 0.8947(6) 0.7365(6) 0.9997(3)
O12_4 O 0.2683(4) 0.1476(6) 0.27995(19)
O1_5 O 0.3963(4) 0.9173(5) 0.28510(18)
O7_3 O 0.1214(5) 0.3992(7) 0.5059(2)
O8_3 O 0.0328(5) 0.2171(7) 0.4994(2)
C1_5 C 0.3642(6) 0.8382(8) 0.3200(3)
C2_5 C 0.3743(6) 0.7372(8) 0.3005(3)
C3_5 C 0.4358(6) 0.7496(8) 0.2506(3)
H1_5 H 0.469262 0.816509 0.230099
C4_5 C 0.4463(7) 0.6601(9) 0.2323(3)
C5_5 C 0.5162(7) 0.6713(10) 0.1796(3)
C6_5 C 0.3959(6) 0.5626(8) 0.2629(3)
H2_5 H 0.402963 0.502878 0.249632
C7_5 C 0.3345(6) 0.5489(8) 0.3131(3)
C8_5 C 0.3242(6) 0.6405(8) 0.3318(3)
H3_5 H 0.283735 0.635102 0.365211
C9_5 C 0.2799(6) 0.4392(8) 0.3455(3)
C10_5 C 0.2862(7) 0.3468(9) 0.3248(3)
H4_5 H 0.320078 0.351953 0.289116
C11_5 C 0.2438(6) 0.2493(8) 0.3557(3)
C12_5 C 0.1846(6) 0.2360(8) 0.4071(3)
H5_5 H 0.153248 0.168830 0.427479
C13_5 C 0.1730(6) 0.3250(8) 0.4273(3)
C14_5 C 0.2197(6) 0.4257(9) 0.3961(3)
H6_5 H 0.210219 0.483988 0.409546
C15_5 C 0.1042(7) 0.3112(10) 0.4810(3)
C16_5 C 0.2635(6) 0.1582(8) 0.3330(3)
O5_2 O 0.8524(6) 0.1207(4) 0.61329(19)
C16_6 C 0.8418(8) 0.1053(6) 0.6664(3)
O1_6 O 0.0827(5) 0.4790(3) 0.61844(18)
C1_6 C 0.1618(8) 0.5260(6) 0.6534(3)
C2_6 C 0.2628(8) 0.6371(6) 0.6339(3)
C3_6 C 0.2504(8) 0.6862(6) 0.5840(3)
H1_6 H 0.183491 0.652753 0.563433
C4_6 C 0.3399(9) 0.7862(6) 0.5657(3)
C5_6 C 0.3287(10) 0.8449(7) 0.5130(3)
C6_6 C 0.4374(8) 0.8333(6) 0.5963(3)
H2_6 H 0.497122 0.900085 0.582966
C7_6 C 0.4511(8) 0.7856(6) 0.6465(3)
C8_6 C 0.3595(8) 0.6837(6) 0.6652(3)
H3_6 H 0.364898 0.648633 0.698545
C9_6 C 0.5608(8) 0.8407(6) 0.6789(3)
C10_6 C 0.6532(9) 0.9394(6) 0.6582(3)
H4_6 H 0.648047 0.968125 0.622450
C11_6 C 0.7507(8) 0.9945(6) 0.6891(3)
C12_6 C 0.7640(8) 0.9486(6) 0.7405(3)
H5_6 H 0.831170 0.984418 0.760813
C13_6 C 0.6750(8) 0.8480(6) 0.7607(3)
C14_6 C 0.5743(9) 0.7940(7) 0.7295(3)
H6_6 H 0.516012 0.726231 0.742880
C15_6 C 0.6888(10) 0.7930(7) 0.8144(3)
loop_
_geom_bond_atom_site_label_1
_geom_bond_atom_site_label_2
_geom_bond_site_symmetry_1
_geom_bond_site_symmetry_2
Eu1 O1 1_555 1_555
O1 C1 1_555 1_555
O3 C5 1_555 1_555
O4 C5 1_555 1_555
C1 C2 1_555 1_555
C2 C3 1_555 1_555
C3 H1 1_555 1_555
C4 C3 1_555 1_555
C5 C4 1_555 1_555
C6 C4 1_555 1_555
H2 C6 1_555 1_555
C7 C6 1_555 1_555
C8 C2 1_555 1_555
H4 C10 1_555 1_555
Eu6 O3 1_555 1_555
O9 Eu1 1_555 1_555
O10 Eu1 1_555 1_555
O11 Eu1 1_555 1_555
O12 Eu1 1_555 1_555
O13 Eu1 1_555 1_555
O14 Eu1 1_555 1_555
O15 Eu1 1_555 1_555
O4 Eu6 1_555 1_555
C7 C8 1_555 1_555
O7 C15 1_555 1_555
O8 C15 1_555 1_555
C12 C11 1_555 1_555
H5 C12 1_555 1_555
C13 C12 1_555 1_555
C14 C9 1_555 1_555
H6 C14 1_555 1_555
C15 C13 1_555 1_555
Eu5 O2 1_555 1_555
C13 C14 1_555 1_555
O12 C16 1_555 1_555
Eu5 O6 1_555 1_555
O5 C16_2 1_555 1_555
O6_2 C16_2 1_555 1_555
Eu2 O5 1_555 1_555
O1_2 C1_2 1_555 1_555
O2_2 C1_2 1_555 1_555
O3_2 C5_2 1_555 1_555
O4_2 C5_2 1_555 1_555
O14 C15_2 1_555 1_555
O15 C15_2 1_555 1_555
C1_2 C2_2 1_555 1_555
C2_2 C3_2 1_555 1_555
C3_2 H1_2 1_555 1_555
C4_2 C3_2 1_555 1_555
C5_2 C4_2 1_555 1_555
C6_2 C4_2 1_555 1_555
H2_2 C6_2 1_555 1_555
C7_2 C6_2 1_555 1_555
C8_2 C2_2 1_555 1_555
H3_2 C8_2 1_555 1_555
C9_2 C7_2 1_555 1_555
C10_2 C9_2 1_555 1_555
H4_2 C10_2 1_555 1_555
C11_2 C10_2 1_555 1_555
C12_2 C11_2 1_555 1_555
H5_2 C12_2 1_555 1_555
C13_2 C12_2 1_555 1_555
C14_2 C9_2 1_555 1_555
H6_2 C14_2 1_555 1_555
C15_2 C13_2 1_555 1_555
Eu6 O2_2 1_555 1_555
Eu6_2 O3_2 1_555 1_555
O4_2 Eu6_2 1_555 1_555
C7_2 C8_2 1_555 1_555
C13_2 C14_2 1_555 1_555
O9_2 Eu2 1_555 1_555
O10_2 Eu2 1_555 1_555
O11_2 Eu2 1_555 1_555
O9_3 Eu3 1_555 1_555
O10_3 Eu3 1_555 1_555
O11_3 Eu3 1_555 1_555
O12_2 Eu3 1_555 1_555
O1_3 C1_3 1_555 1_555
O2_3 C1_3 1_555 1_555
O3_3 C5_3 1_555 1_555
O4_3 C5_3 1_555 1_555
O12_2 C16_3 1_555 1_555
O6_3 C16_3 1_555 1_555
O14_2 C15_3 1_555 1_555
O15_2 C15_3 1_555 1_555
C1_3 C2_3 1_555 1_555
C2_3 C3_3 1_555 1_555
C3_3 H1_3 1_555 1_555
C4_3 C3_3 1_555 1_555
C5_3 C4_3 1_555 1_555
C6_3 C4_3 1_555 1_555
H2_3 C6_3 1_555 1_555
C7_3 C6_3 1_555 1_555
C8_3 C2_3 1_555 1_555
H3_3 C8_3 1_555 1_555
C9_3 C7_3 1_555 1_555
C10_3 C9_3 1_555 1_555
H4_3 C10_3 1_555 1_555
C11_3 C10_3 1_555 1_555
C12_3 C11_3 1_555 1_555
H5_3 C12_3 1_555 1_555
C13_3 C12_3 1_555 1_555
C14_3 C9_3 1_555 1_555
H6_3 C14_3 1_555 1_555
C15_3 C13_3 1_555 1_555
C16_3 C11_3 1_555 1_555
Eu6_2 O2_3 1_555 1_555
Eu5 O3_3 1_555 1_555
O4_3 Eu5 1_555 1_555
C7_3 C8_3 1_555 1_555
C13_3 C14_3 1_555 1_555
O7_2 C15_4 1_555 1_555
O8_2 C15_4 1_555 1_555
C12_4 C11_4 1_555 1_555
H5_4 C12_4 1_555 1_555
C13_4 C12_4 1_555 1_555
C14_4 C9_4 1_555 1_555
H6_4 C14_4 1_555 1_555
C15_4 C13_4 1_555 1_555
C13_4 C14_4 1_555 1_555
Eu5 O1_4 1_555 1_555
O1_4 C1_4 1_555 1_555
O10_3 C5_4 1_555 1_555
O11_3 C5_4 1_555 1_555
C1_4 C2_4 1_555 1_555
C2_4 C3_4 1_555 1_555
C3_4 H1_4 1_555 1_555
C4_4 C3_4 1_555 1_555
C5_4 C4_4 1_555 1_555
C6_4 C4_4 1_555 1_555
H2_4 C6_4 1_555 1_555
C7_4 C6_4 1_555 1_555
C8_4 C2_4 1_555 1_555
H4_4 C10_4 1_555 1_555
O12_3 Eu5 1_555 1_555
O14_3 Eu5 1_555 1_555
O15_3 Eu5 1_555 1_555
C7_4 C8_4 1_555 1_555
O12_3 C16_4 1_555 1_555
O12_4 Eu6 1_555 1_555
O1_5 C1_5 1_555 1_555
O9_2 C1_5 1_555 1_555
O10 C5_5 1_555 1_555
O11 C5_5 1_555 1_555
O12_4 C16_5 1_555 1_555
O13_2 C16_5 1_555 1_555
O7_3 C15_5 1_555 1_555
O8_3 C15_5 1_555 1_555
C1_5 C2_5 1_555 1_555
C2_5 C3_5 1_555 1_555
C3_5 H1_5 1_555 1_555
C4_5 C3_5 1_555 1_555
C5_5 C4_5 1_555 1_555
C6_5 C4_5 1_555 1_555
H2_5 C6_5 1_555 1_555
C7_5 C6_5 1_555 1_555
C8_5 C2_5 1_555 1_555
H3_5 C8_5 1_555 1_555
C9_5 C7_5 1_555 1_555
C10_5 C9_5 1_555 1_555
H4_5 C10_5 1_555 1_555
C11_5 C10_5 1_555 1_555
C12_5 C11_5 1_555 1_555
H5_5 C12_5 1_555 1_555
C13_5 C12_5 1_555 1_555
C14_5 C9_5 1_555 1_555
H6_5 C14_5 1_555 1_555
C15_5 C13_5 1_555 1_555
C16_5 C11_5 1_555 1_555
C7_5 C8_5 1_555 1_555
C13_5 C14_5 1_555 1_555
O5_2 C16_6 1_555 1_555
O13_3 C16_6 1_555 1_555
Eu6_2 O5_2 1_555 1_555
O1_6 C1_6 1_555 1_555
O9_3 C1_6 1_555 1_555
O10_2 C5_6 1_555 1_555
O11_2 C5_6 1_555 1_555
O14_3 C15_6 1_555 1_555
O15_3 C15_6 1_555 1_555
C1_6 C2_6 1_555 1_555
C2_6 C3_6 1_555 1_555
C3_6 H1_6 1_555 1_555
C4_6 C3_6 1_555 1_555
C5_6 C4_6 1_555 1_555
C6_6 C4_6 1_555 1_555
H2_6 C6_6 1_555 1_555
C7_6 C6_6 1_555 1_555
C8_6 C2_6 1_555 1_555
H3_6 C8_6 1_555 1_555
C9_6 C7_6 1_555 1_555
C10_6 C9_6 1_555 1_555
H4_6 C10_6 1_555 1_555
C11_6 C10_6 1_555 1_555
C12_6 C11_6 1_555 1_555
H5_6 C12_6 1_555 1_555
C13_6 C12_6 1_555 1_555
C14_6 C9_6 1_555 1_555
H6_6 C14_6 1_555 1_555
C15_6 C13_6 1_555 1_555
C7_6 C8_6 1_555 1_555
C13_6 C14_6 1_555 1_555

#END
