
###############################################################################
#
# This file contains modified crystal structure data generated from the
# MOF subset of the Cambridge Structural Database (CSD) v543 
# hosted by the Cambridge Crystallographic Data Centre (CCDC).
#
# This work is licensed under the Creative Commons
# Attribution-NonCommercial-ShareAlike 4.0 International License.
# To view a copy of this license, visit
# http://creativecommons.org/licenses/by-nc-sa/4.0/
# or send a letter to
# Creative Commons, PO Box 1866, Mountain View, CA 94042, USA.
#
# CIF created using the CSD Python API on 29 September 2022
# The structure has been converted into the P1 space group
# The structure has a 3D framework
# The original CSD entry MIVKOU is in the orthorhombic crystal system
# The framework has been calculated to contain at least 10.0% void space
# The void calculation uses a probe of radius 1.32A, grid spacing 0.4
#
###############################################################################

data_MIVKOU
_chemical_formula_moiety         '(C408 H304 Co16 N32 O64)n'
_symmetry_cell_setting           triclinic
_symmetry_space_group_name_H-M   'P 1'
_symmetry_Int_Tables_number      1
_space_group_name_Hall           'P 1'
loop_
_symmetry_equiv_pos_site_id
_symmetry_equiv_pos_as_xyz
1 x,y,z
_cell_length_a                   13.8627(2)
_cell_length_b                   27.2087(3)
_cell_length_c                   30.5649(5)
_cell_angle_alpha                90
_cell_angle_beta                 90
_cell_angle_gamma                90
_cell_volume                     11528.7
loop_
_atom_site_label
_atom_site_type_symbol
_atom_site_fract_x
_atom_site_fract_y
_atom_site_fract_z
N3 N 0.0382(3) 0.06205(12) 0.57558(10)
C39 C 0.0016(3) 0.08258(15) 0.61202(13)
H29 H 0.0358 0.0790 0.6388
H32 H 0.0152 0.0545 0.5118
Co7 Co 0.16363(4) 0.02192(2) 0.57810(2)
N2 N 0.7307(3) 0.65295(14) 0.46987(16)
H1 H 0.7021 0.6308 0.4863
C2 C 0.9160(4) 0.60877(17) 0.38806(16)
H3 H 0.8926 0.6228 0.3617
C3 C 0.8635(3) 0.61461(15) 0.42719(15)
C4 C 0.9036(3) 0.59441(15) 0.46472(15)
H4 H 0.8721 0.5984 0.4921
C5 C 0.9895(3) 0.56843(14) 0.46220(13)
C6 C 0.7672(4) 0.63896(17) 0.42714(18)
H6 H 0.7712 0.6688 0.4087
H7 H 0.7201 0.6165 0.4133
C7 C 0.7402(3) 0.70139(16) 0.4853(2)
C8 C 0.8143(3) 0.73193(17) 0.4698(2)
H8 H 0.8583 0.7191 0.4489
C9 C 0.8257(3) 0.78020(17) 0.4838(2)
C10 C 0.9073(4) 0.8112(2) 0.4673(2)
H9 H 0.8820 0.8425 0.4565
H10 H 0.9403 0.7939 0.4435
H11 H 0.9529 0.8173 0.4912
N3_2 N 0.4618(3) 0.93795(12) 0.57558(10)
N4 N 0.7693(3) 0.84705(14) 0.53013(16)
H28 H 0.7979 0.8692 0.5137
C39_2 C 0.4984(3) 0.91742(15) 0.61202(13)
H29_2 H 0.4642 0.9210 0.6388
C40 C 0.5840(4) 0.89123(17) 0.61194(16)
H30 H 0.6074 0.8772 0.6383
C41 C 0.6365(3) 0.88539(15) 0.57281(15)
C42 C 0.5964(3) 0.90559(15) 0.53528(15)
H31 H 0.6279 0.9016 0.5079
C43 C 0.5105(3) 0.93157(14) 0.53780(13)
H32_2 H 0.4848 0.9455 0.5118
C44 C 0.7328(4) 0.86104(17) 0.57286(18)
H33 H 0.7288 0.8312 0.5913
H34 H 0.7799 0.8835 0.5867
C45 C 0.7598(3) 0.79861(16) 0.5147(2)
C46 C 0.6857(3) 0.76807(17) 0.5302(2)
H35 H 0.6417 0.7809 0.5511
C47 C 0.6743(3) 0.71980(17) 0.5162(2)
C48 C 0.5927(4) 0.6888(2) 0.5327(2)
H36 H 0.6180 0.6575 0.5435
H37 H 0.5597 0.7061 0.5565
H38 H 0.5471 0.6827 0.5088
Co7_2 Co 0.33637(4) 0.97808(2) 0.57810(2)
C26 C 0.0283(5) 0.3161(3) 0.0821(3)
H18 H 0.0956 0.3133 0.0768
H19 H 0.0225 0.3895 0.0703
O7 O 0.2485(3) 0.08174(10) 0.08466(10)
O8 O 0.1043(2) 0.04638(10) 0.07498(10)
C32 C 0.1580(3) 0.08254(15) 0.08177(12)
C33 C 0.1106(3) 0.13218(13) 0.08708(15)
C34 C 0.0232(3) 0.22536(13) 0.09292(18)
C35 C 0.1682(5) 0.1747(3) 0.0990(3)
H24 H 0.2357 0.1713 0.1037
C36 C 0.1243(5) 0.2201(3) 0.1034(3)
H25 H 0.1604 0.2476 0.1133
C38 C 0.0152(5) 0.1381(3) 0.0787(3)
Co4 Co 0.33637(4) 0.02192(2) 0.07810(2)
Co3 Co 0.16363(4) 0.97808(2) 0.07810(2)
Co1 Co 0.66363(4) 0.47808(2) 0.07810(2)
O1 O 0.6822(2) 0.47707(10) 0.01256(10)
O3 O 0.7515(3) 0.41826(10) 0.08466(10)
O4 O 0.8957(2) 0.45362(10) 0.07498(10)
N1 N 0.5382(3) 0.43795(12) 0.07558(10)
N2_2 N 0.2307(3) 0.34705(14) 0.03013(16)
H1_2 H 0.2021 0.3692 0.0137
C1 C 0.5016(3) 0.41742(15) 0.11202(13)
H2 H 0.5358 0.4210 0.1388
C2_2 C 0.4160(4) 0.39123(17) 0.11194(16)
H3_2 H 0.3926 0.3772 0.1383
C3_2 C 0.3635(3) 0.38539(15) 0.07281(15)
C4_2 C 0.4036(3) 0.40559(15) 0.03528(15)
H4_2 H 0.3721 0.4016 0.0079
C5_2 C 0.4895(3) 0.43157(14) 0.03780(13)
H5 H 0.5152 0.4455 0.0118
C6_2 C 0.2672(4) 0.36104(17) 0.07286(18)
H6_2 H 0.2712 0.3312 0.0913
H7_2 H 0.2201 0.3835 0.0867
C7_2 C 0.2402(3) 0.29861(16) 0.0147(2)
C8_2 C 0.3143(3) 0.26807(17) 0.0302(2)
H8_2 H 0.3583 0.2809 0.0511
C9_2 C 0.3257(3) 0.21980(17) 0.0162(2)
C10_2 C 0.4073(4) 0.1888(2) 0.0327(2)
H9_2 H 0.3820 0.1575 0.0435
H10_2 H 0.4403 0.2061 0.0565
H11_2 H 0.4529 0.1827 0.0088
C21 C 0.8420(3) 0.41746(15) 0.08177(12)
C22 C 0.8894(3) 0.36782(13) 0.08708(15)
C23 C 0.9768(3) 0.27464(13) 0.09292(18)
C24 C 0.8318(5) 0.3253(3) 0.0990(3)
H16 H 0.7643 0.3287 0.1037
C25 C 0.8757(5) 0.2799(3) 0.1034(3)
H17 H 0.8396 0.2524 0.1133
C27 C 0.9848(5) 0.3619(3) 0.0787(3)
O5 O 0.8178(2) 0.52293(10) 0.01256(10)
C37 C 0.9717(5) 0.1839(3) 0.0821(3)
H26 H 0.9044 0.1867 0.0768
H27 H 0.9775 0.1105 0.0703
Co2 Co 0.83637(4) 0.52192(2) 0.07810(2)
O9 O 0.6733(2) 0.48715(12) 0.14403(10)
O10 O 0.8267(2) 0.51285(12) 0.14403(10)
O11 O 0.7485(3) 0.58174(10) 0.08466(10)
O12 O 0.6043(2) 0.54638(10) 0.07498(10)
N5 N 0.9618(3) 0.56205(12) 0.07558(10)
O2 O 0.6733(2) 0.51285(12) 0.64403(10)
C11 C 0.7500 0.5000 0.99343(15)
C12 C 0.7500 0.5000 0.94464(16)
C13 C 0.6700(3) 0.48293(15) 0.92129(12)
H12 H 0.6154 0.4710 0.9367
C14 C 0.6693(3) 0.48319(15) 0.87559(14)
H13 H 0.6140 0.4719 0.8602
C15 C 0.7500 0.5000 0.85242(17)
C16 C 0.7500 0.5000 0.80348(17)
C17 C 0.6653(4) 0.5086(2) 0.78048(15)
H14 H 0.6069 0.5142 0.7960
C18 C 0.6652(3) 0.5092(2) 0.73492(15)
H15 H 0.6072 0.5159 0.7195
C19 C 0.7500 0.5000 0.71196(17)
C20 C 0.7500 0.5000 0.66236(17)
O6 O 0.8267(2) 0.48715(12) 0.64403(10)
C28 C 0.8300(3) 0.51707(15) 0.92129(12)
H20 H 0.8846 0.5290 0.9367
C29 C 0.8307(3) 0.51681(15) 0.87559(14)
H21 H 0.8860 0.5281 0.8602
C30 C 0.8347(4) 0.4914(2) 0.78048(15)
H22 H 0.8931 0.4858 0.7960
C31 C 0.8348(3) 0.4908(2) 0.73492(15)
H23 H 0.8928 0.4841 0.7195
N4_2 N 0.2693(3) 0.15295(14) 0.96987(16)
H28_2 H 0.2979 0.1308 0.9863
C40_2 C 0.0840(4) 0.10877(17) 0.88806(16)
H30_2 H 0.1074 0.1228 0.8617
C41_2 C 0.1365(3) 0.11461(15) 0.92719(15)
C42_2 C 0.0964(3) 0.09441(15) 0.96472(15)
H31_2 H 0.1279 0.0984 0.9921
C43_2 C 0.0105(3) 0.06843(14) 0.96220(13)
C44_2 C 0.2328(4) 0.13896(17) 0.92714(18)
H33_2 H 0.2288 0.1688 0.9087
H34_2 H 0.2799 0.1165 0.9133
C45_2 C 0.2598(3) 0.20139(16) 0.9853(2)
C46_2 C 0.1857(3) 0.23193(17) 0.9698(2)
H35_2 H 0.1417 0.2191 0.9489
C47_2 C 0.1743(3) 0.28020(17) 0.9838(2)
C48_2 C 0.0927(4) 0.3112(2) 0.9673(2)
H36_2 H 0.1180 0.3425 0.9565
H37_2 H 0.0597 0.2939 0.9435
H38_2 H 0.0471 0.3173 0.9912
Co5 Co 0.66363(4) 0.52192(2) 0.57810(2)
Co6 Co 0.83637(4) 0.47808(2) 0.57810(2)
C1_2 C 0.9984(3) 0.58258(15) 0.11202(13)
H2_2 H 0.9642 0.5790 0.1388
H5_2 H 0.9848 0.5545 0.0118
C21_2 C 0.6580(3) 0.58254(15) 0.08177(12)
C22_2 C 0.6106(3) 0.63218(13) 0.08708(15)
C23_2 C 0.5232(3) 0.72536(13) 0.09292(18)
C24_2 C 0.6682(5) 0.6747(3) 0.0990(3)
H16_2 H 0.7357 0.6713 0.1037
C25_2 C 0.6243(5) 0.7201(3) 0.1034(3)
H17_2 H 0.6604 0.7476 0.1133
C26_2 C 0.4717(5) 0.6839(3) 0.0821(3)
H18_2 H 0.4044 0.6867 0.0768
C27_2 C 0.5152(5) 0.6381(3) 0.0787(3)
H19_2 H 0.4775 0.6105 0.0703
O7_2 O 0.2515(3) 0.91826(10) 0.08466(10)
O8_2 O 0.3957(2) 0.95362(10) 0.07498(10)
C32_2 C 0.3420(3) 0.91746(15) 0.08177(12)
C33_2 C 0.3894(3) 0.86782(13) 0.08708(15)
C34_2 C 0.4768(3) 0.77464(13) 0.09292(18)
C35_2 C 0.3318(5) 0.8253(3) 0.0990(3)
H24_2 H 0.2643 0.8287 0.1037
C36_2 C 0.3757(5) 0.7799(3) 0.1034(3)
H25_2 H 0.3396 0.7524 0.1133
C37_2 C 0.5283(5) 0.8161(3) 0.0821(3)
H26_2 H 0.5956 0.8133 0.0768
C38_2 C 0.4848(5) 0.8619(3) 0.0787(3)
H27_2 H 0.5225 0.8895 0.0703
N2_3 N 0.2693(3) 0.84705(14) 0.46987(16)
H1_3 H 0.2979 0.8692 0.4863
C2_3 C 0.0840(4) 0.89123(17) 0.38806(16)
H3_3 H 0.1074 0.8772 0.3617
C3_3 C 0.1365(3) 0.88539(15) 0.42719(15)
C4_3 C 0.0964(3) 0.90559(15) 0.46472(15)
H4_3 H 0.1279 0.9016 0.4921
C5_3 C 0.0105(3) 0.93157(14) 0.46220(13)
C6_3 C 0.2328(4) 0.86104(17) 0.42714(18)
H6_3 H 0.2288 0.8312 0.4087
H7_3 H 0.2799 0.8835 0.4133
C7_3 C 0.2598(3) 0.79861(16) 0.4853(2)
C8_3 C 0.1857(3) 0.76807(17) 0.4698(2)
H8_3 H 0.1417 0.7809 0.4489
C9_3 C 0.1743(3) 0.71980(17) 0.4838(2)
C10_3 C 0.0927(4) 0.6888(2) 0.4673(2)
H9_3 H 0.1180 0.6575 0.4565
H10_3 H 0.0597 0.7061 0.4435
H11_3 H 0.0471 0.6827 0.4912
N3_3 N 0.5382(3) 0.56205(12) 0.57558(10)
N4_3 N 0.2307(3) 0.65295(14) 0.53013(16)
H28_3 H 0.2021 0.6308 0.5137
C39_3 C 0.5016(3) 0.58258(15) 0.61202(13)
H29_3 H 0.5358 0.5790 0.6388
C40_3 C 0.4160(4) 0.60877(17) 0.61194(16)
H30_3 H 0.3926 0.6228 0.6383
C41_3 C 0.3635(3) 0.61461(15) 0.57281(15)
C42_3 C 0.4036(3) 0.59441(15) 0.53528(15)
H31_3 H 0.3721 0.5984 0.5079
C43_3 C 0.4895(3) 0.56843(14) 0.53780(13)
H32_3 H 0.5152 0.5545 0.5118
C44_3 C 0.2672(4) 0.63896(17) 0.57286(18)
H33_3 H 0.2712 0.6688 0.5913
H34_3 H 0.2201 0.6165 0.5867
C45_3 C 0.2402(3) 0.70139(16) 0.5147(2)
C46_3 C 0.3143(3) 0.73193(17) 0.5302(2)
H35_3 H 0.3583 0.7191 0.5511
C47_3 C 0.3257(3) 0.78020(17) 0.5162(2)
C48_3 C 0.4073(4) 0.8112(2) 0.5327(2)
H36_3 H 0.3820 0.8425 0.5435
H37_3 H 0.4403 0.7939 0.5565
H38_3 H 0.4529 0.8173 0.5088
N3_4 N 0.9618(3) 0.43795(12) 0.57558(10)
C39_4 C 0.9984(3) 0.41742(15) 0.61202(13)
H29_4 H 0.9642 0.4210 0.6388
H32_4 H 0.9848 0.4455 0.5118
O5_2 O 0.3178(2) 0.02293(10) 0.01256(10)
O10_2 O 0.3267(2) 0.01285(12) 0.14403(10)
N5_2 N 0.4618(3) 0.06205(12) 0.07558(10)
O2_2 O 0.1733(2) 0.01285(12) 0.64403(10)
C11_2 C 0.2500 -0.0000 0.99343(15)
C12_2 C 0.2500 -0.0000 0.94464(16)
C15_2 C 0.2500 -0.0000 0.85242(17)
C16_2 C 0.2500 -0.0000 0.80348(17)
C17_2 C 0.1653(4) 0.0086(2) 0.78048(15)
H14_2 H 0.1069 0.0142 0.7960
C18_2 C 0.1652(3) 0.0092(2) 0.73492(15)
H15_2 H 0.1072 0.0159 0.7195
C19_2 C 0.2500 -0.0000 0.71196(17)
C20_2 C 0.2500 -0.0000 0.66236(17)
C28_2 C 0.3300(3) 0.01707(15) 0.92129(12)
H20_2 H 0.3846 0.0290 0.9367
C29_2 C 0.3307(3) 0.01681(15) 0.87559(14)
H21_2 H 0.3860 0.0281 0.8602
O1_2 O 0.1822(2) 0.97707(10) 0.01256(10)
N1_2 N 0.0382(3) 0.93795(12) 0.07558(10)
C1_3 C 0.0016(3) 0.91742(15) 0.11202(13)
H2_3 H 0.0358 0.9210 0.1388
H5_3 H 0.0152 0.9455 0.0118
O9_2 O 0.1733(2) 0.98715(12) 0.14403(10)
C11_3 C 0.2500 1.0000 0.99343(15)
C12_3 C 0.2500 1.0000 0.94464(16)
C13_2 C 0.1700(3) 0.98293(15) 0.92129(12)
H12_2 H 0.1154 0.9710 0.9367
C14_2 C 0.1693(3) 0.98319(15) 0.87559(14)
H13_2 H 0.1140 0.9719 0.8602
C15_3 C 0.2500 1.0000 0.85242(17)
C16_3 C 0.2500 1.0000 0.80348(17)
C19_3 C 0.2500 1.0000 0.71196(17)
C20_3 C 0.2500 1.0000 0.66236(17)
O6_2 O 0.3267(2) 0.98715(12) 0.64403(10)
C30_2 C 0.3347(4) 0.9914(2) 0.78048(15)
H22_2 H 0.3931 0.9858 0.7960
C31_2 C 0.3348(3) 0.9908(2) 0.73492(15)
H23_2 H 0.3928 0.9841 0.7195
N2_4 N 0.7693(3) 0.15295(14) 0.03013(16)
H1_4 H 0.7979 0.1308 0.0137
C1_4 C 0.4984(3) 0.08258(15) 0.11202(13)
H2_4 H 0.4642 0.0790 0.1388
C2_4 C 0.5840(4) 0.10877(17) 0.11194(16)
H3_4 H 0.6074 0.1228 0.1383
C3_4 C 0.6365(3) 0.11461(15) 0.07281(15)
C4_4 C 0.5964(3) 0.09441(15) 0.03528(15)
H4_4 H 0.6279 0.0984 0.0079
C5_4 C 0.5105(3) 0.06843(14) 0.03780(13)
H5_4 H 0.4848 0.0545 0.0118
C6_4 C 0.7328(4) 0.13896(17) 0.07286(18)
H6_4 H 0.7288 0.1688 0.0913
H7_4 H 0.7799 0.1165 0.0867
C7_4 C 0.7598(3) 0.20139(16) 0.0147(2)
C8_4 C 0.6857(3) 0.23193(17) 0.0302(2)
H8_4 H 0.6417 0.2191 0.0511
C9_4 C 0.6743(3) 0.28020(17) 0.0162(2)
C10_4 C 0.5927(4) 0.3112(2) 0.0327(2)
H9_4 H 0.6180 0.3425 0.0435
H10_4 H 0.5597 0.2939 0.0565
H11_4 H 0.5471 0.3173 0.0088
N4_4 N 0.7307(3) 0.34705(14) 0.96987(16)
H28_4 H 0.7021 0.3692 0.9863
C40_4 C 0.9160(4) 0.39123(17) 0.88806(16)
H30_4 H 0.8926 0.3772 0.8617
C41_4 C 0.8635(3) 0.38539(15) 0.92719(15)
C42_4 C 0.9036(3) 0.40559(15) 0.96472(15)
H31_4 H 0.8721 0.4016 0.9921
C43_4 C 0.9895(3) 0.43157(14) 0.96220(13)
C44_4 C 0.7672(4) 0.36104(17) 0.92714(18)
H33_4 H 0.7712 0.3312 0.9087
H34_4 H 0.7201 0.3835 0.9133
C45_4 C 0.7402(3) 0.29861(16) 0.9853(2)
C46_4 C 0.8143(3) 0.26807(17) 0.9698(2)
H35_4 H 0.8583 0.2809 0.9489
C47_4 C 0.8257(3) 0.21980(17) 0.9838(2)
C48_4 C 0.9073(4) 0.1888(2) 0.9673(2)
H36_4 H 0.8820 0.1575 0.9565
H37_4 H 0.9403 0.2061 0.9435
H38_4 H 0.9529 0.1827 0.9912
C26_3 C 0.0283(5) 0.6839(3) 0.5821(3)
H18_3 H 0.0956 0.6867 0.5768
H19_3 H 0.0225 0.6105 0.5703
O7_3 O 0.2485(3) 0.91826(10) 0.58466(10)
O8_3 O 0.1043(2) 0.95362(10) 0.57498(10)
C32_3 C 0.1580(3) 0.91746(15) 0.58177(12)
C33_3 C 0.1106(3) 0.86782(13) 0.58708(15)
C34_3 C 0.0232(3) 0.77464(13) 0.59292(18)
C35_3 C 0.1682(5) 0.8253(3) 0.5990(3)
H24_3 H 0.2357 0.8287 0.6037
C36_3 C 0.1243(5) 0.7799(3) 0.6034(3)
H25_3 H 0.1604 0.7524 0.6133
C38_3 C 0.0152(5) 0.8619(3) 0.5787(3)
O1_3 O 0.6822(2) 0.52293(10) 0.51256(10)
O3_2 O 0.7515(3) 0.58174(10) 0.58466(10)
O4_2 O 0.8957(2) 0.54638(10) 0.57498(10)
C11_4 C 0.7500 0.5000 0.49343(15)
C12_4 C 0.7500 0.5000 0.44464(16)
C13_3 C 0.6700(3) 0.51707(15) 0.42129(12)
H12_3 H 0.6154 0.5290 0.4367
C14_3 C 0.6693(3) 0.51681(15) 0.37559(14)
H13_3 H 0.6140 0.5281 0.3602
C15_4 C 0.7500 0.5000 0.35242(17)
C16_4 C 0.7500 0.5000 0.30348(17)
C17_3 C 0.6653(4) 0.4914(2) 0.28048(15)
H14_3 H 0.6069 0.4858 0.2960
C18_3 C 0.6652(3) 0.4908(2) 0.23492(15)
H15_3 H 0.6072 0.4841 0.2195
C19_4 C 0.7500 0.5000 0.21196(17)
C20_4 C 0.7500 0.5000 0.16236(17)
C21_3 C 0.8420(3) 0.58254(15) 0.58177(12)
C22_3 C 0.8894(3) 0.63218(13) 0.58708(15)
C23_3 C 0.9768(3) 0.72536(13) 0.59292(18)
C24_3 C 0.8318(5) 0.6747(3) 0.5990(3)
H16_3 H 0.7643 0.6713 0.6037
C25_3 C 0.8757(5) 0.7201(3) 0.6034(3)
H17_3 H 0.8396 0.7476 0.6133
C27_3 C 0.9848(5) 0.6381(3) 0.5787(3)
O5_3 O 0.8178(2) 0.47707(10) 0.51256(10)
C28_3 C 0.8300(3) 0.48293(15) 0.42129(12)
H20_3 H 0.8846 0.4710 0.4367
C29_3 C 0.8307(3) 0.48319(15) 0.37559(14)
H21_3 H 0.8860 0.4719 0.3602
C30_3 C 0.8347(4) 0.5086(2) 0.28048(15)
H22_3 H 0.8931 0.5142 0.2960
C31_3 C 0.8348(3) 0.5092(2) 0.23492(15)
H23_3 H 0.8928 0.5159 0.2195
C37_3 C 0.9717(5) 0.8161(3) 0.5821(3)
H26_3 H 0.9044 0.8133 0.5768
H27_3 H 0.9775 0.8895 0.5703
O11_2 O 0.7485(3) 0.41826(10) 0.58466(10)
O12_2 O 0.6043(2) 0.45362(10) 0.57498(10)
C21_4 C 0.6580(3) 0.41746(15) 0.58177(12)
C22_4 C 0.6106(3) 0.36782(13) 0.58708(15)
C23_4 C 0.5232(3) 0.27464(13) 0.59292(18)
C24_4 C 0.6682(5) 0.3253(3) 0.5990(3)
H16_4 H 0.7357 0.3287 0.6037
C25_4 C 0.6243(5) 0.2799(3) 0.6034(3)
H17_4 H 0.6604 0.2524 0.6133
C26_4 C 0.4717(5) 0.3161(3) 0.5821(3)
H18_4 H 0.4044 0.3133 0.5768
C27_4 C 0.5152(5) 0.3619(3) 0.5787(3)
H19_4 H 0.4775 0.3895 0.5703
O7_4 O 0.2515(3) 0.08174(10) 0.58466(10)
O8_4 O 0.3957(2) 0.04638(10) 0.57498(10)
C32_4 C 0.3420(3) 0.08254(15) 0.58177(12)
C33_4 C 0.3894(3) 0.13218(13) 0.58708(15)
C34_4 C 0.4768(3) 0.22536(13) 0.59292(18)
C35_4 C 0.3318(5) 0.1747(3) 0.5990(3)
H24_4 H 0.2643 0.1713 0.6037
C36_4 C 0.3757(5) 0.2201(3) 0.6034(3)
H25_4 H 0.3396 0.2476 0.6133
C37_4 C 0.5283(5) 0.1839(3) 0.5821(3)
H26_4 H 0.5956 0.1867 0.5768
C38_4 C 0.4848(5) 0.1381(3) 0.5787(3)
H27_4 H 0.5225 0.1105 0.5703
O1_4 O 0.1822(2) 0.02293(10) 0.51256(10)
C11_5 C 0.2500 0.0000 0.49343(15)
C12_5 C 0.2500 0.0000 0.44464(16)
C13_4 C 0.1700(3) 0.01707(15) 0.42129(12)
H12_4 H 0.1154 0.0290 0.4367
C14_4 C 0.1693(3) 0.01681(15) 0.37559(14)
H13_4 H 0.1140 0.0281 0.3602
C15_5 C 0.2500 0.0000 0.35242(17)
C16_5 C 0.2500 0.0000 0.30348(17)
C19_5 C 0.2500 0.0000 0.21196(17)
C20_5 C 0.2500 0.0000 0.16236(17)
C30_4 C 0.3347(4) 0.0086(2) 0.28048(15)
H22_4 H 0.3931 0.0142 0.2960
C31_4 C 0.3348(3) 0.0092(2) 0.23492(15)
H23_4 H 0.3928 0.0159 0.2195
C11_6 C 0.2500 1.0000 0.49343(15)
C12_6 C 0.2500 1.0000 0.44464(16)
C15_6 C 0.2500 1.0000 0.35242(17)
C16_6 C 0.2500 1.0000 0.30348(17)
C17_4 C 0.1653(4) 0.9914(2) 0.28048(15)
H14_4 H 0.1069 0.9858 0.2960
C18_4 C 0.1652(3) 0.9908(2) 0.23492(15)
H15_4 H 0.1072 0.9841 0.2195
C19_6 C 0.2500 1.0000 0.21196(17)
C20_6 C 0.2500 1.0000 0.16236(17)
O5_4 O 0.3178(2) 0.97707(10) 0.51256(10)
C28_4 C 0.3300(3) 0.98293(15) 0.42129(12)
H20_4 H 0.3846 0.9710 0.4367
C29_4 C 0.3307(3) 0.98319(15) 0.37559(14)
H21_4 H 0.3860 0.9719 0.3602
Co1_2 Co 0.33637(4) 0.47808(2) 0.42190(2)
O1_5 O 0.3178(2) 0.47707(10) 0.48744(10)
O2_3 O 0.3267(2) 0.51285(12) 0.85597(10)
O3_3 O 0.2485(3) 0.41826(10) 0.41534(10)
O4_3 O 0.1043(2) 0.45362(10) 0.42502(10)
N1_3 N 0.4618(3) 0.43795(12) 0.42442(10)
N2_5 N 0.7693(3) 0.34705(14) 0.46987(16)
H1_5 H 0.7979 0.3692 0.4863
C1_5 C 0.4984(3) 0.41742(15) 0.38798(13)
H2_5 H 0.4642 0.4210 0.3612
C2_5 C 0.5840(4) 0.39123(17) 0.38806(16)
H3_5 H 0.6074 0.3772 0.3617
C3_5 C 0.6365(3) 0.38539(15) 0.42719(15)
C4_5 C 0.5964(3) 0.40559(15) 0.46472(15)
H4_5 H 0.6279 0.4016 0.4921
C5_5 C 0.5105(3) 0.43157(14) 0.46220(13)
H5_5 H 0.4848 0.4455 0.4882
C6_5 C 0.7328(4) 0.36104(17) 0.42714(18)
H6_5 H 0.7288 0.3312 0.4087
H7_5 H 0.7799 0.3835 0.4133
C7_5 C 0.7598(3) 0.29861(16) 0.4853(2)
C8_5 C 0.6857(3) 0.26807(17) 0.4698(2)
H8_5 H 0.6417 0.2809 0.4489
C9_5 C 0.6743(3) 0.21980(17) 0.4838(2)
C10_5 C 0.5927(4) 0.1888(2) 0.4673(2)
H9_5 H 0.6180 0.1575 0.4565
H10_5 H 0.5597 0.2061 0.4435
H11_5 H 0.5471 0.1827 0.4912
C11_7 C 0.2500 0.5000 0.50657(15)
C12_7 C 0.2500 0.5000 0.55536(16)
C13_5 C 0.3300(3) 0.48293(15) 0.57871(12)
H12_5 H 0.3846 0.4710 0.5633
C14_5 C 0.3307(3) 0.48319(15) 0.62441(14)
H13_5 H 0.3860 0.4719 0.6398
C15_7 C 0.2500 0.5000 0.64758(17)
C16_7 C 0.2500 0.5000 0.69652(17)
C17_5 C 0.3347(4) 0.5086(2) 0.71952(15)
H14_5 H 0.3931 0.5142 0.7040
C18_5 C 0.3348(3) 0.5092(2) 0.76508(15)
H15_5 H 0.3928 0.5159 0.7805
C19_7 C 0.2500 0.5000 0.78804(17)
C20_7 C 0.2500 0.5000 0.83764(17)
C21_5 C 0.1580(3) 0.41746(15) 0.41823(12)
C22_5 C 0.1106(3) 0.36782(13) 0.41292(15)
C23_5 C 0.0232(3) 0.27464(13) 0.40708(18)
C24_5 C 0.1682(5) 0.3253(3) 0.4010(3)
H16_5 H 0.2357 0.3287 0.3963
C25_5 C 0.1243(5) 0.2799(3) 0.3966(3)
H17_5 H 0.1604 0.2524 0.3867
C27_5 C 0.0152(5) 0.3619(3) 0.4213(3)
O5_5 O 0.1822(2) 0.52293(10) 0.48744(10)
O6_3 O 0.1733(2) 0.48715(12) 0.85597(10)
C28_5 C 0.1700(3) 0.51707(15) 0.57871(12)
H20_5 H 0.1154 0.5290 0.5633
C29_5 C 0.1693(3) 0.51681(15) 0.62441(14)
H21_5 H 0.1140 0.5281 0.6398
C30_5 C 0.1653(4) 0.4914(2) 0.71952(15)
H22_5 H 0.1069 0.4858 0.7040
C31_5 C 0.1652(3) 0.4908(2) 0.76508(15)
H23_5 H 0.1072 0.4841 0.7805
C37_5 C 0.0283(5) 0.1839(3) 0.4179(3)
H26_5 H 0.0956 0.1867 0.4232
H27_5 H 0.0225 0.1105 0.4297
N4_5 N 0.7307(3) 0.15295(14) 0.53013(16)
H28_5 H 0.7021 0.1308 0.5137
C40_5 C 0.9160(4) 0.10877(17) 0.61194(16)
H30_5 H 0.8926 0.1228 0.6383
C41_5 C 0.8635(3) 0.11461(15) 0.57281(15)
C42_5 C 0.9036(3) 0.09441(15) 0.53528(15)
H31_5 H 0.8721 0.0984 0.5079
C43_5 C 0.9895(3) 0.06843(14) 0.53780(13)
C44_5 C 0.7672(4) 0.13896(17) 0.57286(18)
H33_5 H 0.7712 0.1688 0.5913
H34_5 H 0.7201 0.1165 0.5867
C45_5 C 0.7402(3) 0.20139(16) 0.5147(2)
C46_5 C 0.8143(3) 0.23193(17) 0.5302(2)
H35_5 H 0.8583 0.2191 0.5511
C47_5 C 0.8257(3) 0.28020(17) 0.5162(2)
C48_5 C 0.9073(4) 0.3112(2) 0.5327(2)
H36_5 H 0.8820 0.3425 0.5435
H37_5 H 0.9403 0.2939 0.5565
H38_5 H 0.9529 0.3173 0.5088
Co2_2 Co 0.16363(4) 0.52192(2) 0.42190(2)
Co5_2 Co 0.33637(4) 0.52192(2) 0.92190(2)
Co6_2 Co 0.16363(4) 0.47808(2) 0.92190(2)
O9_3 O 0.3267(2) 0.48715(12) 0.35597(10)
O10_3 O 0.1733(2) 0.51285(12) 0.35597(10)
O11_3 O 0.2515(3) 0.58174(10) 0.41534(10)
O12_3 O 0.3957(2) 0.54638(10) 0.42502(10)
N5_3 N 0.0382(3) 0.56205(12) 0.42442(10)
C26_5 C 0.9717(5) 0.3161(3) 0.4179(3)
H18_5 H 0.9044 0.3133 0.4232
H19_5 H 0.9775 0.3895 0.4297
O7_5 O 0.7515(3) 0.08174(10) 0.41534(10)
O8_5 O 0.8957(2) 0.04638(10) 0.42502(10)
C32_5 C 0.8420(3) 0.08254(15) 0.41823(12)
C33_5 C 0.8894(3) 0.13218(13) 0.41292(15)
C34_5 C 0.9768(3) 0.22536(13) 0.40708(18)
C35_5 C 0.8318(5) 0.1747(3) 0.4010(3)
H24_5 H 0.7643 0.1713 0.3963
C36_5 C 0.8757(5) 0.2201(3) 0.3966(3)
H25_5 H 0.8396 0.2476 0.3867
C38_5 C 0.9848(5) 0.1381(3) 0.4213(3)
Co4_2 Co 0.66363(4) 0.02192(2) 0.42190(2)
Co3_2 Co 0.83637(4) 0.97808(2) 0.42190(2)
C1_6 C 0.0016(3) 0.58258(15) 0.38798(13)
H2_6 H 0.0358 0.5790 0.3612
H5_6 H 0.0152 0.5545 0.4882
C21_6 C 0.3420(3) 0.58254(15) 0.41823(12)
C22_6 C 0.3894(3) 0.63218(13) 0.41292(15)
C23_6 C 0.4768(3) 0.72536(13) 0.40708(18)
C24_6 C 0.3318(5) 0.6747(3) 0.4010(3)
H16_6 H 0.2643 0.6713 0.3963
C25_6 C 0.3757(5) 0.7201(3) 0.3966(3)
H17_6 H 0.3396 0.7476 0.3867
C26_6 C 0.5283(5) 0.6839(3) 0.4179(3)
H18_6 H 0.5956 0.6867 0.4232
C27_6 C 0.4848(5) 0.6381(3) 0.4213(3)
H19_6 H 0.5225 0.6105 0.4297
O7_6 O 0.7485(3) 0.91826(10) 0.41534(10)
O8_6 O 0.6043(2) 0.95362(10) 0.42502(10)
C32_6 C 0.6580(3) 0.91746(15) 0.41823(12)
C33_6 C 0.6106(3) 0.86782(13) 0.41292(15)
C34_6 C 0.5232(3) 0.77464(13) 0.40708(18)
C35_6 C 0.6682(5) 0.8253(3) 0.4010(3)
H24_6 H 0.7357 0.8287 0.3963
C36_6 C 0.6243(5) 0.7799(3) 0.3966(3)
H25_6 H 0.6604 0.7524 0.3867
C37_6 C 0.4717(5) 0.8161(3) 0.4179(3)
H26_6 H 0.4044 0.8133 0.4232
C38_6 C 0.5152(5) 0.8619(3) 0.4213(3)
H27_6 H 0.4775 0.8895 0.4297
N3_5 N 0.9618(3) 0.06205(12) 0.92442(10)
C39_5 C 0.9984(3) 0.08258(15) 0.88798(13)
H29_5 H 0.9642 0.0790 0.8612
H32_5 H 0.9848 0.0545 0.9882
Co7_3 Co 0.83637(4) 0.02192(2) 0.92190(2)
N2_6 N 0.2693(3) 0.65295(14) 0.03013(16)
H1_6 H 0.2979 0.6308 0.0137
C2_6 C 0.0840(4) 0.60877(17) 0.11194(16)
H3_6 H 0.1074 0.6228 0.1383
C3_6 C 0.1365(3) 0.61461(15) 0.07281(15)
C4_6 C 0.0964(3) 0.59441(15) 0.03528(15)
H4_6 H 0.1279 0.5984 0.0079
C5_6 C 0.0105(3) 0.56843(14) 0.03780(13)
C6_6 C 0.2328(4) 0.63896(17) 0.07286(18)
H6_6 H 0.2288 0.6688 0.0913
H7_6 H 0.2799 0.6165 0.0867
C7_6 C 0.2598(3) 0.70139(16) 0.0147(2)
C8_6 C 0.1857(3) 0.73193(17) 0.0302(2)
H8_6 H 0.1417 0.7191 0.0511
C9_6 C 0.1743(3) 0.78020(17) 0.0162(2)
C10_6 C 0.0927(4) 0.8112(2) 0.0327(2)
H9_6 H 0.1180 0.8425 0.0435
H10_6 H 0.0597 0.7939 0.0565
H11_6 H 0.0471 0.8173 0.0088
N3_6 N 0.5382(3) 0.93795(12) 0.92442(10)
N4_6 N 0.2307(3) 0.84705(14) 0.96987(16)
H28_6 H 0.2021 0.8692 0.9863
C39_6 C 0.5016(3) 0.91742(15) 0.88798(13)
H29_6 H 0.5358 0.9210 0.8612
C40_6 C 0.4160(4) 0.89123(17) 0.88806(16)
H30_6 H 0.3926 0.8772 0.8617
C41_6 C 0.3635(3) 0.88539(15) 0.92719(15)
C42_6 C 0.4036(3) 0.90559(15) 0.96472(15)
H31_6 H 0.3721 0.9016 0.9921
C43_6 C 0.4895(3) 0.93157(14) 0.96220(13)
H32_6 H 0.5152 0.9455 0.9882
C44_6 C 0.2672(4) 0.86104(17) 0.92714(18)
H33_6 H 0.2712 0.8312 0.9087
H34_6 H 0.2201 0.8835 0.9133
C45_6 C 0.2402(3) 0.79861(16) 0.9853(2)
C46_6 C 0.3143(3) 0.76807(17) 0.9698(2)
H35_6 H 0.3583 0.7809 0.9489
C47_6 C 0.3257(3) 0.71980(17) 0.9838(2)
C48_6 C 0.4073(4) 0.6888(2) 0.9673(2)
H36_6 H 0.3820 0.6575 0.9565
H37_6 H 0.4403 0.7061 0.9435
H38_6 H 0.4529 0.6827 0.9912
Co7_4 Co 0.66363(4) 0.97808(2) 0.92190(2)
O2_4 O 0.8267(2) 0.01285(12) 0.85597(10)
C11_8 C 0.7500 -0.0000 0.50657(15)
C12_8 C 0.7500 -0.0000 0.55536(16)
C15_8 C 0.7500 -0.0000 0.64758(17)
C16_8 C 0.7500 -0.0000 0.69652(17)
C17_6 C 0.8347(4) 0.0086(2) 0.71952(15)
H14_6 H 0.8931 0.0142 0.7040
C18_6 C 0.8348(3) 0.0092(2) 0.76508(15)
H15_6 H 0.8928 0.0159 0.7805
C19_8 C 0.7500 -0.0000 0.78804(17)
C20_8 C 0.7500 -0.0000 0.83764(17)
O5_6 O 0.6822(2) 0.02293(10) 0.48744(10)
C28_6 C 0.6700(3) 0.01707(15) 0.57871(12)
H20_6 H 0.6154 0.0290 0.5633
C29_6 C 0.6693(3) 0.01681(15) 0.62441(14)
H21_6 H 0.6140 0.0281 0.6398
O10_4 O 0.6733(2) 0.01285(12) 0.35597(10)
N5_4 N 0.5382(3) 0.06205(12) 0.42442(10)
O1_6 O 0.8178(2) 0.97707(10) 0.48744(10)
N1_4 N 0.9618(3) 0.93795(12) 0.42442(10)
C1_7 C 0.9984(3) 0.91742(15) 0.38798(13)
H2_7 H 0.9642 0.9210 0.3612
H5_7 H 0.9848 0.9455 0.4882
C11_9 C 0.7500 1.0000 0.50657(15)
C12_9 C 0.7500 1.0000 0.55536(16)
C13_6 C 0.8300(3) 0.98293(15) 0.57871(12)
H12_6 H 0.8846 0.9710 0.5633
C14_6 C 0.8307(3) 0.98319(15) 0.62441(14)
H13_6 H 0.8860 0.9719 0.6398
C15_9 C 0.7500 1.0000 0.64758(17)
C16_9 C 0.7500 1.0000 0.69652(17)
C19_9 C 0.7500 1.0000 0.78804(17)
C20_9 C 0.7500 1.0000 0.83764(17)
O6_4 O 0.6733(2) 0.98715(12) 0.85597(10)
C30_6 C 0.6653(4) 0.9914(2) 0.71952(15)
H22_6 H 0.6069 0.9858 0.7040
C31_6 C 0.6652(3) 0.9908(2) 0.76508(15)
H23_6 H 0.6072 0.9841 0.7805
O9_4 O 0.8267(2) 0.98715(12) 0.35597(10)
N2_7 N 0.2307(3) 0.15295(14) 0.46987(16)
H1_7 H 0.2021 0.1308 0.4863
C1_8 C 0.5016(3) 0.08258(15) 0.38798(13)
H2_8 H 0.5358 0.0790 0.3612
C2_7 C 0.4160(4) 0.10877(17) 0.38806(16)
H3_7 H 0.3926 0.1228 0.3617
C3_7 C 0.3635(3) 0.11461(15) 0.42719(15)
C4_7 C 0.4036(3) 0.09441(15) 0.46472(15)
H4_7 H 0.3721 0.0984 0.4921
C5_7 C 0.4895(3) 0.06843(14) 0.46220(13)
H5_8 H 0.5152 0.0545 0.4882
C6_7 C 0.2672(4) 0.13896(17) 0.42714(18)
H6_7 H 0.2712 0.1688 0.4087
H7_7 H 0.2201 0.1165 0.4133
C7_7 C 0.2402(3) 0.20139(16) 0.4853(2)
C8_7 C 0.3143(3) 0.23193(17) 0.4698(2)
H8_7 H 0.3583 0.2191 0.4489
C9_7 C 0.3257(3) 0.28020(17) 0.4838(2)
C10_7 C 0.4073(4) 0.3112(2) 0.4673(2)
H9_7 H 0.3820 0.3425 0.4565
H10_7 H 0.4403 0.2939 0.4435
H11_7 H 0.4529 0.3173 0.4912
N4_7 N 0.2693(3) 0.34705(14) 0.53013(16)
H28_7 H 0.2979 0.3692 0.5137
C40_7 C 0.0840(4) 0.39123(17) 0.61194(16)
H30_7 H 0.1074 0.3772 0.6383
C41_7 C 0.1365(3) 0.38539(15) 0.57281(15)
C42_7 C 0.0964(3) 0.40559(15) 0.53528(15)
H31_7 H 0.1279 0.4016 0.5079
C43_7 C 0.0105(3) 0.43157(14) 0.53780(13)
C44_7 C 0.2328(4) 0.36104(17) 0.57286(18)
H33_7 H 0.2288 0.3312 0.5913
H34_7 H 0.2799 0.3835 0.5867
C45_7 C 0.2598(3) 0.29861(16) 0.5147(2)
C46_7 C 0.1857(3) 0.26807(17) 0.5302(2)
H35_7 H 0.1417 0.2809 0.5511
C47_7 C 0.1743(3) 0.21980(17) 0.5162(2)
C48_7 C 0.0927(4) 0.1888(2) 0.5327(2)
H36_7 H 0.1180 0.1575 0.5435
H37_7 H 0.0597 0.2061 0.5565
H38_7 H 0.0471 0.1827 0.5088
N2_8 N 0.7307(3) 0.84705(14) 0.03013(16)
H1_8 H 0.7021 0.8692 0.0137
C2_8 C 0.9160(4) 0.89123(17) 0.11194(16)
H3_8 H 0.8926 0.8772 0.1383
C3_8 C 0.8635(3) 0.88539(15) 0.07281(15)
C4_8 C 0.9036(3) 0.90559(15) 0.03528(15)
H4_8 H 0.8721 0.9016 0.0079
C5_8 C 0.9895(3) 0.93157(14) 0.03780(13)
C6_8 C 0.7672(4) 0.86104(17) 0.07286(18)
H6_8 H 0.7712 0.8312 0.0913
H7_8 H 0.7201 0.8835 0.0867
C7_8 C 0.7402(3) 0.79861(16) 0.0147(2)
C8_8 C 0.8143(3) 0.76807(17) 0.0302(2)
H8_8 H 0.8583 0.7809 0.0511
C9_8 C 0.8257(3) 0.71980(17) 0.0162(2)
C10_8 C 0.9073(4) 0.6888(2) 0.0327(2)
H9_8 H 0.8820 0.6575 0.0435
H10_8 H 0.9403 0.7061 0.0565
H11_8 H 0.9529 0.6827 0.0088
N3_7 N 0.4618(3) 0.56205(12) 0.92442(10)
N4_8 N 0.7693(3) 0.65295(14) 0.96987(16)
H28_8 H 0.7979 0.6308 0.9863
C39_7 C 0.4984(3) 0.58258(15) 0.88798(13)
H29_7 H 0.4642 0.5790 0.8612
C40_8 C 0.5840(4) 0.60877(17) 0.88806(16)
H30_8 H 0.6074 0.6228 0.8617
C41_8 C 0.6365(3) 0.61461(15) 0.92719(15)
C42_8 C 0.5964(3) 0.59441(15) 0.96472(15)
H31_8 H 0.6279 0.5984 0.9921
C43_8 C 0.5105(3) 0.56843(14) 0.96220(13)
H32_7 H 0.4848 0.5545 0.9882
C44_8 C 0.7328(4) 0.63896(17) 0.92714(18)
H33_8 H 0.7288 0.6688 0.9087
H34_8 H 0.7799 0.6165 0.9133
C45_8 C 0.7598(3) 0.70139(16) 0.9853(2)
C46_8 C 0.6857(3) 0.73193(17) 0.9698(2)
H35_8 H 0.6417 0.7191 0.9489
C47_8 C 0.6743(3) 0.78020(17) 0.9838(2)
C48_8 C 0.5927(4) 0.8112(2) 0.9673(2)
H36_8 H 0.6180 0.8425 0.9565
H37_8 H 0.5597 0.7939 0.9435
H38_8 H 0.5471 0.8173 0.9912
N3_8 N 0.0382(3) 0.43795(12) 0.92442(10)
C39_8 C 0.0016(3) 0.41742(15) 0.88798(13)
H29_8 H 0.0358 0.4210 0.8612
H32_8 H 0.0152 0.4455 0.9882
C11_10 C 0.2500 0.5000 0.00657(15)
C12_10 C 0.2500 0.5000 0.05536(16)
C13_7 C 0.3300(3) 0.51707(15) 0.07871(12)
H12_7 H 0.3846 0.5290 0.0633
C14_7 C 0.3307(3) 0.51681(15) 0.12441(14)
H13_7 H 0.3860 0.5281 0.1398
C15_10 C 0.2500 0.5000 0.14758(17)
C16_10 C 0.2500 0.5000 0.19652(17)
C17_7 C 0.3347(4) 0.4914(2) 0.21952(15)
H14_7 H 0.3931 0.4858 0.2040
C18_7 C 0.3348(3) 0.4908(2) 0.26508(15)
H15_7 H 0.3928 0.4841 0.2805
C19_10 C 0.2500 0.5000 0.28804(17)
C20_10 C 0.2500 0.5000 0.33764(17)
C28_7 C 0.1700(3) 0.48293(15) 0.07871(12)
H20_7 H 0.1154 0.4710 0.0633
C29_7 C 0.1693(3) 0.48319(15) 0.12441(14)
H21_7 H 0.1140 0.4719 0.1398
C30_7 C 0.1653(4) 0.5086(2) 0.21952(15)
H22_7 H 0.1069 0.5142 0.2040
C31_7 C 0.1652(3) 0.5092(2) 0.26508(15)
H23_7 H 0.1072 0.5159 0.2805
O1_7 O 0.3178(2) 0.52293(10) 0.98744(10)
O3_4 O 0.2485(3) 0.58174(10) 0.91534(10)
O4_4 O 0.1043(2) 0.54638(10) 0.92502(10)
C21_7 C 0.1580(3) 0.58254(15) 0.91823(12)
C22_7 C 0.1106(3) 0.63218(13) 0.91292(15)
C23_7 C 0.0232(3) 0.72536(13) 0.90708(18)
C24_7 C 0.1682(5) 0.6747(3) 0.9010(3)
H16_7 H 0.2357 0.6713 0.8963
C25_7 C 0.1243(5) 0.7201(3) 0.8966(3)
H17_7 H 0.1604 0.7476 0.8867
C27_7 C 0.0152(5) 0.6381(3) 0.9213(3)
O5_7 O 0.1822(2) 0.47707(10) 0.98744(10)
C37_7 C 0.0283(5) 0.8161(3) 0.9179(3)
H26_7 H 0.0956 0.8133 0.9232
H27_7 H 0.0225 0.8895 0.9297
O11_4 O 0.2515(3) 0.41826(10) 0.91534(10)
O12_4 O 0.3957(2) 0.45362(10) 0.92502(10)
C26_7 C 0.9717(5) 0.6839(3) 0.9179(3)
H18_7 H 0.9044 0.6867 0.9232
H19_7 H 0.9775 0.6105 0.9297
O7_7 O 0.7515(3) 0.91826(10) 0.91534(10)
O8_7 O 0.8957(2) 0.95362(10) 0.92502(10)
C32_7 C 0.8420(3) 0.91746(15) 0.91823(12)
C33_7 C 0.8894(3) 0.86782(13) 0.91292(15)
C34_7 C 0.9768(3) 0.77464(13) 0.90708(18)
C35_7 C 0.8318(5) 0.8253(3) 0.9010(3)
H24_7 H 0.7643 0.8287 0.8963
C36_7 C 0.8757(5) 0.7799(3) 0.8966(3)
H25_7 H 0.8396 0.7524 0.8867
C38_7 C 0.9848(5) 0.8619(3) 0.9213(3)
C21_8 C 0.3420(3) 0.41746(15) 0.91823(12)
C22_8 C 0.3894(3) 0.36782(13) 0.91292(15)
C23_8 C 0.4768(3) 0.27464(13) 0.90708(18)
C24_8 C 0.3318(5) 0.3253(3) 0.9010(3)
H16_8 H 0.2643 0.3287 0.8963
C25_8 C 0.3757(5) 0.2799(3) 0.8966(3)
H17_8 H 0.3396 0.2524 0.8867
C26_8 C 0.5283(5) 0.3161(3) 0.9179(3)
H18_8 H 0.5956 0.3133 0.9232
C27_8 C 0.4848(5) 0.3619(3) 0.9213(3)
H19_8 H 0.5225 0.3895 0.9297
O7_8 O 0.7485(3) 0.08174(10) 0.91534(10)
O8_8 O 0.6043(2) 0.04638(10) 0.92502(10)
C32_8 C 0.6580(3) 0.08254(15) 0.91823(12)
C33_8 C 0.6106(3) 0.13218(13) 0.91292(15)
C34_8 C 0.5232(3) 0.22536(13) 0.90708(18)
C35_8 C 0.6682(5) 0.1747(3) 0.9010(3)
H24_8 H 0.7357 0.1713 0.8963
C36_8 C 0.6243(5) 0.2201(3) 0.8966(3)
H25_8 H 0.6604 0.2476 0.8867
C37_8 C 0.4717(5) 0.1839(3) 0.9179(3)
H26_8 H 0.4044 0.1867 0.9232
C38_8 C 0.5152(5) 0.1381(3) 0.9213(3)
H27_8 H 0.4775 0.1105 0.9297
C11_11 C 0.7500 0.0000 0.00657(15)
C12_11 C 0.7500 0.0000 0.05536(16)
C13_8 C 0.8300(3) 0.01707(15) 0.07871(12)
H12_8 H 0.8846 0.0290 0.0633
C14_8 C 0.8307(3) 0.01681(15) 0.12441(14)
H13_8 H 0.8860 0.0281 0.1398
C15_11 C 0.7500 0.0000 0.14758(17)
C16_11 C 0.7500 0.0000 0.19652(17)
C19_11 C 0.7500 0.0000 0.28804(17)
C20_11 C 0.7500 0.0000 0.33764(17)
C30_8 C 0.6653(4) 0.0086(2) 0.21952(15)
H22_8 H 0.6069 0.0142 0.2040
C31_8 C 0.6652(3) 0.0092(2) 0.26508(15)
H23_8 H 0.6072 0.0159 0.2805
O1_8 O 0.8178(2) 0.02293(10) 0.98744(10)
C11_12 C 0.7500 1.0000 0.00657(15)
C12_12 C 0.7500 1.0000 0.05536(16)
C15_12 C 0.7500 1.0000 0.14758(17)
C16_12 C 0.7500 1.0000 0.19652(17)
C17_8 C 0.8347(4) 0.9914(2) 0.21952(15)
H14_8 H 0.8931 0.9858 0.2040
C18_8 C 0.8348(3) 0.9908(2) 0.26508(15)
H15_8 H 0.8928 0.9841 0.2805
C19_12 C 0.7500 1.0000 0.28804(17)
C20_12 C 0.7500 1.0000 0.33764(17)
C28_8 C 0.6700(3) 0.98293(15) 0.07871(12)
H20_8 H 0.6154 0.9710 0.0633
C29_8 C 0.6693(3) 0.98319(15) 0.12441(14)
H21_8 H 0.6140 0.9719 0.1398
O5_8 O 0.6822(2) 0.97707(10) 0.98744(10)
loop_
_geom_bond_atom_site_label_1
_geom_bond_atom_site_label_2
_geom_bond_site_symmetry_1
_geom_bond_site_symmetry_2
N3 C39 1_555 1_555
C39 H29 1_555 1_555
Co7 N3 1_555 1_555
N2 H1 1_555 1_555
H3 C2 1_555 1_555
C3 C2 1_555 1_555
C4 C3 1_555 1_555
H4 C4 1_555 1_555
C6 N2 1_555 1_555
H6 C6 1_555 1_555
H7 C6 1_555 1_555
C7 N2 1_555 1_555
C8 C7 1_555 1_555
H8 C8 1_555 1_555
C9 C8 1_555 1_555
C10 C9 1_555 1_555
H9 C10 1_555 1_555
H10 C10 1_555 1_555
H11 C10 1_555 1_555
N3_2 C39_2 1_555 1_555
N4 H28 1_555 1_555
C39_2 H29_2 1_555 1_555
C40 C39_2 1_555 1_555
H30 C40 1_555 1_555
C41 C40 1_555 1_555
C42 C41 1_555 1_555
H31 C42 1_555 1_555
C43 N3_2 1_555 1_555
H32_2 C43 1_555 1_555
C44 N4 1_555 1_555
H33 C44 1_555 1_555
H34 C44 1_555 1_555
C45 C9 1_555 1_555
C46 C45 1_555 1_555
H35 C46 1_555 1_555
C47 C7 1_555 1_555
C48 C47 1_555 1_555
H36 C48 1_555 1_555
H37 C48 1_555 1_555
H38 C48 1_555 1_555
Co7_2 N3_2 1_555 1_555
C3 C6 1_555 1_555
C4 C5 1_555 1_555
N4 C45 1_555 1_555
C41 C44 1_555 1_555
C42 C43 1_555 1_555
C46 C47 1_555 1_555
H18 C26 1_555 1_555
O7 C32 1_555 1_555
O8 C32 1_555 1_555
C32 C33 1_555 1_555
C33 C35 1_555 1_555
C35 H24 1_555 1_555
C36 C34 1_555 1_555
H25 C36 1_555 1_555
C38 C33 1_555 1_555
Co4 O7 1_555 1_555
C35 C36 1_555 1_555
Co1 O1 1_555 1_555
O3 Co1 1_555 1_555
O4 C21 1_555 1_555
N1 Co1 1_555 1_555
N2_2 H1_2 1_555 1_555
C1 N1 1_555 1_555
H2 C1 1_555 1_555
C2_2 C1 1_555 1_555
H3_2 C2_2 1_555 1_555
C3_2 C2_2 1_555 1_555
C4_2 C3_2 1_555 1_555
H4_2 C4_2 1_555 1_555
C5_2 N1 1_555 1_555
H5 C5_2 1_555 1_555
C6_2 N2_2 1_555 1_555
H6_2 C6_2 1_555 1_555
H7_2 C6_2 1_555 1_555
C7_2 N2_2 1_555 1_555
C8_2 C7_2 1_555 1_555
H8_2 C8_2 1_555 1_555
C9_2 C8_2 1_555 1_555
C10_2 C9_2 1_555 1_555
H9_2 C10_2 1_555 1_555
H10_2 C10_2 1_555 1_555
H11_2 C10_2 1_555 1_555
C21 O3 1_555 1_555
C22 C21 1_555 1_555
C23 C25 1_555 1_555
C24 C22 1_555 1_555
H16 C24 1_555 1_555
C25 C24 1_555 1_555
H17 C25 1_555 1_555
C27 C22 1_555 1_555
H26 C37 1_555 1_555
Co2 O4 1_555 1_555
O9 Co1 1_555 1_555
O10 Co2 1_555 1_555
O11 Co2 1_555 1_555
O12 Co1 1_555 1_555
N5 Co2 1_555 1_555
C3_2 C6_2 1_555 1_555
C4_2 C5_2 1_555 1_555
O5 Co2 1_555 1_555
O2 C20 1_555 1_555
C11 C12 1_555 1_555
C12 C13 1_555 1_555
C13 H12 1_555 1_555
C14 C13 1_555 1_555
H13 C14 1_555 1_555
C15 C14 1_555 1_555
C16 C15 1_555 1_555
C17 C16 1_555 1_555
H14 C17 1_555 1_555
C18 C17 1_555 1_555
H15 C18 1_555 1_555
C19 C18 1_555 1_555
C20 C19 1_555 1_555
O6 C20 1_555 1_555
C28 C12 1_555 1_555
H20 C28 1_555 1_555
C29 C15 1_555 1_555
H21 C29 1_555 1_555
C30 C16 1_555 1_555
H22 C30 1_555 1_555
C31 C19 1_555 1_555
H23 C31 1_555 1_555
N4_2 H28_2 1_555 1_555
H30_2 C40_2 1_555 1_555
C41_2 C40_2 1_555 1_555
C42_2 C41_2 1_555 1_555
H31_2 C42_2 1_555 1_555
C44_2 N4_2 1_555 1_555
H33_2 C44_2 1_555 1_555
H34_2 C44_2 1_555 1_555
C46_2 C45_2 1_555 1_555
H35_2 C46_2 1_555 1_555
C48_2 C47_2 1_555 1_555
H36_2 C48_2 1_555 1_555
H37_2 C48_2 1_555 1_555
H38_2 C48_2 1_555 1_555
Co5 O2 1_555 1_555
Co6 O6 1_555 1_555
C28 C29 1_555 1_555
C30 C31 1_555 1_555
N4_2 C45_2 1_555 1_555
C41_2 C44_2 1_555 1_555
C42_2 C43_2 1_555 1_555
C46_2 C47_2 1_555 1_555
O12 C21_2 1_555 1_555
C1_2 N5 1_555 1_555
H2_2 C1_2 1_555 1_555
C21_2 O11 1_555 1_555
C22_2 C21_2 1_555 1_555
C23_2 C25_2 1_555 1_555
C24_2 C22_2 1_555 1_555
H16_2 C24_2 1_555 1_555
C25_2 C24_2 1_555 1_555
H17_2 C25_2 1_555 1_555
C26_2 C23_2 1_555 1_555
H18_2 C26_2 1_555 1_555
C27_2 C22_2 1_555 1_555
H19_2 C27_2 1_555 1_555
O7_2 C32_2 1_555 1_555
O8_2 C32_2 1_555 1_555
C32_2 C33_2 1_555 1_555
C33_2 C35_2 1_555 1_555
C34_2 C23_2 1_555 1_555
C35_2 H24_2 1_555 1_555
C36_2 C34_2 1_555 1_555
H25_2 C36_2 1_555 1_555
C37_2 C34_2 1_555 1_555
H26_2 C37_2 1_555 1_555
C38_2 C33_2 1_555 1_555
H27_2 C38_2 1_555 1_555
Co3 O7_2 1_555 1_555
C26_2 C27_2 1_555 1_555
C35_2 C36_2 1_555 1_555
C37_2 C38_2 1_555 1_555
N2_3 H1_3 1_555 1_555
H3_3 C2_3 1_555 1_555
C3_3 C2_3 1_555 1_555
C4_3 C3_3 1_555 1_555
H4_3 C4_3 1_555 1_555
C6_3 N2_3 1_555 1_555
H6_3 C6_3 1_555 1_555
H7_3 C6_3 1_555 1_555
C7_3 N2_3 1_555 1_555
C8_3 C7_3 1_555 1_555
H8_3 C8_3 1_555 1_555
C9_3 C8_3 1_555 1_555
C10_3 C9_3 1_555 1_555
H9_3 C10_3 1_555 1_555
H10_3 C10_3 1_555 1_555
H11_3 C10_3 1_555 1_555
N3_3 C39_3 1_555 1_555
N4_3 H28_3 1_555 1_555
C39_3 H29_3 1_555 1_555
C40_3 C39_3 1_555 1_555
H30_3 C40_3 1_555 1_555
C41_3 C40_3 1_555 1_555
C42_3 C41_3 1_555 1_555
H31_3 C42_3 1_555 1_555
C43_3 N3_3 1_555 1_555
H32_3 C43_3 1_555 1_555
C44_3 N4_3 1_555 1_555
H33_3 C44_3 1_555 1_555
H34_3 C44_3 1_555 1_555
C45_3 C9_3 1_555 1_555
C46_3 C45_3 1_555 1_555
H35_3 C46_3 1_555 1_555
C47_3 C7_3 1_555 1_555
C48_3 C47_3 1_555 1_555
H36_3 C48_3 1_555 1_555
H37_3 C48_3 1_555 1_555
H38_3 C48_3 1_555 1_555
Co5 N3_3 1_555 1_555
C3_3 C6_3 1_555 1_555
C4_3 C5_3 1_555 1_555
N4_3 C45_3 1_555 1_555
C41_3 C44_3 1_555 1_555
C42_3 C43_3 1_555 1_555
C46_3 C47_3 1_555 1_555
N3_4 C39_4 1_555 1_555
C39_4 H29_4 1_555 1_555
Co6 N3_4 1_555 1_555
O10_2 Co4 1_555 1_555
N5_2 Co4 1_555 1_555
O5_2 Co4 1_555 1_555
O2_2 C20_2 1_555 1_555
C11_2 C12_2 1_555 1_555
C16_2 C15_2 1_555 1_555
C17_2 C16_2 1_555 1_555
H14_2 C17_2 1_555 1_555
C18_2 C17_2 1_555 1_555
H15_2 C18_2 1_555 1_555
C19_2 C18_2 1_555 1_555
C20_2 C19_2 1_555 1_555
C28_2 C12_2 1_555 1_555
H20_2 C28_2 1_555 1_555
C29_2 C15_2 1_555 1_555
H21_2 C29_2 1_555 1_555
Co7 O2_2 1_555 1_555
C28_2 C29_2 1_555 1_555
Co3 O1_2 1_555 1_555
N1_2 Co3 1_555 1_555
C1_3 N1_2 1_555 1_555
H2_3 C1_3 1_555 1_555
O9_2 Co3 1_555 1_555
C11_3 C12_3 1_555 1_555
C12_3 C13_2 1_555 1_555
C13_2 H12_2 1_555 1_555
C14_2 C13_2 1_555 1_555
H13_2 C14_2 1_555 1_555
C15_3 C14_2 1_555 1_555
C16_3 C15_3 1_555 1_555
C20_3 C19_3 1_555 1_555
O6_2 C20_3 1_555 1_555
C30_2 C16_3 1_555 1_555
H22_2 C30_2 1_555 1_555
C31_2 C19_3 1_555 1_555
H23_2 C31_2 1_555 1_555
Co7_2 O6_2 1_555 1_555
C30_2 C31_2 1_555 1_555
N2_4 H1_4 1_555 1_555
C1_4 N5_2 1_555 1_555
H2_4 C1_4 1_555 1_555
C2_4 C1_4 1_555 1_555
H3_4 C2_4 1_555 1_555
C3_4 C2_4 1_555 1_555
C4_4 C3_4 1_555 1_555
H4_4 C4_4 1_555 1_555
C5_4 N5_2 1_555 1_555
H5_4 C5_4 1_555 1_555
C6_4 N2_4 1_555 1_555
H6_4 C6_4 1_555 1_555
H7_4 C6_4 1_555 1_555
C7_4 N2_4 1_555 1_555
C8_4 C7_4 1_555 1_555
H8_4 C8_4 1_555 1_555
C9_4 C8_4 1_555 1_555
C10_4 C9_4 1_555 1_555
H9_4 C10_4 1_555 1_555
H10_4 C10_4 1_555 1_555
H11_4 C10_4 1_555 1_555
C3_4 C6_4 1_555 1_555
C4_4 C5_4 1_555 1_555
N4_4 H28_4 1_555 1_555
H30_4 C40_4 1_555 1_555
C41_4 C40_4 1_555 1_555
C42_4 C41_4 1_555 1_555
H31_4 C42_4 1_555 1_555
C44_4 N4_4 1_555 1_555
H33_4 C44_4 1_555 1_555
H34_4 C44_4 1_555 1_555
C46_4 C45_4 1_555 1_555
H35_4 C46_4 1_555 1_555
C48_4 C47_4 1_555 1_555
H36_4 C48_4 1_555 1_555
H37_4 C48_4 1_555 1_555
H38_4 C48_4 1_555 1_555
N4_4 C45_4 1_555 1_555
C41_4 C44_4 1_555 1_555
C42_4 C43_4 1_555 1_555
C46_4 C47_4 1_555 1_555
H18_3 C26_3 1_555 1_555
O7_3 C32_3 1_555 1_555
O8_3 C32_3 1_555 1_555
C32_3 C33_3 1_555 1_555
C33_3 C35_3 1_555 1_555
C35_3 H24_3 1_555 1_555
C36_3 C34_3 1_555 1_555
H25_3 C36_3 1_555 1_555
C38_3 C33_3 1_555 1_555
Co7_2 O7_3 1_555 1_555
C35_3 C36_3 1_555 1_555
Co5 O1_3 1_555 1_555
O1_3 C11_4 1_555 1_555
O9 C20_4 1_555 1_555
O3_2 Co5 1_555 1_555
O4_2 C21_3 1_555 1_555
C11_4 C12_4 1_555 1_555
C12_4 C13_3 1_555 1_555
C13_3 H12_3 1_555 1_555
C14_3 C13_3 1_555 1_555
H13_3 C14_3 1_555 1_555
C15_4 C14_3 1_555 1_555
C16_4 C15_4 1_555 1_555
C17_3 C16_4 1_555 1_555
H14_3 C17_3 1_555 1_555
C18_3 C17_3 1_555 1_555
H15_3 C18_3 1_555 1_555
C19_4 C18_3 1_555 1_555
C20_4 C19_4 1_555 1_555
C21_3 O3_2 1_555 1_555
C22_3 C21_3 1_555 1_555
C23_3 C25_3 1_555 1_555
C24_3 C22_3 1_555 1_555
H16_3 C24_3 1_555 1_555
C25_3 C24_3 1_555 1_555
H17_3 C25_3 1_555 1_555
C27_3 C22_3 1_555 1_555
O5_3 C11_4 1_555 1_555
O10 C20_4 1_555 1_555
C28_3 C12_4 1_555 1_555
H20_3 C28_3 1_555 1_555
C29_3 C15_4 1_555 1_555
H21_3 C29_3 1_555 1_555
C30_3 C16_4 1_555 1_555
H22_3 C30_3 1_555 1_555
C31_3 C19_4 1_555 1_555
H23_3 C31_3 1_555 1_555
H26_3 C37_3 1_555 1_555
Co6 O4_2 1_555 1_555
O11_2 Co6 1_555 1_555
O12_2 Co5 1_555 1_555
O5_3 Co6 1_555 1_555
C28_3 C29_3 1_555 1_555
C30_3 C31_3 1_555 1_555
O12_2 C21_4 1_555 1_555
C21_4 O11_2 1_555 1_555
C22_4 C21_4 1_555 1_555
C23_4 C25_4 1_555 1_555
C24_4 C22_4 1_555 1_555
H16_4 C24_4 1_555 1_555
C25_4 C24_4 1_555 1_555
H17_4 C25_4 1_555 1_555
C26_4 C23_4 1_555 1_555
H18_4 C26_4 1_555 1_555
C27_4 C22_4 1_555 1_555
H19_4 C27_4 1_555 1_555
O7_4 C32_4 1_555 1_555
O8_4 C32_4 1_555 1_555
C32_4 C33_4 1_555 1_555
C33_4 C35_4 1_555 1_555
C34_4 C23_4 1_555 1_555
C35_4 H24_4 1_555 1_555
C36_4 C34_4 1_555 1_555
H25_4 C36_4 1_555 1_555
C37_4 C34_4 1_555 1_555
H26_4 C37_4 1_555 1_555
C38_4 C33_4 1_555 1_555
H27_4 C38_4 1_555 1_555
Co7 O7_4 1_555 1_555
C26_4 C27_4 1_555 1_555
C35_4 C36_4 1_555 1_555
C37_4 C38_4 1_555 1_555
Co7 O1_4 1_555 1_555
O1_4 C11_5 1_555 1_555
C11_5 C12_5 1_555 1_555
C12_5 C13_4 1_555 1_555
C13_4 H12_4 1_555 1_555
C14_4 C13_4 1_555 1_555
H13_4 C14_4 1_555 1_555
C15_5 C14_4 1_555 1_555
C16_5 C15_5 1_555 1_555
C20_5 C19_5 1_555 1_555
O10_2 C20_5 1_555 1_555
C30_4 C16_5 1_555 1_555
H22_4 C30_4 1_555 1_555
C31_4 C19_5 1_555 1_555
H23_4 C31_4 1_555 1_555
C30_4 C31_4 1_555 1_555
O9_2 C20_6 1_555 1_555
C11_6 C12_6 1_555 1_555
C16_6 C15_6 1_555 1_555
C17_4 C16_6 1_555 1_555
H14_4 C17_4 1_555 1_555
C18_4 C17_4 1_555 1_555
H15_4 C18_4 1_555 1_555
C19_6 C18_4 1_555 1_555
C20_6 C19_6 1_555 1_555
O5_4 C11_6 1_555 1_555
C28_4 C12_6 1_555 1_555
H20_4 C28_4 1_555 1_555
C29_4 C15_6 1_555 1_555
H21_4 C29_4 1_555 1_555
O5_4 Co7_2 1_555 1_555
C28_4 C29_4 1_555 1_555
Co1_2 O1_5 1_555 1_555
O1_5 C11_7 1_555 1_555
O2_3 C20_7 1_555 1_555
O3_3 Co1_2 1_555 1_555
O4_3 C21_5 1_555 1_555
N1_3 Co1_2 1_555 1_555
N2_5 H1_5 1_555 1_555
C1_5 N1_3 1_555 1_555
H2_5 C1_5 1_555 1_555
C2_5 C1_5 1_555 1_555
H3_5 C2_5 1_555 1_555
C3_5 C2_5 1_555 1_555
C4_5 C3_5 1_555 1_555
H4_5 C4_5 1_555 1_555
C5_5 N1_3 1_555 1_555
H5_5 C5_5 1_555 1_555
C6_5 N2_5 1_555 1_555
H6_5 C6_5 1_555 1_555
H7_5 C6_5 1_555 1_555
C7_5 N2_5 1_555 1_555
C8_5 C7_5 1_555 1_555
H8_5 C8_5 1_555 1_555
C9_5 C8_5 1_555 1_555
C10_5 C9_5 1_555 1_555
H9_5 C10_5 1_555 1_555
H10_5 C10_5 1_555 1_555
H11_5 C10_5 1_555 1_555
C11_7 C12_7 1_555 1_555
C12_7 C13_5 1_555 1_555
C13_5 H12_5 1_555 1_555
C14_5 C13_5 1_555 1_555
H13_5 C14_5 1_555 1_555
C15_7 C14_5 1_555 1_555
C16_7 C15_7 1_555 1_555
C17_5 C16_7 1_555 1_555
H14_5 C17_5 1_555 1_555
C18_5 C17_5 1_555 1_555
H15_5 C18_5 1_555 1_555
C19_7 C18_5 1_555 1_555
C20_7 C19_7 1_555 1_555
C21_5 O3_3 1_555 1_555
C22_5 C21_5 1_555 1_555
C23_5 C25_5 1_555 1_555
C24_5 C22_5 1_555 1_555
H16_5 C24_5 1_555 1_555
C25_5 C24_5 1_555 1_555
H17_5 C25_5 1_555 1_555
C27_5 C22_5 1_555 1_555
O5_5 C11_7 1_555 1_555
O6_3 C20_7 1_555 1_555
C28_5 C12_7 1_555 1_555
H20_5 C28_5 1_555 1_555
C29_5 C15_7 1_555 1_555
H21_5 C29_5 1_555 1_555
C30_5 C16_7 1_555 1_555
H22_5 C30_5 1_555 1_555
C31_5 C19_7 1_555 1_555
H23_5 C31_5 1_555 1_555
H26_5 C37_5 1_555 1_555
N4_5 H28_5 1_555 1_555
H30_5 C40_5 1_555 1_555
C41_5 C40_5 1_555 1_555
C42_5 C41_5 1_555 1_555
H31_5 C42_5 1_555 1_555
C44_5 N4_5 1_555 1_555
H33_5 C44_5 1_555 1_555
H34_5 C44_5 1_555 1_555
C45_5 C9_5 1_555 1_555
C46_5 C45_5 1_555 1_555
H35_5 C46_5 1_555 1_555
C47_5 C7_5 1_555 1_555
C48_5 C47_5 1_555 1_555
H36_5 C48_5 1_555 1_555
H37_5 C48_5 1_555 1_555
H38_5 C48_5 1_555 1_555
Co2_2 O4_3 1_555 1_555
Co5_2 O2_3 1_555 1_555
Co6_2 O6_3 1_555 1_555
O9_3 Co1_2 1_555 1_555
O10_3 Co2_2 1_555 1_555
O11_3 Co2_2 1_555 1_555
O12_3 Co1_2 1_555 1_555
N5_3 Co2_2 1_555 1_555
C3_5 C6_5 1_555 1_555
C4_5 C5_5 1_555 1_555
O5_5 Co2_2 1_555 1_555
C28_5 C29_5 1_555 1_555
C30_5 C31_5 1_555 1_555
N4_5 C45_5 1_555 1_555
C41_5 C44_5 1_555 1_555
C42_5 C43_5 1_555 1_555
C46_5 C47_5 1_555 1_555
H18_5 C26_5 1_555 1_555
O7_5 C32_5 1_555 1_555
O8_5 C32_5 1_555 1_555
C32_5 C33_5 1_555 1_555
C33_5 C35_5 1_555 1_555
C35_5 H24_5 1_555 1_555
C36_5 C34_5 1_555 1_555
H25_5 C36_5 1_555 1_555
C38_5 C33_5 1_555 1_555
Co4_2 O7_5 1_555 1_555
C35_5 C36_5 1_555 1_555
O12_3 C21_6 1_555 1_555
C1_6 N5_3 1_555 1_555
H2_6 C1_6 1_555 1_555
C21_6 O11_3 1_555 1_555
C22_6 C21_6 1_555 1_555
C23_6 C25_6 1_555 1_555
C24_6 C22_6 1_555 1_555
H16_6 C24_6 1_555 1_555
C25_6 C24_6 1_555 1_555
H17_6 C25_6 1_555 1_555
C26_6 C23_6 1_555 1_555
H18_6 C26_6 1_555 1_555
C27_6 C22_6 1_555 1_555
H19_6 C27_6 1_555 1_555
O7_6 C32_6 1_555 1_555
O8_6 C32_6 1_555 1_555
C32_6 C33_6 1_555 1_555
C33_6 C35_6 1_555 1_555
C34_6 C23_6 1_555 1_555
C35_6 H24_6 1_555 1_555
C36_6 C34_6 1_555 1_555
H25_6 C36_6 1_555 1_555
C37_6 C34_6 1_555 1_555
H26_6 C37_6 1_555 1_555
C38_6 C33_6 1_555 1_555
H27_6 C38_6 1_555 1_555
Co3_2 O7_6 1_555 1_555
C26_6 C27_6 1_555 1_555
C35_6 C36_6 1_555 1_555
C37_6 C38_6 1_555 1_555
N3_5 C39_5 1_555 1_555
C39_5 H29_5 1_555 1_555
Co7_3 N3_5 1_555 1_555
N2_6 H1_6 1_555 1_555
H3_6 C2_6 1_555 1_555
C3_6 C2_6 1_555 1_555
C4_6 C3_6 1_555 1_555
H4_6 C4_6 1_555 1_555
C6_6 N2_6 1_555 1_555
H6_6 C6_6 1_555 1_555
H7_6 C6_6 1_555 1_555
C7_6 N2_6 1_555 1_555
C8_6 C7_6 1_555 1_555
H8_6 C8_6 1_555 1_555
C9_6 C8_6 1_555 1_555
C10_6 C9_6 1_555 1_555
H9_6 C10_6 1_555 1_555
H10_6 C10_6 1_555 1_555
H11_6 C10_6 1_555 1_555
C3_6 C6_6 1_555 1_555
C4_6 C5_6 1_555 1_555
N3_6 C39_6 1_555 1_555
N4_6 H28_6 1_555 1_555
C39_6 H29_6 1_555 1_555
C40_6 C39_6 1_555 1_555
H30_6 C40_6 1_555 1_555
C41_6 C40_6 1_555 1_555
C42_6 C41_6 1_555 1_555
H31_6 C42_6 1_555 1_555
C43_6 N3_6 1_555 1_555
H32_6 C43_6 1_555 1_555
C44_6 N4_6 1_555 1_555
H33_6 C44_6 1_555 1_555
H34_6 C44_6 1_555 1_555
C46_6 C45_6 1_555 1_555
H35_6 C46_6 1_555 1_555
C48_6 C47_6 1_555 1_555
H36_6 C48_6 1_555 1_555
H37_6 C48_6 1_555 1_555
H38_6 C48_6 1_555 1_555
Co7_4 N3_6 1_555 1_555
N4_6 C45_6 1_555 1_555
C41_6 C44_6 1_555 1_555
C42_6 C43_6 1_555 1_555
C46_6 C47_6 1_555 1_555
O2_4 C20_8 1_555 1_555
C11_8 C12_8 1_555 1_555
C16_8 C15_8 1_555 1_555
C17_6 C16_8 1_555 1_555
H14_6 C17_6 1_555 1_555
C18_6 C17_6 1_555 1_555
H15_6 C18_6 1_555 1_555
C19_8 C18_6 1_555 1_555
C20_8 C19_8 1_555 1_555
O5_6 C11_8 1_555 1_555
C28_6 C12_8 1_555 1_555
H20_6 C28_6 1_555 1_555
C29_6 C15_8 1_555 1_555
H21_6 C29_6 1_555 1_555
Co7_3 O2_4 1_555 1_555
O10_4 Co4_2 1_555 1_555
N5_4 Co4_2 1_555 1_555
O5_6 Co4_2 1_555 1_555
C28_6 C29_6 1_555 1_555
Co3_2 O1_6 1_555 1_555
O1_6 C11_9 1_555 1_555
N1_4 Co3_2 1_555 1_555
C1_7 N1_4 1_555 1_555
H2_7 C1_7 1_555 1_555
C11_9 C12_9 1_555 1_555
C12_9 C13_6 1_555 1_555
C13_6 H12_6 1_555 1_555
C14_6 C13_6 1_555 1_555
H13_6 C14_6 1_555 1_555
C15_9 C14_6 1_555 1_555
C16_9 C15_9 1_555 1_555
C20_9 C19_9 1_555 1_555
O6_4 C20_9 1_555 1_555
C30_6 C16_9 1_555 1_555
H22_6 C30_6 1_555 1_555
C31_6 C19_9 1_555 1_555
H23_6 C31_6 1_555 1_555
Co7_4 O6_4 1_555 1_555
O9_4 Co3_2 1_555 1_555
C30_6 C31_6 1_555 1_555
N2_7 H1_7 1_555 1_555
C1_8 N5_4 1_555 1_555
H2_8 C1_8 1_555 1_555
C2_7 C1_8 1_555 1_555
H3_7 C2_7 1_555 1_555
C3_7 C2_7 1_555 1_555
C4_7 C3_7 1_555 1_555
H4_7 C4_7 1_555 1_555
C5_7 N5_4 1_555 1_555
H5_8 C5_7 1_555 1_555
C6_7 N2_7 1_555 1_555
H6_7 C6_7 1_555 1_555
H7_7 C6_7 1_555 1_555
C7_7 N2_7 1_555 1_555
C8_7 C7_7 1_555 1_555
H8_7 C8_7 1_555 1_555
C9_7 C8_7 1_555 1_555
C10_7 C9_7 1_555 1_555
H9_7 C10_7 1_555 1_555
H10_7 C10_7 1_555 1_555
H11_7 C10_7 1_555 1_555
N4_7 H28_7 1_555 1_555
H30_7 C40_7 1_555 1_555
C41_7 C40_7 1_555 1_555
C42_7 C41_7 1_555 1_555
H31_7 C42_7 1_555 1_555
C44_7 N4_7 1_555 1_555
H33_7 C44_7 1_555 1_555
H34_7 C44_7 1_555 1_555
C45_7 C9_7 1_555 1_555
C46_7 C45_7 1_555 1_555
H35_7 C46_7 1_555 1_555
C47_7 C7_7 1_555 1_555
C48_7 C47_7 1_555 1_555
H36_7 C48_7 1_555 1_555
H37_7 C48_7 1_555 1_555
H38_7 C48_7 1_555 1_555
C3_7 C6_7 1_555 1_555
C4_7 C5_7 1_555 1_555
N4_7 C45_7 1_555 1_555
C41_7 C44_7 1_555 1_555
C42_7 C43_7 1_555 1_555
C46_7 C47_7 1_555 1_555
N2_8 H1_8 1_555 1_555
H3_8 C2_8 1_555 1_555
C3_8 C2_8 1_555 1_555
C4_8 C3_8 1_555 1_555
H4_8 C4_8 1_555 1_555
C6_8 N2_8 1_555 1_555
H6_8 C6_8 1_555 1_555
H7_8 C6_8 1_555 1_555
C7_8 N2_8 1_555 1_555
C8_8 C7_8 1_555 1_555
H8_8 C8_8 1_555 1_555
C9_8 C8_8 1_555 1_555
C10_8 C9_8 1_555 1_555
H9_8 C10_8 1_555 1_555
H10_8 C10_8 1_555 1_555
H11_8 C10_8 1_555 1_555
C3_8 C6_8 1_555 1_555
C4_8 C5_8 1_555 1_555
N3_7 C39_7 1_555 1_555
N4_8 H28_8 1_555 1_555
C39_7 H29_7 1_555 1_555
C40_8 C39_7 1_555 1_555
H30_8 C40_8 1_555 1_555
C41_8 C40_8 1_555 1_555
C42_8 C41_8 1_555 1_555
H31_8 C42_8 1_555 1_555
C43_8 N3_7 1_555 1_555
H32_7 C43_8 1_555 1_555
C44_8 N4_8 1_555 1_555
H33_8 C44_8 1_555 1_555
H34_8 C44_8 1_555 1_555
C46_8 C45_8 1_555 1_555
H35_8 C46_8 1_555 1_555
C48_8 C47_8 1_555 1_555
H36_8 C48_8 1_555 1_555
H37_8 C48_8 1_555 1_555
H38_8 C48_8 1_555 1_555
Co5_2 N3_7 1_555 1_555
N4_8 C45_8 1_555 1_555
C41_8 C44_8 1_555 1_555
C42_8 C43_8 1_555 1_555
C46_8 C47_8 1_555 1_555
N3_8 C39_8 1_555 1_555
C39_8 H29_8 1_555 1_555
Co6_2 N3_8 1_555 1_555
O9_3 C20_10 1_555 1_555
C11_10 C12_10 1_555 1_555
C12_10 C13_7 1_555 1_555
C13_7 H12_7 1_555 1_555
C14_7 C13_7 1_555 1_555
H13_7 C14_7 1_555 1_555
C15_10 C14_7 1_555 1_555
C16_10 C15_10 1_555 1_555
C17_7 C16_10 1_555 1_555
H14_7 C17_7 1_555 1_555
C18_7 C17_7 1_555 1_555
H15_7 C18_7 1_555 1_555
C19_10 C18_7 1_555 1_555
C20_10 C19_10 1_555 1_555
O10_3 C20_10 1_555 1_555
C28_7 C12_10 1_555 1_555
H20_7 C28_7 1_555 1_555
C29_7 C15_10 1_555 1_555
H21_7 C29_7 1_555 1_555
C30_7 C16_10 1_555 1_555
H22_7 C30_7 1_555 1_555
C31_7 C19_10 1_555 1_555
H23_7 C31_7 1_555 1_555
C28_7 C29_7 1_555 1_555
C30_7 C31_7 1_555 1_555
Co5_2 O1_7 1_555 1_555
O3_4 Co5_2 1_555 1_555
O4_4 C21_7 1_555 1_555
C21_7 O3_4 1_555 1_555
C22_7 C21_7 1_555 1_555
C23_7 C25_7 1_555 1_555
C24_7 C22_7 1_555 1_555
H16_7 C24_7 1_555 1_555
C25_7 C24_7 1_555 1_555
H17_7 C25_7 1_555 1_555
C27_7 C22_7 1_555 1_555
H26_7 C37_7 1_555 1_555
Co6_2 O4_4 1_555 1_555
O11_4 Co6_2 1_555 1_555
O12_4 Co5_2 1_555 1_555
O5_7 Co6_2 1_555 1_555
H18_7 C26_7 1_555 1_555
O7_7 C32_7 1_555 1_555
O8_7 C32_7 1_555 1_555
C32_7 C33_7 1_555 1_555
C33_7 C35_7 1_555 1_555
C35_7 H24_7 1_555 1_555
C36_7 C34_7 1_555 1_555
H25_7 C36_7 1_555 1_555
C38_7 C33_7 1_555 1_555
Co7_4 O7_7 1_555 1_555
C35_7 C36_7 1_555 1_555
O12_4 C21_8 1_555 1_555
C21_8 O11_4 1_555 1_555
C22_8 C21_8 1_555 1_555
C23_8 C25_8 1_555 1_555
C24_8 C22_8 1_555 1_555
H16_8 C24_8 1_555 1_555
C25_8 C24_8 1_555 1_555
H17_8 C25_8 1_555 1_555
C26_8 C23_8 1_555 1_555
H18_8 C26_8 1_555 1_555
C27_8 C22_8 1_555 1_555
H19_8 C27_8 1_555 1_555
O7_8 C32_8 1_555 1_555
O8_8 C32_8 1_555 1_555
C32_8 C33_8 1_555 1_555
C33_8 C35_8 1_555 1_555
C34_8 C23_8 1_555 1_555
C35_8 H24_8 1_555 1_555
C36_8 C34_8 1_555 1_555
H25_8 C36_8 1_555 1_555
C37_8 C34_8 1_555 1_555
H26_8 C37_8 1_555 1_555
C38_8 C33_8 1_555 1_555
H27_8 C38_8 1_555 1_555
Co7_3 O7_8 1_555 1_555
C26_8 C27_8 1_555 1_555
C35_8 C36_8 1_555 1_555
C37_8 C38_8 1_555 1_555
C11_11 C12_11 1_555 1_555
C12_11 C13_8 1_555 1_555
C13_8 H12_8 1_555 1_555
C14_8 C13_8 1_555 1_555
H13_8 C14_8 1_555 1_555
C15_11 C14_8 1_555 1_555
C16_11 C15_11 1_555 1_555
C20_11 C19_11 1_555 1_555
O10_4 C20_11 1_555 1_555
C30_8 C16_11 1_555 1_555
H22_8 C30_8 1_555 1_555
C31_8 C19_11 1_555 1_555
H23_8 C31_8 1_555 1_555
C30_8 C31_8 1_555 1_555
Co7_3 O1_8 1_555 1_555
O9_4 C20_12 1_555 1_555
C11_12 C12_12 1_555 1_555
C16_12 C15_12 1_555 1_555
C17_8 C16_12 1_555 1_555
H14_8 C17_8 1_555 1_555
C18_8 C17_8 1_555 1_555
H15_8 C18_8 1_555 1_555
C19_12 C18_8 1_555 1_555
C20_12 C19_12 1_555 1_555
C28_8 C12_12 1_555 1_555
H20_8 C28_8 1_555 1_555
C29_8 C15_12 1_555 1_555
H21_8 C29_8 1_555 1_555
C28_8 C29_8 1_555 1_555
O5_8 Co7_4 1_555 1_555

#END
