
###############################################################################
#
# This file contains modified crystal structure data generated from the
# MOF subset of the Cambridge Structural Database (CSD) v543 
# hosted by the Cambridge Crystallographic Data Centre (CCDC).
#
# This work is licensed under the Creative Commons
# Attribution-NonCommercial-ShareAlike 4.0 International License.
# To view a copy of this license, visit
# http://creativecommons.org/licenses/by-nc-sa/4.0/
# or send a letter to
# Creative Commons, PO Box 1866, Mountain View, CA 94042, USA.
#
# CIF created using the CSD Python API on 29 September 2022
# The structure has been converted into the P1 space group
# The structure has a 3D framework
# The original CSD entry MIVWEU is in the tetragonal crystal system
# The framework has been calculated to contain at least 10.0% void space
# The void calculation uses a probe of radius 1.32A, grid spacing 0.4
#
###############################################################################

data_MIVWEU
_chemical_formula_moiety         '(C2400 H2884 Ag460 N960)n'
_symmetry_cell_setting           triclinic
_symmetry_space_group_name_H-M   'P 1'
_symmetry_Int_Tables_number      1
_space_group_name_Hall           'P 1'
loop_
_symmetry_equiv_pos_site_id
_symmetry_equiv_pos_as_xyz
1 x,y,z
_cell_length_a                   61.7239(11)
_cell_length_b                   61.7239(11)
_cell_length_c                   26.9189(5)
_cell_angle_alpha                90
_cell_angle_beta                 90
_cell_angle_gamma                90
_cell_volume                     102557
loop_
_atom_site_label
_atom_site_type_symbol
_atom_site_fract_x
_atom_site_fract_y
_atom_site_fract_z
Ag1 Ag 0.707653(11) 0.273931(9) 0.76873(2)
Ag2 Ag 0.736148(10) 0.252487(9) 0.67432(2)
Ag3 Ag 0.465140(11) 0.012000(9) 0.00823(2)
Ag4 Ag 0.320090(8) 0.114570(8) 0.493360(19)
Ag5 Ag 0.267810(8) 0.100100(8) 0.50018(2)
Ag7 Ag 0.653270(8) 0.059460(9) 0.38001(2)
Ag8 Ag 0.688480(9) 0.039050(9) 0.29870(2)
Ag9 Ag 0.676230(9) 0.094050(9) 0.29735(2)
Ag10 Ag 0.220640(8) 0.389790(8) 0.40983(2)
Ag11 Ag 0.234880(8) 0.428850(8) 0.485490(19)
Ag12 Ag 0.258170(8) 0.377880(9) 0.50207(2)
Ag13 Ag 0.690880(9) 0.371740(8) 0.01693(2)
Ag15 Ag 0.666380(8) 0.420740(8) 0.01736(2)
Ag21 Ag 0.399050(8) 0.279890(8) 0.07030(2)
Ag22 Ag 0.583250(9) 0.315730(9) 0.21691(2)
Ag23 Ag 0.532600(9) 0.298910(9) 0.21504(2)
Ag24 Ag 0.549820(8) 0.331050(9) 0.11821(2)
Ag25 Ag 0.587730(9) 0.200630(9) 0.44362(2)
Ag26 Ag 0.617070(9) 0.191550(10) 0.54222(2)
Ag27 Ag 0.597650(9) 0.243410(9) 0.52404(2)
Ag28 Ag 0.282530(8) 0.214960(8) 0.247430(19)
Ag29 Ag 0.273140(8) 0.268280(8) 0.249050(19)
Ag30 Ag 0.254750(8) 0.237490(8) 0.345570(19)
N1 N 0.69084(10) 0.25704(10) 0.7142(2)
N2 N 0.70326(10) 0.24748(10) 0.6785(2)
N7 N 0.29826(9) 0.12979(8) 0.4472(2)
N8 N 0.27662(9) 0.12400(9) 0.4501(2)
N13 N 0.66172(9) 0.02721(9) 0.3861(2)
N14 N 0.67589(9) 0.01865(9) 0.3517(2)
N17 N 0.65504(9) 0.10655(10) 0.3494(2)
N18 N 0.64688(9) 0.09220(9) 0.3835(2)
N19 N 0.20543(8) 0.41930(9) 0.4018(2)
N20 N 0.21221(9) 0.43586(9) 0.4318(2)
N21 N 0.17324(9) 0.49206(9) 0.2888(2)
N22 N 0.15369(9) 0.48229(9) 0.2971(2)
N23 N 0.24940(9) 0.35404(9) 0.4506(2)
N24 N 0.23480(9) 0.35971(9) 0.4152(2)
N29 N 0.65292(8) 0.39592(8) 0.0609(2)
N30 N 0.66525(9) 0.37775(9) 0.0645(2)
N39 N 0.44283(8) 0.28426(9) 0.0282(2)
N40 N 0.43039(9) 0.29155(9) 0.0663(2)
N41 N 0.36862(9) 0.26638(9) 0.0766(2)
N42 N 0.36054(9) 0.25266(9) 0.0415(2)
N43 N 0.57286(9) 0.29596(9) 0.2744(2)
N44 N 0.55197(9) 0.28835(9) 0.2715(2)
N45 N 0.51222(9) 0.30693(10) 0.1582(2)
N46 N 0.51814(9) 0.32016(9) 0.1195(2)
N47 N 0.58206(9) 0.34055(9) 0.1191(2)
N48 N 0.59422(9) 0.33549(9) 0.1603(2)
N49 N 0.60362(9) 0.17111(10) 0.4481(2)
N50 N 0.61601(9) 0.16747(10) 0.4892(2)
N51 N 0.62521(9) 0.21647(10) 0.5907(2)
N52 N 0.61908(9) 0.23784(10) 0.5819(2)
N53 N 0.58043(9) 0.24885(9) 0.4591(2)
N54 N 0.57592(9) 0.23155(9) 0.4288(2)
N55 N 0.29614(8) 0.23376(8) 0.1915(2)
N56 N 0.29146(8) 0.25553(8) 0.1915(2)
N57 N 0.25909(8) 0.28312(8) 0.3101(2)
N58 N 0.25252(9) 0.27092(9) 0.3494(2)
N59 N 0.26105(9) 0.20452(9) 0.3457(2)
N60 N 0.27368(8) 0.19615(9) 0.3082(2)
C1 C 0.65225(14) 0.26489(14) 0.7335(3)
C2 C 0.66998(12) 0.25539(12) 0.7017(3)
C3 C 0.66822(12) 0.24417(12) 0.6569(3)
C4 C 0.68959(13) 0.23957(12) 0.6436(3)
C5 C 0.69819(13) 0.22863(14) 0.5984(3)
C16 C 0.32161(11) 0.15744(12) 0.4090(3)
C17 C 0.29979(11) 0.14730(10) 0.4185(2)
C18 C 0.27954(10) 0.15347(10) 0.4017(2)
C19 C 0.26523(11) 0.13853(10) 0.4230(2)
C20 C 0.24123(11) 0.13595(12) 0.4172(3)
C31 C 0.64441(14) 0.01764(16) 0.4649(3)
C32 C 0.65914(11) 0.01263(12) 0.4220(3)
C41 C 0.65591(12) 0.14575(14) 0.3340(3)
C42 C 0.64857(11) 0.12643(11) 0.3625(3)
C43 C 0.63611(11) 0.12521(11) 0.4052(3)
C44 C 0.63570(11) 0.10344(11) 0.4179(3)
C45 C 0.62497(12) 0.09223(13) 0.4600(3)
C46 C 0.18175(12) 0.41265(13) 0.3298(3)
C47 C 0.19190(11) 0.42729(10) 0.3679(2)
C48 C 0.18945(10) 0.44965(10) 0.3753(2)
C49 C 0.20283(10) 0.45409(10) 0.4164(2)
C50 C 0.20662(12) 0.47485(13) 0.4429(3)
C51 C 0.21141(11) 0.48822(14) 0.3138(3)
C52 C 0.18831(11) 0.48198(11) 0.3165(2)
C53 C 0.17833(10) 0.46527(10) 0.3436(2)
C54 C 0.15655(11) 0.46636(10) 0.3296(3)
C55 C 0.13809(12) 0.45266(13) 0.3463(3)
C56 C 0.27286(13) 0.32332(13) 0.4733(3)
C57 C 0.25639(10) 0.33405(11) 0.4404(3)
C58 C 0.24651(10) 0.32627(10) 0.3977(2)
C59 C 0.23292(10) 0.34327(11) 0.3833(3)
C60 C 0.21811(12) 0.34503(13) 0.3395(3)
C71 C 0.61571(11) 0.40826(11) 0.0794(3)
C72 C 0.63293(11) 0.39199(11) 0.0779(3)
C73 C 0.63220(10) 0.36990(10) 0.0923(3)
C74 C 0.65256(11) 0.36202(12) 0.0833(3)
C75 C 0.66145(11) 0.33949(12) 0.0896(3)
C96 C 0.48085(12) 0.28445(14) 0.0009(3)
C97 C 0.46319(11) 0.29065(11) 0.0361(3)
C98 C 0.46419(11) 0.30210(11) 0.0808(3)
C99 C 0.44312(11) 0.30222(11) 0.0987(3)
C100 C 0.43393(12) 0.31252(14) 0.1444(3)
C101 C 0.35893(12) 0.28148(12) 0.1584(3)
C102 C 0.35435(10) 0.26770(11) 0.1140(2)
C103 C 0.33665(10) 0.25434(11) 0.1038(3)
C104 C 0.34119(11) 0.24520(11) 0.0574(3)
C105 C 0.32800(11) 0.23064(12) 0.0258(3)
C106 C 0.60514(11) 0.29234(13) 0.3271(3)
C107 C 0.58185(11) 0.28802(11) 0.3155(3)
C108 C 0.56659(11) 0.27515(11) 0.3399(3)
C109 C 0.54811(11) 0.27593(11) 0.3111(3)
C110 C 0.52640(11) 0.26599(12) 0.3184(3)
C111 C 0.48149(13) 0.28479(14) 0.1862(3)
C112 C 0.49196(11) 0.30013(11) 0.1499(3)
C113 C 0.48448(11) 0.30864(11) 0.1053(3)
C114 C 0.50158(11) 0.32120(11) 0.0877(3)
C115 C 0.50327(13) 0.33480(14) 0.0423(3)
C116 C 0.58511(12) 0.36053(13) 0.0403(3)
C117 C 0.59381(11) 0.35366(11) 0.0905(3)
C118 C 0.61368(11) 0.35746(10) 0.1127(3)
C119 C 0.61321(11) 0.34537(11) 0.1560(3)
C120 C 0.63010(11) 0.34251(12) 0.1958(3)
C121 C 0.59764(14) 0.15604(14) 0.3641(4)
C122 C 0.60893(11) 0.15663(11) 0.4128(3)
C123 C 0.62551(11) 0.14311(10) 0.4313(3)
C124 C 0.62931(11) 0.15084(11) 0.4791(3)
C125 C 0.64508(12) 0.14280(13) 0.5170(3)
C126 C 0.65280(13) 0.19569(15) 0.6357(4)
C127 C 0.64303(12) 0.21653(12) 0.6188(3)
C128 C 0.64874(12) 0.23765(12) 0.6298(3)
C129 C 0.63314(11) 0.25030(12) 0.6064(3)
C130 C 0.63067(12) 0.27474(15) 0.6061(3)
C131 C 0.58030(11) 0.28882(14) 0.4545(3)
C132 C 0.57722(11) 0.26693(11) 0.4324(3)
C133 C 0.57063(11) 0.26143(11) 0.3841(3)
C134 C 0.56980(11) 0.23889(10) 0.3841(3)
C135 C 0.56375(12) 0.22371(13) 0.3436(3)
C136 C 0.32082(11) 0.20849(12) 0.1495(3)
C137 C 0.31225(10) 0.23036(10) 0.1589(3)
C138 C 0.31828(10) 0.25009(10) 0.1380(2)
C139 C 0.30455(10) 0.26562(10) 0.1594(2)
C140 C 0.30272(11) 0.28925(12) 0.1504(3)
C141 C 0.26453(11) 0.32140(12) 0.2862(3)
C142 C 0.25784(11) 0.30399(11) 0.3220(3)
C143 C 0.25028(10) 0.30590(10) 0.3707(2)
C144 C 0.24718(10) 0.28478(10) 0.3863(2)
C145 C 0.23819(12) 0.27646(13) 0.4341(3)
C146 C 0.24913(12) 0.19476(13) 0.4309(3)
C147 C 0.26121(10) 0.19034(10) 0.3838(2)
C148 C 0.27394(10) 0.17229(10) 0.3711(2)
C149 C 0.28151(10) 0.17693(11) 0.3234(2)
C150 C 0.29591(11) 0.16393(13) 0.2906(3)
H1 H 0.6586 0.2713 0.7634
H2 H 0.6421 0.2534 0.7430
H3 H 0.6446 0.2761 0.7147
H4 H 0.7140 0.2274 0.6009
H5 H 0.6944 0.2371 0.5690
H6 H 0.6918 0.2141 0.5957
H19 H 0.3312 0.1546 0.4373
H20 H 0.3199 0.1731 0.4047
H21 H 0.3279 0.1512 0.3788
H22 H 0.2379 0.1208 0.4092
H23 H 0.2361 0.1454 0.3904
H24 H 0.2340 0.1400 0.4483
H37 H 0.6441 0.0333 0.4705
H38 H 0.6297 0.0126 0.4573
H39 H 0.6497 0.0103 0.4948
H49 H 0.6648 0.1411 0.3058
H50 H 0.6433 0.1537 0.3218
H51 H 0.6645 0.1552 0.3557
H52 H 0.6248 0.0766 0.4537
H53 H 0.6330 0.0951 0.4907
H54 H 0.6101 0.0975 0.4634
H55 H 0.1926 0.4024 0.3174
H56 H 0.1698 0.4046 0.3450
H57 H 0.1762 0.4214 0.3021
H58 H 0.2055 0.4725 0.4788
H59 H 0.2211 0.4803 0.4348
H60 H 0.1957 0.4855 0.4325
H61 H 0.2126 0.5040 0.3120
H62 H 0.2190 0.4830 0.3436
H63 H 0.2180 0.4817 0.2842
H64 H 0.1249 0.4615 0.3479
H65 H 0.1360 0.4408 0.3227
H66 H 0.1412 0.4467 0.3792
H67 H 0.2833 0.3341 0.4849
H68 H 0.2655 0.3168 0.5019
H69 H 0.2805 0.3121 0.4545
H70 H 0.2046 0.3520 0.3496
H71 H 0.2251 0.3537 0.3135
H72 H 0.2150 0.3305 0.3266
H73 H 0.7148 0.3243 0.0137
H84 H 0.6591 0.4829 0.0024
H85 H 0.6217 0.4224 0.0703
H86 H 0.6097 0.4090 0.1131
H87 H 0.6043 0.4043 0.0559
H88 H 0.6746 0.3379 0.0695
H89 H 0.6506 0.3289 0.0788
H90 H 0.6650 0.3370 0.1247
H117 H 0.4946 0.2832 0.0191
H118 H 0.4197 0.3187 0.1368
H119 H 0.4324 0.3016 0.1705
H120 H 0.4437 0.3240 0.1558
H121 H 0.3746 0.2821 0.1640
H122 H 0.3533 0.2961 0.1527
H123 H 0.3519 0.2752 0.1877
H125 H 0.3327 0.2156 0.0308
H126 H 0.3127 0.2320 0.0349
H127 H 0.6090 0.3070 0.3162
H128 H 0.6075 0.2911 0.3630
H129 H 0.6142 0.2818 0.3097
H130 H 0.5151 0.2768 0.3116
H131 H 0.5247 0.2537 0.2956
H132 H 0.5250 0.2609 0.3527
H133 H 0.4922 0.2742 0.1977
H134 H 0.4759 0.2930 0.2147
H135 H 0.4695 0.2772 0.1699
H136 H 0.5109 0.3483 0.0503
H137 H 0.5113 0.3269 0.0167
H138 H 0.4887 0.3382 0.0300
H139 H 0.5698 0.3565 0.0378
H140 H 0.5866 0.3763 0.0366
H141 H 0.5933 0.3532 0.0140
H142 H 0.6234 0.3444 0.2285
H143 H 0.6363 0.3279 0.1934
H144 H 0.6416 0.3533 0.1914
H145 H 0.5833 0.1626 0.3674
H146 H 0.5961 0.1410 0.3531
H147 H 0.6061 0.1642 0.3395
H148 H 0.6502 0.1550 0.5372
H149 H 0.6574 0.1360 0.5003
H150 H 0.6379 0.1322 0.5385
H151 H 0.6413 0.1849 0.6403
H152 H 0.6604 0.1980 0.6673
H153 H 0.6631 0.1905 0.6107
H154 H 0.6241 0.2793 0.5747
H155 H 0.6450 0.2815 0.6097
H156 H 0.6214 0.2792 0.6338
H157 H 0.5735 0.2893 0.4875
H158 H 0.5736 0.2997 0.4331
H159 H 0.5958 0.2919 0.4577
H160 H 0.5723 0.2104 0.3467
H161 H 0.5667 0.2305 0.3114
H162 H 0.5483 0.2202 0.3461
H163 H 0.3187 0.1995 0.1791
H164 H 0.3363 0.2094 0.1420
H165 H 0.3132 0.2020 0.1213
H166 H 0.2875 0.2937 0.1535
H167 H 0.3079 0.2926 0.1169
H168 H 0.3115 0.2971 0.1749
H169 H 0.2770 0.3164 0.2667
H170 H 0.2685 0.3345 0.3047
H171 H 0.2524 0.3247 0.2639
H172 H 0.2305 0.2628 0.4281
H173 H 0.2281 0.2871 0.4480
H174 H 0.2500 0.2740 0.4577
H175 H 0.2460 0.2103 0.4334
H176 H 0.2579 0.1902 0.4593
H177 H 0.2355 0.1866 0.4308
H178 H 0.2944 0.1689 0.2562
H179 H 0.2919 0.1486 0.2928
H180 H 0.3110 0.1657 0.3013
Ag39 Ag 0.178850(8) 0.515120(8) 0.235490(19)
Ag40 Ag 0.127880(9) 0.491830(8) 0.25207(2)
N61 N 0.76840(9) 0.25981(10) 0.6637(2)
N63 N 0.72304(11) 0.29445(10) 0.8188(2)
N64 N 0.25690(9) 0.08054(9) 0.5578(2)
N66 N 0.34218(8) 0.10327(9) 0.5448(2)
N67 N 0.70316(9) 0.05939(9) 0.2488(2)
N68 N 0.69898(9) 0.08142(9) 0.2488(2)
N69 N 0.25794(9) 0.42324(9) 0.5388(2)
N70 N 0.26771(9) 0.40369(9) 0.5471(2)
Ag6 Ag 0.669750(8) 0.553670(9) 0.83589(2)
Ag14 Ag 0.708270(8) 0.406270(9) 0.93426(2)
Ag16 Ag 0.424160(9) 0.147860(9) 0.72553(2)
Ag17 Ag 0.459610(9) 0.132630(9) 0.81229(2)
Ag18 Ag 0.443450(9) 0.096390(8) 0.72178(2)
Ag19 Ag 0.379310(8) 0.243980(8) 0.98020(2)
Ag20 Ag 0.430030(9) 0.264020(9) 0.97506(2)
N3 N 0.49019(10) 0.01840(9) 0.9137(2)
N4 N 0.47696(10) 0.02868(10) 0.9467(2)
N5 N 0.74469(11) 0.29899(10) 0.8157(2)
N9 N 0.66946(9) 0.50690(9) 0.8078(2)
N10 N 0.67533(9) 0.52069(9) 0.8453(2)
N11 N 0.33577(8) 0.08976(9) 0.5824(2)
N25 N 0.71180(9) 0.36065(9) 0.9632(2)
N26 N 0.71919(9) 0.37479(9) 0.9278(2)
N27 N 0.69471(9) 0.43673(9) 0.9346(2)
N28 N 0.67857(8) 0.44326(9) 0.9661(2)
N31 N 0.42989(9) 0.16828(9) 0.7852(2)
N32 N 0.44487(9) 0.16244(9) 0.8202(2)
N33 N 0.47044(9) 0.10095(9) 0.8138(2)
N34 N 0.46312(9) 0.08592(9) 0.7799(2)
N35 N 0.41956(9) 0.10552(9) 0.6709(2)
N36 N 0.41324(9) 0.12653(9) 0.6711(2)
N37 N 0.40036(9) 0.23206(9) 0.9262(2)
N38 N 0.42106(9) 0.24003(9) 0.9263(2)
C6 C 0.50681(14) 0.02499(12) 0.8318(3)
C7 C 0.49241(12) 0.03103(11) 0.8740(3)
C8 C 0.48017(12) 0.05026(11) 0.8806(3)
C9 C 0.47079(12) 0.04786(12) 0.9278(3)
C10 C 0.45663(14) 0.06254(14) 0.9559(3)
C11 C 0.77104(14) 0.32458(14) 0.8508(3)
C12 C 0.74846(13) 0.31599(12) 0.8457(3)
C13 C 0.72947(12) 0.32255(12) 0.8679(3)
C14 C 0.71365(13) 0.30838(12) 0.8503(3)
C15 C 0.69000(13) 0.30740(14) 0.8603(4)
C21 C 0.66503(12) 0.46772(13) 0.7938(3)
C22 C 0.67080(11) 0.48639(11) 0.8256(3)
C23 C 0.67784(11) 0.48734(11) 0.8747(3)
C24 C 0.68041(10) 0.50895(10) 0.8856(3)
C25 C 0.68800(12) 0.51889(13) 0.9328(3)
C26 C 0.34926(12) 0.07552(13) 0.6615(3)
C27 C 0.35168(10) 0.08901(11) 0.6161(2)
C28 C 0.36862(10) 0.10245(11) 0.6011(3)
C29 C 0.36209(10) 0.11112(10) 0.5556(3)
C30 C 0.37348(11) 0.12611(12) 0.5215(3)
C61 C 0.70992(12) 0.32159(14) 0.9796(3)
C62 C 0.71553(11) 0.34039(12) 0.9478(3)
C63 C 0.72532(11) 0.34112(12) 0.9013(3)
C64 C 0.72756(12) 0.36316(12) 0.8900(3)
C65 C 0.73694(13) 0.37386(14) 0.8452(3)
C66 C 0.71331(13) 0.44961(13) 0.8586(3)
C67 C 0.69659(11) 0.45174(11) 0.8988(3)
C68 C 0.68160(10) 0.46838(10) 0.9066(2)
C69 C 0.67090(10) 0.46200(11) 0.9498(3)
C70 C 0.65291(11) 0.47341(12) 0.9770(3)
C76 C 0.40276(12) 0.19714(13) 0.7708(3)
C77 C 0.41941(11) 0.18622(11) 0.8013(3)
C78 C 0.42783(11) 0.19196(12) 0.8476(3)
C79 C 0.44373(11) 0.17671(11) 0.8581(3)
C80 C 0.45806(13) 0.17412(13) 0.9028(3)
C81 C 0.48854(14) 0.10205(13) 0.8958(3)
C82 C 0.47850(11) 0.08997(11) 0.8527(2)
C83 C 0.47615(12) 0.06799(11) 0.8455(3)
C84 C 0.46636(12) 0.06620(11) 0.7987(3)
C85 C 0.46046(12) 0.04649(14) 0.7696(3)
C86 C 0.40734(12) 0.07032(12) 0.6377(3)
C87 C 0.40490(11) 0.09387(10) 0.6456(2)
C88 C 0.38866(11) 0.10776(10) 0.6290(2)
C89 C 0.39457(11) 0.12820(11) 0.6457(3)
C90 C 0.38329(12) 0.14956(13) 0.6391(3)
C91 C 0.37961(13) 0.20161(13) 0.8910(4)
C92 C 0.40004(12) 0.21400(11) 0.8976(3)
C93 C 0.42092(12) 0.21026(11) 0.8797(3)
C94 C 0.43331(11) 0.22701(11) 0.8979(3)
C95 C 0.45713(12) 0.23149(13) 0.8914(3)
H7 H 0.5211 0.0209 0.8446
H8 H 0.5083 0.0374 0.8092
H9 H 0.5005 0.0127 0.8138
H10 H 0.4470 0.0540 0.9772
H11 H 0.4480 0.0712 0.9327
H12 H 0.4655 0.0722 0.9764
H13 H 0.7814 0.3137 0.8388
H14 H 0.7740 0.3278 0.8858
H15 H 0.7725 0.3379 0.8311
H16 H 0.6827 0.2999 0.8329
H17 H 0.6842 0.3221 0.8633
H18 H 0.6874 0.2995 0.8913
H25 H 0.6555 0.4726 0.7670
H26 H 0.6576 0.4568 0.8138
H27 H 0.6782 0.4614 0.7796
H28 H 0.6879 0.5347 0.9296
H29 H 0.7028 0.5139 0.9400
H30 H 0.6783 0.5146 0.9600
H31 H 0.3341 0.0756 0.6720
H32 H 0.3583 0.0815 0.6881
H33 H 0.3538 0.0606 0.6542
H34 H 0.3691 0.1230 0.4872
H35 H 0.3892 0.1241 0.5248
H36 H 0.3697 0.1411 0.5298
H74 H 0.7170 0.3086 0.9667
H75 H 0.6942 0.3195 0.9794
H76 H 0.7284 0.3868 0.8370
H77 H 0.7366 0.3637 0.8171
H78 H 0.7519 0.3781 0.8520
H79 H 0.7259 0.4417 0.8714
H80 H 0.7178 0.4641 0.8475
H81 H 0.7071 0.4416 0.8305
H82 H 0.6435 0.4627 0.9928
H83 H 0.6444 0.4821 0.9534
H91 H 0.4079 0.1984 0.7365
H92 H 0.4000 0.2116 0.7842
H93 H 0.3894 0.1886 0.7714
H94 H 0.4606 0.1587 0.9090
H95 H 0.4510 0.1807 0.9318
H96 H 0.4719 0.1813 0.8967
H97 H 0.4940 0.1161 0.8842
H98 H 0.5005 0.0935 0.9095
H99 H 0.4776 0.1044 0.9216
H100 H 0.4514 0.0507 0.7412
H101 H 0.4524 0.0364 0.7909
H102 H 0.4737 0.0394 0.7576
H103 H 0.4200 0.0651 0.6561
H104 H 0.4093 0.0674 0.6022
H105 H 0.3943 0.0628 0.6495
H106 H 0.3869 0.1592 0.6668
H107 H 0.3676 0.1472 0.6382
H108 H 0.3880 0.1562 0.6078
H109 H 0.3713 0.2019 0.9220
H110 H 0.3711 0.2082 0.8643
H111 H 0.3830 0.1866 0.8825
H112 H 0.4593 0.2470 0.8859
H113 H 0.4650 0.2270 0.9213
H114 H 0.4626 0.2234 0.8627
H115 H 0.4774 0.2705 0.9854
H116 H 0.4822 0.2956 0.9751
H124 H 0.3299 0.2346 0.9909
Ag33 Ag 0.762000(9) 0.284860(11) 0.75823(2)
Ag35 Ag 0.649900(8) 0.517810(8) 0.75018(2)
Ag36 Ag 0.303670(9) 0.080250(8) 0.58589(2)
N65 N 0.66024(9) 0.58577(8) 0.8324(2)
N15 N 0.69061(9) 0.95316(9) 0.4988(2)
N16 N 0.66858(9) 0.94898(9) 0.4988(2)
C33 C 0.67139(10) 0.99451(11) 0.4122(3)
C34 C 0.68164(11) 0.99880(11) 0.3674(3)
C35 C 0.69655(12) 0.98529(14) 0.3372(3)
C36 C 0.71662(12) 0.97793(13) 0.4593(3)
C37 C 0.69427(12) 0.96923(11) 0.4666(3)
C38 C 0.67466(12) 0.97581(11) 0.4453(3)
C39 C 0.65918(11) 0.96237(11) 0.4673(3)
C40 C 0.63518(12) 0.96106(13) 0.4585(3)
H40 H 0.6937 0.9877 0.3018
H41 H 0.7116 0.9893 0.3447
H42 H 0.6943 0.9700 0.3452
H43 H 0.7249 0.9762 0.4901
H44 H 0.7238 0.9700 0.4324
H45 H 0.7158 0.9933 0.4507
H46 H 0.6309 0.9458 0.4554
H47 H 0.6275 0.9677 0.4866
H48 H 0.6315 0.9688 0.4279
Ag37 Ag 0.710950(9) 0.938480(9) 0.54870(2)
Ag38 Ag 0.655950(9) 0.926230(9) 0.54735(2)
N62 N 0.45101(10) 0.99469(11) 0.0657(2)
Ag32 Ag 0.497513(9) 0.986148(10) 0.92432(2)
C11_2 C 0.42542(14) 0.02104(14) 0.1008(3)
H13_2 H 0.4363 0.0314 0.0888
H14_2 H 0.4222 0.0240 0.1358
H15_2 H 0.4121 0.0225 0.0811
H78_2 H 0.3719 0.0019 0.1020
Ag1_2 Ag 0.476069(9) 0.957653(11) 0.01873(2)
H1_2 H 0.4787 0.9086 0.0134
N63_2 N 0.45555(10) 0.97304(11) 0.0688(2)
Ag3_2 Ag 0.738000(9) 0.715140(11) 0.25823(2)
Ag4_2 Ag 0.635430(8) 0.570090(8) 0.743360(19)
Ag6_2 Ag 0.196330(9) 0.919750(8) 0.08589(2)
Ag7_2 Ag 0.690540(9) 0.903270(8) 0.63001(2)
Ag10_2 Ag 0.360210(8) 0.470640(8) 0.65983(2)
Ag11_2 Ag 0.321150(8) 0.484880(8) 0.735490(19)
Ag12_2 Ag 0.372120(9) 0.508170(8) 0.75207(2)
Ag13_2 Ag 0.378260(8) 0.940880(9) 0.26693(2)
Ag14_2 Ag 0.343730(9) 0.958270(8) 0.18426(2)
Ag15_2 Ag 0.329260(8) 0.916380(8) 0.26736(2)
Ag17_2 Ag 0.617370(9) 0.709610(9) 0.06229(2)
Ag19_2 Ag 0.506020(8) 0.629310(8) 0.23020(2)
Ag20_2 Ag 0.485980(9) 0.680030(9) 0.22506(2)
Ag21_2 Ag 0.470110(8) 0.649050(8) 0.32030(2)
Ag22_2 Ag 0.434270(9) 0.833250(9) 0.46691(2)
Ag23_2 Ag 0.451090(9) 0.782600(9) 0.46504(2)
Ag24_2 Ag 0.418950(9) 0.799820(8) 0.36821(2)
Ag25_2 Ag 0.549370(9) 0.837730(9) 0.69362(2)
Ag26_2 Ag 0.558450(10) 0.867070(9) 0.79222(2)
Ag27_2 Ag 0.506590(9) 0.847650(9) 0.77404(2)
Ag28_2 Ag 0.535040(8) 0.532530(8) 0.497430(19)
Ag29_2 Ag 0.481720(8) 0.523140(8) 0.499050(19)
Ag30_2 Ag 0.512510(8) 0.504750(8) 0.595570(19)
N1_2 N 0.49296(10) 0.94084(10) 0.9642(2)
N2_2 N 0.50252(10) 0.95326(10) 0.9285(2)
N3_2 N 0.73160(9) 0.74019(10) 0.1637(2)
N4_2 N 0.72132(10) 0.72696(10) 0.1967(2)
N7_2 N 0.62021(8) 0.54826(9) 0.6972(2)
N8_2 N 0.62600(9) 0.52662(9) 0.7001(2)
N9_2 N 0.24310(9) 0.91946(9) 0.0578(2)
N10_2 N 0.22931(9) 0.92533(9) 0.0953(2)
N13_2 N 0.72279(9) 0.91172(9) 0.6361(2)
N14_2 N 0.73135(9) 0.92589(9) 0.6017(2)
N15_2 N 0.79684(9) 0.94061(9) 0.7488(2)
N16_2 N 0.80102(9) 0.91858(9) 0.7488(2)
N17_2 N 0.64345(10) 0.90504(9) 0.5994(2)
N18_2 N 0.65780(9) 0.89688(9) 0.6335(2)
N19_2 N 0.33070(9) 0.45543(8) 0.6518(2)
N20_2 N 0.31414(9) 0.46221(9) 0.6818(2)
N23_2 N 0.39596(9) 0.49940(9) 0.7006(2)
N24_2 N 0.39029(9) 0.48480(9) 0.6652(2)
N25_2 N 0.38935(9) 0.96180(9) 0.2132(2)
N26_2 N 0.37521(9) 0.96919(9) 0.1778(2)
N27_2 N 0.31327(9) 0.94471(9) 0.1846(2)
N28_2 N 0.30674(9) 0.92857(8) 0.2161(2)
N29_2 N 0.35408(8) 0.90292(8) 0.3109(2)
N30_2 N 0.37225(9) 0.91525(9) 0.3145(2)
N31_2 N 0.58172(9) 0.67989(9) 0.0352(2)
N32_2 N 0.58756(9) 0.69487(9) 0.0702(2)
N33_2 N 0.64905(9) 0.72044(9) 0.0638(2)
N34_2 N 0.66408(9) 0.71312(9) 0.0299(2)
N37_2 N 0.51794(9) 0.65036(9) 0.1762(2)
N38_2 N 0.50997(9) 0.67106(9) 0.1763(2)
N39_2 N 0.46574(9) 0.69283(8) 0.2782(2)
N40_2 N 0.45845(9) 0.68039(9) 0.3163(2)
N41_2 N 0.48362(9) 0.61862(9) 0.3266(2)
N42_2 N 0.49734(9) 0.61054(9) 0.2915(2)
N43_2 N 0.45404(9) 0.82286(9) 0.5244(2)
N44_2 N 0.46165(9) 0.80197(9) 0.5215(2)
N45_2 N 0.44307(10) 0.76222(9) 0.4082(2)
N46_2 N 0.42984(9) 0.76814(9) 0.3695(2)
N47_2 N 0.40945(9) 0.83206(9) 0.3691(2)
N48_2 N 0.41451(9) 0.84422(9) 0.4103(2)
N49_2 N 0.57889(10) 0.85362(9) 0.6981(2)
N50_2 N 0.58253(10) 0.86601(9) 0.7392(2)
N51_2 N 0.53353(10) 0.87521(9) 0.8407(2)
N52_2 N 0.51216(10) 0.86908(9) 0.8319(2)
N53_2 N 0.50115(9) 0.83043(9) 0.7091(2)
N54_2 N 0.51845(9) 0.82592(9) 0.6788(2)
N55_2 N 0.51624(8) 0.54614(8) 0.4415(2)
N56_2 N 0.49447(8) 0.54146(8) 0.4415(2)
N57_2 N 0.46688(8) 0.50909(8) 0.5601(2)
N58_2 N 0.47908(9) 0.50252(9) 0.5994(2)
N59_2 N 0.54548(9) 0.51105(9) 0.5957(2)
N60_2 N 0.55385(9) 0.52368(8) 0.5582(2)
C1_2 C 0.48511(14) 0.90225(14) 0.9835(3)
C2_2 C 0.49461(12) 0.91998(12) 0.9517(3)
C3_2 C 0.50583(12) 0.91822(12) 0.9069(3)
C4_2 C 0.51043(12) 0.93959(13) 0.8936(3)
C5_2 C 0.52137(14) 0.94819(13) 0.8484(3)
C6_2 C 0.72501(12) 0.75681(14) 0.0818(3)
C7_2 C 0.71897(11) 0.74241(12) 0.1240(3)
C8_2 C 0.69974(11) 0.73017(12) 0.1306(3)
C9_2 C 0.70214(12) 0.72079(12) 0.1778(3)
C10_2 C 0.68746(14) 0.70663(14) 0.2059(3)
C12_2 C 0.43401(12) 0.99846(13) 0.0957(3)
C13_2 C 0.42745(12) 0.97947(12) 0.1179(3)
C14_2 C 0.44162(12) 0.96365(13) 0.1003(3)
C15_2 C 0.44260(14) 0.94000(13) 0.1103(4)
C16_2 C 0.59256(12) 0.57161(11) 0.6590(3)
C17_2 C 0.60270(10) 0.54979(11) 0.6685(2)
C18_2 C 0.59653(10) 0.52954(10) 0.6517(2)
C19_2 C 0.61147(10) 0.51523(11) 0.6730(2)
C20_2 C 0.61405(12) 0.49123(11) 0.6672(3)
C21_2 C 0.28228(13) 0.91503(12) 0.0438(3)
C22_2 C 0.26361(11) 0.92080(11) 0.0756(3)
C23_2 C 0.26266(11) 0.92784(11) 0.1247(3)
C24_2 C 0.24105(10) 0.93041(10) 0.1356(3)
C25_2 C 0.23111(13) 0.93800(12) 0.1828(3)
C31_2 C 0.73236(16) 0.89441(14) 0.7149(3)
C32_2 C 0.73737(12) 0.90914(11) 0.6720(3)
C33_2 C 0.75549(11) 0.92139(10) 0.6622(3)
C34_2 C 0.75120(11) 0.93164(11) 0.6174(3)
C35_2 C 0.76471(14) 0.94655(12) 0.5872(3)
C36_2 C 0.77207(13) 0.96662(12) 0.7093(3)
C37_2 C 0.78077(11) 0.94427(12) 0.7166(3)
C38_2 C 0.77419(11) 0.92466(12) 0.6953(3)
C39_2 C 0.78763(11) 0.90918(11) 0.7173(3)
C40_2 C 0.78894(13) 0.88518(12) 0.7085(3)
C41_2 C 0.60425(14) 0.90591(12) 0.5840(3)
C42_2 C 0.62357(11) 0.89857(11) 0.6125(3)
C43_2 C 0.62479(11) 0.88611(11) 0.6552(3)
C44_2 C 0.64656(11) 0.88570(11) 0.6679(3)
C45_2 C 0.65777(13) 0.87497(12) 0.7100(3)
C46_2 C 0.33735(13) 0.43175(12) 0.5798(3)
C47_2 C 0.32271(10) 0.44190(11) 0.6179(2)
C48_2 C 0.30035(10) 0.43945(10) 0.6253(2)
C49_2 C 0.29591(10) 0.45283(10) 0.6664(2)
C50_2 C 0.27515(13) 0.45662(12) 0.6929(3)
C51_2 C 0.26178(14) 0.46141(11) 0.5638(3)
C52_2 C 0.26802(11) 0.43831(11) 0.5665(2)
C53_2 C 0.28473(10) 0.42833(10) 0.5936(2)
C54_2 C 0.28364(10) 0.40655(11) 0.5796(3)
C55_2 C 0.29734(13) 0.38809(12) 0.5963(3)
C56_2 C 0.42668(13) 0.52286(13) 0.7233(3)
C57_2 C 0.41595(11) 0.50639(10) 0.6904(3)
C58_2 C 0.42373(10) 0.49651(10) 0.6477(2)
C59_2 C 0.40673(11) 0.48292(10) 0.6333(3)
C60_2 C 0.40497(13) 0.46811(12) 0.5895(3)
C61_2 C 0.42841(14) 0.95992(12) 0.2296(3)
C62_2 C 0.40961(12) 0.96553(11) 0.1978(3)
C63_2 C 0.40888(12) 0.97532(11) 0.1513(3)
C64_2 C 0.38684(12) 0.97756(12) 0.1400(3)
C65_2 C 0.37614(14) 0.98694(13) 0.0952(3)
C66_2 C 0.30039(13) 0.96331(13) 0.1086(3)
C67_2 C 0.29826(11) 0.94659(11) 0.1488(3)
C68_2 C 0.28162(10) 0.93160(10) 0.1566(2)
C69_2 C 0.28800(11) 0.92090(10) 0.1998(3)
C70_2 C 0.27659(12) 0.90291(11) 0.2270(3)
C71_2 C 0.34174(11) 0.86571(11) 0.3294(3)
C72_2 C 0.35801(11) 0.88293(11) 0.3279(3)
C73_2 C 0.38010(10) 0.88220(10) 0.3423(3)
C74_2 C 0.38798(12) 0.90256(11) 0.3333(3)
C75_2 C 0.41051(12) 0.91145(11) 0.3396(3)
C76_2 C 0.55286(13) 0.65276(12) 0.0208(3)
C77_2 C 0.56378(11) 0.66941(11) 0.0513(3)
C78_2 C 0.55804(12) 0.67783(11) 0.0976(3)
C79_2 C 0.57329(11) 0.69373(11) 0.1081(3)
C80_2 C 0.57588(13) 0.70806(13) 0.1528(3)
C81_2 C 0.64795(13) 0.73854(14) 0.1458(3)
C82_2 C 0.66003(11) 0.72850(11) 0.1027(2)
C83_2 C 0.68201(11) 0.72615(12) 0.0955(3)
C84_2 C 0.68380(11) 0.71636(12) 0.0487(3)
C85_2 C 0.70351(14) 0.71046(12) 0.0196(3)
C91_2 C 0.54839(13) 0.62961(13) 0.1410(4)
C92_2 C 0.53600(11) 0.65004(12) 0.1476(3)
C93_2 C 0.53974(11) 0.67092(12) 0.1297(3)
C94_2 C 0.52299(11) 0.68331(11) 0.1479(3)
C95_2 C 0.51851(13) 0.70713(12) 0.1414(3)
C96_2 C 0.46555(14) 0.73085(12) 0.2509(3)
C97_2 C 0.45935(11) 0.71319(11) 0.2861(3)
C98_2 C 0.44790(11) 0.71419(11) 0.3308(3)
C99_2 C 0.44778(11) 0.69312(11) 0.3487(3)
C100_2 C 0.43748(14) 0.68393(12) 0.3944(3)
C101_2 C 0.46852(12) 0.60893(12) 0.4084(3)
C102_2 C 0.48230(11) 0.60435(10) 0.3640(2)
C103_2 C 0.49566(11) 0.58665(10) 0.3538(3)
C104_2 C 0.50480(11) 0.59119(11) 0.3074(3)
C105_2 C 0.51936(12) 0.57800(11) 0.2758(3)
C106_2 C 0.45766(13) 0.85514(11) 0.5771(3)
C107_2 C 0.46198(11) 0.83185(11) 0.5655(3)
C108_2 C 0.47485(11) 0.81659(11) 0.5899(3)
C109_2 C 0.47407(11) 0.79811(11) 0.5611(3)
C110_2 C 0.48401(12) 0.77640(11) 0.5684(3)
C111_2 C 0.46521(14) 0.73149(13) 0.4362(3)
C112_2 C 0.44987(11) 0.74196(11) 0.3999(3)
C113_2 C 0.44136(11) 0.73448(11) 0.3553(3)
C114_2 C 0.42880(11) 0.75158(11) 0.3377(3)
C115_2 C 0.41520(14) 0.75327(13) 0.2923(3)
C116_2 C 0.38947(13) 0.83511(12) 0.2903(3)
C117_2 C 0.39634(11) 0.84381(11) 0.3405(3)
C118_2 C 0.39254(10) 0.86368(11) 0.3627(3)
C119_2 C 0.40463(11) 0.86321(11) 0.4060(3)
C120_2 C 0.40749(12) 0.88010(11) 0.4458(3)
C121_2 C 0.59396(14) 0.84764(14) 0.6141(4)
C122_2 C 0.59337(11) 0.85893(11) 0.6628(3)
C123_2 C 0.60689(10) 0.87551(11) 0.6813(3)
C124_2 C 0.59916(11) 0.87931(11) 0.7291(3)
C125_2 C 0.60720(13) 0.89508(12) 0.7670(3)
C126_2 C 0.55431(15) 0.90280(13) 0.8857(4)
C127_2 C 0.53347(12) 0.89303(12) 0.8688(3)
C128_2 C 0.51235(12) 0.89874(12) 0.8798(3)
C129_2 C 0.49970(12) 0.88314(11) 0.8564(3)
C130_2 C 0.47526(15) 0.88067(12) 0.8561(3)
C131_2 C 0.46118(14) 0.83030(11) 0.7045(3)
C132_2 C 0.48307(11) 0.82722(11) 0.6824(3)
C133_2 C 0.48857(11) 0.82063(11) 0.6341(3)
C134_2 C 0.51111(10) 0.81980(11) 0.6341(3)
C135_2 C 0.52629(13) 0.81375(12) 0.5936(3)
C136_2 C 0.54151(12) 0.57082(11) 0.3995(3)
C137_2 C 0.51964(10) 0.56225(10) 0.4089(3)
C138_2 C 0.49991(10) 0.56828(10) 0.3880(2)
C139_2 C 0.48438(10) 0.55455(10) 0.4094(2)
C140_2 C 0.46075(12) 0.55272(11) 0.4004(3)
C141_2 C 0.42860(12) 0.51453(11) 0.5362(3)
C142_2 C 0.44601(11) 0.50784(11) 0.5720(3)
C143_2 C 0.44410(10) 0.50028(10) 0.6207(2)
C144_2 C 0.46522(10) 0.49718(10) 0.6363(2)
C145_2 C 0.47354(13) 0.48819(12) 0.6841(3)
C146_2 C 0.55524(13) 0.49913(12) 0.6809(3)
C147_2 C 0.55966(10) 0.51121(10) 0.6338(2)
C148_2 C 0.57771(10) 0.52394(10) 0.6211(2)
C149_2 C 0.57307(11) 0.53151(10) 0.5734(2)
C150_2 C 0.58607(13) 0.54591(11) 0.5406(3)
H2_2 H 0.4966 0.8921 0.9930
H3_2 H 0.4739 0.8946 0.9647
H4_2 H 0.5226 0.9640 0.8509
H5_2 H 0.5129 0.9444 0.8190
H6_2 H 0.5359 0.9418 0.8457
H7_2 H 0.7291 0.7711 0.0946
H8_2 H 0.7126 0.7583 0.0592
H9_2 H 0.7373 0.7505 0.0638
H10_2 H 0.6960 0.6970 0.2272
H11_2 H 0.6788 0.6980 0.1827
H12_2 H 0.6778 0.7155 0.2264
H16_2 H 0.4501 0.9327 0.0829
H17_2 H 0.4279 0.9342 0.1133
H18_2 H 0.4505 0.9374 0.1413
H19_2 H 0.5954 0.5812 0.6873
H20_2 H 0.5769 0.5699 0.6547
H21_2 H 0.5988 0.5779 0.6288
H22_2 H 0.6292 0.4879 0.6592
H23_2 H 0.6046 0.4861 0.6404
H24_2 H 0.6100 0.4840 0.6983
H25_2 H 0.2774 0.9055 0.0170
H26_2 H 0.2932 0.9076 0.0638
H27_2 H 0.2886 0.9282 0.0296
H28_2 H 0.2153 0.9379 0.1796
H29_2 H 0.2361 0.9528 0.1900
H30_2 H 0.2354 0.9283 0.2100
H37_2 H 0.7167 0.8941 0.7205
H38_2 H 0.7374 0.8797 0.7073
H39_2 H 0.7397 0.8997 0.7448
H40_2 H 0.7623 0.9437 0.5518
H41_2 H 0.7607 0.9616 0.5947
H42_2 H 0.7800 0.9443 0.5952
H43_2 H 0.7738 0.9749 0.7401
H44_2 H 0.7800 0.9738 0.6824
H45_2 H 0.7567 0.9658 0.7007
H46_2 H 0.8042 0.8809 0.7054
H47_2 H 0.7823 0.8775 0.7366
H48_2 H 0.7812 0.8815 0.6779
H49_2 H 0.6089 0.9148 0.5558
H50_2 H 0.5963 0.8933 0.5718
H51_2 H 0.5948 0.9145 0.6057
H52_2 H 0.6734 0.8748 0.7037
H53_2 H 0.6549 0.8830 0.7407
H54_2 H 0.6525 0.8601 0.7134
H55_2 H 0.3476 0.4426 0.5674
H56_2 H 0.3454 0.4198 0.5950
H57_2 H 0.3286 0.4262 0.5521
H58_2 H 0.2775 0.4555 0.7288
H59_2 H 0.2697 0.4711 0.6848
H60_2 H 0.2645 0.4457 0.6825
H61_2 H 0.2460 0.4626 0.5620
H62_2 H 0.2670 0.4690 0.5936
H63_2 H 0.2683 0.4680 0.5342
H64_2 H 0.2885 0.3749 0.5979
H65_2 H 0.3092 0.3860 0.5727
H66_2 H 0.3033 0.3912 0.6292
H67_2 H 0.4159 0.5333 0.7349
H68_2 H 0.4332 0.5155 0.7519
H69_2 H 0.4379 0.5305 0.7045
H70_2 H 0.3980 0.4546 0.5996
H71_2 H 0.3963 0.4751 0.5635
H72_2 H 0.4195 0.4650 0.5766
H73_2 H 0.4257 0.9648 0.2637
H74_2 H 0.4414 0.9670 0.2167
H75_2 H 0.4305 0.9442 0.2294
H76_2 H 0.3632 0.9784 0.0870
H77_2 H 0.3863 0.9866 0.0671
H79_2 H 0.3083 0.9759 0.1214
H80_2 H 0.2859 0.9678 0.0975
H81_2 H 0.3084 0.9571 0.0805
H82_2 H 0.2873 0.8935 0.2428
H83_2 H 0.2679 0.8944 0.2034
H84_2 H 0.2671 0.9091 0.2524
H85_2 H 0.3276 0.8717 0.3203
H86_2 H 0.3410 0.8597 0.3631
H87_2 H 0.3457 0.8543 0.3059
H88_2 H 0.4121 0.9246 0.3195
H89_2 H 0.4211 0.9006 0.3288
H90_2 H 0.4130 0.9150 0.3747
H92_2 H 0.5384 0.6500 0.0342
H93_2 H 0.5614 0.6394 0.0214
H94_2 H 0.5913 0.7106 0.1590
H95_2 H 0.5693 0.7010 0.1818
H96_2 H 0.5687 0.7219 0.1467
H97_2 H 0.6339 0.7440 0.1342
H98_2 H 0.6565 0.7505 0.1595
H99_2 H 0.6456 0.7276 0.1716
H101_2 H 0.7136 0.7024 0.0409
H102_2 H 0.7106 0.7237 0.0076
H109_2 H 0.5481 0.6213 0.1720
H110_2 H 0.5418 0.6211 0.1143
H111_2 H 0.5634 0.6330 0.1325
H112_2 H 0.5030 0.7093 0.1359
H113_2 H 0.5230 0.7150 0.1713
H114_2 H 0.5266 0.7126 0.1127
H115_2 H 0.4795 0.7274 0.2354
H116_2 H 0.4544 0.7322 0.2251
H117_2 H 0.4668 0.7446 0.2691
H118_2 H 0.4313 0.6697 0.3868
H119_2 H 0.4484 0.6824 0.4205
H120_2 H 0.4260 0.6937 0.4058
H121_2 H 0.4679 0.6246 0.4140
H122_2 H 0.4539 0.6033 0.4027
H123_2 H 0.4748 0.6019 0.4377
H124_2 H 0.5154 0.5799 0.2409
H125_2 H 0.5344 0.5827 0.2808
H126_2 H 0.5180 0.5627 0.2849
H127_2 H 0.4430 0.8590 0.5662
H128_2 H 0.4589 0.8575 0.6130
H129_2 H 0.4682 0.8642 0.5597
H130_2 H 0.4732 0.7651 0.5616
H131_2 H 0.4963 0.7747 0.5456
H132_2 H 0.4891 0.7750 0.6027
H133_2 H 0.4758 0.7422 0.4477
H134_2 H 0.4570 0.7259 0.4647
H135_2 H 0.4728 0.7195 0.4199
H136_2 H 0.4017 0.7609 0.3003
H137_2 H 0.4231 0.7613 0.2667
H138_2 H 0.4118 0.7387 0.2800
H139_2 H 0.3935 0.8198 0.2878
H140_2 H 0.3737 0.8366 0.2866
H141_2 H 0.3968 0.8433 0.2640
H142_2 H 0.4056 0.8734 0.4785
H143_2 H 0.4221 0.8863 0.4434
H144_2 H 0.3967 0.8916 0.4414
H145_2 H 0.5874 0.8333 0.6174
H146_2 H 0.6090 0.8461 0.6031
H147_2 H 0.5858 0.8561 0.5895
H148_2 H 0.5950 0.9002 0.7872
H149_2 H 0.6140 0.9074 0.7503
H150_2 H 0.6178 0.8879 0.7885
H151_2 H 0.5651 0.8913 0.8903
H152_2 H 0.5520 0.9104 0.9173
H153_2 H 0.5595 0.9131 0.8607
H154_2 H 0.4707 0.8741 0.8247
H155_2 H 0.4685 0.8950 0.8597
H156_2 H 0.4708 0.8714 0.8838
H157_2 H 0.4607 0.8235 0.7375
H158_2 H 0.4503 0.8236 0.6831
H159_2 H 0.4581 0.8458 0.7077
H160_2 H 0.5396 0.8223 0.5967
H161_2 H 0.5195 0.8167 0.5614
H162_2 H 0.5298 0.7983 0.5961
H163_2 H 0.5505 0.5687 0.4291
H164_2 H 0.5406 0.5863 0.3920
H165_2 H 0.5480 0.5632 0.3713
H166_2 H 0.4563 0.5375 0.4035
H167_2 H 0.4574 0.5579 0.3669
H168_2 H 0.4529 0.5615 0.4249
H169_2 H 0.4336 0.5270 0.5167
H170_2 H 0.4155 0.5185 0.5547
H171_2 H 0.4253 0.5024 0.5139
H172_2 H 0.4872 0.4805 0.6781
H173_2 H 0.4629 0.4781 0.6980
H174_2 H 0.4760 0.5000 0.7077
H175_2 H 0.5397 0.4960 0.6834
H176_2 H 0.5598 0.5079 0.7093
H177_2 H 0.5634 0.4855 0.6808
H178_2 H 0.5811 0.5444 0.5062
H179_2 H 0.6014 0.5419 0.5428
H180_2 H 0.5843 0.5610 0.5513
Ag32_2 Ag 0.763852(10) 0.747513(9) 0.17432(2)
Ag35_2 Ag 0.232190(8) 0.899900(8) 0.00018(2)
Ag37_2 Ag 0.811520(9) 0.960950(9) 0.79870(2)
Ag38_2 Ag 0.823770(9) 0.905950(9) 0.79735(2)
N62_2 N 0.75531(11) 0.70101(10) 0.3157(2)
N65_2 N 0.16423(8) 0.91024(9) 0.0824(2)
N66_2 N 0.64673(9) 0.59218(8) 0.7948(2)
N69_2 N 0.32676(9) 0.50794(9) 0.7888(2)
N70_2 N 0.34631(9) 0.51771(9) 0.7971(2)
Ag16_2 Ag 0.602140(9) 0.674160(9) 0.97553(2)
Ag18_2 Ag 0.653610(8) 0.693450(9) 0.97178(2)
N35_2 N 0.64448(9) 0.66956(9) 0.9209(2)
N36_2 N 0.62347(9) 0.66324(9) 0.9211(2)
C26_2 C 0.67448(13) 0.59926(12) 0.9115(3)
C27_2 C 0.66099(11) 0.60168(10) 0.8661(2)
C28_2 C 0.64755(11) 0.61862(10) 0.8511(3)
C29_2 C 0.63888(10) 0.61209(10) 0.8056(3)
C30_2 C 0.62389(12) 0.62348(11) 0.7715(3)
C86_2 C 0.67968(12) 0.65734(12) 0.8877(3)
C87_2 C 0.65613(10) 0.65490(11) 0.8956(2)
C88_2 C 0.64224(10) 0.63866(11) 0.8790(2)
C89_2 C 0.62180(11) 0.64457(11) 0.8957(3)
C90_2 C 0.60044(13) 0.63329(12) 0.8891(3)
H31_2 H 0.6744 0.5841 0.9220
H32_2 H 0.6685 0.6083 0.9381
H33_2 H 0.6894 0.6038 0.9042
H34_2 H 0.6270 0.6191 0.7372
H35_2 H 0.6259 0.6392 0.7748
H36_2 H 0.6089 0.6197 0.7798
H91_2 H 0.5516 0.6579 0.9865
H100_2 H 0.6993 0.7014 0.9912
H103_2 H 0.6849 0.6700 0.9061
H104_2 H 0.6826 0.6593 0.8522
H105_2 H 0.6872 0.6443 0.8995
H106_2 H 0.5908 0.6369 0.9168
H107_2 H 0.6028 0.6176 0.8882
H108_2 H 0.5938 0.6380 0.8578
Ag32_3 Ag 0.002487(9) 0.013852(10) 0.42432(2)
N62_3 N 0.04899(10) 0.00531(11) 0.5657(2)
Ag12_3 Ag 0.241830(8) 0.622120(9) 0.00207(2)
H68_3 H 0.2345 0.6832 0.0019
N66_3 N 0.15782(8) 0.89673(9) 0.0448(2)
N69_3 N 0.24206(9) 0.57676(9) 0.0388(2)
N70_3 N 0.23229(9) 0.59631(9) 0.0471(2)
Ag3_3 Ag 0.034860(11) 0.988000(9) 0.50823(2)
Ag4_3 Ag 0.179910(8) 0.885430(8) 0.993360(19)
Ag10_3 Ag 0.279360(8) 0.610210(8) 0.90983(2)
Ag11_3 Ag 0.265120(8) 0.571150(8) 0.985490(19)
Ag16_3 Ag 0.075840(9) 0.852140(9) 0.22553(2)
Ag17_3 Ag 0.040390(9) 0.867370(9) 0.31229(2)
Ag18_3 Ag 0.056550(9) 0.903610(8) 0.22178(2)
Ag19_3 Ag 0.120690(8) 0.756020(8) 0.48020(2)
Ag20_3 Ag 0.069970(9) 0.735980(9) 0.47506(2)
Ag21_3 Ag 0.100950(8) 0.720110(8) 0.57030(2)
Ag28_3 Ag 0.217470(8) 0.785040(8) 0.747430(19)
Ag29_3 Ag 0.226860(8) 0.731720(8) 0.749050(19)
Ag30_3 Ag 0.245250(8) 0.762510(8) 0.845570(19)
N3_3 N 0.00981(10) 0.98160(9) 0.4137(2)
N4_3 N 0.02304(10) 0.97132(10) 0.4467(2)
N7_3 N 0.20174(9) 0.87021(8) 0.9472(2)
N8_3 N 0.22338(9) 0.87600(9) 0.9501(2)
N19_3 N 0.29457(8) 0.58070(9) 0.9018(2)
N20_3 N 0.28779(9) 0.56414(9) 0.9318(2)
N23_3 N 0.25060(9) 0.64596(9) 0.9506(2)
N24_3 N 0.26520(9) 0.64029(9) 0.9152(2)
N31_3 N 0.07011(9) 0.83172(9) 0.2852(2)
N32_3 N 0.05513(9) 0.83756(9) 0.3202(2)
N33_3 N 0.02956(9) 0.89905(9) 0.3138(2)
N34_3 N 0.03688(9) 0.91408(9) 0.2799(2)
N35_3 N 0.08044(9) 0.89448(9) 0.1709(2)
N36_3 N 0.08676(9) 0.87347(9) 0.1711(2)
N37_3 N 0.09964(9) 0.76794(9) 0.4262(2)
N38_3 N 0.07894(9) 0.75997(9) 0.4263(2)
N39_3 N 0.05717(8) 0.71574(9) 0.5282(2)
N40_3 N 0.06961(9) 0.70845(9) 0.5663(2)
N41_3 N 0.13138(9) 0.73362(9) 0.5766(2)
N42_3 N 0.13946(9) 0.74734(9) 0.5415(2)
N55_3 N 0.20386(8) 0.76624(8) 0.6915(2)
N56_3 N 0.20854(8) 0.74447(8) 0.6915(2)
N57_3 N 0.24091(8) 0.71688(8) 0.8101(2)
N58_3 N 0.24748(9) 0.72908(9) 0.8494(2)
N59_3 N 0.23895(9) 0.79548(9) 0.8457(2)
N60_3 N 0.22632(8) 0.80385(9) 0.8082(2)
C7_3 C 0.00759(12) 0.96897(11) 0.3740(3)
C8_3 C 0.01983(12) 0.94974(11) 0.3806(3)
C9_3 C 0.02921(12) 0.95214(12) 0.4278(3)
C10_3 C 0.04337(14) 0.93746(14) 0.4559(3)
C16_3 C 0.17839(11) 0.84256(12) 0.9090(3)
C17_3 C 0.20021(11) 0.85270(10) 0.9185(2)
C18_3 C 0.22046(10) 0.84653(10) 0.9017(2)
C19_3 C 0.23477(11) 0.86147(10) 0.9230(2)
C20_3 C 0.25877(11) 0.86405(12) 0.9172(3)
C26_3 C 0.15074(12) 0.92448(13) 0.1615(3)
C27_3 C 0.14832(10) 0.91099(11) 0.1161(2)
C28_3 C 0.13138(10) 0.89755(11) 0.1011(3)
C29_3 C 0.13791(10) 0.88888(10) 0.0556(3)
C30_3 C 0.12652(11) 0.87389(12) 0.0215(3)
C46_3 C 0.31825(12) 0.58735(13) 0.8298(3)
C47_3 C 0.30810(11) 0.57271(10) 0.8679(2)
C48_3 C 0.31055(10) 0.55035(10) 0.8753(2)
C49_3 C 0.29717(10) 0.54591(10) 0.9164(2)
C50_3 C 0.29338(12) 0.52515(13) 0.9429(3)
C51_3 C 0.28859(11) 0.51178(14) 0.8138(3)
C52_3 C 0.31169(11) 0.51802(11) 0.8165(2)
C53_3 C 0.32167(10) 0.53473(10) 0.8436(2)
C54_3 C 0.34345(11) 0.53364(10) 0.8296(3)
C55_3 C 0.36191(12) 0.54734(13) 0.8463(3)
C56_3 C 0.22714(13) 0.67668(13) 0.9733(3)
C57_3 C 0.24361(10) 0.66595(11) 0.9404(3)
C58_3 C 0.25349(10) 0.67373(10) 0.8977(2)
C59_3 C 0.26708(10) 0.65673(11) 0.8833(3)
C60_3 C 0.28189(12) 0.65497(13) 0.8395(3)
C76_3 C 0.09724(12) 0.80286(13) 0.2708(3)
C77_3 C 0.08059(11) 0.81378(11) 0.3013(3)
C78_3 C 0.07217(11) 0.80804(12) 0.3476(3)
C79_3 C 0.05627(11) 0.82329(11) 0.3581(3)
C80_3 C 0.04194(13) 0.82588(13) 0.4028(3)
C81_3 C 0.01146(14) 0.89795(13) 0.3958(3)
C82_3 C 0.02150(11) 0.91003(11) 0.3527(2)
C83_3 C 0.02385(12) 0.93201(11) 0.3455(3)
C84_3 C 0.03364(12) 0.93380(11) 0.2987(3)
C85_3 C 0.03954(12) 0.95351(14) 0.2696(3)
C86_3 C 0.09266(12) 0.92968(12) 0.1377(3)
C87_3 C 0.09510(11) 0.90613(10) 0.1456(2)
C88_3 C 0.11134(11) 0.89224(10) 0.1290(2)
C89_3 C 0.10543(11) 0.87180(11) 0.1457(3)
C90_3 C 0.11671(12) 0.85044(13) 0.1391(3)
C91_3 C 0.12039(13) 0.79839(13) 0.3910(4)
C92_3 C 0.09996(12) 0.78600(11) 0.3976(3)
C93_3 C 0.07908(12) 0.78974(11) 0.3797(3)
C94_3 C 0.06669(11) 0.77299(11) 0.3979(3)
C95_3 C 0.04287(12) 0.76851(13) 0.3914(3)
C96_3 C 0.01915(12) 0.71555(14) 0.5009(3)
C97_3 C 0.03681(11) 0.70935(11) 0.5361(3)
C98_3 C 0.03581(11) 0.69790(11) 0.5808(3)
C99_3 C 0.05688(11) 0.69778(11) 0.5987(3)
C100_3 C 0.06607(12) 0.68748(14) 0.6444(3)
C101_3 C 0.14107(12) 0.71852(12) 0.6584(3)
C102_3 C 0.14565(10) 0.73230(11) 0.6140(2)
C103_3 C 0.16335(10) 0.74566(11) 0.6038(3)
C104_3 C 0.15881(11) 0.75480(11) 0.5574(3)
C105_3 C 0.17200(11) 0.76936(12) 0.5258(3)
C111_3 C 0.01851(13) 0.71521(14) 0.6862(3)
C112_3 C 0.00804(11) 0.69987(11) 0.6499(3)
C113_3 C 0.01552(11) 0.69136(11) 0.6053(3)
C136_3 C 0.17918(11) 0.79151(12) 0.6495(3)
C137_3 C 0.18775(10) 0.76964(10) 0.6589(3)
C138_3 C 0.18172(10) 0.74991(10) 0.6380(2)
C139_3 C 0.19545(10) 0.73438(10) 0.6594(2)
C140_3 C 0.19728(11) 0.71075(12) 0.6504(3)
C141_3 C 0.23547(11) 0.67860(12) 0.7862(3)
C142_3 C 0.24216(11) 0.69601(11) 0.8220(3)
C143_3 C 0.24972(10) 0.69410(10) 0.8707(2)
C144_3 C 0.25282(10) 0.71522(10) 0.8863(2)
C145_3 C 0.26181(12) 0.72354(13) 0.9341(3)
C146_3 C 0.25087(12) 0.80524(13) 0.9309(3)
C147_3 C 0.23879(10) 0.80966(10) 0.8838(2)
C148_3 C 0.22606(10) 0.82771(10) 0.8711(2)
C149_3 C 0.21849(10) 0.82307(11) 0.8234(2)
C150_3 C 0.20409(11) 0.83607(13) 0.7906(3)
H10_3 H 0.0530 0.9460 0.4772
H11_3 H 0.0520 0.9288 0.4327
H12_3 H 0.0345 0.9278 0.4764
H19_3 H 0.1688 0.8454 0.9373
H20_3 H 0.1801 0.8269 0.9047
H21_3 H 0.1721 0.8488 0.8788
H22_3 H 0.2621 0.8792 0.9092
H23_3 H 0.2639 0.8546 0.8904
H24_3 H 0.2660 0.8600 0.9483
H31_3 H 0.1659 0.9244 0.1720
H32_3 H 0.1417 0.9185 0.1881
H33_3 H 0.1462 0.9394 0.1542
H35_3 H 0.1108 0.8759 0.0248
H36_3 H 0.1303 0.8589 0.0298
H55_3 H 0.3074 0.5976 0.8174
H56_3 H 0.3302 0.5954 0.8450
H57_3 H 0.3238 0.5786 0.8021
H58_3 H 0.2945 0.5275 0.9788
H59_3 H 0.2789 0.5197 0.9348
H60_3 H 0.3043 0.5145 0.9325
H61_3 H 0.2874 0.4960 0.8120
H62_3 H 0.2810 0.5170 0.8436
H63_3 H 0.2820 0.5183 0.7842
H64_3 H 0.3751 0.5385 0.8479
H65_3 H 0.3640 0.5592 0.8227
H66_3 H 0.3588 0.5533 0.8792
H67_3 H 0.2167 0.6659 0.9849
H69_3 H 0.2195 0.6879 0.9545
H70_3 H 0.2954 0.6480 0.8496
H71_3 H 0.2749 0.6463 0.8135
H72_3 H 0.2850 0.6695 0.8266
H91_3 H 0.0921 0.8016 0.2365
H92_3 H 0.1000 0.7884 0.2842
H93_3 H 0.1106 0.8114 0.2714
H94_3 H 0.0394 0.8413 0.4090
H95_3 H 0.0490 0.8193 0.4318
H96_3 H 0.0281 0.8187 0.3967
H97_3 H 0.0060 0.8839 0.3842
H99_3 H 0.0224 0.8956 0.4216
H100_3 H 0.0486 0.9493 0.2412
H101_3 H 0.0476 0.9636 0.2909
H102_3 H 0.0263 0.9606 0.2576
H103_3 H 0.0800 0.9349 0.1561
H104_3 H 0.0907 0.9326 0.1022
H105_3 H 0.1057 0.9372 0.1495
H106_3 H 0.1131 0.8408 0.1668
H107_3 H 0.1324 0.8528 0.1382
H108_3 H 0.1120 0.8438 0.1078
H109_3 H 0.1287 0.7981 0.4220
H110_3 H 0.1289 0.7918 0.3643
H111_3 H 0.1170 0.8134 0.3825
H112_3 H 0.0407 0.7530 0.3859
H113_3 H 0.0350 0.7730 0.4213
H114_3 H 0.0374 0.7766 0.3627
H115_3 H 0.0226 0.7295 0.4854
H116_3 H 0.0178 0.7044 0.4751
H117_3 H 0.0054 0.7168 0.5191
H118_3 H 0.0803 0.6813 0.6368
H119_3 H 0.0676 0.6984 0.6705
H120_3 H 0.0563 0.6760 0.6558
H121_3 H 0.1254 0.7179 0.6640
H122_3 H 0.1467 0.7039 0.6527
H123_3 H 0.1481 0.7248 0.6877
H124_3 H 0.1701 0.7654 0.4909
H125_3 H 0.1673 0.7844 0.5308
H126_3 H 0.1873 0.7680 0.5349
H133_3 H 0.0078 0.7258 0.6977
H134_3 H 0.0241 0.7070 0.7147
H135_3 H 0.0305 0.7228 0.6699
H138_3 H 0.0113 0.6618 0.5300
H163_3 H 0.1813 0.8005 0.6791
H164_3 H 0.1637 0.7906 0.6420
H165_3 H 0.1868 0.7980 0.6213
H166_3 H 0.2125 0.7063 0.6535
H167_3 H 0.1921 0.7074 0.6169
H168_3 H 0.1885 0.7029 0.6749
H169_3 H 0.2230 0.6836 0.7667
H170_3 H 0.2315 0.6655 0.8047
H171_3 H 0.2476 0.6753 0.7639
H172_3 H 0.2695 0.7372 0.9281
H173_3 H 0.2719 0.7129 0.9480
H174_3 H 0.2500 0.7260 0.9577
H175_3 H 0.2540 0.7897 0.9334
H176_3 H 0.2421 0.8098 0.9593
H177_3 H 0.2645 0.8134 0.9308
H178_3 H 0.2056 0.8311 0.7562
H179_3 H 0.2081 0.8514 0.7928
H180_3 H 0.1890 0.8343 0.8013
H34_3 H 0.1309 0.8770 0.9872
Ag37_3 Ag 0.789050(9) 0.061520(9) 0.04870(2)
Ag38_3 Ag 0.844050(9) 0.073770(9) 0.04735(2)
N15_3 N 0.80939(9) 0.04684(9) 0.9988(2)
N16_3 N 0.83142(9) 0.05102(9) 0.9988(2)
C33_3 C 0.82861(10) 0.00549(11) 0.9122(3)
C34_3 C 0.81836(11) 0.00120(11) 0.8674(3)
C35_3 C 0.80345(12) 0.01471(14) 0.8372(3)
C36_3 C 0.78338(12) 0.02207(13) 0.9593(3)
C37_3 C 0.80573(12) 0.03077(11) 0.9666(3)
C38_3 C 0.82534(12) 0.02419(11) 0.9453(3)
C39_3 C 0.84082(11) 0.03763(11) 0.9673(3)
C40_3 C 0.86482(12) 0.03894(13) 0.9585(3)
H40_3 H 0.8063 0.0123 0.8018
H41_3 H 0.7884 0.0107 0.8447
H42_3 H 0.8057 0.0300 0.8452
H43_3 H 0.7751 0.0238 0.9901
H44_3 H 0.7762 0.0300 0.9324
H45_3 H 0.7842 0.0067 0.9507
H46_3 H 0.8691 0.0542 0.9554
H47_3 H 0.8725 0.0323 0.9866
H48_3 H 0.8685 0.0312 0.9279
Ag1_3 Ag 0.792347(11) 0.726069(9) 0.26873(2)
Ag26_3 Ag 0.882930(9) 0.808450(10) 0.04222(2)
Ag27_3 Ag 0.902350(9) 0.756590(9) 0.02404(2)
N1_3 N 0.80916(10) 0.74296(10) 0.2142(2)
N2_3 N 0.79674(10) 0.75252(10) 0.1785(2)
N51_3 N 0.87479(9) 0.78353(10) 0.0907(2)
N52_3 N 0.88092(9) 0.76216(10) 0.0819(2)
C1_3 C 0.84775(14) 0.73511(14) 0.2335(3)
C2_3 C 0.83002(12) 0.74461(12) 0.2017(3)
C3_3 C 0.83178(12) 0.75583(12) 0.1569(3)
C4_3 C 0.81041(13) 0.76043(12) 0.1436(3)
C5_3 C 0.80181(13) 0.77137(14) 0.0984(3)
C125_3 C 0.85492(12) 0.85720(13) 0.0170(3)
C126_3 C 0.84720(13) 0.80431(15) 0.1357(4)
C127_3 C 0.85697(12) 0.78347(12) 0.1188(3)
C128_3 C 0.85126(12) 0.76235(12) 0.1298(3)
C129_3 C 0.86686(11) 0.74970(12) 0.1064(3)
C130_3 C 0.86933(12) 0.72526(15) 0.1061(3)
H1_3 H 0.8414 0.7287 0.2634
H2_3 H 0.8579 0.7466 0.2430
H3_3 H 0.8554 0.7239 0.2147
H4_3 H 0.7860 0.7726 0.1009
H5_3 H 0.8056 0.7629 0.0690
H6_3 H 0.8082 0.7859 0.0957
H148_3 H 0.8498 0.8450 0.0372
H149_3 H 0.8426 0.8640 0.0003
H150_3 H 0.8621 0.8678 0.0385
H151_3 H 0.8587 0.8151 0.1403
H152_3 H 0.8396 0.8020 0.1673
H153_3 H 0.8369 0.8095 0.1107
H154_3 H 0.8759 0.7207 0.0747
H155_3 H 0.8550 0.7185 0.1097
H156_3 H 0.8786 0.7208 0.1338
N63_3 N 0.77696(11) 0.70555(10) 0.3188(2)
Ag6_3 Ag 0.830250(8) 0.446330(9) 0.33589(2)
Ag7_3 Ag 0.846730(8) 0.940540(9) 0.88001(2)
Ag13_3 Ag 0.809120(9) 0.628260(8) 0.51693(2)
Ag14_3 Ag 0.791730(8) 0.593730(9) 0.43426(2)
Ag15_3 Ag 0.833620(8) 0.579260(8) 0.51736(2)
Ag22_3 Ag 0.916750(9) 0.684270(9) 0.71691(2)
Ag23_3 Ag 0.967400(9) 0.701090(9) 0.71504(2)
Ag24_3 Ag 0.950180(8) 0.668950(9) 0.61821(2)
Ag25_3 Ag 0.912270(9) 0.799370(9) 0.94362(2)
N9_3 N 0.83054(9) 0.49310(9) 0.3078(2)
N10_3 N 0.82467(9) 0.47931(9) 0.3453(2)
N13_3 N 0.83828(9) 0.97279(9) 0.8861(2)
N14_3 N 0.82411(9) 0.98135(9) 0.8517(2)
N17_3 N 0.84496(9) 0.89345(10) 0.8494(2)
N18_3 N 0.85312(9) 0.90780(9) 0.8835(2)
N25_3 N 0.78820(9) 0.63935(9) 0.4632(2)
N26_3 N 0.78081(9) 0.62521(9) 0.4278(2)
N27_3 N 0.80529(9) 0.56327(9) 0.4346(2)
N28_3 N 0.82143(8) 0.55674(9) 0.4661(2)
N29_3 N 0.84708(8) 0.60408(8) 0.5609(2)
N30_3 N 0.83475(9) 0.62225(9) 0.5645(2)
N43_3 N 0.92714(9) 0.70404(9) 0.7744(2)
N44_3 N 0.94803(9) 0.71165(9) 0.7715(2)
N45_3 N 0.98778(9) 0.69307(10) 0.6582(2)
N46_3 N 0.98186(9) 0.67984(9) 0.6195(2)
N47_3 N 0.91794(9) 0.65945(9) 0.6191(2)
N48_3 N 0.90578(9) 0.66451(9) 0.6603(2)
N49_3 N 0.89638(9) 0.82889(10) 0.9481(2)
N50_3 N 0.88399(9) 0.83253(10) 0.9892(2)
N53_3 N 0.91957(9) 0.75115(9) 0.9591(2)
N54_3 N 0.92408(9) 0.76845(9) 0.9288(2)
C6_3 C 0.99319(14) 0.97501(12) 0.3318(3)
C11_3 C 0.72896(14) 0.67542(14) 0.3508(3)
C12_3 C 0.75154(13) 0.68401(12) 0.3457(3)
C13_3 C 0.77053(12) 0.67745(12) 0.3679(3)
C14_3 C 0.78635(13) 0.69162(12) 0.3503(3)
C15_3 C 0.81000(13) 0.69260(14) 0.3603(4)
C21_3 C 0.83497(12) 0.53228(13) 0.2938(3)
C22_3 C 0.82920(11) 0.51361(11) 0.3256(3)
C23_3 C 0.82216(11) 0.51266(11) 0.3747(3)
C24_3 C 0.81959(10) 0.49105(10) 0.3856(3)
C25_3 C 0.81200(12) 0.48111(13) 0.4328(3)
C31_3 C 0.85559(14) 0.98236(16) 0.9649(3)
C32_3 C 0.84086(11) 0.98737(12) 0.9220(3)
C41_3 C 0.84409(12) 0.85425(14) 0.8340(3)
C42_3 C 0.85143(11) 0.87357(11) 0.8625(3)
C43_3 C 0.86389(11) 0.87479(11) 0.9052(3)
C44_3 C 0.86430(11) 0.89656(11) 0.9179(3)
C45_3 C 0.87503(12) 0.90777(13) 0.9600(3)
C61_3 C 0.79008(12) 0.67841(14) 0.4796(3)
C62_3 C 0.78447(11) 0.65961(12) 0.4478(3)
C63_3 C 0.77468(11) 0.65888(12) 0.4013(3)
C64_3 C 0.77244(12) 0.63684(12) 0.3900(3)
C65_3 C 0.76306(13) 0.62614(14) 0.3452(3)
C66_3 C 0.78669(13) 0.55039(13) 0.3586(3)
C67_3 C 0.80341(11) 0.54826(11) 0.3988(3)
C68_3 C 0.81840(10) 0.53162(10) 0.4066(2)
C69_3 C 0.82910(10) 0.53800(11) 0.4498(3)
C70_3 C 0.84709(11) 0.52659(12) 0.4770(3)
C71_3 C 0.88429(11) 0.59174(11) 0.5794(3)
C72_3 C 0.86707(11) 0.60801(11) 0.5779(3)
C73_3 C 0.86780(10) 0.63010(10) 0.5923(3)
C74_3 C 0.84744(11) 0.63798(12) 0.5833(3)
C75_3 C 0.83855(11) 0.66051(12) 0.5896(3)
C106_3 C 0.89486(11) 0.70766(13) 0.8271(3)
C107_3 C 0.91815(11) 0.71198(11) 0.8155(3)
C108_3 C 0.93341(11) 0.72485(11) 0.8399(3)
C109_3 C 0.95189(11) 0.72407(11) 0.8111(3)
C110_3 C 0.97360(11) 0.73401(12) 0.8184(3)
C114_3 C 0.99842(11) 0.67880(11) 0.5877(3)
C115_3 C 0.99673(13) 0.66520(14) 0.5423(3)
C116_3 C 0.91489(12) 0.63947(13) 0.5403(3)
C117_3 C 0.90619(11) 0.64634(11) 0.5905(3)
C118_3 C 0.88632(11) 0.64254(10) 0.6127(3)
C119_3 C 0.88679(11) 0.65463(11) 0.6560(3)
C120_3 C 0.86990(11) 0.65749(12) 0.6958(3)
C121_3 C 0.90236(14) 0.84396(14) 0.8641(4)
C122_3 C 0.89107(11) 0.84337(11) 0.9128(3)
C123_3 C 0.87449(11) 0.85689(10) 0.9313(3)
C124_3 C 0.87069(11) 0.84916(11) 0.9791(3)
C131_3 C 0.91970(11) 0.71118(14) 0.9545(3)
C132_3 C 0.92278(11) 0.73307(11) 0.9324(3)
C133_3 C 0.92937(11) 0.73857(11) 0.8841(3)
C134_3 C 0.93020(11) 0.76111(10) 0.8841(3)
C135_3 C 0.93625(12) 0.77629(13) 0.8436(3)
H7_3 H 0.9789 0.9791 0.3446
H8_3 H 0.9917 0.9626 0.3092
H9_3 H 0.9995 0.9873 0.3138
H13_3 H 0.7186 0.6863 0.3388
H14_3 H 0.7260 0.6722 0.3858
H15_3 H 0.7275 0.6621 0.3311
H16_3 H 0.8173 0.7001 0.3329
H17_3 H 0.8158 0.6779 0.3633
H18_3 H 0.8126 0.7005 0.3913
H25_3 H 0.8445 0.5274 0.2670
H26_3 H 0.8424 0.5432 0.3138
H27_3 H 0.8218 0.5386 0.2796
H28_3 H 0.8121 0.4653 0.4296
H29_3 H 0.7972 0.4861 0.4400
H30_3 H 0.8217 0.4854 0.4600
H37_3 H 0.8559 0.9667 0.9705
H38_3 H 0.8703 0.9874 0.9573
H39_3 H 0.8503 0.9897 0.9948
H49_3 H 0.8352 0.8589 0.8058
H50_3 H 0.8567 0.8463 0.8218
H51_3 H 0.8355 0.8448 0.8557
H52_3 H 0.8752 0.9234 0.9537
H53_3 H 0.8670 0.9049 0.9907
H54_3 H 0.8899 0.9025 0.9634
H73_3 H 0.7852 0.6757 0.5137
H74_3 H 0.7830 0.6914 0.4667
H75_3 H 0.8058 0.6805 0.4794
H76_3 H 0.7716 0.6132 0.3370
H77_3 H 0.7634 0.6363 0.3171
H78_3 H 0.7481 0.6219 0.3520
H79_3 H 0.7741 0.5583 0.3714
H80_3 H 0.7822 0.5359 0.3475
H81_3 H 0.7929 0.5584 0.3305
H82_3 H 0.8565 0.5373 0.4928
H83_3 H 0.8556 0.5179 0.4534
H84_3 H 0.8409 0.5171 0.5024
H85_3 H 0.8783 0.5776 0.5703
H86_3 H 0.8903 0.5910 0.6131
H87_3 H 0.8957 0.5957 0.5559
H88_3 H 0.8254 0.6621 0.5695
H89_3 H 0.8494 0.6711 0.5788
H90_3 H 0.8350 0.6630 0.6247
H98_3 H 0.9995 0.9065 0.4095
H127_3 H 0.8910 0.6930 0.8162
H128_3 H 0.8925 0.7089 0.8630
H129_3 H 0.8858 0.7182 0.8097
H130_3 H 0.9849 0.7232 0.8116
H131_3 H 0.9753 0.7463 0.7956
H132_3 H 0.9750 0.7391 0.8527
H136_3 H 0.9891 0.6517 0.5503
H137_3 H 0.9887 0.6731 0.5167
H139_3 H 0.9302 0.6435 0.5378
H140_3 H 0.9134 0.6237 0.5366
H141_3 H 0.9067 0.6468 0.5140
H142_3 H 0.8766 0.6556 0.7285
H143_3 H 0.8637 0.6721 0.6934
H144_3 H 0.8584 0.6467 0.6914
H145_3 H 0.9167 0.8374 0.8674
H146_3 H 0.9039 0.8590 0.8531
H147_3 H 0.8939 0.8358 0.8395
H157_3 H 0.9265 0.7107 0.9875
H158_3 H 0.9264 0.7003 0.9331
H159_3 H 0.9042 0.7081 0.9577
H160_3 H 0.9277 0.7896 0.8467
H161_3 H 0.9333 0.7695 0.8114
H162_3 H 0.9517 0.7798 0.8461
Ag35_3 Ag 0.850100(8) 0.482190(8) 0.25018(2)
N65_3 N 0.83976(9) 0.41423(8) 0.3324(2)
Ag1_4 Ag 0.023931(9) 0.042347(11) 0.51873(2)
Ag10_4 Ag 0.139790(8) 0.529360(8) 0.15983(2)
N1_4 N 0.00704(10) 0.05916(10) 0.4642(2)
N19_4 N 0.16930(9) 0.54457(8) 0.1518(2)
N20_4 N 0.18586(9) 0.53779(9) 0.1818(2)
N23_4 N 0.10404(9) 0.50060(9) 0.2006(2)
N24_4 N 0.10971(9) 0.51520(9) 0.1652(2)
N43_4 N 0.04596(9) 0.17714(9) 0.0244(2)
N44_4 N 0.03835(9) 0.19803(9) 0.0215(2)
N57_4 N 0.03312(8) 0.49091(8) 0.0601(2)
N58_4 N 0.02092(9) 0.49748(9) 0.0994(2)
C1_4 C 0.01489(14) 0.09775(14) 0.4835(3)
C2_4 C 0.00539(12) 0.08002(12) 0.4517(3)
C46_4 C 0.16265(13) 0.56825(12) 0.0798(3)
C47_4 C 0.17729(10) 0.55810(11) 0.1179(2)
C48_4 C 0.19965(10) 0.56055(10) 0.1253(2)
C49_4 C 0.20409(10) 0.54717(10) 0.1664(2)
C50_4 C 0.22485(13) 0.54338(12) 0.1929(3)
C51_4 C 0.23822(14) 0.53859(11) 0.0638(3)
C52_4 C 0.23198(11) 0.56169(11) 0.0665(2)
C53_4 C 0.21527(10) 0.57167(10) 0.0936(2)
C54_4 C 0.21636(10) 0.59345(11) 0.0796(3)
C55_4 C 0.20266(13) 0.61191(12) 0.0963(3)
C56_4 C 0.07332(13) 0.47714(13) 0.2233(3)
C57_4 C 0.08405(11) 0.49361(10) 0.1904(3)
C58_4 C 0.07627(10) 0.50349(10) 0.1477(2)
C59_4 C 0.09327(11) 0.51708(10) 0.1333(3)
C60_4 C 0.09503(13) 0.53189(12) 0.0895(3)
C106_4 C 0.04234(13) 0.14486(11) 0.0771(3)
C107_4 C 0.03802(11) 0.16815(11) 0.0655(3)
C108_4 C 0.02515(11) 0.18341(11) 0.0899(3)
C109_4 C 0.02593(11) 0.20189(11) 0.0611(3)
C110_4 C 0.01599(12) 0.22360(11) 0.0684(3)
C129_4 C 0.00030(12) 0.11686(11) 0.3564(3)
C130_4 C 0.02474(15) 0.11933(12) 0.3561(3)
C131_4 C 0.03882(14) 0.16970(11) 0.2045(3)
C132_4 C 0.01693(11) 0.17278(11) 0.1824(3)
C133_4 C 0.01143(11) 0.17937(11) 0.1341(3)
C141_4 C 0.07140(12) 0.48547(11) 0.0362(3)
C142_4 C 0.05399(11) 0.49216(11) 0.0720(3)
C143_4 C 0.05590(10) 0.49972(10) 0.1207(2)
C144_4 C 0.03478(10) 0.50282(10) 0.1363(2)
C145_4 C 0.02646(13) 0.51181(12) 0.1841(3)
H1_4 H 0.0213 0.0914 0.5134
H2_4 H 0.0034 0.1079 0.4930
H3_4 H 0.0261 0.1054 0.4647
H55_4 H 0.1524 0.5574 0.0674
H56_4 H 0.1546 0.5802 0.0950
H57_4 H 0.1714 0.5738 0.0521
H58_4 H 0.2225 0.5445 0.2288
H59_4 H 0.2303 0.5289 0.1848
H60_4 H 0.2355 0.5543 0.1825
H61_4 H 0.2540 0.5374 0.0620
H62_4 H 0.2330 0.5310 0.0936
H63_4 H 0.2317 0.5320 0.0342
H64_4 H 0.2115 0.6251 0.0979
H65_4 H 0.1908 0.6140 0.0727
H66_4 H 0.1967 0.6088 0.1292
H67_4 H 0.0841 0.4667 0.2349
H68_4 H 0.0668 0.4845 0.2519
H69_4 H 0.0621 0.4695 0.2045
H70_4 H 0.1020 0.5454 0.0996
H71_4 H 0.1037 0.5249 0.0635
H72_4 H 0.0805 0.5350 0.0766
H127_4 H 0.0570 0.1410 0.0662
H128_4 H 0.0411 0.1425 0.1130
H129_4 H 0.0318 0.1358 0.0597
H130_4 H 0.0268 0.2349 0.0616
H131_4 H 0.0037 0.2253 0.0456
H132_4 H 0.0109 0.2250 0.1027
H154_4 H 0.0293 0.1259 0.3247
H155_4 H 0.0315 0.1050 0.3597
H156_4 H 0.0292 0.1286 0.3838
H157_4 H 0.0393 0.1765 0.2375
H158_4 H 0.0497 0.1764 0.1831
H159_4 H 0.0419 0.1542 0.2077
H169_4 H 0.0664 0.4730 0.0167
H170_4 H 0.0845 0.4815 0.0547
H171_4 H 0.0747 0.4976 0.0139
H172_4 H 0.0128 0.5195 0.1781
H173_4 H 0.0371 0.5219 0.1980
H174_4 H 0.0240 0.5000 0.2077
N63_4 N 0.04445(10) 0.02696(11) 0.5688(2)
Ag13_4 Ag 0.121740(8) 0.059120(9) 0.76693(2)
Ag14_4 Ag 0.156270(9) 0.041730(8) 0.68426(2)
Ag15_4 Ag 0.170740(8) 0.083620(8) 0.76736(2)
Ag20_4 Ag 0.014020(9) 0.319970(9) 0.72506(2)
Ag21_4 Ag 0.029890(8) 0.350950(8) 0.82030(2)
Ag22_4 Ag 0.065730(9) 0.166750(9) 0.96691(2)
Ag23_4 Ag 0.048910(9) 0.217400(9) 0.96504(2)
Ag24_4 Ag 0.081050(9) 0.200180(8) 0.86821(2)
Ag29_4 Ag 0.018280(8) 0.476860(8) 0.999050(19)
N10_4 N 0.27069(9) 0.07467(9) 0.5953(2)
N25_4 N 0.11065(9) 0.03820(9) 0.7132(2)
N26_4 N 0.12479(9) 0.03081(9) 0.6778(2)
N27_4 N 0.18673(9) 0.05529(9) 0.6846(2)
N28_4 N 0.19326(9) 0.07143(8) 0.7161(2)
N29_4 N 0.14592(8) 0.09708(8) 0.8109(2)
N30_4 N 0.12775(9) 0.08475(9) 0.8145(2)
N39_4 N 0.03426(9) 0.30717(8) 0.7782(2)
N40_4 N 0.04155(9) 0.31961(9) 0.8163(2)
N41_4 N 0.01638(9) 0.38138(9) 0.8266(2)
N42_4 N 0.00266(9) 0.38946(9) 0.7915(2)
N45_4 N 0.05693(10) 0.23778(9) 0.9082(2)
N46_4 N 0.07016(9) 0.23186(9) 0.8695(2)
N47_4 N 0.09055(9) 0.16794(9) 0.8691(2)
N48_4 N 0.08549(9) 0.15578(9) 0.9103(2)
N56_4 N 0.00553(8) 0.45854(8) 0.9415(2)
C12_4 C 0.06599(12) 0.00154(13) 0.5957(3)
C13_4 C 0.07255(12) 0.02053(12) 0.6179(3)
C14_4 C 0.05838(12) 0.03635(13) 0.6003(3)
C15_4 C 0.05740(14) 0.06000(13) 0.6103(4)
C21_4 C 0.21772(13) 0.08497(12) 0.5438(3)
C22_4 C 0.23639(11) 0.07920(11) 0.5756(3)
C23_4 C 0.23734(11) 0.07216(11) 0.6247(3)
C24_4 C 0.25895(10) 0.06959(10) 0.6356(3)
C25_4 C 0.26889(13) 0.06200(12) 0.6828(3)
C61_4 C 0.07159(14) 0.04008(12) 0.7296(3)
C62_4 C 0.09039(12) 0.03447(11) 0.6978(3)
C63_4 C 0.09112(12) 0.02468(11) 0.6513(3)
C64_4 C 0.11316(12) 0.02244(12) 0.6400(3)
C65_4 C 0.12386(14) 0.01306(13) 0.5952(3)
C66_4 C 0.19961(13) 0.03669(13) 0.6086(3)
C67_4 C 0.20174(11) 0.05341(11) 0.6488(3)
C68_4 C 0.21838(10) 0.06840(10) 0.6566(2)
C69_4 C 0.21200(11) 0.07910(10) 0.6998(3)
C70_4 C 0.22341(12) 0.09709(11) 0.7270(3)
C71_4 C 0.15826(11) 0.13429(11) 0.8294(3)
C72_4 C 0.14199(11) 0.11707(11) 0.8279(3)
C73_4 C 0.11990(10) 0.11780(10) 0.8423(3)
C74_4 C 0.11202(12) 0.09744(11) 0.8333(3)
C75_4 C 0.08949(12) 0.08855(11) 0.8396(3)
C96_4 C 0.03445(14) 0.26915(12) 0.7509(3)
C97_4 C 0.04065(11) 0.28681(11) 0.7861(3)
C98_4 C 0.05210(11) 0.28581(11) 0.8308(3)
C99_4 C 0.05222(11) 0.30688(11) 0.8487(3)
C100_4 C 0.06252(14) 0.31607(12) 0.8944(3)
C101_4 C 0.03148(12) 0.39107(12) 0.9084(3)
C102_4 C 0.01770(11) 0.39565(10) 0.8640(2)
C103_4 C 0.00434(11) 0.41335(10) 0.8538(3)
C111_4 C 0.03479(14) 0.26851(13) 0.9362(3)
C112_4 C 0.05013(11) 0.25804(11) 0.8999(3)
C113_4 C 0.05864(11) 0.26552(11) 0.8553(3)
C114_4 C 0.07120(11) 0.24842(11) 0.8377(3)
C115_4 C 0.08480(14) 0.24673(13) 0.7923(3)
C116_4 C 0.11053(13) 0.16489(12) 0.7903(3)
C117_4 C 0.10366(11) 0.15619(11) 0.8405(3)
C118_4 C 0.10746(10) 0.13632(11) 0.8627(3)
C119_4 C 0.09537(11) 0.13679(11) 0.9060(3)
C120_4 C 0.09251(12) 0.11990(11) 0.9458(3)
C138_4 C 0.00009(10) 0.43172(10) 0.8880(2)
C139_4 C 0.01562(10) 0.44545(10) 0.9094(2)
C140_4 C 0.03925(12) 0.44728(11) 0.9004(3)
H16_4 H 0.0499 0.0673 0.5829
H17_4 H 0.0721 0.0658 0.6133
H18_4 H 0.0495 0.0626 0.6413
H25_4 H 0.2226 0.0945 0.5170
H26_4 H 0.2068 0.0924 0.5638
H27_4 H 0.2114 0.0718 0.5296
H28_4 H 0.2847 0.0621 0.6796
H29_4 H 0.2639 0.0472 0.6900
H30_4 H 0.2646 0.0717 0.7100
H73_4 H 0.0743 0.0352 0.7637
H74_4 H 0.0586 0.0330 0.7167
H75_4 H 0.0695 0.0558 0.7294
H76_4 H 0.1368 0.0216 0.5870
H77_4 H 0.1137 0.0134 0.5671
H79_4 H 0.1917 0.0241 0.6214
H80_4 H 0.2141 0.0322 0.5975
H81_4 H 0.1916 0.0429 0.5805
H82_4 H 0.2127 0.1065 0.7428
H83_4 H 0.2321 0.1056 0.7034
H84_4 H 0.2329 0.0909 0.7524
H85_4 H 0.1724 0.1283 0.8203
H86_4 H 0.1590 0.1403 0.8631
H87_4 H 0.1543 0.1457 0.8059
H88_4 H 0.0879 0.0754 0.8195
H89_4 H 0.0789 0.0994 0.8288
H90_4 H 0.0870 0.0850 0.8747
H115_4 H 0.0205 0.2726 0.7354
H116_4 H 0.0456 0.2678 0.7251
H117_4 H 0.0332 0.2554 0.7691
H118_4 H 0.0687 0.3303 0.8868
H119_4 H 0.0516 0.3176 0.9205
H120_4 H 0.0740 0.3063 0.9058
H121_4 H 0.0321 0.3754 0.9140
H122_4 H 0.0461 0.3967 0.9027
H123_4 H 0.0252 0.3981 0.9377
H133_4 H 0.0242 0.2578 0.9477
H134_4 H 0.0430 0.2741 0.9647
H135_4 H 0.0272 0.2805 0.9199
H136_4 H 0.0983 0.2391 0.8003
H137_4 H 0.0769 0.2387 0.7667
H138_4 H 0.0882 0.2613 0.7800
H139_4 H 0.1065 0.1802 0.7878
H140_4 H 0.1263 0.1634 0.7866
H141_4 H 0.1032 0.1567 0.7640
H142_4 H 0.0944 0.1266 0.9785
H143_4 H 0.0779 0.1137 0.9434
H144_4 H 0.1033 0.1084 0.9414
H166_4 H 0.0437 0.4625 0.9035
H167_4 H 0.0426 0.4421 0.8669
H168_4 H 0.0471 0.4385 0.9249
C11_4 C 0.07458(14) 0.97896(14) 0.6008(3)
H13_4 H 0.0637 0.9686 0.5888
H14_4 H 0.0778 0.9760 0.6358
H15_4 H 0.0879 0.9775 0.5811
H78_4 H 0.1281 0.9981 0.6020
Ag4_4 Ag 0.864570(8) 0.429910(8) 0.243360(19)
Ag7_4 Ag 0.809460(9) 0.096730(8) 0.13001(2)
Ag25_4 Ag 0.950630(9) 0.162270(9) 0.19362(2)
Ag26_4 Ag 0.941550(10) 0.132930(9) 0.29222(2)
Ag27_4 Ag 0.993410(9) 0.152350(9) 0.27404(2)
Ag30_4 Ag 0.987490(8) 0.495250(8) 0.095570(19)
N2_4 N 0.99748(10) 0.04674(10) 0.4285(2)
N7_4 N 0.87979(8) 0.45174(9) 0.1972(2)
N8_4 N 0.87400(9) 0.47338(9) 0.2001(2)
N13_4 N 0.77721(9) 0.08828(9) 0.1361(2)
N14_4 N 0.76865(9) 0.07411(9) 0.1017(2)
N17_4 N 0.85655(10) 0.09496(9) 0.0994(2)
N18_4 N 0.84220(9) 0.10312(9) 0.1335(2)
N49_4 N 0.92111(10) 0.14638(9) 0.1981(2)
N50_4 N 0.91747(10) 0.13399(9) 0.2392(2)
N51_4 N 0.96647(10) 0.12479(9) 0.3407(2)
N52_4 N 0.98784(10) 0.13092(9) 0.3319(2)
N53_4 N 0.99885(9) 0.16957(9) 0.2091(2)
N54_4 N 0.98155(9) 0.17408(9) 0.1788(2)
N59_4 N 0.95452(9) 0.48895(9) 0.0957(2)
N60_4 N 0.94615(9) 0.47632(8) 0.0582(2)
C3_4 C 0.99417(12) 0.08178(12) 0.4069(3)
C4_4 C 0.98957(12) 0.06041(13) 0.3936(3)
C5_4 C 0.97863(14) 0.05181(13) 0.3484(3)
C16_4 C 0.90744(12) 0.42839(11) 0.1590(3)
C17_4 C 0.89730(10) 0.45021(11) 0.1685(2)
C18_4 C 0.90347(10) 0.47046(10) 0.1517(2)
C19_4 C 0.88853(10) 0.48477(11) 0.1730(2)
C20_4 C 0.88595(12) 0.50877(11) 0.1672(3)
C31_4 C 0.76764(16) 0.10559(14) 0.2149(3)
C32_4 C 0.76263(12) 0.09086(11) 0.1720(3)
C33_4 C 0.74451(11) 0.07861(10) 0.1622(3)
C34_4 C 0.74880(11) 0.06836(11) 0.1174(3)
C35_4 C 0.73529(14) 0.05345(12) 0.0872(3)
C36_4 C 0.72793(13) 0.03338(12) 0.2093(3)
C37_4 C 0.71923(11) 0.05573(12) 0.2166(3)
C38_4 C 0.72581(11) 0.07534(12) 0.1953(3)
C39_4 C 0.71237(11) 0.09082(11) 0.2173(3)
C40_4 C 0.71106(13) 0.11482(12) 0.2085(3)
C41_4 C 0.89575(14) 0.09409(12) 0.0840(3)
C42_4 C 0.87643(11) 0.10143(11) 0.1125(3)
C43_4 C 0.87521(11) 0.11389(11) 0.1552(3)
C44_4 C 0.85344(11) 0.11430(11) 0.1679(3)
C45_4 C 0.84223(13) 0.12503(12) 0.2100(3)
C121_4 C 0.90604(14) 0.15236(14) 0.1141(4)
C122_4 C 0.90663(11) 0.14107(11) 0.1628(3)
C123_4 C 0.89311(10) 0.12449(11) 0.1813(3)
C124_4 C 0.90084(11) 0.12069(11) 0.2291(3)
C125_4 C 0.89280(13) 0.10492(12) 0.2670(3)
C126_4 C 0.94569(15) 0.09720(13) 0.3857(4)
C127_4 C 0.96653(12) 0.10697(12) 0.3688(3)
C128_4 C 0.98765(12) 0.10126(12) 0.3798(3)
C134_4 C 0.98889(10) 0.18020(11) 0.1341(3)
C135_4 C 0.97371(13) 0.18625(12) 0.0936(3)
C146_4 C 0.94476(13) 0.50087(12) 0.1809(3)
C147_4 C 0.94034(10) 0.48879(10) 0.1338(2)
C148_4 C 0.92229(10) 0.47606(10) 0.1211(2)
C149_4 C 0.92693(11) 0.46849(10) 0.0734(2)
C150_4 C 0.91393(13) 0.45409(11) 0.0406(3)
H4_4 H 0.9774 0.0360 0.3509
H5_4 H 0.9871 0.0556 0.3190
H6_4 H 0.9641 0.0582 0.3457
H19_4 H 0.9046 0.4188 0.1873
H20_4 H 0.9231 0.4301 0.1547
H21_4 H 0.9012 0.4221 0.1288
H22_4 H 0.8708 0.5121 0.1592
H23_4 H 0.8954 0.5139 0.1404
H24_4 H 0.8900 0.5160 0.1983
H37_4 H 0.7833 0.1059 0.2205
H38_4 H 0.7626 0.1203 0.2073
H39_4 H 0.7603 0.1003 0.2448
H40_4 H 0.7377 0.0563 0.0518
H41_4 H 0.7393 0.0384 0.0947
H42_4 H 0.7200 0.0557 0.0952
H43_4 H 0.7262 0.0251 0.2401
H44_4 H 0.7200 0.0262 0.1824
H45_4 H 0.7433 0.0342 0.2007
H46_4 H 0.6958 0.1191 0.2054
H47_4 H 0.7177 0.1225 0.2366
H48_4 H 0.7188 0.1185 0.1779
H49_4 H 0.8911 0.0852 0.0558
H50_4 H 0.9037 0.1067 0.0718
H51_4 H 0.9052 0.0855 0.1057
H52_4 H 0.8266 0.1252 0.2037
H53_4 H 0.8451 0.1170 0.2407
H54_4 H 0.8475 0.1399 0.2134
H145_4 H 0.9126 0.1667 0.1174
H146_4 H 0.8910 0.1539 0.1031
H147_4 H 0.9142 0.1439 0.0895
H148_4 H 0.9050 0.0998 0.2872
H149_4 H 0.8860 0.0926 0.2503
H150_4 H 0.8822 0.1121 0.2885
H151_4 H 0.9349 0.1087 0.3903
H152_4 H 0.9480 0.0896 0.4173
H153_4 H 0.9405 0.0869 0.3607
H160_4 H 0.9604 0.1777 0.0967
H161_4 H 0.9805 0.1833 0.0614
H162_4 H 0.9702 0.2017 0.0961
H175_4 H 0.9603 0.5040 0.1834
H176_4 H 0.9402 0.4921 0.2093
H177_4 H 0.9366 0.5145 0.1808
H178_4 H 0.9189 0.4556 0.0062
H179_4 H 0.8986 0.4581 0.0428
H180_4 H 0.9157 0.4390 0.0513
N66_4 N 0.85327(9) 0.40782(8) 0.2948(2)
Ag16_4 Ag 0.897860(9) 0.325840(9) 0.47553(2)
Ag17_4 Ag 0.882630(9) 0.290390(9) 0.56229(2)
Ag18_4 Ag 0.846390(8) 0.306550(9) 0.47178(2)
Ag19_4 Ag 0.993980(8) 0.370690(8) 0.73020(2)
Ag28_4 Ag 0.964960(8) 0.467470(8) 0.997430(19)
N4_4 N 0.77868(10) 0.27304(10) 0.6967(2)
N31_4 N 0.91828(9) 0.32011(9) 0.5352(2)
N32_4 N 0.91244(9) 0.30513(9) 0.5702(2)
N33_4 N 0.85095(9) 0.27956(9) 0.5638(2)
N34_4 N 0.83592(9) 0.28688(9) 0.5299(2)
N35_4 N 0.85552(9) 0.33044(9) 0.4209(2)
N36_4 N 0.87653(9) 0.33676(9) 0.4211(2)
N37_4 N 0.98206(9) 0.34964(9) 0.6762(2)
N38_4 N 0.99003(9) 0.32894(9) 0.6763(2)
N55_4 N 0.98376(8) 0.45386(8) 0.9415(2)
C6_4 C 0.77499(12) 0.24319(14) 0.5818(3)
C7_4 C 0.78103(11) 0.25759(12) 0.6240(3)
C8_4 C 0.80026(11) 0.26983(12) 0.6306(3)
C9_4 C 0.79786(12) 0.27921(12) 0.6778(3)
C10_4 C 0.81254(14) 0.29337(14) 0.7059(3)
C26_4 C 0.82552(13) 0.40074(12) 0.4115(3)
C27_4 C 0.83901(11) 0.39832(10) 0.3661(2)
C28_4 C 0.85245(11) 0.38138(10) 0.3511(3)
C29_4 C 0.86112(10) 0.38791(10) 0.3056(3)
C30_4 C 0.87611(12) 0.37652(11) 0.2715(3)
C76_4 C 0.94714(13) 0.34724(12) 0.5208(3)
C77_4 C 0.93622(11) 0.33059(11) 0.5513(3)
C78_4 C 0.94196(12) 0.32217(11) 0.5976(3)
C79_4 C 0.92671(11) 0.30627(11) 0.6081(3)
C80_4 C 0.92412(13) 0.29194(13) 0.6528(3)
C81_4 C 0.85205(13) 0.26146(14) 0.6458(3)
C82_4 C 0.83997(11) 0.27150(11) 0.6027(2)
C83_4 C 0.81799(11) 0.27385(12) 0.5955(3)
C84_4 C 0.81620(11) 0.28364(12) 0.5487(3)
C85_4 C 0.79649(14) 0.28954(12) 0.5196(3)
C86_4 C 0.82032(12) 0.34266(12) 0.3877(3)
C87_4 C 0.84387(10) 0.34510(11) 0.3956(2)
C88_4 C 0.85776(10) 0.36134(11) 0.3790(2)
C89_4 C 0.87820(11) 0.35543(11) 0.3957(3)
C90_4 C 0.89956(13) 0.36671(12) 0.3891(3)
C91_4 C 0.95161(13) 0.37039(13) 0.6410(4)
C92_4 C 0.96400(11) 0.34996(12) 0.6476(3)
C93_4 C 0.96026(11) 0.32908(12) 0.6297(3)
C94_4 C 0.97701(11) 0.31669(11) 0.6479(3)
C95_4 C 0.98149(13) 0.29287(12) 0.6414(3)
C104_4 C 0.99520(11) 0.40881(11) 0.8074(3)
C105_4 C 0.98064(12) 0.42200(11) 0.7758(3)
C136_4 C 0.95849(12) 0.42918(11) 0.8995(3)
C137_4 C 0.98036(10) 0.43775(10) 0.9089(3)
H7_4 H 0.7709 0.2289 0.5946
H8_4 H 0.7874 0.2417 0.5592
H9_4 H 0.7627 0.2495 0.5638
H10_4 H 0.8040 0.3030 0.7272
H11_4 H 0.8212 0.3020 0.6827
H12_4 H 0.8222 0.2845 0.7264
H31_4 H 0.8256 0.4159 0.4220
H32_4 H 0.8315 0.3917 0.4381
H33_4 H 0.8106 0.3962 0.4042
H34_4 H 0.8730 0.3809 0.2372
H35_4 H 0.8741 0.3608 0.2748
H36_4 H 0.8911 0.3803 0.2798
H91_4 H 0.9484 0.3421 0.4865
H92_4 H 0.9616 0.3500 0.5342
H93_4 H 0.9386 0.3606 0.5214
H94_4 H 0.9087 0.2894 0.6590
H95_4 H 0.9307 0.2990 0.6818
H96_4 H 0.9313 0.2781 0.6467
H97_4 H 0.8661 0.2560 0.6342
H98_4 H 0.8435 0.2495 0.6595
H99_4 H 0.8544 0.2724 0.6716
H100_4 H 0.8007 0.2986 0.4912
H101_4 H 0.7864 0.2976 0.5409
H102_4 H 0.7894 0.2763 0.5076
H103_4 H 0.8151 0.3300 0.4061
H104_4 H 0.8174 0.3407 0.3522
H105_4 H 0.8128 0.3557 0.3995
H106_4 H 0.9092 0.3631 0.4168
H107_4 H 0.8972 0.3824 0.3882
H108_4 H 0.9062 0.3620 0.3578
H109_4 H 0.9519 0.3787 0.6720
H110_4 H 0.9582 0.3789 0.6143
H111_4 H 0.9366 0.3670 0.6325
H112_4 H 0.9970 0.2907 0.6359
H113_4 H 0.9770 0.2850 0.6713
H114_4 H 0.9734 0.2874 0.6127
H124_4 H 0.9846 0.4201 0.7409
H125_4 H 0.9656 0.4173 0.7808
H126_4 H 0.9820 0.4373 0.7849
H163_4 H 0.9495 0.4313 0.9291
H164_4 H 0.9594 0.4137 0.8920
H165_4 H 0.9520 0.4368 0.8713
Ag6_4 Ag 0.169750(8) 0.053670(9) 0.33589(2)
N9_4 N 0.16946(9) 0.00690(9) 0.3078(2)
N10_5 N 0.17533(9) 0.02069(9) 0.3453(2)
C24_5 C 0.18041(10) 0.00895(10) 0.3856(3)
C25_5 C 0.18800(12) 0.01889(13) 0.4328(3)
H28_5 H 0.1879 0.0347 0.4296
H29_5 H 0.2028 0.0139 0.4400
H30_5 H 0.1783 0.0146 0.4600
Ag35_4 Ag 0.149900(8) 0.017810(8) 0.25018(2)
N65_4 N 0.16024(9) 0.08577(8) 0.3324(2)
Ag1_5 Ag 0.207653(11) 0.773931(9) 0.26873(2)
Ag2_2 Ag 0.236148(10) 0.752487(9) 0.17432(2)
Ag26_5 Ag 0.117070(9) 0.691550(10) 0.04222(2)
Ag27_5 Ag 0.097650(9) 0.743410(9) 0.02404(2)
N1_5 N 0.19084(10) 0.75704(10) 0.2142(2)
N2_5 N 0.20326(10) 0.74748(10) 0.1785(2)
N51_5 N 0.12521(9) 0.71647(10) 0.0907(2)
N52_5 N 0.11908(9) 0.73784(10) 0.0819(2)
C1_5 C 0.15225(14) 0.76489(14) 0.2335(3)
C2_5 C 0.16998(12) 0.75539(12) 0.2017(3)
C3_5 C 0.16822(12) 0.74417(12) 0.1569(3)
C4_5 C 0.18959(13) 0.73957(12) 0.1436(3)
C5_5 C 0.19819(13) 0.72863(14) 0.0984(3)
C125_5 C 0.14508(12) 0.64280(13) 0.0170(3)
C126_5 C 0.15280(13) 0.69569(15) 0.1357(4)
C127_5 C 0.14303(12) 0.71653(12) 0.1188(3)
C128_5 C 0.14874(12) 0.73765(12) 0.1298(3)
C129_5 C 0.13314(11) 0.75030(12) 0.1064(3)
C130_5 C 0.13067(12) 0.77474(15) 0.1061(3)
H1_5 H 0.1586 0.7713 0.2634
H2_5 H 0.1421 0.7534 0.2430
H3_5 H 0.1446 0.7761 0.2147
H4_5 H 0.2140 0.7274 0.1009
H5_5 H 0.1944 0.7371 0.0690
H6_5 H 0.1918 0.7141 0.0957
H148_5 H 0.1502 0.6550 0.0372
H149_5 H 0.1574 0.6360 0.0003
H150_5 H 0.1379 0.6322 0.0385
H151_5 H 0.1413 0.6849 0.1403
H152_5 H 0.1604 0.6980 0.1673
H153_5 H 0.1631 0.6905 0.1107
H154_5 H 0.1241 0.7793 0.0747
H155_5 H 0.1450 0.7815 0.1097
H156_5 H 0.1214 0.7792 0.1338
Ag37_4 Ag 0.210950(9) 0.438480(9) 0.04870(2)
Ag38_4 Ag 0.155950(9) 0.426230(9) 0.04735(2)
N61_2 N 0.26840(9) 0.75981(10) 0.1637(2)
N63_5 N 0.22304(11) 0.79445(10) 0.3188(2)
Ag7_5 Ag 0.153270(8) 0.559460(9) 0.88001(2)
Ag8_2 Ag 0.188480(9) 0.539050(9) 0.79870(2)
Ag9_2 Ag 0.176230(9) 0.594050(9) 0.79735(2)
Ag13_5 Ag 0.190880(9) 0.871740(8) 0.51693(2)
Ag14_5 Ag 0.208270(8) 0.906270(9) 0.43426(2)
Ag15_5 Ag 0.166380(8) 0.920740(8) 0.51736(2)
Ag22_5 Ag 0.083250(9) 0.815730(9) 0.71691(2)
Ag23_5 Ag 0.032600(9) 0.798910(9) 0.71504(2)
Ag24_5 Ag 0.049820(8) 0.831050(9) 0.61821(2)
Ag25_5 Ag 0.087730(9) 0.700630(9) 0.94362(2)
N5_2 N 0.24469(11) 0.79899(10) 0.3157(2)
N13_5 N 0.16172(9) 0.52721(9) 0.8861(2)
N14_5 N 0.17589(9) 0.51865(9) 0.8517(2)
N15_4 N 0.19061(9) 0.45316(9) 0.9988(2)
N16_4 N 0.16858(9) 0.44898(9) 0.9988(2)
N17_5 N 0.15504(9) 0.60655(10) 0.8494(2)
N18_5 N 0.14688(9) 0.59220(9) 0.8835(2)
N25_5 N 0.21180(9) 0.86065(9) 0.4632(2)
N26_5 N 0.21919(9) 0.87479(9) 0.4278(2)
N27_5 N 0.19471(9) 0.93673(9) 0.4346(2)
N28_5 N 0.17857(8) 0.94326(9) 0.4661(2)
N29_5 N 0.15292(8) 0.89592(8) 0.5609(2)
N30_5 N 0.16525(9) 0.87775(9) 0.5645(2)
N43_5 N 0.07286(9) 0.79596(9) 0.7744(2)
N44_5 N 0.05197(9) 0.78835(9) 0.7715(2)
N45_5 N 0.01222(9) 0.80693(10) 0.6582(2)
N46_5 N 0.01814(9) 0.82016(9) 0.6195(2)
N47_5 N 0.08206(9) 0.84055(9) 0.6191(2)
N48_5 N 0.09422(9) 0.83549(9) 0.6603(2)
N49_5 N 0.10362(9) 0.67111(10) 0.9481(2)
N50_5 N 0.11601(9) 0.66747(10) 0.9892(2)
N53_5 N 0.08043(9) 0.74885(9) 0.9591(2)
N54_5 N 0.07592(9) 0.73155(9) 0.9288(2)
C6_5 C 0.00681(14) 0.52499(12) 0.3318(3)
C11_5 C 0.27104(14) 0.82458(14) 0.3508(3)
C12_5 C 0.24846(13) 0.81599(12) 0.3457(3)
C13_5 C 0.22947(12) 0.82255(12) 0.3679(3)
C14_5 C 0.21365(13) 0.80838(12) 0.3503(3)
C15_5 C 0.19000(13) 0.80740(14) 0.3603(4)
C21_5 C 0.16503(12) 0.96772(13) 0.2938(3)
C22_5 C 0.17080(11) 0.98639(11) 0.3256(3)
C23_5 C 0.17784(11) 0.98734(11) 0.3747(3)
C31_5 C 0.14441(14) 0.51764(16) 0.9649(3)
C32_5 C 0.15914(11) 0.51263(12) 0.9220(3)
C33_5 C 0.17139(10) 0.49451(11) 0.9122(3)
C34_5 C 0.18164(11) 0.49880(11) 0.8674(3)
C35_5 C 0.19655(12) 0.48529(14) 0.8372(3)
C36_5 C 0.21662(12) 0.47793(13) 0.9593(3)
C37_5 C 0.19427(12) 0.46923(11) 0.9666(3)
C38_5 C 0.17466(12) 0.47581(11) 0.9453(3)
C39_5 C 0.15918(11) 0.46237(11) 0.9673(3)
C40_5 C 0.13518(12) 0.46106(13) 0.9585(3)
C41_5 C 0.15591(12) 0.64575(14) 0.8340(3)
C42_5 C 0.14857(11) 0.62643(11) 0.8625(3)
C43_5 C 0.13611(11) 0.62521(11) 0.9052(3)
C44_5 C 0.13570(11) 0.60344(11) 0.9179(3)
C45_5 C 0.12497(12) 0.59223(13) 0.9600(3)
C61_5 C 0.20992(12) 0.82159(14) 0.4796(3)
C62_5 C 0.21553(11) 0.84039(12) 0.4478(3)
C63_5 C 0.22532(11) 0.84112(12) 0.4013(3)
C64_5 C 0.22756(12) 0.86316(12) 0.3900(3)
C65_5 C 0.23694(13) 0.87386(14) 0.3452(3)
C66_5 C 0.21331(13) 0.94961(13) 0.3586(3)
C67_5 C 0.19659(11) 0.95174(11) 0.3988(3)
C68_5 C 0.18160(10) 0.96838(10) 0.4066(2)
C69_5 C 0.17090(10) 0.96200(11) 0.4498(3)
C70_5 C 0.15291(11) 0.97341(12) 0.4770(3)
C71_5 C 0.11571(11) 0.90826(11) 0.5794(3)
C72_5 C 0.13293(11) 0.89199(11) 0.5779(3)
C73_5 C 0.13220(10) 0.86990(10) 0.5923(3)
C74_5 C 0.15256(11) 0.86202(12) 0.5833(3)
C75_5 C 0.16145(11) 0.83949(12) 0.5896(3)
C106_5 C 0.10514(11) 0.79234(13) 0.8271(3)
C107_5 C 0.08185(11) 0.78802(11) 0.8155(3)
C108_5 C 0.06659(11) 0.77515(11) 0.8399(3)
C109_5 C 0.04811(11) 0.77593(11) 0.8111(3)
C110_5 C 0.02640(11) 0.76599(12) 0.8184(3)
C114_5 C 0.00158(11) 0.82120(11) 0.5877(3)
C115_5 C 0.00327(13) 0.83480(14) 0.5423(3)
C116_5 C 0.08511(12) 0.86053(13) 0.5403(3)
C117_5 C 0.09381(11) 0.85366(11) 0.5905(3)
C118_5 C 0.11368(11) 0.85746(10) 0.6127(3)
C119_5 C 0.11321(11) 0.84537(11) 0.6560(3)
C120_5 C 0.13010(11) 0.84251(12) 0.6958(3)
C121_5 C 0.09764(14) 0.65604(14) 0.8641(4)
C122_5 C 0.10893(11) 0.65663(11) 0.9128(3)
C123_5 C 0.12551(11) 0.64311(10) 0.9313(3)
C124_5 C 0.12931(11) 0.65084(11) 0.9791(3)
C131_5 C 0.08030(11) 0.78882(14) 0.9545(3)
C132_5 C 0.07722(11) 0.76693(11) 0.9324(3)
C133_5 C 0.07063(11) 0.76143(11) 0.8841(3)
C134_5 C 0.06980(11) 0.73889(10) 0.8841(3)
C135_5 C 0.06375(12) 0.72371(13) 0.8436(3)
H7_5 H 0.0211 0.5209 0.3446
H8_5 H 0.0083 0.5374 0.3092
H9_5 H 0.0005 0.5127 0.3138
H13_5 H 0.2814 0.8137 0.3388
H14_5 H 0.2740 0.8278 0.3858
H15_5 H 0.2725 0.8379 0.3311
H16_5 H 0.1827 0.7999 0.3329
H17_5 H 0.1842 0.8221 0.3633
H18_5 H 0.1874 0.7995 0.3913
H25_5 H 0.1555 0.9726 0.2670
H26_5 H 0.1576 0.9568 0.3138
H27_5 H 0.1782 0.9614 0.2796
H37_5 H 0.1441 0.5333 0.9705
H38_5 H 0.1297 0.5126 0.9573
H39_5 H 0.1497 0.5103 0.9948
H40_5 H 0.1937 0.4877 0.8018
H41_5 H 0.2116 0.4893 0.8447
H42_5 H 0.1943 0.4700 0.8452
H43_5 H 0.2249 0.4762 0.9901
H44_5 H 0.2238 0.4700 0.9324
H45_5 H 0.2158 0.4933 0.9507
H46_5 H 0.1309 0.4458 0.9554
H47_5 H 0.1275 0.4677 0.9866
H48_5 H 0.1315 0.4688 0.9279
H49_5 H 0.1648 0.6411 0.8058
H50_5 H 0.1433 0.6537 0.8218
H51_5 H 0.1645 0.6552 0.8557
H52_5 H 0.1248 0.5766 0.9537
H53_5 H 0.1330 0.5951 0.9907
H54_5 H 0.1101 0.5975 0.9634
H73_5 H 0.2148 0.8243 0.5137
H74_5 H 0.2170 0.8086 0.4667
H75_5 H 0.1942 0.8195 0.4794
H76_5 H 0.2284 0.8868 0.3370
H77_5 H 0.2366 0.8637 0.3171
H78_5 H 0.2519 0.8781 0.3520
H79_5 H 0.2259 0.9417 0.3714
H80_5 H 0.2178 0.9641 0.3475
H81_5 H 0.2071 0.9416 0.3305
H82_5 H 0.1435 0.9627 0.4928
H83_5 H 0.1444 0.9821 0.4534
H84_5 H 0.1591 0.9829 0.5024
H85_5 H 0.1217 0.9224 0.5703
H86_5 H 0.1097 0.9090 0.6131
H87_5 H 0.1043 0.9043 0.5559
H88_5 H 0.1746 0.8379 0.5695
H89_5 H 0.1506 0.8289 0.5788
H90_5 H 0.1650 0.8370 0.6247
H98_5 H 0.0005 0.5935 0.4095
H127_5 H 0.1090 0.8070 0.8162
H128_5 H 0.1075 0.7911 0.8630
H129_5 H 0.1142 0.7818 0.8097
H130_5 H 0.0151 0.7768 0.8116
H131_5 H 0.0247 0.7537 0.7956
H132_5 H 0.0250 0.7609 0.8527
H136_5 H 0.0109 0.8483 0.5503
H137_5 H 0.0113 0.8269 0.5167
H139_5 H 0.0698 0.8565 0.5378
H140_5 H 0.0866 0.8763 0.5366
H141_5 H 0.0933 0.8532 0.5140
H142_5 H 0.1234 0.8444 0.7285
H143_5 H 0.1363 0.8279 0.6934
H144_5 H 0.1416 0.8533 0.6914
H145_5 H 0.0833 0.6626 0.8674
H146_5 H 0.0961 0.6410 0.8531
H147_5 H 0.1061 0.6642 0.8395
H157_5 H 0.0735 0.7893 0.9875
H158_5 H 0.0736 0.7997 0.9331
H159_5 H 0.0958 0.7919 0.9577
H160_5 H 0.0723 0.7104 0.8467
H161_5 H 0.0667 0.7305 0.8114
H162_5 H 0.0483 0.7202 0.8461
Ag33_2 Ag 0.262000(9) 0.784860(11) 0.25823(2)
N67_2 N 0.20316(9) 0.55939(9) 0.7488(2)
N68_2 N 0.19898(9) 0.58142(9) 0.7488(2)
H61_5 H 0.7126 0.0040 0.8120
Ag39_2 Ag 0.678850(8) 0.015120(8) 0.735490(19)
Ag5_2 Ag 0.767810(8) 0.600100(8) 0.00018(2)
Ag12_4 Ag 0.758170(8) 0.877880(9) 0.00207(2)
H68_5 H 0.7655 0.8168 0.0019
N64_2 N 0.75690(9) 0.58054(9) 0.0578(2)
N66_5 N 0.84218(8) 0.60327(9) 0.0448(2)
N69_4 N 0.75794(9) 0.92324(9) 0.0388(2)
N70_4 N 0.76771(9) 0.90369(9) 0.0471(2)
Ag3_4 Ag 0.965140(11) 0.512000(9) 0.50823(2)
Ag4_5 Ag 0.820090(8) 0.614570(8) 0.993360(19)
Ag10_5 Ag 0.720640(8) 0.889790(8) 0.90983(2)
Ag11_4 Ag 0.734880(8) 0.928850(8) 0.985490(19)
Ag16_5 Ag 0.924160(9) 0.647860(9) 0.22553(2)
Ag17_5 Ag 0.959610(9) 0.632630(9) 0.31229(2)
Ag18_5 Ag 0.943450(9) 0.596390(8) 0.22178(2)
Ag19_5 Ag 0.879310(8) 0.743980(8) 0.48020(2)
Ag20_5 Ag 0.930030(9) 0.764020(9) 0.47506(2)
Ag21_5 Ag 0.899050(8) 0.779890(8) 0.57030(2)
Ag28_5 Ag 0.782530(8) 0.714960(8) 0.747430(19)
Ag29_5 Ag 0.773140(8) 0.768280(8) 0.749050(19)
Ag30_5 Ag 0.754750(8) 0.737490(8) 0.845570(19)
N3_4 N 0.99019(10) 0.51840(9) 0.4137(2)
N4_5 N 0.97696(10) 0.52868(10) 0.4467(2)
N7_5 N 0.79826(9) 0.62979(8) 0.9472(2)
N8_5 N 0.77662(9) 0.62400(9) 0.9501(2)
N11_2 N 0.83577(8) 0.58976(9) 0.0824(2)
N19_5 N 0.70543(8) 0.91930(9) 0.9018(2)
N20_5 N 0.71221(9) 0.93586(9) 0.9318(2)
N21_2 N 0.67324(9) 0.99206(9) 0.7888(2)
N22_2 N 0.65369(9) 0.98229(9) 0.7971(2)
N23_5 N 0.74940(9) 0.85404(9) 0.9506(2)
N24_5 N 0.73480(9) 0.85971(9) 0.9152(2)
N31_5 N 0.92989(9) 0.66828(9) 0.2852(2)
N32_5 N 0.94487(9) 0.66244(9) 0.3202(2)
N33_5 N 0.97044(9) 0.60095(9) 0.3138(2)
N34_5 N 0.96312(9) 0.58592(9) 0.2799(2)
N35_5 N 0.91956(9) 0.60552(9) 0.1709(2)
N36_5 N 0.91324(9) 0.62653(9) 0.1711(2)
N37_5 N 0.90036(9) 0.73206(9) 0.4262(2)
N38_5 N 0.92106(9) 0.74003(9) 0.4263(2)
N39_5 N 0.94283(8) 0.78426(9) 0.5282(2)
N40_5 N 0.93039(9) 0.79155(9) 0.5663(2)
N41_5 N 0.86862(9) 0.76638(9) 0.5766(2)
N42_5 N 0.86054(9) 0.75266(9) 0.5415(2)
N55_5 N 0.79614(8) 0.73376(8) 0.6915(2)
N56_5 N 0.79146(8) 0.75553(8) 0.6915(2)
N57_5 N 0.75909(8) 0.78312(8) 0.8101(2)
N58_5 N 0.75252(9) 0.77092(9) 0.8494(2)
N59_5 N 0.76105(9) 0.70452(9) 0.8457(2)
N60_5 N 0.77368(8) 0.69615(9) 0.8082(2)
C7_5 C 0.99241(12) 0.53103(11) 0.3740(3)
C8_5 C 0.98017(12) 0.55026(11) 0.3806(3)
C9_5 C 0.97079(12) 0.54786(12) 0.4278(3)
C10_5 C 0.95663(14) 0.56254(14) 0.4559(3)
C16_5 C 0.82161(11) 0.65744(12) 0.9090(3)
C17_5 C 0.79979(11) 0.64730(10) 0.9185(2)
C18_5 C 0.77954(10) 0.65347(10) 0.9017(2)
C19_5 C 0.76523(11) 0.63853(10) 0.9230(2)
C20_5 C 0.74123(11) 0.63595(12) 0.9172(3)
C26_5 C 0.84926(12) 0.57552(13) 0.1615(3)
C27_5 C 0.85168(10) 0.58901(11) 0.1161(2)
C28_5 C 0.86862(10) 0.60245(11) 0.1011(3)
C29_5 C 0.86209(10) 0.61112(10) 0.0556(3)
C30_5 C 0.87348(11) 0.62611(12) 0.0215(3)
C46_5 C 0.68175(12) 0.91265(13) 0.8298(3)
C47_5 C 0.69190(11) 0.92729(10) 0.8679(2)
C48_5 C 0.68945(10) 0.94965(10) 0.8753(2)
C49_5 C 0.70283(10) 0.95409(10) 0.9164(2)
C50_5 C 0.70662(12) 0.97485(13) 0.9429(3)
C51_5 C 0.71141(11) 0.98822(14) 0.8138(3)
C52_5 C 0.68831(11) 0.98198(11) 0.8165(2)
C53_5 C 0.67833(10) 0.96527(10) 0.8436(2)
C54_5 C 0.65655(11) 0.96636(10) 0.8296(3)
C55_5 C 0.63809(12) 0.95266(13) 0.8463(3)
C56_5 C 0.77286(13) 0.82332(13) 0.9733(3)
C57_5 C 0.75639(10) 0.83405(11) 0.9404(3)
C58_5 C 0.74651(10) 0.82627(10) 0.8977(2)
C59_5 C 0.73292(10) 0.84327(11) 0.8833(3)
C60_5 C 0.71811(12) 0.84503(13) 0.8395(3)
C76_5 C 0.90276(12) 0.69714(13) 0.2708(3)
C77_5 C 0.91941(11) 0.68622(11) 0.3013(3)
C78_5 C 0.92783(11) 0.69196(12) 0.3476(3)
C79_5 C 0.94373(11) 0.67671(11) 0.3581(3)
C80_5 C 0.95806(13) 0.67412(13) 0.4028(3)
C81_5 C 0.98854(14) 0.60205(13) 0.3958(3)
C82_5 C 0.97850(11) 0.58997(11) 0.3527(2)
C83_5 C 0.97615(12) 0.56799(11) 0.3455(3)
C84_5 C 0.96636(12) 0.56620(11) 0.2987(3)
C85_5 C 0.96046(12) 0.54649(14) 0.2696(3)
C86_5 C 0.90734(12) 0.57032(12) 0.1377(3)
C87_5 C 0.90490(11) 0.59387(10) 0.1456(2)
C88_5 C 0.88866(11) 0.60776(10) 0.1290(2)
C89_5 C 0.89457(11) 0.62820(11) 0.1457(3)
C90_5 C 0.88329(12) 0.64956(13) 0.1391(3)
C91_5 C 0.87961(13) 0.70161(13) 0.3910(4)
C92_5 C 0.90004(12) 0.71400(11) 0.3976(3)
C93_5 C 0.92092(12) 0.71026(11) 0.3797(3)
C94_5 C 0.93331(11) 0.72701(11) 0.3979(3)
C95_5 C 0.95713(12) 0.73149(13) 0.3914(3)
C96_5 C 0.98085(12) 0.78445(14) 0.5009(3)
C97_5 C 0.96319(11) 0.79065(11) 0.5361(3)
C98_5 C 0.96419(11) 0.80210(11) 0.5808(3)
C99_5 C 0.94312(11) 0.80222(11) 0.5987(3)
C100_5 C 0.93393(12) 0.81252(14) 0.6444(3)
C101_5 C 0.85893(12) 0.78148(12) 0.6584(3)
C102_5 C 0.85435(10) 0.76770(11) 0.6140(2)
C103_5 C 0.83665(10) 0.75434(11) 0.6038(3)
C104_5 C 0.84119(11) 0.74520(11) 0.5574(3)
C105_5 C 0.82800(11) 0.73064(12) 0.5258(3)
C111_5 C 0.98149(13) 0.78479(14) 0.6862(3)
C112_5 C 0.99196(11) 0.80013(11) 0.6499(3)
C113_5 C 0.98448(11) 0.80864(11) 0.6053(3)
C136_5 C 0.82082(11) 0.70849(12) 0.6495(3)
C137_5 C 0.81225(10) 0.73036(10) 0.6589(3)
C138_5 C 0.81828(10) 0.75009(10) 0.6380(2)
C139_5 C 0.80455(10) 0.76562(10) 0.6594(2)
C140_5 C 0.80272(11) 0.78925(12) 0.6504(3)
C141_5 C 0.76453(11) 0.82140(12) 0.7862(3)
C142_5 C 0.75784(11) 0.80399(11) 0.8220(3)
C143_5 C 0.75028(10) 0.80590(10) 0.8707(2)
C144_5 C 0.74718(10) 0.78478(10) 0.8863(2)
C145_5 C 0.73819(12) 0.77646(13) 0.9341(3)
C146_5 C 0.74913(12) 0.69476(13) 0.9309(3)
C147_5 C 0.76121(10) 0.69034(10) 0.8838(2)
C148_5 C 0.77394(10) 0.67229(10) 0.8711(2)
C149_5 C 0.78151(10) 0.67693(11) 0.8234(2)
C150_5 C 0.79591(11) 0.66393(13) 0.7906(3)
H10_5 H 0.9470 0.5540 0.4772
H11_5 H 0.9480 0.5712 0.4327
H12_5 H 0.9655 0.5722 0.4764
H19_5 H 0.8312 0.6546 0.9373
H20_5 H 0.8199 0.6731 0.9047
H21_5 H 0.8279 0.6512 0.8788
H22_5 H 0.7379 0.6208 0.9092
H23_5 H 0.7361 0.6454 0.8904
H24_5 H 0.7340 0.6400 0.9483
H31_5 H 0.8341 0.5756 0.1720
H32_5 H 0.8583 0.5815 0.1881
H33_5 H 0.8538 0.5606 0.1542
H35_5 H 0.8892 0.6241 0.0248
H36_5 H 0.8697 0.6411 0.0298
H55_5 H 0.6926 0.9024 0.8174
H56_5 H 0.6698 0.9046 0.8450
H57_5 H 0.6762 0.9214 0.8021
H58_5 H 0.7055 0.9725 0.9788
H59_5 H 0.7211 0.9803 0.9348
H60_5 H 0.6957 0.9855 0.9325
H62_5 H 0.7190 0.9830 0.8436
H63_5 H 0.7180 0.9817 0.7842
H64_5 H 0.6249 0.9615 0.8479
H65_5 H 0.6360 0.9408 0.8227
H66_5 H 0.6412 0.9467 0.8792
H67_5 H 0.7833 0.8341 0.9849
H69_5 H 0.7805 0.8121 0.9545
H70_5 H 0.7046 0.8520 0.8496
H71_5 H 0.7251 0.8537 0.8135
H72_5 H 0.7150 0.8305 0.8266
H91_5 H 0.9079 0.6984 0.2365
H92_5 H 0.9000 0.7116 0.2842
H93_5 H 0.8894 0.6886 0.2714
H94_5 H 0.9606 0.6587 0.4090
H95_5 H 0.9510 0.6807 0.4318
H96_5 H 0.9719 0.6813 0.3967
H97_5 H 0.9940 0.6161 0.3842
H99_5 H 0.9776 0.6044 0.4216
H100_5 H 0.9514 0.5507 0.2412
H101_5 H 0.9524 0.5364 0.2909
H102_5 H 0.9737 0.5394 0.2576
H103_5 H 0.9200 0.5651 0.1561
H104_5 H 0.9093 0.5674 0.1022
H105_5 H 0.8943 0.5628 0.1495
H106_5 H 0.8869 0.6592 0.1668
H107_5 H 0.8676 0.6472 0.1382
H108_5 H 0.8880 0.6562 0.1078
H109_5 H 0.8713 0.7019 0.4220
H110_5 H 0.8711 0.7082 0.3643
H111_5 H 0.8830 0.6866 0.3825
H112_5 H 0.9593 0.7470 0.3859
H113_5 H 0.9650 0.7270 0.4213
H114_5 H 0.9626 0.7234 0.3627
H115_5 H 0.9774 0.7705 0.4854
H116_5 H 0.9822 0.7956 0.4751
H117_5 H 0.9946 0.7832 0.5191
H118_5 H 0.9197 0.8187 0.6368
H119_5 H 0.9324 0.8016 0.6705
H120_5 H 0.9437 0.8240 0.6558
H121_5 H 0.8746 0.7821 0.6640
H122_5 H 0.8533 0.7961 0.6527
H123_5 H 0.8519 0.7752 0.6877
H124_5 H 0.8299 0.7346 0.4909
H125_5 H 0.8327 0.7156 0.5308
H126_5 H 0.8127 0.7320 0.5349
H133_5 H 0.9922 0.7742 0.6977
H134_5 H 0.9759 0.7930 0.7147
H135_5 H 0.9695 0.7772 0.6699
H138_5 H 0.9887 0.8382 0.5300
H163_5 H 0.8187 0.6995 0.6791
H164_5 H 0.8363 0.7094 0.6420
H165_5 H 0.8132 0.7020 0.6213
H166_5 H 0.7875 0.7937 0.6535
H167_5 H 0.8079 0.7926 0.6169
H168_5 H 0.8115 0.7971 0.6749
H169_5 H 0.7770 0.8164 0.7667
H170_5 H 0.7685 0.8345 0.8047
H171_5 H 0.7524 0.8247 0.7639
H172_5 H 0.7305 0.7628 0.9281
H173_5 H 0.7281 0.7871 0.9480
H174_5 H 0.7500 0.7740 0.9577
H175_5 H 0.7460 0.7103 0.9334
H176_5 H 0.7579 0.6902 0.9593
H177_5 H 0.7355 0.6866 0.9308
H178_5 H 0.7944 0.6689 0.7562
H179_5 H 0.7919 0.6486 0.7928
H180_5 H 0.8110 0.6657 0.8013
Ag32_4 Ag 0.997513(9) 0.486148(10) 0.42432(2)
Ag36_2 Ag 0.803670(9) 0.580250(8) 0.08589(2)
Ag40_2 Ag 0.627880(9) 0.991830(8) 0.75207(2)
N62_4 N 0.95101(10) 0.49469(11) 0.5657(2)
H34_5 H 0.8691 0.6230 0.9872
Ag4_6 Ag 0.135430(8) 0.070090(8) 0.243360(19)
Ag7_6 Ag 0.190540(9) 0.403270(8) 0.13001(2)
Ag25_6 Ag 0.049370(9) 0.337730(9) 0.19362(2)
Ag26_6 Ag 0.058450(10) 0.367070(9) 0.29222(2)
Ag27_6 Ag 0.006590(9) 0.347650(9) 0.27404(2)
Ag30_6 Ag 0.012510(8) 0.004750(8) 0.095570(19)
N2_6 N 0.00252(10) 0.45326(10) 0.4285(2)
N7_6 N 0.12021(8) 0.04826(9) 0.1972(2)
N8_6 N 0.12600(9) 0.02662(9) 0.2001(2)
N13_6 N 0.22279(9) 0.41172(9) 0.1361(2)
N14_6 N 0.23135(9) 0.42589(9) 0.1017(2)
N15_5 N 0.29684(9) 0.44061(9) 0.2488(2)
N16_5 N 0.30102(9) 0.41858(9) 0.2488(2)
N17_6 N 0.14345(10) 0.40504(9) 0.0994(2)
N18_6 N 0.15780(9) 0.39688(9) 0.1335(2)
N49_6 N 0.07889(10) 0.35362(9) 0.1981(2)
N50_6 N 0.08253(10) 0.36601(9) 0.2392(2)
N51_6 N 0.03353(10) 0.37521(9) 0.3407(2)
N52_6 N 0.01216(10) 0.36908(9) 0.3319(2)
N53_6 N 0.00115(9) 0.33043(9) 0.2091(2)
N54_6 N 0.01845(9) 0.32592(9) 0.1788(2)
N59_6 N 0.04548(9) 0.01105(9) 0.0957(2)
N60_6 N 0.05385(9) 0.02368(8) 0.0582(2)
C3_6 C 0.00583(12) 0.41822(12) 0.4069(3)
C4_6 C 0.01043(12) 0.43959(13) 0.3936(3)
C5_6 C 0.02137(14) 0.44819(13) 0.3484(3)
C16_6 C 0.09256(12) 0.07161(11) 0.1590(3)
C17_6 C 0.10270(10) 0.04979(11) 0.1685(2)
C18_6 C 0.09653(10) 0.02954(10) 0.1517(2)
C19_6 C 0.11147(10) 0.01523(11) 0.1730(2)
C31_6 C 0.23236(16) 0.39441(14) 0.2149(3)
C32_6 C 0.23737(12) 0.40914(11) 0.1720(3)
C33_6 C 0.25549(11) 0.42139(10) 0.1622(3)
C34_6 C 0.25120(11) 0.43164(11) 0.1174(3)
C35_6 C 0.26471(14) 0.44655(12) 0.0872(3)
C36_6 C 0.27207(13) 0.46662(12) 0.2093(3)
C37_6 C 0.28077(11) 0.44427(12) 0.2166(3)
C38_6 C 0.27419(11) 0.42466(12) 0.1953(3)
C39_6 C 0.28763(11) 0.40918(11) 0.2173(3)
C40_6 C 0.28894(13) 0.38518(12) 0.2085(3)
C41_6 C 0.10425(14) 0.40591(12) 0.0840(3)
C42_6 C 0.12357(11) 0.39857(11) 0.1125(3)
C43_6 C 0.12479(11) 0.38611(11) 0.1552(3)
C44_6 C 0.14656(11) 0.38570(11) 0.1679(3)
C45_6 C 0.15777(13) 0.37497(12) 0.2100(3)
C121_6 C 0.09396(14) 0.34764(14) 0.1141(4)
C122_6 C 0.09337(11) 0.35893(11) 0.1628(3)
C123_6 C 0.10689(10) 0.37551(11) 0.1813(3)
C124_6 C 0.09916(11) 0.37931(11) 0.2291(3)
C125_6 C 0.10720(13) 0.39508(12) 0.2670(3)
C126_6 C 0.05431(15) 0.40280(13) 0.3857(4)
C127_6 C 0.03347(12) 0.39303(12) 0.3688(3)
C128_6 C 0.01235(12) 0.39874(12) 0.3798(3)
C134_6 C 0.01111(10) 0.31980(11) 0.1341(3)
C135_6 C 0.02629(13) 0.31375(12) 0.0936(3)
C147_6 C 0.05966(10) 0.01121(10) 0.1338(2)
C148_6 C 0.07771(10) 0.02394(10) 0.1211(2)
C149_6 C 0.07307(11) 0.03151(10) 0.0734(2)
C150_6 C 0.08607(13) 0.04591(11) 0.0406(3)
H4_6 H 0.0226 0.4640 0.3509
H5_6 H 0.0129 0.4444 0.3190
H6_6 H 0.0359 0.4418 0.3457
H19_6 H 0.0954 0.0812 0.1873
H20_6 H 0.0769 0.0699 0.1547
H21_6 H 0.0988 0.0779 0.1288
H37_6 H 0.2167 0.3941 0.2205
H38_6 H 0.2374 0.3797 0.2073
H39_6 H 0.2397 0.3997 0.2448
H40_6 H 0.2623 0.4437 0.0518
H41_6 H 0.2607 0.4616 0.0947
H42_6 H 0.2800 0.4443 0.0952
H43_6 H 0.2738 0.4749 0.2401
H44_6 H 0.2800 0.4738 0.1824
H45_6 H 0.2567 0.4658 0.2007
H46_6 H 0.3042 0.3809 0.2054
H47_6 H 0.2823 0.3775 0.2366
H48_6 H 0.2812 0.3815 0.1779
H49_6 H 0.1089 0.4148 0.0558
H50_6 H 0.0963 0.3933 0.0718
H51_6 H 0.0948 0.4145 0.1057
H52_6 H 0.1734 0.3748 0.2037
H53_6 H 0.1549 0.3830 0.2407
H54_6 H 0.1525 0.3601 0.2134
H145_6 H 0.0874 0.3333 0.1174
H146_6 H 0.1090 0.3461 0.1031
H147_6 H 0.0858 0.3561 0.0895
H148_6 H 0.0950 0.4002 0.2872
H149_6 H 0.1140 0.4074 0.2503
H150_6 H 0.1178 0.3879 0.2885
H151_6 H 0.0651 0.3913 0.3903
H152_6 H 0.0520 0.4104 0.4173
H153_6 H 0.0595 0.4131 0.3607
H160_6 H 0.0396 0.3223 0.0967
H161_6 H 0.0195 0.3167 0.0614
H162_6 H 0.0298 0.2983 0.0961
H176_6 H 0.0598 0.0079 0.2093
H178_6 H 0.0811 0.0444 0.0062
H179_6 H 0.1014 0.0419 0.0428
H180_6 H 0.0843 0.0610 0.0513
Ag37_5 Ag 0.311520(9) 0.460950(9) 0.29870(2)
Ag38_5 Ag 0.323770(9) 0.405950(9) 0.29735(2)
N66_6 N 0.14673(9) 0.09218(8) 0.2948(2)
Ag3_5 Ag 0.238000(9) 0.215140(11) 0.75823(2)
Ag16_6 Ag 0.102140(9) 0.174160(9) 0.47553(2)
Ag17_6 Ag 0.117370(9) 0.209610(9) 0.56229(2)
Ag18_6 Ag 0.153610(8) 0.193450(9) 0.47178(2)
Ag19_6 Ag 0.006020(8) 0.129310(8) 0.73020(2)
Ag28_6 Ag 0.035040(8) 0.032530(8) 0.997430(19)
N3_5 N 0.23160(9) 0.24019(10) 0.6637(2)
N4_6 N 0.22132(10) 0.22696(10) 0.6967(2)
N31_6 N 0.08172(9) 0.17989(9) 0.5352(2)
N32_6 N 0.08756(9) 0.19487(9) 0.5702(2)
N33_6 N 0.14905(9) 0.22044(9) 0.5638(2)
N34_6 N 0.16408(9) 0.21312(9) 0.5299(2)
N35_6 N 0.14448(9) 0.16956(9) 0.4209(2)
N36_6 N 0.12347(9) 0.16324(9) 0.4211(2)
N37_6 N 0.01794(9) 0.15036(9) 0.6762(2)
N38_6 N 0.00997(9) 0.17106(9) 0.6763(2)
N55_6 N 0.01624(8) 0.04614(8) 0.9415(2)
C6_6 C 0.22501(12) 0.25681(14) 0.5818(3)
C7_6 C 0.21897(11) 0.24241(12) 0.6240(3)
C8_6 C 0.19974(11) 0.23017(12) 0.6306(3)
C9_6 C 0.20214(12) 0.22079(12) 0.6778(3)
C10_6 C 0.18746(14) 0.20663(14) 0.7059(3)
C26_6 C 0.17448(13) 0.09926(12) 0.4115(3)
C27_6 C 0.16099(11) 0.10168(10) 0.3661(2)
C28_6 C 0.14755(11) 0.11862(10) 0.3511(3)
C29_6 C 0.13888(10) 0.11209(10) 0.3056(3)
C30_6 C 0.12389(12) 0.12348(11) 0.2715(3)
C76_6 C 0.05286(13) 0.15276(12) 0.5208(3)
C77_6 C 0.06378(11) 0.16941(11) 0.5513(3)
C78_6 C 0.05804(12) 0.17783(11) 0.5976(3)
C79_6 C 0.07329(11) 0.19373(11) 0.6081(3)
C80_6 C 0.07588(13) 0.20806(13) 0.6528(3)
C81_6 C 0.14795(13) 0.23854(14) 0.6458(3)
C82_6 C 0.16003(11) 0.22850(11) 0.6027(2)
C83_6 C 0.18201(11) 0.22615(12) 0.5955(3)
C84_6 C 0.18380(11) 0.21636(12) 0.5487(3)
C85_6 C 0.20351(14) 0.21046(12) 0.5196(3)
C86_6 C 0.17968(12) 0.15734(12) 0.3877(3)
C87_6 C 0.15613(10) 0.15490(11) 0.3956(2)
C88_6 C 0.14224(10) 0.13866(11) 0.3790(2)
C89_6 C 0.12180(11) 0.14457(11) 0.3957(3)
C90_6 C 0.10044(13) 0.13329(12) 0.3891(3)
C91_6 C 0.04839(13) 0.12961(13) 0.6410(4)
C92_6 C 0.03600(11) 0.15004(12) 0.6476(3)
C93_6 C 0.03974(11) 0.17092(12) 0.6297(3)
C94_6 C 0.02299(11) 0.18331(11) 0.6479(3)
C95_6 C 0.01851(13) 0.20713(12) 0.6414(3)
C104_6 C 0.00480(11) 0.09119(11) 0.8074(3)
C105_6 C 0.01936(12) 0.07800(11) 0.7758(3)
C136_6 C 0.04151(12) 0.07082(11) 0.8995(3)
C137_6 C 0.01964(10) 0.06225(10) 0.9089(3)
H7_6 H 0.2291 0.2711 0.5946
H8_6 H 0.2126 0.2583 0.5592
H9_6 H 0.2373 0.2505 0.5638
H10_6 H 0.1960 0.1970 0.7272
H11_6 H 0.1788 0.1980 0.6827
H12_6 H 0.1778 0.2155 0.7264
H31_6 H 0.1744 0.0841 0.4220
H32_6 H 0.1685 0.1083 0.4381
H33_6 H 0.1894 0.1038 0.4042
H34_6 H 0.1270 0.1191 0.2372
H35_6 H 0.1259 0.1392 0.2748
H36_6 H 0.1089 0.1197 0.2798
H91_6 H 0.0516 0.1579 0.4865
H92_6 H 0.0384 0.1500 0.5342
H93_6 H 0.0614 0.1394 0.5214
H94_6 H 0.0913 0.2106 0.6590
H95_6 H 0.0693 0.2010 0.6818
H96_6 H 0.0687 0.2219 0.6467
H97_6 H 0.1339 0.2440 0.6342
H98_6 H 0.1565 0.2505 0.6595
H99_6 H 0.1456 0.2276 0.6716
H100_6 H 0.1993 0.2014 0.4912
H101_6 H 0.2136 0.2024 0.5409
H102_6 H 0.2106 0.2237 0.5076
H103_6 H 0.1849 0.1700 0.4061
H104_6 H 0.1826 0.1593 0.3522
H105_6 H 0.1872 0.1443 0.3995
H106_6 H 0.0908 0.1369 0.4168
H107_6 H 0.1028 0.1176 0.3882
H108_6 H 0.0938 0.1380 0.3578
H109_6 H 0.0481 0.1213 0.6720
H110_6 H 0.0418 0.1211 0.6143
H111_6 H 0.0634 0.1330 0.6325
H112_6 H 0.0030 0.2093 0.6359
H113_6 H 0.0230 0.2150 0.6713
H114_6 H 0.0266 0.2126 0.6127
H124_6 H 0.0154 0.0799 0.7409
H125_6 H 0.0344 0.0827 0.7808
H126_6 H 0.0180 0.0627 0.7849
H163_6 H 0.0505 0.0687 0.9291
H164_6 H 0.0406 0.0863 0.8920
H165_6 H 0.0480 0.0632 0.8713
Ag32_5 Ag 0.263852(10) 0.247513(9) 0.67432(2)
N62_5 N 0.25531(11) 0.20101(10) 0.8157(2)
Ag1_6 Ag 0.976069(9) 0.457653(11) 0.51873(2)
Ag12_5 Ag 0.872120(9) 0.008170(8) 0.25207(2)
N1_6 N 0.99296(10) 0.44084(10) 0.4642(2)
N43_6 N 0.95404(9) 0.32286(9) 0.0244(2)
N44_6 N 0.96165(9) 0.30197(9) 0.0215(2)
N57_6 N 0.96688(8) 0.00909(8) 0.0601(2)
N58_6 N 0.97908(9) 0.00252(9) 0.0994(2)
C1_6 C 0.98511(14) 0.40225(14) 0.4835(3)
C2_6 C 0.99461(12) 0.41998(12) 0.4517(3)
C56_6 C 0.92668(13) 0.02286(13) 0.2233(3)
C57_6 C 0.91595(11) 0.00639(10) 0.1904(3)
C106_6 C 0.95766(13) 0.35514(11) 0.0771(3)
C107_6 C 0.96198(11) 0.33185(11) 0.0655(3)
C108_6 C 0.97485(11) 0.31659(11) 0.0899(3)
C109_6 C 0.97407(11) 0.29811(11) 0.0611(3)
C110_6 C 0.98401(12) 0.27640(11) 0.0684(3)
C129_6 C 0.99970(12) 0.38314(11) 0.3564(3)
C130_6 C 0.97526(15) 0.38067(12) 0.3561(3)
C131_6 C 0.96118(14) 0.33030(11) 0.2045(3)
C132_6 C 0.98307(11) 0.32722(11) 0.1824(3)
C133_6 C 0.98857(11) 0.32063(11) 0.1341(3)
C141_6 C 0.92860(12) 0.01453(11) 0.0362(3)
C142_6 C 0.94601(11) 0.00784(11) 0.0720(3)
C143_6 C 0.94410(10) 0.00028(10) 0.1207(2)
H1_6 H 0.9787 0.4086 0.5134
H2_6 H 0.9966 0.3921 0.4930
H3_6 H 0.9739 0.3946 0.4647
H67_6 H 0.9159 0.0333 0.2349
H68_6 H 0.9332 0.0155 0.2519
H69_6 H 0.9379 0.0305 0.2045
H127_6 H 0.9430 0.3590 0.0662
H128_6 H 0.9589 0.3575 0.1130
H129_6 H 0.9682 0.3642 0.0597
H130_6 H 0.9732 0.2651 0.0616
H131_6 H 0.9963 0.2747 0.0456
H132_6 H 0.9891 0.2750 0.1027
H154_6 H 0.9707 0.3741 0.3247
H155_6 H 0.9685 0.3950 0.3597
H156_6 H 0.9708 0.3714 0.3838
H157_6 H 0.9607 0.3235 0.2375
H158_6 H 0.9503 0.3236 0.1831
H159_6 H 0.9581 0.3458 0.2077
H169_6 H 0.9336 0.0270 0.0167
H170_6 H 0.9155 0.0185 0.0547
H171_6 H 0.9253 0.0024 0.0139
H174_6 H 0.9760 0.0000 0.2077
N63_6 N 0.95555(10) 0.47304(11) 0.5688(2)
N69_5 N 0.82676(9) 0.00794(9) 0.2888(2)
N70_5 N 0.84631(9) 0.01771(9) 0.2971(2)
Ag6_5 Ag 0.696330(9) 0.419750(8) 0.58589(2)
Ag13_6 Ag 0.878260(8) 0.440880(9) 0.76693(2)
Ag14_6 Ag 0.843730(9) 0.458270(8) 0.68426(2)
Ag15_6 Ag 0.829260(8) 0.416380(8) 0.76736(2)
Ag20_6 Ag 0.985980(9) 0.180030(9) 0.72506(2)
Ag21_6 Ag 0.970110(8) 0.149050(8) 0.82030(2)
Ag22_6 Ag 0.934270(9) 0.333250(9) 0.96691(2)
Ag23_6 Ag 0.951090(9) 0.282600(9) 0.96504(2)
Ag24_6 Ag 0.918950(9) 0.299820(8) 0.86821(2)
Ag29_6 Ag 0.981720(8) 0.023140(8) 0.999050(19)
N9_5 N 0.74310(9) 0.41946(9) 0.5578(2)
N10_6 N 0.72931(9) 0.42533(9) 0.5953(2)
N25_6 N 0.88935(9) 0.46180(9) 0.7132(2)
N26_6 N 0.87521(9) 0.46919(9) 0.6778(2)
N27_6 N 0.81327(9) 0.44471(9) 0.6846(2)
N28_6 N 0.80674(9) 0.42857(8) 0.7161(2)
N29_6 N 0.85408(8) 0.40292(8) 0.8109(2)
N30_6 N 0.87225(9) 0.41525(9) 0.8145(2)
N39_6 N 0.96574(9) 0.19283(8) 0.7782(2)
N40_6 N 0.95845(9) 0.18039(9) 0.8163(2)
N41_6 N 0.98362(9) 0.11862(9) 0.8266(2)
N42_6 N 0.99734(9) 0.11054(9) 0.7915(2)
N45_6 N 0.94307(10) 0.26222(9) 0.9082(2)
N46_6 N 0.92984(9) 0.26814(9) 0.8695(2)
N47_6 N 0.90945(9) 0.33206(9) 0.8691(2)
N48_6 N 0.91451(9) 0.34422(9) 0.9103(2)
N56_6 N 0.99447(8) 0.04146(8) 0.9415(2)
C11_6 C 0.92542(14) 0.52104(14) 0.6008(3)
C12_6 C 0.93401(12) 0.49846(13) 0.5957(3)
C13_6 C 0.92745(12) 0.47947(12) 0.6179(3)
C14_6 C 0.94162(12) 0.46365(13) 0.6003(3)
C15_6 C 0.94260(14) 0.44000(13) 0.6103(4)
C21_6 C 0.78228(13) 0.41503(12) 0.5438(3)
C22_6 C 0.76361(11) 0.42080(11) 0.5756(3)
C23_6 C 0.76266(11) 0.42784(11) 0.6247(3)
C24_6 C 0.74105(10) 0.43041(10) 0.6356(3)
C25_6 C 0.73111(13) 0.43800(12) 0.6828(3)
C61_6 C 0.92841(14) 0.45992(12) 0.7296(3)
C62_6 C 0.90961(12) 0.46553(11) 0.6978(3)
C63_6 C 0.90888(12) 0.47532(11) 0.6513(3)
C64_6 C 0.88684(12) 0.47756(12) 0.6400(3)
C65_6 C 0.87614(14) 0.48694(13) 0.5952(3)
C66_6 C 0.80039(13) 0.46331(13) 0.6086(3)
C67_6 C 0.79826(11) 0.44659(11) 0.6488(3)
C68_6 C 0.78162(10) 0.43160(10) 0.6566(2)
C69_6 C 0.78800(11) 0.42090(10) 0.6998(3)
C70_6 C 0.77659(12) 0.40291(11) 0.7270(3)
C71_6 C 0.84174(11) 0.36571(11) 0.8294(3)
C72_6 C 0.85801(11) 0.38293(11) 0.8279(3)
C73_6 C 0.88010(10) 0.38220(10) 0.8423(3)
C74_6 C 0.88798(12) 0.40256(11) 0.8333(3)
C75_6 C 0.91051(12) 0.41145(11) 0.8396(3)
C96_6 C 0.96555(14) 0.23085(12) 0.7509(3)
C97_6 C 0.95935(11) 0.21319(11) 0.7861(3)
C98_6 C 0.94790(11) 0.21419(11) 0.8308(3)
C99_6 C 0.94778(11) 0.19312(11) 0.8487(3)
C100_6 C 0.93748(14) 0.18393(12) 0.8944(3)
C101_6 C 0.96852(12) 0.10893(12) 0.9084(3)
C102_6 C 0.98230(11) 0.10435(10) 0.8640(2)
C103_6 C 0.99566(11) 0.08665(10) 0.8538(3)
C111_6 C 0.96521(14) 0.23149(13) 0.9362(3)
C112_6 C 0.94987(11) 0.24196(11) 0.8999(3)
C113_6 C 0.94136(11) 0.23448(11) 0.8553(3)
C114_6 C 0.92880(11) 0.25158(11) 0.8377(3)
C115_6 C 0.91520(14) 0.25327(13) 0.7923(3)
C116_6 C 0.88947(13) 0.33511(12) 0.7903(3)
C117_6 C 0.89634(11) 0.34381(11) 0.8405(3)
C118_6 C 0.89254(10) 0.36368(11) 0.8627(3)
C119_6 C 0.90463(11) 0.36321(11) 0.9060(3)
C120_6 C 0.90749(12) 0.38010(11) 0.9458(3)
C138_6 C 0.99991(10) 0.06828(10) 0.8880(2)
C139_6 C 0.98438(10) 0.05455(10) 0.9094(2)
C140_6 C 0.96075(12) 0.05272(11) 0.9004(3)
H13_6 H 0.9363 0.5314 0.5888
H14_6 H 0.9222 0.5240 0.6358
H15_6 H 0.9121 0.5225 0.5811
H16_6 H 0.9501 0.4327 0.5829
H17_6 H 0.9279 0.4342 0.6133
H18_6 H 0.9505 0.4374 0.6413
H25_6 H 0.7774 0.4055 0.5170
H26_6 H 0.7932 0.4076 0.5638
H27_6 H 0.7886 0.4282 0.5296
H28_6 H 0.7153 0.4379 0.6796
H29_6 H 0.7361 0.4528 0.6900
H30_6 H 0.7354 0.4283 0.7100
H73_6 H 0.9257 0.4648 0.7637
H74_6 H 0.9414 0.4670 0.7167
H75_6 H 0.9305 0.4442 0.7294
H76_6 H 0.8632 0.4784 0.5870
H77_6 H 0.8863 0.4866 0.5671
H78_6 H 0.8719 0.5019 0.6020
H79_6 H 0.8083 0.4759 0.6214
H80_6 H 0.7859 0.4678 0.5975
H81_6 H 0.8084 0.4571 0.5805
H82_6 H 0.7873 0.3935 0.7428
H83_6 H 0.7679 0.3944 0.7034
H84_6 H 0.7671 0.4091 0.7524
H85_6 H 0.8276 0.3717 0.8203
H86_6 H 0.8410 0.3597 0.8631
H87_6 H 0.8457 0.3543 0.8059
H88_6 H 0.9121 0.4246 0.8195
H89_6 H 0.9211 0.4006 0.8288
H90_6 H 0.9130 0.4150 0.8747
H115_6 H 0.9795 0.2274 0.7354
H116_6 H 0.9544 0.2322 0.7251
H117_6 H 0.9668 0.2446 0.7691
H118_6 H 0.9313 0.1697 0.8868
H119_6 H 0.9484 0.1824 0.9205
H120_6 H 0.9260 0.1937 0.9058
H121_6 H 0.9679 0.1246 0.9140
H122_6 H 0.9539 0.1033 0.9027
H123_6 H 0.9748 0.1019 0.9377
H133_6 H 0.9758 0.2422 0.9477
H134_6 H 0.9570 0.2259 0.9647
H135_6 H 0.9728 0.2195 0.9199
H136_6 H 0.9017 0.2609 0.8003
H137_6 H 0.9231 0.2613 0.7667
H138_6 H 0.9118 0.2387 0.7800
H139_6 H 0.8935 0.3198 0.7878
H140_6 H 0.8737 0.3366 0.7866
H141_6 H 0.8968 0.3433 0.7640
H142_6 H 0.9056 0.3734 0.9785
H143_6 H 0.9221 0.3863 0.9434
H144_6 H 0.8967 0.3916 0.9414
H166_6 H 0.9563 0.0375 0.9035
H167_6 H 0.9574 0.0579 0.8669
H168_6 H 0.9529 0.0615 0.9249
Ag35_5 Ag 0.732190(8) 0.399900(8) 0.50018(2)
N65_5 N 0.66423(8) 0.41024(9) 0.5824(2)
Ag10_6 Ag 0.860210(8) 0.970640(8) 0.15983(2)
Ag11_5 Ag 0.821150(8) 0.984880(8) 0.235490(19)
N19_6 N 0.83070(9) 0.95543(8) 0.1518(2)
N20_6 N 0.81414(9) 0.96221(9) 0.1818(2)
N23_6 N 0.89596(9) 0.99940(9) 0.2006(2)
N24_6 N 0.89029(9) 0.98480(9) 0.1652(2)
C46_6 C 0.83735(13) 0.93175(12) 0.0798(3)
C47_6 C 0.82271(10) 0.94190(11) 0.1179(2)
C48_6 C 0.80035(10) 0.93945(10) 0.1253(2)
C49_6 C 0.79591(10) 0.95283(10) 0.1664(2)
C50_6 C 0.77515(13) 0.95662(12) 0.1929(3)
C51_6 C 0.76178(14) 0.96141(11) 0.0638(3)
C52_6 C 0.76802(11) 0.93831(11) 0.0665(2)
C53_6 C 0.78473(10) 0.92833(10) 0.0936(2)
C54_6 C 0.78364(10) 0.90655(11) 0.0796(3)
C55_6 C 0.79734(13) 0.88809(12) 0.0963(3)
C58_6 C 0.92373(10) 0.99651(10) 0.1477(2)
C59_6 C 0.90673(11) 0.98292(10) 0.1333(3)
C60_6 C 0.90497(13) 0.96811(12) 0.0895(3)
C144_6 C 0.96522(10) 0.99718(10) 0.1363(2)
C145_6 C 0.97354(13) 0.98819(12) 0.1841(3)
H55_6 H 0.8476 0.9426 0.0674
H56_6 H 0.8454 0.9198 0.0950
H57_6 H 0.8286 0.9262 0.0521
H58_6 H 0.7775 0.9555 0.2288
H59_6 H 0.7697 0.9711 0.1848
H60_6 H 0.7645 0.9457 0.1825
H61_6 H 0.7460 0.9626 0.0620
H62_6 H 0.7670 0.9690 0.0936
H63_6 H 0.7683 0.9680 0.0342
H64_6 H 0.7885 0.8749 0.0979
H65_6 H 0.8092 0.8860 0.0727
H66_6 H 0.8033 0.8912 0.1292
H70_6 H 0.8980 0.9546 0.0996
H71_6 H 0.8963 0.9751 0.0635
H72_6 H 0.9195 0.9650 0.0766
H172_6 H 0.9872 0.9805 0.1781
H173_6 H 0.9629 0.9781 0.1980
H174_7 H 0.9760 1.0000 0.2077
Ag10_7 Ag 0.639790(8) 0.029360(8) 0.65983(2)
N19_7 N 0.66930(9) 0.04457(8) 0.6518(2)
N20_7 N 0.68586(9) 0.03779(9) 0.6818(2)
N21_3 N 0.74206(9) 0.07676(9) 0.5388(2)
N22_3 N 0.73229(9) 0.09631(9) 0.5471(2)
N23_7 N 0.60404(9) 0.00060(9) 0.7006(2)
N24_7 N 0.60971(9) 0.01520(9) 0.6652(2)
C20_6 C 0.38595(12) 0.00877(11) 0.6672(3)
C46_7 C 0.66265(13) 0.06825(12) 0.5798(3)
C47_7 C 0.67729(10) 0.05810(11) 0.6179(2)
C48_7 C 0.69965(10) 0.06055(10) 0.6253(2)
C49_7 C 0.70409(10) 0.04717(10) 0.6664(2)
C50_7 C 0.72485(13) 0.04338(12) 0.6929(3)
C51_7 C 0.73822(14) 0.03859(11) 0.5638(3)
C52_7 C 0.73198(11) 0.06169(11) 0.5665(2)
C53_7 C 0.71527(10) 0.07167(10) 0.5936(2)
C54_7 C 0.71636(10) 0.09345(11) 0.5796(3)
C55_7 C 0.70266(13) 0.11191(12) 0.5963(3)
C58_7 C 0.57627(10) 0.00349(10) 0.6477(2)
C59_7 C 0.59327(11) 0.01708(10) 0.6333(3)
C60_7 C 0.59503(13) 0.03189(12) 0.5895(3)
C144_7 C 0.53478(10) 0.00282(10) 0.6363(2)
C145_7 C 0.52646(13) 0.01181(12) 0.6841(3)
C146_6 C 0.44476(13) 0.00087(12) 0.6809(3)
H22_6 H 0.3708 0.0121 0.6592
H23_6 H 0.3954 0.0139 0.6404
H24_6 H 0.3900 0.0160 0.6983
H55_7 H 0.6524 0.0574 0.5674
H56_7 H 0.6546 0.0802 0.5950
H57_7 H 0.6714 0.0738 0.5521
H58_7 H 0.7225 0.0445 0.7288
H59_7 H 0.7303 0.0289 0.6848
H60_7 H 0.7355 0.0543 0.6825
H61_7 H 0.7540 0.0374 0.5620
H62_7 H 0.7330 0.0310 0.5936
H63_7 H 0.7317 0.0320 0.5342
H64_7 H 0.7115 0.1251 0.5979
H65_7 H 0.6908 0.1140 0.5727
H66_7 H 0.6967 0.1088 0.6292
H70_7 H 0.6020 0.0454 0.5996
H71_7 H 0.6037 0.0249 0.5635
H72_7 H 0.5805 0.0350 0.5766
H172_7 H 0.5128 0.0195 0.6781
H173_7 H 0.5371 0.0219 0.6980
H174_8 H 0.5240 -0.0000 0.7077
H175_6 H 0.4603 0.0040 0.6834
H177_6 H 0.4366 0.0145 0.6808
Ag39_3 Ag 0.765120(8) 0.071150(8) 0.485490(19)
Ag40_3 Ag 0.741830(8) 0.122120(9) 0.50207(2)
Ag1_7 Ag 0.523931(9) 0.542347(11) 0.01873(2)
H1_7 H 0.5213 0.5914 0.0134
N63_7 N 0.54445(10) 0.52696(11) 0.0688(2)
Ag2_3 Ag 0.502487(9) 0.513852(10) 0.92432(2)
Ag4_7 Ag 0.364570(8) 0.929910(8) 0.743360(19)
Ag5_3 Ag 0.350100(8) 0.982190(8) 0.75018(2)
Ag7_7 Ag 0.309460(9) 0.596730(8) 0.63001(2)
Ag8_3 Ag 0.289050(9) 0.561520(9) 0.54870(2)
Ag9_3 Ag 0.344050(9) 0.573770(9) 0.54735(2)
Ag13_7 Ag 0.621740(8) 0.559120(9) 0.26693(2)
Ag14_7 Ag 0.656270(9) 0.541730(8) 0.18426(2)
Ag15_7 Ag 0.670740(8) 0.583620(8) 0.26736(2)
Ag17_7 Ag 0.382630(9) 0.790390(9) 0.06229(2)
Ag19_7 Ag 0.493980(8) 0.870690(8) 0.23020(2)
Ag20_7 Ag 0.514020(9) 0.819970(9) 0.22506(2)
Ag21_7 Ag 0.529890(8) 0.850950(8) 0.32030(2)
Ag22_7 Ag 0.565730(9) 0.666750(9) 0.46691(2)
Ag23_7 Ag 0.548910(9) 0.717400(9) 0.46504(2)
Ag24_7 Ag 0.581050(9) 0.700180(8) 0.36821(2)
Ag25_7 Ag 0.450630(9) 0.662270(9) 0.69362(2)
Ag26_7 Ag 0.441550(10) 0.632930(9) 0.79222(2)
Ag27_7 Ag 0.493410(9) 0.652350(9) 0.77404(2)
Ag28_7 Ag 0.464960(8) 0.967470(8) 0.497430(19)
Ag29_7 Ag 0.518280(8) 0.976860(8) 0.499050(19)
Ag30_7 Ag 0.487490(8) 0.995250(8) 0.595570(19)
N1_7 N 0.50704(10) 0.55916(10) 0.9642(2)
N2_7 N 0.49748(10) 0.54674(10) 0.9285(2)
N4_7 N 0.27868(10) 0.77304(10) 0.1967(2)
N5_3 N 0.54899(10) 0.50531(11) 0.0657(2)
N7_7 N 0.37979(8) 0.95174(9) 0.6972(2)
N8_7 N 0.37400(9) 0.97338(9) 0.7001(2)
N10_7 N 0.77069(9) 0.57467(9) 0.0953(2)
N13_7 N 0.27721(9) 0.58828(9) 0.6361(2)
N14_7 N 0.26865(9) 0.57411(9) 0.6017(2)
N17_7 N 0.35655(10) 0.59496(9) 0.5994(2)
N18_7 N 0.34220(9) 0.60312(9) 0.6335(2)
N25_7 N 0.61065(9) 0.53820(9) 0.2132(2)
N26_7 N 0.62479(9) 0.53081(9) 0.1778(2)
N27_7 N 0.68673(9) 0.55529(9) 0.1846(2)
N28_7 N 0.69326(9) 0.57143(8) 0.2161(2)
N29_7 N 0.64592(8) 0.59708(8) 0.3109(2)
N30_7 N 0.62775(9) 0.58475(9) 0.3145(2)
N31_7 N 0.41828(9) 0.82011(9) 0.0352(2)
N32_7 N 0.41244(9) 0.80513(9) 0.0702(2)
N33_7 N 0.35095(9) 0.77956(9) 0.0638(2)
N34_7 N 0.33592(9) 0.78688(9) 0.0299(2)
N37_7 N 0.48206(9) 0.84964(9) 0.1762(2)
N38_7 N 0.49003(9) 0.82894(9) 0.1763(2)
N39_7 N 0.53426(9) 0.80717(8) 0.2782(2)
N40_7 N 0.54155(9) 0.81961(9) 0.3163(2)
N41_7 N 0.51638(9) 0.88138(9) 0.3266(2)
N42_7 N 0.50266(9) 0.88946(9) 0.2915(2)
N43_7 N 0.54596(9) 0.67714(9) 0.5244(2)
N44_7 N 0.53835(9) 0.69803(9) 0.5215(2)
N45_7 N 0.55693(10) 0.73778(9) 0.4082(2)
N46_7 N 0.57016(9) 0.73186(9) 0.3695(2)
N47_7 N 0.59055(9) 0.66794(9) 0.3691(2)
N48_7 N 0.58549(9) 0.65578(9) 0.4103(2)
N49_7 N 0.42111(10) 0.64638(9) 0.6981(2)
N50_7 N 0.41747(10) 0.63399(9) 0.7392(2)
N51_7 N 0.46647(10) 0.62479(9) 0.8407(2)
N52_7 N 0.48784(10) 0.63092(9) 0.8319(2)
N53_7 N 0.49885(9) 0.66957(9) 0.7091(2)
N54_7 N 0.48155(9) 0.67408(9) 0.6788(2)
N55_7 N 0.48376(8) 0.95386(8) 0.4415(2)
N56_7 N 0.50553(8) 0.95854(8) 0.4415(2)
N57_7 N 0.53312(8) 0.99091(8) 0.5601(2)
N58_7 N 0.52092(9) 0.99748(9) 0.5994(2)
N59_7 N 0.45452(9) 0.98895(9) 0.5957(2)
N60_7 N 0.44615(9) 0.97632(8) 0.5582(2)
C1_7 C 0.51489(14) 0.59775(14) 0.9835(3)
C2_7 C 0.50539(12) 0.58002(12) 0.9517(3)
C3_7 C 0.49417(12) 0.58178(12) 0.9069(3)
C4_7 C 0.48957(12) 0.56041(13) 0.8936(3)
C5_7 C 0.47863(14) 0.55181(13) 0.8484(3)
C6_7 C 0.27499(12) 0.74319(14) 0.0818(3)
C7_7 C 0.28103(11) 0.75759(12) 0.1240(3)
C8_7 C 0.30026(11) 0.76983(12) 0.1306(3)
C9_7 C 0.29786(12) 0.77921(12) 0.1778(3)
C10_7 C 0.31254(14) 0.79337(14) 0.2059(3)
C11_7 C 0.57458(14) 0.47896(14) 0.1008(3)
C12_7 C 0.56599(12) 0.50154(13) 0.0957(3)
C13_7 C 0.57255(12) 0.52053(12) 0.1179(3)
C14_7 C 0.55838(12) 0.53635(13) 0.1003(3)
C15_7 C 0.55740(14) 0.56000(13) 0.1103(4)
C16_7 C 0.40744(12) 0.92839(11) 0.6590(3)
C17_7 C 0.39730(10) 0.95021(11) 0.6685(2)
C18_7 C 0.40347(10) 0.97046(10) 0.6517(2)
C19_7 C 0.38853(10) 0.98477(11) 0.6730(2)
C21_7 C 0.71772(13) 0.58497(12) 0.0438(3)
C22_7 C 0.73639(11) 0.57920(11) 0.0756(3)
C23_7 C 0.73734(11) 0.57216(11) 0.1247(3)
C24_7 C 0.75895(10) 0.56959(10) 0.1356(3)
C25_7 C 0.76889(13) 0.56200(12) 0.1828(3)
C31_7 C 0.26764(16) 0.60559(14) 0.7149(3)
C32_7 C 0.26263(12) 0.59086(11) 0.6720(3)
C33_7 C 0.24451(11) 0.57861(10) 0.6622(3)
C34_7 C 0.24880(11) 0.56836(11) 0.6174(3)
C35_7 C 0.23529(14) 0.55345(12) 0.5872(3)
C36_7 C 0.22793(13) 0.53338(12) 0.7093(3)
C37_7 C 0.21923(11) 0.55573(12) 0.7166(3)
C38_7 C 0.22581(11) 0.57534(12) 0.6953(3)
C39_7 C 0.21237(11) 0.59082(11) 0.7173(3)
C40_7 C 0.21106(13) 0.61482(12) 0.7085(3)
C41_7 C 0.39575(14) 0.59409(12) 0.5840(3)
C42_7 C 0.37643(11) 0.60143(11) 0.6125(3)
C43_7 C 0.37521(11) 0.61389(11) 0.6552(3)
C44_7 C 0.35344(11) 0.61430(11) 0.6679(3)
C45_7 C 0.34223(13) 0.62503(12) 0.7100(3)
C56_7 C 0.57332(13) 0.97714(13) 0.7233(3)
C57_7 C 0.58405(11) 0.99361(10) 0.6904(3)
C61_7 C 0.57159(14) 0.54008(12) 0.2296(3)
C62_7 C 0.59039(12) 0.53447(11) 0.1978(3)
C63_7 C 0.59112(12) 0.52468(11) 0.1513(3)
C64_7 C 0.61316(12) 0.52244(12) 0.1400(3)
C65_7 C 0.62386(14) 0.51306(13) 0.0952(3)
C66_7 C 0.69961(13) 0.53669(13) 0.1086(3)
C67_7 C 0.70174(11) 0.55341(11) 0.1488(3)
C68_7 C 0.71838(10) 0.56840(10) 0.1566(2)
C69_7 C 0.71200(11) 0.57910(10) 0.1998(3)
C70_7 C 0.72341(12) 0.59709(11) 0.2270(3)
C71_7 C 0.65826(11) 0.63429(11) 0.3294(3)
C72_7 C 0.64199(11) 0.61707(11) 0.3279(3)
C73_7 C 0.61990(10) 0.61780(10) 0.3423(3)
C74_7 C 0.61202(12) 0.59744(11) 0.3333(3)
C75_7 C 0.58949(12) 0.58855(11) 0.3396(3)
C76_7 C 0.44714(13) 0.84724(12) 0.0208(3)
C77_7 C 0.43622(11) 0.83059(11) 0.0513(3)
C78_7 C 0.44196(12) 0.82217(11) 0.0976(3)
C79_7 C 0.42671(11) 0.80627(11) 0.1081(3)
C80_7 C 0.42412(13) 0.79194(13) 0.1528(3)
C81_7 C 0.35205(13) 0.76146(14) 0.1458(3)
C82_7 C 0.33997(11) 0.77150(11) 0.1027(2)
C83_7 C 0.31799(11) 0.77385(12) 0.0955(3)
C84_7 C 0.31620(11) 0.78364(12) 0.0487(3)
C85_7 C 0.29649(14) 0.78954(12) 0.0196(3)
C91_7 C 0.45161(13) 0.87039(13) 0.1410(4)
C92_7 C 0.46400(11) 0.84996(12) 0.1476(3)
C93_7 C 0.46026(11) 0.82908(12) 0.1297(3)
C94_7 C 0.47701(11) 0.81669(11) 0.1479(3)
C95_7 C 0.48149(13) 0.79287(12) 0.1414(3)
C96_7 C 0.53445(14) 0.76915(12) 0.2509(3)
C97_7 C 0.54065(11) 0.78681(11) 0.2861(3)
C98_7 C 0.55210(11) 0.78581(11) 0.3308(3)
C99_7 C 0.55222(11) 0.80688(11) 0.3487(3)
C100_7 C 0.56252(14) 0.81607(12) 0.3944(3)
C101_7 C 0.53148(12) 0.89107(12) 0.4084(3)
C102_7 C 0.51770(11) 0.89565(10) 0.3640(2)
C103_7 C 0.50434(11) 0.91335(10) 0.3538(3)
C104_7 C 0.49520(11) 0.90881(11) 0.3074(3)
C105_7 C 0.48064(12) 0.92200(11) 0.2758(3)
C106_7 C 0.54234(13) 0.64486(11) 0.5771(3)
C107_7 C 0.53802(11) 0.66815(11) 0.5655(3)
C108_7 C 0.52515(11) 0.68341(11) 0.5899(3)
C109_7 C 0.52593(11) 0.70189(11) 0.5611(3)
C110_7 C 0.51599(12) 0.72360(11) 0.5684(3)
C111_7 C 0.53479(14) 0.76851(13) 0.4362(3)
C112_7 C 0.55013(11) 0.75804(11) 0.3999(3)
C113_7 C 0.55864(11) 0.76552(11) 0.3553(3)
C114_7 C 0.57120(11) 0.74842(11) 0.3377(3)
C115_7 C 0.58480(14) 0.74673(13) 0.2923(3)
C116_7 C 0.61053(13) 0.66489(12) 0.2903(3)
C117_7 C 0.60366(11) 0.65619(11) 0.3405(3)
C118_7 C 0.60746(10) 0.63632(11) 0.3627(3)
C119_7 C 0.59537(11) 0.63679(11) 0.4060(3)
C120_7 C 0.59251(12) 0.61990(11) 0.4458(3)
C121_7 C 0.40604(14) 0.65236(14) 0.6141(4)
C122_7 C 0.40663(11) 0.64107(11) 0.6628(3)
C123_7 C 0.39311(10) 0.62449(11) 0.6813(3)
C124_7 C 0.40084(11) 0.62069(11) 0.7291(3)
C125_7 C 0.39280(13) 0.60492(12) 0.7670(3)
C126_7 C 0.44569(15) 0.59720(13) 0.8857(4)
C127_7 C 0.46653(12) 0.60697(12) 0.8688(3)
C128_7 C 0.48765(12) 0.60126(12) 0.8798(3)
C129_7 C 0.50030(12) 0.61686(11) 0.8564(3)
C130_7 C 0.52474(15) 0.61933(12) 0.8561(3)
C131_7 C 0.53882(14) 0.66970(11) 0.7045(3)
C132_7 C 0.51693(11) 0.67278(11) 0.6824(3)
C133_7 C 0.51143(11) 0.67937(11) 0.6341(3)
C134_7 C 0.48889(10) 0.68020(11) 0.6341(3)
C135_7 C 0.47371(13) 0.68625(12) 0.5936(3)
C136_7 C 0.45849(12) 0.92918(11) 0.3995(3)
C137_7 C 0.48036(10) 0.93775(10) 0.4089(3)
C138_7 C 0.50009(10) 0.93172(10) 0.3880(2)
C139_7 C 0.51562(10) 0.94545(10) 0.4094(2)
C140_7 C 0.53925(12) 0.94728(11) 0.4004(3)
C141_7 C 0.57140(12) 0.98547(11) 0.5362(3)
C142_7 C 0.55399(11) 0.99216(11) 0.5720(3)
C143_7 C 0.55590(10) 0.99972(10) 0.6207(2)
C147_7 C 0.44034(10) 0.98879(10) 0.6338(2)
C148_7 C 0.42229(10) 0.97606(10) 0.6211(2)
C149_7 C 0.42693(11) 0.96849(10) 0.5734(2)
C150_7 C 0.41393(13) 0.95409(11) 0.5406(3)
H2_7 H 0.5034 0.6079 0.9930
H3_7 H 0.5261 0.6054 0.9647
H4_7 H 0.4774 0.5360 0.8509
H5_7 H 0.4871 0.5556 0.8190
H6_7 H 0.4641 0.5582 0.8457
H7_7 H 0.2709 0.7289 0.0946
H8_7 H 0.2874 0.7417 0.0592
H9_7 H 0.2627 0.7495 0.0638
H10_7 H 0.3040 0.8030 0.2272
H11_7 H 0.3212 0.8020 0.1827
H12_7 H 0.3222 0.7845 0.2264
H13_7 H 0.5637 0.4686 0.0888
H14_7 H 0.5778 0.4760 0.1358
H15_7 H 0.5879 0.4775 0.0811
H16_7 H 0.5499 0.5673 0.0829
H17_7 H 0.5721 0.5658 0.1133
H18_7 H 0.5495 0.5626 0.1413
H19_7 H 0.4046 0.9188 0.6873
H20_7 H 0.4231 0.9301 0.6547
H21_7 H 0.4012 0.9221 0.6288
H25_7 H 0.7226 0.5945 0.0170
H26_7 H 0.7068 0.5924 0.0638
H27_7 H 0.7114 0.5718 0.0296
H28_7 H 0.7847 0.5621 0.1796
H29_7 H 0.7639 0.5472 0.1900
H30_7 H 0.7646 0.5717 0.2100
H37_7 H 0.2833 0.6059 0.7205
H38_7 H 0.2626 0.6203 0.7073
H39_7 H 0.2603 0.6003 0.7448
H40_7 H 0.2377 0.5563 0.5518
H41_7 H 0.2393 0.5384 0.5947
H42_7 H 0.2200 0.5557 0.5952
H43_7 H 0.2262 0.5251 0.7401
H44_7 H 0.2200 0.5262 0.6824
H45_7 H 0.2433 0.5342 0.7007
H46_7 H 0.1958 0.6191 0.7054
H47_7 H 0.2177 0.6225 0.7366
H48_7 H 0.2188 0.6185 0.6779
H49_7 H 0.3911 0.5852 0.5558
H50_7 H 0.4037 0.6067 0.5718
H51_7 H 0.4052 0.5855 0.6057
H52_7 H 0.3266 0.6252 0.7037
H53_7 H 0.3451 0.6170 0.7407
H54_7 H 0.3475 0.6399 0.7134
H67_7 H 0.5841 0.9667 0.7349
H68_7 H 0.5668 0.9845 0.7519
H69_7 H 0.5621 0.9695 0.7045
H73_7 H 0.5743 0.5352 0.2637
H74_7 H 0.5586 0.5330 0.2167
H75_7 H 0.5695 0.5558 0.2294
H76_7 H 0.6368 0.5216 0.0870
H77_7 H 0.6137 0.5134 0.0671
H78_7 H 0.6281 0.4981 0.1020
H79_7 H 0.6917 0.5241 0.1214
H80_7 H 0.7141 0.5322 0.0975
H81_7 H 0.6916 0.5429 0.0805
H82_7 H 0.7127 0.6065 0.2428
H83_7 H 0.7321 0.6056 0.2034
H84_7 H 0.7329 0.5909 0.2524
H85_7 H 0.6724 0.6283 0.3203
H86_7 H 0.6590 0.6403 0.3631
H87_7 H 0.6543 0.6457 0.3059
H88_7 H 0.5879 0.5754 0.3195
H89_7 H 0.5789 0.5994 0.3288
H90_7 H 0.5870 0.5850 0.3747
H92_7 H 0.4616 0.8500 0.0342
H93_7 H 0.4386 0.8606 0.0214
H94_7 H 0.4087 0.7894 0.1590
H95_7 H 0.4307 0.7990 0.1818
H96_7 H 0.4313 0.7781 0.1467
H97_7 H 0.3661 0.7560 0.1342
H98_7 H 0.3435 0.7495 0.1595
H99_7 H 0.3544 0.7724 0.1716
H101_7 H 0.2864 0.7976 0.0409
H102_7 H 0.2894 0.7763 0.0076
H109_7 H 0.4519 0.8787 0.1720
H110_7 H 0.4582 0.8789 0.1143
H111_7 H 0.4366 0.8670 0.1325
H112_7 H 0.4970 0.7907 0.1359
H113_7 H 0.4770 0.7850 0.1713
H114_7 H 0.4734 0.7874 0.1127
H115_7 H 0.5205 0.7726 0.2354
H116_7 H 0.5456 0.7678 0.2251
H117_7 H 0.5332 0.7554 0.2691
H118_7 H 0.5687 0.8303 0.3868
H119_7 H 0.5516 0.8176 0.4205
H120_7 H 0.5740 0.8063 0.4058
H121_7 H 0.5321 0.8754 0.4140
H122_7 H 0.5461 0.8967 0.4027
H123_7 H 0.5252 0.8981 0.4377
H124_7 H 0.4846 0.9201 0.2409
H125_7 H 0.4656 0.9173 0.2808
H126_7 H 0.4820 0.9373 0.2849
H127_7 H 0.5570 0.6410 0.5662
H128_7 H 0.5411 0.6425 0.6130
H129_7 H 0.5318 0.6358 0.5597
H130_7 H 0.5268 0.7349 0.5616
H131_7 H 0.5037 0.7253 0.5456
H132_7 H 0.5109 0.7250 0.6027
H133_7 H 0.5242 0.7578 0.4477
H134_7 H 0.5430 0.7741 0.4647
H135_7 H 0.5272 0.7805 0.4199
H136_7 H 0.5983 0.7391 0.3003
H137_7 H 0.5769 0.7387 0.2667
H138_7 H 0.5882 0.7613 0.2800
H139_7 H 0.6065 0.6802 0.2878
H140_7 H 0.6263 0.6634 0.2866
H141_7 H 0.6032 0.6567 0.2640
H142_7 H 0.5944 0.6266 0.4785
H143_7 H 0.5779 0.6137 0.4434
H144_7 H 0.6033 0.6084 0.4414
H145_7 H 0.4126 0.6667 0.6174
H146_7 H 0.3910 0.6539 0.6031
H147_7 H 0.4142 0.6439 0.5895
H148_7 H 0.4050 0.5998 0.7872
H149_7 H 0.3860 0.5926 0.7503
H150_7 H 0.3822 0.6121 0.7885
H151_7 H 0.4349 0.6087 0.8903
H152_7 H 0.4480 0.5896 0.9173
H153_7 H 0.4405 0.5869 0.8607
H154_7 H 0.5293 0.6259 0.8247
H155_7 H 0.5315 0.6050 0.8597
H156_7 H 0.5292 0.6286 0.8838
H157_7 H 0.5393 0.6765 0.7375
H158_7 H 0.5497 0.6764 0.6831
H159_7 H 0.5419 0.6542 0.7077
H160_7 H 0.4604 0.6777 0.5967
H161_7 H 0.4805 0.6833 0.5614
H162_7 H 0.4702 0.7017 0.5961
H163_7 H 0.4495 0.9313 0.4291
H164_7 H 0.4594 0.9137 0.3920
H165_7 H 0.4520 0.9368 0.3713
H166_7 H 0.5437 0.9625 0.4035
H167_7 H 0.5426 0.9421 0.3669
H168_7 H 0.5471 0.9385 0.4249
H169_7 H 0.5664 0.9730 0.5167
H170_7 H 0.5845 0.9815 0.5547
H171_7 H 0.5747 0.9976 0.5139
H174_9 H 0.5240 1.0000 0.7077
H176_7 H 0.4402 0.9921 0.7093
H178_7 H 0.4189 0.9556 0.5062
H179_7 H 0.3986 0.9581 0.5428
H180_7 H 0.4157 0.9390 0.5513
Ag33_3 Ag 0.534860(11) 0.488000(9) 0.00823(2)
N61_3 N 0.50981(10) 0.48160(9) 0.9137(2)
N64_3 N 0.33054(9) 0.99310(9) 0.8078(2)
N66_7 N 0.35327(9) 0.90782(8) 0.7948(2)
N67_3 N 0.30939(9) 0.54684(9) 0.4988(2)
N68_3 N 0.33142(9) 0.55102(9) 0.4988(2)
Ag16_7 Ag 0.397860(9) 0.825840(9) 0.97553(2)
Ag18_7 Ag 0.346390(8) 0.806550(9) 0.97178(2)
N11_3 N 0.33976(9) 0.91423(8) 0.8324(2)
N35_7 N 0.35552(9) 0.83044(9) 0.9209(2)
N36_7 N 0.37653(9) 0.83676(9) 0.9211(2)
C26_7 C 0.32552(13) 0.90074(12) 0.9115(3)
C27_7 C 0.33901(11) 0.89832(10) 0.8661(2)
C28_7 C 0.35245(11) 0.88138(10) 0.8511(3)
C29_7 C 0.36112(10) 0.88791(10) 0.8056(3)
C30_7 C 0.37611(12) 0.87652(11) 0.7715(3)
C86_7 C 0.32032(12) 0.84266(12) 0.8877(3)
C87_7 C 0.34387(10) 0.84510(11) 0.8956(2)
C88_7 C 0.35776(10) 0.86134(11) 0.8790(2)
C89_7 C 0.37820(11) 0.85543(11) 0.8957(3)
C90_7 C 0.39956(13) 0.86671(12) 0.8891(3)
H31_7 H 0.3256 0.9159 0.9220
H32_7 H 0.3315 0.8917 0.9381
H33_7 H 0.3106 0.8962 0.9042
H34_7 H 0.3730 0.8809 0.7372
H35_7 H 0.3741 0.8608 0.7748
H36_7 H 0.3911 0.8803 0.7798
H91_7 H 0.4484 0.8421 0.9865
H100_7 H 0.3007 0.7986 0.9912
H103_7 H 0.3151 0.8300 0.9061
H104_7 H 0.3174 0.8407 0.8522
H105_7 H 0.3128 0.8557 0.8995
H106_7 H 0.4092 0.8631 0.9168
H107_7 H 0.3972 0.8824 0.8882
H108_7 H 0.4062 0.8620 0.8578
Ag36_3 Ag 0.330250(8) 0.946330(9) 0.83589(2)
Ag1_8 Ag 0.292347(11) 0.226069(9) 0.76873(2)
Ag4_8 Ag 0.679910(8) 0.385430(8) 0.493360(19)
Ag7_8 Ag 0.346730(8) 0.440540(9) 0.38001(2)
Ag10_8 Ag 0.779360(8) 0.110210(8) 0.40983(2)
Ag13_8 Ag 0.309120(9) 0.128260(8) 0.01693(2)
Ag15_8 Ag 0.333620(8) 0.079260(8) 0.01736(2)
Ag21_8 Ag 0.600950(8) 0.220110(8) 0.07030(2)
Ag22_8 Ag 0.416750(9) 0.184270(9) 0.21691(2)
Ag23_8 Ag 0.467400(9) 0.201090(9) 0.21504(2)
Ag24_8 Ag 0.450180(8) 0.168950(9) 0.11821(2)
Ag25_8 Ag 0.412270(9) 0.299370(9) 0.44362(2)
Ag26_8 Ag 0.382930(9) 0.308450(10) 0.54222(2)
Ag27_8 Ag 0.402350(9) 0.256590(9) 0.52404(2)
Ag28_8 Ag 0.717470(8) 0.285040(8) 0.247430(19)
Ag29_8 Ag 0.726860(8) 0.231720(8) 0.249050(19)
Ag30_8 Ag 0.745250(8) 0.262510(8) 0.345570(19)
N1_8 N 0.30916(10) 0.24296(10) 0.7142(2)
N2_8 N 0.29674(10) 0.25252(10) 0.6785(2)
N7_8 N 0.70174(9) 0.37021(8) 0.4472(2)
N8_8 N 0.72338(9) 0.37600(9) 0.4501(2)
N13_8 N 0.33828(9) 0.47279(9) 0.3861(2)
N14_8 N 0.32411(9) 0.48135(9) 0.3517(2)
N17_8 N 0.34496(9) 0.39345(10) 0.3494(2)
N18_8 N 0.35312(9) 0.40780(9) 0.3835(2)
N19_8 N 0.79457(8) 0.08070(9) 0.4018(2)
N20_8 N 0.78779(9) 0.06414(9) 0.4318(2)
N23_8 N 0.75060(9) 0.14596(9) 0.4506(2)
N24_8 N 0.76520(9) 0.14029(9) 0.4152(2)
N29_8 N 0.34708(8) 0.10408(8) 0.0609(2)
N30_8 N 0.33475(9) 0.12225(9) 0.0645(2)
N39_8 N 0.55717(8) 0.21574(9) 0.0282(2)
N40_8 N 0.56961(9) 0.20845(9) 0.0663(2)
N41_8 N 0.63138(9) 0.23362(9) 0.0766(2)
N42_8 N 0.63946(9) 0.24734(9) 0.0415(2)
N43_8 N 0.42714(9) 0.20404(9) 0.2744(2)
N44_8 N 0.44803(9) 0.21165(9) 0.2715(2)
N45_8 N 0.48778(9) 0.19307(10) 0.1582(2)
N46_8 N 0.48186(9) 0.17984(9) 0.1195(2)
N47_8 N 0.41794(9) 0.15945(9) 0.1191(2)
N48_8 N 0.40578(9) 0.16451(9) 0.1603(2)
N49_8 N 0.39638(9) 0.32889(10) 0.4481(2)
N50_8 N 0.38399(9) 0.33253(10) 0.4892(2)
N51_8 N 0.37479(9) 0.28353(10) 0.5907(2)
N52_8 N 0.38092(9) 0.26216(10) 0.5819(2)
N53_8 N 0.41957(9) 0.25115(9) 0.4591(2)
N54_8 N 0.42408(9) 0.26845(9) 0.4288(2)
N55_8 N 0.70386(8) 0.26624(8) 0.1915(2)
N56_8 N 0.70854(8) 0.24447(8) 0.1915(2)
N57_8 N 0.74091(8) 0.21688(8) 0.3101(2)
N58_8 N 0.74748(9) 0.22908(9) 0.3494(2)
N59_8 N 0.73895(9) 0.29548(9) 0.3457(2)
N60_8 N 0.72632(8) 0.30385(9) 0.3082(2)
C1_8 C 0.34775(14) 0.23511(14) 0.7335(3)
C2_8 C 0.33002(12) 0.24461(12) 0.7017(3)
C3_8 C 0.33178(12) 0.25583(12) 0.6569(3)
C4_8 C 0.31041(13) 0.26043(12) 0.6436(3)
C5_8 C 0.30181(13) 0.27137(14) 0.5984(3)
C16_8 C 0.67839(11) 0.34256(12) 0.4090(3)
C17_8 C 0.70021(11) 0.35270(10) 0.4185(2)
C18_8 C 0.72046(10) 0.34653(10) 0.4017(2)
C19_8 C 0.73477(11) 0.36147(10) 0.4230(2)
C20_7 C 0.75877(11) 0.36405(12) 0.4172(3)
C31_8 C 0.35559(14) 0.48236(16) 0.4649(3)
C32_8 C 0.34086(11) 0.48737(12) 0.4220(3)
C33_8 C 0.32861(10) 0.50549(11) 0.4122(3)
C34_8 C 0.31836(11) 0.50120(11) 0.3674(3)
C35_8 C 0.30345(12) 0.51471(14) 0.3372(3)
C36_8 C 0.28338(12) 0.52207(13) 0.4593(3)
C37_8 C 0.30573(12) 0.53077(11) 0.4666(3)
C38_8 C 0.32534(12) 0.52419(11) 0.4453(3)
C39_8 C 0.34082(11) 0.53763(11) 0.4673(3)
C40_8 C 0.36482(12) 0.53894(13) 0.4585(3)
C41_8 C 0.34409(12) 0.35425(14) 0.3340(3)
C42_8 C 0.35143(11) 0.37357(11) 0.3625(3)
C43_8 C 0.36389(11) 0.37479(11) 0.4052(3)
C44_8 C 0.36430(11) 0.39656(11) 0.4179(3)
C45_8 C 0.37503(12) 0.40777(13) 0.4600(3)
C46_8 C 0.81825(12) 0.08735(13) 0.3298(3)
C47_8 C 0.80810(11) 0.07271(10) 0.3679(2)
C48_8 C 0.81055(10) 0.05035(10) 0.3753(2)
C49_8 C 0.79717(10) 0.04591(10) 0.4164(2)
C50_8 C 0.79338(12) 0.02515(13) 0.4429(3)
C51_8 C 0.78859(11) 0.01178(14) 0.3138(3)
C52_8 C 0.81169(11) 0.01802(11) 0.3165(2)
C53_8 C 0.82167(10) 0.03473(10) 0.3436(2)
C54_8 C 0.84345(11) 0.03364(10) 0.3296(3)
C55_8 C 0.86191(12) 0.04734(13) 0.3463(3)
C56_8 C 0.72714(13) 0.17668(13) 0.4733(3)
C57_8 C 0.74361(10) 0.16595(11) 0.4404(3)
C58_8 C 0.75349(10) 0.17373(10) 0.3977(2)
C59_8 C 0.76708(10) 0.15673(11) 0.3833(3)
C60_8 C 0.78189(12) 0.15497(13) 0.3395(3)
C71_8 C 0.38429(11) 0.09174(11) 0.0794(3)
C72_8 C 0.36707(11) 0.10801(11) 0.0779(3)
C73_8 C 0.36780(10) 0.13010(10) 0.0923(3)
C74_8 C 0.34744(11) 0.13798(12) 0.0833(3)
C75_8 C 0.33855(11) 0.16051(12) 0.0896(3)
C96_8 C 0.51915(12) 0.21555(14) 0.0009(3)
C97_8 C 0.53681(11) 0.20935(11) 0.0361(3)
C98_8 C 0.53581(11) 0.19790(11) 0.0808(3)
C99_8 C 0.55688(11) 0.19778(11) 0.0987(3)
C100_8 C 0.56607(12) 0.18748(14) 0.1444(3)
C101_8 C 0.64107(12) 0.21852(12) 0.1584(3)
C102_8 C 0.64565(10) 0.23230(11) 0.1140(2)
C103_8 C 0.66335(10) 0.24566(11) 0.1038(3)
C104_8 C 0.65881(11) 0.25480(11) 0.0574(3)
C105_8 C 0.67200(11) 0.26936(12) 0.0258(3)
C106_8 C 0.39486(11) 0.20766(13) 0.3271(3)
C107_8 C 0.41815(11) 0.21198(11) 0.3155(3)
C108_8 C 0.43341(11) 0.22485(11) 0.3399(3)
C109_8 C 0.45189(11) 0.22407(11) 0.3111(3)
C110_8 C 0.47360(11) 0.23401(12) 0.3184(3)
C111_8 C 0.51851(13) 0.21521(14) 0.1862(3)
C112_8 C 0.50804(11) 0.19987(11) 0.1499(3)
C113_8 C 0.51552(11) 0.19136(11) 0.1053(3)
C114_8 C 0.49842(11) 0.17880(11) 0.0877(3)
C115_8 C 0.49673(13) 0.16520(14) 0.0423(3)
C116_8 C 0.41489(12) 0.13947(13) 0.0403(3)
C117_8 C 0.40619(11) 0.14634(11) 0.0905(3)
C118_8 C 0.38632(11) 0.14254(10) 0.1127(3)
C119_8 C 0.38679(11) 0.15463(11) 0.1560(3)
C120_8 C 0.36990(11) 0.15749(12) 0.1958(3)
C121_8 C 0.40236(14) 0.34396(14) 0.3641(4)
C122_8 C 0.39107(11) 0.34337(11) 0.4128(3)
C123_8 C 0.37449(11) 0.35689(10) 0.4313(3)
C124_8 C 0.37069(11) 0.34916(11) 0.4791(3)
C125_8 C 0.35492(12) 0.35720(13) 0.5170(3)
C126_8 C 0.34720(13) 0.30431(15) 0.6357(4)
C127_8 C 0.35697(12) 0.28347(12) 0.6188(3)
C128_8 C 0.35126(12) 0.26235(12) 0.6298(3)
C129_8 C 0.36686(11) 0.24970(12) 0.6064(3)
C130_8 C 0.36933(12) 0.22526(15) 0.6061(3)
C131_8 C 0.41970(11) 0.21118(14) 0.4545(3)
C132_8 C 0.42278(11) 0.23307(11) 0.4324(3)
C133_8 C 0.42937(11) 0.23857(11) 0.3841(3)
C134_8 C 0.43020(11) 0.26111(10) 0.3841(3)
C135_8 C 0.43625(12) 0.27629(13) 0.3436(3)
C136_8 C 0.67918(11) 0.29151(12) 0.1495(3)
C137_8 C 0.68775(10) 0.26964(10) 0.1589(3)
C138_8 C 0.68172(10) 0.24991(10) 0.1380(2)
C139_8 C 0.69545(10) 0.23438(10) 0.1594(2)
C140_8 C 0.69728(11) 0.21075(12) 0.1504(3)
C141_8 C 0.73547(11) 0.17860(12) 0.2862(3)
C142_8 C 0.74216(11) 0.19601(11) 0.3220(3)
C143_8 C 0.74972(10) 0.19410(10) 0.3707(2)
C144_8 C 0.75282(10) 0.21522(10) 0.3863(2)
C145_8 C 0.76181(12) 0.22354(13) 0.4341(3)
C146_7 C 0.75087(12) 0.30524(13) 0.4309(3)
C147_8 C 0.73879(10) 0.30966(10) 0.3838(2)
C148_8 C 0.72606(10) 0.32771(10) 0.3711(2)
C149_8 C 0.71849(10) 0.32307(11) 0.3234(2)
C150_8 C 0.70409(11) 0.33607(13) 0.2906(3)
H1_8 H 0.3414 0.2287 0.7634
H2_8 H 0.3579 0.2466 0.7430
H3_8 H 0.3554 0.2239 0.7147
H4_8 H 0.2860 0.2726 0.6009
H5_8 H 0.3056 0.2629 0.5690
H6_8 H 0.3082 0.2859 0.5957
H19_8 H 0.6688 0.3454 0.4373
H20_8 H 0.6801 0.3269 0.4047
H21_8 H 0.6721 0.3488 0.3788
H22_7 H 0.7621 0.3792 0.4092
H23_7 H 0.7639 0.3546 0.3904
H24_7 H 0.7660 0.3600 0.4483
H37_8 H 0.3559 0.4667 0.4705
H38_8 H 0.3703 0.4874 0.4573
H39_8 H 0.3503 0.4897 0.4948
H40_8 H 0.3063 0.5123 0.3018
H41_8 H 0.2884 0.5107 0.3447
H42_8 H 0.3057 0.5300 0.3452
H43_8 H 0.2751 0.5238 0.4901
H44_8 H 0.2762 0.5300 0.4324
H45_8 H 0.2842 0.5067 0.4507
H46_8 H 0.3691 0.5542 0.4554
H47_8 H 0.3725 0.5323 0.4866
H48_8 H 0.3685 0.5312 0.4279
H49_8 H 0.3352 0.3589 0.3058
H50_8 H 0.3567 0.3463 0.3218
H51_8 H 0.3355 0.3448 0.3557
H52_8 H 0.3752 0.4234 0.4537
H53_8 H 0.3670 0.4049 0.4907
H54_8 H 0.3899 0.4025 0.4634
H55_8 H 0.8074 0.0976 0.3174
H56_8 H 0.8302 0.0954 0.3450
H57_8 H 0.8238 0.0786 0.3021
H58_8 H 0.7945 0.0275 0.4788
H59_8 H 0.7789 0.0197 0.4348
H60_8 H 0.8043 0.0145 0.4325
H62_8 H 0.7810 0.0170 0.3436
H63_8 H 0.7820 0.0183 0.2842
H64_8 H 0.8751 0.0385 0.3479
H65_8 H 0.8640 0.0592 0.3227
H66_8 H 0.8588 0.0533 0.3792
H67_8 H 0.7167 0.1659 0.4849
H68_8 H 0.7345 0.1832 0.5019
H69_8 H 0.7195 0.1879 0.4545
H70_8 H 0.7954 0.1480 0.3496
H71_8 H 0.7749 0.1463 0.3135
H72_8 H 0.7850 0.1695 0.3266
H73_8 H 0.2852 0.1757 0.0137
H84_8 H 0.3409 0.0171 0.0024
H85_8 H 0.3783 0.0776 0.0703
H86_8 H 0.3903 0.0910 0.1131
H87_8 H 0.3957 0.0957 0.0559
H88_8 H 0.3254 0.1621 0.0695
H89_8 H 0.3494 0.1711 0.0788
H90_8 H 0.3350 0.1630 0.1247
H117_8 H 0.5054 0.2168 0.0191
H118_8 H 0.5803 0.1813 0.1368
H119_8 H 0.5676 0.1984 0.1705
H120_8 H 0.5563 0.1760 0.1558
H121_8 H 0.6254 0.2179 0.1640
H122_8 H 0.6467 0.2039 0.1527
H123_8 H 0.6481 0.2248 0.1877
H125_8 H 0.6673 0.2844 0.0308
H126_8 H 0.6873 0.2680 0.0349
H127_8 H 0.3910 0.1930 0.3162
H128_8 H 0.3925 0.2089 0.3630
H129_8 H 0.3858 0.2182 0.3097
H130_8 H 0.4849 0.2232 0.3116
H131_8 H 0.4753 0.2463 0.2956
H132_8 H 0.4750 0.2391 0.3527
H133_8 H 0.5078 0.2258 0.1977
H134_8 H 0.5241 0.2070 0.2147
H135_8 H 0.5305 0.2228 0.1699
H136_8 H 0.4891 0.1517 0.0503
H137_8 H 0.4887 0.1731 0.0167
H138_8 H 0.5113 0.1618 0.0300
H139_8 H 0.4302 0.1435 0.0378
H140_8 H 0.4134 0.1237 0.0366
H141_8 H 0.4067 0.1468 0.0140
H142_8 H 0.3766 0.1556 0.2285
H143_8 H 0.3637 0.1721 0.1934
H144_8 H 0.3584 0.1467 0.1914
H145_8 H 0.4167 0.3374 0.3674
H146_8 H 0.4039 0.3590 0.3531
H147_8 H 0.3939 0.3358 0.3395
H148_8 H 0.3498 0.3450 0.5372
H149_8 H 0.3426 0.3640 0.5003
H150_8 H 0.3621 0.3678 0.5385
H151_8 H 0.3587 0.3151 0.6403
H152_8 H 0.3396 0.3020 0.6673
H153_8 H 0.3369 0.3095 0.6107
H154_8 H 0.3759 0.2207 0.5747
H155_8 H 0.3550 0.2185 0.6097
H156_8 H 0.3786 0.2208 0.6338
H157_8 H 0.4265 0.2107 0.4875
H158_8 H 0.4264 0.2003 0.4331
H159_8 H 0.4042 0.2081 0.4577
H160_8 H 0.4277 0.2896 0.3467
H161_8 H 0.4333 0.2695 0.3114
H162_8 H 0.4517 0.2798 0.3461
H163_8 H 0.6813 0.3005 0.1791
H164_8 H 0.6637 0.2906 0.1420
H165_8 H 0.6868 0.2980 0.1213
H166_8 H 0.7125 0.2063 0.1535
H167_8 H 0.6921 0.2074 0.1169
H168_8 H 0.6885 0.2029 0.1749
H169_8 H 0.7230 0.1836 0.2667
H170_8 H 0.7315 0.1655 0.3047
H171_8 H 0.7476 0.1753 0.2639
H172_8 H 0.7695 0.2372 0.4281
H173_8 H 0.7719 0.2129 0.4480
H174_10 H 0.7500 0.2260 0.4577
H175_7 H 0.7540 0.2897 0.4334
H176_8 H 0.7421 0.3098 0.4593
H177_7 H 0.7645 0.3134 0.4308
H178_8 H 0.7056 0.3311 0.2562
H179_8 H 0.7081 0.3514 0.2928
H180_8 H 0.6890 0.3343 0.3013
N63_8 N 0.27696(11) 0.20555(10) 0.8188(2)
N66_8 N 0.65782(8) 0.39673(9) 0.5448(2)
Ag14_8 Ag 0.291730(8) 0.093730(9) 0.93426(2)
Ag16_8 Ag 0.575840(9) 0.352140(9) 0.72553(2)
Ag17_8 Ag 0.540390(9) 0.367370(9) 0.81229(2)
Ag18_8 Ag 0.556550(9) 0.403610(8) 0.72178(2)
Ag19_8 Ag 0.620690(8) 0.256020(8) 0.98020(2)
Ag20_8 Ag 0.569970(9) 0.235980(9) 0.97506(2)
N4_8 N 0.52304(10) 0.47132(10) 0.9467(2)
N25_8 N 0.28820(9) 0.13935(9) 0.9632(2)
N26_8 N 0.28081(9) 0.12521(9) 0.9278(2)
N27_8 N 0.30529(9) 0.06327(9) 0.9346(2)
N28_8 N 0.32143(8) 0.05674(9) 0.9661(2)
N31_8 N 0.57011(9) 0.33172(9) 0.7852(2)
N32_8 N 0.55513(9) 0.33756(9) 0.8202(2)
N33_8 N 0.52956(9) 0.39905(9) 0.8138(2)
N34_8 N 0.53688(9) 0.41408(9) 0.7799(2)
N35_8 N 0.58044(9) 0.39448(9) 0.6709(2)
N36_8 N 0.58676(9) 0.37347(9) 0.6711(2)
N37_8 N 0.59964(9) 0.26794(9) 0.9262(2)
N38_8 N 0.57894(9) 0.25997(9) 0.9263(2)
C6_8 C 0.49319(14) 0.47501(12) 0.8318(3)
C7_8 C 0.50759(12) 0.46897(11) 0.8740(3)
C8_8 C 0.51983(12) 0.44974(11) 0.8806(3)
C9_8 C 0.52921(12) 0.45214(12) 0.9278(3)
C10_8 C 0.54337(14) 0.43746(14) 0.9559(3)
C11_8 C 0.22896(14) 0.17542(14) 0.8508(3)
C12_8 C 0.25154(13) 0.18401(12) 0.8457(3)
C13_8 C 0.27053(12) 0.17745(12) 0.8679(3)
C14_8 C 0.28635(13) 0.19162(12) 0.8503(3)
C15_8 C 0.31000(13) 0.19260(14) 0.8603(4)
C21_8 C 0.33497(12) 0.03228(13) 0.7938(3)
C22_8 C 0.32920(11) 0.01361(11) 0.8256(3)
C23_8 C 0.32216(11) 0.01266(11) 0.8747(3)
C26_8 C 0.65074(12) 0.42448(13) 0.6615(3)
C27_8 C 0.64832(10) 0.41099(11) 0.6161(2)
C28_8 C 0.63138(10) 0.39755(11) 0.6011(3)
C29_8 C 0.63791(10) 0.38888(10) 0.5556(3)
C30_8 C 0.62652(11) 0.37389(12) 0.5215(3)
C61_8 C 0.29008(12) 0.17841(14) 0.9796(3)
C62_8 C 0.28447(11) 0.15961(12) 0.9478(3)
C63_8 C 0.27468(11) 0.15888(12) 0.9013(3)
C64_8 C 0.27244(12) 0.13684(12) 0.8900(3)
C65_8 C 0.26306(13) 0.12614(14) 0.8452(3)
C66_8 C 0.28669(13) 0.05039(13) 0.8586(3)
C67_8 C 0.30341(11) 0.04826(11) 0.8988(3)
C68_8 C 0.31840(10) 0.03162(10) 0.9066(2)
C69_8 C 0.32910(10) 0.03800(11) 0.9498(3)
C70_8 C 0.34709(11) 0.02659(12) 0.9770(3)
C76_8 C 0.59724(12) 0.30286(13) 0.7708(3)
C77_8 C 0.58059(11) 0.31378(11) 0.8013(3)
C78_8 C 0.57217(11) 0.30804(12) 0.8476(3)
C79_8 C 0.55627(11) 0.32329(11) 0.8581(3)
C80_8 C 0.54194(13) 0.32588(13) 0.9028(3)
C81_8 C 0.51146(14) 0.39795(13) 0.8958(3)
C82_8 C 0.52150(11) 0.41003(11) 0.8527(2)
C83_8 C 0.52385(12) 0.43201(11) 0.8455(3)
C84_8 C 0.53364(12) 0.43380(11) 0.7987(3)
C85_8 C 0.53954(12) 0.45351(14) 0.7696(3)
C86_8 C 0.59266(12) 0.42968(12) 0.6377(3)
C87_8 C 0.59510(11) 0.40613(10) 0.6456(2)
C88_8 C 0.61134(11) 0.39224(10) 0.6290(2)
C89_8 C 0.60543(11) 0.37180(11) 0.6457(3)
C90_8 C 0.61671(12) 0.35044(13) 0.6391(3)
C91_8 C 0.62039(13) 0.29839(13) 0.8910(4)
C92_8 C 0.59996(12) 0.28600(11) 0.8976(3)
C93_8 C 0.57908(12) 0.28974(11) 0.8797(3)
C94_8 C 0.56669(11) 0.27299(11) 0.8979(3)
C95_8 C 0.54287(12) 0.26851(13) 0.8914(3)
H7_8 H 0.4789 0.4791 0.8446
H8_8 H 0.4917 0.4626 0.8092
H9_8 H 0.4995 0.4873 0.8138
H10_8 H 0.5530 0.4460 0.9772
H11_8 H 0.5520 0.4288 0.9327
H12_8 H 0.5345 0.4278 0.9764
H13_8 H 0.2186 0.1863 0.8388
H14_8 H 0.2260 0.1722 0.8858
H15_8 H 0.2275 0.1621 0.8311
H16_8 H 0.3173 0.2001 0.8329
H17_8 H 0.3158 0.1779 0.8633
H18_8 H 0.3126 0.2005 0.8913
H25_8 H 0.3445 0.0274 0.7670
H26_8 H 0.3424 0.0432 0.8138
H27_8 H 0.3218 0.0386 0.7796
H31_8 H 0.6659 0.4244 0.6720
H32_8 H 0.6417 0.4185 0.6881
H33_8 H 0.6462 0.4394 0.6542
H34_8 H 0.6309 0.3770 0.4872
H35_8 H 0.6108 0.3759 0.5248
H36_8 H 0.6303 0.3589 0.5298
H74_8 H 0.2830 0.1914 0.9667
H75_8 H 0.3058 0.1805 0.9794
H76_8 H 0.2716 0.1132 0.8370
H77_8 H 0.2634 0.1363 0.8171
H78_8 H 0.2481 0.1219 0.8520
H79_8 H 0.2741 0.0583 0.8714
H80_8 H 0.2822 0.0359 0.8475
H81_8 H 0.2929 0.0584 0.8305
H82_8 H 0.3565 0.0373 0.9928
H83_8 H 0.3556 0.0179 0.9534
H91_8 H 0.5921 0.3016 0.7365
H92_8 H 0.6000 0.2884 0.7842
H93_8 H 0.6106 0.3114 0.7714
H94_8 H 0.5394 0.3413 0.9090
H95_8 H 0.5490 0.3193 0.9318
H96_8 H 0.5281 0.3187 0.8967
H97_8 H 0.5060 0.3839 0.8842
H98_8 H 0.4995 0.4065 0.9095
H99_8 H 0.5224 0.3956 0.9216
H100_8 H 0.5486 0.4493 0.7412
H101_8 H 0.5476 0.4636 0.7909
H102_8 H 0.5263 0.4606 0.7576
H103_8 H 0.5800 0.4349 0.6561
H104_8 H 0.5907 0.4326 0.6022
H105_8 H 0.6057 0.4372 0.6495
H106_8 H 0.6131 0.3408 0.6668
H107_8 H 0.6324 0.3528 0.6382
H108_8 H 0.6120 0.3438 0.6078
H109_8 H 0.6287 0.2981 0.9220
H110_8 H 0.6289 0.2918 0.8643
H111_8 H 0.6170 0.3134 0.8825
H112_8 H 0.5407 0.2530 0.8859
H113_8 H 0.5350 0.2730 0.9213
H114_8 H 0.5374 0.2766 0.8627
H115_8 H 0.5226 0.2295 0.9854
H116_8 H 0.5178 0.2044 0.9751
H124_8 H 0.6701 0.2654 0.9909
H61_8 H 0.7874 0.9960 0.3120
N10_8 N 0.32467(9) 0.97931(9) 0.8453(2)
C24_8 C 0.31959(10) 0.99105(10) 0.8856(3)
C25_8 C 0.31200(12) 0.98111(13) 0.9328(3)
H28_8 H 0.3121 0.9653 0.9296
H29_8 H 0.2972 0.9861 0.9400
H30_8 H 0.3217 0.9854 0.9600
C20_8 C 0.11405(12) 0.99123(11) 0.1672(3)
C146_8 C 0.05524(13) 0.99913(12) 0.1809(3)
H22_8 H 0.1292 0.9879 0.1592
H23_8 H 0.1046 0.9861 0.1404
H24_8 H 0.1100 0.9840 0.1983
H175_8 H 0.0397 0.9960 0.1834
H177_8 H 0.0634 0.9855 0.1808
Ag32_6 Ag 0.502487(9) 0.013852(10) 0.07568(2)
N15_6 N 0.30939(9) 0.04684(9) 0.5012(2)
N16_6 N 0.33142(9) 0.05102(9) 0.5012(2)
C33_9 C 0.32861(10) 0.00549(11) 0.5878(3)
C34_9 C 0.31836(11) 0.00120(11) 0.6326(3)
C35_9 C 0.30345(12) 0.01471(14) 0.6628(3)
C36_9 C 0.28338(12) 0.02207(13) 0.5407(3)
C37_9 C 0.30573(12) 0.03077(11) 0.5334(3)
C38_9 C 0.32534(12) 0.02419(11) 0.5547(3)
C39_9 C 0.34082(11) 0.03763(11) 0.5327(3)
C40_9 C 0.36482(12) 0.03894(13) 0.5415(3)
H40_9 H 0.3063 0.0123 0.6982
H41_9 H 0.2884 0.0107 0.6553
H42_9 H 0.3057 0.0300 0.6548
H43_9 H 0.2751 0.0238 0.5099
H44_9 H 0.2762 0.0300 0.5676
H45_9 H 0.2842 0.0067 0.5493
H46_9 H 0.3691 0.0542 0.5446
H47_9 H 0.3725 0.0323 0.5134
H48_9 H 0.3685 0.0312 0.5721
Ag37_6 Ag 0.289050(9) 0.061520(9) 0.45130(2)
Ag38_6 Ag 0.344050(9) 0.073770(9) 0.45265(2)
N62_6 N 0.54899(10) 0.00531(11) 0.9343(2)
Ag6_6 Ag 0.330250(8) 0.446330(9) 0.16411(2)
Ag14_9 Ag 0.291730(8) 0.593730(9) 0.06574(2)
Ag16_9 Ag 0.575840(9) 0.852140(9) 0.27447(2)
Ag17_9 Ag 0.540390(9) 0.867370(9) 0.18771(2)
Ag18_9 Ag 0.556550(9) 0.903610(8) 0.27822(2)
Ag19_9 Ag 0.620690(8) 0.756020(8) 0.01980(2)
Ag20_9 Ag 0.569970(9) 0.735980(9) 0.02494(2)
N3_6 N 0.50981(10) 0.98160(9) 0.0863(2)
N4_9 N 0.52304(10) 0.97132(10) 0.0533(2)
N5_4 N 0.25531(11) 0.70101(10) 0.1843(2)
N6 N 0.27696(11) 0.70555(10) 0.1812(2)
N9_6 N 0.33054(9) 0.49310(9) 0.1922(2)
N10_9 N 0.32467(9) 0.47931(9) 0.1547(2)
N11_4 N 0.66423(8) 0.91024(9) 0.4176(2)
N12 N 0.65782(8) 0.89673(9) 0.4552(2)
N25_9 N 0.28820(9) 0.63935(9) 0.0368(2)
N26_9 N 0.28081(9) 0.62521(9) 0.0722(2)
N27_9 N 0.30529(9) 0.56327(9) 0.0654(2)
N28_9 N 0.32143(8) 0.55674(9) 0.0339(2)
N31_9 N 0.57011(9) 0.83172(9) 0.2148(2)
N32_9 N 0.55513(9) 0.83756(9) 0.1798(2)
N33_9 N 0.52956(9) 0.89905(9) 0.1862(2)
N34_9 N 0.53688(9) 0.91408(9) 0.2201(2)
N35_9 N 0.58044(9) 0.89448(9) 0.3291(2)
N36_9 N 0.58676(9) 0.87347(9) 0.3289(2)
N37_9 N 0.59964(9) 0.76794(9) 0.0738(2)
N38_9 N 0.57894(9) 0.75997(9) 0.0737(2)
C6_9 C 0.49319(14) 0.97501(12) 0.1682(3)
C7_9 C 0.50759(12) 0.96897(11) 0.1260(3)
C8_9 C 0.51983(12) 0.94974(11) 0.1194(3)
C9_9 C 0.52921(12) 0.95214(12) 0.0722(3)
C10_9 C 0.54337(14) 0.93746(14) 0.0441(3)
C11_9 C 0.22896(14) 0.67542(14) 0.1492(3)
C12_9 C 0.25154(13) 0.68401(12) 0.1543(3)
C13_9 C 0.27053(12) 0.67745(12) 0.1321(3)
C14_9 C 0.28635(13) 0.69162(12) 0.1497(3)
C15_9 C 0.31000(13) 0.69260(14) 0.1397(4)
C21_9 C 0.33497(12) 0.53228(13) 0.2062(3)
C22_9 C 0.32920(11) 0.51361(11) 0.1744(3)
C23_9 C 0.32216(11) 0.51266(11) 0.1253(3)
C24_9 C 0.31959(10) 0.49105(10) 0.1144(3)
C25_9 C 0.31200(12) 0.48111(13) 0.0672(3)
C26_9 C 0.65074(12) 0.92448(13) 0.3385(3)
C27_9 C 0.64832(10) 0.91099(11) 0.3839(2)
C28_9 C 0.63138(10) 0.89755(11) 0.3989(3)
C29_9 C 0.63791(10) 0.88888(10) 0.4444(3)
C30_9 C 0.62652(11) 0.87389(12) 0.4785(3)
C61_9 C 0.29008(12) 0.67841(14) 0.0204(3)
C62_9 C 0.28447(11) 0.65961(12) 0.0522(3)
C63_9 C 0.27468(11) 0.65888(12) 0.0987(3)
C64_9 C 0.27244(12) 0.63684(12) 0.1100(3)
C65_9 C 0.26306(13) 0.62614(14) 0.1548(3)
C66_9 C 0.28669(13) 0.55039(13) 0.1414(3)
C67_9 C 0.30341(11) 0.54826(11) 0.1012(3)
C68_9 C 0.31840(10) 0.53162(10) 0.0934(2)
C69_9 C 0.32910(10) 0.53800(11) 0.0502(3)
C70_9 C 0.34709(11) 0.52659(12) 0.0230(3)
C76_9 C 0.59724(12) 0.80286(13) 0.2292(3)
C77_9 C 0.58059(11) 0.81378(11) 0.1987(3)
C78_9 C 0.57217(11) 0.80804(12) 0.1524(3)
C79_9 C 0.55627(11) 0.82329(11) 0.1419(3)
C80_9 C 0.54194(13) 0.82588(13) 0.0972(3)
C81_9 C 0.51146(14) 0.89795(13) 0.1042(3)
C82_9 C 0.52150(11) 0.91003(11) 0.1473(2)
C83_9 C 0.52385(12) 0.93201(11) 0.1545(3)
C84_9 C 0.53364(12) 0.93380(11) 0.2013(3)
C85_9 C 0.53954(12) 0.95351(14) 0.2304(3)
C86_9 C 0.59266(12) 0.92968(12) 0.3623(3)
C87_9 C 0.59510(11) 0.90613(10) 0.3544(2)
C88_9 C 0.61134(11) 0.89224(10) 0.3710(2)
C89_9 C 0.60543(11) 0.87180(11) 0.3543(3)
C90_9 C 0.61671(12) 0.85044(13) 0.3609(3)
C91_9 C 0.62039(13) 0.79839(13) 0.1090(4)
C92_9 C 0.59996(12) 0.78600(11) 0.1024(3)
C93_9 C 0.57908(12) 0.78974(11) 0.1203(3)
C94_9 C 0.56669(11) 0.77299(11) 0.1021(3)
C95_9 C 0.54287(12) 0.76851(13) 0.1086(3)
H7_9 H 0.4789 0.9791 0.1554
H8_9 H 0.4917 0.9626 0.1908
H9_9 H 0.4995 0.9873 0.1862
H10_9 H 0.5530 0.9460 0.0228
H11_9 H 0.5520 0.9288 0.0673
H12_9 H 0.5345 0.9278 0.0236
H13_9 H 0.2186 0.6863 0.1612
H14_9 H 0.2260 0.6722 0.1142
H15_9 H 0.2275 0.6621 0.1689
H16_9 H 0.3173 0.7001 0.1671
H17_9 H 0.3158 0.6779 0.1367
H18_9 H 0.3126 0.7005 0.1087
H25_9 H 0.3445 0.5274 0.2330
H26_9 H 0.3424 0.5432 0.1862
H27_9 H 0.3218 0.5386 0.2204
H28_9 H 0.3121 0.4653 0.0704
H29_9 H 0.2972 0.4861 0.0600
H30_9 H 0.3217 0.4854 0.0400
H31_9 H 0.6659 0.9244 0.3280
H32_9 H 0.6417 0.9185 0.3119
H33_9 H 0.6462 0.9394 0.3458
H34_9 H 0.6309 0.8770 0.5128
H35_9 H 0.6108 0.8759 0.4752
H36_9 H 0.6303 0.8589 0.4702
H74_9 H 0.2830 0.6914 0.0333
H75_9 H 0.3058 0.6805 0.0206
H76_9 H 0.2716 0.6132 0.1630
H77_9 H 0.2634 0.6363 0.1829
H78_9 H 0.2481 0.6219 0.1480
H79_9 H 0.2741 0.5583 0.1286
H80_9 H 0.2822 0.5359 0.1525
H81_9 H 0.2929 0.5584 0.1695
H82_9 H 0.3565 0.5373 0.0072
H83_9 H 0.3556 0.5179 0.0466
H91_9 H 0.5921 0.8016 0.2635
H92_9 H 0.6000 0.7884 0.2158
H93_9 H 0.6106 0.8114 0.2286
H94_9 H 0.5394 0.8413 0.0910
H95_9 H 0.5490 0.8193 0.0682
H96_9 H 0.5281 0.8187 0.1033
H97_9 H 0.5060 0.8839 0.1158
H98_9 H 0.4995 0.9065 0.0905
H99_9 H 0.5224 0.8956 0.0784
H100_9 H 0.5486 0.9493 0.2588
H101_9 H 0.5476 0.9636 0.2091
H102_9 H 0.5263 0.9606 0.2424
H103_9 H 0.5800 0.9349 0.3439
H104_9 H 0.5907 0.9326 0.3978
H105_9 H 0.6057 0.9372 0.3505
H106_9 H 0.6131 0.8408 0.3332
H107_9 H 0.6324 0.8528 0.3618
H108_9 H 0.6120 0.8438 0.3922
H109_9 H 0.6287 0.7981 0.0780
H110_9 H 0.6289 0.7918 0.1357
H111_9 H 0.6170 0.8134 0.1175
H112_9 H 0.5407 0.7530 0.1141
H113_9 H 0.5350 0.7730 0.0787
H114_9 H 0.5374 0.7766 0.1373
H115_9 H 0.5226 0.7295 0.0146
H116_9 H 0.5178 0.7044 0.0249
H124_9 H 0.6701 0.7654 0.0091
Ag31 Ag 0.292347(11) 0.726069(9) 0.23127(2)
Ag33_4 Ag 0.238000(9) 0.715140(11) 0.24177(2)
Ag34 Ag 0.679910(8) 0.885430(8) 0.506640(19)
Ag35_6 Ag 0.350100(8) 0.482190(8) 0.24982(2)
Ag36_4 Ag 0.696330(9) 0.919750(8) 0.41411(2)
N65_6 N 0.33976(9) 0.41423(8) 0.1676(2)
Ag2_4 Ag 0.263852(10) 0.747513(9) 0.32568(2)
Ag3_6 Ag 0.534860(11) 0.988000(9) 0.99177(2)
Ag5_4 Ag 0.732190(8) 0.899900(8) 0.49982(2)
Ag7_9 Ag 0.346730(8) 0.940540(9) 0.61999(2)
Ag8_4 Ag 0.311520(9) 0.960950(9) 0.70130(2)
Ag9_4 Ag 0.323770(9) 0.905950(9) 0.70265(2)
Ag10_9 Ag 0.779360(8) 0.610210(8) 0.59017(2)
Ag11_6 Ag 0.765120(8) 0.571150(8) 0.514510(19)
Ag12_6 Ag 0.741830(8) 0.622120(9) 0.49793(2)
Ag13_9 Ag 0.309120(9) 0.628260(8) 0.98307(2)
Ag15_9 Ag 0.333620(8) 0.579260(8) 0.98264(2)
Ag21_9 Ag 0.600950(8) 0.720110(8) 0.92970(2)
Ag22_9 Ag 0.416750(9) 0.684270(9) 0.78309(2)
Ag23_9 Ag 0.467400(9) 0.701090(9) 0.78496(2)
Ag24_9 Ag 0.450180(8) 0.668950(9) 0.88179(2)
Ag25_9 Ag 0.412270(9) 0.799370(9) 0.55638(2)
Ag26_9 Ag 0.382930(9) 0.808450(10) 0.45778(2)
Ag27_9 Ag 0.402350(9) 0.756590(9) 0.47596(2)
Ag28_9 Ag 0.717470(8) 0.785040(8) 0.752570(19)
Ag29_9 Ag 0.726860(8) 0.731720(8) 0.750950(19)
Ag30_9 Ag 0.745250(8) 0.762510(8) 0.654430(19)
N1_9 N 0.30916(10) 0.74296(10) 0.2858(2)
N2_9 N 0.29674(10) 0.75252(10) 0.3215(2)
N7_9 N 0.70174(9) 0.87021(8) 0.5528(2)
N8_9 N 0.72338(9) 0.87600(9) 0.5499(2)
N13_9 N 0.33828(9) 0.97279(9) 0.6139(2)
N14_9 N 0.32411(9) 0.98135(9) 0.6483(2)
N17_9 N 0.34496(9) 0.89345(10) 0.6506(2)
N18_9 N 0.35312(9) 0.90780(9) 0.6165(2)
N19_9 N 0.79457(8) 0.58070(9) 0.5982(2)
N20_9 N 0.78779(9) 0.56414(9) 0.5682(2)
N21_4 N 0.82676(9) 0.50794(9) 0.7112(2)
N22_4 N 0.84631(9) 0.51771(9) 0.7029(2)
N23_9 N 0.75060(9) 0.64596(9) 0.5494(2)
N24_9 N 0.76520(9) 0.64029(9) 0.5848(2)
N29_9 N 0.34708(8) 0.60408(8) 0.9391(2)
N30_9 N 0.33475(9) 0.62225(9) 0.9355(2)
N39_9 N 0.55717(8) 0.71574(9) 0.9718(2)
N40_9 N 0.56961(9) 0.70845(9) 0.9337(2)
N41_9 N 0.63138(9) 0.73362(9) 0.9234(2)
N42_9 N 0.63946(9) 0.74734(9) 0.9585(2)
N43_9 N 0.42714(9) 0.70404(9) 0.7256(2)
N44_9 N 0.44803(9) 0.71165(9) 0.7285(2)
N45_9 N 0.48778(9) 0.69307(10) 0.8418(2)
N46_9 N 0.48186(9) 0.67984(9) 0.8805(2)
N47_9 N 0.41794(9) 0.65945(9) 0.8809(2)
N48_9 N 0.40578(9) 0.66451(9) 0.8397(2)
N49_9 N 0.39638(9) 0.82889(10) 0.5519(2)
N50_9 N 0.38399(9) 0.83253(10) 0.5108(2)
N51_9 N 0.37479(9) 0.78353(10) 0.4093(2)
N52_9 N 0.38092(9) 0.76216(10) 0.4181(2)
N53_9 N 0.41957(9) 0.75115(9) 0.5409(2)
N54_9 N 0.42408(9) 0.76845(9) 0.5712(2)
N55_9 N 0.70386(8) 0.76624(8) 0.8085(2)
N56_9 N 0.70854(8) 0.74447(8) 0.8085(2)
N57_9 N 0.74091(8) 0.71688(8) 0.6899(2)
N58_9 N 0.74748(9) 0.72908(9) 0.6506(2)
N59_9 N 0.73895(9) 0.79548(9) 0.6543(2)
N60_9 N 0.72632(8) 0.80385(9) 0.6918(2)
C1_9 C 0.34775(14) 0.73511(14) 0.2665(3)
C2_9 C 0.33002(12) 0.74461(12) 0.2983(3)
C3_9 C 0.33178(12) 0.75583(12) 0.3431(3)
C4_9 C 0.31041(13) 0.76043(12) 0.3564(3)
C5_9 C 0.30181(13) 0.77137(14) 0.4016(3)
C16_9 C 0.67839(11) 0.84256(12) 0.5910(3)
C17_9 C 0.70021(11) 0.85270(10) 0.5815(2)
C18_9 C 0.72046(10) 0.84653(10) 0.5983(2)
C19_9 C 0.73477(11) 0.86147(10) 0.5770(2)
C20_9 C 0.75877(11) 0.86405(12) 0.5828(3)
C31_9 C 0.35559(14) 0.98236(16) 0.5351(3)
C32_9 C 0.34086(11) 0.98737(12) 0.5780(3)
C41_9 C 0.34409(12) 0.85425(14) 0.6660(3)
C42_9 C 0.35143(11) 0.87357(11) 0.6375(3)
C43_9 C 0.36389(11) 0.87479(11) 0.5948(3)
C44_9 C 0.36430(11) 0.89656(11) 0.5821(3)
C45_9 C 0.37503(12) 0.90777(13) 0.5400(3)
C46_9 C 0.81825(12) 0.58735(13) 0.6702(3)
C47_9 C 0.80810(11) 0.57271(10) 0.6321(2)
C48_9 C 0.81055(10) 0.55035(10) 0.6247(2)
C49_9 C 0.79717(10) 0.54591(10) 0.5836(2)
C50_9 C 0.79338(12) 0.52515(13) 0.5571(3)
C51_9 C 0.78859(11) 0.51178(14) 0.6862(3)
C52_9 C 0.81169(11) 0.51802(11) 0.6835(2)
C53_9 C 0.82167(10) 0.53473(10) 0.6564(2)
C54_9 C 0.84345(11) 0.53364(10) 0.6704(3)
C55_9 C 0.86191(12) 0.54734(13) 0.6537(3)
C56_9 C 0.72714(13) 0.67668(13) 0.5267(3)
C57_9 C 0.74361(10) 0.66595(11) 0.5596(3)
C58_9 C 0.75349(10) 0.67373(10) 0.6023(2)
C59_9 C 0.76708(10) 0.65673(11) 0.6167(3)
C60_9 C 0.78189(12) 0.65497(13) 0.6605(3)
C71_9 C 0.38429(11) 0.59174(11) 0.9206(3)
C72_9 C 0.36707(11) 0.60801(11) 0.9221(3)
C73_9 C 0.36780(10) 0.63010(10) 0.9077(3)
C74_9 C 0.34744(11) 0.63798(12) 0.9167(3)
C75_9 C 0.33855(11) 0.66051(12) 0.9104(3)
C96_9 C 0.51915(12) 0.71555(14) 0.9991(3)
C97_9 C 0.53681(11) 0.70935(11) 0.9639(3)
C98_9 C 0.53581(11) 0.69790(11) 0.9192(3)
C99_9 C 0.55688(11) 0.69778(11) 0.9013(3)
C100_9 C 0.56607(12) 0.68748(14) 0.8556(3)
C101_9 C 0.64107(12) 0.71852(12) 0.8416(3)
C102_9 C 0.64565(10) 0.73230(11) 0.8860(2)
C103_9 C 0.66335(10) 0.74566(11) 0.8962(3)
C104_9 C 0.65881(11) 0.75480(11) 0.9426(3)
C105_9 C 0.67200(11) 0.76936(12) 0.9742(3)
C106_9 C 0.39486(11) 0.70766(13) 0.6729(3)
C107_9 C 0.41815(11) 0.71198(11) 0.6845(3)
C108_9 C 0.43341(11) 0.72485(11) 0.6601(3)
C109_9 C 0.45189(11) 0.72407(11) 0.6889(3)
C110_9 C 0.47360(11) 0.73401(12) 0.6816(3)
C111_9 C 0.51851(13) 0.71521(14) 0.8138(3)
C112_9 C 0.50804(11) 0.69987(11) 0.8501(3)
C113_9 C 0.51552(11) 0.69136(11) 0.8947(3)
C114_9 C 0.49842(11) 0.67880(11) 0.9123(3)
C115_9 C 0.49673(13) 0.66520(14) 0.9577(3)
C116_9 C 0.41489(12) 0.63947(13) 0.9597(3)
C117_9 C 0.40619(11) 0.64634(11) 0.9095(3)
C118_9 C 0.38632(11) 0.64254(10) 0.8873(3)
C119_9 C 0.38679(11) 0.65463(11) 0.8440(3)
C120_9 C 0.36990(11) 0.65749(12) 0.8042(3)
C121_9 C 0.40236(14) 0.84396(14) 0.6359(4)
C122_9 C 0.39107(11) 0.84337(11) 0.5872(3)
C123_9 C 0.37449(11) 0.85689(10) 0.5687(3)
C124_9 C 0.37069(11) 0.84916(11) 0.5209(3)
C125_9 C 0.35492(12) 0.85720(13) 0.4830(3)
C126_9 C 0.34720(13) 0.80431(15) 0.3643(4)
C127_9 C 0.35697(12) 0.78347(12) 0.3812(3)
C128_9 C 0.35126(12) 0.76235(12) 0.3702(3)
C129_9 C 0.36686(11) 0.74970(12) 0.3936(3)
C130_9 C 0.36933(12) 0.72526(15) 0.3939(3)
C131_9 C 0.41970(11) 0.71118(14) 0.5455(3)
C132_9 C 0.42278(11) 0.73307(11) 0.5676(3)
C133_9 C 0.42937(11) 0.73857(11) 0.6159(3)
C134_9 C 0.43020(11) 0.76111(10) 0.6159(3)
C135_9 C 0.43625(12) 0.77629(13) 0.6564(3)
C136_9 C 0.67918(11) 0.79151(12) 0.8505(3)
C137_9 C 0.68775(10) 0.76964(10) 0.8411(3)
C138_9 C 0.68172(10) 0.74991(10) 0.8620(2)
C139_9 C 0.69545(10) 0.73438(10) 0.8406(2)
C140_9 C 0.69728(11) 0.71075(12) 0.8496(3)
C141_9 C 0.73547(11) 0.67860(12) 0.7138(3)
C142_9 C 0.74216(11) 0.69601(11) 0.6780(3)
C143_9 C 0.74972(10) 0.69410(10) 0.6293(2)
C144_9 C 0.75282(10) 0.71522(10) 0.6137(2)
C145_9 C 0.76181(12) 0.72354(13) 0.5659(3)
C146_9 C 0.75087(12) 0.80524(13) 0.5691(3)
C147_9 C 0.73879(10) 0.80966(10) 0.6162(2)
C148_9 C 0.72606(10) 0.82771(10) 0.6289(2)
C149_9 C 0.71849(10) 0.82307(11) 0.6766(2)
C150_9 C 0.70409(11) 0.83607(13) 0.7094(3)
H1_9 H 0.3414 0.7287 0.2366
H2_9 H 0.3579 0.7466 0.2570
H3_9 H 0.3554 0.7239 0.2853
H4_9 H 0.2860 0.7726 0.3991
H5_9 H 0.3056 0.7629 0.4310
H6_9 H 0.3082 0.7859 0.4043
H19_9 H 0.6688 0.8454 0.5627
H20_9 H 0.6801 0.8269 0.5953
H21_9 H 0.6721 0.8488 0.6212
H22_9 H 0.7621 0.8792 0.5908
H23_9 H 0.7639 0.8546 0.6096
H24_9 H 0.7660 0.8600 0.5517
H37_9 H 0.3559 0.9667 0.5295
H38_9 H 0.3703 0.9874 0.5427
H39_9 H 0.3503 0.9897 0.5052
H49_9 H 0.3352 0.8589 0.6942
H50_9 H 0.3567 0.8463 0.6782
H51_9 H 0.3355 0.8448 0.6443
H52_9 H 0.3752 0.9234 0.5463
H53_9 H 0.3670 0.9049 0.5093
H54_9 H 0.3899 0.9025 0.5366
H55_9 H 0.8074 0.5976 0.6826
H56_9 H 0.8302 0.5954 0.6550
H57_9 H 0.8238 0.5786 0.6979
H58_9 H 0.7945 0.5275 0.5212
H59_9 H 0.7789 0.5197 0.5652
H60_9 H 0.8043 0.5145 0.5675
H61_9 H 0.7874 0.4960 0.6880
H62_9 H 0.7810 0.5170 0.6564
H63_9 H 0.7820 0.5183 0.7158
H64_9 H 0.8751 0.5385 0.6521
H65_9 H 0.8640 0.5592 0.6773
H66_9 H 0.8588 0.5533 0.6208
H67_9 H 0.7167 0.6659 0.5151
H68_9 H 0.7345 0.6832 0.4981
H69_9 H 0.7195 0.6879 0.5455
H70_9 H 0.7954 0.6480 0.6504
H71_9 H 0.7749 0.6463 0.6865
H72_9 H 0.7850 0.6695 0.6734
H73_9 H 0.2852 0.6757 0.9863
H84_9 H 0.3409 0.5171 0.9976
H85_9 H 0.3783 0.5776 0.9297
H86_9 H 0.3903 0.5910 0.8869
H87_9 H 0.3957 0.5957 0.9441
H88_9 H 0.3254 0.6621 0.9305
H89_9 H 0.3494 0.6711 0.9212
H90_9 H 0.3350 0.6630 0.8753
H117_9 H 0.5054 0.7168 0.9809
H118_9 H 0.5803 0.6813 0.8632
H119_9 H 0.5676 0.6984 0.8295
H120_9 H 0.5563 0.6760 0.8442
H121_9 H 0.6254 0.7179 0.8360
H122_9 H 0.6467 0.7039 0.8473
H123_9 H 0.6481 0.7248 0.8123
H125_9 H 0.6673 0.7844 0.9692
H126_9 H 0.6873 0.7680 0.9651
H127_9 H 0.3910 0.6930 0.6838
H128_9 H 0.3925 0.7089 0.6370
H129_9 H 0.3858 0.7182 0.6903
H130_9 H 0.4849 0.7232 0.6884
H131_9 H 0.4753 0.7463 0.7044
H132_9 H 0.4750 0.7391 0.6473
H133_9 H 0.5078 0.7258 0.8023
H134_9 H 0.5241 0.7070 0.7853
H135_9 H 0.5305 0.7228 0.8301
H136_9 H 0.4891 0.6517 0.9497
H137_9 H 0.4887 0.6731 0.9833
H138_9 H 0.5113 0.6618 0.9700
H139_9 H 0.4302 0.6435 0.9622
H140_9 H 0.4134 0.6237 0.9634
H141_9 H 0.4067 0.6468 0.9860
H142_9 H 0.3766 0.6556 0.7715
H143_9 H 0.3637 0.6721 0.8066
H144_9 H 0.3584 0.6467 0.8086
H145_9 H 0.4167 0.8374 0.6326
H146_9 H 0.4039 0.8590 0.6469
H147_9 H 0.3939 0.8358 0.6605
H148_9 H 0.3498 0.8450 0.4628
H149_9 H 0.3426 0.8640 0.4997
H150_9 H 0.3621 0.8678 0.4615
H151_9 H 0.3587 0.8151 0.3597
H152_9 H 0.3396 0.8020 0.3327
H153_9 H 0.3369 0.8095 0.3893
H154_9 H 0.3759 0.7207 0.4253
H155_9 H 0.3550 0.7185 0.3903
H156_9 H 0.3786 0.7208 0.3662
H157_9 H 0.4265 0.7107 0.5125
H158_9 H 0.4264 0.7003 0.5669
H159_9 H 0.4042 0.7081 0.5423
H160_9 H 0.4277 0.7896 0.6533
H161_9 H 0.4333 0.7695 0.6886
H162_9 H 0.4517 0.7798 0.6539
H163_9 H 0.6813 0.8005 0.8209
H164_9 H 0.6637 0.7906 0.8580
H165_9 H 0.6868 0.7980 0.8787
H166_9 H 0.7125 0.7063 0.8465
H167_9 H 0.6921 0.7074 0.8831
H168_9 H 0.6885 0.7029 0.8251
H169_9 H 0.7230 0.6836 0.7333
H170_9 H 0.7315 0.6655 0.6953
H171_9 H 0.7476 0.6753 0.7361
H172_9 H 0.7695 0.7372 0.5719
H173_9 H 0.7719 0.7129 0.5520
H174_11 H 0.7500 0.7260 0.5423
H175_9 H 0.7540 0.7897 0.5666
H176_9 H 0.7421 0.8098 0.5407
H177_9 H 0.7645 0.8134 0.5692
H178_9 H 0.7056 0.8311 0.7438
H179_9 H 0.7081 0.8514 0.7072
H180_9 H 0.6890 0.8343 0.6987
Ag39_4 Ag 0.821150(8) 0.484880(8) 0.764510(19)
Ag40_4 Ag 0.872120(9) 0.508170(8) 0.74793(2)
N61_4 N 0.23160(9) 0.74019(10) 0.3363(2)
N64_4 N 0.74310(9) 0.91946(9) 0.4422(2)
N67_4 N 0.29684(9) 0.94061(9) 0.7512(2)
N68_4 N 0.30102(9) 0.91858(9) 0.7512(2)
N69_6 N 0.74206(9) 0.57676(9) 0.4612(2)
N70_6 N 0.73229(9) 0.59631(9) 0.4529(2)
Ag16_10 Ag 0.397860(9) 0.325840(9) 0.02447(2)
Ag18_10 Ag 0.346390(8) 0.306550(9) 0.02822(2)
N12_2 N 0.35327(9) 0.40782(8) 0.2052(2)
N35_10 N 0.35552(9) 0.33044(9) 0.0791(2)
N36_10 N 0.37653(9) 0.33676(9) 0.0789(2)
C26_10 C 0.32552(13) 0.40074(12) 0.0885(3)
C27_10 C 0.33901(11) 0.39832(10) 0.1339(2)
C28_10 C 0.35245(11) 0.38138(10) 0.1489(3)
C29_10 C 0.36112(10) 0.38791(10) 0.1944(3)
C30_10 C 0.37611(12) 0.37652(11) 0.2285(3)
C86_10 C 0.32032(12) 0.34266(12) 0.1123(3)
C87_10 C 0.34387(10) 0.34510(11) 0.1044(2)
C88_10 C 0.35776(10) 0.36134(11) 0.1210(2)
C89_10 C 0.37820(11) 0.35543(11) 0.1043(3)
C90_10 C 0.39956(13) 0.36671(12) 0.1109(3)
H31_10 H 0.3256 0.4159 0.0780
H32_10 H 0.3315 0.3917 0.0619
H33_10 H 0.3106 0.3962 0.0958
H34_10 H 0.3730 0.3809 0.2628
H35_10 H 0.3741 0.3608 0.2252
H36_10 H 0.3911 0.3803 0.2202
H91_10 H 0.4484 0.3421 0.0135
H100_10 H 0.3007 0.2986 0.0088
H103_10 H 0.3151 0.3300 0.0939
H104_10 H 0.3174 0.3407 0.1478
H105_10 H 0.3128 0.3557 0.1005
H106_10 H 0.4092 0.3631 0.0832
H107_10 H 0.3972 0.3824 0.1118
H108_10 H 0.4062 0.3620 0.1422
Ag34_2 Ag 0.364570(8) 0.429910(8) 0.256640(19)
Ag3_7 Ag 0.262000(9) 0.284860(11) 0.74177(2)
Ag6_7 Ag 0.803670(9) 0.080250(8) 0.91411(2)
Ag7_10 Ag 0.309460(9) 0.096730(8) 0.36999(2)
Ag10_10 Ag 0.639790(8) 0.529360(8) 0.34017(2)
Ag11_7 Ag 0.678850(8) 0.515120(8) 0.264510(19)
Ag12_7 Ag 0.627880(9) 0.491830(8) 0.24793(2)
Ag13_10 Ag 0.621740(8) 0.059120(9) 0.73307(2)
Ag14_10 Ag 0.656270(9) 0.041730(8) 0.81574(2)
Ag15_10 Ag 0.670740(8) 0.083620(8) 0.73264(2)
Ag17_10 Ag 0.382630(9) 0.290390(9) 0.93771(2)
Ag19_10 Ag 0.493980(8) 0.370690(8) 0.76980(2)
Ag20_10 Ag 0.514020(9) 0.319970(9) 0.77494(2)
Ag21_10 Ag 0.529890(8) 0.350950(8) 0.67970(2)
Ag22_10 Ag 0.565730(9) 0.166750(9) 0.53309(2)
Ag23_10 Ag 0.548910(9) 0.217400(9) 0.53496(2)
Ag24_10 Ag 0.581050(9) 0.200180(8) 0.63179(2)
Ag25_10 Ag 0.450630(9) 0.162270(9) 0.30638(2)
Ag26_10 Ag 0.441550(10) 0.132930(9) 0.20778(2)
Ag27_10 Ag 0.493410(9) 0.152350(9) 0.22596(2)
Ag28_10 Ag 0.464960(8) 0.467470(8) 0.502570(19)
Ag29_10 Ag 0.518280(8) 0.476860(8) 0.500950(19)
Ag30_10 Ag 0.487490(8) 0.495250(8) 0.404430(19)
N1_10 N 0.50704(10) 0.05916(10) 0.0358(2)
N2_10 N 0.49748(10) 0.04674(10) 0.0715(2)
N3_7 N 0.26840(9) 0.25981(10) 0.8363(2)
N4_10 N 0.27868(10) 0.27304(10) 0.8033(2)
N6_2 N 0.54445(10) 0.02696(11) 0.9312(2)
N7_10 N 0.37979(8) 0.45174(9) 0.3028(2)
N8_10 N 0.37400(9) 0.47338(9) 0.2999(2)
N9_7 N 0.75690(9) 0.08054(9) 0.9422(2)
N10_10 N 0.77069(9) 0.07467(9) 0.9047(2)
N13_10 N 0.27721(9) 0.08828(9) 0.3639(2)
N14_10 N 0.26865(9) 0.07411(9) 0.3983(2)
N15_7 N 0.20316(9) 0.05939(9) 0.2512(2)
N16_7 N 0.19898(9) 0.08142(9) 0.2512(2)
N17_10 N 0.35655(10) 0.09496(9) 0.4006(2)
N18_10 N 0.34220(9) 0.10312(9) 0.3665(2)
N19_10 N 0.66930(9) 0.54457(8) 0.3482(2)
N20_10 N 0.68586(9) 0.53779(9) 0.3182(2)
N23_10 N 0.60404(9) 0.50060(9) 0.2994(2)
N24_10 N 0.60971(9) 0.51520(9) 0.3348(2)
N25_10 N 0.61065(9) 0.03820(9) 0.7868(2)
N26_10 N 0.62479(9) 0.03081(9) 0.8222(2)
N27_10 N 0.68673(9) 0.05529(9) 0.8154(2)
N28_10 N 0.69326(9) 0.07143(8) 0.7839(2)
N29_10 N 0.64592(8) 0.09708(8) 0.6891(2)
N30_10 N 0.62775(9) 0.08475(9) 0.6855(2)
N31_10 N 0.41828(9) 0.32011(9) 0.9648(2)
N32_10 N 0.41244(9) 0.30513(9) 0.9298(2)
N33_10 N 0.35095(9) 0.27956(9) 0.9362(2)
N34_10 N 0.33592(9) 0.28688(9) 0.9701(2)
N37_10 N 0.48206(9) 0.34964(9) 0.8238(2)
N38_10 N 0.49003(9) 0.32894(9) 0.8237(2)
N39_10 N 0.53426(9) 0.30717(8) 0.7218(2)
N40_10 N 0.54155(9) 0.31961(9) 0.6837(2)
N41_10 N 0.51638(9) 0.38138(9) 0.6734(2)
N42_10 N 0.50266(9) 0.38946(9) 0.7085(2)
N43_10 N 0.54596(9) 0.17714(9) 0.4756(2)
N44_10 N 0.53835(9) 0.19803(9) 0.4785(2)
N45_10 N 0.55693(10) 0.23778(9) 0.5918(2)
N46_10 N 0.57016(9) 0.23186(9) 0.6305(2)
N47_10 N 0.59055(9) 0.16794(9) 0.6309(2)
N48_10 N 0.58549(9) 0.15578(9) 0.5897(2)
N49_10 N 0.42111(10) 0.14638(9) 0.3019(2)
N50_10 N 0.41747(10) 0.13399(9) 0.2608(2)
N51_10 N 0.46647(10) 0.12479(9) 0.1593(2)
N52_10 N 0.48784(10) 0.13092(9) 0.1681(2)
N53_10 N 0.49885(9) 0.16957(9) 0.2909(2)
N54_10 N 0.48155(9) 0.17408(9) 0.3212(2)
N55_10 N 0.48376(8) 0.45386(8) 0.5585(2)
N56_10 N 0.50553(8) 0.45854(8) 0.5585(2)
N57_10 N 0.53312(8) 0.49091(8) 0.4399(2)
N58_10 N 0.52092(9) 0.49748(9) 0.4006(2)
N59_10 N 0.45452(9) 0.48895(9) 0.4043(2)
N60_10 N 0.44615(9) 0.47632(8) 0.4418(2)
C1_10 C 0.51489(14) 0.09775(14) 0.0165(3)
C2_10 C 0.50539(12) 0.08002(12) 0.0483(3)
C3_10 C 0.49417(12) 0.08178(12) 0.0931(3)
C4_10 C 0.48957(12) 0.06041(13) 0.1064(3)
C5_10 C 0.47863(14) 0.05181(13) 0.1516(3)
C6_10 C 0.27499(12) 0.24319(14) 0.9182(3)
C7_10 C 0.28103(11) 0.25759(12) 0.8760(3)
C8_10 C 0.30026(11) 0.26983(12) 0.8694(3)
C9_10 C 0.29786(12) 0.27921(12) 0.8222(3)
C10_10 C 0.31254(14) 0.29337(14) 0.7941(3)
C12_10 C 0.56599(12) 0.00154(13) 0.9043(3)
C13_10 C 0.57255(12) 0.02053(12) 0.8821(3)
C14_10 C 0.55838(12) 0.03635(13) 0.8997(3)
C15_10 C 0.55740(14) 0.06000(13) 0.8897(4)
C16_10 C 0.40744(12) 0.42839(11) 0.3410(3)
C17_10 C 0.39730(10) 0.45021(11) 0.3315(2)
C18_10 C 0.40347(10) 0.47046(10) 0.3483(2)
C19_10 C 0.38853(10) 0.48477(11) 0.3270(2)
C20_10 C 0.38595(12) 0.50877(11) 0.3328(3)
C21_10 C 0.71772(13) 0.08497(12) 0.9562(3)
C22_10 C 0.73639(11) 0.07920(11) 0.9244(3)
C23_10 C 0.73734(11) 0.07216(11) 0.8753(3)
C24_10 C 0.75895(10) 0.06959(10) 0.8644(3)
C25_10 C 0.76889(13) 0.06200(12) 0.8172(3)
C31_10 C 0.26764(16) 0.10559(14) 0.2851(3)
C32_10 C 0.26263(12) 0.09086(11) 0.3280(3)
C33_10 C 0.24451(11) 0.07861(10) 0.3378(3)
C34_10 C 0.24880(11) 0.06836(11) 0.3826(3)
C35_10 C 0.23529(14) 0.05345(12) 0.4128(3)
C36_10 C 0.22793(13) 0.03338(12) 0.2907(3)
C37_10 C 0.21923(11) 0.05573(12) 0.2834(3)
C38_10 C 0.22581(11) 0.07534(12) 0.3047(3)
C39_10 C 0.21237(11) 0.09082(11) 0.2827(3)
C40_10 C 0.21106(13) 0.11482(12) 0.2915(3)
C41_10 C 0.39575(14) 0.09409(12) 0.4160(3)
C42_10 C 0.37643(11) 0.10143(11) 0.3875(3)
C43_10 C 0.37521(11) 0.11389(11) 0.3448(3)
C44_10 C 0.35344(11) 0.11430(11) 0.3321(3)
C45_10 C 0.34223(13) 0.12503(12) 0.2900(3)
C46_10 C 0.66265(13) 0.56825(12) 0.4202(3)
C47_10 C 0.67729(10) 0.55810(11) 0.3821(2)
C48_10 C 0.69965(10) 0.56055(10) 0.3747(2)
C49_10 C 0.70409(10) 0.54717(10) 0.3336(2)
C50_10 C 0.72485(13) 0.54338(12) 0.3071(3)
C51_10 C 0.73822(14) 0.53859(11) 0.4362(3)
C52_10 C 0.73198(11) 0.56169(11) 0.4335(2)
C53_10 C 0.71527(10) 0.57167(10) 0.4064(2)
C54_10 C 0.71636(10) 0.59345(11) 0.4204(3)
C55_10 C 0.70266(13) 0.61191(12) 0.4037(3)
C56_10 C 0.57332(13) 0.47714(13) 0.2767(3)
C57_10 C 0.58405(11) 0.49361(10) 0.3096(3)
C58_10 C 0.57627(10) 0.50349(10) 0.3523(2)
C59_10 C 0.59327(11) 0.51708(10) 0.3667(3)
C60_10 C 0.59503(13) 0.53189(12) 0.4105(3)
C61_10 C 0.57159(14) 0.04008(12) 0.7704(3)
C62_10 C 0.59039(12) 0.03447(11) 0.8022(3)
C63_10 C 0.59112(12) 0.02468(11) 0.8487(3)
C64_10 C 0.61316(12) 0.02244(12) 0.8600(3)
C65_10 C 0.62386(14) 0.01306(13) 0.9048(3)
C66_10 C 0.69961(13) 0.03669(13) 0.8914(3)
C67_10 C 0.70174(11) 0.05341(11) 0.8512(3)
C68_10 C 0.71838(10) 0.06840(10) 0.8434(2)
C69_10 C 0.71200(11) 0.07910(10) 0.8002(3)
C70_10 C 0.72341(12) 0.09709(11) 0.7730(3)
C71_10 C 0.65826(11) 0.13429(11) 0.6706(3)
C72_10 C 0.64199(11) 0.11707(11) 0.6721(3)
C73_10 C 0.61990(10) 0.11780(10) 0.6577(3)
C74_10 C 0.61202(12) 0.09744(11) 0.6667(3)
C75_10 C 0.58949(12) 0.08855(11) 0.6604(3)
C76_10 C 0.44714(13) 0.34724(12) 0.9792(3)
C77_10 C 0.43622(11) 0.33059(11) 0.9487(3)
C78_10 C 0.44196(12) 0.32217(11) 0.9024(3)
C79_10 C 0.42671(11) 0.30627(11) 0.8919(3)
C80_10 C 0.42412(13) 0.29194(13) 0.8472(3)
C81_10 C 0.35205(13) 0.26146(14) 0.8542(3)
C82_10 C 0.33997(11) 0.27150(11) 0.8973(2)
C83_10 C 0.31799(11) 0.27385(12) 0.9045(3)
C84_10 C 0.31620(11) 0.28364(12) 0.9513(3)
C85_10 C 0.29649(14) 0.28954(12) 0.9804(3)
C91_10 C 0.45161(13) 0.37039(13) 0.8590(4)
C92_10 C 0.46400(11) 0.34996(12) 0.8524(3)
C93_10 C 0.46026(11) 0.32908(12) 0.8703(3)
C94_10 C 0.47701(11) 0.31669(11) 0.8521(3)
C95_10 C 0.48149(13) 0.29287(12) 0.8586(3)
C96_10 C 0.53445(14) 0.26915(12) 0.7491(3)
C97_10 C 0.54065(11) 0.28681(11) 0.7139(3)
C98_10 C 0.55210(11) 0.28581(11) 0.6692(3)
C99_10 C 0.55222(11) 0.30688(11) 0.6513(3)
C100_10 C 0.56252(14) 0.31607(12) 0.6056(3)
C101_10 C 0.53148(12) 0.39107(12) 0.5916(3)
C102_10 C 0.51770(11) 0.39565(10) 0.6360(2)
C103_10 C 0.50434(11) 0.41335(10) 0.6462(3)
C104_10 C 0.49520(11) 0.40881(11) 0.6926(3)
C105_10 C 0.48064(12) 0.42200(11) 0.7242(3)
C106_10 C 0.54234(13) 0.14486(11) 0.4229(3)
C107_10 C 0.53802(11) 0.16815(11) 0.4345(3)
C108_10 C 0.52515(11) 0.18341(11) 0.4101(3)
C109_10 C 0.52593(11) 0.20189(11) 0.4389(3)
C110_10 C 0.51599(12) 0.22360(11) 0.4316(3)
C111_10 C 0.53479(14) 0.26851(13) 0.5638(3)
C112_10 C 0.55013(11) 0.25804(11) 0.6001(3)
C113_10 C 0.55864(11) 0.26552(11) 0.6447(3)
C114_10 C 0.57120(11) 0.24842(11) 0.6623(3)
C115_10 C 0.58480(14) 0.24673(13) 0.7077(3)
C116_10 C 0.61053(13) 0.16489(12) 0.7097(3)
C117_10 C 0.60366(11) 0.15619(11) 0.6595(3)
C118_10 C 0.60746(10) 0.13632(11) 0.6373(3)
C119_10 C 0.59537(11) 0.13679(11) 0.5940(3)
C120_10 C 0.59251(12) 0.11990(11) 0.5542(3)
C121_10 C 0.40604(14) 0.15236(14) 0.3859(4)
C122_10 C 0.40663(11) 0.14107(11) 0.3372(3)
C123_10 C 0.39311(10) 0.12449(11) 0.3187(3)
C124_10 C 0.40084(11) 0.12069(11) 0.2709(3)
C125_10 C 0.39280(13) 0.10492(12) 0.2330(3)
C126_10 C 0.44569(15) 0.09720(13) 0.1143(4)
C127_10 C 0.46653(12) 0.10697(12) 0.1312(3)
C128_10 C 0.48765(12) 0.10126(12) 0.1202(3)
C129_10 C 0.50030(12) 0.11686(11) 0.1436(3)
C130_10 C 0.52474(15) 0.11933(12) 0.1439(3)
C131_10 C 0.53882(14) 0.16970(11) 0.2955(3)
C132_10 C 0.51693(11) 0.17278(11) 0.3176(3)
C133_10 C 0.51143(11) 0.17937(11) 0.3659(3)
C134_10 C 0.48889(10) 0.18020(11) 0.3659(3)
C135_10 C 0.47371(13) 0.18625(12) 0.4064(3)
C136_10 C 0.45849(12) 0.42918(11) 0.6005(3)
C137_10 C 0.48036(10) 0.43775(10) 0.5911(3)
C138_10 C 0.50009(10) 0.43172(10) 0.6120(2)
C139_10 C 0.51562(10) 0.44545(10) 0.5906(2)
C140_10 C 0.53925(12) 0.44728(11) 0.5996(3)
C141_10 C 0.57140(12) 0.48547(11) 0.4638(3)
C142_10 C 0.55399(11) 0.49216(11) 0.4280(3)
C143_10 C 0.55590(10) 0.49972(10) 0.3793(2)
C144_10 C 0.53478(10) 0.50282(10) 0.3637(2)
C145_10 C 0.52646(13) 0.51181(12) 0.3159(3)
C146_10 C 0.44476(13) 0.50087(12) 0.3191(3)
C147_10 C 0.44034(10) 0.48879(10) 0.3662(2)
C148_10 C 0.42229(10) 0.47606(10) 0.3789(2)
C149_10 C 0.42693(11) 0.46849(10) 0.4266(2)
C150_10 C 0.41393(13) 0.45409(11) 0.4594(3)
H2_10 H 0.5034 0.1079 0.0070
H3_10 H 0.5261 0.1054 0.0353
H4_10 H 0.4774 0.0360 0.1491
H5_10 H 0.4871 0.0556 0.1810
H6_10 H 0.4641 0.0582 0.1543
H7_10 H 0.2709 0.2289 0.9054
H8_10 H 0.2874 0.2417 0.9408
H9_10 H 0.2627 0.2495 0.9362
H10_10 H 0.3040 0.3030 0.7728
H11_10 H 0.3212 0.3020 0.8173
H12_10 H 0.3222 0.2845 0.7736
H16_10 H 0.5499 0.0673 0.9171
H17_10 H 0.5721 0.0658 0.8867
H18_10 H 0.5495 0.0626 0.8587
H19_10 H 0.4046 0.4188 0.3127
H20_10 H 0.4231 0.4301 0.3453
H21_10 H 0.4012 0.4221 0.3712
H22_10 H 0.3708 0.5121 0.3408
H23_10 H 0.3954 0.5139 0.3596
H24_10 H 0.3900 0.5160 0.3017
H25_10 H 0.7226 0.0945 0.9830
H26_10 H 0.7068 0.0924 0.9362
H27_10 H 0.7114 0.0718 0.9704
H28_10 H 0.7847 0.0621 0.8204
H29_10 H 0.7639 0.0472 0.8100
H30_10 H 0.7646 0.0717 0.7900
H37_10 H 0.2833 0.1059 0.2795
H38_10 H 0.2626 0.1203 0.2927
H39_10 H 0.2603 0.1003 0.2552
H40_10 H 0.2377 0.0563 0.4482
H41_10 H 0.2393 0.0384 0.4053
H42_10 H 0.2200 0.0557 0.4048
H43_10 H 0.2262 0.0251 0.2599
H44_10 H 0.2200 0.0262 0.3176
H45_10 H 0.2433 0.0342 0.2993
H46_10 H 0.1958 0.1191 0.2946
H47_10 H 0.2177 0.1225 0.2634
H48_10 H 0.2188 0.1185 0.3221
H49_10 H 0.3911 0.0852 0.4442
H50_10 H 0.4037 0.1067 0.4282
H51_10 H 0.4052 0.0855 0.3943
H52_10 H 0.3266 0.1252 0.2963
H53_10 H 0.3451 0.1170 0.2593
H54_10 H 0.3475 0.1399 0.2866
H55_10 H 0.6524 0.5574 0.4326
H56_10 H 0.6546 0.5802 0.4050
H57_10 H 0.6714 0.5738 0.4479
H58_10 H 0.7225 0.5445 0.2712
H59_10 H 0.7303 0.5289 0.3152
H60_10 H 0.7355 0.5543 0.3175
H61_10 H 0.7540 0.5374 0.4380
H62_10 H 0.7330 0.5310 0.4064
H63_10 H 0.7317 0.5320 0.4658
H64_10 H 0.7115 0.6251 0.4021
H65_10 H 0.6908 0.6140 0.4273
H66_10 H 0.6967 0.6088 0.3708
H67_10 H 0.5841 0.4667 0.2651
H68_10 H 0.5668 0.4845 0.2481
H69_10 H 0.5621 0.4695 0.2955
H70_10 H 0.6020 0.5454 0.4004
H71_10 H 0.6037 0.5249 0.4365
H72_10 H 0.5805 0.5350 0.4234
H73_10 H 0.5743 0.0352 0.7363
H74_10 H 0.5586 0.0330 0.7833
H75_10 H 0.5695 0.0558 0.7706
H76_10 H 0.6368 0.0216 0.9130
H77_10 H 0.6137 0.0134 0.9329
H79_10 H 0.6917 0.0241 0.8786
H80_10 H 0.7141 0.0322 0.9025
H81_10 H 0.6916 0.0429 0.9195
H82_10 H 0.7127 0.1065 0.7572
H83_10 H 0.7321 0.1056 0.7966
H84_10 H 0.7329 0.0909 0.7476
H85_10 H 0.6724 0.1283 0.6797
H86_10 H 0.6590 0.1403 0.6369
H87_10 H 0.6543 0.1457 0.6941
H88_10 H 0.5879 0.0754 0.6805
H89_10 H 0.5789 0.0994 0.6712
H90_10 H 0.5870 0.0850 0.6253
H92_10 H 0.4616 0.3500 0.9658
H93_10 H 0.4386 0.3606 0.9786
H94_10 H 0.4087 0.2894 0.8410
H95_10 H 0.4307 0.2990 0.8182
H96_10 H 0.4313 0.2781 0.8533
H97_10 H 0.3661 0.2560 0.8658
H98_10 H 0.3435 0.2495 0.8405
H99_10 H 0.3544 0.2724 0.8284
H101_10 H 0.2864 0.2976 0.9591
H102_10 H 0.2894 0.2763 0.9924
H109_10 H 0.4519 0.3787 0.8280
H110_10 H 0.4582 0.3789 0.8857
H111_10 H 0.4366 0.3670 0.8675
H112_10 H 0.4970 0.2907 0.8641
H113_10 H 0.4770 0.2850 0.8287
H114_10 H 0.4734 0.2874 0.8873
H115_10 H 0.5205 0.2726 0.7646
H116_10 H 0.5456 0.2678 0.7749
H117_10 H 0.5332 0.2554 0.7309
H118_10 H 0.5687 0.3303 0.6132
H119_10 H 0.5516 0.3176 0.5795
H120_10 H 0.5740 0.3063 0.5942
H121_10 H 0.5321 0.3754 0.5860
H122_10 H 0.5461 0.3967 0.5973
H123_10 H 0.5252 0.3981 0.5623
H124_10 H 0.4846 0.4201 0.7591
H125_10 H 0.4656 0.4173 0.7192
H126_10 H 0.4820 0.4373 0.7151
H127_10 H 0.5570 0.1410 0.4338
H128_10 H 0.5411 0.1425 0.3870
H129_10 H 0.5318 0.1358 0.4403
H130_10 H 0.5268 0.2349 0.4384
H131_10 H 0.5037 0.2253 0.4544
H132_10 H 0.5109 0.2250 0.3973
H133_10 H 0.5242 0.2578 0.5523
H134_10 H 0.5430 0.2741 0.5353
H135_10 H 0.5272 0.2805 0.5801
H136_10 H 0.5983 0.2391 0.6997
H137_10 H 0.5769 0.2387 0.7333
H138_10 H 0.5882 0.2613 0.7200
H139_10 H 0.6065 0.1802 0.7122
H140_10 H 0.6263 0.1634 0.7134
H141_10 H 0.6032 0.1567 0.7360
H142_10 H 0.5944 0.1266 0.5215
H143_10 H 0.5779 0.1137 0.5566
H144_10 H 0.6033 0.1084 0.5586
H145_10 H 0.4126 0.1667 0.3826
H146_10 H 0.3910 0.1539 0.3969
H147_10 H 0.4142 0.1439 0.4105
H148_10 H 0.4050 0.0998 0.2128
H149_10 H 0.3860 0.0926 0.2497
H150_10 H 0.3822 0.1121 0.2115
H151_10 H 0.4349 0.1087 0.1097
H152_10 H 0.4480 0.0896 0.0827
H153_10 H 0.4405 0.0869 0.1393
H154_10 H 0.5293 0.1259 0.1753
H155_10 H 0.5315 0.1050 0.1403
H156_10 H 0.5292 0.1286 0.1162
H157_10 H 0.5393 0.1765 0.2625
H158_10 H 0.5497 0.1764 0.3169
H159_10 H 0.5419 0.1542 0.2923
H160_10 H 0.4604 0.1777 0.4033
H161_10 H 0.4805 0.1833 0.4386
H162_10 H 0.4702 0.2017 0.4039
H163_10 H 0.4495 0.4313 0.5709
H164_10 H 0.4594 0.4137 0.6080
H165_10 H 0.4520 0.4368 0.6287
H166_10 H 0.5437 0.4625 0.5965
H167_10 H 0.5426 0.4421 0.6331
H168_10 H 0.5471 0.4385 0.5751
H169_10 H 0.5664 0.4730 0.4833
H170_10 H 0.5845 0.4815 0.4453
H171_10 H 0.5747 0.4976 0.4861
H172_10 H 0.5128 0.5195 0.3219
H173_10 H 0.5371 0.5219 0.3020
H174_12 H 0.5240 0.5000 0.2923
H175_10 H 0.4603 0.5040 0.3166
H176_10 H 0.4402 0.4921 0.2907
H177_10 H 0.4366 0.5145 0.3192
H178_10 H 0.4189 0.4556 0.4938
H179_10 H 0.3986 0.4581 0.4572
H180_10 H 0.4157 0.4390 0.4487
Ag31_2 Ag 0.523931(9) 0.042347(11) 0.98127(2)
Ag32_7 Ag 0.236148(10) 0.252487(9) 0.82568(2)
Ag35_7 Ag 0.767810(8) 0.100100(8) 0.99982(2)
Ag37_7 Ag 0.188480(9) 0.039050(9) 0.20130(2)
Ag38_7 Ag 0.176230(9) 0.094050(9) 0.20265(2)
N62_7 N 0.24469(11) 0.29899(10) 0.6843(2)
N65_7 N 0.83577(8) 0.08976(9) 0.9176(2)
N69_7 N 0.67324(9) 0.49206(9) 0.2112(2)
N70_7 N 0.65369(9) 0.48229(9) 0.2029(2)
H1_10 H 0.5213 0.0914 0.9866
C11_10 C 0.57458(14) 0.97896(14) 0.8992(3)
H13_10 H 0.5637 0.9686 0.9112
H14_10 H 0.5778 0.9760 0.8642
H15_10 H 0.5879 0.9775 0.9189
H78_10 H 0.6281 0.9981 0.8980
Ag6_8 Ag 0.169750(8) 0.553670(9) 0.66411(2)
Ag7_11 Ag 0.153270(8) 0.059460(9) 0.11999(2)
Ag13_11 Ag 0.190880(9) 0.371740(8) 0.48307(2)
Ag14_11 Ag 0.208270(8) 0.406270(9) 0.56574(2)
Ag15_11 Ag 0.166380(8) 0.420740(8) 0.48264(2)
Ag22_11 Ag 0.083250(9) 0.315730(9) 0.28309(2)
Ag23_11 Ag 0.032600(9) 0.298910(9) 0.28496(2)
Ag24_11 Ag 0.049820(8) 0.331050(9) 0.38179(2)
Ag25_11 Ag 0.087730(9) 0.200630(9) 0.05638(2)
N6_3 N 0.22304(11) 0.29445(10) 0.6812(2)
N9_8 N 0.16946(9) 0.50690(9) 0.6922(2)
N10_11 N 0.17533(9) 0.52069(9) 0.6547(2)
N13_11 N 0.16172(9) 0.02721(9) 0.1139(2)
N14_11 N 0.17589(9) 0.01865(9) 0.1483(2)
N17_11 N 0.15504(9) 0.10655(10) 0.1506(2)
N18_11 N 0.14688(9) 0.09220(9) 0.1165(2)
N25_11 N 0.21180(9) 0.36065(9) 0.5368(2)
N26_11 N 0.21919(9) 0.37479(9) 0.5722(2)
N27_11 N 0.19471(9) 0.43673(9) 0.5654(2)
N28_11 N 0.17857(8) 0.44326(9) 0.5339(2)
N29_11 N 0.15292(8) 0.39592(8) 0.4391(2)
N30_11 N 0.16525(9) 0.37775(9) 0.4355(2)
N43_11 N 0.07286(9) 0.29596(9) 0.2256(2)
N44_11 N 0.05197(9) 0.28835(9) 0.2285(2)
N45_11 N 0.01222(9) 0.30693(10) 0.3418(2)
N46_11 N 0.01814(9) 0.32016(9) 0.3805(2)
N47_11 N 0.08206(9) 0.34055(9) 0.3809(2)
N48_11 N 0.09422(9) 0.33549(9) 0.3397(2)
N49_11 N 0.10362(9) 0.17111(10) 0.0519(2)
N50_11 N 0.11601(9) 0.16747(10) 0.0108(2)
N53_11 N 0.08043(9) 0.24885(9) 0.0409(2)
N54_11 N 0.07592(9) 0.23155(9) 0.0712(2)
C6_11 C 0.00681(14) 0.02499(12) 0.6682(3)
C11_11 C 0.27104(14) 0.32458(14) 0.6492(3)
C12_11 C 0.24846(13) 0.31599(12) 0.6543(3)
C13_11 C 0.22947(12) 0.32255(12) 0.6321(3)
C14_11 C 0.21365(13) 0.30838(12) 0.6497(3)
C15_11 C 0.19000(13) 0.30740(14) 0.6397(4)
C21_11 C 0.16503(12) 0.46772(13) 0.7062(3)
C22_11 C 0.17080(11) 0.48639(11) 0.6744(3)
C23_11 C 0.17784(11) 0.48734(11) 0.6253(3)
C24_11 C 0.18041(10) 0.50895(10) 0.6144(3)
C25_11 C 0.18800(12) 0.51889(13) 0.5672(3)
C31_11 C 0.14441(14) 0.01764(16) 0.0351(3)
C32_11 C 0.15914(11) 0.01263(12) 0.0780(3)
C41_11 C 0.15591(12) 0.14575(14) 0.1660(3)
C42_11 C 0.14857(11) 0.12643(11) 0.1375(3)
C43_11 C 0.13611(11) 0.12521(11) 0.0948(3)
C44_11 C 0.13570(11) 0.10344(11) 0.0821(3)
C45_11 C 0.12497(12) 0.09223(13) 0.0400(3)
C61_11 C 0.20992(12) 0.32159(14) 0.5204(3)
C62_11 C 0.21553(11) 0.34039(12) 0.5522(3)
C63_11 C 0.22532(11) 0.34112(12) 0.5987(3)
C64_11 C 0.22756(12) 0.36316(12) 0.6100(3)
C65_11 C 0.23694(13) 0.37386(14) 0.6548(3)
C66_11 C 0.21331(13) 0.44961(13) 0.6414(3)
C67_11 C 0.19659(11) 0.45174(11) 0.6012(3)
C68_11 C 0.18160(10) 0.46838(10) 0.5934(2)
C69_11 C 0.17090(10) 0.46200(11) 0.5502(3)
C70_11 C 0.15291(11) 0.47341(12) 0.5230(3)
C71_11 C 0.11571(11) 0.40826(11) 0.4206(3)
C72_11 C 0.13293(11) 0.39199(11) 0.4221(3)
C73_11 C 0.13220(10) 0.36990(10) 0.4077(3)
C74_11 C 0.15256(11) 0.36202(12) 0.4167(3)
C75_11 C 0.16145(11) 0.33949(12) 0.4104(3)
C106_11 C 0.10514(11) 0.29234(13) 0.1729(3)
C107_11 C 0.08185(11) 0.28802(11) 0.1845(3)
C108_11 C 0.06659(11) 0.27515(11) 0.1601(3)
C109_11 C 0.04811(11) 0.27593(11) 0.1889(3)
C110_11 C 0.02640(11) 0.26599(12) 0.1816(3)
C114_11 C 0.00158(11) 0.32120(11) 0.4123(3)
C115_11 C 0.00327(13) 0.33480(14) 0.4577(3)
C116_11 C 0.08511(12) 0.36053(13) 0.4597(3)
C117_11 C 0.09381(11) 0.35366(11) 0.4095(3)
C118_11 C 0.11368(11) 0.35746(10) 0.3873(3)
C119_11 C 0.11321(11) 0.34537(11) 0.3440(3)
C120_11 C 0.13010(11) 0.34251(12) 0.3042(3)
C121_11 C 0.09764(14) 0.15604(14) 0.1359(4)
C122_11 C 0.10893(11) 0.15663(11) 0.0872(3)
C123_11 C 0.12551(11) 0.14311(10) 0.0687(3)
C124_11 C 0.12931(11) 0.15084(11) 0.0209(3)
C131_11 C 0.08030(11) 0.28882(14) 0.0455(3)
C132_11 C 0.07722(11) 0.26693(11) 0.0676(3)
C133_11 C 0.07063(11) 0.26143(11) 0.1159(3)
C134_11 C 0.06980(11) 0.23889(10) 0.1159(3)
C135_11 C 0.06375(12) 0.22371(13) 0.1564(3)
H7_11 H 0.0211 0.0209 0.6554
H8_11 H 0.0083 0.0374 0.6908
H9_11 H 0.0005 0.0127 0.6862
H13_11 H 0.2814 0.3137 0.6612
H14_11 H 0.2740 0.3278 0.6142
H15_11 H 0.2725 0.3379 0.6689
H16_11 H 0.1827 0.2999 0.6671
H17_11 H 0.1842 0.3221 0.6367
H18_11 H 0.1874 0.2995 0.6087
H25_11 H 0.1555 0.4726 0.7330
H26_11 H 0.1576 0.4568 0.6862
H27_11 H 0.1782 0.4614 0.7204
H28_11 H 0.1879 0.5347 0.5704
H29_11 H 0.2028 0.5139 0.5600
H30_11 H 0.1783 0.5146 0.5400
H37_11 H 0.1441 0.0333 0.0295
H38_11 H 0.1297 0.0126 0.0427
H39_11 H 0.1497 0.0103 0.0052
H49_11 H 0.1648 0.1411 0.1942
H50_11 H 0.1433 0.1537 0.1782
H51_11 H 0.1645 0.1552 0.1443
H52_11 H 0.1248 0.0766 0.0463
H53_11 H 0.1330 0.0951 0.0093
H54_11 H 0.1101 0.0975 0.0366
H73_11 H 0.2148 0.3243 0.4863
H74_11 H 0.2170 0.3086 0.5333
H75_11 H 0.1942 0.3195 0.5206
H76_11 H 0.2284 0.3868 0.6630
H77_11 H 0.2366 0.3637 0.6829
H78_11 H 0.2519 0.3781 0.6480
H79_11 H 0.2259 0.4417 0.6286
H80_11 H 0.2178 0.4641 0.6525
H81_11 H 0.2071 0.4416 0.6695
H82_11 H 0.1435 0.4627 0.5072
H83_11 H 0.1444 0.4821 0.5466
H84_11 H 0.1591 0.4829 0.4976
H85_11 H 0.1217 0.4224 0.4297
H86_11 H 0.1097 0.4090 0.3869
H87_11 H 0.1043 0.4043 0.4441
H88_11 H 0.1746 0.3379 0.4305
H89_11 H 0.1506 0.3289 0.4212
H90_11 H 0.1650 0.3370 0.3753
H98_11 H 0.0005 0.0935 0.5905
H127_11 H 0.1090 0.3070 0.1838
H128_11 H 0.1075 0.2911 0.1370
H129_11 H 0.1142 0.2818 0.1903
H130_11 H 0.0151 0.2768 0.1884
H131_11 H 0.0247 0.2537 0.2044
H132_11 H 0.0250 0.2609 0.1473
H136_11 H 0.0109 0.3483 0.4497
H137_11 H 0.0113 0.3269 0.4833
H139_11 H 0.0698 0.3565 0.4622
H140_11 H 0.0866 0.3763 0.4634
H141_11 H 0.0933 0.3532 0.4860
H142_11 H 0.1234 0.3444 0.2715
H143_11 H 0.1363 0.3279 0.3066
H144_11 H 0.1416 0.3533 0.3086
H145_11 H 0.0833 0.1626 0.1326
H146_11 H 0.0961 0.1410 0.1469
H147_11 H 0.1061 0.1642 0.1605
H157_11 H 0.0735 0.2893 0.0125
H158_11 H 0.0736 0.2997 0.0669
H159_11 H 0.0958 0.2919 0.0423
H160_11 H 0.0723 0.2104 0.1533
H161_11 H 0.0667 0.2305 0.1886
H162_11 H 0.0483 0.2202 0.1539
Ag31_3 Ag 0.207653(11) 0.273931(9) 0.73127(2)
Ag35_8 Ag 0.149900(8) 0.517810(8) 0.74982(2)
N65_8 N 0.16024(9) 0.58577(8) 0.6676(2)
Ag26_11 Ag 0.117070(9) 0.191550(10) 0.95778(2)
Ag27_11 Ag 0.097650(9) 0.243410(9) 0.97596(2)
N1_11 N 0.19084(10) 0.25704(10) 0.7858(2)
N2_11 N 0.20326(10) 0.24748(10) 0.8215(2)
N51_11 N 0.12521(9) 0.21647(10) 0.9093(2)
N52_11 N 0.11908(9) 0.23784(10) 0.9181(2)
C1_11 C 0.15225(14) 0.26489(14) 0.7665(3)
C2_11 C 0.16998(12) 0.25539(12) 0.7983(3)
C3_11 C 0.16822(12) 0.24417(12) 0.8431(3)
C4_11 C 0.18959(13) 0.23957(12) 0.8564(3)
C5_11 C 0.19819(13) 0.22863(14) 0.9016(3)
C125_11 C 0.14508(12) 0.14280(13) 0.9830(3)
C126_11 C 0.15280(13) 0.19569(15) 0.8643(4)
C127_11 C 0.14303(12) 0.21653(12) 0.8812(3)
C128_11 C 0.14874(12) 0.23765(12) 0.8702(3)
C129_11 C 0.13314(11) 0.25030(12) 0.8936(3)
C130_11 C 0.13067(12) 0.27474(15) 0.8939(3)
H1_11 H 0.1586 0.2713 0.7366
H2_11 H 0.1421 0.2534 0.7570
H3_11 H 0.1446 0.2761 0.7853
H4_11 H 0.2140 0.2274 0.8991
H5_11 H 0.1944 0.2371 0.9310
H6_11 H 0.1918 0.2141 0.9043
H148_11 H 0.1502 0.1550 0.9628
H149_11 H 0.1574 0.1360 0.9997
H150_11 H 0.1379 0.1322 0.9615
H151_11 H 0.1413 0.1849 0.8597
H152_11 H 0.1604 0.1980 0.8327
H153_11 H 0.1631 0.1905 0.8893
H154_11 H 0.1241 0.2793 0.9253
H155_11 H 0.1450 0.2815 0.8903
H156_11 H 0.1214 0.2792 0.8662
N15_8 N 0.19061(9) 0.95316(9) 0.0012(2)
N16_8 N 0.16858(9) 0.94898(9) 0.0012(2)
C33_11 C 0.17139(10) 0.99451(11) 0.0878(3)
C34_11 C 0.18164(11) 0.99880(11) 0.1326(3)
C35_11 C 0.19655(12) 0.98529(14) 0.1628(3)
C36_11 C 0.21662(12) 0.97793(13) 0.0407(3)
C37_11 C 0.19427(12) 0.96923(11) 0.0334(3)
C38_11 C 0.17466(12) 0.97581(11) 0.0547(3)
C39_11 C 0.15918(11) 0.96237(11) 0.0327(3)
C40_11 C 0.13518(12) 0.96106(13) 0.0415(3)
H40_11 H 0.1937 0.9877 0.1982
H41_11 H 0.2116 0.9893 0.1553
H42_11 H 0.1943 0.9700 0.1548
H43_11 H 0.2249 0.9762 0.0099
H44_11 H 0.2238 0.9700 0.0676
H45_11 H 0.2158 0.9933 0.0493
H46_11 H 0.1309 0.9458 0.0446
H47_11 H 0.1275 0.9677 0.0134
H48_11 H 0.1315 0.9688 0.0721
Ag37_8 Ag 0.210950(9) 0.938480(9) 0.95130(2)
Ag38_8 Ag 0.155950(9) 0.926230(9) 0.95265(2)
H34_11 H 0.8691 0.1230 0.0128
Ag34_3 Ag 0.820090(8) 0.114570(8) 0.006640(19)
Ag3_8 Ag 0.965140(11) 0.012000(9) 0.49177(2)
Ag10_11 Ag 0.720640(8) 0.389790(8) 0.09017(2)
Ag11_8 Ag 0.734880(8) 0.428850(8) 0.014510(19)
Ag16_11 Ag 0.924160(9) 0.147860(9) 0.77447(2)
Ag17_11 Ag 0.959610(9) 0.132630(9) 0.68771(2)
Ag18_11 Ag 0.943450(9) 0.096390(8) 0.77822(2)
Ag19_11 Ag 0.879310(8) 0.243980(8) 0.51980(2)
Ag20_11 Ag 0.930030(9) 0.264020(9) 0.52494(2)
Ag21_11 Ag 0.899050(8) 0.279890(8) 0.42970(2)
Ag28_11 Ag 0.782530(8) 0.214960(8) 0.252570(19)
Ag29_11 Ag 0.773140(8) 0.268280(8) 0.250950(19)
Ag30_11 Ag 0.754750(8) 0.237490(8) 0.154430(19)
N3_8 N 0.99019(10) 0.01840(9) 0.5863(2)
N4_11 N 0.97696(10) 0.02868(10) 0.5533(2)
N7_11 N 0.79826(9) 0.12979(8) 0.0528(2)
N8_11 N 0.77662(9) 0.12400(9) 0.0499(2)
N12_3 N 0.84218(8) 0.10327(9) 0.9552(2)
N19_11 N 0.70543(8) 0.41930(9) 0.0982(2)
N20_11 N 0.71221(9) 0.43586(9) 0.0682(2)
N23_11 N 0.74940(9) 0.35404(9) 0.0494(2)
N24_11 N 0.73480(9) 0.35971(9) 0.0848(2)
N31_11 N 0.92989(9) 0.16828(9) 0.7148(2)
N32_11 N 0.94487(9) 0.16244(9) 0.6798(2)
N33_11 N 0.97044(9) 0.10095(9) 0.6862(2)
N34_11 N 0.96312(9) 0.08592(9) 0.7201(2)
N35_11 N 0.91956(9) 0.10552(9) 0.8291(2)
N36_11 N 0.91324(9) 0.12653(9) 0.8289(2)
N37_11 N 0.90036(9) 0.23206(9) 0.5738(2)
N38_11 N 0.92106(9) 0.24003(9) 0.5737(2)
N39_11 N 0.94283(8) 0.28426(9) 0.4718(2)
N40_11 N 0.93039(9) 0.29155(9) 0.4337(2)
N41_11 N 0.86862(9) 0.26638(9) 0.4234(2)
N42_11 N 0.86054(9) 0.25266(9) 0.4585(2)
N55_11 N 0.79614(8) 0.23376(8) 0.3085(2)
N56_11 N 0.79146(8) 0.25553(8) 0.3085(2)
N57_11 N 0.75909(8) 0.28312(8) 0.1899(2)
N58_11 N 0.75252(9) 0.27092(9) 0.1506(2)
N59_11 N 0.76105(9) 0.20452(9) 0.1543(2)
N60_11 N 0.77368(8) 0.19615(9) 0.1918(2)
C7_11 C 0.99241(12) 0.03103(11) 0.6260(3)
C8_11 C 0.98017(12) 0.05026(11) 0.6194(3)
C9_11 C 0.97079(12) 0.04786(12) 0.5722(3)
C10_11 C 0.95663(14) 0.06254(14) 0.5441(3)
C16_11 C 0.82161(11) 0.15744(12) 0.0910(3)
C17_11 C 0.79979(11) 0.14730(10) 0.0815(2)
C18_11 C 0.77954(10) 0.15347(10) 0.0983(2)
C19_11 C 0.76523(11) 0.13853(10) 0.0770(2)
C20_11 C 0.74123(11) 0.13595(12) 0.0828(3)
C26_11 C 0.84926(12) 0.07552(13) 0.8385(3)
C27_11 C 0.85168(10) 0.08901(11) 0.8839(2)
C28_11 C 0.86862(10) 0.10245(11) 0.8989(3)
C29_11 C 0.86209(10) 0.11112(10) 0.9444(3)
C30_11 C 0.87348(11) 0.12611(12) 0.9785(3)
C46_11 C 0.68175(12) 0.41265(13) 0.1702(3)
C47_11 C 0.69190(11) 0.42729(10) 0.1321(2)
C48_11 C 0.68945(10) 0.44965(10) 0.1247(2)
C49_11 C 0.70283(10) 0.45409(10) 0.0836(2)
C50_11 C 0.70662(12) 0.47485(13) 0.0571(3)
C51_11 C 0.71141(11) 0.48822(14) 0.1862(3)
C52_11 C 0.68831(11) 0.48198(11) 0.1835(2)
C53_11 C 0.67833(10) 0.46527(10) 0.1564(2)
C54_11 C 0.65655(11) 0.46636(10) 0.1704(3)
C55_11 C 0.63809(12) 0.45266(13) 0.1537(3)
C56_11 C 0.77286(13) 0.32332(13) 0.0267(3)
C57_11 C 0.75639(10) 0.33405(11) 0.0596(3)
C58_11 C 0.74651(10) 0.32627(10) 0.1023(2)
C59_11 C 0.73292(10) 0.34327(11) 0.1167(3)
C60_11 C 0.71811(12) 0.34503(13) 0.1605(3)
C76_11 C 0.90276(12) 0.19714(13) 0.7292(3)
C77_11 C 0.91941(11) 0.18622(11) 0.6987(3)
C78_11 C 0.92783(11) 0.19196(12) 0.6524(3)
C79_11 C 0.94373(11) 0.17671(11) 0.6419(3)
C80_11 C 0.95806(13) 0.17412(13) 0.5972(3)
C81_11 C 0.98854(14) 0.10205(13) 0.6042(3)
C82_11 C 0.97850(11) 0.08997(11) 0.6473(2)
C83_11 C 0.97615(12) 0.06799(11) 0.6545(3)
C84_11 C 0.96636(12) 0.06620(11) 0.7013(3)
C85_11 C 0.96046(12) 0.04649(14) 0.7304(3)
C86_11 C 0.90734(12) 0.07032(12) 0.8623(3)
C87_11 C 0.90490(11) 0.09387(10) 0.8544(2)
C88_11 C 0.88866(11) 0.10776(10) 0.8710(2)
C89_11 C 0.89457(11) 0.12820(11) 0.8543(3)
C90_11 C 0.88329(12) 0.14956(13) 0.8609(3)
C91_11 C 0.87961(13) 0.20161(13) 0.6090(4)
C92_11 C 0.90004(12) 0.21400(11) 0.6024(3)
C93_11 C 0.92092(12) 0.21026(11) 0.6203(3)
C94_11 C 0.93331(11) 0.22701(11) 0.6021(3)
C95_11 C 0.95713(12) 0.23149(13) 0.6086(3)
C96_11 C 0.98085(12) 0.28445(14) 0.4991(3)
C97_11 C 0.96319(11) 0.29065(11) 0.4639(3)
C98_11 C 0.96419(11) 0.30210(11) 0.4192(3)
C99_11 C 0.94312(11) 0.30222(11) 0.4013(3)
C100_11 C 0.93393(12) 0.31252(14) 0.3556(3)
C101_11 C 0.85893(12) 0.28148(12) 0.3416(3)
C102_11 C 0.85435(10) 0.26770(11) 0.3860(2)
C103_11 C 0.83665(10) 0.25434(11) 0.3962(3)
C104_11 C 0.84119(11) 0.24520(11) 0.4426(3)
C105_11 C 0.82800(11) 0.23064(12) 0.4742(3)
C111_11 C 0.98149(13) 0.28479(14) 0.3138(3)
C112_11 C 0.99196(11) 0.30013(11) 0.3501(3)
C113_11 C 0.98448(11) 0.30864(11) 0.3947(3)
C136_11 C 0.82082(11) 0.20849(12) 0.3505(3)
C137_11 C 0.81225(10) 0.23036(10) 0.3411(3)
C138_11 C 0.81828(10) 0.25009(10) 0.3620(2)
C139_11 C 0.80455(10) 0.26562(10) 0.3406(2)
C140_11 C 0.80272(11) 0.28925(12) 0.3496(3)
C141_11 C 0.76453(11) 0.32140(12) 0.2138(3)
C142_11 C 0.75784(11) 0.30399(11) 0.1780(3)
C143_11 C 0.75028(10) 0.30590(10) 0.1293(2)
C144_11 C 0.74718(10) 0.28478(10) 0.1137(2)
C145_11 C 0.73819(12) 0.27646(13) 0.0659(3)
C146_11 C 0.74913(12) 0.19476(13) 0.0691(3)
C147_11 C 0.76121(10) 0.19034(10) 0.1162(2)
C148_11 C 0.77394(10) 0.17229(10) 0.1289(2)
C149_11 C 0.78151(10) 0.17693(11) 0.1766(2)
C150_11 C 0.79591(11) 0.16393(13) 0.2094(3)
H10_11 H 0.9470 0.0540 0.5228
H11_11 H 0.9480 0.0712 0.5673
H12_11 H 0.9655 0.0722 0.5236
H19_11 H 0.8312 0.1546 0.0627
H20_11 H 0.8199 0.1731 0.0953
H21_11 H 0.8279 0.1512 0.1212
H22_11 H 0.7379 0.1208 0.0908
H23_11 H 0.7361 0.1454 0.1096
H24_11 H 0.7340 0.1400 0.0517
H31_11 H 0.8341 0.0756 0.8280
H32_11 H 0.8583 0.0815 0.8119
H33_11 H 0.8538 0.0606 0.8458
H35_11 H 0.8892 0.1241 0.9752
H36_11 H 0.8697 0.1411 0.9702
H55_11 H 0.6926 0.4024 0.1826
H56_11 H 0.6698 0.4046 0.1550
H57_11 H 0.6762 0.4214 0.1979
H58_11 H 0.7055 0.4725 0.0212
H59_11 H 0.7211 0.4803 0.0652
H60_11 H 0.6957 0.4855 0.0675
H61_11 H 0.7126 0.5040 0.1880
H62_11 H 0.7190 0.4830 0.1564
H63_11 H 0.7180 0.4817 0.2158
H64_11 H 0.6249 0.4615 0.1521
H65_11 H 0.6360 0.4408 0.1773
H66_11 H 0.6412 0.4467 0.1208
H67_11 H 0.7833 0.3341 0.0151
H69_11 H 0.7805 0.3121 0.0455
H70_11 H 0.7046 0.3520 0.1504
H71_11 H 0.7251 0.3537 0.1865
H72_11 H 0.7150 0.3305 0.1734
H91_11 H 0.9079 0.1984 0.7635
H92_11 H 0.9000 0.2116 0.7158
H93_11 H 0.8894 0.1886 0.7286
H94_11 H 0.9606 0.1587 0.5910
H95_11 H 0.9510 0.1807 0.5682
H96_11 H 0.9719 0.1813 0.6033
H97_11 H 0.9940 0.1161 0.6158
H99_11 H 0.9776 0.1044 0.5784
H100_11 H 0.9514 0.0507 0.7588
H101_11 H 0.9524 0.0364 0.7091
H102_11 H 0.9737 0.0394 0.7424
H103_11 H 0.9200 0.0651 0.8439
H104_11 H 0.9093 0.0674 0.8978
H105_11 H 0.8943 0.0628 0.8505
H106_11 H 0.8869 0.1592 0.8332
H107_11 H 0.8676 0.1472 0.8618
H108_11 H 0.8880 0.1562 0.8922
H109_11 H 0.8713 0.2019 0.5780
H110_11 H 0.8711 0.2082 0.6357
H111_11 H 0.8830 0.1866 0.6175
H112_11 H 0.9593 0.2470 0.6141
H113_11 H 0.9650 0.2270 0.5787
H114_11 H 0.9626 0.2234 0.6373
H115_11 H 0.9774 0.2705 0.5146
H116_11 H 0.9822 0.2956 0.5249
H117_11 H 0.9946 0.2832 0.4809
H118_11 H 0.9197 0.3187 0.3632
H119_11 H 0.9324 0.3016 0.3295
H120_11 H 0.9437 0.3240 0.3442
H121_11 H 0.8746 0.2821 0.3360
H122_11 H 0.8533 0.2961 0.3473
H123_11 H 0.8519 0.2752 0.3123
H124_11 H 0.8299 0.2346 0.5091
H125_11 H 0.8327 0.2156 0.4692
H126_11 H 0.8127 0.2320 0.4651
H133_11 H 0.9922 0.2742 0.3023
H134_11 H 0.9759 0.2930 0.2853
H135_11 H 0.9695 0.2772 0.3301
H138_11 H 0.9887 0.3382 0.4700
H163_11 H 0.8187 0.1995 0.3209
H164_11 H 0.8363 0.2094 0.3580
H165_11 H 0.8132 0.2020 0.3787
H166_11 H 0.7875 0.2937 0.3465
H167_11 H 0.8079 0.2926 0.3831
H168_11 H 0.8115 0.2971 0.3251
H169_11 H 0.7770 0.3164 0.2333
H170_11 H 0.7685 0.3345 0.1953
H171_11 H 0.7524 0.3247 0.2361
H172_11 H 0.7305 0.2628 0.0719
H173_11 H 0.7281 0.2871 0.0520
H174_13 H 0.7500 0.2740 0.0423
H175_11 H 0.7460 0.2103 0.0666
H176_11 H 0.7579 0.1902 0.0407
H177_11 H 0.7355 0.1866 0.0692
H178_11 H 0.7944 0.1689 0.2438
H179_11 H 0.7919 0.1486 0.2072
H180_11 H 0.8110 0.1657 0.1987
Ag12_8 Ag 0.758170(8) 0.377880(9) 0.99793(2)
H68_11 H 0.7655 0.3168 0.9981
N69_8 N 0.75794(9) 0.42324(9) 0.9612(2)
N70_8 N 0.76771(9) 0.40369(9) 0.9529(2)
Ag32_8 Ag 0.997513(9) 0.986148(10) 0.57568(2)
N62_8 N 0.95101(10) 0.99469(11) 0.4343(2)
Ag16_12 Ag 0.102140(9) 0.674160(9) 0.52447(2)
Ag17_12 Ag 0.117370(9) 0.709610(9) 0.43771(2)
Ag18_12 Ag 0.153610(8) 0.693450(9) 0.52822(2)
Ag19_12 Ag 0.006020(8) 0.629310(8) 0.26980(2)
Ag28_12 Ag 0.035040(8) 0.532530(8) 0.002570(19)
N4_12 N 0.22132(10) 0.72696(10) 0.3033(2)
N12_4 N 0.14673(9) 0.59218(8) 0.7052(2)
N31_12 N 0.08172(9) 0.67989(9) 0.4648(2)
N32_12 N 0.08756(9) 0.69487(9) 0.4298(2)
N33_12 N 0.14905(9) 0.72044(9) 0.4362(2)
N34_12 N 0.16408(9) 0.71312(9) 0.4701(2)
N35_12 N 0.14448(9) 0.66956(9) 0.5791(2)
N36_12 N 0.12347(9) 0.66324(9) 0.5789(2)
N37_12 N 0.01794(9) 0.65036(9) 0.3238(2)
N38_12 N 0.00997(9) 0.67106(9) 0.3237(2)
N55_12 N 0.01624(8) 0.54614(8) 0.0585(2)
C6_12 C 0.22501(12) 0.75681(14) 0.4182(3)
C7_12 C 0.21897(11) 0.74241(12) 0.3760(3)
C8_12 C 0.19974(11) 0.73017(12) 0.3694(3)
C9_12 C 0.20214(12) 0.72079(12) 0.3222(3)
C10_12 C 0.18746(14) 0.70663(14) 0.2941(3)
C26_12 C 0.17448(13) 0.59926(12) 0.5885(3)
C27_12 C 0.16099(11) 0.60168(10) 0.6339(2)
C28_12 C 0.14755(11) 0.61862(10) 0.6489(3)
C29_12 C 0.13888(10) 0.61209(10) 0.6944(3)
C30_12 C 0.12389(12) 0.62348(11) 0.7285(3)
C76_12 C 0.05286(13) 0.65276(12) 0.4792(3)
C77_12 C 0.06378(11) 0.66941(11) 0.4487(3)
C78_12 C 0.05804(12) 0.67783(11) 0.4024(3)
C79_12 C 0.07329(11) 0.69373(11) 0.3919(3)
C80_12 C 0.07588(13) 0.70806(13) 0.3472(3)
C81_12 C 0.14795(13) 0.73854(14) 0.3542(3)
C82_12 C 0.16003(11) 0.72850(11) 0.3973(2)
C83_12 C 0.18201(11) 0.72615(12) 0.4045(3)
C84_12 C 0.18380(11) 0.71636(12) 0.4513(3)
C85_12 C 0.20351(14) 0.71046(12) 0.4804(3)
C86_12 C 0.17968(12) 0.65734(12) 0.6123(3)
C87_12 C 0.15613(10) 0.65490(11) 0.6044(2)
C88_12 C 0.14224(10) 0.63866(11) 0.6210(2)
C89_12 C 0.12180(11) 0.64457(11) 0.6043(3)
C90_12 C 0.10044(13) 0.63329(12) 0.6109(3)
C91_12 C 0.04839(13) 0.62961(13) 0.3590(4)
C92_12 C 0.03600(11) 0.65004(12) 0.3524(3)
C93_12 C 0.03974(11) 0.67092(12) 0.3703(3)
C94_12 C 0.02299(11) 0.68331(11) 0.3521(3)
C95_12 C 0.01851(13) 0.70713(12) 0.3586(3)
C104_12 C 0.00480(11) 0.59119(11) 0.1926(3)
C105_12 C 0.01936(12) 0.57800(11) 0.2242(3)
C136_12 C 0.04151(12) 0.57082(11) 0.1005(3)
C137_12 C 0.01964(10) 0.56225(10) 0.0911(3)
H7_12 H 0.2291 0.7711 0.4054
H8_12 H 0.2126 0.7583 0.4408
H9_12 H 0.2373 0.7505 0.4362
H10_12 H 0.1960 0.6970 0.2728
H11_12 H 0.1788 0.6980 0.3173
H12_12 H 0.1778 0.7155 0.2736
H31_12 H 0.1744 0.5841 0.5780
H32_12 H 0.1685 0.6083 0.5619
H33_12 H 0.1894 0.6038 0.5958
H34_12 H 0.1270 0.6191 0.7628
H35_12 H 0.1259 0.6392 0.7252
H36_12 H 0.1089 0.6197 0.7202
H91_12 H 0.0516 0.6579 0.5135
H92_12 H 0.0384 0.6500 0.4658
H93_12 H 0.0614 0.6394 0.4786
H94_12 H 0.0913 0.7106 0.3410
H95_12 H 0.0693 0.7010 0.3182
H96_12 H 0.0687 0.7219 0.3533
H97_12 H 0.1339 0.7440 0.3658
H98_12 H 0.1565 0.7505 0.3405
H99_12 H 0.1456 0.7276 0.3284
H100_12 H 0.1993 0.7014 0.5088
H101_12 H 0.2136 0.7024 0.4591
H102_12 H 0.2106 0.7237 0.4924
H103_12 H 0.1849 0.6700 0.5939
H104_12 H 0.1826 0.6593 0.6478
H105_12 H 0.1872 0.6443 0.6005
H106_12 H 0.0908 0.6369 0.5832
H107_12 H 0.1028 0.6176 0.6118
H108_12 H 0.0938 0.6380 0.6422
H109_12 H 0.0481 0.6213 0.3280
H110_12 H 0.0418 0.6211 0.3857
H111_12 H 0.0634 0.6330 0.3675
H112_12 H 0.0030 0.7093 0.3641
H113_12 H 0.0230 0.7150 0.3287
H114_12 H 0.0266 0.7126 0.3873
H124_12 H 0.0154 0.5799 0.2591
H125_12 H 0.0344 0.5827 0.2192
H126_12 H 0.0180 0.5627 0.2151
H163_12 H 0.0505 0.5687 0.0709
H164_12 H 0.0406 0.5863 0.1080
H165_12 H 0.0480 0.5632 0.1287
Ag34_4 Ag 0.135430(8) 0.570090(8) 0.756640(19)
Ag7_12 Ag 0.190540(9) 0.903270(8) 0.86999(2)
Ag25_12 Ag 0.049370(9) 0.837730(9) 0.80638(2)
Ag26_12 Ag 0.058450(10) 0.867070(9) 0.70778(2)
Ag27_12 Ag 0.006590(9) 0.847650(9) 0.72596(2)
Ag30_12 Ag 0.012510(8) 0.504750(8) 0.904430(19)
N2_12 N 0.00252(10) 0.95326(10) 0.5715(2)
N7_12 N 0.12021(8) 0.54826(9) 0.8028(2)
N8_12 N 0.12600(9) 0.52662(9) 0.7999(2)
N13_12 N 0.22279(9) 0.91172(9) 0.8639(2)
N14_12 N 0.23135(9) 0.92589(9) 0.8983(2)
N17_12 N 0.14345(10) 0.90504(9) 0.9006(2)
N18_12 N 0.15780(9) 0.89688(9) 0.8665(2)
N49_12 N 0.07889(10) 0.85362(9) 0.8019(2)
N50_12 N 0.08253(10) 0.86601(9) 0.7608(2)
N51_12 N 0.03353(10) 0.87521(9) 0.6593(2)
N52_12 N 0.01216(10) 0.86908(9) 0.6681(2)
N53_12 N 0.00115(9) 0.83043(9) 0.7909(2)
N54_12 N 0.01845(9) 0.82592(9) 0.8212(2)
N59_12 N 0.04548(9) 0.51105(9) 0.9043(2)
N60_12 N 0.05385(9) 0.52368(8) 0.9418(2)
C3_12 C 0.00583(12) 0.91822(12) 0.5931(3)
C4_12 C 0.01043(12) 0.93959(13) 0.6064(3)
C5_12 C 0.02137(14) 0.94819(13) 0.6516(3)
C16_12 C 0.09256(12) 0.57161(11) 0.8410(3)
C17_12 C 0.10270(10) 0.54979(11) 0.8315(2)
C18_12 C 0.09653(10) 0.52954(10) 0.8483(2)
C19_12 C 0.11147(10) 0.51523(11) 0.8270(2)
C20_12 C 0.11405(12) 0.49123(11) 0.8328(3)
C31_12 C 0.23236(16) 0.89441(14) 0.7851(3)
C32_12 C 0.23737(12) 0.90914(11) 0.8280(3)
C33_12 C 0.25549(11) 0.92139(10) 0.8378(3)
C34_12 C 0.25120(11) 0.93164(11) 0.8826(3)
C35_12 C 0.26471(14) 0.94655(12) 0.9128(3)
C36_12 C 0.27207(13) 0.96662(12) 0.7907(3)
C37_12 C 0.28077(11) 0.94427(12) 0.7834(3)
C38_12 C 0.27419(11) 0.92466(12) 0.8047(3)
C39_12 C 0.28763(11) 0.90918(11) 0.7827(3)
C40_12 C 0.28894(13) 0.88518(12) 0.7915(3)
C41_12 C 0.10425(14) 0.90591(12) 0.9160(3)
C42_12 C 0.12357(11) 0.89857(11) 0.8875(3)
C43_12 C 0.12479(11) 0.88611(11) 0.8448(3)
C44_12 C 0.14656(11) 0.88570(11) 0.8321(3)
C45_12 C 0.15777(13) 0.87497(12) 0.7900(3)
C121_12 C 0.09396(14) 0.84764(14) 0.8859(4)
C122_12 C 0.09337(11) 0.85893(11) 0.8372(3)
C123_12 C 0.10689(10) 0.87551(11) 0.8187(3)
C124_12 C 0.09916(11) 0.87931(11) 0.7709(3)
C125_12 C 0.10720(13) 0.89508(12) 0.7330(3)
C126_12 C 0.05431(15) 0.90280(13) 0.6143(4)
C127_12 C 0.03347(12) 0.89303(12) 0.6312(3)
C128_12 C 0.01235(12) 0.89874(12) 0.6202(3)
C134_12 C 0.01111(10) 0.81980(11) 0.8659(3)
C135_12 C 0.02629(13) 0.81375(12) 0.9064(3)
C146_12 C 0.05524(13) 0.49913(12) 0.8191(3)
C147_12 C 0.05966(10) 0.51121(10) 0.8662(2)
C148_12 C 0.07771(10) 0.52394(10) 0.8789(2)
C149_12 C 0.07307(11) 0.53151(10) 0.9266(2)
C150_12 C 0.08607(13) 0.54591(11) 0.9594(3)
H4_12 H 0.0226 0.9640 0.6491
H5_12 H 0.0129 0.9444 0.6810
H6_12 H 0.0359 0.9418 0.6543
H19_12 H 0.0954 0.5812 0.8127
H20_12 H 0.0769 0.5699 0.8453
H21_12 H 0.0988 0.5779 0.8712
H22_12 H 0.1292 0.4879 0.8408
H23_12 H 0.1046 0.4861 0.8596
H24_12 H 0.1100 0.4840 0.8017
H37_12 H 0.2167 0.8941 0.7795
H38_12 H 0.2374 0.8797 0.7927
H39_12 H 0.2397 0.8997 0.7552
H40_12 H 0.2623 0.9437 0.9482
H41_12 H 0.2607 0.9616 0.9053
H42_12 H 0.2800 0.9443 0.9048
H43_12 H 0.2738 0.9749 0.7599
H44_12 H 0.2800 0.9738 0.8176
H45_12 H 0.2567 0.9658 0.7993
H46_12 H 0.3042 0.8809 0.7946
H47_12 H 0.2823 0.8775 0.7634
H48_12 H 0.2812 0.8815 0.8221
H49_12 H 0.1089 0.9148 0.9442
H50_12 H 0.0963 0.8933 0.9282
H51_12 H 0.0948 0.9145 0.8943
H52_12 H 0.1734 0.8748 0.7963
H53_12 H 0.1549 0.8830 0.7593
H54_12 H 0.1525 0.8601 0.7866
H145_12 H 0.0874 0.8333 0.8826
H146_12 H 0.1090 0.8461 0.8969
H147_12 H 0.0858 0.8561 0.9105
H148_12 H 0.0950 0.9002 0.7128
H149_12 H 0.1140 0.9074 0.7497
H150_12 H 0.1178 0.8879 0.7115
H151_12 H 0.0651 0.8913 0.6097
H152_12 H 0.0520 0.9104 0.5827
H153_12 H 0.0595 0.9131 0.6393
H160_12 H 0.0396 0.8223 0.9033
H161_12 H 0.0195 0.8167 0.9386
H162_12 H 0.0298 0.7983 0.9039
H175_12 H 0.0397 0.4960 0.8166
H176_12 H 0.0598 0.5079 0.7907
H177_12 H 0.0634 0.4855 0.8192
H178_12 H 0.0811 0.5444 0.9938
H179_12 H 0.1014 0.5419 0.9572
H180_12 H 0.0843 0.5610 0.9487
C11_12 C 0.92542(14) 0.02104(14) 0.3992(3)
H13_12 H 0.9363 0.0314 0.4112
H14_12 H 0.9222 0.0240 0.3642
H15_12 H 0.9121 0.0225 0.4189
H78_12 H 0.8719 0.0019 0.3980
Ag13_12 Ag 0.878260(8) 0.940880(9) 0.23307(2)
Ag14_12 Ag 0.843730(9) 0.958270(8) 0.31574(2)
Ag15_12 Ag 0.829260(8) 0.916380(8) 0.23264(2)
Ag20_12 Ag 0.985980(9) 0.680030(9) 0.27494(2)
Ag21_12 Ag 0.970110(8) 0.649050(8) 0.17970(2)
Ag22_12 Ag 0.934270(9) 0.833250(9) 0.03309(2)
Ag23_12 Ag 0.951090(9) 0.782600(9) 0.03496(2)
Ag24_12 Ag 0.918950(9) 0.799820(8) 0.13179(2)
Ag29_12 Ag 0.981720(8) 0.523140(8) 0.000950(19)
N6_4 N 0.95555(10) 0.97304(11) 0.4312(2)
N10_12 N 0.72931(9) 0.92533(9) 0.4047(2)
N25_12 N 0.88935(9) 0.96180(9) 0.2868(2)
N26_12 N 0.87521(9) 0.96919(9) 0.3222(2)
N27_12 N 0.81327(9) 0.94471(9) 0.3154(2)
N28_12 N 0.80674(9) 0.92857(8) 0.2839(2)
N29_12 N 0.85408(8) 0.90292(8) 0.1891(2)
N30_12 N 0.87225(9) 0.91525(9) 0.1855(2)
N39_12 N 0.96574(9) 0.69283(8) 0.2218(2)
N40_12 N 0.95845(9) 0.68039(9) 0.1837(2)
N41_12 N 0.98362(9) 0.61862(9) 0.1734(2)
N42_12 N 0.99734(9) 0.61054(9) 0.2085(2)
N45_12 N 0.94307(10) 0.76222(9) 0.0918(2)
N46_12 N 0.92984(9) 0.76814(9) 0.1305(2)
N47_12 N 0.90945(9) 0.83206(9) 0.1309(2)
N48_12 N 0.91451(9) 0.84422(9) 0.0897(2)
N56_12 N 0.99447(8) 0.54146(8) 0.0585(2)
C12_12 C 0.93401(12) 0.99846(13) 0.4043(3)
C13_12 C 0.92745(12) 0.97947(12) 0.3821(3)
C14_12 C 0.94162(12) 0.96365(13) 0.3997(3)
C15_12 C 0.94260(14) 0.94000(13) 0.3897(4)
C21_12 C 0.78228(13) 0.91503(12) 0.4562(3)
C22_12 C 0.76361(11) 0.92080(11) 0.4244(3)
C23_12 C 0.76266(11) 0.92784(11) 0.3753(3)
C24_12 C 0.74105(10) 0.93041(10) 0.3644(3)
C25_12 C 0.73111(13) 0.93800(12) 0.3172(3)
C61_12 C 0.92841(14) 0.95992(12) 0.2704(3)
C62_12 C 0.90961(12) 0.96553(11) 0.3022(3)
C63_12 C 0.90888(12) 0.97532(11) 0.3487(3)
C64_12 C 0.88684(12) 0.97756(12) 0.3600(3)
C65_12 C 0.87614(14) 0.98694(13) 0.4048(3)
C66_12 C 0.80039(13) 0.96331(13) 0.3914(3)
C67_12 C 0.79826(11) 0.94659(11) 0.3512(3)
C68_12 C 0.78162(10) 0.93160(10) 0.3434(2)
C69_12 C 0.78800(11) 0.92090(10) 0.3002(3)
C70_12 C 0.77659(12) 0.90291(11) 0.2730(3)
C71_12 C 0.84174(11) 0.86571(11) 0.1706(3)
C72_12 C 0.85801(11) 0.88293(11) 0.1721(3)
C73_12 C 0.88010(10) 0.88220(10) 0.1577(3)
C74_12 C 0.88798(12) 0.90256(11) 0.1667(3)
C75_12 C 0.91051(12) 0.91145(11) 0.1604(3)
C96_12 C 0.96555(14) 0.73085(12) 0.2491(3)
C97_12 C 0.95935(11) 0.71319(11) 0.2139(3)
C98_12 C 0.94790(11) 0.71419(11) 0.1692(3)
C99_12 C 0.94778(11) 0.69312(11) 0.1513(3)
C100_12 C 0.93748(14) 0.68393(12) 0.1056(3)
C101_12 C 0.96852(12) 0.60893(12) 0.0916(3)
C102_12 C 0.98230(11) 0.60435(10) 0.1360(2)
C103_12 C 0.99566(11) 0.58665(10) 0.1462(3)
C111_12 C 0.96521(14) 0.73149(13) 0.0638(3)
C112_12 C 0.94987(11) 0.74196(11) 0.1001(3)
C113_12 C 0.94136(11) 0.73448(11) 0.1447(3)
C114_12 C 0.92880(11) 0.75158(11) 0.1623(3)
C115_12 C 0.91520(14) 0.75327(13) 0.2077(3)
C116_12 C 0.88947(13) 0.83511(12) 0.2097(3)
C117_12 C 0.89634(11) 0.84381(11) 0.1595(3)
C118_12 C 0.89254(10) 0.86368(11) 0.1373(3)
C119_12 C 0.90463(11) 0.86321(11) 0.0940(3)
C120_12 C 0.90749(12) 0.88010(11) 0.0542(3)
C138_12 C 0.99991(10) 0.56828(10) 0.1120(2)
C139_12 C 0.98438(10) 0.55455(10) 0.0906(2)
C140_12 C 0.96075(12) 0.55272(11) 0.0996(3)
H16_12 H 0.9501 0.9327 0.4171
H17_12 H 0.9279 0.9342 0.3867
H18_12 H 0.9505 0.9374 0.3587
H25_12 H 0.7774 0.9055 0.4830
H26_12 H 0.7932 0.9076 0.4362
H27_12 H 0.7886 0.9282 0.4704
H28_12 H 0.7153 0.9379 0.3204
H29_12 H 0.7361 0.9528 0.3100
H30_12 H 0.7354 0.9283 0.2900
H73_12 H 0.9257 0.9648 0.2363
H74_12 H 0.9414 0.9670 0.2833
H75_12 H 0.9305 0.9442 0.2706
H76_12 H 0.8632 0.9784 0.4130
H77_12 H 0.8863 0.9866 0.4329
H79_12 H 0.8083 0.9759 0.3786
H80_12 H 0.7859 0.9678 0.4025
H81_12 H 0.8084 0.9571 0.4195
H82_12 H 0.7873 0.8935 0.2572
H83_12 H 0.7679 0.8944 0.2966
H84_12 H 0.7671 0.9091 0.2476
H85_12 H 0.8276 0.8717 0.1797
H86_12 H 0.8410 0.8597 0.1369
H87_12 H 0.8457 0.8543 0.1941
H88_12 H 0.9121 0.9246 0.1805
H89_12 H 0.9211 0.9006 0.1712
H90_12 H 0.9130 0.9150 0.1253
H115_12 H 0.9795 0.7274 0.2646
H116_12 H 0.9544 0.7322 0.2749
H117_12 H 0.9668 0.7446 0.2309
H118_12 H 0.9313 0.6697 0.1132
H119_12 H 0.9484 0.6824 0.0795
H120_12 H 0.9260 0.6937 0.0942
H121_12 H 0.9679 0.6246 0.0860
H122_12 H 0.9539 0.6033 0.0973
H123_12 H 0.9748 0.6019 0.0623
H133_12 H 0.9758 0.7422 0.0523
H134_12 H 0.9570 0.7259 0.0353
H135_12 H 0.9728 0.7195 0.0801
H136_12 H 0.9017 0.7609 0.1997
H137_12 H 0.9231 0.7613 0.2333
H138_12 H 0.9118 0.7387 0.2200
H139_12 H 0.8935 0.8198 0.2122
H140_12 H 0.8737 0.8366 0.2134
H141_12 H 0.8968 0.8433 0.2360
H142_12 H 0.9056 0.8734 0.0215
H143_12 H 0.9221 0.8863 0.0566
H144_12 H 0.8967 0.8916 0.0586
H166_12 H 0.9563 0.5375 0.0965
H167_12 H 0.9574 0.5579 0.1331
H168_12 H 0.9529 0.5615 0.0751
Ag31_4 Ag 0.976069(9) 0.957653(11) 0.48127(2)
Ag10_12 Ag 0.860210(8) 0.470640(8) 0.84017(2)
N1_12 N 0.99296(10) 0.94084(10) 0.5358(2)
N19_12 N 0.83070(9) 0.45543(8) 0.8482(2)
N20_12 N 0.81414(9) 0.46221(9) 0.8182(2)
N23_12 N 0.89596(9) 0.49940(9) 0.7994(2)
N24_12 N 0.89029(9) 0.48480(9) 0.8348(2)
N43_12 N 0.95404(9) 0.82286(9) 0.9756(2)
N44_12 N 0.96165(9) 0.80197(9) 0.9785(2)
N57_12 N 0.96688(8) 0.50909(8) 0.9399(2)
N58_12 N 0.97908(9) 0.50252(9) 0.9006(2)
C1_12 C 0.98511(14) 0.90225(14) 0.5165(3)
C2_12 C 0.99461(12) 0.91998(12) 0.5483(3)
C46_12 C 0.83735(13) 0.43175(12) 0.9202(3)
C47_12 C 0.82271(10) 0.44190(11) 0.8821(2)
C48_12 C 0.80035(10) 0.43945(10) 0.8747(2)
C49_12 C 0.79591(10) 0.45283(10) 0.8336(2)
C50_12 C 0.77515(13) 0.45662(12) 0.8071(3)
C51_12 C 0.76178(14) 0.46141(11) 0.9362(3)
C52_12 C 0.76802(11) 0.43831(11) 0.9335(2)
C53_12 C 0.78473(10) 0.42833(10) 0.9064(2)
C54_12 C 0.78364(10) 0.40655(11) 0.9204(3)
C55_12 C 0.79734(13) 0.38809(12) 0.9037(3)
C56_12 C 0.92668(13) 0.52286(13) 0.7767(3)
C57_12 C 0.91595(11) 0.50639(10) 0.8096(3)
C58_12 C 0.92373(10) 0.49651(10) 0.8523(2)
C59_12 C 0.90673(11) 0.48292(10) 0.8667(3)
C60_12 C 0.90497(13) 0.46811(12) 0.9105(3)
C106_12 C 0.95766(13) 0.85514(11) 0.9229(3)
C107_12 C 0.96198(11) 0.83185(11) 0.9345(3)
C108_12 C 0.97485(11) 0.81659(11) 0.9101(3)
C109_12 C 0.97407(11) 0.79811(11) 0.9389(3)
C110_12 C 0.98401(12) 0.77640(11) 0.9316(3)
C129_12 C 0.99970(12) 0.88314(11) 0.6436(3)
C130_12 C 0.97526(15) 0.88067(12) 0.6439(3)
C131_12 C 0.96118(14) 0.83030(11) 0.7955(3)
C132_12 C 0.98307(11) 0.82722(11) 0.8176(3)
C133_12 C 0.98857(11) 0.82063(11) 0.8659(3)
C141_12 C 0.92860(12) 0.51453(11) 0.9638(3)
C142_12 C 0.94601(11) 0.50784(11) 0.9280(3)
C143_12 C 0.94410(10) 0.50028(10) 0.8793(2)
C144_12 C 0.96522(10) 0.49718(10) 0.8637(2)
C145_12 C 0.97354(13) 0.48819(12) 0.8159(3)
H1_12 H 0.9787 0.9086 0.4866
H2_12 H 0.9966 0.8921 0.5070
H3_12 H 0.9739 0.8946 0.5353
H55_12 H 0.8476 0.4426 0.9326
H56_12 H 0.8454 0.4198 0.9050
H57_12 H 0.8286 0.4262 0.9479
H58_12 H 0.7775 0.4555 0.7712
H59_12 H 0.7697 0.4711 0.8152
H60_12 H 0.7645 0.4457 0.8175
H61_12 H 0.7460 0.4626 0.9380
H62_12 H 0.7670 0.4690 0.9064
H63_12 H 0.7683 0.4680 0.9658
H64_12 H 0.7885 0.3749 0.9021
H65_12 H 0.8092 0.3860 0.9273
H66_12 H 0.8033 0.3912 0.8708
H67_12 H 0.9159 0.5333 0.7651
H68_12 H 0.9332 0.5155 0.7481
H69_12 H 0.9379 0.5305 0.7955
H70_12 H 0.8980 0.4546 0.9004
H71_12 H 0.8963 0.4751 0.9365
H72_12 H 0.9195 0.4650 0.9234
H127_12 H 0.9430 0.8590 0.9338
H128_12 H 0.9589 0.8575 0.8870
H129_12 H 0.9682 0.8642 0.9403
H130_12 H 0.9732 0.7651 0.9384
H131_12 H 0.9963 0.7747 0.9544
H132_12 H 0.9891 0.7750 0.8973
H154_12 H 0.9707 0.8741 0.6753
H155_12 H 0.9685 0.8950 0.6403
H156_12 H 0.9708 0.8714 0.6162
H157_12 H 0.9607 0.8235 0.7625
H158_12 H 0.9503 0.8236 0.8169
H159_12 H 0.9581 0.8458 0.7923
H169_12 H 0.9336 0.5270 0.9833
H170_12 H 0.9155 0.5185 0.9453
H171_12 H 0.9253 0.5024 0.9861
H172_12 H 0.9872 0.4805 0.8219
H173_12 H 0.9629 0.4781 0.8020
H174_14 H 0.9760 0.5000 0.7923
H34_13 H 0.1309 0.3770 0.0128
Ag34_5 Ag 0.179910(8) 0.385430(8) 0.006640(19)
Ag3_9 Ag 0.034860(11) 0.488000(9) 0.49177(2)
Ag10_13 Ag 0.279360(8) 0.110210(8) 0.09017(2)
Ag11_9 Ag 0.265120(8) 0.071150(8) 0.014510(19)
Ag16_13 Ag 0.075840(9) 0.352140(9) 0.77447(2)
Ag17_13 Ag 0.040390(9) 0.367370(9) 0.68771(2)
Ag18_13 Ag 0.056550(9) 0.403610(8) 0.77822(2)
Ag19_13 Ag 0.120690(8) 0.256020(8) 0.51980(2)
Ag20_13 Ag 0.069970(9) 0.235980(9) 0.52494(2)
Ag21_13 Ag 0.100950(8) 0.220110(8) 0.42970(2)
Ag28_13 Ag 0.217470(8) 0.285040(8) 0.252570(19)
Ag29_13 Ag 0.226860(8) 0.231720(8) 0.250950(19)
Ag30_13 Ag 0.245250(8) 0.262510(8) 0.154430(19)
N3_9 N 0.00981(10) 0.48160(9) 0.5863(2)
N4_13 N 0.02304(10) 0.47132(10) 0.5533(2)
N7_13 N 0.20174(9) 0.37021(8) 0.0528(2)
N8_13 N 0.22338(9) 0.37600(9) 0.0499(2)
N11_5 N 0.16423(8) 0.41024(9) 0.9176(2)
N12_5 N 0.15782(8) 0.39673(9) 0.9552(2)
N19_13 N 0.29457(8) 0.08070(9) 0.0982(2)
N20_13 N 0.28779(9) 0.06414(9) 0.0682(2)
N21_5 N 0.32676(9) 0.00794(9) 0.2112(2)
N22_5 N 0.34631(9) 0.01771(9) 0.2029(2)
N23_13 N 0.25060(9) 0.14596(9) 0.0494(2)
N24_13 N 0.26520(9) 0.14029(9) 0.0848(2)
N31_13 N 0.07011(9) 0.33172(9) 0.7148(2)
N32_13 N 0.05513(9) 0.33756(9) 0.6798(2)
N33_13 N 0.02956(9) 0.39905(9) 0.6862(2)
N34_13 N 0.03688(9) 0.41408(9) 0.7201(2)
N35_13 N 0.08044(9) 0.39448(9) 0.8291(2)
N36_13 N 0.08676(9) 0.37347(9) 0.8289(2)
N37_13 N 0.09964(9) 0.26794(9) 0.5738(2)
N38_13 N 0.07894(9) 0.25997(9) 0.5737(2)
N39_13 N 0.05717(8) 0.21574(9) 0.4718(2)
N40_13 N 0.06961(9) 0.20845(9) 0.4337(2)
N41_13 N 0.13138(9) 0.23362(9) 0.4234(2)
N42_13 N 0.13946(9) 0.24734(9) 0.4585(2)
N55_13 N 0.20386(8) 0.26624(8) 0.3085(2)
N56_13 N 0.20854(8) 0.24447(8) 0.3085(2)
N57_13 N 0.24091(8) 0.21688(8) 0.1899(2)
N58_13 N 0.24748(9) 0.22908(9) 0.1506(2)
N59_13 N 0.23895(9) 0.29548(9) 0.1543(2)
N60_13 N 0.22632(8) 0.30385(9) 0.1918(2)
C7_13 C 0.00759(12) 0.46897(11) 0.6260(3)
C8_13 C 0.01983(12) 0.44974(11) 0.6194(3)
C9_13 C 0.02921(12) 0.45214(12) 0.5722(3)
C10_13 C 0.04337(14) 0.43746(14) 0.5441(3)
C16_13 C 0.17839(11) 0.34256(12) 0.0910(3)
C17_13 C 0.20021(11) 0.35270(10) 0.0815(2)
C18_13 C 0.22046(10) 0.34653(10) 0.0983(2)
C19_13 C 0.23477(11) 0.36147(10) 0.0770(2)
C20_13 C 0.25877(11) 0.36405(12) 0.0828(3)
C26_13 C 0.15074(12) 0.42448(13) 0.8385(3)
C27_13 C 0.14832(10) 0.41099(11) 0.8839(2)
C28_13 C 0.13138(10) 0.39755(11) 0.8989(3)
C29_13 C 0.13791(10) 0.38888(10) 0.9444(3)
C30_13 C 0.12652(11) 0.37389(12) 0.9785(3)
C46_13 C 0.31825(12) 0.08735(13) 0.1702(3)
C47_13 C 0.30810(11) 0.07271(10) 0.1321(2)
C48_13 C 0.31055(10) 0.05035(10) 0.1247(2)
C49_13 C 0.29717(10) 0.04591(10) 0.0836(2)
C50_13 C 0.29338(12) 0.02515(13) 0.0571(3)
C51_13 C 0.28859(11) 0.01178(14) 0.1862(3)
C52_13 C 0.31169(11) 0.01802(11) 0.1835(2)
C53_13 C 0.32167(10) 0.03473(10) 0.1564(2)
C54_13 C 0.34345(11) 0.03364(10) 0.1704(3)
C55_13 C 0.36191(12) 0.04734(13) 0.1537(3)
C56_13 C 0.22714(13) 0.17668(13) 0.0267(3)
C57_13 C 0.24361(10) 0.16595(11) 0.0596(3)
C58_13 C 0.25349(10) 0.17373(10) 0.1023(2)
C59_13 C 0.26708(10) 0.15673(11) 0.1167(3)
C60_13 C 0.28189(12) 0.15497(13) 0.1605(3)
C76_13 C 0.09724(12) 0.30286(13) 0.7292(3)
C77_13 C 0.08059(11) 0.31378(11) 0.6987(3)
C78_13 C 0.07217(11) 0.30804(12) 0.6524(3)
C79_13 C 0.05627(11) 0.32329(11) 0.6419(3)
C80_13 C 0.04194(13) 0.32588(13) 0.5972(3)
C81_13 C 0.01146(14) 0.39795(13) 0.6042(3)
C82_13 C 0.02150(11) 0.41003(11) 0.6473(2)
C83_13 C 0.02385(12) 0.43201(11) 0.6545(3)
C84_13 C 0.03364(12) 0.43380(11) 0.7013(3)
C85_13 C 0.03954(12) 0.45351(14) 0.7304(3)
C86_13 C 0.09266(12) 0.42968(12) 0.8623(3)
C87_13 C 0.09510(11) 0.40613(10) 0.8544(2)
C88_13 C 0.11134(11) 0.39224(10) 0.8710(2)
C89_13 C 0.10543(11) 0.37180(11) 0.8543(3)
C90_13 C 0.11671(12) 0.35044(13) 0.8609(3)
C91_13 C 0.12039(13) 0.29839(13) 0.6090(4)
C92_13 C 0.09996(12) 0.28600(11) 0.6024(3)
C93_13 C 0.07908(12) 0.28974(11) 0.6203(3)
C94_13 C 0.06669(11) 0.27299(11) 0.6021(3)
C95_13 C 0.04287(12) 0.26851(13) 0.6086(3)
C96_13 C 0.01915(12) 0.21555(14) 0.4991(3)
C97_13 C 0.03681(11) 0.20935(11) 0.4639(3)
C98_13 C 0.03581(11) 0.19790(11) 0.4192(3)
C99_13 C 0.05688(11) 0.19778(11) 0.4013(3)
C100_13 C 0.06607(12) 0.18748(14) 0.3556(3)
C101_13 C 0.14107(12) 0.21852(12) 0.3416(3)
C102_13 C 0.14565(10) 0.23230(11) 0.3860(2)
C103_13 C 0.16335(10) 0.24566(11) 0.3962(3)
C104_13 C 0.15881(11) 0.25480(11) 0.4426(3)
C105_13 C 0.17200(11) 0.26936(12) 0.4742(3)
C111_13 C 0.01851(13) 0.21521(14) 0.3138(3)
C112_13 C 0.00804(11) 0.19987(11) 0.3501(3)
C113_13 C 0.01552(11) 0.19136(11) 0.3947(3)
C136_13 C 0.17918(11) 0.29151(12) 0.3505(3)
C137_13 C 0.18775(10) 0.26964(10) 0.3411(3)
C138_13 C 0.18172(10) 0.24991(10) 0.3620(2)
C139_13 C 0.19545(10) 0.23438(10) 0.3406(2)
C140_13 C 0.19728(11) 0.21075(12) 0.3496(3)
C141_13 C 0.23547(11) 0.17860(12) 0.2138(3)
C142_13 C 0.24216(11) 0.19601(11) 0.1780(3)
C143_13 C 0.24972(10) 0.19410(10) 0.1293(2)
C144_13 C 0.25282(10) 0.21522(10) 0.1137(2)
C145_13 C 0.26181(12) 0.22354(13) 0.0659(3)
C146_13 C 0.25087(12) 0.30524(13) 0.0691(3)
C147_13 C 0.23879(10) 0.30966(10) 0.1162(2)
C148_13 C 0.22606(10) 0.32771(10) 0.1289(2)
C149_13 C 0.21849(10) 0.32307(11) 0.1766(2)
C150_13 C 0.20409(11) 0.33607(13) 0.2094(3)
H10_13 H 0.0530 0.4460 0.5228
H11_13 H 0.0520 0.4288 0.5673
H12_13 H 0.0345 0.4278 0.5236
H19_13 H 0.1688 0.3454 0.0627
H20_13 H 0.1801 0.3269 0.0953
H21_13 H 0.1721 0.3488 0.1212
H22_13 H 0.2621 0.3792 0.0908
H23_13 H 0.2639 0.3546 0.1096
H24_13 H 0.2660 0.3600 0.0517
H31_13 H 0.1659 0.4244 0.8280
H32_13 H 0.1417 0.4185 0.8119
H33_13 H 0.1462 0.4394 0.8458
H35_13 H 0.1108 0.3759 0.9752
H36_13 H 0.1303 0.3589 0.9702
H55_13 H 0.3074 0.0976 0.1826
H56_13 H 0.3302 0.0954 0.1550
H57_13 H 0.3238 0.0786 0.1979
H58_13 H 0.2945 0.0275 0.0212
H59_13 H 0.2789 0.0197 0.0652
H60_13 H 0.3043 0.0145 0.0675
H62_13 H 0.2810 0.0170 0.1564
H63_13 H 0.2820 0.0183 0.2158
H64_13 H 0.3751 0.0385 0.1521
H65_13 H 0.3640 0.0592 0.1773
H66_13 H 0.3588 0.0533 0.1208
H67_13 H 0.2167 0.1659 0.0151
H69_13 H 0.2195 0.1879 0.0455
H70_13 H 0.2954 0.1480 0.1504
H71_13 H 0.2749 0.1463 0.1865
H72_13 H 0.2850 0.1695 0.1734
H91_13 H 0.0921 0.3016 0.7635
H92_13 H 0.1000 0.2884 0.7158
H93_13 H 0.1106 0.3114 0.7286
H94_13 H 0.0394 0.3413 0.5910
H95_13 H 0.0490 0.3193 0.5682
H96_13 H 0.0281 0.3187 0.6033
H97_13 H 0.0060 0.3839 0.6158
H99_13 H 0.0224 0.3956 0.5784
H100_13 H 0.0486 0.4493 0.7588
H101_13 H 0.0476 0.4636 0.7091
H102_13 H 0.0263 0.4606 0.7424
H103_13 H 0.0800 0.4349 0.8439
H104_13 H 0.0907 0.4326 0.8978
H105_13 H 0.1057 0.4372 0.8505
H106_13 H 0.1131 0.3408 0.8332
H107_13 H 0.1324 0.3528 0.8618
H108_13 H 0.1120 0.3438 0.8922
H109_13 H 0.1287 0.2981 0.5780
H110_13 H 0.1289 0.2918 0.6357
H111_13 H 0.1170 0.3134 0.6175
H112_13 H 0.0407 0.2530 0.6141
H113_13 H 0.0350 0.2730 0.5787
H114_13 H 0.0374 0.2766 0.6373
H115_13 H 0.0226 0.2295 0.5146
H116_13 H 0.0178 0.2044 0.5249
H117_13 H 0.0054 0.2168 0.4809
H118_13 H 0.0803 0.1813 0.3632
H119_13 H 0.0676 0.1984 0.3295
H120_13 H 0.0563 0.1760 0.3442
H121_13 H 0.1254 0.2179 0.3360
H122_13 H 0.1467 0.2039 0.3473
H123_13 H 0.1481 0.2248 0.3123
H124_13 H 0.1701 0.2654 0.5091
H125_13 H 0.1673 0.2844 0.4692
H126_13 H 0.1873 0.2680 0.4651
H133_13 H 0.0078 0.2258 0.3023
H134_13 H 0.0241 0.2070 0.2853
H135_13 H 0.0305 0.2228 0.3301
H138_13 H 0.0113 0.1618 0.4700
H163_13 H 0.1813 0.3005 0.3209
H164_13 H 0.1637 0.2906 0.3580
H165_13 H 0.1868 0.2980 0.3787
H166_13 H 0.2125 0.2063 0.3465
H167_13 H 0.1921 0.2074 0.3831
H168_13 H 0.1885 0.2029 0.3251
H169_13 H 0.2230 0.1836 0.2333
H170_13 H 0.2315 0.1655 0.1953
H171_13 H 0.2476 0.1753 0.2361
H172_13 H 0.2695 0.2372 0.0719
H173_13 H 0.2719 0.2129 0.0520
H174_15 H 0.2500 0.2260 0.0423
H175_13 H 0.2540 0.2897 0.0666
H176_13 H 0.2421 0.3098 0.0407
H177_13 H 0.2645 0.3134 0.0692
H178_13 H 0.2056 0.3311 0.2438
H179_13 H 0.2081 0.3514 0.2072
H180_13 H 0.1890 0.3343 0.1987
Ag32_9 Ag 0.002487(9) 0.513852(10) 0.57568(2)
Ag36_5 Ag 0.196330(9) 0.419750(8) 0.91411(2)
Ag40_5 Ag 0.372120(9) 0.008170(8) 0.24793(2)
N62_9 N 0.04899(10) 0.50531(11) 0.4343(2)
Ag5_5 Ag 0.232190(8) 0.399900(8) 0.99982(2)
Ag12_9 Ag 0.241830(8) 0.122120(9) 0.99793(2)
H68_13 H 0.2345 0.1832 0.9981
N64_5 N 0.24310(9) 0.41946(9) 0.9422(2)
N69_9 N 0.24206(9) 0.07676(9) 0.9612(2)
N70_9 N 0.23229(9) 0.09631(9) 0.9529(2)
H61_13 H 0.2874 0.9960 0.1880
Ag39_5 Ag 0.321150(8) 0.984880(8) 0.264510(19)
Ag7_13 Ag 0.846730(8) 0.440540(9) 0.11999(2)
Ag8_5 Ag 0.811520(9) 0.460950(9) 0.20130(2)
Ag9_5 Ag 0.823770(9) 0.405950(9) 0.20265(2)
Ag13_13 Ag 0.809120(9) 0.128260(8) 0.48307(2)
Ag14_13 Ag 0.791730(8) 0.093730(9) 0.56574(2)
Ag15_13 Ag 0.833620(8) 0.079260(8) 0.48264(2)
Ag22_13 Ag 0.916750(9) 0.184270(9) 0.28309(2)
Ag23_13 Ag 0.967400(9) 0.201090(9) 0.28496(2)
Ag24_13 Ag 0.950180(8) 0.168950(9) 0.38179(2)
Ag25_13 Ag 0.912270(9) 0.299370(9) 0.05638(2)
N5_5 N 0.75531(11) 0.20101(10) 0.6843(2)
N6_5 N 0.77696(11) 0.20555(10) 0.6812(2)
N13_13 N 0.83828(9) 0.47279(9) 0.1139(2)
N14_13 N 0.82411(9) 0.48135(9) 0.1483(2)
N15_9 N 0.80939(9) 0.54684(9) 0.0012(2)
N16_9 N 0.83142(9) 0.55102(9) 0.0012(2)
N17_13 N 0.84496(9) 0.39345(10) 0.1506(2)
N18_13 N 0.85312(9) 0.40780(9) 0.1165(2)
N25_13 N 0.78820(9) 0.13935(9) 0.5368(2)
N26_13 N 0.78081(9) 0.12521(9) 0.5722(2)
N27_13 N 0.80529(9) 0.06327(9) 0.5654(2)
N28_13 N 0.82143(8) 0.05674(9) 0.5339(2)
N29_13 N 0.84708(8) 0.10408(8) 0.4391(2)
N30_13 N 0.83475(9) 0.12225(9) 0.4355(2)
N43_13 N 0.92714(9) 0.20404(9) 0.2256(2)
N44_13 N 0.94803(9) 0.21165(9) 0.2285(2)
N45_13 N 0.98778(9) 0.19307(10) 0.3418(2)
N46_13 N 0.98186(9) 0.17984(9) 0.3805(2)
N47_13 N 0.91794(9) 0.15945(9) 0.3809(2)
N48_13 N 0.90578(9) 0.16451(9) 0.3397(2)
N49_13 N 0.89638(9) 0.32889(10) 0.0519(2)
N50_13 N 0.88399(9) 0.33253(10) 0.0108(2)
N53_13 N 0.91957(9) 0.25115(9) 0.0409(2)
N54_13 N 0.92408(9) 0.26845(9) 0.0712(2)
C6_13 C 0.99319(14) 0.47501(12) 0.6682(3)
C11_13 C 0.72896(14) 0.17542(14) 0.6492(3)
C12_13 C 0.75154(13) 0.18401(12) 0.6543(3)
C13_13 C 0.77053(12) 0.17745(12) 0.6321(3)
C14_13 C 0.78635(13) 0.19162(12) 0.6497(3)
C15_13 C 0.81000(13) 0.19260(14) 0.6397(4)
C21_13 C 0.83497(12) 0.03228(13) 0.7062(3)
C22_13 C 0.82920(11) 0.01361(11) 0.6744(3)
C23_13 C 0.82216(11) 0.01266(11) 0.6253(3)
C31_13 C 0.85559(14) 0.48236(16) 0.0351(3)
C32_13 C 0.84086(11) 0.48737(12) 0.0780(3)
C33_13 C 0.82861(10) 0.50549(11) 0.0878(3)
C34_13 C 0.81836(11) 0.50120(11) 0.1326(3)
C35_13 C 0.80345(12) 0.51471(14) 0.1628(3)
C36_13 C 0.78338(12) 0.52207(13) 0.0407(3)
C37_13 C 0.80573(12) 0.53077(11) 0.0334(3)
C38_13 C 0.82534(12) 0.52419(11) 0.0547(3)
C39_13 C 0.84082(11) 0.53763(11) 0.0327(3)
C40_13 C 0.86482(12) 0.53894(13) 0.0415(3)
C41_13 C 0.84409(12) 0.35425(14) 0.1660(3)
C42_13 C 0.85143(11) 0.37357(11) 0.1375(3)
C43_13 C 0.86389(11) 0.37479(11) 0.0948(3)
C44_13 C 0.86430(11) 0.39656(11) 0.0821(3)
C45_13 C 0.87503(12) 0.40777(13) 0.0400(3)
C61_13 C 0.79008(12) 0.17841(14) 0.5204(3)
C62_13 C 0.78447(11) 0.15961(12) 0.5522(3)
C63_13 C 0.77468(11) 0.15888(12) 0.5987(3)
C64_13 C 0.77244(12) 0.13684(12) 0.6100(3)
C65_13 C 0.76306(13) 0.12614(14) 0.6548(3)
C66_13 C 0.78669(13) 0.05039(13) 0.6414(3)
C67_13 C 0.80341(11) 0.04826(11) 0.6012(3)
C68_13 C 0.81840(10) 0.03162(10) 0.5934(2)
C69_13 C 0.82910(10) 0.03800(11) 0.5502(3)
C70_13 C 0.84709(11) 0.02659(12) 0.5230(3)
C71_13 C 0.88429(11) 0.09174(11) 0.4206(3)
C72_13 C 0.86707(11) 0.10801(11) 0.4221(3)
C73_13 C 0.86780(10) 0.13010(10) 0.4077(3)
C74_13 C 0.84744(11) 0.13798(12) 0.4167(3)
C75_13 C 0.83855(11) 0.16051(12) 0.4104(3)
C106_13 C 0.89486(11) 0.20766(13) 0.1729(3)
C107_13 C 0.91815(11) 0.21198(11) 0.1845(3)
C108_13 C 0.93341(11) 0.22485(11) 0.1601(3)
C109_13 C 0.95189(11) 0.22407(11) 0.1889(3)
C110_13 C 0.97360(11) 0.23401(12) 0.1816(3)
C114_13 C 0.99842(11) 0.17880(11) 0.4123(3)
C115_13 C 0.99673(13) 0.16520(14) 0.4577(3)
C116_13 C 0.91489(12) 0.13947(13) 0.4597(3)
C117_13 C 0.90619(11) 0.14634(11) 0.4095(3)
C118_13 C 0.88632(11) 0.14254(10) 0.3873(3)
C119_13 C 0.88679(11) 0.15463(11) 0.3440(3)
C120_13 C 0.86990(11) 0.15749(12) 0.3042(3)
C121_13 C 0.90236(14) 0.34396(14) 0.1359(4)
C122_13 C 0.89107(11) 0.34337(11) 0.0872(3)
C123_13 C 0.87449(11) 0.35689(10) 0.0687(3)
C124_13 C 0.87069(11) 0.34916(11) 0.0209(3)
C131_13 C 0.91970(11) 0.21118(14) 0.0455(3)
C132_13 C 0.92278(11) 0.23307(11) 0.0676(3)
C133_13 C 0.92937(11) 0.23857(11) 0.1159(3)
C134_13 C 0.93020(11) 0.26111(10) 0.1159(3)
C135_13 C 0.93625(12) 0.27629(13) 0.1564(3)
H7_13 H 0.9789 0.4791 0.6554
H8_13 H 0.9917 0.4626 0.6908
H9_13 H 0.9995 0.4873 0.6862
H13_13 H 0.7186 0.1863 0.6612
H14_13 H 0.7260 0.1722 0.6142
H15_13 H 0.7275 0.1621 0.6689
H16_13 H 0.8173 0.2001 0.6671
H17_13 H 0.8158 0.1779 0.6367
H18_13 H 0.8126 0.2005 0.6087
H25_13 H 0.8445 0.0274 0.7330
H26_13 H 0.8424 0.0432 0.6862
H27_13 H 0.8218 0.0386 0.7204
H37_13 H 0.8559 0.4667 0.0295
H38_13 H 0.8703 0.4874 0.0427
H39_13 H 0.8503 0.4897 0.0052
H40_13 H 0.8063 0.5123 0.1982
H41_13 H 0.7884 0.5107 0.1553
H42_13 H 0.8057 0.5300 0.1548
H43_13 H 0.7751 0.5238 0.0099
H44_13 H 0.7762 0.5300 0.0676
H45_13 H 0.7842 0.5067 0.0493
H46_13 H 0.8691 0.5542 0.0446
H47_13 H 0.8725 0.5323 0.0134
H48_13 H 0.8685 0.5312 0.0721
H49_13 H 0.8352 0.3589 0.1942
H50_13 H 0.8567 0.3463 0.1782
H51_13 H 0.8355 0.3448 0.1443
H52_13 H 0.8752 0.4234 0.0463
H53_13 H 0.8670 0.4049 0.0093
H54_13 H 0.8899 0.4025 0.0366
H73_13 H 0.7852 0.1757 0.4863
H74_13 H 0.7830 0.1914 0.5333
H75_13 H 0.8058 0.1805 0.5206
H76_13 H 0.7716 0.1132 0.6630
H77_13 H 0.7634 0.1363 0.6829
H78_13 H 0.7481 0.1219 0.6480
H79_13 H 0.7741 0.0583 0.6286
H80_13 H 0.7822 0.0359 0.6525
H81_13 H 0.7929 0.0584 0.6695
H82_13 H 0.8565 0.0373 0.5072
H83_13 H 0.8556 0.0179 0.5466
H84_13 H 0.8409 0.0171 0.4976
H85_13 H 0.8783 0.0776 0.4297
H86_13 H 0.8903 0.0910 0.3869
H87_13 H 0.8957 0.0957 0.4441
H88_13 H 0.8254 0.1621 0.4305
H89_13 H 0.8494 0.1711 0.4212
H90_13 H 0.8350 0.1630 0.3753
H98_13 H 0.9995 0.4065 0.5905
H127_13 H 0.8910 0.1930 0.1838
H128_13 H 0.8925 0.2089 0.1370
H129_13 H 0.8858 0.2182 0.1903
H130_13 H 0.9849 0.2232 0.1884
H131_13 H 0.9753 0.2463 0.2044
H132_13 H 0.9750 0.2391 0.1473
H136_13 H 0.9891 0.1517 0.4497
H137_13 H 0.9887 0.1731 0.4833
H139_13 H 0.9302 0.1435 0.4622
H140_13 H 0.9134 0.1237 0.4634
H141_13 H 0.9067 0.1468 0.4860
H142_13 H 0.8766 0.1556 0.2715
H143_13 H 0.8637 0.1721 0.3066
H144_13 H 0.8584 0.1467 0.3086
H145_13 H 0.9167 0.3374 0.1326
H146_13 H 0.9039 0.3590 0.1469
H147_13 H 0.8939 0.3358 0.1605
H157_13 H 0.9265 0.2107 0.0125
H158_13 H 0.9264 0.2003 0.0669
H159_13 H 0.9042 0.2081 0.0423
H160_13 H 0.9277 0.2896 0.1533
H161_13 H 0.9333 0.2695 0.1886
H162_13 H 0.9517 0.2798 0.1539
Ag31_5 Ag 0.792347(11) 0.226069(9) 0.73127(2)
Ag33_5 Ag 0.738000(9) 0.215140(11) 0.74177(2)
N67_5 N 0.79684(9) 0.44061(9) 0.2512(2)
N68_5 N 0.80102(9) 0.41858(9) 0.2512(2)
Ag2_5 Ag 0.763852(10) 0.247513(9) 0.82568(2)
Ag26_13 Ag 0.882930(9) 0.308450(10) 0.95778(2)
Ag27_13 Ag 0.902350(9) 0.256590(9) 0.97596(2)
N1_13 N 0.80916(10) 0.24296(10) 0.7858(2)
N2_13 N 0.79674(10) 0.25252(10) 0.8215(2)
N51_13 N 0.87479(9) 0.28353(10) 0.9093(2)
N52_13 N 0.88092(9) 0.26216(10) 0.9181(2)
C1_13 C 0.84775(14) 0.23511(14) 0.7665(3)
C2_13 C 0.83002(12) 0.24461(12) 0.7983(3)
C3_13 C 0.83178(12) 0.25583(12) 0.8431(3)
C4_13 C 0.81041(13) 0.26043(12) 0.8564(3)
C5_13 C 0.80181(13) 0.27137(14) 0.9016(3)
C125_13 C 0.85492(12) 0.35720(13) 0.9830(3)
C126_13 C 0.84720(13) 0.30431(15) 0.8643(4)
C127_13 C 0.85697(12) 0.28347(12) 0.8812(3)
C128_13 C 0.85126(12) 0.26235(12) 0.8702(3)
C129_13 C 0.86686(11) 0.24970(12) 0.8936(3)
C130_13 C 0.86933(12) 0.22526(15) 0.8939(3)
H1_13 H 0.8414 0.2287 0.7366
H2_13 H 0.8579 0.2466 0.7570
H3_13 H 0.8554 0.2239 0.7853
H4_13 H 0.7860 0.2726 0.8991
H5_13 H 0.8056 0.2629 0.9310
H6_13 H 0.8082 0.2859 0.9043
H148_13 H 0.8498 0.3450 0.9628
H149_13 H 0.8426 0.3640 0.9997
H150_13 H 0.8621 0.3678 0.9615
H151_13 H 0.8587 0.3151 0.8597
H152_13 H 0.8396 0.3020 0.8327
H153_13 H 0.8369 0.3095 0.8893
H154_13 H 0.8759 0.2207 0.9253
H155_13 H 0.8550 0.2185 0.8903
H156_13 H 0.8786 0.2208 0.8662
Ag37_9 Ag 0.789050(9) 0.561520(9) 0.95130(2)
Ag38_9 Ag 0.844050(9) 0.573770(9) 0.95265(2)
N61_5 N 0.73160(9) 0.24019(10) 0.8363(2)
Ag6_9 Ag 0.830250(8) 0.946330(9) 0.66411(2)
N9_9 N 0.83054(9) 0.99310(9) 0.6922(2)
N10_13 N 0.82467(9) 0.97931(9) 0.6547(2)
C24_13 C 0.81959(10) 0.99105(10) 0.6144(3)
C25_13 C 0.81200(12) 0.98111(13) 0.5672(3)
H28_13 H 0.8121 0.9653 0.5704
H29_13 H 0.7972 0.9861 0.5600
H30_13 H 0.8217 0.9854 0.5400
Ag35_9 Ag 0.850100(8) 0.982190(8) 0.74982(2)
N65_9 N 0.83976(9) 0.91423(8) 0.6676(2)
Ag10_14 Ag 0.139790(8) 0.029360(8) 0.84017(2)
Ag11_10 Ag 0.178850(8) 0.015120(8) 0.764510(19)
N19_14 N 0.16930(9) 0.04457(8) 0.8482(2)
N20_14 N 0.18586(9) 0.03779(9) 0.8182(2)
N23_14 N 0.10404(9) 0.00060(9) 0.7994(2)
N24_14 N 0.10971(9) 0.01520(9) 0.8348(2)
C46_14 C 0.16265(13) 0.06825(12) 0.9202(3)
C47_14 C 0.17729(10) 0.05810(11) 0.8821(2)
C48_14 C 0.19965(10) 0.06055(10) 0.8747(2)
C49_14 C 0.20409(10) 0.04717(10) 0.8336(2)
C50_14 C 0.22485(13) 0.04338(12) 0.8071(3)
C51_14 C 0.23822(14) 0.03859(11) 0.9362(3)
C52_14 C 0.23198(11) 0.06169(11) 0.9335(2)
C53_14 C 0.21527(10) 0.07167(10) 0.9064(2)
C54_14 C 0.21636(10) 0.09345(11) 0.9204(3)
C55_14 C 0.20266(13) 0.11191(12) 0.9037(3)
C58_14 C 0.07627(10) 0.00349(10) 0.8523(2)
C59_14 C 0.09327(11) 0.01708(10) 0.8667(3)
C60_14 C 0.09503(13) 0.03189(12) 0.9105(3)
C144_14 C 0.03478(10) 0.00282(10) 0.8637(2)
C145_14 C 0.02646(13) 0.01181(12) 0.8159(3)
H55_14 H 0.1524 0.0574 0.9326
H56_14 H 0.1546 0.0802 0.9050
H57_14 H 0.1714 0.0738 0.9479
H58_14 H 0.2225 0.0445 0.7712
H59_14 H 0.2303 0.0289 0.8152
H60_14 H 0.2355 0.0543 0.8175
H61_14 H 0.2540 0.0374 0.9380
H62_14 H 0.2330 0.0310 0.9064
H63_14 H 0.2317 0.0320 0.9658
H64_14 H 0.2115 0.1251 0.9021
H65_14 H 0.1908 0.1140 0.9273
H66_14 H 0.1967 0.1088 0.8708
H70_14 H 0.1020 0.0454 0.9004
H71_14 H 0.1037 0.0249 0.9365
H72_14 H 0.0805 0.0350 0.9234
H172_14 H 0.0128 0.0195 0.8219
H173_14 H 0.0371 0.0219 0.8020
H174_16 H 0.0240 -0.0000 0.7923
Ag6_10 Ag 0.303670(9) 0.580250(8) 0.41411(2)
Ag13_14 Ag 0.121740(8) 0.559120(9) 0.23307(2)
Ag14_14 Ag 0.156270(9) 0.541730(8) 0.31574(2)
Ag15_14 Ag 0.170740(8) 0.583620(8) 0.23264(2)
Ag20_14 Ag 0.014020(9) 0.819970(9) 0.27494(2)
Ag21_14 Ag 0.029890(8) 0.850950(8) 0.17970(2)
Ag22_14 Ag 0.065730(9) 0.666750(9) 0.03309(2)
Ag23_14 Ag 0.048910(9) 0.717400(9) 0.03496(2)
Ag24_14 Ag 0.081050(9) 0.700180(8) 0.13179(2)
Ag29_14 Ag 0.018280(8) 0.976860(8) 0.000950(19)
N6_6 N 0.04445(10) 0.52696(11) 0.4312(2)
N9_10 N 0.25690(9) 0.58054(9) 0.4422(2)
N10_14 N 0.27069(9) 0.57467(9) 0.4047(2)
N25_14 N 0.11065(9) 0.53820(9) 0.2868(2)
N26_14 N 0.12479(9) 0.53081(9) 0.3222(2)
N27_14 N 0.18673(9) 0.55529(9) 0.3154(2)
N28_14 N 0.19326(9) 0.57143(8) 0.2839(2)
N29_14 N 0.14592(8) 0.59708(8) 0.1891(2)
N30_14 N 0.12775(9) 0.58475(9) 0.1855(2)
N39_14 N 0.03426(9) 0.80717(8) 0.2218(2)
N40_14 N 0.04155(9) 0.81961(9) 0.1837(2)
N41_14 N 0.01638(9) 0.88138(9) 0.1734(2)
N42_14 N 0.00266(9) 0.88946(9) 0.2085(2)
N45_14 N 0.05693(10) 0.73778(9) 0.0918(2)
N46_14 N 0.07016(9) 0.73186(9) 0.1305(2)
N47_14 N 0.09055(9) 0.66794(9) 0.1309(2)
N48_14 N 0.08549(9) 0.65578(9) 0.0897(2)
N56_14 N 0.00553(8) 0.95854(8) 0.0585(2)
C11_14 C 0.07458(14) 0.47896(14) 0.3992(3)
C12_14 C 0.06599(12) 0.50154(13) 0.4043(3)
C13_14 C 0.07255(12) 0.52053(12) 0.3821(3)
C14_14 C 0.05838(12) 0.53635(13) 0.3997(3)
C15_14 C 0.05740(14) 0.56000(13) 0.3897(4)
C21_14 C 0.21772(13) 0.58497(12) 0.4562(3)
C22_14 C 0.23639(11) 0.57920(11) 0.4244(3)
C23_14 C 0.23734(11) 0.57216(11) 0.3753(3)
C24_14 C 0.25895(10) 0.56959(10) 0.3644(3)
C25_14 C 0.26889(13) 0.56200(12) 0.3172(3)
C61_14 C 0.07159(14) 0.54008(12) 0.2704(3)
C62_14 C 0.09039(12) 0.53447(11) 0.3022(3)
C63_14 C 0.09112(12) 0.52468(11) 0.3487(3)
C64_14 C 0.11316(12) 0.52244(12) 0.3600(3)
C65_14 C 0.12386(14) 0.51306(13) 0.4048(3)
C66_14 C 0.19961(13) 0.53669(13) 0.3914(3)
C67_14 C 0.20174(11) 0.55341(11) 0.3512(3)
C68_14 C 0.21838(10) 0.56840(10) 0.3434(2)
C69_14 C 0.21200(11) 0.57910(10) 0.3002(3)
C70_14 C 0.22341(12) 0.59709(11) 0.2730(3)
C71_14 C 0.15826(11) 0.63429(11) 0.1706(3)
C72_14 C 0.14199(11) 0.61707(11) 0.1721(3)
C73_14 C 0.11990(10) 0.61780(10) 0.1577(3)
C74_14 C 0.11202(12) 0.59744(11) 0.1667(3)
C75_14 C 0.08949(12) 0.58855(11) 0.1604(3)
C96_14 C 0.03445(14) 0.76915(12) 0.2491(3)
C97_14 C 0.04065(11) 0.78681(11) 0.2139(3)
C98_14 C 0.05210(11) 0.78581(11) 0.1692(3)
C99_14 C 0.05222(11) 0.80688(11) 0.1513(3)
C100_14 C 0.06252(14) 0.81607(12) 0.1056(3)
C101_14 C 0.03148(12) 0.89107(12) 0.0916(3)
C102_14 C 0.01770(11) 0.89565(10) 0.1360(2)
C103_14 C 0.00434(11) 0.91335(10) 0.1462(3)
C111_14 C 0.03479(14) 0.76851(13) 0.0638(3)
C112_14 C 0.05013(11) 0.75804(11) 0.1001(3)
C113_14 C 0.05864(11) 0.76552(11) 0.1447(3)
C114_14 C 0.07120(11) 0.74842(11) 0.1623(3)
C115_14 C 0.08480(14) 0.74673(13) 0.2077(3)
C116_14 C 0.11053(13) 0.66489(12) 0.2097(3)
C117_14 C 0.10366(11) 0.65619(11) 0.1595(3)
C118_14 C 0.10746(10) 0.63632(11) 0.1373(3)
C119_14 C 0.09537(11) 0.63679(11) 0.0940(3)
C120_14 C 0.09251(12) 0.61990(11) 0.0542(3)
C138_14 C 0.00009(10) 0.93172(10) 0.1120(2)
C139_14 C 0.01562(10) 0.94545(10) 0.0906(2)
C140_14 C 0.03925(12) 0.94728(11) 0.0996(3)
H13_14 H 0.0637 0.4686 0.4112
H14_14 H 0.0778 0.4760 0.3642
H15_14 H 0.0879 0.4775 0.4189
H16_14 H 0.0499 0.5673 0.4171
H17_14 H 0.0721 0.5658 0.3867
H18_14 H 0.0495 0.5626 0.3587
H25_14 H 0.2226 0.5945 0.4830
H26_14 H 0.2068 0.5924 0.4362
H27_14 H 0.2114 0.5718 0.4704
H28_14 H 0.2847 0.5621 0.3204
H29_14 H 0.2639 0.5472 0.3100
H30_14 H 0.2646 0.5717 0.2900
H73_14 H 0.0743 0.5352 0.2363
H74_14 H 0.0586 0.5330 0.2833
H75_14 H 0.0695 0.5558 0.2706
H76_14 H 0.1368 0.5216 0.4130
H77_14 H 0.1137 0.5134 0.4329
H78_14 H 0.1281 0.4981 0.3980
H79_14 H 0.1917 0.5241 0.3786
H80_14 H 0.2141 0.5322 0.4025
H81_14 H 0.1916 0.5429 0.4195
H82_14 H 0.2127 0.6065 0.2572
H83_14 H 0.2321 0.6056 0.2966
H84_14 H 0.2329 0.5909 0.2476
H85_14 H 0.1724 0.6283 0.1797
H86_14 H 0.1590 0.6403 0.1369
H87_14 H 0.1543 0.6457 0.1941
H88_14 H 0.0879 0.5754 0.1805
H89_14 H 0.0789 0.5994 0.1712
H90_14 H 0.0870 0.5850 0.1253
H115_14 H 0.0205 0.7726 0.2646
H116_14 H 0.0456 0.7678 0.2749
H117_14 H 0.0332 0.7554 0.2309
H118_14 H 0.0687 0.8303 0.1132
H119_14 H 0.0516 0.8176 0.0795
H120_14 H 0.0740 0.8063 0.0942
H121_14 H 0.0321 0.8754 0.0860
H122_14 H 0.0461 0.8967 0.0973
H123_14 H 0.0252 0.8981 0.0623
H133_14 H 0.0242 0.7578 0.0523
H134_14 H 0.0430 0.7741 0.0353
H135_14 H 0.0272 0.7805 0.0801
H136_14 H 0.0983 0.7391 0.1997
H137_14 H 0.0769 0.7387 0.2333
H138_14 H 0.0882 0.7613 0.2200
H139_14 H 0.1065 0.6802 0.2122
H140_14 H 0.1263 0.6634 0.2134
H141_14 H 0.1032 0.6567 0.2360
H142_14 H 0.0944 0.6266 0.0215
H143_14 H 0.0779 0.6137 0.0566
H144_14 H 0.1033 0.6084 0.0586
H166_14 H 0.0437 0.9625 0.0965
H167_14 H 0.0426 0.9421 0.1331
H168_14 H 0.0471 0.9385 0.0751
Ag31_6 Ag 0.023931(9) 0.542347(11) 0.48127(2)
Ag35_10 Ag 0.267810(8) 0.600100(8) 0.49982(2)
N65_10 N 0.33577(8) 0.58976(9) 0.4176(2)
Ag12_10 Ag 0.127880(9) 0.991830(8) 0.74793(2)
N1_14 N 0.00704(10) 0.55916(10) 0.5358(2)
N43_14 N 0.04596(9) 0.67714(9) 0.9756(2)
N44_14 N 0.03835(9) 0.69803(9) 0.9785(2)
N57_14 N 0.03312(8) 0.99091(8) 0.9399(2)
N58_14 N 0.02092(9) 0.99748(9) 0.9006(2)
C1_14 C 0.01489(14) 0.59775(14) 0.5165(3)
C2_14 C 0.00539(12) 0.58002(12) 0.5483(3)
C56_14 C 0.07332(13) 0.97714(13) 0.7767(3)
C57_14 C 0.08405(11) 0.99361(10) 0.8096(3)
C106_14 C 0.04234(13) 0.64486(11) 0.9229(3)
C107_14 C 0.03802(11) 0.66815(11) 0.9345(3)
C108_14 C 0.02515(11) 0.68341(11) 0.9101(3)
C109_14 C 0.02593(11) 0.70189(11) 0.9389(3)
C110_14 C 0.01599(12) 0.72360(11) 0.9316(3)
C129_14 C 0.00030(12) 0.61686(11) 0.6436(3)
C130_14 C 0.02474(15) 0.61933(12) 0.6439(3)
C131_14 C 0.03882(14) 0.66970(11) 0.7955(3)
C132_14 C 0.01693(11) 0.67278(11) 0.8176(3)
C133_14 C 0.01143(11) 0.67937(11) 0.8659(3)
C141_14 C 0.07140(12) 0.98547(11) 0.9638(3)
C142_14 C 0.05399(11) 0.99216(11) 0.9280(3)
C143_14 C 0.05590(10) 0.99972(10) 0.8793(2)
H1_14 H 0.0213 0.5914 0.4866
H2_14 H 0.0034 0.6079 0.5070
H3_14 H 0.0261 0.6054 0.5353
H67_14 H 0.0841 0.9667 0.7651
H68_14 H 0.0668 0.9845 0.7481
H69_14 H 0.0621 0.9695 0.7955
H127_14 H 0.0570 0.6410 0.9338
H128_14 H 0.0411 0.6425 0.8870
H129_14 H 0.0318 0.6358 0.9403
H130_14 H 0.0268 0.7349 0.9384
H131_14 H 0.0037 0.7253 0.9544
H132_14 H 0.0109 0.7250 0.8973
H154_14 H 0.0293 0.6259 0.6753
H155_14 H 0.0315 0.6050 0.6403
H156_14 H 0.0292 0.6286 0.6162
H157_14 H 0.0393 0.6765 0.7625
H158_14 H 0.0497 0.6764 0.8169
H159_14 H 0.0419 0.6542 0.7923
H169_14 H 0.0664 0.9730 0.9833
H170_14 H 0.0845 0.9815 0.9453
H171_14 H 0.0747 0.9976 0.9861
H174_17 H 0.0240 1.0000 0.7923
N69_10 N 0.17324(9) 0.99206(9) 0.7112(2)
N70_10 N 0.15369(9) 0.98229(9) 0.7029(2)
Ag3_10 Ag 0.762000(9) 0.784860(11) 0.24177(2)
Ag16_14 Ag 0.897860(9) 0.825840(9) 0.52447(2)
Ag17_14 Ag 0.882630(9) 0.790390(9) 0.43771(2)
Ag18_14 Ag 0.846390(8) 0.806550(9) 0.52822(2)
Ag19_14 Ag 0.993980(8) 0.870690(8) 0.26980(2)
Ag28_14 Ag 0.964960(8) 0.967470(8) 0.002570(19)
N3_10 N 0.76840(9) 0.75981(10) 0.3363(2)
N4_14 N 0.77868(10) 0.77304(10) 0.3033(2)
N12_6 N 0.85327(9) 0.90782(8) 0.7052(2)
N31_14 N 0.91828(9) 0.82011(9) 0.4648(2)
N32_14 N 0.91244(9) 0.80513(9) 0.4298(2)
N33_14 N 0.85095(9) 0.77956(9) 0.4362(2)
N34_14 N 0.83592(9) 0.78688(9) 0.4701(2)
N35_14 N 0.85552(9) 0.83044(9) 0.5791(2)
N36_14 N 0.87653(9) 0.83676(9) 0.5789(2)
N37_14 N 0.98206(9) 0.84964(9) 0.3238(2)
N38_14 N 0.99003(9) 0.82894(9) 0.3237(2)
N55_14 N 0.98376(8) 0.95386(8) 0.0585(2)
C6_14 C 0.77499(12) 0.74319(14) 0.4182(3)
C7_14 C 0.78103(11) 0.75759(12) 0.3760(3)
C8_14 C 0.80026(11) 0.76983(12) 0.3694(3)
C9_14 C 0.79786(12) 0.77921(12) 0.3222(3)
C10_14 C 0.81254(14) 0.79337(14) 0.2941(3)
C26_14 C 0.82552(13) 0.90074(12) 0.5885(3)
C27_14 C 0.83901(11) 0.89832(10) 0.6339(2)
C28_14 C 0.85245(11) 0.88138(10) 0.6489(3)
C29_14 C 0.86112(10) 0.88791(10) 0.6944(3)
C30_14 C 0.87611(12) 0.87652(11) 0.7285(3)
C76_14 C 0.94714(13) 0.84724(12) 0.4792(3)
C77_14 C 0.93622(11) 0.83059(11) 0.4487(3)
C78_14 C 0.94196(12) 0.82217(11) 0.4024(3)
C79_14 C 0.92671(11) 0.80627(11) 0.3919(3)
C80_14 C 0.92412(13) 0.79194(13) 0.3472(3)
C81_14 C 0.85205(13) 0.76146(14) 0.3542(3)
C82_14 C 0.83997(11) 0.77150(11) 0.3973(2)
C83_14 C 0.81799(11) 0.77385(12) 0.4045(3)
C84_14 C 0.81620(11) 0.78364(12) 0.4513(3)
C85_14 C 0.79649(14) 0.78954(12) 0.4804(3)
C86_14 C 0.82032(12) 0.84266(12) 0.6123(3)
C87_14 C 0.84387(10) 0.84510(11) 0.6044(2)
C88_14 C 0.85776(10) 0.86134(11) 0.6210(2)
C89_14 C 0.87820(11) 0.85543(11) 0.6043(3)
C90_14 C 0.89956(13) 0.86671(12) 0.6109(3)
C91_14 C 0.95161(13) 0.87039(13) 0.3590(4)
C92_14 C 0.96400(11) 0.84996(12) 0.3524(3)
C93_14 C 0.96026(11) 0.82908(12) 0.3703(3)
C94_14 C 0.97701(11) 0.81669(11) 0.3521(3)
C95_14 C 0.98149(13) 0.79287(12) 0.3586(3)
C104_14 C 0.99520(11) 0.90881(11) 0.1926(3)
C105_14 C 0.98064(12) 0.92200(11) 0.2242(3)
C136_14 C 0.95849(12) 0.92918(11) 0.1005(3)
C137_14 C 0.98036(10) 0.93775(10) 0.0911(3)
H7_14 H 0.7709 0.7289 0.4054
H8_14 H 0.7874 0.7417 0.4408
H9_14 H 0.7627 0.7495 0.4362
H10_14 H 0.8040 0.8030 0.2728
H11_14 H 0.8212 0.8020 0.3173
H12_14 H 0.8222 0.7845 0.2736
H31_14 H 0.8256 0.9159 0.5780
H32_14 H 0.8315 0.8917 0.5619
H33_14 H 0.8106 0.8962 0.5958
H34_14 H 0.8730 0.8809 0.7628
H35_14 H 0.8741 0.8608 0.7252
H36_14 H 0.8911 0.8803 0.7202
H91_14 H 0.9484 0.8421 0.5135
H92_14 H 0.9616 0.8500 0.4658
H93_14 H 0.9386 0.8606 0.4786
H94_14 H 0.9087 0.7894 0.3410
H95_14 H 0.9307 0.7990 0.3182
H96_14 H 0.9313 0.7781 0.3533
H97_14 H 0.8661 0.7560 0.3658
H98_14 H 0.8435 0.7495 0.3405
H99_14 H 0.8544 0.7724 0.3284
H100_14 H 0.8007 0.7986 0.5088
H101_14 H 0.7864 0.7976 0.4591
H102_14 H 0.7894 0.7763 0.4924
H103_14 H 0.8151 0.8300 0.5939
H104_14 H 0.8174 0.8407 0.6478
H105_14 H 0.8128 0.8557 0.6005
H106_14 H 0.9092 0.8631 0.5832
H107_14 H 0.8972 0.8824 0.6118
H108_14 H 0.9062 0.8620 0.6422
H109_14 H 0.9519 0.8787 0.3280
H110_14 H 0.9582 0.8789 0.3857
H111_14 H 0.9366 0.8670 0.3675
H112_14 H 0.9970 0.7907 0.3641
H113_14 H 0.9770 0.7850 0.3287
H114_14 H 0.9734 0.7874 0.3873
H124_14 H 0.9846 0.9201 0.2591
H125_14 H 0.9656 0.9173 0.2192
H126_14 H 0.9820 0.9373 0.2151
H163_14 H 0.9495 0.9313 0.0709
H164_14 H 0.9594 0.9137 0.1080
H165_14 H 0.9520 0.9368 0.1287
Ag32_10 Ag 0.736148(10) 0.752487(9) 0.32568(2)
Ag34_6 Ag 0.864570(8) 0.929910(8) 0.756640(19)
N62_10 N 0.74469(11) 0.79899(10) 0.1843(2)
Ag7_14 Ag 0.809460(9) 0.596730(8) 0.86999(2)
Ag25_14 Ag 0.950630(9) 0.662270(9) 0.80638(2)
Ag26_14 Ag 0.941550(10) 0.632930(9) 0.70778(2)
Ag27_14 Ag 0.993410(9) 0.652350(9) 0.72596(2)
Ag30_14 Ag 0.987490(8) 0.995250(8) 0.904430(19)
N2_14 N 0.99748(10) 0.54674(10) 0.5715(2)
N7_14 N 0.87979(8) 0.95174(9) 0.8028(2)
N8_14 N 0.87400(9) 0.97338(9) 0.7999(2)
N13_14 N 0.77721(9) 0.58828(9) 0.8639(2)
N14_14 N 0.76865(9) 0.57411(9) 0.8983(2)
N15_10 N 0.70316(9) 0.55939(9) 0.7512(2)
N16_10 N 0.69898(9) 0.58142(9) 0.7512(2)
N17_14 N 0.85655(10) 0.59496(9) 0.9006(2)
N18_14 N 0.84220(9) 0.60312(9) 0.8665(2)
N49_14 N 0.92111(10) 0.64638(9) 0.8019(2)
N50_14 N 0.91747(10) 0.63399(9) 0.7608(2)
N51_14 N 0.96647(10) 0.62479(9) 0.6593(2)
N52_14 N 0.98784(10) 0.63092(9) 0.6681(2)
N53_14 N 0.99885(9) 0.66957(9) 0.7909(2)
N54_14 N 0.98155(9) 0.67408(9) 0.8212(2)
N59_14 N 0.95452(9) 0.98895(9) 0.9043(2)
N60_14 N 0.94615(9) 0.97632(8) 0.9418(2)
C3_14 C 0.99417(12) 0.58178(12) 0.5931(3)
C4_14 C 0.98957(12) 0.56041(13) 0.6064(3)
C5_14 C 0.97863(14) 0.55181(13) 0.6516(3)
C16_14 C 0.90744(12) 0.92839(11) 0.8410(3)
C17_14 C 0.89730(10) 0.95021(11) 0.8315(2)
C18_14 C 0.90347(10) 0.97046(10) 0.8483(2)
C19_14 C 0.88853(10) 0.98477(11) 0.8270(2)
C31_14 C 0.76764(16) 0.60559(14) 0.7851(3)
C32_14 C 0.76263(12) 0.59086(11) 0.8280(3)
C33_14 C 0.74451(11) 0.57861(10) 0.8378(3)
C34_14 C 0.74880(11) 0.56836(11) 0.8826(3)
C35_14 C 0.73529(14) 0.55345(12) 0.9128(3)
C36_14 C 0.72793(13) 0.53338(12) 0.7907(3)
C37_14 C 0.71923(11) 0.55573(12) 0.7834(3)
C38_14 C 0.72581(11) 0.57534(12) 0.8047(3)
C39_14 C 0.71237(11) 0.59082(11) 0.7827(3)
C40_14 C 0.71106(13) 0.61482(12) 0.7915(3)
C41_14 C 0.89575(14) 0.59409(12) 0.9160(3)
C42_14 C 0.87643(11) 0.60143(11) 0.8875(3)
C43_14 C 0.87521(11) 0.61389(11) 0.8448(3)
C44_14 C 0.85344(11) 0.61430(11) 0.8321(3)
C45_14 C 0.84223(13) 0.62503(12) 0.7900(3)
C121_14 C 0.90604(14) 0.65236(14) 0.8859(4)
C122_14 C 0.90663(11) 0.64107(11) 0.8372(3)
C123_14 C 0.89311(10) 0.62449(11) 0.8187(3)
C124_14 C 0.90084(11) 0.62069(11) 0.7709(3)
C125_14 C 0.89280(13) 0.60492(12) 0.7330(3)
C126_14 C 0.94569(15) 0.59720(13) 0.6143(4)
C127_14 C 0.96653(12) 0.60697(12) 0.6312(3)
C128_14 C 0.98765(12) 0.60126(12) 0.6202(3)
C134_14 C 0.98889(10) 0.68020(11) 0.8659(3)
C135_14 C 0.97371(13) 0.68625(12) 0.9064(3)
C147_14 C 0.94034(10) 0.98879(10) 0.8662(2)
C148_14 C 0.92229(10) 0.97606(10) 0.8789(2)
C149_14 C 0.92693(11) 0.96849(10) 0.9266(2)
C150_14 C 0.91393(13) 0.95409(11) 0.9594(3)
H4_14 H 0.9774 0.5360 0.6491
H5_14 H 0.9871 0.5556 0.6810
H6_14 H 0.9641 0.5582 0.6543
H19_14 H 0.9046 0.9188 0.8127
H20_14 H 0.9231 0.9301 0.8453
H21_14 H 0.9012 0.9221 0.8712
H37_14 H 0.7833 0.6059 0.7795
H38_14 H 0.7626 0.6203 0.7927
H39_14 H 0.7603 0.6003 0.7552
H40_14 H 0.7377 0.5563 0.9482
H41_14 H 0.7393 0.5384 0.9053
H42_14 H 0.7200 0.5557 0.9048
H43_14 H 0.7262 0.5251 0.7599
H44_14 H 0.7200 0.5262 0.8176
H45_14 H 0.7433 0.5342 0.7993
H46_14 H 0.6958 0.6191 0.7946
H47_14 H 0.7177 0.6225 0.7634
H48_14 H 0.7188 0.6185 0.8221
H49_14 H 0.8911 0.5852 0.9442
H50_14 H 0.9037 0.6067 0.9282
H51_14 H 0.9052 0.5855 0.8943
H52_14 H 0.8266 0.6252 0.7963
H53_14 H 0.8451 0.6170 0.7593
H54_14 H 0.8475 0.6399 0.7866
H145_14 H 0.9126 0.6667 0.8826
H146_14 H 0.8910 0.6539 0.8969
H147_14 H 0.9142 0.6439 0.9105
H148_14 H 0.9050 0.5998 0.7128
H149_14 H 0.8860 0.5926 0.7497
H150_14 H 0.8822 0.6121 0.7115
H151_14 H 0.9349 0.6087 0.6097
H152_14 H 0.9480 0.5896 0.5827
H153_14 H 0.9405 0.5869 0.6393
H160_14 H 0.9604 0.6777 0.9033
H161_14 H 0.9805 0.6833 0.9386
H162_14 H 0.9702 0.7017 0.9039
H176_14 H 0.9402 0.9921 0.7907
H178_14 H 0.9189 0.9556 0.9938
H179_14 H 0.8986 0.9581 0.9572
H180_14 H 0.9157 0.9390 0.9487
Ag37_10 Ag 0.688480(9) 0.539050(9) 0.70130(2)
Ag38_10 Ag 0.676230(9) 0.594050(9) 0.70265(2)
Ag16_15 Ag 0.602140(9) 0.174160(9) 0.02447(2)
Ag18_15 Ag 0.653610(8) 0.193450(9) 0.02822(2)
N11_6 N 0.66024(9) 0.08577(8) 0.1676(2)
N12_7 N 0.64673(9) 0.09218(8) 0.2052(2)
N35_15 N 0.64448(9) 0.16956(9) 0.0791(2)
N36_15 N 0.62347(9) 0.16324(9) 0.0789(2)
C26_15 C 0.67448(13) 0.09926(12) 0.0885(3)
C27_15 C 0.66099(11) 0.10168(10) 0.1339(2)
C28_15 C 0.64755(11) 0.11862(10) 0.1489(3)
C29_15 C 0.63888(10) 0.11209(10) 0.1944(3)
C30_15 C 0.62389(12) 0.12348(11) 0.2285(3)
C86_15 C 0.67968(12) 0.15734(12) 0.1123(3)
C87_15 C 0.65613(10) 0.15490(11) 0.1044(2)
C88_15 C 0.64224(10) 0.13866(11) 0.1210(2)
C89_15 C 0.62180(11) 0.14457(11) 0.1043(3)
C90_15 C 0.60044(13) 0.13329(12) 0.1109(3)
H31_15 H 0.6744 0.0841 0.0780
H32_15 H 0.6685 0.1083 0.0619
H33_15 H 0.6894 0.1038 0.0958
H34_15 H 0.6270 0.1191 0.2628
H35_15 H 0.6259 0.1392 0.2252
H36_15 H 0.6089 0.1197 0.2202
H91_15 H 0.5516 0.1579 0.0135
H100_15 H 0.6993 0.2014 0.0088
H103_15 H 0.6849 0.1700 0.0939
H104_15 H 0.6826 0.1593 0.1478
H105_15 H 0.6872 0.1443 0.1005
H106_15 H 0.5908 0.1369 0.0832
H107_15 H 0.6028 0.1176 0.1118
H108_15 H 0.5938 0.1380 0.1422
Ag34_7 Ag 0.635430(8) 0.070090(8) 0.256640(19)
Ag36_6 Ag 0.669750(8) 0.053670(9) 0.16411(2)
Ag2_6 Ag 0.497513(9) 0.486148(10) 0.07568(2)
Ag5_6 Ag 0.649900(8) 0.017810(8) 0.24982(2)
Ag7_15 Ag 0.690540(9) 0.403270(8) 0.36999(2)
Ag8_6 Ag 0.710950(9) 0.438480(9) 0.45130(2)
Ag9_6 Ag 0.655950(9) 0.426230(9) 0.45265(2)
Ag13_15 Ag 0.378260(8) 0.440880(9) 0.73307(2)
Ag14_15 Ag 0.343730(9) 0.458270(8) 0.81574(2)
Ag15_15 Ag 0.329260(8) 0.416380(8) 0.73264(2)
Ag17_15 Ag 0.617370(9) 0.209610(9) 0.93771(2)
Ag19_15 Ag 0.506020(8) 0.129310(8) 0.76980(2)
Ag20_15 Ag 0.485980(9) 0.180030(9) 0.77494(2)
Ag21_15 Ag 0.470110(8) 0.149050(8) 0.67970(2)
Ag22_15 Ag 0.434270(9) 0.333250(9) 0.53309(2)
Ag23_15 Ag 0.451090(9) 0.282600(9) 0.53496(2)
Ag24_15 Ag 0.418950(9) 0.299820(8) 0.63179(2)
Ag25_15 Ag 0.549370(9) 0.337730(9) 0.30638(2)
Ag26_15 Ag 0.558450(10) 0.367070(9) 0.20778(2)
Ag27_15 Ag 0.506590(9) 0.347650(9) 0.22596(2)
Ag28_15 Ag 0.535040(8) 0.032530(8) 0.502570(19)
Ag29_15 Ag 0.481720(8) 0.023140(8) 0.500950(19)
Ag30_15 Ag 0.512510(8) 0.004750(8) 0.404430(19)
N1_15 N 0.49296(10) 0.44084(10) 0.0358(2)
N2_15 N 0.50252(10) 0.45326(10) 0.0715(2)
N4_15 N 0.72132(10) 0.22696(10) 0.8033(2)
N5_6 N 0.45101(10) 0.49469(11) 0.9343(2)
N6_7 N 0.45555(10) 0.47304(11) 0.9312(2)
N7_15 N 0.62021(8) 0.04826(9) 0.3028(2)
N8_15 N 0.62600(9) 0.02662(9) 0.2999(2)
N10_15 N 0.22931(9) 0.42533(9) 0.9047(2)
N13_15 N 0.72279(9) 0.41172(9) 0.3639(2)
N14_15 N 0.73135(9) 0.42589(9) 0.3983(2)
N17_15 N 0.64345(10) 0.40504(9) 0.4006(2)
N18_15 N 0.65780(9) 0.39688(9) 0.3665(2)
N25_15 N 0.38935(9) 0.46180(9) 0.7868(2)
N26_15 N 0.37521(9) 0.46919(9) 0.8222(2)
N27_15 N 0.31327(9) 0.44471(9) 0.8154(2)
N28_15 N 0.30674(9) 0.42857(8) 0.7839(2)
N29_15 N 0.35408(8) 0.40292(8) 0.6891(2)
N30_15 N 0.37225(9) 0.41525(9) 0.6855(2)
N31_15 N 0.58172(9) 0.17989(9) 0.9648(2)
N32_15 N 0.58756(9) 0.19487(9) 0.9298(2)
N33_15 N 0.64905(9) 0.22044(9) 0.9362(2)
N34_15 N 0.66408(9) 0.21312(9) 0.9701(2)
N37_15 N 0.51794(9) 0.15036(9) 0.8238(2)
N38_15 N 0.50997(9) 0.17106(9) 0.8237(2)
N39_15 N 0.46574(9) 0.19283(8) 0.7218(2)
N40_15 N 0.45845(9) 0.18039(9) 0.6837(2)
N41_15 N 0.48362(9) 0.11862(9) 0.6734(2)
N42_15 N 0.49734(9) 0.11054(9) 0.7085(2)
N43_15 N 0.45404(9) 0.32286(9) 0.4756(2)
N44_15 N 0.46165(9) 0.30197(9) 0.4785(2)
N45_15 N 0.44307(10) 0.26222(9) 0.5918(2)
N46_15 N 0.42984(9) 0.26814(9) 0.6305(2)
N47_15 N 0.40945(9) 0.33206(9) 0.6309(2)
N48_15 N 0.41451(9) 0.34422(9) 0.5897(2)
N49_15 N 0.57889(10) 0.35362(9) 0.3019(2)
N50_15 N 0.58253(10) 0.36601(9) 0.2608(2)
N51_15 N 0.53353(10) 0.37521(9) 0.1593(2)
N52_15 N 0.51216(10) 0.36908(9) 0.1681(2)
N53_15 N 0.50115(9) 0.33043(9) 0.2909(2)
N54_15 N 0.51845(9) 0.32592(9) 0.3212(2)
N55_15 N 0.51624(8) 0.04614(8) 0.5585(2)
N56_15 N 0.49447(8) 0.04146(8) 0.5585(2)
N57_15 N 0.46688(8) 0.00909(8) 0.4399(2)
N58_15 N 0.47908(9) 0.00252(9) 0.4006(2)
N59_15 N 0.54548(9) 0.01105(9) 0.4043(2)
N60_15 N 0.55385(9) 0.02368(8) 0.4418(2)
C1_15 C 0.48511(14) 0.40225(14) 0.0165(3)
C2_15 C 0.49461(12) 0.41998(12) 0.0483(3)
C3_15 C 0.50583(12) 0.41822(12) 0.0931(3)
C4_15 C 0.51043(12) 0.43959(13) 0.1064(3)
C5_15 C 0.52137(14) 0.44819(13) 0.1516(3)
C6_15 C 0.72501(12) 0.25681(14) 0.9182(3)
C7_15 C 0.71897(11) 0.24241(12) 0.8760(3)
C8_15 C 0.69974(11) 0.23017(12) 0.8694(3)
C9_15 C 0.70214(12) 0.22079(12) 0.8222(3)
C10_15 C 0.68746(14) 0.20663(14) 0.7941(3)
C11_15 C 0.42542(14) 0.52104(14) 0.8992(3)
C12_15 C 0.43401(12) 0.49846(13) 0.9043(3)
C13_15 C 0.42745(12) 0.47947(12) 0.8821(3)
C14_15 C 0.44162(12) 0.46365(13) 0.8997(3)
C15_15 C 0.44260(14) 0.44000(13) 0.8897(4)
C16_15 C 0.59256(12) 0.07161(11) 0.3410(3)
C17_15 C 0.60270(10) 0.04979(11) 0.3315(2)
C18_15 C 0.59653(10) 0.02954(10) 0.3483(2)
C19_15 C 0.61147(10) 0.01523(11) 0.3270(2)
C21_15 C 0.28228(13) 0.41503(12) 0.9562(3)
C22_15 C 0.26361(11) 0.42080(11) 0.9244(3)
C23_15 C 0.26266(11) 0.42784(11) 0.8753(3)
C24_15 C 0.24105(10) 0.43041(10) 0.8644(3)
C25_15 C 0.23111(13) 0.43800(12) 0.8172(3)
C31_15 C 0.73236(16) 0.39441(14) 0.2851(3)
C32_15 C 0.73737(12) 0.40914(11) 0.3280(3)
C33_15 C 0.75549(11) 0.42139(10) 0.3378(3)
C34_15 C 0.75120(11) 0.43164(11) 0.3826(3)
C35_15 C 0.76471(14) 0.44655(12) 0.4128(3)
C36_15 C 0.77207(13) 0.46662(12) 0.2907(3)
C37_15 C 0.78077(11) 0.44427(12) 0.2834(3)
C38_15 C 0.77419(11) 0.42466(12) 0.3047(3)
C39_15 C 0.78763(11) 0.40918(11) 0.2827(3)
C40_15 C 0.78894(13) 0.38518(12) 0.2915(3)
C41_15 C 0.60425(14) 0.40591(12) 0.4160(3)
C42_15 C 0.62357(11) 0.39857(11) 0.3875(3)
C43_15 C 0.62479(11) 0.38611(11) 0.3448(3)
C44_15 C 0.64656(11) 0.38570(11) 0.3321(3)
C45_15 C 0.65777(13) 0.37497(12) 0.2900(3)
C56_15 C 0.42668(13) 0.02286(13) 0.2767(3)
C57_15 C 0.41595(11) 0.00639(10) 0.3096(3)
C61_15 C 0.42841(14) 0.45992(12) 0.7704(3)
C62_15 C 0.40961(12) 0.46553(11) 0.8022(3)
C63_15 C 0.40888(12) 0.47532(11) 0.8487(3)
C64_15 C 0.38684(12) 0.47756(12) 0.8600(3)
C65_15 C 0.37614(14) 0.48694(13) 0.9048(3)
C66_15 C 0.30039(13) 0.46331(13) 0.8914(3)
C67_15 C 0.29826(11) 0.44659(11) 0.8512(3)
C68_15 C 0.28162(10) 0.43160(10) 0.8434(2)
C69_15 C 0.28800(11) 0.42090(10) 0.8002(3)
C70_15 C 0.27659(12) 0.40291(11) 0.7730(3)
C71_15 C 0.34174(11) 0.36571(11) 0.6706(3)
C72_15 C 0.35801(11) 0.38293(11) 0.6721(3)
C73_15 C 0.38010(10) 0.38220(10) 0.6577(3)
C74_15 C 0.38798(12) 0.40256(11) 0.6667(3)
C75_15 C 0.41051(12) 0.41145(11) 0.6604(3)
C76_15 C 0.55286(13) 0.15276(12) 0.9792(3)
C77_15 C 0.56378(11) 0.16941(11) 0.9487(3)
C78_15 C 0.55804(12) 0.17783(11) 0.9024(3)
C79_15 C 0.57329(11) 0.19373(11) 0.8919(3)
C80_15 C 0.57588(13) 0.20806(13) 0.8472(3)
C81_15 C 0.64795(13) 0.23854(14) 0.8542(3)
C82_15 C 0.66003(11) 0.22850(11) 0.8973(2)
C83_15 C 0.68201(11) 0.22615(12) 0.9045(3)
C84_15 C 0.68380(11) 0.21636(12) 0.9513(3)
C85_15 C 0.70351(14) 0.21046(12) 0.9804(3)
C91_15 C 0.54839(13) 0.12961(13) 0.8590(4)
C92_15 C 0.53600(11) 0.15004(12) 0.8524(3)
C93_15 C 0.53974(11) 0.17092(12) 0.8703(3)
C94_15 C 0.52299(11) 0.18331(11) 0.8521(3)
C95_15 C 0.51851(13) 0.20713(12) 0.8586(3)
C96_15 C 0.46555(14) 0.23085(12) 0.7491(3)
C97_15 C 0.45935(11) 0.21319(11) 0.7139(3)
C98_15 C 0.44790(11) 0.21419(11) 0.6692(3)
C99_15 C 0.44778(11) 0.19312(11) 0.6513(3)
C100_15 C 0.43748(14) 0.18393(12) 0.6056(3)
C101_15 C 0.46852(12) 0.10893(12) 0.5916(3)
C102_15 C 0.48230(11) 0.10435(10) 0.6360(2)
C103_15 C 0.49566(11) 0.08665(10) 0.6462(3)
C104_15 C 0.50480(11) 0.09119(11) 0.6926(3)
C105_15 C 0.51936(12) 0.07800(11) 0.7242(3)
C106_15 C 0.45766(13) 0.35514(11) 0.4229(3)
C107_15 C 0.46198(11) 0.33185(11) 0.4345(3)
C108_15 C 0.47485(11) 0.31659(11) 0.4101(3)
C109_15 C 0.47407(11) 0.29811(11) 0.4389(3)
C110_15 C 0.48401(12) 0.27640(11) 0.4316(3)
C111_15 C 0.46521(14) 0.23149(13) 0.5638(3)
C112_15 C 0.44987(11) 0.24196(11) 0.6001(3)
C113_15 C 0.44136(11) 0.23448(11) 0.6447(3)
C114_15 C 0.42880(11) 0.25158(11) 0.6623(3)
C115_15 C 0.41520(14) 0.25327(13) 0.7077(3)
C116_15 C 0.38947(13) 0.33511(12) 0.7097(3)
C117_15 C 0.39634(11) 0.34381(11) 0.6595(3)
C118_15 C 0.39254(10) 0.36368(11) 0.6373(3)
C119_15 C 0.40463(11) 0.36321(11) 0.5940(3)
C120_15 C 0.40749(12) 0.38010(11) 0.5542(3)
C121_15 C 0.59396(14) 0.34764(14) 0.3859(4)
C122_15 C 0.59337(11) 0.35893(11) 0.3372(3)
C123_15 C 0.60689(10) 0.37551(11) 0.3187(3)
C124_15 C 0.59916(11) 0.37931(11) 0.2709(3)
C125_15 C 0.60720(13) 0.39508(12) 0.2330(3)
C126_15 C 0.55431(15) 0.40280(13) 0.1143(4)
C127_15 C 0.53347(12) 0.39303(12) 0.1312(3)
C128_15 C 0.51235(12) 0.39874(12) 0.1202(3)
C129_15 C 0.49970(12) 0.38314(11) 0.1436(3)
C130_15 C 0.47526(15) 0.38067(12) 0.1439(3)
C131_15 C 0.46118(14) 0.33030(11) 0.2955(3)
C132_15 C 0.48307(11) 0.32722(11) 0.3176(3)
C133_15 C 0.48857(11) 0.32063(11) 0.3659(3)
C134_15 C 0.51111(10) 0.31980(11) 0.3659(3)
C135_15 C 0.52629(13) 0.31375(12) 0.4064(3)
C136_15 C 0.54151(12) 0.07082(11) 0.6005(3)
C137_15 C 0.51964(10) 0.06225(10) 0.5911(3)
C138_15 C 0.49991(10) 0.06828(10) 0.6120(2)
C139_15 C 0.48438(10) 0.05455(10) 0.5906(2)
C140_15 C 0.46075(12) 0.05272(11) 0.5996(3)
C141_15 C 0.42860(12) 0.01453(11) 0.4638(3)
C142_15 C 0.44601(11) 0.00784(11) 0.4280(3)
C143_15 C 0.44410(10) 0.00028(10) 0.3793(2)
C147_15 C 0.55966(10) 0.01121(10) 0.3662(2)
C148_15 C 0.57771(10) 0.02394(10) 0.3789(2)
C149_15 C 0.57307(11) 0.03151(10) 0.4266(2)
C150_15 C 0.58607(13) 0.04591(11) 0.4594(3)
H2_15 H 0.4966 0.3921 0.0070
H3_15 H 0.4739 0.3946 0.0353
H4_15 H 0.5226 0.4640 0.1491
H5_15 H 0.5129 0.4444 0.1810
H6_15 H 0.5359 0.4418 0.1543
H7_15 H 0.7291 0.2711 0.9054
H8_15 H 0.7126 0.2583 0.9408
H9_15 H 0.7373 0.2505 0.9362
H10_15 H 0.6960 0.1970 0.7728
H11_15 H 0.6788 0.1980 0.8173
H12_15 H 0.6778 0.2155 0.7736
H13_15 H 0.4363 0.5314 0.9112
H14_15 H 0.4222 0.5240 0.8642
H15_15 H 0.4121 0.5225 0.9189
H16_15 H 0.4501 0.4327 0.9171
H17_15 H 0.4279 0.4342 0.8867
H18_15 H 0.4505 0.4374 0.8587
H19_15 H 0.5954 0.0812 0.3127
H20_15 H 0.5769 0.0699 0.3453
H21_15 H 0.5988 0.0779 0.3712
H25_15 H 0.2774 0.4055 0.9830
H26_15 H 0.2932 0.4076 0.9362
H27_15 H 0.2886 0.4282 0.9704
H28_15 H 0.2153 0.4379 0.8204
H29_15 H 0.2361 0.4528 0.8100
H30_15 H 0.2354 0.4283 0.7900
H37_15 H 0.7167 0.3941 0.2795
H38_15 H 0.7374 0.3797 0.2927
H39_15 H 0.7397 0.3997 0.2552
H40_15 H 0.7623 0.4437 0.4482
H41_15 H 0.7607 0.4616 0.4053
H42_15 H 0.7800 0.4443 0.4048
H43_15 H 0.7738 0.4749 0.2599
H44_15 H 0.7800 0.4738 0.3176
H45_15 H 0.7567 0.4658 0.2993
H46_15 H 0.8042 0.3809 0.2946
H47_15 H 0.7823 0.3775 0.2634
H48_15 H 0.7812 0.3815 0.3221
H49_15 H 0.6089 0.4148 0.4442
H50_15 H 0.5963 0.3933 0.4282
H51_15 H 0.5948 0.4145 0.3943
H52_15 H 0.6734 0.3748 0.2963
H53_15 H 0.6549 0.3830 0.2593
H54_15 H 0.6525 0.3601 0.2866
H67_15 H 0.4159 0.0333 0.2651
H68_15 H 0.4332 0.0155 0.2481
H69_15 H 0.4379 0.0305 0.2955
H73_15 H 0.4257 0.4648 0.7363
H74_15 H 0.4414 0.4670 0.7833
H75_15 H 0.4305 0.4442 0.7706
H76_15 H 0.3632 0.4784 0.9130
H77_15 H 0.3863 0.4866 0.9329
H78_15 H 0.3719 0.5019 0.8980
H79_15 H 0.3083 0.4759 0.8786
H80_15 H 0.2859 0.4678 0.9025
H81_15 H 0.3084 0.4571 0.9195
H82_15 H 0.2873 0.3935 0.7572
H83_15 H 0.2679 0.3944 0.7966
H84_15 H 0.2671 0.4091 0.7476
H85_15 H 0.3276 0.3717 0.6797
H86_15 H 0.3410 0.3597 0.6369
H87_15 H 0.3457 0.3543 0.6941
H88_15 H 0.4121 0.4246 0.6805
H89_15 H 0.4211 0.4006 0.6712
H90_15 H 0.4130 0.4150 0.6253
H92_15 H 0.5384 0.1500 0.9658
H93_15 H 0.5614 0.1394 0.9786
H94_15 H 0.5913 0.2106 0.8410
H95_15 H 0.5693 0.2010 0.8182
H96_15 H 0.5687 0.2219 0.8533
H97_15 H 0.6339 0.2440 0.8658
H98_15 H 0.6565 0.2505 0.8405
H99_15 H 0.6456 0.2276 0.8284
H101_15 H 0.7136 0.2024 0.9591
H102_15 H 0.7106 0.2237 0.9924
H109_15 H 0.5481 0.1213 0.8280
H110_15 H 0.5418 0.1211 0.8857
H111_15 H 0.5634 0.1330 0.8675
H112_15 H 0.5030 0.2093 0.8641
H113_15 H 0.5230 0.2150 0.8287
H114_15 H 0.5266 0.2126 0.8873
H115_15 H 0.4795 0.2274 0.7646
H116_15 H 0.4544 0.2322 0.7749
H117_15 H 0.4668 0.2446 0.7309
H118_15 H 0.4313 0.1697 0.6132
H119_15 H 0.4484 0.1824 0.5795
H120_15 H 0.4260 0.1937 0.5942
H121_15 H 0.4679 0.1246 0.5860
H122_15 H 0.4539 0.1033 0.5973
H123_15 H 0.4748 0.1019 0.5623
H124_15 H 0.5154 0.0799 0.7591
H125_15 H 0.5344 0.0827 0.7192
H126_15 H 0.5180 0.0627 0.7151
H127_15 H 0.4430 0.3590 0.4338
H128_15 H 0.4589 0.3575 0.3870
H129_15 H 0.4682 0.3642 0.4403
H130_15 H 0.4732 0.2651 0.4384
H131_15 H 0.4963 0.2747 0.4544
H132_15 H 0.4891 0.2750 0.3973
H133_15 H 0.4758 0.2422 0.5523
H134_15 H 0.4570 0.2259 0.5353
H135_15 H 0.4728 0.2195 0.5801
H136_15 H 0.4017 0.2609 0.6997
H137_15 H 0.4231 0.2613 0.7333
H138_15 H 0.4118 0.2387 0.7200
H139_15 H 0.3935 0.3198 0.7122
H140_15 H 0.3737 0.3366 0.7134
H141_15 H 0.3968 0.3433 0.7360
H142_15 H 0.4056 0.3734 0.5215
H143_15 H 0.4221 0.3863 0.5566
H144_15 H 0.3967 0.3916 0.5586
H145_15 H 0.5874 0.3333 0.3826
H146_15 H 0.6090 0.3461 0.3969
H147_15 H 0.5858 0.3561 0.4105
H148_15 H 0.5950 0.4002 0.2128
H149_15 H 0.6140 0.4074 0.2497
H150_15 H 0.6178 0.3879 0.2115
H151_15 H 0.5651 0.3913 0.1097
H152_15 H 0.5520 0.4104 0.0827
H153_15 H 0.5595 0.4131 0.1393
H154_15 H 0.4707 0.3741 0.1753
H155_15 H 0.4685 0.3950 0.1403
H156_15 H 0.4708 0.3714 0.1162
H157_15 H 0.4607 0.3235 0.2625
H158_15 H 0.4503 0.3236 0.3169
H159_15 H 0.4581 0.3458 0.2923
H160_15 H 0.5396 0.3223 0.4033
H161_15 H 0.5195 0.3167 0.4386
H162_15 H 0.5298 0.2983 0.4039
H163_15 H 0.5505 0.0687 0.5709
H164_15 H 0.5406 0.0863 0.6080
H165_15 H 0.5480 0.0632 0.6287
H166_15 H 0.4563 0.0375 0.5965
H167_15 H 0.4574 0.0579 0.6331
H168_15 H 0.4529 0.0615 0.5751
H169_15 H 0.4336 0.0270 0.4833
H170_15 H 0.4155 0.0185 0.4453
H171_15 H 0.4253 0.0024 0.4861
H174_18 H 0.4760 0.0000 0.2923
H176_15 H 0.5598 0.0079 0.2907
H178_15 H 0.5811 0.0444 0.4938
H179_15 H 0.6014 0.0419 0.4572
H180_15 H 0.5843 0.0610 0.4487
Ag31_7 Ag 0.476069(9) 0.457653(11) 0.98127(2)
Ag33_6 Ag 0.465140(11) 0.512000(9) 0.99177(2)
N61_6 N 0.49019(10) 0.51840(9) 0.0863(2)
N64_6 N 0.66946(9) 0.00690(9) 0.1922(2)
N67_6 N 0.69061(9) 0.45316(9) 0.5012(2)
N68_6 N 0.66858(9) 0.44898(9) 0.5012(2)
H1_15 H 0.4787 0.4086 0.9866
Ag10_15 Ag 0.360210(8) 0.970640(8) 0.34017(2)
N19_15 N 0.33070(9) 0.95543(8) 0.3482(2)
N20_15 N 0.31414(9) 0.96221(9) 0.3182(2)
N21_6 N 0.25794(9) 0.92324(9) 0.4612(2)
N22_6 N 0.26771(9) 0.90369(9) 0.4529(2)
N23_15 N 0.39596(9) 0.99940(9) 0.2994(2)
N24_15 N 0.39029(9) 0.98480(9) 0.3348(2)
C20_14 C 0.61405(12) 0.99123(11) 0.3328(3)
C46_15 C 0.33735(13) 0.93175(12) 0.4202(3)
C47_15 C 0.32271(10) 0.94190(11) 0.3821(2)
C48_15 C 0.30035(10) 0.93945(10) 0.3747(2)
C49_15 C 0.29591(10) 0.95283(10) 0.3336(2)
C50_15 C 0.27515(13) 0.95662(12) 0.3071(3)
C51_15 C 0.26178(14) 0.96141(11) 0.4362(3)
C52_15 C 0.26802(11) 0.93831(11) 0.4335(2)
C53_15 C 0.28473(10) 0.92833(10) 0.4064(2)
C54_15 C 0.28364(10) 0.90655(11) 0.4204(3)
C55_15 C 0.29734(13) 0.88809(12) 0.4037(3)
C58_15 C 0.42373(10) 0.99651(10) 0.3523(2)
C59_15 C 0.40673(11) 0.98292(10) 0.3667(3)
C60_15 C 0.40497(13) 0.96811(12) 0.4105(3)
C144_15 C 0.46522(10) 0.99718(10) 0.3637(2)
C145_15 C 0.47354(13) 0.98819(12) 0.3159(3)
C146_14 C 0.55524(13) 0.99913(12) 0.3191(3)
H22_14 H 0.6292 0.9879 0.3408
H23_14 H 0.6046 0.9861 0.3596
H24_14 H 0.6100 0.9840 0.3017
H55_15 H 0.3476 0.9426 0.4326
H56_15 H 0.3454 0.9198 0.4050
H57_15 H 0.3286 0.9262 0.4479
H58_15 H 0.2775 0.9555 0.2712
H59_15 H 0.2697 0.9711 0.3152
H60_15 H 0.2645 0.9457 0.3175
H61_15 H 0.2460 0.9626 0.4380
H62_15 H 0.2670 0.9690 0.4064
H63_15 H 0.2683 0.9680 0.4658
H64_15 H 0.2885 0.8749 0.4021
H65_15 H 0.3092 0.8860 0.4273
H66_15 H 0.3033 0.8912 0.3708
H70_15 H 0.3980 0.9546 0.4004
H71_15 H 0.3963 0.9751 0.4365
H72_15 H 0.4195 0.9650 0.4234
H172_15 H 0.4872 0.9805 0.3219
H173_15 H 0.4629 0.9781 0.3020
H174_19 H 0.4760 1.0000 0.2923
H175_14 H 0.5397 0.9960 0.3166
H177_14 H 0.5634 0.9855 0.3192
Ag39_6 Ag 0.234880(8) 0.928850(8) 0.514510(19)
Ag40_6 Ag 0.258170(8) 0.877880(9) 0.49793(2)
N10_16 N 0.67533(9) 0.02069(9) 0.1547(2)
C24_16 C 0.68041(10) 0.00895(10) 0.1144(3)
C25_16 C 0.68800(12) 0.01889(13) 0.0672(3)
H28_16 H 0.6879 0.0347 0.0704
H29_16 H 0.7028 0.0139 0.0600
H30_16 H 0.6783 0.0146 0.0400
H61_16 H 0.2126 0.0040 0.6880
Ag14_16 Ag 0.708270(8) 0.906270(9) 0.06574(2)
Ag16_16 Ag 0.424160(9) 0.647860(9) 0.27447(2)
Ag17_16 Ag 0.459610(9) 0.632630(9) 0.18771(2)
Ag18_16 Ag 0.443450(9) 0.596390(8) 0.27822(2)
Ag19_16 Ag 0.379310(8) 0.743980(8) 0.01980(2)
Ag20_16 Ag 0.430030(9) 0.764020(9) 0.02494(2)
N4_16 N 0.47696(10) 0.52868(10) 0.0533(2)
N6_8 N 0.72304(11) 0.79445(10) 0.1812(2)
N12_8 N 0.34218(8) 0.60327(9) 0.4552(2)
N25_16 N 0.71180(9) 0.86065(9) 0.0368(2)
N26_16 N 0.71919(9) 0.87479(9) 0.0722(2)
N27_16 N 0.69471(9) 0.93673(9) 0.0654(2)
N28_16 N 0.67857(8) 0.94326(9) 0.0339(2)
N31_16 N 0.42989(9) 0.66828(9) 0.2148(2)
N32_16 N 0.44487(9) 0.66244(9) 0.1798(2)
N33_16 N 0.47044(9) 0.60095(9) 0.1862(2)
N34_16 N 0.46312(9) 0.58592(9) 0.2201(2)
N35_16 N 0.41956(9) 0.60552(9) 0.3291(2)
N36_16 N 0.41324(9) 0.62653(9) 0.3289(2)
N37_16 N 0.40036(9) 0.73206(9) 0.0738(2)
N38_16 N 0.42106(9) 0.74003(9) 0.0737(2)
C6_16 C 0.50681(14) 0.52499(12) 0.1682(3)
C7_16 C 0.49241(12) 0.53103(11) 0.1260(3)
C8_16 C 0.48017(12) 0.55026(11) 0.1194(3)
C9_16 C 0.47079(12) 0.54786(12) 0.0722(3)
C10_16 C 0.45663(14) 0.56254(14) 0.0441(3)
C11_16 C 0.77104(14) 0.82458(14) 0.1492(3)
C12_16 C 0.74846(13) 0.81599(12) 0.1543(3)
C13_16 C 0.72947(12) 0.82255(12) 0.1321(3)
C14_16 C 0.71365(13) 0.80838(12) 0.1497(3)
C15_16 C 0.69000(13) 0.80740(14) 0.1397(4)
C21_16 C 0.66503(12) 0.96772(13) 0.2062(3)
C22_16 C 0.67080(11) 0.98639(11) 0.1744(3)
C23_16 C 0.67784(11) 0.98734(11) 0.1253(3)
C26_16 C 0.34926(12) 0.57552(13) 0.3385(3)
C27_16 C 0.35168(10) 0.58901(11) 0.3839(2)
C28_16 C 0.36862(10) 0.60245(11) 0.3989(3)
C29_16 C 0.36209(10) 0.61112(10) 0.4444(3)
C30_16 C 0.37348(11) 0.62611(12) 0.4785(3)
C61_16 C 0.70992(12) 0.82159(14) 0.0204(3)
C62_16 C 0.71553(11) 0.84039(12) 0.0522(3)
C63_16 C 0.72532(11) 0.84112(12) 0.0987(3)
C64_16 C 0.72756(12) 0.86316(12) 0.1100(3)
C65_16 C 0.73694(13) 0.87386(14) 0.1548(3)
C66_16 C 0.71331(13) 0.94961(13) 0.1414(3)
C67_16 C 0.69659(11) 0.95174(11) 0.1012(3)
C68_16 C 0.68160(10) 0.96838(10) 0.0934(2)
C69_16 C 0.67090(10) 0.96200(11) 0.0502(3)
C70_16 C 0.65291(11) 0.97341(12) 0.0230(3)
C76_16 C 0.40276(12) 0.69714(13) 0.2292(3)
C77_16 C 0.41941(11) 0.68622(11) 0.1987(3)
C78_16 C 0.42783(11) 0.69196(12) 0.1524(3)
C79_16 C 0.44373(11) 0.67671(11) 0.1419(3)
C80_16 C 0.45806(13) 0.67412(13) 0.0972(3)
C81_16 C 0.48854(14) 0.60205(13) 0.1042(3)
C82_16 C 0.47850(11) 0.58997(11) 0.1473(2)
C83_16 C 0.47615(12) 0.56799(11) 0.1545(3)
C84_16 C 0.46636(12) 0.56620(11) 0.2013(3)
C85_16 C 0.46046(12) 0.54649(14) 0.2304(3)
C86_16 C 0.40734(12) 0.57032(12) 0.3623(3)
C87_16 C 0.40490(11) 0.59387(10) 0.3544(2)
C88_16 C 0.38866(11) 0.60776(10) 0.3710(2)
C89_16 C 0.39457(11) 0.62820(11) 0.3543(3)
C90_16 C 0.38329(12) 0.64956(13) 0.3609(3)
C91_16 C 0.37961(13) 0.70161(13) 0.1090(4)
C92_16 C 0.40004(12) 0.71400(11) 0.1024(3)
C93_16 C 0.42092(12) 0.71026(11) 0.1203(3)
C94_16 C 0.43331(11) 0.72701(11) 0.1021(3)
C95_16 C 0.45713(12) 0.73149(13) 0.1086(3)
H7_16 H 0.5211 0.5209 0.1554
H8_16 H 0.5083 0.5374 0.1908
H9_16 H 0.5005 0.5127 0.1862
H10_16 H 0.4470 0.5540 0.0228
H11_16 H 0.4480 0.5712 0.0673
H12_16 H 0.4655 0.5722 0.0236
H13_16 H 0.7814 0.8137 0.1612
H14_16 H 0.7740 0.8278 0.1142
H15_16 H 0.7725 0.8379 0.1689
H16_16 H 0.6827 0.7999 0.1671
H17_16 H 0.6842 0.8221 0.1367
H18_16 H 0.6874 0.7995 0.1087
H25_16 H 0.6555 0.9726 0.2330
H26_16 H 0.6576 0.9568 0.1862
H27_16 H 0.6782 0.9614 0.2204
H31_16 H 0.3341 0.5756 0.3280
H32_16 H 0.3583 0.5815 0.3119
H33_16 H 0.3538 0.5606 0.3458
H34_16 H 0.3691 0.6230 0.5128
H35_16 H 0.3892 0.6241 0.4752
H36_16 H 0.3697 0.6411 0.4702
H74_16 H 0.7170 0.8086 0.0333
H75_16 H 0.6942 0.8195 0.0206
H76_16 H 0.7284 0.8868 0.1630
H77_16 H 0.7366 0.8637 0.1829
H78_16 H 0.7519 0.8781 0.1480
H79_16 H 0.7259 0.9417 0.1286
H80_16 H 0.7178 0.9641 0.1525
H81_16 H 0.7071 0.9416 0.1695
H82_16 H 0.6435 0.9627 0.0072
H83_16 H 0.6444 0.9821 0.0466
H91_16 H 0.4079 0.6984 0.2635
H92_16 H 0.4000 0.7116 0.2158
H93_16 H 0.3894 0.6886 0.2286
H94_16 H 0.4606 0.6587 0.0910
H95_16 H 0.4510 0.6807 0.0682
H96_16 H 0.4719 0.6813 0.1033
H97_16 H 0.4940 0.6161 0.1158
H98_16 H 0.5005 0.5935 0.0905
H99_16 H 0.4776 0.6044 0.0784
H100_16 H 0.4514 0.5507 0.2588
H101_16 H 0.4524 0.5364 0.2091
H102_16 H 0.4737 0.5394 0.2424
H103_16 H 0.4200 0.5651 0.3439
H104_16 H 0.4093 0.5674 0.3978
H105_16 H 0.3943 0.5628 0.3505
H106_16 H 0.3869 0.6592 0.3332
H107_16 H 0.3676 0.6472 0.3618
H108_16 H 0.3880 0.6562 0.3922
H109_16 H 0.3713 0.7019 0.0780
H110_16 H 0.3711 0.7082 0.1357
H111_16 H 0.3830 0.6866 0.1175
H112_16 H 0.4593 0.7470 0.1141
H113_16 H 0.4650 0.7270 0.0787
H114_16 H 0.4626 0.7234 0.1373
H115_16 H 0.4774 0.7705 0.0146
H116_16 H 0.4822 0.7956 0.0249
H124_16 H 0.3299 0.7346 0.0091
Ag31_8 Ag 0.707653(11) 0.773931(9) 0.23127(2)
Ag34_8 Ag 0.320090(8) 0.614570(8) 0.506640(19)
Ag7_16 Ag 0.653270(8) 0.559460(9) 0.61999(2)
Ag10_16 Ag 0.220640(8) 0.889790(8) 0.59017(2)
Ag13_16 Ag 0.690880(9) 0.871740(8) 0.98307(2)
Ag15_16 Ag 0.666380(8) 0.920740(8) 0.98264(2)
Ag21_16 Ag 0.399050(8) 0.779890(8) 0.92970(2)
Ag22_16 Ag 0.583250(9) 0.815730(9) 0.78309(2)
Ag23_16 Ag 0.532600(9) 0.798910(9) 0.78496(2)
Ag24_16 Ag 0.549820(8) 0.831050(9) 0.88179(2)
Ag25_16 Ag 0.587730(9) 0.700630(9) 0.55638(2)
Ag26_16 Ag 0.617070(9) 0.691550(10) 0.45778(2)
Ag27_16 Ag 0.597650(9) 0.743410(9) 0.47596(2)
Ag28_16 Ag 0.282530(8) 0.714960(8) 0.752570(19)
Ag29_16 Ag 0.273140(8) 0.768280(8) 0.750950(19)
Ag30_16 Ag 0.254750(8) 0.737490(8) 0.654430(19)
N1_16 N 0.69084(10) 0.75704(10) 0.2858(2)
N2_16 N 0.70326(10) 0.74748(10) 0.3215(2)
N7_16 N 0.29826(9) 0.62979(8) 0.5528(2)
N8_16 N 0.27662(9) 0.62400(9) 0.5499(2)
N13_16 N 0.66172(9) 0.52721(9) 0.6139(2)
N14_16 N 0.67589(9) 0.51865(9) 0.6483(2)
N17_16 N 0.65504(9) 0.60655(10) 0.6506(2)
N18_16 N 0.64688(9) 0.59220(9) 0.6165(2)
N19_16 N 0.20543(8) 0.91930(9) 0.5982(2)
N20_16 N 0.21221(9) 0.93586(9) 0.5682(2)
N23_16 N 0.24940(9) 0.85404(9) 0.5494(2)
N24_16 N 0.23480(9) 0.85971(9) 0.5848(2)
N29_16 N 0.65292(8) 0.89592(8) 0.9391(2)
N30_16 N 0.66525(9) 0.87775(9) 0.9355(2)
N39_16 N 0.44283(8) 0.78426(9) 0.9718(2)
N40_16 N 0.43039(9) 0.79155(9) 0.9337(2)
N41_16 N 0.36862(9) 0.76638(9) 0.9234(2)
N42_16 N 0.36054(9) 0.75266(9) 0.9585(2)
N43_16 N 0.57286(9) 0.79596(9) 0.7256(2)
N44_16 N 0.55197(9) 0.78835(9) 0.7285(2)
N45_16 N 0.51222(9) 0.80693(10) 0.8418(2)
N46_16 N 0.51814(9) 0.82016(9) 0.8805(2)
N47_16 N 0.58206(9) 0.84055(9) 0.8809(2)
N48_16 N 0.59422(9) 0.83549(9) 0.8397(2)
N49_16 N 0.60362(9) 0.67111(10) 0.5519(2)
N50_16 N 0.61601(9) 0.66747(10) 0.5108(2)
N51_16 N 0.62521(9) 0.71647(10) 0.4093(2)
N52_16 N 0.61908(9) 0.73784(10) 0.4181(2)
N53_16 N 0.58043(9) 0.74885(9) 0.5409(2)
N54_16 N 0.57592(9) 0.73155(9) 0.5712(2)
N55_16 N 0.29614(8) 0.73376(8) 0.8085(2)
N56_16 N 0.29146(8) 0.75553(8) 0.8085(2)
N57_16 N 0.25909(8) 0.78312(8) 0.6899(2)
N58_16 N 0.25252(9) 0.77092(9) 0.6506(2)
N59_16 N 0.26105(9) 0.70452(9) 0.6543(2)
N60_16 N 0.27368(8) 0.69615(9) 0.6918(2)
C1_16 C 0.65225(14) 0.76489(14) 0.2665(3)
C2_16 C 0.66998(12) 0.75539(12) 0.2983(3)
C3_16 C 0.66822(12) 0.74417(12) 0.3431(3)
C4_16 C 0.68959(13) 0.73957(12) 0.3564(3)
C5_16 C 0.69819(13) 0.72863(14) 0.4016(3)
C16_16 C 0.32161(11) 0.65744(12) 0.5910(3)
C17_16 C 0.29979(11) 0.64730(10) 0.5815(2)
C18_16 C 0.27954(10) 0.65347(10) 0.5983(2)
C19_16 C 0.26523(11) 0.63853(10) 0.5770(2)
C20_15 C 0.24123(11) 0.63595(12) 0.5828(3)
C31_16 C 0.64441(14) 0.51764(16) 0.5351(3)
C32_16 C 0.65914(11) 0.51263(12) 0.5780(3)
C33_16 C 0.67139(10) 0.49451(11) 0.5878(3)
C34_16 C 0.68164(11) 0.49880(11) 0.6326(3)
C35_16 C 0.69655(12) 0.48529(14) 0.6628(3)
C36_16 C 0.71662(12) 0.47793(13) 0.5407(3)
C37_16 C 0.69427(12) 0.46923(11) 0.5334(3)
C38_16 C 0.67466(12) 0.47581(11) 0.5547(3)
C39_16 C 0.65918(11) 0.46237(11) 0.5327(3)
C40_16 C 0.63518(12) 0.46106(13) 0.5415(3)
C41_16 C 0.65591(12) 0.64575(14) 0.6660(3)
C42_16 C 0.64857(11) 0.62643(11) 0.6375(3)
C43_16 C 0.63611(11) 0.62521(11) 0.5948(3)
C44_16 C 0.63570(11) 0.60344(11) 0.5821(3)
C45_16 C 0.62497(12) 0.59223(13) 0.5400(3)
C46_16 C 0.18175(12) 0.91265(13) 0.6702(3)
C47_16 C 0.19190(11) 0.92729(10) 0.6321(2)
C48_16 C 0.18945(10) 0.94965(10) 0.6247(2)
C49_16 C 0.20283(10) 0.95409(10) 0.5836(2)
C50_16 C 0.20662(12) 0.97485(13) 0.5571(3)
C51_16 C 0.21141(11) 0.98822(14) 0.6862(3)
C52_16 C 0.18831(11) 0.98198(11) 0.6835(2)
C53_16 C 0.17833(10) 0.96527(10) 0.6564(2)
C54_16 C 0.15655(11) 0.96636(10) 0.6704(3)
C55_16 C 0.13809(12) 0.95266(13) 0.6537(3)
C56_16 C 0.27286(13) 0.82332(13) 0.5267(3)
C57_16 C 0.25639(10) 0.83405(11) 0.5596(3)
C58_16 C 0.24651(10) 0.82627(10) 0.6023(2)
C59_16 C 0.23292(10) 0.84327(11) 0.6167(3)
C60_16 C 0.21811(12) 0.84503(13) 0.6605(3)
C71_16 C 0.61571(11) 0.90826(11) 0.9206(3)
C72_16 C 0.63293(11) 0.89199(11) 0.9221(3)
C73_16 C 0.63220(10) 0.86990(10) 0.9077(3)
C74_16 C 0.65256(11) 0.86202(12) 0.9167(3)
C75_16 C 0.66145(11) 0.83949(12) 0.9104(3)
C96_16 C 0.48085(12) 0.78445(14) 0.9991(3)
C97_16 C 0.46319(11) 0.79065(11) 0.9639(3)
C98_16 C 0.46419(11) 0.80210(11) 0.9192(3)
C99_16 C 0.44312(11) 0.80222(11) 0.9013(3)
C100_16 C 0.43393(12) 0.81252(14) 0.8556(3)
C101_16 C 0.35893(12) 0.78148(12) 0.8416(3)
C102_16 C 0.35435(10) 0.76770(11) 0.8860(2)
C103_16 C 0.33665(10) 0.75434(11) 0.8962(3)
C104_16 C 0.34119(11) 0.74520(11) 0.9426(3)
C105_16 C 0.32800(11) 0.73064(12) 0.9742(3)
C106_16 C 0.60514(11) 0.79234(13) 0.6729(3)
C107_16 C 0.58185(11) 0.78802(11) 0.6845(3)
C108_16 C 0.56659(11) 0.77515(11) 0.6601(3)
C109_16 C 0.54811(11) 0.77593(11) 0.6889(3)
C110_16 C 0.52640(11) 0.76599(12) 0.6816(3)
C111_16 C 0.48149(13) 0.78479(14) 0.8138(3)
C112_16 C 0.49196(11) 0.80013(11) 0.8501(3)
C113_16 C 0.48448(11) 0.80864(11) 0.8947(3)
C114_16 C 0.50158(11) 0.82120(11) 0.9123(3)
C115_16 C 0.50327(13) 0.83480(14) 0.9577(3)
C116_16 C 0.58511(12) 0.86053(13) 0.9597(3)
C117_16 C 0.59381(11) 0.85366(11) 0.9095(3)
C118_16 C 0.61368(11) 0.85746(10) 0.8873(3)
C119_16 C 0.61321(11) 0.84537(11) 0.8440(3)
C120_16 C 0.63010(11) 0.84251(12) 0.8042(3)
C121_16 C 0.59764(14) 0.65604(14) 0.6359(4)
C122_16 C 0.60893(11) 0.65663(11) 0.5872(3)
C123_16 C 0.62551(11) 0.64311(10) 0.5687(3)
C124_16 C 0.62931(11) 0.65084(11) 0.5209(3)
C125_16 C 0.64508(12) 0.64280(13) 0.4830(3)
C126_16 C 0.65280(13) 0.69569(15) 0.3643(4)
C127_16 C 0.64303(12) 0.71653(12) 0.3812(3)
C128_16 C 0.64874(12) 0.73765(12) 0.3702(3)
C129_16 C 0.63314(11) 0.75030(12) 0.3936(3)
C130_16 C 0.63067(12) 0.77474(15) 0.3939(3)
C131_16 C 0.58030(11) 0.78882(14) 0.5455(3)
C132_16 C 0.57722(11) 0.76693(11) 0.5676(3)
C133_16 C 0.57063(11) 0.76143(11) 0.6159(3)
C134_16 C 0.56980(11) 0.73889(10) 0.6159(3)
C135_16 C 0.56375(12) 0.72371(13) 0.6564(3)
C136_16 C 0.32082(11) 0.70849(12) 0.8505(3)
C137_16 C 0.31225(10) 0.73036(10) 0.8411(3)
C138_16 C 0.31828(10) 0.75009(10) 0.8620(2)
C139_16 C 0.30455(10) 0.76562(10) 0.8406(2)
C140_16 C 0.30272(11) 0.78925(12) 0.8496(3)
C141_16 C 0.26453(11) 0.82140(12) 0.7138(3)
C142_16 C 0.25784(11) 0.80399(11) 0.6780(3)
C143_16 C 0.25028(10) 0.80590(10) 0.6293(2)
C144_16 C 0.24718(10) 0.78478(10) 0.6137(2)
C145_16 C 0.23819(12) 0.77646(13) 0.5659(3)
C146_15 C 0.24913(12) 0.69476(13) 0.5691(3)
C147_16 C 0.26121(10) 0.69034(10) 0.6162(2)
C148_16 C 0.27394(10) 0.67229(10) 0.6289(2)
C149_16 C 0.28151(10) 0.67693(11) 0.6766(2)
C150_16 C 0.29591(11) 0.66393(13) 0.7094(3)
H1_16 H 0.6586 0.7713 0.2366
H2_16 H 0.6421 0.7534 0.2570
H3_16 H 0.6446 0.7761 0.2853
H4_16 H 0.7140 0.7274 0.3991
H5_16 H 0.6944 0.7371 0.4310
H6_16 H 0.6918 0.7141 0.4043
H19_16 H 0.3312 0.6546 0.5627
H20_16 H 0.3199 0.6731 0.5953
H21_16 H 0.3279 0.6512 0.6212
H22_15 H 0.2379 0.6208 0.5908
H23_15 H 0.2361 0.6454 0.6096
H24_15 H 0.2340 0.6400 0.5517
H37_16 H 0.6441 0.5333 0.5295
H38_16 H 0.6297 0.5126 0.5427
H39_16 H 0.6497 0.5103 0.5052
H40_16 H 0.6937 0.4877 0.6982
H41_16 H 0.7116 0.4893 0.6553
H42_16 H 0.6943 0.4700 0.6548
H43_16 H 0.7249 0.4762 0.5099
H44_16 H 0.7238 0.4700 0.5676
H45_16 H 0.7158 0.4933 0.5493
H46_16 H 0.6309 0.4458 0.5446
H47_16 H 0.6275 0.4677 0.5134
H48_16 H 0.6315 0.4688 0.5721
H49_16 H 0.6648 0.6411 0.6942
H50_16 H 0.6433 0.6537 0.6782
H51_16 H 0.6645 0.6552 0.6443
H52_16 H 0.6248 0.5766 0.5463
H53_16 H 0.6330 0.5951 0.5093
H54_16 H 0.6101 0.5975 0.5366
H55_16 H 0.1926 0.9024 0.6826
H56_16 H 0.1698 0.9046 0.6550
H57_16 H 0.1762 0.9214 0.6979
H58_16 H 0.2055 0.9725 0.5212
H59_16 H 0.2211 0.9803 0.5652
H60_16 H 0.1957 0.9855 0.5675
H62_16 H 0.2190 0.9830 0.6564
H63_16 H 0.2180 0.9817 0.7158
H64_16 H 0.1249 0.9615 0.6521
H65_16 H 0.1360 0.9408 0.6773
H66_16 H 0.1412 0.9467 0.6208
H67_16 H 0.2833 0.8341 0.5151
H68_16 H 0.2655 0.8168 0.4981
H69_16 H 0.2805 0.8121 0.5455
H70_16 H 0.2046 0.8520 0.6504
H71_16 H 0.2251 0.8537 0.6865
H72_16 H 0.2150 0.8305 0.6734
H73_16 H 0.7148 0.8243 0.9863
H84_16 H 0.6591 0.9829 0.9976
H85_16 H 0.6217 0.9224 0.9297
H86_16 H 0.6097 0.9090 0.8869
H87_16 H 0.6043 0.9043 0.9441
H88_16 H 0.6746 0.8379 0.9305
H89_16 H 0.6506 0.8289 0.9212
H90_16 H 0.6650 0.8370 0.8753
H117_16 H 0.4946 0.7832 0.9809
H118_16 H 0.4197 0.8187 0.8632
H119_16 H 0.4324 0.8016 0.8295
H120_16 H 0.4437 0.8240 0.8442
H121_16 H 0.3746 0.7821 0.8360
H122_16 H 0.3533 0.7961 0.8473
H123_16 H 0.3519 0.7752 0.8123
H125_16 H 0.3327 0.7156 0.9692
H126_16 H 0.3127 0.7320 0.9651
H127_16 H 0.6090 0.8070 0.6838
H128_16 H 0.6075 0.7911 0.6370
H129_16 H 0.6142 0.7818 0.6903
H130_16 H 0.5151 0.7768 0.6884
H131_16 H 0.5247 0.7537 0.7044
H132_16 H 0.5250 0.7609 0.6473
H133_16 H 0.4922 0.7742 0.8023
H134_16 H 0.4759 0.7930 0.7853
H135_16 H 0.4695 0.7772 0.8301
H136_16 H 0.5109 0.8483 0.9497
H137_16 H 0.5113 0.8269 0.9833
H138_16 H 0.4887 0.8382 0.9700
H139_16 H 0.5698 0.8565 0.9622
H140_16 H 0.5866 0.8763 0.9634
H141_16 H 0.5933 0.8532 0.9860
H142_16 H 0.6234 0.8444 0.7715
H143_16 H 0.6363 0.8279 0.8066
H144_16 H 0.6416 0.8533 0.8086
H145_16 H 0.5833 0.6626 0.6326
H146_16 H 0.5961 0.6410 0.6469
H147_16 H 0.6061 0.6642 0.6605
H148_16 H 0.6502 0.6550 0.4628
H149_16 H 0.6574 0.6360 0.4997
H150_16 H 0.6379 0.6322 0.4615
H151_16 H 0.6413 0.6849 0.3597
H152_16 H 0.6604 0.6980 0.3327
H153_16 H 0.6631 0.6905 0.3893
H154_16 H 0.6241 0.7793 0.4253
H155_16 H 0.6450 0.7815 0.3903
H156_16 H 0.6214 0.7792 0.3662
H157_16 H 0.5735 0.7893 0.5125
H158_16 H 0.5736 0.7997 0.5669
H159_16 H 0.5958 0.7919 0.5423
H160_16 H 0.5723 0.7104 0.6533
H161_16 H 0.5667 0.7305 0.6886
H162_16 H 0.5483 0.7202 0.6539
H163_16 H 0.3187 0.6995 0.8209
H164_16 H 0.3363 0.7094 0.8580
H165_16 H 0.3132 0.7020 0.8787
H166_16 H 0.2875 0.7937 0.8465
H167_16 H 0.3079 0.7926 0.8831
H168_16 H 0.3115 0.7971 0.8251
H169_16 H 0.2770 0.8164 0.7333
H170_16 H 0.2685 0.8345 0.6953
H171_16 H 0.2524 0.8247 0.7361
H172_16 H 0.2305 0.7628 0.5719
H173_16 H 0.2281 0.7871 0.5520
H174_20 H 0.2500 0.7740 0.5423
H175_15 H 0.2460 0.7103 0.5666
H176_16 H 0.2579 0.6902 0.5407
H177_15 H 0.2355 0.6866 0.5692
H178_16 H 0.2944 0.6689 0.7438
H179_16 H 0.2919 0.6486 0.7072
H180_16 H 0.3110 0.6657 0.6987
C20_16 C 0.88595(12) 0.00877(11) 0.8328(3)
C146_16 C 0.94476(13) 0.00087(12) 0.8191(3)
H22_16 H 0.8708 0.0121 0.8408
H23_16 H 0.8954 0.0139 0.8596
H24_16 H 0.8900 0.0160 0.8017
H175_16 H 0.9603 0.0040 0.8166
H177_16 H 0.9366 0.0145 0.8192
loop_
_geom_bond_atom_site_label_1
_geom_bond_atom_site_label_2
_geom_bond_site_symmetry_1
_geom_bond_site_symmetry_2
Ag1 N1 1_555 1_555
Ag2 N2 1_555 1_555
Ag4 N7 1_555 1_555
Ag5 N8 1_555 1_555
Ag7 N13 1_555 1_555
Ag8 N14 1_555 1_555
Ag9 N17 1_555 1_555
Ag10 N19 1_555 1_555
Ag11 N20 1_555 1_555
Ag12 N23 1_555 1_555
Ag21 N40 1_555 1_555
Ag22 N43 1_555 1_555
Ag23 N44 1_555 1_555
Ag24 N46 1_555 1_555
Ag25 N49 1_555 1_555
Ag26 N50 1_555 1_555
Ag27 N52 1_555 1_555
Ag28 N55 1_555 1_555
Ag29 N56 1_555 1_555
Ag30 N58 1_555 1_555
N1 N2 1_555 1_555
N2 C4 1_555 1_555
N7 N8 1_555 1_555
N8 C19 1_555 1_555
N13 N14 1_555 1_555
N17 N18 1_555 1_555
N18 Ag7 1_555 1_555
N19 N20 1_555 1_555
N20 C49 1_555 1_555
N21 N22 1_555 1_555
N22 C54 1_555 1_555
N23 N24 1_555 1_555
N24 Ag10 1_555 1_555
N29 Ag15 1_555 1_555
N30 Ag13 1_555 1_555
N40 N39 1_555 1_555
N41 Ag21 1_555 1_555
N43 N44 1_555 1_555
N44 C109 1_555 1_555
N45 Ag23 1_555 1_555
N46 N45 1_555 1_555
N47 Ag24 1_555 1_555
N48 Ag22 1_555 1_555
N49 N50 1_555 1_555
N50 C124 1_555 1_555
N51 Ag26 1_555 1_555
N52 N51 1_555 1_555
N53 Ag27 1_555 1_555
N54 Ag25 1_555 1_555
N55 N56 1_555 1_555
N56 C139 1_555 1_555
N57 Ag29 1_555 1_555
N58 N57 1_555 1_555
N59 Ag30 1_555 1_555
N60 Ag28 1_555 1_555
C1 C2 1_555 1_555
C2 N1 1_555 1_555
C3 C2 1_555 1_555
C4 C3 1_555 1_555
C5 C4 1_555 1_555
C16 C17 1_555 1_555
C17 N7 1_555 1_555
C18 C17 1_555 1_555
C19 C18 1_555 1_555
C20 C19 1_555 1_555
C31 C32 1_555 1_555
C32 N13 1_555 1_555
C41 C42 1_555 1_555
C42 N17 1_555 1_555
C43 C42 1_555 1_555
C44 N18 1_555 1_555
C45 C44 1_555 1_555
C46 C47 1_555 1_555
C47 N19 1_555 1_555
C48 C47 1_555 1_555
C49 C48 1_555 1_555
C50 C49 1_555 1_555
C51 C52 1_555 1_555
C52 N21 1_555 1_555
C53 C48 1_555 1_555
C54 C53 1_555 1_555
C55 C54 1_555 1_555
C56 C57 1_555 1_555
C57 N23 1_555 1_555
C58 C57 1_555 1_555
C59 N24 1_555 1_555
C60 C59 1_555 1_555
C71 C72 1_555 1_555
C72 N29 1_555 1_555
C73 C72 1_555 1_555
C74 N30 1_555 1_555
C75 C74 1_555 1_555
C96 C97 1_555 1_555
C97 N39 1_555 1_555
C98 C97 1_555 1_555
C99 N40 1_555 1_555
C100 C99 1_555 1_555
C101 C102 1_555 1_555
C102 N41 1_555 1_555
C103 C102 1_555 1_555
C104 N42 1_555 1_555
C105 C104 1_555 1_555
C106 C107 1_555 1_555
C107 N43 1_555 1_555
C108 C107 1_555 1_555
C109 C108 1_555 1_555
C110 C109 1_555 1_555
C111 C112 1_555 1_555
C112 N45 1_555 1_555
C113 C98 1_555 1_555
C114 N46 1_555 1_555
C115 C114 1_555 1_555
C116 C117 1_555 1_555
C117 N47 1_555 1_555
C118 C73 1_555 1_555
C119 N48 1_555 1_555
C120 C119 1_555 1_555
C121 C122 1_555 1_555
C122 N49 1_555 1_555
C123 C43 1_555 1_555
C124 C123 1_555 1_555
C125 C124 1_555 1_555
C126 C127 1_555 1_555
C127 N51 1_555 1_555
C128 C3 1_555 1_555
C129 N52 1_555 1_555
C130 C129 1_555 1_555
C131 C132 1_555 1_555
C132 N53 1_555 1_555
C133 C108 1_555 1_555
C134 N54 1_555 1_555
C135 C134 1_555 1_555
C136 C137 1_555 1_555
C137 N55 1_555 1_555
C138 C103 1_555 1_555
C139 C138 1_555 1_555
C140 C139 1_555 1_555
C141 C142 1_555 1_555
C142 N57 1_555 1_555
C143 C58 1_555 1_555
C144 N58 1_555 1_555
C145 C144 1_555 1_555
C146 C147 1_555 1_555
C147 N59 1_555 1_555
C148 C18 1_555 1_555
C149 N60 1_555 1_555
C150 C149 1_555 1_555
H1 C1 1_555 1_555
H2 C1 1_555 1_555
H3 C1 1_555 1_555
H4 C5 1_555 1_555
H5 C5 1_555 1_555
H6 C5 1_555 1_555
H19 C16 1_555 1_555
H20 C16 1_555 1_555
H21 C16 1_555 1_555
H22 C20 1_555 1_555
H23 C20 1_555 1_555
H24 C20 1_555 1_555
H37 C31 1_555 1_555
H38 C31 1_555 1_555
H39 C31 1_555 1_555
H49 C41 1_555 1_555
H50 C41 1_555 1_555
H51 C41 1_555 1_555
H52 C45 1_555 1_555
H53 C45 1_555 1_555
H54 C45 1_555 1_555
H55 C46 1_555 1_555
H56 C46 1_555 1_555
H57 C46 1_555 1_555
H58 C50 1_555 1_555
H59 C50 1_555 1_555
H60 C50 1_555 1_555
H61 C51 1_555 1_555
H62 C51 1_555 1_555
H63 C51 1_555 1_555
H64 C55 1_555 1_555
H65 C55 1_555 1_555
H66 C55 1_555 1_555
H67 C56 1_555 1_555
H68 C56 1_555 1_555
H69 C56 1_555 1_555
H70 C60 1_555 1_555
H71 C60 1_555 1_555
H72 C60 1_555 1_555
H85 C71 1_555 1_555
H86 C71 1_555 1_555
H87 C71 1_555 1_555
H88 C75 1_555 1_555
H89 C75 1_555 1_555
H90 C75 1_555 1_555
H117 C96 1_555 1_555
H118 C100 1_555 1_555
H119 C100 1_555 1_555
H120 C100 1_555 1_555
H121 C101 1_555 1_555
H122 C101 1_555 1_555
H123 C101 1_555 1_555
H125 C105 1_555 1_555
H126 C105 1_555 1_555
H127 C106 1_555 1_555
H128 C106 1_555 1_555
H129 C106 1_555 1_555
H130 C110 1_555 1_555
H131 C110 1_555 1_555
H132 C110 1_555 1_555
H133 C111 1_555 1_555
H134 C111 1_555 1_555
H135 C111 1_555 1_555
H136 C115 1_555 1_555
H137 C115 1_555 1_555
H138 C115 1_555 1_555
H139 C116 1_555 1_555
H140 C116 1_555 1_555
H141 C116 1_555 1_555
H142 C120 1_555 1_555
H143 C120 1_555 1_555
H144 C120 1_555 1_555
H145 C121 1_555 1_555
H146 C121 1_555 1_555
H147 C121 1_555 1_555
H148 C125 1_555 1_555
H149 C125 1_555 1_555
H150 C125 1_555 1_555
H151 C126 1_555 1_555
H152 C126 1_555 1_555
H153 C126 1_555 1_555
H154 C130 1_555 1_555
H155 C130 1_555 1_555
H156 C130 1_555 1_555
H157 C131 1_555 1_555
H158 C131 1_555 1_555
H159 C131 1_555 1_555
H160 C135 1_555 1_555
H161 C135 1_555 1_555
H162 C135 1_555 1_555
H163 C136 1_555 1_555
H164 C136 1_555 1_555
H165 C136 1_555 1_555
H166 C140 1_555 1_555
H167 C140 1_555 1_555
H168 C140 1_555 1_555
H169 C141 1_555 1_555
H170 C141 1_555 1_555
H171 C141 1_555 1_555
H172 C145 1_555 1_555
H173 C145 1_555 1_555
H174 C145 1_555 1_555
H175 C146 1_555 1_555
H176 C146 1_555 1_555
H177 C146 1_555 1_555
H178 C150 1_555 1_555
H179 C150 1_555 1_555
H180 C150 1_555 1_555
Ag39 N21 1_555 1_555
Ag40 N22 1_555 1_555
N61 Ag2 1_555 1_555
N63 Ag1 1_555 1_555
N64 Ag5 1_555 1_555
N66 Ag4 1_555 1_555
N67 Ag8 1_555 1_555
N68 Ag9 1_555 1_555
N69 Ag11 1_555 1_555
N70 Ag12 1_555 1_555
N29 N30 1_555 1_555
N41 N42 1_555 1_555
N47 N48 1_555 1_555
N53 N54 1_555 1_555
N59 N60 1_555 1_555
C43 C44 1_555 1_555
C52 C53 1_555 1_555
C58 C59 1_555 1_555
C73 C74 1_555 1_555
C98 C99 1_555 1_555
C103 C104 1_555 1_555
C112 C113 1_555 1_555
C113 C114 1_555 1_555
C117 C118 1_555 1_555
C118 C119 1_555 1_555
C122 C123 1_555 1_555
C127 C128 1_555 1_555
C128 C129 1_555 1_555
C132 C133 1_555 1_555
C133 C134 1_555 1_555
C137 C138 1_555 1_555
C142 C143 1_555 1_555
C143 C144 1_555 1_555
C147 C148 1_555 1_555
C148 C149 1_555 1_555
N67 N68 1_555 1_555
N69 N70 1_555 1_555
Ag6 N10 1_555 1_555
Ag14 N26 1_555 1_555
Ag16 N31 1_555 1_555
Ag17 N32 1_555 1_555
Ag18 N34 1_555 1_555
Ag19 N37 1_555 1_555
Ag20 N38 1_555 1_555
N3 N4 1_555 1_555
N4 C9 1_555 1_555
N5 N63 1_555 1_555
N63 C14 1_555 1_555
N9 N10 1_555 1_555
N10 C24 1_555 1_555
N11 N66 1_555 1_555
N66 C29 1_555 1_555
N25 N26 1_555 1_555
N26 C64 1_555 1_555
N27 Ag14 1_555 1_555
N28 N27 1_555 1_555
N31 N32 1_555 1_555
N32 C79 1_555 1_555
N33 Ag17 1_555 1_555
N34 N33 1_555 1_555
N35 Ag18 1_555 1_555
N36 Ag16 1_555 1_555
N37 N38 1_555 1_555
N38 C94 1_555 1_555
C6 C7 1_555 1_555
C7 N3 1_555 1_555
C8 C7 1_555 1_555
C9 C8 1_555 1_555
C10 C9 1_555 1_555
C11 C12 1_555 1_555
C12 N5 1_555 1_555
C13 C12 1_555 1_555
C14 C13 1_555 1_555
C15 C14 1_555 1_555
C21 C22 1_555 1_555
C22 N9 1_555 1_555
C23 C22 1_555 1_555
C24 C23 1_555 1_555
C25 C24 1_555 1_555
C26 C27 1_555 1_555
C27 N11 1_555 1_555
C28 C27 1_555 1_555
C29 C28 1_555 1_555
C30 C29 1_555 1_555
C61 C62 1_555 1_555
C62 N25 1_555 1_555
C63 C13 1_555 1_555
C64 C63 1_555 1_555
C65 C64 1_555 1_555
C66 C67 1_555 1_555
C67 N27 1_555 1_555
C68 C23 1_555 1_555
C69 N28 1_555 1_555
C70 C69 1_555 1_555
C76 C77 1_555 1_555
C77 N31 1_555 1_555
C78 C77 1_555 1_555
C79 C78 1_555 1_555
C80 C79 1_555 1_555
C81 C82 1_555 1_555
C82 N33 1_555 1_555
C83 C8 1_555 1_555
C84 N34 1_555 1_555
C85 C84 1_555 1_555
C86 C87 1_555 1_555
C87 N35 1_555 1_555
C88 C28 1_555 1_555
C89 N36 1_555 1_555
C90 C89 1_555 1_555
C91 C92 1_555 1_555
C92 N37 1_555 1_555
C93 C78 1_555 1_555
C94 C93 1_555 1_555
C95 C94 1_555 1_555
H7 C6 1_555 1_555
H8 C6 1_555 1_555
H9 C6 1_555 1_555
H10 C10 1_555 1_555
H11 C10 1_555 1_555
H12 C10 1_555 1_555
H13 C11 1_555 1_555
H14 C11 1_555 1_555
H15 C11 1_555 1_555
H16 C15 1_555 1_555
H17 C15 1_555 1_555
H18 C15 1_555 1_555
H25 C21 1_555 1_555
H26 C21 1_555 1_555
H27 C21 1_555 1_555
H28 C25 1_555 1_555
H29 C25 1_555 1_555
H30 C25 1_555 1_555
H31 C26 1_555 1_555
H32 C26 1_555 1_555
H33 C26 1_555 1_555
H34 C30 1_555 1_555
H35 C30 1_555 1_555
H36 C30 1_555 1_555
H74 C61 1_555 1_555
H75 C61 1_555 1_555
H76 C65 1_555 1_555
H77 C65 1_555 1_555
H78 C65 1_555 1_555
H79 C66 1_555 1_555
H80 C66 1_555 1_555
H81 C66 1_555 1_555
H82 C70 1_555 1_555
H83 C70 1_555 1_555
H91 C76 1_555 1_555
H92 C76 1_555 1_555
H93 C76 1_555 1_555
H94 C80 1_555 1_555
H95 C80 1_555 1_555
H96 C80 1_555 1_555
H97 C81 1_555 1_555
H98 C81 1_555 1_555
H99 C81 1_555 1_555
H100 C85 1_555 1_555
H101 C85 1_555 1_555
H102 C85 1_555 1_555
H103 C86 1_555 1_555
H104 C86 1_555 1_555
H105 C86 1_555 1_555
H106 C90 1_555 1_555
H107 C90 1_555 1_555
H108 C90 1_555 1_555
H109 C91 1_555 1_555
H110 C91 1_555 1_555
H111 C91 1_555 1_555
H112 C95 1_555 1_555
H113 C95 1_555 1_555
H114 C95 1_555 1_555
Ag33 N5 1_555 1_555
Ag35 N9 1_555 1_555
Ag36 N11 1_555 1_555
N65 Ag6 1_555 1_555
N35 N36 1_555 1_555
C62 C63 1_555 1_555
C67 C68 1_555 1_555
C68 C69 1_555 1_555
C82 C83 1_555 1_555
C83 C84 1_555 1_555
C87 C88 1_555 1_555
C88 C89 1_555 1_555
C92 C93 1_555 1_555
N15 N16 1_555 1_555
N16 C39 1_555 1_555
C34 C33 1_555 1_555
C35 C34 1_555 1_555
C36 C37 1_555 1_555
C37 N15 1_555 1_555
C38 C33 1_555 1_555
C39 C38 1_555 1_555
C40 C39 1_555 1_555
H40 C35 1_555 1_555
H41 C35 1_555 1_555
H42 C35 1_555 1_555
H43 C36 1_555 1_555
H44 C36 1_555 1_555
H45 C36 1_555 1_555
H46 C40 1_555 1_555
H47 C40 1_555 1_555
H48 C40 1_555 1_555
Ag37 N15 1_555 1_555
Ag38 N16 1_555 1_555
C37 C38 1_555 1_555
H13_2 C11_2 1_555 1_555
H14_2 C11_2 1_555 1_555
H15_2 C11_2 1_555 1_555
N63_2 Ag1_2 1_555 1_555
Ag32 N2_2 1_555 1_555
Ag3_2 N4_2 1_555 1_555
Ag4_2 N7_2 1_555 1_555
Ag35 N8_2 1_555 1_555
Ag6_2 N10_2 1_555 1_555
Ag7_2 N13_2 1_555 1_555
Ag37 N14_2 1_555 1_555
Ag38 N17_2 1_555 1_555
Ag10_2 N19_2 1_555 1_555
Ag11_2 N20_2 1_555 1_555
Ag12_2 N23_2 1_555 1_555
Ag13_2 N25_2 1_555 1_555
Ag14_2 N26_2 1_555 1_555
Ag15_2 N28_2 1_555 1_555
Ag17_2 N32_2 1_555 1_555
Ag19_2 N37_2 1_555 1_555
Ag20_2 N38_2 1_555 1_555
Ag21_2 N40_2 1_555 1_555
Ag22_2 N43_2 1_555 1_555
Ag23_2 N44_2 1_555 1_555
Ag24_2 N46_2 1_555 1_555
Ag25_2 N49_2 1_555 1_555
Ag26_2 N50_2 1_555 1_555
Ag27_2 N52_2 1_555 1_555
Ag28_2 N55_2 1_555 1_555
Ag29_2 N56_2 1_555 1_555
Ag30_2 N58_2 1_555 1_555
N1_2 N2_2 1_555 1_555
N2_2 C4_2 1_555 1_555
N3_2 N4_2 1_555 1_555
N4_2 C9_2 1_555 1_555
N62 N63_2 1_555 1_555
N63_2 C14_2 1_555 1_555
N7_2 N8_2 1_555 1_555
N8_2 C19_2 1_555 1_555
N9_2 N10_2 1_555 1_555
N10_2 C24_2 1_555 1_555
N13_2 N14_2 1_555 1_555
N14_2 C34_2 1_555 1_555
N15_2 N16_2 1_555 1_555
N16_2 C39_2 1_555 1_555
N17_2 N18_2 1_555 1_555
N18_2 Ag7_2 1_555 1_555
N19_2 N20_2 1_555 1_555
N20_2 C49_2 1_555 1_555
N70 C54_2 1_555 1_555
N23_2 N24_2 1_555 1_555
N24_2 Ag10_2 1_555 1_555
N25_2 N26_2 1_555 1_555
N26_2 C64_2 1_555 1_555
N27_2 Ag14_2 1_555 1_555
N28_2 N27_2 1_555 1_555
N29_2 Ag15_2 1_555 1_555
N30_2 Ag13_2 1_555 1_555
N31_2 N32_2 1_555 1_555
N32_2 C79_2 1_555 1_555
N33_2 Ag17_2 1_555 1_555
N34_2 N33_2 1_555 1_555
N37_2 N38_2 1_555 1_555
N38_2 C94_2 1_555 1_555
N39_2 Ag20_2 1_555 1_555
N40_2 N39_2 1_555 1_555
N41_2 Ag21_2 1_555 1_555
N42_2 Ag19_2 1_555 1_555
N43_2 N44_2 1_555 1_555
N44_2 C109_2 1_555 1_555
N45_2 Ag23_2 1_555 1_555
N46_2 N45_2 1_555 1_555
N47_2 Ag24_2 1_555 1_555
N48_2 Ag22_2 1_555 1_555
N49_2 N50_2 1_555 1_555
N50_2 C124_2 1_555 1_555
N51_2 Ag26_2 1_555 1_555
N52_2 N51_2 1_555 1_555
N53_2 Ag27_2 1_555 1_555
N54_2 Ag25_2 1_555 1_555
N55_2 N56_2 1_555 1_555
N56_2 C139_2 1_555 1_555
N57_2 Ag29_2 1_555 1_555
N58_2 N57_2 1_555 1_555
N59_2 Ag30_2 1_555 1_555
N60_2 Ag28_2 1_555 1_555
C1_2 C2_2 1_555 1_555
C2_2 N1_2 1_555 1_555
C3_2 C2_2 1_555 1_555
C4_2 C3_2 1_555 1_555
C5_2 C4_2 1_555 1_555
C6_2 C7_2 1_555 1_555
C7_2 N3_2 1_555 1_555
C8_2 C7_2 1_555 1_555
C9_2 C8_2 1_555 1_555
C10_2 C9_2 1_555 1_555
C12_2 N62 1_555 1_555
C13_2 C12_2 1_555 1_555
C14_2 C13_2 1_555 1_555
C15_2 C14_2 1_555 1_555
C16_2 C17_2 1_555 1_555
C17_2 N7_2 1_555 1_555
C18_2 C17_2 1_555 1_555
C19_2 C18_2 1_555 1_555
C20_2 C19_2 1_555 1_555
C21_2 C22_2 1_555 1_555
C22_2 N9_2 1_555 1_555
C23_2 C22_2 1_555 1_555
C24_2 C23_2 1_555 1_555
C25_2 C24_2 1_555 1_555
C31_2 C32_2 1_555 1_555
C32_2 N13_2 1_555 1_555
C33_2 C32_2 1_555 1_555
C34_2 C33_2 1_555 1_555
C35_2 C34_2 1_555 1_555
C36_2 C37_2 1_555 1_555
C37_2 N15_2 1_555 1_555
C38_2 C33_2 1_555 1_555
C39_2 C38_2 1_555 1_555
C40_2 C39_2 1_555 1_555
C41_2 C42_2 1_555 1_555
C42_2 N17_2 1_555 1_555
C43_2 C42_2 1_555 1_555
C44_2 N18_2 1_555 1_555
C45_2 C44_2 1_555 1_555
C46_2 C47_2 1_555 1_555
C47_2 N19_2 1_555 1_555
C48_2 C47_2 1_555 1_555
C49_2 C48_2 1_555 1_555
C50_2 C49_2 1_555 1_555
C51_2 C52_2 1_555 1_555
C52_2 N69 1_555 1_555
C53_2 C48_2 1_555 1_555
C54_2 C53_2 1_555 1_555
C55_2 C54_2 1_555 1_555
C56_2 C57_2 1_555 1_555
C57_2 N23_2 1_555 1_555
C58_2 C57_2 1_555 1_555
C59_2 N24_2 1_555 1_555
C60_2 C59_2 1_555 1_555
C61_2 C62_2 1_555 1_555
C62_2 N25_2 1_555 1_555
C63_2 C13_2 1_555 1_555
C64_2 C63_2 1_555 1_555
C65_2 C64_2 1_555 1_555
C66_2 C67_2 1_555 1_555
C67_2 N27_2 1_555 1_555
C68_2 C23_2 1_555 1_555
C69_2 N28_2 1_555 1_555
C70_2 C69_2 1_555 1_555
C71_2 C72_2 1_555 1_555
C72_2 N29_2 1_555 1_555
C73_2 C72_2 1_555 1_555
C74_2 N30_2 1_555 1_555
C75_2 C74_2 1_555 1_555
C76_2 C77_2 1_555 1_555
C77_2 N31_2 1_555 1_555
C78_2 C77_2 1_555 1_555
C79_2 C78_2 1_555 1_555
C80_2 C79_2 1_555 1_555
C81_2 C82_2 1_555 1_555
C82_2 N33_2 1_555 1_555
C83_2 C8_2 1_555 1_555
C84_2 N34_2 1_555 1_555
C85_2 C84_2 1_555 1_555
C91_2 C92_2 1_555 1_555
C92_2 N37_2 1_555 1_555
C93_2 C78_2 1_555 1_555
C94_2 C93_2 1_555 1_555
C95_2 C94_2 1_555 1_555
C96_2 C97_2 1_555 1_555
C97_2 N39_2 1_555 1_555
C98_2 C97_2 1_555 1_555
C99_2 N40_2 1_555 1_555
C100_2 C99_2 1_555 1_555
C101_2 C102_2 1_555 1_555
C102_2 N41_2 1_555 1_555
C103_2 C102_2 1_555 1_555
C104_2 N42_2 1_555 1_555
C105_2 C104_2 1_555 1_555
C106_2 C107_2 1_555 1_555
C107_2 N43_2 1_555 1_555
C108_2 C107_2 1_555 1_555
C109_2 C108_2 1_555 1_555
C110_2 C109_2 1_555 1_555
C111_2 C112_2 1_555 1_555
C112_2 N45_2 1_555 1_555
C113_2 C98_2 1_555 1_555
C114_2 N46_2 1_555 1_555
C115_2 C114_2 1_555 1_555
C116_2 C117_2 1_555 1_555
C117_2 N47_2 1_555 1_555
C118_2 C73_2 1_555 1_555
C119_2 N48_2 1_555 1_555
C120_2 C119_2 1_555 1_555
C121_2 C122_2 1_555 1_555
C122_2 N49_2 1_555 1_555
C123_2 C43_2 1_555 1_555
C124_2 C123_2 1_555 1_555
C125_2 C124_2 1_555 1_555
C126_2 C127_2 1_555 1_555
C127_2 N51_2 1_555 1_555
C128_2 C3_2 1_555 1_555
C129_2 N52_2 1_555 1_555
C130_2 C129_2 1_555 1_555
C131_2 C132_2 1_555 1_555
C132_2 N53_2 1_555 1_555
C133_2 C108_2 1_555 1_555
C134_2 N54_2 1_555 1_555
C135_2 C134_2 1_555 1_555
C136_2 C137_2 1_555 1_555
C137_2 N55_2 1_555 1_555
C138_2 C103_2 1_555 1_555
C139_2 C138_2 1_555 1_555
C140_2 C139_2 1_555 1_555
C141_2 C142_2 1_555 1_555
C142_2 N57_2 1_555 1_555
C143_2 C58_2 1_555 1_555
C144_2 N58_2 1_555 1_555
C145_2 C144_2 1_555 1_555
C146_2 C147_2 1_555 1_555
C147_2 N59_2 1_555 1_555
C148_2 C18_2 1_555 1_555
C149_2 N60_2 1_555 1_555
C150_2 C149_2 1_555 1_555
H2_2 C1_2 1_555 1_555
H3_2 C1_2 1_555 1_555
H4_2 C5_2 1_555 1_555
H5_2 C5_2 1_555 1_555
H6_2 C5_2 1_555 1_555
H7_2 C6_2 1_555 1_555
H8_2 C6_2 1_555 1_555
H9_2 C6_2 1_555 1_555
H10_2 C10_2 1_555 1_555
H11_2 C10_2 1_555 1_555
H12_2 C10_2 1_555 1_555
H16_2 C15_2 1_555 1_555
H17_2 C15_2 1_555 1_555
H18_2 C15_2 1_555 1_555
H19_2 C16_2 1_555 1_555
H20_2 C16_2 1_555 1_555
H21_2 C16_2 1_555 1_555
H22_2 C20_2 1_555 1_555
H23_2 C20_2 1_555 1_555
H24_2 C20_2 1_555 1_555
H25_2 C21_2 1_555 1_555
H26_2 C21_2 1_555 1_555
H27_2 C21_2 1_555 1_555
H28_2 C25_2 1_555 1_555
H29_2 C25_2 1_555 1_555
H30_2 C25_2 1_555 1_555
H37_2 C31_2 1_555 1_555
H38_2 C31_2 1_555 1_555
H39_2 C31_2 1_555 1_555
H40_2 C35_2 1_555 1_555
H41_2 C35_2 1_555 1_555
H42_2 C35_2 1_555 1_555
H43_2 C36_2 1_555 1_555
H44_2 C36_2 1_555 1_555
H45_2 C36_2 1_555 1_555
H46_2 C40_2 1_555 1_555
H47_2 C40_2 1_555 1_555
H48_2 C40_2 1_555 1_555
H49_2 C41_2 1_555 1_555
H50_2 C41_2 1_555 1_555
H51_2 C41_2 1_555 1_555
H52_2 C45_2 1_555 1_555
H53_2 C45_2 1_555 1_555
H54_2 C45_2 1_555 1_555
H55_2 C46_2 1_555 1_555
H56_2 C46_2 1_555 1_555
H57_2 C46_2 1_555 1_555
H58_2 C50_2 1_555 1_555
H59_2 C50_2 1_555 1_555
H60_2 C50_2 1_555 1_555
H61_2 C51_2 1_555 1_555
H62_2 C51_2 1_555 1_555
H63_2 C51_2 1_555 1_555
H64_2 C55_2 1_555 1_555
H65_2 C55_2 1_555 1_555
H66_2 C55_2 1_555 1_555
H67_2 C56_2 1_555 1_555
H68_2 C56_2 1_555 1_555
H69_2 C56_2 1_555 1_555
H70_2 C60_2 1_555 1_555
H71_2 C60_2 1_555 1_555
H72_2 C60_2 1_555 1_555
H73_2 C61_2 1_555 1_555
H74_2 C61_2 1_555 1_555
H75_2 C61_2 1_555 1_555
H76_2 C65_2 1_555 1_555
H77_2 C65_2 1_555 1_555
H79_2 C66_2 1_555 1_555
H80_2 C66_2 1_555 1_555
H81_2 C66_2 1_555 1_555
H82_2 C70_2 1_555 1_555
H83_2 C70_2 1_555 1_555
H84_2 C70_2 1_555 1_555
H85_2 C71_2 1_555 1_555
H86_2 C71_2 1_555 1_555
H87_2 C71_2 1_555 1_555
H88_2 C75_2 1_555 1_555
H89_2 C75_2 1_555 1_555
H90_2 C75_2 1_555 1_555
H92_2 C76_2 1_555 1_555
H93_2 C76_2 1_555 1_555
H94_2 C80_2 1_555 1_555
H95_2 C80_2 1_555 1_555
H96_2 C80_2 1_555 1_555
H97_2 C81_2 1_555 1_555
H98_2 C81_2 1_555 1_555
H99_2 C81_2 1_555 1_555
H101_2 C85_2 1_555 1_555
H102_2 C85_2 1_555 1_555
H109_2 C91_2 1_555 1_555
H110_2 C91_2 1_555 1_555
H111_2 C91_2 1_555 1_555
H112_2 C95_2 1_555 1_555
H113_2 C95_2 1_555 1_555
H114_2 C95_2 1_555 1_555
H115_2 C96_2 1_555 1_555
H116_2 C96_2 1_555 1_555
H117_2 C96_2 1_555 1_555
H118_2 C100_2 1_555 1_555
H119_2 C100_2 1_555 1_555
H120_2 C100_2 1_555 1_555
H121_2 C101_2 1_555 1_555
H122_2 C101_2 1_555 1_555
H123_2 C101_2 1_555 1_555
H124_2 C105_2 1_555 1_555
H125_2 C105_2 1_555 1_555
H126_2 C105_2 1_555 1_555
H127_2 C106_2 1_555 1_555
H128_2 C106_2 1_555 1_555
H129_2 C106_2 1_555 1_555
H130_2 C110_2 1_555 1_555
H131_2 C110_2 1_555 1_555
H132_2 C110_2 1_555 1_555
H133_2 C111_2 1_555 1_555
H134_2 C111_2 1_555 1_555
H135_2 C111_2 1_555 1_555
H136_2 C115_2 1_555 1_555
H137_2 C115_2 1_555 1_555
H138_2 C115_2 1_555 1_555
H139_2 C116_2 1_555 1_555
H140_2 C116_2 1_555 1_555
H141_2 C116_2 1_555 1_555
H142_2 C120_2 1_555 1_555
H143_2 C120_2 1_555 1_555
H144_2 C120_2 1_555 1_555
H145_2 C121_2 1_555 1_555
H146_2 C121_2 1_555 1_555
H147_2 C121_2 1_555 1_555
H148_2 C125_2 1_555 1_555
H149_2 C125_2 1_555 1_555
H150_2 C125_2 1_555 1_555
H151_2 C126_2 1_555 1_555
H152_2 C126_2 1_555 1_555
H153_2 C126_2 1_555 1_555
H154_2 C130_2 1_555 1_555
H155_2 C130_2 1_555 1_555
H156_2 C130_2 1_555 1_555
H157_2 C131_2 1_555 1_555
H158_2 C131_2 1_555 1_555
H159_2 C131_2 1_555 1_555
H160_2 C135_2 1_555 1_555
H161_2 C135_2 1_555 1_555
H162_2 C135_2 1_555 1_555
H163_2 C136_2 1_555 1_555
H164_2 C136_2 1_555 1_555
H165_2 C136_2 1_555 1_555
H166_2 C140_2 1_555 1_555
H167_2 C140_2 1_555 1_555
H168_2 C140_2 1_555 1_555
H169_2 C141_2 1_555 1_555
H170_2 C141_2 1_555 1_555
H171_2 C141_2 1_555 1_555
H172_2 C145_2 1_555 1_555
H173_2 C145_2 1_555 1_555
H174_2 C145_2 1_555 1_555
H175_2 C146_2 1_555 1_555
H176_2 C146_2 1_555 1_555
H177_2 C146_2 1_555 1_555
H178_2 C150_2 1_555 1_555
H179_2 C150_2 1_555 1_555
H180_2 C150_2 1_555 1_555
Ag32_2 N3_2 1_555 1_555
Ag35_2 N9_2 1_555 1_555
Ag37_2 N15_2 1_555 1_555
Ag38_2 N16_2 1_555 1_555
N62_2 Ag3_2 1_555 1_555
N65_2 Ag6_2 1_555 1_555
N66_2 Ag4_2 1_555 1_555
N69_2 Ag11_2 1_555 1_555
N70_2 Ag12_2 1_555 1_555
N29_2 N30_2 1_555 1_555
N41_2 N42_2 1_555 1_555
N47_2 N48_2 1_555 1_555
N53_2 N54_2 1_555 1_555
N59_2 N60_2 1_555 1_555
C37_2 C38_2 1_555 1_555
C43_2 C44_2 1_555 1_555
C52_2 C53_2 1_555 1_555
C58_2 C59_2 1_555 1_555
C62_2 C63_2 1_555 1_555
C67_2 C68_2 1_555 1_555
C68_2 C69_2 1_555 1_555
C73_2 C74_2 1_555 1_555
C82_2 C83_2 1_555 1_555
C83_2 C84_2 1_555 1_555
C92_2 C93_2 1_555 1_555
C98_2 C99_2 1_555 1_555
C103_2 C104_2 1_555 1_555
C112_2 C113_2 1_555 1_555
C113_2 C114_2 1_555 1_555
C117_2 C118_2 1_555 1_555
C118_2 C119_2 1_555 1_555
C122_2 C123_2 1_555 1_555
C127_2 C128_2 1_555 1_555
C128_2 C129_2 1_555 1_555
C132_2 C133_2 1_555 1_555
C133_2 C134_2 1_555 1_555
C137_2 C138_2 1_555 1_555
C142_2 C143_2 1_555 1_555
C143_2 C144_2 1_555 1_555
C147_2 C148_2 1_555 1_555
C148_2 C149_2 1_555 1_555
N69_2 N70_2 1_555 1_555
N65 N66_2 1_555 1_555
N66_2 C29_2 1_555 1_555
N35_2 Ag18_2 1_555 1_555
N36_2 Ag16_2 1_555 1_555
C26_2 C27_2 1_555 1_555
C27_2 N65 1_555 1_555
C28_2 C27_2 1_555 1_555
C29_2 C28_2 1_555 1_555
C30_2 C29_2 1_555 1_555
C86_2 C87_2 1_555 1_555
C87_2 N35_2 1_555 1_555
C88_2 C28_2 1_555 1_555
C89_2 N36_2 1_555 1_555
C90_2 C89_2 1_555 1_555
H31_2 C26_2 1_555 1_555
H32_2 C26_2 1_555 1_555
H33_2 C26_2 1_555 1_555
H34_2 C30_2 1_555 1_555
H35_2 C30_2 1_555 1_555
H36_2 C30_2 1_555 1_555
H103_2 C86_2 1_555 1_555
H104_2 C86_2 1_555 1_555
H105_2 C86_2 1_555 1_555
H106_2 C90_2 1_555 1_555
H107_2 C90_2 1_555 1_555
H108_2 C90_2 1_555 1_555
N35_2 N36_2 1_555 1_555
C87_2 C88_2 1_555 1_555
C88_2 C89_2 1_555 1_555
N70_3 Ag12_3 1_555 1_555
N69_3 N70_3 1_555 1_555
Ag3_3 N4_3 1_555 1_555
Ag4_3 N7_3 1_555 1_555
Ag10_3 N19_3 1_555 1_555
Ag11_3 N20_3 1_555 1_555
Ag16_3 N31_3 1_555 1_555
Ag17_3 N32_3 1_555 1_555
Ag18_3 N34_3 1_555 1_555
Ag19_3 N37_3 1_555 1_555
Ag20_3 N38_3 1_555 1_555
Ag21_3 N40_3 1_555 1_555
Ag28_3 N55_3 1_555 1_555
Ag29_3 N56_3 1_555 1_555
Ag30_3 N58_3 1_555 1_555
N3_3 N4_3 1_555 1_555
N4_3 C9_3 1_555 1_555
N7_3 N8_3 1_555 1_555
N8_3 C19_3 1_555 1_555
N65_2 N66_3 1_555 1_555
N66_3 C29_3 1_555 1_555
N19_3 N20_3 1_555 1_555
N20_3 C49_3 1_555 1_555
N70_2 C54_3 1_555 1_555
N23_3 N24_3 1_555 1_555
N24_3 Ag10_3 1_555 1_555
N31_3 N32_3 1_555 1_555
N32_3 C79_3 1_555 1_555
N33_3 Ag17_3 1_555 1_555
N34_3 N33_3 1_555 1_555
N35_3 Ag18_3 1_555 1_555
N36_3 Ag16_3 1_555 1_555
N37_3 N38_3 1_555 1_555
N38_3 C94_3 1_555 1_555
N39_3 Ag20_3 1_555 1_555
N40_3 N39_3 1_555 1_555
N41_3 Ag21_3 1_555 1_555
N42_3 Ag19_3 1_555 1_555
N55_3 N56_3 1_555 1_555
N56_3 C139_3 1_555 1_555
N57_3 Ag29_3 1_555 1_555
N58_3 N57_3 1_555 1_555
N59_3 Ag30_3 1_555 1_555
N60_3 Ag28_3 1_555 1_555
C7_3 N3_3 1_555 1_555
C8_3 C7_3 1_555 1_555
C9_3 C8_3 1_555 1_555
C10_3 C9_3 1_555 1_555
C16_3 C17_3 1_555 1_555
C17_3 N7_3 1_555 1_555
C18_3 C17_3 1_555 1_555
C19_3 C18_3 1_555 1_555
C20_3 C19_3 1_555 1_555
C26_3 C27_3 1_555 1_555
C27_3 N65_2 1_555 1_555
C28_3 C27_3 1_555 1_555
C29_3 C28_3 1_555 1_555
C30_3 C29_3 1_555 1_555
C46_3 C47_3 1_555 1_555
C47_3 N19_3 1_555 1_555
C48_3 C47_3 1_555 1_555
C49_3 C48_3 1_555 1_555
C50_3 C49_3 1_555 1_555
C51_3 C52_3 1_555 1_555
C52_3 N69_2 1_555 1_555
C53_3 C48_3 1_555 1_555
C54_3 C53_3 1_555 1_555
C55_3 C54_3 1_555 1_555
C56_3 C57_3 1_555 1_555
C57_3 N23_3 1_555 1_555
C58_3 C57_3 1_555 1_555
C59_3 N24_3 1_555 1_555
C60_3 C59_3 1_555 1_555
C76_3 C77_3 1_555 1_555
C77_3 N31_3 1_555 1_555
C78_3 C77_3 1_555 1_555
C79_3 C78_3 1_555 1_555
C80_3 C79_3 1_555 1_555
C81_3 C82_3 1_555 1_555
C82_3 N33_3 1_555 1_555
C83_3 C8_3 1_555 1_555
C84_3 N34_3 1_555 1_555
C85_3 C84_3 1_555 1_555
C86_3 C87_3 1_555 1_555
C87_3 N35_3 1_555 1_555
C88_3 C28_3 1_555 1_555
C89_3 N36_3 1_555 1_555
C90_3 C89_3 1_555 1_555
C91_3 C92_3 1_555 1_555
C92_3 N37_3 1_555 1_555
C93_3 C78_3 1_555 1_555
C94_3 C93_3 1_555 1_555
C95_3 C94_3 1_555 1_555
C96_3 C97_3 1_555 1_555
C97_3 N39_3 1_555 1_555
C98_3 C97_3 1_555 1_555
C99_3 N40_3 1_555 1_555
C100_3 C99_3 1_555 1_555
C101_3 C102_3 1_555 1_555
C102_3 N41_3 1_555 1_555
C103_3 C102_3 1_555 1_555
C104_3 N42_3 1_555 1_555
C105_3 C104_3 1_555 1_555
C111_3 C112_3 1_555 1_555
C113_3 C98_3 1_555 1_555
C136_3 C137_3 1_555 1_555
C137_3 N55_3 1_555 1_555
C138_3 C103_3 1_555 1_555
C139_3 C138_3 1_555 1_555
C140_3 C139_3 1_555 1_555
C141_3 C142_3 1_555 1_555
C142_3 N57_3 1_555 1_555
C143_3 C58_3 1_555 1_555
C144_3 N58_3 1_555 1_555
C145_3 C144_3 1_555 1_555
C146_3 C147_3 1_555 1_555
C147_3 N59_3 1_555 1_555
C148_3 C18_3 1_555 1_555
C149_3 N60_3 1_555 1_555
C150_3 C149_3 1_555 1_555
H10_3 C10_3 1_555 1_555
H11_3 C10_3 1_555 1_555
H12_3 C10_3 1_555 1_555
H19_3 C16_3 1_555 1_555
H20_3 C16_3 1_555 1_555
H21_3 C16_3 1_555 1_555
H22_3 C20_3 1_555 1_555
H23_3 C20_3 1_555 1_555
H24_3 C20_3 1_555 1_555
H31_3 C26_3 1_555 1_555
H32_3 C26_3 1_555 1_555
H33_3 C26_3 1_555 1_555
H35_3 C30_3 1_555 1_555
H36_3 C30_3 1_555 1_555
H55_3 C46_3 1_555 1_555
H56_3 C46_3 1_555 1_555
H57_3 C46_3 1_555 1_555
H58_3 C50_3 1_555 1_555
H59_3 C50_3 1_555 1_555
H60_3 C50_3 1_555 1_555
H61_3 C51_3 1_555 1_555
H62_3 C51_3 1_555 1_555
H63_3 C51_3 1_555 1_555
H64_3 C55_3 1_555 1_555
H65_3 C55_3 1_555 1_555
H66_3 C55_3 1_555 1_555
H67_3 C56_3 1_555 1_555
H69_3 C56_3 1_555 1_555
H70_3 C60_3 1_555 1_555
H71_3 C60_3 1_555 1_555
H72_3 C60_3 1_555 1_555
H91_3 C76_3 1_555 1_555
H92_3 C76_3 1_555 1_555
H93_3 C76_3 1_555 1_555
H94_3 C80_3 1_555 1_555
H95_3 C80_3 1_555 1_555
H96_3 C80_3 1_555 1_555
H97_3 C81_3 1_555 1_555
H99_3 C81_3 1_555 1_555
H100_3 C85_3 1_555 1_555
H101_3 C85_3 1_555 1_555
H102_3 C85_3 1_555 1_555
H103_3 C86_3 1_555 1_555
H104_3 C86_3 1_555 1_555
H105_3 C86_3 1_555 1_555
H106_3 C90_3 1_555 1_555
H107_3 C90_3 1_555 1_555
H108_3 C90_3 1_555 1_555
H109_3 C91_3 1_555 1_555
H110_3 C91_3 1_555 1_555
H111_3 C91_3 1_555 1_555
H112_3 C95_3 1_555 1_555
H113_3 C95_3 1_555 1_555
H114_3 C95_3 1_555 1_555
H115_3 C96_3 1_555 1_555
H116_3 C96_3 1_555 1_555
H117_3 C96_3 1_555 1_555
H118_3 C100_3 1_555 1_555
H119_3 C100_3 1_555 1_555
H120_3 C100_3 1_555 1_555
H121_3 C101_3 1_555 1_555
H122_3 C101_3 1_555 1_555
H123_3 C101_3 1_555 1_555
H124_3 C105_3 1_555 1_555
H125_3 C105_3 1_555 1_555
H126_3 C105_3 1_555 1_555
H133_3 C111_3 1_555 1_555
H134_3 C111_3 1_555 1_555
H135_3 C111_3 1_555 1_555
H163_3 C136_3 1_555 1_555
H164_3 C136_3 1_555 1_555
H165_3 C136_3 1_555 1_555
H166_3 C140_3 1_555 1_555
H167_3 C140_3 1_555 1_555
H168_3 C140_3 1_555 1_555
H169_3 C141_3 1_555 1_555
H170_3 C141_3 1_555 1_555
H171_3 C141_3 1_555 1_555
H172_3 C145_3 1_555 1_555
H173_3 C145_3 1_555 1_555
H174_3 C145_3 1_555 1_555
H175_3 C146_3 1_555 1_555
H176_3 C146_3 1_555 1_555
H177_3 C146_3 1_555 1_555
H178_3 C150_3 1_555 1_555
H179_3 C150_3 1_555 1_555
H180_3 C150_3 1_555 1_555
N35_3 N36_3 1_555 1_555
N41_3 N42_3 1_555 1_555
N59_3 N60_3 1_555 1_555
C52_3 C53_3 1_555 1_555
C58_3 C59_3 1_555 1_555
C82_3 C83_3 1_555 1_555
C83_3 C84_3 1_555 1_555
C87_3 C88_3 1_555 1_555
C88_3 C89_3 1_555 1_555
C92_3 C93_3 1_555 1_555
C98_3 C99_3 1_555 1_555
C103_3 C104_3 1_555 1_555
C112_3 C113_3 1_555 1_555
C137_3 C138_3 1_555 1_555
C142_3 C143_3 1_555 1_555
C143_3 C144_3 1_555 1_555
C147_3 C148_3 1_555 1_555
C148_3 C149_3 1_555 1_555
N15_3 N16_3 1_555 1_555
N16_3 C39_3 1_555 1_555
C34_3 C33_3 1_555 1_555
C35_3 C34_3 1_555 1_555
C36_3 C37_3 1_555 1_555
C37_3 N15_3 1_555 1_555
C38_3 C33_3 1_555 1_555
C39_3 C38_3 1_555 1_555
C40_3 C39_3 1_555 1_555
H40_3 C35_3 1_555 1_555
H41_3 C35_3 1_555 1_555
H42_3 C35_3 1_555 1_555
H43_3 C36_3 1_555 1_555
H44_3 C36_3 1_555 1_555
H45_3 C36_3 1_555 1_555
H46_3 C40_3 1_555 1_555
H47_3 C40_3 1_555 1_555
H48_3 C40_3 1_555 1_555
C37_3 C38_3 1_555 1_555
Ag1_3 N1_3 1_555 1_555
Ag32_2 N2_3 1_555 1_555
Ag27_3 N52_3 1_555 1_555
N1_3 N2_3 1_555 1_555
N2_3 C4_3 1_555 1_555
N51_3 Ag26_3 1_555 1_555
N52_3 N51_3 1_555 1_555
C1_3 C2_3 1_555 1_555
C2_3 N1_3 1_555 1_555
C3_3 C2_3 1_555 1_555
C4_3 C3_3 1_555 1_555
C5_3 C4_3 1_555 1_555
C126_3 C127_3 1_555 1_555
C127_3 N51_3 1_555 1_555
C128_3 C3_3 1_555 1_555
C129_3 N52_3 1_555 1_555
C130_3 C129_3 1_555 1_555
H1_3 C1_3 1_555 1_555
H2_3 C1_3 1_555 1_555
H3_3 C1_3 1_555 1_555
H4_3 C5_3 1_555 1_555
H5_3 C5_3 1_555 1_555
H6_3 C5_3 1_555 1_555
H148_3 C125_3 1_555 1_555
H149_3 C125_3 1_555 1_555
H150_3 C125_3 1_555 1_555
H151_3 C126_3 1_555 1_555
H152_3 C126_3 1_555 1_555
H153_3 C126_3 1_555 1_555
H154_3 C130_3 1_555 1_555
H155_3 C130_3 1_555 1_555
H156_3 C130_3 1_555 1_555
N63_3 Ag1_3 1_555 1_555
C127_3 C128_3 1_555 1_555
C128_3 C129_3 1_555 1_555
Ag6_3 N10_3 1_555 1_555
Ag7_3 N13_3 1_555 1_555
Ag37_2 N14_3 1_555 1_555
Ag38_2 N17_3 1_555 1_555
Ag13_3 N25_3 1_555 1_555
Ag14_3 N26_3 1_555 1_555
Ag15_3 N28_3 1_555 1_555
Ag22_3 N43_3 1_555 1_555
Ag23_3 N44_3 1_555 1_555
Ag24_3 N46_3 1_555 1_555
Ag25_3 N49_3 1_555 1_555
N62_2 N63_3 1_555 1_555
N63_3 C14_3 1_555 1_555
N9_3 N10_3 1_555 1_555
N10_3 C24_3 1_555 1_555
N13_3 N14_3 1_555 1_555
N17_3 N18_3 1_555 1_555
N18_3 Ag7_3 1_555 1_555
N25_3 N26_3 1_555 1_555
N26_3 C64_3 1_555 1_555
N27_3 Ag14_3 1_555 1_555
N28_3 N27_3 1_555 1_555
N29_3 Ag15_3 1_555 1_555
N30_3 Ag13_3 1_555 1_555
N43_3 N44_3 1_555 1_555
N44_3 C109_3 1_555 1_555
N45_3 Ag23_3 1_555 1_555
N46_3 N45_3 1_555 1_555
N47_3 Ag24_3 1_555 1_555
N48_3 Ag22_3 1_555 1_555
N49_3 N50_3 1_555 1_555
N50_3 C124_3 1_555 1_555
N54_3 Ag25_3 1_555 1_555
C11_3 C12_3 1_555 1_555
C12_3 N62_2 1_555 1_555
C13_3 C12_3 1_555 1_555
C14_3 C13_3 1_555 1_555
C15_3 C14_3 1_555 1_555
C21_3 C22_3 1_555 1_555
C22_3 N9_3 1_555 1_555
C23_3 C22_3 1_555 1_555
C24_3 C23_3 1_555 1_555
C25_3 C24_3 1_555 1_555
C31_3 C32_3 1_555 1_555
C32_3 N13_3 1_555 1_555
C41_3 C42_3 1_555 1_555
C42_3 N17_3 1_555 1_555
C43_3 C42_3 1_555 1_555
C44_3 N18_3 1_555 1_555
C45_3 C44_3 1_555 1_555
C61_3 C62_3 1_555 1_555
C62_3 N25_3 1_555 1_555
C63_3 C13_3 1_555 1_555
C64_3 C63_3 1_555 1_555
C65_3 C64_3 1_555 1_555
C66_3 C67_3 1_555 1_555
C67_3 N27_3 1_555 1_555
C68_3 C23_3 1_555 1_555
C69_3 N28_3 1_555 1_555
C70_3 C69_3 1_555 1_555
C71_3 C72_3 1_555 1_555
C72_3 N29_3 1_555 1_555
C73_3 C72_3 1_555 1_555
C74_3 N30_3 1_555 1_555
C75_3 C74_3 1_555 1_555
C106_3 C107_3 1_555 1_555
C107_3 N43_3 1_555 1_555
C108_3 C107_3 1_555 1_555
C109_3 C108_3 1_555 1_555
C110_3 C109_3 1_555 1_555
C114_3 N46_3 1_555 1_555
C115_3 C114_3 1_555 1_555
C116_3 C117_3 1_555 1_555
C117_3 N47_3 1_555 1_555
C118_3 C73_3 1_555 1_555
C119_3 N48_3 1_555 1_555
C120_3 C119_3 1_555 1_555
C121_3 C122_3 1_555 1_555
C122_3 N49_3 1_555 1_555
C123_3 C43_3 1_555 1_555
C124_3 C123_3 1_555 1_555
C131_3 C132_3 1_555 1_555
C132_3 N53_3 1_555 1_555
C133_3 C108_3 1_555 1_555
C134_3 N54_3 1_555 1_555
C135_3 C134_3 1_555 1_555
H7_3 C6_3 1_555 1_555
H8_3 C6_3 1_555 1_555
H9_3 C6_3 1_555 1_555
H13_3 C11_3 1_555 1_555
H14_3 C11_3 1_555 1_555
H15_3 C11_3 1_555 1_555
H16_3 C15_3 1_555 1_555
H17_3 C15_3 1_555 1_555
H18_3 C15_3 1_555 1_555
H25_3 C21_3 1_555 1_555
H26_3 C21_3 1_555 1_555
H27_3 C21_3 1_555 1_555
H28_3 C25_3 1_555 1_555
H29_3 C25_3 1_555 1_555
H30_3 C25_3 1_555 1_555
H37_3 C31_3 1_555 1_555
H38_3 C31_3 1_555 1_555
H39_3 C31_3 1_555 1_555
H49_3 C41_3 1_555 1_555
H50_3 C41_3 1_555 1_555
H51_3 C41_3 1_555 1_555
H52_3 C45_3 1_555 1_555
H53_3 C45_3 1_555 1_555
H54_3 C45_3 1_555 1_555
H73_3 C61_3 1_555 1_555
H74_3 C61_3 1_555 1_555
H75_3 C61_3 1_555 1_555
H76_3 C65_3 1_555 1_555
H77_3 C65_3 1_555 1_555
H78_3 C65_3 1_555 1_555
H79_3 C66_3 1_555 1_555
H80_3 C66_3 1_555 1_555
H81_3 C66_3 1_555 1_555
H82_3 C70_3 1_555 1_555
H83_3 C70_3 1_555 1_555
H84_3 C70_3 1_555 1_555
H85_3 C71_3 1_555 1_555
H86_3 C71_3 1_555 1_555
H87_3 C71_3 1_555 1_555
H88_3 C75_3 1_555 1_555
H89_3 C75_3 1_555 1_555
H90_3 C75_3 1_555 1_555
H127_3 C106_3 1_555 1_555
H128_3 C106_3 1_555 1_555
H129_3 C106_3 1_555 1_555
H130_3 C110_3 1_555 1_555
H131_3 C110_3 1_555 1_555
H132_3 C110_3 1_555 1_555
H136_3 C115_3 1_555 1_555
H137_3 C115_3 1_555 1_555
H139_3 C116_3 1_555 1_555
H140_3 C116_3 1_555 1_555
H141_3 C116_3 1_555 1_555
H142_3 C120_3 1_555 1_555
H143_3 C120_3 1_555 1_555
H144_3 C120_3 1_555 1_555
H145_3 C121_3 1_555 1_555
H146_3 C121_3 1_555 1_555
H147_3 C121_3 1_555 1_555
H157_3 C131_3 1_555 1_555
H158_3 C131_3 1_555 1_555
H159_3 C131_3 1_555 1_555
H160_3 C135_3 1_555 1_555
H161_3 C135_3 1_555 1_555
H162_3 C135_3 1_555 1_555
Ag35_3 N9_3 1_555 1_555
N65_3 Ag6_3 1_555 1_555
N29_3 N30_3 1_555 1_555
N47_3 N48_3 1_555 1_555
N53_3 N54_3 1_555 1_555
C43_3 C44_3 1_555 1_555
C62_3 C63_3 1_555 1_555
C67_3 C68_3 1_555 1_555
C68_3 C69_3 1_555 1_555
C73_3 C74_3 1_555 1_555
C117_3 C118_3 1_555 1_555
C118_3 C119_3 1_555 1_555
C122_3 C123_3 1_555 1_555
C132_3 C133_3 1_555 1_555
C133_3 C134_3 1_555 1_555
Ag1_4 N1_4 1_555 1_555
Ag10_4 N19_4 1_555 1_555
Ag39 N20_4 1_555 1_555
Ag40 N23_4 1_555 1_555
N19_4 N20_4 1_555 1_555
N20_4 C49_4 1_555 1_555
N70_3 C54_4 1_555 1_555
N23_4 N24_4 1_555 1_555
N24_4 Ag10_4 1_555 1_555
N43_4 N44_4 1_555 1_555
N44_4 C109_4 1_555 1_555
N58_4 N57_4 1_555 1_555
C1_4 C2_4 1_555 1_555
C2_4 N1_4 1_555 1_555
C46_4 C47_4 1_555 1_555
C47_4 N19_4 1_555 1_555
C48_4 C47_4 1_555 1_555
C49_4 C48_4 1_555 1_555
C50_4 C49_4 1_555 1_555
C51_4 C52_4 1_555 1_555
C52_4 N69_3 1_555 1_555
C53_4 C48_4 1_555 1_555
C54_4 C53_4 1_555 1_555
C55_4 C54_4 1_555 1_555
C56_4 C57_4 1_555 1_555
C57_4 N23_4 1_555 1_555
C58_4 C57_4 1_555 1_555
C59_4 N24_4 1_555 1_555
C60_4 C59_4 1_555 1_555
C106_4 C107_4 1_555 1_555
C107_4 N43_4 1_555 1_555
C108_4 C107_4 1_555 1_555
C109_4 C108_4 1_555 1_555
C110_4 C109_4 1_555 1_555
C130_4 C129_4 1_555 1_555
C131_4 C132_4 1_555 1_555
C133_4 C108_4 1_555 1_555
C141_4 C142_4 1_555 1_555
C142_4 N57_4 1_555 1_555
C143_4 C58_4 1_555 1_555
C144_4 N58_4 1_555 1_555
C145_4 C144_4 1_555 1_555
H1_4 C1_4 1_555 1_555
H2_4 C1_4 1_555 1_555
H3_4 C1_4 1_555 1_555
H55_4 C46_4 1_555 1_555
H56_4 C46_4 1_555 1_555
H57_4 C46_4 1_555 1_555
H58_4 C50_4 1_555 1_555
H59_4 C50_4 1_555 1_555
H60_4 C50_4 1_555 1_555
H61_4 C51_4 1_555 1_555
H62_4 C51_4 1_555 1_555
H63_4 C51_4 1_555 1_555
H64_4 C55_4 1_555 1_555
H65_4 C55_4 1_555 1_555
H66_4 C55_4 1_555 1_555
H67_4 C56_4 1_555 1_555
H68_4 C56_4 1_555 1_555
H69_4 C56_4 1_555 1_555
H70_4 C60_4 1_555 1_555
H71_4 C60_4 1_555 1_555
H72_4 C60_4 1_555 1_555
H127_4 C106_4 1_555 1_555
H128_4 C106_4 1_555 1_555
H129_4 C106_4 1_555 1_555
H130_4 C110_4 1_555 1_555
H131_4 C110_4 1_555 1_555
H132_4 C110_4 1_555 1_555
H154_4 C130_4 1_555 1_555
H155_4 C130_4 1_555 1_555
H156_4 C130_4 1_555 1_555
H157_4 C131_4 1_555 1_555
H158_4 C131_4 1_555 1_555
H159_4 C131_4 1_555 1_555
H169_4 C141_4 1_555 1_555
H170_4 C141_4 1_555 1_555
H171_4 C141_4 1_555 1_555
H172_4 C145_4 1_555 1_555
H173_4 C145_4 1_555 1_555
H174_4 C145_4 1_555 1_555
N63_4 Ag1_4 1_555 1_555
C52_4 C53_4 1_555 1_555
C58_4 C59_4 1_555 1_555
C132_4 C133_4 1_555 1_555
C142_4 C143_4 1_555 1_555
C143_4 C144_4 1_555 1_555
Ag36 N10_4 1_555 1_555
Ag13_4 N25_4 1_555 1_555
Ag14_4 N26_4 1_555 1_555
Ag15_4 N28_4 1_555 1_555
Ag21_4 N40_4 1_555 1_555
Ag24_4 N46_4 1_555 1_555
Ag29_4 N56_4 1_555 1_555
N62_3 N63_4 1_555 1_555
N63_4 C14_4 1_555 1_555
N64 N10_4 1_555 1_555
N10_4 C24_4 1_555 1_555
N25_4 N26_4 1_555 1_555
N26_4 C64_4 1_555 1_555
N27_4 Ag14_4 1_555 1_555
N28_4 N27_4 1_555 1_555
N29_4 Ag15_4 1_555 1_555
N30_4 Ag13_4 1_555 1_555
N39_4 Ag20_4 1_555 1_555
N40_4 N39_4 1_555 1_555
N41_4 Ag21_4 1_555 1_555
N45_4 Ag23_4 1_555 1_555
N46_4 N45_4 1_555 1_555
N47_4 Ag24_4 1_555 1_555
N48_4 Ag22_4 1_555 1_555
N56_4 C139_4 1_555 1_555
C12_4 N62_3 1_555 1_555
C13_4 C12_4 1_555 1_555
C14_4 C13_4 1_555 1_555
C15_4 C14_4 1_555 1_555
C21_4 C22_4 1_555 1_555
C22_4 N64 1_555 1_555
C23_4 C22_4 1_555 1_555
C24_4 C23_4 1_555 1_555
C25_4 C24_4 1_555 1_555
C61_4 C62_4 1_555 1_555
C62_4 N25_4 1_555 1_555
C63_4 C13_4 1_555 1_555
C64_4 C63_4 1_555 1_555
C65_4 C64_4 1_555 1_555
C66_4 C67_4 1_555 1_555
C67_4 N27_4 1_555 1_555
C68_4 C23_4 1_555 1_555
C69_4 N28_4 1_555 1_555
C70_4 C69_4 1_555 1_555
C71_4 C72_4 1_555 1_555
C72_4 N29_4 1_555 1_555
C73_4 C72_4 1_555 1_555
C74_4 N30_4 1_555 1_555
C75_4 C74_4 1_555 1_555
C96_4 C97_4 1_555 1_555
C97_4 N39_4 1_555 1_555
C98_4 C97_4 1_555 1_555
C99_4 N40_4 1_555 1_555
C100_4 C99_4 1_555 1_555
C101_4 C102_4 1_555 1_555
C102_4 N41_4 1_555 1_555
C103_4 C102_4 1_555 1_555
C111_4 C112_4 1_555 1_555
C112_4 N45_4 1_555 1_555
C113_4 C98_4 1_555 1_555
C114_4 N46_4 1_555 1_555
C115_4 C114_4 1_555 1_555
C116_4 C117_4 1_555 1_555
C117_4 N47_4 1_555 1_555
C118_4 C73_4 1_555 1_555
C119_4 N48_4 1_555 1_555
C120_4 C119_4 1_555 1_555
C138_4 C103_4 1_555 1_555
C139_4 C138_4 1_555 1_555
C140_4 C139_4 1_555 1_555
H16_4 C15_4 1_555 1_555
H17_4 C15_4 1_555 1_555
H18_4 C15_4 1_555 1_555
H25_4 C21_4 1_555 1_555
H26_4 C21_4 1_555 1_555
H27_4 C21_4 1_555 1_555
H28_4 C25_4 1_555 1_555
H29_4 C25_4 1_555 1_555
H30_4 C25_4 1_555 1_555
H73_4 C61_4 1_555 1_555
H74_4 C61_4 1_555 1_555
H75_4 C61_4 1_555 1_555
H76_4 C65_4 1_555 1_555
H77_4 C65_4 1_555 1_555
H79_4 C66_4 1_555 1_555
H80_4 C66_4 1_555 1_555
H81_4 C66_4 1_555 1_555
H82_4 C70_4 1_555 1_555
H83_4 C70_4 1_555 1_555
H84_4 C70_4 1_555 1_555
H85_4 C71_4 1_555 1_555
H86_4 C71_4 1_555 1_555
H87_4 C71_4 1_555 1_555
H88_4 C75_4 1_555 1_555
H89_4 C75_4 1_555 1_555
H90_4 C75_4 1_555 1_555
H115_4 C96_4 1_555 1_555
H116_4 C96_4 1_555 1_555
H117_4 C96_4 1_555 1_555
H118_4 C100_4 1_555 1_555
H119_4 C100_4 1_555 1_555
H120_4 C100_4 1_555 1_555
H121_4 C101_4 1_555 1_555
H122_4 C101_4 1_555 1_555
H123_4 C101_4 1_555 1_555
H133_4 C111_4 1_555 1_555
H134_4 C111_4 1_555 1_555
H135_4 C111_4 1_555 1_555
H136_4 C115_4 1_555 1_555
H137_4 C115_4 1_555 1_555
H138_4 C115_4 1_555 1_555
H139_4 C116_4 1_555 1_555
H140_4 C116_4 1_555 1_555
H141_4 C116_4 1_555 1_555
H142_4 C120_4 1_555 1_555
H143_4 C120_4 1_555 1_555
H144_4 C120_4 1_555 1_555
H166_4 C140_4 1_555 1_555
H167_4 C140_4 1_555 1_555
H168_4 C140_4 1_555 1_555
N29_4 N30_4 1_555 1_555
N41_4 N42_4 1_555 1_555
N47_4 N48_4 1_555 1_555
C62_4 C63_4 1_555 1_555
C67_4 C68_4 1_555 1_555
C68_4 C69_4 1_555 1_555
C73_4 C74_4 1_555 1_555
C98_4 C99_4 1_555 1_555
C112_4 C113_4 1_555 1_555
C113_4 C114_4 1_555 1_555
C117_4 C118_4 1_555 1_555
C118_4 C119_4 1_555 1_555
H13_4 C11_4 1_555 1_555
H14_4 C11_4 1_555 1_555
H15_4 C11_4 1_555 1_555
Ag4_4 N7_4 1_555 1_555
Ag35_3 N8_4 1_555 1_555
Ag7_4 N13_4 1_555 1_555
Ag37_3 N14_4 1_555 1_555
Ag38_3 N17_4 1_555 1_555
Ag25_4 N49_4 1_555 1_555
Ag26_4 N50_4 1_555 1_555
Ag27_4 N52_4 1_555 1_555
N2_4 C4_4 1_555 1_555
N7_4 N8_4 1_555 1_555
N8_4 C19_4 1_555 1_555
N13_4 N14_4 1_555 1_555
N14_4 C34_4 1_555 1_555
N68 C39_4 1_555 1_555
N17_4 N18_4 1_555 1_555
N18_4 Ag7_4 1_555 1_555
N49_4 N50_4 1_555 1_555
N50_4 C124_4 1_555 1_555
N51_4 Ag26_4 1_555 1_555
N52_4 N51_4 1_555 1_555
N53_4 Ag27_4 1_555 1_555
N54_4 Ag25_4 1_555 1_555
N59_4 Ag30_4 1_555 1_555
C4_4 C3_4 1_555 1_555
C5_4 C4_4 1_555 1_555
C16_4 C17_4 1_555 1_555
C17_4 N7_4 1_555 1_555
C18_4 C17_4 1_555 1_555
C19_4 C18_4 1_555 1_555
C20_4 C19_4 1_555 1_555
C31_4 C32_4 1_555 1_555
C32_4 N13_4 1_555 1_555
C33_4 C32_4 1_555 1_555
C34_4 C33_4 1_555 1_555
C35_4 C34_4 1_555 1_555
C36_4 C37_4 1_555 1_555
C37_4 N67 1_555 1_555
C38_4 C33_4 1_555 1_555
C39_4 C38_4 1_555 1_555
C40_4 C39_4 1_555 1_555
C41_4 C42_4 1_555 1_555
C42_4 N17_4 1_555 1_555
C43_4 C42_4 1_555 1_555
C44_4 N18_4 1_555 1_555
C45_4 C44_4 1_555 1_555
C121_4 C122_4 1_555 1_555
C122_4 N49_4 1_555 1_555
C123_4 C43_4 1_555 1_555
C124_4 C123_4 1_555 1_555
C125_4 C124_4 1_555 1_555
C126_4 C127_4 1_555 1_555
C127_4 N51_4 1_555 1_555
C128_4 C3_4 1_555 1_555
C134_4 N54_4 1_555 1_555
C135_4 C134_4 1_555 1_555
C146_4 C147_4 1_555 1_555
C147_4 N59_4 1_555 1_555
C148_4 C18_4 1_555 1_555
C149_4 N60_4 1_555 1_555
C150_4 C149_4 1_555 1_555
H4_4 C5_4 1_555 1_555
H5_4 C5_4 1_555 1_555
H6_4 C5_4 1_555 1_555
H19_4 C16_4 1_555 1_555
H20_4 C16_4 1_555 1_555
H21_4 C16_4 1_555 1_555
H22_4 C20_4 1_555 1_555
H23_4 C20_4 1_555 1_555
H24_4 C20_4 1_555 1_555
H37_4 C31_4 1_555 1_555
H38_4 C31_4 1_555 1_555
H39_4 C31_4 1_555 1_555
H40_4 C35_4 1_555 1_555
H41_4 C35_4 1_555 1_555
H42_4 C35_4 1_555 1_555
H43_4 C36_4 1_555 1_555
H44_4 C36_4 1_555 1_555
H45_4 C36_4 1_555 1_555
H46_4 C40_4 1_555 1_555
H47_4 C40_4 1_555 1_555
H48_4 C40_4 1_555 1_555
H49_4 C41_4 1_555 1_555
H50_4 C41_4 1_555 1_555
H51_4 C41_4 1_555 1_555
H52_4 C45_4 1_555 1_555
H53_4 C45_4 1_555 1_555
H54_4 C45_4 1_555 1_555
H145_4 C121_4 1_555 1_555
H146_4 C121_4 1_555 1_555
H147_4 C121_4 1_555 1_555
H148_4 C125_4 1_555 1_555
H149_4 C125_4 1_555 1_555
H150_4 C125_4 1_555 1_555
H151_4 C126_4 1_555 1_555
H152_4 C126_4 1_555 1_555
H153_4 C126_4 1_555 1_555
H160_4 C135_4 1_555 1_555
H161_4 C135_4 1_555 1_555
H162_4 C135_4 1_555 1_555
H175_4 C146_4 1_555 1_555
H176_4 C146_4 1_555 1_555
H177_4 C146_4 1_555 1_555
H178_4 C150_4 1_555 1_555
H179_4 C150_4 1_555 1_555
H180_4 C150_4 1_555 1_555
N66_4 Ag4_4 1_555 1_555
N53_4 N54_4 1_555 1_555
N59_4 N60_4 1_555 1_555
C37_4 C38_4 1_555 1_555
C43_4 C44_4 1_555 1_555
C122_4 C123_4 1_555 1_555
C127_4 C128_4 1_555 1_555
C147_4 C148_4 1_555 1_555
C148_4 C149_4 1_555 1_555
Ag33 N4_4 1_555 1_555
Ag16_4 N31_4 1_555 1_555
Ag17_4 N32_4 1_555 1_555
Ag18_4 N34_4 1_555 1_555
Ag19_4 N37_4 1_555 1_555
Ag28_4 N55_4 1_555 1_555
N61 N4_4 1_555 1_555
N4_4 C9_4 1_555 1_555
N65_3 N66_4 1_555 1_555
N66_4 C29_4 1_555 1_555
N31_4 N32_4 1_555 1_555
N32_4 C79_4 1_555 1_555
N33_4 Ag17_4 1_555 1_555
N34_4 N33_4 1_555 1_555
N35_4 Ag18_4 1_555 1_555
N36_4 Ag16_4 1_555 1_555
N37_4 N38_4 1_555 1_555
N38_4 C94_4 1_555 1_555
C6_4 C7_4 1_555 1_555
C7_4 N61 1_555 1_555
C8_4 C7_4 1_555 1_555
C9_4 C8_4 1_555 1_555
C10_4 C9_4 1_555 1_555
C26_4 C27_4 1_555 1_555
C27_4 N65_3 1_555 1_555
C28_4 C27_4 1_555 1_555
C29_4 C28_4 1_555 1_555
C30_4 C29_4 1_555 1_555
C76_4 C77_4 1_555 1_555
C77_4 N31_4 1_555 1_555
C78_4 C77_4 1_555 1_555
C79_4 C78_4 1_555 1_555
C80_4 C79_4 1_555 1_555
C81_4 C82_4 1_555 1_555
C82_4 N33_4 1_555 1_555
C83_4 C8_4 1_555 1_555
C84_4 N34_4 1_555 1_555
C85_4 C84_4 1_555 1_555
C86_4 C87_4 1_555 1_555
C87_4 N35_4 1_555 1_555
C88_4 C28_4 1_555 1_555
C89_4 N36_4 1_555 1_555
C90_4 C89_4 1_555 1_555
C91_4 C92_4 1_555 1_555
C92_4 N37_4 1_555 1_555
C93_4 C78_4 1_555 1_555
C94_4 C93_4 1_555 1_555
C95_4 C94_4 1_555 1_555
C105_4 C104_4 1_555 1_555
C136_4 C137_4 1_555 1_555
C137_4 N55_4 1_555 1_555
H7_4 C6_4 1_555 1_555
H8_4 C6_4 1_555 1_555
H9_4 C6_4 1_555 1_555
H10_4 C10_4 1_555 1_555
H11_4 C10_4 1_555 1_555
H12_4 C10_4 1_555 1_555
H31_4 C26_4 1_555 1_555
H32_4 C26_4 1_555 1_555
H33_4 C26_4 1_555 1_555
H34_4 C30_4 1_555 1_555
H35_4 C30_4 1_555 1_555
H36_4 C30_4 1_555 1_555
H91_4 C76_4 1_555 1_555
H92_4 C76_4 1_555 1_555
H93_4 C76_4 1_555 1_555
H94_4 C80_4 1_555 1_555
H95_4 C80_4 1_555 1_555
H96_4 C80_4 1_555 1_555
H97_4 C81_4 1_555 1_555
H98_4 C81_4 1_555 1_555
H99_4 C81_4 1_555 1_555
H100_4 C85_4 1_555 1_555
H101_4 C85_4 1_555 1_555
H102_4 C85_4 1_555 1_555
H103_4 C86_4 1_555 1_555
H104_4 C86_4 1_555 1_555
H105_4 C86_4 1_555 1_555
H106_4 C90_4 1_555 1_555
H107_4 C90_4 1_555 1_555
H108_4 C90_4 1_555 1_555
H109_4 C91_4 1_555 1_555
H110_4 C91_4 1_555 1_555
H111_4 C91_4 1_555 1_555
H112_4 C95_4 1_555 1_555
H113_4 C95_4 1_555 1_555
H114_4 C95_4 1_555 1_555
H124_4 C105_4 1_555 1_555
H125_4 C105_4 1_555 1_555
H126_4 C105_4 1_555 1_555
H163_4 C136_4 1_555 1_555
H164_4 C136_4 1_555 1_555
H165_4 C136_4 1_555 1_555
N35_4 N36_4 1_555 1_555
C82_4 C83_4 1_555 1_555
C83_4 C84_4 1_555 1_555
C87_4 C88_4 1_555 1_555
C88_4 C89_4 1_555 1_555
C92_4 C93_4 1_555 1_555
Ag6_4 N10_5 1_555 1_555
N9_4 N10_5 1_555 1_555
N10_5 C24_5 1_555 1_555
C25_5 C24_5 1_555 1_555
H28_5 C25_5 1_555 1_555
H29_5 C25_5 1_555 1_555
H30_5 C25_5 1_555 1_555
Ag35_4 N9_4 1_555 1_555
N65_4 Ag6_4 1_555 1_555
Ag1_5 N1_5 1_555 1_555
Ag2_2 N2_5 1_555 1_555
Ag27_5 N52_5 1_555 1_555
N1_5 N2_5 1_555 1_555
N2_5 C4_5 1_555 1_555
N51_5 Ag26_5 1_555 1_555
N52_5 N51_5 1_555 1_555
C1_5 C2_5 1_555 1_555
C2_5 N1_5 1_555 1_555
C3_5 C2_5 1_555 1_555
C4_5 C3_5 1_555 1_555
C5_5 C4_5 1_555 1_555
C126_5 C127_5 1_555 1_555
C127_5 N51_5 1_555 1_555
C128_5 C3_5 1_555 1_555
C129_5 N52_5 1_555 1_555
C130_5 C129_5 1_555 1_555
H1_5 C1_5 1_555 1_555
H2_5 C1_5 1_555 1_555
H3_5 C1_5 1_555 1_555
H4_5 C5_5 1_555 1_555
H5_5 C5_5 1_555 1_555
H6_5 C5_5 1_555 1_555
H148_5 C125_5 1_555 1_555
H149_5 C125_5 1_555 1_555
H150_5 C125_5 1_555 1_555
H151_5 C126_5 1_555 1_555
H152_5 C126_5 1_555 1_555
H153_5 C126_5 1_555 1_555
H154_5 C130_5 1_555 1_555
H155_5 C130_5 1_555 1_555
H156_5 C130_5 1_555 1_555
N61_2 Ag2_2 1_555 1_555
N63_5 Ag1_5 1_555 1_555
C127_5 C128_5 1_555 1_555
C128_5 C129_5 1_555 1_555
Ag7_5 N13_5 1_555 1_555
Ag8_2 N14_5 1_555 1_555
Ag9_2 N17_5 1_555 1_555
Ag13_5 N25_5 1_555 1_555
Ag14_5 N26_5 1_555 1_555
Ag15_5 N28_5 1_555 1_555
Ag22_5 N43_5 1_555 1_555
Ag23_5 N44_5 1_555 1_555
Ag24_5 N46_5 1_555 1_555
Ag25_5 N49_5 1_555 1_555
N5_2 N63_5 1_555 1_555
N63_5 C14_5 1_555 1_555
N13_5 N14_5 1_555 1_555
N14_5 C34_5 1_555 1_555
N15_4 N16_4 1_555 1_555
N16_4 C39_5 1_555 1_555
N17_5 N18_5 1_555 1_555
N18_5 Ag7_5 1_555 1_555
N25_5 N26_5 1_555 1_555
N26_5 C64_5 1_555 1_555
N27_5 Ag14_5 1_555 1_555
N28_5 N27_5 1_555 1_555
N29_5 Ag15_5 1_555 1_555
N30_5 Ag13_5 1_555 1_555
N43_5 N44_5 1_555 1_555
N44_5 C109_5 1_555 1_555
N45_5 Ag23_5 1_555 1_555
N46_5 N45_5 1_555 1_555
N47_5 Ag24_5 1_555 1_555
N48_5 Ag22_5 1_555 1_555
N49_5 N50_5 1_555 1_555
N50_5 C124_5 1_555 1_555
N54_5 Ag25_5 1_555 1_555
C11_5 C12_5 1_555 1_555
C12_5 N5_2 1_555 1_555
C13_5 C12_5 1_555 1_555
C14_5 C13_5 1_555 1_555
C15_5 C14_5 1_555 1_555
C21_5 C22_5 1_555 1_555
C23_5 C22_5 1_555 1_555
C31_5 C32_5 1_555 1_555
C32_5 N13_5 1_555 1_555
C33_5 C32_5 1_555 1_555
C34_5 C33_5 1_555 1_555
C35_5 C34_5 1_555 1_555
C36_5 C37_5 1_555 1_555
C37_5 N15_4 1_555 1_555
C38_5 C33_5 1_555 1_555
C39_5 C38_5 1_555 1_555
C40_5 C39_5 1_555 1_555
C41_5 C42_5 1_555 1_555
C42_5 N17_5 1_555 1_555
C43_5 C42_5 1_555 1_555
C44_5 N18_5 1_555 1_555
C45_5 C44_5 1_555 1_555
C61_5 C62_5 1_555 1_555
C62_5 N25_5 1_555 1_555
C63_5 C13_5 1_555 1_555
C64_5 C63_5 1_555 1_555
C65_5 C64_5 1_555 1_555
C66_5 C67_5 1_555 1_555
C67_5 N27_5 1_555 1_555
C68_5 C23_5 1_555 1_555
C69_5 N28_5 1_555 1_555
C70_5 C69_5 1_555 1_555
C71_5 C72_5 1_555 1_555
C72_5 N29_5 1_555 1_555
C73_5 C72_5 1_555 1_555
C74_5 N30_5 1_555 1_555
C75_5 C74_5 1_555 1_555
C106_5 C107_5 1_555 1_555
C107_5 N43_5 1_555 1_555
C108_5 C107_5 1_555 1_555
C109_5 C108_5 1_555 1_555
C110_5 C109_5 1_555 1_555
C114_5 N46_5 1_555 1_555
C115_5 C114_5 1_555 1_555
C116_5 C117_5 1_555 1_555
C117_5 N47_5 1_555 1_555
C118_5 C73_5 1_555 1_555
C119_5 N48_5 1_555 1_555
C120_5 C119_5 1_555 1_555
C121_5 C122_5 1_555 1_555
C122_5 N49_5 1_555 1_555
C123_5 C43_5 1_555 1_555
C124_5 C123_5 1_555 1_555
C131_5 C132_5 1_555 1_555
C132_5 N53_5 1_555 1_555
C133_5 C108_5 1_555 1_555
C134_5 N54_5 1_555 1_555
C135_5 C134_5 1_555 1_555
H7_5 C6_5 1_555 1_555
H8_5 C6_5 1_555 1_555
H9_5 C6_5 1_555 1_555
H13_5 C11_5 1_555 1_555
H14_5 C11_5 1_555 1_555
H15_5 C11_5 1_555 1_555
H16_5 C15_5 1_555 1_555
H17_5 C15_5 1_555 1_555
H18_5 C15_5 1_555 1_555
H25_5 C21_5 1_555 1_555
H26_5 C21_5 1_555 1_555
H27_5 C21_5 1_555 1_555
H37_5 C31_5 1_555 1_555
H38_5 C31_5 1_555 1_555
H39_5 C31_5 1_555 1_555
H40_5 C35_5 1_555 1_555
H41_5 C35_5 1_555 1_555
H42_5 C35_5 1_555 1_555
H43_5 C36_5 1_555 1_555
H44_5 C36_5 1_555 1_555
H45_5 C36_5 1_555 1_555
H46_5 C40_5 1_555 1_555
H47_5 C40_5 1_555 1_555
H48_5 C40_5 1_555 1_555
H49_5 C41_5 1_555 1_555
H50_5 C41_5 1_555 1_555
H51_5 C41_5 1_555 1_555
H52_5 C45_5 1_555 1_555
H53_5 C45_5 1_555 1_555
H54_5 C45_5 1_555 1_555
H73_5 C61_5 1_555 1_555
H74_5 C61_5 1_555 1_555
H75_5 C61_5 1_555 1_555
H76_5 C65_5 1_555 1_555
H77_5 C65_5 1_555 1_555
H78_5 C65_5 1_555 1_555
H79_5 C66_5 1_555 1_555
H80_5 C66_5 1_555 1_555
H81_5 C66_5 1_555 1_555
H82_5 C70_5 1_555 1_555
H83_5 C70_5 1_555 1_555
H84_5 C70_5 1_555 1_555
H85_5 C71_5 1_555 1_555
H86_5 C71_5 1_555 1_555
H87_5 C71_5 1_555 1_555
H88_5 C75_5 1_555 1_555
H89_5 C75_5 1_555 1_555
H90_5 C75_5 1_555 1_555
H127_5 C106_5 1_555 1_555
H128_5 C106_5 1_555 1_555
H129_5 C106_5 1_555 1_555
H130_5 C110_5 1_555 1_555
H131_5 C110_5 1_555 1_555
H132_5 C110_5 1_555 1_555
H136_5 C115_5 1_555 1_555
H137_5 C115_5 1_555 1_555
H139_5 C116_5 1_555 1_555
H140_5 C116_5 1_555 1_555
H141_5 C116_5 1_555 1_555
H142_5 C120_5 1_555 1_555
H143_5 C120_5 1_555 1_555
H144_5 C120_5 1_555 1_555
H145_5 C121_5 1_555 1_555
H146_5 C121_5 1_555 1_555
H147_5 C121_5 1_555 1_555
H157_5 C131_5 1_555 1_555
H158_5 C131_5 1_555 1_555
H159_5 C131_5 1_555 1_555
H160_5 C135_5 1_555 1_555
H161_5 C135_5 1_555 1_555
H162_5 C135_5 1_555 1_555
Ag33_2 N5_2 1_555 1_555
N67_2 Ag8_2 1_555 1_555
N68_2 Ag9_2 1_555 1_555
N29_5 N30_5 1_555 1_555
N47_5 N48_5 1_555 1_555
N53_5 N54_5 1_555 1_555
C37_5 C38_5 1_555 1_555
C43_5 C44_5 1_555 1_555
C62_5 C63_5 1_555 1_555
C67_5 C68_5 1_555 1_555
C68_5 C69_5 1_555 1_555
C73_5 C74_5 1_555 1_555
C117_5 C118_5 1_555 1_555
C118_5 C119_5 1_555 1_555
C122_5 C123_5 1_555 1_555
C132_5 C133_5 1_555 1_555
C133_5 C134_5 1_555 1_555
N67_2 N68_2 1_555 1_555
N64_2 Ag5_2 1_555 1_555
N70_4 Ag12_4 1_555 1_555
N69_4 N70_4 1_555 1_555
Ag3_4 N4_5 1_555 1_555
Ag4_5 N7_5 1_555 1_555
Ag10_5 N19_5 1_555 1_555
Ag11_4 N20_5 1_555 1_555
Ag16_5 N31_5 1_555 1_555
Ag17_5 N32_5 1_555 1_555
Ag18_5 N34_5 1_555 1_555
Ag19_5 N37_5 1_555 1_555
Ag20_5 N38_5 1_555 1_555
Ag21_5 N40_5 1_555 1_555
Ag28_5 N55_5 1_555 1_555
Ag29_5 N56_5 1_555 1_555
Ag30_5 N58_5 1_555 1_555
N3_4 N4_5 1_555 1_555
N4_5 C9_5 1_555 1_555
N7_5 N8_5 1_555 1_555
N8_5 C19_5 1_555 1_555
N11_2 N66_5 1_555 1_555
N66_5 C29_5 1_555 1_555
N19_5 N20_5 1_555 1_555
N20_5 C49_5 1_555 1_555
N21_2 N22_2 1_555 1_555
N22_2 C54_5 1_555 1_555
N23_5 N24_5 1_555 1_555
N24_5 Ag10_5 1_555 1_555
N31_5 N32_5 1_555 1_555
N32_5 C79_5 1_555 1_555
N33_5 Ag17_5 1_555 1_555
N34_5 N33_5 1_555 1_555
N35_5 Ag18_5 1_555 1_555
N36_5 Ag16_5 1_555 1_555
N37_5 N38_5 1_555 1_555
N38_5 C94_5 1_555 1_555
N39_5 Ag20_5 1_555 1_555
N40_5 N39_5 1_555 1_555
N41_5 Ag21_5 1_555 1_555
N42_5 Ag19_5 1_555 1_555
N55_5 N56_5 1_555 1_555
N56_5 C139_5 1_555 1_555
N57_5 Ag29_5 1_555 1_555
N58_5 N57_5 1_555 1_555
N59_5 Ag30_5 1_555 1_555
N60_5 Ag28_5 1_555 1_555
C7_5 N3_4 1_555 1_555
C8_5 C7_5 1_555 1_555
C9_5 C8_5 1_555 1_555
C10_5 C9_5 1_555 1_555
C16_5 C17_5 1_555 1_555
C17_5 N7_5 1_555 1_555
C18_5 C17_5 1_555 1_555
C19_5 C18_5 1_555 1_555
C20_5 C19_5 1_555 1_555
C26_5 C27_5 1_555 1_555
C27_5 N11_2 1_555 1_555
C28_5 C27_5 1_555 1_555
C29_5 C28_5 1_555 1_555
C30_5 C29_5 1_555 1_555
C46_5 C47_5 1_555 1_555
C47_5 N19_5 1_555 1_555
C48_5 C47_5 1_555 1_555
C49_5 C48_5 1_555 1_555
C50_5 C49_5 1_555 1_555
C51_5 C52_5 1_555 1_555
C52_5 N21_2 1_555 1_555
C53_5 C48_5 1_555 1_555
C54_5 C53_5 1_555 1_555
C55_5 C54_5 1_555 1_555
C56_5 C57_5 1_555 1_555
C57_5 N23_5 1_555 1_555
C58_5 C57_5 1_555 1_555
C59_5 N24_5 1_555 1_555
C60_5 C59_5 1_555 1_555
C76_5 C77_5 1_555 1_555
C77_5 N31_5 1_555 1_555
C78_5 C77_5 1_555 1_555
C79_5 C78_5 1_555 1_555
C80_5 C79_5 1_555 1_555
C81_5 C82_5 1_555 1_555
C82_5 N33_5 1_555 1_555
C83_5 C8_5 1_555 1_555
C84_5 N34_5 1_555 1_555
C85_5 C84_5 1_555 1_555
C86_5 C87_5 1_555 1_555
C87_5 N35_5 1_555 1_555
C88_5 C28_5 1_555 1_555
C89_5 N36_5 1_555 1_555
C90_5 C89_5 1_555 1_555
C91_5 C92_5 1_555 1_555
C92_5 N37_5 1_555 1_555
C93_5 C78_5 1_555 1_555
C94_5 C93_5 1_555 1_555
C95_5 C94_5 1_555 1_555
C96_5 C97_5 1_555 1_555
C97_5 N39_5 1_555 1_555
C98_5 C97_5 1_555 1_555
C99_5 N40_5 1_555 1_555
C100_5 C99_5 1_555 1_555
C101_5 C102_5 1_555 1_555
C102_5 N41_5 1_555 1_555
C103_5 C102_5 1_555 1_555
C104_5 N42_5 1_555 1_555
C105_5 C104_5 1_555 1_555
C111_5 C112_5 1_555 1_555
C113_5 C98_5 1_555 1_555
C136_5 C137_5 1_555 1_555
C137_5 N55_5 1_555 1_555
C138_5 C103_5 1_555 1_555
C139_5 C138_5 1_555 1_555
C140_5 C139_5 1_555 1_555
C141_5 C142_5 1_555 1_555
C142_5 N57_5 1_555 1_555
C143_5 C58_5 1_555 1_555
C144_5 N58_5 1_555 1_555
C145_5 C144_5 1_555 1_555
C146_5 C147_5 1_555 1_555
C147_5 N59_5 1_555 1_555
C148_5 C18_5 1_555 1_555
C149_5 N60_5 1_555 1_555
C150_5 C149_5 1_555 1_555
H10_5 C10_5 1_555 1_555
H11_5 C10_5 1_555 1_555
H12_5 C10_5 1_555 1_555
H19_5 C16_5 1_555 1_555
H20_5 C16_5 1_555 1_555
H21_5 C16_5 1_555 1_555
H22_5 C20_5 1_555 1_555
H23_5 C20_5 1_555 1_555
H24_5 C20_5 1_555 1_555
H31_5 C26_5 1_555 1_555
H32_5 C26_5 1_555 1_555
H33_5 C26_5 1_555 1_555
H35_5 C30_5 1_555 1_555
H36_5 C30_5 1_555 1_555
H55_5 C46_5 1_555 1_555
H56_5 C46_5 1_555 1_555
H57_5 C46_5 1_555 1_555
H58_5 C50_5 1_555 1_555
H59_5 C50_5 1_555 1_555
H60_5 C50_5 1_555 1_555
H62_5 C51_5 1_555 1_555
H63_5 C51_5 1_555 1_555
H64_5 C55_5 1_555 1_555
H65_5 C55_5 1_555 1_555
H66_5 C55_5 1_555 1_555
H67_5 C56_5 1_555 1_555
H69_5 C56_5 1_555 1_555
H70_5 C60_5 1_555 1_555
H71_5 C60_5 1_555 1_555
H72_5 C60_5 1_555 1_555
H91_5 C76_5 1_555 1_555
H92_5 C76_5 1_555 1_555
H93_5 C76_5 1_555 1_555
H94_5 C80_5 1_555 1_555
H95_5 C80_5 1_555 1_555
H96_5 C80_5 1_555 1_555
H97_5 C81_5 1_555 1_555
H99_5 C81_5 1_555 1_555
H100_5 C85_5 1_555 1_555
H101_5 C85_5 1_555 1_555
H102_5 C85_5 1_555 1_555
H103_5 C86_5 1_555 1_555
H104_5 C86_5 1_555 1_555
H105_5 C86_5 1_555 1_555
H106_5 C90_5 1_555 1_555
H107_5 C90_5 1_555 1_555
H108_5 C90_5 1_555 1_555
H109_5 C91_5 1_555 1_555
H110_5 C91_5 1_555 1_555
H111_5 C91_5 1_555 1_555
H112_5 C95_5 1_555 1_555
H113_5 C95_5 1_555 1_555
H114_5 C95_5 1_555 1_555
H115_5 C96_5 1_555 1_555
H116_5 C96_5 1_555 1_555
H117_5 C96_5 1_555 1_555
H118_5 C100_5 1_555 1_555
H119_5 C100_5 1_555 1_555
H120_5 C100_5 1_555 1_555
H121_5 C101_5 1_555 1_555
H122_5 C101_5 1_555 1_555
H123_5 C101_5 1_555 1_555
H124_5 C105_5 1_555 1_555
H125_5 C105_5 1_555 1_555
H126_5 C105_5 1_555 1_555
H133_5 C111_5 1_555 1_555
H134_5 C111_5 1_555 1_555
H135_5 C111_5 1_555 1_555
H163_5 C136_5 1_555 1_555
H164_5 C136_5 1_555 1_555
H165_5 C136_5 1_555 1_555
H166_5 C140_5 1_555 1_555
H167_5 C140_5 1_555 1_555
H168_5 C140_5 1_555 1_555
H169_5 C141_5 1_555 1_555
H170_5 C141_5 1_555 1_555
H171_5 C141_5 1_555 1_555
H172_5 C145_5 1_555 1_555
H173_5 C145_5 1_555 1_555
H174_5 C145_5 1_555 1_555
H175_5 C146_5 1_555 1_555
H176_5 C146_5 1_555 1_555
H177_5 C146_5 1_555 1_555
H178_5 C150_5 1_555 1_555
H179_5 C150_5 1_555 1_555
H180_5 C150_5 1_555 1_555
Ag32_4 N3_4 1_555 1_555
Ag36_2 N11_2 1_555 1_555
Ag40_2 N22_2 1_555 1_555
N62_4 Ag3_4 1_555 1_555
N35_5 N36_5 1_555 1_555
N41_5 N42_5 1_555 1_555
N59_5 N60_5 1_555 1_555
C52_5 C53_5 1_555 1_555
C58_5 C59_5 1_555 1_555
C82_5 C83_5 1_555 1_555
C83_5 C84_5 1_555 1_555
C87_5 C88_5 1_555 1_555
C88_5 C89_5 1_555 1_555
C92_5 C93_5 1_555 1_555
C98_5 C99_5 1_555 1_555
C103_5 C104_5 1_555 1_555
C112_5 C113_5 1_555 1_555
C137_5 C138_5 1_555 1_555
C142_5 C143_5 1_555 1_555
C143_5 C144_5 1_555 1_555
C147_5 C148_5 1_555 1_555
C148_5 C149_5 1_555 1_555
Ag4_6 N7_6 1_555 1_555
Ag35_4 N8_6 1_555 1_555
Ag7_6 N13_6 1_555 1_555
Ag37_4 N14_6 1_555 1_555
Ag38_4 N17_6 1_555 1_555
Ag25_6 N49_6 1_555 1_555
Ag26_6 N50_6 1_555 1_555
Ag27_6 N52_6 1_555 1_555
N2_6 C4_6 1_555 1_555
N7_6 N8_6 1_555 1_555
N8_6 C19_6 1_555 1_555
N13_6 N14_6 1_555 1_555
N14_6 C34_6 1_555 1_555
N15_5 N16_5 1_555 1_555
N16_5 C39_6 1_555 1_555
N17_6 N18_6 1_555 1_555
N18_6 Ag7_6 1_555 1_555
N49_6 N50_6 1_555 1_555
N50_6 C124_6 1_555 1_555
N51_6 Ag26_6 1_555 1_555
N52_6 N51_6 1_555 1_555
N53_6 Ag27_6 1_555 1_555
N54_6 Ag25_6 1_555 1_555
N59_6 Ag30_6 1_555 1_555
C4_6 C3_6 1_555 1_555
C5_6 C4_6 1_555 1_555
C16_6 C17_6 1_555 1_555
C17_6 N7_6 1_555 1_555
C18_6 C17_6 1_555 1_555
C19_6 C18_6 1_555 1_555
C31_6 C32_6 1_555 1_555
C32_6 N13_6 1_555 1_555
C33_6 C32_6 1_555 1_555
C34_6 C33_6 1_555 1_555
C35_6 C34_6 1_555 1_555
C36_6 C37_6 1_555 1_555
C37_6 N15_5 1_555 1_555
C38_6 C33_6 1_555 1_555
C39_6 C38_6 1_555 1_555
C40_6 C39_6 1_555 1_555
C41_6 C42_6 1_555 1_555
C42_6 N17_6 1_555 1_555
C43_6 C42_6 1_555 1_555
C44_6 N18_6 1_555 1_555
C45_6 C44_6 1_555 1_555
C121_6 C122_6 1_555 1_555
C122_6 N49_6 1_555 1_555
C123_6 C43_6 1_555 1_555
C124_6 C123_6 1_555 1_555
C125_6 C124_6 1_555 1_555
C126_6 C127_6 1_555 1_555
C127_6 N51_6 1_555 1_555
C128_6 C3_6 1_555 1_555
C134_6 N54_6 1_555 1_555
C135_6 C134_6 1_555 1_555
C147_6 N59_6 1_555 1_555
C148_6 C18_6 1_555 1_555
C149_6 N60_6 1_555 1_555
C150_6 C149_6 1_555 1_555
H4_6 C5_6 1_555 1_555
H5_6 C5_6 1_555 1_555
H6_6 C5_6 1_555 1_555
H19_6 C16_6 1_555 1_555
H20_6 C16_6 1_555 1_555
H21_6 C16_6 1_555 1_555
H37_6 C31_6 1_555 1_555
H38_6 C31_6 1_555 1_555
H39_6 C31_6 1_555 1_555
H40_6 C35_6 1_555 1_555
H41_6 C35_6 1_555 1_555
H42_6 C35_6 1_555 1_555
H43_6 C36_6 1_555 1_555
H44_6 C36_6 1_555 1_555
H45_6 C36_6 1_555 1_555
H46_6 C40_6 1_555 1_555
H47_6 C40_6 1_555 1_555
H48_6 C40_6 1_555 1_555
H49_6 C41_6 1_555 1_555
H50_6 C41_6 1_555 1_555
H51_6 C41_6 1_555 1_555
H52_6 C45_6 1_555 1_555
H53_6 C45_6 1_555 1_555
H54_6 C45_6 1_555 1_555
H145_6 C121_6 1_555 1_555
H146_6 C121_6 1_555 1_555
H147_6 C121_6 1_555 1_555
H148_6 C125_6 1_555 1_555
H149_6 C125_6 1_555 1_555
H150_6 C125_6 1_555 1_555
H151_6 C126_6 1_555 1_555
H152_6 C126_6 1_555 1_555
H153_6 C126_6 1_555 1_555
H160_6 C135_6 1_555 1_555
H161_6 C135_6 1_555 1_555
H162_6 C135_6 1_555 1_555
H178_6 C150_6 1_555 1_555
H179_6 C150_6 1_555 1_555
H180_6 C150_6 1_555 1_555
Ag37_5 N15_5 1_555 1_555
Ag38_5 N16_5 1_555 1_555
N66_6 Ag4_6 1_555 1_555
N53_6 N54_6 1_555 1_555
N59_6 N60_6 1_555 1_555
C37_6 C38_6 1_555 1_555
C43_6 C44_6 1_555 1_555
C122_6 C123_6 1_555 1_555
C127_6 C128_6 1_555 1_555
C147_6 C148_6 1_555 1_555
C148_6 C149_6 1_555 1_555
Ag3_5 N4_6 1_555 1_555
Ag16_6 N31_6 1_555 1_555
Ag17_6 N32_6 1_555 1_555
Ag18_6 N34_6 1_555 1_555
Ag19_6 N37_6 1_555 1_555
Ag28_6 N55_6 1_555 1_555
N3_5 N4_6 1_555 1_555
N4_6 C9_6 1_555 1_555
N65_4 N66_6 1_555 1_555
N66_6 C29_6 1_555 1_555
N31_6 N32_6 1_555 1_555
N32_6 C79_6 1_555 1_555
N33_6 Ag17_6 1_555 1_555
N34_6 N33_6 1_555 1_555
N35_6 Ag18_6 1_555 1_555
N36_6 Ag16_6 1_555 1_555
N37_6 N38_6 1_555 1_555
N38_6 C94_6 1_555 1_555
C6_6 C7_6 1_555 1_555
C7_6 N3_5 1_555 1_555
C8_6 C7_6 1_555 1_555
C9_6 C8_6 1_555 1_555
C10_6 C9_6 1_555 1_555
C26_6 C27_6 1_555 1_555
C27_6 N65_4 1_555 1_555
C28_6 C27_6 1_555 1_555
C29_6 C28_6 1_555 1_555
C30_6 C29_6 1_555 1_555
C76_6 C77_6 1_555 1_555
C77_6 N31_6 1_555 1_555
C78_6 C77_6 1_555 1_555
C79_6 C78_6 1_555 1_555
C80_6 C79_6 1_555 1_555
C81_6 C82_6 1_555 1_555
C82_6 N33_6 1_555 1_555
C83_6 C8_6 1_555 1_555
C84_6 N34_6 1_555 1_555
C85_6 C84_6 1_555 1_555
C86_6 C87_6 1_555 1_555
C87_6 N35_6 1_555 1_555
C88_6 C28_6 1_555 1_555
C89_6 N36_6 1_555 1_555
C90_6 C89_6 1_555 1_555
C91_6 C92_6 1_555 1_555
C92_6 N37_6 1_555 1_555
C93_6 C78_6 1_555 1_555
C94_6 C93_6 1_555 1_555
C95_6 C94_6 1_555 1_555
C105_6 C104_6 1_555 1_555
C136_6 C137_6 1_555 1_555
C137_6 N55_6 1_555 1_555
H7_6 C6_6 1_555 1_555
H8_6 C6_6 1_555 1_555
H9_6 C6_6 1_555 1_555
H10_6 C10_6 1_555 1_555
H11_6 C10_6 1_555 1_555
H12_6 C10_6 1_555 1_555
H31_6 C26_6 1_555 1_555
H32_6 C26_6 1_555 1_555
H33_6 C26_6 1_555 1_555
H34_6 C30_6 1_555 1_555
H35_6 C30_6 1_555 1_555
H36_6 C30_6 1_555 1_555
H91_6 C76_6 1_555 1_555
H92_6 C76_6 1_555 1_555
H93_6 C76_6 1_555 1_555
H94_6 C80_6 1_555 1_555
H95_6 C80_6 1_555 1_555
H96_6 C80_6 1_555 1_555
H97_6 C81_6 1_555 1_555
H98_6 C81_6 1_555 1_555
H99_6 C81_6 1_555 1_555
H100_6 C85_6 1_555 1_555
H101_6 C85_6 1_555 1_555
H102_6 C85_6 1_555 1_555
H103_6 C86_6 1_555 1_555
H104_6 C86_6 1_555 1_555
H105_6 C86_6 1_555 1_555
H106_6 C90_6 1_555 1_555
H107_6 C90_6 1_555 1_555
H108_6 C90_6 1_555 1_555
H109_6 C91_6 1_555 1_555
H110_6 C91_6 1_555 1_555
H111_6 C91_6 1_555 1_555
H112_6 C95_6 1_555 1_555
H113_6 C95_6 1_555 1_555
H114_6 C95_6 1_555 1_555
H124_6 C105_6 1_555 1_555
H125_6 C105_6 1_555 1_555
H126_6 C105_6 1_555 1_555
H163_6 C136_6 1_555 1_555
H164_6 C136_6 1_555 1_555
H165_6 C136_6 1_555 1_555
Ag32_5 N3_5 1_555 1_555
N62_5 Ag3_5 1_555 1_555
N35_6 N36_6 1_555 1_555
C82_6 C83_6 1_555 1_555
C83_6 C84_6 1_555 1_555
C87_6 C88_6 1_555 1_555
C88_6 C89_6 1_555 1_555
C92_6 C93_6 1_555 1_555
Ag1_6 N1_6 1_555 1_555
N43_6 N44_6 1_555 1_555
N44_6 C109_6 1_555 1_555
N58_6 N57_6 1_555 1_555
C1_6 C2_6 1_555 1_555
C2_6 N1_6 1_555 1_555
C56_6 C57_6 1_555 1_555
C106_6 C107_6 1_555 1_555
C107_6 N43_6 1_555 1_555
C108_6 C107_6 1_555 1_555
C109_6 C108_6 1_555 1_555
C110_6 C109_6 1_555 1_555
C130_6 C129_6 1_555 1_555
C131_6 C132_6 1_555 1_555
C133_6 C108_6 1_555 1_555
C141_6 C142_6 1_555 1_555
C142_6 N57_6 1_555 1_555
H1_6 C1_6 1_555 1_555
H2_6 C1_6 1_555 1_555
H3_6 C1_6 1_555 1_555
H67_6 C56_6 1_555 1_555
H68_6 C56_6 1_555 1_555
H69_6 C56_6 1_555 1_555
H127_6 C106_6 1_555 1_555
H128_6 C106_6 1_555 1_555
H129_6 C106_6 1_555 1_555
H130_6 C110_6 1_555 1_555
H131_6 C110_6 1_555 1_555
H132_6 C110_6 1_555 1_555
H154_6 C130_6 1_555 1_555
H155_6 C130_6 1_555 1_555
H156_6 C130_6 1_555 1_555
H157_6 C131_6 1_555 1_555
H158_6 C131_6 1_555 1_555
H159_6 C131_6 1_555 1_555
H169_6 C141_6 1_555 1_555
H170_6 C141_6 1_555 1_555
H171_6 C141_6 1_555 1_555
N63_6 Ag1_6 1_555 1_555
N70_5 Ag12_5 1_555 1_555
C132_6 C133_6 1_555 1_555
C142_6 C143_6 1_555 1_555
N69_5 N70_5 1_555 1_555
Ag6_5 N10_6 1_555 1_555
Ag13_6 N25_6 1_555 1_555
Ag14_6 N26_6 1_555 1_555
Ag15_6 N28_6 1_555 1_555
Ag21_6 N40_6 1_555 1_555
Ag24_6 N46_6 1_555 1_555
Ag29_6 N56_6 1_555 1_555
N62_4 N63_6 1_555 1_555
N63_6 C14_6 1_555 1_555
N9_5 N10_6 1_555 1_555
N10_6 C24_6 1_555 1_555
N25_6 N26_6 1_555 1_555
N26_6 C64_6 1_555 1_555
N27_6 Ag14_6 1_555 1_555
N28_6 N27_6 1_555 1_555
N29_6 Ag15_6 1_555 1_555
N30_6 Ag13_6 1_555 1_555
N39_6 Ag20_6 1_555 1_555
N40_6 N39_6 1_555 1_555
N41_6 Ag21_6 1_555 1_555
N45_6 Ag23_6 1_555 1_555
N46_6 N45_6 1_555 1_555
N47_6 Ag24_6 1_555 1_555
N48_6 Ag22_6 1_555 1_555
N56_6 C139_6 1_555 1_555
C11_6 C12_6 1_555 1_555
C12_6 N62_4 1_555 1_555
C13_6 C12_6 1_555 1_555
C14_6 C13_6 1_555 1_555
C15_6 C14_6 1_555 1_555
C21_6 C22_6 1_555 1_555
C22_6 N9_5 1_555 1_555
C23_6 C22_6 1_555 1_555
C24_6 C23_6 1_555 1_555
C25_6 C24_6 1_555 1_555
C61_6 C62_6 1_555 1_555
C62_6 N25_6 1_555 1_555
C63_6 C13_6 1_555 1_555
C64_6 C63_6 1_555 1_555
C65_6 C64_6 1_555 1_555
C66_6 C67_6 1_555 1_555
C67_6 N27_6 1_555 1_555
C68_6 C23_6 1_555 1_555
C69_6 N28_6 1_555 1_555
C70_6 C69_6 1_555 1_555
C71_6 C72_6 1_555 1_555
C72_6 N29_6 1_555 1_555
C73_6 C72_6 1_555 1_555
C74_6 N30_6 1_555 1_555
C75_6 C74_6 1_555 1_555
C96_6 C97_6 1_555 1_555
C97_6 N39_6 1_555 1_555
C98_6 C97_6 1_555 1_555
C99_6 N40_6 1_555 1_555
C100_6 C99_6 1_555 1_555
C101_6 C102_6 1_555 1_555
C102_6 N41_6 1_555 1_555
C103_6 C102_6 1_555 1_555
C111_6 C112_6 1_555 1_555
C112_6 N45_6 1_555 1_555
C113_6 C98_6 1_555 1_555
C114_6 N46_6 1_555 1_555
C115_6 C114_6 1_555 1_555
C116_6 C117_6 1_555 1_555
C117_6 N47_6 1_555 1_555
C118_6 C73_6 1_555 1_555
C119_6 N48_6 1_555 1_555
C120_6 C119_6 1_555 1_555
C138_6 C103_6 1_555 1_555
C139_6 C138_6 1_555 1_555
C140_6 C139_6 1_555 1_555
H13_6 C11_6 1_555 1_555
H14_6 C11_6 1_555 1_555
H15_6 C11_6 1_555 1_555
H16_6 C15_6 1_555 1_555
H17_6 C15_6 1_555 1_555
H18_6 C15_6 1_555 1_555
H25_6 C21_6 1_555 1_555
H26_6 C21_6 1_555 1_555
H27_6 C21_6 1_555 1_555
H28_6 C25_6 1_555 1_555
H29_6 C25_6 1_555 1_555
H30_6 C25_6 1_555 1_555
H73_6 C61_6 1_555 1_555
H74_6 C61_6 1_555 1_555
H75_6 C61_6 1_555 1_555
H76_6 C65_6 1_555 1_555
H77_6 C65_6 1_555 1_555
H78_6 C65_6 1_555 1_555
H79_6 C66_6 1_555 1_555
H80_6 C66_6 1_555 1_555
H81_6 C66_6 1_555 1_555
H82_6 C70_6 1_555 1_555
H83_6 C70_6 1_555 1_555
H84_6 C70_6 1_555 1_555
H85_6 C71_6 1_555 1_555
H86_6 C71_6 1_555 1_555
H87_6 C71_6 1_555 1_555
H88_6 C75_6 1_555 1_555
H89_6 C75_6 1_555 1_555
H90_6 C75_6 1_555 1_555
H115_6 C96_6 1_555 1_555
H116_6 C96_6 1_555 1_555
H117_6 C96_6 1_555 1_555
H118_6 C100_6 1_555 1_555
H119_6 C100_6 1_555 1_555
H120_6 C100_6 1_555 1_555
H121_6 C101_6 1_555 1_555
H122_6 C101_6 1_555 1_555
H123_6 C101_6 1_555 1_555
H133_6 C111_6 1_555 1_555
H134_6 C111_6 1_555 1_555
H135_6 C111_6 1_555 1_555
H136_6 C115_6 1_555 1_555
H137_6 C115_6 1_555 1_555
H138_6 C115_6 1_555 1_555
H139_6 C116_6 1_555 1_555
H140_6 C116_6 1_555 1_555
H141_6 C116_6 1_555 1_555
H142_6 C120_6 1_555 1_555
H143_6 C120_6 1_555 1_555
H144_6 C120_6 1_555 1_555
H166_6 C140_6 1_555 1_555
H167_6 C140_6 1_555 1_555
H168_6 C140_6 1_555 1_555
Ag35_5 N9_5 1_555 1_555
N65_5 Ag6_5 1_555 1_555
N29_6 N30_6 1_555 1_555
N41_6 N42_6 1_555 1_555
N47_6 N48_6 1_555 1_555
C62_6 C63_6 1_555 1_555
C67_6 C68_6 1_555 1_555
C68_6 C69_6 1_555 1_555
C73_6 C74_6 1_555 1_555
C98_6 C99_6 1_555 1_555
C112_6 C113_6 1_555 1_555
C113_6 C114_6 1_555 1_555
C117_6 C118_6 1_555 1_555
C118_6 C119_6 1_555 1_555
Ag10_6 N19_6 1_555 1_555
Ag11_5 N20_6 1_555 1_555
N19_6 N20_6 1_555 1_555
N20_6 C49_6 1_555 1_555
N70_4 C54_6 1_555 1_555
N23_6 N24_6 1_555 1_555
N24_6 Ag10_6 1_555 1_555
C46_6 C47_6 1_555 1_555
C47_6 N19_6 1_555 1_555
C48_6 C47_6 1_555 1_555
C49_6 C48_6 1_555 1_555
C50_6 C49_6 1_555 1_555
C51_6 C52_6 1_555 1_555
C52_6 N69_4 1_555 1_555
C53_6 C48_6 1_555 1_555
C54_6 C53_6 1_555 1_555
C55_6 C54_6 1_555 1_555
C59_6 N24_6 1_555 1_555
C60_6 C59_6 1_555 1_555
C145_6 C144_6 1_555 1_555
H55_6 C46_6 1_555 1_555
H56_6 C46_6 1_555 1_555
H57_6 C46_6 1_555 1_555
H58_6 C50_6 1_555 1_555
H59_6 C50_6 1_555 1_555
H60_6 C50_6 1_555 1_555
H61_6 C51_6 1_555 1_555
H62_6 C51_6 1_555 1_555
H63_6 C51_6 1_555 1_555
H64_6 C55_6 1_555 1_555
H65_6 C55_6 1_555 1_555
H66_6 C55_6 1_555 1_555
H70_6 C60_6 1_555 1_555
H71_6 C60_6 1_555 1_555
H72_6 C60_6 1_555 1_555
H172_6 C145_6 1_555 1_555
H173_6 C145_6 1_555 1_555
H174_7 C145_6 1_555 1_555
C52_6 C53_6 1_555 1_555
C58_6 C59_6 1_555 1_555
Ag10_7 N19_7 1_555 1_555
Ag39_2 N20_7 1_555 1_555
N19_7 N20_7 1_555 1_555
N20_7 C49_7 1_555 1_555
N21_3 N22_3 1_555 1_555
N22_3 C54_7 1_555 1_555
N23_7 N24_7 1_555 1_555
N24_7 Ag10_7 1_555 1_555
C46_7 C47_7 1_555 1_555
C47_7 N19_7 1_555 1_555
C48_7 C47_7 1_555 1_555
C49_7 C48_7 1_555 1_555
C50_7 C49_7 1_555 1_555
C51_7 C52_7 1_555 1_555
C52_7 N21_3 1_555 1_555
C53_7 C48_7 1_555 1_555
C54_7 C53_7 1_555 1_555
C55_7 C54_7 1_555 1_555
C59_7 N24_7 1_555 1_555
C60_7 C59_7 1_555 1_555
C145_7 C144_7 1_555 1_555
H22_6 C20_6 1_555 1_555
H23_6 C20_6 1_555 1_555
H24_6 C20_6 1_555 1_555
H55_7 C46_7 1_555 1_555
H56_7 C46_7 1_555 1_555
H57_7 C46_7 1_555 1_555
H58_7 C50_7 1_555 1_555
H59_7 C50_7 1_555 1_555
H60_7 C50_7 1_555 1_555
H61_7 C51_7 1_555 1_555
H62_7 C51_7 1_555 1_555
H63_7 C51_7 1_555 1_555
H64_7 C55_7 1_555 1_555
H65_7 C55_7 1_555 1_555
H66_7 C55_7 1_555 1_555
H70_7 C60_7 1_555 1_555
H71_7 C60_7 1_555 1_555
H72_7 C60_7 1_555 1_555
H172_7 C145_7 1_555 1_555
H173_7 C145_7 1_555 1_555
H174_8 C145_7 1_555 1_555
H175_6 C146_6 1_555 1_555
H177_6 C146_6 1_555 1_555
Ag39_3 N21_3 1_555 1_555
Ag40_3 N22_3 1_555 1_555
C52_7 C53_7 1_555 1_555
C58_7 C59_7 1_555 1_555
N63_7 Ag1_7 1_555 1_555
Ag2_3 N2_7 1_555 1_555
Ag33_2 N4_7 1_555 1_555
Ag4_7 N7_7 1_555 1_555
Ag5_3 N8_7 1_555 1_555
Ag36_2 N10_7 1_555 1_555
Ag7_7 N13_7 1_555 1_555
Ag8_3 N14_7 1_555 1_555
Ag9_3 N17_7 1_555 1_555
Ag13_7 N25_7 1_555 1_555
Ag14_7 N26_7 1_555 1_555
Ag15_7 N28_7 1_555 1_555
Ag17_7 N32_7 1_555 1_555
Ag19_7 N37_7 1_555 1_555
Ag20_7 N38_7 1_555 1_555
Ag21_7 N40_7 1_555 1_555
Ag22_7 N43_7 1_555 1_555
Ag23_7 N44_7 1_555 1_555
Ag24_7 N46_7 1_555 1_555
Ag25_7 N49_7 1_555 1_555
Ag26_7 N50_7 1_555 1_555
Ag27_7 N52_7 1_555 1_555
Ag28_7 N55_7 1_555 1_555
Ag29_7 N56_7 1_555 1_555
Ag30_7 N58_7 1_555 1_555
N1_7 N2_7 1_555 1_555
N2_7 C4_7 1_555 1_555
N61_2 N4_7 1_555 1_555
N4_7 C9_7 1_555 1_555
N5_3 N63_7 1_555 1_555
N63_7 C14_7 1_555 1_555
N7_7 N8_7 1_555 1_555
N8_7 C19_7 1_555 1_555
N64_2 N10_7 1_555 1_555
N10_7 C24_7 1_555 1_555
N13_7 N14_7 1_555 1_555
N14_7 C34_7 1_555 1_555
N68_2 C39_7 1_555 1_555
N17_7 N18_7 1_555 1_555
N18_7 Ag7_7 1_555 1_555
N25_7 N26_7 1_555 1_555
N26_7 C64_7 1_555 1_555
N27_7 Ag14_7 1_555 1_555
N28_7 N27_7 1_555 1_555
N29_7 Ag15_7 1_555 1_555
N30_7 Ag13_7 1_555 1_555
N31_7 N32_7 1_555 1_555
N32_7 C79_7 1_555 1_555
N33_7 Ag17_7 1_555 1_555
N34_7 N33_7 1_555 1_555
N37_7 N38_7 1_555 1_555
N38_7 C94_7 1_555 1_555
N39_7 Ag20_7 1_555 1_555
N40_7 N39_7 1_555 1_555
N41_7 Ag21_7 1_555 1_555
N42_7 Ag19_7 1_555 1_555
N43_7 N44_7 1_555 1_555
N44_7 C109_7 1_555 1_555
N45_7 Ag23_7 1_555 1_555
N46_7 N45_7 1_555 1_555
N47_7 Ag24_7 1_555 1_555
N48_7 Ag22_7 1_555 1_555
N49_7 N50_7 1_555 1_555
N50_7 C124_7 1_555 1_555
N51_7 Ag26_7 1_555 1_555
N52_7 N51_7 1_555 1_555
N53_7 Ag27_7 1_555 1_555
N54_7 Ag25_7 1_555 1_555
N55_7 N56_7 1_555 1_555
N56_7 C139_7 1_555 1_555
N57_7 Ag29_7 1_555 1_555
N58_7 N57_7 1_555 1_555
N59_7 Ag30_7 1_555 1_555
N60_7 Ag28_7 1_555 1_555
C1_7 C2_7 1_555 1_555
C2_7 N1_7 1_555 1_555
C3_7 C2_7 1_555 1_555
C4_7 C3_7 1_555 1_555
C5_7 C4_7 1_555 1_555
C6_7 C7_7 1_555 1_555
C7_7 N61_2 1_555 1_555
C8_7 C7_7 1_555 1_555
C9_7 C8_7 1_555 1_555
C10_7 C9_7 1_555 1_555
C11_7 C12_7 1_555 1_555
C12_7 N5_3 1_555 1_555
C13_7 C12_7 1_555 1_555
C14_7 C13_7 1_555 1_555
C15_7 C14_7 1_555 1_555
C16_7 C17_7 1_555 1_555
C17_7 N7_7 1_555 1_555
C18_7 C17_7 1_555 1_555
C19_7 C18_7 1_555 1_555
C21_7 C22_7 1_555 1_555
C22_7 N64_2 1_555 1_555
C23_7 C22_7 1_555 1_555
C24_7 C23_7 1_555 1_555
C25_7 C24_7 1_555 1_555
C31_7 C32_7 1_555 1_555
C32_7 N13_7 1_555 1_555
C33_7 C32_7 1_555 1_555
C34_7 C33_7 1_555 1_555
C35_7 C34_7 1_555 1_555
C36_7 C37_7 1_555 1_555
C37_7 N67_2 1_555 1_555
C38_7 C33_7 1_555 1_555
C39_7 C38_7 1_555 1_555
C40_7 C39_7 1_555 1_555
C41_7 C42_7 1_555 1_555
C42_7 N17_7 1_555 1_555
C43_7 C42_7 1_555 1_555
C44_7 N18_7 1_555 1_555
C45_7 C44_7 1_555 1_555
C56_7 C57_7 1_555 1_555
C61_7 C62_7 1_555 1_555
C62_7 N25_7 1_555 1_555
C63_7 C13_7 1_555 1_555
C64_7 C63_7 1_555 1_555
C65_7 C64_7 1_555 1_555
C66_7 C67_7 1_555 1_555
C67_7 N27_7 1_555 1_555
C68_7 C23_7 1_555 1_555
C69_7 N28_7 1_555 1_555
C70_7 C69_7 1_555 1_555
C71_7 C72_7 1_555 1_555
C72_7 N29_7 1_555 1_555
C73_7 C72_7 1_555 1_555
C74_7 N30_7 1_555 1_555
C75_7 C74_7 1_555 1_555
C76_7 C77_7 1_555 1_555
C77_7 N31_7 1_555 1_555
C78_7 C77_7 1_555 1_555
C79_7 C78_7 1_555 1_555
C80_7 C79_7 1_555 1_555
C81_7 C82_7 1_555 1_555
C82_7 N33_7 1_555 1_555
C83_7 C8_7 1_555 1_555
C84_7 N34_7 1_555 1_555
C85_7 C84_7 1_555 1_555
C91_7 C92_7 1_555 1_555
C92_7 N37_7 1_555 1_555
C93_7 C78_7 1_555 1_555
C94_7 C93_7 1_555 1_555
C95_7 C94_7 1_555 1_555
C96_7 C97_7 1_555 1_555
C97_7 N39_7 1_555 1_555
C98_7 C97_7 1_555 1_555
C99_7 N40_7 1_555 1_555
C100_7 C99_7 1_555 1_555
C101_7 C102_7 1_555 1_555
C102_7 N41_7 1_555 1_555
C103_7 C102_7 1_555 1_555
C104_7 N42_7 1_555 1_555
C105_7 C104_7 1_555 1_555
C106_7 C107_7 1_555 1_555
C107_7 N43_7 1_555 1_555
C108_7 C107_7 1_555 1_555
C109_7 C108_7 1_555 1_555
C110_7 C109_7 1_555 1_555
C111_7 C112_7 1_555 1_555
C112_7 N45_7 1_555 1_555
C113_7 C98_7 1_555 1_555
C114_7 N46_7 1_555 1_555
C115_7 C114_7 1_555 1_555
C116_7 C117_7 1_555 1_555
C117_7 N47_7 1_555 1_555
C118_7 C73_7 1_555 1_555
C119_7 N48_7 1_555 1_555
C120_7 C119_7 1_555 1_555
C121_7 C122_7 1_555 1_555
C122_7 N49_7 1_555 1_555
C123_7 C43_7 1_555 1_555
C124_7 C123_7 1_555 1_555
C125_7 C124_7 1_555 1_555
C126_7 C127_7 1_555 1_555
C127_7 N51_7 1_555 1_555
C128_7 C3_7 1_555 1_555
C129_7 N52_7 1_555 1_555
C130_7 C129_7 1_555 1_555
C131_7 C132_7 1_555 1_555
C132_7 N53_7 1_555 1_555
C133_7 C108_7 1_555 1_555
C134_7 N54_7 1_555 1_555
C135_7 C134_7 1_555 1_555
C136_7 C137_7 1_555 1_555
C137_7 N55_7 1_555 1_555
C138_7 C103_7 1_555 1_555
C139_7 C138_7 1_555 1_555
C140_7 C139_7 1_555 1_555
C141_7 C142_7 1_555 1_555
C142_7 N57_7 1_555 1_555
C147_7 N59_7 1_555 1_555
C148_7 C18_7 1_555 1_555
C149_7 N60_7 1_555 1_555
C150_7 C149_7 1_555 1_555
H2_7 C1_7 1_555 1_555
H3_7 C1_7 1_555 1_555
H4_7 C5_7 1_555 1_555
H5_7 C5_7 1_555 1_555
H6_7 C5_7 1_555 1_555
H7_7 C6_7 1_555 1_555
H8_7 C6_7 1_555 1_555
H9_7 C6_7 1_555 1_555
H10_7 C10_7 1_555 1_555
H11_7 C10_7 1_555 1_555
H12_7 C10_7 1_555 1_555
H13_7 C11_7 1_555 1_555
H14_7 C11_7 1_555 1_555
H15_7 C11_7 1_555 1_555
H16_7 C15_7 1_555 1_555
H17_7 C15_7 1_555 1_555
H18_7 C15_7 1_555 1_555
H19_7 C16_7 1_555 1_555
H20_7 C16_7 1_555 1_555
H21_7 C16_7 1_555 1_555
H25_7 C21_7 1_555 1_555
H26_7 C21_7 1_555 1_555
H27_7 C21_7 1_555 1_555
H28_7 C25_7 1_555 1_555
H29_7 C25_7 1_555 1_555
H30_7 C25_7 1_555 1_555
H37_7 C31_7 1_555 1_555
H38_7 C31_7 1_555 1_555
H39_7 C31_7 1_555 1_555
H40_7 C35_7 1_555 1_555
H41_7 C35_7 1_555 1_555
H42_7 C35_7 1_555 1_555
H43_7 C36_7 1_555 1_555
H44_7 C36_7 1_555 1_555
H45_7 C36_7 1_555 1_555
H46_7 C40_7 1_555 1_555
H47_7 C40_7 1_555 1_555
H48_7 C40_7 1_555 1_555
H49_7 C41_7 1_555 1_555
H50_7 C41_7 1_555 1_555
H51_7 C41_7 1_555 1_555
H52_7 C45_7 1_555 1_555
H53_7 C45_7 1_555 1_555
H54_7 C45_7 1_555 1_555
H67_7 C56_7 1_555 1_555
H68_7 C56_7 1_555 1_555
H69_7 C56_7 1_555 1_555
H73_7 C61_7 1_555 1_555
H74_7 C61_7 1_555 1_555
H75_7 C61_7 1_555 1_555
H76_7 C65_7 1_555 1_555
H77_7 C65_7 1_555 1_555
H78_7 C65_7 1_555 1_555
H79_7 C66_7 1_555 1_555
H80_7 C66_7 1_555 1_555
H81_7 C66_7 1_555 1_555
H82_7 C70_7 1_555 1_555
H83_7 C70_7 1_555 1_555
H84_7 C70_7 1_555 1_555
H85_7 C71_7 1_555 1_555
H86_7 C71_7 1_555 1_555
H87_7 C71_7 1_555 1_555
H88_7 C75_7 1_555 1_555
H89_7 C75_7 1_555 1_555
H90_7 C75_7 1_555 1_555
H92_7 C76_7 1_555 1_555
H93_7 C76_7 1_555 1_555
H94_7 C80_7 1_555 1_555
H95_7 C80_7 1_555 1_555
H96_7 C80_7 1_555 1_555
H97_7 C81_7 1_555 1_555
H98_7 C81_7 1_555 1_555
H99_7 C81_7 1_555 1_555
H101_7 C85_7 1_555 1_555
H102_7 C85_7 1_555 1_555
H109_7 C91_7 1_555 1_555
H110_7 C91_7 1_555 1_555
H111_7 C91_7 1_555 1_555
H112_7 C95_7 1_555 1_555
H113_7 C95_7 1_555 1_555
H114_7 C95_7 1_555 1_555
H115_7 C96_7 1_555 1_555
H116_7 C96_7 1_555 1_555
H117_7 C96_7 1_555 1_555
H118_7 C100_7 1_555 1_555
H119_7 C100_7 1_555 1_555
H120_7 C100_7 1_555 1_555
H121_7 C101_7 1_555 1_555
H122_7 C101_7 1_555 1_555
H123_7 C101_7 1_555 1_555
H124_7 C105_7 1_555 1_555
H125_7 C105_7 1_555 1_555
H126_7 C105_7 1_555 1_555
H127_7 C106_7 1_555 1_555
H128_7 C106_7 1_555 1_555
H129_7 C106_7 1_555 1_555
H130_7 C110_7 1_555 1_555
H131_7 C110_7 1_555 1_555
H132_7 C110_7 1_555 1_555
H133_7 C111_7 1_555 1_555
H134_7 C111_7 1_555 1_555
H135_7 C111_7 1_555 1_555
H136_7 C115_7 1_555 1_555
H137_7 C115_7 1_555 1_555
H138_7 C115_7 1_555 1_555
H139_7 C116_7 1_555 1_555
H140_7 C116_7 1_555 1_555
H141_7 C116_7 1_555 1_555
H142_7 C120_7 1_555 1_555
H143_7 C120_7 1_555 1_555
H144_7 C120_7 1_555 1_555
H145_7 C121_7 1_555 1_555
H146_7 C121_7 1_555 1_555
H147_7 C121_7 1_555 1_555
H148_7 C125_7 1_555 1_555
H149_7 C125_7 1_555 1_555
H150_7 C125_7 1_555 1_555
H151_7 C126_7 1_555 1_555
H152_7 C126_7 1_555 1_555
H153_7 C126_7 1_555 1_555
H154_7 C130_7 1_555 1_555
H155_7 C130_7 1_555 1_555
H156_7 C130_7 1_555 1_555
H157_7 C131_7 1_555 1_555
H158_7 C131_7 1_555 1_555
H159_7 C131_7 1_555 1_555
H160_7 C135_7 1_555 1_555
H161_7 C135_7 1_555 1_555
H162_7 C135_7 1_555 1_555
H163_7 C136_7 1_555 1_555
H164_7 C136_7 1_555 1_555
H165_7 C136_7 1_555 1_555
H166_7 C140_7 1_555 1_555
H167_7 C140_7 1_555 1_555
H168_7 C140_7 1_555 1_555
H169_7 C141_7 1_555 1_555
H170_7 C141_7 1_555 1_555
H171_7 C141_7 1_555 1_555
H178_7 C150_7 1_555 1_555
H179_7 C150_7 1_555 1_555
H180_7 C150_7 1_555 1_555
Ag33_3 N5_3 1_555 1_555
N61_3 Ag2_3 1_555 1_555
N64_3 Ag5_3 1_555 1_555
N66_7 Ag4_7 1_555 1_555
N67_3 Ag8_3 1_555 1_555
N68_3 Ag9_3 1_555 1_555
N29_7 N30_7 1_555 1_555
N41_7 N42_7 1_555 1_555
N47_7 N48_7 1_555 1_555
N53_7 N54_7 1_555 1_555
N59_7 N60_7 1_555 1_555
C37_7 C38_7 1_555 1_555
C43_7 C44_7 1_555 1_555
C62_7 C63_7 1_555 1_555
C67_7 C68_7 1_555 1_555
C68_7 C69_7 1_555 1_555
C73_7 C74_7 1_555 1_555
C82_7 C83_7 1_555 1_555
C83_7 C84_7 1_555 1_555
C92_7 C93_7 1_555 1_555
C98_7 C99_7 1_555 1_555
C103_7 C104_7 1_555 1_555
C112_7 C113_7 1_555 1_555
C113_7 C114_7 1_555 1_555
C117_7 C118_7 1_555 1_555
C118_7 C119_7 1_555 1_555
C122_7 C123_7 1_555 1_555
C127_7 C128_7 1_555 1_555
C128_7 C129_7 1_555 1_555
C132_7 C133_7 1_555 1_555
C133_7 C134_7 1_555 1_555
C137_7 C138_7 1_555 1_555
C142_7 C143_7 1_555 1_555
C147_7 C148_7 1_555 1_555
C148_7 C149_7 1_555 1_555
N67_3 N68_3 1_555 1_555
N11_3 N66_7 1_555 1_555
N66_7 C29_7 1_555 1_555
N35_7 Ag18_7 1_555 1_555
N36_7 Ag16_7 1_555 1_555
C26_7 C27_7 1_555 1_555
C27_7 N11_3 1_555 1_555
C28_7 C27_7 1_555 1_555
C29_7 C28_7 1_555 1_555
C30_7 C29_7 1_555 1_555
C86_7 C87_7 1_555 1_555
C87_7 N35_7 1_555 1_555
C88_7 C28_7 1_555 1_555
C89_7 N36_7 1_555 1_555
C90_7 C89_7 1_555 1_555
H31_7 C26_7 1_555 1_555
H32_7 C26_7 1_555 1_555
H33_7 C26_7 1_555 1_555
H34_7 C30_7 1_555 1_555
H35_7 C30_7 1_555 1_555
H36_7 C30_7 1_555 1_555
H103_7 C86_7 1_555 1_555
H104_7 C86_7 1_555 1_555
H105_7 C86_7 1_555 1_555
H106_7 C90_7 1_555 1_555
H107_7 C90_7 1_555 1_555
H108_7 C90_7 1_555 1_555
Ag36_3 N11_3 1_555 1_555
N35_7 N36_7 1_555 1_555
C87_7 C88_7 1_555 1_555
C88_7 C89_7 1_555 1_555
Ag1_8 N1_8 1_555 1_555
Ag32_5 N2_8 1_555 1_555
Ag4_8 N7_8 1_555 1_555
Ag35_5 N8_8 1_555 1_555
Ag7_8 N13_8 1_555 1_555
Ag37_5 N14_8 1_555 1_555
Ag38_5 N17_8 1_555 1_555
Ag10_8 N19_8 1_555 1_555
Ag39_3 N20_8 1_555 1_555
Ag40_3 N23_8 1_555 1_555
Ag21_8 N40_8 1_555 1_555
Ag22_8 N43_8 1_555 1_555
Ag23_8 N44_8 1_555 1_555
Ag24_8 N46_8 1_555 1_555
Ag25_8 N49_8 1_555 1_555
Ag26_8 N50_8 1_555 1_555
Ag27_8 N52_8 1_555 1_555
Ag28_8 N55_8 1_555 1_555
Ag29_8 N56_8 1_555 1_555
Ag30_8 N58_8 1_555 1_555
N1_8 N2_8 1_555 1_555
N2_8 C4_8 1_555 1_555
N7_8 N8_8 1_555 1_555
N8_8 C19_8 1_555 1_555
N13_8 N14_8 1_555 1_555
N14_8 C34_8 1_555 1_555
N68_3 C39_8 1_555 1_555
N17_8 N18_8 1_555 1_555
N18_8 Ag7_8 1_555 1_555
N19_8 N20_8 1_555 1_555
N20_8 C49_8 1_555 1_555
N70_5 C54_8 1_555 1_555
N23_8 N24_8 1_555 1_555
N24_8 Ag10_8 1_555 1_555
N29_8 Ag15_8 1_555 1_555
N30_8 Ag13_8 1_555 1_555
N40_8 N39_8 1_555 1_555
N41_8 Ag21_8 1_555 1_555
N43_8 N44_8 1_555 1_555
N44_8 C109_8 1_555 1_555
N45_8 Ag23_8 1_555 1_555
N46_8 N45_8 1_555 1_555
N47_8 Ag24_8 1_555 1_555
N48_8 Ag22_8 1_555 1_555
N49_8 N50_8 1_555 1_555
N50_8 C124_8 1_555 1_555
N51_8 Ag26_8 1_555 1_555
N52_8 N51_8 1_555 1_555
N53_8 Ag27_8 1_555 1_555
N54_8 Ag25_8 1_555 1_555
N55_8 N56_8 1_555 1_555
N56_8 C139_8 1_555 1_555
N57_8 Ag29_8 1_555 1_555
N58_8 N57_8 1_555 1_555
N59_8 Ag30_8 1_555 1_555
N60_8 Ag28_8 1_555 1_555
C1_8 C2_8 1_555 1_555
C2_8 N1_8 1_555 1_555
C3_8 C2_8 1_555 1_555
C4_8 C3_8 1_555 1_555
C5_8 C4_8 1_555 1_555
C16_8 C17_8 1_555 1_555
C17_8 N7_8 1_555 1_555
C18_8 C17_8 1_555 1_555
C19_8 C18_8 1_555 1_555
C20_7 C19_8 1_555 1_555
C31_8 C32_8 1_555 1_555
C32_8 N13_8 1_555 1_555
C33_8 C32_8 1_555 1_555
C34_8 C33_8 1_555 1_555
C35_8 C34_8 1_555 1_555
C36_8 C37_8 1_555 1_555
C37_8 N67_3 1_555 1_555
C38_8 C33_8 1_555 1_555
C39_8 C38_8 1_555 1_555
C40_8 C39_8 1_555 1_555
C41_8 C42_8 1_555 1_555
C42_8 N17_8 1_555 1_555
C43_8 C42_8 1_555 1_555
C44_8 N18_8 1_555 1_555
C45_8 C44_8 1_555 1_555
C46_8 C47_8 1_555 1_555
C47_8 N19_8 1_555 1_555
C48_8 C47_8 1_555 1_555
C49_8 C48_8 1_555 1_555
C50_8 C49_8 1_555 1_555
C51_8 C52_8 1_555 1_555
C52_8 N69_5 1_555 1_555
C53_8 C48_8 1_555 1_555
C54_8 C53_8 1_555 1_555
C55_8 C54_8 1_555 1_555
C56_8 C57_8 1_555 1_555
C57_8 N23_8 1_555 1_555
C58_8 C57_8 1_555 1_555
C59_8 N24_8 1_555 1_555
C60_8 C59_8 1_555 1_555
C71_8 C72_8 1_555 1_555
C72_8 N29_8 1_555 1_555
C73_8 C72_8 1_555 1_555
C74_8 N30_8 1_555 1_555
C75_8 C74_8 1_555 1_555
C96_8 C97_8 1_555 1_555
C97_8 N39_8 1_555 1_555
C98_8 C97_8 1_555 1_555
C99_8 N40_8 1_555 1_555
C100_8 C99_8 1_555 1_555
C101_8 C102_8 1_555 1_555
C102_8 N41_8 1_555 1_555
C103_8 C102_8 1_555 1_555
C104_8 N42_8 1_555 1_555
C105_8 C104_8 1_555 1_555
C106_8 C107_8 1_555 1_555
C107_8 N43_8 1_555 1_555
C108_8 C107_8 1_555 1_555
C109_8 C108_8 1_555 1_555
C110_8 C109_8 1_555 1_555
C111_8 C112_8 1_555 1_555
C112_8 N45_8 1_555 1_555
C113_8 C98_8 1_555 1_555
C114_8 N46_8 1_555 1_555
C115_8 C114_8 1_555 1_555
C116_8 C117_8 1_555 1_555
C117_8 N47_8 1_555 1_555
C118_8 C73_8 1_555 1_555
C119_8 N48_8 1_555 1_555
C120_8 C119_8 1_555 1_555
C121_8 C122_8 1_555 1_555
C122_8 N49_8 1_555 1_555
C123_8 C43_8 1_555 1_555
C124_8 C123_8 1_555 1_555
C125_8 C124_8 1_555 1_555
C126_8 C127_8 1_555 1_555
C127_8 N51_8 1_555 1_555
C128_8 C3_8 1_555 1_555
C129_8 N52_8 1_555 1_555
C130_8 C129_8 1_555 1_555
C131_8 C132_8 1_555 1_555
C132_8 N53_8 1_555 1_555
C133_8 C108_8 1_555 1_555
C134_8 N54_8 1_555 1_555
C135_8 C134_8 1_555 1_555
C136_8 C137_8 1_555 1_555
C137_8 N55_8 1_555 1_555
C138_8 C103_8 1_555 1_555
C139_8 C138_8 1_555 1_555
C140_8 C139_8 1_555 1_555
C141_8 C142_8 1_555 1_555
C142_8 N57_8 1_555 1_555
C143_8 C58_8 1_555 1_555
C144_8 N58_8 1_555 1_555
C145_8 C144_8 1_555 1_555
C146_7 C147_8 1_555 1_555
C147_8 N59_8 1_555 1_555
C148_8 C18_8 1_555 1_555
C149_8 N60_8 1_555 1_555
C150_8 C149_8 1_555 1_555
H1_8 C1_8 1_555 1_555
H2_8 C1_8 1_555 1_555
H3_8 C1_8 1_555 1_555
H4_8 C5_8 1_555 1_555
H5_8 C5_8 1_555 1_555
H6_8 C5_8 1_555 1_555
H19_8 C16_8 1_555 1_555
H20_8 C16_8 1_555 1_555
H21_8 C16_8 1_555 1_555
H22_7 C20_7 1_555 1_555
H23_7 C20_7 1_555 1_555
H24_7 C20_7 1_555 1_555
H37_8 C31_8 1_555 1_555
H38_8 C31_8 1_555 1_555
H39_8 C31_8 1_555 1_555
H40_8 C35_8 1_555 1_555
H41_8 C35_8 1_555 1_555
H42_8 C35_8 1_555 1_555
H43_8 C36_8 1_555 1_555
H44_8 C36_8 1_555 1_555
H45_8 C36_8 1_555 1_555
H46_8 C40_8 1_555 1_555
H47_8 C40_8 1_555 1_555
H48_8 C40_8 1_555 1_555
H49_8 C41_8 1_555 1_555
H50_8 C41_8 1_555 1_555
H51_8 C41_8 1_555 1_555
H52_8 C45_8 1_555 1_555
H53_8 C45_8 1_555 1_555
H54_8 C45_8 1_555 1_555
H55_8 C46_8 1_555 1_555
H56_8 C46_8 1_555 1_555
H57_8 C46_8 1_555 1_555
H58_8 C50_8 1_555 1_555
H59_8 C50_8 1_555 1_555
H60_8 C50_8 1_555 1_555
H62_8 C51_8 1_555 1_555
H63_8 C51_8 1_555 1_555
H64_8 C55_8 1_555 1_555
H65_8 C55_8 1_555 1_555
H66_8 C55_8 1_555 1_555
H67_8 C56_8 1_555 1_555
H68_8 C56_8 1_555 1_555
H69_8 C56_8 1_555 1_555
H70_8 C60_8 1_555 1_555
H71_8 C60_8 1_555 1_555
H72_8 C60_8 1_555 1_555
H85_8 C71_8 1_555 1_555
H86_8 C71_8 1_555 1_555
H87_8 C71_8 1_555 1_555
H88_8 C75_8 1_555 1_555
H89_8 C75_8 1_555 1_555
H90_8 C75_8 1_555 1_555
H117_8 C96_8 1_555 1_555
H118_8 C100_8 1_555 1_555
H119_8 C100_8 1_555 1_555
H120_8 C100_8 1_555 1_555
H121_8 C101_8 1_555 1_555
H122_8 C101_8 1_555 1_555
H123_8 C101_8 1_555 1_555
H125_8 C105_8 1_555 1_555
H126_8 C105_8 1_555 1_555
H127_8 C106_8 1_555 1_555
H128_8 C106_8 1_555 1_555
H129_8 C106_8 1_555 1_555
H130_8 C110_8 1_555 1_555
H131_8 C110_8 1_555 1_555
H132_8 C110_8 1_555 1_555
H133_8 C111_8 1_555 1_555
H134_8 C111_8 1_555 1_555
H135_8 C111_8 1_555 1_555
H136_8 C115_8 1_555 1_555
H137_8 C115_8 1_555 1_555
H138_8 C115_8 1_555 1_555
H139_8 C116_8 1_555 1_555
H140_8 C116_8 1_555 1_555
H141_8 C116_8 1_555 1_555
H142_8 C120_8 1_555 1_555
H143_8 C120_8 1_555 1_555
H144_8 C120_8 1_555 1_555
H145_8 C121_8 1_555 1_555
H146_8 C121_8 1_555 1_555
H147_8 C121_8 1_555 1_555
H148_8 C125_8 1_555 1_555
H149_8 C125_8 1_555 1_555
H150_8 C125_8 1_555 1_555
H151_8 C126_8 1_555 1_555
H152_8 C126_8 1_555 1_555
H153_8 C126_8 1_555 1_555
H154_8 C130_8 1_555 1_555
H155_8 C130_8 1_555 1_555
H156_8 C130_8 1_555 1_555
H157_8 C131_8 1_555 1_555
H158_8 C131_8 1_555 1_555
H159_8 C131_8 1_555 1_555
H160_8 C135_8 1_555 1_555
H161_8 C135_8 1_555 1_555
H162_8 C135_8 1_555 1_555
H163_8 C136_8 1_555 1_555
H164_8 C136_8 1_555 1_555
H165_8 C136_8 1_555 1_555
H166_8 C140_8 1_555 1_555
H167_8 C140_8 1_555 1_555
H168_8 C140_8 1_555 1_555
H169_8 C141_8 1_555 1_555
H170_8 C141_8 1_555 1_555
H171_8 C141_8 1_555 1_555
H172_8 C145_8 1_555 1_555
H173_8 C145_8 1_555 1_555
H174_10 C145_8 1_555 1_555
H175_7 C146_7 1_555 1_555
H176_8 C146_7 1_555 1_555
H177_7 C146_7 1_555 1_555
H178_8 C150_8 1_555 1_555
H179_8 C150_8 1_555 1_555
H180_8 C150_8 1_555 1_555
N63_8 Ag1_8 1_555 1_555
N66_8 Ag4_8 1_555 1_555
N29_8 N30_8 1_555 1_555
N41_8 N42_8 1_555 1_555
N47_8 N48_8 1_555 1_555
N53_8 N54_8 1_555 1_555
N59_8 N60_8 1_555 1_555
C37_8 C38_8 1_555 1_555
C43_8 C44_8 1_555 1_555
C52_8 C53_8 1_555 1_555
C58_8 C59_8 1_555 1_555
C73_8 C74_8 1_555 1_555
C98_8 C99_8 1_555 1_555
C103_8 C104_8 1_555 1_555
C112_8 C113_8 1_555 1_555
C113_8 C114_8 1_555 1_555
C117_8 C118_8 1_555 1_555
C118_8 C119_8 1_555 1_555
C122_8 C123_8 1_555 1_555
C127_8 C128_8 1_555 1_555
C128_8 C129_8 1_555 1_555
C132_8 C133_8 1_555 1_555
C133_8 C134_8 1_555 1_555
C137_8 C138_8 1_555 1_555
C142_8 C143_8 1_555 1_555
C143_8 C144_8 1_555 1_555
C147_8 C148_8 1_555 1_555
C148_8 C149_8 1_555 1_555
Ag14_8 N26_8 1_555 1_555
Ag16_8 N31_8 1_555 1_555
Ag17_8 N32_8 1_555 1_555
Ag18_8 N34_8 1_555 1_555
Ag19_8 N37_8 1_555 1_555
Ag20_8 N38_8 1_555 1_555
N61_3 N4_8 1_555 1_555
N4_8 C9_8 1_555 1_555
N62_5 N63_8 1_555 1_555
N63_8 C14_8 1_555 1_555
N65_5 N66_8 1_555 1_555
N66_8 C29_8 1_555 1_555
N25_8 N26_8 1_555 1_555
N26_8 C64_8 1_555 1_555
N27_8 Ag14_8 1_555 1_555
N28_8 N27_8 1_555 1_555
N31_8 N32_8 1_555 1_555
N32_8 C79_8 1_555 1_555
N33_8 Ag17_8 1_555 1_555
N34_8 N33_8 1_555 1_555
N35_8 Ag18_8 1_555 1_555
N36_8 Ag16_8 1_555 1_555
N37_8 N38_8 1_555 1_555
N38_8 C94_8 1_555 1_555
C6_8 C7_8 1_555 1_555
C7_8 N61_3 1_555 1_555
C8_8 C7_8 1_555 1_555
C9_8 C8_8 1_555 1_555
C10_8 C9_8 1_555 1_555
C11_8 C12_8 1_555 1_555
C12_8 N62_5 1_555 1_555
C13_8 C12_8 1_555 1_555
C14_8 C13_8 1_555 1_555
C15_8 C14_8 1_555 1_555
C21_8 C22_8 1_555 1_555
C23_8 C22_8 1_555 1_555
C26_8 C27_8 1_555 1_555
C27_8 N65_5 1_555 1_555
C28_8 C27_8 1_555 1_555
C29_8 C28_8 1_555 1_555
C30_8 C29_8 1_555 1_555
C61_8 C62_8 1_555 1_555
C62_8 N25_8 1_555 1_555
C63_8 C13_8 1_555 1_555
C64_8 C63_8 1_555 1_555
C65_8 C64_8 1_555 1_555
C66_8 C67_8 1_555 1_555
C67_8 N27_8 1_555 1_555
C68_8 C23_8 1_555 1_555
C69_8 N28_8 1_555 1_555
C70_8 C69_8 1_555 1_555
C76_8 C77_8 1_555 1_555
C77_8 N31_8 1_555 1_555
C78_8 C77_8 1_555 1_555
C79_8 C78_8 1_555 1_555
C80_8 C79_8 1_555 1_555
C81_8 C82_8 1_555 1_555
C82_8 N33_8 1_555 1_555
C83_8 C8_8 1_555 1_555
C84_8 N34_8 1_555 1_555
C85_8 C84_8 1_555 1_555
C86_8 C87_8 1_555 1_555
C87_8 N35_8 1_555 1_555
C88_8 C28_8 1_555 1_555
C89_8 N36_8 1_555 1_555
C90_8 C89_8 1_555 1_555
C91_8 C92_8 1_555 1_555
C92_8 N37_8 1_555 1_555
C93_8 C78_8 1_555 1_555
C94_8 C93_8 1_555 1_555
C95_8 C94_8 1_555 1_555
H7_8 C6_8 1_555 1_555
H8_8 C6_8 1_555 1_555
H9_8 C6_8 1_555 1_555
H10_8 C10_8 1_555 1_555
H11_8 C10_8 1_555 1_555
H12_8 C10_8 1_555 1_555
H13_8 C11_8 1_555 1_555
H14_8 C11_8 1_555 1_555
H15_8 C11_8 1_555 1_555
H16_8 C15_8 1_555 1_555
H17_8 C15_8 1_555 1_555
H18_8 C15_8 1_555 1_555
H25_8 C21_8 1_555 1_555
H26_8 C21_8 1_555 1_555
H27_8 C21_8 1_555 1_555
H31_8 C26_8 1_555 1_555
H32_8 C26_8 1_555 1_555
H33_8 C26_8 1_555 1_555
H34_8 C30_8 1_555 1_555
H35_8 C30_8 1_555 1_555
H36_8 C30_8 1_555 1_555
H74_8 C61_8 1_555 1_555
H75_8 C61_8 1_555 1_555
H76_8 C65_8 1_555 1_555
H77_8 C65_8 1_555 1_555
H78_8 C65_8 1_555 1_555
H79_8 C66_8 1_555 1_555
H80_8 C66_8 1_555 1_555
H81_8 C66_8 1_555 1_555
H82_8 C70_8 1_555 1_555
H83_8 C70_8 1_555 1_555
H91_8 C76_8 1_555 1_555
H92_8 C76_8 1_555 1_555
H93_8 C76_8 1_555 1_555
H94_8 C80_8 1_555 1_555
H95_8 C80_8 1_555 1_555
H96_8 C80_8 1_555 1_555
H97_8 C81_8 1_555 1_555
H98_8 C81_8 1_555 1_555
H99_8 C81_8 1_555 1_555
H100_8 C85_8 1_555 1_555
H101_8 C85_8 1_555 1_555
H102_8 C85_8 1_555 1_555
H103_8 C86_8 1_555 1_555
H104_8 C86_8 1_555 1_555
H105_8 C86_8 1_555 1_555
H106_8 C90_8 1_555 1_555
H107_8 C90_8 1_555 1_555
H108_8 C90_8 1_555 1_555
H109_8 C91_8 1_555 1_555
H110_8 C91_8 1_555 1_555
H111_8 C91_8 1_555 1_555
H112_8 C95_8 1_555 1_555
H113_8 C95_8 1_555 1_555
H114_8 C95_8 1_555 1_555
N35_8 N36_8 1_555 1_555
C62_8 C63_8 1_555 1_555
C67_8 C68_8 1_555 1_555
C68_8 C69_8 1_555 1_555
C82_8 C83_8 1_555 1_555
C83_8 C84_8 1_555 1_555
C87_8 C88_8 1_555 1_555
C88_8 C89_8 1_555 1_555
C92_8 C93_8 1_555 1_555
Ag36_3 N10_8 1_555 1_555
N64_3 N10_8 1_555 1_555
N10_8 C24_8 1_555 1_555
C25_8 C24_8 1_555 1_555
H28_8 C25_8 1_555 1_555
H29_8 C25_8 1_555 1_555
H30_8 C25_8 1_555 1_555
H22_8 C20_8 1_555 1_555
H23_8 C20_8 1_555 1_555
H24_8 C20_8 1_555 1_555
H175_8 C146_8 1_555 1_555
H177_8 C146_8 1_555 1_555
N15_6 N16_6 1_555 1_555
N16_6 C39_9 1_555 1_555
C34_9 C33_9 1_555 1_555
C35_9 C34_9 1_555 1_555
C36_9 C37_9 1_555 1_555
C37_9 N15_6 1_555 1_555
C38_9 C33_9 1_555 1_555
C39_9 C38_9 1_555 1_555
C40_9 C39_9 1_555 1_555
H40_9 C35_9 1_555 1_555
H41_9 C35_9 1_555 1_555
H42_9 C35_9 1_555 1_555
H43_9 C36_9 1_555 1_555
H44_9 C36_9 1_555 1_555
H45_9 C36_9 1_555 1_555
H46_9 C40_9 1_555 1_555
H47_9 C40_9 1_555 1_555
H48_9 C40_9 1_555 1_555
Ag37_6 N15_6 1_555 1_555
Ag38_6 N16_6 1_555 1_555
C37_9 C38_9 1_555 1_555
Ag6_6 N10_9 1_555 1_555
Ag14_9 N26_9 1_555 1_555
Ag16_9 N31_9 1_555 1_555
Ag17_9 N32_9 1_555 1_555
Ag18_9 N34_9 1_555 1_555
Ag19_9 N37_9 1_555 1_555
Ag20_9 N38_9 1_555 1_555
N3_6 N4_9 1_555 1_555
N4_9 C9_9 1_555 1_555
N5_4 N6 1_555 1_555
N6 C14_9 1_555 1_555
N9_6 N10_9 1_555 1_555
N10_9 C24_9 1_555 1_555
N11_4 N12 1_555 1_555
N12 C29_9 1_555 1_555
N25_9 N26_9 1_555 1_555
N26_9 C64_9 1_555 1_555
N27_9 Ag14_9 1_555 1_555
N28_9 N27_9 1_555 1_555
N31_9 N32_9 1_555 1_555
N32_9 C79_9 1_555 1_555
N33_9 Ag17_9 1_555 1_555
N34_9 N33_9 1_555 1_555
N35_9 Ag18_9 1_555 1_555
N36_9 Ag16_9 1_555 1_555
N37_9 N38_9 1_555 1_555
N38_9 C94_9 1_555 1_555
C6_9 C7_9 1_555 1_555
C7_9 N3_6 1_555 1_555
C8_9 C7_9 1_555 1_555
C9_9 C8_9 1_555 1_555
C10_9 C9_9 1_555 1_555
C11_9 C12_9 1_555 1_555
C12_9 N5_4 1_555 1_555
C13_9 C12_9 1_555 1_555
C14_9 C13_9 1_555 1_555
C15_9 C14_9 1_555 1_555
C21_9 C22_9 1_555 1_555
C22_9 N9_6 1_555 1_555
C23_9 C22_9 1_555 1_555
C24_9 C23_9 1_555 1_555
C25_9 C24_9 1_555 1_555
C26_9 C27_9 1_555 1_555
C27_9 N11_4 1_555 1_555
C28_9 C27_9 1_555 1_555
C29_9 C28_9 1_555 1_555
C30_9 C29_9 1_555 1_555
C61_9 C62_9 1_555 1_555
C62_9 N25_9 1_555 1_555
C63_9 C13_9 1_555 1_555
C64_9 C63_9 1_555 1_555
C65_9 C64_9 1_555 1_555
C66_9 C67_9 1_555 1_555
C67_9 N27_9 1_555 1_555
C68_9 C23_9 1_555 1_555
C69_9 N28_9 1_555 1_555
C70_9 C69_9 1_555 1_555
C76_9 C77_9 1_555 1_555
C77_9 N31_9 1_555 1_555
C78_9 C77_9 1_555 1_555
C79_9 C78_9 1_555 1_555
C80_9 C79_9 1_555 1_555
C81_9 C82_9 1_555 1_555
C82_9 N33_9 1_555 1_555
C83_9 C8_9 1_555 1_555
C84_9 N34_9 1_555 1_555
C85_9 C84_9 1_555 1_555
C86_9 C87_9 1_555 1_555
C87_9 N35_9 1_555 1_555
C88_9 C28_9 1_555 1_555
C89_9 N36_9 1_555 1_555
C90_9 C89_9 1_555 1_555
C91_9 C92_9 1_555 1_555
C92_9 N37_9 1_555 1_555
C93_9 C78_9 1_555 1_555
C94_9 C93_9 1_555 1_555
C95_9 C94_9 1_555 1_555
H7_9 C6_9 1_555 1_555
H8_9 C6_9 1_555 1_555
H9_9 C6_9 1_555 1_555
H10_9 C10_9 1_555 1_555
H11_9 C10_9 1_555 1_555
H12_9 C10_9 1_555 1_555
H13_9 C11_9 1_555 1_555
H14_9 C11_9 1_555 1_555
H15_9 C11_9 1_555 1_555
H16_9 C15_9 1_555 1_555
H17_9 C15_9 1_555 1_555
H18_9 C15_9 1_555 1_555
H25_9 C21_9 1_555 1_555
H26_9 C21_9 1_555 1_555
H27_9 C21_9 1_555 1_555
H28_9 C25_9 1_555 1_555
H29_9 C25_9 1_555 1_555
H30_9 C25_9 1_555 1_555
H31_9 C26_9 1_555 1_555
H32_9 C26_9 1_555 1_555
H33_9 C26_9 1_555 1_555
H34_9 C30_9 1_555 1_555
H35_9 C30_9 1_555 1_555
H36_9 C30_9 1_555 1_555
H74_9 C61_9 1_555 1_555
H75_9 C61_9 1_555 1_555
H76_9 C65_9 1_555 1_555
H77_9 C65_9 1_555 1_555
H78_9 C65_9 1_555 1_555
H79_9 C66_9 1_555 1_555
H80_9 C66_9 1_555 1_555
H81_9 C66_9 1_555 1_555
H82_9 C70_9 1_555 1_555
H83_9 C70_9 1_555 1_555
H91_9 C76_9 1_555 1_555
H92_9 C76_9 1_555 1_555
H93_9 C76_9 1_555 1_555
H94_9 C80_9 1_555 1_555
H95_9 C80_9 1_555 1_555
H96_9 C80_9 1_555 1_555
H97_9 C81_9 1_555 1_555
H98_9 C81_9 1_555 1_555
H99_9 C81_9 1_555 1_555
H100_9 C85_9 1_555 1_555
H101_9 C85_9 1_555 1_555
H102_9 C85_9 1_555 1_555
H103_9 C86_9 1_555 1_555
H104_9 C86_9 1_555 1_555
H105_9 C86_9 1_555 1_555
H106_9 C90_9 1_555 1_555
H107_9 C90_9 1_555 1_555
H108_9 C90_9 1_555 1_555
H109_9 C91_9 1_555 1_555
H110_9 C91_9 1_555 1_555
H111_9 C91_9 1_555 1_555
H112_9 C95_9 1_555 1_555
H113_9 C95_9 1_555 1_555
H114_9 C95_9 1_555 1_555
Ag31 N6 1_555 1_555
Ag33_4 N5_4 1_555 1_555
Ag34 N12 1_555 1_555
Ag35_6 N9_6 1_555 1_555
Ag36_4 N11_4 1_555 1_555
N65_6 Ag6_6 1_555 1_555
N35_9 N36_9 1_555 1_555
C62_9 C63_9 1_555 1_555
C67_9 C68_9 1_555 1_555
C68_9 C69_9 1_555 1_555
C82_9 C83_9 1_555 1_555
C83_9 C84_9 1_555 1_555
C87_9 C88_9 1_555 1_555
C88_9 C89_9 1_555 1_555
C92_9 C93_9 1_555 1_555
Ag31 N1_9 1_555 1_555
Ag2_4 N2_9 1_555 1_555
Ag34 N7_9 1_555 1_555
Ag5_4 N8_9 1_555 1_555
Ag7_9 N13_9 1_555 1_555
Ag8_4 N14_9 1_555 1_555
Ag9_4 N17_9 1_555 1_555
Ag10_9 N19_9 1_555 1_555
Ag11_6 N20_9 1_555 1_555
Ag12_6 N23_9 1_555 1_555
Ag21_9 N40_9 1_555 1_555
Ag22_9 N43_9 1_555 1_555
Ag23_9 N44_9 1_555 1_555
Ag24_9 N46_9 1_555 1_555
Ag25_9 N49_9 1_555 1_555
Ag26_9 N50_9 1_555 1_555
Ag27_9 N52_9 1_555 1_555
Ag28_9 N55_9 1_555 1_555
Ag29_9 N56_9 1_555 1_555
Ag30_9 N58_9 1_555 1_555
N1_9 N2_9 1_555 1_555
N2_9 C4_9 1_555 1_555
N7_9 N8_9 1_555 1_555
N8_9 C19_9 1_555 1_555
N13_9 N14_9 1_555 1_555
N17_9 N18_9 1_555 1_555
N18_9 Ag7_9 1_555 1_555
N19_9 N20_9 1_555 1_555
N20_9 C49_9 1_555 1_555
N21_4 N22_4 1_555 1_555
N22_4 C54_9 1_555 1_555
N23_9 N24_9 1_555 1_555
N24_9 Ag10_9 1_555 1_555
N29_9 Ag15_9 1_555 1_555
N30_9 Ag13_9 1_555 1_555
N40_9 N39_9 1_555 1_555
N41_9 Ag21_9 1_555 1_555
N43_9 N44_9 1_555 1_555
N44_9 C109_9 1_555 1_555
N45_9 Ag23_9 1_555 1_555
N46_9 N45_9 1_555 1_555
N47_9 Ag24_9 1_555 1_555
N48_9 Ag22_9 1_555 1_555
N49_9 N50_9 1_555 1_555
N50_9 C124_9 1_555 1_555
N51_9 Ag26_9 1_555 1_555
N52_9 N51_9 1_555 1_555
N53_9 Ag27_9 1_555 1_555
N54_9 Ag25_9 1_555 1_555
N55_9 N56_9 1_555 1_555
N56_9 C139_9 1_555 1_555
N57_9 Ag29_9 1_555 1_555
N58_9 N57_9 1_555 1_555
N59_9 Ag30_9 1_555 1_555
N60_9 Ag28_9 1_555 1_555
C1_9 C2_9 1_555 1_555
C2_9 N1_9 1_555 1_555
C3_9 C2_9 1_555 1_555
C4_9 C3_9 1_555 1_555
C5_9 C4_9 1_555 1_555
C16_9 C17_9 1_555 1_555
C17_9 N7_9 1_555 1_555
C18_9 C17_9 1_555 1_555
C19_9 C18_9 1_555 1_555
C20_9 C19_9 1_555 1_555
C31_9 C32_9 1_555 1_555
C32_9 N13_9 1_555 1_555
C41_9 C42_9 1_555 1_555
C42_9 N17_9 1_555 1_555
C43_9 C42_9 1_555 1_555
C44_9 N18_9 1_555 1_555
C45_9 C44_9 1_555 1_555
C46_9 C47_9 1_555 1_555
C47_9 N19_9 1_555 1_555
C48_9 C47_9 1_555 1_555
C49_9 C48_9 1_555 1_555
C50_9 C49_9 1_555 1_555
C51_9 C52_9 1_555 1_555
C52_9 N21_4 1_555 1_555
C53_9 C48_9 1_555 1_555
C54_9 C53_9 1_555 1_555
C55_9 C54_9 1_555 1_555
C56_9 C57_9 1_555 1_555
C57_9 N23_9 1_555 1_555
C58_9 C57_9 1_555 1_555
C59_9 N24_9 1_555 1_555
C60_9 C59_9 1_555 1_555
C71_9 C72_9 1_555 1_555
C72_9 N29_9 1_555 1_555
C73_9 C72_9 1_555 1_555
C74_9 N30_9 1_555 1_555
C75_9 C74_9 1_555 1_555
C96_9 C97_9 1_555 1_555
C97_9 N39_9 1_555 1_555
C98_9 C97_9 1_555 1_555
C99_9 N40_9 1_555 1_555
C100_9 C99_9 1_555 1_555
C101_9 C102_9 1_555 1_555
C102_9 N41_9 1_555 1_555
C103_9 C102_9 1_555 1_555
C104_9 N42_9 1_555 1_555
C105_9 C104_9 1_555 1_555
C106_9 C107_9 1_555 1_555
C107_9 N43_9 1_555 1_555
C108_9 C107_9 1_555 1_555
C109_9 C108_9 1_555 1_555
C110_9 C109_9 1_555 1_555
C111_9 C112_9 1_555 1_555
C112_9 N45_9 1_555 1_555
C113_9 C98_9 1_555 1_555
C114_9 N46_9 1_555 1_555
C115_9 C114_9 1_555 1_555
C116_9 C117_9 1_555 1_555
C117_9 N47_9 1_555 1_555
C118_9 C73_9 1_555 1_555
C119_9 N48_9 1_555 1_555
C120_9 C119_9 1_555 1_555
C121_9 C122_9 1_555 1_555
C122_9 N49_9 1_555 1_555
C123_9 C43_9 1_555 1_555
C124_9 C123_9 1_555 1_555
C125_9 C124_9 1_555 1_555
C126_9 C127_9 1_555 1_555
C127_9 N51_9 1_555 1_555
C128_9 C3_9 1_555 1_555
C129_9 N52_9 1_555 1_555
C130_9 C129_9 1_555 1_555
C131_9 C132_9 1_555 1_555
C132_9 N53_9 1_555 1_555
C133_9 C108_9 1_555 1_555
C134_9 N54_9 1_555 1_555
C135_9 C134_9 1_555 1_555
C136_9 C137_9 1_555 1_555
C137_9 N55_9 1_555 1_555
C138_9 C103_9 1_555 1_555
C139_9 C138_9 1_555 1_555
C140_9 C139_9 1_555 1_555
C141_9 C142_9 1_555 1_555
C142_9 N57_9 1_555 1_555
C143_9 C58_9 1_555 1_555
C144_9 N58_9 1_555 1_555
C145_9 C144_9 1_555 1_555
C146_9 C147_9 1_555 1_555
C147_9 N59_9 1_555 1_555
C148_9 C18_9 1_555 1_555
C149_9 N60_9 1_555 1_555
C150_9 C149_9 1_555 1_555
H1_9 C1_9 1_555 1_555
H2_9 C1_9 1_555 1_555
H3_9 C1_9 1_555 1_555
H4_9 C5_9 1_555 1_555
H5_9 C5_9 1_555 1_555
H6_9 C5_9 1_555 1_555
H19_9 C16_9 1_555 1_555
H20_9 C16_9 1_555 1_555
H21_9 C16_9 1_555 1_555
H22_9 C20_9 1_555 1_555
H23_9 C20_9 1_555 1_555
H24_9 C20_9 1_555 1_555
H37_9 C31_9 1_555 1_555
H38_9 C31_9 1_555 1_555
H39_9 C31_9 1_555 1_555
H49_9 C41_9 1_555 1_555
H50_9 C41_9 1_555 1_555
H51_9 C41_9 1_555 1_555
H52_9 C45_9 1_555 1_555
H53_9 C45_9 1_555 1_555
H54_9 C45_9 1_555 1_555
H55_9 C46_9 1_555 1_555
H56_9 C46_9 1_555 1_555
H57_9 C46_9 1_555 1_555
H58_9 C50_9 1_555 1_555
H59_9 C50_9 1_555 1_555
H60_9 C50_9 1_555 1_555
H61_9 C51_9 1_555 1_555
H62_9 C51_9 1_555 1_555
H63_9 C51_9 1_555 1_555
H64_9 C55_9 1_555 1_555
H65_9 C55_9 1_555 1_555
H66_9 C55_9 1_555 1_555
H67_9 C56_9 1_555 1_555
H68_9 C56_9 1_555 1_555
H69_9 C56_9 1_555 1_555
H70_9 C60_9 1_555 1_555
H71_9 C60_9 1_555 1_555
H72_9 C60_9 1_555 1_555
H85_9 C71_9 1_555 1_555
H86_9 C71_9 1_555 1_555
H87_9 C71_9 1_555 1_555
H88_9 C75_9 1_555 1_555
H89_9 C75_9 1_555 1_555
H90_9 C75_9 1_555 1_555
H117_9 C96_9 1_555 1_555
H118_9 C100_9 1_555 1_555
H119_9 C100_9 1_555 1_555
H120_9 C100_9 1_555 1_555
H121_9 C101_9 1_555 1_555
H122_9 C101_9 1_555 1_555
H123_9 C101_9 1_555 1_555
H125_9 C105_9 1_555 1_555
H126_9 C105_9 1_555 1_555
H127_9 C106_9 1_555 1_555
H128_9 C106_9 1_555 1_555
H129_9 C106_9 1_555 1_555
H130_9 C110_9 1_555 1_555
H131_9 C110_9 1_555 1_555
H132_9 C110_9 1_555 1_555
H133_9 C111_9 1_555 1_555
H134_9 C111_9 1_555 1_555
H135_9 C111_9 1_555 1_555
H136_9 C115_9 1_555 1_555
H137_9 C115_9 1_555 1_555
H138_9 C115_9 1_555 1_555
H139_9 C116_9 1_555 1_555
H140_9 C116_9 1_555 1_555
H141_9 C116_9 1_555 1_555
H142_9 C120_9 1_555 1_555
H143_9 C120_9 1_555 1_555
H144_9 C120_9 1_555 1_555
H145_9 C121_9 1_555 1_555
H146_9 C121_9 1_555 1_555
H147_9 C121_9 1_555 1_555
H148_9 C125_9 1_555 1_555
H149_9 C125_9 1_555 1_555
H150_9 C125_9 1_555 1_555
H151_9 C126_9 1_555 1_555
H152_9 C126_9 1_555 1_555
H153_9 C126_9 1_555 1_555
H154_9 C130_9 1_555 1_555
H155_9 C130_9 1_555 1_555
H156_9 C130_9 1_555 1_555
H157_9 C131_9 1_555 1_555
H158_9 C131_9 1_555 1_555
H159_9 C131_9 1_555 1_555
H160_9 C135_9 1_555 1_555
H161_9 C135_9 1_555 1_555
H162_9 C135_9 1_555 1_555
H163_9 C136_9 1_555 1_555
H164_9 C136_9 1_555 1_555
H165_9 C136_9 1_555 1_555
H166_9 C140_9 1_555 1_555
H167_9 C140_9 1_555 1_555
H168_9 C140_9 1_555 1_555
H169_9 C141_9 1_555 1_555
H170_9 C141_9 1_555 1_555
H171_9 C141_9 1_555 1_555
H172_9 C145_9 1_555 1_555
H173_9 C145_9 1_555 1_555
H174_11 C145_9 1_555 1_555
H175_9 C146_9 1_555 1_555
H176_9 C146_9 1_555 1_555
H177_9 C146_9 1_555 1_555
H178_9 C150_9 1_555 1_555
H179_9 C150_9 1_555 1_555
H180_9 C150_9 1_555 1_555
Ag39_4 N21_4 1_555 1_555
Ag40_4 N22_4 1_555 1_555
N61_4 Ag2_4 1_555 1_555
N64_4 Ag5_4 1_555 1_555
N67_4 Ag8_4 1_555 1_555
N68_4 Ag9_4 1_555 1_555
N69_6 Ag11_6 1_555 1_555
N70_6 Ag12_6 1_555 1_555
N29_9 N30_9 1_555 1_555
N41_9 N42_9 1_555 1_555
N47_9 N48_9 1_555 1_555
N53_9 N54_9 1_555 1_555
N59_9 N60_9 1_555 1_555
C43_9 C44_9 1_555 1_555
C52_9 C53_9 1_555 1_555
C58_9 C59_9 1_555 1_555
C73_9 C74_9 1_555 1_555
C98_9 C99_9 1_555 1_555
C103_9 C104_9 1_555 1_555
C112_9 C113_9 1_555 1_555
C113_9 C114_9 1_555 1_555
C117_9 C118_9 1_555 1_555
C118_9 C119_9 1_555 1_555
C122_9 C123_9 1_555 1_555
C127_9 C128_9 1_555 1_555
C128_9 C129_9 1_555 1_555
C132_9 C133_9 1_555 1_555
C133_9 C134_9 1_555 1_555
C137_9 C138_9 1_555 1_555
C142_9 C143_9 1_555 1_555
C143_9 C144_9 1_555 1_555
C147_9 C148_9 1_555 1_555
C148_9 C149_9 1_555 1_555
N67_4 N68_4 1_555 1_555
N69_6 N70_6 1_555 1_555
N65_6 N12_2 1_555 1_555
N12_2 C29_10 1_555 1_555
N35_10 Ag18_10 1_555 1_555
N36_10 Ag16_10 1_555 1_555
C26_10 C27_10 1_555 1_555
C27_10 N65_6 1_555 1_555
C28_10 C27_10 1_555 1_555
C29_10 C28_10 1_555 1_555
C30_10 C29_10 1_555 1_555
C86_10 C87_10 1_555 1_555
C87_10 N35_10 1_555 1_555
C88_10 C28_10 1_555 1_555
C89_10 N36_10 1_555 1_555
C90_10 C89_10 1_555 1_555
H31_10 C26_10 1_555 1_555
H32_10 C26_10 1_555 1_555
H33_10 C26_10 1_555 1_555
H34_10 C30_10 1_555 1_555
H35_10 C30_10 1_555 1_555
H36_10 C30_10 1_555 1_555
H103_10 C86_10 1_555 1_555
H104_10 C86_10 1_555 1_555
H105_10 C86_10 1_555 1_555
H106_10 C90_10 1_555 1_555
H107_10 C90_10 1_555 1_555
H108_10 C90_10 1_555 1_555
Ag34_2 N12_2 1_555 1_555
N35_10 N36_10 1_555 1_555
C87_10 C88_10 1_555 1_555
C88_10 C89_10 1_555 1_555
Ag32_6 N2_10 1_555 1_555
Ag3_7 N4_10 1_555 1_555
Ag34_2 N7_10 1_555 1_555
Ag35_6 N8_10 1_555 1_555
Ag6_7 N10_10 1_555 1_555
Ag7_10 N13_10 1_555 1_555
Ag37_6 N14_10 1_555 1_555
Ag38_6 N17_10 1_555 1_555
Ag10_10 N19_10 1_555 1_555
Ag11_7 N20_10 1_555 1_555
Ag12_7 N23_10 1_555 1_555
Ag13_10 N25_10 1_555 1_555
Ag14_10 N26_10 1_555 1_555
Ag15_10 N28_10 1_555 1_555
Ag17_10 N32_10 1_555 1_555
Ag19_10 N37_10 1_555 1_555
Ag20_10 N38_10 1_555 1_555
Ag21_10 N40_10 1_555 1_555
Ag22_10 N43_10 1_555 1_555
Ag23_10 N44_10 1_555 1_555
Ag24_10 N46_10 1_555 1_555
Ag25_10 N49_10 1_555 1_555
Ag26_10 N50_10 1_555 1_555
Ag27_10 N52_10 1_555 1_555
Ag28_10 N55_10 1_555 1_555
Ag29_10 N56_10 1_555 1_555
Ag30_10 N58_10 1_555 1_555
N1_10 N2_10 1_555 1_555
N2_10 C4_10 1_555 1_555
N3_7 N4_10 1_555 1_555
N4_10 C9_10 1_555 1_555
N62_6 N6_2 1_555 1_555
N6_2 C14_10 1_555 1_555
N7_10 N8_10 1_555 1_555
N8_10 C19_10 1_555 1_555
N9_7 N10_10 1_555 1_555
N10_10 C24_10 1_555 1_555
N13_10 N14_10 1_555 1_555
N14_10 C34_10 1_555 1_555
N15_7 N16_7 1_555 1_555
N16_7 C39_10 1_555 1_555
N17_10 N18_10 1_555 1_555
N18_10 Ag7_10 1_555 1_555
N19_10 N20_10 1_555 1_555
N20_10 C49_10 1_555 1_555
N70_6 C54_10 1_555 1_555
N23_10 N24_10 1_555 1_555
N24_10 Ag10_10 1_555 1_555
N25_10 N26_10 1_555 1_555
N26_10 C64_10 1_555 1_555
N27_10 Ag14_10 1_555 1_555
N28_10 N27_10 1_555 1_555
N29_10 Ag15_10 1_555 1_555
N30_10 Ag13_10 1_555 1_555
N31_10 N32_10 1_555 1_555
N32_10 C79_10 1_555 1_555
N33_10 Ag17_10 1_555 1_555
N34_10 N33_10 1_555 1_555
N37_10 N38_10 1_555 1_555
N38_10 C94_10 1_555 1_555
N39_10 Ag20_10 1_555 1_555
N40_10 N39_10 1_555 1_555
N41_10 Ag21_10 1_555 1_555
N42_10 Ag19_10 1_555 1_555
N43_10 N44_10 1_555 1_555
N44_10 C109_10 1_555 1_555
N45_10 Ag23_10 1_555 1_555
N46_10 N45_10 1_555 1_555
N47_10 Ag24_10 1_555 1_555
N48_10 Ag22_10 1_555 1_555
N49_10 N50_10 1_555 1_555
N50_10 C124_10 1_555 1_555
N51_10 Ag26_10 1_555 1_555
N52_10 N51_10 1_555 1_555
N53_10 Ag27_10 1_555 1_555
N54_10 Ag25_10 1_555 1_555
N55_10 N56_10 1_555 1_555
N56_10 C139_10 1_555 1_555
N57_10 Ag29_10 1_555 1_555
N58_10 N57_10 1_555 1_555
N59_10 Ag30_10 1_555 1_555
N60_10 Ag28_10 1_555 1_555
C1_10 C2_10 1_555 1_555
C2_10 N1_10 1_555 1_555
C3_10 C2_10 1_555 1_555
C4_10 C3_10 1_555 1_555
C5_10 C4_10 1_555 1_555
C6_10 C7_10 1_555 1_555
C7_10 N3_7 1_555 1_555
C8_10 C7_10 1_555 1_555
C9_10 C8_10 1_555 1_555
C10_10 C9_10 1_555 1_555
C12_10 N62_6 1_555 1_555
C13_10 C12_10 1_555 1_555
C14_10 C13_10 1_555 1_555
C15_10 C14_10 1_555 1_555
C16_10 C17_10 1_555 1_555
C17_10 N7_10 1_555 1_555
C18_10 C17_10 1_555 1_555
C19_10 C18_10 1_555 1_555
C20_10 C19_10 1_555 1_555
C21_10 C22_10 1_555 1_555
C22_10 N9_7 1_555 1_555
C23_10 C22_10 1_555 1_555
C24_10 C23_10 1_555 1_555
C25_10 C24_10 1_555 1_555
C31_10 C32_10 1_555 1_555
C32_10 N13_10 1_555 1_555
C33_10 C32_10 1_555 1_555
C34_10 C33_10 1_555 1_555
C35_10 C34_10 1_555 1_555
C36_10 C37_10 1_555 1_555
C37_10 N15_7 1_555 1_555
C38_10 C33_10 1_555 1_555
C39_10 C38_10 1_555 1_555
C40_10 C39_10 1_555 1_555
C41_10 C42_10 1_555 1_555
C42_10 N17_10 1_555 1_555
C43_10 C42_10 1_555 1_555
C44_10 N18_10 1_555 1_555
C45_10 C44_10 1_555 1_555
C46_10 C47_10 1_555 1_555
C47_10 N19_10 1_555 1_555
C48_10 C47_10 1_555 1_555
C49_10 C48_10 1_555 1_555
C50_10 C49_10 1_555 1_555
C51_10 C52_10 1_555 1_555
C52_10 N69_6 1_555 1_555
C53_10 C48_10 1_555 1_555
C54_10 C53_10 1_555 1_555
C55_10 C54_10 1_555 1_555
C56_10 C57_10 1_555 1_555
C57_10 N23_10 1_555 1_555
C58_10 C57_10 1_555 1_555
C59_10 N24_10 1_555 1_555
C60_10 C59_10 1_555 1_555
C61_10 C62_10 1_555 1_555
C62_10 N25_10 1_555 1_555
C63_10 C13_10 1_555 1_555
C64_10 C63_10 1_555 1_555
C65_10 C64_10 1_555 1_555
C66_10 C67_10 1_555 1_555
C67_10 N27_10 1_555 1_555
C68_10 C23_10 1_555 1_555
C69_10 N28_10 1_555 1_555
C70_10 C69_10 1_555 1_555
C71_10 C72_10 1_555 1_555
C72_10 N29_10 1_555 1_555
C73_10 C72_10 1_555 1_555
C74_10 N30_10 1_555 1_555
C75_10 C74_10 1_555 1_555
C76_10 C77_10 1_555 1_555
C77_10 N31_10 1_555 1_555
C78_10 C77_10 1_555 1_555
C79_10 C78_10 1_555 1_555
C80_10 C79_10 1_555 1_555
C81_10 C82_10 1_555 1_555
C82_10 N33_10 1_555 1_555
C83_10 C8_10 1_555 1_555
C84_10 N34_10 1_555 1_555
C85_10 C84_10 1_555 1_555
C91_10 C92_10 1_555 1_555
C92_10 N37_10 1_555 1_555
C93_10 C78_10 1_555 1_555
C94_10 C93_10 1_555 1_555
C95_10 C94_10 1_555 1_555
C96_10 C97_10 1_555 1_555
C97_10 N39_10 1_555 1_555
C98_10 C97_10 1_555 1_555
C99_10 N40_10 1_555 1_555
C100_10 C99_10 1_555 1_555
C101_10 C102_10 1_555 1_555
C102_10 N41_10 1_555 1_555
C103_10 C102_10 1_555 1_555
C104_10 N42_10 1_555 1_555
C105_10 C104_10 1_555 1_555
C106_10 C107_10 1_555 1_555
C107_10 N43_10 1_555 1_555
C108_10 C107_10 1_555 1_555
C109_10 C108_10 1_555 1_555
C110_10 C109_10 1_555 1_555
C111_10 C112_10 1_555 1_555
C112_10 N45_10 1_555 1_555
C113_10 C98_10 1_555 1_555
C114_10 N46_10 1_555 1_555
C115_10 C114_10 1_555 1_555
C116_10 C117_10 1_555 1_555
C117_10 N47_10 1_555 1_555
C118_10 C73_10 1_555 1_555
C119_10 N48_10 1_555 1_555
C120_10 C119_10 1_555 1_555
C121_10 C122_10 1_555 1_555
C122_10 N49_10 1_555 1_555
C123_10 C43_10 1_555 1_555
C124_10 C123_10 1_555 1_555
C125_10 C124_10 1_555 1_555
C126_10 C127_10 1_555 1_555
C127_10 N51_10 1_555 1_555
C128_10 C3_10 1_555 1_555
C129_10 N52_10 1_555 1_555
C130_10 C129_10 1_555 1_555
C131_10 C132_10 1_555 1_555
C132_10 N53_10 1_555 1_555
C133_10 C108_10 1_555 1_555
C134_10 N54_10 1_555 1_555
C135_10 C134_10 1_555 1_555
C136_10 C137_10 1_555 1_555
C137_10 N55_10 1_555 1_555
C138_10 C103_10 1_555 1_555
C139_10 C138_10 1_555 1_555
C140_10 C139_10 1_555 1_555
C141_10 C142_10 1_555 1_555
C142_10 N57_10 1_555 1_555
C143_10 C58_10 1_555 1_555
C144_10 N58_10 1_555 1_555
C145_10 C144_10 1_555 1_555
C146_10 C147_10 1_555 1_555
C147_10 N59_10 1_555 1_555
C148_10 C18_10 1_555 1_555
C149_10 N60_10 1_555 1_555
C150_10 C149_10 1_555 1_555
H2_10 C1_10 1_555 1_555
H3_10 C1_10 1_555 1_555
H4_10 C5_10 1_555 1_555
H5_10 C5_10 1_555 1_555
H6_10 C5_10 1_555 1_555
H7_10 C6_10 1_555 1_555
H8_10 C6_10 1_555 1_555
H9_10 C6_10 1_555 1_555
H10_10 C10_10 1_555 1_555
H11_10 C10_10 1_555 1_555
H12_10 C10_10 1_555 1_555
H16_10 C15_10 1_555 1_555
H17_10 C15_10 1_555 1_555
H18_10 C15_10 1_555 1_555
H19_10 C16_10 1_555 1_555
H20_10 C16_10 1_555 1_555
H21_10 C16_10 1_555 1_555
H22_10 C20_10 1_555 1_555
H23_10 C20_10 1_555 1_555
H24_10 C20_10 1_555 1_555
H25_10 C21_10 1_555 1_555
H26_10 C21_10 1_555 1_555
H27_10 C21_10 1_555 1_555
H28_10 C25_10 1_555 1_555
H29_10 C25_10 1_555 1_555
H30_10 C25_10 1_555 1_555
H37_10 C31_10 1_555 1_555
H38_10 C31_10 1_555 1_555
H39_10 C31_10 1_555 1_555
H40_10 C35_10 1_555 1_555
H41_10 C35_10 1_555 1_555
H42_10 C35_10 1_555 1_555
H43_10 C36_10 1_555 1_555
H44_10 C36_10 1_555 1_555
H45_10 C36_10 1_555 1_555
H46_10 C40_10 1_555 1_555
H47_10 C40_10 1_555 1_555
H48_10 C40_10 1_555 1_555
H49_10 C41_10 1_555 1_555
H50_10 C41_10 1_555 1_555
H51_10 C41_10 1_555 1_555
H52_10 C45_10 1_555 1_555
H53_10 C45_10 1_555 1_555
H54_10 C45_10 1_555 1_555
H55_10 C46_10 1_555 1_555
H56_10 C46_10 1_555 1_555
H57_10 C46_10 1_555 1_555
H58_10 C50_10 1_555 1_555
H59_10 C50_10 1_555 1_555
H60_10 C50_10 1_555 1_555
H61_10 C51_10 1_555 1_555
H62_10 C51_10 1_555 1_555
H63_10 C51_10 1_555 1_555
H64_10 C55_10 1_555 1_555
H65_10 C55_10 1_555 1_555
H66_10 C55_10 1_555 1_555
H67_10 C56_10 1_555 1_555
H68_10 C56_10 1_555 1_555
H69_10 C56_10 1_555 1_555
H70_10 C60_10 1_555 1_555
H71_10 C60_10 1_555 1_555
H72_10 C60_10 1_555 1_555
H73_10 C61_10 1_555 1_555
H74_10 C61_10 1_555 1_555
H75_10 C61_10 1_555 1_555
H76_10 C65_10 1_555 1_555
H77_10 C65_10 1_555 1_555
H79_10 C66_10 1_555 1_555
H80_10 C66_10 1_555 1_555
H81_10 C66_10 1_555 1_555
H82_10 C70_10 1_555 1_555
H83_10 C70_10 1_555 1_555
H84_10 C70_10 1_555 1_555
H85_10 C71_10 1_555 1_555
H86_10 C71_10 1_555 1_555
H87_10 C71_10 1_555 1_555
H88_10 C75_10 1_555 1_555
H89_10 C75_10 1_555 1_555
H90_10 C75_10 1_555 1_555
H92_10 C76_10 1_555 1_555
H93_10 C76_10 1_555 1_555
H94_10 C80_10 1_555 1_555
H95_10 C80_10 1_555 1_555
H96_10 C80_10 1_555 1_555
H97_10 C81_10 1_555 1_555
H98_10 C81_10 1_555 1_555
H99_10 C81_10 1_555 1_555
H101_10 C85_10 1_555 1_555
H102_10 C85_10 1_555 1_555
H109_10 C91_10 1_555 1_555
H110_10 C91_10 1_555 1_555
H111_10 C91_10 1_555 1_555
H112_10 C95_10 1_555 1_555
H113_10 C95_10 1_555 1_555
H114_10 C95_10 1_555 1_555
H115_10 C96_10 1_555 1_555
H116_10 C96_10 1_555 1_555
H117_10 C96_10 1_555 1_555
H118_10 C100_10 1_555 1_555
H119_10 C100_10 1_555 1_555
H120_10 C100_10 1_555 1_555
H121_10 C101_10 1_555 1_555
H122_10 C101_10 1_555 1_555
H123_10 C101_10 1_555 1_555
H124_10 C105_10 1_555 1_555
H125_10 C105_10 1_555 1_555
H126_10 C105_10 1_555 1_555
H127_10 C106_10 1_555 1_555
H128_10 C106_10 1_555 1_555
H129_10 C106_10 1_555 1_555
H130_10 C110_10 1_555 1_555
H131_10 C110_10 1_555 1_555
H132_10 C110_10 1_555 1_555
H133_10 C111_10 1_555 1_555
H134_10 C111_10 1_555 1_555
H135_10 C111_10 1_555 1_555
H136_10 C115_10 1_555 1_555
H137_10 C115_10 1_555 1_555
H138_10 C115_10 1_555 1_555
H139_10 C116_10 1_555 1_555
H140_10 C116_10 1_555 1_555
H141_10 C116_10 1_555 1_555
H142_10 C120_10 1_555 1_555
H143_10 C120_10 1_555 1_555
H144_10 C120_10 1_555 1_555
H145_10 C121_10 1_555 1_555
H146_10 C121_10 1_555 1_555
H147_10 C121_10 1_555 1_555
H148_10 C125_10 1_555 1_555
H149_10 C125_10 1_555 1_555
H150_10 C125_10 1_555 1_555
H151_10 C126_10 1_555 1_555
H152_10 C126_10 1_555 1_555
H153_10 C126_10 1_555 1_555
H154_10 C130_10 1_555 1_555
H155_10 C130_10 1_555 1_555
H156_10 C130_10 1_555 1_555
H157_10 C131_10 1_555 1_555
H158_10 C131_10 1_555 1_555
H159_10 C131_10 1_555 1_555
H160_10 C135_10 1_555 1_555
H161_10 C135_10 1_555 1_555
H162_10 C135_10 1_555 1_555
H163_10 C136_10 1_555 1_555
H164_10 C136_10 1_555 1_555
H165_10 C136_10 1_555 1_555
H166_10 C140_10 1_555 1_555
H167_10 C140_10 1_555 1_555
H168_10 C140_10 1_555 1_555
H169_10 C141_10 1_555 1_555
H170_10 C141_10 1_555 1_555
H171_10 C141_10 1_555 1_555
H172_10 C145_10 1_555 1_555
H173_10 C145_10 1_555 1_555
H174_12 C145_10 1_555 1_555
H175_10 C146_10 1_555 1_555
H176_10 C146_10 1_555 1_555
H177_10 C146_10 1_555 1_555
H178_10 C150_10 1_555 1_555
H179_10 C150_10 1_555 1_555
H180_10 C150_10 1_555 1_555
Ag31_2 N6_2 1_555 1_555
Ag32_7 N3_7 1_555 1_555
Ag35_7 N9_7 1_555 1_555
Ag37_7 N15_7 1_555 1_555
Ag38_7 N16_7 1_555 1_555
N62_7 Ag3_7 1_555 1_555
N65_7 Ag6_7 1_555 1_555
N69_7 Ag11_7 1_555 1_555
N70_7 Ag12_7 1_555 1_555
N29_10 N30_10 1_555 1_555
N41_10 N42_10 1_555 1_555
N47_10 N48_10 1_555 1_555
N53_10 N54_10 1_555 1_555
N59_10 N60_10 1_555 1_555
C37_10 C38_10 1_555 1_555
C43_10 C44_10 1_555 1_555
C52_10 C53_10 1_555 1_555
C58_10 C59_10 1_555 1_555
C62_10 C63_10 1_555 1_555
C67_10 C68_10 1_555 1_555
C68_10 C69_10 1_555 1_555
C73_10 C74_10 1_555 1_555
C82_10 C83_10 1_555 1_555
C83_10 C84_10 1_555 1_555
C92_10 C93_10 1_555 1_555
C98_10 C99_10 1_555 1_555
C103_10 C104_10 1_555 1_555
C112_10 C113_10 1_555 1_555
C113_10 C114_10 1_555 1_555
C117_10 C118_10 1_555 1_555
C118_10 C119_10 1_555 1_555
C122_10 C123_10 1_555 1_555
C127_10 C128_10 1_555 1_555
C128_10 C129_10 1_555 1_555
C132_10 C133_10 1_555 1_555
C133_10 C134_10 1_555 1_555
C137_10 C138_10 1_555 1_555
C142_10 C143_10 1_555 1_555
C143_10 C144_10 1_555 1_555
C147_10 C148_10 1_555 1_555
C148_10 C149_10 1_555 1_555
N69_7 N70_7 1_555 1_555
H13_10 C11_10 1_555 1_555
H14_10 C11_10 1_555 1_555
H15_10 C11_10 1_555 1_555
Ag6_8 N10_11 1_555 1_555
Ag7_11 N13_11 1_555 1_555
Ag37_7 N14_11 1_555 1_555
Ag38_7 N17_11 1_555 1_555
Ag13_11 N25_11 1_555 1_555
Ag14_11 N26_11 1_555 1_555
Ag15_11 N28_11 1_555 1_555
Ag22_11 N43_11 1_555 1_555
Ag23_11 N44_11 1_555 1_555
Ag24_11 N46_11 1_555 1_555
Ag25_11 N49_11 1_555 1_555
N62_7 N6_3 1_555 1_555
N6_3 C14_11 1_555 1_555
N9_8 N10_11 1_555 1_555
N10_11 C24_11 1_555 1_555
N13_11 N14_11 1_555 1_555
N17_11 N18_11 1_555 1_555
N18_11 Ag7_11 1_555 1_555
N25_11 N26_11 1_555 1_555
N26_11 C64_11 1_555 1_555
N27_11 Ag14_11 1_555 1_555
N28_11 N27_11 1_555 1_555
N29_11 Ag15_11 1_555 1_555
N30_11 Ag13_11 1_555 1_555
N43_11 N44_11 1_555 1_555
N44_11 C109_11 1_555 1_555
N45_11 Ag23_11 1_555 1_555
N46_11 N45_11 1_555 1_555
N47_11 Ag24_11 1_555 1_555
N48_11 Ag22_11 1_555 1_555
N49_11 N50_11 1_555 1_555
N50_11 C124_11 1_555 1_555
N54_11 Ag25_11 1_555 1_555
C11_11 C12_11 1_555 1_555
C12_11 N62_7 1_555 1_555
C13_11 C12_11 1_555 1_555
C14_11 C13_11 1_555 1_555
C15_11 C14_11 1_555 1_555
C21_11 C22_11 1_555 1_555
C22_11 N9_8 1_555 1_555
C23_11 C22_11 1_555 1_555
C24_11 C23_11 1_555 1_555
C25_11 C24_11 1_555 1_555
C31_11 C32_11 1_555 1_555
C32_11 N13_11 1_555 1_555
C41_11 C42_11 1_555 1_555
C42_11 N17_11 1_555 1_555
C43_11 C42_11 1_555 1_555
C44_11 N18_11 1_555 1_555
C45_11 C44_11 1_555 1_555
C61_11 C62_11 1_555 1_555
C62_11 N25_11 1_555 1_555
C63_11 C13_11 1_555 1_555
C64_11 C63_11 1_555 1_555
C65_11 C64_11 1_555 1_555
C66_11 C67_11 1_555 1_555
C67_11 N27_11 1_555 1_555
C68_11 C23_11 1_555 1_555
C69_11 N28_11 1_555 1_555
C70_11 C69_11 1_555 1_555
C71_11 C72_11 1_555 1_555
C72_11 N29_11 1_555 1_555
C73_11 C72_11 1_555 1_555
C74_11 N30_11 1_555 1_555
C75_11 C74_11 1_555 1_555
C106_11 C107_11 1_555 1_555
C107_11 N43_11 1_555 1_555
C108_11 C107_11 1_555 1_555
C109_11 C108_11 1_555 1_555
C110_11 C109_11 1_555 1_555
C114_11 N46_11 1_555 1_555
C115_11 C114_11 1_555 1_555
C116_11 C117_11 1_555 1_555
C117_11 N47_11 1_555 1_555
C118_11 C73_11 1_555 1_555
C119_11 N48_11 1_555 1_555
C120_11 C119_11 1_555 1_555
C121_11 C122_11 1_555 1_555
C122_11 N49_11 1_555 1_555
C123_11 C43_11 1_555 1_555
C124_11 C123_11 1_555 1_555
C131_11 C132_11 1_555 1_555
C132_11 N53_11 1_555 1_555
C133_11 C108_11 1_555 1_555
C134_11 N54_11 1_555 1_555
C135_11 C134_11 1_555 1_555
H7_11 C6_11 1_555 1_555
H8_11 C6_11 1_555 1_555
H9_11 C6_11 1_555 1_555
H13_11 C11_11 1_555 1_555
H14_11 C11_11 1_555 1_555
H15_11 C11_11 1_555 1_555
H16_11 C15_11 1_555 1_555
H17_11 C15_11 1_555 1_555
H18_11 C15_11 1_555 1_555
H25_11 C21_11 1_555 1_555
H26_11 C21_11 1_555 1_555
H27_11 C21_11 1_555 1_555
H28_11 C25_11 1_555 1_555
H29_11 C25_11 1_555 1_555
H30_11 C25_11 1_555 1_555
H37_11 C31_11 1_555 1_555
H38_11 C31_11 1_555 1_555
H39_11 C31_11 1_555 1_555
H49_11 C41_11 1_555 1_555
H50_11 C41_11 1_555 1_555
H51_11 C41_11 1_555 1_555
H52_11 C45_11 1_555 1_555
H53_11 C45_11 1_555 1_555
H54_11 C45_11 1_555 1_555
H73_11 C61_11 1_555 1_555
H74_11 C61_11 1_555 1_555
H75_11 C61_11 1_555 1_555
H76_11 C65_11 1_555 1_555
H77_11 C65_11 1_555 1_555
H78_11 C65_11 1_555 1_555
H79_11 C66_11 1_555 1_555
H80_11 C66_11 1_555 1_555
H81_11 C66_11 1_555 1_555
H82_11 C70_11 1_555 1_555
H83_11 C70_11 1_555 1_555
H84_11 C70_11 1_555 1_555
H85_11 C71_11 1_555 1_555
H86_11 C71_11 1_555 1_555
H87_11 C71_11 1_555 1_555
H88_11 C75_11 1_555 1_555
H89_11 C75_11 1_555 1_555
H90_11 C75_11 1_555 1_555
H127_11 C106_11 1_555 1_555
H128_11 C106_11 1_555 1_555
H129_11 C106_11 1_555 1_555
H130_11 C110_11 1_555 1_555
H131_11 C110_11 1_555 1_555
H132_11 C110_11 1_555 1_555
H136_11 C115_11 1_555 1_555
H137_11 C115_11 1_555 1_555
H139_11 C116_11 1_555 1_555
H140_11 C116_11 1_555 1_555
H141_11 C116_11 1_555 1_555
H142_11 C120_11 1_555 1_555
H143_11 C120_11 1_555 1_555
H144_11 C120_11 1_555 1_555
H145_11 C121_11 1_555 1_555
H146_11 C121_11 1_555 1_555
H147_11 C121_11 1_555 1_555
H157_11 C131_11 1_555 1_555
H158_11 C131_11 1_555 1_555
H159_11 C131_11 1_555 1_555
H160_11 C135_11 1_555 1_555
H161_11 C135_11 1_555 1_555
H162_11 C135_11 1_555 1_555
Ag31_3 N6_3 1_555 1_555
Ag35_8 N9_8 1_555 1_555
N65_8 Ag6_8 1_555 1_555
N29_11 N30_11 1_555 1_555
N47_11 N48_11 1_555 1_555
N53_11 N54_11 1_555 1_555
C43_11 C44_11 1_555 1_555
C62_11 C63_11 1_555 1_555
C67_11 C68_11 1_555 1_555
C68_11 C69_11 1_555 1_555
C73_11 C74_11 1_555 1_555
C117_11 C118_11 1_555 1_555
C118_11 C119_11 1_555 1_555
C122_11 C123_11 1_555 1_555
C132_11 C133_11 1_555 1_555
C133_11 C134_11 1_555 1_555
Ag31_3 N1_11 1_555 1_555
Ag32_7 N2_11 1_555 1_555
Ag27_11 N52_11 1_555 1_555
N1_11 N2_11 1_555 1_555
N2_11 C4_11 1_555 1_555
N51_11 Ag26_11 1_555 1_555
N52_11 N51_11 1_555 1_555
C1_11 C2_11 1_555 1_555
C2_11 N1_11 1_555 1_555
C3_11 C2_11 1_555 1_555
C4_11 C3_11 1_555 1_555
C5_11 C4_11 1_555 1_555
C126_11 C127_11 1_555 1_555
C127_11 N51_11 1_555 1_555
C128_11 C3_11 1_555 1_555
C129_11 N52_11 1_555 1_555
C130_11 C129_11 1_555 1_555
H1_11 C1_11 1_555 1_555
H2_11 C1_11 1_555 1_555
H3_11 C1_11 1_555 1_555
H4_11 C5_11 1_555 1_555
H5_11 C5_11 1_555 1_555
H6_11 C5_11 1_555 1_555
H148_11 C125_11 1_555 1_555
H149_11 C125_11 1_555 1_555
H150_11 C125_11 1_555 1_555
H151_11 C126_11 1_555 1_555
H152_11 C126_11 1_555 1_555
H153_11 C126_11 1_555 1_555
H154_11 C130_11 1_555 1_555
H155_11 C130_11 1_555 1_555
H156_11 C130_11 1_555 1_555
C127_11 C128_11 1_555 1_555
C128_11 C129_11 1_555 1_555
N15_8 N16_8 1_555 1_555
N16_8 C39_11 1_555 1_555
C34_11 C33_11 1_555 1_555
C35_11 C34_11 1_555 1_555
C36_11 C37_11 1_555 1_555
C37_11 N15_8 1_555 1_555
C38_11 C33_11 1_555 1_555
C39_11 C38_11 1_555 1_555
C40_11 C39_11 1_555 1_555
H40_11 C35_11 1_555 1_555
H41_11 C35_11 1_555 1_555
H42_11 C35_11 1_555 1_555
H43_11 C36_11 1_555 1_555
H44_11 C36_11 1_555 1_555
H45_11 C36_11 1_555 1_555
H46_11 C40_11 1_555 1_555
H47_11 C40_11 1_555 1_555
H48_11 C40_11 1_555 1_555
C37_11 C38_11 1_555 1_555
Ag3_8 N4_11 1_555 1_555
Ag34_3 N7_11 1_555 1_555
Ag10_11 N19_11 1_555 1_555
Ag11_8 N20_11 1_555 1_555
Ag16_11 N31_11 1_555 1_555
Ag17_11 N32_11 1_555 1_555
Ag18_11 N34_11 1_555 1_555
Ag19_11 N37_11 1_555 1_555
Ag20_11 N38_11 1_555 1_555
Ag21_11 N40_11 1_555 1_555
Ag28_11 N55_11 1_555 1_555
Ag29_11 N56_11 1_555 1_555
Ag30_11 N58_11 1_555 1_555
N3_8 N4_11 1_555 1_555
N4_11 C9_11 1_555 1_555
N7_11 N8_11 1_555 1_555
N8_11 C19_11 1_555 1_555
N65_7 N12_3 1_555 1_555
N12_3 C29_11 1_555 1_555
N19_11 N20_11 1_555 1_555
N20_11 C49_11 1_555 1_555
N70_7 C54_11 1_555 1_555
N23_11 N24_11 1_555 1_555
N24_11 Ag10_11 1_555 1_555
N31_11 N32_11 1_555 1_555
N32_11 C79_11 1_555 1_555
N33_11 Ag17_11 1_555 1_555
N34_11 N33_11 1_555 1_555
N35_11 Ag18_11 1_555 1_555
N36_11 Ag16_11 1_555 1_555
N37_11 N38_11 1_555 1_555
N38_11 C94_11 1_555 1_555
N39_11 Ag20_11 1_555 1_555
N40_11 N39_11 1_555 1_555
N41_11 Ag21_11 1_555 1_555
N42_11 Ag19_11 1_555 1_555
N55_11 N56_11 1_555 1_555
N56_11 C139_11 1_555 1_555
N57_11 Ag29_11 1_555 1_555
N58_11 N57_11 1_555 1_555
N59_11 Ag30_11 1_555 1_555
N60_11 Ag28_11 1_555 1_555
C7_11 N3_8 1_555 1_555
C8_11 C7_11 1_555 1_555
C9_11 C8_11 1_555 1_555
C10_11 C9_11 1_555 1_555
C16_11 C17_11 1_555 1_555
C17_11 N7_11 1_555 1_555
C18_11 C17_11 1_555 1_555
C19_11 C18_11 1_555 1_555
C20_11 C19_11 1_555 1_555
C26_11 C27_11 1_555 1_555
C27_11 N65_7 1_555 1_555
C28_11 C27_11 1_555 1_555
C29_11 C28_11 1_555 1_555
C30_11 C29_11 1_555 1_555
C46_11 C47_11 1_555 1_555
C47_11 N19_11 1_555 1_555
C48_11 C47_11 1_555 1_555
C49_11 C48_11 1_555 1_555
C50_11 C49_11 1_555 1_555
C51_11 C52_11 1_555 1_555
C52_11 N69_7 1_555 1_555
C53_11 C48_11 1_555 1_555
C54_11 C53_11 1_555 1_555
C55_11 C54_11 1_555 1_555
C56_11 C57_11 1_555 1_555
C57_11 N23_11 1_555 1_555
C58_11 C57_11 1_555 1_555
C59_11 N24_11 1_555 1_555
C60_11 C59_11 1_555 1_555
C76_11 C77_11 1_555 1_555
C77_11 N31_11 1_555 1_555
C78_11 C77_11 1_555 1_555
C79_11 C78_11 1_555 1_555
C80_11 C79_11 1_555 1_555
C81_11 C82_11 1_555 1_555
C82_11 N33_11 1_555 1_555
C83_11 C8_11 1_555 1_555
C84_11 N34_11 1_555 1_555
C85_11 C84_11 1_555 1_555
C86_11 C87_11 1_555 1_555
C87_11 N35_11 1_555 1_555
C88_11 C28_11 1_555 1_555
C89_11 N36_11 1_555 1_555
C90_11 C89_11 1_555 1_555
C91_11 C92_11 1_555 1_555
C92_11 N37_11 1_555 1_555
C93_11 C78_11 1_555 1_555
C94_11 C93_11 1_555 1_555
C95_11 C94_11 1_555 1_555
C96_11 C97_11 1_555 1_555
C97_11 N39_11 1_555 1_555
C98_11 C97_11 1_555 1_555
C99_11 N40_11 1_555 1_555
C100_11 C99_11 1_555 1_555
C101_11 C102_11 1_555 1_555
C102_11 N41_11 1_555 1_555
C103_11 C102_11 1_555 1_555
C104_11 N42_11 1_555 1_555
C105_11 C104_11 1_555 1_555
C111_11 C112_11 1_555 1_555
C113_11 C98_11 1_555 1_555
C136_11 C137_11 1_555 1_555
C137_11 N55_11 1_555 1_555
C138_11 C103_11 1_555 1_555
C139_11 C138_11 1_555 1_555
C140_11 C139_11 1_555 1_555
C141_11 C142_11 1_555 1_555
C142_11 N57_11 1_555 1_555
C143_11 C58_11 1_555 1_555
C144_11 N58_11 1_555 1_555
C145_11 C144_11 1_555 1_555
C146_11 C147_11 1_555 1_555
C147_11 N59_11 1_555 1_555
C148_11 C18_11 1_555 1_555
C149_11 N60_11 1_555 1_555
C150_11 C149_11 1_555 1_555
H10_11 C10_11 1_555 1_555
H11_11 C10_11 1_555 1_555
H12_11 C10_11 1_555 1_555
H19_11 C16_11 1_555 1_555
H20_11 C16_11 1_555 1_555
H21_11 C16_11 1_555 1_555
H22_11 C20_11 1_555 1_555
H23_11 C20_11 1_555 1_555
H24_11 C20_11 1_555 1_555
H31_11 C26_11 1_555 1_555
H32_11 C26_11 1_555 1_555
H33_11 C26_11 1_555 1_555
H35_11 C30_11 1_555 1_555
H36_11 C30_11 1_555 1_555
H55_11 C46_11 1_555 1_555
H56_11 C46_11 1_555 1_555
H57_11 C46_11 1_555 1_555
H58_11 C50_11 1_555 1_555
H59_11 C50_11 1_555 1_555
H60_11 C50_11 1_555 1_555
H61_11 C51_11 1_555 1_555
H62_11 C51_11 1_555 1_555
H63_11 C51_11 1_555 1_555
H64_11 C55_11 1_555 1_555
H65_11 C55_11 1_555 1_555
H66_11 C55_11 1_555 1_555
H67_11 C56_11 1_555 1_555
H69_11 C56_11 1_555 1_555
H70_11 C60_11 1_555 1_555
H71_11 C60_11 1_555 1_555
H72_11 C60_11 1_555 1_555
H91_11 C76_11 1_555 1_555
H92_11 C76_11 1_555 1_555
H93_11 C76_11 1_555 1_555
H94_11 C80_11 1_555 1_555
H95_11 C80_11 1_555 1_555
H96_11 C80_11 1_555 1_555
H97_11 C81_11 1_555 1_555
H99_11 C81_11 1_555 1_555
H100_11 C85_11 1_555 1_555
H101_11 C85_11 1_555 1_555
H102_11 C85_11 1_555 1_555
H103_11 C86_11 1_555 1_555
H104_11 C86_11 1_555 1_555
H105_11 C86_11 1_555 1_555
H106_11 C90_11 1_555 1_555
H107_11 C90_11 1_555 1_555
H108_11 C90_11 1_555 1_555
H109_11 C91_11 1_555 1_555
H110_11 C91_11 1_555 1_555
H111_11 C91_11 1_555 1_555
H112_11 C95_11 1_555 1_555
H113_11 C95_11 1_555 1_555
H114_11 C95_11 1_555 1_555
H115_11 C96_11 1_555 1_555
H116_11 C96_11 1_555 1_555
H117_11 C96_11 1_555 1_555
H118_11 C100_11 1_555 1_555
H119_11 C100_11 1_555 1_555
H120_11 C100_11 1_555 1_555
H121_11 C101_11 1_555 1_555
H122_11 C101_11 1_555 1_555
H123_11 C101_11 1_555 1_555
H124_11 C105_11 1_555 1_555
H125_11 C105_11 1_555 1_555
H126_11 C105_11 1_555 1_555
H133_11 C111_11 1_555 1_555
H134_11 C111_11 1_555 1_555
H135_11 C111_11 1_555 1_555
H163_11 C136_11 1_555 1_555
H164_11 C136_11 1_555 1_555
H165_11 C136_11 1_555 1_555
H166_11 C140_11 1_555 1_555
H167_11 C140_11 1_555 1_555
H168_11 C140_11 1_555 1_555
H169_11 C141_11 1_555 1_555
H170_11 C141_11 1_555 1_555
H171_11 C141_11 1_555 1_555
H172_11 C145_11 1_555 1_555
H173_11 C145_11 1_555 1_555
H174_13 C145_11 1_555 1_555
H175_11 C146_11 1_555 1_555
H176_11 C146_11 1_555 1_555
H177_11 C146_11 1_555 1_555
H178_11 C150_11 1_555 1_555
H179_11 C150_11 1_555 1_555
H180_11 C150_11 1_555 1_555
N35_11 N36_11 1_555 1_555
N41_11 N42_11 1_555 1_555
N59_11 N60_11 1_555 1_555
C52_11 C53_11 1_555 1_555
C58_11 C59_11 1_555 1_555
C82_11 C83_11 1_555 1_555
C83_11 C84_11 1_555 1_555
C87_11 C88_11 1_555 1_555
C88_11 C89_11 1_555 1_555
C92_11 C93_11 1_555 1_555
C98_11 C99_11 1_555 1_555
C103_11 C104_11 1_555 1_555
C112_11 C113_11 1_555 1_555
C137_11 C138_11 1_555 1_555
C142_11 C143_11 1_555 1_555
C143_11 C144_11 1_555 1_555
C147_11 C148_11 1_555 1_555
C148_11 C149_11 1_555 1_555
N70_8 Ag12_8 1_555 1_555
N69_8 N70_8 1_555 1_555
Ag33_4 N4_12 1_555 1_555
Ag16_12 N31_12 1_555 1_555
Ag17_12 N32_12 1_555 1_555
Ag18_12 N34_12 1_555 1_555
Ag19_12 N37_12 1_555 1_555
Ag28_12 N55_12 1_555 1_555
N61_4 N4_12 1_555 1_555
N4_12 C9_12 1_555 1_555
N65_8 N12_4 1_555 1_555
N12_4 C29_12 1_555 1_555
N31_12 N32_12 1_555 1_555
N32_12 C79_12 1_555 1_555
N33_12 Ag17_12 1_555 1_555
N34_12 N33_12 1_555 1_555
N35_12 Ag18_12 1_555 1_555
N36_12 Ag16_12 1_555 1_555
N37_12 N38_12 1_555 1_555
N38_12 C94_12 1_555 1_555
C6_12 C7_12 1_555 1_555
C7_12 N61_4 1_555 1_555
C8_12 C7_12 1_555 1_555
C9_12 C8_12 1_555 1_555
C10_12 C9_12 1_555 1_555
C26_12 C27_12 1_555 1_555
C27_12 N65_8 1_555 1_555
C28_12 C27_12 1_555 1_555
C29_12 C28_12 1_555 1_555
C30_12 C29_12 1_555 1_555
C76_12 C77_12 1_555 1_555
C77_12 N31_12 1_555 1_555
C78_12 C77_12 1_555 1_555
C79_12 C78_12 1_555 1_555
C80_12 C79_12 1_555 1_555
C81_12 C82_12 1_555 1_555
C82_12 N33_12 1_555 1_555
C83_12 C8_12 1_555 1_555
C84_12 N34_12 1_555 1_555
C85_12 C84_12 1_555 1_555
C86_12 C87_12 1_555 1_555
C87_12 N35_12 1_555 1_555
C88_12 C28_12 1_555 1_555
C89_12 N36_12 1_555 1_555
C90_12 C89_12 1_555 1_555
C91_12 C92_12 1_555 1_555
C92_12 N37_12 1_555 1_555
C93_12 C78_12 1_555 1_555
C94_12 C93_12 1_555 1_555
C95_12 C94_12 1_555 1_555
C105_12 C104_12 1_555 1_555
C136_12 C137_12 1_555 1_555
C137_12 N55_12 1_555 1_555
H7_12 C6_12 1_555 1_555
H8_12 C6_12 1_555 1_555
H9_12 C6_12 1_555 1_555
H10_12 C10_12 1_555 1_555
H11_12 C10_12 1_555 1_555
H12_12 C10_12 1_555 1_555
H31_12 C26_12 1_555 1_555
H32_12 C26_12 1_555 1_555
H33_12 C26_12 1_555 1_555
H34_12 C30_12 1_555 1_555
H35_12 C30_12 1_555 1_555
H36_12 C30_12 1_555 1_555
H91_12 C76_12 1_555 1_555
H92_12 C76_12 1_555 1_555
H93_12 C76_12 1_555 1_555
H94_12 C80_12 1_555 1_555
H95_12 C80_12 1_555 1_555
H96_12 C80_12 1_555 1_555
H97_12 C81_12 1_555 1_555
H98_12 C81_12 1_555 1_555
H99_12 C81_12 1_555 1_555
H100_12 C85_12 1_555 1_555
H101_12 C85_12 1_555 1_555
H102_12 C85_12 1_555 1_555
H103_12 C86_12 1_555 1_555
H104_12 C86_12 1_555 1_555
H105_12 C86_12 1_555 1_555
H106_12 C90_12 1_555 1_555
H107_12 C90_12 1_555 1_555
H108_12 C90_12 1_555 1_555
H109_12 C91_12 1_555 1_555
H110_12 C91_12 1_555 1_555
H111_12 C91_12 1_555 1_555
H112_12 C95_12 1_555 1_555
H113_12 C95_12 1_555 1_555
H114_12 C95_12 1_555 1_555
H124_12 C105_12 1_555 1_555
H125_12 C105_12 1_555 1_555
H126_12 C105_12 1_555 1_555
H163_12 C136_12 1_555 1_555
H164_12 C136_12 1_555 1_555
H165_12 C136_12 1_555 1_555
Ag34_4 N12_4 1_555 1_555
N35_12 N36_12 1_555 1_555
C82_12 C83_12 1_555 1_555
C83_12 C84_12 1_555 1_555
C87_12 C88_12 1_555 1_555
C88_12 C89_12 1_555 1_555
C92_12 C93_12 1_555 1_555
Ag34_4 N7_12 1_555 1_555
Ag35_8 N8_12 1_555 1_555
Ag7_12 N13_12 1_555 1_555
Ag37_8 N14_12 1_555 1_555
Ag38_8 N17_12 1_555 1_555
Ag25_12 N49_12 1_555 1_555
Ag26_12 N50_12 1_555 1_555
Ag27_12 N52_12 1_555 1_555
N2_12 C4_12 1_555 1_555
N7_12 N8_12 1_555 1_555
N8_12 C19_12 1_555 1_555
N13_12 N14_12 1_555 1_555
N14_12 C34_12 1_555 1_555
N68_4 C39_12 1_555 1_555
N17_12 N18_12 1_555 1_555
N18_12 Ag7_12 1_555 1_555
N49_12 N50_12 1_555 1_555
N50_12 C124_12 1_555 1_555
N51_12 Ag26_12 1_555 1_555
N52_12 N51_12 1_555 1_555
N53_12 Ag27_12 1_555 1_555
N54_12 Ag25_12 1_555 1_555
N59_12 Ag30_12 1_555 1_555
C4_12 C3_12 1_555 1_555
C5_12 C4_12 1_555 1_555
C16_12 C17_12 1_555 1_555
C17_12 N7_12 1_555 1_555
C18_12 C17_12 1_555 1_555
C19_12 C18_12 1_555 1_555
C20_12 C19_12 1_555 1_555
C31_12 C32_12 1_555 1_555
C32_12 N13_12 1_555 1_555
C33_12 C32_12 1_555 1_555
C34_12 C33_12 1_555 1_555
C35_12 C34_12 1_555 1_555
C36_12 C37_12 1_555 1_555
C37_12 N67_4 1_555 1_555
C38_12 C33_12 1_555 1_555
C39_12 C38_12 1_555 1_555
C40_12 C39_12 1_555 1_555
C41_12 C42_12 1_555 1_555
C42_12 N17_12 1_555 1_555
C43_12 C42_12 1_555 1_555
C44_12 N18_12 1_555 1_555
C45_12 C44_12 1_555 1_555
C121_12 C122_12 1_555 1_555
C122_12 N49_12 1_555 1_555
C123_12 C43_12 1_555 1_555
C124_12 C123_12 1_555 1_555
C125_12 C124_12 1_555 1_555
C126_12 C127_12 1_555 1_555
C127_12 N51_12 1_555 1_555
C128_12 C3_12 1_555 1_555
C134_12 N54_12 1_555 1_555
C135_12 C134_12 1_555 1_555
C146_12 C147_12 1_555 1_555
C147_12 N59_12 1_555 1_555
C148_12 C18_12 1_555 1_555
C149_12 N60_12 1_555 1_555
C150_12 C149_12 1_555 1_555
H4_12 C5_12 1_555 1_555
H5_12 C5_12 1_555 1_555
H6_12 C5_12 1_555 1_555
H19_12 C16_12 1_555 1_555
H20_12 C16_12 1_555 1_555
H21_12 C16_12 1_555 1_555
H22_12 C20_12 1_555 1_555
H23_12 C20_12 1_555 1_555
H24_12 C20_12 1_555 1_555
H37_12 C31_12 1_555 1_555
H38_12 C31_12 1_555 1_555
H39_12 C31_12 1_555 1_555
H40_12 C35_12 1_555 1_555
H41_12 C35_12 1_555 1_555
H42_12 C35_12 1_555 1_555
H43_12 C36_12 1_555 1_555
H44_12 C36_12 1_555 1_555
H45_12 C36_12 1_555 1_555
H46_12 C40_12 1_555 1_555
H47_12 C40_12 1_555 1_555
H48_12 C40_12 1_555 1_555
H49_12 C41_12 1_555 1_555
H50_12 C41_12 1_555 1_555
H51_12 C41_12 1_555 1_555
H52_12 C45_12 1_555 1_555
H53_12 C45_12 1_555 1_555
H54_12 C45_12 1_555 1_555
H145_12 C121_12 1_555 1_555
H146_12 C121_12 1_555 1_555
H147_12 C121_12 1_555 1_555
H148_12 C125_12 1_555 1_555
H149_12 C125_12 1_555 1_555
H150_12 C125_12 1_555 1_555
H151_12 C126_12 1_555 1_555
H152_12 C126_12 1_555 1_555
H153_12 C126_12 1_555 1_555
H160_12 C135_12 1_555 1_555
H161_12 C135_12 1_555 1_555
H162_12 C135_12 1_555 1_555
H175_12 C146_12 1_555 1_555
H176_12 C146_12 1_555 1_555
H177_12 C146_12 1_555 1_555
H178_12 C150_12 1_555 1_555
H179_12 C150_12 1_555 1_555
H180_12 C150_12 1_555 1_555
N53_12 N54_12 1_555 1_555
N59_12 N60_12 1_555 1_555
C37_12 C38_12 1_555 1_555
C43_12 C44_12 1_555 1_555
C122_12 C123_12 1_555 1_555
C127_12 C128_12 1_555 1_555
C147_12 C148_12 1_555 1_555
C148_12 C149_12 1_555 1_555
H13_12 C11_12 1_555 1_555
H14_12 C11_12 1_555 1_555
H15_12 C11_12 1_555 1_555
Ag36_4 N10_12 1_555 1_555
Ag13_12 N25_12 1_555 1_555
Ag14_12 N26_12 1_555 1_555
Ag15_12 N28_12 1_555 1_555
Ag21_12 N40_12 1_555 1_555
Ag24_12 N46_12 1_555 1_555
Ag29_12 N56_12 1_555 1_555
N62_8 N6_4 1_555 1_555
N6_4 C14_12 1_555 1_555
N64_4 N10_12 1_555 1_555
N10_12 C24_12 1_555 1_555
N25_12 N26_12 1_555 1_555
N26_12 C64_12 1_555 1_555
N27_12 Ag14_12 1_555 1_555
N28_12 N27_12 1_555 1_555
N29_12 Ag15_12 1_555 1_555
N30_12 Ag13_12 1_555 1_555
N39_12 Ag20_12 1_555 1_555
N40_12 N39_12 1_555 1_555
N41_12 Ag21_12 1_555 1_555
N45_12 Ag23_12 1_555 1_555
N46_12 N45_12 1_555 1_555
N47_12 Ag24_12 1_555 1_555
N48_12 Ag22_12 1_555 1_555
N56_12 C139_12 1_555 1_555
C12_12 N62_8 1_555 1_555
C13_12 C12_12 1_555 1_555
C14_12 C13_12 1_555 1_555
C15_12 C14_12 1_555 1_555
C21_12 C22_12 1_555 1_555
C22_12 N64_4 1_555 1_555
C23_12 C22_12 1_555 1_555
C24_12 C23_12 1_555 1_555
C25_12 C24_12 1_555 1_555
C61_12 C62_12 1_555 1_555
C62_12 N25_12 1_555 1_555
C63_12 C13_12 1_555 1_555
C64_12 C63_12 1_555 1_555
C65_12 C64_12 1_555 1_555
C66_12 C67_12 1_555 1_555
C67_12 N27_12 1_555 1_555
C68_12 C23_12 1_555 1_555
C69_12 N28_12 1_555 1_555
C70_12 C69_12 1_555 1_555
C71_12 C72_12 1_555 1_555
C72_12 N29_12 1_555 1_555
C73_12 C72_12 1_555 1_555
C74_12 N30_12 1_555 1_555
C75_12 C74_12 1_555 1_555
C96_12 C97_12 1_555 1_555
C97_12 N39_12 1_555 1_555
C98_12 C97_12 1_555 1_555
C99_12 N40_12 1_555 1_555
C100_12 C99_12 1_555 1_555
C101_12 C102_12 1_555 1_555
C102_12 N41_12 1_555 1_555
C103_12 C102_12 1_555 1_555
C111_12 C112_12 1_555 1_555
C112_12 N45_12 1_555 1_555
C113_12 C98_12 1_555 1_555
C114_12 N46_12 1_555 1_555
C115_12 C114_12 1_555 1_555
C116_12 C117_12 1_555 1_555
C117_12 N47_12 1_555 1_555
C118_12 C73_12 1_555 1_555
C119_12 N48_12 1_555 1_555
C120_12 C119_12 1_555 1_555
C138_12 C103_12 1_555 1_555
C139_12 C138_12 1_555 1_555
C140_12 C139_12 1_555 1_555
H16_12 C15_12 1_555 1_555
H17_12 C15_12 1_555 1_555
H18_12 C15_12 1_555 1_555
H25_12 C21_12 1_555 1_555
H26_12 C21_12 1_555 1_555
H27_12 C21_12 1_555 1_555
H28_12 C25_12 1_555 1_555
H29_12 C25_12 1_555 1_555
H30_12 C25_12 1_555 1_555
H73_12 C61_12 1_555 1_555
H74_12 C61_12 1_555 1_555
H75_12 C61_12 1_555 1_555
H76_12 C65_12 1_555 1_555
H77_12 C65_12 1_555 1_555
H79_12 C66_12 1_555 1_555
H80_12 C66_12 1_555 1_555
H81_12 C66_12 1_555 1_555
H82_12 C70_12 1_555 1_555
H83_12 C70_12 1_555 1_555
H84_12 C70_12 1_555 1_555
H85_12 C71_12 1_555 1_555
H86_12 C71_12 1_555 1_555
H87_12 C71_12 1_555 1_555
H88_12 C75_12 1_555 1_555
H89_12 C75_12 1_555 1_555
H90_12 C75_12 1_555 1_555
H115_12 C96_12 1_555 1_555
H116_12 C96_12 1_555 1_555
H117_12 C96_12 1_555 1_555
H118_12 C100_12 1_555 1_555
H119_12 C100_12 1_555 1_555
H120_12 C100_12 1_555 1_555
H121_12 C101_12 1_555 1_555
H122_12 C101_12 1_555 1_555
H123_12 C101_12 1_555 1_555
H133_12 C111_12 1_555 1_555
H134_12 C111_12 1_555 1_555
H135_12 C111_12 1_555 1_555
H136_12 C115_12 1_555 1_555
H137_12 C115_12 1_555 1_555
H138_12 C115_12 1_555 1_555
H139_12 C116_12 1_555 1_555
H140_12 C116_12 1_555 1_555
H141_12 C116_12 1_555 1_555
H142_12 C120_12 1_555 1_555
H143_12 C120_12 1_555 1_555
H144_12 C120_12 1_555 1_555
H166_12 C140_12 1_555 1_555
H167_12 C140_12 1_555 1_555
H168_12 C140_12 1_555 1_555
Ag31_4 N6_4 1_555 1_555
N29_12 N30_12 1_555 1_555
N41_12 N42_12 1_555 1_555
N47_12 N48_12 1_555 1_555
C62_12 C63_12 1_555 1_555
C67_12 C68_12 1_555 1_555
C68_12 C69_12 1_555 1_555
C73_12 C74_12 1_555 1_555
C98_12 C99_12 1_555 1_555
C112_12 C113_12 1_555 1_555
C113_12 C114_12 1_555 1_555
C117_12 C118_12 1_555 1_555
C118_12 C119_12 1_555 1_555
Ag31_4 N1_12 1_555 1_555
Ag10_12 N19_12 1_555 1_555
Ag39_4 N20_12 1_555 1_555
Ag40_4 N23_12 1_555 1_555
N19_12 N20_12 1_555 1_555
N20_12 C49_12 1_555 1_555
N70_8 C54_12 1_555 1_555
N23_12 N24_12 1_555 1_555
N24_12 Ag10_12 1_555 1_555
N43_12 N44_12 1_555 1_555
N44_12 C109_12 1_555 1_555
N58_12 N57_12 1_555 1_555
C1_12 C2_12 1_555 1_555
C2_12 N1_12 1_555 1_555
C46_12 C47_12 1_555 1_555
C47_12 N19_12 1_555 1_555
C48_12 C47_12 1_555 1_555
C49_12 C48_12 1_555 1_555
C50_12 C49_12 1_555 1_555
C51_12 C52_12 1_555 1_555
C52_12 N69_8 1_555 1_555
C53_12 C48_12 1_555 1_555
C54_12 C53_12 1_555 1_555
C55_12 C54_12 1_555 1_555
C56_12 C57_12 1_555 1_555
C57_12 N23_12 1_555 1_555
C58_12 C57_12 1_555 1_555
C59_12 N24_12 1_555 1_555
C60_12 C59_12 1_555 1_555
C106_12 C107_12 1_555 1_555
C107_12 N43_12 1_555 1_555
C108_12 C107_12 1_555 1_555
C109_12 C108_12 1_555 1_555
C110_12 C109_12 1_555 1_555
C130_12 C129_12 1_555 1_555
C131_12 C132_12 1_555 1_555
C133_12 C108_12 1_555 1_555
C141_12 C142_12 1_555 1_555
C142_12 N57_12 1_555 1_555
C143_12 C58_12 1_555 1_555
C144_12 N58_12 1_555 1_555
C145_12 C144_12 1_555 1_555
H1_12 C1_12 1_555 1_555
H2_12 C1_12 1_555 1_555
H3_12 C1_12 1_555 1_555
H55_12 C46_12 1_555 1_555
H56_12 C46_12 1_555 1_555
H57_12 C46_12 1_555 1_555
H58_12 C50_12 1_555 1_555
H59_12 C50_12 1_555 1_555
H60_12 C50_12 1_555 1_555
H61_12 C51_12 1_555 1_555
H62_12 C51_12 1_555 1_555
H63_12 C51_12 1_555 1_555
H64_12 C55_12 1_555 1_555
H65_12 C55_12 1_555 1_555
H66_12 C55_12 1_555 1_555
H67_12 C56_12 1_555 1_555
H68_12 C56_12 1_555 1_555
H69_12 C56_12 1_555 1_555
H70_12 C60_12 1_555 1_555
H71_12 C60_12 1_555 1_555
H72_12 C60_12 1_555 1_555
H127_12 C106_12 1_555 1_555
H128_12 C106_12 1_555 1_555
H129_12 C106_12 1_555 1_555
H130_12 C110_12 1_555 1_555
H131_12 C110_12 1_555 1_555
H132_12 C110_12 1_555 1_555
H154_12 C130_12 1_555 1_555
H155_12 C130_12 1_555 1_555
H156_12 C130_12 1_555 1_555
H157_12 C131_12 1_555 1_555
H158_12 C131_12 1_555 1_555
H159_12 C131_12 1_555 1_555
H169_12 C141_12 1_555 1_555
H170_12 C141_12 1_555 1_555
H171_12 C141_12 1_555 1_555
H172_12 C145_12 1_555 1_555
H173_12 C145_12 1_555 1_555
H174_14 C145_12 1_555 1_555
C52_12 C53_12 1_555 1_555
C58_12 C59_12 1_555 1_555
C132_12 C133_12 1_555 1_555
C142_12 C143_12 1_555 1_555
C143_12 C144_12 1_555 1_555
Ag3_9 N4_13 1_555 1_555
Ag34_5 N7_13 1_555 1_555
Ag10_13 N19_13 1_555 1_555
Ag11_9 N20_13 1_555 1_555
Ag16_13 N31_13 1_555 1_555
Ag17_13 N32_13 1_555 1_555
Ag18_13 N34_13 1_555 1_555
Ag19_13 N37_13 1_555 1_555
Ag20_13 N38_13 1_555 1_555
Ag21_13 N40_13 1_555 1_555
Ag28_13 N55_13 1_555 1_555
Ag29_13 N56_13 1_555 1_555
Ag30_13 N58_13 1_555 1_555
N3_9 N4_13 1_555 1_555
N4_13 C9_13 1_555 1_555
N7_13 N8_13 1_555 1_555
N8_13 C19_13 1_555 1_555
N11_5 N12_5 1_555 1_555
N12_5 C29_13 1_555 1_555
N19_13 N20_13 1_555 1_555
N20_13 C49_13 1_555 1_555
N21_5 N22_5 1_555 1_555
N22_5 C54_13 1_555 1_555
N23_13 N24_13 1_555 1_555
N24_13 Ag10_13 1_555 1_555
N31_13 N32_13 1_555 1_555
N32_13 C79_13 1_555 1_555
N33_13 Ag17_13 1_555 1_555
N34_13 N33_13 1_555 1_555
N35_13 Ag18_13 1_555 1_555
N36_13 Ag16_13 1_555 1_555
N37_13 N38_13 1_555 1_555
N38_13 C94_13 1_555 1_555
N39_13 Ag20_13 1_555 1_555
N40_13 N39_13 1_555 1_555
N41_13 Ag21_13 1_555 1_555
N42_13 Ag19_13 1_555 1_555
N55_13 N56_13 1_555 1_555
N56_13 C139_13 1_555 1_555
N57_13 Ag29_13 1_555 1_555
N58_13 N57_13 1_555 1_555
N59_13 Ag30_13 1_555 1_555
N60_13 Ag28_13 1_555 1_555
C7_13 N3_9 1_555 1_555
C8_13 C7_13 1_555 1_555
C9_13 C8_13 1_555 1_555
C10_13 C9_13 1_555 1_555
C16_13 C17_13 1_555 1_555
C17_13 N7_13 1_555 1_555
C18_13 C17_13 1_555 1_555
C19_13 C18_13 1_555 1_555
C20_13 C19_13 1_555 1_555
C26_13 C27_13 1_555 1_555
C27_13 N11_5 1_555 1_555
C28_13 C27_13 1_555 1_555
C29_13 C28_13 1_555 1_555
C30_13 C29_13 1_555 1_555
C46_13 C47_13 1_555 1_555
C47_13 N19_13 1_555 1_555
C48_13 C47_13 1_555 1_555
C49_13 C48_13 1_555 1_555
C50_13 C49_13 1_555 1_555
C51_13 C52_13 1_555 1_555
C52_13 N21_5 1_555 1_555
C53_13 C48_13 1_555 1_555
C54_13 C53_13 1_555 1_555
C55_13 C54_13 1_555 1_555
C56_13 C57_13 1_555 1_555
C57_13 N23_13 1_555 1_555
C58_13 C57_13 1_555 1_555
C59_13 N24_13 1_555 1_555
C60_13 C59_13 1_555 1_555
C76_13 C77_13 1_555 1_555
C77_13 N31_13 1_555 1_555
C78_13 C77_13 1_555 1_555
C79_13 C78_13 1_555 1_555
C80_13 C79_13 1_555 1_555
C81_13 C82_13 1_555 1_555
C82_13 N33_13 1_555 1_555
C83_13 C8_13 1_555 1_555
C84_13 N34_13 1_555 1_555
C85_13 C84_13 1_555 1_555
C86_13 C87_13 1_555 1_555
C87_13 N35_13 1_555 1_555
C88_13 C28_13 1_555 1_555
C89_13 N36_13 1_555 1_555
C90_13 C89_13 1_555 1_555
C91_13 C92_13 1_555 1_555
C92_13 N37_13 1_555 1_555
C93_13 C78_13 1_555 1_555
C94_13 C93_13 1_555 1_555
C95_13 C94_13 1_555 1_555
C96_13 C97_13 1_555 1_555
C97_13 N39_13 1_555 1_555
C98_13 C97_13 1_555 1_555
C99_13 N40_13 1_555 1_555
C100_13 C99_13 1_555 1_555
C101_13 C102_13 1_555 1_555
C102_13 N41_13 1_555 1_555
C103_13 C102_13 1_555 1_555
C104_13 N42_13 1_555 1_555
C105_13 C104_13 1_555 1_555
C111_13 C112_13 1_555 1_555
C113_13 C98_13 1_555 1_555
C136_13 C137_13 1_555 1_555
C137_13 N55_13 1_555 1_555
C138_13 C103_13 1_555 1_555
C139_13 C138_13 1_555 1_555
C140_13 C139_13 1_555 1_555
C141_13 C142_13 1_555 1_555
C142_13 N57_13 1_555 1_555
C143_13 C58_13 1_555 1_555
C144_13 N58_13 1_555 1_555
C145_13 C144_13 1_555 1_555
C146_13 C147_13 1_555 1_555
C147_13 N59_13 1_555 1_555
C148_13 C18_13 1_555 1_555
C149_13 N60_13 1_555 1_555
C150_13 C149_13 1_555 1_555
H10_13 C10_13 1_555 1_555
H11_13 C10_13 1_555 1_555
H12_13 C10_13 1_555 1_555
H19_13 C16_13 1_555 1_555
H20_13 C16_13 1_555 1_555
H21_13 C16_13 1_555 1_555
H22_13 C20_13 1_555 1_555
H23_13 C20_13 1_555 1_555
H24_13 C20_13 1_555 1_555
H31_13 C26_13 1_555 1_555
H32_13 C26_13 1_555 1_555
H33_13 C26_13 1_555 1_555
H35_13 C30_13 1_555 1_555
H36_13 C30_13 1_555 1_555
H55_13 C46_13 1_555 1_555
H56_13 C46_13 1_555 1_555
H57_13 C46_13 1_555 1_555
H58_13 C50_13 1_555 1_555
H59_13 C50_13 1_555 1_555
H60_13 C50_13 1_555 1_555
H62_13 C51_13 1_555 1_555
H63_13 C51_13 1_555 1_555
H64_13 C55_13 1_555 1_555
H65_13 C55_13 1_555 1_555
H66_13 C55_13 1_555 1_555
H67_13 C56_13 1_555 1_555
H69_13 C56_13 1_555 1_555
H70_13 C60_13 1_555 1_555
H71_13 C60_13 1_555 1_555
H72_13 C60_13 1_555 1_555
H91_13 C76_13 1_555 1_555
H92_13 C76_13 1_555 1_555
H93_13 C76_13 1_555 1_555
H94_13 C80_13 1_555 1_555
H95_13 C80_13 1_555 1_555
H96_13 C80_13 1_555 1_555
H97_13 C81_13 1_555 1_555
H99_13 C81_13 1_555 1_555
H100_13 C85_13 1_555 1_555
H101_13 C85_13 1_555 1_555
H102_13 C85_13 1_555 1_555
H103_13 C86_13 1_555 1_555
H104_13 C86_13 1_555 1_555
H105_13 C86_13 1_555 1_555
H106_13 C90_13 1_555 1_555
H107_13 C90_13 1_555 1_555
H108_13 C90_13 1_555 1_555
H109_13 C91_13 1_555 1_555
H110_13 C91_13 1_555 1_555
H111_13 C91_13 1_555 1_555
H112_13 C95_13 1_555 1_555
H113_13 C95_13 1_555 1_555
H114_13 C95_13 1_555 1_555
H115_13 C96_13 1_555 1_555
H116_13 C96_13 1_555 1_555
H117_13 C96_13 1_555 1_555
H118_13 C100_13 1_555 1_555
H119_13 C100_13 1_555 1_555
H120_13 C100_13 1_555 1_555
H121_13 C101_13 1_555 1_555
H122_13 C101_13 1_555 1_555
H123_13 C101_13 1_555 1_555
H124_13 C105_13 1_555 1_555
H125_13 C105_13 1_555 1_555
H126_13 C105_13 1_555 1_555
H133_13 C111_13 1_555 1_555
H134_13 C111_13 1_555 1_555
H135_13 C111_13 1_555 1_555
H163_13 C136_13 1_555 1_555
H164_13 C136_13 1_555 1_555
H165_13 C136_13 1_555 1_555
H166_13 C140_13 1_555 1_555
H167_13 C140_13 1_555 1_555
H168_13 C140_13 1_555 1_555
H169_13 C141_13 1_555 1_555
H170_13 C141_13 1_555 1_555
H171_13 C141_13 1_555 1_555
H172_13 C145_13 1_555 1_555
H173_13 C145_13 1_555 1_555
H174_15 C145_13 1_555 1_555
H175_13 C146_13 1_555 1_555
H176_13 C146_13 1_555 1_555
H177_13 C146_13 1_555 1_555
H178_13 C150_13 1_555 1_555
H179_13 C150_13 1_555 1_555
H180_13 C150_13 1_555 1_555
Ag32_9 N3_9 1_555 1_555
Ag36_5 N11_5 1_555 1_555
Ag40_5 N22_5 1_555 1_555
N62_9 Ag3_9 1_555 1_555
N35_13 N36_13 1_555 1_555
N41_13 N42_13 1_555 1_555
N59_13 N60_13 1_555 1_555
C52_13 C53_13 1_555 1_555
C58_13 C59_13 1_555 1_555
C82_13 C83_13 1_555 1_555
C83_13 C84_13 1_555 1_555
C87_13 C88_13 1_555 1_555
C88_13 C89_13 1_555 1_555
C92_13 C93_13 1_555 1_555
C98_13 C99_13 1_555 1_555
C103_13 C104_13 1_555 1_555
C112_13 C113_13 1_555 1_555
C137_13 C138_13 1_555 1_555
C142_13 C143_13 1_555 1_555
C143_13 C144_13 1_555 1_555
C147_13 C148_13 1_555 1_555
C148_13 C149_13 1_555 1_555
N64_5 Ag5_5 1_555 1_555
N70_9 Ag12_9 1_555 1_555
N69_9 N70_9 1_555 1_555
Ag7_13 N13_13 1_555 1_555
Ag8_5 N14_13 1_555 1_555
Ag9_5 N17_13 1_555 1_555
Ag13_13 N25_13 1_555 1_555
Ag14_13 N26_13 1_555 1_555
Ag15_13 N28_13 1_555 1_555
Ag22_13 N43_13 1_555 1_555
Ag23_13 N44_13 1_555 1_555
Ag24_13 N46_13 1_555 1_555
Ag25_13 N49_13 1_555 1_555
N5_5 N6_5 1_555 1_555
N6_5 C14_13 1_555 1_555
N13_13 N14_13 1_555 1_555
N14_13 C34_13 1_555 1_555
N15_9 N16_9 1_555 1_555
N16_9 C39_13 1_555 1_555
N17_13 N18_13 1_555 1_555
N18_13 Ag7_13 1_555 1_555
N25_13 N26_13 1_555 1_555
N26_13 C64_13 1_555 1_555
N27_13 Ag14_13 1_555 1_555
N28_13 N27_13 1_555 1_555
N29_13 Ag15_13 1_555 1_555
N30_13 Ag13_13 1_555 1_555
N43_13 N44_13 1_555 1_555
N44_13 C109_13 1_555 1_555
N45_13 Ag23_13 1_555 1_555
N46_13 N45_13 1_555 1_555
N47_13 Ag24_13 1_555 1_555
N48_13 Ag22_13 1_555 1_555
N49_13 N50_13 1_555 1_555
N50_13 C124_13 1_555 1_555
N54_13 Ag25_13 1_555 1_555
C11_13 C12_13 1_555 1_555
C12_13 N5_5 1_555 1_555
C13_13 C12_13 1_555 1_555
C14_13 C13_13 1_555 1_555
C15_13 C14_13 1_555 1_555
C21_13 C22_13 1_555 1_555
C23_13 C22_13 1_555 1_555
C31_13 C32_13 1_555 1_555
C32_13 N13_13 1_555 1_555
C33_13 C32_13 1_555 1_555
C34_13 C33_13 1_555 1_555
C35_13 C34_13 1_555 1_555
C36_13 C37_13 1_555 1_555
C37_13 N15_9 1_555 1_555
C38_13 C33_13 1_555 1_555
C39_13 C38_13 1_555 1_555
C40_13 C39_13 1_555 1_555
C41_13 C42_13 1_555 1_555
C42_13 N17_13 1_555 1_555
C43_13 C42_13 1_555 1_555
C44_13 N18_13 1_555 1_555
C45_13 C44_13 1_555 1_555
C61_13 C62_13 1_555 1_555
C62_13 N25_13 1_555 1_555
C63_13 C13_13 1_555 1_555
C64_13 C63_13 1_555 1_555
C65_13 C64_13 1_555 1_555
C66_13 C67_13 1_555 1_555
C67_13 N27_13 1_555 1_555
C68_13 C23_13 1_555 1_555
C69_13 N28_13 1_555 1_555
C70_13 C69_13 1_555 1_555
C71_13 C72_13 1_555 1_555
C72_13 N29_13 1_555 1_555
C73_13 C72_13 1_555 1_555
C74_13 N30_13 1_555 1_555
C75_13 C74_13 1_555 1_555
C106_13 C107_13 1_555 1_555
C107_13 N43_13 1_555 1_555
C108_13 C107_13 1_555 1_555
C109_13 C108_13 1_555 1_555
C110_13 C109_13 1_555 1_555
C114_13 N46_13 1_555 1_555
C115_13 C114_13 1_555 1_555
C116_13 C117_13 1_555 1_555
C117_13 N47_13 1_555 1_555
C118_13 C73_13 1_555 1_555
C119_13 N48_13 1_555 1_555
C120_13 C119_13 1_555 1_555
C121_13 C122_13 1_555 1_555
C122_13 N49_13 1_555 1_555
C123_13 C43_13 1_555 1_555
C124_13 C123_13 1_555 1_555
C131_13 C132_13 1_555 1_555
C132_13 N53_13 1_555 1_555
C133_13 C108_13 1_555 1_555
C134_13 N54_13 1_555 1_555
C135_13 C134_13 1_555 1_555
H7_13 C6_13 1_555 1_555
H8_13 C6_13 1_555 1_555
H9_13 C6_13 1_555 1_555
H13_13 C11_13 1_555 1_555
H14_13 C11_13 1_555 1_555
H15_13 C11_13 1_555 1_555
H16_13 C15_13 1_555 1_555
H17_13 C15_13 1_555 1_555
H18_13 C15_13 1_555 1_555
H25_13 C21_13 1_555 1_555
H26_13 C21_13 1_555 1_555
H27_13 C21_13 1_555 1_555
H37_13 C31_13 1_555 1_555
H38_13 C31_13 1_555 1_555
H39_13 C31_13 1_555 1_555
H40_13 C35_13 1_555 1_555
H41_13 C35_13 1_555 1_555
H42_13 C35_13 1_555 1_555
H43_13 C36_13 1_555 1_555
H44_13 C36_13 1_555 1_555
H45_13 C36_13 1_555 1_555
H46_13 C40_13 1_555 1_555
H47_13 C40_13 1_555 1_555
H48_13 C40_13 1_555 1_555
H49_13 C41_13 1_555 1_555
H50_13 C41_13 1_555 1_555
H51_13 C41_13 1_555 1_555
H52_13 C45_13 1_555 1_555
H53_13 C45_13 1_555 1_555
H54_13 C45_13 1_555 1_555
H73_13 C61_13 1_555 1_555
H74_13 C61_13 1_555 1_555
H75_13 C61_13 1_555 1_555
H76_13 C65_13 1_555 1_555
H77_13 C65_13 1_555 1_555
H78_13 C65_13 1_555 1_555
H79_13 C66_13 1_555 1_555
H80_13 C66_13 1_555 1_555
H81_13 C66_13 1_555 1_555
H82_13 C70_13 1_555 1_555
H83_13 C70_13 1_555 1_555
H84_13 C70_13 1_555 1_555
H85_13 C71_13 1_555 1_555
H86_13 C71_13 1_555 1_555
H87_13 C71_13 1_555 1_555
H88_13 C75_13 1_555 1_555
H89_13 C75_13 1_555 1_555
H90_13 C75_13 1_555 1_555
H127_13 C106_13 1_555 1_555
H128_13 C106_13 1_555 1_555
H129_13 C106_13 1_555 1_555
H130_13 C110_13 1_555 1_555
H131_13 C110_13 1_555 1_555
H132_13 C110_13 1_555 1_555
H136_13 C115_13 1_555 1_555
H137_13 C115_13 1_555 1_555
H139_13 C116_13 1_555 1_555
H140_13 C116_13 1_555 1_555
H141_13 C116_13 1_555 1_555
H142_13 C120_13 1_555 1_555
H143_13 C120_13 1_555 1_555
H144_13 C120_13 1_555 1_555
H145_13 C121_13 1_555 1_555
H146_13 C121_13 1_555 1_555
H147_13 C121_13 1_555 1_555
H157_13 C131_13 1_555 1_555
H158_13 C131_13 1_555 1_555
H159_13 C131_13 1_555 1_555
H160_13 C135_13 1_555 1_555
H161_13 C135_13 1_555 1_555
H162_13 C135_13 1_555 1_555
Ag31_5 N6_5 1_555 1_555
Ag33_5 N5_5 1_555 1_555
N67_5 Ag8_5 1_555 1_555
N68_5 Ag9_5 1_555 1_555
N29_13 N30_13 1_555 1_555
N47_13 N48_13 1_555 1_555
N53_13 N54_13 1_555 1_555
C37_13 C38_13 1_555 1_555
C43_13 C44_13 1_555 1_555
C62_13 C63_13 1_555 1_555
C67_13 C68_13 1_555 1_555
C68_13 C69_13 1_555 1_555
C73_13 C74_13 1_555 1_555
C117_13 C118_13 1_555 1_555
C118_13 C119_13 1_555 1_555
C122_13 C123_13 1_555 1_555
C132_13 C133_13 1_555 1_555
C133_13 C134_13 1_555 1_555
N67_5 N68_5 1_555 1_555
Ag31_5 N1_13 1_555 1_555
Ag2_5 N2_13 1_555 1_555
Ag27_13 N52_13 1_555 1_555
N1_13 N2_13 1_555 1_555
N2_13 C4_13 1_555 1_555
N51_13 Ag26_13 1_555 1_555
N52_13 N51_13 1_555 1_555
C1_13 C2_13 1_555 1_555
C2_13 N1_13 1_555 1_555
C3_13 C2_13 1_555 1_555
C4_13 C3_13 1_555 1_555
C5_13 C4_13 1_555 1_555
C126_13 C127_13 1_555 1_555
C127_13 N51_13 1_555 1_555
C128_13 C3_13 1_555 1_555
C129_13 N52_13 1_555 1_555
C130_13 C129_13 1_555 1_555
H1_13 C1_13 1_555 1_555
H2_13 C1_13 1_555 1_555
H3_13 C1_13 1_555 1_555
H4_13 C5_13 1_555 1_555
H5_13 C5_13 1_555 1_555
H6_13 C5_13 1_555 1_555
H148_13 C125_13 1_555 1_555
H149_13 C125_13 1_555 1_555
H150_13 C125_13 1_555 1_555
H151_13 C126_13 1_555 1_555
H152_13 C126_13 1_555 1_555
H153_13 C126_13 1_555 1_555
H154_13 C130_13 1_555 1_555
H155_13 C130_13 1_555 1_555
H156_13 C130_13 1_555 1_555
N61_5 Ag2_5 1_555 1_555
C127_13 C128_13 1_555 1_555
C128_13 C129_13 1_555 1_555
Ag6_9 N10_13 1_555 1_555
N9_9 N10_13 1_555 1_555
N10_13 C24_13 1_555 1_555
C25_13 C24_13 1_555 1_555
H28_13 C25_13 1_555 1_555
H29_13 C25_13 1_555 1_555
H30_13 C25_13 1_555 1_555
Ag35_9 N9_9 1_555 1_555
N65_9 Ag6_9 1_555 1_555
Ag10_14 N19_14 1_555 1_555
Ag11_10 N20_14 1_555 1_555
N19_14 N20_14 1_555 1_555
N20_14 C49_14 1_555 1_555
N70_9 C54_14 1_555 1_555
N23_14 N24_14 1_555 1_555
N24_14 Ag10_14 1_555 1_555
C46_14 C47_14 1_555 1_555
C47_14 N19_14 1_555 1_555
C48_14 C47_14 1_555 1_555
C49_14 C48_14 1_555 1_555
C50_14 C49_14 1_555 1_555
C51_14 C52_14 1_555 1_555
C52_14 N69_9 1_555 1_555
C53_14 C48_14 1_555 1_555
C54_14 C53_14 1_555 1_555
C55_14 C54_14 1_555 1_555
C59_14 N24_14 1_555 1_555
C60_14 C59_14 1_555 1_555
C145_14 C144_14 1_555 1_555
H55_14 C46_14 1_555 1_555
H56_14 C46_14 1_555 1_555
H57_14 C46_14 1_555 1_555
H58_14 C50_14 1_555 1_555
H59_14 C50_14 1_555 1_555
H60_14 C50_14 1_555 1_555
H61_14 C51_14 1_555 1_555
H62_14 C51_14 1_555 1_555
H63_14 C51_14 1_555 1_555
H64_14 C55_14 1_555 1_555
H65_14 C55_14 1_555 1_555
H66_14 C55_14 1_555 1_555
H70_14 C60_14 1_555 1_555
H71_14 C60_14 1_555 1_555
H72_14 C60_14 1_555 1_555
H172_14 C145_14 1_555 1_555
H173_14 C145_14 1_555 1_555
H174_16 C145_14 1_555 1_555
C52_14 C53_14 1_555 1_555
C58_14 C59_14 1_555 1_555
Ag6_10 N10_14 1_555 1_555
Ag13_14 N25_14 1_555 1_555
Ag14_14 N26_14 1_555 1_555
Ag15_14 N28_14 1_555 1_555
Ag21_14 N40_14 1_555 1_555
Ag24_14 N46_14 1_555 1_555
Ag29_14 N56_14 1_555 1_555
N62_9 N6_6 1_555 1_555
N6_6 C14_14 1_555 1_555
N9_10 N10_14 1_555 1_555
N10_14 C24_14 1_555 1_555
N25_14 N26_14 1_555 1_555
N26_14 C64_14 1_555 1_555
N27_14 Ag14_14 1_555 1_555
N28_14 N27_14 1_555 1_555
N29_14 Ag15_14 1_555 1_555
N30_14 Ag13_14 1_555 1_555
N39_14 Ag20_14 1_555 1_555
N40_14 N39_14 1_555 1_555
N41_14 Ag21_14 1_555 1_555
N45_14 Ag23_14 1_555 1_555
N46_14 N45_14 1_555 1_555
N47_14 Ag24_14 1_555 1_555
N48_14 Ag22_14 1_555 1_555
N56_14 C139_14 1_555 1_555
C11_14 C12_14 1_555 1_555
C12_14 N62_9 1_555 1_555
C13_14 C12_14 1_555 1_555
C14_14 C13_14 1_555 1_555
C15_14 C14_14 1_555 1_555
C21_14 C22_14 1_555 1_555
C22_14 N9_10 1_555 1_555
C23_14 C22_14 1_555 1_555
C24_14 C23_14 1_555 1_555
C25_14 C24_14 1_555 1_555
C61_14 C62_14 1_555 1_555
C62_14 N25_14 1_555 1_555
C63_14 C13_14 1_555 1_555
C64_14 C63_14 1_555 1_555
C65_14 C64_14 1_555 1_555
C66_14 C67_14 1_555 1_555
C67_14 N27_14 1_555 1_555
C68_14 C23_14 1_555 1_555
C69_14 N28_14 1_555 1_555
C70_14 C69_14 1_555 1_555
C71_14 C72_14 1_555 1_555
C72_14 N29_14 1_555 1_555
C73_14 C72_14 1_555 1_555
C74_14 N30_14 1_555 1_555
C75_14 C74_14 1_555 1_555
C96_14 C97_14 1_555 1_555
C97_14 N39_14 1_555 1_555
C98_14 C97_14 1_555 1_555
C99_14 N40_14 1_555 1_555
C100_14 C99_14 1_555 1_555
C101_14 C102_14 1_555 1_555
C102_14 N41_14 1_555 1_555
C103_14 C102_14 1_555 1_555
C111_14 C112_14 1_555 1_555
C112_14 N45_14 1_555 1_555
C113_14 C98_14 1_555 1_555
C114_14 N46_14 1_555 1_555
C115_14 C114_14 1_555 1_555
C116_14 C117_14 1_555 1_555
C117_14 N47_14 1_555 1_555
C118_14 C73_14 1_555 1_555
C119_14 N48_14 1_555 1_555
C120_14 C119_14 1_555 1_555
C138_14 C103_14 1_555 1_555
C139_14 C138_14 1_555 1_555
C140_14 C139_14 1_555 1_555
H13_14 C11_14 1_555 1_555
H14_14 C11_14 1_555 1_555
H15_14 C11_14 1_555 1_555
H16_14 C15_14 1_555 1_555
H17_14 C15_14 1_555 1_555
H18_14 C15_14 1_555 1_555
H25_14 C21_14 1_555 1_555
H26_14 C21_14 1_555 1_555
H27_14 C21_14 1_555 1_555
H28_14 C25_14 1_555 1_555
H29_14 C25_14 1_555 1_555
H30_14 C25_14 1_555 1_555
H73_14 C61_14 1_555 1_555
H74_14 C61_14 1_555 1_555
H75_14 C61_14 1_555 1_555
H76_14 C65_14 1_555 1_555
H77_14 C65_14 1_555 1_555
H78_14 C65_14 1_555 1_555
H79_14 C66_14 1_555 1_555
H80_14 C66_14 1_555 1_555
H81_14 C66_14 1_555 1_555
H82_14 C70_14 1_555 1_555
H83_14 C70_14 1_555 1_555
H84_14 C70_14 1_555 1_555
H85_14 C71_14 1_555 1_555
H86_14 C71_14 1_555 1_555
H87_14 C71_14 1_555 1_555
H88_14 C75_14 1_555 1_555
H89_14 C75_14 1_555 1_555
H90_14 C75_14 1_555 1_555
H115_14 C96_14 1_555 1_555
H116_14 C96_14 1_555 1_555
H117_14 C96_14 1_555 1_555
H118_14 C100_14 1_555 1_555
H119_14 C100_14 1_555 1_555
H120_14 C100_14 1_555 1_555
H121_14 C101_14 1_555 1_555
H122_14 C101_14 1_555 1_555
H123_14 C101_14 1_555 1_555
H133_14 C111_14 1_555 1_555
H134_14 C111_14 1_555 1_555
H135_14 C111_14 1_555 1_555
H136_14 C115_14 1_555 1_555
H137_14 C115_14 1_555 1_555
H138_14 C115_14 1_555 1_555
H139_14 C116_14 1_555 1_555
H140_14 C116_14 1_555 1_555
H141_14 C116_14 1_555 1_555
H142_14 C120_14 1_555 1_555
H143_14 C120_14 1_555 1_555
H144_14 C120_14 1_555 1_555
H166_14 C140_14 1_555 1_555
H167_14 C140_14 1_555 1_555
H168_14 C140_14 1_555 1_555
Ag31_6 N6_6 1_555 1_555
Ag35_10 N9_10 1_555 1_555
N65_10 Ag6_10 1_555 1_555
N29_14 N30_14 1_555 1_555
N41_14 N42_14 1_555 1_555
N47_14 N48_14 1_555 1_555
C62_14 C63_14 1_555 1_555
C67_14 C68_14 1_555 1_555
C68_14 C69_14 1_555 1_555
C73_14 C74_14 1_555 1_555
C98_14 C99_14 1_555 1_555
C112_14 C113_14 1_555 1_555
C113_14 C114_14 1_555 1_555
C117_14 C118_14 1_555 1_555
C118_14 C119_14 1_555 1_555
Ag31_6 N1_14 1_555 1_555
N43_14 N44_14 1_555 1_555
N44_14 C109_14 1_555 1_555
N58_14 N57_14 1_555 1_555
C1_14 C2_14 1_555 1_555
C2_14 N1_14 1_555 1_555
C56_14 C57_14 1_555 1_555
C106_14 C107_14 1_555 1_555
C107_14 N43_14 1_555 1_555
C108_14 C107_14 1_555 1_555
C109_14 C108_14 1_555 1_555
C110_14 C109_14 1_555 1_555
C130_14 C129_14 1_555 1_555
C131_14 C132_14 1_555 1_555
C133_14 C108_14 1_555 1_555
C141_14 C142_14 1_555 1_555
C142_14 N57_14 1_555 1_555
H1_14 C1_14 1_555 1_555
H2_14 C1_14 1_555 1_555
H3_14 C1_14 1_555 1_555
H67_14 C56_14 1_555 1_555
H68_14 C56_14 1_555 1_555
H69_14 C56_14 1_555 1_555
H127_14 C106_14 1_555 1_555
H128_14 C106_14 1_555 1_555
H129_14 C106_14 1_555 1_555
H130_14 C110_14 1_555 1_555
H131_14 C110_14 1_555 1_555
H132_14 C110_14 1_555 1_555
H154_14 C130_14 1_555 1_555
H155_14 C130_14 1_555 1_555
H156_14 C130_14 1_555 1_555
H157_14 C131_14 1_555 1_555
H158_14 C131_14 1_555 1_555
H159_14 C131_14 1_555 1_555
H169_14 C141_14 1_555 1_555
H170_14 C141_14 1_555 1_555
H171_14 C141_14 1_555 1_555
N70_10 Ag12_10 1_555 1_555
C132_14 C133_14 1_555 1_555
C142_14 C143_14 1_555 1_555
N69_10 N70_10 1_555 1_555
Ag3_10 N4_14 1_555 1_555
Ag16_14 N31_14 1_555 1_555
Ag17_14 N32_14 1_555 1_555
Ag18_14 N34_14 1_555 1_555
Ag19_14 N37_14 1_555 1_555
Ag28_14 N55_14 1_555 1_555
N3_10 N4_14 1_555 1_555
N4_14 C9_14 1_555 1_555
N65_9 N12_6 1_555 1_555
N12_6 C29_14 1_555 1_555
N31_14 N32_14 1_555 1_555
N32_14 C79_14 1_555 1_555
N33_14 Ag17_14 1_555 1_555
N34_14 N33_14 1_555 1_555
N35_14 Ag18_14 1_555 1_555
N36_14 Ag16_14 1_555 1_555
N37_14 N38_14 1_555 1_555
N38_14 C94_14 1_555 1_555
C6_14 C7_14 1_555 1_555
C7_14 N3_10 1_555 1_555
C8_14 C7_14 1_555 1_555
C9_14 C8_14 1_555 1_555
C10_14 C9_14 1_555 1_555
C26_14 C27_14 1_555 1_555
C27_14 N65_9 1_555 1_555
C28_14 C27_14 1_555 1_555
C29_14 C28_14 1_555 1_555
C30_14 C29_14 1_555 1_555
C76_14 C77_14 1_555 1_555
C77_14 N31_14 1_555 1_555
C78_14 C77_14 1_555 1_555
C79_14 C78_14 1_555 1_555
C80_14 C79_14 1_555 1_555
C81_14 C82_14 1_555 1_555
C82_14 N33_14 1_555 1_555
C83_14 C8_14 1_555 1_555
C84_14 N34_14 1_555 1_555
C85_14 C84_14 1_555 1_555
C86_14 C87_14 1_555 1_555
C87_14 N35_14 1_555 1_555
C88_14 C28_14 1_555 1_555
C89_14 N36_14 1_555 1_555
C90_14 C89_14 1_555 1_555
C91_14 C92_14 1_555 1_555
C92_14 N37_14 1_555 1_555
C93_14 C78_14 1_555 1_555
C94_14 C93_14 1_555 1_555
C95_14 C94_14 1_555 1_555
C105_14 C104_14 1_555 1_555
C136_14 C137_14 1_555 1_555
C137_14 N55_14 1_555 1_555
H7_14 C6_14 1_555 1_555
H8_14 C6_14 1_555 1_555
H9_14 C6_14 1_555 1_555
H10_14 C10_14 1_555 1_555
H11_14 C10_14 1_555 1_555
H12_14 C10_14 1_555 1_555
H31_14 C26_14 1_555 1_555
H32_14 C26_14 1_555 1_555
H33_14 C26_14 1_555 1_555
H34_14 C30_14 1_555 1_555
H35_14 C30_14 1_555 1_555
H36_14 C30_14 1_555 1_555
H91_14 C76_14 1_555 1_555
H92_14 C76_14 1_555 1_555
H93_14 C76_14 1_555 1_555
H94_14 C80_14 1_555 1_555
H95_14 C80_14 1_555 1_555
H96_14 C80_14 1_555 1_555
H97_14 C81_14 1_555 1_555
H98_14 C81_14 1_555 1_555
H99_14 C81_14 1_555 1_555
H100_14 C85_14 1_555 1_555
H101_14 C85_14 1_555 1_555
H102_14 C85_14 1_555 1_555
H103_14 C86_14 1_555 1_555
H104_14 C86_14 1_555 1_555
H105_14 C86_14 1_555 1_555
H106_14 C90_14 1_555 1_555
H107_14 C90_14 1_555 1_555
H108_14 C90_14 1_555 1_555
H109_14 C91_14 1_555 1_555
H110_14 C91_14 1_555 1_555
H111_14 C91_14 1_555 1_555
H112_14 C95_14 1_555 1_555
H113_14 C95_14 1_555 1_555
H114_14 C95_14 1_555 1_555
H124_14 C105_14 1_555 1_555
H125_14 C105_14 1_555 1_555
H126_14 C105_14 1_555 1_555
H163_14 C136_14 1_555 1_555
H164_14 C136_14 1_555 1_555
H165_14 C136_14 1_555 1_555
Ag32_10 N3_10 1_555 1_555
Ag34_6 N12_6 1_555 1_555
N62_10 Ag3_10 1_555 1_555
N35_14 N36_14 1_555 1_555
C82_14 C83_14 1_555 1_555
C83_14 C84_14 1_555 1_555
C87_14 C88_14 1_555 1_555
C88_14 C89_14 1_555 1_555
C92_14 C93_14 1_555 1_555
Ag34_6 N7_14 1_555 1_555
Ag35_9 N8_14 1_555 1_555
Ag7_14 N13_14 1_555 1_555
Ag37_9 N14_14 1_555 1_555
Ag38_9 N17_14 1_555 1_555
Ag25_14 N49_14 1_555 1_555
Ag26_14 N50_14 1_555 1_555
Ag27_14 N52_14 1_555 1_555
N2_14 C4_14 1_555 1_555
N7_14 N8_14 1_555 1_555
N8_14 C19_14 1_555 1_555
N13_14 N14_14 1_555 1_555
N14_14 C34_14 1_555 1_555
N15_10 N16_10 1_555 1_555
N16_10 C39_14 1_555 1_555
N17_14 N18_14 1_555 1_555
N18_14 Ag7_14 1_555 1_555
N49_14 N50_14 1_555 1_555
N50_14 C124_14 1_555 1_555
N51_14 Ag26_14 1_555 1_555
N52_14 N51_14 1_555 1_555
N53_14 Ag27_14 1_555 1_555
N54_14 Ag25_14 1_555 1_555
N59_14 Ag30_14 1_555 1_555
C4_14 C3_14 1_555 1_555
C5_14 C4_14 1_555 1_555
C16_14 C17_14 1_555 1_555
C17_14 N7_14 1_555 1_555
C18_14 C17_14 1_555 1_555
C19_14 C18_14 1_555 1_555
C31_14 C32_14 1_555 1_555
C32_14 N13_14 1_555 1_555
C33_14 C32_14 1_555 1_555
C34_14 C33_14 1_555 1_555
C35_14 C34_14 1_555 1_555
C36_14 C37_14 1_555 1_555
C37_14 N15_10 1_555 1_555
C38_14 C33_14 1_555 1_555
C39_14 C38_14 1_555 1_555
C40_14 C39_14 1_555 1_555
C41_14 C42_14 1_555 1_555
C42_14 N17_14 1_555 1_555
C43_14 C42_14 1_555 1_555
C44_14 N18_14 1_555 1_555
C45_14 C44_14 1_555 1_555
C121_14 C122_14 1_555 1_555
C122_14 N49_14 1_555 1_555
C123_14 C43_14 1_555 1_555
C124_14 C123_14 1_555 1_555
C125_14 C124_14 1_555 1_555
C126_14 C127_14 1_555 1_555
C127_14 N51_14 1_555 1_555
C128_14 C3_14 1_555 1_555
C134_14 N54_14 1_555 1_555
C135_14 C134_14 1_555 1_555
C147_14 N59_14 1_555 1_555
C148_14 C18_14 1_555 1_555
C149_14 N60_14 1_555 1_555
C150_14 C149_14 1_555 1_555
H4_14 C5_14 1_555 1_555
H5_14 C5_14 1_555 1_555
H6_14 C5_14 1_555 1_555
H19_14 C16_14 1_555 1_555
H20_14 C16_14 1_555 1_555
H21_14 C16_14 1_555 1_555
H37_14 C31_14 1_555 1_555
H38_14 C31_14 1_555 1_555
H39_14 C31_14 1_555 1_555
H40_14 C35_14 1_555 1_555
H41_14 C35_14 1_555 1_555
H42_14 C35_14 1_555 1_555
H43_14 C36_14 1_555 1_555
H44_14 C36_14 1_555 1_555
H45_14 C36_14 1_555 1_555
H46_14 C40_14 1_555 1_555
H47_14 C40_14 1_555 1_555
H48_14 C40_14 1_555 1_555
H49_14 C41_14 1_555 1_555
H50_14 C41_14 1_555 1_555
H51_14 C41_14 1_555 1_555
H52_14 C45_14 1_555 1_555
H53_14 C45_14 1_555 1_555
H54_14 C45_14 1_555 1_555
H145_14 C121_14 1_555 1_555
H146_14 C121_14 1_555 1_555
H147_14 C121_14 1_555 1_555
H148_14 C125_14 1_555 1_555
H149_14 C125_14 1_555 1_555
H150_14 C125_14 1_555 1_555
H151_14 C126_14 1_555 1_555
H152_14 C126_14 1_555 1_555
H153_14 C126_14 1_555 1_555
H160_14 C135_14 1_555 1_555
H161_14 C135_14 1_555 1_555
H162_14 C135_14 1_555 1_555
H178_14 C150_14 1_555 1_555
H179_14 C150_14 1_555 1_555
H180_14 C150_14 1_555 1_555
Ag37_10 N15_10 1_555 1_555
Ag38_10 N16_10 1_555 1_555
N53_14 N54_14 1_555 1_555
N59_14 N60_14 1_555 1_555
C37_14 C38_14 1_555 1_555
C43_14 C44_14 1_555 1_555
C122_14 C123_14 1_555 1_555
C127_14 C128_14 1_555 1_555
C147_14 C148_14 1_555 1_555
C148_14 C149_14 1_555 1_555
N11_6 N12_7 1_555 1_555
N12_7 C29_15 1_555 1_555
N35_15 Ag18_15 1_555 1_555
N36_15 Ag16_15 1_555 1_555
C26_15 C27_15 1_555 1_555
C27_15 N11_6 1_555 1_555
C28_15 C27_15 1_555 1_555
C29_15 C28_15 1_555 1_555
C30_15 C29_15 1_555 1_555
C86_15 C87_15 1_555 1_555
C87_15 N35_15 1_555 1_555
C88_15 C28_15 1_555 1_555
C89_15 N36_15 1_555 1_555
C90_15 C89_15 1_555 1_555
H31_15 C26_15 1_555 1_555
H32_15 C26_15 1_555 1_555
H33_15 C26_15 1_555 1_555
H34_15 C30_15 1_555 1_555
H35_15 C30_15 1_555 1_555
H36_15 C30_15 1_555 1_555
H103_15 C86_15 1_555 1_555
H104_15 C86_15 1_555 1_555
H105_15 C86_15 1_555 1_555
H106_15 C90_15 1_555 1_555
H107_15 C90_15 1_555 1_555
H108_15 C90_15 1_555 1_555
Ag34_7 N12_7 1_555 1_555
Ag36_6 N11_6 1_555 1_555
N35_15 N36_15 1_555 1_555
C87_15 C88_15 1_555 1_555
C88_15 C89_15 1_555 1_555
Ag2_6 N2_15 1_555 1_555
Ag33_5 N4_15 1_555 1_555
Ag34_7 N7_15 1_555 1_555
Ag5_6 N8_15 1_555 1_555
Ag36_5 N10_15 1_555 1_555
Ag7_15 N13_15 1_555 1_555
Ag8_6 N14_15 1_555 1_555
Ag9_6 N17_15 1_555 1_555
Ag13_15 N25_15 1_555 1_555
Ag14_15 N26_15 1_555 1_555
Ag15_15 N28_15 1_555 1_555
Ag17_15 N32_15 1_555 1_555
Ag19_15 N37_15 1_555 1_555
Ag20_15 N38_15 1_555 1_555
Ag21_15 N40_15 1_555 1_555
Ag22_15 N43_15 1_555 1_555
Ag23_15 N44_15 1_555 1_555
Ag24_15 N46_15 1_555 1_555
Ag25_15 N49_15 1_555 1_555
Ag26_15 N50_15 1_555 1_555
Ag27_15 N52_15 1_555 1_555
Ag28_15 N55_15 1_555 1_555
Ag29_15 N56_15 1_555 1_555
Ag30_15 N58_15 1_555 1_555
N1_15 N2_15 1_555 1_555
N2_15 C4_15 1_555 1_555
N61_5 N4_15 1_555 1_555
N4_15 C9_15 1_555 1_555
N5_6 N6_7 1_555 1_555
N6_7 C14_15 1_555 1_555
N7_15 N8_15 1_555 1_555
N8_15 C19_15 1_555 1_555
N64_5 N10_15 1_555 1_555
N10_15 C24_15 1_555 1_555
N13_15 N14_15 1_555 1_555
N14_15 C34_15 1_555 1_555
N68_5 C39_15 1_555 1_555
N17_15 N18_15 1_555 1_555
N18_15 Ag7_15 1_555 1_555
N25_15 N26_15 1_555 1_555
N26_15 C64_15 1_555 1_555
N27_15 Ag14_15 1_555 1_555
N28_15 N27_15 1_555 1_555
N29_15 Ag15_15 1_555 1_555
N30_15 Ag13_15 1_555 1_555
N31_15 N32_15 1_555 1_555
N32_15 C79_15 1_555 1_555
N33_15 Ag17_15 1_555 1_555
N34_15 N33_15 1_555 1_555
N37_15 N38_15 1_555 1_555
N38_15 C94_15 1_555 1_555
N39_15 Ag20_15 1_555 1_555
N40_15 N39_15 1_555 1_555
N41_15 Ag21_15 1_555 1_555
N42_15 Ag19_15 1_555 1_555
N43_15 N44_15 1_555 1_555
N44_15 C109_15 1_555 1_555
N45_15 Ag23_15 1_555 1_555
N46_15 N45_15 1_555 1_555
N47_15 Ag24_15 1_555 1_555
N48_15 Ag22_15 1_555 1_555
N49_15 N50_15 1_555 1_555
N50_15 C124_15 1_555 1_555
N51_15 Ag26_15 1_555 1_555
N52_15 N51_15 1_555 1_555
N53_15 Ag27_15 1_555 1_555
N54_15 Ag25_15 1_555 1_555
N55_15 N56_15 1_555 1_555
N56_15 C139_15 1_555 1_555
N57_15 Ag29_15 1_555 1_555
N58_15 N57_15 1_555 1_555
N59_15 Ag30_15 1_555 1_555
N60_15 Ag28_15 1_555 1_555
C1_15 C2_15 1_555 1_555
C2_15 N1_15 1_555 1_555
C3_15 C2_15 1_555 1_555
C4_15 C3_15 1_555 1_555
C5_15 C4_15 1_555 1_555
C6_15 C7_15 1_555 1_555
C7_15 N61_5 1_555 1_555
C8_15 C7_15 1_555 1_555
C9_15 C8_15 1_555 1_555
C10_15 C9_15 1_555 1_555
C11_15 C12_15 1_555 1_555
C12_15 N5_6 1_555 1_555
C13_15 C12_15 1_555 1_555
C14_15 C13_15 1_555 1_555
C15_15 C14_15 1_555 1_555
C16_15 C17_15 1_555 1_555
C17_15 N7_15 1_555 1_555
C18_15 C17_15 1_555 1_555
C19_15 C18_15 1_555 1_555
C21_15 C22_15 1_555 1_555
C22_15 N64_5 1_555 1_555
C23_15 C22_15 1_555 1_555
C24_15 C23_15 1_555 1_555
C25_15 C24_15 1_555 1_555
C31_15 C32_15 1_555 1_555
C32_15 N13_15 1_555 1_555
C33_15 C32_15 1_555 1_555
C34_15 C33_15 1_555 1_555
C35_15 C34_15 1_555 1_555
C36_15 C37_15 1_555 1_555
C37_15 N67_5 1_555 1_555
C38_15 C33_15 1_555 1_555
C39_15 C38_15 1_555 1_555
C40_15 C39_15 1_555 1_555
C41_15 C42_15 1_555 1_555
C42_15 N17_15 1_555 1_555
C43_15 C42_15 1_555 1_555
C44_15 N18_15 1_555 1_555
C45_15 C44_15 1_555 1_555
C56_15 C57_15 1_555 1_555
C61_15 C62_15 1_555 1_555
C62_15 N25_15 1_555 1_555
C63_15 C13_15 1_555 1_555
C64_15 C63_15 1_555 1_555
C65_15 C64_15 1_555 1_555
C66_15 C67_15 1_555 1_555
C67_15 N27_15 1_555 1_555
C68_15 C23_15 1_555 1_555
C69_15 N28_15 1_555 1_555
C70_15 C69_15 1_555 1_555
C71_15 C72_15 1_555 1_555
C72_15 N29_15 1_555 1_555
C73_15 C72_15 1_555 1_555
C74_15 N30_15 1_555 1_555
C75_15 C74_15 1_555 1_555
C76_15 C77_15 1_555 1_555
C77_15 N31_15 1_555 1_555
C78_15 C77_15 1_555 1_555
C79_15 C78_15 1_555 1_555
C80_15 C79_15 1_555 1_555
C81_15 C82_15 1_555 1_555
C82_15 N33_15 1_555 1_555
C83_15 C8_15 1_555 1_555
C84_15 N34_15 1_555 1_555
C85_15 C84_15 1_555 1_555
C91_15 C92_15 1_555 1_555
C92_15 N37_15 1_555 1_555
C93_15 C78_15 1_555 1_555
C94_15 C93_15 1_555 1_555
C95_15 C94_15 1_555 1_555
C96_15 C97_15 1_555 1_555
C97_15 N39_15 1_555 1_555
C98_15 C97_15 1_555 1_555
C99_15 N40_15 1_555 1_555
C100_15 C99_15 1_555 1_555
C101_15 C102_15 1_555 1_555
C102_15 N41_15 1_555 1_555
C103_15 C102_15 1_555 1_555
C104_15 N42_15 1_555 1_555
C105_15 C104_15 1_555 1_555
C106_15 C107_15 1_555 1_555
C107_15 N43_15 1_555 1_555
C108_15 C107_15 1_555 1_555
C109_15 C108_15 1_555 1_555
C110_15 C109_15 1_555 1_555
C111_15 C112_15 1_555 1_555
C112_15 N45_15 1_555 1_555
C113_15 C98_15 1_555 1_555
C114_15 N46_15 1_555 1_555
C115_15 C114_15 1_555 1_555
C116_15 C117_15 1_555 1_555
C117_15 N47_15 1_555 1_555
C118_15 C73_15 1_555 1_555
C119_15 N48_15 1_555 1_555
C120_15 C119_15 1_555 1_555
C121_15 C122_15 1_555 1_555
C122_15 N49_15 1_555 1_555
C123_15 C43_15 1_555 1_555
C124_15 C123_15 1_555 1_555
C125_15 C124_15 1_555 1_555
C126_15 C127_15 1_555 1_555
C127_15 N51_15 1_555 1_555
C128_15 C3_15 1_555 1_555
C129_15 N52_15 1_555 1_555
C130_15 C129_15 1_555 1_555
C131_15 C132_15 1_555 1_555
C132_15 N53_15 1_555 1_555
C133_15 C108_15 1_555 1_555
C134_15 N54_15 1_555 1_555
C135_15 C134_15 1_555 1_555
C136_15 C137_15 1_555 1_555
C137_15 N55_15 1_555 1_555
C138_15 C103_15 1_555 1_555
C139_15 C138_15 1_555 1_555
C140_15 C139_15 1_555 1_555
C141_15 C142_15 1_555 1_555
C142_15 N57_15 1_555 1_555
C147_15 N59_15 1_555 1_555
C148_15 C18_15 1_555 1_555
C149_15 N60_15 1_555 1_555
C150_15 C149_15 1_555 1_555
H2_15 C1_15 1_555 1_555
H3_15 C1_15 1_555 1_555
H4_15 C5_15 1_555 1_555
H5_15 C5_15 1_555 1_555
H6_15 C5_15 1_555 1_555
H7_15 C6_15 1_555 1_555
H8_15 C6_15 1_555 1_555
H9_15 C6_15 1_555 1_555
H10_15 C10_15 1_555 1_555
H11_15 C10_15 1_555 1_555
H12_15 C10_15 1_555 1_555
H13_15 C11_15 1_555 1_555
H14_15 C11_15 1_555 1_555
H15_15 C11_15 1_555 1_555
H16_15 C15_15 1_555 1_555
H17_15 C15_15 1_555 1_555
H18_15 C15_15 1_555 1_555
H19_15 C16_15 1_555 1_555
H20_15 C16_15 1_555 1_555
H21_15 C16_15 1_555 1_555
H25_15 C21_15 1_555 1_555
H26_15 C21_15 1_555 1_555
H27_15 C21_15 1_555 1_555
H28_15 C25_15 1_555 1_555
H29_15 C25_15 1_555 1_555
H30_15 C25_15 1_555 1_555
H37_15 C31_15 1_555 1_555
H38_15 C31_15 1_555 1_555
H39_15 C31_15 1_555 1_555
H40_15 C35_15 1_555 1_555
H41_15 C35_15 1_555 1_555
H42_15 C35_15 1_555 1_555
H43_15 C36_15 1_555 1_555
H44_15 C36_15 1_555 1_555
H45_15 C36_15 1_555 1_555
H46_15 C40_15 1_555 1_555
H47_15 C40_15 1_555 1_555
H48_15 C40_15 1_555 1_555
H49_15 C41_15 1_555 1_555
H50_15 C41_15 1_555 1_555
H51_15 C41_15 1_555 1_555
H52_15 C45_15 1_555 1_555
H53_15 C45_15 1_555 1_555
H54_15 C45_15 1_555 1_555
H67_15 C56_15 1_555 1_555
H68_15 C56_15 1_555 1_555
H69_15 C56_15 1_555 1_555
H73_15 C61_15 1_555 1_555
H74_15 C61_15 1_555 1_555
H75_15 C61_15 1_555 1_555
H76_15 C65_15 1_555 1_555
H77_15 C65_15 1_555 1_555
H78_15 C65_15 1_555 1_555
H79_15 C66_15 1_555 1_555
H80_15 C66_15 1_555 1_555
H81_15 C66_15 1_555 1_555
H82_15 C70_15 1_555 1_555
H83_15 C70_15 1_555 1_555
H84_15 C70_15 1_555 1_555
H85_15 C71_15 1_555 1_555
H86_15 C71_15 1_555 1_555
H87_15 C71_15 1_555 1_555
H88_15 C75_15 1_555 1_555
H89_15 C75_15 1_555 1_555
H90_15 C75_15 1_555 1_555
H92_15 C76_15 1_555 1_555
H93_15 C76_15 1_555 1_555
H94_15 C80_15 1_555 1_555
H95_15 C80_15 1_555 1_555
H96_15 C80_15 1_555 1_555
H97_15 C81_15 1_555 1_555
H98_15 C81_15 1_555 1_555
H99_15 C81_15 1_555 1_555
H101_15 C85_15 1_555 1_555
H102_15 C85_15 1_555 1_555
H109_15 C91_15 1_555 1_555
H110_15 C91_15 1_555 1_555
H111_15 C91_15 1_555 1_555
H112_15 C95_15 1_555 1_555
H113_15 C95_15 1_555 1_555
H114_15 C95_15 1_555 1_555
H115_15 C96_15 1_555 1_555
H116_15 C96_15 1_555 1_555
H117_15 C96_15 1_555 1_555
H118_15 C100_15 1_555 1_555
H119_15 C100_15 1_555 1_555
H120_15 C100_15 1_555 1_555
H121_15 C101_15 1_555 1_555
H122_15 C101_15 1_555 1_555
H123_15 C101_15 1_555 1_555
H124_15 C105_15 1_555 1_555
H125_15 C105_15 1_555 1_555
H126_15 C105_15 1_555 1_555
H127_15 C106_15 1_555 1_555
H128_15 C106_15 1_555 1_555
H129_15 C106_15 1_555 1_555
H130_15 C110_15 1_555 1_555
H131_15 C110_15 1_555 1_555
H132_15 C110_15 1_555 1_555
H133_15 C111_15 1_555 1_555
H134_15 C111_15 1_555 1_555
H135_15 C111_15 1_555 1_555
H136_15 C115_15 1_555 1_555
H137_15 C115_15 1_555 1_555
H138_15 C115_15 1_555 1_555
H139_15 C116_15 1_555 1_555
H140_15 C116_15 1_555 1_555
H141_15 C116_15 1_555 1_555
H142_15 C120_15 1_555 1_555
H143_15 C120_15 1_555 1_555
H144_15 C120_15 1_555 1_555
H145_15 C121_15 1_555 1_555
H146_15 C121_15 1_555 1_555
H147_15 C121_15 1_555 1_555
H148_15 C125_15 1_555 1_555
H149_15 C125_15 1_555 1_555
H150_15 C125_15 1_555 1_555
H151_15 C126_15 1_555 1_555
H152_15 C126_15 1_555 1_555
H153_15 C126_15 1_555 1_555
H154_15 C130_15 1_555 1_555
H155_15 C130_15 1_555 1_555
H156_15 C130_15 1_555 1_555
H157_15 C131_15 1_555 1_555
H158_15 C131_15 1_555 1_555
H159_15 C131_15 1_555 1_555
H160_15 C135_15 1_555 1_555
H161_15 C135_15 1_555 1_555
H162_15 C135_15 1_555 1_555
H163_15 C136_15 1_555 1_555
H164_15 C136_15 1_555 1_555
H165_15 C136_15 1_555 1_555
H166_15 C140_15 1_555 1_555
H167_15 C140_15 1_555 1_555
H168_15 C140_15 1_555 1_555
H169_15 C141_15 1_555 1_555
H170_15 C141_15 1_555 1_555
H171_15 C141_15 1_555 1_555
H178_15 C150_15 1_555 1_555
H179_15 C150_15 1_555 1_555
H180_15 C150_15 1_555 1_555
Ag31_7 N6_7 1_555 1_555
Ag33_6 N5_6 1_555 1_555
N61_6 Ag2_6 1_555 1_555
N64_6 Ag5_6 1_555 1_555
N67_6 Ag8_6 1_555 1_555
N68_6 Ag9_6 1_555 1_555
N29_15 N30_15 1_555 1_555
N41_15 N42_15 1_555 1_555
N47_15 N48_15 1_555 1_555
N53_15 N54_15 1_555 1_555
N59_15 N60_15 1_555 1_555
C37_15 C38_15 1_555 1_555
C43_15 C44_15 1_555 1_555
C62_15 C63_15 1_555 1_555
C67_15 C68_15 1_555 1_555
C68_15 C69_15 1_555 1_555
C73_15 C74_15 1_555 1_555
C82_15 C83_15 1_555 1_555
C83_15 C84_15 1_555 1_555
C92_15 C93_15 1_555 1_555
C98_15 C99_15 1_555 1_555
C103_15 C104_15 1_555 1_555
C112_15 C113_15 1_555 1_555
C113_15 C114_15 1_555 1_555
C117_15 C118_15 1_555 1_555
C118_15 C119_15 1_555 1_555
C122_15 C123_15 1_555 1_555
C127_15 C128_15 1_555 1_555
C128_15 C129_15 1_555 1_555
C132_15 C133_15 1_555 1_555
C133_15 C134_15 1_555 1_555
C137_15 C138_15 1_555 1_555
C142_15 C143_15 1_555 1_555
C147_15 C148_15 1_555 1_555
C148_15 C149_15 1_555 1_555
N67_6 N68_6 1_555 1_555
Ag10_15 N19_15 1_555 1_555
Ag39_5 N20_15 1_555 1_555
N19_15 N20_15 1_555 1_555
N20_15 C49_15 1_555 1_555
N21_6 N22_6 1_555 1_555
N22_6 C54_15 1_555 1_555
N23_15 N24_15 1_555 1_555
N24_15 Ag10_15 1_555 1_555
C46_15 C47_15 1_555 1_555
C47_15 N19_15 1_555 1_555
C48_15 C47_15 1_555 1_555
C49_15 C48_15 1_555 1_555
C50_15 C49_15 1_555 1_555
C51_15 C52_15 1_555 1_555
C52_15 N21_6 1_555 1_555
C53_15 C48_15 1_555 1_555
C54_15 C53_15 1_555 1_555
C55_15 C54_15 1_555 1_555
C59_15 N24_15 1_555 1_555
C60_15 C59_15 1_555 1_555
C145_15 C144_15 1_555 1_555
H22_14 C20_14 1_555 1_555
H23_14 C20_14 1_555 1_555
H24_14 C20_14 1_555 1_555
H55_15 C46_15 1_555 1_555
H56_15 C46_15 1_555 1_555
H57_15 C46_15 1_555 1_555
H58_15 C50_15 1_555 1_555
H59_15 C50_15 1_555 1_555
H60_15 C50_15 1_555 1_555
H61_15 C51_15 1_555 1_555
H62_15 C51_15 1_555 1_555
H63_15 C51_15 1_555 1_555
H64_15 C55_15 1_555 1_555
H65_15 C55_15 1_555 1_555
H66_15 C55_15 1_555 1_555
H70_15 C60_15 1_555 1_555
H71_15 C60_15 1_555 1_555
H72_15 C60_15 1_555 1_555
H172_15 C145_15 1_555 1_555
H173_15 C145_15 1_555 1_555
H174_19 C145_15 1_555 1_555
H175_14 C146_14 1_555 1_555
H177_14 C146_14 1_555 1_555
Ag39_6 N21_6 1_555 1_555
Ag40_6 N22_6 1_555 1_555
C52_15 C53_15 1_555 1_555
C58_15 C59_15 1_555 1_555
Ag36_6 N10_16 1_555 1_555
N64_6 N10_16 1_555 1_555
N10_16 C24_16 1_555 1_555
C25_16 C24_16 1_555 1_555
H28_16 C25_16 1_555 1_555
H29_16 C25_16 1_555 1_555
H30_16 C25_16 1_555 1_555
Ag14_16 N26_16 1_555 1_555
Ag16_16 N31_16 1_555 1_555
Ag17_16 N32_16 1_555 1_555
Ag18_16 N34_16 1_555 1_555
Ag19_16 N37_16 1_555 1_555
Ag20_16 N38_16 1_555 1_555
N61_6 N4_16 1_555 1_555
N4_16 C9_16 1_555 1_555
N62_10 N6_8 1_555 1_555
N6_8 C14_16 1_555 1_555
N65_10 N12_8 1_555 1_555
N12_8 C29_16 1_555 1_555
N25_16 N26_16 1_555 1_555
N26_16 C64_16 1_555 1_555
N27_16 Ag14_16 1_555 1_555
N28_16 N27_16 1_555 1_555
N31_16 N32_16 1_555 1_555
N32_16 C79_16 1_555 1_555
N33_16 Ag17_16 1_555 1_555
N34_16 N33_16 1_555 1_555
N35_16 Ag18_16 1_555 1_555
N36_16 Ag16_16 1_555 1_555
N37_16 N38_16 1_555 1_555
N38_16 C94_16 1_555 1_555
C6_16 C7_16 1_555 1_555
C7_16 N61_6 1_555 1_555
C8_16 C7_16 1_555 1_555
C9_16 C8_16 1_555 1_555
C10_16 C9_16 1_555 1_555
C11_16 C12_16 1_555 1_555
C12_16 N62_10 1_555 1_555
C13_16 C12_16 1_555 1_555
C14_16 C13_16 1_555 1_555
C15_16 C14_16 1_555 1_555
C21_16 C22_16 1_555 1_555
C23_16 C22_16 1_555 1_555
C26_16 C27_16 1_555 1_555
C27_16 N65_10 1_555 1_555
C28_16 C27_16 1_555 1_555
C29_16 C28_16 1_555 1_555
C30_16 C29_16 1_555 1_555
C61_16 C62_16 1_555 1_555
C62_16 N25_16 1_555 1_555
C63_16 C13_16 1_555 1_555
C64_16 C63_16 1_555 1_555
C65_16 C64_16 1_555 1_555
C66_16 C67_16 1_555 1_555
C67_16 N27_16 1_555 1_555
C68_16 C23_16 1_555 1_555
C69_16 N28_16 1_555 1_555
C70_16 C69_16 1_555 1_555
C76_16 C77_16 1_555 1_555
C77_16 N31_16 1_555 1_555
C78_16 C77_16 1_555 1_555
C79_16 C78_16 1_555 1_555
C80_16 C79_16 1_555 1_555
C81_16 C82_16 1_555 1_555
C82_16 N33_16 1_555 1_555
C83_16 C8_16 1_555 1_555
C84_16 N34_16 1_555 1_555
C85_16 C84_16 1_555 1_555
C86_16 C87_16 1_555 1_555
C87_16 N35_16 1_555 1_555
C88_16 C28_16 1_555 1_555
C89_16 N36_16 1_555 1_555
C90_16 C89_16 1_555 1_555
C91_16 C92_16 1_555 1_555
C92_16 N37_16 1_555 1_555
C93_16 C78_16 1_555 1_555
C94_16 C93_16 1_555 1_555
C95_16 C94_16 1_555 1_555
H7_16 C6_16 1_555 1_555
H8_16 C6_16 1_555 1_555
H9_16 C6_16 1_555 1_555
H10_16 C10_16 1_555 1_555
H11_16 C10_16 1_555 1_555
H12_16 C10_16 1_555 1_555
H13_16 C11_16 1_555 1_555
H14_16 C11_16 1_555 1_555
H15_16 C11_16 1_555 1_555
H16_16 C15_16 1_555 1_555
H17_16 C15_16 1_555 1_555
H18_16 C15_16 1_555 1_555
H25_16 C21_16 1_555 1_555
H26_16 C21_16 1_555 1_555
H27_16 C21_16 1_555 1_555
H31_16 C26_16 1_555 1_555
H32_16 C26_16 1_555 1_555
H33_16 C26_16 1_555 1_555
H34_16 C30_16 1_555 1_555
H35_16 C30_16 1_555 1_555
H36_16 C30_16 1_555 1_555
H74_16 C61_16 1_555 1_555
H75_16 C61_16 1_555 1_555
H76_16 C65_16 1_555 1_555
H77_16 C65_16 1_555 1_555
H78_16 C65_16 1_555 1_555
H79_16 C66_16 1_555 1_555
H80_16 C66_16 1_555 1_555
H81_16 C66_16 1_555 1_555
H82_16 C70_16 1_555 1_555
H83_16 C70_16 1_555 1_555
H91_16 C76_16 1_555 1_555
H92_16 C76_16 1_555 1_555
H93_16 C76_16 1_555 1_555
H94_16 C80_16 1_555 1_555
H95_16 C80_16 1_555 1_555
H96_16 C80_16 1_555 1_555
H97_16 C81_16 1_555 1_555
H98_16 C81_16 1_555 1_555
H99_16 C81_16 1_555 1_555
H100_16 C85_16 1_555 1_555
H101_16 C85_16 1_555 1_555
H102_16 C85_16 1_555 1_555
H103_16 C86_16 1_555 1_555
H104_16 C86_16 1_555 1_555
H105_16 C86_16 1_555 1_555
H106_16 C90_16 1_555 1_555
H107_16 C90_16 1_555 1_555
H108_16 C90_16 1_555 1_555
H109_16 C91_16 1_555 1_555
H110_16 C91_16 1_555 1_555
H111_16 C91_16 1_555 1_555
H112_16 C95_16 1_555 1_555
H113_16 C95_16 1_555 1_555
H114_16 C95_16 1_555 1_555
Ag31_8 N6_8 1_555 1_555
Ag34_8 N12_8 1_555 1_555
N35_16 N36_16 1_555 1_555
C62_16 C63_16 1_555 1_555
C67_16 C68_16 1_555 1_555
C68_16 C69_16 1_555 1_555
C82_16 C83_16 1_555 1_555
C83_16 C84_16 1_555 1_555
C87_16 C88_16 1_555 1_555
C88_16 C89_16 1_555 1_555
C92_16 C93_16 1_555 1_555
Ag31_8 N1_16 1_555 1_555
Ag32_10 N2_16 1_555 1_555
Ag34_8 N7_16 1_555 1_555
Ag35_10 N8_16 1_555 1_555
Ag7_16 N13_16 1_555 1_555
Ag37_10 N14_16 1_555 1_555
Ag38_10 N17_16 1_555 1_555
Ag10_16 N19_16 1_555 1_555
Ag39_6 N20_16 1_555 1_555
Ag40_6 N23_16 1_555 1_555
Ag21_16 N40_16 1_555 1_555
Ag22_16 N43_16 1_555 1_555
Ag23_16 N44_16 1_555 1_555
Ag24_16 N46_16 1_555 1_555
Ag25_16 N49_16 1_555 1_555
Ag26_16 N50_16 1_555 1_555
Ag27_16 N52_16 1_555 1_555
Ag28_16 N55_16 1_555 1_555
Ag29_16 N56_16 1_555 1_555
Ag30_16 N58_16 1_555 1_555
N1_16 N2_16 1_555 1_555
N2_16 C4_16 1_555 1_555
N7_16 N8_16 1_555 1_555
N8_16 C19_16 1_555 1_555
N13_16 N14_16 1_555 1_555
N14_16 C34_16 1_555 1_555
N68_6 C39_16 1_555 1_555
N17_16 N18_16 1_555 1_555
N18_16 Ag7_16 1_555 1_555
N19_16 N20_16 1_555 1_555
N20_16 C49_16 1_555 1_555
N70_10 C54_16 1_555 1_555
N23_16 N24_16 1_555 1_555
N24_16 Ag10_16 1_555 1_555
N29_16 Ag15_16 1_555 1_555
N30_16 Ag13_16 1_555 1_555
N40_16 N39_16 1_555 1_555
N41_16 Ag21_16 1_555 1_555
N43_16 N44_16 1_555 1_555
N44_16 C109_16 1_555 1_555
N45_16 Ag23_16 1_555 1_555
N46_16 N45_16 1_555 1_555
N47_16 Ag24_16 1_555 1_555
N48_16 Ag22_16 1_555 1_555
N49_16 N50_16 1_555 1_555
N50_16 C124_16 1_555 1_555
N51_16 Ag26_16 1_555 1_555
N52_16 N51_16 1_555 1_555
N53_16 Ag27_16 1_555 1_555
N54_16 Ag25_16 1_555 1_555
N55_16 N56_16 1_555 1_555
N56_16 C139_16 1_555 1_555
N57_16 Ag29_16 1_555 1_555
N58_16 N57_16 1_555 1_555
N59_16 Ag30_16 1_555 1_555
N60_16 Ag28_16 1_555 1_555
C1_16 C2_16 1_555 1_555
C2_16 N1_16 1_555 1_555
C3_16 C2_16 1_555 1_555
C4_16 C3_16 1_555 1_555
C5_16 C4_16 1_555 1_555
C16_16 C17_16 1_555 1_555
C17_16 N7_16 1_555 1_555
C18_16 C17_16 1_555 1_555
C19_16 C18_16 1_555 1_555
C20_15 C19_16 1_555 1_555
C31_16 C32_16 1_555 1_555
C32_16 N13_16 1_555 1_555
C33_16 C32_16 1_555 1_555
C34_16 C33_16 1_555 1_555
C35_16 C34_16 1_555 1_555
C36_16 C37_16 1_555 1_555
C37_16 N67_6 1_555 1_555
C38_16 C33_16 1_555 1_555
C39_16 C38_16 1_555 1_555
C40_16 C39_16 1_555 1_555
C41_16 C42_16 1_555 1_555
C42_16 N17_16 1_555 1_555
C43_16 C42_16 1_555 1_555
C44_16 N18_16 1_555 1_555
C45_16 C44_16 1_555 1_555
C46_16 C47_16 1_555 1_555
C47_16 N19_16 1_555 1_555
C48_16 C47_16 1_555 1_555
C49_16 C48_16 1_555 1_555
C50_16 C49_16 1_555 1_555
C51_16 C52_16 1_555 1_555
C52_16 N69_10 1_555 1_555
C53_16 C48_16 1_555 1_555
C54_16 C53_16 1_555 1_555
C55_16 C54_16 1_555 1_555
C56_16 C57_16 1_555 1_555
C57_16 N23_16 1_555 1_555
C58_16 C57_16 1_555 1_555
C59_16 N24_16 1_555 1_555
C60_16 C59_16 1_555 1_555
C71_16 C72_16 1_555 1_555
C72_16 N29_16 1_555 1_555
C73_16 C72_16 1_555 1_555
C74_16 N30_16 1_555 1_555
C75_16 C74_16 1_555 1_555
C96_16 C97_16 1_555 1_555
C97_16 N39_16 1_555 1_555
C98_16 C97_16 1_555 1_555
C99_16 N40_16 1_555 1_555
C100_16 C99_16 1_555 1_555
C101_16 C102_16 1_555 1_555
C102_16 N41_16 1_555 1_555
C103_16 C102_16 1_555 1_555
C104_16 N42_16 1_555 1_555
C105_16 C104_16 1_555 1_555
C106_16 C107_16 1_555 1_555
C107_16 N43_16 1_555 1_555
C108_16 C107_16 1_555 1_555
C109_16 C108_16 1_555 1_555
C110_16 C109_16 1_555 1_555
C111_16 C112_16 1_555 1_555
C112_16 N45_16 1_555 1_555
C113_16 C98_16 1_555 1_555
C114_16 N46_16 1_555 1_555
C115_16 C114_16 1_555 1_555
C116_16 C117_16 1_555 1_555
C117_16 N47_16 1_555 1_555
C118_16 C73_16 1_555 1_555
C119_16 N48_16 1_555 1_555
C120_16 C119_16 1_555 1_555
C121_16 C122_16 1_555 1_555
C122_16 N49_16 1_555 1_555
C123_16 C43_16 1_555 1_555
C124_16 C123_16 1_555 1_555
C125_16 C124_16 1_555 1_555
C126_16 C127_16 1_555 1_555
C127_16 N51_16 1_555 1_555
C128_16 C3_16 1_555 1_555
C129_16 N52_16 1_555 1_555
C130_16 C129_16 1_555 1_555
C131_16 C132_16 1_555 1_555
C132_16 N53_16 1_555 1_555
C133_16 C108_16 1_555 1_555
C134_16 N54_16 1_555 1_555
C135_16 C134_16 1_555 1_555
C136_16 C137_16 1_555 1_555
C137_16 N55_16 1_555 1_555
C138_16 C103_16 1_555 1_555
C139_16 C138_16 1_555 1_555
C140_16 C139_16 1_555 1_555
C141_16 C142_16 1_555 1_555
C142_16 N57_16 1_555 1_555
C143_16 C58_16 1_555 1_555
C144_16 N58_16 1_555 1_555
C145_16 C144_16 1_555 1_555
C146_15 C147_16 1_555 1_555
C147_16 N59_16 1_555 1_555
C148_16 C18_16 1_555 1_555
C149_16 N60_16 1_555 1_555
C150_16 C149_16 1_555 1_555
H1_16 C1_16 1_555 1_555
H2_16 C1_16 1_555 1_555
H3_16 C1_16 1_555 1_555
H4_16 C5_16 1_555 1_555
H5_16 C5_16 1_555 1_555
H6_16 C5_16 1_555 1_555
H19_16 C16_16 1_555 1_555
H20_16 C16_16 1_555 1_555
H21_16 C16_16 1_555 1_555
H22_15 C20_15 1_555 1_555
H23_15 C20_15 1_555 1_555
H24_15 C20_15 1_555 1_555
H37_16 C31_16 1_555 1_555
H38_16 C31_16 1_555 1_555
H39_16 C31_16 1_555 1_555
H40_16 C35_16 1_555 1_555
H41_16 C35_16 1_555 1_555
H42_16 C35_16 1_555 1_555
H43_16 C36_16 1_555 1_555
H44_16 C36_16 1_555 1_555
H45_16 C36_16 1_555 1_555
H46_16 C40_16 1_555 1_555
H47_16 C40_16 1_555 1_555
H48_16 C40_16 1_555 1_555
H49_16 C41_16 1_555 1_555
H50_16 C41_16 1_555 1_555
H51_16 C41_16 1_555 1_555
H52_16 C45_16 1_555 1_555
H53_16 C45_16 1_555 1_555
H54_16 C45_16 1_555 1_555
H55_16 C46_16 1_555 1_555
H56_16 C46_16 1_555 1_555
H57_16 C46_16 1_555 1_555
H58_16 C50_16 1_555 1_555
H59_16 C50_16 1_555 1_555
H60_16 C50_16 1_555 1_555
H62_16 C51_16 1_555 1_555
H63_16 C51_16 1_555 1_555
H64_16 C55_16 1_555 1_555
H65_16 C55_16 1_555 1_555
H66_16 C55_16 1_555 1_555
H67_16 C56_16 1_555 1_555
H68_16 C56_16 1_555 1_555
H69_16 C56_16 1_555 1_555
H70_16 C60_16 1_555 1_555
H71_16 C60_16 1_555 1_555
H72_16 C60_16 1_555 1_555
H85_16 C71_16 1_555 1_555
H86_16 C71_16 1_555 1_555
H87_16 C71_16 1_555 1_555
H88_16 C75_16 1_555 1_555
H89_16 C75_16 1_555 1_555
H90_16 C75_16 1_555 1_555
H117_16 C96_16 1_555 1_555
H118_16 C100_16 1_555 1_555
H119_16 C100_16 1_555 1_555
H120_16 C100_16 1_555 1_555
H121_16 C101_16 1_555 1_555
H122_16 C101_16 1_555 1_555
H123_16 C101_16 1_555 1_555
H125_16 C105_16 1_555 1_555
H126_16 C105_16 1_555 1_555
H127_16 C106_16 1_555 1_555
H128_16 C106_16 1_555 1_555
H129_16 C106_16 1_555 1_555
H130_16 C110_16 1_555 1_555
H131_16 C110_16 1_555 1_555
H132_16 C110_16 1_555 1_555
H133_16 C111_16 1_555 1_555
H134_16 C111_16 1_555 1_555
H135_16 C111_16 1_555 1_555
H136_16 C115_16 1_555 1_555
H137_16 C115_16 1_555 1_555
H138_16 C115_16 1_555 1_555
H139_16 C116_16 1_555 1_555
H140_16 C116_16 1_555 1_555
H141_16 C116_16 1_555 1_555
H142_16 C120_16 1_555 1_555
H143_16 C120_16 1_555 1_555
H144_16 C120_16 1_555 1_555
H145_16 C121_16 1_555 1_555
H146_16 C121_16 1_555 1_555
H147_16 C121_16 1_555 1_555
H148_16 C125_16 1_555 1_555
H149_16 C125_16 1_555 1_555
H150_16 C125_16 1_555 1_555
H151_16 C126_16 1_555 1_555
H152_16 C126_16 1_555 1_555
H153_16 C126_16 1_555 1_555
H154_16 C130_16 1_555 1_555
H155_16 C130_16 1_555 1_555
H156_16 C130_16 1_555 1_555
H157_16 C131_16 1_555 1_555
H158_16 C131_16 1_555 1_555
H159_16 C131_16 1_555 1_555
H160_16 C135_16 1_555 1_555
H161_16 C135_16 1_555 1_555
H162_16 C135_16 1_555 1_555
H163_16 C136_16 1_555 1_555
H164_16 C136_16 1_555 1_555
H165_16 C136_16 1_555 1_555
H166_16 C140_16 1_555 1_555
H167_16 C140_16 1_555 1_555
H168_16 C140_16 1_555 1_555
H169_16 C141_16 1_555 1_555
H170_16 C141_16 1_555 1_555
H171_16 C141_16 1_555 1_555
H172_16 C145_16 1_555 1_555
H173_16 C145_16 1_555 1_555
H174_20 C145_16 1_555 1_555
H175_15 C146_15 1_555 1_555
H176_16 C146_15 1_555 1_555
H177_15 C146_15 1_555 1_555
H178_16 C150_16 1_555 1_555
H179_16 C150_16 1_555 1_555
H180_16 C150_16 1_555 1_555
N29_16 N30_16 1_555 1_555
N41_16 N42_16 1_555 1_555
N47_16 N48_16 1_555 1_555
N53_16 N54_16 1_555 1_555
N59_16 N60_16 1_555 1_555
C37_16 C38_16 1_555 1_555
C43_16 C44_16 1_555 1_555
C52_16 C53_16 1_555 1_555
C58_16 C59_16 1_555 1_555
C73_16 C74_16 1_555 1_555
C98_16 C99_16 1_555 1_555
C103_16 C104_16 1_555 1_555
C112_16 C113_16 1_555 1_555
C113_16 C114_16 1_555 1_555
C117_16 C118_16 1_555 1_555
C118_16 C119_16 1_555 1_555
C122_16 C123_16 1_555 1_555
C127_16 C128_16 1_555 1_555
C128_16 C129_16 1_555 1_555
C132_16 C133_16 1_555 1_555
C133_16 C134_16 1_555 1_555
C137_16 C138_16 1_555 1_555
C142_16 C143_16 1_555 1_555
C143_16 C144_16 1_555 1_555
C147_16 C148_16 1_555 1_555
C148_16 C149_16 1_555 1_555
H22_16 C20_16 1_555 1_555
H23_16 C20_16 1_555 1_555
H24_16 C20_16 1_555 1_555
H175_16 C146_16 1_555 1_555
H177_16 C146_16 1_555 1_555

#END
