
###############################################################################
#
# This file contains modified crystal structure data generated from the
# MOF subset of the Cambridge Structural Database (CSD) v543 
# hosted by the Cambridge Crystallographic Data Centre (CCDC).
#
# This work is licensed under the Creative Commons
# Attribution-NonCommercial-ShareAlike 4.0 International License.
# To view a copy of this license, visit
# http://creativecommons.org/licenses/by-nc-sa/4.0/
# or send a letter to
# Creative Commons, PO Box 1866, Mountain View, CA 94042, USA.
#
# CIF created using the CSD Python API on 29 September 2022
# The structure has been converted into the P1 space group
# The structure has a 3D framework
# The original CSD entry MIVWAR is in the monoclinic crystal system
# The original CSD entry MIVWAR is in a Sohncke space group
# The framework has been calculated to contain at least 10.0% void space
# The void calculation uses a probe of radius 1.32A, grid spacing 0.4
# The framework is charged, counterions have been retained in the structure
# H atom positions have been added when not included in the experimental data
#
###############################################################################

data_MIVWAR
_chemical_formula_moiety         '(C216 H160 Cu8 N24 O58 16+)n'
_symmetry_cell_setting           triclinic
_symmetry_space_group_name_H-M   'P 1'
_symmetry_Int_Tables_number      1
_space_group_name_Hall           'P 1'
loop_
_symmetry_equiv_pos_site_id
_symmetry_equiv_pos_as_xyz
1 x,y,z
_cell_length_a                   16.835(8)
_cell_length_b                   9.707(5)
_cell_length_c                   39.767(19)
_cell_angle_alpha                90
_cell_angle_beta                 90.522(10)
_cell_angle_gamma                90
_cell_volume                     6498.35
loop_
_atom_site_label
_atom_site_type_symbol
_atom_site_fract_x
_atom_site_fract_y
_atom_site_fract_z
Cu5 Cu -0.0000 0.06478(14) 0.0000
H68 H 0.0072 0.2527 0.0561
N16 N 0.1011(4) 0.0699(8) 0.02602(15)
C1 C 0.6635(6) 0.8794(9) 0.51580(19)
C2 C 0.6362(6) 0.9884(11) 0.5346(2)
C4 C 0.7359(7) 0.9328(11) 0.5749(3)
H2 H 0.7594 0.9494 0.5957
C5 C 0.7630(7) 0.8233(11) 0.5558(3)
H3 H 0.8064 0.7709 0.5628
C6 C 0.7235(6) 0.7955(9) 0.5266(2)
H4 H 0.7375 0.7190 0.5139
O1 O 0.6227(4) 0.8444(6) 0.48668(13)
N1 N 0.4973(4) 0.7863(7) 0.37667(15)
C7 C 0.5381(7) 0.7026(15) 0.3961(3)
H5 H 0.5418 0.6108 0.3896
C8 C 0.5747(6) 0.7406(10) 0.4246(2)
H6 H 0.6018 0.6767 0.4378
C9 C 0.5711(7) 0.8761(10) 0.4338(2)
C10 C 0.5329(7) 0.9678(10) 0.4131(2)
C11 C 0.4982(6) 0.9149(10) 0.38461(19)
H8 H 0.4736 0.9763 0.3699
C12 C 0.6132(6) 0.9357(10) 0.4637(2)
C28 C 0.8204(6) 0.9805(10) 0.9310(2)
H19 H 0.8114 0.9121 0.9150
C29 C 0.8818(6) 0.9744(10) 0.9504(2)
H20 H 0.9162 0.9002 0.9480
Cu7 Cu 0.44977(6) 0.71487(10) 0.33335(2)
O14 O 1.0000 0.8312(10) 0.0000
H37 H 0.4072 0.0413 0.4721
C57 C 0.3218(6) 0.0143(9) 0.4354(2)
O16 O 0.3618(7) 0.0490(10) 0.5358(2)
H43 H 0.4694 0.0613 0.5819
N8 N 0.4023(4) 0.5621(7) 0.35913(14)
O17 O 0.3481(5) 0.1282(7) 0.41757(16)
O18 O 0.2610(6) 0.2644(8) 0.4417(2)
C67 C 0.3477(7) 0.5865(10) 0.3830(2)
H45 H 0.3307 0.6766 0.3863
C68 C 0.3162(6) 0.4845(10) 0.4026(2)
H46 H 0.2749 0.5026 0.4173
C69 C 0.3472(6) 0.3556(9) 0.39965(19)
C70 C 0.4012(5) 0.3283(9) 0.3764(2)
H47 H 0.4222 0.2402 0.3742
C71 C 0.4256(6) 0.4351(10) 0.3555(2)
H48 H 0.4602 0.4147 0.3381
C72 C 0.3145(7) 0.2457(10) 0.4219(2)
C73 C 0.4135(6) 0.2195(11) 0.10272(19)
C74 C 0.4034(7) 0.2992(12) 0.1322(2)
H49 H 0.3553 0.3363 0.1390
C75 C 0.4782(8) 0.3157(11) 0.1504(2)
C76 C 0.5462(5) 0.2671(10) 0.1405(2)
H50 H 0.5912 0.2787 0.1539
C77 C 0.5517(6) 0.2000(14) 0.1108(2)
H51 H 0.6009 0.1713 0.1030
C78 C 0.4836(7) 0.1744(11) 0.0920(2)
H52 H 0.4869 0.1256 0.0720
O19 O 0.3452(4) 0.2052(9) 0.08344(13)
O20 O 0.3196(5) 0.0107(9) 0.1083(2)
C79 C 0.1534(6) 0.1706(9) 0.0227(2)
H53 H 0.1452 0.2352 0.0058
C80 C 0.2169(6) 0.1837(9) 0.0425(2)
H54 H 0.2512 0.2581 0.0401
C81 C 0.2306(5) 0.0858(9) 0.06622(19)
C84 C 0.3038(6) 0.0939(10) 0.08805(19)
O21 O 0.3739(7) 0.2670(12) 0.2024(2)
N10 N 0.4382(5) 0.6051(7) 0.29023(16)
O22 O 0.4731(4) 0.3903(7) 0.17975(14)
C85 C 0.4991(9) 0.5884(13) 0.2706(3)
H57 H 0.5469 0.6283 0.2773
C86 C 0.4984(7) 0.5180(13) 0.2413(3)
H58 H 0.5421 0.5151 0.2272
C87 C 0.4288(6) 0.4511(11) 0.2338(2)
C88 C 0.3655(7) 0.4667(11) 0.2542(2)
H59 H 0.3174 0.4242 0.2491
C89 C 0.3730(7) 0.5434(10) 0.2815(2)
H60 H 0.3289 0.5535 0.2953
C90 C 0.4201(7) 0.3604(11) 0.2036(2)
H65 H 0.8630 0.9631 0.0372
N12 N 0.5034(5) 0.8642(8) 0.30703(15)
C103 C 0.4624(5) 0.9320(10) 0.2838(2)
H69 H 0.4083 0.9147 0.2814
C106 C 0.6146(5) 0.9838(9) 0.29082(19)
C107 C 0.5815(6) 0.8913(9) 0.3114(2)
H72 H 0.6112 0.8473 0.3280
O27 O 0.3333(4) 0.8328(8) 0.3342(2)
H76 H 0.972231 0.797101 0.0202904
H77 H 0.318173 0.851128 0.357859
H78 H 0.33965 0.921549 0.3221
Cu5_2 Cu -0.0000 0.06478(14) 1.0000
C37 C 0.2644(6) 0.2556(10) 0.7693(2)
C38 C 0.2298(5) 0.2072(11) 0.7982(2)
H25 H 0.2341 0.1153 0.8045
C39 C 0.1886(6) 0.3009(10) 0.81724(18)
C40 C 0.1755(5) 0.4298(11) 0.8079(2)
H26 H 0.1450 0.4884 0.8211
C41 C 0.2100(6) 0.4780(11) 0.7765(2)
H27 H 0.2010 0.5665 0.7683
C42 C 0.2564(7) 0.3846(10) 0.7599(3)
H28 H 0.2836 0.4141 0.7409
N5 N 0.0593(4) 0.1023(8) 0.95667(17)
O9 O 0.1501(4) 0.2583(7) 0.84668(13)
O10 O 0.2627(6) 0.1776(13) 0.8687(2)
C43 C 0.1208(6) 0.0347(10) 0.94880(19)
C44 C 0.1660(5) 0.0627(12) 0.9199(2)
H30 H 0.2108 0.0107 0.9150
C45 C 0.1435(5) 0.1630(11) 0.90029(19)
C46 C 0.0755(5) 0.2424(14) 0.9089(3)
H31 H 0.0580 0.3161 0.8959
C47 C 0.0376(7) 0.2030(16) 0.9376(3)
C48 C 0.1912(6) 0.2012(13) 0.8699(2)
O11 O 0.3071(5) 0.1628(8) 0.74943(17)
O12 O 0.4182(4) 0.2213(11) 0.7753(2)
C50 C 0.5022(6) 0.0282(10) 0.7371(2)
H34 H 0.5317 0.0748 0.7534
C51 C 0.4216(6) 0.0528(9) 0.7330(2)
H35 H 0.3314 0.0006 0.7062
C54 C 0.3851(7) 0.1538(10) 0.7549(2)
O14_2 O 1.0000 0.8312(10) 1.0000
H75 H 0.944387 0.797101 0.999804
O14_3 O -0.0000 0.8312(10) 0.0000
Cu5_3 Cu 1.0000 0.06478(14) 0.0000
H75_2 H 0.0556132 0.797101 0.000196017
C91 C 0.7356(6) 0.2556(10) 0.2307(2)
C92 C 0.7702(5) 0.2072(11) 0.2018(2)
H61 H 0.7659 0.1153 0.1955
C93 C 0.8114(6) 0.3009(10) 0.18276(18)
C94 C 0.8245(5) 0.4298(11) 0.1921(2)
H62 H 0.8550 0.4884 0.1789
C95 C 0.7900(6) 0.4780(11) 0.2235(2)
H63 H 0.7990 0.5665 0.2317
C96 C 0.7436(7) 0.3846(10) 0.2401(3)
H64 H 0.7164 0.4141 0.2591
N11 N 0.9407(4) 0.1023(8) 0.04333(17)
O23 O 0.8499(4) 0.2583(7) 0.15332(13)
O24 O 0.7373(6) 0.1776(13) 0.1313(2)
C97 C 0.8792(6) 0.0347(10) 0.05120(19)
C98 C 0.8340(5) 0.0627(12) 0.0801(2)
H66 H 0.7892 0.0107 0.0850
C99 C 0.8565(5) 0.1630(11) 0.09971(19)
C100 C 0.9245(5) 0.2424(14) 0.0911(3)
H67 H 0.9420 0.3161 0.1041
C101 C 0.9624(7) 0.2030(16) 0.0624(3)
C102 C 0.8088(6) 0.2012(13) 0.1301(2)
O25 O 0.6929(5) 0.1628(8) 0.25057(17)
O26 O 0.5818(4) 0.2213(11) 0.2247(2)
C104 C 0.4978(6) 0.0282(10) 0.2629(2)
H70 H 0.4683 0.0748 0.2466
C105 C 0.5784(6) 0.0528(9) 0.2670(2)
H71 H 0.6686 0.0006 0.2938
C108 C 0.6149(7) 0.1538(10) 0.2451(2)
Cu2 Cu 0.55023(6) 0.71487(10) 0.66665(2)
H1 H 0.5928 0.0413 0.5279
C3 C 0.6782(6) 0.0143(9) 0.5646(2)
O2 O 0.6382(7) 0.0490(10) 0.4642(2)
H7 H 0.5306 0.0613 0.4181
N2 N 0.5977(4) 0.5621(7) 0.64087(14)
O3 O 0.6519(5) 0.1282(7) 0.58243(16)
O4 O 0.7390(6) 0.2644(8) 0.5583(2)
C13 C 0.6523(7) 0.5865(10) 0.6170(2)
H9 H 0.6693 0.6766 0.6137
C14 C 0.6838(6) 0.4845(10) 0.5974(2)
H10 H 0.7251 0.5026 0.5827
C15 C 0.6528(6) 0.3556(9) 0.60035(19)
C16 C 0.5988(5) 0.3283(9) 0.6236(2)
H11 H 0.5778 0.2402 0.6258
C17 C 0.5744(6) 0.4351(10) 0.6445(2)
H12 H 0.5398 0.4147 0.6619
C18 C 0.6855(7) 0.2457(10) 0.5781(2)
C19 C 0.5865(6) 0.2195(11) 0.89728(19)
C20 C 0.5966(7) 0.2992(12) 0.8678(2)
H13 H 0.6447 0.3363 0.8610
C21 C 0.5218(8) 0.3157(11) 0.8496(2)
C22 C 0.4538(5) 0.2671(10) 0.8595(2)
H14 H 0.4088 0.2787 0.8461
C23 C 0.4483(6) 0.2000(14) 0.8892(2)
H15 H 0.3991 0.1713 0.8970
C24 C 0.5164(7) 0.1744(11) 0.9080(2)
H16 H 0.5131 0.1256 0.9280
O5 O 0.6548(4) 0.2052(9) 0.91656(13)
O6 O 0.6804(5) 0.0107(9) 0.8917(2)
N3 N 0.8989(4) 0.0699(8) 0.97398(15)
C25 C 0.8466(6) 0.1706(9) 0.9773(2)
H17 H 0.8548 0.2352 0.9942
C26 C 0.7831(6) 0.1837(9) 0.9575(2)
H18 H 0.7488 0.2581 0.9599
C27 C 0.7694(5) 0.0858(9) 0.93378(19)
C30 C 0.6962(6) 0.0939(10) 0.91195(19)
O7 O 0.6261(7) 0.2670(12) 0.7976(2)
N4 N 0.5618(5) 0.6051(7) 0.70977(16)
O8 O 0.5269(4) 0.3903(7) 0.82025(14)
C31 C 0.5009(9) 0.5884(13) 0.7294(3)
H21 H 0.4531 0.6283 0.7227
C32 C 0.5016(7) 0.5180(13) 0.7587(3)
H22 H 0.4579 0.5151 0.7728
C33 C 0.5712(6) 0.4511(11) 0.7662(2)
C34 C 0.6345(7) 0.4667(11) 0.7458(2)
H23 H 0.6826 0.4242 0.7509
C35 C 0.6270(7) 0.5434(10) 0.7185(2)
H24 H 0.6711 0.5535 0.7047
C36 C 0.5799(7) 0.3604(11) 0.7964(2)
H29 H 0.1370 0.9631 0.9628
N6 N 0.4966(5) 0.8642(8) 0.69297(15)
C49 C 0.5376(5) 0.9320(10) 0.7162(2)
H33 H 0.5917 0.9147 0.7186
C52 C 0.3854(5) 0.9838(9) 0.70918(19)
C53 C 0.4185(6) 0.8913(9) 0.6886(2)
H36 H 0.3888 0.8473 0.6720
O13 O 0.6667(4) 0.8328(8) 0.6658(2)
O14_4 O 0.0000 0.8312(10) 1.0000
Cu5_4 Cu 1.0000 0.06478(14) 1.0000
N14 N 0.5027(4) 0.7863(7) 0.62333(15)
H73 H 0.681827 0.851128 0.642141
H74 H 0.66035 0.921549 0.6779
H32 H 0.9928 0.2527 0.9439
C55 C 0.3365(6) 0.8794(9) 0.48420(19)
C56 C 0.3638(6) 0.9884(11) 0.4654(2)
C58 C 0.2641(7) 0.9328(11) 0.4251(3)
H38 H 0.2406 0.9494 0.4043
C59 C 0.2370(7) 0.8233(11) 0.4442(3)
H39 H 0.1936 0.7709 0.4372
C60 C 0.2765(6) 0.7955(9) 0.4734(2)
H40 H 0.2625 0.7190 0.4861
O15 O 0.3773(4) 0.8444(6) 0.51332(13)
C61 C 0.4619(7) 0.7026(15) 0.6039(3)
H41 H 0.4582 0.6108 0.6104
C62 C 0.4253(6) 0.7406(10) 0.5754(2)
H42 H 0.3982 0.6767 0.5622
C63 C 0.4289(7) 0.8761(10) 0.5662(2)
C64 C 0.4671(7) 0.9678(10) 0.5869(2)
C65 C 0.5018(6) 0.9149(10) 0.61539(19)
H44 H 0.5264 0.9763 0.6301
C66 C 0.3868(6) 0.9357(10) 0.5363(2)
C82 C 0.1796(6) 0.9805(10) 0.0690(2)
H55 H 0.1886 0.9121 0.0850
C83 C 0.1182(6) 0.9744(10) 0.0496(2)
H56 H 0.0838 0.9002 0.0520
H76_2 H 0.0277688 0.797101 0.97971
Cu2_2 Cu 0.05023(6) 0.21487(10) 0.66665(2)
N2_2 N 0.0977(4) 0.0621(7) 0.64087(14)
C13_2 C 0.1523(7) 0.0865(10) 0.6170(2)
H9_2 H 0.1693 0.1766 0.6137
H10_2 H 0.2251 0.0026 0.5827
N4_2 N 0.0618(5) 0.1051(7) 0.70977(16)
C31_2 C 0.0009(9) 0.0884(13) 0.7294(3)
C32_2 C 0.0016(7) 0.0180(13) 0.7587(3)
C35_2 C 0.1270(7) 0.0434(10) 0.7185(2)
H24_2 H 0.1711 0.0535 0.7047
C49_2 C 0.0376(5) 0.4320(10) 0.7162(2)
H33_2 H 0.0917 0.4147 0.7186
C50_2 C 0.0022(6) 0.5282(10) 0.7371(2)
H34_2 H 0.0317 0.5748 0.7534
O13_2 O 0.1667(4) 0.3328(8) 0.6658(2)
N14_2 N 0.0027(4) 0.2863(7) 0.62333(15)
H73_2 H 0.181827 0.351128 0.642141
H74_2 H 0.16035 0.421549 0.6779
C65_2 C 0.0018(6) 0.4149(10) 0.61539(19)
H44_2 H 0.0264 0.4763 0.6301
C76_2 C 0.0462(5) 0.7671(10) 0.1405(2)
H50_2 H 0.0912 0.7787 0.1539
C77_2 C 0.0517(6) 0.7000(14) 0.1108(2)
H51_2 H 0.1009 0.6713 0.1030
Cu5_5 Cu 0.5000 0.56478(14) 0.0000
O14_5 O 0.5000 0.3312(10) 0.0000
H57_2 H 0.0469 0.1283 0.2773
H58_2 H 0.0421 0.0151 0.2272
C91_2 C 0.2356(6) 0.7556(10) 0.2307(2)
C92_2 C 0.2702(5) 0.7072(11) 0.2018(2)
H61_2 H 0.2659 0.6153 0.1955
C93_2 C 0.3114(6) 0.8009(10) 0.18276(18)
C94_2 C 0.3245(5) 0.9298(11) 0.1921(2)
H62_2 H 0.3550 0.9884 0.1789
C95_2 C 0.2900(6) 0.9780(11) 0.2235(2)
C96_2 C 0.2436(7) 0.8846(10) 0.2401(3)
H64_2 H 0.2164 0.9141 0.2591
N11_2 N 0.4407(4) 0.6023(8) 0.04333(17)
O23_2 O 0.3499(4) 0.7583(7) 0.15332(13)
O24_2 O 0.2373(6) 0.6776(13) 0.1313(2)
C97_2 C 0.3792(6) 0.5347(10) 0.05120(19)
H65_2 H 0.3630 0.4631 0.0372
C98_2 C 0.3340(5) 0.5627(12) 0.0801(2)
H66_2 H 0.2892 0.5107 0.0850
C99_2 C 0.3565(5) 0.6630(11) 0.09971(19)
C100_2 C 0.4245(5) 0.7424(14) 0.0911(3)
H67_2 H 0.4420 0.8161 0.1041
C101_2 C 0.4624(7) 0.7030(16) 0.0624(3)
H68_2 H 0.5072 0.7527 0.0561
C102_2 C 0.3088(6) 0.7012(13) 0.1301(2)
N12_2 N 0.0034(5) 0.3642(8) 0.30703(15)
O25_2 O 0.1929(5) 0.6628(8) 0.25057(17)
O26_2 O 0.0818(4) 0.7213(11) 0.2247(2)
C105_2 C 0.0784(6) 0.5528(9) 0.2670(2)
C106_2 C 0.1146(5) 0.4838(9) 0.29082(19)
H71_2 H 0.1686 0.5006 0.2938
C107_2 C 0.0815(6) 0.3913(9) 0.3114(2)
H72_2 H 0.1112 0.3473 0.3280
C108_2 C 0.1149(7) 0.6538(10) 0.2451(2)
N16_2 N 0.6011(4) 0.5699(8) 0.02602(15)
H75_3 H 0.555613 0.297101 0.000196017
H76_3 H 0.472231 0.297101 0.0202904
C55_2 C 0.8365(6) 0.3794(9) 0.48420(19)
C56_2 C 0.8638(6) 0.4884(11) 0.4654(2)
H37_2 H 0.9072 0.5413 0.4721
C57_2 C 0.8218(6) 0.5143(9) 0.4354(2)
C58_2 C 0.7641(7) 0.4328(11) 0.4251(3)
H38_2 H 0.7406 0.4494 0.4043
C59_2 C 0.7370(7) 0.3233(11) 0.4442(3)
H39_2 H 0.6936 0.2709 0.4372
C60_2 C 0.7765(6) 0.2955(9) 0.4734(2)
H40_2 H 0.7625 0.2190 0.4861
O15_2 O 0.8773(4) 0.3444(6) 0.51332(13)
O16_2 O 0.8618(7) 0.5490(10) 0.5358(2)
C61_2 C 0.9619(7) 0.2026(15) 0.6039(3)
H41_2 H 0.9582 0.1108 0.6104
C62_2 C 0.9253(6) 0.2406(10) 0.5754(2)
H42_2 H 0.8982 0.1767 0.5622
C63_2 C 0.9289(7) 0.3761(10) 0.5662(2)
C64_2 C 0.9671(7) 0.4678(10) 0.5869(2)
H43_2 H 0.9694 0.5613 0.5819
C66_2 C 0.8868(6) 0.4357(10) 0.5363(2)
O17_2 O 0.8481(5) 0.6282(7) 0.41757(16)
O18_2 O 0.7610(6) 0.7644(8) 0.4417(2)
C68_2 C 0.8162(6) 0.9845(10) 0.4026(2)
C69_2 C 0.8472(6) 0.8556(9) 0.39965(19)
C70_2 C 0.9012(5) 0.8283(9) 0.3764(2)
H47_2 H 0.9222 0.7402 0.3742
C71_2 C 0.9256(6) 0.9351(10) 0.3555(2)
H48_2 H 0.9602 0.9147 0.3381
C72_2 C 0.8145(7) 0.7457(10) 0.4219(2)
C73_2 C 0.9135(6) 0.7195(11) 0.10272(19)
C74_2 C 0.9034(7) 0.7992(12) 0.1322(2)
H49_2 H 0.8553 0.8363 0.1390
C75_2 C 0.9782(8) 0.8157(11) 0.1504(2)
C78_2 C 0.9836(7) 0.6744(11) 0.0920(2)
H52_2 H 0.9869 0.6256 0.0720
O19_2 O 0.8452(4) 0.7052(9) 0.08344(13)
O20_2 O 0.8196(5) 0.5107(9) 0.1083(2)
C79_2 C 0.6534(6) 0.6706(9) 0.0227(2)
H53_2 H 0.6452 0.7352 0.0058
C80_2 C 0.7169(6) 0.6837(9) 0.0425(2)
H54_2 H 0.7512 0.7581 0.0401
C81_2 C 0.7306(5) 0.5858(9) 0.06622(19)
C82_2 C 0.6796(6) 0.4805(10) 0.0690(2)
H55_2 H 0.6886 0.4121 0.0850
C83_2 C 0.6182(6) 0.4744(10) 0.0496(2)
H56_2 H 0.5838 0.4002 0.0520
C84_2 C 0.8038(6) 0.5939(10) 0.08805(19)
O21_2 O 0.8739(7) 0.7670(12) 0.2024(2)
O22_2 O 0.9731(4) 0.8903(7) 0.17975(14)
C87_2 C 0.9288(6) 0.9511(11) 0.2338(2)
C88_2 C 0.8655(7) 0.9667(11) 0.2542(2)
H59_2 H 0.8174 0.9242 0.2491
C90_2 C 0.9201(7) 0.8604(11) 0.2036(2)
C1_2 C 0.1635(6) 0.3794(9) 0.51580(19)
C2_2 C 0.1362(6) 0.4884(11) 0.5346(2)
H1_2 H 0.0928 0.5413 0.5279
C3_2 C 0.1782(6) 0.5143(9) 0.5646(2)
C4_2 C 0.2359(7) 0.4328(11) 0.5749(3)
H2_2 H 0.2594 0.4494 0.5957
C5_2 C 0.2630(7) 0.3233(11) 0.5558(3)
H3_2 H 0.3064 0.2709 0.5628
C6_2 C 0.2235(6) 0.2955(9) 0.5266(2)
H4_2 H 0.2375 0.2190 0.5139
O1_2 O 0.1227(4) 0.3444(6) 0.48668(13)
O2_2 O 0.1382(7) 0.5490(10) 0.4642(2)
C7_2 C 0.0381(7) 0.2026(15) 0.3961(3)
H5_2 H 0.0418 0.1108 0.3896
C8_2 C 0.0747(6) 0.2406(10) 0.4246(2)
H6_2 H 0.1018 0.1767 0.4378
C9_2 C 0.0711(7) 0.3761(10) 0.4338(2)
C10_2 C 0.0329(7) 0.4678(10) 0.4131(2)
H7_2 H 0.0306 0.5613 0.4181
C12_2 C 0.1132(6) 0.4357(10) 0.4637(2)
O3_2 O 0.1519(5) 0.6282(7) 0.58243(16)
O4_2 O 0.2390(6) 0.7644(8) 0.5583(2)
C14_2 C 0.1838(6) 0.9845(10) 0.5974(2)
C15_2 C 0.1528(6) 0.8556(9) 0.60035(19)
C16_2 C 0.0988(5) 0.8283(9) 0.6236(2)
H11_2 H 0.0778 0.7402 0.6258
C17_2 C 0.0744(6) 0.9351(10) 0.6445(2)
H12_2 H 0.0398 0.9147 0.6619
C18_2 C 0.1855(7) 0.7457(10) 0.5781(2)
C19_2 C 0.0865(6) 0.7195(11) 0.89728(19)
C20_2 C 0.0966(7) 0.7992(12) 0.8678(2)
H13_2 H 0.1447 0.8363 0.8610
C21_2 C 0.0218(8) 0.8157(11) 0.8496(2)
C24_2 C 0.0164(7) 0.6744(11) 0.9080(2)
H16_2 H 0.0131 0.6256 0.9280
O5_2 O 0.1548(4) 0.7052(9) 0.91656(13)
O6_2 O 0.1804(5) 0.5107(9) 0.8917(2)
N3_2 N 0.3989(4) 0.5699(8) 0.97398(15)
C25_2 C 0.3466(6) 0.6706(9) 0.9773(2)
H17_2 H 0.3548 0.7352 0.9942
C26_2 C 0.2831(6) 0.6837(9) 0.9575(2)
H18_2 H 0.2488 0.7581 0.9599
C27_2 C 0.2694(5) 0.5858(9) 0.93378(19)
C28_2 C 0.3204(6) 0.4805(10) 0.9310(2)
H19_2 H 0.3114 0.4121 0.9150
C29_2 C 0.3818(6) 0.4744(10) 0.9504(2)
H20_2 H 0.4162 0.4002 0.9480
C30_2 C 0.1962(6) 0.5939(10) 0.91195(19)
O7_2 O 0.1261(7) 0.7670(12) 0.7976(2)
O8_2 O 0.0269(4) 0.8903(7) 0.82025(14)
C33_2 C 0.0712(6) 0.9511(11) 0.7662(2)
C34_2 C 0.1345(7) 0.9667(11) 0.7458(2)
H23_2 H 0.1826 0.9242 0.7509
C36_2 C 0.0799(7) 0.8604(11) 0.7964(2)
Cu5_6 Cu 0.5000 0.56478(14) 1.0000
H21_2 H 0.9531 0.1283 0.7227
H22_2 H 0.9579 0.0151 0.7728
C37_2 C 0.7644(6) 0.7556(10) 0.7693(2)
C38_2 C 0.7298(5) 0.7072(11) 0.7982(2)
H25_2 H 0.7341 0.6153 0.8045
C39_2 C 0.6886(6) 0.8009(10) 0.81724(18)
C40_2 C 0.6755(5) 0.9298(11) 0.8079(2)
H26_2 H 0.6450 0.9884 0.8211
C41_2 C 0.7100(6) 0.9780(11) 0.7765(2)
C42_2 C 0.7564(7) 0.8846(10) 0.7599(3)
H28_2 H 0.7836 0.9141 0.7409
N5_2 N 0.5593(4) 0.6023(8) 0.95667(17)
O9_2 O 0.6501(4) 0.7583(7) 0.84668(13)
O10_2 O 0.7627(6) 0.6776(13) 0.8687(2)
C43_2 C 0.6208(6) 0.5347(10) 0.94880(19)
H29_2 H 0.6370 0.4631 0.9628
C44_2 C 0.6660(5) 0.5627(12) 0.9199(2)
H30_2 H 0.7108 0.5107 0.9150
C45_2 C 0.6435(5) 0.6630(11) 0.90029(19)
C46_2 C 0.5755(5) 0.7424(14) 0.9089(3)
H31_2 H 0.5580 0.8161 0.8959
C47_2 C 0.5376(7) 0.7030(16) 0.9376(3)
H32_2 H 0.4928 0.7527 0.9439
C48_2 C 0.6912(6) 0.7012(13) 0.8699(2)
N6_2 N 0.9966(5) 0.3642(8) 0.69297(15)
O11_2 O 0.8071(5) 0.6628(8) 0.74943(17)
O12_2 O 0.9182(4) 0.7213(11) 0.7753(2)
C51_2 C 0.9216(6) 0.5528(9) 0.7330(2)
C52_2 C 0.8854(5) 0.4838(9) 0.70918(19)
H35_2 H 0.8314 0.5006 0.7062
C53_2 C 0.9185(6) 0.3913(9) 0.6886(2)
H36_2 H 0.8888 0.3473 0.6720
C54_2 C 0.8851(7) 0.6538(10) 0.7549(2)
O14_6 O 0.5000 0.3312(10) 1.0000
H75_4 H 0.444387 0.297101 0.999804
H76_4 H 0.527769 0.297101 0.97971
H63_2 H 0.2990 0.0665 0.2317
H27_2 H 0.7010 0.0665 0.7683
N1_2 N 0.9973(4) 0.2863(7) 0.37667(15)
C11_2 C 0.9982(6) 0.4149(10) 0.38461(19)
H8_2 H 0.9736 0.4763 0.3699
C22_2 C 0.9538(5) 0.7671(10) 0.8595(2)
H14_2 H 0.9088 0.7787 0.8461
C23_2 C 0.9483(6) 0.7000(14) 0.8892(2)
H15_2 H 0.8991 0.6713 0.8970
Cu7_2 Cu 0.94977(6) 0.21487(10) 0.33335(2)
N8_2 N 0.9023(4) 0.0621(7) 0.35913(14)
C67_2 C 0.8477(7) 0.0865(10) 0.3830(2)
H45_2 H 0.8307 0.1766 0.3863
H46_2 H 0.7749 0.0026 0.4173
N10_2 N 0.9382(5) 0.1051(7) 0.29023(16)
C85_2 C 0.9991(9) 0.0884(13) 0.2706(3)
C86_2 C 0.9984(7) 0.0180(13) 0.2413(3)
C89_2 C 0.8730(7) 0.0434(10) 0.2815(2)
H60_2 H 0.8289 0.0535 0.2953
C103_2 C 0.9624(5) 0.4320(10) 0.2838(2)
H69_2 H 0.9083 0.4147 0.2814
C104_2 C 0.9978(6) 0.5282(10) 0.2629(2)
H70_2 H 0.9683 0.5748 0.2466
O27_2 O 0.8333(4) 0.3328(8) 0.3342(2)
H77_2 H 0.818173 0.351128 0.357859
H78_2 H 0.83965 0.421549 0.3221
loop_
_geom_bond_atom_site_label_1
_geom_bond_atom_site_label_2
_geom_bond_site_symmetry_1
_geom_bond_site_symmetry_2
N16 Cu5 1_555 1_555
C1 C2 1_555 1_555
H2 C4 1_555 1_555
C5 C4 1_555 1_555
H3 C5 1_555 1_555
C6 C1 1_555 1_555
H4 C6 1_555 1_555
O1 C1 1_555 1_555
N1 C7 1_555 1_555
C7 H5 1_555 1_555
C8 C7 1_555 1_555
H6 C8 1_555 1_555
C9 C8 1_555 1_555
C10 C9 1_555 1_555
C11 N1 1_555 1_555
H8 C11 1_555 1_555
C12 O1 1_555 1_555
H19 C28 1_555 1_555
H20 C29 1_555 1_555
Cu7 N1 1_555 1_555
C5 C6 1_555 1_555
C9 C12 1_555 1_555
C10 C11 1_555 1_555
C28 C29 1_555 1_555
Cu7 N8 1_555 1_555
N8 C67 1_555 1_555
O17 C57 1_555 1_555
O18 C72 1_555 1_555
C67 H45 1_555 1_555
C68 C67 1_555 1_555
H46 C68 1_555 1_555
C69 C68 1_555 1_555
C70 C69 1_555 1_555
H47 C70 1_555 1_555
C71 N8 1_555 1_555
H48 C71 1_555 1_555
C72 O17 1_555 1_555
C73 C74 1_555 1_555
C74 H49 1_555 1_555
C75 C74 1_555 1_555
C76 C75 1_555 1_555
H50 C76 1_555 1_555
C77 C76 1_555 1_555
H51 C77 1_555 1_555
C78 C73 1_555 1_555
H52 C78 1_555 1_555
O19 C73 1_555 1_555
O20 C84 1_555 1_555
N16 C79 1_555 1_555
C79 H53 1_555 1_555
C80 C79 1_555 1_555
H54 C80 1_555 1_555
C81 C80 1_555 1_555
C84 O19 1_555 1_555
O21 C90 1_555 1_555
N10 Cu7 1_555 1_555
O22 C75 1_555 1_555
C85 N10 1_555 1_555
H57 C85 1_555 1_555
C86 C85 1_555 1_555
H58 C86 1_555 1_555
C87 C86 1_555 1_555
C88 C87 1_555 1_555
H59 C88 1_555 1_555
C89 N10 1_555 1_555
H60 C89 1_555 1_555
C90 O22 1_555 1_555
N12 Cu7 1_555 1_555
C103 N12 1_555 1_555
H69 C103 1_555 1_555
C107 N12 1_555 1_555
H72 C107 1_555 1_555
O27 Cu7 1_555 1_555
C69 C72 1_555 1_555
C70 C71 1_555 1_555
C77 C78 1_555 1_555
C81 C84 1_555 1_555
C87 C90 1_555 1_555
C88 C89 1_555 1_555
C106 C107 1_555 1_555
O14 H76 1_555 1_555
O27 H77 1_555 1_555
O27 H78 1_555 1_555
Cu5_2 N5 1_555 1_555
C37 C38 1_555 1_555
C38 H25 1_555 1_555
C39 C38 1_555 1_555
C40 C39 1_555 1_555
H26 C40 1_555 1_555
C41 C40 1_555 1_555
H27 C41 1_555 1_555
C42 C37 1_555 1_555
H28 C42 1_555 1_555
N5 C43 1_555 1_555
O9 C39 1_555 1_555
O10 C48 1_555 1_555
C44 C43 1_555 1_555
H30 C44 1_555 1_555
C45 C44 1_555 1_555
C46 C45 1_555 1_555
H31 C46 1_555 1_555
C47 N5 1_555 1_555
C48 O9 1_555 1_555
O11 C37 1_555 1_555
O12 C54 1_555 1_555
H34 C50 1_555 1_555
C51 C50 1_555 1_555
C54 O11 1_555 1_555
C41 C42 1_555 1_555
C45 C48 1_555 1_555
C46 C47 1_555 1_555
C51 C54 1_555 1_555
O14_2 H75 1_555 1_555
O14_3 H75_2 1_555 1_555
C91 C92 1_555 1_555
C92 H61 1_555 1_555
C93 C92 1_555 1_555
C94 C93 1_555 1_555
H62 C94 1_555 1_555
C95 C94 1_555 1_555
H63 C95 1_555 1_555
C96 C91 1_555 1_555
H64 C96 1_555 1_555
N11 Cu5_3 1_555 1_555
O23 C93 1_555 1_555
O24 C102 1_555 1_555
C97 N11 1_555 1_555
C98 C97 1_555 1_555
H66 C98 1_555 1_555
C99 C98 1_555 1_555
C100 C99 1_555 1_555
H67 C100 1_555 1_555
C101 N11 1_555 1_555
C102 O23 1_555 1_555
O25 C91 1_555 1_555
O26 C108 1_555 1_555
H70 C104 1_555 1_555
C105 C104 1_555 1_555
C108 O25 1_555 1_555
C95 C96 1_555 1_555
C99 C102 1_555 1_555
C100 C101 1_555 1_555
C105 C108 1_555 1_555
Cu2 N2 1_555 1_555
N2 C13 1_555 1_555
O3 C3 1_555 1_555
O4 C18 1_555 1_555
C13 H9 1_555 1_555
C14 C13 1_555 1_555
H10 C14 1_555 1_555
C15 C14 1_555 1_555
C16 C15 1_555 1_555
H11 C16 1_555 1_555
C17 N2 1_555 1_555
H12 C17 1_555 1_555
C18 O3 1_555 1_555
C19 C20 1_555 1_555
C20 H13 1_555 1_555
C21 C20 1_555 1_555
C22 C21 1_555 1_555
H14 C22 1_555 1_555
C23 C22 1_555 1_555
H15 C23 1_555 1_555
C24 C19 1_555 1_555
H16 C24 1_555 1_555
O5 C19 1_555 1_555
O6 C30 1_555 1_555
N3 C25 1_555 1_555
C25 H17 1_555 1_555
C26 C25 1_555 1_555
H18 C26 1_555 1_555
C27 C26 1_555 1_555
C30 O5 1_555 1_555
O7 C36 1_555 1_555
N4 Cu2 1_555 1_555
O8 C21 1_555 1_555
C31 N4 1_555 1_555
H21 C31 1_555 1_555
C32 C31 1_555 1_555
H22 C32 1_555 1_555
C33 C32 1_555 1_555
C34 C33 1_555 1_555
H23 C34 1_555 1_555
C35 N4 1_555 1_555
H24 C35 1_555 1_555
C36 O8 1_555 1_555
N6 Cu2 1_555 1_555
C49 N6 1_555 1_555
H33 C49 1_555 1_555
C53 N6 1_555 1_555
H36 C53 1_555 1_555
O13 Cu2 1_555 1_555
Cu5_4 N3 1_555 1_555
N14 Cu2 1_555 1_555
C15 C18 1_555 1_555
C16 C17 1_555 1_555
C23 C24 1_555 1_555
C27 C30 1_555 1_555
C33 C36 1_555 1_555
C34 C35 1_555 1_555
C52 C53 1_555 1_555
O13 H73 1_555 1_555
O13 H74 1_555 1_555
C55 C56 1_555 1_555
H38 C58 1_555 1_555
C59 C58 1_555 1_555
H39 C59 1_555 1_555
C60 C55 1_555 1_555
H40 C60 1_555 1_555
O15 C55 1_555 1_555
N14 C61 1_555 1_555
C61 H41 1_555 1_555
C62 C61 1_555 1_555
H42 C62 1_555 1_555
C63 C62 1_555 1_555
C64 C63 1_555 1_555
C65 N14 1_555 1_555
H44 C65 1_555 1_555
C66 O15 1_555 1_555
H55 C82 1_555 1_555
H56 C83 1_555 1_555
C59 C60 1_555 1_555
C63 C66 1_555 1_555
C64 C65 1_555 1_555
C82 C83 1_555 1_555
O14_4 H76_2 1_555 1_555
Cu2_2 N2_2 1_555 1_555
N2_2 C13_2 1_555 1_555
C13_2 H9_2 1_555 1_555
N4_2 Cu2_2 1_555 1_555
C31_2 N4_2 1_555 1_555
C32_2 C31_2 1_555 1_555
C35_2 N4_2 1_555 1_555
H24_2 C35_2 1_555 1_555
H33_2 C49_2 1_555 1_555
C50_2 C49_2 1_555 1_555
H34_2 C50_2 1_555 1_555
O13_2 Cu2_2 1_555 1_555
N14_2 Cu2_2 1_555 1_555
O13_2 H73_2 1_555 1_555
O13_2 H74_2 1_555 1_555
C65_2 N14_2 1_555 1_555
H44_2 C65_2 1_555 1_555
H50_2 C76_2 1_555 1_555
C77_2 C76_2 1_555 1_555
H51_2 C77_2 1_555 1_555
O14_5 Cu5_5 1_555 1_555
C91_2 C92_2 1_555 1_555
C92_2 H61_2 1_555 1_555
C93_2 C92_2 1_555 1_555
C94_2 C93_2 1_555 1_555
H62_2 C94_2 1_555 1_555
C95_2 C94_2 1_555 1_555
C96_2 C91_2 1_555 1_555
H64_2 C96_2 1_555 1_555
N11_2 Cu5_5 1_555 1_555
O23_2 C93_2 1_555 1_555
O24_2 C102_2 1_555 1_555
C97_2 N11_2 1_555 1_555
H65_2 C97_2 1_555 1_555
C98_2 C97_2 1_555 1_555
H66_2 C98_2 1_555 1_555
C99_2 C98_2 1_555 1_555
C100_2 C99_2 1_555 1_555
H67_2 C100_2 1_555 1_555
C101_2 N11_2 1_555 1_555
H68_2 C101_2 1_555 1_555
C102_2 O23_2 1_555 1_555
O25_2 C91_2 1_555 1_555
O26_2 C108_2 1_555 1_555
C106_2 C105_2 1_555 1_555
H71_2 C106_2 1_555 1_555
C107_2 N12_2 1_555 1_555
H72_2 C107_2 1_555 1_555
C108_2 O25_2 1_555 1_555
N16_2 Cu5_5 1_555 1_555
C95_2 C96_2 1_555 1_555
C99_2 C102_2 1_555 1_555
C100_2 C101_2 1_555 1_555
C105_2 C108_2 1_555 1_555
C106_2 C107_2 1_555 1_555
O14_5 H75_3 1_555 1_555
O14_5 H76_3 1_555 1_555
C55_2 C56_2 1_555 1_555
C56_2 H37_2 1_555 1_555
C57_2 C56_2 1_555 1_555
C58_2 C57_2 1_555 1_555
H38_2 C58_2 1_555 1_555
C59_2 C58_2 1_555 1_555
H39_2 C59_2 1_555 1_555
C60_2 C55_2 1_555 1_555
H40_2 C60_2 1_555 1_555
O15_2 C55_2 1_555 1_555
O16_2 C66_2 1_555 1_555
C61_2 H41_2 1_555 1_555
C62_2 C61_2 1_555 1_555
H42_2 C62_2 1_555 1_555
C63_2 C62_2 1_555 1_555
C64_2 C63_2 1_555 1_555
H43_2 C64_2 1_555 1_555
C66_2 O15_2 1_555 1_555
O17_2 C57_2 1_555 1_555
O18_2 C72_2 1_555 1_555
C69_2 C68_2 1_555 1_555
C70_2 C69_2 1_555 1_555
H47_2 C70_2 1_555 1_555
H48_2 C71_2 1_555 1_555
C72_2 O17_2 1_555 1_555
C73_2 C74_2 1_555 1_555
C74_2 H49_2 1_555 1_555
C75_2 C74_2 1_555 1_555
C78_2 C73_2 1_555 1_555
H52_2 C78_2 1_555 1_555
O19_2 C73_2 1_555 1_555
O20_2 C84_2 1_555 1_555
N16_2 C79_2 1_555 1_555
C79_2 H53_2 1_555 1_555
C80_2 C79_2 1_555 1_555
H54_2 C80_2 1_555 1_555
C81_2 C80_2 1_555 1_555
C82_2 C81_2 1_555 1_555
H55_2 C82_2 1_555 1_555
C83_2 N16_2 1_555 1_555
H56_2 C83_2 1_555 1_555
C84_2 O19_2 1_555 1_555
O21_2 C90_2 1_555 1_555
O22_2 C75_2 1_555 1_555
C88_2 C87_2 1_555 1_555
H59_2 C88_2 1_555 1_555
C90_2 O22_2 1_555 1_555
C59_2 C60_2 1_555 1_555
C63_2 C66_2 1_555 1_555
C69_2 C72_2 1_555 1_555
C70_2 C71_2 1_555 1_555
C81_2 C84_2 1_555 1_555
C82_2 C83_2 1_555 1_555
C87_2 C90_2 1_555 1_555
C1_2 C2_2 1_555 1_555
C2_2 H1_2 1_555 1_555
C3_2 C2_2 1_555 1_555
C4_2 C3_2 1_555 1_555
H2_2 C4_2 1_555 1_555
C5_2 C4_2 1_555 1_555
H3_2 C5_2 1_555 1_555
C6_2 C1_2 1_555 1_555
H4_2 C6_2 1_555 1_555
O1_2 C1_2 1_555 1_555
O2_2 C12_2 1_555 1_555
C7_2 H5_2 1_555 1_555
C8_2 C7_2 1_555 1_555
H6_2 C8_2 1_555 1_555
C9_2 C8_2 1_555 1_555
C10_2 C9_2 1_555 1_555
H7_2 C10_2 1_555 1_555
C12_2 O1_2 1_555 1_555
O3_2 C3_2 1_555 1_555
O4_2 C18_2 1_555 1_555
C15_2 C14_2 1_555 1_555
C16_2 C15_2 1_555 1_555
H11_2 C16_2 1_555 1_555
H12_2 C17_2 1_555 1_555
C18_2 O3_2 1_555 1_555
C19_2 C20_2 1_555 1_555
C20_2 H13_2 1_555 1_555
C21_2 C20_2 1_555 1_555
C24_2 C19_2 1_555 1_555
H16_2 C24_2 1_555 1_555
O5_2 C19_2 1_555 1_555
O6_2 C30_2 1_555 1_555
N3_2 C25_2 1_555 1_555
C25_2 H17_2 1_555 1_555
C26_2 C25_2 1_555 1_555
H18_2 C26_2 1_555 1_555
C27_2 C26_2 1_555 1_555
C28_2 C27_2 1_555 1_555
H19_2 C28_2 1_555 1_555
C29_2 N3_2 1_555 1_555
H20_2 C29_2 1_555 1_555
C30_2 O5_2 1_555 1_555
O7_2 C36_2 1_555 1_555
O8_2 C21_2 1_555 1_555
C34_2 C33_2 1_555 1_555
H23_2 C34_2 1_555 1_555
C36_2 O8_2 1_555 1_555
Cu5_6 N3_2 1_555 1_555
C5_2 C6_2 1_555 1_555
C9_2 C12_2 1_555 1_555
C15_2 C18_2 1_555 1_555
C16_2 C17_2 1_555 1_555
C27_2 C30_2 1_555 1_555
C28_2 C29_2 1_555 1_555
C33_2 C36_2 1_555 1_555
Cu5_6 N5_2 1_555 1_555
C37_2 C38_2 1_555 1_555
C38_2 H25_2 1_555 1_555
C39_2 C38_2 1_555 1_555
C40_2 C39_2 1_555 1_555
H26_2 C40_2 1_555 1_555
C41_2 C40_2 1_555 1_555
C42_2 C37_2 1_555 1_555
H28_2 C42_2 1_555 1_555
N5_2 C43_2 1_555 1_555
O9_2 C39_2 1_555 1_555
O10_2 C48_2 1_555 1_555
C43_2 H29_2 1_555 1_555
C44_2 C43_2 1_555 1_555
H30_2 C44_2 1_555 1_555
C45_2 C44_2 1_555 1_555
C46_2 C45_2 1_555 1_555
H31_2 C46_2 1_555 1_555
C47_2 N5_2 1_555 1_555
H32_2 C47_2 1_555 1_555
C48_2 O9_2 1_555 1_555
O11_2 C37_2 1_555 1_555
O12_2 C54_2 1_555 1_555
C52_2 C51_2 1_555 1_555
H35_2 C52_2 1_555 1_555
C53_2 N6_2 1_555 1_555
H36_2 C53_2 1_555 1_555
C54_2 O11_2 1_555 1_555
O14_6 Cu5_6 1_555 1_555
C41_2 C42_2 1_555 1_555
C45_2 C48_2 1_555 1_555
C46_2 C47_2 1_555 1_555
C51_2 C54_2 1_555 1_555
C52_2 C53_2 1_555 1_555
O14_6 H75_4 1_555 1_555
O14_6 H76_4 1_555 1_555
C11_2 N1_2 1_555 1_555
H8_2 C11_2 1_555 1_555
H14_2 C22_2 1_555 1_555
C23_2 C22_2 1_555 1_555
H15_2 C23_2 1_555 1_555
Cu7_2 N1_2 1_555 1_555
Cu7_2 N8_2 1_555 1_555
N8_2 C67_2 1_555 1_555
C67_2 H45_2 1_555 1_555
N10_2 Cu7_2 1_555 1_555
C85_2 N10_2 1_555 1_555
C86_2 C85_2 1_555 1_555
C89_2 N10_2 1_555 1_555
H60_2 C89_2 1_555 1_555
H69_2 C103_2 1_555 1_555
C104_2 C103_2 1_555 1_555
H70_2 C104_2 1_555 1_555
O27_2 Cu7_2 1_555 1_555
O27_2 H77_2 1_555 1_555
O27_2 H78_2 1_555 1_555

#END
