
###############################################################################
#
# This file contains modified crystal structure data generated from the
# MOF subset of the Cambridge Structural Database (CSD) v543 
# hosted by the Cambridge Crystallographic Data Centre (CCDC).
#
# This work is licensed under the Creative Commons
# Attribution-NonCommercial-ShareAlike 4.0 International License.
# To view a copy of this license, visit
# http://creativecommons.org/licenses/by-nc-sa/4.0/
# or send a letter to
# Creative Commons, PO Box 1866, Mountain View, CA 94042, USA.
#
# CIF created using the CSD Python API on 29 September 2022
# The structure has been converted into the P1 space group
# The structure has a 3D framework
# The original CSD entry MIWNIR is in the triclinic crystal system
# The framework has been calculated to contain at least 10.0% void space
# The void calculation uses a probe of radius 1.32A, grid spacing 0.4
#
###############################################################################

data_MIWNIR
_chemical_formula_moiety         '(C20 H18 O26 Pr4)n'
_symmetry_cell_setting           triclinic
_symmetry_space_group_name_H-M   'P 1'
_symmetry_Int_Tables_number      1
_space_group_name_Hall           'P 1'
loop_
_symmetry_equiv_pos_site_id
_symmetry_equiv_pos_as_xyz
1 x,y,z
_cell_length_a                   8.2557(5)
_cell_length_b                   9.3918(6)
_cell_length_c                   11.6162(8)
_cell_angle_alpha                80.241(6)
_cell_angle_beta                 70.487(6)
_cell_angle_gamma                75.339(5)
_cell_volume                     817.729
loop_
_atom_site_label
_atom_site_type_symbol
_atom_site_fract_x
_atom_site_fract_y
_atom_site_fract_z
_atom_site_U_iso_or_equiv
_atom_site_thermal_displace_type
H15 H 0.0558 0.0384 0.3347 0.0390 Uiso
H7 H 0.5805 0.0570 0.0608 0.0580 Uiso
Pr1 Pr 0.24981(4) 0.52682(3) 0.48600(3) 0.0198 Uani
Pr2 Pr 0.45698(4) 0.14539(3) 0.62575(3) 0.0205 Uani
O1 O 0.3953(5) 0.4961(4) 0.2566(4) 0.0291 Uani
O2 O 0.0756(5) 0.4100(4) 0.4007(4) 0.0254 Uani
O6 O 0.4296(5) 0.2740(4) 0.4158(3) 0.0231 Uani
O7 O 0.4550(5) 0.4053(4) 0.6039(3) 0.0227 Uani
O8 O 0.1555(5) 0.2888(4) 0.6386(4) 0.0260 Uani
O10 O 0.4342(6) 0.1098(4) 0.2962(4) 0.0372 Uani
O11 O 0.1899(5) 0.0538(4) 0.7959(4) 0.0363 Uani
O12 O 0.4809(7) 0.1812(4) 0.8146(4) 0.0491 Uani
O13 O 0.5944(8) 0.2877(5) 0.9172(4) 0.0540 Uani
C1 C 0.4204(7) 0.2389(5) 0.3188(5) 0.0215 Uani
C2 C 0.3941(7) 0.3610(6) 0.2181(5) 0.0231 Uani
H1 H 0.4935 0.3404 0.1437 0.0280 Uiso
C3 C 0.2242(8) 0.3693(7) 0.1885(5) 0.0283 Uani
H2 H 0.2162 0.4457 0.1218 0.0340 Uiso
H3 H 0.2303 0.2760 0.1604 0.0340 Uiso
C4 C 0.0594(8) 0.4020(5) 0.2958(5) 0.0244 Uani
C7 C 0.0377(7) 0.0796(6) 0.7535(5) 0.0262 Uani
C8 C 0.0267(7) 0.2261(5) 0.6701(5) 0.0222 Uani
C9 C 0.5376(9) 0.1841(6) 0.9021(6) 0.0370 Uani
C10 C 0.5330(10) 0.0560(7) 0.9988(6) 0.0485 Uani
H8 H 0.397(7) 0.563(6) 0.201(5) 0.0180 Uiso
H9 H 0.422(11) 0.421(8) 0.687(2) 0.0800 Uiso
O18 O 0.0874(5) 0.5846(4) 0.7161(4) 0.0330 Uani
O19 O 0.1109(5) 0.7295(4) 0.3578(4) 0.0324 Uani
H16 H 0.0677 0.9109 0.1748 0.0320 Uiso
Pr8 Pr 0.75019(4) 0.47318(3) 0.51400(3) 0.0198 Uani
O28 O 0.2337(5) 0.8034(4) 0.5235(4) 0.0354 Uani
O30 O 0.7663(5) 0.1966(4) 0.4765(4) 0.0354 Uani
O32 O 0.5450(5) 0.5947(4) 0.3961(3) 0.0227 Uani
O34 O 0.6835(5) 0.0033(4) 0.4526(4) 0.0273 Uani
O14 O 0.5191(7) 0.8188(4) 0.1854(4) 0.0491 Uani
O15 O 0.4056(8) 0.7123(5) 0.0828(4) 0.0540 Uani
C11 C 0.4624(9) 0.8159(6) 0.0979(6) 0.0370 Uani
C12 C 0.4670(10) 0.9440(7) 0.0012(6) 0.0485 Uani
Pr11 Pr 0.54302(4) 0.85461(3) 0.37425(3) 0.0205 Uani
O9 O 0.3165(5) 0.9967(4) 0.5474(4) 0.0273 Uani
C5 C 0.2061(7) 0.9117(6) 0.5822(5) 0.0253 Uani
C6 C 0.0485(8) 0.9454(6) 0.6909(6) 0.0321 Uani
H4 H 0.0471 0.8596 0.7506 0.0390 Uiso
H10 H 0.4195 0.9430 0.9392 0.0580 Uiso
O36 O 0.5658(6) 0.8902(4) 0.7038(4) 0.0372 Uani
C17 C 0.7939(7) 0.0883(6) 0.4178(5) 0.0253 Uani
C18 C 0.9515(8) 0.0546(6) 0.3091(6) 0.0321 Uani
H14 H 0.9529 0.1404 0.2494 0.0390 Uiso
O3 O 0.9126(5) 0.4154(4) 0.2839(4) 0.0330 Uani
O4 O 0.8891(5) 0.2705(4) 0.6422(4) 0.0324 Uani
H6 H 0.9323 0.0891 0.8252 0.0320 Uiso
O16 O 0.6047(5) 0.5039(4) 0.7434(4) 0.0291 Uani
O17 O 0.9244(5) 0.5900(4) 0.5993(4) 0.0254 Uani
O21 O 0.5704(5) 0.7260(4) 0.5842(3) 0.0231 Uani
O23 O 0.8445(5) 0.7112(4) 0.3614(4) 0.0260 Uani
O26 O 0.8101(5) 0.9462(4) 0.2041(4) 0.0363 Uani
C13 C 0.5796(7) 0.7611(5) 0.6812(5) 0.0215 Uani
C14 C 0.6059(7) 0.6390(6) 0.7819(5) 0.0231 Uani
H11 H 0.5065 0.6596 0.8563 0.0280 Uiso
C15 C 0.7758(8) 0.6307(7) 0.8115(5) 0.0283 Uani
H12 H 0.7838 0.5543 0.8782 0.0340 Uiso
H13 H 0.7697 0.7240 0.8396 0.0340 Uiso
C16 C 0.9406(8) 0.5980(5) 0.7042(5) 0.0244 Uani
C19 C 0.9623(7) 0.9204(6) 0.2465(5) 0.0262 Uani
C20 C 0.9733(7) 0.7739(5) 0.3299(5) 0.0222 Uani
H17 H 0.603(7) 0.437(6) 0.799(5) 0.0180 Uiso
H18 H 0.578(11) 0.579(8) 0.313(2) 0.0800 Uiso
H5 H 0.9442 0.9616 0.6653 0.0390 Uiso
loop_
_atom_site_aniso_label
_atom_site_aniso_U_11
_atom_site_aniso_U_22
_atom_site_aniso_U_33
_atom_site_aniso_U_23
_atom_site_aniso_U_13
_atom_site_aniso_U_12
Pr1 0.01845 0.01873 0.02217 0.00019 -0.00809 -0.00276
Pr2 0.0254 0.01725 0.01985 0.00131 -0.00995 -0.0041
O1 0.042 0.023 0.022 0.0047 -0.01 -0.0105
O2 0.023 0.028 0.022 -0.0042 -0.0028 -0.0043
O6 0.028 0.0236 0.016 0.0001 -0.0091 -0.0006
O7 0.026 0.0216 0.022 -0.0013 -0.0094 -0.0056
O8 0.025 0.0226 0.031 -0.0008 -0.0103 -0.0046
O10 0.056 0.028 0.03 -0.0021 -0.023 0
O11 0.035 0.04 0.035 0.0076 -0.019 -0.006
O12 0.097 0.035 0.031 0.009 -0.036 -0.027
O13 0.1 0.038 0.038 0.013 -0.033 -0.034
C1 0.022 0.019 0.017 0 -0.003 0.002
C2 0.026 0.026 0.013 0.003 -0.003 -0.005
C3 0.033 0.031 0.022 -0.001 -0.012 -0.005
C4 0.034 0.013 0.028 0.001 -0.014 -0.004
C7 0.022 0.028 0.025 0.004 -0.008 -0.002
C8 0.025 0.02 0.018 -0.006 -0.004 0.001
C9 0.059 0.026 0.026 0.001 -0.011 -0.014
C10 0.082 0.042 0.034 0.014 -0.033 -0.026
O18 0.026 0.04 0.036 -0.0057 -0.016 -0.0022
O19 0.028 0.032 0.035 0.0052 -0.013 -0.0036
Pr8 0.01845 0.01873 0.02217 0.00019 -0.00809 -0.00276
O28 0.033 0.032 0.042 -0.012 -0.006 -0.01
O30 0.033 0.032 0.042 -0.012 -0.006 -0.01
O32 0.026 0.0216 0.022 -0.0013 -0.0094 -0.0056
O34 0.025 0.025 0.029 -0.0013 -0.0028 -0.0082
O14 0.097 0.035 0.031 0.009 -0.036 -0.027
O15 0.1 0.038 0.038 0.013 -0.033 -0.034
C11 0.059 0.026 0.026 0.001 -0.011 -0.014
C12 0.082 0.042 0.034 0.014 -0.033 -0.026
Pr11 0.0254 0.01725 0.01985 0.00131 -0.00995 -0.0041
O9 0.025 0.025 0.029 -0.0013 -0.0028 -0.0082
C5 0.026 0.02 0.032 -0.002 -0.014 -0.002
C6 0.023 0.029 0.04 0.002 -0.007 -0.005
O36 0.056 0.028 0.03 -0.0021 -0.023 0
C17 0.026 0.02 0.032 -0.002 -0.014 -0.002
C18 0.023 0.029 0.04 0.002 -0.007 -0.005
O3 0.026 0.04 0.036 -0.0057 -0.016 -0.0022
O4 0.028 0.032 0.035 0.0052 -0.013 -0.0036
O16 0.042 0.023 0.022 0.0047 -0.01 -0.0105
O17 0.023 0.028 0.022 -0.0042 -0.0028 -0.0043
O21 0.028 0.0236 0.016 0.0001 -0.0091 -0.0006
O23 0.025 0.0226 0.031 -0.0008 -0.0103 -0.0046
O26 0.035 0.04 0.035 0.0076 -0.019 -0.006
C13 0.022 0.019 0.017 0 -0.003 0.002
C14 0.026 0.026 0.013 0.003 -0.003 -0.005
C15 0.033 0.031 0.022 -0.001 -0.012 -0.005
C16 0.034 0.013 0.028 0.001 -0.014 -0.004
C19 0.022 0.028 0.025 0.004 -0.008 -0.002
C20 0.025 0.02 0.018 -0.006 -0.004 0.001
loop_
_geom_bond_atom_site_label_1
_geom_bond_atom_site_label_2
_geom_bond_site_symmetry_1
_geom_bond_site_symmetry_2
Pr1 O1 1_555 1_555
Pr2 O6 1_555 1_555
O1 C2 1_555 1_555
O2 Pr1 1_555 1_555
O6 Pr1 1_555 1_555
O7 Pr1 1_555 1_555
O8 Pr1 1_555 1_555
O10 C1 1_555 1_555
O11 Pr2 1_555 1_555
O12 Pr2 1_555 1_555
O13 C9 1_555 1_555
C1 O6 1_555 1_555
C2 C1 1_555 1_555
H1 C2 1_555 1_555
C3 C2 1_555 1_555
H2 C3 1_555 1_555
H3 C3 1_555 1_555
C4 O2 1_555 1_555
C7 O11 1_555 1_555
C8 O8 1_555 1_555
C9 O12 1_555 1_555
C10 C9 1_555 1_555
H8 O1 1_555 1_555
H9 O7 1_555 1_555
O18 Pr1 1_555 1_555
O19 Pr1 1_555 1_555
Pr8 O7 1_555 1_555
O28 Pr1 1_555 1_555
O30 Pr2 1_555 1_555
O32 Pr1 1_555 1_555
O34 Pr2 1_555 1_555
Pr2 O7 1_555 1_555
Pr2 O8 1_555 1_555
C3 C4 1_555 1_555
C7 C8 1_555 1_555
Pr8 O30 1_555 1_555
Pr8 O32 1_555 1_555
O14 C11 1_555 1_555
O15 C11 1_555 1_555
C11 C12 1_555 1_555
Pr11 O14 1_555 1_555
O28 C5 1_555 1_555
C5 O9 1_555 1_555
C6 C5 1_555 1_555
H4 C6 1_555 1_555
Pr11 O28 1_555 1_555
O9 Pr11 1_555 1_555
O30 C17 1_555 1_555
C17 O34 1_555 1_555
C18 C17 1_555 1_555
H14 C18 1_555 1_555
Pr11 O21 1_555 1_555
O16 Pr8 1_555 1_555
O21 Pr8 1_555 1_555
O23 Pr8 1_555 1_555
O36 C13 1_555 1_555
O26 Pr11 1_555 1_555
C13 O21 1_555 1_555
C14 O16 1_555 1_555
H11 C14 1_555 1_555
C15 C14 1_555 1_555
H12 C15 1_555 1_555
H13 C15 1_555 1_555
C16 O17 1_555 1_555
C19 O26 1_555 1_555
H17 O16 1_555 1_555
H18 O32 1_555 1_555
O3 Pr8 1_555 1_555
O4 Pr8 1_555 1_555
Pr8 O17 1_555 1_555
Pr11 O32 1_555 1_555
Pr11 O23 1_555 1_555
O23 C20 1_555 1_555
C13 C14 1_555 1_555
C15 C16 1_555 1_555
C19 C20 1_555 1_555

#END
