
###############################################################################
#
# This file contains modified crystal structure data generated from the
# MOF subset of the Cambridge Structural Database (CSD) v543 
# hosted by the Cambridge Crystallographic Data Centre (CCDC).
#
# This work is licensed under the Creative Commons
# Attribution-NonCommercial-ShareAlike 4.0 International License.
# To view a copy of this license, visit
# http://creativecommons.org/licenses/by-nc-sa/4.0/
# or send a letter to
# Creative Commons, PO Box 1866, Mountain View, CA 94042, USA.
#
# CIF created using the CSD Python API on 29 September 2022
# The structure has been converted into the P1 space group
# The structure has a 3D framework
# The original CSD entry MIWNEN is in the triclinic crystal system
# The framework has been calculated to contain at least 10.0% void space
# The void calculation uses a probe of radius 1.32A, grid spacing 0.4
#
###############################################################################

data_MIWNEN
_chemical_formula_moiety         '(C20 H20 Nd4 O22)n'
_symmetry_cell_setting           triclinic
_symmetry_space_group_name_H-M   'P 1'
_symmetry_Int_Tables_number      1
_space_group_name_Hall           'P 1'
loop_
_symmetry_equiv_pos_site_id
_symmetry_equiv_pos_as_xyz
1 x,y,z
_cell_length_a                   8.2494(4)
_cell_length_b                   9.3110(4)
_cell_length_c                   11.6959(6)
_cell_angle_alpha                79.306(4)
_cell_angle_beta                 70.324(4)
_cell_angle_gamma                76.048(4)
_cell_volume                     815.581
loop_
_atom_site_label
_atom_site_type_symbol
_atom_site_fract_x
_atom_site_fract_y
_atom_site_fract_z
_atom_site_U_iso_or_equiv
_atom_site_thermal_displace_type
H4 H 0.0543 0.0379 0.3466 0.0160 Uiso
O3 O 0.1140(4) 0.7301(4) 0.3559(3) 0.0148 Uani
O4 O 0.0873(4) 0.5703(4) 0.7179(3) 0.0157 Uani
H6 H 0.0638 0.9225 0.1804 0.0150 Uiso
Nd8 Nd 0.25082(3) 0.52547(3) 0.48666(2) 0.0084 Uani
O28 O 0.0738(4) 0.4098(4) 0.4030(3) 0.0115 Uani
O5 O 0.7597(4) 0.2047(4) 0.4792(3) 0.0157 Uani
O9 O 0.6809(4) 0.0056(4) 0.4586(3) 0.0110 Uani
C5 C 0.7895(6) 0.0936(6) 0.4236(5) 0.0120 Uani
C6 C 0.9531(6) 0.0592(6) 0.3173(5) 0.0136 Uani
H5 H 0.9622 0.1472 0.2581 0.0160 Uiso
H8 H 0.818(9) 0.040(4) 0.160(5) 0.0500 Uiso
H11 H 0.5710 0.0623 0.0606 0.0670 Uiso
Nd6 Nd 0.74918(3) 0.47453(3) 0.51334(2) 0.0084 Uani
Nd11 Nd 0.45096(3) 0.14323(3) 0.62565(2) 0.0088 Uani
O38 O 0.4402(5) 0.1100(4) 0.2950(3) 0.0155 Uani
O14 O 0.4850(5) 0.1845(4) 0.8109(3) 0.0197 Uani
O15 O 0.6068(5) 0.2838(4) 0.9134(3) 0.0225 Uani
C11 C 0.5425(7) 0.1836(6) 0.8976(5) 0.0172 Uani
C12 C 0.5300(11) 0.0566(8) 0.9969(8) 0.0558 Uani
Nd2 Nd 0.54904(3) 0.85677(3) 0.37435(2) 0.0088 Uani
O1 O 0.6063(5) 0.4998(4) 0.7386(3) 0.0132 Uani
O2 O 0.9262(4) 0.5902(4) 0.5970(3) 0.0115 Uani
O6 O 0.5718(4) 0.7262(4) 0.5825(3) 0.0107 Uani
O7 O 0.5467(4) 0.5961(4) 0.3970(3) 0.0112 Uani
O8 O 0.8424(4) 0.7139(4) 0.3670(3) 0.0117 Uani
O10 O 0.5598(5) 0.8900(4) 0.7050(3) 0.0155 Uani
O11 O 0.8082(5) 0.9499(4) 0.2129(3) 0.0163 Uani
O12 O 0.5150(5) 0.8155(4) 0.1891(3) 0.0197 Uani
O13 O 0.3932(5) 0.7162(4) 0.0866(3) 0.0225 Uani
C1 C 0.5749(6) 0.7622(6) 0.6791(4) 0.0105 Uani
C2 C 0.6072(6) 0.6341(6) 0.7788(4) 0.0107 Uani
H1 H 0.5085 0.6497 0.8536 0.0130 Uiso
C3 C 0.7747(6) 0.6263(6) 0.8084(5) 0.0142 Uani
H2 H 0.7797 0.5505 0.8769 0.0170 Uiso
H3 H 0.7705 0.7209 0.8337 0.0170 Uiso
C4 C 0.9431(6) 0.5910(5) 0.7018(5) 0.0113 Uani
C7 C 0.9599(6) 0.9283(6) 0.2528(5) 0.0124 Uani
C8 C 0.9733(6) 0.7785(6) 0.3335(5) 0.0119 Uani
C9 C 0.4575(7) 0.8164(6) 0.1024(5) 0.0172 Uani
C10 C 0.4700(11) 0.9434(8) 0.0031(8) 0.0558 Uani
H9 H 0.621(8) 0.421(5) 0.801(4) 0.0320 Uiso
H10 H 0.551(9) 0.556(8) 0.327(4) 0.0500 Uiso
O16 O 0.3937(5) 0.5002(4) 0.2614(3) 0.0132 Uani
O21 O 0.4282(4) 0.2738(4) 0.4175(3) 0.0107 Uani
O22 O 0.4533(4) 0.4039(4) 0.6030(3) 0.0112 Uani
O23 O 0.1576(4) 0.2861(4) 0.6330(3) 0.0117 Uani
O26 O 0.1918(5) 0.0501(4) 0.7871(3) 0.0163 Uani
C13 C 0.4251(6) 0.2378(6) 0.3209(4) 0.0105 Uani
C14 C 0.3928(6) 0.3659(6) 0.2212(4) 0.0107 Uani
H12 H 0.4915 0.3503 0.1464 0.0130 Uiso
C15 C 0.2253(6) 0.3737(6) 0.1916(5) 0.0142 Uani
H13 H 0.2203 0.4495 0.1231 0.0170 Uiso
H14 H 0.2295 0.2791 0.1663 0.0170 Uiso
C16 C 0.0569(6) 0.4090(5) 0.2982(5) 0.0113 Uani
C19 C 0.0401(6) 0.0717(6) 0.7472(5) 0.0124 Uani
C20 C 0.0267(6) 0.2215(6) 0.6665(5) 0.0119 Uani
H19 H 0.379(8) 0.579(5) 0.199(4) 0.0320 Uiso
H20 H 0.449(9) 0.444(8) 0.673(4) 0.0500 Uiso
O30 O 0.8860(4) 0.2699(4) 0.6441(3) 0.0148 Uani
O32 O 0.9127(4) 0.4297(4) 0.2821(3) 0.0157 Uani
O34 O 0.2403(4) 0.7953(4) 0.5208(3) 0.0157 Uani
O36 O 0.3191(4) 0.9944(4) 0.5414(3) 0.0110 Uani
H7 H 0.4290 0.9377 0.9394 0.0670 Uiso
C17 C 0.2105(6) 0.9064(6) 0.5764(5) 0.0120 Uani
C18 C 0.0469(6) 0.9408(6) 0.6827(5) 0.0136 Uani
H16 H 0.0378 0.8528 0.7419 0.0160 Uiso
H18 H 0.182(9) 0.960(4) 0.840(5) 0.0500 Uiso
H17 H 0.9362 0.0775 0.8196 0.0150 Uiso
H15 H 0.9457 0.9621 0.6534 0.0160 Uiso
loop_
_atom_site_aniso_label
_atom_site_aniso_U_11
_atom_site_aniso_U_22
_atom_site_aniso_U_33
_atom_site_aniso_U_23
_atom_site_aniso_U_13
_atom_site_aniso_U_12
O3 0.0127 0.0112 0.021 0.002 -0.0075 -0.0026
O4 0.0115 0.017 0.021 -0.0036 -0.0105 0.0016
Nd8 0.00758 0.00632 0.0122 -5e-05 -0.00477 -0.00099
O28 0.0122 0.0124 0.0106 -0.0009 -0.0052 -0.0013
O5 0.0124 0.014 0.023 -0.0078 -0.0055 -0.0026
O9 0.0112 0.0101 0.0116 -0.0006 -0.0017 -0.0047
C5 0.011 0.009 0.015 -0.001 -0.007 0.004
C6 0.01 0.014 0.017 0 -0.004 -0.004
Nd6 0.00758 0.00632 0.0122 -5e-05 -0.00477 -0.00099
Nd11 0.01057 0.00606 0.01065 0.0003 -0.00526 -0.00134
O38 0.024 0.0078 0.014 0.0007 -0.0089 0.0013
O14 0.033 0.016 0.017 0.0025 -0.0146 -0.0106
O15 0.038 0.017 0.02 0.0029 -0.0161 -0.0124
C11 0.023 0.013 0.017 0.004 -0.009 -0.006
C12 0.09 0.045 0.062 0.037 -0.061 -0.046
Nd2 0.01057 0.00606 0.01065 0.0003 -0.00526 -0.00134
O1 0.0214 0.0074 0.014 0.0014 -0.0099 -0.0042
O2 0.0122 0.0124 0.0106 -0.0009 -0.0052 -0.0013
O6 0.0129 0.0088 0.0103 -0.0012 -0.0043 -0.0008
O7 0.0112 0.0106 0.011 -0.0015 -0.0023 -0.002
O8 0.0095 0.0097 0.0158 -0.0012 -0.0049 -0.0005
O10 0.024 0.0078 0.014 0.0007 -0.0089 0.0013
O11 0.0148 0.018 0.017 0.0043 -0.009 -0.0035
O12 0.033 0.016 0.017 0.0025 -0.0146 -0.0106
O13 0.038 0.017 0.02 0.0029 -0.0161 -0.0124
C1 0.007 0.011 0.009 -0.001 0.002 0.0003
C2 0.014 0.012 0.006 -0.0004 -0.005 0
C3 0.015 0.018 0.011 -0.003 -0.006 -0.002
C4 0.014 0.002 0.017 0.0004 -0.005 -0.0008
C7 0.01 0.014 0.013 0.001 -0.004 -0.003
C8 0.009 0.013 0.012 -0.004 -0.002 0.001
C9 0.023 0.013 0.017 0.004 -0.009 -0.006
C10 0.09 0.045 0.062 0.037 -0.061 -0.046
O16 0.0214 0.0074 0.014 0.0014 -0.0099 -0.0042
O21 0.0129 0.0088 0.0103 -0.0012 -0.0043 -0.0008
O22 0.0112 0.0106 0.011 -0.0015 -0.0023 -0.002
O23 0.0095 0.0097 0.0158 -0.0012 -0.0049 -0.0005
O26 0.0148 0.018 0.017 0.0043 -0.009 -0.0035
C13 0.007 0.011 0.009 -0.001 0.002 0.0003
C14 0.014 0.012 0.006 -0.0004 -0.005 0
C15 0.015 0.018 0.011 -0.003 -0.006 -0.002
C16 0.014 0.002 0.017 0.0004 -0.005 -0.0008
C19 0.01 0.014 0.013 0.001 -0.004 -0.003
C20 0.009 0.013 0.012 -0.004 -0.002 0.001
O30 0.0127 0.0112 0.021 0.002 -0.0075 -0.0026
O32 0.0115 0.017 0.021 -0.0036 -0.0105 0.0016
O34 0.0124 0.014 0.023 -0.0078 -0.0055 -0.0026
O36 0.0112 0.0101 0.0116 -0.0006 -0.0017 -0.0047
C17 0.011 0.009 0.015 -0.001 -0.007 0.004
C18 0.01 0.014 0.017 0 -0.004 -0.004
loop_
_geom_bond_atom_site_label_1
_geom_bond_atom_site_label_2
_geom_bond_site_symmetry_1
_geom_bond_site_symmetry_2
O3 Nd8 1_555 1_555
O4 Nd8 1_555 1_555
Nd8 O28 1_555 1_555
O5 C5 1_555 1_555
C5 O9 1_555 1_555
C6 C5 1_555 1_555
H5 C6 1_555 1_555
Nd6 O5 1_555 1_555
Nd11 O5 1_555 1_555
O9 Nd11 1_555 1_555
O14 C11 1_555 1_555
O15 C11 1_555 1_555
C11 C12 1_555 1_555
Nd11 O14 1_555 1_555
Nd6 O1 1_555 1_555
Nd2 O6 1_555 1_555
O1 C2 1_555 1_555
O2 Nd6 1_555 1_555
O6 Nd6 1_555 1_555
O7 Nd6 1_555 1_555
O8 Nd6 1_555 1_555
O10 C1 1_555 1_555
O11 Nd2 1_555 1_555
O12 Nd2 1_555 1_555
O13 C9 1_555 1_555
C1 O6 1_555 1_555
C2 C1 1_555 1_555
H1 C2 1_555 1_555
C3 C2 1_555 1_555
H2 C3 1_555 1_555
H3 C3 1_555 1_555
C4 O2 1_555 1_555
C7 O11 1_555 1_555
C8 O8 1_555 1_555
C9 O12 1_555 1_555
C10 C9 1_555 1_555
H9 O1 1_555 1_555
H10 O7 1_555 1_555
Nd8 O7 1_555 1_555
Nd11 O21 1_555 1_555
O16 Nd8 1_555 1_555
O21 Nd8 1_555 1_555
O22 Nd6 1_555 1_555
O23 Nd8 1_555 1_555
O38 C13 1_555 1_555
O26 Nd11 1_555 1_555
C13 O21 1_555 1_555
C14 O16 1_555 1_555
H12 C14 1_555 1_555
C15 C14 1_555 1_555
H13 C15 1_555 1_555
H14 C15 1_555 1_555
C16 O28 1_555 1_555
C19 O26 1_555 1_555
C20 O23 1_555 1_555
H19 O16 1_555 1_555
H20 O22 1_555 1_555
O30 Nd6 1_555 1_555
O32 Nd6 1_555 1_555
O34 Nd2 1_555 1_555
O36 Nd2 1_555 1_555
Nd2 O7 1_555 1_555
Nd2 O8 1_555 1_555
C3 C4 1_555 1_555
C7 C8 1_555 1_555
Nd8 O22 1_555 1_555
Nd8 O34 1_555 1_555
Nd11 O22 1_555 1_555
Nd11 O23 1_555 1_555
C13 C14 1_555 1_555
C15 C16 1_555 1_555
C19 C20 1_555 1_555
O34 C17 1_555 1_555
C17 O36 1_555 1_555
C18 C17 1_555 1_555
H16 C18 1_555 1_555

#END
