
###############################################################################
#
# This file contains modified crystal structure data generated from the
# MOF subset of the Cambridge Structural Database (CSD) v543 
# hosted by the Cambridge Crystallographic Data Centre (CCDC).
#
# This work is licensed under the Creative Commons
# Attribution-NonCommercial-ShareAlike 4.0 International License.
# To view a copy of this license, visit
# http://creativecommons.org/licenses/by-nc-sa/4.0/
# or send a letter to
# Creative Commons, PO Box 1866, Mountain View, CA 94042, USA.
#
# CIF created using the CSD Python API on 29 September 2022
# The structure has been converted into the P1 space group
# The structure has a 3D framework
# The original CSD entry MIXBAY is in the trigonal crystal system
# The original CSD entry MIXBAY is in a Sohncke space group
# The framework has been calculated to contain at least 10.0% void space
# The void calculation uses a probe of radius 1.32A, grid spacing 0.4
#
###############################################################################

data_MIXBAY
_chemical_formula_moiety         '(C78 H48 Cu6 N18 O30)n'
_symmetry_cell_setting           triclinic
_symmetry_space_group_name_H-M   'P 1'
_symmetry_Int_Tables_number      1
_space_group_name_Hall           'P 1'
loop_
_symmetry_equiv_pos_site_id
_symmetry_equiv_pos_as_xyz
1 x,y,z
_cell_length_a                   18.1402(10)
_cell_length_b                   18.1402(10)
_cell_length_c                   18.114(2)
_cell_angle_alpha                90
_cell_angle_beta                 90
_cell_angle_gamma                120
_cell_volume                     5162.13
loop_
_atom_site_label
_atom_site_type_symbol
_atom_site_fract_x
_atom_site_fract_y
_atom_site_fract_z
Cu1 Cu 0.47324(10) 0.52552(10) 0.05833(3)
O1 O 0.4361(4) 0.4137(4) 0.0962(4)
O2 O 0.4771(5) 0.3697(4) 0.0016(4)
O3 O 0.4793(5) 0.1103(4) 0.0000(3)
O4 O 0.4348(4) 0.0219(4) 0.1010(4)
O5 O 0.4295(5) 0.5684(5) 0.14741(19)
H1 H 0.4646 0.6180 0.1568
H2 H 0.3734 0.5632 0.1469
C1 C 0.4442(5) 0.3553(5) 0.0625(4)
C2 C 0.4176(7) 0.2730(6) 0.0963(6)
C3 C 0.3741(6) 0.2487(6) 0.1660(5)
H3 H 0.3622 0.2859 0.1917
C4 C 0.3505(4) 0.1699(7) 0.1939(3)
C5 C 0.3710(6) 0.1138(6) 0.1626(6)
H4 H 0.3530 0.0602 0.1826
C6 C 0.4199(6) 0.1419(6) 0.0998(5)
C7 C 0.4419(3) 0.2208(6) 0.0654(3)
H5 H 0.4730 0.2364 0.0217
C8 C 0.4502(6) 0.0841(7) 0.0661(6)
C9 C 0.2164(6) 0.0468(7) 0.4363(5)
C10 C 0.1465(9) 0.0287(8) 0.4686(6)
H6 H 0.1143 0.0522 0.4519
C11 C 0.2810(9) 0.0247(10) 0.4690(5)
H7 H 0.3342 0.0440 0.4477
N1 N 0.3007(3) 0.1413(5) 0.2577(2)
N2 N 0.2824(6) 0.1967(4) 0.2991(4)
N3 N 0.2304(5) 0.1502(4) 0.3598(3)
C12 C 0.2166(8) 0.0661(4) 0.3561(5)
C13 C 0.2600(7) 0.0605(4) 0.2929(5)
H8 H 0.2616 0.0125 0.2774
Cu7 Cu 0.52676(10) 0.05228(14) 0.94167(3)
O11 O 0.5863(4) 0.0224(6) 0.0962(4)
O14 O 0.5207(5) 0.6310(6) 0.0000(3)
O16 O 0.5871(6) 0.5652(4) 0.1010(4)
O3_2 O 0.4793(5) 0.1103(4) 1.0000(3)
Cu5 Cu 0.52552(10) 0.47324(10) 0.94167(3)
O12 O 0.3697(4) 0.4771(5) 0.9984(4)
O14_2 O 0.5207(5) 0.6310(6) 1.0000(3)
O8 O 0.3690(6) 0.8897(4) 0.0000(3)
Cu3 Cu 0.47448(10) 0.94772(14) 0.05833(3)
Cu4 Cu 0.05228(14) 0.52676(10) 0.05833(3)
O6 O 0.0224(6) 0.5863(4) 0.9038(4)
O7 O 0.1074(6) 0.6303(4) 0.9984(4)
O8_2 O 0.3690(6) 0.8897(4) 1.0000(3)
O9 O 0.4129(6) 0.9781(4) 0.8990(4)
C14 C 0.0889(7) 0.6447(5) 0.9375(4)
C15 C 0.1446(9) 0.7270(6) 0.9037(6)
C16 C 0.1254(8) 0.7513(6) 0.8340(5)
H9 H 0.0763 0.7141 0.8083
C17 C 0.1806(8) 0.8301(7) 0.8061(3)
C18 C 0.2572(8) 0.8862(6) 0.8374(6)
H10 H 0.2928 0.9398 0.8174
C19 C 0.2780(8) 0.8581(6) 0.9002(5)
C20 C 0.2211(7) 0.7792(6) 0.9346(3)
H11 H 0.2366 0.7636 0.9783
C21 C 0.3661(9) 0.9159(7) 0.9339(6)
C22 C 0.1696(9) 0.9532(7) 0.5637(5)
C23 C 0.1178(12) 0.9713(8) 0.5314(6)
H12 H 0.0621 0.9478 0.5481
C24 C 0.2563(13) 0.9753(10) 0.5310(5)
H13 H 0.2902 0.9560 0.5523
N4 N 0.1594(6) 0.8587(5) 0.7423(2)
N5 N 0.0857(7) 0.8033(4) 0.7009(4)
N6 N 0.0802(6) 0.8498(4) 0.6402(3)
C25 C 0.1505(9) 0.9339(4) 0.6439(5)
C26 C 0.1995(8) 0.9395(4) 0.7071(5)
H14 H 0.2491 0.9875 0.7226
O10 O 0.4316(5) 0.8611(7) 0.14741(19)
H15 H 0.3820 0.8466 0.1568
H16 H 0.4368 0.8102 0.1469
O13 O 0.5229(5) 0.8926(6) 0.9984(4)
Cu8 Cu 0.94772(14) 0.47448(10) 0.94167(3)
O8_3 O 0.1103(4) 0.4793(7) 0.0000(3)
O6_2 O 0.4137(4) 0.4361(7) 0.9038(4)
O8_4 O 0.1103(4) 0.4793(7) 1.0000(3)
O9_2 O 0.0219(4) 0.4348(7) 0.8990(4)
C14_2 C 0.3553(5) 0.4442(9) 0.9375(4)
C15_2 C 0.2730(6) 0.4176(11) 0.9037(6)
C16_2 C 0.2487(6) 0.3741(10) 0.8340(5)
H9_2 H 0.2859 0.3622 0.8083
C17_2 C 0.1699(7) 0.3505(11) 0.8061(3)
C18_2 C 0.1138(6) 0.3710(10) 0.8374(6)
H10_2 H 0.0602 0.3530 0.8174
C19_2 C 0.1419(6) 0.4199(10) 0.9002(5)
C20_2 C 0.2208(6) 0.4419(9) 0.9346(3)
H11_2 H 0.2364 0.4730 0.9783
C21_2 C 0.0841(7) 0.4502(11) 0.9339(6)
C22_2 C 0.0468(7) 0.2164(11) 0.5637(5)
C23_2 C 0.0287(8) 0.1465(14) 0.5314(6)
H12_2 H 0.0522 0.1143 0.5481
C24_2 C 0.0247(10) 0.2810(16) 0.5310(5)
H13_2 H 0.0440 0.3342 0.5523
N4_2 N 0.1413(5) 0.3007(8) 0.7423(2)
N5_2 N 0.1967(4) 0.2824(8) 0.7009(4)
N6_2 N 0.1502(4) 0.2304(7) 0.6402(3)
C25_2 C 0.0661(4) 0.2166(10) 0.6439(5)
C26_2 C 0.0605(4) 0.2600(9) 0.7071(5)
H14_2 H 0.0125 0.2616 0.7226
O10_2 O 0.1389(7) 0.5705(9) 0.14741(19)
H15_2 H 0.1534 0.5354 0.1568
H16_2 H 0.1898 0.6266 0.1469
O2_2 O 0.6303(4) 0.1074(6) 0.0016(4)
O3_3 O 0.8897(4) 0.3690(6) 0.0000(3)
O4_2 O 0.9781(4) 0.4129(6) 0.1010(4)
C1_2 C 0.6447(5) 0.0889(7) 0.0625(4)
C2_2 C 0.7270(6) 0.1446(9) 0.0963(6)
C3_2 C 0.7513(6) 0.1254(8) 0.1660(5)
H3_2 H 0.7141 0.0763 0.1917
C4_2 C 0.8301(7) 0.1806(8) 0.1939(3)
C5_2 C 0.8862(6) 0.2572(8) 0.1626(6)
H4_2 H 0.9398 0.2928 0.1826
C6_2 C 0.8581(6) 0.2780(8) 0.0998(5)
C7_2 C 0.7792(6) 0.2211(7) 0.0654(3)
H5_2 H 0.7636 0.2366 0.0217
C8_2 C 0.9159(7) 0.3661(9) 0.0661(6)
C9_2 C 0.9532(7) 0.1696(9) 0.4363(5)
C10_2 C 0.9713(8) 0.1178(12) 0.4686(6)
H6_2 H 0.9478 0.0621 0.4519
C11_2 C 0.9753(10) 0.2563(13) 0.4690(5)
H7_2 H 0.9560 0.2902 0.4477
N1_2 N 0.8587(5) 0.1594(6) 0.2577(2)
N2_2 N 0.8033(4) 0.0857(7) 0.2991(4)
N3_2 N 0.8498(4) 0.0802(6) 0.3598(3)
C12_2 C 0.9339(4) 0.1505(9) 0.3561(5)
C13_2 C 0.9395(4) 0.1995(8) 0.2929(5)
H8_2 H 0.9875 0.2491 0.2774
O11_2 O 0.9776(6) 0.5639(7) 0.0962(4)
O3_4 O 0.8897(4) 0.3690(6) 1.0000(3)
O2_3 O 0.8926(6) 0.5229(5) 0.0016(4)
O3_5 O 0.6310(6) 0.5207(5) 0.0000(3)
C1_3 C 0.9111(7) 0.5558(5) 0.0625(4)
C2_3 C 0.8554(9) 0.5824(7) 0.0963(6)
C3_3 C 0.8746(8) 0.6259(6) 0.1660(5)
H3_3 H 0.9237 0.6378 0.1917
C4_3 C 0.8194(8) 0.6495(4) 0.1939(3)
C5_3 C 0.7428(8) 0.6290(6) 0.1626(6)
H4_3 H 0.7072 0.6470 0.1826
C6_3 C 0.7220(8) 0.5801(6) 0.0998(5)
C7_3 C 0.7789(7) 0.5581(3) 0.0654(3)
H5_3 H 0.7634 0.5270 0.0217
C8_3 C 0.6339(9) 0.5498(6) 0.0661(6)
C9_3 C 0.8304(9) 0.7836(6) 0.4363(5)
C10_3 C 0.8822(12) 0.8535(9) 0.4686(6)
H6_3 H 0.9379 0.8857 0.4519
C11_3 C 0.7437(13) 0.7190(9) 0.4690(5)
H7_3 H 0.7098 0.6658 0.4477
N1_3 N 0.8406(6) 0.6993(3) 0.2577(2)
N2_3 N 0.9143(7) 0.7176(6) 0.2991(4)
N3_3 N 0.9198(6) 0.7696(5) 0.3598(3)
C12_3 C 0.8495(9) 0.7834(8) 0.3561(5)
C13_3 C 0.8005(8) 0.7400(7) 0.2929(5)
H8_3 H 0.7509 0.7384 0.2774
O6_3 O 0.5639(7) 0.9776(6) 0.9038(4)
O9_3 O 0.5652(7) 0.5871(6) 0.8990(4)
C14_3 C 0.5558(9) 0.9111(7) 0.9375(4)
C15_3 C 0.5824(11) 0.8554(9) 0.9037(6)
C16_3 C 0.6259(10) 0.8746(8) 0.8340(5)
H9_3 H 0.6378 0.9237 0.8083
C17_3 C 0.6495(11) 0.8194(8) 0.8061(3)
C18_3 C 0.6290(10) 0.7428(8) 0.8374(6)
H10_3 H 0.6470 0.7072 0.8174
C19_3 C 0.5801(10) 0.7220(8) 0.9002(5)
C20_3 C 0.5581(9) 0.7789(7) 0.9346(3)
H11_3 H 0.5270 0.7634 0.9783
C21_3 C 0.5498(11) 0.6339(9) 0.9339(6)
C22_3 C 0.7836(11) 0.8304(9) 0.5637(5)
C23_3 C 0.8535(14) 0.8822(12) 0.5314(6)
H12_3 H 0.8857 0.9379 0.5481
C24_3 C 0.7190(16) 0.7437(13) 0.5310(5)
H13_3 H 0.6658 0.7098 0.5523
N4_3 N 0.6993(8) 0.8406(6) 0.7423(2)
N5_3 N 0.7176(8) 0.9143(7) 0.7009(4)
N6_3 N 0.7696(7) 0.9198(6) 0.6402(3)
C25_3 C 0.7834(10) 0.8495(9) 0.6439(5)
C26_3 C 0.7400(9) 0.8005(8) 0.7071(5)
H14_3 H 0.7384 0.7509 0.7226
O3_6 O 0.6310(6) 0.5207(5) 1.0000(3)
O5_2 O 0.5684(5) 0.4295(5) 0.85259(19)
H1_2 H 0.6180 0.4646 0.8432
H2_2 H 0.5632 0.3734 0.8531
O10_3 O 0.8611(7) 0.4316(5) 0.85259(19)
H15_3 H 0.8466 0.3820 0.8432
H16_3 H 0.8102 0.4368 0.8531
O5_3 O 0.5705(5) 0.1389(7) 0.85259(19)
H1_3 H 0.5354 0.1534 0.8432
H2_3 H 0.6266 0.1898 0.8531
loop_
_geom_bond_atom_site_label_1
_geom_bond_atom_site_label_2
_geom_bond_site_symmetry_1
_geom_bond_site_symmetry_2
Cu1 O1 1_555 1_555
O1 C1 1_555 1_555
O2 C1 1_555 1_555
O3 C8 1_555 1_555
O4 C8 1_555 1_555
O5 Cu1 1_555 1_555
H1 O5 1_555 1_555
H2 O5 1_555 1_555
C1 C2 1_555 1_555
C2 C3 1_555 1_555
C3 H3 1_555 1_555
C4 C3 1_555 1_555
C5 C4 1_555 1_555
H4 C5 1_555 1_555
C6 C5 1_555 1_555
C7 C2 1_555 1_555
H5 C7 1_555 1_555
C8 C6 1_555 1_555
C9 C10 1_555 1_555
C10 H6 1_555 1_555
C11 C9 1_555 1_555
H7 C11 1_555 1_555
N1 C4 1_555 1_555
N2 N1 1_555 1_555
N3 N2 1_555 1_555
C12 C9 1_555 1_555
C13 N1 1_555 1_555
H8 C13 1_555 1_555
O14 Cu1 1_555 1_555
O16 Cu1 1_555 1_555
C6 C7 1_555 1_555
N3 C12 1_555 1_555
C12 C13 1_555 1_555
Cu7 O3_2 1_555 1_555
Cu3 O8 1_555 1_555
O6 C14 1_555 1_555
O7 C14 1_555 1_555
O8_2 C21 1_555 1_555
O9 C21 1_555 1_555
C14 C15 1_555 1_555
C15 C16 1_555 1_555
C16 H9 1_555 1_555
C17 C16 1_555 1_555
C18 C17 1_555 1_555
H10 C18 1_555 1_555
C19 C18 1_555 1_555
C20 C15 1_555 1_555
H11 C20 1_555 1_555
C21 C19 1_555 1_555
C22 C23 1_555 1_555
H12 C23 1_555 1_555
H13 C24 1_555 1_555
N4 C17 1_555 1_555
N5 N4 1_555 1_555
N6 N5 1_555 1_555
C25 C22 1_555 1_555
C26 N4 1_555 1_555
H14 C26 1_555 1_555
O10 Cu3 1_555 1_555
H15 O10 1_555 1_555
H16 O10 1_555 1_555
C19 C20 1_555 1_555
C22 C24 1_555 1_555
N6 C25 1_555 1_555
C25 C26 1_555 1_555
Cu4 O8_3 1_555 1_555
O6_2 C14_2 1_555 1_555
O12 C14_2 1_555 1_555
O8_4 C21_2 1_555 1_555
O9_2 C21_2 1_555 1_555
C14_2 C15_2 1_555 1_555
C15_2 C16_2 1_555 1_555
C16_2 H9_2 1_555 1_555
C17_2 C16_2 1_555 1_555
C18_2 C17_2 1_555 1_555
H10_2 C18_2 1_555 1_555
C19_2 C18_2 1_555 1_555
C20_2 C15_2 1_555 1_555
H11_2 C20_2 1_555 1_555
C21_2 C19_2 1_555 1_555
C22_2 C23_2 1_555 1_555
H12_2 C23_2 1_555 1_555
H13_2 C24_2 1_555 1_555
N4_2 C17_2 1_555 1_555
N5_2 N4_2 1_555 1_555
N6_2 N5_2 1_555 1_555
C25_2 C22_2 1_555 1_555
C26_2 N4_2 1_555 1_555
H14_2 C26_2 1_555 1_555
O10_2 Cu4 1_555 1_555
H15_2 O10_2 1_555 1_555
H16_2 O10_2 1_555 1_555
Cu5 O6_2 1_555 1_555
C19_2 C20_2 1_555 1_555
C22_2 C24_2 1_555 1_555
N6_2 C25_2 1_555 1_555
C25_2 C26_2 1_555 1_555
O11 C1_2 1_555 1_555
O2_2 C1_2 1_555 1_555
O3_3 C8_2 1_555 1_555
O4_2 C8_2 1_555 1_555
C1_2 C2_2 1_555 1_555
C2_2 C3_2 1_555 1_555
C3_2 H3_2 1_555 1_555
C4_2 C3_2 1_555 1_555
C5_2 C4_2 1_555 1_555
H4_2 C5_2 1_555 1_555
C6_2 C5_2 1_555 1_555
C7_2 C2_2 1_555 1_555
H5_2 C7_2 1_555 1_555
C8_2 C6_2 1_555 1_555
C9_2 C10_2 1_555 1_555
C10_2 H6_2 1_555 1_555
C11_2 C9_2 1_555 1_555
H7_2 C11_2 1_555 1_555
N1_2 C4_2 1_555 1_555
N2_2 N1_2 1_555 1_555
N3_2 N2_2 1_555 1_555
C12_2 C9_2 1_555 1_555
C13_2 N1_2 1_555 1_555
H8_2 C13_2 1_555 1_555
C6_2 C7_2 1_555 1_555
N3_2 C12_2 1_555 1_555
C12_2 C13_2 1_555 1_555
Cu8 O3_4 1_555 1_555
O11_2 C1_3 1_555 1_555
O2_3 C1_3 1_555 1_555
O3_5 C8_3 1_555 1_555
O16 C8_3 1_555 1_555
C1_3 C2_3 1_555 1_555
C2_3 C3_3 1_555 1_555
C3_3 H3_3 1_555 1_555
C4_3 C3_3 1_555 1_555
C5_3 C4_3 1_555 1_555
H4_3 C5_3 1_555 1_555
C6_3 C5_3 1_555 1_555
C7_3 C2_3 1_555 1_555
H5_3 C7_3 1_555 1_555
C8_3 C6_3 1_555 1_555
C9_3 C10_3 1_555 1_555
C10_3 H6_3 1_555 1_555
C11_3 C9_3 1_555 1_555
H7_3 C11_3 1_555 1_555
N1_3 C4_3 1_555 1_555
N2_3 N1_3 1_555 1_555
N3_3 N2_3 1_555 1_555
C12_3 C9_3 1_555 1_555
C13_3 N1_3 1_555 1_555
H8_3 C13_3 1_555 1_555
O6_3 C14_3 1_555 1_555
O13 C14_3 1_555 1_555
O14_2 C21_3 1_555 1_555
O9_3 C21_3 1_555 1_555
C14_3 C15_3 1_555 1_555
C15_3 C16_3 1_555 1_555
C16_3 H9_3 1_555 1_555
C17_3 C16_3 1_555 1_555
C18_3 C17_3 1_555 1_555
H10_3 C18_3 1_555 1_555
C19_3 C18_3 1_555 1_555
C20_3 C15_3 1_555 1_555
H11_3 C20_3 1_555 1_555
C21_3 C19_3 1_555 1_555
C22_3 C23_3 1_555 1_555
C23_3 C10_3 1_555 1_555
H12_3 C23_3 1_555 1_555
C24_3 C11_3 1_555 1_555
H13_3 C24_3 1_555 1_555
N4_3 C17_3 1_555 1_555
N5_3 N4_3 1_555 1_555
N6_3 N5_3 1_555 1_555
C25_3 C22_3 1_555 1_555
C26_3 N4_3 1_555 1_555
H14_3 C26_3 1_555 1_555
Cu5 O9_3 1_555 1_555
C6_3 C7_3 1_555 1_555
N3_3 C12_3 1_555 1_555
C12_3 C13_3 1_555 1_555
C19_3 C20_3 1_555 1_555
C22_3 C24_3 1_555 1_555
N6_3 C25_3 1_555 1_555
C25_3 C26_3 1_555 1_555
Cu5 O3_6 1_555 1_555
O5_2 Cu5 1_555 1_555
H1_2 O5_2 1_555 1_555
H2_2 O5_2 1_555 1_555
O10_3 Cu8 1_555 1_555
H15_3 O10_3 1_555 1_555
H16_3 O10_3 1_555 1_555
O5_3 Cu7 1_555 1_555
H1_3 O5_3 1_555 1_555
H2_3 O5_3 1_555 1_555

#END
