
###############################################################################
#
# This file contains modified crystal structure data generated from the
# MOF subset of the Cambridge Structural Database (CSD) v543 
# hosted by the Cambridge Crystallographic Data Centre (CCDC).
#
# This work is licensed under the Creative Commons
# Attribution-NonCommercial-ShareAlike 4.0 International License.
# To view a copy of this license, visit
# http://creativecommons.org/licenses/by-nc-sa/4.0/
# or send a letter to
# Creative Commons, PO Box 1866, Mountain View, CA 94042, USA.
#
# CIF created using the CSD Python API on 29 September 2022
# The structure has been converted into the P1 space group
# The structure has a 3D framework
# The original CSD entry MIXGAE is in the cubic crystal system
# The framework has been calculated to contain at least 10.0% void space
# The void calculation uses a probe of radius 1.32A, grid spacing 0.4
#
###############################################################################

data_MIXGAE
_chemical_formula_moiety         '(C480 H477 Cu124 N480 O80)n'
_symmetry_cell_setting           triclinic
_symmetry_space_group_name_H-M   'P 1'
_symmetry_Int_Tables_number      1
_space_group_name_Hall           'P 1'
loop_
_symmetry_equiv_pos_site_id
_symmetry_equiv_pos_as_xyz
1 x,y,z
_cell_length_a                   31.272(4)
_cell_length_b                   31.272(4)
_cell_length_c                   31.272(4)
_cell_angle_alpha                90
_cell_angle_beta                 90
_cell_angle_gamma                90
_cell_volume                     30582.1
loop_
_atom_site_label
_atom_site_type_symbol
_atom_site_fract_x
_atom_site_fract_y
_atom_site_fract_z
Cu2 Cu 0.5000 0.0000 0.5000
Cu4 Cu 0.6250 -0.0000 0.7500
Cu5 Cu 0.49729(2) 0.06761(2) 0.57219(2)
O2 O 0.50957(11) 0.00726(10) 0.56525(12)
N6 N 0.58884(10) 0.01410(9) 0.69880(10)
N7 N 0.57205(10) 0.01737(11) 0.62798(11)
N8 N 0.50976(11) 0.06357(10) 0.63438(12)
N9 N 0.49200(12) 0.08230(12) 0.70649(13)
N10 N 0.53350(14) 0.06157(12) 0.76425(12)
H7 H 0.5092 0.0619 0.7777
H8 H 0.5476 0.0389 0.7717
C6 C 0.54290(12) 0.04136(11) 0.65034(13)
C7 C 0.59797(12) 0.00173(12) 0.65915(12)
C8 C 0.55286(12) 0.03958(11) 0.69320(13)
C9 C 0.52692(13) 0.06066(12) 0.72253(14)
C10 C 0.48588(14) 0.08266(14) 0.66528(16)
H10 H 0.4622 0.0979 0.6558
Cu6 Cu 0.2500 0.1250 0.5000
O3 O 0.43475(12) 0.00957(11) 0.49274(10)
N11 N 0.30120(10) 0.08884(10) 0.48590(9)
N12 N 0.37202(11) 0.07205(10) 0.48263(11)
N13 N 0.36562(12) 0.00976(11) 0.43643(10)
N15 N 0.23575(12) 0.03350(14) 0.43843(12)
H12 H 0.2223 0.0092 0.4381
H13 H 0.2283 0.0476 0.4611
C11 C 0.34966(13) 0.04290(12) 0.45864(11)
C12 C 0.34085(12) 0.09797(12) 0.49827(12)
H14 H 0.3469 0.1207 0.5165
C13 C 0.30680(13) 0.05286(12) 0.46042(11)
C14 C 0.27747(14) 0.02692(13) 0.43934(12)
Cu10 Cu 0.43239(2) 0.07219(2) 0.49729(2)
O5 O 0.49274(10) 0.06525(12) 0.50957(11)
H21 H 0.5123 0.0838 0.4936
N21 N 0.48590(9) 0.19880(10) 0.58884(10)
N22 N 0.48263(11) 0.12798(11) 0.57205(10)
N23 N 0.43643(10) 0.13438(12) 0.50976(11)
N24 N 0.41770(12) 0.20649(13) 0.49200(12)
N25 N 0.43843(12) 0.26425(12) 0.53350(14)
H22 H 0.4381 0.2777 0.5092
H23 H 0.4611 0.2717 0.5476
C21 C 0.45864(11) 0.15034(13) 0.54290(12)
C22 C 0.49827(12) 0.15915(12) 0.59797(12)
H24 H 0.5165 0.1531 0.6207
C23 C 0.46042(11) 0.19320(13) 0.55286(12)
C24 C 0.43934(12) 0.22253(14) 0.52692(13)
C25 C 0.41734(14) 0.16528(16) 0.48588(14)
H25 H 0.4021 0.1558 0.4622
H26 H 0.5064 0.0123 0.4162
H29 H 0.3793 0.0165 0.3469
Cu12 Cu 0.57219(2) 0.00271(2) 0.56761(2)
H31 H 0.5838 0.0064 0.4877
N34 N 0.70649(13) 0.00800(12) 0.58230(12)
C35 C 0.66528(16) 0.01412(14) 0.58266(14)
H35 H 0.6558 0.0378 0.5979
N50 N 0.28350(14) 0.01425(12) 0.18843(12)
H47 H 0.2592 0.0277 0.1881
H48 H 0.2976 0.0217 0.2111
Cu17 Cu 0.18239(2) 0.25271(2) 0.32219(2)
O12 O 0.24274(10) 0.24043(11) 0.31525(12)
H56 H 0.2623 0.2564 0.3338
N56 N 0.23590(9) 0.16116(10) 0.44880(10)
N57 N 0.23263(11) 0.17795(10) 0.37798(11)
N58 N 0.18643(10) 0.24024(11) 0.38438(12)
N59 N 0.16770(12) 0.25800(12) 0.45649(13)
N60 N 0.18843(12) 0.21650(14) 0.51425(12)
H57 H 0.1881 0.2408 0.5277
H58 H 0.2111 0.2024 0.5217
C56 C 0.20864(11) 0.20710(12) 0.40034(13)
C57 C 0.24827(12) 0.15203(12) 0.40915(12)
H59 H 0.2665 0.1293 0.4031
C58 C 0.21042(11) 0.19714(12) 0.44320(13)
C59 C 0.18934(12) 0.22308(13) 0.47253(14)
C60 C 0.16734(14) 0.26412(14) 0.41528(16)
H60 H 0.1521 0.2878 0.4058
Cu18 Cu 0.5000 0.2500 0.6250
Cu20 Cu 0.3750 0.0000 0.2500
Cu22 Cu 0.2500 0.2500 0.2500
Cu25 Cu 0.24729(2) 0.17781(2) 0.31761(2)
O15 O 0.18475(12) 0.25726(10) 0.25957(11)
N62 N 0.19880(10) 0.08884(10) 0.51410(9)
N63 N 0.66116(10) 0.05120(10) 0.76410(9)
N64 N 0.26410(9) 0.16116(10) 0.55120(10)
N66 N 0.12202(11) 0.26737(11) 0.32205(10)
Cu1 Cu 0.5000 0.7500 0.3750
Cu2_2 Cu 0.5000 1.0000 0.5000
Cu3 Cu 0.56761(2) 0.92781(2) 0.50271(2)
O1 O 0.50726(10) 0.93475(12) 0.49043(11)
H1 H 0.4877 0.9162 0.5064
N1 N 0.51410(9) 0.80120(10) 0.41116(10)
N2 N 0.51737(11) 0.87202(11) 0.42795(10)
N3 N 0.56357(10) 0.86562(12) 0.49024(11)
N4 N 0.58230(12) 0.79351(13) 0.50800(12)
N5 N 0.56157(12) 0.73575(12) 0.46650(14)
H2 H 0.5619 0.7223 0.4908
H3 H 0.5389 0.7283 0.4524
C1 C 0.54136(11) 0.84966(13) 0.45710(12)
C2 C 0.50173(12) 0.84085(12) 0.40203(12)
H4 H 0.4835 0.8469 0.3793
C3 C 0.53958(11) 0.80680(13) 0.44714(12)
C4 C 0.56066(12) 0.77747(14) 0.47308(13)
C5 C 0.58266(14) 0.83472(16) 0.51412(14)
H5 H 0.5979 0.8442 0.5378
Cu4_2 Cu 0.6250 1.0000 0.7500
H6 H 0.4936 0.9877 0.5838
H9 H 0.6207 0.9835 0.6531
Cu7 Cu 0.42781(2) 0.99729(2) 0.43239(2)
H11 H 0.4162 0.9936 0.5123
N14 N 0.29351(13) 0.99200(12) 0.41770(12)
C15 C 0.33472(16) 0.98588(14) 0.41734(14)
H15 H 0.3442 0.9622 0.4021
Cu8 Cu 0.5000 0.5000 0.5000
Cu9 Cu 0.43239(2) 0.57219(2) 0.50271(2)
O4 O 0.49274(10) 0.56525(12) 0.49043(11)
H16 H 0.5123 0.5838 0.5064
N16 N 0.48590(9) 0.69880(10) 0.41116(10)
N17 N 0.48263(11) 0.62798(11) 0.42795(10)
N18 N 0.43643(10) 0.63438(12) 0.49024(11)
N19 N 0.41770(12) 0.70649(13) 0.50800(12)
N20 N 0.43843(12) 0.76425(12) 0.46650(14)
H17 H 0.4381 0.7777 0.4908
H18 H 0.4611 0.7717 0.4524
C16 C 0.45864(11) 0.65034(13) 0.45710(12)
C17 C 0.49827(12) 0.65915(12) 0.40203(12)
H19 H 0.5165 0.6531 0.3793
C18 C 0.46042(11) 0.69320(13) 0.44714(12)
C19 C 0.43934(12) 0.72253(14) 0.47308(13)
C20 C 0.41734(14) 0.66528(16) 0.51412(14)
H20 H 0.4021 0.6558 0.5378
Cu11 Cu 0.50271(2) 0.93239(2) 0.42781(2)
O6 O 0.49043(11) 0.99274(10) 0.43475(12)
N26 N 0.41116(10) 0.98590(9) 0.30120(10)
N27 N 0.42795(10) 0.98263(11) 0.37202(11)
N28 N 0.49024(11) 0.93643(10) 0.36562(12)
N29 N 0.50800(12) 0.91770(12) 0.29351(13)
N30 N 0.46650(14) 0.93843(12) 0.23575(12)
H27 H 0.4908 0.9381 0.2223
H28 H 0.4524 0.9611 0.2283
C26 C 0.45710(12) 0.95864(11) 0.34966(13)
C27 C 0.40203(12) 0.99827(12) 0.34085(12)
C28 C 0.44714(12) 0.96042(11) 0.30680(13)
C29 C 0.47308(13) 0.93934(12) 0.27747(14)
C30 C 0.51412(14) 0.91734(14) 0.33472(16)
H30 H 0.5378 0.9021 0.3442
O7 O 0.56525(12) 0.99043(11) 0.50726(10)
N31 N 0.69880(10) 0.91116(10) 0.51410(9)
N32 N 0.62798(11) 0.92795(10) 0.51737(11)
N33 N 0.63438(12) 0.99024(11) 0.56357(10)
N35 N 0.76425(12) 0.96650(14) 0.56157(12)
H32 H 0.7777 0.9908 0.5619
H33 H 0.7717 0.9524 0.5389
C31 C 0.65034(13) 0.95710(12) 0.54136(11)
C32 C 0.65915(12) 0.90203(12) 0.50173(12)
H34 H 0.6531 0.8793 0.4835
C33 C 0.69320(13) 0.94714(12) 0.53958(11)
C34 C 0.72253(14) 0.97308(13) 0.56066(12)
Cu13 Cu 0.67781(2) 0.68239(2) 0.24729(2)
O8 O 0.68475(12) 0.74274(10) 0.25957(11)
H36 H 0.6662 0.7623 0.2436
N36 N 0.55120(10) 0.73590(9) 0.33884(10)
N37 N 0.62202(11) 0.73263(11) 0.32205(10)
N38 N 0.61562(12) 0.68643(10) 0.25976(11)
N39 N 0.54351(13) 0.66770(12) 0.24200(12)
N40 N 0.48575(12) 0.68843(12) 0.28350(14)
H37 H 0.4723 0.6881 0.2592
H38 H 0.4783 0.7111 0.2976
C36 C 0.59966(13) 0.70864(11) 0.29290(12)
C37 C 0.59085(12) 0.74827(12) 0.34797(12)
H39 H 0.5969 0.7665 0.3707
C38 C 0.55680(13) 0.71042(11) 0.30286(12)
C39 C 0.52747(14) 0.68934(12) 0.27692(13)
C40 C 0.58472(16) 0.66734(14) 0.23588(14)
H40 H 0.5942 0.6521 0.2122
Cu14 Cu 0.32219(2) 0.81761(2) 0.24729(2)
O9 O 0.31525(12) 0.75726(10) 0.25957(11)
H41 H 0.3338 0.7377 0.2436
N41 N 0.44880(10) 0.76410(9) 0.33884(10)
N42 N 0.37798(11) 0.76737(11) 0.32205(10)
N43 N 0.38438(12) 0.81357(10) 0.25976(11)
N44 N 0.45649(13) 0.83230(12) 0.24200(12)
N45 N 0.51425(12) 0.81157(12) 0.28350(14)
H42 H 0.5277 0.8119 0.2592
H43 H 0.5217 0.7889 0.2976
C41 C 0.40034(13) 0.79136(11) 0.29290(12)
C42 C 0.40915(12) 0.75173(12) 0.34797(12)
H44 H 0.4031 0.7335 0.3707
C43 C 0.44320(13) 0.78958(11) 0.30286(12)
C44 C 0.47253(14) 0.81066(12) 0.27692(13)
C45 C 0.41528(16) 0.83266(14) 0.23588(14)
H45 H 0.4058 0.8479 0.2122
Cu15 Cu 0.24729(2) 0.82219(2) 0.18239(2)
O10 O 0.25957(11) 0.81525(12) 0.24274(10)
H46 H 0.2436 0.8338 0.2623
N46 N 0.33884(10) 0.94880(10) 0.23590(9)
N47 N 0.32205(10) 0.87798(11) 0.23263(11)
N48 N 0.25976(11) 0.88438(12) 0.18643(10)
N49 N 0.24200(12) 0.95649(13) 0.16770(12)
C46 C 0.29290(12) 0.90034(13) 0.20864(11)
C47 C 0.34797(12) 0.90915(12) 0.24827(12)
H49 H 0.3707 0.9031 0.2665
C48 C 0.30286(12) 0.94320(13) 0.21042(11)
C49 C 0.27692(13) 0.97253(14) 0.18934(12)
C50 C 0.23588(14) 0.91528(16) 0.16734(14)
H50 H 0.2122 0.9058 0.1521
Cu16 Cu 0.68239(2) 0.74729(2) 0.32219(2)
O11 O 0.74274(10) 0.75957(11) 0.31525(12)
H51 H 0.7623 0.7436 0.3338
N51 N 0.73590(9) 0.83884(10) 0.44880(10)
N52 N 0.73263(11) 0.82205(10) 0.37798(11)
N53 N 0.68643(10) 0.75976(11) 0.38438(12)
N54 N 0.66770(12) 0.74200(12) 0.45649(13)
N55 N 0.68843(12) 0.78350(14) 0.51425(12)
H52 H 0.6881 0.7592 0.5277
H53 H 0.7111 0.7976 0.5217
C51 C 0.70864(11) 0.79290(12) 0.40034(13)
C52 C 0.74827(12) 0.84797(12) 0.40915(12)
H54 H 0.7665 0.8707 0.4031
C53 C 0.71042(11) 0.80286(12) 0.44320(13)
C54 C 0.68934(12) 0.77692(13) 0.47253(14)
C55 C 0.66734(14) 0.73588(14) 0.41528(16)
H55 H 0.6521 0.7122 0.4058
Cu19 Cu 0.7500 0.8750 0.5000
Cu20_2 Cu 0.3750 1.0000 0.2500
Cu21 Cu 0.2500 0.7500 0.2500
Cu23 Cu 0.7500 0.7500 0.2500
Cu24 Cu 0.31761(2) 0.75271(2) 0.32219(2)
Cu26 Cu 0.74729(2) 0.82219(2) 0.31761(2)
Cu27 Cu 0.49729(2) 0.56761(2) 0.42781(2)
O13 O 0.49043(11) 0.49274(10) 0.56525(12)
O14 O 0.56525(12) 0.49043(11) 0.49274(10)
O16 O 0.74043(11) 0.68475(12) 0.24274(10)
O17 O 0.50726(10) 0.43475(12) 0.50957(11)
O18 O 0.50957(11) 0.50726(10) 0.43475(12)
O19 O 0.43475(12) 0.50957(11) 0.50726(10)
O20 O 0.24274(10) 0.75957(11) 0.18475(12)
N61 N 0.58884(10) 0.98590(9) 0.80120(10)
N65 N 0.66116(10) 0.94880(10) 0.73590(9)
N67 N 0.67795(10) 0.62202(11) 0.23263(11)
N68 N 0.37202(11) 0.57205(10) 0.51737(11)
N69 N 0.23263(11) 0.82205(10) 0.12202(11)
Cu2_3 Cu 0.0000 0.0000 0.0000
H1_2 H 0.0123 0.0838 0.0064
H6_2 H 0.0064 0.0123 0.0838
H11_2 H 0.0838 0.0064 0.0123
Cu8_2 Cu -0.0000 0.5000 0.0000
Cu9_2 Cu 0.06761(2) 0.42781(2) 0.00271(2)
N19_2 N 0.08230(12) 0.29351(13) 0.00800(12)
C20_2 C 0.08266(14) 0.33472(16) 0.01412(14)
H20_2 H 0.0979 0.3442 0.0378
O13_2 O 0.00957(11) 0.50726(10) 0.06525(12)
O19_2 O 0.06525(12) 0.49043(11) 0.00726(10)
N68_2 N 0.12798(11) 0.42795(10) 0.01737(11)
Cu1_2 Cu 0.0000 0.2500 0.8750
Cu2_4 Cu 0.0000 0.0000 1.0000
H4_2 H 0.0165 0.1531 0.8793
Cu7_2 Cu 0.07219(2) 0.00271(2) 0.93239(2)
N14_2 N 0.20649(13) 0.00800(12) 0.91770(12)
C15_2 C 0.16528(16) 0.01412(14) 0.91734(14)
H15_2 H 0.1558 0.0378 0.9021
Cu8_3 Cu -0.0000 0.5000 1.0000
O4_2 O 0.00726(10) 0.43475(12) 0.99043(11)
N16_2 N 0.01410(9) 0.30120(10) 0.91116(10)
N17_2 N 0.01737(11) 0.37202(11) 0.92795(10)
N18_2 N 0.06357(10) 0.36562(12) 0.99024(11)
N20_2 N 0.06157(12) 0.23575(12) 0.96650(14)
H17_2 H 0.0619 0.2223 0.9908
H18_2 H 0.0389 0.2283 0.9524
C16_2 C 0.04136(11) 0.34966(13) 0.95710(12)
C17_2 C 0.00173(12) 0.34085(12) 0.90203(12)
C18_2 C 0.03958(11) 0.30680(13) 0.94714(12)
C19_2 C 0.06066(12) 0.27747(14) 0.97308(13)
O6_2 O 0.00957(11) 0.00726(10) 0.93475(12)
N26_2 N 0.08884(10) 0.01410(9) 0.80120(10)
N27_2 N 0.07205(10) 0.01737(11) 0.87202(11)
N28_2 N 0.00976(11) 0.06357(10) 0.86562(12)
N30_2 N 0.03350(14) 0.06157(12) 0.73575(12)
H27_2 H 0.0092 0.0619 0.7223
H28_2 H 0.0476 0.0389 0.7283
C26_2 C 0.04290(12) 0.04136(11) 0.84966(13)
C27_2 C 0.09797(12) 0.00173(12) 0.84085(12)
C28_2 C 0.05286(12) 0.03958(11) 0.80680(13)
C29_2 C 0.02692(13) 0.06066(12) 0.77747(14)
N40_2 N 0.01425(12) 0.31157(12) 0.78350(14)
H37_2 H 0.0277 0.3119 0.7592
H38_2 H 0.0217 0.2889 0.7976
Cu14_2 Cu 0.17781(2) 0.18239(2) 0.74729(2)
O9_2 O 0.18475(12) 0.24274(10) 0.75957(11)
H41_2 H 0.1662 0.2623 0.7436
N41_2 N 0.05120(10) 0.23590(9) 0.83884(10)
N42_2 N 0.12202(11) 0.23263(11) 0.82205(10)
N43_2 N 0.11562(12) 0.18643(10) 0.75976(11)
N44_2 N 0.04351(13) 0.16770(12) 0.74200(12)
C41_2 C 0.09966(13) 0.20864(11) 0.79290(12)
C42_2 C 0.09085(12) 0.24827(12) 0.84797(12)
H44_2 H 0.0969 0.2665 0.8707
C43_2 C 0.05680(13) 0.21042(11) 0.80286(12)
C44_2 C 0.02747(14) 0.18934(12) 0.77692(13)
C45_2 C 0.08472(16) 0.16734(14) 0.73588(14)
H45_2 H 0.0942 0.1521 0.7122
Cu15_2 Cu 0.25271(2) 0.17781(2) 0.68239(2)
O10_2 O 0.24043(11) 0.18475(12) 0.74274(10)
H46_2 H 0.2564 0.1662 0.7623
N46_2 N 0.16116(10) 0.05120(10) 0.73590(9)
N47_2 N 0.17795(10) 0.12202(11) 0.73263(11)
N48_2 N 0.24024(11) 0.11562(12) 0.68643(10)
N49_2 N 0.25800(12) 0.04351(13) 0.66770(12)
C46_2 C 0.20710(12) 0.09966(13) 0.70864(11)
C47_2 C 0.15203(12) 0.09085(12) 0.74827(12)
H49_2 H 0.1293 0.0969 0.7665
C48_2 C 0.19714(12) 0.05680(13) 0.71042(11)
C49_2 C 0.22308(13) 0.02747(14) 0.68934(12)
C50_2 C 0.26412(14) 0.08472(16) 0.66734(14)
H50_2 H 0.2878 0.0942 0.6521
Cu20_3 Cu 0.1250 -0.0000 0.7500
Cu21_2 Cu 0.2500 0.2500 0.7500
Cu24_2 Cu 0.18239(2) 0.24729(2) 0.82219(2)
Cu27_2 Cu 0.00271(2) 0.43239(2) 0.92781(2)
O20_2 O 0.25726(10) 0.24043(11) 0.68475(12)
N69_2 N 0.26737(11) 0.17795(10) 0.62202(11)
Cu2_5 Cu 0.0000 1.0000 0.0000
Cu5_2 Cu 0.00271(2) 0.93239(2) 0.07219(2)
N9_2 N 0.00800(12) 0.91770(12) 0.20649(13)
C10_2 C 0.01412(14) 0.91734(14) 0.16528(16)
H10_2 H 0.0378 0.9021 0.1558
Cu6_2 Cu 0.2500 0.8750 0.0000
H14_2 H 0.1531 0.8793 0.0165
O5_2 O 0.00726(10) 0.93475(12) 0.00957(11)
N21_2 N 0.01410(9) 0.80120(10) 0.08884(10)
N22_2 N 0.01737(11) 0.87202(11) 0.07205(10)
N23_2 N 0.06357(10) 0.86562(12) 0.00976(11)
N25_2 N 0.06157(12) 0.73575(12) 0.03350(14)
H22_2 H 0.0619 0.7223 0.0092
H23_2 H 0.0389 0.7283 0.0476
C21_2 C 0.04136(11) 0.84966(13) 0.04290(12)
C22_2 C 0.00173(12) 0.84085(12) 0.09797(12)
C23_2 C 0.03958(11) 0.80680(13) 0.05286(12)
C24_2 C 0.06066(12) 0.77747(14) 0.02692(13)
N60_2 N 0.31157(12) 0.78350(14) 0.01425(12)
H57_2 H 0.3119 0.7592 0.0277
H58_2 H 0.2889 0.7976 0.0217
Cu18_2 Cu 0.0000 0.7500 0.1250
N62_2 N 0.30120(10) 0.91116(10) 0.01410(9)
N64_2 N 0.23590(9) 0.83884(10) 0.05120(10)
Cu2_6 Cu 0.0000 1.0000 1.0000
Cu6_3 Cu 0.2500 0.8750 1.0000
O3_2 O 0.06525(12) 0.99043(11) 0.99274(10)
N11_2 N 0.19880(10) 0.91116(10) 0.98590(9)
N12_2 N 0.12798(11) 0.92795(10) 0.98263(11)
N13_2 N 0.13438(12) 0.99024(11) 0.93643(10)
N15_2 N 0.26425(12) 0.96650(14) 0.93843(12)
H12_2 H 0.2777 0.9908 0.9381
H13_2 H 0.2717 0.9524 0.9611
C11_2 C 0.15034(13) 0.95710(12) 0.95864(11)
C12_2 C 0.15915(12) 0.90203(12) 0.99827(12)
C13_2 C 0.19320(13) 0.94714(12) 0.96042(11)
C14_2 C 0.22253(14) 0.97308(13) 0.93934(12)
Cu10_2 Cu 0.06761(2) 0.92781(2) 0.99729(2)
N24_2 N 0.08230(12) 0.79351(13) 0.99200(12)
C25_2 C 0.08266(14) 0.83472(16) 0.98588(14)
H25_2 H 0.0979 0.8442 0.9622
H29_2 H 0.1207 0.9835 0.8469
N50_2 N 0.21650(14) 0.98575(12) 0.68843(12)
H47_2 H 0.2408 0.9723 0.6881
H48_2 H 0.2024 0.9783 0.7111
Cu17_2 Cu 0.31761(2) 0.74729(2) 0.82219(2)
O12_2 O 0.25726(10) 0.75957(11) 0.81525(12)
H56_2 H 0.2377 0.7436 0.8338
N56_2 N 0.26410(9) 0.83884(10) 0.94880(10)
N57_2 N 0.26737(11) 0.82205(10) 0.87798(11)
N58_2 N 0.31357(10) 0.75976(11) 0.88438(12)
N59_2 N 0.33230(12) 0.74200(12) 0.95649(13)
C56_2 C 0.29136(11) 0.79290(12) 0.90034(13)
C57_2 C 0.25173(12) 0.84797(12) 0.90915(12)
H59_2 H 0.2335 0.8707 0.9031
C58_2 C 0.28958(11) 0.80286(12) 0.94320(13)
C59_2 C 0.31066(12) 0.77692(13) 0.97253(14)
C60_2 C 0.33266(14) 0.73588(14) 0.91528(16)
H60_2 H 0.3479 0.7122 0.9058
Cu20_4 Cu 0.1250 1.0000 0.7500
Cu22_2 Cu 0.2500 0.7500 0.7500
Cu25_2 Cu 0.25271(2) 0.82219(2) 0.81761(2)
O15_2 O 0.31525(12) 0.74274(10) 0.75957(11)
N66_2 N 0.37798(11) 0.73263(11) 0.82205(10)
Cu2_7 Cu 1.0000 0.0000 0.0000
Cu3_2 Cu 0.93239(2) 0.07219(2) 0.00271(2)
N4_2 N 0.91770(12) 0.20649(13) 0.00800(12)
C5_2 C 0.91734(14) 0.16528(16) 0.01412(14)
H5_2 H 0.9021 0.1558 0.0378
Cu4_3 Cu 0.8750 0.0000 0.2500
H9_2 H 0.8793 0.0165 0.1531
Cu8_4 Cu 1.0000 0.5000 0.0000
H16_2 H 0.9877 0.4162 0.0064
O7_2 O 0.93475(12) 0.00957(11) 0.00726(10)
N31_2 N 0.80120(10) 0.08884(10) 0.01410(9)
N32_2 N 0.87202(11) 0.07205(10) 0.01737(11)
N33_2 N 0.86562(12) 0.00976(11) 0.06357(10)
N35_2 N 0.73575(12) 0.03350(14) 0.06157(12)
H32_2 H 0.7223 0.0092 0.0619
H33_2 H 0.7283 0.0476 0.0389
C31_2 C 0.84966(13) 0.04290(12) 0.04136(11)
C32_2 C 0.84085(12) 0.09797(12) 0.00173(12)
C33_2 C 0.80680(13) 0.05286(12) 0.03958(11)
C34_2 C 0.77747(14) 0.02692(13) 0.06066(12)
N55_2 N 0.81157(12) 0.21650(14) 0.01425(12)
H52_2 H 0.8119 0.2408 0.0277
H53_2 H 0.7889 0.2024 0.0217
Cu19_2 Cu 0.7500 0.1250 0.0000
O17_2 O 0.99274(10) 0.56525(12) 0.00957(11)
N61_2 N 0.91116(10) 0.01410(9) 0.30120(10)
N65_2 N 0.83884(10) 0.05120(10) 0.23590(9)
Cu1_3 Cu 1.0000 0.2500 0.8750
Cu2_8 Cu 1.0000 0.0000 1.0000
O1_2 O 0.99274(10) 0.06525(12) 0.99043(11)
N1_2 N 0.98590(9) 0.19880(10) 0.91116(10)
N2_2 N 0.98263(11) 0.12798(11) 0.92795(10)
N3_2 N 0.93643(10) 0.13438(12) 0.99024(11)
N5_2 N 0.93843(12) 0.26425(12) 0.96650(14)
H2_2 H 0.9381 0.2777 0.9908
H3_2 H 0.9611 0.2717 0.9524
C1_2 C 0.95864(11) 0.15034(13) 0.95710(12)
C2_2 C 0.99827(12) 0.15915(12) 0.90203(12)
C3_2 C 0.96042(11) 0.19320(13) 0.94714(12)
C4_2 C 0.93934(12) 0.22253(14) 0.97308(13)
Cu8_5 Cu 1.0000 0.5000 1.0000
H19_2 H 0.9835 0.3469 0.8793
Cu11_2 Cu 0.99729(2) 0.06761(2) 0.92781(2)
N29_2 N 0.99200(12) 0.08230(12) 0.79351(13)
C30_2 C 0.98588(14) 0.08266(14) 0.83472(16)
H30_2 H 0.9622 0.0979 0.8442
H34_2 H 0.8469 0.1207 0.9835
Cu13_2 Cu 0.82219(2) 0.31761(2) 0.74729(2)
O8_2 O 0.81525(12) 0.25726(10) 0.75957(11)
H36_2 H 0.8338 0.2377 0.7436
N36_2 N 0.94880(10) 0.26410(9) 0.83884(10)
N37_2 N 0.87798(11) 0.26737(11) 0.82205(10)
N38_2 N 0.88438(12) 0.31357(10) 0.75976(11)
N39_2 N 0.95649(13) 0.33230(12) 0.74200(12)
C36_2 C 0.90034(13) 0.29136(11) 0.79290(12)
C37_2 C 0.90915(12) 0.25173(12) 0.84797(12)
H39_2 H 0.9031 0.2335 0.8707
C38_2 C 0.94320(13) 0.28958(11) 0.80286(12)
C39_2 C 0.97253(14) 0.31066(12) 0.77692(13)
C40_2 C 0.91528(16) 0.33266(14) 0.73588(14)
H40_2 H 0.9058 0.3479 0.7122
N45_2 N 0.98575(12) 0.18843(12) 0.78350(14)
H42_2 H 0.9723 0.1881 0.7592
H43_2 H 0.9783 0.2111 0.7976
Cu16_2 Cu 0.81761(2) 0.25271(2) 0.82219(2)
O11_2 O 0.75726(10) 0.24043(11) 0.81525(12)
H51_2 H 0.7377 0.2564 0.8338
N51_2 N 0.76410(9) 0.16116(10) 0.94880(10)
N52_2 N 0.76737(11) 0.17795(10) 0.87798(11)
N53_2 N 0.81357(10) 0.24024(11) 0.88438(12)
N54_2 N 0.83230(12) 0.25800(12) 0.95649(13)
C51_2 C 0.79136(11) 0.20710(12) 0.90034(13)
C52_2 C 0.75173(12) 0.15203(12) 0.90915(12)
H54_2 H 0.7335 0.1293 0.9031
C53_2 C 0.78958(11) 0.19714(12) 0.94320(13)
C54_2 C 0.81066(12) 0.22308(13) 0.97253(14)
C55_2 C 0.83266(14) 0.26412(14) 0.91528(16)
H55_2 H 0.8479 0.2878 0.9058
Cu19_3 Cu 0.7500 0.1250 1.0000
Cu23_2 Cu 0.7500 0.2500 0.7500
Cu26_2 Cu 0.75271(2) 0.17781(2) 0.81761(2)
O14_2 O 0.93475(12) 0.50957(11) 0.99274(10)
O16_2 O 0.75957(11) 0.31525(12) 0.74274(10)
O18_2 O 0.99043(11) 0.49274(10) 0.93475(12)
N67_2 N 0.82205(10) 0.37798(11) 0.73263(11)
Cu2_9 Cu 1.0000 1.0000 0.0000
Cu4_4 Cu 0.8750 1.0000 0.2500
O2_2 O 0.99043(11) 0.99274(10) 0.06525(12)
N6_2 N 0.91116(10) 0.98590(9) 0.19880(10)
N7_2 N 0.92795(10) 0.98263(11) 0.12798(11)
N8_2 N 0.99024(11) 0.93643(10) 0.13438(12)
N10_2 N 0.96650(14) 0.93843(12) 0.26425(12)
H7_2 H 0.9908 0.9381 0.2777
H8_2 H 0.9524 0.9611 0.2717
C6_2 C 0.95710(12) 0.95864(11) 0.15034(13)
C7_2 C 0.90203(12) 0.99827(12) 0.15915(12)
C8_2 C 0.94714(12) 0.96042(11) 0.19320(13)
C9_2 C 0.97308(13) 0.93934(12) 0.22253(14)
H24_2 H 0.9835 0.8469 0.1207
Cu12_2 Cu 0.92781(2) 0.99729(2) 0.06761(2)
N34_2 N 0.79351(13) 0.99200(12) 0.08230(12)
C35_2 C 0.83472(16) 0.98588(14) 0.08266(14)
H35_2 H 0.8442 0.9622 0.0979
Cu18_3 Cu 1.0000 0.7500 0.1250
N63_2 N 0.83884(10) 0.94880(10) 0.26410(9)
Cu2_10 Cu 1.0000 1.0000 1.0000
H21_2 H 0.9877 0.9162 0.9936
H26_2 H 0.9936 0.9877 0.9162
H31_2 H 0.9162 0.9936 0.9877
Cu1_4 Cu 0.5000 0.2500 0.1250
Cu2_11 Cu 0.5000 0.5000 0.0000
O1_3 O 0.49274(10) 0.43475(12) 0.00957(11)
N1_3 N 0.48590(9) 0.30120(10) 0.08884(10)
N2_3 N 0.48263(11) 0.37202(11) 0.07205(10)
N3_3 N 0.43643(10) 0.36562(12) 0.00976(11)
N5_3 N 0.43843(12) 0.23575(12) 0.03350(14)
H2_3 H 0.4381 0.2223 0.0092
H3_3 H 0.4611 0.2283 0.0476
C1_3 C 0.45864(11) 0.34966(13) 0.04290(12)
C2_3 C 0.49827(12) 0.34085(12) 0.09797(12)
H4_3 H 0.5165 0.3469 0.1207
C3_3 C 0.46042(11) 0.30680(13) 0.05286(12)
C4_3 C 0.43934(12) 0.27747(14) 0.02692(13)
Cu6_4 Cu 0.7500 0.6250 0.0000
Cu7_3 Cu 0.57219(2) 0.49729(2) 0.06761(2)
O3_3 O 0.56525(12) 0.50957(11) 0.00726(10)
N11_3 N 0.69880(10) 0.58884(10) 0.01410(9)
N12_3 N 0.62798(11) 0.57205(10) 0.01737(11)
N13_3 N 0.63438(12) 0.50976(11) 0.06357(10)
N14_3 N 0.70649(13) 0.49200(12) 0.08230(12)
N15_3 N 0.76425(12) 0.53350(14) 0.06157(12)
H12_3 H 0.7777 0.5092 0.0619
H13_3 H 0.7717 0.5476 0.0389
C11_3 C 0.65034(13) 0.54290(12) 0.04136(11)
C12_3 C 0.65915(12) 0.59797(12) 0.00173(12)
C13_3 C 0.69320(13) 0.55286(12) 0.03958(11)
C14_3 C 0.72253(14) 0.52692(13) 0.06066(12)
C15_3 C 0.66528(16) 0.48588(14) 0.08266(14)
H15_3 H 0.6558 0.4622 0.0979
Cu8_6 Cu 0.5000 -0.0000 0.0000
O4_3 O 0.50726(10) 0.06525(12) 0.00957(11)
N16_3 N 0.51410(9) 0.19880(10) 0.08884(10)
N17_3 N 0.51737(11) 0.12798(11) 0.07205(10)
N18_3 N 0.56357(10) 0.13438(12) 0.00976(11)
N20_3 N 0.56157(12) 0.26425(12) 0.03350(14)
H17_3 H 0.5619 0.2777 0.0092
H18_3 H 0.5389 0.2717 0.0476
C16_3 C 0.54136(11) 0.15034(13) 0.04290(12)
C17_3 C 0.50173(12) 0.15915(12) 0.09797(12)
H19_3 H 0.4835 0.1531 0.1207
C18_3 C 0.53958(11) 0.19320(13) 0.05286(12)
C19_3 C 0.56066(12) 0.22253(14) 0.02692(13)
Cu10_3 Cu 0.56761(2) 0.57219(2) 0.00271(2)
H21_3 H 0.4877 0.5838 0.0064
N24_3 N 0.58230(12) 0.70649(13) 0.00800(12)
C25_3 C 0.58266(14) 0.66528(16) 0.01412(14)
H25_3 H 0.5979 0.6558 0.0378
Cu11_3 Cu 0.49729(2) 0.43239(2) 0.07219(2)
O6_3 O 0.50957(11) 0.49274(10) 0.06525(12)
H26_3 H 0.4936 0.5123 0.0838
N26_3 N 0.58884(10) 0.48590(9) 0.19880(10)
N27_3 N 0.57205(10) 0.48263(11) 0.12798(11)
N28_3 N 0.50976(11) 0.43643(10) 0.13438(12)
N29_3 N 0.49200(12) 0.41770(12) 0.20649(13)
N30_3 N 0.53350(14) 0.43843(12) 0.26425(12)
H27_3 H 0.5092 0.4381 0.2777
H28_3 H 0.5476 0.4611 0.2717
C26_3 C 0.54290(12) 0.45864(11) 0.15034(13)
C27_3 C 0.59797(12) 0.49827(12) 0.15915(12)
H29_3 H 0.6207 0.5165 0.1531
C28_3 C 0.55286(12) 0.46042(11) 0.19320(13)
C29_3 C 0.52692(13) 0.43934(12) 0.22253(14)
C30_3 C 0.48588(14) 0.41734(14) 0.16528(16)
H30_3 H 0.4622 0.4021 0.1558
H31_3 H 0.4162 0.5064 0.0123
H34_3 H 0.3469 0.3793 0.0165
Cu13_3 Cu 0.32219(2) 0.18239(2) 0.25271(2)
O8_3 O 0.31525(12) 0.24274(10) 0.24043(11)
H36_3 H 0.3338 0.2623 0.2564
N36_3 N 0.44880(10) 0.23590(9) 0.16116(10)
N37_3 N 0.37798(11) 0.23263(11) 0.17795(10)
N38_3 N 0.38438(12) 0.18643(10) 0.24024(11)
N39_3 N 0.45649(13) 0.16770(12) 0.25800(12)
N40_3 N 0.51425(12) 0.18843(12) 0.21650(14)
H37_3 H 0.5277 0.1881 0.2408
H38_3 H 0.5217 0.2111 0.2024
C36_3 C 0.40034(13) 0.20864(11) 0.20710(12)
C37_3 C 0.40915(12) 0.24827(12) 0.15203(12)
H39_3 H 0.4031 0.2665 0.1293
C38_3 C 0.44320(13) 0.21042(11) 0.19714(12)
C39_3 C 0.47253(14) 0.18934(12) 0.22308(13)
C40_3 C 0.41528(16) 0.16734(14) 0.26412(14)
H40_3 H 0.4058 0.1521 0.2878
Cu14_3 Cu 0.67781(2) 0.31761(2) 0.25271(2)
O9_3 O 0.68475(12) 0.25726(10) 0.24043(11)
H41_3 H 0.6662 0.2377 0.2564
N41_3 N 0.55120(10) 0.26410(9) 0.16116(10)
N42_3 N 0.62202(11) 0.26737(11) 0.17795(10)
N43_3 N 0.61562(12) 0.31357(10) 0.24024(11)
N44_3 N 0.54351(13) 0.33230(12) 0.25800(12)
N45_3 N 0.48575(12) 0.31157(12) 0.21650(14)
H42_3 H 0.4723 0.3119 0.2408
H43_3 H 0.4783 0.2889 0.2024
C41_3 C 0.59966(13) 0.29136(11) 0.20710(12)
C42_3 C 0.59085(12) 0.25173(12) 0.15203(12)
H44_3 H 0.5969 0.2335 0.1293
C43_3 C 0.55680(13) 0.28958(11) 0.19714(12)
C44_3 C 0.52747(14) 0.31066(12) 0.22308(13)
C45_3 C 0.58472(16) 0.33266(14) 0.26412(14)
H45_3 H 0.5942 0.3479 0.2878
Cu15_3 Cu 0.75271(2) 0.32219(2) 0.31761(2)
O10_3 O 0.74043(11) 0.31525(12) 0.25726(10)
H46_3 H 0.7564 0.3338 0.2377
N46_3 N 0.66116(10) 0.44880(10) 0.26410(9)
N47_3 N 0.67795(10) 0.37798(11) 0.26737(11)
N48_3 N 0.74024(11) 0.38438(12) 0.31357(10)
N49_3 N 0.75800(12) 0.45649(13) 0.33230(12)
N50_3 N 0.71650(14) 0.51425(12) 0.31157(12)
H47_3 H 0.7408 0.5277 0.3119
H48_3 H 0.7024 0.5217 0.2889
C46_3 C 0.70710(12) 0.40034(13) 0.29136(11)
C47_3 C 0.65203(12) 0.40915(12) 0.25173(12)
H49_3 H 0.6293 0.4031 0.2335
C48_3 C 0.69714(12) 0.44320(13) 0.28958(11)
C49_3 C 0.72308(13) 0.47253(14) 0.31066(12)
C50_3 C 0.76412(14) 0.41528(16) 0.33266(14)
H50_3 H 0.7878 0.4058 0.3479
Cu16_3 Cu 0.31761(2) 0.24729(2) 0.17781(2)
O11_3 O 0.25726(10) 0.25957(11) 0.18475(12)
H51_3 H 0.2377 0.2436 0.1662
N51_3 N 0.26410(9) 0.33884(10) 0.05120(10)
N52_3 N 0.26737(11) 0.32205(10) 0.12202(11)
N53_3 N 0.31357(10) 0.25976(11) 0.11562(12)
N54_3 N 0.33230(12) 0.24200(12) 0.04351(13)
C51_3 C 0.29136(11) 0.29290(12) 0.09966(13)
C52_3 C 0.25173(12) 0.34797(12) 0.09085(12)
H54_3 H 0.2335 0.3707 0.0969
C53_3 C 0.28958(11) 0.30286(12) 0.05680(13)
C54_3 C 0.31066(12) 0.27692(13) 0.02747(14)
C55_3 C 0.33266(14) 0.23588(14) 0.08472(16)
H55_3 H 0.3479 0.2122 0.0942
Cu17_3 Cu 0.81761(2) 0.75271(2) 0.17781(2)
O12_3 O 0.75726(10) 0.74043(11) 0.18475(12)
H56_3 H 0.7377 0.7564 0.1662
N56_3 N 0.76410(9) 0.66116(10) 0.05120(10)
N57_3 N 0.76737(11) 0.67795(10) 0.12202(11)
N58_3 N 0.81357(10) 0.74024(11) 0.11562(12)
N59_3 N 0.83230(12) 0.75800(12) 0.04351(13)
C56_3 C 0.79136(11) 0.70710(12) 0.09966(13)
C57_3 C 0.75173(12) 0.65203(12) 0.09085(12)
H59_3 H 0.7335 0.6293 0.0969
C58_3 C 0.78958(11) 0.69714(12) 0.05680(13)
C59_3 C 0.81066(12) 0.72308(13) 0.02747(14)
C60_3 C 0.83266(14) 0.76412(14) 0.08472(16)
H60_3 H 0.8479 0.7878 0.0942
Cu19_4 Cu 0.2500 0.3750 0.0000
Cu20_5 Cu 0.6250 0.5000 0.2500
Cu21_3 Cu 0.7500 0.2500 0.2500
Cu24_3 Cu 0.68239(2) 0.25271(2) 0.17781(2)
Cu25_3 Cu 0.75271(2) 0.67781(2) 0.18239(2)
Cu26_3 Cu 0.25271(2) 0.32219(2) 0.18239(2)
Cu27_3 Cu 0.50271(2) 0.06761(2) 0.07219(2)
O15_3 O 0.81525(12) 0.75726(10) 0.24043(11)
O16_3 O 0.25957(11) 0.18475(12) 0.25726(10)
O18_3 O 0.49043(11) 0.00726(10) 0.06525(12)
O20_3 O 0.75726(10) 0.25957(11) 0.31525(12)
N66_3 N 0.87798(11) 0.76737(11) 0.17795(10)
N67_3 N 0.32205(10) 0.12202(11) 0.26737(11)
N69_3 N 0.76737(11) 0.32205(10) 0.37798(11)
Cu2_12 Cu 0.5000 0.5000 1.0000
Cu3_3 Cu 0.43239(2) 0.42781(2) 0.99729(2)
H1_3 H 0.5123 0.4162 0.9936
N4_3 N 0.41770(12) 0.29351(13) 0.99200(12)
C5_3 C 0.41734(14) 0.33472(16) 0.98588(14)
H5_3 H 0.4021 0.3442 0.9622
Cu4_5 Cu 0.3750 0.5000 0.7500
Cu5_3 Cu 0.50271(2) 0.56761(2) 0.92781(2)
O2_3 O 0.49043(11) 0.50726(10) 0.93475(12)
H6_3 H 0.5064 0.4877 0.9162
N6_3 N 0.41116(10) 0.51410(9) 0.80120(10)
N7_3 N 0.42795(10) 0.51737(11) 0.87202(11)
N8_3 N 0.49024(11) 0.56357(10) 0.86562(12)
N9_3 N 0.50800(12) 0.58230(12) 0.79351(13)
N10_3 N 0.46650(14) 0.56157(12) 0.73575(12)
H7_3 H 0.4908 0.5619 0.7223
H8_3 H 0.4524 0.5389 0.7283
C6_3 C 0.45710(12) 0.54136(11) 0.84966(13)
C7_3 C 0.40203(12) 0.50173(12) 0.84085(12)
H9_3 H 0.3793 0.4835 0.8469
C8_3 C 0.44714(12) 0.53958(11) 0.80680(13)
C9_3 C 0.47308(13) 0.56066(12) 0.77747(14)
C10_3 C 0.51412(14) 0.58266(14) 0.83472(16)
H10_3 H 0.5378 0.5979 0.8442
Cu6_5 Cu 0.7500 0.6250 1.0000
H11_3 H 0.5838 0.4936 0.9877
H14_3 H 0.6531 0.6207 0.9835
Cu8_7 Cu 0.5000 -0.0000 1.0000
Cu9_3 Cu 0.56761(2) 0.07219(2) 0.99729(2)
H16_3 H 0.4877 0.0838 0.9936
N19_3 N 0.58230(12) 0.20649(13) 0.99200(12)
C20_3 C 0.58266(14) 0.16528(16) 0.98588(14)
H20_3 H 0.5979 0.1558 0.9622
O5_3 O 0.50726(10) 0.56525(12) 0.99043(11)
N21_3 N 0.51410(9) 0.69880(10) 0.91116(10)
N22_3 N 0.51737(11) 0.62798(11) 0.92795(10)
N23_3 N 0.56357(10) 0.63438(12) 0.99024(11)
N25_3 N 0.56157(12) 0.76425(12) 0.96650(14)
H22_3 H 0.5619 0.7777 0.9908
H23_3 H 0.5389 0.7717 0.9524
C21_3 C 0.54136(11) 0.65034(13) 0.95710(12)
C22_3 C 0.50173(12) 0.65915(12) 0.90203(12)
H24_3 H 0.4835 0.6531 0.8793
C23_3 C 0.53958(11) 0.69320(13) 0.94714(12)
C24_3 C 0.56066(12) 0.72253(14) 0.97308(13)
Cu12_3 Cu 0.42781(2) 0.50271(2) 0.93239(2)
O7_3 O 0.43475(12) 0.49043(11) 0.99274(10)
N31_3 N 0.30120(10) 0.41116(10) 0.98590(9)
N32_3 N 0.37202(11) 0.42795(10) 0.98263(11)
N33_3 N 0.36562(12) 0.49024(11) 0.93643(10)
N34_3 N 0.29351(13) 0.50800(12) 0.91770(12)
N35_3 N 0.23575(12) 0.46650(14) 0.93843(12)
H32_3 H 0.2223 0.4908 0.9381
H33_3 H 0.2283 0.4524 0.9611
C31_3 C 0.34966(13) 0.45710(12) 0.95864(11)
C32_3 C 0.34085(12) 0.40203(12) 0.99827(12)
C33_3 C 0.30680(13) 0.44714(12) 0.96042(11)
C34_3 C 0.27747(14) 0.47308(13) 0.93934(12)
C35_3 C 0.33472(16) 0.51412(14) 0.91734(14)
H35_3 H 0.3442 0.5378 0.9021
N55_3 N 0.31157(12) 0.28350(14) 0.98575(12)
H52_3 H 0.3119 0.2592 0.9723
H53_3 H 0.2889 0.2976 0.9783
N60_3 N 0.81157(12) 0.71650(14) 0.98575(12)
H57_3 H 0.8119 0.7408 0.9723
H58_3 H 0.7889 0.7024 0.9783
Cu18_4 Cu 0.5000 0.7500 0.8750
Cu19_5 Cu 0.2500 0.3750 1.0000
O19_3 O 0.56525(12) 0.00957(11) 0.99274(10)
N61_3 N 0.41116(10) 0.48590(9) 0.69880(10)
N62_3 N 0.80120(10) 0.58884(10) 0.98590(9)
N63_3 N 0.33884(10) 0.55120(10) 0.73590(9)
N64_3 N 0.73590(9) 0.66116(10) 0.94880(10)
N65_3 N 0.33884(10) 0.44880(10) 0.76410(9)
N68_3 N 0.62798(11) 0.07205(10) 0.98263(11)
Cu8_8 Cu 0.5000 1.0000 0.0000
O14_3 O 0.43475(12) 0.99043(11) 0.00726(10)
Cu8_9 Cu 0.5000 1.0000 1.0000
O13_3 O 0.50957(11) 0.99274(10) 0.93475(12)
O17_3 O 0.49274(10) 0.93475(12) 0.99043(11)
Cu8_10 Cu 0.0000 0.0000 0.5000
O14_4 O 0.06525(12) 0.00957(11) 0.50726(10)
O17_4 O 0.00726(10) 0.06525(12) 0.49043(11)
Cu1_5 Cu -0.0000 0.7500 0.6250
Cu2_13 Cu -0.0000 0.5000 0.5000
Cu3_4 Cu 0.06761(2) 0.57219(2) 0.49729(2)
O1_4 O 0.00726(10) 0.56525(12) 0.50957(11)
N1_4 N 0.01410(9) 0.69880(10) 0.58884(10)
N2_4 N 0.01737(11) 0.62798(11) 0.57205(10)
N3_4 N 0.06357(10) 0.63438(12) 0.50976(11)
N4_4 N 0.08230(12) 0.70649(13) 0.49200(12)
N5_4 N 0.06157(12) 0.76425(12) 0.53350(14)
H2_4 H 0.0619 0.7777 0.5092
H3_4 H 0.0389 0.7717 0.5476
C1_4 C 0.04136(11) 0.65034(13) 0.54290(12)
C2_4 C 0.00173(12) 0.65915(12) 0.59797(12)
C3_4 C 0.03958(11) 0.69320(13) 0.55286(12)
C4_4 C 0.06066(12) 0.72253(14) 0.52692(13)
C5_4 C 0.08266(14) 0.66528(16) 0.48588(14)
H5_4 H 0.0979 0.6558 0.4622
Cu4_6 Cu 0.1250 0.5000 0.2500
O2_4 O 0.00957(11) 0.49274(10) 0.43475(12)
N6_4 N 0.08884(10) 0.48590(9) 0.30120(10)
N7_4 N 0.07205(10) 0.48263(11) 0.37202(11)
N8_4 N 0.00976(11) 0.43643(10) 0.36562(12)
N10_4 N 0.03350(14) 0.43843(12) 0.23575(12)
H7_4 H 0.0092 0.4381 0.2223
H8_4 H 0.0476 0.4611 0.2283
C6_4 C 0.04290(12) 0.45864(11) 0.34966(13)
C7_4 C 0.09797(12) 0.49827(12) 0.34085(12)
H9_4 H 0.1207 0.5165 0.3469
C8_4 C 0.05286(12) 0.46042(11) 0.30680(13)
C9_4 C 0.02692(13) 0.43934(12) 0.27747(14)
Cu8_11 Cu 0.0000 1.0000 0.5000
H16_4 H 0.0123 0.9162 0.4936
H19_4 H 0.0165 0.8469 0.6207
H21_4 H 0.0123 0.4162 0.5064
H24_4 H 0.0165 0.3469 0.3793
Cu11_4 Cu 0.00271(2) 0.56761(2) 0.57219(2)
H26_4 H 0.0064 0.4877 0.5838
N29_4 N 0.00800(12) 0.58230(12) 0.70649(13)
C30_4 C 0.01412(14) 0.58266(14) 0.66528(16)
H30_4 H 0.0378 0.5979 0.6558
Cu12_4 Cu 0.07219(2) 0.49729(2) 0.43239(2)
O7_4 O 0.06525(12) 0.50957(11) 0.49274(10)
H31_4 H 0.0838 0.4936 0.5123
N31_4 N 0.19880(10) 0.58884(10) 0.48590(9)
N32_4 N 0.12798(11) 0.57205(10) 0.48263(11)
N33_4 N 0.13438(12) 0.50976(11) 0.43643(10)
N34_4 N 0.20649(13) 0.49200(12) 0.41770(12)
N35_4 N 0.26425(12) 0.53350(14) 0.43843(12)
H32_4 H 0.2777 0.5092 0.4381
H33_4 H 0.2717 0.5476 0.4611
C31_4 C 0.15034(13) 0.54290(12) 0.45864(11)
C32_4 C 0.15915(12) 0.59797(12) 0.49827(12)
H34_4 H 0.1531 0.6207 0.5165
C33_4 C 0.19320(13) 0.55286(12) 0.46042(11)
C34_4 C 0.22253(14) 0.52692(13) 0.43934(12)
C35_4 C 0.16528(16) 0.48588(14) 0.41734(14)
H35_4 H 0.1558 0.4622 0.4021
Cu13_4 Cu 0.17781(2) 0.81761(2) 0.75271(2)
O8_4 O 0.18475(12) 0.75726(10) 0.74043(11)
H36_4 H 0.1662 0.7377 0.7564
N36_4 N 0.05120(10) 0.76410(9) 0.66116(10)
N37_4 N 0.12202(11) 0.76737(11) 0.67795(10)
N38_4 N 0.11562(12) 0.81357(10) 0.74024(11)
N39_4 N 0.04351(13) 0.83230(12) 0.75800(12)
C36_4 C 0.09966(13) 0.79136(11) 0.70710(12)
C37_4 C 0.09085(12) 0.75173(12) 0.65203(12)
H39_4 H 0.0969 0.7335 0.6293
C38_4 C 0.05680(13) 0.78958(11) 0.69714(12)
C39_4 C 0.02747(14) 0.81066(12) 0.72308(13)
C40_4 C 0.08472(16) 0.83266(14) 0.76412(14)
H40_4 H 0.0942 0.8479 0.7878
N45_4 N 0.01425(12) 0.68843(12) 0.71650(14)
H42_4 H 0.0277 0.6881 0.7408
H43_4 H 0.0217 0.7111 0.7024
Cu16_4 Cu 0.18239(2) 0.75271(2) 0.67781(2)
O11_4 O 0.24274(10) 0.74043(11) 0.68475(12)
H51_4 H 0.2623 0.7564 0.6662
N51_4 N 0.23590(9) 0.66116(10) 0.55120(10)
N52_4 N 0.23263(11) 0.67795(10) 0.62202(11)
N53_4 N 0.18643(10) 0.74024(11) 0.61562(12)
N54_4 N 0.16770(12) 0.75800(12) 0.54351(13)
N55_4 N 0.18843(12) 0.71650(14) 0.48575(12)
H52_4 H 0.1881 0.7408 0.4723
H53_4 H 0.2111 0.7024 0.4783
C51_4 C 0.20864(11) 0.70710(12) 0.59966(13)
C52_4 C 0.24827(12) 0.65203(12) 0.59085(12)
H54_4 H 0.2665 0.6293 0.5969
C53_4 C 0.21042(11) 0.69714(12) 0.55680(13)
C54_4 C 0.18934(12) 0.72308(13) 0.52747(14)
C55_4 C 0.16734(14) 0.76412(14) 0.58472(16)
H55_4 H 0.1521 0.7878 0.5942
Cu18_5 Cu -0.0000 0.2500 0.3750
Cu19_6 Cu 0.2500 0.6250 0.5000
Cu26_4 Cu 0.24729(2) 0.67781(2) 0.68239(2)
O16_4 O 0.24043(11) 0.81525(12) 0.75726(10)
O18_4 O 0.00957(11) 0.99274(10) 0.56525(12)
N61_4 N 0.08884(10) 0.51410(9) 0.19880(10)
N63_4 N 0.16116(10) 0.44880(10) 0.23590(9)
N65_4 N 0.16116(10) 0.55120(10) 0.26410(9)
N67_4 N 0.17795(10) 0.87798(11) 0.76737(11)
Cu8_12 Cu 1.0000 0.0000 0.5000
O13_4 O 0.99043(11) 0.00726(10) 0.43475(12)
Cu1_6 Cu 1.0000 0.7500 0.6250
Cu2_14 Cu 1.0000 0.5000 0.5000
H1_4 H 0.9877 0.5838 0.4936
H4_4 H 0.9835 0.6531 0.6207
Cu5_4 Cu 0.99729(2) 0.43239(2) 0.42781(2)
H6_4 H 0.9936 0.5123 0.4162
N9_4 N 0.99200(12) 0.41770(12) 0.29351(13)
C10_4 C 0.98588(14) 0.41734(14) 0.33472(16)
H10_4 H 0.9622 0.4021 0.3442
Cu6_6 Cu 0.7500 0.3750 0.5000
Cu7_4 Cu 0.92781(2) 0.50271(2) 0.56761(2)
O3_4 O 0.93475(12) 0.49043(11) 0.50726(10)
H11_4 H 0.9162 0.5064 0.4877
N11_4 N 0.80120(10) 0.41116(10) 0.51410(9)
N12_4 N 0.87202(11) 0.42795(10) 0.51737(11)
N13_4 N 0.86562(12) 0.49024(11) 0.56357(10)
N14_4 N 0.79351(13) 0.50800(12) 0.58230(12)
N15_4 N 0.73575(12) 0.46650(14) 0.56157(12)
H12_4 H 0.7223 0.4908 0.5619
H13_4 H 0.7283 0.4524 0.5389
C11_4 C 0.84966(13) 0.45710(12) 0.54136(11)
C12_4 C 0.84085(12) 0.40203(12) 0.50173(12)
H14_4 H 0.8469 0.3793 0.4835
C13_4 C 0.80680(13) 0.44714(12) 0.53958(11)
C14_4 C 0.77747(14) 0.47308(13) 0.56066(12)
C15_4 C 0.83472(16) 0.51412(14) 0.58266(14)
H15_4 H 0.8442 0.5378 0.5979
Cu8_13 Cu 1.0000 1.0000 0.5000
Cu9_4 Cu 0.93239(2) 0.92781(2) 0.49729(2)
O4_4 O 0.99274(10) 0.93475(12) 0.50957(11)
N16_4 N 0.98590(9) 0.80120(10) 0.58884(10)
N17_4 N 0.98263(11) 0.87202(11) 0.57205(10)
N18_4 N 0.93643(10) 0.86562(12) 0.50976(11)
N19_4 N 0.91770(12) 0.79351(13) 0.49200(12)
N20_4 N 0.93843(12) 0.73575(12) 0.53350(14)
H17_4 H 0.9381 0.7223 0.5092
H18_4 H 0.9611 0.7283 0.5476
C16_4 C 0.95864(11) 0.84966(13) 0.54290(12)
C17_4 C 0.99827(12) 0.84085(12) 0.59797(12)
C18_4 C 0.96042(11) 0.80680(13) 0.55286(12)
C19_4 C 0.93934(12) 0.77747(14) 0.52692(13)
C20_4 C 0.91734(14) 0.83472(16) 0.48588(14)
H20_4 H 0.9021 0.8442 0.4622
Cu10_4 Cu 0.93239(2) 0.42781(2) 0.50271(2)
O5_4 O 0.99274(10) 0.43475(12) 0.49043(11)
N21_4 N 0.98590(9) 0.30120(10) 0.41116(10)
N22_4 N 0.98263(11) 0.37202(11) 0.42795(10)
N23_4 N 0.93643(10) 0.36562(12) 0.49024(11)
N24_4 N 0.91770(12) 0.29351(13) 0.50800(12)
N25_4 N 0.93843(12) 0.23575(12) 0.46650(14)
H22_4 H 0.9381 0.2223 0.4908
H23_4 H 0.9611 0.2283 0.4524
C21_4 C 0.95864(11) 0.34966(13) 0.45710(12)
C22_4 C 0.99827(12) 0.34085(12) 0.40203(12)
C23_4 C 0.96042(11) 0.30680(13) 0.44714(12)
C24_4 C 0.93934(12) 0.27747(14) 0.47308(13)
C25_4 C 0.91734(14) 0.33472(16) 0.51412(14)
H25_4 H 0.9021 0.3442 0.5378
O6_4 O 0.99043(11) 0.50726(10) 0.56525(12)
N26_4 N 0.91116(10) 0.51410(9) 0.69880(10)
N27_4 N 0.92795(10) 0.51737(11) 0.62798(11)
N28_4 N 0.99024(11) 0.56357(10) 0.63438(12)
N30_4 N 0.96650(14) 0.56157(12) 0.76425(12)
H27_4 H 0.9908 0.5619 0.7777
H28_4 H 0.9524 0.5389 0.7717
C26_4 C 0.95710(12) 0.54136(11) 0.65034(13)
C27_4 C 0.90203(12) 0.50173(12) 0.65915(12)
H29_4 H 0.8793 0.4835 0.6531
C28_4 C 0.94714(12) 0.53958(11) 0.69320(13)
C29_4 C 0.97308(13) 0.56066(12) 0.72253(14)
N40_4 N 0.98575(12) 0.81157(12) 0.71650(14)
H37_4 H 0.9723 0.8119 0.7408
H38_4 H 0.9783 0.7889 0.7024
Cu14_4 Cu 0.82219(2) 0.68239(2) 0.75271(2)
O9_4 O 0.81525(12) 0.74274(10) 0.74043(11)
H41_4 H 0.8338 0.7623 0.7564
N41_4 N 0.94880(10) 0.73590(9) 0.66116(10)
N42_4 N 0.87798(11) 0.73263(11) 0.67795(10)
N43_4 N 0.88438(12) 0.68643(10) 0.74024(11)
N44_4 N 0.95649(13) 0.66770(12) 0.75800(12)
C41_4 C 0.90034(13) 0.70864(11) 0.70710(12)
C42_4 C 0.90915(12) 0.74827(12) 0.65203(12)
H44_4 H 0.9031 0.7665 0.6293
C43_4 C 0.94320(13) 0.71042(11) 0.69714(12)
C44_4 C 0.97253(14) 0.68934(12) 0.72308(13)
C45_4 C 0.91528(16) 0.66734(14) 0.76412(14)
H45_4 H 0.9058 0.6521 0.7878
Cu15_4 Cu 0.74729(2) 0.67781(2) 0.81761(2)
O10_4 O 0.75957(11) 0.68475(12) 0.75726(10)
H46_4 H 0.7436 0.6662 0.7377
N46_4 N 0.83884(10) 0.55120(10) 0.76410(9)
N47_4 N 0.82205(10) 0.62202(11) 0.76737(11)
N48_4 N 0.75976(11) 0.61562(12) 0.81357(10)
N49_4 N 0.74200(12) 0.54351(13) 0.83230(12)
N50_4 N 0.78350(14) 0.48575(12) 0.81157(12)
H47_4 H 0.7592 0.4723 0.8119
H48_4 H 0.7976 0.4783 0.7889
C46_4 C 0.79290(12) 0.59966(13) 0.79136(11)
C47_4 C 0.84797(12) 0.59085(12) 0.75173(12)
H49_4 H 0.8707 0.5969 0.7335
C48_4 C 0.80286(12) 0.55680(13) 0.78958(11)
C49_4 C 0.77692(13) 0.52747(14) 0.81066(12)
C50_4 C 0.73588(14) 0.58472(16) 0.83266(14)
H50_4 H 0.7122 0.5942 0.8479
Cu17_4 Cu 0.68239(2) 0.24729(2) 0.67781(2)
O12_4 O 0.74274(10) 0.25957(11) 0.68475(12)
H56_4 H 0.7623 0.2436 0.6662
N56_4 N 0.73590(9) 0.33884(10) 0.55120(10)
N57_4 N 0.73263(11) 0.32205(10) 0.62202(11)
N58_4 N 0.68643(10) 0.25976(11) 0.61562(12)
N59_4 N 0.66770(12) 0.24200(12) 0.54351(13)
N60_4 N 0.68843(12) 0.28350(14) 0.48575(12)
H57_4 H 0.6881 0.2592 0.4723
H58_4 H 0.7111 0.2976 0.4783
C56_4 C 0.70864(11) 0.29290(12) 0.59966(13)
C57_4 C 0.74827(12) 0.34797(12) 0.59085(12)
H59_4 H 0.7665 0.3707 0.5969
C58_4 C 0.71042(11) 0.30286(12) 0.55680(13)
C59_4 C 0.68934(12) 0.27692(13) 0.52747(14)
C60_4 C 0.66734(14) 0.23588(14) 0.58472(16)
H60_4 H 0.6521 0.2122 0.5942
Cu18_6 Cu 1.0000 0.2500 0.3750
Cu20_6 Cu 0.8750 0.5000 0.7500
Cu21_4 Cu 0.7500 0.7500 0.7500
Cu24_4 Cu 0.81761(2) 0.74729(2) 0.67781(2)
Cu25_4 Cu 0.74729(2) 0.32219(2) 0.68239(2)
Cu27_4 Cu 0.99729(2) 0.93239(2) 0.57219(2)
O15_4 O 0.68475(12) 0.24274(10) 0.74043(11)
O19_4 O 0.93475(12) 0.99043(11) 0.49274(10)
O20_4 O 0.74274(10) 0.74043(11) 0.81525(12)
N62_4 N 0.69880(10) 0.41116(10) 0.48590(9)
N64_4 N 0.76410(9) 0.33884(10) 0.44880(10)
N66_4 N 0.62202(11) 0.23263(11) 0.67795(10)
N68_4 N 0.87202(11) 0.92795(10) 0.48263(11)
N69_4 N 0.73263(11) 0.67795(10) 0.87798(11)
N50_5 N 0.18843(12) 0.28350(14) 0.01425(12)
H47_5 H 0.1881 0.2592 0.0277
H48_5 H 0.2111 0.2976 0.0217
Cu9_5 Cu 0.50271(2) 0.43239(2) 0.57219(2)
H16_5 H 0.5064 0.5123 0.5838
N17_5 N 0.42795(10) 0.48263(11) 0.62798(11)
N18_5 N 0.49024(11) 0.43643(10) 0.63438(12)
N19_5 N 0.50800(12) 0.41770(12) 0.70649(13)
N20_5 N 0.46650(14) 0.43843(12) 0.76425(12)
H17_5 H 0.4908 0.4381 0.7777
H18_5 H 0.4524 0.4611 0.7717
C16_5 C 0.45710(12) 0.45864(11) 0.65034(13)
C17_5 C 0.40203(12) 0.49827(12) 0.65915(12)
H19_5 H 0.3793 0.5165 0.6531
C18_5 C 0.44714(12) 0.46042(11) 0.69320(13)
C19_5 C 0.47308(13) 0.43934(12) 0.72253(14)
C20_5 C 0.51412(14) 0.41734(14) 0.66528(16)
H20_5 H 0.5378 0.4021 0.6558
O8_5 O 0.25957(11) 0.68475(12) 0.74274(10)
H36_5 H 0.2436 0.6662 0.7623
N37_5 N 0.32205(10) 0.62202(11) 0.73263(11)
N38_5 N 0.25976(11) 0.61562(12) 0.68643(10)
N39_5 N 0.24200(12) 0.54351(13) 0.66770(12)
N40_5 N 0.28350(14) 0.48575(12) 0.68843(12)
H37_5 H 0.2592 0.4723 0.6881
H38_5 H 0.2976 0.4783 0.7111
C36_5 C 0.29290(12) 0.59966(13) 0.70864(11)
C37_5 C 0.34797(12) 0.59085(12) 0.74827(12)
H39_5 H 0.3707 0.5969 0.7665
C38_5 C 0.30286(12) 0.55680(13) 0.71042(11)
C39_5 C 0.27692(13) 0.52747(14) 0.68934(12)
C40_5 C 0.23588(14) 0.58472(16) 0.66734(14)
H40_5 H 0.2122 0.5942 0.6521
Cu14_5 Cu 0.24729(2) 0.32219(2) 0.81761(2)
O9_5 O 0.25957(11) 0.31525(12) 0.75726(10)
H41_5 H 0.2436 0.3338 0.7377
N42_5 N 0.32205(10) 0.37798(11) 0.76737(11)
N43_5 N 0.25976(11) 0.38438(12) 0.81357(10)
N44_5 N 0.24200(12) 0.45649(13) 0.83230(12)
N45_5 N 0.28350(14) 0.51425(12) 0.81157(12)
H42_5 H 0.2592 0.5277 0.8119
H43_5 H 0.2976 0.5217 0.7889
C41_5 C 0.29290(12) 0.40034(13) 0.79136(11)
C42_5 C 0.34797(12) 0.40915(12) 0.75173(12)
H44_5 H 0.3707 0.4031 0.7335
C43_5 C 0.30286(12) 0.44320(13) 0.78958(11)
C44_5 C 0.27692(13) 0.47253(14) 0.81066(12)
C45_5 C 0.23588(14) 0.41528(16) 0.83266(14)
H45_5 H 0.2122 0.4058 0.8479
O10_5 O 0.24274(10) 0.25957(11) 0.81525(12)
H46_5 H 0.2623 0.2436 0.8338
N46_5 N 0.23590(9) 0.33884(10) 0.94880(10)
N47_5 N 0.23263(11) 0.32205(10) 0.87798(11)
N48_5 N 0.18643(10) 0.25976(11) 0.88438(12)
N49_5 N 0.16770(12) 0.24200(12) 0.95649(13)
C46_5 C 0.20864(11) 0.29290(12) 0.90034(13)
C47_5 C 0.24827(12) 0.34797(12) 0.90915(12)
H49_5 H 0.2665 0.3707 0.9031
C48_5 C 0.21042(11) 0.30286(12) 0.94320(13)
C49_5 C 0.18934(12) 0.27692(13) 0.97253(14)
C50_5 C 0.16734(14) 0.23588(14) 0.91528(16)
H50_5 H 0.1521 0.2122 0.9058
Cu16_5 Cu 0.32219(2) 0.68239(2) 0.74729(2)
H51_5 H 0.3338 0.7623 0.7436
N51_5 N 0.44880(10) 0.73590(9) 0.83884(10)
N53_5 N 0.38438(12) 0.68643(10) 0.75976(11)
N54_5 N 0.45649(13) 0.66770(12) 0.74200(12)
N55_5 N 0.51425(12) 0.68843(12) 0.78350(14)
H52_5 H 0.5277 0.6881 0.7592
H53_5 H 0.5217 0.7111 0.7976
C51_5 C 0.40034(13) 0.70864(11) 0.79290(12)
C52_5 C 0.40915(12) 0.74827(12) 0.84797(12)
H54_5 H 0.4031 0.7665 0.8707
C53_5 C 0.44320(13) 0.71042(11) 0.80286(12)
C54_5 C 0.47253(14) 0.68934(12) 0.77692(13)
C55_5 C 0.41528(16) 0.66734(14) 0.73588(14)
H55_5 H 0.4058 0.6521 0.7122
Cu24_5 Cu 0.32219(2) 0.31761(2) 0.75271(2)
Cu27_5 Cu 0.42781(2) 0.49729(2) 0.56761(2)
N68_5 N 0.51737(11) 0.37202(11) 0.57205(10)
Cu9_6 Cu 0.00271(2) 0.06761(2) 0.42781(2)
N19_6 N 0.00800(12) 0.08230(12) 0.29351(13)
C20_6 C 0.01412(14) 0.08266(14) 0.33472(16)
H20_6 H 0.0378 0.0979 0.3442
N68_6 N 0.01737(11) 0.12798(11) 0.42795(10)
H16_6 H 0.0064 0.9877 0.4162
N55_6 N 0.01425(12) 0.81157(12) 0.21650(14)
H52_6 H 0.0277 0.8119 0.2408
H53_6 H 0.0217 0.7889 0.2024
N17_6 N 0.92795(10) 0.01737(11) 0.37202(11)
N18_6 N 0.99024(11) 0.06357(10) 0.36562(12)
N20_6 N 0.96650(14) 0.06157(12) 0.23575(12)
H17_6 H 0.9908 0.0619 0.2223
H18_6 H 0.9524 0.0389 0.2283
C16_6 C 0.95710(12) 0.04136(11) 0.34966(13)
C17_6 C 0.90203(12) 0.00173(12) 0.34085(12)
C18_6 C 0.94714(12) 0.03958(11) 0.30680(13)
C19_6 C 0.97308(13) 0.06066(12) 0.27747(14)
N40_6 N 0.78350(14) 0.01425(12) 0.31157(12)
H37_6 H 0.7592 0.0277 0.3119
H38_6 H 0.7976 0.0217 0.2889
Cu14_6 Cu 0.74729(2) 0.17781(2) 0.18239(2)
O9_6 O 0.75957(11) 0.18475(12) 0.24274(10)
H41_6 H 0.7436 0.1662 0.2623
N42_6 N 0.82205(10) 0.12202(11) 0.23263(11)
N43_6 N 0.75976(11) 0.11562(12) 0.18643(10)
N44_6 N 0.74200(12) 0.04351(13) 0.16770(12)
C41_6 C 0.79290(12) 0.09966(13) 0.20864(11)
C42_6 C 0.84797(12) 0.09085(12) 0.24827(12)
H44_6 H 0.8707 0.0969 0.2665
C43_6 C 0.80286(12) 0.05680(13) 0.21042(11)
C44_6 C 0.77692(13) 0.02747(14) 0.18934(12)
C45_6 C 0.73588(14) 0.08472(16) 0.16734(14)
H45_6 H 0.7122 0.0942 0.1521
O10_6 O 0.74274(10) 0.24043(11) 0.18475(12)
H46_6 H 0.7623 0.2564 0.1662
N46_6 N 0.73590(9) 0.16116(10) 0.05120(10)
N47_6 N 0.73263(11) 0.17795(10) 0.12202(11)
N48_6 N 0.68643(10) 0.24024(11) 0.11562(12)
N49_6 N 0.66770(12) 0.25800(12) 0.04351(13)
C46_6 C 0.70864(11) 0.20710(12) 0.09966(13)
C47_6 C 0.74827(12) 0.15203(12) 0.09085(12)
H49_6 H 0.7665 0.1293 0.0969
C48_6 C 0.71042(11) 0.19714(12) 0.05680(13)
C49_6 C 0.68934(12) 0.22308(13) 0.02747(14)
C50_6 C 0.66734(14) 0.26412(14) 0.08472(16)
H50_6 H 0.6521 0.2878 0.0942
Cu24_6 Cu 0.82219(2) 0.18239(2) 0.24729(2)
Cu27_6 Cu 0.92781(2) 0.00271(2) 0.43239(2)
N50_6 N 0.68843(12) 0.21650(14) 0.98575(12)
H47_6 H 0.6881 0.2408 0.9723
H48_6 H 0.7111 0.2024 0.9783
H19_6 H 0.8793 0.9835 0.3469
O8_6 O 0.75957(11) 0.81525(12) 0.25726(10)
H36_6 H 0.7436 0.8338 0.2377
N37_6 N 0.82205(10) 0.87798(11) 0.26737(11)
N38_6 N 0.75976(11) 0.88438(12) 0.31357(10)
N39_6 N 0.74200(12) 0.95649(13) 0.33230(12)
C36_6 C 0.79290(12) 0.90034(13) 0.29136(11)
C37_6 C 0.84797(12) 0.90915(12) 0.25173(12)
H39_6 H 0.8707 0.9031 0.2335
C38_6 C 0.80286(12) 0.94320(13) 0.28958(11)
C39_6 C 0.77692(13) 0.97253(14) 0.31066(12)
C40_6 C 0.73588(14) 0.91528(16) 0.33266(14)
H40_6 H 0.7122 0.9058 0.3479
N45_6 N 0.78350(14) 0.98575(12) 0.18843(12)
H42_6 H 0.7592 0.9723 0.1881
H43_6 H 0.7976 0.9783 0.2111
Cu16_6 Cu 0.82219(2) 0.81761(2) 0.25271(2)
H51_6 H 0.8338 0.7377 0.2564
N51_6 N 0.94880(10) 0.76410(9) 0.16116(10)
N53_6 N 0.88438(12) 0.81357(10) 0.24024(11)
N54_6 N 0.95649(13) 0.83230(12) 0.25800(12)
C51_6 C 0.90034(13) 0.79136(11) 0.20710(12)
C52_6 C 0.90915(12) 0.75173(12) 0.15203(12)
H54_6 H 0.9031 0.7335 0.1293
C53_6 C 0.94320(13) 0.78958(11) 0.19714(12)
C54_6 C 0.97253(14) 0.81066(12) 0.22308(13)
C55_6 C 0.91528(16) 0.83266(14) 0.26412(14)
H55_6 H 0.9058 0.8479 0.2878
N17_7 N 0.07205(10) 0.51737(11) 0.12798(11)
N18_7 N 0.00976(11) 0.56357(10) 0.13438(12)
N20_7 N 0.03350(14) 0.56157(12) 0.26425(12)
H17_7 H 0.0092 0.5619 0.2777
H18_7 H 0.0476 0.5389 0.2717
C16_7 C 0.04290(12) 0.54136(11) 0.15034(13)
C17_7 C 0.09797(12) 0.50173(12) 0.15915(12)
H19_7 H 0.1207 0.4835 0.1531
C18_7 C 0.05286(12) 0.53958(11) 0.19320(13)
C19_7 C 0.02692(13) 0.56066(12) 0.22253(14)
O8_7 O 0.24043(11) 0.31525(12) 0.24274(10)
H36_7 H 0.2564 0.3338 0.2623
N37_7 N 0.17795(10) 0.37798(11) 0.23263(11)
N38_7 N 0.24024(11) 0.38438(12) 0.18643(10)
N39_7 N 0.25800(12) 0.45649(13) 0.16770(12)
N40_7 N 0.21650(14) 0.51425(12) 0.18843(12)
H37_7 H 0.2408 0.5277 0.1881
H38_7 H 0.2024 0.5217 0.2111
C36_7 C 0.20710(12) 0.40034(13) 0.20864(11)
C37_7 C 0.15203(12) 0.40915(12) 0.24827(12)
H39_7 H 0.1293 0.4031 0.2665
C38_7 C 0.19714(12) 0.44320(13) 0.21042(11)
C39_7 C 0.22308(13) 0.47253(14) 0.18934(12)
C40_7 C 0.26412(14) 0.41528(16) 0.16734(14)
H40_7 H 0.2878 0.4058 0.1521
Cu14_7 Cu 0.25271(2) 0.67781(2) 0.31761(2)
O9_7 O 0.24043(11) 0.68475(12) 0.25726(10)
H41_7 H 0.2564 0.6662 0.2377
N42_7 N 0.17795(10) 0.62202(11) 0.26737(11)
N43_7 N 0.24024(11) 0.61562(12) 0.31357(10)
N44_7 N 0.25800(12) 0.54351(13) 0.33230(12)
N45_7 N 0.21650(14) 0.48575(12) 0.31157(12)
H42_7 H 0.2408 0.4723 0.3119
H43_7 H 0.2024 0.4783 0.2889
C41_7 C 0.20710(12) 0.59966(13) 0.29136(11)
C42_7 C 0.15203(12) 0.59085(12) 0.25173(12)
H44_7 H 0.1293 0.5969 0.2335
C43_7 C 0.19714(12) 0.55680(13) 0.28958(11)
C44_7 C 0.22308(13) 0.52747(14) 0.31066(12)
C45_7 C 0.26412(14) 0.58472(16) 0.33266(14)
H45_7 H 0.2878 0.5942 0.3479
O10_7 O 0.25726(10) 0.74043(11) 0.31525(12)
H46_7 H 0.2377 0.7564 0.3338
N46_7 N 0.26410(9) 0.66116(10) 0.44880(10)
N47_7 N 0.26737(11) 0.67795(10) 0.37798(11)
N48_7 N 0.31357(10) 0.74024(11) 0.38438(12)
N49_7 N 0.33230(12) 0.75800(12) 0.45649(13)
N50_7 N 0.31157(12) 0.71650(14) 0.51425(12)
H47_7 H 0.3119 0.7408 0.5277
H48_7 H 0.2889 0.7024 0.5217
C46_7 C 0.29136(11) 0.70710(12) 0.40034(13)
C47_7 C 0.25173(12) 0.65203(12) 0.40915(12)
H49_7 H 0.2335 0.6293 0.4031
C48_7 C 0.28958(11) 0.69714(12) 0.44320(13)
C49_7 C 0.31066(12) 0.72308(13) 0.47253(14)
C50_7 C 0.33266(14) 0.76412(14) 0.41528(16)
H50_7 H 0.3479 0.7878 0.4058
Cu16_7 Cu 0.17781(2) 0.31761(2) 0.24729(2)
H51_7 H 0.1662 0.2377 0.2436
N51_7 N 0.05120(10) 0.26410(9) 0.33884(10)
N53_7 N 0.11562(12) 0.31357(10) 0.25976(11)
N54_7 N 0.04351(13) 0.33230(12) 0.24200(12)
C51_7 C 0.09966(13) 0.29136(11) 0.29290(12)
C52_7 C 0.09085(12) 0.25173(12) 0.34797(12)
H54_7 H 0.0969 0.2335 0.3707
C53_7 C 0.05680(13) 0.28958(11) 0.30286(12)
C54_7 C 0.02747(14) 0.31066(12) 0.27692(13)
C55_7 C 0.08472(16) 0.33266(14) 0.23588(14)
H55_7 H 0.0942 0.3479 0.2122
Cu24_7 Cu 0.17781(2) 0.68239(2) 0.25271(2)
Cu27_7 Cu 0.07219(2) 0.50271(2) 0.06761(2)
Cu9_7 Cu 0.99729(2) 0.56761(2) 0.07219(2)
H16_7 H 0.9936 0.4877 0.0838
N19_7 N 0.99200(12) 0.58230(12) 0.20649(13)
C20_7 C 0.98588(14) 0.58266(14) 0.16528(16)
H20_7 H 0.9622 0.5979 0.1558
N55_7 N 0.98575(12) 0.31157(12) 0.28350(14)
H52_7 H 0.9723 0.3119 0.2592
H53_7 H 0.9783 0.2889 0.2976
N68_7 N 0.98263(11) 0.62798(11) 0.07205(10)
H16_8 H 0.4936 0.0123 0.9162
H19_8 H 0.6207 0.0165 0.8469
O8_8 O 0.74043(11) 0.18475(12) 0.75726(10)
H36_8 H 0.7564 0.1662 0.7377
N37_8 N 0.67795(10) 0.12202(11) 0.76737(11)
N38_8 N 0.74024(11) 0.11562(12) 0.81357(10)
N39_8 N 0.75800(12) 0.04351(13) 0.83230(12)
C36_8 C 0.70710(12) 0.09966(13) 0.79136(11)
C37_8 C 0.65203(12) 0.09085(12) 0.75173(12)
H39_8 H 0.6293 0.0969 0.7335
C38_8 C 0.69714(12) 0.05680(13) 0.78958(11)
C39_8 C 0.72308(13) 0.02747(14) 0.81066(12)
C40_8 C 0.76412(14) 0.08472(16) 0.83266(14)
H40_8 H 0.7878 0.0942 0.8479
N45_8 N 0.71650(14) 0.01425(12) 0.68843(12)
H42_8 H 0.7408 0.0277 0.6881
H43_8 H 0.7024 0.0217 0.7111
Cu16_8 Cu 0.67781(2) 0.18239(2) 0.75271(2)
H51_8 H 0.6662 0.2623 0.7564
N51_8 N 0.55120(10) 0.23590(9) 0.66116(10)
N53_8 N 0.61562(12) 0.18643(10) 0.74024(11)
N54_8 N 0.54351(13) 0.16770(12) 0.75800(12)
N55_8 N 0.48575(12) 0.18843(12) 0.71650(14)
H52_8 H 0.4723 0.1881 0.7408
H53_8 H 0.4783 0.2111 0.7024
C51_8 C 0.59966(13) 0.20864(11) 0.70710(12)
C52_8 C 0.59085(12) 0.24827(12) 0.65203(12)
H54_8 H 0.5969 0.2665 0.6293
C53_8 C 0.55680(13) 0.21042(11) 0.69714(12)
C54_8 C 0.52747(14) 0.18934(12) 0.72308(13)
C55_8 C 0.58472(16) 0.16734(14) 0.76412(14)
H55_8 H 0.5942 0.1521 0.7878
Cu9_8 Cu 0.49729(2) 0.93239(2) 0.92781(2)
N17_8 N 0.57205(10) 0.98263(11) 0.87202(11)
N18_8 N 0.50976(11) 0.93643(10) 0.86562(12)
N19_8 N 0.49200(12) 0.91770(12) 0.79351(13)
N20_8 N 0.53350(14) 0.93843(12) 0.73575(12)
H17_8 H 0.5092 0.9381 0.7223
H18_8 H 0.5476 0.9611 0.7283
C16_8 C 0.54290(12) 0.95864(11) 0.84966(13)
C17_8 C 0.59797(12) 0.99827(12) 0.84085(12)
C18_8 C 0.55286(12) 0.96042(11) 0.80680(13)
C19_8 C 0.52692(13) 0.93934(12) 0.77747(14)
C20_8 C 0.48588(14) 0.91734(14) 0.83472(16)
H20_8 H 0.4622 0.9021 0.8442
N40_8 N 0.71650(14) 0.98575(12) 0.81157(12)
H37_8 H 0.7408 0.9723 0.8119
H38_8 H 0.7024 0.9783 0.7889
Cu14_8 Cu 0.75271(2) 0.82219(2) 0.68239(2)
O9_8 O 0.74043(11) 0.81525(12) 0.74274(10)
H41_8 H 0.7564 0.8338 0.7623
N42_8 N 0.67795(10) 0.87798(11) 0.73263(11)
N43_8 N 0.74024(11) 0.88438(12) 0.68643(10)
N44_8 N 0.75800(12) 0.95649(13) 0.66770(12)
C41_8 C 0.70710(12) 0.90034(13) 0.70864(11)
C42_8 C 0.65203(12) 0.90915(12) 0.74827(12)
H44_8 H 0.6293 0.9031 0.7665
C43_8 C 0.69714(12) 0.94320(13) 0.71042(11)
C44_8 C 0.72308(13) 0.97253(14) 0.68934(12)
C45_8 C 0.76412(14) 0.91528(16) 0.66734(14)
H45_8 H 0.7878 0.9058 0.6521
O10_8 O 0.75726(10) 0.75957(11) 0.68475(12)
H46_8 H 0.7377 0.7436 0.6662
N46_8 N 0.76410(9) 0.83884(10) 0.55120(10)
N47_8 N 0.76737(11) 0.82205(10) 0.62202(11)
N48_8 N 0.81357(10) 0.75976(11) 0.61562(12)
N49_8 N 0.83230(12) 0.74200(12) 0.54351(13)
N50_8 N 0.81157(12) 0.78350(14) 0.48575(12)
H47_8 H 0.8119 0.7592 0.4723
H48_8 H 0.7889 0.7976 0.4783
C46_8 C 0.79136(11) 0.79290(12) 0.59966(13)
C47_8 C 0.75173(12) 0.84797(12) 0.59085(12)
H49_8 H 0.7335 0.8707 0.5969
C48_8 C 0.78958(11) 0.80286(12) 0.55680(13)
C49_8 C 0.81066(12) 0.77692(13) 0.52747(14)
C50_8 C 0.83266(14) 0.73588(14) 0.58472(16)
H50_8 H 0.8479 0.7122 0.5942
Cu24_8 Cu 0.67781(2) 0.81761(2) 0.74729(2)
Cu27_8 Cu 0.57219(2) 0.99729(2) 0.93239(2)
N68_8 N 0.48263(11) 0.87202(11) 0.92795(10)
N50_9 N 0.01425(12) 0.18843(12) 0.28350(14)
H47_9 H 0.0277 0.1881 0.2592
H48_9 H 0.0217 0.2111 0.2976
Cu9_9 Cu 0.57219(2) 0.50271(2) 0.43239(2)
H16_9 H 0.5838 0.5064 0.5123
N17_9 N 0.62798(11) 0.42795(10) 0.48263(11)
N18_9 N 0.63438(12) 0.49024(11) 0.43643(10)
N19_9 N 0.70649(13) 0.50800(12) 0.41770(12)
N20_9 N 0.76425(12) 0.46650(14) 0.43843(12)
H17_9 H 0.7777 0.4908 0.4381
H18_9 H 0.7717 0.4524 0.4611
C16_9 C 0.65034(13) 0.45710(12) 0.45864(11)
C17_9 C 0.65915(12) 0.40203(12) 0.49827(12)
H19_9 H 0.6531 0.3793 0.5165
C18_9 C 0.69320(13) 0.44714(12) 0.46042(11)
C19_9 C 0.72253(14) 0.47308(13) 0.43934(12)
C20_9 C 0.66528(16) 0.51412(14) 0.41734(14)
H20_9 H 0.6558 0.5378 0.4021
Cu14_9 Cu 0.81761(2) 0.24729(2) 0.32219(2)
H41_9 H 0.7377 0.2436 0.3338
N43_9 N 0.81357(10) 0.25976(11) 0.38438(12)
N44_9 N 0.83230(12) 0.24200(12) 0.45649(13)
N45_9 N 0.81157(12) 0.28350(14) 0.51425(12)
H42_9 H 0.8119 0.2592 0.5277
H43_9 H 0.7889 0.2976 0.5217
C41_9 C 0.79136(11) 0.29290(12) 0.40034(13)
C42_9 C 0.75173(12) 0.34797(12) 0.40915(12)
H44_9 H 0.7335 0.3707 0.4031
C43_9 C 0.78958(11) 0.30286(12) 0.44320(13)
C44_9 C 0.81066(12) 0.27692(13) 0.47253(14)
C45_9 C 0.83266(14) 0.23588(14) 0.41528(16)
H45_9 H 0.8479 0.2122 0.4058
O10_9 O 0.81525(12) 0.24274(10) 0.25957(11)
H46_9 H 0.8338 0.2623 0.2436
N46_9 N 0.94880(10) 0.23590(9) 0.33884(10)
N47_9 N 0.87798(11) 0.23263(11) 0.32205(10)
N48_9 N 0.88438(12) 0.18643(10) 0.25976(11)
N49_9 N 0.95649(13) 0.16770(12) 0.24200(12)
C46_9 C 0.90034(13) 0.20864(11) 0.29290(12)
C47_9 C 0.90915(12) 0.24827(12) 0.34797(12)
H49_9 H 0.9031 0.2665 0.3707
C48_9 C 0.94320(13) 0.21042(11) 0.30286(12)
C49_9 C 0.97253(14) 0.18934(12) 0.27692(13)
C50_9 C 0.91528(16) 0.16734(14) 0.23588(14)
H50_9 H 0.9058 0.1521 0.2122
H51_9 H 0.7436 0.3338 0.7623
N51_9 N 0.83884(10) 0.44880(10) 0.73590(9)
N53_9 N 0.75976(11) 0.38438(12) 0.68643(10)
N54_9 N 0.74200(12) 0.45649(13) 0.66770(12)
N55_9 N 0.78350(14) 0.51425(12) 0.68843(12)
H52_9 H 0.7592 0.5277 0.6881
H53_9 H 0.7976 0.5217 0.7111
C51_9 C 0.79290(12) 0.40034(13) 0.70864(11)
C52_9 C 0.84797(12) 0.40915(12) 0.74827(12)
H54_9 H 0.8707 0.4031 0.7665
C53_9 C 0.80286(12) 0.44320(13) 0.71042(11)
C54_9 C 0.77692(13) 0.47253(14) 0.68934(12)
C55_9 C 0.73588(14) 0.41528(16) 0.66734(14)
H55_9 H 0.7122 0.4058 0.6521
Cu27_9 Cu 0.56761(2) 0.42781(2) 0.49729(2)
N68_9 N 0.57205(10) 0.51737(11) 0.37202(11)
Cu9_10 Cu 0.42781(2) 0.00271(2) 0.06761(2)
N19_10 N 0.29351(13) 0.00800(12) 0.08230(12)
C20_10 C 0.33472(16) 0.01412(14) 0.08266(14)
H20_10 H 0.3442 0.0378 0.0979
N68_10 N 0.42795(10) 0.01737(11) 0.12798(11)
H16_10 H 0.4162 0.0064 0.9877
N55_10 N 0.21650(14) 0.01425(12) 0.81157(12)
H52_10 H 0.2408 0.0277 0.8119
H53_10 H 0.2024 0.0217 0.7889
N17_10 N 0.37202(11) 0.92795(10) 0.01737(11)
N18_10 N 0.36562(12) 0.99024(11) 0.06357(10)
N20_10 N 0.23575(12) 0.96650(14) 0.06157(12)
H17_10 H 0.2223 0.9908 0.0619
H18_10 H 0.2283 0.9524 0.0389
C16_10 C 0.34966(13) 0.95710(12) 0.04136(11)
C17_10 C 0.34085(12) 0.90203(12) 0.00173(12)
C18_10 C 0.30680(13) 0.94714(12) 0.03958(11)
C19_10 C 0.27747(14) 0.97308(13) 0.06066(12)
Cu14_10 Cu 0.18239(2) 0.74729(2) 0.17781(2)
H41_10 H 0.2623 0.7436 0.1662
N43_10 N 0.18643(10) 0.75976(11) 0.11562(12)
N44_10 N 0.16770(12) 0.74200(12) 0.04351(13)
C41_10 C 0.20864(11) 0.79290(12) 0.09966(13)
C42_10 C 0.24827(12) 0.84797(12) 0.09085(12)
H44_10 H 0.2665 0.8707 0.0969
C43_10 C 0.21042(11) 0.80286(12) 0.05680(13)
C44_10 C 0.18934(12) 0.77692(13) 0.02747(14)
C45_10 C 0.16734(14) 0.73588(14) 0.08472(16)
H45_10 H 0.1521 0.7122 0.0942
O10_10 O 0.18475(12) 0.74274(10) 0.24043(11)
H46_10 H 0.1662 0.7623 0.2564
N46_10 N 0.05120(10) 0.73590(9) 0.16116(10)
N47_10 N 0.12202(11) 0.73263(11) 0.17795(10)
N48_10 N 0.11562(12) 0.68643(10) 0.24024(11)
N49_10 N 0.04351(13) 0.66770(12) 0.25800(12)
C46_10 C 0.09966(13) 0.70864(11) 0.20710(12)
C47_10 C 0.09085(12) 0.74827(12) 0.15203(12)
H49_10 H 0.0969 0.7665 0.1293
C48_10 C 0.05680(13) 0.71042(11) 0.19714(12)
C49_10 C 0.02747(14) 0.68934(12) 0.22308(13)
C50_10 C 0.08472(16) 0.66734(14) 0.26412(14)
H50_10 H 0.0942 0.6521 0.2878
Cu27_10 Cu 0.43239(2) 0.92781(2) 0.00271(2)
H19_10 H 0.3469 0.8793 0.9835
N45_10 N 0.18843(12) 0.78350(14) 0.98575(12)
H42_10 H 0.1881 0.7592 0.9723
H43_10 H 0.2111 0.7976 0.9783
H51_10 H 0.2564 0.8338 0.7377
N51_10 N 0.16116(10) 0.94880(10) 0.76410(9)
N53_10 N 0.24024(11) 0.88438(12) 0.81357(10)
N54_10 N 0.25800(12) 0.95649(13) 0.83230(12)
C51_10 C 0.20710(12) 0.90034(13) 0.79136(11)
C52_10 C 0.15203(12) 0.90915(12) 0.75173(12)
H54_10 H 0.1293 0.9031 0.7335
C53_10 C 0.19714(12) 0.94320(13) 0.78958(11)
C54_10 C 0.22308(13) 0.97253(14) 0.81066(12)
C55_10 C 0.26412(14) 0.91528(16) 0.83266(14)
H55_10 H 0.2878 0.9058 0.8479
N50_10 N 0.98575(12) 0.68843(12) 0.21650(14)
H47_10 H 0.9723 0.6881 0.2408
H48_10 H 0.9783 0.7111 0.2024
N17_11 N 0.12798(11) 0.07205(10) 0.51737(11)
N18_11 N 0.13438(12) 0.00976(11) 0.56357(10)
N20_11 N 0.26425(12) 0.03350(14) 0.56157(12)
H17_11 H 0.2777 0.0092 0.5619
H18_11 H 0.2717 0.0476 0.5389
C16_11 C 0.15034(13) 0.04290(12) 0.54136(11)
C17_11 C 0.15915(12) 0.09797(12) 0.50173(12)
H19_11 H 0.1531 0.1207 0.4835
C18_11 C 0.19320(13) 0.05286(12) 0.53958(11)
C19_11 C 0.22253(14) 0.02692(13) 0.56066(12)
Cu14_11 Cu 0.31761(2) 0.25271(2) 0.67781(2)
H41_11 H 0.2377 0.2564 0.6662
N43_11 N 0.31357(10) 0.24024(11) 0.61562(12)
N44_11 N 0.33230(12) 0.25800(12) 0.54351(13)
N45_11 N 0.31157(12) 0.21650(14) 0.48575(12)
H42_11 H 0.3119 0.2408 0.4723
H43_11 H 0.2889 0.2024 0.4783
C41_11 C 0.29136(11) 0.20710(12) 0.59966(13)
C42_11 C 0.25173(12) 0.15203(12) 0.59085(12)
H44_11 H 0.2335 0.1293 0.5969
C43_11 C 0.28958(11) 0.19714(12) 0.55680(13)
C44_11 C 0.31066(12) 0.22308(13) 0.52747(14)
C45_11 C 0.33266(14) 0.26412(14) 0.58472(16)
H45_11 H 0.3479 0.2878 0.5942
O10_11 O 0.31525(12) 0.25726(10) 0.74043(11)
H46_11 H 0.3338 0.2377 0.7564
N46_11 N 0.44880(10) 0.26410(9) 0.66116(10)
N47_11 N 0.37798(11) 0.26737(11) 0.67795(10)
N48_11 N 0.38438(12) 0.31357(10) 0.74024(11)
N49_11 N 0.45649(13) 0.33230(12) 0.75800(12)
N50_11 N 0.51425(12) 0.31157(12) 0.71650(14)
H47_11 H 0.5277 0.3119 0.7408
H48_11 H 0.5217 0.2889 0.7024
C46_11 C 0.40034(13) 0.29136(11) 0.70710(12)
C47_11 C 0.40915(12) 0.25173(12) 0.65203(12)
H49_11 H 0.4031 0.2335 0.6293
C48_11 C 0.44320(13) 0.28958(11) 0.69714(12)
C49_11 C 0.47253(14) 0.31066(12) 0.72308(13)
C50_11 C 0.41528(16) 0.33266(14) 0.76412(14)
H50_11 H 0.4058 0.3479 0.7878
H51_11 H 0.2436 0.1662 0.2377
N51_11 N 0.33884(10) 0.05120(10) 0.26410(9)
N53_11 N 0.25976(11) 0.11562(12) 0.31357(10)
N54_11 N 0.24200(12) 0.04351(13) 0.33230(12)
C51_11 C 0.29290(12) 0.09966(13) 0.29136(11)
C52_11 C 0.34797(12) 0.09085(12) 0.25173(12)
H54_11 H 0.3707 0.0969 0.2335
C53_11 C 0.30286(12) 0.05680(13) 0.28958(11)
C54_11 C 0.27692(13) 0.02747(14) 0.31066(12)
C55_11 C 0.23588(14) 0.08472(16) 0.33266(14)
H55_11 H 0.2122 0.0942 0.3479
Cu27_11 Cu 0.06761(2) 0.07219(2) 0.50271(2)
Cu9_11 Cu 0.07219(2) 0.99729(2) 0.56761(2)
H16_11 H 0.0838 0.9936 0.4877
N19_11 N 0.20649(13) 0.99200(12) 0.58230(12)
C20_11 C 0.16528(16) 0.98588(14) 0.58266(14)
H20_11 H 0.1558 0.9622 0.5979
N55_11 N 0.28350(14) 0.98575(12) 0.31157(12)
H52_11 H 0.2592 0.9723 0.3119
H53_11 H 0.2976 0.9783 0.2889
N68_11 N 0.07205(10) 0.98263(11) 0.62798(11)
H16_12 H 0.9162 0.4936 0.0123
H19_12 H 0.8469 0.6207 0.0165
N45_12 N 0.68843(12) 0.71650(14) 0.01425(12)
H42_12 H 0.6881 0.7408 0.0277
H43_12 H 0.7111 0.7024 0.0217
H51_12 H 0.7564 0.6662 0.2623
N51_12 N 0.66116(10) 0.55120(10) 0.23590(9)
N53_12 N 0.74024(11) 0.61562(12) 0.18643(10)
N54_12 N 0.75800(12) 0.54351(13) 0.16770(12)
N55_12 N 0.71650(14) 0.48575(12) 0.18843(12)
H52_12 H 0.7408 0.4723 0.1881
H53_12 H 0.7024 0.4783 0.2111
C51_12 C 0.70710(12) 0.59966(13) 0.20864(11)
C52_12 C 0.65203(12) 0.59085(12) 0.24827(12)
H54_12 H 0.6293 0.5969 0.2665
C53_12 C 0.69714(12) 0.55680(13) 0.21042(11)
C54_12 C 0.72308(13) 0.52747(14) 0.18934(12)
C55_12 C 0.76412(14) 0.58472(16) 0.16734(14)
H55_12 H 0.7878 0.5942 0.1521
Cu9_12 Cu 0.92781(2) 0.49729(2) 0.93239(2)
N17_12 N 0.87202(11) 0.57205(10) 0.98263(11)
N18_12 N 0.86562(12) 0.50976(11) 0.93643(10)
N19_12 N 0.79351(13) 0.49200(12) 0.91770(12)
N20_12 N 0.73575(12) 0.53350(14) 0.93843(12)
H17_12 H 0.7223 0.5092 0.9381
H18_12 H 0.7283 0.5476 0.9611
C16_12 C 0.84966(13) 0.54290(12) 0.95864(11)
C17_12 C 0.84085(12) 0.59797(12) 0.99827(12)
C18_12 C 0.80680(13) 0.55286(12) 0.96042(11)
C19_12 C 0.77747(14) 0.52692(13) 0.93934(12)
C20_12 C 0.83472(16) 0.48588(14) 0.91734(14)
H20_12 H 0.8442 0.4622 0.9021
Cu14_12 Cu 0.68239(2) 0.75271(2) 0.82219(2)
H41_12 H 0.7623 0.7564 0.8338
N43_12 N 0.68643(10) 0.74024(11) 0.88438(12)
N44_12 N 0.66770(12) 0.75800(12) 0.95649(13)
C41_12 C 0.70864(11) 0.70710(12) 0.90034(13)
C42_12 C 0.74827(12) 0.65203(12) 0.90915(12)
H44_12 H 0.7665 0.6293 0.9031
C43_12 C 0.71042(11) 0.69714(12) 0.94320(13)
C44_12 C 0.68934(12) 0.72308(13) 0.97253(14)
C45_12 C 0.66734(14) 0.76412(14) 0.91528(16)
H45_12 H 0.6521 0.7878 0.9058
O10_12 O 0.68475(12) 0.75726(10) 0.75957(11)
H46_12 H 0.6662 0.7377 0.7436
N46_12 N 0.55120(10) 0.76410(9) 0.83884(10)
N47_12 N 0.62202(11) 0.76737(11) 0.82205(10)
N48_12 N 0.61562(12) 0.81357(10) 0.75976(11)
N49_12 N 0.54351(13) 0.83230(12) 0.74200(12)
N50_12 N 0.48575(12) 0.81157(12) 0.78350(14)
H47_12 H 0.4723 0.8119 0.7592
H48_12 H 0.4783 0.7889 0.7976
C46_12 C 0.59966(13) 0.79136(11) 0.79290(12)
C47_12 C 0.59085(12) 0.75173(12) 0.84797(12)
H49_12 H 0.5969 0.7335 0.8707
C48_12 C 0.55680(13) 0.78958(11) 0.80286(12)
C49_12 C 0.52747(14) 0.81066(12) 0.77692(13)
C50_12 C 0.58472(16) 0.83266(14) 0.73588(14)
H50_12 H 0.5942 0.8479 0.7122
Cu27_12 Cu 0.93239(2) 0.57219(2) 0.99729(2)
N68_12 N 0.92795(10) 0.48263(11) 0.87202(11)
H56_5 H 0.0064 0.5123 0.9162
N59_5 N 0.00800(12) 0.41770(12) 0.79351(13)
C60_5 C 0.01412(14) 0.41734(14) 0.83472(16)
H60_5 H 0.0378 0.4021 0.8442
H36_9 H 0.5123 0.9162 0.0064
N39_9 N 0.41770(12) 0.79351(13) 0.00800(12)
C40_9 C 0.41734(14) 0.83472(16) 0.01412(14)
H40_9 H 0.4021 0.8442 0.0378
N36_5 N 0.48590(9) 0.80120(10) 0.91116(10)
N38_9 N 0.43643(10) 0.86562(12) 0.99024(11)
N40_9 N 0.43843(12) 0.73575(12) 0.96650(14)
H37_9 H 0.4381 0.7223 0.9908
H38_9 H 0.4611 0.7283 0.9524
C36_9 C 0.45864(11) 0.84966(13) 0.95710(12)
C37_9 C 0.49827(12) 0.84085(12) 0.90203(12)
H39_9 H 0.5165 0.8469 0.8793
C38_9 C 0.46042(11) 0.80680(13) 0.94714(12)
C39_9 C 0.43934(12) 0.77747(14) 0.97308(13)
N56_5 N 0.91116(10) 0.48590(9) 0.80120(10)
N58_5 N 0.99024(11) 0.43643(10) 0.86562(12)
N60_5 N 0.96650(14) 0.43843(12) 0.73575(12)
H57_5 H 0.9908 0.4381 0.7223
H58_5 H 0.9524 0.4611 0.7283
C56_5 C 0.95710(12) 0.45864(11) 0.84966(13)
C57_5 C 0.90203(12) 0.49827(12) 0.84085(12)
H59_5 H 0.8793 0.5165 0.8469
C58_5 C 0.94714(12) 0.46042(11) 0.80680(13)
C59_5 C 0.97308(13) 0.43934(12) 0.77747(14)
N63_5 N 0.80120(10) 0.91116(10) 0.48590(9)
N36_6 N 0.01410(9) 0.19880(10) 0.41116(10)
N38_10 N 0.06357(10) 0.13438(12) 0.49024(11)
N39_10 N 0.08230(12) 0.20649(13) 0.50800(12)
N40_10 N 0.06157(12) 0.26425(12) 0.46650(14)
H37_10 H 0.0619 0.2777 0.4908
H38_10 H 0.0389 0.2717 0.4524
C36_10 C 0.04136(11) 0.15034(13) 0.45710(12)
C37_10 C 0.00173(12) 0.15915(12) 0.40203(12)
C38_10 C 0.03958(11) 0.19320(13) 0.44714(12)
C39_10 C 0.06066(12) 0.22253(14) 0.47308(13)
C40_10 C 0.08266(14) 0.16528(16) 0.51412(14)
H40_10 H 0.0979 0.1558 0.5378
H36_10 H 0.9877 0.0838 0.5064
H39_10 H 0.9835 0.1531 0.3793
H56_6 H 0.4936 0.4877 0.4162
N56_6 N 0.58884(10) 0.51410(9) 0.30120(10)
N58_6 N 0.50976(11) 0.56357(10) 0.36562(12)
N59_6 N 0.49200(12) 0.58230(12) 0.29351(13)
N60_6 N 0.53350(14) 0.56157(12) 0.23575(12)
H57_6 H 0.5092 0.5619 0.2223
H58_6 H 0.5476 0.5389 0.2283
C56_6 C 0.54290(12) 0.54136(11) 0.34966(13)
C57_6 C 0.59797(12) 0.50173(12) 0.34085(12)
H59_6 H 0.6207 0.4835 0.3469
C58_6 C 0.55286(12) 0.53958(11) 0.30680(13)
C59_6 C 0.52692(13) 0.56066(12) 0.27747(14)
C60_6 C 0.48588(14) 0.58266(14) 0.33472(16)
H60_6 H 0.4622 0.5979 0.3442
N63_6 N 0.69880(10) 0.08884(10) 0.98590(9)
N56_7 N 0.41116(10) 0.01410(9) 0.19880(10)
N58_7 N 0.49024(11) 0.06357(10) 0.13438(12)
N59_7 N 0.50800(12) 0.08230(12) 0.20649(13)
N60_7 N 0.46650(14) 0.06157(12) 0.26425(12)
H57_7 H 0.4908 0.0619 0.2777
H58_7 H 0.4524 0.0389 0.2717
C56_7 C 0.45710(12) 0.04136(11) 0.15034(13)
C57_7 C 0.40203(12) 0.00173(12) 0.15915(12)
C58_7 C 0.44714(12) 0.03958(11) 0.19320(13)
C59_7 C 0.47308(13) 0.06066(12) 0.22253(14)
C60_7 C 0.51412(14) 0.08266(14) 0.16528(16)
H60_7 H 0.5378 0.0979 0.1558
H39_11 H 0.0165 0.6531 0.1207
H56_7 H 0.5064 0.9877 0.0838
H59_7 H 0.3793 0.9835 0.1531
N63_7 N 0.30120(10) 0.58884(10) 0.51410(9)
H36_11 H 0.0123 0.5838 0.9936
N36_7 N 0.98590(9) 0.69880(10) 0.08884(10)
N38_11 N 0.93643(10) 0.63438(12) 0.00976(11)
N40_11 N 0.93843(12) 0.76425(12) 0.03350(14)
H37_11 H 0.9381 0.7777 0.0092
H38_11 H 0.9611 0.7717 0.0476
C36_11 C 0.95864(11) 0.65034(13) 0.04290(12)
C37_11 C 0.99827(12) 0.65915(12) 0.09797(12)
C38_11 C 0.96042(11) 0.69320(13) 0.05286(12)
C39_11 C 0.93934(12) 0.72253(14) 0.02692(13)
N39_11 N 0.91770(12) 0.70649(13) 0.99200(12)
C40_11 C 0.91734(14) 0.66528(16) 0.98588(14)
H40_11 H 0.9021 0.6558 0.9622
N63_8 N 0.19880(10) 0.41116(10) 0.01410(9)
H36_12 H 0.4877 0.4162 0.4936
N36_8 N 0.51410(9) 0.30120(10) 0.58884(10)
N38_12 N 0.56357(10) 0.36562(12) 0.50976(11)
N39_12 N 0.58230(12) 0.29351(13) 0.49200(12)
N40_12 N 0.56157(12) 0.23575(12) 0.53350(14)
H37_12 H 0.5619 0.2223 0.5092
H38_12 H 0.5389 0.2283 0.5476
C36_12 C 0.54136(11) 0.34966(13) 0.54290(12)
C37_12 C 0.50173(12) 0.34085(12) 0.59797(12)
H39_12 H 0.4835 0.3469 0.6207
C38_12 C 0.53958(11) 0.30680(13) 0.55286(12)
C39_12 C 0.56066(12) 0.27747(14) 0.52692(13)
C40_12 C 0.58266(14) 0.33472(16) 0.48588(14)
H40_12 H 0.5979 0.3442 0.4622
H59_8 H 0.1207 0.0165 0.6531
N56_8 N 0.08884(10) 0.98590(9) 0.69880(10)
N58_8 N 0.00976(11) 0.93643(10) 0.63438(12)
N60_8 N 0.03350(14) 0.93843(12) 0.76425(12)
H57_8 H 0.0092 0.9381 0.7777
H58_8 H 0.0476 0.9611 0.7717
C56_8 C 0.04290(12) 0.95864(11) 0.65034(13)
C57_8 C 0.09797(12) 0.99827(12) 0.65915(12)
C58_8 C 0.05286(12) 0.96042(11) 0.69320(13)
C59_8 C 0.02692(13) 0.93934(12) 0.72253(14)
H56_8 H 0.9936 0.0123 0.5838
N59_8 N 0.99200(12) 0.91770(12) 0.70649(13)
C60_8 C 0.98588(14) 0.91734(14) 0.66528(16)
H60_8 H 0.9622 0.9021 0.6558
H36_13 H 0.4162 0.4936 0.4877
N38_13 N 0.36562(12) 0.50976(11) 0.56357(10)
N39_13 N 0.29351(13) 0.49200(12) 0.58230(12)
N40_13 N 0.23575(12) 0.53350(14) 0.56157(12)
H37_13 H 0.2223 0.5092 0.5619
H38_13 H 0.2283 0.5476 0.5389
C36_13 C 0.34966(13) 0.54290(12) 0.54136(11)
C37_13 C 0.34085(12) 0.59797(12) 0.50173(12)
H39_13 H 0.3469 0.6207 0.4835
C38_13 C 0.30680(13) 0.55286(12) 0.53958(11)
C39_13 C 0.27747(14) 0.52692(13) 0.56066(12)
C40_13 C 0.33472(16) 0.48588(14) 0.58266(14)
H40_13 H 0.3442 0.4622 0.5979
H39_14 H 0.6531 0.1207 0.0165
N38_14 N 0.63438(12) 0.00976(11) 0.93643(10)
N40_14 N 0.76425(12) 0.03350(14) 0.93843(12)
H37_14 H 0.7777 0.0092 0.9381
H38_14 H 0.7717 0.0476 0.9611
C36_14 C 0.65034(13) 0.04290(12) 0.95864(11)
C37_14 C 0.65915(12) 0.09797(12) 0.99827(12)
C38_14 C 0.69320(13) 0.05286(12) 0.96042(11)
C39_14 C 0.72253(14) 0.02692(13) 0.93934(12)
H36_14 H 0.5838 0.9936 0.0123
N39_14 N 0.70649(13) 0.99200(12) 0.91770(12)
C40_14 C 0.66528(16) 0.98588(14) 0.91734(14)
H40_14 H 0.6558 0.9622 0.9021
N38_15 N 0.13438(12) 0.49024(11) 0.06357(10)
N39_15 N 0.20649(13) 0.50800(12) 0.08230(12)
N40_15 N 0.26425(12) 0.46650(14) 0.06157(12)
H37_15 H 0.2777 0.4908 0.0619
H38_15 H 0.2717 0.4524 0.0389
C36_15 C 0.15034(13) 0.45710(12) 0.04136(11)
C37_15 C 0.15915(12) 0.40203(12) 0.00173(12)
C38_15 C 0.19320(13) 0.44714(12) 0.03958(11)
C39_15 C 0.22253(14) 0.47308(13) 0.06066(12)
C40_15 C 0.16528(16) 0.51412(14) 0.08266(14)
H40_15 H 0.1558 0.5378 0.0979
H36_15 H 0.0838 0.5064 0.9877
H39_15 H 0.1531 0.3793 0.9835
H36_16 H 0.9162 0.0064 0.5123
N39_16 N 0.79351(13) 0.00800(12) 0.41770(12)
C40_16 C 0.83472(16) 0.01412(14) 0.41734(14)
H40_16 H 0.8442 0.0378 0.4021
N38_16 N 0.86562(12) 0.99024(11) 0.43643(10)
N40_16 N 0.73575(12) 0.96650(14) 0.43843(12)
H37_16 H 0.7223 0.9908 0.4381
H38_16 H 0.7283 0.9524 0.4611
C36_16 C 0.84966(13) 0.95710(12) 0.45864(11)
C37_16 C 0.84085(12) 0.90203(12) 0.49827(12)
H39_16 H 0.8469 0.8793 0.5165
C38_16 C 0.80680(13) 0.94714(12) 0.46042(11)
C39_16 C 0.77747(14) 0.97308(13) 0.43934(12)
loop_
_geom_bond_atom_site_label_1
_geom_bond_atom_site_label_2
_geom_bond_site_symmetry_1
_geom_bond_site_symmetry_2
Cu4 N6 1_555 1_555
Cu5 O2 1_555 1_555
O2 Cu2 1_555 1_555
N6 C7 1_555 1_555
N7 C6 1_555 1_555
N8 Cu5 1_555 1_555
N9 C9 1_555 1_555
N10 H7 1_555 1_555
H8 N10 1_555 1_555
C6 N8 1_555 1_555
C7 N7 1_555 1_555
C8 N6 1_555 1_555
C9 N10 1_555 1_555
C10 N8 1_555 1_555
H10 C10 1_555 1_555
Cu6 N11 1_555 1_555
O3 Cu2 1_555 1_555
N11 C12 1_555 1_555
N12 C11 1_555 1_555
N15 H12 1_555 1_555
H13 N15 1_555 1_555
C11 N13 1_555 1_555
C12 N12 1_555 1_555
H14 C12 1_555 1_555
C13 N11 1_555 1_555
C14 N15 1_555 1_555
Cu10 O3 1_555 1_555
O5 Cu2 1_555 1_555
H21 O5 1_555 1_555
N21 C22 1_555 1_555
N22 Cu5 1_555 1_555
N23 Cu10 1_555 1_555
N24 C24 1_555 1_555
N25 H22 1_555 1_555
H23 N25 1_555 1_555
C21 N22 1_555 1_555
C22 N22 1_555 1_555
H24 C22 1_555 1_555
C23 N21 1_555 1_555
C24 N25 1_555 1_555
C25 N23 1_555 1_555
H25 C25 1_555 1_555
Cu12 O2 1_555 1_555
H35 C35 1_555 1_555
N50 H47 1_555 1_555
H48 N50 1_555 1_555
Cu17 O12 1_555 1_555
O12 H56 1_555 1_555
N56 Cu6 1_555 1_555
N57 C56 1_555 1_555
N58 Cu17 1_555 1_555
N59 C59 1_555 1_555
N60 H57 1_555 1_555
H58 N60 1_555 1_555
C56 N58 1_555 1_555
C57 N56 1_555 1_555
H59 C57 1_555 1_555
C58 N56 1_555 1_555
C59 N60 1_555 1_555
C60 N58 1_555 1_555
H60 C60 1_555 1_555
Cu18 N21 1_555 1_555
Cu22 O12 1_555 1_555
Cu25 O12 1_555 1_555
O15 Cu17 1_555 1_555
N62 Cu6 1_555 1_555
N63 Cu4 1_555 1_555
N64 Cu6 1_555 1_555
N66 Cu17 1_555 1_555
Cu5 O5 1_555 1_555
N7 Cu12 1_555 1_555
N9 C10 1_555 1_555
C6 C8 1_555 1_555
C8 C9 1_555 1_555
N12 Cu10 1_555 1_555
C11 C13 1_555 1_555
C13 C14 1_555 1_555
Cu10 O5 1_555 1_555
N23 C21 1_555 1_555
N24 C25 1_555 1_555
C21 C23 1_555 1_555
C23 C24 1_555 1_555
N34 C35 1_555 1_555
N57 C57 1_555 1_555
N57 Cu25 1_555 1_555
N59 C60 1_555 1_555
C56 C58 1_555 1_555
C58 C59 1_555 1_555
Cu22 O15 1_555 1_555
Cu1 N1 1_555 1_555
Cu2_2 O1 1_555 1_555
Cu3 O1 1_555 1_555
O1 H1 1_555 1_555
N1 C2 1_555 1_555
N2 C1 1_555 1_555
N3 Cu3 1_555 1_555
N4 C4 1_555 1_555
N5 H2 1_555 1_555
H3 N5 1_555 1_555
C1 N3 1_555 1_555
C2 N2 1_555 1_555
H4 C2 1_555 1_555
C3 N1 1_555 1_555
C4 N5 1_555 1_555
C5 N3 1_555 1_555
H5 C5 1_555 1_555
H15 C15 1_555 1_555
Cu8 O4 1_555 1_555
Cu9 O4 1_555 1_555
O4 H16 1_555 1_555
N16 Cu1 1_555 1_555
N17 C16 1_555 1_555
N18 Cu9 1_555 1_555
N19 C19 1_555 1_555
N20 H17 1_555 1_555
H18 N20 1_555 1_555
C16 N18 1_555 1_555
C17 N16 1_555 1_555
H19 C17 1_555 1_555
C18 N16 1_555 1_555
C19 N20 1_555 1_555
C20 N18 1_555 1_555
H20 C20 1_555 1_555
Cu11 O1 1_555 1_555
O6 Cu2_2 1_555 1_555
N26 C27 1_555 1_555
N27 Cu7 1_555 1_555
N28 Cu11 1_555 1_555
N29 C29 1_555 1_555
N30 H27 1_555 1_555
H28 N30 1_555 1_555
C26 N27 1_555 1_555
C27 N27 1_555 1_555
C28 N26 1_555 1_555
C29 N30 1_555 1_555
C30 N28 1_555 1_555
H30 C30 1_555 1_555
O7 Cu2_2 1_555 1_555
N31 C32 1_555 1_555
N32 Cu3 1_555 1_555
N35 H32 1_555 1_555
H33 N35 1_555 1_555
C31 N32 1_555 1_555
C32 N32 1_555 1_555
H34 C32 1_555 1_555
C33 N31 1_555 1_555
C34 N35 1_555 1_555
Cu13 O8 1_555 1_555
O8 H36 1_555 1_555
N36 Cu1 1_555 1_555
N37 C36 1_555 1_555
N38 Cu13 1_555 1_555
N39 C39 1_555 1_555
N40 H37 1_555 1_555
H38 N40 1_555 1_555
C36 N38 1_555 1_555
C37 N36 1_555 1_555
H39 C37 1_555 1_555
C38 N36 1_555 1_555
C39 N40 1_555 1_555
C40 N38 1_555 1_555
H40 C40 1_555 1_555
Cu14 O9 1_555 1_555
O9 H41 1_555 1_555
N41 Cu1 1_555 1_555
N42 C41 1_555 1_555
N43 Cu14 1_555 1_555
N44 C44 1_555 1_555
N45 H42 1_555 1_555
H43 N45 1_555 1_555
C41 N43 1_555 1_555
C42 N41 1_555 1_555
H44 C42 1_555 1_555
C43 N41 1_555 1_555
C44 N45 1_555 1_555
C45 N43 1_555 1_555
H45 C45 1_555 1_555
Cu15 O10 1_555 1_555
O10 Cu14 1_555 1_555
H46 O10 1_555 1_555
N46 C47 1_555 1_555
N47 Cu14 1_555 1_555
N48 Cu15 1_555 1_555
N49 C49 1_555 1_555
C46 N47 1_555 1_555
C47 N47 1_555 1_555
H49 C47 1_555 1_555
C48 N46 1_555 1_555
C50 N48 1_555 1_555
H50 C50 1_555 1_555
Cu16 O8 1_555 1_555
O11 Cu16 1_555 1_555
H51 O11 1_555 1_555
N51 C52 1_555 1_555
N52 C51 1_555 1_555
N53 Cu16 1_555 1_555
N54 C54 1_555 1_555
N55 H52 1_555 1_555
H53 N55 1_555 1_555
C51 N53 1_555 1_555
C52 N52 1_555 1_555
H54 C52 1_555 1_555
C53 N51 1_555 1_555
C54 N55 1_555 1_555
C55 N53 1_555 1_555
H55 C55 1_555 1_555
Cu19 N31 1_555 1_555
Cu20_2 N26 1_555 1_555
Cu21 O9 1_555 1_555
Cu23 O8 1_555 1_555
Cu24 O9 1_555 1_555
Cu26 O11 1_555 1_555
Cu27 O4 1_555 1_555
O13 Cu8 1_555 1_555
O14 Cu8 1_555 1_555
O16 Cu13 1_555 1_555
O17 Cu8 1_555 1_555
O18 Cu8 1_555 1_555
O19 Cu8 1_555 1_555
O20 Cu15 1_555 1_555
N61 Cu4_2 1_555 1_555
N65 Cu4_2 1_555 1_555
N67 Cu13 1_555 1_555
N68 Cu9 1_555 1_555
N69 Cu15 1_555 1_555
Cu3 O7 1_555 1_555
N2 Cu11 1_555 1_555
N4 C5 1_555 1_555
C1 C3 1_555 1_555
C3 C4 1_555 1_555
Cu7 O6 1_555 1_555
N14 C15 1_555 1_555
Cu9 O19 1_555 1_555
N17 C17 1_555 1_555
N17 Cu27 1_555 1_555
N19 C20 1_555 1_555
C16 C18 1_555 1_555
C18 C19 1_555 1_555
Cu11 O6 1_555 1_555
N28 C26 1_555 1_555
N29 C30 1_555 1_555
C26 C28 1_555 1_555
C28 C29 1_555 1_555
N33 C31 1_555 1_555
C31 C33 1_555 1_555
C33 C34 1_555 1_555
N37 C37 1_555 1_555
N37 Cu16 1_555 1_555
N39 C40 1_555 1_555
C36 C38 1_555 1_555
C38 C39 1_555 1_555
N42 C42 1_555 1_555
N42 Cu24 1_555 1_555
N44 C45 1_555 1_555
C41 C43 1_555 1_555
C43 C44 1_555 1_555
O10 Cu21 1_555 1_555
N46 Cu20_2 1_555 1_555
N48 C46 1_555 1_555
N49 C50 1_555 1_555
C46 C48 1_555 1_555
C48 C49 1_555 1_555
O11 Cu23 1_555 1_555
N51 Cu19 1_555 1_555
N52 Cu26 1_555 1_555
N54 C55 1_555 1_555
C51 C53 1_555 1_555
C53 C54 1_555 1_555
Cu21 O20 1_555 1_555
Cu23 O16 1_555 1_555
Cu27 O18 1_555 1_555
H20_2 C20_2 1_555 1_555
O13_2 Cu8_2 1_555 1_555
O19_2 Cu8_2 1_555 1_555
N68_2 Cu9_2 1_555 1_555
Cu9_2 O19_2 1_555 1_555
N19_2 C20_2 1_555 1_555
H15_2 C15_2 1_555 1_555
Cu8_3 O4_2 1_555 1_555
N16_2 Cu1_2 1_555 1_555
N17_2 C16_2 1_555 1_555
N20_2 H17_2 1_555 1_555
H18_2 N20_2 1_555 1_555
C16_2 N18_2 1_555 1_555
C17_2 N16_2 1_555 1_555
C18_2 N16_2 1_555 1_555
C19_2 N20_2 1_555 1_555
O6_2 Cu2_4 1_555 1_555
N26_2 C27_2 1_555 1_555
N27_2 Cu7_2 1_555 1_555
N30_2 H27_2 1_555 1_555
H28_2 N30_2 1_555 1_555
C26_2 N27_2 1_555 1_555
C27_2 N27_2 1_555 1_555
C28_2 N26_2 1_555 1_555
C29_2 N30_2 1_555 1_555
N40_2 H37_2 1_555 1_555
H38_2 N40_2 1_555 1_555
Cu14_2 O9_2 1_555 1_555
O9_2 H41_2 1_555 1_555
N41_2 Cu1_2 1_555 1_555
N42_2 C41_2 1_555 1_555
N43_2 Cu14_2 1_555 1_555
N44_2 C44_2 1_555 1_555
C41_2 N43_2 1_555 1_555
C42_2 N41_2 1_555 1_555
H44_2 C42_2 1_555 1_555
C43_2 N41_2 1_555 1_555
C45_2 N43_2 1_555 1_555
H45_2 C45_2 1_555 1_555
Cu15_2 O10_2 1_555 1_555
O10_2 Cu14_2 1_555 1_555
H46_2 O10_2 1_555 1_555
N46_2 C47_2 1_555 1_555
N47_2 Cu14_2 1_555 1_555
N48_2 Cu15_2 1_555 1_555
N49_2 C49_2 1_555 1_555
C46_2 N47_2 1_555 1_555
C47_2 N47_2 1_555 1_555
H49_2 C47_2 1_555 1_555
C48_2 N46_2 1_555 1_555
C50_2 N48_2 1_555 1_555
H50_2 C50_2 1_555 1_555
Cu20_3 N26_2 1_555 1_555
Cu21_2 O9_2 1_555 1_555
Cu24_2 O9_2 1_555 1_555
Cu27_2 O4_2 1_555 1_555
O20_2 Cu15_2 1_555 1_555
N69_2 Cu15_2 1_555 1_555
Cu7_2 O6_2 1_555 1_555
N14_2 C15_2 1_555 1_555
N17_2 C17_2 1_555 1_555
N17_2 Cu27_2 1_555 1_555
C16_2 C18_2 1_555 1_555
C18_2 C19_2 1_555 1_555
N28_2 C26_2 1_555 1_555
C26_2 C28_2 1_555 1_555
C28_2 C29_2 1_555 1_555
N42_2 C42_2 1_555 1_555
N42_2 Cu24_2 1_555 1_555
N44_2 C45_2 1_555 1_555
C41_2 C43_2 1_555 1_555
C43_2 C44_2 1_555 1_555
O10_2 Cu21_2 1_555 1_555
N46_2 Cu20_3 1_555 1_555
N48_2 C46_2 1_555 1_555
N49_2 C50_2 1_555 1_555
C46_2 C48_2 1_555 1_555
C48_2 C49_2 1_555 1_555
Cu21_2 O20_2 1_555 1_555
H10_2 C10_2 1_555 1_555
O5_2 Cu2_5 1_555 1_555
N21_2 C22_2 1_555 1_555
N22_2 Cu5_2 1_555 1_555
N25_2 H22_2 1_555 1_555
H23_2 N25_2 1_555 1_555
C21_2 N22_2 1_555 1_555
C22_2 N22_2 1_555 1_555
C23_2 N21_2 1_555 1_555
C24_2 N25_2 1_555 1_555
N60_2 H57_2 1_555 1_555
H58_2 N60_2 1_555 1_555
Cu18_2 N21_2 1_555 1_555
N62_2 Cu6_2 1_555 1_555
N64_2 Cu6_2 1_555 1_555
Cu5_2 O5_2 1_555 1_555
N9_2 C10_2 1_555 1_555
N23_2 C21_2 1_555 1_555
C21_2 C23_2 1_555 1_555
C23_2 C24_2 1_555 1_555
Cu6_3 N11_2 1_555 1_555
O3_2 Cu2_6 1_555 1_555
N11_2 C12_2 1_555 1_555
N12_2 C11_2 1_555 1_555
N15_2 H12_2 1_555 1_555
H13_2 N15_2 1_555 1_555
C11_2 N13_2 1_555 1_555
C12_2 N12_2 1_555 1_555
C13_2 N11_2 1_555 1_555
C14_2 N15_2 1_555 1_555
Cu10_2 O3_2 1_555 1_555
H25_2 C25_2 1_555 1_555
N50_2 H47_2 1_555 1_555
H48_2 N50_2 1_555 1_555
Cu17_2 O12_2 1_555 1_555
O12_2 H56_2 1_555 1_555
N56_2 Cu6_3 1_555 1_555
N57_2 C56_2 1_555 1_555
N58_2 Cu17_2 1_555 1_555
N59_2 C59_2 1_555 1_555
C56_2 N58_2 1_555 1_555
C57_2 N56_2 1_555 1_555
H59_2 C57_2 1_555 1_555
C58_2 N56_2 1_555 1_555
C60_2 N58_2 1_555 1_555
H60_2 C60_2 1_555 1_555
Cu22_2 O12_2 1_555 1_555
Cu25_2 O12_2 1_555 1_555
O15_2 Cu17_2 1_555 1_555
N66_2 Cu17_2 1_555 1_555
N12_2 Cu10_2 1_555 1_555
C11_2 C13_2 1_555 1_555
C13_2 C14_2 1_555 1_555
N24_2 C25_2 1_555 1_555
N57_2 C57_2 1_555 1_555
N57_2 Cu25_2 1_555 1_555
N59_2 C60_2 1_555 1_555
C56_2 C58_2 1_555 1_555
C58_2 C59_2 1_555 1_555
Cu22_2 O15_2 1_555 1_555
H5_2 C5_2 1_555 1_555
O7_2 Cu2_7 1_555 1_555
N31_2 C32_2 1_555 1_555
N32_2 Cu3_2 1_555 1_555
N35_2 H32_2 1_555 1_555
H33_2 N35_2 1_555 1_555
C31_2 N32_2 1_555 1_555
C32_2 N32_2 1_555 1_555
C33_2 N31_2 1_555 1_555
C34_2 N35_2 1_555 1_555
N55_2 H52_2 1_555 1_555
H53_2 N55_2 1_555 1_555
Cu19_2 N31_2 1_555 1_555
O17_2 Cu8_4 1_555 1_555
N61_2 Cu4_3 1_555 1_555
N65_2 Cu4_3 1_555 1_555
Cu3_2 O7_2 1_555 1_555
N4_2 C5_2 1_555 1_555
N33_2 C31_2 1_555 1_555
C31_2 C33_2 1_555 1_555
C33_2 C34_2 1_555 1_555
Cu1_3 N1_2 1_555 1_555
Cu2_8 O1_2 1_555 1_555
N1_2 C2_2 1_555 1_555
N2_2 C1_2 1_555 1_555
N5_2 H2_2 1_555 1_555
H3_2 N5_2 1_555 1_555
C1_2 N3_2 1_555 1_555
C2_2 N2_2 1_555 1_555
C3_2 N1_2 1_555 1_555
C4_2 N5_2 1_555 1_555
Cu11_2 O1_2 1_555 1_555
H30_2 C30_2 1_555 1_555
Cu13_2 O8_2 1_555 1_555
O8_2 H36_2 1_555 1_555
N36_2 Cu1_3 1_555 1_555
N37_2 C36_2 1_555 1_555
N38_2 Cu13_2 1_555 1_555
N39_2 C39_2 1_555 1_555
C36_2 N38_2 1_555 1_555
C37_2 N36_2 1_555 1_555
H39_2 C37_2 1_555 1_555
C38_2 N36_2 1_555 1_555
C40_2 N38_2 1_555 1_555
H40_2 C40_2 1_555 1_555
N45_2 H42_2 1_555 1_555
H43_2 N45_2 1_555 1_555
Cu16_2 O8_2 1_555 1_555
O11_2 Cu16_2 1_555 1_555
H51_2 O11_2 1_555 1_555
N51_2 C52_2 1_555 1_555
N52_2 C51_2 1_555 1_555
N53_2 Cu16_2 1_555 1_555
N54_2 C54_2 1_555 1_555
C51_2 N53_2 1_555 1_555
C52_2 N52_2 1_555 1_555
H54_2 C52_2 1_555 1_555
C53_2 N51_2 1_555 1_555
C55_2 N53_2 1_555 1_555
H55_2 C55_2 1_555 1_555
Cu23_2 O8_2 1_555 1_555
Cu26_2 O11_2 1_555 1_555
O14_2 Cu8_5 1_555 1_555
O16_2 Cu13_2 1_555 1_555
O18_2 Cu8_5 1_555 1_555
N67_2 Cu13_2 1_555 1_555
N2_2 Cu11_2 1_555 1_555
C1_2 C3_2 1_555 1_555
C3_2 C4_2 1_555 1_555
N29_2 C30_2 1_555 1_555
N37_2 C37_2 1_555 1_555
N37_2 Cu16_2 1_555 1_555
N39_2 C40_2 1_555 1_555
C36_2 C38_2 1_555 1_555
C38_2 C39_2 1_555 1_555
O11_2 Cu23_2 1_555 1_555
N51_2 Cu19_3 1_555 1_555
N52_2 Cu26_2 1_555 1_555
N54_2 C55_2 1_555 1_555
C51_2 C53_2 1_555 1_555
C53_2 C54_2 1_555 1_555
Cu23_2 O16_2 1_555 1_555
Cu4_4 N6_2 1_555 1_555
O2_2 Cu2_9 1_555 1_555
N6_2 C7_2 1_555 1_555
N7_2 C6_2 1_555 1_555
N10_2 H7_2 1_555 1_555
H8_2 N10_2 1_555 1_555
C6_2 N8_2 1_555 1_555
C7_2 N7_2 1_555 1_555
C8_2 N6_2 1_555 1_555
C9_2 N10_2 1_555 1_555
Cu12_2 O2_2 1_555 1_555
H35_2 C35_2 1_555 1_555
N63_2 Cu4_4 1_555 1_555
N7_2 Cu12_2 1_555 1_555
C6_2 C8_2 1_555 1_555
C8_2 C9_2 1_555 1_555
N34_2 C35_2 1_555 1_555
Cu1_4 N1_3 1_555 1_555
Cu2_11 O1_3 1_555 1_555
N1_3 C2_3 1_555 1_555
N2_3 C1_3 1_555 1_555
N5_3 H2_3 1_555 1_555
H3_3 N5_3 1_555 1_555
C1_3 N3_3 1_555 1_555
C2_3 N2_3 1_555 1_555
H4_3 C2_3 1_555 1_555
C3_3 N1_3 1_555 1_555
C4_3 N5_3 1_555 1_555
Cu6_4 N11_3 1_555 1_555
Cu7_3 O3_3 1_555 1_555
O3_3 Cu2_11 1_555 1_555
N11_3 C12_3 1_555 1_555
N12_3 C11_3 1_555 1_555
N13_3 Cu7_3 1_555 1_555
N14_3 C14_3 1_555 1_555
N15_3 H12_3 1_555 1_555
H13_3 N15_3 1_555 1_555
C11_3 N13_3 1_555 1_555
C12_3 N12_3 1_555 1_555
C13_3 N11_3 1_555 1_555
C14_3 N15_3 1_555 1_555
C15_3 N13_3 1_555 1_555
H15_3 C15_3 1_555 1_555
Cu8_6 O4_3 1_555 1_555
N16_3 Cu1_4 1_555 1_555
N17_3 C16_3 1_555 1_555
N20_3 H17_3 1_555 1_555
H18_3 N20_3 1_555 1_555
C16_3 N18_3 1_555 1_555
C17_3 N16_3 1_555 1_555
H19_3 C17_3 1_555 1_555
C18_3 N16_3 1_555 1_555
C19_3 N20_3 1_555 1_555
Cu10_3 O3_3 1_555 1_555
H25_3 C25_3 1_555 1_555
Cu11_3 O1_3 1_555 1_555
O6_3 Cu2_11 1_555 1_555
H26_3 O6_3 1_555 1_555
N26_3 C27_3 1_555 1_555
N27_3 Cu7_3 1_555 1_555
N28_3 Cu11_3 1_555 1_555
N29_3 C29_3 1_555 1_555
N30_3 H27_3 1_555 1_555
H28_3 N30_3 1_555 1_555
C26_3 N27_3 1_555 1_555
C27_3 N27_3 1_555 1_555
H29_3 C27_3 1_555 1_555
C28_3 N26_3 1_555 1_555
C29_3 N30_3 1_555 1_555
C30_3 N28_3 1_555 1_555
H30_3 C30_3 1_555 1_555
Cu13_3 O8_3 1_555 1_555
O8_3 H36_3 1_555 1_555
N36_3 Cu1_4 1_555 1_555
N37_3 C36_3 1_555 1_555
N38_3 Cu13_3 1_555 1_555
N39_3 C39_3 1_555 1_555
N40_3 H37_3 1_555 1_555
H38_3 N40_3 1_555 1_555
C36_3 N38_3 1_555 1_555
C37_3 N36_3 1_555 1_555
H39_3 C37_3 1_555 1_555
C38_3 N36_3 1_555 1_555
C39_3 N40_3 1_555 1_555
C40_3 N38_3 1_555 1_555
H40_3 C40_3 1_555 1_555
Cu14_3 O9_3 1_555 1_555
O9_3 H41_3 1_555 1_555
N41_3 Cu1_4 1_555 1_555
N42_3 C41_3 1_555 1_555
N43_3 Cu14_3 1_555 1_555
N44_3 C44_3 1_555 1_555
N45_3 H42_3 1_555 1_555
H43_3 N45_3 1_555 1_555
C41_3 N43_3 1_555 1_555
C42_3 N41_3 1_555 1_555
H44_3 C42_3 1_555 1_555
C43_3 N41_3 1_555 1_555
C44_3 N45_3 1_555 1_555
C45_3 N43_3 1_555 1_555
H45_3 C45_3 1_555 1_555
Cu15_3 O10_3 1_555 1_555
O10_3 Cu14_3 1_555 1_555
H46_3 O10_3 1_555 1_555
N46_3 C47_3 1_555 1_555
N47_3 Cu14_3 1_555 1_555
N48_3 Cu15_3 1_555 1_555
N49_3 C49_3 1_555 1_555
N50_3 H47_3 1_555 1_555
H48_3 N50_3 1_555 1_555
C46_3 N47_3 1_555 1_555
C47_3 N47_3 1_555 1_555
H49_3 C47_3 1_555 1_555
C48_3 N46_3 1_555 1_555
C49_3 N50_3 1_555 1_555
C50_3 N48_3 1_555 1_555
H50_3 C50_3 1_555 1_555
Cu16_3 O8_3 1_555 1_555
O11_3 Cu16_3 1_555 1_555
H51_3 O11_3 1_555 1_555
N51_3 C52_3 1_555 1_555
N52_3 C51_3 1_555 1_555
N53_3 Cu16_3 1_555 1_555
N54_3 C54_3 1_555 1_555
C51_3 N53_3 1_555 1_555
C52_3 N52_3 1_555 1_555
H54_3 C52_3 1_555 1_555
C53_3 N51_3 1_555 1_555
C55_3 N53_3 1_555 1_555
H55_3 C55_3 1_555 1_555
Cu17_3 O12_3 1_555 1_555
O12_3 H56_3 1_555 1_555
N56_3 Cu6_4 1_555 1_555
N57_3 C56_3 1_555 1_555
N58_3 Cu17_3 1_555 1_555
N59_3 C59_3 1_555 1_555
C56_3 N58_3 1_555 1_555
C57_3 N56_3 1_555 1_555
H59_3 C57_3 1_555 1_555
C58_3 N56_3 1_555 1_555
C60_3 N58_3 1_555 1_555
H60_3 C60_3 1_555 1_555
Cu20_5 N26_3 1_555 1_555
Cu21_3 O9_3 1_555 1_555
Cu23 O12_3 1_555 1_555
Cu22 O8_3 1_555 1_555
Cu24_3 O9_3 1_555 1_555
Cu25_3 O12_3 1_555 1_555
Cu26_3 O11_3 1_555 1_555
Cu27_3 O4_3 1_555 1_555
O15_3 Cu17_3 1_555 1_555
O16_3 Cu13_3 1_555 1_555
O18_3 Cu8_6 1_555 1_555
O20_3 Cu15_3 1_555 1_555
N66_3 Cu17_3 1_555 1_555
N67_3 Cu13_3 1_555 1_555
N69_3 Cu15_3 1_555 1_555
N2_3 Cu11_3 1_555 1_555
C1_3 C3_3 1_555 1_555
C3_3 C4_3 1_555 1_555
Cu7_3 O6_3 1_555 1_555
N12_3 Cu10_3 1_555 1_555
N14_3 C15_3 1_555 1_555
C11_3 C13_3 1_555 1_555
C13_3 C14_3 1_555 1_555
N17_3 C17_3 1_555 1_555
N17_3 Cu27_3 1_555 1_555
C16_3 C18_3 1_555 1_555
C18_3 C19_3 1_555 1_555
N24_3 C25_3 1_555 1_555
Cu11_3 O6_3 1_555 1_555
N28_3 C26_3 1_555 1_555
N29_3 C30_3 1_555 1_555
C26_3 C28_3 1_555 1_555
C28_3 C29_3 1_555 1_555
N37_3 C37_3 1_555 1_555
N37_3 Cu16_3 1_555 1_555
N39_3 C40_3 1_555 1_555
C36_3 C38_3 1_555 1_555
C38_3 C39_3 1_555 1_555
N42_3 C42_3 1_555 1_555
N42_3 Cu24_3 1_555 1_555
N44_3 C45_3 1_555 1_555
C41_3 C43_3 1_555 1_555
C43_3 C44_3 1_555 1_555
O10_3 Cu21_3 1_555 1_555
N46_3 Cu20_5 1_555 1_555
N48_3 C46_3 1_555 1_555
N49_3 C50_3 1_555 1_555
C46_3 C48_3 1_555 1_555
C48_3 C49_3 1_555 1_555
O11_3 Cu22 1_555 1_555
N51_3 Cu19_4 1_555 1_555
N52_3 Cu26_3 1_555 1_555
N54_3 C55_3 1_555 1_555
C51_3 C53_3 1_555 1_555
C53_3 C54_3 1_555 1_555
N57_3 C57_3 1_555 1_555
N57_3 Cu25_3 1_555 1_555
N59_3 C60_3 1_555 1_555
C56_3 C58_3 1_555 1_555
C58_3 C59_3 1_555 1_555
Cu21_3 O20_3 1_555 1_555
Cu23 O15_3 1_555 1_555
Cu22 O16_3 1_555 1_555
Cu27_3 O18_3 1_555 1_555
H5_3 C5_3 1_555 1_555
Cu4_5 N6_3 1_555 1_555
Cu5_3 O2_3 1_555 1_555
O2_3 Cu2_12 1_555 1_555
H6_3 O2_3 1_555 1_555
N6_3 C7_3 1_555 1_555
N7_3 C6_3 1_555 1_555
N8_3 Cu5_3 1_555 1_555
N9_3 C9_3 1_555 1_555
N10_3 H7_3 1_555 1_555
H8_3 N10_3 1_555 1_555
C6_3 N8_3 1_555 1_555
C7_3 N7_3 1_555 1_555
H9_3 C7_3 1_555 1_555
C8_3 N6_3 1_555 1_555
C9_3 N10_3 1_555 1_555
C10_3 N8_3 1_555 1_555
H10_3 C10_3 1_555 1_555
H20_3 C20_3 1_555 1_555
O5_3 Cu2_12 1_555 1_555
N21_3 C22_3 1_555 1_555
N22_3 Cu5_3 1_555 1_555
N25_3 H22_3 1_555 1_555
H23_3 N25_3 1_555 1_555
C21_3 N22_3 1_555 1_555
C22_3 N22_3 1_555 1_555
H24_3 C22_3 1_555 1_555
C23_3 N21_3 1_555 1_555
C24_3 N25_3 1_555 1_555
Cu12_3 O2_3 1_555 1_555
O7_3 Cu2_12 1_555 1_555
N31_3 C32_3 1_555 1_555
N32_3 Cu3_3 1_555 1_555
N33_3 Cu12_3 1_555 1_555
N34_3 C34_3 1_555 1_555
N35_3 H32_3 1_555 1_555
H33_3 N35_3 1_555 1_555
C31_3 N32_3 1_555 1_555
C32_3 N32_3 1_555 1_555
C33_3 N31_3 1_555 1_555
C34_3 N35_3 1_555 1_555
C35_3 N33_3 1_555 1_555
H35_3 C35_3 1_555 1_555
N55_3 H52_3 1_555 1_555
H53_3 N55_3 1_555 1_555
N60_3 H57_3 1_555 1_555
H58_3 N60_3 1_555 1_555
Cu18_4 N21_3 1_555 1_555
Cu19_5 N31_3 1_555 1_555
O19_3 Cu8_7 1_555 1_555
N61_3 Cu4_5 1_555 1_555
N62_3 Cu6_5 1_555 1_555
N63_3 Cu4_5 1_555 1_555
N64_3 Cu6_5 1_555 1_555
N65_3 Cu4_5 1_555 1_555
N68_3 Cu9_3 1_555 1_555
Cu3_3 O7_3 1_555 1_555
N4_3 C5_3 1_555 1_555
Cu5_3 O5_3 1_555 1_555
N7_3 Cu12_3 1_555 1_555
N9_3 C10_3 1_555 1_555
C6_3 C8_3 1_555 1_555
C8_3 C9_3 1_555 1_555
Cu9_3 O19_3 1_555 1_555
N19_3 C20_3 1_555 1_555
N23_3 C21_3 1_555 1_555
C21_3 C23_3 1_555 1_555
C23_3 C24_3 1_555 1_555
Cu12_3 O7_3 1_555 1_555
N33_3 C31_3 1_555 1_555
N34_3 C35_3 1_555 1_555
C31_3 C33_3 1_555 1_555
C33_3 C34_3 1_555 1_555
O14_3 Cu8_8 1_555 1_555
O13_3 Cu8_9 1_555 1_555
O17_3 Cu8_9 1_555 1_555
O14_4 Cu8_10 1_555 1_555
O17_4 Cu8_10 1_555 1_555
Cu1_5 N1_4 1_555 1_555
Cu2_13 O1_4 1_555 1_555
Cu3_4 O1_4 1_555 1_555
N1_4 C2_4 1_555 1_555
N2_4 C1_4 1_555 1_555
N3_4 Cu3_4 1_555 1_555
N4_4 C4_4 1_555 1_555
N5_4 H2_4 1_555 1_555
H3_4 N5_4 1_555 1_555
C1_4 N3_4 1_555 1_555
C2_4 N2_4 1_555 1_555
C3_4 N1_4 1_555 1_555
C4_4 N5_4 1_555 1_555
C5_4 N3_4 1_555 1_555
H5_4 C5_4 1_555 1_555
Cu4_6 N6_4 1_555 1_555
O2_4 Cu2_13 1_555 1_555
N6_4 C7_4 1_555 1_555
N7_4 C6_4 1_555 1_555
N10_4 H7_4 1_555 1_555
H8_4 N10_4 1_555 1_555
C6_4 N8_4 1_555 1_555
C7_4 N7_4 1_555 1_555
H9_4 C7_4 1_555 1_555
C8_4 N6_4 1_555 1_555
C9_4 N10_4 1_555 1_555
Cu11_4 O1_4 1_555 1_555
H30_4 C30_4 1_555 1_555
Cu12_4 O2_4 1_555 1_555
O7_4 Cu2_13 1_555 1_555
H31_4 O7_4 1_555 1_555
N31_4 C32_4 1_555 1_555
N32_4 Cu3_4 1_555 1_555
N33_4 Cu12_4 1_555 1_555
N34_4 C34_4 1_555 1_555
N35_4 H32_4 1_555 1_555
H33_4 N35_4 1_555 1_555
C31_4 N32_4 1_555 1_555
C32_4 N32_4 1_555 1_555
H34_4 C32_4 1_555 1_555
C33_4 N31_4 1_555 1_555
C34_4 N35_4 1_555 1_555
C35_4 N33_4 1_555 1_555
H35_4 C35_4 1_555 1_555
Cu13_4 O8_4 1_555 1_555
O8_4 H36_4 1_555 1_555
N36_4 Cu1_5 1_555 1_555
N37_4 C36_4 1_555 1_555
N38_4 Cu13_4 1_555 1_555
N39_4 C39_4 1_555 1_555
C36_4 N38_4 1_555 1_555
C37_4 N36_4 1_555 1_555
H39_4 C37_4 1_555 1_555
C38_4 N36_4 1_555 1_555
C40_4 N38_4 1_555 1_555
H40_4 C40_4 1_555 1_555
N45_4 H42_4 1_555 1_555
H43_4 N45_4 1_555 1_555
Cu16_4 O8_4 1_555 1_555
O11_4 Cu16_4 1_555 1_555
H51_4 O11_4 1_555 1_555
N51_4 C52_4 1_555 1_555
N52_4 C51_4 1_555 1_555
N53_4 Cu16_4 1_555 1_555
N54_4 C54_4 1_555 1_555
N55_4 H52_4 1_555 1_555
H53_4 N55_4 1_555 1_555
C51_4 N53_4 1_555 1_555
C52_4 N52_4 1_555 1_555
H54_4 C52_4 1_555 1_555
C53_4 N51_4 1_555 1_555
C54_4 N55_4 1_555 1_555
C55_4 N53_4 1_555 1_555
H55_4 C55_4 1_555 1_555
Cu19_6 N31_4 1_555 1_555
Cu22_2 O8_4 1_555 1_555
Cu26_4 O11_4 1_555 1_555
O16_4 Cu13_4 1_555 1_555
O18_4 Cu8_11 1_555 1_555
N61_4 Cu4_6 1_555 1_555
N63_4 Cu4_6 1_555 1_555
N65_4 Cu4_6 1_555 1_555
N67_4 Cu13_4 1_555 1_555
Cu3_4 O7_4 1_555 1_555
N2_4 Cu11_4 1_555 1_555
N4_4 C5_4 1_555 1_555
C1_4 C3_4 1_555 1_555
C3_4 C4_4 1_555 1_555
N7_4 Cu12_4 1_555 1_555
C6_4 C8_4 1_555 1_555
C8_4 C9_4 1_555 1_555
N29_4 C30_4 1_555 1_555
Cu12_4 O7_4 1_555 1_555
N33_4 C31_4 1_555 1_555
N34_4 C35_4 1_555 1_555
C31_4 C33_4 1_555 1_555
C33_4 C34_4 1_555 1_555
N37_4 C37_4 1_555 1_555
N37_4 Cu16_4 1_555 1_555
N39_4 C40_4 1_555 1_555
C36_4 C38_4 1_555 1_555
C38_4 C39_4 1_555 1_555
O11_4 Cu22_2 1_555 1_555
N51_4 Cu19_6 1_555 1_555
N52_4 Cu26_4 1_555 1_555
N54_4 C55_4 1_555 1_555
C51_4 C53_4 1_555 1_555
C53_4 C54_4 1_555 1_555
Cu22_2 O16_4 1_555 1_555
O13_4 Cu8_12 1_555 1_555
H10_4 C10_4 1_555 1_555
Cu6_6 N11_4 1_555 1_555
Cu7_4 O3_4 1_555 1_555
O3_4 Cu2_14 1_555 1_555
H11_4 O3_4 1_555 1_555
N11_4 C12_4 1_555 1_555
N12_4 C11_4 1_555 1_555
N13_4 Cu7_4 1_555 1_555
N14_4 C14_4 1_555 1_555
N15_4 H12_4 1_555 1_555
H13_4 N15_4 1_555 1_555
C11_4 N13_4 1_555 1_555
C12_4 N12_4 1_555 1_555
H14_4 C12_4 1_555 1_555
C13_4 N11_4 1_555 1_555
C14_4 N15_4 1_555 1_555
C15_4 N13_4 1_555 1_555
H15_4 C15_4 1_555 1_555
Cu8_13 O4_4 1_555 1_555
Cu9_4 O4_4 1_555 1_555
N16_4 Cu1_6 1_555 1_555
N17_4 C16_4 1_555 1_555
N18_4 Cu9_4 1_555 1_555
N19_4 C19_4 1_555 1_555
N20_4 H17_4 1_555 1_555
H18_4 N20_4 1_555 1_555
C16_4 N18_4 1_555 1_555
C17_4 N16_4 1_555 1_555
C18_4 N16_4 1_555 1_555
C19_4 N20_4 1_555 1_555
C20_4 N18_4 1_555 1_555
H20_4 C20_4 1_555 1_555
Cu10_4 O3_4 1_555 1_555
O5_4 Cu2_14 1_555 1_555
N21_4 C22_4 1_555 1_555
N22_4 Cu5_4 1_555 1_555
N23_4 Cu10_4 1_555 1_555
N24_4 C24_4 1_555 1_555
N25_4 H22_4 1_555 1_555
H23_4 N25_4 1_555 1_555
C21_4 N22_4 1_555 1_555
C22_4 N22_4 1_555 1_555
C23_4 N21_4 1_555 1_555
C24_4 N25_4 1_555 1_555
C25_4 N23_4 1_555 1_555
H25_4 C25_4 1_555 1_555
O6_4 Cu2_14 1_555 1_555
N26_4 C27_4 1_555 1_555
N27_4 Cu7_4 1_555 1_555
N30_4 H27_4 1_555 1_555
H28_4 N30_4 1_555 1_555
C26_4 N27_4 1_555 1_555
C27_4 N27_4 1_555 1_555
H29_4 C27_4 1_555 1_555
C28_4 N26_4 1_555 1_555
C29_4 N30_4 1_555 1_555
N40_4 H37_4 1_555 1_555
H38_4 N40_4 1_555 1_555
Cu14_4 O9_4 1_555 1_555
O9_4 H41_4 1_555 1_555
N41_4 Cu1_6 1_555 1_555
N42_4 C41_4 1_555 1_555
N43_4 Cu14_4 1_555 1_555
N44_4 C44_4 1_555 1_555
C41_4 N43_4 1_555 1_555
C42_4 N41_4 1_555 1_555
H44_4 C42_4 1_555 1_555
C43_4 N41_4 1_555 1_555
C45_4 N43_4 1_555 1_555
H45_4 C45_4 1_555 1_555
Cu15_4 O10_4 1_555 1_555
O10_4 Cu14_4 1_555 1_555
H46_4 O10_4 1_555 1_555
N46_4 C47_4 1_555 1_555
N47_4 Cu14_4 1_555 1_555
N48_4 Cu15_4 1_555 1_555
N49_4 C49_4 1_555 1_555
N50_4 H47_4 1_555 1_555
H48_4 N50_4 1_555 1_555
C46_4 N47_4 1_555 1_555
C47_4 N47_4 1_555 1_555
H49_4 C47_4 1_555 1_555
C48_4 N46_4 1_555 1_555
C49_4 N50_4 1_555 1_555
C50_4 N48_4 1_555 1_555
H50_4 C50_4 1_555 1_555
Cu17_4 O12_4 1_555 1_555
O12_4 H56_4 1_555 1_555
N56_4 Cu6_6 1_555 1_555
N57_4 C56_4 1_555 1_555
N58_4 Cu17_4 1_555 1_555
N59_4 C59_4 1_555 1_555
N60_4 H57_4 1_555 1_555
H58_4 N60_4 1_555 1_555
C56_4 N58_4 1_555 1_555
C57_4 N56_4 1_555 1_555
H59_4 C57_4 1_555 1_555
C58_4 N56_4 1_555 1_555
C59_4 N60_4 1_555 1_555
C60_4 N58_4 1_555 1_555
H60_4 C60_4 1_555 1_555
Cu18_6 N21_4 1_555 1_555
Cu20_6 N26_4 1_555 1_555
Cu21_4 O9_4 1_555 1_555
Cu23_2 O12_4 1_555 1_555
Cu24_4 O9_4 1_555 1_555
Cu25_4 O12_4 1_555 1_555
Cu27_4 O4_4 1_555 1_555
O15_4 Cu17_4 1_555 1_555
O19_4 Cu8_13 1_555 1_555
O20_4 Cu15_4 1_555 1_555
N62_4 Cu6_6 1_555 1_555
N64_4 Cu6_6 1_555 1_555
N66_4 Cu17_4 1_555 1_555
N68_4 Cu9_4 1_555 1_555
N69_4 Cu15_4 1_555 1_555
Cu5_4 O5_4 1_555 1_555
N9_4 C10_4 1_555 1_555
Cu7_4 O6_4 1_555 1_555
N12_4 Cu10_4 1_555 1_555
N14_4 C15_4 1_555 1_555
C11_4 C13_4 1_555 1_555
C13_4 C14_4 1_555 1_555
Cu9_4 O19_4 1_555 1_555
N17_4 C17_4 1_555 1_555
N17_4 Cu27_4 1_555 1_555
N19_4 C20_4 1_555 1_555
C16_4 C18_4 1_555 1_555
C18_4 C19_4 1_555 1_555
Cu10_4 O5_4 1_555 1_555
N23_4 C21_4 1_555 1_555
N24_4 C25_4 1_555 1_555
C21_4 C23_4 1_555 1_555
C23_4 C24_4 1_555 1_555
N28_4 C26_4 1_555 1_555
C26_4 C28_4 1_555 1_555
C28_4 C29_4 1_555 1_555
N42_4 C42_4 1_555 1_555
N42_4 Cu24_4 1_555 1_555
N44_4 C45_4 1_555 1_555
C41_4 C43_4 1_555 1_555
C43_4 C44_4 1_555 1_555
O10_4 Cu21_4 1_555 1_555
N46_4 Cu20_6 1_555 1_555
N48_4 C46_4 1_555 1_555
N49_4 C50_4 1_555 1_555
C46_4 C48_4 1_555 1_555
C48_4 C49_4 1_555 1_555
N57_4 C57_4 1_555 1_555
N57_4 Cu25_4 1_555 1_555
N59_4 C60_4 1_555 1_555
C56_4 C58_4 1_555 1_555
C58_4 C59_4 1_555 1_555
Cu21_4 O20_4 1_555 1_555
Cu23_2 O15_4 1_555 1_555
N50_5 H47_5 1_555 1_555
H48_5 N50_5 1_555 1_555
Cu9_5 O13 1_555 1_555
O13 H16_5 1_555 1_555
N17_5 C16_5 1_555 1_555
N18_5 Cu9_5 1_555 1_555
N19_5 C19_5 1_555 1_555
N20_5 H17_5 1_555 1_555
H18_5 N20_5 1_555 1_555
C16_5 N18_5 1_555 1_555
C17_5 N61_3 1_555 1_555
H19_5 C17_5 1_555 1_555
C18_5 N61_3 1_555 1_555
C19_5 N20_5 1_555 1_555
C20_5 N18_5 1_555 1_555
H20_5 C20_5 1_555 1_555
Cu26_4 O8_5 1_555 1_555
O8_5 H36_5 1_555 1_555
N37_5 C36_5 1_555 1_555
N38_5 Cu26_4 1_555 1_555
N39_5 C39_5 1_555 1_555
N40_5 H37_5 1_555 1_555
H38_5 N40_5 1_555 1_555
C36_5 N38_5 1_555 1_555
C37_5 N63_3 1_555 1_555
H39_5 C37_5 1_555 1_555
C38_5 N63_3 1_555 1_555
C39_5 N40_5 1_555 1_555
C40_5 N38_5 1_555 1_555
H40_5 C40_5 1_555 1_555
Cu14_5 O9_5 1_555 1_555
O9_5 H41_5 1_555 1_555
N42_5 C41_5 1_555 1_555
N43_5 Cu14_5 1_555 1_555
N44_5 C44_5 1_555 1_555
N45_5 H42_5 1_555 1_555
H43_5 N45_5 1_555 1_555
C41_5 N43_5 1_555 1_555
C42_5 N65_3 1_555 1_555
H44_5 C42_5 1_555 1_555
C43_5 N65_3 1_555 1_555
C44_5 N45_5 1_555 1_555
C45_5 N43_5 1_555 1_555
H45_5 C45_5 1_555 1_555
Cu24_2 O10_5 1_555 1_555
O10_5 Cu14_5 1_555 1_555
H46_5 O10_5 1_555 1_555
N46_5 C47_5 1_555 1_555
N47_5 Cu14_5 1_555 1_555
N48_5 Cu24_2 1_555 1_555
N49_5 C49_5 1_555 1_555
C46_5 N47_5 1_555 1_555
C47_5 N47_5 1_555 1_555
H49_5 C47_5 1_555 1_555
C48_5 N46_5 1_555 1_555
C50_5 N48_5 1_555 1_555
H50_5 C50_5 1_555 1_555
Cu16_5 O8_5 1_555 1_555
O15_2 Cu16_5 1_555 1_555
H51_5 O15_2 1_555 1_555
N51_5 C52_5 1_555 1_555
N66_2 C51_5 1_555 1_555
N53_5 Cu16_5 1_555 1_555
N54_5 C54_5 1_555 1_555
N55_5 H52_5 1_555 1_555
H53_5 N55_5 1_555 1_555
C51_5 N53_5 1_555 1_555
C52_5 N66_2 1_555 1_555
H54_5 C52_5 1_555 1_555
C53_5 N51_5 1_555 1_555
C54_5 N55_5 1_555 1_555
C55_5 N53_5 1_555 1_555
H55_5 C55_5 1_555 1_555
Cu21_2 O9_5 1_555 1_555
Cu22_2 O8_5 1_555 1_555
Cu24_5 O9_5 1_555 1_555
Cu27_5 O13 1_555 1_555
N68_5 Cu9_5 1_555 1_555
Cu9_5 O17 1_555 1_555
N17_5 C17_5 1_555 1_555
N17_5 Cu27_5 1_555 1_555
N19_5 C20_5 1_555 1_555
C16_5 C18_5 1_555 1_555
C18_5 C19_5 1_555 1_555
N37_5 C37_5 1_555 1_555
N37_5 Cu16_5 1_555 1_555
N39_5 C40_5 1_555 1_555
C36_5 C38_5 1_555 1_555
C38_5 C39_5 1_555 1_555
N42_5 C42_5 1_555 1_555
N42_5 Cu24_5 1_555 1_555
N44_5 C45_5 1_555 1_555
C41_5 C43_5 1_555 1_555
C43_5 C44_5 1_555 1_555
O10_5 Cu21_2 1_555 1_555
N46_5 Cu19_5 1_555 1_555
N48_5 C46_5 1_555 1_555
N49_5 C50_5 1_555 1_555
C46_5 C48_5 1_555 1_555
C48_5 C49_5 1_555 1_555
N51_5 Cu18_4 1_555 1_555
N54_5 C55_5 1_555 1_555
C51_5 C53_5 1_555 1_555
C53_5 C54_5 1_555 1_555
Cu27_5 O19 1_555 1_555
H20_6 C20_6 1_555 1_555
N68_6 Cu9_6 1_555 1_555
Cu9_6 O17_4 1_555 1_555
N19_6 C20_6 1_555 1_555
N55_6 H52_6 1_555 1_555
H53_6 N55_6 1_555 1_555
N17_6 C16_6 1_555 1_555
N20_6 H17_6 1_555 1_555
H18_6 N20_6 1_555 1_555
C16_6 N18_6 1_555 1_555
C17_6 N61_2 1_555 1_555
C18_6 N61_2 1_555 1_555
C19_6 N20_6 1_555 1_555
N40_6 H37_6 1_555 1_555
H38_6 N40_6 1_555 1_555
Cu14_6 O9_6 1_555 1_555
O9_6 H41_6 1_555 1_555
N42_6 C41_6 1_555 1_555
N43_6 Cu14_6 1_555 1_555
N44_6 C44_6 1_555 1_555
C41_6 N43_6 1_555 1_555
C42_6 N65_2 1_555 1_555
H44_6 C42_6 1_555 1_555
C43_6 N65_2 1_555 1_555
C45_6 N43_6 1_555 1_555
H45_6 C45_6 1_555 1_555
Cu24_3 O10_6 1_555 1_555
O10_6 Cu14_6 1_555 1_555
H46_6 O10_6 1_555 1_555
N46_6 C47_6 1_555 1_555
N47_6 Cu14_6 1_555 1_555
N48_6 Cu24_3 1_555 1_555
N49_6 C49_6 1_555 1_555
C46_6 N47_6 1_555 1_555
C47_6 N47_6 1_555 1_555
H49_6 C47_6 1_555 1_555
C48_6 N46_6 1_555 1_555
C50_6 N48_6 1_555 1_555
H50_6 C50_6 1_555 1_555
Cu21_3 O9_6 1_555 1_555
Cu24_6 O9_6 1_555 1_555
Cu27_6 O13_4 1_555 1_555
N17_6 C17_6 1_555 1_555
N17_6 Cu27_6 1_555 1_555
C16_6 C18_6 1_555 1_555
C18_6 C19_6 1_555 1_555
N42_6 C42_6 1_555 1_555
N42_6 Cu24_6 1_555 1_555
N44_6 C45_6 1_555 1_555
C41_6 C43_6 1_555 1_555
C43_6 C44_6 1_555 1_555
O10_6 Cu21_3 1_555 1_555
N46_6 Cu19_2 1_555 1_555
N48_6 C46_6 1_555 1_555
N49_6 C50_6 1_555 1_555
C46_6 C48_6 1_555 1_555
C48_6 C49_6 1_555 1_555
N50_6 H47_6 1_555 1_555
H48_6 N50_6 1_555 1_555
Cu26 O8_6 1_555 1_555
O8_6 H36_6 1_555 1_555
N37_6 C36_6 1_555 1_555
N38_6 Cu26 1_555 1_555
N39_6 C39_6 1_555 1_555
C36_6 N38_6 1_555 1_555
C37_6 N63_2 1_555 1_555
H39_6 C37_6 1_555 1_555
C38_6 N63_2 1_555 1_555
C40_6 N38_6 1_555 1_555
H40_6 C40_6 1_555 1_555
N45_6 H42_6 1_555 1_555
H43_6 N45_6 1_555 1_555
Cu16_6 O8_6 1_555 1_555
O15_3 Cu16_6 1_555 1_555
H51_6 O15_3 1_555 1_555
N51_6 C52_6 1_555 1_555
N66_3 C51_6 1_555 1_555
N53_6 Cu16_6 1_555 1_555
N54_6 C54_6 1_555 1_555
C51_6 N53_6 1_555 1_555
C52_6 N66_3 1_555 1_555
H54_6 C52_6 1_555 1_555
C53_6 N51_6 1_555 1_555
C55_6 N53_6 1_555 1_555
H55_6 C55_6 1_555 1_555
Cu23 O8_6 1_555 1_555
N37_6 C37_6 1_555 1_555
N37_6 Cu16_6 1_555 1_555
N39_6 C40_6 1_555 1_555
C36_6 C38_6 1_555 1_555
C38_6 C39_6 1_555 1_555
N51_6 Cu18_3 1_555 1_555
N54_6 C55_6 1_555 1_555
C51_6 C53_6 1_555 1_555
C53_6 C54_6 1_555 1_555
N17_7 C16_7 1_555 1_555
N20_7 H17_7 1_555 1_555
H18_7 N20_7 1_555 1_555
C16_7 N18_7 1_555 1_555
C17_7 N61_4 1_555 1_555
H19_7 C17_7 1_555 1_555
C18_7 N61_4 1_555 1_555
C19_7 N20_7 1_555 1_555
Cu26_3 O8_7 1_555 1_555
O8_7 H36_7 1_555 1_555
N37_7 C36_7 1_555 1_555
N38_7 Cu26_3 1_555 1_555
N39_7 C39_7 1_555 1_555
N40_7 H37_7 1_555 1_555
H38_7 N40_7 1_555 1_555
C36_7 N38_7 1_555 1_555
C37_7 N63_4 1_555 1_555
H39_7 C37_7 1_555 1_555
C38_7 N63_4 1_555 1_555
C39_7 N40_7 1_555 1_555
C40_7 N38_7 1_555 1_555
H40_7 C40_7 1_555 1_555
Cu14_7 O9_7 1_555 1_555
O9_7 H41_7 1_555 1_555
N42_7 C41_7 1_555 1_555
N43_7 Cu14_7 1_555 1_555
N44_7 C44_7 1_555 1_555
N45_7 H42_7 1_555 1_555
H43_7 N45_7 1_555 1_555
C41_7 N43_7 1_555 1_555
C42_7 N65_4 1_555 1_555
H44_7 C42_7 1_555 1_555
C43_7 N65_4 1_555 1_555
C44_7 N45_7 1_555 1_555
C45_7 N43_7 1_555 1_555
H45_7 C45_7 1_555 1_555
Cu24 O10_7 1_555 1_555
O10_7 Cu14_7 1_555 1_555
H46_7 O10_7 1_555 1_555
N46_7 C47_7 1_555 1_555
N47_7 Cu14_7 1_555 1_555
N48_7 Cu24 1_555 1_555
N49_7 C49_7 1_555 1_555
N50_7 H47_7 1_555 1_555
H48_7 N50_7 1_555 1_555
C46_7 N47_7 1_555 1_555
C47_7 N47_7 1_555 1_555
H49_7 C47_7 1_555 1_555
C48_7 N46_7 1_555 1_555
C49_7 N50_7 1_555 1_555
C50_7 N48_7 1_555 1_555
H50_7 C50_7 1_555 1_555
Cu16_7 O8_7 1_555 1_555
O15 Cu16_7 1_555 1_555
H51_7 O15 1_555 1_555
N51_7 C52_7 1_555 1_555
N66 C51_7 1_555 1_555
N53_7 Cu16_7 1_555 1_555
N54_7 C54_7 1_555 1_555
C51_7 N53_7 1_555 1_555
C52_7 N66 1_555 1_555
H54_7 C52_7 1_555 1_555
C53_7 N51_7 1_555 1_555
C55_7 N53_7 1_555 1_555
H55_7 C55_7 1_555 1_555
Cu21 O9_7 1_555 1_555
Cu22 O8_7 1_555 1_555
Cu24_7 O9_7 1_555 1_555
Cu27_7 O13_2 1_555 1_555
N17_7 C17_7 1_555 1_555
N17_7 Cu27_7 1_555 1_555
C16_7 C18_7 1_555 1_555
C18_7 C19_7 1_555 1_555
N37_7 C37_7 1_555 1_555
N37_7 Cu16_7 1_555 1_555
N39_7 C40_7 1_555 1_555
C36_7 C38_7 1_555 1_555
C38_7 C39_7 1_555 1_555
N42_7 C42_7 1_555 1_555
N42_7 Cu24_7 1_555 1_555
N44_7 C45_7 1_555 1_555
C41_7 C43_7 1_555 1_555
C43_7 C44_7 1_555 1_555
O10_7 Cu21 1_555 1_555
N46_7 Cu19_6 1_555 1_555
N48_7 C46_7 1_555 1_555
N49_7 C50_7 1_555 1_555
C46_7 C48_7 1_555 1_555
C48_7 C49_7 1_555 1_555
N51_7 Cu18_5 1_555 1_555
N54_7 C55_7 1_555 1_555
C51_7 C53_7 1_555 1_555
C53_7 C54_7 1_555 1_555
Cu27_7 O19_2 1_555 1_555
H20_7 C20_7 1_555 1_555
N55_7 H52_7 1_555 1_555
H53_7 N55_7 1_555 1_555
N68_7 Cu9_7 1_555 1_555
Cu9_7 O17_2 1_555 1_555
N19_7 C20_7 1_555 1_555
Cu26_2 O8_8 1_555 1_555
O8_8 H36_8 1_555 1_555
N37_8 C36_8 1_555 1_555
N38_8 Cu26_2 1_555 1_555
N39_8 C39_8 1_555 1_555
C36_8 N38_8 1_555 1_555
C37_8 N63 1_555 1_555
H39_8 C37_8 1_555 1_555
C38_8 N63 1_555 1_555
C40_8 N38_8 1_555 1_555
H40_8 C40_8 1_555 1_555
N45_8 H42_8 1_555 1_555
H43_8 N45_8 1_555 1_555
Cu16_8 O8_8 1_555 1_555
O15_4 Cu16_8 1_555 1_555
H51_8 O15_4 1_555 1_555
N51_8 C52_8 1_555 1_555
N66_4 C51_8 1_555 1_555
N53_8 Cu16_8 1_555 1_555
N54_8 C54_8 1_555 1_555
N55_8 H52_8 1_555 1_555
H53_8 N55_8 1_555 1_555
C51_8 N53_8 1_555 1_555
C52_8 N66_4 1_555 1_555
H54_8 C52_8 1_555 1_555
C53_8 N51_8 1_555 1_555
C54_8 N55_8 1_555 1_555
C55_8 N53_8 1_555 1_555
H55_8 C55_8 1_555 1_555
Cu23_2 O8_8 1_555 1_555
N37_8 C37_8 1_555 1_555
N37_8 Cu16_8 1_555 1_555
N39_8 C40_8 1_555 1_555
C36_8 C38_8 1_555 1_555
C38_8 C39_8 1_555 1_555
N51_8 Cu18 1_555 1_555
N54_8 C55_8 1_555 1_555
C51_8 C53_8 1_555 1_555
C53_8 C54_8 1_555 1_555
Cu9_8 O13_3 1_555 1_555
N17_8 C16_8 1_555 1_555
N18_8 Cu9_8 1_555 1_555
N19_8 C19_8 1_555 1_555
N20_8 H17_8 1_555 1_555
H18_8 N20_8 1_555 1_555
C16_8 N18_8 1_555 1_555
C17_8 N61 1_555 1_555
C18_8 N61 1_555 1_555
C19_8 N20_8 1_555 1_555
C20_8 N18_8 1_555 1_555
H20_8 C20_8 1_555 1_555
N40_8 H37_8 1_555 1_555
H38_8 N40_8 1_555 1_555
Cu14_8 O9_8 1_555 1_555
O9_8 H41_8 1_555 1_555
N42_8 C41_8 1_555 1_555
N43_8 Cu14_8 1_555 1_555
N44_8 C44_8 1_555 1_555
C41_8 N43_8 1_555 1_555
C42_8 N65 1_555 1_555
H44_8 C42_8 1_555 1_555
C43_8 N65 1_555 1_555
C45_8 N43_8 1_555 1_555
H45_8 C45_8 1_555 1_555
Cu24_4 O10_8 1_555 1_555
O10_8 Cu14_8 1_555 1_555
H46_8 O10_8 1_555 1_555
N46_8 C47_8 1_555 1_555
N47_8 Cu14_8 1_555 1_555
N48_8 Cu24_4 1_555 1_555
N49_8 C49_8 1_555 1_555
N50_8 H47_8 1_555 1_555
H48_8 N50_8 1_555 1_555
C46_8 N47_8 1_555 1_555
C47_8 N47_8 1_555 1_555
H49_8 C47_8 1_555 1_555
C48_8 N46_8 1_555 1_555
C49_8 N50_8 1_555 1_555
C50_8 N48_8 1_555 1_555
H50_8 C50_8 1_555 1_555
Cu21_4 O9_8 1_555 1_555
Cu24_8 O9_8 1_555 1_555
Cu27_8 O13_3 1_555 1_555
N68_8 Cu9_8 1_555 1_555
Cu9_8 O17_3 1_555 1_555
N17_8 C17_8 1_555 1_555
N17_8 Cu27_8 1_555 1_555
N19_8 C20_8 1_555 1_555
C16_8 C18_8 1_555 1_555
C18_8 C19_8 1_555 1_555
N42_8 C42_8 1_555 1_555
N42_8 Cu24_8 1_555 1_555
N44_8 C45_8 1_555 1_555
C41_8 C43_8 1_555 1_555
C43_8 C44_8 1_555 1_555
O10_8 Cu21_4 1_555 1_555
N46_8 Cu19 1_555 1_555
N48_8 C46_8 1_555 1_555
N49_8 C50_8 1_555 1_555
C46_8 C48_8 1_555 1_555
C48_8 C49_8 1_555 1_555
N50_9 H47_9 1_555 1_555
H48_9 N50_9 1_555 1_555
Cu9_9 O14 1_555 1_555
O14 H16_9 1_555 1_555
N17_9 C16_9 1_555 1_555
N18_9 Cu9_9 1_555 1_555
N19_9 C19_9 1_555 1_555
N20_9 H17_9 1_555 1_555
H18_9 N20_9 1_555 1_555
C16_9 N18_9 1_555 1_555
C17_9 N62_4 1_555 1_555
H19_9 C17_9 1_555 1_555
C18_9 N62_4 1_555 1_555
C19_9 N20_9 1_555 1_555
C20_9 N18_9 1_555 1_555
H20_9 C20_9 1_555 1_555
Cu14_9 O20_3 1_555 1_555
O20_3 H41_9 1_555 1_555
N69_3 C41_9 1_555 1_555
N43_9 Cu14_9 1_555 1_555
N44_9 C44_9 1_555 1_555
N45_9 H42_9 1_555 1_555
H43_9 N45_9 1_555 1_555
C41_9 N43_9 1_555 1_555
C42_9 N64_4 1_555 1_555
H44_9 C42_9 1_555 1_555
C43_9 N64_4 1_555 1_555
C44_9 N45_9 1_555 1_555
C45_9 N43_9 1_555 1_555
H45_9 C45_9 1_555 1_555
Cu24_6 O10_9 1_555 1_555
O10_9 Cu14_9 1_555 1_555
H46_9 O10_9 1_555 1_555
N46_9 C47_9 1_555 1_555
N47_9 Cu14_9 1_555 1_555
N48_9 Cu24_6 1_555 1_555
N49_9 C49_9 1_555 1_555
C46_9 N47_9 1_555 1_555
C47_9 N47_9 1_555 1_555
H49_9 C47_9 1_555 1_555
C48_9 N46_9 1_555 1_555
C50_9 N48_9 1_555 1_555
H50_9 C50_9 1_555 1_555
O16_2 Cu25_4 1_555 1_555
H51_9 O16_2 1_555 1_555
N51_9 C52_9 1_555 1_555
N67_2 C51_9 1_555 1_555
N53_9 Cu25_4 1_555 1_555
N54_9 C54_9 1_555 1_555
N55_9 H52_9 1_555 1_555
H53_9 N55_9 1_555 1_555
C51_9 N53_9 1_555 1_555
C52_9 N67_2 1_555 1_555
H54_9 C52_9 1_555 1_555
C53_9 N51_9 1_555 1_555
C54_9 N55_9 1_555 1_555
C55_9 N53_9 1_555 1_555
H55_9 C55_9 1_555 1_555
Cu27_9 O14 1_555 1_555
N68_9 Cu9_9 1_555 1_555
Cu9_9 O18 1_555 1_555
N17_9 C17_9 1_555 1_555
N17_9 Cu27_9 1_555 1_555
N19_9 C20_9 1_555 1_555
C16_9 C18_9 1_555 1_555
C18_9 C19_9 1_555 1_555
N69_3 C42_9 1_555 1_555
N44_9 C45_9 1_555 1_555
C41_9 C43_9 1_555 1_555
C43_9 C44_9 1_555 1_555
O10_9 Cu21_3 1_555 1_555
N46_9 Cu18_6 1_555 1_555
N48_9 C46_9 1_555 1_555
N49_9 C50_9 1_555 1_555
C46_9 C48_9 1_555 1_555
C48_9 C49_9 1_555 1_555
N51_9 Cu20_6 1_555 1_555
N54_9 C55_9 1_555 1_555
C51_9 C53_9 1_555 1_555
C53_9 C54_9 1_555 1_555
Cu27_9 O17 1_555 1_555
H20_10 C20_10 1_555 1_555
N68_10 Cu9_10 1_555 1_555
Cu9_10 O18_3 1_555 1_555
N19_10 C20_10 1_555 1_555
N55_10 H52_10 1_555 1_555
H53_10 N55_10 1_555 1_555
N17_10 C16_10 1_555 1_555
N20_10 H17_10 1_555 1_555
H18_10 N20_10 1_555 1_555
C16_10 N18_10 1_555 1_555
C17_10 N62_2 1_555 1_555
C18_10 N62_2 1_555 1_555
C19_10 N20_10 1_555 1_555
Cu14_10 O20 1_555 1_555
O20 H41_10 1_555 1_555
N69 C41_10 1_555 1_555
N43_10 Cu14_10 1_555 1_555
N44_10 C44_10 1_555 1_555
C41_10 N43_10 1_555 1_555
C42_10 N64_2 1_555 1_555
H44_10 C42_10 1_555 1_555
C43_10 N64_2 1_555 1_555
C45_10 N43_10 1_555 1_555
H45_10 C45_10 1_555 1_555
Cu24_7 O10_10 1_555 1_555
O10_10 Cu14_10 1_555 1_555
H46_10 O10_10 1_555 1_555
N46_10 C47_10 1_555 1_555
N47_10 Cu14_10 1_555 1_555
N48_10 Cu24_7 1_555 1_555
N49_10 C49_10 1_555 1_555
C46_10 N47_10 1_555 1_555
C47_10 N47_10 1_555 1_555
H49_10 C47_10 1_555 1_555
C48_10 N46_10 1_555 1_555
C50_10 N48_10 1_555 1_555
H50_10 C50_10 1_555 1_555
Cu27_10 O14_3 1_555 1_555
N17_10 C17_10 1_555 1_555
N17_10 Cu27_10 1_555 1_555
C16_10 C18_10 1_555 1_555
C18_10 C19_10 1_555 1_555
N69 C42_10 1_555 1_555
N44_10 C45_10 1_555 1_555
C41_10 C43_10 1_555 1_555
C43_10 C44_10 1_555 1_555
O10_10 Cu21 1_555 1_555
N46_10 Cu18_2 1_555 1_555
N48_10 C46_10 1_555 1_555
N49_10 C50_10 1_555 1_555
C46_10 C48_10 1_555 1_555
C48_10 C49_10 1_555 1_555
N45_10 H42_10 1_555 1_555
H43_10 N45_10 1_555 1_555
O16_4 Cu25_2 1_555 1_555
H51_10 O16_4 1_555 1_555
N51_10 C52_10 1_555 1_555
N67_4 C51_10 1_555 1_555
N53_10 Cu25_2 1_555 1_555
N54_10 C54_10 1_555 1_555
C51_10 N53_10 1_555 1_555
C52_10 N67_4 1_555 1_555
H54_10 C52_10 1_555 1_555
C53_10 N51_10 1_555 1_555
C55_10 N53_10 1_555 1_555
H55_10 C55_10 1_555 1_555
N51_10 Cu20_4 1_555 1_555
N54_10 C55_10 1_555 1_555
C51_10 C53_10 1_555 1_555
C53_10 C54_10 1_555 1_555
N50_10 H47_10 1_555 1_555
H48_10 N50_10 1_555 1_555
N17_11 C16_11 1_555 1_555
N20_11 H17_11 1_555 1_555
H18_11 N20_11 1_555 1_555
C16_11 N18_11 1_555 1_555
C17_11 N62 1_555 1_555
H19_11 C17_11 1_555 1_555
C18_11 N62 1_555 1_555
C19_11 N20_11 1_555 1_555
Cu14_11 O20_2 1_555 1_555
O20_2 H41_11 1_555 1_555
N69_2 C41_11 1_555 1_555
N43_11 Cu14_11 1_555 1_555
N44_11 C44_11 1_555 1_555
N45_11 H42_11 1_555 1_555
H43_11 N45_11 1_555 1_555
C41_11 N43_11 1_555 1_555
C42_11 N64 1_555 1_555
H44_11 C42_11 1_555 1_555
C43_11 N64 1_555 1_555
C44_11 N45_11 1_555 1_555
C45_11 N43_11 1_555 1_555
H45_11 C45_11 1_555 1_555
Cu24_5 O10_11 1_555 1_555
O10_11 Cu14_11 1_555 1_555
H46_11 O10_11 1_555 1_555
N46_11 C47_11 1_555 1_555
N47_11 Cu14_11 1_555 1_555
N48_11 Cu24_5 1_555 1_555
N49_11 C49_11 1_555 1_555
N50_11 H47_11 1_555 1_555
H48_11 N50_11 1_555 1_555
C46_11 N47_11 1_555 1_555
C47_11 N47_11 1_555 1_555
H49_11 C47_11 1_555 1_555
C48_11 N46_11 1_555 1_555
C49_11 N50_11 1_555 1_555
C50_11 N48_11 1_555 1_555
H50_11 C50_11 1_555 1_555
O16_3 Cu25 1_555 1_555
H51_11 O16_3 1_555 1_555
N51_11 C52_11 1_555 1_555
N67_3 C51_11 1_555 1_555
N53_11 Cu25 1_555 1_555
N54_11 C54_11 1_555 1_555
C51_11 N53_11 1_555 1_555
C52_11 N67_3 1_555 1_555
H54_11 C52_11 1_555 1_555
C53_11 N51_11 1_555 1_555
C55_11 N53_11 1_555 1_555
H55_11 C55_11 1_555 1_555
Cu27_11 O14_4 1_555 1_555
N17_11 C17_11 1_555 1_555
N17_11 Cu27_11 1_555 1_555
C16_11 C18_11 1_555 1_555
C18_11 C19_11 1_555 1_555
N69_2 C42_11 1_555 1_555
N44_11 C45_11 1_555 1_555
C41_11 C43_11 1_555 1_555
C43_11 C44_11 1_555 1_555
O10_11 Cu21_2 1_555 1_555
N46_11 Cu18 1_555 1_555
N48_11 C46_11 1_555 1_555
N49_11 C50_11 1_555 1_555
C46_11 C48_11 1_555 1_555
C48_11 C49_11 1_555 1_555
N51_11 Cu20 1_555 1_555
N54_11 C55_11 1_555 1_555
C51_11 C53_11 1_555 1_555
C53_11 C54_11 1_555 1_555
Cu27_11 O17_4 1_555 1_555
H20_11 C20_11 1_555 1_555
N55_11 H52_11 1_555 1_555
H53_11 N55_11 1_555 1_555
N68_11 Cu9_11 1_555 1_555
Cu9_11 O18_4 1_555 1_555
N19_11 C20_11 1_555 1_555
N45_12 H42_12 1_555 1_555
H43_12 N45_12 1_555 1_555
O16 Cu25_3 1_555 1_555
H51_12 O16 1_555 1_555
N51_12 C52_12 1_555 1_555
N67 C51_12 1_555 1_555
N53_12 Cu25_3 1_555 1_555
N54_12 C54_12 1_555 1_555
N55_12 H52_12 1_555 1_555
H53_12 N55_12 1_555 1_555
C51_12 N53_12 1_555 1_555
C52_12 N67 1_555 1_555
H54_12 C52_12 1_555 1_555
C53_12 N51_12 1_555 1_555
C54_12 N55_12 1_555 1_555
C55_12 N53_12 1_555 1_555
H55_12 C55_12 1_555 1_555
N51_12 Cu20_5 1_555 1_555
N54_12 C55_12 1_555 1_555
C51_12 C53_12 1_555 1_555
C53_12 C54_12 1_555 1_555
Cu9_12 O14_2 1_555 1_555
N17_12 C16_12 1_555 1_555
N18_12 Cu9_12 1_555 1_555
N19_12 C19_12 1_555 1_555
N20_12 H17_12 1_555 1_555
H18_12 N20_12 1_555 1_555
C16_12 N18_12 1_555 1_555
C17_12 N62_3 1_555 1_555
C18_12 N62_3 1_555 1_555
C19_12 N20_12 1_555 1_555
C20_12 N18_12 1_555 1_555
H20_12 C20_12 1_555 1_555
Cu14_12 O20_4 1_555 1_555
O20_4 H41_12 1_555 1_555
N69_4 C41_12 1_555 1_555
N43_12 Cu14_12 1_555 1_555
N44_12 C44_12 1_555 1_555
C41_12 N43_12 1_555 1_555
C42_12 N64_3 1_555 1_555
H44_12 C42_12 1_555 1_555
C43_12 N64_3 1_555 1_555
C45_12 N43_12 1_555 1_555
H45_12 C45_12 1_555 1_555
Cu24_8 O10_12 1_555 1_555
O10_12 Cu14_12 1_555 1_555
H46_12 O10_12 1_555 1_555
N46_12 C47_12 1_555 1_555
N47_12 Cu14_12 1_555 1_555
N48_12 Cu24_8 1_555 1_555
N49_12 C49_12 1_555 1_555
N50_12 H47_12 1_555 1_555
H48_12 N50_12 1_555 1_555
C46_12 N47_12 1_555 1_555
C47_12 N47_12 1_555 1_555
H49_12 C47_12 1_555 1_555
C48_12 N46_12 1_555 1_555
C49_12 N50_12 1_555 1_555
C50_12 N48_12 1_555 1_555
H50_12 C50_12 1_555 1_555
Cu27_12 O14_2 1_555 1_555
N68_12 Cu9_12 1_555 1_555
Cu9_12 O18_2 1_555 1_555
N17_12 C17_12 1_555 1_555
N17_12 Cu27_12 1_555 1_555
N19_12 C20_12 1_555 1_555
C16_12 C18_12 1_555 1_555
C18_12 C19_12 1_555 1_555
N69_4 C42_12 1_555 1_555
N44_12 C45_12 1_555 1_555
C41_12 C43_12 1_555 1_555
C43_12 C44_12 1_555 1_555
O10_12 Cu21_4 1_555 1_555
N46_12 Cu18_4 1_555 1_555
N48_12 C46_12 1_555 1_555
N49_12 C50_12 1_555 1_555
C46_12 C48_12 1_555 1_555
C48_12 C49_12 1_555 1_555
H60_5 C60_5 1_555 1_555
N59_5 C60_5 1_555 1_555
H40_9 C40_9 1_555 1_555
N39_9 C40_9 1_555 1_555
N36_5 Cu18_4 1_555 1_555
N68_8 C36_9 1_555 1_555
N40_9 H37_9 1_555 1_555
H38_9 N40_9 1_555 1_555
C36_9 N38_9 1_555 1_555
C37_9 N36_5 1_555 1_555
H39_9 C37_9 1_555 1_555
C38_9 N36_5 1_555 1_555
C39_9 N40_9 1_555 1_555
N56_5 Cu20_6 1_555 1_555
N68_12 C56_5 1_555 1_555
N60_5 H57_5 1_555 1_555
H58_5 N60_5 1_555 1_555
C56_5 N58_5 1_555 1_555
C57_5 N56_5 1_555 1_555
H59_5 C57_5 1_555 1_555
C58_5 N56_5 1_555 1_555
C59_5 N60_5 1_555 1_555
N63_5 Cu19 1_555 1_555
N68_8 C37_9 1_555 1_555
C36_9 C38_9 1_555 1_555
C38_9 C39_9 1_555 1_555
N68_12 C57_5 1_555 1_555
C56_5 C58_5 1_555 1_555
C58_5 C59_5 1_555 1_555
N36_6 Cu18_5 1_555 1_555
N68_6 C36_10 1_555 1_555
N38_10 Cu27_11 1_555 1_555
N39_10 C39_10 1_555 1_555
N40_10 H37_10 1_555 1_555
H38_10 N40_10 1_555 1_555
C36_10 N38_10 1_555 1_555
C37_10 N36_6 1_555 1_555
C38_10 N36_6 1_555 1_555
C39_10 N40_10 1_555 1_555
C40_10 N38_10 1_555 1_555
H40_10 C40_10 1_555 1_555
N68_6 C37_10 1_555 1_555
N39_10 C40_10 1_555 1_555
C36_10 C38_10 1_555 1_555
C38_10 C39_10 1_555 1_555
O18 H56_6 1_555 1_555
N56_6 Cu20_5 1_555 1_555
N68_9 C56_6 1_555 1_555
N58_6 Cu27 1_555 1_555
N59_6 C59_6 1_555 1_555
N60_6 H57_6 1_555 1_555
H58_6 N60_6 1_555 1_555
C56_6 N58_6 1_555 1_555
C57_6 N56_6 1_555 1_555
H59_6 C57_6 1_555 1_555
C58_6 N56_6 1_555 1_555
C59_6 N60_6 1_555 1_555
C60_6 N58_6 1_555 1_555
H60_6 C60_6 1_555 1_555
N68_9 C57_6 1_555 1_555
N59_6 C60_6 1_555 1_555
C56_6 C58_6 1_555 1_555
C58_6 C59_6 1_555 1_555
N63_6 Cu19_3 1_555 1_555
N56_7 Cu20 1_555 1_555
N68_10 C56_7 1_555 1_555
N58_7 Cu27_3 1_555 1_555
N59_7 C59_7 1_555 1_555
N60_7 H57_7 1_555 1_555
H58_7 N60_7 1_555 1_555
C56_7 N58_7 1_555 1_555
C57_7 N56_7 1_555 1_555
C58_7 N56_7 1_555 1_555
C59_7 N60_7 1_555 1_555
C60_7 N58_7 1_555 1_555
H60_7 C60_7 1_555 1_555
N68_10 C57_7 1_555 1_555
N59_7 C60_7 1_555 1_555
C56_7 C58_7 1_555 1_555
C58_7 C59_7 1_555 1_555
N63_7 Cu19_6 1_555 1_555
N36_7 Cu18_3 1_555 1_555
N68_7 C36_11 1_555 1_555
N40_11 H37_11 1_555 1_555
H38_11 N40_11 1_555 1_555
C36_11 N38_11 1_555 1_555
C37_11 N36_7 1_555 1_555
C38_11 N36_7 1_555 1_555
C39_11 N40_11 1_555 1_555
N68_7 C37_11 1_555 1_555
C36_11 C38_11 1_555 1_555
C38_11 C39_11 1_555 1_555
H40_11 C40_11 1_555 1_555
N39_11 C40_11 1_555 1_555
N63_8 Cu19_4 1_555 1_555
O17 H36_12 1_555 1_555
N36_8 Cu18 1_555 1_555
N68_5 C36_12 1_555 1_555
N38_12 Cu27_9 1_555 1_555
N39_12 C39_12 1_555 1_555
N40_12 H37_12 1_555 1_555
H38_12 N40_12 1_555 1_555
C36_12 N38_12 1_555 1_555
C37_12 N36_8 1_555 1_555
H39_12 C37_12 1_555 1_555
C38_12 N36_8 1_555 1_555
C39_12 N40_12 1_555 1_555
C40_12 N38_12 1_555 1_555
H40_12 C40_12 1_555 1_555
N68_5 C37_12 1_555 1_555
N39_12 C40_12 1_555 1_555
C36_12 C38_12 1_555 1_555
C38_12 C39_12 1_555 1_555
N56_8 Cu20_4 1_555 1_555
N68_11 C56_8 1_555 1_555
N60_8 H57_8 1_555 1_555
H58_8 N60_8 1_555 1_555
C56_8 N58_8 1_555 1_555
C57_8 N56_8 1_555 1_555
C58_8 N56_8 1_555 1_555
C59_8 N60_8 1_555 1_555
N68_11 C57_8 1_555 1_555
C56_8 C58_8 1_555 1_555
C58_8 C59_8 1_555 1_555
H60_8 C60_8 1_555 1_555
N59_8 C60_8 1_555 1_555
O19 H36_13 1_555 1_555
N68 C36_13 1_555 1_555
N38_13 Cu27_5 1_555 1_555
N39_13 C39_13 1_555 1_555
N40_13 H37_13 1_555 1_555
H38_13 N40_13 1_555 1_555
C36_13 N38_13 1_555 1_555
C37_13 N63_7 1_555 1_555
H39_13 C37_13 1_555 1_555
C38_13 N63_7 1_555 1_555
C39_13 N40_13 1_555 1_555
C40_13 N38_13 1_555 1_555
H40_13 C40_13 1_555 1_555
N68 C37_13 1_555 1_555
N39_13 C40_13 1_555 1_555
C36_13 C38_13 1_555 1_555
C38_13 C39_13 1_555 1_555
N68_3 C36_14 1_555 1_555
N40_14 H37_14 1_555 1_555
H38_14 N40_14 1_555 1_555
C36_14 N38_14 1_555 1_555
C37_14 N63_6 1_555 1_555
C38_14 N63_6 1_555 1_555
C39_14 N40_14 1_555 1_555
N68_3 C37_14 1_555 1_555
C36_14 C38_14 1_555 1_555
C38_14 C39_14 1_555 1_555
H40_14 C40_14 1_555 1_555
N39_14 C40_14 1_555 1_555
N68_2 C36_15 1_555 1_555
N38_15 Cu27_7 1_555 1_555
N39_15 C39_15 1_555 1_555
N40_15 H37_15 1_555 1_555
H38_15 N40_15 1_555 1_555
C36_15 N38_15 1_555 1_555
C37_15 N63_8 1_555 1_555
C38_15 N63_8 1_555 1_555
C39_15 N40_15 1_555 1_555
C40_15 N38_15 1_555 1_555
H40_15 C40_15 1_555 1_555
N68_2 C37_15 1_555 1_555
N39_15 C40_15 1_555 1_555
C36_15 C38_15 1_555 1_555
C38_15 C39_15 1_555 1_555
H40_16 C40_16 1_555 1_555
N39_16 C40_16 1_555 1_555
N68_4 C36_16 1_555 1_555
N40_16 H37_16 1_555 1_555
H38_16 N40_16 1_555 1_555
C36_16 N38_16 1_555 1_555
C37_16 N63_5 1_555 1_555
H39_16 C37_16 1_555 1_555
C38_16 N63_5 1_555 1_555
C39_16 N40_16 1_555 1_555
N68_4 C37_16 1_555 1_555
C36_16 C38_16 1_555 1_555
C38_16 C39_16 1_555 1_555

#END
