
###############################################################################
#
# This file contains modified crystal structure data generated from the
# MOF subset of the Cambridge Structural Database (CSD) v543 
# hosted by the Cambridge Crystallographic Data Centre (CCDC).
#
# This work is licensed under the Creative Commons
# Attribution-NonCommercial-ShareAlike 4.0 International License.
# To view a copy of this license, visit
# http://creativecommons.org/licenses/by-nc-sa/4.0/
# or send a letter to
# Creative Commons, PO Box 1866, Mountain View, CA 94042, USA.
#
# CIF created using the CSD Python API on 29 September 2022
# The structure has been converted into the P1 space group
# The structure has a 3D framework
# The original CSD entry MIXHAF is in the monoclinic crystal system
# The framework has been calculated to contain at least 10.0% void space
# The void calculation uses a probe of radius 1.32A, grid spacing 0.4
# H atom positions have been added when not included in the experimental data
# Generated hydrogen atom positions removed from atoms on special positions
#
###############################################################################

data_MIXHAF
_chemical_formula_moiety         '(C200 H144 N16 O51 Ti18)n'
_symmetry_cell_setting           triclinic
_symmetry_space_group_name_H-M   'P 1'
_symmetry_Int_Tables_number      1
_space_group_name_Hall           'P 1'
loop_
_symmetry_equiv_pos_site_id
_symmetry_equiv_pos_as_xyz
1 x,y,z
_cell_length_a                   16.496(3)
_cell_length_b                   16.181(3)
_cell_length_c                   34.167(5)
_cell_angle_alpha                90
_cell_angle_beta                 92.685(2)
_cell_angle_gamma                90
_cell_volume                     9109.9
loop_
_atom_site_label
_atom_site_type_symbol
_atom_site_fract_x
_atom_site_fract_y
_atom_site_fract_z
Ti20 Ti 0.04637(12) 0.60690(14) 0.01575(6)
Ti2 Ti -0.0000 0.5000 0.5000
O19 O 0.0612(5) 0.0896(5) 0.4423(3)
C100 C 0.0081(10) 0.3381(9) 0.4214(3)
H52 H 0.0455 0.3852 0.4221
H53 H 0.0332 0.2914 0.4082
Ti9 Ti 0.01975(12) 0.71592(15) 0.45010(6)
Ti14 Ti 0.01975(12) 0.78408(15) 0.95010(6)
O30 O 0.0521(4) 0.0353(5) 0.5336(2)
O32 O 0.0541(4) 0.1678(5) 0.53585(19)
O35 O 0.0067(7) 0.6407(6) 0.5109(2)
O39 O 0.0953(5) 0.3499(6) 0.5752(3)
O40 O 0.1166(6) 0.4953(8) 0.4616(3)
O41 O 0.0771(7) 0.4796(7) 0.5545(3)
Ti1 Ti 0.48303(9) 0.43401(17) 0.24304(5)
Ti2_2 Ti 1.0000 0.5000 0.5000
Ti4 Ti 0.04637(12) 0.89310(14) 0.51575(6)
O1 O 0.0521(4) 0.4647(5) 0.0336(2)
O2 O 0.0541(4) 0.3322(5) 0.03585(19)
O3 O 0.8711(4) 0.3126(6) 0.0390(2)
C1 C 0.0781(6) 0.4000(7) 0.0477(3)
O5 O 0.8656(5) 0.4476(6) 0.0308(3)
N1 N 0.4746(5) 0.4080(7) 0.1854(2)
O7 O 0.1081(7) 0.6171(8) 0.4338(3)
O8 O 0.9047(5) 0.6501(6) 0.4248(3)
N2 N 0.3603(4) 0.4316(6) 0.2439(3)
N3 N 0.4909(5) 0.4445(6) 0.3021(2)
O9 O 0.0310(6) 0.7564(7) 0.5351(3)
C2 C 0.1405(5) 0.4000(7) 0.0825(3)
N4 N 0.6050(5) 0.4272(8) 0.2424(3)
O11 O 0.1739(6) 0.8708(6) 0.5512(3)
C3 C 0.2569(5) 0.4037(8) 0.1434(3)
C4 C 0.1830(6) 0.3318(8) 0.0927(3)
H1 H 0.1721 0.2817 0.0790
O12 O 0.9229(7) 0.5204(7) 0.4455(3)
C5 C 0.5589(6) 0.4593(9) 0.3246(3)
C6 C 0.4046(6) 0.4021(8) 0.1607(3)
C7 C 0.8459(6) 0.3776(9) 0.0483(4)
C8 C 0.4256(7) 0.3896(8) 0.1216(3)
H2 H 0.3889 0.3839 0.0995
C9 C 0.2876(7) 0.4700(9) 0.3468(3)
C10 C 0.2415(6) 0.3329(8) 0.1225(4)
H3 H 0.2715 0.2842 0.1286
O13 O 0.0268(8) 0.7670(9) 0.3839(3)
C11 C 0.1851(6) 0.5161(9) 0.4036(4)
C12 C 0.3280(7) 0.4094(8) 0.1738(3)
C13 C 0.0091(7) 0.6848(7) 0.5399(4)
C14 C 0.3065(6) 0.4209(8) 0.2141(3)
C15 C 0.5389(7) 0.4747(8) 0.3654(3)
H4 H 0.5757 0.4860 0.3869
C16 C 0.1306(14) 0.5460(12) 0.4340(6)
C17 C 0.5066(8) 0.3871(9) 0.1212(3)
H5 H 0.5380 0.3801 0.0989
C18 C 0.8877(7) 0.5791(12) 0.4249(5)
C19 C 0.3461(6) 0.4511(8) 0.3163(3)
C20 C 0.2320(8) 0.4395(10) 0.2647(3)
H6 H 0.1878 0.4469 0.2811
C21 C 0.4588(7) 0.4694(8) 0.3657(3)
H7 H 0.4277 0.4765 0.3881
C22 C 0.5370(6) 0.3971(9) 0.1603(4)
C23 C 0.8245(6) 0.5444(8) 0.3946(4)
C24 C 0.1544(8) 0.4739(8) 0.1037(3)
H8 H 0.1247 0.5227 0.0971
C25 C 0.3145(6) 0.4420(9) 0.2757(3)
C26 C 0.4262(6) 0.4515(8) 0.3268(3)
C27 C 0.2513(8) 0.5439(9) 0.3469(3)
H9 H 0.2619 0.5805 0.3260
C28 C 0.2111(7) 0.4737(8) 0.1338(3)
H10 H 0.2198 0.5226 0.1488
C29 C 0.6399(6) 0.4632(9) 0.3108(4)
C30 C 0.6224(6) 0.4037(9) 0.1721(3)
C31 C 0.2714(8) 0.4191(8) 0.3766(4)
H11 H 0.2966 0.3663 0.3775
C32 C 0.6584(6) 0.4479(11) 0.2732(3)
C33 C 0.7030(7) 0.4905(9) 0.3405(4)
C34 C 0.6522(6) 0.4187(10) 0.2102(4)
C35 C 0.7111(5) 0.3156(5) 0.1291(2)
H12 H 0.6947 0.2670 0.1422
C36 C 0.7627(5) 0.3100(4) 0.0982(2)
H13 H 0.7815 0.2574 0.0902
C37 C 0.7867(4) 0.3811(5) 0.0791(2)
C38 C 0.7592(5) 0.4579(5) 0.0909(3)
H14 H 0.7756 0.5065 0.0779
C39 C 0.7076(5) 0.4636(5) 0.1218(3)
H15 H 0.6887 0.5161 0.1299
C40 C 0.6835(5) 0.3925(6) 0.1409(2)
C41 C 0.2280(8) 0.4244(9) 0.2261(3)
H16 H 0.1800 0.4175 0.2100
C42 C 0.2200(9) 0.4395(9) 0.4063(4)
H17 H 0.2097 0.4025 0.4271
C43 C 0.1987(8) 0.5718(9) 0.3754(4)
H18 H 0.1749 0.6252 0.3747
C44 C 0.8115(10) 0.4669(10) 0.3910(5)
H19 H 0.8457 0.4280 0.4045
C45 C 0.7844(8) 0.5947(10) 0.3691(5)
H20 H 0.7986 0.6517 0.3694
C46 C 0.7423(10) 0.4388(11) 0.3654(4)
H21 H 0.7252 0.3829 0.3667
C47 C 0.7350(8) 0.4277(11) 0.2210(4)
H22 H 0.7790 0.4240 0.2042
C48 C 0.7241(10) 0.5690(13) 0.3425(5)
H23 H 0.6976 0.6082 0.3256
C49 C 0.7399(7) 0.4427(12) 0.2596(5)
H24 H 0.7886 0.4488 0.2753
H27 H 0.0424 0.6465 0.5931
Ti5 Ti 0.51697(9) 0.56599(17) 0.75696(5)
Ti6 Ti 0.98025(12) 0.28408(15) 0.54990(6)
Ti7 Ti 0.95363(12) 0.10690(14) 0.48425(6)
O14 O 0.9479(4) 0.5353(5) 0.9664(2)
O15 O 0.9459(4) 0.6678(5) 0.96415(19)
O16 O 0.1289(4) 0.6874(6) 0.9610(2)
C51 C 0.9219(6) 0.6000(7) 0.9523(3)
O17 O 0.9933(7) 0.3593(6) 0.4891(2)
O18 O 0.1344(5) 0.5524(6) 0.9692(3)
N5 N 0.5254(5) 0.5920(7) 0.8146(2)
O20 O 0.8919(7) 0.3829(8) 0.5662(3)
N6 N 0.6397(4) 0.5684(6) 0.7561(3)
N7 N 0.5091(5) 0.5555(6) 0.6979(2)
O22 O 0.9690(6) 0.2436(7) 0.4649(3)
C52 C 0.8595(5) 0.6000(7) 0.9175(3)
O23 O 0.8834(6) 0.5047(8) 0.5384(3)
N8 N 0.3950(5) 0.5728(8) 0.7576(3)
O24 O 0.8261(6) 0.1292(6) 0.4488(3)
C53 C 0.7431(5) 0.5963(8) 0.8566(3)
C54 C 0.8170(6) 0.6682(8) 0.9073(3)
H28 H 0.8279 0.7183 0.9210
C55 C 0.4411(6) 0.5407(9) 0.6754(3)
C56 C 0.5954(6) 0.5979(8) 0.8393(3)
C57 C 0.1541(6) 0.6224(9) 0.9517(4)
C58 C 0.5744(7) 0.6104(8) 0.8784(3)
H29 H 0.6111 0.6161 0.9005
C59 C 0.7124(7) 0.5300(9) 0.6532(3)
C60 C 0.7585(6) 0.6671(8) 0.8775(4)
H30 H 0.7285 0.7158 0.8714
O26 O 0.9732(8) 0.2330(9) 0.6161(3)
C61 C 0.8149(6) 0.4839(9) 0.5964(4)
C62 C 0.6720(7) 0.5906(8) 0.8262(3)
C63 C 0.9909(7) 0.3152(7) 0.4601(4)
C64 C 0.6935(6) 0.5791(8) 0.7859(3)
C65 C 0.4611(7) 0.5253(8) 0.6346(3)
H31 H 0.4243 0.5140 0.6131
C66 C 0.8694(14) 0.4540(12) 0.5660(6)
C67 C 0.4934(8) 0.6129(9) 0.8788(3)
H32 H 0.4620 0.6199 0.9011
C68 C 0.1123(7) 0.4209(12) 0.5751(5)
C69 C 0.6539(6) 0.5489(8) 0.6837(3)
C70 C 0.7680(8) 0.5605(10) 0.7353(3)
H33 H 0.8122 0.5531 0.7189
C71 C 0.5412(7) 0.5306(8) 0.6343(3)
H34 H 0.5723 0.5235 0.6119
C72 C 0.4630(6) 0.6029(9) 0.8397(4)
C73 C 0.1755(6) 0.4556(8) 0.6054(4)
C74 C 0.8456(8) 0.5261(8) 0.8963(3)
H35 H 0.8753 0.4773 0.9029
C75 C 0.6855(6) 0.5580(9) 0.7243(3)
C76 C 0.5738(6) 0.5485(8) 0.6732(3)
C77 C 0.7487(8) 0.4561(9) 0.6531(3)
H36 H 0.7381 0.4195 0.6740
C78 C 0.7889(7) 0.5263(8) 0.8662(3)
H37 H 0.7802 0.4774 0.8512
C79 C 0.3601(6) 0.5368(9) 0.6892(4)
C80 C 0.3776(6) 0.5963(9) 0.8279(3)
C81 C 0.7286(8) 0.5809(8) 0.6234(4)
H38 H 0.7034 0.6337 0.6225
C82 C 0.3416(6) 0.5521(11) 0.7268(3)
C83 C 0.2970(7) 0.5095(9) 0.6595(4)
C84 C 0.3478(6) 0.5813(10) 0.7898(4)
C85 C 0.2889(5) 0.6844(5) 0.8709(2)
H39 H 0.3053 0.7330 0.8578
C86 C 0.2373(5) 0.6900(4) 0.9018(2)
H40 H 0.2185 0.7426 0.9098
C87 C 0.2133(4) 0.6189(5) 0.9209(2)
C88 C 0.2408(5) 0.5421(5) 0.9091(3)
H41 H 0.2244 0.4935 0.9221
C89 C 0.2924(5) 0.5364(5) 0.8782(3)
H42 H 0.3113 0.4839 0.8701
C90 C 0.3165(5) 0.6075(6) 0.8591(2)
C91 C 0.7720(8) 0.5756(9) 0.7739(3)
H43 H 0.8200 0.5825 0.7900
C92 C 0.7800(9) 0.5605(9) 0.5937(4)
H44 H 0.7903 0.5975 0.5729
C93 C 0.8013(8) 0.4282(9) 0.6246(4)
H45 H 0.8251 0.3748 0.6253
C94 C 0.1885(10) 0.5331(10) 0.6090(5)
H46 H 0.1543 0.5720 0.5955
C95 C 0.2156(8) 0.4053(10) 0.6309(5)
H47 H 0.2014 0.3483 0.6306
C96 C 0.2577(10) 0.5612(11) 0.6346(4)
H48 H 0.2748 0.6171 0.6333
C97 C 0.2650(8) 0.5723(11) 0.7790(4)
H49 H 0.2210 0.5760 0.7958
C98 C 0.2759(10) 0.4310(13) 0.6575(5)
H50 H 0.3024 0.3918 0.6744
C99 C 0.2601(7) 0.5573(12) 0.7404(5)
H51 H 0.2114 0.5512 0.7247
H54 H 0.9576 0.3535 0.4069
Ti11 Ti 0.98025(12) 0.21592(15) 0.04990(6)
Ti17 Ti 0.95363(12) 0.39310(14) 0.98425(6)
O33 O 0.1289(4) 0.8126(6) 0.4610(2)
O34 O 0.8711(4) 0.1874(6) 0.5390(2)
O36 O 0.1344(5) 0.9476(6) 0.4692(3)
O37 O 0.8656(5) 0.0524(6) 0.5308(3)
H56 H 0.0407152 0.826706 0.384543
H65 H 0.930858 0.263901 0.629754
H66 H 0.959285 0.173294 0.615457
O28 O 0.9479(4) 0.9647(5) 0.4664(2)
O6 O 0.9388(5) 0.9104(5) 0.5577(3)
C50 C 0.9919(10) 0.6619(9) 0.5786(3)
H25 H 0.9545 0.6148 0.5779
H26 H 0.9668 0.7086 0.5918
O31 O 0.9459(4) 0.8322(5) 0.46415(19)
H55 H 0.97344 0.759189 0.369703
Ti8 Ti 0.0000 -0.0000 0.0000
O38 O 0.0953(5) 0.1501(6) 0.0752(3)
H55_2 H 0.0265595 0.259189 0.130297
O6_2 O 0.0612(5) 0.4104(5) 0.9423(3)
C50_2 C 0.0081(10) 0.1619(9) 0.9214(3)
H25_2 H 0.0455 0.1148 0.9221
H26_2 H 0.0332 0.2086 0.9082
Ti8_2 Ti 0.0000 -0.0000 1.0000
Ti8_3 Ti 0.0000 1.0000 0.0000
Ti8_4 Ti 0.0000 1.0000 1.0000
O7_2 O 0.8919(7) 0.1171(8) 0.0662(3)
O12_2 O 0.0771(7) 0.0204(7) 0.0545(3)
O13_2 O 0.9732(8) 0.2670(9) 0.1161(3)
C11_2 C 0.8149(6) 0.0161(9) 0.0964(4)
C16_2 C 0.8694(14) 0.0460(12) 0.0660(6)
C18_2 C 0.1123(7) 0.0791(12) 0.0751(5)
C23_2 C 0.1755(6) 0.0444(8) 0.1054(4)
H8_2 H 0.8753 0.0227 0.4029
C27_2 C 0.7487(8) 0.0439(9) 0.1531(3)
H9_2 H 0.7381 0.0805 0.1740
H10_2 H 0.7802 0.0226 0.3512
H14_2 H 0.2244 0.0065 0.4221
H15_2 H 0.3113 0.0161 0.3701
C43_2 C 0.8013(8) 0.0718(9) 0.1246(4)
H18_2 H 0.8251 0.1252 0.1253
C45_2 C 0.2156(8) 0.0947(10) 0.1309(5)
H20_2 H 0.2014 0.1517 0.1306
C48_2 C 0.2759(10) 0.0690(13) 0.1575(5)
H23_2 H 0.3024 0.1082 0.1744
Ti8_5 Ti 1.0000 -0.0000 0.0000
H56_2 H 0.959285 0.326706 0.115457
O4 O 0.9933(7) 0.1407(6) 0.9891(2)
O9_2 O 0.9690(6) 0.2564(7) 0.9649(3)
O11_2 O 0.8261(6) 0.3708(6) 0.9488(3)
C13_2 C 0.9909(7) 0.1848(7) 0.9601(4)
H27_2 H 0.9576 0.1465 0.9069
Ti5_2 Ti 0.48303(9) 0.06599(17) 0.74304(5)
C51_2 C 0.0781(6) 0.1000(7) 0.5477(3)
N5_2 N 0.4746(5) 0.0920(7) 0.6854(2)
N6_2 N 0.3603(4) 0.0684(6) 0.7439(3)
N7_2 N 0.4909(5) 0.0555(6) 0.8021(2)
C52_2 C 0.1405(5) 0.1000(7) 0.5825(3)
O23_2 O 0.1166(6) 0.0047(8) 0.9616(3)
N8_2 N 0.6050(5) 0.0728(8) 0.7424(3)
C53_2 C 0.2569(5) 0.0963(8) 0.6434(3)
C54_2 C 0.1830(6) 0.1682(8) 0.5927(3)
H28_2 H 0.1721 0.2183 0.5790
C55_2 C 0.5589(6) 0.0407(9) 0.8246(3)
C56_2 C 0.4046(6) 0.0979(8) 0.6607(3)
C57_2 C 0.8459(6) 0.1224(9) 0.5483(4)
C58_2 C 0.4256(7) 0.1104(8) 0.6216(3)
H29_2 H 0.3889 0.1161 0.5995
C59_2 C 0.2876(7) 0.0300(9) 0.8468(3)
C60_2 C 0.2415(6) 0.1671(8) 0.6225(4)
H30_2 H 0.2715 0.2158 0.6286
C62_2 C 0.3280(7) 0.0906(8) 0.6738(3)
C64_2 C 0.3065(6) 0.0791(8) 0.7141(3)
C65_2 C 0.5389(7) 0.0253(8) 0.8654(3)
H31_2 H 0.5757 0.0140 0.8869
C67_2 C 0.5066(8) 0.1129(9) 0.6212(3)
H32_2 H 0.5380 0.1199 0.5989
C69_2 C 0.3461(6) 0.0489(8) 0.8163(3)
C70_2 C 0.2320(8) 0.0605(10) 0.7647(3)
H33_2 H 0.1878 0.0531 0.7811
C71_2 C 0.4588(7) 0.0306(8) 0.8657(3)
H34_2 H 0.4277 0.0235 0.8881
C72_2 C 0.5370(6) 0.1029(9) 0.6603(4)
C74_2 C 0.1544(8) 0.0261(8) 0.6037(3)
C75_2 C 0.3145(6) 0.0580(9) 0.7757(3)
C76_2 C 0.4262(6) 0.0485(8) 0.8268(3)
C78_2 C 0.2111(7) 0.0263(8) 0.6338(3)
C79_2 C 0.6399(6) 0.0368(9) 0.8108(4)
C80_2 C 0.6224(6) 0.0963(9) 0.6721(3)
C81_2 C 0.2714(8) 0.0809(8) 0.8766(4)
H38_2 H 0.2966 0.1337 0.8775
C82_2 C 0.6584(6) 0.0521(11) 0.7732(3)
C83_2 C 0.7030(7) 0.0095(9) 0.8405(4)
C84_2 C 0.6522(6) 0.0813(10) 0.7102(4)
C85_2 C 0.7111(5) 0.1844(5) 0.6291(2)
H39_2 H 0.6947 0.2330 0.6422
C86_2 C 0.7627(5) 0.1900(4) 0.5982(2)
H40_2 H 0.7815 0.2426 0.5902
C87_2 C 0.7867(4) 0.1189(5) 0.5791(2)
C88_2 C 0.7592(5) 0.0421(5) 0.5909(3)
C89_2 C 0.7076(5) 0.0364(5) 0.6218(3)
C90_2 C 0.6835(5) 0.1075(6) 0.6409(2)
C91_2 C 0.2280(8) 0.0756(9) 0.7261(3)
H43_2 H 0.1800 0.0825 0.7100
C92_2 C 0.2200(9) 0.0605(9) 0.9063(4)
H44_2 H 0.2097 0.0975 0.9271
C94_2 C 0.8115(10) 0.0331(10) 0.8910(5)
H46_2 H 0.8457 0.0720 0.9045
C96_2 C 0.7423(10) 0.0612(11) 0.8654(4)
H48_2 H 0.7252 0.1171 0.8667
C97_2 C 0.7350(8) 0.0723(11) 0.7210(4)
H49_2 H 0.7790 0.0760 0.7042
C99_2 C 0.7399(7) 0.0573(12) 0.7596(5)
H51_2 H 0.7886 0.0512 0.7753
Ti8_6 Ti 1.0000 -0.0000 1.0000
Ti1_2 Ti 0.51697(9) 0.93401(17) 0.25696(5)
C1_2 C 0.9219(6) 0.9000(7) 0.4523(3)
N1_2 N 0.5254(5) 0.9080(7) 0.3146(2)
N2_2 N 0.6397(4) 0.9316(6) 0.2561(3)
N3_2 N 0.5091(5) 0.9445(6) 0.1979(2)
C2_2 C 0.8595(5) 0.9000(7) 0.4175(3)
O10 O 0.8834(6) 0.9953(8) 0.0384(3)
N4_2 N 0.3950(5) 0.9272(8) 0.2576(3)
C3_2 C 0.7431(5) 0.9037(8) 0.3566(3)
C4_2 C 0.8170(6) 0.8318(8) 0.4073(3)
H1_2 H 0.8279 0.7817 0.4210
C5_2 C 0.4411(6) 0.9593(9) 0.1754(3)
C6_2 C 0.5954(6) 0.9021(8) 0.3393(3)
C7_2 C 0.1541(6) 0.8776(9) 0.4517(4)
C8_2 C 0.5744(7) 0.8896(8) 0.3784(3)
H2_2 H 0.6111 0.8839 0.4005
C9_2 C 0.7124(7) 0.9700(9) 0.1532(3)
C10_2 C 0.7585(6) 0.8329(8) 0.3775(4)
H3_2 H 0.7285 0.7842 0.3714
C12_2 C 0.6720(7) 0.9094(8) 0.3262(3)
C14_2 C 0.6935(6) 0.9209(8) 0.2859(3)
C15_2 C 0.4611(7) 0.9747(8) 0.1346(3)
H4_2 H 0.4243 0.9860 0.1131
C17_2 C 0.4934(8) 0.8871(9) 0.3788(3)
H5_2 H 0.4620 0.8801 0.4011
C19_2 C 0.6539(6) 0.9511(8) 0.1837(3)
C20_2 C 0.7680(8) 0.9395(10) 0.2353(3)
H6_2 H 0.8122 0.9469 0.2189
C21_2 C 0.5412(7) 0.9694(8) 0.1343(3)
H7_2 H 0.5723 0.9765 0.1119
C22_2 C 0.4630(6) 0.8971(9) 0.3397(4)
C24_2 C 0.8456(8) 0.9739(8) 0.3963(3)
C25_2 C 0.6855(6) 0.9420(9) 0.2243(3)
C26_2 C 0.5738(6) 0.9515(8) 0.1732(3)
C28_2 C 0.7889(7) 0.9737(8) 0.3662(3)
C29_2 C 0.3601(6) 0.9632(9) 0.1892(4)
C30_2 C 0.3776(6) 0.9037(9) 0.3279(3)
C31_2 C 0.7286(8) 0.9191(8) 0.1234(4)
H11_2 H 0.7034 0.8663 0.1225
C32_2 C 0.3416(6) 0.9479(11) 0.2268(3)
C33_2 C 0.2970(7) 0.9905(9) 0.1595(4)
C34_2 C 0.3478(6) 0.9187(10) 0.2898(4)
C35_2 C 0.2889(5) 0.8156(5) 0.3709(2)
H12_2 H 0.3053 0.7670 0.3578
C36_2 C 0.2373(5) 0.8100(4) 0.4018(2)
H13_2 H 0.2185 0.7574 0.4098
C37_2 C 0.2133(4) 0.8811(5) 0.4209(2)
C38_2 C 0.2408(5) 0.9579(5) 0.4091(3)
C39_2 C 0.2924(5) 0.9636(5) 0.3782(3)
C40_2 C 0.3165(5) 0.8925(6) 0.3591(2)
C41_2 C 0.7720(8) 0.9244(9) 0.2739(3)
H16_2 H 0.8200 0.9175 0.2900
C42_2 C 0.7800(9) 0.9395(9) 0.0937(4)
H17_2 H 0.7903 0.9025 0.0729
C44_2 C 0.1885(10) 0.9669(10) 0.1090(5)
H19_2 H 0.1543 0.9280 0.0955
C46_2 C 0.2577(10) 0.9388(11) 0.1346(4)
H21_2 H 0.2748 0.8829 0.1333
C47_2 C 0.2650(8) 0.9277(11) 0.2790(4)
H22_2 H 0.2210 0.9240 0.2958
C49_2 C 0.2601(7) 0.9427(12) 0.2404(5)
H24_2 H 0.2114 0.9488 0.2247
O17_2 O 0.0067(7) 0.8593(6) 0.0109(2)
O22_2 O 0.0310(6) 0.7436(7) 0.0351(3)
O24_2 O 0.1739(6) 0.6292(6) 0.0512(3)
C63_2 C 0.0091(7) 0.8152(7) 0.0399(4)
H54_2 H 0.0424 0.8535 0.0931
Ti8_7 Ti 1.0000 1.0000 0.0000
O20_2 O 0.1081(7) 0.8829(8) 0.9338(3)
O21 O 0.9047(5) 0.8499(6) 0.9248(3)
O25 O 0.9229(7) 0.9796(7) 0.9455(3)
O26_2 O 0.0268(8) 0.7330(9) 0.8839(3)
C61_2 C 0.1851(6) 0.9839(9) 0.9036(4)
C66_2 C 0.1306(14) 0.9540(12) 0.9340(6)
C68_2 C 0.8877(7) 0.9209(12) 0.9249(5)
C73_2 C 0.8245(6) 0.9556(8) 0.8946(4)
H35_2 H 0.1247 0.9773 0.5971
C77_2 C 0.2513(8) 0.9561(9) 0.8469(3)
H36_2 H 0.2619 0.9195 0.8260
H37_2 H 0.2198 0.9774 0.6488
H41_2 H 0.7756 0.9935 0.5779
H42_2 H 0.6887 0.9839 0.6299
C93_2 C 0.1987(8) 0.9282(9) 0.8754(4)
H45_2 H 0.1749 0.8748 0.8747
C95_2 C 0.7844(8) 0.9053(10) 0.8691(5)
H47_2 H 0.7986 0.8483 0.8694
C98_2 C 0.7241(10) 0.9310(13) 0.8425(5)
H50_2 H 0.6976 0.8918 0.8256
Ti8_8 Ti 1.0000 1.0000 1.0000
H65_2 H 0.0691419 0.763901 0.870246
H66_2 H 0.0407152 0.673294 0.884543
O19_2 O 0.9388(5) 0.5896(5) 0.0577(3)
C100_2 C 0.9919(10) 0.8381(9) 0.0786(3)
H52_2 H 0.9545 0.8852 0.0779
H53_2 H 0.9668 0.7914 0.0918
H55_3 H 0.0265595 0.240811 0.630297
H65_3 H 0.0691419 0.736099 0.370246
H65_4 H 0.930858 0.236099 0.129754
H55_4 H 0.97344 0.740811 0.869703
loop_
_geom_bond_atom_site_label_1
_geom_bond_atom_site_label_2
_geom_bond_site_symmetry_1
_geom_bond_site_symmetry_2
H52 C100 1_555 1_555
H53 C100 1_555 1_555
O35 Ti2 1_555 1_555
O40 Ti2 1_555 1_555
O41 Ti2 1_555 1_555
Ti9 O35 1_555 1_555
Ti1 N1 1_555 1_555
Ti2_2 O12 1_555 1_555
O1 C1 1_555 1_555
O2 C1 1_555 1_555
O3 C7 1_555 1_555
C1 C2 1_555 1_555
O35 C13 1_555 1_555
O5 C7 1_555 1_555
N1 C6 1_555 1_555
O7 Ti9 1_555 1_555
O8 C18 1_555 1_555
N2 Ti1 1_555 1_555
N3 Ti1 1_555 1_555
O9 Ti4 1_555 1_555
C2 C4 1_555 1_555
O40 C16 1_555 1_555
N4 Ti1 1_555 1_555
O11 Ti4 1_555 1_555
C3 C10 1_555 1_555
C4 H1 1_555 1_555
O12 C18 1_555 1_555
C5 N3 1_555 1_555
C6 C8 1_555 1_555
C7 C37 1_555 1_555
C8 H2 1_555 1_555
C9 C19 1_555 1_555
C10 C4 1_555 1_555
H3 C10 1_555 1_555
O13 Ti9 1_555 1_555
C11 C16 1_555 1_555
C12 C3 1_555 1_555
C13 O9 1_555 1_555
C14 N2 1_555 1_555
C15 C5 1_555 1_555
H4 C15 1_555 1_555
C16 O7 1_555 1_555
C17 C8 1_555 1_555
H5 C17 1_555 1_555
C18 C23 1_555 1_555
C19 C25 1_555 1_555
C20 H6 1_555 1_555
C21 C15 1_555 1_555
H7 C21 1_555 1_555
C22 N1 1_555 1_555
C23 C44 1_555 1_555
C24 C2 1_555 1_555
H8 C24 1_555 1_555
C25 N2 1_555 1_555
C26 N3 1_555 1_555
C27 C9 1_555 1_555
H9 C27 1_555 1_555
C28 C3 1_555 1_555
H10 C28 1_555 1_555
C29 C5 1_555 1_555
C30 C22 1_555 1_555
C31 C9 1_555 1_555
H11 C31 1_555 1_555
C32 N4 1_555 1_555
C33 C29 1_555 1_555
C34 N4 1_555 1_555
C35 H12 1_555 1_555
C36 C35 1_555 1_555
H13 C36 1_555 1_555
C37 C36 1_555 1_555
C38 C37 1_555 1_555
H14 C38 1_555 1_555
C39 C38 1_555 1_555
H15 C39 1_555 1_555
C40 C30 1_555 1_555
C41 C14 1_555 1_555
H16 C41 1_555 1_555
C42 C11 1_555 1_555
H17 C42 1_555 1_555
C43 C11 1_555 1_555
H18 C43 1_555 1_555
C44 H19 1_555 1_555
C45 C23 1_555 1_555
H20 C45 1_555 1_555
C46 C33 1_555 1_555
H21 C46 1_555 1_555
C47 C34 1_555 1_555
H22 C47 1_555 1_555
C48 C33 1_555 1_555
H23 C48 1_555 1_555
C49 C32 1_555 1_555
H24 C49 1_555 1_555
Ti5 N5 1_555 1_555
Ti6 O17 1_555 1_555
O14 C51 1_555 1_555
O15 C51 1_555 1_555
O16 C57 1_555 1_555
C51 C52 1_555 1_555
O17 Ti2_2 1_555 1_555
O18 C57 1_555 1_555
N5 C56 1_555 1_555
O20 Ti6 1_555 1_555
O39 C68 1_555 1_555
N6 Ti5 1_555 1_555
N7 Ti5 1_555 1_555
O22 Ti7 1_555 1_555
C52 C54 1_555 1_555
O23 Ti2_2 1_555 1_555
N8 Ti5 1_555 1_555
O24 Ti7 1_555 1_555
C53 C60 1_555 1_555
C54 H28 1_555 1_555
O41 C68 1_555 1_555
C55 N7 1_555 1_555
C56 C58 1_555 1_555
C57 C87 1_555 1_555
C58 H29 1_555 1_555
C59 C69 1_555 1_555
C60 C54 1_555 1_555
H30 C60 1_555 1_555
O26 Ti6 1_555 1_555
C61 C66 1_555 1_555
C62 C53 1_555 1_555
C63 O17 1_555 1_555
C64 N6 1_555 1_555
C65 C55 1_555 1_555
H31 C65 1_555 1_555
C66 O20 1_555 1_555
C67 C58 1_555 1_555
H32 C67 1_555 1_555
C68 C73 1_555 1_555
C69 C75 1_555 1_555
C70 H33 1_555 1_555
C71 C65 1_555 1_555
H34 C71 1_555 1_555
C72 N5 1_555 1_555
C73 C94 1_555 1_555
C74 C52 1_555 1_555
H35 C74 1_555 1_555
C75 N6 1_555 1_555
C76 N7 1_555 1_555
C77 C59 1_555 1_555
H36 C77 1_555 1_555
C78 C53 1_555 1_555
H37 C78 1_555 1_555
C79 C55 1_555 1_555
C80 C72 1_555 1_555
C81 C59 1_555 1_555
H38 C81 1_555 1_555
C82 N8 1_555 1_555
C83 C79 1_555 1_555
C84 N8 1_555 1_555
C85 H39 1_555 1_555
C86 C85 1_555 1_555
H40 C86 1_555 1_555
C87 C86 1_555 1_555
C88 C87 1_555 1_555
H41 C88 1_555 1_555
C89 C88 1_555 1_555
H42 C89 1_555 1_555
C90 C80 1_555 1_555
C91 C64 1_555 1_555
H43 C91 1_555 1_555
C92 C61 1_555 1_555
H44 C92 1_555 1_555
C93 C61 1_555 1_555
H45 C93 1_555 1_555
C94 H46 1_555 1_555
C95 C73 1_555 1_555
H47 C95 1_555 1_555
C96 C83 1_555 1_555
H48 C96 1_555 1_555
C97 C84 1_555 1_555
H49 C97 1_555 1_555
C98 C83 1_555 1_555
H50 C98 1_555 1_555
C99 C82 1_555 1_555
H51 C99 1_555 1_555
Ti11 O3 1_555 1_555
Ti14 O16 1_555 1_555
Ti17 O14 1_555 1_555
Ti20 O1 1_555 1_555
O33 Ti9 1_555 1_555
O34 Ti6 1_555 1_555
O36 Ti4 1_555 1_555
O37 Ti7 1_555 1_555
C6 C12 1_555 1_555
C12 C14 1_555 1_555
C17 C22 1_555 1_555
C19 C26 1_555 1_555
C20 C25 1_555 1_555
C20 C41 1_555 1_555
C21 C26 1_555 1_555
C24 C28 1_555 1_555
C27 C43 1_555 1_555
C29 C32 1_555 1_555
C30 C34 1_555 1_555
C31 C42 1_555 1_555
C35 C40 1_555 1_555
C39 C40 1_555 1_555
C44 C46 1_555 1_555
C45 C48 1_555 1_555
C47 C49 1_555 1_555
O22 C63 1_555 1_555
O23 C66 1_555 1_555
C56 C62 1_555 1_555
C62 C64 1_555 1_555
C67 C72 1_555 1_555
C69 C76 1_555 1_555
C70 C75 1_555 1_555
C70 C91 1_555 1_555
C71 C76 1_555 1_555
C74 C78 1_555 1_555
C77 C93 1_555 1_555
C79 C82 1_555 1_555
C80 C84 1_555 1_555
C81 C92 1_555 1_555
C85 C90 1_555 1_555
C89 C90 1_555 1_555
C94 C96 1_555 1_555
C95 C98 1_555 1_555
C97 C99 1_555 1_555
O13 H56 1_555 1_555
O26 H65 1_555 1_555
O26 H66 1_555 1_555
H25 C50 1_555 1_555
H26 C50 1_555 1_555
H25_2 C50_2 1_555 1_555
H26_2 C50_2 1_555 1_555
Ti8 O12_2 1_555 1_555
O7_2 Ti11 1_555 1_555
O38 C18_2 1_555 1_555
O12_2 C18_2 1_555 1_555
O13_2 Ti11 1_555 1_555
C11_2 C16_2 1_555 1_555
C16_2 O7_2 1_555 1_555
C18_2 C23_2 1_555 1_555
H9_2 C27_2 1_555 1_555
C43_2 C11_2 1_555 1_555
H18_2 C43_2 1_555 1_555
C45_2 C23_2 1_555 1_555
H20_2 C45_2 1_555 1_555
H23_2 C48_2 1_555 1_555
C27_2 C43_2 1_555 1_555
C45_2 C48_2 1_555 1_555
O13_2 H56_2 1_555 1_555
O4 C13_2 1_555 1_555
O9_2 Ti17 1_555 1_555
O11_2 Ti17 1_555 1_555
C13_2 O9_2 1_555 1_555
Ti5_2 N5_2 1_555 1_555
O30 C51_2 1_555 1_555
O32 C51_2 1_555 1_555
O34 C57_2 1_555 1_555
C51_2 C52_2 1_555 1_555
O37 C57_2 1_555 1_555
N5_2 C56_2 1_555 1_555
N6_2 Ti5_2 1_555 1_555
N7_2 Ti5_2 1_555 1_555
C52_2 C54_2 1_555 1_555
O23_2 Ti8_2 1_555 1_555
N8_2 Ti5_2 1_555 1_555
C53_2 C60_2 1_555 1_555
C54_2 H28_2 1_555 1_555
C55_2 N7_2 1_555 1_555
C56_2 C58_2 1_555 1_555
C57_2 C87_2 1_555 1_555
C58_2 H29_2 1_555 1_555
C59_2 C69_2 1_555 1_555
C60_2 C54_2 1_555 1_555
H30_2 C60_2 1_555 1_555
C62_2 C53_2 1_555 1_555
C64_2 N6_2 1_555 1_555
C65_2 C55_2 1_555 1_555
H31_2 C65_2 1_555 1_555
C67_2 C58_2 1_555 1_555
H32_2 C67_2 1_555 1_555
C69_2 C75_2 1_555 1_555
C70_2 H33_2 1_555 1_555
C71_2 C65_2 1_555 1_555
H34_2 C71_2 1_555 1_555
C72_2 N5_2 1_555 1_555
C74_2 C52_2 1_555 1_555
C75_2 N6_2 1_555 1_555
C76_2 N7_2 1_555 1_555
C78_2 C53_2 1_555 1_555
C79_2 C55_2 1_555 1_555
C80_2 C72_2 1_555 1_555
C81_2 C59_2 1_555 1_555
H38_2 C81_2 1_555 1_555
C82_2 N8_2 1_555 1_555
C83_2 C79_2 1_555 1_555
C84_2 N8_2 1_555 1_555
C85_2 H39_2 1_555 1_555
C86_2 C85_2 1_555 1_555
H40_2 C86_2 1_555 1_555
C87_2 C86_2 1_555 1_555
C88_2 C87_2 1_555 1_555
C89_2 C88_2 1_555 1_555
C90_2 C80_2 1_555 1_555
C91_2 C64_2 1_555 1_555
H43_2 C91_2 1_555 1_555
H44_2 C92_2 1_555 1_555
C94_2 H46_2 1_555 1_555
C96_2 C83_2 1_555 1_555
H48_2 C96_2 1_555 1_555
C97_2 C84_2 1_555 1_555
H49_2 C97_2 1_555 1_555
C99_2 C82_2 1_555 1_555
H51_2 C99_2 1_555 1_555
Ti8_6 O4 1_555 1_555
C56_2 C62_2 1_555 1_555
C62_2 C64_2 1_555 1_555
C67_2 C72_2 1_555 1_555
C69_2 C76_2 1_555 1_555
C70_2 C75_2 1_555 1_555
C70_2 C91_2 1_555 1_555
C71_2 C76_2 1_555 1_555
C74_2 C78_2 1_555 1_555
C79_2 C82_2 1_555 1_555
C80_2 C84_2 1_555 1_555
C81_2 C92_2 1_555 1_555
C85_2 C90_2 1_555 1_555
C89_2 C90_2 1_555 1_555
C94_2 C96_2 1_555 1_555
C97_2 C99_2 1_555 1_555
Ti1_2 N1_2 1_555 1_555
O28 C1_2 1_555 1_555
O31 C1_2 1_555 1_555
O33 C7_2 1_555 1_555
C1_2 C2_2 1_555 1_555
O36 C7_2 1_555 1_555
N1_2 C6_2 1_555 1_555
N2_2 Ti1_2 1_555 1_555
N3_2 Ti1_2 1_555 1_555
C2_2 C4_2 1_555 1_555
N4_2 Ti1_2 1_555 1_555
C3_2 C10_2 1_555 1_555
C4_2 H1_2 1_555 1_555
C5_2 N3_2 1_555 1_555
C6_2 C8_2 1_555 1_555
C7_2 C37_2 1_555 1_555
C8_2 H2_2 1_555 1_555
C9_2 C19_2 1_555 1_555
C10_2 C4_2 1_555 1_555
H3_2 C10_2 1_555 1_555
C12_2 C3_2 1_555 1_555
C14_2 N2_2 1_555 1_555
C15_2 C5_2 1_555 1_555
H4_2 C15_2 1_555 1_555
C17_2 C8_2 1_555 1_555
H5_2 C17_2 1_555 1_555
C19_2 C25_2 1_555 1_555
C20_2 H6_2 1_555 1_555
C21_2 C15_2 1_555 1_555
H7_2 C21_2 1_555 1_555
C22_2 N1_2 1_555 1_555
C24_2 C2_2 1_555 1_555
C25_2 N2_2 1_555 1_555
C26_2 N3_2 1_555 1_555
C28_2 C3_2 1_555 1_555
C29_2 C5_2 1_555 1_555
C30_2 C22_2 1_555 1_555
C31_2 C9_2 1_555 1_555
H11_2 C31_2 1_555 1_555
C32_2 N4_2 1_555 1_555
C33_2 C29_2 1_555 1_555
C34_2 N4_2 1_555 1_555
C35_2 H12_2 1_555 1_555
C36_2 C35_2 1_555 1_555
H13_2 C36_2 1_555 1_555
C37_2 C36_2 1_555 1_555
C38_2 C37_2 1_555 1_555
C39_2 C38_2 1_555 1_555
C40_2 C30_2 1_555 1_555
C41_2 C14_2 1_555 1_555
H16_2 C41_2 1_555 1_555
H17_2 C42_2 1_555 1_555
C44_2 H19_2 1_555 1_555
C46_2 C33_2 1_555 1_555
H21_2 C46_2 1_555 1_555
C47_2 C34_2 1_555 1_555
H22_2 C47_2 1_555 1_555
C49_2 C32_2 1_555 1_555
H24_2 C49_2 1_555 1_555
O17_2 Ti8_3 1_555 1_555
O22_2 Ti20 1_555 1_555
O24_2 Ti20 1_555 1_555
C63_2 O17_2 1_555 1_555
O10 Ti8_7 1_555 1_555
C6_2 C12_2 1_555 1_555
C12_2 C14_2 1_555 1_555
C17_2 C22_2 1_555 1_555
C19_2 C26_2 1_555 1_555
C20_2 C25_2 1_555 1_555
C20_2 C41_2 1_555 1_555
C21_2 C26_2 1_555 1_555
C24_2 C28_2 1_555 1_555
C29_2 C32_2 1_555 1_555
C30_2 C34_2 1_555 1_555
C31_2 C42_2 1_555 1_555
C35_2 C40_2 1_555 1_555
C39_2 C40_2 1_555 1_555
C44_2 C46_2 1_555 1_555
C47_2 C49_2 1_555 1_555
O22_2 C63_2 1_555 1_555
O20_2 Ti14 1_555 1_555
O21 C68_2 1_555 1_555
O25 C68_2 1_555 1_555
O26_2 Ti14 1_555 1_555
C61_2 C66_2 1_555 1_555
C66_2 O20_2 1_555 1_555
C68_2 C73_2 1_555 1_555
H36_2 C77_2 1_555 1_555
C93_2 C61_2 1_555 1_555
H45_2 C93_2 1_555 1_555
C95_2 C73_2 1_555 1_555
H47_2 C95_2 1_555 1_555
H50_2 C98_2 1_555 1_555
O25 Ti8_8 1_555 1_555
C77_2 C93_2 1_555 1_555
C95_2 C98_2 1_555 1_555
O26_2 H65_2 1_555 1_555
O26_2 H66_2 1_555 1_555
H52_2 C100_2 1_555 1_555
H53_2 C100_2 1_555 1_555
O13 H65_3 1_555 1_555
O13_2 H65_4 1_555 1_555

#END
