
###############################################################################
#
# This file contains modified crystal structure data generated from the
# MOF subset of the Cambridge Structural Database (CSD) v543 
# hosted by the Cambridge Crystallographic Data Centre (CCDC).
#
# This work is licensed under the Creative Commons
# Attribution-NonCommercial-ShareAlike 4.0 International License.
# To view a copy of this license, visit
# http://creativecommons.org/licenses/by-nc-sa/4.0/
# or send a letter to
# Creative Commons, PO Box 1866, Mountain View, CA 94042, USA.
#
# CIF created using the CSD Python API on 29 September 2022
# The structure has been converted into the P1 space group
# The structure has a 3D framework
# The original CSD entry MIXKUB is in the triclinic crystal system
# The framework has been calculated to contain at least 10.0% void space
# The void calculation uses a probe of radius 1.32A, grid spacing 0.4
#
###############################################################################

data_MIXKUB
_chemical_formula_moiety         '(C32 H28 N8 O14 Zn4)n'
_symmetry_cell_setting           triclinic
_symmetry_space_group_name_H-M   'P 1'
_symmetry_Int_Tables_number      1
_space_group_name_Hall           'P 1'
loop_
_symmetry_equiv_pos_site_id
_symmetry_equiv_pos_as_xyz
1 x,y,z
_cell_length_a                   8.5707(11)
_cell_length_b                   9.8985(12)
_cell_length_c                   14.2812(17)
_cell_angle_alpha                104.986(5)
_cell_angle_beta                 102.291(5)
_cell_angle_gamma                91.286(5)
_cell_volume                     1139.68
loop_
_atom_site_label
_atom_site_type_symbol
_atom_site_fract_x
_atom_site_fract_y
_atom_site_fract_z
_atom_site_U_iso_or_equiv
_atom_site_thermal_displace_type
C10 C 0.3255(7) 0.0712(7) 0.0396(4) 0.0656 Uani
C11 C 0.3918(9) 0.1954(9) 0.0419(5) 0.0832 Uani
C12 C 0.3629(9) 0.0238(7) 0.1216(5) 0.0769 Uani
C13 C 0.4701(8) 0.1054(6) 0.2055(5) 0.0657 Uani
H11 H 0.4968 0.0717 0.2614 0.0790 Uiso
C14 C 0.4986(9) 0.2729(7) 0.1272(4) 0.0692 Uani
H12 H 0.5459 0.3584 0.1272 0.0830 Uiso
N4 N 0.5353(5) 0.2290(4) 0.2088(3) 0.0418 Uani
Zn9 Zn 0.66305(6) 0.36064(5) 0.33879(3) 0.0353 Uani
N2 N 0.1523(8) 0.9040(7) 0.9458(5) 0.0789 Uani
C7 C 0.0423(7) 0.8396(8) 0.8472(4) 0.0693 Uani
C9 C 0.0195(8) 0.8888(8) 0.7654(5) 0.0792 Uani
H8 H 0.0761 0.9708 0.7669 0.0950 Uiso
C15 C 0.1410(5) 0.4019(5) 0.6300(3) 0.0369 Uani
C16 C 0.0414(6) 0.2944(5) 0.6546(3) 0.0434 Uani
H14 H 0.1118 0.2353 0.6858 0.0520 Uiso
O6 O 0.1545(4) 0.3845(4) 0.5440(2) 0.0454 Uani
O7 O 0.2068(4) 0.5081(4) 0.7023(2) 0.0451 Uani
Zn7 Zn 0.33220(5) 0.41613(4) 0.46172(3) 0.0295 Uani
Zn11 Zn 0.33695(6) 0.63936(5) 0.66121(3) 0.0353 Uani
O8 O 0.4151(4) 0.2272(3) 0.4757(2) 0.0414 Uani
O9 O 0.4942(5) 0.2809(3) 0.6407(3) 0.0567 Uani
C17 C 0.4917(6) 0.0430(4) 0.5499(3) 0.0411 Uani
H15 H 0.4023 0.0012 0.5674 0.0490 Uiso
H16 H 0.5877 0.0389 0.5990 0.0490 Uiso
C18 C 0.4653(6) 0.1958(4) 0.5562(3) 0.0387 Uani
Zn1 Zn 0.66780(5) 0.58387(4) 0.53828(3) 0.0295 Uani
O1 O 0.5117(3) 0.4709(3) 0.4006(2) 0.0306 Uani
O2 O 0.7819(4) 0.4013(3) 0.5564(2) 0.0413 Uani
O3 O 0.7767(4) 0.2413(3) 0.4132(2) 0.0426 Uani
N1 N 0.8291(4) 0.6954(4) 0.6736(3) 0.0400 Uani
O4 O 0.5849(4) 0.7728(3) 0.5243(2) 0.0414 Uani
O5 O 0.5058(5) 0.7191(3) 0.3593(3) 0.0567 Uani
C1 C 0.8203(5) 0.2895(4) 0.5071(3) 0.0345 Uani
C2 C 0.5083(6) 0.9570(4) 0.4501(3) 0.0411 Uani
H1 H 0.5977 0.9988 0.4326 0.0490 Uiso
H2 H 0.4123 0.9611 0.4010 0.0490 Uiso
C3 C 0.9087(7) 0.8138(7) 0.6778(4) 0.0624 Uani
H3 H 0.8914 0.8484 0.6221 0.0750 Uiso
C4 C 0.5347(6) 0.8042(4) 0.4438(3) 0.0387 Uani
C5 C 0.9255(6) 0.2024(5) 0.5622(4) 0.0425 Uani
H4 H 0.9860 0.1462 0.5184 0.0510 Uiso
H5 H 0.8591 0.1390 0.5820 0.0510 Uiso
C6 C 0.8562(7) 0.6481(6) 0.7552(4) 0.0563 Uani
H6 H 0.8017 0.5643 0.7523 0.0680 Uiso
C8 C 0.9604(9) 0.7176(7) 0.8425(4) 0.0713 Uani
H7 H 0.9750 0.6819 0.8977 0.0860 Uiso
H13 H 0.9810 0.3418 0.7019 0.0520 Uiso
O10 O 0.4883(3) 0.5291(3) 0.5994(2) 0.0306 Uani
O11 O 0.2181(4) 0.5987(3) 0.4436(2) 0.0413 Uani
O12 O 0.2233(4) 0.7587(3) 0.5868(2) 0.0426 Uani
N5 N 0.1709(4) 0.3046(4) 0.3264(3) 0.0400 Uani
C19 C 0.1797(5) 0.7105(4) 0.4929(3) 0.0345 Uani
C20 C 0.0913(7) 0.1862(7) 0.3222(4) 0.0624 Uani
H17 H 0.1086 0.1516 0.3779 0.0750 Uiso
C21 C 0.0745(6) 0.7976(5) 0.4378(4) 0.0425 Uani
H18 H 0.0140 0.8538 0.4816 0.0510 Uiso
H19 H 0.1409 0.8610 0.4180 0.0510 Uiso
C22 C 0.1438(7) 0.3519(6) 0.2448(4) 0.0563 Uani
H20 H 0.1983 0.4357 0.2477 0.0680 Uiso
C24 C 0.0396(9) 0.2824(7) 0.1575(4) 0.0713 Uani
H21 H 0.0250 0.3181 0.1023 0.0860 Uiso
H27 H 0.0190 0.6582 0.2981 0.0520 Uiso
N10 N 0.4647(5) 0.7710(4) 0.7912(3) 0.0418 Uani
O17 O 0.8455(4) 0.6155(4) 0.4560(2) 0.0454 Uani
O19 O 0.7932(4) 0.4919(4) 0.2977(2) 0.0451 Uani
N6 N 0.8477(8) 0.0960(7) 0.0542(5) 0.0789 Uani
C23 C 0.9577(7) 0.1604(8) 0.1528(4) 0.0693 Uani
C25 C 0.9805(8) 0.1112(8) 0.2346(5) 0.0792 Uani
H22 H 0.9239 0.0292 0.2331 0.0950 Uiso
C31 C 0.8590(5) 0.5981(5) 0.3700(3) 0.0369 Uani
C32 C 0.9586(6) 0.7056(5) 0.3454(3) 0.0434 Uani
H28 H 0.8882 0.7647 0.3142 0.0520 Uiso
C26 C 0.6745(7) 0.9288(7) 0.9604(4) 0.0656 Uani
C27 C 0.6082(9) 0.8046(9) 0.9581(5) 0.0832 Uani
C28 C 0.6371(9) 0.9762(7) 0.8784(5) 0.0769 Uani
C29 C 0.5299(8) 0.8946(6) 0.7945(5) 0.0657 Uani
H25 H 0.5032 0.9283 0.7386 0.0790 Uiso
C30 C 0.5014(9) 0.7271(7) 0.8728(4) 0.0692 Uani
H26 H 0.4541 0.6416 0.8728 0.0830 Uiso
N3 N 0.2119(9) 0.0031(7) 0.9404(5) 0.0861 Uani
H9 H 0.3665 0.2299 0.9863 0.1000 Uiso
H10 H 0.3176 0.9376 0.1218 0.0920 Uiso
H24 H 0.6824 0.0624 0.8782 0.0920 Uiso
N7 N 0.7881(9) 0.9969(7) 0.0596(5) 0.0861 Uani
H23 H 0.6335 0.7701 0.0137 0.1000 Uiso
loop_
_atom_site_aniso_label
_atom_site_aniso_U_11
_atom_site_aniso_U_22
_atom_site_aniso_U_33
_atom_site_aniso_U_23
_atom_site_aniso_U_13
_atom_site_aniso_U_12
C10 0.046 0.08 0.042 -0.018 -0.009 -0.004
C11 0.085 0.104 0.038 0.011 -0.022 -0.021
C12 0.078 0.05 0.075 -0.007 -0.01 -0.024
C13 0.072 0.054 0.052 0.008 -0.017 -0.016
C14 0.08 0.069 0.042 0.009 -0.012 -0.022
N4 0.04 0.0403 0.0298 -0.0071 -0.0038 -0.0033
Zn9 0.0314 0.0354 0.0276 -0.00552 -0.00042 -0.0002
N2 0.086 0.076 0.072 0.019 0.014 0.001
C7 0.047 0.095 0.039 -0.017 -0.005 0.004
C9 0.064 0.081 0.064 -0.021 0.008 -0.042
C15 0.0276 0.042 0.035 0.0066 -0.001 0.0012
C16 0.043 0.046 0.041 0.019 0.0001 0.001
O6 0.034 0.062 0.033 0.0059 0.0024 -0.0107
O7 0.0434 0.0485 0.0352 0.0012 0.0046 -0.0055
Zn7 0.027 0.0268 0.026 -0.00173 -0.00158 -0.00222
Zn11 0.0314 0.0354 0.0276 -0.00552 -0.00042 -0.0002
O8 0.0506 0.0273 0.0395 0.0047 0.0012 0.0028
O9 0.091 0.0342 0.0383 0.0063 0.0045 0.0063
C17 0.052 0.027 0.044 0.0111 0.009 0
C18 0.043 0.027 0.043 0.0075 0.006 0.0004
Zn1 0.027 0.0268 0.026 -0.00173 -0.00158 -0.00222
O1 0.0284 0.0272 0.03 0.0008 0.002 0
O2 0.0362 0.041 0.0387 0.0017 0.0017 0.0072
O3 0.0395 0.0402 0.0376 -0.0001 -0.0007 0.0036
N1 0.0317 0.046 0.0286 -0.006 -0.0022 -0.0044
O4 0.0506 0.0273 0.0395 0.0047 0.0012 0.0028
O5 0.091 0.0342 0.0383 0.0063 0.0045 0.0063
C1 0.0267 0.0314 0.04 0.0056 0.0016 -0.0051
C2 0.052 0.027 0.044 0.0111 0.009 0
C3 0.061 0.067 0.041 -0.007 0.003 -0.032
C4 0.043 0.027 0.043 0.0075 0.006 0.0004
C5 0.042 0.03 0.051 0.0122 0 -0.0021
C6 0.06 0.056 0.037 0 -0.008 0.005
C8 0.075 0.076 0.04 -0.002 -0.015 0.008
O10 0.0284 0.0272 0.03 0.0008 0.002 0
O11 0.0362 0.041 0.0387 0.0017 0.0017 0.0072
O12 0.0395 0.0402 0.0376 -0.0001 -0.0007 0.0036
N5 0.0317 0.046 0.0286 -0.006 -0.0022 -0.0044
C19 0.0267 0.0314 0.04 0.0056 0.0016 -0.0051
C20 0.061 0.067 0.041 -0.007 0.003 -0.032
C21 0.042 0.03 0.051 0.0122 0 -0.0021
C22 0.06 0.056 0.037 0 -0.008 0.005
C24 0.075 0.076 0.04 -0.002 -0.015 0.008
N10 0.04 0.0403 0.0298 -0.0071 -0.0038 -0.0033
O17 0.034 0.062 0.033 0.0059 0.0024 -0.0107
O19 0.0434 0.0485 0.0352 0.0012 0.0046 -0.0055
N6 0.086 0.076 0.072 0.019 0.014 0.001
C23 0.047 0.095 0.039 -0.017 -0.005 0.004
C25 0.064 0.081 0.064 -0.021 0.008 -0.042
C31 0.0276 0.042 0.035 0.0066 -0.001 0.0012
C32 0.043 0.046 0.041 0.019 0.0001 0.001
C26 0.046 0.08 0.042 -0.018 -0.009 -0.004
C27 0.085 0.104 0.038 0.011 -0.022 -0.021
C28 0.078 0.05 0.075 -0.007 -0.01 -0.024
C29 0.072 0.054 0.052 0.008 -0.017 -0.016
C30 0.08 0.069 0.042 0.009 -0.012 -0.022
N3 0.095 0.084 0.074 0.012 0.021 -0.013
N7 0.095 0.084 0.074 0.012 0.021 -0.013
loop_
_geom_bond_atom_site_label_1
_geom_bond_atom_site_label_2
_geom_bond_site_symmetry_1
_geom_bond_site_symmetry_2
C11 C10 1_555 1_555
C12 C10 1_555 1_555
C13 C12 1_555 1_555
H11 C13 1_555 1_555
C14 C11 1_555 1_555
H12 C14 1_555 1_555
N4 C13 1_555 1_555
Zn9 N4 1_555 1_555
C14 N4 1_555 1_555
N2 C7 1_555 1_555
H8 C9 1_555 1_555
C15 C16 1_555 1_555
H14 C16 1_555 1_555
O6 C15 1_555 1_555
O7 C15 1_555 1_555
Zn7 O6 1_555 1_555
Zn11 O7 1_555 1_555
C7 C9 1_555 1_555
O8 C18 1_555 1_555
O9 C18 1_555 1_555
H15 C17 1_555 1_555
H16 C17 1_555 1_555
C18 C17 1_555 1_555
Zn7 O8 1_555 1_555
Zn1 O1 1_555 1_555
Zn9 O1 1_555 1_555
O1 Zn7 1_555 1_555
O2 Zn1 1_555 1_555
O3 Zn9 1_555 1_555
N1 Zn1 1_555 1_555
O4 Zn1 1_555 1_555
O5 C4 1_555 1_555
C1 O2 1_555 1_555
C2 H1 1_555 1_555
H2 C2 1_555 1_555
C3 N1 1_555 1_555
H3 C3 1_555 1_555
C4 O4 1_555 1_555
C5 C1 1_555 1_555
H4 C5 1_555 1_555
H5 C5 1_555 1_555
C6 N1 1_555 1_555
H6 C6 1_555 1_555
C8 C6 1_555 1_555
H7 C8 1_555 1_555
Zn7 O10 1_555 1_555
Zn11 O10 1_555 1_555
O10 Zn1 1_555 1_555
O11 Zn7 1_555 1_555
O12 Zn11 1_555 1_555
N5 Zn7 1_555 1_555
C19 O11 1_555 1_555
C20 N5 1_555 1_555
H17 C20 1_555 1_555
C21 C19 1_555 1_555
H18 C21 1_555 1_555
H19 C21 1_555 1_555
C22 N5 1_555 1_555
H20 C22 1_555 1_555
C24 C22 1_555 1_555
H21 C24 1_555 1_555
N10 Zn11 1_555 1_555
O17 Zn1 1_555 1_555
O19 Zn9 1_555 1_555
O3 C1 1_555 1_555
C2 C4 1_555 1_555
O12 C19 1_555 1_555
N6 C23 1_555 1_555
H22 C25 1_555 1_555
C31 C32 1_555 1_555
H28 C32 1_555 1_555
O17 C31 1_555 1_555
O19 C31 1_555 1_555
C23 C25 1_555 1_555
C27 C26 1_555 1_555
C28 C26 1_555 1_555
C29 C28 1_555 1_555
H25 C29 1_555 1_555
C30 C27 1_555 1_555
H26 C30 1_555 1_555
N10 C29 1_555 1_555
C30 N10 1_555 1_555

#END
