
###############################################################################
#
# This file contains modified crystal structure data generated from the
# MOF subset of the Cambridge Structural Database (CSD) v543 
# hosted by the Cambridge Crystallographic Data Centre (CCDC).
#
# This work is licensed under the Creative Commons
# Attribution-NonCommercial-ShareAlike 4.0 International License.
# To view a copy of this license, visit
# http://creativecommons.org/licenses/by-nc-sa/4.0/
# or send a letter to
# Creative Commons, PO Box 1866, Mountain View, CA 94042, USA.
#
# CIF created using the CSD Python API on 29 September 2022
# The structure has been converted into the P1 space group
# The structure has a 3D framework
# The original CSD entry MIXPIU is in the monoclinic crystal system
# The original CSD entry MIXPIU is in a Sohncke space group
# The framework has been calculated to contain at least 10.0% void space
# The void calculation uses a probe of radius 1.32A, grid spacing 0.4
#
###############################################################################

data_MIXPIU
_chemical_formula_moiety         '(C64 H46 N30 O42 Zn10)n'
_symmetry_cell_setting           triclinic
_symmetry_space_group_name_H-M   'P 1'
_symmetry_Int_Tables_number      1
_space_group_name_Hall           'P 1'
loop_
_symmetry_equiv_pos_site_id
_symmetry_equiv_pos_as_xyz
1 x,y,z
_cell_length_a                   10.0089(3)
_cell_length_b                   22.0259(6)
_cell_length_c                   11.7311(3)
_cell_angle_alpha                90
_cell_angle_beta                 104.961(3)
_cell_angle_gamma                90
_cell_volume                     2498.51
loop_
_atom_site_label
_atom_site_type_symbol
_atom_site_fract_x
_atom_site_fract_y
_atom_site_fract_z
H4 H 0.2053 0.0317 0.3392
O15 O 0.2376(15) 0.0674(5) 0.5438(9)
C26 C 0.2634(14) 0.0154(5) 0.5683(10)
O18 O 0.1332(10) 0.0227(5) 0.1234(9)
Zn10 Zn 0.29352(15) 0.05194(6) 0.80054(11)
Zn2 Zn 0.26347(14) 0.67444(6) 0.37911(11)
C2 C 0.2287(10) 0.7987(5) 0.4256(8)
N2 N 0.0652(10) 0.6553(4) 0.2988(8)
O6 O 0.2519(10) 0.7631(4) 0.3505(8)
C6 C 0.2116(14) 0.9903(5) 0.3553(11)
C7 C 0.2495(11) 0.9081(5) 0.4904(9)
H5 H 0.2677 0.8944 0.5679
C20 C 0.1939(12) 0.8856(5) 0.2863(9)
H11 H 0.1767 0.8582 0.2238
C21 C 0.2268(12) 0.8657(5) 0.4000(11)
O13 O 0.2969(10) 0.9932(4) 0.6727(7)
C23 C 0.2463(12) 0.9681(5) 0.4705(10)
C24 C 0.1868(12) 0.9472(6) 0.2662(10)
H14 H 0.0286 0.5692 0.3362
O17 O 0.2170(11) 0.7820(5) 0.5258(7)
N15 N 0.1442(13) 0.9698(5) 0.1427(9)
O19 O 0.1245(15) 0.9317(6) 0.0656(8)
O24 O 0.3576(11) 0.6464(5) 0.5437(7)
O25 O 0.2840(10) 0.5646(5) 0.4413(7)
N17 N 0.3995(10) 0.6597(4) 0.2831(8)
Zn1 Zn 0.67262(14) 0.70046(6) 0.05965(11)
Zn4 Zn 0.70648(15) 0.55194(6) 0.19946(11)
C3 C 0.9761(14) 0.6915(5) 0.2268(11)
H2 H 0.9944 0.7316 0.2111
N3 N 0.5581(8) 0.6719(4) 0.1831(7)
C4 C 0.4610(12) 0.6984(5) 0.2258(9)
H3 H 0.4388 0.7395 0.2165
N5 N 0.8713(10) 0.6072(4) 0.2226(8)
O8 O 0.6235(11) 0.5144(4) 0.0452(6)
N9 N 0.8582(9) 0.6636(4) 0.1805(8)
N14 N 0.5550(10) 0.6125(4) 0.2125(8)
C27 C 0.9940(13) 0.6039(5) 0.2935(10)
C29 C 0.4645(13) 0.6070(5) 0.2737(10)
H15 H 0.4464 0.5707 0.3074
Zn12 Zn 0.39048(16) 0.32486(7) 0.15374(12)
O22 O 0.6806(11) 0.8594(4) 0.0039(8)
O23 O 0.7298(8) 0.7849(4) 0.1363(8)
O26 O 0.7031(10) 0.4932(4) 0.3273(7)
Zn3 Zn 0.08336(15) 0.67577(7) 0.74963(12)
Zn5 Zn 0.60952(16) 0.82486(7) 0.84626(12)
O1 O 0.6275(8) 0.6073(4) 0.9771(6)
O2 O 0.3194(11) 0.3594(4) 0.9961(8)
O3 O 0.1762(10) 0.5715(4) 0.8908(8)
O4 O 0.0291(10) 0.7156(5) 0.5938(8)
N4 N 0.4722(11) 0.3818(5) 0.6838(9)
O5 O 0.2702(8) 0.2849(4) 0.8637(8)
N6 N 0.0748(15) 0.3992(6) 0.4746(10)
O9 O 0.5199(11) 0.3485(4) 0.7696(9)
C5 C 0.6033(12) 0.5540(5) 0.9654(9)
O10 O 0.0858(11) 0.5915(4) 0.7026(8)
N7 N 0.2706(10) 0.7112(5) 0.8266(9)
N8 N 0.4583(9) 0.7668(5) 0.8550(8)
C8 C 0.2075(10) 0.3860(5) 0.8015(9)
C9 C 0.4760(12) 0.4474(5) 0.7094(9)
C10 C 0.1155(12) 0.4147(6) 0.6039(10)
C11 C 0.5335(10) 0.5298(5) 0.8402(9)
C12 C 0.1381(14) 0.5559(6) 0.7872(12)
C13 C 0.5266(11) 0.4684(5) 0.8194(9)
H6 H 0.5571 0.4414 0.8816
C14 C 0.1460(12) 0.4909(5) 0.7511(10)
C15 C 0.1056(14) 0.4749(6) 0.6320(11)
H7 H 0.0732 0.5038 0.5737
N11 N 0.4782(9) 0.7221(4) 0.9399(8)
C16 C 0.3620(12) 0.6913(5) 0.9203(9)
H8 H 0.3467 0.6593 0.9672
C17 C 0.2678(13) 0.3388(6) 0.8954(11)
C18 C 0.4186(11) 0.4860(6) 0.6145(9)
H9 H 0.3806 0.4704 0.5395
C19 C 0.1969(13) 0.4462(6) 0.8336(11)
H10 H 0.2249 0.4567 0.9130
C22 C 0.1633(12) 0.3698(5) 0.6855(10)
H12 H 0.1655 0.3295 0.6623
O12 O 0.0947(16) 0.3473(6) 0.4481(10)
O14 O 0.4307(13) 0.3637(5) 0.5843(9)
C25 C 0.4787(12) 0.5708(5) 0.7474(8)
H13 H 0.4817 0.6124 0.7612
O16 O 0.5870(19) 0.8443(9) 0.6767(10)
C28 C 0.4197(12) 0.5478(6) 0.6346(10)
C30 C 0.3522(11) 0.5890(5) 0.5352(9)
O20 O 0.0241(15) 0.4372(7) 0.4066(9)
O21 O 0.4610(17) 0.9054(6) 0.8287(10)
C32 C 0.3303(15) 0.7595(6) 0.7897(11)
H17 H 0.2873 0.7843 0.7268
H18 H 0.0460 0.6800 0.6250
H19 H 0.0909 0.7367 0.5721
H20 H 0.5795 0.8491 0.6018
H21 H 0.4938 0.8306 0.6971
H22 H 0.5298 0.8915 0.8827
H23 H 0.4610 0.9282 0.7773
Zn7 Zn 0.32738(14) 0.20046(6) 0.94035(11)
N16 N 0.7663(12) 0.7619(5) 0.8541(9)
N18 N 0.7846(9) 0.7136(4) 0.9292(7)
C1 C 0.8834(13) 0.6794(5) 0.9071(9)
H1 H 0.9157 0.6435 0.9464
N1 N 0.9312(11) 0.7037(5) 0.8195(8)
C31 C 0.8591(13) 0.7531(6) 0.7920(10)
H16 H 0.8711 0.7800 0.7342
C1_2 C 0.1166(13) 0.1794(5) 0.0929(9)
H1_2 H 0.0843 0.1435 0.0536
N1_2 N 0.0688(11) 0.2037(5) 0.1805(8)
N10 N 0.2337(12) 0.2619(5) 0.1459(9)
N13 N 0.2154(9) 0.2136(4) 0.0708(7)
C31_2 C 0.1409(13) 0.2531(6) 0.2080(10)
H16_2 H 0.1289 0.2800 0.2658
Zn3_2 Zn 0.91664(15) 0.17577(7) 0.25037(12)
O1_2 O 0.3725(8) 0.1073(4) 0.0229(6)
O3_2 O 0.8238(10) 0.0715(4) 0.1092(8)
O4_2 O 0.9709(10) 0.2156(5) 0.4062(8)
O7 O 0.6424(11) 0.1464(5) 0.4563(7)
C5_2 C 0.3967(12) 0.0540(5) 0.0346(9)
O10_2 O 0.9142(11) 0.0915(4) 0.2974(8)
N7_2 N 0.7294(10) 0.2112(5) 0.1734(9)
N8_2 N 0.5417(9) 0.2668(5) 0.1450(8)
C11_2 C 0.4665(10) 0.0298(5) 0.1598(9)
C12_2 C 0.8619(14) 0.0559(6) 0.2128(12)
O11 O 0.7160(10) 0.0646(5) 0.5587(7)
H7_2 H 0.9268 0.0038 0.4263
N11_2 N 0.5218(9) 0.2221(4) 0.0601(8)
C16_2 C 0.6380(12) 0.1913(5) 0.0797(9)
H8_2 H 0.6533 0.1593 0.0328
C25_2 C 0.5213(12) 0.0708(5) 0.2526(8)
H13_2 H 0.5183 0.1124 0.2388
O16_2 O 0.4130(19) 0.3443(9) 0.3233(10)
C28_2 C 0.5803(12) 0.0478(6) 0.3654(10)
C30_2 C 0.6478(11) 0.0890(5) 0.4648(9)
O21_2 O 0.5390(17) 0.4054(6) 0.1713(10)
C32_2 C 0.6697(15) 0.2595(6) 0.2103(11)
H17_2 H 0.7127 0.2843 0.2732
H18_2 H 0.9540 0.1800 0.3750
H19_2 H 0.9091 0.2367 0.4279
H20_2 H 0.4205 0.3491 0.3982
H21_2 H 0.5062 0.3306 0.3029
H22_2 H 0.4702 0.3915 0.1173
H23_2 H 0.5390 0.4282 0.2227
Zn8 Zn 0.73653(14) 0.17444(6) 0.62089(11)
C3_2 C 0.0239(14) 0.1915(5) 0.7732(11)
H2_2 H 0.0056 0.2316 0.7889
N3_2 N 0.4419(8) 0.1719(4) 0.8169(7)
C4_2 C 0.5390(12) 0.1984(5) 0.7742(9)
H3_2 H 0.5612 0.2395 0.7835
N5_2 N 0.1287(10) 0.1072(4) 0.7774(8)
O8_2 O 0.3765(11) 0.0144(4) 0.9548(6)
N9_2 N 0.1418(9) 0.1636(4) 0.8195(8)
N12 N 0.6005(10) 0.1597(4) 0.7169(8)
N14_2 N 0.4450(10) 0.1125(4) 0.7875(8)
C27_2 C 0.0060(13) 0.1039(5) 0.7065(10)
C29_2 C 0.5355(13) 0.1070(5) 0.7263(10)
H15_2 H 0.5536 0.0707 0.6926
N4_2 N 0.5278(11) 0.8818(5) 0.3162(9)
N6_2 N 0.9252(15) 0.8992(6) 0.5254(10)
O9_2 O 0.4801(11) 0.8485(4) 0.2304(9)
C8_2 C 0.7925(10) 0.8860(5) 0.1985(9)
C9_2 C 0.5240(12) 0.9474(5) 0.2906(9)
C10_2 C 0.8845(12) 0.9147(6) 0.3961(10)
C13_2 C 0.4734(11) 0.9684(5) 0.1806(9)
H6_2 H 0.4429 0.9414 0.1184
C14_2 C 0.8540(12) 0.9909(5) 0.2489(10)
C15_2 C 0.8944(14) 0.9749(6) 0.3680(11)
C17_2 C 0.7322(13) 0.8388(6) 0.1046(11)
C18_2 C 0.5814(11) 0.9860(6) 0.3855(9)
H9_2 H 0.6194 0.9704 0.4605
C19_2 C 0.8031(13) 0.9462(6) 0.1664(11)
H10_2 H 0.7751 0.9567 0.0870
C22_2 C 0.8367(12) 0.8698(5) 0.3145(10)
H12_2 H 0.8345 0.8295 0.3377
O12_2 O 0.9053(16) 0.8473(6) 0.5519(10)
O14_2 O 0.5693(13) 0.8637(5) 0.4157(9)
O20_2 O 0.9759(15) 0.9372(7) 0.5934(9)
C2_2 C 0.7713(10) 0.2987(5) 0.5744(8)
N2_2 N 0.9348(10) 0.1553(4) 0.7012(8)
O6_2 O 0.7481(10) 0.2631(4) 0.6495(8)
C6_2 C 0.7884(14) 0.4903(5) 0.6447(11)
H4_2 H 0.7947 0.5317 0.6608
C7_2 C 0.7505(11) 0.4081(5) 0.5096(9)
H5_2 H 0.7323 0.3944 0.4321
C20_2 C 0.8061(12) 0.3856(5) 0.7137(9)
H11_2 H 0.8233 0.3582 0.7762
C21_2 C 0.7732(12) 0.3657(5) 0.6000(11)
C23_2 C 0.7537(12) 0.4681(5) 0.5295(10)
O15_2 O 0.7624(15) 0.5674(5) 0.4562(9)
C24_2 C 0.8132(12) 0.4472(6) 0.7338(10)
C26_2 C 0.7366(14) 0.5154(5) 0.4317(10)
H14_2 H 0.9714 0.0692 0.6638
O17_2 O 0.7830(11) 0.2820(5) 0.4742(7)
O18_2 O 0.8668(10) 0.5227(5) 0.8766(9)
N15_2 N 0.8558(13) 0.4698(5) 0.8573(9)
O19_2 O 0.8755(15) 0.4317(6) 0.9344(8)
loop_
_geom_bond_atom_site_label_1
_geom_bond_atom_site_label_2
_geom_bond_site_symmetry_1
_geom_bond_site_symmetry_2
O15 C26 1_555 1_555
Zn2 N2 1_555 1_555
C2 O6 1_555 1_555
O6 Zn2 1_555 1_555
C7 H5 1_555 1_555
C20 H11 1_555 1_555
C21 C2 1_555 1_555
C23 C6 1_555 1_555
C24 C6 1_555 1_555
O17 C2 1_555 1_555
N15 C24 1_555 1_555
O19 N15 1_555 1_555
O24 Zn2 1_555 1_555
O25 Zn2 1_555 1_555
N17 Zn2 1_555 1_555
C7 C21 1_555 1_555
C7 C23 1_555 1_555
C20 C21 1_555 1_555
C20 C24 1_555 1_555
Zn4 N5 1_555 1_555
C3 H2 1_555 1_555
N3 Zn1 1_555 1_555
C4 N3 1_555 1_555
H3 C4 1_555 1_555
N5 N9 1_555 1_555
O8 Zn4 1_555 1_555
N9 Zn1 1_555 1_555
N17 C4 1_555 1_555
N14 Zn4 1_555 1_555
C29 N17 1_555 1_555
H15 C29 1_555 1_555
O23 Zn1 1_555 1_555
O26 Zn4 1_555 1_555
C3 N9 1_555 1_555
N3 N14 1_555 1_555
N5 C27 1_555 1_555
N14 C29 1_555 1_555
Zn5 N8 1_555 1_555
O1 C5 1_555 1_555
O2 C17 1_555 1_555
O3 C12 1_555 1_555
O4 Zn3 1_555 1_555
N4 O9 1_555 1_555
O5 C17 1_555 1_555
O24 C30 1_555 1_555
N6 C10 1_555 1_555
O10 Zn3 1_555 1_555
N7 Zn3 1_555 1_555
N8 N11 1_555 1_555
C8 C17 1_555 1_555
C9 N4 1_555 1_555
C10 C15 1_555 1_555
C11 C5 1_555 1_555
C12 O10 1_555 1_555
O25 C30 1_555 1_555
C13 C9 1_555 1_555
H6 C13 1_555 1_555
C14 C12 1_555 1_555
C15 C14 1_555 1_555
H7 C15 1_555 1_555
C16 N7 1_555 1_555
H8 C16 1_555 1_555
C18 C9 1_555 1_555
H9 C18 1_555 1_555
C19 C8 1_555 1_555
H10 C19 1_555 1_555
C22 C8 1_555 1_555
H12 C22 1_555 1_555
O12 N6 1_555 1_555
O14 N4 1_555 1_555
C25 C11 1_555 1_555
H13 C25 1_555 1_555
O16 Zn5 1_555 1_555
C28 C18 1_555 1_555
C30 C28 1_555 1_555
O20 N6 1_555 1_555
O21 Zn5 1_555 1_555
C32 N7 1_555 1_555
H17 C32 1_555 1_555
H18 O4 1_555 1_555
H19 O4 1_555 1_555
H20 O16 1_555 1_555
H21 O16 1_555 1_555
H22 O21 1_555 1_555
H23 O21 1_555 1_555
Zn7 O5 1_555 1_555
N16 Zn5 1_555 1_555
N8 C32 1_555 1_555
C10 C22 1_555 1_555
C11 C13 1_555 1_555
C14 C19 1_555 1_555
N11 C16 1_555 1_555
C25 C28 1_555 1_555
N16 N18 1_555 1_555
C1 H1 1_555 1_555
N1 C1 1_555 1_555
N18 C1 1_555 1_555
C31 N1 1_555 1_555
H16 C31 1_555 1_555
N16 C31 1_555 1_555
C1_2 H1_2 1_555 1_555
N1_2 C1_2 1_555 1_555
N10 N13 1_555 1_555
N13 C1_2 1_555 1_555
C31_2 N1_2 1_555 1_555
H16_2 C31_2 1_555 1_555
Zn12 N10 1_555 1_555
N10 C31_2 1_555 1_555
Zn12 N8_2 1_555 1_555
O1_2 C5_2 1_555 1_555
O3_2 C12_2 1_555 1_555
O4_2 Zn3_2 1_555 1_555
O7 C30_2 1_555 1_555
O10_2 Zn3_2 1_555 1_555
N7_2 Zn3_2 1_555 1_555
N8_2 N11_2 1_555 1_555
C11_2 C5_2 1_555 1_555
C12_2 O10_2 1_555 1_555
O11 C30_2 1_555 1_555
C16_2 N7_2 1_555 1_555
H8_2 C16_2 1_555 1_555
C25_2 C11_2 1_555 1_555
H13_2 C25_2 1_555 1_555
O16_2 Zn12 1_555 1_555
C30_2 C28_2 1_555 1_555
O21_2 Zn12 1_555 1_555
C32_2 N7_2 1_555 1_555
H17_2 C32_2 1_555 1_555
H18_2 O4_2 1_555 1_555
H19_2 O4_2 1_555 1_555
H20_2 O16_2 1_555 1_555
H21_2 O16_2 1_555 1_555
H22_2 O21_2 1_555 1_555
H23_2 O21_2 1_555 1_555
Zn8 O7 1_555 1_555
N8_2 C32_2 1_555 1_555
O11 Zn8 1_555 1_555
N11_2 C16_2 1_555 1_555
C25_2 C28_2 1_555 1_555
Zn10 N5_2 1_555 1_555
C3_2 H2_2 1_555 1_555
N3_2 Zn7 1_555 1_555
C4_2 N3_2 1_555 1_555
H3_2 C4_2 1_555 1_555
N5_2 N9_2 1_555 1_555
O8_2 Zn10 1_555 1_555
N9_2 Zn7 1_555 1_555
N12 C4_2 1_555 1_555
N14_2 Zn10 1_555 1_555
C29_2 N12 1_555 1_555
H15_2 C29_2 1_555 1_555
Zn8 N12 1_555 1_555
C3_2 N9_2 1_555 1_555
N3_2 N14_2 1_555 1_555
N5_2 C27_2 1_555 1_555
N14_2 C29_2 1_555 1_555
O22 C17_2 1_555 1_555
N4_2 O9_2 1_555 1_555
O23 C17_2 1_555 1_555
N6_2 C10_2 1_555 1_555
C8_2 C17_2 1_555 1_555
C9_2 N4_2 1_555 1_555
C10_2 C15_2 1_555 1_555
C13_2 C9_2 1_555 1_555
H6_2 C13_2 1_555 1_555
C15_2 C14_2 1_555 1_555
C18_2 C9_2 1_555 1_555
H9_2 C18_2 1_555 1_555
C19_2 C8_2 1_555 1_555
H10_2 C19_2 1_555 1_555
C22_2 C8_2 1_555 1_555
H12_2 C22_2 1_555 1_555
O12_2 N6_2 1_555 1_555
O14_2 N4_2 1_555 1_555
O20_2 N6_2 1_555 1_555
C10_2 C22_2 1_555 1_555
C14_2 C19_2 1_555 1_555
Zn8 N2_2 1_555 1_555
C2_2 O6_2 1_555 1_555
O6_2 Zn8 1_555 1_555
C6_2 H4_2 1_555 1_555
C7_2 H5_2 1_555 1_555
C20_2 H11_2 1_555 1_555
C21_2 C2_2 1_555 1_555
O26 C26_2 1_555 1_555
C23_2 C6_2 1_555 1_555
O15_2 C26_2 1_555 1_555
C24_2 C6_2 1_555 1_555
C26_2 C23_2 1_555 1_555
O17_2 C2_2 1_555 1_555
O18_2 N15_2 1_555 1_555
N15_2 C24_2 1_555 1_555
O19_2 N15_2 1_555 1_555
C7_2 C21_2 1_555 1_555
C7_2 C23_2 1_555 1_555
C20_2 C21_2 1_555 1_555
C20_2 C24_2 1_555 1_555

#END
