
###############################################################################
#
# This file contains modified crystal structure data generated from the
# MOF subset of the Cambridge Structural Database (CSD) v543 
# hosted by the Cambridge Crystallographic Data Centre (CCDC).
#
# This work is licensed under the Creative Commons
# Attribution-NonCommercial-ShareAlike 4.0 International License.
# To view a copy of this license, visit
# http://creativecommons.org/licenses/by-nc-sa/4.0/
# or send a letter to
# Creative Commons, PO Box 1866, Mountain View, CA 94042, USA.
#
# CIF created using the CSD Python API on 29 September 2022
# The structure has been converted into the P1 space group
# The structure has a 3D framework
# The original CSD entry MIXZOK is in the hexagonal crystal system
# The framework has been calculated to contain at least 10.0% void space
# The void calculation uses a probe of radius 1.32A, grid spacing 0.4
# The framework is charged, counterions have been retained in the structure
# H atom positions have been added when not included in the experimental data
# Generated hydrogen atom positions removed from atoms on special positions
#
###############################################################################

data_MIXZOK
_chemical_formula_moiety         '(C168 H138 Ni6 O32 2-)n'
_symmetry_cell_setting           triclinic
_symmetry_space_group_name_H-M   'P 1'
_symmetry_Int_Tables_number      1
_space_group_name_Hall           'P 1'
loop_
_symmetry_equiv_pos_site_id
_symmetry_equiv_pos_as_xyz
1 x,y,z
_cell_length_a                   19.1786(7)
_cell_length_b                   19.1786(7)
_cell_length_c                   27.926(2)
_cell_angle_alpha                90
_cell_angle_beta                 90
_cell_angle_gamma                120
_cell_volume                     8895.56
loop_
_atom_site_label
_atom_site_type_symbol
_atom_site_fract_x
_atom_site_fract_y
_atom_site_fract_z
C8 C 0.0708(4) -0.0000 0.5000
C10 C 0.1506(4) -0.0000 0.5000
C12 C 0.2932(5) -0.0000 0.5000
H6 H 0.3417 -0.0000 0.5000
C14 C 0.2182(3) 0.5133(5) 0.68390(18)
C15 C 0.1735(4) 0.4537(6) 0.6442(2)
C16 C 0.0910(4) 0.3428(6) 0.5713(2)
C17 C 0.0626(5) 0.3906(6) 0.5895(3)
H8 H 0.0154 0.3861 0.5773
C18 C 0.2021(5) 0.4084(6) 0.6253(2)
H9 H 0.2508 0.4152 0.6364
C19 C 0.1620(5) 0.3527(6) 0.5902(3)
H10 H 0.1827 0.3211 0.5789
C20 C 0.1034(5) 0.4455(7) 0.6260(3)
H11 H 0.0829 0.4768 0.6381
O5 O 0.1874(3) 0.5533(4) 0.69829(17)
O6 O 0.2804(3) 0.5160(4) 0.69866(15)
C21 C 0.0000 0.0708(4) 0.5000
C22 C 0.0450(4) 0.2816(6) 0.5342(2)
C23 C 0.0000 0.1506(4) 0.5000
C24 C 0.0459(4) 0.2102(6) 0.5331(2)
H12 H 0.0776 0.2018 0.5549
C25 C -0.0000 0.2932(5) 0.5000
H13 H 0.0000 0.3417 0.5000
C26 C 0.0724(4) 0.0724(4) 0.5000
H14 H 0.1209 0.1209 0.5000
C49 C 0.5133(5) 0.2182(3) 0.31610(18)
C50 C 0.4537(6) 0.1735(4) 0.3558(2)
C51 C 0.3428(6) 0.0910(4) 0.4287(2)
C52 C 0.3906(6) 0.0626(5) 0.4105(3)
H27 H 0.3861 0.0154 0.4227
C53 C 0.4084(6) 0.2021(5) 0.3747(2)
H28 H 0.4152 0.2508 0.3636
C54 C 0.3527(6) 0.1620(5) 0.4098(3)
H29 H 0.3211 0.1827 0.4211
C55 C 0.4455(7) 0.1034(5) 0.3740(3)
H30 H 0.4768 0.0829 0.3619
O11 O 0.5533(4) 0.1874(3) 0.30171(17)
O12 O 0.5160(4) 0.2804(3) 0.30134(15)
C56 C 0.2816(6) 0.0450(4) 0.4658(2)
C57 C 0.2102(6) 0.0459(4) 0.4669(2)
H31 H 0.2018 0.0776 0.4451
Ni5 Ni 0.21898(5) 0.63827(7) 0.7500
Ni7 Ni 0.36173(7) 0.58071(5) 0.7500
Ni11 Ni 0.63827(7) 0.21898(5) 0.2500
Ni13 Ni 0.58071(5) 0.36173(7) 0.2500
O1 O 0.5125(4) 0.9046(4) 0.7500
Ni1 Ni 0.41929(5) 0.78102(5) 0.7500
C1 C 0.2951(4) 0.7818(3) 0.68390(18)
C2 C 0.2802(4) 0.8265(4) 0.6442(2)
C3 C 0.2518(4) 0.9090(4) 0.5713(2)
C4 C 0.3280(4) 0.9374(5) 0.5895(3)
H1 H 0.3707 0.9846 0.5773
C5 C 0.2063(4) 0.7979(5) 0.6253(2)
H2 H 0.1644 0.7492 0.6364
C6 C 0.1907(4) 0.8380(5) 0.5902(3)
H3 H 0.1384 0.8173 0.5789
C7 C 0.3421(5) 0.8966(5) 0.6260(3)
H4 H 0.3939 0.9171 0.6381
O2 O 0.3333 0.6667 0.7500
O3 O 0.3659(3) 0.8126(3) 0.69829(17)
O4 O 0.2356(3) 0.7196(3) 0.69866(15)
C8_2 C 0.0708(4) 1.0000 0.5000
C9 C 0.2366(4) 0.9550(4) 0.5342(2)
C10_2 C 0.1506(4) 1.0000 0.5000
C11 C 0.1643(4) 0.9541(4) 0.5331(2)
H5 H 0.1242 0.9224 0.5549
C12_2 C 0.2932(5) 1.0000 0.5000
H6_2 H 0.3417 1.0000 0.5000
C13 C 0.0000 0.9276(4) 0.5000
H7 H 0.0000 0.8791 0.5000
O15 O 0.0954(4) 0.6079(6) 0.7500
O16 O 0.3921(6) 0.4875(4) 0.7500
O18 O 0.4467(4) 0.6341(3) 0.69829(17)
O19 O 0.3659(3) 0.8126(3) 0.80171(17)
O20 O 0.1874(3) 0.5533(4) 0.80171(17)
O21 O 0.4467(4) 0.6341(3) 0.80171(17)
O23 O 0.4840(4) 0.7644(3) 0.69866(15)
O24 O 0.2356(3) 0.7196(3) 0.80134(15)
O25 O 0.2804(3) 0.5160(4) 0.80134(15)
O26 O 0.4840(4) 0.7644(3) 0.80134(15)
C21_2 C 1.0000 0.0708(4) 0.5000
C23_2 C 1.0000 0.1506(4) 0.5000
C25_2 C 1.0000 0.2932(5) 0.5000
H13_2 H 1.0000 0.3417 0.5000
C39 C 0.9276(4) -0.0000 0.5000
H21 H 0.8791 -0.0000 0.5000
C40 C 0.7818(3) 0.2951(4) 0.31610(18)
C41 C 0.8265(4) 0.2802(4) 0.3558(2)
C42 C 0.9090(4) 0.2518(4) 0.4287(2)
C43 C 0.9374(5) 0.3280(4) 0.4105(3)
H22 H 0.9846 0.3707 0.4227
C44 C 0.7979(5) 0.2063(4) 0.3747(2)
H23 H 0.7492 0.1644 0.3636
C45 C 0.8380(5) 0.1907(4) 0.4098(3)
H24 H 0.8173 0.1384 0.4211
C46 C 0.8966(5) 0.3421(5) 0.3740(3)
H25 H 0.9171 0.3939 0.3619
O9 O 0.8126(3) 0.3659(3) 0.30171(17)
O10 O 0.7196(3) 0.2356(3) 0.30134(15)
C47 C 0.9550(4) 0.2366(4) 0.4658(2)
C48 C 0.9541(4) 0.1643(4) 0.4669(2)
H26 H 0.9224 0.1242 0.4451
Ni9 Ni 0.78102(5) 0.41929(5) 0.2500
C13_2 C 1.0000 0.9276(4) 0.5000
H7_2 H 1.0000 0.8791 0.5000
C27 C 0.4867(5) 0.7049(4) 0.68390(18)
C28 C 0.5463(6) 0.7198(4) 0.6442(2)
C29 C 0.6572(6) 0.7482(4) 0.5713(2)
C30 C 0.6094(6) 0.6720(4) 0.5895(3)
H15 H 0.6139 0.6293 0.5773
C31 C 0.5916(6) 0.7937(4) 0.6253(2)
H16 H 0.5848 0.8356 0.6364
C32 C 0.6473(6) 0.8093(4) 0.5902(3)
H17 H 0.6789 0.8616 0.5789
C33 C 0.5545(7) 0.6579(5) 0.6260(3)
H18 H 0.5232 0.6061 0.6381
C34 C 0.9292(4) 0.9292(4) 0.5000
C35 C 0.7184(6) 0.7634(4) 0.5342(2)
C36 C 0.8494(4) 0.8494(4) 0.5000
C37 C 0.7898(6) 0.8357(4) 0.5331(2)
H19 H 0.7982 0.8758 0.5549
C38 C 0.7068(5) 0.7068(5) 0.5000
H20 H 0.6583 0.6583 0.5000
C39_2 C 0.9276(4) 1.0000 0.5000
H21_2 H 0.8791 1.0000 0.5000
C58 C 0.7049(4) 0.4867(5) 0.31610(18)
C59 C 0.7198(4) 0.5463(6) 0.3558(2)
C60 C 0.7482(4) 0.6572(6) 0.4287(2)
C61 C 0.6720(4) 0.6094(6) 0.4105(3)
H32 H 0.6293 0.6139 0.4227
C62 C 0.7937(4) 0.5916(6) 0.3747(2)
H33 H 0.8356 0.5848 0.3636
C63 C 0.8093(4) 0.6473(6) 0.4098(3)
H34 H 0.8616 0.6789 0.4211
C64 C 0.6579(5) 0.5545(7) 0.3740(3)
H35 H 0.6061 0.5232 0.3619
O13 O 0.6341(3) 0.4467(4) 0.30171(17)
O14 O 0.7644(3) 0.4840(4) 0.30134(15)
C65 C 0.7634(4) 0.7184(6) 0.4658(2)
C66 C 0.8357(4) 0.7898(6) 0.4669(2)
H36 H 0.8758 0.7982 0.4451
C8_3 C 0.0708(4) -0.0000 0.0000
C10_3 C 0.1506(4) -0.0000 0.0000
C12_3 C 0.2932(5) -0.0000 0.0000
H6_3 H 0.3417 -0.0000 0.0000
C21_3 C 0.0000 0.0708(4) 0.0000
C23_3 C 0.0000 0.1506(4) 0.0000
C25_3 C -0.0000 0.2932(5) 0.0000
H13_3 H 0.0000 0.3417 0.0000
C26_2 C 0.0724(4) 0.0724(4) 0.0000
H14_2 H 0.1209 0.1209 0.0000
C49_2 C 0.5133(5) 0.2182(3) 0.18390(18)
C50_2 C 0.4537(6) 0.1735(4) 0.1442(2)
C51_2 C 0.3428(6) 0.0910(4) 0.0713(2)
C52_2 C 0.3906(6) 0.0626(5) 0.0895(3)
H27_2 H 0.3861 0.0154 0.0773
C53_2 C 0.4084(6) 0.2021(5) 0.1253(2)
H28_2 H 0.4152 0.2508 0.1364
C54_2 C 0.3527(6) 0.1620(5) 0.0902(3)
H29_2 H 0.3211 0.1827 0.0789
C55_2 C 0.4455(7) 0.1034(5) 0.1260(3)
H30_2 H 0.4768 0.0829 0.1381
O11_2 O 0.5533(4) 0.1874(3) 0.19829(17)
O12_2 O 0.5160(4) 0.2804(3) 0.19866(15)
C56_2 C 0.2816(6) 0.0450(4) 0.0342(2)
C57_2 C 0.2102(6) 0.0459(4) 0.0331(2)
H31_2 H 0.2018 0.0776 0.0549
C8_4 C 0.0708(4) -0.0000 1.0000
C10_4 C 0.1506(4) -0.0000 1.0000
C12_4 C 0.2932(5) -0.0000 1.0000
H6_4 H 0.3417 -0.0000 1.0000
C14_2 C 0.2182(3) 0.5133(5) 0.81610(18)
C15_2 C 0.1735(4) 0.4537(6) 0.8558(2)
C16_2 C 0.0910(4) 0.3428(6) 0.9287(2)
C17_2 C 0.0626(5) 0.3906(6) 0.9105(3)
H8_2 H 0.0154 0.3861 0.9227
C18_2 C 0.2021(5) 0.4084(6) 0.8747(2)
H9_2 H 0.2508 0.4152 0.8636
C19_2 C 0.1620(5) 0.3527(6) 0.9098(3)
H10_2 H 0.1827 0.3211 0.9211
C20_2 C 0.1034(5) 0.4455(7) 0.8740(3)
H11_2 H 0.0829 0.4768 0.8619
C21_4 C 0.0000 0.0708(4) 1.0000
C22_2 C 0.0450(4) 0.2816(6) 0.9658(2)
C23_4 C 0.0000 0.1506(4) 1.0000
C24_2 C 0.0459(4) 0.2102(6) 0.9669(2)
H12_2 H 0.0776 0.2018 0.9451
C25_4 C -0.0000 0.2932(5) 1.0000
H13_4 H 0.0000 0.3417 1.0000
C26_3 C 0.0724(4) 0.0724(4) 1.0000
H14_3 H 0.1209 0.1209 1.0000
C1_2 C 0.2951(4) 0.7818(3) 0.81610(18)
C2_2 C 0.2802(4) 0.8265(4) 0.8558(2)
C3_2 C 0.2518(4) 0.9090(4) 0.9287(2)
C4_2 C 0.3280(4) 0.9374(5) 0.9105(3)
H1_2 H 0.3707 0.9846 0.9227
C5_2 C 0.2063(4) 0.7979(5) 0.8747(2)
H2_2 H 0.1644 0.7492 0.8636
C6_2 C 0.1907(4) 0.8380(5) 0.9098(3)
H3_2 H 0.1384 0.8173 0.9211
C7_2 C 0.3421(5) 0.8966(5) 0.8740(3)
H4_2 H 0.3939 0.9171 0.8619
C8_5 C 0.0708(4) 1.0000 1.0000
C9_2 C 0.2366(4) 0.9550(4) 0.9658(2)
C10_5 C 0.1506(4) 1.0000 1.0000
C11_2 C 0.1643(4) 0.9541(4) 0.9669(2)
H5_2 H 0.1242 0.9224 0.9451
C12_5 C 0.2932(5) 1.0000 1.0000
H6_5 H 0.3417 1.0000 1.0000
C13_3 C 0.0000 0.9276(4) 1.0000
H7_3 H 0.0000 0.8791 1.0000
C21_5 C 1.0000 0.0708(4) 0.0000
C23_5 C 1.0000 0.1506(4) 0.0000
C25_5 C 1.0000 0.2932(5) 0.0000
H13_5 H 1.0000 0.3417 0.0000
C39_3 C 0.9276(4) -0.0000 0.0000
H21_3 H 0.8791 -0.0000 0.0000
C40_2 C 0.7818(3) 0.2951(4) 0.18390(18)
C41_2 C 0.8265(4) 0.2802(4) 0.1442(2)
C42_2 C 0.9090(4) 0.2518(4) 0.0713(2)
C43_2 C 0.9374(5) 0.3280(4) 0.0895(3)
H22_2 H 0.9846 0.3707 0.0773
C44_2 C 0.7979(5) 0.2063(4) 0.1253(2)
H23_2 H 0.7492 0.1644 0.1364
C45_2 C 0.8380(5) 0.1907(4) 0.0902(3)
H24_2 H 0.8173 0.1384 0.0789
C46_2 C 0.8966(5) 0.3421(5) 0.1260(3)
H25_2 H 0.9171 0.3939 0.1381
O9_2 O 0.8126(3) 0.3659(3) 0.19829(17)
O10_2 O 0.7196(3) 0.2356(3) 0.19866(15)
C47_2 C 0.9550(4) 0.2366(4) 0.0342(2)
C48_2 C 0.9541(4) 0.1643(4) 0.0331(2)
H26_2 H 0.9224 0.1242 0.0549
C13_4 C 1.0000 0.9276(4) 0.0000
H7_4 H 1.0000 0.8791 0.0000
C34_2 C 0.9292(4) 0.9292(4) 0.0000
C36_2 C 0.8494(4) 0.8494(4) 0.0000
C38_2 C 0.7068(5) 0.7068(5) 0.0000
H20_2 H 0.6583 0.6583 0.0000
C39_4 C 0.9276(4) 1.0000 0.0000
H21_4 H 0.8791 1.0000 0.0000
C58_2 C 0.7049(4) 0.4867(5) 0.18390(18)
C59_2 C 0.7198(4) 0.5463(6) 0.1442(2)
C60_2 C 0.7482(4) 0.6572(6) 0.0713(2)
C61_2 C 0.6720(4) 0.6094(6) 0.0895(3)
H32_2 H 0.6293 0.6139 0.0773
C62_2 C 0.7937(4) 0.5916(6) 0.1253(2)
H33_2 H 0.8356 0.5848 0.1364
C63_2 C 0.8093(4) 0.6473(6) 0.0902(3)
H34_2 H 0.8616 0.6789 0.0789
C64_2 C 0.6579(5) 0.5545(7) 0.1260(3)
H35_2 H 0.6061 0.5232 0.1381
O13_2 O 0.6341(3) 0.4467(4) 0.19829(17)
O14_2 O 0.7644(3) 0.4840(4) 0.19866(15)
C65_2 C 0.7634(4) 0.7184(6) 0.0342(2)
C66_2 C 0.8357(4) 0.7898(6) 0.0331(2)
H36_2 H 0.8758 0.7982 0.0549
C13_5 C 1.0000 0.9276(4) 1.0000
H7_5 H 1.0000 0.8791 1.0000
C27_2 C 0.4867(5) 0.7049(4) 0.81610(18)
C28_2 C 0.5463(6) 0.7198(4) 0.8558(2)
C29_2 C 0.6572(6) 0.7482(4) 0.9287(2)
C30_2 C 0.6094(6) 0.6720(4) 0.9105(3)
H15_2 H 0.6139 0.6293 0.9227
C31_2 C 0.5916(6) 0.7937(4) 0.8747(2)
H16_2 H 0.5848 0.8356 0.8636
C32_2 C 0.6473(6) 0.8093(4) 0.9098(3)
H17_2 H 0.6789 0.8616 0.9211
C33_2 C 0.5545(7) 0.6579(5) 0.8740(3)
H18_2 H 0.5232 0.6061 0.8619
C34_3 C 0.9292(4) 0.9292(4) 1.0000
C35_2 C 0.7184(6) 0.7634(4) 0.9658(2)
C36_3 C 0.8494(4) 0.8494(4) 1.0000
C37_2 C 0.7898(6) 0.8357(4) 0.9669(2)
H19_2 H 0.7982 0.8758 0.9451
C38_3 C 0.7068(5) 0.7068(5) 1.0000
H20_3 H 0.6583 0.6583 1.0000
C39_5 C 0.9276(4) 1.0000 1.0000
H21_5 H 0.8791 1.0000 1.0000
O1_2 O 0.9046(4) 0.5125(4) 0.2500
O2_2 O 0.6667 0.3333 0.2500
O15_2 O 0.6079(6) 0.0954(4) 0.2500
O16_2 O 0.4875(4) 0.3921(6) 0.2500
C8_6 C 0.0708(4) 1.0000 0.0000
C10_6 C 0.1506(4) 1.0000 0.0000
C12_6 C 0.2932(5) 1.0000 0.0000
H6_6 H 0.3417 1.0000 0.0000
C13_6 C 0.0000 0.9276(4) 0.0000
H7_6 H 0.0000 0.8791 0.0000
C21_6 C 1.0000 0.0708(4) 1.0000
C23_6 C 1.0000 0.1506(4) 1.0000
C25_6 C 1.0000 0.2932(5) 1.0000
H13_6 H 1.0000 0.3417 1.0000
C39_6 C 0.9276(4) -0.0000 1.0000
H21_6 H 0.8791 -0.0000 1.0000
loop_
_geom_bond_atom_site_label_1
_geom_bond_atom_site_label_2
_geom_bond_site_symmetry_1
_geom_bond_site_symmetry_2
C8 C10 1_555 1_555
H6 C12 1_555 1_555
C14 C15 1_555 1_555
C15 C18 1_555 1_555
C16 C17 1_555 1_555
C17 H8 1_555 1_555
C18 H9 1_555 1_555
C19 C16 1_555 1_555
H10 C19 1_555 1_555
C20 C15 1_555 1_555
H11 C20 1_555 1_555
O5 C14 1_555 1_555
O6 C14 1_555 1_555
C21 C23 1_555 1_555
C22 C16 1_555 1_555
C23 C24 1_555 1_555
C24 C22 1_555 1_555
H12 C24 1_555 1_555
C25 C22 1_555 1_555
H13 C25 1_555 1_555
C26 C8 1_555 1_555
H14 C26 1_555 1_555
C49 C50 1_555 1_555
C50 C53 1_555 1_555
C51 C52 1_555 1_555
C52 H27 1_555 1_555
C53 H28 1_555 1_555
C54 C51 1_555 1_555
H29 C54 1_555 1_555
C55 C50 1_555 1_555
H30 C55 1_555 1_555
O11 C49 1_555 1_555
O12 C49 1_555 1_555
C56 C12 1_555 1_555
C57 C10 1_555 1_555
H31 C57 1_555 1_555
Ni5 O5 1_555 1_555
Ni7 O6 1_555 1_555
Ni11 O11 1_555 1_555
Ni13 O12 1_555 1_555
C17 C20 1_555 1_555
C18 C19 1_555 1_555
C21 C26 1_555 1_555
C51 C56 1_555 1_555
C52 C55 1_555 1_555
C53 C54 1_555 1_555
C56 C57 1_555 1_555
O1 Ni1 1_555 1_555
Ni1 O2 1_555 1_555
C1 C2 1_555 1_555
C2 C5 1_555 1_555
C3 C4 1_555 1_555
C4 H1 1_555 1_555
C5 H2 1_555 1_555
C6 C3 1_555 1_555
H3 C6 1_555 1_555
C7 C2 1_555 1_555
H4 C7 1_555 1_555
O2 Ni5 1_555 1_555
O3 Ni1 1_555 1_555
O4 C1 1_555 1_555
C8_2 C10_2 1_555 1_555
C9 C3 1_555 1_555
C10_2 C11 1_555 1_555
C11 C9 1_555 1_555
H5 C11 1_555 1_555
C12_2 C9 1_555 1_555
H6_2 C12_2 1_555 1_555
C13 C8_2 1_555 1_555
H7 C13 1_555 1_555
O15 Ni5 1_555 1_555
Ni5 O4 1_555 1_555
O16 Ni7 1_555 1_555
Ni7 O2 1_555 1_555
O18 Ni7 1_555 1_555
O19 Ni1 1_555 1_555
O20 Ni5 1_555 1_555
O21 Ni7 1_555 1_555
O23 Ni1 1_555 1_555
O24 Ni5 1_555 1_555
O25 Ni7 1_555 1_555
O26 Ni1 1_555 1_555
C1 O3 1_555 1_555
C4 C7 1_555 1_555
C5 C6 1_555 1_555
C21_2 C23_2 1_555 1_555
H13_2 C25_2 1_555 1_555
C39 C21_2 1_555 1_555
H21 C39 1_555 1_555
C40 C41 1_555 1_555
C41 C44 1_555 1_555
C42 C43 1_555 1_555
C43 H22 1_555 1_555
C44 H23 1_555 1_555
C45 C42 1_555 1_555
H24 C45 1_555 1_555
C46 C41 1_555 1_555
H25 C46 1_555 1_555
O9 C40 1_555 1_555
O10 C40 1_555 1_555
C47 C25_2 1_555 1_555
C48 C23_2 1_555 1_555
H26 C48 1_555 1_555
Ni9 O9 1_555 1_555
Ni11 O10 1_555 1_555
C42 C47 1_555 1_555
C43 C46 1_555 1_555
C44 C45 1_555 1_555
C47 C48 1_555 1_555
H7_2 C13_2 1_555 1_555
C27 C28 1_555 1_555
C28 C31 1_555 1_555
C29 C30 1_555 1_555
C30 H15 1_555 1_555
C31 H16 1_555 1_555
C32 C29 1_555 1_555
H17 C32 1_555 1_555
C33 C28 1_555 1_555
H18 C33 1_555 1_555
O18 C27 1_555 1_555
O23 C27 1_555 1_555
C34 C13_2 1_555 1_555
C35 C29 1_555 1_555
C36 C34 1_555 1_555
C37 C35 1_555 1_555
H19 C37 1_555 1_555
C38 C35 1_555 1_555
H20 C38 1_555 1_555
H21_2 C39_2 1_555 1_555
C58 C59 1_555 1_555
C59 C62 1_555 1_555
C60 C61 1_555 1_555
C61 H32 1_555 1_555
C62 H33 1_555 1_555
C63 C60 1_555 1_555
H34 C63 1_555 1_555
C64 C59 1_555 1_555
H35 C64 1_555 1_555
O13 C58 1_555 1_555
O14 C58 1_555 1_555
C65 C38 1_555 1_555
C66 C36 1_555 1_555
H36 C66 1_555 1_555
Ni9 O14 1_555 1_555
Ni13 O13 1_555 1_555
C30 C33 1_555 1_555
C31 C32 1_555 1_555
C34 C39_2 1_555 1_555
C36 C37 1_555 1_555
C60 C65 1_555 1_555
C61 C64 1_555 1_555
C62 C63 1_555 1_555
C65 C66 1_555 1_555
C8_3 C10_3 1_555 1_555
H6_3 C12_3 1_555 1_555
C21_3 C23_3 1_555 1_555
H13_3 C25_3 1_555 1_555
C26_2 C8_3 1_555 1_555
H14_2 C26_2 1_555 1_555
C49_2 C50_2 1_555 1_555
C50_2 C53_2 1_555 1_555
C51_2 C52_2 1_555 1_555
C52_2 H27_2 1_555 1_555
C53_2 H28_2 1_555 1_555
C54_2 C51_2 1_555 1_555
H29_2 C54_2 1_555 1_555
C55_2 C50_2 1_555 1_555
H30_2 C55_2 1_555 1_555
O11_2 C49_2 1_555 1_555
O12_2 C49_2 1_555 1_555
C56_2 C12_3 1_555 1_555
C57_2 C10_3 1_555 1_555
H31_2 C57_2 1_555 1_555
Ni11 O11_2 1_555 1_555
Ni13 O12_2 1_555 1_555
C21_3 C26_2 1_555 1_555
C51_2 C56_2 1_555 1_555
C52_2 C55_2 1_555 1_555
C53_2 C54_2 1_555 1_555
C56_2 C57_2 1_555 1_555
C8_4 C10_4 1_555 1_555
H6_4 C12_4 1_555 1_555
C14_2 C15_2 1_555 1_555
C15_2 C18_2 1_555 1_555
C16_2 C17_2 1_555 1_555
C17_2 H8_2 1_555 1_555
C18_2 H9_2 1_555 1_555
C19_2 C16_2 1_555 1_555
H10_2 C19_2 1_555 1_555
C20_2 C15_2 1_555 1_555
H11_2 C20_2 1_555 1_555
O20 C14_2 1_555 1_555
O25 C14_2 1_555 1_555
C21_4 C23_4 1_555 1_555
C22_2 C16_2 1_555 1_555
C23_4 C24_2 1_555 1_555
C24_2 C22_2 1_555 1_555
H12_2 C24_2 1_555 1_555
C25_4 C22_2 1_555 1_555
H13_4 C25_4 1_555 1_555
C26_3 C8_4 1_555 1_555
H14_3 C26_3 1_555 1_555
C17_2 C20_2 1_555 1_555
C18_2 C19_2 1_555 1_555
C21_4 C26_3 1_555 1_555
C1_2 C2_2 1_555 1_555
C2_2 C5_2 1_555 1_555
C3_2 C4_2 1_555 1_555
C4_2 H1_2 1_555 1_555
C5_2 H2_2 1_555 1_555
C6_2 C3_2 1_555 1_555
H3_2 C6_2 1_555 1_555
C7_2 C2_2 1_555 1_555
H4_2 C7_2 1_555 1_555
O24 C1_2 1_555 1_555
C8_5 C10_5 1_555 1_555
C9_2 C3_2 1_555 1_555
C10_5 C11_2 1_555 1_555
C11_2 C9_2 1_555 1_555
H5_2 C11_2 1_555 1_555
C12_5 C9_2 1_555 1_555
H6_5 C12_5 1_555 1_555
C13_3 C8_5 1_555 1_555
H7_3 C13_3 1_555 1_555
C1_2 O19 1_555 1_555
C4_2 C7_2 1_555 1_555
C5_2 C6_2 1_555 1_555
C21_5 C23_5 1_555 1_555
H13_5 C25_5 1_555 1_555
C39_3 C21_5 1_555 1_555
H21_3 C39_3 1_555 1_555
C40_2 C41_2 1_555 1_555
C41_2 C44_2 1_555 1_555
C42_2 C43_2 1_555 1_555
C43_2 H22_2 1_555 1_555
C44_2 H23_2 1_555 1_555
C45_2 C42_2 1_555 1_555
H24_2 C45_2 1_555 1_555
C46_2 C41_2 1_555 1_555
H25_2 C46_2 1_555 1_555
O9_2 C40_2 1_555 1_555
O10_2 C40_2 1_555 1_555
C47_2 C25_5 1_555 1_555
C48_2 C23_5 1_555 1_555
H26_2 C48_2 1_555 1_555
Ni9 O9_2 1_555 1_555
Ni11 O10_2 1_555 1_555
C42_2 C47_2 1_555 1_555
C43_2 C46_2 1_555 1_555
C44_2 C45_2 1_555 1_555
C47_2 C48_2 1_555 1_555
H7_4 C13_4 1_555 1_555
C34_2 C13_4 1_555 1_555
C36_2 C34_2 1_555 1_555
H20_2 C38_2 1_555 1_555
H21_4 C39_4 1_555 1_555
C58_2 C59_2 1_555 1_555
C59_2 C62_2 1_555 1_555
C60_2 C61_2 1_555 1_555
C61_2 H32_2 1_555 1_555
C62_2 H33_2 1_555 1_555
C63_2 C60_2 1_555 1_555
H34_2 C63_2 1_555 1_555
C64_2 C59_2 1_555 1_555
H35_2 C64_2 1_555 1_555
O13_2 C58_2 1_555 1_555
O14_2 C58_2 1_555 1_555
C65_2 C38_2 1_555 1_555
C66_2 C36_2 1_555 1_555
H36_2 C66_2 1_555 1_555
Ni9 O14_2 1_555 1_555
Ni13 O13_2 1_555 1_555
C34_2 C39_4 1_555 1_555
C60_2 C65_2 1_555 1_555
C61_2 C64_2 1_555 1_555
C62_2 C63_2 1_555 1_555
C65_2 C66_2 1_555 1_555
H7_5 C13_5 1_555 1_555
C27_2 C28_2 1_555 1_555
C28_2 C31_2 1_555 1_555
C29_2 C30_2 1_555 1_555
C30_2 H15_2 1_555 1_555
C31_2 H16_2 1_555 1_555
C32_2 C29_2 1_555 1_555
H17_2 C32_2 1_555 1_555
C33_2 C28_2 1_555 1_555
H18_2 C33_2 1_555 1_555
O21 C27_2 1_555 1_555
O26 C27_2 1_555 1_555
C34_3 C13_5 1_555 1_555
C35_2 C29_2 1_555 1_555
C36_3 C34_3 1_555 1_555
C37_2 C35_2 1_555 1_555
H19_2 C37_2 1_555 1_555
C38_3 C35_2 1_555 1_555
H20_3 C38_3 1_555 1_555
H21_5 C39_5 1_555 1_555
C30_2 C33_2 1_555 1_555
C31_2 C32_2 1_555 1_555
C34_3 C39_5 1_555 1_555
C36_3 C37_2 1_555 1_555
O1_2 Ni9 1_555 1_555
Ni9 O2_2 1_555 1_555
O2_2 Ni11 1_555 1_555
O15_2 Ni11 1_555 1_555
O16_2 Ni13 1_555 1_555
Ni13 O2_2 1_555 1_555
C8_6 C10_6 1_555 1_555
H6_6 C12_6 1_555 1_555
C13_6 C8_6 1_555 1_555
H7_6 C13_6 1_555 1_555
C21_6 C23_6 1_555 1_555
H13_6 C25_6 1_555 1_555
C39_6 C21_6 1_555 1_555
H21_6 C39_6 1_555 1_555

#END
