
###############################################################################
#
# This file contains modified crystal structure data generated from the
# MOF subset of the Cambridge Structural Database (CSD) v543 
# hosted by the Cambridge Crystallographic Data Centre (CCDC).
#
# This work is licensed under the Creative Commons
# Attribution-NonCommercial-ShareAlike 4.0 International License.
# To view a copy of this license, visit
# http://creativecommons.org/licenses/by-nc-sa/4.0/
# or send a letter to
# Creative Commons, PO Box 1866, Mountain View, CA 94042, USA.
#
# CIF created using the CSD Python API on 29 September 2022
# The structure has been converted into the P1 space group
# The structure has a 3D framework
# The original CSD entry MIYGUX is in the cubic crystal system
# The framework has been calculated to contain at least 10.0% void space
# The void calculation uses a probe of radius 1.32A, grid spacing 0.4
#
###############################################################################

data_MIYGUX
_chemical_formula_moiety         '(C480 H576 Cu84 N192)n'
_symmetry_cell_setting           triclinic
_symmetry_space_group_name_H-M   'P 1'
_symmetry_Int_Tables_number      1
_space_group_name_Hall           'P 1'
loop_
_symmetry_equiv_pos_site_id
_symmetry_equiv_pos_as_xyz
1 x,y,z
_cell_length_a                   26.407(3)
_cell_length_b                   26.407(3)
_cell_length_c                   26.407(3)
_cell_angle_alpha                90
_cell_angle_beta                 90
_cell_angle_gamma                90
_cell_volume                     18414.4
loop_
_atom_site_label
_atom_site_type_symbol
_atom_site_fract_x
_atom_site_fract_y
_atom_site_fract_z
Cu2 Cu 0.23233(7) 0.14869(7) 0.23430(7)
N1 N 0.4109(6) 0.0320(5) 0.0517(5)
N2 N 0.4471(5) 0.0691(6) 0.0597(5)
C1 C 0.3243(6) 0.0125(6) 0.0714(7)
H1 H 0.3179 0.0050 0.0364
H2 H 0.2957 0.0300 0.0855
C2 C 0.3702(7) 0.0449(7) 0.0755(6)
C3 C 0.3744(7) 0.0922(7) 0.0982(7)
C4 C 0.4266(9) 0.1061(6) 0.0875(7)
C5 C 0.4565(6) 0.1508(6) 0.1012(6)
H4 H 0.4354 0.1803 0.0998
H5 H 0.4841 0.1545 0.0779
H6 H 0.4695 0.1467 0.1349
N3 N 0.2843(5) 0.1469(5) 0.1874(6)
N4 N 0.2854(6) 0.1842(6) 0.1501(6)
C6 C 0.3240(6) 0.0633(6) 0.2038(6)
H7 H 0.3258 0.0728 0.2388
H8 H 0.3557 0.0486 0.1936
H9 H 0.2973 0.0391 0.1991
C7 C 0.3137(6) 0.1092(6) 0.1723(6)
C8 C 0.3378(6) 0.1234(7) 0.1257(7)
C9 C 0.3181(6) 0.1711(7) 0.1134(8)
C10 C 0.3276(7) 0.2045(6) 0.0713(6)
H10 H 0.3173 0.2382 0.0801
H11 H 0.3087 0.1932 0.0424
H12 H 0.3631 0.2043 0.0635
Cu3 Cu 0.50135(7) 0.07663(7) 0.01566(7)
Cu4 Cu 0.23430(7) 0.23233(7) 0.14869(7)
N6 N 0.1842(6) 0.1501(6) 0.2854(6)
Cu1 Cu 0.07663(7) 0.01566(7) 0.50135(7)
H3 H 0.1703 0.0185 0.5896
N5 N 0.0691(6) 0.0597(5) 0.4471(5)
N1_2 N 0.0517(5) 0.4109(6) 0.0320(5)
N2_2 N 0.0597(5) 0.4471(5) 0.0691(6)
C1_2 C 0.0714(7) 0.3243(6) 0.0125(6)
H1_2 H 0.0364 0.3179 0.0050
H2_2 H 0.0855 0.2957 0.0300
C2_2 C 0.0755(6) 0.3702(7) 0.0449(7)
C3_2 C 0.0982(7) 0.3744(7) 0.0922(7)
C4_2 C 0.0875(7) 0.4266(9) 0.1061(6)
C5_2 C 0.1012(6) 0.4565(6) 0.1508(6)
H4_2 H 0.0998 0.4354 0.1803
H5_2 H 0.0779 0.4841 0.1545
H6_2 H 0.1349 0.4695 0.1467
N3_2 N 0.1874(6) 0.2843(5) 0.1469(5)
N4_2 N 0.1501(6) 0.2854(6) 0.1842(6)
C6_2 C 0.2038(6) 0.3240(6) 0.0633(6)
H7_2 H 0.2388 0.3258 0.0728
H8_2 H 0.1936 0.3557 0.0486
H9_2 H 0.1991 0.2973 0.0391
C7_2 C 0.1723(6) 0.3137(6) 0.1092(6)
C8_2 C 0.1257(7) 0.3378(6) 0.1234(7)
C9_2 C 0.1134(8) 0.3181(6) 0.1711(7)
C10_2 C 0.0713(6) 0.3276(7) 0.2045(6)
H10_2 H 0.0801 0.3173 0.2382
H11_2 H 0.0424 0.3087 0.1932
H12_2 H 0.0635 0.3631 0.2043
Cu3_2 Cu 0.01566(7) 0.50135(7) 0.07663(7)
Cu4_2 Cu 0.14869(7) 0.23430(7) 0.23233(7)
H3_2 H 0.5896 0.1703 0.0185
N1_3 N 0.0320(5) 0.0517(5) 0.4109(6)
C1_3 C 0.0125(6) 0.0714(7) 0.3243(6)
H1_3 H 0.0050 0.0364 0.3179
H2_3 H 0.0300 0.0855 0.2957
C2_3 C 0.0449(7) 0.0755(6) 0.3702(7)
C3_3 C 0.0922(7) 0.0982(7) 0.3744(7)
C4_3 C 0.1061(6) 0.0875(7) 0.4266(9)
C5_3 C 0.1508(6) 0.1012(6) 0.4565(6)
H4_3 H 0.1803 0.0998 0.4354
H5_3 H 0.1545 0.0779 0.4841
H6_3 H 0.1467 0.1349 0.4695
N3_3 N 0.1469(5) 0.1874(6) 0.2843(5)
C6_3 C 0.0633(6) 0.2038(6) 0.3240(6)
H7_3 H 0.0728 0.2388 0.3258
H8_3 H 0.0486 0.1936 0.3557
H9_3 H 0.0391 0.1991 0.2973
C7_3 C 0.1092(6) 0.1723(6) 0.3137(6)
C8_3 C 0.1234(7) 0.1257(7) 0.3378(6)
C9_3 C 0.1711(7) 0.1134(8) 0.3181(6)
C10_3 C 0.2045(6) 0.0713(6) 0.3276(7)
H10_3 H 0.2382 0.0801 0.3173
H11_3 H 0.1932 0.0424 0.3087
H12_3 H 0.2043 0.0635 0.3631
H3_3 H 0.0185 0.5896 0.1703
Cu1_2 Cu 0.42337(7) 0.98434(7) 0.00135(7)
H3_4 H 0.3297 0.9815 0.0896
N5_2 N 0.4309(6) 0.9403(5) 0.9471(5)
Cu2_2 Cu 0.26767(7) 0.85131(7) 0.73430(7)
N1_4 N 0.0891(6) 0.9680(5) 0.5517(5)
N2_3 N 0.0529(5) 0.9309(6) 0.5597(5)
C1_4 C 0.1757(6) 0.9875(6) 0.5714(7)
H1_4 H 0.1821 0.9950 0.5364
H2_4 H 0.2043 0.9700 0.5855
C2_4 C 0.1298(7) 0.9551(7) 0.5755(6)
C3_4 C 0.1256(7) 0.9078(7) 0.5982(7)
C4_4 C 0.0734(9) 0.8939(6) 0.5875(7)
C5_4 C 0.0435(6) 0.8492(6) 0.6012(6)
H4_4 H 0.0646 0.8197 0.5998
H5_4 H 0.0159 0.8455 0.5779
H6_4 H 0.0305 0.8533 0.6349
N3_4 N 0.2157(5) 0.8531(5) 0.6874(6)
N4_3 N 0.2146(6) 0.8158(6) 0.6501(6)
C6_4 C 0.1760(6) 0.9367(6) 0.7038(6)
H7_4 H 0.1742 0.9272 0.7388
H8_4 H 0.1443 0.9514 0.6936
H9_4 H 0.2027 0.9609 0.6991
C7_4 C 0.1863(6) 0.8908(6) 0.6723(6)
C8_4 C 0.1622(6) 0.8766(7) 0.6257(7)
C9_4 C 0.1819(6) 0.8289(7) 0.6134(8)
C10_4 C 0.1724(7) 0.7955(6) 0.5713(6)
H10_4 H 0.1827 0.7618 0.5801
H11_4 H 0.1913 0.8068 0.5424
H12_4 H 0.1369 0.7957 0.5635
Cu4_3 Cu 0.26570(7) 0.76767(7) 0.64869(7)
N6_2 N 0.3158(6) 0.8499(6) 0.7854(6)
Cu3_3 Cu 0.99865(7) 0.92337(7) 0.51566(7)
Cu1_3 Cu 0.57663(7) 0.48434(7) 0.49865(7)
Cu2_3 Cu 0.76767(7) 0.64869(7) 0.26570(7)
N1_5 N 0.5891(6) 0.5320(5) 0.4483(5)
N2_4 N 0.5529(5) 0.5691(6) 0.4403(5)
C1_5 C 0.6757(6) 0.5125(6) 0.4286(7)
H1_5 H 0.6821 0.5050 0.4636
H2_5 H 0.7043 0.5300 0.4145
H3_5 H 0.6703 0.4815 0.4104
C2_5 C 0.6298(7) 0.5449(7) 0.4245(6)
C3_5 C 0.6256(7) 0.5922(7) 0.4018(7)
C4_5 C 0.5734(9) 0.6061(6) 0.4125(7)
C5_5 C 0.5435(6) 0.6508(6) 0.3988(6)
H4_5 H 0.5646 0.6803 0.4002
H5_5 H 0.5159 0.6545 0.4221
H6_5 H 0.5305 0.6467 0.3651
N3_5 N 0.7157(5) 0.6469(5) 0.3126(6)
N4_4 N 0.7146(6) 0.6842(6) 0.3499(6)
C6_5 C 0.6760(6) 0.5633(6) 0.2962(6)
H7_5 H 0.6742 0.5728 0.2612
H8_5 H 0.6443 0.5486 0.3064
H9_5 H 0.7027 0.5391 0.3009
C7_5 C 0.6863(6) 0.6092(6) 0.3277(6)
C8_5 C 0.6622(6) 0.6234(7) 0.3743(7)
C9_5 C 0.6819(6) 0.6711(7) 0.3866(8)
C10_5 C 0.6724(7) 0.7045(6) 0.4287(6)
H10_5 H 0.6827 0.7382 0.4199
H11_5 H 0.6913 0.6932 0.4576
H12_5 H 0.6369 0.7043 0.4365
Cu3_4 Cu 0.49865(7) 0.57663(7) 0.48434(7)
Cu4_4 Cu 0.76570(7) 0.73233(7) 0.35131(7)
N5_3 N 0.5691(6) 0.4403(5) 0.5529(5)
N6_3 N 0.8158(6) 0.6501(6) 0.2146(6)
N5_4 N 0.9309(6) 0.5597(5) 0.0529(5)
Cu1_4 Cu 0.92337(7) 0.51566(7) 0.99865(7)
Cu2_4 Cu 0.73233(7) 0.35131(7) 0.76570(7)
N1_6 N 0.9109(6) 0.4680(5) 0.9483(5)
N2_5 N 0.9471(5) 0.4309(6) 0.9403(5)
C1_6 C 0.8243(6) 0.4875(6) 0.9286(7)
H1_6 H 0.8179 0.4950 0.9636
H2_6 H 0.7957 0.4700 0.9145
H3_6 H 0.8297 0.5185 0.9104
C2_6 C 0.8702(7) 0.4551(7) 0.9245(6)
C3_6 C 0.8744(7) 0.4078(7) 0.9018(7)
C4_6 C 0.9266(9) 0.3939(6) 0.9125(7)
C5_6 C 0.9565(6) 0.3492(6) 0.8988(6)
H4_6 H 0.9354 0.3197 0.9002
H5_6 H 0.9841 0.3455 0.9221
H6_6 H 0.9695 0.3533 0.8651
N3_6 N 0.7843(5) 0.3531(5) 0.8126(6)
N4_5 N 0.7854(6) 0.3158(6) 0.8499(6)
C6_6 C 0.8240(6) 0.4367(6) 0.7962(6)
H7_6 H 0.8258 0.4272 0.7612
H8_6 H 0.8557 0.4514 0.8064
H9_6 H 0.7973 0.4609 0.8009
C7_6 C 0.8137(6) 0.3908(6) 0.8277(6)
C8_6 C 0.8378(6) 0.3766(7) 0.8743(7)
C9_6 C 0.8181(6) 0.3289(7) 0.8866(8)
C10_6 C 0.8276(7) 0.2955(6) 0.9287(6)
H10_6 H 0.8173 0.2618 0.9199
H11_6 H 0.8087 0.3068 0.9576
H12_6 H 0.8631 0.2957 0.9365
Cu4_5 Cu 0.73430(7) 0.26767(7) 0.85131(7)
N6_4 N 0.6842(6) 0.3499(6) 0.7146(6)
N1_7 N 0.5517(5) 0.0891(6) 0.9680(5)
N2_6 N 0.5597(5) 0.0529(5) 0.9309(6)
C1_7 C 0.5714(7) 0.1757(6) 0.9875(6)
H1_7 H 0.5364 0.1821 0.9950
H2_7 H 0.5855 0.2043 0.9700
C2_7 C 0.5755(6) 0.1298(7) 0.9551(7)
C3_7 C 0.5982(7) 0.1256(7) 0.9078(7)
C4_7 C 0.5875(7) 0.0734(9) 0.8939(6)
C5_7 C 0.6012(6) 0.0435(6) 0.8492(6)
H4_7 H 0.5998 0.0646 0.8197
H5_7 H 0.5779 0.0159 0.8455
H6_7 H 0.6349 0.0305 0.8533
N3_7 N 0.6874(6) 0.2157(5) 0.8531(5)
N4_6 N 0.6501(6) 0.2146(6) 0.8158(6)
C6_7 C 0.7038(6) 0.1760(6) 0.9367(6)
H7_7 H 0.7388 0.1742 0.9272
H8_7 H 0.6936 0.1443 0.9514
H9_7 H 0.6991 0.2027 0.9609
C7_7 C 0.6723(6) 0.1863(6) 0.8908(6)
C8_7 C 0.6257(7) 0.1622(6) 0.8766(7)
C9_7 C 0.6134(8) 0.1819(6) 0.8289(7)
C10_7 C 0.5713(6) 0.1724(7) 0.7955(6)
H10_7 H 0.5801 0.1827 0.7618
H11_7 H 0.5424 0.1913 0.8068
H12_7 H 0.5635 0.1369 0.7957
Cu4_6 Cu 0.64869(7) 0.26570(7) 0.76767(7)
Cu3_5 Cu 0.51566(7) 0.99865(7) 0.92337(7)
N1_8 N 0.4483(5) 0.5891(6) 0.5320(5)
N2_7 N 0.4403(5) 0.5529(5) 0.5691(6)
C1_8 C 0.4286(7) 0.6757(6) 0.5125(6)
H1_8 H 0.4636 0.6821 0.5050
H2_8 H 0.4145 0.7043 0.5300
H3_7 H 0.4104 0.6703 0.4815
C2_8 C 0.4245(6) 0.6298(7) 0.5449(7)
C3_8 C 0.4018(7) 0.6256(7) 0.5922(7)
C4_8 C 0.4125(7) 0.5734(9) 0.6061(6)
C5_8 C 0.3988(6) 0.5435(6) 0.6508(6)
H4_8 H 0.4002 0.5646 0.6803
H5_8 H 0.4221 0.5159 0.6545
H6_8 H 0.3651 0.5305 0.6467
N3_8 N 0.3126(6) 0.7157(5) 0.6469(5)
N4_7 N 0.3499(6) 0.7146(6) 0.6842(6)
C6_8 C 0.2962(6) 0.6760(6) 0.5633(6)
H7_8 H 0.2612 0.6742 0.5728
H8_8 H 0.3064 0.6443 0.5486
H9_8 H 0.3009 0.7027 0.5391
C7_8 C 0.3277(6) 0.6863(6) 0.6092(6)
C8_8 C 0.3743(7) 0.6622(6) 0.6234(7)
C9_8 C 0.3866(8) 0.6819(6) 0.6711(7)
C10_8 C 0.4287(6) 0.6724(7) 0.7045(6)
H10_8 H 0.4199 0.6827 0.7382
H11_8 H 0.4576 0.6913 0.6932
H12_8 H 0.4365 0.6369 0.7043
Cu3_6 Cu 0.48434(7) 0.49865(7) 0.57663(7)
Cu4_7 Cu 0.35131(7) 0.76570(7) 0.73233(7)
N1_9 N 0.9483(5) 0.9109(6) 0.4680(5)
N2_8 N 0.9403(5) 0.9471(5) 0.4309(6)
C1_9 C 0.9286(7) 0.8243(6) 0.4875(6)
H1_9 H 0.9636 0.8179 0.4950
H2_9 H 0.9145 0.7957 0.4700
H3_8 H 0.9104 0.8297 0.5185
C2_9 C 0.9245(6) 0.8702(7) 0.4551(7)
C3_9 C 0.9018(7) 0.8744(7) 0.4078(7)
C4_9 C 0.9125(7) 0.9266(9) 0.3939(6)
C5_9 C 0.8988(6) 0.9565(6) 0.3492(6)
H4_9 H 0.9002 0.9354 0.3197
H5_9 H 0.9221 0.9841 0.3455
H6_9 H 0.8651 0.9695 0.3533
N3_9 N 0.8126(6) 0.7843(5) 0.3531(5)
N4_8 N 0.8499(6) 0.7854(6) 0.3158(6)
C6_9 C 0.7962(6) 0.8240(6) 0.4367(6)
H7_9 H 0.7612 0.8258 0.4272
H8_9 H 0.8064 0.8557 0.4514
H9_9 H 0.8009 0.7973 0.4609
C7_9 C 0.8277(6) 0.8137(6) 0.3908(6)
C8_9 C 0.8743(7) 0.8378(6) 0.3766(7)
C9_9 C 0.8866(8) 0.8181(6) 0.3289(7)
C10_9 C 0.9287(6) 0.8276(7) 0.2955(6)
H10_9 H 0.9199 0.8173 0.2618
H11_9 H 0.9576 0.8087 0.3068
H12_9 H 0.9365 0.8631 0.2957
Cu4_8 Cu 0.85131(7) 0.73430(7) 0.26767(7)
N1_10 N 0.9680(5) 0.5517(5) 0.0891(6)
C1_10 C 0.9875(6) 0.5714(7) 0.1757(6)
H1_10 H 0.9950 0.5364 0.1821
H2_10 H 0.9700 0.5855 0.2043
C2_10 C 0.9551(7) 0.5755(6) 0.1298(7)
C3_10 C 0.9078(7) 0.5982(7) 0.1256(7)
C4_10 C 0.8939(6) 0.5875(7) 0.0734(9)
C5_10 C 0.8492(6) 0.6012(6) 0.0435(6)
H4_10 H 0.8197 0.5998 0.0646
H5_10 H 0.8455 0.5779 0.0159
H6_10 H 0.8533 0.6349 0.0305
N3_10 N 0.8531(5) 0.6874(6) 0.2157(5)
C6_10 C 0.9367(6) 0.7038(6) 0.1760(6)
H7_10 H 0.9272 0.7388 0.1742
H8_10 H 0.9514 0.6936 0.1443
H9_10 H 0.9609 0.6991 0.2027
C7_10 C 0.8908(6) 0.6723(6) 0.1863(6)
C8_10 C 0.8766(7) 0.6257(7) 0.1622(6)
C9_10 C 0.8289(7) 0.6134(8) 0.1819(6)
C10_10 C 0.7955(6) 0.5713(6) 0.1724(7)
H10_10 H 0.7618 0.5801 0.1827
H11_10 H 0.8068 0.5424 0.1913
H12_10 H 0.7957 0.5635 0.1369
N1_11 N 0.5320(5) 0.4483(5) 0.5891(6)
C1_11 C 0.5125(6) 0.4286(7) 0.6757(6)
H1_11 H 0.5050 0.4636 0.6821
H2_11 H 0.5300 0.4145 0.7043
H3_9 H 0.4815 0.4104 0.6703
C2_11 C 0.5449(7) 0.4245(6) 0.6298(7)
C3_11 C 0.5922(7) 0.4018(7) 0.6256(7)
C4_11 C 0.6061(6) 0.4125(7) 0.5734(9)
C5_11 C 0.6508(6) 0.3988(6) 0.5435(6)
H4_11 H 0.6803 0.4002 0.5646
H5_11 H 0.6545 0.4221 0.5159
H6_11 H 0.6467 0.3651 0.5305
N3_11 N 0.6469(5) 0.3126(6) 0.7157(5)
C6_11 C 0.5633(6) 0.2962(6) 0.6760(6)
H7_11 H 0.5728 0.2612 0.6742
H8_11 H 0.5486 0.3064 0.6443
H9_11 H 0.5391 0.3009 0.7027
C7_11 C 0.6092(6) 0.3277(6) 0.6863(6)
C8_11 C 0.6234(7) 0.3743(7) 0.6622(6)
C9_11 C 0.6711(7) 0.3866(8) 0.6819(6)
C10_11 C 0.7045(6) 0.4287(6) 0.6724(7)
H10_11 H 0.7382 0.4199 0.6827
H11_11 H 0.6932 0.4576 0.6913
H12_11 H 0.7043 0.4365 0.6369
N1_12 N 0.4680(5) 0.9483(5) 0.9109(6)
C1_12 C 0.4875(6) 0.9286(7) 0.8243(6)
H1_12 H 0.4950 0.9636 0.8179
H2_12 H 0.4700 0.9145 0.7957
H3_10 H 0.5185 0.9104 0.8297
C2_12 C 0.4551(7) 0.9245(6) 0.8702(7)
C3_12 C 0.4078(7) 0.9018(7) 0.8744(7)
C4_12 C 0.3939(6) 0.9125(7) 0.9266(9)
C5_12 C 0.3492(6) 0.8988(6) 0.9565(6)
H4_12 H 0.3197 0.9002 0.9354
H5_12 H 0.3455 0.9221 0.9841
H6_12 H 0.3533 0.8651 0.9695
N3_12 N 0.3531(5) 0.8126(6) 0.7843(5)
C6_12 C 0.4367(6) 0.7962(6) 0.8240(6)
H7_12 H 0.4272 0.7612 0.8258
H8_12 H 0.4514 0.8064 0.8557
H9_12 H 0.4609 0.8009 0.7973
C7_12 C 0.3908(6) 0.8277(6) 0.8137(6)
C8_12 C 0.3766(7) 0.8743(7) 0.8378(6)
C9_12 C 0.3289(7) 0.8866(8) 0.8181(6)
C10_12 C 0.2955(6) 0.9287(6) 0.8276(7)
H10_12 H 0.2618 0.9199 0.8173
H11_12 H 0.3068 0.9576 0.8087
H12_12 H 0.2957 0.9365 0.8631
Cu3_7 Cu 0.00135(7) 0.42337(7) 0.98434(7)
H3_11 H 0.0896 0.3297 0.9815
Cu3_8 Cu 0.98434(7) 0.00135(7) 0.42337(7)
H3_12 H 0.9815 0.0896 0.3297
Cu1_5 Cu 0.23434(7) 0.67337(7) 0.25135(7)
Cu2_5 Cu 0.39869(7) 0.48233(7) 0.48430(7)
N1_13 N 0.2820(5) 0.6609(6) 0.3017(5)
N2_9 N 0.3191(6) 0.6971(5) 0.3097(5)
C1_13 C 0.2625(6) 0.5743(6) 0.3214(7)
H1_13 H 0.2550 0.5679 0.2864
H2_13 H 0.2800 0.5457 0.3355
H3_13 H 0.2315 0.5797 0.3396
C2_13 C 0.2949(7) 0.6202(7) 0.3255(6)
C3_13 C 0.3422(7) 0.6244(7) 0.3482(7)
C4_13 C 0.3561(6) 0.6766(9) 0.3375(7)
C5_13 C 0.4008(6) 0.7065(6) 0.3512(6)
H4_13 H 0.4303 0.6854 0.3498
H5_13 H 0.4045 0.7341 0.3279
H6_13 H 0.3967 0.7195 0.3849
N3_13 N 0.3969(5) 0.5343(5) 0.4374(6)
N4_9 N 0.4342(6) 0.5354(6) 0.4001(6)
C6_13 C 0.3133(6) 0.5740(6) 0.4538(6)
H7_13 H 0.3228 0.5758 0.4888
H8_13 H 0.2986 0.6057 0.4436
H9_13 H 0.2891 0.5473 0.4491
C7_13 C 0.3592(6) 0.5637(6) 0.4223(6)
C8_13 C 0.3734(7) 0.5878(6) 0.3757(7)
C9_13 C 0.4211(7) 0.5681(6) 0.3634(8)
C10_13 C 0.4545(6) 0.5776(7) 0.3213(6)
H10_13 H 0.4882 0.5673 0.3301
H11_13 H 0.4432 0.5587 0.2924
H12_13 H 0.4543 0.6131 0.3135
Cu3_9 Cu 0.32663(7) 0.75135(7) 0.26566(7)
Cu4_9 Cu 0.48233(7) 0.48430(7) 0.39869(7)
N5_5 N 0.1903(5) 0.6809(6) 0.1971(5)
N6_5 N 0.4001(6) 0.4342(6) 0.5354(6)
N6_6 N 0.0999(6) 0.5658(6) 0.0354(6)
Cu1_6 Cu 0.26566(7) 0.32663(7) 0.75135(7)
Cu2_6 Cu 0.10131(7) 0.51767(7) 0.98430(7)
N1_14 N 0.2180(5) 0.3391(6) 0.8017(5)
N2_10 N 0.1809(6) 0.3029(5) 0.8097(5)
C1_14 C 0.2375(6) 0.4257(6) 0.8214(7)
H1_14 H 0.2450 0.4321 0.7864
H2_14 H 0.2200 0.4543 0.8355
H3_14 H 0.2685 0.4203 0.8396
C2_14 C 0.2051(7) 0.3798(7) 0.8255(6)
C3_14 C 0.1578(7) 0.3756(7) 0.8482(7)
C4_14 C 0.1439(6) 0.3234(9) 0.8375(7)
C5_14 C 0.0992(6) 0.2935(6) 0.8512(6)
H4_14 H 0.0697 0.3146 0.8498
H5_14 H 0.0955 0.2659 0.8279
H6_14 H 0.1033 0.2805 0.8849
N3_14 N 0.1031(5) 0.4657(5) 0.9374(6)
N4_10 N 0.0658(6) 0.4646(6) 0.9001(6)
C6_14 C 0.1867(6) 0.4260(6) 0.9538(6)
H7_14 H 0.1772 0.4242 0.9888
H8_14 H 0.2014 0.3943 0.9436
H9_14 H 0.2109 0.4527 0.9491
C7_14 C 0.1408(6) 0.4363(6) 0.9223(6)
C8_14 C 0.1266(7) 0.4122(6) 0.8757(7)
C9_14 C 0.0789(7) 0.4319(6) 0.8634(8)
C10_14 C 0.0455(6) 0.4224(7) 0.8213(6)
H10_14 H 0.0118 0.4327 0.8301
H11_14 H 0.0568 0.4413 0.7924
H12_14 H 0.0457 0.3869 0.8135
Cu3_10 Cu 0.17337(7) 0.24865(7) 0.76566(7)
Cu4_10 Cu 0.01767(7) 0.51570(7) 0.89869(7)
N5_6 N 0.3097(5) 0.3191(6) 0.6971(5)
Cu2_7 Cu 0.89869(7) 0.01767(7) 0.51570(7)
Cu4_11 Cu 0.98233(7) 0.01570(7) 0.60131(7)
N6_7 N 0.9001(6) 0.0658(6) 0.4646(6)
Cu1_7 Cu 0.76566(7) 0.17337(7) 0.24865(7)
N1_15 N 0.7180(5) 0.1609(6) 0.1983(5)
N2_11 N 0.6809(6) 0.1971(5) 0.1903(5)
C1_15 C 0.7375(6) 0.0743(6) 0.1786(7)
H1_15 H 0.7450 0.0679 0.2136
H2_15 H 0.7200 0.0457 0.1645
H3_15 H 0.7685 0.0797 0.1604
C2_15 C 0.7051(7) 0.1202(7) 0.1745(6)
C3_15 C 0.6578(7) 0.1244(7) 0.1518(7)
C4_15 C 0.6439(6) 0.1766(9) 0.1625(7)
C5_15 C 0.5992(6) 0.2065(6) 0.1488(6)
H4_15 H 0.5697 0.1854 0.1502
H5_15 H 0.5955 0.2341 0.1721
H6_15 H 0.6033 0.2195 0.1151
N3_15 N 0.6031(5) 0.0343(5) 0.0626(6)
N4_11 N 0.5658(6) 0.0354(6) 0.0999(6)
C6_15 C 0.6867(6) 0.0740(6) 0.0462(6)
H7_15 H 0.6772 0.0758 0.0112
H8_15 H 0.7014 0.1057 0.0564
H9_15 H 0.7109 0.0473 0.0509
C7_15 C 0.6408(6) 0.0637(6) 0.0777(6)
C8_15 C 0.6266(7) 0.0878(6) 0.1243(7)
C9_15 C 0.5789(7) 0.0681(6) 0.1366(8)
C10_15 C 0.5455(6) 0.0776(7) 0.1787(6)
H10_15 H 0.5118 0.0673 0.1699
H11_15 H 0.5568 0.0587 0.2076
H12_15 H 0.5457 0.1131 0.1865
Cu3_11 Cu 0.67337(7) 0.25135(7) 0.23434(7)
N5_7 N 0.8097(5) 0.1809(6) 0.3029(5)
Cu2_8 Cu 0.60131(7) 0.98233(7) 0.01570(7)
Cu4_12 Cu 0.51767(7) 0.98430(7) 0.10131(7)
N1_16 N 0.6609(6) 0.3017(5) 0.2820(5)
N2_12 N 0.6971(5) 0.3097(5) 0.3191(6)
C1_16 C 0.5743(6) 0.3214(7) 0.2625(6)
H1_16 H 0.5679 0.2864 0.2550
H2_16 H 0.5457 0.3355 0.2800
H3_16 H 0.5797 0.3396 0.2315
C2_16 C 0.6202(7) 0.3255(6) 0.2949(7)
C3_16 C 0.6244(7) 0.3482(7) 0.3422(7)
C4_16 C 0.6766(9) 0.3375(7) 0.3561(6)
C5_16 C 0.7065(6) 0.3512(6) 0.4008(6)
H4_16 H 0.6854 0.3498 0.4303
H5_16 H 0.7341 0.3279 0.4045
H6_16 H 0.7195 0.3849 0.3967
N3_16 N 0.5343(5) 0.4374(6) 0.3969(5)
N4_12 N 0.5354(6) 0.4001(6) 0.4342(6)
C6_16 C 0.5740(6) 0.4538(6) 0.3133(6)
H7_16 H 0.5758 0.4888 0.3228
H8_16 H 0.6057 0.4436 0.2986
H9_16 H 0.5473 0.4491 0.2891
C7_16 C 0.5637(6) 0.4223(6) 0.3592(6)
C8_16 C 0.5878(6) 0.3757(7) 0.3734(7)
C9_16 C 0.5681(6) 0.3634(8) 0.4211(7)
C10_16 C 0.5776(7) 0.3213(6) 0.4545(6)
H10_16 H 0.5673 0.3301 0.4882
H11_16 H 0.5587 0.2924 0.4432
H12_16 H 0.6131 0.3135 0.4543
Cu3_12 Cu 0.75135(7) 0.26566(7) 0.32663(7)
Cu4_13 Cu 0.48430(7) 0.39869(7) 0.48233(7)
N1_17 N 0.3391(6) 0.8017(5) 0.2180(5)
N2_13 N 0.3029(5) 0.8097(5) 0.1809(6)
C1_17 C 0.4257(6) 0.8214(7) 0.2375(6)
H1_17 H 0.4321 0.7864 0.2450
H2_17 H 0.4543 0.8355 0.2200
H3_17 H 0.4203 0.8396 0.2685
C2_17 C 0.3798(7) 0.8255(6) 0.2051(7)
C3_17 C 0.3756(7) 0.8482(7) 0.1578(7)
C4_17 C 0.3234(9) 0.8375(7) 0.1439(6)
C5_17 C 0.2935(6) 0.8512(6) 0.0992(6)
H4_17 H 0.3146 0.8498 0.0697
H5_17 H 0.2659 0.8279 0.0955
H6_17 H 0.2805 0.8849 0.1033
N3_17 N 0.4657(5) 0.9374(6) 0.1031(5)
N4_13 N 0.4646(6) 0.9001(6) 0.0658(6)
C6_17 C 0.4260(6) 0.9538(6) 0.1867(6)
H7_17 H 0.4242 0.9888 0.1772
H8_17 H 0.3943 0.9436 0.2014
H9_17 H 0.4527 0.9491 0.2109
C7_17 C 0.4363(6) 0.9223(6) 0.1408(6)
C8_17 C 0.4122(6) 0.8757(7) 0.1266(7)
C9_17 C 0.4319(6) 0.8634(8) 0.0789(7)
C10_17 C 0.4224(7) 0.8213(6) 0.0455(6)
H10_17 H 0.4327 0.8301 0.0118
H11_17 H 0.4413 0.7924 0.0568
H12_17 H 0.3869 0.8135 0.0457
Cu3_13 Cu 0.24865(7) 0.76566(7) 0.17337(7)
Cu4_14 Cu 0.51570(7) 0.89869(7) 0.01767(7)
Cu4_15 Cu 0.01570(7) 0.60131(7) 0.98233(7)
N1_18 N 0.1609(6) 0.1983(5) 0.7180(5)
N2_14 N 0.1971(5) 0.1903(5) 0.6809(6)
C1_18 C 0.0743(6) 0.1786(7) 0.7375(6)
H1_18 H 0.0679 0.2136 0.7450
H2_18 H 0.0457 0.1645 0.7200
H3_18 H 0.0797 0.1604 0.7685
C2_18 C 0.1202(7) 0.1745(6) 0.7051(7)
C3_18 C 0.1244(7) 0.1518(7) 0.6578(7)
C4_18 C 0.1766(9) 0.1625(7) 0.6439(6)
C5_18 C 0.2065(6) 0.1488(6) 0.5992(6)
H4_18 H 0.1854 0.1502 0.5697
H5_18 H 0.2341 0.1721 0.5955
H6_18 H 0.2195 0.1151 0.6033
N3_18 N 0.0343(5) 0.0626(6) 0.6031(5)
N4_14 N 0.0354(6) 0.0999(6) 0.5658(6)
C6_18 C 0.0740(6) 0.0462(6) 0.6867(6)
H7_18 H 0.0758 0.0112 0.6772
H8_18 H 0.1057 0.0564 0.7014
H9_18 H 0.0473 0.0509 0.7109
C7_18 C 0.0637(6) 0.0777(6) 0.6408(6)
C8_18 C 0.0878(6) 0.1243(7) 0.6266(7)
C9_18 C 0.0681(6) 0.1366(8) 0.5789(7)
C10_18 C 0.0776(7) 0.1787(6) 0.5455(6)
H10_18 H 0.0673 0.1699 0.5118
H11_18 H 0.0587 0.2076 0.5568
H12_18 H 0.1131 0.1865 0.5457
Cu3_14 Cu 0.25135(7) 0.23434(7) 0.67337(7)
Cu4_16 Cu 0.98430(7) 0.10131(7) 0.51767(7)
N1_19 N 0.3017(5) 0.2820(5) 0.6609(6)
C1_19 C 0.3214(7) 0.2625(6) 0.5743(6)
H1_19 H 0.2864 0.2550 0.5679
H2_19 H 0.3355 0.2800 0.5457
H3_19 H 0.3396 0.2315 0.5797
C2_19 C 0.3255(6) 0.2949(7) 0.6202(7)
C3_19 C 0.3482(7) 0.3422(7) 0.6244(7)
C4_19 C 0.3375(7) 0.3561(6) 0.6766(9)
C5_19 C 0.3512(6) 0.4008(6) 0.7065(6)
H4_19 H 0.3498 0.4303 0.6854
H5_19 H 0.3279 0.4045 0.7341
H6_19 H 0.3849 0.3967 0.7195
N3_19 N 0.4374(6) 0.3969(5) 0.5343(5)
C6_19 C 0.4538(6) 0.3133(6) 0.5740(6)
H7_19 H 0.4888 0.3228 0.5758
H8_19 H 0.4436 0.2986 0.6057
H9_19 H 0.4491 0.2891 0.5473
C7_19 C 0.4223(6) 0.3592(6) 0.5637(6)
C8_19 C 0.3757(7) 0.3734(7) 0.5878(6)
C9_19 C 0.3634(8) 0.4211(7) 0.5681(6)
C10_19 C 0.3213(6) 0.4545(6) 0.5776(7)
H10_19 H 0.3301 0.4882 0.5673
H11_19 H 0.2924 0.4432 0.5587
H12_19 H 0.3135 0.4543 0.6131
N1_20 N 0.8017(5) 0.2180(5) 0.3391(6)
C1_20 C 0.8214(7) 0.2375(6) 0.4257(6)
H1_20 H 0.7864 0.2450 0.4321
H2_20 H 0.8355 0.2200 0.4543
H3_20 H 0.8396 0.2685 0.4203
C2_20 C 0.8255(6) 0.2051(7) 0.3798(7)
C3_20 C 0.8482(7) 0.1578(7) 0.3756(7)
C4_20 C 0.8375(7) 0.1439(6) 0.3234(9)
C5_20 C 0.8512(6) 0.0992(6) 0.2935(6)
H4_20 H 0.8498 0.0697 0.3146
H5_20 H 0.8279 0.0955 0.2659
H6_20 H 0.8849 0.1033 0.2805
N3_20 N 0.9374(6) 0.1031(5) 0.4657(5)
C6_20 C 0.9538(6) 0.1867(6) 0.4260(6)
H7_20 H 0.9888 0.1772 0.4242
H8_20 H 0.9436 0.2014 0.3943
H9_20 H 0.9491 0.2109 0.4527
C7_20 C 0.9223(6) 0.1408(6) 0.4363(6)
C8_20 C 0.8757(7) 0.1266(7) 0.4122(6)
C9_20 C 0.8634(8) 0.0789(7) 0.4319(6)
C10_20 C 0.8213(6) 0.0455(6) 0.4224(7)
H10_20 H 0.8301 0.0118 0.4327
H11_20 H 0.7924 0.0568 0.4413
H12_20 H 0.8135 0.0457 0.3869
N1_21 N 0.1983(5) 0.7180(5) 0.1609(6)
C1_21 C 0.1786(7) 0.7375(6) 0.0743(6)
H1_21 H 0.2136 0.7450 0.0679
H2_21 H 0.1645 0.7200 0.0457
H3_21 H 0.1604 0.7685 0.0797
C2_21 C 0.1745(6) 0.7051(7) 0.1202(7)
C3_21 C 0.1518(7) 0.6578(7) 0.1244(7)
C4_21 C 0.1625(7) 0.6439(6) 0.1766(9)
C5_21 C 0.1488(6) 0.5992(6) 0.2065(6)
H4_21 H 0.1502 0.5697 0.1854
H5_21 H 0.1721 0.5955 0.2341
H6_21 H 0.1151 0.6033 0.2195
N3_21 N 0.0626(6) 0.6031(5) 0.0343(5)
C6_21 C 0.0462(6) 0.6867(6) 0.0740(6)
H7_21 H 0.0112 0.6772 0.0758
H8_21 H 0.0564 0.7014 0.1057
H9_21 H 0.0509 0.7109 0.0473
C7_21 C 0.0777(6) 0.6408(6) 0.0637(6)
C8_21 C 0.1243(7) 0.6266(7) 0.0878(6)
C9_21 C 0.1366(8) 0.5789(7) 0.0681(6)
C10_21 C 0.1787(6) 0.5455(6) 0.0776(7)
H10_21 H 0.1699 0.5118 0.0673
H11_21 H 0.2076 0.5568 0.0587
H12_21 H 0.1865 0.5457 0.1131
Cu1_8 Cu 0.73434(7) 0.82663(7) 0.74865(7)
N1_22 N 0.7820(5) 0.8391(6) 0.6983(5)
N2_15 N 0.8191(6) 0.8029(5) 0.6903(5)
C1_22 C 0.7625(6) 0.9257(6) 0.6786(7)
H1_22 H 0.7550 0.9321 0.7136
H2_22 H 0.7800 0.9543 0.6645
H3_22 H 0.7315 0.9203 0.6604
C2_22 C 0.7949(7) 0.8798(7) 0.6745(6)
C3_22 C 0.8422(7) 0.8756(7) 0.6518(7)
C4_22 C 0.8561(6) 0.8234(9) 0.6625(7)
C5_22 C 0.9008(6) 0.7935(6) 0.6488(6)
H4_22 H 0.9303 0.8146 0.6502
H5_22 H 0.9045 0.7659 0.6721
H6_22 H 0.8967 0.7805 0.6151
N3_22 N 0.8969(5) 0.9657(5) 0.5626(6)
N4_15 N 0.9342(6) 0.9646(6) 0.5999(6)
C6_22 C 0.8133(6) 0.9260(6) 0.5462(6)
H7_22 H 0.8228 0.9242 0.5112
H8_22 H 0.7986 0.8943 0.5564
H9_22 H 0.7891 0.9527 0.5509
C7_22 C 0.8592(6) 0.9363(6) 0.5777(6)
C8_22 C 0.8734(7) 0.9122(6) 0.6243(7)
C9_22 C 0.9211(7) 0.9319(6) 0.6366(8)
C10_22 C 0.9545(6) 0.9224(7) 0.6787(6)
H10_22 H 0.9882 0.9327 0.6699
H11_22 H 0.9432 0.9413 0.7076
H12_22 H 0.9543 0.8869 0.6865
Cu3_15 Cu 0.82663(7) 0.74865(7) 0.73434(7)
N5_8 N 0.6903(5) 0.8191(6) 0.8029(5)
N6_8 N 0.5999(6) 0.9342(6) 0.9646(6)
N1_23 N 0.8391(6) 0.6983(5) 0.7820(5)
N2_16 N 0.8029(5) 0.6903(5) 0.8191(6)
C1_23 C 0.9257(6) 0.6786(7) 0.7625(6)
H1_23 H 0.9321 0.7136 0.7550
H2_23 H 0.9543 0.6645 0.7800
H3_23 H 0.9203 0.6604 0.7315
C2_23 C 0.8798(7) 0.6745(6) 0.7949(7)
C3_23 C 0.8756(7) 0.6518(7) 0.8422(7)
C4_23 C 0.8234(9) 0.6625(7) 0.8561(6)
C5_23 C 0.7935(6) 0.6488(6) 0.9008(6)
H4_23 H 0.8146 0.6502 0.9303
H5_23 H 0.7659 0.6721 0.9045
H6_23 H 0.7805 0.6151 0.8967
N3_23 N 0.9657(5) 0.5626(6) 0.8969(5)
N4_16 N 0.9646(6) 0.5999(6) 0.9342(6)
C6_23 C 0.9260(6) 0.5462(6) 0.8133(6)
H7_23 H 0.9242 0.5112 0.8228
H8_23 H 0.8943 0.5564 0.7986
H9_23 H 0.9527 0.5509 0.7891
C7_23 C 0.9363(6) 0.5777(6) 0.8592(6)
C8_23 C 0.9122(6) 0.6243(7) 0.8734(7)
C9_23 C 0.9319(6) 0.6366(8) 0.9211(7)
C10_23 C 0.9224(7) 0.6787(6) 0.9545(6)
H10_23 H 0.9327 0.6699 0.9882
H11_23 H 0.9413 0.7076 0.9432
H12_23 H 0.8869 0.6865 0.9543
Cu3_16 Cu 0.74865(7) 0.73434(7) 0.82663(7)
N1_24 N 0.6983(5) 0.7820(5) 0.8391(6)
C1_24 C 0.6786(7) 0.7625(6) 0.9257(6)
H1_24 H 0.7136 0.7550 0.9321
H2_24 H 0.6645 0.7800 0.9543
H3_24 H 0.6604 0.7315 0.9203
C2_24 C 0.6745(6) 0.7949(7) 0.8798(7)
C3_24 C 0.6518(7) 0.8422(7) 0.8756(7)
C4_24 C 0.6625(7) 0.8561(6) 0.8234(9)
C5_24 C 0.6488(6) 0.9008(6) 0.7935(6)
H4_24 H 0.6502 0.9303 0.8146
H5_24 H 0.6721 0.9045 0.7659
H6_24 H 0.6151 0.8967 0.7805
N3_24 N 0.5626(6) 0.8969(5) 0.9657(5)
C6_24 C 0.5462(6) 0.8133(6) 0.9260(6)
H7_24 H 0.5112 0.8228 0.9242
H8_24 H 0.5564 0.7986 0.8943
H9_24 H 0.5509 0.7891 0.9527
C7_24 C 0.5777(6) 0.8592(6) 0.9363(6)
C8_24 C 0.6243(7) 0.8734(7) 0.9122(6)
C9_24 C 0.6366(8) 0.9211(7) 0.9319(6)
C10_24 C 0.6787(6) 0.9545(6) 0.9224(7)
H10_24 H 0.6699 0.9882 0.9327
H11_24 H 0.7076 0.9432 0.9413
H12_24 H 0.6865 0.9543 0.8869
Cu3_17 Cu 0.00135(7) 0.57663(7) 0.51566(7)
Cu1_9 Cu 0.92337(7) 0.48434(7) 0.50135(7)
Cu2_9 Cu 0.73233(7) 0.64869(7) 0.73430(7)
N1_25 N 0.9109(6) 0.5320(5) 0.5517(5)
N2_17 N 0.9471(5) 0.5691(6) 0.5597(5)
C1_25 C 0.8243(6) 0.5125(6) 0.5714(7)
H1_25 H 0.8179 0.5050 0.5364
H2_25 H 0.7957 0.5300 0.5855
H3_25 H 0.8297 0.4815 0.5896
C2_25 C 0.8702(7) 0.5449(7) 0.5755(6)
C3_25 C 0.8744(7) 0.5922(7) 0.5982(7)
C4_25 C 0.9266(9) 0.6061(6) 0.5875(7)
C5_25 C 0.9565(6) 0.6508(6) 0.6012(6)
H4_25 H 0.9354 0.6803 0.5998
H5_25 H 0.9841 0.6545 0.5779
H6_25 H 0.9695 0.6467 0.6349
N3_25 N 0.7843(5) 0.6469(5) 0.6874(6)
N4_17 N 0.7854(6) 0.6842(6) 0.6501(6)
C6_25 C 0.8240(6) 0.5633(6) 0.7038(6)
H7_25 H 0.8258 0.5728 0.7388
H8_25 H 0.8557 0.5486 0.6936
H9_25 H 0.7973 0.5391 0.6991
C7_25 C 0.8137(6) 0.6092(6) 0.6723(6)
C8_25 C 0.8378(6) 0.6234(7) 0.6257(7)
C9_25 C 0.8181(6) 0.6711(7) 0.6134(8)
C10_25 C 0.8276(7) 0.7045(6) 0.5713(6)
H10_25 H 0.8173 0.7382 0.5801
H11_25 H 0.8087 0.6932 0.5424
H12_25 H 0.8631 0.7043 0.5635
Cu4_17 Cu 0.73430(7) 0.73233(7) 0.64869(7)
N5_9 N 0.9309(6) 0.4403(5) 0.4471(5)
N6_9 N 0.6842(6) 0.6501(6) 0.7854(6)
Cu1_10 Cu 0.57663(7) 0.51566(7) 0.00135(7)
Cu2_10 Cu 0.76767(7) 0.35131(7) 0.23430(7)
N1_26 N 0.5891(6) 0.4680(5) 0.0517(5)
N2_18 N 0.5529(5) 0.4309(6) 0.0597(5)
C1_26 C 0.6757(6) 0.4875(6) 0.0714(7)
H1_26 H 0.6821 0.4950 0.0364
H2_26 H 0.7043 0.4700 0.0855
H3_26 H 0.6703 0.5185 0.0896
C2_26 C 0.6298(7) 0.4551(7) 0.0755(6)
C3_26 C 0.6256(7) 0.4078(7) 0.0982(7)
C4_26 C 0.5734(9) 0.3939(6) 0.0875(7)
C5_26 C 0.5435(6) 0.3492(6) 0.1012(6)
H4_26 H 0.5646 0.3197 0.0998
H5_26 H 0.5159 0.3455 0.0779
H6_26 H 0.5305 0.3533 0.1349
N3_26 N 0.7157(5) 0.3531(5) 0.1874(6)
N4_18 N 0.7146(6) 0.3158(6) 0.1501(6)
C6_26 C 0.6760(6) 0.4367(6) 0.2038(6)
H7_26 H 0.6742 0.4272 0.2388
H8_26 H 0.6443 0.4514 0.1936
H9_26 H 0.7027 0.4609 0.1991
C7_26 C 0.6863(6) 0.3908(6) 0.1723(6)
C8_26 C 0.6622(6) 0.3766(7) 0.1257(7)
C9_26 C 0.6819(6) 0.3289(7) 0.1134(8)
C10_26 C 0.6724(7) 0.2955(6) 0.0713(6)
H10_26 H 0.6827 0.2618 0.0801
H11_26 H 0.6913 0.3068 0.0424
H12_26 H 0.6369 0.2957 0.0635
Cu3_18 Cu 0.49865(7) 0.42337(7) 0.01566(7)
Cu4_18 Cu 0.76570(7) 0.26767(7) 0.14869(7)
N6_10 N 0.8158(6) 0.3499(6) 0.2854(6)
N5_10 N 0.5691(6) 0.5597(5) 0.9471(5)
Cu2_11 Cu 0.26767(7) 0.14869(7) 0.76570(7)
N1_27 N 0.0891(6) 0.0320(5) 0.9483(5)
N2_19 N 0.0529(5) 0.0691(6) 0.9403(5)
C1_27 C 0.1757(6) 0.0125(6) 0.9286(7)
H1_27 H 0.1821 0.0050 0.9636
H2_27 H 0.2043 0.0300 0.9145
C2_27 C 0.1298(7) 0.0449(7) 0.9245(6)
C3_27 C 0.1256(7) 0.0922(7) 0.9018(7)
C4_27 C 0.0734(9) 0.1061(6) 0.9125(7)
C5_27 C 0.0435(6) 0.1508(6) 0.8988(6)
H4_27 H 0.0646 0.1803 0.9002
H5_27 H 0.0159 0.1545 0.9221
H6_27 H 0.0305 0.1467 0.8651
N3_27 N 0.2157(5) 0.1469(5) 0.8126(6)
N4_19 N 0.2146(6) 0.1842(6) 0.8499(6)
C6_27 C 0.1760(6) 0.0633(6) 0.7962(6)
H7_27 H 0.1742 0.0728 0.7612
H8_27 H 0.1443 0.0486 0.8064
H9_27 H 0.2027 0.0391 0.8009
C7_27 C 0.1863(6) 0.1092(6) 0.8277(6)
C8_27 C 0.1622(6) 0.1234(7) 0.8743(7)
C9_27 C 0.1819(6) 0.1711(7) 0.8866(8)
C10_27 C 0.1724(7) 0.2045(6) 0.9287(6)
H10_27 H 0.1827 0.2382 0.9199
H11_27 H 0.1913 0.1932 0.9576
H12_27 H 0.1369 0.2043 0.9365
Cu4_19 Cu 0.26570(7) 0.23233(7) 0.85131(7)
N6_11 N 0.3158(6) 0.1501(6) 0.7146(6)
N5_11 N 0.0691(6) 0.9403(5) 0.0529(5)
Cu1_11 Cu 0.42337(7) 0.01566(7) 0.49865(7)
H3_27 H 0.3297 0.0185 0.4104
N5_12 N 0.4309(6) 0.0597(5) 0.5529(5)
Cu2_12 Cu 0.23233(7) 0.85131(7) 0.26570(7)
N1_28 N 0.4109(6) 0.9680(5) 0.4483(5)
N2_20 N 0.4471(5) 0.9309(6) 0.4403(5)
C1_28 C 0.3243(6) 0.9875(6) 0.4286(7)
H1_28 H 0.3179 0.9950 0.4636
H2_28 H 0.2957 0.9700 0.4145
C2_28 C 0.3702(7) 0.9551(7) 0.4245(6)
C3_28 C 0.3744(7) 0.9078(7) 0.4018(7)
C4_28 C 0.4266(9) 0.8939(6) 0.4125(7)
C5_28 C 0.4565(6) 0.8492(6) 0.3988(6)
H4_28 H 0.4354 0.8197 0.4002
H5_28 H 0.4841 0.8455 0.4221
H6_28 H 0.4695 0.8533 0.3651
N3_28 N 0.2843(5) 0.8531(5) 0.3126(6)
N4_20 N 0.2854(6) 0.8158(6) 0.3499(6)
C6_28 C 0.3240(6) 0.9367(6) 0.2962(6)
H7_28 H 0.3258 0.9272 0.2612
H8_28 H 0.3557 0.9514 0.3064
H9_28 H 0.2973 0.9609 0.3009
C7_28 C 0.3137(6) 0.8908(6) 0.3277(6)
C8_28 C 0.3378(6) 0.8766(7) 0.3743(7)
C9_28 C 0.3181(6) 0.8289(7) 0.3866(8)
C10_28 C 0.3276(7) 0.7955(6) 0.4287(6)
H10_28 H 0.3173 0.7618 0.4199
H11_28 H 0.3087 0.8068 0.4576
H12_28 H 0.3631 0.7957 0.4365
Cu3_19 Cu 0.50135(7) 0.92337(7) 0.48434(7)
Cu4_20 Cu 0.23430(7) 0.76767(7) 0.35131(7)
N6_12 N 0.1842(6) 0.8499(6) 0.2146(6)
Cu3_20 Cu 0.51566(7) 0.00135(7) 0.57663(7)
N1_29 N 0.5517(5) 0.9109(6) 0.5320(5)
N2_21 N 0.5597(5) 0.9471(5) 0.5691(6)
C1_29 C 0.5714(7) 0.8243(6) 0.5125(6)
H1_29 H 0.5364 0.8179 0.5050
H2_29 H 0.5855 0.7957 0.5300
H3_28 H 0.5896 0.8297 0.4815
C2_29 C 0.5755(6) 0.8702(7) 0.5449(7)
C3_29 C 0.5982(7) 0.8744(7) 0.5922(7)
C4_29 C 0.5875(7) 0.9266(9) 0.6061(6)
C5_29 C 0.6012(6) 0.9565(6) 0.6508(6)
H4_29 H 0.5998 0.9354 0.6803
H5_29 H 0.5779 0.9841 0.6545
H6_29 H 0.6349 0.9695 0.6467
N3_29 N 0.6874(6) 0.7843(5) 0.6469(5)
N4_21 N 0.6501(6) 0.7854(6) 0.6842(6)
C6_29 C 0.7038(6) 0.8240(6) 0.5633(6)
H7_29 H 0.7388 0.8258 0.5728
H8_29 H 0.6936 0.8557 0.5486
H9_29 H 0.6991 0.7973 0.5391
C7_29 C 0.6723(6) 0.8137(6) 0.6092(6)
C8_29 C 0.6257(7) 0.8378(6) 0.6234(7)
C9_29 C 0.6134(8) 0.8181(6) 0.6711(7)
C10_29 C 0.5713(6) 0.8276(7) 0.7045(6)
H10_29 H 0.5801 0.8173 0.7382
H11_29 H 0.5424 0.8087 0.6932
H12_29 H 0.5635 0.8631 0.7043
Cu4_21 Cu 0.64869(7) 0.73430(7) 0.73233(7)
N1_30 N 0.0517(5) 0.5891(6) 0.4680(5)
N2_22 N 0.0597(5) 0.5529(5) 0.4309(6)
C1_30 C 0.0714(7) 0.6757(6) 0.4875(6)
H1_30 H 0.0364 0.6821 0.4950
H2_30 H 0.0855 0.7043 0.4700
H3_29 H 0.0896 0.6703 0.5185
C2_30 C 0.0755(6) 0.6298(7) 0.4551(7)
C3_30 C 0.0982(7) 0.6256(7) 0.4078(7)
C4_30 C 0.0875(7) 0.5734(9) 0.3939(6)
C5_30 C 0.1012(6) 0.5435(6) 0.3492(6)
H4_30 H 0.0998 0.5646 0.3197
H5_30 H 0.0779 0.5159 0.3455
H6_30 H 0.1349 0.5305 0.3533
N3_30 N 0.1874(6) 0.7157(5) 0.3531(5)
N4_22 N 0.1501(6) 0.7146(6) 0.3158(6)
C6_30 C 0.2038(6) 0.6760(6) 0.4367(6)
H7_30 H 0.2388 0.6742 0.4272
H8_30 H 0.1936 0.6443 0.4514
H9_30 H 0.1991 0.7027 0.4609
C7_30 C 0.1723(6) 0.6863(6) 0.3908(6)
C8_30 C 0.1257(7) 0.6622(6) 0.3766(7)
C9_30 C 0.1134(8) 0.6819(6) 0.3289(7)
C10_30 C 0.0713(6) 0.6724(7) 0.2955(6)
H10_30 H 0.0801 0.6827 0.2618
H11_30 H 0.0424 0.6913 0.3068
H12_30 H 0.0635 0.6369 0.2957
Cu3_21 Cu 0.01566(7) 0.49865(7) 0.42337(7)
Cu4_22 Cu 0.14869(7) 0.76570(7) 0.26767(7)
N1_31 N 0.9483(5) 0.0891(6) 0.0320(5)
N2_23 N 0.9403(5) 0.0529(5) 0.0691(6)
C1_31 C 0.9286(7) 0.1757(6) 0.0125(6)
H1_31 H 0.9636 0.1821 0.0050
H2_31 H 0.9145 0.2043 0.0300
C2_31 C 0.9245(6) 0.1298(7) 0.0449(7)
C3_31 C 0.9018(7) 0.1256(7) 0.0922(7)
C4_31 C 0.9125(7) 0.0734(9) 0.1061(6)
C5_31 C 0.8988(6) 0.0435(6) 0.1508(6)
H4_31 H 0.9002 0.0646 0.1803
H5_31 H 0.9221 0.0159 0.1545
H6_31 H 0.8651 0.0305 0.1467
N3_31 N 0.8126(6) 0.2157(5) 0.1469(5)
N4_23 N 0.8499(6) 0.2146(6) 0.1842(6)
C6_31 C 0.7962(6) 0.1760(6) 0.0633(6)
H7_31 H 0.7612 0.1742 0.0728
H8_31 H 0.8064 0.1443 0.0486
H9_31 H 0.8009 0.2027 0.0391
C7_31 C 0.8277(6) 0.1863(6) 0.1092(6)
C8_31 C 0.8743(7) 0.1622(6) 0.1234(7)
C9_31 C 0.8866(8) 0.1819(6) 0.1711(7)
C10_31 C 0.9287(6) 0.1724(7) 0.2045(6)
H10_31 H 0.9199 0.1827 0.2382
H11_31 H 0.9576 0.1913 0.1932
H12_31 H 0.9365 0.1369 0.2043
Cu4_23 Cu 0.85131(7) 0.26570(7) 0.23233(7)
H3_30 H 0.4104 0.3297 0.0185
N1_32 N 0.4483(5) 0.4109(6) 0.9680(5)
N2_24 N 0.4403(5) 0.4471(5) 0.9309(6)
C1_32 C 0.4286(7) 0.3243(6) 0.9875(6)
H1_32 H 0.4636 0.3179 0.9950
H2_32 H 0.4145 0.2957 0.9700
C2_32 C 0.4245(6) 0.3702(7) 0.9551(7)
C3_32 C 0.4018(7) 0.3744(7) 0.9078(7)
C4_32 C 0.4125(7) 0.4266(9) 0.8939(6)
C5_32 C 0.3988(6) 0.4565(6) 0.8492(6)
H4_32 H 0.4002 0.4354 0.8197
H5_32 H 0.4221 0.4841 0.8455
H6_32 H 0.3651 0.4695 0.8533
N3_32 N 0.3126(6) 0.2843(5) 0.8531(5)
N4_24 N 0.3499(6) 0.2854(6) 0.8158(6)
C6_32 C 0.2962(6) 0.3240(6) 0.9367(6)
H7_32 H 0.2612 0.3258 0.9272
H8_32 H 0.3064 0.3557 0.9514
H9_32 H 0.3009 0.2973 0.9609
C7_32 C 0.3277(6) 0.3137(6) 0.8908(6)
C8_32 C 0.3743(7) 0.3378(6) 0.8766(7)
C9_32 C 0.3866(8) 0.3181(6) 0.8289(7)
C10_32 C 0.4287(6) 0.3276(7) 0.7955(6)
H10_32 H 0.4199 0.3173 0.7618
H11_32 H 0.4576 0.3087 0.8068
H12_32 H 0.4365 0.3631 0.7957
Cu3_22 Cu 0.48434(7) 0.50135(7) 0.92337(7)
Cu4_24 Cu 0.35131(7) 0.23430(7) 0.76767(7)
N1_33 N 0.5320(5) 0.5517(5) 0.9109(6)
C1_33 C 0.5125(6) 0.5714(7) 0.8243(6)
H1_33 H 0.5050 0.5364 0.8179
H2_33 H 0.5300 0.5855 0.7957
H3_31 H 0.4815 0.5896 0.8297
C2_33 C 0.5449(7) 0.5755(6) 0.8702(7)
C3_33 C 0.5922(7) 0.5982(7) 0.8744(7)
C4_33 C 0.6061(6) 0.5875(7) 0.9266(9)
C5_33 C 0.6508(6) 0.6012(6) 0.9565(6)
H4_33 H 0.6803 0.5998 0.9354
H5_33 H 0.6545 0.5779 0.9841
H6_33 H 0.6467 0.6349 0.9695
N3_33 N 0.6469(5) 0.6874(6) 0.7843(5)
C6_33 C 0.5633(6) 0.7038(6) 0.8240(6)
H7_33 H 0.5728 0.7388 0.8258
H8_33 H 0.5486 0.6936 0.8557
H9_33 H 0.5391 0.6991 0.7973
C7_33 C 0.6092(6) 0.6723(6) 0.8137(6)
C8_33 C 0.6234(7) 0.6257(7) 0.8378(6)
C9_33 C 0.6711(7) 0.6134(8) 0.8181(6)
C10_33 C 0.7045(6) 0.5713(6) 0.8276(7)
H10_33 H 0.7382 0.5801 0.8173
H11_33 H 0.6932 0.5424 0.8087
H12_33 H 0.7043 0.5635 0.8631
N1_34 N 0.4680(5) 0.0517(5) 0.5891(6)
C1_34 C 0.4875(6) 0.0714(7) 0.6757(6)
H1_34 H 0.4950 0.0364 0.6821
H2_34 H 0.4700 0.0855 0.7043
H3_32 H 0.5185 0.0896 0.6703
C2_34 C 0.4551(7) 0.0755(6) 0.6298(7)
C3_34 C 0.4078(7) 0.0982(7) 0.6256(7)
C4_34 C 0.3939(6) 0.0875(7) 0.5734(9)
C5_34 C 0.3492(6) 0.1012(6) 0.5435(6)
H4_34 H 0.3197 0.0998 0.5646
H5_34 H 0.3455 0.0779 0.5159
H6_34 H 0.3533 0.1349 0.5305
N3_34 N 0.3531(5) 0.1874(6) 0.7157(5)
C6_34 C 0.4367(6) 0.2038(6) 0.6760(6)
H7_34 H 0.4272 0.2388 0.6742
H8_34 H 0.4514 0.1936 0.6443
H9_34 H 0.4609 0.1991 0.7027
C7_34 C 0.3908(6) 0.1723(6) 0.6863(6)
C8_34 C 0.3766(7) 0.1257(7) 0.6622(6)
C9_34 C 0.3289(7) 0.1134(8) 0.6819(6)
C10_34 C 0.2955(6) 0.0713(6) 0.6724(7)
H10_34 H 0.2618 0.0801 0.6827
H11_34 H 0.3068 0.0424 0.6913
H12_34 H 0.2957 0.0635 0.6369
N1_35 N 0.0320(5) 0.9483(5) 0.0891(6)
C1_35 C 0.0125(6) 0.9286(7) 0.1757(6)
H1_35 H 0.0050 0.9636 0.1821
H2_35 H 0.0300 0.9145 0.2043
C2_35 C 0.0449(7) 0.9245(6) 0.1298(7)
C3_35 C 0.0922(7) 0.9018(7) 0.1256(7)
C4_35 C 0.1061(6) 0.9125(7) 0.0734(9)
C5_35 C 0.1508(6) 0.8988(6) 0.0435(6)
H4_35 H 0.1803 0.9002 0.0646
H5_35 H 0.1545 0.9221 0.0159
H6_35 H 0.1467 0.8651 0.0305
N3_35 N 0.1469(5) 0.8126(6) 0.2157(5)
C6_35 C 0.0633(6) 0.7962(6) 0.1760(6)
H7_35 H 0.0728 0.7612 0.1742
H8_35 H 0.0486 0.8064 0.1443
H9_35 H 0.0391 0.8009 0.2027
C7_35 C 0.1092(6) 0.8277(6) 0.1863(6)
C8_35 C 0.1234(7) 0.8743(7) 0.1622(6)
C9_35 C 0.1711(7) 0.8866(8) 0.1819(6)
C10_35 C 0.2045(6) 0.9287(6) 0.1724(7)
H10_35 H 0.2382 0.9199 0.1827
H11_35 H 0.1932 0.9576 0.1913
H12_35 H 0.2043 0.9365 0.1369
H3_33 H 0.0185 0.4104 0.3297
N1_36 N 0.9680(5) 0.4483(5) 0.4109(6)
C1_36 C 0.9875(6) 0.4286(7) 0.3243(6)
H1_36 H 0.9950 0.4636 0.3179
H2_36 H 0.9700 0.4145 0.2957
C2_36 C 0.9551(7) 0.4245(6) 0.3702(7)
C3_36 C 0.9078(7) 0.4018(7) 0.3744(7)
C4_36 C 0.8939(6) 0.4125(7) 0.4266(9)
C5_36 C 0.8492(6) 0.3988(6) 0.4565(6)
H4_36 H 0.8197 0.4002 0.4354
H5_36 H 0.8455 0.4221 0.4841
H6_36 H 0.8533 0.3651 0.4695
N3_36 N 0.8531(5) 0.3126(6) 0.2843(5)
C6_36 C 0.9367(6) 0.2962(6) 0.3240(6)
H7_36 H 0.9272 0.2612 0.3258
H8_36 H 0.9514 0.3064 0.3557
H9_36 H 0.9609 0.3009 0.2973
C7_36 C 0.8908(6) 0.3277(6) 0.3137(6)
C8_36 C 0.8766(7) 0.3743(7) 0.3378(6)
C9_36 C 0.8289(7) 0.3866(8) 0.3181(6)
C10_36 C 0.7955(6) 0.4287(6) 0.3276(7)
H10_36 H 0.7618 0.4199 0.3173
H11_36 H 0.8068 0.4576 0.3087
H12_36 H 0.7957 0.4365 0.3631
Cu1_12 Cu 0.07663(7) 0.98434(7) 0.99865(7)
H3_34 H 0.1703 0.9815 0.9104
Cu3_23 Cu 0.99865(7) 0.07663(7) 0.98434(7)
H3_35 H 0.9104 0.1703 0.9815
Cu3_24 Cu 0.98434(7) 0.99865(7) 0.07663(7)
H3_36 H 0.9815 0.9104 0.1703
Cu1_13 Cu 0.73434(7) 0.17337(7) 0.75135(7)
N1_37 N 0.7820(5) 0.1609(6) 0.8017(5)
N2_25 N 0.8191(6) 0.1971(5) 0.8097(5)
C1_37 C 0.7625(6) 0.0743(6) 0.8214(7)
H1_37 H 0.7550 0.0679 0.7864
H2_37 H 0.7800 0.0457 0.8355
H3_37 H 0.7315 0.0797 0.8396
C2_37 C 0.7949(7) 0.1202(7) 0.8255(6)
C3_37 C 0.8422(7) 0.1244(7) 0.8482(7)
C4_37 C 0.8561(6) 0.1766(9) 0.8375(7)
C5_37 C 0.9008(6) 0.2065(6) 0.8512(6)
H4_37 H 0.9303 0.1854 0.8498
H5_37 H 0.9045 0.2341 0.8279
H6_37 H 0.8967 0.2195 0.8849
N3_37 N 0.8969(5) 0.0343(5) 0.9374(6)
N4_25 N 0.9342(6) 0.0354(6) 0.9001(6)
C6_37 C 0.8133(6) 0.0740(6) 0.9538(6)
H7_37 H 0.8228 0.0758 0.9888
H8_37 H 0.7986 0.1057 0.9436
H9_37 H 0.7891 0.0473 0.9491
C7_37 C 0.8592(6) 0.0637(6) 0.9223(6)
C8_37 C 0.8734(7) 0.0878(6) 0.8757(7)
C9_37 C 0.9211(7) 0.0681(6) 0.8634(8)
C10_37 C 0.9545(6) 0.0776(7) 0.8213(6)
H10_37 H 0.9882 0.0673 0.8301
H11_37 H 0.9432 0.0587 0.7924
H12_37 H 0.9543 0.1131 0.8135
Cu3_25 Cu 0.82663(7) 0.25135(7) 0.76566(7)
N5_13 N 0.6903(5) 0.1809(6) 0.6971(5)
N6_13 N 0.9001(6) 0.9342(6) 0.0354(6)
Cu2_13 Cu 0.60131(7) 0.01767(7) 0.48430(7)
Cu4_25 Cu 0.51767(7) 0.01570(7) 0.39869(7)
N6_14 N 0.5999(6) 0.0658(6) 0.5354(6)
Cu1_14 Cu 0.76566(7) 0.82663(7) 0.25135(7)
N1_38 N 0.7180(5) 0.8391(6) 0.3017(5)
N2_26 N 0.6809(6) 0.8029(5) 0.3097(5)
C1_38 C 0.7375(6) 0.9257(6) 0.3214(7)
H1_38 H 0.7450 0.9321 0.2864
H2_38 H 0.7200 0.9543 0.3355
H3_38 H 0.7685 0.9203 0.3396
C2_38 C 0.7051(7) 0.8798(7) 0.3255(6)
C3_38 C 0.6578(7) 0.8756(7) 0.3482(7)
C4_38 C 0.6439(6) 0.8234(9) 0.3375(7)
C5_38 C 0.5992(6) 0.7935(6) 0.3512(6)
H4_38 H 0.5697 0.8146 0.3498
H5_38 H 0.5955 0.7659 0.3279
H6_38 H 0.6033 0.7805 0.3849
N3_38 N 0.6031(5) 0.9657(5) 0.4374(6)
N4_26 N 0.5658(6) 0.9646(6) 0.4001(6)
C6_38 C 0.6867(6) 0.9260(6) 0.4538(6)
H7_38 H 0.6772 0.9242 0.4888
H8_38 H 0.7014 0.8943 0.4436
H9_38 H 0.7109 0.9527 0.4491
C7_38 C 0.6408(6) 0.9363(6) 0.4223(6)
C8_38 C 0.6266(7) 0.9122(6) 0.3757(7)
C9_38 C 0.5789(7) 0.9319(6) 0.3634(8)
C10_38 C 0.5455(6) 0.9224(7) 0.3213(6)
H10_38 H 0.5118 0.9327 0.3301
H11_38 H 0.5568 0.9413 0.2924
H12_38 H 0.5457 0.8869 0.3135
Cu3_26 Cu 0.67337(7) 0.74865(7) 0.26566(7)
N5_14 N 0.8097(5) 0.8191(6) 0.1971(5)
Cu1_15 Cu 0.23434(7) 0.32663(7) 0.24865(7)
Cu2_14 Cu 0.39869(7) 0.51767(7) 0.01570(7)
N1_39 N 0.2820(5) 0.3391(6) 0.1983(5)
N2_27 N 0.3191(6) 0.3029(5) 0.1903(5)
C1_39 C 0.2625(6) 0.4257(6) 0.1786(7)
H1_39 H 0.2550 0.4321 0.2136
H2_39 H 0.2800 0.4543 0.1645
H3_39 H 0.2315 0.4203 0.1604
C2_39 C 0.2949(7) 0.3798(7) 0.1745(6)
C3_39 C 0.3422(7) 0.3756(7) 0.1518(7)
C4_39 C 0.3561(6) 0.3234(9) 0.1625(7)
C5_39 C 0.4008(6) 0.2935(6) 0.1488(6)
H4_39 H 0.4303 0.3146 0.1502
H5_39 H 0.4045 0.2659 0.1721
H6_39 H 0.3967 0.2805 0.1151
N3_39 N 0.3969(5) 0.4657(5) 0.0626(6)
N4_27 N 0.4342(6) 0.4646(6) 0.0999(6)
C6_39 C 0.3133(6) 0.4260(6) 0.0462(6)
H7_39 H 0.3228 0.4242 0.0112
H8_39 H 0.2986 0.3943 0.0564
H9_39 H 0.2891 0.4527 0.0509
C7_39 C 0.3592(6) 0.4363(6) 0.0777(6)
C8_39 C 0.3734(7) 0.4122(6) 0.1243(7)
C9_39 C 0.4211(7) 0.4319(6) 0.1366(8)
C10_39 C 0.4545(6) 0.4224(7) 0.1787(6)
H10_39 H 0.4882 0.4327 0.1699
H11_39 H 0.4432 0.4413 0.2076
H12_39 H 0.4543 0.3869 0.1865
Cu3_27 Cu 0.32663(7) 0.24865(7) 0.23434(7)
Cu4_26 Cu 0.48233(7) 0.51570(7) 0.10131(7)
N5_15 N 0.1903(5) 0.3191(6) 0.3029(5)
N6_15 N 0.4001(6) 0.5658(6) 0.9646(6)
Cu1_16 Cu 0.26566(7) 0.67337(7) 0.74865(7)
Cu2_15 Cu 0.10131(7) 0.48233(7) 0.51570(7)
N1_40 N 0.2180(5) 0.6609(6) 0.6983(5)
N2_28 N 0.1809(6) 0.6971(5) 0.6903(5)
C1_40 C 0.2375(6) 0.5743(6) 0.6786(7)
H1_40 H 0.2450 0.5679 0.7136
H2_40 H 0.2200 0.5457 0.6645
H3_40 H 0.2685 0.5797 0.6604
C2_40 C 0.2051(7) 0.6202(7) 0.6745(6)
C3_40 C 0.1578(7) 0.6244(7) 0.6518(7)
C4_40 C 0.1439(6) 0.6766(9) 0.6625(7)
C5_40 C 0.0992(6) 0.7065(6) 0.6488(6)
H4_40 H 0.0697 0.6854 0.6502
H5_40 H 0.0955 0.7341 0.6721
H6_40 H 0.1033 0.7195 0.6151
N3_40 N 0.1031(5) 0.5343(5) 0.5626(6)
N4_28 N 0.0658(6) 0.5354(6) 0.5999(6)
C6_40 C 0.1867(6) 0.5740(6) 0.5462(6)
H7_40 H 0.1772 0.5758 0.5112
H8_40 H 0.2014 0.6057 0.5564
H9_40 H 0.2109 0.5473 0.5509
C7_40 C 0.1408(6) 0.5637(6) 0.5777(6)
C8_40 C 0.1266(7) 0.5878(6) 0.6243(7)
C9_40 C 0.0789(7) 0.5681(6) 0.6366(8)
C10_40 C 0.0455(6) 0.5776(7) 0.6787(6)
H10_40 H 0.0118 0.5673 0.6699
H11_40 H 0.0568 0.5587 0.7076
H12_40 H 0.0457 0.6131 0.6865
Cu3_28 Cu 0.17337(7) 0.75135(7) 0.73434(7)
Cu4_27 Cu 0.01767(7) 0.48430(7) 0.60131(7)
N5_16 N 0.3097(5) 0.6809(6) 0.8029(5)
N6_16 N 0.0999(6) 0.4342(6) 0.4646(6)
N1_41 N 0.1609(6) 0.8017(5) 0.7820(5)
N2_29 N 0.1971(5) 0.8097(5) 0.8191(6)
C1_41 C 0.0743(6) 0.8214(7) 0.7625(6)
H1_41 H 0.0679 0.7864 0.7550
H2_41 H 0.0457 0.8355 0.7800
H3_41 H 0.0797 0.8396 0.7315
C2_41 C 0.1202(7) 0.8255(6) 0.7949(7)
C3_41 C 0.1244(7) 0.8482(7) 0.8422(7)
C4_41 C 0.1766(9) 0.8375(7) 0.8561(6)
C5_41 C 0.2065(6) 0.8512(6) 0.9008(6)
H4_41 H 0.1854 0.8498 0.9303
H5_41 H 0.2341 0.8279 0.9045
H6_41 H 0.2195 0.8849 0.8967
N3_41 N 0.0343(5) 0.9374(6) 0.8969(5)
N4_29 N 0.0354(6) 0.9001(6) 0.9342(6)
C6_41 C 0.0740(6) 0.9538(6) 0.8133(6)
H7_41 H 0.0758 0.9888 0.8228
H8_41 H 0.1057 0.9436 0.7986
H9_41 H 0.0473 0.9491 0.7891
C7_41 C 0.0637(6) 0.9223(6) 0.8592(6)
C8_41 C 0.0878(6) 0.8757(7) 0.8734(7)
C9_41 C 0.0681(6) 0.8634(8) 0.9211(7)
C10_41 C 0.0776(7) 0.8213(6) 0.9545(6)
H10_41 H 0.0673 0.8301 0.9882
H11_41 H 0.0587 0.7924 0.9432
H12_41 H 0.1131 0.8135 0.9543
Cu3_29 Cu 0.25135(7) 0.76566(7) 0.82663(7)
Cu4_28 Cu 0.01570(7) 0.39869(7) 0.51767(7)
N1_42 N 0.8391(6) 0.3017(5) 0.7180(5)
N2_30 N 0.8029(5) 0.3097(5) 0.6809(6)
C1_42 C 0.9257(6) 0.3214(7) 0.7375(6)
H1_42 H 0.9321 0.2864 0.7450
H2_42 H 0.9543 0.3355 0.7200
H3_42 H 0.9203 0.3396 0.7685
C2_42 C 0.8798(7) 0.3255(6) 0.7051(7)
C3_42 C 0.8756(7) 0.3482(7) 0.6578(7)
C4_42 C 0.8234(9) 0.3375(7) 0.6439(6)
C5_42 C 0.7935(6) 0.3512(6) 0.5992(6)
H4_42 H 0.8146 0.3498 0.5697
H5_42 H 0.7659 0.3279 0.5955
H6_42 H 0.7805 0.3849 0.6033
N3_42 N 0.9657(5) 0.4374(6) 0.6031(5)
N4_30 N 0.9646(6) 0.4001(6) 0.5658(6)
C6_42 C 0.9260(6) 0.4538(6) 0.6867(6)
H7_42 H 0.9242 0.4888 0.6772
H8_42 H 0.8943 0.4436 0.7014
H9_42 H 0.9527 0.4491 0.7109
C7_42 C 0.9363(6) 0.4223(6) 0.6408(6)
C8_42 C 0.9122(6) 0.3757(7) 0.6266(7)
C9_42 C 0.9319(6) 0.3634(8) 0.5789(7)
C10_42 C 0.9224(7) 0.3213(6) 0.5455(6)
H10_42 H 0.9327 0.3301 0.5118
H11_42 H 0.9413 0.2924 0.5568
H12_42 H 0.8869 0.3135 0.5457
Cu3_30 Cu 0.74865(7) 0.26566(7) 0.67337(7)
N1_43 N 0.3391(6) 0.1983(5) 0.2820(5)
N2_31 N 0.3029(5) 0.1903(5) 0.3191(6)
C1_43 C 0.4257(6) 0.1786(7) 0.2625(6)
H1_43 H 0.4321 0.2136 0.2550
H2_43 H 0.4543 0.1645 0.2800
H3_43 H 0.4203 0.1604 0.2315
C2_43 C 0.3798(7) 0.1745(6) 0.2949(7)
C3_43 C 0.3756(7) 0.1518(7) 0.3422(7)
C4_43 C 0.3234(9) 0.1625(7) 0.3561(6)
C5_43 C 0.2935(6) 0.1488(6) 0.4008(6)
H4_43 H 0.3146 0.1502 0.4303
H5_43 H 0.2659 0.1721 0.4045
H6_43 H 0.2805 0.1151 0.3967
N3_43 N 0.4657(5) 0.0626(6) 0.3969(5)
N4_31 N 0.4646(6) 0.0999(6) 0.4342(6)
C6_43 C 0.4260(6) 0.0462(6) 0.3133(6)
H7_43 H 0.4242 0.0112 0.3228
H8_43 H 0.3943 0.0564 0.2986
H9_43 H 0.4527 0.0509 0.2891
C7_43 C 0.4363(6) 0.0777(6) 0.3592(6)
C8_43 C 0.4122(6) 0.1243(7) 0.3734(7)
C9_43 C 0.4319(6) 0.1366(8) 0.4211(7)
C10_43 C 0.4224(7) 0.1787(6) 0.4545(6)
H10_43 H 0.4327 0.1699 0.4882
H11_43 H 0.4413 0.2076 0.4432
H12_43 H 0.3869 0.1865 0.4543
Cu3_31 Cu 0.24865(7) 0.23434(7) 0.32663(7)
Cu4_29 Cu 0.51570(7) 0.10131(7) 0.48233(7)
N1_44 N 0.6609(6) 0.6983(5) 0.2180(5)
N2_32 N 0.6971(5) 0.6903(5) 0.1809(6)
C1_44 C 0.5743(6) 0.6786(7) 0.2375(6)
H1_44 H 0.5679 0.7136 0.2450
H2_44 H 0.5457 0.6645 0.2200
H3_44 H 0.5797 0.6604 0.2685
C2_44 C 0.6202(7) 0.6745(6) 0.2051(7)
C3_44 C 0.6244(7) 0.6518(7) 0.1578(7)
C4_44 C 0.6766(9) 0.6625(7) 0.1439(6)
C5_44 C 0.7065(6) 0.6488(6) 0.0992(6)
H4_44 H 0.6854 0.6502 0.0697
H5_44 H 0.7341 0.6721 0.0955
H6_44 H 0.7195 0.6151 0.1033
N3_44 N 0.5343(5) 0.5626(6) 0.1031(5)
N4_32 N 0.5354(6) 0.5999(6) 0.0658(6)
C6_44 C 0.5740(6) 0.5462(6) 0.1867(6)
H7_44 H 0.5758 0.5112 0.1772
H8_44 H 0.6057 0.5564 0.2014
H9_44 H 0.5473 0.5509 0.2109
C7_44 C 0.5637(6) 0.5777(6) 0.1408(6)
C8_44 C 0.5878(6) 0.6243(7) 0.1266(7)
C9_44 C 0.5681(6) 0.6366(8) 0.0789(7)
C10_44 C 0.5776(7) 0.6787(6) 0.0455(6)
H10_44 H 0.5673 0.6699 0.0118
H11_44 H 0.5587 0.7076 0.0568
H12_44 H 0.6131 0.6865 0.0457
Cu3_32 Cu 0.75135(7) 0.73434(7) 0.17337(7)
Cu4_30 Cu 0.48430(7) 0.60131(7) 0.01767(7)
N1_45 N 0.8017(5) 0.7820(5) 0.1609(6)
C1_45 C 0.8214(7) 0.7625(6) 0.0743(6)
H1_45 H 0.7864 0.7550 0.0679
H2_45 H 0.8355 0.7800 0.0457
H3_45 H 0.8396 0.7315 0.0797
C2_45 C 0.8255(6) 0.7949(7) 0.1202(7)
C3_45 C 0.8482(7) 0.8422(7) 0.1244(7)
C4_45 C 0.8375(7) 0.8561(6) 0.1766(9)
C5_45 C 0.8512(6) 0.9008(6) 0.2065(6)
H4_45 H 0.8498 0.9303 0.1854
H5_45 H 0.8279 0.9045 0.2341
H6_45 H 0.8849 0.8967 0.2195
N3_45 N 0.9374(6) 0.8969(5) 0.0343(5)
C6_45 C 0.9538(6) 0.8133(6) 0.0740(6)
H7_45 H 0.9888 0.8228 0.0758
H8_45 H 0.9436 0.7986 0.1057
H9_45 H 0.9491 0.7891 0.0473
C7_45 C 0.9223(6) 0.8592(6) 0.0637(6)
C8_45 C 0.8757(7) 0.8734(7) 0.0878(6)
C9_45 C 0.8634(8) 0.9211(7) 0.0681(6)
C10_45 C 0.8213(6) 0.9545(6) 0.0776(7)
H10_45 H 0.8301 0.9882 0.0673
H11_45 H 0.7924 0.9432 0.0587
H12_45 H 0.8135 0.9543 0.1131
N1_46 N 0.3017(5) 0.7180(5) 0.8391(6)
C1_46 C 0.3214(7) 0.7375(6) 0.9257(6)
H1_46 H 0.2864 0.7450 0.9321
H2_46 H 0.3355 0.7200 0.9543
H3_46 H 0.3396 0.7685 0.9203
C2_46 C 0.3255(6) 0.7051(7) 0.8798(7)
C3_46 C 0.3482(7) 0.6578(7) 0.8756(7)
C4_46 C 0.3375(7) 0.6439(6) 0.8234(9)
C5_46 C 0.3512(6) 0.5992(6) 0.7935(6)
H4_46 H 0.3498 0.5697 0.8146
H5_46 H 0.3279 0.5955 0.7659
H6_46 H 0.3849 0.6033 0.7805
N3_46 N 0.4374(6) 0.6031(5) 0.9657(5)
C6_46 C 0.4538(6) 0.6867(6) 0.9260(6)
H7_46 H 0.4888 0.6772 0.9242
H8_46 H 0.4436 0.7014 0.8943
H9_46 H 0.4491 0.7109 0.9527
C7_46 C 0.4223(6) 0.6408(6) 0.9363(6)
C8_46 C 0.3757(7) 0.6266(7) 0.9122(6)
C9_46 C 0.3634(8) 0.5789(7) 0.9319(6)
C10_46 C 0.3213(6) 0.5455(6) 0.9224(7)
H10_46 H 0.3301 0.5118 0.9327
H11_46 H 0.2924 0.5568 0.9413
H12_46 H 0.3135 0.5457 0.8869
N1_47 N 0.1983(5) 0.2820(5) 0.3391(6)
C1_47 C 0.1786(7) 0.2625(6) 0.4257(6)
H1_47 H 0.2136 0.2550 0.4321
H2_47 H 0.1645 0.2800 0.4543
H3_47 H 0.1604 0.2315 0.4203
C2_47 C 0.1745(6) 0.2949(7) 0.3798(7)
C3_47 C 0.1518(7) 0.3422(7) 0.3756(7)
C4_47 C 0.1625(7) 0.3561(6) 0.3234(9)
C5_47 C 0.1488(6) 0.4008(6) 0.2935(6)
H4_47 H 0.1502 0.4303 0.3146
H5_47 H 0.1721 0.4045 0.2659
H6_47 H 0.1151 0.3967 0.2805
N3_47 N 0.0626(6) 0.3969(5) 0.4657(5)
C6_47 C 0.0462(6) 0.3133(6) 0.4260(6)
H7_47 H 0.0112 0.3228 0.4242
H8_47 H 0.0564 0.2986 0.3943
H9_47 H 0.0509 0.2891 0.4527
C7_47 C 0.0777(6) 0.3592(6) 0.4363(6)
C8_47 C 0.1243(7) 0.3734(7) 0.4122(6)
C9_47 C 0.1366(8) 0.4211(7) 0.4319(6)
C10_47 C 0.1787(6) 0.4545(6) 0.4224(7)
H10_47 H 0.1699 0.4882 0.4327
H11_47 H 0.2076 0.4432 0.4413
H12_47 H 0.1865 0.4543 0.3869
N1_48 N 0.6983(5) 0.2180(5) 0.6609(6)
C1_48 C 0.6786(7) 0.2375(6) 0.5743(6)
H1_48 H 0.7136 0.2450 0.5679
H2_48 H 0.6645 0.2200 0.5457
H3_48 H 0.6604 0.2685 0.5797
C2_48 C 0.6745(6) 0.2051(7) 0.6202(7)
C3_48 C 0.6518(7) 0.1578(7) 0.6244(7)
C4_48 C 0.6625(7) 0.1439(6) 0.6766(9)
C5_48 C 0.6488(6) 0.0992(6) 0.7065(6)
H4_48 H 0.6502 0.0697 0.6854
H5_48 H 0.6721 0.0955 0.7341
H6_48 H 0.6151 0.1033 0.7195
N3_48 N 0.5626(6) 0.1031(5) 0.5343(5)
C6_48 C 0.5462(6) 0.1867(6) 0.5740(6)
H7_48 H 0.5112 0.1772 0.5758
H8_48 H 0.5564 0.2014 0.6057
H9_48 H 0.5509 0.2109 0.5473
C7_48 C 0.5777(6) 0.1408(6) 0.5637(6)
C8_48 C 0.6243(7) 0.1266(7) 0.5878(6)
C9_48 C 0.6366(8) 0.0789(7) 0.5681(6)
C10_48 C 0.6787(6) 0.0455(6) 0.5776(7)
H10_48 H 0.6699 0.0118 0.5673
H11_48 H 0.7076 0.0568 0.5587
H12_48 H 0.6865 0.0457 0.6131
Cu2_16 Cu 0.89869(7) 0.98233(7) 0.98430(7)
Cu4_31 Cu 0.98233(7) 0.98430(7) 0.89869(7)
Cu4_32 Cu 0.98430(7) 0.89869(7) 0.98233(7)
loop_
_geom_bond_atom_site_label_1
_geom_bond_atom_site_label_2
_geom_bond_site_symmetry_1
_geom_bond_site_symmetry_2
Cu2 N3 1_555 1_555
N1 N2 1_555 1_555
N2 C4 1_555 1_555
C1 H1 1_555 1_555
H2 C1 1_555 1_555
C2 N1 1_555 1_555
C3 C2 1_555 1_555
C4 C3 1_555 1_555
C5 C4 1_555 1_555
H4 C5 1_555 1_555
H5 C5 1_555 1_555
H6 C5 1_555 1_555
N3 N4 1_555 1_555
N4 C9 1_555 1_555
C6 H7 1_555 1_555
H8 C6 1_555 1_555
H9 C6 1_555 1_555
C7 N3 1_555 1_555
C8 C3 1_555 1_555
C9 C8 1_555 1_555
C10 C9 1_555 1_555
H10 C10 1_555 1_555
H11 C10 1_555 1_555
H12 C10 1_555 1_555
Cu3 N2 1_555 1_555
Cu4 N4 1_555 1_555
N6 Cu2 1_555 1_555
C1 C2 1_555 1_555
C6 C7 1_555 1_555
C7 C8 1_555 1_555
N5 Cu1 1_555 1_555
Cu4 N3_2 1_555 1_555
N1_2 N2_2 1_555 1_555
N2_2 C4_2 1_555 1_555
C1_2 H1_2 1_555 1_555
H2_2 C1_2 1_555 1_555
C2_2 N1_2 1_555 1_555
C3_2 C2_2 1_555 1_555
C4_2 C3_2 1_555 1_555
C5_2 C4_2 1_555 1_555
H4_2 C5_2 1_555 1_555
H5_2 C5_2 1_555 1_555
H6_2 C5_2 1_555 1_555
N3_2 N4_2 1_555 1_555
N4_2 C9_2 1_555 1_555
C6_2 H7_2 1_555 1_555
H8_2 C6_2 1_555 1_555
H9_2 C6_2 1_555 1_555
C7_2 N3_2 1_555 1_555
C8_2 C3_2 1_555 1_555
C9_2 C8_2 1_555 1_555
C10_2 C9_2 1_555 1_555
H10_2 C10_2 1_555 1_555
H11_2 C10_2 1_555 1_555
H12_2 C10_2 1_555 1_555
Cu3_2 N2_2 1_555 1_555
Cu4_2 N4_2 1_555 1_555
C1_2 C2_2 1_555 1_555
C6_2 C7_2 1_555 1_555
C7_2 C8_2 1_555 1_555
Cu4_2 N3_3 1_555 1_555
N1_3 N5 1_555 1_555
N5 C4_3 1_555 1_555
C1_3 H1_3 1_555 1_555
H2_3 C1_3 1_555 1_555
C2_3 N1_3 1_555 1_555
C3_3 C2_3 1_555 1_555
C4_3 C3_3 1_555 1_555
C5_3 C4_3 1_555 1_555
H4_3 C5_3 1_555 1_555
H5_3 C5_3 1_555 1_555
H6_3 C5_3 1_555 1_555
N3_3 N6 1_555 1_555
N6 C9_3 1_555 1_555
C6_3 H7_3 1_555 1_555
H8_3 C6_3 1_555 1_555
H9_3 C6_3 1_555 1_555
C7_3 N3_3 1_555 1_555
C8_3 C3_3 1_555 1_555
C9_3 C8_3 1_555 1_555
C10_3 C9_3 1_555 1_555
H10_3 C10_3 1_555 1_555
H11_3 C10_3 1_555 1_555
H12_3 C10_3 1_555 1_555
C1_3 C2_3 1_555 1_555
C6_3 C7_3 1_555 1_555
C7_3 C8_3 1_555 1_555
Cu2_2 N3_4 1_555 1_555
N1_4 N2_3 1_555 1_555
N2_3 C4_4 1_555 1_555
C1_4 H1_4 1_555 1_555
H2_4 C1_4 1_555 1_555
C2_4 N1_4 1_555 1_555
C3_4 C2_4 1_555 1_555
C4_4 C3_4 1_555 1_555
C5_4 C4_4 1_555 1_555
H4_4 C5_4 1_555 1_555
H5_4 C5_4 1_555 1_555
H6_4 C5_4 1_555 1_555
N3_4 N4_3 1_555 1_555
N4_3 C9_4 1_555 1_555
C6_4 H7_4 1_555 1_555
H8_4 C6_4 1_555 1_555
H9_4 C6_4 1_555 1_555
C7_4 N3_4 1_555 1_555
C8_4 C3_4 1_555 1_555
C9_4 C8_4 1_555 1_555
C10_4 C9_4 1_555 1_555
H10_4 C10_4 1_555 1_555
H11_4 C10_4 1_555 1_555
H12_4 C10_4 1_555 1_555
Cu4_3 N4_3 1_555 1_555
N6_2 Cu2_2 1_555 1_555
C1_4 C2_4 1_555 1_555
C6_4 C7_4 1_555 1_555
C7_4 C8_4 1_555 1_555
Cu1_3 N1_5 1_555 1_555
Cu2_3 N3_5 1_555 1_555
N1_5 N2_4 1_555 1_555
N2_4 C4_5 1_555 1_555
C1_5 H1_5 1_555 1_555
H2_5 C1_5 1_555 1_555
H3_5 C1_5 1_555 1_555
C2_5 N1_5 1_555 1_555
C3_5 C2_5 1_555 1_555
C4_5 C3_5 1_555 1_555
C5_5 C4_5 1_555 1_555
H4_5 C5_5 1_555 1_555
H5_5 C5_5 1_555 1_555
H6_5 C5_5 1_555 1_555
N3_5 N4_4 1_555 1_555
N4_4 C9_5 1_555 1_555
C6_5 H7_5 1_555 1_555
H8_5 C6_5 1_555 1_555
H9_5 C6_5 1_555 1_555
C7_5 N3_5 1_555 1_555
C8_5 C3_5 1_555 1_555
C9_5 C8_5 1_555 1_555
C10_5 C9_5 1_555 1_555
H10_5 C10_5 1_555 1_555
H11_5 C10_5 1_555 1_555
H12_5 C10_5 1_555 1_555
Cu3_4 N2_4 1_555 1_555
Cu4_4 N4_4 1_555 1_555
N5_3 Cu1_3 1_555 1_555
N6_3 Cu2_3 1_555 1_555
C1_5 C2_5 1_555 1_555
C6_5 C7_5 1_555 1_555
C7_5 C8_5 1_555 1_555
Cu1_4 N1_6 1_555 1_555
Cu2_4 N3_6 1_555 1_555
N1_6 N2_5 1_555 1_555
N2_5 C4_6 1_555 1_555
C1_6 H1_6 1_555 1_555
H2_6 C1_6 1_555 1_555
H3_6 C1_6 1_555 1_555
C2_6 N1_6 1_555 1_555
C3_6 C2_6 1_555 1_555
C4_6 C3_6 1_555 1_555
C5_6 C4_6 1_555 1_555
H4_6 C5_6 1_555 1_555
H5_6 C5_6 1_555 1_555
H6_6 C5_6 1_555 1_555
N3_6 N4_5 1_555 1_555
N4_5 C9_6 1_555 1_555
C6_6 H7_6 1_555 1_555
H8_6 C6_6 1_555 1_555
H9_6 C6_6 1_555 1_555
C7_6 N3_6 1_555 1_555
C8_6 C3_6 1_555 1_555
C9_6 C8_6 1_555 1_555
C10_6 C9_6 1_555 1_555
H10_6 C10_6 1_555 1_555
H11_6 C10_6 1_555 1_555
H12_6 C10_6 1_555 1_555
Cu4_5 N4_5 1_555 1_555
N6_4 Cu2_4 1_555 1_555
C1_6 C2_6 1_555 1_555
C6_6 C7_6 1_555 1_555
C7_6 C8_6 1_555 1_555
Cu4_5 N3_7 1_555 1_555
N1_7 N2_6 1_555 1_555
N2_6 C4_7 1_555 1_555
C1_7 H1_7 1_555 1_555
H2_7 C1_7 1_555 1_555
C2_7 N1_7 1_555 1_555
C3_7 C2_7 1_555 1_555
C4_7 C3_7 1_555 1_555
C5_7 C4_7 1_555 1_555
H4_7 C5_7 1_555 1_555
H5_7 C5_7 1_555 1_555
H6_7 C5_7 1_555 1_555
N3_7 N4_6 1_555 1_555
N4_6 C9_7 1_555 1_555
C6_7 H7_7 1_555 1_555
H8_7 C6_7 1_555 1_555
H9_7 C6_7 1_555 1_555
C7_7 N3_7 1_555 1_555
C8_7 C3_7 1_555 1_555
C9_7 C8_7 1_555 1_555
C10_7 C9_7 1_555 1_555
H10_7 C10_7 1_555 1_555
H11_7 C10_7 1_555 1_555
H12_7 C10_7 1_555 1_555
Cu4_6 N4_6 1_555 1_555
C1_7 C2_7 1_555 1_555
C6_7 C7_7 1_555 1_555
C7_7 C8_7 1_555 1_555
Cu3_4 N1_8 1_555 1_555
Cu4_3 N3_8 1_555 1_555
N1_8 N2_7 1_555 1_555
N2_7 C4_8 1_555 1_555
C1_8 H1_8 1_555 1_555
H2_8 C1_8 1_555 1_555
H3_7 C1_8 1_555 1_555
C2_8 N1_8 1_555 1_555
C3_8 C2_8 1_555 1_555
C4_8 C3_8 1_555 1_555
C5_8 C4_8 1_555 1_555
H4_8 C5_8 1_555 1_555
H5_8 C5_8 1_555 1_555
H6_8 C5_8 1_555 1_555
N3_8 N4_7 1_555 1_555
N4_7 C9_8 1_555 1_555
C6_8 H7_8 1_555 1_555
H8_8 C6_8 1_555 1_555
H9_8 C6_8 1_555 1_555
C7_8 N3_8 1_555 1_555
C8_8 C3_8 1_555 1_555
C9_8 C8_8 1_555 1_555
C10_8 C9_8 1_555 1_555
H10_8 C10_8 1_555 1_555
H11_8 C10_8 1_555 1_555
H12_8 C10_8 1_555 1_555
Cu3_6 N2_7 1_555 1_555
Cu4_7 N4_7 1_555 1_555
C1_8 C2_8 1_555 1_555
C6_8 C7_8 1_555 1_555
C7_8 C8_8 1_555 1_555
Cu3_3 N1_9 1_555 1_555
Cu4_4 N3_9 1_555 1_555
N1_9 N2_8 1_555 1_555
N2_8 C4_9 1_555 1_555
C1_9 H1_9 1_555 1_555
H2_9 C1_9 1_555 1_555
H3_8 C1_9 1_555 1_555
C2_9 N1_9 1_555 1_555
C3_9 C2_9 1_555 1_555
C4_9 C3_9 1_555 1_555
C5_9 C4_9 1_555 1_555
H4_9 C5_9 1_555 1_555
H5_9 C5_9 1_555 1_555
H6_9 C5_9 1_555 1_555
N3_9 N4_8 1_555 1_555
N4_8 C9_9 1_555 1_555
C6_9 H7_9 1_555 1_555
H8_9 C6_9 1_555 1_555
H9_9 C6_9 1_555 1_555
C7_9 N3_9 1_555 1_555
C8_9 C3_9 1_555 1_555
C9_9 C8_9 1_555 1_555
C10_9 C9_9 1_555 1_555
H10_9 C10_9 1_555 1_555
H11_9 C10_9 1_555 1_555
H12_9 C10_9 1_555 1_555
Cu4_8 N4_8 1_555 1_555
C1_9 C2_9 1_555 1_555
C6_9 C7_9 1_555 1_555
C7_9 C8_9 1_555 1_555
Cu4_8 N3_10 1_555 1_555
N1_10 N5_4 1_555 1_555
N5_4 C4_10 1_555 1_555
C1_10 H1_10 1_555 1_555
H2_10 C1_10 1_555 1_555
C2_10 N1_10 1_555 1_555
C3_10 C2_10 1_555 1_555
C4_10 C3_10 1_555 1_555
C5_10 C4_10 1_555 1_555
H4_10 C5_10 1_555 1_555
H5_10 C5_10 1_555 1_555
H6_10 C5_10 1_555 1_555
N3_10 N6_3 1_555 1_555
N6_3 C9_10 1_555 1_555
C6_10 H7_10 1_555 1_555
H8_10 C6_10 1_555 1_555
H9_10 C6_10 1_555 1_555
C7_10 N3_10 1_555 1_555
C8_10 C3_10 1_555 1_555
C9_10 C8_10 1_555 1_555
C10_10 C9_10 1_555 1_555
H10_10 C10_10 1_555 1_555
H11_10 C10_10 1_555 1_555
H12_10 C10_10 1_555 1_555
C1_10 C2_10 1_555 1_555
C6_10 C7_10 1_555 1_555
C7_10 C8_10 1_555 1_555
Cu3_6 N1_11 1_555 1_555
Cu4_6 N3_11 1_555 1_555
N1_11 N5_3 1_555 1_555
N5_3 C4_11 1_555 1_555
C1_11 H1_11 1_555 1_555
H2_11 C1_11 1_555 1_555
H3_9 C1_11 1_555 1_555
C2_11 N1_11 1_555 1_555
C3_11 C2_11 1_555 1_555
C4_11 C3_11 1_555 1_555
C5_11 C4_11 1_555 1_555
H4_11 C5_11 1_555 1_555
H5_11 C5_11 1_555 1_555
H6_11 C5_11 1_555 1_555
N3_11 N6_4 1_555 1_555
N6_4 C9_11 1_555 1_555
C6_11 H7_11 1_555 1_555
H8_11 C6_11 1_555 1_555
H9_11 C6_11 1_555 1_555
C7_11 N3_11 1_555 1_555
C8_11 C3_11 1_555 1_555
C9_11 C8_11 1_555 1_555
C10_11 C9_11 1_555 1_555
H10_11 C10_11 1_555 1_555
H11_11 C10_11 1_555 1_555
H12_11 C10_11 1_555 1_555
C1_11 C2_11 1_555 1_555
C6_11 C7_11 1_555 1_555
C7_11 C8_11 1_555 1_555
Cu3_5 N1_12 1_555 1_555
Cu4_7 N3_12 1_555 1_555
N1_12 N5_2 1_555 1_555
N5_2 C4_12 1_555 1_555
C1_12 H1_12 1_555 1_555
H2_12 C1_12 1_555 1_555
H3_10 C1_12 1_555 1_555
C2_12 N1_12 1_555 1_555
C3_12 C2_12 1_555 1_555
C4_12 C3_12 1_555 1_555
C5_12 C4_12 1_555 1_555
H4_12 C5_12 1_555 1_555
H5_12 C5_12 1_555 1_555
H6_12 C5_12 1_555 1_555
N3_12 N6_2 1_555 1_555
N6_2 C9_12 1_555 1_555
C6_12 H7_12 1_555 1_555
H8_12 C6_12 1_555 1_555
H9_12 C6_12 1_555 1_555
C7_12 N3_12 1_555 1_555
C8_12 C3_12 1_555 1_555
C9_12 C8_12 1_555 1_555
C10_12 C9_12 1_555 1_555
H10_12 C10_12 1_555 1_555
H11_12 C10_12 1_555 1_555
H12_12 C10_12 1_555 1_555
C1_12 C2_12 1_555 1_555
C6_12 C7_12 1_555 1_555
C7_12 C8_12 1_555 1_555
Cu1_5 N1_13 1_555 1_555
Cu2_5 N3_13 1_555 1_555
N1_13 N2_9 1_555 1_555
N2_9 C4_13 1_555 1_555
C1_13 H1_13 1_555 1_555
H2_13 C1_13 1_555 1_555
H3_13 C1_13 1_555 1_555
C2_13 N1_13 1_555 1_555
C3_13 C2_13 1_555 1_555
C4_13 C3_13 1_555 1_555
C5_13 C4_13 1_555 1_555
H4_13 C5_13 1_555 1_555
H5_13 C5_13 1_555 1_555
H6_13 C5_13 1_555 1_555
N3_13 N4_9 1_555 1_555
N4_9 C9_13 1_555 1_555
C6_13 H7_13 1_555 1_555
H8_13 C6_13 1_555 1_555
H9_13 C6_13 1_555 1_555
C7_13 N3_13 1_555 1_555
C8_13 C3_13 1_555 1_555
C9_13 C8_13 1_555 1_555
C10_13 C9_13 1_555 1_555
H10_13 C10_13 1_555 1_555
H11_13 C10_13 1_555 1_555
H12_13 C10_13 1_555 1_555
Cu3_9 N2_9 1_555 1_555
Cu4_9 N4_9 1_555 1_555
N5_5 Cu1_5 1_555 1_555
N6_5 Cu2_5 1_555 1_555
C1_13 C2_13 1_555 1_555
C6_13 C7_13 1_555 1_555
C7_13 C8_13 1_555 1_555
Cu1_6 N1_14 1_555 1_555
Cu2_6 N3_14 1_555 1_555
N1_14 N2_10 1_555 1_555
N2_10 C4_14 1_555 1_555
C1_14 H1_14 1_555 1_555
H2_14 C1_14 1_555 1_555
H3_14 C1_14 1_555 1_555
C2_14 N1_14 1_555 1_555
C3_14 C2_14 1_555 1_555
C4_14 C3_14 1_555 1_555
C5_14 C4_14 1_555 1_555
H4_14 C5_14 1_555 1_555
H5_14 C5_14 1_555 1_555
H6_14 C5_14 1_555 1_555
N3_14 N4_10 1_555 1_555
N4_10 C9_14 1_555 1_555
C6_14 H7_14 1_555 1_555
H8_14 C6_14 1_555 1_555
H9_14 C6_14 1_555 1_555
C7_14 N3_14 1_555 1_555
C8_14 C3_14 1_555 1_555
C9_14 C8_14 1_555 1_555
C10_14 C9_14 1_555 1_555
H10_14 C10_14 1_555 1_555
H11_14 C10_14 1_555 1_555
H12_14 C10_14 1_555 1_555
Cu3_10 N2_10 1_555 1_555
Cu4_10 N4_10 1_555 1_555
N5_6 Cu1_6 1_555 1_555
C1_14 C2_14 1_555 1_555
C6_14 C7_14 1_555 1_555
C7_14 C8_14 1_555 1_555
N6_7 Cu2_7 1_555 1_555
Cu1_7 N1_15 1_555 1_555
N1_15 N2_11 1_555 1_555
N2_11 C4_15 1_555 1_555
C1_15 H1_15 1_555 1_555
H2_15 C1_15 1_555 1_555
H3_15 C1_15 1_555 1_555
C2_15 N1_15 1_555 1_555
C3_15 C2_15 1_555 1_555
C4_15 C3_15 1_555 1_555
C5_15 C4_15 1_555 1_555
H4_15 C5_15 1_555 1_555
H5_15 C5_15 1_555 1_555
H6_15 C5_15 1_555 1_555
N3_15 N4_11 1_555 1_555
N4_11 C9_15 1_555 1_555
C6_15 H7_15 1_555 1_555
H8_15 C6_15 1_555 1_555
H9_15 C6_15 1_555 1_555
C7_15 N3_15 1_555 1_555
C8_15 C3_15 1_555 1_555
C9_15 C8_15 1_555 1_555
C10_15 C9_15 1_555 1_555
H10_15 C10_15 1_555 1_555
H11_15 C10_15 1_555 1_555
H12_15 C10_15 1_555 1_555
Cu3_11 N2_11 1_555 1_555
N5_7 Cu1_7 1_555 1_555
C1_15 C2_15 1_555 1_555
C6_15 C7_15 1_555 1_555
C7_15 C8_15 1_555 1_555
Cu3_11 N1_16 1_555 1_555
Cu4_9 N3_16 1_555 1_555
N1_16 N2_12 1_555 1_555
N2_12 C4_16 1_555 1_555
C1_16 H1_16 1_555 1_555
H2_16 C1_16 1_555 1_555
H3_16 C1_16 1_555 1_555
C2_16 N1_16 1_555 1_555
C3_16 C2_16 1_555 1_555
C4_16 C3_16 1_555 1_555
C5_16 C4_16 1_555 1_555
H4_16 C5_16 1_555 1_555
H5_16 C5_16 1_555 1_555
H6_16 C5_16 1_555 1_555
N3_16 N4_12 1_555 1_555
N4_12 C9_16 1_555 1_555
C6_16 H7_16 1_555 1_555
H8_16 C6_16 1_555 1_555
H9_16 C6_16 1_555 1_555
C7_16 N3_16 1_555 1_555
C8_16 C3_16 1_555 1_555
C9_16 C8_16 1_555 1_555
C10_16 C9_16 1_555 1_555
H10_16 C10_16 1_555 1_555
H11_16 C10_16 1_555 1_555
H12_16 C10_16 1_555 1_555
Cu3_12 N2_12 1_555 1_555
Cu4_13 N4_12 1_555 1_555
C1_16 C2_16 1_555 1_555
C6_16 C7_16 1_555 1_555
C7_16 C8_16 1_555 1_555
Cu3_9 N1_17 1_555 1_555
Cu4_12 N3_17 1_555 1_555
N1_17 N2_13 1_555 1_555
N2_13 C4_17 1_555 1_555
C1_17 H1_17 1_555 1_555
H2_17 C1_17 1_555 1_555
H3_17 C1_17 1_555 1_555
C2_17 N1_17 1_555 1_555
C3_17 C2_17 1_555 1_555
C4_17 C3_17 1_555 1_555
C5_17 C4_17 1_555 1_555
H4_17 C5_17 1_555 1_555
H5_17 C5_17 1_555 1_555
H6_17 C5_17 1_555 1_555
N3_17 N4_13 1_555 1_555
N4_13 C9_17 1_555 1_555
C6_17 H7_17 1_555 1_555
H8_17 C6_17 1_555 1_555
H9_17 C6_17 1_555 1_555
C7_17 N3_17 1_555 1_555
C8_17 C3_17 1_555 1_555
C9_17 C8_17 1_555 1_555
C10_17 C9_17 1_555 1_555
H10_17 C10_17 1_555 1_555
H11_17 C10_17 1_555 1_555
H12_17 C10_17 1_555 1_555
Cu3_13 N2_13 1_555 1_555
Cu4_14 N4_13 1_555 1_555
C1_17 C2_17 1_555 1_555
C6_17 C7_17 1_555 1_555
C7_17 C8_17 1_555 1_555
Cu3_10 N1_18 1_555 1_555
N1_18 N2_14 1_555 1_555
N2_14 C4_18 1_555 1_555
C1_18 H1_18 1_555 1_555
H2_18 C1_18 1_555 1_555
H3_18 C1_18 1_555 1_555
C2_18 N1_18 1_555 1_555
C3_18 C2_18 1_555 1_555
C4_18 C3_18 1_555 1_555
C5_18 C4_18 1_555 1_555
H4_18 C5_18 1_555 1_555
H5_18 C5_18 1_555 1_555
H6_18 C5_18 1_555 1_555
N3_18 N4_14 1_555 1_555
N4_14 C9_18 1_555 1_555
C6_18 H7_18 1_555 1_555
H8_18 C6_18 1_555 1_555
H9_18 C6_18 1_555 1_555
C7_18 N3_18 1_555 1_555
C8_18 C3_18 1_555 1_555
C9_18 C8_18 1_555 1_555
C10_18 C9_18 1_555 1_555
H10_18 C10_18 1_555 1_555
H11_18 C10_18 1_555 1_555
H12_18 C10_18 1_555 1_555
Cu3_14 N2_14 1_555 1_555
C1_18 C2_18 1_555 1_555
C6_18 C7_18 1_555 1_555
C7_18 C8_18 1_555 1_555
Cu3_14 N1_19 1_555 1_555
Cu4_13 N3_19 1_555 1_555
N1_19 N5_6 1_555 1_555
N5_6 C4_19 1_555 1_555
C1_19 H1_19 1_555 1_555
H2_19 C1_19 1_555 1_555
H3_19 C1_19 1_555 1_555
C2_19 N1_19 1_555 1_555
C3_19 C2_19 1_555 1_555
C4_19 C3_19 1_555 1_555
C5_19 C4_19 1_555 1_555
H4_19 C5_19 1_555 1_555
H5_19 C5_19 1_555 1_555
H6_19 C5_19 1_555 1_555
N3_19 N6_5 1_555 1_555
N6_5 C9_19 1_555 1_555
C6_19 H7_19 1_555 1_555
H8_19 C6_19 1_555 1_555
H9_19 C6_19 1_555 1_555
C7_19 N3_19 1_555 1_555
C8_19 C3_19 1_555 1_555
C9_19 C8_19 1_555 1_555
C10_19 C9_19 1_555 1_555
H10_19 C10_19 1_555 1_555
H11_19 C10_19 1_555 1_555
H12_19 C10_19 1_555 1_555
C1_19 C2_19 1_555 1_555
C6_19 C7_19 1_555 1_555
C7_19 C8_19 1_555 1_555
Cu3_12 N1_20 1_555 1_555
Cu4_16 N3_20 1_555 1_555
N1_20 N5_7 1_555 1_555
N5_7 C4_20 1_555 1_555
C1_20 H1_20 1_555 1_555
H2_20 C1_20 1_555 1_555
H3_20 C1_20 1_555 1_555
C2_20 N1_20 1_555 1_555
C3_20 C2_20 1_555 1_555
C4_20 C3_20 1_555 1_555
C5_20 C4_20 1_555 1_555
H4_20 C5_20 1_555 1_555
H5_20 C5_20 1_555 1_555
H6_20 C5_20 1_555 1_555
N3_20 N6_7 1_555 1_555
N6_7 C9_20 1_555 1_555
C6_20 H7_20 1_555 1_555
H8_20 C6_20 1_555 1_555
H9_20 C6_20 1_555 1_555
C7_20 N3_20 1_555 1_555
C8_20 C3_20 1_555 1_555
C9_20 C8_20 1_555 1_555
C10_20 C9_20 1_555 1_555
H10_20 C10_20 1_555 1_555
H11_20 C10_20 1_555 1_555
H12_20 C10_20 1_555 1_555
C1_20 C2_20 1_555 1_555
C6_20 C7_20 1_555 1_555
C7_20 C8_20 1_555 1_555
Cu3_13 N1_21 1_555 1_555
N1_21 N5_5 1_555 1_555
N5_5 C4_21 1_555 1_555
C1_21 H1_21 1_555 1_555
H2_21 C1_21 1_555 1_555
H3_21 C1_21 1_555 1_555
C2_21 N1_21 1_555 1_555
C3_21 C2_21 1_555 1_555
C4_21 C3_21 1_555 1_555
C5_21 C4_21 1_555 1_555
H4_21 C5_21 1_555 1_555
H5_21 C5_21 1_555 1_555
H6_21 C5_21 1_555 1_555
N3_21 N6_6 1_555 1_555
N6_6 C9_21 1_555 1_555
C6_21 H7_21 1_555 1_555
H8_21 C6_21 1_555 1_555
H9_21 C6_21 1_555 1_555
C7_21 N3_21 1_555 1_555
C8_21 C3_21 1_555 1_555
C9_21 C8_21 1_555 1_555
C10_21 C9_21 1_555 1_555
H10_21 C10_21 1_555 1_555
H11_21 C10_21 1_555 1_555
H12_21 C10_21 1_555 1_555
C1_21 C2_21 1_555 1_555
C6_21 C7_21 1_555 1_555
C7_21 C8_21 1_555 1_555
Cu1_8 N1_22 1_555 1_555
N1_22 N2_15 1_555 1_555
N2_15 C4_22 1_555 1_555
C1_22 H1_22 1_555 1_555
H2_22 C1_22 1_555 1_555
H3_22 C1_22 1_555 1_555
C2_22 N1_22 1_555 1_555
C3_22 C2_22 1_555 1_555
C4_22 C3_22 1_555 1_555
C5_22 C4_22 1_555 1_555
H4_22 C5_22 1_555 1_555
H5_22 C5_22 1_555 1_555
H6_22 C5_22 1_555 1_555
N3_22 N4_15 1_555 1_555
N4_15 C9_22 1_555 1_555
C6_22 H7_22 1_555 1_555
H8_22 C6_22 1_555 1_555
H9_22 C6_22 1_555 1_555
C7_22 N3_22 1_555 1_555
C8_22 C3_22 1_555 1_555
C9_22 C8_22 1_555 1_555
C10_22 C9_22 1_555 1_555
H10_22 C10_22 1_555 1_555
H11_22 C10_22 1_555 1_555
H12_22 C10_22 1_555 1_555
Cu3_15 N2_15 1_555 1_555
N5_8 Cu1_8 1_555 1_555
C1_22 C2_22 1_555 1_555
C6_22 C7_22 1_555 1_555
C7_22 C8_22 1_555 1_555
Cu3_15 N1_23 1_555 1_555
N1_23 N2_16 1_555 1_555
N2_16 C4_23 1_555 1_555
C1_23 H1_23 1_555 1_555
H2_23 C1_23 1_555 1_555
H3_23 C1_23 1_555 1_555
C2_23 N1_23 1_555 1_555
C3_23 C2_23 1_555 1_555
C4_23 C3_23 1_555 1_555
C5_23 C4_23 1_555 1_555
H4_23 C5_23 1_555 1_555
H5_23 C5_23 1_555 1_555
H6_23 C5_23 1_555 1_555
N3_23 N4_16 1_555 1_555
N4_16 C9_23 1_555 1_555
C6_23 H7_23 1_555 1_555
H8_23 C6_23 1_555 1_555
H9_23 C6_23 1_555 1_555
C7_23 N3_23 1_555 1_555
C8_23 C3_23 1_555 1_555
C9_23 C8_23 1_555 1_555
C10_23 C9_23 1_555 1_555
H10_23 C10_23 1_555 1_555
H11_23 C10_23 1_555 1_555
H12_23 C10_23 1_555 1_555
Cu3_16 N2_16 1_555 1_555
C1_23 C2_23 1_555 1_555
C6_23 C7_23 1_555 1_555
C7_23 C8_23 1_555 1_555
Cu3_16 N1_24 1_555 1_555
N1_24 N5_8 1_555 1_555
N5_8 C4_24 1_555 1_555
C1_24 H1_24 1_555 1_555
H2_24 C1_24 1_555 1_555
H3_24 C1_24 1_555 1_555
C2_24 N1_24 1_555 1_555
C3_24 C2_24 1_555 1_555
C4_24 C3_24 1_555 1_555
C5_24 C4_24 1_555 1_555
H4_24 C5_24 1_555 1_555
H5_24 C5_24 1_555 1_555
H6_24 C5_24 1_555 1_555
N3_24 N6_8 1_555 1_555
N6_8 C9_24 1_555 1_555
C6_24 H7_24 1_555 1_555
H8_24 C6_24 1_555 1_555
H9_24 C6_24 1_555 1_555
C7_24 N3_24 1_555 1_555
C8_24 C3_24 1_555 1_555
C9_24 C8_24 1_555 1_555
C10_24 C9_24 1_555 1_555
H10_24 C10_24 1_555 1_555
H11_24 C10_24 1_555 1_555
H12_24 C10_24 1_555 1_555
C1_24 C2_24 1_555 1_555
C6_24 C7_24 1_555 1_555
C7_24 C8_24 1_555 1_555
Cu1_9 N1_25 1_555 1_555
Cu2_9 N3_25 1_555 1_555
N1_25 N2_17 1_555 1_555
N2_17 C4_25 1_555 1_555
C1_25 H1_25 1_555 1_555
H2_25 C1_25 1_555 1_555
H3_25 C1_25 1_555 1_555
C2_25 N1_25 1_555 1_555
C3_25 C2_25 1_555 1_555
C4_25 C3_25 1_555 1_555
C5_25 C4_25 1_555 1_555
H4_25 C5_25 1_555 1_555
H5_25 C5_25 1_555 1_555
H6_25 C5_25 1_555 1_555
N3_25 N4_17 1_555 1_555
N4_17 C9_25 1_555 1_555
C6_25 H7_25 1_555 1_555
H8_25 C6_25 1_555 1_555
H9_25 C6_25 1_555 1_555
C7_25 N3_25 1_555 1_555
C8_25 C3_25 1_555 1_555
C9_25 C8_25 1_555 1_555
C10_25 C9_25 1_555 1_555
H10_25 C10_25 1_555 1_555
H11_25 C10_25 1_555 1_555
H12_25 C10_25 1_555 1_555
Cu4_17 N4_17 1_555 1_555
N5_9 Cu1_9 1_555 1_555
N6_9 Cu2_9 1_555 1_555
C1_25 C2_25 1_555 1_555
C6_25 C7_25 1_555 1_555
C7_25 C8_25 1_555 1_555
Cu1_10 N1_26 1_555 1_555
Cu2_10 N3_26 1_555 1_555
N1_26 N2_18 1_555 1_555
N2_18 C4_26 1_555 1_555
C1_26 H1_26 1_555 1_555
H2_26 C1_26 1_555 1_555
H3_26 C1_26 1_555 1_555
C2_26 N1_26 1_555 1_555
C3_26 C2_26 1_555 1_555
C4_26 C3_26 1_555 1_555
C5_26 C4_26 1_555 1_555
H4_26 C5_26 1_555 1_555
H5_26 C5_26 1_555 1_555
H6_26 C5_26 1_555 1_555
N3_26 N4_18 1_555 1_555
N4_18 C9_26 1_555 1_555
C6_26 H7_26 1_555 1_555
H8_26 C6_26 1_555 1_555
H9_26 C6_26 1_555 1_555
C7_26 N3_26 1_555 1_555
C8_26 C3_26 1_555 1_555
C9_26 C8_26 1_555 1_555
C10_26 C9_26 1_555 1_555
H10_26 C10_26 1_555 1_555
H11_26 C10_26 1_555 1_555
H12_26 C10_26 1_555 1_555
Cu3_18 N2_18 1_555 1_555
Cu4_18 N4_18 1_555 1_555
N6_10 Cu2_10 1_555 1_555
C1_26 C2_26 1_555 1_555
C6_26 C7_26 1_555 1_555
C7_26 C8_26 1_555 1_555
Cu2_11 N3_27 1_555 1_555
N1_27 N2_19 1_555 1_555
N2_19 C4_27 1_555 1_555
C1_27 H1_27 1_555 1_555
H2_27 C1_27 1_555 1_555
C2_27 N1_27 1_555 1_555
C3_27 C2_27 1_555 1_555
C4_27 C3_27 1_555 1_555
C5_27 C4_27 1_555 1_555
H4_27 C5_27 1_555 1_555
H5_27 C5_27 1_555 1_555
H6_27 C5_27 1_555 1_555
N3_27 N4_19 1_555 1_555
N4_19 C9_27 1_555 1_555
C6_27 H7_27 1_555 1_555
H8_27 C6_27 1_555 1_555
H9_27 C6_27 1_555 1_555
C7_27 N3_27 1_555 1_555
C8_27 C3_27 1_555 1_555
C9_27 C8_27 1_555 1_555
C10_27 C9_27 1_555 1_555
H10_27 C10_27 1_555 1_555
H11_27 C10_27 1_555 1_555
H12_27 C10_27 1_555 1_555
Cu4_19 N4_19 1_555 1_555
N6_11 Cu2_11 1_555 1_555
C1_27 C2_27 1_555 1_555
C6_27 C7_27 1_555 1_555
C7_27 C8_27 1_555 1_555
N5_12 Cu1_11 1_555 1_555
Cu2_12 N3_28 1_555 1_555
N1_28 N2_20 1_555 1_555
N2_20 C4_28 1_555 1_555
C1_28 H1_28 1_555 1_555
H2_28 C1_28 1_555 1_555
C2_28 N1_28 1_555 1_555
C3_28 C2_28 1_555 1_555
C4_28 C3_28 1_555 1_555
C5_28 C4_28 1_555 1_555
H4_28 C5_28 1_555 1_555
H5_28 C5_28 1_555 1_555
H6_28 C5_28 1_555 1_555
N3_28 N4_20 1_555 1_555
N4_20 C9_28 1_555 1_555
C6_28 H7_28 1_555 1_555
H8_28 C6_28 1_555 1_555
H9_28 C6_28 1_555 1_555
C7_28 N3_28 1_555 1_555
C8_28 C3_28 1_555 1_555
C9_28 C8_28 1_555 1_555
C10_28 C9_28 1_555 1_555
H10_28 C10_28 1_555 1_555
H11_28 C10_28 1_555 1_555
H12_28 C10_28 1_555 1_555
Cu3_19 N2_20 1_555 1_555
Cu4_20 N4_20 1_555 1_555
N6_12 Cu2_12 1_555 1_555
C1_28 C2_28 1_555 1_555
C6_28 C7_28 1_555 1_555
C7_28 C8_28 1_555 1_555
Cu3_19 N1_29 1_555 1_555
Cu4_17 N3_29 1_555 1_555
N1_29 N2_21 1_555 1_555
N2_21 C4_29 1_555 1_555
C1_29 H1_29 1_555 1_555
H2_29 C1_29 1_555 1_555
H3_28 C1_29 1_555 1_555
C2_29 N1_29 1_555 1_555
C3_29 C2_29 1_555 1_555
C4_29 C3_29 1_555 1_555
C5_29 C4_29 1_555 1_555
H4_29 C5_29 1_555 1_555
H5_29 C5_29 1_555 1_555
H6_29 C5_29 1_555 1_555
N3_29 N4_21 1_555 1_555
N4_21 C9_29 1_555 1_555
C6_29 H7_29 1_555 1_555
H8_29 C6_29 1_555 1_555
H9_29 C6_29 1_555 1_555
C7_29 N3_29 1_555 1_555
C8_29 C3_29 1_555 1_555
C9_29 C8_29 1_555 1_555
C10_29 C9_29 1_555 1_555
H10_29 C10_29 1_555 1_555
H11_29 C10_29 1_555 1_555
H12_29 C10_29 1_555 1_555
Cu4_21 N4_21 1_555 1_555
C1_29 C2_29 1_555 1_555
C6_29 C7_29 1_555 1_555
C7_29 C8_29 1_555 1_555
Cu3_17 N1_30 1_555 1_555
Cu4_20 N3_30 1_555 1_555
N1_30 N2_22 1_555 1_555
N2_22 C4_30 1_555 1_555
C1_30 H1_30 1_555 1_555
H2_30 C1_30 1_555 1_555
H3_29 C1_30 1_555 1_555
C2_30 N1_30 1_555 1_555
C3_30 C2_30 1_555 1_555
C4_30 C3_30 1_555 1_555
C5_30 C4_30 1_555 1_555
H4_30 C5_30 1_555 1_555
H5_30 C5_30 1_555 1_555
H6_30 C5_30 1_555 1_555
N3_30 N4_22 1_555 1_555
N4_22 C9_30 1_555 1_555
C6_30 H7_30 1_555 1_555
H8_30 C6_30 1_555 1_555
H9_30 C6_30 1_555 1_555
C7_30 N3_30 1_555 1_555
C8_30 C3_30 1_555 1_555
C9_30 C8_30 1_555 1_555
C10_30 C9_30 1_555 1_555
H10_30 C10_30 1_555 1_555
H11_30 C10_30 1_555 1_555
H12_30 C10_30 1_555 1_555
Cu3_21 N2_22 1_555 1_555
Cu4_22 N4_22 1_555 1_555
C1_30 C2_30 1_555 1_555
C6_30 C7_30 1_555 1_555
C7_30 C8_30 1_555 1_555
Cu4_18 N3_31 1_555 1_555
N1_31 N2_23 1_555 1_555
N2_23 C4_31 1_555 1_555
C1_31 H1_31 1_555 1_555
H2_31 C1_31 1_555 1_555
C2_31 N1_31 1_555 1_555
C3_31 C2_31 1_555 1_555
C4_31 C3_31 1_555 1_555
C5_31 C4_31 1_555 1_555
H4_31 C5_31 1_555 1_555
H5_31 C5_31 1_555 1_555
H6_31 C5_31 1_555 1_555
N3_31 N4_23 1_555 1_555
N4_23 C9_31 1_555 1_555
C6_31 H7_31 1_555 1_555
H8_31 C6_31 1_555 1_555
H9_31 C6_31 1_555 1_555
C7_31 N3_31 1_555 1_555
C8_31 C3_31 1_555 1_555
C9_31 C8_31 1_555 1_555
C10_31 C9_31 1_555 1_555
H10_31 C10_31 1_555 1_555
H11_31 C10_31 1_555 1_555
H12_31 C10_31 1_555 1_555
Cu4_23 N4_23 1_555 1_555
C1_31 C2_31 1_555 1_555
C6_31 C7_31 1_555 1_555
C7_31 C8_31 1_555 1_555
Cu4_19 N3_32 1_555 1_555
N1_32 N2_24 1_555 1_555
N2_24 C4_32 1_555 1_555
C1_32 H1_32 1_555 1_555
H2_32 C1_32 1_555 1_555
C2_32 N1_32 1_555 1_555
C3_32 C2_32 1_555 1_555
C4_32 C3_32 1_555 1_555
C5_32 C4_32 1_555 1_555
H4_32 C5_32 1_555 1_555
H5_32 C5_32 1_555 1_555
H6_32 C5_32 1_555 1_555
N3_32 N4_24 1_555 1_555
N4_24 C9_32 1_555 1_555
C6_32 H7_32 1_555 1_555
H8_32 C6_32 1_555 1_555
H9_32 C6_32 1_555 1_555
C7_32 N3_32 1_555 1_555
C8_32 C3_32 1_555 1_555
C9_32 C8_32 1_555 1_555
C10_32 C9_32 1_555 1_555
H10_32 C10_32 1_555 1_555
H11_32 C10_32 1_555 1_555
H12_32 C10_32 1_555 1_555
Cu3_22 N2_24 1_555 1_555
Cu4_24 N4_24 1_555 1_555
C1_32 C2_32 1_555 1_555
C6_32 C7_32 1_555 1_555
C7_32 C8_32 1_555 1_555
Cu3_22 N1_33 1_555 1_555
Cu4_21 N3_33 1_555 1_555
N1_33 N5_10 1_555 1_555
N5_10 C4_33 1_555 1_555
C1_33 H1_33 1_555 1_555
H2_33 C1_33 1_555 1_555
H3_31 C1_33 1_555 1_555
C2_33 N1_33 1_555 1_555
C3_33 C2_33 1_555 1_555
C4_33 C3_33 1_555 1_555
C5_33 C4_33 1_555 1_555
H4_33 C5_33 1_555 1_555
H5_33 C5_33 1_555 1_555
H6_33 C5_33 1_555 1_555
N3_33 N6_9 1_555 1_555
N6_9 C9_33 1_555 1_555
C6_33 H7_33 1_555 1_555
H8_33 C6_33 1_555 1_555
H9_33 C6_33 1_555 1_555
C7_33 N3_33 1_555 1_555
C8_33 C3_33 1_555 1_555
C9_33 C8_33 1_555 1_555
C10_33 C9_33 1_555 1_555
H10_33 C10_33 1_555 1_555
H11_33 C10_33 1_555 1_555
H12_33 C10_33 1_555 1_555
C1_33 C2_33 1_555 1_555
C6_33 C7_33 1_555 1_555
C7_33 C8_33 1_555 1_555
Cu3_20 N1_34 1_555 1_555
Cu4_24 N3_34 1_555 1_555
N1_34 N5_12 1_555 1_555
N5_12 C4_34 1_555 1_555
C1_34 H1_34 1_555 1_555
H2_34 C1_34 1_555 1_555
H3_32 C1_34 1_555 1_555
C2_34 N1_34 1_555 1_555
C3_34 C2_34 1_555 1_555
C4_34 C3_34 1_555 1_555
C5_34 C4_34 1_555 1_555
H4_34 C5_34 1_555 1_555
H5_34 C5_34 1_555 1_555
H6_34 C5_34 1_555 1_555
N3_34 N6_11 1_555 1_555
N6_11 C9_34 1_555 1_555
C6_34 H7_34 1_555 1_555
H8_34 C6_34 1_555 1_555
H9_34 C6_34 1_555 1_555
C7_34 N3_34 1_555 1_555
C8_34 C3_34 1_555 1_555
C9_34 C8_34 1_555 1_555
C10_34 C9_34 1_555 1_555
H10_34 C10_34 1_555 1_555
H11_34 C10_34 1_555 1_555
H12_34 C10_34 1_555 1_555
C1_34 C2_34 1_555 1_555
C6_34 C7_34 1_555 1_555
C7_34 C8_34 1_555 1_555
Cu4_22 N3_35 1_555 1_555
N1_35 N5_11 1_555 1_555
N5_11 C4_35 1_555 1_555
C1_35 H1_35 1_555 1_555
H2_35 C1_35 1_555 1_555
C2_35 N1_35 1_555 1_555
C3_35 C2_35 1_555 1_555
C4_35 C3_35 1_555 1_555
C5_35 C4_35 1_555 1_555
H4_35 C5_35 1_555 1_555
H5_35 C5_35 1_555 1_555
H6_35 C5_35 1_555 1_555
N3_35 N6_12 1_555 1_555
N6_12 C9_35 1_555 1_555
C6_35 H7_35 1_555 1_555
H8_35 C6_35 1_555 1_555
H9_35 C6_35 1_555 1_555
C7_35 N3_35 1_555 1_555
C8_35 C3_35 1_555 1_555
C9_35 C8_35 1_555 1_555
C10_35 C9_35 1_555 1_555
H10_35 C10_35 1_555 1_555
H11_35 C10_35 1_555 1_555
H12_35 C10_35 1_555 1_555
C1_35 C2_35 1_555 1_555
C6_35 C7_35 1_555 1_555
C7_35 C8_35 1_555 1_555
Cu4_23 N3_36 1_555 1_555
N1_36 N5_9 1_555 1_555
N5_9 C4_36 1_555 1_555
C1_36 H1_36 1_555 1_555
H2_36 C1_36 1_555 1_555
C2_36 N1_36 1_555 1_555
C3_36 C2_36 1_555 1_555
C4_36 C3_36 1_555 1_555
C5_36 C4_36 1_555 1_555
H4_36 C5_36 1_555 1_555
H5_36 C5_36 1_555 1_555
H6_36 C5_36 1_555 1_555
N3_36 N6_10 1_555 1_555
N6_10 C9_36 1_555 1_555
C6_36 H7_36 1_555 1_555
H8_36 C6_36 1_555 1_555
H9_36 C6_36 1_555 1_555
C7_36 N3_36 1_555 1_555
C8_36 C3_36 1_555 1_555
C9_36 C8_36 1_555 1_555
C10_36 C9_36 1_555 1_555
H10_36 C10_36 1_555 1_555
H11_36 C10_36 1_555 1_555
H12_36 C10_36 1_555 1_555
C1_36 C2_36 1_555 1_555
C6_36 C7_36 1_555 1_555
C7_36 C8_36 1_555 1_555
Cu1_13 N1_37 1_555 1_555
N1_37 N2_25 1_555 1_555
N2_25 C4_37 1_555 1_555
C1_37 H1_37 1_555 1_555
H2_37 C1_37 1_555 1_555
H3_37 C1_37 1_555 1_555
C2_37 N1_37 1_555 1_555
C3_37 C2_37 1_555 1_555
C4_37 C3_37 1_555 1_555
C5_37 C4_37 1_555 1_555
H4_37 C5_37 1_555 1_555
H5_37 C5_37 1_555 1_555
H6_37 C5_37 1_555 1_555
N3_37 N4_25 1_555 1_555
N4_25 C9_37 1_555 1_555
C6_37 H7_37 1_555 1_555
H8_37 C6_37 1_555 1_555
H9_37 C6_37 1_555 1_555
C7_37 N3_37 1_555 1_555
C8_37 C3_37 1_555 1_555
C9_37 C8_37 1_555 1_555
C10_37 C9_37 1_555 1_555
H10_37 C10_37 1_555 1_555
H11_37 C10_37 1_555 1_555
H12_37 C10_37 1_555 1_555
Cu3_25 N2_25 1_555 1_555
N5_13 Cu1_13 1_555 1_555
C1_37 C2_37 1_555 1_555
C6_37 C7_37 1_555 1_555
C7_37 C8_37 1_555 1_555
N6_14 Cu2_13 1_555 1_555
Cu1_14 N1_38 1_555 1_555
N1_38 N2_26 1_555 1_555
N2_26 C4_38 1_555 1_555
C1_38 H1_38 1_555 1_555
H2_38 C1_38 1_555 1_555
H3_38 C1_38 1_555 1_555
C2_38 N1_38 1_555 1_555
C3_38 C2_38 1_555 1_555
C4_38 C3_38 1_555 1_555
C5_38 C4_38 1_555 1_555
H4_38 C5_38 1_555 1_555
H5_38 C5_38 1_555 1_555
H6_38 C5_38 1_555 1_555
N3_38 N4_26 1_555 1_555
N4_26 C9_38 1_555 1_555
C6_38 H7_38 1_555 1_555
H8_38 C6_38 1_555 1_555
H9_38 C6_38 1_555 1_555
C7_38 N3_38 1_555 1_555
C8_38 C3_38 1_555 1_555
C9_38 C8_38 1_555 1_555
C10_38 C9_38 1_555 1_555
H10_38 C10_38 1_555 1_555
H11_38 C10_38 1_555 1_555
H12_38 C10_38 1_555 1_555
Cu3_26 N2_26 1_555 1_555
N5_14 Cu1_14 1_555 1_555
C1_38 C2_38 1_555 1_555
C6_38 C7_38 1_555 1_555
C7_38 C8_38 1_555 1_555
Cu1_15 N1_39 1_555 1_555
Cu2_14 N3_39 1_555 1_555
N1_39 N2_27 1_555 1_555
N2_27 C4_39 1_555 1_555
C1_39 H1_39 1_555 1_555
H2_39 C1_39 1_555 1_555
H3_39 C1_39 1_555 1_555
C2_39 N1_39 1_555 1_555
C3_39 C2_39 1_555 1_555
C4_39 C3_39 1_555 1_555
C5_39 C4_39 1_555 1_555
H4_39 C5_39 1_555 1_555
H5_39 C5_39 1_555 1_555
H6_39 C5_39 1_555 1_555
N3_39 N4_27 1_555 1_555
N4_27 C9_39 1_555 1_555
C6_39 H7_39 1_555 1_555
H8_39 C6_39 1_555 1_555
H9_39 C6_39 1_555 1_555
C7_39 N3_39 1_555 1_555
C8_39 C3_39 1_555 1_555
C9_39 C8_39 1_555 1_555
C10_39 C9_39 1_555 1_555
H10_39 C10_39 1_555 1_555
H11_39 C10_39 1_555 1_555
H12_39 C10_39 1_555 1_555
Cu3_27 N2_27 1_555 1_555
Cu4_26 N4_27 1_555 1_555
N5_15 Cu1_15 1_555 1_555
C1_39 C2_39 1_555 1_555
C6_39 C7_39 1_555 1_555
C7_39 C8_39 1_555 1_555
Cu1_16 N1_40 1_555 1_555
Cu2_15 N3_40 1_555 1_555
N1_40 N2_28 1_555 1_555
N2_28 C4_40 1_555 1_555
C1_40 H1_40 1_555 1_555
H2_40 C1_40 1_555 1_555
H3_40 C1_40 1_555 1_555
C2_40 N1_40 1_555 1_555
C3_40 C2_40 1_555 1_555
C4_40 C3_40 1_555 1_555
C5_40 C4_40 1_555 1_555
H4_40 C5_40 1_555 1_555
H5_40 C5_40 1_555 1_555
H6_40 C5_40 1_555 1_555
N3_40 N4_28 1_555 1_555
N4_28 C9_40 1_555 1_555
C6_40 H7_40 1_555 1_555
H8_40 C6_40 1_555 1_555
H9_40 C6_40 1_555 1_555
C7_40 N3_40 1_555 1_555
C8_40 C3_40 1_555 1_555
C9_40 C8_40 1_555 1_555
C10_40 C9_40 1_555 1_555
H10_40 C10_40 1_555 1_555
H11_40 C10_40 1_555 1_555
H12_40 C10_40 1_555 1_555
Cu3_28 N2_28 1_555 1_555
Cu4_27 N4_28 1_555 1_555
N5_16 Cu1_16 1_555 1_555
N6_16 Cu2_15 1_555 1_555
C1_40 C2_40 1_555 1_555
C6_40 C7_40 1_555 1_555
C7_40 C8_40 1_555 1_555
Cu3_28 N1_41 1_555 1_555
N1_41 N2_29 1_555 1_555
N2_29 C4_41 1_555 1_555
C1_41 H1_41 1_555 1_555
H2_41 C1_41 1_555 1_555
H3_41 C1_41 1_555 1_555
C2_41 N1_41 1_555 1_555
C3_41 C2_41 1_555 1_555
C4_41 C3_41 1_555 1_555
C5_41 C4_41 1_555 1_555
H4_41 C5_41 1_555 1_555
H5_41 C5_41 1_555 1_555
H6_41 C5_41 1_555 1_555
N3_41 N4_29 1_555 1_555
N4_29 C9_41 1_555 1_555
C6_41 H7_41 1_555 1_555
H8_41 C6_41 1_555 1_555
H9_41 C6_41 1_555 1_555
C7_41 N3_41 1_555 1_555
C8_41 C3_41 1_555 1_555
C9_41 C8_41 1_555 1_555
C10_41 C9_41 1_555 1_555
H10_41 C10_41 1_555 1_555
H11_41 C10_41 1_555 1_555
H12_41 C10_41 1_555 1_555
Cu3_29 N2_29 1_555 1_555
C1_41 C2_41 1_555 1_555
C6_41 C7_41 1_555 1_555
C7_41 C8_41 1_555 1_555
Cu3_25 N1_42 1_555 1_555
N1_42 N2_30 1_555 1_555
N2_30 C4_42 1_555 1_555
C1_42 H1_42 1_555 1_555
H2_42 C1_42 1_555 1_555
H3_42 C1_42 1_555 1_555
C2_42 N1_42 1_555 1_555
C3_42 C2_42 1_555 1_555
C4_42 C3_42 1_555 1_555
C5_42 C4_42 1_555 1_555
H4_42 C5_42 1_555 1_555
H5_42 C5_42 1_555 1_555
H6_42 C5_42 1_555 1_555
N3_42 N4_30 1_555 1_555
N4_30 C9_42 1_555 1_555
C6_42 H7_42 1_555 1_555
H8_42 C6_42 1_555 1_555
H9_42 C6_42 1_555 1_555
C7_42 N3_42 1_555 1_555
C8_42 C3_42 1_555 1_555
C9_42 C8_42 1_555 1_555
C10_42 C9_42 1_555 1_555
H10_42 C10_42 1_555 1_555
H11_42 C10_42 1_555 1_555
H12_42 C10_42 1_555 1_555
Cu3_30 N2_30 1_555 1_555
C1_42 C2_42 1_555 1_555
C6_42 C7_42 1_555 1_555
C7_42 C8_42 1_555 1_555
Cu3_27 N1_43 1_555 1_555
Cu4_25 N3_43 1_555 1_555
N1_43 N2_31 1_555 1_555
N2_31 C4_43 1_555 1_555
C1_43 H1_43 1_555 1_555
H2_43 C1_43 1_555 1_555
H3_43 C1_43 1_555 1_555
C2_43 N1_43 1_555 1_555
C3_43 C2_43 1_555 1_555
C4_43 C3_43 1_555 1_555
C5_43 C4_43 1_555 1_555
H4_43 C5_43 1_555 1_555
H5_43 C5_43 1_555 1_555
H6_43 C5_43 1_555 1_555
N3_43 N4_31 1_555 1_555
N4_31 C9_43 1_555 1_555
C6_43 H7_43 1_555 1_555
H8_43 C6_43 1_555 1_555
H9_43 C6_43 1_555 1_555
C7_43 N3_43 1_555 1_555
C8_43 C3_43 1_555 1_555
C9_43 C8_43 1_555 1_555
C10_43 C9_43 1_555 1_555
H10_43 C10_43 1_555 1_555
H11_43 C10_43 1_555 1_555
H12_43 C10_43 1_555 1_555
Cu3_31 N2_31 1_555 1_555
Cu4_29 N4_31 1_555 1_555
C1_43 C2_43 1_555 1_555
C6_43 C7_43 1_555 1_555
C7_43 C8_43 1_555 1_555
Cu3_26 N1_44 1_555 1_555
Cu4_26 N3_44 1_555 1_555
N1_44 N2_32 1_555 1_555
N2_32 C4_44 1_555 1_555
C1_44 H1_44 1_555 1_555
H2_44 C1_44 1_555 1_555
H3_44 C1_44 1_555 1_555
C2_44 N1_44 1_555 1_555
C3_44 C2_44 1_555 1_555
C4_44 C3_44 1_555 1_555
C5_44 C4_44 1_555 1_555
H4_44 C5_44 1_555 1_555
H5_44 C5_44 1_555 1_555
H6_44 C5_44 1_555 1_555
N3_44 N4_32 1_555 1_555
N4_32 C9_44 1_555 1_555
C6_44 H7_44 1_555 1_555
H8_44 C6_44 1_555 1_555
H9_44 C6_44 1_555 1_555
C7_44 N3_44 1_555 1_555
C8_44 C3_44 1_555 1_555
C9_44 C8_44 1_555 1_555
C10_44 C9_44 1_555 1_555
H10_44 C10_44 1_555 1_555
H11_44 C10_44 1_555 1_555
H12_44 C10_44 1_555 1_555
Cu3_32 N2_32 1_555 1_555
Cu4_30 N4_32 1_555 1_555
C1_44 C2_44 1_555 1_555
C6_44 C7_44 1_555 1_555
C7_44 C8_44 1_555 1_555
Cu3_32 N1_45 1_555 1_555
N1_45 N5_14 1_555 1_555
N5_14 C4_45 1_555 1_555
C1_45 H1_45 1_555 1_555
H2_45 C1_45 1_555 1_555
H3_45 C1_45 1_555 1_555
C2_45 N1_45 1_555 1_555
C3_45 C2_45 1_555 1_555
C4_45 C3_45 1_555 1_555
C5_45 C4_45 1_555 1_555
H4_45 C5_45 1_555 1_555
H5_45 C5_45 1_555 1_555
H6_45 C5_45 1_555 1_555
N3_45 N6_13 1_555 1_555
N6_13 C9_45 1_555 1_555
C6_45 H7_45 1_555 1_555
H8_45 C6_45 1_555 1_555
H9_45 C6_45 1_555 1_555
C7_45 N3_45 1_555 1_555
C8_45 C3_45 1_555 1_555
C9_45 C8_45 1_555 1_555
C10_45 C9_45 1_555 1_555
H10_45 C10_45 1_555 1_555
H11_45 C10_45 1_555 1_555
H12_45 C10_45 1_555 1_555
C1_45 C2_45 1_555 1_555
C6_45 C7_45 1_555 1_555
C7_45 C8_45 1_555 1_555
Cu3_29 N1_46 1_555 1_555
N1_46 N5_16 1_555 1_555
N5_16 C4_46 1_555 1_555
C1_46 H1_46 1_555 1_555
H2_46 C1_46 1_555 1_555
H3_46 C1_46 1_555 1_555
C2_46 N1_46 1_555 1_555
C3_46 C2_46 1_555 1_555
C4_46 C3_46 1_555 1_555
C5_46 C4_46 1_555 1_555
H4_46 C5_46 1_555 1_555
H5_46 C5_46 1_555 1_555
H6_46 C5_46 1_555 1_555
N3_46 N6_15 1_555 1_555
N6_15 C9_46 1_555 1_555
C6_46 H7_46 1_555 1_555
H8_46 C6_46 1_555 1_555
H9_46 C6_46 1_555 1_555
C7_46 N3_46 1_555 1_555
C8_46 C3_46 1_555 1_555
C9_46 C8_46 1_555 1_555
C10_46 C9_46 1_555 1_555
H10_46 C10_46 1_555 1_555
H11_46 C10_46 1_555 1_555
H12_46 C10_46 1_555 1_555
C1_46 C2_46 1_555 1_555
C6_46 C7_46 1_555 1_555
C7_46 C8_46 1_555 1_555
Cu3_31 N1_47 1_555 1_555
Cu4_28 N3_47 1_555 1_555
N1_47 N5_15 1_555 1_555
N5_15 C4_47 1_555 1_555
C1_47 H1_47 1_555 1_555
H2_47 C1_47 1_555 1_555
H3_47 C1_47 1_555 1_555
C2_47 N1_47 1_555 1_555
C3_47 C2_47 1_555 1_555
C4_47 C3_47 1_555 1_555
C5_47 C4_47 1_555 1_555
H4_47 C5_47 1_555 1_555
H5_47 C5_47 1_555 1_555
H6_47 C5_47 1_555 1_555
N3_47 N6_16 1_555 1_555
N6_16 C9_47 1_555 1_555
C6_47 H7_47 1_555 1_555
H8_47 C6_47 1_555 1_555
H9_47 C6_47 1_555 1_555
C7_47 N3_47 1_555 1_555
C8_47 C3_47 1_555 1_555
C9_47 C8_47 1_555 1_555
C10_47 C9_47 1_555 1_555
H10_47 C10_47 1_555 1_555
H11_47 C10_47 1_555 1_555
H12_47 C10_47 1_555 1_555
C1_47 C2_47 1_555 1_555
C6_47 C7_47 1_555 1_555
C7_47 C8_47 1_555 1_555
Cu3_30 N1_48 1_555 1_555
Cu4_29 N3_48 1_555 1_555
N1_48 N5_13 1_555 1_555
N5_13 C4_48 1_555 1_555
C1_48 H1_48 1_555 1_555
H2_48 C1_48 1_555 1_555
H3_48 C1_48 1_555 1_555
C2_48 N1_48 1_555 1_555
C3_48 C2_48 1_555 1_555
C4_48 C3_48 1_555 1_555
C5_48 C4_48 1_555 1_555
H4_48 C5_48 1_555 1_555
H5_48 C5_48 1_555 1_555
H6_48 C5_48 1_555 1_555
N3_48 N6_14 1_555 1_555
N6_14 C9_48 1_555 1_555
C6_48 H7_48 1_555 1_555
H8_48 C6_48 1_555 1_555
H9_48 C6_48 1_555 1_555
C7_48 N3_48 1_555 1_555
C8_48 C3_48 1_555 1_555
C9_48 C8_48 1_555 1_555
C10_48 C9_48 1_555 1_555
H10_48 C10_48 1_555 1_555
H11_48 C10_48 1_555 1_555
H12_48 C10_48 1_555 1_555
C1_48 C2_48 1_555 1_555
C6_48 C7_48 1_555 1_555
C7_48 C8_48 1_555 1_555

#END
