
###############################################################################
#
# This file contains modified crystal structure data generated from the
# MOF subset of the Cambridge Structural Database (CSD) v543 
# hosted by the Cambridge Crystallographic Data Centre (CCDC).
#
# This work is licensed under the Creative Commons
# Attribution-NonCommercial-ShareAlike 4.0 International License.
# To view a copy of this license, visit
# http://creativecommons.org/licenses/by-nc-sa/4.0/
# or send a letter to
# Creative Commons, PO Box 1866, Mountain View, CA 94042, USA.
#
# CIF created using the CSD Python API on 29 September 2022
# The structure has been converted into the P1 space group
# The structure has a 3D framework
# The original CSD entry MIYGOR is in the tetragonal crystal system
# The framework has been calculated to contain at least 10.0% void space
# The void calculation uses a probe of radius 1.32A, grid spacing 0.4
#
###############################################################################

data_MIYGOR
_chemical_formula_moiety         '(C1440 H1728 Ag264 N576)n'
_symmetry_cell_setting           triclinic
_symmetry_space_group_name_H-M   'P 1'
_symmetry_Int_Tables_number      1
_space_group_name_Hall           'P 1'
loop_
_symmetry_equiv_pos_site_id
_symmetry_equiv_pos_as_xyz
1 x,y,z
_cell_length_a                   27.1756(8)
_cell_length_b                   27.1756(8)
_cell_length_c                   81.019(3)
_cell_angle_alpha                90
_cell_angle_beta                 90
_cell_angle_gamma                90
_cell_volume                     59833.6
loop_
_atom_site_label
_atom_site_type_symbol
_atom_site_fract_x
_atom_site_fract_y
_atom_site_fract_z
Ag1 Ag 0.25590(12) 0.53163(14) 0.31377(4)
Ag2 Ag 0.27808(13) 0.44892(14) 0.28373(4)
Ag3 Ag 0.67441(13) 0.47723(14) 0.46867(4)
Ag4 Ag 0.11895(14) 0.22825(14) 0.21395(5)
Ag9 Ag 0.22926(12) 0.05892(12) 0.44569(4)
Ag10 Ag 0.11067(12) 0.20710(13) 0.54052(4)
Ag11 Ag 0.46731(12) 0.29963(13) 0.07322(4)
Ag12 Ag 0.02705(12) 0.10976(14) 0.54506(4)
Ag13 Ag 0.33113(12) 0.01664(14) 0.11543(4)
Ag15 Ag 0.22725(12) 0.08957(15) 0.11752(4)
Ag16 Ag 0.48094(12) 0.35939(12) 0.37938(4)
Ag17 Ag 0.47586(13) 0.26325(13) 0.40527(4)
Ag18 Ag 0.39632(13) 0.26940(12) 0.37175(4)
N1 N 0.3169(16) 0.4773(14) 0.3169(3)
N2 N 0.3248(11) 0.4489(11) 0.3031(3)
N3 N 0.2207(12) 0.4353(10) 0.2672(4)
N4 N 0.1818(10) 0.4678(11) 0.2659(5)
N5 N 0.6623(14) 0.4284(16) 0.4506(5)
N6 N 0.6906(16) 0.4265(18) 0.4365(5)
N7 N 0.1153(15) 0.1754(14) 0.1976(5)
N8 N 0.0788(12) 0.1401(13) 0.1981(4)
N11 N 0.0892(13) 0.2847(15) 0.2434(5)
N12 N 0.1254(15) 0.2825(15) 0.2315(5)
N15 N 0.3252(11) 0.0395(11) 0.4270(3)
N16 N 0.2854(10) 0.0711(13) 0.4273(4)
N17 N 0.1867(10) 0.0545(11) 0.4660(4)
N18 N 0.1978(12) 0.0195(13) 0.4777(3)
N19 N 0.3851(11) 0.2421(11) 0.0581(4)
N20 N 0.4170(13) 0.2437(13) 0.0714(4)
N23 N 0.0765(10) 0.1098(9) 0.5255(3)
N24 N 0.1038(12) 0.1518(11) 0.5226(4)
N27 N 0.1852(8) 0.0415(8) 0.1471(2)
N28 N 0.1819(9) 0.0825(8) 0.1371(3)
N29 N 0.2818(10) 0.1026(11) 0.1000(4)
N30 N 0.3236(9) 0.0739(11) 0.0990(4)
N31 N 0.5282(10) 0.3561(10) 0.3985(3)
N32 N 0.5259(12) 0.3189(12) 0.4101(4)
N33 N 0.4218(11) 0.2120(12) 0.4017(4)
N34 N 0.3881(15) 0.2187(14) 0.3891(5)
N35 N 0.4019(12) 0.3308(12) 0.3557(4)
N36 N 0.4341(11) 0.3670(13) 0.3607(4)
C1 C 0.331(2) 0.4937(17) 0.3467(5)
H1 H 0.3074 0.5205 0.3451
H2 H 0.3638 0.5074 0.3486
H3 H 0.3211 0.4740 0.3563
C2 C 0.3317(12) 0.4617(11) 0.3317(3)
C3 C 0.3609(12) 0.4227(11) 0.3265(3)
C4 C 0.3540(14) 0.4148(12) 0.3097(3)
C5 C 0.364(3) 0.3685(17) 0.3003(8)
H4 H 0.3525 0.3726 0.2889
H5 H 0.3458 0.3412 0.3055
H6 H 0.3990 0.3615 0.3004
C6 C 0.2506(14) 0.3502(12) 0.2577(5)
H7 H 0.2825 0.3593 0.2625
H8 H 0.2549 0.3417 0.2461
H9 H 0.2372 0.3218 0.2637
C7 C 0.2158(9) 0.3926(10) 0.2592(4)
C8 C 0.1674(9) 0.3934(9) 0.2537(4)
C9 C 0.1482(9) 0.4374(9) 0.2596(4)
C10 C 0.0990(10) 0.4582(13) 0.2551(4)
H10 H 0.0953 0.4908 0.2601
H11 H 0.0730 0.4364 0.2593
H12 H 0.0964 0.4608 0.2431
C11 C 0.5787(13) 0.4054(16) 0.4572(5)
H13 H 0.5883 0.4213 0.4676
H14 H 0.5693 0.3712 0.4594
H15 H 0.5508 0.4230 0.4523
C12 C 0.6211(13) 0.4063(18) 0.4454(4)
C13 C 0.6243(12) 0.3878(17) 0.4295(4)
C14 C 0.6703(14) 0.4025(18) 0.4238(5)
C15 C 0.692(2) 0.389(2) 0.4076(5)
H16 H 0.7249 0.4043 0.4065
H17 H 0.6711 0.4004 0.3986
H18 H 0.6960 0.3531 0.4069
C16 C 0.182(2) 0.192(2) 0.1768(8)
H19 H 0.1898 0.2202 0.1841
H20 H 0.2104 0.1706 0.1760
H21 H 0.1735 0.2050 0.1658
C17 C 0.1390(16) 0.165(2) 0.1837(6)
C18 C 0.1223(13) 0.1215(13) 0.1764(4)
C19 C 0.0828(11) 0.1067(12) 0.1861(4)
C20 C 0.0508(15) 0.0634(18) 0.1823(7)
H22 H 0.0258 0.0599 0.1910
H23 H 0.0346 0.0684 0.1716
H24 H 0.0710 0.0335 0.1819
C26 C 0.077(2) 0.3350(18) 0.2681(4)
H31 H 0.0494 0.3117 0.2695
H32 H 0.1010 0.3295 0.2770
H33 H 0.0649 0.3685 0.2684
C27 C 0.1012(13) 0.3252(11) 0.2518(4)
C28 C 0.1450(11) 0.3478(12) 0.2472(4)
C29 C 0.1567(14) 0.3199(14) 0.2334(4)
C30 C 0.1945(16) 0.3287(14) 0.2203(5)
H34 H 0.1926 0.3026 0.2120
H35 H 0.1884 0.3606 0.2151
H36 H 0.2274 0.3287 0.2253
C36 C 0.4055(15) 0.0450(12) 0.4167(5)
H43 H 0.4053 0.0125 0.4219
H44 H 0.4113 0.0414 0.4048
H45 H 0.4317 0.0651 0.4216
C37 C 0.3570(11) 0.0696(12) 0.4195(4)
C38 C 0.3397(11) 0.1153(11) 0.4145(5)
C39 C 0.2914(10) 0.1149(10) 0.4202(4)
C40 C 0.2520(11) 0.1533(11) 0.4201(4)
H46 H 0.2227 0.1406 0.4258
H47 H 0.2639 0.1827 0.4259
H48 H 0.2436 0.1618 0.4087
C41 C 0.1420(13) 0.134(2) 0.4660(7)
H49 H 0.1552 0.1354 0.4548
H50 H 0.1060 0.1356 0.4656
H51 H 0.1549 0.1611 0.4726
C42 C 0.1570(10) 0.0860(12) 0.4738(3)
C43 C 0.1457(10) 0.0708(12) 0.4897(3)
C44 C 0.1753(12) 0.0297(13) 0.4920(4)
H53 H 0.1939 0.0104 0.5155
C46 C 0.3147(13) 0.1900(16) 0.0502(5)
H55 H 0.3163 0.2103 0.0402
H56 H 0.2823 0.1940 0.0554
H57 H 0.3196 0.1554 0.0473
C47 C 0.3539(11) 0.2058(11) 0.0620(3)
C48 C 0.3667(13) 0.1833(13) 0.0768(4)
C49 C 0.4076(15) 0.2088(15) 0.0826(4)
C50 C 0.4320(16) 0.2069(17) 0.0991(4)
H58 H 0.4586 0.2313 0.0995
H59 H 0.4457 0.1740 0.1009
H60 H 0.4078 0.2142 0.1077
C56 C 0.0659(13) 0.0268(9) 0.5143(5)
H67 H 0.0407 0.0252 0.5230
H68 H 0.0926 0.0038 0.5170
H69 H 0.0512 0.0177 0.5037
C57 C 0.0860(11) 0.0779(9) 0.5133(3)
C58 C 0.1233(11) 0.0976(10) 0.5036(3)
C59 C 0.1337(18) 0.1441(12) 0.5098(5)
C60 C 0.1681(14) 0.1831(13) 0.5038(5)
H70 H 0.1650 0.2124 0.5108
H71 H 0.1600 0.1916 0.4924
H72 H 0.2020 0.1709 0.5043
C66 C 0.1615(17) 0.0103(15) 0.1748(5)
H81 H 0.1715 0.0240 0.1855
C67 C 0.1649(11) 0.0492(11) 0.1619(3)
C68 C 0.1421(14) 0.0950(11) 0.1619(4)
C69 C 0.1585(11) 0.1141(10) 0.1470(3)
C70 C 0.1459(16) 0.1642(11) 0.1406(6)
H82 H 0.1632 0.1700 0.1302
H83 H 0.1558 0.1890 0.1488
H84 H 0.1103 0.1663 0.1388
C71 C 0.2506(15) 0.1784(15) 0.0907(6)
H85 H 0.2214 0.1645 0.0960
H86 H 0.2420 0.1896 0.0795
H87 H 0.2628 0.2063 0.0971
C72 C 0.2897(10) 0.1399(14) 0.0896(6)
C73 C 0.3394(10) 0.1450(9) 0.0859(4)
C74 C 0.3578(10) 0.0999(9) 0.0910(4)
C75 C 0.4066(12) 0.0756(18) 0.0887(6)
H88 H 0.4065 0.0434 0.0941
H89 H 0.4325 0.0962 0.0935
H90 H 0.4129 0.0713 0.0768
C76 C 0.5770(16) 0.427(2) 0.3936(6)
H91 H 0.5552 0.4278 0.3840
H92 H 0.5714 0.4565 0.4004
H93 H 0.6114 0.4267 0.3899
C77 C 0.5669(17) 0.3822(16) 0.4037(5)
C78 C 0.5865(11) 0.3662(13) 0.4186(4)
C79 C 0.5635(11) 0.3210(12) 0.4206(4)
C80 C 0.5650(14) 0.2881(16) 0.4354(4)
H94 H 0.5422 0.2605 0.4338
H95 H 0.5985 0.2753 0.4369
H96 H 0.5553 0.3067 0.4452
C81 C 0.433(2) 0.167(2) 0.4282(4)
H97 H 0.4626 0.1867 0.4292
H98 H 0.4096 0.1756 0.4370
H99 H 0.4415 0.1317 0.4293
C82 C 0.4094(11) 0.1752(10) 0.4118(3)
C83 C 0.3660(10) 0.1550(9) 0.4058(3)
C84 C 0.3572(13) 0.1811(13) 0.3913(3)
C85 C 0.316(2) 0.1730(17) 0.3793(6)
H100 H 0.3196 0.1959 0.3700
H101 H 0.3169 0.1392 0.3753
H102 H 0.2845 0.1793 0.3849
C86 C 0.3348(15) 0.3104(14) 0.3363(5)
H103 H 0.3387 0.2776 0.3411
H104 H 0.3024 0.3237 0.3392
H105 H 0.3376 0.3082 0.3242
C87 C 0.3741(10) 0.3438(15) 0.3428(5)
C88 C 0.3832(10) 0.3934(11) 0.3399(3)
C89 C 0.4217(11) 0.4038(11) 0.3506(4)
C90 C 0.4450(14) 0.454(2) 0.3500(8)
H106 H 0.4711 0.4556 0.3583
H107 H 0.4590 0.4591 0.3390
H108 H 0.4200 0.4788 0.3523
Ag19 Ag 0.75590(12) 0.46837(14) 0.43623(4)
Ag20 Ag 0.17441(13) 0.52277(14) 0.28133(4)
Ag21 Ag 0.03174(13) 0.13690(13) 0.21824(4)
Ag22 Ag 0.04009(14) 0.23050(13) 0.24667(5)
Ag23 Ag 0.38933(12) 0.29290(13) 0.04052(4)
N37 N 0.6818(10) 0.5322(11) 0.4841(5)
N38 N 0.1906(16) 0.5735(18) 0.3135(5)
N41 N 0.1149(11) 0.2579(11) 0.5581(4)
N42 N 0.5191(11) 0.3563(11) 0.0765(3)
Ag5 Ag 0.53174(13) 0.86310(13) 0.53176(4)
Ag6 Ag 0.54009(14) 0.76950(13) 0.50333(5)
Ag7 Ag 0.25760(12) 0.97231(12) 0.47461(4)
Ag8 Ag 0.33389(12) 0.98399(12) 0.44251(4)
Ag14 Ag 0.24826(12) 0.99414(13) 0.14500(4)
N9 N 0.4863(9) 0.8644(10) 0.5109(3)
N10 N 0.4919(10) 0.8230(11) 0.5013(4)
N13 N 0.3212(11) 0.9340(10) 0.4738(3)
N14 N 0.3545(13) 0.9377(10) 0.4610(4)
N21 N 0.4809(11) 0.8563(11) 0.1735(3)
N22 N 0.4779(11) 0.8911(10) 0.1859(3)
N25 N 0.3507(9) 0.9674(10) 0.1338(3)
N26 N 0.3152(10) 0.9557(9) 0.1453(3)
C21 C 0.4471(13) 0.9379(16) 0.5157(5)
H25 H 0.4723 0.9369 0.5243
H26 H 0.4496 0.9690 0.5096
H27 H 0.4144 0.9353 0.5207
C22 C 0.4547(11) 0.8959(11) 0.5040(4)
C23 C 0.4313(11) 0.8731(11) 0.4908(4)
C24 C 0.4581(13) 0.8298(15) 0.4895(5)
C25 C 0.447(2) 0.796(2) 0.4754(6)
H28 H 0.4691 0.7674 0.4759
H29 H 0.4129 0.7849 0.4761
H30 H 0.4522 0.8135 0.4650
C31 C 0.325(3) 0.888(3) 0.5011(7)
H37 H 0.2907 0.8984 0.5026
H38 H 0.3257 0.8517 0.4998
H39 H 0.3444 0.8971 0.5107
C32 C 0.3457(14) 0.9113(11) 0.4860(4)
C33 C 0.3935(17) 0.8996(11) 0.4812(4)
C34 C 0.3962(13) 0.9143(11) 0.4648(3)
C35 C 0.4426(19) 0.9150(13) 0.4549(6)
H40 H 0.4364 0.9307 0.4442
H41 H 0.4679 0.9336 0.4609
H42 H 0.4540 0.8812 0.4532
C45 C 0.1810(18) 0.993(2) 0.5057(6)
H52 H 0.2048 0.9679 0.5024
H54 H 0.1496 0.9783 0.5082
C51 C 0.425(3) 0.826(3) 0.1502(9)
H61 H 0.4447 0.7959 0.1502
H62 H 0.4242 0.8403 0.1392
H63 H 0.3908 0.8174 0.1535
C52 C 0.4456(12) 0.8618(10) 0.1623(4)
C53 C 0.4276(11) 0.9092(11) 0.1645(4)
C54 C 0.4442(15) 0.9224(14) 0.1801(4)
C55 C 0.435(4) 0.964(3) 0.1916(11)
H64 H 0.4564 0.9609 0.2013
H65 H 0.4006 0.9641 0.1951
H66 H 0.4424 0.9954 0.1860
C61 C 0.4416(14) 0.9570(19) 0.1310(7)
H73 H 0.4361 0.9734 0.1204
H74 H 0.4560 0.9245 0.1291
H75 H 0.4640 0.9768 0.1377
C62 C 0.3936(11) 0.9514(11) 0.1398(3)
C63 C 0.3859(8) 0.9305(10) 0.1552(3)
C64 C 0.3356(8) 0.9332(11) 0.1582(3)
C65 C 0.318(4) 0.910(2) 0.1740(6)
H76 H 0.2820 0.9130 0.1746
H77 H 0.3327 0.9277 0.1834
H78 H 0.3276 0.8757 0.1742
H79 H 0.1833 0.9828 0.1720
H80 H 0.1275 0.9984 0.1756
Ag24 Ag 0.53269(12) 0.79963(13) 0.17678(4)
Ag25 Ag 0.52705(12) 0.89024(14) 0.20494(4)
N39 N 0.5788(12) 0.8599(13) 0.5519(4)
N40 N 0.5892(13) 0.7153(15) 0.5066(5)
N43 N 0.9779(11) 0.1089(10) 0.5641(3)
N43_2 N 0.0221(11) 0.6089(10) 0.6859(3)
Ag1_2 Ag 0.74410(12) 0.03163(14) 0.93623(4)
H1_2 H 0.6926 0.0205 0.9049
H2_2 H 0.6362 0.0074 0.9014
Ag20_2 Ag 0.82559(13) 0.02277(14) 0.96867(4)
N37_2 N 0.3182(10) 0.0322(11) 0.7659(5)
N38_2 N 0.8094(16) 0.0735(18) 0.9365(5)
Ag4_2 Ag 0.88105(14) 0.72825(14) 0.03605(5)
Ag13_2 Ag 0.66887(12) 0.51664(14) 0.13457(4)
Ag14_2 Ag 0.75174(12) 0.49414(13) 0.10500(4)
Ag15_2 Ag 0.77275(12) 0.58957(15) 0.13248(4)
N7_2 N 0.8847(15) 0.6754(14) 0.0524(5)
N8_2 N 0.9212(12) 0.6401(13) 0.0519(4)
N11_2 N 0.9108(13) 0.7847(15) 0.0066(5)
N12_2 N 0.8746(15) 0.7825(15) 0.0185(5)
N19_2 N 0.6149(11) 0.7421(11) 0.1919(4)
N20_2 N 0.5830(13) 0.7437(13) 0.1786(4)
N22_2 N 0.5221(11) 0.3911(10) 0.0641(3)
N25_2 N 0.6493(9) 0.4674(10) 0.1162(3)
N26_2 N 0.6848(10) 0.4557(9) 0.1047(3)
N27_2 N 0.8148(8) 0.5415(8) 0.1029(2)
N28_2 N 0.8181(9) 0.5825(8) 0.1129(3)
N29_2 N 0.7182(10) 0.6026(11) 0.1500(4)
N30_2 N 0.6764(9) 0.5739(11) 0.1510(4)
H8_2 H 0.7451 0.8417 0.0039
H12_2 H 0.9036 0.9608 0.0069
C16_2 C 0.818(2) 0.692(2) 0.0732(8)
H19_2 H 0.8102 0.7202 0.0659
H20_2 H 0.7896 0.6706 0.0740
H21_2 H 0.8265 0.7050 0.0842
C17_2 C 0.8610(16) 0.665(2) 0.0663(6)
C18_2 C 0.8777(13) 0.6215(13) 0.0736(4)
C19_2 C 0.9172(11) 0.6067(12) 0.0639(4)
C20_2 C 0.9492(15) 0.5634(18) 0.0677(7)
H22_2 H 0.9742 0.5599 0.0590
H23_2 H 0.9654 0.5684 0.0784
H24_2 H 0.9290 0.5335 0.0681
C28_2 C 0.8550(11) 0.8478(12) 0.0028(4)
C29_2 C 0.8433(14) 0.8199(14) 0.0166(4)
C30_2 C 0.8055(16) 0.8287(14) 0.0297(5)
H34_2 H 0.8074 0.8026 0.0380
H35_2 H 0.8116 0.8606 0.0349
H36_2 H 0.7726 0.8287 0.0247
C46_2 C 0.6853(13) 0.6900(16) 0.1998(5)
H55_2 H 0.6837 0.7103 0.2098
H56_2 H 0.7177 0.6940 0.1946
H57_2 H 0.6804 0.6554 0.2027
C47_2 C 0.6461(11) 0.7058(11) 0.1880(3)
C48_2 C 0.6333(13) 0.6833(13) 0.1732(4)
C49_2 C 0.5924(15) 0.7088(15) 0.1674(4)
C50_2 C 0.5680(16) 0.7069(17) 0.1509(4)
H58_2 H 0.5414 0.7313 0.1505
H59_2 H 0.5543 0.6740 0.1491
H60_2 H 0.5922 0.7142 0.1423
C51_2 C 0.575(3) 0.326(3) 0.0998(9)
H61_2 H 0.5553 0.2959 0.0998
H62_2 H 0.5758 0.3403 0.1108
H63_2 H 0.6092 0.3174 0.0965
C52_2 C 0.5544(12) 0.3618(10) 0.0877(4)
C53_2 C 0.5724(11) 0.4092(11) 0.0855(4)
C54_2 C 0.5558(15) 0.4224(14) 0.0699(4)
C55_2 C 0.565(4) 0.464(3) 0.0584(11)
H64_2 H 0.5436 0.4609 0.0487
H65_2 H 0.5994 0.4641 0.0549
H66_2 H 0.5576 0.4954 0.0640
C61_2 C 0.5584(14) 0.4570(19) 0.1190(7)
H73_2 H 0.5639 0.4734 0.1296
H74_2 H 0.5440 0.4245 0.1209
H75_2 H 0.5360 0.4768 0.1123
C62_2 C 0.6064(11) 0.4514(11) 0.1102(3)
C63_2 C 0.6141(8) 0.4305(10) 0.0948(3)
C64_2 C 0.6644(8) 0.4332(11) 0.0918(3)
C65_2 C 0.682(4) 0.410(2) 0.0760(6)
H76_2 H 0.7180 0.4130 0.0754
H77_2 H 0.6673 0.4277 0.0666
H78_2 H 0.6724 0.3757 0.0758
C66_2 C 0.8385(17) 0.5103(15) 0.0752(5)
H79_2 H 0.8167 0.4828 0.0780
H80_2 H 0.8725 0.4984 0.0744
H81_2 H 0.8285 0.5240 0.0645
C67_2 C 0.8351(11) 0.5492(11) 0.0881(3)
C68_2 C 0.8579(14) 0.5950(11) 0.0881(4)
C69_2 C 0.8415(11) 0.6141(10) 0.1030(3)
C70_2 C 0.8541(16) 0.6642(11) 0.1094(6)
H82_2 H 0.8368 0.6700 0.1198
H83_2 H 0.8442 0.6890 0.1012
H84_2 H 0.8897 0.6663 0.1112
C71_2 C 0.7494(15) 0.6784(15) 0.1593(6)
H85_2 H 0.7786 0.6645 0.1540
H86_2 H 0.7580 0.6896 0.1705
H87_2 H 0.7372 0.7063 0.1529
C72_2 C 0.7103(10) 0.6399(14) 0.1604(6)
C73_2 C 0.6606(10) 0.6450(9) 0.1641(4)
C74_2 C 0.6422(10) 0.5999(9) 0.1590(4)
C75_2 C 0.5934(12) 0.5756(18) 0.1613(6)
H88_2 H 0.5935 0.5434 0.1559
H89_2 H 0.5675 0.5962 0.1565
H90_2 H 0.5871 0.5713 0.1732
Ag21_2 Ag 0.96826(13) 0.63690(13) 0.03176(4)
Ag22_2 Ag 0.95991(14) 0.73050(13) 0.00333(5)
Ag23_2 Ag 0.61067(12) 0.79290(13) 0.20948(4)
Ag25_2 Ag 0.47295(12) 0.39024(14) 0.04506(4)
Ag2_2 Ag 0.72192(13) 0.94892(14) 0.96627(4)
Ag3_2 Ag 0.32559(13) 0.97723(14) 0.78133(4)
Ag5_2 Ag 0.46826(13) 0.36310(13) 0.71824(4)
Ag6_2 Ag 0.45991(14) 0.26950(13) 0.74667(5)
Ag7_2 Ag 0.74240(12) 0.47231(12) 0.77539(4)
Ag8_2 Ag 0.66611(12) 0.48399(12) 0.80749(4)
Ag9_2 Ag 0.77074(12) 0.55892(12) 0.80431(4)
Ag10_2 Ag 0.88933(12) 0.70710(13) 0.70948(4)
Ag12_2 Ag 0.97295(12) 0.60976(14) 0.70494(4)
Ag16_2 Ag 0.51906(12) 0.85939(12) 0.87062(4)
Ag17_2 Ag 0.52414(13) 0.76325(13) 0.84473(4)
Ag18_2 Ag 0.60368(13) 0.76940(12) 0.87825(4)
N1_2 N 0.6831(16) 0.9773(14) 0.9331(3)
N2_2 N 0.6752(11) 0.9489(11) 0.9469(3)
N3_2 N 0.7793(12) 0.9353(10) 0.9828(4)
N4_2 N 0.8182(10) 0.9678(11) 0.9841(5)
N5_2 N 0.3377(14) 0.9284(16) 0.7994(5)
N6_2 N 0.3094(16) 0.9265(18) 0.8135(5)
N9_2 N 0.5137(9) 0.3644(10) 0.7391(3)
N10_2 N 0.5081(10) 0.3230(11) 0.7487(4)
N13_2 N 0.6788(11) 0.4340(10) 0.7762(3)
N14_2 N 0.6455(13) 0.4377(10) 0.7890(4)
N15_2 N 0.6748(11) 0.5395(11) 0.8230(3)
N16_2 N 0.7146(10) 0.5711(13) 0.8227(4)
N17_2 N 0.8133(10) 0.5545(11) 0.7840(4)
N18_2 N 0.8022(12) 0.5195(13) 0.7723(3)
N23_2 N 0.9235(10) 0.6098(9) 0.7245(3)
N24_2 N 0.8962(12) 0.6518(11) 0.7274(4)
N31_2 N 0.4718(10) 0.8561(10) 0.8515(3)
N32_2 N 0.4741(12) 0.8189(12) 0.8399(4)
N33_2 N 0.5782(11) 0.7120(12) 0.8483(4)
N34_2 N 0.6119(15) 0.7187(14) 0.8609(5)
N35_2 N 0.5981(12) 0.8308(12) 0.8943(4)
N36_2 N 0.5659(11) 0.8670(13) 0.8893(4)
C1_2 C 0.669(2) 0.9937(17) 0.9033(5)
H3_2 H 0.6789 0.9740 0.8937
C2_2 C 0.6683(12) 0.9617(11) 0.9183(3)
C3_2 C 0.6391(12) 0.9227(11) 0.9235(3)
C4_2 C 0.6460(14) 0.9148(12) 0.9403(3)
C5_2 C 0.636(3) 0.8685(17) 0.9497(8)
H4_2 H 0.6475 0.8726 0.9611
H5_2 H 0.6542 0.8412 0.9445
H6_2 H 0.6010 0.8615 0.9496
C6_2 C 0.7494(14) 0.8502(12) 0.9923(5)
H7_2 H 0.7175 0.8593 0.9875
H9_2 H 0.7628 0.8218 0.9863
C7_2 C 0.7842(9) 0.8926(10) 0.9908(4)
C8_2 C 0.8326(9) 0.8934(9) 0.9963(4)
C9_2 C 0.8518(9) 0.9374(9) 0.9904(4)
C10_2 C 0.9010(10) 0.9582(13) 0.9949(4)
H10_2 H 0.9047 0.9908 0.9899
H11_2 H 0.9270 0.9364 0.9907
C11_2 C 0.4213(13) 0.9054(16) 0.7928(5)
H13_2 H 0.4117 0.9213 0.7824
H14_2 H 0.4307 0.8712 0.7906
H15_2 H 0.4492 0.9230 0.7977
C12_2 C 0.3789(13) 0.9063(18) 0.8046(4)
C13_2 C 0.3757(12) 0.8878(17) 0.8205(4)
C14_2 C 0.3297(14) 0.9025(18) 0.8262(5)
C15_2 C 0.308(2) 0.889(2) 0.8424(5)
H16_2 H 0.2751 0.9043 0.8435
H17_2 H 0.3289 0.9004 0.8514
H18_2 H 0.3040 0.8531 0.8431
C21_2 C 0.5529(13) 0.4379(16) 0.7343(5)
H25_2 H 0.5277 0.4369 0.7257
H26_2 H 0.5504 0.4690 0.7404
H27_2 H 0.5856 0.4353 0.7293
C22_2 C 0.5453(11) 0.3959(11) 0.7460(4)
C23_2 C 0.5687(11) 0.3731(11) 0.7592(4)
C24_2 C 0.5419(13) 0.3298(15) 0.7605(5)
C25_2 C 0.553(2) 0.296(2) 0.7746(6)
H28_2 H 0.5309 0.2674 0.7741
H29_2 H 0.5871 0.2849 0.7739
H30_2 H 0.5478 0.3135 0.7850
C26_2 C 0.923(2) 0.8350(18) 0.9819(4)
H31_2 H 0.9506 0.8117 0.9805
H32_2 H 0.8990 0.8295 0.9730
H33_2 H 0.9351 0.8685 0.9816
C27_2 C 0.8988(13) 0.8252(11) 0.9982(4)
C31_2 C 0.675(3) 0.388(3) 0.7489(7)
H37_2 H 0.7093 0.3984 0.7474
H38_2 H 0.6743 0.3517 0.7502
H39_2 H 0.6556 0.3971 0.7393
C32_2 C 0.6543(14) 0.4113(11) 0.7640(4)
C33_2 C 0.6065(17) 0.3996(11) 0.7688(4)
C34_2 C 0.6038(13) 0.4143(11) 0.7852(3)
C35_2 C 0.5574(19) 0.4150(13) 0.7951(6)
H40_2 H 0.5636 0.4307 0.8058
H41_2 H 0.5321 0.4336 0.7891
H42_2 H 0.5460 0.3812 0.7968
C36_2 C 0.5945(15) 0.5450(12) 0.8333(5)
H43_2 H 0.5947 0.5125 0.8281
H44_2 H 0.5887 0.5414 0.8452
H45_2 H 0.5683 0.5651 0.8284
C37_2 C 0.6430(11) 0.5696(12) 0.8305(4)
C38_2 C 0.6603(11) 0.6153(11) 0.8355(5)
C39_2 C 0.7086(10) 0.6149(10) 0.8298(4)
C40_2 C 0.7480(11) 0.6533(11) 0.8299(4)
H46_2 H 0.7773 0.6406 0.8242
H47_2 H 0.7361 0.6827 0.8241
H48_2 H 0.7564 0.6618 0.8413
C41_2 C 0.8580(13) 0.634(2) 0.7840(7)
H49_2 H 0.8448 0.6354 0.7952
H50_2 H 0.8940 0.6356 0.7844
H51_2 H 0.8451 0.6611 0.7774
C42_2 C 0.8430(10) 0.5860(12) 0.7762(3)
C43_2 C 0.8543(10) 0.5708(12) 0.7603(3)
C44_2 C 0.8247(12) 0.5297(13) 0.7580(4)
C45_2 C 0.8190(18) 0.493(2) 0.7443(6)
H52_2 H 0.7952 0.4679 0.7476
H53_2 H 0.8061 0.5104 0.7345
H54_2 H 0.8504 0.4783 0.7418
C56_2 C 0.9341(13) 0.5268(9) 0.7357(5)
H67_2 H 0.9593 0.5252 0.7270
H68_2 H 0.9074 0.5038 0.7330
H69_2 H 0.9488 0.5177 0.7463
C57_2 C 0.9140(11) 0.5779(9) 0.7367(3)
C58_2 C 0.8767(11) 0.5976(10) 0.7464(3)
C59_2 C 0.8663(18) 0.6441(12) 0.7402(5)
C60_2 C 0.8319(14) 0.6831(13) 0.7462(5)
H70_2 H 0.8350 0.7124 0.7392
H71_2 H 0.8400 0.6916 0.7576
H72_2 H 0.7980 0.6709 0.7457
C76_2 C 0.4230(16) 0.927(2) 0.8564(6)
H91_2 H 0.4448 0.9278 0.8660
H92_2 H 0.4286 0.9565 0.8496
H93_2 H 0.3886 0.9267 0.8601
C77_2 C 0.4331(17) 0.8822(16) 0.8463(5)
C78_2 C 0.4135(11) 0.8662(13) 0.8314(4)
C79_2 C 0.4365(11) 0.8210(12) 0.8294(4)
C80_2 C 0.4350(14) 0.7881(16) 0.8146(4)
H94_2 H 0.4578 0.7605 0.8162
H95_2 H 0.4015 0.7753 0.8131
H96_2 H 0.4447 0.8067 0.8048
C81_2 C 0.567(2) 0.667(2) 0.8218(4)
H97_2 H 0.5374 0.6867 0.8208
H98_2 H 0.5904 0.6756 0.8130
H99_2 H 0.5585 0.6317 0.8207
C82_2 C 0.5906(11) 0.6752(10) 0.8382(3)
C83_2 C 0.6340(10) 0.6550(9) 0.8442(3)
C84_2 C 0.6428(13) 0.6811(13) 0.8587(3)
C85_2 C 0.684(2) 0.6730(17) 0.8707(6)
H100_2 H 0.6804 0.6959 0.8800
H101_2 H 0.6831 0.6392 0.8747
H102_2 H 0.7155 0.6793 0.8651
C86_2 C 0.6652(15) 0.8104(14) 0.9137(5)
H103_2 H 0.6613 0.7776 0.9089
H104_2 H 0.6976 0.8237 0.9108
H105_2 H 0.6624 0.8082 0.9258
C87_2 C 0.6259(10) 0.8438(15) 0.9072(5)
C88_2 C 0.6168(10) 0.8934(11) 0.9101(3)
C89_2 C 0.5783(11) 0.9038(11) 0.8994(4)
C90_2 C 0.5550(14) 0.954(2) 0.9000(8)
H106_2 H 0.5289 0.9556 0.8917
H107_2 H 0.5410 0.9591 0.9110
H108_2 H 0.5800 0.9788 0.8977
Ag19_2 Ag 0.24410(12) 0.96837(14) 0.81377(4)
N39_2 N 0.4212(12) 0.3599(13) 0.6981(4)
N40_2 N 0.4108(13) 0.2153(15) 0.7434(5)
N41_2 N 0.8851(11) 0.7579(11) 0.6919(4)
N9_3 N 0.0137(9) 0.6356(10) 0.0109(3)
N10_3 N 0.0081(10) 0.6770(11) 0.0013(4)
N23_3 N 0.4235(10) 0.3902(9) 0.0255(3)
N24_3 N 0.3962(12) 0.3482(11) 0.0226(4)
C21_3 C 0.0529(13) 0.5621(16) 0.0157(5)
H25_3 H 0.0277 0.5631 0.0243
H26_3 H 0.0504 0.5310 0.0096
H27_3 H 0.0856 0.5647 0.0207
C22_3 C 0.0453(11) 0.6041(11) 0.0040(4)
C31_3 C 0.175(3) 0.612(3) 0.0011(7)
H37_3 H 0.2093 0.6016 0.0026
H39_3 H 0.1556 0.6029 0.0107
C45_3 C 0.3190(18) 0.507(2) 0.0057(6)
H52_3 H 0.2952 0.5321 0.0024
H53_3 H 0.3061 0.4896 0.0155
H54_3 H 0.3504 0.5217 0.0082
C56_3 C 0.4341(13) 0.4732(9) 0.0143(5)
H67_3 H 0.4593 0.4748 0.0230
H68_3 H 0.4074 0.4962 0.0170
H69_3 H 0.4488 0.4823 0.0037
C57_3 C 0.4140(11) 0.4221(9) 0.0133(3)
C58_3 C 0.3767(11) 0.4024(10) 0.0036(3)
C59_3 C 0.3663(18) 0.3559(12) 0.0098(5)
C60_3 C 0.3319(14) 0.3169(13) 0.0038(5)
H70_3 H 0.3350 0.2876 0.0108
H72_3 H 0.2980 0.3291 0.0043
Ag2_3 Ag 0.22192(13) 0.05108(14) 0.78373(4)
Ag4_3 Ag 0.38105(14) 0.27175(14) 0.71395(5)
Ag7_3 Ag 0.24240(12) 0.52769(12) 0.97461(4)
Ag8_3 Ag 0.16611(12) 0.51601(12) 0.94251(4)
Ag9_3 Ag 0.27074(12) 0.44108(12) 0.94569(4)
Ag11_2 Ag 0.03269(12) 0.20037(13) 0.57322(4)
Ag13_3 Ag 0.16887(12) 0.48336(14) 0.61543(4)
Ag14_3 Ag 0.25174(12) 0.50586(13) 0.64500(4)
Ag15_3 Ag 0.27275(12) 0.41043(15) 0.61752(4)
Ag16_3 Ag 0.01906(12) 0.14061(12) 0.87938(4)
Ag17_3 Ag 0.02414(13) 0.23675(13) 0.90527(4)
Ag18_3 Ag 0.10368(13) 0.23060(12) 0.87175(4)
N1_3 N 0.1831(16) 0.0227(14) 0.8169(3)
N2_3 N 0.1752(11) 0.0511(11) 0.8031(3)
N3_3 N 0.2793(12) 0.0647(10) 0.7672(4)
N7_3 N 0.3847(15) 0.3246(14) 0.6976(5)
N12_3 N 0.3746(15) 0.2175(15) 0.7315(5)
N13_3 N 0.1788(11) 0.5660(10) 0.9738(3)
N14_3 N 0.1455(13) 0.5623(10) 0.9610(4)
N15_3 N 0.1748(11) 0.4605(11) 0.9270(3)
N16_3 N 0.2146(10) 0.4289(13) 0.9273(4)
N17_3 N 0.3133(10) 0.4455(11) 0.9660(4)
N18_3 N 0.3022(12) 0.4805(13) 0.9777(3)
N20_3 N 0.0830(13) 0.2563(13) 0.5714(4)
N21_2 N 0.0191(11) 0.6437(11) 0.6735(3)
N25_3 N 0.1493(9) 0.5326(10) 0.6338(3)
N26_3 N 0.1848(10) 0.5443(9) 0.6453(3)
N27_3 N 0.3148(8) 0.4585(8) 0.6471(2)
N28_3 N 0.3181(9) 0.4175(8) 0.6371(3)
N29_3 N 0.2182(10) 0.3974(11) 0.6000(4)
N30_3 N 0.1764(9) 0.4261(11) 0.5990(4)
N33_3 N 0.0782(11) 0.2880(12) 0.9017(4)
N34_3 N 0.1119(15) 0.2813(14) 0.8891(5)
N35_3 N 0.0981(12) 0.1692(12) 0.8557(4)
N36_3 N 0.0659(11) 0.1330(13) 0.8607(4)
C1_3 C 0.169(2) 0.0063(17) 0.8467(5)
H3_3 H 0.1789 0.0260 0.8563
C2_3 C 0.1683(12) 0.0383(11) 0.8317(3)
C3_3 C 0.1391(12) 0.0773(11) 0.8265(3)
C4_3 C 0.1460(14) 0.0852(12) 0.8097(3)
C5_3 C 0.136(3) 0.1315(17) 0.8003(8)
H4_3 H 0.1475 0.1274 0.7889
H5_3 H 0.1542 0.1588 0.8055
H6_3 H 0.1010 0.1385 0.8004
C6_3 C 0.2494(14) 0.1498(12) 0.7577(5)
H7_3 H 0.2175 0.1407 0.7625
H8_3 H 0.2451 0.1583 0.7461
H9_3 H 0.2628 0.1782 0.7637
C7_3 C 0.2842(9) 0.1074(10) 0.7592(4)
C8_3 C 0.3326(9) 0.1066(9) 0.7537(4)
C9_3 C 0.3518(9) 0.0626(9) 0.7596(4)
C10_3 C 0.4010(10) 0.0418(13) 0.7551(4)
H10_3 H 0.4047 0.0092 0.7601
H11_3 H 0.4270 0.0636 0.7593
H12_3 H 0.4036 0.0392 0.7431
C16_3 C 0.318(2) 0.308(2) 0.6768(8)
H19_3 H 0.3102 0.2798 0.6841
H20_3 H 0.2896 0.3294 0.6760
H21_3 H 0.3265 0.2950 0.6658
C17_3 C 0.3610(16) 0.335(2) 0.6837(6)
C18_3 C 0.3777(13) 0.3785(13) 0.6764(4)
C19_3 C 0.4172(11) 0.3933(12) 0.6861(4)
C20_3 C 0.4492(15) 0.4366(18) 0.6823(7)
H22_3 H 0.4742 0.4401 0.6910
H23_3 H 0.4654 0.4316 0.6716
H24_3 H 0.4290 0.4665 0.6819
C23_3 C 0.0687(11) 0.6269(11) 0.9908(4)
C24_3 C 0.0419(13) 0.6702(15) 0.9895(5)
C25_3 C 0.053(2) 0.704(2) 0.9754(6)
H28_3 H 0.0309 0.7326 0.9759
H29_3 H 0.0871 0.7151 0.9761
H30_3 H 0.0478 0.6865 0.9650
C26_3 C 0.423(2) 0.1650(18) 0.7681(4)
H31_3 H 0.4506 0.1883 0.7695
H32_3 H 0.3990 0.1705 0.7770
H33_3 H 0.4351 0.1315 0.7684
C27_3 C 0.3988(13) 0.1748(11) 0.7518(4)
C28_3 C 0.3550(11) 0.1522(12) 0.7472(4)
C29_3 C 0.3433(14) 0.1801(14) 0.7334(4)
C30_3 C 0.3055(16) 0.1713(14) 0.7203(5)
H34_3 H 0.3074 0.1974 0.7120
H35_3 H 0.3116 0.1394 0.7151
H36_3 H 0.2726 0.1713 0.7253
H38_3 H 0.1743 0.6483 0.9998
C32_3 C 0.1543(14) 0.5887(11) 0.9860(4)
C33_3 C 0.1065(17) 0.6004(11) 0.9812(4)
C34_3 C 0.1038(13) 0.5857(11) 0.9648(3)
C35_3 C 0.0574(19) 0.5850(13) 0.9549(6)
H40_3 H 0.0636 0.5693 0.9442
H41_3 H 0.0321 0.5664 0.9609
H42_3 H 0.0460 0.6188 0.9532
C36_3 C 0.0945(15) 0.4550(12) 0.9167(5)
H43_3 H 0.0947 0.4875 0.9219
H44_3 H 0.0887 0.4586 0.9048
H45_3 H 0.0683 0.4349 0.9216
C37_3 C 0.1430(11) 0.4304(12) 0.9195(4)
C38_3 C 0.1603(11) 0.3847(11) 0.9145(5)
C39_3 C 0.2086(10) 0.3851(10) 0.9202(4)
C40_3 C 0.2480(11) 0.3467(11) 0.9201(4)
H46_3 H 0.2773 0.3594 0.9258
H47_3 H 0.2361 0.3173 0.9259
H48_3 H 0.2564 0.3382 0.9087
C41_3 C 0.3580(13) 0.366(2) 0.9660(7)
H49_3 H 0.3448 0.3646 0.9548
H50_3 H 0.3940 0.3644 0.9656
H51_3 H 0.3451 0.3389 0.9726
C42_3 C 0.3430(10) 0.4140(12) 0.9738(3)
C43_3 C 0.3543(10) 0.4292(12) 0.9897(3)
C44_3 C 0.3247(12) 0.4703(13) 0.9920(4)
C46_3 C 0.1853(13) 0.3100(16) 0.5502(5)
H55_3 H 0.1837 0.2897 0.5402
H56_3 H 0.2177 0.3060 0.5554
H57_3 H 0.1804 0.3446 0.5473
C47_3 C 0.1461(11) 0.2942(11) 0.5620(3)
C48_3 C 0.1333(13) 0.3167(13) 0.5768(4)
C49_3 C 0.0924(15) 0.2912(15) 0.5826(4)
C50_3 C 0.0680(16) 0.2931(17) 0.5991(4)
H58_3 H 0.0414 0.2687 0.5995
H59_3 H 0.0543 0.3260 0.6009
H60_3 H 0.0922 0.2858 0.6077
C51_3 C 0.075(3) 0.674(3) 0.6502(9)
H61_3 H 0.0553 0.7041 0.6502
H62_3 H 0.0758 0.6597 0.6392
H63_3 H 0.1092 0.6826 0.6535
C52_3 C 0.0544(12) 0.6382(10) 0.6623(4)
C53_3 C 0.0724(11) 0.5908(11) 0.6645(4)
C54_3 C 0.0558(15) 0.5776(14) 0.6801(4)
C55_3 C 0.065(4) 0.536(3) 0.6916(11)
H64_3 H 0.0436 0.5391 0.7013
H65_3 H 0.0994 0.5359 0.6951
H66_3 H 0.0576 0.5046 0.6860
H71_3 H 0.3400 0.3084 0.9924
C61_3 C 0.0584(14) 0.5430(19) 0.6310(7)
H73_3 H 0.0639 0.5266 0.6204
H74_3 H 0.0440 0.5755 0.6291
H75_3 H 0.0360 0.5232 0.6377
C62_3 C 0.1064(11) 0.5486(11) 0.6398(3)
C63_3 C 0.1141(8) 0.5695(10) 0.6552(3)
C64_3 C 0.1644(8) 0.5668(11) 0.6582(3)
C65_3 C 0.182(4) 0.590(2) 0.6740(6)
H76_3 H 0.2180 0.5870 0.6746
H77_3 H 0.1673 0.5723 0.6834
H78_3 H 0.1724 0.6243 0.6742
C66_3 C 0.3385(17) 0.4897(15) 0.6748(5)
H79_3 H 0.3167 0.5172 0.6720
H80_3 H 0.3725 0.5016 0.6756
H81_3 H 0.3285 0.4760 0.6855
C67_3 C 0.3351(11) 0.4508(11) 0.6619(3)
C68_3 C 0.3579(14) 0.4050(11) 0.6619(4)
C69_3 C 0.3415(11) 0.3859(10) 0.6470(3)
C70_3 C 0.3541(16) 0.3358(11) 0.6406(6)
H82_3 H 0.3368 0.3300 0.6302
H83_3 H 0.3442 0.3110 0.6488
H84_3 H 0.3897 0.3337 0.6388
C71_3 C 0.2494(15) 0.3216(15) 0.5907(6)
H85_3 H 0.2786 0.3355 0.5960
H86_3 H 0.2580 0.3104 0.5795
H87_3 H 0.2372 0.2937 0.5971
C72_3 C 0.2103(10) 0.3601(14) 0.5896(6)
C73_3 C 0.1606(10) 0.3550(9) 0.5859(4)
C74_3 C 0.1422(10) 0.4001(9) 0.5910(4)
C75_3 C 0.0934(12) 0.4244(18) 0.5887(6)
H88_3 H 0.0935 0.4566 0.5941
H89_3 H 0.0675 0.4038 0.5935
H90_3 H 0.0871 0.4287 0.5768
C81_3 C 0.067(2) 0.333(2) 0.9282(4)
H97_3 H 0.0374 0.3133 0.9292
H98_3 H 0.0904 0.3244 0.9370
H99_3 H 0.0585 0.3683 0.9293
C82_3 C 0.0906(11) 0.3248(10) 0.9118(3)
C83_3 C 0.1340(10) 0.3450(9) 0.9058(3)
C84_3 C 0.1428(13) 0.3189(13) 0.8913(3)
C85_3 C 0.184(2) 0.3270(17) 0.8793(6)
H100_3 H 0.1804 0.3041 0.8700
H101_3 H 0.1831 0.3608 0.8753
H102_3 H 0.2155 0.3207 0.8849
C86_3 C 0.1652(15) 0.1896(14) 0.8363(5)
H103_3 H 0.1613 0.2224 0.8411
H104_3 H 0.1976 0.1763 0.8392
H105_3 H 0.1624 0.1918 0.8242
C87_3 C 0.1259(10) 0.1562(15) 0.8428(5)
C88_3 C 0.1168(10) 0.1066(11) 0.8399(3)
C89_3 C 0.0783(11) 0.0962(11) 0.8506(4)
C90_3 C 0.0550(14) 0.046(2) 0.8500(8)
H106_3 H 0.0289 0.0444 0.8583
H107_3 H 0.0410 0.0409 0.8390
H108_3 H 0.0800 0.0212 0.8523
H1_3 H 0.1926 0.9795 0.8451
H2_3 H 0.1362 0.9926 0.8486
N5_3 N 0.8377(14) 0.0716(16) 0.9506(5)
N31_3 N 0.9718(10) 0.1439(10) 0.8985(3)
N32_3 N 0.9741(12) 0.1811(12) 0.9101(4)
C11_3 C 0.9213(13) 0.0946(16) 0.9572(5)
H13_3 H 0.9117 0.0787 0.9676
H14_3 H 0.9307 0.1288 0.9594
H15_3 H 0.9492 0.0770 0.9523
C12_3 C 0.8789(13) 0.0937(18) 0.9454(4)
C13_3 C 0.8757(12) 0.1122(17) 0.9295(4)
C14_3 C 0.8297(14) 0.0975(18) 0.9238(5)
C15_3 C 0.808(2) 0.111(2) 0.9076(5)
H16_3 H 0.7751 0.0957 0.9065
H17_3 H 0.8289 0.0996 0.8986
H18_3 H 0.8040 0.1469 0.9069
C76_3 C 0.9230(16) 0.073(2) 0.8936(6)
H91_3 H 0.9448 0.0722 0.8840
H92_3 H 0.9286 0.0435 0.9004
H93_3 H 0.8886 0.0733 0.8899
C77_3 C 0.9331(17) 0.1178(16) 0.9037(5)
C78_3 C 0.9135(11) 0.1338(13) 0.9186(4)
C79_3 C 0.9365(11) 0.1790(12) 0.9206(4)
C80_3 C 0.9350(14) 0.2119(16) 0.9354(4)
H94_3 H 0.9578 0.2395 0.9338
H95_3 H 0.9015 0.2247 0.9369
H96_3 H 0.9447 0.1933 0.9452
Ag24_2 Ag 0.96731(12) 0.70037(13) 0.67678(4)
N42_2 N 0.9809(11) 0.1437(11) 0.5765(3)
N5_4 N 0.1623(14) 0.5716(16) 0.2994(5)
N31_4 N 0.0282(10) 0.6439(10) 0.3515(3)
N32_4 N 0.0259(12) 0.6811(12) 0.3399(4)
C11_4 C 0.0787(13) 0.5946(16) 0.2928(5)
H13_4 H 0.0883 0.5787 0.2824
H14_4 H 0.0693 0.6288 0.2906
H15_4 H 0.0508 0.5770 0.2977
C12_4 C 0.1211(13) 0.5937(18) 0.3046(4)
C13_4 C 0.1243(12) 0.6122(17) 0.3205(4)
C14_4 C 0.1703(14) 0.5975(18) 0.3262(5)
C15_4 C 0.192(2) 0.611(2) 0.3424(5)
H16_4 H 0.2249 0.5957 0.3435
H17_4 H 0.1711 0.5996 0.3514
H18_4 H 0.1960 0.6469 0.3431
C76_4 C 0.0770(16) 0.573(2) 0.3564(6)
H91_4 H 0.0552 0.5722 0.3660
H92_4 H 0.0714 0.5435 0.3496
H93_4 H 0.1114 0.5733 0.3601
C77_4 C 0.0669(17) 0.6178(16) 0.3463(5)
C78_4 C 0.0865(11) 0.6338(13) 0.3314(4)
C79_4 C 0.0635(11) 0.6790(12) 0.3294(4)
C80_4 C 0.0650(14) 0.7119(16) 0.3146(4)
H94_4 H 0.0422 0.7395 0.3162
H95_4 H 0.0985 0.7247 0.3131
H96_4 H 0.0553 0.6933 0.3048
Ag7_4 Ag 0.75760(12) 0.02769(12) 0.27539(4)
Ag8_4 Ag 0.83389(12) 0.01601(12) 0.30749(4)
Ag14_4 Ag 0.74826(12) 0.00586(13) 0.60500(4)
N9_4 N 0.9863(9) 0.1356(10) 0.2391(3)
N10_4 N 0.9919(10) 0.1770(11) 0.2487(4)
N13_4 N 0.8212(11) 0.0660(10) 0.2762(3)
N14_4 N 0.8545(13) 0.0623(10) 0.2890(4)
N25_4 N 0.8507(9) 0.0326(10) 0.6162(3)
N26_4 N 0.8152(10) 0.0443(9) 0.6047(3)
C21_4 C 0.9471(13) 0.0621(16) 0.2343(5)
H25_4 H 0.9723 0.0631 0.2257
H26_4 H 0.9496 0.0310 0.2404
H27_4 H 0.9144 0.0647 0.2293
C22_4 C 0.9547(11) 0.1041(11) 0.2460(4)
C23_4 C 0.9313(11) 0.1269(11) 0.2592(4)
C24_4 C 0.9581(13) 0.1702(15) 0.2605(5)
C25_4 C 0.947(2) 0.204(2) 0.2746(6)
H28_4 H 0.9691 0.2326 0.2741
H29_4 H 0.9129 0.2151 0.2739
H30_4 H 0.9522 0.1865 0.2850
C31_4 C 0.825(3) 0.112(3) 0.2489(7)
H37_4 H 0.7907 0.1016 0.2474
H38_4 H 0.8257 0.1483 0.2502
H39_4 H 0.8444 0.1029 0.2393
C32_4 C 0.8457(14) 0.0887(11) 0.2640(4)
C33_4 C 0.8935(17) 0.1004(11) 0.2688(4)
C34_4 C 0.8962(13) 0.0857(11) 0.2852(3)
C35_4 C 0.9426(19) 0.0850(13) 0.2951(6)
H40_4 H 0.9364 0.0693 0.3058
H41_4 H 0.9679 0.0664 0.2891
H42_4 H 0.9540 0.1188 0.2968
C45_4 C 0.6810(18) 0.007(2) 0.2443(6)
H52_4 H 0.7048 0.0321 0.2476
H54_4 H 0.6496 0.0217 0.2418
C51_4 C 0.925(3) 0.174(3) 0.5998(9)
H61_4 H 0.9447 0.2041 0.5998
H62_4 H 0.9242 0.1597 0.6108
H63_4 H 0.8908 0.1826 0.5965
C52_4 C 0.9456(12) 0.1382(10) 0.5877(4)
C53_4 C 0.9276(11) 0.0908(11) 0.5855(4)
C54_4 C 0.9442(15) 0.0776(14) 0.5699(4)
C55_4 C 0.935(4) 0.036(3) 0.5584(11)
H64_4 H 0.9564 0.0391 0.5487
H65_4 H 0.9006 0.0359 0.5549
H66_4 H 0.9424 0.0046 0.5640
C61_4 C 0.9416(14) 0.0430(19) 0.6190(7)
H73_4 H 0.9361 0.0266 0.6296
H74_4 H 0.9560 0.0755 0.6209
H75_4 H 0.9640 0.0232 0.6123
C62_4 C 0.8936(11) 0.0486(11) 0.6102(3)
C63_4 C 0.8859(8) 0.0695(10) 0.5948(3)
C64_4 C 0.8356(8) 0.0668(11) 0.5918(3)
C65_4 C 0.818(4) 0.090(2) 0.5760(6)
H76_4 H 0.7820 0.0870 0.5754
H77_4 H 0.8327 0.0723 0.5666
H78_4 H 0.8276 0.1243 0.5758
H79_4 H 0.6833 0.0172 0.5780
H80_4 H 0.6275 0.0016 0.5744
Ag2_4 Ag 0.77808(13) 0.55108(14) 0.46627(4)
Ag4_4 Ag 0.61895(14) 0.77175(14) 0.53605(5)
Ag9_4 Ag 0.72926(12) 0.94108(12) 0.30431(4)
Ag13_4 Ag 0.83113(12) 0.98336(14) 0.63457(4)
Ag15_4 Ag 0.72725(12) 0.91043(15) 0.63248(4)
Ag16_4 Ag 0.98094(12) 0.64061(12) 0.37062(4)
Ag17_4 Ag 0.97586(13) 0.73675(13) 0.34473(4)
Ag18_4 Ag 0.89632(13) 0.73060(12) 0.37825(4)
N1_4 N 0.8169(16) 0.5227(14) 0.4331(3)
N2_4 N 0.8248(11) 0.5511(11) 0.4469(3)
N3_4 N 0.7207(12) 0.5647(10) 0.4828(4)
N7_4 N 0.6153(15) 0.8246(14) 0.5524(5)
N12_4 N 0.6254(15) 0.7175(15) 0.5185(5)
N15_4 N 0.8252(11) 0.9605(11) 0.3230(3)
N16_4 N 0.7854(10) 0.9289(13) 0.3227(4)
N17_4 N 0.6867(10) 0.9455(11) 0.2840(4)
N18_4 N 0.6978(12) 0.9805(13) 0.2723(3)
N20_4 N 0.9170(13) 0.7563(13) 0.6786(4)
N23_4 N 0.5765(10) 0.8902(9) 0.2245(3)
N24_4 N 0.6038(12) 0.8482(11) 0.2274(4)
N27_4 N 0.6852(8) 0.9585(8) 0.6029(2)
N28_4 N 0.6819(9) 0.9175(8) 0.6129(3)
N29_4 N 0.7818(10) 0.8974(11) 0.6500(4)
N30_4 N 0.8236(9) 0.9261(11) 0.6510(4)
N33_4 N 0.9218(11) 0.7880(12) 0.3483(4)
N34_4 N 0.8881(15) 0.7813(14) 0.3609(5)
N35_4 N 0.9019(12) 0.6692(12) 0.3943(4)
N36_4 N 0.9341(11) 0.6330(13) 0.3893(4)
C1_4 C 0.831(2) 0.5063(17) 0.4033(5)
H1_4 H 0.8074 0.4795 0.4049
H2_4 H 0.8638 0.4926 0.4014
H3_4 H 0.8211 0.5260 0.3937
C2_4 C 0.8317(12) 0.5383(11) 0.4183(3)
C3_4 C 0.8609(12) 0.5773(11) 0.4235(3)
C4_4 C 0.8540(14) 0.5852(12) 0.4403(3)
C5_4 C 0.864(3) 0.6315(17) 0.4497(8)
H4_4 H 0.8525 0.6274 0.4611
H5_4 H 0.8458 0.6588 0.4445
H6_4 H 0.8990 0.6385 0.4496
C6_4 C 0.7506(14) 0.6498(12) 0.4923(5)
H7_4 H 0.7825 0.6407 0.4875
H8_4 H 0.7549 0.6583 0.5039
H9_4 H 0.7372 0.6782 0.4863
C7_4 C 0.7158(9) 0.6074(10) 0.4908(4)
C8_4 C 0.6674(9) 0.6066(9) 0.4963(4)
C9_4 C 0.6482(9) 0.5626(9) 0.4904(4)
C10_4 C 0.5990(10) 0.5418(13) 0.4949(4)
H10_4 H 0.5953 0.5092 0.4899
H11_4 H 0.5730 0.5636 0.4907
H12_4 H 0.5964 0.5392 0.5069
C16_4 C 0.682(2) 0.808(2) 0.5732(8)
H19_4 H 0.6898 0.7798 0.5659
H20_4 H 0.7104 0.8294 0.5740
H21_4 H 0.6735 0.7950 0.5842
C17_4 C 0.6390(16) 0.835(2) 0.5663(6)
C18_4 C 0.6223(13) 0.8785(13) 0.5736(4)
C19_4 C 0.5828(11) 0.8933(12) 0.5639(4)
C20_4 C 0.5508(15) 0.9366(18) 0.5677(7)
H22_4 H 0.5258 0.9401 0.5590
H23_4 H 0.5346 0.9316 0.5784
H24_4 H 0.5710 0.9665 0.5681
C26_4 C 0.577(2) 0.6650(18) 0.4819(4)
H31_4 H 0.5494 0.6883 0.4805
H32_4 H 0.6010 0.6705 0.4730
H33_4 H 0.5649 0.6315 0.4816
C27_4 C 0.6012(13) 0.6748(11) 0.4982(4)
C28_4 C 0.6450(11) 0.6522(12) 0.5028(4)
C29_4 C 0.6567(14) 0.6801(14) 0.5166(4)
C30_4 C 0.6945(16) 0.6713(14) 0.5297(5)
H34_4 H 0.6926 0.6974 0.5380
H35_4 H 0.6884 0.6394 0.5349
H36_4 H 0.7274 0.6713 0.5247
C36_4 C 0.9055(15) 0.9550(12) 0.3333(5)
H43_4 H 0.9053 0.9875 0.3281
H44_4 H 0.9113 0.9586 0.3452
H45_4 H 0.9317 0.9349 0.3284
C37_4 C 0.8570(11) 0.9304(12) 0.3305(4)
C38_4 C 0.8397(11) 0.8847(11) 0.3355(5)
C39_4 C 0.7914(10) 0.8851(10) 0.3298(4)
C40_4 C 0.7520(11) 0.8467(11) 0.3299(4)
H46_4 H 0.7227 0.8594 0.3242
H47_4 H 0.7639 0.8173 0.3241
H48_4 H 0.7436 0.8382 0.3413
C41_4 C 0.6420(13) 0.866(2) 0.2840(7)
H49_4 H 0.6552 0.8646 0.2952
H50_4 H 0.6060 0.8644 0.2844
H51_4 H 0.6549 0.8389 0.2774
C42_4 C 0.6570(10) 0.9140(12) 0.2762(3)
C43_4 C 0.6457(10) 0.9292(12) 0.2603(3)
C44_4 C 0.6753(12) 0.9703(13) 0.2580(4)
H53_4 H 0.6939 0.9896 0.2345
C46_4 C 0.8147(13) 0.8100(16) 0.6998(5)
H55_4 H 0.8163 0.7897 0.7098
H56_4 H 0.7823 0.8060 0.6946
H57_4 H 0.8196 0.8446 0.7027
C47_4 C 0.8539(11) 0.7942(11) 0.6880(3)
C48_4 C 0.8667(13) 0.8167(13) 0.6732(4)
C49_4 C 0.9076(15) 0.7912(15) 0.6674(4)
C50_4 C 0.9320(16) 0.7931(17) 0.6509(4)
H58_4 H 0.9586 0.7687 0.6505
H59_4 H 0.9457 0.8260 0.6491
H60_4 H 0.9078 0.7858 0.6423
C56_4 C 0.5659(13) 0.9732(9) 0.2357(5)
H67_4 H 0.5407 0.9748 0.2270
H68_4 H 0.5926 0.9962 0.2330
H69_4 H 0.5512 0.9823 0.2463
C57_4 C 0.5860(11) 0.9221(9) 0.2367(3)
C58_4 C 0.6233(11) 0.9024(10) 0.2464(3)
C59_4 C 0.6337(18) 0.8559(12) 0.2402(5)
C60_4 C 0.6681(14) 0.8169(13) 0.2462(5)
H70_4 H 0.6650 0.7876 0.2392
H71_4 H 0.6600 0.8084 0.2576
H72_4 H 0.7020 0.8291 0.2457
C66_4 C 0.6615(17) 0.9897(15) 0.5752(5)
H81_4 H 0.6715 0.9760 0.5645
C67_4 C 0.6649(11) 0.9508(11) 0.5881(3)
C68_4 C 0.6421(14) 0.9050(11) 0.5881(4)
C69_4 C 0.6585(11) 0.8859(10) 0.6030(3)
C70_4 C 0.6459(16) 0.8358(11) 0.6094(6)
H82_4 H 0.6632 0.8300 0.6198
H83_4 H 0.6558 0.8110 0.6012
H84_4 H 0.6103 0.8337 0.6112
C71_4 C 0.7506(15) 0.8216(15) 0.6593(6)
H85_4 H 0.7214 0.8355 0.6540
H86_4 H 0.7420 0.8104 0.6705
H87_4 H 0.7628 0.7937 0.6529
C72_4 C 0.7897(10) 0.8601(14) 0.6604(6)
C73_4 C 0.8394(10) 0.8550(9) 0.6641(4)
C74_4 C 0.8578(10) 0.9001(9) 0.6590(4)
C75_4 C 0.9066(12) 0.9244(18) 0.6613(6)
H88_4 H 0.9065 0.9566 0.6559
H89_4 H 0.9325 0.9038 0.6565
H90_4 H 0.9129 0.9287 0.6732
C81_4 C 0.933(2) 0.833(2) 0.3218(4)
H97_4 H 0.9626 0.8133 0.3208
H98_4 H 0.9096 0.8244 0.3130
H99_4 H 0.9415 0.8683 0.3207
C82_4 C 0.9094(11) 0.8248(10) 0.3382(3)
C83_4 C 0.8660(10) 0.8450(9) 0.3442(3)
C84_4 C 0.8572(13) 0.8189(13) 0.3587(3)
C85_4 C 0.816(2) 0.8270(17) 0.3707(6)
H100_4 H 0.8196 0.8041 0.3800
H101_4 H 0.8169 0.8608 0.3747
H102_4 H 0.7845 0.8207 0.3651
C86_4 C 0.8348(15) 0.6896(14) 0.4137(5)
H103_4 H 0.8387 0.7224 0.4089
H104_4 H 0.8024 0.6763 0.4108
H105_4 H 0.8376 0.6918 0.4258
C87_4 C 0.8741(10) 0.6562(15) 0.4072(5)
C88_4 C 0.8832(10) 0.6066(11) 0.4101(3)
C89_4 C 0.9217(11) 0.5962(11) 0.3994(4)
C90_4 C 0.9450(14) 0.546(2) 0.4000(8)
H106_4 H 0.9711 0.5444 0.3917
H107_4 H 0.9590 0.5409 0.4110
H108_4 H 0.9200 0.5212 0.3977
N43_3 N 0.1089(10) 0.0221(11) 0.4359(3)
Ag1_3 Ag 0.53163(14) 0.74410(12) 0.68623(4)
Ag2_5 Ag 0.44892(14) 0.72192(13) 0.71627(4)
Ag3_3 Ag 0.47723(14) 0.32559(13) 0.53133(4)
Ag4_5 Ag 0.22825(14) 0.88105(14) 0.78605(5)
Ag9_5 Ag 0.05892(12) 0.77074(12) 0.55431(4)
Ag10_3 Ag 0.20710(13) 0.88933(12) 0.45948(4)
Ag11_3 Ag 0.29963(13) 0.53269(12) 0.92678(4)
Ag12_3 Ag 0.10976(14) 0.97295(12) 0.45494(4)
Ag13_5 Ag 0.01664(14) 0.66887(12) 0.88457(4)
Ag15_5 Ag 0.08957(15) 0.77275(12) 0.88248(4)
Ag16_5 Ag 0.35939(12) 0.51906(12) 0.62062(4)
Ag17_5 Ag 0.26325(13) 0.52414(13) 0.59473(4)
Ag18_5 Ag 0.26940(12) 0.60368(13) 0.62825(4)
N1_5 N 0.4773(14) 0.6831(16) 0.6831(3)
N2_5 N 0.4489(11) 0.6752(11) 0.6969(3)
N3_5 N 0.4353(10) 0.7793(12) 0.7328(4)
N4_3 N 0.4678(11) 0.8182(10) 0.7341(5)
N5_5 N 0.4284(16) 0.3377(14) 0.5494(5)
N6_3 N 0.4265(18) 0.3094(16) 0.5635(5)
N7_5 N 0.1754(14) 0.8847(15) 0.8024(5)
N8_3 N 0.1401(13) 0.9212(12) 0.8019(4)
N11_3 N 0.2847(15) 0.9108(13) 0.7566(5)
N12_5 N 0.2825(15) 0.8746(15) 0.7685(5)
N15_5 N 0.0395(11) 0.6748(11) 0.5730(3)
N16_5 N 0.0711(13) 0.7146(10) 0.5727(4)
N17_5 N 0.0545(11) 0.8133(10) 0.5340(4)
N18_5 N 0.0195(13) 0.8022(12) 0.5223(3)
N19_3 N 0.2421(11) 0.6149(11) 0.9419(4)
N20_5 N 0.2437(13) 0.5830(13) 0.9286(4)
N23_5 N 0.1098(9) 0.9235(10) 0.4745(3)
N24_5 N 0.1518(11) 0.8962(12) 0.4774(4)
N27_5 N 0.0415(8) 0.8148(8) 0.8529(2)
N28_5 N 0.0825(8) 0.8181(9) 0.8629(3)
N29_5 N 0.1026(11) 0.7182(10) 0.9000(4)
N30_5 N 0.0739(11) 0.6764(9) 0.9010(4)
N31_5 N 0.3561(10) 0.4718(10) 0.6015(3)
N32_5 N 0.3189(12) 0.4741(12) 0.5899(4)
N33_5 N 0.2120(12) 0.5782(11) 0.5983(4)
N34_5 N 0.2187(14) 0.6119(15) 0.6109(5)
N35_5 N 0.3308(12) 0.5981(12) 0.6443(4)
N36_5 N 0.3670(13) 0.5659(11) 0.6393(4)
C1_5 C 0.4937(17) 0.669(2) 0.6533(5)
H1_5 H 0.5205 0.6926 0.6549
H2_5 H 0.5074 0.6362 0.6514
H3_5 H 0.4740 0.6789 0.6437
C2_5 C 0.4617(11) 0.6683(12) 0.6683(3)
C3_5 C 0.4227(11) 0.6391(12) 0.6735(3)
C4_5 C 0.4148(12) 0.6460(14) 0.6903(3)
C5_5 C 0.3685(17) 0.636(3) 0.6997(8)
H4_5 H 0.3726 0.6475 0.7111
H5_5 H 0.3412 0.6542 0.6945
H6_5 H 0.3615 0.6010 0.6996
C6_5 C 0.3502(12) 0.7494(14) 0.7423(5)
H7_5 H 0.3593 0.7175 0.7375
H8_5 H 0.3417 0.7451 0.7539
H9_5 H 0.3218 0.7628 0.7363
C7_5 C 0.3926(10) 0.7842(9) 0.7408(4)
C8_5 C 0.3934(9) 0.8326(9) 0.7463(4)
C9_5 C 0.4374(9) 0.8518(9) 0.7404(4)
C10_5 C 0.4582(13) 0.9010(10) 0.7449(4)
H10_5 H 0.4908 0.9047 0.7399
H11_5 H 0.4364 0.9270 0.7407
H12_5 H 0.4608 0.9036 0.7569
C11_5 C 0.4054(16) 0.4213(13) 0.5428(5)
H13_5 H 0.4213 0.4117 0.5324
H14_5 H 0.3712 0.4307 0.5406
H15_5 H 0.4230 0.4492 0.5477
C12_5 C 0.4063(18) 0.3789(13) 0.5546(4)
C13_5 C 0.3878(17) 0.3757(12) 0.5705(4)
C14_5 C 0.4025(18) 0.3297(14) 0.5762(5)
C15_5 C 0.389(2) 0.308(2) 0.5924(5)
H16_5 H 0.4043 0.2751 0.5935
H17_5 H 0.4004 0.3289 0.6014
H18_5 H 0.3531 0.3040 0.5931
C16_5 C 0.192(2) 0.818(2) 0.8232(8)
H19_5 H 0.2202 0.8102 0.8159
H20_5 H 0.1706 0.7896 0.8240
H21_5 H 0.2050 0.8265 0.8342
C17_5 C 0.165(2) 0.8610(16) 0.8163(6)
C18_5 C 0.1215(13) 0.8777(13) 0.8236(4)
C19_5 C 0.1067(12) 0.9172(11) 0.8139(4)
C20_5 C 0.0634(18) 0.9492(15) 0.8177(7)
H22_5 H 0.0599 0.9742 0.8090
H23_5 H 0.0684 0.9654 0.8284
H24_5 H 0.0335 0.9290 0.8181
C26_5 C 0.3350(18) 0.923(2) 0.7319(4)
H31_5 H 0.3117 0.9506 0.7305
H32_5 H 0.3295 0.8990 0.7230
H33_5 H 0.3685 0.9351 0.7316
C27_5 C 0.3252(11) 0.8988(13) 0.7482(4)
C28_5 C 0.3478(12) 0.8550(11) 0.7528(4)
C29_5 C 0.3199(14) 0.8433(14) 0.7666(4)
C30_5 C 0.3287(14) 0.8055(16) 0.7797(5)
H34_5 H 0.3026 0.8074 0.7880
H35_5 H 0.3606 0.8116 0.7849
H36_5 H 0.3287 0.7726 0.7747
C36_5 C 0.0450(12) 0.5945(15) 0.5833(5)
H43_5 H 0.0125 0.5947 0.5781
H44_5 H 0.0414 0.5887 0.5952
H45_5 H 0.0651 0.5683 0.5784
C37_5 C 0.0696(12) 0.6430(11) 0.5805(4)
C38_5 C 0.1153(11) 0.6603(11) 0.5855(5)
C39_5 C 0.1149(10) 0.7086(10) 0.5798(4)
C40_5 C 0.1533(11) 0.7480(11) 0.5799(4)
H46_5 H 0.1406 0.7773 0.5742
H47_5 H 0.1827 0.7361 0.5741
H48_5 H 0.1618 0.7564 0.5913
C41_5 C 0.134(2) 0.8580(13) 0.5340(7)
H49_5 H 0.1354 0.8448 0.5452
H50_5 H 0.1356 0.8940 0.5344
H51_5 H 0.1611 0.8451 0.5274
C42_5 C 0.0860(12) 0.8430(10) 0.5262(3)
C43_5 C 0.0708(12) 0.8543(10) 0.5103(3)
C44_5 C 0.0297(13) 0.8247(12) 0.5080(4)
H53_5 H 0.0104 0.8061 0.4845
C46_5 C 0.1900(16) 0.6853(13) 0.9498(5)
H55_5 H 0.2103 0.6837 0.9598
H56_5 H 0.1940 0.7177 0.9446
H57_5 H 0.1554 0.6804 0.9527
C47_5 C 0.2058(11) 0.6461(11) 0.9380(3)
C48_5 C 0.1833(13) 0.6333(13) 0.9232(4)
C49_5 C 0.2088(15) 0.5924(15) 0.9174(4)
C50_5 C 0.2069(17) 0.5680(16) 0.9009(4)
H58_5 H 0.2313 0.5414 0.9005
H59_5 H 0.1740 0.5543 0.8991
H60_5 H 0.2142 0.5922 0.8923
C56_5 C 0.0268(9) 0.9341(13) 0.4857(5)
H67_5 H 0.0252 0.9593 0.4770
H68_5 H 0.0038 0.9074 0.4830
H69_5 H 0.0177 0.9488 0.4963
C57_5 C 0.0779(9) 0.9140(11) 0.4867(3)
C58_5 C 0.0976(10) 0.8767(11) 0.4964(3)
C59_5 C 0.1441(12) 0.8663(18) 0.4902(5)
C60_5 C 0.1831(13) 0.8319(14) 0.4962(5)
H70_5 H 0.2124 0.8350 0.4892
H71_5 H 0.1916 0.8400 0.5076
H72_5 H 0.1709 0.7980 0.4957
C66_5 C 0.0103(15) 0.8385(17) 0.8252(5)
H81_5 H 0.0240 0.8285 0.8145
C67_5 C 0.0492(11) 0.8351(11) 0.8381(3)
C68_5 C 0.0950(11) 0.8579(14) 0.8381(4)
C69_5 C 0.1141(10) 0.8415(11) 0.8530(3)
C70_5 C 0.1642(11) 0.8541(16) 0.8594(6)
H82_5 H 0.1700 0.8368 0.8698
H83_5 H 0.1890 0.8442 0.8512
H84_5 H 0.1663 0.8897 0.8612
C71_5 C 0.1784(15) 0.7494(15) 0.9093(6)
H85_5 H 0.1645 0.7786 0.9040
H86_5 H 0.1896 0.7580 0.9205
H87_5 H 0.2063 0.7372 0.9029
C72_5 C 0.1399(14) 0.7103(10) 0.9104(6)
C73_5 C 0.1450(9) 0.6606(10) 0.9141(4)
C74_5 C 0.0999(9) 0.6422(10) 0.9090(4)
C75_5 C 0.0756(18) 0.5934(12) 0.9113(6)
H88_5 H 0.0434 0.5935 0.9059
H89_5 H 0.0962 0.5675 0.9065
H90_5 H 0.0713 0.5871 0.9232
C76_5 C 0.427(2) 0.4230(16) 0.6064(6)
H91_5 H 0.4278 0.4448 0.6160
H92_5 H 0.4565 0.4286 0.5996
H93_5 H 0.4267 0.3886 0.6101
C77_5 C 0.3822(16) 0.4331(17) 0.5963(5)
C78_5 C 0.3662(13) 0.4135(11) 0.5814(4)
C79_5 C 0.3210(12) 0.4365(11) 0.5794(4)
C80_5 C 0.2881(16) 0.4350(14) 0.5646(4)
H94_5 H 0.2605 0.4578 0.5662
H95_5 H 0.2753 0.4015 0.5631
H96_5 H 0.3067 0.4447 0.5548
C81_5 C 0.167(2) 0.567(2) 0.5718(4)
H97_5 H 0.1867 0.5374 0.5708
H98_5 H 0.1756 0.5904 0.5630
H99_5 H 0.1317 0.5585 0.5707
C82_5 C 0.1752(10) 0.5906(11) 0.5882(3)
C83_5 C 0.1550(9) 0.6340(10) 0.5942(3)
C84_5 C 0.1811(13) 0.6428(13) 0.6087(3)
C85_5 C 0.1730(17) 0.684(2) 0.6207(6)
H100_5 H 0.1959 0.6804 0.6300
H101_5 H 0.1392 0.6831 0.6247
H102_5 H 0.1793 0.7155 0.6151
C86_5 C 0.3104(14) 0.6652(15) 0.6637(5)
H103_5 H 0.2776 0.6613 0.6589
H104_5 H 0.3237 0.6976 0.6608
H105_5 H 0.3082 0.6624 0.6758
C87_5 C 0.3438(15) 0.6259(10) 0.6572(5)
C88_5 C 0.3934(11) 0.6168(10) 0.6601(3)
C89_5 C 0.4038(11) 0.5783(11) 0.6494(4)
C90_5 C 0.454(2) 0.5550(14) 0.6500(8)
H106_5 H 0.4556 0.5289 0.6417
H107_5 H 0.4591 0.5410 0.6610
H108_5 H 0.4788 0.5800 0.6477
Ag19_3 Ag 0.46837(14) 0.24410(12) 0.56377(4)
Ag20_3 Ag 0.52277(14) 0.82559(13) 0.71867(4)
Ag21_3 Ag 0.13690(13) 0.96826(13) 0.78176(4)
Ag22_3 Ag 0.23050(13) 0.95991(14) 0.75333(5)
Ag23_3 Ag 0.29290(13) 0.61067(12) 0.95948(4)
N37_3 N 0.5322(11) 0.3182(10) 0.5159(5)
N38_3 N 0.5735(18) 0.8094(16) 0.6865(5)
N41_3 N 0.2579(11) 0.8851(11) 0.4419(4)
N42_3 N 0.3563(11) 0.4809(11) 0.9235(3)
Ag5_3 Ag 0.86310(13) 0.46826(13) 0.46824(4)
Ag6_3 Ag 0.76950(13) 0.45991(14) 0.49667(5)
Ag7_5 Ag 0.97231(12) 0.74240(12) 0.52539(4)
Ag8_5 Ag 0.98399(12) 0.66611(12) 0.55749(4)
Ag14_5 Ag 0.99414(13) 0.75174(12) 0.85500(4)
N9_5 N 0.8644(10) 0.5137(9) 0.4891(3)
N10_5 N 0.8230(11) 0.5081(10) 0.4987(4)
N13_5 N 0.9340(10) 0.6788(11) 0.5262(3)
N14_5 N 0.9377(10) 0.6455(13) 0.5390(4)
N21_3 N 0.8563(11) 0.5191(11) 0.8265(3)
N22_3 N 0.8911(10) 0.5221(11) 0.8141(3)
N25_5 N 0.9674(10) 0.6493(9) 0.8662(3)
N26_5 N 0.9557(9) 0.6848(10) 0.8547(3)
C21_5 C 0.9379(16) 0.5529(13) 0.4843(5)
H25_5 H 0.9369 0.5277 0.4757
H26_5 H 0.9690 0.5504 0.4904
H27_5 H 0.9353 0.5856 0.4793
C22_5 C 0.8959(11) 0.5453(11) 0.4960(4)
C23_5 C 0.8731(11) 0.5687(11) 0.5092(4)
C24_5 C 0.8298(15) 0.5419(13) 0.5105(5)
C25_5 C 0.796(2) 0.553(2) 0.5246(6)
H28_5 H 0.7674 0.5309 0.5241
H29_5 H 0.7849 0.5871 0.5239
H30_5 H 0.8135 0.5478 0.5350
C31_5 C 0.888(3) 0.675(3) 0.4989(7)
H37_5 H 0.8984 0.7093 0.4974
H38_5 H 0.8517 0.6743 0.5002
H39_5 H 0.8971 0.6556 0.4893
C32_5 C 0.9113(11) 0.6543(14) 0.5140(4)
C33_5 C 0.8996(11) 0.6065(17) 0.5188(4)
C34_5 C 0.9143(11) 0.6038(13) 0.5352(3)
C35_5 C 0.9150(13) 0.5574(19) 0.5451(6)
H40_5 H 0.9307 0.5636 0.5558
H41_5 H 0.9336 0.5321 0.5391
H42_5 H 0.8812 0.5460 0.5468
C45_5 C 0.993(2) 0.8190(18) 0.4943(6)
H52_5 H 0.9679 0.7952 0.4976
H54_5 H 0.9783 0.8504 0.4918
C51_5 C 0.826(3) 0.575(3) 0.8498(9)
H61_5 H 0.7959 0.5553 0.8498
H62_5 H 0.8403 0.5758 0.8608
H63_5 H 0.8174 0.6092 0.8465
C52_5 C 0.8618(10) 0.5544(12) 0.8377(4)
C53_5 C 0.9092(11) 0.5724(11) 0.8355(4)
C54_5 C 0.9224(14) 0.5558(15) 0.8199(4)
C55_5 C 0.964(3) 0.565(4) 0.8084(11)
H64_5 H 0.9609 0.5436 0.7987
H65_5 H 0.9641 0.5994 0.8049
H66_5 H 0.9954 0.5576 0.8140
C61_5 C 0.9570(19) 0.5584(14) 0.8690(7)
H73_5 H 0.9734 0.5639 0.8796
H74_5 H 0.9245 0.5440 0.8709
H75_5 H 0.9768 0.5360 0.8623
C62_5 C 0.9514(11) 0.6064(11) 0.8602(3)
C63_5 C 0.9305(10) 0.6141(8) 0.8448(3)
C64_5 C 0.9332(11) 0.6644(8) 0.8418(3)
C65_5 C 0.910(2) 0.682(4) 0.8260(6)
H76_5 H 0.9130 0.7180 0.8254
H77_5 H 0.9277 0.6673 0.8166
H78_5 H 0.8757 0.6724 0.8258
H79_5 H 0.9828 0.8167 0.8280
H80_5 H 0.9984 0.8725 0.8244
Ag24_3 Ag 0.79963(13) 0.46731(12) 0.82322(4)
Ag25_3 Ag 0.89024(14) 0.47295(12) 0.79506(4)
N39_3 N 0.8599(13) 0.4212(12) 0.4481(4)
N40_3 N 0.7153(15) 0.4108(13) 0.4934(5)
Ag1_4 Ag 0.03163(14) 0.25590(12) 0.06377(4)
H1_6 H 0.0205 0.3074 0.0951
H2_6 H 0.0074 0.3638 0.0986
Ag20_4 Ag 0.02277(14) 0.17441(13) 0.03133(4)
N37_4 N 0.0322(11) 0.6818(10) 0.2341(5)
N38_4 N 0.0735(18) 0.1906(16) 0.0635(5)
Ag2_6 Ag 0.94892(14) 0.27808(13) 0.03373(4)
Ag3_4 Ag 0.97723(14) 0.67441(13) 0.21867(4)
Ag5_4 Ag 0.36310(13) 0.53174(13) 0.28176(4)
Ag6_4 Ag 0.26950(13) 0.54009(14) 0.25333(5)
Ag7_6 Ag 0.47231(12) 0.25760(12) 0.22461(4)
Ag8_6 Ag 0.48399(12) 0.33389(12) 0.19251(4)
Ag9_6 Ag 0.55892(12) 0.22926(12) 0.19569(4)
Ag10_4 Ag 0.70710(13) 0.11067(12) 0.29052(4)
Ag12_4 Ag 0.60976(14) 0.02705(12) 0.29506(4)
Ag16_6 Ag 0.85939(12) 0.48094(12) 0.12938(4)
Ag17_6 Ag 0.76325(13) 0.47586(13) 0.15527(4)
Ag18_6 Ag 0.76940(12) 0.39632(13) 0.12175(4)
N1_6 N 0.9773(14) 0.3169(16) 0.0669(3)
N2_6 N 0.9489(11) 0.3248(11) 0.0531(3)
N3_6 N 0.9353(10) 0.2207(12) 0.0172(4)
N4_4 N 0.9678(11) 0.1818(10) 0.0159(5)
N5_6 N 0.9284(16) 0.6623(14) 0.2006(5)
N6_4 N 0.9265(18) 0.6906(16) 0.1865(5)
N9_6 N 0.3644(10) 0.4863(9) 0.2609(3)
N10_6 N 0.3230(11) 0.4919(10) 0.2513(4)
N13_6 N 0.4340(10) 0.3212(11) 0.2238(3)
N14_6 N 0.4377(10) 0.3545(13) 0.2110(4)
N15_6 N 0.5395(11) 0.3252(11) 0.1770(3)
N16_6 N 0.5711(13) 0.2854(10) 0.1773(4)
N17_6 N 0.5545(11) 0.1867(10) 0.2160(4)
N18_6 N 0.5195(13) 0.1978(12) 0.2277(3)
N23_6 N 0.6098(9) 0.0765(10) 0.2755(3)
N24_6 N 0.6518(11) 0.1038(12) 0.2726(4)
N31_6 N 0.8561(10) 0.5282(10) 0.1485(3)
N32_6 N 0.8189(12) 0.5259(12) 0.1601(4)
N33_6 N 0.7120(12) 0.4218(11) 0.1517(4)
N34_6 N 0.7187(14) 0.3881(15) 0.1391(5)
N35_6 N 0.8308(12) 0.4019(12) 0.1057(4)
N36_6 N 0.8670(13) 0.4341(11) 0.1107(4)
C1_6 C 0.9937(17) 0.331(2) 0.0967(5)
H3_6 H 0.9740 0.3211 0.1063
C2_6 C 0.9617(11) 0.3317(12) 0.0817(3)
C3_6 C 0.9227(11) 0.3609(12) 0.0765(3)
C4_6 C 0.9148(12) 0.3540(14) 0.0597(3)
C5_6 C 0.8685(17) 0.364(3) 0.0503(8)
H4_6 H 0.8726 0.3525 0.0389
H5_6 H 0.8412 0.3458 0.0555
H6_6 H 0.8615 0.3990 0.0504
C6_6 C 0.8502(12) 0.2506(14) 0.0077(5)
H7_6 H 0.8593 0.2825 0.0125
H9_6 H 0.8218 0.2372 0.0137
C7_6 C 0.8926(10) 0.2158(9) 0.0092(4)
C8_6 C 0.8934(9) 0.1674(9) 0.0037(4)
C9_6 C 0.9374(9) 0.1482(9) 0.0096(4)
C10_6 C 0.9582(13) 0.0990(10) 0.0051(4)
H10_6 H 0.9908 0.0953 0.0101
H11_6 H 0.9364 0.0730 0.0093
C11_6 C 0.9054(16) 0.5787(13) 0.2072(5)
H13_6 H 0.9213 0.5883 0.2176
H14_6 H 0.8712 0.5693 0.2094
H15_6 H 0.9230 0.5508 0.2023
C12_6 C 0.9063(18) 0.6211(13) 0.1954(4)
C13_6 C 0.8878(17) 0.6243(12) 0.1795(4)
C14_6 C 0.9025(18) 0.6703(14) 0.1738(5)
C15_6 C 0.889(2) 0.692(2) 0.1576(5)
H16_6 H 0.9043 0.7249 0.1565
H17_6 H 0.9004 0.6711 0.1486
H18_6 H 0.8531 0.6960 0.1569
C21_6 C 0.4379(16) 0.4471(13) 0.2657(5)
H25_6 H 0.4369 0.4723 0.2743
H26_6 H 0.4690 0.4496 0.2596
H27_6 H 0.4353 0.4144 0.2707
C22_6 C 0.3959(11) 0.4547(11) 0.2540(4)
C23_6 C 0.3731(11) 0.4313(11) 0.2408(4)
C24_6 C 0.3298(15) 0.4581(13) 0.2395(5)
C25_6 C 0.296(2) 0.447(2) 0.2254(6)
H28_6 H 0.2674 0.4691 0.2259
H29_6 H 0.2849 0.4129 0.2261
H30_6 H 0.3135 0.4522 0.2150
C26_6 C 0.8350(18) 0.077(2) 0.0181(4)
H31_6 H 0.8117 0.0494 0.0195
H32_6 H 0.8295 0.1010 0.0270
H33_6 H 0.8685 0.0649 0.0184
C27_6 C 0.8252(11) 0.1012(13) 0.0018(4)
C31_6 C 0.388(3) 0.325(3) 0.2511(7)
H37_6 H 0.3984 0.2907 0.2526
H38_6 H 0.3517 0.3257 0.2498
H39_6 H 0.3971 0.3444 0.2607
C32_6 C 0.4113(11) 0.3457(14) 0.2360(4)
C33_6 C 0.3996(11) 0.3935(17) 0.2312(4)
C34_6 C 0.4143(11) 0.3962(13) 0.2148(3)
C35_6 C 0.4150(13) 0.4426(19) 0.2049(6)
H40_6 H 0.4307 0.4364 0.1942
H41_6 H 0.4336 0.4679 0.2109
H42_6 H 0.3812 0.4540 0.2032
C36_6 C 0.5450(12) 0.4055(15) 0.1667(5)
H43_6 H 0.5125 0.4053 0.1719
H44_6 H 0.5414 0.4113 0.1548
H45_6 H 0.5651 0.4317 0.1716
C37_6 C 0.5696(12) 0.3570(11) 0.1695(4)
C38_6 C 0.6153(11) 0.3397(11) 0.1645(5)
C39_6 C 0.6149(10) 0.2914(10) 0.1702(4)
C40_6 C 0.6533(11) 0.2520(11) 0.1701(4)
H46_6 H 0.6406 0.2227 0.1758
H47_6 H 0.6827 0.2639 0.1759
H48_6 H 0.6618 0.2436 0.1587
C41_6 C 0.634(2) 0.1420(13) 0.2160(7)
H49_6 H 0.6354 0.1552 0.2048
H50_6 H 0.6356 0.1060 0.2156
H51_6 H 0.6611 0.1549 0.2226
C42_6 C 0.5860(12) 0.1570(10) 0.2238(3)
C43_6 C 0.5708(12) 0.1457(10) 0.2397(3)
C44_6 C 0.5297(13) 0.1753(12) 0.2420(4)
C45_6 C 0.493(2) 0.1810(18) 0.2557(6)
H52_6 H 0.4679 0.2048 0.2524
H53_6 H 0.5104 0.1939 0.2655
H54_6 H 0.4783 0.1496 0.2582
C56_6 C 0.5268(9) 0.0659(13) 0.2643(5)
H67_6 H 0.5252 0.0407 0.2730
H68_6 H 0.5038 0.0926 0.2670
H69_6 H 0.5177 0.0512 0.2537
C57_6 C 0.5779(9) 0.0860(11) 0.2633(3)
C58_6 C 0.5976(10) 0.1233(11) 0.2536(3)
C59_6 C 0.6441(12) 0.1337(18) 0.2598(5)
C60_6 C 0.6831(13) 0.1681(14) 0.2538(5)
H70_6 H 0.7124 0.1650 0.2608
H71_6 H 0.6916 0.1600 0.2424
H72_6 H 0.6709 0.2020 0.2543
C76_6 C 0.927(2) 0.5770(16) 0.1436(6)
H91_6 H 0.9278 0.5552 0.1340
H92_6 H 0.9565 0.5714 0.1504
H93_6 H 0.9267 0.6114 0.1399
C77_6 C 0.8822(16) 0.5669(17) 0.1537(5)
C78_6 C 0.8662(13) 0.5865(11) 0.1686(4)
C79_6 C 0.8210(12) 0.5635(11) 0.1706(4)
C80_6 C 0.7881(16) 0.5650(14) 0.1854(4)
H94_6 H 0.7605 0.5422 0.1838
H95_6 H 0.7753 0.5985 0.1869
H96_6 H 0.8067 0.5553 0.1952
C81_6 C 0.667(2) 0.433(2) 0.1782(4)
H97_6 H 0.6867 0.4626 0.1792
H98_6 H 0.6756 0.4096 0.1870
H99_6 H 0.6317 0.4415 0.1793
C82_6 C 0.6752(10) 0.4094(11) 0.1618(3)
C83_6 C 0.6550(9) 0.3660(10) 0.1558(3)
C84_6 C 0.6811(13) 0.3572(13) 0.1413(3)
C85_6 C 0.6730(17) 0.316(2) 0.1293(6)
H100_6 H 0.6959 0.3196 0.1200
H101_6 H 0.6392 0.3169 0.1253
H102_6 H 0.6793 0.2845 0.1349
C86_6 C 0.8104(14) 0.3348(15) 0.0863(5)
H103_6 H 0.7776 0.3387 0.0911
H104_6 H 0.8237 0.3024 0.0892
H105_6 H 0.8082 0.3376 0.0742
C87_6 C 0.8438(15) 0.3741(10) 0.0928(5)
C88_6 C 0.8934(11) 0.3832(10) 0.0899(3)
C89_6 C 0.9038(11) 0.4217(11) 0.1006(4)
C90_6 C 0.954(2) 0.4450(14) 0.1000(8)
H106_6 H 0.9556 0.4711 0.1083
H107_6 H 0.9591 0.4590 0.0890
H108_6 H 0.9788 0.4200 0.1023
Ag19_4 Ag 0.96837(14) 0.75590(12) 0.18623(4)
N39_4 N 0.3599(13) 0.5788(12) 0.3019(4)
N40_4 N 0.2153(15) 0.5892(13) 0.2566(5)
N41_4 N 0.7579(11) 0.1149(11) 0.3081(4)
Ag4_6 Ag 0.72825(14) 0.11895(14) 0.96395(5)
Ag13_6 Ag 0.51664(14) 0.33113(12) 0.86543(4)
Ag14_6 Ag 0.49414(13) 0.24826(12) 0.89500(4)
Ag15_6 Ag 0.58957(15) 0.22725(12) 0.86752(4)
N7_6 N 0.6754(14) 0.1153(15) 0.9476(5)
N8_4 N 0.6401(13) 0.0788(12) 0.9481(4)
N11_4 N 0.7847(15) 0.0892(13) 0.9934(5)
N12_6 N 0.7825(15) 0.1254(15) 0.9815(5)
N19_4 N 0.7421(11) 0.3851(11) 0.8081(4)
N20_6 N 0.7437(13) 0.4170(13) 0.8214(4)
N22_4 N 0.3911(10) 0.4779(11) 0.9359(3)
N25_6 N 0.4674(10) 0.3507(9) 0.8838(3)
N26_6 N 0.4557(9) 0.3152(10) 0.8953(3)
N27_6 N 0.5415(8) 0.1852(8) 0.8971(2)
N28_6 N 0.5825(8) 0.1819(9) 0.8871(3)
N29_6 N 0.6026(11) 0.2818(10) 0.8500(4)
N30_6 N 0.5739(11) 0.3236(9) 0.8490(4)
H8_6 H 0.8417 0.2549 0.9961
H12_6 H 0.9608 0.0964 0.9931
C16_6 C 0.692(2) 0.182(2) 0.9268(8)
H19_6 H 0.7202 0.1898 0.9341
H20_6 H 0.6706 0.2104 0.9260
H21_6 H 0.7050 0.1735 0.9158
C17_6 C 0.665(2) 0.1390(16) 0.9337(6)
C18_6 C 0.6215(13) 0.1223(13) 0.9264(4)
C19_6 C 0.6067(12) 0.0828(11) 0.9361(4)
C20_6 C 0.5634(18) 0.0508(15) 0.9323(7)
H22_6 H 0.5599 0.0258 0.9410
H23_6 H 0.5684 0.0346 0.9216
H24_6 H 0.5335 0.0710 0.9319
C28_6 C 0.8478(12) 0.1450(11) 0.9972(4)
C29_6 C 0.8199(14) 0.1567(14) 0.9834(4)
C30_6 C 0.8287(14) 0.1945(16) 0.9703(5)
H34_6 H 0.8026 0.1926 0.9620
H35_6 H 0.8606 0.1884 0.9651
H36_6 H 0.8287 0.2274 0.9753
C46_6 C 0.6900(16) 0.3147(13) 0.8002(5)
H55_6 H 0.7103 0.3163 0.7902
H56_6 H 0.6940 0.2823 0.8054
H57_6 H 0.6554 0.3196 0.7973
C47_6 C 0.7058(11) 0.3539(11) 0.8120(3)
C48_6 C 0.6833(13) 0.3667(13) 0.8268(4)
C49_6 C 0.7088(15) 0.4076(15) 0.8326(4)
C50_6 C 0.7069(17) 0.4320(16) 0.8491(4)
H58_6 H 0.7313 0.4586 0.8495
H59_6 H 0.6740 0.4457 0.8509
H60_6 H 0.7142 0.4078 0.8577
C51_6 C 0.326(3) 0.425(3) 0.9002(9)
H61_6 H 0.2959 0.4447 0.9002
H62_6 H 0.3403 0.4242 0.8892
H63_6 H 0.3174 0.3908 0.9035
C52_6 C 0.3618(10) 0.4456(12) 0.9123(4)
C53_6 C 0.4092(11) 0.4276(11) 0.9145(4)
C54_6 C 0.4224(14) 0.4442(15) 0.9301(4)
C55_6 C 0.464(3) 0.435(4) 0.9416(11)
H64_6 H 0.4609 0.4564 0.9513
H65_6 H 0.4641 0.4006 0.9451
H66_6 H 0.4954 0.4424 0.9360
C61_6 C 0.4570(19) 0.4416(14) 0.8810(7)
H73_6 H 0.4734 0.4361 0.8704
H74_6 H 0.4245 0.4560 0.8791
H75_6 H 0.4768 0.4640 0.8877
C62_6 C 0.4514(11) 0.3936(11) 0.8898(3)
C63_6 C 0.4305(10) 0.3859(8) 0.9052(3)
C64_6 C 0.4332(11) 0.3356(8) 0.9082(3)
C65_6 C 0.410(2) 0.318(4) 0.9240(6)
H76_6 H 0.4130 0.2820 0.9246
H77_6 H 0.4277 0.3327 0.9334
H78_6 H 0.3757 0.3276 0.9242
C66_6 C 0.5103(15) 0.1615(17) 0.9248(5)
H79_6 H 0.4828 0.1833 0.9220
H80_6 H 0.4984 0.1275 0.9256
H81_6 H 0.5240 0.1715 0.9355
C67_6 C 0.5492(11) 0.1649(11) 0.9119(3)
C68_6 C 0.5950(11) 0.1421(14) 0.9119(4)
C69_6 C 0.6141(10) 0.1585(11) 0.8970(3)
C70_6 C 0.6642(11) 0.1459(16) 0.8906(6)
H82_6 H 0.6700 0.1632 0.8802
H83_6 H 0.6890 0.1558 0.8988
H84_6 H 0.6663 0.1103 0.8888
C71_6 C 0.6784(15) 0.2506(15) 0.8407(6)
H85_6 H 0.6645 0.2214 0.8460
H86_6 H 0.6896 0.2420 0.8295
H87_6 H 0.7063 0.2628 0.8471
C72_6 C 0.6399(14) 0.2897(10) 0.8396(6)
C73_6 C 0.6450(9) 0.3394(10) 0.8359(4)
C74_6 C 0.5999(9) 0.3578(10) 0.8410(4)
C75_6 C 0.5756(18) 0.4066(12) 0.8387(6)
H88_6 H 0.5434 0.4065 0.8441
H89_6 H 0.5962 0.4325 0.8435
H90_6 H 0.5713 0.4129 0.8268
Ag21_4 Ag 0.63690(13) 0.03174(13) 0.96824(4)
Ag22_4 Ag 0.73050(13) 0.04009(14) 0.99667(5)
Ag23_4 Ag 0.79290(13) 0.38933(12) 0.79052(4)
Ag25_4 Ag 0.39024(14) 0.52705(12) 0.95494(4)
N43_4 N 0.6089(10) 0.9779(11) 0.3141(3)
N5_7 N 0.0716(16) 0.1623(14) 0.0494(5)
N31_7 N 0.1439(10) 0.0282(10) 0.1015(3)
N32_7 N 0.1811(12) 0.0259(12) 0.0899(4)
C11_7 C 0.0946(16) 0.0787(13) 0.0428(5)
H13_7 H 0.0787 0.0883 0.0324
H14_7 H 0.1288 0.0693 0.0406
H15_7 H 0.0770 0.0508 0.0477
C12_7 C 0.0937(18) 0.1211(13) 0.0546(4)
C13_7 C 0.1122(17) 0.1243(12) 0.0705(4)
C14_7 C 0.0975(18) 0.1703(14) 0.0762(5)
C15_7 C 0.111(2) 0.192(2) 0.0924(5)
H16_7 H 0.0957 0.2249 0.0935
H17_7 H 0.0996 0.1711 0.1014
H18_7 H 0.1469 0.1960 0.0931
C76_7 C 0.073(2) 0.0770(16) 0.1064(6)
H91_7 H 0.0722 0.0552 0.1160
H92_7 H 0.0435 0.0714 0.0996
H93_7 H 0.0733 0.1114 0.1101
C77_7 C 0.1178(16) 0.0669(17) 0.0963(5)
C78_7 C 0.1338(13) 0.0865(11) 0.0814(4)
C79_7 C 0.1790(12) 0.0635(11) 0.0794(4)
C80_7 C 0.2119(16) 0.0650(14) 0.0646(4)
H94_7 H 0.2395 0.0422 0.0662
H95_7 H 0.2247 0.0985 0.0631
H96_7 H 0.1933 0.0553 0.0548
Ag24_4 Ag 0.70037(13) 0.03269(12) 0.32322(4)
N42_4 N 0.1437(11) 0.0191(11) 0.4235(3)
Ag2_7 Ag 0.05108(14) 0.77808(13) 0.21627(4)
Ag4_7 Ag 0.27175(14) 0.61895(14) 0.28605(5)
Ag7_7 Ag 0.52769(12) 0.75760(12) 0.02539(4)
Ag8_7 Ag 0.51601(12) 0.83389(12) 0.05749(4)
Ag9_7 Ag 0.44108(12) 0.72926(12) 0.05431(4)
Ag11_4 Ag 0.20037(13) 0.96731(12) 0.42678(4)
Ag13_7 Ag 0.48336(14) 0.83113(12) 0.38457(4)
Ag14_7 Ag 0.50586(13) 0.74826(12) 0.35500(4)
Ag15_7 Ag 0.41043(15) 0.72725(12) 0.38248(4)
Ag16_7 Ag 0.14061(12) 0.98094(12) 0.12062(4)
Ag17_7 Ag 0.23675(13) 0.97586(13) 0.09473(4)
Ag18_7 Ag 0.23060(12) 0.89632(13) 0.12825(4)
N1_7 N 0.0227(14) 0.8169(16) 0.1831(3)
N2_7 N 0.0511(11) 0.8248(11) 0.1969(3)
N3_7 N 0.0647(10) 0.7207(12) 0.2328(4)
N7_7 N 0.3246(14) 0.6153(15) 0.3024(5)
N12_7 N 0.2175(15) 0.6254(15) 0.2685(5)
N13_7 N 0.5660(10) 0.8212(11) 0.0262(3)
N14_7 N 0.5623(10) 0.8545(13) 0.0390(4)
N15_7 N 0.4605(11) 0.8252(11) 0.0730(3)
N16_7 N 0.4289(13) 0.7854(10) 0.0727(4)
N17_7 N 0.4455(11) 0.6867(10) 0.0340(4)
N18_7 N 0.4805(13) 0.6978(12) 0.0223(3)
N20_7 N 0.2563(13) 0.9170(13) 0.4286(4)
N21_4 N 0.6437(11) 0.9809(11) 0.3265(3)
N25_7 N 0.5326(10) 0.8507(9) 0.3662(3)
N26_7 N 0.5443(9) 0.8152(10) 0.3547(3)
N27_7 N 0.4585(8) 0.6852(8) 0.3529(2)
N28_7 N 0.4175(8) 0.6819(9) 0.3629(3)
N29_7 N 0.3974(11) 0.7818(10) 0.4000(4)
N30_7 N 0.4261(11) 0.8236(9) 0.4010(4)
N33_7 N 0.2880(12) 0.9218(11) 0.0983(4)
N34_7 N 0.2813(14) 0.8881(15) 0.1109(5)
N35_7 N 0.1692(12) 0.9019(12) 0.1443(4)
N36_7 N 0.1330(13) 0.9341(11) 0.1393(4)
C1_7 C 0.0063(17) 0.831(2) 0.1533(5)
H3_7 H 0.0260 0.8211 0.1437
C2_7 C 0.0383(11) 0.8317(12) 0.1683(3)
C3_7 C 0.0773(11) 0.8609(12) 0.1735(3)
C4_7 C 0.0852(12) 0.8540(14) 0.1903(3)
C5_7 C 0.1315(17) 0.864(3) 0.1997(8)
H4_7 H 0.1274 0.8525 0.2111
H5_7 H 0.1588 0.8458 0.1945
H6_7 H 0.1385 0.8990 0.1996
C6_7 C 0.1498(12) 0.7506(14) 0.2423(5)
H7_7 H 0.1407 0.7825 0.2375
H8_7 H 0.1583 0.7549 0.2539
H9_7 H 0.1782 0.7372 0.2363
C7_7 C 0.1074(10) 0.7158(9) 0.2408(4)
C8_7 C 0.1066(9) 0.6674(9) 0.2463(4)
C9_7 C 0.0626(9) 0.6482(9) 0.2404(4)
C10_7 C 0.0418(13) 0.5990(10) 0.2449(4)
H10_7 H 0.0092 0.5953 0.2399
H11_7 H 0.0636 0.5730 0.2407
H12_7 H 0.0392 0.5964 0.2569
C16_7 C 0.308(2) 0.682(2) 0.3232(8)
H19_7 H 0.2798 0.6898 0.3159
H20_7 H 0.3294 0.7104 0.3240
H21_7 H 0.2950 0.6735 0.3342
C17_7 C 0.335(2) 0.6390(16) 0.3163(6)
C18_7 C 0.3785(13) 0.6223(13) 0.3236(4)
C19_7 C 0.3933(12) 0.5828(11) 0.3139(4)
C20_7 C 0.4366(18) 0.5508(15) 0.3177(7)
H22_7 H 0.4401 0.5258 0.3090
H23_7 H 0.4316 0.5346 0.3284
H24_7 H 0.4665 0.5710 0.3181
C23_7 C 0.6269(11) 0.9313(11) 0.0092(4)
C24_7 C 0.6702(15) 0.9581(13) 0.0105(5)
C25_7 C 0.704(2) 0.947(2) 0.0246(6)
H28_7 H 0.7326 0.9691 0.0241
H29_7 H 0.7151 0.9129 0.0239
H30_7 H 0.6865 0.9522 0.0350
C26_7 C 0.1650(18) 0.577(2) 0.2319(4)
H31_7 H 0.1883 0.5494 0.2305
H32_7 H 0.1705 0.6010 0.2230
H33_7 H 0.1315 0.5649 0.2316
C27_7 C 0.1748(11) 0.6012(13) 0.2482(4)
C28_7 C 0.1522(12) 0.6450(11) 0.2528(4)
C29_7 C 0.1801(14) 0.6567(14) 0.2666(4)
C30_7 C 0.1713(14) 0.6945(16) 0.2797(5)
H34_7 H 0.1974 0.6926 0.2880
H35_7 H 0.1394 0.6884 0.2849
H36_7 H 0.1713 0.7274 0.2747
H38_7 H 0.6483 0.8257 0.0002
C32_7 C 0.5887(11) 0.8457(14) 0.0140(4)
C33_7 C 0.6004(11) 0.8935(17) 0.0188(4)
C34_7 C 0.5857(11) 0.8962(13) 0.0352(3)
C35_7 C 0.5850(13) 0.9426(19) 0.0451(6)
H40_7 H 0.5693 0.9364 0.0558
H41_7 H 0.5664 0.9679 0.0391
H42_7 H 0.6188 0.9540 0.0468
C36_7 C 0.4550(12) 0.9055(15) 0.0833(5)
H43_7 H 0.4875 0.9053 0.0781
H44_7 H 0.4586 0.9113 0.0952
H45_7 H 0.4349 0.9317 0.0784
C37_7 C 0.4304(12) 0.8570(11) 0.0805(4)
C38_7 C 0.3847(11) 0.8397(11) 0.0855(5)
C39_7 C 0.3851(10) 0.7914(10) 0.0798(4)
C40_7 C 0.3467(11) 0.7520(11) 0.0799(4)
H46_7 H 0.3594 0.7227 0.0742
H47_7 H 0.3173 0.7639 0.0741
H48_7 H 0.3382 0.7436 0.0913
C41_7 C 0.366(2) 0.6420(13) 0.0340(7)
H49_7 H 0.3646 0.6552 0.0452
H50_7 H 0.3644 0.6060 0.0344
H51_7 H 0.3389 0.6549 0.0274
C42_7 C 0.4140(12) 0.6570(10) 0.0262(3)
C43_7 C 0.4292(12) 0.6457(10) 0.0103(3)
C44_7 C 0.4703(13) 0.6753(12) 0.0080(4)
C46_7 C 0.3100(16) 0.8147(13) 0.4498(5)
H55_7 H 0.2897 0.8163 0.4598
H56_7 H 0.3060 0.7823 0.4446
H57_7 H 0.3446 0.8196 0.4527
C47_7 C 0.2942(11) 0.8539(11) 0.4380(3)
C48_7 C 0.3167(13) 0.8667(13) 0.4232(4)
C49_7 C 0.2912(15) 0.9076(15) 0.4174(4)
C50_7 C 0.2931(17) 0.9320(16) 0.4009(4)
H58_7 H 0.2687 0.9586 0.4005
H59_7 H 0.3260 0.9457 0.3991
H60_7 H 0.2858 0.9078 0.3923
C51_7 C 0.674(3) 0.925(3) 0.3498(9)
H61_7 H 0.7041 0.9447 0.3498
H62_7 H 0.6597 0.9242 0.3608
H63_7 H 0.6826 0.8908 0.3465
C52_7 C 0.6382(10) 0.9456(12) 0.3377(4)
C53_7 C 0.5908(11) 0.9276(11) 0.3355(4)
C54_7 C 0.5776(14) 0.9442(15) 0.3199(4)
C55_7 C 0.536(3) 0.935(4) 0.3084(11)
H64_7 H 0.5391 0.9564 0.2987
H65_7 H 0.5359 0.9006 0.3049
H66_7 H 0.5046 0.9424 0.3140
H71_7 H 0.3084 0.6600 0.0076
C61_7 C 0.5430(19) 0.9416(14) 0.3690(7)
H73_7 H 0.5266 0.9361 0.3796
H74_7 H 0.5755 0.9560 0.3709
H75_7 H 0.5232 0.9640 0.3623
C62_7 C 0.5486(11) 0.8936(11) 0.3602(3)
C63_7 C 0.5695(10) 0.8859(8) 0.3448(3)
C64_7 C 0.5668(11) 0.8356(8) 0.3418(3)
C65_7 C 0.590(2) 0.818(4) 0.3260(6)
H76_7 H 0.5870 0.7820 0.3254
H77_7 H 0.5723 0.8327 0.3166
H78_7 H 0.6243 0.8276 0.3258
C66_7 C 0.4897(15) 0.6615(17) 0.3252(5)
H79_7 H 0.5172 0.6833 0.3280
H80_7 H 0.5016 0.6275 0.3244
H81_7 H 0.4760 0.6715 0.3145
C67_7 C 0.4508(11) 0.6649(11) 0.3381(3)
C68_7 C 0.4050(11) 0.6421(14) 0.3381(4)
C69_7 C 0.3859(10) 0.6585(11) 0.3530(3)
C70_7 C 0.3358(11) 0.6459(16) 0.3594(6)
H82_7 H 0.3300 0.6632 0.3698
H83_7 H 0.3110 0.6558 0.3512
H84_7 H 0.3337 0.6103 0.3612
C71_7 C 0.3216(15) 0.7506(15) 0.4093(6)
H85_7 H 0.3355 0.7214 0.4040
H86_7 H 0.3104 0.7420 0.4205
H87_7 H 0.2937 0.7628 0.4029
C72_7 C 0.3601(14) 0.7897(10) 0.4104(6)
C73_7 C 0.3550(9) 0.8394(10) 0.4141(4)
C74_7 C 0.4001(9) 0.8578(10) 0.4090(4)
C75_7 C 0.4244(18) 0.9066(12) 0.4113(6)
H88_7 H 0.4566 0.9065 0.4059
H89_7 H 0.4038 0.9325 0.4065
H90_7 H 0.4287 0.9129 0.4232
C81_7 C 0.333(2) 0.933(2) 0.0718(4)
H97_7 H 0.3133 0.9626 0.0708
H98_7 H 0.3244 0.9096 0.0630
H99_7 H 0.3683 0.9415 0.0707
C82_7 C 0.3248(10) 0.9094(11) 0.0882(3)
C83_7 C 0.3450(9) 0.8660(10) 0.0942(3)
C84_7 C 0.3189(13) 0.8572(13) 0.1087(3)
C85_7 C 0.3270(17) 0.816(2) 0.1207(6)
H100_7 H 0.3041 0.8196 0.1300
H101_7 H 0.3608 0.8169 0.1247
H102_7 H 0.3207 0.7845 0.1151
C86_7 C 0.1896(14) 0.8348(15) 0.1637(5)
H103_7 H 0.2224 0.8387 0.1589
H104_7 H 0.1763 0.8024 0.1608
H105_7 H 0.1918 0.8376 0.1758
C87_7 C 0.1562(15) 0.8741(10) 0.1572(5)
C88_7 C 0.1066(11) 0.8832(10) 0.1601(3)
C89_7 C 0.0962(11) 0.9217(11) 0.1494(4)
C90_7 C 0.046(2) 0.9450(14) 0.1500(8)
H106_7 H 0.0444 0.9711 0.1417
H107_7 H 0.0409 0.9590 0.1610
H108_7 H 0.0212 0.9200 0.1477
N9_7 N 0.6356(10) 0.9863(9) 0.9891(3)
N10_7 N 0.6770(11) 0.9919(10) 0.9987(4)
N23_7 N 0.3902(9) 0.5765(10) 0.9745(3)
N24_7 N 0.3482(11) 0.6038(12) 0.9774(4)
C21_7 C 0.5621(16) 0.9471(13) 0.9843(5)
H25_7 H 0.5631 0.9723 0.9757
H26_7 H 0.5310 0.9496 0.9904
H27_7 H 0.5647 0.9144 0.9793
C22_7 C 0.6041(11) 0.9547(11) 0.9960(4)
C31_7 C 0.612(3) 0.825(3) 0.9989(7)
H37_7 H 0.6016 0.7907 0.9974
H39_7 H 0.6029 0.8444 0.9893
C45_7 C 0.507(2) 0.6810(18) 0.9943(6)
H52_7 H 0.5321 0.7048 0.9976
H53_7 H 0.4896 0.6939 0.9845
H54_7 H 0.5217 0.6496 0.9918
C56_7 C 0.4732(9) 0.5659(13) 0.9857(5)
H67_7 H 0.4748 0.5407 0.9770
H68_7 H 0.4962 0.5926 0.9830
H69_7 H 0.4823 0.5512 0.9963
C57_7 C 0.4221(9) 0.5860(11) 0.9867(3)
C58_7 C 0.4024(10) 0.6233(11) 0.9964(3)
C59_7 C 0.3559(12) 0.6337(18) 0.9902(5)
C60_7 C 0.3169(13) 0.6681(14) 0.9962(5)
H70_7 H 0.2876 0.6650 0.9892
H72_7 H 0.3291 0.7020 0.9957
H1_7 H 0.9795 0.8074 0.1549
H2_7 H 0.9926 0.8638 0.1514
Ag7_8 Ag 0.02769(12) 0.24240(12) 0.72461(4)
Ag8_8 Ag 0.01601(12) 0.16611(12) 0.69251(4)
Ag14_8 Ag 0.00586(13) 0.25174(12) 0.39500(4)
N9_8 N 0.1356(10) 0.0137(9) 0.7609(3)
N10_8 N 0.1770(11) 0.0081(10) 0.7513(4)
N13_8 N 0.0660(10) 0.1788(11) 0.7238(3)
N14_8 N 0.0623(10) 0.1455(13) 0.7110(4)
N25_8 N 0.0326(10) 0.1493(9) 0.3838(3)
N26_8 N 0.0443(9) 0.1848(10) 0.3953(3)
C21_8 C 0.0621(16) 0.0529(13) 0.7657(5)
H25_8 H 0.0631 0.0277 0.7743
H26_8 H 0.0310 0.0504 0.7596
H27_8 H 0.0647 0.0856 0.7707
C22_8 C 0.1041(11) 0.0453(11) 0.7540(4)
C23_8 C 0.1269(11) 0.0687(11) 0.7408(4)
C24_8 C 0.1702(15) 0.0419(13) 0.7395(5)
C25_8 C 0.204(2) 0.053(2) 0.7254(6)
H28_8 H 0.2326 0.0309 0.7259
H29_8 H 0.2151 0.0871 0.7261
H30_8 H 0.1865 0.0478 0.7150
C31_8 C 0.112(3) 0.175(3) 0.7511(7)
H37_8 H 0.1016 0.2093 0.7526
H38_8 H 0.1483 0.1743 0.7498
H39_8 H 0.1029 0.1556 0.7607
C32_8 C 0.0887(11) 0.1543(14) 0.7360(4)
C33_8 C 0.1004(11) 0.1065(17) 0.7312(4)
C34_8 C 0.0857(11) 0.1038(13) 0.7148(3)
C35_8 C 0.0850(13) 0.0574(19) 0.7049(6)
H40_8 H 0.0693 0.0636 0.6942
H41_8 H 0.0664 0.0321 0.7109
H42_8 H 0.1188 0.0460 0.7032
C45_8 C 0.007(2) 0.3190(18) 0.7557(6)
H52_8 H 0.0321 0.2952 0.7524
H54_8 H 0.0217 0.3504 0.7582
C51_8 C 0.174(3) 0.075(3) 0.4002(9)
H61_8 H 0.2041 0.0553 0.4002
H62_8 H 0.1597 0.0758 0.3892
H63_8 H 0.1826 0.1092 0.4035
C52_8 C 0.1382(10) 0.0544(12) 0.4123(4)
C53_8 C 0.0908(11) 0.0724(11) 0.4145(4)
C54_8 C 0.0776(14) 0.0558(15) 0.4301(4)
C55_8 C 0.036(3) 0.065(4) 0.4416(11)
H64_8 H 0.0391 0.0436 0.4513
H65_8 H 0.0359 0.0994 0.4451
H66_8 H 0.0046 0.0576 0.4360
C61_8 C 0.0430(19) 0.0584(14) 0.3810(7)
H73_8 H 0.0266 0.0639 0.3704
H74_8 H 0.0755 0.0440 0.3791
H75_8 H 0.0232 0.0360 0.3877
C62_8 C 0.0486(11) 0.1064(11) 0.3898(3)
C63_8 C 0.0695(10) 0.1141(8) 0.4052(3)
C64_8 C 0.0668(11) 0.1644(8) 0.4082(3)
C65_8 C 0.090(2) 0.182(4) 0.4240(6)
H76_8 H 0.0870 0.2180 0.4246
H77_8 H 0.0723 0.1673 0.4334
H78_8 H 0.1243 0.1724 0.4242
H79_8 H 0.0172 0.3167 0.4220
H80_8 H 0.0016 0.3725 0.4256
Ag2_8 Ag 0.55108(14) 0.22192(13) 0.53373(4)
Ag4_8 Ag 0.77175(14) 0.38105(14) 0.46395(5)
Ag9_8 Ag 0.94108(12) 0.27074(12) 0.69569(4)
Ag13_8 Ag 0.98336(14) 0.16887(12) 0.36543(4)
Ag15_8 Ag 0.91043(15) 0.27275(12) 0.36752(4)
Ag16_8 Ag 0.64061(12) 0.01906(12) 0.62938(4)
Ag17_8 Ag 0.73675(13) 0.02414(13) 0.65527(4)
Ag18_8 Ag 0.73060(12) 0.10368(13) 0.62175(4)
N1_8 N 0.5227(14) 0.1831(16) 0.5669(3)
N2_8 N 0.5511(11) 0.1752(11) 0.5531(3)
N3_8 N 0.5647(10) 0.2793(12) 0.5172(4)
N7_8 N 0.8246(14) 0.3847(15) 0.4476(5)
N12_8 N 0.7175(15) 0.3746(15) 0.4815(5)
N15_8 N 0.9605(11) 0.1748(11) 0.6770(3)
N16_8 N 0.9289(13) 0.2146(10) 0.6773(4)
N17_8 N 0.9455(11) 0.3133(10) 0.7160(4)
N18_8 N 0.9805(13) 0.3022(12) 0.7277(3)
N20_8 N 0.7563(13) 0.0830(13) 0.3214(4)
N23_8 N 0.8902(9) 0.4235(10) 0.7755(3)
N24_8 N 0.8482(11) 0.3962(12) 0.7726(4)
N27_8 N 0.9585(8) 0.3148(8) 0.3971(2)
N28_8 N 0.9175(8) 0.3181(9) 0.3871(3)
N29_8 N 0.8974(11) 0.2182(10) 0.3500(4)
N30_8 N 0.9261(11) 0.1764(9) 0.3490(4)
N33_8 N 0.7880(12) 0.0782(11) 0.6517(4)
N34_8 N 0.7813(14) 0.1119(15) 0.6391(5)
N35_8 N 0.6692(12) 0.0981(12) 0.6057(4)
N36_8 N 0.6330(13) 0.0659(11) 0.6107(4)
C1_8 C 0.5063(17) 0.169(2) 0.5967(5)
H1_8 H 0.4795 0.1926 0.5951
H2_8 H 0.4926 0.1362 0.5986
H3_8 H 0.5260 0.1789 0.6063
C2_8 C 0.5383(11) 0.1683(12) 0.5817(3)
C3_8 C 0.5773(11) 0.1391(12) 0.5765(3)
C4_8 C 0.5852(12) 0.1460(14) 0.5597(3)
C5_8 C 0.6315(17) 0.136(3) 0.5503(8)
H4_8 H 0.6274 0.1475 0.5389
H5_8 H 0.6588 0.1542 0.5555
H6_8 H 0.6385 0.1010 0.5504
C6_8 C 0.6498(12) 0.2494(14) 0.5077(5)
H7_8 H 0.6407 0.2175 0.5125
H8_8 H 0.6583 0.2451 0.4961
H9_8 H 0.6782 0.2628 0.5137
C7_8 C 0.6074(10) 0.2842(9) 0.5092(4)
C8_8 C 0.6066(9) 0.3326(9) 0.5037(4)
C9_8 C 0.5626(9) 0.3518(9) 0.5096(4)
C10_8 C 0.5418(13) 0.4010(10) 0.5051(4)
H10_8 H 0.5092 0.4047 0.5101
H11_8 H 0.5636 0.4270 0.5093
H12_8 H 0.5392 0.4036 0.4931
C16_8 C 0.808(2) 0.318(2) 0.4268(8)
H19_8 H 0.7798 0.3102 0.4341
H20_8 H 0.8294 0.2896 0.4260
H21_8 H 0.7950 0.3265 0.4158
C17_8 C 0.835(2) 0.3610(16) 0.4337(6)
C18_8 C 0.8785(13) 0.3777(13) 0.4264(4)
C19_8 C 0.8933(12) 0.4172(11) 0.4361(4)
C20_8 C 0.9366(18) 0.4492(15) 0.4323(7)
H22_8 H 0.9401 0.4742 0.4410
H23_8 H 0.9316 0.4654 0.4216
H24_8 H 0.9665 0.4290 0.4319
C26_8 C 0.6650(18) 0.423(2) 0.5181(4)
H31_8 H 0.6883 0.4506 0.5195
H32_8 H 0.6705 0.3990 0.5270
H33_8 H 0.6315 0.4351 0.5184
C27_8 C 0.6748(11) 0.3988(13) 0.5018(4)
C28_8 C 0.6522(12) 0.3550(11) 0.4972(4)
C29_8 C 0.6801(14) 0.3433(14) 0.4834(4)
C30_8 C 0.6713(14) 0.3055(16) 0.4703(5)
H34_8 H 0.6974 0.3074 0.4620
H35_8 H 0.6394 0.3116 0.4651
H36_8 H 0.6713 0.2726 0.4753
C36_8 C 0.9550(12) 0.0945(15) 0.6667(5)
H43_8 H 0.9875 0.0947 0.6719
H44_8 H 0.9586 0.0887 0.6548
H45_8 H 0.9349 0.0683 0.6716
C37_8 C 0.9304(12) 0.1430(11) 0.6695(4)
C38_8 C 0.8847(11) 0.1603(11) 0.6645(5)
C39_8 C 0.8851(10) 0.2086(10) 0.6702(4)
C40_8 C 0.8467(11) 0.2480(11) 0.6701(4)
H46_8 H 0.8594 0.2773 0.6758
H47_8 H 0.8173 0.2361 0.6759
H48_8 H 0.8382 0.2564 0.6587
C41_8 C 0.866(2) 0.3580(13) 0.7160(7)
H49_8 H 0.8646 0.3448 0.7048
H50_8 H 0.8644 0.3940 0.7156
H51_8 H 0.8389 0.3451 0.7226
C42_8 C 0.9140(12) 0.3430(10) 0.7238(3)
C43_8 C 0.9292(12) 0.3543(10) 0.7397(3)
C44_8 C 0.9703(13) 0.3247(12) 0.7420(4)
H53_8 H 0.9896 0.3061 0.7655
C46_8 C 0.8100(16) 0.1853(13) 0.3002(5)
H55_8 H 0.7897 0.1837 0.2902
H56_8 H 0.8060 0.2177 0.3054
H57_8 H 0.8446 0.1804 0.2973
C47_8 C 0.7942(11) 0.1461(11) 0.3120(3)
C48_8 C 0.8167(13) 0.1333(13) 0.3268(4)
C49_8 C 0.7912(15) 0.0924(15) 0.3326(4)
C50_8 C 0.7931(17) 0.0680(16) 0.3491(4)
H58_8 H 0.7687 0.0414 0.3495
H59_8 H 0.8260 0.0543 0.3509
H60_8 H 0.7858 0.0922 0.3577
C56_8 C 0.9732(9) 0.4341(13) 0.7643(5)
H67_8 H 0.9748 0.4593 0.7730
H68_8 H 0.9962 0.4074 0.7670
H69_8 H 0.9823 0.4488 0.7537
C57_8 C 0.9221(9) 0.4140(11) 0.7633(3)
C58_8 C 0.9024(10) 0.3767(11) 0.7536(3)
C59_8 C 0.8559(12) 0.3663(18) 0.7598(5)
C60_8 C 0.8169(13) 0.3319(14) 0.7538(5)
H70_8 H 0.7876 0.3350 0.7608
H71_8 H 0.8084 0.3400 0.7424
H72_8 H 0.8291 0.2980 0.7543
C66_8 C 0.9897(15) 0.3385(17) 0.4248(5)
H81_8 H 0.9760 0.3285 0.4355
C67_8 C 0.9508(11) 0.3351(11) 0.4119(3)
C68_8 C 0.9050(11) 0.3579(14) 0.4119(4)
C69_8 C 0.8859(10) 0.3415(11) 0.3970(3)
C70_8 C 0.8358(11) 0.3541(16) 0.3906(6)
H82_8 H 0.8300 0.3368 0.3802
H83_8 H 0.8110 0.3442 0.3988
H84_8 H 0.8337 0.3897 0.3888
C71_8 C 0.8216(15) 0.2494(15) 0.3407(6)
H85_8 H 0.8355 0.2786 0.3460
H86_8 H 0.8104 0.2580 0.3295
H87_8 H 0.7937 0.2372 0.3471
C72_8 C 0.8601(14) 0.2103(10) 0.3396(6)
C73_8 C 0.8550(9) 0.1606(10) 0.3359(4)
C74_8 C 0.9001(9) 0.1422(10) 0.3410(4)
C75_8 C 0.9244(18) 0.0934(12) 0.3387(6)
H88_8 H 0.9566 0.0935 0.3441
H89_8 H 0.9038 0.0675 0.3435
H90_8 H 0.9287 0.0871 0.3268
C81_8 C 0.833(2) 0.067(2) 0.6782(4)
H97_8 H 0.8133 0.0374 0.6792
H98_8 H 0.8244 0.0904 0.6870
H99_8 H 0.8683 0.0585 0.6793
C82_8 C 0.8248(10) 0.0906(11) 0.6618(3)
C83_8 C 0.8450(9) 0.1340(10) 0.6558(3)
C84_8 C 0.8189(13) 0.1428(13) 0.6413(3)
C85_8 C 0.8270(17) 0.184(2) 0.6293(6)
H100_8 H 0.8041 0.1804 0.6200
H101_8 H 0.8608 0.1831 0.6253
H102_8 H 0.8207 0.2155 0.6349
C86_8 C 0.6896(14) 0.1652(15) 0.5863(5)
H103_8 H 0.7224 0.1613 0.5911
H104_8 H 0.6763 0.1976 0.5892
H105_8 H 0.6918 0.1624 0.5742
C87_8 C 0.6562(15) 0.1259(10) 0.5928(5)
C88_8 C 0.6066(11) 0.1168(10) 0.5899(3)
C89_8 C 0.5962(11) 0.0783(11) 0.6006(4)
C90_8 C 0.546(2) 0.0550(14) 0.6000(8)
H106_8 H 0.5444 0.0289 0.6083
H107_8 H 0.5409 0.0410 0.5890
H108_8 H 0.5212 0.0800 0.6023
N5_8 N 0.5716(16) 0.8377(14) 0.7006(5)
N31_8 N 0.6439(10) 0.9718(10) 0.6485(3)
N32_8 N 0.6811(12) 0.9741(12) 0.6601(4)
C11_8 C 0.5946(16) 0.9213(13) 0.7072(5)
H13_8 H 0.5787 0.9117 0.7176
H14_8 H 0.6288 0.9307 0.7094
H15_8 H 0.5770 0.9492 0.7023
C12_8 C 0.5937(18) 0.8789(13) 0.6954(4)
C13_8 C 0.6122(17) 0.8757(12) 0.6795(4)
C14_8 C 0.5975(18) 0.8297(14) 0.6738(5)
C15_8 C 0.611(2) 0.808(2) 0.6576(5)
H16_8 H 0.5957 0.7751 0.6565
H17_8 H 0.5996 0.8289 0.6486
H18_8 H 0.6469 0.8040 0.6569
C76_8 C 0.573(2) 0.9230(16) 0.6436(6)
H91_8 H 0.5722 0.9448 0.6340
H92_8 H 0.5435 0.9286 0.6504
H93_8 H 0.5733 0.8886 0.6399
C77_8 C 0.6178(16) 0.9331(17) 0.6537(5)
C78_8 C 0.6338(13) 0.9135(11) 0.6686(4)
C79_8 C 0.6790(12) 0.9365(11) 0.6706(4)
C80_8 C 0.7119(16) 0.9350(14) 0.6854(4)
H94_8 H 0.7395 0.9578 0.6838
H95_8 H 0.7247 0.9015 0.6869
H96_8 H 0.6933 0.9447 0.6952
N43_5 N 0.0221(11) 0.8911(10) 0.5641(3)
Ag5_5 Ag 0.46826(13) 0.13690(13) 0.53176(4)
Ag6_5 Ag 0.45991(14) 0.23050(13) 0.50333(5)
Ag7_9 Ag 0.74240(12) 0.02769(12) 0.47461(4)
Ag8_9 Ag 0.66611(12) 0.01601(12) 0.44251(4)
Ag14_9 Ag 0.75174(12) 0.00586(13) 0.14500(4)
N9_9 N 0.5137(9) 0.1356(10) 0.5109(3)
N10_9 N 0.5081(10) 0.1770(11) 0.5013(4)
N13_9 N 0.6788(11) 0.0660(10) 0.4738(3)
N14_9 N 0.6455(13) 0.0623(10) 0.4610(4)
N21_5 N 0.5191(11) 0.1437(11) 0.1735(3)
N22_5 N 0.5221(11) 0.1089(10) 0.1859(3)
N25_9 N 0.6493(9) 0.0326(10) 0.1338(3)
N26_9 N 0.6848(10) 0.0443(9) 0.1453(3)
C21_9 C 0.5529(13) 0.0621(16) 0.5157(5)
H25_9 H 0.5277 0.0631 0.5243
H26_9 H 0.5504 0.0310 0.5096
H27_9 H 0.5856 0.0647 0.5207
C22_9 C 0.5453(11) 0.1041(11) 0.5040(4)
C23_9 C 0.5687(11) 0.1269(11) 0.4908(4)
C24_9 C 0.5419(13) 0.1702(15) 0.4895(5)
C25_9 C 0.553(2) 0.204(2) 0.4754(6)
H28_9 H 0.5309 0.2326 0.4759
H29_9 H 0.5871 0.2151 0.4761
H30_9 H 0.5478 0.1865 0.4650
C31_9 C 0.675(3) 0.112(3) 0.5011(7)
H37_9 H 0.7093 0.1016 0.5026
H38_9 H 0.6743 0.1483 0.4998
H39_9 H 0.6556 0.1029 0.5107
C32_9 C 0.6543(14) 0.0887(11) 0.4860(4)
C33_9 C 0.6065(17) 0.1004(11) 0.4812(4)
C34_9 C 0.6038(13) 0.0857(11) 0.4648(3)
C35_9 C 0.5574(19) 0.0850(13) 0.4549(6)
H40_9 H 0.5636 0.0693 0.4442
H41_9 H 0.5321 0.0664 0.4609
H42_9 H 0.5460 0.1188 0.4532
C45_9 C 0.8190(18) 0.007(2) 0.5057(6)
H52_9 H 0.7952 0.0321 0.5024
H54_9 H 0.8504 0.0217 0.5082
C51_9 C 0.575(3) 0.174(3) 0.1502(9)
H61_9 H 0.5553 0.2041 0.1502
H62_9 H 0.5758 0.1597 0.1392
H63_9 H 0.6092 0.1826 0.1535
C52_9 C 0.5544(12) 0.1382(10) 0.1623(4)
C53_9 C 0.5724(11) 0.0908(11) 0.1645(4)
C54_9 C 0.5558(15) 0.0776(14) 0.1801(4)
C55_9 C 0.565(4) 0.036(3) 0.1916(11)
H64_9 H 0.5436 0.0391 0.2013
H65_9 H 0.5994 0.0359 0.1951
H66_9 H 0.5576 0.0046 0.1860
C61_9 C 0.5584(14) 0.0430(19) 0.1310(7)
H73_9 H 0.5639 0.0266 0.1204
H74_9 H 0.5440 0.0755 0.1291
H75_9 H 0.5360 0.0232 0.1377
C62_9 C 0.6064(11) 0.0486(11) 0.1398(3)
C63_9 C 0.6141(8) 0.0695(10) 0.1552(3)
C64_9 C 0.6644(8) 0.0668(11) 0.1582(3)
C65_9 C 0.682(4) 0.090(2) 0.1740(6)
H76_9 H 0.7180 0.0870 0.1746
H77_9 H 0.6673 0.0723 0.1834
H78_9 H 0.6724 0.1243 0.1742
H79_9 H 0.8167 0.0172 0.1720
H80_9 H 0.8725 0.0016 0.1756
Ag24_5 Ag 0.46731(12) 0.20037(13) 0.17678(4)
Ag25_5 Ag 0.47295(12) 0.10976(14) 0.20494(4)
N39_5 N 0.4212(12) 0.1401(13) 0.5519(4)
N40_5 N 0.4108(13) 0.2847(15) 0.5066(5)
Ag1_5 Ag 0.74410(12) 0.46837(14) 0.31377(4)
Ag2_9 Ag 0.72192(13) 0.55108(14) 0.28373(4)
Ag3_5 Ag 0.32559(13) 0.52277(14) 0.46867(4)
Ag4_9 Ag 0.88105(14) 0.77175(14) 0.21395(5)
Ag9_9 Ag 0.77074(12) 0.94108(12) 0.44569(4)
Ag10_5 Ag 0.88933(12) 0.79290(13) 0.54052(4)
Ag11_5 Ag 0.53269(12) 0.70037(13) 0.07322(4)
Ag12_5 Ag 0.97295(12) 0.89024(14) 0.54506(4)
Ag13_9 Ag 0.66887(12) 0.98336(14) 0.11543(4)
Ag15_9 Ag 0.77275(12) 0.91043(15) 0.11752(4)
Ag16_9 Ag 0.51906(12) 0.64061(12) 0.37938(4)
Ag17_9 Ag 0.52414(13) 0.73675(13) 0.40527(4)
Ag18_9 Ag 0.60368(13) 0.73060(12) 0.37175(4)
N1_9 N 0.6831(16) 0.5227(14) 0.3169(3)
N2_9 N 0.6752(11) 0.5511(11) 0.3031(3)
N3_9 N 0.7793(12) 0.5647(10) 0.2672(4)
N4_5 N 0.8182(10) 0.5322(11) 0.2659(5)
N5_9 N 0.3377(14) 0.5716(16) 0.4506(5)
N6_5 N 0.3094(16) 0.5735(18) 0.4365(5)
N7_9 N 0.8847(15) 0.8246(14) 0.1976(5)
N8_5 N 0.9212(12) 0.8599(13) 0.1981(4)
N11_5 N 0.9108(13) 0.7153(15) 0.2434(5)
N12_9 N 0.8746(15) 0.7175(15) 0.2315(5)
N15_9 N 0.6748(11) 0.9605(11) 0.4270(3)
N16_9 N 0.7146(10) 0.9289(13) 0.4273(4)
N17_9 N 0.8133(10) 0.9455(11) 0.4660(4)
N18_9 N 0.8022(12) 0.9805(13) 0.4777(3)
N19_5 N 0.6149(11) 0.7579(11) 0.0581(4)
N20_9 N 0.5830(13) 0.7563(13) 0.0714(4)
N23_9 N 0.9235(10) 0.8902(9) 0.5255(3)
N24_9 N 0.8962(12) 0.8482(11) 0.5226(4)
N27_9 N 0.8148(8) 0.9585(8) 0.1471(2)
N28_9 N 0.8181(9) 0.9175(8) 0.1371(3)
N29_9 N 0.7182(10) 0.8974(11) 0.1000(4)
N30_9 N 0.6764(9) 0.9261(11) 0.0990(4)
N31_9 N 0.4718(10) 0.6439(10) 0.3985(3)
N32_9 N 0.4741(12) 0.6811(12) 0.4101(4)
N33_9 N 0.5782(11) 0.7880(12) 0.4017(4)
N34_9 N 0.6119(15) 0.7813(14) 0.3891(5)
N35_9 N 0.5981(12) 0.6692(12) 0.3557(4)
N36_9 N 0.5659(11) 0.6330(13) 0.3607(4)
C1_9 C 0.669(2) 0.5063(17) 0.3467(5)
H1_9 H 0.6926 0.4795 0.3451
H2_9 H 0.6362 0.4926 0.3486
H3_9 H 0.6789 0.5260 0.3563
C2_9 C 0.6683(12) 0.5383(11) 0.3317(3)
C3_9 C 0.6391(12) 0.5773(11) 0.3265(3)
C4_9 C 0.6460(14) 0.5852(12) 0.3097(3)
C5_9 C 0.636(3) 0.6315(17) 0.3003(8)
H4_9 H 0.6475 0.6274 0.2889
H5_9 H 0.6542 0.6588 0.3055
H6_9 H 0.6010 0.6385 0.3004
C6_9 C 0.7494(14) 0.6498(12) 0.2577(5)
H7_9 H 0.7175 0.6407 0.2625
H8_9 H 0.7451 0.6583 0.2461
H9_9 H 0.7628 0.6782 0.2637
C7_9 C 0.7842(9) 0.6074(10) 0.2592(4)
C8_9 C 0.8326(9) 0.6066(9) 0.2537(4)
C9_9 C 0.8518(9) 0.5626(9) 0.2596(4)
C10_9 C 0.9010(10) 0.5418(13) 0.2551(4)
H10_9 H 0.9047 0.5092 0.2601
H11_9 H 0.9270 0.5636 0.2593
H12_9 H 0.9036 0.5392 0.2431
C11_9 C 0.4213(13) 0.5946(16) 0.4572(5)
H13_9 H 0.4117 0.5787 0.4676
H14_9 H 0.4307 0.6288 0.4594
H15_9 H 0.4492 0.5770 0.4523
C12_9 C 0.3789(13) 0.5937(18) 0.4454(4)
C13_9 C 0.3757(12) 0.6122(17) 0.4295(4)
C14_9 C 0.3297(14) 0.5975(18) 0.4238(5)
C15_9 C 0.308(2) 0.611(2) 0.4076(5)
H16_9 H 0.2751 0.5957 0.4065
H17_9 H 0.3289 0.5996 0.3986
H18_9 H 0.3040 0.6469 0.4069
C16_9 C 0.818(2) 0.808(2) 0.1768(8)
H19_9 H 0.8102 0.7798 0.1841
H20_9 H 0.7896 0.8294 0.1760
H21_9 H 0.8265 0.7950 0.1658
C17_9 C 0.8610(16) 0.835(2) 0.1837(6)
C18_9 C 0.8777(13) 0.8785(13) 0.1764(4)
C19_9 C 0.9172(11) 0.8933(12) 0.1861(4)
C20_9 C 0.9492(15) 0.9366(18) 0.1823(7)
H22_9 H 0.9742 0.9401 0.1910
H23_9 H 0.9654 0.9316 0.1716
H24_9 H 0.9290 0.9665 0.1819
C26_9 C 0.923(2) 0.6650(18) 0.2681(4)
H31_9 H 0.9506 0.6883 0.2695
H32_9 H 0.8990 0.6705 0.2770
H33_9 H 0.9351 0.6315 0.2684
C27_9 C 0.8988(13) 0.6748(11) 0.2518(4)
C28_9 C 0.8550(11) 0.6522(12) 0.2472(4)
C29_9 C 0.8433(14) 0.6801(14) 0.2334(4)
C30_9 C 0.8055(16) 0.6713(14) 0.2203(5)
H34_9 H 0.8074 0.6974 0.2120
H35_9 H 0.8116 0.6394 0.2151
H36_9 H 0.7726 0.6713 0.2253
C36_9 C 0.5945(15) 0.9550(12) 0.4167(5)
H43_9 H 0.5947 0.9875 0.4219
H44_9 H 0.5887 0.9586 0.4048
H45_9 H 0.5683 0.9349 0.4216
C37_9 C 0.6430(11) 0.9304(12) 0.4195(4)
C38_9 C 0.6603(11) 0.8847(11) 0.4145(5)
C39_9 C 0.7086(10) 0.8851(10) 0.4202(4)
C40_9 C 0.7480(11) 0.8467(11) 0.4201(4)
H46_9 H 0.7773 0.8594 0.4258
H47_9 H 0.7361 0.8173 0.4259
H48_9 H 0.7564 0.8382 0.4087
C41_9 C 0.8580(13) 0.866(2) 0.4660(7)
H49_9 H 0.8448 0.8646 0.4548
H50_9 H 0.8940 0.8644 0.4656
H51_9 H 0.8451 0.8389 0.4726
C42_9 C 0.8430(10) 0.9140(12) 0.4738(3)
C43_9 C 0.8543(10) 0.9292(12) 0.4897(3)
C44_9 C 0.8247(12) 0.9703(13) 0.4920(4)
H53_9 H 0.8061 0.9896 0.5155
C46_9 C 0.6853(13) 0.8100(16) 0.0502(5)
H55_9 H 0.6837 0.7897 0.0402
H56_9 H 0.7177 0.8060 0.0554
H57_9 H 0.6804 0.8446 0.0473
C47_9 C 0.6461(11) 0.7942(11) 0.0620(3)
C48_9 C 0.6333(13) 0.8167(13) 0.0768(4)
C49_9 C 0.5924(15) 0.7912(15) 0.0826(4)
C50_9 C 0.5680(16) 0.7931(17) 0.0991(4)
H58_9 H 0.5414 0.7687 0.0995
H59_9 H 0.5543 0.8260 0.1009
H60_9 H 0.5922 0.7858 0.1077
C56_9 C 0.9341(13) 0.9732(9) 0.5143(5)
H67_9 H 0.9593 0.9748 0.5230
H68_9 H 0.9074 0.9962 0.5170
H69_9 H 0.9488 0.9823 0.5037
C57_9 C 0.9140(11) 0.9221(9) 0.5133(3)
C58_9 C 0.8767(11) 0.9024(10) 0.5036(3)
C59_9 C 0.8663(18) 0.8559(12) 0.5098(5)
C60_9 C 0.8319(14) 0.8169(13) 0.5038(5)
H70_9 H 0.8350 0.7876 0.5108
H71_9 H 0.8400 0.8084 0.4924
H72_9 H 0.7980 0.8291 0.5043
C66_9 C 0.8385(17) 0.9897(15) 0.1748(5)
H81_9 H 0.8285 0.9760 0.1855
C67_9 C 0.8351(11) 0.9508(11) 0.1619(3)
C68_9 C 0.8579(14) 0.9050(11) 0.1619(4)
C69_9 C 0.8415(11) 0.8859(10) 0.1470(3)
C70_9 C 0.8541(16) 0.8358(11) 0.1406(6)
H82_9 H 0.8368 0.8300 0.1302
H83_9 H 0.8442 0.8110 0.1488
H84_9 H 0.8897 0.8337 0.1388
C71_9 C 0.7494(15) 0.8216(15) 0.0907(6)
H85_9 H 0.7786 0.8355 0.0960
H86_9 H 0.7580 0.8104 0.0795
H87_9 H 0.7372 0.7937 0.0971
C72_9 C 0.7103(10) 0.8601(14) 0.0896(6)
C73_9 C 0.6606(10) 0.8550(9) 0.0859(4)
C74_9 C 0.6422(10) 0.9001(9) 0.0910(4)
C75_9 C 0.5934(12) 0.9244(18) 0.0887(6)
H88_9 H 0.5935 0.9566 0.0941
H89_9 H 0.5675 0.9038 0.0935
H90_9 H 0.5871 0.9287 0.0768
C76_9 C 0.4230(16) 0.573(2) 0.3936(6)
H91_9 H 0.4448 0.5722 0.3840
H92_9 H 0.4286 0.5435 0.4004
H93_9 H 0.3886 0.5733 0.3899
C77_9 C 0.4331(17) 0.6178(16) 0.4037(5)
C78_9 C 0.4135(11) 0.6338(13) 0.4186(4)
C79_9 C 0.4365(11) 0.6790(12) 0.4206(4)
C80_9 C 0.4350(14) 0.7119(16) 0.4354(4)
H94_9 H 0.4578 0.7395 0.4338
H95_9 H 0.4015 0.7247 0.4369
H96_9 H 0.4447 0.6933 0.4452
C81_9 C 0.567(2) 0.833(2) 0.4282(4)
H97_9 H 0.5374 0.8133 0.4292
H98_9 H 0.5904 0.8244 0.4370
H99_9 H 0.5585 0.8683 0.4293
C82_9 C 0.5906(11) 0.8248(10) 0.4118(3)
C83_9 C 0.6340(10) 0.8450(9) 0.4058(3)
C84_9 C 0.6428(13) 0.8189(13) 0.3913(3)
C85_9 C 0.684(2) 0.8270(17) 0.3793(6)
H100_9 H 0.6804 0.8041 0.3700
H101_9 H 0.6831 0.8608 0.3753
H102_9 H 0.7155 0.8207 0.3849
C86_9 C 0.6652(15) 0.6896(14) 0.3363(5)
H103_9 H 0.6613 0.7224 0.3411
H104_9 H 0.6976 0.6763 0.3392
H105_9 H 0.6624 0.6918 0.3242
C87_9 C 0.6259(10) 0.6562(15) 0.3428(5)
C88_9 C 0.6168(10) 0.6066(11) 0.3399(3)
C89_9 C 0.5783(11) 0.5962(11) 0.3506(4)
C90_9 C 0.5550(14) 0.546(2) 0.3500(8)
H106_9 H 0.5289 0.5444 0.3583
H107_9 H 0.5410 0.5409 0.3390
H108_9 H 0.5800 0.5212 0.3523
Ag19_5 Ag 0.24410(12) 0.53163(14) 0.43623(4)
Ag20_5 Ag 0.82559(13) 0.47723(14) 0.28133(4)
Ag21_5 Ag 0.96826(13) 0.86310(13) 0.21824(4)
Ag22_5 Ag 0.95991(14) 0.76950(13) 0.24667(5)
Ag23_5 Ag 0.61067(12) 0.70710(13) 0.04052(4)
N37_5 N 0.3182(10) 0.4678(11) 0.4841(5)
N38_5 N 0.8094(16) 0.4265(18) 0.3135(5)
N41_5 N 0.8851(11) 0.7421(11) 0.5581(4)
N42_5 N 0.4809(11) 0.6437(11) 0.0765(3)
Ag4_10 Ag 0.11895(14) 0.27175(14) 0.03605(5)
Ag13_10 Ag 0.33113(12) 0.48336(14) 0.13457(4)
Ag14_10 Ag 0.24826(12) 0.50586(13) 0.10500(4)
Ag15_10 Ag 0.22725(12) 0.41043(15) 0.13248(4)
N7_10 N 0.1153(15) 0.3246(14) 0.0524(5)
N8_6 N 0.0788(12) 0.3599(13) 0.0519(4)
N11_6 N 0.0892(13) 0.2153(15) 0.0066(5)
N12_10 N 0.1254(15) 0.2175(15) 0.0185(5)
N19_6 N 0.3851(11) 0.2579(11) 0.1919(4)
N20_10 N 0.4170(13) 0.2563(13) 0.1786(4)
N22_6 N 0.4779(11) 0.6089(10) 0.0641(3)
N25_10 N 0.3507(9) 0.5326(10) 0.1162(3)
N26_10 N 0.3152(10) 0.5443(9) 0.1047(3)
N27_10 N 0.1852(8) 0.4585(8) 0.1029(2)
N28_10 N 0.1819(9) 0.4175(8) 0.1129(3)
N29_10 N 0.2818(10) 0.3974(11) 0.1500(4)
N30_10 N 0.3236(9) 0.4261(11) 0.1510(4)
H8_10 H 0.2549 0.1583 0.0039
H12_10 H 0.0964 0.0392 0.0069
C16_10 C 0.182(2) 0.308(2) 0.0732(8)
H19_10 H 0.1898 0.2798 0.0659
H20_10 H 0.2104 0.3294 0.0740
H21_10 H 0.1735 0.2950 0.0842
C17_10 C 0.1390(16) 0.335(2) 0.0663(6)
C18_10 C 0.1223(13) 0.3785(13) 0.0736(4)
C19_10 C 0.0828(11) 0.3933(12) 0.0639(4)
C20_10 C 0.0508(15) 0.4366(18) 0.0677(7)
H22_10 H 0.0258 0.4401 0.0590
H23_10 H 0.0346 0.4316 0.0784
H24_10 H 0.0710 0.4665 0.0681
C28_10 C 0.1450(11) 0.1522(12) 0.0028(4)
C29_10 C 0.1567(14) 0.1801(14) 0.0166(4)
C30_10 C 0.1945(16) 0.1713(14) 0.0297(5)
H34_10 H 0.1926 0.1974 0.0380
H35_10 H 0.1884 0.1394 0.0349
H36_10 H 0.2274 0.1713 0.0247
C46_10 C 0.3147(13) 0.3100(16) 0.1998(5)
H55_10 H 0.3163 0.2897 0.2098
H56_10 H 0.2823 0.3060 0.1946
H57_10 H 0.3196 0.3446 0.2027
C47_10 C 0.3539(11) 0.2942(11) 0.1880(3)
C48_10 C 0.3667(13) 0.3167(13) 0.1732(4)
C49_10 C 0.4076(15) 0.2912(15) 0.1674(4)
C50_10 C 0.4320(16) 0.2931(17) 0.1509(4)
H58_10 H 0.4586 0.2687 0.1505
H59_10 H 0.4457 0.3260 0.1491
H60_10 H 0.4078 0.2858 0.1423
C51_10 C 0.425(3) 0.674(3) 0.0998(9)
H61_10 H 0.4447 0.7041 0.0998
H62_10 H 0.4242 0.6597 0.1108
H63_10 H 0.3908 0.6826 0.0965
C52_10 C 0.4456(12) 0.6382(10) 0.0877(4)
C53_10 C 0.4276(11) 0.5908(11) 0.0855(4)
C54_10 C 0.4442(15) 0.5776(14) 0.0699(4)
C55_10 C 0.435(4) 0.536(3) 0.0584(11)
H64_10 H 0.4564 0.5391 0.0487
H65_10 H 0.4006 0.5359 0.0549
H66_10 H 0.4424 0.5046 0.0640
C61_10 C 0.4416(14) 0.5430(19) 0.1190(7)
H73_10 H 0.4361 0.5266 0.1296
H74_10 H 0.4560 0.5755 0.1209
H75_10 H 0.4640 0.5232 0.1123
C62_10 C 0.3936(11) 0.5486(11) 0.1102(3)
C63_10 C 0.3859(8) 0.5695(10) 0.0948(3)
C64_10 C 0.3356(8) 0.5668(11) 0.0918(3)
C65_10 C 0.318(4) 0.590(2) 0.0760(6)
H76_10 H 0.2820 0.5870 0.0754
H77_10 H 0.3327 0.5723 0.0666
H78_10 H 0.3276 0.6243 0.0758
C66_10 C 0.1615(17) 0.4897(15) 0.0752(5)
H79_10 H 0.1833 0.5172 0.0780
H80_10 H 0.1275 0.5016 0.0744
H81_10 H 0.1715 0.4760 0.0645
C67_10 C 0.1649(11) 0.4508(11) 0.0881(3)
C68_10 C 0.1421(14) 0.4050(11) 0.0881(4)
C69_10 C 0.1585(11) 0.3859(10) 0.1030(3)
C70_10 C 0.1459(16) 0.3358(11) 0.1094(6)
H82_10 H 0.1632 0.3300 0.1198
H83_10 H 0.1558 0.3110 0.1012
H84_10 H 0.1103 0.3337 0.1112
C71_10 C 0.2506(15) 0.3216(15) 0.1593(6)
H85_10 H 0.2214 0.3355 0.1540
H86_10 H 0.2420 0.3104 0.1705
H87_10 H 0.2628 0.2937 0.1529
C72_10 C 0.2897(10) 0.3601(14) 0.1604(6)
C73_10 C 0.3394(10) 0.3550(9) 0.1641(4)
C74_10 C 0.3578(10) 0.4001(9) 0.1590(4)
C75_10 C 0.4066(12) 0.4244(18) 0.1613(6)
H88_10 H 0.4065 0.4566 0.1559
H89_10 H 0.4325 0.4038 0.1565
H90_10 H 0.4129 0.4287 0.1732
Ag21_6 Ag 0.03174(13) 0.36310(13) 0.03176(4)
Ag22_6 Ag 0.04009(14) 0.26950(13) 0.00333(5)
Ag23_6 Ag 0.38933(12) 0.20710(13) 0.20948(4)
Ag25_6 Ag 0.52705(12) 0.60976(14) 0.04506(4)
Ag2_10 Ag 0.27808(13) 0.05108(14) 0.96627(4)
Ag3_6 Ag 0.67441(13) 0.02277(14) 0.78133(4)
Ag5_6 Ag 0.53174(13) 0.63690(13) 0.71824(4)
Ag6_6 Ag 0.54009(14) 0.73050(13) 0.74667(5)
Ag7_10 Ag 0.25760(12) 0.52769(12) 0.77539(4)
Ag8_10 Ag 0.33389(12) 0.51601(12) 0.80749(4)
Ag9_10 Ag 0.22926(12) 0.44108(12) 0.80431(4)
Ag10_6 Ag 0.11067(12) 0.29290(13) 0.70948(4)
Ag12_6 Ag 0.02705(12) 0.39024(14) 0.70494(4)
Ag16_10 Ag 0.48094(12) 0.14061(12) 0.87062(4)
Ag17_10 Ag 0.47586(13) 0.23675(13) 0.84473(4)
Ag18_10 Ag 0.39632(13) 0.23060(12) 0.87825(4)
N1_10 N 0.3169(16) 0.0227(14) 0.9331(3)
N2_10 N 0.3248(11) 0.0511(11) 0.9469(3)
N3_10 N 0.2207(12) 0.0647(10) 0.9828(4)
N4_6 N 0.1818(10) 0.0322(11) 0.9841(5)
N5_10 N 0.6623(14) 0.0716(16) 0.7994(5)
N6_6 N 0.6906(16) 0.0735(18) 0.8135(5)
N9_10 N 0.4863(9) 0.6356(10) 0.7391(3)
N10_10 N 0.4919(10) 0.6770(11) 0.7487(4)
N13_10 N 0.3212(11) 0.5660(10) 0.7762(3)
N14_10 N 0.3545(13) 0.5623(10) 0.7890(4)
N15_10 N 0.3252(11) 0.4605(11) 0.8230(3)
N16_10 N 0.2854(10) 0.4289(13) 0.8227(4)
N17_10 N 0.1867(10) 0.4455(11) 0.7840(4)
N18_10 N 0.1978(12) 0.4805(13) 0.7723(3)
N23_10 N 0.0765(10) 0.3902(9) 0.7245(3)
N24_10 N 0.1038(12) 0.3482(11) 0.7274(4)
N31_10 N 0.5282(10) 0.1439(10) 0.8515(3)
N32_10 N 0.5259(12) 0.1811(12) 0.8399(4)
N33_10 N 0.4218(11) 0.2880(12) 0.8483(4)
N34_10 N 0.3881(15) 0.2813(14) 0.8609(5)
N35_10 N 0.4019(12) 0.1692(12) 0.8943(4)
N36_10 N 0.4341(11) 0.1330(13) 0.8893(4)
C1_10 C 0.331(2) 0.0063(17) 0.9033(5)
H3_10 H 0.3211 0.0260 0.8937
C2_10 C 0.3317(12) 0.0383(11) 0.9183(3)
C3_10 C 0.3609(12) 0.0773(11) 0.9235(3)
C4_10 C 0.3540(14) 0.0852(12) 0.9403(3)
C5_10 C 0.364(3) 0.1315(17) 0.9497(8)
H4_10 H 0.3525 0.1274 0.9611
H5_10 H 0.3458 0.1588 0.9445
H6_10 H 0.3990 0.1385 0.9496
C6_10 C 0.2506(14) 0.1498(12) 0.9923(5)
H7_10 H 0.2825 0.1407 0.9875
H9_10 H 0.2372 0.1782 0.9863
C7_10 C 0.2158(9) 0.1074(10) 0.9908(4)
C8_10 C 0.1674(9) 0.1066(9) 0.9963(4)
C9_10 C 0.1482(9) 0.0626(9) 0.9904(4)
C10_10 C 0.0990(10) 0.0418(13) 0.9949(4)
H10_10 H 0.0953 0.0092 0.9899
H11_10 H 0.0730 0.0636 0.9907
C11_10 C 0.5787(13) 0.0946(16) 0.7928(5)
H13_10 H 0.5883 0.0787 0.7824
H14_10 H 0.5693 0.1288 0.7906
H15_10 H 0.5508 0.0770 0.7977
C12_10 C 0.6211(13) 0.0937(18) 0.8046(4)
C13_10 C 0.6243(12) 0.1122(17) 0.8205(4)
C14_10 C 0.6703(14) 0.0975(18) 0.8262(5)
C15_10 C 0.692(2) 0.111(2) 0.8424(5)
H16_10 H 0.7249 0.0957 0.8435
H17_10 H 0.6711 0.0996 0.8514
H18_10 H 0.6960 0.1469 0.8431
C21_10 C 0.4471(13) 0.5621(16) 0.7343(5)
H25_10 H 0.4723 0.5631 0.7257
H26_10 H 0.4496 0.5310 0.7404
H27_10 H 0.4144 0.5647 0.7293
C22_10 C 0.4547(11) 0.6041(11) 0.7460(4)
C23_10 C 0.4313(11) 0.6269(11) 0.7592(4)
C24_10 C 0.4581(13) 0.6702(15) 0.7605(5)
C25_10 C 0.447(2) 0.704(2) 0.7746(6)
H28_10 H 0.4691 0.7326 0.7741
H29_10 H 0.4129 0.7151 0.7739
H30_10 H 0.4522 0.6865 0.7850
C26_10 C 0.077(2) 0.1650(18) 0.9819(4)
H31_10 H 0.0494 0.1883 0.9805
H32_10 H 0.1010 0.1705 0.9730
H33_10 H 0.0649 0.1315 0.9816
C27_10 C 0.1012(13) 0.1748(11) 0.9982(4)
C31_10 C 0.325(3) 0.612(3) 0.7489(7)
H37_10 H 0.2907 0.6016 0.7474
H38_10 H 0.3257 0.6483 0.7502
H39_10 H 0.3444 0.6029 0.7393
C32_10 C 0.3457(14) 0.5887(11) 0.7640(4)
C33_10 C 0.3935(17) 0.6004(11) 0.7688(4)
C34_10 C 0.3962(13) 0.5857(11) 0.7852(3)
C35_10 C 0.4426(19) 0.5850(13) 0.7951(6)
H40_10 H 0.4364 0.5693 0.8058
H41_10 H 0.4679 0.5664 0.7891
H42_10 H 0.4540 0.6188 0.7968
C36_10 C 0.4055(15) 0.4550(12) 0.8333(5)
H43_10 H 0.4053 0.4875 0.8281
H44_10 H 0.4113 0.4586 0.8452
H45_10 H 0.4317 0.4349 0.8284
C37_10 C 0.3570(11) 0.4304(12) 0.8305(4)
C38_10 C 0.3397(11) 0.3847(11) 0.8355(5)
C39_10 C 0.2914(10) 0.3851(10) 0.8298(4)
C40_10 C 0.2520(11) 0.3467(11) 0.8299(4)
H46_10 H 0.2227 0.3594 0.8242
H47_10 H 0.2639 0.3173 0.8241
H48_10 H 0.2436 0.3382 0.8413
C41_10 C 0.1420(13) 0.366(2) 0.7840(7)
H49_10 H 0.1552 0.3646 0.7952
H50_10 H 0.1060 0.3644 0.7844
H51_10 H 0.1549 0.3389 0.7774
C42_10 C 0.1570(10) 0.4140(12) 0.7762(3)
C43_10 C 0.1457(10) 0.4292(12) 0.7603(3)
C44_10 C 0.1753(12) 0.4703(13) 0.7580(4)
C45_10 C 0.1810(18) 0.507(2) 0.7443(6)
H52_10 H 0.2048 0.5321 0.7476
H53_10 H 0.1939 0.4896 0.7345
H54_10 H 0.1496 0.5217 0.7418
C56_10 C 0.0659(13) 0.4732(9) 0.7357(5)
H67_10 H 0.0407 0.4748 0.7270
H68_10 H 0.0926 0.4962 0.7330
H69_10 H 0.0512 0.4823 0.7463
C57_10 C 0.0860(11) 0.4221(9) 0.7367(3)
C58_10 C 0.1233(11) 0.4024(10) 0.7464(3)
C59_10 C 0.1337(18) 0.3559(12) 0.7402(5)
C60_10 C 0.1681(14) 0.3169(13) 0.7462(5)
H70_10 H 0.1650 0.2876 0.7392
H71_10 H 0.1600 0.3084 0.7576
H72_10 H 0.2020 0.3291 0.7457
C76_10 C 0.5770(16) 0.073(2) 0.8564(6)
H91_10 H 0.5552 0.0722 0.8660
H92_10 H 0.5714 0.0435 0.8496
H93_10 H 0.6114 0.0733 0.8601
C77_10 C 0.5669(17) 0.1178(16) 0.8463(5)
C78_10 C 0.5865(11) 0.1338(13) 0.8314(4)
C79_10 C 0.5635(11) 0.1790(12) 0.8294(4)
C80_10 C 0.5650(14) 0.2119(16) 0.8146(4)
H94_10 H 0.5422 0.2395 0.8162
H95_10 H 0.5985 0.2247 0.8131
H96_10 H 0.5553 0.1933 0.8048
C81_10 C 0.433(2) 0.333(2) 0.8218(4)
H97_10 H 0.4626 0.3133 0.8208
H98_10 H 0.4096 0.3244 0.8130
H99_10 H 0.4415 0.3683 0.8207
C82_10 C 0.4094(11) 0.3248(10) 0.8382(3)
C83_10 C 0.3660(10) 0.3450(9) 0.8442(3)
C84_10 C 0.3572(13) 0.3189(13) 0.8587(3)
C85_10 C 0.316(2) 0.3270(17) 0.8707(6)
H100_10 H 0.3196 0.3041 0.8800
H101_10 H 0.3169 0.3608 0.8747
H102_10 H 0.2845 0.3207 0.8651
C86_10 C 0.3348(15) 0.1896(14) 0.9137(5)
H103_10 H 0.3387 0.2224 0.9089
H104_10 H 0.3024 0.1763 0.9108
H105_10 H 0.3376 0.1918 0.9258
C87_10 C 0.3741(10) 0.1562(15) 0.9072(5)
C88_10 C 0.3832(10) 0.1066(11) 0.9101(3)
C89_10 C 0.4217(11) 0.0962(11) 0.8994(4)
C90_10 C 0.4450(14) 0.046(2) 0.9000(8)
H106_10 H 0.4711 0.0444 0.8917
H107_10 H 0.4590 0.0409 0.9110
H108_10 H 0.4200 0.0212 0.8977
Ag19_6 Ag 0.75590(12) 0.03163(14) 0.81377(4)
N39_6 N 0.5788(12) 0.6401(13) 0.6981(4)
N40_6 N 0.5892(13) 0.7847(15) 0.7434(5)
N41_6 N 0.1149(11) 0.2421(11) 0.6919(4)
Ag1_6 Ag 0.25590(12) 0.96837(14) 0.93623(4)
H1_10 H 0.3074 0.9795 0.9049
H2_10 H 0.3638 0.9926 0.9014
Ag20_6 Ag 0.17441(13) 0.97723(14) 0.96867(4)
N37_6 N 0.6818(10) 0.9678(11) 0.7659(5)
N38_6 N 0.1906(16) 0.9265(18) 0.9365(5)
N43_6 N 0.9779(11) 0.3911(10) 0.6859(3)
N5_11 N 0.1623(14) 0.9284(16) 0.9506(5)
N31_11 N 0.0282(10) 0.8561(10) 0.8985(3)
N32_11 N 0.0259(12) 0.8189(12) 0.9101(4)
C11_11 C 0.0787(13) 0.9054(16) 0.9572(5)
H13_11 H 0.0883 0.9213 0.9676
H14_11 H 0.0693 0.8712 0.9594
H15_11 H 0.0508 0.9230 0.9523
C12_11 C 0.1211(13) 0.9063(18) 0.9454(4)
C13_11 C 0.1243(12) 0.8878(17) 0.9295(4)
C14_11 C 0.1703(14) 0.9025(18) 0.9238(5)
C15_11 C 0.192(2) 0.889(2) 0.9076(5)
H16_11 H 0.2249 0.9043 0.9065
H17_11 H 0.1711 0.9004 0.8986
H18_11 H 0.1960 0.8531 0.9069
C76_11 C 0.0770(16) 0.927(2) 0.8936(6)
H91_11 H 0.0552 0.9278 0.8840
H92_11 H 0.0714 0.9565 0.9004
H93_11 H 0.1114 0.9267 0.8899
C77_11 C 0.0669(17) 0.8822(16) 0.9037(5)
C78_11 C 0.0865(11) 0.8662(13) 0.9186(4)
C79_11 C 0.0635(11) 0.8210(12) 0.9206(4)
C80_11 C 0.0650(14) 0.7881(16) 0.9354(4)
H94_11 H 0.0422 0.7605 0.9338
H95_11 H 0.0985 0.7753 0.9369
H96_11 H 0.0553 0.8067 0.9452
Ag24_6 Ag 0.03269(12) 0.29963(13) 0.67678(4)
N42_6 N 0.0191(11) 0.8563(11) 0.5765(3)
H1_11 H 0.8074 0.0205 0.8451
H2_11 H 0.8638 0.0074 0.8486
N9_11 N 0.9863(9) 0.3644(10) 0.0109(3)
N10_11 N 0.9919(10) 0.3230(11) 0.0013(4)
N23_11 N 0.5765(10) 0.6098(9) 0.0255(3)
N24_11 N 0.6038(12) 0.6518(11) 0.0226(4)
C21_11 C 0.9471(13) 0.4379(16) 0.0157(5)
H25_11 H 0.9723 0.4369 0.0243
H26_11 H 0.9496 0.4690 0.0096
H27_11 H 0.9144 0.4353 0.0207
C22_11 C 0.9547(11) 0.3959(11) 0.0040(4)
C31_11 C 0.825(3) 0.388(3) 0.0011(7)
H37_11 H 0.7907 0.3984 0.0026
H39_11 H 0.8444 0.3971 0.0107
C45_11 C 0.6810(18) 0.493(2) 0.0057(6)
H52_11 H 0.7048 0.4679 0.0024
H53_11 H 0.6939 0.5104 0.0155
H54_11 H 0.6496 0.4783 0.0082
C56_11 C 0.5659(13) 0.5268(9) 0.0143(5)
H67_11 H 0.5407 0.5252 0.0230
H68_11 H 0.5926 0.5038 0.0170
H69_11 H 0.5512 0.5177 0.0037
C57_11 C 0.5860(11) 0.5779(9) 0.0133(3)
C58_11 C 0.6233(11) 0.5976(10) 0.0036(3)
C59_11 C 0.6337(18) 0.6441(12) 0.0098(5)
C60_11 C 0.6681(14) 0.6831(13) 0.0038(5)
H70_11 H 0.6650 0.7124 0.0108
H72_11 H 0.7020 0.6709 0.0043
Ag2_11 Ag 0.77808(13) 0.94892(14) 0.78373(4)
Ag4_11 Ag 0.61895(14) 0.72825(14) 0.71395(5)
Ag7_11 Ag 0.75760(12) 0.47231(12) 0.97461(4)
Ag8_11 Ag 0.83389(12) 0.48399(12) 0.94251(4)
Ag9_11 Ag 0.72926(12) 0.55892(12) 0.94569(4)
Ag11_6 Ag 0.96731(12) 0.79963(13) 0.57322(4)
Ag13_11 Ag 0.83113(12) 0.51664(14) 0.61543(4)
Ag14_11 Ag 0.74826(12) 0.49414(13) 0.64500(4)
Ag15_11 Ag 0.72725(12) 0.58957(15) 0.61752(4)
Ag16_11 Ag 0.98094(12) 0.85939(12) 0.87938(4)
Ag17_11 Ag 0.97586(13) 0.76325(13) 0.90527(4)
Ag18_11 Ag 0.89632(13) 0.76940(12) 0.87175(4)
N1_11 N 0.8169(16) 0.9773(14) 0.8169(3)
N2_11 N 0.8248(11) 0.9489(11) 0.8031(3)
N3_11 N 0.7207(12) 0.9353(10) 0.7672(4)
N7_11 N 0.6153(15) 0.6754(14) 0.6976(5)
N12_11 N 0.6254(15) 0.7825(15) 0.7315(5)
N13_11 N 0.8212(11) 0.4340(10) 0.9738(3)
N14_11 N 0.8545(13) 0.4377(10) 0.9610(4)
N15_11 N 0.8252(11) 0.5395(11) 0.9270(3)
N16_11 N 0.7854(10) 0.5711(13) 0.9273(4)
N17_11 N 0.6867(10) 0.5545(11) 0.9660(4)
N18_11 N 0.6978(12) 0.5195(13) 0.9777(3)
N20_11 N 0.9170(13) 0.7437(13) 0.5714(4)
N21_6 N 0.9809(11) 0.3563(11) 0.6735(3)
N25_11 N 0.8507(9) 0.4674(10) 0.6338(3)
N26_11 N 0.8152(10) 0.4557(9) 0.6453(3)
N27_11 N 0.6852(8) 0.5415(8) 0.6471(2)
N28_11 N 0.6819(9) 0.5825(8) 0.6371(3)
N29_11 N 0.7818(10) 0.6026(11) 0.6000(4)
N30_11 N 0.8236(9) 0.5739(11) 0.5990(4)
N33_11 N 0.9218(11) 0.7120(12) 0.9017(4)
N34_11 N 0.8881(15) 0.7187(14) 0.8891(5)
N35_11 N 0.9019(12) 0.8308(12) 0.8557(4)
N36_11 N 0.9341(11) 0.8670(13) 0.8607(4)
C1_11 C 0.831(2) 0.9937(17) 0.8467(5)
H3_11 H 0.8211 0.9740 0.8563
C2_11 C 0.8317(12) 0.9617(11) 0.8317(3)
C3_11 C 0.8609(12) 0.9227(11) 0.8265(3)
C4_11 C 0.8540(14) 0.9148(12) 0.8097(3)
C5_11 C 0.864(3) 0.8685(17) 0.8003(8)
H4_11 H 0.8525 0.8726 0.7889
H5_11 H 0.8458 0.8412 0.8055
H6_11 H 0.8990 0.8615 0.8004
C6_11 C 0.7506(14) 0.8502(12) 0.7577(5)
H7_11 H 0.7825 0.8593 0.7625
H8_11 H 0.7549 0.8417 0.7461
H9_11 H 0.7372 0.8218 0.7637
C7_11 C 0.7158(9) 0.8926(10) 0.7592(4)
C8_11 C 0.6674(9) 0.8934(9) 0.7537(4)
C9_11 C 0.6482(9) 0.9374(9) 0.7596(4)
C10_11 C 0.5990(10) 0.9582(13) 0.7551(4)
H10_11 H 0.5953 0.9908 0.7601
H11_11 H 0.5730 0.9364 0.7593
H12_11 H 0.5964 0.9608 0.7431
C16_11 C 0.682(2) 0.692(2) 0.6768(8)
H19_11 H 0.6898 0.7202 0.6841
H20_11 H 0.7104 0.6706 0.6760
H21_11 H 0.6735 0.7050 0.6658
C17_11 C 0.6390(16) 0.665(2) 0.6837(6)
C18_11 C 0.6223(13) 0.6215(13) 0.6764(4)
C19_11 C 0.5828(11) 0.6067(12) 0.6861(4)
C20_11 C 0.5508(15) 0.5634(18) 0.6823(7)
H22_11 H 0.5258 0.5599 0.6910
H23_11 H 0.5346 0.5684 0.6716
H24_11 H 0.5710 0.5335 0.6819
C23_11 C 0.9313(11) 0.3731(11) 0.9908(4)
C24_11 C 0.9581(13) 0.3298(15) 0.9895(5)
C25_11 C 0.947(2) 0.296(2) 0.9754(6)
H28_11 H 0.9691 0.2674 0.9759
H29_11 H 0.9129 0.2849 0.9761
H30_11 H 0.9522 0.3135 0.9650
C26_11 C 0.577(2) 0.8350(18) 0.7681(4)
H31_11 H 0.5494 0.8117 0.7695
H32_11 H 0.6010 0.8295 0.7770
H33_11 H 0.5649 0.8685 0.7684
C27_11 C 0.6012(13) 0.8252(11) 0.7518(4)
C28_11 C 0.6450(11) 0.8478(12) 0.7472(4)
C29_11 C 0.6567(14) 0.8199(14) 0.7334(4)
C30_11 C 0.6945(16) 0.8287(14) 0.7203(5)
H34_11 H 0.6926 0.8026 0.7120
H35_11 H 0.6884 0.8606 0.7151
H36_11 H 0.7274 0.8287 0.7253
H38_11 H 0.8257 0.3517 0.9998
C32_11 C 0.8457(14) 0.4113(11) 0.9860(4)
C33_11 C 0.8935(17) 0.3996(11) 0.9812(4)
C34_11 C 0.8962(13) 0.4143(11) 0.9648(3)
C35_11 C 0.9426(19) 0.4150(13) 0.9549(6)
H40_11 H 0.9364 0.4307 0.9442
H41_11 H 0.9679 0.4336 0.9609
H42_11 H 0.9540 0.3812 0.9532
C36_11 C 0.9055(15) 0.5450(12) 0.9167(5)
H43_11 H 0.9053 0.5125 0.9219
H44_11 H 0.9113 0.5414 0.9048
H45_11 H 0.9317 0.5651 0.9216
C37_11 C 0.8570(11) 0.5696(12) 0.9195(4)
C38_11 C 0.8397(11) 0.6153(11) 0.9145(5)
C39_11 C 0.7914(10) 0.6149(10) 0.9202(4)
C40_11 C 0.7520(11) 0.6533(11) 0.9201(4)
H46_11 H 0.7227 0.6406 0.9258
H47_11 H 0.7639 0.6827 0.9259
H48_11 H 0.7436 0.6618 0.9087
C41_11 C 0.6420(13) 0.634(2) 0.9660(7)
H49_11 H 0.6552 0.6354 0.9548
H50_11 H 0.6060 0.6356 0.9656
H51_11 H 0.6549 0.6611 0.9726
C42_11 C 0.6570(10) 0.5860(12) 0.9738(3)
C43_11 C 0.6457(10) 0.5708(12) 0.9897(3)
C44_11 C 0.6753(12) 0.5297(13) 0.9920(4)
C46_11 C 0.8147(13) 0.6900(16) 0.5502(5)
H55_11 H 0.8163 0.7103 0.5402
H56_11 H 0.7823 0.6940 0.5554
H57_11 H 0.8196 0.6554 0.5473
C47_11 C 0.8539(11) 0.7058(11) 0.5620(3)
C48_11 C 0.8667(13) 0.6833(13) 0.5768(4)
C49_11 C 0.9076(15) 0.7088(15) 0.5826(4)
C50_11 C 0.9320(16) 0.7069(17) 0.5991(4)
H58_11 H 0.9586 0.7313 0.5995
H59_11 H 0.9457 0.6740 0.6009
H60_11 H 0.9078 0.7142 0.6077
C51_11 C 0.925(3) 0.326(3) 0.6502(9)
H61_11 H 0.9447 0.2959 0.6502
H62_11 H 0.9242 0.3403 0.6392
H63_11 H 0.8908 0.3174 0.6535
C52_11 C 0.9456(12) 0.3618(10) 0.6623(4)
C53_11 C 0.9276(11) 0.4092(11) 0.6645(4)
C54_11 C 0.9442(15) 0.4224(14) 0.6801(4)
C55_11 C 0.935(4) 0.464(3) 0.6916(11)
H64_11 H 0.9564 0.4609 0.7013
H65_11 H 0.9006 0.4641 0.6951
H66_11 H 0.9424 0.4954 0.6860
H71_11 H 0.6600 0.6916 0.9924
C61_11 C 0.9416(14) 0.4570(19) 0.6310(7)
H73_11 H 0.9361 0.4734 0.6204
H74_11 H 0.9560 0.4245 0.6291
H75_11 H 0.9640 0.4768 0.6377
C62_11 C 0.8936(11) 0.4514(11) 0.6398(3)
C63_11 C 0.8859(8) 0.4305(10) 0.6552(3)
C64_11 C 0.8356(8) 0.4332(11) 0.6582(3)
C65_11 C 0.818(4) 0.410(2) 0.6740(6)
H76_11 H 0.7820 0.4130 0.6746
H77_11 H 0.8327 0.4277 0.6834
H78_11 H 0.8276 0.3757 0.6742
C66_11 C 0.6615(17) 0.5103(15) 0.6748(5)
H79_11 H 0.6833 0.4828 0.6720
H80_11 H 0.6275 0.4984 0.6756
H81_11 H 0.6715 0.5240 0.6855
C67_11 C 0.6649(11) 0.5492(11) 0.6619(3)
C68_11 C 0.6421(14) 0.5950(11) 0.6619(4)
C69_11 C 0.6585(11) 0.6141(10) 0.6470(3)
C70_11 C 0.6459(16) 0.6642(11) 0.6406(6)
H82_11 H 0.6632 0.6700 0.6302
H83_11 H 0.6558 0.6890 0.6488
H84_11 H 0.6103 0.6663 0.6388
C71_11 C 0.7506(15) 0.6784(15) 0.5907(6)
H85_11 H 0.7214 0.6645 0.5960
H86_11 H 0.7420 0.6896 0.5795
H87_11 H 0.7628 0.7063 0.5971
C72_11 C 0.7897(10) 0.6399(14) 0.5896(6)
C73_11 C 0.8394(10) 0.6450(9) 0.5859(4)
C74_11 C 0.8578(10) 0.5999(9) 0.5910(4)
C75_11 C 0.9066(12) 0.5756(18) 0.5887(6)
H88_11 H 0.9065 0.5434 0.5941
H89_11 H 0.9325 0.5962 0.5935
H90_11 H 0.9129 0.5713 0.5768
C81_11 C 0.933(2) 0.667(2) 0.9282(4)
H97_11 H 0.9626 0.6867 0.9292
H98_11 H 0.9096 0.6756 0.9370
H99_11 H 0.9415 0.6317 0.9293
C82_11 C 0.9094(11) 0.6752(10) 0.9118(3)
C83_11 C 0.8660(10) 0.6550(9) 0.9058(3)
C84_11 C 0.8572(13) 0.6811(13) 0.8913(3)
C85_11 C 0.816(2) 0.6730(17) 0.8793(6)
H100_11 H 0.8196 0.6959 0.8700
H101_11 H 0.8169 0.6392 0.8753
H102_11 H 0.7845 0.6793 0.8849
C86_11 C 0.8348(15) 0.8104(14) 0.8363(5)
H103_11 H 0.8387 0.7776 0.8411
H104_11 H 0.8024 0.8237 0.8392
H105_11 H 0.8376 0.8082 0.8242
C87_11 C 0.8741(10) 0.8438(15) 0.8428(5)
C88_11 C 0.8832(10) 0.8934(11) 0.8399(3)
C89_11 C 0.9217(11) 0.9038(11) 0.8506(4)
C90_11 C 0.9450(14) 0.954(2) 0.8500(8)
H106_11 H 0.9711 0.9556 0.8583
H107_11 H 0.9590 0.9591 0.8390
H108_11 H 0.9200 0.9788 0.8523
Ag2_12 Ag 0.22192(13) 0.44892(14) 0.46627(4)
Ag4_12 Ag 0.38105(14) 0.22825(14) 0.53605(5)
Ag9_12 Ag 0.27074(12) 0.05892(12) 0.30431(4)
Ag13_12 Ag 0.16887(12) 0.01664(14) 0.63457(4)
Ag15_12 Ag 0.27275(12) 0.08957(15) 0.63248(4)
Ag16_12 Ag 0.01906(12) 0.35939(12) 0.37062(4)
Ag17_12 Ag 0.02414(13) 0.26325(13) 0.34473(4)
Ag18_12 Ag 0.10368(13) 0.26940(12) 0.37825(4)
N1_12 N 0.1831(16) 0.4773(14) 0.4331(3)
N2_12 N 0.1752(11) 0.4489(11) 0.4469(3)
N3_12 N 0.2793(12) 0.4353(10) 0.4828(4)
N7_12 N 0.3847(15) 0.1754(14) 0.5524(5)
N12_12 N 0.3746(15) 0.2825(15) 0.5185(5)
N15_12 N 0.1748(11) 0.0395(11) 0.3230(3)
N16_12 N 0.2146(10) 0.0711(13) 0.3227(4)
N17_12 N 0.3133(10) 0.0545(11) 0.2840(4)
N18_12 N 0.3022(12) 0.0195(13) 0.2723(3)
N20_12 N 0.0830(13) 0.2437(13) 0.6786(4)
N23_12 N 0.4235(10) 0.1098(9) 0.2245(3)
N24_12 N 0.3962(12) 0.1518(11) 0.2274(4)
N27_12 N 0.3148(8) 0.0415(8) 0.6029(2)
N28_12 N 0.3181(9) 0.0825(8) 0.6129(3)
N29_12 N 0.2182(10) 0.1026(11) 0.6500(4)
N30_12 N 0.1764(9) 0.0739(11) 0.6510(4)
N33_12 N 0.0782(11) 0.2120(12) 0.3483(4)
N34_12 N 0.1119(15) 0.2187(14) 0.3609(5)
N35_12 N 0.0981(12) 0.3308(12) 0.3943(4)
N36_12 N 0.0659(11) 0.3670(13) 0.3893(4)
C1_12 C 0.169(2) 0.4937(17) 0.4033(5)
H1_12 H 0.1926 0.5205 0.4049
H2_12 H 0.1362 0.5074 0.4014
H3_12 H 0.1789 0.4740 0.3937
C2_12 C 0.1683(12) 0.4617(11) 0.4183(3)
C3_12 C 0.1391(12) 0.4227(11) 0.4235(3)
C4_12 C 0.1460(14) 0.4148(12) 0.4403(3)
C5_12 C 0.136(3) 0.3685(17) 0.4497(8)
H4_12 H 0.1475 0.3726 0.4611
H5_12 H 0.1542 0.3412 0.4445
H6_12 H 0.1010 0.3615 0.4496
C6_12 C 0.2494(14) 0.3502(12) 0.4923(5)
H7_12 H 0.2175 0.3593 0.4875
H8_12 H 0.2451 0.3417 0.5039
H9_12 H 0.2628 0.3218 0.4863
C7_12 C 0.2842(9) 0.3926(10) 0.4908(4)
C8_12 C 0.3326(9) 0.3934(9) 0.4963(4)
C9_12 C 0.3518(9) 0.4374(9) 0.4904(4)
C10_12 C 0.4010(10) 0.4582(13) 0.4949(4)
H10_12 H 0.4047 0.4908 0.4899
H11_12 H 0.4270 0.4364 0.4907
H12_12 H 0.4036 0.4608 0.5069
C16_12 C 0.318(2) 0.192(2) 0.5732(8)
H19_12 H 0.3102 0.2202 0.5659
H20_12 H 0.2896 0.1706 0.5740
H21_12 H 0.3265 0.2050 0.5842
C17_12 C 0.3610(16) 0.165(2) 0.5663(6)
C18_12 C 0.3777(13) 0.1215(13) 0.5736(4)
C19_12 C 0.4172(11) 0.1067(12) 0.5639(4)
C20_12 C 0.4492(15) 0.0634(18) 0.5677(7)
H22_12 H 0.4742 0.0599 0.5590
H23_12 H 0.4654 0.0684 0.5784
H24_12 H 0.4290 0.0335 0.5681
C26_12 C 0.423(2) 0.3350(18) 0.4819(4)
H31_12 H 0.4506 0.3117 0.4805
H32_12 H 0.3990 0.3295 0.4730
H33_12 H 0.4351 0.3685 0.4816
C27_12 C 0.3988(13) 0.3252(11) 0.4982(4)
C28_12 C 0.3550(11) 0.3478(12) 0.5028(4)
C29_12 C 0.3433(14) 0.3199(14) 0.5166(4)
C30_12 C 0.3055(16) 0.3287(14) 0.5297(5)
H34_12 H 0.3074 0.3026 0.5380
H35_12 H 0.3116 0.3606 0.5349
H36_12 H 0.2726 0.3287 0.5247
C36_12 C 0.0945(15) 0.0450(12) 0.3333(5)
H43_12 H 0.0947 0.0125 0.3281
H44_12 H 0.0887 0.0414 0.3452
H45_12 H 0.0683 0.0651 0.3284
C37_12 C 0.1430(11) 0.0696(12) 0.3305(4)
C38_12 C 0.1603(11) 0.1153(11) 0.3355(5)
C39_12 C 0.2086(10) 0.1149(10) 0.3298(4)
C40_12 C 0.2480(11) 0.1533(11) 0.3299(4)
H46_12 H 0.2773 0.1406 0.3242
H47_12 H 0.2361 0.1827 0.3241
H48_12 H 0.2564 0.1618 0.3413
C41_12 C 0.3580(13) 0.134(2) 0.2840(7)
H49_12 H 0.3448 0.1354 0.2952
H50_12 H 0.3940 0.1356 0.2844
H51_12 H 0.3451 0.1611 0.2774
C42_12 C 0.3430(10) 0.0860(12) 0.2762(3)
C43_12 C 0.3543(10) 0.0708(12) 0.2603(3)
C44_12 C 0.3247(12) 0.0297(13) 0.2580(4)
H53_12 H 0.3061 0.0104 0.2345
C46_12 C 0.1853(13) 0.1900(16) 0.6998(5)
H55_12 H 0.1837 0.2103 0.7098
H56_12 H 0.2177 0.1940 0.6946
H57_12 H 0.1804 0.1554 0.7027
C47_12 C 0.1461(11) 0.2058(11) 0.6880(3)
C48_12 C 0.1333(13) 0.1833(13) 0.6732(4)
C49_12 C 0.0924(15) 0.2088(15) 0.6674(4)
C50_12 C 0.0680(16) 0.2069(17) 0.6509(4)
H58_12 H 0.0414 0.2313 0.6505
H59_12 H 0.0543 0.1740 0.6491
H60_12 H 0.0922 0.2142 0.6423
C56_12 C 0.4341(13) 0.0268(9) 0.2357(5)
H67_12 H 0.4593 0.0252 0.2270
H68_12 H 0.4074 0.0038 0.2330
H69_12 H 0.4488 0.0177 0.2463
C57_12 C 0.4140(11) 0.0779(9) 0.2367(3)
C58_12 C 0.3767(11) 0.0976(10) 0.2464(3)
C59_12 C 0.3663(18) 0.1441(12) 0.2402(5)
C60_12 C 0.3319(14) 0.1831(13) 0.2462(5)
H70_12 H 0.3350 0.2124 0.2392
H71_12 H 0.3400 0.1916 0.2576
H72_12 H 0.2980 0.1709 0.2457
C66_12 C 0.3385(17) 0.0103(15) 0.5752(5)
H81_12 H 0.3285 0.0240 0.5645
C67_12 C 0.3351(11) 0.0492(11) 0.5881(3)
C68_12 C 0.3579(14) 0.0950(11) 0.5881(4)
C69_12 C 0.3415(11) 0.1141(10) 0.6030(3)
C70_12 C 0.3541(16) 0.1642(11) 0.6094(6)
H82_12 H 0.3368 0.1700 0.6198
H83_12 H 0.3442 0.1890 0.6012
H84_12 H 0.3897 0.1663 0.6112
C71_12 C 0.2494(15) 0.1784(15) 0.6593(6)
H85_12 H 0.2786 0.1645 0.6540
H86_12 H 0.2580 0.1896 0.6705
H87_12 H 0.2372 0.2063 0.6529
C72_12 C 0.2103(10) 0.1399(14) 0.6604(6)
C73_12 C 0.1606(10) 0.1450(9) 0.6641(4)
C74_12 C 0.1422(10) 0.0999(9) 0.6590(4)
C75_12 C 0.0934(12) 0.0756(18) 0.6613(6)
H88_12 H 0.0935 0.0434 0.6559
H89_12 H 0.0675 0.0962 0.6565
H90_12 H 0.0871 0.0713 0.6732
C81_12 C 0.067(2) 0.167(2) 0.3218(4)
H97_12 H 0.0374 0.1867 0.3208
H98_12 H 0.0904 0.1756 0.3130
H99_12 H 0.0585 0.1317 0.3207
C82_12 C 0.0906(11) 0.1752(10) 0.3382(3)
C83_12 C 0.1340(10) 0.1550(9) 0.3442(3)
C84_12 C 0.1428(13) 0.1811(13) 0.3587(3)
C85_12 C 0.184(2) 0.1730(17) 0.3707(6)
H100_12 H 0.1804 0.1959 0.3800
H101_12 H 0.1831 0.1392 0.3747
H102_12 H 0.2155 0.1793 0.3651
C86_12 C 0.1652(15) 0.3104(14) 0.4137(5)
H103_12 H 0.1613 0.2776 0.4089
H104_12 H 0.1976 0.3237 0.4108
H105_12 H 0.1624 0.3082 0.4258
C87_12 C 0.1259(10) 0.3438(15) 0.4072(5)
C88_12 C 0.1168(10) 0.3934(11) 0.4101(3)
C89_12 C 0.0783(11) 0.4038(11) 0.3994(4)
C90_12 C 0.0550(14) 0.454(2) 0.4000(8)
H106_12 H 0.0289 0.4556 0.3917
H107_12 H 0.0410 0.4591 0.4110
H108_12 H 0.0800 0.4788 0.3977
Ag7_12 Ag 0.24240(12) 0.97231(12) 0.27539(4)
Ag8_12 Ag 0.16611(12) 0.98399(12) 0.30749(4)
Ag14_12 Ag 0.25174(12) 0.99414(13) 0.60500(4)
N9_12 N 0.0137(9) 0.8644(10) 0.2391(3)
N10_12 N 0.0081(10) 0.8230(11) 0.2487(4)
N13_12 N 0.1788(11) 0.9340(10) 0.2762(3)
N14_12 N 0.1455(13) 0.9377(10) 0.2890(4)
N25_12 N 0.1493(9) 0.9674(10) 0.6162(3)
N26_12 N 0.1848(10) 0.9557(9) 0.6047(3)
C21_12 C 0.0529(13) 0.9379(16) 0.2343(5)
H25_12 H 0.0277 0.9369 0.2257
H26_12 H 0.0504 0.9690 0.2404
H27_12 H 0.0856 0.9353 0.2293
C22_12 C 0.0453(11) 0.8959(11) 0.2460(4)
C23_12 C 0.0687(11) 0.8731(11) 0.2592(4)
C24_12 C 0.0419(13) 0.8298(15) 0.2605(5)
C25_12 C 0.053(2) 0.796(2) 0.2746(6)
H28_12 H 0.0309 0.7674 0.2741
H29_12 H 0.0871 0.7849 0.2739
H30_12 H 0.0478 0.8135 0.2850
C31_12 C 0.175(3) 0.888(3) 0.2489(7)
H37_12 H 0.2093 0.8984 0.2474
H38_12 H 0.1743 0.8517 0.2502
H39_12 H 0.1556 0.8971 0.2393
C32_12 C 0.1543(14) 0.9113(11) 0.2640(4)
C33_12 C 0.1065(17) 0.8996(11) 0.2688(4)
C34_12 C 0.1038(13) 0.9143(11) 0.2852(3)
C35_12 C 0.0574(19) 0.9150(13) 0.2951(6)
H40_12 H 0.0636 0.9307 0.3058
H41_12 H 0.0321 0.9336 0.2891
H42_12 H 0.0460 0.8812 0.2968
C45_12 C 0.3190(18) 0.993(2) 0.2443(6)
H52_12 H 0.2952 0.9679 0.2476
H54_12 H 0.3504 0.9783 0.2418
C51_12 C 0.075(3) 0.826(3) 0.5998(9)
H61_12 H 0.0553 0.7959 0.5998
H62_12 H 0.0758 0.8403 0.6108
H63_12 H 0.1092 0.8174 0.5965
C52_12 C 0.0544(12) 0.8618(10) 0.5877(4)
C53_12 C 0.0724(11) 0.9092(11) 0.5855(4)
C54_12 C 0.0558(15) 0.9224(14) 0.5699(4)
C55_12 C 0.065(4) 0.964(3) 0.5584(11)
H64_12 H 0.0436 0.9609 0.5487
H65_12 H 0.0994 0.9641 0.5549
H66_12 H 0.0576 0.9954 0.5640
C61_12 C 0.0584(14) 0.9570(19) 0.6190(7)
H73_12 H 0.0639 0.9734 0.6296
H74_12 H 0.0440 0.9245 0.6209
H75_12 H 0.0360 0.9768 0.6123
C62_12 C 0.1064(11) 0.9514(11) 0.6102(3)
C63_12 C 0.1141(8) 0.9305(10) 0.5948(3)
C64_12 C 0.1644(8) 0.9332(11) 0.5918(3)
C65_12 C 0.182(4) 0.910(2) 0.5760(6)
H76_12 H 0.2180 0.9130 0.5754
H77_12 H 0.1673 0.9277 0.5666
H78_12 H 0.1724 0.8757 0.5758
H79_12 H 0.3167 0.9828 0.5780
H80_12 H 0.3725 0.9984 0.5744
N5_12 N 0.8377(14) 0.4284(16) 0.2994(5)
N31_12 N 0.9718(10) 0.3561(10) 0.3515(3)
N32_12 N 0.9741(12) 0.3189(12) 0.3399(4)
C11_12 C 0.9213(13) 0.4054(16) 0.2928(5)
H13_12 H 0.9117 0.4213 0.2824
H14_12 H 0.9307 0.3712 0.2906
H15_12 H 0.9492 0.4230 0.2977
C12_12 C 0.8789(13) 0.4063(18) 0.3046(4)
C13_12 C 0.8757(12) 0.3878(17) 0.3205(4)
C14_12 C 0.8297(14) 0.4025(18) 0.3262(5)
C15_12 C 0.808(2) 0.389(2) 0.3424(5)
H16_12 H 0.7751 0.4043 0.3435
H17_12 H 0.8289 0.4004 0.3514
H18_12 H 0.8040 0.3531 0.3431
C76_12 C 0.9230(16) 0.427(2) 0.3564(6)
H91_12 H 0.9448 0.4278 0.3660
H92_12 H 0.9286 0.4565 0.3496
H93_12 H 0.8886 0.4267 0.3601
C77_12 C 0.9331(17) 0.3822(16) 0.3463(5)
C78_12 C 0.9135(11) 0.3662(13) 0.3314(4)
C79_12 C 0.9365(11) 0.3210(12) 0.3294(4)
C80_12 C 0.9350(14) 0.2881(16) 0.3146(4)
H94_12 H 0.9578 0.2605 0.3162
H95_12 H 0.9015 0.2753 0.3131
H96_12 H 0.9447 0.3067 0.3048
Ag5_7 Ag 0.13690(13) 0.53174(13) 0.46824(4)
Ag6_7 Ag 0.23050(13) 0.54009(14) 0.49667(5)
Ag7_13 Ag 0.02769(12) 0.25760(12) 0.52539(4)
Ag8_13 Ag 0.01601(12) 0.33389(12) 0.55749(4)
Ag14_13 Ag 0.00586(13) 0.24826(12) 0.85500(4)
N9_13 N 0.1356(10) 0.4863(9) 0.4891(3)
N10_13 N 0.1770(11) 0.4919(10) 0.4987(4)
N13_13 N 0.0660(10) 0.3212(11) 0.5262(3)
N14_13 N 0.0623(10) 0.3545(13) 0.5390(4)
N21_7 N 0.1437(11) 0.4809(11) 0.8265(3)
N22_7 N 0.1089(10) 0.4779(11) 0.8141(3)
N25_13 N 0.0326(10) 0.3507(9) 0.8662(3)
N26_13 N 0.0443(9) 0.3152(10) 0.8547(3)
C21_13 C 0.0621(16) 0.4471(13) 0.4843(5)
H25_13 H 0.0631 0.4723 0.4757
H26_13 H 0.0310 0.4496 0.4904
H27_13 H 0.0647 0.4144 0.4793
C22_13 C 0.1041(11) 0.4547(11) 0.4960(4)
C23_13 C 0.1269(11) 0.4313(11) 0.5092(4)
C24_13 C 0.1702(15) 0.4581(13) 0.5105(5)
C25_13 C 0.204(2) 0.447(2) 0.5246(6)
H28_13 H 0.2326 0.4691 0.5241
H29_13 H 0.2151 0.4129 0.5239
H30_13 H 0.1865 0.4522 0.5350
C31_13 C 0.112(3) 0.325(3) 0.4989(7)
H37_13 H 0.1016 0.2907 0.4974
H38_13 H 0.1483 0.3257 0.5002
H39_13 H 0.1029 0.3444 0.4893
C32_13 C 0.0887(11) 0.3457(14) 0.5140(4)
C33_13 C 0.1004(11) 0.3935(17) 0.5188(4)
C34_13 C 0.0857(11) 0.3962(13) 0.5352(3)
C35_13 C 0.0850(13) 0.4426(19) 0.5451(6)
H40_13 H 0.0693 0.4364 0.5558
H41_13 H 0.0664 0.4679 0.5391
H42_13 H 0.1188 0.4540 0.5468
C45_13 C 0.007(2) 0.1810(18) 0.4943(6)
H52_13 H 0.0321 0.2048 0.4976
H54_13 H 0.0217 0.1496 0.4918
C51_13 C 0.174(3) 0.425(3) 0.8498(9)
H61_13 H 0.2041 0.4447 0.8498
H62_13 H 0.1597 0.4242 0.8608
H63_13 H 0.1826 0.3908 0.8465
C52_13 C 0.1382(10) 0.4456(12) 0.8377(4)
C53_13 C 0.0908(11) 0.4276(11) 0.8355(4)
C54_13 C 0.0776(14) 0.4442(15) 0.8199(4)
C55_13 C 0.036(3) 0.435(4) 0.8084(11)
H64_13 H 0.0391 0.4564 0.7987
H65_13 H 0.0359 0.4006 0.8049
H66_13 H 0.0046 0.4424 0.8140
C61_13 C 0.0430(19) 0.4416(14) 0.8690(7)
H73_13 H 0.0266 0.4361 0.8796
H74_13 H 0.0755 0.4560 0.8709
H75_13 H 0.0232 0.4640 0.8623
C62_13 C 0.0486(11) 0.3936(11) 0.8602(3)
C63_13 C 0.0695(10) 0.3859(8) 0.8448(3)
C64_13 C 0.0668(11) 0.3356(8) 0.8418(3)
C65_13 C 0.090(2) 0.318(4) 0.8260(6)
H76_13 H 0.0870 0.2820 0.8254
H77_13 H 0.0723 0.3327 0.8166
H78_13 H 0.1243 0.3276 0.8258
H79_13 H 0.0172 0.1833 0.8280
H80_13 H 0.0016 0.1275 0.8244
Ag24_7 Ag 0.20037(13) 0.53269(12) 0.82322(4)
Ag25_7 Ag 0.10976(14) 0.52705(12) 0.79506(4)
N39_7 N 0.1401(13) 0.5788(12) 0.4481(4)
N40_7 N 0.2847(15) 0.5892(13) 0.4934(5)
Ag1_7 Ag 0.46837(14) 0.25590(12) 0.68623(4)
Ag2_13 Ag 0.55108(14) 0.27808(13) 0.71627(4)
Ag3_7 Ag 0.52277(14) 0.67441(13) 0.53133(4)
Ag4_13 Ag 0.77175(14) 0.11895(14) 0.78605(5)
Ag9_13 Ag 0.94108(12) 0.22926(12) 0.55431(4)
Ag10_7 Ag 0.79290(13) 0.11067(12) 0.45948(4)
Ag11_7 Ag 0.70037(13) 0.46731(12) 0.92678(4)
Ag12_7 Ag 0.89024(14) 0.02705(12) 0.45494(4)
Ag13_13 Ag 0.98336(14) 0.33113(12) 0.88457(4)
Ag15_13 Ag 0.91043(15) 0.22725(12) 0.88248(4)
Ag16_13 Ag 0.64061(12) 0.48094(12) 0.62062(4)
Ag17_13 Ag 0.73675(13) 0.47586(13) 0.59473(4)
Ag18_13 Ag 0.73060(12) 0.39632(13) 0.62825(4)
N1_13 N 0.5227(14) 0.3169(16) 0.6831(3)
N2_13 N 0.5511(11) 0.3248(11) 0.6969(3)
N3_13 N 0.5647(10) 0.2207(12) 0.7328(4)
N4_7 N 0.5322(11) 0.1818(10) 0.7341(5)
N5_13 N 0.5716(16) 0.6623(14) 0.5494(5)
N6_7 N 0.5735(18) 0.6906(16) 0.5635(5)
N7_13 N 0.8246(14) 0.1153(15) 0.8024(5)
N8_7 N 0.8599(13) 0.0788(12) 0.8019(4)
N11_7 N 0.7153(15) 0.0892(13) 0.7566(5)
N12_13 N 0.7175(15) 0.1254(15) 0.7685(5)
N15_13 N 0.9605(11) 0.3252(11) 0.5730(3)
N16_13 N 0.9289(13) 0.2854(10) 0.5727(4)
N17_13 N 0.9455(11) 0.1867(10) 0.5340(4)
N18_13 N 0.9805(13) 0.1978(12) 0.5223(3)
N19_7 N 0.7579(11) 0.3851(11) 0.9419(4)
N20_13 N 0.7563(13) 0.4170(13) 0.9286(4)
N23_13 N 0.8902(9) 0.0765(10) 0.4745(3)
N24_13 N 0.8482(11) 0.1038(12) 0.4774(4)
N27_13 N 0.9585(8) 0.1852(8) 0.8529(2)
N28_13 N 0.9175(8) 0.1819(9) 0.8629(3)
N29_13 N 0.8974(11) 0.2818(10) 0.9000(4)
N30_13 N 0.9261(11) 0.3236(9) 0.9010(4)
N31_13 N 0.6439(10) 0.5282(10) 0.6015(3)
N32_13 N 0.6811(12) 0.5259(12) 0.5899(4)
N33_13 N 0.7880(12) 0.4218(11) 0.5983(4)
N34_13 N 0.7813(14) 0.3881(15) 0.6109(5)
N35_13 N 0.6692(12) 0.4019(12) 0.6443(4)
N36_13 N 0.6330(13) 0.4341(11) 0.6393(4)
C1_13 C 0.5063(17) 0.331(2) 0.6533(5)
H1_13 H 0.4795 0.3074 0.6549
H2_13 H 0.4926 0.3638 0.6514
H3_13 H 0.5260 0.3211 0.6437
C2_13 C 0.5383(11) 0.3317(12) 0.6683(3)
C3_13 C 0.5773(11) 0.3609(12) 0.6735(3)
C4_13 C 0.5852(12) 0.3540(14) 0.6903(3)
C5_13 C 0.6315(17) 0.364(3) 0.6997(8)
H4_13 H 0.6274 0.3525 0.7111
H5_13 H 0.6588 0.3458 0.6945
H6_13 H 0.6385 0.3990 0.6996
C6_13 C 0.6498(12) 0.2506(14) 0.7423(5)
H7_13 H 0.6407 0.2825 0.7375
H8_13 H 0.6583 0.2549 0.7539
H9_13 H 0.6782 0.2372 0.7363
C7_13 C 0.6074(10) 0.2158(9) 0.7408(4)
C8_13 C 0.6066(9) 0.1674(9) 0.7463(4)
C9_13 C 0.5626(9) 0.1482(9) 0.7404(4)
C10_13 C 0.5418(13) 0.0990(10) 0.7449(4)
H10_13 H 0.5092 0.0953 0.7399
H11_13 H 0.5636 0.0730 0.7407
H12_13 H 0.5392 0.0964 0.7569
C11_13 C 0.5946(16) 0.5787(13) 0.5428(5)
H13_13 H 0.5787 0.5883 0.5324
H14_13 H 0.6288 0.5693 0.5406
H15_13 H 0.5770 0.5508 0.5477
C12_13 C 0.5937(18) 0.6211(13) 0.5546(4)
C13_13 C 0.6122(17) 0.6243(12) 0.5705(4)
C14_13 C 0.5975(18) 0.6703(14) 0.5762(5)
C15_13 C 0.611(2) 0.692(2) 0.5924(5)
H16_13 H 0.5957 0.7249 0.5935
H17_13 H 0.5996 0.6711 0.6014
H18_13 H 0.6469 0.6960 0.5931
C16_13 C 0.808(2) 0.182(2) 0.8232(8)
H19_13 H 0.7798 0.1898 0.8159
H20_13 H 0.8294 0.2104 0.8240
H21_13 H 0.7950 0.1735 0.8342
C17_13 C 0.835(2) 0.1390(16) 0.8163(6)
C18_13 C 0.8785(13) 0.1223(13) 0.8236(4)
C19_13 C 0.8933(12) 0.0828(11) 0.8139(4)
C20_13 C 0.9366(18) 0.0508(15) 0.8177(7)
H22_13 H 0.9401 0.0258 0.8090
H23_13 H 0.9316 0.0346 0.8284
H24_13 H 0.9665 0.0710 0.8181
C26_13 C 0.6650(18) 0.077(2) 0.7319(4)
H31_13 H 0.6883 0.0494 0.7305
H32_13 H 0.6705 0.1010 0.7230
H33_13 H 0.6315 0.0649 0.7316
C27_13 C 0.6748(11) 0.1012(13) 0.7482(4)
C28_13 C 0.6522(12) 0.1450(11) 0.7528(4)
C29_13 C 0.6801(14) 0.1567(14) 0.7666(4)
C30_13 C 0.6713(14) 0.1945(16) 0.7797(5)
H34_13 H 0.6974 0.1926 0.7880
H35_13 H 0.6394 0.1884 0.7849
H36_13 H 0.6713 0.2274 0.7747
C36_13 C 0.9550(12) 0.4055(15) 0.5833(5)
H43_13 H 0.9875 0.4053 0.5781
H44_13 H 0.9586 0.4113 0.5952
H45_13 H 0.9349 0.4317 0.5784
C37_13 C 0.9304(12) 0.3570(11) 0.5805(4)
C38_13 C 0.8847(11) 0.3397(11) 0.5855(5)
C39_13 C 0.8851(10) 0.2914(10) 0.5798(4)
C40_13 C 0.8467(11) 0.2520(11) 0.5799(4)
H46_13 H 0.8594 0.2227 0.5742
H47_13 H 0.8173 0.2639 0.5741
H48_13 H 0.8382 0.2436 0.5913
C41_13 C 0.866(2) 0.1420(13) 0.5340(7)
H49_13 H 0.8646 0.1552 0.5452
H50_13 H 0.8644 0.1060 0.5344
H51_13 H 0.8389 0.1549 0.5274
C42_13 C 0.9140(12) 0.1570(10) 0.5262(3)
C43_13 C 0.9292(12) 0.1457(10) 0.5103(3)
C44_13 C 0.9703(13) 0.1753(12) 0.5080(4)
H53_13 H 0.9896 0.1939 0.4845
C46_13 C 0.8100(16) 0.3147(13) 0.9498(5)
H55_13 H 0.7897 0.3163 0.9598
H56_13 H 0.8060 0.2823 0.9446
H57_13 H 0.8446 0.3196 0.9527
C47_13 C 0.7942(11) 0.3539(11) 0.9380(3)
C48_13 C 0.8167(13) 0.3667(13) 0.9232(4)
C49_13 C 0.7912(15) 0.4076(15) 0.9174(4)
C50_13 C 0.7931(17) 0.4320(16) 0.9009(4)
H58_13 H 0.7687 0.4586 0.9005
H59_13 H 0.8260 0.4457 0.8991
H60_13 H 0.7858 0.4078 0.8923
C56_13 C 0.9732(9) 0.0659(13) 0.4857(5)
H67_13 H 0.9748 0.0407 0.4770
H68_13 H 0.9962 0.0926 0.4830
H69_13 H 0.9823 0.0512 0.4963
C57_13 C 0.9221(9) 0.0860(11) 0.4867(3)
C58_13 C 0.9024(10) 0.1233(11) 0.4964(3)
C59_13 C 0.8559(12) 0.1337(18) 0.4902(5)
C60_13 C 0.8169(13) 0.1681(14) 0.4962(5)
H70_13 H 0.7876 0.1650 0.4892
H71_13 H 0.8084 0.1600 0.5076
H72_13 H 0.8291 0.2020 0.4957
C66_13 C 0.9897(15) 0.1615(17) 0.8252(5)
H81_13 H 0.9760 0.1715 0.8145
C67_13 C 0.9508(11) 0.1649(11) 0.8381(3)
C68_13 C 0.9050(11) 0.1421(14) 0.8381(4)
C69_13 C 0.8859(10) 0.1585(11) 0.8530(3)
C70_13 C 0.8358(11) 0.1459(16) 0.8594(6)
H82_13 H 0.8300 0.1632 0.8698
H83_13 H 0.8110 0.1558 0.8512
H84_13 H 0.8337 0.1103 0.8612
C71_13 C 0.8216(15) 0.2506(15) 0.9093(6)
H85_13 H 0.8355 0.2214 0.9040
H86_13 H 0.8104 0.2420 0.9205
H87_13 H 0.7937 0.2628 0.9029
C72_13 C 0.8601(14) 0.2897(10) 0.9104(6)
C73_13 C 0.8550(9) 0.3394(10) 0.9141(4)
C74_13 C 0.9001(9) 0.3578(10) 0.9090(4)
C75_13 C 0.9244(18) 0.4066(12) 0.9113(6)
H88_13 H 0.9566 0.4065 0.9059
H89_13 H 0.9038 0.4325 0.9065
H90_13 H 0.9287 0.4129 0.9232
C76_13 C 0.573(2) 0.5770(16) 0.6064(6)
H91_13 H 0.5722 0.5552 0.6160
H92_13 H 0.5435 0.5714 0.5996
H93_13 H 0.5733 0.6114 0.6101
C77_13 C 0.6178(16) 0.5669(17) 0.5963(5)
C78_13 C 0.6338(13) 0.5865(11) 0.5814(4)
C79_13 C 0.6790(12) 0.5635(11) 0.5794(4)
C80_13 C 0.7119(16) 0.5650(14) 0.5646(4)
H94_13 H 0.7395 0.5422 0.5662
H95_13 H 0.7247 0.5985 0.5631
H96_13 H 0.6933 0.5553 0.5548
C81_13 C 0.833(2) 0.433(2) 0.5718(4)
H97_13 H 0.8133 0.4626 0.5708
H98_13 H 0.8244 0.4096 0.5630
H99_13 H 0.8683 0.4415 0.5707
C82_13 C 0.8248(10) 0.4094(11) 0.5882(3)
C83_13 C 0.8450(9) 0.3660(10) 0.5942(3)
C84_13 C 0.8189(13) 0.3572(13) 0.6087(3)
C85_13 C 0.8270(17) 0.316(2) 0.6207(6)
H100_13 H 0.8041 0.3196 0.6300
H101_13 H 0.8608 0.3169 0.6247
H102_13 H 0.8207 0.2845 0.6151
C86_13 C 0.6896(14) 0.3348(15) 0.6637(5)
H103_13 H 0.7224 0.3387 0.6589
H104_13 H 0.6763 0.3024 0.6608
H105_13 H 0.6918 0.3376 0.6758
C87_13 C 0.6562(15) 0.3741(10) 0.6572(5)
C88_13 C 0.6066(11) 0.3832(10) 0.6601(3)
C89_13 C 0.5962(11) 0.4217(11) 0.6494(4)
C90_13 C 0.546(2) 0.4450(14) 0.6500(8)
H106_13 H 0.5444 0.4711 0.6417
H107_13 H 0.5409 0.4590 0.6610
H108_13 H 0.5212 0.4200 0.6477
Ag19_7 Ag 0.53163(14) 0.75590(12) 0.56377(4)
Ag20_7 Ag 0.47723(14) 0.17441(13) 0.71867(4)
Ag21_7 Ag 0.86310(13) 0.03174(13) 0.78176(4)
Ag22_7 Ag 0.76950(13) 0.04009(14) 0.75333(5)
Ag23_7 Ag 0.70710(13) 0.38933(12) 0.95948(4)
N37_7 N 0.4678(11) 0.6818(10) 0.5159(5)
N38_7 N 0.4265(18) 0.1906(16) 0.6865(5)
N41_7 N 0.7421(11) 0.1149(11) 0.4419(4)
N42_7 N 0.6437(11) 0.5191(11) 0.9235(3)
N43_7 N 0.8911(10) 0.9779(11) 0.4359(3)
N43_8 N 0.3911(10) 0.0221(11) 0.3141(3)
Ag2_14 Ag 0.05108(14) 0.72192(13) 0.03373(4)
Ag3_8 Ag 0.02277(14) 0.32559(13) 0.21867(4)
Ag5_8 Ag 0.63690(13) 0.46826(13) 0.28176(4)
Ag6_8 Ag 0.73050(13) 0.45991(14) 0.25333(5)
Ag7_14 Ag 0.52769(12) 0.74240(12) 0.22461(4)
Ag8_14 Ag 0.51601(12) 0.66611(12) 0.19251(4)
Ag9_14 Ag 0.44108(12) 0.77074(12) 0.19569(4)
Ag10_8 Ag 0.29290(13) 0.88933(12) 0.29052(4)
Ag12_8 Ag 0.39024(14) 0.97295(12) 0.29506(4)
Ag16_14 Ag 0.14061(12) 0.51906(12) 0.12938(4)
Ag17_14 Ag 0.23675(13) 0.52414(13) 0.15527(4)
Ag18_14 Ag 0.23060(12) 0.60368(13) 0.12175(4)
N1_14 N 0.0227(14) 0.6831(16) 0.0669(3)
N2_14 N 0.0511(11) 0.6752(11) 0.0531(3)
N3_14 N 0.0647(10) 0.7793(12) 0.0172(4)
N4_8 N 0.0322(11) 0.8182(10) 0.0159(5)
N5_14 N 0.0716(16) 0.3377(14) 0.2006(5)
N6_8 N 0.0735(18) 0.3094(16) 0.1865(5)
N9_14 N 0.6356(10) 0.5137(9) 0.2609(3)
N10_14 N 0.6770(11) 0.5081(10) 0.2513(4)
N13_14 N 0.5660(10) 0.6788(11) 0.2238(3)
N14_14 N 0.5623(10) 0.6455(13) 0.2110(4)
N15_14 N 0.4605(11) 0.6748(11) 0.1770(3)
N16_14 N 0.4289(13) 0.7146(10) 0.1773(4)
N17_14 N 0.4455(11) 0.8133(10) 0.2160(4)
N18_14 N 0.4805(13) 0.8022(12) 0.2277(3)
N23_14 N 0.3902(9) 0.9235(10) 0.2755(3)
N24_14 N 0.3482(11) 0.8962(12) 0.2726(4)
N31_14 N 0.1439(10) 0.4718(10) 0.1485(3)
N32_14 N 0.1811(12) 0.4741(12) 0.1601(4)
N33_14 N 0.2880(12) 0.5782(11) 0.1517(4)
N34_14 N 0.2813(14) 0.6119(15) 0.1391(5)
N35_14 N 0.1692(12) 0.5981(12) 0.1057(4)
N36_14 N 0.1330(13) 0.5659(11) 0.1107(4)
C1_14 C 0.0063(17) 0.669(2) 0.0967(5)
H3_14 H 0.0260 0.6789 0.1063
C2_14 C 0.0383(11) 0.6683(12) 0.0817(3)
C3_14 C 0.0773(11) 0.6391(12) 0.0765(3)
C4_14 C 0.0852(12) 0.6460(14) 0.0597(3)
C5_14 C 0.1315(17) 0.636(3) 0.0503(8)
H4_14 H 0.1274 0.6475 0.0389
H5_14 H 0.1588 0.6542 0.0555
H6_14 H 0.1385 0.6010 0.0504
C6_14 C 0.1498(12) 0.7494(14) 0.0077(5)
H7_14 H 0.1407 0.7175 0.0125
H9_14 H 0.1782 0.7628 0.0137
C7_14 C 0.1074(10) 0.7842(9) 0.0092(4)
C8_14 C 0.1066(9) 0.8326(9) 0.0037(4)
C9_14 C 0.0626(9) 0.8518(9) 0.0096(4)
C10_14 C 0.0418(13) 0.9010(10) 0.0051(4)
H10_14 H 0.0092 0.9047 0.0101
H11_14 H 0.0636 0.9270 0.0093
C11_14 C 0.0946(16) 0.4213(13) 0.2072(5)
H13_14 H 0.0787 0.4117 0.2176
H14_14 H 0.1288 0.4307 0.2094
H15_14 H 0.0770 0.4492 0.2023
C12_14 C 0.0937(18) 0.3789(13) 0.1954(4)
C13_14 C 0.1122(17) 0.3757(12) 0.1795(4)
C14_14 C 0.0975(18) 0.3297(14) 0.1738(5)
C15_14 C 0.111(2) 0.308(2) 0.1576(5)
H16_14 H 0.0957 0.2751 0.1565
H17_14 H 0.0996 0.3289 0.1486
H18_14 H 0.1469 0.3040 0.1569
C21_14 C 0.5621(16) 0.5529(13) 0.2657(5)
H25_14 H 0.5631 0.5277 0.2743
H26_14 H 0.5310 0.5504 0.2596
H27_14 H 0.5647 0.5856 0.2707
C22_14 C 0.6041(11) 0.5453(11) 0.2540(4)
C23_14 C 0.6269(11) 0.5687(11) 0.2408(4)
C24_14 C 0.6702(15) 0.5419(13) 0.2395(5)
C25_14 C 0.704(2) 0.553(2) 0.2254(6)
H28_14 H 0.7326 0.5309 0.2259
H29_14 H 0.7151 0.5871 0.2261
H30_14 H 0.6865 0.5478 0.2150
C26_14 C 0.1650(18) 0.923(2) 0.0181(4)
H31_14 H 0.1883 0.9506 0.0195
H32_14 H 0.1705 0.8990 0.0270
H33_14 H 0.1315 0.9351 0.0184
C27_14 C 0.1748(11) 0.8988(13) 0.0018(4)
C31_14 C 0.612(3) 0.675(3) 0.2511(7)
H37_14 H 0.6016 0.7093 0.2526
H38_14 H 0.6483 0.6743 0.2498
H39_14 H 0.6029 0.6556 0.2607
C32_14 C 0.5887(11) 0.6543(14) 0.2360(4)
C33_14 C 0.6004(11) 0.6065(17) 0.2312(4)
C34_14 C 0.5857(11) 0.6038(13) 0.2148(3)
C35_14 C 0.5850(13) 0.5574(19) 0.2049(6)
H40_14 H 0.5693 0.5636 0.1942
H41_14 H 0.5664 0.5321 0.2109
H42_14 H 0.6188 0.5460 0.2032
C36_14 C 0.4550(12) 0.5945(15) 0.1667(5)
H43_14 H 0.4875 0.5947 0.1719
H44_14 H 0.4586 0.5887 0.1548
H45_14 H 0.4349 0.5683 0.1716
C37_14 C 0.4304(12) 0.6430(11) 0.1695(4)
C38_14 C 0.3847(11) 0.6603(11) 0.1645(5)
C39_14 C 0.3851(10) 0.7086(10) 0.1702(4)
C40_14 C 0.3467(11) 0.7480(11) 0.1701(4)
H46_14 H 0.3594 0.7773 0.1758
H47_14 H 0.3173 0.7361 0.1759
H48_14 H 0.3382 0.7564 0.1587
C41_14 C 0.366(2) 0.8580(13) 0.2160(7)
H49_14 H 0.3646 0.8448 0.2048
H50_14 H 0.3644 0.8940 0.2156
H51_14 H 0.3389 0.8451 0.2226
C42_14 C 0.4140(12) 0.8430(10) 0.2238(3)
C43_14 C 0.4292(12) 0.8543(10) 0.2397(3)
C44_14 C 0.4703(13) 0.8247(12) 0.2420(4)
C45_14 C 0.507(2) 0.8190(18) 0.2557(6)
H52_14 H 0.5321 0.7952 0.2524
H53_14 H 0.4896 0.8061 0.2655
H54_14 H 0.5217 0.8504 0.2582
C56_14 C 0.4732(9) 0.9341(13) 0.2643(5)
H67_14 H 0.4748 0.9593 0.2730
H68_14 H 0.4962 0.9074 0.2670
H69_14 H 0.4823 0.9488 0.2537
C57_14 C 0.4221(9) 0.9140(11) 0.2633(3)
C58_14 C 0.4024(10) 0.8767(11) 0.2536(3)
C59_14 C 0.3559(12) 0.8663(18) 0.2598(5)
C60_14 C 0.3169(13) 0.8319(14) 0.2538(5)
H70_14 H 0.2876 0.8350 0.2608
H71_14 H 0.3084 0.8400 0.2424
H72_14 H 0.3291 0.7980 0.2543
C76_14 C 0.073(2) 0.4230(16) 0.1436(6)
H91_14 H 0.0722 0.4448 0.1340
H92_14 H 0.0435 0.4286 0.1504
H93_14 H 0.0733 0.3886 0.1399
C77_14 C 0.1178(16) 0.4331(17) 0.1537(5)
C78_14 C 0.1338(13) 0.4135(11) 0.1686(4)
C79_14 C 0.1790(12) 0.4365(11) 0.1706(4)
C80_14 C 0.2119(16) 0.4350(14) 0.1854(4)
H94_14 H 0.2395 0.4578 0.1838
H95_14 H 0.2247 0.4015 0.1869
H96_14 H 0.1933 0.4447 0.1952
C81_14 C 0.333(2) 0.567(2) 0.1782(4)
H97_14 H 0.3133 0.5374 0.1792
H98_14 H 0.3244 0.5904 0.1870
H99_14 H 0.3683 0.5585 0.1793
C82_14 C 0.3248(10) 0.5906(11) 0.1618(3)
C83_14 C 0.3450(9) 0.6340(10) 0.1558(3)
C84_14 C 0.3189(13) 0.6428(13) 0.1413(3)
C85_14 C 0.3270(17) 0.684(2) 0.1293(6)
H100_14 H 0.3041 0.6804 0.1200
H101_14 H 0.3608 0.6831 0.1253
H102_14 H 0.3207 0.7155 0.1349
C86_14 C 0.1896(14) 0.6652(15) 0.0863(5)
H103_14 H 0.2224 0.6613 0.0911
H104_14 H 0.1763 0.6976 0.0892
H105_14 H 0.1918 0.6624 0.0742
C87_14 C 0.1562(15) 0.6259(10) 0.0928(5)
C88_14 C 0.1066(11) 0.6168(10) 0.0899(3)
C89_14 C 0.0962(11) 0.5783(11) 0.1006(4)
C90_14 C 0.046(2) 0.5550(14) 0.1000(8)
H106_14 H 0.0444 0.5289 0.1083
H107_14 H 0.0409 0.5410 0.0890
H108_14 H 0.0212 0.5800 0.1023
Ag19_8 Ag 0.03163(14) 0.24410(12) 0.18623(4)
N39_8 N 0.6401(13) 0.4212(12) 0.3019(4)
N40_8 N 0.7847(15) 0.4108(13) 0.2566(5)
N41_8 N 0.2421(11) 0.8851(11) 0.3081(4)
Ag4_14 Ag 0.27175(14) 0.88105(14) 0.96395(5)
Ag13_14 Ag 0.48336(14) 0.66887(12) 0.86543(4)
Ag14_14 Ag 0.50586(13) 0.75174(12) 0.89500(4)
Ag15_14 Ag 0.41043(15) 0.77275(12) 0.86752(4)
N7_14 N 0.3246(14) 0.8847(15) 0.9476(5)
N8_8 N 0.3599(13) 0.9212(12) 0.9481(4)
N11_8 N 0.2153(15) 0.9108(13) 0.9934(5)
N12_14 N 0.2175(15) 0.8746(15) 0.9815(5)
N19_8 N 0.2579(11) 0.6149(11) 0.8081(4)
N20_14 N 0.2563(13) 0.5830(13) 0.8214(4)
N22_8 N 0.6089(10) 0.5221(11) 0.9359(3)
N25_14 N 0.5326(10) 0.6493(9) 0.8838(3)
N26_14 N 0.5443(9) 0.6848(10) 0.8953(3)
N27_14 N 0.4585(8) 0.8148(8) 0.8971(2)
N28_14 N 0.4175(8) 0.8181(9) 0.8871(3)
N29_14 N 0.3974(11) 0.7182(10) 0.8500(4)
N30_14 N 0.4261(11) 0.6764(9) 0.8490(4)
H8_14 H 0.1583 0.7451 0.9961
H12_14 H 0.0392 0.9036 0.9931
C16_14 C 0.308(2) 0.818(2) 0.9268(8)
H19_14 H 0.2798 0.8102 0.9341
H20_14 H 0.3294 0.7896 0.9260
H21_14 H 0.2950 0.8265 0.9158
C17_14 C 0.335(2) 0.8610(16) 0.9337(6)
C18_14 C 0.3785(13) 0.8777(13) 0.9264(4)
C19_14 C 0.3933(12) 0.9172(11) 0.9361(4)
C20_14 C 0.4366(18) 0.9492(15) 0.9323(7)
H22_14 H 0.4401 0.9742 0.9410
H23_14 H 0.4316 0.9654 0.9216
H24_14 H 0.4665 0.9290 0.9319
C28_14 C 0.1522(12) 0.8550(11) 0.9972(4)
C29_14 C 0.1801(14) 0.8433(14) 0.9834(4)
C30_14 C 0.1713(14) 0.8055(16) 0.9703(5)
H34_14 H 0.1974 0.8074 0.9620
H35_14 H 0.1394 0.8116 0.9651
H36_14 H 0.1713 0.7726 0.9753
C46_14 C 0.3100(16) 0.6853(13) 0.8002(5)
H55_14 H 0.2897 0.6837 0.7902
H56_14 H 0.3060 0.7177 0.8054
H57_14 H 0.3446 0.6804 0.7973
C47_14 C 0.2942(11) 0.6461(11) 0.8120(3)
C48_14 C 0.3167(13) 0.6333(13) 0.8268(4)
C49_14 C 0.2912(15) 0.5924(15) 0.8326(4)
C50_14 C 0.2931(17) 0.5680(16) 0.8491(4)
H58_14 H 0.2687 0.5414 0.8495
H59_14 H 0.3260 0.5543 0.8509
H60_14 H 0.2858 0.5922 0.8577
C51_14 C 0.674(3) 0.575(3) 0.9002(9)
H61_14 H 0.7041 0.5553 0.9002
H62_14 H 0.6597 0.5758 0.8892
H63_14 H 0.6826 0.6092 0.9035
C52_14 C 0.6382(10) 0.5544(12) 0.9123(4)
C53_14 C 0.5908(11) 0.5724(11) 0.9145(4)
C54_14 C 0.5776(14) 0.5558(15) 0.9301(4)
C55_14 C 0.536(3) 0.565(4) 0.9416(11)
H64_14 H 0.5391 0.5436 0.9513
H65_14 H 0.5359 0.5994 0.9451
H66_14 H 0.5046 0.5576 0.9360
C61_14 C 0.5430(19) 0.5584(14) 0.8810(7)
H73_14 H 0.5266 0.5639 0.8704
H74_14 H 0.5755 0.5440 0.8791
H75_14 H 0.5232 0.5360 0.8877
C62_14 C 0.5486(11) 0.6064(11) 0.8898(3)
C63_14 C 0.5695(10) 0.6141(8) 0.9052(3)
C64_14 C 0.5668(11) 0.6644(8) 0.9082(3)
C65_14 C 0.590(2) 0.682(4) 0.9240(6)
H76_14 H 0.5870 0.7180 0.9246
H77_14 H 0.5723 0.6673 0.9334
H78_14 H 0.6243 0.6724 0.9242
C66_14 C 0.4897(15) 0.8385(17) 0.9248(5)
H79_14 H 0.5172 0.8167 0.9220
H80_14 H 0.5016 0.8725 0.9256
H81_14 H 0.4760 0.8285 0.9355
C67_14 C 0.4508(11) 0.8351(11) 0.9119(3)
C68_14 C 0.4050(11) 0.8579(14) 0.9119(4)
C69_14 C 0.3859(10) 0.8415(11) 0.8970(3)
C70_14 C 0.3358(11) 0.8541(16) 0.8906(6)
H82_14 H 0.3300 0.8368 0.8802
H83_14 H 0.3110 0.8442 0.8988
H84_14 H 0.3337 0.8897 0.8888
C71_14 C 0.3216(15) 0.7494(15) 0.8407(6)
H85_14 H 0.3355 0.7786 0.8460
H86_14 H 0.3104 0.7580 0.8295
H87_14 H 0.2937 0.7372 0.8471
C72_14 C 0.3601(14) 0.7103(10) 0.8396(6)
C73_14 C 0.3550(9) 0.6606(10) 0.8359(4)
C74_14 C 0.4001(9) 0.6422(10) 0.8410(4)
C75_14 C 0.4244(18) 0.5934(12) 0.8387(6)
H88_14 H 0.4566 0.5935 0.8441
H89_14 H 0.4038 0.5675 0.8435
H90_14 H 0.4287 0.5871 0.8268
Ag21_8 Ag 0.36310(13) 0.96826(13) 0.96824(4)
Ag22_8 Ag 0.26950(13) 0.95991(14) 0.99667(5)
Ag23_8 Ag 0.20710(13) 0.61067(12) 0.79052(4)
Ag25_8 Ag 0.60976(14) 0.47295(12) 0.95494(4)
Ag1_8 Ag 0.96837(14) 0.74410(12) 0.06377(4)
H1_14 H 0.9795 0.6926 0.0951
H2_14 H 0.9926 0.6362 0.0986
Ag20_8 Ag 0.97723(14) 0.82559(13) 0.03133(4)
N37_8 N 0.9678(11) 0.3182(10) 0.2341(5)
N38_8 N 0.9265(18) 0.8094(16) 0.0635(5)
H1_15 H 0.0205 0.1926 0.1549
H2_15 H 0.0074 0.1362 0.1514
Ag2_15 Ag 0.94892(14) 0.22192(13) 0.21627(4)
Ag4_15 Ag 0.72825(14) 0.38105(14) 0.28605(5)
Ag7_15 Ag 0.47231(12) 0.24240(12) 0.02539(4)
Ag8_15 Ag 0.48399(12) 0.16611(12) 0.05749(4)
Ag9_15 Ag 0.55892(12) 0.27074(12) 0.05431(4)
Ag11_8 Ag 0.79963(13) 0.03269(12) 0.42678(4)
Ag13_15 Ag 0.51664(14) 0.16887(12) 0.38457(4)
Ag14_15 Ag 0.49414(13) 0.25174(12) 0.35500(4)
Ag15_15 Ag 0.58957(15) 0.27275(12) 0.38248(4)
Ag16_15 Ag 0.85939(12) 0.01906(12) 0.12062(4)
Ag17_15 Ag 0.76325(13) 0.02414(13) 0.09473(4)
Ag18_15 Ag 0.76940(12) 0.10368(13) 0.12825(4)
N1_15 N 0.9773(14) 0.1831(16) 0.1831(3)
N2_15 N 0.9489(11) 0.1752(11) 0.1969(3)
N3_15 N 0.9353(10) 0.2793(12) 0.2328(4)
N7_15 N 0.6754(14) 0.3847(15) 0.3024(5)
N12_15 N 0.7825(15) 0.3746(15) 0.2685(5)
N13_15 N 0.4340(10) 0.1788(11) 0.0262(3)
N14_15 N 0.4377(10) 0.1455(13) 0.0390(4)
N15_15 N 0.5395(11) 0.1748(11) 0.0730(3)
N16_15 N 0.5711(13) 0.2146(10) 0.0727(4)
N17_15 N 0.5545(11) 0.3133(10) 0.0340(4)
N18_15 N 0.5195(13) 0.3022(12) 0.0223(3)
N20_15 N 0.7437(13) 0.0830(13) 0.4286(4)
N21_8 N 0.3563(11) 0.0191(11) 0.3265(3)
N25_15 N 0.4674(10) 0.1493(9) 0.3662(3)
N26_15 N 0.4557(9) 0.1848(10) 0.3547(3)
N27_15 N 0.5415(8) 0.3148(8) 0.3529(2)
N28_15 N 0.5825(8) 0.3181(9) 0.3629(3)
N29_15 N 0.6026(11) 0.2182(10) 0.4000(4)
N30_15 N 0.5739(11) 0.1764(9) 0.4010(4)
N33_15 N 0.7120(12) 0.0782(11) 0.0983(4)
N34_15 N 0.7187(14) 0.1119(15) 0.1109(5)
N35_15 N 0.8308(12) 0.0981(12) 0.1443(4)
N36_15 N 0.8670(13) 0.0659(11) 0.1393(4)
C1_15 C 0.9937(17) 0.169(2) 0.1533(5)
H3_15 H 0.9740 0.1789 0.1437
C2_15 C 0.9617(11) 0.1683(12) 0.1683(3)
C3_15 C 0.9227(11) 0.1391(12) 0.1735(3)
C4_15 C 0.9148(12) 0.1460(14) 0.1903(3)
C5_15 C 0.8685(17) 0.136(3) 0.1997(8)
H4_15 H 0.8726 0.1475 0.2111
H5_15 H 0.8412 0.1542 0.1945
H6_15 H 0.8615 0.1010 0.1996
C6_15 C 0.8502(12) 0.2494(14) 0.2423(5)
H7_15 H 0.8593 0.2175 0.2375
H8_15 H 0.8417 0.2451 0.2539
H9_15 H 0.8218 0.2628 0.2363
C7_15 C 0.8926(10) 0.2842(9) 0.2408(4)
C8_15 C 0.8934(9) 0.3326(9) 0.2463(4)
C9_15 C 0.9374(9) 0.3518(9) 0.2404(4)
C10_15 C 0.9582(13) 0.4010(10) 0.2449(4)
H10_15 H 0.9908 0.4047 0.2399
H11_15 H 0.9364 0.4270 0.2407
H12_15 H 0.9608 0.4036 0.2569
C16_15 C 0.692(2) 0.318(2) 0.3232(8)
H19_15 H 0.7202 0.3102 0.3159
H20_15 H 0.6706 0.2896 0.3240
H21_15 H 0.7050 0.3265 0.3342
C17_15 C 0.665(2) 0.3610(16) 0.3163(6)
C18_15 C 0.6215(13) 0.3777(13) 0.3236(4)
C19_15 C 0.6067(12) 0.4172(11) 0.3139(4)
C20_15 C 0.5634(18) 0.4492(15) 0.3177(7)
H22_15 H 0.5599 0.4742 0.3090
H23_15 H 0.5684 0.4654 0.3284
H24_15 H 0.5335 0.4290 0.3181
C23_15 C 0.3731(11) 0.0687(11) 0.0092(4)
C24_15 C 0.3298(15) 0.0419(13) 0.0105(5)
C25_15 C 0.296(2) 0.053(2) 0.0246(6)
H28_15 H 0.2674 0.0309 0.0241
H29_15 H 0.2849 0.0871 0.0239
H30_15 H 0.3135 0.0478 0.0350
C26_15 C 0.8350(18) 0.423(2) 0.2319(4)
H31_15 H 0.8117 0.4506 0.2305
H32_15 H 0.8295 0.3990 0.2230
H33_15 H 0.8685 0.4351 0.2316
C27_15 C 0.8252(11) 0.3988(13) 0.2482(4)
C28_15 C 0.8478(12) 0.3550(11) 0.2528(4)
C29_15 C 0.8199(14) 0.3433(14) 0.2666(4)
C30_15 C 0.8287(14) 0.3055(16) 0.2797(5)
H34_15 H 0.8026 0.3074 0.2880
H35_15 H 0.8606 0.3116 0.2849
H36_15 H 0.8287 0.2726 0.2747
H38_15 H 0.3517 0.1743 0.0002
C32_15 C 0.4113(11) 0.1543(14) 0.0140(4)
C33_15 C 0.3996(11) 0.1065(17) 0.0188(4)
C34_15 C 0.4143(11) 0.1038(13) 0.0352(3)
C35_15 C 0.4150(13) 0.0574(19) 0.0451(6)
H40_15 H 0.4307 0.0636 0.0558
H41_15 H 0.4336 0.0321 0.0391
H42_15 H 0.3812 0.0460 0.0468
C36_15 C 0.5450(12) 0.0945(15) 0.0833(5)
H43_15 H 0.5125 0.0947 0.0781
H44_15 H 0.5414 0.0887 0.0952
H45_15 H 0.5651 0.0683 0.0784
C37_15 C 0.5696(12) 0.1430(11) 0.0805(4)
C38_15 C 0.6153(11) 0.1603(11) 0.0855(5)
C39_15 C 0.6149(10) 0.2086(10) 0.0798(4)
C40_15 C 0.6533(11) 0.2480(11) 0.0799(4)
H46_15 H 0.6406 0.2773 0.0742
H47_15 H 0.6827 0.2361 0.0741
H48_15 H 0.6618 0.2564 0.0913
C41_15 C 0.634(2) 0.3580(13) 0.0340(7)
H49_15 H 0.6354 0.3448 0.0452
H50_15 H 0.6356 0.3940 0.0344
H51_15 H 0.6611 0.3451 0.0274
C42_15 C 0.5860(12) 0.3430(10) 0.0262(3)
C43_15 C 0.5708(12) 0.3543(10) 0.0103(3)
C44_15 C 0.5297(13) 0.3247(12) 0.0080(4)
C46_15 C 0.6900(16) 0.1853(13) 0.4498(5)
H55_15 H 0.7103 0.1837 0.4598
H56_15 H 0.6940 0.2177 0.4446
H57_15 H 0.6554 0.1804 0.4527
C47_15 C 0.7058(11) 0.1461(11) 0.4380(3)
C48_15 C 0.6833(13) 0.1333(13) 0.4232(4)
C49_15 C 0.7088(15) 0.0924(15) 0.4174(4)
C50_15 C 0.7069(17) 0.0680(16) 0.4009(4)
H58_15 H 0.7313 0.0414 0.4005
H59_15 H 0.6740 0.0543 0.3991
H60_15 H 0.7142 0.0922 0.3923
C51_15 C 0.326(3) 0.075(3) 0.3498(9)
H61_15 H 0.2959 0.0553 0.3498
H62_15 H 0.3403 0.0758 0.3608
H63_15 H 0.3174 0.1092 0.3465
C52_15 C 0.3618(10) 0.0544(12) 0.3377(4)
C53_15 C 0.4092(11) 0.0724(11) 0.3355(4)
C54_15 C 0.4224(14) 0.0558(15) 0.3199(4)
C55_15 C 0.464(3) 0.065(4) 0.3084(11)
H64_15 H 0.4609 0.0436 0.2987
H65_15 H 0.4641 0.0994 0.3049
H66_15 H 0.4954 0.0576 0.3140
H71_15 H 0.6916 0.3400 0.0076
C61_15 C 0.4570(19) 0.0584(14) 0.3690(7)
H73_15 H 0.4734 0.0639 0.3796
H74_15 H 0.4245 0.0440 0.3709
H75_15 H 0.4768 0.0360 0.3623
C62_15 C 0.4514(11) 0.1064(11) 0.3602(3)
C63_15 C 0.4305(10) 0.1141(8) 0.3448(3)
C64_15 C 0.4332(11) 0.1644(8) 0.3418(3)
C65_15 C 0.410(2) 0.182(4) 0.3260(6)
H76_15 H 0.4130 0.2180 0.3254
H77_15 H 0.4277 0.1673 0.3166
H78_15 H 0.3757 0.1724 0.3258
C66_15 C 0.5103(15) 0.3385(17) 0.3252(5)
H79_15 H 0.4828 0.3167 0.3280
H80_15 H 0.4984 0.3725 0.3244
H81_15 H 0.5240 0.3285 0.3145
C67_15 C 0.5492(11) 0.3351(11) 0.3381(3)
C68_15 C 0.5950(11) 0.3579(14) 0.3381(4)
C69_15 C 0.6141(10) 0.3415(11) 0.3530(3)
C70_15 C 0.6642(11) 0.3541(16) 0.3594(6)
H82_15 H 0.6700 0.3368 0.3698
H83_15 H 0.6890 0.3442 0.3512
H84_15 H 0.6663 0.3897 0.3612
C71_15 C 0.6784(15) 0.2494(15) 0.4093(6)
H85_15 H 0.6645 0.2786 0.4040
H86_15 H 0.6896 0.2580 0.4205
H87_15 H 0.7063 0.2372 0.4029
C72_15 C 0.6399(14) 0.2103(10) 0.4104(6)
C73_15 C 0.6450(9) 0.1606(10) 0.4141(4)
C74_15 C 0.5999(9) 0.1422(10) 0.4090(4)
C75_15 C 0.5756(18) 0.0934(12) 0.4113(6)
H88_15 H 0.5434 0.0935 0.4059
H89_15 H 0.5962 0.0675 0.4065
H90_15 H 0.5713 0.0871 0.4232
C81_15 C 0.667(2) 0.067(2) 0.0718(4)
H97_15 H 0.6867 0.0374 0.0708
H98_15 H 0.6756 0.0904 0.0630
H99_15 H 0.6317 0.0585 0.0707
C82_15 C 0.6752(10) 0.0906(11) 0.0882(3)
C83_15 C 0.6550(9) 0.1340(10) 0.0942(3)
C84_15 C 0.6811(13) 0.1428(13) 0.1087(3)
C85_15 C 0.6730(17) 0.184(2) 0.1207(6)
H100_15 H 0.6959 0.1804 0.1300
H101_15 H 0.6392 0.1831 0.1247
H102_15 H 0.6793 0.2155 0.1151
C86_15 C 0.8104(14) 0.1652(15) 0.1637(5)
H103_15 H 0.7776 0.1613 0.1589
H104_15 H 0.8237 0.1976 0.1608
H105_15 H 0.8082 0.1624 0.1758
C87_15 C 0.8438(15) 0.1259(10) 0.1572(5)
C88_15 C 0.8934(11) 0.1168(10) 0.1601(3)
C89_15 C 0.9038(11) 0.0783(11) 0.1494(4)
C90_15 C 0.954(2) 0.0550(14) 0.1500(8)
H106_15 H 0.9556 0.0289 0.1417
H107_15 H 0.9591 0.0410 0.1610
H108_15 H 0.9788 0.0800 0.1477
N9_15 N 0.3644(10) 0.0137(9) 0.9891(3)
N10_15 N 0.3230(11) 0.0081(10) 0.9987(4)
N23_15 N 0.6098(9) 0.4235(10) 0.9745(3)
N24_15 N 0.6518(11) 0.3962(12) 0.9774(4)
C21_15 C 0.4379(16) 0.0529(13) 0.9843(5)
H25_15 H 0.4369 0.0277 0.9757
H26_15 H 0.4690 0.0504 0.9904
H27_15 H 0.4353 0.0856 0.9793
C22_15 C 0.3959(11) 0.0453(11) 0.9960(4)
C31_15 C 0.388(3) 0.175(3) 0.9989(7)
H37_15 H 0.3984 0.2093 0.9974
H39_15 H 0.3971 0.1556 0.9893
C45_15 C 0.493(2) 0.3190(18) 0.9943(6)
H52_15 H 0.4679 0.2952 0.9976
H53_15 H 0.5104 0.3061 0.9845
H54_15 H 0.4783 0.3504 0.9918
C56_15 C 0.5268(9) 0.4341(13) 0.9857(5)
H67_15 H 0.5252 0.4593 0.9770
H68_15 H 0.5038 0.4074 0.9830
H69_15 H 0.5177 0.4488 0.9963
C57_15 C 0.5779(9) 0.4140(11) 0.9867(3)
C58_15 C 0.5976(10) 0.3767(11) 0.9964(3)
C59_15 C 0.6441(12) 0.3663(18) 0.9902(5)
C60_15 C 0.6831(13) 0.3319(14) 0.9962(5)
H70_15 H 0.7124 0.3350 0.9892
H72_15 H 0.6709 0.2980 0.9957
N5_15 N 0.9284(16) 0.8377(14) 0.0494(5)
N31_15 N 0.8561(10) 0.9718(10) 0.1015(3)
N32_15 N 0.8189(12) 0.9741(12) 0.0899(4)
C11_15 C 0.9054(16) 0.9213(13) 0.0428(5)
H13_15 H 0.9213 0.9117 0.0324
H14_15 H 0.8712 0.9307 0.0406
H15_15 H 0.9230 0.9492 0.0477
C12_15 C 0.9063(18) 0.8789(13) 0.0546(4)
C13_15 C 0.8878(17) 0.8757(12) 0.0705(4)
C14_15 C 0.9025(18) 0.8297(14) 0.0762(5)
C15_15 C 0.889(2) 0.808(2) 0.0924(5)
H16_15 H 0.9043 0.7751 0.0935
H17_15 H 0.9004 0.8289 0.1014
H18_15 H 0.8531 0.8040 0.0931
C76_15 C 0.927(2) 0.9230(16) 0.1064(6)
H91_15 H 0.9278 0.9448 0.1160
H92_15 H 0.9565 0.9286 0.0996
H93_15 H 0.9267 0.8886 0.1101
C77_15 C 0.8822(16) 0.9331(17) 0.0963(5)
C78_15 C 0.8662(13) 0.9135(11) 0.0814(4)
C79_15 C 0.8210(12) 0.9365(11) 0.0794(4)
C80_15 C 0.7881(16) 0.9350(14) 0.0646(4)
H94_15 H 0.7605 0.9578 0.0662
H95_15 H 0.7753 0.9015 0.0631
H96_15 H 0.8067 0.9447 0.0548
Ag24_8 Ag 0.29963(13) 0.96731(12) 0.32322(4)
N42_8 N 0.8563(11) 0.9809(11) 0.4235(3)
N5_16 N 0.4284(16) 0.1623(14) 0.7006(5)
N31_16 N 0.3561(10) 0.0282(10) 0.6485(3)
N32_16 N 0.3189(12) 0.0259(12) 0.6601(4)
C11_16 C 0.4054(16) 0.0787(13) 0.7072(5)
H13_16 H 0.4213 0.0883 0.7176
H14_16 H 0.3712 0.0693 0.7094
H15_16 H 0.4230 0.0508 0.7023
C12_16 C 0.4063(18) 0.1211(13) 0.6954(4)
C13_16 C 0.3878(17) 0.1243(12) 0.6795(4)
C14_16 C 0.4025(18) 0.1703(14) 0.6738(5)
C15_16 C 0.389(2) 0.192(2) 0.6576(5)
H16_16 H 0.4043 0.2249 0.6565
H17_16 H 0.4004 0.1711 0.6486
H18_16 H 0.3531 0.1960 0.6569
C76_16 C 0.427(2) 0.0770(16) 0.6436(6)
H91_16 H 0.4278 0.0552 0.6340
H92_16 H 0.4565 0.0714 0.6504
H93_16 H 0.4267 0.1114 0.6399
C77_16 C 0.3822(16) 0.0669(17) 0.6537(5)
C78_16 C 0.3662(13) 0.0865(11) 0.6686(4)
C79_16 C 0.3210(12) 0.0635(11) 0.6706(4)
C80_16 C 0.2881(16) 0.0650(14) 0.6854(4)
H94_16 H 0.2605 0.0422 0.6838
H95_16 H 0.2753 0.0985 0.6869
H96_16 H 0.3067 0.0553 0.6952
Ag2_16 Ag 0.44892(14) 0.77808(13) 0.53373(4)
Ag4_16 Ag 0.22825(14) 0.61895(14) 0.46395(5)
Ag9_16 Ag 0.05892(12) 0.72926(12) 0.69569(4)
Ag13_16 Ag 0.01664(14) 0.83113(12) 0.36543(4)
Ag15_16 Ag 0.08957(15) 0.72725(12) 0.36752(4)
Ag16_16 Ag 0.35939(12) 0.98094(12) 0.62938(4)
Ag17_16 Ag 0.26325(13) 0.97586(13) 0.65527(4)
Ag18_16 Ag 0.26940(12) 0.89632(13) 0.62175(4)
N1_16 N 0.4773(14) 0.8169(16) 0.5669(3)
N2_16 N 0.4489(11) 0.8248(11) 0.5531(3)
N3_16 N 0.4353(10) 0.7207(12) 0.5172(4)
N7_16 N 0.1754(14) 0.6153(15) 0.4476(5)
N12_16 N 0.2825(15) 0.6254(15) 0.4815(5)
N15_16 N 0.0395(11) 0.8252(11) 0.6770(3)
N16_16 N 0.0711(13) 0.7854(10) 0.6773(4)
N17_16 N 0.0545(11) 0.6867(10) 0.7160(4)
N18_16 N 0.0195(13) 0.6978(12) 0.7277(3)
N20_16 N 0.2437(13) 0.9170(13) 0.3214(4)
N23_16 N 0.1098(9) 0.5765(10) 0.7755(3)
N24_16 N 0.1518(11) 0.6038(12) 0.7726(4)
N27_16 N 0.0415(8) 0.6852(8) 0.3971(2)
N28_16 N 0.0825(8) 0.6819(9) 0.3871(3)
N29_16 N 0.1026(11) 0.7818(10) 0.3500(4)
N30_16 N 0.0739(11) 0.8236(9) 0.3490(4)
N33_16 N 0.2120(12) 0.9218(11) 0.6517(4)
N34_16 N 0.2187(14) 0.8881(15) 0.6391(5)
N35_16 N 0.3308(12) 0.9019(12) 0.6057(4)
N36_16 N 0.3670(13) 0.9341(11) 0.6107(4)
C1_16 C 0.4937(17) 0.831(2) 0.5967(5)
H1_16 H 0.5205 0.8074 0.5951
H2_16 H 0.5074 0.8638 0.5986
H3_16 H 0.4740 0.8211 0.6063
C2_16 C 0.4617(11) 0.8317(12) 0.5817(3)
C3_16 C 0.4227(11) 0.8609(12) 0.5765(3)
C4_16 C 0.4148(12) 0.8540(14) 0.5597(3)
C5_16 C 0.3685(17) 0.864(3) 0.5503(8)
H4_16 H 0.3726 0.8525 0.5389
H5_16 H 0.3412 0.8458 0.5555
H6_16 H 0.3615 0.8990 0.5504
C6_16 C 0.3502(12) 0.7506(14) 0.5077(5)
H7_16 H 0.3593 0.7825 0.5125
H8_16 H 0.3417 0.7549 0.4961
H9_16 H 0.3218 0.7372 0.5137
C7_16 C 0.3926(10) 0.7158(9) 0.5092(4)
C8_16 C 0.3934(9) 0.6674(9) 0.5037(4)
C9_16 C 0.4374(9) 0.6482(9) 0.5096(4)
C10_16 C 0.4582(13) 0.5990(10) 0.5051(4)
H10_16 H 0.4908 0.5953 0.5101
H11_16 H 0.4364 0.5730 0.5093
H12_16 H 0.4608 0.5964 0.4931
C16_16 C 0.192(2) 0.682(2) 0.4268(8)
H19_16 H 0.2202 0.6898 0.4341
H20_16 H 0.1706 0.7104 0.4260
H21_16 H 0.2050 0.6735 0.4158
C17_16 C 0.165(2) 0.6390(16) 0.4337(6)
C18_16 C 0.1215(13) 0.6223(13) 0.4264(4)
C19_16 C 0.1067(12) 0.5828(11) 0.4361(4)
C20_16 C 0.0634(18) 0.5508(15) 0.4323(7)
H22_16 H 0.0599 0.5258 0.4410
H23_16 H 0.0684 0.5346 0.4216
H24_16 H 0.0335 0.5710 0.4319
C26_16 C 0.3350(18) 0.577(2) 0.5181(4)
H31_16 H 0.3117 0.5494 0.5195
H32_16 H 0.3295 0.6010 0.5270
H33_16 H 0.3685 0.5649 0.5184
C27_16 C 0.3252(11) 0.6012(13) 0.5018(4)
C28_16 C 0.3478(12) 0.6450(11) 0.4972(4)
C29_16 C 0.3199(14) 0.6567(14) 0.4834(4)
C30_16 C 0.3287(14) 0.6945(16) 0.4703(5)
H34_16 H 0.3026 0.6926 0.4620
H35_16 H 0.3606 0.6884 0.4651
H36_16 H 0.3287 0.7274 0.4753
C36_16 C 0.0450(12) 0.9055(15) 0.6667(5)
H43_16 H 0.0125 0.9053 0.6719
H44_16 H 0.0414 0.9113 0.6548
H45_16 H 0.0651 0.9317 0.6716
C37_16 C 0.0696(12) 0.8570(11) 0.6695(4)
C38_16 C 0.1153(11) 0.8397(11) 0.6645(5)
C39_16 C 0.1149(10) 0.7914(10) 0.6702(4)
C40_16 C 0.1533(11) 0.7520(11) 0.6701(4)
H46_16 H 0.1406 0.7227 0.6758
H47_16 H 0.1827 0.7639 0.6759
H48_16 H 0.1618 0.7436 0.6587
C41_16 C 0.134(2) 0.6420(13) 0.7160(7)
H49_16 H 0.1354 0.6552 0.7048
H50_16 H 0.1356 0.6060 0.7156
H51_16 H 0.1611 0.6549 0.7226
C42_16 C 0.0860(12) 0.6570(10) 0.7238(3)
C43_16 C 0.0708(12) 0.6457(10) 0.7397(3)
C44_16 C 0.0297(13) 0.6753(12) 0.7420(4)
H53_16 H 0.0104 0.6939 0.7655
C46_16 C 0.1900(16) 0.8147(13) 0.3002(5)
H55_16 H 0.2103 0.8163 0.2902
H56_16 H 0.1940 0.7823 0.3054
H57_16 H 0.1554 0.8196 0.2973
C47_16 C 0.2058(11) 0.8539(11) 0.3120(3)
C48_16 C 0.1833(13) 0.8667(13) 0.3268(4)
C49_16 C 0.2088(15) 0.9076(15) 0.3326(4)
C50_16 C 0.2069(17) 0.9320(16) 0.3491(4)
H58_16 H 0.2313 0.9586 0.3495
H59_16 H 0.1740 0.9457 0.3509
H60_16 H 0.2142 0.9078 0.3577
C56_16 C 0.0268(9) 0.5659(13) 0.7643(5)
H67_16 H 0.0252 0.5407 0.7730
H68_16 H 0.0038 0.5926 0.7670
H69_16 H 0.0177 0.5512 0.7537
C57_16 C 0.0779(9) 0.5860(11) 0.7633(3)
C58_16 C 0.0976(10) 0.6233(11) 0.7536(3)
C59_16 C 0.1441(12) 0.6337(18) 0.7598(5)
C60_16 C 0.1831(13) 0.6681(14) 0.7538(5)
H70_16 H 0.2124 0.6650 0.7608
H71_16 H 0.1916 0.6600 0.7424
H72_16 H 0.1709 0.7020 0.7543
C66_16 C 0.0103(15) 0.6615(17) 0.4248(5)
H81_16 H 0.0240 0.6715 0.4355
C67_16 C 0.0492(11) 0.6649(11) 0.4119(3)
C68_16 C 0.0950(11) 0.6421(14) 0.4119(4)
C69_16 C 0.1141(10) 0.6585(11) 0.3970(3)
C70_16 C 0.1642(11) 0.6459(16) 0.3906(6)
H82_16 H 0.1700 0.6632 0.3802
H83_16 H 0.1890 0.6558 0.3988
H84_16 H 0.1663 0.6103 0.3888
C71_16 C 0.1784(15) 0.7506(15) 0.3407(6)
H85_16 H 0.1645 0.7214 0.3460
H86_16 H 0.1896 0.7420 0.3295
H87_16 H 0.2063 0.7628 0.3471
C72_16 C 0.1399(14) 0.7897(10) 0.3396(6)
C73_16 C 0.1450(9) 0.8394(10) 0.3359(4)
C74_16 C 0.0999(9) 0.8578(10) 0.3410(4)
C75_16 C 0.0756(18) 0.9066(12) 0.3387(6)
H88_16 H 0.0434 0.9065 0.3441
H89_16 H 0.0962 0.9325 0.3435
H90_16 H 0.0713 0.9129 0.3268
C81_16 C 0.167(2) 0.933(2) 0.6782(4)
H97_16 H 0.1867 0.9626 0.6792
H98_16 H 0.1756 0.9096 0.6870
H99_16 H 0.1317 0.9415 0.6793
C82_16 C 0.1752(10) 0.9094(11) 0.6618(3)
C83_16 C 0.1550(9) 0.8660(10) 0.6558(3)
C84_16 C 0.1811(13) 0.8572(13) 0.6413(3)
C85_16 C 0.1730(17) 0.816(2) 0.6293(6)
H100_16 H 0.1959 0.8196 0.6200
H101_16 H 0.1392 0.8169 0.6253
H102_16 H 0.1793 0.7845 0.6349
C86_16 C 0.3104(14) 0.8348(15) 0.5863(5)
H103_16 H 0.2776 0.8387 0.5911
H104_16 H 0.3237 0.8024 0.5892
H105_16 H 0.3082 0.8376 0.5742
C87_16 C 0.3438(15) 0.8741(10) 0.5928(5)
C88_16 C 0.3934(11) 0.8832(10) 0.5899(3)
C89_16 C 0.4038(11) 0.9217(11) 0.6006(4)
C90_16 C 0.454(2) 0.9450(14) 0.6000(8)
H106_16 H 0.4556 0.9711 0.6083
H107_16 H 0.4591 0.9590 0.5890
H108_16 H 0.4788 0.9200 0.6023
Ag7_16 Ag 0.97231(12) 0.75760(12) 0.72461(4)
Ag8_16 Ag 0.98399(12) 0.83389(12) 0.69251(4)
Ag14_16 Ag 0.99414(13) 0.74826(12) 0.39500(4)
N9_16 N 0.8644(10) 0.9863(9) 0.7609(3)
N10_16 N 0.8230(11) 0.9919(10) 0.7513(4)
N13_16 N 0.9340(10) 0.8212(11) 0.7238(3)
N14_16 N 0.9377(10) 0.8545(13) 0.7110(4)
N25_16 N 0.9674(10) 0.8507(9) 0.3838(3)
N26_16 N 0.9557(9) 0.8152(10) 0.3953(3)
C21_16 C 0.9379(16) 0.9471(13) 0.7657(5)
H25_16 H 0.9369 0.9723 0.7743
H26_16 H 0.9690 0.9496 0.7596
H27_16 H 0.9353 0.9144 0.7707
C22_16 C 0.8959(11) 0.9547(11) 0.7540(4)
C23_16 C 0.8731(11) 0.9313(11) 0.7408(4)
C24_16 C 0.8298(15) 0.9581(13) 0.7395(5)
C25_16 C 0.796(2) 0.947(2) 0.7254(6)
H28_16 H 0.7674 0.9691 0.7259
H29_16 H 0.7849 0.9129 0.7261
H30_16 H 0.8135 0.9522 0.7150
C31_16 C 0.888(3) 0.825(3) 0.7511(7)
H37_16 H 0.8984 0.7907 0.7526
H38_16 H 0.8517 0.8257 0.7498
H39_16 H 0.8971 0.8444 0.7607
C32_16 C 0.9113(11) 0.8457(14) 0.7360(4)
C33_16 C 0.8996(11) 0.8935(17) 0.7312(4)
C34_16 C 0.9143(11) 0.8962(13) 0.7148(3)
C35_16 C 0.9150(13) 0.9426(19) 0.7049(6)
H40_16 H 0.9307 0.9364 0.6942
H41_16 H 0.9336 0.9679 0.7109
H42_16 H 0.8812 0.9540 0.7032
C45_16 C 0.993(2) 0.6810(18) 0.7557(6)
H52_16 H 0.9679 0.7048 0.7524
H54_16 H 0.9783 0.6496 0.7582
C51_16 C 0.826(3) 0.925(3) 0.4002(9)
H61_16 H 0.7959 0.9447 0.4002
H62_16 H 0.8403 0.9242 0.3892
H63_16 H 0.8174 0.8908 0.4035
C52_16 C 0.8618(10) 0.9456(12) 0.4123(4)
C53_16 C 0.9092(11) 0.9276(11) 0.4145(4)
C54_16 C 0.9224(14) 0.9442(15) 0.4301(4)
C55_16 C 0.964(3) 0.935(4) 0.4416(11)
H64_16 H 0.9609 0.9564 0.4513
H65_16 H 0.9641 0.9006 0.4451
H66_16 H 0.9954 0.9424 0.4360
C61_16 C 0.9570(19) 0.9416(14) 0.3810(7)
H73_16 H 0.9734 0.9361 0.3704
H74_16 H 0.9245 0.9560 0.3791
H75_16 H 0.9768 0.9640 0.3877
C62_16 C 0.9514(11) 0.8936(11) 0.3898(3)
C63_16 C 0.9305(10) 0.8859(8) 0.4052(3)
C64_16 C 0.9332(11) 0.8356(8) 0.4082(3)
C65_16 C 0.910(2) 0.818(4) 0.4240(6)
H76_16 H 0.9130 0.7820 0.4246
H77_16 H 0.9277 0.8327 0.4334
H78_16 H 0.8757 0.8276 0.4242
H79_16 H 0.9828 0.6833 0.4220
H80_16 H 0.9984 0.6275 0.4256
loop_
_geom_bond_atom_site_label_1
_geom_bond_atom_site_label_2
_geom_bond_site_symmetry_1
_geom_bond_site_symmetry_2
Ag1 N1 1_555 1_555
Ag2 N2 1_555 1_555
Ag3 N5 1_555 1_555
Ag4 N7 1_555 1_555
Ag9 N16 1_555 1_555
Ag10 N24 1_555 1_555
Ag11 N20 1_555 1_555
Ag12 N23 1_555 1_555
Ag15 N28 1_555 1_555
Ag16 N31 1_555 1_555
Ag17 N32 1_555 1_555
Ag18 N34 1_555 1_555
N1 N2 1_555 1_555
N2 C4 1_555 1_555
N3 Ag2 1_555 1_555
N4 N3 1_555 1_555
N5 N6 1_555 1_555
N6 C14 1_555 1_555
N7 N8 1_555 1_555
N8 C19 1_555 1_555
N11 N12 1_555 1_555
N12 Ag4 1_555 1_555
N16 N15 1_555 1_555
N17 Ag9 1_555 1_555
N19 N20 1_555 1_555
N20 C49 1_555 1_555
N23 N24 1_555 1_555
N24 C59 1_555 1_555
N28 N27 1_555 1_555
N29 Ag15 1_555 1_555
N30 Ag13 1_555 1_555
N31 N32 1_555 1_555
N32 C79 1_555 1_555
N33 Ag17 1_555 1_555
N34 N33 1_555 1_555
N35 Ag18 1_555 1_555
N36 Ag16 1_555 1_555
C1 H1 1_555 1_555
H2 C1 1_555 1_555
H3 C1 1_555 1_555
C2 N1 1_555 1_555
C3 C2 1_555 1_555
C4 C3 1_555 1_555
C5 C4 1_555 1_555
H4 C5 1_555 1_555
H5 C5 1_555 1_555
H6 C5 1_555 1_555
C6 H7 1_555 1_555
H8 C6 1_555 1_555
H9 C6 1_555 1_555
C7 N3 1_555 1_555
C8 C7 1_555 1_555
C9 N4 1_555 1_555
C10 C9 1_555 1_555
H10 C10 1_555 1_555
H11 C10 1_555 1_555
H12 C10 1_555 1_555
C11 H13 1_555 1_555
H14 C11 1_555 1_555
H15 C11 1_555 1_555
C12 N5 1_555 1_555
C13 C12 1_555 1_555
C14 C13 1_555 1_555
C15 C14 1_555 1_555
H16 C15 1_555 1_555
H17 C15 1_555 1_555
H18 C15 1_555 1_555
C16 H19 1_555 1_555
H20 C16 1_555 1_555
H21 C16 1_555 1_555
C17 N7 1_555 1_555
C18 C17 1_555 1_555
C19 C18 1_555 1_555
C20 C19 1_555 1_555
H22 C20 1_555 1_555
H23 C20 1_555 1_555
H24 C20 1_555 1_555
C26 H31 1_555 1_555
H32 C26 1_555 1_555
H33 C26 1_555 1_555
C27 N11 1_555 1_555
C28 C8 1_555 1_555
C29 N12 1_555 1_555
C30 C29 1_555 1_555
H34 C30 1_555 1_555
H35 C30 1_555 1_555
H36 C30 1_555 1_555
C36 H43 1_555 1_555
H44 C36 1_555 1_555
H45 C36 1_555 1_555
C37 N15 1_555 1_555
C38 C37 1_555 1_555
C39 N16 1_555 1_555
C40 C39 1_555 1_555
H46 C40 1_555 1_555
H47 C40 1_555 1_555
H48 C40 1_555 1_555
C41 H49 1_555 1_555
H50 C41 1_555 1_555
H51 C41 1_555 1_555
C42 N17 1_555 1_555
C43 C42 1_555 1_555
C44 N18 1_555 1_555
C46 H55 1_555 1_555
H56 C46 1_555 1_555
H57 C46 1_555 1_555
C47 N19 1_555 1_555
C48 C47 1_555 1_555
C49 C48 1_555 1_555
C50 C49 1_555 1_555
H58 C50 1_555 1_555
H59 C50 1_555 1_555
H60 C50 1_555 1_555
C56 H67 1_555 1_555
H68 C56 1_555 1_555
H69 C56 1_555 1_555
C57 N23 1_555 1_555
C58 C43 1_555 1_555
C59 C58 1_555 1_555
C60 C59 1_555 1_555
H70 C60 1_555 1_555
H71 C60 1_555 1_555
H72 C60 1_555 1_555
H81 C66 1_555 1_555
C67 N27 1_555 1_555
C68 C18 1_555 1_555
C69 N28 1_555 1_555
C70 C69 1_555 1_555
H82 C70 1_555 1_555
H83 C70 1_555 1_555
H84 C70 1_555 1_555
C71 H85 1_555 1_555
H86 C71 1_555 1_555
H87 C71 1_555 1_555
C72 N29 1_555 1_555
C73 C48 1_555 1_555
C74 N30 1_555 1_555
C75 C74 1_555 1_555
H88 C75 1_555 1_555
H89 C75 1_555 1_555
H90 C75 1_555 1_555
C76 H91 1_555 1_555
H92 C76 1_555 1_555
H93 C76 1_555 1_555
C77 N31 1_555 1_555
C78 C13 1_555 1_555
C79 C78 1_555 1_555
C80 C79 1_555 1_555
H94 C80 1_555 1_555
H95 C80 1_555 1_555
H96 C80 1_555 1_555
C81 H97 1_555 1_555
H98 C81 1_555 1_555
H99 C81 1_555 1_555
C82 N33 1_555 1_555
C83 C38 1_555 1_555
C84 N34 1_555 1_555
C85 C84 1_555 1_555
H100 C85 1_555 1_555
H101 C85 1_555 1_555
H102 C85 1_555 1_555
C86 H103 1_555 1_555
H104 C86 1_555 1_555
H105 C86 1_555 1_555
C87 N35 1_555 1_555
C88 C3 1_555 1_555
C89 N36 1_555 1_555
C90 C89 1_555 1_555
H106 C90 1_555 1_555
H107 C90 1_555 1_555
H108 C90 1_555 1_555
Ag19 N6 1_555 1_555
Ag20 N4 1_555 1_555
Ag21 N8 1_555 1_555
Ag22 N11 1_555 1_555
Ag23 N19 1_555 1_555
N37 Ag3 1_555 1_555
N38 Ag1 1_555 1_555
N41 Ag10 1_555 1_555
N42 Ag11 1_555 1_555
N17 N18 1_555 1_555
N29 N30 1_555 1_555
N35 N36 1_555 1_555
C1 C2 1_555 1_555
C6 C7 1_555 1_555
C8 C9 1_555 1_555
C11 C12 1_555 1_555
C16 C17 1_555 1_555
C26 C27 1_555 1_555
C27 C28 1_555 1_555
C28 C29 1_555 1_555
C36 C37 1_555 1_555
C38 C39 1_555 1_555
C41 C42 1_555 1_555
C43 C44 1_555 1_555
C46 C47 1_555 1_555
C56 C57 1_555 1_555
C57 C58 1_555 1_555
C66 C67 1_555 1_555
C67 C68 1_555 1_555
C68 C69 1_555 1_555
C71 C72 1_555 1_555
C72 C73 1_555 1_555
C73 C74 1_555 1_555
C76 C77 1_555 1_555
C77 C78 1_555 1_555
C81 C82 1_555 1_555
C82 C83 1_555 1_555
C83 C84 1_555 1_555
C86 C87 1_555 1_555
C87 C88 1_555 1_555
C88 C89 1_555 1_555
Ag5 N9 1_555 1_555
Ag6 N10 1_555 1_555
Ag7 N13 1_555 1_555
Ag8 N14 1_555 1_555
Ag14 N26 1_555 1_555
N9 N10 1_555 1_555
N10 C24 1_555 1_555
N13 N14 1_555 1_555
N14 C34 1_555 1_555
N21 N22 1_555 1_555
N22 C54 1_555 1_555
N25 N26 1_555 1_555
N26 C64 1_555 1_555
C21 H25 1_555 1_555
H26 C21 1_555 1_555
H27 C21 1_555 1_555
C22 N9 1_555 1_555
C23 C22 1_555 1_555
C24 C23 1_555 1_555
C25 C24 1_555 1_555
H28 C25 1_555 1_555
H29 C25 1_555 1_555
H30 C25 1_555 1_555
C31 H37 1_555 1_555
H38 C31 1_555 1_555
H39 C31 1_555 1_555
C32 N13 1_555 1_555
C33 C23 1_555 1_555
C34 C33 1_555 1_555
C35 C34 1_555 1_555
H40 C35 1_555 1_555
H41 C35 1_555 1_555
H42 C35 1_555 1_555
H52 C45 1_555 1_555
H54 C45 1_555 1_555
C51 H61 1_555 1_555
H62 C51 1_555 1_555
H63 C51 1_555 1_555
C52 N21 1_555 1_555
C53 C52 1_555 1_555
C54 C53 1_555 1_555
C55 C54 1_555 1_555
H64 C55 1_555 1_555
H65 C55 1_555 1_555
H66 C55 1_555 1_555
C61 H73 1_555 1_555
H74 C61 1_555 1_555
H75 C61 1_555 1_555
C62 N25 1_555 1_555
C63 C53 1_555 1_555
C64 C63 1_555 1_555
C65 C64 1_555 1_555
H76 C65 1_555 1_555
H77 C65 1_555 1_555
H78 C65 1_555 1_555
Ag24 N21 1_555 1_555
Ag25 N22 1_555 1_555
N39 Ag5 1_555 1_555
N40 Ag6 1_555 1_555
C21 C22 1_555 1_555
C31 C32 1_555 1_555
C32 C33 1_555 1_555
C51 C52 1_555 1_555
C61 C62 1_555 1_555
C62 C63 1_555 1_555
N38_2 Ag1_2 1_555 1_555
Ag4_2 N7_2 1_555 1_555
Ag24 N20_2 1_555 1_555
Ag13_2 N25_2 1_555 1_555
Ag14_2 N26_2 1_555 1_555
Ag15_2 N28_2 1_555 1_555
N7_2 N8_2 1_555 1_555
N8_2 C19_2 1_555 1_555
N11_2 N12_2 1_555 1_555
N12_2 Ag4_2 1_555 1_555
N19_2 N20_2 1_555 1_555
N20_2 C49_2 1_555 1_555
N42 N22_2 1_555 1_555
N22_2 C54_2 1_555 1_555
N25_2 N26_2 1_555 1_555
N26_2 C64_2 1_555 1_555
N27_2 Ag14_2 1_555 1_555
N28_2 N27_2 1_555 1_555
N29_2 Ag15_2 1_555 1_555
N30_2 Ag13_2 1_555 1_555
C16_2 H19_2 1_555 1_555
H20_2 C16_2 1_555 1_555
H21_2 C16_2 1_555 1_555
C17_2 N7_2 1_555 1_555
C18_2 C17_2 1_555 1_555
C19_2 C18_2 1_555 1_555
C20_2 C19_2 1_555 1_555
H22_2 C20_2 1_555 1_555
H23_2 C20_2 1_555 1_555
H24_2 C20_2 1_555 1_555
C29_2 N12_2 1_555 1_555
C30_2 C29_2 1_555 1_555
H34_2 C30_2 1_555 1_555
H35_2 C30_2 1_555 1_555
H36_2 C30_2 1_555 1_555
C46_2 H55_2 1_555 1_555
H56_2 C46_2 1_555 1_555
H57_2 C46_2 1_555 1_555
C47_2 N19_2 1_555 1_555
C48_2 C47_2 1_555 1_555
C49_2 C48_2 1_555 1_555
C50_2 C49_2 1_555 1_555
H58_2 C50_2 1_555 1_555
H59_2 C50_2 1_555 1_555
H60_2 C50_2 1_555 1_555
C51_2 H61_2 1_555 1_555
H62_2 C51_2 1_555 1_555
H63_2 C51_2 1_555 1_555
C52_2 N42 1_555 1_555
C53_2 C52_2 1_555 1_555
C54_2 C53_2 1_555 1_555
C55_2 C54_2 1_555 1_555
H64_2 C55_2 1_555 1_555
H65_2 C55_2 1_555 1_555
H66_2 C55_2 1_555 1_555
C61_2 H73_2 1_555 1_555
H74_2 C61_2 1_555 1_555
H75_2 C61_2 1_555 1_555
C62_2 N25_2 1_555 1_555
C63_2 C53_2 1_555 1_555
C64_2 C63_2 1_555 1_555
C65_2 C64_2 1_555 1_555
H76_2 C65_2 1_555 1_555
H77_2 C65_2 1_555 1_555
H78_2 C65_2 1_555 1_555
C66_2 H79_2 1_555 1_555
H80_2 C66_2 1_555 1_555
H81_2 C66_2 1_555 1_555
C67_2 N27_2 1_555 1_555
C68_2 C18_2 1_555 1_555
C69_2 N28_2 1_555 1_555
C70_2 C69_2 1_555 1_555
H82_2 C70_2 1_555 1_555
H83_2 C70_2 1_555 1_555
H84_2 C70_2 1_555 1_555
C71_2 H85_2 1_555 1_555
H86_2 C71_2 1_555 1_555
H87_2 C71_2 1_555 1_555
C72_2 N29_2 1_555 1_555
C73_2 C48_2 1_555 1_555
C74_2 N30_2 1_555 1_555
C75_2 C74_2 1_555 1_555
H88_2 C75_2 1_555 1_555
H89_2 C75_2 1_555 1_555
H90_2 C75_2 1_555 1_555
Ag21_2 N8_2 1_555 1_555
Ag22_2 N11_2 1_555 1_555
Ag23_2 N19_2 1_555 1_555
Ag25_2 N22_2 1_555 1_555
N29_2 N30_2 1_555 1_555
C16_2 C17_2 1_555 1_555
C28_2 C29_2 1_555 1_555
C46_2 C47_2 1_555 1_555
C51_2 C52_2 1_555 1_555
C61_2 C62_2 1_555 1_555
C62_2 C63_2 1_555 1_555
C66_2 C67_2 1_555 1_555
C67_2 C68_2 1_555 1_555
C68_2 C69_2 1_555 1_555
C71_2 C72_2 1_555 1_555
C72_2 C73_2 1_555 1_555
C73_2 C74_2 1_555 1_555
Ag2_2 N2_2 1_555 1_555
Ag3_2 N5_2 1_555 1_555
Ag5_2 N9_2 1_555 1_555
Ag6_2 N10_2 1_555 1_555
Ag7_2 N13_2 1_555 1_555
Ag8_2 N14_2 1_555 1_555
Ag9_2 N16_2 1_555 1_555
Ag10_2 N24_2 1_555 1_555
Ag12_2 N23_2 1_555 1_555
Ag16_2 N31_2 1_555 1_555
Ag17_2 N32_2 1_555 1_555
Ag18_2 N34_2 1_555 1_555
N1_2 N2_2 1_555 1_555
N2_2 C4_2 1_555 1_555
N3_2 Ag2_2 1_555 1_555
N4_2 N3_2 1_555 1_555
N5_2 N6_2 1_555 1_555
N6_2 C14_2 1_555 1_555
N9_2 N10_2 1_555 1_555
N10_2 C24_2 1_555 1_555
N13_2 N14_2 1_555 1_555
N14_2 C34_2 1_555 1_555
N15_2 Ag8_2 1_555 1_555
N16_2 N15_2 1_555 1_555
N17_2 Ag9_2 1_555 1_555
N18_2 Ag7_2 1_555 1_555
N23_2 N24_2 1_555 1_555
N24_2 C59_2 1_555 1_555
N31_2 N32_2 1_555 1_555
N32_2 C79_2 1_555 1_555
N33_2 Ag17_2 1_555 1_555
N34_2 N33_2 1_555 1_555
N35_2 Ag18_2 1_555 1_555
N36_2 Ag16_2 1_555 1_555
H3_2 C1_2 1_555 1_555
C2_2 N1_2 1_555 1_555
C3_2 C2_2 1_555 1_555
C4_2 C3_2 1_555 1_555
C5_2 C4_2 1_555 1_555
H4_2 C5_2 1_555 1_555
H5_2 C5_2 1_555 1_555
H6_2 C5_2 1_555 1_555
C6_2 H7_2 1_555 1_555
H9_2 C6_2 1_555 1_555
C7_2 N3_2 1_555 1_555
C8_2 C7_2 1_555 1_555
C9_2 N4_2 1_555 1_555
C10_2 C9_2 1_555 1_555
H10_2 C10_2 1_555 1_555
H11_2 C10_2 1_555 1_555
C11_2 H13_2 1_555 1_555
H14_2 C11_2 1_555 1_555
H15_2 C11_2 1_555 1_555
C12_2 N5_2 1_555 1_555
C13_2 C12_2 1_555 1_555
C14_2 C13_2 1_555 1_555
C15_2 C14_2 1_555 1_555
H16_2 C15_2 1_555 1_555
H17_2 C15_2 1_555 1_555
H18_2 C15_2 1_555 1_555
C21_2 H25_2 1_555 1_555
H26_2 C21_2 1_555 1_555
H27_2 C21_2 1_555 1_555
C22_2 N9_2 1_555 1_555
C23_2 C22_2 1_555 1_555
C24_2 C23_2 1_555 1_555
C25_2 C24_2 1_555 1_555
H28_2 C25_2 1_555 1_555
H29_2 C25_2 1_555 1_555
H30_2 C25_2 1_555 1_555
C26_2 H31_2 1_555 1_555
H32_2 C26_2 1_555 1_555
H33_2 C26_2 1_555 1_555
C31_2 H37_2 1_555 1_555
H38_2 C31_2 1_555 1_555
H39_2 C31_2 1_555 1_555
C32_2 N13_2 1_555 1_555
C33_2 C23_2 1_555 1_555
C34_2 C33_2 1_555 1_555
C35_2 C34_2 1_555 1_555
H40_2 C35_2 1_555 1_555
H41_2 C35_2 1_555 1_555
H42_2 C35_2 1_555 1_555
C36_2 H43_2 1_555 1_555
H44_2 C36_2 1_555 1_555
H45_2 C36_2 1_555 1_555
C37_2 N15_2 1_555 1_555
C38_2 C37_2 1_555 1_555
C39_2 N16_2 1_555 1_555
C40_2 C39_2 1_555 1_555
H46_2 C40_2 1_555 1_555
H47_2 C40_2 1_555 1_555
H48_2 C40_2 1_555 1_555
C41_2 H49_2 1_555 1_555
H50_2 C41_2 1_555 1_555
H51_2 C41_2 1_555 1_555
C42_2 N17_2 1_555 1_555
C43_2 C42_2 1_555 1_555
C44_2 N18_2 1_555 1_555
C45_2 C44_2 1_555 1_555
H52_2 C45_2 1_555 1_555
H53_2 C45_2 1_555 1_555
H54_2 C45_2 1_555 1_555
C56_2 H67_2 1_555 1_555
H68_2 C56_2 1_555 1_555
H69_2 C56_2 1_555 1_555
C57_2 N23_2 1_555 1_555
C58_2 C43_2 1_555 1_555
C59_2 C58_2 1_555 1_555
C60_2 C59_2 1_555 1_555
H70_2 C60_2 1_555 1_555
H71_2 C60_2 1_555 1_555
H72_2 C60_2 1_555 1_555
C76_2 H91_2 1_555 1_555
H92_2 C76_2 1_555 1_555
H93_2 C76_2 1_555 1_555
C77_2 N31_2 1_555 1_555
C78_2 C13_2 1_555 1_555
C79_2 C78_2 1_555 1_555
C80_2 C79_2 1_555 1_555
H94_2 C80_2 1_555 1_555
H95_2 C80_2 1_555 1_555
H96_2 C80_2 1_555 1_555
C81_2 H97_2 1_555 1_555
H98_2 C81_2 1_555 1_555
H99_2 C81_2 1_555 1_555
C82_2 N33_2 1_555 1_555
C83_2 C38_2 1_555 1_555
C84_2 N34_2 1_555 1_555
C85_2 C84_2 1_555 1_555
H100_2 C85_2 1_555 1_555
H101_2 C85_2 1_555 1_555
H102_2 C85_2 1_555 1_555
C86_2 H103_2 1_555 1_555
H104_2 C86_2 1_555 1_555
H105_2 C86_2 1_555 1_555
C87_2 N35_2 1_555 1_555
C88_2 C3_2 1_555 1_555
C89_2 N36_2 1_555 1_555
C90_2 C89_2 1_555 1_555
H106_2 C90_2 1_555 1_555
H107_2 C90_2 1_555 1_555
H108_2 C90_2 1_555 1_555
Ag19_2 N6_2 1_555 1_555
N39_2 Ag5_2 1_555 1_555
N40_2 Ag6_2 1_555 1_555
N41_2 Ag10_2 1_555 1_555
N17_2 N18_2 1_555 1_555
N35_2 N36_2 1_555 1_555
C1_2 C2_2 1_555 1_555
C6_2 C7_2 1_555 1_555
C8_2 C9_2 1_555 1_555
C11_2 C12_2 1_555 1_555
C21_2 C22_2 1_555 1_555
C26_2 C27_2 1_555 1_555
C31_2 C32_2 1_555 1_555
C32_2 C33_2 1_555 1_555
C36_2 C37_2 1_555 1_555
C38_2 C39_2 1_555 1_555
C41_2 C42_2 1_555 1_555
C43_2 C44_2 1_555 1_555
C56_2 C57_2 1_555 1_555
C57_2 C58_2 1_555 1_555
C76_2 C77_2 1_555 1_555
C77_2 C78_2 1_555 1_555
C81_2 C82_2 1_555 1_555
C82_2 C83_2 1_555 1_555
C83_2 C84_2 1_555 1_555
C86_2 C87_2 1_555 1_555
C87_2 C88_2 1_555 1_555
C88_2 C89_2 1_555 1_555
Ag23 N24_3 1_555 1_555
Ag25_2 N23_3 1_555 1_555
N9_3 N10_3 1_555 1_555
N23_3 N24_3 1_555 1_555
N24_3 C59_3 1_555 1_555
C21_3 H25_3 1_555 1_555
H26_3 C21_3 1_555 1_555
H27_3 C21_3 1_555 1_555
C22_3 N9_3 1_555 1_555
C31_3 H37_3 1_555 1_555
H39_3 C31_3 1_555 1_555
H52_3 C45_3 1_555 1_555
H53_3 C45_3 1_555 1_555
H54_3 C45_3 1_555 1_555
C56_3 H67_3 1_555 1_555
H68_3 C56_3 1_555 1_555
H69_3 C56_3 1_555 1_555
C57_3 N23_3 1_555 1_555
C59_3 C58_3 1_555 1_555
C60_3 C59_3 1_555 1_555
H70_3 C60_3 1_555 1_555
H72_3 C60_3 1_555 1_555
C21_3 C22_3 1_555 1_555
C56_3 C57_3 1_555 1_555
C57_3 C58_3 1_555 1_555
Ag2_3 N2_3 1_555 1_555
Ag4_3 N7_3 1_555 1_555
Ag7_3 N13_3 1_555 1_555
Ag8_3 N14_3 1_555 1_555
Ag9_3 N16_3 1_555 1_555
Ag11_2 N20_3 1_555 1_555
Ag13_3 N25_3 1_555 1_555
Ag14_3 N26_3 1_555 1_555
Ag15_3 N28_3 1_555 1_555
Ag18_3 N34_3 1_555 1_555
N1_3 N2_3 1_555 1_555
N2_3 C4_3 1_555 1_555
N3_3 Ag2_3 1_555 1_555
N37_2 N3_3 1_555 1_555
N7_3 N39_2 1_555 1_555
N39_2 C19_3 1_555 1_555
N40_2 N12_3 1_555 1_555
N12_3 Ag4_3 1_555 1_555
N13_3 N14_3 1_555 1_555
N14_3 C34_3 1_555 1_555
N15_3 Ag8_3 1_555 1_555
N16_3 N15_3 1_555 1_555
N17_3 Ag9_3 1_555 1_555
N18_3 Ag7_3 1_555 1_555
N41 N20_3 1_555 1_555
N20_3 C49_3 1_555 1_555
N21_2 N43_2 1_555 1_555
N43_2 C54_3 1_555 1_555
N25_3 N26_3 1_555 1_555
N26_3 C64_3 1_555 1_555
N27_3 Ag14_3 1_555 1_555
N28_3 N27_3 1_555 1_555
N29_3 Ag15_3 1_555 1_555
N30_3 Ag13_3 1_555 1_555
N33_3 Ag17_3 1_555 1_555
N34_3 N33_3 1_555 1_555
N35_3 Ag18_3 1_555 1_555
N36_3 Ag16_3 1_555 1_555
H3_3 C1_3 1_555 1_555
C2_3 N1_3 1_555 1_555
C3_3 C2_3 1_555 1_555
C4_3 C3_3 1_555 1_555
C5_3 C4_3 1_555 1_555
H4_3 C5_3 1_555 1_555
H5_3 C5_3 1_555 1_555
H6_3 C5_3 1_555 1_555
C6_3 H7_3 1_555 1_555
H8_3 C6_3 1_555 1_555
H9_3 C6_3 1_555 1_555
C7_3 N3_3 1_555 1_555
C8_3 C7_3 1_555 1_555
C9_3 N37_2 1_555 1_555
C10_3 C9_3 1_555 1_555
H10_3 C10_3 1_555 1_555
H11_3 C10_3 1_555 1_555
H12_3 C10_3 1_555 1_555
C16_3 H19_3 1_555 1_555
H20_3 C16_3 1_555 1_555
H21_3 C16_3 1_555 1_555
C17_3 N7_3 1_555 1_555
C18_3 C17_3 1_555 1_555
C19_3 C18_3 1_555 1_555
C20_3 C19_3 1_555 1_555
H22_3 C20_3 1_555 1_555
H23_3 C20_3 1_555 1_555
H24_3 C20_3 1_555 1_555
C24_3 C23_3 1_555 1_555
C25_3 C24_3 1_555 1_555
H28_3 C25_3 1_555 1_555
H29_3 C25_3 1_555 1_555
H30_3 C25_3 1_555 1_555
C26_3 H31_3 1_555 1_555
H32_3 C26_3 1_555 1_555
H33_3 C26_3 1_555 1_555
C27_3 N40_2 1_555 1_555
C28_3 C8_3 1_555 1_555
C29_3 N12_3 1_555 1_555
C30_3 C29_3 1_555 1_555
H34_3 C30_3 1_555 1_555
H35_3 C30_3 1_555 1_555
H36_3 C30_3 1_555 1_555
C32_3 N13_3 1_555 1_555
C33_3 C23_3 1_555 1_555
C34_3 C33_3 1_555 1_555
C35_3 C34_3 1_555 1_555
H40_3 C35_3 1_555 1_555
H41_3 C35_3 1_555 1_555
H42_3 C35_3 1_555 1_555
C36_3 H43_3 1_555 1_555
H44_3 C36_3 1_555 1_555
H45_3 C36_3 1_555 1_555
C37_3 N15_3 1_555 1_555
C38_3 C37_3 1_555 1_555
C39_3 N16_3 1_555 1_555
C40_3 C39_3 1_555 1_555
H46_3 C40_3 1_555 1_555
H47_3 C40_3 1_555 1_555
H48_3 C40_3 1_555 1_555
C41_3 H49_3 1_555 1_555
H50_3 C41_3 1_555 1_555
H51_3 C41_3 1_555 1_555
C42_3 N17_3 1_555 1_555
C43_3 C42_3 1_555 1_555
C44_3 N18_3 1_555 1_555
C46_3 H55_3 1_555 1_555
H56_3 C46_3 1_555 1_555
H57_3 C46_3 1_555 1_555
C47_3 N41 1_555 1_555
C48_3 C47_3 1_555 1_555
C49_3 C48_3 1_555 1_555
C50_3 C49_3 1_555 1_555
H58_3 C50_3 1_555 1_555
H59_3 C50_3 1_555 1_555
H60_3 C50_3 1_555 1_555
C51_3 H61_3 1_555 1_555
H62_3 C51_3 1_555 1_555
H63_3 C51_3 1_555 1_555
C52_3 N21_2 1_555 1_555
C53_3 C52_3 1_555 1_555
C54_3 C53_3 1_555 1_555
C55_3 C54_3 1_555 1_555
H64_3 C55_3 1_555 1_555
H65_3 C55_3 1_555 1_555
H66_3 C55_3 1_555 1_555
C61_3 H73_3 1_555 1_555
H74_3 C61_3 1_555 1_555
H75_3 C61_3 1_555 1_555
C62_3 N25_3 1_555 1_555
C63_3 C53_3 1_555 1_555
C64_3 C63_3 1_555 1_555
C65_3 C64_3 1_555 1_555
H76_3 C65_3 1_555 1_555
H77_3 C65_3 1_555 1_555
H78_3 C65_3 1_555 1_555
C66_3 H79_3 1_555 1_555
H80_3 C66_3 1_555 1_555
H81_3 C66_3 1_555 1_555
C67_3 N27_3 1_555 1_555
C68_3 C18_3 1_555 1_555
C69_3 N28_3 1_555 1_555
C70_3 C69_3 1_555 1_555
H82_3 C70_3 1_555 1_555
H83_3 C70_3 1_555 1_555
H84_3 C70_3 1_555 1_555
C71_3 H85_3 1_555 1_555
H86_3 C71_3 1_555 1_555
H87_3 C71_3 1_555 1_555
C72_3 N29_3 1_555 1_555
C73_3 C48_3 1_555 1_555
C74_3 N30_3 1_555 1_555
C75_3 C74_3 1_555 1_555
H88_3 C75_3 1_555 1_555
H89_3 C75_3 1_555 1_555
H90_3 C75_3 1_555 1_555
C81_3 H97_3 1_555 1_555
H98_3 C81_3 1_555 1_555
H99_3 C81_3 1_555 1_555
C82_3 N33_3 1_555 1_555
C83_3 C38_3 1_555 1_555
C84_3 N34_3 1_555 1_555
C85_3 C84_3 1_555 1_555
H100_3 C85_3 1_555 1_555
H101_3 C85_3 1_555 1_555
H102_3 C85_3 1_555 1_555
C86_3 H103_3 1_555 1_555
H104_3 C86_3 1_555 1_555
H105_3 C86_3 1_555 1_555
C87_3 N35_3 1_555 1_555
C88_3 C3_3 1_555 1_555
C89_3 N36_3 1_555 1_555
C90_3 C89_3 1_555 1_555
H106_3 C90_3 1_555 1_555
H107_3 C90_3 1_555 1_555
H108_3 C90_3 1_555 1_555
N17_3 N18_3 1_555 1_555
N29_3 N30_3 1_555 1_555
N35_3 N36_3 1_555 1_555
C1_3 C2_3 1_555 1_555
C6_3 C7_3 1_555 1_555
C8_3 C9_3 1_555 1_555
C16_3 C17_3 1_555 1_555
C26_3 C27_3 1_555 1_555
C27_3 C28_3 1_555 1_555
C28_3 C29_3 1_555 1_555
C32_3 C33_3 1_555 1_555
C36_3 C37_3 1_555 1_555
C38_3 C39_3 1_555 1_555
C41_3 C42_3 1_555 1_555
C43_3 C44_3 1_555 1_555
C46_3 C47_3 1_555 1_555
C51_3 C52_3 1_555 1_555
C61_3 C62_3 1_555 1_555
C62_3 C63_3 1_555 1_555
C66_3 C67_3 1_555 1_555
C67_3 C68_3 1_555 1_555
C68_3 C69_3 1_555 1_555
C71_3 C72_3 1_555 1_555
C72_3 C73_3 1_555 1_555
C73_3 C74_3 1_555 1_555
C81_3 C82_3 1_555 1_555
C82_3 C83_3 1_555 1_555
C83_3 C84_3 1_555 1_555
C86_3 C87_3 1_555 1_555
C87_3 C88_3 1_555 1_555
C88_3 C89_3 1_555 1_555
Ag20_2 N5_3 1_555 1_555
N5_3 N38_2 1_555 1_555
N38_2 C14_3 1_555 1_555
N31_3 N32_3 1_555 1_555
N32_3 C79_3 1_555 1_555
C11_3 H13_3 1_555 1_555
H14_3 C11_3 1_555 1_555
H15_3 C11_3 1_555 1_555
C12_3 N5_3 1_555 1_555
C13_3 C12_3 1_555 1_555
C14_3 C13_3 1_555 1_555
C15_3 C14_3 1_555 1_555
H16_3 C15_3 1_555 1_555
H17_3 C15_3 1_555 1_555
H18_3 C15_3 1_555 1_555
C76_3 H91_3 1_555 1_555
H92_3 C76_3 1_555 1_555
H93_3 C76_3 1_555 1_555
C77_3 N31_3 1_555 1_555
C78_3 C13_3 1_555 1_555
C79_3 C78_3 1_555 1_555
C80_3 C79_3 1_555 1_555
H94_3 C80_3 1_555 1_555
H95_3 C80_3 1_555 1_555
H96_3 C80_3 1_555 1_555
C11_3 C12_3 1_555 1_555
C76_3 C77_3 1_555 1_555
C77_3 C78_3 1_555 1_555
Ag20 N5_4 1_555 1_555
N5_4 N38 1_555 1_555
N38 C14_4 1_555 1_555
N31_4 N32_4 1_555 1_555
N32_4 C79_4 1_555 1_555
C11_4 H13_4 1_555 1_555
H14_4 C11_4 1_555 1_555
H15_4 C11_4 1_555 1_555
C12_4 N5_4 1_555 1_555
C13_4 C12_4 1_555 1_555
C14_4 C13_4 1_555 1_555
C15_4 C14_4 1_555 1_555
H16_4 C15_4 1_555 1_555
H17_4 C15_4 1_555 1_555
H18_4 C15_4 1_555 1_555
C76_4 H91_4 1_555 1_555
H92_4 C76_4 1_555 1_555
H93_4 C76_4 1_555 1_555
C77_4 N31_4 1_555 1_555
C78_4 C13_4 1_555 1_555
C79_4 C78_4 1_555 1_555
C80_4 C79_4 1_555 1_555
H94_4 C80_4 1_555 1_555
H95_4 C80_4 1_555 1_555
H96_4 C80_4 1_555 1_555
C11_4 C12_4 1_555 1_555
C76_4 C77_4 1_555 1_555
C77_4 C78_4 1_555 1_555
Ag7_4 N13_4 1_555 1_555
Ag8_4 N14_4 1_555 1_555
Ag14_4 N26_4 1_555 1_555
N9_4 N10_4 1_555 1_555
N10_4 C24_4 1_555 1_555
N13_4 N14_4 1_555 1_555
N14_4 C34_4 1_555 1_555
N42_2 N43 1_555 1_555
N43 C54_4 1_555 1_555
N25_4 N26_4 1_555 1_555
N26_4 C64_4 1_555 1_555
C21_4 H25_4 1_555 1_555
H26_4 C21_4 1_555 1_555
H27_4 C21_4 1_555 1_555
C22_4 N9_4 1_555 1_555
C23_4 C22_4 1_555 1_555
C24_4 C23_4 1_555 1_555
C25_4 C24_4 1_555 1_555
H28_4 C25_4 1_555 1_555
H29_4 C25_4 1_555 1_555
H30_4 C25_4 1_555 1_555
C31_4 H37_4 1_555 1_555
H38_4 C31_4 1_555 1_555
H39_4 C31_4 1_555 1_555
C32_4 N13_4 1_555 1_555
C33_4 C23_4 1_555 1_555
C34_4 C33_4 1_555 1_555
C35_4 C34_4 1_555 1_555
H40_4 C35_4 1_555 1_555
H41_4 C35_4 1_555 1_555
H42_4 C35_4 1_555 1_555
H52_4 C45_4 1_555 1_555
H54_4 C45_4 1_555 1_555
C51_4 H61_4 1_555 1_555
H62_4 C51_4 1_555 1_555
H63_4 C51_4 1_555 1_555
C52_4 N42_2 1_555 1_555
C53_4 C52_4 1_555 1_555
C54_4 C53_4 1_555 1_555
C55_4 C54_4 1_555 1_555
H64_4 C55_4 1_555 1_555
H65_4 C55_4 1_555 1_555
H66_4 C55_4 1_555 1_555
C61_4 H73_4 1_555 1_555
H74_4 C61_4 1_555 1_555
H75_4 C61_4 1_555 1_555
C62_4 N25_4 1_555 1_555
C63_4 C53_4 1_555 1_555
C64_4 C63_4 1_555 1_555
C65_4 C64_4 1_555 1_555
H76_4 C65_4 1_555 1_555
H77_4 C65_4 1_555 1_555
H78_4 C65_4 1_555 1_555
C21_4 C22_4 1_555 1_555
C31_4 C32_4 1_555 1_555
C32_4 C33_4 1_555 1_555
C51_4 C52_4 1_555 1_555
C61_4 C62_4 1_555 1_555
C62_4 C63_4 1_555 1_555
Ag19 N1_4 1_555 1_555
Ag2_4 N2_4 1_555 1_555
Ag4_4 N7_4 1_555 1_555
Ag9_4 N16_4 1_555 1_555
Ag23_2 N24_4 1_555 1_555
Ag24_2 N20_4 1_555 1_555
Ag25 N23_4 1_555 1_555
Ag15_4 N28_4 1_555 1_555
Ag18_4 N34_4 1_555 1_555
N1_4 N2_4 1_555 1_555
N2_4 C4_4 1_555 1_555
N3_4 Ag2_4 1_555 1_555
N37 N3_4 1_555 1_555
N7_4 N39 1_555 1_555
N39 C19_4 1_555 1_555
N40 N12_4 1_555 1_555
N12_4 Ag4_4 1_555 1_555
N16_4 N15_4 1_555 1_555
N17_4 Ag9_4 1_555 1_555
N41_2 N20_4 1_555 1_555
N20_4 C49_4 1_555 1_555
N23_4 N24_4 1_555 1_555
N24_4 C59_4 1_555 1_555
N28_4 N27_4 1_555 1_555
N29_4 Ag15_4 1_555 1_555
N30_4 Ag13_4 1_555 1_555
N33_4 Ag17_4 1_555 1_555
N34_4 N33_4 1_555 1_555
N35_4 Ag18_4 1_555 1_555
N36_4 Ag16_4 1_555 1_555
C1_4 H1_4 1_555 1_555
H2_4 C1_4 1_555 1_555
H3_4 C1_4 1_555 1_555
C2_4 N1_4 1_555 1_555
C3_4 C2_4 1_555 1_555
C4_4 C3_4 1_555 1_555
C5_4 C4_4 1_555 1_555
H4_4 C5_4 1_555 1_555
H5_4 C5_4 1_555 1_555
H6_4 C5_4 1_555 1_555
C6_4 H7_4 1_555 1_555
H8_4 C6_4 1_555 1_555
H9_4 C6_4 1_555 1_555
C7_4 N3_4 1_555 1_555
C8_4 C7_4 1_555 1_555
C9_4 N37 1_555 1_555
C10_4 C9_4 1_555 1_555
H10_4 C10_4 1_555 1_555
H11_4 C10_4 1_555 1_555
H12_4 C10_4 1_555 1_555
C16_4 H19_4 1_555 1_555
H20_4 C16_4 1_555 1_555
H21_4 C16_4 1_555 1_555
C17_4 N7_4 1_555 1_555
C18_4 C17_4 1_555 1_555
C19_4 C18_4 1_555 1_555
C20_4 C19_4 1_555 1_555
H22_4 C20_4 1_555 1_555
H23_4 C20_4 1_555 1_555
H24_4 C20_4 1_555 1_555
C26_4 H31_4 1_555 1_555
H32_4 C26_4 1_555 1_555
H33_4 C26_4 1_555 1_555
C27_4 N40 1_555 1_555
C28_4 C8_4 1_555 1_555
C29_4 N12_4 1_555 1_555
C30_4 C29_4 1_555 1_555
H34_4 C30_4 1_555 1_555
H35_4 C30_4 1_555 1_555
H36_4 C30_4 1_555 1_555
C36_4 H43_4 1_555 1_555
H44_4 C36_4 1_555 1_555
H45_4 C36_4 1_555 1_555
C37_4 N15_4 1_555 1_555
C38_4 C37_4 1_555 1_555
C39_4 N16_4 1_555 1_555
C40_4 C39_4 1_555 1_555
H46_4 C40_4 1_555 1_555
H47_4 C40_4 1_555 1_555
H48_4 C40_4 1_555 1_555
C41_4 H49_4 1_555 1_555
H50_4 C41_4 1_555 1_555
H51_4 C41_4 1_555 1_555
C42_4 N17_4 1_555 1_555
C43_4 C42_4 1_555 1_555
C44_4 N18_4 1_555 1_555
C46_4 H55_4 1_555 1_555
H56_4 C46_4 1_555 1_555
H57_4 C46_4 1_555 1_555
C47_4 N41_2 1_555 1_555
C48_4 C47_4 1_555 1_555
C49_4 C48_4 1_555 1_555
C50_4 C49_4 1_555 1_555
H58_4 C50_4 1_555 1_555
H59_4 C50_4 1_555 1_555
H60_4 C50_4 1_555 1_555
C56_4 H67_4 1_555 1_555
H68_4 C56_4 1_555 1_555
H69_4 C56_4 1_555 1_555
C57_4 N23_4 1_555 1_555
C58_4 C43_4 1_555 1_555
C59_4 C58_4 1_555 1_555
C60_4 C59_4 1_555 1_555
H70_4 C60_4 1_555 1_555
H71_4 C60_4 1_555 1_555
H72_4 C60_4 1_555 1_555
H81_4 C66_4 1_555 1_555
C67_4 N27_4 1_555 1_555
C68_4 C18_4 1_555 1_555
C69_4 N28_4 1_555 1_555
C70_4 C69_4 1_555 1_555
H82_4 C70_4 1_555 1_555
H83_4 C70_4 1_555 1_555
H84_4 C70_4 1_555 1_555
C71_4 H85_4 1_555 1_555
H86_4 C71_4 1_555 1_555
H87_4 C71_4 1_555 1_555
C72_4 N29_4 1_555 1_555
C73_4 C48_4 1_555 1_555
C74_4 N30_4 1_555 1_555
C75_4 C74_4 1_555 1_555
H88_4 C75_4 1_555 1_555
H89_4 C75_4 1_555 1_555
H90_4 C75_4 1_555 1_555
C81_4 H97_4 1_555 1_555
H98_4 C81_4 1_555 1_555
H99_4 C81_4 1_555 1_555
C82_4 N33_4 1_555 1_555
C83_4 C38_4 1_555 1_555
C84_4 N34_4 1_555 1_555
C85_4 C84_4 1_555 1_555
H100_4 C85_4 1_555 1_555
H101_4 C85_4 1_555 1_555
H102_4 C85_4 1_555 1_555
C86_4 H103_4 1_555 1_555
H104_4 C86_4 1_555 1_555
H105_4 C86_4 1_555 1_555
C87_4 N35_4 1_555 1_555
C88_4 C3_4 1_555 1_555
C89_4 N36_4 1_555 1_555
C90_4 C89_4 1_555 1_555
H106_4 C90_4 1_555 1_555
H107_4 C90_4 1_555 1_555
H108_4 C90_4 1_555 1_555
N17_4 N18_4 1_555 1_555
N29_4 N30_4 1_555 1_555
N35_4 N36_4 1_555 1_555
C1_4 C2_4 1_555 1_555
C6_4 C7_4 1_555 1_555
C8_4 C9_4 1_555 1_555
C16_4 C17_4 1_555 1_555
C26_4 C27_4 1_555 1_555
C27_4 C28_4 1_555 1_555
C28_4 C29_4 1_555 1_555
C36_4 C37_4 1_555 1_555
C38_4 C39_4 1_555 1_555
C41_4 C42_4 1_555 1_555
C43_4 C44_4 1_555 1_555
C46_4 C47_4 1_555 1_555
C56_4 C57_4 1_555 1_555
C57_4 C58_4 1_555 1_555
C66_4 C67_4 1_555 1_555
C67_4 C68_4 1_555 1_555
C68_4 C69_4 1_555 1_555
C71_4 C72_4 1_555 1_555
C72_4 C73_4 1_555 1_555
C73_4 C74_4 1_555 1_555
C81_4 C82_4 1_555 1_555
C82_4 C83_4 1_555 1_555
C83_4 C84_4 1_555 1_555
C86_4 C87_4 1_555 1_555
C87_4 C88_4 1_555 1_555
C88_4 C89_4 1_555 1_555
Ag1_3 N1_5 1_555 1_555
Ag2_5 N2_5 1_555 1_555
Ag3_3 N5_5 1_555 1_555
Ag4_5 N7_5 1_555 1_555
Ag9_5 N16_5 1_555 1_555
Ag10_3 N24_5 1_555 1_555
Ag11_3 N20_5 1_555 1_555
Ag12_3 N23_5 1_555 1_555
Ag15_5 N28_5 1_555 1_555
Ag16_5 N31_5 1_555 1_555
Ag17_5 N32_5 1_555 1_555
Ag18_5 N34_5 1_555 1_555
N1_5 N2_5 1_555 1_555
N2_5 C4_5 1_555 1_555
N3_5 Ag2_5 1_555 1_555
N4_3 N3_5 1_555 1_555
N5_5 N6_3 1_555 1_555
N6_3 C14_5 1_555 1_555
N7_5 N8_3 1_555 1_555
N8_3 C19_5 1_555 1_555
N11_3 N12_5 1_555 1_555
N12_5 Ag4_5 1_555 1_555
N16_5 N15_5 1_555 1_555
N17_5 Ag9_5 1_555 1_555
N19_3 N20_5 1_555 1_555
N20_5 C49_5 1_555 1_555
N23_5 N24_5 1_555 1_555
N24_5 C59_5 1_555 1_555
N28_5 N27_5 1_555 1_555
N29_5 Ag15_5 1_555 1_555
N30_5 Ag13_5 1_555 1_555
N31_5 N32_5 1_555 1_555
N32_5 C79_5 1_555 1_555
N33_5 Ag17_5 1_555 1_555
N34_5 N33_5 1_555 1_555
N35_5 Ag18_5 1_555 1_555
N36_5 Ag16_5 1_555 1_555
C1_5 H1_5 1_555 1_555
H2_5 C1_5 1_555 1_555
H3_5 C1_5 1_555 1_555
C2_5 N1_5 1_555 1_555
C3_5 C2_5 1_555 1_555
C4_5 C3_5 1_555 1_555
C5_5 C4_5 1_555 1_555
H4_5 C5_5 1_555 1_555
H5_5 C5_5 1_555 1_555
H6_5 C5_5 1_555 1_555
C6_5 H7_5 1_555 1_555
H8_5 C6_5 1_555 1_555
H9_5 C6_5 1_555 1_555
C7_5 N3_5 1_555 1_555
C8_5 C7_5 1_555 1_555
C9_5 N4_3 1_555 1_555
C10_5 C9_5 1_555 1_555
H10_5 C10_5 1_555 1_555
H11_5 C10_5 1_555 1_555
H12_5 C10_5 1_555 1_555
C11_5 H13_5 1_555 1_555
H14_5 C11_5 1_555 1_555
H15_5 C11_5 1_555 1_555
C12_5 N5_5 1_555 1_555
C13_5 C12_5 1_555 1_555
C14_5 C13_5 1_555 1_555
C15_5 C14_5 1_555 1_555
H16_5 C15_5 1_555 1_555
H17_5 C15_5 1_555 1_555
H18_5 C15_5 1_555 1_555
C16_5 H19_5 1_555 1_555
H20_5 C16_5 1_555 1_555
H21_5 C16_5 1_555 1_555
C17_5 N7_5 1_555 1_555
C18_5 C17_5 1_555 1_555
C19_5 C18_5 1_555 1_555
C20_5 C19_5 1_555 1_555
H22_5 C20_5 1_555 1_555
H23_5 C20_5 1_555 1_555
H24_5 C20_5 1_555 1_555
C26_5 H31_5 1_555 1_555
H32_5 C26_5 1_555 1_555
H33_5 C26_5 1_555 1_555
C27_5 N11_3 1_555 1_555
C28_5 C8_5 1_555 1_555
C29_5 N12_5 1_555 1_555
C30_5 C29_5 1_555 1_555
H34_5 C30_5 1_555 1_555
H35_5 C30_5 1_555 1_555
H36_5 C30_5 1_555 1_555
C36_5 H43_5 1_555 1_555
H44_5 C36_5 1_555 1_555
H45_5 C36_5 1_555 1_555
C37_5 N15_5 1_555 1_555
C38_5 C37_5 1_555 1_555
C39_5 N16_5 1_555 1_555
C40_5 C39_5 1_555 1_555
H46_5 C40_5 1_555 1_555
H47_5 C40_5 1_555 1_555
H48_5 C40_5 1_555 1_555
C41_5 H49_5 1_555 1_555
H50_5 C41_5 1_555 1_555
H51_5 C41_5 1_555 1_555
C42_5 N17_5 1_555 1_555
C43_5 C42_5 1_555 1_555
C44_5 N18_5 1_555 1_555
C46_5 H55_5 1_555 1_555
H56_5 C46_5 1_555 1_555
H57_5 C46_5 1_555 1_555
C47_5 N19_3 1_555 1_555
C48_5 C47_5 1_555 1_555
C49_5 C48_5 1_555 1_555
C50_5 C49_5 1_555 1_555
H58_5 C50_5 1_555 1_555
H59_5 C50_5 1_555 1_555
H60_5 C50_5 1_555 1_555
C56_5 H67_5 1_555 1_555
H68_5 C56_5 1_555 1_555
H69_5 C56_5 1_555 1_555
C57_5 N23_5 1_555 1_555
C58_5 C43_5 1_555 1_555
C59_5 C58_5 1_555 1_555
C60_5 C59_5 1_555 1_555
H70_5 C60_5 1_555 1_555
H71_5 C60_5 1_555 1_555
H72_5 C60_5 1_555 1_555
H81_5 C66_5 1_555 1_555
C67_5 N27_5 1_555 1_555
C68_5 C18_5 1_555 1_555
C69_5 N28_5 1_555 1_555
C70_5 C69_5 1_555 1_555
H82_5 C70_5 1_555 1_555
H83_5 C70_5 1_555 1_555
H84_5 C70_5 1_555 1_555
C71_5 H85_5 1_555 1_555
H86_5 C71_5 1_555 1_555
H87_5 C71_5 1_555 1_555
C72_5 N29_5 1_555 1_555
C73_5 C48_5 1_555 1_555
C74_5 N30_5 1_555 1_555
C75_5 C74_5 1_555 1_555
H88_5 C75_5 1_555 1_555
H89_5 C75_5 1_555 1_555
H90_5 C75_5 1_555 1_555
C76_5 H91_5 1_555 1_555
H92_5 C76_5 1_555 1_555
H93_5 C76_5 1_555 1_555
C77_5 N31_5 1_555 1_555
C78_5 C13_5 1_555 1_555
C79_5 C78_5 1_555 1_555
C80_5 C79_5 1_555 1_555
H94_5 C80_5 1_555 1_555
H95_5 C80_5 1_555 1_555
H96_5 C80_5 1_555 1_555
C81_5 H97_5 1_555 1_555
H98_5 C81_5 1_555 1_555
H99_5 C81_5 1_555 1_555
C82_5 N33_5 1_555 1_555
C83_5 C38_5 1_555 1_555
C84_5 N34_5 1_555 1_555
C85_5 C84_5 1_555 1_555
H100_5 C85_5 1_555 1_555
H101_5 C85_5 1_555 1_555
H102_5 C85_5 1_555 1_555
C86_5 H103_5 1_555 1_555
H104_5 C86_5 1_555 1_555
H105_5 C86_5 1_555 1_555
C87_5 N35_5 1_555 1_555
C88_5 C3_5 1_555 1_555
C89_5 N36_5 1_555 1_555
C90_5 C89_5 1_555 1_555
H106_5 C90_5 1_555 1_555
H107_5 C90_5 1_555 1_555
H108_5 C90_5 1_555 1_555
Ag19_3 N6_3 1_555 1_555
Ag20_3 N4_3 1_555 1_555
Ag21_3 N8_3 1_555 1_555
Ag22_3 N11_3 1_555 1_555
Ag23_3 N19_3 1_555 1_555
N37_3 Ag3_3 1_555 1_555
N38_3 Ag1_3 1_555 1_555
N41_3 Ag10_3 1_555 1_555
N42_3 Ag11_3 1_555 1_555
N17_5 N18_5 1_555 1_555
N29_5 N30_5 1_555 1_555
N35_5 N36_5 1_555 1_555
C1_5 C2_5 1_555 1_555
C6_5 C7_5 1_555 1_555
C8_5 C9_5 1_555 1_555
C11_5 C12_5 1_555 1_555
C16_5 C17_5 1_555 1_555
C26_5 C27_5 1_555 1_555
C27_5 C28_5 1_555 1_555
C28_5 C29_5 1_555 1_555
C36_5 C37_5 1_555 1_555
C38_5 C39_5 1_555 1_555
C41_5 C42_5 1_555 1_555
C43_5 C44_5 1_555 1_555
C46_5 C47_5 1_555 1_555
C56_5 C57_5 1_555 1_555
C57_5 C58_5 1_555 1_555
C66_5 C67_5 1_555 1_555
C67_5 C68_5 1_555 1_555
C68_5 C69_5 1_555 1_555
C71_5 C72_5 1_555 1_555
C72_5 C73_5 1_555 1_555
C73_5 C74_5 1_555 1_555
C76_5 C77_5 1_555 1_555
C77_5 C78_5 1_555 1_555
C81_5 C82_5 1_555 1_555
C82_5 C83_5 1_555 1_555
C83_5 C84_5 1_555 1_555
C86_5 C87_5 1_555 1_555
C87_5 C88_5 1_555 1_555
C88_5 C89_5 1_555 1_555
Ag5_3 N9_5 1_555 1_555
Ag6_3 N10_5 1_555 1_555
Ag7_5 N13_5 1_555 1_555
Ag8_5 N14_5 1_555 1_555
Ag14_5 N26_5 1_555 1_555
N9_5 N10_5 1_555 1_555
N10_5 C24_5 1_555 1_555
N13_5 N14_5 1_555 1_555
N14_5 C34_5 1_555 1_555
N21_3 N22_3 1_555 1_555
N22_3 C54_5 1_555 1_555
N25_5 N26_5 1_555 1_555
N26_5 C64_5 1_555 1_555
C21_5 H25_5 1_555 1_555
H26_5 C21_5 1_555 1_555
H27_5 C21_5 1_555 1_555
C22_5 N9_5 1_555 1_555
C23_5 C22_5 1_555 1_555
C24_5 C23_5 1_555 1_555
C25_5 C24_5 1_555 1_555
H28_5 C25_5 1_555 1_555
H29_5 C25_5 1_555 1_555
H30_5 C25_5 1_555 1_555
C31_5 H37_5 1_555 1_555
H38_5 C31_5 1_555 1_555
H39_5 C31_5 1_555 1_555
C32_5 N13_5 1_555 1_555
C33_5 C23_5 1_555 1_555
C34_5 C33_5 1_555 1_555
C35_5 C34_5 1_555 1_555
H40_5 C35_5 1_555 1_555
H41_5 C35_5 1_555 1_555
H42_5 C35_5 1_555 1_555
H52_5 C45_5 1_555 1_555
H54_5 C45_5 1_555 1_555
C51_5 H61_5 1_555 1_555
H62_5 C51_5 1_555 1_555
H63_5 C51_5 1_555 1_555
C52_5 N21_3 1_555 1_555
C53_5 C52_5 1_555 1_555
C54_5 C53_5 1_555 1_555
C55_5 C54_5 1_555 1_555
H64_5 C55_5 1_555 1_555
H65_5 C55_5 1_555 1_555
H66_5 C55_5 1_555 1_555
C61_5 H73_5 1_555 1_555
H74_5 C61_5 1_555 1_555
H75_5 C61_5 1_555 1_555
C62_5 N25_5 1_555 1_555
C63_5 C53_5 1_555 1_555
C64_5 C63_5 1_555 1_555
C65_5 C64_5 1_555 1_555
H76_5 C65_5 1_555 1_555
H77_5 C65_5 1_555 1_555
H78_5 C65_5 1_555 1_555
Ag24_3 N21_3 1_555 1_555
Ag25_3 N22_3 1_555 1_555
N39_3 Ag5_3 1_555 1_555
N40_3 Ag6_3 1_555 1_555
C21_5 C22_5 1_555 1_555
C31_5 C32_5 1_555 1_555
C32_5 C33_5 1_555 1_555
C51_5 C52_5 1_555 1_555
C61_5 C62_5 1_555 1_555
C62_5 C63_5 1_555 1_555
N38_4 Ag1_4 1_555 1_555
Ag2_6 N2_6 1_555 1_555
Ag3_4 N5_6 1_555 1_555
Ag5_4 N9_6 1_555 1_555
Ag6_4 N10_6 1_555 1_555
Ag7_6 N13_6 1_555 1_555
Ag8_6 N14_6 1_555 1_555
Ag9_6 N16_6 1_555 1_555
Ag10_4 N24_6 1_555 1_555
Ag12_4 N23_6 1_555 1_555
Ag16_6 N31_6 1_555 1_555
Ag17_6 N32_6 1_555 1_555
Ag18_6 N34_6 1_555 1_555
N1_6 N2_6 1_555 1_555
N2_6 C4_6 1_555 1_555
N3_6 Ag2_6 1_555 1_555
N4_4 N3_6 1_555 1_555
N5_6 N6_4 1_555 1_555
N6_4 C14_6 1_555 1_555
N9_6 N10_6 1_555 1_555
N10_6 C24_6 1_555 1_555
N13_6 N14_6 1_555 1_555
N14_6 C34_6 1_555 1_555
N15_6 Ag8_6 1_555 1_555
N16_6 N15_6 1_555 1_555
N17_6 Ag9_6 1_555 1_555
N18_6 Ag7_6 1_555 1_555
N23_6 N24_6 1_555 1_555
N24_6 C59_6 1_555 1_555
N31_6 N32_6 1_555 1_555
N32_6 C79_6 1_555 1_555
N33_6 Ag17_6 1_555 1_555
N34_6 N33_6 1_555 1_555
N35_6 Ag18_6 1_555 1_555
N36_6 Ag16_6 1_555 1_555
H3_6 C1_6 1_555 1_555
C2_6 N1_6 1_555 1_555
C3_6 C2_6 1_555 1_555
C4_6 C3_6 1_555 1_555
C5_6 C4_6 1_555 1_555
H4_6 C5_6 1_555 1_555
H5_6 C5_6 1_555 1_555
H6_6 C5_6 1_555 1_555
C6_6 H7_6 1_555 1_555
H9_6 C6_6 1_555 1_555
C7_6 N3_6 1_555 1_555
C8_6 C7_6 1_555 1_555
C9_6 N4_4 1_555 1_555
C10_6 C9_6 1_555 1_555
H10_6 C10_6 1_555 1_555
H11_6 C10_6 1_555 1_555
C11_6 H13_6 1_555 1_555
H14_6 C11_6 1_555 1_555
H15_6 C11_6 1_555 1_555
C12_6 N5_6 1_555 1_555
C13_6 C12_6 1_555 1_555
C14_6 C13_6 1_555 1_555
C15_6 C14_6 1_555 1_555
H16_6 C15_6 1_555 1_555
H17_6 C15_6 1_555 1_555
H18_6 C15_6 1_555 1_555
C21_6 H25_6 1_555 1_555
H26_6 C21_6 1_555 1_555
H27_6 C21_6 1_555 1_555
C22_6 N9_6 1_555 1_555
C23_6 C22_6 1_555 1_555
C24_6 C23_6 1_555 1_555
C25_6 C24_6 1_555 1_555
H28_6 C25_6 1_555 1_555
H29_6 C25_6 1_555 1_555
H30_6 C25_6 1_555 1_555
C26_6 H31_6 1_555 1_555
H32_6 C26_6 1_555 1_555
H33_6 C26_6 1_555 1_555
C31_6 H37_6 1_555 1_555
H38_6 C31_6 1_555 1_555
H39_6 C31_6 1_555 1_555
C32_6 N13_6 1_555 1_555
C33_6 C23_6 1_555 1_555
C34_6 C33_6 1_555 1_555
C35_6 C34_6 1_555 1_555
H40_6 C35_6 1_555 1_555
H41_6 C35_6 1_555 1_555
H42_6 C35_6 1_555 1_555
C36_6 H43_6 1_555 1_555
H44_6 C36_6 1_555 1_555
H45_6 C36_6 1_555 1_555
C37_6 N15_6 1_555 1_555
C38_6 C37_6 1_555 1_555
C39_6 N16_6 1_555 1_555
C40_6 C39_6 1_555 1_555
H46_6 C40_6 1_555 1_555
H47_6 C40_6 1_555 1_555
H48_6 C40_6 1_555 1_555
C41_6 H49_6 1_555 1_555
H50_6 C41_6 1_555 1_555
H51_6 C41_6 1_555 1_555
C42_6 N17_6 1_555 1_555
C43_6 C42_6 1_555 1_555
C44_6 N18_6 1_555 1_555
C45_6 C44_6 1_555 1_555
H52_6 C45_6 1_555 1_555
H53_6 C45_6 1_555 1_555
H54_6 C45_6 1_555 1_555
C56_6 H67_6 1_555 1_555
H68_6 C56_6 1_555 1_555
H69_6 C56_6 1_555 1_555
C57_6 N23_6 1_555 1_555
C58_6 C43_6 1_555 1_555
C59_6 C58_6 1_555 1_555
C60_6 C59_6 1_555 1_555
H70_6 C60_6 1_555 1_555
H71_6 C60_6 1_555 1_555
H72_6 C60_6 1_555 1_555
C76_6 H91_6 1_555 1_555
H92_6 C76_6 1_555 1_555
H93_6 C76_6 1_555 1_555
C77_6 N31_6 1_555 1_555
C78_6 C13_6 1_555 1_555
C79_6 C78_6 1_555 1_555
C80_6 C79_6 1_555 1_555
H94_6 C80_6 1_555 1_555
H95_6 C80_6 1_555 1_555
H96_6 C80_6 1_555 1_555
C81_6 H97_6 1_555 1_555
H98_6 C81_6 1_555 1_555
H99_6 C81_6 1_555 1_555
C82_6 N33_6 1_555 1_555
C83_6 C38_6 1_555 1_555
C84_6 N34_6 1_555 1_555
C85_6 C84_6 1_555 1_555
H100_6 C85_6 1_555 1_555
H101_6 C85_6 1_555 1_555
H102_6 C85_6 1_555 1_555
C86_6 H103_6 1_555 1_555
H104_6 C86_6 1_555 1_555
H105_6 C86_6 1_555 1_555
C87_6 N35_6 1_555 1_555
C88_6 C3_6 1_555 1_555
C89_6 N36_6 1_555 1_555
C90_6 C89_6 1_555 1_555
H106_6 C90_6 1_555 1_555
H107_6 C90_6 1_555 1_555
H108_6 C90_6 1_555 1_555
Ag19_4 N6_4 1_555 1_555
N39_4 Ag5_4 1_555 1_555
N40_4 Ag6_4 1_555 1_555
N41_4 Ag10_4 1_555 1_555
N17_6 N18_6 1_555 1_555
N35_6 N36_6 1_555 1_555
C1_6 C2_6 1_555 1_555
C6_6 C7_6 1_555 1_555
C8_6 C9_6 1_555 1_555
C11_6 C12_6 1_555 1_555
C21_6 C22_6 1_555 1_555
C26_6 C27_6 1_555 1_555
C31_6 C32_6 1_555 1_555
C32_6 C33_6 1_555 1_555
C36_6 C37_6 1_555 1_555
C38_6 C39_6 1_555 1_555
C41_6 C42_6 1_555 1_555
C43_6 C44_6 1_555 1_555
C56_6 C57_6 1_555 1_555
C57_6 C58_6 1_555 1_555
C76_6 C77_6 1_555 1_555
C77_6 C78_6 1_555 1_555
C81_6 C82_6 1_555 1_555
C82_6 C83_6 1_555 1_555
C83_6 C84_6 1_555 1_555
C86_6 C87_6 1_555 1_555
C87_6 C88_6 1_555 1_555
C88_6 C89_6 1_555 1_555
Ag4_6 N7_6 1_555 1_555
Ag24_3 N20_6 1_555 1_555
Ag13_6 N25_6 1_555 1_555
Ag14_6 N26_6 1_555 1_555
Ag15_6 N28_6 1_555 1_555
N7_6 N8_4 1_555 1_555
N8_4 C19_6 1_555 1_555
N11_4 N12_6 1_555 1_555
N12_6 Ag4_6 1_555 1_555
N19_4 N20_6 1_555 1_555
N20_6 C49_6 1_555 1_555
N42_3 N22_4 1_555 1_555
N22_4 C54_6 1_555 1_555
N25_6 N26_6 1_555 1_555
N26_6 C64_6 1_555 1_555
N27_6 Ag14_6 1_555 1_555
N28_6 N27_6 1_555 1_555
N29_6 Ag15_6 1_555 1_555
N30_6 Ag13_6 1_555 1_555
C16_6 H19_6 1_555 1_555
H20_6 C16_6 1_555 1_555
H21_6 C16_6 1_555 1_555
C17_6 N7_6 1_555 1_555
C18_6 C17_6 1_555 1_555
C19_6 C18_6 1_555 1_555
C20_6 C19_6 1_555 1_555
H22_6 C20_6 1_555 1_555
H23_6 C20_6 1_555 1_555
H24_6 C20_6 1_555 1_555
C29_6 N12_6 1_555 1_555
C30_6 C29_6 1_555 1_555
H34_6 C30_6 1_555 1_555
H35_6 C30_6 1_555 1_555
H36_6 C30_6 1_555 1_555
C46_6 H55_6 1_555 1_555
H56_6 C46_6 1_555 1_555
H57_6 C46_6 1_555 1_555
C47_6 N19_4 1_555 1_555
C48_6 C47_6 1_555 1_555
C49_6 C48_6 1_555 1_555
C50_6 C49_6 1_555 1_555
H58_6 C50_6 1_555 1_555
H59_6 C50_6 1_555 1_555
H60_6 C50_6 1_555 1_555
C51_6 H61_6 1_555 1_555
H62_6 C51_6 1_555 1_555
H63_6 C51_6 1_555 1_555
C52_6 N42_3 1_555 1_555
C53_6 C52_6 1_555 1_555
C54_6 C53_6 1_555 1_555
C55_6 C54_6 1_555 1_555
H64_6 C55_6 1_555 1_555
H65_6 C55_6 1_555 1_555
H66_6 C55_6 1_555 1_555
C61_6 H73_6 1_555 1_555
H74_6 C61_6 1_555 1_555
H75_6 C61_6 1_555 1_555
C62_6 N25_6 1_555 1_555
C63_6 C53_6 1_555 1_555
C64_6 C63_6 1_555 1_555
C65_6 C64_6 1_555 1_555
H76_6 C65_6 1_555 1_555
H77_6 C65_6 1_555 1_555
H78_6 C65_6 1_555 1_555
C66_6 H79_6 1_555 1_555
H80_6 C66_6 1_555 1_555
H81_6 C66_6 1_555 1_555
C67_6 N27_6 1_555 1_555
C68_6 C18_6 1_555 1_555
C69_6 N28_6 1_555 1_555
C70_6 C69_6 1_555 1_555
H82_6 C70_6 1_555 1_555
H83_6 C70_6 1_555 1_555
H84_6 C70_6 1_555 1_555
C71_6 H85_6 1_555 1_555
H86_6 C71_6 1_555 1_555
H87_6 C71_6 1_555 1_555
C72_6 N29_6 1_555 1_555
C73_6 C48_6 1_555 1_555
C74_6 N30_6 1_555 1_555
C75_6 C74_6 1_555 1_555
H88_6 C75_6 1_555 1_555
H89_6 C75_6 1_555 1_555
H90_6 C75_6 1_555 1_555
Ag21_4 N8_4 1_555 1_555
Ag22_4 N11_4 1_555 1_555
Ag23_4 N19_4 1_555 1_555
Ag25_4 N22_4 1_555 1_555
N29_6 N30_6 1_555 1_555
C16_6 C17_6 1_555 1_555
C28_6 C29_6 1_555 1_555
C46_6 C47_6 1_555 1_555
C51_6 C52_6 1_555 1_555
C61_6 C62_6 1_555 1_555
C62_6 C63_6 1_555 1_555
C66_6 C67_6 1_555 1_555
C67_6 C68_6 1_555 1_555
C68_6 C69_6 1_555 1_555
C71_6 C72_6 1_555 1_555
C72_6 C73_6 1_555 1_555
C73_6 C74_6 1_555 1_555
Ag20_4 N5_7 1_555 1_555
N5_7 N38_4 1_555 1_555
N38_4 C14_7 1_555 1_555
N31_7 N32_7 1_555 1_555
N32_7 C79_7 1_555 1_555
C11_7 H13_7 1_555 1_555
H14_7 C11_7 1_555 1_555
H15_7 C11_7 1_555 1_555
C12_7 N5_7 1_555 1_555
C13_7 C12_7 1_555 1_555
C14_7 C13_7 1_555 1_555
C15_7 C14_7 1_555 1_555
H16_7 C15_7 1_555 1_555
H17_7 C15_7 1_555 1_555
H18_7 C15_7 1_555 1_555
C76_7 H91_7 1_555 1_555
H92_7 C76_7 1_555 1_555
H93_7 C76_7 1_555 1_555
C77_7 N31_7 1_555 1_555
C78_7 C13_7 1_555 1_555
C79_7 C78_7 1_555 1_555
C80_7 C79_7 1_555 1_555
H94_7 C80_7 1_555 1_555
H95_7 C80_7 1_555 1_555
H96_7 C80_7 1_555 1_555
C11_7 C12_7 1_555 1_555
C76_7 C77_7 1_555 1_555
C77_7 C78_7 1_555 1_555
Ag2_7 N2_7 1_555 1_555
Ag4_7 N7_7 1_555 1_555
Ag7_7 N13_7 1_555 1_555
Ag8_7 N14_7 1_555 1_555
Ag9_7 N16_7 1_555 1_555
Ag11_4 N20_7 1_555 1_555
Ag13_7 N25_7 1_555 1_555
Ag14_7 N26_7 1_555 1_555
Ag15_7 N28_7 1_555 1_555
Ag18_7 N34_7 1_555 1_555
N1_7 N2_7 1_555 1_555
N2_7 C4_7 1_555 1_555
N3_7 Ag2_7 1_555 1_555
N37_4 N3_7 1_555 1_555
N7_7 N39_4 1_555 1_555
N39_4 C19_7 1_555 1_555
N40_4 N12_7 1_555 1_555
N12_7 Ag4_7 1_555 1_555
N13_7 N14_7 1_555 1_555
N14_7 C34_7 1_555 1_555
N15_7 Ag8_7 1_555 1_555
N16_7 N15_7 1_555 1_555
N17_7 Ag9_7 1_555 1_555
N18_7 Ag7_7 1_555 1_555
N41_3 N20_7 1_555 1_555
N20_7 C49_7 1_555 1_555
N21_4 N43_4 1_555 1_555
N43_4 C54_7 1_555 1_555
N25_7 N26_7 1_555 1_555
N26_7 C64_7 1_555 1_555
N27_7 Ag14_7 1_555 1_555
N28_7 N27_7 1_555 1_555
N29_7 Ag15_7 1_555 1_555
N30_7 Ag13_7 1_555 1_555
N33_7 Ag17_7 1_555 1_555
N34_7 N33_7 1_555 1_555
N35_7 Ag18_7 1_555 1_555
N36_7 Ag16_7 1_555 1_555
H3_7 C1_7 1_555 1_555
C2_7 N1_7 1_555 1_555
C3_7 C2_7 1_555 1_555
C4_7 C3_7 1_555 1_555
C5_7 C4_7 1_555 1_555
H4_7 C5_7 1_555 1_555
H5_7 C5_7 1_555 1_555
H6_7 C5_7 1_555 1_555
C6_7 H7_7 1_555 1_555
H8_7 C6_7 1_555 1_555
H9_7 C6_7 1_555 1_555
C7_7 N3_7 1_555 1_555
C8_7 C7_7 1_555 1_555
C9_7 N37_4 1_555 1_555
C10_7 C9_7 1_555 1_555
H10_7 C10_7 1_555 1_555
H11_7 C10_7 1_555 1_555
H12_7 C10_7 1_555 1_555
C16_7 H19_7 1_555 1_555
H20_7 C16_7 1_555 1_555
H21_7 C16_7 1_555 1_555
C17_7 N7_7 1_555 1_555
C18_7 C17_7 1_555 1_555
C19_7 C18_7 1_555 1_555
C20_7 C19_7 1_555 1_555
H22_7 C20_7 1_555 1_555
H23_7 C20_7 1_555 1_555
H24_7 C20_7 1_555 1_555
C24_7 C23_7 1_555 1_555
C25_7 C24_7 1_555 1_555
H28_7 C25_7 1_555 1_555
H29_7 C25_7 1_555 1_555
H30_7 C25_7 1_555 1_555
C26_7 H31_7 1_555 1_555
H32_7 C26_7 1_555 1_555
H33_7 C26_7 1_555 1_555
C27_7 N40_4 1_555 1_555
C28_7 C8_7 1_555 1_555
C29_7 N12_7 1_555 1_555
C30_7 C29_7 1_555 1_555
H34_7 C30_7 1_555 1_555
H35_7 C30_7 1_555 1_555
H36_7 C30_7 1_555 1_555
C32_7 N13_7 1_555 1_555
C33_7 C23_7 1_555 1_555
C34_7 C33_7 1_555 1_555
C35_7 C34_7 1_555 1_555
H40_7 C35_7 1_555 1_555
H41_7 C35_7 1_555 1_555
H42_7 C35_7 1_555 1_555
C36_7 H43_7 1_555 1_555
H44_7 C36_7 1_555 1_555
H45_7 C36_7 1_555 1_555
C37_7 N15_7 1_555 1_555
C38_7 C37_7 1_555 1_555
C39_7 N16_7 1_555 1_555
C40_7 C39_7 1_555 1_555
H46_7 C40_7 1_555 1_555
H47_7 C40_7 1_555 1_555
H48_7 C40_7 1_555 1_555
C41_7 H49_7 1_555 1_555
H50_7 C41_7 1_555 1_555
H51_7 C41_7 1_555 1_555
C42_7 N17_7 1_555 1_555
C43_7 C42_7 1_555 1_555
C44_7 N18_7 1_555 1_555
C46_7 H55_7 1_555 1_555
H56_7 C46_7 1_555 1_555
H57_7 C46_7 1_555 1_555
C47_7 N41_3 1_555 1_555
C48_7 C47_7 1_555 1_555
C49_7 C48_7 1_555 1_555
C50_7 C49_7 1_555 1_555
H58_7 C50_7 1_555 1_555
H59_7 C50_7 1_555 1_555
H60_7 C50_7 1_555 1_555
C51_7 H61_7 1_555 1_555
H62_7 C51_7 1_555 1_555
H63_7 C51_7 1_555 1_555
C52_7 N21_4 1_555 1_555
C53_7 C52_7 1_555 1_555
C54_7 C53_7 1_555 1_555
C55_7 C54_7 1_555 1_555
H64_7 C55_7 1_555 1_555
H65_7 C55_7 1_555 1_555
H66_7 C55_7 1_555 1_555
C61_7 H73_7 1_555 1_555
H74_7 C61_7 1_555 1_555
H75_7 C61_7 1_555 1_555
C62_7 N25_7 1_555 1_555
C63_7 C53_7 1_555 1_555
C64_7 C63_7 1_555 1_555
C65_7 C64_7 1_555 1_555
H76_7 C65_7 1_555 1_555
H77_7 C65_7 1_555 1_555
H78_7 C65_7 1_555 1_555
C66_7 H79_7 1_555 1_555
H80_7 C66_7 1_555 1_555
H81_7 C66_7 1_555 1_555
C67_7 N27_7 1_555 1_555
C68_7 C18_7 1_555 1_555
C69_7 N28_7 1_555 1_555
C70_7 C69_7 1_555 1_555
H82_7 C70_7 1_555 1_555
H83_7 C70_7 1_555 1_555
H84_7 C70_7 1_555 1_555
C71_7 H85_7 1_555 1_555
H86_7 C71_7 1_555 1_555
H87_7 C71_7 1_555 1_555
C72_7 N29_7 1_555 1_555
C73_7 C48_7 1_555 1_555
C74_7 N30_7 1_555 1_555
C75_7 C74_7 1_555 1_555
H88_7 C75_7 1_555 1_555
H89_7 C75_7 1_555 1_555
H90_7 C75_7 1_555 1_555
C81_7 H97_7 1_555 1_555
H98_7 C81_7 1_555 1_555
H99_7 C81_7 1_555 1_555
C82_7 N33_7 1_555 1_555
C83_7 C38_7 1_555 1_555
C84_7 N34_7 1_555 1_555
C85_7 C84_7 1_555 1_555
H100_7 C85_7 1_555 1_555
H101_7 C85_7 1_555 1_555
H102_7 C85_7 1_555 1_555
C86_7 H103_7 1_555 1_555
H104_7 C86_7 1_555 1_555
H105_7 C86_7 1_555 1_555
C87_7 N35_7 1_555 1_555
C88_7 C3_7 1_555 1_555
C89_7 N36_7 1_555 1_555
C90_7 C89_7 1_555 1_555
H106_7 C90_7 1_555 1_555
H107_7 C90_7 1_555 1_555
H108_7 C90_7 1_555 1_555
N17_7 N18_7 1_555 1_555
N29_7 N30_7 1_555 1_555
N35_7 N36_7 1_555 1_555
C1_7 C2_7 1_555 1_555
C6_7 C7_7 1_555 1_555
C8_7 C9_7 1_555 1_555
C16_7 C17_7 1_555 1_555
C26_7 C27_7 1_555 1_555
C27_7 C28_7 1_555 1_555
C28_7 C29_7 1_555 1_555
C32_7 C33_7 1_555 1_555
C36_7 C37_7 1_555 1_555
C38_7 C39_7 1_555 1_555
C41_7 C42_7 1_555 1_555
C43_7 C44_7 1_555 1_555
C46_7 C47_7 1_555 1_555
C51_7 C52_7 1_555 1_555
C61_7 C62_7 1_555 1_555
C62_7 C63_7 1_555 1_555
C66_7 C67_7 1_555 1_555
C67_7 C68_7 1_555 1_555
C68_7 C69_7 1_555 1_555
C71_7 C72_7 1_555 1_555
C72_7 C73_7 1_555 1_555
C73_7 C74_7 1_555 1_555
C81_7 C82_7 1_555 1_555
C82_7 C83_7 1_555 1_555
C83_7 C84_7 1_555 1_555
C86_7 C87_7 1_555 1_555
C87_7 C88_7 1_555 1_555
C88_7 C89_7 1_555 1_555
Ag23_3 N24_7 1_555 1_555
Ag25_4 N23_7 1_555 1_555
N9_7 N10_7 1_555 1_555
N23_7 N24_7 1_555 1_555
N24_7 C59_7 1_555 1_555
C21_7 H25_7 1_555 1_555
H26_7 C21_7 1_555 1_555
H27_7 C21_7 1_555 1_555
C22_7 N9_7 1_555 1_555
C31_7 H37_7 1_555 1_555
H39_7 C31_7 1_555 1_555
H52_7 C45_7 1_555 1_555
H53_7 C45_7 1_555 1_555
H54_7 C45_7 1_555 1_555
C56_7 H67_7 1_555 1_555
H68_7 C56_7 1_555 1_555
H69_7 C56_7 1_555 1_555
C57_7 N23_7 1_555 1_555
C59_7 C58_7 1_555 1_555
C60_7 C59_7 1_555 1_555
H70_7 C60_7 1_555 1_555
H72_7 C60_7 1_555 1_555
C21_7 C22_7 1_555 1_555
C56_7 C57_7 1_555 1_555
C57_7 C58_7 1_555 1_555
Ag7_8 N13_8 1_555 1_555
Ag8_8 N14_8 1_555 1_555
Ag14_8 N26_8 1_555 1_555
N9_8 N10_8 1_555 1_555
N10_8 C24_8 1_555 1_555
N13_8 N14_8 1_555 1_555
N14_8 C34_8 1_555 1_555
N42_4 N43_3 1_555 1_555
N43_3 C54_8 1_555 1_555
N25_8 N26_8 1_555 1_555
N26_8 C64_8 1_555 1_555
C21_8 H25_8 1_555 1_555
H26_8 C21_8 1_555 1_555
H27_8 C21_8 1_555 1_555
C22_8 N9_8 1_555 1_555
C23_8 C22_8 1_555 1_555
C24_8 C23_8 1_555 1_555
C25_8 C24_8 1_555 1_555
H28_8 C25_8 1_555 1_555
H29_8 C25_8 1_555 1_555
H30_8 C25_8 1_555 1_555
C31_8 H37_8 1_555 1_555
H38_8 C31_8 1_555 1_555
H39_8 C31_8 1_555 1_555
C32_8 N13_8 1_555 1_555
C33_8 C23_8 1_555 1_555
C34_8 C33_8 1_555 1_555
C35_8 C34_8 1_555 1_555
H40_8 C35_8 1_555 1_555
H41_8 C35_8 1_555 1_555
H42_8 C35_8 1_555 1_555
H52_8 C45_8 1_555 1_555
H54_8 C45_8 1_555 1_555
C51_8 H61_8 1_555 1_555
H62_8 C51_8 1_555 1_555
H63_8 C51_8 1_555 1_555
C52_8 N42_4 1_555 1_555
C53_8 C52_8 1_555 1_555
C54_8 C53_8 1_555 1_555
C55_8 C54_8 1_555 1_555
H64_8 C55_8 1_555 1_555
H65_8 C55_8 1_555 1_555
H66_8 C55_8 1_555 1_555
C61_8 H73_8 1_555 1_555
H74_8 C61_8 1_555 1_555
H75_8 C61_8 1_555 1_555
C62_8 N25_8 1_555 1_555
C63_8 C53_8 1_555 1_555
C64_8 C63_8 1_555 1_555
C65_8 C64_8 1_555 1_555
H76_8 C65_8 1_555 1_555
H77_8 C65_8 1_555 1_555
H78_8 C65_8 1_555 1_555
C21_8 C22_8 1_555 1_555
C31_8 C32_8 1_555 1_555
C32_8 C33_8 1_555 1_555
C51_8 C52_8 1_555 1_555
C61_8 C62_8 1_555 1_555
C62_8 C63_8 1_555 1_555
Ag19_3 N1_8 1_555 1_555
Ag2_8 N2_8 1_555 1_555
Ag4_8 N7_8 1_555 1_555
Ag9_8 N16_8 1_555 1_555
Ag23_4 N24_8 1_555 1_555
Ag24_4 N20_8 1_555 1_555
Ag25_3 N23_8 1_555 1_555
Ag15_8 N28_8 1_555 1_555
Ag18_8 N34_8 1_555 1_555
N1_8 N2_8 1_555 1_555
N2_8 C4_8 1_555 1_555
N3_8 Ag2_8 1_555 1_555
N37_3 N3_8 1_555 1_555
N7_8 N39_3 1_555 1_555
N39_3 C19_8 1_555 1_555
N40_3 N12_8 1_555 1_555
N12_8 Ag4_8 1_555 1_555
N16_8 N15_8 1_555 1_555
N17_8 Ag9_8 1_555 1_555
N41_4 N20_8 1_555 1_555
N20_8 C49_8 1_555 1_555
N23_8 N24_8 1_555 1_555
N24_8 C59_8 1_555 1_555
N28_8 N27_8 1_555 1_555
N29_8 Ag15_8 1_555 1_555
N30_8 Ag13_8 1_555 1_555
N33_8 Ag17_8 1_555 1_555
N34_8 N33_8 1_555 1_555
N35_8 Ag18_8 1_555 1_555
N36_8 Ag16_8 1_555 1_555
C1_8 H1_8 1_555 1_555
H2_8 C1_8 1_555 1_555
H3_8 C1_8 1_555 1_555
C2_8 N1_8 1_555 1_555
C3_8 C2_8 1_555 1_555
C4_8 C3_8 1_555 1_555
C5_8 C4_8 1_555 1_555
H4_8 C5_8 1_555 1_555
H5_8 C5_8 1_555 1_555
H6_8 C5_8 1_555 1_555
C6_8 H7_8 1_555 1_555
H8_8 C6_8 1_555 1_555
H9_8 C6_8 1_555 1_555
C7_8 N3_8 1_555 1_555
C8_8 C7_8 1_555 1_555
C9_8 N37_3 1_555 1_555
C10_8 C9_8 1_555 1_555
H10_8 C10_8 1_555 1_555
H11_8 C10_8 1_555 1_555
H12_8 C10_8 1_555 1_555
C16_8 H19_8 1_555 1_555
H20_8 C16_8 1_555 1_555
H21_8 C16_8 1_555 1_555
C17_8 N7_8 1_555 1_555
C18_8 C17_8 1_555 1_555
C19_8 C18_8 1_555 1_555
C20_8 C19_8 1_555 1_555
H22_8 C20_8 1_555 1_555
H23_8 C20_8 1_555 1_555
H24_8 C20_8 1_555 1_555
C26_8 H31_8 1_555 1_555
H32_8 C26_8 1_555 1_555
H33_8 C26_8 1_555 1_555
C27_8 N40_3 1_555 1_555
C28_8 C8_8 1_555 1_555
C29_8 N12_8 1_555 1_555
C30_8 C29_8 1_555 1_555
H34_8 C30_8 1_555 1_555
H35_8 C30_8 1_555 1_555
H36_8 C30_8 1_555 1_555
C36_8 H43_8 1_555 1_555
H44_8 C36_8 1_555 1_555
H45_8 C36_8 1_555 1_555
C37_8 N15_8 1_555 1_555
C38_8 C37_8 1_555 1_555
C39_8 N16_8 1_555 1_555
C40_8 C39_8 1_555 1_555
H46_8 C40_8 1_555 1_555
H47_8 C40_8 1_555 1_555
H48_8 C40_8 1_555 1_555
C41_8 H49_8 1_555 1_555
H50_8 C41_8 1_555 1_555
H51_8 C41_8 1_555 1_555
C42_8 N17_8 1_555 1_555
C43_8 C42_8 1_555 1_555
C44_8 N18_8 1_555 1_555
C46_8 H55_8 1_555 1_555
H56_8 C46_8 1_555 1_555
H57_8 C46_8 1_555 1_555
C47_8 N41_4 1_555 1_555
C48_8 C47_8 1_555 1_555
C49_8 C48_8 1_555 1_555
C50_8 C49_8 1_555 1_555
H58_8 C50_8 1_555 1_555
H59_8 C50_8 1_555 1_555
H60_8 C50_8 1_555 1_555
C56_8 H67_8 1_555 1_555
H68_8 C56_8 1_555 1_555
H69_8 C56_8 1_555 1_555
C57_8 N23_8 1_555 1_555
C58_8 C43_8 1_555 1_555
C59_8 C58_8 1_555 1_555
C60_8 C59_8 1_555 1_555
H70_8 C60_8 1_555 1_555
H71_8 C60_8 1_555 1_555
H72_8 C60_8 1_555 1_555
H81_8 C66_8 1_555 1_555
C67_8 N27_8 1_555 1_555
C68_8 C18_8 1_555 1_555
C69_8 N28_8 1_555 1_555
C70_8 C69_8 1_555 1_555
H82_8 C70_8 1_555 1_555
H83_8 C70_8 1_555 1_555
H84_8 C70_8 1_555 1_555
C71_8 H85_8 1_555 1_555
H86_8 C71_8 1_555 1_555
H87_8 C71_8 1_555 1_555
C72_8 N29_8 1_555 1_555
C73_8 C48_8 1_555 1_555
C74_8 N30_8 1_555 1_555
C75_8 C74_8 1_555 1_555
H88_8 C75_8 1_555 1_555
H89_8 C75_8 1_555 1_555
H90_8 C75_8 1_555 1_555
C81_8 H97_8 1_555 1_555
H98_8 C81_8 1_555 1_555
H99_8 C81_8 1_555 1_555
C82_8 N33_8 1_555 1_555
C83_8 C38_8 1_555 1_555
C84_8 N34_8 1_555 1_555
C85_8 C84_8 1_555 1_555
H100_8 C85_8 1_555 1_555
H101_8 C85_8 1_555 1_555
H102_8 C85_8 1_555 1_555
C86_8 H103_8 1_555 1_555
H104_8 C86_8 1_555 1_555
H105_8 C86_8 1_555 1_555
C87_8 N35_8 1_555 1_555
C88_8 C3_8 1_555 1_555
C89_8 N36_8 1_555 1_555
C90_8 C89_8 1_555 1_555
H106_8 C90_8 1_555 1_555
H107_8 C90_8 1_555 1_555
H108_8 C90_8 1_555 1_555
N17_8 N18_8 1_555 1_555
N29_8 N30_8 1_555 1_555
N35_8 N36_8 1_555 1_555
C1_8 C2_8 1_555 1_555
C6_8 C7_8 1_555 1_555
C8_8 C9_8 1_555 1_555
C16_8 C17_8 1_555 1_555
C26_8 C27_8 1_555 1_555
C27_8 C28_8 1_555 1_555
C28_8 C29_8 1_555 1_555
C36_8 C37_8 1_555 1_555
C38_8 C39_8 1_555 1_555
C41_8 C42_8 1_555 1_555
C43_8 C44_8 1_555 1_555
C46_8 C47_8 1_555 1_555
C56_8 C57_8 1_555 1_555
C57_8 C58_8 1_555 1_555
C66_8 C67_8 1_555 1_555
C67_8 C68_8 1_555 1_555
C68_8 C69_8 1_555 1_555
C71_8 C72_8 1_555 1_555
C72_8 C73_8 1_555 1_555
C73_8 C74_8 1_555 1_555
C81_8 C82_8 1_555 1_555
C82_8 C83_8 1_555 1_555
C83_8 C84_8 1_555 1_555
C86_8 C87_8 1_555 1_555
C87_8 C88_8 1_555 1_555
C88_8 C89_8 1_555 1_555
Ag20_3 N5_8 1_555 1_555
N5_8 N38_3 1_555 1_555
N38_3 C14_8 1_555 1_555
N31_8 N32_8 1_555 1_555
N32_8 C79_8 1_555 1_555
C11_8 H13_8 1_555 1_555
H14_8 C11_8 1_555 1_555
H15_8 C11_8 1_555 1_555
C12_8 N5_8 1_555 1_555
C13_8 C12_8 1_555 1_555
C14_8 C13_8 1_555 1_555
C15_8 C14_8 1_555 1_555
H16_8 C15_8 1_555 1_555
H17_8 C15_8 1_555 1_555
H18_8 C15_8 1_555 1_555
C76_8 H91_8 1_555 1_555
H92_8 C76_8 1_555 1_555
H93_8 C76_8 1_555 1_555
C77_8 N31_8 1_555 1_555
C78_8 C13_8 1_555 1_555
C79_8 C78_8 1_555 1_555
C80_8 C79_8 1_555 1_555
H94_8 C80_8 1_555 1_555
H95_8 C80_8 1_555 1_555
H96_8 C80_8 1_555 1_555
C11_8 C12_8 1_555 1_555
C76_8 C77_8 1_555 1_555
C77_8 C78_8 1_555 1_555
Ag5_5 N9_9 1_555 1_555
Ag6_5 N10_9 1_555 1_555
Ag7_9 N13_9 1_555 1_555
Ag8_9 N14_9 1_555 1_555
Ag14_9 N26_9 1_555 1_555
N9_9 N10_9 1_555 1_555
N10_9 C24_9 1_555 1_555
N13_9 N14_9 1_555 1_555
N14_9 C34_9 1_555 1_555
N21_5 N22_5 1_555 1_555
N22_5 C54_9 1_555 1_555
N25_9 N26_9 1_555 1_555
N26_9 C64_9 1_555 1_555
C21_9 H25_9 1_555 1_555
H26_9 C21_9 1_555 1_555
H27_9 C21_9 1_555 1_555
C22_9 N9_9 1_555 1_555
C23_9 C22_9 1_555 1_555
C24_9 C23_9 1_555 1_555
C25_9 C24_9 1_555 1_555
H28_9 C25_9 1_555 1_555
H29_9 C25_9 1_555 1_555
H30_9 C25_9 1_555 1_555
C31_9 H37_9 1_555 1_555
H38_9 C31_9 1_555 1_555
H39_9 C31_9 1_555 1_555
C32_9 N13_9 1_555 1_555
C33_9 C23_9 1_555 1_555
C34_9 C33_9 1_555 1_555
C35_9 C34_9 1_555 1_555
H40_9 C35_9 1_555 1_555
H41_9 C35_9 1_555 1_555
H42_9 C35_9 1_555 1_555
H52_9 C45_9 1_555 1_555
H54_9 C45_9 1_555 1_555
C51_9 H61_9 1_555 1_555
H62_9 C51_9 1_555 1_555
H63_9 C51_9 1_555 1_555
C52_9 N21_5 1_555 1_555
C53_9 C52_9 1_555 1_555
C54_9 C53_9 1_555 1_555
C55_9 C54_9 1_555 1_555
H64_9 C55_9 1_555 1_555
H65_9 C55_9 1_555 1_555
H66_9 C55_9 1_555 1_555
C61_9 H73_9 1_555 1_555
H74_9 C61_9 1_555 1_555
H75_9 C61_9 1_555 1_555
C62_9 N25_9 1_555 1_555
C63_9 C53_9 1_555 1_555
C64_9 C63_9 1_555 1_555
C65_9 C64_9 1_555 1_555
H76_9 C65_9 1_555 1_555
H77_9 C65_9 1_555 1_555
H78_9 C65_9 1_555 1_555
Ag24_5 N21_5 1_555 1_555
Ag25_5 N22_5 1_555 1_555
N39_5 Ag5_5 1_555 1_555
N40_5 Ag6_5 1_555 1_555
C21_9 C22_9 1_555 1_555
C31_9 C32_9 1_555 1_555
C32_9 C33_9 1_555 1_555
C51_9 C52_9 1_555 1_555
C61_9 C62_9 1_555 1_555
C62_9 C63_9 1_555 1_555
Ag1_5 N1_9 1_555 1_555
Ag2_9 N2_9 1_555 1_555
Ag3_5 N5_9 1_555 1_555
Ag4_9 N7_9 1_555 1_555
Ag9_9 N16_9 1_555 1_555
Ag10_5 N24_9 1_555 1_555
Ag11_5 N20_9 1_555 1_555
Ag12_5 N23_9 1_555 1_555
Ag15_9 N28_9 1_555 1_555
Ag16_9 N31_9 1_555 1_555
Ag17_9 N32_9 1_555 1_555
Ag18_9 N34_9 1_555 1_555
N1_9 N2_9 1_555 1_555
N2_9 C4_9 1_555 1_555
N3_9 Ag2_9 1_555 1_555
N4_5 N3_9 1_555 1_555
N5_9 N6_5 1_555 1_555
N6_5 C14_9 1_555 1_555
N7_9 N8_5 1_555 1_555
N8_5 C19_9 1_555 1_555
N11_5 N12_9 1_555 1_555
N12_9 Ag4_9 1_555 1_555
N16_9 N15_9 1_555 1_555
N17_9 Ag9_9 1_555 1_555
N19_5 N20_9 1_555 1_555
N20_9 C49_9 1_555 1_555
N23_9 N24_9 1_555 1_555
N24_9 C59_9 1_555 1_555
N28_9 N27_9 1_555 1_555
N29_9 Ag15_9 1_555 1_555
N30_9 Ag13_9 1_555 1_555
N31_9 N32_9 1_555 1_555
N32_9 C79_9 1_555 1_555
N33_9 Ag17_9 1_555 1_555
N34_9 N33_9 1_555 1_555
N35_9 Ag18_9 1_555 1_555
N36_9 Ag16_9 1_555 1_555
C1_9 H1_9 1_555 1_555
H2_9 C1_9 1_555 1_555
H3_9 C1_9 1_555 1_555
C2_9 N1_9 1_555 1_555
C3_9 C2_9 1_555 1_555
C4_9 C3_9 1_555 1_555
C5_9 C4_9 1_555 1_555
H4_9 C5_9 1_555 1_555
H5_9 C5_9 1_555 1_555
H6_9 C5_9 1_555 1_555
C6_9 H7_9 1_555 1_555
H8_9 C6_9 1_555 1_555
H9_9 C6_9 1_555 1_555
C7_9 N3_9 1_555 1_555
C8_9 C7_9 1_555 1_555
C9_9 N4_5 1_555 1_555
C10_9 C9_9 1_555 1_555
H10_9 C10_9 1_555 1_555
H11_9 C10_9 1_555 1_555
H12_9 C10_9 1_555 1_555
C11_9 H13_9 1_555 1_555
H14_9 C11_9 1_555 1_555
H15_9 C11_9 1_555 1_555
C12_9 N5_9 1_555 1_555
C13_9 C12_9 1_555 1_555
C14_9 C13_9 1_555 1_555
C15_9 C14_9 1_555 1_555
H16_9 C15_9 1_555 1_555
H17_9 C15_9 1_555 1_555
H18_9 C15_9 1_555 1_555
C16_9 H19_9 1_555 1_555
H20_9 C16_9 1_555 1_555
H21_9 C16_9 1_555 1_555
C17_9 N7_9 1_555 1_555
C18_9 C17_9 1_555 1_555
C19_9 C18_9 1_555 1_555
C20_9 C19_9 1_555 1_555
H22_9 C20_9 1_555 1_555
H23_9 C20_9 1_555 1_555
H24_9 C20_9 1_555 1_555
C26_9 H31_9 1_555 1_555
H32_9 C26_9 1_555 1_555
H33_9 C26_9 1_555 1_555
C27_9 N11_5 1_555 1_555
C28_9 C8_9 1_555 1_555
C29_9 N12_9 1_555 1_555
C30_9 C29_9 1_555 1_555
H34_9 C30_9 1_555 1_555
H35_9 C30_9 1_555 1_555
H36_9 C30_9 1_555 1_555
C36_9 H43_9 1_555 1_555
H44_9 C36_9 1_555 1_555
H45_9 C36_9 1_555 1_555
C37_9 N15_9 1_555 1_555
C38_9 C37_9 1_555 1_555
C39_9 N16_9 1_555 1_555
C40_9 C39_9 1_555 1_555
H46_9 C40_9 1_555 1_555
H47_9 C40_9 1_555 1_555
H48_9 C40_9 1_555 1_555
C41_9 H49_9 1_555 1_555
H50_9 C41_9 1_555 1_555
H51_9 C41_9 1_555 1_555
C42_9 N17_9 1_555 1_555
C43_9 C42_9 1_555 1_555
C44_9 N18_9 1_555 1_555
C46_9 H55_9 1_555 1_555
H56_9 C46_9 1_555 1_555
H57_9 C46_9 1_555 1_555
C47_9 N19_5 1_555 1_555
C48_9 C47_9 1_555 1_555
C49_9 C48_9 1_555 1_555
C50_9 C49_9 1_555 1_555
H58_9 C50_9 1_555 1_555
H59_9 C50_9 1_555 1_555
H60_9 C50_9 1_555 1_555
C56_9 H67_9 1_555 1_555
H68_9 C56_9 1_555 1_555
H69_9 C56_9 1_555 1_555
C57_9 N23_9 1_555 1_555
C58_9 C43_9 1_555 1_555
C59_9 C58_9 1_555 1_555
C60_9 C59_9 1_555 1_555
H70_9 C60_9 1_555 1_555
H71_9 C60_9 1_555 1_555
H72_9 C60_9 1_555 1_555
H81_9 C66_9 1_555 1_555
C67_9 N27_9 1_555 1_555
C68_9 C18_9 1_555 1_555
C69_9 N28_9 1_555 1_555
C70_9 C69_9 1_555 1_555
H82_9 C70_9 1_555 1_555
H83_9 C70_9 1_555 1_555
H84_9 C70_9 1_555 1_555
C71_9 H85_9 1_555 1_555
H86_9 C71_9 1_555 1_555
H87_9 C71_9 1_555 1_555
C72_9 N29_9 1_555 1_555
C73_9 C48_9 1_555 1_555
C74_9 N30_9 1_555 1_555
C75_9 C74_9 1_555 1_555
H88_9 C75_9 1_555 1_555
H89_9 C75_9 1_555 1_555
H90_9 C75_9 1_555 1_555
C76_9 H91_9 1_555 1_555
H92_9 C76_9 1_555 1_555
H93_9 C76_9 1_555 1_555
C77_9 N31_9 1_555 1_555
C78_9 C13_9 1_555 1_555
C79_9 C78_9 1_555 1_555
C80_9 C79_9 1_555 1_555
H94_9 C80_9 1_555 1_555
H95_9 C80_9 1_555 1_555
H96_9 C80_9 1_555 1_555
C81_9 H97_9 1_555 1_555
H98_9 C81_9 1_555 1_555
H99_9 C81_9 1_555 1_555
C82_9 N33_9 1_555 1_555
C83_9 C38_9 1_555 1_555
C84_9 N34_9 1_555 1_555
C85_9 C84_9 1_555 1_555
H100_9 C85_9 1_555 1_555
H101_9 C85_9 1_555 1_555
H102_9 C85_9 1_555 1_555
C86_9 H103_9 1_555 1_555
H104_9 C86_9 1_555 1_555
H105_9 C86_9 1_555 1_555
C87_9 N35_9 1_555 1_555
C88_9 C3_9 1_555 1_555
C89_9 N36_9 1_555 1_555
C90_9 C89_9 1_555 1_555
H106_9 C90_9 1_555 1_555
H107_9 C90_9 1_555 1_555
H108_9 C90_9 1_555 1_555
Ag19_5 N6_5 1_555 1_555
Ag20_5 N4_5 1_555 1_555
Ag21_5 N8_5 1_555 1_555
Ag22_5 N11_5 1_555 1_555
Ag23_5 N19_5 1_555 1_555
N37_5 Ag3_5 1_555 1_555
N38_5 Ag1_5 1_555 1_555
N41_5 Ag10_5 1_555 1_555
N42_5 Ag11_5 1_555 1_555
N17_9 N18_9 1_555 1_555
N29_9 N30_9 1_555 1_555
N35_9 N36_9 1_555 1_555
C1_9 C2_9 1_555 1_555
C6_9 C7_9 1_555 1_555
C8_9 C9_9 1_555 1_555
C11_9 C12_9 1_555 1_555
C16_9 C17_9 1_555 1_555
C26_9 C27_9 1_555 1_555
C27_9 C28_9 1_555 1_555
C28_9 C29_9 1_555 1_555
C36_9 C37_9 1_555 1_555
C38_9 C39_9 1_555 1_555
C41_9 C42_9 1_555 1_555
C43_9 C44_9 1_555 1_555
C46_9 C47_9 1_555 1_555
C56_9 C57_9 1_555 1_555
C57_9 C58_9 1_555 1_555
C66_9 C67_9 1_555 1_555
C67_9 C68_9 1_555 1_555
C68_9 C69_9 1_555 1_555
C71_9 C72_9 1_555 1_555
C72_9 C73_9 1_555 1_555
C73_9 C74_9 1_555 1_555
C76_9 C77_9 1_555 1_555
C77_9 C78_9 1_555 1_555
C81_9 C82_9 1_555 1_555
C82_9 C83_9 1_555 1_555
C83_9 C84_9 1_555 1_555
C86_9 C87_9 1_555 1_555
C87_9 C88_9 1_555 1_555
C88_9 C89_9 1_555 1_555
Ag4_10 N7_10 1_555 1_555
Ag24_5 N20_10 1_555 1_555
Ag13_10 N25_10 1_555 1_555
Ag14_10 N26_10 1_555 1_555
Ag15_10 N28_10 1_555 1_555
N7_10 N8_6 1_555 1_555
N8_6 C19_10 1_555 1_555
N11_6 N12_10 1_555 1_555
N12_10 Ag4_10 1_555 1_555
N19_6 N20_10 1_555 1_555
N20_10 C49_10 1_555 1_555
N42_5 N22_6 1_555 1_555
N22_6 C54_10 1_555 1_555
N25_10 N26_10 1_555 1_555
N26_10 C64_10 1_555 1_555
N27_10 Ag14_10 1_555 1_555
N28_10 N27_10 1_555 1_555
N29_10 Ag15_10 1_555 1_555
N30_10 Ag13_10 1_555 1_555
C16_10 H19_10 1_555 1_555
H20_10 C16_10 1_555 1_555
H21_10 C16_10 1_555 1_555
C17_10 N7_10 1_555 1_555
C18_10 C17_10 1_555 1_555
C19_10 C18_10 1_555 1_555
C20_10 C19_10 1_555 1_555
H22_10 C20_10 1_555 1_555
H23_10 C20_10 1_555 1_555
H24_10 C20_10 1_555 1_555
C29_10 N12_10 1_555 1_555
C30_10 C29_10 1_555 1_555
H34_10 C30_10 1_555 1_555
H35_10 C30_10 1_555 1_555
H36_10 C30_10 1_555 1_555
C46_10 H55_10 1_555 1_555
H56_10 C46_10 1_555 1_555
H57_10 C46_10 1_555 1_555
C47_10 N19_6 1_555 1_555
C48_10 C47_10 1_555 1_555
C49_10 C48_10 1_555 1_555
C50_10 C49_10 1_555 1_555
H58_10 C50_10 1_555 1_555
H59_10 C50_10 1_555 1_555
H60_10 C50_10 1_555 1_555
C51_10 H61_10 1_555 1_555
H62_10 C51_10 1_555 1_555
H63_10 C51_10 1_555 1_555
C52_10 N42_5 1_555 1_555
C53_10 C52_10 1_555 1_555
C54_10 C53_10 1_555 1_555
C55_10 C54_10 1_555 1_555
H64_10 C55_10 1_555 1_555
H65_10 C55_10 1_555 1_555
H66_10 C55_10 1_555 1_555
C61_10 H73_10 1_555 1_555
H74_10 C61_10 1_555 1_555
H75_10 C61_10 1_555 1_555
C62_10 N25_10 1_555 1_555
C63_10 C53_10 1_555 1_555
C64_10 C63_10 1_555 1_555
C65_10 C64_10 1_555 1_555
H76_10 C65_10 1_555 1_555
H77_10 C65_10 1_555 1_555
H78_10 C65_10 1_555 1_555
C66_10 H79_10 1_555 1_555
H80_10 C66_10 1_555 1_555
H81_10 C66_10 1_555 1_555
C67_10 N27_10 1_555 1_555
C68_10 C18_10 1_555 1_555
C69_10 N28_10 1_555 1_555
C70_10 C69_10 1_555 1_555
H82_10 C70_10 1_555 1_555
H83_10 C70_10 1_555 1_555
H84_10 C70_10 1_555 1_555
C71_10 H85_10 1_555 1_555
H86_10 C71_10 1_555 1_555
H87_10 C71_10 1_555 1_555
C72_10 N29_10 1_555 1_555
C73_10 C48_10 1_555 1_555
C74_10 N30_10 1_555 1_555
C75_10 C74_10 1_555 1_555
H88_10 C75_10 1_555 1_555
H89_10 C75_10 1_555 1_555
H90_10 C75_10 1_555 1_555
Ag21_6 N8_6 1_555 1_555
Ag22_6 N11_6 1_555 1_555
Ag23_6 N19_6 1_555 1_555
Ag25_6 N22_6 1_555 1_555
N29_10 N30_10 1_555 1_555
C16_10 C17_10 1_555 1_555
C28_10 C29_10 1_555 1_555
C46_10 C47_10 1_555 1_555
C51_10 C52_10 1_555 1_555
C61_10 C62_10 1_555 1_555
C62_10 C63_10 1_555 1_555
C66_10 C67_10 1_555 1_555
C67_10 C68_10 1_555 1_555
C68_10 C69_10 1_555 1_555
C71_10 C72_10 1_555 1_555
C72_10 C73_10 1_555 1_555
C73_10 C74_10 1_555 1_555
Ag2_10 N2_10 1_555 1_555
Ag3_6 N5_10 1_555 1_555
Ag5_6 N9_10 1_555 1_555
Ag6_6 N10_10 1_555 1_555
Ag7_10 N13_10 1_555 1_555
Ag8_10 N14_10 1_555 1_555
Ag9_10 N16_10 1_555 1_555
Ag10_6 N24_10 1_555 1_555
Ag12_6 N23_10 1_555 1_555
Ag16_10 N31_10 1_555 1_555
Ag17_10 N32_10 1_555 1_555
Ag18_10 N34_10 1_555 1_555
N1_10 N2_10 1_555 1_555
N2_10 C4_10 1_555 1_555
N3_10 Ag2_10 1_555 1_555
N4_6 N3_10 1_555 1_555
N5_10 N6_6 1_555 1_555
N6_6 C14_10 1_555 1_555
N9_10 N10_10 1_555 1_555
N10_10 C24_10 1_555 1_555
N13_10 N14_10 1_555 1_555
N14_10 C34_10 1_555 1_555
N15_10 Ag8_10 1_555 1_555
N16_10 N15_10 1_555 1_555
N17_10 Ag9_10 1_555 1_555
N18_10 Ag7_10 1_555 1_555
N23_10 N24_10 1_555 1_555
N24_10 C59_10 1_555 1_555
N31_10 N32_10 1_555 1_555
N32_10 C79_10 1_555 1_555
N33_10 Ag17_10 1_555 1_555
N34_10 N33_10 1_555 1_555
N35_10 Ag18_10 1_555 1_555
N36_10 Ag16_10 1_555 1_555
H3_10 C1_10 1_555 1_555
C2_10 N1_10 1_555 1_555
C3_10 C2_10 1_555 1_555
C4_10 C3_10 1_555 1_555
C5_10 C4_10 1_555 1_555
H4_10 C5_10 1_555 1_555
H5_10 C5_10 1_555 1_555
H6_10 C5_10 1_555 1_555
C6_10 H7_10 1_555 1_555
H9_10 C6_10 1_555 1_555
C7_10 N3_10 1_555 1_555
C8_10 C7_10 1_555 1_555
C9_10 N4_6 1_555 1_555
C10_10 C9_10 1_555 1_555
H10_10 C10_10 1_555 1_555
H11_10 C10_10 1_555 1_555
C11_10 H13_10 1_555 1_555
H14_10 C11_10 1_555 1_555
H15_10 C11_10 1_555 1_555
C12_10 N5_10 1_555 1_555
C13_10 C12_10 1_555 1_555
C14_10 C13_10 1_555 1_555
C15_10 C14_10 1_555 1_555
H16_10 C15_10 1_555 1_555
H17_10 C15_10 1_555 1_555
H18_10 C15_10 1_555 1_555
C21_10 H25_10 1_555 1_555
H26_10 C21_10 1_555 1_555
H27_10 C21_10 1_555 1_555
C22_10 N9_10 1_555 1_555
C23_10 C22_10 1_555 1_555
C24_10 C23_10 1_555 1_555
C25_10 C24_10 1_555 1_555
H28_10 C25_10 1_555 1_555
H29_10 C25_10 1_555 1_555
H30_10 C25_10 1_555 1_555
C26_10 H31_10 1_555 1_555
H32_10 C26_10 1_555 1_555
H33_10 C26_10 1_555 1_555
C31_10 H37_10 1_555 1_555
H38_10 C31_10 1_555 1_555
H39_10 C31_10 1_555 1_555
C32_10 N13_10 1_555 1_555
C33_10 C23_10 1_555 1_555
C34_10 C33_10 1_555 1_555
C35_10 C34_10 1_555 1_555
H40_10 C35_10 1_555 1_555
H41_10 C35_10 1_555 1_555
H42_10 C35_10 1_555 1_555
C36_10 H43_10 1_555 1_555
H44_10 C36_10 1_555 1_555
H45_10 C36_10 1_555 1_555
C37_10 N15_10 1_555 1_555
C38_10 C37_10 1_555 1_555
C39_10 N16_10 1_555 1_555
C40_10 C39_10 1_555 1_555
H46_10 C40_10 1_555 1_555
H47_10 C40_10 1_555 1_555
H48_10 C40_10 1_555 1_555
C41_10 H49_10 1_555 1_555
H50_10 C41_10 1_555 1_555
H51_10 C41_10 1_555 1_555
C42_10 N17_10 1_555 1_555
C43_10 C42_10 1_555 1_555
C44_10 N18_10 1_555 1_555
C45_10 C44_10 1_555 1_555
H52_10 C45_10 1_555 1_555
H53_10 C45_10 1_555 1_555
H54_10 C45_10 1_555 1_555
C56_10 H67_10 1_555 1_555
H68_10 C56_10 1_555 1_555
H69_10 C56_10 1_555 1_555
C57_10 N23_10 1_555 1_555
C58_10 C43_10 1_555 1_555
C59_10 C58_10 1_555 1_555
C60_10 C59_10 1_555 1_555
H70_10 C60_10 1_555 1_555
H71_10 C60_10 1_555 1_555
H72_10 C60_10 1_555 1_555
C76_10 H91_10 1_555 1_555
H92_10 C76_10 1_555 1_555
H93_10 C76_10 1_555 1_555
C77_10 N31_10 1_555 1_555
C78_10 C13_10 1_555 1_555
C79_10 C78_10 1_555 1_555
C80_10 C79_10 1_555 1_555
H94_10 C80_10 1_555 1_555
H95_10 C80_10 1_555 1_555
H96_10 C80_10 1_555 1_555
C81_10 H97_10 1_555 1_555
H98_10 C81_10 1_555 1_555
H99_10 C81_10 1_555 1_555
C82_10 N33_10 1_555 1_555
C83_10 C38_10 1_555 1_555
C84_10 N34_10 1_555 1_555
C85_10 C84_10 1_555 1_555
H100_10 C85_10 1_555 1_555
H101_10 C85_10 1_555 1_555
H102_10 C85_10 1_555 1_555
C86_10 H103_10 1_555 1_555
H104_10 C86_10 1_555 1_555
H105_10 C86_10 1_555 1_555
C87_10 N35_10 1_555 1_555
C88_10 C3_10 1_555 1_555
C89_10 N36_10 1_555 1_555
C90_10 C89_10 1_555 1_555
H106_10 C90_10 1_555 1_555
H107_10 C90_10 1_555 1_555
H108_10 C90_10 1_555 1_555
Ag19_6 N6_6 1_555 1_555
N39_6 Ag5_6 1_555 1_555
N40_6 Ag6_6 1_555 1_555
N41_6 Ag10_6 1_555 1_555
N17_10 N18_10 1_555 1_555
N35_10 N36_10 1_555 1_555
C1_10 C2_10 1_555 1_555
C6_10 C7_10 1_555 1_555
C8_10 C9_10 1_555 1_555
C11_10 C12_10 1_555 1_555
C21_10 C22_10 1_555 1_555
C26_10 C27_10 1_555 1_555
C31_10 C32_10 1_555 1_555
C32_10 C33_10 1_555 1_555
C36_10 C37_10 1_555 1_555
C38_10 C39_10 1_555 1_555
C41_10 C42_10 1_555 1_555
C43_10 C44_10 1_555 1_555
C56_10 C57_10 1_555 1_555
C57_10 C58_10 1_555 1_555
C76_10 C77_10 1_555 1_555
C77_10 C78_10 1_555 1_555
C81_10 C82_10 1_555 1_555
C82_10 C83_10 1_555 1_555
C83_10 C84_10 1_555 1_555
C86_10 C87_10 1_555 1_555
C87_10 C88_10 1_555 1_555
C88_10 C89_10 1_555 1_555
N38_6 Ag1_6 1_555 1_555
Ag20_6 N5_11 1_555 1_555
N5_11 N38_6 1_555 1_555
N38_6 C14_11 1_555 1_555
N31_11 N32_11 1_555 1_555
N32_11 C79_11 1_555 1_555
C11_11 H13_11 1_555 1_555
H14_11 C11_11 1_555 1_555
H15_11 C11_11 1_555 1_555
C12_11 N5_11 1_555 1_555
C13_11 C12_11 1_555 1_555
C14_11 C13_11 1_555 1_555
C15_11 C14_11 1_555 1_555
H16_11 C15_11 1_555 1_555
H17_11 C15_11 1_555 1_555
H18_11 C15_11 1_555 1_555
C76_11 H91_11 1_555 1_555
H92_11 C76_11 1_555 1_555
H93_11 C76_11 1_555 1_555
C77_11 N31_11 1_555 1_555
C78_11 C13_11 1_555 1_555
C79_11 C78_11 1_555 1_555
C80_11 C79_11 1_555 1_555
H94_11 C80_11 1_555 1_555
H95_11 C80_11 1_555 1_555
H96_11 C80_11 1_555 1_555
C11_11 C12_11 1_555 1_555
C76_11 C77_11 1_555 1_555
C77_11 C78_11 1_555 1_555
Ag23_5 N24_11 1_555 1_555
Ag25_6 N23_11 1_555 1_555
N9_11 N10_11 1_555 1_555
N23_11 N24_11 1_555 1_555
N24_11 C59_11 1_555 1_555
C21_11 H25_11 1_555 1_555
H26_11 C21_11 1_555 1_555
H27_11 C21_11 1_555 1_555
C22_11 N9_11 1_555 1_555
C31_11 H37_11 1_555 1_555
H39_11 C31_11 1_555 1_555
H52_11 C45_11 1_555 1_555
H53_11 C45_11 1_555 1_555
H54_11 C45_11 1_555 1_555
C56_11 H67_11 1_555 1_555
H68_11 C56_11 1_555 1_555
H69_11 C56_11 1_555 1_555
C57_11 N23_11 1_555 1_555
C59_11 C58_11 1_555 1_555
C60_11 C59_11 1_555 1_555
H70_11 C60_11 1_555 1_555
H72_11 C60_11 1_555 1_555
C21_11 C22_11 1_555 1_555
C56_11 C57_11 1_555 1_555
C57_11 C58_11 1_555 1_555
Ag2_11 N2_11 1_555 1_555
Ag4_11 N7_11 1_555 1_555
Ag7_11 N13_11 1_555 1_555
Ag8_11 N14_11 1_555 1_555
Ag9_11 N16_11 1_555 1_555
Ag11_6 N20_11 1_555 1_555
Ag13_11 N25_11 1_555 1_555
Ag14_11 N26_11 1_555 1_555
Ag15_11 N28_11 1_555 1_555
Ag18_11 N34_11 1_555 1_555
N1_11 N2_11 1_555 1_555
N2_11 C4_11 1_555 1_555
N3_11 Ag2_11 1_555 1_555
N37_6 N3_11 1_555 1_555
N7_11 N39_6 1_555 1_555
N39_6 C19_11 1_555 1_555
N40_6 N12_11 1_555 1_555
N12_11 Ag4_11 1_555 1_555
N13_11 N14_11 1_555 1_555
N14_11 C34_11 1_555 1_555
N15_11 Ag8_11 1_555 1_555
N16_11 N15_11 1_555 1_555
N17_11 Ag9_11 1_555 1_555
N18_11 Ag7_11 1_555 1_555
N41_5 N20_11 1_555 1_555
N20_11 C49_11 1_555 1_555
N21_6 N43_6 1_555 1_555
N43_6 C54_11 1_555 1_555
N25_11 N26_11 1_555 1_555
N26_11 C64_11 1_555 1_555
N27_11 Ag14_11 1_555 1_555
N28_11 N27_11 1_555 1_555
N29_11 Ag15_11 1_555 1_555
N30_11 Ag13_11 1_555 1_555
N33_11 Ag17_11 1_555 1_555
N34_11 N33_11 1_555 1_555
N35_11 Ag18_11 1_555 1_555
N36_11 Ag16_11 1_555 1_555
H3_11 C1_11 1_555 1_555
C2_11 N1_11 1_555 1_555
C3_11 C2_11 1_555 1_555
C4_11 C3_11 1_555 1_555
C5_11 C4_11 1_555 1_555
H4_11 C5_11 1_555 1_555
H5_11 C5_11 1_555 1_555
H6_11 C5_11 1_555 1_555
C6_11 H7_11 1_555 1_555
H8_11 C6_11 1_555 1_555
H9_11 C6_11 1_555 1_555
C7_11 N3_11 1_555 1_555
C8_11 C7_11 1_555 1_555
C9_11 N37_6 1_555 1_555
C10_11 C9_11 1_555 1_555
H10_11 C10_11 1_555 1_555
H11_11 C10_11 1_555 1_555
H12_11 C10_11 1_555 1_555
C16_11 H19_11 1_555 1_555
H20_11 C16_11 1_555 1_555
H21_11 C16_11 1_555 1_555
C17_11 N7_11 1_555 1_555
C18_11 C17_11 1_555 1_555
C19_11 C18_11 1_555 1_555
C20_11 C19_11 1_555 1_555
H22_11 C20_11 1_555 1_555
H23_11 C20_11 1_555 1_555
H24_11 C20_11 1_555 1_555
C24_11 C23_11 1_555 1_555
C25_11 C24_11 1_555 1_555
H28_11 C25_11 1_555 1_555
H29_11 C25_11 1_555 1_555
H30_11 C25_11 1_555 1_555
C26_11 H31_11 1_555 1_555
H32_11 C26_11 1_555 1_555
H33_11 C26_11 1_555 1_555
C27_11 N40_6 1_555 1_555
C28_11 C8_11 1_555 1_555
C29_11 N12_11 1_555 1_555
C30_11 C29_11 1_555 1_555
H34_11 C30_11 1_555 1_555
H35_11 C30_11 1_555 1_555
H36_11 C30_11 1_555 1_555
C32_11 N13_11 1_555 1_555
C33_11 C23_11 1_555 1_555
C34_11 C33_11 1_555 1_555
C35_11 C34_11 1_555 1_555
H40_11 C35_11 1_555 1_555
H41_11 C35_11 1_555 1_555
H42_11 C35_11 1_555 1_555
C36_11 H43_11 1_555 1_555
H44_11 C36_11 1_555 1_555
H45_11 C36_11 1_555 1_555
C37_11 N15_11 1_555 1_555
C38_11 C37_11 1_555 1_555
C39_11 N16_11 1_555 1_555
C40_11 C39_11 1_555 1_555
H46_11 C40_11 1_555 1_555
H47_11 C40_11 1_555 1_555
H48_11 C40_11 1_555 1_555
C41_11 H49_11 1_555 1_555
H50_11 C41_11 1_555 1_555
H51_11 C41_11 1_555 1_555
C42_11 N17_11 1_555 1_555
C43_11 C42_11 1_555 1_555
C44_11 N18_11 1_555 1_555
C46_11 H55_11 1_555 1_555
H56_11 C46_11 1_555 1_555
H57_11 C46_11 1_555 1_555
C47_11 N41_5 1_555 1_555
C48_11 C47_11 1_555 1_555
C49_11 C48_11 1_555 1_555
C50_11 C49_11 1_555 1_555
H58_11 C50_11 1_555 1_555
H59_11 C50_11 1_555 1_555
H60_11 C50_11 1_555 1_555
C51_11 H61_11 1_555 1_555
H62_11 C51_11 1_555 1_555
H63_11 C51_11 1_555 1_555
C52_11 N21_6 1_555 1_555
C53_11 C52_11 1_555 1_555
C54_11 C53_11 1_555 1_555
C55_11 C54_11 1_555 1_555
H64_11 C55_11 1_555 1_555
H65_11 C55_11 1_555 1_555
H66_11 C55_11 1_555 1_555
C61_11 H73_11 1_555 1_555
H74_11 C61_11 1_555 1_555
H75_11 C61_11 1_555 1_555
C62_11 N25_11 1_555 1_555
C63_11 C53_11 1_555 1_555
C64_11 C63_11 1_555 1_555
C65_11 C64_11 1_555 1_555
H76_11 C65_11 1_555 1_555
H77_11 C65_11 1_555 1_555
H78_11 C65_11 1_555 1_555
C66_11 H79_11 1_555 1_555
H80_11 C66_11 1_555 1_555
H81_11 C66_11 1_555 1_555
C67_11 N27_11 1_555 1_555
C68_11 C18_11 1_555 1_555
C69_11 N28_11 1_555 1_555
C70_11 C69_11 1_555 1_555
H82_11 C70_11 1_555 1_555
H83_11 C70_11 1_555 1_555
H84_11 C70_11 1_555 1_555
C71_11 H85_11 1_555 1_555
H86_11 C71_11 1_555 1_555
H87_11 C71_11 1_555 1_555
C72_11 N29_11 1_555 1_555
C73_11 C48_11 1_555 1_555
C74_11 N30_11 1_555 1_555
C75_11 C74_11 1_555 1_555
H88_11 C75_11 1_555 1_555
H89_11 C75_11 1_555 1_555
H90_11 C75_11 1_555 1_555
C81_11 H97_11 1_555 1_555
H98_11 C81_11 1_555 1_555
H99_11 C81_11 1_555 1_555
C82_11 N33_11 1_555 1_555
C83_11 C38_11 1_555 1_555
C84_11 N34_11 1_555 1_555
C85_11 C84_11 1_555 1_555
H100_11 C85_11 1_555 1_555
H101_11 C85_11 1_555 1_555
H102_11 C85_11 1_555 1_555
C86_11 H103_11 1_555 1_555
H104_11 C86_11 1_555 1_555
H105_11 C86_11 1_555 1_555
C87_11 N35_11 1_555 1_555
C88_11 C3_11 1_555 1_555
C89_11 N36_11 1_555 1_555
C90_11 C89_11 1_555 1_555
H106_11 C90_11 1_555 1_555
H107_11 C90_11 1_555 1_555
H108_11 C90_11 1_555 1_555
N17_11 N18_11 1_555 1_555
N29_11 N30_11 1_555 1_555
N35_11 N36_11 1_555 1_555
C1_11 C2_11 1_555 1_555
C6_11 C7_11 1_555 1_555
C8_11 C9_11 1_555 1_555
C16_11 C17_11 1_555 1_555
C26_11 C27_11 1_555 1_555
C27_11 C28_11 1_555 1_555
C28_11 C29_11 1_555 1_555
C32_11 C33_11 1_555 1_555
C36_11 C37_11 1_555 1_555
C38_11 C39_11 1_555 1_555
C41_11 C42_11 1_555 1_555
C43_11 C44_11 1_555 1_555
C46_11 C47_11 1_555 1_555
C51_11 C52_11 1_555 1_555
C61_11 C62_11 1_555 1_555
C62_11 C63_11 1_555 1_555
C66_11 C67_11 1_555 1_555
C67_11 C68_11 1_555 1_555
C68_11 C69_11 1_555 1_555
C71_11 C72_11 1_555 1_555
C72_11 C73_11 1_555 1_555
C73_11 C74_11 1_555 1_555
C81_11 C82_11 1_555 1_555
C82_11 C83_11 1_555 1_555
C83_11 C84_11 1_555 1_555
C86_11 C87_11 1_555 1_555
C87_11 C88_11 1_555 1_555
C88_11 C89_11 1_555 1_555
Ag19_5 N1_12 1_555 1_555
Ag2_12 N2_12 1_555 1_555
Ag4_12 N7_12 1_555 1_555
Ag9_12 N16_12 1_555 1_555
Ag23_6 N24_12 1_555 1_555
Ag24_6 N20_12 1_555 1_555
Ag25_5 N23_12 1_555 1_555
Ag15_12 N28_12 1_555 1_555
Ag18_12 N34_12 1_555 1_555
N1_12 N2_12 1_555 1_555
N2_12 C4_12 1_555 1_555
N3_12 Ag2_12 1_555 1_555
N37_5 N3_12 1_555 1_555
N7_12 N39_5 1_555 1_555
N39_5 C19_12 1_555 1_555
N40_5 N12_12 1_555 1_555
N12_12 Ag4_12 1_555 1_555
N16_12 N15_12 1_555 1_555
N17_12 Ag9_12 1_555 1_555
N41_6 N20_12 1_555 1_555
N20_12 C49_12 1_555 1_555
N23_12 N24_12 1_555 1_555
N24_12 C59_12 1_555 1_555
N28_12 N27_12 1_555 1_555
N29_12 Ag15_12 1_555 1_555
N30_12 Ag13_12 1_555 1_555
N33_12 Ag17_12 1_555 1_555
N34_12 N33_12 1_555 1_555
N35_12 Ag18_12 1_555 1_555
N36_12 Ag16_12 1_555 1_555
C1_12 H1_12 1_555 1_555
H2_12 C1_12 1_555 1_555
H3_12 C1_12 1_555 1_555
C2_12 N1_12 1_555 1_555
C3_12 C2_12 1_555 1_555
C4_12 C3_12 1_555 1_555
C5_12 C4_12 1_555 1_555
H4_12 C5_12 1_555 1_555
H5_12 C5_12 1_555 1_555
H6_12 C5_12 1_555 1_555
C6_12 H7_12 1_555 1_555
H8_12 C6_12 1_555 1_555
H9_12 C6_12 1_555 1_555
C7_12 N3_12 1_555 1_555
C8_12 C7_12 1_555 1_555
C9_12 N37_5 1_555 1_555
C10_12 C9_12 1_555 1_555
H10_12 C10_12 1_555 1_555
H11_12 C10_12 1_555 1_555
H12_12 C10_12 1_555 1_555
C16_12 H19_12 1_555 1_555
H20_12 C16_12 1_555 1_555
H21_12 C16_12 1_555 1_555
C17_12 N7_12 1_555 1_555
C18_12 C17_12 1_555 1_555
C19_12 C18_12 1_555 1_555
C20_12 C19_12 1_555 1_555
H22_12 C20_12 1_555 1_555
H23_12 C20_12 1_555 1_555
H24_12 C20_12 1_555 1_555
C26_12 H31_12 1_555 1_555
H32_12 C26_12 1_555 1_555
H33_12 C26_12 1_555 1_555
C27_12 N40_5 1_555 1_555
C28_12 C8_12 1_555 1_555
C29_12 N12_12 1_555 1_555
C30_12 C29_12 1_555 1_555
H34_12 C30_12 1_555 1_555
H35_12 C30_12 1_555 1_555
H36_12 C30_12 1_555 1_555
C36_12 H43_12 1_555 1_555
H44_12 C36_12 1_555 1_555
H45_12 C36_12 1_555 1_555
C37_12 N15_12 1_555 1_555
C38_12 C37_12 1_555 1_555
C39_12 N16_12 1_555 1_555
C40_12 C39_12 1_555 1_555
H46_12 C40_12 1_555 1_555
H47_12 C40_12 1_555 1_555
H48_12 C40_12 1_555 1_555
C41_12 H49_12 1_555 1_555
H50_12 C41_12 1_555 1_555
H51_12 C41_12 1_555 1_555
C42_12 N17_12 1_555 1_555
C43_12 C42_12 1_555 1_555
C44_12 N18_12 1_555 1_555
C46_12 H55_12 1_555 1_555
H56_12 C46_12 1_555 1_555
H57_12 C46_12 1_555 1_555
C47_12 N41_6 1_555 1_555
C48_12 C47_12 1_555 1_555
C49_12 C48_12 1_555 1_555
C50_12 C49_12 1_555 1_555
H58_12 C50_12 1_555 1_555
H59_12 C50_12 1_555 1_555
H60_12 C50_12 1_555 1_555
C56_12 H67_12 1_555 1_555
H68_12 C56_12 1_555 1_555
H69_12 C56_12 1_555 1_555
C57_12 N23_12 1_555 1_555
C58_12 C43_12 1_555 1_555
C59_12 C58_12 1_555 1_555
C60_12 C59_12 1_555 1_555
H70_12 C60_12 1_555 1_555
H71_12 C60_12 1_555 1_555
H72_12 C60_12 1_555 1_555
H81_12 C66_12 1_555 1_555
C67_12 N27_12 1_555 1_555
C68_12 C18_12 1_555 1_555
C69_12 N28_12 1_555 1_555
C70_12 C69_12 1_555 1_555
H82_12 C70_12 1_555 1_555
H83_12 C70_12 1_555 1_555
H84_12 C70_12 1_555 1_555
C71_12 H85_12 1_555 1_555
H86_12 C71_12 1_555 1_555
H87_12 C71_12 1_555 1_555
C72_12 N29_12 1_555 1_555
C73_12 C48_12 1_555 1_555
C74_12 N30_12 1_555 1_555
C75_12 C74_12 1_555 1_555
H88_12 C75_12 1_555 1_555
H89_12 C75_12 1_555 1_555
H90_12 C75_12 1_555 1_555
C81_12 H97_12 1_555 1_555
H98_12 C81_12 1_555 1_555
H99_12 C81_12 1_555 1_555
C82_12 N33_12 1_555 1_555
C83_12 C38_12 1_555 1_555
C84_12 N34_12 1_555 1_555
C85_12 C84_12 1_555 1_555
H100_12 C85_12 1_555 1_555
H101_12 C85_12 1_555 1_555
H102_12 C85_12 1_555 1_555
C86_12 H103_12 1_555 1_555
H104_12 C86_12 1_555 1_555
H105_12 C86_12 1_555 1_555
C87_12 N35_12 1_555 1_555
C88_12 C3_12 1_555 1_555
C89_12 N36_12 1_555 1_555
C90_12 C89_12 1_555 1_555
H106_12 C90_12 1_555 1_555
H107_12 C90_12 1_555 1_555
H108_12 C90_12 1_555 1_555
N17_12 N18_12 1_555 1_555
N29_12 N30_12 1_555 1_555
N35_12 N36_12 1_555 1_555
C1_12 C2_12 1_555 1_555
C6_12 C7_12 1_555 1_555
C8_12 C9_12 1_555 1_555
C16_12 C17_12 1_555 1_555
C26_12 C27_12 1_555 1_555
C27_12 C28_12 1_555 1_555
C28_12 C29_12 1_555 1_555
C36_12 C37_12 1_555 1_555
C38_12 C39_12 1_555 1_555
C41_12 C42_12 1_555 1_555
C43_12 C44_12 1_555 1_555
C46_12 C47_12 1_555 1_555
C56_12 C57_12 1_555 1_555
C57_12 C58_12 1_555 1_555
C66_12 C67_12 1_555 1_555
C67_12 C68_12 1_555 1_555
C68_12 C69_12 1_555 1_555
C71_12 C72_12 1_555 1_555
C72_12 C73_12 1_555 1_555
C73_12 C74_12 1_555 1_555
C81_12 C82_12 1_555 1_555
C82_12 C83_12 1_555 1_555
C83_12 C84_12 1_555 1_555
C86_12 C87_12 1_555 1_555
C87_12 C88_12 1_555 1_555
C88_12 C89_12 1_555 1_555
Ag7_12 N13_12 1_555 1_555
Ag8_12 N14_12 1_555 1_555
Ag14_12 N26_12 1_555 1_555
N9_12 N10_12 1_555 1_555
N10_12 C24_12 1_555 1_555
N13_12 N14_12 1_555 1_555
N14_12 C34_12 1_555 1_555
N42_6 N43_5 1_555 1_555
N43_5 C54_12 1_555 1_555
N25_12 N26_12 1_555 1_555
N26_12 C64_12 1_555 1_555
C21_12 H25_12 1_555 1_555
H26_12 C21_12 1_555 1_555
H27_12 C21_12 1_555 1_555
C22_12 N9_12 1_555 1_555
C23_12 C22_12 1_555 1_555
C24_12 C23_12 1_555 1_555
C25_12 C24_12 1_555 1_555
H28_12 C25_12 1_555 1_555
H29_12 C25_12 1_555 1_555
H30_12 C25_12 1_555 1_555
C31_12 H37_12 1_555 1_555
H38_12 C31_12 1_555 1_555
H39_12 C31_12 1_555 1_555
C32_12 N13_12 1_555 1_555
C33_12 C23_12 1_555 1_555
C34_12 C33_12 1_555 1_555
C35_12 C34_12 1_555 1_555
H40_12 C35_12 1_555 1_555
H41_12 C35_12 1_555 1_555
H42_12 C35_12 1_555 1_555
H52_12 C45_12 1_555 1_555
H54_12 C45_12 1_555 1_555
C51_12 H61_12 1_555 1_555
H62_12 C51_12 1_555 1_555
H63_12 C51_12 1_555 1_555
C52_12 N42_6 1_555 1_555
C53_12 C52_12 1_555 1_555
C54_12 C53_12 1_555 1_555
C55_12 C54_12 1_555 1_555
H64_12 C55_12 1_555 1_555
H65_12 C55_12 1_555 1_555
H66_12 C55_12 1_555 1_555
C61_12 H73_12 1_555 1_555
H74_12 C61_12 1_555 1_555
H75_12 C61_12 1_555 1_555
C62_12 N25_12 1_555 1_555
C63_12 C53_12 1_555 1_555
C64_12 C63_12 1_555 1_555
C65_12 C64_12 1_555 1_555
H76_12 C65_12 1_555 1_555
H77_12 C65_12 1_555 1_555
H78_12 C65_12 1_555 1_555
C21_12 C22_12 1_555 1_555
C31_12 C32_12 1_555 1_555
C32_12 C33_12 1_555 1_555
C51_12 C52_12 1_555 1_555
C61_12 C62_12 1_555 1_555
C62_12 C63_12 1_555 1_555
Ag20_5 N5_12 1_555 1_555
N5_12 N38_5 1_555 1_555
N38_5 C14_12 1_555 1_555
N31_12 N32_12 1_555 1_555
N32_12 C79_12 1_555 1_555
C11_12 H13_12 1_555 1_555
H14_12 C11_12 1_555 1_555
H15_12 C11_12 1_555 1_555
C12_12 N5_12 1_555 1_555
C13_12 C12_12 1_555 1_555
C14_12 C13_12 1_555 1_555
C15_12 C14_12 1_555 1_555
H16_12 C15_12 1_555 1_555
H17_12 C15_12 1_555 1_555
H18_12 C15_12 1_555 1_555
C76_12 H91_12 1_555 1_555
H92_12 C76_12 1_555 1_555
H93_12 C76_12 1_555 1_555
C77_12 N31_12 1_555 1_555
C78_12 C13_12 1_555 1_555
C79_12 C78_12 1_555 1_555
C80_12 C79_12 1_555 1_555
H94_12 C80_12 1_555 1_555
H95_12 C80_12 1_555 1_555
H96_12 C80_12 1_555 1_555
C11_12 C12_12 1_555 1_555
C76_12 C77_12 1_555 1_555
C77_12 C78_12 1_555 1_555
Ag5_7 N9_13 1_555 1_555
Ag6_7 N10_13 1_555 1_555
Ag7_13 N13_13 1_555 1_555
Ag8_13 N14_13 1_555 1_555
Ag14_13 N26_13 1_555 1_555
N9_13 N10_13 1_555 1_555
N10_13 C24_13 1_555 1_555
N13_13 N14_13 1_555 1_555
N14_13 C34_13 1_555 1_555
N21_7 N22_7 1_555 1_555
N22_7 C54_13 1_555 1_555
N25_13 N26_13 1_555 1_555
N26_13 C64_13 1_555 1_555
C21_13 H25_13 1_555 1_555
H26_13 C21_13 1_555 1_555
H27_13 C21_13 1_555 1_555
C22_13 N9_13 1_555 1_555
C23_13 C22_13 1_555 1_555
C24_13 C23_13 1_555 1_555
C25_13 C24_13 1_555 1_555
H28_13 C25_13 1_555 1_555
H29_13 C25_13 1_555 1_555
H30_13 C25_13 1_555 1_555
C31_13 H37_13 1_555 1_555
H38_13 C31_13 1_555 1_555
H39_13 C31_13 1_555 1_555
C32_13 N13_13 1_555 1_555
C33_13 C23_13 1_555 1_555
C34_13 C33_13 1_555 1_555
C35_13 C34_13 1_555 1_555
H40_13 C35_13 1_555 1_555
H41_13 C35_13 1_555 1_555
H42_13 C35_13 1_555 1_555
H52_13 C45_13 1_555 1_555
H54_13 C45_13 1_555 1_555
C51_13 H61_13 1_555 1_555
H62_13 C51_13 1_555 1_555
H63_13 C51_13 1_555 1_555
C52_13 N21_7 1_555 1_555
C53_13 C52_13 1_555 1_555
C54_13 C53_13 1_555 1_555
C55_13 C54_13 1_555 1_555
H64_13 C55_13 1_555 1_555
H65_13 C55_13 1_555 1_555
H66_13 C55_13 1_555 1_555
C61_13 H73_13 1_555 1_555
H74_13 C61_13 1_555 1_555
H75_13 C61_13 1_555 1_555
C62_13 N25_13 1_555 1_555
C63_13 C53_13 1_555 1_555
C64_13 C63_13 1_555 1_555
C65_13 C64_13 1_555 1_555
H76_13 C65_13 1_555 1_555
H77_13 C65_13 1_555 1_555
H78_13 C65_13 1_555 1_555
Ag24_7 N21_7 1_555 1_555
Ag25_7 N22_7 1_555 1_555
N39_7 Ag5_7 1_555 1_555
N40_7 Ag6_7 1_555 1_555
C21_13 C22_13 1_555 1_555
C31_13 C32_13 1_555 1_555
C32_13 C33_13 1_555 1_555
C51_13 C52_13 1_555 1_555
C61_13 C62_13 1_555 1_555
C62_13 C63_13 1_555 1_555
Ag1_7 N1_13 1_555 1_555
Ag2_13 N2_13 1_555 1_555
Ag3_7 N5_13 1_555 1_555
Ag4_13 N7_13 1_555 1_555
Ag9_13 N16_13 1_555 1_555
Ag10_7 N24_13 1_555 1_555
Ag11_7 N20_13 1_555 1_555
Ag12_7 N23_13 1_555 1_555
Ag15_13 N28_13 1_555 1_555
Ag16_13 N31_13 1_555 1_555
Ag17_13 N32_13 1_555 1_555
Ag18_13 N34_13 1_555 1_555
N1_13 N2_13 1_555 1_555
N2_13 C4_13 1_555 1_555
N3_13 Ag2_13 1_555 1_555
N4_7 N3_13 1_555 1_555
N5_13 N6_7 1_555 1_555
N6_7 C14_13 1_555 1_555
N7_13 N8_7 1_555 1_555
N8_7 C19_13 1_555 1_555
N11_7 N12_13 1_555 1_555
N12_13 Ag4_13 1_555 1_555
N16_13 N15_13 1_555 1_555
N17_13 Ag9_13 1_555 1_555
N19_7 N20_13 1_555 1_555
N20_13 C49_13 1_555 1_555
N23_13 N24_13 1_555 1_555
N24_13 C59_13 1_555 1_555
N28_13 N27_13 1_555 1_555
N29_13 Ag15_13 1_555 1_555
N30_13 Ag13_13 1_555 1_555
N31_13 N32_13 1_555 1_555
N32_13 C79_13 1_555 1_555
N33_13 Ag17_13 1_555 1_555
N34_13 N33_13 1_555 1_555
N35_13 Ag18_13 1_555 1_555
N36_13 Ag16_13 1_555 1_555
C1_13 H1_13 1_555 1_555
H2_13 C1_13 1_555 1_555
H3_13 C1_13 1_555 1_555
C2_13 N1_13 1_555 1_555
C3_13 C2_13 1_555 1_555
C4_13 C3_13 1_555 1_555
C5_13 C4_13 1_555 1_555
H4_13 C5_13 1_555 1_555
H5_13 C5_13 1_555 1_555
H6_13 C5_13 1_555 1_555
C6_13 H7_13 1_555 1_555
H8_13 C6_13 1_555 1_555
H9_13 C6_13 1_555 1_555
C7_13 N3_13 1_555 1_555
C8_13 C7_13 1_555 1_555
C9_13 N4_7 1_555 1_555
C10_13 C9_13 1_555 1_555
H10_13 C10_13 1_555 1_555
H11_13 C10_13 1_555 1_555
H12_13 C10_13 1_555 1_555
C11_13 H13_13 1_555 1_555
H14_13 C11_13 1_555 1_555
H15_13 C11_13 1_555 1_555
C12_13 N5_13 1_555 1_555
C13_13 C12_13 1_555 1_555
C14_13 C13_13 1_555 1_555
C15_13 C14_13 1_555 1_555
H16_13 C15_13 1_555 1_555
H17_13 C15_13 1_555 1_555
H18_13 C15_13 1_555 1_555
C16_13 H19_13 1_555 1_555
H20_13 C16_13 1_555 1_555
H21_13 C16_13 1_555 1_555
C17_13 N7_13 1_555 1_555
C18_13 C17_13 1_555 1_555
C19_13 C18_13 1_555 1_555
C20_13 C19_13 1_555 1_555
H22_13 C20_13 1_555 1_555
H23_13 C20_13 1_555 1_555
H24_13 C20_13 1_555 1_555
C26_13 H31_13 1_555 1_555
H32_13 C26_13 1_555 1_555
H33_13 C26_13 1_555 1_555
C27_13 N11_7 1_555 1_555
C28_13 C8_13 1_555 1_555
C29_13 N12_13 1_555 1_555
C30_13 C29_13 1_555 1_555
H34_13 C30_13 1_555 1_555
H35_13 C30_13 1_555 1_555
H36_13 C30_13 1_555 1_555
C36_13 H43_13 1_555 1_555
H44_13 C36_13 1_555 1_555
H45_13 C36_13 1_555 1_555
C37_13 N15_13 1_555 1_555
C38_13 C37_13 1_555 1_555
C39_13 N16_13 1_555 1_555
C40_13 C39_13 1_555 1_555
H46_13 C40_13 1_555 1_555
H47_13 C40_13 1_555 1_555
H48_13 C40_13 1_555 1_555
C41_13 H49_13 1_555 1_555
H50_13 C41_13 1_555 1_555
H51_13 C41_13 1_555 1_555
C42_13 N17_13 1_555 1_555
C43_13 C42_13 1_555 1_555
C44_13 N18_13 1_555 1_555
C46_13 H55_13 1_555 1_555
H56_13 C46_13 1_555 1_555
H57_13 C46_13 1_555 1_555
C47_13 N19_7 1_555 1_555
C48_13 C47_13 1_555 1_555
C49_13 C48_13 1_555 1_555
C50_13 C49_13 1_555 1_555
H58_13 C50_13 1_555 1_555
H59_13 C50_13 1_555 1_555
H60_13 C50_13 1_555 1_555
C56_13 H67_13 1_555 1_555
H68_13 C56_13 1_555 1_555
H69_13 C56_13 1_555 1_555
C57_13 N23_13 1_555 1_555
C58_13 C43_13 1_555 1_555
C59_13 C58_13 1_555 1_555
C60_13 C59_13 1_555 1_555
H70_13 C60_13 1_555 1_555
H71_13 C60_13 1_555 1_555
H72_13 C60_13 1_555 1_555
H81_13 C66_13 1_555 1_555
C67_13 N27_13 1_555 1_555
C68_13 C18_13 1_555 1_555
C69_13 N28_13 1_555 1_555
C70_13 C69_13 1_555 1_555
H82_13 C70_13 1_555 1_555
H83_13 C70_13 1_555 1_555
H84_13 C70_13 1_555 1_555
C71_13 H85_13 1_555 1_555
H86_13 C71_13 1_555 1_555
H87_13 C71_13 1_555 1_555
C72_13 N29_13 1_555 1_555
C73_13 C48_13 1_555 1_555
C74_13 N30_13 1_555 1_555
C75_13 C74_13 1_555 1_555
H88_13 C75_13 1_555 1_555
H89_13 C75_13 1_555 1_555
H90_13 C75_13 1_555 1_555
C76_13 H91_13 1_555 1_555
H92_13 C76_13 1_555 1_555
H93_13 C76_13 1_555 1_555
C77_13 N31_13 1_555 1_555
C78_13 C13_13 1_555 1_555
C79_13 C78_13 1_555 1_555
C80_13 C79_13 1_555 1_555
H94_13 C80_13 1_555 1_555
H95_13 C80_13 1_555 1_555
H96_13 C80_13 1_555 1_555
C81_13 H97_13 1_555 1_555
H98_13 C81_13 1_555 1_555
H99_13 C81_13 1_555 1_555
C82_13 N33_13 1_555 1_555
C83_13 C38_13 1_555 1_555
C84_13 N34_13 1_555 1_555
C85_13 C84_13 1_555 1_555
H100_13 C85_13 1_555 1_555
H101_13 C85_13 1_555 1_555
H102_13 C85_13 1_555 1_555
C86_13 H103_13 1_555 1_555
H104_13 C86_13 1_555 1_555
H105_13 C86_13 1_555 1_555
C87_13 N35_13 1_555 1_555
C88_13 C3_13 1_555 1_555
C89_13 N36_13 1_555 1_555
C90_13 C89_13 1_555 1_555
H106_13 C90_13 1_555 1_555
H107_13 C90_13 1_555 1_555
H108_13 C90_13 1_555 1_555
Ag19_7 N6_7 1_555 1_555
Ag20_7 N4_7 1_555 1_555
Ag21_7 N8_7 1_555 1_555
Ag22_7 N11_7 1_555 1_555
Ag23_7 N19_7 1_555 1_555
N37_7 Ag3_7 1_555 1_555
N38_7 Ag1_7 1_555 1_555
N41_7 Ag10_7 1_555 1_555
N42_7 Ag11_7 1_555 1_555
N17_13 N18_13 1_555 1_555
N29_13 N30_13 1_555 1_555
N35_13 N36_13 1_555 1_555
C1_13 C2_13 1_555 1_555
C6_13 C7_13 1_555 1_555
C8_13 C9_13 1_555 1_555
C11_13 C12_13 1_555 1_555
C16_13 C17_13 1_555 1_555
C26_13 C27_13 1_555 1_555
C27_13 C28_13 1_555 1_555
C28_13 C29_13 1_555 1_555
C36_13 C37_13 1_555 1_555
C38_13 C39_13 1_555 1_555
C41_13 C42_13 1_555 1_555
C43_13 C44_13 1_555 1_555
C46_13 C47_13 1_555 1_555
C56_13 C57_13 1_555 1_555
C57_13 C58_13 1_555 1_555
C66_13 C67_13 1_555 1_555
C67_13 C68_13 1_555 1_555
C68_13 C69_13 1_555 1_555
C71_13 C72_13 1_555 1_555
C72_13 C73_13 1_555 1_555
C73_13 C74_13 1_555 1_555
C76_13 C77_13 1_555 1_555
C77_13 C78_13 1_555 1_555
C81_13 C82_13 1_555 1_555
C82_13 C83_13 1_555 1_555
C83_13 C84_13 1_555 1_555
C86_13 C87_13 1_555 1_555
C87_13 C88_13 1_555 1_555
C88_13 C89_13 1_555 1_555
Ag2_14 N2_14 1_555 1_555
Ag3_8 N5_14 1_555 1_555
Ag5_8 N9_14 1_555 1_555
Ag6_8 N10_14 1_555 1_555
Ag7_14 N13_14 1_555 1_555
Ag8_14 N14_14 1_555 1_555
Ag9_14 N16_14 1_555 1_555
Ag10_8 N24_14 1_555 1_555
Ag12_8 N23_14 1_555 1_555
Ag16_14 N31_14 1_555 1_555
Ag17_14 N32_14 1_555 1_555
Ag18_14 N34_14 1_555 1_555
N1_14 N2_14 1_555 1_555
N2_14 C4_14 1_555 1_555
N3_14 Ag2_14 1_555 1_555
N4_8 N3_14 1_555 1_555
N5_14 N6_8 1_555 1_555
N6_8 C14_14 1_555 1_555
N9_14 N10_14 1_555 1_555
N10_14 C24_14 1_555 1_555
N13_14 N14_14 1_555 1_555
N14_14 C34_14 1_555 1_555
N15_14 Ag8_14 1_555 1_555
N16_14 N15_14 1_555 1_555
N17_14 Ag9_14 1_555 1_555
N18_14 Ag7_14 1_555 1_555
N23_14 N24_14 1_555 1_555
N24_14 C59_14 1_555 1_555
N31_14 N32_14 1_555 1_555
N32_14 C79_14 1_555 1_555
N33_14 Ag17_14 1_555 1_555
N34_14 N33_14 1_555 1_555
N35_14 Ag18_14 1_555 1_555
N36_14 Ag16_14 1_555 1_555
H3_14 C1_14 1_555 1_555
C2_14 N1_14 1_555 1_555
C3_14 C2_14 1_555 1_555
C4_14 C3_14 1_555 1_555
C5_14 C4_14 1_555 1_555
H4_14 C5_14 1_555 1_555
H5_14 C5_14 1_555 1_555
H6_14 C5_14 1_555 1_555
C6_14 H7_14 1_555 1_555
H9_14 C6_14 1_555 1_555
C7_14 N3_14 1_555 1_555
C8_14 C7_14 1_555 1_555
C9_14 N4_8 1_555 1_555
C10_14 C9_14 1_555 1_555
H10_14 C10_14 1_555 1_555
H11_14 C10_14 1_555 1_555
C11_14 H13_14 1_555 1_555
H14_14 C11_14 1_555 1_555
H15_14 C11_14 1_555 1_555
C12_14 N5_14 1_555 1_555
C13_14 C12_14 1_555 1_555
C14_14 C13_14 1_555 1_555
C15_14 C14_14 1_555 1_555
H16_14 C15_14 1_555 1_555
H17_14 C15_14 1_555 1_555
H18_14 C15_14 1_555 1_555
C21_14 H25_14 1_555 1_555
H26_14 C21_14 1_555 1_555
H27_14 C21_14 1_555 1_555
C22_14 N9_14 1_555 1_555
C23_14 C22_14 1_555 1_555
C24_14 C23_14 1_555 1_555
C25_14 C24_14 1_555 1_555
H28_14 C25_14 1_555 1_555
H29_14 C25_14 1_555 1_555
H30_14 C25_14 1_555 1_555
C26_14 H31_14 1_555 1_555
H32_14 C26_14 1_555 1_555
H33_14 C26_14 1_555 1_555
C31_14 H37_14 1_555 1_555
H38_14 C31_14 1_555 1_555
H39_14 C31_14 1_555 1_555
C32_14 N13_14 1_555 1_555
C33_14 C23_14 1_555 1_555
C34_14 C33_14 1_555 1_555
C35_14 C34_14 1_555 1_555
H40_14 C35_14 1_555 1_555
H41_14 C35_14 1_555 1_555
H42_14 C35_14 1_555 1_555
C36_14 H43_14 1_555 1_555
H44_14 C36_14 1_555 1_555
H45_14 C36_14 1_555 1_555
C37_14 N15_14 1_555 1_555
C38_14 C37_14 1_555 1_555
C39_14 N16_14 1_555 1_555
C40_14 C39_14 1_555 1_555
H46_14 C40_14 1_555 1_555
H47_14 C40_14 1_555 1_555
H48_14 C40_14 1_555 1_555
C41_14 H49_14 1_555 1_555
H50_14 C41_14 1_555 1_555
H51_14 C41_14 1_555 1_555
C42_14 N17_14 1_555 1_555
C43_14 C42_14 1_555 1_555
C44_14 N18_14 1_555 1_555
C45_14 C44_14 1_555 1_555
H52_14 C45_14 1_555 1_555
H53_14 C45_14 1_555 1_555
H54_14 C45_14 1_555 1_555
C56_14 H67_14 1_555 1_555
H68_14 C56_14 1_555 1_555
H69_14 C56_14 1_555 1_555
C57_14 N23_14 1_555 1_555
C58_14 C43_14 1_555 1_555
C59_14 C58_14 1_555 1_555
C60_14 C59_14 1_555 1_555
H70_14 C60_14 1_555 1_555
H71_14 C60_14 1_555 1_555
H72_14 C60_14 1_555 1_555
C76_14 H91_14 1_555 1_555
H92_14 C76_14 1_555 1_555
H93_14 C76_14 1_555 1_555
C77_14 N31_14 1_555 1_555
C78_14 C13_14 1_555 1_555
C79_14 C78_14 1_555 1_555
C80_14 C79_14 1_555 1_555
H94_14 C80_14 1_555 1_555
H95_14 C80_14 1_555 1_555
H96_14 C80_14 1_555 1_555
C81_14 H97_14 1_555 1_555
H98_14 C81_14 1_555 1_555
H99_14 C81_14 1_555 1_555
C82_14 N33_14 1_555 1_555
C83_14 C38_14 1_555 1_555
C84_14 N34_14 1_555 1_555
C85_14 C84_14 1_555 1_555
H100_14 C85_14 1_555 1_555
H101_14 C85_14 1_555 1_555
H102_14 C85_14 1_555 1_555
C86_14 H103_14 1_555 1_555
H104_14 C86_14 1_555 1_555
H105_14 C86_14 1_555 1_555
C87_14 N35_14 1_555 1_555
C88_14 C3_14 1_555 1_555
C89_14 N36_14 1_555 1_555
C90_14 C89_14 1_555 1_555
H106_14 C90_14 1_555 1_555
H107_14 C90_14 1_555 1_555
H108_14 C90_14 1_555 1_555
Ag19_8 N6_8 1_555 1_555
N39_8 Ag5_8 1_555 1_555
N40_8 Ag6_8 1_555 1_555
N41_8 Ag10_8 1_555 1_555
N17_14 N18_14 1_555 1_555
N35_14 N36_14 1_555 1_555
C1_14 C2_14 1_555 1_555
C6_14 C7_14 1_555 1_555
C8_14 C9_14 1_555 1_555
C11_14 C12_14 1_555 1_555
C21_14 C22_14 1_555 1_555
C26_14 C27_14 1_555 1_555
C31_14 C32_14 1_555 1_555
C32_14 C33_14 1_555 1_555
C36_14 C37_14 1_555 1_555
C38_14 C39_14 1_555 1_555
C41_14 C42_14 1_555 1_555
C43_14 C44_14 1_555 1_555
C56_14 C57_14 1_555 1_555
C57_14 C58_14 1_555 1_555
C76_14 C77_14 1_555 1_555
C77_14 C78_14 1_555 1_555
C81_14 C82_14 1_555 1_555
C82_14 C83_14 1_555 1_555
C83_14 C84_14 1_555 1_555
C86_14 C87_14 1_555 1_555
C87_14 C88_14 1_555 1_555
C88_14 C89_14 1_555 1_555
Ag4_14 N7_14 1_555 1_555
Ag24_7 N20_14 1_555 1_555
Ag13_14 N25_14 1_555 1_555
Ag14_14 N26_14 1_555 1_555
Ag15_14 N28_14 1_555 1_555
N7_14 N8_8 1_555 1_555
N8_8 C19_14 1_555 1_555
N11_8 N12_14 1_555 1_555
N12_14 Ag4_14 1_555 1_555
N19_8 N20_14 1_555 1_555
N20_14 C49_14 1_555 1_555
N42_7 N22_8 1_555 1_555
N22_8 C54_14 1_555 1_555
N25_14 N26_14 1_555 1_555
N26_14 C64_14 1_555 1_555
N27_14 Ag14_14 1_555 1_555
N28_14 N27_14 1_555 1_555
N29_14 Ag15_14 1_555 1_555
N30_14 Ag13_14 1_555 1_555
C16_14 H19_14 1_555 1_555
H20_14 C16_14 1_555 1_555
H21_14 C16_14 1_555 1_555
C17_14 N7_14 1_555 1_555
C18_14 C17_14 1_555 1_555
C19_14 C18_14 1_555 1_555
C20_14 C19_14 1_555 1_555
H22_14 C20_14 1_555 1_555
H23_14 C20_14 1_555 1_555
H24_14 C20_14 1_555 1_555
C29_14 N12_14 1_555 1_555
C30_14 C29_14 1_555 1_555
H34_14 C30_14 1_555 1_555
H35_14 C30_14 1_555 1_555
H36_14 C30_14 1_555 1_555
C46_14 H55_14 1_555 1_555
H56_14 C46_14 1_555 1_555
H57_14 C46_14 1_555 1_555
C47_14 N19_8 1_555 1_555
C48_14 C47_14 1_555 1_555
C49_14 C48_14 1_555 1_555
C50_14 C49_14 1_555 1_555
H58_14 C50_14 1_555 1_555
H59_14 C50_14 1_555 1_555
H60_14 C50_14 1_555 1_555
C51_14 H61_14 1_555 1_555
H62_14 C51_14 1_555 1_555
H63_14 C51_14 1_555 1_555
C52_14 N42_7 1_555 1_555
C53_14 C52_14 1_555 1_555
C54_14 C53_14 1_555 1_555
C55_14 C54_14 1_555 1_555
H64_14 C55_14 1_555 1_555
H65_14 C55_14 1_555 1_555
H66_14 C55_14 1_555 1_555
C61_14 H73_14 1_555 1_555
H74_14 C61_14 1_555 1_555
H75_14 C61_14 1_555 1_555
C62_14 N25_14 1_555 1_555
C63_14 C53_14 1_555 1_555
C64_14 C63_14 1_555 1_555
C65_14 C64_14 1_555 1_555
H76_14 C65_14 1_555 1_555
H77_14 C65_14 1_555 1_555
H78_14 C65_14 1_555 1_555
C66_14 H79_14 1_555 1_555
H80_14 C66_14 1_555 1_555
H81_14 C66_14 1_555 1_555
C67_14 N27_14 1_555 1_555
C68_14 C18_14 1_555 1_555
C69_14 N28_14 1_555 1_555
C70_14 C69_14 1_555 1_555
H82_14 C70_14 1_555 1_555
H83_14 C70_14 1_555 1_555
H84_14 C70_14 1_555 1_555
C71_14 H85_14 1_555 1_555
H86_14 C71_14 1_555 1_555
H87_14 C71_14 1_555 1_555
C72_14 N29_14 1_555 1_555
C73_14 C48_14 1_555 1_555
C74_14 N30_14 1_555 1_555
C75_14 C74_14 1_555 1_555
H88_14 C75_14 1_555 1_555
H89_14 C75_14 1_555 1_555
H90_14 C75_14 1_555 1_555
Ag21_8 N8_8 1_555 1_555
Ag22_8 N11_8 1_555 1_555
Ag23_8 N19_8 1_555 1_555
Ag25_8 N22_8 1_555 1_555
N29_14 N30_14 1_555 1_555
C16_14 C17_14 1_555 1_555
C28_14 C29_14 1_555 1_555
C46_14 C47_14 1_555 1_555
C51_14 C52_14 1_555 1_555
C61_14 C62_14 1_555 1_555
C62_14 C63_14 1_555 1_555
C66_14 C67_14 1_555 1_555
C67_14 C68_14 1_555 1_555
C68_14 C69_14 1_555 1_555
C71_14 C72_14 1_555 1_555
C72_14 C73_14 1_555 1_555
C73_14 C74_14 1_555 1_555
N38_8 Ag1_8 1_555 1_555
Ag2_15 N2_15 1_555 1_555
Ag4_15 N7_15 1_555 1_555
Ag7_15 N13_15 1_555 1_555
Ag8_15 N14_15 1_555 1_555
Ag9_15 N16_15 1_555 1_555
Ag11_8 N20_15 1_555 1_555
Ag13_15 N25_15 1_555 1_555
Ag14_15 N26_15 1_555 1_555
Ag15_15 N28_15 1_555 1_555
Ag18_15 N34_15 1_555 1_555
N1_15 N2_15 1_555 1_555
N2_15 C4_15 1_555 1_555
N3_15 Ag2_15 1_555 1_555
N37_8 N3_15 1_555 1_555
N7_15 N39_8 1_555 1_555
N39_8 C19_15 1_555 1_555
N40_8 N12_15 1_555 1_555
N12_15 Ag4_15 1_555 1_555
N13_15 N14_15 1_555 1_555
N14_15 C34_15 1_555 1_555
N15_15 Ag8_15 1_555 1_555
N16_15 N15_15 1_555 1_555
N17_15 Ag9_15 1_555 1_555
N18_15 Ag7_15 1_555 1_555
N41_7 N20_15 1_555 1_555
N20_15 C49_15 1_555 1_555
N21_8 N43_8 1_555 1_555
N43_8 C54_15 1_555 1_555
N25_15 N26_15 1_555 1_555
N26_15 C64_15 1_555 1_555
N27_15 Ag14_15 1_555 1_555
N28_15 N27_15 1_555 1_555
N29_15 Ag15_15 1_555 1_555
N30_15 Ag13_15 1_555 1_555
N33_15 Ag17_15 1_555 1_555
N34_15 N33_15 1_555 1_555
N35_15 Ag18_15 1_555 1_555
N36_15 Ag16_15 1_555 1_555
H3_15 C1_15 1_555 1_555
C2_15 N1_15 1_555 1_555
C3_15 C2_15 1_555 1_555
C4_15 C3_15 1_555 1_555
C5_15 C4_15 1_555 1_555
H4_15 C5_15 1_555 1_555
H5_15 C5_15 1_555 1_555
H6_15 C5_15 1_555 1_555
C6_15 H7_15 1_555 1_555
H8_15 C6_15 1_555 1_555
H9_15 C6_15 1_555 1_555
C7_15 N3_15 1_555 1_555
C8_15 C7_15 1_555 1_555
C9_15 N37_8 1_555 1_555
C10_15 C9_15 1_555 1_555
H10_15 C10_15 1_555 1_555
H11_15 C10_15 1_555 1_555
H12_15 C10_15 1_555 1_555
C16_15 H19_15 1_555 1_555
H20_15 C16_15 1_555 1_555
H21_15 C16_15 1_555 1_555
C17_15 N7_15 1_555 1_555
C18_15 C17_15 1_555 1_555
C19_15 C18_15 1_555 1_555
C20_15 C19_15 1_555 1_555
H22_15 C20_15 1_555 1_555
H23_15 C20_15 1_555 1_555
H24_15 C20_15 1_555 1_555
C24_15 C23_15 1_555 1_555
C25_15 C24_15 1_555 1_555
H28_15 C25_15 1_555 1_555
H29_15 C25_15 1_555 1_555
H30_15 C25_15 1_555 1_555
C26_15 H31_15 1_555 1_555
H32_15 C26_15 1_555 1_555
H33_15 C26_15 1_555 1_555
C27_15 N40_8 1_555 1_555
C28_15 C8_15 1_555 1_555
C29_15 N12_15 1_555 1_555
C30_15 C29_15 1_555 1_555
H34_15 C30_15 1_555 1_555
H35_15 C30_15 1_555 1_555
H36_15 C30_15 1_555 1_555
C32_15 N13_15 1_555 1_555
C33_15 C23_15 1_555 1_555
C34_15 C33_15 1_555 1_555
C35_15 C34_15 1_555 1_555
H40_15 C35_15 1_555 1_555
H41_15 C35_15 1_555 1_555
H42_15 C35_15 1_555 1_555
C36_15 H43_15 1_555 1_555
H44_15 C36_15 1_555 1_555
H45_15 C36_15 1_555 1_555
C37_15 N15_15 1_555 1_555
C38_15 C37_15 1_555 1_555
C39_15 N16_15 1_555 1_555
C40_15 C39_15 1_555 1_555
H46_15 C40_15 1_555 1_555
H47_15 C40_15 1_555 1_555
H48_15 C40_15 1_555 1_555
C41_15 H49_15 1_555 1_555
H50_15 C41_15 1_555 1_555
H51_15 C41_15 1_555 1_555
C42_15 N17_15 1_555 1_555
C43_15 C42_15 1_555 1_555
C44_15 N18_15 1_555 1_555
C46_15 H55_15 1_555 1_555
H56_15 C46_15 1_555 1_555
H57_15 C46_15 1_555 1_555
C47_15 N41_7 1_555 1_555
C48_15 C47_15 1_555 1_555
C49_15 C48_15 1_555 1_555
C50_15 C49_15 1_555 1_555
H58_15 C50_15 1_555 1_555
H59_15 C50_15 1_555 1_555
H60_15 C50_15 1_555 1_555
C51_15 H61_15 1_555 1_555
H62_15 C51_15 1_555 1_555
H63_15 C51_15 1_555 1_555
C52_15 N21_8 1_555 1_555
C53_15 C52_15 1_555 1_555
C54_15 C53_15 1_555 1_555
C55_15 C54_15 1_555 1_555
H64_15 C55_15 1_555 1_555
H65_15 C55_15 1_555 1_555
H66_15 C55_15 1_555 1_555
C61_15 H73_15 1_555 1_555
H74_15 C61_15 1_555 1_555
H75_15 C61_15 1_555 1_555
C62_15 N25_15 1_555 1_555
C63_15 C53_15 1_555 1_555
C64_15 C63_15 1_555 1_555
C65_15 C64_15 1_555 1_555
H76_15 C65_15 1_555 1_555
H77_15 C65_15 1_555 1_555
H78_15 C65_15 1_555 1_555
C66_15 H79_15 1_555 1_555
H80_15 C66_15 1_555 1_555
H81_15 C66_15 1_555 1_555
C67_15 N27_15 1_555 1_555
C68_15 C18_15 1_555 1_555
C69_15 N28_15 1_555 1_555
C70_15 C69_15 1_555 1_555
H82_15 C70_15 1_555 1_555
H83_15 C70_15 1_555 1_555
H84_15 C70_15 1_555 1_555
C71_15 H85_15 1_555 1_555
H86_15 C71_15 1_555 1_555
H87_15 C71_15 1_555 1_555
C72_15 N29_15 1_555 1_555
C73_15 C48_15 1_555 1_555
C74_15 N30_15 1_555 1_555
C75_15 C74_15 1_555 1_555
H88_15 C75_15 1_555 1_555
H89_15 C75_15 1_555 1_555
H90_15 C75_15 1_555 1_555
C81_15 H97_15 1_555 1_555
H98_15 C81_15 1_555 1_555
H99_15 C81_15 1_555 1_555
C82_15 N33_15 1_555 1_555
C83_15 C38_15 1_555 1_555
C84_15 N34_15 1_555 1_555
C85_15 C84_15 1_555 1_555
H100_15 C85_15 1_555 1_555
H101_15 C85_15 1_555 1_555
H102_15 C85_15 1_555 1_555
C86_15 H103_15 1_555 1_555
H104_15 C86_15 1_555 1_555
H105_15 C86_15 1_555 1_555
C87_15 N35_15 1_555 1_555
C88_15 C3_15 1_555 1_555
C89_15 N36_15 1_555 1_555
C90_15 C89_15 1_555 1_555
H106_15 C90_15 1_555 1_555
H107_15 C90_15 1_555 1_555
H108_15 C90_15 1_555 1_555
N17_15 N18_15 1_555 1_555
N29_15 N30_15 1_555 1_555
N35_15 N36_15 1_555 1_555
C1_15 C2_15 1_555 1_555
C6_15 C7_15 1_555 1_555
C8_15 C9_15 1_555 1_555
C16_15 C17_15 1_555 1_555
C26_15 C27_15 1_555 1_555
C27_15 C28_15 1_555 1_555
C28_15 C29_15 1_555 1_555
C32_15 C33_15 1_555 1_555
C36_15 C37_15 1_555 1_555
C38_15 C39_15 1_555 1_555
C41_15 C42_15 1_555 1_555
C43_15 C44_15 1_555 1_555
C46_15 C47_15 1_555 1_555
C51_15 C52_15 1_555 1_555
C61_15 C62_15 1_555 1_555
C62_15 C63_15 1_555 1_555
C66_15 C67_15 1_555 1_555
C67_15 C68_15 1_555 1_555
C68_15 C69_15 1_555 1_555
C71_15 C72_15 1_555 1_555
C72_15 C73_15 1_555 1_555
C73_15 C74_15 1_555 1_555
C81_15 C82_15 1_555 1_555
C82_15 C83_15 1_555 1_555
C83_15 C84_15 1_555 1_555
C86_15 C87_15 1_555 1_555
C87_15 C88_15 1_555 1_555
C88_15 C89_15 1_555 1_555
Ag23_7 N24_15 1_555 1_555
Ag25_8 N23_15 1_555 1_555
N9_15 N10_15 1_555 1_555
N23_15 N24_15 1_555 1_555
N24_15 C59_15 1_555 1_555
C21_15 H25_15 1_555 1_555
H26_15 C21_15 1_555 1_555
H27_15 C21_15 1_555 1_555
C22_15 N9_15 1_555 1_555
C31_15 H37_15 1_555 1_555
H39_15 C31_15 1_555 1_555
H52_15 C45_15 1_555 1_555
H53_15 C45_15 1_555 1_555
H54_15 C45_15 1_555 1_555
C56_15 H67_15 1_555 1_555
H68_15 C56_15 1_555 1_555
H69_15 C56_15 1_555 1_555
C57_15 N23_15 1_555 1_555
C59_15 C58_15 1_555 1_555
C60_15 C59_15 1_555 1_555
H70_15 C60_15 1_555 1_555
H72_15 C60_15 1_555 1_555
C21_15 C22_15 1_555 1_555
C56_15 C57_15 1_555 1_555
C57_15 C58_15 1_555 1_555
Ag20_8 N5_15 1_555 1_555
N5_15 N38_8 1_555 1_555
N38_8 C14_15 1_555 1_555
N31_15 N32_15 1_555 1_555
N32_15 C79_15 1_555 1_555
C11_15 H13_15 1_555 1_555
H14_15 C11_15 1_555 1_555
H15_15 C11_15 1_555 1_555
C12_15 N5_15 1_555 1_555
C13_15 C12_15 1_555 1_555
C14_15 C13_15 1_555 1_555
C15_15 C14_15 1_555 1_555
H16_15 C15_15 1_555 1_555
H17_15 C15_15 1_555 1_555
H18_15 C15_15 1_555 1_555
C76_15 H91_15 1_555 1_555
H92_15 C76_15 1_555 1_555
H93_15 C76_15 1_555 1_555
C77_15 N31_15 1_555 1_555
C78_15 C13_15 1_555 1_555
C79_15 C78_15 1_555 1_555
C80_15 C79_15 1_555 1_555
H94_15 C80_15 1_555 1_555
H95_15 C80_15 1_555 1_555
H96_15 C80_15 1_555 1_555
C11_15 C12_15 1_555 1_555
C76_15 C77_15 1_555 1_555
C77_15 C78_15 1_555 1_555
Ag20_7 N5_16 1_555 1_555
N5_16 N38_7 1_555 1_555
N38_7 C14_16 1_555 1_555
N31_16 N32_16 1_555 1_555
N32_16 C79_16 1_555 1_555
C11_16 H13_16 1_555 1_555
H14_16 C11_16 1_555 1_555
H15_16 C11_16 1_555 1_555
C12_16 N5_16 1_555 1_555
C13_16 C12_16 1_555 1_555
C14_16 C13_16 1_555 1_555
C15_16 C14_16 1_555 1_555
H16_16 C15_16 1_555 1_555
H17_16 C15_16 1_555 1_555
H18_16 C15_16 1_555 1_555
C76_16 H91_16 1_555 1_555
H92_16 C76_16 1_555 1_555
H93_16 C76_16 1_555 1_555
C77_16 N31_16 1_555 1_555
C78_16 C13_16 1_555 1_555
C79_16 C78_16 1_555 1_555
C80_16 C79_16 1_555 1_555
H94_16 C80_16 1_555 1_555
H95_16 C80_16 1_555 1_555
H96_16 C80_16 1_555 1_555
C11_16 C12_16 1_555 1_555
C76_16 C77_16 1_555 1_555
C77_16 C78_16 1_555 1_555
Ag19_7 N1_16 1_555 1_555
Ag2_16 N2_16 1_555 1_555
Ag4_16 N7_16 1_555 1_555
Ag9_16 N16_16 1_555 1_555
Ag23_8 N24_16 1_555 1_555
Ag24_8 N20_16 1_555 1_555
Ag25_7 N23_16 1_555 1_555
Ag15_16 N28_16 1_555 1_555
Ag18_16 N34_16 1_555 1_555
N1_16 N2_16 1_555 1_555
N2_16 C4_16 1_555 1_555
N3_16 Ag2_16 1_555 1_555
N37_7 N3_16 1_555 1_555
N7_16 N39_7 1_555 1_555
N39_7 C19_16 1_555 1_555
N40_7 N12_16 1_555 1_555
N12_16 Ag4_16 1_555 1_555
N16_16 N15_16 1_555 1_555
N17_16 Ag9_16 1_555 1_555
N41_8 N20_16 1_555 1_555
N20_16 C49_16 1_555 1_555
N23_16 N24_16 1_555 1_555
N24_16 C59_16 1_555 1_555
N28_16 N27_16 1_555 1_555
N29_16 Ag15_16 1_555 1_555
N30_16 Ag13_16 1_555 1_555
N33_16 Ag17_16 1_555 1_555
N34_16 N33_16 1_555 1_555
N35_16 Ag18_16 1_555 1_555
N36_16 Ag16_16 1_555 1_555
C1_16 H1_16 1_555 1_555
H2_16 C1_16 1_555 1_555
H3_16 C1_16 1_555 1_555
C2_16 N1_16 1_555 1_555
C3_16 C2_16 1_555 1_555
C4_16 C3_16 1_555 1_555
C5_16 C4_16 1_555 1_555
H4_16 C5_16 1_555 1_555
H5_16 C5_16 1_555 1_555
H6_16 C5_16 1_555 1_555
C6_16 H7_16 1_555 1_555
H8_16 C6_16 1_555 1_555
H9_16 C6_16 1_555 1_555
C7_16 N3_16 1_555 1_555
C8_16 C7_16 1_555 1_555
C9_16 N37_7 1_555 1_555
C10_16 C9_16 1_555 1_555
H10_16 C10_16 1_555 1_555
H11_16 C10_16 1_555 1_555
H12_16 C10_16 1_555 1_555
C16_16 H19_16 1_555 1_555
H20_16 C16_16 1_555 1_555
H21_16 C16_16 1_555 1_555
C17_16 N7_16 1_555 1_555
C18_16 C17_16 1_555 1_555
C19_16 C18_16 1_555 1_555
C20_16 C19_16 1_555 1_555
H22_16 C20_16 1_555 1_555
H23_16 C20_16 1_555 1_555
H24_16 C20_16 1_555 1_555
C26_16 H31_16 1_555 1_555
H32_16 C26_16 1_555 1_555
H33_16 C26_16 1_555 1_555
C27_16 N40_7 1_555 1_555
C28_16 C8_16 1_555 1_555
C29_16 N12_16 1_555 1_555
C30_16 C29_16 1_555 1_555
H34_16 C30_16 1_555 1_555
H35_16 C30_16 1_555 1_555
H36_16 C30_16 1_555 1_555
C36_16 H43_16 1_555 1_555
H44_16 C36_16 1_555 1_555
H45_16 C36_16 1_555 1_555
C37_16 N15_16 1_555 1_555
C38_16 C37_16 1_555 1_555
C39_16 N16_16 1_555 1_555
C40_16 C39_16 1_555 1_555
H46_16 C40_16 1_555 1_555
H47_16 C40_16 1_555 1_555
H48_16 C40_16 1_555 1_555
C41_16 H49_16 1_555 1_555
H50_16 C41_16 1_555 1_555
H51_16 C41_16 1_555 1_555
C42_16 N17_16 1_555 1_555
C43_16 C42_16 1_555 1_555
C44_16 N18_16 1_555 1_555
C46_16 H55_16 1_555 1_555
H56_16 C46_16 1_555 1_555
H57_16 C46_16 1_555 1_555
C47_16 N41_8 1_555 1_555
C48_16 C47_16 1_555 1_555
C49_16 C48_16 1_555 1_555
C50_16 C49_16 1_555 1_555
H58_16 C50_16 1_555 1_555
H59_16 C50_16 1_555 1_555
H60_16 C50_16 1_555 1_555
C56_16 H67_16 1_555 1_555
H68_16 C56_16 1_555 1_555
H69_16 C56_16 1_555 1_555
C57_16 N23_16 1_555 1_555
C58_16 C43_16 1_555 1_555
C59_16 C58_16 1_555 1_555
C60_16 C59_16 1_555 1_555
H70_16 C60_16 1_555 1_555
H71_16 C60_16 1_555 1_555
H72_16 C60_16 1_555 1_555
H81_16 C66_16 1_555 1_555
C67_16 N27_16 1_555 1_555
C68_16 C18_16 1_555 1_555
C69_16 N28_16 1_555 1_555
C70_16 C69_16 1_555 1_555
H82_16 C70_16 1_555 1_555
H83_16 C70_16 1_555 1_555
H84_16 C70_16 1_555 1_555
C71_16 H85_16 1_555 1_555
H86_16 C71_16 1_555 1_555
H87_16 C71_16 1_555 1_555
C72_16 N29_16 1_555 1_555
C73_16 C48_16 1_555 1_555
C74_16 N30_16 1_555 1_555
C75_16 C74_16 1_555 1_555
H88_16 C75_16 1_555 1_555
H89_16 C75_16 1_555 1_555
H90_16 C75_16 1_555 1_555
C81_16 H97_16 1_555 1_555
H98_16 C81_16 1_555 1_555
H99_16 C81_16 1_555 1_555
C82_16 N33_16 1_555 1_555
C83_16 C38_16 1_555 1_555
C84_16 N34_16 1_555 1_555
C85_16 C84_16 1_555 1_555
H100_16 C85_16 1_555 1_555
H101_16 C85_16 1_555 1_555
H102_16 C85_16 1_555 1_555
C86_16 H103_16 1_555 1_555
H104_16 C86_16 1_555 1_555
H105_16 C86_16 1_555 1_555
C87_16 N35_16 1_555 1_555
C88_16 C3_16 1_555 1_555
C89_16 N36_16 1_555 1_555
C90_16 C89_16 1_555 1_555
H106_16 C90_16 1_555 1_555
H107_16 C90_16 1_555 1_555
H108_16 C90_16 1_555 1_555
N17_16 N18_16 1_555 1_555
N29_16 N30_16 1_555 1_555
N35_16 N36_16 1_555 1_555
C1_16 C2_16 1_555 1_555
C6_16 C7_16 1_555 1_555
C8_16 C9_16 1_555 1_555
C16_16 C17_16 1_555 1_555
C26_16 C27_16 1_555 1_555
C27_16 C28_16 1_555 1_555
C28_16 C29_16 1_555 1_555
C36_16 C37_16 1_555 1_555
C38_16 C39_16 1_555 1_555
C41_16 C42_16 1_555 1_555
C43_16 C44_16 1_555 1_555
C46_16 C47_16 1_555 1_555
C56_16 C57_16 1_555 1_555
C57_16 C58_16 1_555 1_555
C66_16 C67_16 1_555 1_555
C67_16 C68_16 1_555 1_555
C68_16 C69_16 1_555 1_555
C71_16 C72_16 1_555 1_555
C72_16 C73_16 1_555 1_555
C73_16 C74_16 1_555 1_555
C81_16 C82_16 1_555 1_555
C82_16 C83_16 1_555 1_555
C83_16 C84_16 1_555 1_555
C86_16 C87_16 1_555 1_555
C87_16 C88_16 1_555 1_555
C88_16 C89_16 1_555 1_555
Ag7_16 N13_16 1_555 1_555
Ag8_16 N14_16 1_555 1_555
Ag14_16 N26_16 1_555 1_555
N9_16 N10_16 1_555 1_555
N10_16 C24_16 1_555 1_555
N13_16 N14_16 1_555 1_555
N14_16 C34_16 1_555 1_555
N42_8 N43_7 1_555 1_555
N43_7 C54_16 1_555 1_555
N25_16 N26_16 1_555 1_555
N26_16 C64_16 1_555 1_555
C21_16 H25_16 1_555 1_555
H26_16 C21_16 1_555 1_555
H27_16 C21_16 1_555 1_555
C22_16 N9_16 1_555 1_555
C23_16 C22_16 1_555 1_555
C24_16 C23_16 1_555 1_555
C25_16 C24_16 1_555 1_555
H28_16 C25_16 1_555 1_555
H29_16 C25_16 1_555 1_555
H30_16 C25_16 1_555 1_555
C31_16 H37_16 1_555 1_555
H38_16 C31_16 1_555 1_555
H39_16 C31_16 1_555 1_555
C32_16 N13_16 1_555 1_555
C33_16 C23_16 1_555 1_555
C34_16 C33_16 1_555 1_555
C35_16 C34_16 1_555 1_555
H40_16 C35_16 1_555 1_555
H41_16 C35_16 1_555 1_555
H42_16 C35_16 1_555 1_555
H52_16 C45_16 1_555 1_555
H54_16 C45_16 1_555 1_555
C51_16 H61_16 1_555 1_555
H62_16 C51_16 1_555 1_555
H63_16 C51_16 1_555 1_555
C52_16 N42_8 1_555 1_555
C53_16 C52_16 1_555 1_555
C54_16 C53_16 1_555 1_555
C55_16 C54_16 1_555 1_555
H64_16 C55_16 1_555 1_555
H65_16 C55_16 1_555 1_555
H66_16 C55_16 1_555 1_555
C61_16 H73_16 1_555 1_555
H74_16 C61_16 1_555 1_555
H75_16 C61_16 1_555 1_555
C62_16 N25_16 1_555 1_555
C63_16 C53_16 1_555 1_555
C64_16 C63_16 1_555 1_555
C65_16 C64_16 1_555 1_555
H76_16 C65_16 1_555 1_555
H77_16 C65_16 1_555 1_555
H78_16 C65_16 1_555 1_555
C21_16 C22_16 1_555 1_555
C31_16 C32_16 1_555 1_555
C32_16 C33_16 1_555 1_555
C51_16 C52_16 1_555 1_555
C61_16 C62_16 1_555 1_555
C62_16 C63_16 1_555 1_555

#END
