
###############################################################################
#
# This file contains modified crystal structure data generated from the
# MOF subset of the Cambridge Structural Database (CSD) v543 
# hosted by the Cambridge Crystallographic Data Centre (CCDC).
#
# This work is licensed under the Creative Commons
# Attribution-NonCommercial-ShareAlike 4.0 International License.
# To view a copy of this license, visit
# http://creativecommons.org/licenses/by-nc-sa/4.0/
# or send a letter to
# Creative Commons, PO Box 1866, Mountain View, CA 94042, USA.
#
# CIF created using the CSD Python API on 29 September 2022
# The structure has been converted into the P1 space group
# The structure has a 3D framework
# The original CSD entry MIYHAE is in the orthorhombic crystal system
# The framework has been calculated to contain at least 10.0% void space
# The void calculation uses a probe of radius 1.32A, grid spacing 0.4
#
###############################################################################

data_MIYHAE
_chemical_formula_moiety         '(C968 H1152 Ag172 N382)n'
_symmetry_cell_setting           triclinic
_symmetry_space_group_name_H-M   'P 1'
_symmetry_Int_Tables_number      1
_space_group_name_Hall           'P 1'
loop_
_symmetry_equiv_pos_site_id
_symmetry_equiv_pos_as_xyz
1 x,y,z
_cell_length_a                   19.2056(5)
_cell_length_b                   47.9669(16)
_cell_length_c                   36.2063(9)
_cell_angle_alpha                90
_cell_angle_beta                 90
_cell_angle_gamma                90
_cell_volume                     33354.4
loop_
_atom_site_label
_atom_site_type_symbol
_atom_site_fract_x
_atom_site_fract_y
_atom_site_fract_z
C16 C 0.0056(4) 0.9399(2) 0.8650(2)
H19 H 0.0443 0.9489 0.8774
H21 H 0.0223 0.9235 0.8519
Ag14 Ag 0.03396(3) 0.959150(13) 0.957270(13)
N26 N 0.1114(3) 0.97935(14) 0.98501(15)
C54 C 0.1779(3) 0.98260(16) 0.97599(17)
C55 C 0.2039(4) 0.9715(2) 0.9394(2)
H64 H 0.1812 0.9539 0.9341
H65 H 0.2539 0.9686 0.9407
H66 H 0.1934 0.9847 0.9200
C21 C 0.3309(4) 0.01297(17) 0.56913(18)
H25 H 0.3757 0.0203 0.5769
H26 H 0.2970 0.0280 0.5685
C22 C 0.3375(3) 0.00045(15) 0.53142(16)
Ag12 Ag 0.01208(3) 0.020970(12) 0.547090(13)
Ag15 Ag 0.03396(3) 0.040850(13) 0.457270(13)
N24 N 0.1015(3) 0.00917(13) 0.51942(13)
N26_2 N 0.1114(3) 0.02065(14) 0.48501(15)
H63 H 0.1842 0.0012 0.5865
C53 C 0.2132(3) 0.00375(15) 0.50461(17)
C54_2 C 0.1779(3) 0.01740(16) 0.47599(17)
C55_2 C 0.2039(4) 0.0285(2) 0.4394(2)
H64_2 H 0.1812 0.0461 0.4341
H65_2 H 0.2539 0.0314 0.4407
H66_2 H 0.1934 0.0153 0.4200
Ag16 Ag 0.89562(3) 0.935150(14) 0.002890(13)
N23 N 0.5944(3) 0.57372(14) 0.05287(14)
N28 N 0.8921(3) 0.94062(14) 0.05959(14)
Ag1 Ag 0.66143(3) 0.847470(11) 0.722020(14)
Ag2 Ag 0.72862(3) 0.908400(11) 0.758150(13)
Ag3 Ag 0.80731(3) 0.846730(11) 0.773260(14)
Ag4 Ag 0.48792(3) 0.979030(12) 0.547090(13)
Ag5 Ag 0.46604(3) 0.959150(13) 0.457270(13)
Ag6 Ag 0.60438(3) 0.935150(14) 0.502890(13)
N1 N 0.7020(3) 0.80942(11) 0.73715(15)
N2 N 0.7646(3) 0.80974(11) 0.75516(14)
N3 N 0.6369(3) 0.88556(11) 0.69907(14)
N4 N 0.6656(3) 0.90986(11) 0.71218(13)
N5 N 0.7995(3) 0.90550(12) 0.80064(14)
N6 N 0.8377(3) 0.88128(12) 0.80311(14)
C1 C 0.6175(4) 0.77554(16) 0.7128(2)
H1 H 0.6120 0.7880 0.6919
H2 H 0.5781 0.7776 0.7293
H3 H 0.6199 0.7564 0.7041
C2 C 0.6828(3) 0.78257(13) 0.73287(18)
C3 C 0.7321(3) 0.76513(12) 0.74897(17)
C4 C 0.7821(3) 0.78323(13) 0.76265(17)
C5 C 0.8482(4) 0.77702(15) 0.78227(19)
H4 H 0.8530 0.7894 0.8033
H5 H 0.8872 0.7798 0.7656
H6 H 0.8478 0.7578 0.7907
C6 C 0.5803(4) 0.86827(16) 0.6428(2)
H7 H 0.5497 0.8575 0.6587
H8 H 0.6154 0.8561 0.6323
H9 H 0.5534 0.8767 0.6231
C7 C 0.6149(3) 0.89054(13) 0.66492(16)
C8 C 0.6280(3) 0.91796(13) 0.65523(15)
C9 C 0.6598(3) 0.92952(13) 0.68601(16)
C10 C 0.6848(5) 0.95829(14) 0.6925(2)
H10 H 0.7150 0.9586 0.7139
H11 H 0.6452 0.9705 0.6967
H12 H 0.7104 0.9647 0.6710
C11 C 0.7825(5) 0.94938(15) 0.8349(2)
H13 H 0.7538 0.9538 0.8136
H14 H 0.8190 0.9632 0.8373
H15 H 0.7539 0.9494 0.8570
C12 C 0.8141(4) 0.92151(14) 0.82993(16)
C13 C 0.8614(3) 0.90762(14) 0.85227(16)
C14 C 0.8752(4) 0.88294(15) 0.83448(17)
C15 C 0.9229(4) 0.85997(18) 0.8456(2)
H16 H 0.9227 0.8456 0.8267
H17 H 0.9073 0.8521 0.8688
H18 H 0.9697 0.8672 0.8485
N7 N 0.9613(3) 0.93662(13) 0.92873(14)
N8 N 0.9056(3) 0.92628(14) 0.94713(14)
H20 H 0.9849 0.9528 0.8476
C17 C 0.9527(4) 0.93139(15) 0.89265(16)
C18 C 0.8912(3) 0.91743(14) 0.88731(16)
C19 C 0.8633(4) 0.91422(17) 0.92243(17)
C20 C 0.7956(5) 0.9011(3) 0.9339(2)
H22 H 0.7990 0.8948 0.9593
H23 H 0.7858 0.8852 0.9181
H24 H 0.7584 0.9146 0.9317
N9 N 0.3985(3) 0.99083(13) 0.51942(13)
N10 N 0.3886(3) 0.97935(14) 0.48501(15)
H27 H 0.3158 0.9988 0.5865
C23 C 0.2868(3) 0.99625(15) 0.50461(17)
C24 C 0.3221(3) 0.98260(16) 0.47599(17)
C25 C 0.2961(4) 0.9715(2) 0.4394(2)
H28 H 0.3188 0.9539 0.4341
H29 H 0.2461 0.9686 0.4407
H30 H 0.3066 0.9847 0.4200
N11 N 0.6079(3) 0.94062(14) 0.55959(14)
N12 N 0.5644(3) 0.95894(13) 0.57670(14)
C26 C 0.6884(5) 0.90260(18) 0.5749(2)
H31 H 0.7249 0.9019 0.5933
H32 H 0.6654 0.8846 0.5735
H33 H 0.7085 0.9071 0.5510
C27 C 0.6371(4) 0.92427(16) 0.58513(18)
C28 C 0.6118(3) 0.93147(14) 0.61956(15)
C29 C 0.5661(3) 0.95339(15) 0.61313(16)
C30 C 0.5221(4) 0.96915(18) 0.63951(19)
H34 H 0.4794 0.9748 0.6273
H35 H 0.5110 0.9574 0.6605
H36 H 0.5471 0.9855 0.6480
Ag7 Ag 0.66143(3) 0.652530(11) 0.777980(14)
Ag8 Ag 0.72862(3) 0.591600(11) 0.741850(13)
Ag9 Ag 0.77138(3) 0.908400(11) 0.258150(13)
Ag10 Ag 0.80731(3) 0.653270(11) 0.726740(14)
Ag11 Ag 0.69269(3) 0.846730(11) 0.273260(14)
Ag13 Ag 0.48792(3) 0.520970(12) 0.952910(13)
Ag17 Ag 0.60438(3) 0.564850(14) 0.997110(13)
N13 N 0.7020(3) 0.69058(11) 0.76285(15)
N14 N 0.7646(3) 0.69026(11) 0.74484(14)
N15 N 0.6369(3) 0.61444(11) 0.80093(14)
N16 N 0.6656(3) 0.59014(11) 0.78782(13)
N17 N 0.7005(3) 0.90550(12) 0.30064(14)
N18 N 0.7995(3) 0.59450(12) 0.69936(14)
N19 N 0.6623(3) 0.88128(12) 0.30311(14)
N20 N 0.8377(3) 0.61872(12) 0.69689(14)
C31 C 0.6175(4) 0.72446(16) 0.7872(2)
H37 H 0.6120 0.7120 0.8081
H38 H 0.5781 0.7224 0.7707
H39 H 0.6199 0.7436 0.7959
C32 C 0.6828(3) 0.71743(13) 0.76713(18)
C33 C 0.7321(3) 0.73487(12) 0.75103(17)
C34 C 0.7821(3) 0.71677(13) 0.73735(17)
C35 C 0.8482(4) 0.72298(15) 0.71773(19)
H40 H 0.8530 0.7106 0.6967
H41 H 0.8872 0.7202 0.7344
H42 H 0.8478 0.7422 0.7093
C36 C 0.5803(4) 0.63173(16) 0.8572(2)
H43 H 0.5497 0.6425 0.8413
H44 H 0.6154 0.6439 0.8677
H45 H 0.5534 0.6233 0.8769
C37 C 0.6149(3) 0.60946(13) 0.83508(16)
C38 C 0.6280(3) 0.58204(13) 0.84477(15)
C39 C 0.6598(3) 0.57048(13) 0.81399(16)
C40 C 0.6848(5) 0.54171(14) 0.8075(2)
H46 H 0.7150 0.5414 0.7861
H47 H 0.6452 0.5295 0.8033
H48 H 0.7104 0.5353 0.8290
C41 C 0.7175(5) 0.94938(15) 0.3349(2)
H49 H 0.7462 0.9538 0.3136
H50 H 0.6810 0.9632 0.3373
H51 H 0.7461 0.9494 0.3570
C42 C 0.6859(4) 0.92151(14) 0.32993(16)
C43 C 0.6386(3) 0.90762(14) 0.35227(16)
C44 C 0.6248(4) 0.88294(15) 0.33448(17)
C45 C 0.5771(4) 0.85997(18) 0.3456(2)
H52 H 0.5773 0.8456 0.3267
H53 H 0.5927 0.8521 0.3688
H54 H 0.5303 0.8672 0.3485
N21 N 0.5387(3) 0.93662(13) 0.42873(14)
N22 N 0.5944(3) 0.92628(14) 0.44713(14)
C46 C 0.4944(4) 0.9399(2) 0.3650(2)
H55 H 0.4557 0.9489 0.3774
H56 H 0.5151 0.9528 0.3476
H57 H 0.4777 0.9235 0.3519
C47 C 0.5473(4) 0.93139(15) 0.39265(16)
C48 C 0.6088(3) 0.91743(14) 0.38731(16)
C49 C 0.6367(4) 0.91422(17) 0.42243(17)
C50 C 0.7044(5) 0.9011(3) 0.4339(2)
H58 H 0.7010 0.8948 0.4593
H59 H 0.7142 0.8852 0.4181
H60 H 0.7416 0.9146 0.4317
N25 N 0.3985(3) 0.50917(13) 0.98058(13)
C51 C 0.1691(4) 0.98703(17) 0.56913(18)
H61 H 0.1243 0.9797 0.5769
H62 H 0.2030 0.9720 0.5685
C52 C 0.1625(3) 0.99955(15) 0.53142(16)
N27 N 0.6079(3) 0.55938(14) 0.94041(14)
N29 N 0.5644(3) 0.54106(13) 0.92330(14)
C56 C 0.6884(5) 0.59740(18) 0.9251(2)
H67 H 0.7249 0.5981 0.9067
H68 H 0.6654 0.6154 0.9265
H69 H 0.7085 0.5929 0.9490
C57 C 0.6371(4) 0.57573(16) 0.91487(18)
C58 C 0.6118(3) 0.56853(14) 0.88044(15)
C59 C 0.5661(3) 0.54661(15) 0.88687(16)
C60 C 0.5221(4) 0.53085(18) 0.86049(19)
H70 H 0.4794 0.5252 0.8727
H71 H 0.5110 0.5426 0.8395
H72 H 0.5471 0.5145 0.8520
H34_2 H 0.0206 0.0252 0.6273
Ag13_2 Ag 0.01208(3) 0.479030(12) 0.952910(13)
C46_2 C 0.0056(4) 0.0601(2) 0.3650(2)
H55_2 H 0.0443 0.0511 0.3774
H57_2 H 0.0223 0.0765 0.3519
N25_2 N 0.1015(3) 0.49083(13) 0.98058(13)
H70_2 H 0.0206 0.4748 0.8727
Ag5_2 Ag 0.03396(3) 0.459150(13) 0.042730(13)
N10_2 N 0.1114(3) 0.47935(14) 0.01499(15)
C24_2 C 0.1779(3) 0.48260(16) 0.02401(17)
C25_2 C 0.2039(4) 0.4715(2) 0.0606(2)
H28_2 H 0.1812 0.4539 0.0659
H29_2 H 0.2539 0.4686 0.0593
H30_2 H 0.1934 0.4847 0.0800
Ag15_2 Ag 0.46604(3) 0.540850(13) 0.042730(13)
C46_3 C 0.0056(4) 0.4399(2) 0.1350(2)
H55_3 H 0.0443 0.4489 0.1226
H57_3 H 0.0223 0.4235 0.1481
N26_3 N 0.3886(3) 0.52065(14) 0.01499(15)
C54_3 C 0.3221(3) 0.51740(16) 0.02401(17)
C55_3 C 0.2961(4) 0.5285(2) 0.0606(2)
H64_3 H 0.3188 0.5461 0.0659
H65_3 H 0.2461 0.5314 0.0593
H66_3 H 0.3066 0.5153 0.0800
C21_2 C 0.1691(4) 0.51297(17) 0.93087(18)
H25_2 H 0.1243 0.5203 0.9231
H26_2 H 0.2030 0.5280 0.9315
H27_2 H 0.1842 0.4988 0.9135
C22_2 C 0.1625(3) 0.50045(15) 0.96858(16)
C23_2 C 0.2132(3) 0.49625(15) 0.99539(17)
C51_2 C 0.3309(4) 0.48703(17) 0.93087(18)
H61_2 H 0.3757 0.4797 0.9231
H62_2 H 0.2970 0.4720 0.9315
H63_2 H 0.3158 0.5012 0.9135
C52_2 C 0.3375(3) 0.49955(15) 0.96858(16)
C53_2 C 0.2868(3) 0.50375(15) 0.99539(17)
Ag9_2 Ag 0.77138(3) 0.591600(11) 0.241850(13)
Ag11_2 Ag 0.69269(3) 0.653270(11) 0.226740(14)
N17_2 N 0.7005(3) 0.59450(12) 0.19936(14)
N19_2 N 0.6623(3) 0.61872(12) 0.19689(14)
C41_2 C 0.7175(5) 0.55062(15) 0.1651(2)
H49_2 H 0.7462 0.5462 0.1864
H50_2 H 0.6810 0.5368 0.1627
H51_2 H 0.7461 0.5506 0.1430
C42_2 C 0.6859(4) 0.57849(14) 0.17007(16)
C43_2 C 0.6386(3) 0.59238(14) 0.14773(16)
C44_2 C 0.6248(4) 0.61706(15) 0.16552(17)
C45_2 C 0.5771(4) 0.64003(18) 0.1544(2)
H52_2 H 0.5773 0.6544 0.1733
H53_2 H 0.5927 0.6479 0.1312
H54_2 H 0.5303 0.6328 0.1515
N21_2 N 0.5387(3) 0.56338(13) 0.07127(14)
C46_4 C 0.4944(4) 0.5601(2) 0.1350(2)
H55_4 H 0.4557 0.5511 0.1226
H56_2 H 0.5151 0.5472 0.1524
H57_4 H 0.4777 0.5765 0.1481
C47_2 C 0.5473(4) 0.56861(15) 0.10735(16)
C48_2 C 0.6088(3) 0.58257(14) 0.11269(16)
C49_2 C 0.6367(4) 0.58578(17) 0.07757(17)
C50_2 C 0.7044(5) 0.5989(3) 0.0661(2)
H58_2 H 0.7010 0.6052 0.0407
H59_2 H 0.7142 0.6148 0.0819
H60_2 H 0.7416 0.5854 0.0683
C11_2 C 0.7825(5) 0.55062(15) 0.6651(2)
H13_2 H 0.7538 0.5462 0.6864
H14_2 H 0.8190 0.5368 0.6627
H15_2 H 0.7539 0.5506 0.6430
C12_2 C 0.8141(4) 0.57849(14) 0.67007(16)
C13_2 C 0.8614(3) 0.59238(14) 0.64773(16)
C14_2 C 0.8752(4) 0.61706(15) 0.66552(17)
C15_2 C 0.9229(4) 0.64003(18) 0.6544(2)
H16_2 H 0.9227 0.6544 0.6733
H17_2 H 0.9073 0.6479 0.6312
H18_2 H 0.9697 0.6328 0.6515
N7_2 N 0.9613(3) 0.56338(13) 0.57127(14)
N8_2 N 0.9056(3) 0.57372(14) 0.55287(14)
H20_2 H 0.9849 0.5472 0.6524
C17_2 C 0.9527(4) 0.56861(15) 0.60735(16)
C18_2 C 0.8912(3) 0.58257(14) 0.61269(16)
C19_2 C 0.8633(4) 0.58578(17) 0.57757(17)
C20_2 C 0.7956(5) 0.5989(3) 0.5661(2)
H22_2 H 0.7990 0.6052 0.5407
H23_2 H 0.7858 0.6148 0.5819
H24_2 H 0.7584 0.5854 0.5683
Ag16_2 Ag 0.89562(3) 0.564850(14) 0.497110(13)
N28_2 N 0.8921(3) 0.55938(14) 0.44041(14)
Ag1_2 Ag 0.83857(3) 0.652530(11) 0.277980(14)
N1_2 N 0.7980(3) 0.69058(11) 0.26285(15)
N2_2 N 0.7354(3) 0.69026(11) 0.24484(14)
N3_2 N 0.8631(3) 0.61444(11) 0.30093(14)
N4_2 N 0.8344(3) 0.59014(11) 0.28782(13)
C1_2 C 0.8825(4) 0.72446(16) 0.2872(2)
H1_2 H 0.8880 0.7120 0.3081
H2_2 H 0.9219 0.7224 0.2707
H3_2 H 0.8801 0.7436 0.2959
C2_2 C 0.8172(3) 0.71743(13) 0.26713(18)
C3_2 C 0.7679(3) 0.73487(12) 0.25103(17)
C4_2 C 0.7179(3) 0.71677(13) 0.23735(17)
C5_2 C 0.6518(4) 0.72298(15) 0.21773(19)
H4_2 H 0.6470 0.7106 0.1967
H5_2 H 0.6128 0.7202 0.2344
H6_2 H 0.6522 0.7422 0.2093
C6_2 C 0.9197(4) 0.63173(16) 0.3572(2)
H7_2 H 0.9503 0.6425 0.3413
H8_2 H 0.8846 0.6439 0.3677
H9_2 H 0.9466 0.6233 0.3769
C7_2 C 0.8851(3) 0.60946(13) 0.33508(16)
C8_2 C 0.8720(3) 0.58204(13) 0.34477(15)
C9_2 C 0.8402(3) 0.57048(13) 0.31399(16)
C10_2 C 0.8152(5) 0.54171(14) 0.3075(2)
H10_2 H 0.7850 0.5414 0.2861
H11_2 H 0.8548 0.5295 0.3033
H12_2 H 0.7896 0.5353 0.3290
N12_2 N 0.9356(3) 0.54106(13) 0.42330(14)
C26_2 C 0.8116(5) 0.59740(18) 0.4251(2)
H31_2 H 0.7751 0.5981 0.4067
H32_2 H 0.8346 0.6154 0.4265
H33_2 H 0.7915 0.5929 0.4490
C27_2 C 0.8629(4) 0.57573(16) 0.41487(18)
C28_2 C 0.8882(3) 0.56853(14) 0.38044(15)
C29_2 C 0.9339(3) 0.54661(15) 0.38687(16)
C30_2 C 0.9779(4) 0.53085(18) 0.36049(19)
H35_2 H 0.9890 0.5426 0.3395
H36_2 H 0.9529 0.5145 0.3520
Ag7_2 Ag 0.83857(3) 0.847470(11) 0.222020(14)
N13_2 N 0.7980(3) 0.80942(11) 0.23715(15)
N14_2 N 0.7354(3) 0.80974(11) 0.25516(14)
N15_2 N 0.8631(3) 0.88556(11) 0.19907(14)
N16_2 N 0.8344(3) 0.90986(11) 0.21218(13)
C31_2 C 0.8825(4) 0.77554(16) 0.2128(2)
H37_2 H 0.8880 0.7880 0.1919
H38_2 H 0.9219 0.7776 0.2293
H39_2 H 0.8801 0.7564 0.2041
C32_2 C 0.8172(3) 0.78257(13) 0.23287(18)
C33_2 C 0.7679(3) 0.76513(12) 0.24897(17)
C34_2 C 0.7179(3) 0.78323(13) 0.26265(17)
C35_2 C 0.6518(4) 0.77702(15) 0.28227(19)
H40_2 H 0.6470 0.7894 0.3033
H41_2 H 0.6128 0.7798 0.2656
H42_2 H 0.6522 0.7578 0.2907
C36_2 C 0.9197(4) 0.86827(16) 0.1428(2)
H43_2 H 0.9503 0.8575 0.1587
H44_2 H 0.8846 0.8561 0.1323
H45_2 H 0.9466 0.8767 0.1231
C37_2 C 0.8851(3) 0.89054(13) 0.16492(16)
C38_2 C 0.8720(3) 0.91796(13) 0.15523(15)
C39_2 C 0.8402(3) 0.92952(13) 0.18601(16)
C40_2 C 0.8152(5) 0.95829(14) 0.1925(2)
H46_2 H 0.7850 0.9586 0.2139
H47_2 H 0.8548 0.9705 0.1967
H48_2 H 0.7896 0.9647 0.1710
N29_2 N 0.9356(3) 0.95894(13) 0.07670(14)
C56_2 C 0.8116(5) 0.90260(18) 0.0749(2)
H67_2 H 0.7751 0.9019 0.0933
H68_2 H 0.8346 0.8846 0.0735
H69_2 H 0.7915 0.9071 0.0510
C57_2 C 0.8629(4) 0.92427(16) 0.08513(18)
C58_2 C 0.8882(3) 0.93147(14) 0.11956(15)
C59_2 C 0.9339(3) 0.95339(15) 0.11313(16)
C60_2 C 0.9779(4) 0.96915(18) 0.13951(19)
H71_2 H 0.9890 0.9574 0.1605
H72_2 H 0.9529 0.9855 0.1480
Ag16_3 Ag 0.39562(3) 0.435150(14) 0.002890(13)
N23_2 N 0.0944(3) 0.07372(14) 0.05287(14)
N28_3 N 0.3921(3) 0.44062(14) 0.05959(14)
Ag1_3 Ag 0.16143(3) 0.347470(11) 0.722020(14)
Ag2_2 Ag 0.22862(3) 0.408400(11) 0.758150(13)
Ag3_2 Ag 0.30731(3) 0.346730(11) 0.773260(14)
Ag6_2 Ag 0.10438(3) 0.435150(14) 0.502890(13)
N1_3 N 0.2020(3) 0.30942(11) 0.73715(15)
N2_3 N 0.2646(3) 0.30974(11) 0.75516(14)
N3_3 N 0.1369(3) 0.38556(11) 0.69907(14)
N4_3 N 0.1656(3) 0.40986(11) 0.71218(13)
N5_2 N 0.2995(3) 0.40550(12) 0.80064(14)
N6_2 N 0.3377(3) 0.38128(12) 0.80311(14)
C1_3 C 0.1175(4) 0.27554(16) 0.7128(2)
H1_3 H 0.1120 0.2880 0.6919
H2_3 H 0.0781 0.2776 0.7293
H3_3 H 0.1199 0.2564 0.7041
C2_3 C 0.1828(3) 0.28257(13) 0.73287(18)
C3_3 C 0.2321(3) 0.26513(12) 0.74897(17)
C4_3 C 0.2821(3) 0.28323(13) 0.76265(17)
C5_3 C 0.3482(4) 0.27702(15) 0.78227(19)
H4_3 H 0.3530 0.2894 0.8033
H5_3 H 0.3872 0.2798 0.7656
H6_3 H 0.3478 0.2578 0.7907
C6_3 C 0.0803(4) 0.36827(16) 0.6428(2)
H7_3 H 0.0497 0.3575 0.6587
H8_3 H 0.1154 0.3561 0.6323
H9_3 H 0.0534 0.3767 0.6231
C7_3 C 0.1149(3) 0.39054(13) 0.66492(16)
C8_3 C 0.1280(3) 0.41796(13) 0.65523(15)
C9_3 C 0.1598(3) 0.42952(13) 0.68601(16)
C10_3 C 0.1848(5) 0.45829(14) 0.6925(2)
H10_3 H 0.2150 0.4586 0.7139
H11_3 H 0.1452 0.4705 0.6967
H12_3 H 0.2104 0.4647 0.6710
C11_3 C 0.2825(5) 0.44938(15) 0.8349(2)
H13_3 H 0.2538 0.4538 0.8136
H14_3 H 0.3190 0.4632 0.8373
H15_3 H 0.2539 0.4494 0.8570
C12_3 C 0.3141(4) 0.42151(14) 0.82993(16)
C13_3 C 0.3614(3) 0.40762(14) 0.85227(16)
C14_3 C 0.3752(4) 0.38294(15) 0.83448(17)
C15_3 C 0.4229(4) 0.35997(18) 0.8456(2)
H16_3 H 0.4227 0.3456 0.8267
H17_3 H 0.4073 0.3521 0.8688
H18_3 H 0.4697 0.3672 0.8485
N7_3 N 0.4613(3) 0.43662(13) 0.92873(14)
N8_3 N 0.4056(3) 0.42628(14) 0.94713(14)
C16_2 C 0.5056(4) 0.4399(2) 0.8650(2)
H19_2 H 0.5443 0.4489 0.8774
H20_3 H 0.4849 0.4528 0.8476
H21_2 H 0.5223 0.4235 0.8519
C17_3 C 0.4527(4) 0.43139(15) 0.89265(16)
C18_3 C 0.3912(3) 0.41743(14) 0.88731(16)
C19_3 C 0.3633(4) 0.41422(17) 0.92243(17)
C20_3 C 0.2956(5) 0.4011(3) 0.9339(2)
H22_3 H 0.2990 0.3948 0.9593
H23_3 H 0.2858 0.3852 0.9181
H24_3 H 0.2584 0.4146 0.9317
N11_2 N 0.1079(3) 0.44062(14) 0.55959(14)
N12_3 N 0.0644(3) 0.45894(13) 0.57670(14)
C26_3 C 0.1884(5) 0.40260(18) 0.5749(2)
H31_3 H 0.2249 0.4019 0.5933
H32_3 H 0.1654 0.3846 0.5735
H33_3 H 0.2085 0.4071 0.5510
C27_3 C 0.1371(4) 0.42427(16) 0.58513(18)
C28_3 C 0.1118(3) 0.43147(14) 0.61956(15)
C29_3 C 0.0661(3) 0.45339(15) 0.61313(16)
C30_3 C 0.0221(4) 0.46915(18) 0.63951(19)
H35_3 H 0.0110 0.4574 0.6605
H36_3 H 0.0471 0.4855 0.6480
Ag7_3 Ag 0.16143(3) 0.152530(11) 0.777980(14)
Ag8_2 Ag 0.22862(3) 0.091600(11) 0.741850(13)
Ag9_3 Ag 0.27138(3) 0.408400(11) 0.258150(13)
Ag10_2 Ag 0.30731(3) 0.153270(11) 0.726740(14)
Ag11_3 Ag 0.19269(3) 0.346730(11) 0.273260(14)
Ag14_2 Ag 0.53396(3) 0.459150(13) 0.957270(13)
Ag17_2 Ag 0.10438(3) 0.064850(14) 0.997110(13)
N13_3 N 0.2020(3) 0.19058(11) 0.76285(15)
N14_3 N 0.2646(3) 0.19026(11) 0.74484(14)
N15_3 N 0.1369(3) 0.11444(11) 0.80093(14)
N16_3 N 0.1656(3) 0.09014(11) 0.78782(13)
N17_3 N 0.2005(3) 0.40550(12) 0.30064(14)
N18_2 N 0.2995(3) 0.09450(12) 0.69936(14)
N19_3 N 0.1623(3) 0.38128(12) 0.30311(14)
N20_2 N 0.3377(3) 0.11872(12) 0.69689(14)
C31_3 C 0.1175(4) 0.22446(16) 0.7872(2)
H37_3 H 0.1120 0.2120 0.8081
H38_3 H 0.0781 0.2224 0.7707
H39_3 H 0.1199 0.2436 0.7959
C32_3 C 0.1828(3) 0.21743(13) 0.76713(18)
C33_3 C 0.2321(3) 0.23487(12) 0.75103(17)
C34_3 C 0.2821(3) 0.21677(13) 0.73735(17)
C35_3 C 0.3482(4) 0.22298(15) 0.71773(19)
H40_3 H 0.3530 0.2106 0.6967
H41_3 H 0.3872 0.2202 0.7344
H42_3 H 0.3478 0.2422 0.7093
C36_3 C 0.0803(4) 0.13173(16) 0.8572(2)
H43_3 H 0.0497 0.1425 0.8413
H44_3 H 0.1154 0.1439 0.8677
H45_3 H 0.0534 0.1233 0.8769
C37_3 C 0.1149(3) 0.10946(13) 0.83508(16)
C38_3 C 0.1280(3) 0.08204(13) 0.84477(15)
C39_3 C 0.1598(3) 0.07048(13) 0.81399(16)
C40_3 C 0.1848(5) 0.04171(14) 0.8075(2)
H46_3 H 0.2150 0.0414 0.7861
H47_3 H 0.1452 0.0295 0.8033
H48_3 H 0.2104 0.0353 0.8290
C41_3 C 0.2175(5) 0.44938(15) 0.3349(2)
H49_3 H 0.2462 0.4538 0.3136
H50_3 H 0.1810 0.4632 0.3373
H51_3 H 0.2461 0.4494 0.3570
C42_3 C 0.1859(4) 0.42151(14) 0.32993(16)
C43_3 C 0.1386(3) 0.40762(14) 0.35227(16)
C44_3 C 0.1248(4) 0.38294(15) 0.33448(17)
C45_3 C 0.0771(4) 0.35997(18) 0.3456(2)
H52_3 H 0.0773 0.3456 0.3267
H53_3 H 0.0927 0.3521 0.3688
H54_3 H 0.0303 0.3672 0.3485
N21_3 N 0.0387(3) 0.43662(13) 0.42873(14)
N22_2 N 0.0944(3) 0.42628(14) 0.44713(14)
H56_3 H 0.0151 0.4528 0.3476
C47_3 C 0.0473(4) 0.43139(15) 0.39265(16)
C48_3 C 0.1088(3) 0.41743(14) 0.38731(16)
C49_3 C 0.1367(4) 0.41422(17) 0.42243(17)
C50_3 C 0.2044(5) 0.4011(3) 0.4339(2)
H58_3 H 0.2010 0.3948 0.4593
H59_3 H 0.2142 0.3852 0.4181
H60_3 H 0.2416 0.4146 0.4317
N27_2 N 0.1079(3) 0.05938(14) 0.94041(14)
N29_3 N 0.0644(3) 0.04106(13) 0.92330(14)
C56_3 C 0.1884(5) 0.09740(18) 0.9251(2)
H67_3 H 0.2249 0.0981 0.9067
H68_3 H 0.1654 0.1154 0.9265
H69_3 H 0.2085 0.0929 0.9490
C57_3 C 0.1371(4) 0.07573(16) 0.91487(18)
C58_3 C 0.1118(3) 0.06853(14) 0.88044(15)
C59_3 C 0.0661(3) 0.04661(15) 0.88687(16)
C60_3 C 0.0221(4) 0.03085(18) 0.86049(19)
H71_3 H 0.0110 0.0426 0.8395
H72_3 H 0.0471 0.0145 0.8520
C16_3 C 0.9944(4) 0.9399(2) 0.6350(2)
H19_3 H 0.9557 0.9489 0.6226
H21_3 H 0.9777 0.9235 0.6481
Ag14_3 Ag 0.96604(3) 0.959150(13) 0.542730(13)
Ag9_4 Ag 0.27138(3) 0.091600(11) 0.241850(13)
Ag11_4 Ag 0.19269(3) 0.153270(11) 0.226740(14)
N17_4 N 0.2005(3) 0.09450(12) 0.19936(14)
N19_4 N 0.1623(3) 0.11872(12) 0.19689(14)
C41_4 C 0.2175(5) 0.05062(15) 0.1651(2)
H49_4 H 0.2462 0.0462 0.1864
H50_4 H 0.1810 0.0368 0.1627
H51_4 H 0.2461 0.0506 0.1430
C42_4 C 0.1859(4) 0.07849(14) 0.17007(16)
C43_4 C 0.1386(3) 0.09238(14) 0.14773(16)
C44_4 C 0.1248(4) 0.11706(15) 0.16552(17)
C45_4 C 0.0771(4) 0.14003(18) 0.1544(2)
H52_4 H 0.0773 0.1544 0.1733
H53_4 H 0.0927 0.1479 0.1312
H54_4 H 0.0303 0.1328 0.1515
N21_4 N 0.0387(3) 0.06338(13) 0.07127(14)
H56_4 H 0.0151 0.0472 0.1524
C47_4 C 0.0473(4) 0.06861(15) 0.10735(16)
C48_4 C 0.1088(3) 0.08257(14) 0.11269(16)
C49_4 C 0.1367(4) 0.08578(17) 0.07757(17)
C50_4 C 0.2044(5) 0.0989(3) 0.0661(2)
H58_4 H 0.2010 0.1052 0.0407
H59_4 H 0.2142 0.1148 0.0819
H60_4 H 0.2416 0.0854 0.0683
C11_4 C 0.2825(5) 0.05062(15) 0.6651(2)
H13_4 H 0.2538 0.0462 0.6864
H14_4 H 0.3190 0.0368 0.6627
H15_4 H 0.2539 0.0506 0.6430
C12_4 C 0.3141(4) 0.07849(14) 0.67007(16)
C13_4 C 0.3614(3) 0.09238(14) 0.64773(16)
C14_4 C 0.3752(4) 0.11706(15) 0.66552(17)
C15_4 C 0.4229(4) 0.14003(18) 0.6544(2)
H16_4 H 0.4227 0.1544 0.6733
H17_4 H 0.4073 0.1479 0.6312
H18_4 H 0.4697 0.1328 0.6515
N7_4 N 0.4613(3) 0.06338(13) 0.57127(14)
N8_4 N 0.4056(3) 0.07372(14) 0.55287(14)
C16_4 C 0.5056(4) 0.0601(2) 0.6350(2)
H19_4 H 0.5443 0.0511 0.6226
H20_4 H 0.4849 0.0472 0.6524
H21_4 H 0.5223 0.0765 0.6481
C17_4 C 0.4527(4) 0.06861(15) 0.60735(16)
C18_4 C 0.3912(3) 0.08257(14) 0.61269(16)
C19_4 C 0.3633(4) 0.08578(17) 0.57757(17)
C20_4 C 0.2956(5) 0.0989(3) 0.5661(2)
H22_4 H 0.2990 0.1052 0.5407
H23_4 H 0.2858 0.1148 0.5819
H24_4 H 0.2584 0.0854 0.5683
Ag14_4 Ag 0.53396(3) 0.040850(13) 0.542730(13)
Ag16_4 Ag 0.39562(3) 0.064850(14) 0.497110(13)
N28_4 N 0.3921(3) 0.05938(14) 0.44041(14)
C16_5 C 0.9944(4) 0.5601(2) 0.8650(2)
H19_5 H 0.9557 0.5511 0.8774
H21_5 H 0.9777 0.5765 0.8519
Ag14_5 Ag 0.96604(3) 0.540850(13) 0.957270(13)
Ag1_4 Ag 0.33857(3) 0.152530(11) 0.277980(14)
Ag4_2 Ag 0.51208(3) 0.020970(12) 0.452910(13)
N1_4 N 0.2980(3) 0.19058(11) 0.26285(15)
N2_4 N 0.2354(3) 0.19026(11) 0.24484(14)
N3_4 N 0.3631(3) 0.11444(11) 0.30093(14)
N4_4 N 0.3344(3) 0.09014(11) 0.28782(13)
C1_4 C 0.3825(4) 0.22446(16) 0.2872(2)
H1_4 H 0.3880 0.2120 0.3081
H2_4 H 0.4219 0.2224 0.2707
H3_4 H 0.3801 0.2436 0.2959
C2_4 C 0.3172(3) 0.21743(13) 0.26713(18)
C3_4 C 0.2679(3) 0.23487(12) 0.25103(17)
C4_4 C 0.2179(3) 0.21677(13) 0.23735(17)
C5_4 C 0.1518(4) 0.22298(15) 0.21773(19)
H4_4 H 0.1470 0.2106 0.1967
H5_4 H 0.1128 0.2202 0.2344
H6_4 H 0.1522 0.2422 0.2093
C6_4 C 0.4197(4) 0.13173(16) 0.3572(2)
H7_4 H 0.4503 0.1425 0.3413
H8_4 H 0.3846 0.1439 0.3677
H9_4 H 0.4466 0.1233 0.3769
C7_4 C 0.3851(3) 0.10946(13) 0.33508(16)
C8_4 C 0.3720(3) 0.08204(13) 0.34477(15)
C9_4 C 0.3402(3) 0.07048(13) 0.31399(16)
C10_4 C 0.3152(5) 0.04171(14) 0.3075(2)
H10_4 H 0.2850 0.0414 0.2861
H11_4 H 0.3548 0.0295 0.3033
H12_4 H 0.2896 0.0353 0.3290
N9_2 N 0.6015(3) 0.00917(13) 0.48058(13)
N10_3 N 0.6114(3) 0.02065(14) 0.51499(15)
H27_3 H 0.6842 0.0012 0.4135
C23_3 C 0.7132(3) 0.00375(15) 0.49539(17)
C24_3 C 0.6779(3) 0.01740(16) 0.52401(17)
C25_3 C 0.7039(4) 0.0285(2) 0.5606(2)
H28_3 H 0.6812 0.0461 0.5659
H29_3 H 0.7539 0.0314 0.5593
H30_3 H 0.6934 0.0153 0.5800
N12_4 N 0.4356(3) 0.04106(13) 0.42330(14)
C26_4 C 0.3116(5) 0.09740(18) 0.4251(2)
H31_4 H 0.2751 0.0981 0.4067
H32_4 H 0.3346 0.1154 0.4265
H33_4 H 0.2915 0.0929 0.4490
C27_4 C 0.3629(4) 0.07573(16) 0.41487(18)
C28_4 C 0.3882(3) 0.06853(14) 0.38044(15)
C29_4 C 0.4339(3) 0.04661(15) 0.38687(16)
C30_4 C 0.4779(4) 0.03085(18) 0.36049(19)
H34_3 H 0.5206 0.0252 0.3727
H35_4 H 0.4890 0.0426 0.3395
H36_4 H 0.4529 0.0145 0.3520
Ag7_4 Ag 0.33857(3) 0.347470(11) 0.222020(14)
Ag13_3 Ag 0.51208(3) 0.479030(12) 0.047090(13)
N13_4 N 0.2980(3) 0.30942(11) 0.23715(15)
N14_4 N 0.2354(3) 0.30974(11) 0.25516(14)
N15_4 N 0.3631(3) 0.38556(11) 0.19907(14)
N16_4 N 0.3344(3) 0.40986(11) 0.21218(13)
C31_4 C 0.3825(4) 0.27554(16) 0.2128(2)
H37_4 H 0.3880 0.2880 0.1919
H38_4 H 0.4219 0.2776 0.2293
H39_4 H 0.3801 0.2564 0.2041
C32_4 C 0.3172(3) 0.28257(13) 0.23287(18)
C33_4 C 0.2679(3) 0.26513(12) 0.24897(17)
C34_4 C 0.2179(3) 0.28323(13) 0.26265(17)
C35_4 C 0.1518(4) 0.27702(15) 0.28227(19)
H40_4 H 0.1470 0.2894 0.3033
H41_4 H 0.1128 0.2798 0.2656
H42_4 H 0.1522 0.2578 0.2907
C36_4 C 0.4197(4) 0.36827(16) 0.1428(2)
H43_4 H 0.4503 0.3575 0.1587
H44_4 H 0.3846 0.3561 0.1323
H45_4 H 0.4466 0.3767 0.1231
C37_4 C 0.3851(3) 0.39054(13) 0.16492(16)
C38_4 C 0.3720(3) 0.41796(13) 0.15523(15)
C39_4 C 0.3402(3) 0.42952(13) 0.18601(16)
C40_4 C 0.3152(5) 0.45829(14) 0.1925(2)
H46_4 H 0.2850 0.4586 0.2139
H47_4 H 0.3548 0.4705 0.1967
H48_4 H 0.2896 0.4647 0.1710
N25_3 N 0.6015(3) 0.49083(13) 0.01942(13)
C51_3 C 0.8309(4) 0.01297(17) 0.43087(18)
H61_3 H 0.8757 0.0203 0.4231
H62_3 H 0.7970 0.0280 0.4315
C52_3 C 0.8375(3) 0.00045(15) 0.46858(16)
N29_4 N 0.4356(3) 0.45894(13) 0.07670(14)
C56_4 C 0.3116(5) 0.40260(18) 0.0749(2)
H67_4 H 0.2751 0.4019 0.0933
H68_4 H 0.3346 0.3846 0.0735
H69_4 H 0.2915 0.4071 0.0510
C57_4 C 0.3629(4) 0.42427(16) 0.08513(18)
C58_4 C 0.3882(3) 0.43147(14) 0.11956(15)
C59_4 C 0.4339(3) 0.45339(15) 0.11313(16)
C60_4 C 0.4779(4) 0.46915(18) 0.13951(19)
H70_3 H 0.5206 0.4748 0.1273
H71_4 H 0.4890 0.4574 0.1605
H72_4 H 0.4529 0.4855 0.1480
C21_3 C 0.6691(4) 0.98703(17) 0.43087(18)
H25_3 H 0.6243 0.9797 0.4231
H26_3 H 0.7030 0.9720 0.4315
C22_3 C 0.6625(3) 0.99955(15) 0.46858(16)
Ag12_2 Ag 0.98792(3) 0.979030(12) 0.452910(13)
N24_2 N 0.8985(3) 0.99083(13) 0.48058(13)
N26_4 N 0.8886(3) 0.97935(14) 0.51499(15)
H63_3 H 0.8158 0.9988 0.4135
C53_3 C 0.7868(3) 0.99625(15) 0.49539(17)
C54_4 C 0.8221(3) 0.98260(16) 0.52401(17)
C55_4 C 0.7961(4) 0.9715(2) 0.5606(2)
H64_4 H 0.8188 0.9539 0.5659
H65_4 H 0.7461 0.9686 0.5593
H66_4 H 0.8066 0.9847 0.5800
H34_4 H 0.9794 0.9748 0.3727
Ag13_4 Ag 0.98792(3) 0.520970(12) 0.047090(13)
N25_4 N 0.8985(3) 0.50917(13) 0.01942(13)
H70_4 H 0.9794 0.5252 0.1273
C21_4 C 0.8309(4) 0.48703(17) 0.06913(18)
H25_4 H 0.8757 0.4797 0.0769
H26_4 H 0.7970 0.4720 0.0685
H27_4 H 0.8158 0.5012 0.0865
C22_4 C 0.8375(3) 0.49955(15) 0.03142(16)
C23_4 C 0.7868(3) 0.50375(15) 0.00461(17)
C51_4 C 0.6691(4) 0.51297(17) 0.06913(18)
H61_4 H 0.6243 0.5203 0.0769
H62_4 H 0.7030 0.5280 0.0685
H63_4 H 0.6842 0.4988 0.0865
C52_4 C 0.6625(3) 0.50045(15) 0.03142(16)
C53_4 C 0.7132(3) 0.49625(15) 0.00461(17)
N10_4 N 0.8886(3) 0.52065(14) 0.98501(15)
C24_4 C 0.8221(3) 0.51740(16) 0.97599(17)
C25_4 C 0.7961(4) 0.5285(2) 0.9394(2)
H28_4 H 0.8188 0.5461 0.9341
H29_4 H 0.7461 0.5314 0.9407
H30_4 H 0.8066 0.5153 0.9200
N26_5 N 0.6114(3) 0.47935(14) 0.98501(15)
C54_5 C 0.6779(3) 0.48260(16) 0.97599(17)
C55_5 C 0.7039(4) 0.4715(2) 0.9394(2)
H64_5 H 0.6812 0.4539 0.9341
H65_5 H 0.7539 0.4686 0.9407
H66_5 H 0.6934 0.4847 0.9200
Ag4_3 Ag 0.98792(3) 0.479030(12) 0.547090(13)
Ag5_3 Ag 0.96604(3) 0.459150(13) 0.457270(13)
N9_3 N 0.8985(3) 0.49083(13) 0.51942(13)
N10_5 N 0.8886(3) 0.47935(14) 0.48501(15)
C21_5 C 0.8309(4) 0.51297(17) 0.56913(18)
H25_5 H 0.8757 0.5203 0.5769
H26_5 H 0.7970 0.5280 0.5685
H27_5 H 0.8158 0.4988 0.5865
C22_5 C 0.8375(3) 0.50045(15) 0.53142(16)
C23_5 C 0.7868(3) 0.49625(15) 0.50461(17)
C24_5 C 0.8221(3) 0.48260(16) 0.47599(17)
C25_5 C 0.7961(4) 0.4715(2) 0.4394(2)
H28_5 H 0.8188 0.4539 0.4341
H29_5 H 0.7461 0.4686 0.4407
H30_5 H 0.8066 0.4847 0.4200
H34_5 H 0.9794 0.4748 0.6273
Ag12_3 Ag 0.51208(3) 0.520970(12) 0.547090(13)
Ag13_5 Ag 0.98792(3) 0.020970(12) 0.952910(13)
Ag15_3 Ag 0.53396(3) 0.540850(13) 0.457270(13)
C46_5 C 0.9944(4) 0.4399(2) 0.3650(2)
H55_5 H 0.9557 0.4489 0.3774
H57_5 H 0.9777 0.4235 0.3519
N24_3 N 0.6015(3) 0.50917(13) 0.51942(13)
N25_5 N 0.8985(3) 0.00917(13) 0.98058(13)
N26_6 N 0.6114(3) 0.52065(14) 0.48501(15)
C51_5 C 0.6691(4) 0.48703(17) 0.56913(18)
H61_5 H 0.6243 0.4797 0.5769
H62_5 H 0.7030 0.4720 0.5685
H63_5 H 0.6842 0.5012 0.5865
C52_5 C 0.6625(3) 0.49955(15) 0.53142(16)
C53_5 C 0.7132(3) 0.50375(15) 0.50461(17)
C54_6 C 0.6779(3) 0.51740(16) 0.47599(17)
C55_6 C 0.7039(4) 0.5285(2) 0.4394(2)
H64_6 H 0.6812 0.5461 0.4341
H65_6 H 0.7539 0.5314 0.4407
H66_6 H 0.6934 0.5153 0.4200
H70_5 H 0.9794 0.0252 0.8727
C21_6 C 0.6691(4) 0.01297(17) 0.93087(18)
H25_6 H 0.6243 0.0203 0.9231
H26_6 H 0.7030 0.0280 0.9315
C22_6 C 0.6625(3) 0.00045(15) 0.96858(16)
H63_6 H 0.8158 0.0012 0.9135
C53_6 C 0.7868(3) 0.00375(15) 0.99539(17)
Ag5_4 Ag 0.53396(3) 0.959150(13) 0.042730(13)
N10_6 N 0.6114(3) 0.97935(14) 0.01499(15)
C24_6 C 0.6779(3) 0.98260(16) 0.02401(17)
C25_6 C 0.7039(4) 0.9715(2) 0.0606(2)
H28_6 H 0.6812 0.9539 0.0659
H29_6 H 0.7539 0.9686 0.0593
H30_6 H 0.6934 0.9847 0.0800
Ag9_5 Ag 0.22862(3) 0.908400(11) 0.241850(13)
Ag11_5 Ag 0.30731(3) 0.846730(11) 0.226740(14)
N17_5 N 0.2995(3) 0.90550(12) 0.19936(14)
N19_5 N 0.3377(3) 0.88128(12) 0.19689(14)
C41_5 C 0.2825(5) 0.94938(15) 0.1651(2)
H49_5 H 0.2538 0.9538 0.1864
H50_5 H 0.3190 0.9632 0.1627
H51_5 H 0.2539 0.9494 0.1430
C42_5 C 0.3141(4) 0.92151(14) 0.17007(16)
C43_5 C 0.3614(3) 0.90762(14) 0.14773(16)
C44_5 C 0.3752(4) 0.88294(15) 0.16552(17)
C45_5 C 0.4229(4) 0.85997(18) 0.1544(2)
H52_5 H 0.4227 0.8456 0.1733
H53_5 H 0.4073 0.8521 0.1312
H54_5 H 0.4697 0.8672 0.1515
N21_5 N 0.4613(3) 0.93662(13) 0.07127(14)
N22_3 N 0.4056(3) 0.92628(14) 0.05287(14)
C46_6 C 0.5056(4) 0.9399(2) 0.1350(2)
H55_6 H 0.5443 0.9489 0.1226
H56_5 H 0.4849 0.9528 0.1524
H57_6 H 0.5223 0.9235 0.1481
C47_5 C 0.4527(4) 0.93139(15) 0.10735(16)
C48_5 C 0.3912(3) 0.91743(14) 0.11269(16)
C49_5 C 0.3633(4) 0.91422(17) 0.07757(17)
C50_5 C 0.2956(5) 0.9011(3) 0.0661(2)
H58_5 H 0.2990 0.8948 0.0407
H59_5 H 0.2858 0.8852 0.0819
H60_5 H 0.2584 0.9146 0.0683
Ag1_5 Ag 0.33857(3) 0.847470(11) 0.777980(14)
Ag2_3 Ag 0.27138(3) 0.908400(11) 0.741850(13)
Ag3_3 Ag 0.19269(3) 0.846730(11) 0.726740(14)
Ag4_4 Ag 0.51208(3) 0.979030(12) 0.952910(13)
Ag6_3 Ag 0.39562(3) 0.935150(14) 0.997110(13)
N1_5 N 0.2980(3) 0.80942(11) 0.76285(15)
N2_5 N 0.2354(3) 0.80974(11) 0.74484(14)
N3_5 N 0.3631(3) 0.88556(11) 0.80093(14)
N4_5 N 0.3344(3) 0.90986(11) 0.78782(13)
N5_3 N 0.2005(3) 0.90550(12) 0.69936(14)
N6_3 N 0.1623(3) 0.88128(12) 0.69689(14)
C1_5 C 0.3825(4) 0.77554(16) 0.7872(2)
H1_5 H 0.3880 0.7880 0.8081
H2_5 H 0.4219 0.7776 0.7707
H3_5 H 0.3801 0.7564 0.7959
C2_5 C 0.3172(3) 0.78257(13) 0.76713(18)
C3_5 C 0.2679(3) 0.76513(12) 0.75103(17)
C4_5 C 0.2179(3) 0.78323(13) 0.73735(17)
C5_5 C 0.1518(4) 0.77702(15) 0.71773(19)
H4_5 H 0.1470 0.7894 0.6967
H5_5 H 0.1128 0.7798 0.7344
H6_5 H 0.1522 0.7578 0.7093
C6_5 C 0.4197(4) 0.86827(16) 0.8572(2)
H7_5 H 0.4503 0.8575 0.8413
H8_5 H 0.3846 0.8561 0.8677
H9_5 H 0.4466 0.8767 0.8769
C7_5 C 0.3851(3) 0.89054(13) 0.83508(16)
C8_5 C 0.3720(3) 0.91796(13) 0.84477(15)
C9_5 C 0.3402(3) 0.92952(13) 0.81399(16)
C10_5 C 0.3152(5) 0.95829(14) 0.8075(2)
H10_5 H 0.2850 0.9586 0.7861
H11_5 H 0.3548 0.9705 0.8033
H12_5 H 0.2896 0.9647 0.8290
C11_5 C 0.2175(5) 0.94938(15) 0.6651(2)
H13_5 H 0.2462 0.9538 0.6864
H14_5 H 0.1810 0.9632 0.6627
H15_5 H 0.2461 0.9494 0.6430
C12_5 C 0.1859(4) 0.92151(14) 0.67007(16)
C13_5 C 0.1386(3) 0.90762(14) 0.64773(16)
C14_5 C 0.1248(4) 0.88294(15) 0.66552(17)
C15_5 C 0.0771(4) 0.85997(18) 0.6544(2)
H16_5 H 0.0773 0.8456 0.6733
H17_5 H 0.0927 0.8521 0.6312
H18_5 H 0.0303 0.8672 0.6515
N7_5 N 0.0387(3) 0.93662(13) 0.57127(14)
N8_5 N 0.0944(3) 0.92628(14) 0.55287(14)
H20_5 H 0.0151 0.9528 0.6524
C17_5 C 0.0473(4) 0.93139(15) 0.60735(16)
C18_5 C 0.1088(3) 0.91743(14) 0.61269(16)
C19_5 C 0.1367(4) 0.91422(17) 0.57757(17)
C20_5 C 0.2044(5) 0.9011(3) 0.5661(2)
H22_5 H 0.2010 0.8948 0.5407
H23_5 H 0.2142 0.8852 0.5819
H24_5 H 0.2416 0.9146 0.5683
N9_4 N 0.6015(3) 0.99083(13) 0.98058(13)
H27_6 H 0.6842 0.9988 0.9135
C23_6 C 0.7132(3) 0.99625(15) 0.99539(17)
N11_3 N 0.3921(3) 0.94062(14) 0.94041(14)
N12_5 N 0.4356(3) 0.95894(13) 0.92330(14)
C26_5 C 0.3116(5) 0.90260(18) 0.9251(2)
H31_5 H 0.2751 0.9019 0.9067
H32_5 H 0.3346 0.8846 0.9265
H33_5 H 0.2915 0.9071 0.9490
C27_5 C 0.3629(4) 0.92427(16) 0.91487(18)
C28_5 C 0.3882(3) 0.93147(14) 0.88044(15)
C29_5 C 0.4339(3) 0.95339(15) 0.88687(16)
C30_5 C 0.4779(4) 0.96915(18) 0.86049(19)
H34_6 H 0.5206 0.9748 0.8727
H35_5 H 0.4890 0.9574 0.8395
H36_5 H 0.4529 0.9855 0.8520
Ag7_5 Ag 0.33857(3) 0.652530(11) 0.722020(14)
Ag8_3 Ag 0.27138(3) 0.591600(11) 0.758150(13)
Ag10_3 Ag 0.19269(3) 0.653270(11) 0.773260(14)
Ag16_5 Ag 0.10438(3) 0.935150(14) 0.497110(13)
Ag17_3 Ag 0.39562(3) 0.564850(14) 0.502890(13)
N13_5 N 0.2980(3) 0.69058(11) 0.73715(15)
N14_5 N 0.2354(3) 0.69026(11) 0.75516(14)
N15_5 N 0.3631(3) 0.61444(11) 0.69907(14)
N16_5 N 0.3344(3) 0.59014(11) 0.71218(13)
N18_3 N 0.2005(3) 0.59450(12) 0.80064(14)
N20_3 N 0.1623(3) 0.61872(12) 0.80311(14)
C31_5 C 0.3825(4) 0.72446(16) 0.7128(2)
H37_5 H 0.3880 0.7120 0.6919
H38_5 H 0.4219 0.7224 0.7293
H39_5 H 0.3801 0.7436 0.7041
C32_5 C 0.3172(3) 0.71743(13) 0.73287(18)
C33_5 C 0.2679(3) 0.73487(12) 0.74897(17)
C34_5 C 0.2179(3) 0.71677(13) 0.76265(17)
C35_5 C 0.1518(4) 0.72298(15) 0.78227(19)
H40_5 H 0.1470 0.7106 0.8033
H41_5 H 0.1128 0.7202 0.7656
H42_5 H 0.1522 0.7422 0.7907
C36_5 C 0.4197(4) 0.63173(16) 0.6428(2)
H43_5 H 0.4503 0.6425 0.6587
H44_5 H 0.3846 0.6439 0.6323
H45_5 H 0.4466 0.6233 0.6231
C37_5 C 0.3851(3) 0.60946(13) 0.66492(16)
C38_5 C 0.3720(3) 0.58204(13) 0.65523(15)
C39_5 C 0.3402(3) 0.57048(13) 0.68601(16)
C40_5 C 0.3152(5) 0.54171(14) 0.6925(2)
H46_5 H 0.2850 0.5414 0.7139
H47_5 H 0.3548 0.5295 0.6967
H48_5 H 0.2896 0.5353 0.6710
N23_3 N 0.4056(3) 0.57372(14) 0.44713(14)
C51_6 C 0.8309(4) 0.98703(17) 0.93087(18)
H61_6 H 0.8757 0.9797 0.9231
H62_6 H 0.7970 0.9720 0.9315
C52_6 C 0.8375(3) 0.99955(15) 0.96858(16)
N27_3 N 0.3921(3) 0.55938(14) 0.55959(14)
N28_5 N 0.1079(3) 0.94062(14) 0.44041(14)
N29_5 N 0.4356(3) 0.54106(13) 0.57670(14)
C56_5 C 0.3116(5) 0.59740(18) 0.5749(2)
H67_5 H 0.2751 0.5981 0.5933
H68_5 H 0.3346 0.6154 0.5735
H69_5 H 0.2915 0.5929 0.5510
C57_5 C 0.3629(4) 0.57573(16) 0.58513(18)
C58_5 C 0.3882(3) 0.56853(14) 0.61956(15)
C59_5 C 0.4339(3) 0.54661(15) 0.61313(16)
C60_5 C 0.4779(4) 0.53085(18) 0.63951(19)
H70_6 H 0.5206 0.5252 0.6273
H71_5 H 0.4890 0.5426 0.6605
H72_5 H 0.4529 0.5145 0.6480
Ag16_6 Ag 0.10438(3) 0.564850(14) 0.002890(13)
N28_6 N 0.1079(3) 0.55938(14) 0.05959(14)
C11_6 C 0.2175(5) 0.55062(15) 0.8349(2)
H13_6 H 0.2462 0.5462 0.8136
H14_6 H 0.1810 0.5368 0.8373
H15_6 H 0.2461 0.5506 0.8570
C12_6 C 0.1859(4) 0.57849(14) 0.82993(16)
C13_6 C 0.1386(3) 0.59238(14) 0.85227(16)
C14_6 C 0.1248(4) 0.61706(15) 0.83448(17)
C15_6 C 0.0771(4) 0.64003(18) 0.8456(2)
H16_6 H 0.0773 0.6544 0.8267
H17_6 H 0.0927 0.6479 0.8688
H18_6 H 0.0303 0.6328 0.8485
N7_6 N 0.0387(3) 0.56338(13) 0.92873(14)
N8_6 N 0.0944(3) 0.57372(14) 0.94713(14)
H20_6 H 0.0151 0.5472 0.8476
C17_6 C 0.0473(4) 0.56861(15) 0.89265(16)
C18_6 C 0.1088(3) 0.58257(14) 0.88731(16)
C19_6 C 0.1367(4) 0.58578(17) 0.92243(17)
C20_6 C 0.2044(5) 0.5989(3) 0.9339(2)
H22_6 H 0.2010 0.6052 0.9593
H23_6 H 0.2142 0.6148 0.9181
H24_6 H 0.2416 0.5854 0.9317
Ag9_6 Ag 0.22862(3) 0.591600(11) 0.258150(13)
Ag11_6 Ag 0.30731(3) 0.653270(11) 0.273260(14)
N17_6 N 0.2995(3) 0.59450(12) 0.30064(14)
N19_6 N 0.3377(3) 0.61872(12) 0.30311(14)
C41_6 C 0.2825(5) 0.55062(15) 0.3349(2)
H49_6 H 0.2538 0.5462 0.3136
H50_6 H 0.3190 0.5368 0.3373
H51_6 H 0.2539 0.5506 0.3570
C42_6 C 0.3141(4) 0.57849(14) 0.32993(16)
C43_6 C 0.3614(3) 0.59238(14) 0.35227(16)
C44_6 C 0.3752(4) 0.61706(15) 0.33448(17)
C45_6 C 0.4229(4) 0.64003(18) 0.3456(2)
H52_6 H 0.4227 0.6544 0.3267
H53_6 H 0.4073 0.6479 0.3688
H54_6 H 0.4697 0.6328 0.3485
N21_6 N 0.4613(3) 0.56338(13) 0.42873(14)
C46_7 C 0.5056(4) 0.5601(2) 0.3650(2)
H55_7 H 0.5443 0.5511 0.3774
H56_6 H 0.4849 0.5472 0.3476
H57_7 H 0.5223 0.5765 0.3519
C47_6 C 0.4527(4) 0.56861(15) 0.39265(16)
C48_6 C 0.3912(3) 0.58257(14) 0.38731(16)
C49_6 C 0.3633(4) 0.58578(17) 0.42243(17)
C50_6 C 0.2956(5) 0.5989(3) 0.4339(2)
H58_6 H 0.2990 0.6052 0.4593
H59_6 H 0.2858 0.6148 0.4181
H60_6 H 0.2584 0.5854 0.4317
Ag1_6 Ag 0.16143(3) 0.847470(11) 0.277980(14)
N1_6 N 0.2020(3) 0.80942(11) 0.26285(15)
N2_6 N 0.2646(3) 0.80974(11) 0.24484(14)
N3_6 N 0.1369(3) 0.88556(11) 0.30093(14)
N4_6 N 0.1656(3) 0.90986(11) 0.28782(13)
C1_6 C 0.1175(4) 0.77554(16) 0.2872(2)
H1_6 H 0.1120 0.7880 0.3081
H2_6 H 0.0781 0.7776 0.2707
H3_6 H 0.1199 0.7564 0.2959
C2_6 C 0.1828(3) 0.78257(13) 0.26713(18)
C3_6 C 0.2321(3) 0.76513(12) 0.25103(17)
C4_6 C 0.2821(3) 0.78323(13) 0.23735(17)
C5_6 C 0.3482(4) 0.77702(15) 0.21773(19)
H4_6 H 0.3530 0.7894 0.1967
H5_6 H 0.3872 0.7798 0.2344
H6_6 H 0.3478 0.7578 0.2093
C6_6 C 0.0803(4) 0.86827(16) 0.3572(2)
H7_6 H 0.0497 0.8575 0.3413
H8_6 H 0.1154 0.8561 0.3677
H9_6 H 0.0534 0.8767 0.3769
C7_6 C 0.1149(3) 0.89054(13) 0.33508(16)
C8_6 C 0.1280(3) 0.91796(13) 0.34477(15)
C9_6 C 0.1598(3) 0.92952(13) 0.31399(16)
C10_6 C 0.1848(5) 0.95829(14) 0.3075(2)
H10_6 H 0.2150 0.9586 0.2861
H11_6 H 0.1452 0.9705 0.3033
H12_6 H 0.2104 0.9647 0.3290
N12_6 N 0.0644(3) 0.95894(13) 0.42330(14)
C26_6 C 0.1884(5) 0.90260(18) 0.4251(2)
H31_6 H 0.2249 0.9019 0.4067
H32_6 H 0.1654 0.8846 0.4265
H33_6 H 0.2085 0.9071 0.4490
C27_6 C 0.1371(4) 0.92427(16) 0.41487(18)
C28_6 C 0.1118(3) 0.93147(14) 0.38044(15)
C29_6 C 0.0661(3) 0.95339(15) 0.38687(16)
C30_6 C 0.0221(4) 0.96915(18) 0.36049(19)
H35_6 H 0.0110 0.9574 0.3395
H36_6 H 0.0471 0.9855 0.3520
Ag7_6 Ag 0.16143(3) 0.652530(11) 0.222020(14)
N13_6 N 0.2020(3) 0.69058(11) 0.23715(15)
N14_6 N 0.2646(3) 0.69026(11) 0.25516(14)
N15_6 N 0.1369(3) 0.61444(11) 0.19907(14)
N16_6 N 0.1656(3) 0.59014(11) 0.21218(13)
C31_6 C 0.1175(4) 0.72446(16) 0.2128(2)
H37_6 H 0.1120 0.7120 0.1919
H38_6 H 0.0781 0.7224 0.2293
H39_6 H 0.1199 0.7436 0.2041
C32_6 C 0.1828(3) 0.71743(13) 0.23287(18)
C33_6 C 0.2321(3) 0.73487(12) 0.24897(17)
C34_6 C 0.2821(3) 0.71677(13) 0.26265(17)
C35_6 C 0.3482(4) 0.72298(15) 0.28227(19)
H40_6 H 0.3530 0.7106 0.3033
H41_6 H 0.3872 0.7202 0.2656
H42_6 H 0.3478 0.7422 0.2907
C36_6 C 0.0803(4) 0.63173(16) 0.1428(2)
H43_6 H 0.0497 0.6425 0.1587
H44_6 H 0.1154 0.6439 0.1323
H45_6 H 0.0534 0.6233 0.1231
C37_6 C 0.1149(3) 0.60946(13) 0.16492(16)
C38_6 C 0.1280(3) 0.58204(13) 0.15523(15)
C39_6 C 0.1598(3) 0.57048(13) 0.18601(16)
C40_6 C 0.1848(5) 0.54171(14) 0.1925(2)
H46_6 H 0.2150 0.5414 0.2139
H47_6 H 0.1452 0.5295 0.1967
H48_6 H 0.2104 0.5353 0.1710
N29_6 N 0.0644(3) 0.54106(13) 0.07670(14)
C56_6 C 0.1884(5) 0.59740(18) 0.0749(2)
H67_6 H 0.2249 0.5981 0.0933
H68_6 H 0.1654 0.6154 0.0735
H69_6 H 0.2085 0.5929 0.0510
C57_6 C 0.1371(4) 0.57573(16) 0.08513(18)
C58_6 C 0.1118(3) 0.56853(14) 0.11956(15)
C59_6 C 0.0661(3) 0.54661(15) 0.11313(16)
C60_6 C 0.0221(4) 0.53085(18) 0.13951(19)
H71_6 H 0.0110 0.5426 0.1605
H72_6 H 0.0471 0.5145 0.1480
Ag16_7 Ag 0.60438(3) 0.064850(14) 0.002890(13)
N23_4 N 0.9056(3) 0.42628(14) 0.05287(14)
N28_7 N 0.6079(3) 0.05938(14) 0.05959(14)
Ag1_7 Ag 0.83857(3) 0.152530(11) 0.722020(14)
Ag2_4 Ag 0.77138(3) 0.091600(11) 0.758150(13)
Ag3_4 Ag 0.69269(3) 0.153270(11) 0.773260(14)
Ag6_4 Ag 0.89562(3) 0.064850(14) 0.502890(13)
N1_7 N 0.7980(3) 0.19058(11) 0.73715(15)
N2_7 N 0.7354(3) 0.19026(11) 0.75516(14)
N3_7 N 0.8631(3) 0.11444(11) 0.69907(14)
N4_7 N 0.8344(3) 0.09014(11) 0.71218(13)
N5_4 N 0.7005(3) 0.09450(12) 0.80064(14)
N6_4 N 0.6623(3) 0.11872(12) 0.80311(14)
C1_7 C 0.8825(4) 0.22446(16) 0.7128(2)
H1_7 H 0.8880 0.2120 0.6919
H2_7 H 0.9219 0.2224 0.7293
H3_7 H 0.8801 0.2436 0.7041
C2_7 C 0.8172(3) 0.21743(13) 0.73287(18)
C3_7 C 0.7679(3) 0.23487(12) 0.74897(17)
C4_7 C 0.7179(3) 0.21677(13) 0.76265(17)
C5_7 C 0.6518(4) 0.22298(15) 0.78227(19)
H4_7 H 0.6470 0.2106 0.8033
H5_7 H 0.6128 0.2202 0.7656
H6_7 H 0.6522 0.2422 0.7907
C6_7 C 0.9197(4) 0.13173(16) 0.6428(2)
H7_7 H 0.9503 0.1425 0.6587
H8_7 H 0.8846 0.1439 0.6323
H9_7 H 0.9466 0.1233 0.6231
C7_7 C 0.8851(3) 0.10946(13) 0.66492(16)
C8_7 C 0.8720(3) 0.08204(13) 0.65523(15)
C9_7 C 0.8402(3) 0.07048(13) 0.68601(16)
C10_7 C 0.8152(5) 0.04171(14) 0.6925(2)
H10_7 H 0.7850 0.0414 0.7139
H11_7 H 0.8548 0.0295 0.6967
H12_7 H 0.7896 0.0353 0.6710
C11_7 C 0.7175(5) 0.05062(15) 0.8349(2)
H13_7 H 0.7462 0.0462 0.8136
H14_7 H 0.6810 0.0368 0.8373
H15_7 H 0.7461 0.0506 0.8570
C12_7 C 0.6859(4) 0.07849(14) 0.82993(16)
C13_7 C 0.6386(3) 0.09238(14) 0.85227(16)
C14_7 C 0.6248(4) 0.11706(15) 0.83448(17)
C15_7 C 0.5771(4) 0.14003(18) 0.8456(2)
H16_7 H 0.5773 0.1544 0.8267
H17_7 H 0.5927 0.1479 0.8688
H18_7 H 0.5303 0.1328 0.8485
N7_7 N 0.5387(3) 0.06338(13) 0.92873(14)
N8_7 N 0.5944(3) 0.07372(14) 0.94713(14)
C16_6 C 0.4944(4) 0.0601(2) 0.8650(2)
H19_6 H 0.4557 0.0511 0.8774
H20_7 H 0.5151 0.0472 0.8476
H21_6 H 0.4777 0.0765 0.8519
C17_7 C 0.5473(4) 0.06861(15) 0.89265(16)
C18_7 C 0.6088(3) 0.08257(14) 0.88731(16)
C19_7 C 0.6367(4) 0.08578(17) 0.92243(17)
C20_7 C 0.7044(5) 0.0989(3) 0.9339(2)
H22_7 H 0.7010 0.1052 0.9593
H23_7 H 0.7142 0.1148 0.9181
H24_7 H 0.7416 0.0854 0.9317
N11_4 N 0.8921(3) 0.05938(14) 0.55959(14)
N12_7 N 0.9356(3) 0.04106(13) 0.57670(14)
C26_7 C 0.8116(5) 0.09740(18) 0.5749(2)
H31_7 H 0.7751 0.0981 0.5933
H32_7 H 0.8346 0.1154 0.5735
H33_7 H 0.7915 0.0929 0.5510
C27_7 C 0.8629(4) 0.07573(16) 0.58513(18)
C28_7 C 0.8882(3) 0.06853(14) 0.61956(15)
C29_7 C 0.9339(3) 0.04661(15) 0.61313(16)
C30_7 C 0.9779(4) 0.03085(18) 0.63951(19)
H35_7 H 0.9890 0.0426 0.6605
H36_7 H 0.9529 0.0145 0.6480
Ag7_7 Ag 0.83857(3) 0.347470(11) 0.777980(14)
Ag8_4 Ag 0.77138(3) 0.408400(11) 0.741850(13)
Ag9_7 Ag 0.72862(3) 0.091600(11) 0.258150(13)
Ag10_4 Ag 0.69269(3) 0.346730(11) 0.726740(14)
Ag11_7 Ag 0.80731(3) 0.153270(11) 0.273260(14)
Ag14_6 Ag 0.46604(3) 0.040850(13) 0.957270(13)
Ag17_4 Ag 0.89562(3) 0.435150(14) 0.997110(13)
N13_7 N 0.7980(3) 0.30942(11) 0.76285(15)
N14_7 N 0.7354(3) 0.30974(11) 0.74484(14)
N15_7 N 0.8631(3) 0.38556(11) 0.80093(14)
N16_7 N 0.8344(3) 0.40986(11) 0.78782(13)
N17_7 N 0.7995(3) 0.09450(12) 0.30064(14)
N18_4 N 0.7005(3) 0.40550(12) 0.69936(14)
N19_7 N 0.8377(3) 0.11872(12) 0.30311(14)
N20_4 N 0.6623(3) 0.38128(12) 0.69689(14)
C31_7 C 0.8825(4) 0.27554(16) 0.7872(2)
H37_7 H 0.8880 0.2880 0.8081
H38_7 H 0.9219 0.2776 0.7707
H39_7 H 0.8801 0.2564 0.7959
C32_7 C 0.8172(3) 0.28257(13) 0.76713(18)
C33_7 C 0.7679(3) 0.26513(12) 0.75103(17)
C34_7 C 0.7179(3) 0.28323(13) 0.73735(17)
C35_7 C 0.6518(4) 0.27702(15) 0.71773(19)
H40_7 H 0.6470 0.2894 0.6967
H41_7 H 0.6128 0.2798 0.7344
H42_7 H 0.6522 0.2578 0.7093
C36_7 C 0.9197(4) 0.36827(16) 0.8572(2)
H43_7 H 0.9503 0.3575 0.8413
H44_7 H 0.8846 0.3561 0.8677
H45_7 H 0.9466 0.3767 0.8769
C37_7 C 0.8851(3) 0.39054(13) 0.83508(16)
C38_7 C 0.8720(3) 0.41796(13) 0.84477(15)
C39_7 C 0.8402(3) 0.42952(13) 0.81399(16)
C40_7 C 0.8152(5) 0.45829(14) 0.8075(2)
H46_7 H 0.7850 0.4586 0.7861
H47_7 H 0.8548 0.4705 0.8033
H48_7 H 0.7896 0.4647 0.8290
C41_7 C 0.7825(5) 0.05062(15) 0.3349(2)
H49_7 H 0.7538 0.0462 0.3136
H50_7 H 0.8190 0.0368 0.3373
H51_7 H 0.7539 0.0506 0.3570
C42_7 C 0.8141(4) 0.07849(14) 0.32993(16)
C43_7 C 0.8614(3) 0.09238(14) 0.35227(16)
C44_7 C 0.8752(4) 0.11706(15) 0.33448(17)
C45_7 C 0.9229(4) 0.14003(18) 0.3456(2)
H52_7 H 0.9227 0.1544 0.3267
H53_7 H 0.9073 0.1479 0.3688
H54_7 H 0.9697 0.1328 0.3485
N21_7 N 0.9613(3) 0.06338(13) 0.42873(14)
N22_4 N 0.9056(3) 0.07372(14) 0.44713(14)
H56_7 H 0.9849 0.0472 0.3476
C47_7 C 0.9527(4) 0.06861(15) 0.39265(16)
C48_7 C 0.8912(3) 0.08257(14) 0.38731(16)
C49_7 C 0.8633(4) 0.08578(17) 0.42243(17)
C50_7 C 0.7956(5) 0.0989(3) 0.4339(2)
H58_7 H 0.7990 0.1052 0.4593
H59_7 H 0.7858 0.1148 0.4181
H60_7 H 0.7584 0.0854 0.4317
N27_4 N 0.8921(3) 0.44062(14) 0.94041(14)
N29_7 N 0.9356(3) 0.45894(13) 0.92330(14)
C56_7 C 0.8116(5) 0.40260(18) 0.9251(2)
H67_7 H 0.7751 0.4019 0.9067
H68_7 H 0.8346 0.3846 0.9265
H69_7 H 0.7915 0.4071 0.9490
C57_7 C 0.8629(4) 0.42427(16) 0.91487(18)
C58_7 C 0.8882(3) 0.43147(14) 0.88044(15)
C59_7 C 0.9339(3) 0.45339(15) 0.88687(16)
C60_7 C 0.9779(4) 0.46915(18) 0.86049(19)
H71_7 H 0.9890 0.4574 0.8395
H72_7 H 0.9529 0.4855 0.8520
Ag9_8 Ag 0.72862(3) 0.408400(11) 0.241850(13)
Ag11_8 Ag 0.80731(3) 0.346730(11) 0.226740(14)
N17_8 N 0.7995(3) 0.40550(12) 0.19936(14)
N19_8 N 0.8377(3) 0.38128(12) 0.19689(14)
C41_8 C 0.7825(5) 0.44938(15) 0.1651(2)
H49_8 H 0.7538 0.4538 0.1864
H50_8 H 0.8190 0.4632 0.1627
H51_8 H 0.7539 0.4494 0.1430
C42_8 C 0.8141(4) 0.42151(14) 0.17007(16)
C43_8 C 0.8614(3) 0.40762(14) 0.14773(16)
C44_8 C 0.8752(4) 0.38294(15) 0.16552(17)
C45_8 C 0.9229(4) 0.35997(18) 0.1544(2)
H52_8 H 0.9227 0.3456 0.1733
H53_8 H 0.9073 0.3521 0.1312
H54_8 H 0.9697 0.3672 0.1515
N21_8 N 0.9613(3) 0.43662(13) 0.07127(14)
H56_8 H 0.9849 0.4528 0.1524
C47_8 C 0.9527(4) 0.43139(15) 0.10735(16)
C48_8 C 0.8912(3) 0.41743(14) 0.11269(16)
C49_8 C 0.8633(4) 0.41422(17) 0.07757(17)
C50_8 C 0.7956(5) 0.4011(3) 0.0661(2)
H58_8 H 0.7990 0.3948 0.0407
H59_8 H 0.7858 0.3852 0.0819
H60_8 H 0.7584 0.4146 0.0683
C11_8 C 0.7175(5) 0.44938(15) 0.6651(2)
H13_8 H 0.7462 0.4538 0.6864
H14_8 H 0.6810 0.4632 0.6627
H15_8 H 0.7461 0.4494 0.6430
C12_8 C 0.6859(4) 0.42151(14) 0.67007(16)
C13_8 C 0.6386(3) 0.40762(14) 0.64773(16)
C14_8 C 0.6248(4) 0.38294(15) 0.66552(17)
C15_8 C 0.5771(4) 0.35997(18) 0.6544(2)
H16_8 H 0.5773 0.3456 0.6733
H17_8 H 0.5927 0.3521 0.6312
H18_8 H 0.5303 0.3672 0.6515
N7_8 N 0.5387(3) 0.43662(13) 0.57127(14)
N8_8 N 0.5944(3) 0.42628(14) 0.55287(14)
C16_7 C 0.4944(4) 0.4399(2) 0.6350(2)
H19_7 H 0.4557 0.4489 0.6226
H20_8 H 0.5151 0.4528 0.6524
H21_7 H 0.4777 0.4235 0.6481
C17_8 C 0.5473(4) 0.43139(15) 0.60735(16)
C18_8 C 0.6088(3) 0.41743(14) 0.61269(16)
C19_8 C 0.6367(4) 0.41422(17) 0.57757(17)
C20_8 C 0.7044(5) 0.4011(3) 0.5661(2)
H22_8 H 0.7010 0.3948 0.5407
H23_8 H 0.7142 0.3852 0.5819
H24_8 H 0.7416 0.4146 0.5683
Ag14_7 Ag 0.46604(3) 0.459150(13) 0.542730(13)
Ag16_8 Ag 0.60438(3) 0.435150(14) 0.497110(13)
N28_8 N 0.6079(3) 0.44062(14) 0.44041(14)
C16_8 C 0.0056(4) 0.5601(2) 0.6350(2)
H19_8 H 0.0443 0.5511 0.6226
H21_8 H 0.0223 0.5765 0.6481
Ag14_8 Ag 0.03396(3) 0.540850(13) 0.542730(13)
Ag4_5 Ag 0.01208(3) 0.520970(12) 0.452910(13)
N9_5 N 0.1015(3) 0.50917(13) 0.48058(13)
N10_7 N 0.1114(3) 0.52065(14) 0.51499(15)
C21_7 C 0.1691(4) 0.48703(17) 0.43087(18)
H25_7 H 0.1243 0.4797 0.4231
H26_7 H 0.2030 0.4720 0.4315
H27_7 H 0.1842 0.5012 0.4135
C22_7 C 0.1625(3) 0.49955(15) 0.46858(16)
C23_7 C 0.2132(3) 0.50375(15) 0.49539(17)
C24_7 C 0.1779(3) 0.51740(16) 0.52401(17)
C25_7 C 0.2039(4) 0.5285(2) 0.5606(2)
H28_7 H 0.1812 0.5461 0.5659
H29_7 H 0.2539 0.5314 0.5593
H30_7 H 0.1934 0.5153 0.5800
H34_7 H 0.0206 0.5252 0.3727
Ag12_4 Ag 0.48792(3) 0.479030(12) 0.452910(13)
Ag13_6 Ag 0.01208(3) 0.979030(12) 0.047090(13)
N24_4 N 0.3985(3) 0.49083(13) 0.48058(13)
N25_6 N 0.1015(3) 0.99083(13) 0.01942(13)
N26_7 N 0.3886(3) 0.47935(14) 0.51499(15)
C51_7 C 0.3309(4) 0.51297(17) 0.43087(18)
H61_7 H 0.3757 0.5203 0.4231
H62_7 H 0.2970 0.5280 0.4315
H63_7 H 0.3158 0.4988 0.4135
C52_7 C 0.3375(3) 0.50045(15) 0.46858(16)
C53_7 C 0.2868(3) 0.49625(15) 0.49539(17)
C54_7 C 0.3221(3) 0.48260(16) 0.52401(17)
C55_7 C 0.2961(4) 0.4715(2) 0.5606(2)
H64_7 H 0.3188 0.4539 0.5659
H65_7 H 0.2461 0.4686 0.5593
H66_7 H 0.3066 0.4847 0.5800
H70_7 H 0.0206 0.9748 0.1273
Ag1_8 Ag 0.66143(3) 0.152530(11) 0.222020(14)
Ag4_6 Ag 0.48792(3) 0.020970(12) 0.047090(13)
N1_8 N 0.7020(3) 0.19058(11) 0.23715(15)
N2_8 N 0.7646(3) 0.19026(11) 0.25516(14)
N3_8 N 0.6369(3) 0.11444(11) 0.19907(14)
N4_8 N 0.6656(3) 0.09014(11) 0.21218(13)
C1_8 C 0.6175(4) 0.22446(16) 0.2128(2)
H1_8 H 0.6120 0.2120 0.1919
H2_8 H 0.5781 0.2224 0.2293
H3_8 H 0.6199 0.2436 0.2041
C2_8 C 0.6828(3) 0.21743(13) 0.23287(18)
C3_8 C 0.7321(3) 0.23487(12) 0.24897(17)
C4_8 C 0.7821(3) 0.21677(13) 0.26265(17)
C5_8 C 0.8482(4) 0.22298(15) 0.28227(19)
H4_8 H 0.8530 0.2106 0.3033
H5_8 H 0.8872 0.2202 0.2656
H6_8 H 0.8478 0.2422 0.2907
C6_8 C 0.5803(4) 0.13173(16) 0.1428(2)
H7_8 H 0.5497 0.1425 0.1587
H8_8 H 0.6154 0.1439 0.1323
H9_8 H 0.5534 0.1233 0.1231
C7_8 C 0.6149(3) 0.10946(13) 0.16492(16)
C8_8 C 0.6280(3) 0.08204(13) 0.15523(15)
C9_8 C 0.6598(3) 0.07048(13) 0.18601(16)
C10_8 C 0.6848(5) 0.04171(14) 0.1925(2)
H10_8 H 0.7150 0.0414 0.2139
H11_8 H 0.6452 0.0295 0.1967
H12_8 H 0.7104 0.0353 0.1710
N9_6 N 0.3985(3) 0.00917(13) 0.01942(13)
H27_8 H 0.3158 0.0012 0.0865
C23_8 C 0.2868(3) 0.00375(15) 0.00461(17)
N12_8 N 0.5644(3) 0.04106(13) 0.07670(14)
C26_8 C 0.6884(5) 0.09740(18) 0.0749(2)
H31_8 H 0.7249 0.0981 0.0933
H32_8 H 0.6654 0.1154 0.0735
H33_8 H 0.7085 0.0929 0.0510
C27_8 C 0.6371(4) 0.07573(16) 0.08513(18)
C28_8 C 0.6118(3) 0.06853(14) 0.11956(15)
C29_8 C 0.5661(3) 0.04661(15) 0.11313(16)
C30_8 C 0.5221(4) 0.03085(18) 0.13951(19)
H34_8 H 0.4794 0.0252 0.1273
H35_8 H 0.5110 0.0426 0.1605
H36_8 H 0.5471 0.0145 0.1480
Ag7_8 Ag 0.66143(3) 0.347470(11) 0.277980(14)
N13_8 N 0.7020(3) 0.30942(11) 0.26285(15)
N14_8 N 0.7646(3) 0.30974(11) 0.24484(14)
N15_8 N 0.6369(3) 0.38556(11) 0.30093(14)
N16_8 N 0.6656(3) 0.40986(11) 0.28782(13)
C31_8 C 0.6175(4) 0.27554(16) 0.2872(2)
H37_8 H 0.6120 0.2880 0.3081
H38_8 H 0.5781 0.2776 0.2707
H39_8 H 0.6199 0.2564 0.2959
C32_8 C 0.6828(3) 0.28257(13) 0.26713(18)
C33_8 C 0.7321(3) 0.26513(12) 0.25103(17)
C34_8 C 0.7821(3) 0.28323(13) 0.23735(17)
C35_8 C 0.8482(4) 0.27702(15) 0.21773(19)
H40_8 H 0.8530 0.2894 0.1967
H41_8 H 0.8872 0.2798 0.2344
H42_8 H 0.8478 0.2578 0.2093
C36_8 C 0.5803(4) 0.36827(16) 0.3572(2)
H43_8 H 0.5497 0.3575 0.3413
H44_8 H 0.6154 0.3561 0.3677
H45_8 H 0.5534 0.3767 0.3769
C37_8 C 0.6149(3) 0.39054(13) 0.33508(16)
C38_8 C 0.6280(3) 0.41796(13) 0.34477(15)
C39_8 C 0.6598(3) 0.42952(13) 0.31399(16)
C40_8 C 0.6848(5) 0.45829(14) 0.3075(2)
H46_8 H 0.7150 0.4586 0.2861
H47_8 H 0.6452 0.4705 0.3033
H48_8 H 0.7104 0.4647 0.3290
C51_8 C 0.1691(4) 0.01297(17) 0.06913(18)
H61_8 H 0.1243 0.0203 0.0769
H62_8 H 0.2030 0.0280 0.0685
C52_8 C 0.1625(3) 0.00045(15) 0.03142(16)
N29_8 N 0.5644(3) 0.45894(13) 0.42330(14)
C56_8 C 0.6884(5) 0.40260(18) 0.4251(2)
H67_8 H 0.7249 0.4019 0.4067
H68_8 H 0.6654 0.3846 0.4265
H69_8 H 0.7085 0.4071 0.4490
C57_8 C 0.6371(4) 0.42427(16) 0.41487(18)
C58_8 C 0.6118(3) 0.43147(14) 0.38044(15)
C59_8 C 0.5661(3) 0.45339(15) 0.38687(16)
C60_8 C 0.5221(4) 0.46915(18) 0.36049(19)
H70_8 H 0.4794 0.4748 0.3727
H71_8 H 0.5110 0.4574 0.3395
H72_8 H 0.5471 0.4855 0.3520
N10_8 N 0.3886(3) 0.02065(14) 0.98501(15)
C24_8 C 0.3221(3) 0.01740(16) 0.97599(17)
C25_8 C 0.2961(4) 0.0285(2) 0.9394(2)
H28_8 H 0.3188 0.0461 0.9341
H29_8 H 0.2461 0.0314 0.9407
H30_8 H 0.3066 0.0153 0.9200
C21_8 C 0.3309(4) 0.98703(17) 0.06913(18)
H25_8 H 0.3757 0.9797 0.0769
H26_8 H 0.2970 0.9720 0.0685
C22_8 C 0.3375(3) 0.99955(15) 0.03142(16)
H63_8 H 0.1842 0.9988 0.0865
C53_8 C 0.2132(3) 0.99625(15) 0.00461(17)
Ag15_4 Ag 0.96604(3) 0.040850(13) 0.042730(13)
N26_8 N 0.8886(3) 0.02065(14) 0.01499(15)
C54_8 C 0.8221(3) 0.01740(16) 0.02401(17)
C55_8 C 0.7961(4) 0.0285(2) 0.0606(2)
H64_8 H 0.8188 0.0461 0.0659
H65_8 H 0.7461 0.0314 0.0593
H66_8 H 0.8066 0.0153 0.0800
C46_8 C 0.9944(4) 0.0601(2) 0.1350(2)
H55_8 H 0.9557 0.0511 0.1226
H57_8 H 0.9777 0.0765 0.1481
N33 N 0.4672(3) 0.07252(12) 0.75712(16)
H80 H 0.4016 0.0048 0.6956
C69 C 0.5000 0.0282(2) 0.7500
C70 C 0.4472(4) 0.04588(13) 0.76160(18)
C71 C 0.3783(4) 0.03937(16) 0.7781(2)
H82 H 0.3705 0.0513 0.7994
H83 H 0.3773 0.0200 0.7858
H84 H 0.3420 0.0426 0.7600
Ag28 Ag 0.42085(3) 0.109490(11) 0.771950(15)
Ag29 Ag 0.57915(3) 0.109490(11) 0.728050(15)
N45 N 0.5328(3) 0.07252(12) 0.74288(16)
N50 N 0.6104(3) 0.14579(11) 0.70214(14)
H116 H 0.5984 0.0048 0.8044
C99 C 0.5528(4) 0.04588(13) 0.73840(18)
C100 C 0.6217(4) 0.03937(16) 0.7219(2)
H118 H 0.6295 0.0513 0.7006
H119 H 0.6227 0.0200 0.7142
H120 H 0.6580 0.0426 0.7400
N50_2 N 0.3896(3) 0.14579(11) 0.79786(14)
Ag18 Ag 0.5000 0.148230(15) 0.2500
Ag19 Ag 0.56057(3) 0.084340(11) 0.281220(15)
Ag22 Ag 0.76336(3) 0.229520(15) 0.541170(15)
Ag23 Ag 0.78451(3) 0.208090(15) 0.451870(14)
Ag24 Ag 0.65230(4) 0.182170(17) 0.500100(14)
N30 N 0.5655(3) 0.14698(11) 0.29534(14)
N31 N 0.5827(3) 0.12082(11) 0.30845(15)
N32 N 0.5287(3) 0.04632(11) 0.26109(15)
N34 N 0.5704(3) 0.16920(11) 0.70773(14)
C61 C 0.5729(5) 0.19580(15) 0.3154(2)
H73 H 0.5322 0.1986 0.3000
H74 H 0.5657 0.2048 0.3391
H75 H 0.6134 0.2038 0.3034
C62 C 0.5841(4) 0.16562(14) 0.32111(16)
C63 C 0.6126(3) 0.15202(13) 0.35136(16)
C64 C 0.6112(4) 0.12388(15) 0.34178(18)
C65 C 0.6363(5) 0.09928(17) 0.3631(2)
H76 H 0.6465 0.0841 0.3463
H77 H 0.6781 0.1043 0.3766
H78 H 0.6005 0.0935 0.3804
C66 C 0.6069(4) 0.01283(16) 0.2920(2)
H79 H 0.6134 0.0274 0.3103
H81 H 0.6484 0.0113 0.2769
C67 C 0.5460(4) 0.01987(15) 0.26803(18)
C68 C 0.5000 0.00233(19) 0.2500
C72 C 0.5383(4) 0.21267(15) 0.6753(2)
H85 H 0.5193 0.2175 0.6993
H86 H 0.5008 0.2108 0.6576
H87 H 0.5700 0.2272 0.6673
C73 C 0.5765(3) 0.18582(13) 0.67820(16)
C74 C 0.6213(3) 0.17335(14) 0.65321(16)
C75 C 0.6406(4) 0.14865(15) 0.66919(17)
C76 C 0.6889(4) 0.12621(17) 0.6551(2)
H88 H 0.7099 0.1166 0.6758
H89 H 0.7251 0.1346 0.6401
H90 H 0.6627 0.1130 0.6403
N36 N 0.6888(3) 0.20916(14) 0.57186(15)
N37 N 0.6505(3) 0.18861(16) 0.55618(15)
C77 C 0.7224(5) 0.2253(2) 0.6345(2)
H91 H 0.7714 0.2256 0.6281
H92 H 0.7169 0.2187 0.6596
H93 H 0.7034 0.2440 0.6324
C78 C 0.6842(4) 0.20616(17) 0.60853(17)
C79 C 0.6414(3) 0.18421(14) 0.61676(16)
C80 C 0.6212(4) 0.17344(19) 0.58276(18)
C81 C 0.5752(5) 0.1491(2) 0.5742(2)
H94 H 0.5684 0.1477 0.5478
H95 H 0.5304 0.1516 0.5863
H96 H 0.5968 0.1321 0.5832
N38 N 0.7112(3) 0.18517(14) 0.42467(14)
N39 N 0.6582(3) 0.17387(16) 0.44435(15)
C82 C 0.7514(4) 0.1889(2) 0.36042(19)
H97 H 0.7946 0.1943 0.3723
H98 H 0.7320 0.2048 0.3474
H99 H 0.7603 0.1739 0.3430
C83 C 0.7011(4) 0.17918(15) 0.38890(17)
C84 C 0.6412(3) 0.16360(15) 0.38544(17)
C85 C 0.6152(4) 0.16080(19) 0.42086(18)
C86 C 0.5522(5) 0.1464(3) 0.4341(2)
H100 H 0.5510 0.1276 0.4240
H101 H 0.5112 0.1565 0.4260
H102 H 0.5529 0.1455 0.4608
N40 N 0.8520(3) 0.24084(15) 0.51294(15)
N41 N 0.8623(3) 0.22871(14) 0.47887(15)
C87 C 0.9197(4) 0.26363(19) 0.5617(2)
H103 H 0.9559 0.2777 0.5612
H104 H 0.9317 0.2494 0.5796
H105 H 0.8758 0.2722 0.5686
C88 C 0.9129(4) 0.25070(16) 0.52433(17)
C89 C 0.9636(4) 0.24595(18) 0.49741(18)
C90 C 0.9284(4) 0.23216(18) 0.4694(2)
C91 C 0.9556(4) 0.2204(2) 0.4340(2)
H106 H 0.9319 0.2031 0.4286
H108 H 0.9473 0.2336 0.4142
Ag25 Ag 0.43943(3) 0.084340(11) 0.218780(15)
Ag26 Ag 0.5000 0.169670(16) 0.7500
Ag32 Ag 0.21549(3) 0.208090(15) 0.048130(14)
N42 N 0.4345(3) 0.14698(11) 0.20466(14)
N43 N 0.4173(3) 0.12082(11) 0.19155(15)
N44 N 0.4713(3) 0.04632(11) 0.23891(15)
C92 C 0.4271(5) 0.19580(15) 0.1846(2)
H109 H 0.4678 0.1986 0.2000
H110 H 0.4343 0.2048 0.1609
H111 H 0.3866 0.2038 0.1966
C93 C 0.4159(4) 0.16562(14) 0.17889(16)
C94 C 0.3874(3) 0.15202(13) 0.14864(16)
C95 C 0.3888(4) 0.12388(15) 0.15822(18)
C96 C 0.3637(5) 0.09928(17) 0.1369(2)
H112 H 0.3535 0.0841 0.1537
H113 H 0.3219 0.1043 0.1234
H114 H 0.3995 0.0935 0.1196
C97 C 0.3931(4) 0.01283(16) 0.2080(2)
H115 H 0.3866 0.0274 0.1897
H117 H 0.3516 0.0113 0.2231
C98 C 0.4540(4) 0.01987(15) 0.23197(18)
N53 N 0.2888(3) 0.18517(14) 0.07533(14)
N54 N 0.3418(3) 0.17387(16) 0.05565(15)
C111 C 0.2486(4) 0.1889(2) 0.13958(19)
H133 H 0.2054 0.1943 0.1277
H134 H 0.2680 0.2048 0.1526
H135 H 0.2397 0.1739 0.1570
C112 C 0.2989(4) 0.17918(15) 0.11110(17)
C113 C 0.3588(3) 0.16360(15) 0.11456(17)
C114 C 0.3848(4) 0.16080(19) 0.07914(18)
C115 C 0.4478(5) 0.1464(3) 0.0659(2)
H136 H 0.4490 0.1276 0.0760
H137 H 0.4888 0.1565 0.0740
H138 H 0.4471 0.1455 0.0392
N58 N 0.1377(3) 0.22871(14) 0.02113(15)
H143 H 0.9948 0.2830 0.4363
Ag30 Ag 0.23664(3) 0.229520(15) 0.958830(15)
Ag34 Ag 0.34770(4) 0.182170(17) 0.999900(14)
N47 N 0.4296(3) 0.16920(11) 0.79227(14)
C101 C 0.4617(4) 0.21267(15) 0.8247(2)
H121 H 0.4807 0.2175 0.8007
H122 H 0.4992 0.2108 0.8424
H123 H 0.4300 0.2272 0.8327
C102 C 0.4235(3) 0.18582(13) 0.82180(16)
C103 C 0.3787(3) 0.17335(14) 0.84679(16)
C104 C 0.3594(4) 0.14865(15) 0.83081(17)
C105 C 0.3111(4) 0.12621(17) 0.8449(2)
H124 H 0.2901 0.1166 0.8242
H125 H 0.2749 0.1346 0.8599
H126 H 0.3373 0.1130 0.8597
N51 N 0.3112(3) 0.20916(14) 0.92814(15)
N52 N 0.3495(3) 0.18861(16) 0.94382(15)
C106 C 0.2776(5) 0.2253(2) 0.8655(2)
H127 H 0.2286 0.2256 0.8719
H128 H 0.2831 0.2187 0.8404
H129 H 0.2966 0.2440 0.8676
C107 C 0.3158(4) 0.20616(17) 0.89147(17)
C108 C 0.3586(3) 0.18421(14) 0.88324(16)
C109 C 0.3788(4) 0.17344(19) 0.91724(18)
C110 C 0.4248(5) 0.1491(2) 0.9258(2)
H130 H 0.4316 0.1477 0.9522
H131 H 0.4696 0.1516 0.9137
H132 H 0.4032 0.1321 0.9168
N56 N 0.1480(3) 0.24084(15) 0.98706(15)
C89_2 C 0.0364(4) 0.24595(18) 0.00259(18)
C90_2 C 0.0716(4) 0.23216(18) 0.0306(2)
C91_2 C 0.0444(4) 0.2204(2) 0.0660(2)
H106_2 H 0.0681 0.2031 0.0714
H108_2 H 0.0527 0.2336 0.0858
H143_2 H 0.0052 0.2830 0.0637
C87_2 C 0.0803(4) 0.26363(19) 0.9383(2)
H103_2 H 0.0441 0.2777 0.9388
H104_2 H 0.0683 0.2494 0.9204
H105_2 H 0.1242 0.2722 0.9314
C88_2 C 0.0871(4) 0.25070(16) 0.97567(17)
Ag20 Ag 0.5000 0.830330(16) 0.2500
Ag21 Ag 0.57915(3) 0.890510(11) 0.228050(15)
Ag30_2 Ag 0.76336(3) 0.770480(15) 0.041170(15)
Ag34_2 Ag 0.65230(4) 0.817830(17) 0.000100(14)
N46 N 0.5328(3) 0.92748(12) 0.24288(16)
N47_2 N 0.5704(3) 0.83080(11) 0.20773(14)
N48 N 0.4296(3) 0.83080(11) 0.29227(14)
N49 N 0.6104(3) 0.85421(11) 0.20214(14)
C101_2 C 0.5383(4) 0.78733(15) 0.1753(2)
H121_2 H 0.5193 0.7825 0.1993
H122_2 H 0.5008 0.7892 0.1576
H123_2 H 0.5700 0.7728 0.1673
C102_2 C 0.5765(3) 0.81418(13) 0.17820(16)
C103_2 C 0.6213(3) 0.82665(14) 0.15321(16)
C104_2 C 0.6406(4) 0.85135(15) 0.16919(17)
C105_2 C 0.6889(4) 0.87379(17) 0.1551(2)
H124_2 H 0.7099 0.8834 0.1758
H125_2 H 0.7251 0.8654 0.1401
H126_2 H 0.6627 0.8870 0.1403
N51_2 N 0.6888(3) 0.79084(14) 0.07186(15)
N52_2 N 0.6505(3) 0.81139(16) 0.05618(15)
C106_2 C 0.7224(5) 0.7747(2) 0.1345(2)
H127_2 H 0.7714 0.7744 0.1281
H128_2 H 0.7169 0.7813 0.1596
H129_2 H 0.7034 0.7560 0.1324
C107_2 C 0.6842(4) 0.79384(17) 0.10853(17)
C108_2 C 0.6414(3) 0.81579(14) 0.11676(16)
C109_2 C 0.6212(4) 0.82656(19) 0.08276(18)
C110_2 C 0.5752(5) 0.8509(2) 0.0742(2)
H130_2 H 0.5684 0.8523 0.0478
H131_2 H 0.5304 0.8484 0.0863
H132_2 H 0.5968 0.8679 0.0832
N56_2 N 0.8520(3) 0.75916(15) 0.01294(15)
Ag18_2 Ag 0.5000 0.851770(15) 0.7500
Ag19_2 Ag 0.43943(3) 0.915660(11) 0.718780(15)
Ag22_2 Ag 0.23664(3) 0.770480(15) 0.458830(15)
Ag23_2 Ag 0.21549(3) 0.791910(15) 0.548130(14)
Ag24_2 Ag 0.34770(4) 0.817830(17) 0.499900(14)
N30_2 N 0.4345(3) 0.85302(11) 0.70466(14)
N31_2 N 0.4173(3) 0.87918(11) 0.69155(15)
N32_2 N 0.4713(3) 0.95368(11) 0.73891(15)
N35 N 0.3896(3) 0.85421(11) 0.29786(14)
C61_2 C 0.4271(5) 0.80420(15) 0.6846(2)
H73_2 H 0.4678 0.8014 0.7000
H74_2 H 0.4343 0.7952 0.6609
H75_2 H 0.3866 0.7962 0.6966
C62_2 C 0.4159(4) 0.83438(14) 0.67889(16)
C63_2 C 0.3874(3) 0.84798(13) 0.64864(16)
C64_2 C 0.3888(4) 0.87612(15) 0.65822(18)
C65_2 C 0.3637(5) 0.90072(17) 0.6369(2)
H76_2 H 0.3535 0.9159 0.6537
H77_2 H 0.3219 0.8957 0.6234
H78_2 H 0.3995 0.9065 0.6196
C66_2 C 0.3931(4) 0.98717(16) 0.7080(2)
H79_2 H 0.3866 0.9726 0.6897
H81_2 H 0.3516 0.9887 0.7231
C67_2 C 0.4540(4) 0.98013(15) 0.73197(18)
C68_2 C 0.5000 0.99767(19) 0.7500
C72_2 C 0.4617(4) 0.78733(15) 0.3247(2)
H85_2 H 0.4807 0.7825 0.3007
H86_2 H 0.4992 0.7892 0.3424
H87_2 H 0.4300 0.7728 0.3327
C73_2 C 0.4235(3) 0.81418(13) 0.32180(16)
C74_2 C 0.3787(3) 0.82665(14) 0.34679(16)
C75_2 C 0.3594(4) 0.85135(15) 0.33081(17)
C76_2 C 0.3111(4) 0.87379(17) 0.3449(2)
H88_2 H 0.2901 0.8834 0.3242
H89_2 H 0.2749 0.8654 0.3599
H90_2 H 0.3373 0.8870 0.3597
N36_2 N 0.3112(3) 0.79084(14) 0.42814(15)
N37_2 N 0.3495(3) 0.81139(16) 0.44382(15)
C77_2 C 0.2776(5) 0.7747(2) 0.3655(2)
H91_2 H 0.2286 0.7744 0.3719
H92_2 H 0.2831 0.7813 0.3404
H93_2 H 0.2966 0.7560 0.3676
C78_2 C 0.3158(4) 0.79384(17) 0.39147(17)
C79_2 C 0.3586(3) 0.81579(14) 0.38324(16)
C80_2 C 0.3788(4) 0.82656(19) 0.41724(18)
C81_2 C 0.4248(5) 0.8509(2) 0.4258(2)
H94_2 H 0.4316 0.8523 0.4522
H95_2 H 0.4696 0.8484 0.4137
H96_2 H 0.4032 0.8679 0.4168
N38_2 N 0.2888(3) 0.81483(14) 0.57533(14)
N39_2 N 0.3418(3) 0.82613(16) 0.55565(15)
C82_2 C 0.2486(4) 0.8111(2) 0.63958(19)
H97_2 H 0.2054 0.8057 0.6277
H98_2 H 0.2680 0.7952 0.6526
H99_2 H 0.2397 0.8261 0.6570
C83_2 C 0.2989(4) 0.82082(15) 0.61110(17)
C84_2 C 0.3588(3) 0.83640(15) 0.61456(17)
C85_2 C 0.3848(4) 0.83920(19) 0.57914(18)
C86_2 C 0.4478(5) 0.8536(3) 0.5659(2)
H100_2 H 0.4490 0.8724 0.5760
H101_2 H 0.4888 0.8435 0.5740
H102_2 H 0.4471 0.8545 0.5392
N40_2 N 0.1480(3) 0.75916(15) 0.48706(15)
N41_2 N 0.1377(3) 0.77129(14) 0.52113(15)
C87_3 C 0.0803(4) 0.73637(19) 0.4383(2)
H103_3 H 0.0441 0.7223 0.4388
H104_3 H 0.0683 0.7506 0.4204
H105_3 H 0.1242 0.7278 0.4314
C88_3 C 0.0871(4) 0.74930(16) 0.47567(17)
C89_3 C 0.0364(4) 0.75405(18) 0.50259(18)
C90_3 C 0.0716(4) 0.76784(18) 0.5306(2)
C91_3 C 0.0444(4) 0.7796(2) 0.5660(2)
H106_3 H 0.0681 0.7969 0.5714
H108_3 H 0.0527 0.7664 0.5858
Ag25_2 Ag 0.56057(3) 0.915660(11) 0.781220(15)
Ag27 Ag 0.42085(3) 0.890510(11) 0.271950(15)
Ag32_2 Ag 0.78451(3) 0.791910(15) 0.951870(14)
N42_2 N 0.5655(3) 0.85302(11) 0.79534(14)
N43_2 N 0.5827(3) 0.87918(11) 0.80845(15)
N44_2 N 0.5287(3) 0.95368(11) 0.76109(15)
C92_2 C 0.5729(5) 0.80420(15) 0.8154(2)
H109_2 H 0.5322 0.8014 0.8000
H110_2 H 0.5657 0.7952 0.8391
H111_2 H 0.6134 0.7962 0.8034
C93_2 C 0.5841(4) 0.83438(14) 0.82111(16)
C94_2 C 0.6126(3) 0.84798(13) 0.85136(16)
C95_2 C 0.6112(4) 0.87612(15) 0.84178(18)
C96_2 C 0.6363(5) 0.90072(17) 0.8631(2)
H112_2 H 0.6465 0.9159 0.8463
H113_2 H 0.6781 0.8957 0.8766
H114_2 H 0.6005 0.9065 0.8804
C97_2 C 0.6069(4) 0.98717(16) 0.7920(2)
H115_2 H 0.6134 0.9726 0.8103
H117_2 H 0.6484 0.9887 0.7769
C98_2 C 0.5460(4) 0.98013(15) 0.76803(18)
N53_2 N 0.7112(3) 0.81483(14) 0.92467(14)
N54_2 N 0.6582(3) 0.82613(16) 0.94435(15)
C111_2 C 0.7514(4) 0.8111(2) 0.86042(19)
H133_2 H 0.7946 0.8057 0.8723
H134_2 H 0.7320 0.7952 0.8474
H135_2 H 0.7603 0.8261 0.8430
C112_2 C 0.7011(4) 0.82082(15) 0.88890(17)
C113_2 C 0.6412(3) 0.83640(15) 0.88544(17)
C114_2 C 0.6152(4) 0.83920(19) 0.92086(18)
C115_2 C 0.5522(5) 0.8536(3) 0.9341(2)
H136_2 H 0.5510 0.8724 0.9240
H137_2 H 0.5112 0.8435 0.9260
H138_2 H 0.5529 0.8545 0.9608
N58_2 N 0.8623(3) 0.77129(14) 0.97887(15)
H143_3 H 0.0052 0.7170 0.5637
C87_4 C 0.9197(4) 0.73637(19) 0.0617(2)
H103_4 H 0.9559 0.7223 0.0612
H104_4 H 0.9317 0.7506 0.0796
H105_4 H 0.8758 0.7278 0.0686
C88_4 C 0.9129(4) 0.74930(16) 0.02433(17)
C89_4 C 0.9636(4) 0.75405(18) 0.99741(18)
C90_4 C 0.9284(4) 0.76784(18) 0.9694(2)
C91_4 C 0.9556(4) 0.7796(2) 0.9340(2)
H106_4 H 0.9319 0.7969 0.9286
H108_4 H 0.9473 0.7664 0.9142
N46_2 N 0.4672(3) 0.92748(12) 0.25712(16)
H143_4 H 0.9948 0.7170 0.9363
H80_2 H 0.5984 0.9952 0.3044
C69_2 C 0.5000 0.9718(2) 0.2500
C70_2 C 0.5528(4) 0.95412(13) 0.23840(18)
C71_2 C 0.6217(4) 0.96063(16) 0.2219(2)
H82_2 H 0.6295 0.9487 0.2006
H83_2 H 0.6227 0.9800 0.2142
H84_2 H 0.6580 0.9574 0.2400
H116_2 H 0.4016 0.9952 0.1956
C99_2 C 0.4472(4) 0.95412(13) 0.26160(18)
C100_2 C 0.3783(4) 0.96063(16) 0.2781(2)
H118_2 H 0.3705 0.9487 0.2994
H119_2 H 0.3773 0.9800 0.2858
H120_2 H 0.3420 0.9574 0.2600
H107 H 0.9948 0.7830 0.5637
Ag31 Ag 0.76336(3) 0.729520(15) 0.458830(15)
Ag33 Ag 0.78451(3) 0.708090(15) 0.548130(14)
N55 N 0.8520(3) 0.74084(15) 0.48706(15)
N57 N 0.8623(3) 0.72871(14) 0.52113(15)
C116 C 0.9197(4) 0.76363(19) 0.4383(2)
H139 H 0.9559 0.7777 0.4388
H140 H 0.9317 0.7494 0.4204
H141 H 0.8758 0.7722 0.4314
C117 C 0.9129(4) 0.75070(16) 0.47567(17)
C118 C 0.9636(4) 0.74595(18) 0.50259(18)
C119 C 0.9284(4) 0.73216(18) 0.5306(2)
C120 C 0.9556(4) 0.7204(2) 0.5660(2)
H142 H 0.9319 0.7031 0.5714
H144 H 0.9473 0.7336 0.5858
Ag31_2 Ag 0.23664(3) 0.729520(15) 0.041170(15)
N55_2 N 0.1480(3) 0.74084(15) 0.01294(15)
C116_2 C 0.0803(4) 0.76363(19) 0.0617(2)
H139_2 H 0.0441 0.7777 0.0612
H140_2 H 0.0683 0.7494 0.0796
H141_2 H 0.1242 0.7722 0.0686
C117_2 C 0.0871(4) 0.75070(16) 0.02433(17)
H107_2 H 0.0052 0.7830 0.9363
Ag33_2 Ag 0.21549(3) 0.708090(15) 0.951870(14)
N57_2 N 0.1377(3) 0.72871(14) 0.97887(15)
C118_2 C 0.0364(4) 0.74595(18) 0.99741(18)
C119_2 C 0.0716(4) 0.73216(18) 0.9694(2)
C120_2 C 0.0444(4) 0.7204(2) 0.9340(2)
H142_2 H 0.0681 0.7031 0.9286
H144_2 H 0.0527 0.7336 0.9142
Ag20_2 Ag 0.5000 0.669670(16) 0.2500
Ag21_2 Ag 0.42085(3) 0.609490(11) 0.228050(15)
Ag34_3 Ag 0.34770(4) 0.682170(17) 0.000100(14)
N46_3 N 0.4672(3) 0.57252(12) 0.24288(16)
N47_3 N 0.4296(3) 0.66920(11) 0.20773(14)
N48_2 N 0.5704(3) 0.66920(11) 0.29227(14)
N49_2 N 0.3896(3) 0.64579(11) 0.20214(14)
C101_3 C 0.4617(4) 0.71267(15) 0.1753(2)
H121_3 H 0.4807 0.7175 0.1993
H122_3 H 0.4992 0.7108 0.1576
H123_3 H 0.4300 0.7272 0.1673
C102_3 C 0.4235(3) 0.68582(13) 0.17820(16)
C103_3 C 0.3787(3) 0.67335(14) 0.15321(16)
C104_3 C 0.3594(4) 0.64865(15) 0.16919(17)
C105_3 C 0.3111(4) 0.62621(17) 0.1551(2)
H124_3 H 0.2901 0.6166 0.1758
H125_3 H 0.2749 0.6346 0.1401
H126_3 H 0.3373 0.6130 0.1403
N51_3 N 0.3112(3) 0.70916(14) 0.07186(15)
N52_3 N 0.3495(3) 0.68861(16) 0.05618(15)
C106_3 C 0.2776(5) 0.7253(2) 0.1345(2)
H127_3 H 0.2286 0.7256 0.1281
H128_3 H 0.2831 0.7187 0.1596
H129_3 H 0.2966 0.7440 0.1324
C107_3 C 0.3158(4) 0.70616(17) 0.10853(17)
C108_3 C 0.3586(3) 0.68421(14) 0.11676(16)
C109_3 C 0.3788(4) 0.67344(19) 0.08276(18)
C110_3 C 0.4248(5) 0.6491(2) 0.0742(2)
H130_3 H 0.4316 0.6477 0.0478
H131_3 H 0.4696 0.6516 0.0863
H132_3 H 0.4032 0.6321 0.0832
Ag18_3 Ag 0.5000 0.648230(15) 0.7500
Ag19_3 Ag 0.56057(3) 0.584340(11) 0.718780(15)
Ag24_3 Ag 0.65230(4) 0.682170(17) 0.499900(14)
N30_3 N 0.5655(3) 0.64698(11) 0.70466(14)
N31_3 N 0.5827(3) 0.62082(11) 0.69155(15)
N32_3 N 0.5287(3) 0.54632(11) 0.73891(15)
N33_2 N 0.5328(3) 0.42748(12) 0.75712(16)
N35_2 N 0.6104(3) 0.64579(11) 0.29786(14)
C61_3 C 0.5729(5) 0.69580(15) 0.6846(2)
H73_3 H 0.5322 0.6986 0.7000
H74_3 H 0.5657 0.7048 0.6609
H75_3 H 0.6134 0.7038 0.6966
C62_3 C 0.5841(4) 0.66562(14) 0.67889(16)
C63_3 C 0.6126(3) 0.65202(13) 0.64864(16)
C64_3 C 0.6112(4) 0.62388(15) 0.65822(18)
C65_3 C 0.6363(5) 0.59928(17) 0.6369(2)
H76_3 H 0.6465 0.5841 0.6537
H77_3 H 0.6781 0.6043 0.6234
H78_3 H 0.6005 0.5935 0.6196
C66_3 C 0.6069(4) 0.51283(16) 0.7080(2)
H79_3 H 0.6134 0.5274 0.6897
H80_3 H 0.5984 0.4952 0.6956
H81_3 H 0.6484 0.5113 0.7231
C67_3 C 0.5460(4) 0.51987(15) 0.73197(18)
C68_3 C 0.5000 0.50233(19) 0.7500
C69_3 C 0.5000 0.4718(2) 0.7500
C70_3 C 0.5528(4) 0.45412(13) 0.76160(18)
C71_3 C 0.6217(4) 0.46063(16) 0.7781(2)
H82_3 H 0.6295 0.4487 0.7994
H83_3 H 0.6227 0.4800 0.7858
H84_3 H 0.6580 0.4574 0.7600
C72_3 C 0.5383(4) 0.71267(15) 0.3247(2)
H85_3 H 0.5193 0.7175 0.3007
H86_3 H 0.5008 0.7108 0.3424
H87_3 H 0.5700 0.7272 0.3327
C73_3 C 0.5765(3) 0.68582(13) 0.32180(16)
C74_3 C 0.6213(3) 0.67335(14) 0.34679(16)
C75_3 C 0.6406(4) 0.64865(15) 0.33081(17)
C76_3 C 0.6889(4) 0.62621(17) 0.3449(2)
H88_3 H 0.7099 0.6166 0.3242
H89_3 H 0.7251 0.6346 0.3599
H90_3 H 0.6627 0.6130 0.3597
N36_3 N 0.6888(3) 0.70916(14) 0.42814(15)
N37_3 N 0.6505(3) 0.68861(16) 0.44382(15)
C77_3 C 0.7224(5) 0.7253(2) 0.3655(2)
H91_3 H 0.7714 0.7256 0.3719
H92_3 H 0.7169 0.7187 0.3404
H93_3 H 0.7034 0.7440 0.3676
C78_3 C 0.6842(4) 0.70616(17) 0.39147(17)
C79_3 C 0.6414(3) 0.68421(14) 0.38324(16)
C80_3 C 0.6212(4) 0.67344(19) 0.41724(18)
C81_3 C 0.5752(5) 0.6491(2) 0.4258(2)
H94_3 H 0.5684 0.6477 0.4522
H95_3 H 0.5304 0.6516 0.4137
H96_3 H 0.5968 0.6321 0.4168
N38_3 N 0.7112(3) 0.68517(14) 0.57533(14)
N39_3 N 0.6582(3) 0.67387(16) 0.55565(15)
C82_3 C 0.7514(4) 0.6889(2) 0.63958(19)
H97_3 H 0.7946 0.6943 0.6277
H98_3 H 0.7320 0.7048 0.6526
H99_3 H 0.7603 0.6739 0.6570
C83_3 C 0.7011(4) 0.67918(15) 0.61110(17)
C84_3 C 0.6412(3) 0.66360(15) 0.61456(17)
C85_3 C 0.6152(4) 0.66080(19) 0.57914(18)
C86_3 C 0.5522(5) 0.6464(3) 0.5659(2)
H100_3 H 0.5510 0.6276 0.5760
H101_3 H 0.5112 0.6565 0.5740
H102_3 H 0.5529 0.6455 0.5392
Ag25_3 Ag 0.43943(3) 0.584340(11) 0.781220(15)
Ag27_2 Ag 0.57915(3) 0.609490(11) 0.271950(15)
Ag28_2 Ag 0.57915(3) 0.390510(11) 0.771950(15)
Ag29_2 Ag 0.42085(3) 0.390510(11) 0.728050(15)
N42_3 N 0.4345(3) 0.64698(11) 0.79534(14)
N43_3 N 0.4173(3) 0.62082(11) 0.80845(15)
N44_3 N 0.4713(3) 0.54632(11) 0.76109(15)
N45_2 N 0.4672(3) 0.42748(12) 0.74288(16)
N50_3 N 0.3896(3) 0.35421(11) 0.70214(14)
C92_3 C 0.4271(5) 0.69580(15) 0.8154(2)
H109_3 H 0.4678 0.6986 0.8000
H110_3 H 0.4343 0.7048 0.8391
H111_3 H 0.3866 0.7038 0.8034
C93_3 C 0.4159(4) 0.66562(14) 0.82111(16)
C94_3 C 0.3874(3) 0.65202(13) 0.85136(16)
C95_3 C 0.3888(4) 0.62388(15) 0.84178(18)
C96_3 C 0.3637(5) 0.59928(17) 0.8631(2)
H112_3 H 0.3535 0.5841 0.8463
H113_3 H 0.3219 0.6043 0.8766
H114_3 H 0.3995 0.5935 0.8804
C97_3 C 0.3931(4) 0.51283(16) 0.7920(2)
H115_3 H 0.3866 0.5274 0.8103
H116_3 H 0.4016 0.4952 0.8044
H117_3 H 0.3516 0.5113 0.7769
C98_3 C 0.4540(4) 0.51987(15) 0.76803(18)
C99_3 C 0.4472(4) 0.45412(13) 0.73840(18)
C100_3 C 0.3783(4) 0.46063(16) 0.7219(2)
H118_3 H 0.3705 0.4487 0.7006
H119_3 H 0.3773 0.4800 0.7142
H120_3 H 0.3420 0.4574 0.7400
N53_3 N 0.2888(3) 0.68517(14) 0.92467(14)
N54_3 N 0.3418(3) 0.67387(16) 0.94435(15)
C111_3 C 0.2486(4) 0.6889(2) 0.86042(19)
H133_3 H 0.2054 0.6943 0.8723
H134_3 H 0.2680 0.7048 0.8474
H135_3 H 0.2397 0.6739 0.8430
C112_3 C 0.2989(4) 0.67918(15) 0.88890(17)
C113_3 C 0.3588(3) 0.66360(15) 0.88544(17)
C114_3 C 0.3848(4) 0.66080(19) 0.92086(18)
C115_3 C 0.4478(5) 0.6464(3) 0.9341(2)
H136_3 H 0.4490 0.6276 0.9240
H137_3 H 0.4888 0.6565 0.9260
H138_3 H 0.4471 0.6455 0.9608
N46_4 N 0.5328(3) 0.57252(12) 0.25712(16)
N50_4 N 0.6104(3) 0.35421(11) 0.79786(14)
H107_3 H 0.0052 0.2170 0.4363
Ag31_3 Ag 0.23664(3) 0.270480(15) 0.541170(15)
Ag33_3 Ag 0.21549(3) 0.291910(15) 0.451870(14)
N55_3 N 0.1480(3) 0.25916(15) 0.51294(15)
N57_3 N 0.1377(3) 0.27129(14) 0.47887(15)
C116_3 C 0.0803(4) 0.23637(19) 0.5617(2)
H139_3 H 0.0441 0.2223 0.5612
H140_3 H 0.0683 0.2506 0.5796
H141_3 H 0.1242 0.2278 0.5686
C117_3 C 0.0871(4) 0.24930(16) 0.52433(17)
C118_3 C 0.0364(4) 0.25405(18) 0.49741(18)
C119_3 C 0.0716(4) 0.26784(18) 0.4694(2)
C120_3 C 0.0444(4) 0.2796(2) 0.4340(2)
H142_3 H 0.0681 0.2969 0.4286
H144_3 H 0.0527 0.2664 0.4142
H107_4 H 0.9948 0.2170 0.0637
Ag33_4 Ag 0.78451(3) 0.291910(15) 0.048130(14)
N57_4 N 0.8623(3) 0.27129(14) 0.02113(15)
C118_4 C 0.9636(4) 0.25405(18) 0.00259(18)
C119_4 C 0.9284(4) 0.26784(18) 0.0306(2)
C120_4 C 0.9556(4) 0.2796(2) 0.0660(2)
H142_4 H 0.9319 0.2969 0.0714
H144_4 H 0.9473 0.2664 0.0858
Ag31_4 Ag 0.76336(3) 0.270480(15) 0.958830(15)
N55_4 N 0.8520(3) 0.25916(15) 0.98706(15)
C116_4 C 0.9197(4) 0.23637(19) 0.9383(2)
H139_4 H 0.9559 0.2223 0.9388
H140_4 H 0.9317 0.2506 0.9204
H141_4 H 0.8758 0.2278 0.9314
C117_4 C 0.9129(4) 0.24930(16) 0.97567(17)
Ag18_4 Ag 0.5000 0.351770(15) 0.2500
Ag19_4 Ag 0.43943(3) 0.415660(11) 0.281220(15)
Ag24_4 Ag 0.34770(4) 0.317830(17) 0.500100(14)
N30_4 N 0.4345(3) 0.35302(11) 0.29534(14)
N31_4 N 0.4173(3) 0.37918(11) 0.30845(15)
N32_4 N 0.4713(3) 0.45368(11) 0.26109(15)
N34_2 N 0.4296(3) 0.33080(11) 0.70773(14)
C61_4 C 0.4271(5) 0.30420(15) 0.3154(2)
H73_4 H 0.4678 0.3014 0.3000
H74_4 H 0.4343 0.2952 0.3391
H75_4 H 0.3866 0.2962 0.3034
C62_4 C 0.4159(4) 0.33438(14) 0.32111(16)
C63_4 C 0.3874(3) 0.34798(13) 0.35136(16)
C64_4 C 0.3888(4) 0.37612(15) 0.34178(18)
C65_4 C 0.3637(5) 0.40072(17) 0.3631(2)
H76_4 H 0.3535 0.4159 0.3463
H77_4 H 0.3219 0.3957 0.3766
H78_4 H 0.3995 0.4065 0.3804
C66_4 C 0.3931(4) 0.48717(16) 0.2920(2)
H79_4 H 0.3866 0.4726 0.3103
H80_4 H 0.4016 0.5048 0.3044
H81_4 H 0.3516 0.4887 0.2769
C67_4 C 0.4540(4) 0.48013(15) 0.26803(18)
C68_4 C 0.5000 0.49767(19) 0.2500
C69_4 C 0.5000 0.5282(2) 0.2500
C70_4 C 0.4472(4) 0.54588(13) 0.23840(18)
C71_4 C 0.3783(4) 0.53937(16) 0.2219(2)
H82_4 H 0.3705 0.5513 0.2006
H83_4 H 0.3773 0.5200 0.2142
H84_4 H 0.3420 0.5426 0.2400
C72_4 C 0.4617(4) 0.28733(15) 0.6753(2)
H85_4 H 0.4807 0.2825 0.6993
H86_4 H 0.4992 0.2892 0.6576
H87_4 H 0.4300 0.2728 0.6673
C73_4 C 0.4235(3) 0.31418(13) 0.67820(16)
C74_4 C 0.3787(3) 0.32665(14) 0.65321(16)
C75_4 C 0.3594(4) 0.35135(15) 0.66919(17)
C76_4 C 0.3111(4) 0.37379(17) 0.6551(2)
H88_4 H 0.2901 0.3834 0.6758
H89_4 H 0.2749 0.3654 0.6401
H90_4 H 0.3373 0.3870 0.6403
N36_4 N 0.3112(3) 0.29084(14) 0.57186(15)
N37_4 N 0.3495(3) 0.31139(16) 0.55618(15)
C77_4 C 0.2776(5) 0.2747(2) 0.6345(2)
H91_4 H 0.2286 0.2744 0.6281
H92_4 H 0.2831 0.2813 0.6596
H93_4 H 0.2966 0.2560 0.6324
C78_4 C 0.3158(4) 0.29384(17) 0.60853(17)
C79_4 C 0.3586(3) 0.31579(14) 0.61676(16)
C80_4 C 0.3788(4) 0.32656(19) 0.58276(18)
C81_4 C 0.4248(5) 0.3509(2) 0.5742(2)
H94_4 H 0.4316 0.3523 0.5478
H95_4 H 0.4696 0.3484 0.5863
H96_4 H 0.4032 0.3679 0.5832
N38_4 N 0.2888(3) 0.31483(14) 0.42467(14)
N39_4 N 0.3418(3) 0.32613(16) 0.44435(15)
C82_4 C 0.2486(4) 0.3111(2) 0.36042(19)
H97_4 H 0.2054 0.3057 0.3723
H98_4 H 0.2680 0.2952 0.3474
H99_4 H 0.2397 0.3261 0.3430
C83_4 C 0.2989(4) 0.32082(15) 0.38890(17)
C84_4 C 0.3588(3) 0.33640(15) 0.38544(17)
C85_4 C 0.3848(4) 0.33920(19) 0.42086(18)
C86_4 C 0.4478(5) 0.3536(3) 0.4341(2)
H100_4 H 0.4490 0.3724 0.4240
H101_4 H 0.4888 0.3435 0.4260
H102_4 H 0.4471 0.3545 0.4608
Ag25_4 Ag 0.56057(3) 0.415660(11) 0.218780(15)
Ag26_2 Ag 0.5000 0.330330(16) 0.7500
N42_4 N 0.5655(3) 0.35302(11) 0.20466(14)
N43_4 N 0.5827(3) 0.37918(11) 0.19155(15)
N44_4 N 0.5287(3) 0.45368(11) 0.23891(15)
C92_4 C 0.5729(5) 0.30420(15) 0.1846(2)
H109_4 H 0.5322 0.3014 0.2000
H110_4 H 0.5657 0.2952 0.1609
H111_4 H 0.6134 0.2962 0.1966
C93_4 C 0.5841(4) 0.33438(14) 0.17889(16)
C94_4 C 0.6126(3) 0.34798(13) 0.14864(16)
C95_4 C 0.6112(4) 0.37612(15) 0.15822(18)
C96_4 C 0.6363(5) 0.40072(17) 0.1369(2)
H112_4 H 0.6465 0.4159 0.1537
H113_4 H 0.6781 0.3957 0.1234
H114_4 H 0.6005 0.4065 0.1196
C97_4 C 0.6069(4) 0.48717(16) 0.2080(2)
H115_4 H 0.6134 0.4726 0.1897
H116_4 H 0.5984 0.5048 0.1956
H117_4 H 0.6484 0.4887 0.2231
C98_4 C 0.5460(4) 0.48013(15) 0.23197(18)
C99_4 C 0.5528(4) 0.54588(13) 0.26160(18)
C100_4 C 0.6217(4) 0.53937(16) 0.2781(2)
H118_4 H 0.6295 0.5513 0.2994
H119_4 H 0.6227 0.5200 0.2858
H120_4 H 0.6580 0.5426 0.2600
N53_4 N 0.7112(3) 0.31483(14) 0.07533(14)
N54_4 N 0.6582(3) 0.32613(16) 0.05565(15)
C111_4 C 0.7514(4) 0.3111(2) 0.13958(19)
H133_4 H 0.7946 0.3057 0.1277
H134_4 H 0.7320 0.2952 0.1526
H135_4 H 0.7603 0.3261 0.1570
C112_4 C 0.7011(4) 0.32082(15) 0.11110(17)
C113_4 C 0.6412(3) 0.33640(15) 0.11456(17)
C114_4 C 0.6152(4) 0.33920(19) 0.07914(18)
C115_4 C 0.5522(5) 0.3536(3) 0.0659(2)
H136_4 H 0.5510 0.3724 0.0760
H137_4 H 0.5112 0.3435 0.0740
H138_4 H 0.5529 0.3545 0.0392
Ag34_4 Ag 0.65230(4) 0.317830(17) 0.999900(14)
N47_4 N 0.5704(3) 0.33080(11) 0.79227(14)
C101_4 C 0.5383(4) 0.28733(15) 0.8247(2)
H121_4 H 0.5193 0.2825 0.8007
H122_4 H 0.5008 0.2892 0.8424
H123_4 H 0.5700 0.2728 0.8327
C102_4 C 0.5765(3) 0.31418(13) 0.82180(16)
C103_4 C 0.6213(3) 0.32665(14) 0.84679(16)
C104_4 C 0.6406(4) 0.35135(15) 0.83081(17)
C105_4 C 0.6889(4) 0.37379(17) 0.8449(2)
H124_4 H 0.7099 0.3834 0.8242
H125_4 H 0.7251 0.3654 0.8599
H126_4 H 0.6627 0.3870 0.8597
N51_4 N 0.6888(3) 0.29084(14) 0.92814(15)
N52_4 N 0.6505(3) 0.31139(16) 0.94382(15)
C106_4 C 0.7224(5) 0.2747(2) 0.8655(2)
H127_4 H 0.7714 0.2744 0.8719
H128_4 H 0.7169 0.2813 0.8404
H129_4 H 0.7034 0.2560 0.8676
C107_4 C 0.6842(4) 0.29384(17) 0.89147(17)
C108_4 C 0.6414(3) 0.31579(14) 0.88324(16)
C109_4 C 0.6212(4) 0.32656(19) 0.91724(18)
C110_4 C 0.5752(5) 0.3509(2) 0.9258(2)
H130_4 H 0.5684 0.3523 0.9522
H131_4 H 0.5304 0.3484 0.9137
H132_4 H 0.5968 0.3679 0.9168
Ag20_3 Ag 0.0000 0.330330(16) 0.2500
Ag21_3 Ag 0.07915(3) 0.390510(11) 0.228050(15)
Ag30_3 Ag 0.26336(3) 0.270480(15) 0.041170(15)
Ag34_5 Ag 0.15230(4) 0.317830(17) 0.000100(14)
N46_5 N 0.0328(3) 0.42748(12) 0.24288(16)
N47_5 N 0.0704(3) 0.33080(11) 0.20773(14)
N49_3 N 0.1104(3) 0.35421(11) 0.20214(14)
C101_5 C 0.0383(4) 0.28733(15) 0.1753(2)
H121_5 H 0.0193 0.2825 0.1993
H122_5 H 0.0008 0.2892 0.1576
H123_5 H 0.0700 0.2728 0.1673
C102_5 C 0.0765(3) 0.31418(13) 0.17820(16)
C103_5 C 0.1213(3) 0.32665(14) 0.15321(16)
C104_5 C 0.1406(4) 0.35135(15) 0.16919(17)
C105_5 C 0.1889(4) 0.37379(17) 0.1551(2)
H124_5 H 0.2099 0.3834 0.1758
H125_5 H 0.2251 0.3654 0.1401
H126_5 H 0.1627 0.3870 0.1403
N51_5 N 0.1888(3) 0.29084(14) 0.07186(15)
N52_5 N 0.1505(3) 0.31139(16) 0.05618(15)
C106_5 C 0.2224(5) 0.2747(2) 0.1345(2)
H127_5 H 0.2714 0.2744 0.1281
H128_5 H 0.2169 0.2813 0.1596
H129_5 H 0.2034 0.2560 0.1324
C107_5 C 0.1842(4) 0.29384(17) 0.10853(17)
C108_5 C 0.1414(3) 0.31579(14) 0.11676(16)
C109_5 C 0.1212(4) 0.32656(19) 0.08276(18)
C110_5 C 0.0752(5) 0.3509(2) 0.0742(2)
H130_5 H 0.0684 0.3523 0.0478
H131_5 H 0.0304 0.3484 0.0863
H132_5 H 0.0968 0.3679 0.0832
N56_3 N 0.3520(3) 0.25916(15) 0.01294(15)
Ag18_5 Ag 0.0000 0.351770(15) 0.7500
C68_5 C 0.0000 0.49767(19) 0.7500
C69_5 C 0.0000 0.5282(2) 0.7500
Ag25_5 Ag 0.06057(3) 0.415660(11) 0.781220(15)
Ag29_3 Ag 0.07915(3) 0.609490(11) 0.728050(15)
Ag32_3 Ag 0.28451(3) 0.291910(15) 0.951870(14)
N42_5 N 0.0655(3) 0.35302(11) 0.79534(14)
N43_5 N 0.0827(3) 0.37918(11) 0.80845(15)
N44_5 N 0.0287(3) 0.45368(11) 0.76109(15)
N45_3 N 0.0328(3) 0.57252(12) 0.74288(16)
N50_5 N 0.1104(3) 0.64579(11) 0.70214(14)
C92_5 C 0.0729(5) 0.30420(15) 0.8154(2)
H109_5 H 0.0322 0.3014 0.8000
H110_5 H 0.0657 0.2952 0.8391
H111_5 H 0.1134 0.2962 0.8034
C93_5 C 0.0841(4) 0.33438(14) 0.82111(16)
C94_5 C 0.1126(3) 0.34798(13) 0.85136(16)
C95_5 C 0.1112(4) 0.37612(15) 0.84178(18)
C96_5 C 0.1363(5) 0.40072(17) 0.8631(2)
H112_5 H 0.1465 0.4159 0.8463
H113_5 H 0.1781 0.3957 0.8766
H114_5 H 0.1005 0.4065 0.8804
C97_5 C 0.1069(4) 0.48717(16) 0.7920(2)
H115_5 H 0.1134 0.4726 0.8103
H116_5 H 0.0984 0.5048 0.8044
H117_5 H 0.1484 0.4887 0.7769
C98_5 C 0.0460(4) 0.48013(15) 0.76803(18)
C99_5 C 0.0528(4) 0.54588(13) 0.73840(18)
C100_5 C 0.1217(4) 0.53937(16) 0.7219(2)
H118_5 H 0.1295 0.5513 0.7006
H119_5 H 0.1227 0.5200 0.7142
H120_5 H 0.1580 0.5426 0.7400
N53_5 N 0.2112(3) 0.31483(14) 0.92467(14)
N54_5 N 0.1582(3) 0.32613(16) 0.94435(15)
C111_5 C 0.2514(4) 0.3111(2) 0.86042(19)
H133_5 H 0.2946 0.3057 0.8723
H134_5 H 0.2320 0.2952 0.8474
H135_5 H 0.2603 0.3261 0.8430
C112_5 C 0.2011(4) 0.32082(15) 0.88890(17)
C113_5 C 0.1412(3) 0.33640(15) 0.88544(17)
C114_5 C 0.1152(4) 0.33920(19) 0.92086(18)
C115_5 C 0.0522(5) 0.3536(3) 0.9341(2)
H136_5 H 0.0510 0.3724 0.9240
H137_5 H 0.0112 0.3435 0.9260
H138_5 H 0.0529 0.3545 0.9608
N58_3 N 0.3623(3) 0.27129(14) 0.97887(15)
Ag20_4 Ag 1.0000 0.169670(16) 0.2500
Ag21_4 Ag 0.92085(3) 0.109490(11) 0.228050(15)
Ag30_4 Ag 0.73664(3) 0.229520(15) 0.041170(15)
Ag34_6 Ag 0.84770(4) 0.182170(17) 0.000100(14)
N46_6 N 0.9672(3) 0.07252(12) 0.24288(16)
N47_6 N 0.9296(3) 0.16920(11) 0.20773(14)
N49_4 N 0.8896(3) 0.14579(11) 0.20214(14)
C101_6 C 0.9617(4) 0.21267(15) 0.1753(2)
H121_6 H 0.9807 0.2175 0.1993
H122_6 H 0.9992 0.2108 0.1576
H123_6 H 0.9300 0.2272 0.1673
C102_6 C 0.9235(3) 0.18582(13) 0.17820(16)
C103_6 C 0.8787(3) 0.17335(14) 0.15321(16)
C104_6 C 0.8594(4) 0.14865(15) 0.16919(17)
C105_6 C 0.8111(4) 0.12621(17) 0.1551(2)
H124_6 H 0.7901 0.1166 0.1758
H125_6 H 0.7749 0.1346 0.1401
H126_6 H 0.8373 0.1130 0.1403
N51_6 N 0.8112(3) 0.20916(14) 0.07186(15)
N52_6 N 0.8495(3) 0.18861(16) 0.05618(15)
C106_6 C 0.7776(5) 0.2253(2) 0.1345(2)
H127_6 H 0.7286 0.2256 0.1281
H128_6 H 0.7831 0.2187 0.1596
H129_6 H 0.7966 0.2440 0.1324
C107_6 C 0.8158(4) 0.20616(17) 0.10853(17)
C108_6 C 0.8586(3) 0.18421(14) 0.11676(16)
C109_6 C 0.8788(4) 0.17344(19) 0.08276(18)
C110_6 C 0.9248(5) 0.1491(2) 0.0742(2)
H130_6 H 0.9316 0.1477 0.0478
H131_6 H 0.9696 0.1516 0.0863
H132_6 H 0.9032 0.1321 0.0832
N56_4 N 0.6480(3) 0.24084(15) 0.01294(15)
Ag18_6 Ag 1.0000 0.148230(15) 0.7500
C68_6 C 1.0000 0.00233(19) 0.7500
Ag25_6 Ag 0.93943(3) 0.084340(11) 0.781220(15)
Ag32_4 Ag 0.71549(3) 0.208090(15) 0.951870(14)
N42_6 N 0.9345(3) 0.14698(11) 0.79534(14)
N43_6 N 0.9173(3) 0.12082(11) 0.80845(15)
N44_6 N 0.9713(3) 0.04632(11) 0.76109(15)
C92_6 C 0.9271(5) 0.19580(15) 0.8154(2)
H109_6 H 0.9678 0.1986 0.8000
H110_6 H 0.9343 0.2048 0.8391
H111_6 H 0.8866 0.2038 0.8034
C93_6 C 0.9159(4) 0.16562(14) 0.82111(16)
C94_6 C 0.8874(3) 0.15202(13) 0.85136(16)
C95_6 C 0.8888(4) 0.12388(15) 0.84178(18)
C96_6 C 0.8637(5) 0.09928(17) 0.8631(2)
H112_6 H 0.8535 0.0841 0.8463
H113_6 H 0.8219 0.1043 0.8766
H114_6 H 0.8995 0.0935 0.8804
C97_6 C 0.8931(4) 0.01283(16) 0.7920(2)
H115_6 H 0.8866 0.0274 0.8103
H117_6 H 0.8516 0.0113 0.7769
C98_6 C 0.9540(4) 0.01987(15) 0.76803(18)
N53_6 N 0.7888(3) 0.18517(14) 0.92467(14)
N54_6 N 0.8418(3) 0.17387(16) 0.94435(15)
C111_6 C 0.7486(4) 0.1889(2) 0.86042(19)
H133_6 H 0.7054 0.1943 0.8723
H134_6 H 0.7680 0.2048 0.8474
H135_6 H 0.7397 0.1739 0.8430
C112_6 C 0.7989(4) 0.17918(15) 0.88890(17)
C113_6 C 0.8588(3) 0.16360(15) 0.88544(17)
C114_6 C 0.8848(4) 0.16080(19) 0.92086(18)
C115_6 C 0.9478(5) 0.1464(3) 0.9341(2)
H136_6 H 0.9490 0.1276 0.9240
H137_6 H 0.9888 0.1565 0.9260
H138_6 H 0.9471 0.1455 0.9608
N58_4 N 0.6377(3) 0.22871(14) 0.97887(15)
C69_6 C 1.0000 0.9718(2) 0.7500
Ag29_4 Ag 0.92085(3) 0.890510(11) 0.728050(15)
N45_4 N 0.9672(3) 0.92748(12) 0.74288(16)
N50_6 N 0.8896(3) 0.85421(11) 0.70214(14)
H116_6 H 0.9016 0.9952 0.8044
C99_6 C 0.9472(4) 0.95412(13) 0.73840(18)
C100_6 C 0.8783(4) 0.96063(16) 0.7219(2)
H118_6 H 0.8705 0.9487 0.7006
H119_6 H 0.8773 0.9800 0.7142
H120_6 H 0.8420 0.9574 0.7400
C87_5 C 0.5803(4) 0.26363(19) 0.0617(2)
H103_5 H 0.5441 0.2777 0.0612
H104_5 H 0.5683 0.2494 0.0796
H105_5 H 0.6242 0.2722 0.0686
C88_5 C 0.5871(4) 0.25070(16) 0.02433(17)
C116_5 C 0.4197(4) 0.23637(19) 0.0617(2)
H139_5 H 0.4559 0.2223 0.0612
H140_5 H 0.4317 0.2506 0.0796
H141_5 H 0.3758 0.2278 0.0686
C117_5 C 0.4129(4) 0.24930(16) 0.02433(17)
C89_5 C 0.5364(4) 0.24595(18) 0.99741(18)
C90_5 C 0.5716(4) 0.23216(18) 0.9694(2)
C91_5 C 0.5444(4) 0.2204(2) 0.9340(2)
H106_5 H 0.5681 0.2031 0.9286
H107_5 H 0.4948 0.2170 0.9363
H108_5 H 0.5527 0.2336 0.9142
C118_5 C 0.4636(4) 0.25405(18) 0.99741(18)
C119_5 C 0.4284(4) 0.26784(18) 0.9694(2)
C120_5 C 0.4556(4) 0.2796(2) 0.9340(2)
H142_5 H 0.4319 0.2969 0.9286
H143_5 H 0.5052 0.2830 0.9363
H144_5 H 0.4473 0.2664 0.9142
Ag18_7 Ag -0.0000 0.648230(15) 0.2500
Ag19_5 Ag 0.06057(3) 0.584340(11) 0.281220(15)
Ag22_3 Ag 0.26336(3) 0.729520(15) 0.541170(15)
Ag23_3 Ag 0.28451(3) 0.708090(15) 0.451870(14)
Ag24_5 Ag 0.15230(4) 0.682170(17) 0.500100(14)
N30_5 N 0.0655(3) 0.64698(11) 0.29534(14)
N31_5 N 0.0827(3) 0.62082(11) 0.30845(15)
N32_5 N 0.0287(3) 0.54632(11) 0.26109(15)
N34_3 N 0.0704(3) 0.66920(11) 0.70773(14)
C61_5 C 0.0729(5) 0.69580(15) 0.3154(2)
H73_5 H 0.0322 0.6986 0.3000
H74_5 H 0.0657 0.7048 0.3391
H75_5 H 0.1134 0.7038 0.3034
C62_5 C 0.0841(4) 0.66562(14) 0.32111(16)
C63_5 C 0.1126(3) 0.65202(13) 0.35136(16)
C64_5 C 0.1112(4) 0.62388(15) 0.34178(18)
C65_5 C 0.1363(5) 0.59928(17) 0.3631(2)
H76_5 H 0.1465 0.5841 0.3463
H77_5 H 0.1781 0.6043 0.3766
H78_5 H 0.1005 0.5935 0.3804
C66_5 C 0.1069(4) 0.51283(16) 0.2920(2)
H79_5 H 0.1134 0.5274 0.3103
H80_5 H 0.0984 0.4952 0.3044
H81_5 H 0.1484 0.5113 0.2769
C67_5 C 0.0460(4) 0.51987(15) 0.26803(18)
C68_7 C -0.0000 0.50233(19) 0.2500
C69_7 C -0.0000 0.4718(2) 0.2500
C70_5 C 0.0528(4) 0.45412(13) 0.23840(18)
C71_5 C 0.1217(4) 0.46063(16) 0.2219(2)
H82_5 H 0.1295 0.4487 0.2006
H83_5 H 0.1227 0.4800 0.2142
H84_5 H 0.1580 0.4574 0.2400
C72_5 C 0.0383(4) 0.71267(15) 0.6753(2)
H85_5 H 0.0193 0.7175 0.6993
H86_5 H 0.0008 0.7108 0.6576
H87_5 H 0.0700 0.7272 0.6673
C73_5 C 0.0765(3) 0.68582(13) 0.67820(16)
C74_5 C 0.1213(3) 0.67335(14) 0.65321(16)
C75_5 C 0.1406(4) 0.64865(15) 0.66919(17)
C76_5 C 0.1889(4) 0.62621(17) 0.6551(2)
H88_5 H 0.2099 0.6166 0.6758
H89_5 H 0.2251 0.6346 0.6401
H90_5 H 0.1627 0.6130 0.6403
N36_5 N 0.1888(3) 0.70916(14) 0.57186(15)
N37_5 N 0.1505(3) 0.68861(16) 0.55618(15)
C77_5 C 0.2224(5) 0.7253(2) 0.6345(2)
H91_5 H 0.2714 0.7256 0.6281
H92_5 H 0.2169 0.7187 0.6596
H93_5 H 0.2034 0.7440 0.6324
C78_5 C 0.1842(4) 0.70616(17) 0.60853(17)
C79_5 C 0.1414(3) 0.68421(14) 0.61676(16)
C80_5 C 0.1212(4) 0.67344(19) 0.58276(18)
C81_5 C 0.0752(5) 0.6491(2) 0.5742(2)
H94_5 H 0.0684 0.6477 0.5478
H95_5 H 0.0304 0.6516 0.5863
H96_5 H 0.0968 0.6321 0.5832
N38_5 N 0.2112(3) 0.68517(14) 0.42467(14)
N39_5 N 0.1582(3) 0.67387(16) 0.44435(15)
C82_5 C 0.2514(4) 0.6889(2) 0.36042(19)
H97_5 H 0.2946 0.6943 0.3723
H98_5 H 0.2320 0.7048 0.3474
H99_5 H 0.2603 0.6739 0.3430
C83_5 C 0.2011(4) 0.67918(15) 0.38890(17)
C84_5 C 0.1412(3) 0.66360(15) 0.38544(17)
C85_5 C 0.1152(4) 0.66080(19) 0.42086(18)
C86_5 C 0.0522(5) 0.6464(3) 0.4341(2)
H100_5 H 0.0510 0.6276 0.4240
H101_5 H 0.0112 0.6565 0.4260
H102_5 H 0.0529 0.6455 0.4608
N40_3 N 0.3520(3) 0.74084(15) 0.51294(15)
N41_3 N 0.3623(3) 0.72871(14) 0.47887(15)
C87_6 C 0.4197(4) 0.76363(19) 0.5617(2)
H103_6 H 0.4559 0.7777 0.5612
H104_6 H 0.4317 0.7494 0.5796
H105_6 H 0.3758 0.7722 0.5686
C88_6 C 0.4129(4) 0.75070(16) 0.52433(17)
C89_6 C 0.4636(4) 0.74595(18) 0.49741(18)
C90_6 C 0.4284(4) 0.73216(18) 0.4694(2)
C91_6 C 0.4556(4) 0.7204(2) 0.4340(2)
H106_6 H 0.4319 0.7031 0.4286
H107_6 H 0.5052 0.7170 0.4363
H108_6 H 0.4473 0.7336 0.4142
Ag26_3 Ag 0.0000 0.669670(16) 0.7500
Ag31_5 Ag 0.73664(3) 0.770480(15) 0.541170(15)
Ag33_5 Ag 0.71549(3) 0.791910(15) 0.451870(14)
N55_5 N 0.6480(3) 0.75916(15) 0.51294(15)
N57_5 N 0.6377(3) 0.77129(14) 0.47887(15)
C116_6 C 0.5803(4) 0.73637(19) 0.5617(2)
H139_6 H 0.5441 0.7223 0.5612
H140_6 H 0.5683 0.7506 0.5796
H141_6 H 0.6242 0.7278 0.5686
C117_6 C 0.5871(4) 0.74930(16) 0.52433(17)
C118_6 C 0.5364(4) 0.75405(18) 0.49741(18)
C119_6 C 0.5716(4) 0.76784(18) 0.4694(2)
C120_6 C 0.5444(4) 0.7796(2) 0.4340(2)
H142_6 H 0.5681 0.7969 0.4286
H143_6 H 0.4948 0.7830 0.4363
H144_6 H 0.5527 0.7664 0.4142
H80_6 H 0.9016 0.0048 0.3044
C69_8 C 1.0000 0.0282(2) 0.2500
C70_6 C 0.9472(4) 0.04588(13) 0.23840(18)
C71_6 C 0.8783(4) 0.03937(16) 0.2219(2)
H82_6 H 0.8705 0.0513 0.2006
H83_6 H 0.8773 0.0200 0.2142
H84_6 H 0.8420 0.0426 0.2400
Ag18_8 Ag 1.0000 0.851770(15) 0.2500
Ag19_6 Ag 0.93943(3) 0.915660(11) 0.281220(15)
Ag24_6 Ag 0.84770(4) 0.817830(17) 0.500100(14)
N30_6 N 0.9345(3) 0.85302(11) 0.29534(14)
N31_6 N 0.9173(3) 0.87918(11) 0.30845(15)
N32_6 N 0.9713(3) 0.95368(11) 0.26109(15)
N34_4 N 0.9296(3) 0.83080(11) 0.70773(14)
C61_6 C 0.9271(5) 0.80420(15) 0.3154(2)
H73_6 H 0.9678 0.8014 0.3000
H74_6 H 0.9343 0.7952 0.3391
H75_6 H 0.8866 0.7962 0.3034
C62_6 C 0.9159(4) 0.83438(14) 0.32111(16)
C63_6 C 0.8874(3) 0.84798(13) 0.35136(16)
C64_6 C 0.8888(4) 0.87612(15) 0.34178(18)
C65_6 C 0.8637(5) 0.90072(17) 0.3631(2)
H76_6 H 0.8535 0.9159 0.3463
H77_6 H 0.8219 0.8957 0.3766
H78_6 H 0.8995 0.9065 0.3804
C66_6 C 0.8931(4) 0.98717(16) 0.2920(2)
H79_6 H 0.8866 0.9726 0.3103
H81_6 H 0.8516 0.9887 0.2769
C67_6 C 0.9540(4) 0.98013(15) 0.26803(18)
C68_8 C 1.0000 0.99767(19) 0.2500
C72_6 C 0.9617(4) 0.78733(15) 0.6753(2)
H85_6 H 0.9807 0.7825 0.6993
H86_6 H 0.9992 0.7892 0.6576
H87_6 H 0.9300 0.7728 0.6673
C73_6 C 0.9235(3) 0.81418(13) 0.67820(16)
C74_6 C 0.8787(3) 0.82665(14) 0.65321(16)
C75_6 C 0.8594(4) 0.85135(15) 0.66919(17)
C76_6 C 0.8111(4) 0.87379(17) 0.6551(2)
H88_6 H 0.7901 0.8834 0.6758
H89_6 H 0.7749 0.8654 0.6401
H90_6 H 0.8373 0.8870 0.6403
N36_6 N 0.8112(3) 0.79084(14) 0.57186(15)
N37_6 N 0.8495(3) 0.81139(16) 0.55618(15)
C77_6 C 0.7776(5) 0.7747(2) 0.6345(2)
H91_6 H 0.7286 0.7744 0.6281
H92_6 H 0.7831 0.7813 0.6596
H93_6 H 0.7966 0.7560 0.6324
C78_6 C 0.8158(4) 0.79384(17) 0.60853(17)
C79_6 C 0.8586(3) 0.81579(14) 0.61676(16)
C80_6 C 0.8788(4) 0.82656(19) 0.58276(18)
C81_6 C 0.9248(5) 0.8509(2) 0.5742(2)
H94_6 H 0.9316 0.8523 0.5478
H95_6 H 0.9696 0.8484 0.5863
H96_6 H 0.9032 0.8679 0.5832
N38_6 N 0.7888(3) 0.81483(14) 0.42467(14)
N39_6 N 0.8418(3) 0.82613(16) 0.44435(15)
C82_6 C 0.7486(4) 0.8111(2) 0.36042(19)
H97_6 H 0.7054 0.8057 0.3723
H98_6 H 0.7680 0.7952 0.3474
H99_6 H 0.7397 0.8261 0.3430
C83_6 C 0.7989(4) 0.82082(15) 0.38890(17)
C84_6 C 0.8588(3) 0.83640(15) 0.38544(17)
C85_6 C 0.8848(4) 0.83920(19) 0.42086(18)
C86_6 C 0.9478(5) 0.8536(3) 0.4341(2)
H100_6 H 0.9490 0.8724 0.4240
H101_6 H 0.9888 0.8435 0.4260
H102_6 H 0.9471 0.8545 0.4608
Ag26_4 Ag 1.0000 0.830330(16) 0.7500
Ag20_5 Ag 1.0000 0.330330(16) 0.2500
N48_3 N 0.9296(3) 0.33080(11) 0.29227(14)
Ag18_9 Ag 1.0000 0.351770(15) 0.7500
Ag19_7 Ag 0.93943(3) 0.415660(11) 0.718780(15)
Ag22_4 Ag 0.73664(3) 0.270480(15) 0.458830(15)
Ag23_4 Ag 0.71549(3) 0.291910(15) 0.548130(14)
Ag24_7 Ag 0.84770(4) 0.317830(17) 0.499900(14)
N30_7 N 0.9345(3) 0.35302(11) 0.70466(14)
N31_7 N 0.9173(3) 0.37918(11) 0.69155(15)
N32_7 N 0.9713(3) 0.45368(11) 0.73891(15)
N33_3 N 0.9672(3) 0.57252(12) 0.75712(16)
N35_3 N 0.8896(3) 0.35421(11) 0.29786(14)
C61_7 C 0.9271(5) 0.30420(15) 0.6846(2)
H73_7 H 0.9678 0.3014 0.7000
H74_7 H 0.9343 0.2952 0.6609
H75_7 H 0.8866 0.2962 0.6966
C62_7 C 0.9159(4) 0.33438(14) 0.67889(16)
C63_7 C 0.8874(3) 0.34798(13) 0.64864(16)
C64_7 C 0.8888(4) 0.37612(15) 0.65822(18)
C65_7 C 0.8637(5) 0.40072(17) 0.6369(2)
H76_7 H 0.8535 0.4159 0.6537
H77_7 H 0.8219 0.3957 0.6234
H78_7 H 0.8995 0.4065 0.6196
C66_7 C 0.8931(4) 0.48717(16) 0.7080(2)
H79_7 H 0.8866 0.4726 0.6897
H80_7 H 0.9016 0.5048 0.6956
H81_7 H 0.8516 0.4887 0.7231
C67_7 C 0.9540(4) 0.48013(15) 0.73197(18)
C68_9 C 1.0000 0.49767(19) 0.7500
C69_9 C 1.0000 0.5282(2) 0.7500
C70_7 C 0.9472(4) 0.54588(13) 0.76160(18)
C71_7 C 0.8783(4) 0.53937(16) 0.7781(2)
H82_7 H 0.8705 0.5513 0.7994
H83_7 H 0.8773 0.5200 0.7858
H84_7 H 0.8420 0.5426 0.7600
C72_7 C 0.9617(4) 0.28733(15) 0.3247(2)
H85_7 H 0.9807 0.2825 0.3007
H86_7 H 0.9992 0.2892 0.3424
H87_7 H 0.9300 0.2728 0.3327
C73_7 C 0.9235(3) 0.31418(13) 0.32180(16)
C74_7 C 0.8787(3) 0.32665(14) 0.34679(16)
C75_7 C 0.8594(4) 0.35135(15) 0.33081(17)
C76_7 C 0.8111(4) 0.37379(17) 0.3449(2)
H88_7 H 0.7901 0.3834 0.3242
H89_7 H 0.7749 0.3654 0.3599
H90_7 H 0.8373 0.3870 0.3597
N36_7 N 0.8112(3) 0.29084(14) 0.42814(15)
N37_7 N 0.8495(3) 0.31139(16) 0.44382(15)
C77_7 C 0.7776(5) 0.2747(2) 0.3655(2)
H91_7 H 0.7286 0.2744 0.3719
H92_7 H 0.7831 0.2813 0.3404
H93_7 H 0.7966 0.2560 0.3676
C78_7 C 0.8158(4) 0.29384(17) 0.39147(17)
C79_7 C 0.8586(3) 0.31579(14) 0.38324(16)
C80_7 C 0.8788(4) 0.32656(19) 0.41724(18)
C81_7 C 0.9248(5) 0.3509(2) 0.4258(2)
H94_7 H 0.9316 0.3523 0.4522
H95_7 H 0.9696 0.3484 0.4137
H96_7 H 0.9032 0.3679 0.4168
N38_7 N 0.7888(3) 0.31483(14) 0.57533(14)
N39_7 N 0.8418(3) 0.32613(16) 0.55565(15)
C82_7 C 0.7486(4) 0.3111(2) 0.63958(19)
H97_7 H 0.7054 0.3057 0.6277
H98_7 H 0.7680 0.2952 0.6526
H99_7 H 0.7397 0.3261 0.6570
C83_7 C 0.7989(4) 0.32082(15) 0.61110(17)
C84_7 C 0.8588(3) 0.33640(15) 0.61456(17)
C85_7 C 0.8848(4) 0.33920(19) 0.57914(18)
C86_7 C 0.9478(5) 0.3536(3) 0.5659(2)
H100_7 H 0.9490 0.3724 0.5760
H101_7 H 0.9888 0.3435 0.5740
H102_7 H 0.9471 0.3545 0.5392
N40_4 N 0.6480(3) 0.25916(15) 0.48706(15)
N41_4 N 0.6377(3) 0.27129(14) 0.52113(15)
C87_7 C 0.5803(4) 0.23637(19) 0.4383(2)
H103_7 H 0.5441 0.2223 0.4388
H104_7 H 0.5683 0.2506 0.4204
H105_7 H 0.6242 0.2278 0.4314
C88_7 C 0.5871(4) 0.24930(16) 0.47567(17)
C89_7 C 0.5364(4) 0.25405(18) 0.50259(18)
C90_7 C 0.5716(4) 0.26784(18) 0.5306(2)
C91_7 C 0.5444(4) 0.2796(2) 0.5660(2)
H106_7 H 0.5681 0.2969 0.5714
H107_7 H 0.4948 0.2830 0.5637
H108_7 H 0.5527 0.2664 0.5858
Ag27_3 Ag 0.92085(3) 0.390510(11) 0.271950(15)
Ag28_3 Ag 0.92085(3) 0.609490(11) 0.771950(15)
Ag31_6 Ag 0.26336(3) 0.229520(15) 0.458830(15)
Ag33_6 Ag 0.28451(3) 0.208090(15) 0.548130(14)
N55_6 N 0.3520(3) 0.24084(15) 0.48706(15)
N57_6 N 0.3623(3) 0.22871(14) 0.52113(15)
C116_7 C 0.4197(4) 0.26363(19) 0.4383(2)
H139_7 H 0.4559 0.2777 0.4388
H140_7 H 0.4317 0.2494 0.4204
H141_7 H 0.3758 0.2722 0.4314
C117_7 C 0.4129(4) 0.25070(16) 0.47567(17)
C118_7 C 0.4636(4) 0.24595(18) 0.50259(18)
C119_7 C 0.4284(4) 0.23216(18) 0.5306(2)
C120_7 C 0.4556(4) 0.2204(2) 0.5660(2)
H142_7 H 0.4319 0.2031 0.5714
H143_7 H 0.5052 0.2170 0.5637
H144_7 H 0.4473 0.2336 0.5858
Ag20_6 Ag 0.0000 0.169670(16) 0.2500
N48_4 N 0.0704(3) 0.16920(11) 0.29227(14)
Ag18_10 Ag -0.0000 0.148230(15) 0.7500
Ag19_8 Ag 0.06057(3) 0.084340(11) 0.718780(15)
Ag24_8 Ag 0.15230(4) 0.182170(17) 0.499900(14)
N30_8 N 0.0655(3) 0.14698(11) 0.70466(14)
N31_8 N 0.0827(3) 0.12082(11) 0.69155(15)
N32_8 N 0.0287(3) 0.04632(11) 0.73891(15)
N35_4 N 0.1104(3) 0.14579(11) 0.29786(14)
C61_8 C 0.0729(5) 0.19580(15) 0.6846(2)
H73_8 H 0.0322 0.1986 0.7000
H74_8 H 0.0657 0.2048 0.6609
H75_8 H 0.1134 0.2038 0.6966
C62_8 C 0.0841(4) 0.16562(14) 0.67889(16)
C63_8 C 0.1126(3) 0.15202(13) 0.64864(16)
C64_8 C 0.1112(4) 0.12388(15) 0.65822(18)
C65_8 C 0.1363(5) 0.09928(17) 0.6369(2)
H76_8 H 0.1465 0.0841 0.6537
H77_8 H 0.1781 0.1043 0.6234
H78_8 H 0.1005 0.0935 0.6196
C66_8 C 0.1069(4) 0.01283(16) 0.7080(2)
H79_8 H 0.1134 0.0274 0.6897
H81_8 H 0.1484 0.0113 0.7231
C67_8 C 0.0460(4) 0.01987(15) 0.73197(18)
C68_10 C -0.0000 0.00233(19) 0.7500
C72_8 C 0.0383(4) 0.21267(15) 0.3247(2)
H85_8 H 0.0193 0.2175 0.3007
H86_8 H 0.0008 0.2108 0.3424
H87_8 H 0.0700 0.2272 0.3327
C73_8 C 0.0765(3) 0.18582(13) 0.32180(16)
C74_8 C 0.1213(3) 0.17335(14) 0.34679(16)
C75_8 C 0.1406(4) 0.14865(15) 0.33081(17)
C76_8 C 0.1889(4) 0.12621(17) 0.3449(2)
H88_8 H 0.2099 0.1166 0.3242
H89_8 H 0.2251 0.1346 0.3599
H90_8 H 0.1627 0.1130 0.3597
N36_8 N 0.1888(3) 0.20916(14) 0.42814(15)
N37_8 N 0.1505(3) 0.18861(16) 0.44382(15)
C77_8 C 0.2224(5) 0.2253(2) 0.3655(2)
H91_8 H 0.2714 0.2256 0.3719
H92_8 H 0.2169 0.2187 0.3404
H93_8 H 0.2034 0.2440 0.3676
C78_8 C 0.1842(4) 0.20616(17) 0.39147(17)
C79_8 C 0.1414(3) 0.18421(14) 0.38324(16)
C80_8 C 0.1212(4) 0.17344(19) 0.41724(18)
C81_8 C 0.0752(5) 0.1491(2) 0.4258(2)
H94_8 H 0.0684 0.1477 0.4522
H95_8 H 0.0304 0.1516 0.4137
H96_8 H 0.0968 0.1321 0.4168
N38_8 N 0.2112(3) 0.18517(14) 0.57533(14)
N39_8 N 0.1582(3) 0.17387(16) 0.55565(15)
C82_8 C 0.2514(4) 0.1889(2) 0.63958(19)
H97_8 H 0.2946 0.1943 0.6277
H98_8 H 0.2320 0.2048 0.6526
H99_8 H 0.2603 0.1739 0.6570
C83_8 C 0.2011(4) 0.17918(15) 0.61110(17)
C84_8 C 0.1412(3) 0.16360(15) 0.61456(17)
C85_8 C 0.1152(4) 0.16080(19) 0.57914(18)
C86_8 C 0.0522(5) 0.1464(3) 0.5659(2)
H100_8 H 0.0510 0.1276 0.5760
H101_8 H 0.0112 0.1565 0.5740
H102_8 H 0.0529 0.1455 0.5392
Ag27_4 Ag 0.07915(3) 0.109490(11) 0.271950(15)
N33_4 N 0.0328(3) 0.92748(12) 0.75712(16)
H80_8 H 0.0984 0.9952 0.6956
C69_10 C -0.0000 0.9718(2) 0.7500
C70_8 C 0.0528(4) 0.95412(13) 0.76160(18)
C71_8 C 0.1217(4) 0.96063(16) 0.7781(2)
H82_8 H 0.1295 0.9487 0.7994
H83_8 H 0.1227 0.9800 0.7858
H84_8 H 0.1580 0.9574 0.7600
Ag28_4 Ag 0.07915(3) 0.890510(11) 0.771950(15)
N46_7 N 0.0328(3) 0.07252(12) 0.25712(16)
N50_7 N 0.1104(3) 0.85421(11) 0.79786(14)
N46_8 N 0.9672(3) 0.42748(12) 0.25712(16)
N50_8 N 0.8896(3) 0.64579(11) 0.79786(14)
Ag18_11 Ag 1.0000 0.648230(15) 0.2500
C68_11 C 1.0000 0.50233(19) 0.2500
C69_11 C 1.0000 0.4718(2) 0.2500
Ag25_7 Ag 0.93943(3) 0.584340(11) 0.218780(15)
Ag26_5 Ag 1.0000 0.669670(16) 0.7500
Ag32_5 Ag 0.71549(3) 0.708090(15) 0.048130(14)
N42_7 N 0.9345(3) 0.64698(11) 0.20466(14)
N43_7 N 0.9173(3) 0.62082(11) 0.19155(15)
N44_7 N 0.9713(3) 0.54632(11) 0.23891(15)
C92_7 C 0.9271(5) 0.69580(15) 0.1846(2)
H109_7 H 0.9678 0.6986 0.2000
H110_7 H 0.9343 0.7048 0.1609
H111_7 H 0.8866 0.7038 0.1966
C93_7 C 0.9159(4) 0.66562(14) 0.17889(16)
C94_7 C 0.8874(3) 0.65202(13) 0.14864(16)
C95_7 C 0.8888(4) 0.62388(15) 0.15822(18)
C96_7 C 0.8637(5) 0.59928(17) 0.1369(2)
H112_7 H 0.8535 0.5841 0.1537
H113_7 H 0.8219 0.6043 0.1234
H114_7 H 0.8995 0.5935 0.1196
C97_7 C 0.8931(4) 0.51283(16) 0.2080(2)
H115_7 H 0.8866 0.5274 0.1897
H116_7 H 0.9016 0.4952 0.1956
H117_7 H 0.8516 0.5113 0.2231
C98_7 C 0.9540(4) 0.51987(15) 0.23197(18)
C99_7 C 0.9472(4) 0.45412(13) 0.26160(18)
C100_7 C 0.8783(4) 0.46063(16) 0.2781(2)
H118_7 H 0.8705 0.4487 0.2994
H119_7 H 0.8773 0.4800 0.2858
H120_7 H 0.8420 0.4574 0.2600
N53_7 N 0.7888(3) 0.68517(14) 0.07533(14)
N54_7 N 0.8418(3) 0.67387(16) 0.05565(15)
C111_7 C 0.7486(4) 0.6889(2) 0.13958(19)
H133_7 H 0.7054 0.6943 0.1277
H134_7 H 0.7680 0.7048 0.1526
H135_7 H 0.7397 0.6739 0.1570
C112_7 C 0.7989(4) 0.67918(15) 0.11110(17)
C113_7 C 0.8588(3) 0.66360(15) 0.11456(17)
C114_7 C 0.8848(4) 0.66080(19) 0.07914(18)
C115_7 C 0.9478(5) 0.6464(3) 0.0659(2)
H136_7 H 0.9490 0.6276 0.0760
H137_7 H 0.9888 0.6565 0.0740
H138_7 H 0.9471 0.6455 0.0392
N58_5 N 0.6377(3) 0.72871(14) 0.02113(15)
Ag30_5 Ag 0.73664(3) 0.729520(15) 0.958830(15)
Ag34_7 Ag 0.84770(4) 0.682170(17) 0.999900(14)
N47_7 N 0.9296(3) 0.66920(11) 0.79227(14)
C101_7 C 0.9617(4) 0.71267(15) 0.8247(2)
H121_7 H 0.9807 0.7175 0.8007
H122_7 H 0.9992 0.7108 0.8424
H123_7 H 0.9300 0.7272 0.8327
C102_7 C 0.9235(3) 0.68582(13) 0.82180(16)
C103_7 C 0.8787(3) 0.67335(14) 0.84679(16)
C104_7 C 0.8594(4) 0.64865(15) 0.83081(17)
C105_7 C 0.8111(4) 0.62621(17) 0.8449(2)
H124_7 H 0.7901 0.6166 0.8242
H125_7 H 0.7749 0.6346 0.8599
H126_7 H 0.8373 0.6130 0.8597
N51_7 N 0.8112(3) 0.70916(14) 0.92814(15)
N52_7 N 0.8495(3) 0.68861(16) 0.94382(15)
C106_7 C 0.7776(5) 0.7253(2) 0.8655(2)
H127_7 H 0.7286 0.7256 0.8719
H128_7 H 0.7831 0.7187 0.8404
H129_7 H 0.7966 0.7440 0.8676
C107_7 C 0.8158(4) 0.70616(17) 0.89147(17)
C108_7 C 0.8586(3) 0.68421(14) 0.88324(16)
C109_7 C 0.8788(4) 0.67344(19) 0.91724(18)
C110_7 C 0.9248(5) 0.6491(2) 0.9258(2)
H130_7 H 0.9316 0.6477 0.9522
H131_7 H 0.9696 0.6516 0.9137
H132_7 H 0.9032 0.6321 0.9168
N56_5 N 0.6480(3) 0.74084(15) 0.98706(15)
C69_12 C 0.0000 0.0282(2) 0.2500
H116_8 H 0.0984 0.0048 0.1956
C99_8 C 0.0528(4) 0.04588(13) 0.26160(18)
C100_8 C 0.1217(4) 0.03937(16) 0.2781(2)
H118_8 H 0.1295 0.0513 0.2994
H119_8 H 0.1227 0.0200 0.2858
H120_8 H 0.1580 0.0426 0.2600
Ag18_12 Ag 0.0000 0.851770(15) 0.2500
C68_12 C 0.0000 0.99767(19) 0.2500
Ag25_8 Ag 0.06057(3) 0.915660(11) 0.218780(15)
Ag26_6 Ag 0.0000 0.830330(16) 0.7500
Ag32_6 Ag 0.28451(3) 0.791910(15) 0.048130(14)
N42_8 N 0.0655(3) 0.85302(11) 0.20466(14)
N43_8 N 0.0827(3) 0.87918(11) 0.19155(15)
N44_8 N 0.0287(3) 0.95368(11) 0.23891(15)
C92_8 C 0.0729(5) 0.80420(15) 0.1846(2)
H109_8 H 0.0322 0.8014 0.2000
H110_8 H 0.0657 0.7952 0.1609
H111_8 H 0.1134 0.7962 0.1966
C93_8 C 0.0841(4) 0.83438(14) 0.17889(16)
C94_8 C 0.1126(3) 0.84798(13) 0.14864(16)
C95_8 C 0.1112(4) 0.87612(15) 0.15822(18)
C96_8 C 0.1363(5) 0.90072(17) 0.1369(2)
H112_8 H 0.1465 0.9159 0.1537
H113_8 H 0.1781 0.8957 0.1234
H114_8 H 0.1005 0.9065 0.1196
C97_8 C 0.1069(4) 0.98717(16) 0.2080(2)
H115_8 H 0.1134 0.9726 0.1897
H117_8 H 0.1484 0.9887 0.2231
C98_8 C 0.0460(4) 0.98013(15) 0.23197(18)
N53_8 N 0.2112(3) 0.81483(14) 0.07533(14)
N54_8 N 0.1582(3) 0.82613(16) 0.05565(15)
C111_8 C 0.2514(4) 0.8111(2) 0.13958(19)
H133_8 H 0.2946 0.8057 0.1277
H134_8 H 0.2320 0.7952 0.1526
H135_8 H 0.2603 0.8261 0.1570
C112_8 C 0.2011(4) 0.82082(15) 0.11110(17)
C113_8 C 0.1412(3) 0.83640(15) 0.11456(17)
C114_8 C 0.1152(4) 0.83920(19) 0.07914(18)
C115_8 C 0.0522(5) 0.8536(3) 0.0659(2)
H136_8 H 0.0510 0.8724 0.0760
H137_8 H 0.0112 0.8435 0.0740
H138_8 H 0.0529 0.8545 0.0392
N58_6 N 0.3623(3) 0.77129(14) 0.02113(15)
Ag30_6 Ag 0.26336(3) 0.770480(15) 0.958830(15)
Ag34_8 Ag 0.15230(4) 0.817830(17) 0.999900(14)
N47_8 N 0.0704(3) 0.83080(11) 0.79227(14)
C101_8 C 0.0383(4) 0.78733(15) 0.8247(2)
H121_8 H 0.0193 0.7825 0.8007
H122_8 H 0.0008 0.7892 0.8424
H123_8 H 0.0700 0.7728 0.8327
C102_8 C 0.0765(3) 0.81418(13) 0.82180(16)
C103_8 C 0.1213(3) 0.82665(14) 0.84679(16)
C104_8 C 0.1406(4) 0.85135(15) 0.83081(17)
C105_8 C 0.1889(4) 0.87379(17) 0.8449(2)
H124_8 H 0.2099 0.8834 0.8242
H125_8 H 0.2251 0.8654 0.8599
H126_8 H 0.1627 0.8870 0.8597
N51_8 N 0.1888(3) 0.79084(14) 0.92814(15)
N52_8 N 0.1505(3) 0.81139(16) 0.94382(15)
C106_8 C 0.2224(5) 0.7747(2) 0.8655(2)
H127_8 H 0.2714 0.7744 0.8719
H128_8 H 0.2169 0.7813 0.8404
H129_8 H 0.2034 0.7560 0.8676
C107_8 C 0.1842(4) 0.79384(17) 0.89147(17)
C108_8 C 0.1414(3) 0.81579(14) 0.88324(16)
C109_8 C 0.1212(4) 0.82656(19) 0.91724(18)
C110_8 C 0.0752(5) 0.8509(2) 0.9258(2)
H130_8 H 0.0684 0.8523 0.9522
H131_8 H 0.0304 0.8484 0.9137
H132_8 H 0.0968 0.8679 0.9168
N56_6 N 0.3520(3) 0.75916(15) 0.98706(15)
C89_8 C 0.4636(4) 0.75405(18) 0.00259(18)
C90_8 C 0.4284(4) 0.76784(18) 0.0306(2)
C91_8 C 0.4556(4) 0.7796(2) 0.0660(2)
H106_8 H 0.4319 0.7969 0.0714
H107_8 H 0.5052 0.7830 0.0637
H108_8 H 0.4473 0.7664 0.0858
C118_8 C 0.5364(4) 0.74595(18) 0.00259(18)
C119_8 C 0.5716(4) 0.73216(18) 0.0306(2)
C120_8 C 0.5444(4) 0.7204(2) 0.0660(2)
H142_8 H 0.5681 0.7031 0.0714
H143_8 H 0.4948 0.7170 0.0637
H144_8 H 0.5527 0.7336 0.0858
C87_8 C 0.4197(4) 0.73637(19) 0.9383(2)
H103_8 H 0.4559 0.7223 0.9388
H104_8 H 0.4317 0.7506 0.9204
H105_8 H 0.3758 0.7278 0.9314
C88_8 C 0.4129(4) 0.74930(16) 0.97567(17)
C116_8 C 0.5803(4) 0.76363(19) 0.9383(2)
H139_8 H 0.5441 0.7777 0.9388
H140_8 H 0.5683 0.7494 0.9204
H141_8 H 0.6242 0.7722 0.9314
C117_8 C 0.5871(4) 0.75070(16) 0.97567(17)
loop_
_geom_bond_atom_site_label_1
_geom_bond_atom_site_label_2
_geom_bond_site_symmetry_1
_geom_bond_site_symmetry_2
C16 H19 1_555 1_555
H21 C16 1_555 1_555
Ag14 N26 1_555 1_555
N26 C54 1_555 1_555
C55 C54 1_555 1_555
H64 C55 1_555 1_555
H65 C55 1_555 1_555
H66 C55 1_555 1_555
C21 H25 1_555 1_555
H26 C21 1_555 1_555
Ag12 N24 1_555 1_555
Ag15 N26_2 1_555 1_555
N24 N26_2 1_555 1_555
N26_2 C54_2 1_555 1_555
C54_2 C53 1_555 1_555
C55_2 C54_2 1_555 1_555
H64_2 C55_2 1_555 1_555
H65_2 C55_2 1_555 1_555
H66_2 C55_2 1_555 1_555
C21 C22 1_555 1_555
N28 Ag16 1_555 1_555
Ag1 N1 1_555 1_555
Ag2 N4 1_555 1_555
Ag3 N2 1_555 1_555
Ag4 N9 1_555 1_555
Ag5 N10 1_555 1_555
Ag6 N11 1_555 1_555
N1 N2 1_555 1_555
N2 C4 1_555 1_555
N3 Ag1 1_555 1_555
N4 N3 1_555 1_555
N5 Ag2 1_555 1_555
N6 Ag3 1_555 1_555
C1 H1 1_555 1_555
H2 C1 1_555 1_555
H3 C1 1_555 1_555
C2 N1 1_555 1_555
C3 C2 1_555 1_555
C4 C3 1_555 1_555
C5 C4 1_555 1_555
H4 C5 1_555 1_555
H5 C5 1_555 1_555
H6 C5 1_555 1_555
C6 H7 1_555 1_555
H8 C6 1_555 1_555
H9 C6 1_555 1_555
C7 N3 1_555 1_555
C8 C7 1_555 1_555
C9 N4 1_555 1_555
C10 C9 1_555 1_555
H10 C10 1_555 1_555
H11 C10 1_555 1_555
H12 C10 1_555 1_555
C11 H13 1_555 1_555
H14 C11 1_555 1_555
H15 C11 1_555 1_555
C12 N5 1_555 1_555
C13 C12 1_555 1_555
C14 N6 1_555 1_555
C15 C14 1_555 1_555
H16 C15 1_555 1_555
H17 C15 1_555 1_555
H18 C15 1_555 1_555
N7 N8 1_555 1_555
N8 C19 1_555 1_555
C17 N7 1_555 1_555
C18 C13 1_555 1_555
C19 C18 1_555 1_555
C20 C19 1_555 1_555
H22 C20 1_555 1_555
H23 C20 1_555 1_555
H24 C20 1_555 1_555
N9 N10 1_555 1_555
N10 C24 1_555 1_555
C24 C23 1_555 1_555
C25 C24 1_555 1_555
H28 C25 1_555 1_555
H29 C25 1_555 1_555
H30 C25 1_555 1_555
N11 N12 1_555 1_555
N12 Ag4 1_555 1_555
C26 H31 1_555 1_555
H32 C26 1_555 1_555
H33 C26 1_555 1_555
C27 N11 1_555 1_555
C28 C8 1_555 1_555
C29 N12 1_555 1_555
C30 C29 1_555 1_555
H34 C30 1_555 1_555
H35 C30 1_555 1_555
H36 C30 1_555 1_555
Ag7 N13 1_555 1_555
Ag8 N16 1_555 1_555
Ag9 N17 1_555 1_555
Ag10 N14 1_555 1_555
Ag11 N19 1_555 1_555
Ag13 N25 1_555 1_555
N13 N14 1_555 1_555
N14 C34 1_555 1_555
N15 Ag7 1_555 1_555
N16 N15 1_555 1_555
N17 N19 1_555 1_555
N18 Ag8 1_555 1_555
N19 C44 1_555 1_555
N20 Ag10 1_555 1_555
C31 H37 1_555 1_555
H38 C31 1_555 1_555
H39 C31 1_555 1_555
C32 N13 1_555 1_555
C33 C3 1_555 1_555
C34 C33 1_555 1_555
C35 C34 1_555 1_555
H40 C35 1_555 1_555
H41 C35 1_555 1_555
H42 C35 1_555 1_555
C36 H43 1_555 1_555
H44 C36 1_555 1_555
H45 C36 1_555 1_555
C37 N15 1_555 1_555
C38 C37 1_555 1_555
C39 N16 1_555 1_555
C40 C39 1_555 1_555
H46 C40 1_555 1_555
H47 C40 1_555 1_555
H48 C40 1_555 1_555
C41 H49 1_555 1_555
H50 C41 1_555 1_555
H51 C41 1_555 1_555
C42 N17 1_555 1_555
C43 C42 1_555 1_555
C44 C43 1_555 1_555
C45 C44 1_555 1_555
H52 C45 1_555 1_555
H53 C45 1_555 1_555
H54 C45 1_555 1_555
N21 Ag5 1_555 1_555
N22 Ag6 1_555 1_555
C46 H55 1_555 1_555
H56 C46 1_555 1_555
H57 C46 1_555 1_555
C47 N21 1_555 1_555
C48 C43 1_555 1_555
C49 N22 1_555 1_555
C50 C49 1_555 1_555
H58 C50 1_555 1_555
H59 C50 1_555 1_555
H60 C50 1_555 1_555
C51 H61 1_555 1_555
H62 C51 1_555 1_555
N27 Ag17 1_555 1_555
N29 Ag13 1_555 1_555
C56 H67 1_555 1_555
H68 C56 1_555 1_555
H69 C56 1_555 1_555
C57 N27 1_555 1_555
C58 C38 1_555 1_555
C59 N29 1_555 1_555
C60 C59 1_555 1_555
H70 C60 1_555 1_555
H71 C60 1_555 1_555
H72 C60 1_555 1_555
N5 N6 1_555 1_555
C1 C2 1_555 1_555
C6 C7 1_555 1_555
C8 C9 1_555 1_555
C11 C12 1_555 1_555
C13 C14 1_555 1_555
C17 C18 1_555 1_555
C26 C27 1_555 1_555
C27 C28 1_555 1_555
C28 C29 1_555 1_555
N18 N20 1_555 1_555
C31 C32 1_555 1_555
C32 C33 1_555 1_555
C36 C37 1_555 1_555
C38 C39 1_555 1_555
C41 C42 1_555 1_555
N21 N22 1_555 1_555
C46 C47 1_555 1_555
C47 C48 1_555 1_555
C48 C49 1_555 1_555
C51 C52 1_555 1_555
N27 N29 1_555 1_555
C56 C57 1_555 1_555
C57 C58 1_555 1_555
C58 C59 1_555 1_555
Ag13_2 N25_2 1_555 1_555
C46_2 H55_2 1_555 1_555
H57_2 C46_2 1_555 1_555
Ag5_2 N10_2 1_555 1_555
N10_2 C24_2 1_555 1_555
C25_2 C24_2 1_555 1_555
H28_2 C25_2 1_555 1_555
H29_2 C25_2 1_555 1_555
H30_2 C25_2 1_555 1_555
Ag15_2 N26_3 1_555 1_555
C46_3 H55_3 1_555 1_555
H57_3 C46_3 1_555 1_555
N26_3 C54_3 1_555 1_555
C55_3 C54_3 1_555 1_555
H64_3 C55_3 1_555 1_555
H65_3 C55_3 1_555 1_555
H66_3 C55_3 1_555 1_555
C21_2 H25_2 1_555 1_555
H26_2 C21_2 1_555 1_555
H27_2 C21_2 1_555 1_555
C22_2 N25_2 1_555 1_555
C23_2 C22_2 1_555 1_555
C51_2 H61_2 1_555 1_555
H62_2 C51_2 1_555 1_555
H63_2 C51_2 1_555 1_555
C52_2 N25 1_555 1_555
C53_2 C23_2 1_555 1_555
C21_2 C22_2 1_555 1_555
C51_2 C52_2 1_555 1_555
C52_2 C53_2 1_555 1_555
Ag9_2 N17_2 1_555 1_555
Ag11_2 N19_2 1_555 1_555
N17_2 N19_2 1_555 1_555
N19_2 C44_2 1_555 1_555
C41_2 H49_2 1_555 1_555
H50_2 C41_2 1_555 1_555
H51_2 C41_2 1_555 1_555
C42_2 N17_2 1_555 1_555
C43_2 C42_2 1_555 1_555
C44_2 C43_2 1_555 1_555
C45_2 C44_2 1_555 1_555
H52_2 C45_2 1_555 1_555
H53_2 C45_2 1_555 1_555
H54_2 C45_2 1_555 1_555
N21_2 Ag15_2 1_555 1_555
C46_4 H55_4 1_555 1_555
H56_2 C46_4 1_555 1_555
H57_4 C46_4 1_555 1_555
C47_2 N21_2 1_555 1_555
C48_2 C43_2 1_555 1_555
C49_2 N23 1_555 1_555
C50_2 C49_2 1_555 1_555
H58_2 C50_2 1_555 1_555
H59_2 C50_2 1_555 1_555
H60_2 C50_2 1_555 1_555
C41_2 C42_2 1_555 1_555
N21_2 N23 1_555 1_555
C46_4 C47_2 1_555 1_555
C47_2 C48_2 1_555 1_555
C48_2 C49_2 1_555 1_555
C11_2 H13_2 1_555 1_555
H14_2 C11_2 1_555 1_555
H15_2 C11_2 1_555 1_555
C12_2 N18 1_555 1_555
C13_2 C12_2 1_555 1_555
C14_2 N20 1_555 1_555
C15_2 C14_2 1_555 1_555
H16_2 C15_2 1_555 1_555
H17_2 C15_2 1_555 1_555
H18_2 C15_2 1_555 1_555
N7_2 N8_2 1_555 1_555
N8_2 C19_2 1_555 1_555
C17_2 N7_2 1_555 1_555
C18_2 C13_2 1_555 1_555
C19_2 C18_2 1_555 1_555
C20_2 C19_2 1_555 1_555
H22_2 C20_2 1_555 1_555
H23_2 C20_2 1_555 1_555
H24_2 C20_2 1_555 1_555
Ag16_2 N8_2 1_555 1_555
N28_2 Ag16_2 1_555 1_555
C11_2 C12_2 1_555 1_555
C13_2 C14_2 1_555 1_555
C17_2 C18_2 1_555 1_555
Ag1_2 N1_2 1_555 1_555
Ag9_2 N4_2 1_555 1_555
Ag11_2 N2_2 1_555 1_555
N1_2 N2_2 1_555 1_555
N2_2 C4_2 1_555 1_555
N3_2 Ag1_2 1_555 1_555
N4_2 N3_2 1_555 1_555
C1_2 H1_2 1_555 1_555
H2_2 C1_2 1_555 1_555
H3_2 C1_2 1_555 1_555
C2_2 N1_2 1_555 1_555
C3_2 C2_2 1_555 1_555
C4_2 C3_2 1_555 1_555
C5_2 C4_2 1_555 1_555
H4_2 C5_2 1_555 1_555
H5_2 C5_2 1_555 1_555
H6_2 C5_2 1_555 1_555
C6_2 H7_2 1_555 1_555
H8_2 C6_2 1_555 1_555
H9_2 C6_2 1_555 1_555
C7_2 N3_2 1_555 1_555
C8_2 C7_2 1_555 1_555
C9_2 N4_2 1_555 1_555
C10_2 C9_2 1_555 1_555
H10_2 C10_2 1_555 1_555
H11_2 C10_2 1_555 1_555
H12_2 C10_2 1_555 1_555
N28_2 N12_2 1_555 1_555
C26_2 H31_2 1_555 1_555
H32_2 C26_2 1_555 1_555
H33_2 C26_2 1_555 1_555
C27_2 N28_2 1_555 1_555
C28_2 C8_2 1_555 1_555
C29_2 N12_2 1_555 1_555
C30_2 C29_2 1_555 1_555
H35_2 C30_2 1_555 1_555
H36_2 C30_2 1_555 1_555
Ag7_2 N13_2 1_555 1_555
Ag9 N16_2 1_555 1_555
Ag11 N14_2 1_555 1_555
N13_2 N14_2 1_555 1_555
N14_2 C34_2 1_555 1_555
N15_2 Ag7_2 1_555 1_555
N16_2 N15_2 1_555 1_555
C31_2 H37_2 1_555 1_555
H38_2 C31_2 1_555 1_555
H39_2 C31_2 1_555 1_555
C32_2 N13_2 1_555 1_555
C33_2 C3_2 1_555 1_555
C34_2 C33_2 1_555 1_555
C35_2 C34_2 1_555 1_555
H40_2 C35_2 1_555 1_555
H41_2 C35_2 1_555 1_555
H42_2 C35_2 1_555 1_555
C36_2 H43_2 1_555 1_555
H44_2 C36_2 1_555 1_555
H45_2 C36_2 1_555 1_555
C37_2 N15_2 1_555 1_555
C38_2 C37_2 1_555 1_555
C39_2 N16_2 1_555 1_555
C40_2 C39_2 1_555 1_555
H46_2 C40_2 1_555 1_555
H47_2 C40_2 1_555 1_555
H48_2 C40_2 1_555 1_555
C56_2 H67_2 1_555 1_555
H68_2 C56_2 1_555 1_555
H69_2 C56_2 1_555 1_555
C57_2 N28 1_555 1_555
C58_2 C38_2 1_555 1_555
C59_2 N29_2 1_555 1_555
C60_2 C59_2 1_555 1_555
H71_2 C60_2 1_555 1_555
H72_2 C60_2 1_555 1_555
C1_2 C2_2 1_555 1_555
C6_2 C7_2 1_555 1_555
C8_2 C9_2 1_555 1_555
C26_2 C27_2 1_555 1_555
C27_2 C28_2 1_555 1_555
C28_2 C29_2 1_555 1_555
C31_2 C32_2 1_555 1_555
C32_2 C33_2 1_555 1_555
C36_2 C37_2 1_555 1_555
C38_2 C39_2 1_555 1_555
N28 N29_2 1_555 1_555
C56_2 C57_2 1_555 1_555
C57_2 C58_2 1_555 1_555
C58_2 C59_2 1_555 1_555
N28_3 Ag16_3 1_555 1_555
Ag1_3 N1_3 1_555 1_555
Ag2_2 N4_3 1_555 1_555
Ag3_2 N2_3 1_555 1_555
Ag6_2 N11_2 1_555 1_555
N1_3 N2_3 1_555 1_555
N2_3 C4_3 1_555 1_555
N3_3 Ag1_3 1_555 1_555
N4_3 N3_3 1_555 1_555
N5_2 Ag2_2 1_555 1_555
N6_2 Ag3_2 1_555 1_555
C1_3 H1_3 1_555 1_555
H2_3 C1_3 1_555 1_555
H3_3 C1_3 1_555 1_555
C2_3 N1_3 1_555 1_555
C3_3 C2_3 1_555 1_555
C4_3 C3_3 1_555 1_555
C5_3 C4_3 1_555 1_555
H4_3 C5_3 1_555 1_555
H5_3 C5_3 1_555 1_555
H6_3 C5_3 1_555 1_555
C6_3 H7_3 1_555 1_555
H8_3 C6_3 1_555 1_555
H9_3 C6_3 1_555 1_555
C7_3 N3_3 1_555 1_555
C8_3 C7_3 1_555 1_555
C9_3 N4_3 1_555 1_555
C10_3 C9_3 1_555 1_555
H10_3 C10_3 1_555 1_555
H11_3 C10_3 1_555 1_555
H12_3 C10_3 1_555 1_555
C11_3 H13_3 1_555 1_555
H14_3 C11_3 1_555 1_555
H15_3 C11_3 1_555 1_555
C12_3 N5_2 1_555 1_555
C13_3 C12_3 1_555 1_555
C14_3 N6_2 1_555 1_555
C15_3 C14_3 1_555 1_555
H16_3 C15_3 1_555 1_555
H17_3 C15_3 1_555 1_555
H18_3 C15_3 1_555 1_555
N7_3 N8_3 1_555 1_555
N8_3 C19_3 1_555 1_555
C16_2 H19_2 1_555 1_555
H20_3 C16_2 1_555 1_555
H21_2 C16_2 1_555 1_555
C17_3 N7_3 1_555 1_555
C18_3 C13_3 1_555 1_555
C19_3 C18_3 1_555 1_555
C20_3 C19_3 1_555 1_555
H22_3 C20_3 1_555 1_555
H23_3 C20_3 1_555 1_555
H24_3 C20_3 1_555 1_555
N11_2 N12_3 1_555 1_555
C26_3 H31_3 1_555 1_555
H32_3 C26_3 1_555 1_555
H33_3 C26_3 1_555 1_555
C27_3 N11_2 1_555 1_555
C28_3 C8_3 1_555 1_555
C29_3 N12_3 1_555 1_555
C30_3 C29_3 1_555 1_555
H35_3 C30_3 1_555 1_555
H36_3 C30_3 1_555 1_555
Ag7_3 N13_3 1_555 1_555
Ag8_2 N16_3 1_555 1_555
Ag9_3 N17_3 1_555 1_555
Ag10_2 N14_3 1_555 1_555
Ag11_3 N19_3 1_555 1_555
Ag14_2 N7_3 1_555 1_555
N13_3 N14_3 1_555 1_555
N14_3 C34_3 1_555 1_555
N15_3 Ag7_3 1_555 1_555
N16_3 N15_3 1_555 1_555
N17_3 N19_3 1_555 1_555
N18_2 Ag8_2 1_555 1_555
N19_3 C44_3 1_555 1_555
N20_2 Ag10_2 1_555 1_555
C31_3 H37_3 1_555 1_555
H38_3 C31_3 1_555 1_555
H39_3 C31_3 1_555 1_555
C32_3 N13_3 1_555 1_555
C33_3 C3_3 1_555 1_555
C34_3 C33_3 1_555 1_555
C35_3 C34_3 1_555 1_555
H40_3 C35_3 1_555 1_555
H41_3 C35_3 1_555 1_555
H42_3 C35_3 1_555 1_555
C36_3 H43_3 1_555 1_555
H44_3 C36_3 1_555 1_555
H45_3 C36_3 1_555 1_555
C37_3 N15_3 1_555 1_555
C38_3 C37_3 1_555 1_555
C39_3 N16_3 1_555 1_555
C40_3 C39_3 1_555 1_555
H46_3 C40_3 1_555 1_555
H47_3 C40_3 1_555 1_555
H48_3 C40_3 1_555 1_555
C41_3 H49_3 1_555 1_555
H50_3 C41_3 1_555 1_555
H51_3 C41_3 1_555 1_555
C42_3 N17_3 1_555 1_555
C43_3 C42_3 1_555 1_555
C44_3 C43_3 1_555 1_555
C45_3 C44_3 1_555 1_555
H52_3 C45_3 1_555 1_555
H53_3 C45_3 1_555 1_555
H54_3 C45_3 1_555 1_555
N22_2 Ag6_2 1_555 1_555
C47_3 N21_3 1_555 1_555
C48_3 C43_3 1_555 1_555
C49_3 N22_2 1_555 1_555
C50_3 C49_3 1_555 1_555
H58_3 C50_3 1_555 1_555
H59_3 C50_3 1_555 1_555
H60_3 C50_3 1_555 1_555
N27_2 Ag17_2 1_555 1_555
C56_3 H67_3 1_555 1_555
H68_3 C56_3 1_555 1_555
H69_3 C56_3 1_555 1_555
C57_3 N27_2 1_555 1_555
C58_3 C38_3 1_555 1_555
C59_3 N29_3 1_555 1_555
C60_3 C59_3 1_555 1_555
H71_3 C60_3 1_555 1_555
H72_3 C60_3 1_555 1_555
N5_2 N6_2 1_555 1_555
C1_3 C2_3 1_555 1_555
C6_3 C7_3 1_555 1_555
C8_3 C9_3 1_555 1_555
C11_3 C12_3 1_555 1_555
C13_3 C14_3 1_555 1_555
C16_2 C17_3 1_555 1_555
C17_3 C18_3 1_555 1_555
C26_3 C27_3 1_555 1_555
C27_3 C28_3 1_555 1_555
C28_3 C29_3 1_555 1_555
N18_2 N20_2 1_555 1_555
C31_3 C32_3 1_555 1_555
C32_3 C33_3 1_555 1_555
C36_3 C37_3 1_555 1_555
C38_3 C39_3 1_555 1_555
C41_3 C42_3 1_555 1_555
N21_3 N22_2 1_555 1_555
C47_3 C48_3 1_555 1_555
C48_3 C49_3 1_555 1_555
N27_2 N29_3 1_555 1_555
C56_3 C57_3 1_555 1_555
C57_3 C58_3 1_555 1_555
C58_3 C59_3 1_555 1_555
C16_3 H19_3 1_555 1_555
H21_3 C16_3 1_555 1_555
Ag9_4 N17_4 1_555 1_555
Ag11_4 N19_4 1_555 1_555
N17_4 N19_4 1_555 1_555
N19_4 C44_4 1_555 1_555
C41_4 H49_4 1_555 1_555
H50_4 C41_4 1_555 1_555
H51_4 C41_4 1_555 1_555
C42_4 N17_4 1_555 1_555
C43_4 C42_4 1_555 1_555
C44_4 C43_4 1_555 1_555
C45_4 C44_4 1_555 1_555
H52_4 C45_4 1_555 1_555
H53_4 C45_4 1_555 1_555
H54_4 C45_4 1_555 1_555
C47_4 N21_4 1_555 1_555
C48_4 C43_4 1_555 1_555
C49_4 N23_2 1_555 1_555
C50_4 C49_4 1_555 1_555
H58_4 C50_4 1_555 1_555
H59_4 C50_4 1_555 1_555
H60_4 C50_4 1_555 1_555
C41_4 C42_4 1_555 1_555
N21_4 N23_2 1_555 1_555
C47_4 C48_4 1_555 1_555
C48_4 C49_4 1_555 1_555
C11_4 H13_4 1_555 1_555
H14_4 C11_4 1_555 1_555
H15_4 C11_4 1_555 1_555
C12_4 N18_2 1_555 1_555
C13_4 C12_4 1_555 1_555
C14_4 N20_2 1_555 1_555
C15_4 C14_4 1_555 1_555
H16_4 C15_4 1_555 1_555
H17_4 C15_4 1_555 1_555
H18_4 C15_4 1_555 1_555
N7_4 N8_4 1_555 1_555
N8_4 C19_4 1_555 1_555
C16_4 H19_4 1_555 1_555
H20_4 C16_4 1_555 1_555
H21_4 C16_4 1_555 1_555
C17_4 N7_4 1_555 1_555
C18_4 C13_4 1_555 1_555
C19_4 C18_4 1_555 1_555
C20_4 C19_4 1_555 1_555
H22_4 C20_4 1_555 1_555
H23_4 C20_4 1_555 1_555
H24_4 C20_4 1_555 1_555
Ag14_4 N7_4 1_555 1_555
Ag16_4 N8_4 1_555 1_555
N28_4 Ag16_4 1_555 1_555
C11_4 C12_4 1_555 1_555
C13_4 C14_4 1_555 1_555
C16_4 C17_4 1_555 1_555
C17_4 C18_4 1_555 1_555
C16_5 H19_5 1_555 1_555
H21_5 C16_5 1_555 1_555
Ag1_4 N1_4 1_555 1_555
Ag9_4 N4_4 1_555 1_555
Ag11_4 N2_4 1_555 1_555
Ag4_2 N9_2 1_555 1_555
Ag14_4 N10_3 1_555 1_555
N1_4 N2_4 1_555 1_555
N2_4 C4_4 1_555 1_555
N3_4 Ag1_4 1_555 1_555
N4_4 N3_4 1_555 1_555
C1_4 H1_4 1_555 1_555
H2_4 C1_4 1_555 1_555
H3_4 C1_4 1_555 1_555
C2_4 N1_4 1_555 1_555
C3_4 C2_4 1_555 1_555
C4_4 C3_4 1_555 1_555
C5_4 C4_4 1_555 1_555
H4_4 C5_4 1_555 1_555
H5_4 C5_4 1_555 1_555
H6_4 C5_4 1_555 1_555
C6_4 H7_4 1_555 1_555
H8_4 C6_4 1_555 1_555
H9_4 C6_4 1_555 1_555
C7_4 N3_4 1_555 1_555
C8_4 C7_4 1_555 1_555
C9_4 N4_4 1_555 1_555
C10_4 C9_4 1_555 1_555
H10_4 C10_4 1_555 1_555
H11_4 C10_4 1_555 1_555
H12_4 C10_4 1_555 1_555
N9_2 N10_3 1_555 1_555
N10_3 C24_3 1_555 1_555
C24_3 C23_3 1_555 1_555
C25_3 C24_3 1_555 1_555
H28_3 C25_3 1_555 1_555
H29_3 C25_3 1_555 1_555
H30_3 C25_3 1_555 1_555
N28_4 N12_4 1_555 1_555
N12_4 Ag4_2 1_555 1_555
C26_4 H31_4 1_555 1_555
H32_4 C26_4 1_555 1_555
H33_4 C26_4 1_555 1_555
C27_4 N28_4 1_555 1_555
C28_4 C8_4 1_555 1_555
C29_4 N12_4 1_555 1_555
C30_4 C29_4 1_555 1_555
H34_3 C30_4 1_555 1_555
H35_4 C30_4 1_555 1_555
H36_4 C30_4 1_555 1_555
Ag7_4 N13_4 1_555 1_555
Ag9_3 N16_4 1_555 1_555
Ag11_3 N14_4 1_555 1_555
Ag13_3 N25_3 1_555 1_555
N13_4 N14_4 1_555 1_555
N14_4 C34_4 1_555 1_555
N15_4 Ag7_4 1_555 1_555
N16_4 N15_4 1_555 1_555
C31_4 H37_4 1_555 1_555
H38_4 C31_4 1_555 1_555
H39_4 C31_4 1_555 1_555
C32_4 N13_4 1_555 1_555
C33_4 C3_4 1_555 1_555
C34_4 C33_4 1_555 1_555
C35_4 C34_4 1_555 1_555
H40_4 C35_4 1_555 1_555
H41_4 C35_4 1_555 1_555
H42_4 C35_4 1_555 1_555
C36_4 H43_4 1_555 1_555
H44_4 C36_4 1_555 1_555
H45_4 C36_4 1_555 1_555
C37_4 N15_4 1_555 1_555
C38_4 C37_4 1_555 1_555
C39_4 N16_4 1_555 1_555
C40_4 C39_4 1_555 1_555
H46_4 C40_4 1_555 1_555
H47_4 C40_4 1_555 1_555
H48_4 C40_4 1_555 1_555
C51_3 H61_3 1_555 1_555
H62_3 C51_3 1_555 1_555
N29_4 Ag13_3 1_555 1_555
C56_4 H67_4 1_555 1_555
H68_4 C56_4 1_555 1_555
H69_4 C56_4 1_555 1_555
C57_4 N28_3 1_555 1_555
C58_4 C38_4 1_555 1_555
C59_4 N29_4 1_555 1_555
C60_4 C59_4 1_555 1_555
H70_3 C60_4 1_555 1_555
H71_4 C60_4 1_555 1_555
H72_4 C60_4 1_555 1_555
C1_4 C2_4 1_555 1_555
C6_4 C7_4 1_555 1_555
C8_4 C9_4 1_555 1_555
C26_4 C27_4 1_555 1_555
C27_4 C28_4 1_555 1_555
C28_4 C29_4 1_555 1_555
C31_4 C32_4 1_555 1_555
C32_4 C33_4 1_555 1_555
C36_4 C37_4 1_555 1_555
C38_4 C39_4 1_555 1_555
C51_3 C52_3 1_555 1_555
N28_3 N29_4 1_555 1_555
C56_4 C57_4 1_555 1_555
C57_4 C58_4 1_555 1_555
C58_4 C59_4 1_555 1_555
C21_3 H25_3 1_555 1_555
H26_3 C21_3 1_555 1_555
Ag12_2 N24_2 1_555 1_555
Ag14_3 N26_4 1_555 1_555
N24_2 N26_4 1_555 1_555
N26_4 C54_4 1_555 1_555
C54_4 C53_3 1_555 1_555
C55_4 C54_4 1_555 1_555
H64_4 C55_4 1_555 1_555
H65_4 C55_4 1_555 1_555
H66_4 C55_4 1_555 1_555
C21_3 C22_3 1_555 1_555
Ag13_4 N25_4 1_555 1_555
C21_4 H25_4 1_555 1_555
H26_4 C21_4 1_555 1_555
H27_4 C21_4 1_555 1_555
C22_4 N25_4 1_555 1_555
C23_4 C22_4 1_555 1_555
C51_4 H61_4 1_555 1_555
H62_4 C51_4 1_555 1_555
H63_4 C51_4 1_555 1_555
C52_4 N25_3 1_555 1_555
C53_4 C23_4 1_555 1_555
C21_4 C22_4 1_555 1_555
C51_4 C52_4 1_555 1_555
C52_4 C53_4 1_555 1_555
Ag14_5 N10_4 1_555 1_555
N10_4 C24_4 1_555 1_555
C25_4 C24_4 1_555 1_555
H28_4 C25_4 1_555 1_555
H29_4 C25_4 1_555 1_555
H30_4 C25_4 1_555 1_555
Ag14_2 N26_5 1_555 1_555
N26_5 C54_5 1_555 1_555
C55_5 C54_5 1_555 1_555
H64_5 C55_5 1_555 1_555
H65_5 C55_5 1_555 1_555
H66_5 C55_5 1_555 1_555
Ag4_3 N9_3 1_555 1_555
Ag5_3 N10_5 1_555 1_555
N9_3 N10_5 1_555 1_555
N10_5 C24_5 1_555 1_555
C21_5 H25_5 1_555 1_555
H26_5 C21_5 1_555 1_555
H27_5 C21_5 1_555 1_555
C22_5 N9_3 1_555 1_555
C23_5 C22_5 1_555 1_555
C24_5 C23_5 1_555 1_555
C25_5 C24_5 1_555 1_555
H28_5 C25_5 1_555 1_555
H29_5 C25_5 1_555 1_555
H30_5 C25_5 1_555 1_555
Ag12_3 N24_3 1_555 1_555
Ag13_5 N25_5 1_555 1_555
Ag15_3 N26_6 1_555 1_555
C46_5 H55_5 1_555 1_555
H57_5 C46_5 1_555 1_555
N24_3 N26_6 1_555 1_555
N26_6 C54_6 1_555 1_555
C51_5 H61_5 1_555 1_555
H62_5 C51_5 1_555 1_555
H63_5 C51_5 1_555 1_555
C52_5 N24_3 1_555 1_555
C53_5 C23_5 1_555 1_555
C54_6 C53_5 1_555 1_555
C55_6 C54_6 1_555 1_555
H64_6 C55_6 1_555 1_555
H65_6 C55_6 1_555 1_555
H66_6 C55_6 1_555 1_555
C21_5 C22_5 1_555 1_555
C51_5 C52_5 1_555 1_555
C52_5 C53_5 1_555 1_555
C21_6 H25_6 1_555 1_555
H26_6 C21_6 1_555 1_555
C21_6 C22_6 1_555 1_555
Ag5_4 N10_6 1_555 1_555
N10_6 C24_6 1_555 1_555
C25_6 C24_6 1_555 1_555
H28_6 C25_6 1_555 1_555
H29_6 C25_6 1_555 1_555
H30_6 C25_6 1_555 1_555
Ag9_5 N17_5 1_555 1_555
Ag11_5 N19_5 1_555 1_555
N17_5 N19_5 1_555 1_555
N19_5 C44_5 1_555 1_555
C41_5 H49_5 1_555 1_555
H50_5 C41_5 1_555 1_555
H51_5 C41_5 1_555 1_555
C42_5 N17_5 1_555 1_555
C43_5 C42_5 1_555 1_555
C44_5 C43_5 1_555 1_555
C45_5 C44_5 1_555 1_555
H52_5 C45_5 1_555 1_555
H53_5 C45_5 1_555 1_555
H54_5 C45_5 1_555 1_555
N21_5 Ag5_4 1_555 1_555
C46_6 H55_6 1_555 1_555
H56_5 C46_6 1_555 1_555
H57_6 C46_6 1_555 1_555
C47_5 N21_5 1_555 1_555
C48_5 C43_5 1_555 1_555
C49_5 N22_3 1_555 1_555
C50_5 C49_5 1_555 1_555
H58_5 C50_5 1_555 1_555
H59_5 C50_5 1_555 1_555
H60_5 C50_5 1_555 1_555
C41_5 C42_5 1_555 1_555
N21_5 N22_3 1_555 1_555
C46_6 C47_5 1_555 1_555
C47_5 C48_5 1_555 1_555
C48_5 C49_5 1_555 1_555
Ag1_5 N1_5 1_555 1_555
Ag2_3 N4_5 1_555 1_555
Ag3_3 N2_5 1_555 1_555
Ag4_4 N9_4 1_555 1_555
Ag6_3 N11_3 1_555 1_555
N1_5 N2_5 1_555 1_555
N2_5 C4_5 1_555 1_555
N3_5 Ag1_5 1_555 1_555
N4_5 N3_5 1_555 1_555
N5_3 Ag2_3 1_555 1_555
N6_3 Ag3_3 1_555 1_555
C1_5 H1_5 1_555 1_555
H2_5 C1_5 1_555 1_555
H3_5 C1_5 1_555 1_555
C2_5 N1_5 1_555 1_555
C3_5 C2_5 1_555 1_555
C4_5 C3_5 1_555 1_555
C5_5 C4_5 1_555 1_555
H4_5 C5_5 1_555 1_555
H5_5 C5_5 1_555 1_555
H6_5 C5_5 1_555 1_555
C6_5 H7_5 1_555 1_555
H8_5 C6_5 1_555 1_555
H9_5 C6_5 1_555 1_555
C7_5 N3_5 1_555 1_555
C8_5 C7_5 1_555 1_555
C9_5 N4_5 1_555 1_555
C10_5 C9_5 1_555 1_555
H10_5 C10_5 1_555 1_555
H11_5 C10_5 1_555 1_555
H12_5 C10_5 1_555 1_555
C11_5 H13_5 1_555 1_555
H14_5 C11_5 1_555 1_555
H15_5 C11_5 1_555 1_555
C12_5 N5_3 1_555 1_555
C13_5 C12_5 1_555 1_555
C14_5 N6_3 1_555 1_555
C15_5 C14_5 1_555 1_555
H16_5 C15_5 1_555 1_555
H17_5 C15_5 1_555 1_555
H18_5 C15_5 1_555 1_555
N7_5 N8_5 1_555 1_555
N8_5 C19_5 1_555 1_555
C17_5 N7_5 1_555 1_555
C18_5 C13_5 1_555 1_555
C19_5 C18_5 1_555 1_555
C20_5 C19_5 1_555 1_555
H22_5 C20_5 1_555 1_555
H23_5 C20_5 1_555 1_555
H24_5 C20_5 1_555 1_555
N11_3 N12_5 1_555 1_555
N12_5 Ag4_4 1_555 1_555
C26_5 H31_5 1_555 1_555
H32_5 C26_5 1_555 1_555
H33_5 C26_5 1_555 1_555
C27_5 N11_3 1_555 1_555
C28_5 C8_5 1_555 1_555
C29_5 N12_5 1_555 1_555
C30_5 C29_5 1_555 1_555
H34_6 C30_5 1_555 1_555
H35_5 C30_5 1_555 1_555
H36_5 C30_5 1_555 1_555
Ag7_5 N13_5 1_555 1_555
Ag8_3 N16_5 1_555 1_555
Ag10_3 N14_5 1_555 1_555
Ag16_5 N8_5 1_555 1_555
Ag17_3 N23_3 1_555 1_555
N13_5 N14_5 1_555 1_555
N14_5 C34_5 1_555 1_555
N15_5 Ag7_5 1_555 1_555
N16_5 N15_5 1_555 1_555
N18_3 Ag8_3 1_555 1_555
N20_3 Ag10_3 1_555 1_555
C31_5 H37_5 1_555 1_555
H38_5 C31_5 1_555 1_555
H39_5 C31_5 1_555 1_555
C32_5 N13_5 1_555 1_555
C33_5 C3_5 1_555 1_555
C34_5 C33_5 1_555 1_555
C35_5 C34_5 1_555 1_555
H40_5 C35_5 1_555 1_555
H41_5 C35_5 1_555 1_555
H42_5 C35_5 1_555 1_555
C36_5 H43_5 1_555 1_555
H44_5 C36_5 1_555 1_555
H45_5 C36_5 1_555 1_555
C37_5 N15_5 1_555 1_555
C38_5 C37_5 1_555 1_555
C39_5 N16_5 1_555 1_555
C40_5 C39_5 1_555 1_555
H46_5 C40_5 1_555 1_555
H47_5 C40_5 1_555 1_555
H48_5 C40_5 1_555 1_555
C51_6 H61_6 1_555 1_555
H62_6 C51_6 1_555 1_555
N27_3 Ag17_3 1_555 1_555
N28_5 Ag16_5 1_555 1_555
N29_5 Ag12_3 1_555 1_555
C56_5 H67_5 1_555 1_555
H68_5 C56_5 1_555 1_555
H69_5 C56_5 1_555 1_555
C57_5 N27_3 1_555 1_555
C58_5 C38_5 1_555 1_555
C59_5 N29_5 1_555 1_555
C60_5 C59_5 1_555 1_555
H70_6 C60_5 1_555 1_555
H71_5 C60_5 1_555 1_555
H72_5 C60_5 1_555 1_555
N5_3 N6_3 1_555 1_555
C1_5 C2_5 1_555 1_555
C6_5 C7_5 1_555 1_555
C8_5 C9_5 1_555 1_555
C11_5 C12_5 1_555 1_555
C13_5 C14_5 1_555 1_555
C17_5 C18_5 1_555 1_555
C26_5 C27_5 1_555 1_555
C27_5 C28_5 1_555 1_555
C28_5 C29_5 1_555 1_555
N18_3 N20_3 1_555 1_555
C31_5 C32_5 1_555 1_555
C32_5 C33_5 1_555 1_555
C36_5 C37_5 1_555 1_555
C38_5 C39_5 1_555 1_555
C51_6 C52_6 1_555 1_555
N27_3 N29_5 1_555 1_555
C56_5 C57_5 1_555 1_555
C57_5 C58_5 1_555 1_555
C58_5 C59_5 1_555 1_555
N28_6 Ag16_6 1_555 1_555
C11_6 H13_6 1_555 1_555
H14_6 C11_6 1_555 1_555
H15_6 C11_6 1_555 1_555
C12_6 N18_3 1_555 1_555
C13_6 C12_6 1_555 1_555
C14_6 N20_3 1_555 1_555
C15_6 C14_6 1_555 1_555
H16_6 C15_6 1_555 1_555
H17_6 C15_6 1_555 1_555
H18_6 C15_6 1_555 1_555
N7_6 N8_6 1_555 1_555
N8_6 C19_6 1_555 1_555
C17_6 N7_6 1_555 1_555
C18_6 C13_6 1_555 1_555
C19_6 C18_6 1_555 1_555
C20_6 C19_6 1_555 1_555
H22_6 C20_6 1_555 1_555
H23_6 C20_6 1_555 1_555
H24_6 C20_6 1_555 1_555
Ag9_6 N17_6 1_555 1_555
Ag11_6 N19_6 1_555 1_555
N17_6 N19_6 1_555 1_555
N19_6 C44_6 1_555 1_555
C41_6 H49_6 1_555 1_555
H50_6 C41_6 1_555 1_555
H51_6 C41_6 1_555 1_555
C42_6 N17_6 1_555 1_555
C43_6 C42_6 1_555 1_555
C44_6 C43_6 1_555 1_555
C45_6 C44_6 1_555 1_555
H52_6 C45_6 1_555 1_555
H53_6 C45_6 1_555 1_555
H54_6 C45_6 1_555 1_555
N21_6 Ag15_3 1_555 1_555
C46_7 H55_7 1_555 1_555
H56_6 C46_7 1_555 1_555
H57_7 C46_7 1_555 1_555
C47_6 N21_6 1_555 1_555
C48_6 C43_6 1_555 1_555
C49_6 N23_3 1_555 1_555
C50_6 C49_6 1_555 1_555
H58_6 C50_6 1_555 1_555
H59_6 C50_6 1_555 1_555
H60_6 C50_6 1_555 1_555
C11_6 C12_6 1_555 1_555
C13_6 C14_6 1_555 1_555
C17_6 C18_6 1_555 1_555
C41_6 C42_6 1_555 1_555
N21_6 N23_3 1_555 1_555
C46_7 C47_6 1_555 1_555
C47_6 C48_6 1_555 1_555
C48_6 C49_6 1_555 1_555
Ag1_6 N1_6 1_555 1_555
Ag9_5 N4_6 1_555 1_555
Ag11_5 N2_6 1_555 1_555
N1_6 N2_6 1_555 1_555
N2_6 C4_6 1_555 1_555
N3_6 Ag1_6 1_555 1_555
N4_6 N3_6 1_555 1_555
C1_6 H1_6 1_555 1_555
H2_6 C1_6 1_555 1_555
H3_6 C1_6 1_555 1_555
C2_6 N1_6 1_555 1_555
C3_6 C2_6 1_555 1_555
C4_6 C3_6 1_555 1_555
C5_6 C4_6 1_555 1_555
H4_6 C5_6 1_555 1_555
H5_6 C5_6 1_555 1_555
H6_6 C5_6 1_555 1_555
C6_6 H7_6 1_555 1_555
H8_6 C6_6 1_555 1_555
H9_6 C6_6 1_555 1_555
C7_6 N3_6 1_555 1_555
C8_6 C7_6 1_555 1_555
C9_6 N4_6 1_555 1_555
C10_6 C9_6 1_555 1_555
H10_6 C10_6 1_555 1_555
H11_6 C10_6 1_555 1_555
H12_6 C10_6 1_555 1_555
N28_5 N12_6 1_555 1_555
C26_6 H31_6 1_555 1_555
H32_6 C26_6 1_555 1_555
H33_6 C26_6 1_555 1_555
C27_6 N28_5 1_555 1_555
C28_6 C8_6 1_555 1_555
C29_6 N12_6 1_555 1_555
C30_6 C29_6 1_555 1_555
H35_6 C30_6 1_555 1_555
H36_6 C30_6 1_555 1_555
Ag7_6 N13_6 1_555 1_555
Ag9_6 N16_6 1_555 1_555
Ag11_6 N14_6 1_555 1_555
N13_6 N14_6 1_555 1_555
N14_6 C34_6 1_555 1_555
N15_6 Ag7_6 1_555 1_555
N16_6 N15_6 1_555 1_555
C31_6 H37_6 1_555 1_555
H38_6 C31_6 1_555 1_555
H39_6 C31_6 1_555 1_555
C32_6 N13_6 1_555 1_555
C33_6 C3_6 1_555 1_555
C34_6 C33_6 1_555 1_555
C35_6 C34_6 1_555 1_555
H40_6 C35_6 1_555 1_555
H41_6 C35_6 1_555 1_555
H42_6 C35_6 1_555 1_555
C36_6 H43_6 1_555 1_555
H44_6 C36_6 1_555 1_555
H45_6 C36_6 1_555 1_555
C37_6 N15_6 1_555 1_555
C38_6 C37_6 1_555 1_555
C39_6 N16_6 1_555 1_555
C40_6 C39_6 1_555 1_555
H46_6 C40_6 1_555 1_555
H47_6 C40_6 1_555 1_555
H48_6 C40_6 1_555 1_555
C56_6 H67_6 1_555 1_555
H68_6 C56_6 1_555 1_555
H69_6 C56_6 1_555 1_555
C57_6 N28_6 1_555 1_555
C58_6 C38_6 1_555 1_555
C59_6 N29_6 1_555 1_555
C60_6 C59_6 1_555 1_555
H71_6 C60_6 1_555 1_555
H72_6 C60_6 1_555 1_555
C1_6 C2_6 1_555 1_555
C6_6 C7_6 1_555 1_555
C8_6 C9_6 1_555 1_555
C26_6 C27_6 1_555 1_555
C27_6 C28_6 1_555 1_555
C28_6 C29_6 1_555 1_555
C31_6 C32_6 1_555 1_555
C32_6 C33_6 1_555 1_555
C36_6 C37_6 1_555 1_555
C38_6 C39_6 1_555 1_555
N28_6 N29_6 1_555 1_555
C56_6 C57_6 1_555 1_555
C57_6 C58_6 1_555 1_555
C58_6 C59_6 1_555 1_555
N28_7 Ag16_7 1_555 1_555
Ag1_7 N1_7 1_555 1_555
Ag2_4 N4_7 1_555 1_555
Ag3_4 N2_7 1_555 1_555
Ag6_4 N11_4 1_555 1_555
N1_7 N2_7 1_555 1_555
N2_7 C4_7 1_555 1_555
N3_7 Ag1_7 1_555 1_555
N4_7 N3_7 1_555 1_555
N5_4 Ag2_4 1_555 1_555
N6_4 Ag3_4 1_555 1_555
C1_7 H1_7 1_555 1_555
H2_7 C1_7 1_555 1_555
H3_7 C1_7 1_555 1_555
C2_7 N1_7 1_555 1_555
C3_7 C2_7 1_555 1_555
C4_7 C3_7 1_555 1_555
C5_7 C4_7 1_555 1_555
H4_7 C5_7 1_555 1_555
H5_7 C5_7 1_555 1_555
H6_7 C5_7 1_555 1_555
C6_7 H7_7 1_555 1_555
H8_7 C6_7 1_555 1_555
H9_7 C6_7 1_555 1_555
C7_7 N3_7 1_555 1_555
C8_7 C7_7 1_555 1_555
C9_7 N4_7 1_555 1_555
C10_7 C9_7 1_555 1_555
H10_7 C10_7 1_555 1_555
H11_7 C10_7 1_555 1_555
H12_7 C10_7 1_555 1_555
C11_7 H13_7 1_555 1_555
H14_7 C11_7 1_555 1_555
H15_7 C11_7 1_555 1_555
C12_7 N5_4 1_555 1_555
C13_7 C12_7 1_555 1_555
C14_7 N6_4 1_555 1_555
C15_7 C14_7 1_555 1_555
H16_7 C15_7 1_555 1_555
H17_7 C15_7 1_555 1_555
H18_7 C15_7 1_555 1_555
N7_7 N8_7 1_555 1_555
N8_7 C19_7 1_555 1_555
C16_6 H19_6 1_555 1_555
H20_7 C16_6 1_555 1_555
H21_6 C16_6 1_555 1_555
C17_7 N7_7 1_555 1_555
C18_7 C13_7 1_555 1_555
C19_7 C18_7 1_555 1_555
C20_7 C19_7 1_555 1_555
H22_7 C20_7 1_555 1_555
H23_7 C20_7 1_555 1_555
H24_7 C20_7 1_555 1_555
N11_4 N12_7 1_555 1_555
C26_7 H31_7 1_555 1_555
H32_7 C26_7 1_555 1_555
H33_7 C26_7 1_555 1_555
C27_7 N11_4 1_555 1_555
C28_7 C8_7 1_555 1_555
C29_7 N12_7 1_555 1_555
C30_7 C29_7 1_555 1_555
H35_7 C30_7 1_555 1_555
H36_7 C30_7 1_555 1_555
Ag7_7 N13_7 1_555 1_555
Ag8_4 N16_7 1_555 1_555
Ag9_7 N17_7 1_555 1_555
Ag10_4 N14_7 1_555 1_555
Ag11_7 N19_7 1_555 1_555
Ag14_6 N7_7 1_555 1_555
N13_7 N14_7 1_555 1_555
N14_7 C34_7 1_555 1_555
N15_7 Ag7_7 1_555 1_555
N16_7 N15_7 1_555 1_555
N17_7 N19_7 1_555 1_555
N18_4 Ag8_4 1_555 1_555
N19_7 C44_7 1_555 1_555
N20_4 Ag10_4 1_555 1_555
C31_7 H37_7 1_555 1_555
H38_7 C31_7 1_555 1_555
H39_7 C31_7 1_555 1_555
C32_7 N13_7 1_555 1_555
C33_7 C3_7 1_555 1_555
C34_7 C33_7 1_555 1_555
C35_7 C34_7 1_555 1_555
H40_7 C35_7 1_555 1_555
H41_7 C35_7 1_555 1_555
H42_7 C35_7 1_555 1_555
C36_7 H43_7 1_555 1_555
H44_7 C36_7 1_555 1_555
H45_7 C36_7 1_555 1_555
C37_7 N15_7 1_555 1_555
C38_7 C37_7 1_555 1_555
C39_7 N16_7 1_555 1_555
C40_7 C39_7 1_555 1_555
H46_7 C40_7 1_555 1_555
H47_7 C40_7 1_555 1_555
H48_7 C40_7 1_555 1_555
C41_7 H49_7 1_555 1_555
H50_7 C41_7 1_555 1_555
H51_7 C41_7 1_555 1_555
C42_7 N17_7 1_555 1_555
C43_7 C42_7 1_555 1_555
C44_7 C43_7 1_555 1_555
C45_7 C44_7 1_555 1_555
H52_7 C45_7 1_555 1_555
H53_7 C45_7 1_555 1_555
H54_7 C45_7 1_555 1_555
N22_4 Ag6_4 1_555 1_555
C47_7 N21_7 1_555 1_555
C48_7 C43_7 1_555 1_555
C49_7 N22_4 1_555 1_555
C50_7 C49_7 1_555 1_555
H58_7 C50_7 1_555 1_555
H59_7 C50_7 1_555 1_555
H60_7 C50_7 1_555 1_555
N27_4 Ag17_4 1_555 1_555
C56_7 H67_7 1_555 1_555
H68_7 C56_7 1_555 1_555
H69_7 C56_7 1_555 1_555
C57_7 N27_4 1_555 1_555
C58_7 C38_7 1_555 1_555
C59_7 N29_7 1_555 1_555
C60_7 C59_7 1_555 1_555
H71_7 C60_7 1_555 1_555
H72_7 C60_7 1_555 1_555
N5_4 N6_4 1_555 1_555
C1_7 C2_7 1_555 1_555
C6_7 C7_7 1_555 1_555
C8_7 C9_7 1_555 1_555
C11_7 C12_7 1_555 1_555
C13_7 C14_7 1_555 1_555
C16_6 C17_7 1_555 1_555
C17_7 C18_7 1_555 1_555
C26_7 C27_7 1_555 1_555
C27_7 C28_7 1_555 1_555
C28_7 C29_7 1_555 1_555
N18_4 N20_4 1_555 1_555
C31_7 C32_7 1_555 1_555
C32_7 C33_7 1_555 1_555
C36_7 C37_7 1_555 1_555
C38_7 C39_7 1_555 1_555
C41_7 C42_7 1_555 1_555
N21_7 N22_4 1_555 1_555
C47_7 C48_7 1_555 1_555
C48_7 C49_7 1_555 1_555
N27_4 N29_7 1_555 1_555
C56_7 C57_7 1_555 1_555
C57_7 C58_7 1_555 1_555
C58_7 C59_7 1_555 1_555
Ag9_8 N17_8 1_555 1_555
Ag11_8 N19_8 1_555 1_555
N17_8 N19_8 1_555 1_555
N19_8 C44_8 1_555 1_555
C41_8 H49_8 1_555 1_555
H50_8 C41_8 1_555 1_555
H51_8 C41_8 1_555 1_555
C42_8 N17_8 1_555 1_555
C43_8 C42_8 1_555 1_555
C44_8 C43_8 1_555 1_555
C45_8 C44_8 1_555 1_555
H52_8 C45_8 1_555 1_555
H53_8 C45_8 1_555 1_555
H54_8 C45_8 1_555 1_555
C47_8 N21_8 1_555 1_555
C48_8 C43_8 1_555 1_555
C49_8 N23_4 1_555 1_555
C50_8 C49_8 1_555 1_555
H58_8 C50_8 1_555 1_555
H59_8 C50_8 1_555 1_555
H60_8 C50_8 1_555 1_555
C41_8 C42_8 1_555 1_555
N21_8 N23_4 1_555 1_555
C47_8 C48_8 1_555 1_555
C48_8 C49_8 1_555 1_555
C11_8 H13_8 1_555 1_555
H14_8 C11_8 1_555 1_555
H15_8 C11_8 1_555 1_555
C12_8 N18_4 1_555 1_555
C13_8 C12_8 1_555 1_555
C14_8 N20_4 1_555 1_555
C15_8 C14_8 1_555 1_555
H16_8 C15_8 1_555 1_555
H17_8 C15_8 1_555 1_555
H18_8 C15_8 1_555 1_555
N7_8 N8_8 1_555 1_555
N8_8 C19_8 1_555 1_555
C16_7 H19_7 1_555 1_555
H20_8 C16_7 1_555 1_555
H21_7 C16_7 1_555 1_555
C17_8 N7_8 1_555 1_555
C18_8 C13_8 1_555 1_555
C19_8 C18_8 1_555 1_555
C20_8 C19_8 1_555 1_555
H22_8 C20_8 1_555 1_555
H23_8 C20_8 1_555 1_555
H24_8 C20_8 1_555 1_555
Ag14_7 N7_8 1_555 1_555
Ag16_8 N8_8 1_555 1_555
N28_8 Ag16_8 1_555 1_555
C11_8 C12_8 1_555 1_555
C13_8 C14_8 1_555 1_555
C16_7 C17_8 1_555 1_555
C17_8 C18_8 1_555 1_555
C16_8 H19_8 1_555 1_555
H21_8 C16_8 1_555 1_555
Ag4_5 N9_5 1_555 1_555
Ag14_8 N10_7 1_555 1_555
N9_5 N10_7 1_555 1_555
N10_7 C24_7 1_555 1_555
C21_7 H25_7 1_555 1_555
H26_7 C21_7 1_555 1_555
H27_7 C21_7 1_555 1_555
C22_7 N9_5 1_555 1_555
C23_7 C22_7 1_555 1_555
C24_7 C23_7 1_555 1_555
C25_7 C24_7 1_555 1_555
H28_7 C25_7 1_555 1_555
H29_7 C25_7 1_555 1_555
H30_7 C25_7 1_555 1_555
Ag12_4 N24_4 1_555 1_555
Ag13_6 N25_6 1_555 1_555
Ag14_7 N26_7 1_555 1_555
N24_4 N26_7 1_555 1_555
N26_7 C54_7 1_555 1_555
C51_7 H61_7 1_555 1_555
H62_7 C51_7 1_555 1_555
H63_7 C51_7 1_555 1_555
C52_7 N24_4 1_555 1_555
C53_7 C23_7 1_555 1_555
C54_7 C53_7 1_555 1_555
C55_7 C54_7 1_555 1_555
H64_7 C55_7 1_555 1_555
H65_7 C55_7 1_555 1_555
H66_7 C55_7 1_555 1_555
C21_7 C22_7 1_555 1_555
C51_7 C52_7 1_555 1_555
C52_7 C53_7 1_555 1_555
Ag1_8 N1_8 1_555 1_555
Ag9_7 N4_8 1_555 1_555
Ag11_7 N2_8 1_555 1_555
Ag4_6 N9_6 1_555 1_555
N1_8 N2_8 1_555 1_555
N2_8 C4_8 1_555 1_555
N3_8 Ag1_8 1_555 1_555
N4_8 N3_8 1_555 1_555
C1_8 H1_8 1_555 1_555
H2_8 C1_8 1_555 1_555
H3_8 C1_8 1_555 1_555
C2_8 N1_8 1_555 1_555
C3_8 C2_8 1_555 1_555
C4_8 C3_8 1_555 1_555
C5_8 C4_8 1_555 1_555
H4_8 C5_8 1_555 1_555
H5_8 C5_8 1_555 1_555
H6_8 C5_8 1_555 1_555
C6_8 H7_8 1_555 1_555
H8_8 C6_8 1_555 1_555
H9_8 C6_8 1_555 1_555
C7_8 N3_8 1_555 1_555
C8_8 C7_8 1_555 1_555
C9_8 N4_8 1_555 1_555
C10_8 C9_8 1_555 1_555
H10_8 C10_8 1_555 1_555
H11_8 C10_8 1_555 1_555
H12_8 C10_8 1_555 1_555
N28_7 N12_8 1_555 1_555
N12_8 Ag4_6 1_555 1_555
C26_8 H31_8 1_555 1_555
H32_8 C26_8 1_555 1_555
H33_8 C26_8 1_555 1_555
C27_8 N28_7 1_555 1_555
C28_8 C8_8 1_555 1_555
C29_8 N12_8 1_555 1_555
C30_8 C29_8 1_555 1_555
H34_8 C30_8 1_555 1_555
H35_8 C30_8 1_555 1_555
H36_8 C30_8 1_555 1_555
Ag7_8 N13_8 1_555 1_555
Ag9_8 N16_8 1_555 1_555
Ag11_8 N14_8 1_555 1_555
N13_8 N14_8 1_555 1_555
N14_8 C34_8 1_555 1_555
N15_8 Ag7_8 1_555 1_555
N16_8 N15_8 1_555 1_555
C31_8 H37_8 1_555 1_555
H38_8 C31_8 1_555 1_555
H39_8 C31_8 1_555 1_555
C32_8 N13_8 1_555 1_555
C33_8 C3_8 1_555 1_555
C34_8 C33_8 1_555 1_555
C35_8 C34_8 1_555 1_555
H40_8 C35_8 1_555 1_555
H41_8 C35_8 1_555 1_555
H42_8 C35_8 1_555 1_555
C36_8 H43_8 1_555 1_555
H44_8 C36_8 1_555 1_555
H45_8 C36_8 1_555 1_555
C37_8 N15_8 1_555 1_555
C38_8 C37_8 1_555 1_555
C39_8 N16_8 1_555 1_555
C40_8 C39_8 1_555 1_555
H46_8 C40_8 1_555 1_555
H47_8 C40_8 1_555 1_555
H48_8 C40_8 1_555 1_555
C51_8 H61_8 1_555 1_555
H62_8 C51_8 1_555 1_555
N29_8 Ag12_4 1_555 1_555
C56_8 H67_8 1_555 1_555
H68_8 C56_8 1_555 1_555
H69_8 C56_8 1_555 1_555
C57_8 N28_8 1_555 1_555
C58_8 C38_8 1_555 1_555
C59_8 N29_8 1_555 1_555
C60_8 C59_8 1_555 1_555
H70_8 C60_8 1_555 1_555
H71_8 C60_8 1_555 1_555
H72_8 C60_8 1_555 1_555
C1_8 C2_8 1_555 1_555
C6_8 C7_8 1_555 1_555
C8_8 C9_8 1_555 1_555
C26_8 C27_8 1_555 1_555
C27_8 C28_8 1_555 1_555
C28_8 C29_8 1_555 1_555
C31_8 C32_8 1_555 1_555
C32_8 C33_8 1_555 1_555
C36_8 C37_8 1_555 1_555
C38_8 C39_8 1_555 1_555
C51_8 C52_8 1_555 1_555
N28_8 N29_8 1_555 1_555
C56_8 C57_8 1_555 1_555
C57_8 C58_8 1_555 1_555
C58_8 C59_8 1_555 1_555
Ag14_6 N10_8 1_555 1_555
N10_8 C24_8 1_555 1_555
C25_8 C24_8 1_555 1_555
H28_8 C25_8 1_555 1_555
H29_8 C25_8 1_555 1_555
H30_8 C25_8 1_555 1_555
C21_8 H25_8 1_555 1_555
H26_8 C21_8 1_555 1_555
C21_8 C22_8 1_555 1_555
Ag15_4 N26_8 1_555 1_555
N26_8 C54_8 1_555 1_555
C55_8 C54_8 1_555 1_555
H64_8 C55_8 1_555 1_555
H65_8 C55_8 1_555 1_555
H66_8 C55_8 1_555 1_555
C46_8 H55_8 1_555 1_555
H57_8 C46_8 1_555 1_555
N33 C70 1_555 1_555
C70 C69 1_555 1_555
C71 C70 1_555 1_555
H82 C71 1_555 1_555
H83 C71 1_555 1_555
H84 C71 1_555 1_555
Ag28 N33 1_555 1_555
Ag29 N45 1_555 1_555
N45 N33 1_555 1_555
N50 Ag29 1_555 1_555
C99 C69 1_555 1_555
C100 C99 1_555 1_555
H118 C100 1_555 1_555
H119 C100 1_555 1_555
H120 C100 1_555 1_555
N45 C99 1_555 1_555
N50_2 Ag28 1_555 1_555
Ag18 N30 1_555 1_555
Ag19 N31 1_555 1_555
Ag22 N36 1_555 1_555
Ag23 N38 1_555 1_555
Ag24 N37 1_555 1_555
N30 N31 1_555 1_555
N31 C64 1_555 1_555
N32 Ag19 1_555 1_555
N34 N50 1_555 1_555
N50 C75 1_555 1_555
C61 H73 1_555 1_555
H74 C61 1_555 1_555
H75 C61 1_555 1_555
C62 N30 1_555 1_555
C63 C62 1_555 1_555
C64 C63 1_555 1_555
C65 C64 1_555 1_555
H76 C65 1_555 1_555
H77 C65 1_555 1_555
H78 C65 1_555 1_555
C66 H79 1_555 1_555
H81 C66 1_555 1_555
C67 N32 1_555 1_555
C68 C67 1_555 1_555
C72 H85 1_555 1_555
H86 C72 1_555 1_555
H87 C72 1_555 1_555
C73 N34 1_555 1_555
C74 C73 1_555 1_555
C75 C74 1_555 1_555
C76 C75 1_555 1_555
H88 C76 1_555 1_555
H89 C76 1_555 1_555
H90 C76 1_555 1_555
N36 N37 1_555 1_555
N37 C80 1_555 1_555
C77 H91 1_555 1_555
H92 C77 1_555 1_555
H93 C77 1_555 1_555
C78 N36 1_555 1_555
C79 C74 1_555 1_555
C80 C79 1_555 1_555
C81 C80 1_555 1_555
H94 C81 1_555 1_555
H95 C81 1_555 1_555
H96 C81 1_555 1_555
N38 N39 1_555 1_555
N39 Ag24 1_555 1_555
C82 H97 1_555 1_555
H98 C82 1_555 1_555
H99 C82 1_555 1_555
C83 N38 1_555 1_555
C84 C63 1_555 1_555
C85 N39 1_555 1_555
C86 C85 1_555 1_555
H100 C86 1_555 1_555
H101 C86 1_555 1_555
H102 C86 1_555 1_555
N40 Ag22 1_555 1_555
N41 Ag23 1_555 1_555
C87 H103 1_555 1_555
H104 C87 1_555 1_555
H105 C87 1_555 1_555
C88 N40 1_555 1_555
C89 C88 1_555 1_555
C90 N41 1_555 1_555
C91 C90 1_555 1_555
H106 C91 1_555 1_555
H108 C91 1_555 1_555
Ag25 N43 1_555 1_555
Ag26 N34 1_555 1_555
Ag32 N53 1_555 1_555
N42 Ag18 1_555 1_555
N43 N42 1_555 1_555
N44 N32 1_555 1_555
C92 H109 1_555 1_555
H110 C92 1_555 1_555
H111 C92 1_555 1_555
C93 N42 1_555 1_555
C94 C93 1_555 1_555
C95 N43 1_555 1_555
C96 C95 1_555 1_555
H112 C96 1_555 1_555
H113 C96 1_555 1_555
H114 C96 1_555 1_555
C97 H115 1_555 1_555
H117 C97 1_555 1_555
C98 C68 1_555 1_555
N53 N54 1_555 1_555
C111 H133 1_555 1_555
H134 C111 1_555 1_555
H135 C111 1_555 1_555
C112 N53 1_555 1_555
C113 C94 1_555 1_555
C114 N54 1_555 1_555
C115 C114 1_555 1_555
H136 C115 1_555 1_555
H137 C115 1_555 1_555
H138 C115 1_555 1_555
N58 Ag32 1_555 1_555
C61 C62 1_555 1_555
C66 C67 1_555 1_555
C72 C73 1_555 1_555
C77 C78 1_555 1_555
C78 C79 1_555 1_555
C82 C83 1_555 1_555
C83 C84 1_555 1_555
C84 C85 1_555 1_555
N40 N41 1_555 1_555
C87 C88 1_555 1_555
C89 C90 1_555 1_555
Ag25 N44 1_555 1_555
N44 C98 1_555 1_555
C92 C93 1_555 1_555
C94 C95 1_555 1_555
C97 C98 1_555 1_555
C111 C112 1_555 1_555
C112 C113 1_555 1_555
C113 C114 1_555 1_555
Ag26 N47 1_555 1_555
Ag30 N51 1_555 1_555
Ag34 N52 1_555 1_555
N47 N50_2 1_555 1_555
C101 H121 1_555 1_555
H122 C101 1_555 1_555
H123 C101 1_555 1_555
C102 N47 1_555 1_555
C103 C102 1_555 1_555
C104 N50_2 1_555 1_555
C105 C104 1_555 1_555
H124 C105 1_555 1_555
H125 C105 1_555 1_555
H126 C105 1_555 1_555
N51 N52 1_555 1_555
N52 C109 1_555 1_555
C106 H127 1_555 1_555
H128 C106 1_555 1_555
H129 C106 1_555 1_555
C107 N51 1_555 1_555
C108 C103 1_555 1_555
C109 C108 1_555 1_555
C110 C109 1_555 1_555
H130 C110 1_555 1_555
H131 C110 1_555 1_555
H132 C110 1_555 1_555
N56 Ag30 1_555 1_555
C101 C102 1_555 1_555
C103 C104 1_555 1_555
C106 C107 1_555 1_555
C107 C108 1_555 1_555
C90_2 N58 1_555 1_555
C91_2 C90_2 1_555 1_555
H106_2 C91_2 1_555 1_555
H108_2 C91_2 1_555 1_555
C89_2 C90_2 1_555 1_555
C87_2 H103_2 1_555 1_555
H104_2 C87_2 1_555 1_555
H105_2 C87_2 1_555 1_555
C88_2 N56 1_555 1_555
C87_2 C88_2 1_555 1_555
Ag20 N47_2 1_555 1_555
Ag21 N46 1_555 1_555
Ag30_2 N51_2 1_555 1_555
Ag34_2 N52_2 1_555 1_555
N47_2 N49 1_555 1_555
N48 Ag20 1_555 1_555
N49 Ag21 1_555 1_555
C101_2 H121_2 1_555 1_555
H122_2 C101_2 1_555 1_555
H123_2 C101_2 1_555 1_555
C102_2 N47_2 1_555 1_555
C103_2 C102_2 1_555 1_555
C104_2 N49 1_555 1_555
C105_2 C104_2 1_555 1_555
H124_2 C105_2 1_555 1_555
H125_2 C105_2 1_555 1_555
H126_2 C105_2 1_555 1_555
N51_2 N52_2 1_555 1_555
N52_2 C109_2 1_555 1_555
C106_2 H127_2 1_555 1_555
H128_2 C106_2 1_555 1_555
H129_2 C106_2 1_555 1_555
C107_2 N51_2 1_555 1_555
C108_2 C103_2 1_555 1_555
C109_2 C108_2 1_555 1_555
C110_2 C109_2 1_555 1_555
H130_2 C110_2 1_555 1_555
H131_2 C110_2 1_555 1_555
H132_2 C110_2 1_555 1_555
N56_2 Ag30_2 1_555 1_555
C101_2 C102_2 1_555 1_555
C103_2 C104_2 1_555 1_555
C106_2 C107_2 1_555 1_555
C107_2 C108_2 1_555 1_555
Ag18_2 N30_2 1_555 1_555
Ag19_2 N31_2 1_555 1_555
Ag22_2 N36_2 1_555 1_555
Ag23_2 N38_2 1_555 1_555
Ag24_2 N37_2 1_555 1_555
N30_2 N31_2 1_555 1_555
N31_2 C64_2 1_555 1_555
N32_2 Ag19_2 1_555 1_555
N48 N35 1_555 1_555
N35 C75_2 1_555 1_555
C61_2 H73_2 1_555 1_555
H74_2 C61_2 1_555 1_555
H75_2 C61_2 1_555 1_555
C62_2 N30_2 1_555 1_555
C63_2 C62_2 1_555 1_555
C64_2 C63_2 1_555 1_555
C65_2 C64_2 1_555 1_555
H76_2 C65_2 1_555 1_555
H77_2 C65_2 1_555 1_555
H78_2 C65_2 1_555 1_555
C66_2 H79_2 1_555 1_555
H81_2 C66_2 1_555 1_555
C67_2 N32_2 1_555 1_555
C68_2 C67_2 1_555 1_555
C72_2 H85_2 1_555 1_555
H86_2 C72_2 1_555 1_555
H87_2 C72_2 1_555 1_555
C73_2 N48 1_555 1_555
C74_2 C73_2 1_555 1_555
C75_2 C74_2 1_555 1_555
C76_2 C75_2 1_555 1_555
H88_2 C76_2 1_555 1_555
H89_2 C76_2 1_555 1_555
H90_2 C76_2 1_555 1_555
N36_2 N37_2 1_555 1_555
N37_2 C80_2 1_555 1_555
C77_2 H91_2 1_555 1_555
H92_2 C77_2 1_555 1_555
H93_2 C77_2 1_555 1_555
C78_2 N36_2 1_555 1_555
C79_2 C74_2 1_555 1_555
C80_2 C79_2 1_555 1_555
C81_2 C80_2 1_555 1_555
H94_2 C81_2 1_555 1_555
H95_2 C81_2 1_555 1_555
H96_2 C81_2 1_555 1_555
N38_2 N39_2 1_555 1_555
N39_2 Ag24_2 1_555 1_555
C82_2 H97_2 1_555 1_555
H98_2 C82_2 1_555 1_555
H99_2 C82_2 1_555 1_555
C83_2 N38_2 1_555 1_555
C84_2 C63_2 1_555 1_555
C85_2 N39_2 1_555 1_555
C86_2 C85_2 1_555 1_555
H100_2 C86_2 1_555 1_555
H101_2 C86_2 1_555 1_555
H102_2 C86_2 1_555 1_555
N40_2 Ag22_2 1_555 1_555
N41_2 Ag23_2 1_555 1_555
C87_3 H103_3 1_555 1_555
H104_3 C87_3 1_555 1_555
H105_3 C87_3 1_555 1_555
C88_3 N40_2 1_555 1_555
C89_3 C88_3 1_555 1_555
C90_3 N41_2 1_555 1_555
C91_3 C90_3 1_555 1_555
H106_3 C91_3 1_555 1_555
H108_3 C91_3 1_555 1_555
Ag25_2 N43_2 1_555 1_555
Ag27 N35 1_555 1_555
Ag32_2 N53_2 1_555 1_555
N42_2 Ag18_2 1_555 1_555
N43_2 N42_2 1_555 1_555
N44_2 N32_2 1_555 1_555
C92_2 H109_2 1_555 1_555
H110_2 C92_2 1_555 1_555
H111_2 C92_2 1_555 1_555
C93_2 N42_2 1_555 1_555
C94_2 C93_2 1_555 1_555
C95_2 N43_2 1_555 1_555
C96_2 C95_2 1_555 1_555
H112_2 C96_2 1_555 1_555
H113_2 C96_2 1_555 1_555
H114_2 C96_2 1_555 1_555
C97_2 H115_2 1_555 1_555
H117_2 C97_2 1_555 1_555
C98_2 C68_2 1_555 1_555
N53_2 N54_2 1_555 1_555
C111_2 H133_2 1_555 1_555
H134_2 C111_2 1_555 1_555
H135_2 C111_2 1_555 1_555
C112_2 N53_2 1_555 1_555
C113_2 C94_2 1_555 1_555
C114_2 N54_2 1_555 1_555
C115_2 C114_2 1_555 1_555
H136_2 C115_2 1_555 1_555
H137_2 C115_2 1_555 1_555
H138_2 C115_2 1_555 1_555
N58_2 Ag32_2 1_555 1_555
C61_2 C62_2 1_555 1_555
C66_2 C67_2 1_555 1_555
C72_2 C73_2 1_555 1_555
C77_2 C78_2 1_555 1_555
C78_2 C79_2 1_555 1_555
C82_2 C83_2 1_555 1_555
C83_2 C84_2 1_555 1_555
C84_2 C85_2 1_555 1_555
N40_2 N41_2 1_555 1_555
C87_3 C88_3 1_555 1_555
C89_3 C90_3 1_555 1_555
Ag25_2 N44_2 1_555 1_555
N44_2 C98_2 1_555 1_555
C92_2 C93_2 1_555 1_555
C94_2 C95_2 1_555 1_555
C97_2 C98_2 1_555 1_555
C111_2 C112_2 1_555 1_555
C112_2 C113_2 1_555 1_555
C113_2 C114_2 1_555 1_555
C87_4 H103_4 1_555 1_555
H104_4 C87_4 1_555 1_555
H105_4 C87_4 1_555 1_555
C88_4 N56_2 1_555 1_555
C87_4 C88_4 1_555 1_555
Ag27 N46_2 1_555 1_555
C90_4 N58_2 1_555 1_555
C91_4 C90_4 1_555 1_555
H106_4 C91_4 1_555 1_555
H108_4 C91_4 1_555 1_555
C89_4 C90_4 1_555 1_555
N46 C70_2 1_555 1_555
C70_2 C69_2 1_555 1_555
C71_2 C70_2 1_555 1_555
H82_2 C71_2 1_555 1_555
H83_2 C71_2 1_555 1_555
H84_2 C71_2 1_555 1_555
N46_2 N46 1_555 1_555
C99_2 C69_2 1_555 1_555
C100_2 C99_2 1_555 1_555
H118_2 C100_2 1_555 1_555
H119_2 C100_2 1_555 1_555
H120_2 C100_2 1_555 1_555
N46_2 C99_2 1_555 1_555
Ag31 N55 1_555 1_555
Ag33 N57 1_555 1_555
N55 N57 1_555 1_555
N57 C119 1_555 1_555
C116 H139 1_555 1_555
H140 C116 1_555 1_555
H141 C116 1_555 1_555
C117 N55 1_555 1_555
C119 C118 1_555 1_555
C120 C119 1_555 1_555
H142 C120 1_555 1_555
H144 C120 1_555 1_555
C116 C117 1_555 1_555
C117 C118 1_555 1_555
Ag31_2 N55_2 1_555 1_555
C116_2 H139_2 1_555 1_555
H140_2 C116_2 1_555 1_555
H141_2 C116_2 1_555 1_555
C117_2 N55_2 1_555 1_555
C116_2 C117_2 1_555 1_555
Ag33_2 N57_2 1_555 1_555
N57_2 C119_2 1_555 1_555
C119_2 C118_2 1_555 1_555
C120_2 C119_2 1_555 1_555
H142_2 C120_2 1_555 1_555
H144_2 C120_2 1_555 1_555
Ag20_2 N47_3 1_555 1_555
Ag21_2 N46_3 1_555 1_555
Ag31_2 N51_3 1_555 1_555
Ag34_3 N52_3 1_555 1_555
N47_3 N49_2 1_555 1_555
N48_2 Ag20_2 1_555 1_555
N49_2 Ag21_2 1_555 1_555
C101_3 H121_3 1_555 1_555
H122_3 C101_3 1_555 1_555
H123_3 C101_3 1_555 1_555
C102_3 N47_3 1_555 1_555
C103_3 C102_3 1_555 1_555
C104_3 N49_2 1_555 1_555
C105_3 C104_3 1_555 1_555
H124_3 C105_3 1_555 1_555
H125_3 C105_3 1_555 1_555
H126_3 C105_3 1_555 1_555
N51_3 N52_3 1_555 1_555
N52_3 C109_3 1_555 1_555
C106_3 H127_3 1_555 1_555
H128_3 C106_3 1_555 1_555
H129_3 C106_3 1_555 1_555
C107_3 N51_3 1_555 1_555
C108_3 C103_3 1_555 1_555
C109_3 C108_3 1_555 1_555
C110_3 C109_3 1_555 1_555
H130_3 C110_3 1_555 1_555
H131_3 C110_3 1_555 1_555
H132_3 C110_3 1_555 1_555
C101_3 C102_3 1_555 1_555
C103_3 C104_3 1_555 1_555
C106_3 C107_3 1_555 1_555
C107_3 C108_3 1_555 1_555
Ag18_3 N30_3 1_555 1_555
Ag19_3 N31_3 1_555 1_555
Ag31 N36_3 1_555 1_555
Ag33 N38_3 1_555 1_555
Ag24_3 N37_3 1_555 1_555
N30_3 N31_3 1_555 1_555
N31_3 C64_3 1_555 1_555
N32_3 Ag19_3 1_555 1_555
N33_2 C70_3 1_555 1_555
N48_2 N35_2 1_555 1_555
N35_2 C75_3 1_555 1_555
C61_3 H73_3 1_555 1_555
H74_3 C61_3 1_555 1_555
H75_3 C61_3 1_555 1_555
C62_3 N30_3 1_555 1_555
C63_3 C62_3 1_555 1_555
C64_3 C63_3 1_555 1_555
C65_3 C64_3 1_555 1_555
H76_3 C65_3 1_555 1_555
H77_3 C65_3 1_555 1_555
H78_3 C65_3 1_555 1_555
C66_3 H79_3 1_555 1_555
H80_3 C66_3 1_555 1_555
H81_3 C66_3 1_555 1_555
C67_3 N32_3 1_555 1_555
C68_3 C67_3 1_555 1_555
C69_3 C68_3 1_555 1_555
C70_3 C69_3 1_555 1_555
C71_3 C70_3 1_555 1_555
H82_3 C71_3 1_555 1_555
H83_3 C71_3 1_555 1_555
H84_3 C71_3 1_555 1_555
C72_3 H85_3 1_555 1_555
H86_3 C72_3 1_555 1_555
H87_3 C72_3 1_555 1_555
C73_3 N48_2 1_555 1_555
C74_3 C73_3 1_555 1_555
C75_3 C74_3 1_555 1_555
C76_3 C75_3 1_555 1_555
H88_3 C76_3 1_555 1_555
H89_3 C76_3 1_555 1_555
H90_3 C76_3 1_555 1_555
N36_3 N37_3 1_555 1_555
N37_3 C80_3 1_555 1_555
C77_3 H91_3 1_555 1_555
H92_3 C77_3 1_555 1_555
H93_3 C77_3 1_555 1_555
C78_3 N36_3 1_555 1_555
C79_3 C74_3 1_555 1_555
C80_3 C79_3 1_555 1_555
C81_3 C80_3 1_555 1_555
H94_3 C81_3 1_555 1_555
H95_3 C81_3 1_555 1_555
H96_3 C81_3 1_555 1_555
N38_3 N39_3 1_555 1_555
N39_3 Ag24_3 1_555 1_555
C82_3 H97_3 1_555 1_555
H98_3 C82_3 1_555 1_555
H99_3 C82_3 1_555 1_555
C83_3 N38_3 1_555 1_555
C84_3 C63_3 1_555 1_555
C85_3 N39_3 1_555 1_555
C86_3 C85_3 1_555 1_555
H100_3 C86_3 1_555 1_555
H101_3 C86_3 1_555 1_555
H102_3 C86_3 1_555 1_555
Ag25_3 N43_3 1_555 1_555
Ag27_2 N35_2 1_555 1_555
Ag28_2 N33_2 1_555 1_555
Ag29_2 N45_2 1_555 1_555
Ag33_2 N53_3 1_555 1_555
N42_3 Ag18_3 1_555 1_555
N43_3 N42_3 1_555 1_555
N44_3 N32_3 1_555 1_555
N45_2 N33_2 1_555 1_555
N50_3 Ag29_2 1_555 1_555
C92_3 H109_3 1_555 1_555
H110_3 C92_3 1_555 1_555
H111_3 C92_3 1_555 1_555
C93_3 N42_3 1_555 1_555
C94_3 C93_3 1_555 1_555
C95_3 N43_3 1_555 1_555
C96_3 C95_3 1_555 1_555
H112_3 C96_3 1_555 1_555
H113_3 C96_3 1_555 1_555
H114_3 C96_3 1_555 1_555
C97_3 H115_3 1_555 1_555
H116_3 C97_3 1_555 1_555
H117_3 C97_3 1_555 1_555
C98_3 C68_3 1_555 1_555
C99_3 C69_3 1_555 1_555
C100_3 C99_3 1_555 1_555
H118_3 C100_3 1_555 1_555
H119_3 C100_3 1_555 1_555
H120_3 C100_3 1_555 1_555
N53_3 N54_3 1_555 1_555
C111_3 H133_3 1_555 1_555
H134_3 C111_3 1_555 1_555
H135_3 C111_3 1_555 1_555
C112_3 N53_3 1_555 1_555
C113_3 C94_3 1_555 1_555
C114_3 N54_3 1_555 1_555
C115_3 C114_3 1_555 1_555
H136_3 C115_3 1_555 1_555
H137_3 C115_3 1_555 1_555
H138_3 C115_3 1_555 1_555
C61_3 C62_3 1_555 1_555
C66_3 C67_3 1_555 1_555
C72_3 C73_3 1_555 1_555
C77_3 C78_3 1_555 1_555
C78_3 C79_3 1_555 1_555
C82_3 C83_3 1_555 1_555
C83_3 C84_3 1_555 1_555
C84_3 C85_3 1_555 1_555
Ag25_3 N44_3 1_555 1_555
N44_3 C98_3 1_555 1_555
N45_2 C99_3 1_555 1_555
C92_3 C93_3 1_555 1_555
C94_3 C95_3 1_555 1_555
C97_3 C98_3 1_555 1_555
C111_3 C112_3 1_555 1_555
C112_3 C113_3 1_555 1_555
C113_3 C114_3 1_555 1_555
Ag27_2 N46_4 1_555 1_555
N50_4 Ag28_2 1_555 1_555
Ag31_3 N55_3 1_555 1_555
Ag33_3 N57_3 1_555 1_555
N55_3 N57_3 1_555 1_555
N57_3 C119_3 1_555 1_555
C116_3 H139_3 1_555 1_555
H140_3 C116_3 1_555 1_555
H141_3 C116_3 1_555 1_555
C117_3 N55_3 1_555 1_555
C119_3 C118_3 1_555 1_555
C120_3 C119_3 1_555 1_555
H142_3 C120_3 1_555 1_555
H144_3 C120_3 1_555 1_555
C116_3 C117_3 1_555 1_555
C117_3 C118_3 1_555 1_555
Ag33_4 N57_4 1_555 1_555
N57_4 C119_4 1_555 1_555
C119_4 C118_4 1_555 1_555
C120_4 C119_4 1_555 1_555
H142_4 C120_4 1_555 1_555
H144_4 C120_4 1_555 1_555
Ag31_4 N55_4 1_555 1_555
C116_4 H139_4 1_555 1_555
H140_4 C116_4 1_555 1_555
H141_4 C116_4 1_555 1_555
C117_4 N55_4 1_555 1_555
C116_4 C117_4 1_555 1_555
Ag18_4 N30_4 1_555 1_555
Ag19_4 N31_4 1_555 1_555
Ag31_3 N36_4 1_555 1_555
Ag33_3 N38_4 1_555 1_555
Ag24_4 N37_4 1_555 1_555
N30_4 N31_4 1_555 1_555
N31_4 C64_4 1_555 1_555
N32_4 Ag19_4 1_555 1_555
N46_3 C70_4 1_555 1_555
N34_2 N50_3 1_555 1_555
N50_3 C75_4 1_555 1_555
C61_4 H73_4 1_555 1_555
H74_4 C61_4 1_555 1_555
H75_4 C61_4 1_555 1_555
C62_4 N30_4 1_555 1_555
C63_4 C62_4 1_555 1_555
C64_4 C63_4 1_555 1_555
C65_4 C64_4 1_555 1_555
H76_4 C65_4 1_555 1_555
H77_4 C65_4 1_555 1_555
H78_4 C65_4 1_555 1_555
C66_4 H79_4 1_555 1_555
H80_4 C66_4 1_555 1_555
H81_4 C66_4 1_555 1_555
C67_4 N32_4 1_555 1_555
C68_4 C67_4 1_555 1_555
C69_4 C68_4 1_555 1_555
C70_4 C69_4 1_555 1_555
C71_4 C70_4 1_555 1_555
H82_4 C71_4 1_555 1_555
H83_4 C71_4 1_555 1_555
H84_4 C71_4 1_555 1_555
C72_4 H85_4 1_555 1_555
H86_4 C72_4 1_555 1_555
H87_4 C72_4 1_555 1_555
C73_4 N34_2 1_555 1_555
C74_4 C73_4 1_555 1_555
C75_4 C74_4 1_555 1_555
C76_4 C75_4 1_555 1_555
H88_4 C76_4 1_555 1_555
H89_4 C76_4 1_555 1_555
H90_4 C76_4 1_555 1_555
N36_4 N37_4 1_555 1_555
N37_4 C80_4 1_555 1_555
C77_4 H91_4 1_555 1_555
H92_4 C77_4 1_555 1_555
H93_4 C77_4 1_555 1_555
C78_4 N36_4 1_555 1_555
C79_4 C74_4 1_555 1_555
C80_4 C79_4 1_555 1_555
C81_4 C80_4 1_555 1_555
H94_4 C81_4 1_555 1_555
H95_4 C81_4 1_555 1_555
H96_4 C81_4 1_555 1_555
N38_4 N39_4 1_555 1_555
N39_4 Ag24_4 1_555 1_555
C82_4 H97_4 1_555 1_555
H98_4 C82_4 1_555 1_555
H99_4 C82_4 1_555 1_555
C83_4 N38_4 1_555 1_555
C84_4 C63_4 1_555 1_555
C85_4 N39_4 1_555 1_555
C86_4 C85_4 1_555 1_555
H100_4 C86_4 1_555 1_555
H101_4 C86_4 1_555 1_555
H102_4 C86_4 1_555 1_555
Ag25_4 N43_4 1_555 1_555
Ag26_2 N34_2 1_555 1_555
Ag33_4 N53_4 1_555 1_555
N42_4 Ag18_4 1_555 1_555
N43_4 N42_4 1_555 1_555
N44_4 N32_4 1_555 1_555
N46_4 N46_3 1_555 1_555
C92_4 H109_4 1_555 1_555
H110_4 C92_4 1_555 1_555
H111_4 C92_4 1_555 1_555
C93_4 N42_4 1_555 1_555
C94_4 C93_4 1_555 1_555
C95_4 N43_4 1_555 1_555
C96_4 C95_4 1_555 1_555
H112_4 C96_4 1_555 1_555
H113_4 C96_4 1_555 1_555
H114_4 C96_4 1_555 1_555
C97_4 H115_4 1_555 1_555
H116_4 C97_4 1_555 1_555
H117_4 C97_4 1_555 1_555
C98_4 C68_4 1_555 1_555
C99_4 C69_4 1_555 1_555
C100_4 C99_4 1_555 1_555
H118_4 C100_4 1_555 1_555
H119_4 C100_4 1_555 1_555
H120_4 C100_4 1_555 1_555
N53_4 N54_4 1_555 1_555
C111_4 H133_4 1_555 1_555
H134_4 C111_4 1_555 1_555
H135_4 C111_4 1_555 1_555
C112_4 N53_4 1_555 1_555
C113_4 C94_4 1_555 1_555
C114_4 N54_4 1_555 1_555
C115_4 C114_4 1_555 1_555
H136_4 C115_4 1_555 1_555
H137_4 C115_4 1_555 1_555
H138_4 C115_4 1_555 1_555
C61_4 C62_4 1_555 1_555
C66_4 C67_4 1_555 1_555
C72_4 C73_4 1_555 1_555
C77_4 C78_4 1_555 1_555
C78_4 C79_4 1_555 1_555
C82_4 C83_4 1_555 1_555
C83_4 C84_4 1_555 1_555
C84_4 C85_4 1_555 1_555
Ag25_4 N44_4 1_555 1_555
N44_4 C98_4 1_555 1_555
N46_4 C99_4 1_555 1_555
C92_4 C93_4 1_555 1_555
C94_4 C95_4 1_555 1_555
C97_4 C98_4 1_555 1_555
C111_4 C112_4 1_555 1_555
C112_4 C113_4 1_555 1_555
C113_4 C114_4 1_555 1_555
Ag26_2 N47_4 1_555 1_555
Ag31_4 N51_4 1_555 1_555
Ag34_4 N52_4 1_555 1_555
N47_4 N50_4 1_555 1_555
C101_4 H121_4 1_555 1_555
H122_4 C101_4 1_555 1_555
H123_4 C101_4 1_555 1_555
C102_4 N47_4 1_555 1_555
C103_4 C102_4 1_555 1_555
C104_4 N50_4 1_555 1_555
C105_4 C104_4 1_555 1_555
H124_4 C105_4 1_555 1_555
H125_4 C105_4 1_555 1_555
H126_4 C105_4 1_555 1_555
N51_4 N52_4 1_555 1_555
N52_4 C109_4 1_555 1_555
C106_4 H127_4 1_555 1_555
H128_4 C106_4 1_555 1_555
H129_4 C106_4 1_555 1_555
C107_4 N51_4 1_555 1_555
C108_4 C103_4 1_555 1_555
C109_4 C108_4 1_555 1_555
C110_4 C109_4 1_555 1_555
H130_4 C110_4 1_555 1_555
H131_4 C110_4 1_555 1_555
H132_4 C110_4 1_555 1_555
C101_4 C102_4 1_555 1_555
C103_4 C104_4 1_555 1_555
C106_4 C107_4 1_555 1_555
C107_4 C108_4 1_555 1_555
Ag20_3 N47_5 1_555 1_555
Ag21_3 N46_5 1_555 1_555
Ag30_3 N51_5 1_555 1_555
Ag34_5 N52_5 1_555 1_555
N47_5 N49_3 1_555 1_555
N49_3 Ag21_3 1_555 1_555
C101_5 H121_5 1_555 1_555
H122_5 C101_5 1_555 1_555
H123_5 C101_5 1_555 1_555
C102_5 N47_5 1_555 1_555
C103_5 C102_5 1_555 1_555
C104_5 N49_3 1_555 1_555
C105_5 C104_5 1_555 1_555
H124_5 C105_5 1_555 1_555
H125_5 C105_5 1_555 1_555
H126_5 C105_5 1_555 1_555
N51_5 N52_5 1_555 1_555
N52_5 C109_5 1_555 1_555
C106_5 H127_5 1_555 1_555
H128_5 C106_5 1_555 1_555
H129_5 C106_5 1_555 1_555
C107_5 N51_5 1_555 1_555
C108_5 C103_5 1_555 1_555
C109_5 C108_5 1_555 1_555
C110_5 C109_5 1_555 1_555
H130_5 C110_5 1_555 1_555
H131_5 C110_5 1_555 1_555
H132_5 C110_5 1_555 1_555
N56_3 Ag30_3 1_555 1_555
C101_5 C102_5 1_555 1_555
C103_5 C104_5 1_555 1_555
C106_5 C107_5 1_555 1_555
C107_5 C108_5 1_555 1_555
C69_5 C68_5 1_555 1_555
Ag25_5 N43_5 1_555 1_555
Ag29_3 N45_3 1_555 1_555
Ag32_3 N53_5 1_555 1_555
N42_5 Ag18_5 1_555 1_555
N43_5 N42_5 1_555 1_555
N50_5 Ag29_3 1_555 1_555
C92_5 H109_5 1_555 1_555
H110_5 C92_5 1_555 1_555
H111_5 C92_5 1_555 1_555
C93_5 N42_5 1_555 1_555
C94_5 C93_5 1_555 1_555
C95_5 N43_5 1_555 1_555
C96_5 C95_5 1_555 1_555
H112_5 C96_5 1_555 1_555
H113_5 C96_5 1_555 1_555
H114_5 C96_5 1_555 1_555
C97_5 H115_5 1_555 1_555
H116_5 C97_5 1_555 1_555
H117_5 C97_5 1_555 1_555
C98_5 C68_5 1_555 1_555
C99_5 C69_5 1_555 1_555
C100_5 C99_5 1_555 1_555
H118_5 C100_5 1_555 1_555
H119_5 C100_5 1_555 1_555
H120_5 C100_5 1_555 1_555
N53_5 N54_5 1_555 1_555
C111_5 H133_5 1_555 1_555
H134_5 C111_5 1_555 1_555
H135_5 C111_5 1_555 1_555
C112_5 N53_5 1_555 1_555
C113_5 C94_5 1_555 1_555
C114_5 N54_5 1_555 1_555
C115_5 C114_5 1_555 1_555
H136_5 C115_5 1_555 1_555
H137_5 C115_5 1_555 1_555
H138_5 C115_5 1_555 1_555
N58_3 Ag32_3 1_555 1_555
Ag25_5 N44_5 1_555 1_555
N44_5 C98_5 1_555 1_555
N45_3 C99_5 1_555 1_555
C92_5 C93_5 1_555 1_555
C94_5 C95_5 1_555 1_555
C97_5 C98_5 1_555 1_555
C111_5 C112_5 1_555 1_555
C112_5 C113_5 1_555 1_555
C113_5 C114_5 1_555 1_555
Ag20_4 N47_6 1_555 1_555
Ag21_4 N46_6 1_555 1_555
Ag30_4 N51_6 1_555 1_555
Ag34_6 N52_6 1_555 1_555
N47_6 N49_4 1_555 1_555
N49_4 Ag21_4 1_555 1_555
C101_6 H121_6 1_555 1_555
H122_6 C101_6 1_555 1_555
H123_6 C101_6 1_555 1_555
C102_6 N47_6 1_555 1_555
C103_6 C102_6 1_555 1_555
C104_6 N49_4 1_555 1_555
C105_6 C104_6 1_555 1_555
H124_6 C105_6 1_555 1_555
H125_6 C105_6 1_555 1_555
H126_6 C105_6 1_555 1_555
N51_6 N52_6 1_555 1_555
N52_6 C109_6 1_555 1_555
C106_6 H127_6 1_555 1_555
H128_6 C106_6 1_555 1_555
H129_6 C106_6 1_555 1_555
C107_6 N51_6 1_555 1_555
C108_6 C103_6 1_555 1_555
C109_6 C108_6 1_555 1_555
C110_6 C109_6 1_555 1_555
H130_6 C110_6 1_555 1_555
H131_6 C110_6 1_555 1_555
H132_6 C110_6 1_555 1_555
N56_4 Ag30_4 1_555 1_555
C101_6 C102_6 1_555 1_555
C103_6 C104_6 1_555 1_555
C106_6 C107_6 1_555 1_555
C107_6 C108_6 1_555 1_555
Ag25_6 N43_6 1_555 1_555
Ag32_4 N53_6 1_555 1_555
N42_6 Ag18_6 1_555 1_555
N43_6 N42_6 1_555 1_555
C92_6 H109_6 1_555 1_555
H110_6 C92_6 1_555 1_555
H111_6 C92_6 1_555 1_555
C93_6 N42_6 1_555 1_555
C94_6 C93_6 1_555 1_555
C95_6 N43_6 1_555 1_555
C96_6 C95_6 1_555 1_555
H112_6 C96_6 1_555 1_555
H113_6 C96_6 1_555 1_555
H114_6 C96_6 1_555 1_555
C97_6 H115_6 1_555 1_555
H117_6 C97_6 1_555 1_555
C98_6 C68_6 1_555 1_555
N53_6 N54_6 1_555 1_555
C111_6 H133_6 1_555 1_555
H134_6 C111_6 1_555 1_555
H135_6 C111_6 1_555 1_555
C112_6 N53_6 1_555 1_555
C113_6 C94_6 1_555 1_555
C114_6 N54_6 1_555 1_555
C115_6 C114_6 1_555 1_555
H136_6 C115_6 1_555 1_555
H137_6 C115_6 1_555 1_555
H138_6 C115_6 1_555 1_555
N58_4 Ag32_4 1_555 1_555
Ag25_6 N44_6 1_555 1_555
N44_6 C98_6 1_555 1_555
C92_6 C93_6 1_555 1_555
C94_6 C95_6 1_555 1_555
C97_6 C98_6 1_555 1_555
C111_6 C112_6 1_555 1_555
C112_6 C113_6 1_555 1_555
C113_6 C114_6 1_555 1_555
Ag29_4 N45_4 1_555 1_555
N50_6 Ag29_4 1_555 1_555
C99_6 C69_6 1_555 1_555
C100_6 C99_6 1_555 1_555
H118_6 C100_6 1_555 1_555
H119_6 C100_6 1_555 1_555
H120_6 C100_6 1_555 1_555
N45_4 C99_6 1_555 1_555
C87_5 H103_5 1_555 1_555
H104_5 C87_5 1_555 1_555
H105_5 C87_5 1_555 1_555
C88_5 N56_4 1_555 1_555
C116_5 H139_5 1_555 1_555
H140_5 C116_5 1_555 1_555
H141_5 C116_5 1_555 1_555
C117_5 N56_3 1_555 1_555
C87_5 C88_5 1_555 1_555
C116_5 C117_5 1_555 1_555
C90_5 N58_4 1_555 1_555
C91_5 C90_5 1_555 1_555
H106_5 C91_5 1_555 1_555
H107_5 C91_5 1_555 1_555
H108_5 C91_5 1_555 1_555
N58_3 C119_5 1_555 1_555
C118_5 C89_5 1_555 1_555
C119_5 C118_5 1_555 1_555
C120_5 C119_5 1_555 1_555
H142_5 C120_5 1_555 1_555
H143_5 C120_5 1_555 1_555
H144_5 C120_5 1_555 1_555
C89_5 C90_5 1_555 1_555
Ag18_7 N30_5 1_555 1_555
Ag19_5 N31_5 1_555 1_555
Ag22_3 N36_5 1_555 1_555
Ag23_3 N38_5 1_555 1_555
Ag24_5 N37_5 1_555 1_555
N30_5 N31_5 1_555 1_555
N31_5 C64_5 1_555 1_555
N32_5 Ag19_5 1_555 1_555
N46_5 C70_5 1_555 1_555
N34_3 N50_5 1_555 1_555
N50_5 C75_5 1_555 1_555
C61_5 H73_5 1_555 1_555
H74_5 C61_5 1_555 1_555
H75_5 C61_5 1_555 1_555
C62_5 N30_5 1_555 1_555
C63_5 C62_5 1_555 1_555
C64_5 C63_5 1_555 1_555
C65_5 C64_5 1_555 1_555
H76_5 C65_5 1_555 1_555
H77_5 C65_5 1_555 1_555
H78_5 C65_5 1_555 1_555
C66_5 H79_5 1_555 1_555
H80_5 C66_5 1_555 1_555
H81_5 C66_5 1_555 1_555
C67_5 N32_5 1_555 1_555
C68_7 C67_5 1_555 1_555
C69_7 C68_7 1_555 1_555
C70_5 C69_7 1_555 1_555
C71_5 C70_5 1_555 1_555
H82_5 C71_5 1_555 1_555
H83_5 C71_5 1_555 1_555
H84_5 C71_5 1_555 1_555
C72_5 H85_5 1_555 1_555
H86_5 C72_5 1_555 1_555
H87_5 C72_5 1_555 1_555
C73_5 N34_3 1_555 1_555
C74_5 C73_5 1_555 1_555
C75_5 C74_5 1_555 1_555
C76_5 C75_5 1_555 1_555
H88_5 C76_5 1_555 1_555
H89_5 C76_5 1_555 1_555
H90_5 C76_5 1_555 1_555
N36_5 N37_5 1_555 1_555
N37_5 C80_5 1_555 1_555
C77_5 H91_5 1_555 1_555
H92_5 C77_5 1_555 1_555
H93_5 C77_5 1_555 1_555
C78_5 N36_5 1_555 1_555
C79_5 C74_5 1_555 1_555
C80_5 C79_5 1_555 1_555
C81_5 C80_5 1_555 1_555
H94_5 C81_5 1_555 1_555
H95_5 C81_5 1_555 1_555
H96_5 C81_5 1_555 1_555
N38_5 N39_5 1_555 1_555
N39_5 Ag24_5 1_555 1_555
C82_5 H97_5 1_555 1_555
H98_5 C82_5 1_555 1_555
H99_5 C82_5 1_555 1_555
C83_5 N38_5 1_555 1_555
C84_5 C63_5 1_555 1_555
C85_5 N39_5 1_555 1_555
C86_5 C85_5 1_555 1_555
H100_5 C86_5 1_555 1_555
H101_5 C86_5 1_555 1_555
H102_5 C86_5 1_555 1_555
N40_3 Ag22_3 1_555 1_555
N41_3 Ag23_3 1_555 1_555
C87_6 H103_6 1_555 1_555
H104_6 C87_6 1_555 1_555
H105_6 C87_6 1_555 1_555
C88_6 N40_3 1_555 1_555
C89_6 C88_6 1_555 1_555
C90_6 N41_3 1_555 1_555
C91_6 C90_6 1_555 1_555
H106_6 C91_6 1_555 1_555
H107_6 C91_6 1_555 1_555
H108_6 C91_6 1_555 1_555
Ag26_3 N34_3 1_555 1_555
Ag31_5 N55_5 1_555 1_555
Ag33_5 N57_5 1_555 1_555
N55_5 N57_5 1_555 1_555
N57_5 C119_6 1_555 1_555
C116_6 H139_6 1_555 1_555
H140_6 C116_6 1_555 1_555
H141_6 C116_6 1_555 1_555
C117_6 N55_5 1_555 1_555
C118_6 C89_6 1_555 1_555
C119_6 C118_6 1_555 1_555
C120_6 C119_6 1_555 1_555
H142_6 C120_6 1_555 1_555
H143_6 C120_6 1_555 1_555
H144_6 C120_6 1_555 1_555
C61_5 C62_5 1_555 1_555
C66_5 C67_5 1_555 1_555
C72_5 C73_5 1_555 1_555
C77_5 C78_5 1_555 1_555
C78_5 C79_5 1_555 1_555
C82_5 C83_5 1_555 1_555
C83_5 C84_5 1_555 1_555
C84_5 C85_5 1_555 1_555
N40_3 N41_3 1_555 1_555
C87_6 C88_6 1_555 1_555
C89_6 C90_6 1_555 1_555
C116_6 C117_6 1_555 1_555
C117_6 C118_6 1_555 1_555
N46_6 C70_6 1_555 1_555
C70_6 C69_8 1_555 1_555
C71_6 C70_6 1_555 1_555
H82_6 C71_6 1_555 1_555
H83_6 C71_6 1_555 1_555
H84_6 C71_6 1_555 1_555
Ag18_8 N30_6 1_555 1_555
Ag19_6 N31_6 1_555 1_555
Ag31_5 N36_6 1_555 1_555
Ag33_5 N38_6 1_555 1_555
Ag24_6 N37_6 1_555 1_555
N30_6 N31_6 1_555 1_555
N31_6 C64_6 1_555 1_555
N32_6 Ag19_6 1_555 1_555
N34_4 N50_6 1_555 1_555
N50_6 C75_6 1_555 1_555
C61_6 H73_6 1_555 1_555
H74_6 C61_6 1_555 1_555
H75_6 C61_6 1_555 1_555
C62_6 N30_6 1_555 1_555
C63_6 C62_6 1_555 1_555
C64_6 C63_6 1_555 1_555
C65_6 C64_6 1_555 1_555
H76_6 C65_6 1_555 1_555
H77_6 C65_6 1_555 1_555
H78_6 C65_6 1_555 1_555
C66_6 H79_6 1_555 1_555
H81_6 C66_6 1_555 1_555
C67_6 N32_6 1_555 1_555
C68_8 C67_6 1_555 1_555
C72_6 H85_6 1_555 1_555
H86_6 C72_6 1_555 1_555
H87_6 C72_6 1_555 1_555
C73_6 N34_4 1_555 1_555
C74_6 C73_6 1_555 1_555
C75_6 C74_6 1_555 1_555
C76_6 C75_6 1_555 1_555
H88_6 C76_6 1_555 1_555
H89_6 C76_6 1_555 1_555
H90_6 C76_6 1_555 1_555
N36_6 N37_6 1_555 1_555
N37_6 C80_6 1_555 1_555
C77_6 H91_6 1_555 1_555
H92_6 C77_6 1_555 1_555
H93_6 C77_6 1_555 1_555
C78_6 N36_6 1_555 1_555
C79_6 C74_6 1_555 1_555
C80_6 C79_6 1_555 1_555
C81_6 C80_6 1_555 1_555
H94_6 C81_6 1_555 1_555
H95_6 C81_6 1_555 1_555
H96_6 C81_6 1_555 1_555
N38_6 N39_6 1_555 1_555
N39_6 Ag24_6 1_555 1_555
C82_6 H97_6 1_555 1_555
H98_6 C82_6 1_555 1_555
H99_6 C82_6 1_555 1_555
C83_6 N38_6 1_555 1_555
C84_6 C63_6 1_555 1_555
C85_6 N39_6 1_555 1_555
C86_6 C85_6 1_555 1_555
H100_6 C86_6 1_555 1_555
H101_6 C86_6 1_555 1_555
H102_6 C86_6 1_555 1_555
Ag26_4 N34_4 1_555 1_555
C61_6 C62_6 1_555 1_555
C66_6 C67_6 1_555 1_555
C72_6 C73_6 1_555 1_555
C77_6 C78_6 1_555 1_555
C78_6 C79_6 1_555 1_555
C82_6 C83_6 1_555 1_555
C83_6 C84_6 1_555 1_555
C84_6 C85_6 1_555 1_555
N48_3 Ag20_5 1_555 1_555
Ag18_9 N30_7 1_555 1_555
Ag19_7 N31_7 1_555 1_555
Ag22_4 N36_7 1_555 1_555
Ag23_4 N38_7 1_555 1_555
Ag24_7 N37_7 1_555 1_555
N30_7 N31_7 1_555 1_555
N31_7 C64_7 1_555 1_555
N32_7 Ag19_7 1_555 1_555
N33_3 C70_7 1_555 1_555
N48_3 N35_3 1_555 1_555
N35_3 C75_7 1_555 1_555
C61_7 H73_7 1_555 1_555
H74_7 C61_7 1_555 1_555
H75_7 C61_7 1_555 1_555
C62_7 N30_7 1_555 1_555
C63_7 C62_7 1_555 1_555
C64_7 C63_7 1_555 1_555
C65_7 C64_7 1_555 1_555
H76_7 C65_7 1_555 1_555
H77_7 C65_7 1_555 1_555
H78_7 C65_7 1_555 1_555
C66_7 H79_7 1_555 1_555
H80_7 C66_7 1_555 1_555
H81_7 C66_7 1_555 1_555
C67_7 N32_7 1_555 1_555
C68_9 C67_7 1_555 1_555
C69_9 C68_9 1_555 1_555
C70_7 C69_9 1_555 1_555
C71_7 C70_7 1_555 1_555
H82_7 C71_7 1_555 1_555
H83_7 C71_7 1_555 1_555
H84_7 C71_7 1_555 1_555
C72_7 H85_7 1_555 1_555
H86_7 C72_7 1_555 1_555
H87_7 C72_7 1_555 1_555
C73_7 N48_3 1_555 1_555
C74_7 C73_7 1_555 1_555
C75_7 C74_7 1_555 1_555
C76_7 C75_7 1_555 1_555
H88_7 C76_7 1_555 1_555
H89_7 C76_7 1_555 1_555
H90_7 C76_7 1_555 1_555
N36_7 N37_7 1_555 1_555
N37_7 C80_7 1_555 1_555
C77_7 H91_7 1_555 1_555
H92_7 C77_7 1_555 1_555
H93_7 C77_7 1_555 1_555
C78_7 N36_7 1_555 1_555
C79_7 C74_7 1_555 1_555
C80_7 C79_7 1_555 1_555
C81_7 C80_7 1_555 1_555
H94_7 C81_7 1_555 1_555
H95_7 C81_7 1_555 1_555
H96_7 C81_7 1_555 1_555
N38_7 N39_7 1_555 1_555
N39_7 Ag24_7 1_555 1_555
C82_7 H97_7 1_555 1_555
H98_7 C82_7 1_555 1_555
H99_7 C82_7 1_555 1_555
C83_7 N38_7 1_555 1_555
C84_7 C63_7 1_555 1_555
C85_7 N39_7 1_555 1_555
C86_7 C85_7 1_555 1_555
H100_7 C86_7 1_555 1_555
H101_7 C86_7 1_555 1_555
H102_7 C86_7 1_555 1_555
N40_4 Ag22_4 1_555 1_555
N41_4 Ag23_4 1_555 1_555
C87_7 H103_7 1_555 1_555
H104_7 C87_7 1_555 1_555
H105_7 C87_7 1_555 1_555
C88_7 N40_4 1_555 1_555
C89_7 C88_7 1_555 1_555
C90_7 N41_4 1_555 1_555
C91_7 C90_7 1_555 1_555
H106_7 C91_7 1_555 1_555
H107_7 C91_7 1_555 1_555
H108_7 C91_7 1_555 1_555
Ag27_3 N35_3 1_555 1_555
Ag28_3 N33_3 1_555 1_555
Ag31_6 N55_6 1_555 1_555
Ag33_6 N57_6 1_555 1_555
N55_6 N57_6 1_555 1_555
N57_6 C119_7 1_555 1_555
C116_7 H139_7 1_555 1_555
H140_7 C116_7 1_555 1_555
H141_7 C116_7 1_555 1_555
C117_7 N55_6 1_555 1_555
C118_7 C89_7 1_555 1_555
C119_7 C118_7 1_555 1_555
C120_7 C119_7 1_555 1_555
H142_7 C120_7 1_555 1_555
H143_7 C120_7 1_555 1_555
H144_7 C120_7 1_555 1_555
C61_7 C62_7 1_555 1_555
C66_7 C67_7 1_555 1_555
C72_7 C73_7 1_555 1_555
C77_7 C78_7 1_555 1_555
C78_7 C79_7 1_555 1_555
C82_7 C83_7 1_555 1_555
C83_7 C84_7 1_555 1_555
C84_7 C85_7 1_555 1_555
N40_4 N41_4 1_555 1_555
C87_7 C88_7 1_555 1_555
C89_7 C90_7 1_555 1_555
C116_7 C117_7 1_555 1_555
C117_7 C118_7 1_555 1_555
N48_4 Ag20_6 1_555 1_555
Ag18_10 N30_8 1_555 1_555
Ag19_8 N31_8 1_555 1_555
Ag31_6 N36_8 1_555 1_555
Ag33_6 N38_8 1_555 1_555
Ag24_8 N37_8 1_555 1_555
N30_8 N31_8 1_555 1_555
N31_8 C64_8 1_555 1_555
N32_8 Ag19_8 1_555 1_555
N48_4 N35_4 1_555 1_555
N35_4 C75_8 1_555 1_555
C61_8 H73_8 1_555 1_555
H74_8 C61_8 1_555 1_555
H75_8 C61_8 1_555 1_555
C62_8 N30_8 1_555 1_555
C63_8 C62_8 1_555 1_555
C64_8 C63_8 1_555 1_555
C65_8 C64_8 1_555 1_555
H76_8 C65_8 1_555 1_555
H77_8 C65_8 1_555 1_555
H78_8 C65_8 1_555 1_555
C66_8 H79_8 1_555 1_555
H81_8 C66_8 1_555 1_555
C67_8 N32_8 1_555 1_555
C68_10 C67_8 1_555 1_555
C72_8 H85_8 1_555 1_555
H86_8 C72_8 1_555 1_555
H87_8 C72_8 1_555 1_555
C73_8 N48_4 1_555 1_555
C74_8 C73_8 1_555 1_555
C75_8 C74_8 1_555 1_555
C76_8 C75_8 1_555 1_555
H88_8 C76_8 1_555 1_555
H89_8 C76_8 1_555 1_555
H90_8 C76_8 1_555 1_555
N36_8 N37_8 1_555 1_555
N37_8 C80_8 1_555 1_555
C77_8 H91_8 1_555 1_555
H92_8 C77_8 1_555 1_555
H93_8 C77_8 1_555 1_555
C78_8 N36_8 1_555 1_555
C79_8 C74_8 1_555 1_555
C80_8 C79_8 1_555 1_555
C81_8 C80_8 1_555 1_555
H94_8 C81_8 1_555 1_555
H95_8 C81_8 1_555 1_555
H96_8 C81_8 1_555 1_555
N38_8 N39_8 1_555 1_555
N39_8 Ag24_8 1_555 1_555
C82_8 H97_8 1_555 1_555
H98_8 C82_8 1_555 1_555
H99_8 C82_8 1_555 1_555
C83_8 N38_8 1_555 1_555
C84_8 C63_8 1_555 1_555
C85_8 N39_8 1_555 1_555
C86_8 C85_8 1_555 1_555
H100_8 C86_8 1_555 1_555
H101_8 C86_8 1_555 1_555
H102_8 C86_8 1_555 1_555
Ag27_4 N35_4 1_555 1_555
C61_8 C62_8 1_555 1_555
C66_8 C67_8 1_555 1_555
C72_8 C73_8 1_555 1_555
C77_8 C78_8 1_555 1_555
C78_8 C79_8 1_555 1_555
C82_8 C83_8 1_555 1_555
C83_8 C84_8 1_555 1_555
C84_8 C85_8 1_555 1_555
N33_4 C70_8 1_555 1_555
C70_8 C69_10 1_555 1_555
C71_8 C70_8 1_555 1_555
H82_8 C71_8 1_555 1_555
H83_8 C71_8 1_555 1_555
H84_8 C71_8 1_555 1_555
Ag28_4 N33_4 1_555 1_555
Ag27_4 N46_7 1_555 1_555
N50_7 Ag28_4 1_555 1_555
Ag27_3 N46_8 1_555 1_555
N50_8 Ag28_3 1_555 1_555
C69_11 C68_11 1_555 1_555
Ag25_7 N43_7 1_555 1_555
Ag32_5 N53_7 1_555 1_555
N42_7 Ag18_11 1_555 1_555
N43_7 N42_7 1_555 1_555
C92_7 H109_7 1_555 1_555
H110_7 C92_7 1_555 1_555
H111_7 C92_7 1_555 1_555
C93_7 N42_7 1_555 1_555
C94_7 C93_7 1_555 1_555
C95_7 N43_7 1_555 1_555
C96_7 C95_7 1_555 1_555
H112_7 C96_7 1_555 1_555
H113_7 C96_7 1_555 1_555
H114_7 C96_7 1_555 1_555
C97_7 H115_7 1_555 1_555
H116_7 C97_7 1_555 1_555
H117_7 C97_7 1_555 1_555
C98_7 C68_11 1_555 1_555
C99_7 C69_11 1_555 1_555
C100_7 C99_7 1_555 1_555
H118_7 C100_7 1_555 1_555
H119_7 C100_7 1_555 1_555
H120_7 C100_7 1_555 1_555
N53_7 N54_7 1_555 1_555
C111_7 H133_7 1_555 1_555
H134_7 C111_7 1_555 1_555
H135_7 C111_7 1_555 1_555
C112_7 N53_7 1_555 1_555
C113_7 C94_7 1_555 1_555
C114_7 N54_7 1_555 1_555
C115_7 C114_7 1_555 1_555
H136_7 C115_7 1_555 1_555
H137_7 C115_7 1_555 1_555
H138_7 C115_7 1_555 1_555
N58_5 Ag32_5 1_555 1_555
Ag25_7 N44_7 1_555 1_555
N44_7 C98_7 1_555 1_555
N46_8 C99_7 1_555 1_555
C92_7 C93_7 1_555 1_555
C94_7 C95_7 1_555 1_555
C97_7 C98_7 1_555 1_555
C111_7 C112_7 1_555 1_555
C112_7 C113_7 1_555 1_555
C113_7 C114_7 1_555 1_555
Ag26_5 N47_7 1_555 1_555
Ag30_5 N51_7 1_555 1_555
Ag34_7 N52_7 1_555 1_555
N47_7 N50_8 1_555 1_555
C101_7 H121_7 1_555 1_555
H122_7 C101_7 1_555 1_555
H123_7 C101_7 1_555 1_555
C102_7 N47_7 1_555 1_555
C103_7 C102_7 1_555 1_555
C104_7 N50_8 1_555 1_555
C105_7 C104_7 1_555 1_555
H124_7 C105_7 1_555 1_555
H125_7 C105_7 1_555 1_555
H126_7 C105_7 1_555 1_555
N51_7 N52_7 1_555 1_555
N52_7 C109_7 1_555 1_555
C106_7 H127_7 1_555 1_555
H128_7 C106_7 1_555 1_555
H129_7 C106_7 1_555 1_555
C107_7 N51_7 1_555 1_555
C108_7 C103_7 1_555 1_555
C109_7 C108_7 1_555 1_555
C110_7 C109_7 1_555 1_555
H130_7 C110_7 1_555 1_555
H131_7 C110_7 1_555 1_555
H132_7 C110_7 1_555 1_555
N56_5 Ag30_5 1_555 1_555
C101_7 C102_7 1_555 1_555
C103_7 C104_7 1_555 1_555
C106_7 C107_7 1_555 1_555
C107_7 C108_7 1_555 1_555
C99_8 C69_12 1_555 1_555
C100_8 C99_8 1_555 1_555
H118_8 C100_8 1_555 1_555
H119_8 C100_8 1_555 1_555
H120_8 C100_8 1_555 1_555
N46_7 C99_8 1_555 1_555
Ag25_8 N43_8 1_555 1_555
Ag32_6 N53_8 1_555 1_555
N42_8 Ag18_12 1_555 1_555
N43_8 N42_8 1_555 1_555
C92_8 H109_8 1_555 1_555
H110_8 C92_8 1_555 1_555
H111_8 C92_8 1_555 1_555
C93_8 N42_8 1_555 1_555
C94_8 C93_8 1_555 1_555
C95_8 N43_8 1_555 1_555
C96_8 C95_8 1_555 1_555
H112_8 C96_8 1_555 1_555
H113_8 C96_8 1_555 1_555
H114_8 C96_8 1_555 1_555
C97_8 H115_8 1_555 1_555
H117_8 C97_8 1_555 1_555
C98_8 C68_12 1_555 1_555
N53_8 N54_8 1_555 1_555
C111_8 H133_8 1_555 1_555
H134_8 C111_8 1_555 1_555
H135_8 C111_8 1_555 1_555
C112_8 N53_8 1_555 1_555
C113_8 C94_8 1_555 1_555
C114_8 N54_8 1_555 1_555
C115_8 C114_8 1_555 1_555
H136_8 C115_8 1_555 1_555
H137_8 C115_8 1_555 1_555
H138_8 C115_8 1_555 1_555
N58_6 Ag32_6 1_555 1_555
Ag25_8 N44_8 1_555 1_555
N44_8 C98_8 1_555 1_555
C92_8 C93_8 1_555 1_555
C94_8 C95_8 1_555 1_555
C97_8 C98_8 1_555 1_555
C111_8 C112_8 1_555 1_555
C112_8 C113_8 1_555 1_555
C113_8 C114_8 1_555 1_555
Ag26_6 N47_8 1_555 1_555
Ag30_6 N51_8 1_555 1_555
Ag34_8 N52_8 1_555 1_555
N47_8 N50_7 1_555 1_555
C101_8 H121_8 1_555 1_555
H122_8 C101_8 1_555 1_555
H123_8 C101_8 1_555 1_555
C102_8 N47_8 1_555 1_555
C103_8 C102_8 1_555 1_555
C104_8 N50_7 1_555 1_555
C105_8 C104_8 1_555 1_555
H124_8 C105_8 1_555 1_555
H125_8 C105_8 1_555 1_555
H126_8 C105_8 1_555 1_555
N51_8 N52_8 1_555 1_555
N52_8 C109_8 1_555 1_555
C106_8 H127_8 1_555 1_555
H128_8 C106_8 1_555 1_555
H129_8 C106_8 1_555 1_555
C107_8 N51_8 1_555 1_555
C108_8 C103_8 1_555 1_555
C109_8 C108_8 1_555 1_555
C110_8 C109_8 1_555 1_555
H130_8 C110_8 1_555 1_555
H131_8 C110_8 1_555 1_555
H132_8 C110_8 1_555 1_555
N56_6 Ag30_6 1_555 1_555
C101_8 C102_8 1_555 1_555
C103_8 C104_8 1_555 1_555
C106_8 C107_8 1_555 1_555
C107_8 C108_8 1_555 1_555
C90_8 N58_6 1_555 1_555
C91_8 C90_8 1_555 1_555
H106_8 C91_8 1_555 1_555
H107_8 C91_8 1_555 1_555
H108_8 C91_8 1_555 1_555
N58_5 C119_8 1_555 1_555
C118_8 C89_8 1_555 1_555
C119_8 C118_8 1_555 1_555
C120_8 C119_8 1_555 1_555
H142_8 C120_8 1_555 1_555
H143_8 C120_8 1_555 1_555
H144_8 C120_8 1_555 1_555
C89_8 C90_8 1_555 1_555
C87_8 H103_8 1_555 1_555
H104_8 C87_8 1_555 1_555
H105_8 C87_8 1_555 1_555
C88_8 N56_6 1_555 1_555
C116_8 H139_8 1_555 1_555
H140_8 C116_8 1_555 1_555
H141_8 C116_8 1_555 1_555
C117_8 N56_5 1_555 1_555
C87_8 C88_8 1_555 1_555
C116_8 C117_8 1_555 1_555

#END
