
###############################################################################
#
# This file contains modified crystal structure data generated from the
# MOF subset of the Cambridge Structural Database (CSD) v543 
# hosted by the Cambridge Crystallographic Data Centre (CCDC).
#
# This work is licensed under the Creative Commons
# Attribution-NonCommercial-ShareAlike 4.0 International License.
# To view a copy of this license, visit
# http://creativecommons.org/licenses/by-nc-sa/4.0/
# or send a letter to
# Creative Commons, PO Box 1866, Mountain View, CA 94042, USA.
#
# CIF created using the CSD Python API on 29 September 2022
# The structure has been converted into the P1 space group
# The structure has a 3D framework
# The original CSD entry MIZKOW is in the monoclinic crystal system
# The framework has been calculated to contain at least 10.0% void space
# The void calculation uses a probe of radius 1.32A, grid spacing 0.4
#
###############################################################################

data_MIZKOW
_chemical_formula_moiety         '(C56 H32 Cu4 La4 N8 O29)n'
_symmetry_cell_setting           triclinic
_symmetry_space_group_name_H-M   'P 1'
_symmetry_Int_Tables_number      1
_space_group_name_Hall           'P 1'
loop_
_symmetry_equiv_pos_site_id
_symmetry_equiv_pos_as_xyz
1 x,y,z
_cell_length_a                   9.6773(5)
_cell_length_b                   21.6939(9)
_cell_length_c                   9.3825(6)
_cell_angle_alpha                90
_cell_angle_beta                 115.312(2)
_cell_angle_gamma                90
_cell_volume                     1780.64
loop_
_atom_site_label
_atom_site_type_symbol
_atom_site_fract_x
_atom_site_fract_y
_atom_site_fract_z
C14 C 0.0080(4) 0.03574(15) 0.0127(4)
O8 O 0.1392(3) 0.05662(12) 0.0933(3)
La4 La 0.361678(19) 0.991429(8) 0.12205(2)
Cu2 Cu 0.30874(5) 0.85610(2) 0.45642(7)
C15 C 0.1279(5) 0.86923(19) 0.6276(5)
H9 H 0.2068 0.8465 0.7030
C16 C 0.0079(5) 0.8860(2) 0.6597(5)
H10 H 0.0073 0.8762 0.7559
C19 C 0.0217(4) 0.91604(17) 0.3852(5)
H12 H 0.0277 0.9274 0.2924
N3 N 0.1381(3) 0.88371(14) 0.4933(4)
N6 N 0.4424(4) 0.79356(13) 0.4399(4)
O16 O 0.3818(3) 0.94288(11) 0.3761(3)
O19 O 0.1127(3) 0.93386(11) 0.0509(3)
C7 C 0.4447(5) 0.30439(18) 0.1031(5)
H5 H 0.4256 0.3449 0.1220
C8 C 0.3558(5) 0.2584(2) 0.1206(6)
H6 H 0.2787 0.2678 0.1513
C9 C 0.3818(5) 0.19776(18) 0.0920(5)
H7 H 0.3234 0.1659 0.1039
C10 C 0.4969(4) 0.18587(15) 0.0454(4)
C11 C 0.5811(4) 0.23519(15) 0.0302(5)
C12 C 0.5353(4) 0.12303(15) 0.0075(4)
N2 N 0.5576(4) 0.29356(13) 0.0601(4)
O4 O 0.4821(3) 0.07635(11) 0.0459(3)
Cu3 Cu 0.69126(5) 0.35610(2) 0.04358(7)
O18 O 0.4645(3) 0.06039(11) 0.3659(3)
La1 La 0.638322(19) 0.008571(8) 0.87795(2)
C3 C 0.1129(4) 0.08194(18) 0.4541(5)
H3 H 0.1971 0.0708 0.4366
C4 C 0.1062(4) 0.06686(15) 0.5946(4)
C6 C 0.2365(4) 0.03352(16) 0.7241(4)
H8 H 0.6576 0.2272 0.9977
C13 C 0.5232(4) 0.03395(14) 0.4963(4)
O1 O 0.3611(3) 0.03281(14) 0.7133(3)
O2 O 0.2115(3) 0.01015(12) 0.8325(3)
O3 O 0.6192(3) 0.11986(12) 0.9374(4)
O5 O 0.6182(3) 0.05712(11) 0.6239(3)
O7 O 0.8873(3) 0.06614(11) 0.9491(3)
Cu4 Cu 0.69126(5) 0.14390(2) 0.54358(7)
C17 C 0.8871(4) 0.91806(18) 0.5459(5)
H11 H 0.8029 0.9292 0.5634
C18 C 0.8938(4) 0.93314(15) 0.4054(4)
C20 C 0.7635(4) 0.96648(16) 0.2759(4)
H16 H 0.3424 0.7728 0.0023
O9 O 0.6389(3) 0.96719(14) 0.2867(3)
O10 O 0.7885(3) 0.98985(12) 0.1675(3)
O11 O 0.3808(3) 0.88014(12) 0.0626(4)
Cu6 Cu 0.30874(5) 0.64390(2) 0.95642(7)
C21 C 0.5553(5) 0.69561(18) 0.8969(5)
H13 H 0.5744 0.6551 0.8780
C22 C 0.6442(5) 0.7416(2) 0.8794(6)
H14 H 0.7213 0.7322 0.8487
C23 C 0.6182(5) 0.80224(18) 0.9080(5)
H15 H 0.6766 0.8341 0.8961
C24 C 0.5031(4) 0.81413(15) 0.9546(4)
C25 C 0.4189(4) 0.76481(15) 0.9698(5)
C26 C 0.4647(4) 0.87697(15) 0.9925(4)
C27 C 0.4768(4) 0.96605(14) 0.5037(4)
C28 C 0.9920(4) 0.96426(15) 0.9873(4)
N4 N 0.4424(4) 0.70644(13) 0.9399(4)
O12 O 0.5179(3) 0.92365(11) 0.9541(3)
O17 O 0.5355(3) 0.93961(11) 0.6341(3)
O21 O 0.8608(3) 0.94338(12) 0.9067(3)
C1 C 0.8721(5) 0.13077(19) 0.3724(5)
H1 H 0.7932 0.1535 0.2970
C2 C 0.9921(5) 0.1140(2) 0.3403(5)
H2 H 0.9927 0.1238 0.2441
C5 C 0.9783(4) 0.08396(17) 0.6148(5)
H4 H 0.9723 0.0726 0.7076
N1 N 0.8619(3) 0.11629(14) 0.5067(4)
N5 N 0.5576(4) 0.20644(13) 0.5601(4)
C5_2 C 0.0217(4) 0.58396(17) 0.8852(5)
H4_2 H 0.0277 0.5726 0.7924
N1_2 N 0.1381(3) 0.61629(14) 0.9933(4)
O14 O 0.3818(3) 0.55712(11) 0.8761(3)
C3_2 C 0.8871(4) 0.58194(18) 0.0459(5)
H3_2 H 0.8029 0.5708 0.0634
C13_2 C 0.4768(4) 0.53395(14) 0.0037(4)
O6 O 0.5355(3) 0.56039(11) 0.1341(3)
La3 La 0.638322(19) 0.491429(8) 0.37795(2)
O13 O 0.6182(3) 0.44288(11) 0.1239(3)
La1_2 La 0.361678(19) 0.508571(8) 0.62205(2)
C4_2 C 0.8938(4) 0.56686(15) 0.9054(4)
C6_2 C 0.7635(4) 0.53352(16) 0.7759(4)
C7_2 C 0.5553(5) 0.80439(18) 0.3969(5)
H5_2 H 0.5744 0.8449 0.3780
C8_2 C 0.6442(5) 0.7584(2) 0.3794(6)
H6_2 H 0.7213 0.7678 0.3487
C9_2 C 0.6182(5) 0.69776(18) 0.4080(5)
H7_2 H 0.6766 0.6659 0.3961
C10_2 C 0.5031(4) 0.68587(15) 0.4546(4)
C11_2 C 0.4189(4) 0.73519(15) 0.4698(5)
H8_2 H 0.3424 0.7272 0.5023
C12_2 C 0.4647(4) 0.62303(15) 0.4925(4)
O1_2 O 0.6389(3) 0.53281(14) 0.7867(3)
O2_2 O 0.7885(3) 0.51015(12) 0.6675(3)
O3_2 O 0.3808(3) 0.61986(12) 0.5626(4)
O4_2 O 0.5179(3) 0.57635(11) 0.4541(3)
O7_2 O 0.1127(3) 0.56614(11) 0.5509(3)
C18_2 C 0.1062(4) 0.43314(15) 0.0946(4)
C20_2 C 0.2365(4) 0.46648(16) 0.2241(4)
C21_2 C 0.4447(5) 0.19561(18) 0.6031(5)
H13_2 H 0.4256 0.1551 0.6220
C22_2 C 0.3558(5) 0.2416(2) 0.6206(6)
H14_2 H 0.2787 0.2322 0.6513
C23_2 C 0.3818(5) 0.30224(18) 0.5920(5)
H15_2 H 0.3234 0.3341 0.6039
C24_2 C 0.4969(4) 0.31413(15) 0.5454(4)
C25_2 C 0.5811(4) 0.26481(15) 0.5302(5)
H16_2 H 0.6576 0.2728 0.4977
C26_2 C 0.5353(4) 0.37697(15) 0.5075(4)
C27_2 C 0.5232(4) 0.46605(14) 0.9963(4)
C28_2 C 0.0080(4) 0.46426(15) 0.5127(4)
O9_2 O 0.3611(3) 0.46719(14) 0.2133(3)
O10_2 O 0.2115(3) 0.48985(12) 0.3325(3)
O11_2 O 0.6192(3) 0.38014(12) 0.4374(4)
O12_2 O 0.4821(3) 0.42365(11) 0.5459(3)
O17_2 O 0.4645(3) 0.43961(11) 0.8659(3)
O20 O 0.8873(3) 0.43386(11) 0.4491(3)
O21_2 O 0.1392(3) 0.44338(12) 0.5933(3)
O22 O 0.8608(3) 0.55662(12) 0.4067(3)
C17_2 C 0.1129(4) 0.41806(18) 0.9541(5)
H11_2 H 0.1971 0.4292 0.9366
C14_2 C 0.9920(4) 0.53574(15) 0.4873(4)
C19_2 C 0.9783(4) 0.41604(17) 0.1148(5)
H12_2 H 0.9723 0.4274 0.2076
N3_2 N 0.8619(3) 0.38371(14) 0.0067(4)
C1_2 C 0.1279(5) 0.63077(19) 0.1276(5)
H1_2 H 0.2068 0.6535 0.2030
C2_2 C 0.0079(5) 0.6140(2) 0.1597(5)
H2_2 H 0.0073 0.6238 0.2559
C15_2 C 0.8721(5) 0.36923(19) 0.8724(5)
H9_2 H 0.7932 0.3465 0.7970
C16_2 C 0.9921(5) 0.3860(2) 0.8403(5)
H10_2 H 0.9927 0.3762 0.7441
loop_
_geom_bond_atom_site_label_1
_geom_bond_atom_site_label_2
_geom_bond_site_symmetry_1
_geom_bond_site_symmetry_2
O8 C14 1_555 1_555
Cu2 N3 1_555 1_555
C15 H9 1_555 1_555
C16 C15 1_555 1_555
H10 C16 1_555 1_555
H12 C19 1_555 1_555
N3 C15 1_555 1_555
N6 Cu2 1_555 1_555
O16 La4 1_555 1_555
O19 La4 1_555 1_555
Cu2 O16 1_555 1_555
C19 N3 1_555 1_555
C7 H5 1_555 1_555
C8 C7 1_555 1_555
H6 C8 1_555 1_555
C9 C8 1_555 1_555
H7 C9 1_555 1_555
C10 C9 1_555 1_555
C11 C10 1_555 1_555
C12 C10 1_555 1_555
N2 C7 1_555 1_555
Cu3 N2 1_555 1_555
C11 N2 1_555 1_555
C12 O4 1_555 1_555
La1 O1 1_555 1_555
H3 C3 1_555 1_555
C4 C3 1_555 1_555
C6 C4 1_555 1_555
C13 O5 1_555 1_555
O1 C6 1_555 1_555
O2 C6 1_555 1_555
O3 La1 1_555 1_555
O5 La1 1_555 1_555
O18 C13 1_555 1_555
O7 La1 1_555 1_555
Cu4 O5 1_555 1_555
H11 C17 1_555 1_555
C18 C17 1_555 1_555
C20 C18 1_555 1_555
O9 La4 1_555 1_555
O11 La4 1_555 1_555
C20 O9 1_555 1_555
C20 O10 1_555 1_555
Cu6 N4 1_555 1_555
C21 H13 1_555 1_555
C22 C21 1_555 1_555
H14 C22 1_555 1_555
C23 C22 1_555 1_555
H15 C23 1_555 1_555
C24 C23 1_555 1_555
C25 C24 1_555 1_555
C26 C24 1_555 1_555
N4 C21 1_555 1_555
C25 N4 1_555 1_555
C26 O12 1_555 1_555
C27 O16 1_555 1_555
C27 O17 1_555 1_555
C28 O21 1_555 1_555
Cu4 N1 1_555 1_555
C1 H1 1_555 1_555
C2 C1 1_555 1_555
H2 C2 1_555 1_555
H4 C5 1_555 1_555
N1 C1 1_555 1_555
N5 Cu4 1_555 1_555
C5 N1 1_555 1_555
Cu6 N1_2 1_555 1_555
H4_2 C5_2 1_555 1_555
O14 Cu6 1_555 1_555
C5_2 N1_2 1_555 1_555
H3_2 C3_2 1_555 1_555
O6 C13_2 1_555 1_555
La3 O6 1_555 1_555
Cu3 O13 1_555 1_555
O13 La3 1_555 1_555
La1_2 O1_2 1_555 1_555
C6_2 C4_2 1_555 1_555
C7_2 H5_2 1_555 1_555
C8_2 C7_2 1_555 1_555
H6_2 C8_2 1_555 1_555
C9_2 C8_2 1_555 1_555
H7_2 C9_2 1_555 1_555
C10_2 C9_2 1_555 1_555
C11_2 C10_2 1_555 1_555
H8_2 C11_2 1_555 1_555
C12_2 C10_2 1_555 1_555
N6 C7_2 1_555 1_555
O1_2 C6_2 1_555 1_555
O2_2 C6_2 1_555 1_555
O3_2 La1_2 1_555 1_555
O4_2 La1_2 1_555 1_555
O14 La1_2 1_555 1_555
O7_2 La1_2 1_555 1_555
La3 O2_2 1_555 1_555
C20_2 C18_2 1_555 1_555
C21_2 H13_2 1_555 1_555
C22_2 C21_2 1_555 1_555
H14_2 C22_2 1_555 1_555
C23_2 C22_2 1_555 1_555
H15_2 C23_2 1_555 1_555
C24_2 C23_2 1_555 1_555
C25_2 C24_2 1_555 1_555
H16_2 C25_2 1_555 1_555
C26_2 C24_2 1_555 1_555
N5 C21_2 1_555 1_555
O9_2 La3 1_555 1_555
O10_2 La1_2 1_555 1_555
O11_2 La3 1_555 1_555
O12_2 La1_2 1_555 1_555
O17_2 La1_2 1_555 1_555
O20 La3 1_555 1_555
O21_2 La1_2 1_555 1_555
O22 La3 1_555 1_555
C11_2 N6 1_555 1_555
C12_2 O3_2 1_555 1_555
C12_2 O4_2 1_555 1_555
O4_2 La3 1_555 1_555
La3 O12_2 1_555 1_555
C20_2 O9_2 1_555 1_555
C20_2 O10_2 1_555 1_555
C25_2 N5 1_555 1_555
C26_2 O11_2 1_555 1_555
C26_2 O12_2 1_555 1_555
C27_2 O17_2 1_555 1_555
C28_2 O21_2 1_555 1_555
H11_2 C17_2 1_555 1_555
O22 C14_2 1_555 1_555
Cu3 N3_2 1_555 1_555
H12_2 C19_2 1_555 1_555
C19_2 N3_2 1_555 1_555
C1_2 H1_2 1_555 1_555
C2_2 C1_2 1_555 1_555
H2_2 C2_2 1_555 1_555
C15_2 H9_2 1_555 1_555
C16_2 C15_2 1_555 1_555
H10_2 C16_2 1_555 1_555

#END
