
###############################################################################
#
# This file contains modified crystal structure data generated from the
# MOF subset of the Cambridge Structural Database (CSD) v543 
# hosted by the Cambridge Crystallographic Data Centre (CCDC).
#
# This work is licensed under the Creative Commons
# Attribution-NonCommercial-ShareAlike 4.0 International License.
# To view a copy of this license, visit
# http://creativecommons.org/licenses/by-nc-sa/4.0/
# or send a letter to
# Creative Commons, PO Box 1866, Mountain View, CA 94042, USA.
#
# CIF created using the CSD Python API on 29 September 2022
# The structure has been converted into the P1 space group
# The structure has a 3D framework
# The original CSD entry MOBBOU is in the monoclinic crystal system
# The framework has been calculated to contain at least 10.0% void space
# The void calculation uses a probe of radius 1.32A, grid spacing 0.4
# H atom positions have been added when not included in the experimental data
# Generated hydrogen atom positions removed from atoms on special positions
#
###############################################################################

data_MOBBOU
_chemical_formula_moiety         '(C48 H32 Cl16 O40 Th6)n'
_symmetry_cell_setting           triclinic
_symmetry_space_group_name_H-M   'P 1'
_symmetry_Int_Tables_number      1
_space_group_name_Hall           'P 1'
loop_
_symmetry_equiv_pos_site_id
_symmetry_equiv_pos_as_xyz
1 x,y,z
_cell_length_a                   13.884(1)
_cell_length_b                   11.522(1)
_cell_length_c                   12.720(1)
_cell_angle_alpha                90
_cell_angle_beta                 96.231(8)
_cell_angle_gamma                90
_cell_volume                     2022.82
loop_
_atom_site_label
_atom_site_type_symbol
_atom_site_fract_x
_atom_site_fract_y
_atom_site_fract_z
Th1 Th -0.0000 0.26515(5) 0.2500
Cl1 Cl 0.39767(19) 0.2663(4) 0.3266(2)
O1 O 0.1807(5) 0.2879(7) 0.2986(5)
O2 O 0.4370(5) 0.2024(7) 0.5587(6)
C1 C 0.2188(7) 0.2730(10) 0.3906(8)
C2 C 0.3505(7) 0.2296(11) 0.5256(8)
C3 C 0.3182(7) 0.2552(10) 0.4212(8)
O5 O 0.0716(6) 0.4383(7) 0.1738(7)
C7 C 0.1495(7) 0.2704(11) 0.4744(8)
O6 O 0.0630(5) 0.2976(7) 0.4413(6)
C8 C 0.1818(7) 0.2448(10) 0.5788(8)
Cl3 Cl 0.10233(19) 0.2337(4) 0.6734(2)
C9 C 0.2812(7) 0.2270(10) 0.6094(8)
O7 O 0.3193(5) 0.2121(7) 0.7014(5)
C10 C 0.0525(8) 0.0874(9) 0.0612(9)
O8 O 0.0913(5) 0.1640(6) 0.1242(6)
O13 O 0.0769(5) 0.0848(7) 0.3316(6)
Th2 Th 0.5000 0.23485(5) 0.7500
O4 O 0.9087(5) 0.8360(6) 0.8758(6)
C5 C 0.9475(8) 0.9126(9) 0.9388(9)
Th3 Th 1.0000 0.73485(5) 0.7500
Th1_2 Th 0.5000 0.76515(5) 0.2500
Cl1_2 Cl 0.89767(19) 0.7663(4) 0.3266(2)
O1_2 O 0.6807(5) 0.7879(7) 0.2986(5)
O2_2 O 0.9370(5) 0.7024(7) 0.5587(6)
C1_2 C 0.7188(7) 0.7730(10) 0.3906(8)
C2_2 C 0.8505(7) 0.7296(11) 0.5256(8)
C3_2 C 0.8182(7) 0.7552(10) 0.4212(8)
Cl2 Cl 0.2998(2) 0.3981(3) 0.0586(3)
O3 O 0.4231(5) 0.5848(7) 0.1684(6)
C4 C 0.4562(7) 0.5402(10) 0.0899(9)
C6 C 0.4077(8) 0.4532(10) 0.0229(9)
O5_2 O 0.5716(6) 0.9383(7) 0.1738(7)
C7_2 C 0.6495(7) 0.7704(11) 0.4744(8)
O6_2 O 0.5630(5) 0.7976(7) 0.4413(6)
C8_2 C 0.6818(7) 0.7448(10) 0.5788(8)
Cl3_2 Cl 0.60233(19) 0.7337(4) 0.6734(2)
C9_2 C 0.7812(7) 0.7270(10) 0.6094(8)
O7_2 O 0.8193(5) 0.7121(7) 0.7014(5)
C10_2 C 0.5525(8) 0.5874(9) 0.0612(9)
O8_2 O 0.5913(5) 0.6640(6) 0.1242(6)
O10 O 0.4284(6) 0.9383(7) 0.3262(7)
O11 O 0.3193(5) 0.7879(7) 0.2014(5)
O12 O 0.4370(5) 0.7976(7) 0.0587(6)
O13_2 O 0.5769(5) 0.5848(7) 0.3316(6)
O14 O 0.4087(5) 0.6640(6) 0.3758(6)
O4_2 O 0.4087(5) 0.3360(6) 0.8758(6)
C5_2 C 0.4475(8) 0.4126(9) 0.9388(9)
C11 C 0.5923(8) 0.5468(10) 0.9771(9)
Cl4 Cl 0.7002(2) 0.6019(3) 0.9414(3)
C12 C 0.5438(7) 0.4598(10) 0.9101(9)
O9 O 0.5769(5) 0.4152(7) 0.8316(6)
C12_2 C 0.0438(7) 0.0402(10) 0.4101(9)
C2_3 C 0.3505(7) 0.7704(11) 0.0256(8)
C8_3 C 0.1818(7) 0.7552(10) 0.0788(8)
Cl3_3 Cl 0.10233(19) 0.7663(4) 0.1734(2)
C9_3 C 0.2812(7) 0.7730(10) 0.1094(8)
O3_2 O 0.9231(5) 0.9152(7) 0.6684(6)
C4_2 C 0.9562(7) 0.9598(10) 0.5899(9)
O10_2 O 0.9284(6) 0.5617(7) 0.8262(7)
Cl1_3 Cl 0.89767(19) 0.2337(4) 0.8266(2)
O1_3 O 0.6807(5) 0.2121(7) 0.7986(5)
C1_3 C 0.7188(7) 0.2270(10) 0.8906(8)
C3_3 C 0.8182(7) 0.2448(10) 0.9212(8)
Cl2_2 Cl 0.2998(2) 0.6019(3) 0.5586(3)
O3_3 O 0.4231(5) 0.4152(7) 0.6684(6)
C4_3 C 0.4562(7) 0.4598(10) 0.5899(9)
C5_3 C 0.4475(8) 0.5874(9) 0.4388(9)
C6_2 C 0.4077(8) 0.5468(10) 0.5229(9)
O5_3 O 0.5716(6) 0.0617(7) 0.6738(7)
C7_3 C 0.6495(7) 0.2296(11) 0.9744(8)
O6_3 O 0.5630(5) 0.2024(7) 0.9413(6)
C10_3 C 0.5525(8) 0.4126(9) 0.5612(9)
O8_3 O 0.5913(5) 0.3360(6) 0.6242(6)
C11_2 C 0.5923(8) 0.4532(10) 0.4771(9)
Cl4_2 Cl 0.7002(2) 0.3981(3) 0.4414(3)
C12_3 C 0.5438(7) 0.5402(10) 0.4101(9)
O10_3 O 0.4284(6) 0.0617(7) 0.8262(7)
C11_3 C 0.0923(8) 0.0468(10) 0.9771(9)
Cl4_3 Cl 0.2002(2) 0.1019(3) 0.9414(3)
C12_4 C 0.0438(7) 0.9598(10) 0.9101(9)
O9_2 O 0.0769(5) 0.9152(7) 0.8316(6)
Th3_2 Th 0.0000 0.73485(5) 0.7500
Cl1_4 Cl 0.39767(19) 0.7337(4) 0.8266(2)
O1_4 O 0.1807(5) 0.7121(7) 0.7986(5)
C1_4 C 0.2188(7) 0.7270(10) 0.8906(8)
C3_4 C 0.3182(7) 0.7448(10) 0.9212(8)
O5_4 O 0.0716(6) 0.5617(7) 0.6738(7)
C7_4 C 0.1495(7) 0.7296(11) 0.9744(8)
O6_4 O 0.0630(5) 0.7024(7) 0.9413(6)
C10_4 C 0.0525(8) 0.9126(9) 0.5612(9)
O8_4 O 0.0913(5) 0.8360(6) 0.6242(6)
C11_4 C 0.0923(8) 0.9532(10) 0.4771(9)
Cl4_4 Cl 0.2002(2) 0.8981(3) 0.4414(3)
Th1_3 Th 1.0000 0.26515(5) 0.2500
O3_4 O 0.9231(5) 0.0848(7) 0.1684(6)
C4_4 C 0.9562(7) 0.0402(10) 0.0899(9)
O10_4 O 0.9284(6) 0.4383(7) 0.3262(7)
O11_2 O 0.8193(5) 0.2879(7) 0.2014(5)
O12_2 O 0.9370(5) 0.2976(7) 0.0587(6)
O14_2 O 0.9087(5) 0.1640(6) 0.3758(6)
Cl2_3 Cl 0.7998(2) 0.1019(3) 0.5586(3)
C5_4 C 0.9475(8) 0.0874(9) 0.4388(9)
C6_3 C 0.9077(8) 0.0468(10) 0.5229(9)
C2_4 C 0.8505(7) 0.2704(11) 0.0256(8)
C8_4 C 0.6818(7) 0.2552(10) 0.0788(8)
Cl3_4 Cl 0.60233(19) 0.2663(4) 0.1734(2)
C9_4 C 0.7812(7) 0.2730(10) 0.1094(8)
Cl2_4 Cl 0.7998(2) 0.8981(3) 0.0586(3)
C6_4 C 0.9077(8) 0.9532(10) 0.0229(9)
H3 H 0.453776 0.0094589 0.294834
H3_2 H 0.453776 0.990541 0.794834
H3_3 H 0.546224 0.990541 0.705166
H3_4 H 0.546224 0.0094589 0.205166
loop_
_geom_bond_atom_site_label_1
_geom_bond_atom_site_label_2
_geom_bond_site_symmetry_1
_geom_bond_site_symmetry_2
Th1 O1 1_555 1_555
Cl1 C3 1_555 1_555
O1 C1 1_555 1_555
O2 C2 1_555 1_555
C1 C3 1_555 1_555
C2 C3 1_555 1_555
O5 Th1 1_555 1_555
C7 C1 1_555 1_555
O6 Th1 1_555 1_555
C8 C7 1_555 1_555
Cl3 C8 1_555 1_555
C9 C2 1_555 1_555
O7 C9 1_555 1_555
O8 Th1 1_555 1_555
O13 Th1 1_555 1_555
Th2 O2 1_555 1_555
C7 O6 1_555 1_555
C8 C9 1_555 1_555
O7 Th2 1_555 1_555
C10 O8 1_555 1_555
O4 C5 1_555 1_555
Th3 O4 1_555 1_555
Th1_2 O1_2 1_555 1_555
Cl1_2 C3_2 1_555 1_555
O1_2 C1_2 1_555 1_555
O2_2 C2_2 1_555 1_555
C1_2 C3_2 1_555 1_555
C2_2 C3_2 1_555 1_555
Cl2 C6 1_555 1_555
O3 Th1_2 1_555 1_555
C4 O3 1_555 1_555
C6 C4 1_555 1_555
O5_2 Th1_2 1_555 1_555
C7_2 C1_2 1_555 1_555
O6_2 Th1_2 1_555 1_555
C8_2 C7_2 1_555 1_555
Cl3_2 C8_2 1_555 1_555
C9_2 C2_2 1_555 1_555
O7_2 C9_2 1_555 1_555
C10_2 C4 1_555 1_555
O8_2 Th1_2 1_555 1_555
O10 Th1_2 1_555 1_555
O11 Th1_2 1_555 1_555
O12 Th1_2 1_555 1_555
O13_2 Th1_2 1_555 1_555
O14 Th1_2 1_555 1_555
Th3 O2_2 1_555 1_555
C7_2 O6_2 1_555 1_555
C8_2 C9_2 1_555 1_555
O7_2 Th3 1_555 1_555
C10_2 O8_2 1_555 1_555
O4_2 C5_2 1_555 1_555
Cl4 C11 1_555 1_555
C12 C5_2 1_555 1_555
O9 C12 1_555 1_555
Th2 O4_2 1_555 1_555
C11 C12 1_555 1_555
O9 Th2 1_555 1_555
O13 C12_2 1_555 1_555
O12 C2_3 1_555 1_555
Cl3_3 C8_3 1_555 1_555
C9_3 C2_3 1_555 1_555
O11 C9_3 1_555 1_555
C8_3 C9_3 1_555 1_555
O3_2 Th3 1_555 1_555
C4_2 O3_2 1_555 1_555
O10_2 Th3 1_555 1_555
Th2 O1_3 1_555 1_555
Cl1_3 C3_3 1_555 1_555
O1_3 C1_3 1_555 1_555
C1_3 C3_3 1_555 1_555
Cl2_2 C6_2 1_555 1_555
O3_3 Th2 1_555 1_555
O14 C5_3 1_555 1_555
C4_3 O3_3 1_555 1_555
C5_3 C6_2 1_555 1_555
C6_2 C4_3 1_555 1_555
O5_3 Th2 1_555 1_555
C7_3 C1_3 1_555 1_555
O6_3 Th2 1_555 1_555
C10_3 C4_3 1_555 1_555
O8_3 Th2 1_555 1_555
C11_2 C10_3 1_555 1_555
Cl4_2 C11_2 1_555 1_555
C12_3 C5_3 1_555 1_555
O13_2 C12_3 1_555 1_555
O10_3 Th2 1_555 1_555
C7_3 O6_3 1_555 1_555
C10_3 O8_3 1_555 1_555
C11_2 C12_3 1_555 1_555
Cl4_3 C11_3 1_555 1_555
O9_2 C12_4 1_555 1_555
O9_2 Th3_2 1_555 1_555
Th3_2 O1_4 1_555 1_555
Cl1_4 C3_4 1_555 1_555
O1_4 C1_4 1_555 1_555
C1_4 C3_4 1_555 1_555
O5_4 Th3_2 1_555 1_555
C7_4 C1_4 1_555 1_555
O6_4 Th3_2 1_555 1_555
O8_4 Th3_2 1_555 1_555
C11_4 C10_4 1_555 1_555
Cl4_4 C11_4 1_555 1_555
C7_4 O6_4 1_555 1_555
C10_4 O8_4 1_555 1_555
O3_4 Th1_3 1_555 1_555
C4_4 O3_4 1_555 1_555
O10_4 Th1_3 1_555 1_555
O11_2 Th1_3 1_555 1_555
O12_2 Th1_3 1_555 1_555
O14_2 Th1_3 1_555 1_555
Cl2_3 C6_3 1_555 1_555
O14_2 C5_4 1_555 1_555
C5_4 C6_3 1_555 1_555
O12_2 C2_4 1_555 1_555
Cl3_4 C8_4 1_555 1_555
C9_4 C2_4 1_555 1_555
O11_2 C9_4 1_555 1_555
C8_4 C9_4 1_555 1_555
Cl2_4 C6_4 1_555 1_555

#END
