
###############################################################################
#
# This file contains modified crystal structure data generated from the
# MOF subset of the Cambridge Structural Database (CSD) v543 
# hosted by the Cambridge Crystallographic Data Centre (CCDC).
#
# This work is licensed under the Creative Commons
# Attribution-NonCommercial-ShareAlike 4.0 International License.
# To view a copy of this license, visit
# http://creativecommons.org/licenses/by-nc-sa/4.0/
# or send a letter to
# Creative Commons, PO Box 1866, Mountain View, CA 94042, USA.
#
# CIF created using the CSD Python API on 29 September 2022
# The structure has been converted into the P1 space group
# The structure has a 3D framework
# The original CSD entry MOCKEV is in the rhombohedral crystal system
# The framework has been calculated to contain at least 10.0% void space
# The void calculation uses a probe of radius 1.32A, grid spacing 0.4
#
###############################################################################

data_MOCKEV
_chemical_formula_moiety         '(C144 H90 Cu18 N18 O78)n'
_symmetry_cell_setting           triclinic
_symmetry_space_group_name_H-M   'P 1'
_symmetry_Int_Tables_number      1
_space_group_name_Hall           'P 1'
loop_
_symmetry_equiv_pos_site_id
_symmetry_equiv_pos_as_xyz
1 x,y,z
_cell_length_a                   18.799(15)
_cell_length_b                   18.799(15)
_cell_length_c                   30.61(4)
_cell_angle_alpha                90
_cell_angle_beta                 90
_cell_angle_gamma                120.00
_cell_volume                     9368.36
loop_
_atom_site_label
_atom_site_type_symbol
_atom_site_fract_x
_atom_site_fract_y
_atom_site_fract_z
Cu5 Cu 0.14420(10) 0.85577(10) 0.36969(5)
Cu6 Cu 0.18914(10) 0.81089(10) 0.29697(5)
Cu8 Cu 0.04491(14) 0.52247(10) 0.03636(5)
O8 O 0.0415(6) 0.8201(6) 0.3416(3)
C13 C 0.0225(10) 0.7856(7) 0.3046(6)
O16 O 0.0757(6) 0.7741(5) 0.2796(3)
Cu1 Cu 0.47753(10) 0.52244(10) 0.03636(5)
C1 C 0.7182(9) 0.5717(8) 0.0524(6)
C2 C 0.8516(10) 0.5674(8) 0.0542(6)
C3 C 0.7778(12) 0.5512(7) 0.0326(5)
H1 H 0.9002 0.8066 0.3285
O2 O 0.4504(11) 0.5506(11) 0.1004(6)
C4 C 0.7373(10) 0.6014(8) 0.0933(7)
H2 H 0.7000 0.6118 0.1085
C5 C 0.6442(10) 0.5477(7) 0.0287(6)
N1 N 0.827(5) 0.657(5) 0.1530(14)
C6 C 0.8697(12) 0.6061(9) 0.0948(6)
H3 H 0.9205 0.6238 0.1087
C7 C 0.8077(13) 0.6171(10) 0.1140(5)
O3 O 0.7804(6) 0.8187(6) 0.3419(3)
C8 C 0.7573(9) 0.7880(8) 0.3037(6)
O4 O 0.6998(5) 0.7786(5) 0.2782(3)
O5 O 0.5910(6) 0.5592(5) 0.0537(3)
H4 H 0.425(5) 0.575(5) 0.096(4)
H5 H 0.455(7) 0.550(7) 0.1263(10)
Cu3 Cu 0.71158(14) 0.85580(10) 0.36969(5)
Cu4 Cu 0.62176(14) 0.81086(10) 0.29697(5)
O6 O 0.3748(6) 0.4868(6) 0.0083(3)
O7 O 0.7787(8) 0.9585(6) 0.3416(3)
C9 C 0.9485(9) 0.7616(8) 0.2809(6)
C10 C 0.8151(10) 0.7659(8) 0.2791(6)
C11 C 0.8889(12) 0.7821(7) 0.3007(5)
H6 H 0.7665 0.5267 0.0048
O9 O 0.7669(16) 0.8829(11) 0.4337(6)
C12 C 0.9294(10) 0.7319(8) 0.2400(7)
H7 H 0.9667 0.7215 0.2248
N2 N 0.840(5) 0.676(5) 0.1803(14)
C14 C 0.7970(12) 0.7272(9) 0.2385(6)
H8 H 0.7462 0.7095 0.2246
C15 C 0.8590(13) 0.7162(10) 0.2193(5)
O10 O 0.5146(6) 0.6284(8) 0.0086(3)
C16 C 0.9094(9) 0.5453(8) 0.0296(6)
O12 O 0.4453(5) 0.4121(7) 0.0551(3)
O13 O 0.6335(5) 0.8881(5) 0.3885(3)
O14 O 0.9669(5) 0.5547(5) 0.0551(3)
O15 O 0.6349(8) 0.7423(6) 0.3870(3)
H9 H 0.817(7) 0.908(5) 0.429(4)
H10 H 0.762(10) 0.878(7) 0.4596(10)
O1 O 0.6252(6) 0.5132(6) 0.9917(3)
Cu2 Cu 0.52247(10) 0.47756(10) 0.96364(5)
Cu7 Cu 0.95509(14) 0.47753(10) 0.96364(5)
O11 O 0.8863(6) 0.5146(6) 0.9914(3)
C1_2 C 0.4283(8) 0.1465(12) 0.0524(6)
C2_2 C 0.4326(8) 0.2842(13) 0.0542(6)
C3_2 C 0.4488(7) 0.2266(14) 0.0326(5)
H1_2 H 0.1934 0.0936 0.3285
C4_2 C 0.3986(8) 0.1359(13) 0.0933(7)
H2_2 H 0.3882 0.0882 0.1085
C5_2 C 0.4523(7) 0.0965(12) 0.0287(6)
N1_2 N 0.343(5) 0.170(7) 0.1530(14)
C6_2 C 0.3939(9) 0.2636(15) 0.0948(6)
H3_2 H 0.3762 0.2967 0.1087
C7_2 C 0.3829(10) 0.1906(16) 0.1140(5)
O5_2 O 0.4408(5) 0.0318(8) 0.0537(3)
Cu5_2 Cu 0.14423(10) 0.28842(14) 0.36969(5)
Cu6_2 Cu 0.18911(10) 0.37824(14) 0.29697(5)
O8_2 O 0.1799(6) 0.2213(8) 0.3416(3)
C9_2 C 0.2384(8) 0.1868(12) 0.2809(6)
C10_2 C 0.2341(8) 0.0491(13) 0.2791(6)
C11_2 C 0.2179(7) 0.1067(14) 0.3007(5)
H6_2 H 0.4733 0.2397 0.0048
C12_2 C 0.2681(8) 0.1974(13) 0.2400(7)
H7_2 H 0.2785 0.2451 0.2248
C13_2 C 0.2144(7) 0.2368(12) 0.3046(6)
N2_2 N 0.324(5) 0.163(7) 0.1803(14)
C14_2 C 0.2728(9) 0.0697(15) 0.2385(6)
H8_2 H 0.2905 0.0366 0.2246
C15_2 C 0.2838(10) 0.1427(16) 0.2193(5)
C16_2 C 0.4547(8) 0.3640(12) 0.0296(6)
O12_2 O 0.5879(7) 0.0331(9) 0.0551(3)
O16_2 O 0.2259(5) 0.3015(8) 0.2796(3)
O1_2 O 0.4868(6) 0.1120(8) 0.9917(3)
Cu2_2 Cu 0.52244(10) 0.04491(14) 0.96364(5)
O11_2 O 0.4854(6) 0.3716(8) 0.9914(3)
Cu1_2 Cu 0.47756(10) 0.95509(14) 0.03636(5)
O2_2 O 0.4494(11) 0.8998(16) 0.1004(6)
O3_2 O 0.1813(6) 0.9617(8) 0.3419(3)
C8_2 C 0.2120(8) 0.9693(12) 0.3037(6)
O4_2 O 0.2214(5) 0.9212(7) 0.2782(3)
H4_2 H 0.425(5) 0.850(7) 0.096(4)
H5_2 H 0.450(7) 0.905(10) 0.1263(10)
O6_2 O 0.5132(6) 0.8880(8) 0.0083(3)
O9_2 O 0.1171(11) 0.8839(19) 0.4337(6)
O10_2 O 0.3716(8) 0.8863(10) 0.0086(3)
O13_2 O 0.1119(5) 0.7455(7) 0.3885(3)
O15_2 O 0.2577(6) 0.8925(10) 0.3870(3)
H9_2 H 0.092(5) 0.908(9) 0.429(4)
H10_2 H 0.122(7) 0.883(12) 0.4596(10)
O2_3 O 0.1002(16) 0.5496(11) 0.1004(6)
O3_3 O 0.0383(8) 0.2196(6) 0.3419(3)
C8_3 C 0.0307(12) 0.2427(9) 0.3037(6)
O4_3 O 0.0788(7) 0.3002(5) 0.2782(3)
H4_3 H 0.150(7) 0.575(5) 0.096(4)
H5_3 H 0.095(10) 0.545(7) 0.1263(10)
O6_3 O 0.1120(8) 0.6252(6) 0.0083(3)
O9_3 O 0.1161(19) 0.2331(16) 0.4337(6)
O10_3 O 0.1137(10) 0.4854(6) 0.0086(3)
O13_3 O 0.2545(7) 0.3665(5) 0.3885(3)
O15_3 O 0.1075(10) 0.3651(8) 0.3870(3)
H9_3 H 0.092(9) 0.183(7) 0.429(4)
H10_3 H 0.117(12) 0.238(10) 0.4596(10)
C1_3 C 0.8535(12) 0.2818(9) 0.0524(6)
C2_3 C 0.7158(13) 0.1484(10) 0.0542(6)
C3_3 C 0.7734(14) 0.2222(12) 0.0326(5)
H1_3 H 0.9064 0.0998 0.3285
C4_3 C 0.8641(13) 0.2627(10) 0.0933(7)
H2_3 H 0.9118 0.3000 0.1085
C5_3 C 0.9035(12) 0.3558(10) 0.0287(6)
N1_3 N 0.830(7) 0.173(5) 0.1530(14)
C6_3 C 0.7364(15) 0.1303(12) 0.0948(6)
H3_3 H 0.7033 0.0795 0.1087
C7_3 C 0.8094(16) 0.1923(13) 0.1140(5)
O5_3 O 0.9682(8) 0.4090(6) 0.0537(3)
C9_3 C 0.8132(12) 0.0515(9) 0.2809(6)
C10_3 C 0.9509(13) 0.1849(10) 0.2791(6)
C11_3 C 0.8933(14) 0.1111(12) 0.3007(5)
H6_3 H 0.7603 0.2335 0.0048
C12_3 C 0.8026(13) 0.0706(10) 0.2400(7)
H7_3 H 0.7549 0.0333 0.2248
N2_3 N 0.837(7) 0.160(5) 0.1803(14)
C14_3 C 0.9303(15) 0.2030(12) 0.2385(6)
H8_3 H 0.9634 0.2538 0.2246
C15_3 C 0.8573(16) 0.1410(13) 0.2193(5)
C16_3 C 0.6360(12) 0.0906(9) 0.0296(6)
O1_3 O 0.8880(8) 0.3748(6) 0.9917(3)
O11_3 O 0.6284(8) 0.1137(6) 0.9914(3)
C13_3 C 0.7632(12) 0.9775(10) 0.3046(6)
O16_3 O 0.6985(8) 0.9243(6) 0.2796(3)
H1_4 H 0.5669 0.1399 0.6618
O3_4 O 0.4471(6) 0.1520(6) 0.6752(3)
C8_4 C 0.4240(9) 0.1213(8) 0.6370(6)
O4_4 O 0.3665(5) 0.1119(5) 0.6115(3)
Cu3_2 Cu 0.37824(14) 0.18914(10) 0.70303(5)
Cu4_2 Cu 0.28842(14) 0.14420(10) 0.63031(5)
Cu5_3 Cu 0.81086(10) 0.18911(10) 0.70303(5)
Cu6_3 Cu 0.85580(10) 0.14423(10) 0.63031(5)
O7_2 O 0.4453(8) 0.2919(6) 0.6750(3)
O8_3 O 0.7081(6) 0.1535(6) 0.6750(3)
C9_4 C 0.6151(9) 0.0950(8) 0.6143(6)
C10_4 C 0.4817(10) 0.0993(8) 0.6125(6)
C11_4 C 0.5555(12) 0.1155(7) 0.6341(5)
O9_4 O 0.4335(16) 0.2163(11) 0.7671(6)
C12_4 C 0.5960(10) 0.0653(8) 0.5734(7)
H7_4 H 0.6333 0.0549 0.5582
C13_4 C 0.6891(10) 0.1190(7) 0.6380(6)
N2_4 N 0.506(5) 0.010(5) 0.5137(14)
C14_4 C 0.4636(12) 0.0606(9) 0.5719(6)
H8_4 H 0.4128 0.0429 0.5580
C15_4 C 0.5256(13) 0.0496(10) 0.5527(5)
O13_4 O 0.3002(5) 0.2214(5) 0.7218(3)
O15_4 O 0.3015(8) 0.0757(6) 0.7204(3)
O16_4 O 0.7423(6) 0.1075(5) 0.6130(3)
H9_4 H 0.483(7) 0.242(5) 0.763(4)
H10_4 H 0.428(10) 0.212(7) 0.7930(10)
O1_4 O 0.2919(6) 0.8465(6) 0.3250(3)
C1_4 C 0.3849(9) 0.9050(8) 0.3857(6)
C2_4 C 0.5183(10) 0.9007(8) 0.3875(6)
C3_4 C 0.4445(12) 0.8845(7) 0.3659(5)
C4_4 C 0.4040(10) 0.9347(8) 0.4266(7)
H2_4 H 0.3667 0.9451 0.4418
C5_4 C 0.3109(10) 0.8810(7) 0.3620(6)
N1_4 N 0.494(5) 0.990(5) 0.4863(14)
C6_4 C 0.5364(12) 0.9394(9) 0.4281(6)
H3_4 H 0.5872 0.9571 0.4420
C7_4 C 0.4744(13) 0.9504(10) 0.4473(5)
H6_4 H 0.4331 0.8601 0.3382
O11_4 O 0.5529(6) 0.8480(6) 0.3248(3)
C16_4 C 0.5760(9) 0.8787(8) 0.3630(6)
O1_5 O 0.1535(6) 0.4453(8) 0.3250(3)
C1_5 C 0.0950(8) 0.4798(12) 0.3857(6)
C2_5 C 0.0993(8) 0.6175(13) 0.3875(6)
C3_5 C 0.1155(7) 0.5599(14) 0.3659(5)
C4_5 C 0.0653(8) 0.4692(13) 0.4266(7)
H2_5 H 0.0549 0.4215 0.4418
C5_5 C 0.1190(7) 0.4298(12) 0.3620(6)
N1_5 N 0.010(5) 0.503(7) 0.4863(14)
C6_5 C 0.0606(9) 0.5969(15) 0.4281(6)
H3_5 H 0.0429 0.6300 0.4420
C7_5 C 0.0496(10) 0.5239(16) 0.4473(5)
H6_5 H 0.1399 0.5731 0.3382
O11_5 O 0.1520(6) 0.7050(8) 0.3248(3)
C16_5 C 0.1213(8) 0.6974(12) 0.3630(6)
H1_5 H 0.8601 0.4269 0.6618
O3_5 O 0.8480(6) 0.2950(8) 0.6752(3)
C8_5 C 0.8787(8) 0.3026(12) 0.6370(6)
O4_5 O 0.8881(5) 0.2545(7) 0.6115(3)
Cu5_4 Cu 0.81089(10) 0.62176(14) 0.70303(5)
Cu6_4 Cu 0.85577(10) 0.71158(14) 0.63031(5)
O8_4 O 0.8465(6) 0.5547(8) 0.6750(3)
C9_5 C 0.9050(8) 0.5202(12) 0.6143(6)
C10_5 C 0.9007(8) 0.3825(13) 0.6125(6)
C11_5 C 0.8845(7) 0.4401(14) 0.6341(5)
O9_5 O 0.7837(11) 0.2173(19) 0.7671(6)
C12_5 C 0.9347(8) 0.5308(13) 0.5734(7)
H7_5 H 0.9451 0.5785 0.5582
C13_5 C 0.8810(7) 0.5702(12) 0.6380(6)
N2_5 N 0.990(5) 0.497(7) 0.5137(14)
C14_5 C 0.9394(9) 0.4031(15) 0.5719(6)
H8_5 H 0.9571 0.3700 0.5580
C15_5 C 0.9504(10) 0.4761(16) 0.5527(5)
O13_5 O 0.7786(5) 0.0788(7) 0.7218(3)
O15_5 O 0.9243(6) 0.2259(10) 0.7204(3)
O16_5 O 0.8925(5) 0.6349(8) 0.6130(3)
H9_5 H 0.758(5) 0.242(9) 0.763(4)
H10_5 H 0.788(7) 0.217(12) 0.7930(10)
O1_6 O 0.5547(8) 0.7081(6) 0.3250(3)
C1_6 C 0.5202(12) 0.6151(9) 0.3857(6)
C2_6 C 0.3825(13) 0.4817(10) 0.3875(6)
C3_6 C 0.4401(14) 0.5555(12) 0.3659(5)
H1_6 H 0.5731 0.4331 0.6618
C4_6 C 0.5308(13) 0.5960(10) 0.4266(7)
H2_6 H 0.5785 0.6333 0.4418
C5_6 C 0.5702(12) 0.6891(10) 0.3620(6)
N1_6 N 0.497(7) 0.506(5) 0.4863(14)
C6_6 C 0.4031(15) 0.4636(12) 0.4281(6)
H3_6 H 0.3700 0.4128 0.4420
C7_6 C 0.4761(16) 0.5256(13) 0.4473(5)
O3_6 O 0.7050(8) 0.5529(6) 0.6752(3)
C8_6 C 0.6974(12) 0.5760(9) 0.6370(6)
O4_6 O 0.7455(7) 0.6335(5) 0.6115(3)
C9_6 C 0.4798(12) 0.3849(9) 0.6143(6)
C10_6 C 0.6175(13) 0.5183(10) 0.6125(6)
C11_6 C 0.5599(14) 0.4445(12) 0.6341(5)
H6_6 H 0.4269 0.5669 0.3382
O9_6 O 0.7827(19) 0.5665(16) 0.7671(6)
C12_6 C 0.4692(13) 0.4040(10) 0.5734(7)
H7_6 H 0.4215 0.3667 0.5582
C13_6 C 0.4298(12) 0.3109(10) 0.6380(6)
N2_6 N 0.503(7) 0.494(5) 0.5137(14)
C14_6 C 0.5969(15) 0.5364(12) 0.5719(6)
H8_6 H 0.6300 0.5872 0.5580
C15_6 C 0.5239(16) 0.4744(13) 0.5527(5)
O11_6 O 0.2950(8) 0.4471(6) 0.3248(3)
C16_6 C 0.3026(12) 0.4240(9) 0.3630(6)
O13_6 O 0.9212(7) 0.6998(5) 0.7218(3)
O15_6 O 0.7741(10) 0.6985(8) 0.7204(3)
O16_6 O 0.3651(8) 0.2577(6) 0.6130(3)
H9_6 H 0.758(9) 0.517(7) 0.763(4)
H10_6 H 0.783(12) 0.572(10) 0.7930(10)
C1_7 C 0.0515(9) 0.2384(8) 0.7191(6)
C2_7 C 0.1849(10) 0.2341(8) 0.7209(6)
C3_7 C 0.1111(12) 0.2179(7) 0.6993(5)
H1_7 H 0.2335 0.4733 0.9952
C4_7 C 0.0706(10) 0.2681(8) 0.7600(7)
H2_7 H 0.0333 0.2785 0.7752
N1_7 N 0.160(5) 0.324(5) 0.8197(14)
C6_7 C 0.2030(12) 0.2728(9) 0.7615(6)
H3_7 H 0.2538 0.2905 0.7754
C7_7 C 0.1410(13) 0.2838(10) 0.7807(5)
C8_7 C 0.0906(9) 0.4547(8) 0.9704(6)
O4_7 O 0.0331(5) 0.4453(5) 0.9449(3)
C9_7 C 0.2818(9) 0.4283(8) 0.9476(6)
C10_7 C 0.1484(10) 0.4326(8) 0.9458(6)
C11_7 C 0.2222(12) 0.4488(7) 0.9674(5)
H6_7 H 0.0998 0.1934 0.6715
C12_7 C 0.2627(10) 0.3986(8) 0.9067(7)
H7_7 H 0.3000 0.3882 0.8915
C13_7 C 0.3558(10) 0.4523(7) 0.9713(6)
N2_7 N 0.173(5) 0.343(5) 0.8470(14)
C14_7 C 0.1303(12) 0.3939(9) 0.9052(6)
H8_7 H 0.0795 0.3762 0.8913
C15_7 C 0.1923(13) 0.3829(10) 0.8860(5)
O11_7 O 0.2196(6) 0.1813(6) 0.6581(3)
C16_7 C 0.2427(9) 0.2120(8) 0.6963(6)
O16_7 O 0.4090(6) 0.4408(5) 0.9463(3)
O1_7 O 0.9585(6) 0.1799(6) 0.6584(3)
C5_7 C 0.9775(10) 0.2144(7) 0.6954(6)
O11_8 O 0.8187(6) 0.0383(8) 0.6581(3)
C16_8 C 0.7880(8) 0.0307(12) 0.6963(6)
O1_8 O 0.8201(6) 0.7787(8) 0.6584(3)
C1_8 C 0.7616(8) 0.8132(12) 0.7191(6)
C2_8 C 0.7659(8) 0.9509(13) 0.7209(6)
C3_8 C 0.7821(7) 0.8933(14) 0.6993(5)
H1_8 H 0.5267 0.7603 0.9952
C4_8 C 0.7319(8) 0.8026(13) 0.7600(7)
H2_8 H 0.7215 0.7549 0.7752
C5_8 C 0.7856(7) 0.7632(12) 0.6954(6)
N1_8 N 0.676(5) 0.837(7) 0.8197(14)
C6_8 C 0.7272(9) 0.9303(15) 0.7615(6)
H3_8 H 0.7095 0.9634 0.7754
C7_8 C 0.7162(10) 0.8573(16) 0.7807(5)
C8_8 C 0.5453(8) 0.6360(12) 0.9704(6)
O4_8 O 0.5547(5) 0.5879(7) 0.9449(3)
C9_8 C 0.5717(8) 0.8535(12) 0.9476(6)
C10_8 C 0.5674(8) 0.7158(13) 0.9458(6)
C11_8 C 0.5512(7) 0.7734(14) 0.9674(5)
H6_8 H 0.8066 0.9064 0.6715
C12_8 C 0.6014(8) 0.8641(13) 0.9067(7)
H7_8 H 0.6118 0.9118 0.8915
C13_8 C 0.5477(7) 0.9035(12) 0.9713(6)
N2_8 N 0.657(5) 0.830(7) 0.8470(14)
C14_8 C 0.6061(9) 0.7364(15) 0.9052(6)
H8_8 H 0.6238 0.7033 0.8913
C15_8 C 0.6171(10) 0.8094(16) 0.8860(5)
O16_8 O 0.5592(5) 0.9682(8) 0.9463(3)
O1_9 O 0.2213(8) 0.0415(6) 0.6584(3)
C5_9 C 0.2368(12) 0.0225(10) 0.6954(6)
C1_9 C 0.1868(12) 0.9485(9) 0.7191(6)
C2_9 C 0.0491(13) 0.8151(10) 0.7209(6)
C3_9 C 0.1067(14) 0.8889(12) 0.6993(5)
H1_9 H 0.2397 0.7665 0.9952
C4_9 C 0.1974(13) 0.9294(10) 0.7600(7)
H2_9 H 0.2451 0.9667 0.7752
N1_9 N 0.163(7) 0.840(5) 0.8197(14)
C6_9 C 0.0697(15) 0.7970(12) 0.7615(6)
H3_9 H 0.0366 0.7462 0.7754
C7_9 C 0.1427(16) 0.8590(13) 0.7807(5)
C8_9 C 0.3640(12) 0.9094(9) 0.9704(6)
O4_9 O 0.4121(7) 0.9669(5) 0.9449(3)
C9_9 C 0.1465(12) 0.7182(9) 0.9476(6)
C10_9 C 0.2842(13) 0.8516(10) 0.9458(6)
C11_9 C 0.2266(14) 0.7778(12) 0.9674(5)
H6_9 H 0.0936 0.9002 0.6715
C12_9 C 0.1359(13) 0.7373(10) 0.9067(7)
H7_9 H 0.0882 0.7000 0.8915
C13_9 C 0.0965(12) 0.6442(10) 0.9713(6)
N2_9 N 0.170(7) 0.827(5) 0.8470(14)
C14_9 C 0.2636(15) 0.8697(12) 0.9052(6)
H8_9 H 0.2967 0.9205 0.8913
C15_9 C 0.1906(16) 0.8077(13) 0.8860(5)
O16_9 O 0.0318(8) 0.5910(6) 0.9463(3)
O11_9 O 0.9617(8) 0.7804(6) 0.6581(3)
C16_9 C 0.9693(12) 0.7573(9) 0.6963(6)
O2_4 O 0.5496(11) 0.4494(11) 0.8996(6)
H4_4 H 0.575(5) 0.425(5) 0.904(4)
H5_4 H 0.545(7) 0.450(7) 0.8737(10)
O9_7 O 0.2331(16) 0.1171(11) 0.5663(6)
H9_7 H 0.183(7) 0.092(5) 0.571(4)
H10_7 H 0.238(10) 0.122(7) 0.5404(10)
O2_5 O 0.5506(11) 0.1002(16) 0.8996(6)
H4_5 H 0.575(5) 0.150(7) 0.904(4)
H5_5 H 0.550(7) 0.095(10) 0.8737(10)
O9_8 O 0.8829(11) 0.1161(19) 0.5663(6)
H9_8 H 0.908(5) 0.092(9) 0.571(4)
H10_8 H 0.878(7) 0.117(12) 0.5404(10)
O2_6 O 0.8998(16) 0.4504(11) 0.8996(6)
H4_6 H 0.850(7) 0.425(5) 0.904(4)
H5_6 H 0.905(10) 0.455(7) 0.8737(10)
O9_9 O 0.8839(19) 0.7669(16) 0.5663(6)
H9_9 H 0.908(9) 0.817(7) 0.571(4)
H10_9 H 0.883(12) 0.762(10) 0.5404(10)
O9_10 O 0.5665(16) 0.7837(11) 0.2329(6)
H9_10 H 0.517(7) 0.758(5) 0.237(4)
H10_10 H 0.572(10) 0.788(7) 0.2070(10)
O9_11 O 0.2163(11) 0.7827(19) 0.2329(6)
H9_11 H 0.242(5) 0.758(9) 0.237(4)
H10_11 H 0.212(7) 0.783(12) 0.2070(10)
O9_12 O 0.2173(19) 0.4335(16) 0.2329(6)
H9_12 H 0.242(9) 0.483(7) 0.237(4)
H10_12 H 0.217(12) 0.428(10) 0.2070(10)
loop_
_geom_bond_atom_site_label_1
_geom_bond_atom_site_label_2
_geom_bond_site_symmetry_1
_geom_bond_site_symmetry_2
Cu5 Cu6 1_555 1_555
Cu6 O16 1_555 1_555
O8 Cu5 1_555 1_555
C13 O8 1_555 1_555
O16 C13 1_555 1_555
Cu1 O2 1_555 1_555
C1 C3 1_555 1_555
C2 C3 1_555 1_555
C3 H6 1_555 1_555
H1 C11 1_555 1_555
O2 H4 1_555 1_555
C4 C1 1_555 1_555
H2 C4 1_555 1_555
C5 C1 1_555 1_555
N1 C7 1_555 1_555
C6 C2 1_555 1_555
H3 C6 1_555 1_555
C7 C4 1_555 1_555
O3 C8 1_555 1_555
C8 O4 1_555 1_555
O4 Cu4 1_555 1_555
O5 Cu1 1_555 1_555
H5 O2 1_555 1_555
Cu3 O3 1_555 1_555
Cu4 Cu3 1_555 1_555
O6 Cu1 1_555 1_555
O7 Cu3 1_555 1_555
C9 C11 1_555 1_555
C10 C8 1_555 1_555
C11 C10 1_555 1_555
O9 Cu3 1_555 1_555
C12 C9 1_555 1_555
H7 C12 1_555 1_555
N2 N1 1_555 1_555
C14 C10 1_555 1_555
H8 C14 1_555 1_555
C15 C12 1_555 1_555
O10 Cu1 1_555 1_555
C16 C2 1_555 1_555
O12 Cu1 1_555 1_555
O13 Cu3 1_555 1_555
O14 C16 1_555 1_555
O15 Cu3 1_555 1_555
H9 O9 1_555 1_555
H10 O9 1_555 1_555
C5 O5 1_555 1_555
C6 C7 1_555 1_555
N2 C15 1_555 1_555
C14 C15 1_555 1_555
O11 Cu7 1_555 1_555
O1 Cu2 1_555 1_555
C1_2 C3_2 1_555 1_555
C2_2 C3_2 1_555 1_555
C3_2 H6_2 1_555 1_555
H1_2 C11_2 1_555 1_555
C4_2 C1_2 1_555 1_555
H2_2 C4_2 1_555 1_555
C5_2 C1_2 1_555 1_555
N1_2 C7_2 1_555 1_555
C6_2 C2_2 1_555 1_555
H3_2 C6_2 1_555 1_555
C7_2 C4_2 1_555 1_555
Cu5_2 Cu6_2 1_555 1_555
Cu6_2 O16_2 1_555 1_555
O8_2 Cu5_2 1_555 1_555
C9_2 C11_2 1_555 1_555
C11_2 C10_2 1_555 1_555
C12_2 C9_2 1_555 1_555
H7_2 C12_2 1_555 1_555
C13_2 O8_2 1_555 1_555
N2_2 N1_2 1_555 1_555
C14_2 C10_2 1_555 1_555
H8_2 C14_2 1_555 1_555
C15_2 C12_2 1_555 1_555
C16_2 C2_2 1_555 1_555
O12 C16_2 1_555 1_555
O16_2 C13_2 1_555 1_555
C5_2 O5_2 1_555 1_555
C6_2 C7_2 1_555 1_555
C9_2 C13_2 1_555 1_555
N2_2 C15_2 1_555 1_555
C14_2 C15_2 1_555 1_555
O11_2 Cu2 1_555 1_555
O1_2 Cu2_2 1_555 1_555
Cu1_2 O2_2 1_555 1_555
O2_2 H4_2 1_555 1_555
O3_2 C8_2 1_555 1_555
C8_2 O4_2 1_555 1_555
O4_2 Cu6 1_555 1_555
H5_2 O2_2 1_555 1_555
Cu5 O3_2 1_555 1_555
O6_2 Cu1_2 1_555 1_555
O9_2 Cu5 1_555 1_555
O10_2 Cu1_2 1_555 1_555
O13_2 Cu5 1_555 1_555
O15_2 Cu5 1_555 1_555
H9_2 O9_2 1_555 1_555
H10_2 O9_2 1_555 1_555
Cu8 O2_3 1_555 1_555
O2_3 H4_3 1_555 1_555
O3_3 C8_3 1_555 1_555
C8_3 O4_3 1_555 1_555
O4_3 Cu6_2 1_555 1_555
H5_3 O2_3 1_555 1_555
Cu5_2 O3_3 1_555 1_555
O6_3 Cu8 1_555 1_555
O9_3 Cu5_2 1_555 1_555
O10_3 Cu8 1_555 1_555
O13_3 Cu5_2 1_555 1_555
O15_3 Cu5_2 1_555 1_555
H9_3 O9_3 1_555 1_555
H10_3 O9_3 1_555 1_555
C1_3 C3_3 1_555 1_555
C2_3 C3_3 1_555 1_555
C3_3 H6_3 1_555 1_555
H1_3 C11_3 1_555 1_555
C4_3 C1_3 1_555 1_555
H2_3 C4_3 1_555 1_555
C5_3 C1_3 1_555 1_555
N1_3 C7_3 1_555 1_555
C6_3 C2_3 1_555 1_555
H3_3 C6_3 1_555 1_555
C7_3 C4_3 1_555 1_555
C9_3 C11_3 1_555 1_555
C11_3 C10_3 1_555 1_555
C12_3 C9_3 1_555 1_555
H7_3 C12_3 1_555 1_555
N2_3 N1_3 1_555 1_555
C14_3 C10_3 1_555 1_555
H8_3 C14_3 1_555 1_555
C15_3 C12_3 1_555 1_555
C16_3 C2_3 1_555 1_555
O12_2 C16_3 1_555 1_555
C5_3 O5_3 1_555 1_555
C6_3 C7_3 1_555 1_555
N2_3 C15_3 1_555 1_555
C14_3 C15_3 1_555 1_555
O11_3 Cu2_2 1_555 1_555
O1_3 Cu7 1_555 1_555
Cu4 O16_3 1_555 1_555
C13_3 O7 1_555 1_555
O16_3 C13_3 1_555 1_555
H1_4 C11_4 1_555 1_555
O3_4 C8_4 1_555 1_555
C8_4 O4_4 1_555 1_555
O4_4 Cu4_2 1_555 1_555
Cu3_2 O3_4 1_555 1_555
Cu4_2 Cu3_2 1_555 1_555
Cu5_3 Cu6_3 1_555 1_555
Cu6_3 O16_4 1_555 1_555
O7_2 Cu3_2 1_555 1_555
O8_3 Cu5_3 1_555 1_555
C9_4 C11_4 1_555 1_555
C10_4 C8_4 1_555 1_555
C11_4 C10_4 1_555 1_555
O9_4 Cu3_2 1_555 1_555
C12_4 C9_4 1_555 1_555
H7_4 C12_4 1_555 1_555
C13_4 O8_3 1_555 1_555
C14_4 C10_4 1_555 1_555
H8_4 C14_4 1_555 1_555
C15_4 C12_4 1_555 1_555
O13_4 Cu3_2 1_555 1_555
O15_4 Cu3_2 1_555 1_555
O16_4 C13_4 1_555 1_555
H9_4 O9_4 1_555 1_555
H10_4 O9_4 1_555 1_555
C9_4 C13_4 1_555 1_555
N2_4 C15_4 1_555 1_555
C14_4 C15_4 1_555 1_555
O1_4 C5_4 1_555 1_555
C1_4 C3_4 1_555 1_555
C2_4 C3_4 1_555 1_555
C3_4 H6_4 1_555 1_555
C4_4 C1_4 1_555 1_555
H2_4 C4_4 1_555 1_555
C5_4 C1_4 1_555 1_555
N1_4 C7_4 1_555 1_555
C6_4 C2_4 1_555 1_555
H3_4 C6_4 1_555 1_555
C7_4 C4_4 1_555 1_555
O11_4 Cu4 1_555 1_555
C16_4 C2_4 1_555 1_555
O13 C16_4 1_555 1_555
O1_4 Cu6 1_555 1_555
C5_4 O15_2 1_555 1_555
C6_4 C7_4 1_555 1_555
O11_4 C16_4 1_555 1_555
O1_5 C5_5 1_555 1_555
C1_5 C3_5 1_555 1_555
C2_5 C3_5 1_555 1_555
C3_5 H6_5 1_555 1_555
C4_5 C1_5 1_555 1_555
H2_5 C4_5 1_555 1_555
C5_5 C1_5 1_555 1_555
N1_5 C7_5 1_555 1_555
C6_5 C2_5 1_555 1_555
H3_5 C6_5 1_555 1_555
C7_5 C4_5 1_555 1_555
O11_5 Cu6 1_555 1_555
C16_5 C2_5 1_555 1_555
O13_2 C16_5 1_555 1_555
O1_5 Cu6_2 1_555 1_555
C5_5 O15_3 1_555 1_555
C6_5 C7_5 1_555 1_555
O11_5 C16_5 1_555 1_555
H1_5 C11_5 1_555 1_555
O3_5 C8_5 1_555 1_555
C8_5 O4_5 1_555 1_555
O4_5 Cu6_3 1_555 1_555
Cu5_3 O3_5 1_555 1_555
Cu5_4 Cu6_4 1_555 1_555
Cu6_4 O16_5 1_555 1_555
O8_4 Cu5_4 1_555 1_555
C9_5 C11_5 1_555 1_555
C10_5 C8_5 1_555 1_555
C11_5 C10_5 1_555 1_555
O9_5 Cu5_3 1_555 1_555
C12_5 C9_5 1_555 1_555
H7_5 C12_5 1_555 1_555
C13_5 O8_4 1_555 1_555
C14_5 C10_5 1_555 1_555
H8_5 C14_5 1_555 1_555
C15_5 C12_5 1_555 1_555
O13_5 Cu5_3 1_555 1_555
O15_5 Cu5_3 1_555 1_555
O16_5 C13_5 1_555 1_555
H9_5 O9_5 1_555 1_555
H10_5 O9_5 1_555 1_555
C9_5 C13_5 1_555 1_555
N2_5 C15_5 1_555 1_555
C14_5 C15_5 1_555 1_555
O1_6 C5_6 1_555 1_555
C1_6 C3_6 1_555 1_555
C2_6 C3_6 1_555 1_555
C3_6 H6_6 1_555 1_555
H1_6 C11_6 1_555 1_555
C4_6 C1_6 1_555 1_555
H2_6 C4_6 1_555 1_555
C5_6 C1_6 1_555 1_555
N1_6 C7_6 1_555 1_555
C6_6 C2_6 1_555 1_555
H3_6 C6_6 1_555 1_555
C7_6 C4_6 1_555 1_555
O3_6 C8_6 1_555 1_555
C8_6 O4_6 1_555 1_555
O4_6 Cu6_4 1_555 1_555
Cu5_4 O3_6 1_555 1_555
Cu4_2 O16_6 1_555 1_555
C9_6 C11_6 1_555 1_555
C10_6 C8_6 1_555 1_555
C11_6 C10_6 1_555 1_555
O9_6 Cu5_4 1_555 1_555
C12_6 C9_6 1_555 1_555
H7_6 C12_6 1_555 1_555
C13_6 O7_2 1_555 1_555
N2_6 N1_6 1_555 1_555
C14_6 C10_6 1_555 1_555
H8_6 C14_6 1_555 1_555
C15_6 C12_6 1_555 1_555
O11_6 Cu6_2 1_555 1_555
C16_6 C2_6 1_555 1_555
O13_6 Cu5_4 1_555 1_555
O13_3 C16_6 1_555 1_555
O15_6 Cu5_4 1_555 1_555
O16_6 C13_6 1_555 1_555
H9_6 O9_6 1_555 1_555
H10_6 O9_6 1_555 1_555
O1_6 Cu4 1_555 1_555
C5_6 O15 1_555 1_555
C6_6 C7_6 1_555 1_555
C9_6 C13_6 1_555 1_555
N2_6 C15_6 1_555 1_555
C14_6 C15_6 1_555 1_555
O11_6 C16_6 1_555 1_555
C1_7 C3_7 1_555 1_555
C2_7 C3_7 1_555 1_555
C3_7 H6_7 1_555 1_555
H1_7 C11_7 1_555 1_555
C4_7 C1_7 1_555 1_555
H2_7 C4_7 1_555 1_555
N1_7 C7_7 1_555 1_555
C6_7 C2_7 1_555 1_555
H3_7 C6_7 1_555 1_555
C7_7 C4_7 1_555 1_555
C8_7 O4_7 1_555 1_555
Cu2 O16_7 1_555 1_555
C9_7 C11_7 1_555 1_555
C10_7 C8_7 1_555 1_555
C11_7 C10_7 1_555 1_555
C12_7 C9_7 1_555 1_555
H7_7 C12_7 1_555 1_555
N2_7 N1_7 1_555 1_555
C14_7 C10_7 1_555 1_555
H8_7 C14_7 1_555 1_555
C15_7 C12_7 1_555 1_555
O11_7 Cu4_2 1_555 1_555
C16_7 C2_7 1_555 1_555
O13_4 C16_7 1_555 1_555
O16_7 C13_7 1_555 1_555
C6_7 C7_7 1_555 1_555
C9_7 C13_7 1_555 1_555
N2_7 C15_7 1_555 1_555
C14_7 C15_7 1_555 1_555
O11_7 C16_7 1_555 1_555
O1_7 C5_7 1_555 1_555
O1_7 Cu6_3 1_555 1_555
C5_7 O15_5 1_555 1_555
O11_8 Cu6_3 1_555 1_555
O13_5 C16_8 1_555 1_555
O11_8 C16_8 1_555 1_555
O1_8 C5_8 1_555 1_555
C1_8 C3_8 1_555 1_555
C2_8 C3_8 1_555 1_555
C3_8 H6_8 1_555 1_555
H1_8 C11_8 1_555 1_555
C4_8 C1_8 1_555 1_555
H2_8 C4_8 1_555 1_555
C5_8 C1_8 1_555 1_555
N1_8 C7_8 1_555 1_555
C6_8 C2_8 1_555 1_555
H3_8 C6_8 1_555 1_555
C7_8 C4_8 1_555 1_555
C8_8 O4_8 1_555 1_555
O4_8 Cu2 1_555 1_555
C9_8 C11_8 1_555 1_555
C10_8 C8_8 1_555 1_555
C11_8 C10_8 1_555 1_555
C12_8 C9_8 1_555 1_555
H7_8 C12_8 1_555 1_555
N2_8 N1_8 1_555 1_555
C14_8 C10_8 1_555 1_555
H8_8 C14_8 1_555 1_555
C15_8 C12_8 1_555 1_555
O16_8 C13_8 1_555 1_555
O1_8 Cu6_4 1_555 1_555
C5_8 O15_6 1_555 1_555
C6_8 C7_8 1_555 1_555
C9_8 C13_8 1_555 1_555
N2_8 C15_8 1_555 1_555
C14_8 C15_8 1_555 1_555
O1_9 C5_9 1_555 1_555
O1_9 Cu4_2 1_555 1_555
C5_9 O15_4 1_555 1_555
C1_9 C3_9 1_555 1_555
C2_9 C3_9 1_555 1_555
C3_9 H6_9 1_555 1_555
H1_9 C11_9 1_555 1_555
C4_9 C1_9 1_555 1_555
H2_9 C4_9 1_555 1_555
N1_9 C7_9 1_555 1_555
C6_9 C2_9 1_555 1_555
H3_9 C6_9 1_555 1_555
C7_9 C4_9 1_555 1_555
C8_9 O4_9 1_555 1_555
C9_9 C11_9 1_555 1_555
C10_9 C8_9 1_555 1_555
C11_9 C10_9 1_555 1_555
C12_9 C9_9 1_555 1_555
H7_9 C12_9 1_555 1_555
N2_9 N1_9 1_555 1_555
C14_9 C10_9 1_555 1_555
H8_9 C14_9 1_555 1_555
C15_9 C12_9 1_555 1_555
O16_9 C13_9 1_555 1_555
C6_9 C7_9 1_555 1_555
C9_9 C13_9 1_555 1_555
N2_9 C15_9 1_555 1_555
C14_9 C15_9 1_555 1_555
O11_9 Cu6_4 1_555 1_555
O13_6 C16_9 1_555 1_555
O11_9 C16_9 1_555 1_555
Cu2 O2_4 1_555 1_555
O2_4 H4_4 1_555 1_555
H5_4 O2_4 1_555 1_555
O9_7 Cu4_2 1_555 1_555
H9_7 O9_7 1_555 1_555
H10_7 O9_7 1_555 1_555
Cu2_2 O2_5 1_555 1_555
O2_5 H4_5 1_555 1_555
H5_5 O2_5 1_555 1_555
O9_8 Cu6_3 1_555 1_555
H9_8 O9_8 1_555 1_555
H10_8 O9_8 1_555 1_555
Cu7 O2_6 1_555 1_555
O2_6 H4_6 1_555 1_555
H5_6 O2_6 1_555 1_555
O9_9 Cu6_4 1_555 1_555
H9_9 O9_9 1_555 1_555
H10_9 O9_9 1_555 1_555
O9_10 Cu4 1_555 1_555
H9_10 O9_10 1_555 1_555
H10_10 O9_10 1_555 1_555
O9_11 Cu6 1_555 1_555
H9_11 O9_11 1_555 1_555
H10_11 O9_11 1_555 1_555
O9_12 Cu6_2 1_555 1_555
H9_12 O9_12 1_555 1_555
H10_12 O9_12 1_555 1_555

#END
