
###############################################################################
#
# This file contains modified crystal structure data generated from the
# MOF subset of the Cambridge Structural Database (CSD) v543 
# hosted by the Cambridge Crystallographic Data Centre (CCDC).
#
# This work is licensed under the Creative Commons
# Attribution-NonCommercial-ShareAlike 4.0 International License.
# To view a copy of this license, visit
# http://creativecommons.org/licenses/by-nc-sa/4.0/
# or send a letter to
# Creative Commons, PO Box 1866, Mountain View, CA 94042, USA.
#
# CIF created using the CSD Python API on 29 September 2022
# The structure has been converted into the P1 space group
# The structure has a 3D framework
# The original CSD entry MOCKOH is in the monoclinic crystal system
# The framework has been calculated to contain at least 10.0% void space
# The void calculation uses a probe of radius 1.32A, grid spacing 0.4
#
###############################################################################

data_MOCKOH
_chemical_formula_moiety         '(C128 H124 Br4 F24 N12 O52 S8 Sm4)n'
_symmetry_cell_setting           triclinic
_symmetry_space_group_name_H-M   'P 1'
_symmetry_Int_Tables_number      1
_space_group_name_Hall           'P 1'
loop_
_symmetry_equiv_pos_site_id
_symmetry_equiv_pos_as_xyz
1 x,y,z
_cell_length_a                   18.7334(4)
_cell_length_b                   25.6590(5)
_cell_length_c                   9.82867(19)
_cell_angle_alpha                90
_cell_angle_beta                 102.696(2)
_cell_angle_gamma                90
_cell_volume                     4608.93
loop_
_atom_site_label
_atom_site_type_symbol
_atom_site_fract_x
_atom_site_fract_y
_atom_site_fract_z
Br1 Br 0.59780(6) 0.84615(5) 0.55970(11)
Br1_2 Br 0.40220(6) 0.34615(5) 0.94030(11)
Br1_3 Br 0.40220(6) 0.15385(5) 0.44030(11)
Br1_4 Br 0.59780(6) 0.65385(5) 0.05970(11)
S1 S 0.8106(6) 0.4883(3) 0.0022(11)
F1 F 0.8419(5) 0.5860(4) 0.0469(10)
O2 O 0.8318(4) 0.4818(4) 0.1517(7)
F2 F 0.7299(5) 0.5650(3) 0.0395(11)
O1 O 0.8726(4) 0.4832(4) 0.9347(8)
F3 F 0.7659(5) 0.5686(4) 0.8517(10)
O3 O 0.7478(4) 0.4596(3) 0.9339(8)
C1 C 0.7860(7) 0.5543(5) 0.9796(15)
F1_2 F 0.1581(5) 0.0860(4) 0.4531(10)
F2_2 F 0.2701(5) 0.0650(3) 0.4605(11)
F3_2 F 0.2341(5) 0.0686(4) 0.6483(10)
C1_2 C 0.2140(7) 0.0543(5) 0.5204(15)
S1_2 S 0.1894(6) 0.9883(3) 0.4978(11)
O1_2 O 0.1274(4) 0.9832(4) 0.5653(8)
O2_2 O 0.1682(4) 0.9818(4) 0.3483(7)
O3_2 O 0.2522(4) 0.9596(3) 0.5661(8)
O1_3 O 0.1274(4) 0.5168(4) 0.0653(8)
F3_3 F 0.2341(5) 0.4314(4) 0.1483(10)
O3_3 O 0.2522(4) 0.5404(3) 0.0661(8)
C1_3 C 0.2140(7) 0.4457(5) 0.0204(15)
S1_3 S 0.1894(6) 0.5117(3) 0.9978(11)
F1_3 F 0.1581(5) 0.4140(4) 0.9531(10)
O2_3 O 0.1682(4) 0.5182(4) 0.8483(7)
F2_3 F 0.2701(5) 0.4350(3) 0.9605(11)
S1_4 S 0.8106(6) 0.0117(3) 0.5022(11)
O1_4 O 0.8726(4) 0.0168(4) 0.4347(8)
O2_4 O 0.8318(4) 0.0182(4) 0.6517(7)
O3_4 O 0.7478(4) 0.0404(3) 0.4339(8)
F1_4 F 0.8419(5) 0.9140(4) 0.5469(10)
F2_4 F 0.7299(5) 0.9350(3) 0.5395(11)
F3_4 F 0.7659(5) 0.9314(4) 0.3517(10)
C1_4 C 0.7860(7) 0.9457(5) 0.4796(15)
F4 F 0.0393(2) 0.73160(17) 0.2613(5)
O4 O 0.0003(3) 0.6217(2) 0.2399(5)
F5 F 0.0583(4) 0.7322(2) 0.4816(5)
O5 O 0.0275(4) 0.6177(2) 0.4886(5)
F6 F 0.1270(2) 0.6868(2) 0.3772(6)
C2 C 0.0588(4) 0.7019(3) 0.3731(7)
S2 S 0.99672(9) 0.64685(6) 0.36701(16)
O6 O 0.9273(4) 0.6708(3) 0.3619(9)
S2_2 S 0.00328(9) 0.14685(6) 0.13299(16)
O6_2 O 0.0727(4) 0.1708(3) 0.1381(9)
F4_2 F 0.9607(2) 0.23160(17) 0.2387(5)
O4_2 O 0.9997(3) 0.1217(2) 0.2601(5)
F5_2 F 0.9417(4) 0.2322(2) 0.0184(5)
O5_2 O 0.9725(4) 0.1177(2) 0.0114(5)
F6_2 F 0.8730(2) 0.1868(2) 0.1228(6)
C2_2 C 0.9412(4) 0.2019(3) 0.1269(7)
S2_3 S 0.00328(9) 0.35315(6) 0.63299(16)
O6_3 O 0.0727(4) 0.3292(3) 0.6381(9)
F4_3 F 0.9607(2) 0.26840(17) 0.7387(5)
O4_3 O 0.9997(3) 0.3783(2) 0.7601(5)
F5_3 F 0.9417(4) 0.2678(2) 0.5184(5)
O5_3 O 0.9725(4) 0.3823(2) 0.5114(5)
F6_3 F 0.8730(2) 0.3132(2) 0.6228(6)
C2_3 C 0.9412(4) 0.2981(3) 0.6269(7)
F4_4 F 0.0393(2) 0.76840(17) 0.7613(5)
O4_4 O 0.0003(3) 0.8783(2) 0.7399(5)
F5_4 F 0.0583(4) 0.7678(2) 0.9816(5)
O5_4 O 0.0275(4) 0.8823(2) 0.9886(5)
F6_4 F 0.1270(2) 0.8132(2) 0.8772(6)
C2_4 C 0.0588(4) 0.7981(3) 0.8731(7)
S2_4 S 0.99672(9) 0.85315(6) 0.86701(16)
O6_4 O 0.9273(4) 0.8292(3) 0.8619(9)
C9 C 0.1708(3) 0.6663(2) 0.0444(5)
H3 H 0.202234 0.674992 0.131155
C18 C 0.1054(3) 0.6414(2) 0.0408(6)
H11 H 0.092305 0.631985 0.125614
O11 O 0.3022(2) 0.7147(2) 0.0389(4)
Sm2 Sm 0.38297(2) 0.75021(2) 0.23512(3)
C6 C 0.1906(3) 0.6787(2) 0.9207(5)
N2 N 0.0600(2) 0.63032(19) 0.9191(5)
H4 H 0.003447 0.566119 0.961378
C17 C 0.0771(3) 0.6426(2) 0.7975(5)
H10 H 0.044080 0.634434 0.712208
H21 H 0.036612 0.518235 0.786431
C27 C 0.1424(3) 0.6671(2) 0.7955(5)
H24 H 0.154263 0.676004 0.709308
O12 O 0.2799(2) 0.71157(18) 0.8078(4)
C32 C 0.2638(3) 0.7043(2) 0.9234(6)
Sm6 Sm 0.38297(2) 0.74979(2) 0.73512(3)
O7 O 0.49647(19) 0.72519(16) 0.6752(4)
O8 O 0.4661(2) 0.73421(17) 0.4452(4)
C3 C 0.5102(3) 0.7232(2) 0.5560(5)
N1 N 0.7285(2) 0.68686(18) 0.5353(5)
C4 C 0.8395(3) 0.5886(2) 0.5282(6)
C5 C 0.6109(3) 0.7160(3) 0.4267(6)
H1 H 0.578036 0.729133 0.346337
C7 C 0.6341(3) 0.6855(2) 0.6602(6)
H2 H 0.617737 0.677619 0.742747
C8 C 0.8457(3) 0.6355(2) 0.6021(6)
C10 C 0.9906(3) 0.6015(3) 0.9240(7)
H5 H 0.965830 0.619760 0.989524
C11 C 0.9382(3) 0.5968(2) 0.7863(6)
C12 C 0.7876(3) 0.5841(2) 0.3894(6)
H6 H 0.746283 0.607807 0.386000
H7 H 0.769648 0.548195 0.375643
H8 H 0.813032 0.593329 0.315580
C13 C 0.8932(3) 0.6396(2) 0.7348(6)
C14 C 0.7051(3) 0.6755(2) 0.6535(6)
H9 H 0.737940 0.660612 0.731379
C15 C 0.8853(3) 0.5466(2) 0.5816(6)
C16 C 0.5866(3) 0.7068(2) 0.5478(5)
C19 C 0.7468(4) 0.3917(3) 0.4085(7)
H12 H 0.724979 0.371606 0.329074
C20 C 0.6822(3) 0.7061(3) 0.4224(6)
H13 H 0.698859 0.712861 0.339577
C21 C 0.8086(4) 0.4518(2) 0.6328(7)
H14 H 0.829716 0.473137 0.710226
C22 C 0.8967(4) 0.6887(3) 0.8206(8)
H15 H 0.859401 0.713298 0.773165
H16 H 0.945256 0.704553 0.831632
H17 H 0.887742 0.680170 0.912531
N3 N 0.8250(3) 0.46026(19) 0.5091(6)
C23 C 0.7304(3) 0.3815(2) 0.5361(6)
C24 C 0.8830(3) 0.4986(3) 0.4925(8)
H18 H 0.874304 0.509325 0.393482
H19 H 0.931254 0.481194 0.516581
C25 C 0.7948(4) 0.4312(3) 0.3967(8)
H20 H 0.806750 0.438061 0.309258
C26 C 0.9859(4) 0.5058(3) 0.7640(10)
H22 H 0.980705 0.478492 0.692725
H23 H 0.973316 0.491542 0.848255
C28 C 0.7609(3) 0.4121(2) 0.6492(7)
H25 H 0.749448 0.406041 0.737285
C29 C 0.9352(3) 0.5506(2) 0.7095(7)
C30 C 0.8072(3) 0.6825(2) 0.5324(7)
H26 H 0.832782 0.713885 0.577351
H27 H 0.811613 0.682562 0.433815
O9 O 0.6770(2) 0.32165(16) 0.6670(4)
O10 O 0.6488(2) 0.31681(19) 0.4342(4)
C31 C 0.6805(3) 0.3357(2) 0.5480(6)
O13 O 0.4255(3) 0.83536(18) 0.3475(5)
H28 H 0.429958 0.857554 0.285044
H29 H 0.468753 0.831933 0.397340
O14 O 0.4418(3) 0.66861(18) 0.1847(5)
H30 H 0.436088 0.644106 0.243494
H31 H 0.489335 0.672356 0.200416
Sm3 Sm 0.61703(2) 0.25021(2) 0.26488(3)
Sm4 Sm 0.61703(2) 0.24979(2) 0.76488(3)
O15 O 0.49647(19) 0.77481(16) 0.1752(4)
O16 O 0.3230(2) 0.67835(16) 0.3330(4)
O17 O 0.3512(2) 0.81681(19) 0.0658(4)
O19 O 0.2799(2) 0.78843(18) 0.3078(4)
O8_2 O 0.5339(2) 0.23421(17) 0.0548(4)
C5_2 C 0.3891(3) 0.2160(3) 0.0733(6)
H1_2 H 0.421964 0.229133 0.153663
C12_2 C 0.2124(3) 0.0841(2) 0.1106(6)
H6_2 H 0.253717 0.107807 0.114000
H7_2 H 0.230352 0.048195 0.124357
H8_2 H 0.186968 0.093329 0.184420
C20_2 C 0.3178(3) 0.2061(3) 0.0776(6)
H13_2 H 0.301141 0.212861 0.160423
H18_2 H 0.125696 0.009325 0.106518
H27_2 H 0.188387 0.182562 0.066185
O13_2 O 0.5745(3) 0.33536(18) 0.1525(5)
H28_2 H 0.570042 0.357554 0.214956
H29_2 H 0.531247 0.331933 0.102660
O14_2 O 0.5582(3) 0.16861(18) 0.3153(5)
H30_2 H 0.563912 0.144106 0.256506
H31_2 H 0.510665 0.172356 0.299584
O15_2 O 0.50353(19) 0.27481(16) 0.3248(4)
O16_2 O 0.6770(2) 0.17835(16) 0.1670(4)
O18 O 0.6978(2) 0.2147(2) 0.4611(4)
O19_2 O 0.7201(2) 0.28843(18) 0.1922(4)
O7_2 O 0.50353(19) 0.22519(16) 0.8248(4)
C3_2 C 0.4898(3) 0.2232(2) 0.9440(5)
N1_2 N 0.2715(2) 0.18686(18) 0.9647(5)
C4_2 C 0.1605(3) 0.0886(2) 0.9718(6)
C7_2 C 0.3659(3) 0.1855(2) 0.8398(6)
H2_2 H 0.382263 0.177619 0.757253
C8_2 C 0.1543(3) 0.1355(2) 0.8979(6)
C10_2 C 0.0094(3) 0.1015(3) 0.5760(7)
H5_2 H 0.034170 0.119760 0.510476
C11_2 C 0.0618(3) 0.0968(2) 0.7137(6)
C13_2 C 0.1068(3) 0.1396(2) 0.7652(6)
C14_2 C 0.2949(3) 0.1755(2) 0.8465(6)
H9_2 H 0.262060 0.160612 0.768621
C15_2 C 0.1147(3) 0.0466(2) 0.9184(6)
C16_2 C 0.4134(3) 0.2068(2) 0.9522(5)
C22_2 C 0.1033(4) 0.1887(3) 0.6794(8)
H15_2 H 0.140599 0.213298 0.726835
H16_2 H 0.054744 0.204553 0.668368
H17_2 H 0.112258 0.180170 0.587469
C26_2 C 0.0141(4) 0.0058(3) 0.7360(10)
C29_2 C 0.0648(3) 0.0506(2) 0.7905(7)
C30_2 C 0.1928(3) 0.1825(2) 0.9676(7)
H26_2 H 0.167218 0.213885 0.922649
C19_2 C 0.2532(4) 0.8917(3) 0.0915(7)
H12_2 H 0.275021 0.871606 0.170926
C24_2 C 0.1170(3) 0.9986(3) 0.0075(8)
C25_2 C 0.2052(4) 0.9312(3) 0.1033(8)
H20_2 H 0.193250 0.938061 0.190742
C21_2 C 0.1914(4) 0.9518(2) 0.8672(7)
H14_2 H 0.170284 0.973137 0.789774
N3_2 N 0.1750(3) 0.96026(19) 0.9909(6)
C23_2 C 0.2696(3) 0.8815(2) 0.9639(6)
H19_2 H 0.068746 0.981194 0.983419
H22_2 H 0.019295 0.978492 0.807275
H23_2 H 0.026684 0.991542 0.651745
C28_2 C 0.2391(3) 0.9121(2) 0.8508(7)
H25_2 H 0.250552 0.906041 0.762715
O9_2 O 0.3230(2) 0.82165(16) 0.8330(4)
C31_2 C 0.3195(3) 0.8357(2) 0.9520(6)
C6_2 C 0.8094(3) 0.1787(2) 0.5793(5)
N2_2 N 0.9400(2) 0.13032(19) 0.5809(5)
C9_2 C 0.8292(3) 0.1663(2) 0.4556(5)
H3_2 H 0.797766 0.174992 0.368845
H4_2 H 0.996553 0.066119 0.538622
C17_2 C 0.9229(3) 0.1426(2) 0.7025(5)
H10_2 H 0.955920 0.134434 0.787792
C18_2 C 0.8946(3) 0.1414(2) 0.4592(6)
H11_2 H 0.907695 0.131985 0.374386
H21_2 H 0.963388 0.018235 0.713569
C27_2 C 0.8576(3) 0.1671(2) 0.7045(5)
H24_2 H 0.845737 0.176004 0.790692
O12_2 O 0.7201(2) 0.21157(18) 0.6922(4)
C32_2 C 0.7362(3) 0.2043(2) 0.5766(6)
O8_3 O 0.5339(2) 0.26579(17) 0.5548(4)
C3_3 C 0.4898(3) 0.2768(2) 0.4440(5)
N1_3 N 0.2715(2) 0.31314(18) 0.4647(5)
C4_3 C 0.1605(3) 0.4114(2) 0.4718(6)
C5_3 C 0.3891(3) 0.2840(3) 0.5733(6)
H1_3 H 0.421964 0.270867 0.653663
C7_3 C 0.3659(3) 0.3145(2) 0.3398(6)
H2_3 H 0.382263 0.322381 0.257253
C8_3 C 0.1543(3) 0.3645(2) 0.3979(6)
C10_3 C 0.0094(3) 0.3985(3) 0.0760(7)
H5_3 H 0.034170 0.380240 0.010476
C11_3 C 0.0618(3) 0.4032(2) 0.2137(6)
C12_3 C 0.2124(3) 0.4159(2) 0.6106(6)
H6_3 H 0.253717 0.392193 0.614000
H7_3 H 0.230352 0.451805 0.624357
H8_3 H 0.186968 0.406671 0.684420
C13_3 C 0.1068(3) 0.3604(2) 0.2652(6)
C14_3 C 0.2949(3) 0.3245(2) 0.3465(6)
H9_3 H 0.262060 0.339388 0.268621
C15_3 C 0.1147(3) 0.4534(2) 0.4184(6)
C16_3 C 0.4134(3) 0.2932(2) 0.4522(5)
C19_3 C 0.2532(4) 0.6083(3) 0.5915(7)
H12_3 H 0.275021 0.628394 0.670926
C20_3 C 0.3178(3) 0.2939(3) 0.5776(6)
H13_3 H 0.301141 0.287139 0.660423
C21_3 C 0.1914(4) 0.5482(2) 0.3672(7)
H14_3 H 0.170284 0.526863 0.289774
C22_3 C 0.1033(4) 0.3113(3) 0.1794(8)
H15_3 H 0.140599 0.286702 0.226835
H16_3 H 0.054744 0.295447 0.168368
H17_3 H 0.112258 0.319830 0.087469
N3_3 N 0.1750(3) 0.53974(19) 0.4909(6)
C23_3 C 0.2696(3) 0.6185(2) 0.4639(6)
C24_3 C 0.1170(3) 0.5014(3) 0.5075(8)
H18_3 H 0.125696 0.490675 0.606518
H19_3 H 0.068746 0.518806 0.483419
C25_3 C 0.2052(4) 0.5688(3) 0.6033(8)
H20_3 H 0.193250 0.561939 0.690742
C26_3 C 0.0141(4) 0.4942(3) 0.2360(10)
H22_3 H 0.019295 0.521508 0.307275
H23_3 H 0.026684 0.508458 0.151745
C28_3 C 0.2391(3) 0.5879(2) 0.3508(7)
H25_3 H 0.250552 0.593959 0.262715
C29_3 C 0.0648(3) 0.4494(2) 0.2905(7)
C30_3 C 0.1928(3) 0.3175(2) 0.4676(7)
H26_3 H 0.167218 0.286115 0.422649
H27_3 H 0.188387 0.317438 0.566185
O10_2 O 0.3512(2) 0.68319(19) 0.5658(4)
C31_3 C 0.3195(3) 0.6643(2) 0.4520(6)
O13_3 O 0.5745(3) 0.16464(18) 0.6525(5)
H28_3 H 0.570042 0.142446 0.714956
H29_3 H 0.531247 0.168067 0.602660
O14_3 O 0.5582(3) 0.33139(18) 0.8153(5)
H30_3 H 0.563912 0.355894 0.756506
H31_3 H 0.510665 0.327644 0.799584
O17_2 O 0.6488(2) 0.18319(19) 0.9342(4)
O18_2 O 0.6978(2) 0.2853(2) 0.9611(4)
C6_3 C 0.8094(3) 0.3213(2) 0.0793(5)
N2_3 N 0.9400(2) 0.36968(19) 0.0809(5)
H4_3 H 0.996553 0.433881 0.038622
C17_3 C 0.9229(3) 0.3574(2) 0.2025(5)
H10_3 H 0.955920 0.365566 0.287792
H21_3 H 0.963388 0.481765 0.213569
C27_3 C 0.8576(3) 0.3329(2) 0.2045(5)
H24_3 H 0.845737 0.323996 0.290692
C32_3 C 0.7362(3) 0.2957(2) 0.0766(6)
C9_3 C 0.8292(3) 0.3337(2) 0.9556(5)
H3_3 H 0.797766 0.325008 0.868845
C18_3 C 0.8946(3) 0.3586(2) 0.9592(6)
H11_3 H 0.907695 0.368015 0.874386
C6_4 C 0.1906(3) 0.8213(2) 0.4207(5)
N2_4 N 0.0600(2) 0.86968(19) 0.4191(5)
C9_4 C 0.1708(3) 0.8337(2) 0.5444(5)
H3_4 H 0.202234 0.825008 0.631155
H4_4 H 0.003447 0.933881 0.461378
C17_4 C 0.0771(3) 0.8574(2) 0.2975(5)
H10_4 H 0.044080 0.865566 0.212208
C18_4 C 0.1054(3) 0.8586(2) 0.5408(6)
H11_4 H 0.092305 0.868015 0.625614
H21_4 H 0.036612 0.981765 0.286431
C27_4 C 0.1424(3) 0.8329(2) 0.2955(5)
H24_4 H 0.154263 0.823996 0.209308
O11_2 O 0.3022(2) 0.7853(2) 0.5389(4)
C32_4 C 0.2638(3) 0.7957(2) 0.4234(6)
C21_4 C 0.8086(4) 0.0482(2) 0.1328(7)
H14_4 H 0.829716 0.026863 0.210226
N3_4 N 0.8250(3) 0.03974(19) 0.0091(6)
C23_4 C 0.7304(3) 0.1185(2) 0.0361(6)
H19_4 H 0.931254 0.018806 0.016581
H22_4 H 0.980705 0.021508 0.192725
H23_4 H 0.973316 0.008458 0.348255
C28_4 C 0.7609(3) 0.0879(2) 0.1492(7)
H25_4 H 0.749448 0.093959 0.237285
C31_4 C 0.6805(3) 0.1643(2) 0.0480(6)
C19_4 C 0.7468(4) 0.1083(3) 0.9085(7)
H12_4 H 0.724979 0.128394 0.829074
C24_4 C 0.8830(3) 0.0014(3) 0.9925(8)
C25_4 C 0.7948(4) 0.0688(3) 0.8967(8)
H20_4 H 0.806750 0.061939 0.809258
C3_4 C 0.5102(3) 0.7768(2) 0.0560(5)
N1_4 N 0.7285(2) 0.81314(18) 0.0353(5)
C4_4 C 0.8395(3) 0.9114(2) 0.0282(6)
C7_4 C 0.6341(3) 0.8145(2) 0.1602(6)
H2_4 H 0.617737 0.822381 0.242747
C8_4 C 0.8457(3) 0.8645(2) 0.1021(6)
C10_4 C 0.9906(3) 0.8985(3) 0.4240(7)
H5_4 H 0.965830 0.880240 0.489524
C11_4 C 0.9382(3) 0.9032(2) 0.2863(6)
C13_4 C 0.8932(3) 0.8604(2) 0.2348(6)
C14_4 C 0.7051(3) 0.8245(2) 0.1535(6)
H9_4 H 0.737940 0.839388 0.231379
C15_4 C 0.8853(3) 0.9534(2) 0.0816(6)
C16_4 C 0.5866(3) 0.7932(2) 0.0478(5)
C22_4 C 0.8967(4) 0.8113(3) 0.3206(8)
H15_4 H 0.859401 0.786702 0.273165
H16_4 H 0.945256 0.795447 0.331632
H17_4 H 0.887742 0.819830 0.412531
C26_4 C 0.9859(4) 0.9942(3) 0.2640(10)
C29_4 C 0.9352(3) 0.9494(2) 0.2095(7)
C30_4 C 0.8072(3) 0.8175(2) 0.0324(7)
H26_4 H 0.832782 0.786115 0.077351
O8_4 O 0.4661(2) 0.76579(17) 0.9452(4)
C5_4 C 0.6109(3) 0.7840(3) 0.9267(6)
H1_4 H 0.578036 0.770867 0.846337
C12_4 C 0.7876(3) 0.9159(2) 0.8894(6)
H6_4 H 0.746283 0.892193 0.886000
H7_4 H 0.769648 0.951805 0.875643
H8_4 H 0.813032 0.906671 0.815580
C20_4 C 0.6822(3) 0.7939(3) 0.9224(6)
H13_4 H 0.698859 0.787139 0.839577
H18_4 H 0.874304 0.990675 0.893482
H27_4 H 0.811613 0.817438 0.933815
O13_4 O 0.4255(3) 0.66464(18) 0.8475(5)
H28_4 H 0.429958 0.642446 0.785044
H29_4 H 0.468753 0.668067 0.897340
O14_4 O 0.4418(3) 0.83139(18) 0.6847(5)
H30_4 H 0.436088 0.855894 0.743494
H31_4 H 0.489335 0.827644 0.700416
loop_
_geom_bond_atom_site_label_1
_geom_bond_atom_site_label_2
_geom_bond_site_symmetry_1
_geom_bond_site_symmetry_2
O2 S1 1_555 1_555
F3 C1 1_555 1_555
F1_2 C1_2 1_555 1_555
F2_2 C1_2 1_555 1_555
F3_2 C1_2 1_555 1_555
S1_2 O1_2 1_555 1_555
O2_2 S1_2 1_555 1_555
O3_2 S1_2 1_555 1_555
F3_3 C1_3 1_555 1_555
O2_3 S1_3 1_555 1_555
S1_4 O1_4 1_555 1_555
O2_4 S1_4 1_555 1_555
O3_4 S1_4 1_555 1_555
F1_4 C1_4 1_555 1_555
F2_4 C1_4 1_555 1_555
F3_4 C1_4 1_555 1_555
F4 C2 1_555 1_555
F5 C2 1_555 1_555
F6 C2 1_555 1_555
O6 S2 1_555 1_555
O6_2 S2_2 1_555 1_555
F4_2 C2_2 1_555 1_555
F5_2 C2_2 1_555 1_555
F6_2 C2_2 1_555 1_555
O6_3 S2_3 1_555 1_555
F4_3 C2_3 1_555 1_555
F5_3 C2_3 1_555 1_555
F6_3 C2_3 1_555 1_555
F4_4 C2_4 1_555 1_555
F5_4 C2_4 1_555 1_555
F6_4 C2_4 1_555 1_555
O6_4 S2_4 1_555 1_555
C9 H3 1_555 1_555
H11 C18 1_555 1_555
Sm2 O11 1_555 1_555
C9 C18 1_555 1_555
C17 N2 1_555 1_555
H10 C17 1_555 1_555
C27 C6 1_555 1_555
H24 C27 1_555 1_555
O12 C32 1_555 1_555
C32 C6 1_555 1_555
Sm6 O12 1_555 1_555
C17 C27 1_555 1_555
Sm2 O8 1_555 1_555
O7 C3 1_555 1_555
O8 C3 1_555 1_555
C3 C16 1_555 1_555
N1 C14 1_555 1_555
C4 C8 1_555 1_555
C5 H1 1_555 1_555
C7 H2 1_555 1_555
C8 C13 1_555 1_555
H5 C10 1_555 1_555
C11 C10 1_555 1_555
C12 C4 1_555 1_555
H6 C12 1_555 1_555
H7 C12 1_555 1_555
H8 C12 1_555 1_555
C13 C11 1_555 1_555
C14 C7 1_555 1_555
H9 C14 1_555 1_555
C15 C4 1_555 1_555
C16 C5 1_555 1_555
C19 H12 1_555 1_555
C20 N1 1_555 1_555
H13 C20 1_555 1_555
C21 H14 1_555 1_555
C22 C13 1_555 1_555
H15 C22 1_555 1_555
H16 C22 1_555 1_555
H17 C22 1_555 1_555
N3 C21 1_555 1_555
C23 C19 1_555 1_555
C24 C15 1_555 1_555
H18 C24 1_555 1_555
H19 C24 1_555 1_555
C25 C19 1_555 1_555
H20 C25 1_555 1_555
H22 C26 1_555 1_555
H23 C26 1_555 1_555
C28 C21 1_555 1_555
H25 C28 1_555 1_555
C29 C11 1_555 1_555
C30 N1 1_555 1_555
H26 C30 1_555 1_555
H27 C30 1_555 1_555
O9 C31 1_555 1_555
O10 C31 1_555 1_555
C31 C23 1_555 1_555
O13 Sm2 1_555 1_555
H28 O13 1_555 1_555
H29 O13 1_555 1_555
O14 Sm2 1_555 1_555
H30 O14 1_555 1_555
H31 O14 1_555 1_555
Sm3 O10 1_555 1_555
Sm4 O9 1_555 1_555
Sm6 O7 1_555 1_555
O15 Sm2 1_555 1_555
O16 Sm2 1_555 1_555
O17 Sm2 1_555 1_555
O19 Sm2 1_555 1_555
C5 C20 1_555 1_555
C7 C16 1_555 1_555
C8 C30 1_555 1_555
C15 C29 1_555 1_555
N3 C24 1_555 1_555
N3 C25 1_555 1_555
C23 C28 1_555 1_555
C26 C29 1_555 1_555
Sm3 O8_2 1_555 1_555
C5_2 H1_2 1_555 1_555
H6_2 C12_2 1_555 1_555
H7_2 C12_2 1_555 1_555
H8_2 C12_2 1_555 1_555
H13_2 C20_2 1_555 1_555
O13_2 Sm3 1_555 1_555
H28_2 O13_2 1_555 1_555
H29_2 O13_2 1_555 1_555
O14_2 Sm3 1_555 1_555
H30_2 O14_2 1_555 1_555
H31_2 O14_2 1_555 1_555
O15_2 Sm3 1_555 1_555
O16_2 Sm3 1_555 1_555
O18 Sm3 1_555 1_555
O19_2 Sm3 1_555 1_555
C5_2 C20_2 1_555 1_555
O7_2 C3_2 1_555 1_555
C3_2 C16_2 1_555 1_555
N1_2 C14_2 1_555 1_555
C4_2 C8_2 1_555 1_555
C7_2 H2_2 1_555 1_555
C8_2 C13_2 1_555 1_555
H5_2 C10_2 1_555 1_555
C11_2 C10_2 1_555 1_555
C13_2 C11_2 1_555 1_555
C14_2 C7_2 1_555 1_555
H9_2 C14_2 1_555 1_555
C15_2 C4_2 1_555 1_555
C22_2 C13_2 1_555 1_555
H15_2 C22_2 1_555 1_555
H16_2 C22_2 1_555 1_555
H17_2 C22_2 1_555 1_555
C29_2 C11_2 1_555 1_555
C30_2 N1_2 1_555 1_555
H26_2 C30_2 1_555 1_555
Sm4 O7_2 1_555 1_555
C7_2 C16_2 1_555 1_555
C8_2 C30_2 1_555 1_555
C15_2 C29_2 1_555 1_555
C26_2 C29_2 1_555 1_555
C19_2 H12_2 1_555 1_555
C25_2 C19_2 1_555 1_555
H20_2 C25_2 1_555 1_555
C21_2 H14_2 1_555 1_555
N3_2 C21_2 1_555 1_555
C28_2 C21_2 1_555 1_555
H25_2 C28_2 1_555 1_555
O9_2 C31_2 1_555 1_555
C31_2 C23_2 1_555 1_555
Sm6 O9_2 1_555 1_555
C23_2 C28_2 1_555 1_555
C6_2 C9_2 1_555 1_555
C9_2 H3_2 1_555 1_555
C17_2 N2_2 1_555 1_555
H10_2 C17_2 1_555 1_555
C18_2 N2_2 1_555 1_555
H11_2 C18_2 1_555 1_555
C27_2 C6_2 1_555 1_555
H24_2 C27_2 1_555 1_555
O18 C32_2 1_555 1_555
O12_2 C32_2 1_555 1_555
C32_2 C6_2 1_555 1_555
Sm4 O12_2 1_555 1_555
C9_2 C18_2 1_555 1_555
C17_2 C27_2 1_555 1_555
Sm4 O8_3 1_555 1_555
O15_2 C3_3 1_555 1_555
O8_3 C3_3 1_555 1_555
C3_3 C16_3 1_555 1_555
N1_3 C14_3 1_555 1_555
C4_3 C8_3 1_555 1_555
C5_3 H1_3 1_555 1_555
C7_3 H2_3 1_555 1_555
C8_3 C13_3 1_555 1_555
H5_3 C10_3 1_555 1_555
C11_3 C10_3 1_555 1_555
C12_3 C4_3 1_555 1_555
H6_3 C12_3 1_555 1_555
H7_3 C12_3 1_555 1_555
H8_3 C12_3 1_555 1_555
C13_3 C11_3 1_555 1_555
C14_3 C7_3 1_555 1_555
H9_3 C14_3 1_555 1_555
C15_3 C4_3 1_555 1_555
C16_3 C5_3 1_555 1_555
C19_3 H12_3 1_555 1_555
C20_3 N1_3 1_555 1_555
H13_3 C20_3 1_555 1_555
C21_3 H14_3 1_555 1_555
C22_3 C13_3 1_555 1_555
H15_3 C22_3 1_555 1_555
H16_3 C22_3 1_555 1_555
H17_3 C22_3 1_555 1_555
N3_3 C21_3 1_555 1_555
C23_3 C19_3 1_555 1_555
C24_3 C15_3 1_555 1_555
H18_3 C24_3 1_555 1_555
H19_3 C24_3 1_555 1_555
C25_3 C19_3 1_555 1_555
H20_3 C25_3 1_555 1_555
H22_3 C26_3 1_555 1_555
H23_3 C26_3 1_555 1_555
C28_3 C21_3 1_555 1_555
H25_3 C28_3 1_555 1_555
C29_3 C11_3 1_555 1_555
C30_3 N1_3 1_555 1_555
H26_3 C30_3 1_555 1_555
H27_3 C30_3 1_555 1_555
O16 C31_3 1_555 1_555
O10_2 C31_3 1_555 1_555
C31_3 C23_3 1_555 1_555
O13_3 Sm4 1_555 1_555
H28_3 O13_3 1_555 1_555
H29_3 O13_3 1_555 1_555
O14_3 Sm4 1_555 1_555
H30_3 O14_3 1_555 1_555
H31_3 O14_3 1_555 1_555
Sm6 O10_2 1_555 1_555
O17_2 Sm4 1_555 1_555
O18_2 Sm4 1_555 1_555
C5_3 C20_3 1_555 1_555
C7_3 C16_3 1_555 1_555
C8_3 C30_3 1_555 1_555
C15_3 C29_3 1_555 1_555
N3_3 C24_3 1_555 1_555
N3_3 C25_3 1_555 1_555
C23_3 C28_3 1_555 1_555
C26_3 C29_3 1_555 1_555
C17_3 N2_3 1_555 1_555
H10_3 C17_3 1_555 1_555
C27_3 C6_3 1_555 1_555
H24_3 C27_3 1_555 1_555
O19_2 C32_3 1_555 1_555
C32_3 C6_3 1_555 1_555
C17_3 C27_3 1_555 1_555
C9_3 H3_3 1_555 1_555
H11_3 C18_3 1_555 1_555
C9_3 C18_3 1_555 1_555
C6_4 C9_4 1_555 1_555
C9_4 H3_4 1_555 1_555
C17_4 N2_4 1_555 1_555
H10_4 C17_4 1_555 1_555
C18_4 N2_4 1_555 1_555
H11_4 C18_4 1_555 1_555
C27_4 C6_4 1_555 1_555
H24_4 C27_4 1_555 1_555
O11_2 C32_4 1_555 1_555
O19 C32_4 1_555 1_555
C32_4 C6_4 1_555 1_555
Sm6 O11_2 1_555 1_555
C9_4 C18_4 1_555 1_555
C17_4 C27_4 1_555 1_555
C21_4 H14_4 1_555 1_555
N3_4 C21_4 1_555 1_555
C28_4 C21_4 1_555 1_555
H25_4 C28_4 1_555 1_555
O16_2 C31_4 1_555 1_555
C31_4 C23_4 1_555 1_555
C23_4 C28_4 1_555 1_555
C19_4 H12_4 1_555 1_555
C25_4 C19_4 1_555 1_555
H20_4 C25_4 1_555 1_555
O15 C3_4 1_555 1_555
C3_4 C16_4 1_555 1_555
N1_4 C14_4 1_555 1_555
C4_4 C8_4 1_555 1_555
C7_4 H2_4 1_555 1_555
C8_4 C13_4 1_555 1_555
H5_4 C10_4 1_555 1_555
C11_4 C10_4 1_555 1_555
C13_4 C11_4 1_555 1_555
C14_4 C7_4 1_555 1_555
H9_4 C14_4 1_555 1_555
C15_4 C4_4 1_555 1_555
C22_4 C13_4 1_555 1_555
H15_4 C22_4 1_555 1_555
H16_4 C22_4 1_555 1_555
H17_4 C22_4 1_555 1_555
C29_4 C11_4 1_555 1_555
C30_4 N1_4 1_555 1_555
H26_4 C30_4 1_555 1_555
C7_4 C16_4 1_555 1_555
C8_4 C30_4 1_555 1_555
C15_4 C29_4 1_555 1_555
C26_4 C29_4 1_555 1_555
Sm6 O8_4 1_555 1_555
C5_4 H1_4 1_555 1_555
H6_4 C12_4 1_555 1_555
H7_4 C12_4 1_555 1_555
H8_4 C12_4 1_555 1_555
H13_4 C20_4 1_555 1_555
O13_4 Sm6 1_555 1_555
H28_4 O13_4 1_555 1_555
H29_4 O13_4 1_555 1_555
O14_4 Sm6 1_555 1_555
H30_4 O14_4 1_555 1_555
H31_4 O14_4 1_555 1_555
C5_4 C20_4 1_555 1_555

#END
