
###############################################################################
#
# This file contains modified crystal structure data generated from the
# MOF subset of the Cambridge Structural Database (CSD) v543 
# hosted by the Cambridge Crystallographic Data Centre (CCDC).
#
# This work is licensed under the Creative Commons
# Attribution-NonCommercial-ShareAlike 4.0 International License.
# To view a copy of this license, visit
# http://creativecommons.org/licenses/by-nc-sa/4.0/
# or send a letter to
# Creative Commons, PO Box 1866, Mountain View, CA 94042, USA.
#
# CIF created using the CSD Python API on 29 September 2022
# The structure has been converted into the P1 space group
# The structure has a 3D framework
# The original CSD entry MOCKAR is in the rhombohedral crystal system
# The framework has been calculated to contain at least 10.0% void space
# The void calculation uses a probe of radius 1.32A, grid spacing 0.4
#
###############################################################################

data_MOCKAR
_chemical_formula_moiety         '(C162 H108 Cu18 O90)n'
_symmetry_cell_setting           triclinic
_symmetry_space_group_name_H-M   'P 1'
_symmetry_Int_Tables_number      1
_space_group_name_Hall           'P 1'
loop_
_symmetry_equiv_pos_site_id
_symmetry_equiv_pos_as_xyz
1 x,y,z
_cell_length_a                   18.795(3)
_cell_length_b                   18.795(3)
_cell_length_c                   31.280(9)
_cell_angle_alpha                90
_cell_angle_beta                 90
_cell_angle_gamma                120.00
_cell_volume                     9569.34
loop_
_atom_site_label
_atom_site_type_symbol
_atom_site_fract_x
_atom_site_fract_y
_atom_site_fract_z
Cu1 Cu 0.28826(8) 0.14408(8) 0.13124(4)
O1 O 0.4455(4) 0.2955(4) 0.1725(2)
C1 C 0.4243(7) 0.3057(8) 0.1364(4)
C2 C 0.5447(8) 0.4309(7) 0.1336(3)
H1 H 0.5502 0.4134 0.1606
C3 C 0.4775(6) 0.3839(7) 0.1093(4)
C4 C 0.5930(8) 0.5281(8) 0.0778(4)
H2 H 0.6346 0.5787 0.0680
C5 C 0.4740(7) 0.4142(7) 0.0702(3)
H3 H 0.4270 0.3802 0.0545
C6 C 0.5272(9) 0.4854(7) 0.0503(4)
C7 C 0.4984(8) 0.4870(7) 0.0107(2)
O2 O 0.3662(5) 0.2553(5) 0.1131(2)
C8 C 0.6043(7) 0.5048(7) 0.1177(4)
O5 O 0.2325(9) 0.1128(9) 0.0692(4)
H5 H 0.164(2) 0.090(2) 0.0790(11)
H6 H 0.229(6) 0.151(5) 0.054(3)
Cu2 Cu 0.37841(8) 0.18925(8) 0.20209(4)
Cu7 Cu 0.81085(11) 0.62159(8) 0.20209(4)
Cu8 Cu 0.85582(11) 0.71174(8) 0.13124(4)
O6 O 0.2212(4) 0.0378(4) 0.1608(2)
H10 H 0.4548 0.4342 0.0059
C18 C 0.6884(7) 0.5684(6) 0.1360(4)
O11 O 0.2242(4) 0.1853(6) 0.1612(2)
O12 O 0.7055(4) 0.5575(4) 0.1721(2)
O13 O 0.3713(4) 0.1102(6) 0.1145(2)
O15 O 0.7389(4) 0.6287(4) 0.1145(2)
H4 H 0.5452 0.5658 0.9941
C9 C 0.3116(7) 0.4316(6) 0.8640(4)
O3 O 0.2945(4) 0.4425(4) 0.8279(2)
O4 O 0.2611(4) 0.3713(4) 0.8855(2)
Cu3 Cu 0.62159(8) 0.81075(8) 0.79791(4)
Cu4 Cu 0.71174(8) 0.85592(8) 0.86876(4)
Cu5 Cu 0.18915(11) 0.37841(8) 0.79791(4)
Cu6 Cu 0.14418(11) 0.28826(8) 0.86876(4)
O7 O 0.5545(4) 0.7045(4) 0.8275(2)
O8 O 0.1500(6) 0.4455(4) 0.8275(2)
C10 C 0.5757(7) 0.6943(8) 0.8636(4)
C11 C 0.4553(8) 0.5691(7) 0.8664(3)
H7 H 0.4498 0.5866 0.8394
C12 C 0.5225(6) 0.6161(7) 0.8907(4)
C13 C 0.4070(8) 0.4719(8) 0.9222(4)
H8 H 0.3654 0.4213 0.9320
C14 C 0.5260(7) 0.5858(7) 0.9298(3)
H9 H 0.5730 0.6198 0.9455
C15 C 0.4728(9) 0.5146(7) 0.9497(4)
C16 C 0.5016(8) 0.5130(7) 0.9893(2)
O9 O 0.2224(7) 0.3005(5) 0.7798(2)
O10 O 0.6338(5) 0.7447(5) 0.8869(2)
C17 C 0.3957(7) 0.4952(7) 0.8823(4)
O14 O 0.0722(4) 0.2954(4) 0.7812(2)
O16 O 0.2136(13) 0.4342(9) 0.7359(4)
H11 H 0.259(3) 0.503(2) 0.7457(11)
H12 H 0.255(8) 0.438(6) 0.721(3)
Cu1_2 Cu 0.85592(8) 0.14418(11) 0.13124(4)
O1_2 O 0.7045(4) 0.1500(6) 0.1725(2)
C1_2 C 0.6943(8) 0.1186(11) 0.1364(4)
C2_2 C 0.5691(7) 0.1138(11) 0.1336(3)
H1_2 H 0.5866 0.1368 0.1606
C3_2 C 0.6161(7) 0.0936(9) 0.1093(4)
C4_2 C 0.4719(8) 0.0649(11) 0.0778(4)
H2_2 H 0.4213 0.0559 0.0680
C5_2 C 0.5858(7) 0.0598(10) 0.0702(3)
H3_2 H 0.6198 0.0468 0.0545
C6_2 C 0.5146(7) 0.0418(11) 0.0503(4)
C7_2 C 0.5130(7) 0.0114(11) 0.0107(2)
O2_2 O 0.7447(5) 0.1109(7) 0.1131(2)
C8_2 C 0.4952(7) 0.0995(10) 0.1177(4)
O5_2 O 0.8872(9) 0.1197(13) 0.0692(4)
H5_2 H 0.910(2) 0.074(3) 0.0790(11)
H6_2 H 0.849(5) 0.078(8) 0.054(3)
Cu2_2 Cu 0.81075(8) 0.18915(11) 0.20209(4)
O6_2 O 0.9622(4) 0.1833(6) 0.1608(2)
H10_2 H 0.5658 0.0206 0.0059
C18_2 C 0.4316(6) 0.1200(9) 0.1360(4)
O11_2 O 0.8147(6) 0.0388(7) 0.1612(2)
O12_2 O 0.4425(4) 0.1480(6) 0.1721(2)
O13_2 O 0.8898(6) 0.2611(7) 0.1145(2)
H4_2 H 0.4342 0.9794 0.9941
C9_2 C 0.5684(6) 0.8800(9) 0.8640(4)
O3_2 O 0.5575(4) 0.8520(6) 0.8279(2)
O4_2 O 0.6287(4) 0.8898(6) 0.8855(2)
Cu3_2 Cu 0.18925(8) 0.81085(11) 0.79791(4)
Cu4_2 Cu 0.14408(8) 0.85582(11) 0.86876(4)
O7_2 O 0.2955(4) 0.8500(6) 0.8275(2)
C10_2 C 0.3057(8) 0.8814(11) 0.8636(4)
C11_2 C 0.4309(7) 0.8862(11) 0.8664(3)
H7_2 H 0.4134 0.8632 0.8394
C12_2 C 0.3839(7) 0.9064(9) 0.8907(4)
C13_2 C 0.5281(8) 0.9351(11) 0.9222(4)
H8_2 H 0.5787 0.9441 0.9320
C14_2 C 0.4142(7) 0.9402(10) 0.9298(3)
H9_2 H 0.3802 0.9532 0.9455
C15_2 C 0.4854(7) 0.9582(11) 0.9497(4)
C16_2 C 0.4870(7) 0.9886(11) 0.9893(2)
O9_2 O 0.6995(5) 0.9220(9) 0.7798(2)
O10_2 O 0.2553(5) 0.8891(7) 0.8869(2)
C17_2 C 0.5048(7) 0.9005(10) 0.8823(4)
O14_2 O 0.7046(4) 0.7769(6) 0.7812(2)
O16_2 O 0.5658(9) 0.7795(16) 0.7359(4)
H11_2 H 0.497(2) 0.757(4) 0.7457(11)
H12_2 H 0.562(6) 0.818(10) 0.721(3)
H4_3 H 0.0206 0.4548 0.9941
C9_3 C 0.1200(9) 0.6884(7) 0.8640(4)
O3_3 O 0.1480(6) 0.7055(4) 0.8279(2)
O4_3 O 0.1102(6) 0.7389(4) 0.8855(2)
C10_3 C 0.1186(11) 0.4243(7) 0.8636(4)
C11_3 C 0.1138(11) 0.5447(8) 0.8664(3)
H7_3 H 0.1368 0.5502 0.8394
C12_3 C 0.0936(9) 0.4775(6) 0.8907(4)
C13_3 C 0.0649(11) 0.5930(8) 0.9222(4)
H8_3 H 0.0559 0.6346 0.9320
C14_3 C 0.0598(10) 0.4740(7) 0.9298(3)
H9_3 H 0.0468 0.4270 0.9455
C15_3 C 0.0418(11) 0.5272(9) 0.9497(4)
C16_3 C 0.0114(11) 0.4984(8) 0.9893(2)
O9_3 O 0.0780(9) 0.7776(7) 0.7798(2)
O10_3 O 0.1109(7) 0.3662(5) 0.8869(2)
C17_3 C 0.0995(10) 0.6043(7) 0.8823(4)
O14_3 O 0.2231(6) 0.9278(4) 0.7812(2)
O16_3 O 0.2205(16) 0.7864(13) 0.7359(4)
H11_3 H 0.243(4) 0.741(3) 0.7457(11)
H12_3 H 0.182(10) 0.745(8) 0.721(3)
O1_3 O 0.8500(6) 0.5545(4) 0.1725(2)
C1_3 C 0.8814(11) 0.5757(7) 0.1364(4)
C2_3 C 0.8862(11) 0.4553(8) 0.1336(3)
H1_3 H 0.8632 0.4498 0.1606
C3_3 C 0.9064(9) 0.5225(6) 0.1093(4)
C4_3 C 0.9351(11) 0.4070(8) 0.0778(4)
H2_3 H 0.9441 0.3654 0.0680
C5_3 C 0.9402(10) 0.5260(7) 0.0702(3)
H3_3 H 0.9532 0.5730 0.0545
C6_3 C 0.9582(11) 0.4728(9) 0.0503(4)
C7_3 C 0.9886(11) 0.5016(8) 0.0107(2)
O2_3 O 0.8891(7) 0.6338(5) 0.1131(2)
C8_3 C 0.9005(10) 0.3957(7) 0.1177(4)
O5_3 O 0.8803(13) 0.7675(9) 0.0692(4)
H5_3 H 0.926(3) 0.836(2) 0.0790(11)
H6_3 H 0.922(8) 0.771(6) 0.054(3)
O6_3 O 0.8167(6) 0.7788(4) 0.1608(2)
H10_3 H 0.9794 0.5452 0.0059
C18_3 C 0.8800(9) 0.3116(7) 0.1360(4)
O11_3 O 0.9612(7) 0.7758(4) 0.1612(2)
O12_3 O 0.8520(6) 0.2945(4) 0.1721(2)
Cu8_2 Cu 0.52249(11) 0.04507(8) 0.46457(4)
C10_4 C 0.2424(7) 0.0276(8) 0.1969(4)
O10_4 O 0.3005(5) 0.0780(5) 0.2202(2)
O1_4 O 0.1122(4) 0.6288(4) 0.5058(2)
C1_4 C 0.0910(7) 0.6390(8) 0.4697(4)
C2_4 C 0.2114(8) 0.7642(7) 0.4669(3)
H1_4 H 0.2169 0.7467 0.4939
C3_4 C 0.1442(6) 0.7172(7) 0.4426(4)
C4_4 C 0.2597(8) 0.8614(8) 0.4111(4)
H2_4 H 0.3013 0.9120 0.4013
C5_4 C 0.1407(7) 0.7475(7) 0.4035(3)
H3_4 H 0.0937 0.7135 0.3878
C6_4 C 0.1939(9) 0.8187(7) 0.3836(4)
C7_4 C 0.1651(8) 0.8203(7) 0.3440(2)
H4_4 H 0.2119 0.8991 0.3274
O2_4 O 0.0329(5) 0.5886(5) 0.4464(2)
C8_4 C 0.2710(7) 0.8381(7) 0.4510(4)
Cu2_3 Cu 0.04507(8) 0.52259(8) 0.53543(4)
Cu7_2 Cu 0.47751(11) 0.95493(8) 0.53543(4)
C11_4 C 0.1220(8) 0.9024(7) 0.1997(3)
H7_4 H 0.1165 0.9199 0.1727
C12_4 C 0.1892(6) 0.9494(7) 0.2240(4)
C13_4 C 0.0737(8) 0.8052(8) 0.2555(4)
H8_4 H 0.0321 0.7546 0.2653
C14_4 C 0.1927(7) 0.9191(7) 0.2631(3)
H9_4 H 0.2397 0.9531 0.2788
C15_4 C 0.1395(9) 0.8479(7) 0.2830(4)
C16_4 C 0.1683(8) 0.8463(7) 0.3226(2)
H10_4 H 0.1215 0.7675 0.3392
C17_4 C 0.0624(7) 0.8285(7) 0.2156(4)
C18_4 C 0.3551(7) 0.9017(6) 0.4693(4)
O12_4 O 0.3722(4) 0.8908(4) 0.5054(2)
O13_3 O 0.0380(4) 0.4435(6) 0.4478(2)
O15_2 O 0.4056(4) 0.9620(4) 0.4478(2)
Cu1_3 Cu 0.95493(8) 0.47741(8) 0.46457(4)
C9_4 C 0.9783(7) 0.7649(6) 0.1973(4)
O4_4 O 0.9278(4) 0.7046(4) 0.2188(2)
O5_4 O 0.8992(9) 0.4461(9) 0.4025(4)
H5_4 H 0.831(2) 0.423(2) 0.4123(11)
H6_4 H 0.896(6) 0.484(5) 0.387(3)
O6_4 O 0.8878(4) 0.3712(4) 0.4942(2)
O11_4 O 0.8908(4) 0.5187(6) 0.4946(2)
Cu1_4 Cu 0.52259(8) 0.47751(11) 0.46457(4)
O1_5 O 0.3712(4) 0.4833(6) 0.5058(2)
C1_5 C 0.3610(8) 0.4519(11) 0.4697(4)
C2_5 C 0.2358(7) 0.4471(11) 0.4669(3)
H1_5 H 0.2533 0.4701 0.4939
C3_5 C 0.2828(7) 0.4269(9) 0.4426(4)
C4_5 C 0.1386(8) 0.3982(11) 0.4111(4)
H2_5 H 0.0880 0.3892 0.4013
C5_5 C 0.2525(7) 0.3931(10) 0.4035(3)
H3_5 H 0.2865 0.3801 0.3878
C6_5 C 0.1813(7) 0.3751(11) 0.3836(4)
C7_5 C 0.1797(7) 0.3447(11) 0.3440(2)
H4_5 H 0.1009 0.3127 0.3274
O2_5 O 0.4114(5) 0.4442(7) 0.4464(2)
C8_5 C 0.1619(7) 0.4328(10) 0.4510(4)
C9_5 C 0.2351(6) 0.2133(9) 0.1973(4)
O4_5 O 0.2954(4) 0.2231(6) 0.2188(2)
O5_5 O 0.5539(9) 0.4530(13) 0.4025(4)
H5_5 H 0.577(2) 0.407(3) 0.4123(11)
H6_5 H 0.516(5) 0.411(8) 0.387(3)
Cu2_4 Cu 0.47741(8) 0.52249(11) 0.53543(4)
O6_5 O 0.6288(4) 0.5167(6) 0.4942(2)
C11_5 C 0.0976(7) 0.2195(11) 0.1997(3)
H7_5 H 0.0801 0.1965 0.1727
C12_5 C 0.0506(7) 0.2397(9) 0.2240(4)
C13_5 C 0.1948(8) 0.2684(11) 0.2555(4)
H8_5 H 0.2454 0.2774 0.2653
C14_5 C 0.0809(7) 0.2735(10) 0.2631(3)
H9_5 H 0.0469 0.2865 0.2788
C15_5 C 0.1521(7) 0.2915(11) 0.2830(4)
C16_5 C 0.1537(7) 0.3219(11) 0.3226(2)
H10_5 H 0.2325 0.3539 0.3392
C17_5 C 0.1715(7) 0.2338(10) 0.2156(4)
C18_5 C 0.0983(6) 0.4533(9) 0.4693(4)
O11_5 O 0.4813(6) 0.3722(7) 0.4946(2)
O12_5 O 0.1092(4) 0.4813(6) 0.5054(2)
O13_4 O 0.5565(6) 0.5944(7) 0.4478(2)
C10_5 C 0.9724(8) 0.2147(11) 0.1969(4)
O10_5 O 0.9220(5) 0.2224(7) 0.2202(2)
C9_6 C 0.7867(9) 0.0217(7) 0.1973(4)
O4_6 O 0.7769(6) 0.0722(4) 0.2188(2)
O5_6 O 0.5470(13) 0.1008(9) 0.4025(4)
H5_6 H 0.593(3) 0.169(2) 0.4123(11)
H6_6 H 0.589(8) 0.104(6) 0.387(3)
O6_6 O 0.4833(6) 0.1122(4) 0.4942(2)
O11_6 O 0.6278(7) 0.1092(4) 0.4946(2)
O1_6 O 0.5167(6) 0.8878(4) 0.5058(2)
C1_6 C 0.5481(11) 0.9090(7) 0.4697(4)
C2_6 C 0.5529(11) 0.7886(8) 0.4669(3)
H1_6 H 0.5299 0.7831 0.4939
C3_6 C 0.5731(9) 0.8558(6) 0.4426(4)
C4_6 C 0.6018(11) 0.7403(8) 0.4111(4)
H2_6 H 0.6108 0.6987 0.4013
C5_6 C 0.6069(10) 0.8593(7) 0.4035(3)
H3_6 H 0.6199 0.9063 0.3878
C6_6 C 0.6249(11) 0.8061(9) 0.3836(4)
C7_6 C 0.6553(11) 0.8349(8) 0.3440(2)
H4_6 H 0.6873 0.7881 0.3274
O2_6 O 0.5558(7) 0.9671(5) 0.4464(2)
C8_6 C 0.5672(10) 0.7290(7) 0.4510(4)
C10_6 C 0.7853(11) 0.7576(7) 0.1969(4)
C11_6 C 0.7805(11) 0.8780(8) 0.1997(3)
H7_6 H 0.8035 0.8835 0.1727
C12_6 C 0.7603(9) 0.8108(6) 0.2240(4)
C13_6 C 0.7316(11) 0.9263(8) 0.2555(4)
H8_6 H 0.7226 0.9679 0.2653
C14_6 C 0.7265(10) 0.8073(7) 0.2631(3)
H9_6 H 0.7135 0.7603 0.2788
C15_6 C 0.7085(11) 0.8605(9) 0.2830(4)
C16_6 C 0.6781(11) 0.8317(8) 0.3226(2)
H10_6 H 0.6461 0.8785 0.3392
O10_6 O 0.7776(7) 0.6995(5) 0.2202(2)
C17_6 C 0.7662(10) 0.9376(7) 0.2156(4)
C18_6 C 0.5467(9) 0.6449(7) 0.4693(4)
O12_6 O 0.5187(6) 0.6278(4) 0.5054(2)
C18_7 C 0.0217(7) 0.2351(6) 0.8027(4)
O12_7 O 0.0388(4) 0.2242(4) 0.8388(2)
C2_7 C 0.8780(8) 0.0976(7) 0.8003(3)
H1_7 H 0.8835 0.0801 0.8273
C3_7 C 0.8108(6) 0.0506(7) 0.7760(4)
C4_7 C 0.9263(8) 0.1948(8) 0.7445(4)
H2_7 H 0.9679 0.2454 0.7347
C5_7 C 0.8073(7) 0.0809(7) 0.7369(3)
H3_7 H 0.7603 0.0469 0.7212
C6_7 C 0.8605(9) 0.1521(7) 0.7170(4)
C7_7 C 0.8317(8) 0.1537(7) 0.6774(2)
H4_7 H 0.8785 0.2325 0.6608
C8_7 C 0.9376(7) 0.1715(7) 0.7844(4)
C9_7 C 0.6449(7) 0.0983(6) 0.5307(4)
O4_7 O 0.5944(4) 0.0380(4) 0.5522(2)
C10_7 C 0.9090(7) 0.3610(8) 0.5303(4)
C11_7 C 0.7886(8) 0.2358(7) 0.5331(3)
H7_7 H 0.7831 0.2533 0.5061
C12_7 C 0.8558(6) 0.2828(7) 0.5574(4)
C13_7 C 0.7403(8) 0.1386(8) 0.5889(4)
H8_7 H 0.6987 0.0880 0.5987
C14_7 C 0.8593(7) 0.2525(7) 0.5965(3)
H9_7 H 0.9063 0.2865 0.6122
C15_7 C 0.8061(9) 0.1813(7) 0.6164(4)
C16_7 C 0.8349(8) 0.1797(7) 0.6560(2)
H10_7 H 0.7881 0.1009 0.6726
O10_7 O 0.9671(5) 0.4114(5) 0.5536(2)
C17_7 C 0.7290(7) 0.1619(7) 0.5490(4)
O1_7 O 0.7788(4) 0.9622(4) 0.8392(2)
C1_7 C 0.7576(7) 0.9724(8) 0.8031(4)
O1_8 O 0.0378(4) 0.8167(6) 0.8392(2)
C1_8 C 0.0276(8) 0.7853(11) 0.8031(4)
C2_8 C 0.9024(7) 0.7805(11) 0.8003(3)
H1_8 H 0.9199 0.8035 0.8273
C3_8 C 0.9494(7) 0.7603(9) 0.7760(4)
C4_8 C 0.8052(8) 0.7316(11) 0.7445(4)
H2_8 H 0.7546 0.7226 0.7347
C5_8 C 0.9191(7) 0.7265(10) 0.7369(3)
H3_8 H 0.9531 0.7135 0.7212
C6_8 C 0.8479(7) 0.7085(11) 0.7170(4)
C7_8 C 0.8463(7) 0.6781(11) 0.6774(2)
H4_8 H 0.7675 0.6461 0.6608
C8_8 C 0.8285(7) 0.7662(10) 0.7844(4)
C9_8 C 0.9017(6) 0.5467(9) 0.5307(4)
O4_8 O 0.9620(4) 0.5565(6) 0.5522(2)
C10_8 C 0.6390(8) 0.5481(11) 0.5303(4)
C11_8 C 0.7642(7) 0.5529(11) 0.5331(3)
H7_8 H 0.7467 0.5299 0.5061
C12_8 C 0.7172(7) 0.5731(9) 0.5574(4)
C13_8 C 0.8614(8) 0.6018(11) 0.5889(4)
H8_8 H 0.9120 0.6108 0.5987
C14_8 C 0.7475(7) 0.6069(10) 0.5965(3)
H9_8 H 0.7135 0.6199 0.6122
C15_8 C 0.8187(7) 0.6249(11) 0.6164(4)
C16_8 C 0.8203(7) 0.6553(11) 0.6560(2)
H10_8 H 0.8991 0.6873 0.6726
O10_8 O 0.5886(5) 0.5558(7) 0.5536(2)
C17_8 C 0.8381(7) 0.5672(10) 0.5490(4)
C18_8 C 0.7649(6) 0.7867(9) 0.8027(4)
O12_8 O 0.7758(4) 0.8147(6) 0.8388(2)
O1_9 O 0.1833(6) 0.2212(4) 0.8392(2)
C1_9 C 0.2147(11) 0.2424(7) 0.8031(4)
C2_9 C 0.2195(11) 0.1220(8) 0.8003(3)
H1_9 H 0.1965 0.1165 0.8273
C3_9 C 0.2397(9) 0.1892(6) 0.7760(4)
C4_9 C 0.2684(11) 0.0737(8) 0.7445(4)
H2_9 H 0.2774 0.0321 0.7347
C5_9 C 0.2735(10) 0.1927(7) 0.7369(3)
H3_9 H 0.2865 0.2397 0.7212
C6_9 C 0.2915(11) 0.1395(9) 0.7170(4)
C7_9 C 0.3219(11) 0.1683(8) 0.6774(2)
H4_9 H 0.3539 0.1215 0.6608
C8_9 C 0.2338(10) 0.0624(7) 0.7844(4)
C9_9 C 0.4533(9) 0.3551(7) 0.5307(4)
O4_9 O 0.4435(6) 0.4056(4) 0.5522(2)
C10_9 C 0.4519(11) 0.0910(7) 0.5303(4)
C11_9 C 0.4471(11) 0.2114(8) 0.5331(3)
H7_9 H 0.4701 0.2169 0.5061
C12_9 C 0.4269(9) 0.1442(6) 0.5574(4)
C13_9 C 0.3982(11) 0.2597(8) 0.5889(4)
H8_9 H 0.3892 0.3013 0.5987
C14_9 C 0.3931(10) 0.1407(7) 0.5965(3)
H9_9 H 0.3801 0.0937 0.6122
C15_9 C 0.3751(11) 0.1939(9) 0.6164(4)
C16_9 C 0.3447(11) 0.1651(8) 0.6560(2)
H10_9 H 0.3127 0.2119 0.6726
O10_9 O 0.4442(7) 0.0329(5) 0.5536(2)
C17_9 C 0.4328(10) 0.2710(7) 0.5490(4)
C18_9 C 0.2133(9) 0.9783(7) 0.8027(4)
O12_9 O 0.1853(6) 0.9612(4) 0.8388(2)
O16_4 O 0.7864(13) 0.5658(9) 0.2641(4)
H11_4 H 0.741(3) 0.497(2) 0.2543(11)
H12_4 H 0.745(8) 0.562(6) 0.279(3)
O5_7 O 0.7675(9) 0.8872(9) 0.9308(4)
H5_7 H 0.836(2) 0.910(2) 0.9210(11)
H6_7 H 0.771(6) 0.849(5) 0.946(3)
O16_5 O 0.4342(9) 0.2205(16) 0.2641(4)
H11_5 H 0.503(2) 0.243(4) 0.2543(11)
H12_5 H 0.438(6) 0.182(10) 0.279(3)
O5_8 O 0.1128(9) 0.8803(13) 0.9308(4)
H5_8 H 0.090(2) 0.926(3) 0.9210(11)
H6_8 H 0.151(5) 0.922(8) 0.946(3)
O5_9 O 0.1197(13) 0.2325(9) 0.9308(4)
H5_9 H 0.074(3) 0.164(2) 0.9210(11)
H6_9 H 0.078(8) 0.229(6) 0.946(3)
O16_6 O 0.7795(16) 0.2136(13) 0.2641(4)
H11_6 H 0.757(4) 0.259(3) 0.2543(11)
H12_6 H 0.818(10) 0.255(8) 0.279(3)
O5_10 O 0.1008(9) 0.5539(9) 0.5975(4)
H5_10 H 0.169(2) 0.577(2) 0.5877(11)
H6_10 H 0.104(6) 0.516(5) 0.613(3)
O5_11 O 0.4461(9) 0.5470(13) 0.5975(4)
H5_11 H 0.423(2) 0.593(3) 0.5877(11)
H6_11 H 0.484(5) 0.589(8) 0.613(3)
O5_12 O 0.4530(13) 0.8992(9) 0.5975(4)
H5_12 H 0.407(3) 0.831(2) 0.5877(11)
H6_12 H 0.411(8) 0.896(6) 0.613(3)
loop_
_geom_bond_atom_site_label_1
_geom_bond_atom_site_label_2
_geom_bond_site_symmetry_1
_geom_bond_site_symmetry_2
Cu1 O2 1_555 1_555
O1 C1 1_555 1_555
C1 C3 1_555 1_555
C2 H1 1_555 1_555
C3 C2 1_555 1_555
C4 H2 1_555 1_555
C5 C3 1_555 1_555
H3 C5 1_555 1_555
C6 C4 1_555 1_555
C7 C6 1_555 1_555
O2 C1 1_555 1_555
C8 C2 1_555 1_555
O5 Cu1 1_555 1_555
H5 O5 1_555 1_555
H6 O5 1_555 1_555
Cu2 Cu1 1_555 1_555
Cu7 Cu8 1_555 1_555
Cu8 O15 1_555 1_555
O6 Cu1 1_555 1_555
H10 C7 1_555 1_555
C18 C8 1_555 1_555
O11 Cu1 1_555 1_555
O12 Cu7 1_555 1_555
O13 Cu1 1_555 1_555
O15 C18 1_555 1_555
O1 Cu2 1_555 1_555
C4 C8 1_555 1_555
C5 C6 1_555 1_555
C18 O12 1_555 1_555
H4 C16 1_555 1_555
C9 O3 1_555 1_555
O3 Cu5 1_555 1_555
O4 C9 1_555 1_555
Cu3 Cu4 1_555 1_555
Cu4 O10 1_555 1_555
Cu5 Cu6 1_555 1_555
Cu6 O4 1_555 1_555
O7 Cu3 1_555 1_555
O8 Cu5 1_555 1_555
C10 O7 1_555 1_555
C11 H7 1_555 1_555
C12 C10 1_555 1_555
C13 H8 1_555 1_555
C14 C12 1_555 1_555
H9 C14 1_555 1_555
C15 C13 1_555 1_555
O9 Cu5 1_555 1_555
O10 C10 1_555 1_555
C17 C9 1_555 1_555
O14 Cu5 1_555 1_555
O16 Cu5 1_555 1_555
H11 O16 1_555 1_555
H12 O16 1_555 1_555
C11 C12 1_555 1_555
C11 C17 1_555 1_555
C13 C17 1_555 1_555
C14 C15 1_555 1_555
C15 C16 1_555 1_555
Cu1_2 O2_2 1_555 1_555
O1_2 C1_2 1_555 1_555
C1_2 C3_2 1_555 1_555
C2_2 H1_2 1_555 1_555
C3_2 C2_2 1_555 1_555
C4_2 H2_2 1_555 1_555
C5_2 C3_2 1_555 1_555
H3_2 C5_2 1_555 1_555
C6_2 C4_2 1_555 1_555
C7_2 C6_2 1_555 1_555
O2_2 C1_2 1_555 1_555
C8_2 C2_2 1_555 1_555
O5_2 Cu1_2 1_555 1_555
H5_2 O5_2 1_555 1_555
H6_2 O5_2 1_555 1_555
Cu2_2 Cu1_2 1_555 1_555
O6_2 Cu1_2 1_555 1_555
H10_2 C7_2 1_555 1_555
C18_2 C8_2 1_555 1_555
O11_2 Cu1_2 1_555 1_555
O12_2 Cu2 1_555 1_555
O13_2 Cu1_2 1_555 1_555
O13 C18_2 1_555 1_555
O1_2 Cu2_2 1_555 1_555
C4_2 C8_2 1_555 1_555
C5_2 C6_2 1_555 1_555
C18_2 O12_2 1_555 1_555
H4_2 C16_2 1_555 1_555
C9_2 O3_2 1_555 1_555
O3_2 Cu3 1_555 1_555
O4_2 C9_2 1_555 1_555
Cu3_2 Cu4_2 1_555 1_555
Cu4_2 O10_2 1_555 1_555
Cu4 O4_2 1_555 1_555
O7_2 Cu3_2 1_555 1_555
C10_2 O7_2 1_555 1_555
C11_2 H7_2 1_555 1_555
C12_2 C10_2 1_555 1_555
C13_2 H8_2 1_555 1_555
C14_2 C12_2 1_555 1_555
H9_2 C14_2 1_555 1_555
C15_2 C13_2 1_555 1_555
O9_2 Cu3 1_555 1_555
O10_2 C10_2 1_555 1_555
C17_2 C9_2 1_555 1_555
O14_2 Cu3 1_555 1_555
O16_2 Cu3 1_555 1_555
H11_2 O16_2 1_555 1_555
H12_2 O16_2 1_555 1_555
C11_2 C12_2 1_555 1_555
C11_2 C17_2 1_555 1_555
C13_2 C17_2 1_555 1_555
C14_2 C15_2 1_555 1_555
C15_2 C16_2 1_555 1_555
H4_3 C16_3 1_555 1_555
C9_3 O3_3 1_555 1_555
O3_3 Cu3_2 1_555 1_555
O4_3 C9_3 1_555 1_555
Cu6 O10_3 1_555 1_555
Cu4_2 O4_3 1_555 1_555
C10_3 O8 1_555 1_555
C11_3 H7_3 1_555 1_555
C12_3 C10_3 1_555 1_555
C13_3 H8_3 1_555 1_555
C14_3 C12_3 1_555 1_555
H9_3 C14_3 1_555 1_555
C15_3 C13_3 1_555 1_555
O9_3 Cu3_2 1_555 1_555
O10_3 C10_3 1_555 1_555
C17_3 C9_3 1_555 1_555
O14_3 Cu3_2 1_555 1_555
O16_3 Cu3_2 1_555 1_555
H11_3 O16_3 1_555 1_555
H12_3 O16_3 1_555 1_555
C11_3 C12_3 1_555 1_555
C11_3 C17_3 1_555 1_555
C13_3 C17_3 1_555 1_555
C14_3 C15_3 1_555 1_555
C15_3 C16_3 1_555 1_555
Cu8 O2_3 1_555 1_555
O1_3 C1_3 1_555 1_555
C1_3 C3_3 1_555 1_555
C2_3 H1_3 1_555 1_555
C3_3 C2_3 1_555 1_555
C4_3 H2_3 1_555 1_555
C5_3 C3_3 1_555 1_555
H3_3 C5_3 1_555 1_555
C6_3 C4_3 1_555 1_555
C7_3 C6_3 1_555 1_555
O2_3 C1_3 1_555 1_555
C8_3 C2_3 1_555 1_555
O5_3 Cu8 1_555 1_555
H5_3 O5_3 1_555 1_555
H6_3 O5_3 1_555 1_555
O6_3 Cu8 1_555 1_555
H10_3 C7_3 1_555 1_555
C18_3 C8_3 1_555 1_555
O11_3 Cu8 1_555 1_555
O12_3 Cu2_2 1_555 1_555
O13_2 C18_3 1_555 1_555
O1_3 Cu7 1_555 1_555
C4_3 C8_3 1_555 1_555
C5_3 C6_3 1_555 1_555
C18_3 O12_3 1_555 1_555
Cu2 O10_4 1_555 1_555
C10_4 O6 1_555 1_555
O10_4 C10_4 1_555 1_555
O1_4 C1_4 1_555 1_555
C1_4 C3_4 1_555 1_555
C2_4 H1_4 1_555 1_555
C3_4 C2_4 1_555 1_555
C4_4 H2_4 1_555 1_555
C5_4 C3_4 1_555 1_555
H3_4 C5_4 1_555 1_555
C6_4 C4_4 1_555 1_555
C7_4 C6_4 1_555 1_555
H4_4 C16_4 1_555 1_555
O2_4 C1_4 1_555 1_555
C8_4 C2_4 1_555 1_555
C11_4 H7_4 1_555 1_555
C13_4 H8_4 1_555 1_555
C14_4 C12_4 1_555 1_555
H9_4 C14_4 1_555 1_555
C15_4 C13_4 1_555 1_555
C16_4 C7_4 1_555 1_555
H10_4 C7_4 1_555 1_555
C18_4 C8_4 1_555 1_555
O12_4 Cu7_2 1_555 1_555
O15_2 C18_4 1_555 1_555
O1_4 Cu2_3 1_555 1_555
C4_4 C8_4 1_555 1_555
C5_4 C6_4 1_555 1_555
C11_4 C12_4 1_555 1_555
C11_4 C17_4 1_555 1_555
C13_4 C17_4 1_555 1_555
C14_4 C15_4 1_555 1_555
C15_4 C16_4 1_555 1_555
C18_4 O12_4 1_555 1_555
C9_4 O11_3 1_555 1_555
O4_4 C9_4 1_555 1_555
O5_4 Cu1_3 1_555 1_555
H5_4 O5_4 1_555 1_555
H6_4 O5_4 1_555 1_555
Cu7 O4_4 1_555 1_555
O6_4 Cu1_3 1_555 1_555
O11_4 Cu1_3 1_555 1_555
Cu1_4 O2_5 1_555 1_555
O1_5 C1_5 1_555 1_555
C1_5 C3_5 1_555 1_555
C2_5 H1_5 1_555 1_555
C3_5 C2_5 1_555 1_555
C4_5 H2_5 1_555 1_555
C5_5 C3_5 1_555 1_555
H3_5 C5_5 1_555 1_555
C6_5 C4_5 1_555 1_555
C7_5 C6_5 1_555 1_555
H4_5 C16_5 1_555 1_555
O2_5 C1_5 1_555 1_555
C8_5 C2_5 1_555 1_555
C9_5 O11 1_555 1_555
O4_5 C9_5 1_555 1_555
O5_5 Cu1_4 1_555 1_555
H5_5 O5_5 1_555 1_555
H6_5 O5_5 1_555 1_555
Cu2_4 Cu1_4 1_555 1_555
Cu2 O4_5 1_555 1_555
O6_5 Cu1_4 1_555 1_555
C11_5 H7_5 1_555 1_555
C13_5 H8_5 1_555 1_555
C14_5 C12_5 1_555 1_555
H9_5 C14_5 1_555 1_555
C15_5 C13_5 1_555 1_555
C16_5 C7_5 1_555 1_555
H10_5 C7_5 1_555 1_555
C17_5 C9_5 1_555 1_555
C18_5 C8_5 1_555 1_555
O11_5 Cu1_4 1_555 1_555
O12_5 Cu2_3 1_555 1_555
O13_4 Cu1_4 1_555 1_555
O13_3 C18_5 1_555 1_555
O1_5 Cu2_4 1_555 1_555
C4_5 C8_5 1_555 1_555
C5_5 C6_5 1_555 1_555
C11_5 C12_5 1_555 1_555
C11_5 C17_5 1_555 1_555
C13_5 C17_5 1_555 1_555
C14_5 C15_5 1_555 1_555
C15_5 C16_5 1_555 1_555
C18_5 O12_5 1_555 1_555
Cu2_2 O10_5 1_555 1_555
C10_5 O6_2 1_555 1_555
O10_5 C10_5 1_555 1_555
C9_6 O11_2 1_555 1_555
O4_6 C9_6 1_555 1_555
O5_6 Cu8_2 1_555 1_555
H5_6 O5_6 1_555 1_555
H6_6 O5_6 1_555 1_555
Cu2_2 O4_6 1_555 1_555
O6_6 Cu8_2 1_555 1_555
O11_6 Cu8_2 1_555 1_555
O1_6 C1_6 1_555 1_555
C1_6 C3_6 1_555 1_555
C2_6 H1_6 1_555 1_555
C3_6 C2_6 1_555 1_555
C4_6 H2_6 1_555 1_555
C5_6 C3_6 1_555 1_555
H3_6 C5_6 1_555 1_555
C6_6 C4_6 1_555 1_555
C7_6 C6_6 1_555 1_555
H4_6 C16_6 1_555 1_555
O2_6 C1_6 1_555 1_555
C8_6 C2_6 1_555 1_555
Cu7 O10_6 1_555 1_555
C10_6 O6_3 1_555 1_555
C11_6 H7_6 1_555 1_555
C12_6 C10_6 1_555 1_555
C13_6 H8_6 1_555 1_555
C14_6 C12_6 1_555 1_555
H9_6 C14_6 1_555 1_555
C15_6 C13_6 1_555 1_555
C16_6 C7_6 1_555 1_555
H10_6 C7_6 1_555 1_555
O10_6 C10_6 1_555 1_555
C18_6 C8_6 1_555 1_555
O12_6 Cu2_4 1_555 1_555
O13_4 C18_6 1_555 1_555
O1_6 Cu7_2 1_555 1_555
C4_6 C8_6 1_555 1_555
C5_6 C6_6 1_555 1_555
C11_6 C12_6 1_555 1_555
C11_6 C17_6 1_555 1_555
C13_6 C17_6 1_555 1_555
C14_6 C15_6 1_555 1_555
C15_6 C16_6 1_555 1_555
C18_6 O12_6 1_555 1_555
O12_7 Cu6 1_555 1_555
O14 C18_7 1_555 1_555
C18_7 O12_7 1_555 1_555
C2_7 H1_7 1_555 1_555
C3_7 C2_7 1_555 1_555
C4_7 H2_7 1_555 1_555
C5_7 C3_7 1_555 1_555
H3_7 C5_7 1_555 1_555
C6_7 C4_7 1_555 1_555
C7_7 C6_7 1_555 1_555
H4_7 C16_7 1_555 1_555
C8_7 C2_7 1_555 1_555
C9_7 O11_6 1_555 1_555
O4_7 C9_7 1_555 1_555
C10_7 O6_4 1_555 1_555
C11_7 H7_7 1_555 1_555
C12_7 C10_7 1_555 1_555
C13_7 H8_7 1_555 1_555
C14_7 C12_7 1_555 1_555
H9_7 C14_7 1_555 1_555
C15_7 C13_7 1_555 1_555
C16_7 C7_7 1_555 1_555
H10_7 C7_7 1_555 1_555
O10_7 C10_7 1_555 1_555
C17_7 C9_7 1_555 1_555
C4_7 C8_7 1_555 1_555
C5_7 C6_7 1_555 1_555
C11_7 C12_7 1_555 1_555
C11_7 C17_7 1_555 1_555
C13_7 C17_7 1_555 1_555
C14_7 C15_7 1_555 1_555
C15_7 C16_7 1_555 1_555
O1_7 C1_7 1_555 1_555
O9_2 C1_7 1_555 1_555
O1_7 Cu4 1_555 1_555
O1_8 C1_8 1_555 1_555
O9_3 C1_8 1_555 1_555
O1_8 Cu4_2 1_555 1_555
C2_8 H1_8 1_555 1_555
C3_8 C2_8 1_555 1_555
C4_8 H2_8 1_555 1_555
C5_8 C3_8 1_555 1_555
H3_8 C5_8 1_555 1_555
C6_8 C4_8 1_555 1_555
C7_8 C6_8 1_555 1_555
H4_8 C16_8 1_555 1_555
C8_8 C2_8 1_555 1_555
C9_8 O11_4 1_555 1_555
O4_8 C9_8 1_555 1_555
Cu2_4 O10_8 1_555 1_555
C10_8 O6_5 1_555 1_555
C11_8 H7_8 1_555 1_555
C12_8 C10_8 1_555 1_555
C13_8 H8_8 1_555 1_555
C14_8 C12_8 1_555 1_555
H9_8 C14_8 1_555 1_555
C15_8 C13_8 1_555 1_555
C16_8 C7_8 1_555 1_555
H10_8 C7_8 1_555 1_555
O10_8 C10_8 1_555 1_555
C17_8 C9_8 1_555 1_555
C18_8 C8_8 1_555 1_555
O12_8 Cu4 1_555 1_555
O14_2 C18_8 1_555 1_555
C4_8 C8_8 1_555 1_555
C5_8 C6_8 1_555 1_555
C11_8 C12_8 1_555 1_555
C11_8 C17_8 1_555 1_555
C13_8 C17_8 1_555 1_555
C14_8 C15_8 1_555 1_555
C15_8 C16_8 1_555 1_555
C18_8 O12_8 1_555 1_555
O1_9 C1_9 1_555 1_555
C1_9 C3_9 1_555 1_555
C2_9 H1_9 1_555 1_555
C3_9 C2_9 1_555 1_555
C4_9 H2_9 1_555 1_555
C5_9 C3_9 1_555 1_555
H3_9 C5_9 1_555 1_555
C6_9 C4_9 1_555 1_555
C7_9 C6_9 1_555 1_555
H4_9 C16_9 1_555 1_555
O9 C1_9 1_555 1_555
C8_9 C2_9 1_555 1_555
C9_9 O11_5 1_555 1_555
O4_9 C9_9 1_555 1_555
Cu2_4 O4_9 1_555 1_555
C10_9 O6_6 1_555 1_555
C11_9 H7_9 1_555 1_555
C12_9 C10_9 1_555 1_555
C13_9 H8_9 1_555 1_555
C14_9 C12_9 1_555 1_555
H9_9 C14_9 1_555 1_555
C15_9 C13_9 1_555 1_555
C16_9 C7_9 1_555 1_555
H10_9 C7_9 1_555 1_555
O10_9 C10_9 1_555 1_555
C17_9 C9_9 1_555 1_555
O1_9 Cu6 1_555 1_555
C4_9 C8_9 1_555 1_555
C5_9 C6_9 1_555 1_555
C11_9 C12_9 1_555 1_555
C11_9 C17_9 1_555 1_555
C13_9 C17_9 1_555 1_555
C14_9 C15_9 1_555 1_555
C15_9 C16_9 1_555 1_555
O12_9 Cu4_2 1_555 1_555
O14_3 C18_9 1_555 1_555
C18_9 O12_9 1_555 1_555
O16_4 Cu7 1_555 1_555
H11_4 O16_4 1_555 1_555
H12_4 O16_4 1_555 1_555
O5_7 Cu4 1_555 1_555
H5_7 O5_7 1_555 1_555
H6_7 O5_7 1_555 1_555
O16_5 Cu2 1_555 1_555
H11_5 O16_5 1_555 1_555
H12_5 O16_5 1_555 1_555
O5_8 Cu4_2 1_555 1_555
H5_8 O5_8 1_555 1_555
H6_8 O5_8 1_555 1_555
O5_9 Cu6 1_555 1_555
H5_9 O5_9 1_555 1_555
H6_9 O5_9 1_555 1_555
O16_6 Cu2_2 1_555 1_555
H11_6 O16_6 1_555 1_555
H12_6 O16_6 1_555 1_555
O5_10 Cu2_3 1_555 1_555
H5_10 O5_10 1_555 1_555
H6_10 O5_10 1_555 1_555
O5_11 Cu2_4 1_555 1_555
H5_11 O5_11 1_555 1_555
H6_11 O5_11 1_555 1_555
O5_12 Cu7_2 1_555 1_555
H5_12 O5_12 1_555 1_555
H6_12 O5_12 1_555 1_555

#END
