
###############################################################################
#
# This file contains modified crystal structure data generated from the
# MOF subset of the Cambridge Structural Database (CSD) v543 
# hosted by the Cambridge Crystallographic Data Centre (CCDC).
#
# This work is licensed under the Creative Commons
# Attribution-NonCommercial-ShareAlike 4.0 International License.
# To view a copy of this license, visit
# http://creativecommons.org/licenses/by-nc-sa/4.0/
# or send a letter to
# Creative Commons, PO Box 1866, Mountain View, CA 94042, USA.
#
# CIF created using the CSD Python API on 29 September 2022
# The structure has been converted into the P1 space group
# The structure has a 3D framework
# The original CSD entry MOCLUO is in the monoclinic crystal system
# The framework has been calculated to contain at least 10.0% void space
# The void calculation uses a probe of radius 1.32A, grid spacing 0.4
#
###############################################################################

data_MOCLUO
_chemical_formula_moiety         '(C128 H124 Br4 F24 N12 O46 S8 Tb4)n'
_symmetry_cell_setting           triclinic
_symmetry_space_group_name_H-M   'P 1'
_symmetry_Int_Tables_number      1
_space_group_name_Hall           'P 1'
loop_
_symmetry_equiv_pos_site_id
_symmetry_equiv_pos_as_xyz
1 x,y,z
_cell_length_a                   18.5943(2)
_cell_length_b                   25.8101(4)
_cell_length_c                   9.77200(13)
_cell_angle_alpha                90
_cell_angle_beta                 102.3429(13)
_cell_angle_gamma                90
_cell_volume                     4581.38
loop_
_atom_site_label
_atom_site_type_symbol
_atom_site_fract_x
_atom_site_fract_y
_atom_site_fract_z
S1 S 0.49612(9) 0.14802(6) 0.86308(15)
F1 F 0.5384(2) 0.23195(18) 0.7539(5)
F2 F 0.5600(4) 0.2324(2) 0.9759(6)
F3 F 0.6268(2) 0.1870(2) 0.8682(6)
O1 O 0.4978(3) 0.1229(2) 0.7353(5)
O2 O 0.5271(5) 0.1187(2) 0.9830(6)
C1 C 0.5584(4) 0.2032(3) 0.8670(7)
O3 O 0.4265(4) 0.1723(3) 0.8622(10)
S1_2 S 0.50388(9) 0.64802(6) 0.63692(15)
F1_2 F 0.4616(2) 0.73195(18) 0.7461(5)
F2_2 F 0.4400(4) 0.7324(2) 0.5241(6)
F3_2 F 0.3732(2) 0.6870(2) 0.6318(6)
O1_2 O 0.5022(3) 0.6229(2) 0.7647(5)
O2_2 O 0.4729(5) 0.6187(2) 0.5170(6)
C1_2 C 0.4416(4) 0.7032(3) 0.6330(7)
O3_2 O 0.5735(4) 0.6723(3) 0.6378(10)
S1_3 S 0.50388(9) 0.85198(6) 0.13692(15)
F1_3 F 0.4616(2) 0.76805(18) 0.2461(5)
F2_3 F 0.4400(4) 0.7676(2) 0.0241(6)
F3_3 F 0.3732(2) 0.8130(2) 0.1318(6)
O1_3 O 0.5022(3) 0.8771(2) 0.2647(5)
O2_3 O 0.4729(5) 0.8813(2) 0.0170(6)
C1_3 C 0.4416(4) 0.7968(3) 0.1330(7)
O3_3 O 0.5735(4) 0.8277(3) 0.1378(10)
S1_4 S 0.49612(9) 0.35198(6) 0.36308(15)
F1_4 F 0.5384(2) 0.26805(18) 0.2539(5)
F2_4 F 0.5600(4) 0.2676(2) 0.4759(6)
F3_4 F 0.6268(2) 0.3130(2) 0.3682(6)
O1_4 O 0.4978(3) 0.3771(2) 0.2353(5)
O2_4 O 0.5271(5) 0.3813(2) 0.4830(6)
C1_4 C 0.5584(4) 0.2968(3) 0.3670(7)
O3_4 O 0.4265(4) 0.3277(3) 0.3622(10)
Br1 Br 0.09648(6) 0.34515(4) 0.05747(10)
Br1_2 Br 0.90352(6) 0.84515(4) 0.44253(10)
Br1_3 Br 0.90352(6) 0.65485(4) 0.94253(10)
Br1_4 Br 0.09648(6) 0.15485(4) 0.55747(10)
F6 F 0.7366(5) 0.5700(3) 0.1473(10)
C2 C 0.7156(7) 0.5543(5) 0.0204(15)
O4 O 0.7524(4) 0.4606(3) 0.0712(8)
O5 O 0.6274(4) 0.4855(4) 0.0672(8)
F4 F 0.7732(5) 0.5636(4) 0.9584(11)
F5 F 0.6614(5) 0.5868(3) 0.9562(11)
S2 S 0.6863(5) 0.4892(2) 0.9959(10)
O6 O 0.6707(4) 0.4816(4) 0.8513(8)
F4_2 F 0.2268(5) 0.0636(4) 0.5416(11)
F5_2 F 0.3386(5) 0.0868(3) 0.5438(11)
F6_2 F 0.2634(5) 0.0700(3) 0.3527(10)
C2_2 C 0.2844(7) 0.0543(5) 0.4796(15)
S2_2 S 0.3137(5) 0.9892(2) 0.5041(10)
O4_2 O 0.2476(4) 0.9606(3) 0.4288(8)
O5_2 O 0.3726(4) 0.9855(4) 0.4328(8)
O6_2 O 0.3293(4) 0.9816(4) 0.6487(8)
F4_3 F 0.2268(5) 0.4364(4) 0.0416(11)
F5_3 F 0.3386(5) 0.4132(3) 0.0438(11)
S2_3 S 0.3137(5) 0.5108(2) 0.0041(10)
O6_3 O 0.3293(4) 0.5184(4) 0.1487(8)
F6_3 F 0.2634(5) 0.4300(3) 0.8527(10)
C2_3 C 0.2844(7) 0.4457(5) 0.9796(15)
O4_3 O 0.2476(4) 0.5394(3) 0.9288(8)
O5_3 O 0.3726(4) 0.5145(4) 0.9328(8)
S2_4 S 0.6863(5) 0.0108(2) 0.4959(10)
O4_4 O 0.7524(4) 0.0394(3) 0.5712(8)
O5_4 O 0.6274(4) 0.0145(4) 0.5672(8)
O6_4 O 0.6707(4) 0.0184(4) 0.3513(8)
F4_4 F 0.7732(5) 0.9364(4) 0.4584(11)
F5_4 F 0.6614(5) 0.9132(3) 0.4562(11)
F6_4 F 0.7366(5) 0.9300(3) 0.6473(10)
C2_4 C 0.7156(7) 0.9457(5) 0.5204(15)
Tb1 Tb 0.88082(2) 0.25094(2) 0.22984(3)
O8 O 0.8024(2) 0.28722(19) 0.0369(4)
C13 C 0.6712(3) 0.3354(2) 0.0419(5)
H10 H 0.703035 0.327216 0.128938
C15 C 0.6056(3) 0.3611(2) 0.0377(5)
H12 H 0.592988 0.371735 0.122654
O13 O 0.9214(3) 0.16712(18) 0.3388(5)
H28 H 0.923559 0.143471 0.274807
H29 H 0.890860 0.155961 0.390088
O14 O 0.9407(2) 0.33075(18) 0.1815(5)
H30 H 0.991383 0.336240 0.185206
H31 H 0.918493 0.363210 0.154741
O15 O 0.8240(2) 0.32191(15) 0.3284(4)
O16 O 0.77831(19) 0.21463(17) 0.3039(4)
O17 O 0.8479(2) 0.18647(17) 0.0617(4)
O18 O 0.99304(17) 0.22654(15) 0.1683(3)
O19 O 0.96405(18) 0.26591(16) 0.4358(4)
O7 O 0.1760(2) 0.67809(15) 0.6716(4)
O9 O 0.77831(19) 0.28537(17) 0.8039(4)
O10 O 0.1521(2) 0.68647(17) 0.4383(4)
N1 N 0.2275(2) 0.31333(17) 0.5327(5)
N2 N 0.5596(2) 0.37141(17) 0.9151(4)
C3 C 0.2864(3) 0.4158(2) 0.3833(6)
H1 H 0.311884 0.404934 0.310066
H2 H 0.269674 0.451683 0.366503
H3 H 0.243856 0.393207 0.381747
C4 C 0.3383(3) 0.4120(2) 0.5241(6)
C5 C 0.1311(3) 0.3149(2) 0.6566(5)
H4 H 0.113974 0.322737 0.739105
C6 C 0.7629(2) 0.2953(2) 0.9189(5)
C7 C 0.3450(2) 0.36575(19) 0.6012(6)
C8 C 0.4843(4) 0.4955(3) 0.7598(10)
H5 H 0.477211 0.523171 0.689487
H6 H 0.535625 0.483841 0.778351
H7 H 0.472617 0.508639 0.846595
C9 C 0.3924(3) 0.3623(2) 0.7338(6)
C10 C 0.6897(2) 0.3216(2) 0.9163(5)
C11 C 0.1091(3) 0.2837(2) 0.4213(5)
H8 H 0.076654 0.270628 0.340030
C12 C 0.2602(3) 0.5881(2) 0.6492(7)
H9 H 0.248678 0.594006 0.738055
C14 C 0.5767(3) 0.3581(2) 0.7929(5)
H11 H 0.543962 0.366475 0.707077
C16 C 0.2464(4) 0.6086(2) 0.4068(7)
H13 H 0.225090 0.629125 0.327761
C17 C 0.4907(3) 0.4022(3) 0.9209(7)
H14 H 0.465957 0.386131 0.990428
H15 H 0.505126 0.437850 0.953114
C18 C 0.3833(3) 0.4540(2) 0.5764(7)
C19 C 0.1811(3) 0.6653(2) 0.5509(5)
C20 C 0.3073(3) 0.3181(2) 0.5307(6)
H16 H 0.312491 0.317887 0.431943
H17 H 0.333216 0.287127 0.576793
C21 C 0.2025(3) 0.3252(2) 0.6497(5)
H18 H 0.234726 0.340813 0.727358
C22 C 0.6414(3) 0.3323(2) 0.7912(5)
H19 H 0.652706 0.321996 0.704849
C23 C 0.3813(3) 0.5016(2) 0.4869(8)
H20 H 0.430043 0.518679 0.510125
H21 H 0.372230 0.490932 0.387343
C24 C 0.0838(2) 0.2927(2) 0.5416(5)
C25 C 0.4374(3) 0.4049(2) 0.7820(6)
N3 N 0.3233(3) 0.53994(19) 0.5052(6)
C26 C 0.1820(3) 0.2936(2) 0.4191(6)
H22 H 0.199887 0.286555 0.336990
C27 C 0.3075(4) 0.5484(2) 0.6316(7)
H23 H 0.328825 0.527030 0.708847
C28 C 0.2301(3) 0.6189(2) 0.5366(6)
C29 C 0.2933(4) 0.5689(3) 0.3933(8)
H24 H 0.304536 0.561831 0.304800
C30 C 0.3966(3) 0.3136(3) 0.8188(7)
H25 H 0.348560 0.296358 0.798796
H26 H 0.410265 0.322259 0.918676
H27 H 0.433733 0.290459 0.794574
C31 C 0.4340(3) 0.4505(2) 0.7056(8)
C32 C 0.0068(2) 0.27607(18) 0.5479(5)
Tb3 Tb 0.11918(2) 0.75094(2) 0.27016(3)
Tb4 Tb 0.11918(2) 0.74906(2) 0.77016(3)
Tb6 Tb 0.88082(2) 0.24906(2) 0.72984(3)
O11 O 0.99304(17) 0.27346(15) 0.6683(3)
O12 O 0.03595(18) 0.76591(16) 0.0642(4)
O11_2 O 0.00696(17) 0.77346(15) 0.8317(3)
C16_2 C 0.7536(4) 0.1086(2) 0.0932(7)
H13_2 H 0.774910 0.129125 0.172239
C23_2 C 0.6187(3) 0.0016(2) 0.0131(8)
C29_2 C 0.7067(4) 0.0689(3) 0.1067(8)
H24_2 H 0.695464 0.061831 0.195200
O7_2 O 0.8240(2) 0.17809(15) 0.8284(4)
H5_2 H 0.522789 0.023171 0.810513
H7_2 H 0.527383 0.008639 0.653405
C12_2 C 0.7398(3) 0.0881(2) 0.8508(7)
H9_2 H 0.751322 0.094006 0.761945
C19_2 C 0.8189(3) 0.1653(2) 0.9491(5)
H20_2 H 0.569957 0.018679 0.989875
N3_2 N 0.6767(3) 0.03994(19) 0.9948(6)
C27_2 C 0.6925(4) 0.0484(2) 0.8684(7)
H23_2 H 0.671175 0.027030 0.791153
C28_2 C 0.7699(3) 0.1189(2) 0.9634(6)
O8_2 O 0.1976(2) 0.78722(19) 0.4631(4)
O9_2 O 0.22169(19) 0.78537(17) 0.6961(4)
N1_2 N 0.7725(2) 0.81333(17) 0.9673(5)
N2_2 N 0.4404(2) 0.87141(17) 0.5849(4)
C4_2 C 0.6617(3) 0.9120(2) 0.9759(6)
C5_2 C 0.8689(3) 0.8149(2) 0.8434(5)
H4_2 H 0.886026 0.822737 0.760895
C6_2 C 0.2371(2) 0.7953(2) 0.5811(5)
C7_2 C 0.6550(2) 0.86575(19) 0.8988(6)
C8_2 C 0.5157(4) 0.9955(3) 0.7402(10)
H6_2 H 0.464375 0.983841 0.721649
C9_2 C 0.6076(3) 0.8623(2) 0.7662(6)
C10_2 C 0.3103(2) 0.8216(2) 0.5837(5)
C13_2 C 0.3288(3) 0.8354(2) 0.4581(5)
H10_2 H 0.296965 0.827216 0.371062
C14_2 C 0.4233(3) 0.8581(2) 0.7071(5)
H11_2 H 0.456038 0.866475 0.792923
C15_2 C 0.3944(3) 0.8611(2) 0.4623(5)
H12_2 H 0.407012 0.871735 0.377346
C17_2 C 0.5093(3) 0.9022(3) 0.5791(7)
H14_2 H 0.534043 0.886131 0.509572
H15_2 H 0.494874 0.937850 0.546886
C18_2 C 0.6167(3) 0.9540(2) 0.9236(7)
C20_2 C 0.6927(3) 0.8181(2) 0.9693(6)
H17_2 H 0.666784 0.787127 0.923207
C21_2 C 0.7975(3) 0.8252(2) 0.8503(5)
H18_2 H 0.765274 0.840813 0.772642
C22_2 C 0.3586(3) 0.8323(2) 0.7088(5)
H19_2 H 0.347294 0.821996 0.795151
C24_2 C 0.9162(2) 0.7927(2) 0.9584(5)
C25_2 C 0.5626(3) 0.9049(2) 0.7180(6)
C30_2 C 0.6034(3) 0.8136(3) 0.6812(7)
H25_2 H 0.651440 0.796358 0.701204
H26_2 H 0.589735 0.822259 0.581324
H27_2 H 0.566267 0.790459 0.705426
C31_2 C 0.5660(3) 0.9505(2) 0.7944(8)
C32_2 C 0.9932(2) 0.77607(18) 0.9521(5)
O13_2 O 0.0786(3) 0.66712(18) 0.1612(5)
H28_2 H 0.076441 0.643471 0.225193
H29_2 H 0.109140 0.655961 0.109912
O14_2 O 0.0593(2) 0.83075(18) 0.3185(5)
H30_2 H 0.008617 0.836240 0.314794
H31_2 H 0.081507 0.863210 0.345259
O15_2 O 0.1760(2) 0.82191(15) 0.1716(4)
O16_2 O 0.22169(19) 0.71463(17) 0.1961(4)
O18_2 O 0.00696(17) 0.72654(15) 0.3317(3)
O12_2 O 0.03595(18) 0.73409(16) 0.5642(4)
O10_2 O 0.8479(2) 0.31353(17) 0.5617(4)
N1_3 N 0.7725(2) 0.68667(17) 0.4673(5)
N2_3 N 0.4404(2) 0.62859(17) 0.0849(4)
C3_2 C 0.7136(3) 0.5842(2) 0.6167(6)
H1_2 H 0.688116 0.595066 0.689934
H2_2 H 0.730326 0.548317 0.633497
H3_2 H 0.756144 0.606793 0.618253
C4_3 C 0.6617(3) 0.5880(2) 0.4759(6)
C5_3 C 0.8689(3) 0.6851(2) 0.3434(5)
H4_3 H 0.886026 0.677263 0.260895
C6_3 C 0.2371(2) 0.7047(2) 0.0811(5)
C7_3 C 0.6550(2) 0.63425(19) 0.3988(6)
C8_3 C 0.5157(4) 0.5045(3) 0.2402(10)
H5_3 H 0.522789 0.476829 0.310513
H6_3 H 0.464375 0.516159 0.221649
H7_3 H 0.527383 0.491361 0.153405
C9_3 C 0.6076(3) 0.6377(2) 0.2662(6)
C10_3 C 0.3103(2) 0.6784(2) 0.0837(5)
C11_2 C 0.8909(3) 0.7163(2) 0.5787(5)
H8_2 H 0.923346 0.729372 0.659970
C12_3 C 0.7398(3) 0.4119(2) 0.3508(7)
H9_3 H 0.751322 0.405994 0.261945
C14_3 C 0.4233(3) 0.6419(2) 0.2071(5)
H11_3 H 0.456038 0.633525 0.292923
C16_3 C 0.7536(4) 0.3914(2) 0.5932(7)
H13_3 H 0.774910 0.370875 0.672239
C17_3 C 0.5093(3) 0.5978(3) 0.0791(7)
H14_3 H 0.534043 0.613869 0.009572
H15_3 H 0.494874 0.562150 0.046886
C18_3 C 0.6167(3) 0.5460(2) 0.4236(7)
C19_3 C 0.8189(3) 0.3347(2) 0.4491(5)
C20_3 C 0.6927(3) 0.6819(2) 0.4693(6)
H16_2 H 0.687509 0.682113 0.568057
H17_3 H 0.666784 0.712873 0.423207
C21_3 C 0.7975(3) 0.6748(2) 0.3503(5)
H18_3 H 0.765274 0.659187 0.272642
C22_3 C 0.3586(3) 0.6677(2) 0.2088(5)
H19_3 H 0.347294 0.678004 0.295151
C23_3 C 0.6187(3) 0.4984(2) 0.5131(8)
H20_3 H 0.569957 0.481321 0.489875
H21_2 H 0.627770 0.509068 0.612657
C24_3 C 0.9162(2) 0.7073(2) 0.4584(5)
C25_3 C 0.5626(3) 0.5951(2) 0.2180(6)
N3_3 N 0.6767(3) 0.46006(19) 0.4948(6)
C26_2 C 0.8180(3) 0.7064(2) 0.5809(6)
H22_2 H 0.800113 0.713445 0.663010
C27_3 C 0.6925(4) 0.4516(2) 0.3684(7)
H23_3 H 0.671175 0.472970 0.291153
C28_3 C 0.7699(3) 0.3811(2) 0.4634(6)
C29_3 C 0.7067(4) 0.4311(3) 0.6067(8)
H24_3 H 0.695464 0.438169 0.695200
C30_3 C 0.6034(3) 0.6864(3) 0.1812(7)
H25_3 H 0.651440 0.703642 0.201204
H26_3 H 0.589735 0.677741 0.081324
H27_3 H 0.566267 0.709541 0.205426
C31_3 C 0.5660(3) 0.5495(2) 0.2944(8)
C32_3 C 0.9932(2) 0.72393(18) 0.4521(5)
O8_3 O 0.1976(2) 0.71278(19) 0.9631(4)
C13_3 C 0.3288(3) 0.6646(2) 0.9581(5)
H10_3 H 0.296965 0.672784 0.871062
C15_3 C 0.3944(3) 0.6389(2) 0.9623(5)
H12_3 H 0.407012 0.628265 0.877346
O13_3 O 0.0786(3) 0.83288(18) 0.6612(5)
H28_3 H 0.076441 0.856529 0.725193
H29_3 H 0.109140 0.844039 0.609912
O14_3 O 0.0593(2) 0.66925(18) 0.8185(5)
H30_3 H 0.008617 0.663760 0.814794
H31_3 H 0.081507 0.636790 0.845259
O17_2 O 0.1521(2) 0.81353(17) 0.9383(4)
O8_4 O 0.8024(2) 0.21278(19) 0.5369(4)
N1_4 N 0.2275(2) 0.18667(17) 0.0327(5)
N2_4 N 0.5596(2) 0.12859(17) 0.4151(4)
C4_4 C 0.3383(3) 0.0880(2) 0.0241(6)
C5_4 C 0.1311(3) 0.1851(2) 0.1566(5)
H4_4 H 0.113974 0.177263 0.239105
C6_4 C 0.7629(2) 0.2047(2) 0.4189(5)
C7_4 C 0.3450(2) 0.13425(19) 0.1012(6)
C8_4 C 0.4843(4) 0.0045(3) 0.2598(10)
H6_4 H 0.535625 0.016159 0.278351
C9_4 C 0.3924(3) 0.1377(2) 0.2338(6)
C10_4 C 0.6897(2) 0.1784(2) 0.4163(5)
C13_4 C 0.6712(3) 0.1646(2) 0.5419(5)
H10_4 H 0.703035 0.172784 0.628938
C14_4 C 0.5767(3) 0.1419(2) 0.2929(5)
H11_4 H 0.543962 0.133525 0.207077
C15_4 C 0.6056(3) 0.1389(2) 0.5377(5)
H12_4 H 0.592988 0.128265 0.622654
C17_4 C 0.4907(3) 0.0978(3) 0.4209(7)
H14_4 H 0.465957 0.113869 0.490428
H15_4 H 0.505126 0.062150 0.453114
C18_4 C 0.3833(3) 0.0460(2) 0.0764(7)
C20_4 C 0.3073(3) 0.1819(2) 0.0307(6)
H17_4 H 0.333216 0.212873 0.076793
C21_4 C 0.2025(3) 0.1748(2) 0.1497(5)
H18_4 H 0.234726 0.159187 0.227358
C22_4 C 0.6414(3) 0.1677(2) 0.2912(5)
H19_4 H 0.652706 0.178004 0.204849
C24_4 C 0.0838(2) 0.2073(2) 0.0416(5)
C25_4 C 0.4374(3) 0.0951(2) 0.2820(6)
C30_4 C 0.3966(3) 0.1864(3) 0.3188(7)
H25_4 H 0.348560 0.203642 0.298796
H26_4 H 0.410265 0.177741 0.418676
H27_4 H 0.433733 0.209541 0.294574
C31_4 C 0.4340(3) 0.0495(2) 0.2056(8)
C32_4 C 0.0068(2) 0.22393(18) 0.0479(5)
O13_4 O 0.9214(3) 0.33288(18) 0.8388(5)
H28_4 H 0.923559 0.356529 0.774807
H29_4 H 0.890860 0.344039 0.890088
O14_4 O 0.9407(2) 0.16925(18) 0.6815(5)
H30_4 H 0.991383 0.163760 0.685206
H31_4 H 0.918493 0.136790 0.654741
O19_2 O 0.96405(18) 0.23409(16) 0.9358(4)
H5_4 H 0.477211 0.976829 0.189487
H7_4 H 0.472617 0.991361 0.346595
C12_4 C 0.2602(3) 0.9119(2) 0.1492(7)
H9_4 H 0.248678 0.905994 0.238055
C19_4 C 0.1811(3) 0.8347(2) 0.0509(5)
H20_4 H 0.430043 0.981321 0.010125
N3_4 N 0.3233(3) 0.96006(19) 0.0052(6)
C27_4 C 0.3075(4) 0.9516(2) 0.1316(7)
H23_4 H 0.328825 0.972970 0.208847
C28_4 C 0.2301(3) 0.8811(2) 0.0366(6)
C16_4 C 0.2464(4) 0.8914(2) 0.9068(7)
H13_4 H 0.225090 0.870875 0.827761
C23_4 C 0.3813(3) 0.9984(2) 0.9869(8)
C29_4 C 0.2933(4) 0.9311(3) 0.8933(8)
H24_4 H 0.304536 0.938169 0.804800
C3_3 C 0.7136(3) 0.9158(2) 0.1167(6)
H1_3 H 0.688116 0.904934 0.189934
H2_3 H 0.730326 0.951683 0.133497
H3_3 H 0.756144 0.893207 0.118253
C11_3 C 0.8909(3) 0.7837(2) 0.0787(5)
H8_3 H 0.923346 0.770628 0.159970
H16_3 H 0.687509 0.817887 0.068057
H21_3 H 0.627770 0.990932 0.112657
C26_3 C 0.8180(3) 0.7936(2) 0.0809(6)
H22_3 H 0.800113 0.786555 0.163010
C3_4 C 0.2864(3) 0.0842(2) 0.8833(6)
H1_4 H 0.311884 0.095066 0.810066
H2_4 H 0.269674 0.048317 0.866503
H3_4 H 0.243856 0.106793 0.881747
C11_4 C 0.1091(3) 0.2163(2) 0.9213(5)
H8_4 H 0.076654 0.229372 0.840030
H16_4 H 0.312491 0.182113 0.931943
H21_4 H 0.372230 0.009068 0.887343
C26_4 C 0.1820(3) 0.2064(2) 0.9191(6)
H22_4 H 0.199887 0.213445 0.836990
loop_
_geom_bond_atom_site_label_1
_geom_bond_atom_site_label_2
_geom_bond_site_symmetry_1
_geom_bond_site_symmetry_2
S1 O1 1_555 1_555
F1 C1 1_555 1_555
F2 C1 1_555 1_555
F3 C1 1_555 1_555
O2 S1 1_555 1_555
C1 S1 1_555 1_555
O3 S1 1_555 1_555
S1_2 O1_2 1_555 1_555
F1_2 C1_2 1_555 1_555
F2_2 C1_2 1_555 1_555
F3_2 C1_2 1_555 1_555
O2_2 S1_2 1_555 1_555
C1_2 S1_2 1_555 1_555
O3_2 S1_2 1_555 1_555
S1_3 O1_3 1_555 1_555
F1_3 C1_3 1_555 1_555
F2_3 C1_3 1_555 1_555
F3_3 C1_3 1_555 1_555
O2_3 S1_3 1_555 1_555
C1_3 S1_3 1_555 1_555
O3_3 S1_3 1_555 1_555
S1_4 O1_4 1_555 1_555
F1_4 C1_4 1_555 1_555
F2_4 C1_4 1_555 1_555
F3_4 C1_4 1_555 1_555
O2_4 S1_4 1_555 1_555
C1_4 S1_4 1_555 1_555
O3_4 S1_4 1_555 1_555
F6 C2 1_555 1_555
O6 S2 1_555 1_555
F4_2 C2_2 1_555 1_555
F5_2 C2_2 1_555 1_555
F6_2 C2_2 1_555 1_555
S2_2 O4_2 1_555 1_555
O5_2 S2_2 1_555 1_555
O6_2 S2_2 1_555 1_555
O6_3 S2_3 1_555 1_555
F6_3 C2_3 1_555 1_555
S2_4 O4_4 1_555 1_555
O5_4 S2_4 1_555 1_555
O6_4 S2_4 1_555 1_555
F4_4 C2_4 1_555 1_555
F5_4 C2_4 1_555 1_555
F6_4 C2_4 1_555 1_555
Tb1 O8 1_555 1_555
C13 H10 1_555 1_555
H12 C15 1_555 1_555
O13 Tb1 1_555 1_555
H28 O13 1_555 1_555
H29 O13 1_555 1_555
O14 Tb1 1_555 1_555
H30 O14 1_555 1_555
H31 O14 1_555 1_555
O15 Tb1 1_555 1_555
O16 Tb1 1_555 1_555
O17 Tb1 1_555 1_555
O18 Tb1 1_555 1_555
O19 Tb1 1_555 1_555
C13 C15 1_555 1_555
O7 C19 1_555 1_555
O9 C6 1_555 1_555
O10 C19 1_555 1_555
N1 C20 1_555 1_555
N2 C14 1_555 1_555
C3 H1 1_555 1_555
H2 C3 1_555 1_555
H3 C3 1_555 1_555
C4 C3 1_555 1_555
C5 H4 1_555 1_555
C6 C10 1_555 1_555
C7 C4 1_555 1_555
C8 H5 1_555 1_555
H6 C8 1_555 1_555
H7 C8 1_555 1_555
C9 C7 1_555 1_555
C11 H8 1_555 1_555
C12 H9 1_555 1_555
C14 H11 1_555 1_555
C16 H13 1_555 1_555
C17 N2 1_555 1_555
H14 C17 1_555 1_555
H15 C17 1_555 1_555
C18 C4 1_555 1_555
C19 C28 1_555 1_555
C20 C7 1_555 1_555
H16 C20 1_555 1_555
H17 C20 1_555 1_555
C21 N1 1_555 1_555
H18 C21 1_555 1_555
C22 C10 1_555 1_555
H19 C22 1_555 1_555
C23 C18 1_555 1_555
H20 C23 1_555 1_555
H21 C23 1_555 1_555
C24 C5 1_555 1_555
C25 C9 1_555 1_555
N3 C23 1_555 1_555
C26 N1 1_555 1_555
H22 C26 1_555 1_555
C27 C12 1_555 1_555
H23 C27 1_555 1_555
C28 C12 1_555 1_555
C29 C16 1_555 1_555
H24 C29 1_555 1_555
C30 C9 1_555 1_555
H25 C30 1_555 1_555
H26 C30 1_555 1_555
H27 C30 1_555 1_555
C31 C8 1_555 1_555
C32 C24 1_555 1_555
Tb3 O10 1_555 1_555
Tb4 O7 1_555 1_555
Tb6 O9 1_555 1_555
C5 C21 1_555 1_555
C11 C24 1_555 1_555
C11 C26 1_555 1_555
C14 C22 1_555 1_555
C16 C28 1_555 1_555
C17 C25 1_555 1_555
C18 C31 1_555 1_555
C25 C31 1_555 1_555
N3 C27 1_555 1_555
N3 C29 1_555 1_555
Tb6 O11 1_555 1_555
Tb3 O12 1_555 1_555
Tb4 O11_2 1_555 1_555
C16_2 H13_2 1_555 1_555
C29_2 C16_2 1_555 1_555
H24_2 C29_2 1_555 1_555
O7_2 C19_2 1_555 1_555
C12_2 H9_2 1_555 1_555
C19_2 C28_2 1_555 1_555
C27_2 C12_2 1_555 1_555
H23_2 C27_2 1_555 1_555
C28_2 C12_2 1_555 1_555
Tb6 O7_2 1_555 1_555
N3_2 C27_2 1_555 1_555
Tb3 O8_2 1_555 1_555
O8_2 C6_2 1_555 1_555
O9_2 C6_2 1_555 1_555
N1_2 C20_2 1_555 1_555
N2_2 C14_2 1_555 1_555
C5_2 H4_2 1_555 1_555
C6_2 C10_2 1_555 1_555
C7_2 C4_2 1_555 1_555
H6_2 C8_2 1_555 1_555
C9_2 C7_2 1_555 1_555
C10_2 C13_2 1_555 1_555
C13_2 H10_2 1_555 1_555
C14_2 H11_2 1_555 1_555
C15_2 N2_2 1_555 1_555
H12_2 C15_2 1_555 1_555
C17_2 N2_2 1_555 1_555
H14_2 C17_2 1_555 1_555
H15_2 C17_2 1_555 1_555
C18_2 C4_2 1_555 1_555
C20_2 C7_2 1_555 1_555
H17_2 C20_2 1_555 1_555
C21_2 N1_2 1_555 1_555
H18_2 C21_2 1_555 1_555
C22_2 C10_2 1_555 1_555
H19_2 C22_2 1_555 1_555
C24_2 C5_2 1_555 1_555
C25_2 C9_2 1_555 1_555
C30_2 C9_2 1_555 1_555
H25_2 C30_2 1_555 1_555
H26_2 C30_2 1_555 1_555
H27_2 C30_2 1_555 1_555
C31_2 C8_2 1_555 1_555
C32_2 C24_2 1_555 1_555
O13_2 Tb3 1_555 1_555
H28_2 O13_2 1_555 1_555
H29_2 O13_2 1_555 1_555
O14_2 Tb3 1_555 1_555
H30_2 O14_2 1_555 1_555
H31_2 O14_2 1_555 1_555
Tb4 O9_2 1_555 1_555
O15_2 Tb3 1_555 1_555
O16_2 Tb3 1_555 1_555
O18_2 Tb3 1_555 1_555
C5_2 C21_2 1_555 1_555
C13_2 C15_2 1_555 1_555
C14_2 C22_2 1_555 1_555
C17_2 C25_2 1_555 1_555
C18_2 C31_2 1_555 1_555
C25_2 C31_2 1_555 1_555
Tb4 O12_2 1_555 1_555
O15 C19_3 1_555 1_555
O16_2 C6_3 1_555 1_555
O10_2 C19_3 1_555 1_555
N1_3 C20_3 1_555 1_555
N2_3 C14_3 1_555 1_555
C3_2 H1_2 1_555 1_555
H2_2 C3_2 1_555 1_555
H3_2 C3_2 1_555 1_555
C4_3 C3_2 1_555 1_555
C5_3 H4_3 1_555 1_555
C6_3 C10_3 1_555 1_555
C7_3 C4_3 1_555 1_555
C8_3 H5_3 1_555 1_555
H6_3 C8_3 1_555 1_555
H7_3 C8_3 1_555 1_555
C9_3 C7_3 1_555 1_555
C11_2 H8_2 1_555 1_555
C12_3 H9_3 1_555 1_555
C14_3 H11_3 1_555 1_555
C16_3 H13_3 1_555 1_555
C17_3 N2_3 1_555 1_555
H14_3 C17_3 1_555 1_555
H15_3 C17_3 1_555 1_555
C18_3 C4_3 1_555 1_555
C19_3 C28_3 1_555 1_555
C20_3 C7_3 1_555 1_555
H16_2 C20_3 1_555 1_555
H17_3 C20_3 1_555 1_555
C21_3 N1_3 1_555 1_555
H18_3 C21_3 1_555 1_555
C22_3 C10_3 1_555 1_555
H19_3 C22_3 1_555 1_555
C23_3 C18_3 1_555 1_555
H20_3 C23_3 1_555 1_555
H21_2 C23_3 1_555 1_555
C24_3 C5_3 1_555 1_555
C25_3 C9_3 1_555 1_555
N3_3 C23_3 1_555 1_555
C26_2 N1_3 1_555 1_555
H22_2 C26_2 1_555 1_555
C27_3 C12_3 1_555 1_555
H23_3 C27_3 1_555 1_555
C28_3 C12_3 1_555 1_555
C29_3 C16_3 1_555 1_555
H24_3 C29_3 1_555 1_555
C30_3 C9_3 1_555 1_555
H25_3 C30_3 1_555 1_555
H26_3 C30_3 1_555 1_555
H27_3 C30_3 1_555 1_555
C31_3 C8_3 1_555 1_555
C32_3 C24_3 1_555 1_555
Tb6 O10_2 1_555 1_555
C5_3 C21_3 1_555 1_555
C11_2 C24_3 1_555 1_555
C11_2 C26_2 1_555 1_555
C14_3 C22_3 1_555 1_555
C16_3 C28_3 1_555 1_555
C17_3 C25_3 1_555 1_555
C18_3 C31_3 1_555 1_555
C25_3 C31_3 1_555 1_555
N3_3 C27_3 1_555 1_555
N3_3 C29_3 1_555 1_555
Tb4 O8_3 1_555 1_555
C13_3 H10_3 1_555 1_555
H12_3 C15_3 1_555 1_555
O13_3 Tb4 1_555 1_555
H28_3 O13_3 1_555 1_555
H29_3 O13_3 1_555 1_555
O14_3 Tb4 1_555 1_555
H30_3 O14_3 1_555 1_555
H31_3 O14_3 1_555 1_555
O17_2 Tb4 1_555 1_555
C13_3 C15_3 1_555 1_555
Tb6 O8_4 1_555 1_555
O8_4 C6_4 1_555 1_555
O16 C6_4 1_555 1_555
N1_4 C20_4 1_555 1_555
N2_4 C14_4 1_555 1_555
C5_4 H4_4 1_555 1_555
C6_4 C10_4 1_555 1_555
C7_4 C4_4 1_555 1_555
H6_4 C8_4 1_555 1_555
C9_4 C7_4 1_555 1_555
C10_4 C13_4 1_555 1_555
C13_4 H10_4 1_555 1_555
C14_4 H11_4 1_555 1_555
C15_4 N2_4 1_555 1_555
H12_4 C15_4 1_555 1_555
C17_4 N2_4 1_555 1_555
H14_4 C17_4 1_555 1_555
H15_4 C17_4 1_555 1_555
C18_4 C4_4 1_555 1_555
C20_4 C7_4 1_555 1_555
H17_4 C20_4 1_555 1_555
C21_4 N1_4 1_555 1_555
H18_4 C21_4 1_555 1_555
C22_4 C10_4 1_555 1_555
H19_4 C22_4 1_555 1_555
C24_4 C5_4 1_555 1_555
C25_4 C9_4 1_555 1_555
C30_4 C9_4 1_555 1_555
H25_4 C30_4 1_555 1_555
H26_4 C30_4 1_555 1_555
H27_4 C30_4 1_555 1_555
C31_4 C8_4 1_555 1_555
C32_4 C24_4 1_555 1_555
O13_4 Tb6 1_555 1_555
H28_4 O13_4 1_555 1_555
H29_4 O13_4 1_555 1_555
O14_4 Tb6 1_555 1_555
H30_4 O14_4 1_555 1_555
H31_4 O14_4 1_555 1_555
O19_2 Tb6 1_555 1_555
C5_4 C21_4 1_555 1_555
C13_4 C15_4 1_555 1_555
C14_4 C22_4 1_555 1_555
C17_4 C25_4 1_555 1_555
C18_4 C31_4 1_555 1_555
C25_4 C31_4 1_555 1_555
O15_2 C19_4 1_555 1_555
C12_4 H9_4 1_555 1_555
C19_4 C28_4 1_555 1_555
C27_4 C12_4 1_555 1_555
H23_4 C27_4 1_555 1_555
C28_4 C12_4 1_555 1_555
N3_4 C27_4 1_555 1_555
C16_4 H13_4 1_555 1_555
C29_4 C16_4 1_555 1_555
H24_4 C29_4 1_555 1_555
C3_3 H1_3 1_555 1_555
H2_3 C3_3 1_555 1_555
H3_3 C3_3 1_555 1_555
C11_3 H8_3 1_555 1_555
H22_3 C26_3 1_555 1_555
C11_3 C26_3 1_555 1_555
C3_4 H1_4 1_555 1_555
H2_4 C3_4 1_555 1_555
H3_4 C3_4 1_555 1_555
C11_4 H8_4 1_555 1_555
H22_4 C26_4 1_555 1_555
C11_4 C26_4 1_555 1_555

#END
