
###############################################################################
#
# This file contains modified crystal structure data generated from the
# MOF subset of the Cambridge Structural Database (CSD) v543 
# hosted by the Cambridge Crystallographic Data Centre (CCDC).
#
# This work is licensed under the Creative Commons
# Attribution-NonCommercial-ShareAlike 4.0 International License.
# To view a copy of this license, visit
# http://creativecommons.org/licenses/by-nc-sa/4.0/
# or send a letter to
# Creative Commons, PO Box 1866, Mountain View, CA 94042, USA.
#
# CIF created using the CSD Python API on 29 September 2022
# The structure has been converted into the P1 space group
# The structure has a 3D framework
# The original CSD entry MOCMEZ is in the monoclinic crystal system
# The framework has been calculated to contain at least 10.0% void space
# The void calculation uses a probe of radius 1.32A, grid spacing 0.4
#
###############################################################################

data_MOCMEZ
_chemical_formula_moiety         '(C128 H124 Br4 Eu4 F24 N12 O52 S8)n'
_symmetry_cell_setting           triclinic
_symmetry_space_group_name_H-M   'P 1'
_symmetry_Int_Tables_number      1
_space_group_name_Hall           'P 1'
loop_
_symmetry_equiv_pos_site_id
_symmetry_equiv_pos_as_xyz
1 x,y,z
_cell_length_a                   18.6774(6)
_cell_length_b                   25.6718(7)
_cell_length_c                   9.7560(3)
_cell_angle_alpha                90
_cell_angle_beta                 102.421(3)
_cell_angle_gamma                90
_cell_volume                     4568.34
loop_
_atom_site_label
_atom_site_type_symbol
_atom_site_fract_x
_atom_site_fract_y
_atom_site_fract_z
F1 F 0.0399(4) 0.2676(3) 0.7551(8)
F2 F 0.1270(4) 0.3130(4) 0.8679(11)
F3 F 0.0620(7) 0.2671(3) 0.9767(10)
O2 O 0.0276(8) 0.3814(3) 0.9819(10)
C1 C 0.0604(7) 0.2971(5) 0.8681(13)
S1 S 0.99718(16) 0.35179(10) 0.8632(3)
O1 O 0.9974(5) 0.3762(4) 0.7338(9)
O3 O 0.9294(8) 0.3268(5) 0.8664(18)
S1_2 S 0.00282(16) 0.85179(10) 0.6368(3)
O1_2 O 0.0026(5) 0.8762(4) 0.7662(9)
O3_2 O 0.0706(8) 0.8268(5) 0.6336(18)
F1_2 F 0.9601(4) 0.7676(3) 0.7449(8)
F2_2 F 0.8730(4) 0.8130(4) 0.6321(11)
F3_2 F 0.9380(7) 0.7671(3) 0.5233(10)
O2_2 O 0.9724(8) 0.8814(3) 0.5181(10)
C1_2 C 0.9396(7) 0.7971(5) 0.6319(13)
S1_3 S 0.00282(16) 0.64821(10) 0.1368(3)
O1_3 O 0.0026(5) 0.6238(4) 0.2662(9)
O3_3 O 0.0706(8) 0.6732(5) 0.1336(18)
F1_3 F 0.9601(4) 0.7324(3) 0.2449(8)
F2_3 F 0.8730(4) 0.6870(4) 0.1321(11)
F3_3 F 0.9380(7) 0.7329(3) 0.0233(10)
O2_3 O 0.9724(8) 0.6186(3) 0.0181(10)
C1_3 C 0.9396(7) 0.7029(5) 0.1319(13)
F1_4 F 0.0399(4) 0.2324(3) 0.2551(8)
F2_4 F 0.1270(4) 0.1870(4) 0.3679(11)
F3_4 F 0.0620(7) 0.2329(3) 0.4767(10)
O2_4 O 0.0276(8) 0.1186(3) 0.4819(10)
C1_4 C 0.0604(7) 0.2029(5) 0.3681(13)
S1_4 S 0.99718(16) 0.14821(10) 0.3632(3)
O1_4 O 0.9974(5) 0.1238(4) 0.2338(9)
O3_4 O 0.9294(8) 0.1732(5) 0.3664(18)
Br1 Br 0.59880(11) 0.34576(7) 0.5607(2)
Br1_2 Br 0.40120(11) 0.84576(7) 0.9393(2)
Br1_3 Br 0.40120(11) 0.65424(7) 0.4393(2)
Br1_4 Br 0.59880(11) 0.15424(7) 0.0607(2)
O4 O 0.8309(9) 0.5181(8) 0.6484(16)
F4 F 0.8385(10) 0.4128(7) 0.541(2)
O5 O 0.8712(9) 0.5153(7) 0.4320(16)
F5 F 0.7637(10) 0.4316(7) 0.346(2)
F6 F 0.7266(10) 0.4357(7) 0.532(3)
O6 O 0.7481(8) 0.5407(6) 0.4294(16)
C2 C 0.7834(15) 0.4450(10) 0.475(3)
S2 S 0.8190(9) 0.5080(7) 0.5181(15)
O5_2 O 0.1288(9) 0.0153(7) 0.0680(16)
O6_2 O 0.2519(8) 0.0407(6) 0.0706(16)
O4_2 O 0.1691(9) 0.0181(8) 0.8516(16)
S2_2 S 0.1810(9) 0.0080(7) 0.9819(15)
F5_2 F 0.2363(10) 0.9316(7) 0.154(2)
C2_2 C 0.2166(15) 0.9450(10) 0.025(3)
F4_2 F 0.1615(10) 0.9128(7) 0.959(2)
F6_2 F 0.2734(10) 0.9357(7) 0.968(3)
O4_3 O 0.1691(9) 0.4819(8) 0.3516(16)
F4_3 F 0.1615(10) 0.5872(7) 0.459(2)
O5_3 O 0.1288(9) 0.4847(7) 0.5680(16)
F5_3 F 0.2363(10) 0.5684(7) 0.654(2)
F6_3 F 0.2734(10) 0.5643(7) 0.468(3)
O6_3 O 0.2519(8) 0.4593(6) 0.5706(16)
C2_3 C 0.2166(15) 0.5550(10) 0.525(3)
S2_3 S 0.1810(9) 0.4920(7) 0.4819(15)
F4_4 F 0.8385(10) 0.0872(7) 0.041(2)
F6_4 F 0.7266(10) 0.0643(7) 0.032(3)
F5_4 F 0.7637(10) 0.0684(7) 0.846(2)
C2_4 C 0.7834(15) 0.0550(10) 0.975(3)
O4_4 O 0.8309(9) 0.9819(8) 0.1484(16)
S2_4 S 0.8190(9) 0.9920(7) 0.0181(15)
O5_4 O 0.8712(9) 0.9847(7) 0.9320(16)
O6_4 O 0.7481(8) 0.9593(6) 0.9294(16)
N2 N 0.0609(4) 0.3715(3) 0.4162(8)
H4 H 0.005431 0.437836 0.452572
H7 H 0.036054 0.484646 0.275217
C13 C 0.0776(5) 0.3579(4) 0.2935(10)
H10 H 0.044686 0.366224 0.207699
C16 C 0.1712(4) 0.3351(4) 0.5410(9)
H12 H 0.203263 0.327103 0.627988
C19 C 0.1414(5) 0.3324(4) 0.2910(9)
H16 H 0.152280 0.321946 0.204311
C24 C 0.1899(4) 0.3218(4) 0.4160(9)
C26 C 0.1060(5) 0.3601(4) 0.5386(9)
H26 H 0.092752 0.369188 0.624234
O8 O 0.2780(4) 0.2854(3) 0.3023(7)
C30 C 0.2641(5) 0.2958(5) 0.4190(10)
O10 O 0.3043(4) 0.2878(3) 0.5353(7)
Eu2 Eu 0.38254(2) 0.25086(2) 0.73096(5)
Eu6 Eu 0.38254(2) 0.24914(2) 0.23096(5)
N1 N 0.7300(4) 0.3128(3) 0.0351(8)
C3 C 0.7052(5) 0.3253(3) 0.1496(10)
H1 H 0.737592 0.340796 0.227329
C4 C 0.5103(4) 0.2768(4) 0.0520(9)
C6 C 0.9917(6) 0.4020(4) 0.4198(11)
H3 H 0.966794 0.385547 0.488699
C7 C 0.9848(7) 0.4958(5) 0.2608(16)
H5 H 0.974511 0.507363 0.350348
H6 H 0.975976 0.524540 0.193288
C8 C 0.6331(5) 0.3159(4) 0.1565(11)
H8 H 0.616315 0.324875 0.238606
C9 C 0.9390(5) 0.4047(4) 0.2807(11)
C10 C 0.8394(5) 0.4112(3) 0.0231(11)
C11 C 0.8937(5) 0.3619(4) 0.2330(11)
C14 C 0.8459(4) 0.3650(3) 0.0982(11)
C17 C 0.5856(5) 0.2933(3) 0.0439(8)
C18 C 0.8971(6) 0.3122(5) 0.3191(13)
H13 H 0.948285 0.301334 0.350383
H14 H 0.869323 0.284684 0.261361
H15 H 0.875830 0.318648 0.401052
C21 C 0.8085(5) 0.3175(4) 0.0315(11)
H21 H 0.834581 0.286625 0.078669
C22 C 0.8072(6) 0.5478(4) 0.1307(13)
H22 H 0.828565 0.526077 0.207419
H24 H 0.928996 0.518966 0.003994
C27 C 0.7601(6) 0.5872(4) 0.1497(12)
H27 H 0.749494 0.593178 0.239337
C28 C 0.8848(5) 0.4538(4) 0.0762(13)
C29 C 0.9351(5) 0.4506(4) 0.2047(13)
O9 O 0.4954(3) 0.2745(3) 0.1699(6)
C31 C 0.6791(5) 0.6641(4) 0.0494(10)
C32 C 0.7287(5) 0.6177(4) 0.0366(10)
N3 N 0.8230(5) 0.5399(3) 0.0033(10)
O11 O 0.6748(4) 0.6767(3) 0.1723(7)
Eu4 Eu 0.61746(2) 0.74914(2) 0.26904(5)
O7 O 0.4665(3) 0.2660(3) 0.9404(6)
C5 C 0.6826(6) 0.2926(4) 0.9198(11)
H2 H 0.699801 0.285078 0.837141
C12 C 0.6113(6) 0.2834(4) 0.9233(10)
H9 H 0.578793 0.270042 0.842404
C15 C 0.7441(6) 0.6079(4) 0.9054(13)
H11 H 0.721613 0.628132 0.826376
C20 C 0.7880(6) 0.4152(4) 0.8840(12)
H17 H 0.814611 0.408440 0.809538
H18 H 0.766912 0.450319 0.872423
H19 H 0.748618 0.389567 0.878373
H20 H 0.813018 0.316618 0.932261
C23 C 0.7925(6) 0.5682(4) 0.8911(13)
H23 H 0.803803 0.561314 0.802497
C25 C 0.8807(5) 0.5014(4) 0.9838(13)
H25 H 0.870412 0.490150 0.884461
O12 O 0.6507(4) 0.6856(3) 0.9395(7)
O13 O 0.4218(5) 0.1653(3) 0.8431(8)
H28 H 0.418402 0.141425 0.778609
H29 H 0.390839 0.155503 0.893426
O14 O 0.4437(5) 0.3314(3) 0.6807(9)
H30 H 0.500000 0.337226 0.681590
H31 H 0.419809 0.368555 0.652902
Eu3 Eu 0.61746(2) 0.75086(2) 0.76904(5)
O15 O 0.2780(4) 0.2146(3) 0.8023(7)
O16 O 0.4954(3) 0.2255(3) 0.6699(6)
O18 O 0.3252(4) 0.3233(3) 0.8277(7)
O19 O 0.3493(4) 0.1856(3) 0.5605(7)
H5_2 H 0.025489 0.007363 0.149652
H6_2 H 0.024024 0.024540 0.306712
C15_2 C 0.2559(6) 0.1079(4) 0.5946(13)
H11_2 H 0.278387 0.128132 0.673624
C22_2 C 0.1928(6) 0.0478(4) 0.3693(13)
H22_2 H 0.171435 0.026077 0.292581
C23_2 C 0.2075(6) 0.0682(4) 0.6089(13)
H23_2 H 0.196197 0.061314 0.697503
C25_2 C 0.1193(5) 0.0014(4) 0.5162(13)
H24_2 H 0.071004 0.018966 0.496006
C27_2 C 0.2399(6) 0.0872(4) 0.3503(12)
H27_2 H 0.250506 0.093178 0.260663
C31_2 C 0.3209(5) 0.1641(4) 0.4506(10)
C32_2 C 0.2713(5) 0.1177(4) 0.4634(10)
N3_2 N 0.1770(5) 0.0399(3) 0.4967(10)
O11_2 O 0.3252(4) 0.1767(3) 0.3277(7)
O7_2 O 0.5335(3) 0.7660(3) 0.5596(6)
N1_2 N 0.2700(4) 0.8128(3) 0.4649(8)
C3_2 C 0.2948(5) 0.8253(3) 0.3504(10)
H1_2 H 0.262408 0.840796 0.272671
C4_2 C 0.4897(4) 0.7768(4) 0.4480(9)
C5_2 C 0.3174(6) 0.7926(4) 0.5802(11)
H2_2 H 0.300199 0.785078 0.662859
C6_2 C 0.0083(6) 0.9020(4) 0.0802(11)
H3_2 H 0.033206 0.885547 0.011301
C7_2 C 0.0152(7) 0.9958(5) 0.2392(16)
C8_2 C 0.3669(5) 0.8159(4) 0.3435(11)
H8_2 H 0.383685 0.824875 0.261394
C9_2 C 0.0610(5) 0.9047(4) 0.2193(11)
C10_2 C 0.1606(5) 0.9112(3) 0.4769(11)
C11_2 C 0.1063(5) 0.8619(4) 0.2670(11)
C12_2 C 0.3887(6) 0.7834(4) 0.5767(10)
H9_2 H 0.421207 0.770042 0.657596
C14_2 C 0.1541(4) 0.8650(3) 0.4018(11)
C17_2 C 0.4144(5) 0.7933(3) 0.4561(8)
C18_2 C 0.1029(6) 0.8122(5) 0.1809(13)
H13_2 H 0.051715 0.801334 0.149617
H14_2 H 0.130677 0.784684 0.238639
H15_2 H 0.124170 0.818648 0.098948
C20_2 C 0.2120(6) 0.9152(4) 0.6160(12)
H17_2 H 0.185389 0.908440 0.690462
H18_2 H 0.233088 0.950319 0.627577
H19_2 H 0.251382 0.889567 0.621627
C21_2 C 0.1915(5) 0.8175(4) 0.4685(11)
H20_2 H 0.186982 0.816618 0.567739
H21_2 H 0.165419 0.786625 0.421331
H25_2 H 0.129588 0.990150 0.615539
C28_2 C 0.1152(5) 0.9538(4) 0.4238(13)
C29_2 C 0.0649(5) 0.9506(4) 0.2953(13)
O9_2 O 0.5046(3) 0.7745(3) 0.3301(6)
O13_2 O 0.5782(5) 0.6653(3) 0.6569(8)
H28_2 H 0.581598 0.641425 0.721391
H29_2 H 0.609161 0.655503 0.606574
O14_2 O 0.5563(5) 0.8314(3) 0.8193(9)
H30_2 H 0.500000 0.837226 0.818410
H31_2 H 0.580191 0.868555 0.847098
O15_2 O 0.7220(4) 0.7146(3) 0.6977(7)
O16_2 O 0.5046(3) 0.7255(3) 0.8301(6)
O17 O 0.6957(4) 0.7878(3) 0.9647(7)
O18_2 O 0.6748(4) 0.8233(3) 0.6723(7)
N2_2 N 0.9391(4) 0.8715(3) 0.0838(8)
H4_2 H 0.994569 0.937836 0.047428
H7_2 H 0.963946 0.984646 0.224783
C13_2 C 0.9224(5) 0.8579(4) 0.2065(10)
H10_2 H 0.955314 0.866224 0.292301
C19_2 C 0.8586(5) 0.8324(4) 0.2090(9)
H16_2 H 0.847720 0.821946 0.295689
C24_2 C 0.8101(4) 0.8218(4) 0.0840(9)
O8_2 O 0.7220(4) 0.7854(3) 0.1977(7)
C30_2 C 0.7359(5) 0.7958(5) 0.0810(10)
C16_2 C 0.8288(4) 0.8351(4) 0.9590(9)
H12_2 H 0.796737 0.827103 0.872012
C26_2 C 0.8940(5) 0.8601(4) 0.9614(9)
H26_2 H 0.907248 0.869188 0.875766
O7_3 O 0.5335(3) 0.7340(3) 0.0596(6)
C5_3 C 0.3174(6) 0.7074(4) 0.0802(11)
H2_3 H 0.300199 0.714922 0.162859
C12_3 C 0.3887(6) 0.7166(4) 0.0767(10)
H9_3 H 0.421207 0.729958 0.157596
C15_3 C 0.2559(6) 0.3921(4) 0.0946(13)
H11_3 H 0.278387 0.371868 0.173624
C20_3 C 0.2120(6) 0.5848(4) 0.1160(12)
H17_3 H 0.185389 0.591560 0.190462
H18_3 H 0.233088 0.549681 0.127577
H19_3 H 0.251382 0.610433 0.121627
H20_3 H 0.186982 0.683382 0.067739
C23_3 C 0.2075(6) 0.4318(4) 0.1089(13)
H23_3 H 0.196197 0.438686 0.197503
C25_3 C 0.1193(5) 0.4986(4) 0.0162(13)
H25_3 H 0.129588 0.509850 0.115539
O12_2 O 0.3493(4) 0.3144(3) 0.0605(7)
O13_3 O 0.5782(5) 0.8347(3) 0.1569(8)
H28_3 H 0.581598 0.858575 0.221391
H29_3 H 0.609161 0.844497 0.106574
O14_3 O 0.5563(5) 0.6686(3) 0.3193(9)
H30_3 H 0.500000 0.662774 0.318410
H31_3 H 0.580191 0.631445 0.347098
O17_2 O 0.6957(4) 0.7122(3) 0.4647(7)
O19_2 O 0.6507(4) 0.8144(3) 0.4395(7)
N1_3 N 0.2700(4) 0.6872(3) 0.9649(8)
C3_3 C 0.2948(5) 0.6747(3) 0.8504(10)
H1_3 H 0.262408 0.659204 0.772671
C4_3 C 0.4897(4) 0.7232(4) 0.9480(9)
C6_3 C 0.0083(6) 0.5980(4) 0.5802(11)
H3_3 H 0.033206 0.614453 0.511301
C7_3 C 0.0152(7) 0.5042(5) 0.7392(16)
H5_3 H 0.025489 0.492637 0.649652
H6_3 H 0.024024 0.475460 0.806712
C8_3 C 0.3669(5) 0.6841(4) 0.8435(11)
H8_3 H 0.383685 0.675125 0.761394
C9_3 C 0.0610(5) 0.5953(4) 0.7193(11)
C10_3 C 0.1606(5) 0.5888(3) 0.9769(11)
C11_3 C 0.1063(5) 0.6381(4) 0.7670(11)
C14_3 C 0.1541(4) 0.6350(3) 0.9018(11)
C17_3 C 0.4144(5) 0.7067(3) 0.9561(8)
C18_3 C 0.1029(6) 0.6878(5) 0.6809(13)
H13_3 H 0.051715 0.698666 0.649617
H14_3 H 0.130677 0.715316 0.738639
H15_3 H 0.124170 0.681352 0.598948
C21_3 C 0.1915(5) 0.6825(4) 0.9685(11)
H21_3 H 0.165419 0.713375 0.921331
C22_3 C 0.1928(6) 0.4522(4) 0.8693(13)
H22_3 H 0.171435 0.473923 0.792581
H24_3 H 0.071004 0.481034 0.996006
C27_3 C 0.2399(6) 0.4128(4) 0.8503(12)
H27_3 H 0.250506 0.406822 0.760663
C28_3 C 0.1152(5) 0.5462(4) 0.9238(13)
C29_3 C 0.0649(5) 0.5494(4) 0.7953(13)
C31_3 C 0.3209(5) 0.3359(4) 0.9506(10)
C32_3 C 0.2713(5) 0.3823(4) 0.9634(10)
N3_3 N 0.1770(5) 0.4601(3) 0.9967(10)
N2_3 N 0.9391(4) 0.6285(3) 0.5838(8)
H4_3 H 0.994569 0.562164 0.547428
H7_3 H 0.963946 0.515354 0.724783
C13_3 C 0.9224(5) 0.6421(4) 0.7065(10)
H10_3 H 0.955314 0.633776 0.792301
C16_3 C 0.8288(4) 0.6649(4) 0.4590(9)
H12_3 H 0.796737 0.672897 0.372012
C19_3 C 0.8586(5) 0.6676(4) 0.7090(9)
H16_3 H 0.847720 0.678054 0.795689
C24_3 C 0.8101(4) 0.6782(4) 0.5840(9)
C26_3 C 0.8940(5) 0.6399(4) 0.4614(9)
H26_3 H 0.907248 0.630812 0.375766
C30_3 C 0.7359(5) 0.7042(5) 0.5810(10)
C16_4 C 0.1712(4) 0.1649(4) 0.0410(9)
H12_4 H 0.203263 0.172897 0.127988
C26_4 C 0.1060(5) 0.1399(4) 0.0386(9)
H26_4 H 0.092752 0.130812 0.124234
O10_2 O 0.3043(4) 0.2122(3) 0.0353(7)
N2_4 N 0.0609(4) 0.1285(3) 0.9162(8)
H4_4 H 0.005431 0.062164 0.952572
H7_4 H 0.036054 0.015354 0.775217
C13_4 C 0.0776(5) 0.1421(4) 0.7935(10)
H10_4 H 0.044686 0.133776 0.707699
C19_4 C 0.1414(5) 0.1676(4) 0.7910(9)
H16_4 H 0.152280 0.178054 0.704311
C24_4 C 0.1899(4) 0.1782(4) 0.9160(9)
C30_4 C 0.2641(5) 0.2042(5) 0.9190(10)
O7_4 O 0.4665(3) 0.2340(3) 0.4404(6)
N1_4 N 0.7300(4) 0.1872(3) 0.5351(8)
C3_4 C 0.7052(5) 0.1747(3) 0.6496(10)
H1_4 H 0.737592 0.159204 0.727329
C4_4 C 0.5103(4) 0.2232(4) 0.5520(9)
C5_4 C 0.6826(6) 0.2074(4) 0.4198(11)
H2_4 H 0.699801 0.214922 0.337141
C6_4 C 0.9917(6) 0.0980(4) 0.9198(11)
H3_4 H 0.966794 0.114453 0.988699
C7_4 C 0.9848(7) 0.0042(5) 0.7608(16)
C8_4 C 0.6331(5) 0.1841(4) 0.6565(11)
H8_4 H 0.616315 0.175125 0.738606
C9_4 C 0.9390(5) 0.0953(4) 0.7807(11)
C10_4 C 0.8394(5) 0.0888(3) 0.5231(11)
C11_4 C 0.8937(5) 0.1381(4) 0.7330(11)
C12_4 C 0.6113(6) 0.2166(4) 0.4233(10)
H9_4 H 0.578793 0.229958 0.342404
C14_4 C 0.8459(4) 0.1350(3) 0.5982(11)
C17_4 C 0.5856(5) 0.2067(3) 0.5439(8)
C18_4 C 0.8971(6) 0.1878(5) 0.8191(13)
H13_4 H 0.948285 0.198666 0.850383
H14_4 H 0.869323 0.215316 0.761361
H15_4 H 0.875830 0.181352 0.901052
C20_4 C 0.7880(6) 0.0848(4) 0.3840(12)
H17_4 H 0.814611 0.091560 0.309538
H18_4 H 0.766912 0.049681 0.372423
H19_4 H 0.748618 0.110433 0.378373
C21_4 C 0.8085(5) 0.1825(4) 0.5315(11)
H20_4 H 0.813018 0.183382 0.432261
H21_4 H 0.834581 0.213375 0.578669
H25_4 H 0.870412 0.009850 0.384461
C28_4 C 0.8848(5) 0.0462(4) 0.5762(13)
C29_4 C 0.9351(5) 0.0494(4) 0.7047(13)
O13_4 O 0.4218(5) 0.3347(3) 0.3431(8)
H28_4 H 0.418402 0.358575 0.278609
H29_4 H 0.390839 0.344497 0.393426
O14_4 O 0.4437(5) 0.1686(3) 0.1807(9)
H30_4 H 0.500000 0.162774 0.181590
H31_4 H 0.419809 0.131445 0.152902
H5_4 H 0.974511 0.992637 0.850348
H6_4 H 0.975976 0.975460 0.693288
C15_4 C 0.7441(6) 0.8921(4) 0.4054(13)
H11_4 H 0.721613 0.871868 0.326376
C22_4 C 0.8072(6) 0.9522(4) 0.6307(13)
H22_4 H 0.828565 0.973923 0.707419
C23_4 C 0.7925(6) 0.9318(4) 0.3911(13)
H23_4 H 0.803803 0.938686 0.302497
C25_4 C 0.8807(5) 0.9986(4) 0.4838(13)
H24_4 H 0.928996 0.981034 0.503994
C27_4 C 0.7601(6) 0.9128(4) 0.6497(12)
H27_4 H 0.749494 0.906822 0.739337
C31_4 C 0.6791(5) 0.8359(4) 0.5494(10)
C32_4 C 0.7287(5) 0.8823(4) 0.5366(10)
N3_4 N 0.8230(5) 0.9601(3) 0.5033(10)
loop_
_geom_bond_atom_site_label_1
_geom_bond_atom_site_label_2
_geom_bond_site_symmetry_1
_geom_bond_site_symmetry_2
F1 C1 1_555 1_555
F2 C1 1_555 1_555
F3 C1 1_555 1_555
S1 O1 1_555 1_555
O3 S1 1_555 1_555
S1_2 O1_2 1_555 1_555
O3_2 S1_2 1_555 1_555
F1_2 C1_2 1_555 1_555
F2_2 C1_2 1_555 1_555
F3_2 C1_2 1_555 1_555
S1_3 O1_3 1_555 1_555
O3_3 S1_3 1_555 1_555
F1_3 C1_3 1_555 1_555
F2_3 C1_3 1_555 1_555
F3_3 C1_3 1_555 1_555
F1_4 C1_4 1_555 1_555
F2_4 C1_4 1_555 1_555
F3_4 C1_4 1_555 1_555
S1_4 O1_4 1_555 1_555
O3_4 S1_4 1_555 1_555
O4 S2 1_555 1_555
F4 C2 1_555 1_555
O5 S2 1_555 1_555
F5 C2 1_555 1_555
F6 C2 1_555 1_555
O6 S2 1_555 1_555
C2 S2 1_555 1_555
O4_2 S2_2 1_555 1_555
F5_2 C2_2 1_555 1_555
O4_3 S2_3 1_555 1_555
F4_3 C2_3 1_555 1_555
O5_3 S2_3 1_555 1_555
F5_3 C2_3 1_555 1_555
F6_3 C2_3 1_555 1_555
O6_3 S2_3 1_555 1_555
C2_3 S2_3 1_555 1_555
F5_4 C2_4 1_555 1_555
O4_4 S2_4 1_555 1_555
C13 N2 1_555 1_555
H10 C13 1_555 1_555
C16 H12 1_555 1_555
C19 C13 1_555 1_555
H16 C19 1_555 1_555
C24 C16 1_555 1_555
C26 N2 1_555 1_555
H26 C26 1_555 1_555
O8 C30 1_555 1_555
C30 C24 1_555 1_555
O10 C30 1_555 1_555
Eu2 O10 1_555 1_555
Eu6 O8 1_555 1_555
C16 C26 1_555 1_555
C19 C24 1_555 1_555
N1 C3 1_555 1_555
C3 H1 1_555 1_555
C4 C17 1_555 1_555
C6 H3 1_555 1_555
C7 H5 1_555 1_555
H6 C7 1_555 1_555
C8 C3 1_555 1_555
H8 C8 1_555 1_555
C9 C6 1_555 1_555
C10 C14 1_555 1_555
C11 C9 1_555 1_555
C14 C11 1_555 1_555
C17 C8 1_555 1_555
C18 C11 1_555 1_555
H13 C18 1_555 1_555
H14 C18 1_555 1_555
H15 C18 1_555 1_555
C21 N1 1_555 1_555
H21 C21 1_555 1_555
C22 H22 1_555 1_555
C27 C22 1_555 1_555
H27 C27 1_555 1_555
C28 C10 1_555 1_555
C29 C7 1_555 1_555
O9 C4 1_555 1_555
C31 C32 1_555 1_555
N3 C22 1_555 1_555
O11 C31 1_555 1_555
Eu4 O11 1_555 1_555
Eu6 O9 1_555 1_555
C9 C29 1_555 1_555
C14 C21 1_555 1_555
C27 C32 1_555 1_555
C28 C29 1_555 1_555
Eu2 O7 1_555 1_555
H2 C5 1_555 1_555
C12 C5 1_555 1_555
H9 C12 1_555 1_555
C15 H11 1_555 1_555
H17 C20 1_555 1_555
H18 C20 1_555 1_555
H19 C20 1_555 1_555
C23 C15 1_555 1_555
H23 C23 1_555 1_555
H25 C25 1_555 1_555
O13 Eu2 1_555 1_555
H28 O13 1_555 1_555
H29 O13 1_555 1_555
O14 Eu2 1_555 1_555
H30 O14 1_555 1_555
H31 O14 1_555 1_555
Eu3 O12 1_555 1_555
O15 Eu2 1_555 1_555
O16 Eu2 1_555 1_555
O18 Eu2 1_555 1_555
O19 Eu2 1_555 1_555
C15_2 H11_2 1_555 1_555
C22_2 H22_2 1_555 1_555
C23_2 C15_2 1_555 1_555
H23_2 C23_2 1_555 1_555
C25_2 H24_2 1_555 1_555
C27_2 C22_2 1_555 1_555
H27_2 C27_2 1_555 1_555
C31_2 C32_2 1_555 1_555
C32_2 C15_2 1_555 1_555
N3_2 C22_2 1_555 1_555
O11_2 C31_2 1_555 1_555
O19 C31_2 1_555 1_555
Eu6 O11_2 1_555 1_555
C23_2 N3_2 1_555 1_555
C25_2 N3_2 1_555 1_555
C27_2 C32_2 1_555 1_555
Eu3 O7_2 1_555 1_555
O7_2 C4_2 1_555 1_555
N1_2 C3_2 1_555 1_555
C3_2 H1_2 1_555 1_555
C4_2 C17_2 1_555 1_555
C5_2 N1_2 1_555 1_555
H2_2 C5_2 1_555 1_555
C6_2 H3_2 1_555 1_555
C8_2 C3_2 1_555 1_555
H8_2 C8_2 1_555 1_555
C9_2 C6_2 1_555 1_555
C10_2 C14_2 1_555 1_555
C11_2 C9_2 1_555 1_555
C12_2 C5_2 1_555 1_555
H9_2 C12_2 1_555 1_555
C14_2 C11_2 1_555 1_555
C17_2 C8_2 1_555 1_555
C18_2 C11_2 1_555 1_555
H13_2 C18_2 1_555 1_555
H14_2 C18_2 1_555 1_555
H15_2 C18_2 1_555 1_555
C20_2 C10_2 1_555 1_555
H17_2 C20_2 1_555 1_555
H18_2 C20_2 1_555 1_555
H19_2 C20_2 1_555 1_555
C21_2 N1_2 1_555 1_555
H20_2 C21_2 1_555 1_555
H21_2 C21_2 1_555 1_555
C28_2 C10_2 1_555 1_555
C29_2 C7_2 1_555 1_555
O9_2 C4_2 1_555 1_555
O13_2 Eu3 1_555 1_555
H28_2 O13_2 1_555 1_555
H29_2 O13_2 1_555 1_555
O14_2 Eu3 1_555 1_555
H30_2 O14_2 1_555 1_555
H31_2 O14_2 1_555 1_555
Eu4 O9_2 1_555 1_555
O15_2 Eu3 1_555 1_555
O16_2 Eu3 1_555 1_555
O17 Eu3 1_555 1_555
O18_2 Eu3 1_555 1_555
C9_2 C29_2 1_555 1_555
C12_2 C17_2 1_555 1_555
C14_2 C21_2 1_555 1_555
C28_2 C29_2 1_555 1_555
C13_2 N2_2 1_555 1_555
H10_2 C13_2 1_555 1_555
C19_2 C13_2 1_555 1_555
H16_2 C19_2 1_555 1_555
O8_2 C30_2 1_555 1_555
C30_2 C24_2 1_555 1_555
Eu4 O8_2 1_555 1_555
C19_2 C24_2 1_555 1_555
C16_2 H12_2 1_555 1_555
H26_2 C26_2 1_555 1_555
C16_2 C26_2 1_555 1_555
Eu4 O7_3 1_555 1_555
H2_3 C5_3 1_555 1_555
C12_3 C5_3 1_555 1_555
H9_3 C12_3 1_555 1_555
C15_3 H11_3 1_555 1_555
H17_3 C20_3 1_555 1_555
H18_3 C20_3 1_555 1_555
H19_3 C20_3 1_555 1_555
C23_3 C15_3 1_555 1_555
H23_3 C23_3 1_555 1_555
H25_3 C25_3 1_555 1_555
O13_3 Eu4 1_555 1_555
H28_3 O13_3 1_555 1_555
H29_3 O13_3 1_555 1_555
O14_3 Eu4 1_555 1_555
H30_3 O14_3 1_555 1_555
H31_3 O14_3 1_555 1_555
Eu6 O12_2 1_555 1_555
O17_2 Eu4 1_555 1_555
O19_2 Eu4 1_555 1_555
N1_3 C3_3 1_555 1_555
C3_3 H1_3 1_555 1_555
C4_3 C17_3 1_555 1_555
C6_3 H3_3 1_555 1_555
C7_3 H5_3 1_555 1_555
H6_3 C7_3 1_555 1_555
C8_3 C3_3 1_555 1_555
H8_3 C8_3 1_555 1_555
C9_3 C6_3 1_555 1_555
C10_3 C14_3 1_555 1_555
C11_3 C9_3 1_555 1_555
C14_3 C11_3 1_555 1_555
C17_3 C8_3 1_555 1_555
C18_3 C11_3 1_555 1_555
H13_3 C18_3 1_555 1_555
H14_3 C18_3 1_555 1_555
H15_3 C18_3 1_555 1_555
C21_3 N1_3 1_555 1_555
H21_3 C21_3 1_555 1_555
C22_3 H22_3 1_555 1_555
C27_3 C22_3 1_555 1_555
H27_3 C27_3 1_555 1_555
C28_3 C10_3 1_555 1_555
C29_3 C7_3 1_555 1_555
O16_2 C4_3 1_555 1_555
C31_3 C32_3 1_555 1_555
N3_3 C22_3 1_555 1_555
O18 C31_3 1_555 1_555
C9_3 C29_3 1_555 1_555
C14_3 C21_3 1_555 1_555
C27_3 C32_3 1_555 1_555
C28_3 C29_3 1_555 1_555
C13_3 N2_3 1_555 1_555
H10_3 C13_3 1_555 1_555
C16_3 H12_3 1_555 1_555
C19_3 C13_3 1_555 1_555
H16_3 C19_3 1_555 1_555
C24_3 C16_3 1_555 1_555
C26_3 N2_3 1_555 1_555
H26_3 C26_3 1_555 1_555
O15_2 C30_3 1_555 1_555
C30_3 C24_3 1_555 1_555
O17_2 C30_3 1_555 1_555
C16_3 C26_3 1_555 1_555
C19_3 C24_3 1_555 1_555
C16_4 H12_4 1_555 1_555
H26_4 C26_4 1_555 1_555
Eu6 O10_2 1_555 1_555
C16_4 C26_4 1_555 1_555
C13_4 N2_4 1_555 1_555
H10_4 C13_4 1_555 1_555
C19_4 C13_4 1_555 1_555
H16_4 C19_4 1_555 1_555
O15 C30_4 1_555 1_555
C30_4 C24_4 1_555 1_555
C19_4 C24_4 1_555 1_555
Eu6 O7_4 1_555 1_555
O7_4 C4_4 1_555 1_555
N1_4 C3_4 1_555 1_555
C3_4 H1_4 1_555 1_555
C4_4 C17_4 1_555 1_555
C5_4 N1_4 1_555 1_555
H2_4 C5_4 1_555 1_555
C6_4 H3_4 1_555 1_555
C8_4 C3_4 1_555 1_555
H8_4 C8_4 1_555 1_555
C9_4 C6_4 1_555 1_555
C10_4 C14_4 1_555 1_555
C11_4 C9_4 1_555 1_555
C12_4 C5_4 1_555 1_555
H9_4 C12_4 1_555 1_555
C14_4 C11_4 1_555 1_555
C17_4 C8_4 1_555 1_555
C18_4 C11_4 1_555 1_555
H13_4 C18_4 1_555 1_555
H14_4 C18_4 1_555 1_555
H15_4 C18_4 1_555 1_555
C20_4 C10_4 1_555 1_555
H17_4 C20_4 1_555 1_555
H18_4 C20_4 1_555 1_555
H19_4 C20_4 1_555 1_555
C21_4 N1_4 1_555 1_555
H20_4 C21_4 1_555 1_555
H21_4 C21_4 1_555 1_555
C28_4 C10_4 1_555 1_555
C29_4 C7_4 1_555 1_555
O16 C4_4 1_555 1_555
O13_4 Eu6 1_555 1_555
H28_4 O13_4 1_555 1_555
H29_4 O13_4 1_555 1_555
O14_4 Eu6 1_555 1_555
H30_4 O14_4 1_555 1_555
H31_4 O14_4 1_555 1_555
C9_4 C29_4 1_555 1_555
C12_4 C17_4 1_555 1_555
C14_4 C21_4 1_555 1_555
C28_4 C29_4 1_555 1_555
C15_4 H11_4 1_555 1_555
C22_4 H22_4 1_555 1_555
C23_4 C15_4 1_555 1_555
H23_4 C23_4 1_555 1_555
C25_4 H24_4 1_555 1_555
C27_4 C22_4 1_555 1_555
H27_4 C27_4 1_555 1_555
C31_4 C32_4 1_555 1_555
C32_4 C15_4 1_555 1_555
N3_4 C22_4 1_555 1_555
O18_2 C31_4 1_555 1_555
O19_2 C31_4 1_555 1_555
C23_4 N3_4 1_555 1_555
C25_4 N3_4 1_555 1_555
C27_4 C32_4 1_555 1_555

#END
