
###############################################################################
#
# This file contains modified crystal structure data generated from the
# MOF subset of the Cambridge Structural Database (CSD) v543 
# hosted by the Cambridge Crystallographic Data Centre (CCDC).
#
# This work is licensed under the Creative Commons
# Attribution-NonCommercial-ShareAlike 4.0 International License.
# To view a copy of this license, visit
# http://creativecommons.org/licenses/by-nc-sa/4.0/
# or send a letter to
# Creative Commons, PO Box 1866, Mountain View, CA 94042, USA.
#
# CIF created using the CSD Python API on 29 September 2022
# The structure has been converted into the P1 space group
# The structure has a 3D framework
# The original CSD entry MOCVOS is in the monoclinic crystal system
# The framework has been calculated to contain at least 10.0% void space
# The void calculation uses a probe of radius 1.32A, grid spacing 0.4
#
###############################################################################

data_MOCVOS
_chemical_formula_moiety         '(C128 H124 Br4 F24 N12 Nd4 O52 S8)n'
_symmetry_cell_setting           triclinic
_symmetry_space_group_name_H-M   'P 1'
_symmetry_Int_Tables_number      1
_space_group_name_Hall           'P 1'
loop_
_symmetry_equiv_pos_site_id
_symmetry_equiv_pos_as_xyz
1 x,y,z
_cell_length_a                   18.7643(2)
_cell_length_b                   25.6962(3)
_cell_length_c                   9.85675(12)
_cell_angle_alpha                90
_cell_angle_beta                 102.8557(12)
_cell_angle_gamma                90
_cell_volume                     4633.51
loop_
_atom_site_label
_atom_site_type_symbol
_atom_site_fract_x
_atom_site_fract_y
_atom_site_fract_z
Br1 Br 0.40114(5) 0.84615(4) 0.93634(10)
Br1_2 Br 0.59886(5) 0.34615(4) 0.56366(10)
Br1_3 Br 0.59886(5) 0.15385(4) 0.06366(10)
Br1_4 Br 0.40114(5) 0.65385(4) 0.43634(10)
S1 S 0.00383(8) 0.85281(5) 0.63650(14)
O3 O 0.0736(3) 0.8289(2) 0.6424(7)
O1 O 0.9992(2) 0.87761(18) 0.7634(4)
F1 F 0.9610(2) 0.76762(15) 0.7395(4)
O2 O 0.9743(4) 0.88191(19) 0.5141(5)
F2 F 0.9431(3) 0.76750(17) 0.5198(5)
F3 F 0.8734(2) 0.81261(17) 0.6222(6)
C1 C 0.9425(4) 0.7975(2) 0.6278(7)
O1_2 O 0.0008(2) 0.37761(18) 0.7366(4)
F1_2 F 0.0390(2) 0.26762(15) 0.7605(4)
O2_2 O 0.0257(4) 0.38191(19) 0.9859(5)
F2_2 F 0.0569(3) 0.26750(17) 0.9802(5)
F3_2 F 0.1266(2) 0.31261(17) 0.8778(6)
C1_2 C 0.0575(4) 0.2975(2) 0.8722(7)
S1_2 S 0.99617(8) 0.35281(5) 0.86350(14)
O3_2 O 0.9264(3) 0.3289(2) 0.8576(7)
O1_3 O 0.0008(2) 0.12239(18) 0.2366(4)
F1_3 F 0.0390(2) 0.23238(15) 0.2605(4)
O2_3 O 0.0257(4) 0.11809(19) 0.4859(5)
F2_3 F 0.0569(3) 0.23250(17) 0.4802(5)
F3_3 F 0.1266(2) 0.18739(17) 0.3778(6)
C1_3 C 0.0575(4) 0.2025(2) 0.3722(7)
S1_3 S 0.99617(8) 0.14719(5) 0.36350(14)
O3_3 O 0.9264(3) 0.1711(2) 0.3576(7)
S1_4 S 0.00383(8) 0.64719(5) 0.13650(14)
O3_4 O 0.0736(3) 0.6711(2) 0.1424(7)
O1_4 O 0.9992(2) 0.62239(18) 0.2634(4)
F1_4 F 0.9610(2) 0.73238(15) 0.2395(4)
O2_4 O 0.9743(4) 0.61809(19) 0.0141(5)
F2_4 F 0.9431(3) 0.73250(17) 0.0198(5)
F3_4 F 0.8734(2) 0.68739(17) 0.1222(6)
C1_4 C 0.9425(4) 0.7025(2) 0.1278(7)
O4 O 0.1271(3) 0.0168(3) 0.0642(7)
O6 O 0.2520(4) 0.0406(3) 0.0667(7)
S2 S 0.1889(5) 0.0117(3) 0.9959(11)
O5 O 0.1687(4) 0.0165(4) 0.8475(6)
F6 F 0.2333(4) 0.9319(3) 0.1530(8)
C2 C 0.2140(6) 0.9461(5) 0.0242(13)
F4 F 0.1589(4) 0.9135(3) 0.9588(9)
F5 F 0.2713(4) 0.9350(3) 0.9657(10)
S2_2 S 0.8111(5) 0.5117(3) 0.5041(11)
O4_2 O 0.8729(3) 0.5168(3) 0.4358(7)
O5_2 O 0.8313(4) 0.5165(4) 0.6525(6)
O6_2 O 0.7480(4) 0.5406(3) 0.4333(7)
F4_2 F 0.8411(4) 0.4135(3) 0.5412(9)
F5_2 F 0.7287(4) 0.4350(3) 0.5343(10)
F6_2 F 0.7667(4) 0.4319(3) 0.3470(8)
C2_2 C 0.7860(6) 0.4461(5) 0.4758(13)
F4_3 F 0.8411(4) 0.0865(3) 0.0412(9)
F5_3 F 0.7287(4) 0.0650(3) 0.0343(10)
F6_3 F 0.7667(4) 0.0681(3) 0.8470(8)
C2_3 C 0.7860(6) 0.0539(5) 0.9758(13)
S2_3 S 0.8111(5) 0.9883(3) 0.0041(11)
O5_3 O 0.8313(4) 0.9835(4) 0.1525(6)
O4_3 O 0.8729(3) 0.9832(3) 0.9358(7)
O6_3 O 0.7480(4) 0.9594(3) 0.9333(7)
S2_4 S 0.1889(5) 0.4883(3) 0.4959(11)
O4_4 O 0.1271(3) 0.4832(3) 0.5642(7)
O5_4 O 0.1687(4) 0.4835(4) 0.3475(6)
O6_4 O 0.2520(4) 0.4594(3) 0.5667(7)
F4_4 F 0.1589(4) 0.5865(3) 0.4588(9)
F5_4 F 0.2713(4) 0.5650(3) 0.4657(10)
F6_4 F 0.2333(4) 0.5681(3) 0.6530(8)
C2_4 C 0.2140(6) 0.5539(5) 0.5242(13)
N2 N 0.1745(2) 0.04010(17) 0.4907(5)
C13 C 0.1166(3) 0.0014(2) 0.5089(7)
H10 H 0.068228 0.018660 0.485647
H12 H 0.024401 0.007934 0.150792
H13 H 0.020060 0.022677 0.306492
C16 C 0.2372(3) 0.0875(2) 0.3492(6)
H14 H 0.247830 0.093246 0.260576
C18 C 0.2050(4) 0.0687(2) 0.6034(7)
H15 H 0.193425 0.061977 0.690860
C22 C 0.1895(3) 0.0485(2) 0.3669(6)
H22 H 0.167133 0.027504 0.289863
C23 C 0.2536(3) 0.1081(2) 0.5897(6)
H23 H 0.276124 0.128122 0.668599
C27 C 0.3193(3) 0.1635(2) 0.4486(5)
C28 C 0.2694(3) 0.1182(2) 0.4619(5)
O9 O 0.3235(2) 0.17666(15) 0.3294(4)
O10 O 0.3513(2) 0.18354(17) 0.5622(4)
Nd3 Nd 0.38348(2) 0.25018(2) 0.73300(2)
Nd4 Nd 0.38348(2) 0.24982(2) 0.23300(2)
C3 C 0.0090(3) 0.8997(3) 0.0771(6)
H1 H 0.033603 0.881940 0.011112
C4 C 0.1599(2) 0.91158(19) 0.4735(5)
C6 C 0.1064(2) 0.8611(2) 0.2661(5)
C7 C 0.2115(3) 0.9163(2) 0.6141(6)
H3 H 0.249256 0.889357 0.623486
H4 H 0.184164 0.911808 0.687238
H5 H 0.234498 0.950706 0.622820
C11 C 0.1536(2) 0.86522(19) 0.3986(5)
H9 H 0.125982 0.990721 0.607747
C14 C 0.0133(3) 0.9947(3) 0.2371(8)
C15 C 0.0614(2) 0.9040(2) 0.2157(5)
C17 C 0.1144(3) 0.95384(19) 0.4199(6)
C20 C 0.1917(2) 0.81773(19) 0.4690(6)
H17 H 0.187576 0.817857 0.567429
H18 H 0.165732 0.786484 0.424356
C21 C 0.1028(3) 0.8126(2) 0.1811(7)
H19 H 0.143469 0.789599 0.222966
H20 H 0.106295 0.821598 0.086219
H21 H 0.056384 0.794755 0.178579
C24 C 0.0645(3) 0.9498(2) 0.2922(6)
N3 N 0.2706(2) 0.81308(16) 0.4655(4)
C25 C 0.3650(3) 0.8164(2) 0.3425(5)
H24 H 0.381621 0.825593 0.261401
C26 C 0.2939(3) 0.8265(2) 0.3487(5)
H25 H 0.261391 0.842663 0.272667
C29 C 0.3167(3) 0.7921(2) 0.5760(5)
H26 H 0.299644 0.784414 0.657618
C30 C 0.4884(2) 0.77713(18) 0.4437(5)
C31 C 0.4125(2) 0.79305(19) 0.4525(5)
C32 C 0.3880(3) 0.7818(2) 0.5725(5)
H27 H 0.420374 0.767084 0.651196
O11 O 0.50178(17) 0.77647(14) 0.3240(3)
O12 O 0.53199(18) 0.76483(15) 0.5527(4)
Nd2 Nd 0.61652(2) 0.75018(2) 0.76700(2)
Nd6 Nd 0.61652(2) 0.74982(2) 0.26700(2)
N1 N 0.9400(2) 0.87028(16) 0.0834(4)
H2 H 0.995585 0.935164 0.040786
C5 C 0.8102(2) 0.8218(2) 0.0832(5)
C10 C 0.7368(3) 0.7964(2) 0.0814(5)
C12 C 0.9232(3) 0.8580(2) 0.2048(5)
H8 H 0.956244 0.866440 0.289806
H11 H 0.962589 0.982560 0.218544
C19 C 0.8585(3) 0.8334(2) 0.2068(5)
H16 H 0.846980 0.824470 0.293009
O8 O 0.7224(2) 0.78755(17) 0.1970(4)
O7 O 0.6968(2) 0.7870(2) 0.9664(4)
C8 C 0.8944(3) 0.8585(2) 0.9619(5)
H6 H 0.907543 0.867264 0.877048
C9 C 0.8290(2) 0.8339(2) 0.9586(5)
H7 H 0.797216 0.825274 0.872318
O13 O 0.5765(3) 0.66337(16) 0.6535(4)
H28 H 0.573080 0.633624 0.719644
H29 H 0.526264 0.662904 0.587930
O14 O 0.5539(2) 0.83168(16) 0.8142(5)
H30 H 0.554276 0.858332 0.747327
H31 H 0.503627 0.826912 0.814928
O15 O 0.7224(2) 0.71245(17) 0.6970(4)
O16 O 0.6765(2) 0.82334(15) 0.6706(4)
O17 O 0.6487(2) 0.68354(17) 0.9378(4)
O18 O 0.50178(17) 0.72353(14) 0.8240(3)
O7_2 O 0.3032(2) 0.2870(2) 0.5336(4)
N1_2 N 0.0600(2) 0.37028(16) 0.4166(4)
H2_2 H 0.004415 0.435164 0.459214
C5_2 C 0.1898(2) 0.3218(2) 0.4168(5)
C8_2 C 0.1056(3) 0.3585(2) 0.5381(5)
H6_2 H 0.092457 0.367264 0.622952
C9_2 C 0.1710(2) 0.3339(2) 0.5414(5)
H7_2 H 0.202784 0.325274 0.627682
C10_2 C 0.2632(3) 0.2964(2) 0.4186(5)
C12_2 C 0.0768(3) 0.3580(2) 0.2952(5)
H8_2 H 0.043756 0.366440 0.210194
H11_2 H 0.037411 0.482560 0.281456
C19_2 C 0.1415(3) 0.3334(2) 0.2932(5)
H16_2 H 0.153020 0.324470 0.206991
O8_2 O 0.2776(2) 0.28755(17) 0.3030(4)
O13_2 O 0.4235(3) 0.16337(16) 0.8465(4)
H28_2 H 0.426920 0.133624 0.780356
H29_2 H 0.473736 0.162904 0.912070
O14_2 O 0.4461(2) 0.33168(16) 0.6858(5)
H30_2 H 0.445724 0.358332 0.752673
H31_2 H 0.496373 0.326912 0.685072
O15_2 O 0.2776(2) 0.21245(17) 0.8030(4)
O16_2 O 0.3235(2) 0.32334(15) 0.8294(4)
O18_2 O 0.49822(17) 0.22353(14) 0.6760(3)
O19 O 0.46801(18) 0.26483(15) 0.9473(4)
C3_2 C 0.9910(3) 0.3997(3) 0.4229(6)
H1_2 H 0.966397 0.381940 0.488888
C4_2 C 0.8401(2) 0.41158(19) 0.0265(5)
C6_2 C 0.8936(2) 0.3611(2) 0.2339(5)
C11_2 C 0.8464(2) 0.36522(19) 0.1014(5)
N2_2 N 0.8255(2) 0.54010(17) 0.0093(5)
H10_2 H 0.931772 0.518660 0.014353
C14_2 C 0.9867(3) 0.4947(3) 0.2629(8)
H12_2 H 0.975599 0.507934 0.349208
H13_2 H 0.979940 0.522677 0.193508
C15_2 C 0.9386(2) 0.4040(2) 0.2843(5)
C16_2 C 0.7628(3) 0.5875(2) 0.1508(6)
H14_2 H 0.752170 0.593246 0.239424
C17_2 C 0.8856(3) 0.45384(19) 0.0801(6)
C20_2 C 0.8083(2) 0.31773(19) 0.0310(6)
H18_2 H 0.834268 0.286484 0.075644
C21_2 C 0.8972(3) 0.3126(2) 0.3189(7)
H19_2 H 0.856531 0.289599 0.277034
H20_2 H 0.893705 0.321598 0.413781
H21_2 H 0.943616 0.294755 0.321421
C22_2 C 0.8105(3) 0.5485(2) 0.1331(6)
H22_2 H 0.832867 0.527504 0.210137
C24_2 C 0.9355(3) 0.4498(2) 0.2078(6)
N3_2 N 0.7294(2) 0.31308(16) 0.0345(4)
C25_2 C 0.6350(3) 0.3164(2) 0.1575(5)
H24_2 H 0.618379 0.325593 0.238599
C26_2 C 0.7061(3) 0.3265(2) 0.1513(5)
H25_2 H 0.738609 0.342663 0.227333
C27_2 C 0.6807(3) 0.6635(2) 0.0514(5)
C28_2 C 0.7306(3) 0.6182(2) 0.0381(5)
O9_2 O 0.6765(2) 0.67666(15) 0.1706(4)
C30_2 C 0.5116(2) 0.27713(18) 0.0563(5)
C31_2 C 0.5875(2) 0.29305(19) 0.0475(5)
O11_2 O 0.49822(17) 0.27647(14) 0.1760(3)
C7_2 C 0.7885(3) 0.4163(2) 0.8859(6)
H3_2 H 0.750744 0.389357 0.876514
H4_2 H 0.815836 0.411808 0.812762
H5_2 H 0.765502 0.450706 0.877180
C13_2 C 0.8834(3) 0.5014(2) 0.9911(7)
H9_2 H 0.874018 0.490721 0.892253
C18_2 C 0.7950(4) 0.5687(2) 0.8966(7)
H15_2 H 0.806575 0.561977 0.809140
H17_2 H 0.812424 0.317857 0.932571
C23_2 C 0.7464(3) 0.6081(2) 0.9103(6)
H23_2 H 0.723876 0.628122 0.831401
C29_2 C 0.6833(3) 0.2921(2) 0.9240(5)
H26_2 H 0.700356 0.284414 0.842382
C32_2 C 0.6120(3) 0.2818(2) 0.9275(5)
H27_2 H 0.579626 0.267084 0.848804
O7_3 O 0.3032(2) 0.2130(2) 0.0336(4)
C8_3 C 0.1056(3) 0.1415(2) 0.0381(5)
H6_3 H 0.092457 0.132736 0.122952
C9_3 C 0.1710(2) 0.1661(2) 0.0414(5)
H7_3 H 0.202784 0.174726 0.127682
O13_3 O 0.4235(3) 0.33663(16) 0.3465(4)
H28_3 H 0.426920 0.366376 0.280356
H29_3 H 0.473736 0.337096 0.412070
O14_3 O 0.4461(2) 0.16832(16) 0.1858(5)
H30_3 H 0.445724 0.141668 0.252673
H31_3 H 0.496373 0.173088 0.185072
O17_2 O 0.3513(2) 0.31646(17) 0.0622(4)
O19_2 O 0.46801(18) 0.23517(15) 0.4473(4)
N1_3 N 0.0600(2) 0.12972(16) 0.9166(4)
H2_3 H 0.004415 0.064836 0.959214
C5_3 C 0.1898(2) 0.1782(2) 0.9168(5)
C10_3 C 0.2632(3) 0.2036(2) 0.9186(5)
C12_3 C 0.0768(3) 0.1420(2) 0.7952(5)
H8_3 H 0.043756 0.133560 0.710194
H11_3 H 0.037411 0.017440 0.781456
C19_3 C 0.1415(3) 0.1666(2) 0.7932(5)
H16_3 H 0.153020 0.175530 0.706991
C3_3 C 0.9910(3) 0.1003(3) 0.9229(6)
H1_3 H 0.966397 0.118060 0.988888
C4_3 C 0.8401(2) 0.08842(19) 0.5265(5)
C6_3 C 0.8936(2) 0.1389(2) 0.7339(5)
C7_3 C 0.7885(3) 0.0837(2) 0.3859(6)
H3_3 H 0.750744 0.110643 0.376514
H4_3 H 0.815836 0.088192 0.312762
H5_3 H 0.765502 0.049294 0.377180
C11_3 C 0.8464(2) 0.13478(19) 0.6014(5)
H9_3 H 0.874018 0.009279 0.392253
C14_3 C 0.9867(3) 0.0053(3) 0.7629(8)
C15_3 C 0.9386(2) 0.0960(2) 0.7843(5)
C17_3 C 0.8856(3) 0.04616(19) 0.5801(6)
C20_3 C 0.8083(2) 0.18227(19) 0.5310(6)
H17_3 H 0.812424 0.182143 0.432571
H18_3 H 0.834268 0.213516 0.575644
C21_3 C 0.8972(3) 0.1874(2) 0.8189(7)
H19_3 H 0.856531 0.210401 0.777034
H20_3 H 0.893705 0.178402 0.913781
H21_3 H 0.943616 0.205245 0.821421
C24_3 C 0.9355(3) 0.0502(2) 0.7078(6)
N3_3 N 0.7294(2) 0.18692(16) 0.5345(4)
C25_3 C 0.6350(3) 0.1836(2) 0.6575(5)
H24_3 H 0.618379 0.174407 0.738599
C26_3 C 0.7061(3) 0.1735(2) 0.6513(5)
H25_3 H 0.738609 0.157337 0.727333
C29_3 C 0.6833(3) 0.2079(2) 0.4240(5)
H26_3 H 0.700356 0.215586 0.342382
C30_3 C 0.5116(2) 0.22287(18) 0.5563(5)
C31_3 C 0.5875(2) 0.20695(19) 0.5475(5)
C32_3 C 0.6120(3) 0.2182(2) 0.4275(5)
H27_3 H 0.579626 0.232916 0.348804
N2_3 N 0.8255(2) 0.95990(17) 0.5093(5)
C13_3 C 0.8834(3) 0.9986(2) 0.4911(7)
H10_3 H 0.931772 0.981340 0.514353
H12_3 H 0.975599 0.992066 0.849208
H13_3 H 0.979940 0.977323 0.693508
C16_3 C 0.7628(3) 0.9125(2) 0.6508(6)
H14_3 H 0.752170 0.906754 0.739424
C18_3 C 0.7950(4) 0.9313(2) 0.3966(7)
H15_3 H 0.806575 0.938023 0.309140
C22_3 C 0.8105(3) 0.9515(2) 0.6331(6)
H22_3 H 0.832867 0.972496 0.710137
C23_3 C 0.7464(3) 0.8919(2) 0.4103(6)
H23_3 H 0.723876 0.871878 0.331401
C27_3 C 0.6807(3) 0.8365(2) 0.5514(5)
C28_3 C 0.7306(3) 0.8818(2) 0.5381(5)
O10_2 O 0.6487(2) 0.81646(17) 0.4378(4)
C7_4 C 0.2115(3) 0.5837(2) 0.1141(6)
H3_4 H 0.249256 0.610643 0.123486
H4_4 H 0.184164 0.588192 0.187238
H5_4 H 0.234498 0.549294 0.122820
C13_4 C 0.1166(3) 0.4986(2) 0.0089(7)
H9_4 H 0.125982 0.509279 0.107747
C18_4 C 0.2050(4) 0.4313(2) 0.1034(7)
H15_4 H 0.193425 0.438023 0.190860
H17_4 H 0.187576 0.682143 0.067429
C23_4 C 0.2536(3) 0.3919(2) 0.0897(6)
H23_4 H 0.276124 0.371878 0.168599
C29_4 C 0.3167(3) 0.7079(2) 0.0760(5)
H26_4 H 0.299644 0.715586 0.157618
C32_4 C 0.3880(3) 0.7182(2) 0.0725(5)
H27_4 H 0.420374 0.732916 0.151196
O12_2 O 0.53199(18) 0.73517(15) 0.0527(4)
C3_4 C 0.0090(3) 0.6003(3) 0.5771(6)
H1_4 H 0.033603 0.618060 0.511112
C4_4 C 0.1599(2) 0.58842(19) 0.9735(5)
C6_4 C 0.1064(2) 0.6389(2) 0.7661(5)
C11_4 C 0.1536(2) 0.63478(19) 0.8986(5)
N2_4 N 0.1745(2) 0.45990(17) 0.9907(5)
H10_4 H 0.068228 0.481340 0.985647
C14_4 C 0.0133(3) 0.5053(3) 0.7371(8)
H12_4 H 0.024401 0.492066 0.650792
H13_4 H 0.020060 0.477323 0.806492
C15_4 C 0.0614(2) 0.5960(2) 0.7157(5)
C16_4 C 0.2372(3) 0.4125(2) 0.8492(6)
H14_4 H 0.247830 0.406754 0.760576
C17_4 C 0.1144(3) 0.54616(19) 0.9199(6)
C20_4 C 0.1917(2) 0.68227(19) 0.9690(6)
H18_4 H 0.165732 0.713516 0.924356
C21_4 C 0.1028(3) 0.6874(2) 0.6811(7)
H19_4 H 0.143469 0.710401 0.722966
H20_4 H 0.106295 0.678402 0.586219
H21_4 H 0.056384 0.705245 0.678579
C22_4 C 0.1895(3) 0.4515(2) 0.8669(6)
H22_4 H 0.167133 0.472496 0.789863
C24_4 C 0.0645(3) 0.5502(2) 0.7922(6)
N3_4 N 0.2706(2) 0.68692(16) 0.9655(4)
C25_4 C 0.3650(3) 0.6836(2) 0.8425(5)
H24_4 H 0.381621 0.674407 0.761401
C26_4 C 0.2939(3) 0.6735(2) 0.8487(5)
H25_4 H 0.261391 0.657337 0.772667
C27_4 C 0.3193(3) 0.3365(2) 0.9486(5)
C28_4 C 0.2694(3) 0.3818(2) 0.9619(5)
C30_4 C 0.4884(2) 0.72287(18) 0.9437(5)
C31_4 C 0.4125(2) 0.70695(19) 0.9525(5)
O7_4 O 0.6968(2) 0.7130(2) 0.4664(4)
N1_4 N 0.9400(2) 0.62972(16) 0.5834(4)
H2_4 H 0.995585 0.564836 0.540786
C5_4 C 0.8102(2) 0.6782(2) 0.5832(5)
C8_4 C 0.8944(3) 0.6415(2) 0.4619(5)
H6_4 H 0.907543 0.632736 0.377048
C9_4 C 0.8290(2) 0.6661(2) 0.4586(5)
H7_4 H 0.797216 0.674726 0.372318
C10_4 C 0.7368(3) 0.7036(2) 0.5814(5)
C12_4 C 0.9232(3) 0.6420(2) 0.7048(5)
H8_4 H 0.956244 0.633560 0.789806
H11_4 H 0.962589 0.517440 0.718544
C19_4 C 0.8585(3) 0.6666(2) 0.7068(5)
H16_4 H 0.846980 0.675530 0.793009
O13_4 O 0.5765(3) 0.83663(16) 0.1535(4)
H28_4 H 0.573080 0.866376 0.219644
H29_4 H 0.526264 0.837096 0.087930
O14_4 O 0.5539(2) 0.66832(16) 0.3142(5)
H30_4 H 0.554276 0.641668 0.247327
H31_4 H 0.503627 0.673088 0.314928
loop_
_geom_bond_atom_site_label_1
_geom_bond_atom_site_label_2
_geom_bond_site_symmetry_1
_geom_bond_site_symmetry_2
O3 S1 1_555 1_555
F1 C1 1_555 1_555
F2 C1 1_555 1_555
F3 C1 1_555 1_555
F1_2 C1_2 1_555 1_555
F2_2 C1_2 1_555 1_555
F3_2 C1_2 1_555 1_555
O3_2 S1_2 1_555 1_555
F1_3 C1_3 1_555 1_555
F2_3 C1_3 1_555 1_555
F3_3 C1_3 1_555 1_555
O3_3 S1_3 1_555 1_555
O3_4 S1_4 1_555 1_555
F1_4 C1_4 1_555 1_555
F2_4 C1_4 1_555 1_555
F3_4 C1_4 1_555 1_555
O5 S2 1_555 1_555
F6 C2 1_555 1_555
S2_2 O4_2 1_555 1_555
O5_2 S2_2 1_555 1_555
O6_2 S2_2 1_555 1_555
F4_2 C2_2 1_555 1_555
F5_2 C2_2 1_555 1_555
F6_2 C2_2 1_555 1_555
C2_2 S2_2 1_555 1_555
F6_3 C2_3 1_555 1_555
O5_3 S2_3 1_555 1_555
S2_4 O4_4 1_555 1_555
O5_4 S2_4 1_555 1_555
O6_4 S2_4 1_555 1_555
F4_4 C2_4 1_555 1_555
F5_4 C2_4 1_555 1_555
F6_4 C2_4 1_555 1_555
C2_4 S2_4 1_555 1_555
N2 C13 1_555 1_555
H10 C13 1_555 1_555
C16 H14 1_555 1_555
C18 N2 1_555 1_555
H15 C18 1_555 1_555
C22 N2 1_555 1_555
H22 C22 1_555 1_555
C23 C18 1_555 1_555
H23 C23 1_555 1_555
C27 C28 1_555 1_555
C28 C16 1_555 1_555
O9 C27 1_555 1_555
O10 C27 1_555 1_555
Nd3 O10 1_555 1_555
Nd4 O9 1_555 1_555
C16 C22 1_555 1_555
C23 C28 1_555 1_555
C3 H1 1_555 1_555
C4 C7 1_555 1_555
C6 C11 1_555 1_555
C7 H3 1_555 1_555
H4 C7 1_555 1_555
H5 C7 1_555 1_555
C11 C4 1_555 1_555
C15 C3 1_555 1_555
C17 C4 1_555 1_555
C20 C11 1_555 1_555
H17 C20 1_555 1_555
H18 C20 1_555 1_555
C21 C6 1_555 1_555
H19 C21 1_555 1_555
H20 C21 1_555 1_555
H21 C21 1_555 1_555
C24 C14 1_555 1_555
N3 C20 1_555 1_555
C25 H24 1_555 1_555
C26 N3 1_555 1_555
H25 C26 1_555 1_555
C29 N3 1_555 1_555
H26 C29 1_555 1_555
C30 C31 1_555 1_555
C31 C25 1_555 1_555
C32 C29 1_555 1_555
H27 C32 1_555 1_555
O11 C30 1_555 1_555
O12 C30 1_555 1_555
Nd2 O12 1_555 1_555
Nd6 O11 1_555 1_555
C6 C15 1_555 1_555
C15 C24 1_555 1_555
C17 C24 1_555 1_555
C25 C26 1_555 1_555
C31 C32 1_555 1_555
C10 C5 1_555 1_555
C12 N1 1_555 1_555
H8 C12 1_555 1_555
C19 C5 1_555 1_555
H16 C19 1_555 1_555
O8 C10 1_555 1_555
Nd6 O8 1_555 1_555
C12 C19 1_555 1_555
Nd2 O7 1_555 1_555
H6 C8 1_555 1_555
C9 C8 1_555 1_555
H7 C9 1_555 1_555
O13 Nd2 1_555 1_555
H28 O13 1_555 1_555
H29 O13 1_555 1_555
O14 Nd2 1_555 1_555
H30 O14 1_555 1_555
H31 O14 1_555 1_555
O15 Nd2 1_555 1_555
O16 Nd2 1_555 1_555
O17 Nd2 1_555 1_555
O18 Nd2 1_555 1_555
Nd3 O7_2 1_555 1_555
O7_2 C10_2 1_555 1_555
C5_2 C9_2 1_555 1_555
C8_2 N1_2 1_555 1_555
H6_2 C8_2 1_555 1_555
C9_2 C8_2 1_555 1_555
H7_2 C9_2 1_555 1_555
C10_2 C5_2 1_555 1_555
C12_2 N1_2 1_555 1_555
H8_2 C12_2 1_555 1_555
C19_2 C5_2 1_555 1_555
H16_2 C19_2 1_555 1_555
O8_2 C10_2 1_555 1_555
O13_2 Nd3 1_555 1_555
H28_2 O13_2 1_555 1_555
H29_2 O13_2 1_555 1_555
O14_2 Nd3 1_555 1_555
H30_2 O14_2 1_555 1_555
H31_2 O14_2 1_555 1_555
Nd4 O8_2 1_555 1_555
O15_2 Nd3 1_555 1_555
O16_2 Nd3 1_555 1_555
O18_2 Nd3 1_555 1_555
O19 Nd3 1_555 1_555
C12_2 C19_2 1_555 1_555
C3_2 H1_2 1_555 1_555
C6_2 C11_2 1_555 1_555
C11_2 C4_2 1_555 1_555
H12_2 C14_2 1_555 1_555
H13_2 C14_2 1_555 1_555
C15_2 C3_2 1_555 1_555
C16_2 H14_2 1_555 1_555
C17_2 C4_2 1_555 1_555
C20_2 C11_2 1_555 1_555
H18_2 C20_2 1_555 1_555
C21_2 C6_2 1_555 1_555
H19_2 C21_2 1_555 1_555
H20_2 C21_2 1_555 1_555
H21_2 C21_2 1_555 1_555
C22_2 N2_2 1_555 1_555
H22_2 C22_2 1_555 1_555
C24_2 C14_2 1_555 1_555
N3_2 C20_2 1_555 1_555
C25_2 H24_2 1_555 1_555
C26_2 N3_2 1_555 1_555
H25_2 C26_2 1_555 1_555
C27_2 C28_2 1_555 1_555
C28_2 C16_2 1_555 1_555
O9_2 C27_2 1_555 1_555
C30_2 C31_2 1_555 1_555
C31_2 C25_2 1_555 1_555
O11_2 C30_2 1_555 1_555
Nd6 O9_2 1_555 1_555
Nd4 O11_2 1_555 1_555
C6_2 C15_2 1_555 1_555
C15_2 C24_2 1_555 1_555
C16_2 C22_2 1_555 1_555
C17_2 C24_2 1_555 1_555
C25_2 C26_2 1_555 1_555
C7_2 H3_2 1_555 1_555
H4_2 C7_2 1_555 1_555
H5_2 C7_2 1_555 1_555
C13_2 H9_2 1_555 1_555
H15_2 C18_2 1_555 1_555
C23_2 C18_2 1_555 1_555
H23_2 C23_2 1_555 1_555
H26_2 C29_2 1_555 1_555
C32_2 C29_2 1_555 1_555
H27_2 C32_2 1_555 1_555
Nd4 O7_3 1_555 1_555
H6_3 C8_3 1_555 1_555
C9_3 C8_3 1_555 1_555
H7_3 C9_3 1_555 1_555
O13_3 Nd4 1_555 1_555
H28_3 O13_3 1_555 1_555
H29_3 O13_3 1_555 1_555
O14_3 Nd4 1_555 1_555
H30_3 O14_3 1_555 1_555
H31_3 O14_3 1_555 1_555
O17_2 Nd4 1_555 1_555
O19_2 Nd4 1_555 1_555
C10_3 C5_3 1_555 1_555
C12_3 N1_3 1_555 1_555
H8_3 C12_3 1_555 1_555
C19_3 C5_3 1_555 1_555
H16_3 C19_3 1_555 1_555
O15_2 C10_3 1_555 1_555
C12_3 C19_3 1_555 1_555
C3_3 H1_3 1_555 1_555
C4_3 C7_3 1_555 1_555
C6_3 C11_3 1_555 1_555
C7_3 H3_3 1_555 1_555
H4_3 C7_3 1_555 1_555
H5_3 C7_3 1_555 1_555
C11_3 C4_3 1_555 1_555
C15_3 C3_3 1_555 1_555
C17_3 C4_3 1_555 1_555
C20_3 C11_3 1_555 1_555
H17_3 C20_3 1_555 1_555
H18_3 C20_3 1_555 1_555
C21_3 C6_3 1_555 1_555
H19_3 C21_3 1_555 1_555
H20_3 C21_3 1_555 1_555
H21_3 C21_3 1_555 1_555
C24_3 C14_3 1_555 1_555
N3_3 C20_3 1_555 1_555
C25_3 H24_3 1_555 1_555
C26_3 N3_3 1_555 1_555
H25_3 C26_3 1_555 1_555
C29_3 N3_3 1_555 1_555
H26_3 C29_3 1_555 1_555
C30_3 C31_3 1_555 1_555
C31_3 C25_3 1_555 1_555
C32_3 C29_3 1_555 1_555
H27_3 C32_3 1_555 1_555
O18_2 C30_3 1_555 1_555
O19_2 C30_3 1_555 1_555
C6_3 C15_3 1_555 1_555
C15_3 C24_3 1_555 1_555
C17_3 C24_3 1_555 1_555
C25_3 C26_3 1_555 1_555
C31_3 C32_3 1_555 1_555
N2_3 C13_3 1_555 1_555
H10_3 C13_3 1_555 1_555
C16_3 H14_3 1_555 1_555
C18_3 N2_3 1_555 1_555
H15_3 C18_3 1_555 1_555
C22_3 N2_3 1_555 1_555
H22_3 C22_3 1_555 1_555
C23_3 C18_3 1_555 1_555
H23_3 C23_3 1_555 1_555
C27_3 C28_3 1_555 1_555
C28_3 C16_3 1_555 1_555
O16 C27_3 1_555 1_555
O10_2 C27_3 1_555 1_555
Nd6 O10_2 1_555 1_555
C16_3 C22_3 1_555 1_555
C23_3 C28_3 1_555 1_555
C7_4 H3_4 1_555 1_555
H4_4 C7_4 1_555 1_555
H5_4 C7_4 1_555 1_555
C13_4 H9_4 1_555 1_555
H15_4 C18_4 1_555 1_555
C23_4 C18_4 1_555 1_555
H23_4 C23_4 1_555 1_555
H26_4 C29_4 1_555 1_555
C32_4 C29_4 1_555 1_555
H27_4 C32_4 1_555 1_555
Nd6 O12_2 1_555 1_555
C3_4 H1_4 1_555 1_555
C6_4 C11_4 1_555 1_555
C11_4 C4_4 1_555 1_555
H12_4 C14_4 1_555 1_555
H13_4 C14_4 1_555 1_555
C15_4 C3_4 1_555 1_555
C16_4 H14_4 1_555 1_555
C17_4 C4_4 1_555 1_555
C20_4 C11_4 1_555 1_555
H18_4 C20_4 1_555 1_555
C21_4 C6_4 1_555 1_555
H19_4 C21_4 1_555 1_555
H20_4 C21_4 1_555 1_555
H21_4 C21_4 1_555 1_555
C22_4 N2_4 1_555 1_555
H22_4 C22_4 1_555 1_555
C24_4 C14_4 1_555 1_555
N3_4 C20_4 1_555 1_555
C25_4 H24_4 1_555 1_555
C26_4 N3_4 1_555 1_555
H25_4 C26_4 1_555 1_555
C27_4 C28_4 1_555 1_555
C28_4 C16_4 1_555 1_555
O16_2 C27_4 1_555 1_555
C30_4 C31_4 1_555 1_555
C31_4 C25_4 1_555 1_555
O18 C30_4 1_555 1_555
C6_4 C15_4 1_555 1_555
C15_4 C24_4 1_555 1_555
C16_4 C22_4 1_555 1_555
C17_4 C24_4 1_555 1_555
C25_4 C26_4 1_555 1_555
Nd6 O7_4 1_555 1_555
O7_4 C10_4 1_555 1_555
C5_4 C9_4 1_555 1_555
C8_4 N1_4 1_555 1_555
H6_4 C8_4 1_555 1_555
C9_4 C8_4 1_555 1_555
H7_4 C9_4 1_555 1_555
C10_4 C5_4 1_555 1_555
C12_4 N1_4 1_555 1_555
H8_4 C12_4 1_555 1_555
C19_4 C5_4 1_555 1_555
H16_4 C19_4 1_555 1_555
O15 C10_4 1_555 1_555
O13_4 Nd6 1_555 1_555
H28_4 O13_4 1_555 1_555
H29_4 O13_4 1_555 1_555
O14_4 Nd6 1_555 1_555
H30_4 O14_4 1_555 1_555
H31_4 O14_4 1_555 1_555
C12_4 C19_4 1_555 1_555

#END
