
###############################################################################
#
# This file contains modified crystal structure data generated from the
# MOF subset of the Cambridge Structural Database (CSD) v543 
# hosted by the Cambridge Crystallographic Data Centre (CCDC).
#
# This work is licensed under the Creative Commons
# Attribution-NonCommercial-ShareAlike 4.0 International License.
# To view a copy of this license, visit
# http://creativecommons.org/licenses/by-nc-sa/4.0/
# or send a letter to
# Creative Commons, PO Box 1866, Mountain View, CA 94042, USA.
#
# CIF created using the CSD Python API on 29 September 2022
# The structure has been converted into the P1 space group
# The structure has a 3D framework
# The original CSD entry MODNOL is in the monoclinic crystal system
# The framework has been calculated to contain at least 10.0% void space
# The void calculation uses a probe of radius 1.32A, grid spacing 0.4
#
###############################################################################

data_MODNOL
_chemical_formula_moiety         '(C320 H192 N32 O44 Zn14)n'
_symmetry_cell_setting           triclinic
_symmetry_space_group_name_H-M   'P 1'
_symmetry_Int_Tables_number      1
_space_group_name_Hall           'P 1'
loop_
_symmetry_equiv_pos_site_id
_symmetry_equiv_pos_as_xyz
1 x,y,z
_cell_length_a                   18.9611(12)
_cell_length_b                   11.2084(7)
_cell_length_c                   36.616(2)
_cell_angle_alpha                90
_cell_angle_beta                 100.906(2)
_cell_angle_gamma                90
_cell_volume                     7641.22
loop_
_atom_site_label
_atom_site_type_symbol
_atom_site_fract_x
_atom_site_fract_y
_atom_site_fract_z
H42 H 0.022652 0.251897 0.449289
Zn9 Zn 0.000000 0.25912(8) 0.750000
Zn1 Zn 0.22358(3) 0.65145(6) 0.02103(2)
Zn2 Zn 0.500000 0.24088(8) 0.250000
N1 N 0.4158(3) 0.3556(5) 0.24945(15)
N2 N 0.1798(3) 0.5474(4) 0.05564(13)
O3 O 0.1466(2) 0.7837(4) 0.01641(14)
N3 N 0.1552(3) 0.4884(5) 0.10983(14)
N4 N 0.3086(3) 0.4362(5) 0.22991(14)
C2 C 0.0671(3) 0.9456(6) 0.0006(2)
C3 C 0.1965(3) 0.5558(6) 0.09212(16)
H1 H 0.233444 0.603889 0.104423
C6 C 0.1224(3) 0.4674(6) 0.04895(17)
C7 C 0.3553(3) 0.3524(6) 0.22444(17)
H2 H 0.346367 0.297308 0.205112
C8 C 0.2311(3) 0.4616(6) 0.16990(18)
H3 H 0.271207 0.456453 0.158736
C12 C 0.1631(3) 0.4757(6) 0.14897(17)
C13 C 0.1062(3) 0.4292(6) 0.08270(18)
C16 C 0.1387(3) 0.8843(6) 0.00056(17)
C17 C 0.4069(4) 0.4499(6) 0.27250(17)
C18 C 0.0823(4) 0.4248(7) 0.0153(2)
C19 C 0.3410(4) 0.5029(6) 0.26078(18)
C20 C 0.2374(4) 0.4556(7) 0.20747(18)
C21 C 0.0517(4) 0.3488(7) 0.0848(2)
H8 H 0.040913 0.324234 0.107344
C22 C 0.0317(4) 0.9294(6) 0.0305(2)
C23 C 0.1033(4) 0.4817(8) 0.1657(2)
H9 H 0.057629 0.491844 0.151378
C24 C 0.1795(4) 0.4591(8) 0.2252(2)
H10 H 0.185605 0.452682 0.250935
C27 C 0.0293(4) 0.3445(7) 0.0177(2)
C30 C 0.0140(4) 0.3070(8) 0.0508(3)
C31 C 0.3183(5) 0.6017(8) 0.2783(2)
H15 H 0.273956 0.637364 0.269838
C32 C 0.1126(4) 0.4724(9) 0.2035(2)
H16 H 0.072600 0.475121 0.214797
C33 C 0.3649(6) 0.6436(9) 0.3087(3)
H17 H 0.351722 0.709186 0.321506
C36 C 0.4313(5) 0.5908(9) 0.3210(3)
H20 H 0.461264 0.622354 0.341867
C40 C 0.4545(4) 0.4939(8) 0.3037(2)
H24 H 0.499235 0.459380 0.312151
C45 C 0.0325(9) 0.8399(15) 0.0993(4)
H25 H 0.055860 0.793127 0.118842
C48 C 0.0599(8) 0.8699(15) 0.0639(4)
H28 H 0.106409 0.842251 0.064509
Zn3 Zn 0.77642(3) 0.65145(6) 0.47897(2)
N5 N 0.5842(3) 0.3556(5) 0.25055(15)
N6 N 0.8202(3) 0.5474(4) 0.44436(13)
O9 O 0.8238(3) 0.5991(5) 0.53064(11)
N7 N 0.8448(3) 0.4884(5) 0.39017(14)
C49 C 0.8210(3) 0.6542(6) 0.56006(17)
N8 N 0.6914(3) 0.4362(5) 0.27009(14)
C50 C 0.8035(3) 0.5558(6) 0.40788(16)
H29 H 0.766556 0.603889 0.395577
C51 C 0.8791(3) 0.6604(6) 0.63042(17)
C52 C 0.8612(3) 0.5990(6) 0.59577(16)
C53 C 0.8776(3) 0.4674(6) 0.45105(17)
C54 C 0.6447(3) 0.3524(6) 0.27556(17)
H30 H 0.653633 0.297308 0.294888
C55 C 0.7689(3) 0.4616(6) 0.33010(18)
H31 H 0.728793 0.456453 0.341264
C56 C 0.9082(4) 0.4167(6) 0.62640(18)
H32 H 0.920563 0.336976 0.624437
C57 C 0.8797(3) 0.4805(6) 0.59452(17)
H33 H 0.873029 0.442027 0.571615
C58 C 0.9182(3) 0.4700(6) 0.66095(18)
C59 C 0.8369(3) 0.4757(6) 0.35103(17)
C60 C 0.8938(3) 0.4292(6) 0.41730(18)
C61 C 0.9198(4) 0.6574(8) 0.6980(2)
H34 H 0.935701 0.615460 0.719922
C62 C 0.9058(3) 0.5934(6) 0.66322(16)
C63 C 0.5931(4) 0.4499(6) 0.22750(17)
C64 C 0.9177(4) 0.4248(7) 0.4847(2)
H35 H 0.908562 0.450168 0.507496
C65 C 0.6590(4) 0.5029(6) 0.23922(18)
C66 C 0.7626(4) 0.4556(7) 0.29253(18)
C67 C 0.9483(4) 0.3488(7) 0.4152(2)
H36 H 0.959087 0.324234 0.392656
C68 C 0.8967(4) 0.4817(8) 0.3343(2)
H37 H 0.942371 0.491844 0.348622
C69 C 0.8205(4) 0.4591(8) 0.2748(2)
H38 H 0.814395 0.452682 0.249065
C70 C 0.8874(4) 0.8408(8) 0.6677(2)
H39 H 0.882024 0.923019 0.669071
C71 C 0.9707(4) 0.3445(7) 0.4823(2)
H40 H 0.997638 0.313968 0.504198
C72 C 0.8723(4) 0.7857(6) 0.6341(2)
H41 H 0.857134 0.831455 0.612873
C73 C 0.9411(5) 0.3933(8) 0.6943(2)
C74 C 0.9860(4) 0.3070(8) 0.4492(3)
C75 C 0.6817(5) 0.6017(8) 0.2217(2)
H43 H 0.726044 0.637364 0.230162
C76 C 0.8874(4) 0.4724(9) 0.2965(2)
H44 H 0.927400 0.475121 0.285203
C77 C 0.6351(6) 0.6436(9) 0.1913(3)
H45 H 0.648278 0.709186 0.178494
C78 C 0.9105(5) 0.7770(8) 0.6995(2)
H46 H 0.919849 0.815912 0.722374
C79 C 0.5687(5) 0.5908(9) 0.1790(3)
H47 H 0.538736 0.622354 0.158133
O10 O 0.7858(3) 0.7476(4) 0.56217(12)
O11 O 0.9836(3) 0.3140(6) 0.69363(19)
O12 O 0.9167(5) 0.4128(7) 0.72337(18)
C80 C 0.5455(4) 0.4939(8) 0.1963(2)
H48 H 0.500765 0.459380 0.187849
O13 O 0.3164(2) 0.5670(4) 0.01474(14)
O14 O 0.6836(2) 0.5670(4) 0.48526(14)
Zn7 Zn 0.72358(3) 0.84855(6) 0.52103(2)
Zn9_2 Zn 1.000000 0.25912(8) 0.750000
O15 O 0.8534(2) 0.7837(4) 0.48359(14)
O16 O 0.2858(3) 0.7524(4) 0.06217(12)
O17 O 0.7142(3) 0.7524(4) 0.43783(12)
O18 O 0.4836(3) 0.1860(6) 0.19363(19)
O19 O 0.5164(3) 0.1860(6) 0.30637(19)
O20 O 0.4167(5) 0.0872(7) 0.22337(18)
O21 O 0.5833(5) 0.0872(7) 0.27663(18)
O1 O 0.1836(2) 0.9330(4) 0.98526(14)
O2 O 0.1762(3) 0.5991(5) 0.96936(11)
C1 C 0.1790(3) 0.6542(6) 0.93994(17)
C4 C 0.1209(3) 0.6604(6) 0.86958(17)
C5 C 0.1388(3) 0.5990(6) 0.90423(16)
C9 C 0.0918(4) 0.4167(6) 0.87360(18)
H4 H 0.079437 0.336976 0.875563
C10 C 0.1203(3) 0.4805(6) 0.90548(17)
H5 H 0.126971 0.442027 0.928385
C11 C 0.0818(3) 0.4700(6) 0.83905(18)
C14 C 0.0802(4) 0.6574(8) 0.8020(2)
H6 H 0.064299 0.615460 0.780078
C15 C 0.0942(3) 0.5934(6) 0.83678(16)
H7 H 0.091438 0.450168 0.992504
C26 C 0.1126(4) 0.8408(8) 0.8323(2)
H11 H 0.117976 0.923019 0.830929
H12 H 0.002362 0.313968 0.995802
C28 C 0.1277(4) 0.7857(6) 0.8659(2)
H13 H 0.142866 0.831455 0.887127
C29 C 0.0589(5) 0.3933(8) 0.8057(2)
C34 C 0.0895(5) 0.7770(8) 0.8005(2)
H18 H 0.080151 0.815912 0.777626
H22 H 0.112900 0.998311 0.935506
O4 O 0.2142(3) 0.7476(4) 0.93783(12)
O5 O 0.0164(3) 0.3140(6) 0.80637(19)
O6 O 0.0833(5) 0.4128(7) 0.77663(18)
Zn6 Zn 0.27642(3) 0.84855(6) 0.97897(2)
O7 O 0.8164(2) 0.0670(4) 0.01474(14)
H27 H 0.887100 0.001689 0.064494
Zn4 Zn 0.72358(3) 0.15145(6) 0.02103(2)
C35 C 0.9675(9) 0.1601(15) 0.9007(4)
H19 H 0.944140 0.206873 0.881158
C39 C 0.9401(8) 0.1301(15) 0.9361(4)
H23 H 0.893591 0.157749 0.935491
O8 O 0.8534(2) 0.2163(4) 0.98359(14)
C41 C 0.9329(3) 0.0544(6) 0.9994(2)
C42 C 0.8613(3) 0.1157(6) 0.99944(17)
C43 C 0.9683(4) 0.0706(6) 0.9695(2)
Zn5 Zn 0.77642(3) 0.34855(6) 0.97897(2)
C35_2 C 0.0325(9) 0.1601(15) 0.5993(4)
H19_2 H 0.055860 0.206873 0.618842
C39_2 C 0.0599(8) 0.1301(15) 0.5639(4)
H23_2 H 0.106409 0.157749 0.564509
O7_2 O 0.1836(2) 0.0670(4) 0.48526(14)
O8_2 O 0.1466(2) 0.2163(4) 0.51641(14)
C41_2 C 0.0671(3) 0.0544(6) 0.5006(2)
C42_2 C 0.1387(3) 0.1157(6) 0.50056(17)
C43_2 C 0.0317(4) 0.0706(6) 0.5305(2)
H27_2 H 0.112900 0.001689 0.435506
Zn4_2 Zn 0.27642(3) 0.15145(6) 0.47897(2)
Zn5_2 Zn 0.22358(3) 0.34855(6) 0.52103(2)
C44 C 0.0368(4) 0.9847(6) 0.4701(2)
C46 C 0.0395(8) 0.9000(15) 0.4032(5)
H26 H 0.064334 0.893866 0.383655
C47 C 0.0687(7) 0.9657(12) 0.4355(3)
C25 C 0.9632(4) 0.0153(6) 0.5299(2)
C37 C 0.9605(8) 0.1000(15) 0.5968(5)
H21 H 0.935666 0.106134 0.616345
C38 C 0.9313(7) 0.0343(12) 0.5645(3)
O1_2 O 0.8164(2) 0.9330(4) 0.51474(14)
C2_2 C 0.9329(3) 0.9456(6) 0.4994(2)
C16_2 C 0.8613(3) 0.8843(6) 0.49944(17)
C22_2 C 0.9683(4) 0.9294(6) 0.4695(2)
H22_2 H 0.887100 0.998311 0.564494
C45_2 C 0.9675(9) 0.8399(15) 0.4007(4)
H25_2 H 0.944140 0.793127 0.381158
C48_2 C 0.9401(8) 0.8699(15) 0.4361(4)
H28_2 H 0.893591 0.842251 0.435491
N6_2 N 0.3202(3) 0.0474(4) 0.44436(13)
O9_2 O 0.3238(3) 0.0991(5) 0.53064(11)
C49_2 C 0.3210(3) 0.1542(6) 0.56006(17)
C50_2 C 0.3035(3) 0.0558(6) 0.40788(16)
H29_2 H 0.266556 0.103889 0.395577
C51_2 C 0.3791(3) 0.1604(6) 0.63042(17)
C52_2 C 0.3612(3) 0.0990(6) 0.59577(16)
C61_2 C 0.4198(4) 0.1574(8) 0.6980(2)
H34_2 H 0.435701 0.115460 0.719922
C62_2 C 0.4058(3) 0.0934(6) 0.66322(16)
C65_2 C 0.1590(4) 0.0029(6) 0.23922(18)
C70_2 C 0.3874(4) 0.3408(8) 0.6677(2)
H39_2 H 0.382024 0.423019 0.669071
C72_2 C 0.3723(4) 0.2857(6) 0.6341(2)
H41_2 H 0.357134 0.331455 0.612873
C75_2 C 0.1817(5) 0.1017(8) 0.2217(2)
H43_2 H 0.226044 0.137364 0.230162
C77_2 C 0.1351(6) 0.1436(9) 0.1913(3)
H45_2 H 0.148278 0.209186 0.178494
C78_2 C 0.4105(5) 0.2770(8) 0.6995(2)
H46_2 H 0.419849 0.315912 0.722374
C79_2 C 0.0687(5) 0.0908(9) 0.1790(3)
H47_2 H 0.038736 0.122354 0.158133
O10_2 O 0.2858(3) 0.2476(4) 0.56217(12)
O15_2 O 0.3534(2) 0.2837(4) 0.48359(14)
O17_2 O 0.2142(3) 0.2524(4) 0.43783(12)
Zn2_2 Zn -0.000000 0.74088(8) 0.250000
N5_2 N 0.0842(3) 0.8556(5) 0.25055(15)
N7_2 N 0.3448(3) 0.9884(5) 0.39017(14)
N8_2 N 0.1914(3) 0.9362(5) 0.27009(14)
C53_2 C 0.3776(3) 0.9674(6) 0.45105(17)
C54_2 C 0.1447(3) 0.8524(6) 0.27556(17)
H30_2 H 0.153633 0.797308 0.294888
C55_2 C 0.2689(3) 0.9616(6) 0.33010(18)
H31_2 H 0.228793 0.956453 0.341264
C56_2 C 0.4082(4) 0.9167(6) 0.62640(18)
H32_2 H 0.420563 0.836976 0.624437
C57_2 C 0.3797(3) 0.9805(6) 0.59452(17)
H33_2 H 0.373029 0.942027 0.571615
C58_2 C 0.4182(3) 0.9700(6) 0.66095(18)
C59_2 C 0.3369(3) 0.9757(6) 0.35103(17)
C60_2 C 0.3938(3) 0.9292(6) 0.41730(18)
C63_2 C 0.0931(4) 0.9499(6) 0.22750(17)
C64_2 C 0.4177(4) 0.9248(7) 0.4847(2)
H35_2 H 0.408562 0.950168 0.507496
C66_2 C 0.2626(4) 0.9556(7) 0.29253(18)
C67_2 C 0.4483(4) 0.8488(7) 0.4152(2)
H36_2 H 0.459087 0.824234 0.392656
C68_2 C 0.3967(4) 0.9817(8) 0.3343(2)
H37_2 H 0.442371 0.991844 0.348622
C69_2 C 0.3205(4) 0.9591(8) 0.2748(2)
H38_2 H 0.314395 0.952682 0.249065
C71_2 C 0.4707(4) 0.8445(7) 0.4823(2)
H40_2 H 0.497638 0.813968 0.504198
C73_2 C 0.4411(5) 0.8933(8) 0.6943(2)
C74_2 C 0.4860(4) 0.8070(8) 0.4492(3)
H42_2 H 0.522652 0.751897 0.449289
C76_2 C 0.3874(4) 0.9724(9) 0.2965(2)
H44_2 H 0.427400 0.975121 0.285203
O11_2 O 0.4836(3) 0.8140(6) 0.69363(19)
O12_2 O 0.4167(5) 0.9128(7) 0.72337(18)
C80_2 C 0.0455(4) 0.9939(8) 0.1963(2)
H48_2 H 0.000765 0.959380 0.187849
Zn9_3 Zn 0.500000 0.75912(8) 0.750000
O19_2 O 0.0164(3) 0.6860(6) 0.30637(19)
O21_2 O 0.0833(5) 0.5872(7) 0.27663(18)
N2_2 N 0.6798(3) 0.0474(4) 0.05564(13)
O3_2 O 0.6466(2) 0.2837(4) 0.01641(14)
C2_3 C 0.5671(3) 0.4456(6) 0.0006(2)
C3_2 C 0.6965(3) 0.0558(6) 0.09212(16)
H1_2 H 0.733444 0.103889 0.104423
C16_3 C 0.6387(3) 0.3843(6) 0.00056(17)
C19_2 C 0.8410(4) 0.0029(6) 0.26078(18)
C22_3 C 0.5317(4) 0.4294(6) 0.0305(2)
C31_2 C 0.8183(5) 0.1017(8) 0.2783(2)
H15_2 H 0.773956 0.137364 0.269838
C33_2 C 0.8649(6) 0.1436(9) 0.3087(3)
H17_2 H 0.851722 0.209186 0.321506
C36_2 C 0.9313(5) 0.0908(9) 0.3210(3)
H20_2 H 0.961264 0.122354 0.341867
C44_2 C 0.4632(4) 0.4847(6) 0.0299(2)
C45_3 C 0.5325(9) 0.3399(15) 0.0993(4)
H25_3 H 0.555860 0.293127 0.118842
C46_2 C 0.4605(8) 0.4000(15) 0.0968(5)
H26_2 H 0.435666 0.393866 0.116345
C47_2 C 0.4313(7) 0.4657(12) 0.0645(3)
H27_3 H 0.387100 0.501689 0.064494
C48_3 C 0.5599(8) 0.3699(15) 0.0639(4)
H28_3 H 0.606409 0.342251 0.064509
O16_2 O 0.7858(3) 0.2524(4) 0.06217(12)
O1_3 O 0.6836(2) 0.4330(4) 0.98526(14)
O2_2 O 0.6762(3) 0.0991(5) 0.96936(11)
C1_2 C 0.6790(3) 0.1542(6) 0.93994(17)
C4_2 C 0.6209(3) 0.1604(6) 0.86958(17)
C5_2 C 0.6388(3) 0.0990(6) 0.90423(16)
C14_2 C 0.5802(4) 0.1574(8) 0.8020(2)
H6_2 H 0.564299 0.115460 0.780078
C15_2 C 0.5942(3) 0.0934(6) 0.83678(16)
C25_2 C 0.5368(4) 0.5153(6) 0.9701(2)
C26_2 C 0.6126(4) 0.3408(8) 0.8323(2)
H11_2 H 0.617976 0.423019 0.830929
C28_2 C 0.6277(4) 0.2857(6) 0.8659(2)
H13_2 H 0.642866 0.331455 0.887127
C34_2 C 0.5895(5) 0.2770(8) 0.8005(2)
H18_2 H 0.580151 0.315912 0.777626
C35_3 C 0.4675(9) 0.6601(15) 0.9007(4)
H19_3 H 0.444140 0.706873 0.881158
C37_2 C 0.5395(8) 0.6000(15) 0.9032(5)
H21_2 H 0.564334 0.606134 0.883655
C38_2 C 0.5687(7) 0.5343(12) 0.9355(3)
H22_3 H 0.612900 0.498311 0.935506
O4_2 O 0.7142(3) 0.2476(4) 0.93783(12)
C39_3 C 0.4401(8) 0.6301(15) 0.9361(4)
H23_3 H 0.393591 0.657749 0.935491
O8_3 O 0.3534(2) 0.7163(4) 0.98359(14)
C41_3 C 0.4329(3) 0.5544(6) 0.9994(2)
C42_3 C 0.3613(3) 0.6157(6) 0.99944(17)
C43_3 C 0.4683(4) 0.5706(6) 0.9695(2)
Zn2_3 Zn 1.000000 0.74088(8) 0.250000
N1_2 N 0.9158(3) 0.8556(5) 0.24945(15)
N3_2 N 0.6552(3) 0.9884(5) 0.10983(14)
N4_2 N 0.8086(3) 0.9362(5) 0.22991(14)
C6_2 C 0.6224(3) 0.9674(6) 0.04895(17)
C7_2 C 0.8553(3) 0.8524(6) 0.22444(17)
H2_2 H 0.846367 0.797308 0.205112
C8_2 C 0.7311(3) 0.9616(6) 0.16990(18)
H3_2 H 0.771207 0.956453 0.158736
C12_2 C 0.6631(3) 0.9757(6) 0.14897(17)
C13_2 C 0.6062(3) 0.9292(6) 0.08270(18)
C17_2 C 0.9069(4) 0.9499(6) 0.27250(17)
C18_2 C 0.5823(4) 0.9248(7) 0.0153(2)
C20_2 C 0.7374(4) 0.9556(7) 0.20747(18)
C21_2 C 0.5517(4) 0.8488(7) 0.0848(2)
H8_2 H 0.540913 0.824234 0.107344
C23_2 C 0.6033(4) 0.9817(8) 0.1657(2)
H9_2 H 0.557629 0.991844 0.151378
C24_2 C 0.6795(4) 0.9591(8) 0.2252(2)
H10_2 H 0.685605 0.952682 0.250935
C27_2 C 0.5293(4) 0.8445(7) 0.0177(2)
C30_2 C 0.5140(4) 0.8070(8) 0.0508(3)
H14 H 0.477348 0.751897 0.050711
C32_2 C 0.6126(4) 0.9724(9) 0.2035(2)
H16_2 H 0.572600 0.975121 0.214797
C40_2 C 0.9545(4) 0.9939(8) 0.3037(2)
H24_2 H 0.999235 0.959380 0.312151
O18_2 O 0.9836(3) 0.6860(6) 0.19363(19)
O20_2 O 0.9167(5) 0.5872(7) 0.22337(18)
C9_2 C 0.5918(4) 0.9167(6) 0.87360(18)
H4_2 H 0.579437 0.836976 0.875563
C10_2 C 0.6203(3) 0.9805(6) 0.90548(17)
H5_2 H 0.626971 0.942027 0.928385
C11_2 C 0.5818(3) 0.9700(6) 0.83905(18)
H7_2 H 0.591438 0.950168 0.992504
H12_2 H 0.502362 0.813968 0.995802
C29_2 C 0.5589(5) 0.8933(8) 0.8057(2)
O5_2 O 0.5164(3) 0.8140(6) 0.80637(19)
O6_2 O 0.5833(5) 0.9128(7) 0.77663(18)
O1_4 O 0.3164(2) 0.4330(4) 0.51474(14)
C2_4 C 0.4329(3) 0.4456(6) 0.4994(2)
C16_4 C 0.3613(3) 0.3843(6) 0.49944(17)
C22_4 C 0.4683(4) 0.4294(6) 0.4695(2)
C25_3 C 0.4632(4) 0.5153(6) 0.5299(2)
C35_4 C 0.5325(9) 0.6601(15) 0.5993(4)
H19_4 H 0.555860 0.706873 0.618842
C37_3 C 0.4605(8) 0.6000(15) 0.5968(5)
H21_3 H 0.435666 0.606134 0.616345
C38_3 C 0.4313(7) 0.5343(12) 0.5645(3)
H22_4 H 0.387100 0.498311 0.564494
C39_4 C 0.5599(8) 0.6301(15) 0.5639(4)
H23_4 H 0.606409 0.657749 0.564509
O8_4 O 0.6466(2) 0.7163(4) 0.51641(14)
C41_4 C 0.5671(3) 0.5544(6) 0.5006(2)
C42_4 C 0.6387(3) 0.6157(6) 0.50056(17)
C43_4 C 0.5317(4) 0.5706(6) 0.5305(2)
C44_3 C 0.5368(4) 0.4847(6) 0.4701(2)
C45_4 C 0.4675(9) 0.3399(15) 0.4007(4)
H25_4 H 0.444140 0.293127 0.381158
C46_3 C 0.5395(8) 0.4000(15) 0.4032(5)
H26_3 H 0.564334 0.393866 0.383655
C47_3 C 0.5687(7) 0.4657(12) 0.4355(3)
H27_4 H 0.612900 0.501689 0.435506
C48_4 C 0.4401(8) 0.3699(15) 0.4361(4)
H28_4 H 0.393591 0.342251 0.435491
O2_3 O 0.8238(3) 0.4009(5) 0.03064(11)
C1_3 C 0.8210(3) 0.3458(6) 0.06006(17)
C4_3 C 0.8791(3) 0.3396(6) 0.13042(17)
C5_3 C 0.8612(3) 0.4010(6) 0.09577(16)
C9_3 C 0.9082(4) 0.5833(6) 0.12640(18)
H4_3 H 0.920563 0.663024 0.124437
C10_3 C 0.8797(3) 0.5195(6) 0.09452(17)
H5_3 H 0.873029 0.557973 0.071615
C11_3 C 0.9182(3) 0.5300(6) 0.16095(18)
C14_3 C 0.9198(4) 0.3426(8) 0.1980(2)
H6_3 H 0.935701 0.384540 0.219922
C15_3 C 0.9058(3) 0.4066(6) 0.16322(16)
H7_3 H 0.908562 0.549832 0.007496
C26_3 C 0.8874(4) 0.1592(8) 0.1677(2)
H11_3 H 0.882024 0.076981 0.169071
H12_3 H 0.997638 0.686032 0.004198
C28_3 C 0.8723(4) 0.2143(6) 0.1341(2)
H13_3 H 0.857134 0.168545 0.112873
C29_3 C 0.9411(5) 0.6067(8) 0.1943(2)
C34_3 C 0.9105(5) 0.2230(8) 0.1995(2)
H18_3 H 0.919849 0.184088 0.222374
N1_3 N 0.5842(3) 0.6444(5) 0.75055(15)
N2_3 N 0.8202(3) 0.4526(4) 0.94436(13)
N3_3 N 0.8448(3) 0.5116(5) 0.89017(14)
N4_3 N 0.6914(3) 0.5638(5) 0.77009(14)
C3_3 C 0.8035(3) 0.4442(6) 0.90788(16)
H1_3 H 0.766556 0.396111 0.895577
C6_3 C 0.8776(3) 0.5326(6) 0.95105(17)
C7_3 C 0.6447(3) 0.6476(6) 0.77556(17)
H2_3 H 0.653633 0.702692 0.794888
C8_3 C 0.7689(3) 0.5384(6) 0.83010(18)
H3_3 H 0.728793 0.543547 0.841264
C12_3 C 0.8369(3) 0.5243(6) 0.85103(17)
C13_3 C 0.8938(3) 0.5708(6) 0.91730(18)
C17_3 C 0.5931(4) 0.5501(6) 0.72750(17)
C18_3 C 0.9177(4) 0.5752(7) 0.9847(2)
C19_3 C 0.6590(4) 0.4971(6) 0.73922(18)
C20_3 C 0.7626(4) 0.5444(7) 0.79253(18)
C21_3 C 0.9483(4) 0.6512(7) 0.9152(2)
H8_3 H 0.959087 0.675766 0.892656
C23_3 C 0.8967(4) 0.5183(8) 0.8343(2)
H9_3 H 0.942371 0.508156 0.848622
C24_3 C 0.8205(4) 0.5409(8) 0.7748(2)
H10_3 H 0.814395 0.547318 0.749065
C27_3 C 0.9707(4) 0.6555(7) 0.9823(2)
C30_3 C 0.9860(4) 0.6930(8) 0.9492(3)
C31_3 C 0.6817(5) 0.3983(8) 0.7217(2)
H15_3 H 0.726044 0.362636 0.730162
C32_3 C 0.8874(4) 0.5276(9) 0.7965(2)
H16_3 H 0.927400 0.524879 0.785203
C33_3 C 0.6351(6) 0.3564(9) 0.6913(3)
H17_3 H 0.648278 0.290814 0.678494
C36_3 C 0.5687(5) 0.4092(9) 0.6790(3)
H20_3 H 0.538736 0.377646 0.658133
C40_3 C 0.5455(4) 0.5061(8) 0.6963(2)
H24_3 H 0.500765 0.540620 0.687849
N5_3 N 0.4158(3) 0.6444(5) 0.74945(15)
N6_3 N 0.1798(3) 0.4526(4) 0.55564(13)
O9_3 O 0.1762(3) 0.4009(5) 0.46936(11)
N7_3 N 0.1552(3) 0.5116(5) 0.60983(14)
C49_3 C 0.1790(3) 0.3458(6) 0.43994(17)
N8_3 N 0.3086(3) 0.5638(5) 0.72991(14)
C50_3 C 0.1965(3) 0.4442(6) 0.59212(16)
H29_3 H 0.233444 0.396111 0.604423
C51_3 C 0.1209(3) 0.3396(6) 0.36958(17)
C52_3 C 0.1388(3) 0.4010(6) 0.40423(16)
C53_3 C 0.1224(3) 0.5326(6) 0.54895(17)
C54_3 C 0.3553(3) 0.6476(6) 0.72444(17)
H30_3 H 0.346367 0.702692 0.705112
C55_3 C 0.2311(3) 0.5384(6) 0.66990(18)
H31_3 H 0.271207 0.543547 0.658736
C56_3 C 0.0918(4) 0.5833(6) 0.37360(18)
H32_3 H 0.079437 0.663024 0.375563
C57_3 C 0.1203(3) 0.5195(6) 0.40548(17)
H33_3 H 0.126971 0.557973 0.428385
C58_3 C 0.0818(3) 0.5300(6) 0.33905(18)
C59_3 C 0.1631(3) 0.5243(6) 0.64897(17)
C60_3 C 0.1062(3) 0.5708(6) 0.58270(18)
C61_3 C 0.0802(4) 0.3426(8) 0.3020(2)
H34_3 H 0.064299 0.384540 0.280078
C62_3 C 0.0942(3) 0.4066(6) 0.33678(16)
C63_3 C 0.4069(4) 0.5501(6) 0.77250(17)
C64_3 C 0.0823(4) 0.5752(7) 0.5153(2)
H35_3 H 0.091438 0.549832 0.492504
C65_3 C 0.3410(4) 0.4971(6) 0.76078(18)
C66_3 C 0.2374(4) 0.5444(7) 0.70747(18)
C67_3 C 0.0517(4) 0.6512(7) 0.5848(2)
H36_3 H 0.040913 0.675766 0.607344
C68_3 C 0.1033(4) 0.5183(8) 0.6657(2)
H37_3 H 0.057629 0.508156 0.651378
C69_3 C 0.1795(4) 0.5409(8) 0.7252(2)
H38_3 H 0.185605 0.547318 0.750935
C70_3 C 0.1126(4) 0.1592(8) 0.3323(2)
H39_3 H 0.117976 0.076981 0.330929
C71_3 C 0.0293(4) 0.6555(7) 0.5177(2)
H40_3 H 0.002362 0.686032 0.495802
C72_3 C 0.1277(4) 0.2143(6) 0.3659(2)
H41_3 H 0.142866 0.168545 0.387127
C73_3 C 0.0589(5) 0.6067(8) 0.3057(2)
C74_3 C 0.0140(4) 0.6930(8) 0.5508(3)
C75_3 C 0.3183(5) 0.3983(8) 0.7783(2)
H43_3 H 0.273956 0.362636 0.769838
C76_3 C 0.1126(4) 0.5276(9) 0.7035(2)
H44_3 H 0.072600 0.524879 0.714797
C77_3 C 0.3649(6) 0.3564(9) 0.8087(3)
H45_3 H 0.351722 0.290814 0.821506
C78_3 C 0.0895(5) 0.2230(8) 0.3005(2)
H46_3 H 0.080151 0.184088 0.277626
C79_3 C 0.4313(5) 0.4092(9) 0.8210(3)
H47_3 H 0.461264 0.377646 0.841867
C80_3 C 0.4545(4) 0.5061(8) 0.8037(2)
H48_3 H 0.499235 0.540620 0.812151
H42_3 H 0.977348 0.748103 0.550711
C9_4 C 0.4082(4) 0.0833(6) 0.12640(18)
H4_4 H 0.420563 0.163024 0.124437
C10_4 C 0.3797(3) 0.0195(6) 0.09452(17)
H5_4 H 0.373029 0.057973 0.071615
C11_4 C 0.4182(3) 0.0300(6) 0.16095(18)
H7_4 H 0.408562 0.049832 0.007496
H12_4 H 0.497638 0.186032 0.004198
C29_4 C 0.4411(5) 0.1067(8) 0.1943(2)
N1_4 N 0.0842(3) 0.1444(5) 0.75055(15)
N3_4 N 0.3448(3) 0.0116(5) 0.89017(14)
N4_4 N 0.1914(3) 0.0638(5) 0.77009(14)
C6_4 C 0.3776(3) 0.0326(6) 0.95105(17)
C7_4 C 0.1447(3) 0.1476(6) 0.77556(17)
H2_4 H 0.153633 0.202692 0.794888
C8_4 C 0.2689(3) 0.0384(6) 0.83010(18)
H3_4 H 0.228793 0.043547 0.841264
C12_4 C 0.3369(3) 0.0243(6) 0.85103(17)
C13_4 C 0.3938(3) 0.0708(6) 0.91730(18)
C17_4 C 0.0931(4) 0.0501(6) 0.72750(17)
C18_4 C 0.4177(4) 0.0752(7) 0.9847(2)
C20_4 C 0.2626(4) 0.0444(7) 0.79253(18)
C21_4 C 0.4483(4) 0.1512(7) 0.9152(2)
H8_4 H 0.459087 0.175766 0.892656
C23_4 C 0.3967(4) 0.0183(8) 0.8343(2)
H9_4 H 0.442371 0.008156 0.848622
C24_4 C 0.3205(4) 0.0409(8) 0.7748(2)
H10_4 H 0.314395 0.047318 0.749065
C27_4 C 0.4707(4) 0.1555(7) 0.9823(2)
C30_4 C 0.4860(4) 0.1930(8) 0.9492(3)
H14_2 H 0.522652 0.248103 0.949289
C32_4 C 0.3874(4) 0.0276(9) 0.7965(2)
H16_4 H 0.427400 0.024879 0.785203
C40_4 C 0.0455(4) 0.0061(8) 0.6963(2)
H24_4 H 0.000765 0.040620 0.687849
O2_4 O 0.3238(3) 0.9009(5) 0.03064(11)
C1_4 C 0.3210(3) 0.8458(6) 0.06006(17)
C4_4 C 0.3791(3) 0.8396(6) 0.13042(17)
C5_4 C 0.3612(3) 0.9010(6) 0.09577(16)
C14_4 C 0.4198(4) 0.8426(8) 0.1980(2)
H6_4 H 0.435701 0.884540 0.219922
C15_4 C 0.4058(3) 0.9066(6) 0.16322(16)
C26_4 C 0.3874(4) 0.6592(8) 0.1677(2)
H11_4 H 0.382024 0.576981 0.169071
C28_4 C 0.3723(4) 0.7143(6) 0.1341(2)
H13_4 H 0.357134 0.668545 0.112873
C34_4 C 0.4105(5) 0.7230(8) 0.1995(2)
H18_4 H 0.419849 0.684088 0.222374
N2_4 N 0.3202(3) 0.9526(4) 0.94436(13)
C3_4 C 0.3035(3) 0.9442(6) 0.90788(16)
H1_4 H 0.266556 0.896111 0.895577
C19_4 C 0.1590(4) 0.9971(6) 0.73922(18)
C31_4 C 0.1817(5) 0.8983(8) 0.7217(2)
H15_4 H 0.226044 0.862636 0.730162
C33_4 C 0.1351(6) 0.8564(9) 0.6913(3)
H17_4 H 0.148278 0.790814 0.678494
C36_4 C 0.0687(5) 0.9092(9) 0.6790(3)
H20_4 H 0.038736 0.877646 0.658133
N5_4 N 0.9158(3) 0.1444(5) 0.74945(15)
N7_4 N 0.6552(3) 0.0116(5) 0.60983(14)
N8_4 N 0.8086(3) 0.0638(5) 0.72991(14)
C53_4 C 0.6224(3) 0.0326(6) 0.54895(17)
C54_4 C 0.8553(3) 0.1476(6) 0.72444(17)
H30_4 H 0.846367 0.202692 0.705112
C55_4 C 0.7311(3) 0.0384(6) 0.66990(18)
H31_4 H 0.771207 0.043547 0.658736
C56_4 C 0.5918(4) 0.0833(6) 0.37360(18)
H32_4 H 0.579437 0.163024 0.375563
C57_4 C 0.6203(3) 0.0195(6) 0.40548(17)
H33_4 H 0.626971 0.057973 0.428385
C58_4 C 0.5818(3) 0.0300(6) 0.33905(18)
C59_4 C 0.6631(3) 0.0243(6) 0.64897(17)
C60_4 C 0.6062(3) 0.0708(6) 0.58270(18)
C63_4 C 0.9069(4) 0.0501(6) 0.77250(17)
C64_4 C 0.5823(4) 0.0752(7) 0.5153(2)
H35_4 H 0.591438 0.049832 0.492504
C66_4 C 0.7374(4) 0.0444(7) 0.70747(18)
C67_4 C 0.5517(4) 0.1512(7) 0.5848(2)
H36_4 H 0.540913 0.175766 0.607344
C68_4 C 0.6033(4) 0.0183(8) 0.6657(2)
H37_4 H 0.557629 0.008156 0.651378
C69_4 C 0.6795(4) 0.0409(8) 0.7252(2)
H38_4 H 0.685605 0.047318 0.750935
C71_4 C 0.5293(4) 0.1555(7) 0.5177(2)
H40_4 H 0.502362 0.186032 0.495802
C73_4 C 0.5589(5) 0.1067(8) 0.3057(2)
C74_4 C 0.5140(4) 0.1930(8) 0.5508(3)
H42_4 H 0.477348 0.248103 0.550711
C76_4 C 0.6126(4) 0.0276(9) 0.7035(2)
H44_4 H 0.572600 0.024879 0.714797
C80_4 C 0.9545(4) 0.0061(8) 0.8037(2)
H48_4 H 0.999235 0.040620 0.812151
N6_4 N 0.6798(3) 0.9526(4) 0.55564(13)
O9_4 O 0.6762(3) 0.9009(5) 0.46936(11)
C49_4 C 0.6790(3) 0.8458(6) 0.43994(17)
C50_4 C 0.6965(3) 0.9442(6) 0.59212(16)
H29_4 H 0.733444 0.896111 0.604423
C51_4 C 0.6209(3) 0.8396(6) 0.36958(17)
C52_4 C 0.6388(3) 0.9010(6) 0.40423(16)
C61_4 C 0.5802(4) 0.8426(8) 0.3020(2)
H34_4 H 0.564299 0.884540 0.280078
C62_4 C 0.5942(3) 0.9066(6) 0.33678(16)
C65_4 C 0.8410(4) 0.9971(6) 0.76078(18)
C70_4 C 0.6126(4) 0.6592(8) 0.3323(2)
H39_4 H 0.617976 0.576981 0.330929
C72_4 C 0.6277(4) 0.7143(6) 0.3659(2)
H41_4 H 0.642866 0.668545 0.387127
C75_4 C 0.8183(5) 0.8983(8) 0.7783(2)
H43_4 H 0.773956 0.862636 0.769838
C77_4 C 0.8649(6) 0.8564(9) 0.8087(3)
H45_4 H 0.851722 0.790814 0.821506
C78_4 C 0.5895(5) 0.7230(8) 0.3005(2)
H46_4 H 0.580151 0.684088 0.277626
C79_4 C 0.9313(5) 0.9092(9) 0.8210(3)
H47_4 H 0.961264 0.877646 0.841867
C25_4 C 0.0368(4) 0.0153(6) 0.9701(2)
C37_4 C 0.0395(8) 0.1000(15) 0.9032(5)
H21_4 H 0.064334 0.106134 0.883655
C38_4 C 0.0687(7) 0.0343(12) 0.9355(3)
H14_3 H 0.022652 0.748103 0.949289
H14_4 H 0.977348 0.251897 0.050711
C44_4 C 0.9632(4) 0.9847(6) 0.0299(2)
C46_4 C 0.9605(8) 0.9000(15) 0.0968(5)
H26_4 H 0.935666 0.893866 0.116345
C47_4 C 0.9313(7) 0.9657(12) 0.0645(3)
loop_
_geom_bond_atom_site_label_1
_geom_bond_atom_site_label_2
_geom_bond_site_symmetry_1
_geom_bond_site_symmetry_2
Zn1 N2 1_555 1_555
Zn2 N1 1_555 1_555
N1 C7 1_555 1_555
N2 C3 1_555 1_555
O3 Zn1 1_555 1_555
N3 C3 1_555 1_555
N4 C7 1_555 1_555
C2 C16 1_555 1_555
C3 H1 1_555 1_555
C6 N2 1_555 1_555
C7 H2 1_555 1_555
C8 H3 1_555 1_555
C12 N3 1_555 1_555
C13 N3 1_555 1_555
C16 O3 1_555 1_555
C17 N1 1_555 1_555
C18 C6 1_555 1_555
C19 N4 1_555 1_555
C20 N4 1_555 1_555
C21 C13 1_555 1_555
H8 C21 1_555 1_555
C22 C2 1_555 1_555
C23 C12 1_555 1_555
H9 C23 1_555 1_555
C24 C20 1_555 1_555
H10 C24 1_555 1_555
C27 C18 1_555 1_555
C30 C21 1_555 1_555
C31 C19 1_555 1_555
H15 C31 1_555 1_555
C32 C23 1_555 1_555
H16 C32 1_555 1_555
C33 C31 1_555 1_555
H17 C33 1_555 1_555
C36 C33 1_555 1_555
H20 C36 1_555 1_555
C40 C17 1_555 1_555
H24 C40 1_555 1_555
C45 H25 1_555 1_555
C48 C22 1_555 1_555
H28 C48 1_555 1_555
Zn3 N6 1_555 1_555
N5 Zn2 1_555 1_555
N6 C50 1_555 1_555
O9 Zn3 1_555 1_555
N7 C50 1_555 1_555
C49 O9 1_555 1_555
N8 C54 1_555 1_555
C50 H29 1_555 1_555
C51 C52 1_555 1_555
C52 C49 1_555 1_555
C53 N6 1_555 1_555
C54 N5 1_555 1_555
H30 C54 1_555 1_555
C55 H31 1_555 1_555
C56 H32 1_555 1_555
C57 C52 1_555 1_555
H33 C57 1_555 1_555
C58 C56 1_555 1_555
C59 N7 1_555 1_555
C60 N7 1_555 1_555
C61 H34 1_555 1_555
C62 C51 1_555 1_555
C63 N5 1_555 1_555
C64 C53 1_555 1_555
H35 C64 1_555 1_555
C65 N8 1_555 1_555
C66 N8 1_555 1_555
C67 C60 1_555 1_555
H36 C67 1_555 1_555
C68 C59 1_555 1_555
H37 C68 1_555 1_555
C69 C66 1_555 1_555
H38 C69 1_555 1_555
C70 H39 1_555 1_555
C71 C64 1_555 1_555
H40 C71 1_555 1_555
C72 C51 1_555 1_555
H41 C72 1_555 1_555
C73 C58 1_555 1_555
C74 C67 1_555 1_555
C75 C65 1_555 1_555
H43 C75 1_555 1_555
C76 C68 1_555 1_555
H44 C76 1_555 1_555
C77 C75 1_555 1_555
H45 C77 1_555 1_555
C78 C61 1_555 1_555
H46 C78 1_555 1_555
C79 C77 1_555 1_555
H47 C79 1_555 1_555
O10 C49 1_555 1_555
O11 C73 1_555 1_555
O12 C73 1_555 1_555
C80 C63 1_555 1_555
H48 C80 1_555 1_555
O13 Zn1 1_555 1_555
O14 Zn3 1_555 1_555
Zn7 O10 1_555 1_555
Zn9_2 O11 1_555 1_555
O15 Zn3 1_555 1_555
O16 Zn1 1_555 1_555
O17 Zn3 1_555 1_555
O18 Zn2 1_555 1_555
O19 Zn2 1_555 1_555
O20 Zn2 1_555 1_555
O21 Zn2 1_555 1_555
C6 C13 1_555 1_555
C8 C12 1_555 1_555
C8 C20 1_555 1_555
C17 C19 1_555 1_555
C24 C32 1_555 1_555
C27 C30 1_555 1_555
C36 C40 1_555 1_555
C45 C48 1_555 1_555
C53 C60 1_555 1_555
C55 C59 1_555 1_555
C55 C66 1_555 1_555
C56 C57 1_555 1_555
C58 C62 1_555 1_555
C61 C62 1_555 1_555
C63 C65 1_555 1_555
C69 C76 1_555 1_555
C70 C72 1_555 1_555
C70 C78 1_555 1_555
C71 C74 1_555 1_555
C79 C80 1_555 1_555
O12 Zn9_2 1_555 1_555
C1 O2 1_555 1_555
C4 C5 1_555 1_555
C5 C1 1_555 1_555
C9 H4 1_555 1_555
C10 C5 1_555 1_555
H5 C10 1_555 1_555
C11 C9 1_555 1_555
C14 H6 1_555 1_555
C15 C4 1_555 1_555
C26 H11 1_555 1_555
C28 C4 1_555 1_555
H13 C28 1_555 1_555
C29 C11 1_555 1_555
C34 C14 1_555 1_555
H18 C34 1_555 1_555
O4 C1 1_555 1_555
O5 C29 1_555 1_555
O6 C29 1_555 1_555
Zn6 O1 1_555 1_555
Zn9 O5 1_555 1_555
C9 C10 1_555 1_555
C11 C15 1_555 1_555
C14 C15 1_555 1_555
C26 C28 1_555 1_555
C26 C34 1_555 1_555
O4 Zn6 1_555 1_555
O6 Zn9 1_555 1_555
Zn4 O7 1_555 1_555
C35 H19 1_555 1_555
C39 C35 1_555 1_555
H23 C39 1_555 1_555
O8 C42 1_555 1_555
C41 C42 1_555 1_555
Zn5 O8 1_555 1_555
C39 C43 1_555 1_555
C41 C43 1_555 1_555
C35_2 H19_2 1_555 1_555
C39_2 C35_2 1_555 1_555
H23_2 C39_2 1_555 1_555
O7_2 C42_2 1_555 1_555
O8_2 C42_2 1_555 1_555
C41_2 C42_2 1_555 1_555
Zn4_2 O7_2 1_555 1_555
Zn5_2 O8_2 1_555 1_555
C39_2 C43_2 1_555 1_555
C41_2 C43_2 1_555 1_555
H26 C46 1_555 1_555
C47 C44 1_555 1_555
C46 C47 1_555 1_555
H21 C37 1_555 1_555
C38 C25 1_555 1_555
C37 C38 1_555 1_555
O1_2 C16_2 1_555 1_555
C2_2 C16_2 1_555 1_555
C16_2 O15 1_555 1_555
C22_2 C2_2 1_555 1_555
C45_2 H25_2 1_555 1_555
C48_2 C22_2 1_555 1_555
H28_2 C48_2 1_555 1_555
Zn7 O1_2 1_555 1_555
C45_2 C48_2 1_555 1_555
Zn4_2 N6_2 1_555 1_555
N6_2 C50_2 1_555 1_555
O9_2 Zn4_2 1_555 1_555
C49_2 O9_2 1_555 1_555
C50_2 H29_2 1_555 1_555
C51_2 C52_2 1_555 1_555
C52_2 C49_2 1_555 1_555
C61_2 H34_2 1_555 1_555
C62_2 C51_2 1_555 1_555
C70_2 H39_2 1_555 1_555
C72_2 C51_2 1_555 1_555
H41_2 C72_2 1_555 1_555
C75_2 C65_2 1_555 1_555
H43_2 C75_2 1_555 1_555
C77_2 C75_2 1_555 1_555
H45_2 C77_2 1_555 1_555
C78_2 C61_2 1_555 1_555
H46_2 C78_2 1_555 1_555
C79_2 C77_2 1_555 1_555
H47_2 C79_2 1_555 1_555
O10_2 C49_2 1_555 1_555
Zn5_2 O10_2 1_555 1_555
O15_2 Zn4_2 1_555 1_555
O17_2 Zn4_2 1_555 1_555
C61_2 C62_2 1_555 1_555
C70_2 C72_2 1_555 1_555
C70_2 C78_2 1_555 1_555
N5_2 Zn2_2 1_555 1_555
N8_2 C54_2 1_555 1_555
C54_2 N5_2 1_555 1_555
H30_2 C54_2 1_555 1_555
C55_2 H31_2 1_555 1_555
C56_2 H32_2 1_555 1_555
H33_2 C57_2 1_555 1_555
C58_2 C56_2 1_555 1_555
C59_2 N7_2 1_555 1_555
C60_2 N7_2 1_555 1_555
C63_2 N5_2 1_555 1_555
C64_2 C53_2 1_555 1_555
H35_2 C64_2 1_555 1_555
C66_2 N8_2 1_555 1_555
C67_2 C60_2 1_555 1_555
H36_2 C67_2 1_555 1_555
C68_2 C59_2 1_555 1_555
H37_2 C68_2 1_555 1_555
C69_2 C66_2 1_555 1_555
H38_2 C69_2 1_555 1_555
C71_2 C64_2 1_555 1_555
H40_2 C71_2 1_555 1_555
C73_2 C58_2 1_555 1_555
C74_2 C67_2 1_555 1_555
H42_2 C74_2 1_555 1_555
C76_2 C68_2 1_555 1_555
H44_2 C76_2 1_555 1_555
O11_2 C73_2 1_555 1_555
O12_2 C73_2 1_555 1_555
C80_2 C63_2 1_555 1_555
H48_2 C80_2 1_555 1_555
Zn9_3 O11_2 1_555 1_555
O19_2 Zn2_2 1_555 1_555
O21_2 Zn2_2 1_555 1_555
C53_2 C60_2 1_555 1_555
C55_2 C59_2 1_555 1_555
C55_2 C66_2 1_555 1_555
C56_2 C57_2 1_555 1_555
C69_2 C76_2 1_555 1_555
C71_2 C74_2 1_555 1_555
O12_2 Zn9_3 1_555 1_555
Zn4 N2_2 1_555 1_555
N2_2 C3_2 1_555 1_555
O3_2 Zn4 1_555 1_555
C2_3 C16_3 1_555 1_555
C3_2 H1_2 1_555 1_555
C16_3 O3_2 1_555 1_555
C22_3 C2_3 1_555 1_555
C31_2 C19_2 1_555 1_555
H15_2 C31_2 1_555 1_555
C33_2 C31_2 1_555 1_555
H17_2 C33_2 1_555 1_555
C36_2 C33_2 1_555 1_555
H20_2 C36_2 1_555 1_555
C44_2 C22_3 1_555 1_555
C45_3 H25_3 1_555 1_555
C46_2 C45_3 1_555 1_555
H26_2 C46_2 1_555 1_555
C47_2 C44_2 1_555 1_555
H27_3 C47_2 1_555 1_555
C48_3 C22_3 1_555 1_555
H28_3 C48_3 1_555 1_555
O16_2 Zn4 1_555 1_555
C45_3 C48_3 1_555 1_555
C46_2 C47_2 1_555 1_555
C1_2 O2_2 1_555 1_555
C4_2 C5_2 1_555 1_555
C5_2 C1_2 1_555 1_555
C14_2 H6_2 1_555 1_555
C15_2 C4_2 1_555 1_555
C26_2 H11_2 1_555 1_555
C28_2 C4_2 1_555 1_555
H13_2 C28_2 1_555 1_555
C34_2 C14_2 1_555 1_555
H18_2 C34_2 1_555 1_555
C35_3 H19_3 1_555 1_555
C37_2 C35_3 1_555 1_555
H21_2 C37_2 1_555 1_555
C38_2 C25_2 1_555 1_555
H22_3 C38_2 1_555 1_555
O4_2 C1_2 1_555 1_555
C39_3 C35_3 1_555 1_555
H23_3 C39_3 1_555 1_555
O8_3 C42_3 1_555 1_555
C41_3 C42_3 1_555 1_555
C43_3 C25_2 1_555 1_555
Zn6 O8_3 1_555 1_555
Zn5 O1_3 1_555 1_555
C14_2 C15_2 1_555 1_555
C26_2 C28_2 1_555 1_555
C26_2 C34_2 1_555 1_555
C37_2 C38_2 1_555 1_555
O4_2 Zn5 1_555 1_555
C39_3 C43_3 1_555 1_555
C41_3 C43_3 1_555 1_555
Zn2_3 N1_2 1_555 1_555
N1_2 C7_2 1_555 1_555
N4_2 C7_2 1_555 1_555
C7_2 H2_2 1_555 1_555
C8_2 H3_2 1_555 1_555
C12_2 N3_2 1_555 1_555
C13_2 N3_2 1_555 1_555
C17_2 N1_2 1_555 1_555
C18_2 C6_2 1_555 1_555
C20_2 N4_2 1_555 1_555
C21_2 C13_2 1_555 1_555
H8_2 C21_2 1_555 1_555
C23_2 C12_2 1_555 1_555
H9_2 C23_2 1_555 1_555
C24_2 C20_2 1_555 1_555
H10_2 C24_2 1_555 1_555
C27_2 C18_2 1_555 1_555
C30_2 C21_2 1_555 1_555
H14 C30_2 1_555 1_555
C32_2 C23_2 1_555 1_555
H16_2 C32_2 1_555 1_555
C40_2 C17_2 1_555 1_555
H24_2 C40_2 1_555 1_555
O18_2 Zn2_3 1_555 1_555
O20_2 Zn2_3 1_555 1_555
C6_2 C13_2 1_555 1_555
C8_2 C12_2 1_555 1_555
C8_2 C20_2 1_555 1_555
C24_2 C32_2 1_555 1_555
C27_2 C30_2 1_555 1_555
C9_2 H4_2 1_555 1_555
H5_2 C10_2 1_555 1_555
C11_2 C9_2 1_555 1_555
C29_2 C11_2 1_555 1_555
O5_2 C29_2 1_555 1_555
O6_2 C29_2 1_555 1_555
Zn9_3 O5_2 1_555 1_555
C9_2 C10_2 1_555 1_555
O6_2 Zn9_3 1_555 1_555
O1_4 C16_4 1_555 1_555
C2_4 C16_4 1_555 1_555
C16_4 O15_2 1_555 1_555
C22_4 C2_4 1_555 1_555
C25_3 C2_4 1_555 1_555
C35_4 H19_4 1_555 1_555
C37_3 C35_4 1_555 1_555
H21_3 C37_3 1_555 1_555
C38_3 C25_3 1_555 1_555
H22_4 C38_3 1_555 1_555
C39_4 C35_4 1_555 1_555
H23_4 C39_4 1_555 1_555
O14 C42_4 1_555 1_555
O8_4 C42_4 1_555 1_555
C41_4 C42_4 1_555 1_555
C43_4 C25_3 1_555 1_555
C44_3 C22_4 1_555 1_555
C45_4 H25_4 1_555 1_555
C46_3 C45_4 1_555 1_555
H26_3 C46_3 1_555 1_555
C47_3 C44_3 1_555 1_555
H27_4 C47_3 1_555 1_555
C48_4 C22_4 1_555 1_555
H28_4 C48_4 1_555 1_555
Zn7 O8_4 1_555 1_555
Zn5_2 O1_4 1_555 1_555
C37_3 C38_3 1_555 1_555
C39_4 C43_4 1_555 1_555
C41_4 C43_4 1_555 1_555
C41_4 C44_3 1_555 1_555
C45_4 C48_4 1_555 1_555
C46_3 C47_3 1_555 1_555
C1_3 O2_3 1_555 1_555
C4_3 C5_3 1_555 1_555
C5_3 C1_3 1_555 1_555
C9_3 H4_3 1_555 1_555
C10_3 C5_3 1_555 1_555
H5_3 C10_3 1_555 1_555
C11_3 C9_3 1_555 1_555
C14_3 H6_3 1_555 1_555
C15_3 C4_3 1_555 1_555
C26_3 H11_3 1_555 1_555
C28_3 C4_3 1_555 1_555
H13_3 C28_3 1_555 1_555
C29_3 C11_3 1_555 1_555
C34_3 C14_3 1_555 1_555
H18_3 C34_3 1_555 1_555
O16_2 C1_3 1_555 1_555
O18_2 C29_3 1_555 1_555
O20_2 C29_3 1_555 1_555
C9_3 C10_3 1_555 1_555
C11_3 C15_3 1_555 1_555
C14_3 C15_3 1_555 1_555
C26_3 C28_3 1_555 1_555
C26_3 C34_3 1_555 1_555
Zn5 N2_3 1_555 1_555
Zn9_3 N1_3 1_555 1_555
N1_3 C7_3 1_555 1_555
N2_3 C3_3 1_555 1_555
N3_3 C3_3 1_555 1_555
N4_3 C7_3 1_555 1_555
C3_3 H1_3 1_555 1_555
C6_3 N2_3 1_555 1_555
C7_3 H2_3 1_555 1_555
C8_3 H3_3 1_555 1_555
C12_3 N3_3 1_555 1_555
C13_3 N3_3 1_555 1_555
C17_3 N1_3 1_555 1_555
C18_3 C6_3 1_555 1_555
C19_3 N4_3 1_555 1_555
C20_3 N4_3 1_555 1_555
C21_3 C13_3 1_555 1_555
H8_3 C21_3 1_555 1_555
C23_3 C12_3 1_555 1_555
H9_3 C23_3 1_555 1_555
C24_3 C20_3 1_555 1_555
H10_3 C24_3 1_555 1_555
C27_3 C18_3 1_555 1_555
C30_3 C21_3 1_555 1_555
C31_3 C19_3 1_555 1_555
H15_3 C31_3 1_555 1_555
C32_3 C23_3 1_555 1_555
H16_3 C32_3 1_555 1_555
C33_3 C31_3 1_555 1_555
H17_3 C33_3 1_555 1_555
C36_3 C33_3 1_555 1_555
H20_3 C36_3 1_555 1_555
C40_3 C17_3 1_555 1_555
H24_3 C40_3 1_555 1_555
Zn5_2 N6_3 1_555 1_555
N5_3 Zn9_3 1_555 1_555
N6_3 C50_3 1_555 1_555
O9_3 Zn5_2 1_555 1_555
N7_3 C50_3 1_555 1_555
C49_3 O9_3 1_555 1_555
N8_3 C54_3 1_555 1_555
C50_3 H29_3 1_555 1_555
C51_3 C52_3 1_555 1_555
C52_3 C49_3 1_555 1_555
C53_3 N6_3 1_555 1_555
C54_3 N5_3 1_555 1_555
H30_3 C54_3 1_555 1_555
C55_3 H31_3 1_555 1_555
C56_3 H32_3 1_555 1_555
C57_3 C52_3 1_555 1_555
H33_3 C57_3 1_555 1_555
C58_3 C56_3 1_555 1_555
C59_3 N7_3 1_555 1_555
C60_3 N7_3 1_555 1_555
C61_3 H34_3 1_555 1_555
C62_3 C51_3 1_555 1_555
C63_3 N5_3 1_555 1_555
C64_3 C53_3 1_555 1_555
H35_3 C64_3 1_555 1_555
C65_3 N8_3 1_555 1_555
C66_3 N8_3 1_555 1_555
C67_3 C60_3 1_555 1_555
H36_3 C67_3 1_555 1_555
C68_3 C59_3 1_555 1_555
H37_3 C68_3 1_555 1_555
C69_3 C66_3 1_555 1_555
H38_3 C69_3 1_555 1_555
C70_3 H39_3 1_555 1_555
C71_3 C64_3 1_555 1_555
H40_3 C71_3 1_555 1_555
C72_3 C51_3 1_555 1_555
H41_3 C72_3 1_555 1_555
C73_3 C58_3 1_555 1_555
C74_3 C67_3 1_555 1_555
C75_3 C65_3 1_555 1_555
H43_3 C75_3 1_555 1_555
C76_3 C68_3 1_555 1_555
H44_3 C76_3 1_555 1_555
C77_3 C75_3 1_555 1_555
H45_3 C77_3 1_555 1_555
C78_3 C61_3 1_555 1_555
H46_3 C78_3 1_555 1_555
C79_3 C77_3 1_555 1_555
H47_3 C79_3 1_555 1_555
O17_2 C49_3 1_555 1_555
O19_2 C73_3 1_555 1_555
O21_2 C73_3 1_555 1_555
C80_3 C63_3 1_555 1_555
H48_3 C80_3 1_555 1_555
C6_3 C13_3 1_555 1_555
C8_3 C12_3 1_555 1_555
C8_3 C20_3 1_555 1_555
C17_3 C19_3 1_555 1_555
C24_3 C32_3 1_555 1_555
C27_3 C30_3 1_555 1_555
C36_3 C40_3 1_555 1_555
C53_3 C60_3 1_555 1_555
C55_3 C59_3 1_555 1_555
C55_3 C66_3 1_555 1_555
C56_3 C57_3 1_555 1_555
C58_3 C62_3 1_555 1_555
C61_3 C62_3 1_555 1_555
C63_3 C65_3 1_555 1_555
C69_3 C76_3 1_555 1_555
C70_3 C72_3 1_555 1_555
C70_3 C78_3 1_555 1_555
C71_3 C74_3 1_555 1_555
C79_3 C80_3 1_555 1_555
C9_4 H4_4 1_555 1_555
H5_4 C10_4 1_555 1_555
C11_4 C9_4 1_555 1_555
C29_4 C11_4 1_555 1_555
O18 C29_4 1_555 1_555
O20 C29_4 1_555 1_555
C9_4 C10_4 1_555 1_555
Zn9 N1_4 1_555 1_555
N1_4 C7_4 1_555 1_555
N4_4 C7_4 1_555 1_555
C7_4 H2_4 1_555 1_555
C8_4 H3_4 1_555 1_555
C12_4 N3_4 1_555 1_555
C13_4 N3_4 1_555 1_555
C17_4 N1_4 1_555 1_555
C18_4 C6_4 1_555 1_555
C20_4 N4_4 1_555 1_555
C21_4 C13_4 1_555 1_555
H8_4 C21_4 1_555 1_555
C23_4 C12_4 1_555 1_555
H9_4 C23_4 1_555 1_555
C24_4 C20_4 1_555 1_555
H10_4 C24_4 1_555 1_555
C27_4 C18_4 1_555 1_555
C30_4 C21_4 1_555 1_555
H14_2 C30_4 1_555 1_555
C32_4 C23_4 1_555 1_555
H16_4 C32_4 1_555 1_555
C40_4 C17_4 1_555 1_555
H24_4 C40_4 1_555 1_555
C6_4 C13_4 1_555 1_555
C8_4 C12_4 1_555 1_555
C8_4 C20_4 1_555 1_555
C24_4 C32_4 1_555 1_555
C27_4 C30_4 1_555 1_555
C1_4 O2_4 1_555 1_555
C4_4 C5_4 1_555 1_555
C5_4 C1_4 1_555 1_555
C14_4 H6_4 1_555 1_555
C15_4 C4_4 1_555 1_555
C26_4 H11_4 1_555 1_555
C28_4 C4_4 1_555 1_555
H13_4 C28_4 1_555 1_555
C34_4 C14_4 1_555 1_555
H18_4 C34_4 1_555 1_555
O16 C1_4 1_555 1_555
C14_4 C15_4 1_555 1_555
C26_4 C28_4 1_555 1_555
C26_4 C34_4 1_555 1_555
Zn6 N2_4 1_555 1_555
N2_4 C3_4 1_555 1_555
C3_4 H1_4 1_555 1_555
C31_4 C19_4 1_555 1_555
H15_4 C31_4 1_555 1_555
C33_4 C31_4 1_555 1_555
H17_4 C33_4 1_555 1_555
C36_4 C33_4 1_555 1_555
H20_4 C36_4 1_555 1_555
N5_4 Zn9_2 1_555 1_555
N8_4 C54_4 1_555 1_555
C54_4 N5_4 1_555 1_555
H30_4 C54_4 1_555 1_555
C55_4 H31_4 1_555 1_555
C56_4 H32_4 1_555 1_555
H33_4 C57_4 1_555 1_555
C58_4 C56_4 1_555 1_555
C59_4 N7_4 1_555 1_555
C60_4 N7_4 1_555 1_555
C63_4 N5_4 1_555 1_555
C64_4 C53_4 1_555 1_555
H35_4 C64_4 1_555 1_555
C66_4 N8_4 1_555 1_555
C67_4 C60_4 1_555 1_555
H36_4 C67_4 1_555 1_555
C68_4 C59_4 1_555 1_555
H37_4 C68_4 1_555 1_555
C69_4 C66_4 1_555 1_555
H38_4 C69_4 1_555 1_555
C71_4 C64_4 1_555 1_555
H40_4 C71_4 1_555 1_555
C73_4 C58_4 1_555 1_555
C74_4 C67_4 1_555 1_555
H42_4 C74_4 1_555 1_555
C76_4 C68_4 1_555 1_555
H44_4 C76_4 1_555 1_555
O19 C73_4 1_555 1_555
O21 C73_4 1_555 1_555
C80_4 C63_4 1_555 1_555
H48_4 C80_4 1_555 1_555
C53_4 C60_4 1_555 1_555
C55_4 C59_4 1_555 1_555
C55_4 C66_4 1_555 1_555
C56_4 C57_4 1_555 1_555
C69_4 C76_4 1_555 1_555
C71_4 C74_4 1_555 1_555
Zn7 N6_4 1_555 1_555
N6_4 C50_4 1_555 1_555
O9_4 Zn7 1_555 1_555
C49_4 O9_4 1_555 1_555
C50_4 H29_4 1_555 1_555
C51_4 C52_4 1_555 1_555
C52_4 C49_4 1_555 1_555
C61_4 H34_4 1_555 1_555
C62_4 C51_4 1_555 1_555
C70_4 H39_4 1_555 1_555
C72_4 C51_4 1_555 1_555
H41_4 C72_4 1_555 1_555
C75_4 C65_4 1_555 1_555
H43_4 C75_4 1_555 1_555
C77_4 C75_4 1_555 1_555
H45_4 C77_4 1_555 1_555
C78_4 C61_4 1_555 1_555
H46_4 C78_4 1_555 1_555
C79_4 C77_4 1_555 1_555
H47_4 C79_4 1_555 1_555
O17 C49_4 1_555 1_555
C61_4 C62_4 1_555 1_555
C70_4 C72_4 1_555 1_555
C70_4 C78_4 1_555 1_555
H21_4 C37_4 1_555 1_555
C38_4 C25_4 1_555 1_555
C37_4 C38_4 1_555 1_555
H26_4 C46_4 1_555 1_555
C47_4 C44_4 1_555 1_555
C46_4 C47_4 1_555 1_555

#END
