
###############################################################################
#
# This file contains modified crystal structure data generated from the
# MOF subset of the Cambridge Structural Database (CSD) v543 
# hosted by the Cambridge Crystallographic Data Centre (CCDC).
#
# This work is licensed under the Creative Commons
# Attribution-NonCommercial-ShareAlike 4.0 International License.
# To view a copy of this license, visit
# http://creativecommons.org/licenses/by-nc-sa/4.0/
# or send a letter to
# Creative Commons, PO Box 1866, Mountain View, CA 94042, USA.
#
# CIF created using the CSD Python API on 29 September 2022
# The structure has been converted into the P1 space group
# The structure has a 3D framework
# The original CSD entry MOFGOE is in the hexagonal crystal system
# The framework has been calculated to contain at least 10.0% void space
# The void calculation uses a probe of radius 1.32A, grid spacing 0.4
#
###############################################################################

data_MOFGOE
_chemical_formula_moiety         '(C48 H24 Cu10 O24)n'
_symmetry_cell_setting           triclinic
_symmetry_space_group_name_H-M   'P 1'
_symmetry_Int_Tables_number      1
_space_group_name_Hall           'P 1'
loop_
_symmetry_equiv_pos_site_id
_symmetry_equiv_pos_as_xyz
1 x,y,z
_cell_length_a                   9.1081(2)
_cell_length_b                   9.1081(2)
_cell_length_c                   15.9432(5)
_cell_angle_alpha                90
_cell_angle_beta                 90
_cell_angle_gamma                120
_cell_volume                     1145.41
loop_
_atom_site_label
_atom_site_type_symbol
_atom_site_fract_x
_atom_site_fract_y
_atom_site_fract_z
C3 C 0.06102(15) 0.33622(15) 0.17399(8)
H1 H 0.1214 0.3693 0.1224
C4 C 0.1485(2) 0.3829(2) 0.2500
H2 H 0.2689 0.4472 0.2500
Cu2 Cu 0.0000 0.5000 0.0000
Cu4 Cu 0.0000 0.5000 0.5000
C8 C 0.06102(15) 0.33622(15) 0.32601(8)
H4 H 0.1214 0.3693 0.3776
Cu2_2 Cu -0.0000 0.5000 1.0000
Cu1 Cu 0.5000 0.0000 0.0000
O1 O 0.63603(11) 0.05703(11) 0.10016(5)
O2 O 0.83859(12) 0.26481(11) 0.02614(6)
C1 C 0.78277(15) 0.18668(15) 0.09498(7)
C2 C 0.88392(15) 0.24043(15) 0.17411(7)
C5 C 0.7962(2) 0.1915(2) 0.2500
H3 H 0.6760 0.1246 0.2500
Cu2_3 Cu 1.0000 0.5000 0.0000
Cu3 Cu 0.5000 0.0000 0.5000
Cu4_2 Cu 1.0000 0.5000 0.5000
O3 O 0.63603(11) 0.05703(11) 0.39984(5)
O5 O 0.83859(12) 0.26481(11) 0.47386(6)
O6 O 0.42622(16) 0.16141(12) 0.02614(6)
C6 C 0.78277(15) 0.18668(15) 0.40502(7)
C7 C 0.88392(15) 0.24043(15) 0.32589(7)
Cu1_2 Cu 0.5000 0.0000 1.0000
Cu2_4 Cu 1.0000 0.5000 1.0000
Cu1_3 Cu 0.5000 1.0000 0.0000
Cu3_2 Cu 0.5000 1.0000 0.5000
Cu1_4 Cu 0.5000 1.0000 1.0000
O4 O 0.36397(11) 0.94297(11) 0.89984(5)
O7 O 0.57378(16) 0.83859(12) 0.97386(6)
O4_2 O 0.05703(11) 0.42100(16) 0.89984(5)
O7_2 O 0.16141(12) 0.73519(20) 0.97386(6)
O1_2 O 0.94297(11) 0.57900(16) 0.10016(5)
O2_2 O 0.73519(11) 0.57378(16) 0.02614(6)
C1_2 C 0.81332(15) 0.59609(21) 0.09498(7)
C2_2 C 0.75957(15) 0.64349(21) 0.17411(7)
C3_2 C 0.66378(15) 0.72480(21) 0.17399(8)
H1_2 H 0.6307 0.7521 0.1224
C4_2 C 0.6171(2) 0.7656(3) 0.2500
H2_2 H 0.5528 0.8217 0.2500
C5_2 C 0.8085(2) 0.6047(3) 0.2500
H3_2 H 0.8754 0.5514 0.2500
Cu2_5 Cu 0.5000 0.5000 0.0000
Cu4_3 Cu 0.5000 0.5000 0.5000
O3_2 O 0.94297(11) 0.57900(16) 0.39984(5)
O5_2 O 0.73519(11) 0.57378(16) 0.47386(6)
C6_2 C 0.81332(15) 0.59609(21) 0.40502(7)
C7_2 C 0.75957(15) 0.64349(21) 0.32589(7)
C8_2 C 0.66378(15) 0.72480(21) 0.32601(8)
H4_2 H 0.6307 0.7521 0.3776
Cu2_6 Cu 0.5000 0.5000 1.0000
O1_3 O 0.42100(16) 0.36397(11) 0.10016(5)
C1_3 C 0.40391(21) 0.21723(15) 0.09498(7)
C2_3 C 0.35651(21) 0.11608(15) 0.17411(7)
C5_3 C 0.3953(3) 0.2038(2) 0.2500
H3_3 H 0.4486 0.3240 0.2500
O3_3 O 0.42100(16) 0.36397(11) 0.39984(5)
O5_3 O 0.42622(16) 0.16141(12) 0.47386(6)
C6_3 C 0.40391(21) 0.21723(15) 0.40502(7)
C7_3 C 0.35651(21) 0.11608(15) 0.32589(7)
O4_3 O 0.57900(16) 0.63603(11) 0.89984(5)
O7_3 O 0.26481(20) 0.42622(16) 0.97386(6)
C3_3 C 0.27520(21) 0.93898(15) 0.17399(8)
H1_3 H 0.2479 0.8786 0.1224
C4_3 C 0.2344(3) 0.8515(2) 0.2500
H2_3 H 0.1783 0.7311 0.2500
C8_3 C 0.27520(21) 0.93898(15) 0.32601(8)
H4_3 H 0.2479 0.8786 0.3776
O1_4 O 0.05703(11) 0.42100(16) 0.60016(5)
O2_3 O 0.26481(11) 0.42622(16) 0.52614(6)
C1_4 C 0.18668(15) 0.40391(21) 0.59498(7)
C2_4 C 0.24043(15) 0.35651(21) 0.67411(7)
C3_4 C 0.33622(15) 0.27520(21) 0.67399(8)
H1_4 H 0.3693 0.2479 0.6224
C4_4 C 0.3829(2) 0.2344(3) 0.7500
H2_4 H 0.4472 0.1783 0.7500
C5_4 C 0.1915(2) 0.3953(3) 0.7500
H3_4 H 0.1246 0.4486 0.7500
O6_2 O 0.16141(12) 0.73519(20) 0.52614(6)
C6_4 C 0.18668(15) 0.40391(21) 0.90502(7)
C7_4 C 0.24043(15) 0.35651(21) 0.82589(7)
C8_4 C 0.33622(15) 0.27520(21) 0.82601(8)
H4_4 H 0.3693 0.2479 0.8776
C3_5 C 0.72480(21) 0.06102(15) 0.67399(8)
H1_5 H 0.7521 0.1214 0.6224
C4_5 C 0.7656(3) 0.1485(2) 0.7500
H2_5 H 0.8217 0.2689 0.7500
C8_5 C 0.72480(21) 0.06102(15) 0.82601(8)
H4_5 H 0.7521 0.1214 0.8776
O1_5 O 0.57900(16) 0.63603(11) 0.60016(5)
O2_4 O 0.57378(16) 0.83859(12) 0.52614(6)
C1_5 C 0.59609(21) 0.78277(15) 0.59498(7)
C2_5 C 0.64349(21) 0.88392(15) 0.67411(7)
C5_5 C 0.6047(3) 0.7962(2) 0.7500
H3_5 H 0.5514 0.6760 0.7500
C6_5 C 0.59609(21) 0.78277(15) 0.90502(7)
C7_5 C 0.64349(21) 0.88392(15) 0.82589(7)
O1_6 O 0.36397(11) 0.94297(11) 0.60016(5)
C1_6 C 0.21723(15) 0.81332(15) 0.59498(7)
C2_6 C 0.11608(15) 0.75957(15) 0.67411(7)
C5_6 C 0.2038(2) 0.8085(2) 0.7500
H3_6 H 0.3240 0.8754 0.7500
C6_6 C 0.21723(15) 0.81332(15) 0.90502(7)
C7_6 C 0.11608(15) 0.75957(15) 0.82589(7)
C3_6 C 0.93898(15) 0.66378(15) 0.67399(8)
H1_6 H 0.8786 0.6307 0.6224
C4_6 C 0.8515(2) 0.6171(2) 0.7500
H2_6 H 0.7311 0.5528 0.7500
C8_6 C 0.93898(15) 0.66378(15) 0.82601(8)
H4_6 H 0.8786 0.6307 0.8776
loop_
_geom_bond_atom_site_label_1
_geom_bond_atom_site_label_2
_geom_bond_site_symmetry_1
_geom_bond_site_symmetry_2
C3 H1 1_555 1_555
C4 C3 1_555 1_555
H2 C4 1_555 1_555
C8 C4 1_555 1_555
H4 C8 1_555 1_555
Cu1 O1 1_555 1_555
O1 C1 1_555 1_555
O2 C1 1_555 1_555
C1 C2 1_555 1_555
C5 C2 1_555 1_555
H3 C5 1_555 1_555
Cu2_3 O2 1_555 1_555
Cu3 O3 1_555 1_555
Cu4_2 O5 1_555 1_555
O3 C6 1_555 1_555
O5 C6 1_555 1_555
O6 Cu1 1_555 1_555
C6 C7 1_555 1_555
C7 C5 1_555 1_555
O4 Cu1_4 1_555 1_555
O7 Cu1_4 1_555 1_555
O4_2 Cu2_2 1_555 1_555
O7_2 Cu2_2 1_555 1_555
Cu2_3 O1_2 1_555 1_555
O1_2 C1_2 1_555 1_555
O2_2 C1_2 1_555 1_555
C1_2 C2_2 1_555 1_555
C2_2 C3_2 1_555 1_555
C3_2 H1_2 1_555 1_555
C4_2 C3_2 1_555 1_555
H2_2 C4_2 1_555 1_555
C5_2 C2_2 1_555 1_555
H3_2 C5_2 1_555 1_555
Cu2_5 O2_2 1_555 1_555
Cu4_2 O3_2 1_555 1_555
Cu4_3 O5_2 1_555 1_555
O3_2 C6_2 1_555 1_555
O5_2 C6_2 1_555 1_555
C6_2 C7_2 1_555 1_555
C7_2 C5_2 1_555 1_555
C8_2 C4_2 1_555 1_555
H4_2 C8_2 1_555 1_555
C7_2 C8_2 1_555 1_555
Cu2_5 O1_3 1_555 1_555
O1_3 C1_3 1_555 1_555
O6 C1_3 1_555 1_555
C1_3 C2_3 1_555 1_555
C5_3 C2_3 1_555 1_555
H3_3 C5_3 1_555 1_555
Cu4_3 O3_3 1_555 1_555
Cu3 O5_3 1_555 1_555
O3_3 C6_3 1_555 1_555
O5_3 C6_3 1_555 1_555
C6_3 C7_3 1_555 1_555
C7_3 C5_3 1_555 1_555
O4_3 Cu2_6 1_555 1_555
O7_3 Cu2_6 1_555 1_555
C3_3 H1_3 1_555 1_555
C4_3 C3_3 1_555 1_555
H2_3 C4_3 1_555 1_555
C8_3 C4_3 1_555 1_555
H4_3 C8_3 1_555 1_555
Cu4 O1_4 1_555 1_555
O1_4 C1_4 1_555 1_555
O2_3 C1_4 1_555 1_555
C1_4 C2_4 1_555 1_555
C2_4 C3_4 1_555 1_555
C3_4 H1_4 1_555 1_555
C4_4 C3_4 1_555 1_555
H2_4 C4_4 1_555 1_555
C5_4 C2_4 1_555 1_555
H3_4 C5_4 1_555 1_555
Cu4_3 O2_3 1_555 1_555
O4_2 C6_4 1_555 1_555
O7_3 C6_4 1_555 1_555
O6_2 Cu4 1_555 1_555
C6_4 C7_4 1_555 1_555
C7_4 C5_4 1_555 1_555
C8_4 C4_4 1_555 1_555
H4_4 C8_4 1_555 1_555
C7_4 C8_4 1_555 1_555
C3_5 H1_5 1_555 1_555
C4_5 C3_5 1_555 1_555
H2_5 C4_5 1_555 1_555
C8_5 C4_5 1_555 1_555
H4_5 C8_5 1_555 1_555
Cu4_3 O1_5 1_555 1_555
O1_5 C1_5 1_555 1_555
O2_4 C1_5 1_555 1_555
C1_5 C2_5 1_555 1_555
C5_5 C2_5 1_555 1_555
H3_5 C5_5 1_555 1_555
Cu3_2 O2_4 1_555 1_555
O4_3 C6_5 1_555 1_555
O7 C6_5 1_555 1_555
C6_5 C7_5 1_555 1_555
C7_5 C5_5 1_555 1_555
Cu3_2 O1_6 1_555 1_555
O1_6 C1_6 1_555 1_555
O6_2 C1_6 1_555 1_555
C1_6 C2_6 1_555 1_555
C5_6 C2_6 1_555 1_555
H3_6 C5_6 1_555 1_555
O4 C6_6 1_555 1_555
O7_2 C6_6 1_555 1_555
C6_6 C7_6 1_555 1_555
C7_6 C5_6 1_555 1_555
C3_6 H1_6 1_555 1_555
C4_6 C3_6 1_555 1_555
H2_6 C4_6 1_555 1_555
C8_6 C4_6 1_555 1_555
H4_6 C8_6 1_555 1_555

#END
