
###############################################################################
#
# This file contains modified crystal structure data generated from the
# MOF subset of the Cambridge Structural Database (CSD) v543 
# hosted by the Cambridge Crystallographic Data Centre (CCDC).
#
# This work is licensed under the Creative Commons
# Attribution-NonCommercial-ShareAlike 4.0 International License.
# To view a copy of this license, visit
# http://creativecommons.org/licenses/by-nc-sa/4.0/
# or send a letter to
# Creative Commons, PO Box 1866, Mountain View, CA 94042, USA.
#
# CIF created using the CSD Python API on 29 September 2022
# The structure has been converted into the P1 space group
# The structure has a 3D framework
# The original CSD entry MOFJAV is in the hexagonal crystal system
# The framework has been calculated to contain at least 10.0% void space
# The void calculation uses a probe of radius 1.32A, grid spacing 0.4
# The framework is charged, counterions have been retained in the structure
#
###############################################################################

data_MOFJAV
_chemical_formula_moiety         '(C96 H54 Co6 O32 4-)n'
_symmetry_cell_setting           triclinic
_symmetry_space_group_name_H-M   'P 1'
_symmetry_Int_Tables_number      1
_space_group_name_Hall           'P 1'
loop_
_symmetry_equiv_pos_site_id
_symmetry_equiv_pos_as_xyz
1 x,y,z
_cell_length_a                   14.5976(5)
_cell_length_b                   14.5976(5)
_cell_length_c                   13.8518(7)
_cell_angle_alpha                90
_cell_angle_beta                 90
_cell_angle_gamma                120
_cell_volume                     2556.23
loop_
_atom_site_label
_atom_site_type_symbol
_atom_site_fract_x
_atom_site_fract_y
_atom_site_fract_z
O5 O 0.4622(6) 0.2305(8) 0.3549(6)
O6 O 0.5367(5) 0.1293(7) 0.3570(5)
C9 C 0.2852(7) 0.0749(10) 0.4472(7)
H6 H 0.2797 0.1271 0.4135
C10 C 0.0961(7) -0.0000(10) 0.5000
C11 C 0.3786(7) 0.0737(10) 0.4436(6)
C12 C 0.4673(6) 0.1506(9) 0.3800(7)
C13 C 0.3892(9) -0.0000(13) 0.5000
H7 H 0.4529 -0.0000 0.5000
C14 C 0.1984(8) -0.0000(11) 0.5000
C15 C 0.0955(8) 0.0955(8) 0.5000
H8 H 0.1592 0.1592 0.5000
C17 C -0.0000(10) 0.0961(7) 0.5000
C20 C -0.0000(13) 0.3892(9) 0.5000
H10 H -0.0000 0.4529 0.5000
C21 C -0.0000(11) 0.1984(8) 0.5000
O11 O 0.2305(8) 0.4622(6) 0.6451(6)
O12 O 0.1293(7) 0.5367(5) 0.6430(5)
C25 C 0.0749(10) 0.2852(7) 0.5528(7)
H12 H 0.1271 0.2797 0.5865
C26 C 0.0737(10) 0.3786(7) 0.5564(6)
C27 C 0.1506(9) 0.4673(6) 0.6200(7)
Co5 Co 0.53537(13) 0.34666(18) 0.2500
Co7 Co 0.65334(18) 0.18871(13) 0.2500
Co11 Co 0.34666(18) 0.53537(13) 0.7500
Co13 Co 0.18871(13) 0.65334(18) 0.7500
C8 C -0.0000 0.9045(8) 0.5000
H5 H -0.0000 0.8408 0.5000
C10_2 C 0.0961(7) 1.0000(10) 0.5000
C13_2 C 0.3892(9) 1.0000(13) 0.5000
H7_2 H 0.4529 1.0000 0.5000
C14_2 C 0.1984(8) 1.0000(11) 0.5000
O13 O 0.2317(5) 0.7695(8) 0.6451(6)
O14 O 0.4074(5) 0.8707(7) 0.6430(5)
C28 C 0.2103(7) 0.9251(10) 0.5528(7)
H13 H 0.1526 0.8729 0.5865
C29 C 0.3049(7) 0.9263(10) 0.5564(6)
C30 C 0.3167(7) 0.8494(9) 0.6200(7)
Co9 Co 0.46463(13) 0.81129(13) 0.7500
C1 C 0.9045(8) -0.0000 0.5000
H1 H 0.8408 -0.0000 0.5000
O7 O 0.7695(8) 0.2317(5) 0.3549(6)
O8 O 0.8707(7) 0.4074(5) 0.3570(5)
C16 C 0.9251(10) 0.2103(7) 0.4472(7)
H9 H 0.8729 0.1526 0.4135
C17_2 C 1.0000(10) 0.0961(7) 0.5000
C18 C 0.9263(10) 0.3049(7) 0.4436(6)
C19 C 0.8494(9) 0.3167(7) 0.3800(7)
C20_2 C 1.0000(13) 0.3892(9) 0.5000
H10_2 H 1.0000 0.4529 0.5000
C21_2 C 1.0000(11) 0.1984(8) 0.5000
Co4 Co 0.81129(13) 0.46463(13) 0.2500
O1 O 0.6667 0.3333 0.2500
O2 O 0.7683(5) 0.5378(6) 0.3549(6)
O3 O 0.5926(5) 0.4633(5) 0.3570(5)
C1_2 C 0.9045(8) 1.0000 0.5000
H1_2 H 0.8408 1.0000 0.5000
O4 O 0.9613(9) 0.6056(9) 0.2500
H2 H 0.9966 0.6044 0.2956
C2 C 0.7897(7) 0.7148(7) 0.4472(7)
H3 H 0.8474 0.7203 0.4135
C3 C 0.9039(7) 0.9039(7) 0.5000
C4 C 0.6951(7) 0.6214(7) 0.4436(6)
C5 C 0.6833(7) 0.5327(6) 0.3800(7)
C6 C 0.6108(9) 0.6108(9) 0.5000
H4 H 0.5471 0.5471 0.5000
C7 C 0.8016(8) 0.8016(8) 0.5000
C8_2 C 1.0000 0.9045(8) 0.5000
H5_2 H 1.0000 0.8408 0.5000
O9 O 0.5378(6) 0.7683(5) 0.6451(6)
O10 O 0.4633(5) 0.5926(5) 0.6430(5)
C22 C 0.7148(7) 0.7897(7) 0.5528(7)
H11 H 0.7203 0.8474 0.5865
C23 C 0.6214(7) 0.6951(7) 0.5564(6)
C24 C 0.5327(6) 0.6833(7) 0.6200(7)
H14 H 0.9966 0.6044 0.2044
O15 O 0.3944(9) 0.3557(13) 0.2500
H15 H 0.3956 0.3922 0.2956
H16 H 0.3956 0.3922 0.2044
O16 O 0.6443(13) 0.0387(9) 0.2500
H17 H 0.6078 0.0034 0.2956
H18 H 0.6078 0.0034 0.2044
O19 O 0.7683(5) 0.5378(6) 0.1451(6)
O20 O 0.4622(6) 0.2305(8) 0.1451(6)
O21 O 0.7695(8) 0.2317(5) 0.1451(6)
O24 O 0.5926(5) 0.4633(5) 0.1430(5)
O25 O 0.5367(5) 0.1293(7) 0.1430(5)
O26 O 0.8707(7) 0.4074(5) 0.1430(5)
C9_2 C 0.2852(7) 0.0749(10) 0.0528(7)
H6_2 H 0.2797 0.1271 0.0865
C10_3 C 0.0961(7) -0.0000(10) 0.0000
C11_2 C 0.3786(7) 0.0737(10) 0.0564(6)
C12_2 C 0.4673(6) 0.1506(9) 0.1200(7)
C13_3 C 0.3892(9) -0.0000(13) 0.0000
H7_3 H 0.4529 -0.0000 0.0000
C14_3 C 0.1984(8) -0.0000(11) 0.0000
C15_2 C 0.0955(8) 0.0955(8) 0.0000
H8_2 H 0.1592 0.1592 0.0000
C17_3 C -0.0000(10) 0.0961(7) 0.0000
C20_3 C -0.0000(13) 0.3892(9) 0.0000
H10_3 H -0.0000 0.4529 0.0000
C21_3 C -0.0000(11) 0.1984(8) 0.0000
C10_4 C 0.0961(7) -0.0000(10) 1.0000
C13_4 C 0.3892(9) -0.0000(13) 1.0000
H7_4 H 0.4529 -0.0000 1.0000
C14_4 C 0.1984(8) -0.0000(11) 1.0000
C15_3 C 0.0955(8) 0.0955(8) 1.0000
H8_3 H 0.1592 0.1592 1.0000
C17_4 C -0.0000(10) 0.0961(7) 1.0000
C20_4 C -0.0000(13) 0.3892(9) 1.0000
H10_4 H -0.0000 0.4529 1.0000
C21_4 C -0.0000(11) 0.1984(8) 1.0000
O11_2 O 0.2305(8) 0.4622(6) 0.8549(6)
O12_2 O 0.1293(7) 0.5367(5) 0.8570(5)
C25_2 C 0.0749(10) 0.2852(7) 0.9472(7)
H12_2 H 0.1271 0.2797 0.9135
C26_2 C 0.0737(10) 0.3786(7) 0.9436(6)
C27_2 C 0.1506(9) 0.4673(6) 0.8800(7)
C8_3 C -0.0000 0.9045(8) 1.0000
H5_3 H -0.0000 0.8408 1.0000
C10_5 C 0.0961(7) 1.0000(10) 1.0000
C13_5 C 0.3892(9) 1.0000(13) 1.0000
H7_5 H 0.4529 1.0000 1.0000
C14_5 C 0.1984(8) 1.0000(11) 1.0000
O13_2 O 0.2317(5) 0.7695(8) 0.8549(6)
O14_2 O 0.4074(5) 0.8707(7) 0.8570(5)
C28_2 C 0.2103(7) 0.9251(10) 0.9472(7)
H13_2 H 0.1526 0.8729 0.9135
C29_2 C 0.3049(7) 0.9263(10) 0.9436(6)
C30_2 C 0.3167(7) 0.8494(9) 0.8800(7)
C1_3 C 0.9045(8) -0.0000 0.0000
H1_3 H 0.8408 -0.0000 0.0000
C16_2 C 0.9251(10) 0.2103(7) 0.0528(7)
H9_2 H 0.8729 0.1526 0.0865
C17_5 C 1.0000(10) 0.0961(7) 0.0000
C18_2 C 0.9263(10) 0.3049(7) 0.0564(6)
C19_2 C 0.8494(9) 0.3167(7) 0.1200(7)
C20_5 C 1.0000(13) 0.3892(9) 0.0000
H10_5 H 1.0000 0.4529 0.0000
C21_5 C 1.0000(11) 0.1984(8) 0.0000
C1_4 C 0.9045(8) 1.0000 0.0000
H1_4 H 0.8408 1.0000 0.0000
C2_2 C 0.7897(7) 0.7148(7) 0.0528(7)
H3_2 H 0.8474 0.7203 0.0865
C3_2 C 0.9039(7) 0.9039(7) 0.0000
C4_2 C 0.6951(7) 0.6214(7) 0.0564(6)
C5_2 C 0.6833(7) 0.5327(6) 0.1200(7)
C6_2 C 0.6108(9) 0.6108(9) 0.0000
H4_2 H 0.5471 0.5471 0.0000
C7_2 C 0.8016(8) 0.8016(8) 0.0000
C8_4 C 1.0000 0.9045(8) 0.0000
H5_4 H 1.0000 0.8408 0.0000
C1_5 C 0.9045(8) 1.0000 1.0000
H1_5 H 0.8408 1.0000 1.0000
C3_3 C 0.9039(7) 0.9039(7) 1.0000
C6_3 C 0.6108(9) 0.6108(9) 1.0000
H4_3 H 0.5471 0.5471 1.0000
C7_3 C 0.8016(8) 0.8016(8) 1.0000
C8_5 C 1.0000 0.9045(8) 1.0000
H5_5 H 1.0000 0.8408 1.0000
O9_2 O 0.5378(6) 0.7683(5) 0.8549(6)
O10_2 O 0.4633(5) 0.5926(5) 0.8570(5)
C22_2 C 0.7148(7) 0.7897(7) 0.9472(7)
H11_2 H 0.7203 0.8474 0.9135
C23_2 C 0.6214(7) 0.6951(7) 0.9436(6)
C24_2 C 0.5327(6) 0.6833(7) 0.8800(7)
O1_2 O 0.3333 0.6667 0.7500
O4_2 O 0.6056(9) 0.9613(9) 0.7500
H2_2 H 0.6044 0.9966 0.7044
H14_2 H 0.6044 0.9966 0.7956
O15_2 O 0.3557(13) 0.3944(9) 0.7500
H15_2 H 0.3922 0.3956 0.7044
H16_2 H 0.3922 0.3956 0.7956
O16_2 O 0.0387(9) 0.6443(13) 0.7500
H17_2 H 0.0034 0.6078 0.7044
H18_2 H 0.0034 0.6078 0.7956
C8_6 C -0.0000 0.9045(8) 0.0000
H5_6 H -0.0000 0.8408 0.0000
C10_6 C 0.0961(7) 1.0000(10) 0.0000
C13_6 C 0.3892(9) 1.0000(13) 0.0000
H7_6 H 0.4529 1.0000 0.0000
C14_6 C 0.1984(8) 1.0000(11) 0.0000
C1_6 C 0.9045(8) -0.0000 1.0000
H1_6 H 0.8408 -0.0000 1.0000
C17_6 C 1.0000(10) 0.0961(7) 1.0000
C20_6 C 1.0000(13) 0.3892(9) 1.0000
H10_6 H 1.0000 0.4529 1.0000
C21_6 C 1.0000(11) 0.1984(8) 1.0000
loop_
_geom_bond_atom_site_label_1
_geom_bond_atom_site_label_2
_geom_bond_site_symmetry_1
_geom_bond_site_symmetry_2
O5 C12 1_555 1_555
O6 C12 1_555 1_555
C9 H6 1_555 1_555
C11 C9 1_555 1_555
C12 C11 1_555 1_555
C13 C11 1_555 1_555
H7 C13 1_555 1_555
C14 C9 1_555 1_555
C15 C10 1_555 1_555
H8 C15 1_555 1_555
H10 C20 1_555 1_555
O11 C27 1_555 1_555
O12 C27 1_555 1_555
C25 C21 1_555 1_555
H12 C25 1_555 1_555
C26 C20 1_555 1_555
C27 C26 1_555 1_555
Co5 O5 1_555 1_555
Co7 O6 1_555 1_555
Co11 O11 1_555 1_555
Co13 O12 1_555 1_555
C10 C14 1_555 1_555
C15 C17 1_555 1_555
C17 C21 1_555 1_555
C25 C26 1_555 1_555
H5 C8 1_555 1_555
C10_2 C8 1_555 1_555
H7_2 C13_2 1_555 1_555
O13 C30 1_555 1_555
O14 C30 1_555 1_555
C28 C14_2 1_555 1_555
H13 C28 1_555 1_555
C29 C13_2 1_555 1_555
C30 C29 1_555 1_555
Co9 O14 1_555 1_555
Co13 O13 1_555 1_555
C10_2 C14_2 1_555 1_555
C28 C29 1_555 1_555
C1 H1 1_555 1_555
O7 C19 1_555 1_555
O8 C19 1_555 1_555
C16 H9 1_555 1_555
C17_2 C1 1_555 1_555
C18 C16 1_555 1_555
C19 C18 1_555 1_555
C20_2 C18 1_555 1_555
H10_2 C20_2 1_555 1_555
C21_2 C16 1_555 1_555
Co4 O8 1_555 1_555
Co7 O7 1_555 1_555
C17_2 C21_2 1_555 1_555
Co4 O1 1_555 1_555
O1 Co5 1_555 1_555
O2 Co4 1_555 1_555
O3 C5 1_555 1_555
C1_2 H1_2 1_555 1_555
O4 Co4 1_555 1_555
H2 O4 1_555 1_555
C2 H3 1_555 1_555
C3 C1_2 1_555 1_555
C4 C2 1_555 1_555
C5 O2 1_555 1_555
C6 C4 1_555 1_555
H4 C6 1_555 1_555
C7 C2 1_555 1_555
C8_2 C3 1_555 1_555
H5_2 C8_2 1_555 1_555
O9 C24 1_555 1_555
O10 C24 1_555 1_555
C22 C7 1_555 1_555
H11 C22 1_555 1_555
C23 C6 1_555 1_555
C24 C23 1_555 1_555
H14 O4 1_555 1_555
Co5 O3 1_555 1_555
O15 Co5 1_555 1_555
H15 O15 1_555 1_555
H16 O15 1_555 1_555
Co7 O1 1_555 1_555
O16 Co7 1_555 1_555
H17 O16 1_555 1_555
H18 O16 1_555 1_555
Co9 O9 1_555 1_555
Co11 O10 1_555 1_555
O19 Co4 1_555 1_555
O20 Co5 1_555 1_555
O21 Co7 1_555 1_555
O24 Co5 1_555 1_555
O25 Co7 1_555 1_555
O26 Co4 1_555 1_555
C3 C7 1_555 1_555
C4 C5 1_555 1_555
C22 C23 1_555 1_555
O20 C12_2 1_555 1_555
O25 C12_2 1_555 1_555
C9_2 H6_2 1_555 1_555
C11_2 C9_2 1_555 1_555
C12_2 C11_2 1_555 1_555
C13_3 C11_2 1_555 1_555
H7_3 C13_3 1_555 1_555
C14_3 C9_2 1_555 1_555
C15_2 C10_3 1_555 1_555
H8_2 C15_2 1_555 1_555
H10_3 C20_3 1_555 1_555
C10_3 C14_3 1_555 1_555
C15_2 C17_3 1_555 1_555
C17_3 C21_3 1_555 1_555
H7_4 C13_4 1_555 1_555
C15_3 C10_4 1_555 1_555
H8_3 C15_3 1_555 1_555
H10_4 C20_4 1_555 1_555
O11_2 C27_2 1_555 1_555
O12_2 C27_2 1_555 1_555
C25_2 C21_4 1_555 1_555
H12_2 C25_2 1_555 1_555
C26_2 C20_4 1_555 1_555
C27_2 C26_2 1_555 1_555
Co11 O11_2 1_555 1_555
Co13 O12_2 1_555 1_555
C10_4 C14_4 1_555 1_555
C15_3 C17_4 1_555 1_555
C17_4 C21_4 1_555 1_555
C25_2 C26_2 1_555 1_555
H5_3 C8_3 1_555 1_555
C10_5 C8_3 1_555 1_555
H7_5 C13_5 1_555 1_555
O13_2 C30_2 1_555 1_555
O14_2 C30_2 1_555 1_555
C28_2 C14_5 1_555 1_555
H13_2 C28_2 1_555 1_555
C29_2 C13_5 1_555 1_555
C30_2 C29_2 1_555 1_555
Co9 O14_2 1_555 1_555
Co13 O13_2 1_555 1_555
C10_5 C14_5 1_555 1_555
C28_2 C29_2 1_555 1_555
C1_3 H1_3 1_555 1_555
O21 C19_2 1_555 1_555
O26 C19_2 1_555 1_555
C16_2 H9_2 1_555 1_555
C17_5 C1_3 1_555 1_555
C18_2 C16_2 1_555 1_555
C19_2 C18_2 1_555 1_555
C20_5 C18_2 1_555 1_555
H10_5 C20_5 1_555 1_555
C21_5 C16_2 1_555 1_555
C17_5 C21_5 1_555 1_555
O24 C5_2 1_555 1_555
C1_4 H1_4 1_555 1_555
C2_2 H3_2 1_555 1_555
C3_2 C1_4 1_555 1_555
C4_2 C2_2 1_555 1_555
C5_2 O19 1_555 1_555
C6_2 C4_2 1_555 1_555
H4_2 C6_2 1_555 1_555
C7_2 C2_2 1_555 1_555
C8_4 C3_2 1_555 1_555
H5_4 C8_4 1_555 1_555
C3_2 C7_2 1_555 1_555
C4_2 C5_2 1_555 1_555
C1_5 H1_5 1_555 1_555
C3_3 C1_5 1_555 1_555
H4_3 C6_3 1_555 1_555
C8_5 C3_3 1_555 1_555
H5_5 C8_5 1_555 1_555
O9_2 C24_2 1_555 1_555
O10_2 C24_2 1_555 1_555
C22_2 C7_3 1_555 1_555
H11_2 C22_2 1_555 1_555
C23_2 C6_3 1_555 1_555
C24_2 C23_2 1_555 1_555
Co9 O9_2 1_555 1_555
Co11 O10_2 1_555 1_555
C3_3 C7_3 1_555 1_555
C22_2 C23_2 1_555 1_555
Co9 O1_2 1_555 1_555
O1_2 Co11 1_555 1_555
O4_2 Co9 1_555 1_555
H2_2 O4_2 1_555 1_555
H14_2 O4_2 1_555 1_555
O15_2 Co11 1_555 1_555
H15_2 O15_2 1_555 1_555
H16_2 O15_2 1_555 1_555
Co13 O1_2 1_555 1_555
O16_2 Co13 1_555 1_555
H17_2 O16_2 1_555 1_555
H18_2 O16_2 1_555 1_555
H5_6 C8_6 1_555 1_555
C10_6 C8_6 1_555 1_555
H7_6 C13_6 1_555 1_555
C10_6 C14_6 1_555 1_555
C1_6 H1_6 1_555 1_555
C17_6 C1_6 1_555 1_555
H10_6 C20_6 1_555 1_555
C17_6 C21_6 1_555 1_555

#END
