
###############################################################################
#
# This file contains modified crystal structure data generated from the
# MOF subset of the Cambridge Structural Database (CSD) v543 
# hosted by the Cambridge Crystallographic Data Centre (CCDC).
#
# This work is licensed under the Creative Commons
# Attribution-NonCommercial-ShareAlike 4.0 International License.
# To view a copy of this license, visit
# http://creativecommons.org/licenses/by-nc-sa/4.0/
# or send a letter to
# Creative Commons, PO Box 1866, Mountain View, CA 94042, USA.
#
# CIF created using the CSD Python API on 29 September 2022
# The structure has been converted into the P1 space group
# The structure has a 3D framework
# The original CSD entry MOFKUO is in the monoclinic crystal system
# The framework has been calculated to contain at least 10.0% void space
# The void calculation uses a probe of radius 1.32A, grid spacing 0.4
#
###############################################################################

data_MOFKUO
_chemical_formula_moiety         '(C192 H288 Cu14 N144 O248 P8 W72)n'
_symmetry_cell_setting           triclinic
_symmetry_space_group_name_H-M   'P 1'
_symmetry_Int_Tables_number      1
_space_group_name_Hall           'P 1'
loop_
_symmetry_equiv_pos_site_id
_symmetry_equiv_pos_as_xyz
1 x,y,z
_cell_length_a                   14.649(5)
_cell_length_b                   26.362(5)
_cell_length_c                   29.960(5)
_cell_angle_alpha                90
_cell_angle_beta                 95.609(5)
_cell_angle_gamma                90
_cell_volume                     11514.5
loop_
_atom_site_label
_atom_site_type_symbol
_atom_site_fract_x
_atom_site_fract_y
_atom_site_fract_z
H53 H 0.2420 0.0195 0.5427
H55 H 0.3950 0.0158 0.5327
H57 H 0.3691 0.0242 0.6077
C39 C 0.5462(10) 0.0305(7) 0.6303(6)
H59 H 0.5240 0.0607 0.6411
N30 N 0.6348(8) 0.0144(5) 0.6345(4)
Cu4 Cu 0.73375(10) 0.04119(5) 0.67779(5)
P1 P 0.51770(18) 0.70770(10) 0.31640(10)
W1 W 0.75759(3) 0.701820(17) 0.310790(17)
W2 W 0.63708(3) 0.823530(17) 0.312440(17)
W3 W 0.40781(3) 0.826400(16) 0.313710(17)
W4 W 0.42983(3) 0.744680(18) 0.415003(16)
W5 W 0.63613(3) 0.593820(17) 0.310060(17)
W6 W 0.54394(3) 0.632940(18) 0.415540(16)
W7 W 0.27615(3) 0.706672(17) 0.315498(17)
W8 W 0.66012(3) 0.743890(18) 0.414900(17)
W9 W 0.38712(3) 0.595140(17) 0.316240(17)
O1 O 0.4269(5) 0.6809(3) 0.3029(3)
O2 O 0.5316(5) 0.7078(3) 0.3697(3)
O3 O 0.7505(5) 0.6305(3) 0.3176(3)
O4 O 0.6421(5) 0.7987(3) 0.3723(3)
O5 O 0.6030(5) 0.8344(3) 0.2484(2)
O6 O 0.5530(5) 0.7651(3) 0.4390(3)
O7 O 0.4617(5) 0.6792(3) 0.4410(3)
O8 O 0.6430(5) 0.5957(3) 0.2470(3)
O9 O 0.7478(5) 0.6949(3) 0.2473(3)
O10 O 0.6196(6) 0.6102(3) 0.3717(3)
O11 O 0.3385(5) 0.7146(3) 0.3762(3)
O12 O 0.7435(6) 0.7681(3) 0.4527(3)
O13 O 0.7287(5) 0.7136(3) 0.3704(3)
O14 O 0.5991(5) 0.6789(3) 0.3001(3)
O15 O 0.3689(5) 0.7699(3) 0.4556(3)
O16 O 0.8728(6) 0.7107(3) 0.3199(3)
O17 O 0.3194(5) 0.7732(3) 0.3055(3)
O18 O 0.5239(5) 0.8585(3) 0.3215(3)
O19 O 0.4298(5) 0.7991(3) 0.3740(3)
O20 O 0.2831(6) 0.6340(3) 0.3250(3)
O21 O 0.6421(5) 0.6775(3) 0.4381(3)
O22 O 0.5529(7) 0.5850(3) 0.4537(3)
O23 O 0.7142(6) 0.8715(3) 0.3206(3)
O24 O 0.4441(6) 0.6110(3) 0.3746(3)
O25 O 0.1666(6) 0.7177(4) 0.3284(3)
O26 O 0.6807(6) 0.5340(3) 0.3191(3)
O27 O 0.7124(6) 0.7698(3) 0.2990(3)
O28 O 0.5102(5) 0.5813(3) 0.3019(3)
O29 O 0.3417(5) 0.8765(3) 0.3274(3)
O30 O 0.5152(5) 0.7633(3) 0.3010(3)
O31 O 0.3479(6) 0.5364(3) 0.3273(3)
Cu1 Cu 0.2500 0.7500 0.5000
Cu2 Cu 0.23375(10) 0.54119(5) 0.67779(5)
C1 C 0.3344(9) 0.6967(6) 0.5857(5)
H1 H 0.2773 0.6912 0.5960
C2 C 0.4354(9) 0.7182(5) 0.5435(5)
H2 H 0.4656 0.7305 0.5198
C3 C 0.5739(9) 0.6883(7) 0.5913(5)
H3 H 0.5954 0.7092 0.6168
H4 H 0.6077 0.6979 0.5663
C4 C 0.5915(9) 0.6320(6) 0.6028(5)
H5 H 0.5549 0.6223 0.6267
H6 H 0.6556 0.6276 0.6137
C5 C 0.5681(10) 0.5963(7) 0.5621(5)
H7 H 0.6233 0.5893 0.5477
H8 H 0.5245 0.6129 0.5404
C6 C 0.5265(10) 0.5454(7) 0.5772(5)
H9 H 0.5241 0.5212 0.5527
H10 H 0.5658 0.5315 0.6022
C7 C 0.4042(9) 0.5484(5) 0.6309(4)
H11 H 0.4405 0.5398 0.6570
C8 C 0.2931(10) 0.5691(6) 0.5841(5)
H12 H 0.2339 0.5773 0.5721
C9 C 0.2826(9) 0.6399(5) 0.4749(5)
H13 H 0.3293 0.6354 0.4979
C10 C 0.1736(10) 0.6697(5) 0.4316(5)
H14 H 0.1292 0.6918 0.4186
C11 C 0.2889(10) 0.5532(6) 0.4406(6)
H15 H 0.3524 0.5518 0.4533
H16 H 0.2873 0.5448 0.4090
C12 C 0.2339(10) 0.5137(6) 0.4637(6)
H17 H 0.2580 0.4805 0.4573
H18 H 0.2452 0.5190 0.4958
C13 C 0.1305(11) 0.5123(6) 0.4518(6)
H19 H 0.1050 0.4842 0.4673
H20 H 0.1039 0.5434 0.4622
C14 C 0.1049(11) 0.5069(7) 0.4028(6)
H21 H 0.1309 0.4758 0.3923
H22 H 0.1299 0.5351 0.3872
C17 C 0.1262(12) 0.5356(7) 0.7611(5)
H25 H 0.1273 0.5707 0.7648
C18 C 0.1495(10) 0.4635(5) 0.7347(5)
H26 H 0.1672 0.4369 0.7171
C19 C 0.0742(11) 0.4114(6) 0.7939(6)
H27 H 0.0231 0.4194 0.8111
H28 H 0.1246 0.4001 0.8150
C20 C 0.0470(11) 0.3696(6) 0.7633(6)
H29 H 0.0923 0.3675 0.7418
H30 H 0.0518 0.3386 0.7807
C21 C 0.3739(9) 0.5543(6) 0.7583(4)
H31 H 0.3771 0.5196 0.7636
C22 C 0.3372(9) 0.6234(5) 0.7282(5)
H32 H 0.3109 0.6484 0.7092
C23 C 0.4236(15) 0.6831(8) 0.7833(6)
H33 H 0.3746 0.6975 0.7988
H34 H 0.4768 0.6786 0.8048
C24 C 0.446(2) 0.7174(13) 0.7479(11)
H35 H 0.4211 0.7052 0.7187
H36 H 0.4224 0.7512 0.7525
N1 N 0.3449(7) 0.7200(4) 0.5451(3)
N2 N 0.4120(8) 0.6829(5) 0.6085(4)
N3 N 0.4765(8) 0.6969(5) 0.5796(4)
N4 N 0.4341(8) 0.5528(4) 0.5908(4)
N5 N 0.3626(8) 0.5675(5) 0.5598(4)
N6 N 0.3141(7) 0.5579(4) 0.6283(3)
N7 N 0.2349(7) 0.6828(4) 0.4679(4)
N8 N 0.1843(8) 0.6218(4) 0.4169(4)
N9 N 0.2549(7) 0.6042(4) 0.4450(4)
N10 N 0.0034(9) 0.5058(6) 0.3927(5)
N13 N 0.1651(8) 0.5130(4) 0.7284(4)
N14 N 0.0854(10) 0.5050(5) 0.7884(4)
N15 N 0.1032(8) 0.4596(5) 0.7715(4)
N16 N 0.3219(7) 0.5750(4) 0.7229(4)
N17 N 0.4200(9) 0.5883(6) 0.7846(4)
N18 N 0.3941(7) 0.6325(5) 0.7635(4)
P2 P 0.48230(18) 0.70770(10) 0.18360(10)
W10 W 0.24241(3) 0.701820(17) 0.189210(17)
W11 W 0.36292(3) 0.823530(17) 0.187560(17)
W12 W 0.59219(3) 0.826400(16) 0.186290(17)
W13 W 0.57017(3) 0.744680(18) 0.084997(16)
W14 W 0.36387(3) 0.593820(17) 0.189940(17)
W15 W 0.45606(3) 0.632940(18) 0.084460(16)
W16 W 0.72385(3) 0.706672(17) 0.184502(17)
W17 W 0.33988(3) 0.743890(18) 0.085100(17)
W18 W 0.61288(3) 0.595140(17) 0.183760(17)
O32 O 0.5731(5) 0.6809(3) 0.1971(3)
O33 O 0.4684(5) 0.7078(3) 0.1303(3)
O34 O 0.2495(5) 0.6305(3) 0.1824(3)
O35 O 0.3579(5) 0.7987(3) 0.1277(3)
O36 O 0.3970(5) 0.8344(3) 0.2516(2)
O37 O 0.4470(5) 0.7651(3) 0.0610(3)
O38 O 0.5383(5) 0.6792(3) 0.0590(3)
O39 O 0.3570(5) 0.5957(3) 0.2530(3)
O40 O 0.2522(5) 0.6949(3) 0.2527(3)
O41 O 0.3804(6) 0.6102(3) 0.1283(3)
O42 O 0.6615(5) 0.7146(3) 0.1238(3)
O43 O 0.2565(6) 0.7681(3) 0.0473(3)
O44 O 0.2713(5) 0.7136(3) 0.1296(3)
O45 O 0.4009(5) 0.6789(3) 0.1999(3)
O46 O 0.1272(6) 0.7107(3) 0.1801(3)
O47 O 0.6806(5) 0.7732(3) 0.1945(3)
O48 O 0.4761(5) 0.8585(3) 0.1785(3)
O49 O 0.5702(5) 0.7991(3) 0.1260(3)
O50 O 0.7169(6) 0.6340(3) 0.1750(3)
O51 O 0.3579(5) 0.6775(3) 0.0619(3)
O52 O 0.4471(7) 0.5850(3) 0.0463(3)
O53 O 0.2858(6) 0.8715(3) 0.1794(3)
O54 O 0.5559(6) 0.6110(3) 0.1254(3)
O55 O 0.8334(6) 0.7177(4) 0.1716(3)
O56 O 0.2876(6) 0.7698(3) 0.2010(3)
O57 O 0.4898(5) 0.5813(3) 0.1981(3)
O58 O 0.6583(5) 0.8765(3) 0.1726(3)
O59 O 0.4848(5) 0.7633(3) 0.1990(3)
O60 O 0.6521(6) 0.5364(3) 0.1727(3)
O61 O 0.3193(6) 0.5340(3) 0.1809(3)
C25 C 0.1656(9) 0.8033(6) 0.4143(5)
H37 H 0.2227 0.8088 0.4040
C26 C 0.0646(9) 0.7818(5) 0.4565(5)
H38 H 0.0344 0.7695 0.4802
C31 C 0.0958(9) 0.9516(5) 0.3691(4)
H47 H 0.0595 0.9602 0.3430
C32 C 0.2069(10) 0.9309(6) 0.4159(5)
H48 H 0.2661 0.9227 0.4279
C33 C 0.2174(9) 0.8601(5) 0.5251(5)
H49 H 0.1707 0.8646 0.5021
C34 C 0.3264(10) 0.8303(5) 0.5684(5)
H50 H 0.3708 0.8082 0.5814
C35 C 0.2111(10) 0.9468(6) 0.5594(6)
H51 H 0.1476 0.9482 0.5467
H52 H 0.2127 0.9552 0.5910
C36 C 0.2661(10) 0.9863(6) 0.5363(6)
H54 H 0.2548 0.9810 0.5042
C37 C 0.3695(11) 0.9877(6) 0.5482(6)
H56 H 0.3961 0.9566 0.5378
C38 C 0.3951(11) 0.9931(7) 0.5972(6)
H58 H 0.3701 0.9649 0.6128
C40 C 0.6302(12) 0.9708(7) 0.6116(7)
H60 H 0.6824 0.9525 0.6066
N19 N 0.1551(7) 0.7800(4) 0.4549(3)
N20 N 0.0880(8) 0.8171(5) 0.3915(4)
N21 N 0.0235(8) 0.8031(5) 0.4204(4)
N22 N 0.0659(8) 0.9472(4) 0.4092(4)
N23 N 0.1374(8) 0.9325(5) 0.4402(4)
N24 N 0.1859(7) 0.9421(4) 0.3717(3)
N25 N 0.2651(7) 0.8172(4) 0.5321(4)
N26 N 0.3157(8) 0.8782(4) 0.5831(4)
N27 N 0.2451(7) 0.8958(4) 0.5550(4)
N28 N 0.4966(9) 0.9942(6) 0.6073(5)
N29 N 0.5491(10) 0.9557(6) 0.5970(7)
C45 C 0.6261(9) 0.5543(6) 0.7417(4)
H67 H 0.6229 0.5196 0.7364
C46 C 0.6628(9) 0.6234(5) 0.7718(5)
H68 H 0.6891 0.6484 0.7908
C47 C 0.5764(15) 0.6831(8) 0.7167(6)
H69 H 0.6254 0.6975 0.7012
H70 H 0.5232 0.6786 0.6952
C48 C 0.554(2) 0.7174(13) 0.7521(11)
H71 H 0.5789 0.7052 0.7813
H72 H 0.5776 0.7512 0.7475
N34 N 0.6781(7) 0.5750(4) 0.7771(4)
N35 N 0.5800(9) 0.5883(6) 0.7154(4)
N36 N 0.6059(7) 0.6325(5) 0.7365(4)
O62 O 0.1311(5) 0.7301(3) 0.5444(3)
W19 W 0.07017(3) 0.755320(18) 0.584997(16)
O63 O 0.6311(5) 0.7699(3) 0.0444(3)
O64 O 0.3193(6) 0.4660(3) 0.6809(3)
O66 O 0.1583(5) 0.6235(3) 0.6726(3)
Cu5 Cu 0.76625(10) 0.54119(5) 0.82221(5)
Cu7 Cu 0.76625(10) 0.45881(5) 0.32221(5)
Cu8 Cu 0.26625(10) 0.95881(5) 0.32221(5)
Cu9 Cu 0.23375(10) 0.45881(5) 0.17779(5)
Cu10 Cu 0.73375(10) 0.95881(5) 0.17779(5)
N38 N 0.1348(8) 0.5144(5) 0.6345(4)
C15 C 0.9538(10) 0.4695(7) 0.3697(6)
H23 H 0.9760 0.4393 0.3589
C16 C 0.8698(12) 0.5292(7) 0.3884(7)
H24 H 0.8176 0.5475 0.3934
N11 N 0.9509(10) 0.5443(6) 0.4030(7)
N12 N 0.8652(8) 0.4856(5) 0.3655(4)
C27 C 0.9261(9) 0.8117(7) 0.4087(5)
H39 H 0.9046 0.7908 0.3832
H40 H 0.8923 0.8021 0.4337
C28 C 0.9085(9) 0.8680(6) 0.3972(5)
H41 H 0.9451 0.8777 0.3733
H42 H 0.8444 0.8724 0.3863
C29 C 0.9319(10) 0.9037(7) 0.4379(5)
H43 H 0.8767 0.9107 0.4523
H44 H 0.9755 0.8871 0.4596
C30 C 0.9735(10) 0.9546(7) 0.4228(5)
H45 H 0.9759 0.9788 0.4473
H46 H 0.9342 0.9685 0.3978
C41 C 0.8738(12) 0.5356(7) 0.7389(5)
H61 H 0.8727 0.5707 0.7352
C42 C 0.8505(10) 0.4635(5) 0.7653(5)
H62 H 0.8328 0.4369 0.7829
C43 C 0.9258(11) 0.4114(6) 0.7061(6)
H63 H 0.9769 0.4194 0.6889
H64 H 0.8754 0.4001 0.6850
C44 C 0.9530(11) 0.3696(6) 0.7367(6)
H65 H 0.9077 0.3675 0.7582
H66 H 0.9482 0.3386 0.7193
N31 N 0.8349(8) 0.5130(4) 0.7716(4)
N32 N 0.9146(10) 0.5050(5) 0.7116(4)
N33 N 0.8968(8) 0.4596(5) 0.7285(4)
O65 O 0.6807(6) 0.4660(3) 0.8191(3)
O67 O 0.8417(5) 0.6235(3) 0.8274(3)
N37 N 0.6859(7) 0.5579(4) 0.8717(3)
N39 N 0.8652(8) 0.5144(5) 0.8655(4)
P1_2 P 0.01770(18) 0.20770(10) 0.31640(10)
W1_2 W 0.25759(3) 0.201820(17) 0.310790(17)
W2_2 W 0.13708(3) 0.323530(17) 0.312440(17)
W5_2 W 0.13613(3) 0.093820(17) 0.310060(17)
W6_2 W 0.04394(3) 0.132940(18) 0.415540(16)
W8_2 W 0.16012(3) 0.243890(18) 0.414900(17)
O2_2 O 0.0316(5) 0.2078(3) 0.3697(3)
O3_2 O 0.2505(5) 0.1305(3) 0.3176(3)
O4_2 O 0.1421(5) 0.2987(3) 0.3723(3)
O5_2 O 0.1030(5) 0.3344(3) 0.2484(2)
O6_2 O 0.0530(5) 0.2651(3) 0.4390(3)
O8_2 O 0.1430(5) 0.0957(3) 0.2470(3)
O9_2 O 0.2478(5) 0.1949(3) 0.2473(3)
O10_2 O 0.1196(6) 0.1102(3) 0.3717(3)
O12_2 O 0.2435(6) 0.2681(3) 0.4527(3)
O13_2 O 0.2287(5) 0.2136(3) 0.3704(3)
O14_2 O 0.0991(5) 0.1789(3) 0.3001(3)
O16_2 O 0.3728(6) 0.2107(3) 0.3199(3)
O18_2 O 0.0239(5) 0.3585(3) 0.3215(3)
O21_2 O 0.1421(5) 0.1775(3) 0.4381(3)
O22_2 O 0.0529(7) 0.0850(3) 0.4537(3)
O23_2 O 0.2142(6) 0.3715(3) 0.3206(3)
O26_2 O 0.1807(6) 0.0340(3) 0.3191(3)
O27_2 O 0.2124(6) 0.2698(3) 0.2990(3)
O28_2 O 0.0102(5) 0.0813(3) 0.3019(3)
O30_2 O 0.0152(5) 0.2633(3) 0.3010(3)
C3_2 C 0.0739(9) 0.1883(7) 0.5913(5)
H3_2 H 0.0954 0.2092 0.6168
H4_2 H 0.1077 0.1979 0.5663
C4_2 C 0.0915(9) 0.1320(6) 0.6028(5)
H5_2 H 0.0549 0.1223 0.6267
H6_2 H 0.1556 0.1276 0.6137
C5_2 C 0.0681(10) 0.0963(7) 0.5621(5)
H7_2 H 0.1233 0.0893 0.5477
H8_2 H 0.0245 0.1129 0.5404
C6_2 C 0.0265(10) 0.0454(7) 0.5772(5)
H9_2 H 0.0241 0.0212 0.5527
H10_2 H 0.0658 0.0315 0.6022
W12_2 W 0.09219(3) 0.326400(16) 0.186290(17)
W13_2 W 0.07017(3) 0.244680(18) 0.084997(16)
W16_2 W 0.22385(3) 0.206672(17) 0.184502(17)
W18_2 W 0.11288(3) 0.095140(17) 0.183760(17)
O32_2 O 0.0731(5) 0.1809(3) 0.1971(3)
O38_2 O 0.0383(5) 0.1792(3) 0.0590(3)
O42_2 O 0.1615(5) 0.2146(3) 0.1238(3)
O47_2 O 0.1806(5) 0.2732(3) 0.1945(3)
O49_2 O 0.0702(5) 0.2991(3) 0.1260(3)
O50_2 O 0.2169(6) 0.1340(3) 0.1750(3)
O54_2 O 0.0559(6) 0.1110(3) 0.1254(3)
O55_2 O 0.3334(6) 0.2177(4) 0.1716(3)
O58_2 O 0.1583(5) 0.3765(3) 0.1726(3)
O60_2 O 0.1521(6) 0.0364(3) 0.1727(3)
C39_2 C 0.0462(10) 0.5305(7) 0.6303(6)
H59_2 H 0.0240 0.5607 0.6411
C40_2 C 0.1302(12) 0.4708(7) 0.6116(7)
H60_2 H 0.1824 0.4525 0.6066
N29_2 N 0.0491(10) 0.4557(6) 0.5970(7)
C45_2 C 0.1261(9) 0.0543(6) 0.7417(4)
H67_2 H 0.1229 0.0196 0.7364
C46_2 C 0.1628(9) 0.1234(5) 0.7718(5)
H68_2 H 0.1891 0.1484 0.7908
C47_2 C 0.0764(15) 0.1831(8) 0.7167(6)
H69_2 H 0.1254 0.1975 0.7012
H70_2 H 0.0232 0.1786 0.6952
C48_2 C 0.054(2) 0.2174(13) 0.7521(11)
H71_2 H 0.0789 0.2052 0.7813
H72_2 H 0.0776 0.2512 0.7475
N34_2 N 0.1781(7) 0.0750(4) 0.7771(4)
N35_2 N 0.0800(9) 0.0883(6) 0.7154(4)
N36_2 N 0.1059(7) 0.1325(5) 0.7365(4)
O63_2 O 0.1311(5) 0.2699(3) 0.0444(3)
Cu5_2 Cu 0.26625(10) 0.04119(5) 0.82221(5)
W3_2 W 0.90781(3) 0.326400(16) 0.313710(17)
W4_2 W 0.92983(3) 0.244680(18) 0.415003(16)
W7_2 W 0.77615(3) 0.206672(17) 0.315498(17)
W9_2 W 0.88712(3) 0.095140(17) 0.316240(17)
O1_2 O 0.9269(5) 0.1809(3) 0.3029(3)
O7_2 O 0.9617(5) 0.1792(3) 0.4410(3)
O11_2 O 0.8385(5) 0.2146(3) 0.3762(3)
O15_2 O 0.8689(5) 0.2699(3) 0.4556(3)
O17_2 O 0.8194(5) 0.2732(3) 0.3055(3)
O19_2 O 0.9298(5) 0.2991(3) 0.3740(3)
O20_2 O 0.7831(6) 0.1340(3) 0.3250(3)
O24_2 O 0.9441(6) 0.1110(3) 0.3746(3)
O25_2 O 0.6666(6) 0.2177(4) 0.3284(3)
O29_2 O 0.8417(5) 0.3765(3) 0.3274(3)
O31_2 O 0.8479(6) 0.0364(3) 0.3273(3)
Cu1_2 Cu 0.7500 0.2500 0.5000
C1_2 C 0.8344(9) 0.1967(6) 0.5857(5)
H1_2 H 0.7773 0.1912 0.5960
C2_2 C 0.9354(9) 0.2182(5) 0.5435(5)
H2_2 H 0.9656 0.2305 0.5198
C7_2 C 0.9042(9) 0.0484(5) 0.6309(4)
H11_2 H 0.9405 0.0398 0.6570
C8_2 C 0.7931(10) 0.0691(6) 0.5841(5)
H12_2 H 0.7339 0.0773 0.5721
C9_2 C 0.7826(9) 0.1399(5) 0.4749(5)
H13_2 H 0.8293 0.1354 0.4979
C10_2 C 0.6736(10) 0.1697(5) 0.4316(5)
H14_2 H 0.6292 0.1918 0.4186
C11_2 C 0.7889(10) 0.0532(6) 0.4406(6)
H15_2 H 0.8524 0.0518 0.4533
H16_2 H 0.7873 0.0448 0.4090
C12_2 C 0.7339(10) 0.0137(6) 0.4637(6)
H18_2 H 0.7452 0.0190 0.4958
C13_2 C 0.6305(11) 0.0123(6) 0.4518(6)
H20_2 H 0.6039 0.0434 0.4622
C14_2 C 0.6049(11) 0.0069(7) 0.4028(6)
H22_2 H 0.6299 0.0351 0.3872
C16_2 C 0.3698(12) 0.0292(7) 0.3884(7)
H24_2 H 0.3176 0.0475 0.3934
C17_2 C 0.6262(12) 0.0356(7) 0.7611(5)
H25_2 H 0.6273 0.0707 0.7648
C21_2 C 0.8739(9) 0.0543(6) 0.7583(4)
H31_2 H 0.8771 0.0196 0.7636
C22_2 C 0.8372(9) 0.1234(5) 0.7282(5)
H32_2 H 0.8109 0.1484 0.7092
C23_2 C 0.9236(15) 0.1831(8) 0.7833(6)
H33_2 H 0.8746 0.1975 0.7988
H34_2 H 0.9768 0.1786 0.8048
C24_2 C 0.946(2) 0.2174(13) 0.7479(11)
H35_2 H 0.9211 0.2052 0.7187
H36_2 H 0.9224 0.2512 0.7525
N1_2 N 0.8449(7) 0.2200(4) 0.5451(3)
N2_2 N 0.9120(8) 0.1829(5) 0.6085(4)
N3_2 N 0.9765(8) 0.1969(5) 0.5796(4)
N4_2 N 0.9341(8) 0.0528(4) 0.5908(4)
N5_2 N 0.8626(8) 0.0675(5) 0.5598(4)
N6_2 N 0.8141(7) 0.0579(4) 0.6283(3)
N7_2 N 0.7349(7) 0.1828(4) 0.4679(4)
N8_2 N 0.6843(8) 0.1218(4) 0.4169(4)
N9_2 N 0.7549(7) 0.1042(4) 0.4450(4)
N10_2 N 0.5034(9) 0.0058(6) 0.3927(5)
N11_2 N 0.4509(10) 0.0443(6) 0.4030(7)
N13_2 N 0.6651(8) 0.0130(4) 0.7284(4)
N14_2 N 0.5854(10) 0.0050(5) 0.7884(4)
N16_2 N 0.8219(7) 0.0750(4) 0.7229(4)
N17_2 N 0.9200(9) 0.0883(6) 0.7846(4)
N18_2 N 0.8941(7) 0.1325(5) 0.7635(4)
P2_2 P 0.98230(18) 0.20770(10) 0.18360(10)
W10_2 W 0.74241(3) 0.201820(17) 0.189210(17)
W11_2 W 0.86292(3) 0.323530(17) 0.187560(17)
W14_2 W 0.86387(3) 0.093820(17) 0.189940(17)
W15_2 W 0.95606(3) 0.132940(18) 0.084460(16)
W17_2 W 0.83988(3) 0.243890(18) 0.085100(17)
O33_2 O 0.9684(5) 0.2078(3) 0.1303(3)
O34_2 O 0.7495(5) 0.1305(3) 0.1824(3)
O35_2 O 0.8579(5) 0.2987(3) 0.1277(3)
O36_2 O 0.8970(5) 0.3344(3) 0.2516(2)
O37_2 O 0.9470(5) 0.2651(3) 0.0610(3)
O39_2 O 0.8570(5) 0.0957(3) 0.2530(3)
O40_2 O 0.7522(5) 0.1949(3) 0.2527(3)
O41_2 O 0.8804(6) 0.1102(3) 0.1283(3)
O43_2 O 0.7565(6) 0.2681(3) 0.0473(3)
O44_2 O 0.7713(5) 0.2136(3) 0.1296(3)
O45_2 O 0.9009(5) 0.1789(3) 0.1999(3)
O46_2 O 0.6272(6) 0.2107(3) 0.1801(3)
O48_2 O 0.9761(5) 0.3585(3) 0.1785(3)
O51_2 O 0.8579(5) 0.1775(3) 0.0619(3)
O52_2 O 0.9471(7) 0.0850(3) 0.0463(3)
O53_2 O 0.7858(6) 0.3715(3) 0.1794(3)
O56_2 O 0.7876(6) 0.2698(3) 0.2010(3)
O57_2 O 0.9898(5) 0.0813(3) 0.1981(3)
O59_2 O 0.9848(5) 0.2633(3) 0.1990(3)
O61_2 O 0.8193(6) 0.0340(3) 0.1809(3)
C25_2 C 0.6656(9) 0.3033(6) 0.4143(5)
H37_2 H 0.7227 0.3088 0.4040
C26_2 C 0.5646(9) 0.2818(5) 0.4565(5)
H38_2 H 0.5344 0.2695 0.4802
C27_2 C 0.4261(9) 0.3117(7) 0.4087(5)
H39_2 H 0.4046 0.2908 0.3832
H40_2 H 0.3923 0.3021 0.4337
C28_2 C 0.4085(9) 0.3680(6) 0.3972(5)
H41_2 H 0.4451 0.3777 0.3733
H42_2 H 0.3444 0.3724 0.3863
C29_2 C 0.4319(10) 0.4037(7) 0.4379(5)
H43_2 H 0.3767 0.4107 0.4523
H44_2 H 0.4755 0.3871 0.4596
C30_2 C 0.4735(10) 0.4546(7) 0.4228(5)
H45_2 H 0.4759 0.4788 0.4473
H46_2 H 0.4342 0.4685 0.3978
C31_2 C 0.5958(9) 0.4516(5) 0.3691(4)
H47_2 H 0.5595 0.4602 0.3430
C32_2 C 0.7069(10) 0.4309(6) 0.4159(5)
H48_2 H 0.7661 0.4227 0.4279
C33_2 C 0.7174(9) 0.3601(5) 0.5251(5)
H49_2 H 0.6707 0.3646 0.5021
C34_2 C 0.8264(10) 0.3303(5) 0.5684(5)
H50_2 H 0.8708 0.3082 0.5814
C35_2 C 0.7111(10) 0.4468(6) 0.5594(6)
H51_2 H 0.6476 0.4482 0.5467
H52_2 H 0.7127 0.4552 0.5910
C36_2 C 0.7661(10) 0.4863(6) 0.5363(6)
H53_2 H 0.7420 0.5195 0.5427
H54_2 H 0.7548 0.4810 0.5042
C37_2 C 0.8695(11) 0.4877(6) 0.5482(6)
H55_2 H 0.8950 0.5158 0.5327
H56_2 H 0.8961 0.4566 0.5378
C38_2 C 0.8951(11) 0.4931(7) 0.5972(6)
H57_2 H 0.8691 0.5242 0.6077
H58_2 H 0.8701 0.4649 0.6128
N19_2 N 0.6551(7) 0.2800(4) 0.4549(3)
N20_2 N 0.5880(8) 0.3171(5) 0.3915(4)
N21_2 N 0.5235(8) 0.3031(5) 0.4204(4)
N22_2 N 0.5659(8) 0.4472(4) 0.4092(4)
N23_2 N 0.6374(8) 0.4325(5) 0.4402(4)
N24_2 N 0.6859(7) 0.4421(4) 0.3717(3)
N25_2 N 0.7651(7) 0.3172(4) 0.5321(4)
N26_2 N 0.8157(8) 0.3782(4) 0.5831(4)
N27_2 N 0.7451(7) 0.3958(4) 0.5550(4)
N28_2 N 0.9966(9) 0.4942(6) 0.6073(5)
C41_2 C 0.3738(12) 0.0356(7) 0.7389(5)
H61_2 H 0.3727 0.0707 0.7352
N31_2 N 0.3349(8) 0.0130(4) 0.7716(4)
N32_2 N 0.4146(10) 0.0050(5) 0.7116(4)
O62_2 O 0.6311(5) 0.2301(3) 0.5444(3)
W19_2 W 0.57017(3) 0.255320(18) 0.584997(16)
O66_2 O 0.6583(5) 0.1235(3) 0.6726(3)
O67_2 O 0.3417(5) 0.1235(3) 0.8274(3)
N37_2 N 0.1859(7) 0.0579(4) 0.8717(3)
N39_2 N 0.3652(8) 0.0144(5) 0.8655(4)
H17_2 H 0.7580 0.9805 0.4573
H19_2 H 0.6050 0.9842 0.4673
H21_2 H 0.6309 0.9758 0.3923
C15_2 C 0.4538(10) 0.9695(7) 0.3697(6)
H23_2 H 0.4760 0.9393 0.3589
C18_2 C 0.6495(10) 0.9635(5) 0.7347(5)
H26_2 H 0.6672 0.9369 0.7171
C19_2 C 0.5742(11) 0.9114(6) 0.7939(6)
H27_2 H 0.5231 0.9194 0.8111
H28_2 H 0.6246 0.9001 0.8150
C20_2 C 0.5470(11) 0.8696(6) 0.7633(6)
H29_2 H 0.5923 0.8675 0.7418
H30_2 H 0.5518 0.8386 0.7807
N12_2 N 0.3652(8) 0.9856(5) 0.3655(4)
N15_2 N 0.6032(8) 0.9596(5) 0.7715(4)
C42_2 C 0.3505(10) 0.9635(5) 0.7653(5)
H62_2 H 0.3328 0.9369 0.7829
C43_2 C 0.4258(11) 0.9114(6) 0.7061(6)
H63_2 H 0.4769 0.9194 0.6889
H64_2 H 0.3754 0.9001 0.6850
C44_2 C 0.4530(11) 0.8696(6) 0.7367(6)
H65_2 H 0.4077 0.8675 0.7582
H66_2 H 0.4482 0.8386 0.7193
N33_2 N 0.3968(8) 0.9596(5) 0.7285(4)
O64_2 O 0.8193(6) 0.9660(3) 0.6809(3)
O65_2 O 0.1807(6) 0.9660(3) 0.8191(3)
C15_3 C 0.0462(10) 0.4695(7) 0.1303(6)
H23_3 H 0.0240 0.4393 0.1411
C16_3 C 0.1302(12) 0.5292(7) 0.1116(7)
H24_3 H 0.1824 0.5475 0.1066
N11_3 N 0.0491(10) 0.5443(6) 0.0970(7)
N12_3 N 0.1348(8) 0.4856(5) 0.1345(4)
C27_3 C 0.0739(9) 0.8117(7) 0.0913(5)
H39_3 H 0.0954 0.7908 0.1168
H40_3 H 0.1077 0.8021 0.0663
C28_3 C 0.0915(9) 0.8680(6) 0.1028(5)
H41_3 H 0.0549 0.8777 0.1267
H42_3 H 0.1556 0.8724 0.1137
C29_3 C 0.0681(10) 0.9037(7) 0.0621(5)
H43_3 H 0.1233 0.9107 0.0477
H44_3 H 0.0245 0.8871 0.0404
C30_3 C 0.0265(10) 0.9546(7) 0.0772(5)
H45_3 H 0.0241 0.9788 0.0527
H46_3 H 0.0658 0.9685 0.1022
H53_3 H 0.7580 0.0195 0.9573
H55_3 H 0.6050 0.0158 0.9673
H57_3 H 0.6309 0.0242 0.8923
C39_3 C 0.4538(10) 0.0305(7) 0.8697(6)
H59_3 H 0.4760 0.0607 0.8589
Cu1_3 Cu 0.7500 0.7500 -0.0000
C9_3 C 0.7174(9) 0.6399(5) 0.0251(5)
H13_3 H 0.6707 0.6354 0.0021
C10_3 C 0.8264(10) 0.6697(5) 0.0684(5)
H14_3 H 0.8708 0.6918 0.0814
C11_3 C 0.7111(10) 0.5532(6) 0.0594(6)
H15_3 H 0.6476 0.5518 0.0467
H16_3 H 0.7127 0.5448 0.0910
C12_3 C 0.7661(10) 0.5137(6) 0.0363(6)
H17_3 H 0.7420 0.4805 0.0427
H18_3 H 0.7548 0.5190 0.0042
C13_3 C 0.8695(11) 0.5123(6) 0.0482(6)
H19_3 H 0.8950 0.4842 0.0327
H20_3 H 0.8961 0.5434 0.0378
C14_3 C 0.8951(11) 0.5069(7) 0.0972(6)
H21_3 H 0.8691 0.4758 0.1077
H22_3 H 0.8701 0.5351 0.1128
N7_3 N 0.7651(7) 0.6828(4) 0.0321(4)
N8_3 N 0.8157(8) 0.6218(4) 0.0831(4)
N9_3 N 0.7451(7) 0.6042(4) 0.0550(4)
N10_3 N 0.9966(9) 0.5058(6) 0.1073(5)
C25_3 C 0.8344(9) 0.8033(6) 0.0857(5)
H37_3 H 0.7773 0.8088 0.0960
C26_3 C 0.9354(9) 0.7818(5) 0.0435(5)
H38_3 H 0.9656 0.7695 0.0198
C31_3 C 0.9042(9) 0.9516(5) 0.1309(4)
H47_3 H 0.9405 0.9602 0.1570
C32_3 C 0.7931(10) 0.9309(6) 0.0841(5)
H48_3 H 0.7339 0.9227 0.0721
N19_3 N 0.8449(7) 0.7800(4) 0.0451(3)
N20_3 N 0.9120(8) 0.8171(5) 0.1085(4)
N21_3 N 0.9765(8) 0.8031(5) 0.0796(4)
N22_3 N 0.9341(8) 0.9472(4) 0.0908(4)
N23_3 N 0.8626(8) 0.9325(5) 0.0598(4)
N24_3 N 0.8141(7) 0.9421(4) 0.1283(3)
Cu1_4 Cu 0.7500 0.7500 1.0000
C1_3 C 0.6656(9) 0.6967(6) 0.9143(5)
H1_3 H 0.7227 0.6912 0.9040
C2_3 C 0.5646(9) 0.7182(5) 0.9565(5)
H2_3 H 0.5344 0.7305 0.9802
C3_3 C 0.4261(9) 0.6883(7) 0.9087(5)
H3_3 H 0.4046 0.7092 0.8832
H4_3 H 0.3923 0.6979 0.9337
C4_3 C 0.4085(9) 0.6320(6) 0.8972(5)
H5_3 H 0.4451 0.6223 0.8733
H6_3 H 0.3444 0.6276 0.8863
C5_3 C 0.4319(10) 0.5963(7) 0.9379(5)
H7_3 H 0.3767 0.5893 0.9523
H8_3 H 0.4755 0.6129 0.9596
C6_3 C 0.4735(10) 0.5454(7) 0.9228(5)
H9_3 H 0.4759 0.5212 0.9473
H10_3 H 0.4342 0.5315 0.8978
C7_3 C 0.5958(9) 0.5484(5) 0.8691(4)
H11_3 H 0.5595 0.5398 0.8430
C8_3 C 0.7069(10) 0.5691(6) 0.9159(5)
H12_3 H 0.7661 0.5773 0.9279
N1_3 N 0.6551(7) 0.7200(4) 0.9549(3)
N2_3 N 0.5880(8) 0.6829(5) 0.8915(4)
N3_3 N 0.5235(8) 0.6969(5) 0.9204(4)
N4_3 N 0.5659(8) 0.5528(4) 0.9092(4)
N5_3 N 0.6374(8) 0.5675(5) 0.9402(4)
C33_3 C 0.7826(9) 0.8601(5) 0.9749(5)
H49_3 H 0.8293 0.8646 0.9979
C34_3 C 0.6736(10) 0.8303(5) 0.9316(5)
H50_3 H 0.6292 0.8082 0.9186
C35_3 C 0.7889(10) 0.9468(6) 0.9406(6)
H51_3 H 0.8524 0.9482 0.9533
H52_3 H 0.7873 0.9552 0.9090
C36_3 C 0.7339(10) 0.9863(6) 0.9637(6)
H54_3 H 0.7452 0.9810 0.9958
C37_3 C 0.6305(11) 0.9877(6) 0.9518(6)
H56_3 H 0.6039 0.9566 0.9622
C38_3 C 0.6049(11) 0.9931(7) 0.9028(6)
H58_3 H 0.6299 0.9649 0.8872
C40_3 C 0.3698(12) 0.9708(7) 0.8884(7)
H60_3 H 0.3176 0.9525 0.8934
N25_3 N 0.7349(7) 0.8172(4) 0.9679(4)
N26_3 N 0.6843(8) 0.8782(4) 0.9169(4)
N27_3 N 0.7549(7) 0.8958(4) 0.9450(4)
N28_3 N 0.5034(9) 0.9942(6) 0.8927(5)
N29_3 N 0.4509(10) 0.9557(6) 0.9030(7)
O62_3 O 0.8689(5) 0.7301(3) 0.9556(3)
W19_3 W 0.92983(3) 0.755320(18) 0.915003(16)
Cu1_5 Cu 0.2500 0.2500 -0.0000
C9_4 C 0.2174(9) 0.1399(5) 0.0251(5)
H13_4 H 0.1707 0.1354 0.0021
C10_4 C 0.3264(10) 0.1697(5) 0.0684(5)
H14_4 H 0.3708 0.1918 0.0814
C11_4 C 0.2111(10) 0.0532(6) 0.0594(6)
H15_4 H 0.1476 0.0518 0.0467
H16_4 H 0.2127 0.0448 0.0910
C12_4 C 0.2661(10) 0.0137(6) 0.0363(6)
H18_4 H 0.2548 0.0190 0.0042
C13_4 C 0.3695(11) 0.0123(6) 0.0482(6)
H20_4 H 0.3961 0.0434 0.0378
C14_4 C 0.3951(11) 0.0069(7) 0.0972(6)
H22_4 H 0.3701 0.0351 0.1128
C16_4 C 0.6302(12) 0.0292(7) 0.1116(7)
H24_4 H 0.6824 0.0475 0.1066
N7_4 N 0.2651(7) 0.1828(4) 0.0321(4)
N8_4 N 0.3157(8) 0.1218(4) 0.0831(4)
N9_4 N 0.2451(7) 0.1042(4) 0.0550(4)
N10_4 N 0.4966(9) 0.0058(6) 0.1073(5)
N11_4 N 0.5491(10) 0.0443(6) 0.0970(7)
C25_4 C 0.3344(9) 0.3033(6) 0.0857(5)
H37_4 H 0.2773 0.3088 0.0960
C26_4 C 0.4354(9) 0.2818(5) 0.0435(5)
H38_4 H 0.4656 0.2695 0.0198
C27_4 C 0.5739(9) 0.3117(7) 0.0913(5)
H39_4 H 0.5954 0.2908 0.1168
H40_4 H 0.6077 0.3021 0.0663
C28_4 C 0.5915(9) 0.3680(6) 0.1028(5)
H41_4 H 0.5549 0.3777 0.1267
H42_4 H 0.6556 0.3724 0.1137
C29_4 C 0.5681(10) 0.4037(7) 0.0621(5)
H43_4 H 0.6233 0.4107 0.0477
H44_4 H 0.5245 0.3871 0.0404
C30_4 C 0.5265(10) 0.4546(7) 0.0772(5)
H45_4 H 0.5241 0.4788 0.0527
H46_4 H 0.5658 0.4685 0.1022
C31_4 C 0.4042(9) 0.4516(5) 0.1309(4)
H47_4 H 0.4405 0.4602 0.1570
C32_4 C 0.2931(10) 0.4309(6) 0.0841(5)
H48_4 H 0.2339 0.4227 0.0721
N19_4 N 0.3449(7) 0.2800(4) 0.0451(3)
N20_4 N 0.4120(8) 0.3171(5) 0.1085(4)
N21_4 N 0.4765(8) 0.3031(5) 0.0796(4)
N22_4 N 0.4341(8) 0.4472(4) 0.0908(4)
N23_4 N 0.3626(8) 0.4325(5) 0.0598(4)
N24_4 N 0.3141(7) 0.4421(4) 0.1283(3)
Cu1_6 Cu 0.2500 0.2500 1.0000
C1_4 C 0.1656(9) 0.1967(6) 0.9143(5)
H1_4 H 0.2227 0.1912 0.9040
C2_4 C 0.0646(9) 0.2182(5) 0.9565(5)
H2_4 H 0.0344 0.2305 0.9802
C7_4 C 0.0958(9) 0.0484(5) 0.8691(4)
H11_4 H 0.0595 0.0398 0.8430
C8_4 C 0.2069(10) 0.0691(6) 0.9159(5)
H12_4 H 0.2661 0.0773 0.9279
N1_4 N 0.1551(7) 0.2200(4) 0.9549(3)
N2_4 N 0.0880(8) 0.1829(5) 0.8915(4)
N3_4 N 0.0235(8) 0.1969(5) 0.9204(4)
N4_4 N 0.0659(8) 0.0528(4) 0.9092(4)
N5_4 N 0.1374(8) 0.0675(5) 0.9402(4)
C33_4 C 0.2826(9) 0.3601(5) 0.9749(5)
H49_4 H 0.3293 0.3646 0.9979
C34_4 C 0.1736(10) 0.3303(5) 0.9316(5)
H50_4 H 0.1292 0.3082 0.9186
C35_4 C 0.2889(10) 0.4468(6) 0.9406(6)
H51_4 H 0.3524 0.4482 0.9533
H52_4 H 0.2873 0.4552 0.9090
C36_4 C 0.2339(10) 0.4863(6) 0.9637(6)
H53_4 H 0.2580 0.5195 0.9573
H54_4 H 0.2452 0.4810 0.9958
C37_4 C 0.1305(11) 0.4877(6) 0.9518(6)
H55_4 H 0.1050 0.5158 0.9673
H56_4 H 0.1039 0.4566 0.9622
C38_4 C 0.1049(11) 0.4931(7) 0.9028(6)
H57_4 H 0.1309 0.5242 0.8923
H58_4 H 0.1299 0.4649 0.8872
N25_4 N 0.2349(7) 0.3172(4) 0.9679(4)
N26_4 N 0.1843(8) 0.3782(4) 0.9169(4)
N27_4 N 0.2549(7) 0.3958(4) 0.9450(4)
N28_4 N 0.0034(9) 0.4942(6) 0.8927(5)
O62_4 O 0.3689(5) 0.2301(3) 0.9556(3)
W19_4 W 0.42983(3) 0.255320(18) 0.915003(16)
H17_4 H 0.2420 0.9805 0.0427
H19_4 H 0.3950 0.9842 0.0327
H21_4 H 0.3691 0.9758 0.1077
C15_4 C 0.5462(10) 0.9695(7) 0.1303(6)
H23_4 H 0.5240 0.9393 0.1411
N12_4 N 0.6348(8) 0.9856(5) 0.1345(4)
C3_4 C 0.9261(9) 0.1883(7) 0.9087(5)
H3_4 H 0.9046 0.2092 0.8832
H4_4 H 0.8923 0.1979 0.9337
C4_4 C 0.9085(9) 0.1320(6) 0.8972(5)
H5_4 H 0.9451 0.1223 0.8733
H6_4 H 0.8444 0.1276 0.8863
C5_4 C 0.9319(10) 0.0963(7) 0.9379(5)
H7_4 H 0.8767 0.0893 0.9523
H8_4 H 0.9755 0.1129 0.9596
C6_4 C 0.9735(10) 0.0454(7) 0.9228(5)
H9_4 H 0.9759 0.0212 0.9473
H10_4 H 0.9342 0.0315 0.8978
C39_4 C 0.9538(10) 0.5305(7) 0.8697(6)
H59_4 H 0.9760 0.5607 0.8589
C40_4 C 0.8698(12) 0.4708(7) 0.8884(7)
H60_4 H 0.8176 0.4525 0.8934
N29_4 N 0.9509(10) 0.4557(6) 0.9030(7)
C41_3 C 0.1262(12) 0.4644(7) 0.2611(5)
H61_3 H 0.1273 0.4293 0.2648
C42_3 C 0.1495(10) 0.5365(5) 0.2347(5)
H62_3 H 0.1672 0.5631 0.2171
C43_3 C 0.0742(11) 0.5886(6) 0.2939(6)
H63_3 H 0.0231 0.5806 0.3111
H64_3 H 0.1246 0.5999 0.3150
C44_3 C 0.0470(11) 0.6304(6) 0.2633(6)
H65_3 H 0.0923 0.6325 0.2418
H66_3 H 0.0518 0.6614 0.2807
N31_3 N 0.1651(8) 0.4870(4) 0.2284(4)
N32_3 N 0.0854(10) 0.4950(5) 0.2884(4)
N33_3 N 0.1032(8) 0.5404(5) 0.2715(4)
N40 N 0.3219(7) 0.4250(4) 0.2229(4)
P1_3 P 0.48230(18) 0.29230(10) 0.68360(10)
W1_3 W 0.24241(3) 0.298180(17) 0.689210(17)
W2_3 W 0.36292(3) 0.176470(17) 0.687560(17)
W3_3 W 0.59219(3) 0.173600(16) 0.686290(17)
W5_3 W 0.36387(3) 0.406180(17) 0.689940(17)
W6_3 W 0.45606(3) 0.367060(18) 0.584460(16)
W7_3 W 0.72385(3) 0.293328(17) 0.684502(17)
W8_3 W 0.33988(3) 0.256110(18) 0.585100(17)
W9_3 W 0.61288(3) 0.404860(17) 0.683760(17)
O1_3 O 0.5731(5) 0.3191(3) 0.6971(3)
O2_3 O 0.4684(5) 0.2922(3) 0.6303(3)
O3_3 O 0.2495(5) 0.3695(3) 0.6824(3)
O4_3 O 0.3579(5) 0.2013(3) 0.6277(3)
O5_3 O 0.3970(5) 0.1656(3) 0.7516(2)
O6_3 O 0.4470(5) 0.2349(3) 0.5610(3)
O7_3 O 0.5383(5) 0.3208(3) 0.5590(3)
O8_3 O 0.3570(5) 0.4043(3) 0.7530(3)
O9_3 O 0.2522(5) 0.3051(3) 0.7527(3)
O10_3 O 0.3804(6) 0.3898(3) 0.6283(3)
O11_3 O 0.6615(5) 0.2854(3) 0.6238(3)
O12_3 O 0.2565(6) 0.2319(3) 0.5473(3)
O13_3 O 0.2713(5) 0.2864(3) 0.6296(3)
O14_3 O 0.4009(5) 0.3211(3) 0.6999(3)
O16_3 O 0.1272(6) 0.2893(3) 0.6801(3)
O17_3 O 0.6806(5) 0.2268(3) 0.6945(3)
O18_3 O 0.4761(5) 0.1415(3) 0.6785(3)
O19_3 O 0.5702(5) 0.2009(3) 0.6260(3)
O20_3 O 0.7169(6) 0.3660(3) 0.6750(3)
O21_3 O 0.3579(5) 0.3225(3) 0.5619(3)
O22_3 O 0.4471(7) 0.4150(3) 0.5463(3)
O23_3 O 0.2858(6) 0.1285(3) 0.6794(3)
O24_3 O 0.5559(6) 0.3890(3) 0.6254(3)
O25_3 O 0.8334(6) 0.2823(4) 0.6716(3)
O27_3 O 0.2876(6) 0.2302(3) 0.7010(3)
O28_3 O 0.4898(5) 0.4187(3) 0.6981(3)
O30_3 O 0.4848(5) 0.2367(3) 0.6990(3)
O31_3 O 0.6521(6) 0.4636(3) 0.6727(3)
C17_3 C 0.8738(12) 0.4644(7) 0.2389(5)
H25_3 H 0.8727 0.4293 0.2352
C18_3 C 0.8505(10) 0.5365(5) 0.2653(5)
H26_3 H 0.8328 0.5631 0.2829
C19_3 C 0.9258(11) 0.5886(6) 0.2061(6)
H27_3 H 0.9769 0.5806 0.1889
H28_3 H 0.8754 0.5999 0.1850
C20_3 C 0.9530(11) 0.6304(6) 0.2367(6)
H29_3 H 0.9077 0.6325 0.2582
H30_3 H 0.9482 0.6614 0.2193
C21_3 C 0.6261(9) 0.4457(6) 0.2417(4)
H31_3 H 0.6229 0.4804 0.2364
C22_3 C 0.6628(9) 0.3766(5) 0.2718(5)
H32_3 H 0.6891 0.3516 0.2908
C23_3 C 0.5764(15) 0.3169(8) 0.2167(6)
H33_3 H 0.6254 0.3025 0.2012
H34_3 H 0.5232 0.3214 0.1952
C24_3 C 0.554(2) 0.2826(13) 0.2521(11)
H35_3 H 0.5789 0.2948 0.2813
H36_3 H 0.5776 0.2488 0.2475
N13_3 N 0.8349(8) 0.4870(4) 0.2716(4)
N14_3 N 0.9146(10) 0.4950(5) 0.2116(4)
N15_3 N 0.8968(8) 0.5404(5) 0.2285(4)
N16_3 N 0.6781(7) 0.4250(4) 0.2771(4)
N17_3 N 0.5800(9) 0.4117(6) 0.2154(4)
N18_3 N 0.6059(7) 0.3675(5) 0.2365(4)
P2_3 P 0.51770(18) 0.29230(10) 0.81640(10)
W10_3 W 0.75759(3) 0.298180(17) 0.810790(17)
W11_3 W 0.63708(3) 0.176470(17) 0.812440(17)
W12_3 W 0.40781(3) 0.173600(16) 0.813710(17)
W14_3 W 0.63613(3) 0.406180(17) 0.810060(17)
W15_3 W 0.54394(3) 0.367060(18) 0.915540(16)
W16_3 W 0.27615(3) 0.293328(17) 0.815498(17)
W17_3 W 0.66012(3) 0.256110(18) 0.914900(17)
W18_3 W 0.38712(3) 0.404860(17) 0.816240(17)
O32_3 O 0.4269(5) 0.3191(3) 0.8029(3)
O33_3 O 0.5316(5) 0.2922(3) 0.8697(3)
O34_3 O 0.7505(5) 0.3695(3) 0.8176(3)
O35_3 O 0.6421(5) 0.2013(3) 0.8723(3)
O36_3 O 0.6030(5) 0.1656(3) 0.7484(2)
O37_3 O 0.5530(5) 0.2349(3) 0.9390(3)
O38_3 O 0.4617(5) 0.3208(3) 0.9410(3)
O39_3 O 0.6430(5) 0.4043(3) 0.7470(3)
O40_3 O 0.7478(5) 0.3051(3) 0.7473(3)
O41_3 O 0.6196(6) 0.3898(3) 0.8717(3)
O42_3 O 0.3385(5) 0.2854(3) 0.8762(3)
O43_3 O 0.7435(6) 0.2319(3) 0.9527(3)
O44_3 O 0.7287(5) 0.2864(3) 0.8704(3)
O45_3 O 0.5991(5) 0.3211(3) 0.8001(3)
O46_3 O 0.8728(6) 0.2893(3) 0.8199(3)
O47_3 O 0.3194(5) 0.2268(3) 0.8055(3)
O48_3 O 0.5239(5) 0.1415(3) 0.8215(3)
O49_3 O 0.4298(5) 0.2009(3) 0.8740(3)
O50_3 O 0.2831(6) 0.3660(3) 0.8250(3)
O51_3 O 0.6421(5) 0.3225(3) 0.9381(3)
O52_3 O 0.5529(7) 0.4150(3) 0.9537(3)
O53_3 O 0.7142(6) 0.1285(3) 0.8206(3)
O54_3 O 0.4441(6) 0.3890(3) 0.8746(3)
O55_3 O 0.1666(6) 0.2823(4) 0.8284(3)
O56_3 O 0.7124(6) 0.2302(3) 0.7990(3)
O57_3 O 0.5102(5) 0.4187(3) 0.8019(3)
O59_3 O 0.5152(5) 0.2367(3) 0.8010(3)
O60_3 O 0.3479(6) 0.4636(3) 0.8273(3)
C45_3 C 0.3739(9) 0.4457(6) 0.2583(4)
H67_3 H 0.3771 0.4804 0.2636
C46_3 C 0.3372(9) 0.3766(5) 0.2282(5)
H68_3 H 0.3109 0.3516 0.2092
C47_3 C 0.4236(15) 0.3169(8) 0.2833(6)
H69_3 H 0.3746 0.3025 0.2988
H70_3 H 0.4768 0.3214 0.3048
C48_3 C 0.446(2) 0.2826(13) 0.2479(11)
H71_3 H 0.4211 0.2948 0.2187
H72_3 H 0.4224 0.2488 0.2525
N35_3 N 0.4200(9) 0.4117(6) 0.2846(4)
N36_3 N 0.3941(7) 0.3675(5) 0.2635(4)
C18_4 C 0.3505(10) 0.0365(5) 0.2653(5)
H26_4 H 0.3328 0.0631 0.2829
C19_4 C 0.4258(11) 0.0886(6) 0.2061(6)
H27_4 H 0.4769 0.0806 0.1889
H28_4 H 0.3754 0.0999 0.1850
C20_4 C 0.4530(11) 0.1304(6) 0.2367(6)
H29_4 H 0.4077 0.1325 0.2582
H30_4 H 0.4482 0.1614 0.2193
N15_4 N 0.3968(8) 0.0404(5) 0.2285(4)
C42_4 C 0.6495(10) 0.0365(5) 0.2347(5)
H62_4 H 0.6672 0.0631 0.2171
C43_4 C 0.5742(11) 0.0886(6) 0.2939(6)
H63_4 H 0.5231 0.0806 0.3111
H64_4 H 0.6246 0.0999 0.3150
C44_4 C 0.5470(11) 0.1304(6) 0.2633(6)
H65_4 H 0.5923 0.1325 0.2418
H66_4 H 0.5518 0.1614 0.2807
N33_4 N 0.6032(8) 0.0404(5) 0.2715(4)
W3_4 W 0.09219(3) 0.673600(16) 0.686290(17)
W7_4 W 0.22385(3) 0.793328(17) 0.684502(17)
W9_4 W 0.11288(3) 0.904860(17) 0.683760(17)
O1_4 O 0.0731(5) 0.8191(3) 0.6971(3)
O7_4 O 0.0383(5) 0.8208(3) 0.5590(3)
O11_4 O 0.1615(5) 0.7854(3) 0.6238(3)
O17_4 O 0.1806(5) 0.7268(3) 0.6945(3)
O19_4 O 0.0702(5) 0.7009(3) 0.6260(3)
O20_4 O 0.2169(6) 0.8660(3) 0.6750(3)
O24_4 O 0.0559(6) 0.8890(3) 0.6254(3)
O25_4 O 0.3334(6) 0.7823(4) 0.6716(3)
O31_4 O 0.1521(6) 0.9636(3) 0.6727(3)
C17_4 C 0.3738(12) 0.9644(7) 0.2389(5)
H25_4 H 0.3727 0.9293 0.2352
C21_4 C 0.1261(9) 0.9457(6) 0.2417(4)
H31_4 H 0.1229 0.9804 0.2364
C22_4 C 0.1628(9) 0.8766(5) 0.2718(5)
H32_4 H 0.1891 0.8516 0.2908
C23_4 C 0.0764(15) 0.8169(8) 0.2167(6)
H33_4 H 0.1254 0.8025 0.2012
H34_4 H 0.0232 0.8214 0.1952
C24_4 C 0.054(2) 0.7826(13) 0.2521(11)
H35_4 H 0.0789 0.7948 0.2813
H36_4 H 0.0776 0.7488 0.2475
N13_4 N 0.3349(8) 0.9870(4) 0.2716(4)
N14_4 N 0.4146(10) 0.9950(5) 0.2116(4)
N16_4 N 0.1781(7) 0.9250(4) 0.2771(4)
N17_4 N 0.0800(9) 0.9117(6) 0.2154(4)
N18_4 N 0.1059(7) 0.8675(5) 0.2365(4)
P2_4 P 0.01770(18) 0.79230(10) 0.81640(10)
W10_4 W 0.25759(3) 0.798180(17) 0.810790(17)
W11_4 W 0.13708(3) 0.676470(17) 0.812440(17)
W14_4 W 0.13613(3) 0.906180(17) 0.810060(17)
W15_4 W 0.04394(3) 0.867060(18) 0.915540(16)
W17_4 W 0.16012(3) 0.756110(18) 0.914900(17)
O33_4 O 0.0316(5) 0.7922(3) 0.8697(3)
O34_4 O 0.2505(5) 0.8695(3) 0.8176(3)
O35_4 O 0.1421(5) 0.7013(3) 0.8723(3)
O36_4 O 0.1030(5) 0.6656(3) 0.7484(2)
O37_4 O 0.0530(5) 0.7349(3) 0.9390(3)
O39_4 O 0.1430(5) 0.9043(3) 0.7470(3)
O40_4 O 0.2478(5) 0.8051(3) 0.7473(3)
O41_4 O 0.1196(6) 0.8898(3) 0.8717(3)
O43_4 O 0.2435(6) 0.7319(3) 0.9527(3)
O44_4 O 0.2287(5) 0.7864(3) 0.8704(3)
O45_4 O 0.0991(5) 0.8211(3) 0.8001(3)
O46_4 O 0.3728(6) 0.7893(3) 0.8199(3)
O48_4 O 0.0239(5) 0.6415(3) 0.8215(3)
O51_4 O 0.1421(5) 0.8225(3) 0.9381(3)
O52_4 O 0.0529(7) 0.9150(3) 0.9537(3)
O53_4 O 0.2142(6) 0.6285(3) 0.8206(3)
O56_4 O 0.2124(6) 0.7302(3) 0.7990(3)
O57_4 O 0.0102(5) 0.9187(3) 0.8019(3)
O59_4 O 0.0152(5) 0.7367(3) 0.8010(3)
C41_4 C 0.6262(12) 0.9644(7) 0.2611(5)
H61_4 H 0.6273 0.9293 0.2648
N31_4 N 0.6651(8) 0.9870(4) 0.2284(4)
N32_4 N 0.5854(10) 0.9950(5) 0.2884(4)
N40_2 N 0.8219(7) 0.9250(4) 0.2229(4)
P1_4 P 0.98230(18) 0.79230(10) 0.68360(10)
W1_4 W 0.74241(3) 0.798180(17) 0.689210(17)
W2_4 W 0.86292(3) 0.676470(17) 0.687560(17)
W5_4 W 0.86387(3) 0.906180(17) 0.689940(17)
W6_4 W 0.95606(3) 0.867060(18) 0.584460(16)
W8_4 W 0.83988(3) 0.756110(18) 0.585100(17)
O2_4 O 0.9684(5) 0.7922(3) 0.6303(3)
O3_4 O 0.7495(5) 0.8695(3) 0.6824(3)
O4_4 O 0.8579(5) 0.7013(3) 0.6277(3)
O5_4 O 0.8970(5) 0.6656(3) 0.7516(2)
O6_4 O 0.9470(5) 0.7349(3) 0.5610(3)
O8_4 O 0.8570(5) 0.9043(3) 0.7530(3)
O9_4 O 0.7522(5) 0.8051(3) 0.7527(3)
O10_4 O 0.8804(6) 0.8898(3) 0.6283(3)
O12_4 O 0.7565(6) 0.7319(3) 0.5473(3)
O13_4 O 0.7713(5) 0.7864(3) 0.6296(3)
O14_4 O 0.9009(5) 0.8211(3) 0.6999(3)
O16_4 O 0.6272(6) 0.7893(3) 0.6801(3)
O18_4 O 0.9761(5) 0.6415(3) 0.6785(3)
O21_4 O 0.8579(5) 0.8225(3) 0.5619(3)
O22_4 O 0.9471(7) 0.9150(3) 0.5463(3)
O23_4 O 0.7858(6) 0.6285(3) 0.6794(3)
O27_4 O 0.7876(6) 0.7302(3) 0.7010(3)
O28_4 O 0.9898(5) 0.9187(3) 0.6981(3)
O30_4 O 0.9848(5) 0.7367(3) 0.6990(3)
W12_4 W 0.90781(3) 0.673600(16) 0.813710(17)
W16_4 W 0.77615(3) 0.793328(17) 0.815498(17)
W18_4 W 0.88712(3) 0.904860(17) 0.816240(17)
O32_4 O 0.9269(5) 0.8191(3) 0.8029(3)
O38_4 O 0.9617(5) 0.8208(3) 0.9410(3)
O42_4 O 0.8385(5) 0.7854(3) 0.8762(3)
O47_4 O 0.8194(5) 0.7268(3) 0.8055(3)
O49_4 O 0.9298(5) 0.7009(3) 0.8740(3)
O50_4 O 0.7831(6) 0.8660(3) 0.8250(3)
O54_4 O 0.9441(6) 0.8890(3) 0.8746(3)
O55_4 O 0.6666(6) 0.7823(4) 0.8284(3)
O60_4 O 0.8479(6) 0.9636(3) 0.8273(3)
C45_4 C 0.8739(9) 0.9457(6) 0.2583(4)
H67_4 H 0.8771 0.9804 0.2636
C46_4 C 0.8372(9) 0.8766(5) 0.2282(5)
H68_4 H 0.8109 0.8516 0.2092
C47_4 C 0.9236(15) 0.8169(8) 0.2833(6)
H69_4 H 0.8746 0.8025 0.2988
H70_4 H 0.9768 0.8214 0.3048
C48_4 C 0.946(2) 0.7826(13) 0.2479(11)
H71_4 H 0.9211 0.7948 0.2187
H72_4 H 0.9224 0.7488 0.2525
N35_4 N 0.9200(9) 0.9117(6) 0.2846(4)
N36_4 N 0.8941(7) 0.8675(5) 0.2635(4)
loop_
_geom_bond_atom_site_label_1
_geom_bond_atom_site_label_2
_geom_bond_site_symmetry_1
_geom_bond_site_symmetry_2
C39 H59 1_555 1_555
N30 C39 1_555 1_555
Cu4 N30 1_555 1_555
P1 O1 1_555 1_555
W1 O3 1_555 1_555
W2 O4 1_555 1_555
W3 O17 1_555 1_555
W4 O2 1_555 1_555
W5 O3 1_555 1_555
W6 O2 1_555 1_555
W7 O1 1_555 1_555
W8 O2 1_555 1_555
W9 O1 1_555 1_555
O2 P1 1_555 1_555
O4 W8 1_555 1_555
O5 W2 1_555 1_555
O6 W4 1_555 1_555
O7 W4 1_555 1_555
O8 W5 1_555 1_555
O9 W1 1_555 1_555
O10 W5 1_555 1_555
O11 W4 1_555 1_555
O12 W8 1_555 1_555
O13 W1 1_555 1_555
O14 P1 1_555 1_555
O15 W4 1_555 1_555
O16 W1 1_555 1_555
O17 W7 1_555 1_555
O18 W2 1_555 1_555
O19 W3 1_555 1_555
O20 W7 1_555 1_555
O21 W6 1_555 1_555
O22 W6 1_555 1_555
O23 W2 1_555 1_555
O24 W6 1_555 1_555
O25 W7 1_555 1_555
O26 W5 1_555 1_555
O27 W1 1_555 1_555
O28 W5 1_555 1_555
O29 W3 1_555 1_555
O30 P1 1_555 1_555
O31 W9 1_555 1_555
Cu1 O15 1_555 1_555
Cu2 N6 1_555 1_555
C1 H1 1_555 1_555
C2 H2 1_555 1_555
C3 H3 1_555 1_555
H4 C3 1_555 1_555
C4 C3 1_555 1_555
H5 C4 1_555 1_555
H6 C4 1_555 1_555
C5 C4 1_555 1_555
H7 C5 1_555 1_555
H8 C5 1_555 1_555
C6 C5 1_555 1_555
H9 C6 1_555 1_555
H10 C6 1_555 1_555
C7 H11 1_555 1_555
C8 H12 1_555 1_555
C9 H13 1_555 1_555
C10 H14 1_555 1_555
C11 H15 1_555 1_555
H16 C11 1_555 1_555
C12 C11 1_555 1_555
H17 C12 1_555 1_555
H18 C12 1_555 1_555
C13 C12 1_555 1_555
H19 C13 1_555 1_555
H20 C13 1_555 1_555
C14 C13 1_555 1_555
H21 C14 1_555 1_555
H22 C14 1_555 1_555
C17 H25 1_555 1_555
C18 H26 1_555 1_555
C19 H27 1_555 1_555
H28 C19 1_555 1_555
C20 C19 1_555 1_555
H29 C20 1_555 1_555
H30 C20 1_555 1_555
C21 H31 1_555 1_555
C22 H32 1_555 1_555
C23 H33 1_555 1_555
H34 C23 1_555 1_555
C24 C23 1_555 1_555
H35 C24 1_555 1_555
H36 C24 1_555 1_555
N1 Cu1 1_555 1_555
N2 C1 1_555 1_555
N3 C2 1_555 1_555
N4 C6 1_555 1_555
N5 C8 1_555 1_555
N6 C7 1_555 1_555
N7 Cu1 1_555 1_555
N8 C10 1_555 1_555
N9 C9 1_555 1_555
N10 C14 1_555 1_555
N13 Cu2 1_555 1_555
N14 C17 1_555 1_555
N15 C18 1_555 1_555
N16 Cu2 1_555 1_555
N17 C21 1_555 1_555
N18 C22 1_555 1_555
P2 O32 1_555 1_555
W10 O34 1_555 1_555
W11 O35 1_555 1_555
W12 O5 1_555 1_555
W13 O33 1_555 1_555
W14 O34 1_555 1_555
W15 O33 1_555 1_555
W16 O9 1_555 1_555
W17 O33 1_555 1_555
W18 O8 1_555 1_555
O32 W16 1_555 1_555
O33 P2 1_555 1_555
O35 W17 1_555 1_555
O36 W3 1_555 1_555
O37 W13 1_555 1_555
O38 W13 1_555 1_555
O39 W9 1_555 1_555
O40 W7 1_555 1_555
O41 W14 1_555 1_555
O42 W13 1_555 1_555
O43 W17 1_555 1_555
O44 W10 1_555 1_555
O45 P2 1_555 1_555
O46 W10 1_555 1_555
O47 W12 1_555 1_555
O48 W11 1_555 1_555
O49 W12 1_555 1_555
O50 W16 1_555 1_555
O51 W15 1_555 1_555
O52 W15 1_555 1_555
O53 W11 1_555 1_555
O54 W15 1_555 1_555
O55 W16 1_555 1_555
O56 W10 1_555 1_555
O57 W14 1_555 1_555
O58 W12 1_555 1_555
O59 P2 1_555 1_555
O60 W18 1_555 1_555
O61 W14 1_555 1_555
C25 H37 1_555 1_555
C26 H38 1_555 1_555
C31 H47 1_555 1_555
C32 H48 1_555 1_555
C33 H49 1_555 1_555
C34 H50 1_555 1_555
C35 H51 1_555 1_555
H52 C35 1_555 1_555
C36 C35 1_555 1_555
H54 C36 1_555 1_555
C37 C36 1_555 1_555
H56 C37 1_555 1_555
C38 C37 1_555 1_555
H58 C38 1_555 1_555
C40 H60 1_555 1_555
N19 Cu1 1_555 1_555
N20 C25 1_555 1_555
N21 C26 1_555 1_555
N23 C32 1_555 1_555
N24 C31 1_555 1_555
N25 Cu1 1_555 1_555
N26 C34 1_555 1_555
N27 C33 1_555 1_555
N28 C38 1_555 1_555
N29 C40 1_555 1_555
C45 H67 1_555 1_555
C46 H68 1_555 1_555
C47 H69 1_555 1_555
H70 C47 1_555 1_555
C48 C24 1_555 1_555
H71 C48 1_555 1_555
H72 C48 1_555 1_555
N34 C45 1_555 1_555
N35 C45 1_555 1_555
N36 C46 1_555 1_555
O62 Cu1 1_555 1_555
W19 O62 1_555 1_555
O63 W13 1_555 1_555
O64 Cu2 1_555 1_555
O66 Cu2 1_555 1_555
Cu5 N34 1_555 1_555
Cu7 O26 1_555 1_555
Cu8 O29 1_555 1_555
Cu9 O61 1_555 1_555
Cu10 O58 1_555 1_555
N38 Cu2 1_555 1_555
W1 O14 1_555 1_555
W2 O27 1_555 1_555
W2 O30 1_555 1_555
W3 O18 1_555 1_555
W3 O30 1_555 1_555
W4 O19 1_555 1_555
W5 O14 1_555 1_555
W6 O7 1_555 1_555
W6 O10 1_555 1_555
W7 O11 1_555 1_555
W8 O6 1_555 1_555
W8 O13 1_555 1_555
W8 O21 1_555 1_555
W9 O20 1_555 1_555
W9 O24 1_555 1_555
W9 O28 1_555 1_555
C1 N1 1_555 1_555
C2 N1 1_555 1_555
C3 N3 1_555 1_555
C7 N4 1_555 1_555
C8 N6 1_555 1_555
C9 N7 1_555 1_555
C10 N7 1_555 1_555
C11 N9 1_555 1_555
C17 N13 1_555 1_555
C18 N13 1_555 1_555
C19 N15 1_555 1_555
C21 N16 1_555 1_555
C22 N16 1_555 1_555
C23 N18 1_555 1_555
N2 N3 1_555 1_555
N4 N5 1_555 1_555
N8 N9 1_555 1_555
N14 N15 1_555 1_555
N17 N18 1_555 1_555
W10 O40 1_555 1_555
W10 O45 1_555 1_555
W11 O36 1_555 1_555
W11 O56 1_555 1_555
W11 O59 1_555 1_555
W12 O48 1_555 1_555
W12 O59 1_555 1_555
W13 O49 1_555 1_555
W14 O39 1_555 1_555
W14 O45 1_555 1_555
W15 O38 1_555 1_555
W15 O41 1_555 1_555
W16 O42 1_555 1_555
W16 O47 1_555 1_555
W17 O37 1_555 1_555
W17 O44 1_555 1_555
W17 O51 1_555 1_555
W18 O32 1_555 1_555
W18 O50 1_555 1_555
W18 O54 1_555 1_555
W18 O57 1_555 1_555
C25 N19 1_555 1_555
C26 N19 1_555 1_555
C31 N22 1_555 1_555
C32 N24 1_555 1_555
C33 N25 1_555 1_555
C34 N25 1_555 1_555
C35 N27 1_555 1_555
N20 N21 1_555 1_555
N22 N23 1_555 1_555
N24 Cu8 1_555 1_555
N26 N27 1_555 1_555
N28 N29 1_555 1_555
C46 N34 1_555 1_555
C47 C48 1_555 1_555
C47 N36 1_555 1_555
N35 N36 1_555 1_555
C15 H23 1_555 1_555
C16 H24 1_555 1_555
N11 C16 1_555 1_555
N12 C15 1_555 1_555
C27 H39 1_555 1_555
H40 C27 1_555 1_555
C28 C27 1_555 1_555
H41 C28 1_555 1_555
H42 C28 1_555 1_555
C29 C28 1_555 1_555
H43 C29 1_555 1_555
H44 C29 1_555 1_555
C30 C29 1_555 1_555
H45 C30 1_555 1_555
H46 C30 1_555 1_555
C41 H61 1_555 1_555
C42 H62 1_555 1_555
C43 H63 1_555 1_555
H64 C43 1_555 1_555
H65 C44 1_555 1_555
H66 C44 1_555 1_555
N31 C41 1_555 1_555
N32 C41 1_555 1_555
N33 C42 1_555 1_555
Cu5 N31 1_555 1_555
O65 Cu5 1_555 1_555
O67 Cu5 1_555 1_555
Cu7 N12 1_555 1_555
N37 Cu5 1_555 1_555
N39 Cu5 1_555 1_555
C16 N12 1_555 1_555
C42 N31 1_555 1_555
C43 C44 1_555 1_555
C43 N33 1_555 1_555
N32 N33 1_555 1_555
W1_2 O3_2 1_555 1_555
W2_2 O4_2 1_555 1_555
W5_2 O3_2 1_555 1_555
W6_2 O2_2 1_555 1_555
W8_2 O2_2 1_555 1_555
O2_2 P1_2 1_555 1_555
O4_2 W8_2 1_555 1_555
O5_2 W2_2 1_555 1_555
O8_2 W5_2 1_555 1_555
O9_2 W1_2 1_555 1_555
O10_2 W5_2 1_555 1_555
O12_2 W8_2 1_555 1_555
O13_2 W1_2 1_555 1_555
O14_2 P1_2 1_555 1_555
O16_2 W1_2 1_555 1_555
O18_2 W2_2 1_555 1_555
O21_2 W6_2 1_555 1_555
O22_2 W6_2 1_555 1_555
O23_2 W2_2 1_555 1_555
O26_2 W5_2 1_555 1_555
O27_2 W1_2 1_555 1_555
O28_2 W5_2 1_555 1_555
O30_2 P1_2 1_555 1_555
C3_2 H3_2 1_555 1_555
H4_2 C3_2 1_555 1_555
C4_2 C3_2 1_555 1_555
H5_2 C4_2 1_555 1_555
H6_2 C4_2 1_555 1_555
C5_2 C4_2 1_555 1_555
H7_2 C5_2 1_555 1_555
H8_2 C5_2 1_555 1_555
C6_2 C5_2 1_555 1_555
H9_2 C6_2 1_555 1_555
H10_2 C6_2 1_555 1_555
W12_2 O5_2 1_555 1_555
W16_2 O9_2 1_555 1_555
W18_2 O8_2 1_555 1_555
O32_2 W16_2 1_555 1_555
O38_2 W13_2 1_555 1_555
O42_2 W13_2 1_555 1_555
O47_2 W12_2 1_555 1_555
O49_2 W12_2 1_555 1_555
O50_2 W16_2 1_555 1_555
O55_2 W16_2 1_555 1_555
O58_2 W12_2 1_555 1_555
O60_2 W18_2 1_555 1_555
C39_2 H59_2 1_555 1_555
C40_2 H60_2 1_555 1_555
N29_2 C40_2 1_555 1_555
N38 C39_2 1_555 1_555
C45_2 H67_2 1_555 1_555
C46_2 H68_2 1_555 1_555
C47_2 H69_2 1_555 1_555
H70_2 C47_2 1_555 1_555
H71_2 C48_2 1_555 1_555
H72_2 C48_2 1_555 1_555
N34_2 C45_2 1_555 1_555
N35_2 C45_2 1_555 1_555
N36_2 C46_2 1_555 1_555
O63_2 W13_2 1_555 1_555
Cu5_2 N34_2 1_555 1_555
Cu9 O58_2 1_555 1_555
W1_2 O14_2 1_555 1_555
W2_2 O27_2 1_555 1_555
W2_2 O30_2 1_555 1_555
W5_2 O14_2 1_555 1_555
W6_2 O10_2 1_555 1_555
W8_2 O6_2 1_555 1_555
W8_2 O13_2 1_555 1_555
W8_2 O21_2 1_555 1_555
W13_2 O49_2 1_555 1_555
W16_2 O42_2 1_555 1_555
W16_2 O47_2 1_555 1_555
W18_2 O32_2 1_555 1_555
W18_2 O50_2 1_555 1_555
W18_2 O54_2 1_555 1_555
C40_2 N38 1_555 1_555
C46_2 N34_2 1_555 1_555
C47_2 C48_2 1_555 1_555
C47_2 N36_2 1_555 1_555
N35_2 N36_2 1_555 1_555
W3_2 O17_2 1_555 1_555
W7_2 O1_2 1_555 1_555
W9_2 O1_2 1_555 1_555
O7_2 W4_2 1_555 1_555
O11_2 W4_2 1_555 1_555
O15_2 W4_2 1_555 1_555
O17_2 W7_2 1_555 1_555
O19_2 W3_2 1_555 1_555
O20_2 W7_2 1_555 1_555
O25_2 W7_2 1_555 1_555
O29_2 W3_2 1_555 1_555
O31_2 W9_2 1_555 1_555
Cu1_2 O15_2 1_555 1_555
Cu4 N6_2 1_555 1_555
C1_2 H1_2 1_555 1_555
C2_2 H2_2 1_555 1_555
C7_2 H11_2 1_555 1_555
C8_2 H12_2 1_555 1_555
C9_2 H13_2 1_555 1_555
C10_2 H14_2 1_555 1_555
C11_2 H15_2 1_555 1_555
H16_2 C11_2 1_555 1_555
C12_2 C11_2 1_555 1_555
H18_2 C12_2 1_555 1_555
C13_2 C12_2 1_555 1_555
H20_2 C13_2 1_555 1_555
C14_2 C13_2 1_555 1_555
H22_2 C14_2 1_555 1_555
C16_2 H24_2 1_555 1_555
C17_2 H25_2 1_555 1_555
C21_2 H31_2 1_555 1_555
C22_2 H32_2 1_555 1_555
C23_2 H33_2 1_555 1_555
H34_2 C23_2 1_555 1_555
C24_2 C23_2 1_555 1_555
H35_2 C24_2 1_555 1_555
H36_2 C24_2 1_555 1_555
N1_2 Cu1_2 1_555 1_555
N2_2 C1_2 1_555 1_555
N3_2 C2_2 1_555 1_555
N5_2 C8_2 1_555 1_555
N6_2 C7_2 1_555 1_555
N7_2 Cu1_2 1_555 1_555
N8_2 C10_2 1_555 1_555
N9_2 C9_2 1_555 1_555
N10_2 C14_2 1_555 1_555
N11_2 C16_2 1_555 1_555
N13_2 Cu4 1_555 1_555
N14_2 C17_2 1_555 1_555
N16_2 Cu4 1_555 1_555
N17_2 C21_2 1_555 1_555
N18_2 C22_2 1_555 1_555
W10_2 O34_2 1_555 1_555
W11_2 O35_2 1_555 1_555
W14_2 O34_2 1_555 1_555
W15_2 O33_2 1_555 1_555
W17_2 O33_2 1_555 1_555
O33_2 P2_2 1_555 1_555
O35_2 W17_2 1_555 1_555
O36_2 W3_2 1_555 1_555
O39_2 W9_2 1_555 1_555
O40_2 W7_2 1_555 1_555
O41_2 W14_2 1_555 1_555
O43_2 W17_2 1_555 1_555
O44_2 W10_2 1_555 1_555
O45_2 P2_2 1_555 1_555
O46_2 W10_2 1_555 1_555
O48_2 W11_2 1_555 1_555
O51_2 W15_2 1_555 1_555
O52_2 W15_2 1_555 1_555
O53_2 W11_2 1_555 1_555
O56_2 W10_2 1_555 1_555
O57_2 W14_2 1_555 1_555
O59_2 P2_2 1_555 1_555
O61_2 W14_2 1_555 1_555
C25_2 H37_2 1_555 1_555
C26_2 H38_2 1_555 1_555
C27_2 H39_2 1_555 1_555
H40_2 C27_2 1_555 1_555
C28_2 C27_2 1_555 1_555
H41_2 C28_2 1_555 1_555
H42_2 C28_2 1_555 1_555
C29_2 C28_2 1_555 1_555
H43_2 C29_2 1_555 1_555
H44_2 C29_2 1_555 1_555
C30_2 C29_2 1_555 1_555
H45_2 C30_2 1_555 1_555
H46_2 C30_2 1_555 1_555
C31_2 H47_2 1_555 1_555
C32_2 H48_2 1_555 1_555
C33_2 H49_2 1_555 1_555
C34_2 H50_2 1_555 1_555
C35_2 H51_2 1_555 1_555
H52_2 C35_2 1_555 1_555
C36_2 C35_2 1_555 1_555
H53_2 C36_2 1_555 1_555
H54_2 C36_2 1_555 1_555
C37_2 C36_2 1_555 1_555
H55_2 C37_2 1_555 1_555
H56_2 C37_2 1_555 1_555
C38_2 C37_2 1_555 1_555
H57_2 C38_2 1_555 1_555
H58_2 C38_2 1_555 1_555
N19_2 Cu1_2 1_555 1_555
N20_2 C25_2 1_555 1_555
N21_2 C26_2 1_555 1_555
N22_2 C30_2 1_555 1_555
N23_2 C32_2 1_555 1_555
N24_2 C31_2 1_555 1_555
N25_2 Cu1_2 1_555 1_555
N26_2 C34_2 1_555 1_555
N27_2 C33_2 1_555 1_555
N28_2 C38_2 1_555 1_555
C41_2 H61_2 1_555 1_555
N31_2 C41_2 1_555 1_555
N32_2 C41_2 1_555 1_555
Cu5_2 N31_2 1_555 1_555
O62_2 Cu1_2 1_555 1_555
W19_2 O62_2 1_555 1_555
O66_2 Cu4 1_555 1_555
O67_2 Cu5_2 1_555 1_555
Cu7 O29_2 1_555 1_555
N37_2 Cu5_2 1_555 1_555
N39_2 Cu5_2 1_555 1_555
W4_2 O19_2 1_555 1_555
W7_2 O11_2 1_555 1_555
W9_2 O20_2 1_555 1_555
W9_2 O24_2 1_555 1_555
C1_2 N1_2 1_555 1_555
C2_2 N1_2 1_555 1_555
C7_2 N4_2 1_555 1_555
C8_2 N6_2 1_555 1_555
C9_2 N7_2 1_555 1_555
C10_2 N7_2 1_555 1_555
C11_2 N9_2 1_555 1_555
C17_2 N13_2 1_555 1_555
C21_2 N16_2 1_555 1_555
C22_2 N16_2 1_555 1_555
C23_2 N18_2 1_555 1_555
N2_2 N3_2 1_555 1_555
N4_2 N5_2 1_555 1_555
N8_2 N9_2 1_555 1_555
N10_2 N11_2 1_555 1_555
N17_2 N18_2 1_555 1_555
W10_2 O40_2 1_555 1_555
W10_2 O45_2 1_555 1_555
W11_2 O36_2 1_555 1_555
W11_2 O56_2 1_555 1_555
W11_2 O59_2 1_555 1_555
W14_2 O39_2 1_555 1_555
W14_2 O45_2 1_555 1_555
W15_2 O41_2 1_555 1_555
W17_2 O37_2 1_555 1_555
W17_2 O44_2 1_555 1_555
W17_2 O51_2 1_555 1_555
C25_2 N19_2 1_555 1_555
C26_2 N19_2 1_555 1_555
C27_2 N21_2 1_555 1_555
C31_2 N22_2 1_555 1_555
C32_2 N24_2 1_555 1_555
C33_2 N25_2 1_555 1_555
C34_2 N25_2 1_555 1_555
C35_2 N27_2 1_555 1_555
N20_2 N21_2 1_555 1_555
N22_2 N23_2 1_555 1_555
N24_2 Cu7 1_555 1_555
N26_2 N27_2 1_555 1_555
C15_2 H23_2 1_555 1_555
C18_2 H26_2 1_555 1_555
C19_2 H27_2 1_555 1_555
H28_2 C19_2 1_555 1_555
C20_2 C19_2 1_555 1_555
H29_2 C20_2 1_555 1_555
H30_2 C20_2 1_555 1_555
N12_2 C15_2 1_555 1_555
N15_2 C18_2 1_555 1_555
C42_2 H62_2 1_555 1_555
C43_2 H63_2 1_555 1_555
H64_2 C43_2 1_555 1_555
C44_2 C20_2 1_555 1_555
H65_2 C44_2 1_555 1_555
H66_2 C44_2 1_555 1_555
N33_2 C42_2 1_555 1_555
Cu8 N12_2 1_555 1_555
C19_2 N15_2 1_555 1_555
C43_2 C44_2 1_555 1_555
C43_2 N33_2 1_555 1_555
C15_3 H23_3 1_555 1_555
C16_3 H24_3 1_555 1_555
N11_3 C16_3 1_555 1_555
N12_3 C15_3 1_555 1_555
C27_3 H39_3 1_555 1_555
H40_3 C27_3 1_555 1_555
C28_3 C27_3 1_555 1_555
H41_3 C28_3 1_555 1_555
H42_3 C28_3 1_555 1_555
C29_3 C28_3 1_555 1_555
H43_3 C29_3 1_555 1_555
H44_3 C29_3 1_555 1_555
C30_3 C29_3 1_555 1_555
H45_3 C30_3 1_555 1_555
H46_3 C30_3 1_555 1_555
Cu9 N12_3 1_555 1_555
C16_3 N12_3 1_555 1_555
C39_3 H59_3 1_555 1_555
N39_2 C39_3 1_555 1_555
Cu1_3 O63 1_555 1_555
C9_3 H13_3 1_555 1_555
C10_3 H14_3 1_555 1_555
C11_3 H15_3 1_555 1_555
H16_3 C11_3 1_555 1_555
C12_3 C11_3 1_555 1_555
H17_3 C12_3 1_555 1_555
H18_3 C12_3 1_555 1_555
C13_3 C12_3 1_555 1_555
H19_3 C13_3 1_555 1_555
H20_3 C13_3 1_555 1_555
C14_3 C13_3 1_555 1_555
H21_3 C14_3 1_555 1_555
H22_3 C14_3 1_555 1_555
N7_3 Cu1_3 1_555 1_555
N8_3 C10_3 1_555 1_555
N9_3 C9_3 1_555 1_555
N10_3 C14_3 1_555 1_555
C25_3 H37_3 1_555 1_555
C26_3 H38_3 1_555 1_555
C31_3 H47_3 1_555 1_555
C32_3 H48_3 1_555 1_555
N19_3 Cu1_3 1_555 1_555
N20_3 C25_3 1_555 1_555
N21_3 C26_3 1_555 1_555
N23_3 C32_3 1_555 1_555
N24_3 C31_3 1_555 1_555
C9_3 N7_3 1_555 1_555
C10_3 N7_3 1_555 1_555
C11_3 N9_3 1_555 1_555
N8_3 N9_3 1_555 1_555
C25_3 N19_3 1_555 1_555
C26_3 N19_3 1_555 1_555
C31_3 N22_3 1_555 1_555
C32_3 N24_3 1_555 1_555
N20_3 N21_3 1_555 1_555
N22_3 N23_3 1_555 1_555
N24_3 Cu10 1_555 1_555
C1_3 H1_3 1_555 1_555
C2_3 H2_3 1_555 1_555
C3_3 H3_3 1_555 1_555
H4_3 C3_3 1_555 1_555
C4_3 C3_3 1_555 1_555
H5_3 C4_3 1_555 1_555
H6_3 C4_3 1_555 1_555
C5_3 C4_3 1_555 1_555
H7_3 C5_3 1_555 1_555
H8_3 C5_3 1_555 1_555
C6_3 C5_3 1_555 1_555
H9_3 C6_3 1_555 1_555
H10_3 C6_3 1_555 1_555
C7_3 H11_3 1_555 1_555
C8_3 H12_3 1_555 1_555
N1_3 Cu1_4 1_555 1_555
N2_3 C1_3 1_555 1_555
N3_3 C2_3 1_555 1_555
N4_3 C6_3 1_555 1_555
N5_3 C8_3 1_555 1_555
N37 C7_3 1_555 1_555
C33_3 H49_3 1_555 1_555
C34_3 H50_3 1_555 1_555
C35_3 H51_3 1_555 1_555
H52_3 C35_3 1_555 1_555
C36_3 C35_3 1_555 1_555
H54_3 C36_3 1_555 1_555
C37_3 C36_3 1_555 1_555
H56_3 C37_3 1_555 1_555
C38_3 C37_3 1_555 1_555
H58_3 C38_3 1_555 1_555
C40_3 H60_3 1_555 1_555
N25_3 Cu1_4 1_555 1_555
N26_3 C34_3 1_555 1_555
N27_3 C33_3 1_555 1_555
N28_3 C38_3 1_555 1_555
N29_3 C40_3 1_555 1_555
O62_3 Cu1_4 1_555 1_555
W19_3 O62_3 1_555 1_555
C1_3 N1_3 1_555 1_555
C2_3 N1_3 1_555 1_555
C3_3 N3_3 1_555 1_555
C7_3 N4_3 1_555 1_555
C8_3 N37 1_555 1_555
N2_3 N3_3 1_555 1_555
N4_3 N5_3 1_555 1_555
C33_3 N25_3 1_555 1_555
C34_3 N25_3 1_555 1_555
C35_3 N27_3 1_555 1_555
N26_3 N27_3 1_555 1_555
N28_3 N29_3 1_555 1_555
Cu1_5 O63_2 1_555 1_555
C9_4 H13_4 1_555 1_555
C10_4 H14_4 1_555 1_555
C11_4 H15_4 1_555 1_555
H16_4 C11_4 1_555 1_555
C12_4 C11_4 1_555 1_555
H18_4 C12_4 1_555 1_555
C13_4 C12_4 1_555 1_555
H20_4 C13_4 1_555 1_555
C14_4 C13_4 1_555 1_555
H22_4 C14_4 1_555 1_555
C16_4 H24_4 1_555 1_555
N7_4 Cu1_5 1_555 1_555
N8_4 C10_4 1_555 1_555
N9_4 C9_4 1_555 1_555
N10_4 C14_4 1_555 1_555
N11_4 C16_4 1_555 1_555
C25_4 H37_4 1_555 1_555
C26_4 H38_4 1_555 1_555
C27_4 H39_4 1_555 1_555
H40_4 C27_4 1_555 1_555
C28_4 C27_4 1_555 1_555
H41_4 C28_4 1_555 1_555
H42_4 C28_4 1_555 1_555
C29_4 C28_4 1_555 1_555
H43_4 C29_4 1_555 1_555
H44_4 C29_4 1_555 1_555
C30_4 C29_4 1_555 1_555
H45_4 C30_4 1_555 1_555
H46_4 C30_4 1_555 1_555
C31_4 H47_4 1_555 1_555
C32_4 H48_4 1_555 1_555
N19_4 Cu1_5 1_555 1_555
N20_4 C25_4 1_555 1_555
N21_4 C26_4 1_555 1_555
N22_4 C30_4 1_555 1_555
N23_4 C32_4 1_555 1_555
N24_4 C31_4 1_555 1_555
C9_4 N7_4 1_555 1_555
C10_4 N7_4 1_555 1_555
C11_4 N9_4 1_555 1_555
N8_4 N9_4 1_555 1_555
N10_4 N11_4 1_555 1_555
C25_4 N19_4 1_555 1_555
C26_4 N19_4 1_555 1_555
C27_4 N21_4 1_555 1_555
C31_4 N22_4 1_555 1_555
C32_4 N24_4 1_555 1_555
N20_4 N21_4 1_555 1_555
N22_4 N23_4 1_555 1_555
N24_4 Cu9 1_555 1_555
C1_4 H1_4 1_555 1_555
C2_4 H2_4 1_555 1_555
C7_4 H11_4 1_555 1_555
C8_4 H12_4 1_555 1_555
N1_4 Cu1_6 1_555 1_555
N2_4 C1_4 1_555 1_555
N3_4 C2_4 1_555 1_555
N5_4 C8_4 1_555 1_555
N37_2 C7_4 1_555 1_555
C33_4 H49_4 1_555 1_555
C34_4 H50_4 1_555 1_555
C35_4 H51_4 1_555 1_555
H52_4 C35_4 1_555 1_555
C36_4 C35_4 1_555 1_555
H53_4 C36_4 1_555 1_555
H54_4 C36_4 1_555 1_555
C37_4 C36_4 1_555 1_555
H55_4 C37_4 1_555 1_555
H56_4 C37_4 1_555 1_555
C38_4 C37_4 1_555 1_555
H57_4 C38_4 1_555 1_555
H58_4 C38_4 1_555 1_555
N25_4 Cu1_6 1_555 1_555
N26_4 C34_4 1_555 1_555
N27_4 C33_4 1_555 1_555
N28_4 C38_4 1_555 1_555
O62_4 Cu1_6 1_555 1_555
W19_4 O62_4 1_555 1_555
C1_4 N1_4 1_555 1_555
C2_4 N1_4 1_555 1_555
C7_4 N4_4 1_555 1_555
C8_4 N37_2 1_555 1_555
N2_4 N3_4 1_555 1_555
N4_4 N5_4 1_555 1_555
C33_4 N25_4 1_555 1_555
C34_4 N25_4 1_555 1_555
C35_4 N27_4 1_555 1_555
N26_4 N27_4 1_555 1_555
C15_4 H23_4 1_555 1_555
N12_4 C15_4 1_555 1_555
Cu10 N12_4 1_555 1_555
C3_4 H3_4 1_555 1_555
H4_4 C3_4 1_555 1_555
C4_4 C3_4 1_555 1_555
H5_4 C4_4 1_555 1_555
H6_4 C4_4 1_555 1_555
C5_4 C4_4 1_555 1_555
H7_4 C5_4 1_555 1_555
H8_4 C5_4 1_555 1_555
C6_4 C5_4 1_555 1_555
H9_4 C6_4 1_555 1_555
H10_4 C6_4 1_555 1_555
C39_4 H59_4 1_555 1_555
C40_4 H60_4 1_555 1_555
N29_4 C40_4 1_555 1_555
N39 C39_4 1_555 1_555
C40_4 N39 1_555 1_555
C41_3 H61_3 1_555 1_555
C42_3 H62_3 1_555 1_555
C43_3 H63_3 1_555 1_555
H64_3 C43_3 1_555 1_555
H65_3 C44_3 1_555 1_555
H66_3 C44_3 1_555 1_555
N31_3 C41_3 1_555 1_555
N32_3 C41_3 1_555 1_555
N33_3 C42_3 1_555 1_555
Cu9 N31_3 1_555 1_555
N40 Cu9 1_555 1_555
C42_3 N31_3 1_555 1_555
C43_3 C44_3 1_555 1_555
C43_3 N33_3 1_555 1_555
N32_3 N33_3 1_555 1_555
P1_3 O1_3 1_555 1_555
W1_3 O3_3 1_555 1_555
W2_3 O4_3 1_555 1_555
W3_3 O17_3 1_555 1_555
W19_2 O2_3 1_555 1_555
W5_3 O3_3 1_555 1_555
W6_3 O2_3 1_555 1_555
W7_3 O1_3 1_555 1_555
W8_3 O2_3 1_555 1_555
W9_3 O1_3 1_555 1_555
O2_3 P1_3 1_555 1_555
O4_3 W8_3 1_555 1_555
O5_3 W2_3 1_555 1_555
O6_3 W19_2 1_555 1_555
O7_3 W19_2 1_555 1_555
O8_3 W5_3 1_555 1_555
O9_3 W1_3 1_555 1_555
O10_3 W5_3 1_555 1_555
O11_3 W19_2 1_555 1_555
O12_3 W8_3 1_555 1_555
O13_3 W1_3 1_555 1_555
O14_3 P1_3 1_555 1_555
O16_3 W1_3 1_555 1_555
O17_3 W7_3 1_555 1_555
O18_3 W2_3 1_555 1_555
O19_3 W3_3 1_555 1_555
O20_3 W7_3 1_555 1_555
O21_3 W6_3 1_555 1_555
O22_3 W6_3 1_555 1_555
O23_3 W2_3 1_555 1_555
O24_3 W6_3 1_555 1_555
O25_3 W7_3 1_555 1_555
O64 W5_3 1_555 1_555
O27_3 W1_3 1_555 1_555
O28_3 W5_3 1_555 1_555
O66_2 W3_3 1_555 1_555
O30_3 P1_3 1_555 1_555
O31_3 W9_3 1_555 1_555
C17_3 H25_3 1_555 1_555
C18_3 H26_3 1_555 1_555
C19_3 H27_3 1_555 1_555
H28_3 C19_3 1_555 1_555
C20_3 C19_3 1_555 1_555
H29_3 C20_3 1_555 1_555
H30_3 C20_3 1_555 1_555
C21_3 H31_3 1_555 1_555
C22_3 H32_3 1_555 1_555
C23_3 H33_3 1_555 1_555
H34_3 C23_3 1_555 1_555
C24_3 C23_3 1_555 1_555
H35_3 C24_3 1_555 1_555
H36_3 C24_3 1_555 1_555
N13_3 Cu7 1_555 1_555
N14_3 C17_3 1_555 1_555
N15_3 C18_3 1_555 1_555
N16_3 Cu7 1_555 1_555
N17_3 C21_3 1_555 1_555
N18_3 C22_3 1_555 1_555
P2_3 O32_3 1_555 1_555
W10_3 O34_3 1_555 1_555
W11_3 O35_3 1_555 1_555
W12_3 O5_3 1_555 1_555
W19_4 O33_3 1_555 1_555
W14_3 O34_3 1_555 1_555
W15_3 O33_3 1_555 1_555
W16_3 O9_3 1_555 1_555
W17_3 O33_3 1_555 1_555
W18_3 O8_3 1_555 1_555
O32_3 W16_3 1_555 1_555
O33_3 P2_3 1_555 1_555
O35_3 W17_3 1_555 1_555
O36_3 W3_3 1_555 1_555
O37_3 W19_4 1_555 1_555
O38_3 W19_4 1_555 1_555
O39_3 W9_3 1_555 1_555
O40_3 W7_3 1_555 1_555
O41_3 W14_3 1_555 1_555
O42_3 W19_4 1_555 1_555
O43_3 W17_3 1_555 1_555
O44_3 W10_3 1_555 1_555
O45_3 P2_3 1_555 1_555
O46_3 W10_3 1_555 1_555
O47_3 W12_3 1_555 1_555
O48_3 W11_3 1_555 1_555
O49_3 W12_3 1_555 1_555
O50_3 W16_3 1_555 1_555
O51_3 W15_3 1_555 1_555
O52_3 W15_3 1_555 1_555
O53_3 W11_3 1_555 1_555
O54_3 W15_3 1_555 1_555
O55_3 W16_3 1_555 1_555
O56_3 W10_3 1_555 1_555
O57_3 W14_3 1_555 1_555
O67_2 W12_3 1_555 1_555
O59_3 P2_3 1_555 1_555
O60_3 W18_3 1_555 1_555
O65 W14_3 1_555 1_555
C45_3 H67_3 1_555 1_555
C46_3 H68_3 1_555 1_555
C47_3 H69_3 1_555 1_555
H70_3 C47_3 1_555 1_555
C48_3 C24_3 1_555 1_555
H71_3 C48_3 1_555 1_555
H72_3 C48_3 1_555 1_555
N40 C45_3 1_555 1_555
N35_3 C45_3 1_555 1_555
N36_3 C46_3 1_555 1_555
W1_3 O14_3 1_555 1_555
W2_3 O27_3 1_555 1_555
W2_3 O30_3 1_555 1_555
W3_3 O18_3 1_555 1_555
W3_3 O30_3 1_555 1_555
W19_2 O19_3 1_555 1_555
W5_3 O14_3 1_555 1_555
W6_3 O7_3 1_555 1_555
W6_3 O10_3 1_555 1_555
W7_3 O11_3 1_555 1_555
W8_3 O6_3 1_555 1_555
W8_3 O13_3 1_555 1_555
W8_3 O21_3 1_555 1_555
W9_3 O20_3 1_555 1_555
W9_3 O24_3 1_555 1_555
W9_3 O28_3 1_555 1_555
C17_3 N13_3 1_555 1_555
C18_3 N13_3 1_555 1_555
C19_3 N15_3 1_555 1_555
C21_3 N16_3 1_555 1_555
C22_3 N16_3 1_555 1_555
C23_3 N18_3 1_555 1_555
N14_3 N15_3 1_555 1_555
N17_3 N18_3 1_555 1_555
W10_3 O40_3 1_555 1_555
W10_3 O45_3 1_555 1_555
W11_3 O36_3 1_555 1_555
W11_3 O56_3 1_555 1_555
W11_3 O59_3 1_555 1_555
W12_3 O48_3 1_555 1_555
W12_3 O59_3 1_555 1_555
W19_4 O49_3 1_555 1_555
W14_3 O39_3 1_555 1_555
W14_3 O45_3 1_555 1_555
W15_3 O38_3 1_555 1_555
W15_3 O41_3 1_555 1_555
W16_3 O42_3 1_555 1_555
W16_3 O47_3 1_555 1_555
W17_3 O37_3 1_555 1_555
W17_3 O44_3 1_555 1_555
W17_3 O51_3 1_555 1_555
W18_3 O32_3 1_555 1_555
W18_3 O50_3 1_555 1_555
W18_3 O54_3 1_555 1_555
W18_3 O57_3 1_555 1_555
C46_3 N40 1_555 1_555
C47_3 C48_3 1_555 1_555
C47_3 N36_3 1_555 1_555
N35_3 N36_3 1_555 1_555
C18_4 H26_4 1_555 1_555
C19_4 H27_4 1_555 1_555
H28_4 C19_4 1_555 1_555
C20_4 C19_4 1_555 1_555
H29_4 C20_4 1_555 1_555
H30_4 C20_4 1_555 1_555
N15_4 C18_4 1_555 1_555
C42_4 H62_4 1_555 1_555
C43_4 H63_4 1_555 1_555
H64_4 C43_4 1_555 1_555
C44_4 C20_4 1_555 1_555
H65_4 C44_4 1_555 1_555
H66_4 C44_4 1_555 1_555
N33_4 C42_4 1_555 1_555
C19_4 N15_4 1_555 1_555
C43_4 C44_4 1_555 1_555
C43_4 N33_4 1_555 1_555
W3_4 O17_4 1_555 1_555
W7_4 O1_4 1_555 1_555
W9_4 O1_4 1_555 1_555
O7_4 W19 1_555 1_555
O11_4 W19 1_555 1_555
O17_4 W7_4 1_555 1_555
O19_4 W3_4 1_555 1_555
O20_4 W7_4 1_555 1_555
O25_4 W7_4 1_555 1_555
O66 W3_4 1_555 1_555
O31_4 W9_4 1_555 1_555
C17_4 H25_4 1_555 1_555
C21_4 H31_4 1_555 1_555
C22_4 H32_4 1_555 1_555
C23_4 H33_4 1_555 1_555
H34_4 C23_4 1_555 1_555
C24_4 C23_4 1_555 1_555
H35_4 C24_4 1_555 1_555
H36_4 C24_4 1_555 1_555
N13_4 Cu8 1_555 1_555
N14_4 C17_4 1_555 1_555
N16_4 Cu8 1_555 1_555
N17_4 C21_4 1_555 1_555
N18_4 C22_4 1_555 1_555
W10_4 O34_4 1_555 1_555
W11_4 O35_4 1_555 1_555
W14_4 O34_4 1_555 1_555
W15_4 O33_4 1_555 1_555
W17_4 O33_4 1_555 1_555
O33_4 P2_4 1_555 1_555
O35_4 W17_4 1_555 1_555
O36_4 W3_4 1_555 1_555
O39_4 W9_4 1_555 1_555
O40_4 W7_4 1_555 1_555
O41_4 W14_4 1_555 1_555
O43_4 W17_4 1_555 1_555
O44_4 W10_4 1_555 1_555
O45_4 P2_4 1_555 1_555
O46_4 W10_4 1_555 1_555
O48_4 W11_4 1_555 1_555
O51_4 W15_4 1_555 1_555
O52_4 W15_4 1_555 1_555
O53_4 W11_4 1_555 1_555
O56_4 W10_4 1_555 1_555
O57_4 W14_4 1_555 1_555
O59_4 P2_4 1_555 1_555
O65_2 W14_4 1_555 1_555
C41_4 H61_4 1_555 1_555
N31_4 C41_4 1_555 1_555
N32_4 C41_4 1_555 1_555
Cu10 N31_4 1_555 1_555
N40_2 Cu10 1_555 1_555
W19 O19_4 1_555 1_555
W7_4 O11_4 1_555 1_555
W9_4 O20_4 1_555 1_555
W9_4 O24_4 1_555 1_555
C17_4 N13_4 1_555 1_555
C21_4 N16_4 1_555 1_555
C22_4 N16_4 1_555 1_555
C23_4 N18_4 1_555 1_555
N17_4 N18_4 1_555 1_555
W10_4 O40_4 1_555 1_555
W10_4 O45_4 1_555 1_555
W11_4 O36_4 1_555 1_555
W11_4 O56_4 1_555 1_555
W11_4 O59_4 1_555 1_555
W14_4 O39_4 1_555 1_555
W14_4 O45_4 1_555 1_555
W15_4 O41_4 1_555 1_555
W17_4 O37_4 1_555 1_555
W17_4 O44_4 1_555 1_555
W17_4 O51_4 1_555 1_555
W1_4 O3_4 1_555 1_555
W2_4 O4_4 1_555 1_555
W5_4 O3_4 1_555 1_555
W6_4 O2_4 1_555 1_555
W8_4 O2_4 1_555 1_555
O2_4 P1_4 1_555 1_555
O4_4 W8_4 1_555 1_555
O5_4 W2_4 1_555 1_555
O8_4 W5_4 1_555 1_555
O9_4 W1_4 1_555 1_555
O10_4 W5_4 1_555 1_555
O12_4 W8_4 1_555 1_555
O13_4 W1_4 1_555 1_555
O14_4 P1_4 1_555 1_555
O16_4 W1_4 1_555 1_555
O18_4 W2_4 1_555 1_555
O21_4 W6_4 1_555 1_555
O22_4 W6_4 1_555 1_555
O23_4 W2_4 1_555 1_555
O64_2 W5_4 1_555 1_555
O27_4 W1_4 1_555 1_555
O28_4 W5_4 1_555 1_555
O30_4 P1_4 1_555 1_555
W12_4 O5_4 1_555 1_555
W16_4 O9_4 1_555 1_555
W18_4 O8_4 1_555 1_555
O32_4 W16_4 1_555 1_555
O38_4 W19_3 1_555 1_555
O42_4 W19_3 1_555 1_555
O47_4 W12_4 1_555 1_555
O49_4 W12_4 1_555 1_555
O50_4 W16_4 1_555 1_555
O55_4 W16_4 1_555 1_555
O67 W12_4 1_555 1_555
O60_4 W18_4 1_555 1_555
C45_4 H67_4 1_555 1_555
C46_4 H68_4 1_555 1_555
C47_4 H69_4 1_555 1_555
H70_4 C47_4 1_555 1_555
H71_4 C48_4 1_555 1_555
H72_4 C48_4 1_555 1_555
N40_2 C45_4 1_555 1_555
N35_4 C45_4 1_555 1_555
N36_4 C46_4 1_555 1_555
W1_4 O14_4 1_555 1_555
W2_4 O27_4 1_555 1_555
W2_4 O30_4 1_555 1_555
W5_4 O14_4 1_555 1_555
W6_4 O10_4 1_555 1_555
W8_4 O6_4 1_555 1_555
W8_4 O13_4 1_555 1_555
W8_4 O21_4 1_555 1_555
W19_3 O49_4 1_555 1_555
W16_4 O42_4 1_555 1_555
W16_4 O47_4 1_555 1_555
W18_4 O32_4 1_555 1_555
W18_4 O50_4 1_555 1_555
W18_4 O54_4 1_555 1_555
C46_4 N40_2 1_555 1_555
C47_4 C48_4 1_555 1_555
C47_4 N36_4 1_555 1_555
N35_4 N36_4 1_555 1_555

#END
