
###############################################################################
#
# This file contains modified crystal structure data generated from the
# MOF subset of the Cambridge Structural Database (CSD) v543 
# hosted by the Cambridge Crystallographic Data Centre (CCDC).
#
# This work is licensed under the Creative Commons
# Attribution-NonCommercial-ShareAlike 4.0 International License.
# To view a copy of this license, visit
# http://creativecommons.org/licenses/by-nc-sa/4.0/
# or send a letter to
# Creative Commons, PO Box 1866, Mountain View, CA 94042, USA.
#
# CIF created using the CSD Python API on 29 September 2022
# The structure has been converted into the P1 space group
# The structure has a 3D framework
# The original CSD entry MOFNED is in the tetragonal crystal system
# The framework has been calculated to contain at least 10.0% void space
# The void calculation uses a probe of radius 1.32A, grid spacing 0.4
#
###############################################################################

data_MOFNED
_chemical_formula_moiety         '(C640 H240 Cl64 N32 O188 Zr28)n'
_symmetry_cell_setting           triclinic
_symmetry_space_group_name_H-M   'P 1'
_symmetry_Int_Tables_number      1
_space_group_name_Hall           'P 1'
loop_
_symmetry_equiv_pos_site_id
_symmetry_equiv_pos_as_xyz
1 x,y,z
_cell_length_a                   18.085(3)
_cell_length_b                   18.085(3)
_cell_length_c                   86.656(12)
_cell_angle_alpha                90
_cell_angle_beta                 90
_cell_angle_gamma                90
_cell_volume                     28342.3
loop_
_atom_site_label
_atom_site_type_symbol
_atom_site_fract_x
_atom_site_fract_y
_atom_site_fract_z
Zr5 Zr -0.0000 0.2500 0.15356(2)
Cl3 Cl 0.43075(9) 0.02832(8) 0.27442(2)
O2 O 0.16858(18) 0.14773(18) 0.14755(4)
O5 O 0.08961(19) 0.1889(2) 0.16562(4)
O10 O 0.3290(3) 0.0877(3) 0.21865(6)
C15 C 0.1443(3) 0.1519(3) 0.16122(6)
C17 C 0.1840(3) 0.1071(3) 0.17352(6)
C19 C 0.2544(3) 0.0851(4) 0.17155(7)
H2 H 0.2805 0.0983 0.1627
C20 C 0.3211(3) 0.0216(3) 0.21953(7)
C21 C 0.3732(3) 0.0169(3) 0.24602(7)
H3 H 0.3849 0.0667 0.2451
C26 C 0.1454(3) 0.0888(4) 0.18660(6)
H5 H 0.0970 0.1053 0.1879
C30 C 0.1780(3) 0.0463(4) 0.19772(7)
H7 H 0.1518 0.0319 0.2064
C32 C 0.2880(3) 0.0414(4) 0.18324(7)
H9 H 0.3362 0.0243 0.1821
C33 C 0.2501(3) 0.0255(4) 0.19570(7)
Zr8 Zr 0.11779(3) 0.17985(3) 0.12504(2)
C1 C 0.6128(3) 0.3848(3) 0.02602(6)
Zr2 Zr 0.07015(3) 0.36779(3) 0.12496(2)
Cl2 Cl 0.72406(8) 0.45901(10) 0.04142(2)
Cl3_2 Cl 0.77832(8) 0.31925(9) 0.02442(2)
O4 O 0.22402(19) 0.23973(19) 0.12424(4)
O6 O 0.1942(2) 0.3614(2) 0.12323(4)
O8 O 0.3230(2) 0.2864(2) 0.05351(5)
O9 O 0.0509(2) 0.3382(2) 0.16719(5)
O11 O 0.1012(2) 0.4229(2) 0.14688(5)
O12 O 0.5136(2) 0.3865(3) 0.08076(5)
N1 N 0.4207(2) 0.3365(3) 0.06710(6)
C3 C 0.5359(3) 0.3666(2) 0.02542(6)
C4 C 0.5007(3) 0.3602(2) 0.01095(6)
C7 C 0.4985(3) 0.3560(2) 0.03940(7)
C10 C 0.4255(3) 0.3270(3) 0.03870(7)
C12 C 0.6546(3) 0.3810(3) 0.01127(6)
C13 C 0.4326(3) 0.3228(3) 0.01101(7)
C14 C 0.2320(3) 0.3065(3) 0.11914(7)
C16 C 0.2889(3) 0.3165(3) 0.10671(7)
C22 C 0.7300(3) 0.3630(3) 0.00983(7)
C23 C 0.3950(3) 0.3078(2) 0.02461(7)
H4 H 0.3491 0.2847 0.0243
C24 C 0.4899(3) 0.3675(3) 0.06816(7)
C25 C 0.6413(3) 0.4118(3) 0.04021(7)
C27 C 0.5302(3) 0.3756(3) 0.05328(7)
C29 C 0.5986(3) 0.4053(3) 0.05377(7)
H6 H 0.6177 0.4217 0.0631
C31 C 0.3324(3) 0.2582(4) 0.10230(8)
H8 H 0.3311 0.2140 0.1078
C34 C 0.3382(3) 0.3901(4) 0.08577(8)
H10 H 0.3431 0.4350 0.0806
C35 C 0.3774(3) 0.3287(3) 0.08112(7)
C36 C 0.2903(3) 0.3829(3) 0.09862(7)
H11 H 0.2601 0.4221 0.1016
C37 C 0.3779(3) 0.2659(4) 0.08966(8)
H12 H 0.4095 0.2274 0.0869
C38 C 0.3841(3) 0.3144(3) 0.05325(7)
C39 C 0.0835(4) 0.4008(4) 0.16169(7)
C40 C 0.1038(5) 0.4554(5) 0.17449(9)
H13 H 0.0594 0.4752 0.1790
H14 H 0.1327 0.4950 0.1702
H15 H 0.1318 0.4304 0.1823
O13 O 0.02003(16) 0.16859(17) 0.13716(3)
O15 O 0.10505(16) 0.27863(17) 0.14121(3)
O25 O 0.08141(17) 0.27003(16) 0.11284(3)
O28 O 0.10227(18) 0.41858(18) 0.10245(4)
O30 O 0.02863(17) 0.14495(16) 0.10879(3)
O32 O 0.01027(19) 0.47402(19) 0.12576(4)
Zr1 Zr -0.0000 0.2500 0.09644(2)
H8_2 H 0.0360 0.5811 0.1422
H12_2 H 0.0226 0.6595 0.1631
O18 O 0.1114(2) 0.0558(2) 0.12677(4)
O21 O 0.0882(2) 0.1991(2) 0.08281(5)
O23 O 0.1729(2) 0.1488(2) 0.10312(5)
C54 C 0.0565(3) 0.0180(3) 0.13086(7)
C79 C 0.1508(4) 0.1665(4) 0.08831(7)
C80 C 0.2054(5) 0.1462(5) 0.07551(9)
H28 H 0.2252 0.1906 0.0710
H29 H 0.2450 0.1173 0.0798
H30 H 0.1804 0.1182 0.0677
O33 O 0.0611(2) 0.33961(19) 0.08438(4)
Cl1 Cl 0.60502(8) 0.71562(7) 0.00543(2)
C2 C 0.2700(3) 0.5922(3) 0.01633(7)
Cl4 Cl 0.59326(7) 0.55651(7) 0.01523(2)
O7 O 0.3746(2) 0.4930(2) 0.05279(5)
O10_2 O 0.1623(3) 0.5790(3) 0.03135(6)
C5 C 0.4985(3) 0.5750(2) 0.01510(7)
C6 C 0.4624(3) 0.6050(2) 0.00229(6)
N2 N 0.2685(3) 0.5342(3) 0.04184(6)
C8 C 0.3461(3) 0.5820(3) 0.01582(7)
C9 C 0.3854(3) 0.6039(2) 0.00211(7)
C11 C 0.3853(3) 0.5540(3) 0.02855(6)
C15_2 C 0.0981(3) 0.3943(3) 0.08878(6)
C17_2 C 0.1429(3) 0.4340(3) 0.07648(6)
C18 C 0.4629(3) 0.5465(3) 0.02778(7)
H1 H 0.4890 0.5230 0.0356
C19_2 C 0.1649(4) 0.5044(3) 0.07845(7)
H2_2 H 0.1517 0.5305 0.0873
C20_2 C 0.2284(3) 0.5711(3) 0.03047(7)
C21_2 C 0.2331(3) 0.6232(3) 0.00398(7)
H3_2 H 0.1833 0.6349 0.0049
C26_2 C 0.1612(4) 0.3954(3) 0.06340(6)
H5_2 H 0.1447 0.3470 0.0621
C28 C 0.3445(4) 0.5264(3) 0.04224(7)
C30_2 C 0.2037(4) 0.4280(3) 0.05228(7)
H7_2 H 0.2181 0.4018 0.0436
C32_2 C 0.2086(4) 0.5380(3) 0.06676(7)
H9_2 H 0.2257 0.5862 0.0679
C33_2 C 0.2245(4) 0.5001(3) 0.05430(7)
Zr1_2 Zr 0.5000 0.2500 0.40356(2)
C1_2 C 0.3652(3) 0.8628(3) 0.27602(6)
Cl1_2 Cl 0.46562(7) 0.64498(8) 0.24457(2)
Zr2_2 Zr 0.38221(3) 0.32015(3) 0.37496(2)
C2_2 C 0.3422(3) 0.9800(3) 0.23367(7)
Cl2_2 Cl 0.29099(10) 0.97406(8) 0.29142(2)
O1 O 0.41859(17) 0.22997(16) 0.38716(3)
Cl4_2 Cl 0.30651(7) 0.65674(7) 0.23477(2)
O3 O 0.52863(17) 0.14495(16) 0.39121(3)
O4_2 O 0.51027(19) 0.47402(19) 0.37424(4)
O6_2 O 0.3886(2) 0.4442(2) 0.37323(4)
O7_2 O 0.2430(2) 0.8754(2) 0.19721(5)
O8_2 O 0.4636(2) 0.5730(2) 0.30351(5)
O9_2 O 0.4118(2) 0.3009(2) 0.41719(5)
O11_2 O 0.3271(2) 0.3512(2) 0.39688(5)
O12_2 O 0.3635(3) 0.7636(2) 0.33076(5)
N1_2 N 0.4135(3) 0.6707(2) 0.31710(6)
C3_2 C 0.3834(2) 0.7859(3) 0.27542(6)
C4_2 C 0.3898(2) 0.7507(3) 0.26095(6)
C5_2 C 0.3250(2) 0.7515(3) 0.23490(7)
C6_2 C 0.3550(2) 0.7876(3) 0.24771(6)
N2_2 N 0.2842(3) 0.9815(3) 0.20816(6)
C7_2 C 0.3940(2) 0.7485(3) 0.28940(7)
C8_2 C 0.3320(3) 0.9039(3) 0.23418(7)
C9_2 C 0.3539(2) 0.8646(3) 0.24789(7)
C10_2 C 0.4230(3) 0.6755(3) 0.28870(7)
C11_2 C 0.3040(3) 0.8647(3) 0.22145(6)
C12_2 C 0.3690(3) 0.9046(3) 0.26127(6)
C13_2 C 0.4272(3) 0.6826(3) 0.26101(7)
C14_2 C 0.4435(3) 0.4820(3) 0.36914(7)
C16_2 C 0.4335(3) 0.5389(3) 0.35671(7)
C18_2 C 0.2965(3) 0.7871(3) 0.22222(7)
H1_2 H 0.2730 0.7610 0.2144
C22_2 C 0.3870(3) 0.9800(3) 0.25983(7)
C23_2 C 0.4422(2) 0.6450(3) 0.27461(7)
H4_2 H 0.4653 0.5991 0.2743
C24_2 C 0.3825(3) 0.7399(3) 0.31816(7)
C25_2 C 0.3382(3) 0.8913(3) 0.29021(7)
C27_2 C 0.3744(3) 0.7802(3) 0.30328(7)
C28_2 C 0.2764(3) 0.9055(4) 0.20776(7)
C29_2 C 0.3447(3) 0.8486(3) 0.30377(7)
H6_2 H 0.3283 0.8677 0.3131
C31_2 C 0.4918(4) 0.5824(3) 0.35230(8)
H8_3 H 0.5360 0.5811 0.3578
C34_2 C 0.3599(4) 0.5882(3) 0.33577(8)
H10_2 H 0.3150 0.5931 0.3306
C35_2 C 0.4213(3) 0.6274(3) 0.33112(7)
C36_2 C 0.3671(3) 0.5403(3) 0.34862(7)
H11_2 H 0.3279 0.5101 0.3516
C37_2 C 0.4841(4) 0.6279(3) 0.33966(8)
H12_3 H 0.5226 0.6595 0.3369
C38_2 C 0.4356(3) 0.6341(3) 0.30325(7)
C39_2 C 0.3492(4) 0.3335(4) 0.41169(7)
C40_2 C 0.2946(5) 0.3538(5) 0.42449(9)
H13_2 H 0.2748 0.3094 0.4290
H14_2 H 0.2550 0.3827 0.4202
H15_2 H 0.3196 0.3818 0.4323
Zr3 Zr 0.61779(3) 0.17985(3) 0.37496(2)
O13_2 O 0.58141(17) 0.27003(16) 0.38716(3)
O15_2 O 0.47137(17) 0.35505(16) 0.39121(3)
O16 O 0.48973(19) 0.02598(19) 0.37424(4)
O18_2 O 0.6114(2) 0.0558(2) 0.37323(4)
O21_2 O 0.5882(2) 0.1991(2) 0.41719(5)
O23_2 O 0.6729(2) 0.1488(2) 0.39688(5)
C54_2 C 0.5565(3) 0.0180(3) 0.36914(7)
C79_2 C 0.6508(4) 0.1665(4) 0.41169(7)
C80_2 C 0.7054(5) 0.1462(5) 0.42449(9)
H28_2 H 0.7252 0.1906 0.4290
H29_2 H 0.7450 0.1173 0.4202
H30_2 H 0.6804 0.1182 0.4323
Zr7 Zr 0.57015(3) 0.36779(3) 0.37504(2)
Zr9 Zr 0.42985(3) 0.13221(3) 0.37504(2)
O25_2 O 0.47997(16) 0.33141(17) 0.36284(3)
O26 O 0.52003(16) 0.16859(17) 0.36284(3)
O27 O 0.66858(18) 0.14773(18) 0.35245(4)
O28_2 O 0.33142(18) 0.35227(18) 0.35245(4)
O29 O 0.39495(16) 0.22137(17) 0.35879(3)
O30_2 O 0.60505(16) 0.27863(17) 0.35879(3)
O31 O 0.72402(19) 0.23973(19) 0.37576(4)
O32_2 O 0.27598(19) 0.26027(19) 0.37576(4)
O33_2 O 0.5611(2) 0.33961(19) 0.41562(4)
O34 O 0.4389(2) 0.16039(19) 0.41562(4)
O14 O 0.39773(18) 0.08142(18) 0.39755(4)
O19 O 0.1254(2) 0.0070(2) 0.44721(5)
C55 C 0.4019(3) 0.1057(3) 0.41122(6)
C57 C 0.3571(3) 0.0660(3) 0.42352(6)
C66 C 0.3388(4) 0.1046(3) 0.43660(6)
H20 H 0.3553 0.1530 0.4379
C70 C 0.2963(4) 0.0720(3) 0.44772(7)
H22 H 0.2819 0.0982 0.4564
C1_3 C 0.8872(3) 0.6152(3) 0.52602(6)
C2_3 C 0.7700(3) 0.5922(3) 0.48367(7)
Cl2_3 Cl 0.77594(8) 0.54099(10) 0.54142(2)
Cl3_3 Cl 0.72168(8) 0.68075(9) 0.52442(2)
O2_2 O 0.60227(18) 0.41858(18) 0.39755(4)
O7_3 O 0.8746(2) 0.4930(2) 0.44721(5)
O10_3 O 0.6623(3) 0.5790(3) 0.46865(6)
O12_3 O 0.9864(2) 0.6135(3) 0.58076(5)
C3_3 C 0.9641(3) 0.6334(2) 0.52542(6)
C4_3 C 0.9993(3) 0.6398(2) 0.51095(6)
C5_3 C 0.9985(3) 0.5750(2) 0.48490(7)
C6_3 C 0.9624(3) 0.6050(2) 0.49771(6)
N2_3 N 0.7685(3) 0.5342(3) 0.45816(6)
C8_3 C 0.8461(3) 0.5820(3) 0.48418(7)
C9_3 C 0.8854(3) 0.6039(2) 0.49789(7)
C11_3 C 0.8853(3) 0.5540(3) 0.47145(6)
C12_3 C 0.8454(3) 0.6190(3) 0.51127(6)
C15_3 C 0.5981(3) 0.3943(3) 0.41122(6)
C17_3 C 0.6429(3) 0.4340(3) 0.42352(6)
C18_3 C 0.9629(3) 0.5465(3) 0.47222(7)
H1_3 H 0.9890 0.5230 0.4644
C19_3 C 0.6649(4) 0.5044(3) 0.42155(7)
H2_3 H 0.6517 0.5305 0.4127
C20_3 C 0.7284(3) 0.5711(3) 0.46953(7)
C21_3 C 0.7331(3) 0.6232(3) 0.49602(7)
H3_3 H 0.6833 0.6349 0.4951
C22_3 C 0.7700(3) 0.6370(3) 0.50983(7)
C25_3 C 0.8587(3) 0.5882(3) 0.54021(7)
C26_3 C 0.6612(4) 0.3954(3) 0.43660(6)
H5_3 H 0.6447 0.3470 0.4379
C27_3 C 0.9698(3) 0.6244(3) 0.55328(7)
C28_3 C 0.8445(4) 0.5264(3) 0.45776(7)
C29_3 C 0.9014(3) 0.5947(3) 0.55377(7)
H6_3 H 0.8823 0.5783 0.5631
C30_3 C 0.7037(4) 0.4280(3) 0.44772(7)
H7_3 H 0.7181 0.4018 0.4564
C32_3 C 0.7086(4) 0.5380(3) 0.43324(7)
H9_3 H 0.7257 0.5862 0.4321
C33_3 C 0.7245(4) 0.5001(3) 0.44570(7)
C41 C 0.1348(3) 0.6372(3) 0.22398(6)
Cl5 Cl 0.03438(7) 0.85502(8) 0.25543(2)
C42 C 0.1578(3) 0.5200(3) 0.26633(7)
Cl6 Cl 0.20901(10) 0.52594(8) 0.20858(2)
Cl7 Cl 0.06925(9) 0.47168(8) 0.22558(2)
Cl8 Cl 0.19349(7) 0.84326(7) 0.26523(2)
O17 O 0.41039(19) 0.3111(2) 0.33438(4)
O19_2 O 0.2570(2) 0.6246(2) 0.30279(5)
O20 O 0.0364(2) 0.9270(2) 0.19649(5)
O22 O 0.1710(3) 0.4123(3) 0.28135(6)
O24 O 0.1365(3) 0.7364(2) 0.16924(5)
N3 N 0.0865(3) 0.8293(2) 0.18290(6)
C43 C 0.1166(2) 0.7141(3) 0.22458(6)
C44 C 0.1102(2) 0.7493(3) 0.23905(6)
C45 C 0.1750(2) 0.7485(3) 0.26510(7)
C46 C 0.1450(2) 0.7124(3) 0.25229(6)
N4 N 0.2158(3) 0.5185(3) 0.29184(6)
C47 C 0.1060(2) 0.7515(3) 0.21060(7)
C48 C 0.1680(3) 0.5961(3) 0.26582(7)
C49 C 0.1461(2) 0.6354(3) 0.25211(7)
C50 C 0.0770(3) 0.8245(3) 0.21130(7)
C51 C 0.1960(3) 0.6353(3) 0.27855(6)
C52 C 0.1310(3) 0.5954(3) 0.23873(6)
C53 C 0.0728(3) 0.8174(3) 0.23899(7)
C55_2 C 0.3557(3) 0.3481(3) 0.33878(6)
C56 C 0.0665(3) 0.9611(3) 0.14329(7)
C57_2 C 0.3160(3) 0.3929(3) 0.32648(6)
C58 C 0.2035(3) 0.7129(3) 0.27778(7)
H16 H 0.2270 0.7390 0.2856
C59 C 0.2456(3) 0.4149(4) 0.32845(7)
H17 H 0.2195 0.4017 0.3373
C60 C 0.1789(3) 0.4784(3) 0.28047(7)
C61 C 0.1268(3) 0.4831(3) 0.25398(7)
H18 H 0.1151 0.4333 0.2549
C62 C 0.1130(3) 0.5200(3) 0.24017(7)
C63 C 0.0578(2) 0.8550(3) 0.22539(7)
H19 H 0.0347 0.9009 0.2257
C64 C 0.1175(3) 0.7601(3) 0.18184(7)
C65 C 0.1618(3) 0.6087(3) 0.20979(7)
C66_2 C 0.3546(3) 0.4112(4) 0.31340(6)
H20_2 H 0.4030 0.3947 0.3121
C67 C 0.1256(3) 0.7198(3) 0.19672(7)
C68 C 0.2236(3) 0.5945(4) 0.29224(7)
C69 C 0.1553(3) 0.6514(3) 0.19623(7)
H21 H 0.1717 0.6323 0.1869
C70_2 C 0.3220(3) 0.4537(4) 0.30228(7)
H22_2 H 0.3482 0.4681 0.2936
C71 C 0.0082(4) 0.9176(3) 0.14770(8)
C72 C 0.2120(3) 0.4586(4) 0.31676(7)
H24 H 0.1638 0.4757 0.3179
C73 C 0.2499(3) 0.4745(4) 0.30430(7)
C74 C 0.1401(4) 0.9118(3) 0.16423(8)
H25 H 0.1850 0.9069 0.1694
C75 C 0.0787(3) 0.8726(3) 0.16888(7)
C76 C 0.1329(3) 0.9597(3) 0.15138(7)
H26 H 0.1721 0.9899 0.1484
C77 C 0.0159(4) 0.8721(3) 0.16034(8)
C78 C 0.0644(3) 0.8659(3) 0.19675(7)
Zr5_2 Zr 0.5000 0.2500 0.34644(2)
Cl3_4 Cl 0.93075(9) 0.02832(8) 0.22558(2)
O5_2 O 0.58961(19) 0.1889(2) 0.33438(4)
O10_4 O 0.8290(3) 0.0877(3) 0.28135(6)
C15_4 C 0.6443(3) 0.1519(3) 0.33878(6)
C17_4 C 0.6840(3) 0.1071(3) 0.32648(6)
C19_4 C 0.7544(3) 0.0851(4) 0.32845(7)
H2_4 H 0.7805 0.0983 0.3373
C20_4 C 0.8211(3) 0.0216(3) 0.28047(7)
C21_4 C 0.8732(3) 0.0169(3) 0.25398(7)
H3_4 H 0.8849 0.0667 0.2549
C26_4 C 0.6454(3) 0.0888(4) 0.31340(6)
H5_4 H 0.5970 0.1053 0.3121
C30_4 C 0.6780(3) 0.0463(4) 0.30228(7)
H7_4 H 0.6518 0.0319 0.2936
C32_4 C 0.7880(3) 0.0414(4) 0.31676(7)
H9_4 H 0.8362 0.0243 0.3179
C33_4 C 0.7501(3) 0.0255(4) 0.30430(7)
Cl1_3 Cl 0.89498(8) 0.28438(7) 0.50543(2)
Cl4_3 Cl 0.90674(7) 0.44349(7) 0.51523(2)
O6_3 O 0.6942(2) 0.3614(2) 0.37677(4)
O8_3 O 0.8230(2) 0.2864(2) 0.44649(5)
O9_3 O 0.5509(2) 0.3382(2) 0.33281(5)
O11_3 O 0.6012(2) 0.4229(2) 0.35312(5)
N1_3 N 0.9207(2) 0.3365(3) 0.43290(6)
C7_3 C 0.9985(3) 0.3560(2) 0.46060(7)
C10_3 C 0.9255(3) 0.3270(3) 0.46130(7)
C13_3 C 0.9326(3) 0.3228(3) 0.48899(7)
C14_3 C 0.7320(3) 0.3065(3) 0.38086(7)
C16_3 C 0.7889(3) 0.3165(3) 0.39329(7)
C23_3 C 0.8950(3) 0.3078(2) 0.47539(7)
H4_3 H 0.8491 0.2847 0.4757
C24_3 C 0.9899(3) 0.3675(3) 0.43184(7)
C31_3 C 0.8324(3) 0.2582(4) 0.39770(8)
H8_4 H 0.8311 0.2140 0.3922
C34_3 C 0.8382(3) 0.3901(4) 0.41423(8)
H10_3 H 0.8431 0.4350 0.4194
C35_3 C 0.8774(3) 0.3287(3) 0.41888(7)
C36_3 C 0.7903(3) 0.3829(3) 0.40138(7)
H11_3 H 0.7601 0.4221 0.3984
C37_3 C 0.8779(3) 0.2659(4) 0.41034(8)
H12_4 H 0.9095 0.2274 0.4131
C38_3 C 0.8841(3) 0.3144(3) 0.44675(7)
C39_3 C 0.5835(4) 0.4008(4) 0.33831(7)
C40_3 C 0.6038(5) 0.4554(5) 0.32551(9)
H13_3 H 0.5594 0.4752 0.3210
H14_3 H 0.6327 0.4950 0.3298
H15_3 H 0.6318 0.4304 0.3177
Cl5_2 Cl 0.10502(8) 0.21562(7) 0.50543(2)
Cl8_2 Cl 0.09326(7) 0.05651(7) 0.51523(2)
O18_3 O 0.3058(2) 0.1386(2) 0.37677(4)
O20_2 O 0.1770(2) 0.2136(2) 0.44649(5)
O21_3 O 0.4491(2) 0.1618(2) 0.33281(5)
O23_3 O 0.3988(2) 0.0771(2) 0.35312(5)
N3_2 N 0.0793(2) 0.1635(3) 0.43290(6)
C47_2 C 0.0015(3) 0.1440(2) 0.46060(7)
C50_2 C 0.0745(3) 0.1730(3) 0.46130(7)
C53_2 C 0.0674(3) 0.1772(3) 0.48899(7)
C54_3 C 0.2680(3) 0.1935(3) 0.38086(7)
C56_2 C 0.2111(3) 0.1835(3) 0.39329(7)
C63_2 C 0.1050(3) 0.1922(2) 0.47539(7)
H19_2 H 0.1509 0.2153 0.4757
C64_2 C 0.0101(3) 0.1325(3) 0.43184(7)
C71_2 C 0.1676(3) 0.2418(4) 0.39770(8)
H23 H 0.1689 0.2860 0.3922
C74_2 C 0.1618(3) 0.1099(4) 0.41423(8)
H25_2 H 0.1569 0.0650 0.4194
C75_2 C 0.1226(3) 0.1713(3) 0.41888(7)
C76_2 C 0.2097(3) 0.1171(3) 0.40138(7)
H26_2 H 0.2399 0.0779 0.3984
C77_2 C 0.1221(3) 0.2341(4) 0.41034(8)
H27 H 0.0905 0.2726 0.4131
C78_2 C 0.1159(3) 0.1856(3) 0.44675(7)
C79_3 C 0.4165(4) 0.0992(4) 0.33831(7)
C80_3 C 0.3962(5) 0.0446(5) 0.32551(9)
H28_3 H 0.4406 0.0248 0.3210
H29_3 H 0.3673 0.0050 0.3298
H30_3 H 0.3682 0.0696 0.3177
C41_2 C 0.6348(3) 0.6372(3) 0.27602(6)
Cl5_3 Cl 0.53438(7) 0.85502(8) 0.24457(2)
C42_2 C 0.6578(3) 0.5200(3) 0.23367(7)
Cl6_2 Cl 0.70901(10) 0.52594(8) 0.29142(2)
Cl7_2 Cl 0.56925(9) 0.47168(8) 0.27442(2)
Cl8_3 Cl 0.69349(7) 0.84326(7) 0.23477(2)
O14_2 O 0.83142(18) 0.35227(18) 0.14755(4)
O17_2 O 0.91039(19) 0.3111(2) 0.16562(4)
O19_3 O 0.7570(2) 0.6246(2) 0.19721(5)
O20_3 O 0.5364(2) 0.9270(2) 0.30351(5)
O22_2 O 0.6710(3) 0.4123(3) 0.21865(6)
O24_2 O 0.6365(3) 0.7364(2) 0.33076(5)
N3_3 N 0.5865(3) 0.8293(2) 0.31710(6)
C43_2 C 0.6166(2) 0.7141(3) 0.27542(6)
C44_2 C 0.6102(2) 0.7493(3) 0.26095(6)
C45_2 C 0.6750(2) 0.7485(3) 0.23490(7)
C46_2 C 0.6450(2) 0.7124(3) 0.24771(6)
N4_2 N 0.7158(3) 0.5185(3) 0.20816(6)
C47_3 C 0.6060(2) 0.7515(3) 0.28940(7)
C48_2 C 0.6680(3) 0.5961(3) 0.23418(7)
C49_2 C 0.6461(2) 0.6354(3) 0.24789(7)
C50_3 C 0.5770(3) 0.8245(3) 0.28870(7)
C51_2 C 0.6960(3) 0.6353(3) 0.22145(6)
C52_2 C 0.6310(3) 0.5954(3) 0.26127(6)
C53_3 C 0.5728(3) 0.8174(3) 0.26101(7)
C55_3 C 0.8557(3) 0.3481(3) 0.16122(6)
C56_3 C 0.5665(3) 0.9611(3) 0.35671(7)
C57_3 C 0.8160(3) 0.3929(3) 0.17352(6)
C58_2 C 0.7035(3) 0.7129(3) 0.22222(7)
H16_2 H 0.7270 0.7390 0.2144
C59_2 C 0.7456(3) 0.4149(4) 0.17155(7)
H17_2 H 0.7195 0.4017 0.1627
C60_2 C 0.6789(3) 0.4784(3) 0.21953(7)
C61_2 C 0.6268(3) 0.4831(3) 0.24602(7)
H18_2 H 0.6151 0.4333 0.2451
C62_2 C 0.6130(3) 0.5200(3) 0.25983(7)
C63_3 C 0.5578(2) 0.8550(3) 0.27461(7)
H19_3 H 0.5347 0.9009 0.2743
C64_3 C 0.6175(3) 0.7601(3) 0.31816(7)
C65_2 C 0.6618(3) 0.6087(3) 0.29021(7)
C66_3 C 0.8546(3) 0.4112(4) 0.18660(6)
H20_3 H 0.9030 0.3947 0.1879
C67_2 C 0.6256(3) 0.7198(3) 0.30328(7)
C68_2 C 0.7236(3) 0.5945(4) 0.20776(7)
C69_2 C 0.6553(3) 0.6514(3) 0.30377(7)
H21_2 H 0.6717 0.6323 0.3131
C70_3 C 0.8220(3) 0.4537(4) 0.19772(7)
H22_3 H 0.8482 0.4681 0.2064
C71_3 C 0.5082(4) 0.9176(3) 0.35230(8)
H23_2 H 0.4640 0.9189 0.3578
C72_2 C 0.7120(3) 0.4586(4) 0.18324(7)
H24_2 H 0.6638 0.4757 0.1821
C73_2 C 0.7499(3) 0.4745(4) 0.19570(7)
C74_3 C 0.6401(4) 0.9118(3) 0.33577(8)
H25_3 H 0.6850 0.9069 0.3306
C75_3 C 0.5787(3) 0.8726(3) 0.33112(7)
C76_3 C 0.6329(3) 0.9597(3) 0.34862(7)
H26_3 H 0.6721 0.9899 0.3516
C77_3 C 0.5159(4) 0.8721(3) 0.33966(8)
H27_2 H 0.4774 0.8405 0.3369
C78_3 C 0.5644(3) 0.8659(3) 0.30325(7)
Zr5_3 Zr 1.0000 0.2500 0.15356(2)
Zr6 Zr 0.88221(3) 0.32015(3) 0.12504(2)
O1_2 O 0.97997(16) 0.33141(17) 0.13716(3)
O3_2 O 0.89495(16) 0.22137(17) 0.14121(3)
C41_3 C 0.3872(3) 0.1152(3) 0.02602(6)
Zr3_2 Zr 0.92985(3) 0.13221(3) 0.12496(2)
Cl6_3 Cl 0.27594(8) 0.04099(10) 0.04142(2)
Cl7_3 Cl 0.22168(8) 0.18075(9) 0.02442(2)
O16_2 O 0.77598(19) 0.26027(19) 0.12424(4)
O18_4 O 0.8058(2) 0.1386(2) 0.12323(4)
O20_4 O 0.6770(2) 0.2136(2) 0.05351(5)
O21_4 O 0.9491(2) 0.1618(2) 0.16719(5)
O23_4 O 0.8988(2) 0.0771(2) 0.14688(5)
O24_3 O 0.4864(2) 0.1135(3) 0.08076(5)
N3_4 N 0.5793(2) 0.1635(3) 0.06710(6)
C43_3 C 0.4641(3) 0.1334(2) 0.02542(6)
C44_3 C 0.4993(3) 0.1398(2) 0.01095(6)
C47_4 C 0.5015(3) 0.1440(2) 0.03940(7)
C50_4 C 0.5745(3) 0.1730(3) 0.03870(7)
C52_3 C 0.3454(3) 0.1190(3) 0.01127(6)
C53_4 C 0.5674(3) 0.1772(3) 0.01101(7)
C54_4 C 0.7680(3) 0.1935(3) 0.11914(7)
C56_4 C 0.7111(3) 0.1835(3) 0.10671(7)
C62_3 C 0.2700(3) 0.1370(3) 0.00983(7)
C63_4 C 0.6050(3) 0.1922(2) 0.02461(7)
H19_4 H 0.6509 0.2153 0.0243
C64_4 C 0.5101(3) 0.1325(3) 0.06816(7)
C65_3 C 0.3587(3) 0.0882(3) 0.04021(7)
C67_3 C 0.4698(3) 0.1244(3) 0.05328(7)
C69_3 C 0.4014(3) 0.0947(3) 0.05377(7)
H21_3 H 0.3823 0.0783 0.0631
C71_4 C 0.6676(3) 0.2418(4) 0.10230(8)
H23_3 H 0.6689 0.2860 0.1078
C74_4 C 0.6618(3) 0.1099(4) 0.08577(8)
H25_4 H 0.6569 0.0650 0.0806
C75_4 C 0.6226(3) 0.1713(3) 0.08112(7)
C76_4 C 0.7097(3) 0.1171(3) 0.09862(7)
H26_4 H 0.7399 0.0779 0.1016
C77_4 C 0.6221(3) 0.2341(4) 0.08966(8)
H27_3 H 0.5905 0.2726 0.0869
C78_4 C 0.6159(3) 0.1856(3) 0.05325(7)
C79_4 C 0.9165(4) 0.0992(4) 0.16169(7)
C80_4 C 0.8962(5) 0.0446(5) 0.17449(9)
H28_4 H 0.9406 0.0248 0.1790
H29_4 H 0.8673 0.0050 0.1702
H30_4 H 0.8682 0.0696 0.1823
O26_2 O 0.91859(17) 0.22997(16) 0.11284(3)
O27_2 O 0.89773(18) 0.08142(18) 0.10245(4)
O29_2 O 0.97137(17) 0.35505(16) 0.10879(3)
O31_2 O 0.98973(19) 0.02598(19) 0.12576(4)
Zr1_3 Zr 1.0000 0.2500 0.09644(2)
C1_4 C 0.8652(3) 0.8628(3) 0.22398(6)
Cl1_4 Cl 0.96562(7) 0.64498(8) 0.25543(2)
C2_4 C 0.8422(3) 0.9800(3) 0.26633(7)
Cl2_4 Cl 0.79099(10) 0.97406(8) 0.20858(2)
Cl4_4 Cl 0.80651(7) 0.65674(7) 0.26523(2)
O6_4 O 0.8886(2) 0.4442(2) 0.12677(4)
O7_4 O 0.7430(2) 0.8754(2) 0.30279(5)
O8_4 O 0.9636(2) 0.5730(2) 0.19649(5)
O9_4 O 0.9118(2) 0.3009(2) 0.08281(5)
O11_4 O 0.8271(2) 0.3512(2) 0.10312(5)
O12_4 O 0.8635(3) 0.7636(2) 0.16924(5)
N1_4 N 0.9135(3) 0.6707(2) 0.18290(6)
C3_4 C 0.8834(2) 0.7859(3) 0.22458(6)
C4_4 C 0.8898(2) 0.7507(3) 0.23905(6)
C5_4 C 0.8250(2) 0.7515(3) 0.26510(7)
C6_4 C 0.8550(2) 0.7876(3) 0.25229(6)
N2_4 N 0.7842(3) 0.9815(3) 0.29184(6)
C7_4 C 0.8940(2) 0.7485(3) 0.21060(7)
C8_4 C 0.8320(3) 0.9039(3) 0.26582(7)
C9_4 C 0.8539(2) 0.8646(3) 0.25211(7)
C10_4 C 0.9230(3) 0.6755(3) 0.21130(7)
C11_4 C 0.8040(3) 0.8647(3) 0.27855(6)
C12_4 C 0.8690(3) 0.9046(3) 0.23873(6)
C13_4 C 0.9272(3) 0.6826(3) 0.23899(7)
C14_4 C 0.9435(3) 0.4820(3) 0.13086(7)
C16_4 C 0.9335(3) 0.5389(3) 0.14329(7)
C18_4 C 0.7965(3) 0.7871(3) 0.27778(7)
H1_4 H 0.7730 0.7610 0.2856
C22_4 C 0.8870(3) 0.9800(3) 0.24017(7)
C23_4 C 0.9422(2) 0.6450(3) 0.22539(7)
H4_4 H 0.9653 0.5991 0.2257
C24_4 C 0.8825(3) 0.7399(3) 0.18184(7)
C25_4 C 0.8382(3) 0.8913(3) 0.20979(7)
C27_4 C 0.8744(3) 0.7802(3) 0.19672(7)
C28_4 C 0.7764(3) 0.9055(4) 0.29224(7)
C29_4 C 0.8447(3) 0.8486(3) 0.19623(7)
H6_4 H 0.8283 0.8677 0.1869
C31_4 C 0.9918(4) 0.5824(3) 0.14770(8)
C34_4 C 0.8599(4) 0.5882(3) 0.16423(8)
H10_4 H 0.8150 0.5931 0.1694
C35_4 C 0.9213(3) 0.6274(3) 0.16888(7)
C36_4 C 0.8671(3) 0.5403(3) 0.15138(7)
H11_4 H 0.8279 0.5101 0.1484
C37_4 C 0.9841(4) 0.6279(3) 0.16034(8)
C38_4 C 0.9356(3) 0.6341(3) 0.19675(7)
C39_4 C 0.8492(4) 0.3335(4) 0.08831(7)
C40_4 C 0.7946(5) 0.3538(5) 0.07551(9)
H13_4 H 0.7748 0.3094 0.0710
H14_4 H 0.7550 0.3827 0.0798
H15_4 H 0.8196 0.3818 0.0677
O34_2 O 0.9389(2) 0.16039(19) 0.08438(4)
O19_4 O 0.6254(2) 0.0070(2) 0.05279(5)
C55_4 C 0.9019(3) 0.1057(3) 0.08878(6)
C57_4 C 0.8571(3) 0.0660(3) 0.07648(6)
C66_4 C 0.8388(4) 0.1046(3) 0.06340(6)
H20_4 H 0.8553 0.1530 0.0621
C70_4 C 0.7963(4) 0.0720(3) 0.05228(7)
H22_4 H 0.7819 0.0982 0.0436
H23_4 H 0.0360 0.0811 0.8578
H27_4 H 0.0226 0.1595 0.8369
Zr1_4 Zr -0.0000 0.7500 0.90356(2)
C1_5 C 0.1348(3) 0.1372(3) 0.77602(6)
Cl1_5 Cl 0.03438(7) 0.35502(8) 0.74457(2)
Zr2_3 Zr 0.11779(3) 0.67985(3) 0.87496(2)
C2_5 C 0.1578(3) 0.0200(3) 0.73367(7)
Cl2_5 Cl 0.20901(10) 0.02594(8) 0.79142(2)
O1_3 O 0.08141(17) 0.77003(16) 0.88716(3)
Cl4_5 Cl 0.19349(7) 0.34326(7) 0.73477(2)
O6_5 O 0.1114(2) 0.5558(2) 0.87323(4)
O7_5 O 0.2570(2) 0.1246(2) 0.69721(5)
O8_5 O 0.0364(2) 0.4270(2) 0.80351(5)
O9_5 O 0.0882(2) 0.6991(2) 0.91719(5)
O11_5 O 0.1729(2) 0.6488(2) 0.89688(5)
O12_5 O 0.1365(3) 0.2364(2) 0.83076(5)
N1_5 N 0.0865(3) 0.3293(2) 0.81710(6)
C3_5 C 0.1166(2) 0.2141(3) 0.77542(6)
C4_5 C 0.1102(2) 0.2493(3) 0.76095(6)
C5_5 C 0.1750(2) 0.2485(3) 0.73490(7)
C6_5 C 0.1450(2) 0.2124(3) 0.74771(6)
N2_5 N 0.2158(3) 0.0185(3) 0.70816(6)
C7_5 C 0.1060(2) 0.2515(3) 0.78940(7)
C8_5 C 0.1680(3) 0.0961(3) 0.73418(7)
C9_5 C 0.1461(2) 0.1354(3) 0.74789(7)
C10_5 C 0.0770(3) 0.3245(3) 0.78870(7)
C11_5 C 0.1960(3) 0.1353(3) 0.72145(6)
C12_5 C 0.1310(3) 0.0954(3) 0.76127(6)
C13_5 C 0.0728(3) 0.3174(3) 0.76101(7)
C14_5 C 0.0565(3) 0.5180(3) 0.86914(7)
C16_5 C 0.0665(3) 0.4611(3) 0.85671(7)
C18_5 C 0.2035(3) 0.2129(3) 0.72222(7)
H1_5 H 0.2270 0.2390 0.7144
C22_5 C 0.1130(3) 0.0200(3) 0.75983(7)
C23_5 C 0.0578(2) 0.3550(3) 0.77461(7)
H4_5 H 0.0347 0.4009 0.7743
C24_5 C 0.1175(3) 0.2601(3) 0.81816(7)
C25_5 C 0.1618(3) 0.1087(3) 0.79021(7)
C27_5 C 0.1256(3) 0.2198(3) 0.80328(7)
C28_5 C 0.2236(3) 0.0945(4) 0.70776(7)
C29_5 C 0.1553(3) 0.1514(3) 0.80377(7)
H6_5 H 0.1717 0.1323 0.8131
C31_5 C 0.0082(4) 0.4176(3) 0.85230(8)
C34_5 C 0.1401(4) 0.4118(3) 0.83577(8)
H10_5 H 0.1850 0.4069 0.8306
C35_5 C 0.0787(3) 0.3726(3) 0.83112(7)
C36_5 C 0.1329(3) 0.4597(3) 0.84862(7)
H11_5 H 0.1721 0.4899 0.8516
C37_5 C 0.0159(4) 0.3721(3) 0.83966(8)
C38_5 C 0.0644(3) 0.3659(3) 0.80325(7)
C39_5 C 0.1508(4) 0.6665(4) 0.91169(7)
C40_5 C 0.2054(5) 0.6462(5) 0.92449(9)
H13_5 H 0.2252 0.6906 0.9290
H14_5 H 0.2450 0.6173 0.9202
H15_5 H 0.1804 0.6182 0.9323
O15_3 O 0.02863(17) 0.64495(16) 0.89121(3)
O16_3 O 0.01027(19) 0.97402(19) 0.87424(4)
Zr9_2 Zr 0.07015(3) 0.86779(3) 0.87504(2)
O25_3 O 0.02003(16) 0.66859(17) 0.86284(3)
O28_3 O 0.16858(18) 0.64773(18) 0.85245(4)
O29_3 O 0.10505(16) 0.77863(17) 0.85879(3)
O32_3 O 0.22402(19) 0.73973(19) 0.87576(4)
O34_3 O 0.0611(2) 0.83961(19) 0.91562(4)
O14_3 O 0.10227(18) 0.91858(18) 0.89755(4)
O19_5 O 0.3746(2) 0.9930(2) 0.94721(5)
C55_5 C 0.0981(3) 0.8943(3) 0.91122(6)
C57_5 C 0.1429(3) 0.9340(3) 0.92352(6)
C66_5 C 0.1612(4) 0.8954(3) 0.93660(6)
H20_5 H 0.1447 0.8470 0.9379
C70_5 C 0.2037(4) 0.9280(3) 0.94772(7)
H22_5 H 0.2181 0.9018 0.9564
Zr4 Zr -0.0000 0.7500 0.84644(2)
C41_4 C 0.3652(3) 0.3628(3) 0.72398(6)
Cl5_4 Cl 0.46562(7) 0.14498(8) 0.75543(2)
C42_3 C 0.3422(3) 0.4800(3) 0.76633(7)
Cl6_4 Cl 0.29099(10) 0.47406(8) 0.70858(2)
Cl7_4 Cl 0.43075(9) 0.52832(8) 0.72558(2)
Cl8_4 Cl 0.30651(7) 0.15674(7) 0.76523(2)
O17_3 O 0.08961(19) 0.6889(2) 0.83438(4)
O19_6 O 0.2430(2) 0.3754(2) 0.80279(5)
O20_5 O 0.4636(2) 0.0730(2) 0.69649(5)
O22_3 O 0.3290(3) 0.5877(3) 0.78135(6)
O24_4 O 0.3635(3) 0.2636(2) 0.66924(5)
N3_5 N 0.4135(3) 0.1707(2) 0.68290(6)
C43_4 C 0.3834(2) 0.2859(3) 0.72458(6)
C44_4 C 0.3898(2) 0.2507(3) 0.73905(6)
C45_3 C 0.3250(2) 0.2515(3) 0.76510(7)
C46_3 C 0.3550(2) 0.2876(3) 0.75229(6)
N4_3 N 0.2842(3) 0.4815(3) 0.79184(6)
C47_5 C 0.3940(2) 0.2485(3) 0.71060(7)
C48_3 C 0.3320(3) 0.4039(3) 0.76582(7)
C49_3 C 0.3539(2) 0.3646(3) 0.75211(7)
C50_5 C 0.4230(3) 0.1755(3) 0.71130(7)
C51_3 C 0.3040(3) 0.3647(3) 0.77855(6)
C52_4 C 0.3690(3) 0.4046(3) 0.73873(6)
C53_5 C 0.4272(3) 0.1826(3) 0.73899(7)
C55_6 C 0.1443(3) 0.6519(3) 0.83878(6)
C56_5 C 0.4335(3) 0.0389(3) 0.64329(7)
C57_6 C 0.1840(3) 0.6071(3) 0.82648(6)
C58_3 C 0.2965(3) 0.2871(3) 0.77778(7)
H16_3 H 0.2730 0.2610 0.7856
C59_3 C 0.2544(3) 0.5851(4) 0.82845(7)
H17_3 H 0.2805 0.5983 0.8373
C60_3 C 0.3211(3) 0.5216(3) 0.78047(7)
C61_3 C 0.3732(3) 0.5169(3) 0.75398(7)
H18_3 H 0.3849 0.5667 0.7549
C62_4 C 0.3870(3) 0.4800(3) 0.74017(7)
C63_5 C 0.4422(2) 0.1450(3) 0.72539(7)
H19_5 H 0.4653 0.0991 0.7257
C64_5 C 0.3825(3) 0.2399(3) 0.68184(7)
C65_4 C 0.3382(3) 0.3913(3) 0.70979(7)
C66_6 C 0.1454(3) 0.5888(4) 0.81340(6)
H20_6 H 0.0970 0.6053 0.8121
C67_4 C 0.3744(3) 0.2802(3) 0.69672(7)
C68_3 C 0.2764(3) 0.4055(4) 0.79224(7)
C69_4 C 0.3447(3) 0.3486(3) 0.69623(7)
H21_4 H 0.3283 0.3677 0.6869
C70_6 C 0.1780(3) 0.5463(4) 0.80228(7)
H22_6 H 0.1518 0.5319 0.7936
C71_5 C 0.4918(4) 0.0824(3) 0.64770(8)
H23_5 H 0.5360 0.0811 0.6422
C72_3 C 0.2880(3) 0.5414(4) 0.81676(7)
H24_3 H 0.3362 0.5243 0.8179
C73_3 C 0.2501(3) 0.5255(4) 0.80430(7)
C74_5 C 0.3599(4) 0.0882(3) 0.66423(8)
H25_5 H 0.3150 0.0931 0.6694
C75_5 C 0.4213(3) 0.1274(3) 0.66888(7)
C76_5 C 0.3671(3) 0.0403(3) 0.65138(7)
H26_5 H 0.3279 0.0101 0.6484
C77_5 C 0.4841(4) 0.1279(3) 0.66034(8)
H27_5 H 0.5226 0.1595 0.6631
C78_5 C 0.4356(3) 0.1341(3) 0.69675(7)
C41_5 C 0.6128(3) 0.8848(3) 0.97398(6)
Cl6_5 Cl 0.72406(8) 0.95901(10) 0.95858(2)
Cl7_5 Cl 0.77832(8) 0.81925(9) 0.97558(2)
O18_5 O 0.1942(2) 0.8614(2) 0.87677(4)
O20_6 O 0.3230(2) 0.7864(2) 0.94649(5)
O21_5 O 0.0509(2) 0.8382(2) 0.83281(5)
O23_5 O 0.1012(2) 0.9229(2) 0.85312(5)
O24_5 O 0.5136(2) 0.8865(3) 0.91924(5)
N3_6 N 0.4207(2) 0.8365(3) 0.93290(6)
C43_5 C 0.5359(3) 0.8666(2) 0.97458(6)
C44_5 C 0.5007(3) 0.8602(2) 0.98905(6)
C47_6 C 0.4985(3) 0.8560(2) 0.96060(7)
C50_6 C 0.4255(3) 0.8270(3) 0.96130(7)
C52_5 C 0.6546(3) 0.8810(3) 0.98873(6)
C53_6 C 0.4326(3) 0.8228(3) 0.98899(7)
C54_5 C 0.2320(3) 0.8065(3) 0.88086(7)
C56_6 C 0.2889(3) 0.8165(3) 0.89329(7)
C62_5 C 0.7300(3) 0.8630(3) 0.99017(7)
C63_6 C 0.3950(3) 0.8078(2) 0.97539(7)
H19_6 H 0.3491 0.7847 0.9757
C64_6 C 0.4899(3) 0.8675(3) 0.93184(7)
C65_5 C 0.6413(3) 0.9118(3) 0.95979(7)
C67_5 C 0.5302(3) 0.8756(3) 0.94672(7)
C69_5 C 0.5986(3) 0.9053(3) 0.94623(7)
H21_5 H 0.6177 0.9217 0.9369
C71_6 C 0.3324(3) 0.7582(4) 0.89770(8)
H23_6 H 0.3311 0.7140 0.8922
C74_6 C 0.3382(3) 0.8901(4) 0.91423(8)
H25_6 H 0.3431 0.9350 0.9194
C75_6 C 0.3774(3) 0.8287(3) 0.91888(7)
C76_6 C 0.2903(3) 0.8829(3) 0.90138(7)
H26_6 H 0.2601 0.9221 0.8984
C77_6 C 0.3779(3) 0.7659(4) 0.91034(8)
H27_6 H 0.4095 0.7274 0.9131
C78_6 C 0.3841(3) 0.8144(3) 0.94675(7)
C79_5 C 0.0835(4) 0.9008(4) 0.83831(7)
C80_5 C 0.1038(5) 0.9554(5) 0.82551(9)
H28_5 H 0.0594 0.9752 0.8210
H29_5 H 0.1327 0.9950 0.8298
H30_5 H 0.1318 0.9304 0.8177
Cl3_5 Cl 0.06925(9) 0.97168(8) 0.77442(2)
O2_3 O 0.33142(18) 0.85227(18) 0.64755(4)
O5_3 O 0.41039(19) 0.8111(2) 0.66562(4)
O10_5 O 0.1710(3) 0.9123(3) 0.71865(6)
C15_5 C 0.3557(3) 0.8481(3) 0.66122(6)
C17_5 C 0.3160(3) 0.8929(3) 0.67352(6)
C19_5 C 0.2456(3) 0.9149(4) 0.67155(7)
H2_5 H 0.2195 0.9017 0.6627
C20_5 C 0.1789(3) 0.9784(3) 0.71953(7)
C21_5 C 0.1268(3) 0.9831(3) 0.74602(7)
H3_5 H 0.1151 0.9333 0.7451
C26_5 C 0.3546(3) 0.9112(4) 0.68660(6)
H5_5 H 0.4030 0.8947 0.6879
C30_5 C 0.3220(3) 0.9537(4) 0.69772(7)
H7_5 H 0.3482 0.9681 0.7064
C32_5 C 0.2120(3) 0.9586(4) 0.68324(7)
H9_5 H 0.1638 0.9757 0.6821
C33_5 C 0.2499(3) 0.9745(4) 0.69570(7)
Zr4_2 Zr 0.5000 0.7500 0.65356(2)
Zr8_2 Zr 0.38221(3) 0.82015(3) 0.62504(2)
C41_6 C 0.8652(3) 0.3628(3) 0.77602(6)
Cl5_5 Cl 0.96562(7) 0.14498(8) 0.74457(2)
C42_4 C 0.8422(3) 0.4800(3) 0.73367(7)
Cl6_6 Cl 0.79099(10) 0.47406(8) 0.79142(2)
Cl7_6 Cl 0.93075(9) 0.52832(8) 0.77442(2)
Cl8_5 Cl 0.80651(7) 0.15674(7) 0.73477(2)
O14_4 O 0.66858(18) 0.64773(18) 0.64755(4)
O17_4 O 0.58961(19) 0.6889(2) 0.66562(4)
O19_7 O 0.7430(2) 0.3754(2) 0.69721(5)
O20_7 O 0.9636(2) 0.0730(2) 0.80351(5)
O22_4 O 0.8290(3) 0.5877(3) 0.71865(6)
O24_6 O 0.8635(3) 0.2636(2) 0.83076(5)
N3_7 N 0.9135(3) 0.1707(2) 0.81710(6)
C43_6 C 0.8834(2) 0.2859(3) 0.77542(6)
C44_6 C 0.8898(2) 0.2507(3) 0.76095(6)
C45_4 C 0.8250(2) 0.2515(3) 0.73490(7)
C46_4 C 0.8550(2) 0.2876(3) 0.74771(6)
N4_4 N 0.7842(3) 0.4815(3) 0.70816(6)
C47_7 C 0.8940(2) 0.2485(3) 0.78940(7)
C48_4 C 0.8320(3) 0.4039(3) 0.73418(7)
C49_4 C 0.8539(2) 0.3646(3) 0.74789(7)
C50_7 C 0.9230(3) 0.1755(3) 0.78870(7)
C51_4 C 0.8040(3) 0.3647(3) 0.72145(6)
C52_6 C 0.8690(3) 0.4046(3) 0.76127(6)
C53_7 C 0.9272(3) 0.1826(3) 0.76101(7)
C55_7 C 0.6443(3) 0.6519(3) 0.66122(6)
C56_7 C 0.9335(3) 0.0389(3) 0.85671(7)
C57_7 C 0.6840(3) 0.6071(3) 0.67352(6)
C58_4 C 0.7965(3) 0.2871(3) 0.72222(7)
H16_4 H 0.7730 0.2610 0.7144
C59_4 C 0.7544(3) 0.5851(4) 0.67155(7)
H17_4 H 0.7805 0.5983 0.6627
C60_4 C 0.8211(3) 0.5216(3) 0.71953(7)
C61_4 C 0.8732(3) 0.5169(3) 0.74602(7)
H18_4 H 0.8849 0.5667 0.7451
C62_6 C 0.8870(3) 0.4800(3) 0.75983(7)
C63_7 C 0.9422(2) 0.1450(3) 0.77461(7)
H19_7 H 0.9653 0.0991 0.7743
C64_7 C 0.8825(3) 0.2399(3) 0.81816(7)
C65_6 C 0.8382(3) 0.3913(3) 0.79021(7)
C66_7 C 0.6454(3) 0.5888(4) 0.68660(6)
H20_7 H 0.5970 0.6053 0.6879
C67_6 C 0.8744(3) 0.2802(3) 0.80328(7)
C68_4 C 0.7764(3) 0.4055(4) 0.70776(7)
C69_6 C 0.8447(3) 0.3486(3) 0.80377(7)
H21_6 H 0.8283 0.3677 0.8131
C70_7 C 0.6780(3) 0.5463(4) 0.69772(7)
H22_7 H 0.6518 0.5319 0.7064
C71_7 C 0.9918(4) 0.0824(3) 0.85230(8)
C72_4 C 0.7880(3) 0.5414(4) 0.68324(7)
H24_4 H 0.8362 0.5243 0.6821
C73_4 C 0.7501(3) 0.5255(4) 0.69570(7)
C74_7 C 0.8599(4) 0.0882(3) 0.83577(8)
H25_7 H 0.8150 0.0931 0.8306
C75_7 C 0.9213(3) 0.1274(3) 0.83112(7)
C76_7 C 0.8671(3) 0.0403(3) 0.84862(7)
H26_7 H 0.8279 0.0101 0.8516
C77_7 C 0.9841(4) 0.1279(3) 0.83966(8)
C78_7 C 0.9356(3) 0.1341(3) 0.80325(7)
Zr6_2 Zr 0.61779(3) 0.67985(3) 0.62504(2)
Cl1_6 Cl 0.10502(8) 0.71562(7) 0.49457(2)
Zr2_4 Zr 0.42985(3) 0.63221(3) 0.62496(2)
O1_4 O 0.52003(16) 0.66859(17) 0.63716(3)
Cl4_6 Cl 0.09326(7) 0.55651(7) 0.48477(2)
O3_3 O 0.60505(16) 0.77863(17) 0.64121(3)
O4_3 O 0.27598(19) 0.76027(19) 0.62424(4)
O6_6 O 0.3058(2) 0.6386(2) 0.62323(4)
O8_6 O 0.1770(2) 0.7136(2) 0.55351(5)
O9_6 O 0.4491(2) 0.6618(2) 0.66719(5)
O11_6 O 0.3988(2) 0.5771(2) 0.64688(5)
N1_6 N 0.0793(2) 0.6635(3) 0.56710(6)
C7_6 C 0.0015(3) 0.6440(2) 0.53940(7)
C10_6 C 0.0745(3) 0.6730(3) 0.53870(7)
C13_6 C 0.0674(3) 0.6772(3) 0.51101(7)
C14_6 C 0.2680(3) 0.6935(3) 0.61914(7)
C16_6 C 0.2111(3) 0.6835(3) 0.60671(7)
C23_6 C 0.1050(3) 0.6922(2) 0.52461(7)
H4_6 H 0.1509 0.7153 0.5243
C24_6 C 0.0101(3) 0.6325(3) 0.56816(7)
C31_6 C 0.1676(3) 0.7418(4) 0.60230(8)
H8_5 H 0.1689 0.7860 0.6078
C34_6 C 0.1618(3) 0.6099(4) 0.58577(8)
H10_6 H 0.1569 0.5650 0.5806
C35_6 C 0.1226(3) 0.6713(3) 0.58112(7)
C36_6 C 0.2097(3) 0.6171(3) 0.59862(7)
H11_6 H 0.2399 0.5779 0.6016
C37_6 C 0.1221(3) 0.7341(4) 0.58966(8)
H12_5 H 0.0905 0.7726 0.5869
C38_6 C 0.1159(3) 0.6856(3) 0.55325(7)
C39_6 C 0.4165(4) 0.5992(4) 0.66169(7)
C40_6 C 0.3962(5) 0.5446(5) 0.67449(9)
H13_6 H 0.4406 0.5248 0.6790
H14_6 H 0.3673 0.5050 0.6702
H15_6 H 0.3682 0.5696 0.6823
Cl5_6 Cl 0.89498(8) 0.78438(7) 0.49457(2)
Zr3_3 Zr 0.57015(3) 0.86779(3) 0.62496(2)
O13_3 O 0.47997(16) 0.83141(17) 0.63716(3)
Cl8_6 Cl 0.90674(7) 0.94349(7) 0.48477(2)
O15_4 O 0.39495(16) 0.72137(17) 0.64121(3)
O16_4 O 0.72402(19) 0.73973(19) 0.62424(4)
O18_6 O 0.6942(2) 0.8614(2) 0.62323(4)
O20_8 O 0.8230(2) 0.7864(2) 0.55351(5)
O21_6 O 0.5509(2) 0.8382(2) 0.66719(5)
O23_6 O 0.6012(2) 0.9229(2) 0.64688(5)
N3_8 N 0.9207(2) 0.8365(3) 0.56710(6)
C47_8 C 0.9985(3) 0.8560(2) 0.53940(7)
C50_8 C 0.9255(3) 0.8270(3) 0.53870(7)
C53_8 C 0.9326(3) 0.8228(3) 0.51101(7)
C54_6 C 0.7320(3) 0.8065(3) 0.61914(7)
C56_8 C 0.7889(3) 0.8165(3) 0.60671(7)
C63_8 C 0.8950(3) 0.8078(2) 0.52461(7)
H19_8 H 0.8491 0.7847 0.5243
C64_8 C 0.9899(3) 0.8675(3) 0.56816(7)
C71_8 C 0.8324(3) 0.7582(4) 0.60230(8)
H23_7 H 0.8311 0.7140 0.6078
C74_8 C 0.8382(3) 0.8901(4) 0.58577(8)
H25_8 H 0.8431 0.9350 0.5806
C75_8 C 0.8774(3) 0.8287(3) 0.58112(7)
C76_8 C 0.7903(3) 0.8829(3) 0.59862(7)
H26_8 H 0.7601 0.9221 0.6016
C77_8 C 0.8779(3) 0.7659(4) 0.58966(8)
H27_7 H 0.9095 0.7274 0.5869
C78_8 C 0.8841(3) 0.8144(3) 0.55325(7)
C79_6 C 0.5835(4) 0.9008(4) 0.66169(7)
C80_6 C 0.6038(5) 0.9554(5) 0.67449(9)
H28_6 H 0.5594 0.9752 0.6790
H29_6 H 0.6327 0.9950 0.6702
H30_6 H 0.6318 0.9304 0.6823
O25_4 O 0.41859(17) 0.72997(16) 0.61284(3)
O26_3 O 0.58141(17) 0.77003(16) 0.61284(3)
O27_3 O 0.60227(18) 0.91858(18) 0.60245(4)
O28_4 O 0.39773(18) 0.58142(18) 0.60245(4)
O29_4 O 0.52863(17) 0.64495(16) 0.60879(3)
O30_3 O 0.47137(17) 0.85505(16) 0.60879(3)
O31_3 O 0.51027(19) 0.97402(19) 0.62576(4)
O32_4 O 0.48973(19) 0.52598(19) 0.62576(4)
Zr1_5 Zr 0.5000 0.7500 0.59644(2)
C1_6 C 0.6348(3) 0.1372(3) 0.72398(6)
Cl1_7 Cl 0.53438(7) 0.35502(8) 0.75543(2)
C2_6 C 0.6578(3) 0.0200(3) 0.76633(7)
Cl2_6 Cl 0.70901(10) 0.02594(8) 0.70858(2)
Cl4_7 Cl 0.69349(7) 0.34326(7) 0.76523(2)
O6_7 O 0.6114(2) 0.5558(2) 0.62677(4)
O7_6 O 0.7570(2) 0.1246(2) 0.80279(5)
O8_7 O 0.5364(2) 0.4270(2) 0.69649(5)
O9_7 O 0.5882(2) 0.6991(2) 0.58281(5)
O11_7 O 0.6729(2) 0.6488(2) 0.60312(5)
O12_6 O 0.6365(3) 0.2364(2) 0.66924(5)
N1_7 N 0.5865(3) 0.3293(2) 0.68290(6)
C3_6 C 0.6166(2) 0.2141(3) 0.72458(6)
C4_6 C 0.6102(2) 0.2493(3) 0.73905(6)
C5_6 C 0.6750(2) 0.2485(3) 0.76510(7)
C6_6 C 0.6450(2) 0.2124(3) 0.75229(6)
N2_6 N 0.7158(3) 0.0185(3) 0.79184(6)
C7_7 C 0.6060(2) 0.2515(3) 0.71060(7)
C8_6 C 0.6680(3) 0.0961(3) 0.76582(7)
C9_6 C 0.6461(2) 0.1354(3) 0.75211(7)
C10_7 C 0.5770(3) 0.3245(3) 0.71130(7)
C11_6 C 0.6960(3) 0.1353(3) 0.77855(6)
C12_6 C 0.6310(3) 0.0954(3) 0.73873(6)
C13_7 C 0.5728(3) 0.3174(3) 0.73899(7)
C14_7 C 0.5565(3) 0.5180(3) 0.63086(7)
C16_7 C 0.5665(3) 0.4611(3) 0.64329(7)
C18_6 C 0.7035(3) 0.2129(3) 0.77778(7)
H1_6 H 0.7270 0.2390 0.7856
C22_6 C 0.6130(3) 0.0200(3) 0.74017(7)
C23_7 C 0.5578(2) 0.3550(3) 0.72539(7)
H4_7 H 0.5347 0.4009 0.7257
C24_7 C 0.6175(3) 0.2601(3) 0.68184(7)
C25_6 C 0.6618(3) 0.1087(3) 0.70979(7)
C27_6 C 0.6256(3) 0.2198(3) 0.69672(7)
C28_6 C 0.7236(3) 0.0945(4) 0.79224(7)
C29_6 C 0.6553(3) 0.1514(3) 0.69623(7)
H6_6 H 0.6717 0.1323 0.6869
C31_7 C 0.5082(4) 0.4176(3) 0.64770(8)
H8_6 H 0.4640 0.4189 0.6422
C34_7 C 0.6401(4) 0.4118(3) 0.66423(8)
H10_7 H 0.6850 0.4069 0.6694
C35_7 C 0.5787(3) 0.3726(3) 0.66888(7)
C36_7 C 0.6329(3) 0.4597(3) 0.65138(7)
H11_7 H 0.6721 0.4899 0.6484
C37_7 C 0.5159(4) 0.3721(3) 0.66034(8)
H12_6 H 0.4774 0.3405 0.6631
C38_7 C 0.5644(3) 0.3659(3) 0.69675(7)
C39_7 C 0.6508(4) 0.6665(4) 0.58831(7)
C40_7 C 0.7054(5) 0.6462(5) 0.57551(9)
H13_7 H 0.7252 0.6906 0.5710
H14_7 H 0.7450 0.6173 0.5798
H15_7 H 0.6804 0.6182 0.5677
O18_7 O 0.3886(2) 0.9442(2) 0.62677(4)
O21_7 O 0.4118(2) 0.8009(2) 0.58281(5)
O23_7 O 0.3271(2) 0.8512(2) 0.60312(5)
C54_7 C 0.4435(3) 0.9820(3) 0.63086(7)
C79_7 C 0.3492(4) 0.8335(4) 0.58831(7)
C80_7 C 0.2946(5) 0.8538(5) 0.57551(9)
H28_7 H 0.2748 0.8094 0.5710
H29_7 H 0.2550 0.8827 0.5798
H30_7 H 0.3196 0.8818 0.5677
O33_3 O 0.4389(2) 0.66039(19) 0.58438(4)
O34_4 O 0.5611(2) 0.83961(19) 0.58438(4)
C1_7 C 0.1128(3) 0.3848(3) 0.47398(6)
C2_7 C 0.2300(3) 0.4078(3) 0.51633(7)
Cl2_7 Cl 0.22406(8) 0.45901(10) 0.45858(2)
Cl3_6 Cl 0.27832(8) 0.31925(9) 0.47558(2)
O7_7 O 0.1254(2) 0.5070(2) 0.55279(5)
O10_6 O 0.3377(3) 0.4210(3) 0.53135(6)
O12_7 O 0.0136(2) 0.3865(3) 0.41924(5)
C3_7 C 0.0359(3) 0.3666(2) 0.47458(6)
C4_7 C 0.0007(3) 0.3602(2) 0.48905(6)
C5_7 C 0.0015(3) 0.4250(2) 0.51510(7)
C6_7 C 0.0376(3) 0.3950(2) 0.50229(6)
N2_7 N 0.2315(3) 0.4658(3) 0.54184(6)
C8_7 C 0.1539(3) 0.4180(3) 0.51582(7)
C9_7 C 0.1146(3) 0.3961(2) 0.50211(7)
C11_7 C 0.1147(3) 0.4460(3) 0.52855(6)
C12_7 C 0.1546(3) 0.3810(3) 0.48873(6)
C15_6 C 0.4019(3) 0.6057(3) 0.58878(6)
C17_6 C 0.3571(3) 0.5660(3) 0.57648(6)
C18_7 C 0.0371(3) 0.4535(3) 0.52778(7)
H1_7 H 0.0110 0.4770 0.5356
C19_6 C 0.3351(4) 0.4956(3) 0.57845(7)
H2_6 H 0.3483 0.4695 0.5873
C20_6 C 0.2716(3) 0.4289(3) 0.53047(7)
C21_6 C 0.2669(3) 0.3768(3) 0.50398(7)
H3_6 H 0.3167 0.3651 0.5049
C22_7 C 0.2300(3) 0.3630(3) 0.49017(7)
C25_7 C 0.1413(3) 0.4118(3) 0.45979(7)
C26_6 C 0.3388(4) 0.6046(3) 0.56340(6)
H5_6 H 0.3553 0.6530 0.5621
C27_7 C 0.0302(3) 0.3756(3) 0.44672(7)
C28_7 C 0.1555(4) 0.4736(3) 0.54224(7)
C29_7 C 0.0986(3) 0.4053(3) 0.44623(7)
H6_7 H 0.1177 0.4217 0.4369
C30_6 C 0.2963(4) 0.5720(3) 0.55228(7)
H7_6 H 0.2819 0.5982 0.5436
C32_6 C 0.2914(4) 0.4620(3) 0.56676(7)
H9_6 H 0.2743 0.4138 0.5679
C33_6 C 0.2755(4) 0.4999(3) 0.55430(7)
O19_8 O 0.8746(2) 0.9930(2) 0.55279(5)
C55_8 C 0.5981(3) 0.8943(3) 0.58878(6)
C57_8 C 0.6429(3) 0.9340(3) 0.57648(6)
C66_8 C 0.6612(4) 0.8954(3) 0.56340(6)
H20_8 H 0.6447 0.8470 0.5621
C70_8 C 0.7037(4) 0.9280(3) 0.55228(7)
H22_8 H 0.7181 0.9018 0.5436
Zr1_6 Zr 1.0000 0.7500 0.90356(2)
O3_4 O 0.97137(17) 0.85505(16) 0.89121(3)
O4_4 O 0.98973(19) 0.52598(19) 0.87424(4)
H8_7 H 0.9640 0.4189 0.8578
H12_7 H 0.9774 0.3405 0.8369
Zr3_4 Zr 0.88221(3) 0.82015(3) 0.87496(2)
O13_4 O 0.91859(17) 0.72997(16) 0.88716(3)
O18_8 O 0.8886(2) 0.9442(2) 0.87323(4)
O21_8 O 0.9118(2) 0.8009(2) 0.91719(5)
O23_8 O 0.8271(2) 0.8512(2) 0.89688(5)
C54_8 C 0.9435(3) 0.9820(3) 0.86914(7)
C79_8 C 0.8492(4) 0.8335(4) 0.91169(7)
C80_8 C 0.7946(5) 0.8538(5) 0.92449(9)
H28_8 H 0.7748 0.8094 0.9290
H29_8 H 0.7550 0.8827 0.9202
H30_8 H 0.8196 0.8818 0.9323
Zr7_2 Zr 0.92985(3) 0.63221(3) 0.87504(2)
O26_4 O 0.97997(16) 0.83141(17) 0.86284(3)
O27_4 O 0.83142(18) 0.85227(18) 0.85245(4)
O30_4 O 0.89495(16) 0.72137(17) 0.85879(3)
O31_4 O 0.77598(19) 0.76027(19) 0.87576(4)
O33_4 O 0.9389(2) 0.66039(19) 0.91562(4)
Cl1_8 Cl 0.39498(8) 0.28438(7) 0.99457(2)
C2_8 C 0.7300(3) 0.4078(3) 0.98367(7)
Cl4_8 Cl 0.40674(7) 0.44349(7) 0.98477(2)
O2_4 O 0.89773(18) 0.58142(18) 0.89755(4)
O7_8 O 0.6254(2) 0.5070(2) 0.94721(5)
O10_7 O 0.8377(3) 0.4210(3) 0.96865(6)
C5_8 C 0.5015(3) 0.4250(2) 0.98490(7)
C6_8 C 0.5376(3) 0.3950(2) 0.99771(6)
N2_8 N 0.7315(3) 0.4658(3) 0.95816(6)
C8_8 C 0.6539(3) 0.4180(3) 0.98418(7)
C9_8 C 0.6146(3) 0.3961(2) 0.99789(7)
C11_8 C 0.6147(3) 0.4460(3) 0.97145(6)
C15_7 C 0.9019(3) 0.6057(3) 0.91122(6)
C17_7 C 0.8571(3) 0.5660(3) 0.92352(6)
C18_8 C 0.5371(3) 0.4535(3) 0.97222(7)
H1_8 H 0.5110 0.4770 0.9644
C19_7 C 0.8351(4) 0.4956(3) 0.92155(7)
H2_7 H 0.8483 0.4695 0.9127
C20_7 C 0.7716(3) 0.4289(3) 0.96953(7)
C21_7 C 0.7669(3) 0.3768(3) 0.99602(7)
H3_7 H 0.8167 0.3651 0.9951
C26_7 C 0.8388(4) 0.6046(3) 0.93660(6)
H5_7 H 0.8553 0.6530 0.9379
C28_8 C 0.6555(4) 0.4736(3) 0.95776(7)
C30_7 C 0.7963(4) 0.5720(3) 0.94772(7)
H7_7 H 0.7819 0.5982 0.9564
C32_7 C 0.7914(4) 0.4620(3) 0.93324(7)
H9_7 H 0.7743 0.4138 0.9321
C33_7 C 0.7755(4) 0.4999(3) 0.94570(7)
Cl3_7 Cl 0.56925(9) 0.97168(8) 0.72558(2)
O5_4 O 0.91039(19) 0.8111(2) 0.83438(4)
O10_8 O 0.6710(3) 0.9123(3) 0.78135(6)
C15_8 C 0.8557(3) 0.8481(3) 0.83878(6)
C17_8 C 0.8160(3) 0.8929(3) 0.82648(6)
C19_8 C 0.7456(3) 0.9149(4) 0.82845(7)
H2_8 H 0.7195 0.9017 0.8373
C20_8 C 0.6789(3) 0.9784(3) 0.78047(7)
C21_8 C 0.6268(3) 0.9831(3) 0.75398(7)
H3_8 H 0.6151 0.9333 0.7549
C26_8 C 0.8546(3) 0.9112(4) 0.81340(6)
H5_8 H 0.9030 0.8947 0.8121
C30_8 C 0.8220(3) 0.9537(4) 0.80228(7)
H7_8 H 0.8482 0.9681 0.7936
C32_8 C 0.7120(3) 0.9586(4) 0.81676(7)
H9_8 H 0.6638 0.9757 0.8179
C33_8 C 0.7499(3) 0.9745(4) 0.80430(7)
Zr4_3 Zr 1.0000 0.7500 0.84644(2)
C1_8 C 0.3872(3) 0.6152(3) 0.97398(6)
Cl2_8 Cl 0.27594(8) 0.54099(10) 0.95858(2)
Cl3_8 Cl 0.22168(8) 0.68075(9) 0.97558(2)
O6_8 O 0.8058(2) 0.6386(2) 0.87677(4)
O8_8 O 0.6770(2) 0.7136(2) 0.94649(5)
O9_8 O 0.9491(2) 0.6618(2) 0.83281(5)
O11_8 O 0.8988(2) 0.5771(2) 0.85312(5)
O12_8 O 0.4864(2) 0.6135(3) 0.91924(5)
N1_8 N 0.5793(2) 0.6635(3) 0.93290(6)
C3_8 C 0.4641(3) 0.6334(2) 0.97458(6)
C4_8 C 0.4993(3) 0.6398(2) 0.98905(6)
C7_8 C 0.5015(3) 0.6440(2) 0.96060(7)
C10_8 C 0.5745(3) 0.6730(3) 0.96130(7)
C12_8 C 0.3454(3) 0.6190(3) 0.98873(6)
C13_8 C 0.5674(3) 0.6772(3) 0.98899(7)
C14_8 C 0.7680(3) 0.6935(3) 0.88086(7)
C16_8 C 0.7111(3) 0.6835(3) 0.89329(7)
C22_8 C 0.2700(3) 0.6370(3) 0.99017(7)
C23_8 C 0.6050(3) 0.6922(2) 0.97539(7)
H4_8 H 0.6509 0.7153 0.9757
C24_8 C 0.5101(3) 0.6325(3) 0.93184(7)
C25_8 C 0.3587(3) 0.5882(3) 0.95979(7)
C27_8 C 0.4698(3) 0.6244(3) 0.94672(7)
C29_8 C 0.4014(3) 0.5947(3) 0.94623(7)
H6_8 H 0.3823 0.5783 0.9369
C31_8 C 0.6676(3) 0.7418(4) 0.89770(8)
H8_8 H 0.6689 0.7860 0.8922
C34_8 C 0.6618(3) 0.6099(4) 0.91423(8)
H10_8 H 0.6569 0.5650 0.9194
C35_8 C 0.6226(3) 0.6713(3) 0.91888(7)
C36_8 C 0.7097(3) 0.6171(3) 0.90138(7)
H11_8 H 0.7399 0.5779 0.8984
C37_8 C 0.6221(3) 0.7341(4) 0.91034(8)
H12_8 H 0.5905 0.7726 0.9131
C38_8 C 0.6159(3) 0.6856(3) 0.94675(7)
C39_8 C 0.9165(4) 0.5992(4) 0.83831(7)
C40_8 C 0.8962(5) 0.5446(5) 0.82551(9)
H13_8 H 0.9406 0.5248 0.8210
H14_8 H 0.8673 0.5050 0.8298
H15_8 H 0.8682 0.5696 0.8177
C41_7 C 0.1128(3) 0.8848(3) 0.52602(6)
C42_5 C 0.2300(3) 0.9078(3) 0.48367(7)
Cl6_7 Cl 0.22406(8) 0.95901(10) 0.54142(2)
Cl7_7 Cl 0.27832(8) 0.81925(9) 0.52442(2)
O22_5 O 0.3377(3) 0.9210(3) 0.46865(6)
O24_7 O 0.0136(2) 0.8865(3) 0.58076(5)
C43_7 C 0.0359(3) 0.8666(2) 0.52542(6)
C44_7 C 0.0007(3) 0.8602(2) 0.51095(6)
C45_5 C 0.0015(3) 0.9250(2) 0.48490(7)
C46_5 C 0.0376(3) 0.8950(2) 0.49771(6)
N4_5 N 0.2315(3) 0.9658(3) 0.45816(6)
C48_5 C 0.1539(3) 0.9180(3) 0.48418(7)
C49_5 C 0.1146(3) 0.8961(2) 0.49789(7)
C51_5 C 0.1147(3) 0.9460(3) 0.47145(6)
C52_7 C 0.1546(3) 0.8810(3) 0.51127(6)
C58_5 C 0.0371(3) 0.9535(3) 0.47222(7)
H16_5 H 0.0110 0.9770 0.4644
C59_5 C 0.3351(4) 0.9956(3) 0.42155(7)
H17_5 H 0.3483 0.9695 0.4127
C60_5 C 0.2716(3) 0.9289(3) 0.46953(7)
C61_5 C 0.2669(3) 0.8768(3) 0.49602(7)
H18_5 H 0.3167 0.8651 0.4951
C62_7 C 0.2300(3) 0.8630(3) 0.50983(7)
C65_7 C 0.1413(3) 0.9118(3) 0.54021(7)
C67_7 C 0.0302(3) 0.8756(3) 0.55328(7)
C68_5 C 0.1555(4) 0.9736(3) 0.45776(7)
C69_7 C 0.0986(3) 0.9053(3) 0.55377(7)
H21_7 H 0.1177 0.9217 0.5631
C72_5 C 0.2914(4) 0.9620(3) 0.43324(7)
H24_5 H 0.2743 0.9138 0.4321
C73_5 C 0.2755(4) 0.9999(3) 0.44570(7)
Cl5_7 Cl 0.60502(8) 0.21562(7) 0.99457(2)
C42_6 C 0.2700(3) 0.0922(3) 0.98367(7)
Cl8_7 Cl 0.59326(7) 0.05651(7) 0.98477(2)
O22_6 O 0.1623(3) 0.0790(3) 0.96865(6)
C45_6 C 0.4985(3) 0.0750(2) 0.98490(7)
C46_6 C 0.4624(3) 0.1050(2) 0.99771(6)
N4_6 N 0.2685(3) 0.0342(3) 0.95816(6)
C48_6 C 0.3461(3) 0.0820(3) 0.98418(7)
C49_6 C 0.3854(3) 0.1039(2) 0.99789(7)
C51_6 C 0.3853(3) 0.0540(3) 0.97145(6)
C58_6 C 0.4629(3) 0.0465(3) 0.97222(7)
H16_6 H 0.4890 0.0230 0.9644
C59_6 C 0.1649(4) 0.0044(3) 0.92155(7)
H17_6 H 0.1517 0.0305 0.9127
C60_6 C 0.2284(3) 0.0711(3) 0.96953(7)
C61_6 C 0.2331(3) 0.1232(3) 0.99602(7)
H18_6 H 0.1833 0.1349 0.9951
C68_6 C 0.3445(4) 0.0264(3) 0.95776(7)
C72_6 C 0.2086(4) 0.0380(3) 0.93324(7)
H24_6 H 0.2257 0.0862 0.9321
C73_6 C 0.2245(4) 0.0001(3) 0.94570(7)
H23_8 H 0.9640 0.9189 0.1422
H27_8 H 0.9774 0.8405 0.1631
C41_8 C 0.8872(3) 0.1152(3) 0.47398(6)
C42_7 C 0.7700(3) 0.0922(3) 0.51633(7)
Cl6_8 Cl 0.77594(8) 0.04099(10) 0.45858(2)
Cl7_8 Cl 0.72168(8) 0.18075(9) 0.47558(2)
O22_7 O 0.6623(3) 0.0790(3) 0.53135(6)
O24_8 O 0.9864(2) 0.1135(3) 0.41924(5)
C43_8 C 0.9641(3) 0.1334(2) 0.47458(6)
C44_8 C 0.9993(3) 0.1398(2) 0.48905(6)
C45_7 C 0.9985(3) 0.0750(2) 0.51510(7)
C46_7 C 0.9624(3) 0.1050(2) 0.50229(6)
N4_7 N 0.7685(3) 0.0342(3) 0.54184(6)
C48_7 C 0.8461(3) 0.0820(3) 0.51582(7)
C49_7 C 0.8854(3) 0.1039(2) 0.50211(7)
C51_7 C 0.8853(3) 0.0540(3) 0.52855(6)
C52_8 C 0.8454(3) 0.1190(3) 0.48873(6)
C58_7 C 0.9629(3) 0.0465(3) 0.52778(7)
H16_7 H 0.9890 0.0230 0.5356
C59_7 C 0.6649(4) 0.0044(3) 0.57845(7)
H17_7 H 0.6517 0.0305 0.5873
C60_7 C 0.7284(3) 0.0711(3) 0.53047(7)
C61_7 C 0.7331(3) 0.1232(3) 0.50398(7)
H18_7 H 0.6833 0.1349 0.5049
C62_8 C 0.7700(3) 0.1370(3) 0.49017(7)
C65_8 C 0.8587(3) 0.0882(3) 0.45979(7)
C67_8 C 0.9698(3) 0.1244(3) 0.44672(7)
C68_7 C 0.8445(4) 0.0264(3) 0.54224(7)
C69_8 C 0.9014(3) 0.0947(3) 0.44623(7)
H21_8 H 0.8823 0.0783 0.4369
C72_7 C 0.7086(4) 0.0380(3) 0.56676(7)
H24_7 H 0.7257 0.0862 0.5679
C73_7 C 0.7245(4) 0.0001(3) 0.55430(7)
Cl5_8 Cl 0.39498(8) 0.78438(7) 0.00543(2)
C42_8 C 0.7300(3) 0.9078(3) 0.01633(7)
Cl8_8 Cl 0.40674(7) 0.94349(7) 0.01523(2)
O22_8 O 0.8377(3) 0.9210(3) 0.03135(6)
C45_8 C 0.5015(3) 0.9250(2) 0.01510(7)
C46_8 C 0.5376(3) 0.8950(2) 0.00229(6)
N4_8 N 0.7315(3) 0.9658(3) 0.04184(6)
C48_8 C 0.6539(3) 0.9180(3) 0.01582(7)
C49_8 C 0.6146(3) 0.8961(2) 0.00211(7)
C51_8 C 0.6147(3) 0.9460(3) 0.02855(6)
C58_8 C 0.5371(3) 0.9535(3) 0.02778(7)
H16_8 H 0.5110 0.9770 0.0356
C59_8 C 0.8351(4) 0.9956(3) 0.07845(7)
H17_8 H 0.8483 0.9695 0.0873
C60_8 C 0.7716(3) 0.9289(3) 0.03047(7)
C61_8 C 0.7669(3) 0.8768(3) 0.00398(7)
H18_8 H 0.8167 0.8651 0.0049
C68_8 C 0.6555(4) 0.9736(3) 0.04224(7)
C72_8 C 0.7914(4) 0.9620(3) 0.06676(7)
H24_8 H 0.7743 0.9138 0.0679
C73_8 C 0.7755(4) 0.9999(3) 0.05430(7)
loop_
_geom_bond_atom_site_label_1
_geom_bond_atom_site_label_2
_geom_bond_site_symmetry_1
_geom_bond_site_symmetry_2
O2 C15 1_555 1_555
O5 C15 1_555 1_555
O10 C20 1_555 1_555
C15 C17 1_555 1_555
C17 C19 1_555 1_555
C19 H2 1_555 1_555
H3 C21 1_555 1_555
C26 C17 1_555 1_555
H5 C26 1_555 1_555
C30 C26 1_555 1_555
H7 C30 1_555 1_555
C32 C19 1_555 1_555
H9 C32 1_555 1_555
Zr5 O5 1_555 1_555
Zr8 O2 1_555 1_555
C30 C33 1_555 1_555
C32 C33 1_555 1_555
C1 C3 1_555 1_555
Cl2 C25 1_555 1_555
Cl3_2 C22 1_555 1_555
O4 C14 1_555 1_555
O6 Zr2 1_555 1_555
O8 C38 1_555 1_555
O9 Zr5 1_555 1_555
O11 Zr2 1_555 1_555
O12 C24 1_555 1_555
N1 C24 1_555 1_555
C3 C4 1_555 1_555
C7 C3 1_555 1_555
C10 C7 1_555 1_555
C12 C1 1_555 1_555
C13 C4 1_555 1_555
C14 O6 1_555 1_555
C16 C14 1_555 1_555
C22 C12 1_555 1_555
C23 C10 1_555 1_555
H4 C23 1_555 1_555
C24 C27 1_555 1_555
C25 C1 1_555 1_555
C27 C7 1_555 1_555
C29 C25 1_555 1_555
H6 C29 1_555 1_555
C31 C16 1_555 1_555
H8 C31 1_555 1_555
C34 H10 1_555 1_555
C35 N1 1_555 1_555
C36 C16 1_555 1_555
H11 C36 1_555 1_555
C37 C31 1_555 1_555
H12 C37 1_555 1_555
C38 N1 1_555 1_555
C39 O9 1_555 1_555
C40 C39 1_555 1_555
H13 C40 1_555 1_555
H14 C40 1_555 1_555
H15 C40 1_555 1_555
O13 Zr5 1_555 1_555
O15 Zr5 1_555 1_555
Zr8 O4 1_555 1_555
O25 Zr2 1_555 1_555
O28 Zr2 1_555 1_555
O32 Zr2 1_555 1_555
Zr2 O15 1_555 1_555
O11 C39 1_555 1_555
C10 C38 1_555 1_555
C13 C23 1_555 1_555
C27 C29 1_555 1_555
C34 C35 1_555 1_555
C34 C36 1_555 1_555
C35 C37 1_555 1_555
O13 Zr8 1_555 1_555
O15 Zr8 1_555 1_555
Zr8 O25 1_555 1_555
Zr8 O30 1_555 1_555
O30 Zr1 1_555 1_555
O25 Zr1 1_555 1_555
O18 Zr8 1_555 1_555
O21 Zr1 1_555 1_555
O23 Zr8 1_555 1_555
C54 O18 1_555 1_555
C79 O21 1_555 1_555
C80 C79 1_555 1_555
H28 C80 1_555 1_555
H29 C80 1_555 1_555
H30 C80 1_555 1_555
O33 Zr1 1_555 1_555
O23 C79 1_555 1_555
C2 C8 1_555 1_555
Cl4 C5 1_555 1_555
O28 C15_2 1_555 1_555
O33 C15_2 1_555 1_555
O7 C28 1_555 1_555
O10_2 C20_2 1_555 1_555
C5 C6 1_555 1_555
C6 C9 1_555 1_555
N2 C20_2 1_555 1_555
C8 C9 1_555 1_555
C11 C8 1_555 1_555
C15_2 C17_2 1_555 1_555
C17_2 C19_2 1_555 1_555
C18 C5 1_555 1_555
H1 C18 1_555 1_555
C19_2 H2_2 1_555 1_555
C20_2 C2 1_555 1_555
C21_2 C2 1_555 1_555
H3_2 C21_2 1_555 1_555
C26_2 C17_2 1_555 1_555
H5_2 C26_2 1_555 1_555
C28 N2 1_555 1_555
C30_2 C26_2 1_555 1_555
H7_2 C30_2 1_555 1_555
C32_2 C19_2 1_555 1_555
H9_2 C32_2 1_555 1_555
C33_2 N2 1_555 1_555
C11 C18 1_555 1_555
C11 C28 1_555 1_555
C30_2 C33_2 1_555 1_555
C32_2 C33_2 1_555 1_555
Zr1_2 O1 1_555 1_555
C1_2 C3_2 1_555 1_555
Cl1_2 C13_2 1_555 1_555
Zr2_2 O1 1_555 1_555
C2_2 C8_2 1_555 1_555
Cl2_2 C25_2 1_555 1_555
O1 Zr9 1_555 1_555
Cl4_2 C5_2 1_555 1_555
O3 Zr1_2 1_555 1_555
O4_2 C14_2 1_555 1_555
O6_2 Zr2_2 1_555 1_555
O7_2 C28_2 1_555 1_555
O8_2 C38_2 1_555 1_555
O9_2 Zr1_2 1_555 1_555
O11_2 Zr2_2 1_555 1_555
O12_2 C24_2 1_555 1_555
N1_2 C24_2 1_555 1_555
C3_2 C4_2 1_555 1_555
C4_2 C6_2 1_555 1_555
C5_2 C6_2 1_555 1_555
C6_2 C9_2 1_555 1_555
C7_2 C3_2 1_555 1_555
C8_2 C9_2 1_555 1_555
C9_2 C12_2 1_555 1_555
C10_2 C7_2 1_555 1_555
C11_2 C8_2 1_555 1_555
C12_2 C1_2 1_555 1_555
C13_2 C4_2 1_555 1_555
C14_2 O6_2 1_555 1_555
C16_2 C14_2 1_555 1_555
C18_2 C5_2 1_555 1_555
H1_2 C18_2 1_555 1_555
C22_2 C12_2 1_555 1_555
C23_2 C10_2 1_555 1_555
H4_2 C23_2 1_555 1_555
C24_2 C27_2 1_555 1_555
C25_2 C1_2 1_555 1_555
C27_2 C7_2 1_555 1_555
C28_2 N2_2 1_555 1_555
C29_2 C25_2 1_555 1_555
H6_2 C29_2 1_555 1_555
C31_2 C16_2 1_555 1_555
H8_3 C31_2 1_555 1_555
C34_2 H10_2 1_555 1_555
C35_2 N1_2 1_555 1_555
C36_2 C16_2 1_555 1_555
H11_2 C36_2 1_555 1_555
C37_2 C31_2 1_555 1_555
H12_3 C37_2 1_555 1_555
C38_2 N1_2 1_555 1_555
C39_2 O9_2 1_555 1_555
C40_2 C39_2 1_555 1_555
H13_2 C40_2 1_555 1_555
H14_2 C40_2 1_555 1_555
H15_2 C40_2 1_555 1_555
Zr3 O3 1_555 1_555
O13_2 Zr1_2 1_555 1_555
O15_2 Zr1_2 1_555 1_555
O16 C54_2 1_555 1_555
O18_2 Zr3 1_555 1_555
O21_2 Zr1_2 1_555 1_555
O23_2 Zr3 1_555 1_555
C54_2 O18_2 1_555 1_555
C79_2 O21_2 1_555 1_555
C80_2 C79_2 1_555 1_555
H28_2 C80_2 1_555 1_555
H29_2 C80_2 1_555 1_555
H30_2 C80_2 1_555 1_555
Zr7 O4_2 1_555 1_555
Zr9 O3 1_555 1_555
O25_2 Zr2_2 1_555 1_555
O26 Zr3 1_555 1_555
O27 Zr3 1_555 1_555
O28_2 Zr2_2 1_555 1_555
O29 Zr2_2 1_555 1_555
O30_2 Zr3 1_555 1_555
O31 Zr3 1_555 1_555
O32_2 Zr2_2 1_555 1_555
O33_2 Zr1_2 1_555 1_555
O34 Zr1_2 1_555 1_555
Zr2_2 O15_2 1_555 1_555
O11_2 C39_2 1_555 1_555
C10_2 C38_2 1_555 1_555
C11_2 C18_2 1_555 1_555
C11_2 C28_2 1_555 1_555
C13_2 C23_2 1_555 1_555
C27_2 C29_2 1_555 1_555
C34_2 C35_2 1_555 1_555
C34_2 C36_2 1_555 1_555
C35_2 C37_2 1_555 1_555
Zr3 O13_2 1_555 1_555
O13_2 Zr7 1_555 1_555
O15_2 Zr7 1_555 1_555
O16 Zr9 1_555 1_555
O23_2 C79_2 1_555 1_555
Zr7 O25_2 1_555 1_555
Zr7 O30_2 1_555 1_555
Zr9 O26 1_555 1_555
Zr9 O29 1_555 1_555
O14 C55 1_555 1_555
O34 C55 1_555 1_555
C55 C57 1_555 1_555
C66 C57 1_555 1_555
H20 C66 1_555 1_555
C70 C66 1_555 1_555
H22 C70 1_555 1_555
Zr9 O14 1_555 1_555
C1_3 C3_3 1_555 1_555
C2_3 C8_3 1_555 1_555
Cl2_3 C25_3 1_555 1_555
Cl3_3 C22_3 1_555 1_555
O2_2 C15_3 1_555 1_555
O33_2 C15_3 1_555 1_555
O7_3 C28_3 1_555 1_555
O10_3 C20_3 1_555 1_555
C3_3 C4_3 1_555 1_555
C4_3 C6_3 1_555 1_555
C5_3 C6_3 1_555 1_555
C6_3 C9_3 1_555 1_555
N2_3 C20_3 1_555 1_555
C8_3 C9_3 1_555 1_555
C9_3 C12_3 1_555 1_555
C11_3 C8_3 1_555 1_555
C12_3 C1_3 1_555 1_555
C15_3 C17_3 1_555 1_555
C17_3 C19_3 1_555 1_555
C18_3 C5_3 1_555 1_555
H1_3 C18_3 1_555 1_555
C19_3 H2_3 1_555 1_555
C20_3 C2_3 1_555 1_555
C21_3 C2_3 1_555 1_555
H3_3 C21_3 1_555 1_555
C22_3 C12_3 1_555 1_555
C25_3 C1_3 1_555 1_555
C26_3 C17_3 1_555 1_555
H5_3 C26_3 1_555 1_555
C28_3 N2_3 1_555 1_555
C29_3 C25_3 1_555 1_555
H6_3 C29_3 1_555 1_555
C30_3 C26_3 1_555 1_555
H7_3 C30_3 1_555 1_555
C32_3 C19_3 1_555 1_555
H9_3 C32_3 1_555 1_555
C33_3 N2_3 1_555 1_555
Zr7 O2_2 1_555 1_555
C11_3 C18_3 1_555 1_555
C11_3 C28_3 1_555 1_555
C21_3 C22_3 1_555 1_555
C27_3 C29_3 1_555 1_555
C30_3 C33_3 1_555 1_555
C32_3 C33_3 1_555 1_555
C41 C43 1_555 1_555
Cl5 C53 1_555 1_555
C42 C48 1_555 1_555
Cl6 C65 1_555 1_555
Cl7 C62 1_555 1_555
Cl8 C45 1_555 1_555
O28_2 C55_2 1_555 1_555
O17 C55_2 1_555 1_555
O19_2 C68 1_555 1_555
O20 C78 1_555 1_555
O22 C60 1_555 1_555
O24 C64 1_555 1_555
N3 C64 1_555 1_555
C43 C44 1_555 1_555
C44 C46 1_555 1_555
C45 C46 1_555 1_555
C46 C49 1_555 1_555
N4 C60 1_555 1_555
C47 C43 1_555 1_555
C48 C49 1_555 1_555
C49 C52 1_555 1_555
C50 C47 1_555 1_555
C51 C48 1_555 1_555
C52 C41 1_555 1_555
C53 C44 1_555 1_555
C55_2 C57_2 1_555 1_555
C57_2 C59 1_555 1_555
C58 C45 1_555 1_555
H16 C58 1_555 1_555
C59 H17 1_555 1_555
C60 C42 1_555 1_555
C61 C42 1_555 1_555
H18 C61 1_555 1_555
C62 C52 1_555 1_555
C63 C50 1_555 1_555
H19 C63 1_555 1_555
C64 C67 1_555 1_555
C65 C41 1_555 1_555
C66_2 C57_2 1_555 1_555
H20_2 C66_2 1_555 1_555
C67 C47 1_555 1_555
C68 N4 1_555 1_555
C69 C65 1_555 1_555
H21 C69 1_555 1_555
C70_2 C66_2 1_555 1_555
H22_2 C70_2 1_555 1_555
C71 C56 1_555 1_555
C72 C59 1_555 1_555
H24 C72 1_555 1_555
C73 N4 1_555 1_555
C74 H25 1_555 1_555
C75 N3 1_555 1_555
C76 C56 1_555 1_555
H26 C76 1_555 1_555
C77 C71 1_555 1_555
C78 N3 1_555 1_555
Zr5_2 O17 1_555 1_555
C50 C78 1_555 1_555
C51 C58 1_555 1_555
C51 C68 1_555 1_555
C53 C63 1_555 1_555
C61 C62 1_555 1_555
C67 C69 1_555 1_555
C70_2 C73 1_555 1_555
C72 C73 1_555 1_555
C74 C75 1_555 1_555
C74 C76 1_555 1_555
C75 C77 1_555 1_555
O27 C15_4 1_555 1_555
O5_2 C15_4 1_555 1_555
O10_4 C20_4 1_555 1_555
C15_4 C17_4 1_555 1_555
C17_4 C19_4 1_555 1_555
C19_4 H2_4 1_555 1_555
H3_4 C21_4 1_555 1_555
C26_4 C17_4 1_555 1_555
H5_4 C26_4 1_555 1_555
C30_4 C26_4 1_555 1_555
H7_4 C30_4 1_555 1_555
C32_4 C19_4 1_555 1_555
H9_4 C32_4 1_555 1_555
Zr5_2 O5_2 1_555 1_555
C30_4 C33_4 1_555 1_555
C32_4 C33_4 1_555 1_555
Zr5_2 O25_2 1_555 1_555
Cl1_3 C13_3 1_555 1_555
O29 Zr5_2 1_555 1_555
O31 C14_3 1_555 1_555
O6_3 Zr7 1_555 1_555
O8_3 C38_3 1_555 1_555
O9_3 Zr5_2 1_555 1_555
O11_3 Zr7 1_555 1_555
N1_3 C24_3 1_555 1_555
C10_3 C7_3 1_555 1_555
C14_3 O6_3 1_555 1_555
C16_3 C14_3 1_555 1_555
C23_3 C10_3 1_555 1_555
H4_3 C23_3 1_555 1_555
C31_3 C16_3 1_555 1_555
H8_4 C31_3 1_555 1_555
C34_3 H10_3 1_555 1_555
C35_3 N1_3 1_555 1_555
C36_3 C16_3 1_555 1_555
H11_3 C36_3 1_555 1_555
C37_3 C31_3 1_555 1_555
H12_4 C37_3 1_555 1_555
C38_3 N1_3 1_555 1_555
C39_3 O9_3 1_555 1_555
C40_3 C39_3 1_555 1_555
H13_3 C40_3 1_555 1_555
H14_3 C40_3 1_555 1_555
H15_3 C40_3 1_555 1_555
Cl5_2 C53_2 1_555 1_555
O26 Zr5_2 1_555 1_555
O30_2 Zr5_2 1_555 1_555
O32_2 C54_3 1_555 1_555
O18_3 Zr9 1_555 1_555
O20_2 C78_2 1_555 1_555
O21_3 Zr5_2 1_555 1_555
O23_3 Zr9 1_555 1_555
N3_2 C64_2 1_555 1_555
C50_2 C47_2 1_555 1_555
C54_3 O18_3 1_555 1_555
C56_2 C54_3 1_555 1_555
C63_2 C50_2 1_555 1_555
H19_2 C63_2 1_555 1_555
C71_2 C56_2 1_555 1_555
H23 C71_2 1_555 1_555
C74_2 H25_2 1_555 1_555
C75_2 N3_2 1_555 1_555
C76_2 C56_2 1_555 1_555
H26_2 C76_2 1_555 1_555
C77_2 C71_2 1_555 1_555
H27 C77_2 1_555 1_555
C78_2 N3_2 1_555 1_555
C79_3 O21_3 1_555 1_555
C80_3 C79_3 1_555 1_555
H28_3 C80_3 1_555 1_555
H29_3 C80_3 1_555 1_555
H30_3 C80_3 1_555 1_555
O11_3 C39_3 1_555 1_555
C10_3 C38_3 1_555 1_555
C13_3 C23_3 1_555 1_555
C34_3 C35_3 1_555 1_555
C34_3 C36_3 1_555 1_555
C35_3 C37_3 1_555 1_555
O23_3 C79_3 1_555 1_555
C50_2 C78_2 1_555 1_555
C53_2 C63_2 1_555 1_555
C74_2 C75_2 1_555 1_555
C74_2 C76_2 1_555 1_555
C75_2 C77_2 1_555 1_555
C41_2 C43_2 1_555 1_555
Cl5_3 C53_3 1_555 1_555
C42_2 C48_2 1_555 1_555
Cl6_2 C65_2 1_555 1_555
Cl7_2 C62_2 1_555 1_555
Cl8_3 C45_2 1_555 1_555
O14_2 C55_3 1_555 1_555
O17_2 C55_3 1_555 1_555
O19_3 C68_2 1_555 1_555
O20_3 C78_3 1_555 1_555
O22_2 C60_2 1_555 1_555
O24_2 C64_3 1_555 1_555
N3_3 C64_3 1_555 1_555
C43_2 C44_2 1_555 1_555
C44_2 C46_2 1_555 1_555
C45_2 C46_2 1_555 1_555
C46_2 C49_2 1_555 1_555
N4_2 C60_2 1_555 1_555
C47_3 C43_2 1_555 1_555
C48_2 C49_2 1_555 1_555
C49_2 C52_2 1_555 1_555
C50_3 C47_3 1_555 1_555
C51_2 C48_2 1_555 1_555
C52_2 C41_2 1_555 1_555
C53_3 C44_2 1_555 1_555
C55_3 C57_3 1_555 1_555
C57_3 C59_2 1_555 1_555
C58_2 C45_2 1_555 1_555
H16_2 C58_2 1_555 1_555
C59_2 H17_2 1_555 1_555
C60_2 C42_2 1_555 1_555
C61_2 C42_2 1_555 1_555
H18_2 C61_2 1_555 1_555
C62_2 C52_2 1_555 1_555
C63_3 C50_3 1_555 1_555
H19_3 C63_3 1_555 1_555
C64_3 C67_2 1_555 1_555
C65_2 C41_2 1_555 1_555
C66_3 C57_3 1_555 1_555
H20_3 C66_3 1_555 1_555
C67_2 C47_3 1_555 1_555
C68_2 N4_2 1_555 1_555
C69_2 C65_2 1_555 1_555
H21_2 C69_2 1_555 1_555
C70_3 C66_3 1_555 1_555
H22_3 C70_3 1_555 1_555
C71_3 C56_3 1_555 1_555
H23_2 C71_3 1_555 1_555
C72_2 C59_2 1_555 1_555
H24_2 C72_2 1_555 1_555
C73_2 N4_2 1_555 1_555
C74_3 H25_3 1_555 1_555
C75_3 N3_3 1_555 1_555
C76_3 C56_3 1_555 1_555
H26_3 C76_3 1_555 1_555
C77_3 C71_3 1_555 1_555
H27_2 C77_3 1_555 1_555
C78_3 N3_3 1_555 1_555
Zr5_3 O17_2 1_555 1_555
Zr6 O14_2 1_555 1_555
C50_3 C78_3 1_555 1_555
C51_2 C58_2 1_555 1_555
C51_2 C68_2 1_555 1_555
C53_3 C63_3 1_555 1_555
C61_2 C62_2 1_555 1_555
C67_2 C69_2 1_555 1_555
C70_3 C73_2 1_555 1_555
C72_2 C73_2 1_555 1_555
C74_3 C75_3 1_555 1_555
C74_3 C76_3 1_555 1_555
C75_3 C77_3 1_555 1_555
Zr5_3 O1_2 1_555 1_555
O1_2 Zr6 1_555 1_555
O3_2 Zr5_3 1_555 1_555
C41_3 C43_3 1_555 1_555
Zr3_2 O3_2 1_555 1_555
Cl6_3 C65_3 1_555 1_555
Cl7_3 C62_3 1_555 1_555
O16_2 C54_4 1_555 1_555
O18_4 Zr3_2 1_555 1_555
O20_4 C78_4 1_555 1_555
O21_4 Zr5_3 1_555 1_555
O23_4 Zr3_2 1_555 1_555
O24_3 C64_4 1_555 1_555
N3_4 C64_4 1_555 1_555
C43_3 C44_3 1_555 1_555
C47_4 C43_3 1_555 1_555
C50_4 C47_4 1_555 1_555
C52_3 C41_3 1_555 1_555
C53_4 C44_3 1_555 1_555
C54_4 O18_4 1_555 1_555
C56_4 C54_4 1_555 1_555
C62_3 C52_3 1_555 1_555
C63_4 C50_4 1_555 1_555
H19_4 C63_4 1_555 1_555
C64_4 C67_3 1_555 1_555
C65_3 C41_3 1_555 1_555
C67_3 C47_4 1_555 1_555
C69_3 C65_3 1_555 1_555
H21_3 C69_3 1_555 1_555
C71_4 C56_4 1_555 1_555
H23_3 C71_4 1_555 1_555
C74_4 H25_4 1_555 1_555
C75_4 N3_4 1_555 1_555
C76_4 C56_4 1_555 1_555
H26_4 C76_4 1_555 1_555
C77_4 C71_4 1_555 1_555
H27_3 C77_4 1_555 1_555
C78_4 N3_4 1_555 1_555
C79_4 O21_4 1_555 1_555
C80_4 C79_4 1_555 1_555
H28_4 C80_4 1_555 1_555
H29_4 C80_4 1_555 1_555
H30_4 C80_4 1_555 1_555
Zr6 O3_2 1_555 1_555
O26_2 Zr3_2 1_555 1_555
O27_2 Zr3_2 1_555 1_555
O31_2 Zr3_2 1_555 1_555
O16_2 Zr6 1_555 1_555
O23_4 C79_4 1_555 1_555
C50_4 C78_4 1_555 1_555
C53_4 C63_4 1_555 1_555
C67_3 C69_3 1_555 1_555
C74_4 C75_4 1_555 1_555
C74_4 C76_4 1_555 1_555
C75_4 C77_4 1_555 1_555
Zr6 O26_2 1_555 1_555
Zr6 O29_2 1_555 1_555
Zr1_3 O26_2 1_555 1_555
C1_4 C3_4 1_555 1_555
Cl1_4 C13_4 1_555 1_555
C2_4 C8_4 1_555 1_555
Cl2_4 C25_4 1_555 1_555
Cl4_4 C5_4 1_555 1_555
O6_4 Zr6 1_555 1_555
O7_4 C28_4 1_555 1_555
O8_4 C38_4 1_555 1_555
O9_4 Zr1_3 1_555 1_555
O11_4 Zr6 1_555 1_555
O12_4 C24_4 1_555 1_555
N1_4 C24_4 1_555 1_555
C3_4 C4_4 1_555 1_555
C4_4 C6_4 1_555 1_555
C5_4 C6_4 1_555 1_555
C6_4 C9_4 1_555 1_555
C7_4 C3_4 1_555 1_555
C8_4 C9_4 1_555 1_555
C9_4 C12_4 1_555 1_555
C10_4 C7_4 1_555 1_555
C11_4 C8_4 1_555 1_555
C12_4 C1_4 1_555 1_555
C13_4 C4_4 1_555 1_555
C14_4 O6_4 1_555 1_555
C16_4 C14_4 1_555 1_555
C18_4 C5_4 1_555 1_555
H1_4 C18_4 1_555 1_555
C22_4 C12_4 1_555 1_555
C23_4 C10_4 1_555 1_555
H4_4 C23_4 1_555 1_555
C24_4 C27_4 1_555 1_555
C25_4 C1_4 1_555 1_555
C27_4 C7_4 1_555 1_555
C28_4 N2_4 1_555 1_555
C29_4 C25_4 1_555 1_555
H6_4 C29_4 1_555 1_555
C31_4 C16_4 1_555 1_555
C34_4 H10_4 1_555 1_555
C35_4 N1_4 1_555 1_555
C36_4 C16_4 1_555 1_555
H11_4 C36_4 1_555 1_555
C37_4 C31_4 1_555 1_555
C38_4 N1_4 1_555 1_555
C39_4 O9_4 1_555 1_555
C40_4 C39_4 1_555 1_555
H13_4 C40_4 1_555 1_555
H14_4 C40_4 1_555 1_555
H15_4 C40_4 1_555 1_555
O29_2 Zr1_3 1_555 1_555
O34_2 Zr1_3 1_555 1_555
O11_4 C39_4 1_555 1_555
C10_4 C38_4 1_555 1_555
C11_4 C18_4 1_555 1_555
C11_4 C28_4 1_555 1_555
C13_4 C23_4 1_555 1_555
C27_4 C29_4 1_555 1_555
C34_4 C35_4 1_555 1_555
C34_4 C36_4 1_555 1_555
C35_4 C37_4 1_555 1_555
O27_2 C55_4 1_555 1_555
O34_2 C55_4 1_555 1_555
C55_4 C57_4 1_555 1_555
C66_4 C57_4 1_555 1_555
H20_4 C66_4 1_555 1_555
C70_4 C66_4 1_555 1_555
H22_4 C70_4 1_555 1_555
Zr1_4 O1_3 1_555 1_555
C1_5 C3_5 1_555 1_555
Cl1_5 C13_5 1_555 1_555
Zr2_3 O1_3 1_555 1_555
C2_5 C8_5 1_555 1_555
Cl2_5 C25_5 1_555 1_555
O1_3 Zr9_2 1_555 1_555
Cl4_5 C5_5 1_555 1_555
O6_5 Zr2_3 1_555 1_555
O7_5 C28_5 1_555 1_555
O8_5 C38_5 1_555 1_555
O9_5 Zr1_4 1_555 1_555
O11_5 Zr2_3 1_555 1_555
O12_5 C24_5 1_555 1_555
N1_5 C24_5 1_555 1_555
C3_5 C4_5 1_555 1_555
C4_5 C6_5 1_555 1_555
C5_5 C6_5 1_555 1_555
C6_5 C9_5 1_555 1_555
C7_5 C3_5 1_555 1_555
C8_5 C9_5 1_555 1_555
C9_5 C12_5 1_555 1_555
C10_5 C7_5 1_555 1_555
C11_5 C8_5 1_555 1_555
C12_5 C1_5 1_555 1_555
C13_5 C4_5 1_555 1_555
C14_5 O6_5 1_555 1_555
C16_5 C14_5 1_555 1_555
C18_5 C5_5 1_555 1_555
H1_5 C18_5 1_555 1_555
C22_5 C12_5 1_555 1_555
C23_5 C10_5 1_555 1_555
H4_5 C23_5 1_555 1_555
C24_5 C27_5 1_555 1_555
C25_5 C1_5 1_555 1_555
C27_5 C7_5 1_555 1_555
C28_5 N2_5 1_555 1_555
C29_5 C25_5 1_555 1_555
H6_5 C29_5 1_555 1_555
C31_5 C16_5 1_555 1_555
C34_5 H10_5 1_555 1_555
C35_5 N1_5 1_555 1_555
C36_5 C16_5 1_555 1_555
H11_5 C36_5 1_555 1_555
C37_5 C31_5 1_555 1_555
C38_5 N1_5 1_555 1_555
C39_5 O9_5 1_555 1_555
C40_5 C39_5 1_555 1_555
H13_5 C40_5 1_555 1_555
H14_5 C40_5 1_555 1_555
H15_5 C40_5 1_555 1_555
O15_3 Zr1_4 1_555 1_555
O25_3 Zr2_3 1_555 1_555
O28_3 Zr2_3 1_555 1_555
O29_3 Zr2_3 1_555 1_555
O32_3 Zr2_3 1_555 1_555
O34_3 Zr1_4 1_555 1_555
Zr2_3 O15_3 1_555 1_555
O11_5 C39_5 1_555 1_555
C10_5 C38_5 1_555 1_555
C11_5 C18_5 1_555 1_555
C11_5 C28_5 1_555 1_555
C13_5 C23_5 1_555 1_555
C27_5 C29_5 1_555 1_555
C34_5 C35_5 1_555 1_555
C34_5 C36_5 1_555 1_555
C35_5 C37_5 1_555 1_555
O16_3 Zr9_2 1_555 1_555
Zr9_2 O29_3 1_555 1_555
O14_3 C55_5 1_555 1_555
O34_3 C55_5 1_555 1_555
C55_5 C57_5 1_555 1_555
C66_5 C57_5 1_555 1_555
H20_5 C66_5 1_555 1_555
C70_5 C66_5 1_555 1_555
H22_5 C70_5 1_555 1_555
Zr9_2 O14_3 1_555 1_555
C41_4 C43_4 1_555 1_555
Cl5_4 C53_5 1_555 1_555
C42_3 C48_3 1_555 1_555
Cl6_4 C65_4 1_555 1_555
Cl7_4 C62_4 1_555 1_555
Cl8_4 C45_3 1_555 1_555
O28_3 C55_6 1_555 1_555
O17_3 C55_6 1_555 1_555
O19_6 C68_3 1_555 1_555
O20_5 C78_5 1_555 1_555
O22_3 C60_3 1_555 1_555
O24_4 C64_5 1_555 1_555
N3_5 C64_5 1_555 1_555
C43_4 C44_4 1_555 1_555
C44_4 C46_3 1_555 1_555
C45_3 C46_3 1_555 1_555
C46_3 C49_3 1_555 1_555
N4_3 C60_3 1_555 1_555
C47_5 C43_4 1_555 1_555
C48_3 C49_3 1_555 1_555
C49_3 C52_4 1_555 1_555
C50_5 C47_5 1_555 1_555
C51_3 C48_3 1_555 1_555
C52_4 C41_4 1_555 1_555
C53_5 C44_4 1_555 1_555
C55_6 C57_6 1_555 1_555
C57_6 C59_3 1_555 1_555
C58_3 C45_3 1_555 1_555
H16_3 C58_3 1_555 1_555
C59_3 H17_3 1_555 1_555
C60_3 C42_3 1_555 1_555
C61_3 C42_3 1_555 1_555
H18_3 C61_3 1_555 1_555
C62_4 C52_4 1_555 1_555
C63_5 C50_5 1_555 1_555
H19_5 C63_5 1_555 1_555
C64_5 C67_4 1_555 1_555
C65_4 C41_4 1_555 1_555
C66_6 C57_6 1_555 1_555
H20_6 C66_6 1_555 1_555
C67_4 C47_5 1_555 1_555
C68_3 N4_3 1_555 1_555
C69_4 C65_4 1_555 1_555
H21_4 C69_4 1_555 1_555
C70_6 C66_6 1_555 1_555
H22_6 C70_6 1_555 1_555
C71_5 C56_5 1_555 1_555
H23_5 C71_5 1_555 1_555
C72_3 C59_3 1_555 1_555
H24_3 C72_3 1_555 1_555
C73_3 N4_3 1_555 1_555
C74_5 H25_5 1_555 1_555
C75_5 N3_5 1_555 1_555
C76_5 C56_5 1_555 1_555
H26_5 C76_5 1_555 1_555
C77_5 C71_5 1_555 1_555
H27_5 C77_5 1_555 1_555
C78_5 N3_5 1_555 1_555
Zr4 O17_3 1_555 1_555
C50_5 C78_5 1_555 1_555
C51_3 C58_3 1_555 1_555
C51_3 C68_3 1_555 1_555
C53_5 C63_5 1_555 1_555
C61_3 C62_4 1_555 1_555
C67_4 C69_4 1_555 1_555
C70_6 C73_3 1_555 1_555
C72_3 C73_3 1_555 1_555
C74_5 C75_5 1_555 1_555
C74_5 C76_5 1_555 1_555
C75_5 C77_5 1_555 1_555
Zr4 O25_3 1_555 1_555
O29_3 Zr4 1_555 1_555
C41_5 C43_5 1_555 1_555
Cl6_5 C65_5 1_555 1_555
Cl7_5 C62_5 1_555 1_555
O32_3 C54_5 1_555 1_555
O18_5 Zr9_2 1_555 1_555
O20_6 C78_6 1_555 1_555
O21_5 Zr4 1_555 1_555
O23_5 Zr9_2 1_555 1_555
O24_5 C64_6 1_555 1_555
N3_6 C64_6 1_555 1_555
C43_5 C44_5 1_555 1_555
C47_6 C43_5 1_555 1_555
C50_6 C47_6 1_555 1_555
C52_5 C41_5 1_555 1_555
C53_6 C44_5 1_555 1_555
C54_5 O18_5 1_555 1_555
C56_6 C54_5 1_555 1_555
C62_5 C52_5 1_555 1_555
C63_6 C50_6 1_555 1_555
H19_6 C63_6 1_555 1_555
C64_6 C67_5 1_555 1_555
C65_5 C41_5 1_555 1_555
C67_5 C47_6 1_555 1_555
C69_5 C65_5 1_555 1_555
H21_5 C69_5 1_555 1_555
C71_6 C56_6 1_555 1_555
H23_6 C71_6 1_555 1_555
C74_6 H25_6 1_555 1_555
C75_6 N3_6 1_555 1_555
C76_6 C56_6 1_555 1_555
H26_6 C76_6 1_555 1_555
C77_6 C71_6 1_555 1_555
H27_6 C77_6 1_555 1_555
C78_6 N3_6 1_555 1_555
C79_5 O21_5 1_555 1_555
C80_5 C79_5 1_555 1_555
H28_5 C80_5 1_555 1_555
H29_5 C80_5 1_555 1_555
H30_5 C80_5 1_555 1_555
O23_5 C79_5 1_555 1_555
C50_6 C78_6 1_555 1_555
C53_6 C63_6 1_555 1_555
C67_5 C69_5 1_555 1_555
C74_6 C75_6 1_555 1_555
C74_6 C76_6 1_555 1_555
C75_6 C77_6 1_555 1_555
O2_3 C15_5 1_555 1_555
O5_3 C15_5 1_555 1_555
O10_5 C20_5 1_555 1_555
C15_5 C17_5 1_555 1_555
C17_5 C19_5 1_555 1_555
C19_5 H2_5 1_555 1_555
H3_5 C21_5 1_555 1_555
C26_5 C17_5 1_555 1_555
H5_5 C26_5 1_555 1_555
C30_5 C26_5 1_555 1_555
H7_5 C30_5 1_555 1_555
C32_5 C19_5 1_555 1_555
H9_5 C32_5 1_555 1_555
Zr4_2 O5_3 1_555 1_555
Zr8_2 O2_3 1_555 1_555
C30_5 C33_5 1_555 1_555
C32_5 C33_5 1_555 1_555
C41_6 C43_6 1_555 1_555
Cl5_5 C53_7 1_555 1_555
C42_4 C48_4 1_555 1_555
Cl6_6 C65_6 1_555 1_555
Cl7_6 C62_6 1_555 1_555
Cl8_5 C45_4 1_555 1_555
O14_4 C55_7 1_555 1_555
O17_4 C55_7 1_555 1_555
O19_7 C68_4 1_555 1_555
O20_7 C78_7 1_555 1_555
O22_4 C60_4 1_555 1_555
O24_6 C64_7 1_555 1_555
N3_7 C64_7 1_555 1_555
C43_6 C44_6 1_555 1_555
C44_6 C46_4 1_555 1_555
C45_4 C46_4 1_555 1_555
C46_4 C49_4 1_555 1_555
N4_4 C60_4 1_555 1_555
C47_7 C43_6 1_555 1_555
C48_4 C49_4 1_555 1_555
C49_4 C52_6 1_555 1_555
C50_7 C47_7 1_555 1_555
C51_4 C48_4 1_555 1_555
C52_6 C41_6 1_555 1_555
C53_7 C44_6 1_555 1_555
C55_7 C57_7 1_555 1_555
C57_7 C59_4 1_555 1_555
C58_4 C45_4 1_555 1_555
H16_4 C58_4 1_555 1_555
C59_4 H17_4 1_555 1_555
C60_4 C42_4 1_555 1_555
C61_4 C42_4 1_555 1_555
H18_4 C61_4 1_555 1_555
C62_6 C52_6 1_555 1_555
C63_7 C50_7 1_555 1_555
H19_7 C63_7 1_555 1_555
C64_7 C67_6 1_555 1_555
C65_6 C41_6 1_555 1_555
C66_7 C57_7 1_555 1_555
H20_7 C66_7 1_555 1_555
C67_6 C47_7 1_555 1_555
C68_4 N4_4 1_555 1_555
C69_6 C65_6 1_555 1_555
H21_6 C69_6 1_555 1_555
C70_7 C66_7 1_555 1_555
H22_7 C70_7 1_555 1_555
C71_7 C56_7 1_555 1_555
C72_4 C59_4 1_555 1_555
H24_4 C72_4 1_555 1_555
C73_4 N4_4 1_555 1_555
C74_7 H25_7 1_555 1_555
C75_7 N3_7 1_555 1_555
C76_7 C56_7 1_555 1_555
H26_7 C76_7 1_555 1_555
C77_7 C71_7 1_555 1_555
C78_7 N3_7 1_555 1_555
Zr4_2 O17_4 1_555 1_555
Zr6_2 O14_4 1_555 1_555
C50_7 C78_7 1_555 1_555
C51_4 C58_4 1_555 1_555
C51_4 C68_4 1_555 1_555
C53_7 C63_7 1_555 1_555
C61_4 C62_6 1_555 1_555
C67_6 C69_6 1_555 1_555
C70_7 C73_4 1_555 1_555
C72_4 C73_4 1_555 1_555
C74_7 C75_7 1_555 1_555
C74_7 C76_7 1_555 1_555
C75_7 C77_7 1_555 1_555
Zr4_2 O1_4 1_555 1_555
Cl1_6 C13_6 1_555 1_555
Zr2_4 O1_4 1_555 1_555
O1_4 Zr6_2 1_555 1_555
O3_3 Zr4_2 1_555 1_555
O4_3 C14_6 1_555 1_555
O6_6 Zr2_4 1_555 1_555
O8_6 C38_6 1_555 1_555
O9_6 Zr4_2 1_555 1_555
O11_6 Zr2_4 1_555 1_555
N1_6 C24_6 1_555 1_555
C10_6 C7_6 1_555 1_555
C14_6 O6_6 1_555 1_555
C16_6 C14_6 1_555 1_555
C23_6 C10_6 1_555 1_555
H4_6 C23_6 1_555 1_555
C31_6 C16_6 1_555 1_555
H8_5 C31_6 1_555 1_555
C34_6 H10_6 1_555 1_555
C35_6 N1_6 1_555 1_555
C36_6 C16_6 1_555 1_555
H11_6 C36_6 1_555 1_555
C37_6 C31_6 1_555 1_555
H12_5 C37_6 1_555 1_555
C38_6 N1_6 1_555 1_555
C39_6 O9_6 1_555 1_555
C40_6 C39_6 1_555 1_555
H13_6 C40_6 1_555 1_555
H14_6 C40_6 1_555 1_555
H15_6 C40_6 1_555 1_555
Cl5_6 C53_8 1_555 1_555
Zr3_3 O3_3 1_555 1_555
O13_3 Zr4_2 1_555 1_555
O15_4 Zr4_2 1_555 1_555
O16_4 C54_6 1_555 1_555
O18_6 Zr3_3 1_555 1_555
O20_8 C78_8 1_555 1_555
O21_6 Zr4_2 1_555 1_555
O23_6 Zr3_3 1_555 1_555
N3_8 C64_8 1_555 1_555
C50_8 C47_8 1_555 1_555
C54_6 O18_6 1_555 1_555
C56_8 C54_6 1_555 1_555
C63_8 C50_8 1_555 1_555
H19_8 C63_8 1_555 1_555
C71_8 C56_8 1_555 1_555
H23_7 C71_8 1_555 1_555
C74_8 H25_8 1_555 1_555
C75_8 N3_8 1_555 1_555
C76_8 C56_8 1_555 1_555
H26_8 C76_8 1_555 1_555
C77_8 C71_8 1_555 1_555
H27_7 C77_8 1_555 1_555
C78_8 N3_8 1_555 1_555
C79_6 O21_6 1_555 1_555
C80_6 C79_6 1_555 1_555
H28_6 C80_6 1_555 1_555
H29_6 C80_6 1_555 1_555
H30_6 C80_6 1_555 1_555
Zr8_2 O4_3 1_555 1_555
Zr6_2 O3_3 1_555 1_555
O25_4 Zr2_4 1_555 1_555
O26_3 Zr3_3 1_555 1_555
O27_3 Zr3_3 1_555 1_555
O28_4 Zr2_4 1_555 1_555
O29_4 Zr2_4 1_555 1_555
O30_3 Zr3_3 1_555 1_555
O31_3 Zr3_3 1_555 1_555
O32_4 Zr2_4 1_555 1_555
Zr2_4 O15_4 1_555 1_555
O11_6 C39_6 1_555 1_555
C10_6 C38_6 1_555 1_555
C13_6 C23_6 1_555 1_555
C34_6 C35_6 1_555 1_555
C34_6 C36_6 1_555 1_555
C35_6 C37_6 1_555 1_555
Zr3_3 O13_3 1_555 1_555
O13_3 Zr8_2 1_555 1_555
O15_4 Zr8_2 1_555 1_555
O16_4 Zr6_2 1_555 1_555
O23_6 C79_6 1_555 1_555
C50_8 C78_8 1_555 1_555
C53_8 C63_8 1_555 1_555
C74_8 C75_8 1_555 1_555
C74_8 C76_8 1_555 1_555
C75_8 C77_8 1_555 1_555
Zr8_2 O25_4 1_555 1_555
Zr8_2 O30_3 1_555 1_555
Zr6_2 O26_3 1_555 1_555
Zr6_2 O29_4 1_555 1_555
Zr1_5 O26_3 1_555 1_555
C1_6 C3_6 1_555 1_555
Cl1_7 C13_7 1_555 1_555
C2_6 C8_6 1_555 1_555
Cl2_6 C25_6 1_555 1_555
Cl4_7 C5_6 1_555 1_555
O30_3 Zr1_5 1_555 1_555
O32_4 C14_7 1_555 1_555
O6_7 Zr6_2 1_555 1_555
O7_6 C28_6 1_555 1_555
O8_7 C38_7 1_555 1_555
O9_7 Zr1_5 1_555 1_555
O11_7 Zr6_2 1_555 1_555
O12_6 C24_7 1_555 1_555
N1_7 C24_7 1_555 1_555
C3_6 C4_6 1_555 1_555
C4_6 C6_6 1_555 1_555
C5_6 C6_6 1_555 1_555
C6_6 C9_6 1_555 1_555
C7_7 C3_6 1_555 1_555
C8_6 C9_6 1_555 1_555
C9_6 C12_6 1_555 1_555
C10_7 C7_7 1_555 1_555
C11_6 C8_6 1_555 1_555
C12_6 C1_6 1_555 1_555
C13_7 C4_6 1_555 1_555
C14_7 O6_7 1_555 1_555
C16_7 C14_7 1_555 1_555
C18_6 C5_6 1_555 1_555
H1_6 C18_6 1_555 1_555
C22_6 C12_6 1_555 1_555
C23_7 C10_7 1_555 1_555
H4_7 C23_7 1_555 1_555
C24_7 C27_6 1_555 1_555
C25_6 C1_6 1_555 1_555
C27_6 C7_7 1_555 1_555
C28_6 N2_6 1_555 1_555
C29_6 C25_6 1_555 1_555
H6_6 C29_6 1_555 1_555
C31_7 C16_7 1_555 1_555
H8_6 C31_7 1_555 1_555
C34_7 H10_7 1_555 1_555
C35_7 N1_7 1_555 1_555
C36_7 C16_7 1_555 1_555
H11_7 C36_7 1_555 1_555
C37_7 C31_7 1_555 1_555
H12_6 C37_7 1_555 1_555
C38_7 N1_7 1_555 1_555
C39_7 O9_7 1_555 1_555
C40_7 C39_7 1_555 1_555
H13_7 C40_7 1_555 1_555
H14_7 C40_7 1_555 1_555
H15_7 C40_7 1_555 1_555
O25_4 Zr1_5 1_555 1_555
O29_4 Zr1_5 1_555 1_555
O31_3 C54_7 1_555 1_555
O18_7 Zr8_2 1_555 1_555
O21_7 Zr1_5 1_555 1_555
O23_7 Zr8_2 1_555 1_555
C54_7 O18_7 1_555 1_555
C79_7 O21_7 1_555 1_555
C80_7 C79_7 1_555 1_555
H28_7 C80_7 1_555 1_555
H29_7 C80_7 1_555 1_555
H30_7 C80_7 1_555 1_555
O33_3 Zr1_5 1_555 1_555
O34_4 Zr1_5 1_555 1_555
O11_7 C39_7 1_555 1_555
C10_7 C38_7 1_555 1_555
C11_6 C18_6 1_555 1_555
C11_6 C28_6 1_555 1_555
C13_7 C23_7 1_555 1_555
C27_6 C29_6 1_555 1_555
C34_7 C35_7 1_555 1_555
C34_7 C36_7 1_555 1_555
C35_7 C37_7 1_555 1_555
O23_7 C79_7 1_555 1_555
C1_7 C3_7 1_555 1_555
C2_7 C8_7 1_555 1_555
Cl2_7 C25_7 1_555 1_555
Cl3_6 C22_7 1_555 1_555
O28_4 C15_6 1_555 1_555
O33_3 C15_6 1_555 1_555
O7_7 C28_7 1_555 1_555
O10_6 C20_6 1_555 1_555
C3_7 C4_7 1_555 1_555
C4_7 C6_7 1_555 1_555
C5_7 C6_7 1_555 1_555
C6_7 C9_7 1_555 1_555
N2_7 C20_6 1_555 1_555
C8_7 C9_7 1_555 1_555
C9_7 C12_7 1_555 1_555
C11_7 C8_7 1_555 1_555
C12_7 C1_7 1_555 1_555
C15_6 C17_6 1_555 1_555
C17_6 C19_6 1_555 1_555
C18_7 C5_7 1_555 1_555
H1_7 C18_7 1_555 1_555
C19_6 H2_6 1_555 1_555
C20_6 C2_7 1_555 1_555
C21_6 C2_7 1_555 1_555
H3_6 C21_6 1_555 1_555
C22_7 C12_7 1_555 1_555
C25_7 C1_7 1_555 1_555
C26_6 C17_6 1_555 1_555
H5_6 C26_6 1_555 1_555
C28_7 N2_7 1_555 1_555
C29_7 C25_7 1_555 1_555
H6_7 C29_7 1_555 1_555
C30_6 C26_6 1_555 1_555
H7_6 C30_6 1_555 1_555
C32_6 C19_6 1_555 1_555
H9_6 C32_6 1_555 1_555
C33_6 N2_7 1_555 1_555
C11_7 C18_7 1_555 1_555
C11_7 C28_7 1_555 1_555
C21_6 C22_7 1_555 1_555
C27_7 C29_7 1_555 1_555
C30_6 C33_6 1_555 1_555
C32_6 C33_6 1_555 1_555
O27_3 C55_8 1_555 1_555
O34_4 C55_8 1_555 1_555
C55_8 C57_8 1_555 1_555
C66_8 C57_8 1_555 1_555
H20_8 C66_8 1_555 1_555
C70_8 C66_8 1_555 1_555
H22_8 C70_8 1_555 1_555
O3_4 Zr1_6 1_555 1_555
Zr3_4 O3_4 1_555 1_555
O13_4 Zr1_6 1_555 1_555
O18_8 Zr3_4 1_555 1_555
O21_8 Zr1_6 1_555 1_555
O23_8 Zr3_4 1_555 1_555
C54_8 O18_8 1_555 1_555
C79_8 O21_8 1_555 1_555
C80_8 C79_8 1_555 1_555
H28_8 C80_8 1_555 1_555
H29_8 C80_8 1_555 1_555
H30_8 C80_8 1_555 1_555
Zr7_2 O4_4 1_555 1_555
O26_4 Zr3_4 1_555 1_555
O27_4 Zr3_4 1_555 1_555
O30_4 Zr3_4 1_555 1_555
O31_4 Zr3_4 1_555 1_555
O33_4 Zr1_6 1_555 1_555
Zr3_4 O13_4 1_555 1_555
O13_4 Zr7_2 1_555 1_555
O23_8 C79_8 1_555 1_555
Zr7_2 O30_4 1_555 1_555
C2_8 C8_8 1_555 1_555
Cl4_8 C5_8 1_555 1_555
O2_4 C15_7 1_555 1_555
O33_4 C15_7 1_555 1_555
O7_8 C28_8 1_555 1_555
O10_7 C20_7 1_555 1_555
C5_8 C6_8 1_555 1_555
C6_8 C9_8 1_555 1_555
N2_8 C20_7 1_555 1_555
C8_8 C9_8 1_555 1_555
C11_8 C8_8 1_555 1_555
C15_7 C17_7 1_555 1_555
C17_7 C19_7 1_555 1_555
C18_8 C5_8 1_555 1_555
H1_8 C18_8 1_555 1_555
C19_7 H2_7 1_555 1_555
C20_7 C2_8 1_555 1_555
C21_7 C2_8 1_555 1_555
H3_7 C21_7 1_555 1_555
C26_7 C17_7 1_555 1_555
H5_7 C26_7 1_555 1_555
C28_8 N2_8 1_555 1_555
C30_7 C26_7 1_555 1_555
H7_7 C30_7 1_555 1_555
C32_7 C19_7 1_555 1_555
H9_7 C32_7 1_555 1_555
C33_7 N2_8 1_555 1_555
Zr7_2 O2_4 1_555 1_555
C11_8 C18_8 1_555 1_555
C11_8 C28_8 1_555 1_555
C30_7 C33_7 1_555 1_555
C32_7 C33_7 1_555 1_555
O27_4 C15_8 1_555 1_555
O5_4 C15_8 1_555 1_555
O10_8 C20_8 1_555 1_555
C15_8 C17_8 1_555 1_555
C17_8 C19_8 1_555 1_555
C19_8 H2_8 1_555 1_555
H3_8 C21_8 1_555 1_555
C26_8 C17_8 1_555 1_555
H5_8 C26_8 1_555 1_555
C30_8 C26_8 1_555 1_555
H7_8 C30_8 1_555 1_555
C32_8 C19_8 1_555 1_555
H9_8 C32_8 1_555 1_555
Zr4_3 O5_4 1_555 1_555
C30_8 C33_8 1_555 1_555
C32_8 C33_8 1_555 1_555
C1_8 C3_8 1_555 1_555
Cl2_8 C25_8 1_555 1_555
Cl3_8 C22_8 1_555 1_555
O31_4 C14_8 1_555 1_555
O6_8 Zr7_2 1_555 1_555
O8_8 C38_8 1_555 1_555
O9_8 Zr4_3 1_555 1_555
O11_8 Zr7_2 1_555 1_555
O12_8 C24_8 1_555 1_555
N1_8 C24_8 1_555 1_555
C3_8 C4_8 1_555 1_555
C7_8 C3_8 1_555 1_555
C10_8 C7_8 1_555 1_555
C12_8 C1_8 1_555 1_555
C13_8 C4_8 1_555 1_555
C14_8 O6_8 1_555 1_555
C16_8 C14_8 1_555 1_555
C22_8 C12_8 1_555 1_555
C23_8 C10_8 1_555 1_555
H4_8 C23_8 1_555 1_555
C24_8 C27_8 1_555 1_555
C25_8 C1_8 1_555 1_555
C27_8 C7_8 1_555 1_555
C29_8 C25_8 1_555 1_555
H6_8 C29_8 1_555 1_555
C31_8 C16_8 1_555 1_555
H8_8 C31_8 1_555 1_555
C34_8 H10_8 1_555 1_555
C35_8 N1_8 1_555 1_555
C36_8 C16_8 1_555 1_555
H11_8 C36_8 1_555 1_555
C37_8 C31_8 1_555 1_555
H12_8 C37_8 1_555 1_555
C38_8 N1_8 1_555 1_555
C39_8 O9_8 1_555 1_555
C40_8 C39_8 1_555 1_555
H13_8 C40_8 1_555 1_555
H14_8 C40_8 1_555 1_555
H15_8 C40_8 1_555 1_555
O26_4 Zr4_3 1_555 1_555
O30_4 Zr4_3 1_555 1_555
O11_8 C39_8 1_555 1_555
C10_8 C38_8 1_555 1_555
C13_8 C23_8 1_555 1_555
C27_8 C29_8 1_555 1_555
C34_8 C35_8 1_555 1_555
C34_8 C36_8 1_555 1_555
C35_8 C37_8 1_555 1_555
C41_7 C43_7 1_555 1_555
C42_5 C48_5 1_555 1_555
Cl6_7 C65_7 1_555 1_555
Cl7_7 C62_7 1_555 1_555
O22_5 C60_5 1_555 1_555
C43_7 C44_7 1_555 1_555
C44_7 C46_5 1_555 1_555
C45_5 C46_5 1_555 1_555
C46_5 C49_5 1_555 1_555
N4_5 C60_5 1_555 1_555
C48_5 C49_5 1_555 1_555
C49_5 C52_7 1_555 1_555
C51_5 C48_5 1_555 1_555
C52_7 C41_7 1_555 1_555
C58_5 C45_5 1_555 1_555
H16_5 C58_5 1_555 1_555
C59_5 H17_5 1_555 1_555
C60_5 C42_5 1_555 1_555
C61_5 C42_5 1_555 1_555
H18_5 C61_5 1_555 1_555
C62_7 C52_7 1_555 1_555
C65_7 C41_7 1_555 1_555
C68_5 N4_5 1_555 1_555
C69_7 C65_7 1_555 1_555
H21_7 C69_7 1_555 1_555
C72_5 C59_5 1_555 1_555
H24_5 C72_5 1_555 1_555
C73_5 N4_5 1_555 1_555
C51_5 C58_5 1_555 1_555
C51_5 C68_5 1_555 1_555
C61_5 C62_7 1_555 1_555
C67_7 C69_7 1_555 1_555
C72_5 C73_5 1_555 1_555
C42_6 C48_6 1_555 1_555
Cl8_7 C45_6 1_555 1_555
O22_6 C60_6 1_555 1_555
C45_6 C46_6 1_555 1_555
C46_6 C49_6 1_555 1_555
N4_6 C60_6 1_555 1_555
C48_6 C49_6 1_555 1_555
C51_6 C48_6 1_555 1_555
C58_6 C45_6 1_555 1_555
H16_6 C58_6 1_555 1_555
C59_6 H17_6 1_555 1_555
C60_6 C42_6 1_555 1_555
C61_6 C42_6 1_555 1_555
H18_6 C61_6 1_555 1_555
C68_6 N4_6 1_555 1_555
C72_6 C59_6 1_555 1_555
H24_6 C72_6 1_555 1_555
C73_6 N4_6 1_555 1_555
C51_6 C58_6 1_555 1_555
C51_6 C68_6 1_555 1_555
C72_6 C73_6 1_555 1_555
C41_8 C43_8 1_555 1_555
C42_7 C48_7 1_555 1_555
Cl6_8 C65_8 1_555 1_555
Cl7_8 C62_8 1_555 1_555
O22_7 C60_7 1_555 1_555
C43_8 C44_8 1_555 1_555
C44_8 C46_7 1_555 1_555
C45_7 C46_7 1_555 1_555
C46_7 C49_7 1_555 1_555
N4_7 C60_7 1_555 1_555
C48_7 C49_7 1_555 1_555
C49_7 C52_8 1_555 1_555
C51_7 C48_7 1_555 1_555
C52_8 C41_8 1_555 1_555
C58_7 C45_7 1_555 1_555
H16_7 C58_7 1_555 1_555
C59_7 H17_7 1_555 1_555
C60_7 C42_7 1_555 1_555
C61_7 C42_7 1_555 1_555
H18_7 C61_7 1_555 1_555
C62_8 C52_8 1_555 1_555
C65_8 C41_8 1_555 1_555
C68_7 N4_7 1_555 1_555
C69_8 C65_8 1_555 1_555
H21_8 C69_8 1_555 1_555
C72_7 C59_7 1_555 1_555
H24_7 C72_7 1_555 1_555
C73_7 N4_7 1_555 1_555
C51_7 C58_7 1_555 1_555
C51_7 C68_7 1_555 1_555
C61_7 C62_8 1_555 1_555
C67_8 C69_8 1_555 1_555
C72_7 C73_7 1_555 1_555
C42_8 C48_8 1_555 1_555
Cl8_8 C45_8 1_555 1_555
O22_8 C60_8 1_555 1_555
C45_8 C46_8 1_555 1_555
C46_8 C49_8 1_555 1_555
N4_8 C60_8 1_555 1_555
C48_8 C49_8 1_555 1_555
C51_8 C48_8 1_555 1_555
C58_8 C45_8 1_555 1_555
H16_8 C58_8 1_555 1_555
C59_8 H17_8 1_555 1_555
C60_8 C42_8 1_555 1_555
C61_8 C42_8 1_555 1_555
H18_8 C61_8 1_555 1_555
C68_8 N4_8 1_555 1_555
C72_8 C59_8 1_555 1_555
H24_8 C72_8 1_555 1_555
C73_8 N4_8 1_555 1_555
C51_8 C58_8 1_555 1_555
C51_8 C68_8 1_555 1_555
C72_8 C73_8 1_555 1_555

#END
