
###############################################################################
#
# This file contains modified crystal structure data generated from the
# MOF subset of the Cambridge Structural Database (CSD) v543 
# hosted by the Cambridge Crystallographic Data Centre (CCDC).
#
# This work is licensed under the Creative Commons
# Attribution-NonCommercial-ShareAlike 4.0 International License.
# To view a copy of this license, visit
# http://creativecommons.org/licenses/by-nc-sa/4.0/
# or send a letter to
# Creative Commons, PO Box 1866, Mountain View, CA 94042, USA.
#
# CIF created using the CSD Python API on 29 September 2022
# The structure has been converted into the P1 space group
# The structure has a 3D framework
# The original CSD entry MOFQAZ is in the cubic crystal system
# The original CSD entry MOFQAZ is in a Sohncke space group
# The framework has been calculated to contain at least 10.0% void space
# The void calculation uses a probe of radius 1.32A, grid spacing 0.4
#
###############################################################################

data_MOFQAZ
_chemical_formula_moiety         '(C24 Cr4 Mn3 O42)n'
_symmetry_cell_setting           triclinic
_symmetry_space_group_name_H-M   'P 1'
_symmetry_Int_Tables_number      1
_space_group_name_Hall           'P 1'
loop_
_symmetry_equiv_pos_site_id
_symmetry_equiv_pos_as_xyz
1 x,y,z
_cell_length_a                   15.365(5)
_cell_length_b                   15.365(5)
_cell_length_c                   15.365(5)
_cell_angle_alpha                90
_cell_angle_beta                 90
_cell_angle_gamma                90
_cell_volume                     3627.42
loop_
_atom_site_label
_atom_site_type_symbol
_atom_site_fract_x
_atom_site_fract_y
_atom_site_fract_z
O10 O 0.0133(6) 0.8378(6) 0.3645(7)
O11 O 0.0340(6) 0.6151(7) 0.3897(7)
O12 O 0.1348(7) 0.7170(6) 0.3620(8)
C6 C 0.058(1) 0.691(1) 0.375(1)
Mn3 Mn 0.1484(2) 0.8516(2) 0.3516(2)
Cr1 Cr 0.8985(2) 0.6015(2) 0.3985(2)
Mn1 Mn 0.8516(2) 0.3516(2) 0.1484(2)
O1 O 0.8858(7) 0.5869(6) 0.2642(6)
O2 O 0.8645(7) 0.4867(6) 0.1622(6)
O3 O 0.8897(7) 0.4660(6) 0.3849(7)
O4 O 0.8620(8) 0.3652(7) 0.2830(6)
C1 C 0.876(1) 0.5124(9) 0.2387(9)
C2 C 0.875(1) 0.442(1) 0.309(1)
O5 O 0.7642(6) 0.6142(7) 0.4131(6)
O6 O 0.6622(6) 0.6355(7) 0.5133(6)
O7 O 0.8849(7) 0.6103(7) 0.5340(6)
O8 O 0.7830(6) 0.6380(8) 0.6348(7)
C3 C 0.7387(9) 0.624(1) 0.4876(9)
C4 C 0.809(1) 0.625(1) 0.558(1)
O9 O 0.9131(6) 0.7358(6) 0.3858(7)
C5 C 0.9876(9) 0.7613(9) 0.376(1)
O13 O 0.9867(6) 0.3378(6) 0.1355(7)
O14 O 0.8378(6) 0.3645(7) 0.0133(6)
O15 O 0.8652(7) 0.2170(6) 0.1380(8)
O16 O 0.7170(6) 0.3620(8) 0.1348(7)
Mn2 Mn 0.6484(2) 0.6484(2) 0.6484(2)
O11_2 O 0.6151(7) 0.3897(7) 0.0340(6)
C6_2 C 0.691(1) 0.375(1) 0.058(1)
Cr1_2 Cr 0.6015(2) 0.3985(2) 0.8985(2)
Mn1_2 Mn 0.3516(2) 0.1484(2) 0.8516(2)
O1_2 O 0.5869(6) 0.2642(6) 0.8858(7)
O2_2 O 0.4867(6) 0.1622(6) 0.8645(7)
O3_2 O 0.4660(6) 0.3849(7) 0.8897(7)
O4_2 O 0.3652(7) 0.2830(6) 0.8620(8)
C1_2 C 0.5124(9) 0.2387(9) 0.876(1)
C2_2 C 0.442(1) 0.309(1) 0.875(1)
O5_2 O 0.6142(7) 0.4131(6) 0.7642(6)
O6_2 O 0.6355(7) 0.5133(6) 0.6622(6)
O7_2 O 0.6103(7) 0.5340(6) 0.8849(7)
O8_2 O 0.6380(8) 0.6348(7) 0.7830(6)
C3_2 C 0.624(1) 0.4876(9) 0.7387(9)
C4_2 C 0.625(1) 0.558(1) 0.809(1)
O9_2 O 0.7358(6) 0.3858(7) 0.9131(6)
C5_2 C 0.7613(9) 0.376(1) 0.9876(9)
O13_2 O 0.3378(6) 0.1355(7) 0.9867(6)
O14_2 O 0.3645(7) 0.0133(6) 0.8378(6)
O15_2 O 0.2170(6) 0.1380(8) 0.8652(7)
O16_2 O 0.3620(8) 0.1348(7) 0.7170(6)
O11_3 O 0.3897(7) 0.0340(6) 0.6151(7)
C6_3 C 0.375(1) 0.058(1) 0.691(1)
Cr1_3 Cr 0.3985(2) 0.8985(2) 0.6015(2)
O1_3 O 0.2642(6) 0.8858(7) 0.5869(6)
O2_3 O 0.1622(6) 0.8645(7) 0.4867(6)
O3_3 O 0.3849(7) 0.8897(7) 0.4660(6)
O4_3 O 0.2830(6) 0.8620(8) 0.3652(7)
C1_3 C 0.2387(9) 0.876(1) 0.5124(9)
C2_3 C 0.309(1) 0.875(1) 0.442(1)
O5_3 O 0.4131(6) 0.7642(6) 0.6142(7)
O6_3 O 0.5133(6) 0.6622(6) 0.6355(7)
O7_3 O 0.5340(6) 0.8849(7) 0.6103(7)
O8_3 O 0.6348(7) 0.7830(6) 0.6380(8)
C3_3 C 0.4876(9) 0.7387(9) 0.624(1)
C4_3 C 0.558(1) 0.809(1) 0.625(1)
O9_3 O 0.3858(7) 0.9131(6) 0.7358(6)
C5_3 C 0.376(1) 0.9876(9) 0.7613(9)
O13_3 O 0.1355(7) 0.9867(6) 0.3378(6)
O15_3 O 0.1380(8) 0.8652(7) 0.2170(6)
O11_4 O 0.1151(7) 0.1103(7) 0.9660(6)
C6_4 C 0.191(1) 0.125(1) 0.942(1)
O7_4 O 0.1103(7) 0.9660(6) 0.1151(7)
C4_4 C 0.125(1) 0.942(1) 0.191(1)
O3_4 O 0.9660(6) 0.1151(7) 0.1103(7)
C2_4 C 0.942(1) 0.191(1) 0.125(1)
Cr1_4 Cr 0.1015(2) 0.1015(2) 0.1015(2)
O1_4 O 0.0869(6) 0.2358(6) 0.1142(7)
C1_4 C 0.0124(9) 0.2613(9) 0.124(1)
O5_4 O 0.1142(7) 0.0869(6) 0.2358(6)
C3_4 C 0.124(1) 0.0124(9) 0.2613(9)
O9_4 O 0.2358(6) 0.1142(7) 0.0869(6)
C5_4 C 0.2613(9) 0.124(1) 0.0124(9)
loop_
_geom_bond_atom_site_label_1
_geom_bond_atom_site_label_2
_geom_bond_site_symmetry_1
_geom_bond_site_symmetry_2
O12 C6 1_555 1_555
C6 O11 1_555 1_555
Mn3 O10 1_555 1_555
O12 Mn3 1_555 1_555
Cr1 O1 1_555 1_555
Mn1 O2 1_555 1_555
O1 C1 1_555 1_555
O2 C1 1_555 1_555
O3 Cr1 1_555 1_555
O4 Mn1 1_555 1_555
C1 C2 1_555 1_555
C2 O3 1_555 1_555
O5 Cr1 1_555 1_555
O6 C3 1_555 1_555
O7 Cr1 1_555 1_555
O8 C4 1_555 1_555
C3 O5 1_555 1_555
C4 O7 1_555 1_555
O9 Cr1 1_555 1_555
C5 O9 1_555 1_555
O13 Mn1 1_555 1_555
O14 Mn1 1_555 1_555
O15 Mn1 1_555 1_555
O16 Mn1 1_555 1_555
Mn2 O6 1_555 1_555
O4 C2 1_555 1_555
O8 Mn2 1_555 1_555
C3 C4 1_555 1_555
O16 C6_2 1_555 1_555
C6_2 O11_2 1_555 1_555
Cr1_2 O1_2 1_555 1_555
Mn1_2 O2_2 1_555 1_555
O1_2 C1_2 1_555 1_555
O2_2 C1_2 1_555 1_555
O3_2 Cr1_2 1_555 1_555
O4_2 Mn1_2 1_555 1_555
C1_2 C2_2 1_555 1_555
C2_2 O3_2 1_555 1_555
O5_2 Cr1_2 1_555 1_555
O6_2 C3_2 1_555 1_555
O7_2 Cr1_2 1_555 1_555
O8_2 C4_2 1_555 1_555
C3_2 O5_2 1_555 1_555
C4_2 O7_2 1_555 1_555
O9_2 Cr1_2 1_555 1_555
C5_2 O9_2 1_555 1_555
O13_2 Mn1_2 1_555 1_555
O14_2 Mn1_2 1_555 1_555
O15_2 Mn1_2 1_555 1_555
O16_2 Mn1_2 1_555 1_555
Mn2 O6_2 1_555 1_555
O4_2 C2_2 1_555 1_555
O8_2 Mn2 1_555 1_555
C3_2 C4_2 1_555 1_555
O16_2 C6_3 1_555 1_555
C6_3 O11_3 1_555 1_555
Cr1_3 O1_3 1_555 1_555
Mn3 O2_3 1_555 1_555
O1_3 C1_3 1_555 1_555
O2_3 C1_3 1_555 1_555
O3_3 Cr1_3 1_555 1_555
O4_3 Mn3 1_555 1_555
C1_3 C2_3 1_555 1_555
C2_3 O3_3 1_555 1_555
O5_3 Cr1_3 1_555 1_555
O6_3 C3_3 1_555 1_555
O7_3 Cr1_3 1_555 1_555
O8_3 C4_3 1_555 1_555
C3_3 O5_3 1_555 1_555
C4_3 O7_3 1_555 1_555
O9_3 Cr1_3 1_555 1_555
C5_3 O9_3 1_555 1_555
O13_3 Mn3 1_555 1_555
O15_3 Mn3 1_555 1_555
Mn2 O6_3 1_555 1_555
O4_3 C2_3 1_555 1_555
O8_3 Mn2 1_555 1_555
C3_3 C4_3 1_555 1_555
O15_2 C6_4 1_555 1_555
C6_4 O11_4 1_555 1_555
O15_3 C4_4 1_555 1_555
C4_4 O7_4 1_555 1_555
C2_4 O3_4 1_555 1_555
O15 C2_4 1_555 1_555
Cr1_4 O1_4 1_555 1_555
O1_4 C1_4 1_555 1_555
O5_4 Cr1_4 1_555 1_555
C3_4 O5_4 1_555 1_555
O9_4 Cr1_4 1_555 1_555
C5_4 O9_4 1_555 1_555

#END
