
###############################################################################
#
# This file contains modified crystal structure data generated from the
# MOF subset of the Cambridge Structural Database (CSD) v543 
# hosted by the Cambridge Crystallographic Data Centre (CCDC).
#
# This work is licensed under the Creative Commons
# Attribution-NonCommercial-ShareAlike 4.0 International License.
# To view a copy of this license, visit
# http://creativecommons.org/licenses/by-nc-sa/4.0/
# or send a letter to
# Creative Commons, PO Box 1866, Mountain View, CA 94042, USA.
#
# CIF created using the CSD Python API on 29 September 2022
# The structure has been converted into the P1 space group
# The structure has a 3D framework
# The original CSD entry MOGNAY is in the orthorhombic crystal system
# The framework has been calculated to contain at least 10.0% void space
# The void calculation uses a probe of radius 1.32A, grid spacing 0.4
# H atom positions have been added when not included in the experimental data
#
###############################################################################

data_MOGNAY
_chemical_formula_moiety         '(C56 H32 N8 O32 Tb4)n'
_symmetry_cell_setting           triclinic
_symmetry_space_group_name_H-M   'P 1'
_symmetry_Int_Tables_number      1
_space_group_name_Hall           'P 1'
loop_
_symmetry_equiv_pos_site_id
_symmetry_equiv_pos_as_xyz
1 x,y,z
_cell_length_a                   14.239(3)
_cell_length_b                   6.7220(13)
_cell_length_c                   22.880(5)
_cell_angle_alpha                90
_cell_angle_beta                 90
_cell_angle_gamma                90
_cell_volume                     2189.95
loop_
_atom_site_label
_atom_site_type_symbol
_atom_site_fract_x
_atom_site_fract_y
_atom_site_fract_z
Tb1 Tb 0.04757(3) 0.2500 0.359561(15)
N1 N 0.1243(5) 0.2500 0.2587(3)
N2 N 0.0934(4) 0.2500 0.4687(3)
O1 O 0.2112(4) 0.2500 0.3598(2)
O2 O 0.3529(4) 0.2500 0.3190(3)
O3 O 0.4198(3) 0.0870(6) 0.19661(18)
C1 C 0.0780(7) 0.2500 0.2057(4)
H1 H 0.0127 0.2500 0.2053
C2 C 0.1259(7) 0.2500 0.1533(4)
H2 H 0.0926 0.2500 0.1184
C3 C 0.2200(7) 0.2500 0.1523(4)
H3 H 0.2521 0.2500 0.1169
C4 C 0.2698(6) 0.2500 0.2053(4)
C5 C 0.3768(6) 0.2500 0.2028(3)
C6 C 0.2192(6) 0.2500 0.2574(4)
C7 C 0.2653(6) 0.2500 0.3163(4)
C8 C 0.1805(6) 0.2500 0.4905(4)
H4 H 0.2308 0.2500 0.4646
C9 C 0.1994(7) 0.2500 0.5494(4)
H5 H 0.2612 0.2500 0.5626
C10 C 0.1261(6) 0.2500 0.5888(3)
H6 H 0.1378 0.2500 0.6288
C11 C 0.0335(6) 0.2500 0.5675(3)
C13 C 0.0204(6) 0.2500 0.5066(4)
Tb2 Tb 0.54757(3) 0.2500 0.140439(15)
O7 O 0.4198(3) 0.4130(6) 0.19661(18)
O12 O 0.0755(3) 0.5845(6) 0.37073(16)
H7 H 0.374491 0.129384 0.34015
O11 O 0.0755(3) 0.9155(6) 0.37073(16)
O4 O 0.9221(4) 0.2500 0.4233(2)
O5 O 0.8548(4) 0.2500 0.5130(2)
O6 O 0.9245(3) 0.0845(6) 0.62927(16)
C12 C 0.9545(6) 0.2500 0.6112(3)
C14 C 0.9235(6) 0.2500 0.4794(4)
Tb4 Tb 0.95243(3) 0.7500 0.640439(15)
O8 O 0.9198(3) 0.0870(6) 0.30339(18)
O9 O 0.9198(3) 0.4130(6) 0.30339(18)
O10 O 0.9245(3) 0.4155(6) 0.62927(16)
O11_2 O 0.4245(3) 0.0845(6) 0.87073(16)
O5_2 O 0.6452(4) 0.7500 0.0130(2)
O6_2 O 0.5755(3) 0.9155(6) 0.12927(16)
C9_2 C 0.3006(7) 0.7500 0.0494(4)
H5_2 H 0.2388 0.7500 0.0626
C10_2 C 0.3739(6) 0.7500 0.0888(3)
H6_2 H 0.3622 0.7500 0.1288
C11_2 C 0.4665(6) 0.7500 0.0675(3)
C12_2 C 0.5455(6) 0.7500 0.1112(3)
C13_2 C 0.4796(6) 0.7500 0.0066(4)
O10_2 O 0.5755(3) 0.5845(6) 0.12927(16)
Tb1_2 Tb 0.45243(3) 0.7500 0.859561(15)
N1_2 N 0.3757(5) 0.7500 0.7587(3)
N2_2 N 0.4066(4) 0.7500 0.9687(3)
O1_2 O 0.2888(4) 0.7500 0.8598(2)
O2_2 O 0.1471(4) 0.7500 0.8190(3)
O3_2 O 0.0802(3) 0.9130(6) 0.69661(18)
O4_2 O 0.5779(4) 0.7500 0.9233(2)
C1_2 C 0.4220(7) 0.7500 0.7057(4)
H1_2 H 0.4873 0.7500 0.7053
C2_2 C 0.3741(7) 0.7500 0.6533(4)
H2_2 H 0.4074 0.7500 0.6184
C3_2 C 0.2800(7) 0.7500 0.6523(4)
H3_2 H 0.2479 0.7500 0.6169
C4_2 C 0.2302(6) 0.7500 0.7053(4)
C5_2 C 0.1232(6) 0.7500 0.7028(3)
C6_2 C 0.2808(6) 0.7500 0.7574(4)
C7_2 C 0.2347(6) 0.7500 0.8163(4)
C8_2 C 0.3195(6) 0.7500 0.9905(4)
H4_2 H 0.2692 0.7500 0.9646
C14_2 C 0.5765(6) 0.7500 0.9794(4)
O7_2 O 0.0802(3) 0.5870(6) 0.69661(18)
O8_2 O 0.5802(3) 0.9130(6) 0.80339(18)
O9_2 O 0.5802(3) 0.5870(6) 0.80339(18)
O12_2 O 0.4245(3) 0.4155(6) 0.87073(16)
H7_2 H 0.125509 0.870616 0.84015
O4_3 O 0.0779(4) 0.7500 0.5767(2)
O5_3 O 0.1452(4) 0.7500 0.4870(2)
C12_3 C 0.0455(6) 0.7500 0.3888(3)
C14_3 C 0.0765(6) 0.7500 0.5206(4)
N1_3 N 0.8757(5) 0.7500 0.7413(3)
N2_3 N 0.9066(4) 0.7500 0.5313(3)
O1_3 O 0.7888(4) 0.7500 0.6402(2)
O2_3 O 0.6471(4) 0.7500 0.6810(3)
C1_3 C 0.9220(7) 0.7500 0.7943(4)
H1_3 H 0.9873 0.7500 0.7947
C2_3 C 0.8741(7) 0.7500 0.8467(4)
H2_3 H 0.9074 0.7500 0.8816
C3_3 C 0.7800(7) 0.7500 0.8477(4)
H3_3 H 0.7479 0.7500 0.8831
C4_3 C 0.7302(6) 0.7500 0.7947(4)
C5_3 C 0.6232(6) 0.7500 0.7972(3)
C6_3 C 0.7808(6) 0.7500 0.7426(4)
C7_3 C 0.7347(6) 0.7500 0.6837(4)
C8_3 C 0.8195(6) 0.7500 0.5095(4)
H4_3 H 0.7692 0.7500 0.5354
C9_3 C 0.8006(7) 0.7500 0.4506(4)
H5_3 H 0.7388 0.7500 0.4374
C10_3 C 0.8739(6) 0.7500 0.4112(3)
H6_3 H 0.8622 0.7500 0.3712
C11_3 C 0.9665(6) 0.7500 0.4325(3)
C13_3 C 0.9796(6) 0.7500 0.4934(4)
H7_3 H 0.625509 0.629384 0.65985
N1_4 N 0.6243(5) 0.2500 0.2413(3)
N2_4 N 0.5934(4) 0.2500 0.0313(3)
O1_4 O 0.7112(4) 0.2500 0.1402(2)
O2_4 O 0.8529(4) 0.2500 0.1810(3)
O4_4 O 0.4221(4) 0.2500 0.0767(2)
C1_4 C 0.5780(7) 0.2500 0.2943(4)
H1_4 H 0.5127 0.2500 0.2947
C2_4 C 0.6259(7) 0.2500 0.3467(4)
H2_4 H 0.5926 0.2500 0.3816
C3_4 C 0.7200(7) 0.2500 0.3477(4)
H3_4 H 0.7521 0.2500 0.3831
C4_4 C 0.7698(6) 0.2500 0.2947(4)
C5_4 C 0.8768(6) 0.2500 0.2972(3)
C6_4 C 0.7192(6) 0.2500 0.2426(4)
C7_4 C 0.7653(6) 0.2500 0.1837(4)
C8_4 C 0.6805(6) 0.2500 0.0095(4)
H4_4 H 0.7308 0.2500 0.0354
C14_4 C 0.4235(6) 0.2500 0.0206(4)
H7_4 H 0.874491 0.370616 0.15985
O5_4 O 0.3548(4) 0.2500 0.9870(2)
C9_4 C 0.6994(7) 0.2500 0.9506(4)
H5_4 H 0.7612 0.2500 0.9374
C10_4 C 0.6261(6) 0.2500 0.9112(3)
H6_4 H 0.6378 0.2500 0.8712
C11_4 C 0.5335(6) 0.2500 0.9325(3)
C12_4 C 0.4545(6) 0.2500 0.8888(3)
C13_4 C 0.5204(6) 0.2500 0.9934(4)
H7_5 H 0.625509 0.870616 0.65985
H7_6 H 0.874491 0.129384 0.15985
H7_7 H 0.374491 0.370616 0.34015
H7_8 H 0.125509 0.629384 0.84015
loop_
_geom_bond_atom_site_label_1
_geom_bond_atom_site_label_2
_geom_bond_site_symmetry_1
_geom_bond_site_symmetry_2
Tb1 N1 1_555 1_555
N1 C1 1_555 1_555
N2 Tb1 1_555 1_555
O1 Tb1 1_555 1_555
O2 C7 1_555 1_555
O3 C5 1_555 1_555
C1 H1 1_555 1_555
C2 C1 1_555 1_555
H2 C2 1_555 1_555
C3 C2 1_555 1_555
H3 C3 1_555 1_555
C4 C3 1_555 1_555
C5 C4 1_555 1_555
C6 N1 1_555 1_555
C7 O1 1_555 1_555
C8 N2 1_555 1_555
H4 C8 1_555 1_555
C9 C8 1_555 1_555
H5 C9 1_555 1_555
C10 C9 1_555 1_555
H6 C10 1_555 1_555
C11 C10 1_555 1_555
C13 N2 1_555 1_555
Tb2 O3 1_555 1_555
O7 C5 1_555 1_555
O12 Tb1 1_555 1_555
C4 C6 1_555 1_555
C6 C7 1_555 1_555
C11 C13 1_555 1_555
Tb2 O7 1_555 1_555
O2 H7 1_555 1_555
O5 C14 1_555 1_555
O6 C12 1_555 1_555
C14 O4 1_555 1_555
Tb4 O10 1_555 1_555
O10 C12 1_555 1_555
O6_2 C12_2 1_555 1_555
H5_2 C9_2 1_555 1_555
C10_2 C9_2 1_555 1_555
H6_2 C10_2 1_555 1_555
C11_2 C10_2 1_555 1_555
C12_2 C11_2 1_555 1_555
Tb2 O10_2 1_555 1_555
O10_2 C12_2 1_555 1_555
C11_2 C13_2 1_555 1_555
Tb1_2 N1_2 1_555 1_555
N1_2 C1_2 1_555 1_555
N2_2 Tb1_2 1_555 1_555
O1_2 Tb1_2 1_555 1_555
O2_2 C7_2 1_555 1_555
O3_2 C5_2 1_555 1_555
O4_2 Tb1_2 1_555 1_555
C1_2 H1_2 1_555 1_555
C2_2 C1_2 1_555 1_555
H2_2 C2_2 1_555 1_555
C3_2 C2_2 1_555 1_555
H3_2 C3_2 1_555 1_555
C4_2 C3_2 1_555 1_555
C5_2 C4_2 1_555 1_555
C6_2 N1_2 1_555 1_555
C7_2 O1_2 1_555 1_555
C8_2 N2_2 1_555 1_555
H4_2 C8_2 1_555 1_555
C14_2 O4_2 1_555 1_555
O7_2 C5_2 1_555 1_555
O8_2 Tb1_2 1_555 1_555
O9_2 Tb1_2 1_555 1_555
O12_2 Tb1_2 1_555 1_555
C4_2 C6_2 1_555 1_555
C6_2 C7_2 1_555 1_555
O2_2 H7_2 1_555 1_555
O5_3 C14_3 1_555 1_555
O12 C12_3 1_555 1_555
C14_3 O4_3 1_555 1_555
O11 C12_3 1_555 1_555
Tb4 N1_3 1_555 1_555
N1_3 C1_3 1_555 1_555
N2_3 Tb4 1_555 1_555
O1_3 Tb4 1_555 1_555
O2_3 C7_3 1_555 1_555
O9_2 C5_3 1_555 1_555
C1_3 H1_3 1_555 1_555
C2_3 C1_3 1_555 1_555
H2_3 C2_3 1_555 1_555
C3_3 C2_3 1_555 1_555
H3_3 C3_3 1_555 1_555
C4_3 C3_3 1_555 1_555
C5_3 C4_3 1_555 1_555
C6_3 N1_3 1_555 1_555
C7_3 O1_3 1_555 1_555
C8_3 N2_3 1_555 1_555
H4_3 C8_3 1_555 1_555
C9_3 C8_3 1_555 1_555
H5_3 C9_3 1_555 1_555
C10_3 C9_3 1_555 1_555
H6_3 C10_3 1_555 1_555
C11_3 C10_3 1_555 1_555
C13_3 N2_3 1_555 1_555
O8_2 C5_3 1_555 1_555
C4_3 C6_3 1_555 1_555
C6_3 C7_3 1_555 1_555
C11_3 C13_3 1_555 1_555
O2_3 H7_3 1_555 1_555
Tb2 N1_4 1_555 1_555
N1_4 C1_4 1_555 1_555
N2_4 Tb2 1_555 1_555
O1_4 Tb2 1_555 1_555
O2_4 C7_4 1_555 1_555
O9 C5_4 1_555 1_555
O4_4 Tb2 1_555 1_555
C1_4 H1_4 1_555 1_555
C2_4 C1_4 1_555 1_555
H2_4 C2_4 1_555 1_555
C3_4 C2_4 1_555 1_555
H3_4 C3_4 1_555 1_555
C4_4 C3_4 1_555 1_555
C5_4 C4_4 1_555 1_555
C6_4 N1_4 1_555 1_555
C7_4 O1_4 1_555 1_555
C8_4 N2_4 1_555 1_555
H4_4 C8_4 1_555 1_555
C14_4 O4_4 1_555 1_555
O8 C5_4 1_555 1_555
C4_4 C6_4 1_555 1_555
C6_4 C7_4 1_555 1_555
O2_4 H7_4 1_555 1_555
O12_2 C12_4 1_555 1_555
H5_4 C9_4 1_555 1_555
C10_4 C9_4 1_555 1_555
H6_4 C10_4 1_555 1_555
C11_4 C10_4 1_555 1_555
C12_4 C11_4 1_555 1_555
O11_2 C12_4 1_555 1_555
C11_4 C13_4 1_555 1_555
O2_3 H7_5 1_555 1_555
O2_4 H7_6 1_555 1_555
O2 H7_7 1_555 1_555
O2_2 H7_8 1_555 1_555

#END
