
###############################################################################
#
# This file contains modified crystal structure data generated from the
# MOF subset of the Cambridge Structural Database (CSD) v543 
# hosted by the Cambridge Crystallographic Data Centre (CCDC).
#
# This work is licensed under the Creative Commons
# Attribution-NonCommercial-ShareAlike 4.0 International License.
# To view a copy of this license, visit
# http://creativecommons.org/licenses/by-nc-sa/4.0/
# or send a letter to
# Creative Commons, PO Box 1866, Mountain View, CA 94042, USA.
#
# CIF created using the CSD Python API on 29 September 2022
# The structure has been converted into the P1 space group
# The structure has a 3D framework
# The original CSD entry MOHSEJ is in the monoclinic crystal system
# The framework has been calculated to contain at least 10.0% void space
# The void calculation uses a probe of radius 1.32A, grid spacing 0.4
# H atom positions have been added when not included in the experimental data
#
###############################################################################

data_MOHSEJ
_chemical_formula_moiety         '(C48 H68 Co22 N214 O20)n'
_symmetry_cell_setting           triclinic
_symmetry_space_group_name_H-M   'P 1'
_symmetry_Int_Tables_number      1
_space_group_name_Hall           'P 1'
loop_
_symmetry_equiv_pos_site_id
_symmetry_equiv_pos_as_xyz
1 x,y,z
_cell_length_a                   18.1094(11)
_cell_length_b                   16.8243(10)
_cell_length_c                   17.2672(10)
_cell_angle_alpha                90
_cell_angle_beta                 110.9570(10)
_cell_angle_gamma                90
_cell_volume                     4912.92
loop_
_atom_site_label
_atom_site_type_symbol
_atom_site_fract_x
_atom_site_fract_y
_atom_site_fract_z
Co21 Co -0.0000 -0.0000 0.5000
Co21_2 Co -0.0000 1.0000 0.5000
N13 N 0.8625(2) 0.0505(2) 0.3448(3)
N14 N 0.7339(2) 0.0750(2) 0.2454(3)
N15 N 0.5990(2) 0.1166(2) 0.1919(2)
N16 N 0.5298(2) 0.0775(2) 0.1815(3)
N17 N 0.5444(2) 0.0055(2) 0.2078(2)
N25 N 0.6164(4) 0.0114(3) 0.4680(3)
N26 N 0.6238(3) 0.0076(2) 0.3962(3)
C3 C 0.7886(3) 0.0292(2) 0.3044(3)
C4 C 0.6550(2) 0.0632(2) 0.2244(2)
H2 H 0.743(3) 0.115(3) 0.234(3)
O5 O 0.0385(2) 0.0689(2) 0.4187(2)
H13 H 0.006(2) 0.081(3) 0.3701(17)
H14 H 0.0803(19) 0.061(3) 0.409(3)
N102 N 0.0121(2) 0.4160(2) 0.4404(3)
N103 N 0.0425(2) 0.3405(2) 0.4518(2)
H22 H 0.038(3) 0.192(3) 0.489(3)
Co12 Co 0.14995(3) 0.32987(3) 0.42774(4)
Co17 Co 0.59607(3) 0.24152(3) 0.16036(3)
Co21_3 Co 1.0000 -0.0000 0.5000
N110 N 0.1085(2) 0.0122(2) 0.6031(2)
Co1 Co 0.15853(3) 0.68266(3) 0.49582(3)
Co2 Co 0.67582(3) 0.89971(3) 0.29437(3)
Co3 Co 0.85005(3) 0.82987(3) 0.07226(4)
Co4 Co 0.40393(3) 0.74152(3) 0.33964(3)
N1 N 0.6914(2) 0.8578(2) 0.1981(2)
N2 N 0.7544(2) 0.8777(2) 0.1765(2)
N3 N 0.7553(2) 0.8276(2) 0.1195(2)
N4 N 0.6955(2) 0.7747(2) 0.1018(2)
N5 N 0.5917(2) 0.7571(2) 0.1544(3)
N6 N 0.4960(2) 0.7382(2) 0.2163(2)
N7 N 0.4833(2) 0.7764(2) 0.2800(2)
N8 N 0.5332(2) 0.8339(2) 0.3094(2)
N9 N 0.5811(2) 0.8370(2) 0.2645(2)
N10 N 0.7729(2) 0.9582(2) 0.3277(2)
N11 N 0.8397(2) 0.9329(2) 0.3878(2)
N12 N 0.8915(2) 0.9878(2) 0.3969(2)
N18 N 0.6237(2) 0.9935(2) 0.2353(2)
N19 N 0.7312(2) 0.8101(2) 0.3571(2)
N20 N 0.7731(2) 0.7575(2) 0.3303(2)
N21 N 0.8070(2) 0.7079(2) 0.3903(2)
N22 N 0.7887(2) 0.7269(2) 0.4580(2)
N23 N 0.7097(3) 0.8292(2) 0.4848(3)
N24 N 0.6469(3) 0.9439(3) 0.5111(3)
N27 N 0.6602(2) 0.9377(2) 0.3919(2)
N28 N 0.2541(2) 0.71001(19) 0.4780(2)
N29 N 0.2694(2) 0.6980(2) 0.4077(2)
N30 N 0.3393(2) 0.7266(2) 0.4203(2)
N31 N 0.3723(2) 0.7578(2) 0.4971(2)
N32 N 0.3293(2) 0.7681(2) 0.6111(2)
N33 N 0.3008(2) 0.7361(2) 0.7330(2)
N34 N 0.2393(2) 0.6977(3) 0.7437(2)
N35 N 0.1888(2) 0.6752(2) 0.6732(2)
N36 N 0.2153(2) 0.6980(2) 0.6123(2)
N37 N 0.1884(2) 0.5730(2) 0.5001(2)
N38 N 0.2388(2) 0.5343(2) 0.5667(2)
N39 N 0.2370(2) 0.4595(2) 0.5505(2)
N40 N 0.1854(2) 0.4457(2) 0.4727(2)
N41 N 0.1083(3) 0.5306(2) 0.3647(3)
N42 N 0.0343(3) 0.6175(2) 0.2570(2)
N43 N 0.0241(3) 0.6973(3) 0.2553(3)
N44 N 0.0632(3) 0.7293(2) 0.3275(3)
N45 N 0.1007(2) 0.6701(2) 0.3795(2)
N46 N 0.0657(2) 0.6560(2) 0.5189(2)
N47 N 0.0519(2) 0.5814(2) 0.5425(2)
N50 N 0.0013(2) 0.7811(2) 0.5085(3)
N51 N 0.0556(2) 0.8996(2) 0.4744(2)
N52 N 0.1243(2) 0.9158(2) 0.4612(3)
N53 N 0.1645(2) 0.8520(2) 0.4680(3)
N54 N 0.1256(2) 0.7910(2) 0.4881(2)
C1 C 0.6573(3) 0.7953(3) 0.1516(3)
C2 C 0.5569(3) 0.7774(3) 0.2094(3)
C5 C 0.7425(3) 0.7897(2) 0.4353(3)
C6 C 0.6738(3) 0.9004(3) 0.4628(3)
C7 C 0.3186(3) 0.7451(3) 0.5312(3)
C8 C 0.2836(2) 0.7345(2) 0.6512(2)
C9 C 0.0819(3) 0.6043(3) 0.3352(3)
C10 C 0.1583(3) 0.5174(2) 0.4436(3)
C11 C 0.0592(3) 0.8230(2) 0.4907(3)
C12 C 0.0079(3) 0.7018(2) 0.5249(3)
H1 H 0.568(3) 0.720(3) 0.124(3)
H3 H 0.702(3) 0.798(3) 0.531(3)
H4 H 0.375(3) 0.785(3) 0.637(3)
H5 H 0.091(3) 0.495(3) 0.342(3)
O1 O 0.8862(2) 0.71814(19) 0.1225(2)
H7 H 0.8498(18) 0.686(2) 0.124(3)
H8 H 0.9341(13) 0.710(3) 0.159(2)
O2 O 0.9212(2) 0.8768(2) 0.1977(2)
O3 O 0.50673(19) 0.7207(2) 0.44420(19)
H9 H 0.4997 0.6847 0.4677
H10 H 0.5480 0.7139 0.4500
O4 O 0.4077(2) 0.86329(19) 0.3746(2)
H11 H 0.3629(13) 0.881(3) 0.369(3)
H12 H 0.4493(16) 0.887(3) 0.406(3)
H15 H 0.904(3) 0.867(3) 0.237(3)
H16 H 0.9694(14) 0.887(3) 0.222(3)
Co15 Co 0.85005(3) 0.67013(3) 0.57226(4)
Co19 Co 0.40393(3) 0.75848(3) 0.83964(3)
Co21_4 Co 1.0000 1.0000 0.5000
N111 N 0.4010(2) 0.6166(2) 0.3081(2)
N116 N 0.3008(2) 0.7639(2) 0.2330(2)
N117 N 0.8146(2) 0.9457(2) 0.0273(2)
N120 N 0.9575(2) 0.8405(2) 0.0482(2)
H33 H 0.0114448 0.577629 0.210413
N114 N 0.7887(2) 0.7731(2) 0.9580(2)
N113 N 0.2113(2) 0.2269(2) 0.0420(2)
Co6 Co 0.84147(3) 0.31734(3) 0.50418(3)
Co7 Co 0.32418(3) 0.10029(3) 0.70563(3)
Co8 Co 0.14995(3) 0.17013(3) 0.92774(4)
Co9 Co 0.59607(3) 0.25848(3) 0.66036(3)
N55 N 0.3086(2) 0.1422(2) 0.8019(2)
N56 N 0.2456(2) 0.1223(2) 0.8235(2)
N57 N 0.2447(2) 0.1724(2) 0.8805(2)
N58 N 0.3045(2) 0.2253(2) 0.8982(2)
N59 N 0.4083(2) 0.2429(2) 0.8456(3)
N60 N 0.5040(2) 0.2618(2) 0.7837(2)
N61 N 0.5167(2) 0.2236(2) 0.7200(2)
N62 N 0.4668(2) 0.1661(2) 0.6906(2)
N63 N 0.4189(2) 0.1630(2) 0.7355(2)
N64 N 0.2271(2) 0.0418(2) 0.6723(2)
N65 N 0.1603(2) 0.0671(2) 0.6122(2)
N72 N 0.3763(2) 0.0065(2) 0.7647(2)
N73 N 0.2688(2) 0.1899(2) 0.6429(2)
N74 N 0.2269(2) 0.2425(2) 0.6697(2)
N75 N 0.1930(2) 0.2921(2) 0.6097(2)
N76 N 0.2113(2) 0.2731(2) 0.5420(2)
N77 N 0.2903(3) 0.1708(2) 0.5152(3)
N78 N 0.3531(3) 0.0561(3) 0.4889(3)
N81 N 0.3398(2) 0.0623(2) 0.6081(2)
N82 N 0.7459(2) 0.28999(19) 0.5220(2)
N83 N 0.7306(2) 0.3020(2) 0.5923(2)
N84 N 0.6607(2) 0.2734(2) 0.5797(2)
N85 N 0.6277(2) 0.2422(2) 0.5029(2)
N86 N 0.6707(2) 0.2319(2) 0.3889(2)
N87 N 0.6992(2) 0.2639(2) 0.2670(2)
N88 N 0.7607(2) 0.3023(3) 0.2563(2)
N89 N 0.8112(2) 0.3248(2) 0.3268(2)
N90 N 0.7847(2) 0.3020(2) 0.3877(2)
N91 N 0.8116(2) 0.4270(2) 0.4999(2)
N92 N 0.7612(2) 0.4657(2) 0.4333(2)
N93 N 0.7630(2) 0.5405(2) 0.4495(2)
N94 N 0.8146(2) 0.5543(2) 0.5273(2)
N95 N 0.8917(3) 0.4694(2) 0.6353(3)
N96 N 0.9657(3) 0.3825(2) 0.7430(2)
N97 N 0.9759(3) 0.3027(3) 0.7447(3)
N98 N 0.9368(3) 0.2707(2) 0.6725(3)
N99 N 0.8993(2) 0.3299(2) 0.6205(2)
N100 N 0.9343(2) 0.3440(2) 0.4811(2)
N101 N 0.9481(2) 0.4186(2) 0.4575(2)
N104 N 0.9987(2) 0.2189(2) 0.4915(3)
N105 N 0.9444(2) 0.1004(2) 0.5256(2)
N106 N 0.8757(2) 0.0842(2) 0.5388(3)
N107 N 0.8355(2) 0.1480(2) 0.5320(3)
N108 N 0.8744(2) 0.2090(2) 0.5119(2)
C13 C 0.3427(3) 0.2047(3) 0.8484(3)
C14 C 0.4431(3) 0.2226(3) 0.7906(3)
C17 C 0.2575(3) 0.2103(2) 0.5647(3)
C18 C 0.3262(3) 0.0996(3) 0.5372(3)
C19 C 0.6814(3) 0.2549(3) 0.4688(3)
C20 C 0.7164(2) 0.2655(2) 0.3488(2)
C21 C 0.9181(3) 0.3957(3) 0.6648(3)
C22 C 0.8417(3) 0.4826(2) 0.5564(3)
C23 C 0.9408(3) 0.1770(2) 0.5093(3)
C24 C 0.9921(3) 0.2982(2) 0.4751(3)
H17 H 0.432(3) 0.280(3) 0.876(3)
H19 H 0.298(3) 0.202(3) 0.469(3)
H20 H 0.625(3) 0.215(3) 0.363(3)
H21 H 0.909(3) 0.505(3) 0.658(3)
O6 O 0.1138(2) 0.28186(19) 0.8775(2)
H23 H 0.1502(18) 0.314(2) 0.876(3)
H24 H 0.0659(13) 0.290(3) 0.841(2)
O7 O 0.0788(2) 0.1232(2) 0.8023(2)
O8 O 0.49327(19) 0.2793(2) 0.55580(19)
H25 H 0.5003 0.3153 0.5323
H26 H 0.4520 0.2861 0.5500
O9 O 0.5923(2) 0.13671(19) 0.6254(2)
H27 H 0.6371(13) 0.119(3) 0.631(3)
H28 H 0.5507(16) 0.113(3) 0.594(3)
H31 H 0.096(3) 0.133(3) 0.763(3)
H32 H 0.0306(14) 0.113(3) 0.778(3)
N112 N 0.5990(2) 0.3834(2) 0.6919(2)
N115 N 0.6992(2) 0.2361(2) 0.7670(2)
N118 N 0.1854(2) 0.0543(2) 0.9727(2)
N119 N 0.0425(2) 0.1595(2) 0.9518(2)
H34 H 0.988555 0.422371 0.789587
N48 N 0.9879(2) 0.5840(2) 0.5596(3)
N49 N 0.9575(2) 0.6595(2) 0.5482(2)
H6 H 0.962(3) 0.808(3) 0.511(3)
N67 N 0.1375(2) 0.9495(2) 0.6552(3)
N68 N 0.2661(2) 0.9250(2) 0.7546(3)
N69 N 0.4010(2) 0.8834(2) 0.8081(2)
N70 N 0.4702(2) 0.9225(2) 0.8185(3)
N71 N 0.4556(2) 0.9945(2) 0.7922(2)
N79 N 0.3836(4) 0.9886(3) 0.5320(3)
N80 N 0.3762(3) 0.9924(2) 0.6038(3)
C15 C 0.2114(3) 0.9708(2) 0.6956(3)
C16 C 0.3450(2) 0.9368(2) 0.7756(2)
H18 H 0.257(3) 0.885(3) 0.766(3)
O10 O 0.9615(2) 0.9311(2) 0.5813(2)
H29 H 0.994(2) 0.919(3) 0.6299(17)
H30 H 0.9197(19) 0.939(3) 0.591(3)
Co20 Co 0.0000 0.5000 0.0000
Co20_2 Co 0.0000 0.5000 1.0000
H21_2 H 0.091(3) 0.005(3) 0.842(3)
N78_2 N 0.6469(3) 0.5561(3) 0.0111(3)
N86_2 N 0.3293(2) 0.7319(2) 0.1111(2)
N88_2 N 0.2393(2) 0.8023(3) 0.2437(2)
N89_2 N 0.1888(2) 0.8248(2) 0.1732(2)
N90_2 N 0.2153(2) 0.8020(2) 0.1123(2)
N91_2 N 0.1884(2) 0.9270(2) 0.0001(2)
N92_2 N 0.2388(2) 0.9657(2) 0.0667(2)
N100_2 N 0.0657(2) 0.8440(2) 0.0189(2)
N101_2 N 0.0519(2) 0.9186(2) 0.0425(2)
N104_2 N 0.0013(2) 0.7189(2) 0.0085(3)
C19_2 C 0.3186(3) 0.7549(3) 0.0312(3)
C20_2 C 0.2836(2) 0.7655(2) 0.1512(2)
C24_2 C 0.0079(3) 0.7982(2) 0.0249(3)
H19_2 H 0.702(3) 0.702(3) 0.031(3)
H20_2 H 0.375(3) 0.715(3) 0.137(3)
Co20_3 Co 1.0000 0.5000 0.0000
N109 N 0.1085(2) 0.4878(2) 0.1031(2)
N48_2 N 0.0121(2) 0.0840(2) 0.9404(3)
H6_2 H 0.038(3) 0.308(3) 0.989(3)
Co6_2 Co 0.15853(3) 0.81734(3) 0.99582(3)
Co7_2 Co 0.67582(3) 0.60029(3) 0.79437(3)
N55_2 N 0.6914(2) 0.6422(2) 0.6981(2)
N56_2 N 0.7544(2) 0.6223(2) 0.6765(2)
N57_2 N 0.7553(2) 0.6724(2) 0.6195(2)
N58_2 N 0.6955(2) 0.7253(2) 0.6018(2)
N59_2 N 0.5917(2) 0.7429(2) 0.6544(3)
N60_2 N 0.4960(2) 0.7618(2) 0.7163(2)
N61_2 N 0.4833(2) 0.7236(2) 0.7800(2)
N62_2 N 0.5332(2) 0.6661(2) 0.8094(2)
N63_2 N 0.5811(2) 0.6630(2) 0.7645(2)
N64_2 N 0.7729(2) 0.5418(2) 0.8277(2)
N65_2 N 0.8397(2) 0.5671(2) 0.8878(2)
N66 N 0.8915(2) 0.5122(2) 0.8969(2)
N67_2 N 0.8625(2) 0.4495(2) 0.8448(3)
N68_2 N 0.7339(2) 0.4250(2) 0.7454(3)
N70_2 N 0.5298(2) 0.4225(2) 0.6815(3)
N71_2 N 0.5444(2) 0.4945(2) 0.7078(2)
N72_2 N 0.6237(2) 0.5065(2) 0.7353(2)
N73_2 N 0.7312(2) 0.6899(2) 0.8571(2)
N74_2 N 0.7731(2) 0.7425(2) 0.8303(2)
N75_2 N 0.8070(2) 0.7921(2) 0.8903(2)
N77_2 N 0.7097(3) 0.6708(2) 0.9848(3)
N79_2 N 0.6164(4) 0.4886(3) 0.9680(3)
N80_2 N 0.6238(3) 0.4924(2) 0.8962(3)
N81_2 N 0.6602(2) 0.5623(2) 0.8919(2)
N82_2 N 0.2541(2) 0.78999(19) 0.9780(2)
N83_2 N 0.2694(2) 0.8020(2) 0.9077(2)
N84_2 N 0.3393(2) 0.7734(2) 0.9203(2)
N85_2 N 0.3723(2) 0.7422(2) 0.9971(2)
N95_2 N 0.1083(3) 0.9694(2) 0.8647(3)
N96_2 N 0.0343(3) 0.8825(2) 0.7570(2)
N97_2 N 0.0241(3) 0.8027(3) 0.7553(3)
N98_2 N 0.0632(3) 0.7707(2) 0.8275(3)
N99_2 N 0.1007(2) 0.8299(2) 0.8795(2)
N105_2 N 0.0556(2) 0.6004(2) 0.9744(2)
N106_2 N 0.1243(2) 0.5842(2) 0.9612(3)
N107_2 N 0.1645(2) 0.6480(2) 0.9680(3)
N108_2 N 0.1256(2) 0.7090(2) 0.9881(2)
C13_2 C 0.6573(3) 0.7047(3) 0.6516(3)
C14_2 C 0.5569(3) 0.7226(3) 0.7094(3)
C15_2 C 0.7886(3) 0.4708(2) 0.8044(3)
C16_2 C 0.6550(2) 0.4368(2) 0.7244(2)
C17_2 C 0.7425(3) 0.7103(2) 0.9353(3)
C18_2 C 0.6738(3) 0.5996(3) 0.9628(3)
C21_2 C 0.0819(3) 0.8957(3) 0.8352(3)
C22_2 C 0.1583(3) 0.9826(2) 0.9436(3)
C23_2 C 0.0592(3) 0.6770(2) 0.9907(3)
H17_2 H 0.568(3) 0.780(3) 0.624(3)
H18_2 H 0.743(3) 0.385(3) 0.734(3)
O6_2 O 0.8862(2) 0.78186(19) 0.6225(2)
H23_2 H 0.8498(18) 0.814(2) 0.624(3)
H24_2 H 0.9341(13) 0.790(3) 0.659(2)
O7_2 O 0.9212(2) 0.6232(2) 0.6977(2)
O8_2 O 0.50673(19) 0.7793(2) 0.94420(19)
H25_2 H 0.4997 0.8153 0.9677
H26_2 H 0.5480 0.7861 0.9500
O9_2 O 0.4077(2) 0.63671(19) 0.8746(2)
H27_2 H 0.3629(13) 0.619(3) 0.869(3)
H28_2 H 0.4493(16) 0.613(3) 0.906(3)
O10_2 O 0.0385(2) 0.4311(2) 0.9187(2)
H29_2 H 0.006(2) 0.419(3) 0.8701(17)
H30_2 H 0.0803(19) 0.439(3) 0.909(3)
H31_2 H 0.904(3) 0.633(3) 0.737(3)
H32_2 H 0.9694(14) 0.613(3) 0.722(3)
Co20_4 Co 1.0000 0.5000 1.0000
H34_2 H 0.0114448 0.922371 0.710413
Co1_2 Co 0.84147(3) 0.18266(3) 0.00418(3)
Co2_2 Co 0.32418(3) 0.39971(3) 0.20563(3)
N1_2 N 0.3086(2) 0.3578(2) 0.3019(2)
N2_2 N 0.2456(2) 0.3777(2) 0.3235(2)
N3_2 N 0.2447(2) 0.3276(2) 0.3805(2)
N4_2 N 0.3045(2) 0.2747(2) 0.3982(2)
N5_2 N 0.4083(2) 0.2571(2) 0.3456(3)
N6_2 N 0.5040(2) 0.2382(2) 0.2837(2)
N7_2 N 0.5167(2) 0.2764(2) 0.2200(2)
N8_2 N 0.4668(2) 0.3339(2) 0.1906(2)
N9_2 N 0.4189(2) 0.3370(2) 0.2355(2)
N10_2 N 0.2271(2) 0.4582(2) 0.1723(2)
N11_2 N 0.1603(2) 0.4329(2) 0.1122(2)
N13_2 N 0.1375(2) 0.5505(2) 0.1552(3)
N14_2 N 0.2661(2) 0.5750(2) 0.2546(3)
N16_2 N 0.4702(2) 0.5775(2) 0.3185(3)
N17_2 N 0.4556(2) 0.5055(2) 0.2922(2)
N18_2 N 0.3763(2) 0.4935(2) 0.2647(2)
N19_2 N 0.2688(2) 0.3101(2) 0.1429(2)
N20_2 N 0.2269(2) 0.2575(2) 0.1697(2)
N21_2 N 0.1930(2) 0.2079(2) 0.1097(2)
N23_2 N 0.2903(3) 0.3292(2) 0.0152(3)
N25_2 N 0.3836(4) 0.5114(3) 0.0320(3)
N26_2 N 0.3762(3) 0.5076(2) 0.1038(3)
N27_2 N 0.3398(2) 0.4377(2) 0.1081(2)
N28_2 N 0.7459(2) 0.21001(19) 0.0220(2)
N29_2 N 0.7306(2) 0.1980(2) 0.0923(2)
N30_2 N 0.6607(2) 0.2266(2) 0.0797(2)
N31_2 N 0.6277(2) 0.2578(2) 0.0029(2)
N41_2 N 0.8917(3) 0.0306(2) 0.1353(3)
N42_2 N 0.9657(3) 0.1175(2) 0.2430(2)
N43_2 N 0.9759(3) 0.1973(3) 0.2447(3)
N44_2 N 0.9368(3) 0.2293(2) 0.1725(3)
N45_2 N 0.8993(2) 0.1701(2) 0.1205(2)
N51_2 N 0.9444(2) 0.3996(2) 0.0256(2)
N52_2 N 0.8757(2) 0.4158(2) 0.0388(3)
N53_2 N 0.8355(2) 0.3520(2) 0.0320(3)
N54_2 N 0.8744(2) 0.2910(2) 0.0119(2)
C1_2 C 0.3427(3) 0.2953(3) 0.3484(3)
C2_2 C 0.4431(3) 0.2774(3) 0.2906(3)
C3_2 C 0.2114(3) 0.5292(2) 0.1956(3)
C4_2 C 0.3450(2) 0.5632(2) 0.2756(2)
C5_2 C 0.2575(3) 0.2897(2) 0.0647(3)
C6_2 C 0.3262(3) 0.4004(3) 0.0372(3)
C9_2 C 0.9181(3) 0.1043(3) 0.1648(3)
C10_2 C 0.8417(3) 0.0174(2) 0.0564(3)
C11_2 C 0.9408(3) 0.3230(2) 0.0093(3)
H1_2 H 0.432(3) 0.220(3) 0.376(3)
H2_2 H 0.257(3) 0.615(3) 0.266(3)
O1_2 O 0.1138(2) 0.21814(19) 0.3775(2)
H7_2 H 0.1502(18) 0.186(2) 0.376(3)
H8_2 H 0.0659(13) 0.210(3) 0.341(2)
O2_2 O 0.0788(2) 0.3768(2) 0.3023(2)
O3_2 O 0.49327(19) 0.2207(2) 0.05580(19)
H9_2 H 0.5003 0.1847 0.0323
H10_2 H 0.4520 0.2139 0.0500
O4_2 O 0.5923(2) 0.36329(19) 0.1254(2)
H11_2 H 0.6371(13) 0.381(3) 0.131(3)
H12_2 H 0.5507(16) 0.387(3) 0.094(3)
O5_2 O 0.9615(2) 0.5689(2) 0.0813(2)
H13_2 H 0.994(2) 0.581(3) 0.1299(17)
H14_2 H 0.9197(19) 0.561(3) 0.091(3)
H15_2 H 0.096(3) 0.367(3) 0.263(3)
H16_2 H 0.0306(14) 0.387(3) 0.278(3)
N102_2 N 0.9879(2) 0.9160(2) 0.0596(3)
H22_2 H 0.962(3) 0.692(3) 0.011(3)
H33_2 H 0.988555 0.0776289 0.289587
N24_2 N 0.3531(3) 0.4439(3) 0.9889(3)
N32_2 N 0.6707(2) 0.2681(2) 0.8889(2)
N34_2 N 0.7607(2) 0.1977(3) 0.7563(2)
N35_2 N 0.8112(2) 0.1752(2) 0.8268(2)
N36_2 N 0.7847(2) 0.1980(2) 0.8877(2)
N37_2 N 0.8116(2) 0.0730(2) 0.9999(2)
N38_2 N 0.7612(2) 0.0343(2) 0.9333(2)
N46_2 N 0.9343(2) 0.1560(2) 0.9811(2)
N47_2 N 0.9481(2) 0.0814(2) 0.9575(2)
N50_2 N 0.9987(2) 0.2811(2) 0.9915(3)
C7_2 C 0.6814(3) 0.2451(3) 0.9688(3)
C8_2 C 0.7164(2) 0.2345(2) 0.8488(2)
C12_2 C 0.9921(3) 0.2018(2) 0.9751(3)
H3_2 H 0.298(3) 0.298(3) 0.969(3)
H4_2 H 0.625(3) 0.285(3) 0.863(3)
H5_2 H 0.909(3) 0.995(3) 0.158(3)
N93_2 N 0.2370(2) 0.0405(2) 0.0505(2)
N39_2 N 0.7630(2) 0.9595(2) 0.9495(2)
loop_
_geom_bond_atom_site_label_1
_geom_bond_atom_site_label_2
_geom_bond_site_symmetry_1
_geom_bond_site_symmetry_2
N14 C3 1_555 1_555
N15 N16 1_555 1_555
N16 N17 1_555 1_555
N25 N26 1_555 1_555
C4 N14 1_555 1_555
H2 N14 1_555 1_555
O5 Co21 1_555 1_555
H13 O5 1_555 1_555
H14 O5 1_555 1_555
N103 N102 1_555 1_555
Co12 N103 1_555 1_555
Co17 N15 1_555 1_555
N110 Co21 1_555 1_555
N13 C3 1_555 1_555
N15 C4 1_555 1_555
Co1 N28 1_555 1_555
Co2 N1 1_555 1_555
Co3 N3 1_555 1_555
Co4 N7 1_555 1_555
Co21_2 N51 1_555 1_555
N1 N2 1_555 1_555
N2 N3 1_555 1_555
N3 N4 1_555 1_555
N4 C1 1_555 1_555
N5 C1 1_555 1_555
N6 N7 1_555 1_555
N7 N8 1_555 1_555
N8 N9 1_555 1_555
N9 Co2 1_555 1_555
N10 Co2 1_555 1_555
N11 N10 1_555 1_555
N12 N11 1_555 1_555
N18 Co2 1_555 1_555
N19 Co2 1_555 1_555
N20 N19 1_555 1_555
N21 N20 1_555 1_555
N22 N21 1_555 1_555
N23 C5 1_555 1_555
N27 Co2 1_555 1_555
N28 N29 1_555 1_555
N29 N30 1_555 1_555
N30 Co4 1_555 1_555
N31 N30 1_555 1_555
N32 C7 1_555 1_555
N33 N34 1_555 1_555
N34 N35 1_555 1_555
N35 N36 1_555 1_555
N36 Co1 1_555 1_555
N37 Co1 1_555 1_555
N38 N37 1_555 1_555
N39 N38 1_555 1_555
N40 N39 1_555 1_555
N41 C9 1_555 1_555
N42 N43 1_555 1_555
N43 N44 1_555 1_555
N44 N45 1_555 1_555
N45 Co1 1_555 1_555
N46 Co1 1_555 1_555
N47 N46 1_555 1_555
N50 C11 1_555 1_555
N51 N52 1_555 1_555
N52 N53 1_555 1_555
N53 N54 1_555 1_555
N54 Co1 1_555 1_555
C1 N1 1_555 1_555
C2 N5 1_555 1_555
C5 N19 1_555 1_555
C6 N23 1_555 1_555
C7 N28 1_555 1_555
C8 N32 1_555 1_555
C9 N42 1_555 1_555
C10 N37 1_555 1_555
C11 N51 1_555 1_555
C12 N46 1_555 1_555
H1 N5 1_555 1_555
H3 N23 1_555 1_555
H4 N32 1_555 1_555
H5 N41 1_555 1_555
O1 Co3 1_555 1_555
H7 O1 1_555 1_555
H8 O1 1_555 1_555
O2 Co3 1_555 1_555
O3 Co4 1_555 1_555
H9 O3 1_555 1_555
H10 O3 1_555 1_555
O4 Co4 1_555 1_555
H11 O4 1_555 1_555
H12 O4 1_555 1_555
H15 O2 1_555 1_555
H16 O2 1_555 1_555
Co12 N40 1_555 1_555
Co15 N22 1_555 1_555
Co19 N33 1_555 1_555
Co21_4 N12 1_555 1_555
N111 Co4 1_555 1_555
N116 Co4 1_555 1_555
N117 Co3 1_555 1_555
N120 Co3 1_555 1_555
N6 C2 1_555 1_555
N9 C2 1_555 1_555
N22 C5 1_555 1_555
N24 C6 1_555 1_555
N27 C6 1_555 1_555
N31 C7 1_555 1_555
N33 C8 1_555 1_555
N36 C8 1_555 1_555
N40 C10 1_555 1_555
N41 C10 1_555 1_555
N45 C9 1_555 1_555
N50 C12 1_555 1_555
N54 C11 1_555 1_555
N42 H33 1_555 1_555
Co6 N82 1_555 1_555
Co7 N55 1_555 1_555
Co8 N57 1_555 1_555
Co9 N61 1_555 1_555
N55 N56 1_555 1_555
N56 N57 1_555 1_555
N57 N58 1_555 1_555
N58 C13 1_555 1_555
N59 C13 1_555 1_555
N60 N61 1_555 1_555
N61 N62 1_555 1_555
N62 N63 1_555 1_555
N63 Co7 1_555 1_555
N64 Co7 1_555 1_555
N65 N64 1_555 1_555
N110 N65 1_555 1_555
N72 Co7 1_555 1_555
N73 Co7 1_555 1_555
N74 N73 1_555 1_555
N75 N74 1_555 1_555
N76 N75 1_555 1_555
N77 C17 1_555 1_555
N81 Co7 1_555 1_555
N82 N83 1_555 1_555
N83 N84 1_555 1_555
N84 Co9 1_555 1_555
N85 N84 1_555 1_555
N86 C19 1_555 1_555
N87 N88 1_555 1_555
N88 N89 1_555 1_555
N89 N90 1_555 1_555
N90 Co6 1_555 1_555
N91 Co6 1_555 1_555
N92 N91 1_555 1_555
N93 N92 1_555 1_555
N94 N93 1_555 1_555
N95 C21 1_555 1_555
N96 N97 1_555 1_555
N97 N98 1_555 1_555
N98 N99 1_555 1_555
N99 Co6 1_555 1_555
N100 Co6 1_555 1_555
N101 N100 1_555 1_555
N104 C23 1_555 1_555
N105 Co21_3 1_555 1_555
N106 N105 1_555 1_555
N107 N106 1_555 1_555
N108 Co6 1_555 1_555
C13 N55 1_555 1_555
C14 N59 1_555 1_555
C17 N73 1_555 1_555
C18 N77 1_555 1_555
C19 N82 1_555 1_555
C20 N86 1_555 1_555
C21 N96 1_555 1_555
C22 N91 1_555 1_555
C23 N105 1_555 1_555
C24 N100 1_555 1_555
H17 N59 1_555 1_555
H19 N77 1_555 1_555
H20 N86 1_555 1_555
H21 N95 1_555 1_555
O6 Co8 1_555 1_555
H23 O6 1_555 1_555
H24 O6 1_555 1_555
O7 Co8 1_555 1_555
O8 Co9 1_555 1_555
H25 O8 1_555 1_555
H26 O8 1_555 1_555
O9 Co9 1_555 1_555
H27 O9 1_555 1_555
H28 O9 1_555 1_555
H31 O7 1_555 1_555
H32 O7 1_555 1_555
Co12 N76 1_555 1_555
Co15 N94 1_555 1_555
Co17 N87 1_555 1_555
N112 Co9 1_555 1_555
N115 Co9 1_555 1_555
N118 Co8 1_555 1_555
N119 Co8 1_555 1_555
N60 C14 1_555 1_555
N63 C14 1_555 1_555
N76 C17 1_555 1_555
N78 C18 1_555 1_555
N81 C18 1_555 1_555
N85 C19 1_555 1_555
N87 C20 1_555 1_555
N90 C20 1_555 1_555
N94 C22 1_555 1_555
N95 C22 1_555 1_555
N99 C21 1_555 1_555
N104 C24 1_555 1_555
N107 N108 1_555 1_555
N108 C23 1_555 1_555
N96 H34 1_555 1_555
N49 N48 1_555 1_555
N68 C15 1_555 1_555
N69 N70 1_555 1_555
N70 N71 1_555 1_555
N79 N80 1_555 1_555
C16 N68 1_555 1_555
H18 N68 1_555 1_555
O10 Co21_4 1_555 1_555
H29 O10 1_555 1_555
H30 O10 1_555 1_555
Co15 N49 1_555 1_555
Co19 N69 1_555 1_555
N67 C15 1_555 1_555
N69 C16 1_555 1_555
N86_2 C19_2 1_555 1_555
N116 N88_2 1_555 1_555
N88_2 N89_2 1_555 1_555
N89_2 N90_2 1_555 1_555
N92_2 N91_2 1_555 1_555
N101_2 N100_2 1_555 1_555
C20_2 N86_2 1_555 1_555
C24_2 N100_2 1_555 1_555
H20_2 N86_2 1_555 1_555
N109 Co20 1_555 1_555
N116 C20_2 1_555 1_555
N90_2 C20_2 1_555 1_555
N104_2 C24_2 1_555 1_555
N119 N48_2 1_555 1_555
Co6_2 N82_2 1_555 1_555
Co7_2 N55_2 1_555 1_555
Co15 N57_2 1_555 1_555
Co19 N61_2 1_555 1_555
N55_2 N56_2 1_555 1_555
N56_2 N57_2 1_555 1_555
N57_2 N58_2 1_555 1_555
N58_2 C13_2 1_555 1_555
N59_2 C13_2 1_555 1_555
N60_2 N61_2 1_555 1_555
N61_2 N62_2 1_555 1_555
N62_2 N63_2 1_555 1_555
N63_2 Co7_2 1_555 1_555
N64_2 Co7_2 1_555 1_555
N65_2 N64_2 1_555 1_555
N66 N65_2 1_555 1_555
N67_2 N66 1_555 1_555
N68_2 C15_2 1_555 1_555
N112 N70_2 1_555 1_555
N70_2 N71_2 1_555 1_555
N71_2 N72_2 1_555 1_555
N72_2 Co7_2 1_555 1_555
N73_2 Co7_2 1_555 1_555
N74_2 N73_2 1_555 1_555
N75_2 N74_2 1_555 1_555
N114 N75_2 1_555 1_555
N77_2 C17_2 1_555 1_555
N79_2 N80_2 1_555 1_555
N80_2 N81_2 1_555 1_555
N81_2 Co7_2 1_555 1_555
N82_2 N83_2 1_555 1_555
N83_2 N84_2 1_555 1_555
N84_2 Co19 1_555 1_555
N85_2 N84_2 1_555 1_555
N95_2 C21_2 1_555 1_555
N96_2 N97_2 1_555 1_555
N97_2 N98_2 1_555 1_555
N98_2 N99_2 1_555 1_555
N99_2 Co6_2 1_555 1_555
N105_2 Co20_2 1_555 1_555
N106_2 N105_2 1_555 1_555
N107_2 N106_2 1_555 1_555
N108_2 Co6_2 1_555 1_555
C13_2 N55_2 1_555 1_555
C14_2 N59_2 1_555 1_555
C15_2 N64_2 1_555 1_555
C16_2 N68_2 1_555 1_555
C17_2 N73_2 1_555 1_555
C18_2 N77_2 1_555 1_555
C21_2 N96_2 1_555 1_555
C23_2 N105_2 1_555 1_555
H17_2 N59_2 1_555 1_555
H18_2 N68_2 1_555 1_555
O6_2 Co15 1_555 1_555
H23_2 O6_2 1_555 1_555
H24_2 O6_2 1_555 1_555
O7_2 Co15 1_555 1_555
O8_2 Co19 1_555 1_555
H25_2 O8_2 1_555 1_555
H26_2 O8_2 1_555 1_555
O9_2 Co19 1_555 1_555
H27_2 O9_2 1_555 1_555
H28_2 O9_2 1_555 1_555
O10_2 Co20_2 1_555 1_555
H29_2 O10_2 1_555 1_555
H30_2 O10_2 1_555 1_555
H31_2 O7_2 1_555 1_555
H32_2 O7_2 1_555 1_555
Co20_4 N66 1_555 1_555
N60_2 C14_2 1_555 1_555
N63_2 C14_2 1_555 1_555
N67_2 C15_2 1_555 1_555
N112 C16_2 1_555 1_555
N72_2 C16_2 1_555 1_555
N114 C17_2 1_555 1_555
N81_2 C18_2 1_555 1_555
N95_2 C22_2 1_555 1_555
N99_2 C21_2 1_555 1_555
N107_2 N108_2 1_555 1_555
N108_2 C23_2 1_555 1_555
N96_2 H34_2 1_555 1_555
Co1_2 N28_2 1_555 1_555
Co2_2 N1_2 1_555 1_555
Co12 N3_2 1_555 1_555
Co17 N7_2 1_555 1_555
Co20_3 N51_2 1_555 1_555
N1_2 N2_2 1_555 1_555
N2_2 N3_2 1_555 1_555
N3_2 N4_2 1_555 1_555
N4_2 C1_2 1_555 1_555
N5_2 C1_2 1_555 1_555
N6_2 N7_2 1_555 1_555
N7_2 N8_2 1_555 1_555
N8_2 N9_2 1_555 1_555
N9_2 Co2_2 1_555 1_555
N10_2 Co2_2 1_555 1_555
N11_2 N10_2 1_555 1_555
N109 N11_2 1_555 1_555
N13_2 N109 1_555 1_555
N14_2 C3_2 1_555 1_555
N111 N16_2 1_555 1_555
N16_2 N17_2 1_555 1_555
N17_2 N18_2 1_555 1_555
N18_2 Co2_2 1_555 1_555
N19_2 Co2_2 1_555 1_555
N20_2 N19_2 1_555 1_555
N21_2 N20_2 1_555 1_555
N113 N21_2 1_555 1_555
N23_2 C5_2 1_555 1_555
N25_2 N26_2 1_555 1_555
N26_2 N27_2 1_555 1_555
N27_2 Co2_2 1_555 1_555
N28_2 N29_2 1_555 1_555
N29_2 N30_2 1_555 1_555
N30_2 Co17 1_555 1_555
N31_2 N30_2 1_555 1_555
N41_2 C9_2 1_555 1_555
N42_2 N43_2 1_555 1_555
N43_2 N44_2 1_555 1_555
N44_2 N45_2 1_555 1_555
N45_2 Co1_2 1_555 1_555
N51_2 N52_2 1_555 1_555
N52_2 N53_2 1_555 1_555
N53_2 N54_2 1_555 1_555
N54_2 Co1_2 1_555 1_555
C1_2 N1_2 1_555 1_555
C2_2 N5_2 1_555 1_555
C3_2 N10_2 1_555 1_555
C4_2 N14_2 1_555 1_555
C5_2 N19_2 1_555 1_555
C6_2 N23_2 1_555 1_555
C9_2 N42_2 1_555 1_555
C11_2 N51_2 1_555 1_555
H1_2 N5_2 1_555 1_555
H2_2 N14_2 1_555 1_555
O1_2 Co12 1_555 1_555
H7_2 O1_2 1_555 1_555
H8_2 O1_2 1_555 1_555
O2_2 Co12 1_555 1_555
O3_2 Co17 1_555 1_555
H9_2 O3_2 1_555 1_555
H10_2 O3_2 1_555 1_555
O4_2 Co17 1_555 1_555
H11_2 O4_2 1_555 1_555
H12_2 O4_2 1_555 1_555
O5_2 Co20_3 1_555 1_555
H13_2 O5_2 1_555 1_555
H14_2 O5_2 1_555 1_555
H15_2 O2_2 1_555 1_555
H16_2 O2_2 1_555 1_555
N120 N102_2 1_555 1_555
N6_2 C2_2 1_555 1_555
N9_2 C2_2 1_555 1_555
N13_2 C3_2 1_555 1_555
N111 C4_2 1_555 1_555
N18_2 C4_2 1_555 1_555
N113 C5_2 1_555 1_555
N27_2 C6_2 1_555 1_555
N41_2 C10_2 1_555 1_555
N45_2 C9_2 1_555 1_555
N54_2 C11_2 1_555 1_555
N42_2 H33_2 1_555 1_555
N32_2 C7_2 1_555 1_555
N115 N34_2 1_555 1_555
N34_2 N35_2 1_555 1_555
N35_2 N36_2 1_555 1_555
N38_2 N37_2 1_555 1_555
N47_2 N46_2 1_555 1_555
C8_2 N32_2 1_555 1_555
C12_2 N46_2 1_555 1_555
H4_2 N32_2 1_555 1_555
N115 C8_2 1_555 1_555
N36_2 C8_2 1_555 1_555
N50_2 C12_2 1_555 1_555

#END
