
###############################################################################
#
# This file contains modified crystal structure data generated from the
# MOF subset of the Cambridge Structural Database (CSD) v543 
# hosted by the Cambridge Crystallographic Data Centre (CCDC).
#
# This work is licensed under the Creative Commons
# Attribution-NonCommercial-ShareAlike 4.0 International License.
# To view a copy of this license, visit
# http://creativecommons.org/licenses/by-nc-sa/4.0/
# or send a letter to
# Creative Commons, PO Box 1866, Mountain View, CA 94042, USA.
#
# CIF created using the CSD Python API on 29 September 2022
# The structure has been converted into the P1 space group
# The structure has a 3D framework
# The original CSD entry MOJNAC is in the monoclinic crystal system
# The framework has been calculated to contain at least 10.0% void space
# The void calculation uses a probe of radius 1.32A, grid spacing 0.4
# H atom positions have been added when not included in the experimental data
#
###############################################################################

data_MOJNAC
_chemical_formula_moiety         '(C62 H80 N28 O64 Sm8)n'
_symmetry_cell_setting           triclinic
_symmetry_space_group_name_H-M   'P 1'
_symmetry_Int_Tables_number      1
_space_group_name_Hall           'P 1'
loop_
_symmetry_equiv_pos_site_id
_symmetry_equiv_pos_as_xyz
1 x,y,z
_cell_length_a                   12.6974(13)
_cell_length_b                   16.7309(12)
_cell_length_c                   14.8076(15)
_cell_angle_alpha                90
_cell_angle_beta                 91.452(8)
_cell_angle_gamma                90
_cell_volume                     3144.7
loop_
_atom_site_label
_atom_site_type_symbol
_atom_site_fract_x
_atom_site_fract_y
_atom_site_fract_z
Sm1 Sm 0.37690(2) 0.198355(16) 0.055352(16)
O1 O 0.3269(4) 0.0715(2) 0.1362(3)
O2 O 0.3786(4) 0.1729(3) 0.2194(3)
O8 O 0.5500(3) 0.2277(3) 0.1206(3)
C1 C 0.3474(4) 0.1006(3) 0.2129(4)
C2 C 0.3332(5) 0.0545(3) 0.2990(3)
H1 H 0.3917 0.0665 0.3401
H2 H 0.2693 0.0728 0.3270
O9 O 0.6731(4) 0.0715(2) 0.3638(3)
O10 O 0.6214(4) 0.1729(3) 0.2806(3)
C9 C 0.6526(4) 0.1006(3) 0.2871(4)
C10 C 0.6668(5) 0.0545(3) 0.2010(3)
H7 H 0.6083 0.0665 0.1599
H8 H 0.7307 0.0728 0.1730
Sm2 Sm 0.62310(2) 0.198355(16) 0.444648(16)
O15 O 0.5054(4) 0.0927(3) 0.5003(3)
O16 O 0.4500(3) 0.2277(3) 0.3794(3)
O18 O 0.5225(3) 0.2672(3) 0.5645(3)
O19 O 0.1929(3) 0.2169(2) 0.0797(3)
O20 O 0.8071(3) 0.2169(2) 0.4203(3)
O22 O 0.6929(3) 0.2831(2) 0.5797(3)
O23 O 0.7087(3) 0.1144(2) 0.5562(3)
O25 O 0.6443(3) 0.3301(2) 0.3855(3)
O26 O 0.3557(3) 0.3301(2) 0.1145(3)
H13 H 0.598491 0.18262 0.108431
H14 H 0.577735 0.277354 0.0931976
H17 H 0.548247 0.0496711 0.529237
H18 H 0.457206 0.115785 0.545188
H19 H 0.401509 0.18262 0.391569
H20 H 0.422265 0.277354 0.406802
O7 O 0.4946(4) 0.0927(3) 0.9997(3)
O17 O 0.4775(3) 0.2672(3) 0.9355(3)
O21 O 0.3071(3) 0.2831(2) 0.9203(3)
O24 O 0.2913(3) 0.1144(2) 0.9438(3)
H15 H 0.451753 0.0496711 0.970763
H16 H 0.542794 0.115785 0.954812
O3 O 0.5225(3) 0.7328(3) 0.0645(3)
O4 O 0.6929(3) 0.7169(2) 0.0797(3)
O5 O 0.2913(3) 0.8856(2) 0.4438(3)
O6 O 0.1443(3) 0.8301(2) 0.3855(3)
N1 N 0.3269(4) 0.9690(3) 0.2873(3)
N2 N 0.5000 0.7293(4) 0.2500
N3 N 0.5000 0.9710(4) 0.2500
N4 N 0.4087(4) 0.8470(3) 0.2679(3)
C3 C 0.6018(4) 0.7138(3) 0.1126(3)
C4 C 0.5886(4) 0.6888(3) 0.2103(3)
H3 H 0.5777 0.6315 0.2131
H4 H 0.6524 0.7014 0.2448
C5 C 0.2217(4) 0.8769(3) 0.3840(3)
C6 C 0.2282(4) 0.9271(4) 0.2977(4)
H5 H 0.2169 0.8923 0.2460
H6 H 0.1715 0.9660 0.2972
C7 C 0.4148(4) 0.9268(3) 0.2680(3)
C8 C 0.5000 0.8111(5) 0.2500
N5 N 0.6731(4) 0.9690(3) 0.2127(3)
N6 N 0.5913(4) 0.8470(3) 0.2321(3)
C11 C 0.5852(4) 0.9268(3) 0.2320(3)
O11 O 0.4775(3) 0.7328(3) 0.4355(3)
O12 O 0.3071(3) 0.7169(2) 0.4203(3)
C12 C 0.3982(4) 0.7138(3) 0.3874(3)
C13 C 0.4114(4) 0.6888(3) 0.2897(3)
H9 H 0.4223 0.6315 0.2869
H10 H 0.3476 0.7014 0.2552
O13 O 0.8557(3) 0.8301(2) 0.1145(3)
C14 C 0.7783(4) 0.8769(3) 0.1160(3)
C15 C 0.7718(4) 0.9271(4) 0.2023(4)
H11 H 0.7831 0.8923 0.2540
H12 H 0.8285 0.9660 0.2028
O14 O 0.7087(3) 0.8856(2) 0.0562(3)
Sm3 Sm 0.87690(2) 0.698355(16) 0.055352(16)
Sm4 Sm 0.12310(2) 0.698355(16) 0.444648(16)
Sm6 Sm 0.37690(2) 0.801645(16) 0.555352(16)
Sm5 Sm 0.62310(2) 0.801645(16) 0.944648(16)
O3_2 O 0.0225(3) 0.2328(3) 0.0645(3)
O8_2 O 0.0500(3) 0.7277(3) 0.1206(3)
N2_2 N 0.0000 0.2293(4) 0.2500
N3_2 N 0.0000 0.4710(4) 0.2500
C3_2 C 0.1018(4) 0.2138(3) 0.1126(3)
C4_2 C 0.0886(4) 0.1888(3) 0.2103(3)
H3_2 H 0.0777 0.1315 0.2131
H4_2 H 0.1524 0.2014 0.2448
C8_2 C 0.0000 0.3111(5) 0.2500
O9_2 O 0.1731(4) 0.5715(2) 0.3638(3)
O10_2 O 0.1214(4) 0.6729(3) 0.2806(3)
N5_2 N 0.1731(4) 0.4690(3) 0.2127(3)
N6_2 N 0.0913(4) 0.3470(3) 0.2321(3)
C9_2 C 0.1526(4) 0.6006(3) 0.2871(4)
C10_2 C 0.1668(5) 0.5545(3) 0.2010(3)
H7_2 H 0.1083 0.5665 0.1599
H8_2 H 0.2307 0.5728 0.1730
C11_2 C 0.0852(4) 0.4268(3) 0.2320(3)
C14_2 C 0.2783(4) 0.3769(3) 0.1160(3)
C15_2 C 0.2718(4) 0.4271(4) 0.2023(4)
H11_2 H 0.2831 0.3923 0.2540
H12_2 H 0.3285 0.4660 0.2028
O14_2 O 0.2087(3) 0.3856(2) 0.0562(3)
O15_2 O 0.0054(4) 0.5927(3) 0.5003(3)
O18_2 O 0.0225(3) 0.7672(3) 0.5645(3)
O22_2 O 0.1929(3) 0.7831(2) 0.5797(3)
O23_2 O 0.2087(3) 0.6144(2) 0.5562(3)
H13_2 H 0.0984911 0.68262 0.108431
H14_2 H 0.0777352 0.777354 0.0931976
H17_2 H 0.0482471 0.549671 0.529237
Sm5_2 Sm 0.12310(2) 0.301645(16) 0.944648(16)
H16_2 H 0.0427939 0.615785 0.954812
O1_2 O 0.8269(4) 0.5715(2) 0.1362(3)
O2_2 O 0.8786(4) 0.6729(3) 0.2194(3)
O5_2 O 0.7913(3) 0.3856(2) 0.4438(3)
N1_2 N 0.8269(4) 0.4690(3) 0.2873(3)
N2_3 N 1.0000 0.2293(4) 0.2500
N3_3 N 1.0000 0.4710(4) 0.2500
N4_2 N 0.9087(4) 0.3470(3) 0.2679(3)
C1_2 C 0.8474(4) 0.6006(3) 0.2129(4)
C2_2 C 0.8332(5) 0.5545(3) 0.2990(3)
H1_2 H 0.8917 0.5665 0.3401
H2_2 H 0.7693 0.5728 0.3270
C5_2 C 0.7217(4) 0.3769(3) 0.3840(3)
C6_2 C 0.7282(4) 0.4271(4) 0.2977(4)
H5_2 H 0.7169 0.3923 0.2460
H6_2 H 0.6715 0.4660 0.2972
C7_2 C 0.9148(4) 0.4268(3) 0.2680(3)
C8_3 C 1.0000 0.3111(5) 0.2500
O11_2 O 0.9775(3) 0.2328(3) 0.4355(3)
C12_2 C 0.8982(4) 0.2138(3) 0.3874(3)
C13_2 C 0.9114(4) 0.1888(3) 0.2897(3)
H9_2 H 0.9223 0.1315 0.2869
H10_2 H 0.8476 0.2014 0.2552
O16_2 O 0.9500(3) 0.7277(3) 0.3794(3)
Sm6_2 Sm 0.87690(2) 0.301645(16) 0.555352(16)
H18_2 H 0.957206 0.615785 0.545188
H19_2 H 0.901509 0.68262 0.391569
H20_2 H 0.922265 0.777354 0.406802
O7_2 O 0.9946(4) 0.5927(3) 0.9997(3)
O17_2 O 0.9775(3) 0.7672(3) 0.9355(3)
O21_2 O 0.8071(3) 0.7831(2) 0.9203(3)
O24_2 O 0.7913(3) 0.6144(2) 0.9438(3)
H15_2 H 0.951753 0.549671 0.970763
O6_2 O 0.8557(3) 0.1699(2) 0.6145(3)
N1_3 N 0.6731(4) 0.0310(3) 0.7127(3)
N2_4 N 0.5000 0.2707(4) 0.7500
N3_4 N 0.5000 0.0290(4) 0.7500
N4_3 N 0.5913(4) 0.1530(3) 0.7321(3)
C3_3 C 0.3982(4) 0.2862(3) 0.8874(3)
C4_3 C 0.4114(4) 0.3112(3) 0.7897(3)
H3_3 H 0.4223 0.3685 0.7869
H4_3 H 0.3476 0.2986 0.7552
C5_3 C 0.7783(4) 0.1231(3) 0.6160(3)
C6_3 C 0.7718(4) 0.0729(4) 0.7023(4)
H5_3 H 0.7831 0.1077 0.7540
H6_3 H 0.8285 0.0340 0.7028
C7_3 C 0.5852(4) 0.0732(3) 0.7320(3)
C8_4 C 0.5000 0.1889(5) 0.7500
N5_3 N 0.3269(4) 0.0310(3) 0.7873(3)
N6_3 N 0.4087(4) 0.1530(3) 0.7679(3)
C11_3 C 0.4148(4) 0.0732(3) 0.7680(3)
C12_3 C 0.6018(4) 0.2862(3) 0.6126(3)
C13_3 C 0.5886(4) 0.3112(3) 0.7103(3)
H9_3 H 0.5777 0.3685 0.7131
H10_3 H 0.6524 0.2986 0.7448
O13_2 O 0.1443(3) 0.1699(2) 0.8855(3)
C14_3 C 0.2217(4) 0.1231(3) 0.8840(3)
C15_3 C 0.2282(4) 0.0729(4) 0.7977(4)
H11_3 H 0.2169 0.1077 0.7460
H12_3 H 0.1715 0.0340 0.7972
O7_3 O 0.5054(4) 0.9073(3) 0.0003(3)
H15_3 H 0.548247 0.950329 0.029237
H16_3 H 0.457206 0.884215 0.0451877
O1_3 O 0.6731(4) 0.9285(2) 0.8638(3)
O2_3 O 0.6214(4) 0.8271(3) 0.7806(3)
O8_3 O 0.4500(3) 0.7723(3) 0.8794(3)
C1_3 C 0.6526(4) 0.8994(3) 0.7871(4)
C2_3 C 0.6668(5) 0.9455(3) 0.7010(3)
H1_3 H 0.6083 0.9335 0.6599
H2_3 H 0.7307 0.9272 0.6730
O9_3 O 0.3269(4) 0.9285(2) 0.6362(3)
O10_3 O 0.3786(4) 0.8271(3) 0.7194(3)
C9_3 C 0.3474(4) 0.8994(3) 0.7129(4)
C10_3 C 0.3332(5) 0.9455(3) 0.7990(3)
H7_3 H 0.3917 0.9335 0.8401
H8_3 H 0.2693 0.9272 0.8270
O15_3 O 0.4946(4) 0.9073(3) 0.4997(3)
O16_3 O 0.5500(3) 0.7723(3) 0.6206(3)
O25_2 O 0.3557(3) 0.6699(2) 0.6145(3)
O26_2 O 0.6443(3) 0.6699(2) 0.8855(3)
H13_3 H 0.401509 0.81738 0.891569
H14_3 H 0.422265 0.722646 0.906802
H17_3 H 0.451753 0.950329 0.470763
H18_3 H 0.542794 0.884215 0.454812
H19_3 H 0.598491 0.81738 0.608431
H20_3 H 0.577735 0.722646 0.593198
O7_4 O 0.0054(4) 0.4073(3) 0.0003(3)
H15_4 H 0.0482471 0.450329 0.029237
O1_4 O 0.1731(4) 0.4285(2) 0.8638(3)
O2_4 O 0.1214(4) 0.3271(3) 0.7806(3)
N1_4 N 0.1731(4) 0.5310(3) 0.7127(3)
N2_5 N 0.0000 0.7707(4) 0.7500
N3_5 N 0.0000 0.5290(4) 0.7500
N4_4 N 0.0913(4) 0.6530(3) 0.7321(3)
C1_4 C 0.1526(4) 0.3994(3) 0.7871(4)
C2_4 C 0.1668(5) 0.4455(3) 0.7010(3)
H1_4 H 0.1083 0.4335 0.6599
H2_4 H 0.2307 0.4272 0.6730
C5_4 C 0.2783(4) 0.6231(3) 0.6160(3)
C6_4 C 0.2718(4) 0.5729(4) 0.7023(4)
H5_4 H 0.2831 0.6077 0.7540
H6_4 H 0.3285 0.5340 0.7028
C7_4 C 0.0852(4) 0.5732(3) 0.7320(3)
C8_5 C 0.0000 0.6889(5) 0.7500
C12_4 C 0.1018(4) 0.7862(3) 0.6126(3)
C13_4 C 0.0886(4) 0.8112(3) 0.7103(3)
H9_4 H 0.0777 0.8685 0.7131
H10_4 H 0.1524 0.7986 0.7448
O16_4 O 0.0500(3) 0.2723(3) 0.6206(3)
H18_4 H 0.0427939 0.384215 0.454812
H19_4 H 0.0984911 0.31738 0.608431
H20_4 H 0.0777352 0.222646 0.593198
H16_4 H 0.957206 0.384215 0.0451877
O8_4 O 0.9500(3) 0.2723(3) 0.8794(3)
N2_6 N 1.0000 0.7707(4) 0.7500
N3_6 N 1.0000 0.5290(4) 0.7500
C3_4 C 0.8982(4) 0.7862(3) 0.8874(3)
C4_4 C 0.9114(4) 0.8112(3) 0.7897(3)
H3_4 H 0.9223 0.8685 0.7869
H4_4 H 0.8476 0.7986 0.7552
C8_6 C 1.0000 0.6889(5) 0.7500
O9_4 O 0.8269(4) 0.4285(2) 0.6362(3)
O10_4 O 0.8786(4) 0.3271(3) 0.7194(3)
N5_4 N 0.8269(4) 0.5310(3) 0.7873(3)
N6_4 N 0.9087(4) 0.6530(3) 0.7679(3)
C9_4 C 0.8474(4) 0.3994(3) 0.7129(4)
C10_4 C 0.8332(5) 0.4455(3) 0.7990(3)
H7_4 H 0.8917 0.4335 0.8401
H8_4 H 0.7693 0.4272 0.8270
C11_4 C 0.9148(4) 0.5732(3) 0.7680(3)
C14_4 C 0.7217(4) 0.6231(3) 0.8840(3)
C15_4 C 0.7282(4) 0.5729(4) 0.7977(4)
H11_4 H 0.7169 0.6077 0.7460
H12_4 H 0.6715 0.5340 0.7972
O15_4 O 0.9946(4) 0.4073(3) 0.4997(3)
H13_4 H 0.901509 0.31738 0.891569
H14_4 H 0.922265 0.222646 0.906802
H17_4 H 0.951753 0.450329 0.470763
loop_
_geom_bond_atom_site_label_1
_geom_bond_atom_site_label_2
_geom_bond_site_symmetry_1
_geom_bond_site_symmetry_2
Sm1 O1 1_555 1_555
O1 C1 1_555 1_555
O2 Sm1 1_555 1_555
O8 Sm1 1_555 1_555
C1 O2 1_555 1_555
C2 C1 1_555 1_555
H1 C2 1_555 1_555
H2 C2 1_555 1_555
O9 C9 1_555 1_555
O10 C9 1_555 1_555
C9 C10 1_555 1_555
C10 H7 1_555 1_555
H8 C10 1_555 1_555
Sm2 O9 1_555 1_555
O15 Sm2 1_555 1_555
O16 Sm2 1_555 1_555
O18 Sm2 1_555 1_555
O19 Sm1 1_555 1_555
O20 Sm2 1_555 1_555
O22 Sm2 1_555 1_555
O23 Sm2 1_555 1_555
O25 Sm2 1_555 1_555
O26 Sm1 1_555 1_555
O10 Sm2 1_555 1_555
O8 H13 1_555 1_555
O8 H14 1_555 1_555
O15 H17 1_555 1_555
O15 H18 1_555 1_555
O16 H19 1_555 1_555
O16 H20 1_555 1_555
O7 H15 1_555 1_555
O7 H16 1_555 1_555
O3 C3 1_555 1_555
O4 C3 1_555 1_555
O5 C5 1_555 1_555
O6 C5 1_555 1_555
N2 C4 1_555 1_555
N3 C7 1_555 1_555
N4 C7 1_555 1_555
C3 C4 1_555 1_555
C4 H3 1_555 1_555
H4 C4 1_555 1_555
C5 C6 1_555 1_555
C6 N1 1_555 1_555
H5 C6 1_555 1_555
H6 C6 1_555 1_555
C7 N1 1_555 1_555
C8 N2 1_555 1_555
N6 C8 1_555 1_555
C11 N3 1_555 1_555
O11 C12 1_555 1_555
O12 C12 1_555 1_555
C12 C13 1_555 1_555
C13 N2 1_555 1_555
H9 C13 1_555 1_555
H10 C13 1_555 1_555
O13 C14 1_555 1_555
C14 C15 1_555 1_555
C15 N5 1_555 1_555
H11 C15 1_555 1_555
H12 C15 1_555 1_555
O14 C14 1_555 1_555
Sm3 O4 1_555 1_555
Sm4 O6 1_555 1_555
Sm6 O5 1_555 1_555
N4 C8 1_555 1_555
N5 C11 1_555 1_555
N6 C11 1_555 1_555
O11 Sm6 1_555 1_555
O12 Sm4 1_555 1_555
O12 Sm6 1_555 1_555
O13 Sm3 1_555 1_555
O3_2 C3_2 1_555 1_555
O19 C3_2 1_555 1_555
N2_2 C4_2 1_555 1_555
C3_2 C4_2 1_555 1_555
C4_2 H3_2 1_555 1_555
H4_2 C4_2 1_555 1_555
C8_2 N2_2 1_555 1_555
O9_2 C9_2 1_555 1_555
O10_2 C9_2 1_555 1_555
N5_2 C10_2 1_555 1_555
N6_2 C8_2 1_555 1_555
C9_2 C10_2 1_555 1_555
C10_2 H7_2 1_555 1_555
H8_2 C10_2 1_555 1_555
C11_2 N3_2 1_555 1_555
O26 C14_2 1_555 1_555
C14_2 C15_2 1_555 1_555
C15_2 N5_2 1_555 1_555
H11_2 C15_2 1_555 1_555
H12_2 C15_2 1_555 1_555
O14_2 C14_2 1_555 1_555
Sm4 O9_2 1_555 1_555
O15_2 Sm4 1_555 1_555
O18_2 Sm4 1_555 1_555
O22_2 Sm4 1_555 1_555
O23_2 Sm4 1_555 1_555
O10_2 Sm4 1_555 1_555
N5_2 C11_2 1_555 1_555
N6_2 C11_2 1_555 1_555
O8_2 H13_2 1_555 1_555
O8_2 H14_2 1_555 1_555
O15_2 H17_2 1_555 1_555
Sm3 O1_2 1_555 1_555
O1_2 C1_2 1_555 1_555
O2_2 Sm3 1_555 1_555
O5_2 C5_2 1_555 1_555
O25 C5_2 1_555 1_555
N1_2 C2_2 1_555 1_555
N3_3 C7_2 1_555 1_555
N4_2 C7_2 1_555 1_555
C1_2 O2_2 1_555 1_555
C2_2 C1_2 1_555 1_555
H1_2 C2_2 1_555 1_555
H2_2 C2_2 1_555 1_555
C5_2 C6_2 1_555 1_555
C6_2 N1_2 1_555 1_555
H5_2 C6_2 1_555 1_555
H6_2 C6_2 1_555 1_555
C7_2 N1_2 1_555 1_555
C8_3 N2_3 1_555 1_555
O11_2 C12_2 1_555 1_555
O20 C12_2 1_555 1_555
C12_2 C13_2 1_555 1_555
C13_2 N2_3 1_555 1_555
H9_2 C13_2 1_555 1_555
H10_2 C13_2 1_555 1_555
Sm6_2 O5_2 1_555 1_555
N4_2 C8_3 1_555 1_555
O11_2 Sm6_2 1_555 1_555
O20 Sm6_2 1_555 1_555
O16_2 H19_2 1_555 1_555
O16_2 H20_2 1_555 1_555
O7_2 H15_2 1_555 1_555
O17 C3_3 1_555 1_555
O21 C3_3 1_555 1_555
O23 C5_3 1_555 1_555
O6_2 C5_3 1_555 1_555
N2_4 C4_3 1_555 1_555
N3_4 C7_3 1_555 1_555
N4_3 C7_3 1_555 1_555
C3_3 C4_3 1_555 1_555
C4_3 H3_3 1_555 1_555
H4_3 C4_3 1_555 1_555
C5_3 C6_3 1_555 1_555
C6_3 N1_3 1_555 1_555
H5_3 C6_3 1_555 1_555
H6_3 C6_3 1_555 1_555
C7_3 N1_3 1_555 1_555
C8_4 N2_4 1_555 1_555
N6_3 C8_4 1_555 1_555
C11_3 N3_4 1_555 1_555
O18 C12_3 1_555 1_555
O22 C12_3 1_555 1_555
C12_3 C13_3 1_555 1_555
C13_3 N2_4 1_555 1_555
H9_3 C13_3 1_555 1_555
H10_3 C13_3 1_555 1_555
O13_2 C14_3 1_555 1_555
C14_3 C15_3 1_555 1_555
C15_3 N5_3 1_555 1_555
H11_3 C15_3 1_555 1_555
H12_3 C15_3 1_555 1_555
O24 C14_3 1_555 1_555
Sm5_2 O21 1_555 1_555
Sm6_2 O6_2 1_555 1_555
N4_3 C8_4 1_555 1_555
N5_3 C11_3 1_555 1_555
N6_3 C11_3 1_555 1_555
O22 Sm6_2 1_555 1_555
O13_2 Sm5_2 1_555 1_555
O7_3 H15_3 1_555 1_555
O7_3 H16_3 1_555 1_555
Sm5 O1_3 1_555 1_555
O1_3 C1_3 1_555 1_555
O2_3 Sm5 1_555 1_555
O8_3 Sm5 1_555 1_555
C1_3 O2_3 1_555 1_555
C2_3 C1_3 1_555 1_555
H1_3 C2_3 1_555 1_555
H2_3 C2_3 1_555 1_555
O9_3 C9_3 1_555 1_555
O10_3 C9_3 1_555 1_555
C9_3 C10_3 1_555 1_555
C10_3 H7_3 1_555 1_555
H8_3 C10_3 1_555 1_555
Sm6 O9_3 1_555 1_555
O15_3 Sm6 1_555 1_555
O16_3 Sm6 1_555 1_555
O21_2 Sm5 1_555 1_555
O22_2 Sm6 1_555 1_555
O25_2 Sm6 1_555 1_555
O26_2 Sm5 1_555 1_555
O10_3 Sm6 1_555 1_555
O8_3 H13_3 1_555 1_555
O8_3 H14_3 1_555 1_555
O15_3 H17_3 1_555 1_555
O15_3 H18_3 1_555 1_555
O16_3 H19_3 1_555 1_555
O16_3 H20_3 1_555 1_555
O7_4 H15_4 1_555 1_555
Sm5_2 O1_4 1_555 1_555
O1_4 C1_4 1_555 1_555
O2_4 Sm5_2 1_555 1_555
O23_2 C5_4 1_555 1_555
O25_2 C5_4 1_555 1_555
N1_4 C2_4 1_555 1_555
N3_5 C7_4 1_555 1_555
N4_4 C7_4 1_555 1_555
C1_4 O2_4 1_555 1_555
C2_4 C1_4 1_555 1_555
H1_4 C2_4 1_555 1_555
H2_4 C2_4 1_555 1_555
C5_4 C6_4 1_555 1_555
C6_4 N1_4 1_555 1_555
H5_4 C6_4 1_555 1_555
H6_4 C6_4 1_555 1_555
C7_4 N1_4 1_555 1_555
C8_5 N2_5 1_555 1_555
O18_2 C12_4 1_555 1_555
O22_2 C12_4 1_555 1_555
C12_4 C13_4 1_555 1_555
C13_4 N2_5 1_555 1_555
H9_4 C13_4 1_555 1_555
H10_4 C13_4 1_555 1_555
N4_4 C8_5 1_555 1_555
O16_4 H19_4 1_555 1_555
O16_4 H20_4 1_555 1_555
O17_2 C3_4 1_555 1_555
O21_2 C3_4 1_555 1_555
N2_6 C4_4 1_555 1_555
C3_4 C4_4 1_555 1_555
C4_4 H3_4 1_555 1_555
H4_4 C4_4 1_555 1_555
C8_6 N2_6 1_555 1_555
O9_4 C9_4 1_555 1_555
O10_4 C9_4 1_555 1_555
N5_4 C10_4 1_555 1_555
N6_4 C8_6 1_555 1_555
C9_4 C10_4 1_555 1_555
C10_4 H7_4 1_555 1_555
H8_4 C10_4 1_555 1_555
C11_4 N3_6 1_555 1_555
O26_2 C14_4 1_555 1_555
C14_4 C15_4 1_555 1_555
C15_4 N5_4 1_555 1_555
H11_4 C15_4 1_555 1_555
H12_4 C15_4 1_555 1_555
O24_2 C14_4 1_555 1_555
Sm6_2 O9_4 1_555 1_555
O15_4 Sm6_2 1_555 1_555
O10_4 Sm6_2 1_555 1_555
N5_4 C11_4 1_555 1_555
N6_4 C11_4 1_555 1_555
O8_4 H13_4 1_555 1_555
O8_4 H14_4 1_555 1_555
O15_4 H17_4 1_555 1_555

#END
