
###############################################################################
#
# This file contains modified crystal structure data generated from the
# MOF subset of the Cambridge Structural Database (CSD) v543 
# hosted by the Cambridge Crystallographic Data Centre (CCDC).
#
# This work is licensed under the Creative Commons
# Attribution-NonCommercial-ShareAlike 4.0 International License.
# To view a copy of this license, visit
# http://creativecommons.org/licenses/by-nc-sa/4.0/
# or send a letter to
# Creative Commons, PO Box 1866, Mountain View, CA 94042, USA.
#
# CIF created using the CSD Python API on 29 September 2022
# The structure has been converted into the P1 space group
# The structure has a 3D framework
# The original CSD entry MOKMOQ is in the monoclinic crystal system
# The framework has been calculated to contain at least 10.0% void space
# The void calculation uses a probe of radius 1.32A, grid spacing 0.4
#
###############################################################################

data_MOKMOQ
_chemical_formula_moiety         '(C240 H176 N32 O64 Zn12)n'
_symmetry_cell_setting           triclinic
_symmetry_space_group_name_H-M   'P 1'
_symmetry_Int_Tables_number      1
_space_group_name_Hall           'P 1'
loop_
_symmetry_equiv_pos_site_id
_symmetry_equiv_pos_as_xyz
1 x,y,z
_cell_length_a                   16.2326(19)
_cell_length_b                   14.5987(19)
_cell_length_c                   36.175(4)
_cell_angle_alpha                90
_cell_angle_beta                 94.930(9)
_cell_angle_gamma                90
_cell_volume                     8540.85
loop_
_atom_site_label
_atom_site_type_symbol
_atom_site_fract_x
_atom_site_fract_y
_atom_site_fract_z
O3 O 0.2061(5) 0.8438(6) 0.0490(2)
O6 O 0.2157(5) 0.8474(6) 0.1107(2)
C6 C 0.1138(6) 0.7521(8) 0.0796(3)
C13 C 0.0798(7) 0.7163(8) 0.0472(3)
H5 H 0.0997 0.7342 0.0249
C14 C 0.0163(7) 0.6539(9) 0.0470(3)
C15 C 0.0220(7) 0.6640(9) 0.1126(3)
H7 H 0.0032 0.6458 0.1351
C17 C 0.0843(8) 0.7247(9) 0.1124(3)
H8 H 0.1077 0.7486 0.1347
C23 C 0.1839(7) 0.8196(8) 0.0797(3)
Zn4 Zn 0.30850(7) 0.93892(9) 0.12289(3)
Zn6 Zn 0.29306(7) 0.93964(9) 0.04038(3)
C1 C 0.7714(18) 0.484(3) 0.1980(6)
H1 H 0.7316 0.5195 0.1849
C2 C 0.8634(16) 0.3814(19) 0.1984(5)
H2 H 0.8922 0.3371 0.1863
C3 C 0.7717(18) 0.484(2) 0.2357(5)
H3 H 0.7279 0.5097 0.2470
C4 C 0.8699(19) 0.381(2) 0.2372(5)
H4 H 0.8985 0.3337 0.2497
Zn1 Zn 0.80850(7) 0.43892(9) 0.12289(3)
Zn2 Zn 0.79306(7) 0.43964(9) 0.04038(3)
O1 O 0.8830(5) 0.5333(6) 0.0489(2)
N1 N 0.7780(5) 0.5558(7) 0.4842(2)
N2 N 0.8204(6) 0.4387(7) 0.1790(2)
O2 O 0.7094(5) 0.5371(6) 0.0542(2)
O4 O 0.7221(6) 0.5407(6) 0.1155(2)
O5 O 0.3916(5) 0.8390(6) 0.1128(2)
C5 C 0.4870(7) 0.7540(8) 0.0834(3)
O7 O 0.8952(6) 0.5329(6) 0.1112(3)
O8 O 0.3846(5) 0.8429(6) 0.0524(2)
C7 C 0.6214(8) 0.6332(9) 0.0848(3)
C8 C 0.9146(7) 0.5588(8) 0.0802(3)
C9 C 0.9857(7) 0.6285(8) 0.0798(3)
C10 C 0.6889(7) 0.5653(8) 0.0847(3)
C11 C 0.7630(9) 0.5507(9) 0.4065(3)
C12 C 0.8367(11) 0.4461(12) 0.2566(4)
H6 H 0.9940 0.6288 0.0247
C16 C 0.4158(7) 0.8173(8) 0.0829(3)
C18 C 0.8131(9) 0.4899(10) 0.4266(3)
H9 H 0.8427 0.4461 0.4145
C19 C 0.5183(9) 0.7123(12) 0.1159(4)
H10 H 0.4939 0.7237 0.1378
N3 N 0.7931(10) 0.4881(11) 0.3510(3)
C20 C 0.5882(13) 0.6771(16) 0.0530(4)
H11 H 0.6116 0.6659 0.0309
C21 C 0.7571(10) 0.5511(11) 0.3649(3)
C22 C 0.7192(9) 0.6148(10) 0.4265(3)
H12 H 0.6837 0.6566 0.4140
N4 N 0.7843(11) 0.4833(12) 0.3125(3)
C24 C 0.5240(11) 0.7351(14) 0.0527(4)
H13 H 0.5048 0.7628 0.0304
C25 C 0.5843(10) 0.6550(11) 0.1163(3)
H14 H 0.6050 0.6296 0.1388
C26 C 0.8195(9) 0.4940(10) 0.4655(3)
H15 H 0.8538 0.4524 0.4788
C27 C 0.7294(8) 0.6147(9) 0.4646(3)
H16 H 0.7009 0.6581 0.4773
C28 C 0.8453(14) 0.4551(15) 0.2980(4)
C29 C 0.7108(14) 0.6210(14) 0.3441(4)
H17 H 0.7137 0.6105 0.3180
H18 H 0.6541 0.6189 0.3497
H19 H 0.7337 0.6800 0.3506
C30 C 0.921(2) 0.428(4) 0.3173(7)
H20 H 0.9176 0.4371 0.3434
H21 H 0.9650 0.4648 0.3091
H22 H 0.9310 0.3648 0.3125
Zn7 Zn 0.79306(7) 0.56036(9) 0.54038(3)
O9 O 0.7061(5) 0.3438(6) 0.0490(2)
O10 O 0.8916(5) 0.3390(6) 0.1128(2)
O11 O 0.7157(5) 0.3474(6) 0.1107(2)
O12 O 0.8846(5) 0.3429(6) 0.0524(2)
N5 N 0.7780(5) 0.4442(7) 0.9842(2)
H1_2 H 0.2316 0.0195 0.1849
H3_2 H 0.2279 0.0097 0.2470
O1_2 O 0.3830(5) 0.0333(6) 0.0489(2)
N1_2 N 0.2780(5) 0.0558(7) 0.4842(2)
O2_2 O 0.2094(5) 0.0371(6) 0.0542(2)
O4_2 O 0.2221(6) 0.0407(6) 0.1155(2)
O7_2 O 0.3952(6) 0.0329(6) 0.1112(3)
C6_2 C 0.6138(6) 0.2521(8) 0.0796(3)
C7_2 C 0.1214(8) 0.1332(9) 0.0848(3)
C8_2 C 0.4146(7) 0.0588(8) 0.0802(3)
C9_2 C 0.4857(7) 0.1285(8) 0.0798(3)
C10_2 C 0.1889(7) 0.0653(8) 0.0847(3)
C11_2 C 0.2630(9) 0.0507(9) 0.4065(3)
C13_2 C 0.5798(7) 0.2163(8) 0.0472(3)
H5_2 H 0.5997 0.2342 0.0249
C14_2 C 0.5163(7) 0.1539(9) 0.0470(3)
H6_2 H 0.4940 0.1288 0.0247
C15_2 C 0.5220(7) 0.1640(9) 0.1126(3)
H7_2 H 0.5032 0.1458 0.1351
C17_2 C 0.5843(8) 0.2247(9) 0.1124(3)
H8_2 H 0.6077 0.2486 0.1347
C19_2 C 0.0183(9) 0.2123(12) 0.1159(4)
C20_2 C 0.0882(13) 0.1771(16) 0.0530(4)
H11_2 H 0.1116 0.1659 0.0309
C21_2 C 0.2571(10) 0.0511(11) 0.3649(3)
C22_2 C 0.2192(9) 0.1148(10) 0.4265(3)
H12_2 H 0.1837 0.1566 0.4140
C23_2 C 0.6839(7) 0.3196(8) 0.0797(3)
C24_2 C 0.0240(11) 0.2351(14) 0.0527(4)
H13_2 H 0.0048 0.2628 0.0304
C25_2 C 0.0843(10) 0.1550(11) 0.1163(3)
H14_2 H 0.1050 0.1296 0.1388
C27_2 C 0.2294(8) 0.1147(9) 0.4646(3)
H16_2 H 0.2009 0.1581 0.4773
C29_2 C 0.2108(14) 0.1210(14) 0.3441(4)
H17_2 H 0.2137 0.1105 0.3180
H18_2 H 0.1541 0.1189 0.3497
H19_2 H 0.2337 0.1800 0.3506
Zn7_2 Zn 0.29306(7) 0.06036(9) 0.54038(3)
C1_2 C 0.2714(18) 0.984(3) 0.1980(6)
C2_2 C 0.3634(16) 0.8814(19) 0.1984(5)
H2_2 H 0.3922 0.8371 0.1863
C3_2 C 0.2717(18) 0.984(2) 0.2357(5)
C4_2 C 0.3699(19) 0.881(2) 0.2372(5)
H4_2 H 0.3985 0.8337 0.2497
N2_2 N 0.3204(6) 0.9387(7) 0.1790(2)
C12_2 C 0.3367(11) 0.9461(12) 0.2566(4)
C18_2 C 0.3131(9) 0.9899(10) 0.4266(3)
H9_2 H 0.3427 0.9461 0.4145
N3_2 N 0.2931(10) 0.9881(11) 0.3510(3)
N4_2 N 0.2843(11) 0.9833(12) 0.3125(3)
C26_2 C 0.3195(9) 0.9940(10) 0.4655(3)
H15_2 H 0.3538 0.9524 0.4788
C28_2 C 0.3453(14) 0.9551(15) 0.2980(4)
C30_2 C 0.421(2) 0.928(4) 0.3173(7)
H20_2 H 0.4176 0.9371 0.3434
H21_2 H 0.4650 0.9648 0.3091
H22_2 H 0.4310 0.8648 0.3125
N5_2 N 0.2780(5) 0.9442(7) 0.9842(2)
C5_2 C 0.9870(7) 0.2540(8) 0.0834(3)
C16_2 C 0.9158(7) 0.3173(8) 0.0829(3)
H10_2 H 0.9939 0.2237 0.1378
O3_2 O 0.2061(5) 0.1562(6) 0.5490(2)
O6_2 O 0.2157(5) 0.1526(6) 0.6107(2)
C6_3 C 0.1138(6) 0.2479(8) 0.5796(3)
C13_3 C 0.0798(7) 0.2837(8) 0.5472(3)
H5_3 H 0.0997 0.2658 0.5249
C14_3 C 0.0163(7) 0.3461(9) 0.5470(3)
C15_3 C 0.0220(7) 0.3360(9) 0.6126(3)
H7_3 H 0.0032 0.3542 0.6351
C17_3 C 0.0843(8) 0.2753(9) 0.6124(3)
H8_3 H 0.1077 0.2514 0.6347
C23_3 C 0.1839(7) 0.1804(8) 0.5797(3)
Zn4_2 Zn 0.30850(7) 0.06108(9) 0.62289(3)
C1_3 C 0.7714(18) 0.516(3) 0.6980(6)
H1_3 H 0.7316 0.4805 0.6849
C2_3 C 0.8634(16) 0.6186(19) 0.6984(5)
H2_3 H 0.8922 0.6629 0.6863
C3_3 C 0.7717(18) 0.516(2) 0.7357(5)
H3_3 H 0.7279 0.4903 0.7470
C4_3 C 0.8699(19) 0.619(2) 0.7372(5)
H4_3 H 0.8985 0.6663 0.7497
Zn1_2 Zn 0.80850(7) 0.56108(9) 0.62289(3)
O1_3 O 0.8830(5) 0.4667(6) 0.5489(2)
N2_3 N 0.8204(6) 0.5613(7) 0.6790(2)
O2_3 O 0.7094(5) 0.4629(6) 0.5542(2)
O4_3 O 0.7221(6) 0.4593(6) 0.6155(2)
O5_2 O 0.3916(5) 0.1610(6) 0.6128(2)
C5_3 C 0.4870(7) 0.2460(8) 0.5834(3)
O7_3 O 0.8952(6) 0.4671(6) 0.6112(3)
O8_2 O 0.3846(5) 0.1571(6) 0.5524(2)
C7_3 C 0.6214(8) 0.3668(9) 0.5848(3)
C8_3 C 0.9146(7) 0.4412(8) 0.5802(3)
C9_3 C 0.9857(7) 0.3715(8) 0.5798(3)
C10_3 C 0.6889(7) 0.4347(8) 0.5847(3)
C11_3 C 0.7630(9) 0.4493(9) 0.9065(3)
C12_3 C 0.8367(11) 0.5539(12) 0.7566(4)
H6_3 H 0.9940 0.3712 0.5247
C16_3 C 0.4158(7) 0.1827(8) 0.5829(3)
C18_3 C 0.8131(9) 0.5101(10) 0.9266(3)
H9_3 H 0.8427 0.5539 0.9145
C19_3 C 0.5183(9) 0.2877(12) 0.6159(4)
H10_3 H 0.4939 0.2763 0.6378
N3_3 N 0.7931(10) 0.5119(11) 0.8510(3)
C20_3 C 0.5882(13) 0.3229(16) 0.5530(4)
H11_3 H 0.6116 0.3341 0.5309
C21_3 C 0.7571(10) 0.4489(11) 0.8649(3)
C22_3 C 0.7192(9) 0.3852(10) 0.9265(3)
H12_3 H 0.6837 0.3434 0.9140
N4_3 N 0.7843(11) 0.5167(12) 0.8125(3)
C24_3 C 0.5240(11) 0.2649(14) 0.5527(4)
H13_3 H 0.5048 0.2372 0.5304
C25_3 C 0.5843(10) 0.3450(11) 0.6163(3)
H14_3 H 0.6050 0.3704 0.6388
C26_3 C 0.8195(9) 0.5060(10) 0.9655(3)
H15_3 H 0.8538 0.5476 0.9788
C27_3 C 0.7294(8) 0.3853(9) 0.9646(3)
H16_3 H 0.7009 0.3419 0.9773
C28_3 C 0.8453(14) 0.5449(15) 0.7980(4)
C29_3 C 0.7108(14) 0.3790(14) 0.8441(4)
H17_3 H 0.7137 0.3895 0.8180
H18_3 H 0.6541 0.3811 0.8497
H19_3 H 0.7337 0.3200 0.8506
C30_3 C 0.921(2) 0.572(4) 0.8173(7)
H20_3 H 0.9176 0.5629 0.8434
H21_3 H 0.9650 0.5352 0.8091
H22_3 H 0.9310 0.6352 0.8125
O9_2 O 0.7061(5) 0.6562(6) 0.5490(2)
O10_2 O 0.8916(5) 0.6610(6) 0.6128(2)
O11_2 O 0.7157(5) 0.6526(6) 0.6107(2)
O12_2 O 0.8846(5) 0.6571(6) 0.5524(2)
C1_4 C 0.2714(18) 0.016(3) 0.6980(6)
C2_4 C 0.3634(16) 0.1186(19) 0.6984(5)
H2_4 H 0.3922 0.1629 0.6863
C3_4 C 0.2717(18) 0.016(2) 0.7357(5)
C4_4 C 0.3699(19) 0.119(2) 0.7372(5)
H4_4 H 0.3985 0.1663 0.7497
N2_4 N 0.3204(6) 0.0613(7) 0.6790(2)
C12_4 C 0.3367(11) 0.0539(12) 0.7566(4)
C18_4 C 0.3131(9) 0.0101(10) 0.9266(3)
H9_4 H 0.3427 0.0539 0.9145
N3_4 N 0.2931(10) 0.0119(11) 0.8510(3)
N4_4 N 0.2843(11) 0.0167(12) 0.8125(3)
C26_4 C 0.3195(9) 0.0060(10) 0.9655(3)
H15_4 H 0.3538 0.0476 0.9788
C28_4 C 0.3453(14) 0.0449(15) 0.7980(4)
C30_4 C 0.421(2) 0.072(4) 0.8173(7)
H20_4 H 0.4176 0.0629 0.8434
H21_4 H 0.4650 0.0352 0.8091
H22_4 H 0.4310 0.1352 0.8125
H1_4 H 0.2316 0.9805 0.6849
H3_4 H 0.2279 0.9903 0.7470
O1_4 O 0.3830(5) 0.9667(6) 0.5489(2)
O2_4 O 0.2094(5) 0.9629(6) 0.5542(2)
O4_4 O 0.2221(6) 0.9593(6) 0.6155(2)
O7_4 O 0.3952(6) 0.9671(6) 0.6112(3)
C6_4 C 0.6138(6) 0.7479(8) 0.5796(3)
C7_4 C 0.1214(8) 0.8668(9) 0.5848(3)
C8_4 C 0.4146(7) 0.9412(8) 0.5802(3)
C9_4 C 0.4857(7) 0.8715(8) 0.5798(3)
C10_4 C 0.1889(7) 0.9347(8) 0.5847(3)
C11_4 C 0.2630(9) 0.9493(9) 0.9065(3)
C13_4 C 0.5798(7) 0.7837(8) 0.5472(3)
H5_4 H 0.5997 0.7658 0.5249
C14_4 C 0.5163(7) 0.8461(9) 0.5470(3)
H6_4 H 0.4940 0.8712 0.5247
C15_4 C 0.5220(7) 0.8360(9) 0.6126(3)
H7_4 H 0.5032 0.8542 0.6351
C17_4 C 0.5843(8) 0.7753(9) 0.6124(3)
H8_4 H 0.6077 0.7514 0.6347
C19_4 C 0.0183(9) 0.7877(12) 0.6159(4)
C20_4 C 0.0882(13) 0.8229(16) 0.5530(4)
H11_4 H 0.1116 0.8341 0.5309
C21_4 C 0.2571(10) 0.9489(11) 0.8649(3)
C22_4 C 0.2192(9) 0.8852(10) 0.9265(3)
H12_4 H 0.1837 0.8434 0.9140
C23_4 C 0.6839(7) 0.6804(8) 0.5797(3)
C24_4 C 0.0240(11) 0.7649(14) 0.5527(4)
H13_4 H 0.0048 0.7372 0.5304
C25_4 C 0.0843(10) 0.8450(11) 0.6163(3)
H14_4 H 0.1050 0.8704 0.6388
C27_4 C 0.2294(8) 0.8853(9) 0.9646(3)
H16_4 H 0.2009 0.8419 0.9773
C29_4 C 0.2108(14) 0.8790(14) 0.8441(4)
H17_4 H 0.2137 0.8895 0.8180
H18_4 H 0.1541 0.8811 0.8497
H19_4 H 0.2337 0.8200 0.8506
C5_4 C 0.9870(7) 0.7460(8) 0.5834(3)
C16_4 C 0.9158(7) 0.6827(8) 0.5829(3)
H10_4 H 0.9939 0.7763 0.6378
C1_5 C 0.2286(18) 0.484(3) 0.3020(6)
H1_5 H 0.2684 0.5195 0.3151
C2_5 C 0.1366(16) 0.3814(19) 0.3016(5)
H2_5 H 0.1078 0.3371 0.3137
C3_5 C 0.2283(18) 0.484(2) 0.2643(5)
H3_5 H 0.2721 0.5097 0.2530
C4_5 C 0.1301(19) 0.381(2) 0.2628(5)
H4_5 H 0.1015 0.3337 0.2503
Zn1_3 Zn 0.19150(7) 0.43892(9) 0.37711(3)
Zn2_2 Zn 0.20694(7) 0.43964(9) 0.45962(3)
O1_5 O 0.1170(5) 0.5333(6) 0.4511(2)
N1_3 N 0.2220(5) 0.5558(7) 0.0158(2)
N2_5 N 0.1796(6) 0.4387(7) 0.3210(2)
O2_5 O 0.2906(5) 0.5371(6) 0.4458(2)
O4_5 O 0.2779(6) 0.5407(6) 0.3845(2)
O5_3 O 0.6084(5) 0.8390(6) 0.3872(2)
C5_5 C 0.5130(7) 0.7540(8) 0.4166(3)
O7_5 O 0.1048(6) 0.5329(6) 0.3888(3)
O8_3 O 0.6154(5) 0.8429(6) 0.4476(2)
C7_5 C 0.3786(8) 0.6332(9) 0.4152(3)
C8_5 C 0.0854(7) 0.5588(8) 0.4198(3)
C9_5 C 0.0143(7) 0.6285(8) 0.4202(3)
C10_5 C 0.3111(7) 0.5653(8) 0.4153(3)
C11_5 C 0.2370(9) 0.5507(9) 0.0935(3)
C12_5 C 0.1633(11) 0.4461(12) 0.2434(4)
H6_5 H 0.0060 0.6288 0.4753
C16_5 C 0.5842(7) 0.8173(8) 0.4171(3)
C18_5 C 0.1869(9) 0.4899(10) 0.0734(3)
H9_5 H 0.1573 0.4461 0.0855
C19_5 C 0.4817(9) 0.7123(12) 0.3841(4)
H10_5 H 0.5061 0.7237 0.3622
N3_5 N 0.2069(10) 0.4881(11) 0.1490(3)
C20_5 C 0.4118(13) 0.6771(16) 0.4470(4)
H11_5 H 0.3884 0.6659 0.4691
C21_5 C 0.2429(10) 0.5511(11) 0.1351(3)
C22_5 C 0.2808(9) 0.6148(10) 0.0735(3)
H12_5 H 0.3163 0.6566 0.0860
N4_5 N 0.2157(11) 0.4833(12) 0.1875(3)
C24_5 C 0.4760(11) 0.7351(14) 0.4473(4)
H13_5 H 0.4952 0.7628 0.4696
C25_5 C 0.4157(10) 0.6550(11) 0.3837(3)
H14_5 H 0.3950 0.6296 0.3612
C26_5 C 0.1805(9) 0.4940(10) 0.0345(3)
H15_5 H 0.1462 0.4524 0.0212
C27_5 C 0.2706(8) 0.6147(9) 0.0354(3)
H16_5 H 0.2991 0.6581 0.0227
C28_5 C 0.1547(14) 0.4551(15) 0.2020(4)
C29_5 C 0.2892(14) 0.6210(14) 0.1559(4)
H17_5 H 0.2863 0.6105 0.1820
H18_5 H 0.3459 0.6189 0.1503
H19_5 H 0.2663 0.6800 0.1494
C30_5 C 0.079(2) 0.428(4) 0.1827(7)
H20_5 H 0.0824 0.4371 0.1566
H21_5 H 0.0350 0.4648 0.1909
H22_5 H 0.0690 0.3648 0.1875
Zn3 Zn 0.69150(7) 0.93892(9) 0.37711(3)
Zn5 Zn 0.70694(7) 0.93964(9) 0.45962(3)
N5_3 N 0.2220(5) 0.4442(7) 0.5158(2)
O9_3 O 0.2939(5) 0.3438(6) 0.4510(2)
O10_3 O 0.1084(5) 0.3390(6) 0.3872(2)
O11_3 O 0.2843(5) 0.3474(6) 0.3893(2)
O12_3 O 0.1154(5) 0.3429(6) 0.4476(2)
Zn7_3 Zn 0.20694(7) 0.56036(9) 0.95962(3)
O3_3 O 0.7939(5) 0.8438(6) 0.4510(2)
O6_3 O 0.7843(5) 0.8474(6) 0.3893(2)
C6_5 C 0.8862(6) 0.7521(8) 0.4204(3)
C13_5 C 0.9202(7) 0.7163(8) 0.4528(3)
H5_5 H 0.9003 0.7342 0.4751
C14_5 C 0.9837(7) 0.6539(9) 0.4530(3)
C15_5 C 0.9780(7) 0.6640(9) 0.3874(3)
H7_5 H 0.9968 0.6458 0.3649
C17_5 C 0.9157(8) 0.7247(9) 0.3876(3)
H8_5 H 0.8923 0.7486 0.3653
C23_5 C 0.8161(7) 0.8196(8) 0.4203(3)
C5_6 C 0.0130(7) 0.2540(8) 0.4166(3)
C16_6 C 0.0842(7) 0.3173(8) 0.4171(3)
H10_6 H 0.0061 0.2237 0.3622
H1_6 H 0.7684 0.0195 0.3151
H3_6 H 0.7721 0.0097 0.2530
O1_6 O 0.6170(5) 0.0333(6) 0.4511(2)
N1_4 N 0.7220(5) 0.0558(7) 0.0158(2)
O2_6 O 0.7906(5) 0.0371(6) 0.4458(2)
O4_6 O 0.7779(6) 0.0407(6) 0.3845(2)
O7_6 O 0.6048(6) 0.0329(6) 0.3888(3)
C6_6 C 0.3862(6) 0.2521(8) 0.4204(3)
C7_6 C 0.8786(8) 0.1332(9) 0.4152(3)
C8_6 C 0.5854(7) 0.0588(8) 0.4198(3)
C9_6 C 0.5143(7) 0.1285(8) 0.4202(3)
C10_6 C 0.8111(7) 0.0653(8) 0.4153(3)
C11_6 C 0.7370(9) 0.0507(9) 0.0935(3)
C13_6 C 0.4202(7) 0.2163(8) 0.4528(3)
H5_6 H 0.4003 0.2342 0.4751
C14_6 C 0.4837(7) 0.1539(9) 0.4530(3)
H6_6 H 0.5060 0.1288 0.4753
C15_6 C 0.4780(7) 0.1640(9) 0.3874(3)
H7_6 H 0.4968 0.1458 0.3649
C17_6 C 0.4157(8) 0.2247(9) 0.3876(3)
H8_6 H 0.3923 0.2486 0.3653
C19_6 C 0.9817(9) 0.2123(12) 0.3841(4)
C20_6 C 0.9118(13) 0.1771(16) 0.4470(4)
H11_6 H 0.8884 0.1659 0.4691
C21_6 C 0.7429(10) 0.0511(11) 0.1351(3)
C22_6 C 0.7808(9) 0.1148(10) 0.0735(3)
H12_6 H 0.8163 0.1566 0.0860
C23_6 C 0.3161(7) 0.3196(8) 0.4203(3)
C24_6 C 0.9760(11) 0.2351(14) 0.4473(4)
H13_6 H 0.9952 0.2628 0.4696
C25_6 C 0.9157(10) 0.1550(11) 0.3837(3)
H14_6 H 0.8950 0.1296 0.3612
C27_6 C 0.7706(8) 0.1147(9) 0.0354(3)
H16_6 H 0.7991 0.1581 0.0227
C29_6 C 0.7892(14) 0.1210(14) 0.1559(4)
H17_6 H 0.7863 0.1105 0.1820
H18_6 H 0.8459 0.1189 0.1503
H19_6 H 0.7663 0.1800 0.1494
Zn7_4 Zn 0.70694(7) 0.06036(9) 0.95962(3)
C1_6 C 0.7286(18) 0.984(3) 0.3020(6)
C2_6 C 0.6366(16) 0.8814(19) 0.3016(5)
H2_6 H 0.6078 0.8371 0.3137
C3_6 C 0.7283(18) 0.984(2) 0.2643(5)
C4_6 C 0.6301(19) 0.881(2) 0.2628(5)
H4_6 H 0.6015 0.8337 0.2503
N2_6 N 0.6796(6) 0.9387(7) 0.3210(2)
C12_6 C 0.6633(11) 0.9461(12) 0.2434(4)
C18_6 C 0.6869(9) 0.9899(10) 0.0734(3)
H9_6 H 0.6573 0.9461 0.0855
N3_6 N 0.7069(10) 0.9881(11) 0.1490(3)
N4_6 N 0.7157(11) 0.9833(12) 0.1875(3)
C26_6 C 0.6805(9) 0.9940(10) 0.0345(3)
H15_6 H 0.6462 0.9524 0.0212
C28_6 C 0.6547(14) 0.9551(15) 0.2020(4)
C30_6 C 0.579(2) 0.928(4) 0.1827(7)
H20_6 H 0.5824 0.9371 0.1566
H21_6 H 0.5350 0.9648 0.1909
H22_6 H 0.5690 0.8648 0.1875
N5_4 N 0.7220(5) 0.9442(7) 0.5158(2)
C1_7 C 0.2286(18) 0.516(3) 0.8020(6)
H1_7 H 0.2684 0.4805 0.8151
C2_7 C 0.1366(16) 0.6186(19) 0.8016(5)
H2_7 H 0.1078 0.6629 0.8137
C3_7 C 0.2283(18) 0.516(2) 0.7643(5)
H3_7 H 0.2721 0.4903 0.7530
C4_7 C 0.1301(19) 0.619(2) 0.7628(5)
H4_7 H 0.1015 0.6663 0.7503
Zn1_4 Zn 0.19150(7) 0.56108(9) 0.87711(3)
O1_7 O 0.1170(5) 0.4667(6) 0.9511(2)
N2_7 N 0.1796(6) 0.5613(7) 0.8210(2)
O2_7 O 0.2906(5) 0.4629(6) 0.9458(2)
O4_7 O 0.2779(6) 0.4593(6) 0.8845(2)
O5_4 O 0.6084(5) 0.1610(6) 0.8872(2)
C5_7 C 0.5130(7) 0.2460(8) 0.9166(3)
O7_7 O 0.1048(6) 0.4671(6) 0.8888(3)
O8_4 O 0.6154(5) 0.1571(6) 0.9476(2)
C7_7 C 0.3786(8) 0.3668(9) 0.9152(3)
C8_7 C 0.0854(7) 0.4412(8) 0.9198(3)
C9_7 C 0.0143(7) 0.3715(8) 0.9202(3)
C10_7 C 0.3111(7) 0.4347(8) 0.9153(3)
C11_7 C 0.2370(9) 0.4493(9) 0.5935(3)
C12_7 C 0.1633(11) 0.5539(12) 0.7434(4)
H6_7 H 0.0060 0.3712 0.9753
C16_7 C 0.5842(7) 0.1827(8) 0.9171(3)
C18_7 C 0.1869(9) 0.5101(10) 0.5734(3)
H9_7 H 0.1573 0.5539 0.5855
C19_7 C 0.4817(9) 0.2877(12) 0.8841(4)
H10_7 H 0.5061 0.2763 0.8622
N3_7 N 0.2069(10) 0.5119(11) 0.6490(3)
C20_7 C 0.4118(13) 0.3229(16) 0.9470(4)
H11_7 H 0.3884 0.3341 0.9691
C21_7 C 0.2429(10) 0.4489(11) 0.6351(3)
C22_7 C 0.2808(9) 0.3852(10) 0.5735(3)
H12_7 H 0.3163 0.3434 0.5860
N4_7 N 0.2157(11) 0.5167(12) 0.6875(3)
C24_7 C 0.4760(11) 0.2649(14) 0.9473(4)
H13_7 H 0.4952 0.2372 0.9696
C25_7 C 0.4157(10) 0.3450(11) 0.8837(3)
H14_7 H 0.3950 0.3704 0.8612
C26_7 C 0.1805(9) 0.5060(10) 0.5345(3)
H15_7 H 0.1462 0.5476 0.5212
C27_7 C 0.2706(8) 0.3853(9) 0.5354(3)
H16_7 H 0.2991 0.3419 0.5227
C28_7 C 0.1547(14) 0.5449(15) 0.7020(4)
C29_7 C 0.2892(14) 0.3790(14) 0.6559(4)
H17_7 H 0.2863 0.3895 0.6820
H18_7 H 0.3459 0.3811 0.6503
H19_7 H 0.2663 0.3200 0.6494
C30_7 C 0.079(2) 0.572(4) 0.6827(7)
H20_7 H 0.0824 0.5629 0.6566
H21_7 H 0.0350 0.5352 0.6909
H22_7 H 0.0690 0.6352 0.6875
Zn3_2 Zn 0.69150(7) 0.06108(9) 0.87711(3)
O9_4 O 0.2939(5) 0.6562(6) 0.9510(2)
O10_4 O 0.1084(5) 0.6610(6) 0.8872(2)
O11_4 O 0.2843(5) 0.6526(6) 0.8893(2)
O12_4 O 0.1154(5) 0.6571(6) 0.9476(2)
O3_4 O 0.7939(5) 0.1562(6) 0.9510(2)
O6_4 O 0.7843(5) 0.1526(6) 0.8893(2)
C6_7 C 0.8862(6) 0.2479(8) 0.9204(3)
C13_7 C 0.9202(7) 0.2837(8) 0.9528(3)
H5_7 H 0.9003 0.2658 0.9751
C14_7 C 0.9837(7) 0.3461(9) 0.9530(3)
C15_7 C 0.9780(7) 0.3360(9) 0.8874(3)
H7_7 H 0.9968 0.3542 0.8649
C17_7 C 0.9157(8) 0.2753(9) 0.8876(3)
H8_7 H 0.8923 0.2514 0.8653
C23_7 C 0.8161(7) 0.1804(8) 0.9203(3)
C5_8 C 0.0130(7) 0.7460(8) 0.9166(3)
C16_8 C 0.0842(7) 0.6827(8) 0.9171(3)
H10_8 H 0.0061 0.7763 0.8622
C1_8 C 0.7286(18) 0.016(3) 0.8020(6)
C2_8 C 0.6366(16) 0.1186(19) 0.8016(5)
H2_8 H 0.6078 0.1629 0.8137
C3_8 C 0.7283(18) 0.016(2) 0.7643(5)
C4_8 C 0.6301(19) 0.119(2) 0.7628(5)
H4_8 H 0.6015 0.1663 0.7503
N2_8 N 0.6796(6) 0.0613(7) 0.8210(2)
C12_8 C 0.6633(11) 0.0539(12) 0.7434(4)
C18_8 C 0.6869(9) 0.0101(10) 0.5734(3)
H9_8 H 0.6573 0.0539 0.5855
N3_8 N 0.7069(10) 0.0119(11) 0.6490(3)
N4_8 N 0.7157(11) 0.0167(12) 0.6875(3)
C26_8 C 0.6805(9) 0.0060(10) 0.5345(3)
H15_8 H 0.6462 0.0476 0.5212
C28_8 C 0.6547(14) 0.0449(15) 0.7020(4)
C30_8 C 0.579(2) 0.072(4) 0.6827(7)
H20_8 H 0.5824 0.0629 0.6566
H21_8 H 0.5350 0.0352 0.6909
H22_8 H 0.5690 0.1352 0.6875
H1_8 H 0.7684 0.9805 0.8151
H3_8 H 0.7721 0.9903 0.7530
O1_8 O 0.6170(5) 0.9667(6) 0.9511(2)
O2_8 O 0.7906(5) 0.9629(6) 0.9458(2)
O4_8 O 0.7779(6) 0.9593(6) 0.8845(2)
O7_8 O 0.6048(6) 0.9671(6) 0.8888(3)
C6_8 C 0.3862(6) 0.7479(8) 0.9204(3)
C7_8 C 0.8786(8) 0.8668(9) 0.9152(3)
C8_8 C 0.5854(7) 0.9412(8) 0.9198(3)
C9_8 C 0.5143(7) 0.8715(8) 0.9202(3)
C10_8 C 0.8111(7) 0.9347(8) 0.9153(3)
C11_8 C 0.7370(9) 0.9493(9) 0.5935(3)
C13_8 C 0.4202(7) 0.7837(8) 0.9528(3)
H5_8 H 0.4003 0.7658 0.9751
C14_8 C 0.4837(7) 0.8461(9) 0.9530(3)
H6_8 H 0.5060 0.8712 0.9753
C15_8 C 0.4780(7) 0.8360(9) 0.8874(3)
H7_8 H 0.4968 0.8542 0.8649
C17_8 C 0.4157(8) 0.7753(9) 0.8876(3)
H8_8 H 0.3923 0.7514 0.8653
C19_8 C 0.9817(9) 0.7877(12) 0.8841(4)
C20_8 C 0.9118(13) 0.8229(16) 0.9470(4)
H11_8 H 0.8884 0.8341 0.9691
C21_8 C 0.7429(10) 0.9489(11) 0.6351(3)
C22_8 C 0.7808(9) 0.8852(10) 0.5735(3)
H12_8 H 0.8163 0.8434 0.5860
C23_8 C 0.3161(7) 0.6804(8) 0.9203(3)
C24_8 C 0.9760(11) 0.7649(14) 0.9473(4)
H13_8 H 0.9952 0.7372 0.9696
C25_8 C 0.9157(10) 0.8450(11) 0.8837(3)
H14_8 H 0.8950 0.8704 0.8612
C27_8 C 0.7706(8) 0.8853(9) 0.5354(3)
H16_8 H 0.7991 0.8419 0.5227
C29_8 C 0.7892(14) 0.8790(14) 0.6559(4)
H17_8 H 0.7863 0.8895 0.6820
H18_8 H 0.8459 0.8811 0.6503
H19_8 H 0.7663 0.8200 0.6494
loop_
_geom_bond_atom_site_label_1
_geom_bond_atom_site_label_2
_geom_bond_site_symmetry_1
_geom_bond_site_symmetry_2
O3 C23 1_555 1_555
O6 C23 1_555 1_555
C6 C13 1_555 1_555
C13 H5 1_555 1_555
H7 C15 1_555 1_555
C17 C6 1_555 1_555
H8 C17 1_555 1_555
C23 C6 1_555 1_555
Zn4 O6 1_555 1_555
Zn6 O3 1_555 1_555
C13 C14 1_555 1_555
C15 C17 1_555 1_555
C1 H1 1_555 1_555
C2 H2 1_555 1_555
C3 C1 1_555 1_555
H3 C3 1_555 1_555
C4 C2 1_555 1_555
H4 C4 1_555 1_555
Zn1 N2 1_555 1_555
Zn2 O1 1_555 1_555
O1 C8 1_555 1_555
N1 C26 1_555 1_555
N2 C1 1_555 1_555
O2 Zn2 1_555 1_555
O4 Zn1 1_555 1_555
O5 C16 1_555 1_555
C5 C16 1_555 1_555
O7 Zn1 1_555 1_555
O8 C16 1_555 1_555
C7 C10 1_555 1_555
C8 O7 1_555 1_555
C9 C8 1_555 1_555
C10 O2 1_555 1_555
C11 C18 1_555 1_555
C12 C3 1_555 1_555
C18 H9 1_555 1_555
C19 C5 1_555 1_555
H10 C19 1_555 1_555
N3 C21 1_555 1_555
C20 C7 1_555 1_555
H11 C20 1_555 1_555
C21 C11 1_555 1_555
C22 C11 1_555 1_555
H12 C22 1_555 1_555
N4 N3 1_555 1_555
C24 C5 1_555 1_555
H13 C24 1_555 1_555
C25 C7 1_555 1_555
H14 C25 1_555 1_555
C26 C18 1_555 1_555
H15 C26 1_555 1_555
C27 N1 1_555 1_555
H16 C27 1_555 1_555
C28 C12 1_555 1_555
C29 C21 1_555 1_555
H17 C29 1_555 1_555
H18 C29 1_555 1_555
H19 C29 1_555 1_555
C30 C28 1_555 1_555
H20 C30 1_555 1_555
H21 C30 1_555 1_555
H22 C30 1_555 1_555
Zn4 O5 1_555 1_555
Zn6 O8 1_555 1_555
Zn7 N1 1_555 1_555
O9 Zn2 1_555 1_555
O10 Zn1 1_555 1_555
O11 Zn1 1_555 1_555
O12 Zn2 1_555 1_555
C2 N2 1_555 1_555
C4 C12 1_555 1_555
O4 C10 1_555 1_555
C19 C25 1_555 1_555
C20 C24 1_555 1_555
C22 C27 1_555 1_555
N4 C28 1_555 1_555
O1_2 C8_2 1_555 1_555
O9 C23_2 1_555 1_555
O11 C23_2 1_555 1_555
C6_2 C13_2 1_555 1_555
C7_2 C10_2 1_555 1_555
C8_2 O7_2 1_555 1_555
C9_2 C8_2 1_555 1_555
C10_2 O2_2 1_555 1_555
C13_2 H5_2 1_555 1_555
C14_2 C9_2 1_555 1_555
H6_2 C14_2 1_555 1_555
C15_2 C9_2 1_555 1_555
H7_2 C15_2 1_555 1_555
C17_2 C6_2 1_555 1_555
H8_2 C17_2 1_555 1_555
C20_2 C7_2 1_555 1_555
H11_2 C20_2 1_555 1_555
C21_2 C11_2 1_555 1_555
C22_2 C11_2 1_555 1_555
H12_2 C22_2 1_555 1_555
C23_2 C6_2 1_555 1_555
H13_2 C24_2 1_555 1_555
C25_2 C7_2 1_555 1_555
H14_2 C25_2 1_555 1_555
C27_2 N1_2 1_555 1_555
H16_2 C27_2 1_555 1_555
C29_2 C21_2 1_555 1_555
H17_2 C29_2 1_555 1_555
H18_2 C29_2 1_555 1_555
H19_2 C29_2 1_555 1_555
Zn7_2 N1_2 1_555 1_555
O4_2 C10_2 1_555 1_555
C13_2 C14_2 1_555 1_555
C15_2 C17_2 1_555 1_555
C19_2 C25_2 1_555 1_555
C20_2 C24_2 1_555 1_555
C22_2 C27_2 1_555 1_555
C2_2 H2_2 1_555 1_555
C3_2 C1_2 1_555 1_555
C4_2 C2_2 1_555 1_555
H4_2 C4_2 1_555 1_555
Zn4 N2_2 1_555 1_555
N2_2 C1_2 1_555 1_555
C12_2 C3_2 1_555 1_555
C18_2 H9_2 1_555 1_555
N4_2 N3_2 1_555 1_555
C26_2 C18_2 1_555 1_555
H15_2 C26_2 1_555 1_555
C28_2 C12_2 1_555 1_555
C30_2 C28_2 1_555 1_555
H20_2 C30_2 1_555 1_555
H21_2 C30_2 1_555 1_555
H22_2 C30_2 1_555 1_555
C2_2 N2_2 1_555 1_555
C4_2 C12_2 1_555 1_555
N4_2 C28_2 1_555 1_555
O10 C16_2 1_555 1_555
C5_2 C16_2 1_555 1_555
O12 C16_2 1_555 1_555
O3_2 C23_3 1_555 1_555
O6_2 C23_3 1_555 1_555
C6_3 C13_3 1_555 1_555
C13_3 H5_3 1_555 1_555
H7_3 C15_3 1_555 1_555
C17_3 C6_3 1_555 1_555
H8_3 C17_3 1_555 1_555
C23_3 C6_3 1_555 1_555
Zn4_2 O6_2 1_555 1_555
Zn7_2 O3_2 1_555 1_555
C13_3 C14_3 1_555 1_555
C15_3 C17_3 1_555 1_555
C1_3 H1_3 1_555 1_555
C2_3 H2_3 1_555 1_555
C3_3 C1_3 1_555 1_555
H3_3 C3_3 1_555 1_555
C4_3 C2_3 1_555 1_555
H4_3 C4_3 1_555 1_555
Zn1_2 N2_3 1_555 1_555
Zn7 O1_3 1_555 1_555
O1_3 C8_3 1_555 1_555
N5 C26_3 1_555 1_555
N2_3 C1_3 1_555 1_555
O2_3 Zn7 1_555 1_555
O4_3 Zn1_2 1_555 1_555
O5_2 C16_3 1_555 1_555
C5_3 C16_3 1_555 1_555
O7_3 Zn1_2 1_555 1_555
O8_2 C16_3 1_555 1_555
C7_3 C10_3 1_555 1_555
C8_3 O7_3 1_555 1_555
C9_3 C8_3 1_555 1_555
C10_3 O2_3 1_555 1_555
C11_3 C18_3 1_555 1_555
C12_3 C3_3 1_555 1_555
C18_3 H9_3 1_555 1_555
C19_3 C5_3 1_555 1_555
H10_3 C19_3 1_555 1_555
N3_3 C21_3 1_555 1_555
C20_3 C7_3 1_555 1_555
H11_3 C20_3 1_555 1_555
C21_3 C11_3 1_555 1_555
C22_3 C11_3 1_555 1_555
H12_3 C22_3 1_555 1_555
N4_3 N3_3 1_555 1_555
C24_3 C5_3 1_555 1_555
H13_3 C24_3 1_555 1_555
C25_3 C7_3 1_555 1_555
H14_3 C25_3 1_555 1_555
C26_3 C18_3 1_555 1_555
H15_3 C26_3 1_555 1_555
C27_3 N5 1_555 1_555
H16_3 C27_3 1_555 1_555
C28_3 C12_3 1_555 1_555
C29_3 C21_3 1_555 1_555
H17_3 C29_3 1_555 1_555
H18_3 C29_3 1_555 1_555
H19_3 C29_3 1_555 1_555
C30_3 C28_3 1_555 1_555
H20_3 C30_3 1_555 1_555
H21_3 C30_3 1_555 1_555
H22_3 C30_3 1_555 1_555
Zn4_2 O5_2 1_555 1_555
Zn7_2 O8_2 1_555 1_555
O9_2 Zn7 1_555 1_555
O10_2 Zn1_2 1_555 1_555
O11_2 Zn1_2 1_555 1_555
O12_2 Zn7 1_555 1_555
C2_3 N2_3 1_555 1_555
C4_3 C12_3 1_555 1_555
O4_3 C10_3 1_555 1_555
C19_3 C25_3 1_555 1_555
C20_3 C24_3 1_555 1_555
C22_3 C27_3 1_555 1_555
N4_3 C28_3 1_555 1_555
C2_4 H2_4 1_555 1_555
C3_4 C1_4 1_555 1_555
C4_4 C2_4 1_555 1_555
H4_4 C4_4 1_555 1_555
Zn4_2 N2_4 1_555 1_555
N2_4 C1_4 1_555 1_555
C12_4 C3_4 1_555 1_555
C18_4 H9_4 1_555 1_555
N4_4 N3_4 1_555 1_555
C26_4 C18_4 1_555 1_555
H15_4 C26_4 1_555 1_555
C28_4 C12_4 1_555 1_555
C30_4 C28_4 1_555 1_555
H20_4 C30_4 1_555 1_555
H21_4 C30_4 1_555 1_555
H22_4 C30_4 1_555 1_555
C2_4 N2_4 1_555 1_555
C4_4 C12_4 1_555 1_555
N4_4 C28_4 1_555 1_555
O1_4 C8_4 1_555 1_555
O9_2 C23_4 1_555 1_555
O11_2 C23_4 1_555 1_555
C6_4 C13_4 1_555 1_555
C7_4 C10_4 1_555 1_555
C8_4 O7_4 1_555 1_555
C9_4 C8_4 1_555 1_555
C10_4 O2_4 1_555 1_555
C13_4 H5_4 1_555 1_555
C14_4 C9_4 1_555 1_555
H6_4 C14_4 1_555 1_555
C15_4 C9_4 1_555 1_555
H7_4 C15_4 1_555 1_555
C17_4 C6_4 1_555 1_555
H8_4 C17_4 1_555 1_555
C20_4 C7_4 1_555 1_555
H11_4 C20_4 1_555 1_555
C21_4 C11_4 1_555 1_555
C22_4 C11_4 1_555 1_555
H12_4 C22_4 1_555 1_555
C23_4 C6_4 1_555 1_555
H13_4 C24_4 1_555 1_555
C25_4 C7_4 1_555 1_555
H14_4 C25_4 1_555 1_555
C27_4 N5_2 1_555 1_555
H16_4 C27_4 1_555 1_555
C29_4 C21_4 1_555 1_555
H17_4 C29_4 1_555 1_555
H18_4 C29_4 1_555 1_555
H19_4 C29_4 1_555 1_555
O4_4 C10_4 1_555 1_555
C13_4 C14_4 1_555 1_555
C15_4 C17_4 1_555 1_555
C19_4 C25_4 1_555 1_555
C20_4 C24_4 1_555 1_555
C22_4 C27_4 1_555 1_555
O10_2 C16_4 1_555 1_555
C5_4 C16_4 1_555 1_555
O12_2 C16_4 1_555 1_555
C1_5 H1_5 1_555 1_555
C2_5 H2_5 1_555 1_555
C3_5 C1_5 1_555 1_555
H3_5 C3_5 1_555 1_555
C4_5 C2_5 1_555 1_555
H4_5 C4_5 1_555 1_555
Zn1_3 N2_5 1_555 1_555
Zn2_2 O1_5 1_555 1_555
O1_5 C8_5 1_555 1_555
N1_3 C26_5 1_555 1_555
N2_5 C1_5 1_555 1_555
O2_5 Zn2_2 1_555 1_555
O4_5 Zn1_3 1_555 1_555
O5_3 C16_5 1_555 1_555
C5_5 C16_5 1_555 1_555
O7_5 Zn1_3 1_555 1_555
O8_3 C16_5 1_555 1_555
C7_5 C10_5 1_555 1_555
C8_5 O7_5 1_555 1_555
C9_5 C8_5 1_555 1_555
C10_5 O2_5 1_555 1_555
C11_5 C18_5 1_555 1_555
C12_5 C3_5 1_555 1_555
C18_5 H9_5 1_555 1_555
C19_5 C5_5 1_555 1_555
H10_5 C19_5 1_555 1_555
N3_5 C21_5 1_555 1_555
C20_5 C7_5 1_555 1_555
H11_5 C20_5 1_555 1_555
C21_5 C11_5 1_555 1_555
C22_5 C11_5 1_555 1_555
H12_5 C22_5 1_555 1_555
N4_5 N3_5 1_555 1_555
C24_5 C5_5 1_555 1_555
H13_5 C24_5 1_555 1_555
C25_5 C7_5 1_555 1_555
H14_5 C25_5 1_555 1_555
C26_5 C18_5 1_555 1_555
H15_5 C26_5 1_555 1_555
C27_5 N1_3 1_555 1_555
H16_5 C27_5 1_555 1_555
C28_5 C12_5 1_555 1_555
C29_5 C21_5 1_555 1_555
H17_5 C29_5 1_555 1_555
H18_5 C29_5 1_555 1_555
H19_5 C29_5 1_555 1_555
C30_5 C28_5 1_555 1_555
H20_5 C30_5 1_555 1_555
H21_5 C30_5 1_555 1_555
H22_5 C30_5 1_555 1_555
Zn3 O5_3 1_555 1_555
Zn5 O8_3 1_555 1_555
N5_3 Zn2_2 1_555 1_555
O9_3 Zn2_2 1_555 1_555
O10_3 Zn1_3 1_555 1_555
O11_3 Zn1_3 1_555 1_555
O12_3 Zn2_2 1_555 1_555
C2_5 N2_5 1_555 1_555
C4_5 C12_5 1_555 1_555
O4_5 C10_5 1_555 1_555
C19_5 C25_5 1_555 1_555
C20_5 C24_5 1_555 1_555
C22_5 C27_5 1_555 1_555
N4_5 C28_5 1_555 1_555
O3_3 C23_5 1_555 1_555
O6_3 C23_5 1_555 1_555
C6_5 C13_5 1_555 1_555
C13_5 H5_5 1_555 1_555
H7_5 C15_5 1_555 1_555
C17_5 C6_5 1_555 1_555
H8_5 C17_5 1_555 1_555
C23_5 C6_5 1_555 1_555
Zn3 O6_3 1_555 1_555
Zn5 O3_3 1_555 1_555
C13_5 C14_5 1_555 1_555
C15_5 C17_5 1_555 1_555
O10_3 C16_6 1_555 1_555
C5_6 C16_6 1_555 1_555
O12_3 C16_6 1_555 1_555
O1_6 C8_6 1_555 1_555
O9_3 C23_6 1_555 1_555
O11_3 C23_6 1_555 1_555
C6_6 C13_6 1_555 1_555
C7_6 C10_6 1_555 1_555
C8_6 O7_6 1_555 1_555
C9_6 C8_6 1_555 1_555
C10_6 O2_6 1_555 1_555
C13_6 H5_6 1_555 1_555
C14_6 C9_6 1_555 1_555
H6_6 C14_6 1_555 1_555
C15_6 C9_6 1_555 1_555
H7_6 C15_6 1_555 1_555
C17_6 C6_6 1_555 1_555
H8_6 C17_6 1_555 1_555
C20_6 C7_6 1_555 1_555
H11_6 C20_6 1_555 1_555
C21_6 C11_6 1_555 1_555
C22_6 C11_6 1_555 1_555
H12_6 C22_6 1_555 1_555
C23_6 C6_6 1_555 1_555
H13_6 C24_6 1_555 1_555
C25_6 C7_6 1_555 1_555
H14_6 C25_6 1_555 1_555
C27_6 N1_4 1_555 1_555
H16_6 C27_6 1_555 1_555
C29_6 C21_6 1_555 1_555
H17_6 C29_6 1_555 1_555
H18_6 C29_6 1_555 1_555
H19_6 C29_6 1_555 1_555
O4_6 C10_6 1_555 1_555
C13_6 C14_6 1_555 1_555
C15_6 C17_6 1_555 1_555
C19_6 C25_6 1_555 1_555
C20_6 C24_6 1_555 1_555
C22_6 C27_6 1_555 1_555
C2_6 H2_6 1_555 1_555
C3_6 C1_6 1_555 1_555
C4_6 C2_6 1_555 1_555
H4_6 C4_6 1_555 1_555
Zn3 N2_6 1_555 1_555
N2_6 C1_6 1_555 1_555
C12_6 C3_6 1_555 1_555
C18_6 H9_6 1_555 1_555
N4_6 N3_6 1_555 1_555
C26_6 C18_6 1_555 1_555
H15_6 C26_6 1_555 1_555
C28_6 C12_6 1_555 1_555
C30_6 C28_6 1_555 1_555
H20_6 C30_6 1_555 1_555
H21_6 C30_6 1_555 1_555
H22_6 C30_6 1_555 1_555
N5_4 Zn5 1_555 1_555
C2_6 N2_6 1_555 1_555
C4_6 C12_6 1_555 1_555
N4_6 C28_6 1_555 1_555
C1_7 H1_7 1_555 1_555
C2_7 H2_7 1_555 1_555
C3_7 C1_7 1_555 1_555
H3_7 C3_7 1_555 1_555
C4_7 C2_7 1_555 1_555
H4_7 C4_7 1_555 1_555
Zn1_4 N2_7 1_555 1_555
Zn7_3 O1_7 1_555 1_555
O1_7 C8_7 1_555 1_555
N5_3 C26_7 1_555 1_555
N2_7 C1_7 1_555 1_555
O2_7 Zn7_3 1_555 1_555
O4_7 Zn1_4 1_555 1_555
O5_4 C16_7 1_555 1_555
C5_7 C16_7 1_555 1_555
O7_7 Zn1_4 1_555 1_555
O8_4 C16_7 1_555 1_555
C7_7 C10_7 1_555 1_555
C8_7 O7_7 1_555 1_555
C9_7 C8_7 1_555 1_555
C10_7 O2_7 1_555 1_555
C11_7 C18_7 1_555 1_555
C12_7 C3_7 1_555 1_555
C18_7 H9_7 1_555 1_555
C19_7 C5_7 1_555 1_555
H10_7 C19_7 1_555 1_555
N3_7 C21_7 1_555 1_555
C20_7 C7_7 1_555 1_555
H11_7 C20_7 1_555 1_555
C21_7 C11_7 1_555 1_555
C22_7 C11_7 1_555 1_555
H12_7 C22_7 1_555 1_555
N4_7 N3_7 1_555 1_555
C24_7 C5_7 1_555 1_555
H13_7 C24_7 1_555 1_555
C25_7 C7_7 1_555 1_555
H14_7 C25_7 1_555 1_555
C26_7 C18_7 1_555 1_555
H15_7 C26_7 1_555 1_555
C27_7 N5_3 1_555 1_555
H16_7 C27_7 1_555 1_555
C28_7 C12_7 1_555 1_555
C29_7 C21_7 1_555 1_555
H17_7 C29_7 1_555 1_555
H18_7 C29_7 1_555 1_555
H19_7 C29_7 1_555 1_555
C30_7 C28_7 1_555 1_555
H20_7 C30_7 1_555 1_555
H21_7 C30_7 1_555 1_555
H22_7 C30_7 1_555 1_555
Zn3_2 O5_4 1_555 1_555
Zn7_4 O8_4 1_555 1_555
O9_4 Zn7_3 1_555 1_555
O10_4 Zn1_4 1_555 1_555
O11_4 Zn1_4 1_555 1_555
O12_4 Zn7_3 1_555 1_555
C2_7 N2_7 1_555 1_555
C4_7 C12_7 1_555 1_555
O4_7 C10_7 1_555 1_555
C19_7 C25_7 1_555 1_555
C20_7 C24_7 1_555 1_555
C22_7 C27_7 1_555 1_555
N4_7 C28_7 1_555 1_555
O3_4 C23_7 1_555 1_555
O6_4 C23_7 1_555 1_555
C6_7 C13_7 1_555 1_555
C13_7 H5_7 1_555 1_555
H7_7 C15_7 1_555 1_555
C17_7 C6_7 1_555 1_555
H8_7 C17_7 1_555 1_555
C23_7 C6_7 1_555 1_555
Zn3_2 O6_4 1_555 1_555
Zn7_4 O3_4 1_555 1_555
C13_7 C14_7 1_555 1_555
C15_7 C17_7 1_555 1_555
O10_4 C16_8 1_555 1_555
C5_8 C16_8 1_555 1_555
O12_4 C16_8 1_555 1_555
C2_8 H2_8 1_555 1_555
C3_8 C1_8 1_555 1_555
C4_8 C2_8 1_555 1_555
H4_8 C4_8 1_555 1_555
Zn3_2 N2_8 1_555 1_555
N2_8 C1_8 1_555 1_555
C12_8 C3_8 1_555 1_555
C18_8 H9_8 1_555 1_555
N4_8 N3_8 1_555 1_555
C26_8 C18_8 1_555 1_555
H15_8 C26_8 1_555 1_555
C28_8 C12_8 1_555 1_555
C30_8 C28_8 1_555 1_555
H20_8 C30_8 1_555 1_555
H21_8 C30_8 1_555 1_555
H22_8 C30_8 1_555 1_555
C2_8 N2_8 1_555 1_555
C4_8 C12_8 1_555 1_555
N4_8 C28_8 1_555 1_555
O1_8 C8_8 1_555 1_555
O9_4 C23_8 1_555 1_555
O11_4 C23_8 1_555 1_555
C6_8 C13_8 1_555 1_555
C7_8 C10_8 1_555 1_555
C8_8 O7_8 1_555 1_555
C9_8 C8_8 1_555 1_555
C10_8 O2_8 1_555 1_555
C13_8 H5_8 1_555 1_555
C14_8 C9_8 1_555 1_555
H6_8 C14_8 1_555 1_555
C15_8 C9_8 1_555 1_555
H7_8 C15_8 1_555 1_555
C17_8 C6_8 1_555 1_555
H8_8 C17_8 1_555 1_555
C20_8 C7_8 1_555 1_555
H11_8 C20_8 1_555 1_555
C21_8 C11_8 1_555 1_555
C22_8 C11_8 1_555 1_555
H12_8 C22_8 1_555 1_555
C23_8 C6_8 1_555 1_555
H13_8 C24_8 1_555 1_555
C25_8 C7_8 1_555 1_555
H14_8 C25_8 1_555 1_555
C27_8 N5_4 1_555 1_555
H16_8 C27_8 1_555 1_555
C29_8 C21_8 1_555 1_555
H17_8 C29_8 1_555 1_555
H18_8 C29_8 1_555 1_555
H19_8 C29_8 1_555 1_555
O4_8 C10_8 1_555 1_555
C13_8 C14_8 1_555 1_555
C15_8 C17_8 1_555 1_555
C19_8 C25_8 1_555 1_555
C20_8 C24_8 1_555 1_555
C22_8 C27_8 1_555 1_555

#END
