
###############################################################################
#
# This file contains modified crystal structure data generated from the
# MOF subset of the Cambridge Structural Database (CSD) v543 
# hosted by the Cambridge Crystallographic Data Centre (CCDC).
#
# This work is licensed under the Creative Commons
# Attribution-NonCommercial-ShareAlike 4.0 International License.
# To view a copy of this license, visit
# http://creativecommons.org/licenses/by-nc-sa/4.0/
# or send a letter to
# Creative Commons, PO Box 1866, Mountain View, CA 94042, USA.
#
# CIF created using the CSD Python API on 29 September 2022
# The structure has been converted into the P1 space group
# The structure has a 3D framework
# The original CSD entry MOKYAP49 is in the rhombohedral crystal system
# The framework has been calculated to contain at least 10.0% void space
# The void calculation uses a probe of radius 1.32A, grid spacing 0.4
# H atom positions have been added when not included in the experimental data
#
###############################################################################

data_MOKYAP49
_chemical_formula_moiety         '(C72 H18 Cu7 O44)n'
_symmetry_cell_setting           triclinic
_symmetry_space_group_name_H-M   'P 1'
_symmetry_Int_Tables_number      1
_space_group_name_Hall           'P 1'
loop_
_symmetry_equiv_pos_site_id
_symmetry_equiv_pos_as_xyz
1 x,y,z
_cell_length_a                   25.9161(3)
_cell_length_b                   25.9161(3)
_cell_length_c                   6.27398(6)
_cell_angle_alpha                90
_cell_angle_beta                 90
_cell_angle_gamma                120
_cell_volume                     3649.33
loop_
_atom_site_label
_atom_site_type_symbol
_atom_site_fract_x
_atom_site_fract_y
_atom_site_fract_z
_atom_site_U_iso_or_equiv
_atom_site_thermal_displace_type
Cu7 Cu 0.31801(7) 0.37136(5) 0.0092(2) 0.0100 Uiso
Cu1 Cu 0.29531(5) 0.27999(5) 0.3425(2) 0.0100 Uiso
C1 C 0.1607(3) 0.3123(3) 0.1251(13) 0.0058 Uiso
C2 C 0.1202(4) 0.3270(4) 0.1981(15) 0.0139 Uiso
C3 C 0.2094(3) 0.3192(4) 0.2540(12) 0.0051 Uiso
C4 C 0.0773(3) 0.3236(4) 0.0316(13) 0.0089 Uiso
O1 O 0.2514(2) 0.3071(2) 0.1711(9) 0.0048 Uiso
O3 O 0.0519(2) 0.3546(2) 0.0667(8) 0.0048 Uiso
C5 C 0.1726(3) 0.3544(3) 0.5416(13) 0.0058 Uiso
C6 C 0.2131(4) 0.3397(4) 0.4686(15) 0.0139 Uiso
C7 C 0.1239(3) 0.3475(4) 0.4127(12) 0.0051 Uiso
C8 C 0.2560(3) 0.3431(4) 0.6351(13) 0.0089 Uiso
O4 O 0.0819(2) 0.3596(2) 0.4956(9) 0.0048 Uiso
O5 O 0.2668(2) 0.3745(2) 0.7962(9) 0.0119 Uiso
O6 O 0.2814(2) 0.3121(2) 0.6000(8) 0.0048 Uiso
Cu4 Cu 0.01532(7) 0.29531(5) 0.6575(2) 0.0100 Uiso
Cu5 Cu 0.38668(5) 0.34865(7) 0.6758(2) 0.0100 Uiso
Cu8 Cu 0.03802(5) 0.38668(5) 0.3242(2) 0.0100 Uiso
O7 O 0.3596(2) 0.2776(3) 0.5044(9) 0.0048 Uiso
O9 O 0.2922(2) 0.2257(3) 0.1295(9) 0.0119 Uiso
O12 O 0.3640(3) 0.3852(2) 0.2666(8) 0.0048 Uiso
H2 H 0.177415 0.371875 0.702613 . .
O2 O 0.0665(2) 0.2922(2) 0.8705(9) 0.0119 Uiso
O8 O 0.3890(3) 0.4153(2) 0.8378(9) 0.0048 Uiso
O11 O 0.3546(2) 0.3027(3) 0.9333(8) 0.0048 Uiso
H1 H 0.155918 0.294792 0.964053 . .
Cu6 Cu 0.94666(5) 0.31801(7) 0.9908(2) 0.0100 Uiso
Cu6_2 Cu 0.37136(9) 0.05334(5) 0.9908(2) 0.0100 Uiso
Cu7_2 Cu 0.05334(9) 0.68199(7) 0.0092(2) 0.0100 Uiso
C1_2 C 0.1516(4) 0.8393(3) 0.1251(13) 0.0058 Uiso
C2_2 C 0.2068(6) 0.8798(4) 0.1981(15) 0.0139 Uiso
C3_2 C 0.1098(5) 0.7906(3) 0.2540(12) 0.0051 Uiso
C4_2 C 0.2463(5) 0.9227(3) 0.0316(13) 0.0089 Uiso
O1_2 O 0.0557(3) 0.7486(2) 0.1711(9) 0.0048 Uiso
O3_2 O 0.3027(3) 0.9481(2) 0.0667(8) 0.0048 Uiso
C5_2 C 0.1817(4) 0.8274(3) 0.5416(13) 0.0058 Uiso
C6_2 C 0.1265(6) 0.7869(4) 0.4686(15) 0.0139 Uiso
C7_2 C 0.2235(5) 0.8761(3) 0.4127(12) 0.0051 Uiso
C8_2 C 0.0870(5) 0.7440(3) 0.6351(13) 0.0089 Uiso
O4_2 O 0.2776(3) 0.9181(2) 0.4956(9) 0.0048 Uiso
O5_2 O 0.1076(3) 0.7332(2) 0.7962(9) 0.0119 Uiso
O6_2 O 0.0306(3) 0.7186(2) 0.6000(8) 0.0048 Uiso
Cu4_2 Cu 0.27999(9) 0.98468(7) 0.6575(2) 0.0100 Uiso
Cu8_2 Cu 0.34865(7) 0.96198(5) 0.3242(2) 0.0100 Uiso
O12_2 O 0.0213(4) 0.6360(3) 0.2666(8) 0.0048 Uiso
H2_2 H 0.194459 0.822585 0.702613 . .
O2_2 O 0.2257(3) 0.9335(2) 0.8705(9) 0.0119 Uiso
O8_2 O 0.0262(4) 0.6110(3) 0.8378(9) 0.0048 Uiso
H1_2 H 0.138874 0.844082 0.964053 . .
Cu1_2 Cu 0.98468(7) 0.70469(5) 0.3425(2) 0.0100 Uiso
Cu5_2 Cu 0.96198(9) 0.61332(5) 0.6758(2) 0.0100 Uiso
O7_2 O 0.9181(4) 0.6404(2) 0.5044(9) 0.0048 Uiso
O9_2 O 0.9335(4) 0.7078(2) 0.1295(9) 0.0119 Uiso
O11_2 O 0.9481(4) 0.6454(2) 0.9333(8) 0.0048 Uiso
Cu1_3 Cu 0.72001(5) 0.01532(7) 0.3425(2) 0.0100 Uiso
Cu5_3 Cu 0.65135(7) 0.03802(9) 0.6758(2) 0.0100 Uiso
O7_3 O 0.7224(3) 0.0819(4) 0.5044(9) 0.0048 Uiso
O9_3 O 0.7743(3) 0.0665(4) 0.1295(9) 0.0119 Uiso
O11_3 O 0.6973(3) 0.0519(4) 0.9333(8) 0.0048 Uiso
Cu7_3 Cu 0.62864(5) 0.94666(9) 0.0092(2) 0.0100 Uiso
C1_3 C 0.6877(3) 0.8484(4) 0.1251(13) 0.0058 Uiso
C2_3 C 0.6730(4) 0.7932(6) 0.1981(15) 0.0139 Uiso
C3_3 C 0.6808(4) 0.8902(5) 0.2540(12) 0.0051 Uiso
C4_3 C 0.6764(4) 0.7537(5) 0.0316(13) 0.0089 Uiso
O1_3 O 0.6929(2) 0.9443(3) 0.1711(9) 0.0048 Uiso
O3_3 O 0.6454(2) 0.6973(3) 0.0667(8) 0.0048 Uiso
C5_3 C 0.6456(3) 0.8183(4) 0.5416(13) 0.0058 Uiso
C6_3 C 0.6603(4) 0.8735(6) 0.4686(15) 0.0139 Uiso
C7_3 C 0.6525(4) 0.7765(5) 0.4127(12) 0.0051 Uiso
C8_3 C 0.6569(4) 0.9130(5) 0.6351(13) 0.0089 Uiso
O4_3 O 0.6404(2) 0.7224(3) 0.4956(9) 0.0048 Uiso
O5_3 O 0.6255(2) 0.8924(3) 0.7962(9) 0.0119 Uiso
O6_3 O 0.6879(2) 0.9694(3) 0.6000(8) 0.0048 Uiso
Cu4_3 Cu 0.70469(5) 0.72001(9) 0.6575(2) 0.0100 Uiso
Cu8_3 Cu 0.61332(5) 0.65135(7) 0.3242(2) 0.0100 Uiso
O12_3 O 0.6148(2) 0.9787(4) 0.2666(8) 0.0048 Uiso
H2_3 H 0.628125 0.805541 0.702613 . .
O2_3 O 0.7078(2) 0.7743(3) 0.8705(9) 0.0119 Uiso
Cu6_3 Cu 0.68199(7) 0.62864(9) 0.9908(2) 0.0100 Uiso
O8_3 O 0.5847(2) 0.9738(4) 0.8378(9) 0.0048 Uiso
H1_3 H 0.705208 0.861126 0.964053 . .
H2_4 H 0.844082 0.705208 0.0359465 . .
C1_4 C 0.8274(3) 0.6456(3) 0.4584(13) 0.0058 Uiso
C2_4 C 0.7869(4) 0.6603(4) 0.5314(15) 0.0139 Uiso
C3_4 C 0.8761(3) 0.6525(4) 0.5873(12) 0.0051 Uiso
C4_4 C 0.7440(3) 0.6569(4) 0.3649(13) 0.0089 Uiso
O2_4 O 0.7332(2) 0.6255(2) 0.2038(9) 0.0119 Uiso
O3_4 O 0.7186(2) 0.6879(2) 0.4000(8) 0.0048 Uiso
C5_4 C 0.8393(3) 0.6877(3) 0.8749(13) 0.0058 Uiso
C6_4 C 0.8798(4) 0.6730(4) 0.8019(15) 0.0139 Uiso
C7_4 C 0.7906(3) 0.6808(4) 0.7460(12) 0.0051 Uiso
C8_4 C 0.9227(3) 0.6764(4) 0.9684(13) 0.0089 Uiso
O4_4 O 0.7486(2) 0.6929(2) 0.8289(9) 0.0048 Uiso
O9_4 O 0.9589(2) 0.5590(3) 0.4628(9) 0.0119 Uiso
H1_4 H 0.822585 0.628125 0.297387 . .
H2_5 H 0.861126 0.155918 0.0359465 . .
C1_5 C 0.8183(4) 0.1726(3) 0.4584(13) 0.0058 Uiso
C2_5 C 0.8735(6) 0.2131(4) 0.5314(15) 0.0139 Uiso
C3_5 C 0.7765(5) 0.1239(3) 0.5873(12) 0.0051 Uiso
C4_5 C 0.9130(5) 0.2560(3) 0.3649(13) 0.0089 Uiso
O2_5 O 0.8924(3) 0.2668(2) 0.2038(9) 0.0119 Uiso
O3_5 O 0.9694(3) 0.2814(2) 0.4000(8) 0.0048 Uiso
C5_5 C 0.8484(4) 0.1607(3) 0.8749(13) 0.0058 Uiso
C6_5 C 0.7932(6) 0.1202(4) 0.8019(15) 0.0139 Uiso
C7_5 C 0.8902(5) 0.2094(3) 0.7460(12) 0.0051 Uiso
C8_5 C 0.7537(5) 0.0773(3) 0.9684(13) 0.0089 Uiso
O4_5 O 0.9443(3) 0.2514(2) 0.8289(9) 0.0048 Uiso
O9_5 O 0.6002(4) 0.0411(2) 0.4628(9) 0.0119 Uiso
H1_5 H 0.805541 0.177415 0.297387 . .
H2_6 H 0.294792 0.138874 0.0359465 . .
C1_6 C 0.3544(3) 0.1817(4) 0.4584(13) 0.0058 Uiso
C2_6 C 0.3397(4) 0.1265(6) 0.5314(15) 0.0139 Uiso
C3_6 C 0.3475(4) 0.2235(5) 0.5873(12) 0.0051 Uiso
C4_6 C 0.3431(4) 0.0870(5) 0.3649(13) 0.0089 Uiso
O2_6 O 0.3745(2) 0.1076(3) 0.2038(9) 0.0119 Uiso
O3_6 O 0.3121(2) 0.0306(3) 0.4000(8) 0.0048 Uiso
C5_6 C 0.3123(3) 0.1516(4) 0.8749(13) 0.0058 Uiso
C6_6 C 0.3270(4) 0.2068(6) 0.8019(15) 0.0139 Uiso
C7_6 C 0.3192(4) 0.1098(5) 0.7460(12) 0.0051 Uiso
C8_6 C 0.3236(4) 0.2463(5) 0.9684(13) 0.0089 Uiso
O4_6 O 0.3071(2) 0.0557(3) 0.8289(9) 0.0048 Uiso
O9_6 O 0.4410(3) 0.3998(4) 0.4628(9) 0.0119 Uiso
H1_6 H 0.371875 0.194459 0.297387 . .
C5_7 C 0.5060(3) 0.0210(3) 0.2082(13) 0.0058 Uiso
C6_7 C 0.5465(4) 0.0063(4) 0.1352(15) 0.0139 Uiso
C7_7 C 0.4573(3) 0.0141(4) 0.0793(12) 0.0051 Uiso
C8_7 C 0.5894(3) 0.0097(4) 0.3017(13) 0.0089 Uiso
O4_7 O 0.4153(2) 0.0262(2) 0.1622(9) 0.0048 Uiso
H2_7 H 0.510749 0.0385415 0.36928 . .
O3_7 O 0.3852(2) 0.0213(2) 0.7334(8) 0.0048 Uiso
C1_7 C 0.4940(3) 0.9790(3) 0.7918(13) 0.0058 Uiso
C2_7 C 0.4535(4) 0.9937(4) 0.8648(15) 0.0139 Uiso
C3_7 C 0.5427(3) 0.9859(4) 0.9207(12) 0.0051 Uiso
C4_7 C 0.4106(3) 0.9903(4) 0.6983(13) 0.0089 Uiso
O2_7 O 0.3998(2) 0.9589(2) 0.5372(9) 0.0119 Uiso
H1_7 H 0.489251 0.961459 0.63072 . .
C5_8 C 0.5151(4) 0.4940(3) 0.2082(13) 0.0058 Uiso
C6_8 C 0.4599(6) 0.4535(4) 0.1352(15) 0.0139 Uiso
C7_8 C 0.5569(5) 0.5427(3) 0.0793(12) 0.0051 Uiso
C8_8 C 0.4204(5) 0.4106(3) 0.3017(13) 0.0089 Uiso
O4_8 O 0.6110(3) 0.5847(2) 0.1622(9) 0.0048 Uiso
H2_8 H 0.527793 0.489251 0.36928 . .
C1_8 C 0.4849(4) 0.5060(3) 0.7918(13) 0.0058 Uiso
C2_8 C 0.5401(6) 0.5465(4) 0.8648(15) 0.0139 Uiso
C3_8 C 0.4431(5) 0.4573(3) 0.9207(12) 0.0051 Uiso
C4_8 C 0.5796(5) 0.5894(3) 0.6983(13) 0.0089 Uiso
O2_8 O 0.5590(3) 0.6002(2) 0.5372(9) 0.0119 Uiso
O3_8 O 0.6360(3) 0.6148(2) 0.7334(8) 0.0048 Uiso
H1_8 H 0.472207 0.510749 0.63072 . .
C1_9 C 0.0210(3) 0.5151(4) 0.7918(13) 0.0058 Uiso
C2_9 C 0.0063(4) 0.4599(6) 0.8648(15) 0.0139 Uiso
C3_9 C 0.0141(4) 0.5569(5) 0.9207(12) 0.0051 Uiso
C4_9 C 0.0097(4) 0.4204(5) 0.6983(13) 0.0089 Uiso
O2_9 O 0.0411(2) 0.4410(3) 0.5372(9) 0.0119 Uiso
H1_9 H 0.0385415 0.527793 0.63072 . .
C5_9 C 0.9790(3) 0.4849(4) 0.2082(13) 0.0058 Uiso
C6_9 C 0.9937(4) 0.5401(6) 0.1352(15) 0.0139 Uiso
C7_9 C 0.9859(4) 0.4431(5) 0.0793(12) 0.0051 Uiso
C8_9 C 0.9903(4) 0.5796(5) 0.3017(13) 0.0089 Uiso
O4_9 O 0.9738(2) 0.3890(3) 0.1622(9) 0.0048 Uiso
H2_9 H 0.961459 0.472207 0.36928 . .
O3_9 O 0.9787(2) 0.3640(3) 0.7334(8) 0.0048 Uiso
loop_
_geom_bond_atom_site_label_1
_geom_bond_atom_site_label_2
_geom_bond_site_symmetry_1
_geom_bond_site_symmetry_2
Cu1 O1 1_555 1_555
C1 C2 1_555 1_555
C2 C4 1_555 1_555
C3 C1 1_555 1_555
O1 C3 1_555 1_555
O3 C4 1_555 1_555
C5 C6 1_555 1_555
C6 C3 1_555 1_555
C7 C2 1_555 1_555
C8 C6 1_555 1_555
O4 C7 1_555 1_555
O5 C8 1_555 1_555
O6 Cu1 1_555 1_555
Cu7 O1 1_555 1_555
Cu4 O4 1_555 1_555
Cu5 O6 1_555 1_555
Cu8 O3 1_555 1_555
O7 Cu1 1_555 1_555
O9 Cu1 1_555 1_555
O12 Cu1 1_555 1_555
C5 C7 1_555 1_555
C8 O6 1_555 1_555
O4 Cu8 1_555 1_555
Cu7 O12 1_555 1_555
Cu5 O7 1_555 1_555
C5 H2 1_555 1_555
O2 Cu4 1_555 1_555
C1_2 C2_2 1_555 1_555
C2_2 C4_2 1_555 1_555
C3_2 C1_2 1_555 1_555
O1_2 C3_2 1_555 1_555
O3_2 C4_2 1_555 1_555
C5_2 C6_2 1_555 1_555
C6_2 C3_2 1_555 1_555
C7_2 C2_2 1_555 1_555
C8_2 C6_2 1_555 1_555
O4_2 C7_2 1_555 1_555
O5_2 C8_2 1_555 1_555
Cu7_2 O1_2 1_555 1_555
Cu4_2 O4_2 1_555 1_555
Cu8_2 O3_2 1_555 1_555
C5_2 C7_2 1_555 1_555
C8_2 O6_2 1_555 1_555
O4_2 Cu8_2 1_555 1_555
Cu7_2 O12_2 1_555 1_555
C5_2 H2_2 1_555 1_555
O2_2 Cu4_2 1_555 1_555
O7_2 Cu1_2 1_555 1_555
O9_2 Cu1_2 1_555 1_555
Cu5_2 O7_2 1_555 1_555
O7_3 Cu1_3 1_555 1_555
O9_3 Cu1_3 1_555 1_555
Cu5_3 O7_3 1_555 1_555
C1_3 C2_3 1_555 1_555
C2_3 C4_3 1_555 1_555
C3_3 C1_3 1_555 1_555
O1_3 C3_3 1_555 1_555
O3_3 C4_3 1_555 1_555
C5_3 C6_3 1_555 1_555
C6_3 C3_3 1_555 1_555
C7_3 C2_3 1_555 1_555
C8_3 C6_3 1_555 1_555
O4_3 C7_3 1_555 1_555
O5_3 C8_3 1_555 1_555
Cu7_3 O1_3 1_555 1_555
Cu4_3 O4_3 1_555 1_555
Cu8_3 O3_3 1_555 1_555
C5_3 C7_3 1_555 1_555
C8_3 O6_3 1_555 1_555
O4_3 Cu8_3 1_555 1_555
Cu7_3 O12_3 1_555 1_555
C5_3 H2_3 1_555 1_555
O2_3 Cu4_3 1_555 1_555
C1_4 C2_4 1_555 1_555
C2_4 C4_4 1_555 1_555
C3_4 C1_4 1_555 1_555
C4_4 O2_4 1_555 1_555
O7_2 C3_4 1_555 1_555
O3_4 C4_4 1_555 1_555
C5_4 C6_4 1_555 1_555
C6_4 C3_4 1_555 1_555
C7_4 C2_4 1_555 1_555
C8_4 C6_4 1_555 1_555
O4_4 C7_4 1_555 1_555
O11_2 Cu5_2 1_555 1_555
Cu6_3 O4_4 1_555 1_555
Cu8_3 O3_4 1_555 1_555
Cu4_3 O3_4 1_555 1_555
O9_4 Cu5_2 1_555 1_555
C5_4 C7_4 1_555 1_555
C8_4 O11_2 1_555 1_555
O4_4 Cu4_3 1_555 1_555
C1_4 H1_4 1_555 1_555
C1_5 C2_5 1_555 1_555
C2_5 C4_5 1_555 1_555
C3_5 C1_5 1_555 1_555
C4_5 O2_5 1_555 1_555
O7_3 C3_5 1_555 1_555
O3_5 C4_5 1_555 1_555
C5_5 C6_5 1_555 1_555
C6_5 C3_5 1_555 1_555
C7_5 C2_5 1_555 1_555
C8_5 C6_5 1_555 1_555
O4_5 C7_5 1_555 1_555
O11_3 Cu5_3 1_555 1_555
Cu6 O4_5 1_555 1_555
O9_5 Cu5_3 1_555 1_555
C5_5 C7_5 1_555 1_555
C8_5 O11_3 1_555 1_555
C1_5 H1_5 1_555 1_555
C1_6 C2_6 1_555 1_555
C2_6 C4_6 1_555 1_555
C3_6 C1_6 1_555 1_555
C4_6 O2_6 1_555 1_555
O7 C3_6 1_555 1_555
O3_6 C4_6 1_555 1_555
C5_6 C6_6 1_555 1_555
C6_6 C3_6 1_555 1_555
C7_6 C2_6 1_555 1_555
C8_6 C6_6 1_555 1_555
O4_6 C7_6 1_555 1_555
O11 Cu5 1_555 1_555
Cu6_2 O4_6 1_555 1_555
O8 Cu5 1_555 1_555
O9_6 Cu5 1_555 1_555
C5_6 C7_6 1_555 1_555
C8_6 O11 1_555 1_555
C1_6 H1_6 1_555 1_555
C5_7 C6_7 1_555 1_555
C8_7 C6_7 1_555 1_555
O4_7 C7_7 1_555 1_555
O9_5 C8_7 1_555 1_555
C5_7 C7_7 1_555 1_555
C5_7 H2_7 1_555 1_555
Cu6_2 O3_7 1_555 1_555
C1_7 C2_7 1_555 1_555
C2_7 C4_7 1_555 1_555
C3_7 C1_7 1_555 1_555
C4_7 O2_7 1_555 1_555
O8_3 C3_7 1_555 1_555
O2_7 Cu8_2 1_555 1_555
C1_7 H1_7 1_555 1_555
C5_8 C6_8 1_555 1_555
C8_8 C6_8 1_555 1_555
O4_8 C7_8 1_555 1_555
O9_6 C8_8 1_555 1_555
Cu8_3 O4_8 1_555 1_555
C5_8 C7_8 1_555 1_555
C8_8 O12 1_555 1_555
C5_8 H2_8 1_555 1_555
C1_8 C2_8 1_555 1_555
C2_8 C4_8 1_555 1_555
C3_8 C1_8 1_555 1_555
C4_8 O2_8 1_555 1_555
O8 C3_8 1_555 1_555
O2_8 Cu8_3 1_555 1_555
O3_8 C4_8 1_555 1_555
Cu4_3 O3_8 1_555 1_555
Cu6_3 O3_8 1_555 1_555
C1_8 H1_8 1_555 1_555
C1_9 C2_9 1_555 1_555
C2_9 C4_9 1_555 1_555
C3_9 C1_9 1_555 1_555
C4_9 O2_9 1_555 1_555
O8_2 C3_9 1_555 1_555
O2_9 Cu8 1_555 1_555
C1_9 H1_9 1_555 1_555
C5_9 C6_9 1_555 1_555
C8_9 C6_9 1_555 1_555
O4_9 C7_9 1_555 1_555
O9_4 C8_9 1_555 1_555
C5_9 C7_9 1_555 1_555
C5_9 H2_9 1_555 1_555
Cu6 O3_9 1_555 1_555

#END
