
###############################################################################
#
# This file contains modified crystal structure data generated from the
# MOF subset of the Cambridge Structural Database (CSD) v543 
# hosted by the Cambridge Crystallographic Data Centre (CCDC).
#
# This work is licensed under the Creative Commons
# Attribution-NonCommercial-ShareAlike 4.0 International License.
# To view a copy of this license, visit
# http://creativecommons.org/licenses/by-nc-sa/4.0/
# or send a letter to
# Creative Commons, PO Box 1866, Mountain View, CA 94042, USA.
#
# CIF created using the CSD Python API on 29 September 2022
# The structure has been converted into the P1 space group
# The structure has a 3D framework
# The original CSD entry MOLKAB is in the monoclinic crystal system
# The framework has been calculated to contain at least 10.0% void space
# The void calculation uses a probe of radius 1.32A, grid spacing 0.4
# H atom positions have been added when not included in the experimental data
#
###############################################################################

data_MOLKAB
_chemical_formula_moiety         '(C152 H132 Ca8 Cd8 N12 O76)n'
_symmetry_cell_setting           triclinic
_symmetry_space_group_name_H-M   'P 1'
_symmetry_Int_Tables_number      1
_space_group_name_Hall           'P 1'
loop_
_symmetry_equiv_pos_site_id
_symmetry_equiv_pos_as_xyz
1 x,y,z
_cell_length_a                   20.2830(4)
_cell_length_b                   14.2213(3)
_cell_length_c                   19.8390(4)
_cell_angle_alpha                90
_cell_angle_beta                 110.326(2)
_cell_angle_gamma                90
_cell_volume                     5366.24
loop_
_atom_site_label
_atom_site_type_symbol
_atom_site_fract_x
_atom_site_fract_y
_atom_site_fract_z
C17 C 0.21799(19) 0.0686(3) 0.2481(2)
C18 C 0.2215(2) 0.1640(3) 0.2363(3)
H9 H 0.1822 0.2017 0.2296
C19 C 0.2832(2) 0.2037(3) 0.2346(3)
H10 H 0.2849 0.2678 0.2261
C20 C 0.34236(19) 0.1488(3) 0.2452(2)
C21 C 0.3382(2) 0.0523(3) 0.2552(2)
H11 H 0.3771 0.0142 0.2611
C22 C 0.2763(2) 0.0131(3) 0.2562(2)
C23 C 0.15215(19) 0.0245(3) 0.2523(2)
C24 C 0.41035(19) 0.1920(3) 0.2482(2)
O11 O 0.10330(14) 0.0776(2) 0.25571(16)
O13 O 0.41165(14) 0.2769(2) 0.23042(17)
O14 O 0.46534(14) 0.1447(2) 0.26962(16)
Cd5 Cd 0.531203(13) 0.300841(19) 0.256772(13)
Ca5 Ca 0.56025(4) 0.04360(5) 0.29633(4)
Ca11 Ca 0.06133(4) 0.19711(5) 0.30959(4)
Cd2 Cd 0.025682(13) 0.942332(19) 0.241687(14)
C9 C 0.0052(2) 0.8142(3) 0.0421(2)
C10 C 0.0248(2) 0.7209(3) 0.0439(2)
H5 H 0.0369 0.6876 0.0869
C15 C 0.0059(2) 0.8633(3) 0.10926(19)
H12 H 0.2738 0.9486 0.2625
O7 O 0.00711(14) 0.81223(19) 0.16236(13)
O8 O 0.00732(18) 0.95033(19) 0.11320(15)
O12 O 0.14584(15) 0.93714(19) 0.25113(18)
O41 O 0.03413(15) 0.5988(2) 0.22632(19)
O44 O 0.04336(18) 0.8971(2) 0.35631(16)
C11 C 0.0265(2) 0.6766(3) 0.9827(2)
H6 H 0.0403 0.6140 0.9847
C12 C 0.0076(2) 0.7252(3) 0.9179(2)
C16 C 0.0089(2) 0.6776(3) 0.8511(2)
O9 O 0.04336(18) 0.6029(2) 0.85631(16)
Cd9 Cd 0.025682(13) 0.557668(19) 0.741687(14)
C59 C 0.0139(3) 0.1824(3) 0.0844(2)
H43 H 0.0283 0.1499 0.1278
C60 C 0.0141(3) 0.1376(3) 0.0222(2)
H44 H 0.0274 0.0748 0.0240
C74 C 0.1727(5) 0.5093(10) 0.0741(5)
H53 H 0.1676 0.5698 0.0515
H54 H 0.1438 0.5064 0.1035
H55 H 0.2210 0.4996 0.1035
C75 C 0.1618(4) 0.3489(9) 0.0649(6)
H56 H 0.1477 0.2981 0.0311
H57 H 0.2102 0.3410 0.0946
H58 H 0.1331 0.3490 0.0945
O34 O 0.0252(2) 0.2850(2) 0.20794(16)
N6 N 0.1528(4) 0.4429(9) 0.0241(5)
Ca4 Ca 0.06133(4) 0.30289(5) 0.80959(4)
H39 H 0.2193 0.0153 0.7905
C76 C 0.1335(3) 0.4303(8) 0.9635(4)
O26 O 0.15271(16) 0.1892(2) 0.84725(19)
H59 H 0.1425 0.1276 0.8398
H60 H 0.1975 0.2078 0.8689
O28 O 0.34739(16) 0.0682(2) 0.6610(2)
H61 H 0.3023 0.0495 0.6488
H62 H 0.3574 0.1291 0.6570
O30 O 0.09138(16) 0.0242(2) 0.78278(18)
O40 O 0.1173(2) 0.3657(3) 0.92010(19)
O45 O 0.0252(2) 0.2150(2) 0.70794(16)
O48 O 0.10330(14) 0.4224(2) 0.75571(16)
O55 O 0.4778(2) 0.0331(2) 0.81094(15)
O57 O 0.50982(14) 0.07387(18) 0.67982(13)
H66 H 0.127636 0.497203 0.935311
C1 C 0.71864(19) 0.1784(3) 0.2504(2)
C2 C 0.7800(2) 0.2313(3) 0.2672(2)
H1 H 0.7799 0.2939 0.2808
C3 C 0.8409(2) 0.1920(3) 0.2638(2)
H2 H 0.8815 0.2282 0.2751
C4 C 0.8421(2) 0.0989(3) 0.2437(2)
C5 C 0.7808(2) 0.0466(3) 0.2247(2)
C6 C 0.7193(2) 0.0861(3) 0.2282(2)
H4 H 0.6784 0.0504 0.2155
C7 C 0.65384(19) 0.2211(3) 0.2570(2)
C8 C 0.9095(2) 0.0553(3) 0.2442(2)
C25 C 0.5086(2) 0.4236(3) 0.3671(2)
C26 C 0.5042(2) 0.4630(3) 0.4364(2)
C27 C 0.5232(2) 0.4087(3) 0.4989(2)
H13 H 0.5389 0.3474 0.4983
C28 C 0.4811(2) 0.5542(3) 0.4383(2)
H14 H 0.4684 0.5909 0.3969
C29 C 0.5120(2) 0.3838(3) 0.1232(2)
C30 C 0.5065(2) 0.4443(3) 0.0597(2)
C31 C 0.5187(2) 0.5404(3) 0.0673(2)
H15 H 0.5314 0.5677 0.1126
C32 C 0.6479(3) 0.1446(4) 0.4636(3)
C33 C 0.7097(5) 0.1491(6) 0.5853(4)
H16 H 0.7606 0.1530 0.6056
H17 H 0.6922 0.1221 0.6207
C34 C 0.6778(4) 0.2440(5) 0.5613(3)
H18 H 0.6432 0.2594 0.5832
H19 H 0.7135 0.2926 0.5730
O1 O 0.60093(13) 0.16840(19) 0.24743(15)
O3 O 0.65201(14) 0.3067(2) 0.27012(17)
O5 O 0.96587(15) 0.0988(2) 0.27368(19)
O15 O 0.54224(16) 0.3485(2) 0.36961(14)
O16 O 0.4778(2) 0.4669(2) 0.31094(15)
O17 O 0.50982(14) 0.42613(18) 0.17982(13)
O18 O 0.51774(18) 0.2977(2) 0.12124(15)
O19 O 0.62051(19) 0.1152(3) 0.40163(17)
N1 N 0.6452(3) 0.2328(3) 0.4843(2)
H30 H 0.6262 0.2781 0.4554
N2 N 0.6874(3) 0.0947(4) 0.5198(2)
H31 H 0.6984 0.0367 0.5174
C39 C 0.4914(2) 0.5764(3) 0.6329(2)
C40 C 0.4958(2) 0.5370(3) 0.5636(2)
C41 C 0.4768(2) 0.5913(3) 0.5011(2)
H33 H 0.4611 0.6526 0.5017
C42 C 0.5189(2) 0.4458(3) 0.5617(2)
H34 H 0.5316 0.4091 0.6031
O21 O 0.45776(16) 0.6515(2) 0.63039(14)
O22 O 0.5222(2) 0.5331(2) 0.68906(15)
C46 C 0.5122(2) 0.5961(3) 0.0082(2)
H36 H 0.5205 0.6604 0.0138
Cd7 Cd 0.468797(13) 0.699159(19) 0.743228(13)
Ca6 Ca 0.43975(4) 0.54360(5) 0.20367(4)
Ca9 Ca 0.56025(4) 0.45640(5) 0.79633(4)
C38 C 0.4878(2) 0.4039(3) 0.9918(2)
H32 H 0.4795 0.3396 0.9862
C43 C 0.4880(2) 0.6162(3) 0.8768(2)
C44 C 0.4935(2) 0.5557(3) 0.9403(2)
C45 C 0.4813(2) 0.4596(3) 0.9327(2)
H35 H 0.4686 0.4323 0.8874
O23 O 0.49018(14) 0.57387(18) 0.82018(13)
O24 O 0.48226(18) 0.7023(2) 0.87876(15)
Ca3 Ca 0.43975(4) 0.95640(5) 0.70367(4)
C47 C 0.28136(19) 0.8216(3) 0.7496(2)
C48 C 0.2200(2) 0.7687(3) 0.7328(2)
H37 H 0.2201 0.7061 0.7192
C49 C 0.1591(2) 0.8080(3) 0.7362(2)
H38 H 0.1185 0.7718 0.7249
C50 C 0.1579(2) 0.9011(3) 0.7563(2)
C51 C 0.2192(2) 0.9534(3) 0.7753(2)
C52 C 0.2807(2) 0.9139(3) 0.7718(2)
H40 H 0.3216 0.9496 0.7845
C53 C 0.34616(19) 0.7789(3) 0.7430(2)
C54 C 0.0905(2) 0.9447(3) 0.7558(2)
C71 C 0.3521(3) 0.8554(4) 0.5364(3)
C72 C 0.2903(5) 0.8509(6) 0.4147(4)
H49 H 0.2394 0.8470 0.3944
H50 H 0.3078 0.8779 0.3793
C73 C 0.3222(4) 0.7560(5) 0.4387(3)
H51 H 0.3568 0.7406 0.4168
H52 H 0.2865 0.7074 0.4270
O25 O 0.39907(13) 0.83160(19) 0.75257(15)
O27 O 0.34799(14) 0.6933(2) 0.72988(17)
O29 O 0.03413(15) 0.9012(2) 0.72632(19)
O39 O 0.37949(19) 0.8848(3) 0.59837(17)
N4 N 0.3548(3) 0.7672(3) 0.5157(2)
H63 H 0.3738 0.7219 0.5446
N5 N 0.3126(3) 0.9053(4) 0.4802(2)
H64 H 0.3016 0.9633 0.4826
O50 O 0.58835(14) 0.7231(2) 0.76958(17)
O52 O 0.53466(14) 0.8553(2) 0.73038(16)
Ca2 Ca 0.93867(4) 0.69711(5) 0.19041(4)
H3 H 0.7807 0.9847 0.2095
C37 C 0.8665(3) 0.5697(8) 0.0365(4)
O2 O 0.84729(16) 0.8108(2) 0.15275(19)
H26 H 0.8575 0.8724 0.1602
H27 H 0.8025 0.7922 0.1311
O4 O 0.65261(16) 0.9318(2) 0.3390(2)
H28 H 0.6977 0.9505 0.3512
H29 H 0.6426 0.8709 0.3430
O6 O 0.90862(16) 0.9758(2) 0.21722(18)
O20 O 0.8827(2) 0.6343(3) 0.07990(19)
O46 O 0.9748(2) 0.7850(2) 0.29206(16)
O47 O 0.89670(14) 0.5776(2) 0.24429(16)
O54 O 0.5222(2) 0.9669(2) 0.18906(15)
O56 O 0.49018(14) 0.92613(18) 0.32018(13)
H65 H 0.872364 0.502797 0.0646886
C13 C 0.9861(3) 0.8176(3) 0.9156(2)
H7 H 0.9717 0.8501 0.8722
C14 C 0.9859(3) 0.8624(3) 0.9778(2)
H8 H 0.9726 0.9252 0.9760
C35 C 0.8273(5) 0.4907(10) 0.9259(5)
H20 H 0.8324 0.4302 0.9485
H21 H 0.8562 0.4936 0.8965
H22 H 0.7790 0.5004 0.8965
C36 C 0.8382(4) 0.6511(9) 0.9351(6)
H23 H 0.8523 0.7019 0.9689
H24 H 0.7898 0.6590 0.9054
H25 H 0.8669 0.6510 0.9055
O10 O 0.9748(2) 0.7150(2) 0.79206(16)
N3 N 0.8472(4) 0.5571(9) 0.9759(5)
Ca13 Ca 0.93867(4) 0.80289(5) 0.69041(4)
C57 C 0.9735(2) 0.3234(3) 0.0173(2)
H42 H 0.9597 0.3860 0.0153
C58 C 0.9924(2) 0.2748(3) 0.0821(2)
C62 C 0.9911(2) 0.3224(3) 0.1489(2)
O33 O 0.95664(18) 0.3971(2) 0.14369(16)
Cd8 Cd 0.974318(13) 0.442332(19) 0.258313(14)
Cd4 Cd 0.974318(13) 0.057668(19) 0.758313(14)
C55 C 0.9948(2) 0.1858(3) 0.9579(2)
C56 C 0.9752(2) 0.2791(3) 0.9561(2)
H41 H 0.9631 0.3124 0.9131
C61 C 0.9941(2) 0.1367(3) 0.89074(19)
H48 H 0.7262 0.0514 0.7375
O31 O 0.99289(14) 0.18777(19) 0.83764(13)
O32 O 0.99268(18) 0.04967(19) 0.88680(15)
O36 O 0.85416(15) 0.06286(19) 0.74887(18)
O42 O 0.96587(15) 0.4012(2) 0.77368(19)
O43 O 0.95664(18) 0.1029(2) 0.64369(16)
C63 C 0.78201(19) 0.9314(3) 0.7519(2)
C64 C 0.7785(2) 0.8360(3) 0.7637(3)
H45 H 0.8178 0.7983 0.7704
C65 C 0.7168(2) 0.7963(3) 0.7654(3)
H46 H 0.7151 0.7322 0.7739
C66 C 0.65764(19) 0.8512(3) 0.7548(2)
C67 C 0.6618(2) 0.9477(3) 0.7448(2)
H47 H 0.6229 0.9858 0.7389
C68 C 0.7237(2) 0.9869(3) 0.7438(2)
C69 C 0.84785(19) 0.9755(3) 0.7477(2)
C70 C 0.58965(19) 0.8080(3) 0.7518(2)
O35 O 0.89670(14) 0.9224(2) 0.74429(16)
C55_2 C 0.0052(2) 0.6858(3) 0.5421(2)
C56_2 C 0.0248(2) 0.7791(3) 0.5439(2)
H41_2 H 0.0369 0.8124 0.5869
C57_2 C 0.0265(2) 0.8234(3) 0.4827(2)
H42_2 H 0.0403 0.8860 0.4847
C58_2 C 0.0076(2) 0.7748(3) 0.4179(2)
C61_2 C 0.0059(2) 0.6367(3) 0.60926(19)
C62_2 C 0.0089(2) 0.8224(3) 0.3511(2)
C63_2 C 0.21799(19) 0.4314(3) 0.7481(2)
C64_2 C 0.2215(2) 0.3360(3) 0.7363(3)
H45_2 H 0.1822 0.2983 0.7296
C65_2 C 0.2832(2) 0.2963(3) 0.7346(3)
H46_2 H 0.2849 0.2322 0.7261
C66_2 C 0.34236(19) 0.3512(3) 0.7452(2)
C67_2 C 0.3382(2) 0.4477(3) 0.7552(2)
H47_2 H 0.3771 0.4858 0.7611
C68_2 C 0.2763(2) 0.4869(3) 0.7562(2)
H48_2 H 0.2738 0.5514 0.7625
C69_2 C 0.15215(19) 0.4755(3) 0.7523(2)
C70_2 C 0.41035(19) 0.3080(3) 0.7482(2)
O31_2 O 0.00711(14) 0.68777(19) 0.66236(13)
O32_2 O 0.00732(18) 0.54967(19) 0.61320(15)
O36_2 O 0.14584(15) 0.56286(19) 0.75113(18)
O37 O 0.41165(14) 0.2231(2) 0.73042(17)
O38 O 0.46534(14) 0.3553(2) 0.76962(16)
Cd6 Cd 0.531203(13) 0.199159(19) 0.756772(13)
C72_2 C 0.7097(5) 0.3509(6) 0.0853(4)
H49_2 H 0.7606 0.3470 0.1056
H50_2 H 0.6922 0.3779 0.1207
C73_2 C 0.6778(4) 0.2560(5) 0.0613(3)
H51_2 H 0.6432 0.2406 0.0832
H52_2 H 0.7135 0.2074 0.0730
N5_2 N 0.6874(3) 0.4053(4) 0.0198(2)
H64_2 H 0.6984 0.4633 0.0174
C28_2 C 0.5189(2) 0.0542(3) 0.0617(2)
H14_2 H 0.5316 0.0909 0.1031
C31_2 C 0.4813(2) 0.0404(3) 0.4327(2)
H15_2 H 0.4686 0.0677 0.3874
C43_2 C 0.5120(2) 0.1162(3) 0.6232(2)
C44_2 C 0.5065(2) 0.0557(3) 0.5597(2)
O24_2 O 0.51774(18) 0.2023(2) 0.62124(15)
C46_2 C 0.4878(2) 0.0961(3) 0.4918(2)
H36_2 H 0.4795 0.1604 0.4862
C47_2 C 0.71864(19) 0.3216(3) 0.7504(2)
C48_2 C 0.7800(2) 0.2687(3) 0.7672(2)
H37_2 H 0.7799 0.2061 0.7808
C49_2 C 0.8409(2) 0.3080(3) 0.7638(2)
H38_2 H 0.8815 0.2718 0.7751
C50_2 C 0.8421(2) 0.4011(3) 0.7437(2)
C51_2 C 0.7808(2) 0.4534(3) 0.7247(2)
H39_2 H 0.7807 0.5153 0.7095
C52_2 C 0.7193(2) 0.4139(3) 0.7282(2)
H40_2 H 0.6784 0.4496 0.7155
C53_2 C 0.65384(19) 0.2789(3) 0.7570(2)
C54_2 C 0.9095(2) 0.4447(3) 0.7442(2)
C59_2 C 0.9861(3) 0.6824(3) 0.4156(2)
H43_2 H 0.9717 0.6499 0.3722
C60_2 C 0.9859(3) 0.6376(3) 0.4778(2)
H44_2 H 0.9726 0.5748 0.4760
C71_2 C 0.6479(3) 0.3554(4) 0.9636(3)
H55_2 H 0.7790 0.9996 0.3965
C75_2 C 0.8382(4) 0.8489(9) 0.4351(6)
H56_2 H 0.8523 0.7981 0.4689
H57_2 H 0.7898 0.8410 0.4054
H58_2 H 0.8669 0.8490 0.4055
C76_2 C 0.8665(3) 0.9303(8) 0.5365(4)
O25_2 O 0.60093(13) 0.33160(19) 0.74743(15)
O26_2 O 0.84729(16) 0.6892(2) 0.65275(19)
H59_2 H 0.8575 0.6276 0.6602
H60_2 H 0.8025 0.7078 0.6311
O27_2 O 0.65201(14) 0.1933(2) 0.77012(17)
O28_2 O 0.65261(16) 0.5682(2) 0.8390(2)
H61_2 H 0.6977 0.5495 0.8512
H62_2 H 0.6426 0.6291 0.8430
O30_2 O 0.90862(16) 0.5242(2) 0.71722(18)
O39_2 O 0.62051(19) 0.3848(3) 0.90163(17)
O40_2 O 0.8827(2) 0.8657(3) 0.57990(19)
N4_2 N 0.6452(3) 0.2672(3) 0.9843(2)
H63_2 H 0.6262 0.2219 0.9554
N6_2 N 0.8472(4) 0.9429(9) 0.4759(5)
O53 O 0.54224(16) 0.1515(2) 0.86961(14)
H66_2 H 0.872364 0.997203 0.564689
C39_2 C 0.5086(2) 0.0764(3) 0.8671(2)
C40_2 C 0.5042(2) 0.0370(3) 0.9364(2)
C41_2 C 0.5232(2) 0.0913(3) 0.9989(2)
H33_2 H 0.5389 0.1526 0.9983
Cd1 Cd 0.468797(13) 0.800841(19) 0.243228(13)
C1_2 C 0.28136(19) 0.6784(3) 0.2496(2)
C2_2 C 0.2200(2) 0.7313(3) 0.2328(2)
H1_2 H 0.2201 0.7939 0.2192
C3_2 C 0.1591(2) 0.6920(3) 0.2362(2)
H2_2 H 0.1185 0.7282 0.2249
C4_2 C 0.1579(2) 0.5989(3) 0.2563(2)
C5_2 C 0.2192(2) 0.5466(3) 0.2753(2)
H3_2 H 0.2193 0.4847 0.2905
C6_2 C 0.2807(2) 0.5861(3) 0.2718(2)
H4_2 H 0.3216 0.5504 0.2845
C7_2 C 0.34616(19) 0.7211(3) 0.2430(2)
C8_2 C 0.0905(2) 0.5553(3) 0.2558(2)
C13_2 C 0.0139(3) 0.3176(3) 0.5844(2)
H7_2 H 0.0283 0.3501 0.6278
C14_2 C 0.0141(3) 0.3624(3) 0.5222(2)
H8_2 H 0.0274 0.4252 0.5240
C25_2 C 0.4914(2) 0.9236(3) 0.1329(2)
C26_2 C 0.4958(2) 0.9630(3) 0.0636(2)
C27_2 C 0.4768(2) 0.9087(3) 0.0011(2)
H13_2 H 0.4611 0.8474 0.0017
C29_2 C 0.4880(2) 0.8838(3) 0.3768(2)
C30_2 C 0.4935(2) 0.9443(3) 0.4403(2)
C32_2 C 0.3521(3) 0.6446(4) 0.0364(3)
H22_2 H 0.2210 0.0004 0.6035
C36_2 C 0.1618(4) 0.1511(9) 0.5649(6)
H23_2 H 0.1477 0.2019 0.5311
H24_2 H 0.2102 0.1590 0.5946
H25_2 H 0.1331 0.1510 0.5945
C37_2 C 0.1335(3) 0.0697(8) 0.4635(4)
O1_2 O 0.39907(13) 0.66840(19) 0.25257(15)
O2_2 O 0.15271(16) 0.3108(2) 0.34725(19)
H26_2 H 0.1425 0.3724 0.3398
H27_2 H 0.1975 0.2922 0.3689
O3_2 O 0.34799(14) 0.8067(2) 0.22988(17)
O4_2 O 0.34739(16) 0.4318(2) 0.1610(2)
H28_2 H 0.3023 0.4505 0.1488
H29_2 H 0.3574 0.3709 0.1570
O6_2 O 0.09138(16) 0.4758(2) 0.28278(18)
O15_2 O 0.45776(16) 0.8485(2) 0.13039(14)
O18_2 O 0.48226(18) 0.7977(2) 0.37876(15)
O19_2 O 0.37949(19) 0.6152(3) 0.09837(17)
O20_2 O 0.1173(2) 0.1343(3) 0.42010(19)
N1_2 N 0.3548(3) 0.7328(3) 0.0157(2)
H30_2 H 0.3738 0.7781 0.0446
N3_2 N 0.1528(4) 0.0571(9) 0.5241(5)
C38_2 C 0.5122(2) 0.9039(3) 0.5082(2)
H32_2 H 0.5205 0.8396 0.5138
C45_2 C 0.5187(2) 0.9596(3) 0.5673(2)
H35_2 H 0.5314 0.9323 0.6126
O49 O 0.58835(14) 0.7769(2) 0.26958(17)
O51 O 0.53466(14) 0.6447(2) 0.23038(16)
H65_2 H 0.127636 0.00279741 0.435311
C33_2 C 0.2903(5) 0.6491(6) 0.9147(4)
H16_2 H 0.2394 0.6530 0.8944
H17_2 H 0.3078 0.6221 0.8793
C34_2 C 0.3222(4) 0.7440(5) 0.9387(3)
H18_2 H 0.3568 0.7594 0.9168
H19_2 H 0.2865 0.7926 0.9270
N2_2 N 0.3126(3) 0.5947(4) 0.9802(2)
H31_2 H 0.3016 0.5367 0.9826
C42_2 C 0.4811(2) 0.9458(3) 0.9383(2)
H34_2 H 0.4684 0.9091 0.8969
C9_2 C 0.9948(2) 0.3142(3) 0.4579(2)
C10_2 C 0.9752(2) 0.2209(3) 0.4561(2)
H5_2 H 0.9631 0.1876 0.4131
C11_2 C 0.9735(2) 0.1766(3) 0.5173(2)
H6_2 H 0.9597 0.1140 0.5153
C12_2 C 0.9924(2) 0.2252(3) 0.5821(2)
C15_2 C 0.9941(2) 0.3633(3) 0.39074(19)
C16_2 C 0.9911(2) 0.1776(3) 0.6489(2)
C17_2 C 0.78201(19) 0.5686(3) 0.2519(2)
C18_2 C 0.7785(2) 0.6640(3) 0.2637(3)
H9_2 H 0.8178 0.7017 0.2704
C19_2 C 0.7168(2) 0.7037(3) 0.2654(3)
H10_2 H 0.7151 0.7678 0.2739
C20_2 C 0.65764(19) 0.6488(3) 0.2548(2)
C21_2 C 0.6618(2) 0.5523(3) 0.2448(2)
H11_2 H 0.6229 0.5142 0.2389
C22_2 C 0.7237(2) 0.5131(3) 0.2438(2)
H12_2 H 0.7262 0.4486 0.2375
C23_2 C 0.84785(19) 0.5245(3) 0.2477(2)
C24_2 C 0.58965(19) 0.6920(3) 0.2518(2)
O7_2 O 0.99289(14) 0.31223(19) 0.33764(13)
O8_2 O 0.99268(18) 0.45033(19) 0.38680(15)
O12_2 O 0.85416(15) 0.43714(19) 0.24887(18)
C74_2 C 0.8273(5) 0.0093(10) 0.4259(5)
H53_2 H 0.8324 0.0698 0.4485
H54_2 H 0.8562 0.0064 0.3965
C35_2 C 0.1727(5) 0.9907(10) 0.5741(5)
H20_2 H 0.1676 0.9302 0.5515
H21_2 H 0.1438 0.9936 0.6035
loop_
_geom_bond_atom_site_label_1
_geom_bond_atom_site_label_2
_geom_bond_site_symmetry_1
_geom_bond_site_symmetry_2
C17 C18 1_555 1_555
C18 H9 1_555 1_555
C19 C18 1_555 1_555
H10 C19 1_555 1_555
C20 C19 1_555 1_555
C21 C20 1_555 1_555
H11 C21 1_555 1_555
C22 C17 1_555 1_555
C23 C17 1_555 1_555
C24 C20 1_555 1_555
O13 C24 1_555 1_555
O14 C24 1_555 1_555
Cd5 O13 1_555 1_555
Ca5 O14 1_555 1_555
C21 C22 1_555 1_555
C23 O11 1_555 1_555
O11 Ca11 1_555 1_555
O14 Cd5 1_555 1_555
C9 C10 1_555 1_555
C10 H5 1_555 1_555
C15 C9 1_555 1_555
O7 Cd2 1_555 1_555
O8 Cd2 1_555 1_555
O12 Cd2 1_555 1_555
O44 Cd2 1_555 1_555
C15 O7 1_555 1_555
C15 O8 1_555 1_555
H6 C11 1_555 1_555
C12 C11 1_555 1_555
C16 C12 1_555 1_555
O9 C16 1_555 1_555
Cd9 O9 1_555 1_555
H43 C59 1_555 1_555
H44 C60 1_555 1_555
C74 H53 1_555 1_555
H54 C74 1_555 1_555
H55 C74 1_555 1_555
C75 H56 1_555 1_555
H57 C75 1_555 1_555
H58 C75 1_555 1_555
N6 C74 1_555 1_555
Ca11 O34 1_555 1_555
C59 C60 1_555 1_555
C75 N6 1_555 1_555
Ca4 O26 1_555 1_555
C76 O40 1_555 1_555
O26 H59 1_555 1_555
H60 O26 1_555 1_555
H61 O28 1_555 1_555
H62 O28 1_555 1_555
O40 Ca4 1_555 1_555
O48 Ca4 1_555 1_555
Ca4 O45 1_555 1_555
C76 H66 1_555 1_555
Cd5 O1 1_555 1_555
Ca5 O1 1_555 1_555
C1 C2 1_555 1_555
C2 H1 1_555 1_555
C3 C2 1_555 1_555
H2 C3 1_555 1_555
C4 C3 1_555 1_555
C5 C4 1_555 1_555
C6 C1 1_555 1_555
H4 C6 1_555 1_555
C7 C1 1_555 1_555
C8 C4 1_555 1_555
C25 C26 1_555 1_555
C26 C27 1_555 1_555
C27 H13 1_555 1_555
C28 C26 1_555 1_555
H14 C28 1_555 1_555
C29 C30 1_555 1_555
C30 C31 1_555 1_555
C31 H15 1_555 1_555
C32 O19 1_555 1_555
C33 H16 1_555 1_555
H17 C33 1_555 1_555
C34 C33 1_555 1_555
H18 C34 1_555 1_555
H19 C34 1_555 1_555
O1 C7 1_555 1_555
O3 Cd5 1_555 1_555
O5 C8 1_555 1_555
O15 Cd5 1_555 1_555
O16 C25 1_555 1_555
O17 Cd5 1_555 1_555
O18 Cd5 1_555 1_555
O19 Ca5 1_555 1_555
N1 C32 1_555 1_555
H30 N1 1_555 1_555
N2 C32 1_555 1_555
H31 N2 1_555 1_555
C39 C40 1_555 1_555
C40 C41 1_555 1_555
C41 C28 1_555 1_555
H33 C41 1_555 1_555
C42 C27 1_555 1_555
H34 C42 1_555 1_555
O21 C39 1_555 1_555
O22 C39 1_555 1_555
C46 C31 1_555 1_555
H36 C46 1_555 1_555
Cd7 O21 1_555 1_555
Ca6 O16 1_555 1_555
Ca9 O22 1_555 1_555
C5 C6 1_555 1_555
C7 O3 1_555 1_555
C25 O15 1_555 1_555
C29 O17 1_555 1_555
C29 O18 1_555 1_555
C33 N2 1_555 1_555
C34 N1 1_555 1_555
O17 Ca6 1_555 1_555
C40 C42 1_555 1_555
H32 C38 1_555 1_555
C43 C44 1_555 1_555
C44 C45 1_555 1_555
C45 C38 1_555 1_555
H35 C45 1_555 1_555
O23 C43 1_555 1_555
O24 C43 1_555 1_555
Cd7 O23 1_555 1_555
Ca3 O25 1_555 1_555
C47 C48 1_555 1_555
C48 H37 1_555 1_555
C49 C48 1_555 1_555
H38 C49 1_555 1_555
C50 C49 1_555 1_555
C51 C50 1_555 1_555
C52 C47 1_555 1_555
H40 C52 1_555 1_555
C53 C47 1_555 1_555
C54 C50 1_555 1_555
C71 O39 1_555 1_555
C72 H49 1_555 1_555
H50 C72 1_555 1_555
C73 C72 1_555 1_555
H51 C73 1_555 1_555
H52 C73 1_555 1_555
O25 Cd7 1_555 1_555
O27 Cd7 1_555 1_555
O29 C54 1_555 1_555
O39 Ca3 1_555 1_555
N4 C71 1_555 1_555
H63 N4 1_555 1_555
N5 C71 1_555 1_555
H64 N5 1_555 1_555
Ca9 O23 1_555 1_555
O50 Cd7 1_555 1_555
O52 Cd7 1_555 1_555
O24 Cd7 1_555 1_555
Ca3 O52 1_555 1_555
C51 C52 1_555 1_555
C53 O25 1_555 1_555
C53 O27 1_555 1_555
C72 N5 1_555 1_555
C73 N4 1_555 1_555
Ca2 O2 1_555 1_555
C37 O20 1_555 1_555
O2 H26 1_555 1_555
H27 O2 1_555 1_555
H28 O4 1_555 1_555
H29 O4 1_555 1_555
O20 Ca2 1_555 1_555
O47 Ca2 1_555 1_555
Ca2 O46 1_555 1_555
C37 H65 1_555 1_555
H7 C13 1_555 1_555
H8 C14 1_555 1_555
C35 H20 1_555 1_555
H21 C35 1_555 1_555
H22 C35 1_555 1_555
C36 H23 1_555 1_555
H24 C36 1_555 1_555
H25 C36 1_555 1_555
N3 C35 1_555 1_555
Ca13 O10 1_555 1_555
C13 C14 1_555 1_555
C36 N3 1_555 1_555
H42 C57 1_555 1_555
C58 C57 1_555 1_555
C62 C58 1_555 1_555
O33 C62 1_555 1_555
Cd8 O33 1_555 1_555
C55 C56 1_555 1_555
C56 H41 1_555 1_555
C61 C55 1_555 1_555
O31 Cd4 1_555 1_555
O32 Cd4 1_555 1_555
O36 Cd4 1_555 1_555
O43 Cd4 1_555 1_555
C61 O31 1_555 1_555
C61 O32 1_555 1_555
C63 C64 1_555 1_555
C64 H45 1_555 1_555
C65 C64 1_555 1_555
H46 C65 1_555 1_555
C66 C65 1_555 1_555
C67 C66 1_555 1_555
H47 C67 1_555 1_555
C68 C63 1_555 1_555
C69 C63 1_555 1_555
C70 C66 1_555 1_555
O50 C70 1_555 1_555
O52 C70 1_555 1_555
C67 C68 1_555 1_555
C69 O35 1_555 1_555
O35 Ca13 1_555 1_555
C55_2 C56_2 1_555 1_555
C56_2 H41_2 1_555 1_555
C57_2 C56_2 1_555 1_555
H42_2 C57_2 1_555 1_555
C58_2 C57_2 1_555 1_555
C61_2 C55_2 1_555 1_555
C62_2 C58_2 1_555 1_555
C63_2 C64_2 1_555 1_555
C64_2 H45_2 1_555 1_555
C65_2 C64_2 1_555 1_555
H46_2 C65_2 1_555 1_555
C66_2 C65_2 1_555 1_555
C67_2 C66_2 1_555 1_555
H47_2 C67_2 1_555 1_555
C68_2 C63_2 1_555 1_555
H48_2 C68_2 1_555 1_555
C69_2 C63_2 1_555 1_555
C70_2 C66_2 1_555 1_555
O31_2 Cd9 1_555 1_555
O32_2 Cd9 1_555 1_555
O44 C62_2 1_555 1_555
O48 Cd9 1_555 1_555
O36_2 Cd9 1_555 1_555
O37 C70_2 1_555 1_555
O38 C70_2 1_555 1_555
Cd6 O37 1_555 1_555
Ca9 O38 1_555 1_555
C61_2 O31_2 1_555 1_555
C61_2 O32_2 1_555 1_555
C67_2 C68_2 1_555 1_555
C69_2 O48 1_555 1_555
C69_2 O36_2 1_555 1_555
O38 Cd6 1_555 1_555
C72_2 H49_2 1_555 1_555
H50_2 C72_2 1_555 1_555
C73_2 C72_2 1_555 1_555
H51_2 C73_2 1_555 1_555
H52_2 C73_2 1_555 1_555
H64_2 N5_2 1_555 1_555
C72_2 N5_2 1_555 1_555
H14_2 C28_2 1_555 1_555
C31_2 H15_2 1_555 1_555
C43_2 C44_2 1_555 1_555
O57 C43_2 1_555 1_555
O24_2 C43_2 1_555 1_555
C46_2 C31_2 1_555 1_555
H36_2 C46_2 1_555 1_555
Cd6 O57 1_555 1_555
Ca9 O25_2 1_555 1_555
Ca13 O26_2 1_555 1_555
C47_2 C48_2 1_555 1_555
C48_2 H37_2 1_555 1_555
C49_2 C48_2 1_555 1_555
H38_2 C49_2 1_555 1_555
C50_2 C49_2 1_555 1_555
C51_2 C50_2 1_555 1_555
H39_2 C51_2 1_555 1_555
C52_2 C47_2 1_555 1_555
H40_2 C52_2 1_555 1_555
C53_2 C47_2 1_555 1_555
C54_2 C50_2 1_555 1_555
H43_2 C59_2 1_555 1_555
H44_2 C60_2 1_555 1_555
C71_2 O39_2 1_555 1_555
C75_2 H56_2 1_555 1_555
H57_2 C75_2 1_555 1_555
H58_2 C75_2 1_555 1_555
C76_2 O40_2 1_555 1_555
O25_2 Cd6 1_555 1_555
O26_2 H59_2 1_555 1_555
H60_2 O26_2 1_555 1_555
O27_2 Cd6 1_555 1_555
O28_2 Ca9 1_555 1_555
H61_2 O28_2 1_555 1_555
H62_2 O28_2 1_555 1_555
O42 C54_2 1_555 1_555
O39_2 Ca9 1_555 1_555
O40_2 Ca13 1_555 1_555
N4_2 C71_2 1_555 1_555
H63_2 N4_2 1_555 1_555
O53 Cd6 1_555 1_555
C44_2 C46_2 1_555 1_555
O24_2 Cd6 1_555 1_555
C51_2 C52_2 1_555 1_555
C53_2 O25_2 1_555 1_555
C53_2 O27_2 1_555 1_555
C54_2 O30_2 1_555 1_555
C59_2 C60_2 1_555 1_555
C75_2 N6_2 1_555 1_555
C76_2 N6_2 1_555 1_555
C76_2 H66_2 1_555 1_555
C39_2 C40_2 1_555 1_555
C40_2 C41_2 1_555 1_555
H33_2 C41_2 1_555 1_555
O53 C39_2 1_555 1_555
O55 C39_2 1_555 1_555
Cd1 O1_2 1_555 1_555
Ca6 O1_2 1_555 1_555
Ca11 O2_2 1_555 1_555
C1_2 C2_2 1_555 1_555
C2_2 H1_2 1_555 1_555
C3_2 C2_2 1_555 1_555
H2_2 C3_2 1_555 1_555
C4_2 C3_2 1_555 1_555
C5_2 C4_2 1_555 1_555
H3_2 C5_2 1_555 1_555
C6_2 C1_2 1_555 1_555
H4_2 C6_2 1_555 1_555
C7_2 C1_2 1_555 1_555
C8_2 C4_2 1_555 1_555
H7_2 C13_2 1_555 1_555
H8_2 C14_2 1_555 1_555
C25_2 C26_2 1_555 1_555
C26_2 C27_2 1_555 1_555
C27_2 H13_2 1_555 1_555
C29_2 C30_2 1_555 1_555
C32_2 O19_2 1_555 1_555
C36_2 H23_2 1_555 1_555
H24_2 C36_2 1_555 1_555
H25_2 C36_2 1_555 1_555
C37_2 O20_2 1_555 1_555
O1_2 C7_2 1_555 1_555
O2_2 H26_2 1_555 1_555
H27_2 O2_2 1_555 1_555
O3_2 Cd1 1_555 1_555
O4_2 Ca6 1_555 1_555
H28_2 O4_2 1_555 1_555
H29_2 O4_2 1_555 1_555
O41 C8_2 1_555 1_555
O15_2 Cd1 1_555 1_555
O54 C25_2 1_555 1_555
O56 Cd1 1_555 1_555
O18_2 Cd1 1_555 1_555
O19_2 Ca6 1_555 1_555
O20_2 Ca11 1_555 1_555
N1_2 C32_2 1_555 1_555
H30_2 N1_2 1_555 1_555
C38_2 C30_2 1_555 1_555
H32_2 C38_2 1_555 1_555
C45_2 C38_2 1_555 1_555
H35_2 C45_2 1_555 1_555
O49 Cd1 1_555 1_555
O51 Cd1 1_555 1_555
Ca6 O51 1_555 1_555
C5_2 C6_2 1_555 1_555
C7_2 O3_2 1_555 1_555
C8_2 O6_2 1_555 1_555
C13_2 C14_2 1_555 1_555
C25_2 O15_2 1_555 1_555
C29_2 O56 1_555 1_555
C29_2 O18_2 1_555 1_555
C36_2 N3_2 1_555 1_555
C37_2 N3_2 1_555 1_555
C37_2 H65_2 1_555 1_555
C33_2 H16_2 1_555 1_555
H17_2 C33_2 1_555 1_555
C34_2 C33_2 1_555 1_555
H18_2 C34_2 1_555 1_555
H19_2 C34_2 1_555 1_555
H31_2 N2_2 1_555 1_555
H34_2 C42_2 1_555 1_555
C33_2 N2_2 1_555 1_555
C9_2 C10_2 1_555 1_555
C10_2 H5_2 1_555 1_555
C11_2 C10_2 1_555 1_555
H6_2 C11_2 1_555 1_555
C12_2 C11_2 1_555 1_555
C15_2 C9_2 1_555 1_555
C16_2 C12_2 1_555 1_555
C17_2 C18_2 1_555 1_555
C18_2 H9_2 1_555 1_555
C19_2 C18_2 1_555 1_555
H10_2 C19_2 1_555 1_555
C20_2 C19_2 1_555 1_555
C21_2 C20_2 1_555 1_555
H11_2 C21_2 1_555 1_555
C22_2 C17_2 1_555 1_555
H12_2 C22_2 1_555 1_555
C23_2 C17_2 1_555 1_555
C24_2 C20_2 1_555 1_555
O7_2 Cd8 1_555 1_555
O8_2 Cd8 1_555 1_555
O43 C16_2 1_555 1_555
O47 Cd8 1_555 1_555
O12_2 Cd8 1_555 1_555
O49 C24_2 1_555 1_555
O51 C24_2 1_555 1_555
C15_2 O7_2 1_555 1_555
C15_2 O8_2 1_555 1_555
C21_2 C22_2 1_555 1_555
C23_2 O47 1_555 1_555
C23_2 O12_2 1_555 1_555
C74_2 H53_2 1_555 1_555
H54_2 C74_2 1_555 1_555
C35_2 H20_2 1_555 1_555
H21_2 C35_2 1_555 1_555

#END
