
###############################################################################
#
# This file contains modified crystal structure data generated from the
# MOF subset of the Cambridge Structural Database (CSD) v543 
# hosted by the Cambridge Crystallographic Data Centre (CCDC).
#
# This work is licensed under the Creative Commons
# Attribution-NonCommercial-ShareAlike 4.0 International License.
# To view a copy of this license, visit
# http://creativecommons.org/licenses/by-nc-sa/4.0/
# or send a letter to
# Creative Commons, PO Box 1866, Mountain View, CA 94042, USA.
#
# CIF created using the CSD Python API on 29 September 2022
# The structure has been converted into the P1 space group
# The structure has a 3D framework
# The original CSD entry MOLLII is in the orthorhombic crystal system
# The framework has been calculated to contain at least 10.0% void space
# The void calculation uses a probe of radius 1.32A, grid spacing 0.4
# H atom positions have been added when not included in the experimental data
#
###############################################################################

data_MOLLII
_chemical_formula_moiety         '(C40 H24 Ag8 Fe6 N28)n'
_symmetry_cell_setting           triclinic
_symmetry_space_group_name_H-M   'P 1'
_symmetry_Int_Tables_number      1
_space_group_name_Hall           'P 1'
loop_
_symmetry_equiv_pos_site_id
_symmetry_equiv_pos_as_xyz
1 x,y,z
_cell_length_a                   12.815(5)
_cell_length_b                   15.979(3)
_cell_length_c                   6.7705(11)
_cell_angle_alpha                90
_cell_angle_beta                 90
_cell_angle_gamma                90
_cell_volume                     1386.4
loop_
_atom_site_label
_atom_site_type_symbol
_atom_site_fract_x
_atom_site_fract_y
_atom_site_fract_z
Fe3 Fe -0.0000 0.7892(4) 0.2500
Fe1 Fe 0.5000 0.2892(4) 0.2500
Ag1 Ag 0.2526(2) 0.03819(19) 0.2500
N1 N 0.3955(19) 0.2043(18) 0.2500
C1 C 0.336(3) 0.150(2) 0.2500
N4 N 0.6045(19) 0.2043(18) 0.2500
C7 C 0.664(3) 0.150(2) 0.2500
N5 N 0.609(2) 0.377(2) 0.2500
N6 N 0.5000 0.2905(16) 0.542(3)
Ag2 Ag 0.7474(2) 0.03819(19) 0.2500
N7 N 0.391(2) 0.377(2) 0.2500
N3 N 0.5000 0.2905(16) 0.958(3)
C3 C 0.5000 0.360(2) 0.8517(15)
C4 C 0.5000 0.219(2) 0.8522(15)
C5 C 0.5000 0.360(2) 0.6483(15)
C6 C 0.5000 0.219(2) 0.6478(15)
H1 H 0.5 0.419878 0.928515
H2 H 0.5 0.159368 0.930073
H3 H 0.5 0.159368 0.569927
H4 H 0.5 0.419878 0.571485
N2 N 0.109(2) 0.877(2) 0.2500
C2 C 0.162(3) 0.934(2) 0.2500
N8 N 0.891(2) 0.877(2) 0.2500
C8 C 0.838(3) 0.934(2) 0.2500
Fe3_2 Fe 1.0000 0.7892(4) 0.2500
N4_2 N 0.1045(19) 0.7043(18) 0.2500
C7_2 C 0.164(3) 0.650(2) 0.2500
N6_2 N 0.0000 0.7905(16) 0.542(3)
Ag2_2 Ag 0.2474(2) 0.53819(19) 0.2500
C8_2 C 0.338(3) 0.434(2) 0.2500
N3_2 N 0.0000 0.7905(16) 0.958(3)
C3_2 C 0.0000 0.860(2) 0.8517(15)
C4_2 C -0.0000 0.719(2) 0.8522(15)
C5_2 C -0.0000 0.860(2) 0.6483(15)
C6_2 C 0.0000 0.719(2) 0.6478(15)
H1_2 H -5.55112e-17 0.919878 0.928515
H2_2 H 6.16298e-33 0.659368 0.930073
H3_2 H -1.2326e-32 0.659368 0.569927
H4_2 H -5.55112e-17 0.919878 0.571485
Ag1_2 Ag 0.7526(2) 0.53819(19) 0.2500
N1_2 N 0.8955(19) 0.7043(18) 0.2500
C1_2 C 0.836(3) 0.650(2) 0.2500
C2_2 C 0.662(3) 0.434(2) 0.2500
N6_3 N 1.0000 0.7905(16) 0.542(3)
N3_3 N 1.0000 0.7905(16) 0.958(3)
C3_3 C 1.0000 0.860(2) 0.8517(15)
C4_3 C 1.0000 0.719(2) 0.8522(15)
C5_3 C 1.0000 0.860(2) 0.6483(15)
C6_3 C 1.0000 0.719(2) 0.6478(15)
H1_3 H 1 0.919878 0.928515
H2_3 H 1 0.659368 0.930073
H3_3 H 1 0.659368 0.569927
H4_3 H 1 0.919878 0.571485
Fe2 Fe -0.0000 0.2108(4) 0.7500
N2_2 N 0.891(2) 0.123(2) 0.7500
C2_3 C 0.838(3) 0.066(2) 0.7500
N8_2 N 0.109(2) 0.123(2) 0.7500
C8_3 C 0.162(3) 0.066(2) 0.7500
Fe2_2 Fe 1.0000 0.2108(4) 0.7500
N6_4 N 0.5000 0.7095(16) 0.042(3)
Fe1_2 Fe 0.5000 0.7108(4) 0.7500
Ag1_3 Ag 0.7474(2) 0.96181(19) 0.7500
N1_3 N 0.6045(19) 0.7957(18) 0.7500
C1_3 C 0.664(3) 0.850(2) 0.7500
N3_4 N 0.5000 0.7095(16) 0.458(3)
C3_4 C 0.5000 0.640(2) 0.3517(15)
C4_4 C 0.5000 0.781(2) 0.3522(15)
C5_4 C 0.5000 0.640(2) 0.1483(15)
C6_4 C 0.5000 0.781(2) 0.1478(15)
N4_3 N 0.3955(19) 0.7957(18) 0.7500
C7_3 C 0.336(3) 0.850(2) 0.7500
N5_2 N 0.391(2) 0.623(2) 0.7500
Ag2_3 Ag 0.2526(2) 0.96181(19) 0.7500
N7_2 N 0.609(2) 0.623(2) 0.7500
H1_4 H 0.5 0.580122 0.428515
H2_4 H 0.5 0.840632 0.430073
H3_4 H 0.5 0.840632 0.0699274
H4_4 H 0.5 0.580122 0.0714848
N6_5 N 0.0000 0.2095(16) 0.042(3)
Ag1_4 Ag 0.2474(2) 0.46181(19) 0.7500
N1_4 N 0.1045(19) 0.2957(18) 0.7500
C1_4 C 0.164(3) 0.350(2) 0.7500
C2_4 C 0.338(3) 0.566(2) 0.7500
N3_5 N 0.0000 0.2095(16) 0.458(3)
C3_5 C -0.0000 0.140(2) 0.3517(15)
C4_5 C -0.0000 0.281(2) 0.3522(15)
C5_5 C -0.0000 0.140(2) 0.1483(15)
C6_5 C -0.0000 0.281(2) 0.1478(15)
H1_5 H 5.55112e-17 0.0801223 0.428515
H2_5 H 0 0.340632 0.430073
H3_5 H -5.3926e-33 0.340632 0.0699274
H4_5 H 5.55112e-17 0.0801223 0.0714848
N6_6 N 1.0000 0.2095(16) 0.042(3)
N3_6 N 1.0000 0.2095(16) 0.458(3)
C3_6 C 1.0000 0.140(2) 0.3517(15)
C4_6 C 1.0000 0.281(2) 0.3522(15)
C5_6 C 1.0000 0.140(2) 0.1483(15)
C6_6 C 1.0000 0.281(2) 0.1478(15)
N4_4 N 0.8955(19) 0.2957(18) 0.7500
C7_4 C 0.836(3) 0.350(2) 0.7500
Ag2_4 Ag 0.7526(2) 0.46181(19) 0.7500
C8_4 C 0.662(3) 0.566(2) 0.7500
H1_6 H 1 0.0801223 0.428515
H2_6 H 1 0.340632 0.430073
H3_6 H 1 0.340632 0.0699274
H4_6 H 1 0.0801223 0.0714848
loop_
_geom_bond_atom_site_label_1
_geom_bond_atom_site_label_2
_geom_bond_site_symmetry_1
_geom_bond_site_symmetry_2
Fe1 N1 1_555 1_555
Ag1 C1 1_555 1_555
N1 C1 1_555 1_555
N4 Fe1 1_555 1_555
C7 N4 1_555 1_555
N5 Fe1 1_555 1_555
N6 Fe1 1_555 1_555
Ag2 C7 1_555 1_555
N7 Fe1 1_555 1_555
C3 N3 1_555 1_555
C4 N3 1_555 1_555
C5 C3 1_555 1_555
C6 C4 1_555 1_555
N6 C5 1_555 1_555
C6 N6 1_555 1_555
C3 H1 1_555 1_555
C4 H2 1_555 1_555
C6 H3 1_555 1_555
C5 H4 1_555 1_555
N2 C2 1_555 1_555
N8 C8 1_555 1_555
Fe3 N2 1_555 1_555
Fe3_2 N8 1_555 1_555
N4_2 Fe3 1_555 1_555
C7_2 N4_2 1_555 1_555
N6_2 Fe3 1_555 1_555
Ag2_2 C7_2 1_555 1_555
N7 C8_2 1_555 1_555
C8_2 Ag2_2 1_555 1_555
C3_2 N3_2 1_555 1_555
C4_2 N3_2 1_555 1_555
C5_2 C3_2 1_555 1_555
C6_2 C4_2 1_555 1_555
N6_2 C5_2 1_555 1_555
C6_2 N6_2 1_555 1_555
C3_2 H1_2 1_555 1_555
C4_2 H2_2 1_555 1_555
C6_2 H3_2 1_555 1_555
C5_2 H4_2 1_555 1_555
Fe3_2 N1_2 1_555 1_555
Ag1_2 C1_2 1_555 1_555
N1_2 C1_2 1_555 1_555
N5 C2_2 1_555 1_555
C2_2 Ag1_2 1_555 1_555
N6_3 Fe3_2 1_555 1_555
C3_3 N3_3 1_555 1_555
C4_3 N3_3 1_555 1_555
C5_3 C3_3 1_555 1_555
C6_3 C4_3 1_555 1_555
N6_3 C5_3 1_555 1_555
C6_3 N6_3 1_555 1_555
C3_3 H1_3 1_555 1_555
C4_3 H2_3 1_555 1_555
C6_3 H3_3 1_555 1_555
C5_3 H4_3 1_555 1_555
N2_2 C2_3 1_555 1_555
N8_2 C8_3 1_555 1_555
Fe2_2 N2_2 1_555 1_555
Fe2 N8_2 1_555 1_555
Fe1_2 N1_3 1_555 1_555
Ag1_3 C1_3 1_555 1_555
N1_3 C1_3 1_555 1_555
N3_4 Fe1_2 1_555 1_555
C3_4 N3_4 1_555 1_555
C4_4 N3_4 1_555 1_555
C5_4 C3_4 1_555 1_555
C6_4 C4_4 1_555 1_555
N4_3 Fe1_2 1_555 1_555
C7_3 N4_3 1_555 1_555
N5_2 Fe1_2 1_555 1_555
Ag2_3 C7_3 1_555 1_555
N7_2 Fe1_2 1_555 1_555
N6_4 C5_4 1_555 1_555
C6_4 N6_4 1_555 1_555
C3_4 H1_4 1_555 1_555
C4_4 H2_4 1_555 1_555
C6_4 H3_4 1_555 1_555
C5_4 H4_4 1_555 1_555
Fe2 N1_4 1_555 1_555
Ag1_4 C1_4 1_555 1_555
N1_4 C1_4 1_555 1_555
N5_2 C2_4 1_555 1_555
C2_4 Ag1_4 1_555 1_555
N3_5 Fe2 1_555 1_555
C3_5 N3_5 1_555 1_555
C4_5 N3_5 1_555 1_555
C5_5 C3_5 1_555 1_555
C6_5 C4_5 1_555 1_555
N6_5 C5_5 1_555 1_555
C6_5 N6_5 1_555 1_555
C3_5 H1_5 1_555 1_555
C4_5 H2_5 1_555 1_555
C6_5 H3_5 1_555 1_555
C5_5 H4_5 1_555 1_555
N3_6 Fe2_2 1_555 1_555
C3_6 N3_6 1_555 1_555
C4_6 N3_6 1_555 1_555
C5_6 C3_6 1_555 1_555
C6_6 C4_6 1_555 1_555
N4_4 Fe2_2 1_555 1_555
C7_4 N4_4 1_555 1_555
Ag2_4 C7_4 1_555 1_555
N7_2 C8_4 1_555 1_555
C8_4 Ag2_4 1_555 1_555
N6_6 C5_6 1_555 1_555
C6_6 N6_6 1_555 1_555
C3_6 H1_6 1_555 1_555
C4_6 H2_6 1_555 1_555
C6_6 H3_6 1_555 1_555
C5_6 H4_6 1_555 1_555

#END
