
###############################################################################
#
# This file contains modified crystal structure data generated from the
# MOF subset of the Cambridge Structural Database (CSD) v543 
# hosted by the Cambridge Crystallographic Data Centre (CCDC).
#
# This work is licensed under the Creative Commons
# Attribution-NonCommercial-ShareAlike 4.0 International License.
# To view a copy of this license, visit
# http://creativecommons.org/licenses/by-nc-sa/4.0/
# or send a letter to
# Creative Commons, PO Box 1866, Mountain View, CA 94042, USA.
#
# CIF created using the CSD Python API on 29 September 2022
# The structure has been converted into the P1 space group
# The structure has a 3D framework
# The original CSD entry MOLQOV is in the monoclinic crystal system
# The framework has been calculated to contain at least 10.0% void space
# The void calculation uses a probe of radius 1.32A, grid spacing 0.4
#
###############################################################################

data_MOLQOV
_chemical_formula_moiety         '(C96 H88 N16 O32 Zn8)n'
_symmetry_cell_setting           triclinic
_symmetry_space_group_name_H-M   'P 1'
_symmetry_Int_Tables_number      1
_space_group_name_Hall           'P 1'
loop_
_symmetry_equiv_pos_site_id
_symmetry_equiv_pos_as_xyz
1 x,y,z
_cell_length_a                   17.370(5)
_cell_length_b                   12.694(4)
_cell_length_c                   12.332(4)
_cell_angle_alpha                90
_cell_angle_beta                 92.587(6)
_cell_angle_gamma                90
_cell_volume                     2716.37
loop_
_atom_site_label
_atom_site_type_symbol
_atom_site_fract_x
_atom_site_fract_y
_atom_site_fract_z
C13 C 0.53922(16) 0.1027(2) 0.0790(2)
H12 H 0.5687 0.0435 0.0652
C14 C 0.47003(16) 0.1013(2) 0.1218(2)
H13 H 0.4429 0.0420 0.1425
C15 C 0.50260(16) 0.2653(2) 0.0893(2)
C16 C 0.49887(19) 0.3803(2) 0.0793(3)
H14 H 0.5452 0.4057 0.0486
H15 H 0.4552 0.3995 0.0330
H16 H 0.4938 0.4110 0.1497
C17 C 0.37293(17) 0.2395(2) 0.1678(2)
H17 H 0.3571 0.1923 0.2246
H18 H 0.3795 0.3091 0.1994
C18 C 0.30989(18) 0.24387(18) 0.0794(2)
C19 C 0.23526(18) 0.2595(2) 0.1078(2)
H19 H 0.2247 0.2660 0.1808
C20 C 0.17524(17) 0.2659(2) 0.0300(3)
H20 H 0.1251 0.2768 0.0510
N3 N 0.56004(12) 0.20401(16) 0.05873(15)
N4 N 0.44675(12) 0.20380(19) 0.12935(17)
Zn7 Zn 0.663539(16) 0.24382(2) 0.00725(2)
C6 C 0.02997(16) 0.3987(2) 0.8782(2)
H4 H 0.0571 0.4580 0.8575
C8 C 0.00113(19) 0.1197(2) 0.9207(3)
H6 H 0.0448 0.1005 0.9670
H7 H 0.0062 0.0890 0.8503
C9 C 0.12707(17) 0.2605(2) 0.8322(2)
H8 H 0.1429 0.3077 0.7754
H9 H 0.1205 0.1909 0.8006
C10 C 0.19011(18) 0.25613(18) 0.9206(2)
C11 C 0.26474(18) 0.2405(2) 0.8922(2)
H10 H 0.2753 0.2340 0.8192
C12 C 0.32476(17) 0.2341(2) 0.9700(3)
H11 H 0.3749 0.2232 0.9490
N2 N 0.05325(12) 0.29620(19) 0.87065(17)
C1 C 0.79145(16) 0.11385(19) 0.1501(2)
C2 C 0.79856(16) 0.0319(2) 0.2369(2)
H1 H 0.8473 0.0152 0.2661
H2 H 0.6902 0.0005 0.2438
O1 O 0.85373(12) 0.14897(15) 0.11538(16)
O2 O 0.72574(12) 0.14282(14) 0.11791(15)
O9 O 0.69245(11) 0.36444(14) 0.11046(15)
O11 O 0.82131(11) 0.37011(15) 0.10600(15)
Zn1 Zn 0.836461(16) 0.25618(2) 0.99275(2)
C5 C 0.96078(16) 0.3973(2) 0.9210(2)
H3 H 0.9313 0.4565 0.9348
C7 C 0.99740(16) 0.2347(2) 0.9107(2)
H5 H 0.9548 0.0943 0.9514
N1 N 0.93996(12) 0.29599(16) 0.94127(15)
C21 C 0.70855(16) 0.38615(19) 0.8499(2)
C22 C 0.70144(16) 0.4681(2) 0.7631(2)
H21 H 0.6527 0.4848 0.7339
C23 C 0.76147(16) 0.5175(2) 0.7264(2)
H22 H 0.8098 0.4995 0.7562
C24 C 0.75763(15) 0.60058(19) 0.6402(2)
O5 O 0.64627(12) 0.35103(15) 0.88462(16)
O6 O 0.77426(12) 0.35718(14) 0.88209(15)
O7 O 0.69245(11) 0.63556(14) 0.61046(15)
O8 O 0.82131(11) 0.62989(15) 0.60600(15)
Zn4 Zn 0.663539(16) 0.75618(2) 0.50725(2)
Zn6 Zn 0.836461(16) 0.74382(2) 0.49275(2)
O10 O 0.80755(11) 0.13556(14) 0.88954(15)
O12 O 0.67869(11) 0.12989(15) 0.89400(15)
C3 C 0.73853(16) 0.9825(2) 0.2736(2)
C4 C 0.74237(15) 0.89942(19) 0.3598(2)
O3 O 0.80755(11) 0.86444(14) 0.38954(15)
O4 O 0.67869(11) 0.87011(15) 0.39400(15)
C23_2 C 0.73853(16) 0.0175(2) 0.7736(2)
C24_2 C 0.74237(15) 0.10058(19) 0.8598(2)
C1_2 C 0.70855(16) 0.61385(19) 0.3499(2)
C2_2 C 0.70144(16) 0.5319(2) 0.2631(2)
H1_2 H 0.6527 0.5152 0.2339
C3_2 C 0.76147(16) 0.4825(2) 0.2264(2)
H2_2 H 0.8098 0.5005 0.2562
C4_2 C 0.75763(15) 0.39942(19) 0.1402(2)
C5_2 C 0.53922(16) 0.8973(2) 0.5790(2)
H3_2 H 0.5687 0.9565 0.5652
C6_2 C 0.47003(16) 0.8987(2) 0.6218(2)
H4_2 H 0.4429 0.9580 0.6425
C7_2 C 0.50260(16) 0.7347(2) 0.5893(2)
C8_2 C 0.49887(19) 0.6197(2) 0.5793(3)
H5_2 H 0.5452 0.5943 0.5486
H6_2 H 0.4552 0.6005 0.5330
H7_2 H 0.4938 0.5890 0.6497
C9_2 C 0.37293(17) 0.7605(2) 0.6678(2)
H8_2 H 0.3571 0.8077 0.7246
H9_2 H 0.3795 0.6909 0.6994
C10_2 C 0.30989(18) 0.75613(18) 0.5794(2)
C11_2 C 0.23526(18) 0.7405(2) 0.6078(2)
H10_2 H 0.2247 0.7340 0.6808
C12_2 C 0.17524(17) 0.7341(2) 0.5300(3)
H11_2 H 0.1251 0.7232 0.5510
N1_2 N 0.56004(12) 0.79599(16) 0.55873(15)
N2_2 N 0.44675(12) 0.79620(19) 0.62935(17)
O1_2 O 0.64627(12) 0.64897(15) 0.38462(16)
O2_2 O 0.77426(12) 0.64282(14) 0.38209(15)
C14_2 C 0.02997(16) 0.6013(2) 0.3782(2)
H13_2 H 0.0571 0.5420 0.3575
C16_2 C 0.00113(19) 0.8803(2) 0.4207(3)
H15_2 H 0.0448 0.8995 0.4670
H16_2 H 0.0062 0.9110 0.3503
C17_2 C 0.12707(17) 0.7395(2) 0.3322(2)
H17_2 H 0.1429 0.6923 0.2754
H18_2 H 0.1205 0.8091 0.3006
C18_2 C 0.19011(18) 0.74387(18) 0.4206(2)
C19_2 C 0.26474(18) 0.7595(2) 0.3922(2)
H19_2 H 0.2753 0.7660 0.3192
C20_2 C 0.32476(17) 0.7659(2) 0.4700(3)
H20_2 H 0.3749 0.7768 0.4490
N4_2 N 0.05325(12) 0.70380(19) 0.37065(17)
C21_2 C 0.79145(16) 0.88615(19) 0.6501(2)
C22_2 C 0.79856(16) 0.9681(2) 0.7369(2)
H21_2 H 0.8473 0.9848 0.7661
H22_2 H 0.6902 0.9995 0.7438
O5_2 O 0.85373(12) 0.85103(15) 0.61538(16)
O6_2 O 0.72574(12) 0.85718(14) 0.61791(15)
N5 N 0.93996(12) 0.70401(16) 0.44127(15)
C13_2 C 0.96078(16) 0.6027(2) 0.4210(2)
H12_2 H 0.9313 0.5435 0.4348
C15_2 C 0.99740(16) 0.7653(2) 0.4107(2)
H14_2 H 0.9548 0.9057 0.4514
Zn6_2 Zn 0.163539(16) 0.74382(2) 0.00725(2)
Zn1_2 Zn 0.163539(16) 0.25618(2) 0.50725(2)
C1_3 C 0.20855(16) 0.11385(19) 0.3499(2)
C2_3 C 0.20144(16) 0.0319(2) 0.2631(2)
H1_3 H 0.1527 0.0152 0.2339
H2_3 H 0.3098 0.0005 0.2562
C5_3 C 0.03922(16) 0.3973(2) 0.5790(2)
H3_3 H 0.0687 0.4565 0.5652
C7_3 C 0.00260(16) 0.2347(2) 0.5893(2)
H5_3 H 0.0452 0.0943 0.5486
N1_3 N 0.06004(12) 0.29599(16) 0.55873(15)
O1_3 O 0.14627(12) 0.14897(15) 0.38462(16)
O2_3 O 0.27426(12) 0.14282(14) 0.38209(15)
Zn2 Zn 0.336461(16) 0.24382(2) 0.49275(2)
C21_3 C 0.29145(16) 0.38615(19) 0.6501(2)
C22_3 C 0.29856(16) 0.4681(2) 0.7369(2)
H21_3 H 0.3473 0.4848 0.7661
C23_3 C 0.23853(16) 0.5175(2) 0.7736(2)
H22_3 H 0.1902 0.4995 0.7438
C24_3 C 0.24237(15) 0.60058(19) 0.8598(2)
O5_3 O 0.35373(12) 0.35103(15) 0.61538(16)
O6_3 O 0.22574(12) 0.35718(14) 0.61791(15)
O7_2 O 0.30755(11) 0.63556(14) 0.88954(15)
O8_2 O 0.17869(11) 0.62989(15) 0.89400(15)
Zn4_2 Zn 0.336461(16) 0.75618(2) 0.99275(2)
N5_2 N 0.43996(12) 0.20401(16) 0.44127(15)
O9_2 O 0.30755(11) 0.36444(14) 0.38954(15)
O10_2 O 0.19245(11) 0.13556(14) 0.61046(15)
O11_2 O 0.17869(11) 0.37011(15) 0.39400(15)
O12_2 O 0.32131(11) 0.12989(15) 0.60600(15)
C3_3 C 0.26147(16) 0.9825(2) 0.2264(2)
C4_3 C 0.25763(15) 0.89942(19) 0.1402(2)
O3_2 O 0.19245(11) 0.86444(14) 0.11046(15)
O4_2 O 0.32131(11) 0.87011(15) 0.10600(15)
C6_3 C 0.97003(16) 0.3987(2) 0.6218(2)
H4_3 H 0.9429 0.4580 0.6425
C8_3 C 0.99887(19) 0.1197(2) 0.5793(3)
H6_3 H 0.9552 0.1005 0.5330
H7_3 H 0.9938 0.0890 0.6497
C9_3 C 0.87293(17) 0.2605(2) 0.6678(2)
H8_3 H 0.8571 0.3077 0.7246
H9_3 H 0.8795 0.1909 0.6994
C10_3 C 0.80989(18) 0.25613(18) 0.5794(2)
C11_3 C 0.73526(18) 0.2405(2) 0.6078(2)
H10_3 H 0.7247 0.2340 0.6808
C12_3 C 0.67524(17) 0.2341(2) 0.5300(3)
H11_3 H 0.6251 0.2232 0.5510
N2_3 N 0.94675(12) 0.29620(19) 0.62935(17)
C13_3 C 0.46078(16) 0.1027(2) 0.4210(2)
H12_3 H 0.4313 0.0435 0.4348
C14_3 C 0.52997(16) 0.1013(2) 0.3782(2)
H13_3 H 0.5571 0.0420 0.3575
C15_3 C 0.49740(16) 0.2653(2) 0.4107(2)
C16_3 C 0.50113(19) 0.3803(2) 0.4207(3)
H14_3 H 0.4548 0.4057 0.4514
H15_3 H 0.5448 0.3995 0.4670
H16_3 H 0.5062 0.4110 0.3503
C17_3 C 0.62707(17) 0.2395(2) 0.3322(2)
H17_3 H 0.6429 0.1923 0.2754
H18_3 H 0.6205 0.3091 0.3006
C18_3 C 0.69011(18) 0.24387(18) 0.4206(2)
C19_3 C 0.76474(18) 0.2595(2) 0.3922(2)
H19_3 H 0.7753 0.2660 0.3192
C20_3 C 0.82476(17) 0.2659(2) 0.4700(3)
H20_3 H 0.8749 0.2768 0.4490
N4_3 N 0.55325(12) 0.20380(19) 0.37065(17)
C13_4 C 0.03922(16) 0.6027(2) 0.0790(2)
H12_4 H 0.0687 0.5435 0.0652
C15_4 C 0.00260(16) 0.7653(2) 0.0893(2)
H14_4 H 0.0452 0.9057 0.0486
N3_2 N 0.06004(12) 0.70401(16) 0.05873(15)
C23_4 C 0.26147(16) 0.0175(2) 0.7264(2)
C24_4 C 0.25763(15) 0.10058(19) 0.6402(2)
C1_4 C 0.29145(16) 0.61385(19) 0.1501(2)
C2_4 C 0.29856(16) 0.5319(2) 0.2369(2)
H1_4 H 0.3473 0.5152 0.2661
C3_4 C 0.23853(16) 0.4825(2) 0.2736(2)
H2_4 H 0.1902 0.5005 0.2438
C4_4 C 0.24237(15) 0.39942(19) 0.3598(2)
O1_4 O 0.35373(12) 0.64897(15) 0.11538(16)
O2_4 O 0.22574(12) 0.64282(14) 0.11791(15)
C14_4 C 0.97003(16) 0.6013(2) 0.1218(2)
H13_4 H 0.9429 0.5420 0.1425
C16_4 C 0.99887(19) 0.8803(2) 0.0793(3)
H15_4 H 0.9552 0.8995 0.0330
H16_4 H 0.9938 0.9110 0.1497
C17_4 C 0.87293(17) 0.7395(2) 0.1678(2)
H17_4 H 0.8571 0.6923 0.2246
H18_4 H 0.8795 0.8091 0.1994
C18_4 C 0.80989(18) 0.74387(18) 0.0794(2)
C19_4 C 0.73526(18) 0.7595(2) 0.1078(2)
H19_4 H 0.7247 0.7660 0.1808
C20_4 C 0.67524(17) 0.7659(2) 0.0300(3)
H20_4 H 0.6251 0.7768 0.0510
N4_4 N 0.94675(12) 0.70380(19) 0.12935(17)
C5_4 C 0.46078(16) 0.8973(2) 0.9210(2)
H3_4 H 0.4313 0.9565 0.9348
C6_4 C 0.52997(16) 0.8987(2) 0.8782(2)
H4_4 H 0.5571 0.9580 0.8575
C7_4 C 0.49740(16) 0.7347(2) 0.9107(2)
C8_4 C 0.50113(19) 0.6197(2) 0.9207(3)
H5_4 H 0.4548 0.5943 0.9514
H6_4 H 0.5448 0.6005 0.9670
H7_4 H 0.5062 0.5890 0.8503
C9_4 C 0.62707(17) 0.7605(2) 0.8322(2)
H8_4 H 0.6429 0.8077 0.7754
H9_4 H 0.6205 0.6909 0.8006
C10_4 C 0.69011(18) 0.75613(18) 0.9206(2)
C11_4 C 0.76474(18) 0.7405(2) 0.8922(2)
H10_4 H 0.7753 0.7340 0.8192
C12_4 C 0.82476(17) 0.7341(2) 0.9700(3)
H11_4 H 0.8749 0.7232 0.9490
N1_4 N 0.43996(12) 0.79599(16) 0.94127(15)
N2_4 N 0.55325(12) 0.79620(19) 0.87065(17)
C21_4 C 0.20855(16) 0.88615(19) 0.8499(2)
C22_4 C 0.20144(16) 0.9681(2) 0.7631(2)
H21_4 H 0.1527 0.9848 0.7339
H22_4 H 0.3098 0.9995 0.7562
O5_4 O 0.14627(12) 0.85103(15) 0.88462(16)
O6_4 O 0.27426(12) 0.85718(14) 0.88209(15)
loop_
_geom_bond_atom_site_label_1
_geom_bond_atom_site_label_2
_geom_bond_site_symmetry_1
_geom_bond_site_symmetry_2
C13 H12 1_555 1_555
C14 C13 1_555 1_555
H13 C14 1_555 1_555
C15 C16 1_555 1_555
C16 H14 1_555 1_555
H15 C16 1_555 1_555
H16 C16 1_555 1_555
C17 H17 1_555 1_555
H18 C17 1_555 1_555
C19 C18 1_555 1_555
H19 C19 1_555 1_555
H20 C20 1_555 1_555
N3 C13 1_555 1_555
N4 C14 1_555 1_555
Zn7 N3 1_555 1_555
C15 N3 1_555 1_555
C15 N4 1_555 1_555
C17 C18 1_555 1_555
C17 N4 1_555 1_555
C19 C20 1_555 1_555
H4 C6 1_555 1_555
H6 C8 1_555 1_555
H7 C8 1_555 1_555
C9 H8 1_555 1_555
H9 C9 1_555 1_555
C10 C9 1_555 1_555
C11 C10 1_555 1_555
H10 C11 1_555 1_555
C12 C11 1_555 1_555
H11 C12 1_555 1_555
N2 C6 1_555 1_555
C9 N2 1_555 1_555
C1 C2 1_555 1_555
C2 H1 1_555 1_555
O2 C1 1_555 1_555
Zn7 O2 1_555 1_555
O9 Zn7 1_555 1_555
C1 O1 1_555 1_555
Zn1 N1 1_555 1_555
C5 H3 1_555 1_555
N1 C5 1_555 1_555
C21 C22 1_555 1_555
C22 H21 1_555 1_555
C23 C22 1_555 1_555
H22 C23 1_555 1_555
C24 C23 1_555 1_555
O6 Zn1 1_555 1_555
O7 C24 1_555 1_555
O8 C24 1_555 1_555
Zn4 O7 1_555 1_555
Zn6 O8 1_555 1_555
O10 Zn1 1_555 1_555
C7 N1 1_555 1_555
C21 O5 1_555 1_555
C21 O6 1_555 1_555
C4 C3 1_555 1_555
O3 C4 1_555 1_555
O4 C4 1_555 1_555
Zn4 O4 1_555 1_555
Zn6 O3 1_555 1_555
C24_2 C23_2 1_555 1_555
O10 C24_2 1_555 1_555
O12 C24_2 1_555 1_555
Zn4 N1_2 1_555 1_555
C1_2 C2_2 1_555 1_555
C2_2 H1_2 1_555 1_555
C3_2 C2_2 1_555 1_555
H2_2 C3_2 1_555 1_555
C4_2 C3_2 1_555 1_555
C5_2 H3_2 1_555 1_555
C6_2 C5_2 1_555 1_555
H4_2 C6_2 1_555 1_555
C7_2 C8_2 1_555 1_555
C8_2 H5_2 1_555 1_555
H6_2 C8_2 1_555 1_555
H7_2 C8_2 1_555 1_555
C9_2 H8_2 1_555 1_555
H9_2 C9_2 1_555 1_555
C10_2 C9_2 1_555 1_555
C11_2 C10_2 1_555 1_555
H10_2 C11_2 1_555 1_555
C12_2 C11_2 1_555 1_555
H11_2 C12_2 1_555 1_555
N1_2 C5_2 1_555 1_555
N2_2 C6_2 1_555 1_555
O1_2 Zn4 1_555 1_555
O2_2 C1_2 1_555 1_555
O9 C4_2 1_555 1_555
O11 C4_2 1_555 1_555
H13_2 C14_2 1_555 1_555
H15_2 C16_2 1_555 1_555
H16_2 C16_2 1_555 1_555
C17_2 H17_2 1_555 1_555
H18_2 C17_2 1_555 1_555
C18_2 C12_2 1_555 1_555
C19_2 C18_2 1_555 1_555
H19_2 C19_2 1_555 1_555
C20_2 C10_2 1_555 1_555
H20_2 C20_2 1_555 1_555
N4_2 C14_2 1_555 1_555
Zn6 O2_2 1_555 1_555
C21_2 C22_2 1_555 1_555
C22_2 H21_2 1_555 1_555
O5_2 Zn6 1_555 1_555
O6_2 Zn4 1_555 1_555
N5 Zn6 1_555 1_555
C1_2 O1_2 1_555 1_555
C7_2 N1_2 1_555 1_555
C7_2 N2_2 1_555 1_555
C9_2 N2_2 1_555 1_555
C17_2 C18_2 1_555 1_555
C17_2 N4_2 1_555 1_555
C19_2 C20_2 1_555 1_555
C21_2 O5_2 1_555 1_555
C21_2 O6_2 1_555 1_555
C13_2 H12_2 1_555 1_555
N5 C13_2 1_555 1_555
C15_2 N5 1_555 1_555
Zn1_2 N1_3 1_555 1_555
C1_3 C2_3 1_555 1_555
C2_3 H1_3 1_555 1_555
C5_3 H3_3 1_555 1_555
N1_3 C5_3 1_555 1_555
O1_3 Zn1_2 1_555 1_555
O2_3 C1_3 1_555 1_555
Zn2 O2_3 1_555 1_555
C21_3 C22_3 1_555 1_555
C22_3 H21_3 1_555 1_555
C23_3 C22_3 1_555 1_555
H22_3 C23_3 1_555 1_555
C24_3 C23_3 1_555 1_555
O5_3 Zn2 1_555 1_555
O6_3 Zn1_2 1_555 1_555
O7_2 C24_3 1_555 1_555
O8_2 C24_3 1_555 1_555
Zn4_2 O7_2 1_555 1_555
N5_2 Zn2 1_555 1_555
O9_2 Zn2 1_555 1_555
O10_2 Zn1_2 1_555 1_555
O11_2 Zn1_2 1_555 1_555
O12_2 Zn2 1_555 1_555
C1_3 O1_3 1_555 1_555
C7_3 N1_3 1_555 1_555
C21_3 O5_3 1_555 1_555
C21_3 O6_3 1_555 1_555
C4_3 C3_3 1_555 1_555
O3_2 C4_3 1_555 1_555
O4_2 C4_3 1_555 1_555
Zn6_2 O3_2 1_555 1_555
H4_3 C6_3 1_555 1_555
H6_3 C8_3 1_555 1_555
H7_3 C8_3 1_555 1_555
C9_3 H8_3 1_555 1_555
H9_3 C9_3 1_555 1_555
C10_3 C9_3 1_555 1_555
C11_3 C10_3 1_555 1_555
H10_3 C11_3 1_555 1_555
C12_3 C11_3 1_555 1_555
H11_3 C12_3 1_555 1_555
N2_3 C6_3 1_555 1_555
C13_3 H12_3 1_555 1_555
C14_3 C13_3 1_555 1_555
H13_3 C14_3 1_555 1_555
C15_3 C16_3 1_555 1_555
C16_3 H14_3 1_555 1_555
H15_3 C16_3 1_555 1_555
H16_3 C16_3 1_555 1_555
C17_3 H17_3 1_555 1_555
H18_3 C17_3 1_555 1_555
C18_3 C12_3 1_555 1_555
C19_3 C18_3 1_555 1_555
H19_3 C19_3 1_555 1_555
C20_3 C10_3 1_555 1_555
H20_3 C20_3 1_555 1_555
N5_2 C13_3 1_555 1_555
N4_3 C14_3 1_555 1_555
C9_3 N2_3 1_555 1_555
C15_3 N5_2 1_555 1_555
C15_3 N4_3 1_555 1_555
C17_3 C18_3 1_555 1_555
C17_3 N4_3 1_555 1_555
C19_3 C20_3 1_555 1_555
C13_4 H12_4 1_555 1_555
N3_2 C13_4 1_555 1_555
Zn6_2 N3_2 1_555 1_555
C15_4 N3_2 1_555 1_555
C24_4 C23_4 1_555 1_555
O10_2 C24_4 1_555 1_555
O12_2 C24_4 1_555 1_555
C1_4 C2_4 1_555 1_555
C2_4 H1_4 1_555 1_555
C3_4 C2_4 1_555 1_555
H2_4 C3_4 1_555 1_555
C4_4 C3_4 1_555 1_555
O2_4 C1_4 1_555 1_555
O9_2 C4_4 1_555 1_555
O11_2 C4_4 1_555 1_555
H13_4 C14_4 1_555 1_555
H15_4 C16_4 1_555 1_555
H16_4 C16_4 1_555 1_555
C17_4 H17_4 1_555 1_555
H18_4 C17_4 1_555 1_555
C19_4 C18_4 1_555 1_555
H19_4 C19_4 1_555 1_555
H20_4 C20_4 1_555 1_555
N4_4 C14_4 1_555 1_555
Zn6_2 O2_4 1_555 1_555
C1_4 O1_4 1_555 1_555
C17_4 C18_4 1_555 1_555
C17_4 N4_4 1_555 1_555
C19_4 C20_4 1_555 1_555
Zn4_2 N1_4 1_555 1_555
C5_4 H3_4 1_555 1_555
C6_4 C5_4 1_555 1_555
H4_4 C6_4 1_555 1_555
C7_4 C8_4 1_555 1_555
C8_4 H5_4 1_555 1_555
H6_4 C8_4 1_555 1_555
H7_4 C8_4 1_555 1_555
C9_4 H8_4 1_555 1_555
H9_4 C9_4 1_555 1_555
C10_4 C9_4 1_555 1_555
C11_4 C10_4 1_555 1_555
H10_4 C11_4 1_555 1_555
C12_4 C11_4 1_555 1_555
H11_4 C12_4 1_555 1_555
N1_4 C5_4 1_555 1_555
N2_4 C6_4 1_555 1_555
C21_4 C22_4 1_555 1_555
C22_4 H21_4 1_555 1_555
O6_4 Zn4_2 1_555 1_555
C7_4 N1_4 1_555 1_555
C7_4 N2_4 1_555 1_555
C9_4 N2_4 1_555 1_555
C21_4 O5_4 1_555 1_555
C21_4 O6_4 1_555 1_555

#END
