
###############################################################################
#
# This file contains modified crystal structure data generated from the
# MOF subset of the Cambridge Structural Database (CSD) v543 
# hosted by the Cambridge Crystallographic Data Centre (CCDC).
#
# This work is licensed under the Creative Commons
# Attribution-NonCommercial-ShareAlike 4.0 International License.
# To view a copy of this license, visit
# http://creativecommons.org/licenses/by-nc-sa/4.0/
# or send a letter to
# Creative Commons, PO Box 1866, Mountain View, CA 94042, USA.
#
# CIF created using the CSD Python API on 29 September 2022
# The structure has been converted into the P1 space group
# The structure has a 3D framework
# The original CSD entry MOLQEL is in the monoclinic crystal system
# The framework has been calculated to contain at least 10.0% void space
# The void calculation uses a probe of radius 1.32A, grid spacing 0.4
#
###############################################################################

data_MOLQEL
_chemical_formula_moiety         '(C88 H88 N8 O44 Zn6)n'
_symmetry_cell_setting           triclinic
_symmetry_space_group_name_H-M   'P 1'
_symmetry_Int_Tables_number      1
_space_group_name_Hall           'P 1'
loop_
_symmetry_equiv_pos_site_id
_symmetry_equiv_pos_as_xyz
1 x,y,z
_cell_length_a                   14.290(3)
_cell_length_b                   12.973(3)
_cell_length_c                   17.818(4)
_cell_angle_alpha                90
_cell_angle_beta                 95.33(3)
_cell_angle_gamma                90
_cell_volume                     3288.89
loop_
_atom_site_label
_atom_site_type_symbol
_atom_site_fract_x
_atom_site_fract_y
_atom_site_fract_z
O13 O 0.1263(3) 0.0051(3) 0.2774(2)
Zn1 Zn 0.00990(4) 0.94595(4) 0.22538(3)
Zn2 Zn 0.07056(4) 0.77955(4) 0.36340(3)
C17 C 0.2454(7) 0.7145(9) 0.4491(6)
H7 H 0.2354 0.7740 0.4763
C18 C 0.3581(10) 0.5861(15) 0.4218(10)
H8 H 0.3493 0.5197 0.4440
H9 H 0.4236 0.5960 0.4157
H10 H 0.3225 0.5896 0.3735
C19 C 0.3915(11) 0.707(2) 0.5333(9)
H11 H 0.3665 0.7711 0.5500
H12 H 0.4524 0.7192 0.5163
H13 H 0.3969 0.6589 0.5743
N1 N 0.3269(5) 0.6645(10) 0.4697(5)
O9 O 0.0285(3) 0.8001(3) 0.4724(2)
H21 H 0.0072 0.7569 0.5031
H22 H 0.0362 0.8601 0.4924
O10 O 0.1886(3) 0.6947(4) 0.4043(3)
O14 O 0.1395(3) 0.9169(3) 0.3860(2)
O15 O 0.1185(3) 0.7538(3) 0.2575(2)
O16 O 0.0686(2) 0.8510(3) 0.1584(2)
C15 C 0.8420(3) 0.0091(4) 0.6557(3)
O6 O 0.8605(3) 0.0831(3) 0.6140(2)
Zn4 Zn 0.99010(4) 0.05405(4) 0.77462(3)
Zn6 Zn 0.92944(4) 0.22045(4) 0.63660(3)
O12 O 0.9509(3) 0.0610(3) 0.1673(2)
C1 C 0.8018(4) 0.7956(4) 0.3191(3)
C2 C 0.7344(4) 0.7303(4) 0.2843(3)
H1 H 0.7349 0.7145 0.2334
C3 C 0.6665(4) 0.6889(4) 0.3256(3)
C4 C 0.6618(4) 0.7174(4) 0.4002(3)
H2 H 0.6144 0.6907 0.4269
C5 C 0.7277(4) 0.7859(4) 0.4361(3)
C6 C 0.7991(4) 0.8230(4) 0.3940(3)
H3 H 0.8451 0.8665 0.4167
C7 C 0.7241(4) 0.8163(4) 0.5158(3)
C8 C 0.7749(4) 0.9020(4) 0.5461(3)
H4 H 0.8074 0.9436 0.5148
C9 C 0.7769(4) 0.9248(4) 0.6219(3)
C10 C 0.7253(3) 0.8671(4) 0.6690(3)
H5 H 0.7274 0.8823 0.7201
C11 C 0.6706(4) 0.7866(4) 0.6389(3)
C12 C 0.6721(4) 0.7606(4) 0.5640(3)
H6 H 0.6373 0.7042 0.5451
C13 C 0.8753(4) 0.8396(4) 0.2738(3)
C14 C 0.5979(4) 0.6112(4) 0.2895(3)
C16 C 0.6148(4) 0.7232(4) 0.6897(3)
C20 C 0.9440(6) 0.5953(7) 0.3827(6)
H14 H 0.9491 0.6093 0.4341
C21 C 0.8721(8) 0.4914(10) 0.2816(8)
H15 H 0.9110 0.5339 0.2532
H16 H 0.8073 0.5024 0.2642
H17 H 0.8879 0.4203 0.2750
C22 C 0.8368(11) 0.4634(10) 0.4149(9)
H18 H 0.8580 0.4871 0.4646
H19 H 0.8484 0.3908 0.4114
H20 H 0.7706 0.4764 0.4050
N2 N 0.8872(5) 0.5178(5) 0.3599(6)
O1 O 0.8602(3) 0.8510(4) 0.2057(2)
O2 O 0.9538(2) 0.8697(3) 0.3101(2)
O3 O 0.5942(3) 0.5967(4) 0.2212(2)
O4 O 0.5491(3) 0.5610(3) 0.3327(2)
O5 O 0.8737(3) 0.9949(3) 0.7226(2)
O7 O 0.6185(3) 0.7462(3) 0.7575(2)
O8 O 0.5686(2) 0.6490(3) 0.6584(2)
O11 O 0.9891(3) 0.6490(3) 0.3455(3)
Zn3 Zn 0.49010(4) 0.44595(4) 0.27462(3)
Zn5 Zn 0.50990(4) 0.55405(4) 0.72538(3)
Zn7 Zn 0.57056(4) 0.72045(4) 0.86340(3)
Zn2_2 Zn 0.42944(4) 0.27955(4) 0.13660(3)
C1_2 C 0.6982(4) 0.2956(4) 0.1809(3)
C2_2 C 0.7656(4) 0.2303(4) 0.2157(3)
H1_2 H 0.7651 0.2145 0.2666
C3_2 C 0.8335(4) 0.1889(4) 0.1744(3)
C4_2 C 0.8382(4) 0.2174(4) 0.0998(3)
H2_2 H 0.8856 0.1907 0.0731
C5_2 C 0.7723(4) 0.2859(4) 0.0639(3)
C6_2 C 0.7009(4) 0.3230(4) 0.1060(3)
H3_2 H 0.6549 0.3665 0.0833
C13_2 C 0.6247(4) 0.3396(4) 0.2262(3)
C14_2 C 0.9021(4) 0.1112(4) 0.2105(3)
C17_2 C 0.2546(7) 0.2145(9) 0.0509(6)
H7_2 H 0.2646 0.2740 0.0237
C18_2 C 0.1419(10) 0.0861(15) 0.0782(10)
H8_2 H 0.1507 0.0197 0.0560
H9_2 H 0.0764 0.0960 0.0843
H10_2 H 0.1775 0.0896 0.1265
C20_2 C 0.5560(6) 0.0953(7) 0.1173(6)
H14_2 H 0.5509 0.1093 0.0659
H15_2 H 0.5890 0.0339 0.2468
H16_2 H 0.6927 0.0024 0.2358
N1_2 N 0.1731(5) 0.1645(10) 0.0303(5)
N2_2 N 0.6128(5) 0.0178(5) 0.1401(6)
O1_2 O 0.6398(3) 0.3510(4) 0.2943(2)
O2_2 O 0.5462(2) 0.3697(3) 0.1899(2)
O3_2 O 0.9058(3) 0.0967(4) 0.2788(2)
O9_2 O 0.4715(3) 0.3001(3) 0.0276(2)
H22_2 H 0.4638 0.3601 0.0076
O10_2 O 0.3114(3) 0.1947(4) 0.0957(3)
O11_2 O 0.5109(3) 0.1490(3) 0.1545(3)
O13_2 O 0.3737(3) 0.5051(3) 0.2226(2)
O14_2 O 0.3605(3) 0.4169(3) 0.1140(2)
O15_2 O 0.3815(3) 0.2538(3) 0.2425(2)
O16_2 O 0.4314(2) 0.3510(3) 0.3416(2)
C7_2 C 0.7759(4) 0.3163(4) 0.9842(3)
C8_2 C 0.7251(4) 0.4020(4) 0.9539(3)
H4_2 H 0.6926 0.4436 0.9852
C9_2 C 0.7231(4) 0.4248(4) 0.8781(3)
C10_2 C 0.7747(3) 0.3671(4) 0.8310(3)
H5_2 H 0.7726 0.3823 0.7799
C11_2 C 0.8294(4) 0.2866(4) 0.8611(3)
C12_2 C 0.8279(4) 0.2606(4) 0.9360(3)
H6_2 H 0.8627 0.2042 0.9549
C15_2 C 0.6580(3) 0.5091(4) 0.8443(3)
C16_2 C 0.8852(4) 0.2232(4) 0.8103(3)
C19_2 C 0.1085(11) 0.207(2) 0.9667(9)
H11_2 H 0.1335 0.2711 0.9500
H12_2 H 0.0476 0.2192 0.9837
H13_2 H 0.1031 0.1589 0.9257
O5_2 O 0.6263(3) 0.4949(3) 0.7774(2)
O6_2 O 0.6395(3) 0.5831(3) 0.8860(2)
O7_2 O 0.8815(3) 0.2462(3) 0.7425(2)
O8_2 O 0.9314(2) 0.1490(3) 0.8416(2)
H21_2 H 0.4928 0.2569 0.9969
C1_3 C 0.1982(4) 0.2044(4) 0.6809(3)
C2_3 C 0.2656(4) 0.2697(4) 0.7157(3)
H1_3 H 0.2651 0.2855 0.7666
C3_3 C 0.3335(4) 0.3111(4) 0.6744(3)
C4_3 C 0.3382(4) 0.2826(4) 0.5998(3)
H2_3 H 0.3856 0.3093 0.5731
C5_3 C 0.2723(4) 0.2141(4) 0.5639(3)
C6_3 C 0.2009(4) 0.1770(4) 0.6060(3)
H3_3 H 0.1549 0.1335 0.5833
C7_3 C 0.2759(4) 0.1837(4) 0.4842(3)
C8_3 C 0.2251(4) 0.0980(4) 0.4539(3)
H4_3 H 0.1926 0.0564 0.4852
C9_3 C 0.2231(4) 0.0752(4) 0.3781(3)
C10_3 C 0.2747(3) 0.1329(4) 0.3310(3)
H5_3 H 0.2726 0.1177 0.2799
C11_3 C 0.3294(4) 0.2134(4) 0.3611(3)
C12_3 C 0.3279(4) 0.2394(4) 0.4360(3)
H6_3 H 0.3627 0.2958 0.4549
C13_3 C 0.1247(4) 0.1604(4) 0.7262(3)
C14_3 C 0.4021(4) 0.3888(4) 0.7105(3)
C16_3 C 0.3852(4) 0.2768(4) 0.3103(3)
C20_3 C 0.0560(6) 0.4047(7) 0.6173(6)
H14_3 H 0.0509 0.3907 0.5659
C21_2 C 0.1279(8) 0.5086(10) 0.7184(8)
H15_3 H 0.0890 0.4661 0.7468
H16_3 H 0.1927 0.4976 0.7358
H17_2 H 0.1121 0.5797 0.7250
C22_2 C 0.1632(11) 0.5366(10) 0.5851(9)
H18_2 H 0.1420 0.5129 0.5354
H19_2 H 0.1516 0.6092 0.5886
H20_2 H 0.2294 0.5236 0.5950
N2_3 N 0.1128(5) 0.4822(5) 0.6401(6)
O1_3 O 0.1398(3) 0.1490(4) 0.7943(2)
O2_3 O 0.0462(2) 0.1303(3) 0.6899(2)
O3_3 O 0.4058(3) 0.4033(4) 0.7788(2)
O4_2 O 0.4509(3) 0.4390(3) 0.6673(2)
O11_3 O 0.0109(3) 0.3510(3) 0.6545(3)
C15_3 C 0.1580(3) 0.9909(4) 0.3443(3)
O12_2 O 0.0491(3) 0.9390(3) 0.8327(2)
C17_3 C 0.7546(7) 0.2855(9) 0.5509(6)
H7_3 H 0.7646 0.2260 0.5237
C18_3 C 0.6419(10) 0.4139(15) 0.5782(10)
H8_3 H 0.6507 0.4803 0.5560
H9_3 H 0.5764 0.4040 0.5843
H10_3 H 0.6775 0.4104 0.6265
C19_3 C 0.6085(11) 0.293(2) 0.4667(9)
H11_3 H 0.6335 0.2289 0.4500
H12_3 H 0.5476 0.2808 0.4837
H13_3 H 0.6031 0.3411 0.4257
N1_3 N 0.6731(5) 0.3355(10) 0.5303(5)
O9_3 O 0.9715(3) 0.1999(3) 0.5276(2)
H21_3 H 0.9928 0.2431 0.4969
H22_3 H 0.9638 0.1399 0.5076
O10_3 O 0.8114(3) 0.3053(4) 0.5957(3)
C7_4 C 0.2241(4) 0.6837(4) 0.0158(3)
C8_4 C 0.2749(4) 0.5980(4) 0.0461(3)
H4_4 H 0.3074 0.5564 0.0148
C9_4 C 0.2769(4) 0.5752(4) 0.1219(3)
C10_4 C 0.2253(3) 0.6329(4) 0.1690(3)
H5_4 H 0.2274 0.6177 0.2201
C11_4 C 0.1706(4) 0.7134(4) 0.1389(3)
C12_4 C 0.1721(4) 0.7394(4) 0.0640(3)
H6_4 H 0.1373 0.7958 0.0451
C15_4 C 0.3420(3) 0.4909(4) 0.1557(3)
C16_4 C 0.1148(4) 0.7768(4) 0.1897(3)
C19_4 C 0.8915(11) 0.793(2) 0.0333(9)
H11_4 H 0.8665 0.7289 0.0500
H12_4 H 0.9524 0.7808 0.0163
H13_4 H 0.8969 0.8411 0.0743
H21_4 H 0.5072 0.7431 0.0031
C1_4 C 0.3018(4) 0.7044(4) 0.8191(3)
C2_4 C 0.2344(4) 0.7697(4) 0.7843(3)
H1_4 H 0.2349 0.7855 0.7334
C3_4 C 0.1665(4) 0.8111(4) 0.8256(3)
C4_4 C 0.1618(4) 0.7826(4) 0.9002(3)
H2_4 H 0.1144 0.8093 0.9269
C5_4 C 0.2277(4) 0.7141(4) 0.9361(3)
C6_4 C 0.2991(4) 0.6770(4) 0.8940(3)
H3_4 H 0.3451 0.6335 0.9167
C13_4 C 0.3753(4) 0.6604(4) 0.7738(3)
C14_4 C 0.0979(4) 0.8888(4) 0.7895(3)
C17_4 C 0.7454(7) 0.7855(9) 0.9491(6)
H7_4 H 0.7354 0.7260 0.9763
C18_4 C 0.8581(10) 0.9139(15) 0.9218(10)
H8_4 H 0.8493 0.9803 0.9440
H9_4 H 0.9236 0.9040 0.9157
H10_4 H 0.8225 0.9104 0.8735
C20_4 C 0.4440(6) 0.9047(7) 0.8827(6)
H14_4 H 0.4491 0.8907 0.9341
H15_4 H 0.4110 0.9661 0.7532
H16_4 H 0.3073 0.9976 0.7642
N1_4 N 0.8269(5) 0.8355(10) 0.9697(5)
N2_4 N 0.3872(5) 0.9822(5) 0.8599(6)
O1_4 O 0.3602(3) 0.6490(4) 0.7057(2)
O2_4 O 0.4538(2) 0.6303(3) 0.8101(2)
O3_4 O 0.0942(3) 0.9033(4) 0.7212(2)
O9_4 O 0.5285(3) 0.6999(3) 0.9724(2)
H22_4 H 0.5362 0.6399 0.9924
O10_4 O 0.6886(3) 0.8053(4) 0.9043(3)
O11_4 O 0.4891(3) 0.8510(3) 0.8455(3)
C21_3 C 0.6279(8) 0.9914(10) 0.2184(8)
H17_3 H 0.6121 0.9203 0.2250
C22_3 C 0.6632(11) 0.9634(10) 0.0851(9)
H18_3 H 0.6420 0.9871 0.0354
H19_3 H 0.6516 0.8908 0.0886
H20_3 H 0.7294 0.9764 0.0950
C21_4 C 0.3721(8) 0.0086(10) 0.7816(8)
H17_4 H 0.3879 0.0797 0.7750
C22_4 C 0.3368(11) 0.0366(10) 0.9149(9)
H18_4 H 0.3580 0.0129 0.9646
H19_4 H 0.3484 0.1092 0.9114
H20_4 H 0.2706 0.0236 0.9050
loop_
_geom_bond_atom_site_label_1
_geom_bond_atom_site_label_2
_geom_bond_site_symmetry_1
_geom_bond_site_symmetry_2
C17 H7 1_555 1_555
C18 H8 1_555 1_555
H9 C18 1_555 1_555
H10 C18 1_555 1_555
C19 H11 1_555 1_555
H12 C19 1_555 1_555
H13 C19 1_555 1_555
N1 C17 1_555 1_555
O9 Zn2 1_555 1_555
H21 O9 1_555 1_555
H22 O9 1_555 1_555
O10 Zn2 1_555 1_555
O14 Zn2 1_555 1_555
O15 Zn2 1_555 1_555
O16 Zn1 1_555 1_555
C17 O10 1_555 1_555
C18 N1 1_555 1_555
C19 N1 1_555 1_555
O6 C15 1_555 1_555
Zn6 O6 1_555 1_555
C1 C2 1_555 1_555
C2 H1 1_555 1_555
C3 C2 1_555 1_555
C4 C3 1_555 1_555
H2 C4 1_555 1_555
C5 C4 1_555 1_555
C6 C1 1_555 1_555
H3 C6 1_555 1_555
C7 C5 1_555 1_555
C8 C7 1_555 1_555
H4 C8 1_555 1_555
C9 C8 1_555 1_555
C10 C9 1_555 1_555
H5 C10 1_555 1_555
C11 C10 1_555 1_555
C12 C7 1_555 1_555
H6 C12 1_555 1_555
C13 C1 1_555 1_555
C14 C3 1_555 1_555
C16 C11 1_555 1_555
C20 H14 1_555 1_555
C21 H15 1_555 1_555
H16 C21 1_555 1_555
H17 C21 1_555 1_555
C22 H18 1_555 1_555
H19 C22 1_555 1_555
H20 C22 1_555 1_555
N2 C20 1_555 1_555
O1 C13 1_555 1_555
O3 C14 1_555 1_555
O4 C14 1_555 1_555
O7 C16 1_555 1_555
O8 C16 1_555 1_555
Zn3 O4 1_555 1_555
Zn5 O8 1_555 1_555
Zn7 O7 1_555 1_555
C5 C6 1_555 1_555
C11 C12 1_555 1_555
C13 O2 1_555 1_555
C20 O11 1_555 1_555
C21 N2 1_555 1_555
C22 N2 1_555 1_555
Zn3 O1_2 1_555 1_555
Zn2_2 O2_2 1_555 1_555
C1_2 C2_2 1_555 1_555
C2_2 H1_2 1_555 1_555
C3_2 C2_2 1_555 1_555
C4_2 C3_2 1_555 1_555
H2_2 C4_2 1_555 1_555
C5_2 C4_2 1_555 1_555
C6_2 C1_2 1_555 1_555
H3_2 C6_2 1_555 1_555
C13_2 C1_2 1_555 1_555
C14_2 C3_2 1_555 1_555
C17_2 H7_2 1_555 1_555
C18_2 H8_2 1_555 1_555
H9_2 C18_2 1_555 1_555
H10_2 C18_2 1_555 1_555
C20_2 H14_2 1_555 1_555
N1_2 C17_2 1_555 1_555
N2_2 C20_2 1_555 1_555
O1_2 C13_2 1_555 1_555
O2_2 Zn3 1_555 1_555
O3_2 C14_2 1_555 1_555
O12 C14_2 1_555 1_555
O9_2 Zn2_2 1_555 1_555
H22_2 O9_2 1_555 1_555
O10_2 Zn2_2 1_555 1_555
O11_2 Zn2_2 1_555 1_555
O13_2 Zn3 1_555 1_555
O14_2 Zn2_2 1_555 1_555
O15_2 Zn2_2 1_555 1_555
O16_2 Zn3 1_555 1_555
C5_2 C6_2 1_555 1_555
C13_2 O2_2 1_555 1_555
C17_2 O10_2 1_555 1_555
C18_2 N1_2 1_555 1_555
C20_2 O11_2 1_555 1_555
C8_2 C7_2 1_555 1_555
H4_2 C8_2 1_555 1_555
C9_2 C8_2 1_555 1_555
C10_2 C9_2 1_555 1_555
H5_2 C10_2 1_555 1_555
C11_2 C10_2 1_555 1_555
C12_2 C7_2 1_555 1_555
H6_2 C12_2 1_555 1_555
C15_2 C9_2 1_555 1_555
C16_2 C11_2 1_555 1_555
C19_2 H11_2 1_555 1_555
H12_2 C19_2 1_555 1_555
H13_2 C19_2 1_555 1_555
O5_2 C15_2 1_555 1_555
O6_2 C15_2 1_555 1_555
O7_2 C16_2 1_555 1_555
O8_2 C16_2 1_555 1_555
Zn5 O5_2 1_555 1_555
Zn4 O8_2 1_555 1_555
Zn7 O6_2 1_555 1_555
Zn6 O7_2 1_555 1_555
C11_2 C12_2 1_555 1_555
C1_3 C2_3 1_555 1_555
C2_3 H1_3 1_555 1_555
C3_3 C2_3 1_555 1_555
C4_3 C3_3 1_555 1_555
H2_3 C4_3 1_555 1_555
C5_3 C4_3 1_555 1_555
C6_3 C1_3 1_555 1_555
H3_3 C6_3 1_555 1_555
C7_3 C5_3 1_555 1_555
C8_3 C7_3 1_555 1_555
H4_3 C8_3 1_555 1_555
C9_3 C8_3 1_555 1_555
C10_3 C9_3 1_555 1_555
H5_3 C10_3 1_555 1_555
C11_3 C10_3 1_555 1_555
C12_3 C7_3 1_555 1_555
H6_3 C12_3 1_555 1_555
C13_3 C1_3 1_555 1_555
C14_3 C3_3 1_555 1_555
C16_3 C11_3 1_555 1_555
C20_3 H14_3 1_555 1_555
C21_2 H15_3 1_555 1_555
H16_3 C21_2 1_555 1_555
H17_2 C21_2 1_555 1_555
C22_2 H18_2 1_555 1_555
H19_2 C22_2 1_555 1_555
H20_2 C22_2 1_555 1_555
N2_3 C20_3 1_555 1_555
O1_3 C13_3 1_555 1_555
O3_3 C14_3 1_555 1_555
O4_2 C14_3 1_555 1_555
O15_2 C16_3 1_555 1_555
O16_2 C16_3 1_555 1_555
Zn5 O4_2 1_555 1_555
C5_3 C6_3 1_555 1_555
C11_3 C12_3 1_555 1_555
C13_3 O2_3 1_555 1_555
C20_3 O11_3 1_555 1_555
C21_2 N2_3 1_555 1_555
C22_2 N2_3 1_555 1_555
O14 C15_3 1_555 1_555
C17_3 H7_3 1_555 1_555
C18_3 H8_3 1_555 1_555
H9_3 C18_3 1_555 1_555
H10_3 C18_3 1_555 1_555
C19_3 H11_3 1_555 1_555
H12_3 C19_3 1_555 1_555
H13_3 C19_3 1_555 1_555
N1_3 C17_3 1_555 1_555
O9_3 Zn6 1_555 1_555
H21_3 O9_3 1_555 1_555
H22_3 O9_3 1_555 1_555
O10_3 Zn6 1_555 1_555
C17_3 O10_3 1_555 1_555
C18_3 N1_3 1_555 1_555
C19_3 N1_3 1_555 1_555
C8_4 C7_4 1_555 1_555
H4_4 C8_4 1_555 1_555
C9_4 C8_4 1_555 1_555
C10_4 C9_4 1_555 1_555
H5_4 C10_4 1_555 1_555
C11_4 C10_4 1_555 1_555
C12_4 C7_4 1_555 1_555
H6_4 C12_4 1_555 1_555
C15_4 C9_4 1_555 1_555
C16_4 C11_4 1_555 1_555
C19_4 H11_4 1_555 1_555
H12_4 C19_4 1_555 1_555
H13_4 C19_4 1_555 1_555
O13_2 C15_4 1_555 1_555
O14_2 C15_4 1_555 1_555
O15 C16_4 1_555 1_555
O16 C16_4 1_555 1_555
C11_4 C12_4 1_555 1_555
Zn5 O1_4 1_555 1_555
Zn7 O2_4 1_555 1_555
C1_4 C2_4 1_555 1_555
C2_4 H1_4 1_555 1_555
C3_4 C2_4 1_555 1_555
C4_4 C3_4 1_555 1_555
H2_4 C4_4 1_555 1_555
C5_4 C4_4 1_555 1_555
C6_4 C1_4 1_555 1_555
H3_4 C6_4 1_555 1_555
C13_4 C1_4 1_555 1_555
C14_4 C3_4 1_555 1_555
C17_4 H7_4 1_555 1_555
C18_4 H8_4 1_555 1_555
H9_4 C18_4 1_555 1_555
H10_4 C18_4 1_555 1_555
C20_4 H14_4 1_555 1_555
N1_4 C17_4 1_555 1_555
N2_4 C20_4 1_555 1_555
O1_4 C13_4 1_555 1_555
O2_4 Zn5 1_555 1_555
O3_4 C14_4 1_555 1_555
O12_2 C14_4 1_555 1_555
O9_4 Zn7 1_555 1_555
H22_4 O9_4 1_555 1_555
O10_4 Zn7 1_555 1_555
O11_4 Zn7 1_555 1_555
C5_4 C6_4 1_555 1_555
C13_4 O2_4 1_555 1_555
C17_4 O10_4 1_555 1_555
C18_4 N1_4 1_555 1_555
C20_4 O11_4 1_555 1_555
H17_3 C21_3 1_555 1_555
C22_3 H18_3 1_555 1_555
H19_3 C22_3 1_555 1_555
H20_3 C22_3 1_555 1_555
H17_4 C21_4 1_555 1_555
C22_4 H18_4 1_555 1_555
H19_4 C22_4 1_555 1_555
H20_4 C22_4 1_555 1_555

#END
