
###############################################################################
#
# This file contains modified crystal structure data generated from the
# MOF subset of the Cambridge Structural Database (CSD) v543 
# hosted by the Cambridge Crystallographic Data Centre (CCDC).
#
# This work is licensed under the Creative Commons
# Attribution-NonCommercial-ShareAlike 4.0 International License.
# To view a copy of this license, visit
# http://creativecommons.org/licenses/by-nc-sa/4.0/
# or send a letter to
# Creative Commons, PO Box 1866, Mountain View, CA 94042, USA.
#
# CIF created using the CSD Python API on 29 September 2022
# The structure has been converted into the P1 space group
# The structure has a 3D framework
# The original CSD entry MOMRIR is in the monoclinic crystal system
# The framework has been calculated to contain at least 10.0% void space
# The void calculation uses a probe of radius 1.32A, grid spacing 0.4
#
###############################################################################

data_MOMRIR
_chemical_formula_moiety         '(C304 H360 N60 O136 Zn38)n'
_symmetry_cell_setting           triclinic
_symmetry_space_group_name_H-M   'P 1'
_symmetry_Int_Tables_number      1
_space_group_name_Hall           'P 1'
loop_
_symmetry_equiv_pos_site_id
_symmetry_equiv_pos_as_xyz
1 x,y,z
_cell_length_a                   39.074(4)
_cell_length_b                   9.9645(8)
_cell_length_c                   38.846(3)
_cell_angle_alpha                90
_cell_angle_beta                 136.438(4)
_cell_angle_gamma                90
_cell_volume                     10423.1
loop_
_atom_site_label
_atom_site_type_symbol
_atom_site_fract_x
_atom_site_fract_y
_atom_site_fract_z
N4 N 0.4419(3) 0.0741(6) 0.2692(3)
H11 H 0.4328 0.1412 0.2502
H12 H 0.4588 0.0872 0.3000
Zn11 Zn 0.38484(3) 0.20435(8) 0.25416(4)
Zn1 Zn 0.2500 0.2500 0.0000
C1 C 0.3651(3) 0.2274(8) 0.0900(3)
N1 N 0.2221(3) 0.3460(8) 0.0472(3)
H2 H 0.1928 0.3394 0.0172
Zn2 Zn 0.32502(3) 0.31988(9) 0.13035(4)
O2 O 0.3258(2) 0.2409(6) 0.0443(2)
N2 N 0.0570(2) 0.3368(7) 0.0472(3)
H3 H 0.0592 0.3672 0.0694
H4 H 0.0292 0.3057 0.0195
C2 C 0.4111(4) 0.1870(18) 0.1040(5)
H5 H 0.4065 0.0991 0.0911
H6 H 0.4390 0.1862 0.1397
H7 H 0.4171 0.2501 0.0902
N3 N 0.3970(2) 0.4443(6) 0.2232(3)
H8 H 0.4178 0.4612 0.2546
O3 O 0.3693(2) 0.2443(7) 0.1249(2)
Zn4 Zn 0.44640(3) 0.08808(8) 0.37755(4)
O4 O 0.26284(19) 0.3437(6) 0.0555(2)
Zn5 Zn 0.0000 0.5000 0.0000
O5 O 0.2701(2) 0.3741(6) 0.1283(2)
C5 C 0.2275(3) 0.3579(8) 0.0843(3)
O6 O 0.38050(19) 0.3158(5) 0.2065(2)
C6 C 0.1820(3) 0.3522(9) 0.0732(4)
O7 O 0.3531(2) 0.5176(5) 0.1467(2)
C7 C 0.1373(3) 0.2981(11) 0.0291(4)
H20 H 0.1352 0.2652 0.0052
O8 O 0.3021(2) 0.1174(6) 0.1263(2)
C8 C 0.0989(3) 0.3379(8) 0.0561(3)
O9 O 0.3227(2) 0.0814(5) 0.1952(2)
C9 C 0.1431(3) 0.3875(11) 0.1003(4)
H23 H 0.1455 0.4177 0.1246
O10 O 0.4447(2) 0.3290(5) 0.3128(2)
C10 C 0.1842(3) 0.3930(11) 0.1089(4)
H24 H 0.2141 0.4249 0.1394
O11 O 0.4694(2) 0.2803(6) 0.3839(3)
C11 C 0.3818(3) 0.5414(8) 0.1923(3)
O12 O 0.38959(19) 0.0905(5) 0.3018(2)
C12 C 0.4006(3) 0.6787(8) 0.2137(3)
C13 C 0.4277(4) 0.7073(8) 0.2622(4)
H25 H 0.4372 0.6372 0.2836
O14 O 0.50175(19) 0.0253(5) 0.4496(2)
C14 C 0.4414(3) 0.8364(9) 0.2807(4)
H26 H 0.4588 0.8529 0.3136
O15 O 0.5013(2) 0.0085(6) 0.3823(3)
C15 C 0.4290(3) 0.9419(7) 0.2498(4)
O16 O 0.4021(2) 0.1620(6) 0.3847(2)
C16 C 0.4024(4) 0.9155(8) 0.2015(4)
H27 H 0.3937 0.9855 0.1805
O17 O 0.4442(2) 0.1496(6) 0.4646(3)
C17 C 0.3878(3) 0.7834(8) 0.1828(4)
H28 H 0.3696 0.7666 0.1496
C18 C 0.2952(3) 0.0666(9) 0.1500(3)
H31 H 0.2221 0.0203 0.0923
C20 C 0.4705(3) 0.3497(8) 0.3581(4)
C21 C 0.5042(4) 0.4693(10) 0.3824(4)
H32 H 0.4887 0.5420 0.3832
H33 H 0.5106 0.4958 0.3637
H34 H 0.5350 0.4466 0.4159
C36 C 0.4086(3) 0.1884(9) 0.4200(4)
C37 C 0.3707(6) 0.2786(18) 0.4108(6)
H43 H 0.3876 0.3521 0.4339
H44 H 0.3534 0.2273 0.4154
H45 H 0.3472 0.3127 0.3772
C38 C 0.0961(3) 0.2922(10) 0.0201(4)
O34 O 0.2536(2) 0.0638(5) 0.0318(3)
H87 H 0.2565 0.0623 0.0557
Zn15 Zn 0.5000 -0.0000 0.5000
N19 N 0.3268(2) 0.3341(6) 0.2375(3)
O39 O 0.0558(2) 0.6496(6) 0.0354(3)
Zn1_2 Zn 0.2500 0.2500 1.0000
O1 O 0.2464(2) 0.4362(5) 0.9682(3)
H1 H 0.2435 0.4377 0.9443
C3 C 0.2219(8) 0.5536(11) 0.9646(8)
H9 H 0.2352 0.5716 0.9971
H10 H 0.1867 0.5353 0.9414
C4 C 0.2289(7) 0.6773(15) 0.9472(6)
H13 H 0.2636 0.6988 0.9711
H14 H 0.2112 0.7516 0.9442
H15 H 0.2164 0.6594 0.9154
Zn5_2 Zn 0.0000 0.5000 1.0000
H46 H 0.0663 0.2579 0.9900
O35 O 0.1742(2) 0.2591(6) 0.9557(2)
O36 O 0.23716(19) 0.1563(6) 0.9445(2)
O38 O 0.00175(19) 0.4747(5) 0.9496(2)
N5 N 0.3684(2) 0.9661(6) 0.2830(3)
H16 H 0.3454 0.9536 0.2512
H17 H 0.3089 0.3191 0.2065
H18 H 0.3383 0.2681 0.2577
N7 N 0.5326(3) 0.9399(7) 0.4546(3)
H19 H 0.5530 0.8895 0.4805
N8 N 0.6444(4) 0.5449(11) 0.4306(5)
H21 H 0.6398 0.5335 0.4055
H22 H 0.6652 0.4950 0.4566
O13 O 0.4141(2) 0.8864(5) 0.3601(2)
C19 C 0.2510(5) 0.9784(16) 0.1231(6)
H29 H 0.2459 0.9646 0.1436
H30 H 0.2565 0.8935 0.1161
C22 C 0.3827(3) 0.8665(7) 0.3129(3)
C23 C 0.3631(3) 0.7312(7) 0.2914(3)
C24 C 0.3320(3) 0.7048(7) 0.2417(4)
H35 H 0.3190 0.7759 0.2196
C25 C 0.3193(3) 0.5745(7) 0.2234(3)
H36 H 0.2985 0.5592 0.1896
C26 C 0.3375(3) 0.4679(7) 0.2553(3)
C27 C 0.3663(3) 0.4931(8) 0.3049(3)
H37 H 0.3773 0.4224 0.3265
C28 C 0.3790(3) 0.6237(8) 0.3225(3)
H38 H 0.3987 0.6395 0.3561
C29 C 0.5309(3) 0.9355(8) 0.4189(3)
C30 C 0.5639(3) 0.8372(9) 0.4255(4)
C31 C 0.5602(4) 0.8209(11) 0.3879(4)
H39 H 0.5395 0.8785 0.3606
C32 C 0.5856(4) 0.7231(10) 0.3887(4)
H40 H 0.5801 0.7121 0.3612
C33 C 0.6186(4) 0.6427(10) 0.4291(4)
C34 C 0.6240(5) 0.6557(13) 0.4694(5)
H41 H 0.6458 0.6004 0.4973
C35 C 0.5964(5) 0.7521(13) 0.4663(5)
H42 H 0.5996 0.7601 0.4924
C75 C 0.2781(8) 0.9464(11) 0.0354(8)
H88 H 0.2648 0.9284 0.0029
H89 H 0.3133 0.9647 0.0586
C76 C 0.2711(7) 0.8227(15) 0.0528(6)
H90 H 0.2364 0.8012 0.0289
H91 H 0.2888 0.7484 0.0558
H92 H 0.2836 0.8406 0.0846
Zn15_2 Zn 0.5000 1.0000 0.5000
N13 N 0.6316(2) 0.0339(6) 0.7170(3)
H56 H 0.6546 0.0464 0.7488
N14 N 0.6732(2) 0.6659(6) 0.7625(3)
H57 H 0.6911 0.6809 0.7935
H58 H 0.6617 0.7319 0.7423
N15 N 0.4674(3) 0.0601(7) 0.5454(3)
H59 H 0.4470 0.1105 0.5195
N16 N 0.3556(4) 0.4551(11) 0.5694(5)
H61 H 0.3602 0.4665 0.5945
H62 H 0.3348 0.5050 0.5434
O29 O 0.5859(2) 0.1136(5) 0.6399(2)
C55 C 0.7490(5) 0.0216(16) 0.8769(6)
H69 H 0.7541 0.0354 0.8564
H70 H 0.7435 0.1065 0.8839
C58 C 0.6173(3) 0.1335(7) 0.6871(3)
C59 C 0.6369(3) 0.2688(7) 0.7086(3)
C60 C 0.6680(3) 0.2952(7) 0.7583(4)
H75 H 0.6810 0.2241 0.7804
C61 C 0.6807(3) 0.4255(7) 0.7766(3)
H76 H 0.7015 0.4408 0.8104
C62 C 0.6625(3) 0.5321(7) 0.7447(3)
C63 C 0.6337(3) 0.5069(8) 0.6951(3)
H77 H 0.6227 0.5776 0.6735
C64 C 0.6210(3) 0.3763(8) 0.6775(3)
H78 H 0.6013 0.3605 0.6439
C65 C 0.4691(3) 0.0645(8) 0.5811(3)
C66 C 0.4361(3) 0.1628(9) 0.5745(4)
C67 C 0.4398(4) 0.1791(11) 0.6121(4)
H79 H 0.4605 0.1215 0.6394
C68 C 0.4144(4) 0.2769(10) 0.6113(4)
H80 H 0.4199 0.2879 0.6388
C69 C 0.3814(4) 0.3573(10) 0.5709(4)
C70 C 0.3760(5) 0.3443(13) 0.5306(5)
H81 H 0.3542 0.3996 0.5027
C71 C 0.4036(5) 0.2479(13) 0.5337(5)
H82 H 0.4004 0.2399 0.5076
Zn13 Zn 0.61516(3) 0.79565(8) 0.74584(4)
Zn5_3 Zn 1.0000 0.5000 0.0000
H86 H 0.9337 0.7421 0.0100
Zn9 Zn 0.7500 0.7500 0.0000
O37 O 0.99825(19) 0.5253(5) 0.0504(2)
Zn5_4 Zn 1.0000 0.5000 1.0000
C39 C 0.6349(3) 0.7726(8) 0.9100(3)
N9 N 0.7779(3) 0.6540(8) 0.9528(3)
H47 H 0.8072 0.6606 0.9828
Zn6 Zn 0.67498(3) 0.68012(9) 0.86965(4)
O18 O 0.6742(2) 0.7591(6) 0.9557(2)
N10 N 0.9430(2) 0.6632(7) 0.9528(3)
H48 H 0.9408 0.6328 0.9306
H49 H 0.9708 0.6943 0.9805
C40 C 0.5889(4) 0.8130(18) 0.8960(5)
H50 H 0.5935 0.9009 0.9089
H51 H 0.5610 0.8138 0.8603
H52 H 0.5829 0.7499 0.9098
N11 N 0.6030(2) 0.5557(6) 0.7768(3)
H53 H 0.5822 0.5388 0.7454
O19 O 0.6307(2) 0.7557(7) 0.8751(2)
Zn8 Zn 0.55360(3) 0.91192(8) 0.62245(4)
O20 O 0.73716(19) 0.6563(6) 0.9445(2)
O21 O 0.7299(2) 0.6259(6) 0.8717(2)
C41 C 0.7725(3) 0.6421(8) 0.9157(3)
O22 O 0.61950(19) 0.6842(5) 0.7935(2)
C42 C 0.8180(3) 0.6478(9) 0.9268(4)
O23 O 0.6469(2) 0.4824(5) 0.8533(2)
C43 C 0.8627(3) 0.7019(11) 0.9709(4)
H60 H 0.8648 0.7348 0.9948
O24 O 0.6979(2) 0.8826(6) 0.8737(2)
C44 C 0.9011(3) 0.6621(8) 0.9439(3)
O25 O 0.6773(2) 0.9186(5) 0.8048(2)
C45 C 0.8569(3) 0.6125(11) 0.8997(4)
H63 H 0.8545 0.5823 0.8754
O26 O 0.5553(2) 0.6710(5) 0.6872(2)
C46 C 0.8158(3) 0.6070(11) 0.8911(4)
H64 H 0.7859 0.5751 0.8606
O27 O 0.5306(2) 0.7197(6) 0.6161(3)
C47 C 0.6182(3) 0.4586(8) 0.8077(3)
O28 O 0.61041(19) 0.9095(5) 0.6982(2)
C48 C 0.5994(3) 0.3213(8) 0.7863(3)
C49 C 0.5723(4) 0.2927(8) 0.7378(4)
H65 H 0.5628 0.3628 0.7164
O30 O 0.49825(19) 0.9747(5) 0.5504(2)
C50 C 0.5586(3) 0.1636(9) 0.7193(4)
H66 H 0.5412 0.1471 0.6864
O31 O 0.4987(2) 0.9915(6) 0.6177(3)
C51 C 0.5710(3) 0.0581(7) 0.7502(4)
O32 O 0.5979(2) 0.8380(6) 0.6153(2)
C52 C 0.5976(4) 0.0845(8) 0.7985(4)
H67 H 0.6063 0.0145 0.8195
O33 O 0.5558(2) 0.8504(6) 0.5354(3)
C53 C 0.6122(3) 0.2166(8) 0.8172(4)
H68 H 0.6304 0.2334 0.8504
C54 C 0.7048(3) 0.9334(9) 0.8500(3)
H71 H 0.7779 0.9797 0.9077
C56 C 0.5295(3) 0.6503(8) 0.6419(4)
C57 C 0.4958(4) 0.5307(10) 0.6176(4)
H72 H 0.5113 0.4580 0.6168
H73 H 0.4894 0.5042 0.6363
H74 H 0.4650 0.5534 0.5841
C72 C 0.5914(3) 0.8116(9) 0.5800(4)
C73 C 0.6293(6) 0.7214(18) 0.5892(6)
H83 H 0.6124 0.6479 0.5661
H84 H 0.6466 0.7727 0.5846
H85 H 0.6528 0.6873 0.6228
C74 C 0.9039(3) 0.7078(10) 0.9799(4)
Zn9_2 Zn 0.7500 0.7500 1.0000
N18 N 0.5581(3) 0.9259(6) 0.7308(3)
O40 O 0.9442(2) 0.3504(6) 0.9646(3)
H54 H 0.5672 0.8588 0.7498
H55 H 0.5412 0.9128 0.7000
Zn14 Zn 0.5000 -0.0000 0.0000
N13_2 N 0.3684(2) 0.0339(6) 0.7830(3)
H56_2 H 0.3454 0.0464 0.7512
N14_2 N 0.3268(2) 0.6659(6) 0.7375(3)
H57_2 H 0.3089 0.6809 0.7065
H58_2 H 0.3383 0.7319 0.7577
N15_2 N 0.5326(3) 0.0601(7) 0.9546(3)
H59_2 H 0.5530 0.1105 0.9805
N16_2 N 0.6444(4) 0.4551(11) 0.9306(5)
H61_2 H 0.6398 0.4665 0.9055
H62_2 H 0.6652 0.5050 0.9566
O29_2 O 0.4141(2) 0.1136(5) 0.8601(2)
C55_2 C 0.2510(5) 0.0216(16) 0.6231(6)
H69_2 H 0.2459 0.0354 0.6436
H70_2 H 0.2565 0.1065 0.6161
C58_2 C 0.3827(3) 0.1335(7) 0.8129(3)
C59_2 C 0.3631(3) 0.2688(7) 0.7914(3)
C60_2 C 0.3320(3) 0.2952(7) 0.7417(4)
H75_2 H 0.3190 0.2241 0.7196
C61_2 C 0.3193(3) 0.4255(7) 0.7234(3)
H76_2 H 0.2985 0.4408 0.6896
C62_2 C 0.3375(3) 0.5321(7) 0.7553(3)
C63_2 C 0.3663(3) 0.5069(8) 0.8049(3)
H77_2 H 0.3773 0.5776 0.8265
C64_2 C 0.3790(3) 0.3763(8) 0.8225(3)
H78_2 H 0.3987 0.3605 0.8561
C65_2 C 0.5309(3) 0.0645(8) 0.9189(3)
C66_2 C 0.5639(3) 0.1628(9) 0.9255(4)
C67_2 C 0.5602(4) 0.1791(11) 0.8879(4)
H79_2 H 0.5395 0.1215 0.8606
C68_2 C 0.5856(4) 0.2769(10) 0.8887(4)
H80_2 H 0.5801 0.2879 0.8612
C69_2 C 0.6186(4) 0.3573(10) 0.9291(4)
C70_2 C 0.6240(5) 0.3443(13) 0.9694(5)
H81_2 H 0.6458 0.3996 0.9973
C71_2 C 0.5964(5) 0.2479(13) 0.9663(5)
H82_2 H 0.5996 0.2399 0.9924
Zn13_2 Zn 0.38484(3) 0.79565(8) 0.75416(4)
Zn14_2 Zn 0.5000 -0.0000 1.0000
Zn14_3 Zn 0.5000 1.0000 0.0000
Zn5_5 Zn 0.0000 0.5000 0.5000
C39_2 C 0.3651(3) 0.7726(8) 0.5900(3)
N9_2 N 0.2221(3) 0.6540(8) 0.5472(3)
H47_2 H 0.1928 0.6606 0.5172
Zn6_2 Zn 0.32502(3) 0.68012(9) 0.63035(4)
O18_2 O 0.3258(2) 0.7591(6) 0.5443(2)
N10_2 N 0.0570(2) 0.6632(7) 0.5472(3)
H48_2 H 0.0592 0.6328 0.5694
H49_2 H 0.0292 0.6943 0.5195
C40_2 C 0.4111(4) 0.8130(18) 0.6040(5)
H50_2 H 0.4065 0.9009 0.5911
H51_2 H 0.4390 0.8138 0.6397
H52_2 H 0.4171 0.7499 0.5902
N11_2 N 0.3970(2) 0.5557(6) 0.7232(3)
H53_2 H 0.4178 0.5388 0.7546
O19_2 O 0.3693(2) 0.7557(7) 0.6249(2)
Zn8_2 Zn 0.44640(3) 0.91192(8) 0.87755(4)
O20_2 O 0.26284(19) 0.6563(6) 0.5555(2)
O21_2 O 0.2701(2) 0.6259(6) 0.6283(2)
C41_2 C 0.2275(3) 0.6421(8) 0.5843(3)
O22_2 O 0.38050(19) 0.6842(5) 0.7065(2)
C42_2 C 0.1820(3) 0.6478(9) 0.5732(4)
O23_2 O 0.3531(2) 0.4824(5) 0.6467(2)
C43_2 C 0.1373(3) 0.7019(11) 0.5291(4)
H60_2 H 0.1352 0.7348 0.5052
O24_2 O 0.3021(2) 0.8826(6) 0.6263(2)
C44_2 C 0.0989(3) 0.6621(8) 0.5561(3)
O25_2 O 0.3227(2) 0.9186(5) 0.6952(2)
C45_2 C 0.1431(3) 0.6125(11) 0.6003(4)
H63_2 H 0.1455 0.5823 0.6246
O26_2 O 0.4447(2) 0.6710(5) 0.8128(2)
C46_2 C 0.1842(3) 0.6070(11) 0.6089(4)
H64_2 H 0.2141 0.5751 0.6394
O27_2 O 0.4694(2) 0.7197(6) 0.8839(3)
C47_2 C 0.3818(3) 0.4586(8) 0.6923(3)
O28_2 O 0.38959(19) 0.9095(5) 0.8018(2)
C48_2 C 0.4006(3) 0.3213(8) 0.7137(3)
C49_2 C 0.4277(4) 0.2927(8) 0.7622(4)
H65_2 H 0.4372 0.3628 0.7836
O30_2 O 0.50175(19) 0.9747(5) 0.9496(2)
C50_2 C 0.4414(3) 0.1636(9) 0.7807(4)
H66_2 H 0.4588 0.1471 0.8136
O31_2 O 0.5013(2) 0.9915(6) 0.8823(3)
C51_2 C 0.4290(3) 0.0581(7) 0.7498(4)
O32_2 O 0.4021(2) 0.8380(6) 0.8847(2)
C52_2 C 0.4024(4) 0.0845(8) 0.7015(4)
H67_2 H 0.3937 0.0145 0.6805
O33_2 O 0.4442(2) 0.8504(6) 0.9646(3)
C53_2 C 0.3878(3) 0.2166(8) 0.6828(4)
H68_2 H 0.3696 0.2334 0.6496
C54_2 C 0.2952(3) 0.9334(9) 0.6500(3)
H71_2 H 0.2221 0.9797 0.5923
C56_2 C 0.4705(3) 0.6503(8) 0.8581(4)
C57_2 C 0.5042(4) 0.5307(10) 0.8824(4)
H72_2 H 0.4887 0.4580 0.8832
H73_2 H 0.5106 0.5042 0.8637
H74_2 H 0.5350 0.5534 0.9159
C72_2 C 0.4086(3) 0.8116(9) 0.9200(4)
C73_2 C 0.3707(6) 0.7214(18) 0.9108(6)
H83_2 H 0.3876 0.6479 0.9339
H84_2 H 0.3534 0.7727 0.9154
H85_2 H 0.3472 0.6873 0.8772
C74_2 C 0.0961(3) 0.7078(10) 0.5201(4)
H86_2 H 0.0663 0.7421 0.4900
Zn9_3 Zn 0.2500 0.7500 0.5000
N18_2 N 0.4419(3) 0.9259(6) 0.7692(3)
Zn14_4 Zn 0.5000 1.0000 1.0000
O37_2 O 0.00175(19) 0.5253(5) 0.4496(2)
O40_2 O 0.0558(2) 0.3504(6) 0.5354(3)
H54_2 H 0.4328 0.8588 0.7502
H55_2 H 0.4588 0.9128 0.8000
N4_2 N 0.5581(3) 0.0741(6) 0.2308(3)
H11_2 H 0.5672 0.1412 0.2498
H12_2 H 0.5412 0.0872 0.2000
Zn11_2 Zn 0.61516(3) 0.20435(8) 0.24584(4)
Zn1_3 Zn 0.7500 0.2500 0.5000
O1_2 O 0.7536(2) 0.4362(5) 0.5318(3)
H1_2 H 0.7565 0.4377 0.5557
C1_2 C 0.6349(3) 0.2274(8) 0.4100(3)
N1_2 N 0.7779(3) 0.3460(8) 0.4528(3)
H2_2 H 0.8072 0.3394 0.4828
Zn2_2 Zn 0.67498(3) 0.31988(9) 0.36965(4)
O2_2 O 0.6742(2) 0.2409(6) 0.4557(2)
N2_2 N 0.9430(2) 0.3368(7) 0.4528(3)
H3_2 H 0.9408 0.3672 0.4306
H4_2 H 0.9708 0.3057 0.4805
C2_2 C 0.5889(4) 0.1870(18) 0.3960(5)
H5_2 H 0.5935 0.0991 0.4089
H6_2 H 0.5610 0.1862 0.3603
H7_2 H 0.5829 0.2501 0.4098
N3_2 N 0.6030(2) 0.4443(6) 0.2768(3)
H8_2 H 0.5822 0.4612 0.2454
O3_2 O 0.6307(2) 0.2443(7) 0.3751(2)
C3_2 C 0.7781(8) 0.5536(11) 0.5354(8)
H9_2 H 0.7648 0.5716 0.5029
H10_2 H 0.8133 0.5353 0.5586
Zn4_2 Zn 0.55360(3) 0.08808(8) 0.12245(4)
O4_2 O 0.73716(19) 0.3437(6) 0.4445(2)
C4_2 C 0.7711(7) 0.6773(15) 0.5528(6)
H13_2 H 0.7364 0.6988 0.5289
H14_2 H 0.7888 0.7516 0.5558
H15_2 H 0.7836 0.6594 0.5846
Zn5_6 Zn 1.0000 0.5000 0.5000
O5_2 O 0.7299(2) 0.3741(6) 0.3717(2)
C5_2 C 0.7725(3) 0.3579(8) 0.4157(3)
O6_2 O 0.61950(19) 0.3158(5) 0.2935(2)
C6_2 C 0.8180(3) 0.3522(9) 0.4268(4)
O7_2 O 0.6469(2) 0.5176(5) 0.3533(2)
C7_2 C 0.8627(3) 0.2981(11) 0.4709(4)
H20_2 H 0.8648 0.2652 0.4948
O8_2 O 0.6979(2) 0.1174(6) 0.3737(2)
C8_2 C 0.9011(3) 0.3379(8) 0.4439(3)
O9_2 O 0.6773(2) 0.0814(5) 0.3048(2)
C9_2 C 0.8569(3) 0.3875(11) 0.3997(4)
H23_2 H 0.8545 0.4177 0.3754
O10_2 O 0.5553(2) 0.3290(5) 0.1872(2)
C10_2 C 0.8158(3) 0.3930(11) 0.3911(4)
H24_2 H 0.7859 0.4249 0.3606
O11_2 O 0.5306(2) 0.2803(6) 0.1161(3)
C11_2 C 0.6182(3) 0.5414(8) 0.3077(3)
O12_2 O 0.61041(19) 0.0905(5) 0.1982(2)
C12_2 C 0.5994(3) 0.6787(8) 0.2863(3)
C13_2 C 0.5723(4) 0.7073(8) 0.2378(4)
H25_2 H 0.5628 0.6372 0.2164
O14_2 O 0.49825(19) 0.0253(5) 0.0504(2)
C14_2 C 0.5586(3) 0.8364(9) 0.2193(4)
H26_2 H 0.5412 0.8529 0.1864
O15_2 O 0.4987(2) 0.0085(6) 0.1177(3)
C15_2 C 0.5710(3) 0.9419(7) 0.2502(4)
O16_2 O 0.5979(2) 0.1620(6) 0.1153(2)
C16_2 C 0.5976(4) 0.9155(8) 0.2985(4)
H27_2 H 0.6063 0.9855 0.3195
O17_2 O 0.5558(2) 0.1496(6) 0.0354(3)
C17_2 C 0.6122(3) 0.7834(8) 0.3172(4)
H28_2 H 0.6304 0.7666 0.3504
C18_2 C 0.7048(3) 0.0666(9) 0.3500(3)
H31_2 H 0.7779 0.0203 0.4077
C20_2 C 0.5295(3) 0.3497(8) 0.1419(4)
C21_2 C 0.4958(4) 0.4693(10) 0.1176(4)
H32_2 H 0.5113 0.5420 0.1168
H33_2 H 0.4894 0.4958 0.1363
H34_2 H 0.4650 0.4466 0.0841
C36_2 C 0.5914(3) 0.1884(9) 0.0800(4)
C37_2 C 0.6293(6) 0.2786(18) 0.0892(6)
H43_2 H 0.6124 0.3521 0.0661
H44_2 H 0.6466 0.2273 0.0846
H45_2 H 0.6528 0.3127 0.1228
C38_2 C 0.9039(3) 0.2922(10) 0.4799(4)
H46_2 H 0.9337 0.2579 0.5100
O34_2 O 0.7464(2) 0.0638(5) 0.4682(3)
H87_2 H 0.7435 0.0623 0.4443
O35_2 O 0.8258(2) 0.2591(6) 0.5443(2)
O36_2 O 0.76284(19) 0.1563(6) 0.5555(2)
N19_2 N 0.6732(2) 0.3341(6) 0.2625(3)
O38_2 O 0.99825(19) 0.4747(5) 0.5504(2)
O39_2 O 0.9442(2) 0.6496(6) 0.4646(3)
N5_2 N 0.6316(2) 0.9661(6) 0.2170(3)
H16_2 H 0.6546 0.9536 0.2488
H17_2 H 0.6911 0.3191 0.2935
H18_2 H 0.6617 0.2681 0.2423
N7_2 N 0.4674(3) 0.9399(7) 0.0454(3)
H19_2 H 0.4470 0.8895 0.0195
N8_2 N 0.3556(4) 0.5449(11) 0.0694(5)
H21_2 H 0.3602 0.5335 0.0945
H22_2 H 0.3348 0.4950 0.0434
O13_2 O 0.5859(2) 0.8864(5) 0.1399(2)
C19_2 C 0.7490(5) 0.9784(16) 0.3769(6)
H29_2 H 0.7541 0.9646 0.3564
H30_2 H 0.7435 0.8935 0.3839
C22_2 C 0.6173(3) 0.8665(7) 0.1871(3)
C23_2 C 0.6369(3) 0.7312(7) 0.2086(3)
C24_2 C 0.6680(3) 0.7048(7) 0.2583(4)
H35_2 H 0.6810 0.7759 0.2804
C25_2 C 0.6807(3) 0.5745(7) 0.2766(3)
H36_2 H 0.7015 0.5592 0.3104
C26_2 C 0.6625(3) 0.4679(7) 0.2447(3)
C27_2 C 0.6337(3) 0.4931(8) 0.1951(3)
H37_2 H 0.6227 0.4224 0.1735
C28_2 C 0.6210(3) 0.6237(8) 0.1775(3)
H38_2 H 0.6013 0.6395 0.1439
C29_2 C 0.4691(3) 0.9355(8) 0.0811(3)
C30_2 C 0.4361(3) 0.8372(9) 0.0745(4)
C31_2 C 0.4398(4) 0.8209(11) 0.1121(4)
H39_2 H 0.4605 0.8785 0.1394
C32_2 C 0.4144(4) 0.7231(10) 0.1113(4)
H40_2 H 0.4199 0.7121 0.1388
C33_2 C 0.3814(4) 0.6427(10) 0.0709(4)
C34_2 C 0.3760(5) 0.6557(13) 0.0306(5)
H41_2 H 0.3542 0.6004 0.0027
C35_2 C 0.4036(5) 0.7521(13) 0.0337(5)
H42_2 H 0.4004 0.7601 0.0076
C75_2 C 0.7219(8) 0.9464(11) 0.4646(8)
H88_2 H 0.7352 0.9284 0.4971
H89_2 H 0.6867 0.9647 0.4414
C76_2 C 0.7289(7) 0.8227(15) 0.4472(6)
H90_2 H 0.7636 0.8012 0.4711
H91_2 H 0.7112 0.7484 0.4442
H92_2 H 0.7164 0.8406 0.4154
N7_3 N 0.0326(3) 0.4399(7) 0.4546(3)
H19_3 H 0.0530 0.3895 0.4805
N8_3 N 0.1444(4) 0.0449(11) 0.4306(5)
H21_3 H 0.1398 0.0335 0.4055
O15_3 O 0.0013(2) 0.5085(6) 0.3823(3)
C21_3 C 0.0042(4) 0.9693(10) 0.3824(4)
H33_3 H 0.0106 0.9958 0.3637
H34_3 H 0.0350 0.9466 0.4159
C29_3 C 0.0309(3) 0.4355(8) 0.4189(3)
C30_3 C 0.0639(3) 0.3372(9) 0.4255(4)
C31_3 C 0.0602(4) 0.3209(11) 0.3879(4)
H39_3 H 0.0395 0.3785 0.3606
C32_3 C 0.0856(4) 0.2231(10) 0.3887(4)
H40_3 H 0.0801 0.2121 0.3612
C33_3 C 0.1186(4) 0.1427(10) 0.4291(4)
C34_3 C 0.1240(5) 0.1557(13) 0.4694(5)
H41_3 H 0.1458 0.1004 0.4973
C35_3 C 0.0964(5) 0.2521(13) 0.4663(5)
H42_3 H 0.0996 0.2601 0.4924
N14_3 N 0.1732(2) 0.1659(6) 0.7625(3)
H57_3 H 0.1911 0.1809 0.7935
H58_3 H 0.1617 0.2319 0.7423
C62_3 C 0.1625(3) 0.0321(7) 0.7447(3)
C63_3 C 0.1337(3) 0.0069(8) 0.6951(3)
H77_3 H 0.1227 0.0776 0.6735
Zn13_3 Zn 0.11516(3) 0.29565(8) 0.74584(4)
N4_3 N 0.9419(3) 0.5741(6) 0.2692(3)
H11_3 H 0.9328 0.6412 0.2502
H12_3 H 0.9588 0.5872 0.3000
O7_3 O 0.8531(2) 0.0176(5) 0.1467(2)
C11_3 C 0.8818(3) 0.0414(8) 0.1923(3)
C12_3 C 0.9006(3) 0.1787(8) 0.2137(3)
C13_3 C 0.9277(4) 0.2073(8) 0.2622(4)
H25_3 H 0.9372 0.1372 0.2836
C14_3 C 0.9414(3) 0.3364(9) 0.2807(4)
H26_3 H 0.9588 0.3529 0.3136
C15_3 C 0.9290(3) 0.4419(7) 0.2498(4)
C16_3 C 0.9024(4) 0.4155(8) 0.2015(4)
H27_3 H 0.8937 0.4855 0.1805
C17_3 C 0.8878(3) 0.2834(8) 0.1828(4)
H28_3 H 0.8696 0.2666 0.1496
H32_3 H 0.9887 0.0420 0.3832
H86_3 H 0.4337 0.2421 0.0100
Zn11_3 Zn 0.88484(3) 0.70435(8) 0.25416(4)
C3_3 C 0.7219(8) 0.0536(11) 0.9646(8)
H9_3 H 0.7352 0.0716 0.9971
H10_3 H 0.6867 0.0353 0.9414
C4_3 C 0.7289(7) 0.1773(15) 0.9472(6)
H13_3 H 0.7636 0.1988 0.9711
H14_3 H 0.7112 0.2516 0.9442
H15_3 H 0.7164 0.1594 0.9154
C39_3 C 0.1349(3) 0.2726(8) 0.9100(3)
N9_3 N 0.2779(3) 0.1540(8) 0.9528(3)
H47_3 H 0.3072 0.1606 0.9828
Zn6_3 Zn 0.17498(3) 0.18012(9) 0.86965(4)
N10_3 N 0.4430(2) 0.1632(7) 0.9528(3)
H48_3 H 0.4408 0.1328 0.9306
H49_3 H 0.4708 0.1943 0.9805
C40_3 C 0.0889(4) 0.3130(18) 0.8960(5)
H50_3 H 0.0935 0.4009 0.9089
H51_3 H 0.0610 0.3138 0.8603
H52_3 H 0.0829 0.2499 0.9098
N11_3 N 0.1030(2) 0.0557(6) 0.7768(3)
H53_3 H 0.0822 0.0388 0.7454
O19_3 O 0.1307(2) 0.2557(7) 0.8751(2)
Zn8_3 Zn 0.05360(3) 0.41192(8) 0.62245(4)
O21_3 O 0.2299(2) 0.1259(6) 0.8717(2)
N13_3 N 0.1316(2) 0.5339(6) 0.7170(3)
H56_3 H 0.1546 0.5464 0.7488
C41_3 C 0.2725(3) 0.1421(8) 0.9157(3)
O22_3 O 0.11950(19) 0.1842(5) 0.7935(2)
C42_3 C 0.3180(3) 0.1478(9) 0.9268(4)
C43_3 C 0.3627(3) 0.2019(11) 0.9709(4)
H60_3 H 0.3648 0.2348 0.9948
O24_3 O 0.1979(2) 0.3826(6) 0.8737(2)
C44_3 C 0.4011(3) 0.1621(8) 0.9439(3)
O25_3 O 0.1773(2) 0.4186(5) 0.8048(2)
C45_3 C 0.3569(3) 0.1125(11) 0.8997(4)
H63_3 H 0.3545 0.0823 0.8754
O26_3 O 0.0553(2) 0.1710(5) 0.6872(2)
C46_3 C 0.3158(3) 0.1070(11) 0.8911(4)
H64_3 H 0.2859 0.0751 0.8606
O27_3 O 0.0306(2) 0.2197(6) 0.6161(3)
O28_3 O 0.11041(19) 0.4095(5) 0.6982(2)
O29_3 O 0.0859(2) 0.6136(5) 0.6399(2)
O32_3 O 0.0979(2) 0.3380(6) 0.6153(2)
C54_3 C 0.2048(3) 0.4334(9) 0.8500(3)
C55_3 C 0.2490(5) 0.5216(16) 0.8769(6)
H69_3 H 0.2541 0.5354 0.8564
H70_3 H 0.2435 0.6065 0.8839
H71_3 H 0.2779 0.4797 0.9077
C56_3 C 0.0295(3) 0.1503(8) 0.6419(4)
C58_3 C 0.1173(3) 0.6335(7) 0.6871(3)
C59_3 C 0.1369(3) 0.7688(7) 0.7086(3)
C60_3 C 0.1680(3) 0.7952(7) 0.7583(4)
H75_3 H 0.1810 0.7241 0.7804
C61_3 C 0.1807(3) 0.9255(7) 0.7766(3)
H76_3 H 0.2015 0.9408 0.8104
C64_3 C 0.1210(3) 0.8763(8) 0.6775(3)
H78_3 H 0.1013 0.8605 0.6439
C72_3 C 0.0914(3) 0.3116(9) 0.5800(4)
C73_3 C 0.1293(6) 0.2214(18) 0.5892(6)
H83_3 H 0.1124 0.1479 0.5661
H84_3 H 0.1466 0.2727 0.5846
H85_3 H 0.1528 0.1873 0.6228
C74_3 C 0.4039(3) 0.2078(10) 0.9799(4)
N18_3 N 0.0581(3) 0.4259(6) 0.7308(3)
C1_3 C 0.8651(3) 0.7274(8) 0.0900(3)
N1_3 N 0.7221(3) 0.8460(8) 0.0472(3)
H2_3 H 0.6928 0.8394 0.0172
Zn2_3 Zn 0.82502(3) 0.81988(9) 0.13035(4)
O2_3 O 0.8258(2) 0.7409(6) 0.0443(2)
N2_3 N 0.5570(2) 0.8368(7) 0.0472(3)
H3_3 H 0.5592 0.8672 0.0694
H4_3 H 0.5292 0.8057 0.0195
C2_3 C 0.9111(4) 0.6870(18) 0.1040(5)
H5_3 H 0.9065 0.5991 0.0911
H6_3 H 0.9390 0.6862 0.1397
H7_3 H 0.9171 0.7501 0.0902
N3_3 N 0.8970(2) 0.9443(6) 0.2232(3)
H8_3 H 0.9178 0.9612 0.2546
O3_3 O 0.8693(2) 0.7443(7) 0.1249(2)
Zn4_3 Zn 0.94640(3) 0.58808(8) 0.37755(4)
O4_3 O 0.76284(19) 0.8437(6) 0.0555(2)
O5_3 O 0.7701(2) 0.8741(6) 0.1283(2)
N5_3 N 0.8684(2) 0.4661(6) 0.2830(3)
H16_3 H 0.8454 0.4536 0.2512
C5_3 C 0.7275(3) 0.8579(8) 0.0843(3)
O6_3 O 0.88050(19) 0.8158(5) 0.2065(2)
C6_3 C 0.6820(3) 0.8522(9) 0.0732(4)
C7_3 C 0.6373(3) 0.7981(11) 0.0291(4)
H20_3 H 0.6352 0.7652 0.0052
O8_3 O 0.8021(2) 0.6174(6) 0.1263(2)
C8_3 C 0.5989(3) 0.8379(8) 0.0561(3)
O9_3 O 0.8227(2) 0.5814(5) 0.1952(2)
C9_3 C 0.6431(3) 0.8875(11) 0.1003(4)
H23_3 H 0.6455 0.9177 0.1246
O10_3 O 0.9447(2) 0.8290(5) 0.3128(2)
C10_3 C 0.6842(3) 0.8930(11) 0.1089(4)
H24_3 H 0.7141 0.9249 0.1394
O11_3 O 0.9694(2) 0.7803(6) 0.3839(3)
O12_3 O 0.88959(19) 0.5905(5) 0.3018(2)
O13_3 O 0.9141(2) 0.3864(5) 0.3601(2)
O16_3 O 0.9021(2) 0.6620(6) 0.3847(2)
C18_3 C 0.7952(3) 0.5666(9) 0.1500(3)
C19_3 C 0.7510(5) 0.4784(16) 0.1231(6)
H29_3 H 0.7459 0.4646 0.1436
H30_3 H 0.7565 0.3935 0.1161
H31_3 H 0.7221 0.5203 0.0923
C20_3 C 0.9705(3) 0.8497(8) 0.3581(4)
C22_3 C 0.8827(3) 0.3665(7) 0.3129(3)
C23_3 C 0.8631(3) 0.2312(7) 0.2914(3)
C24_3 C 0.8320(3) 0.2048(7) 0.2417(4)
H35_3 H 0.8190 0.2759 0.2196
C25_3 C 0.8193(3) 0.0745(7) 0.2234(3)
H36_3 H 0.7985 0.0592 0.1896
C28_3 C 0.8790(3) 0.1237(8) 0.3225(3)
H38_3 H 0.8987 0.1395 0.3561
C36_3 C 0.9086(3) 0.6884(9) 0.4200(4)
C37_3 C 0.8707(6) 0.7786(18) 0.4108(6)
H43_3 H 0.8876 0.8521 0.4339
H44_3 H 0.8534 0.7273 0.4154
H45_3 H 0.8472 0.8127 0.3772
C38_3 C 0.5961(3) 0.7922(10) 0.0201(4)
O34_3 O 0.7536(2) 0.5638(5) 0.0318(3)
H87_3 H 0.7565 0.5623 0.0557
C75_3 C 0.7781(8) 0.4464(11) 0.0354(8)
H88_3 H 0.7648 0.4284 0.0029
H89_3 H 0.8133 0.4647 0.0586
C76_3 C 0.7711(7) 0.3227(15) 0.0528(6)
H90_3 H 0.7364 0.3012 0.0289
H91_3 H 0.7888 0.2484 0.0558
H92_3 H 0.7836 0.3406 0.0846
N19_3 N 0.8268(2) 0.8341(6) 0.2375(3)
O1_3 O 0.7464(2) 0.9362(5) 0.9682(3)
H1_3 H 0.7435 0.9377 0.9443
H46_3 H 0.5663 0.7579 0.9900
H54_3 H 0.0672 0.3588 0.7498
H55_3 H 0.0412 0.4128 0.7000
O23_3 O 0.1469(2) 0.9824(5) 0.8533(2)
C47_3 C 0.1182(3) 0.9586(8) 0.8077(3)
C48_3 C 0.0994(3) 0.8213(8) 0.7863(3)
C49_3 C 0.0723(4) 0.7927(8) 0.7378(4)
H65_3 H 0.0628 0.8628 0.7164
C50_3 C 0.0586(3) 0.6636(9) 0.7193(4)
H66_3 H 0.0412 0.6471 0.6864
C51_3 C 0.0710(3) 0.5581(7) 0.7502(4)
C52_3 C 0.0976(4) 0.5845(8) 0.7985(4)
H67_3 H 0.1063 0.5145 0.8195
C53_3 C 0.1122(3) 0.7166(8) 0.8172(4)
H68_3 H 0.1304 0.7334 0.8504
H72_3 H 0.0113 0.9580 0.6168
H17_3 H 0.8089 0.8191 0.2065
H18_3 H 0.8383 0.7681 0.2577
C26_3 C 0.8375(3) 0.9679(7) 0.2553(3)
C27_3 C 0.8663(3) 0.9931(8) 0.3049(3)
H37_3 H 0.8773 0.9224 0.3265
N15_3 N 0.9674(3) 0.5601(7) 0.5454(3)
H59_3 H 0.9470 0.6105 0.5195
N16_3 N 0.8556(4) 0.9551(11) 0.5694(5)
H61_3 H 0.8602 0.9665 0.5945
O31_3 O 0.9987(2) 0.4915(6) 0.6177(3)
C57_3 C 0.9958(4) 0.0307(10) 0.6176(4)
H73_3 H 0.9894 0.0042 0.6363
H74_3 H 0.9650 0.0534 0.5841
C65_3 C 0.9691(3) 0.5645(8) 0.5811(3)
C66_3 C 0.9361(3) 0.6628(9) 0.5745(4)
C67_3 C 0.9398(4) 0.6791(11) 0.6121(4)
H79_3 H 0.9605 0.6215 0.6394
C68_3 C 0.9144(4) 0.7769(10) 0.6113(4)
H80_3 H 0.9199 0.7879 0.6388
C69_3 C 0.8814(4) 0.8573(10) 0.5709(4)
C70_3 C 0.8760(5) 0.8443(13) 0.5306(5)
H81_3 H 0.8542 0.8996 0.5027
C71_3 C 0.9036(5) 0.7479(13) 0.5337(5)
H82_3 H 0.9004 0.7399 0.5076
N15_4 N 0.0326(3) 0.5601(7) 0.9546(3)
H59_4 H 0.0530 0.6105 0.9805
N16_4 N 0.1444(4) 0.9551(11) 0.9306(5)
H61_4 H 0.1398 0.9665 0.9055
O31_4 O 0.0013(2) 0.4915(6) 0.8823(3)
C57_4 C 0.0042(4) 0.0307(10) 0.8824(4)
H73_4 H 0.0106 0.0042 0.8637
H74_4 H 0.0350 0.0534 0.9159
C65_4 C 0.0309(3) 0.5645(8) 0.9189(3)
C66_4 C 0.0639(3) 0.6628(9) 0.9255(4)
C67_4 C 0.0602(4) 0.6791(11) 0.8879(4)
H79_4 H 0.0395 0.6215 0.8606
C68_4 C 0.0856(4) 0.7769(10) 0.8887(4)
H80_4 H 0.0801 0.7879 0.8612
C69_4 C 0.1186(4) 0.8573(10) 0.9291(4)
C70_4 C 0.1240(5) 0.8443(13) 0.9694(5)
H81_4 H 0.1458 0.8996 0.9973
C71_4 C 0.0964(5) 0.7479(13) 0.9663(5)
H82_4 H 0.0996 0.7399 0.9924
N14_4 N 0.8268(2) 0.1659(6) 0.7375(3)
H57_4 H 0.8089 0.1809 0.7065
H58_4 H 0.8383 0.2319 0.7577
C62_4 C 0.8375(3) 0.0321(7) 0.7553(3)
C63_4 C 0.8663(3) 0.0069(8) 0.8049(3)
H77_4 H 0.8773 0.0776 0.8265
Zn13_4 Zn 0.88484(3) 0.29565(8) 0.75416(4)
C3_4 C 0.2781(8) 0.0536(11) 0.5354(8)
H9_4 H 0.2648 0.0716 0.5029
H10_4 H 0.3133 0.0353 0.5586
N4_4 N 0.0581(3) 0.5741(6) 0.2308(3)
H11_4 H 0.0672 0.6412 0.2498
H12_4 H 0.0412 0.5872 0.2000
C4_4 C 0.2711(7) 0.1773(15) 0.5528(6)
H13_4 H 0.2364 0.1988 0.5289
H14_4 H 0.2888 0.2516 0.5558
H15_4 H 0.2836 0.1594 0.5846
O7_4 O 0.1469(2) 0.0176(5) 0.3533(2)
C11_4 C 0.1182(3) 0.0414(8) 0.3077(3)
C12_4 C 0.0994(3) 0.1787(8) 0.2863(3)
C13_4 C 0.0723(4) 0.2073(8) 0.2378(4)
H25_4 H 0.0628 0.1372 0.2164
C14_4 C 0.0586(3) 0.3364(9) 0.2193(4)
H26_4 H 0.0412 0.3529 0.1864
C15_4 C 0.0710(3) 0.4419(7) 0.2502(4)
C16_4 C 0.0976(4) 0.4155(8) 0.2985(4)
H27_4 H 0.1063 0.4855 0.3195
C17_4 C 0.1122(3) 0.2834(8) 0.3172(4)
H28_4 H 0.1304 0.2666 0.3504
H32_4 H 0.0113 0.0420 0.1168
C39_4 C 0.8651(3) 0.2726(8) 0.5900(3)
N9_4 N 0.7221(3) 0.1540(8) 0.5472(3)
H47_4 H 0.6928 0.1606 0.5172
Zn6_4 Zn 0.82502(3) 0.18012(9) 0.63035(4)
N10_4 N 0.5570(2) 0.1632(7) 0.5472(3)
H48_4 H 0.5592 0.1328 0.5694
H49_4 H 0.5292 0.1943 0.5195
C40_4 C 0.9111(4) 0.3130(18) 0.6040(5)
H50_4 H 0.9065 0.4009 0.5911
H51_4 H 0.9390 0.3138 0.6397
H52_4 H 0.9171 0.2499 0.5902
N11_4 N 0.8970(2) 0.0557(6) 0.7232(3)
H53_4 H 0.9178 0.0388 0.7546
O19_4 O 0.8693(2) 0.2557(7) 0.6249(2)
Zn8_4 Zn 0.94640(3) 0.41192(8) 0.87755(4)
O21_4 O 0.7701(2) 0.1259(6) 0.6283(2)
N13_4 N 0.8684(2) 0.5339(6) 0.7830(3)
H56_4 H 0.8454 0.5464 0.7512
C41_4 C 0.7275(3) 0.1421(8) 0.5843(3)
O22_4 O 0.88050(19) 0.1842(5) 0.7065(2)
C42_4 C 0.6820(3) 0.1478(9) 0.5732(4)
C43_4 C 0.6373(3) 0.2019(11) 0.5291(4)
H60_4 H 0.6352 0.2348 0.5052
O24_4 O 0.8021(2) 0.3826(6) 0.6263(2)
C44_4 C 0.5989(3) 0.1621(8) 0.5561(3)
O25_4 O 0.8227(2) 0.4186(5) 0.6952(2)
C45_4 C 0.6431(3) 0.1125(11) 0.6003(4)
H63_4 H 0.6455 0.0823 0.6246
O26_4 O 0.9447(2) 0.1710(5) 0.8128(2)
C46_4 C 0.6842(3) 0.1070(11) 0.6089(4)
H64_4 H 0.7141 0.0751 0.6394
O27_4 O 0.9694(2) 0.2197(6) 0.8839(3)
O28_4 O 0.88959(19) 0.4095(5) 0.8018(2)
O29_4 O 0.9141(2) 0.6136(5) 0.8601(2)
O32_4 O 0.9021(2) 0.3380(6) 0.8847(2)
C54_4 C 0.7952(3) 0.4334(9) 0.6500(3)
C55_4 C 0.7510(5) 0.5216(16) 0.6231(6)
H69_4 H 0.7459 0.5354 0.6436
H70_4 H 0.7565 0.6065 0.6161
H71_4 H 0.7221 0.4797 0.5923
C56_4 C 0.9705(3) 0.1503(8) 0.8581(4)
C58_4 C 0.8827(3) 0.6335(7) 0.8129(3)
C59_4 C 0.8631(3) 0.7688(7) 0.7914(3)
C60_4 C 0.8320(3) 0.7952(7) 0.7417(4)
H75_4 H 0.8190 0.7241 0.7196
C61_4 C 0.8193(3) 0.9255(7) 0.7234(3)
H76_4 H 0.7985 0.9408 0.6896
C64_4 C 0.8790(3) 0.8763(8) 0.8225(3)
H78_4 H 0.8987 0.8605 0.8561
C72_4 C 0.9086(3) 0.3116(9) 0.9200(4)
C73_4 C 0.8707(6) 0.2214(18) 0.9108(6)
H83_4 H 0.8876 0.1479 0.9339
H84_4 H 0.8534 0.2727 0.9154
H85_4 H 0.8472 0.1873 0.8772
C74_4 C 0.5961(3) 0.2078(10) 0.5201(4)
H86_4 H 0.5663 0.2421 0.4900
Zn11_4 Zn 0.11516(3) 0.70435(8) 0.24584(4)
N18_4 N 0.9419(3) 0.4259(6) 0.7692(3)
O1_4 O 0.2536(2) 0.9362(5) 0.5318(3)
H1_4 H 0.2565 0.9377 0.5557
C1_4 C 0.1349(3) 0.7274(8) 0.4100(3)
N1_4 N 0.2779(3) 0.8460(8) 0.4528(3)
H2_4 H 0.3072 0.8394 0.4828
Zn2_4 Zn 0.17498(3) 0.81988(9) 0.36965(4)
O2_4 O 0.1742(2) 0.7409(6) 0.4557(2)
N2_4 N 0.4430(2) 0.8368(7) 0.4528(3)
H3_4 H 0.4408 0.8672 0.4306
H4_4 H 0.4708 0.8057 0.4805
C2_4 C 0.0889(4) 0.6870(18) 0.3960(5)
H5_4 H 0.0935 0.5991 0.4089
H6_4 H 0.0610 0.6862 0.3603
H7_4 H 0.0829 0.7501 0.4098
N3_4 N 0.1030(2) 0.9443(6) 0.2768(3)
H8_4 H 0.0822 0.9612 0.2454
O3_4 O 0.1307(2) 0.7443(7) 0.3751(2)
Zn4_4 Zn 0.05360(3) 0.58808(8) 0.12245(4)
O4_4 O 0.23716(19) 0.8437(6) 0.4445(2)
O5_4 O 0.2299(2) 0.8741(6) 0.3717(2)
N5_4 N 0.1316(2) 0.4661(6) 0.2170(3)
H16_4 H 0.1546 0.4536 0.2488
C5_4 C 0.2725(3) 0.8579(8) 0.4157(3)
O6_4 O 0.11950(19) 0.8158(5) 0.2935(2)
C6_4 C 0.3180(3) 0.8522(9) 0.4268(4)
C7_4 C 0.3627(3) 0.7981(11) 0.4709(4)
H20_4 H 0.3648 0.7652 0.4948
O8_4 O 0.1979(2) 0.6174(6) 0.3737(2)
C8_4 C 0.4011(3) 0.8379(8) 0.4439(3)
O9_4 O 0.1773(2) 0.5814(5) 0.3048(2)
C9_4 C 0.3569(3) 0.8875(11) 0.3997(4)
H23_4 H 0.3545 0.9177 0.3754
O10_4 O 0.0553(2) 0.8290(5) 0.1872(2)
C10_4 C 0.3158(3) 0.8930(11) 0.3911(4)
H24_4 H 0.2859 0.9249 0.3606
O11_4 O 0.0306(2) 0.7803(6) 0.1161(3)
O12_4 O 0.11041(19) 0.5905(5) 0.1982(2)
O13_4 O 0.0859(2) 0.3864(5) 0.1399(2)
O16_4 O 0.0979(2) 0.6620(6) 0.1153(2)
C18_4 C 0.2048(3) 0.5666(9) 0.3500(3)
C19_4 C 0.2490(5) 0.4784(16) 0.3769(6)
H29_4 H 0.2541 0.4646 0.3564
H30_4 H 0.2435 0.3935 0.3839
H31_4 H 0.2779 0.5203 0.4077
C20_4 C 0.0295(3) 0.8497(8) 0.1419(4)
C22_4 C 0.1173(3) 0.3665(7) 0.1871(3)
C23_4 C 0.1369(3) 0.2312(7) 0.2086(3)
C24_4 C 0.1680(3) 0.2048(7) 0.2583(4)
H35_4 H 0.1810 0.2759 0.2804
C25_4 C 0.1807(3) 0.0745(7) 0.2766(3)
H36_4 H 0.2015 0.0592 0.3104
C28_4 C 0.1210(3) 0.1237(8) 0.1775(3)
H38_4 H 0.1013 0.1395 0.1439
C36_4 C 0.0914(3) 0.6884(9) 0.0800(4)
C37_4 C 0.1293(6) 0.7786(18) 0.0892(6)
H43_4 H 0.1124 0.8521 0.0661
H44_4 H 0.1466 0.7273 0.0846
H45_4 H 0.1528 0.8127 0.1228
C38_4 C 0.4039(3) 0.7922(10) 0.4799(4)
H46_4 H 0.4337 0.7579 0.5100
H54_4 H 0.9328 0.3588 0.7502
H55_4 H 0.9588 0.4128 0.8000
O23_4 O 0.8531(2) 0.9824(5) 0.6467(2)
C47_4 C 0.8818(3) 0.9586(8) 0.6923(3)
C48_4 C 0.9006(3) 0.8213(8) 0.7137(3)
C49_4 C 0.9277(4) 0.7927(8) 0.7622(4)
H65_4 H 0.9372 0.8628 0.7836
C50_4 C 0.9414(3) 0.6636(9) 0.7807(4)
H66_4 H 0.9588 0.6471 0.8136
C51_4 C 0.9290(3) 0.5581(7) 0.7498(4)
C52_4 C 0.9024(4) 0.5845(8) 0.7015(4)
H67_4 H 0.8937 0.5145 0.6805
C53_4 C 0.8878(3) 0.7166(8) 0.6828(4)
H68_4 H 0.8696 0.7334 0.6496
H72_4 H 0.9887 0.9580 0.8832
O34_4 O 0.2464(2) 0.5638(5) 0.4682(3)
H87_4 H 0.2435 0.5623 0.4443
C75_4 C 0.2219(8) 0.4464(11) 0.4646(8)
H88_4 H 0.2352 0.4284 0.4971
H89_4 H 0.1867 0.4647 0.4414
C76_4 C 0.2289(7) 0.3227(15) 0.4472(6)
H90_4 H 0.2636 0.3012 0.4711
H91_4 H 0.2112 0.2484 0.4442
H92_4 H 0.2164 0.3406 0.4154
N19_4 N 0.1732(2) 0.8341(6) 0.2625(3)
H17_4 H 0.1911 0.8191 0.2935
H18_4 H 0.1617 0.7681 0.2423
C26_4 C 0.1625(3) 0.9679(7) 0.2447(3)
C27_4 C 0.1337(3) 0.9931(8) 0.1951(3)
H37_4 H 0.1227 0.9224 0.1735
N7_4 N 0.9674(3) 0.4399(7) 0.0454(3)
H19_4 H 0.9470 0.3895 0.0195
N8_4 N 0.8556(4) 0.0449(11) 0.0694(5)
H21_4 H 0.8602 0.0335 0.0945
O15_4 O 0.9987(2) 0.5085(6) 0.1177(3)
C21_4 C 0.9958(4) 0.9693(10) 0.1176(4)
H33_4 H 0.9894 0.9958 0.1363
H34_4 H 0.9650 0.9466 0.0841
C29_4 C 0.9691(3) 0.4355(8) 0.0811(3)
C30_4 C 0.9361(3) 0.3372(9) 0.0745(4)
C31_4 C 0.9398(4) 0.3209(11) 0.1121(4)
H39_4 H 0.9605 0.3785 0.1394
C32_4 C 0.9144(4) 0.2231(10) 0.1113(4)
H40_4 H 0.9199 0.2121 0.1388
C33_4 C 0.8814(4) 0.1427(10) 0.0709(4)
C34_4 C 0.8760(5) 0.1557(13) 0.0306(5)
H41_4 H 0.8542 0.1004 0.0027
C35_4 C 0.9036(5) 0.2521(13) 0.0337(5)
H42_4 H 0.9004 0.2601 0.0076
H22_3 H 0.1652 0.9950 0.4566
H62_3 H 0.8348 0.0050 0.5434
H62_4 H 0.1652 0.0050 0.9566
H22_4 H 0.8348 0.9950 0.0434
loop_
_geom_bond_atom_site_label_1
_geom_bond_atom_site_label_2
_geom_bond_site_symmetry_1
_geom_bond_site_symmetry_2
N4 H11 1_555 1_555
H12 N4 1_555 1_555
Zn11 N4 1_555 1_555
C1 O2 1_555 1_555
N1 H2 1_555 1_555
Zn2 O3 1_555 1_555
O2 Zn1 1_555 1_555
N2 H3 1_555 1_555
H4 N2 1_555 1_555
C2 C1 1_555 1_555
H5 C2 1_555 1_555
H6 C2 1_555 1_555
H7 C2 1_555 1_555
Zn11 O6 1_555 1_555
N3 H8 1_555 1_555
O3 C1 1_555 1_555
Zn4 O11 1_555 1_555
O4 Zn1 1_555 1_555
Zn5 N2 1_555 1_555
O5 Zn2 1_555 1_555
C5 N1 1_555 1_555
O6 Zn2 1_555 1_555
C6 C5 1_555 1_555
O7 Zn2 1_555 1_555
C7 C6 1_555 1_555
H20 C7 1_555 1_555
O8 Zn2 1_555 1_555
C8 N2 1_555 1_555
O9 Zn11 1_555 1_555
C9 C8 1_555 1_555
H23 C9 1_555 1_555
O10 Zn11 1_555 1_555
C10 C6 1_555 1_555
H24 C10 1_555 1_555
O11 C20 1_555 1_555
C11 N3 1_555 1_555
O12 Zn11 1_555 1_555
C12 C11 1_555 1_555
C13 C12 1_555 1_555
H25 C13 1_555 1_555
O14 Zn4 1_555 1_555
C14 C13 1_555 1_555
H26 C14 1_555 1_555
O15 Zn4 1_555 1_555
O16 Zn4 1_555 1_555
C16 C15 1_555 1_555
H27 C16 1_555 1_555
O17 C36 1_555 1_555
C17 C12 1_555 1_555
H28 C17 1_555 1_555
C18 O8 1_555 1_555
C20 O10 1_555 1_555
C21 C20 1_555 1_555
H32 C21 1_555 1_555
H33 C21 1_555 1_555
H34 C21 1_555 1_555
C36 O16 1_555 1_555
C37 C36 1_555 1_555
H43 C37 1_555 1_555
H44 C37 1_555 1_555
H45 C37 1_555 1_555
C38 C7 1_555 1_555
O34 Zn1 1_555 1_555
H87 O34 1_555 1_555
Zn15 O14 1_555 1_555
N19 Zn11 1_555 1_555
O39 Zn5 1_555 1_555
N1 O4 1_555 1_555
Zn2 O4 1_555 1_555
N3 O6 1_555 1_555
Zn4 O12 1_555 1_555
O5 C5 1_555 1_555
O7 C11 1_555 1_555
C8 C38 1_555 1_555
O9 C18 1_555 1_555
C9 C10 1_555 1_555
C14 C15 1_555 1_555
C16 C17 1_555 1_555
O17 Zn15 1_555 1_555
Zn1_2 O1 1_555 1_555
O1 H1 1_555 1_555
C3 O1 1_555 1_555
H9 C3 1_555 1_555
H10 C3 1_555 1_555
C4 C3 1_555 1_555
H13 C4 1_555 1_555
H14 C4 1_555 1_555
H15 C4 1_555 1_555
O35 Zn1_2 1_555 1_555
O36 Zn1_2 1_555 1_555
O38 Zn5_2 1_555 1_555
N5 H16 1_555 1_555
N19 H17 1_555 1_555
H18 N19 1_555 1_555
N7 H19 1_555 1_555
N8 H21 1_555 1_555
H22 N8 1_555 1_555
H29 C19 1_555 1_555
H30 C19 1_555 1_555
C22 N5 1_555 1_555
C23 C22 1_555 1_555
C24 C23 1_555 1_555
H35 C24 1_555 1_555
C25 C24 1_555 1_555
H36 C25 1_555 1_555
C26 N19 1_555 1_555
C27 C26 1_555 1_555
H37 C27 1_555 1_555
C28 C23 1_555 1_555
H38 C28 1_555 1_555
C29 N7 1_555 1_555
C30 C29 1_555 1_555
C31 C30 1_555 1_555
H39 C31 1_555 1_555
C32 C31 1_555 1_555
H40 C32 1_555 1_555
C33 N8 1_555 1_555
C34 C33 1_555 1_555
H41 C34 1_555 1_555
C35 C30 1_555 1_555
H42 C35 1_555 1_555
H88 C75 1_555 1_555
H89 C75 1_555 1_555
C76 C75 1_555 1_555
H90 C76 1_555 1_555
H91 C76 1_555 1_555
H92 C76 1_555 1_555
O13 C22 1_555 1_555
C25 C26 1_555 1_555
C27 C28 1_555 1_555
C32 C33 1_555 1_555
C34 C35 1_555 1_555
N13 H56 1_555 1_555
N14 H57 1_555 1_555
H58 N14 1_555 1_555
N15 H59 1_555 1_555
N16 H61 1_555 1_555
H62 N16 1_555 1_555
H69 C55 1_555 1_555
H70 C55 1_555 1_555
C58 N13 1_555 1_555
C59 C58 1_555 1_555
C60 C59 1_555 1_555
H75 C60 1_555 1_555
C61 C60 1_555 1_555
H76 C61 1_555 1_555
C62 N14 1_555 1_555
C63 C62 1_555 1_555
H77 C63 1_555 1_555
C64 C59 1_555 1_555
H78 C64 1_555 1_555
C65 N15 1_555 1_555
C66 C65 1_555 1_555
C67 C66 1_555 1_555
H79 C67 1_555 1_555
C68 C67 1_555 1_555
H80 C68 1_555 1_555
C69 N16 1_555 1_555
C70 C69 1_555 1_555
H81 C70 1_555 1_555
C71 C66 1_555 1_555
H82 C71 1_555 1_555
Zn13 N14 1_555 1_555
O29 C58 1_555 1_555
C61 C62 1_555 1_555
C63 C64 1_555 1_555
C68 C69 1_555 1_555
C70 C71 1_555 1_555
O37 Zn5_3 1_555 1_555
C39 O18 1_555 1_555
N9 H47 1_555 1_555
Zn6 O19 1_555 1_555
O18 Zn9_2 1_555 1_555
N10 Zn5_4 1_555 1_555
H48 N10 1_555 1_555
H49 N10 1_555 1_555
C40 C39 1_555 1_555
H50 C40 1_555 1_555
H51 C40 1_555 1_555
H52 C40 1_555 1_555
Zn13 O22 1_555 1_555
N11 H53 1_555 1_555
O19 C39 1_555 1_555
Zn8 O27 1_555 1_555
O20 N9 1_555 1_555
O21 Zn6 1_555 1_555
C41 N9 1_555 1_555
O22 Zn6 1_555 1_555
C42 C41 1_555 1_555
O23 Zn6 1_555 1_555
C43 C42 1_555 1_555
H60 C43 1_555 1_555
O24 Zn6 1_555 1_555
C44 N10 1_555 1_555
O25 Zn13 1_555 1_555
C45 C44 1_555 1_555
H63 C45 1_555 1_555
O26 Zn13 1_555 1_555
C46 C42 1_555 1_555
H64 C46 1_555 1_555
O27 C56 1_555 1_555
C47 N11 1_555 1_555
O28 Zn13 1_555 1_555
C48 C47 1_555 1_555
C49 C48 1_555 1_555
H65 C49 1_555 1_555
O30 Zn8 1_555 1_555
C50 C49 1_555 1_555
H66 C50 1_555 1_555
O31 Zn8 1_555 1_555
O32 Zn8 1_555 1_555
C52 C51 1_555 1_555
H67 C52 1_555 1_555
O33 C72 1_555 1_555
C53 C48 1_555 1_555
H68 C53 1_555 1_555
C54 O24 1_555 1_555
C56 O26 1_555 1_555
C57 C56 1_555 1_555
H72 C57 1_555 1_555
H73 C57 1_555 1_555
H74 C57 1_555 1_555
C72 O32 1_555 1_555
C73 C72 1_555 1_555
H83 C73 1_555 1_555
H84 C73 1_555 1_555
H85 C73 1_555 1_555
C74 C43 1_555 1_555
Zn9_2 O20 1_555 1_555
N18 Zn13 1_555 1_555
Zn15_2 O30 1_555 1_555
O40 Zn5_4 1_555 1_555
Zn6 O20 1_555 1_555
N11 O22 1_555 1_555
Zn8 O28 1_555 1_555
O21 C41 1_555 1_555
O23 C47 1_555 1_555
C44 C74 1_555 1_555
O25 C54 1_555 1_555
C45 C46 1_555 1_555
C50 C51 1_555 1_555
C52 C53 1_555 1_555
O33 Zn15_2 1_555 1_555
N18 H54 1_555 1_555
H55 N18 1_555 1_555
N13_2 H56_2 1_555 1_555
N14_2 H57_2 1_555 1_555
H58_2 N14_2 1_555 1_555
N15_2 H59_2 1_555 1_555
N16_2 H61_2 1_555 1_555
H62_2 N16_2 1_555 1_555
H69_2 C55_2 1_555 1_555
H70_2 C55_2 1_555 1_555
C58_2 N13_2 1_555 1_555
C59_2 C58_2 1_555 1_555
C60_2 C59_2 1_555 1_555
H75_2 C60_2 1_555 1_555
C61_2 C60_2 1_555 1_555
H76_2 C61_2 1_555 1_555
C62_2 N14_2 1_555 1_555
C63_2 C62_2 1_555 1_555
H77_2 C63_2 1_555 1_555
C64_2 C59_2 1_555 1_555
H78_2 C64_2 1_555 1_555
C65_2 N15_2 1_555 1_555
C66_2 C65_2 1_555 1_555
C67_2 C66_2 1_555 1_555
H79_2 C67_2 1_555 1_555
C68_2 C67_2 1_555 1_555
H80_2 C68_2 1_555 1_555
C69_2 N16_2 1_555 1_555
C70_2 C69_2 1_555 1_555
H81_2 C70_2 1_555 1_555
C71_2 C66_2 1_555 1_555
H82_2 C71_2 1_555 1_555
Zn13_2 N14_2 1_555 1_555
O29_2 C58_2 1_555 1_555
C61_2 C62_2 1_555 1_555
C63_2 C64_2 1_555 1_555
C68_2 C69_2 1_555 1_555
C70_2 C71_2 1_555 1_555
C39_2 O18_2 1_555 1_555
N9_2 H47_2 1_555 1_555
Zn6_2 O19_2 1_555 1_555
O18_2 Zn9_3 1_555 1_555
N10_2 Zn5_5 1_555 1_555
H48_2 N10_2 1_555 1_555
H49_2 N10_2 1_555 1_555
C40_2 C39_2 1_555 1_555
H50_2 C40_2 1_555 1_555
H51_2 C40_2 1_555 1_555
H52_2 C40_2 1_555 1_555
Zn13_2 O22_2 1_555 1_555
N11_2 H53_2 1_555 1_555
O19_2 C39_2 1_555 1_555
Zn8_2 O27_2 1_555 1_555
O20_2 N9_2 1_555 1_555
O21_2 Zn6_2 1_555 1_555
C41_2 N9_2 1_555 1_555
O22_2 Zn6_2 1_555 1_555
C42_2 C41_2 1_555 1_555
O23_2 Zn6_2 1_555 1_555
C43_2 C42_2 1_555 1_555
H60_2 C43_2 1_555 1_555
O24_2 Zn6_2 1_555 1_555
C44_2 N10_2 1_555 1_555
O25_2 Zn13_2 1_555 1_555
C45_2 C44_2 1_555 1_555
H63_2 C45_2 1_555 1_555
O26_2 Zn13_2 1_555 1_555
C46_2 C42_2 1_555 1_555
H64_2 C46_2 1_555 1_555
O27_2 C56_2 1_555 1_555
C47_2 N11_2 1_555 1_555
O28_2 Zn13_2 1_555 1_555
C48_2 C47_2 1_555 1_555
C49_2 C48_2 1_555 1_555
H65_2 C49_2 1_555 1_555
O30_2 Zn8_2 1_555 1_555
C50_2 C49_2 1_555 1_555
H66_2 C50_2 1_555 1_555
O31_2 Zn8_2 1_555 1_555
O32_2 Zn8_2 1_555 1_555
C52_2 C51_2 1_555 1_555
H67_2 C52_2 1_555 1_555
O33_2 C72_2 1_555 1_555
C53_2 C48_2 1_555 1_555
H68_2 C53_2 1_555 1_555
C54_2 O24_2 1_555 1_555
C56_2 O26_2 1_555 1_555
C57_2 C56_2 1_555 1_555
H72_2 C57_2 1_555 1_555
H73_2 C57_2 1_555 1_555
H74_2 C57_2 1_555 1_555
C72_2 O32_2 1_555 1_555
C73_2 C72_2 1_555 1_555
H83_2 C73_2 1_555 1_555
H84_2 C73_2 1_555 1_555
H85_2 C73_2 1_555 1_555
C74_2 C43_2 1_555 1_555
H86_2 C74_2 1_555 1_555
Zn9_3 O20_2 1_555 1_555
N18_2 Zn13_2 1_555 1_555
Zn14_4 O30_2 1_555 1_555
O37_2 Zn5_5 1_555 1_555
O40_2 Zn5_5 1_555 1_555
Zn6_2 O20_2 1_555 1_555
N11_2 O22_2 1_555 1_555
Zn8_2 O28_2 1_555 1_555
O21_2 C41_2 1_555 1_555
O23_2 C47_2 1_555 1_555
C44_2 C74_2 1_555 1_555
O25_2 C54_2 1_555 1_555
C45_2 C46_2 1_555 1_555
C50_2 C51_2 1_555 1_555
C52_2 C53_2 1_555 1_555
O33_2 Zn14_4 1_555 1_555
N18_2 H54_2 1_555 1_555
H55_2 N18_2 1_555 1_555
N4_2 H11_2 1_555 1_555
H12_2 N4_2 1_555 1_555
Zn11_2 N4_2 1_555 1_555
Zn1_3 O1_2 1_555 1_555
O1_2 H1_2 1_555 1_555
C1_2 O2_2 1_555 1_555
N1_2 H2_2 1_555 1_555
Zn2_2 O3_2 1_555 1_555
O2_2 Zn1_3 1_555 1_555
N2_2 H3_2 1_555 1_555
H4_2 N2_2 1_555 1_555
C2_2 C1_2 1_555 1_555
H5_2 C2_2 1_555 1_555
H6_2 C2_2 1_555 1_555
H7_2 C2_2 1_555 1_555
Zn11_2 O6_2 1_555 1_555
N3_2 H8_2 1_555 1_555
O3_2 C1_2 1_555 1_555
C3_2 O1_2 1_555 1_555
H9_2 C3_2 1_555 1_555
H10_2 C3_2 1_555 1_555
Zn4_2 O11_2 1_555 1_555
O4_2 Zn1_3 1_555 1_555
C4_2 C3_2 1_555 1_555
H13_2 C4_2 1_555 1_555
H14_2 C4_2 1_555 1_555
H15_2 C4_2 1_555 1_555
Zn5_6 N2_2 1_555 1_555
O5_2 Zn2_2 1_555 1_555
C5_2 N1_2 1_555 1_555
O6_2 Zn2_2 1_555 1_555
C6_2 C5_2 1_555 1_555
O7_2 Zn2_2 1_555 1_555
C7_2 C6_2 1_555 1_555
H20_2 C7_2 1_555 1_555
O8_2 Zn2_2 1_555 1_555
C8_2 N2_2 1_555 1_555
O9_2 Zn11_2 1_555 1_555
C9_2 C8_2 1_555 1_555
H23_2 C9_2 1_555 1_555
O10_2 Zn11_2 1_555 1_555
C10_2 C6_2 1_555 1_555
H24_2 C10_2 1_555 1_555
O11_2 C20_2 1_555 1_555
C11_2 N3_2 1_555 1_555
O12_2 Zn11_2 1_555 1_555
C12_2 C11_2 1_555 1_555
C13_2 C12_2 1_555 1_555
H25_2 C13_2 1_555 1_555
O14_2 Zn4_2 1_555 1_555
C14_2 C13_2 1_555 1_555
H26_2 C14_2 1_555 1_555
O15_2 Zn4_2 1_555 1_555
O16_2 Zn4_2 1_555 1_555
C16_2 C15_2 1_555 1_555
H27_2 C16_2 1_555 1_555
O17_2 C36_2 1_555 1_555
C17_2 C12_2 1_555 1_555
H28_2 C17_2 1_555 1_555
C18_2 O8_2 1_555 1_555
C20_2 O10_2 1_555 1_555
C21_2 C20_2 1_555 1_555
H32_2 C21_2 1_555 1_555
H33_2 C21_2 1_555 1_555
H34_2 C21_2 1_555 1_555
C36_2 O16_2 1_555 1_555
C37_2 C36_2 1_555 1_555
H43_2 C37_2 1_555 1_555
H44_2 C37_2 1_555 1_555
H45_2 C37_2 1_555 1_555
C38_2 C7_2 1_555 1_555
H46_2 C38_2 1_555 1_555
O34_2 Zn1_3 1_555 1_555
H87_2 O34_2 1_555 1_555
O35_2 Zn1_3 1_555 1_555
O36_2 Zn1_3 1_555 1_555
Zn14 O14_2 1_555 1_555
N19_2 Zn11_2 1_555 1_555
O38_2 Zn5_6 1_555 1_555
O39_2 Zn5_6 1_555 1_555
N1_2 O4_2 1_555 1_555
Zn2_2 O4_2 1_555 1_555
N3_2 O6_2 1_555 1_555
Zn4_2 O12_2 1_555 1_555
O5_2 C5_2 1_555 1_555
O7_2 C11_2 1_555 1_555
C8_2 C38_2 1_555 1_555
O9_2 C18_2 1_555 1_555
C9_2 C10_2 1_555 1_555
C14_2 C15_2 1_555 1_555
C16_2 C17_2 1_555 1_555
O17_2 Zn14 1_555 1_555
N5_2 H16_2 1_555 1_555
N19_2 H17_2 1_555 1_555
H18_2 N19_2 1_555 1_555
N7_2 H19_2 1_555 1_555
N8_2 H21_2 1_555 1_555
H22_2 N8_2 1_555 1_555
H29_2 C19_2 1_555 1_555
H30_2 C19_2 1_555 1_555
C22_2 N5_2 1_555 1_555
C23_2 C22_2 1_555 1_555
C24_2 C23_2 1_555 1_555
H35_2 C24_2 1_555 1_555
C25_2 C24_2 1_555 1_555
H36_2 C25_2 1_555 1_555
C26_2 N19_2 1_555 1_555
C27_2 C26_2 1_555 1_555
H37_2 C27_2 1_555 1_555
C28_2 C23_2 1_555 1_555
H38_2 C28_2 1_555 1_555
C29_2 N7_2 1_555 1_555
C30_2 C29_2 1_555 1_555
C31_2 C30_2 1_555 1_555
H39_2 C31_2 1_555 1_555
C32_2 C31_2 1_555 1_555
H40_2 C32_2 1_555 1_555
C33_2 N8_2 1_555 1_555
C34_2 C33_2 1_555 1_555
H41_2 C34_2 1_555 1_555
C35_2 C30_2 1_555 1_555
H42_2 C35_2 1_555 1_555
H88_2 C75_2 1_555 1_555
H89_2 C75_2 1_555 1_555
C76_2 C75_2 1_555 1_555
H90_2 C76_2 1_555 1_555
H91_2 C76_2 1_555 1_555
H92_2 C76_2 1_555 1_555
O13_2 C22_2 1_555 1_555
C25_2 C26_2 1_555 1_555
C27_2 C28_2 1_555 1_555
C32_2 C33_2 1_555 1_555
C34_2 C35_2 1_555 1_555
N7_3 H19_3 1_555 1_555
N8_3 H21_3 1_555 1_555
H33_3 C21_3 1_555 1_555
H34_3 C21_3 1_555 1_555
C29_3 N7_3 1_555 1_555
C30_3 C29_3 1_555 1_555
C31_3 C30_3 1_555 1_555
H39_3 C31_3 1_555 1_555
C32_3 C31_3 1_555 1_555
H40_3 C32_3 1_555 1_555
C33_3 N8_3 1_555 1_555
C34_3 C33_3 1_555 1_555
H41_3 C34_3 1_555 1_555
C35_3 C30_3 1_555 1_555
H42_3 C35_3 1_555 1_555
N7_3 O37_2 1_555 1_555
O15_3 C29_3 1_555 1_555
C32_3 C33_3 1_555 1_555
C34_3 C35_3 1_555 1_555
N14_3 H57_3 1_555 1_555
H58_3 N14_3 1_555 1_555
C62_3 N14_3 1_555 1_555
C63_3 C62_3 1_555 1_555
H77_3 C63_3 1_555 1_555
Zn13_3 N14_3 1_555 1_555
N4_3 H11_3 1_555 1_555
H12_3 N4_3 1_555 1_555
C12_3 C11_3 1_555 1_555
C13_3 C12_3 1_555 1_555
H25_3 C13_3 1_555 1_555
C14_3 C13_3 1_555 1_555
H26_3 C14_3 1_555 1_555
C15_3 N4_3 1_555 1_555
C16_3 C15_3 1_555 1_555
H27_3 C16_3 1_555 1_555
C17_3 C12_3 1_555 1_555
H28_3 C17_3 1_555 1_555
Zn11_3 N4_3 1_555 1_555
O7_3 C11_3 1_555 1_555
C14_3 C15_3 1_555 1_555
C16_3 C17_3 1_555 1_555
H9_3 C3_3 1_555 1_555
H10_3 C3_3 1_555 1_555
C4_3 C3_3 1_555 1_555
H13_3 C4_3 1_555 1_555
H14_3 C4_3 1_555 1_555
H15_3 C4_3 1_555 1_555
C39_3 O35 1_555 1_555
N9_3 H47_3 1_555 1_555
Zn6_3 O19_3 1_555 1_555
N10_3 Zn14_2 1_555 1_555
H48_3 N10_3 1_555 1_555
H49_3 N10_3 1_555 1_555
C40_3 C39_3 1_555 1_555
H50_3 C40_3 1_555 1_555
H51_3 C40_3 1_555 1_555
H52_3 C40_3 1_555 1_555
Zn13_3 O22_3 1_555 1_555
N11_3 H53_3 1_555 1_555
O19_3 C39_3 1_555 1_555
Zn8_3 O27_3 1_555 1_555
O36 N9_3 1_555 1_555
O21_3 Zn6_3 1_555 1_555
N13_3 H56_3 1_555 1_555
C41_3 N9_3 1_555 1_555
O22_3 Zn6_3 1_555 1_555
C42_3 C41_3 1_555 1_555
C43_3 C42_3 1_555 1_555
H60_3 C43_3 1_555 1_555
O24_3 Zn6_3 1_555 1_555
C44_3 N10_3 1_555 1_555
O25_3 Zn13_3 1_555 1_555
C45_3 C44_3 1_555 1_555
H63_3 C45_3 1_555 1_555
O26_3 Zn13_3 1_555 1_555
C46_3 C42_3 1_555 1_555
H64_3 C46_3 1_555 1_555
O27_3 C56_3 1_555 1_555
O28_3 Zn13_3 1_555 1_555
O29_3 Zn8_3 1_555 1_555
O32_3 Zn8_3 1_555 1_555
O40_2 C72_3 1_555 1_555
C54_3 O24_3 1_555 1_555
C55_3 C54_3 1_555 1_555
H69_3 C55_3 1_555 1_555
H70_3 C55_3 1_555 1_555
H71_3 C55_3 1_555 1_555
C56_3 O26_3 1_555 1_555
C58_3 N13_3 1_555 1_555
C59_3 C58_3 1_555 1_555
C60_3 C59_3 1_555 1_555
H75_3 C60_3 1_555 1_555
C61_3 C60_3 1_555 1_555
H76_3 C61_3 1_555 1_555
C64_3 C59_3 1_555 1_555
H78_3 C64_3 1_555 1_555
C72_3 O32_3 1_555 1_555
C73_3 C72_3 1_555 1_555
H83_3 C73_3 1_555 1_555
H84_3 C73_3 1_555 1_555
H85_3 C73_3 1_555 1_555
C74_3 C43_3 1_555 1_555
N18_3 Zn13_3 1_555 1_555
Zn6_3 O36 1_555 1_555
N11_3 O22_3 1_555 1_555
Zn8_3 O28_3 1_555 1_555
O21_3 C41_3 1_555 1_555
N13_3 O28_3 1_555 1_555
C44_3 C74_3 1_555 1_555
O25_3 C54_3 1_555 1_555
C45_3 C46_3 1_555 1_555
O29_3 C58_3 1_555 1_555
C1_3 O2_3 1_555 1_555
N1_3 H2_3 1_555 1_555
Zn2_3 O3_3 1_555 1_555
O2_3 Zn9 1_555 1_555
N2_3 H3_3 1_555 1_555
H4_3 N2_3 1_555 1_555
C2_3 C1_3 1_555 1_555
H5_3 C2_3 1_555 1_555
H6_3 C2_3 1_555 1_555
H7_3 C2_3 1_555 1_555
Zn11_3 O6_3 1_555 1_555
N3_3 H8_3 1_555 1_555
O3_3 C1_3 1_555 1_555
Zn4_3 O11_3 1_555 1_555
O4_3 Zn9 1_555 1_555
Zn14_3 N2_3 1_555 1_555
O5_3 Zn2_3 1_555 1_555
N5_3 H16_3 1_555 1_555
C5_3 N1_3 1_555 1_555
O6_3 Zn2_3 1_555 1_555
C6_3 C5_3 1_555 1_555
C7_3 C6_3 1_555 1_555
H20_3 C7_3 1_555 1_555
O8_3 Zn2_3 1_555 1_555
C8_3 N2_3 1_555 1_555
O9_3 Zn11_3 1_555 1_555
C9_3 C8_3 1_555 1_555
H23_3 C9_3 1_555 1_555
O10_3 Zn11_3 1_555 1_555
C10_3 C6_3 1_555 1_555
H24_3 C10_3 1_555 1_555
O11_3 C20_3 1_555 1_555
O12_3 Zn11_3 1_555 1_555
O13_3 Zn4_3 1_555 1_555
O16_3 Zn4_3 1_555 1_555
O39_2 C36_3 1_555 1_555
C18_3 O8_3 1_555 1_555
C19_3 C18_3 1_555 1_555
H29_3 C19_3 1_555 1_555
H30_3 C19_3 1_555 1_555
H31_3 C19_3 1_555 1_555
C20_3 O10_3 1_555 1_555
C22_3 N5_3 1_555 1_555
C23_3 C22_3 1_555 1_555
C24_3 C23_3 1_555 1_555
H35_3 C24_3 1_555 1_555
C25_3 C24_3 1_555 1_555
H36_3 C25_3 1_555 1_555
C28_3 C23_3 1_555 1_555
H38_3 C28_3 1_555 1_555
C36_3 O16_3 1_555 1_555
C37_3 C36_3 1_555 1_555
H43_3 C37_3 1_555 1_555
H44_3 C37_3 1_555 1_555
H45_3 C37_3 1_555 1_555
C38_3 C7_3 1_555 1_555
O34_3 Zn9 1_555 1_555
H87_3 O34_3 1_555 1_555
C75_3 O34_3 1_555 1_555
H88_3 C75_3 1_555 1_555
H89_3 C75_3 1_555 1_555
C76_3 C75_3 1_555 1_555
H90_3 C76_3 1_555 1_555
H91_3 C76_3 1_555 1_555
H92_3 C76_3 1_555 1_555
N19_3 Zn11_3 1_555 1_555
N1_3 O4_3 1_555 1_555
Zn2_3 O4_3 1_555 1_555
N3_3 O6_3 1_555 1_555
Zn4_3 O12_3 1_555 1_555
O5_3 C5_3 1_555 1_555
N5_3 O12_3 1_555 1_555
C8_3 C38_3 1_555 1_555
O9_3 C18_3 1_555 1_555
C9_3 C10_3 1_555 1_555
O13_3 C22_3 1_555 1_555
Zn9_2 O1_3 1_555 1_555
O1_3 H1_3 1_555 1_555
N18_3 H54_3 1_555 1_555
H55_3 N18_3 1_555 1_555
C48_3 C47_3 1_555 1_555
C49_3 C48_3 1_555 1_555
H65_3 C49_3 1_555 1_555
C50_3 C49_3 1_555 1_555
H66_3 C50_3 1_555 1_555
C51_3 N18_3 1_555 1_555
C52_3 C51_3 1_555 1_555
H67_3 C52_3 1_555 1_555
C53_3 C48_3 1_555 1_555
H68_3 C53_3 1_555 1_555
O23_3 C47_3 1_555 1_555
C50_3 C51_3 1_555 1_555
C52_3 C53_3 1_555 1_555
N19_3 H17_3 1_555 1_555
H18_3 N19_3 1_555 1_555
C26_3 N19_3 1_555 1_555
C27_3 C26_3 1_555 1_555
H37_3 C27_3 1_555 1_555
N15_3 H59_3 1_555 1_555
N16_3 H61_3 1_555 1_555
H73_3 C57_3 1_555 1_555
H74_3 C57_3 1_555 1_555
C65_3 N15_3 1_555 1_555
C66_3 C65_3 1_555 1_555
C67_3 C66_3 1_555 1_555
H79_3 C67_3 1_555 1_555
C68_3 C67_3 1_555 1_555
H80_3 C68_3 1_555 1_555
C69_3 N16_3 1_555 1_555
C70_3 C69_3 1_555 1_555
H81_3 C70_3 1_555 1_555
C71_3 C66_3 1_555 1_555
H82_3 C71_3 1_555 1_555
N15_3 O38_2 1_555 1_555
O31_3 C65_3 1_555 1_555
C68_3 C69_3 1_555 1_555
C70_3 C71_3 1_555 1_555
N15_4 H59_4 1_555 1_555
N16_4 H61_4 1_555 1_555
H73_4 C57_4 1_555 1_555
H74_4 C57_4 1_555 1_555
C65_4 N15_4 1_555 1_555
C66_4 C65_4 1_555 1_555
C67_4 C66_4 1_555 1_555
H79_4 C67_4 1_555 1_555
C68_4 C67_4 1_555 1_555
H80_4 C68_4 1_555 1_555
C69_4 N16_4 1_555 1_555
C70_4 C69_4 1_555 1_555
H81_4 C70_4 1_555 1_555
C71_4 C66_4 1_555 1_555
H82_4 C71_4 1_555 1_555
N15_4 O38 1_555 1_555
O31_4 C65_4 1_555 1_555
C68_4 C69_4 1_555 1_555
C70_4 C71_4 1_555 1_555
N14_4 H57_4 1_555 1_555
H58_4 N14_4 1_555 1_555
C62_4 N14_4 1_555 1_555
C63_4 C62_4 1_555 1_555
H77_4 C63_4 1_555 1_555
Zn13_4 N14_4 1_555 1_555
H9_4 C3_4 1_555 1_555
H10_4 C3_4 1_555 1_555
N4_4 H11_4 1_555 1_555
H12_4 N4_4 1_555 1_555
C4_4 C3_4 1_555 1_555
H13_4 C4_4 1_555 1_555
H14_4 C4_4 1_555 1_555
H15_4 C4_4 1_555 1_555
C12_4 C11_4 1_555 1_555
C13_4 C12_4 1_555 1_555
H25_4 C13_4 1_555 1_555
C14_4 C13_4 1_555 1_555
H26_4 C14_4 1_555 1_555
C15_4 N4_4 1_555 1_555
C16_4 C15_4 1_555 1_555
H27_4 C16_4 1_555 1_555
C17_4 C12_4 1_555 1_555
H28_4 C17_4 1_555 1_555
C39_4 O35_2 1_555 1_555
N9_4 H47_4 1_555 1_555
Zn6_4 O19_4 1_555 1_555
N10_4 Zn15 1_555 1_555
H48_4 N10_4 1_555 1_555
H49_4 N10_4 1_555 1_555
C40_4 C39_4 1_555 1_555
H50_4 C40_4 1_555 1_555
H51_4 C40_4 1_555 1_555
H52_4 C40_4 1_555 1_555
Zn13_4 O22_4 1_555 1_555
N11_4 H53_4 1_555 1_555
O19_4 C39_4 1_555 1_555
Zn8_4 O27_4 1_555 1_555
O36_2 N9_4 1_555 1_555
O21_4 Zn6_4 1_555 1_555
N13_4 H56_4 1_555 1_555
C41_4 N9_4 1_555 1_555
O22_4 Zn6_4 1_555 1_555
C42_4 C41_4 1_555 1_555
C43_4 C42_4 1_555 1_555
H60_4 C43_4 1_555 1_555
O24_4 Zn6_4 1_555 1_555
C44_4 N10_4 1_555 1_555
O25_4 Zn13_4 1_555 1_555
C45_4 C44_4 1_555 1_555
H63_4 C45_4 1_555 1_555
O26_4 Zn13_4 1_555 1_555
C46_4 C42_4 1_555 1_555
H64_4 C46_4 1_555 1_555
O27_4 C56_4 1_555 1_555
O28_4 Zn13_4 1_555 1_555
O29_4 Zn8_4 1_555 1_555
O32_4 Zn8_4 1_555 1_555
O40 C72_4 1_555 1_555
C54_4 O24_4 1_555 1_555
C55_4 C54_4 1_555 1_555
H69_4 C55_4 1_555 1_555
H70_4 C55_4 1_555 1_555
H71_4 C55_4 1_555 1_555
C56_4 O26_4 1_555 1_555
C58_4 N13_4 1_555 1_555
C59_4 C58_4 1_555 1_555
C60_4 C59_4 1_555 1_555
H75_4 C60_4 1_555 1_555
C61_4 C60_4 1_555 1_555
H76_4 C61_4 1_555 1_555
C64_4 C59_4 1_555 1_555
H78_4 C64_4 1_555 1_555
C72_4 O32_4 1_555 1_555
C73_4 C72_4 1_555 1_555
H83_4 C73_4 1_555 1_555
H84_4 C73_4 1_555 1_555
H85_4 C73_4 1_555 1_555
C74_4 C43_4 1_555 1_555
H86_4 C74_4 1_555 1_555
Zn11_4 N4_4 1_555 1_555
N18_4 Zn13_4 1_555 1_555
O7_4 C11_4 1_555 1_555
C14_4 C15_4 1_555 1_555
C16_4 C17_4 1_555 1_555
Zn6_4 O36_2 1_555 1_555
N11_4 O22_4 1_555 1_555
Zn8_4 O28_4 1_555 1_555
O21_4 C41_4 1_555 1_555
N13_4 O28_4 1_555 1_555
C44_4 C74_4 1_555 1_555
O25_4 C54_4 1_555 1_555
C45_4 C46_4 1_555 1_555
O29_4 C58_4 1_555 1_555
Zn9_3 O1_4 1_555 1_555
O1_4 H1_4 1_555 1_555
C1_4 O2_4 1_555 1_555
N1_4 H2_4 1_555 1_555
Zn2_4 O3_4 1_555 1_555
O2_4 Zn9_3 1_555 1_555
N2_4 H3_4 1_555 1_555
H4_4 N2_4 1_555 1_555
C2_4 C1_4 1_555 1_555
H5_4 C2_4 1_555 1_555
H6_4 C2_4 1_555 1_555
H7_4 C2_4 1_555 1_555
Zn11_4 O6_4 1_555 1_555
N3_4 H8_4 1_555 1_555
O3_4 C1_4 1_555 1_555
Zn4_4 O11_4 1_555 1_555
O4_4 Zn9_3 1_555 1_555
Zn15_2 N2_4 1_555 1_555
O5_4 Zn2_4 1_555 1_555
N5_4 H16_4 1_555 1_555
C5_4 N1_4 1_555 1_555
O6_4 Zn2_4 1_555 1_555
C6_4 C5_4 1_555 1_555
C7_4 C6_4 1_555 1_555
H20_4 C7_4 1_555 1_555
O8_4 Zn2_4 1_555 1_555
C8_4 N2_4 1_555 1_555
O9_4 Zn11_4 1_555 1_555
C9_4 C8_4 1_555 1_555
H23_4 C9_4 1_555 1_555
O10_4 Zn11_4 1_555 1_555
C10_4 C6_4 1_555 1_555
H24_4 C10_4 1_555 1_555
O11_4 C20_4 1_555 1_555
O12_4 Zn11_4 1_555 1_555
O13_4 Zn4_4 1_555 1_555
O16_4 Zn4_4 1_555 1_555
O39 C36_4 1_555 1_555
C18_4 O8_4 1_555 1_555
C19_4 C18_4 1_555 1_555
H29_4 C19_4 1_555 1_555
H30_4 C19_4 1_555 1_555
H31_4 C19_4 1_555 1_555
C20_4 O10_4 1_555 1_555
C22_4 N5_4 1_555 1_555
C23_4 C22_4 1_555 1_555
C24_4 C23_4 1_555 1_555
H35_4 C24_4 1_555 1_555
C25_4 C24_4 1_555 1_555
H36_4 C25_4 1_555 1_555
C28_4 C23_4 1_555 1_555
H38_4 C28_4 1_555 1_555
C36_4 O16_4 1_555 1_555
C37_4 C36_4 1_555 1_555
H43_4 C37_4 1_555 1_555
H44_4 C37_4 1_555 1_555
H45_4 C37_4 1_555 1_555
C38_4 C7_4 1_555 1_555
H46_4 C38_4 1_555 1_555
N18_4 H54_4 1_555 1_555
H55_4 N18_4 1_555 1_555
C48_4 C47_4 1_555 1_555
C49_4 C48_4 1_555 1_555
H65_4 C49_4 1_555 1_555
C50_4 C49_4 1_555 1_555
H66_4 C50_4 1_555 1_555
C51_4 N18_4 1_555 1_555
C52_4 C51_4 1_555 1_555
H67_4 C52_4 1_555 1_555
C53_4 C48_4 1_555 1_555
H68_4 C53_4 1_555 1_555
O34_4 Zn9_3 1_555 1_555
H87_4 O34_4 1_555 1_555
C75_4 O34_4 1_555 1_555
H88_4 C75_4 1_555 1_555
H89_4 C75_4 1_555 1_555
C76_4 C75_4 1_555 1_555
H90_4 C76_4 1_555 1_555
H91_4 C76_4 1_555 1_555
H92_4 C76_4 1_555 1_555
N19_4 Zn11_4 1_555 1_555
N1_4 O4_4 1_555 1_555
Zn2_4 O4_4 1_555 1_555
N3_4 O6_4 1_555 1_555
Zn4_4 O12_4 1_555 1_555
O5_4 C5_4 1_555 1_555
N5_4 O12_4 1_555 1_555
C8_4 C38_4 1_555 1_555
O9_4 C18_4 1_555 1_555
C9_4 C10_4 1_555 1_555
O13_4 C22_4 1_555 1_555
O23_4 C47_4 1_555 1_555
C50_4 C51_4 1_555 1_555
C52_4 C53_4 1_555 1_555
N19_4 H17_4 1_555 1_555
H18_4 N19_4 1_555 1_555
C26_4 N19_4 1_555 1_555
C27_4 C26_4 1_555 1_555
H37_4 C27_4 1_555 1_555
N7_4 H19_4 1_555 1_555
N8_4 H21_4 1_555 1_555
H33_4 C21_4 1_555 1_555
H34_4 C21_4 1_555 1_555
C29_4 N7_4 1_555 1_555
C30_4 C29_4 1_555 1_555
C31_4 C30_4 1_555 1_555
H39_4 C31_4 1_555 1_555
C32_4 C31_4 1_555 1_555
H40_4 C32_4 1_555 1_555
C33_4 N8_4 1_555 1_555
C34_4 C33_4 1_555 1_555
H41_4 C34_4 1_555 1_555
C35_4 C30_4 1_555 1_555
H42_4 C35_4 1_555 1_555
N7_4 O37 1_555 1_555
O15_4 C29_4 1_555 1_555
C32_4 C33_4 1_555 1_555
C34_4 C35_4 1_555 1_555

#END
