
###############################################################################
#
# This file contains modified crystal structure data generated from the
# MOF subset of the Cambridge Structural Database (CSD) v543 
# hosted by the Cambridge Crystallographic Data Centre (CCDC).
#
# This work is licensed under the Creative Commons
# Attribution-NonCommercial-ShareAlike 4.0 International License.
# To view a copy of this license, visit
# http://creativecommons.org/licenses/by-nc-sa/4.0/
# or send a letter to
# Creative Commons, PO Box 1866, Mountain View, CA 94042, USA.
#
# CIF created using the CSD Python API on 29 September 2022
# The structure has been converted into the P1 space group
# The structure has a 3D framework
# The original CSD entry MOMSUE is in the monoclinic crystal system
# The framework has been calculated to contain at least 10.0% void space
# The void calculation uses a probe of radius 1.32A, grid spacing 0.4
# H atom positions have been added when not included in the experimental data
#
###############################################################################

data_MOMSUE
_chemical_formula_moiety         '(C112 H256 Ge144 K16 N16 O48)n'
_symmetry_cell_setting           triclinic
_symmetry_space_group_name_H-M   'P 1'
_symmetry_Int_Tables_number      1
_space_group_name_Hall           'P 1'
loop_
_symmetry_equiv_pos_site_id
_symmetry_equiv_pos_as_xyz
1 x,y,z
_cell_length_a                   41.545(11)
_cell_length_b                   16.537(4)
_cell_length_c                   27.950(7)
_cell_angle_alpha                90
_cell_angle_beta                 106.346(3)
_cell_angle_gamma                90
_cell_volume                     18426.3
loop_
_atom_site_label
_atom_site_type_symbol
_atom_site_fract_x
_atom_site_fract_y
_atom_site_fract_z
Ge12 Ge 0.07273(3) 0.03802(8) 0.46735(5)
Ge13 Ge 0.12302(2) 0.05194(7) 0.54863(5)
Ge15 Ge 0.06009(3) 0.10633(7) 0.54458(5)
Ge18 Ge 0.10251(3) 0.06457(9) 0.62723(5)
K2 K 0.19179(5) 0.03118(15) 0.66548(9)
O2 O 0.1862(2) 0.1185(6) 0.7523(3)
O3 O 0.2037(3) 0.2025(6) 0.6736(4)
O4 O 0.2359(3) 0.1201(7) 0.6149(4)
C1 C 0.1780(4) 0.0010(10) 0.7925(5)
C2 C 0.1636(3) 0.0815(10) 0.7717(5)
C3 C 0.1759(4) 0.2031(8) 0.7408(6)
C4 C 0.2012(5) 0.2436(10) 0.7172(6)
C5 C 0.2239(5) 0.2442(11) 0.6487(7)
C6 C 0.2213(6) 0.1989(11) 0.6011(8)
C7 C 0.2322(5) 0.0712(13) 0.5730(6)
H1 H 0.140153 0.072348 0.742647
H2 H 0.158999 0.118562 0.801305
H3 H 0.19317 0.305548 0.707245
H4 H 0.225789 0.24395 0.744457
H9 H 0.195099 0.192817 0.579722
H10 H 0.234974 0.23087 0.578894
H13 H 0.242887 0.101363 0.54637
H14 H 0.205702 0.0592661 0.55561
H24 H 0.276426 0.000218869 0.614361
H27 H 0.175774 0.234719 0.774924
H28 H 0.150886 0.205019 0.714721
H29 H 0.249846 0.245395 0.671722
H30 H 0.214856 0.305877 0.640443
H31 H 0.202134 0.0102406 0.820011
Ge1 Ge 0.15222(2) 0.84610(6) 0.49687(4)
Ge2 Ge 0.22011(2) 0.77055(6) 0.49142(4)
Ge3 Ge 0.10226(2) 0.91173(6) 0.51090(4)
Ge4 Ge 0.02912(2) 0.97517(6) 0.50503(4)
Ge5 Ge 0.19736(3) 0.78671(7) 0.39497(4)
Ge6 Ge 0.12509(2) 0.71288(7) 0.45065(5)
Ge7 Ge 0.18442(3) 0.64774(6) 0.44653(4)
Ge8 Ge 0.05906(3) 0.84819(7) 0.54899(5)
Ge9 Ge 0.19459(3) 0.90679(6) 0.45696(5)
Ge10 Ge 0.17675(3) 0.70989(7) 0.53000(4)
Ge11 Ge 0.11318(3) 0.91618(8) 0.60721(4)
Ge14 Ge 0.05089(3) 0.97167(8) 0.60267(5)
Ge16 Ge 0.13809(3) 0.85337(7) 0.39900(4)
Ge17 Ge 0.14204(3) 0.70675(9) 0.36817(4)
K1 K 0.04965(13) 0.8476(4) 0.3983(2)
O1 O 0.1825(2) 0.9506(6) 0.7518(3)
O5 O 0.2312(2) 0.9524(7) 0.6164(4)
O6 O 0.2195(2) 0.8676(5) 0.6957(4)
C8 C 0.2512(4) 0.9894(11) 0.5903(6)
C9 C 0.2415(4) 0.8701(10) 0.6264(6)
C10 C 0.2177(4) 0.8284(8) 0.6512(6)
C11 C 0.1993(5) 0.8288(9) 0.7197(7)
C12 C 0.1975(4) 0.8774(10) 0.7673(6)
Ge19 Ge 0.27989(2) 0.72945(6) 0.50858(4)
N3 N 0.0606(8) 0.806(6) 0.291(2)
H5 H 0.192161 0.831471 0.626811
H6 H 0.225005 0.76536 0.658539
H11 H 0.182748 0.84384 0.787226
H12 H 0.222698 0.887034 0.791766
H21 H 0.209415 0.768787 0.730941
H22 H 0.174146 0.823295 0.694337
H23 H 0.252557 0.953003 0.558455
H25 H 0.266949 0.868146 0.651158
H26 H 0.240718 0.839471 0.5916
H32 H 0.160887 0.971195 0.810066
Ge20 Ge 0.97088(2) 0.02483(6) 0.49497(4)
N1 N 0.9809(6) 0.885(2) 0.3139(13)
N2 N 0.9394(8) 0.806(6) 0.209(2)
C13 C 0.9538(18) 0.814(3) 0.288(4)
C14 C 0.9346(12) 0.848(3) 0.2612(14)
K3 K 0.95035(13) 0.8476(4) 0.1017(2)
H7 H 0.918313 0.771743 0.198352
H8 H 0.959507 0.769797 0.223533
H15 H 0.943627 0.78455 0.315429
H16 H 0.965214 0.768831 0.269563
H17 H 0.987589 0.912176 0.285567
H18 H 0.968146 0.924911 0.329306
H19 H 0.909681 0.83745 0.265466
H20 H 0.93979 0.912651 0.263089
Ge20_2 Ge 0.02912(2) 0.02483(6) 0.00503(4)
N1_2 N 0.0191(6) 0.885(2) 0.1861(13)
C13_2 C 0.0462(18) 0.814(3) 0.212(4)
C14_2 C 0.0654(12) 0.848(3) 0.2388(14)
H7_2 H 0.081687 0.771743 0.301648
H8_2 H 0.0404934 0.769797 0.276467
H15_2 H 0.0563731 0.78455 0.184571
H16_2 H 0.0347857 0.768831 0.230437
H17_2 H 0.0124106 0.912176 0.214433
H18_2 H 0.0318542 0.924911 0.170694
H19_2 H 0.0903192 0.83745 0.234534
H20_2 H 0.0602101 0.912651 0.236911
Ge1_2 Ge 0.84778(2) 0.84610(6) 0.00313(4)
Ge2_2 Ge 0.77989(2) 0.77055(6) 0.00858(4)
Ge5_2 Ge 0.80264(3) 0.78671(7) 0.10503(4)
Ge6_2 Ge 0.87491(2) 0.71288(7) 0.04935(5)
Ge7_2 Ge 0.81558(3) 0.64774(6) 0.05347(4)
Ge9_2 Ge 0.80541(3) 0.90679(6) 0.04304(5)
Ge16_2 Ge 0.86191(3) 0.85337(7) 0.10100(4)
Ge17_2 Ge 0.85796(3) 0.70675(9) 0.13183(4)
Ge3_2 Ge 0.89774(2) 0.91173(6) 0.98910(4)
Ge4_2 Ge 0.97088(2) 0.97517(6) 0.99497(4)
Ge8_2 Ge 0.94094(3) 0.84819(7) 0.95101(5)
Ge10_2 Ge 0.82325(3) 0.70989(7) 0.97000(4)
Ge11_2 Ge 0.88682(3) 0.91618(8) 0.89279(4)
Ge14_2 Ge 0.94911(3) 0.97167(8) 0.89733(5)
O1_2 O 0.8175(2) 0.9506(6) 0.7482(3)
O5_2 O 0.7688(2) 0.9524(7) 0.8836(4)
O6_2 O 0.7805(2) 0.8676(5) 0.8043(4)
C8_2 C 0.7488(4) 0.9894(11) 0.9097(6)
C9_2 C 0.7585(4) 0.8701(10) 0.8736(6)
C10_2 C 0.7823(4) 0.8284(8) 0.8488(6)
C11_2 C 0.8007(5) 0.8288(9) 0.7803(7)
C12_2 C 0.8025(4) 0.8774(10) 0.7327(6)
Ge19_2 Ge 0.72011(2) 0.72945(6) 0.99142(4)
H5_2 H 0.807839 0.831471 0.873189
H6_2 H 0.774995 0.76536 0.841461
H11_2 H 0.817252 0.84384 0.712774
H12_2 H 0.777302 0.887034 0.708234
H21_2 H 0.790585 0.768787 0.769059
H22_2 H 0.825854 0.823295 0.805663
H23_2 H 0.747443 0.953003 0.941545
H25_2 H 0.733051 0.868146 0.848842
H26_2 H 0.759282 0.839471 0.9084
H32_2 H 0.839113 0.971195 0.689934
Ge1_3 Ge 0.65222(2) 0.34610(6) 0.49687(4)
Ge2_3 Ge 0.72011(2) 0.27055(6) 0.49142(4)
Ge3_3 Ge 0.60226(2) 0.41173(6) 0.51090(4)
Ge4_3 Ge 0.52912(2) 0.47517(6) 0.50503(4)
Ge5_3 Ge 0.69736(3) 0.28671(7) 0.39497(4)
Ge6_3 Ge 0.62509(2) 0.21288(7) 0.45065(5)
Ge7_3 Ge 0.68442(3) 0.14774(6) 0.44653(4)
Ge8_3 Ge 0.55906(3) 0.34819(7) 0.54899(5)
Ge9_3 Ge 0.69459(3) 0.40679(6) 0.45696(5)
Ge10_3 Ge 0.67675(3) 0.20989(7) 0.53000(4)
Ge11_3 Ge 0.61318(3) 0.41618(8) 0.60721(4)
Ge12_2 Ge 0.57273(3) 0.53802(8) 0.46735(5)
Ge13_2 Ge 0.62302(2) 0.55194(7) 0.54863(5)
Ge14_3 Ge 0.55089(3) 0.47167(8) 0.60267(5)
Ge15_2 Ge 0.56009(3) 0.60633(7) 0.54458(5)
Ge16_3 Ge 0.63809(3) 0.35337(7) 0.39900(4)
Ge17_3 Ge 0.64204(3) 0.20675(9) 0.36817(4)
Ge18_2 Ge 0.60251(3) 0.56457(9) 0.62723(5)
K1_2 K 0.54965(13) 0.3476(4) 0.3983(2)
K2_2 K 0.69179(5) 0.53118(15) 0.66548(9)
O1_3 O 0.6825(2) 0.4506(6) 0.7518(3)
O2_2 O 0.6862(2) 0.6185(6) 0.7523(3)
O3_2 O 0.7037(3) 0.7025(6) 0.6736(4)
O4_2 O 0.7359(3) 0.6201(7) 0.6149(4)
O5_3 O 0.7312(2) 0.4524(7) 0.6164(4)
O6_3 O 0.7195(2) 0.3676(5) 0.6957(4)
N1_3 N 0.4809(6) 0.385(2) 0.3139(13)
N2_2 N 0.4394(8) 0.306(6) 0.209(2)
C1_2 C 0.6780(4) 0.5010(10) 0.7925(5)
C2_2 C 0.6636(3) 0.5815(10) 0.7717(5)
C3_2 C 0.6759(4) 0.7031(8) 0.7408(6)
C4_2 C 0.7012(5) 0.7436(10) 0.7172(6)
C5_2 C 0.7239(5) 0.7442(11) 0.6487(7)
C6_2 C 0.7213(6) 0.6989(11) 0.6011(8)
C7_2 C 0.7322(5) 0.5712(13) 0.5730(6)
C8_3 C 0.7512(4) 0.4894(11) 0.5903(6)
C9_3 C 0.7415(4) 0.3701(10) 0.6264(6)
C10_3 C 0.7177(4) 0.3284(8) 0.6512(6)
C11_3 C 0.6993(5) 0.3288(9) 0.7197(7)
C12_3 C 0.6975(4) 0.3774(10) 0.7673(6)
C13_3 C 0.4538(18) 0.314(3) 0.288(4)
C14_3 C 0.4346(12) 0.348(3) 0.2612(14)
Ge19_3 Ge 0.77989(2) 0.22945(6) 0.50858(4)
Ge20_3 Ge 0.47088(2) 0.52483(6) 0.49497(4)
K3_2 K 0.45035(13) 0.3476(4) 0.1017(2)
N3_2 N 0.5606(8) 0.306(6) 0.291(2)
H1_2 H 0.640153 0.572348 0.742647
H2_2 H 0.658999 0.618562 0.801305
H3_2 H 0.69317 0.805548 0.707245
H4_2 H 0.725789 0.74395 0.744457
H5_3 H 0.692161 0.331471 0.626811
H6_3 H 0.725005 0.26536 0.658539
H7_3 H 0.418313 0.271743 0.198352
H8_3 H 0.459507 0.269797 0.223533
H9_2 H 0.695099 0.692817 0.579722
H10_2 H 0.734974 0.73087 0.578894
H11_3 H 0.682748 0.34384 0.787226
H12_3 H 0.722698 0.387034 0.791766
H13_2 H 0.742887 0.601363 0.54637
H14_2 H 0.705702 0.559266 0.55561
H15_3 H 0.443627 0.28455 0.315429
H16_3 H 0.465214 0.268831 0.269563
H17_3 H 0.487589 0.412176 0.285567
H18_3 H 0.468146 0.424911 0.329306
H19_3 H 0.409681 0.33745 0.265466
H20_3 H 0.43979 0.412651 0.263089
H21_3 H 0.709415 0.268787 0.730941
H22_3 H 0.674146 0.323295 0.694337
H23_3 H 0.752557 0.453003 0.558455
H24_2 H 0.776426 0.500219 0.614361
H25_3 H 0.766949 0.368146 0.651158
H26_3 H 0.740718 0.339471 0.5916
H27_2 H 0.675774 0.734719 0.774924
H28_2 H 0.650886 0.705019 0.714721
H29_2 H 0.749846 0.745395 0.671722
H30_2 H 0.714856 0.805877 0.640443
H31_2 H 0.702134 0.510241 0.820011
H32_3 H 0.660887 0.471195 0.810066
Ge1_4 Ge 0.34778(2) 0.34610(6) 0.00313(4)
Ge2_4 Ge 0.27989(2) 0.27055(6) 0.00858(4)
Ge5_4 Ge 0.30264(3) 0.28671(7) 0.10503(4)
Ge6_4 Ge 0.37491(2) 0.21288(7) 0.04935(5)
Ge7_4 Ge 0.31558(3) 0.14774(6) 0.05347(4)
Ge9_4 Ge 0.30541(3) 0.40679(6) 0.04304(5)
Ge12_3 Ge 0.42727(3) 0.53802(8) 0.03265(5)
Ge16_4 Ge 0.36191(3) 0.35337(7) 0.10100(4)
Ge17_4 Ge 0.35796(3) 0.20675(9) 0.13183(4)
N1_4 N 0.5191(6) 0.385(2) 0.1861(13)
C13_4 C 0.5462(18) 0.314(3) 0.212(4)
C14_4 C 0.5654(12) 0.348(3) 0.2388(14)
Ge20_4 Ge 0.52912(2) 0.52483(6) 0.00503(4)
H7_4 H 0.581687 0.271743 0.301648
H8_4 H 0.540493 0.269797 0.276467
H15_4 H 0.556373 0.28455 0.184571
H16_4 H 0.534786 0.268831 0.230437
H17_4 H 0.512411 0.412176 0.214433
H18_4 H 0.531854 0.424911 0.170694
H19_4 H 0.590319 0.33745 0.234534
H20_4 H 0.56021 0.412651 0.236911
Ge3_4 Ge 0.39774(2) 0.41173(6) 0.98910(4)
Ge4_4 Ge 0.47088(2) 0.47517(6) 0.99497(4)
Ge8_4 Ge 0.44094(3) 0.34819(7) 0.95101(5)
Ge10_4 Ge 0.32325(3) 0.20989(7) 0.97000(4)
Ge11_4 Ge 0.38682(3) 0.41618(8) 0.89279(4)
Ge13_3 Ge 0.37698(2) 0.55194(7) 0.95137(5)
Ge14_4 Ge 0.44911(3) 0.47167(8) 0.89733(5)
Ge15_3 Ge 0.43991(3) 0.60633(7) 0.95542(5)
Ge18_3 Ge 0.39749(3) 0.56457(9) 0.87277(5)
K2_3 K 0.30821(5) 0.53118(15) 0.83452(9)
O1_4 O 0.3175(2) 0.4506(6) 0.7482(3)
O2_3 O 0.3138(2) 0.6185(6) 0.7477(3)
O3_3 O 0.2963(3) 0.7025(6) 0.8264(4)
O4_3 O 0.2641(3) 0.6201(7) 0.8851(4)
O5_4 O 0.2688(2) 0.4524(7) 0.8836(4)
O6_4 O 0.2805(2) 0.3676(5) 0.8043(4)
C1_3 C 0.3220(4) 0.5010(10) 0.7075(5)
C2_3 C 0.3364(3) 0.5815(10) 0.7283(5)
C3_3 C 0.3241(4) 0.7031(8) 0.7592(6)
C4_3 C 0.2988(5) 0.7436(10) 0.7828(6)
C5_3 C 0.2761(5) 0.7442(11) 0.8513(7)
C6_3 C 0.2787(6) 0.6989(11) 0.8989(8)
C7_3 C 0.2678(5) 0.5712(13) 0.9270(6)
C8_4 C 0.2488(4) 0.4894(11) 0.9097(6)
C9_4 C 0.2585(4) 0.3701(10) 0.8736(6)
C10_4 C 0.2823(4) 0.3284(8) 0.8488(6)
C11_4 C 0.3007(5) 0.3288(9) 0.7803(7)
C12_4 C 0.3025(4) 0.3774(10) 0.7327(6)
Ge19_4 Ge 0.22011(2) 0.22945(6) 0.99142(4)
H1_3 H 0.359847 0.572348 0.757353
H2_3 H 0.341001 0.618562 0.698695
H3_3 H 0.30683 0.805548 0.792755
H4_3 H 0.274211 0.74395 0.755543
H5_4 H 0.307839 0.331471 0.873189
H6_4 H 0.274995 0.26536 0.841461
H9_3 H 0.304901 0.692817 0.920278
H10_3 H 0.265026 0.73087 0.921106
H11_4 H 0.317252 0.34384 0.712774
H12_4 H 0.277302 0.387034 0.708234
H13_3 H 0.257113 0.601363 0.95363
H14_3 H 0.294298 0.559266 0.94439
H21_4 H 0.290585 0.268787 0.769059
H22_4 H 0.325854 0.323295 0.805663
H23_4 H 0.247443 0.453003 0.941545
H24_3 H 0.223574 0.500219 0.885639
H25_4 H 0.233051 0.368146 0.848842
H26_4 H 0.259282 0.339471 0.9084
H27_3 H 0.324226 0.734719 0.725076
H28_3 H 0.349114 0.705019 0.785279
H29_3 H 0.250154 0.745395 0.828278
H30_3 H 0.285144 0.805877 0.859557
H31_3 H 0.297866 0.510241 0.679989
H32_4 H 0.339113 0.471195 0.689934
N1_5 N 0.0191(6) 0.115(2) 0.6861(13)
N2_3 N 0.0606(8) 0.194(6) 0.791(2)
C13_5 C 0.0462(18) 0.186(3) 0.712(4)
C14_5 C 0.0654(12) 0.152(3) 0.7388(14)
K3_3 K 0.04965(13) 0.1524(4) 0.8983(2)
H7_5 H 0.081687 0.228257 0.801648
H8_5 H 0.0404934 0.230203 0.776467
H15_5 H 0.0563731 0.21545 0.684571
H16_5 H 0.0347857 0.231169 0.730437
H17_5 H 0.0124106 0.0878237 0.714433
H18_5 H 0.0318542 0.0750885 0.670694
H19_5 H 0.0903192 0.16255 0.734534
H20_5 H 0.0602101 0.0873489 0.736911
Ge1_5 Ge 0.84778(2) 0.15390(6) 0.50313(4)
Ge3_5 Ge 0.89774(2) 0.08827(6) 0.48910(4)
Ge5_5 Ge 0.80264(3) 0.21329(7) 0.60503(4)
Ge6_5 Ge 0.87491(2) 0.28712(7) 0.54935(5)
Ge7_5 Ge 0.81558(3) 0.35226(6) 0.55347(4)
Ge8_5 Ge 0.94094(3) 0.15181(7) 0.45101(5)
Ge9_5 Ge 0.80541(3) 0.09321(6) 0.54304(5)
Ge10_5 Ge 0.82325(3) 0.29011(7) 0.47000(4)
Ge11_5 Ge 0.88682(3) 0.08382(8) 0.39279(4)
Ge14_5 Ge 0.94911(3) 0.02833(8) 0.39733(5)
Ge16_5 Ge 0.86191(3) 0.14663(7) 0.60100(4)
Ge17_5 Ge 0.85796(3) 0.29325(9) 0.63183(4)
K1_3 K 0.95035(13) 0.1524(4) 0.6017(2)
O1_5 O 0.8175(2) 0.0494(6) 0.2482(3)
O5_5 O 0.7688(2) 0.0476(7) 0.3836(4)
O6_5 O 0.7805(2) 0.1324(5) 0.3043(4)
C8_5 C 0.7488(4) 0.0106(11) 0.4097(6)
C9_5 C 0.7585(4) 0.1299(10) 0.3736(6)
C10_5 C 0.7823(4) 0.1716(8) 0.3488(6)
C11_5 C 0.8007(5) 0.1712(9) 0.2803(7)
C12_5 C 0.8025(4) 0.1226(10) 0.2327(6)
N3_3 N 0.9394(8) 0.194(6) 0.709(2)
H5_5 H 0.807839 0.168529 0.373189
H6_5 H 0.774995 0.23464 0.341461
H11_5 H 0.817252 0.15616 0.212774
H12_5 H 0.777302 0.112966 0.208234
H21_5 H 0.790585 0.231213 0.269059
H22_5 H 0.825854 0.176705 0.305663
H23_5 H 0.747443 0.0469973 0.441545
H25_5 H 0.733051 0.131854 0.348842
H26_5 H 0.759282 0.160529 0.4084
H32_5 H 0.839113 0.0288048 0.189934
Ge3_6 Ge 0.10226(2) 0.08827(6) 0.01090(4)
Ge8_6 Ge 0.05906(3) 0.15181(7) 0.04899(5)
Ge10_6 Ge 0.17675(3) 0.29011(7) 0.03000(4)
Ge11_6 Ge 0.11318(3) 0.08382(8) 0.10721(4)
Ge14_6 Ge 0.05089(3) 0.02833(8) 0.10267(5)
O1_6 O 0.1825(2) 0.0494(6) 0.2518(3)
O5_6 O 0.2312(2) 0.0476(7) 0.1164(4)
O6_6 O 0.2195(2) 0.1324(5) 0.1957(4)
C8_6 C 0.2512(4) 0.0106(11) 0.0903(6)
C9_6 C 0.2415(4) 0.1299(10) 0.1264(6)
C10_6 C 0.2177(4) 0.1716(8) 0.1512(6)
C11_6 C 0.1993(5) 0.1712(9) 0.2197(7)
C12_6 C 0.1975(4) 0.1226(10) 0.2673(6)
H5_6 H 0.192161 0.168529 0.126811
H6_6 H 0.225005 0.23464 0.158539
H11_6 H 0.182748 0.15616 0.287226
H12_6 H 0.222698 0.112966 0.291766
H21_6 H 0.209415 0.231213 0.230941
H22_6 H 0.174146 0.176705 0.194337
H23_6 H 0.252557 0.0469973 0.0584554
H25_6 H 0.266949 0.131854 0.151158
H26_6 H 0.240718 0.160529 0.0915996
H32_6 H 0.160887 0.0288048 0.310066
Ge1_6 Ge 0.15222(2) 0.15390(6) 0.99687(4)
Ge5_6 Ge 0.19736(3) 0.21329(7) 0.89497(4)
Ge6_6 Ge 0.12509(2) 0.28712(7) 0.95065(5)
Ge7_6 Ge 0.18442(3) 0.35226(6) 0.94653(4)
Ge9_6 Ge 0.19459(3) 0.09321(6) 0.95696(5)
Ge16_6 Ge 0.13809(3) 0.14663(7) 0.89900(4)
Ge17_6 Ge 0.14204(3) 0.29325(9) 0.86817(4)
N1_6 N 0.9809(6) 0.115(2) 0.8139(13)
C13_6 C 0.9538(18) 0.186(3) 0.788(4)
C14_6 C 0.9346(12) 0.152(3) 0.7612(14)
H7_6 H 0.918313 0.228257 0.698352
H8_6 H 0.959507 0.230203 0.723533
H15_6 H 0.943627 0.21545 0.815429
H16_6 H 0.965214 0.231169 0.769563
H17_6 H 0.987589 0.0878237 0.785567
H18_6 H 0.968146 0.0750885 0.829306
H19_6 H 0.909681 0.16255 0.765466
H20_6 H 0.93979 0.0873489 0.763089
Ge1_7 Ge 0.34778(2) 0.65390(6) 0.50313(4)
Ge3_7 Ge 0.39774(2) 0.58827(6) 0.48910(4)
Ge5_7 Ge 0.30264(3) 0.71329(7) 0.60503(4)
Ge6_7 Ge 0.37491(2) 0.78712(7) 0.54935(5)
Ge7_7 Ge 0.31558(3) 0.85226(6) 0.55347(4)
Ge8_7 Ge 0.44094(3) 0.65181(7) 0.45101(5)
Ge9_7 Ge 0.30541(3) 0.59321(6) 0.54304(5)
Ge10_7 Ge 0.32325(3) 0.79011(7) 0.47000(4)
Ge11_7 Ge 0.38682(3) 0.58382(8) 0.39279(4)
Ge12_4 Ge 0.42727(3) 0.46198(8) 0.53265(5)
Ge13_4 Ge 0.37698(2) 0.44806(7) 0.45137(5)
Ge14_7 Ge 0.44911(3) 0.52833(8) 0.39733(5)
Ge15_4 Ge 0.43991(3) 0.39367(7) 0.45542(5)
Ge16_7 Ge 0.36191(3) 0.64663(7) 0.60100(4)
Ge17_7 Ge 0.35796(3) 0.79325(9) 0.63183(4)
Ge18_4 Ge 0.39749(3) 0.43543(9) 0.37277(5)
K1_4 K 0.45035(13) 0.6524(4) 0.6017(2)
K2_4 K 0.30821(5) 0.46882(15) 0.33452(9)
O1_7 O 0.3175(2) 0.5494(6) 0.2482(3)
O2_4 O 0.3138(2) 0.3815(6) 0.2477(3)
O3_4 O 0.2963(3) 0.2975(6) 0.3264(4)
O4_4 O 0.2641(3) 0.3799(7) 0.3851(4)
O5_7 O 0.2688(2) 0.5476(7) 0.3836(4)
O6_7 O 0.2805(2) 0.6324(5) 0.3043(4)
N1_7 N 0.5191(6) 0.615(2) 0.6861(13)
N2_4 N 0.5606(8) 0.694(6) 0.791(2)
C1_4 C 0.3220(4) 0.4990(10) 0.2075(5)
C2_4 C 0.3364(3) 0.4185(10) 0.2283(5)
C3_4 C 0.3241(4) 0.2969(8) 0.2592(6)
C4_4 C 0.2988(5) 0.2564(10) 0.2828(6)
C5_4 C 0.2761(5) 0.2558(11) 0.3513(7)
C6_4 C 0.2787(6) 0.3011(11) 0.3989(8)
C7_4 C 0.2678(5) 0.4288(13) 0.4270(6)
C8_7 C 0.2488(4) 0.5106(11) 0.4097(6)
C9_7 C 0.2585(4) 0.6299(10) 0.3736(6)
C10_7 C 0.2823(4) 0.6716(8) 0.3488(6)
C11_7 C 0.3007(5) 0.6712(9) 0.2803(7)
C12_7 C 0.3025(4) 0.6226(10) 0.2327(6)
C13_7 C 0.5462(18) 0.686(3) 0.712(4)
C14_7 C 0.5654(12) 0.652(3) 0.7388(14)
K3_4 K 0.54965(13) 0.6524(4) 0.8983(2)
N3_4 N 0.4394(8) 0.694(6) 0.709(2)
H1_4 H 0.359847 0.427652 0.257353
H2_4 H 0.341001 0.381438 0.198695
H3_4 H 0.30683 0.194452 0.292755
H4_4 H 0.274211 0.25605 0.255543
H5_7 H 0.307839 0.668529 0.373189
H6_7 H 0.274995 0.73464 0.341461
H7_7 H 0.581687 0.728257 0.801648
H8_7 H 0.540493 0.730203 0.776467
H9_4 H 0.304901 0.307183 0.420278
H10_4 H 0.265026 0.26913 0.421106
H11_7 H 0.317252 0.65616 0.212774
H12_7 H 0.277302 0.612966 0.208234
H13_4 H 0.257113 0.398637 0.45363
H14_4 H 0.294298 0.440734 0.44439
H15_7 H 0.556373 0.71545 0.684571
H16_7 H 0.534786 0.731169 0.730437
H17_7 H 0.512411 0.587824 0.714433
H18_7 H 0.531854 0.575089 0.670694
H19_7 H 0.590319 0.66255 0.734534
H20_7 H 0.56021 0.587349 0.736911
H21_7 H 0.290585 0.731213 0.269059
H22_7 H 0.325854 0.676705 0.305663
H23_7 H 0.247443 0.546997 0.441545
H24_4 H 0.223574 0.499781 0.385639
H25_7 H 0.233051 0.631854 0.348842
H26_7 H 0.259282 0.660529 0.4084
H27_4 H 0.324226 0.265281 0.225076
H28_4 H 0.349114 0.294981 0.285279
H29_4 H 0.250154 0.254605 0.328278
H30_4 H 0.285144 0.194123 0.359557
H31_4 H 0.297866 0.489759 0.179989
H32_7 H 0.339113 0.528805 0.189934
Ge3_8 Ge 0.60226(2) 0.58827(6) 0.01090(4)
Ge8_8 Ge 0.55906(3) 0.65181(7) 0.04899(5)
Ge10_8 Ge 0.67675(3) 0.79011(7) 0.03000(4)
Ge11_8 Ge 0.61318(3) 0.58382(8) 0.10721(4)
Ge13_5 Ge 0.62302(2) 0.44806(7) 0.04863(5)
Ge14_8 Ge 0.55089(3) 0.52833(8) 0.10267(5)
Ge15_5 Ge 0.56009(3) 0.39367(7) 0.04458(5)
Ge18_5 Ge 0.60251(3) 0.43543(9) 0.12723(5)
K2_5 K 0.69179(5) 0.46882(15) 0.16548(9)
O1_8 O 0.6825(2) 0.5494(6) 0.2518(3)
O2_5 O 0.6862(2) 0.3815(6) 0.2523(3)
O3_5 O 0.7037(3) 0.2975(6) 0.1736(4)
O4_5 O 0.7359(3) 0.3799(7) 0.1149(4)
O5_8 O 0.7312(2) 0.5476(7) 0.1164(4)
O6_8 O 0.7195(2) 0.6324(5) 0.1957(4)
C1_5 C 0.6780(4) 0.4990(10) 0.2925(5)
C2_5 C 0.6636(3) 0.4185(10) 0.2717(5)
C3_5 C 0.6759(4) 0.2969(8) 0.2408(6)
C4_5 C 0.7012(5) 0.2564(10) 0.2172(6)
C5_5 C 0.7239(5) 0.2558(11) 0.1487(7)
C6_5 C 0.7213(6) 0.3011(11) 0.1011(8)
C7_5 C 0.7322(5) 0.4288(13) 0.0730(6)
C8_8 C 0.7512(4) 0.5106(11) 0.0903(6)
C9_8 C 0.7415(4) 0.6299(10) 0.1264(6)
C10_8 C 0.7177(4) 0.6716(8) 0.1512(6)
C11_8 C 0.6993(5) 0.6712(9) 0.2197(7)
C12_8 C 0.6975(4) 0.6226(10) 0.2673(6)
H1_5 H 0.640153 0.427652 0.242647
H2_5 H 0.658999 0.381438 0.301305
H3_5 H 0.69317 0.194452 0.207245
H4_5 H 0.725789 0.25605 0.244457
H5_8 H 0.692161 0.668529 0.126811
H6_8 H 0.725005 0.73464 0.158539
H9_5 H 0.695099 0.307183 0.0797216
H10_5 H 0.734974 0.26913 0.0788941
H11_8 H 0.682748 0.65616 0.287226
H12_8 H 0.722698 0.612966 0.291766
H13_5 H 0.742887 0.398637 0.0463704
H14_5 H 0.705702 0.440734 0.0556097
H21_8 H 0.709415 0.731213 0.230941
H22_8 H 0.674146 0.676705 0.194337
H23_8 H 0.752557 0.546997 0.0584554
H24_5 H 0.776426 0.499781 0.114361
H25_8 H 0.766949 0.631854 0.151158
H26_8 H 0.740718 0.660529 0.0915996
H27_5 H 0.675774 0.265281 0.274924
H28_5 H 0.650886 0.294981 0.214721
H29_5 H 0.749846 0.254605 0.171722
H30_5 H 0.714856 0.194123 0.140443
H31_5 H 0.702134 0.489759 0.320011
H32_8 H 0.660887 0.528805 0.310066
Ge1_8 Ge 0.65222(2) 0.65390(6) 0.99687(4)
Ge5_8 Ge 0.69736(3) 0.71329(7) 0.89497(4)
Ge6_8 Ge 0.62509(2) 0.78712(7) 0.95065(5)
Ge7_8 Ge 0.68442(3) 0.85226(6) 0.94653(4)
Ge9_8 Ge 0.69459(3) 0.59321(6) 0.95696(5)
Ge12_5 Ge 0.57273(3) 0.46198(8) 0.96735(5)
Ge16_8 Ge 0.63809(3) 0.64663(7) 0.89900(4)
Ge17_8 Ge 0.64204(3) 0.79325(9) 0.86817(4)
N1_8 N 0.4809(6) 0.615(2) 0.8139(13)
C13_8 C 0.4538(18) 0.686(3) 0.788(4)
C14_8 C 0.4346(12) 0.652(3) 0.7612(14)
H7_8 H 0.418313 0.728257 0.698352
H8_8 H 0.459507 0.730203 0.723533
H15_8 H 0.443627 0.71545 0.815429
H16_8 H 0.465214 0.731169 0.769563
H17_8 H 0.487589 0.587824 0.785567
H18_8 H 0.468146 0.575089 0.829306
H19_8 H 0.409681 0.66255 0.765466
H20_8 H 0.43979 0.587349 0.763089
Ge12_6 Ge 0.92727(3) 0.03802(8) 0.03265(5)
Ge13_6 Ge 0.87698(2) 0.05194(7) 0.95137(5)
Ge15_6 Ge 0.93991(3) 0.10633(7) 0.95542(5)
Ge18_6 Ge 0.89749(3) 0.06457(9) 0.87277(5)
K2_6 K 0.80821(5) 0.03118(15) 0.83452(9)
O2_6 O 0.8138(2) 0.1185(6) 0.7477(3)
O3_6 O 0.7963(3) 0.2025(6) 0.8264(4)
O4_6 O 0.7641(3) 0.1201(7) 0.8851(4)
C1_6 C 0.8220(4) 0.0010(10) 0.7075(5)
C2_6 C 0.8364(3) 0.0815(10) 0.7283(5)
C3_6 C 0.8241(4) 0.2031(8) 0.7592(6)
C4_6 C 0.7988(5) 0.2436(10) 0.7828(6)
C5_6 C 0.7761(5) 0.2442(11) 0.8513(7)
C6_6 C 0.7787(6) 0.1989(11) 0.8989(8)
C7_6 C 0.7678(5) 0.0712(13) 0.9270(6)
H1_6 H 0.859847 0.072348 0.757353
H2_6 H 0.841001 0.118562 0.698695
H3_6 H 0.80683 0.305548 0.792755
H4_6 H 0.774211 0.24395 0.755543
H9_6 H 0.804901 0.192817 0.920278
H10_6 H 0.765026 0.23087 0.921106
H13_6 H 0.757113 0.101363 0.95363
H14_6 H 0.794298 0.0592661 0.94439
H24_6 H 0.723574 0.000218869 0.885639
H27_6 H 0.824226 0.234719 0.725076
H28_6 H 0.849114 0.205019 0.785279
H29_6 H 0.750154 0.245395 0.828278
H30_6 H 0.785144 0.305877 0.859557
H31_6 H 0.797866 0.0102406 0.679989
Ge12_7 Ge 0.92727(3) 0.96198(8) 0.53265(5)
Ge13_7 Ge 0.87698(2) 0.94806(7) 0.45137(5)
Ge15_7 Ge 0.93991(3) 0.89367(7) 0.45542(5)
Ge18_7 Ge 0.89749(3) 0.93543(9) 0.37277(5)
K2_7 K 0.80821(5) 0.96882(15) 0.33452(9)
O2_7 O 0.8138(2) 0.8815(6) 0.2477(3)
O3_7 O 0.7963(3) 0.7975(6) 0.3264(4)
O4_7 O 0.7641(3) 0.8799(7) 0.3851(4)
C1_7 C 0.8220(4) 0.9990(10) 0.2075(5)
C2_7 C 0.8364(3) 0.9185(10) 0.2283(5)
C3_7 C 0.8241(4) 0.7969(8) 0.2592(6)
C4_7 C 0.7988(5) 0.7564(10) 0.2828(6)
C5_7 C 0.7761(5) 0.7558(11) 0.3513(7)
C6_7 C 0.7787(6) 0.8011(11) 0.3989(8)
C7_7 C 0.7678(5) 0.9288(13) 0.4270(6)
H1_7 H 0.859847 0.927652 0.257353
H2_7 H 0.841001 0.881438 0.198695
H3_7 H 0.80683 0.694452 0.292755
H4_7 H 0.774211 0.75605 0.255543
H9_7 H 0.804901 0.807183 0.420278
H10_7 H 0.765026 0.76913 0.421106
H13_7 H 0.757113 0.898637 0.45363
H14_7 H 0.794298 0.940734 0.44439
H24_7 H 0.723574 0.999781 0.385639
H27_7 H 0.824226 0.765281 0.225076
H28_7 H 0.849114 0.794981 0.285279
H29_7 H 0.750154 0.754605 0.328278
H30_7 H 0.785144 0.694123 0.359557
H31_7 H 0.797866 0.989759 0.179989
Ge13_8 Ge 0.12302(2) 0.94806(7) 0.04863(5)
Ge15_8 Ge 0.06009(3) 0.89367(7) 0.04458(5)
Ge18_8 Ge 0.10251(3) 0.93543(9) 0.12723(5)
K2_8 K 0.19179(5) 0.96882(15) 0.16548(9)
O2_8 O 0.1862(2) 0.8815(6) 0.2523(3)
O3_8 O 0.2037(3) 0.7975(6) 0.1736(4)
O4_8 O 0.2359(3) 0.8799(7) 0.1149(4)
C1_8 C 0.1780(4) 0.9990(10) 0.2925(5)
C2_8 C 0.1636(3) 0.9185(10) 0.2717(5)
C3_8 C 0.1759(4) 0.7969(8) 0.2408(6)
C4_8 C 0.2012(5) 0.7564(10) 0.2172(6)
C5_8 C 0.2239(5) 0.7558(11) 0.1487(7)
C6_8 C 0.2213(6) 0.8011(11) 0.1011(8)
C7_8 C 0.2322(5) 0.9288(13) 0.0730(6)
H1_8 H 0.140153 0.927652 0.242647
H2_8 H 0.158999 0.881438 0.301305
H3_8 H 0.19317 0.694452 0.207245
H4_8 H 0.225789 0.75605 0.244457
H9_8 H 0.195099 0.807183 0.0797216
H10_8 H 0.234974 0.76913 0.0788941
H13_8 H 0.242887 0.898637 0.0463704
H14_8 H 0.205702 0.940734 0.0556097
H24_8 H 0.276426 0.999781 0.114361
H27_8 H 0.175774 0.765281 0.274924
H28_8 H 0.150886 0.794981 0.214721
H29_8 H 0.249846 0.754605 0.171722
H30_8 H 0.214856 0.694123 0.140443
H31_8 H 0.202134 0.989759 0.320011
Ge12_8 Ge 0.07273(3) 0.96198(8) 0.96735(5)
loop_
_geom_bond_atom_site_label_1
_geom_bond_atom_site_label_2
_geom_bond_site_symmetry_1
_geom_bond_site_symmetry_2
O2 K2 1_555 1_555
O3 K2 1_555 1_555
O4 K2 1_555 1_555
C2 O2 1_555 1_555
C3 O2 1_555 1_555
C4 O3 1_555 1_555
C5 O3 1_555 1_555
C6 O4 1_555 1_555
C7 O4 1_555 1_555
Ge12 Ge13 1_555 1_555
Ge12 Ge15 1_555 1_555
Ge13 Ge15 1_555 1_555
Ge13 Ge18 1_555 1_555
Ge13 K2 1_555 1_555
Ge15 Ge18 1_555 1_555
Ge18 K2 1_555 1_555
C1 C2 1_555 1_555
C3 C4 1_555 1_555
C5 C6 1_555 1_555
C2 H1 1_555 1_555
C2 H2 1_555 1_555
C4 H3 1_555 1_555
C4 H4 1_555 1_555
C6 H9 1_555 1_555
C6 H10 1_555 1_555
C7 H13 1_555 1_555
C7 H14 1_555 1_555
C3 H27 1_555 1_555
C3 H28 1_555 1_555
C5 H29 1_555 1_555
C5 H30 1_555 1_555
C1 H31 1_555 1_555
Ge1 Ge3 1_555 1_555
Ge2 Ge5 1_555 1_555
Ge3 Ge8 1_555 1_555
Ge4 Ge8 1_555 1_555
Ge5 Ge9 1_555 1_555
Ge6 Ge1 1_555 1_555
Ge7 Ge2 1_555 1_555
Ge8 Ge11 1_555 1_555
Ge9 Ge1 1_555 1_555
Ge10 Ge1 1_555 1_555
Ge11 Ge3 1_555 1_555
Ge14 Ge4 1_555 1_555
Ge16 Ge1 1_555 1_555
Ge17 Ge5 1_555 1_555
K1 Ge3 1_555 1_555
C8 O5 1_555 1_555
C9 O5 1_555 1_555
C10 O6 1_555 1_555
C11 O6 1_555 1_555
C12 O1 1_555 1_555
Ge19 Ge2 1_555 1_555
N3 K1 1_555 1_555
Ge2 Ge9 1_555 1_555
Ge2 Ge10 1_555 1_555
Ge5 Ge16 1_555 1_555
Ge6 Ge7 1_555 1_555
Ge6 Ge10 1_555 1_555
Ge6 Ge17 1_555 1_555
Ge7 Ge10 1_555 1_555
Ge7 Ge17 1_555 1_555
Ge8 Ge14 1_555 1_555
Ge9 Ge16 1_555 1_555
Ge11 Ge14 1_555 1_555
Ge16 Ge17 1_555 1_555
Ge16 K1 1_555 1_555
C9 C10 1_555 1_555
C11 C12 1_555 1_555
C10 H5 1_555 1_555
C10 H6 1_555 1_555
C12 H11 1_555 1_555
C12 H12 1_555 1_555
C11 H21 1_555 1_555
C11 H22 1_555 1_555
C8 H23 1_555 1_555
C9 H25 1_555 1_555
C9 H26 1_555 1_555
N2 C14 1_555 1_555
C13 N1 1_555 1_555
C14 C13 1_555 1_555
K3 N2 1_555 1_555
N2 H7 1_555 1_555
N2 H8 1_555 1_555
C13 H15 1_555 1_555
C13 H16 1_555 1_555
N1 H17 1_555 1_555
N1 H18 1_555 1_555
C14 H19 1_555 1_555
C14 H20 1_555 1_555
N3 C14_2 1_555 1_555
C13_2 N1_2 1_555 1_555
C14_2 C13_2 1_555 1_555
N3 H7_2 1_555 1_555
N3 H8_2 1_555 1_555
C13_2 H15_2 1_555 1_555
C13_2 H16_2 1_555 1_555
N1_2 H17_2 1_555 1_555
N1_2 H18_2 1_555 1_555
C14_2 H19_2 1_555 1_555
C14_2 H20_2 1_555 1_555
Ge2_2 Ge5_2 1_555 1_555
Ge5_2 Ge9_2 1_555 1_555
Ge6_2 Ge1_2 1_555 1_555
Ge7_2 Ge2_2 1_555 1_555
Ge9_2 Ge1_2 1_555 1_555
Ge16_2 Ge1_2 1_555 1_555
Ge17_2 Ge5_2 1_555 1_555
Ge2_2 Ge9_2 1_555 1_555
Ge5_2 Ge16_2 1_555 1_555
Ge6_2 Ge7_2 1_555 1_555
Ge6_2 Ge17_2 1_555 1_555
Ge7_2 Ge17_2 1_555 1_555
Ge9_2 Ge16_2 1_555 1_555
Ge16_2 Ge17_2 1_555 1_555
Ge16_2 K3 1_555 1_555
Ge3_2 Ge8_2 1_555 1_555
Ge4_2 Ge8_2 1_555 1_555
Ge8_2 Ge11_2 1_555 1_555
Ge11_2 Ge3_2 1_555 1_555
Ge14_2 Ge4_2 1_555 1_555
C8_2 O5_2 1_555 1_555
C9_2 O5_2 1_555 1_555
C10_2 O6_2 1_555 1_555
C11_2 O6_2 1_555 1_555
C12_2 O1_2 1_555 1_555
Ge8_2 Ge14_2 1_555 1_555
Ge11_2 Ge14_2 1_555 1_555
C9_2 C10_2 1_555 1_555
C11_2 C12_2 1_555 1_555
C10_2 H5_2 1_555 1_555
C10_2 H6_2 1_555 1_555
C12_2 H11_2 1_555 1_555
C12_2 H12_2 1_555 1_555
C11_2 H21_2 1_555 1_555
C11_2 H22_2 1_555 1_555
C8_2 H23_2 1_555 1_555
C9_2 H25_2 1_555 1_555
C9_2 H26_2 1_555 1_555
Ge1_3 Ge3_3 1_555 1_555
Ge2_3 Ge5_3 1_555 1_555
Ge3_3 Ge8_3 1_555 1_555
Ge4_3 Ge8_3 1_555 1_555
Ge5_3 Ge9_3 1_555 1_555
Ge6_3 Ge1_3 1_555 1_555
Ge7_3 Ge2_3 1_555 1_555
Ge8_3 Ge11_3 1_555 1_555
Ge9_3 Ge1_3 1_555 1_555
Ge10_3 Ge1_3 1_555 1_555
Ge11_3 Ge3_3 1_555 1_555
Ge12_2 Ge3_3 1_555 1_555
Ge13_2 Ge3_3 1_555 1_555
Ge14_3 Ge4_3 1_555 1_555
Ge15_2 Ge4_3 1_555 1_555
Ge16_3 Ge1_3 1_555 1_555
Ge17_3 Ge5_3 1_555 1_555
Ge18_2 Ge11_3 1_555 1_555
K1_2 Ge3_3 1_555 1_555
K2_2 Ge11_3 1_555 1_555
O1_3 K2_2 1_555 1_555
O2_2 K2_2 1_555 1_555
O3_2 K2_2 1_555 1_555
O4_2 K2_2 1_555 1_555
O5_3 K2_2 1_555 1_555
O6_3 K2_2 1_555 1_555
N1_3 K1_2 1_555 1_555
N2_2 C14_3 1_555 1_555
C1_2 O1_3 1_555 1_555
C2_2 O2_2 1_555 1_555
C3_2 O2_2 1_555 1_555
C4_2 O3_2 1_555 1_555
C5_2 O3_2 1_555 1_555
C6_2 O4_2 1_555 1_555
C7_2 O4_2 1_555 1_555
C8_3 O5_3 1_555 1_555
C9_3 O5_3 1_555 1_555
C10_3 O6_3 1_555 1_555
C11_3 O6_3 1_555 1_555
C12_3 O1_3 1_555 1_555
C13_3 N1_3 1_555 1_555
C14_3 C13_3 1_555 1_555
Ge19_3 Ge2_3 1_555 1_555
Ge20_3 Ge4_3 1_555 1_555
K3_2 N2_2 1_555 1_555
N3_2 K1_2 1_555 1_555
Ge2_3 Ge9_3 1_555 1_555
Ge2_3 Ge10_3 1_555 1_555
Ge4_3 Ge12_2 1_555 1_555
Ge5_3 Ge16_3 1_555 1_555
Ge6_3 Ge7_3 1_555 1_555
Ge6_3 Ge10_3 1_555 1_555
Ge6_3 Ge17_3 1_555 1_555
Ge7_3 Ge10_3 1_555 1_555
Ge7_3 Ge17_3 1_555 1_555
Ge8_3 Ge14_3 1_555 1_555
Ge9_3 Ge16_3 1_555 1_555
Ge11_3 Ge14_3 1_555 1_555
Ge12_2 Ge13_2 1_555 1_555
Ge12_2 Ge15_2 1_555 1_555
Ge12_2 K1_2 1_555 1_555
Ge13_2 Ge15_2 1_555 1_555
Ge13_2 Ge18_2 1_555 1_555
Ge13_2 K2_2 1_555 1_555
Ge14_3 Ge18_2 1_555 1_555
Ge15_2 Ge18_2 1_555 1_555
Ge16_3 Ge17_3 1_555 1_555
Ge16_3 K1_2 1_555 1_555
Ge18_2 K2_2 1_555 1_555
C1_2 C2_2 1_555 1_555
C3_2 C4_2 1_555 1_555
C5_2 C6_2 1_555 1_555
C7_2 C8_3 1_555 1_555
C9_3 C10_3 1_555 1_555
C11_3 C12_3 1_555 1_555
C2_2 H1_2 1_555 1_555
C2_2 H2_2 1_555 1_555
C4_2 H3_2 1_555 1_555
C4_2 H4_2 1_555 1_555
C10_3 H5_3 1_555 1_555
C10_3 H6_3 1_555 1_555
N2_2 H7_3 1_555 1_555
N2_2 H8_3 1_555 1_555
C6_2 H9_2 1_555 1_555
C6_2 H10_2 1_555 1_555
C12_3 H11_3 1_555 1_555
C12_3 H12_3 1_555 1_555
C7_2 H13_2 1_555 1_555
C7_2 H14_2 1_555 1_555
C13_3 H15_3 1_555 1_555
C13_3 H16_3 1_555 1_555
N1_3 H17_3 1_555 1_555
N1_3 H18_3 1_555 1_555
C14_3 H19_3 1_555 1_555
C14_3 H20_3 1_555 1_555
C11_3 H21_3 1_555 1_555
C11_3 H22_3 1_555 1_555
C8_3 H23_3 1_555 1_555
C8_3 H24_2 1_555 1_555
C9_3 H25_3 1_555 1_555
C9_3 H26_3 1_555 1_555
C3_2 H27_2 1_555 1_555
C3_2 H28_2 1_555 1_555
C5_2 H29_2 1_555 1_555
C5_2 H30_2 1_555 1_555
C1_2 H31_2 1_555 1_555
C1_2 H32_3 1_555 1_555
Ge2_4 Ge5_4 1_555 1_555
Ge5_4 Ge9_4 1_555 1_555
Ge6_4 Ge1_4 1_555 1_555
Ge7_4 Ge2_4 1_555 1_555
Ge9_4 Ge1_4 1_555 1_555
Ge16_4 Ge1_4 1_555 1_555
Ge17_4 Ge5_4 1_555 1_555
N1_4 K3_2 1_555 1_555
N3_2 C14_4 1_555 1_555
C13_4 N1_4 1_555 1_555
C14_4 C13_4 1_555 1_555
Ge2_4 Ge9_4 1_555 1_555
Ge5_4 Ge16_4 1_555 1_555
Ge6_4 Ge7_4 1_555 1_555
Ge6_4 Ge17_4 1_555 1_555
Ge7_4 Ge17_4 1_555 1_555
Ge9_4 Ge16_4 1_555 1_555
Ge12_3 K3_2 1_555 1_555
Ge16_4 Ge17_4 1_555 1_555
Ge16_4 K3_2 1_555 1_555
N3_2 H7_4 1_555 1_555
N3_2 H8_4 1_555 1_555
C13_4 H15_4 1_555 1_555
C13_4 H16_4 1_555 1_555
N1_4 H17_4 1_555 1_555
N1_4 H18_4 1_555 1_555
C14_4 H19_4 1_555 1_555
C14_4 H20_4 1_555 1_555
Ge3_4 Ge8_4 1_555 1_555
Ge4_4 Ge8_4 1_555 1_555
Ge8_4 Ge11_4 1_555 1_555
Ge11_4 Ge3_4 1_555 1_555
Ge13_3 Ge3_4 1_555 1_555
Ge14_4 Ge4_4 1_555 1_555
Ge15_3 Ge4_4 1_555 1_555
Ge18_3 Ge11_4 1_555 1_555
K2_3 Ge11_4 1_555 1_555
O1_4 K2_3 1_555 1_555
O2_3 K2_3 1_555 1_555
O3_3 K2_3 1_555 1_555
O4_3 K2_3 1_555 1_555
O5_4 K2_3 1_555 1_555
O6_4 K2_3 1_555 1_555
C1_3 O1_4 1_555 1_555
C2_3 O2_3 1_555 1_555
C3_3 O2_3 1_555 1_555
C4_3 O3_3 1_555 1_555
C5_3 O3_3 1_555 1_555
C6_3 O4_3 1_555 1_555
C7_3 O4_3 1_555 1_555
C8_4 O5_4 1_555 1_555
C9_4 O5_4 1_555 1_555
C10_4 O6_4 1_555 1_555
C11_4 O6_4 1_555 1_555
C12_4 O1_4 1_555 1_555
Ge8_4 Ge14_4 1_555 1_555
Ge11_4 Ge14_4 1_555 1_555
Ge13_3 Ge15_3 1_555 1_555
Ge13_3 Ge18_3 1_555 1_555
Ge13_3 K2_3 1_555 1_555
Ge14_4 Ge18_3 1_555 1_555
Ge15_3 Ge18_3 1_555 1_555
Ge18_3 K2_3 1_555 1_555
C1_3 C2_3 1_555 1_555
C3_3 C4_3 1_555 1_555
C5_3 C6_3 1_555 1_555
C7_3 C8_4 1_555 1_555
C9_4 C10_4 1_555 1_555
C11_4 C12_4 1_555 1_555
C2_3 H1_3 1_555 1_555
C2_3 H2_3 1_555 1_555
C4_3 H3_3 1_555 1_555
C4_3 H4_3 1_555 1_555
C10_4 H5_4 1_555 1_555
C10_4 H6_4 1_555 1_555
C6_3 H9_3 1_555 1_555
C6_3 H10_3 1_555 1_555
C12_4 H11_4 1_555 1_555
C12_4 H12_4 1_555 1_555
C7_3 H13_3 1_555 1_555
C7_3 H14_3 1_555 1_555
C11_4 H21_4 1_555 1_555
C11_4 H22_4 1_555 1_555
C8_4 H23_4 1_555 1_555
C8_4 H24_3 1_555 1_555
C9_4 H25_4 1_555 1_555
C9_4 H26_4 1_555 1_555
C3_3 H27_3 1_555 1_555
C3_3 H28_3 1_555 1_555
C5_3 H29_3 1_555 1_555
C5_3 H30_3 1_555 1_555
C1_3 H31_3 1_555 1_555
C1_3 H32_4 1_555 1_555
N2_3 C14_5 1_555 1_555
C13_5 N1_5 1_555 1_555
C14_5 C13_5 1_555 1_555
K3_3 N2_3 1_555 1_555
N2_3 H7_5 1_555 1_555
N2_3 H8_5 1_555 1_555
C13_5 H15_5 1_555 1_555
C13_5 H16_5 1_555 1_555
N1_5 H17_5 1_555 1_555
N1_5 H18_5 1_555 1_555
C14_5 H19_5 1_555 1_555
C14_5 H20_5 1_555 1_555
Ge1_5 Ge3_5 1_555 1_555
Ge19_3 Ge5_5 1_555 1_555
Ge3_5 Ge8_5 1_555 1_555
Ge20 Ge8_5 1_555 1_555
Ge5_5 Ge9_5 1_555 1_555
Ge6_5 Ge1_5 1_555 1_555
Ge7_5 Ge19_3 1_555 1_555
Ge8_5 Ge11_5 1_555 1_555
Ge9_5 Ge1_5 1_555 1_555
Ge10_5 Ge1_5 1_555 1_555
Ge11_5 Ge3_5 1_555 1_555
Ge14_5 Ge20 1_555 1_555
Ge16_5 Ge1_5 1_555 1_555
Ge17_5 Ge5_5 1_555 1_555
K1_3 Ge3_5 1_555 1_555
C8_5 O5_5 1_555 1_555
C9_5 O5_5 1_555 1_555
C10_5 O6_5 1_555 1_555
C11_5 O6_5 1_555 1_555
C12_5 O1_5 1_555 1_555
N3_3 K1_3 1_555 1_555
Ge19_3 Ge9_5 1_555 1_555
Ge19_3 Ge10_5 1_555 1_555
Ge5_5 Ge16_5 1_555 1_555
Ge6_5 Ge7_5 1_555 1_555
Ge6_5 Ge10_5 1_555 1_555
Ge6_5 Ge17_5 1_555 1_555
Ge7_5 Ge10_5 1_555 1_555
Ge7_5 Ge17_5 1_555 1_555
Ge8_5 Ge14_5 1_555 1_555
Ge9_5 Ge16_5 1_555 1_555
Ge11_5 Ge14_5 1_555 1_555
Ge16_5 Ge17_5 1_555 1_555
Ge16_5 K1_3 1_555 1_555
C9_5 C10_5 1_555 1_555
C11_5 C12_5 1_555 1_555
C10_5 H5_5 1_555 1_555
C10_5 H6_5 1_555 1_555
C12_5 H11_5 1_555 1_555
C12_5 H12_5 1_555 1_555
C11_5 H21_5 1_555 1_555
C11_5 H22_5 1_555 1_555
C8_5 H23_5 1_555 1_555
C9_5 H25_5 1_555 1_555
C9_5 H26_5 1_555 1_555
Ge3_6 Ge8_6 1_555 1_555
Ge20_2 Ge8_6 1_555 1_555
Ge8_6 Ge11_6 1_555 1_555
Ge11_6 Ge3_6 1_555 1_555
Ge14_6 Ge20_2 1_555 1_555
C8_6 O5_6 1_555 1_555
C9_6 O5_6 1_555 1_555
C10_6 O6_6 1_555 1_555
C11_6 O6_6 1_555 1_555
C12_6 O1_6 1_555 1_555
Ge8_6 Ge14_6 1_555 1_555
Ge11_6 Ge14_6 1_555 1_555
C9_6 C10_6 1_555 1_555
C11_6 C12_6 1_555 1_555
C10_6 H5_6 1_555 1_555
C10_6 H6_6 1_555 1_555
C12_6 H11_6 1_555 1_555
C12_6 H12_6 1_555 1_555
C11_6 H21_6 1_555 1_555
C11_6 H22_6 1_555 1_555
C8_6 H23_6 1_555 1_555
C9_6 H25_6 1_555 1_555
C9_6 H26_6 1_555 1_555
Ge19_4 Ge5_6 1_555 1_555
Ge5_6 Ge9_6 1_555 1_555
Ge6_6 Ge1_6 1_555 1_555
Ge7_6 Ge19_4 1_555 1_555
Ge9_6 Ge1_6 1_555 1_555
Ge16_6 Ge1_6 1_555 1_555
Ge17_6 Ge5_6 1_555 1_555
Ge19_4 Ge9_6 1_555 1_555
Ge5_6 Ge16_6 1_555 1_555
Ge6_6 Ge7_6 1_555 1_555
Ge6_6 Ge17_6 1_555 1_555
Ge7_6 Ge17_6 1_555 1_555
Ge9_6 Ge16_6 1_555 1_555
Ge16_6 Ge17_6 1_555 1_555
Ge16_6 K3_3 1_555 1_555
N3_3 C14_6 1_555 1_555
C13_6 N1_6 1_555 1_555
C14_6 C13_6 1_555 1_555
N3_3 H7_6 1_555 1_555
N3_3 H8_6 1_555 1_555
C13_6 H15_6 1_555 1_555
C13_6 H16_6 1_555 1_555
N1_6 H17_6 1_555 1_555
N1_6 H18_6 1_555 1_555
C14_6 H19_6 1_555 1_555
C14_6 H20_6 1_555 1_555
Ge1_7 Ge3_7 1_555 1_555
Ge19 Ge5_7 1_555 1_555
Ge3_7 Ge8_7 1_555 1_555
Ge20_3 Ge8_7 1_555 1_555
Ge5_7 Ge9_7 1_555 1_555
Ge6_7 Ge1_7 1_555 1_555
Ge7_7 Ge19 1_555 1_555
Ge8_7 Ge11_7 1_555 1_555
Ge9_7 Ge1_7 1_555 1_555
Ge10_7 Ge1_7 1_555 1_555
Ge11_7 Ge3_7 1_555 1_555
Ge12_4 Ge3_7 1_555 1_555
Ge13_4 Ge3_7 1_555 1_555
Ge14_7 Ge20_3 1_555 1_555
Ge15_4 Ge20_3 1_555 1_555
Ge16_7 Ge1_7 1_555 1_555
Ge17_7 Ge5_7 1_555 1_555
Ge18_4 Ge11_7 1_555 1_555
K1_4 Ge3_7 1_555 1_555
K2_4 Ge11_7 1_555 1_555
O1_7 K2_4 1_555 1_555
O2_4 K2_4 1_555 1_555
O3_4 K2_4 1_555 1_555
O4_4 K2_4 1_555 1_555
O5_7 K2_4 1_555 1_555
O6_7 K2_4 1_555 1_555
N1_7 K1_4 1_555 1_555
N2_4 C14_7 1_555 1_555
C1_4 O1_7 1_555 1_555
C2_4 O2_4 1_555 1_555
C3_4 O2_4 1_555 1_555
C4_4 O3_4 1_555 1_555
C5_4 O3_4 1_555 1_555
C6_4 O4_4 1_555 1_555
C7_4 O4_4 1_555 1_555
C8_7 O5_7 1_555 1_555
C9_7 O5_7 1_555 1_555
C10_7 O6_7 1_555 1_555
C11_7 O6_7 1_555 1_555
C12_7 O1_7 1_555 1_555
C13_7 N1_7 1_555 1_555
C14_7 C13_7 1_555 1_555
K3_4 N2_4 1_555 1_555
N3_4 K1_4 1_555 1_555
Ge19 Ge9_7 1_555 1_555
Ge19 Ge10_7 1_555 1_555
Ge20_3 Ge12_4 1_555 1_555
Ge5_7 Ge16_7 1_555 1_555
Ge6_7 Ge7_7 1_555 1_555
Ge6_7 Ge10_7 1_555 1_555
Ge6_7 Ge17_7 1_555 1_555
Ge7_7 Ge10_7 1_555 1_555
Ge7_7 Ge17_7 1_555 1_555
Ge8_7 Ge14_7 1_555 1_555
Ge9_7 Ge16_7 1_555 1_555
Ge11_7 Ge14_7 1_555 1_555
Ge12_4 Ge13_4 1_555 1_555
Ge12_4 Ge15_4 1_555 1_555
Ge12_4 K1_4 1_555 1_555
Ge13_4 Ge15_4 1_555 1_555
Ge13_4 Ge18_4 1_555 1_555
Ge13_4 K2_4 1_555 1_555
Ge14_7 Ge18_4 1_555 1_555
Ge15_4 Ge18_4 1_555 1_555
Ge16_7 Ge17_7 1_555 1_555
Ge16_7 K1_4 1_555 1_555
Ge18_4 K2_4 1_555 1_555
C1_4 C2_4 1_555 1_555
C3_4 C4_4 1_555 1_555
C5_4 C6_4 1_555 1_555
C7_4 C8_7 1_555 1_555
C9_7 C10_7 1_555 1_555
C11_7 C12_7 1_555 1_555
C2_4 H1_4 1_555 1_555
C2_4 H2_4 1_555 1_555
C4_4 H3_4 1_555 1_555
C4_4 H4_4 1_555 1_555
C10_7 H5_7 1_555 1_555
C10_7 H6_7 1_555 1_555
N2_4 H7_7 1_555 1_555
N2_4 H8_7 1_555 1_555
C6_4 H9_4 1_555 1_555
C6_4 H10_4 1_555 1_555
C12_7 H11_7 1_555 1_555
C12_7 H12_7 1_555 1_555
C7_4 H13_4 1_555 1_555
C7_4 H14_4 1_555 1_555
C13_7 H15_7 1_555 1_555
C13_7 H16_7 1_555 1_555
N1_7 H17_7 1_555 1_555
N1_7 H18_7 1_555 1_555
C14_7 H19_7 1_555 1_555
C14_7 H20_7 1_555 1_555
C11_7 H21_7 1_555 1_555
C11_7 H22_7 1_555 1_555
C8_7 H23_7 1_555 1_555
C8_7 H24_4 1_555 1_555
C9_7 H25_7 1_555 1_555
C9_7 H26_7 1_555 1_555
C3_4 H27_4 1_555 1_555
C3_4 H28_4 1_555 1_555
C5_4 H29_4 1_555 1_555
C5_4 H30_4 1_555 1_555
C1_4 H31_4 1_555 1_555
C1_4 H32_7 1_555 1_555
Ge3_8 Ge8_8 1_555 1_555
Ge20_4 Ge8_8 1_555 1_555
Ge8_8 Ge11_8 1_555 1_555
Ge11_8 Ge3_8 1_555 1_555
Ge13_5 Ge3_8 1_555 1_555
Ge14_8 Ge20_4 1_555 1_555
Ge15_5 Ge20_4 1_555 1_555
Ge18_5 Ge11_8 1_555 1_555
K2_5 Ge11_8 1_555 1_555
O1_8 K2_5 1_555 1_555
O2_5 K2_5 1_555 1_555
O3_5 K2_5 1_555 1_555
O4_5 K2_5 1_555 1_555
O5_8 K2_5 1_555 1_555
O6_8 K2_5 1_555 1_555
C1_5 O1_8 1_555 1_555
C2_5 O2_5 1_555 1_555
C3_5 O2_5 1_555 1_555
C4_5 O3_5 1_555 1_555
C5_5 O3_5 1_555 1_555
C6_5 O4_5 1_555 1_555
C7_5 O4_5 1_555 1_555
C8_8 O5_8 1_555 1_555
C9_8 O5_8 1_555 1_555
C10_8 O6_8 1_555 1_555
C11_8 O6_8 1_555 1_555
C12_8 O1_8 1_555 1_555
Ge8_8 Ge14_8 1_555 1_555
Ge11_8 Ge14_8 1_555 1_555
Ge13_5 Ge15_5 1_555 1_555
Ge13_5 Ge18_5 1_555 1_555
Ge13_5 K2_5 1_555 1_555
Ge14_8 Ge18_5 1_555 1_555
Ge15_5 Ge18_5 1_555 1_555
Ge18_5 K2_5 1_555 1_555
C1_5 C2_5 1_555 1_555
C3_5 C4_5 1_555 1_555
C5_5 C6_5 1_555 1_555
C7_5 C8_8 1_555 1_555
C9_8 C10_8 1_555 1_555
C11_8 C12_8 1_555 1_555
C2_5 H1_5 1_555 1_555
C2_5 H2_5 1_555 1_555
C4_5 H3_5 1_555 1_555
C4_5 H4_5 1_555 1_555
C10_8 H5_8 1_555 1_555
C10_8 H6_8 1_555 1_555
C6_5 H9_5 1_555 1_555
C6_5 H10_5 1_555 1_555
C12_8 H11_8 1_555 1_555
C12_8 H12_8 1_555 1_555
C7_5 H13_5 1_555 1_555
C7_5 H14_5 1_555 1_555
C11_8 H21_8 1_555 1_555
C11_8 H22_8 1_555 1_555
C8_8 H23_8 1_555 1_555
C8_8 H24_5 1_555 1_555
C9_8 H25_8 1_555 1_555
C9_8 H26_8 1_555 1_555
C3_5 H27_5 1_555 1_555
C3_5 H28_5 1_555 1_555
C5_5 H29_5 1_555 1_555
C5_5 H30_5 1_555 1_555
C1_5 H31_5 1_555 1_555
C1_5 H32_8 1_555 1_555
Ge19_2 Ge5_8 1_555 1_555
Ge5_8 Ge9_8 1_555 1_555
Ge6_8 Ge1_8 1_555 1_555
Ge7_8 Ge19_2 1_555 1_555
Ge9_8 Ge1_8 1_555 1_555
Ge16_8 Ge1_8 1_555 1_555
Ge17_8 Ge5_8 1_555 1_555
N1_8 K3_4 1_555 1_555
N3_4 C14_8 1_555 1_555
C13_8 N1_8 1_555 1_555
C14_8 C13_8 1_555 1_555
Ge19_2 Ge9_8 1_555 1_555
Ge5_8 Ge16_8 1_555 1_555
Ge6_8 Ge7_8 1_555 1_555
Ge6_8 Ge17_8 1_555 1_555
Ge7_8 Ge17_8 1_555 1_555
Ge9_8 Ge16_8 1_555 1_555
Ge12_5 K3_4 1_555 1_555
Ge16_8 Ge17_8 1_555 1_555
Ge16_8 K3_4 1_555 1_555
N3_4 H7_8 1_555 1_555
N3_4 H8_8 1_555 1_555
C13_8 H15_8 1_555 1_555
C13_8 H16_8 1_555 1_555
N1_8 H17_8 1_555 1_555
N1_8 H18_8 1_555 1_555
C14_8 H19_8 1_555 1_555
C14_8 H20_8 1_555 1_555
O2_6 K2_6 1_555 1_555
O3_6 K2_6 1_555 1_555
O4_6 K2_6 1_555 1_555
C2_6 O2_6 1_555 1_555
C3_6 O2_6 1_555 1_555
C4_6 O3_6 1_555 1_555
C5_6 O3_6 1_555 1_555
C6_6 O4_6 1_555 1_555
C7_6 O4_6 1_555 1_555
Ge13_6 Ge15_6 1_555 1_555
Ge13_6 Ge18_6 1_555 1_555
Ge13_6 K2_6 1_555 1_555
Ge15_6 Ge18_6 1_555 1_555
Ge18_6 K2_6 1_555 1_555
C1_6 C2_6 1_555 1_555
C3_6 C4_6 1_555 1_555
C5_6 C6_6 1_555 1_555
C2_6 H1_6 1_555 1_555
C2_6 H2_6 1_555 1_555
C4_6 H3_6 1_555 1_555
C4_6 H4_6 1_555 1_555
C6_6 H9_6 1_555 1_555
C6_6 H10_6 1_555 1_555
C7_6 H13_6 1_555 1_555
C7_6 H14_6 1_555 1_555
C3_6 H27_6 1_555 1_555
C3_6 H28_6 1_555 1_555
C5_6 H29_6 1_555 1_555
C5_6 H30_6 1_555 1_555
C1_6 H31_6 1_555 1_555
O2_7 K2_7 1_555 1_555
O3_7 K2_7 1_555 1_555
O4_7 K2_7 1_555 1_555
C2_7 O2_7 1_555 1_555
C3_7 O2_7 1_555 1_555
C4_7 O3_7 1_555 1_555
C5_7 O3_7 1_555 1_555
C6_7 O4_7 1_555 1_555
C7_7 O4_7 1_555 1_555
Ge12_7 Ge13_7 1_555 1_555
Ge12_7 Ge15_7 1_555 1_555
Ge13_7 Ge15_7 1_555 1_555
Ge13_7 Ge18_7 1_555 1_555
Ge13_7 K2_7 1_555 1_555
Ge15_7 Ge18_7 1_555 1_555
Ge18_7 K2_7 1_555 1_555
C1_7 C2_7 1_555 1_555
C3_7 C4_7 1_555 1_555
C5_7 C6_7 1_555 1_555
C2_7 H1_7 1_555 1_555
C2_7 H2_7 1_555 1_555
C4_7 H3_7 1_555 1_555
C4_7 H4_7 1_555 1_555
C6_7 H9_7 1_555 1_555
C6_7 H10_7 1_555 1_555
C7_7 H13_7 1_555 1_555
C7_7 H14_7 1_555 1_555
C3_7 H27_7 1_555 1_555
C3_7 H28_7 1_555 1_555
C5_7 H29_7 1_555 1_555
C5_7 H30_7 1_555 1_555
C1_7 H31_7 1_555 1_555
O2_8 K2_8 1_555 1_555
O3_8 K2_8 1_555 1_555
O4_8 K2_8 1_555 1_555
C2_8 O2_8 1_555 1_555
C3_8 O2_8 1_555 1_555
C4_8 O3_8 1_555 1_555
C5_8 O3_8 1_555 1_555
C6_8 O4_8 1_555 1_555
C7_8 O4_8 1_555 1_555
Ge13_8 Ge15_8 1_555 1_555
Ge13_8 Ge18_8 1_555 1_555
Ge13_8 K2_8 1_555 1_555
Ge15_8 Ge18_8 1_555 1_555
Ge18_8 K2_8 1_555 1_555
C1_8 C2_8 1_555 1_555
C3_8 C4_8 1_555 1_555
C5_8 C6_8 1_555 1_555
C2_8 H1_8 1_555 1_555
C2_8 H2_8 1_555 1_555
C4_8 H3_8 1_555 1_555
C4_8 H4_8 1_555 1_555
C6_8 H9_8 1_555 1_555
C6_8 H10_8 1_555 1_555
C7_8 H13_8 1_555 1_555
C7_8 H14_8 1_555 1_555
C3_8 H27_8 1_555 1_555
C3_8 H28_8 1_555 1_555
C5_8 H29_8 1_555 1_555
C5_8 H30_8 1_555 1_555
C1_8 H31_8 1_555 1_555

#END
