
###############################################################################
#
# This file contains modified crystal structure data generated from the
# MOF subset of the Cambridge Structural Database (CSD) v543 
# hosted by the Cambridge Crystallographic Data Centre (CCDC).
#
# This work is licensed under the Creative Commons
# Attribution-NonCommercial-ShareAlike 4.0 International License.
# To view a copy of this license, visit
# http://creativecommons.org/licenses/by-nc-sa/4.0/
# or send a letter to
# Creative Commons, PO Box 1866, Mountain View, CA 94042, USA.
#
# CIF created using the CSD Python API on 29 September 2022
# The structure has been converted into the P1 space group
# The structure has a 3D framework
# The original CSD entry MONPAI is in the triclinic crystal system
# The framework has been calculated to contain at least 10.0% void space
# The void calculation uses a probe of radius 1.32A, grid spacing 0.4
#
###############################################################################

data_MONPAI
_chemical_formula_moiety         '(C48 H28 Ba4 N4 O18)n'
_symmetry_cell_setting           triclinic
_symmetry_space_group_name_H-M   'P 1'
_symmetry_Int_Tables_number      1
_space_group_name_Hall           'P 1'
loop_
_symmetry_equiv_pos_site_id
_symmetry_equiv_pos_as_xyz
1 x,y,z
_cell_length_a                   7.8709(16)
_cell_length_b                   8.8711(18)
_cell_length_c                   19.835(4)
_cell_angle_alpha                100.55(3)
_cell_angle_beta                 92.53(3)
_cell_angle_gamma                92.59(3)
_cell_volume                     1358.21
loop_
_atom_site_label
_atom_site_type_symbol
_atom_site_fract_x
_atom_site_fract_y
_atom_site_fract_z
O7 O 0.2579(3) 0.0725(3) 0.87956(14)
Ba8 Ba 0.51826(3) 0.24841(2) 0.957270(11)
Ba12 Ba 0.03642(3) 0.26355(3) 0.845051(11)
Ba5 Ba 0.48174(3) 0.75159(2) 0.042730(11)
H6 H 0.0066 0.2359 0.6065
C18 C 0.0684(5) 0.7966(4) 0.81952(19)
H8 H 0.1166 0.8511 0.7887
C19 C 0.1096(5) 0.8414(4) 0.88995(19)
C20 C 0.2413(5) 0.9690(4) 0.9154(2)
C21 C 0.0341(5) 0.7642(4) 0.93623(19)
H9 H 0.0601 0.7950 0.9831
O8 O 0.3297(4) 0.9655(3) 0.96881(14)
C25 C 0.1184(5) 0.4064(4) 0.15748(19)
O14 O 0.2780(4) 0.9241(3) 0.13097(15)
O15 O 0.2184(4) 0.9353(4) 0.23945(15)
O16 O 0.0220(5) 0.6246(4) 0.27423(15)
O22 O 0.1889(3) 0.5902(3) 0.05940(14)
O19 O 0.6703(4) 0.0345(3) 0.03119(14)
O9 O 0.8096(3) 0.6234(3) 0.02074(13)
Ba10 Ba 0.96358(3) 0.73645(3) 0.154949(11)
C1 C 0.5692(5) 0.4724(4) 0.1384(2)
C2 C 0.5439(5) 0.3613(4) 0.18722(19)
C3 C 0.4489(4) 0.2219(4) 0.16656(19)
H1 H 0.4083 0.1920 0.1211
C4 C 0.4151(5) 0.1281(4) 0.21387(19)
C6 C 0.4817(5) 0.1703(5) 0.2812(2)
H2 H 0.4581 0.1085 0.3131
C7 C 0.5840(5) 0.3055(5) 0.30104(19)
C8 C 0.6121(5) 0.4017(5) 0.25415(19)
H3 H 0.6768 0.4935 0.2677
C9 C 0.7297(6) 0.2632(5) 0.4063(2)
C10 C 0.7892(5) 0.3305(5) 0.4797(2)
C11 C 0.7397(7) 0.4689(5) 0.5142(2)
H4 H 0.6736 0.5296 0.4911
C12 C 0.7876(7) 0.5193(5) 0.5835(2)
H5 H 0.7540 0.6136 0.6062
C13 C 0.8837(5) 0.4310(5) 0.6182(2)
C14 C 0.9303(5) 0.4747(5) 0.6937(2)
C15 C 0.9378(8) 0.2950(6) 0.5836(3)
C16 C 0.8906(9) 0.2450(6) 0.5148(3)
H7 H 0.9279 0.1523 0.4919
C17 C 0.9577(5) 0.6729(4) 0.79589(19)
C22 C 0.9187(4) 0.6398(4) 0.91260(19)
C23 C 0.8401(4) 0.5524(4) 0.96211(19)
C24 C 0.8816(5) 0.5936(4) 0.84252(19)
H10 H 0.8060 0.5097 0.8266
N1 N 0.6529(5) 0.3543(4) 0.36968(16)
H11 H 0.6443 0.4488 0.3886
N2 N 0.9217(4) 0.6222(4) 0.72404(16)
H12 H 0.8936 0.6883 0.6993
O1 O 0.6360(4) 0.6042(3) 0.16118(15)
O2 O 0.5119(4) 0.4296(3) 0.07744(13)
O5 O 0.7518(6) 0.1271(4) 0.38323(18)
O6 O 0.9780(5) 0.3754(4) 0.72577(15)
O10 O 0.8111(3) 0.4098(3) 0.94060(14)
O11 O 0.7943(6) 0.8809(5) 0.2718(2)
H13 H 0.7401 0.8342 0.2987
H14 H 0.7897 0.9775 0.2850
O17 O 0.7421(3) 0.9275(3) 0.12044(14)
O12 O 0.4881(4) 0.5704(3) 0.92256(13)
C5 C 0.2973(5) 0.9859(4) 0.1934(2)
C5_2 C 0.7027(5) 0.0141(4) 0.8066(2)
O3 O 0.7220(4) 0.0759(3) 0.86903(15)
O4 O 0.7816(4) 0.0647(4) 0.76055(15)
C1_2 C 0.4308(5) 0.5276(4) 0.8616(2)
C2_2 C 0.4561(5) 0.6387(4) 0.81278(19)
C3_2 C 0.5511(4) 0.7781(4) 0.83344(19)
H1_2 H 0.5917 0.8080 0.8789
C4_2 C 0.5849(5) 0.8719(4) 0.78613(19)
C6_2 C 0.5183(5) 0.8297(5) 0.7188(2)
H2_2 H 0.5419 0.8915 0.6869
C7_2 C 0.4160(5) 0.6945(5) 0.69896(19)
C8_2 C 0.3879(5) 0.5983(5) 0.74585(19)
H3_2 H 0.3232 0.5065 0.7323
C9_2 C 0.2703(6) 0.7368(5) 0.5937(2)
C10_2 C 0.2108(5) 0.6695(5) 0.5203(2)
C11_2 C 0.2603(7) 0.5311(5) 0.4858(2)
H4_2 H 0.3264 0.4704 0.5089
C12_2 C 0.2124(7) 0.4807(5) 0.4165(2)
H5_2 H 0.2460 0.3864 0.3938
C13_2 C 0.1163(5) 0.5690(5) 0.3818(2)
C14_2 C 0.0697(5) 0.5253(5) 0.3063(2)
C15_2 C 0.0622(8) 0.7050(6) 0.4164(3)
C16_2 C 0.1094(9) 0.7550(6) 0.4852(3)
H7_2 H 0.0721 0.8477 0.5081
C17_2 C 0.0423(5) 0.3271(4) 0.20411(19)
C22_2 C 0.0813(4) 0.3602(4) 0.08740(19)
C23_2 C 0.1599(4) 0.4476(4) 0.03789(19)
H10_2 H 0.1940 0.4903 0.1734
N1_2 N 0.3471(5) 0.6457(4) 0.63032(16)
H11_2 H 0.3557 0.5512 0.6114
N2_2 N 0.0783(4) 0.3778(4) 0.27596(16)
H12_2 H 0.1064 0.3117 0.3007
O1_2 O 0.3640(4) 0.3958(3) 0.83882(15)
O5_2 O 0.2482(6) 0.8729(4) 0.61677(18)
O11_2 O 0.2057(6) 0.1191(5) 0.7282(2)
H13_2 H 0.2599 0.1658 0.7013
H14_2 H 0.2103 0.0225 0.7150
O20 O 0.1904(3) 0.3766(3) 0.97926(13)
H6_2 H 0.9934 0.7641 0.3935
C18_2 C 0.9316(5) 0.2034(4) 0.18048(19)
H8_2 H 0.8834 0.1489 0.2113
C19_2 C 0.8904(5) 0.1586(4) 0.11005(19)
C20_2 C 0.7587(5) 0.0310(4) 0.0846(2)
C21_2 C 0.9659(5) 0.2358(4) 0.06377(19)
H9_2 H 0.9399 0.2050 0.0169
loop_
_geom_bond_atom_site_label_1
_geom_bond_atom_site_label_2
_geom_bond_site_symmetry_1
_geom_bond_site_symmetry_2
Ba8 O7 1_555 1_555
Ba12 O7 1_555 1_555
C18 H8 1_555 1_555
C19 C18 1_555 1_555
C20 C19 1_555 1_555
C21 C19 1_555 1_555
H9 C21 1_555 1_555
O8 C20 1_555 1_555
Ba5 O9 1_555 1_555
Ba10 O9 1_555 1_555
Ba5 O1 1_555 1_555
Ba10 O1 1_555 1_555
C1 C2 1_555 1_555
C2 C3 1_555 1_555
C3 H1 1_555 1_555
C4 C3 1_555 1_555
C6 C4 1_555 1_555
H2 C6 1_555 1_555
C7 C6 1_555 1_555
C8 C2 1_555 1_555
H3 C8 1_555 1_555
C9 C10 1_555 1_555
C10 C11 1_555 1_555
C11 H4 1_555 1_555
C12 C11 1_555 1_555
H5 C12 1_555 1_555
C13 C12 1_555 1_555
C14 C13 1_555 1_555
C15 C13 1_555 1_555
C16 C10 1_555 1_555
H7 C16 1_555 1_555
C23 C22 1_555 1_555
C24 C17 1_555 1_555
H10 C24 1_555 1_555
N1 C7 1_555 1_555
H11 N1 1_555 1_555
N2 C14 1_555 1_555
H12 N2 1_555 1_555
O1 C1 1_555 1_555
O2 Ba5 1_555 1_555
O5 C9 1_555 1_555
O6 C14 1_555 1_555
O10 C23 1_555 1_555
O11 Ba10 1_555 1_555
H13 O11 1_555 1_555
H14 O11 1_555 1_555
Ba8 O10 1_555 1_555
O14 Ba5 1_555 1_555
O17 Ba5 1_555 1_555
O22 Ba5 1_555 1_555
Ba10 O17 1_555 1_555
C1 O2 1_555 1_555
C7 C8 1_555 1_555
C9 N1 1_555 1_555
C15 C16 1_555 1_555
C17 N2 1_555 1_555
C22 C24 1_555 1_555
Ba8 O12 1_555 1_555
O14 C5 1_555 1_555
O15 C5 1_555 1_555
O3 C5_2 1_555 1_555
O4 C5_2 1_555 1_555
Ba8 O3 1_555 1_555
Ba8 O1_2 1_555 1_555
Ba12 O1_2 1_555 1_555
C1_2 C2_2 1_555 1_555
C2_2 C3_2 1_555 1_555
C3_2 H1_2 1_555 1_555
C4_2 C3_2 1_555 1_555
C6_2 C4_2 1_555 1_555
H2_2 C6_2 1_555 1_555
C7_2 C6_2 1_555 1_555
C8_2 C2_2 1_555 1_555
H3_2 C8_2 1_555 1_555
C9_2 C10_2 1_555 1_555
C10_2 C11_2 1_555 1_555
C11_2 H4_2 1_555 1_555
C12_2 C11_2 1_555 1_555
H5_2 C12_2 1_555 1_555
C13_2 C12_2 1_555 1_555
C14_2 C13_2 1_555 1_555
C15_2 C13_2 1_555 1_555
C16_2 C10_2 1_555 1_555
H7_2 C16_2 1_555 1_555
C23_2 C22_2 1_555 1_555
C25 C17_2 1_555 1_555
H10_2 C25 1_555 1_555
N1_2 C7_2 1_555 1_555
H11_2 N1_2 1_555 1_555
N2_2 C14_2 1_555 1_555
H12_2 N2_2 1_555 1_555
O1_2 C1_2 1_555 1_555
O5_2 C9_2 1_555 1_555
O16 C14_2 1_555 1_555
O22 C23_2 1_555 1_555
O11_2 Ba12 1_555 1_555
H13_2 O11_2 1_555 1_555
H14_2 O11_2 1_555 1_555
O20 Ba8 1_555 1_555
Ba12 O20 1_555 1_555
C1_2 O12 1_555 1_555
C7_2 C8_2 1_555 1_555
C9_2 N1_2 1_555 1_555
C15_2 C16_2 1_555 1_555
C17_2 N2_2 1_555 1_555
C22_2 C25 1_555 1_555
C18_2 H8_2 1_555 1_555
C19_2 C18_2 1_555 1_555
C20_2 C19_2 1_555 1_555
C21_2 C19_2 1_555 1_555
H9_2 C21_2 1_555 1_555
O19 C20_2 1_555 1_555

#END
