
###############################################################################
#
# This file contains modified crystal structure data generated from the
# MOF subset of the Cambridge Structural Database (CSD) v543 
# hosted by the Cambridge Crystallographic Data Centre (CCDC).
#
# This work is licensed under the Creative Commons
# Attribution-NonCommercial-ShareAlike 4.0 International License.
# To view a copy of this license, visit
# http://creativecommons.org/licenses/by-nc-sa/4.0/
# or send a letter to
# Creative Commons, PO Box 1866, Mountain View, CA 94042, USA.
#
# CIF created using the CSD Python API on 29 September 2022
# The structure has been converted into the P1 space group
# The structure has a 3D framework
# The original CSD entry MONXIY is in the cubic crystal system
# The framework has been calculated to contain at least 10.0% void space
# The void calculation uses a probe of radius 1.32A, grid spacing 0.4
#
###############################################################################

data_MONXIY
_chemical_formula_moiety         '(C768 H960 Cl32 Cu128 N480 S96)n'
_symmetry_cell_setting           triclinic
_symmetry_space_group_name_H-M   'P 1'
_symmetry_Int_Tables_number      1
_space_group_name_Hall           'P 1'
loop_
_symmetry_equiv_pos_site_id
_symmetry_equiv_pos_as_xyz
1 x,y,z
_cell_length_a                   38.493
_cell_length_b                   38.493
_cell_length_c                   38.493
_cell_angle_alpha                90
_cell_angle_beta                 90
_cell_angle_gamma                90
_cell_volume                     57035.5
loop_
_atom_site_label
_atom_site_type_symbol
_atom_site_fract_x
_atom_site_fract_y
_atom_site_fract_z
S9 S 0.74281(8) 0.68696(7) 0.02935(5)
Cu9 Cu 0.78489(4) 0.72881(3) 0.01939(3)
Cu1 Cu 0.67425(2) 0.67425(2) 0.82575(2)
Cl1 Cl 0.63707(5) 0.63707(5) 0.86293(5)
N1 N 0.77558(16) 0.71236(15) 0.84711(15)
N2 N 0.71764(16) 0.68920(15) 0.85322(16)
N3 N 0.6918(2) 0.6782(2) 0.90649(18)
H1 H 0.6740 0.6699 0.8958
H2 H 0.6922 0.6787 0.9288
C1 C 0.77609(19) 0.71351(18) 0.88237(19)
C2 C 0.7902(2) 0.7230(2) 0.93621(19)
C3 C 0.7491(2) 0.7031(2) 0.90334(18)
C4 C 0.8357(2) 0.7377(2) 0.8913(2)
H3 H 0.8473 0.7490 0.9106
H4 H 0.8329 0.7547 0.8729
N4 N 0.80191(17) 0.72565(17) 0.90242(15)
C5 C 0.8658(4) 0.6832(4) 0.9053(4)
H5 H 0.8801 0.6649 0.8961
H6 H 0.8445 0.6735 0.9140
H7 H 0.8779 0.6947 0.9237
C6 C 0.8581(3) 0.7077(3) 0.8782(3)
H8 H 0.8460 0.6959 0.8594
H9 H 0.8797 0.7169 0.8689
N5 N 0.7583(2) 0.7096(2) 0.93826(17)
C7 C 0.7191(2) 0.69041(19) 0.88815(18)
C8 C 0.7461(2) 0.70029(19) 0.83523(19)
H10 H 0.7444 0.6991 0.8112
S1 S 0.81304(7) 0.74281(8) 0.97065(5)
Cu2 Cu 0.72881(3) 0.71511(4) 0.98061(3)
N6 N 0.71236(15) 0.65289(15) 0.72442(16)
N7 N 0.68920(15) 0.64678(16) 0.78236(16)
N8 N 0.6782(2) 0.59351(18) 0.8082(2)
H11 H 0.6699 0.6042 0.8260
H12 H 0.6787 0.5712 0.8078
C9 C 0.71351(18) 0.61763(19) 0.72391(19)
C10 C 0.7230(2) 0.56379(19) 0.7098(2)
C11 C 0.7031(2) 0.59666(18) 0.7509(2)
C12 C 0.7377(2) 0.6087(2) 0.6643(2)
H13 H 0.7490 0.5894 0.6527
H14 H 0.7547 0.6271 0.6671
N9 N 0.72565(17) 0.59758(15) 0.69809(17)
C13 C 0.6832(4) 0.5947(4) 0.6342(4)
H15 H 0.6649 0.6039 0.6199
H16 H 0.6735 0.5860 0.6555
H17 H 0.6947 0.5763 0.6221
C14 C 0.7077(3) 0.6218(3) 0.6419(3)
H18 H 0.6959 0.6406 0.6540
H19 H 0.7169 0.6311 0.6203
N10 N 0.7096(2) 0.56174(17) 0.7417(2)
C15 C 0.69041(19) 0.61185(18) 0.7809(2)
C16 C 0.70029(19) 0.66477(19) 0.7539(2)
H20 H 0.6991 0.6888 0.7556
S2 S 0.74281(8) 0.52935(5) 0.68696(7)
Cu3 Cu 0.71511(4) 0.51939(3) 0.77119(3)
N11 N 0.65289(15) 0.77558(16) 0.78764(15)
N12 N 0.64678(16) 0.71764(16) 0.81080(15)
N13 N 0.59351(18) 0.6918(2) 0.8218(2)
H21 H 0.6042 0.6740 0.8301
H22 H 0.5712 0.6922 0.8213
C17 C 0.61763(19) 0.77609(19) 0.78649(18)
C18 C 0.56379(19) 0.7902(2) 0.7770(2)
C19 C 0.59666(18) 0.7491(2) 0.7969(2)
C20 C 0.6087(2) 0.8357(2) 0.7623(2)
H23 H 0.5894 0.8473 0.7510
H24 H 0.6271 0.8329 0.7453
N14 N 0.59758(15) 0.80191(17) 0.77435(17)
C21 C 0.5947(4) 0.8658(4) 0.8168(4)
H25 H 0.6039 0.8801 0.8351
H26 H 0.5860 0.8445 0.8265
H27 H 0.5763 0.8779 0.8053
C22 C 0.6218(3) 0.8581(3) 0.7923(3)
H28 H 0.6406 0.8460 0.8041
H29 H 0.6311 0.8797 0.7831
N15 N 0.56174(17) 0.7583(2) 0.7904(2)
C23 C 0.61185(18) 0.7191(2) 0.80959(19)
C24 C 0.66477(19) 0.7461(2) 0.79971(19)
H30 H 0.6888 0.7444 0.8009
S3 S 0.52935(5) 0.81304(7) 0.75719(8)
Cu4 Cu 0.51939(3) 0.72881(3) 0.78489(4)
S4 S 0.47065(5) 0.74281(8) 0.81304(7)
S5 S 0.68696(7) 0.47065(5) 0.75719(8)
S6 S 0.68696(7) 0.75719(8) 0.97065(5)
S7 S 0.52935(5) 0.68696(7) 0.74281(8)
S8 S 0.75719(8) 0.52935(5) 0.81304(7)
Cu5 Cu 0.48061(3) 0.78489(4) 0.77119(3)
Cu6 Cu 0.77119(3) 0.78489(4) 0.98061(3)
Cu7 Cu 0.51939(3) 0.77119(3) 0.71511(4)
Cu8 Cu 0.78489(4) 0.51939(3) 0.72881(3)
Cu10 Cu 0.72881(3) 0.48061(3) 0.71511(4)
S9_2 S 0.25719(8) 0.31304(7) 0.02935(5)
Cu9_2 Cu 0.21511(4) 0.27119(3) 0.01939(3)
Cu1_2 Cu 0.32575(2) 0.32575(2) 0.82575(2)
Cl1_2 Cl 0.36293(5) 0.36293(5) 0.86293(5)
N1_2 N 0.22442(16) 0.28764(15) 0.84711(15)
N2_2 N 0.28236(16) 0.31080(15) 0.85322(16)
N3_2 N 0.3082(2) 0.3218(2) 0.90649(18)
H1_2 H 0.3260 0.3301 0.8958
H2_2 H 0.3078 0.3213 0.9288
C1_2 C 0.22391(19) 0.28649(18) 0.88237(19)
C2_2 C 0.2098(2) 0.2770(2) 0.93621(19)
C3_2 C 0.2509(2) 0.2969(2) 0.90334(18)
C4_2 C 0.1643(2) 0.2623(2) 0.8913(2)
H3_2 H 0.1527 0.2510 0.9106
H4_2 H 0.1671 0.2453 0.8729
N4_2 N 0.19809(17) 0.27435(17) 0.90242(15)
C5_2 C 0.1342(4) 0.3168(4) 0.9053(4)
H5_2 H 0.1199 0.3351 0.8961
H6_2 H 0.1555 0.3265 0.9140
H7_2 H 0.1221 0.3053 0.9237
C6_2 C 0.1419(3) 0.2923(3) 0.8782(3)
H8_2 H 0.1540 0.3041 0.8594
H9_2 H 0.1203 0.2831 0.8689
N5_2 N 0.2417(2) 0.2904(2) 0.93826(17)
C7_2 C 0.2809(2) 0.30959(19) 0.88815(18)
C8_2 C 0.2539(2) 0.29971(19) 0.83523(19)
H10_2 H 0.2556 0.3009 0.8112
S1_2 S 0.18696(7) 0.25719(8) 0.97065(5)
Cu2_2 Cu 0.27119(3) 0.28489(4) 0.98061(3)
N6_2 N 0.28764(15) 0.34711(15) 0.72442(16)
N7_2 N 0.31080(15) 0.35322(16) 0.78236(16)
N8_2 N 0.3218(2) 0.40649(18) 0.8082(2)
H11_2 H 0.3301 0.3958 0.8260
H12_2 H 0.3213 0.4288 0.8078
C9_2 C 0.28649(18) 0.38237(19) 0.72391(19)
C10_2 C 0.2770(2) 0.43621(19) 0.7098(2)
C11_2 C 0.2969(2) 0.40334(18) 0.7509(2)
C12_2 C 0.2623(2) 0.3913(2) 0.6643(2)
H13_2 H 0.2510 0.4106 0.6527
H14_2 H 0.2453 0.3729 0.6671
N9_2 N 0.27435(17) 0.40242(15) 0.69809(17)
C13_2 C 0.3168(4) 0.4053(4) 0.6342(4)
H15_2 H 0.3351 0.3961 0.6199
H16_2 H 0.3265 0.4140 0.6555
H17_2 H 0.3053 0.4237 0.6221
C14_2 C 0.2923(3) 0.3782(3) 0.6419(3)
H18_2 H 0.3041 0.3594 0.6540
H19_2 H 0.2831 0.3689 0.6203
N10_2 N 0.2904(2) 0.43826(17) 0.7417(2)
C15_2 C 0.30959(19) 0.38815(18) 0.7809(2)
C16_2 C 0.29971(19) 0.33523(19) 0.7539(2)
H20_2 H 0.3009 0.3112 0.7556
S2_2 S 0.25719(8) 0.47065(5) 0.68696(7)
Cu3_2 Cu 0.28489(4) 0.48061(3) 0.77119(3)
N11_2 N 0.34711(15) 0.22442(16) 0.78764(15)
N12_2 N 0.35322(16) 0.28236(16) 0.81080(15)
N13_2 N 0.40649(18) 0.3082(2) 0.8218(2)
H21_2 H 0.3958 0.3260 0.8301
H22_2 H 0.4288 0.3078 0.8213
C17_2 C 0.38237(19) 0.22391(19) 0.78649(18)
C18_2 C 0.43621(19) 0.2098(2) 0.7770(2)
C19_2 C 0.40334(18) 0.2509(2) 0.7969(2)
C20_2 C 0.3913(2) 0.1643(2) 0.7623(2)
H23_2 H 0.4106 0.1527 0.7510
H24_2 H 0.3729 0.1671 0.7453
N14_2 N 0.40242(15) 0.19809(17) 0.77435(17)
C21_2 C 0.4053(4) 0.1342(4) 0.8168(4)
H25_2 H 0.3961 0.1199 0.8351
H26_2 H 0.4140 0.1555 0.8265
H27_2 H 0.4237 0.1221 0.8053
C22_2 C 0.3782(3) 0.1419(3) 0.7923(3)
H28_2 H 0.3594 0.1540 0.8041
H29_2 H 0.3689 0.1203 0.7831
N15_2 N 0.43826(17) 0.2417(2) 0.7904(2)
C23_2 C 0.38815(18) 0.2809(2) 0.80959(19)
C24_2 C 0.33523(19) 0.2539(2) 0.79971(19)
H30_2 H 0.3112 0.2556 0.8009
S3_2 S 0.47065(5) 0.18696(7) 0.75719(8)
Cu4_2 Cu 0.48061(3) 0.27119(3) 0.78489(4)
S4_2 S 0.52935(5) 0.25719(8) 0.81304(7)
S5_2 S 0.31304(7) 0.52935(5) 0.75719(8)
S6_2 S 0.31304(7) 0.24281(8) 0.97065(5)
S7_2 S 0.47065(5) 0.31304(7) 0.74281(8)
S8_2 S 0.24281(8) 0.47065(5) 0.81304(7)
Cu5_2 Cu 0.51939(3) 0.21511(4) 0.77119(3)
Cu6_2 Cu 0.22881(3) 0.21511(4) 0.98061(3)
Cu7_2 Cu 0.48061(3) 0.22881(3) 0.71511(4)
Cu8_2 Cu 0.21511(4) 0.48061(3) 0.72881(3)
Cu10_2 Cu 0.27119(3) 0.51939(3) 0.71511(4)
Cu1_3 Cu 0.67425(2) 0.32575(2) 0.17425(2)
Cl1_3 Cl 0.63707(5) 0.36293(5) 0.13707(5)
N1_3 N 0.77558(16) 0.28764(15) 0.15289(15)
N2_3 N 0.71764(16) 0.31080(15) 0.14678(16)
N3_3 N 0.6918(2) 0.3218(2) 0.09351(18)
H1_3 H 0.6740 0.3301 0.1042
H2_3 H 0.6922 0.3213 0.0712
C1_3 C 0.77609(19) 0.28649(18) 0.11763(19)
C2_3 C 0.7902(2) 0.2770(2) 0.06379(19)
C3_3 C 0.7491(2) 0.2969(2) 0.09666(18)
C4_3 C 0.8357(2) 0.2623(2) 0.1087(2)
H3_3 H 0.8473 0.2510 0.0894
H4_3 H 0.8329 0.2453 0.1271
N4_3 N 0.80191(17) 0.27435(17) 0.09758(15)
C5_3 C 0.8658(4) 0.3168(4) 0.0947(4)
H5_3 H 0.8801 0.3351 0.1039
H6_3 H 0.8445 0.3265 0.0860
H7_3 H 0.8779 0.3053 0.0763
C6_3 C 0.8581(3) 0.2923(3) 0.1218(3)
H8_3 H 0.8460 0.3041 0.1406
H9_3 H 0.8797 0.2831 0.1311
N5_3 N 0.7583(2) 0.2904(2) 0.06174(17)
C7_3 C 0.7191(2) 0.30959(19) 0.11185(18)
C8_3 C 0.7461(2) 0.29971(19) 0.16477(19)
H10_3 H 0.7444 0.3009 0.1888
S1_3 S 0.81304(7) 0.25719(8) 0.02935(5)
Cu2_3 Cu 0.72881(3) 0.28489(4) 0.01939(3)
N6_3 N 0.71236(15) 0.34711(15) 0.27558(16)
N7_3 N 0.68920(15) 0.35322(16) 0.21764(16)
N8_3 N 0.6782(2) 0.40649(18) 0.1918(2)
H11_3 H 0.6699 0.3958 0.1740
H12_3 H 0.6787 0.4288 0.1922
C9_3 C 0.71351(18) 0.38237(19) 0.27609(19)
C10_3 C 0.7230(2) 0.43621(19) 0.2902(2)
C11_3 C 0.7031(2) 0.40334(18) 0.2491(2)
C12_3 C 0.7377(2) 0.3913(2) 0.3357(2)
H13_3 H 0.7490 0.4106 0.3473
H14_3 H 0.7547 0.3729 0.3329
N9_3 N 0.72565(17) 0.40242(15) 0.30191(17)
C13_3 C 0.6832(4) 0.4053(4) 0.3658(4)
H15_3 H 0.6649 0.3961 0.3801
H16_3 H 0.6735 0.4140 0.3445
H17_3 H 0.6947 0.4237 0.3779
C14_3 C 0.7077(3) 0.3782(3) 0.3581(3)
H18_3 H 0.6959 0.3594 0.3460
H19_3 H 0.7169 0.3689 0.3797
N10_3 N 0.7096(2) 0.43826(17) 0.2583(2)
C15_3 C 0.69041(19) 0.38815(18) 0.2191(2)
C16_3 C 0.70029(19) 0.33523(19) 0.2461(2)
H20_3 H 0.6991 0.3112 0.2444
S2_3 S 0.74281(8) 0.47065(5) 0.31304(7)
Cu3_3 Cu 0.71511(4) 0.48061(3) 0.22881(3)
N11_3 N 0.65289(15) 0.22442(16) 0.21236(15)
N12_3 N 0.64678(16) 0.28236(16) 0.18920(15)
N13_3 N 0.59351(18) 0.3082(2) 0.1782(2)
H21_3 H 0.6042 0.3260 0.1699
H22_3 H 0.5712 0.3078 0.1787
C17_3 C 0.61763(19) 0.22391(19) 0.21351(18)
C18_3 C 0.56379(19) 0.2098(2) 0.2230(2)
C19_3 C 0.59666(18) 0.2509(2) 0.2031(2)
C20_3 C 0.6087(2) 0.1643(2) 0.2377(2)
H23_3 H 0.5894 0.1527 0.2490
H24_3 H 0.6271 0.1671 0.2547
N14_3 N 0.59758(15) 0.19809(17) 0.22565(17)
C21_3 C 0.5947(4) 0.1342(4) 0.1832(4)
H25_3 H 0.6039 0.1199 0.1649
H26_3 H 0.5860 0.1555 0.1735
H27_3 H 0.5763 0.1221 0.1947
C22_3 C 0.6218(3) 0.1419(3) 0.2077(3)
H28_3 H 0.6406 0.1540 0.1959
H29_3 H 0.6311 0.1203 0.2169
N15_3 N 0.56174(17) 0.2417(2) 0.2096(2)
C23_3 C 0.61185(18) 0.2809(2) 0.19041(19)
C24_3 C 0.66477(19) 0.2539(2) 0.20029(19)
H30_3 H 0.6888 0.2556 0.1991
S3_3 S 0.52935(5) 0.18696(7) 0.24281(8)
Cu4_3 Cu 0.51939(3) 0.27119(3) 0.21511(4)
S4_3 S 0.47065(5) 0.25719(8) 0.18696(7)
S5_3 S 0.68696(7) 0.52935(5) 0.24281(8)
S6_3 S 0.68696(7) 0.24281(8) 0.02935(5)
S7_3 S 0.52935(5) 0.31304(7) 0.25719(8)
S8_3 S 0.75719(8) 0.47065(5) 0.18696(7)
Cu5_3 Cu 0.48061(3) 0.21511(4) 0.22881(3)
Cu6_3 Cu 0.77119(3) 0.21511(4) 0.01939(3)
Cu7_3 Cu 0.51939(3) 0.22881(3) 0.28489(4)
Cu8_3 Cu 0.78489(4) 0.48061(3) 0.27119(3)
Cu10_3 Cu 0.72881(3) 0.51939(3) 0.28489(4)
S9_3 S 0.74281(8) 0.31304(7) 0.97065(5)
Cu9_3 Cu 0.78489(4) 0.27119(3) 0.98061(3)
Cu1_4 Cu 0.32575(2) 0.67425(2) 0.17425(2)
Cl1_4 Cl 0.36293(5) 0.63707(5) 0.13707(5)
N1_4 N 0.22442(16) 0.71236(15) 0.15289(15)
N2_4 N 0.28236(16) 0.68920(15) 0.14678(16)
N3_4 N 0.3082(2) 0.6782(2) 0.09351(18)
H1_4 H 0.3260 0.6699 0.1042
H2_4 H 0.3078 0.6787 0.0712
C1_4 C 0.22391(19) 0.71351(18) 0.11763(19)
C2_4 C 0.2098(2) 0.7230(2) 0.06379(19)
C3_4 C 0.2509(2) 0.7031(2) 0.09666(18)
C4_4 C 0.1643(2) 0.7377(2) 0.1087(2)
H3_4 H 0.1527 0.7490 0.0894
H4_4 H 0.1671 0.7547 0.1271
N4_4 N 0.19809(17) 0.72565(17) 0.09758(15)
C5_4 C 0.1342(4) 0.6832(4) 0.0947(4)
H5_4 H 0.1199 0.6649 0.1039
H6_4 H 0.1555 0.6735 0.0860
H7_4 H 0.1221 0.6947 0.0763
C6_4 C 0.1419(3) 0.7077(3) 0.1218(3)
H8_4 H 0.1540 0.6959 0.1406
H9_4 H 0.1203 0.7169 0.1311
N5_4 N 0.2417(2) 0.7096(2) 0.06174(17)
C7_4 C 0.2809(2) 0.69041(19) 0.11185(18)
C8_4 C 0.2539(2) 0.70029(19) 0.16477(19)
H10_4 H 0.2556 0.6991 0.1888
S1_4 S 0.18696(7) 0.74281(8) 0.02935(5)
Cu2_4 Cu 0.27119(3) 0.71511(4) 0.01939(3)
N6_4 N 0.28764(15) 0.65289(15) 0.27558(16)
N7_4 N 0.31080(15) 0.64678(16) 0.21764(16)
N8_4 N 0.3218(2) 0.59351(18) 0.1918(2)
H11_4 H 0.3301 0.6042 0.1740
H12_4 H 0.3213 0.5712 0.1922
C9_4 C 0.28649(18) 0.61763(19) 0.27609(19)
C10_4 C 0.2770(2) 0.56379(19) 0.2902(2)
C11_4 C 0.2969(2) 0.59666(18) 0.2491(2)
C12_4 C 0.2623(2) 0.6087(2) 0.3357(2)
H13_4 H 0.2510 0.5894 0.3473
H14_4 H 0.2453 0.6271 0.3329
N9_4 N 0.27435(17) 0.59758(15) 0.30191(17)
C13_4 C 0.3168(4) 0.5947(4) 0.3658(4)
H15_4 H 0.3351 0.6039 0.3801
H16_4 H 0.3265 0.5860 0.3445
H17_4 H 0.3053 0.5763 0.3779
C14_4 C 0.2923(3) 0.6218(3) 0.3581(3)
H18_4 H 0.3041 0.6406 0.3460
H19_4 H 0.2831 0.6311 0.3797
N10_4 N 0.2904(2) 0.56174(17) 0.2583(2)
C15_4 C 0.30959(19) 0.61185(18) 0.2191(2)
C16_4 C 0.29971(19) 0.66477(19) 0.2461(2)
H20_4 H 0.3009 0.6888 0.2444
S2_4 S 0.25719(8) 0.52935(5) 0.31304(7)
Cu3_4 Cu 0.28489(4) 0.51939(3) 0.22881(3)
N11_4 N 0.34711(15) 0.77558(16) 0.21236(15)
N12_4 N 0.35322(16) 0.71764(16) 0.18920(15)
N13_4 N 0.40649(18) 0.6918(2) 0.1782(2)
H21_4 H 0.3958 0.6740 0.1699
H22_4 H 0.4288 0.6922 0.1787
C17_4 C 0.38237(19) 0.77609(19) 0.21351(18)
C18_4 C 0.43621(19) 0.7902(2) 0.2230(2)
C19_4 C 0.40334(18) 0.7491(2) 0.2031(2)
C20_4 C 0.3913(2) 0.8357(2) 0.2377(2)
H23_4 H 0.4106 0.8473 0.2490
H24_4 H 0.3729 0.8329 0.2547
N14_4 N 0.40242(15) 0.80191(17) 0.22565(17)
C21_4 C 0.4053(4) 0.8658(4) 0.1832(4)
H25_4 H 0.3961 0.8801 0.1649
H26_4 H 0.4140 0.8445 0.1735
H27_4 H 0.4237 0.8779 0.1947
C22_4 C 0.3782(3) 0.8581(3) 0.2077(3)
H28_4 H 0.3594 0.8460 0.1959
H29_4 H 0.3689 0.8797 0.2169
N15_4 N 0.43826(17) 0.7583(2) 0.2096(2)
C23_4 C 0.38815(18) 0.7191(2) 0.19041(19)
C24_4 C 0.33523(19) 0.7461(2) 0.20029(19)
H30_4 H 0.3112 0.7444 0.1991
S3_4 S 0.47065(5) 0.81304(7) 0.24281(8)
Cu4_4 Cu 0.48061(3) 0.72881(3) 0.21511(4)
S4_4 S 0.52935(5) 0.74281(8) 0.18696(7)
S5_4 S 0.31304(7) 0.47065(5) 0.24281(8)
S6_4 S 0.31304(7) 0.75719(8) 0.02935(5)
S7_4 S 0.47065(5) 0.68696(7) 0.25719(8)
S8_4 S 0.24281(8) 0.52935(5) 0.18696(7)
Cu5_4 Cu 0.51939(3) 0.78489(4) 0.22881(3)
Cu6_4 Cu 0.22881(3) 0.78489(4) 0.01939(3)
Cu7_4 Cu 0.48061(3) 0.77119(3) 0.28489(4)
Cu8_4 Cu 0.21511(4) 0.51939(3) 0.27119(3)
Cu10_4 Cu 0.27119(3) 0.48061(3) 0.28489(4)
S9_4 S 0.25719(8) 0.68696(7) 0.97065(5)
Cu9_4 Cu 0.21511(4) 0.72881(3) 0.98061(3)
S9_5 S 0.02935(5) 0.74281(8) 0.68696(7)
Cu9_5 Cu 0.01939(3) 0.78489(4) 0.72881(3)
Cu1_5 Cu 0.82575(2) 0.67425(2) 0.67425(2)
Cl1_5 Cl 0.86293(5) 0.63707(5) 0.63707(5)
N1_5 N 0.84711(15) 0.77558(16) 0.71236(15)
N2_5 N 0.85322(16) 0.71764(16) 0.68920(15)
N3_5 N 0.90649(18) 0.6918(2) 0.6782(2)
H1_5 H 0.8958 0.6740 0.6699
H2_5 H 0.9288 0.6922 0.6787
C1_5 C 0.88237(19) 0.77609(19) 0.71351(18)
C2_5 C 0.93621(19) 0.7902(2) 0.7230(2)
C3_5 C 0.90334(18) 0.7491(2) 0.7031(2)
C4_5 C 0.8913(2) 0.8357(2) 0.7377(2)
H3_5 H 0.9106 0.8473 0.7490
H4_5 H 0.8729 0.8329 0.7547
N4_5 N 0.90242(15) 0.80191(17) 0.72565(17)
C5_5 C 0.9053(4) 0.8658(4) 0.6832(4)
H5_5 H 0.8961 0.8801 0.6649
H6_5 H 0.9140 0.8445 0.6735
H7_5 H 0.9237 0.8779 0.6947
C6_5 C 0.8782(3) 0.8581(3) 0.7077(3)
H8_5 H 0.8594 0.8460 0.6959
H9_5 H 0.8689 0.8797 0.7169
N5_5 N 0.93826(17) 0.7583(2) 0.7096(2)
C7_5 C 0.88815(18) 0.7191(2) 0.69041(19)
C8_5 C 0.83523(19) 0.7461(2) 0.70029(19)
H10_5 H 0.8112 0.7444 0.6991
S1_5 S 0.97065(5) 0.81304(7) 0.74281(8)
Cu2_5 Cu 0.98061(3) 0.72881(3) 0.71511(4)
N6_5 N 0.72442(16) 0.71236(15) 0.65289(15)
N7_5 N 0.78236(16) 0.68920(15) 0.64678(16)
N8_5 N 0.8082(2) 0.6782(2) 0.59351(18)
H11_5 H 0.8260 0.6699 0.6042
H12_5 H 0.8078 0.6787 0.5712
C9_5 C 0.72391(19) 0.71351(18) 0.61763(19)
C10_5 C 0.7098(2) 0.7230(2) 0.56379(19)
C11_5 C 0.7509(2) 0.7031(2) 0.59666(18)
C12_5 C 0.6643(2) 0.7377(2) 0.6087(2)
H13_5 H 0.6527 0.7490 0.5894
H14_5 H 0.6671 0.7547 0.6271
N9_5 N 0.69809(17) 0.72565(17) 0.59758(15)
C13_5 C 0.6342(4) 0.6832(4) 0.5947(4)
H15_5 H 0.6199 0.6649 0.6039
H16_5 H 0.6555 0.6735 0.5860
H17_5 H 0.6221 0.6947 0.5763
C14_5 C 0.6419(3) 0.7077(3) 0.6218(3)
H18_5 H 0.6540 0.6959 0.6406
H19_5 H 0.6203 0.7169 0.6311
N10_5 N 0.7417(2) 0.7096(2) 0.56174(17)
C15_5 C 0.7809(2) 0.69041(19) 0.61185(18)
C16_5 C 0.7539(2) 0.70029(19) 0.66477(19)
H20_5 H 0.7556 0.6991 0.6888
S2_5 S 0.68696(7) 0.74281(8) 0.52935(5)
Cu3_5 Cu 0.77119(3) 0.71511(4) 0.51939(3)
N11_5 N 0.78764(15) 0.65289(15) 0.77558(16)
N12_5 N 0.81080(15) 0.64678(16) 0.71764(16)
N13_5 N 0.8218(2) 0.59351(18) 0.6918(2)
H21_5 H 0.8301 0.6042 0.6740
H22_5 H 0.8213 0.5712 0.6922
C17_5 C 0.78649(18) 0.61763(19) 0.77609(19)
C18_5 C 0.7770(2) 0.56379(19) 0.7902(2)
C19_5 C 0.7969(2) 0.59666(18) 0.7491(2)
C20_5 C 0.7623(2) 0.6087(2) 0.8357(2)
H23_5 H 0.7510 0.5894 0.8473
H24_5 H 0.7453 0.6271 0.8329
N14_5 N 0.77435(17) 0.59758(15) 0.80191(17)
C21_5 C 0.8168(4) 0.5947(4) 0.8658(4)
H25_5 H 0.8351 0.6039 0.8801
H26_5 H 0.8265 0.5860 0.8445
H27_5 H 0.8053 0.5763 0.8779
C22_5 C 0.7923(3) 0.6218(3) 0.8581(3)
H28_5 H 0.8041 0.6406 0.8460
H29_5 H 0.7831 0.6311 0.8797
N15_5 N 0.7904(2) 0.56174(17) 0.7583(2)
C23_5 C 0.80959(19) 0.61185(18) 0.7191(2)
C24_5 C 0.79971(19) 0.66477(19) 0.7461(2)
H30_5 H 0.8009 0.6888 0.7444
S4_5 S 0.81304(7) 0.47065(5) 0.74281(8)
S5_5 S 0.75719(8) 0.68696(7) 0.47065(5)
S6_5 S 0.97065(5) 0.68696(7) 0.75719(8)
S8_5 S 0.81304(7) 0.75719(8) 0.52935(5)
Cu5_5 Cu 0.77119(3) 0.48061(3) 0.78489(4)
Cu6_5 Cu 0.98061(3) 0.77119(3) 0.78489(4)
Cu8_5 Cu 0.72881(3) 0.78489(4) 0.51939(3)
Cu10_5 Cu 0.71511(4) 0.72881(3) 0.48061(3)
S9_6 S 0.68696(7) 0.02935(5) 0.74281(8)
Cu9_6 Cu 0.72881(3) 0.01939(3) 0.78489(4)
Cu1_6 Cu 0.67425(2) 0.82575(2) 0.67425(2)
Cl1_6 Cl 0.63707(5) 0.86293(5) 0.63707(5)
N1_6 N 0.71236(15) 0.84711(15) 0.77558(16)
N2_6 N 0.68920(15) 0.85322(16) 0.71764(16)
N3_6 N 0.6782(2) 0.90649(18) 0.6918(2)
H1_6 H 0.6699 0.8958 0.6740
H2_6 H 0.6787 0.9288 0.6922
C1_6 C 0.71351(18) 0.88237(19) 0.77609(19)
C2_6 C 0.7230(2) 0.93621(19) 0.7902(2)
C3_6 C 0.7031(2) 0.90334(18) 0.7491(2)
C4_6 C 0.7377(2) 0.8913(2) 0.8357(2)
H3_6 H 0.7490 0.9106 0.8473
H4_6 H 0.7547 0.8729 0.8329
N4_6 N 0.72565(17) 0.90242(15) 0.80191(17)
C5_6 C 0.6832(4) 0.9053(4) 0.8658(4)
H5_6 H 0.6649 0.8961 0.8801
H6_6 H 0.6735 0.9140 0.8445
H7_6 H 0.6947 0.9237 0.8779
C6_6 C 0.7077(3) 0.8782(3) 0.8581(3)
H8_6 H 0.6959 0.8594 0.8460
H9_6 H 0.7169 0.8689 0.8797
N5_6 N 0.7096(2) 0.93826(17) 0.7583(2)
C7_6 C 0.69041(19) 0.88815(18) 0.7191(2)
C8_6 C 0.70029(19) 0.83523(19) 0.7461(2)
H10_6 H 0.6991 0.8112 0.7444
S1_6 S 0.74281(8) 0.97065(5) 0.81304(7)
Cu2_6 Cu 0.71511(4) 0.98061(3) 0.72881(3)
N6_6 N 0.65289(15) 0.72442(16) 0.71236(15)
N7_6 N 0.64678(16) 0.78236(16) 0.68920(15)
N8_6 N 0.59351(18) 0.8082(2) 0.6782(2)
H11_6 H 0.6042 0.8260 0.6699
H12_6 H 0.5712 0.8078 0.6787
C9_6 C 0.61763(19) 0.72391(19) 0.71351(18)
C10_6 C 0.56379(19) 0.7098(2) 0.7230(2)
C11_6 C 0.59666(18) 0.7509(2) 0.7031(2)
C12_6 C 0.6087(2) 0.6643(2) 0.7377(2)
H13_6 H 0.5894 0.6527 0.7490
H14_6 H 0.6271 0.6671 0.7547
N9_6 N 0.59758(15) 0.69809(17) 0.72565(17)
C13_6 C 0.5947(4) 0.6342(4) 0.6832(4)
H15_6 H 0.6039 0.6199 0.6649
H16_6 H 0.5860 0.6555 0.6735
H17_6 H 0.5763 0.6221 0.6947
C14_6 C 0.6218(3) 0.6419(3) 0.7077(3)
H18_6 H 0.6406 0.6540 0.6959
H19_6 H 0.6311 0.6203 0.7169
N10_6 N 0.56174(17) 0.7417(2) 0.7096(2)
C15_6 C 0.61185(18) 0.7809(2) 0.69041(19)
C16_6 C 0.66477(19) 0.7539(2) 0.70029(19)
H20_6 H 0.6888 0.7556 0.6991
N11_6 N 0.77558(16) 0.78764(15) 0.65289(15)
N12_6 N 0.71764(16) 0.81080(15) 0.64678(16)
N13_6 N 0.6918(2) 0.8218(2) 0.59351(18)
H21_6 H 0.6740 0.8301 0.6042
H22_6 H 0.6922 0.8213 0.5712
C17_6 C 0.77609(19) 0.78649(18) 0.61763(19)
C18_6 C 0.7902(2) 0.7770(2) 0.56379(19)
C19_6 C 0.7491(2) 0.7969(2) 0.59666(18)
C20_6 C 0.8357(2) 0.7623(2) 0.6087(2)
H23_6 H 0.8473 0.7510 0.5894
H24_6 H 0.8329 0.7453 0.6271
N14_6 N 0.80191(17) 0.77435(17) 0.59758(15)
C21_6 C 0.8658(4) 0.8168(4) 0.5947(4)
H25_6 H 0.8801 0.8351 0.6039
H26_6 H 0.8445 0.8265 0.5860
H27_6 H 0.8779 0.8053 0.5763
C22_6 C 0.8581(3) 0.7923(3) 0.6218(3)
H28_6 H 0.8460 0.8041 0.6406
H29_6 H 0.8797 0.7831 0.6311
N15_6 N 0.7583(2) 0.7904(2) 0.56174(17)
C23_6 C 0.7191(2) 0.80959(19) 0.61185(18)
C24_6 C 0.7461(2) 0.79971(19) 0.66477(19)
H30_6 H 0.7444 0.8009 0.6888
S4_6 S 0.74281(8) 0.81304(7) 0.47065(5)
S5_6 S 0.47065(5) 0.75719(8) 0.68696(7)
S6_6 S 0.75719(8) 0.97065(5) 0.68696(7)
Cu5_6 Cu 0.78489(4) 0.77119(3) 0.48061(3)
Cu6_6 Cu 0.78489(4) 0.98061(3) 0.77119(3)
Cu10_6 Cu 0.48061(3) 0.71511(4) 0.72881(3)
Cu1_7 Cu 0.17425(2) 0.32575(2) 0.67425(2)
Cl1_7 Cl 0.13707(5) 0.36293(5) 0.63707(5)
N1_7 N 0.15289(15) 0.22442(16) 0.71236(15)
N2_7 N 0.14678(16) 0.28236(16) 0.68920(15)
N3_7 N 0.09351(18) 0.3082(2) 0.6782(2)
H1_7 H 0.1042 0.3260 0.6699
H2_7 H 0.0712 0.3078 0.6787
C1_7 C 0.11763(19) 0.22391(19) 0.71351(18)
C2_7 C 0.06379(19) 0.2098(2) 0.7230(2)
C3_7 C 0.09666(18) 0.2509(2) 0.7031(2)
C4_7 C 0.1087(2) 0.1643(2) 0.7377(2)
H3_7 H 0.0894 0.1527 0.7490
H4_7 H 0.1271 0.1671 0.7547
N4_7 N 0.09758(15) 0.19809(17) 0.72565(17)
C5_7 C 0.0947(4) 0.1342(4) 0.6832(4)
H5_7 H 0.1039 0.1199 0.6649
H6_7 H 0.0860 0.1555 0.6735
H7_7 H 0.0763 0.1221 0.6947
C6_7 C 0.1218(3) 0.1419(3) 0.7077(3)
H8_7 H 0.1406 0.1540 0.6959
H9_7 H 0.1311 0.1203 0.7169
N5_7 N 0.06174(17) 0.2417(2) 0.7096(2)
C7_7 C 0.11185(18) 0.2809(2) 0.69041(19)
C8_7 C 0.16477(19) 0.2539(2) 0.70029(19)
H10_7 H 0.1888 0.2556 0.6991
S1_7 S 0.02935(5) 0.18696(7) 0.74281(8)
Cu2_7 Cu 0.01939(3) 0.27119(3) 0.71511(4)
N6_7 N 0.27558(16) 0.28764(15) 0.65289(15)
N7_7 N 0.21764(16) 0.31080(15) 0.64678(16)
N8_7 N 0.1918(2) 0.3218(2) 0.59351(18)
H11_7 H 0.1740 0.3301 0.6042
H12_7 H 0.1922 0.3213 0.5712
C9_7 C 0.27609(19) 0.28649(18) 0.61763(19)
C10_7 C 0.2902(2) 0.2770(2) 0.56379(19)
C11_7 C 0.2491(2) 0.2969(2) 0.59666(18)
C12_7 C 0.3357(2) 0.2623(2) 0.6087(2)
H13_7 H 0.3473 0.2510 0.5894
H14_7 H 0.3329 0.2453 0.6271
N9_7 N 0.30191(17) 0.27435(17) 0.59758(15)
C13_7 C 0.3658(4) 0.3168(4) 0.5947(4)
H15_7 H 0.3801 0.3351 0.6039
H16_7 H 0.3445 0.3265 0.5860
H17_7 H 0.3779 0.3053 0.5763
C14_7 C 0.3581(3) 0.2923(3) 0.6218(3)
H18_7 H 0.3460 0.3041 0.6406
H19_7 H 0.3797 0.2831 0.6311
N10_7 N 0.2583(2) 0.2904(2) 0.56174(17)
C15_7 C 0.2191(2) 0.30959(19) 0.61185(18)
C16_7 C 0.2461(2) 0.29971(19) 0.66477(19)
H20_7 H 0.2444 0.3009 0.6888
S2_6 S 0.31304(7) 0.25719(8) 0.52935(5)
Cu3_6 Cu 0.22881(3) 0.28489(4) 0.51939(3)
N11_7 N 0.21236(15) 0.34711(15) 0.77558(16)
N12_7 N 0.18920(15) 0.35322(16) 0.71764(16)
N13_7 N 0.1782(2) 0.40649(18) 0.6918(2)
H21_7 H 0.1699 0.3958 0.6740
H22_7 H 0.1787 0.4288 0.6922
C17_7 C 0.21351(18) 0.38237(19) 0.77609(19)
C18_7 C 0.2230(2) 0.43621(19) 0.7902(2)
C19_7 C 0.2031(2) 0.40334(18) 0.7491(2)
C20_7 C 0.2377(2) 0.3913(2) 0.8357(2)
H23_7 H 0.2490 0.4106 0.8473
H24_7 H 0.2547 0.3729 0.8329
N14_7 N 0.22565(17) 0.40242(15) 0.80191(17)
C21_7 C 0.1832(4) 0.4053(4) 0.8658(4)
H25_7 H 0.1649 0.3961 0.8801
H26_7 H 0.1735 0.4140 0.8445
H27_7 H 0.1947 0.4237 0.8779
C22_7 C 0.2077(3) 0.3782(3) 0.8581(3)
H28_7 H 0.1959 0.3594 0.8460
H29_7 H 0.2169 0.3689 0.8797
N15_7 N 0.2096(2) 0.43826(17) 0.7583(2)
C23_7 C 0.19041(19) 0.38815(18) 0.7191(2)
C24_7 C 0.20029(19) 0.33523(19) 0.7461(2)
H30_7 H 0.1991 0.3112 0.7444
S4_7 S 0.18696(7) 0.52935(5) 0.74281(8)
S5_7 S 0.24281(8) 0.31304(7) 0.47065(5)
S6_7 S 0.02935(5) 0.31304(7) 0.75719(8)
S8_6 S 0.18696(7) 0.24281(8) 0.52935(5)
Cu5_7 Cu 0.22881(3) 0.51939(3) 0.78489(4)
Cu6_7 Cu 0.01939(3) 0.22881(3) 0.78489(4)
Cu8_6 Cu 0.27119(3) 0.21511(4) 0.51939(3)
Cu10_7 Cu 0.28489(4) 0.27119(3) 0.48061(3)
S9_7 S 0.97065(5) 0.25719(8) 0.68696(7)
Cu9_7 Cu 0.98061(3) 0.21511(4) 0.72881(3)
S9_8 S 0.31304(7) 0.02935(5) 0.25719(8)
Cu9_8 Cu 0.27119(3) 0.01939(3) 0.21511(4)
Cu1_8 Cu 0.32575(2) 0.82575(2) 0.32575(2)
Cl1_8 Cl 0.36293(5) 0.86293(5) 0.36293(5)
N1_8 N 0.28764(15) 0.84711(15) 0.22442(16)
N2_8 N 0.31080(15) 0.85322(16) 0.28236(16)
N3_8 N 0.3218(2) 0.90649(18) 0.3082(2)
H1_8 H 0.3301 0.8958 0.3260
H2_8 H 0.3213 0.9288 0.3078
C1_8 C 0.28649(18) 0.88237(19) 0.22391(19)
C2_8 C 0.2770(2) 0.93621(19) 0.2098(2)
C3_8 C 0.2969(2) 0.90334(18) 0.2509(2)
C4_8 C 0.2623(2) 0.8913(2) 0.1643(2)
H3_8 H 0.2510 0.9106 0.1527
H4_8 H 0.2453 0.8729 0.1671
N4_8 N 0.27435(17) 0.90242(15) 0.19809(17)
C5_8 C 0.3168(4) 0.9053(4) 0.1342(4)
H5_8 H 0.3351 0.8961 0.1199
H6_8 H 0.3265 0.9140 0.1555
H7_8 H 0.3053 0.9237 0.1221
C6_8 C 0.2923(3) 0.8782(3) 0.1419(3)
H8_8 H 0.3041 0.8594 0.1540
H9_8 H 0.2831 0.8689 0.1203
N5_8 N 0.2904(2) 0.93826(17) 0.2417(2)
C7_8 C 0.30959(19) 0.88815(18) 0.2809(2)
C8_8 C 0.29971(19) 0.83523(19) 0.2539(2)
H10_8 H 0.3009 0.8112 0.2556
S1_8 S 0.25719(8) 0.97065(5) 0.18696(7)
Cu2_8 Cu 0.28489(4) 0.98061(3) 0.27119(3)
N6_8 N 0.34711(15) 0.72442(16) 0.28764(15)
N7_8 N 0.35322(16) 0.78236(16) 0.31080(15)
N8_8 N 0.40649(18) 0.8082(2) 0.3218(2)
H11_8 H 0.3958 0.8260 0.3301
H12_8 H 0.4288 0.8078 0.3213
C9_8 C 0.38237(19) 0.72391(19) 0.28649(18)
C10_8 C 0.43621(19) 0.7098(2) 0.2770(2)
C11_8 C 0.40334(18) 0.7509(2) 0.2969(2)
C12_8 C 0.3913(2) 0.6643(2) 0.2623(2)
H13_8 H 0.4106 0.6527 0.2510
H14_8 H 0.3729 0.6671 0.2453
N9_8 N 0.40242(15) 0.69809(17) 0.27435(17)
C13_8 C 0.4053(4) 0.6342(4) 0.3168(4)
H15_8 H 0.3961 0.6199 0.3351
H16_8 H 0.4140 0.6555 0.3265
H17_8 H 0.4237 0.6221 0.3053
C14_8 C 0.3782(3) 0.6419(3) 0.2923(3)
H18_8 H 0.3594 0.6540 0.3041
H19_8 H 0.3689 0.6203 0.2831
N10_8 N 0.43826(17) 0.7417(2) 0.2904(2)
C15_8 C 0.38815(18) 0.7809(2) 0.30959(19)
C16_8 C 0.33523(19) 0.7539(2) 0.29971(19)
H20_8 H 0.3112 0.7556 0.3009
N11_8 N 0.22442(16) 0.78764(15) 0.34711(15)
N12_8 N 0.28236(16) 0.81080(15) 0.35322(16)
N13_8 N 0.3082(2) 0.8218(2) 0.40649(18)
H21_8 H 0.3260 0.8301 0.3958
H22_8 H 0.3078 0.8213 0.4288
C17_8 C 0.22391(19) 0.78649(18) 0.38237(19)
C18_8 C 0.2098(2) 0.7770(2) 0.43621(19)
C19_8 C 0.2509(2) 0.7969(2) 0.40334(18)
C20_8 C 0.1643(2) 0.7623(2) 0.3913(2)
H23_8 H 0.1527 0.7510 0.4106
H24_8 H 0.1671 0.7453 0.3729
N14_8 N 0.19809(17) 0.77435(17) 0.40242(15)
C21_8 C 0.1342(4) 0.8168(4) 0.4053(4)
H25_8 H 0.1199 0.8351 0.3961
H26_8 H 0.1555 0.8265 0.4140
H27_8 H 0.1221 0.8053 0.4237
C22_8 C 0.1419(3) 0.7923(3) 0.3782(3)
H28_8 H 0.1540 0.8041 0.3594
H29_8 H 0.1203 0.7831 0.3689
N15_8 N 0.2417(2) 0.7904(2) 0.43826(17)
C23_8 C 0.2809(2) 0.80959(19) 0.38815(18)
C24_8 C 0.2539(2) 0.79971(19) 0.33523(19)
H30_8 H 0.2556 0.8009 0.3112
S3_5 S 0.18696(7) 0.75719(8) 0.47065(5)
Cu4_5 Cu 0.27119(3) 0.78489(4) 0.48061(3)
S4_8 S 0.25719(8) 0.81304(7) 0.52935(5)
S5_8 S 0.52935(5) 0.75719(8) 0.31304(7)
S6_8 S 0.24281(8) 0.97065(5) 0.31304(7)
S7_5 S 0.31304(7) 0.74281(8) 0.47065(5)
Cu5_8 Cu 0.21511(4) 0.77119(3) 0.51939(3)
Cu6_8 Cu 0.21511(4) 0.98061(3) 0.22881(3)
Cu7_5 Cu 0.22881(3) 0.71511(4) 0.48061(3)
Cu10_8 Cu 0.51939(3) 0.71511(4) 0.27119(3)
S9_9 S 0.02935(5) 0.25719(8) 0.31304(7)
Cu9_9 Cu 0.01939(3) 0.21511(4) 0.27119(3)
Cu1_9 Cu 0.82575(2) 0.32575(2) 0.32575(2)
Cl1_9 Cl 0.86293(5) 0.36293(5) 0.36293(5)
N1_9 N 0.84711(15) 0.22442(16) 0.28764(15)
N2_9 N 0.85322(16) 0.28236(16) 0.31080(15)
N3_9 N 0.90649(18) 0.3082(2) 0.3218(2)
H1_9 H 0.8958 0.3260 0.3301
H2_9 H 0.9288 0.3078 0.3213
C1_9 C 0.88237(19) 0.22391(19) 0.28649(18)
C2_9 C 0.93621(19) 0.2098(2) 0.2770(2)
C3_9 C 0.90334(18) 0.2509(2) 0.2969(2)
C4_9 C 0.8913(2) 0.1643(2) 0.2623(2)
H3_9 H 0.9106 0.1527 0.2510
H4_9 H 0.8729 0.1671 0.2453
N4_9 N 0.90242(15) 0.19809(17) 0.27435(17)
C5_9 C 0.9053(4) 0.1342(4) 0.3168(4)
H5_9 H 0.8961 0.1199 0.3351
H6_9 H 0.9140 0.1555 0.3265
H7_9 H 0.9237 0.1221 0.3053
C6_9 C 0.8782(3) 0.1419(3) 0.2923(3)
H8_9 H 0.8594 0.1540 0.3041
H9_9 H 0.8689 0.1203 0.2831
N5_9 N 0.93826(17) 0.2417(2) 0.2904(2)
C7_9 C 0.88815(18) 0.2809(2) 0.30959(19)
C8_9 C 0.83523(19) 0.2539(2) 0.29971(19)
H10_9 H 0.8112 0.2556 0.3009
S1_9 S 0.97065(5) 0.18696(7) 0.25719(8)
Cu2_9 Cu 0.98061(3) 0.27119(3) 0.28489(4)
N6_9 N 0.72442(16) 0.28764(15) 0.34711(15)
N7_9 N 0.78236(16) 0.31080(15) 0.35322(16)
N8_9 N 0.8082(2) 0.3218(2) 0.40649(18)
H11_9 H 0.8260 0.3301 0.3958
H12_9 H 0.8078 0.3213 0.4288
C9_9 C 0.72391(19) 0.28649(18) 0.38237(19)
C10_9 C 0.7098(2) 0.2770(2) 0.43621(19)
C11_9 C 0.7509(2) 0.2969(2) 0.40334(18)
C12_9 C 0.6643(2) 0.2623(2) 0.3913(2)
H13_9 H 0.6527 0.2510 0.4106
H14_9 H 0.6671 0.2453 0.3729
N9_9 N 0.69809(17) 0.27435(17) 0.40242(15)
C13_9 C 0.6342(4) 0.3168(4) 0.4053(4)
H15_9 H 0.6199 0.3351 0.3961
H16_9 H 0.6555 0.3265 0.4140
H17_9 H 0.6221 0.3053 0.4237
C14_9 C 0.6419(3) 0.2923(3) 0.3782(3)
H18_9 H 0.6540 0.3041 0.3594
H19_9 H 0.6203 0.2831 0.3689
N10_9 N 0.7417(2) 0.2904(2) 0.43826(17)
C15_9 C 0.7809(2) 0.30959(19) 0.38815(18)
C16_9 C 0.7539(2) 0.29971(19) 0.33523(19)
H20_9 H 0.7556 0.3009 0.3112
S2_7 S 0.68696(7) 0.25719(8) 0.47065(5)
Cu3_7 Cu 0.77119(3) 0.28489(4) 0.48061(3)
N11_9 N 0.78764(15) 0.34711(15) 0.22442(16)
N12_9 N 0.81080(15) 0.35322(16) 0.28236(16)
N13_9 N 0.8218(2) 0.40649(18) 0.3082(2)
H21_9 H 0.8301 0.3958 0.3260
H22_9 H 0.8213 0.4288 0.3078
C17_9 C 0.78649(18) 0.38237(19) 0.22391(19)
C18_9 C 0.7770(2) 0.43621(19) 0.2098(2)
C19_9 C 0.7969(2) 0.40334(18) 0.2509(2)
C20_9 C 0.7623(2) 0.3913(2) 0.1643(2)
H23_9 H 0.7510 0.4106 0.1527
H24_9 H 0.7453 0.3729 0.1671
N14_9 N 0.77435(17) 0.40242(15) 0.19809(17)
C21_9 C 0.8168(4) 0.4053(4) 0.1342(4)
H25_9 H 0.8351 0.3961 0.1199
H26_9 H 0.8265 0.4140 0.1555
H27_9 H 0.8053 0.4237 0.1221
C22_9 C 0.7923(3) 0.3782(3) 0.1419(3)
H28_9 H 0.8041 0.3594 0.1540
H29_9 H 0.7831 0.3689 0.1203
N15_9 N 0.7904(2) 0.43826(17) 0.2417(2)
C23_9 C 0.80959(19) 0.38815(18) 0.2809(2)
C24_9 C 0.79971(19) 0.33523(19) 0.2539(2)
H30_9 H 0.8009 0.3112 0.2556
S4_9 S 0.81304(7) 0.52935(5) 0.25719(8)
S5_9 S 0.75719(8) 0.31304(7) 0.52935(5)
S6_9 S 0.97065(5) 0.31304(7) 0.24281(8)
S8_7 S 0.81304(7) 0.24281(8) 0.47065(5)
Cu5_9 Cu 0.77119(3) 0.51939(3) 0.21511(4)
Cu6_9 Cu 0.98061(3) 0.22881(3) 0.21511(4)
Cu8_7 Cu 0.72881(3) 0.21511(4) 0.48061(3)
Cu10_9 Cu 0.71511(4) 0.27119(3) 0.51939(3)
Cu1_10 Cu 0.32575(2) 0.17425(2) 0.67425(2)
Cl1_10 Cl 0.36293(5) 0.13707(5) 0.63707(5)
N1_10 N 0.28764(15) 0.15289(15) 0.77558(16)
N2_10 N 0.31080(15) 0.14678(16) 0.71764(16)
N3_10 N 0.3218(2) 0.09351(18) 0.6918(2)
H1_10 H 0.3301 0.1042 0.6740
H2_10 H 0.3213 0.0712 0.6922
C1_10 C 0.28649(18) 0.11763(19) 0.77609(19)
C2_10 C 0.2770(2) 0.06379(19) 0.7902(2)
C3_10 C 0.2969(2) 0.09666(18) 0.7491(2)
C4_10 C 0.2623(2) 0.1087(2) 0.8357(2)
H3_10 H 0.2510 0.0894 0.8473
H4_10 H 0.2453 0.1271 0.8329
N4_10 N 0.27435(17) 0.09758(15) 0.80191(17)
C5_10 C 0.3168(4) 0.0947(4) 0.8658(4)
H5_10 H 0.3351 0.1039 0.8801
H6_10 H 0.3265 0.0860 0.8445
H7_10 H 0.3053 0.0763 0.8779
C6_10 C 0.2923(3) 0.1218(3) 0.8581(3)
H8_10 H 0.3041 0.1406 0.8460
H9_10 H 0.2831 0.1311 0.8797
N5_10 N 0.2904(2) 0.06174(17) 0.7583(2)
C7_10 C 0.30959(19) 0.11185(18) 0.7191(2)
C8_10 C 0.29971(19) 0.16477(19) 0.7461(2)
H10_10 H 0.3009 0.1888 0.7444
S1_10 S 0.25719(8) 0.02935(5) 0.81304(7)
Cu2_10 Cu 0.28489(4) 0.01939(3) 0.72881(3)
N6_10 N 0.34711(15) 0.27558(16) 0.71236(15)
N7_10 N 0.35322(16) 0.21764(16) 0.68920(15)
N8_10 N 0.40649(18) 0.1918(2) 0.6782(2)
H11_10 H 0.3958 0.1740 0.6699
H12_10 H 0.4288 0.1922 0.6787
C9_10 C 0.38237(19) 0.27609(19) 0.71351(18)
C10_10 C 0.43621(19) 0.2902(2) 0.7230(2)
C11_10 C 0.40334(18) 0.2491(2) 0.7031(2)
C12_10 C 0.3913(2) 0.3357(2) 0.7377(2)
H13_10 H 0.4106 0.3473 0.7490
H14_10 H 0.3729 0.3329 0.7547
N9_10 N 0.40242(15) 0.30191(17) 0.72565(17)
C13_10 C 0.4053(4) 0.3658(4) 0.6832(4)
H15_10 H 0.3961 0.3801 0.6649
H16_10 H 0.4140 0.3445 0.6735
H17_10 H 0.4237 0.3779 0.6947
C14_10 C 0.3782(3) 0.3581(3) 0.7077(3)
H18_10 H 0.3594 0.3460 0.6959
H19_10 H 0.3689 0.3797 0.7169
N10_10 N 0.43826(17) 0.2583(2) 0.7096(2)
C15_10 C 0.38815(18) 0.2191(2) 0.69041(19)
C16_10 C 0.33523(19) 0.2461(2) 0.70029(19)
H20_10 H 0.3112 0.2444 0.6991
N11_10 N 0.22442(16) 0.21236(15) 0.65289(15)
N12_10 N 0.28236(16) 0.18920(15) 0.64678(16)
N13_10 N 0.3082(2) 0.1782(2) 0.59351(18)
H21_10 H 0.3260 0.1699 0.6042
H22_10 H 0.3078 0.1787 0.5712
C17_10 C 0.22391(19) 0.21351(18) 0.61763(19)
C18_10 C 0.2098(2) 0.2230(2) 0.56379(19)
C19_10 C 0.2509(2) 0.2031(2) 0.59666(18)
C20_10 C 0.1643(2) 0.2377(2) 0.6087(2)
H23_10 H 0.1527 0.2490 0.5894
H24_10 H 0.1671 0.2547 0.6271
N14_10 N 0.19809(17) 0.22565(17) 0.59758(15)
C21_10 C 0.1342(4) 0.1832(4) 0.5947(4)
H25_10 H 0.1199 0.1649 0.6039
H26_10 H 0.1555 0.1735 0.5860
H27_10 H 0.1221 0.1947 0.5763
C22_10 C 0.1419(3) 0.2077(3) 0.6218(3)
H28_10 H 0.1540 0.1959 0.6406
H29_10 H 0.1203 0.2169 0.6311
N15_10 N 0.2417(2) 0.2096(2) 0.56174(17)
C23_10 C 0.2809(2) 0.19041(19) 0.61185(18)
C24_10 C 0.2539(2) 0.20029(19) 0.66477(19)
H30_10 H 0.2556 0.1991 0.6888
S4_10 S 0.25719(8) 0.18696(7) 0.47065(5)
S5_10 S 0.52935(5) 0.24281(8) 0.68696(7)
S6_10 S 0.24281(8) 0.02935(5) 0.68696(7)
Cu5_10 Cu 0.21511(4) 0.22881(3) 0.48061(3)
Cu6_10 Cu 0.21511(4) 0.01939(3) 0.77119(3)
Cu10_10 Cu 0.51939(3) 0.28489(4) 0.72881(3)
S9_10 S 0.31304(7) 0.97065(5) 0.74281(8)
Cu9_10 Cu 0.27119(3) 0.98061(3) 0.78489(4)
Cu1_11 Cu 0.17425(2) 0.67425(2) 0.32575(2)
Cl1_11 Cl 0.13707(5) 0.63707(5) 0.36293(5)
N1_11 N 0.15289(15) 0.77558(16) 0.28764(15)
N2_11 N 0.14678(16) 0.71764(16) 0.31080(15)
N3_11 N 0.09351(18) 0.6918(2) 0.3218(2)
H1_11 H 0.1042 0.6740 0.3301
H2_11 H 0.0712 0.6922 0.3213
C1_11 C 0.11763(19) 0.77609(19) 0.28649(18)
C2_11 C 0.06379(19) 0.7902(2) 0.2770(2)
C3_11 C 0.09666(18) 0.7491(2) 0.2969(2)
C4_11 C 0.1087(2) 0.8357(2) 0.2623(2)
H3_11 H 0.0894 0.8473 0.2510
H4_11 H 0.1271 0.8329 0.2453
N4_11 N 0.09758(15) 0.80191(17) 0.27435(17)
C5_11 C 0.0947(4) 0.8658(4) 0.3168(4)
H5_11 H 0.1039 0.8801 0.3351
H6_11 H 0.0860 0.8445 0.3265
H7_11 H 0.0763 0.8779 0.3053
C6_11 C 0.1218(3) 0.8581(3) 0.2923(3)
H8_11 H 0.1406 0.8460 0.3041
H9_11 H 0.1311 0.8797 0.2831
N5_11 N 0.06174(17) 0.7583(2) 0.2904(2)
C7_11 C 0.11185(18) 0.7191(2) 0.30959(19)
C8_11 C 0.16477(19) 0.7461(2) 0.29971(19)
H10_11 H 0.1888 0.7444 0.3009
S1_11 S 0.02935(5) 0.81304(7) 0.25719(8)
Cu2_11 Cu 0.01939(3) 0.72881(3) 0.28489(4)
N6_11 N 0.27558(16) 0.71236(15) 0.34711(15)
N7_11 N 0.21764(16) 0.68920(15) 0.35322(16)
N8_11 N 0.1918(2) 0.6782(2) 0.40649(18)
H11_11 H 0.1740 0.6699 0.3958
H12_11 H 0.1922 0.6787 0.4288
C9_11 C 0.27609(19) 0.71351(18) 0.38237(19)
C10_11 C 0.2902(2) 0.7230(2) 0.43621(19)
C11_11 C 0.2491(2) 0.7031(2) 0.40334(18)
C12_11 C 0.3357(2) 0.7377(2) 0.3913(2)
H13_11 H 0.3473 0.7490 0.4106
H14_11 H 0.3329 0.7547 0.3729
N9_11 N 0.30191(17) 0.72565(17) 0.40242(15)
C13_11 C 0.3658(4) 0.6832(4) 0.4053(4)
H15_11 H 0.3801 0.6649 0.3961
H16_11 H 0.3445 0.6735 0.4140
H17_11 H 0.3779 0.6947 0.4237
C14_11 C 0.3581(3) 0.7077(3) 0.3782(3)
H18_11 H 0.3460 0.6959 0.3594
H19_11 H 0.3797 0.7169 0.3689
N10_11 N 0.2583(2) 0.7096(2) 0.43826(17)
C15_11 C 0.2191(2) 0.69041(19) 0.38815(18)
C16_11 C 0.2461(2) 0.70029(19) 0.33523(19)
H20_11 H 0.2444 0.6991 0.3112
N11_11 N 0.21236(15) 0.65289(15) 0.22442(16)
N12_11 N 0.18920(15) 0.64678(16) 0.28236(16)
N13_11 N 0.1782(2) 0.59351(18) 0.3082(2)
H21_11 H 0.1699 0.6042 0.3260
H22_11 H 0.1787 0.5712 0.3078
C17_11 C 0.21351(18) 0.61763(19) 0.22391(19)
C18_11 C 0.2230(2) 0.56379(19) 0.2098(2)
C19_11 C 0.2031(2) 0.59666(18) 0.2509(2)
C20_11 C 0.2377(2) 0.6087(2) 0.1643(2)
H23_11 H 0.2490 0.5894 0.1527
H24_11 H 0.2547 0.6271 0.1671
N14_11 N 0.22565(17) 0.59758(15) 0.19809(17)
C21_11 C 0.1832(4) 0.5947(4) 0.1342(4)
H25_11 H 0.1649 0.6039 0.1199
H26_11 H 0.1735 0.5860 0.1555
H27_11 H 0.1947 0.5763 0.1221
C22_11 C 0.2077(3) 0.6218(3) 0.1419(3)
H28_11 H 0.1959 0.6406 0.1540
H29_11 H 0.2169 0.6311 0.1203
N15_11 N 0.2096(2) 0.56174(17) 0.2417(2)
C23_11 C 0.19041(19) 0.61185(18) 0.2809(2)
C24_11 C 0.20029(19) 0.66477(19) 0.2539(2)
H30_11 H 0.1991 0.6888 0.2556
S4_11 S 0.18696(7) 0.47065(5) 0.25719(8)
S5_11 S 0.24281(8) 0.68696(7) 0.52935(5)
S6_11 S 0.02935(5) 0.68696(7) 0.24281(8)
Cu5_11 Cu 0.22881(3) 0.48061(3) 0.21511(4)
Cu6_11 Cu 0.01939(3) 0.77119(3) 0.21511(4)
Cu10_11 Cu 0.28489(4) 0.72881(3) 0.51939(3)
S9_11 S 0.97065(5) 0.74281(8) 0.31304(7)
Cu9_11 Cu 0.98061(3) 0.78489(4) 0.27119(3)
Cu1_12 Cu 0.67425(2) 0.17425(2) 0.32575(2)
Cl1_12 Cl 0.63707(5) 0.13707(5) 0.36293(5)
N1_12 N 0.71236(15) 0.15289(15) 0.22442(16)
N2_12 N 0.68920(15) 0.14678(16) 0.28236(16)
N3_12 N 0.6782(2) 0.09351(18) 0.3082(2)
H1_12 H 0.6699 0.1042 0.3260
H2_12 H 0.6787 0.0712 0.3078
C1_12 C 0.71351(18) 0.11763(19) 0.22391(19)
C2_12 C 0.7230(2) 0.06379(19) 0.2098(2)
C3_12 C 0.7031(2) 0.09666(18) 0.2509(2)
C4_12 C 0.7377(2) 0.1087(2) 0.1643(2)
H3_12 H 0.7490 0.0894 0.1527
H4_12 H 0.7547 0.1271 0.1671
N4_12 N 0.72565(17) 0.09758(15) 0.19809(17)
C5_12 C 0.6832(4) 0.0947(4) 0.1342(4)
H5_12 H 0.6649 0.1039 0.1199
H6_12 H 0.6735 0.0860 0.1555
H7_12 H 0.6947 0.0763 0.1221
C6_12 C 0.7077(3) 0.1218(3) 0.1419(3)
H8_12 H 0.6959 0.1406 0.1540
H9_12 H 0.7169 0.1311 0.1203
N5_12 N 0.7096(2) 0.06174(17) 0.2417(2)
C7_12 C 0.69041(19) 0.11185(18) 0.2809(2)
C8_12 C 0.70029(19) 0.16477(19) 0.2539(2)
H10_12 H 0.6991 0.1888 0.2556
S1_12 S 0.74281(8) 0.02935(5) 0.18696(7)
Cu2_12 Cu 0.71511(4) 0.01939(3) 0.27119(3)
N6_12 N 0.65289(15) 0.27558(16) 0.28764(15)
N7_12 N 0.64678(16) 0.21764(16) 0.31080(15)
N8_12 N 0.59351(18) 0.1918(2) 0.3218(2)
H11_12 H 0.6042 0.1740 0.3301
H12_12 H 0.5712 0.1922 0.3213
C9_12 C 0.61763(19) 0.27609(19) 0.28649(18)
C10_12 C 0.56379(19) 0.2902(2) 0.2770(2)
C11_12 C 0.59666(18) 0.2491(2) 0.2969(2)
C12_12 C 0.6087(2) 0.3357(2) 0.2623(2)
H13_12 H 0.5894 0.3473 0.2510
H14_12 H 0.6271 0.3329 0.2453
N9_12 N 0.59758(15) 0.30191(17) 0.27435(17)
C13_12 C 0.5947(4) 0.3658(4) 0.3168(4)
H15_12 H 0.6039 0.3801 0.3351
H16_12 H 0.5860 0.3445 0.3265
H17_12 H 0.5763 0.3779 0.3053
C14_12 C 0.6218(3) 0.3581(3) 0.2923(3)
H18_12 H 0.6406 0.3460 0.3041
H19_12 H 0.6311 0.3797 0.2831
N10_12 N 0.56174(17) 0.2583(2) 0.2904(2)
C15_12 C 0.61185(18) 0.2191(2) 0.30959(19)
C16_12 C 0.66477(19) 0.2461(2) 0.29971(19)
H20_12 H 0.6888 0.2444 0.3009
N11_12 N 0.77558(16) 0.21236(15) 0.34711(15)
N12_12 N 0.71764(16) 0.18920(15) 0.35322(16)
N13_12 N 0.6918(2) 0.1782(2) 0.40649(18)
H21_12 H 0.6740 0.1699 0.3958
H22_12 H 0.6922 0.1787 0.4288
C17_12 C 0.77609(19) 0.21351(18) 0.38237(19)
C18_12 C 0.7902(2) 0.2230(2) 0.43621(19)
C19_12 C 0.7491(2) 0.2031(2) 0.40334(18)
C20_12 C 0.8357(2) 0.2377(2) 0.3913(2)
H23_12 H 0.8473 0.2490 0.4106
H24_12 H 0.8329 0.2547 0.3729
N14_12 N 0.80191(17) 0.22565(17) 0.40242(15)
C21_12 C 0.8658(4) 0.1832(4) 0.4053(4)
H25_12 H 0.8801 0.1649 0.3961
H26_12 H 0.8445 0.1735 0.4140
H27_12 H 0.8779 0.1947 0.4237
C22_12 C 0.8581(3) 0.2077(3) 0.3782(3)
H28_12 H 0.8460 0.1959 0.3594
H29_12 H 0.8797 0.2169 0.3689
N15_12 N 0.7583(2) 0.2096(2) 0.43826(17)
C23_12 C 0.7191(2) 0.19041(19) 0.38815(18)
C24_12 C 0.7461(2) 0.20029(19) 0.33523(19)
H30_12 H 0.7444 0.1991 0.3112
S4_12 S 0.74281(8) 0.18696(7) 0.52935(5)
S5_12 S 0.47065(5) 0.24281(8) 0.31304(7)
S6_12 S 0.75719(8) 0.02935(5) 0.31304(7)
Cu5_12 Cu 0.78489(4) 0.22881(3) 0.51939(3)
Cu6_12 Cu 0.78489(4) 0.01939(3) 0.22881(3)
Cu10_12 Cu 0.48061(3) 0.28489(4) 0.27119(3)
S9_12 S 0.68696(7) 0.97065(5) 0.25719(8)
Cu9_12 Cu 0.72881(3) 0.98061(3) 0.21511(4)
Cu1_13 Cu 0.17425(2) 0.67425(2) 0.82575(2)
Cl1_13 Cl 0.13707(5) 0.63707(5) 0.86293(5)
N1_13 N 0.21236(15) 0.77558(16) 0.84711(15)
N2_13 N 0.18920(15) 0.71764(16) 0.85322(16)
N3_13 N 0.1782(2) 0.6918(2) 0.90649(18)
H1_13 H 0.1699 0.6740 0.8958
H2_13 H 0.1787 0.6922 0.9288
C1_13 C 0.21351(18) 0.77609(19) 0.88237(19)
C2_13 C 0.2230(2) 0.7902(2) 0.93621(19)
C3_13 C 0.2031(2) 0.7491(2) 0.90334(18)
C4_13 C 0.2377(2) 0.8357(2) 0.8913(2)
H3_13 H 0.2490 0.8473 0.9106
H4_13 H 0.2547 0.8329 0.8729
N4_13 N 0.22565(17) 0.80191(17) 0.90242(15)
C5_13 C 0.1832(4) 0.8658(4) 0.9053(4)
H5_13 H 0.1649 0.8801 0.8961
H6_13 H 0.1735 0.8445 0.9140
H7_13 H 0.1947 0.8779 0.9237
C6_13 C 0.2077(3) 0.8581(3) 0.8782(3)
H8_13 H 0.1959 0.8460 0.8594
H9_13 H 0.2169 0.8797 0.8689
N5_13 N 0.2096(2) 0.7583(2) 0.93826(17)
C7_13 C 0.19041(19) 0.7191(2) 0.88815(18)
C8_13 C 0.20029(19) 0.7461(2) 0.83523(19)
H10_13 H 0.1991 0.7444 0.8112
S1_13 S 0.24281(8) 0.81304(7) 0.97065(5)
N6_13 N 0.15289(15) 0.71236(15) 0.72442(16)
N7_13 N 0.14678(16) 0.68920(15) 0.78236(16)
N8_13 N 0.09351(18) 0.6782(2) 0.8082(2)
H11_13 H 0.1042 0.6699 0.8260
H12_13 H 0.0712 0.6787 0.8078
C9_13 C 0.11763(19) 0.71351(18) 0.72391(19)
C10_13 C 0.06379(19) 0.7230(2) 0.7098(2)
C11_13 C 0.09666(18) 0.7031(2) 0.7509(2)
C12_13 C 0.1087(2) 0.7377(2) 0.6643(2)
H13_13 H 0.0894 0.7490 0.6527
H14_13 H 0.1271 0.7547 0.6671
N9_13 N 0.09758(15) 0.72565(17) 0.69809(17)
C13_13 C 0.0947(4) 0.6832(4) 0.6342(4)
H15_13 H 0.1039 0.6649 0.6199
H16_13 H 0.0860 0.6735 0.6555
H17_13 H 0.0763 0.6947 0.6221
C14_13 C 0.1218(3) 0.7077(3) 0.6419(3)
H18_13 H 0.1406 0.6959 0.6540
H19_13 H 0.1311 0.7169 0.6203
N10_13 N 0.06174(17) 0.7096(2) 0.7417(2)
C15_13 C 0.11185(18) 0.69041(19) 0.7809(2)
C16_13 C 0.16477(19) 0.70029(19) 0.7539(2)
H20_13 H 0.1888 0.6991 0.7556
Cu3_8 Cu 0.01939(3) 0.71511(4) 0.77119(3)
N11_13 N 0.27558(16) 0.65289(15) 0.78764(15)
N12_13 N 0.21764(16) 0.64678(16) 0.81080(15)
N13_13 N 0.1918(2) 0.59351(18) 0.8218(2)
H21_13 H 0.1740 0.6042 0.8301
H22_13 H 0.1922 0.5712 0.8213
C17_13 C 0.27609(19) 0.61763(19) 0.78649(18)
C18_13 C 0.2902(2) 0.56379(19) 0.7770(2)
C19_13 C 0.2491(2) 0.59666(18) 0.7969(2)
C20_13 C 0.3357(2) 0.6087(2) 0.7623(2)
H23_13 H 0.3473 0.5894 0.7510
H24_13 H 0.3329 0.6271 0.7453
N14_13 N 0.30191(17) 0.59758(15) 0.77435(17)
C21_13 C 0.3658(4) 0.5947(4) 0.8168(4)
H25_13 H 0.3801 0.6039 0.8351
H26_13 H 0.3445 0.5860 0.8265
H27_13 H 0.3779 0.5763 0.8053
C22_13 C 0.3581(3) 0.6218(3) 0.7923(3)
H28_13 H 0.3460 0.6406 0.8041
H29_13 H 0.3797 0.6311 0.7831
N15_13 N 0.2583(2) 0.56174(17) 0.7904(2)
C23_13 C 0.2191(2) 0.61185(18) 0.80959(19)
C24_13 C 0.2461(2) 0.66477(19) 0.79971(19)
H30_13 H 0.2444 0.6888 0.8009
S8_8 S 0.02935(5) 0.75719(8) 0.81304(7)
Cu6_13 Cu 0.28489(4) 0.77119(3) 0.98061(3)
Cu1_14 Cu 0.32575(2) 0.32575(2) 0.32575(2)
Cl1_14 Cl 0.36293(5) 0.36293(5) 0.36293(5)
N1_14 N 0.28764(15) 0.22442(16) 0.34711(15)
N2_14 N 0.31080(15) 0.28236(16) 0.35322(16)
N3_14 N 0.3218(2) 0.3082(2) 0.40649(18)
H1_14 H 0.3301 0.3260 0.3958
H2_14 H 0.3213 0.3078 0.4288
C1_14 C 0.28649(18) 0.22391(19) 0.38237(19)
C2_14 C 0.2770(2) 0.2098(2) 0.43621(19)
C3_14 C 0.2969(2) 0.2509(2) 0.40334(18)
C4_14 C 0.2623(2) 0.1643(2) 0.3913(2)
H3_14 H 0.2510 0.1527 0.4106
H4_14 H 0.2453 0.1671 0.3729
N4_14 N 0.27435(17) 0.19809(17) 0.40242(15)
C5_14 C 0.3168(4) 0.1342(4) 0.4053(4)
H5_14 H 0.3351 0.1199 0.3961
H6_14 H 0.3265 0.1555 0.4140
H7_14 H 0.3053 0.1221 0.4237
C6_14 C 0.2923(3) 0.1419(3) 0.3782(3)
H8_14 H 0.3041 0.1540 0.3594
H9_14 H 0.2831 0.1203 0.3689
N5_14 N 0.2904(2) 0.2417(2) 0.43826(17)
C7_14 C 0.30959(19) 0.2809(2) 0.38815(18)
C8_14 C 0.29971(19) 0.2539(2) 0.33523(19)
H10_14 H 0.3009 0.2556 0.3112
N6_14 N 0.34711(15) 0.28764(15) 0.22442(16)
N7_14 N 0.35322(16) 0.31080(15) 0.28236(16)
N8_14 N 0.40649(18) 0.3218(2) 0.3082(2)
H11_14 H 0.3958 0.3301 0.3260
H12_14 H 0.4288 0.3213 0.3078
C9_14 C 0.38237(19) 0.28649(18) 0.22391(19)
C10_14 C 0.43621(19) 0.2770(2) 0.2098(2)
C11_14 C 0.40334(18) 0.2969(2) 0.2509(2)
C12_14 C 0.3913(2) 0.2623(2) 0.1643(2)
H13_14 H 0.4106 0.2510 0.1527
H14_14 H 0.3729 0.2453 0.1671
N9_14 N 0.40242(15) 0.27435(17) 0.19809(17)
C13_14 C 0.4053(4) 0.3168(4) 0.1342(4)
H15_14 H 0.3961 0.3351 0.1199
H16_14 H 0.4140 0.3265 0.1555
H17_14 H 0.4237 0.3053 0.1221
C14_14 C 0.3782(3) 0.2923(3) 0.1419(3)
H18_14 H 0.3594 0.3041 0.1540
H19_14 H 0.3689 0.2831 0.1203
N10_14 N 0.43826(17) 0.2904(2) 0.2417(2)
C15_14 C 0.38815(18) 0.30959(19) 0.2809(2)
C16_14 C 0.33523(19) 0.29971(19) 0.2539(2)
H20_14 H 0.3112 0.3009 0.2556
N11_14 N 0.22442(16) 0.34711(15) 0.28764(15)
N12_14 N 0.28236(16) 0.35322(16) 0.31080(15)
N13_14 N 0.3082(2) 0.40649(18) 0.3218(2)
H21_14 H 0.3260 0.3958 0.3301
H22_14 H 0.3078 0.4288 0.3213
C17_14 C 0.22391(19) 0.38237(19) 0.28649(18)
C18_14 C 0.2098(2) 0.43621(19) 0.2770(2)
C19_14 C 0.2509(2) 0.40334(18) 0.2969(2)
C20_14 C 0.1643(2) 0.3913(2) 0.2623(2)
H23_14 H 0.1527 0.4106 0.2510
H24_14 H 0.1671 0.3729 0.2453
N14_14 N 0.19809(17) 0.40242(15) 0.27435(17)
C21_14 C 0.1342(4) 0.4053(4) 0.3168(4)
H25_14 H 0.1199 0.3961 0.3351
H26_14 H 0.1555 0.4140 0.3265
H27_14 H 0.1221 0.4237 0.3053
C22_14 C 0.1419(3) 0.3782(3) 0.2923(3)
H28_14 H 0.1540 0.3594 0.3041
H29_14 H 0.1203 0.3689 0.2831
N15_14 N 0.2417(2) 0.43826(17) 0.2904(2)
C23_14 C 0.2809(2) 0.38815(18) 0.30959(19)
C24_14 C 0.2539(2) 0.33523(19) 0.29971(19)
H30_14 H 0.2556 0.3112 0.3009
Cu1_15 Cu 0.32575(2) 0.17425(2) 0.17425(2)
Cl1_15 Cl 0.36293(5) 0.13707(5) 0.13707(5)
N1_15 N 0.28764(15) 0.27558(16) 0.15289(15)
N2_15 N 0.31080(15) 0.21764(16) 0.14678(16)
N3_15 N 0.3218(2) 0.1918(2) 0.09351(18)
H1_15 H 0.3301 0.1740 0.1042
H2_15 H 0.3213 0.1922 0.0712
C1_15 C 0.28649(18) 0.27609(19) 0.11763(19)
C2_15 C 0.2770(2) 0.2902(2) 0.06379(19)
C3_15 C 0.2969(2) 0.2491(2) 0.09666(18)
C4_15 C 0.2623(2) 0.3357(2) 0.1087(2)
H3_15 H 0.2510 0.3473 0.0894
H4_15 H 0.2453 0.3329 0.1271
N4_15 N 0.27435(17) 0.30191(17) 0.09758(15)
C5_15 C 0.3168(4) 0.3658(4) 0.0947(4)
H5_15 H 0.3351 0.3801 0.1039
H6_15 H 0.3265 0.3445 0.0860
H7_15 H 0.3053 0.3779 0.0763
C6_15 C 0.2923(3) 0.3581(3) 0.1218(3)
H8_15 H 0.3041 0.3460 0.1406
H9_15 H 0.2831 0.3797 0.1311
N5_15 N 0.2904(2) 0.2583(2) 0.06174(17)
C7_15 C 0.30959(19) 0.2191(2) 0.11185(18)
C8_15 C 0.29971(19) 0.2461(2) 0.16477(19)
H10_15 H 0.3009 0.2444 0.1888
Cu2_13 Cu 0.28489(4) 0.22881(3) 0.01939(3)
N6_15 N 0.34711(15) 0.21236(15) 0.27558(16)
N7_15 N 0.35322(16) 0.18920(15) 0.21764(16)
N8_15 N 0.40649(18) 0.1782(2) 0.1918(2)
H11_15 H 0.3958 0.1699 0.1740
H12_15 H 0.4288 0.1787 0.1922
C9_15 C 0.38237(19) 0.21351(18) 0.27609(19)
C10_15 C 0.43621(19) 0.2230(2) 0.2902(2)
C11_15 C 0.40334(18) 0.2031(2) 0.2491(2)
C12_15 C 0.3913(2) 0.2377(2) 0.3357(2)
H13_15 H 0.4106 0.2490 0.3473
H14_15 H 0.3729 0.2547 0.3329
N9_15 N 0.40242(15) 0.22565(17) 0.30191(17)
C13_15 C 0.4053(4) 0.1832(4) 0.3658(4)
H15_15 H 0.3961 0.1649 0.3801
H16_15 H 0.4140 0.1735 0.3445
H17_15 H 0.4237 0.1947 0.3779
C14_15 C 0.3782(3) 0.2077(3) 0.3581(3)
H18_15 H 0.3594 0.1959 0.3460
H19_15 H 0.3689 0.2169 0.3797
N10_15 N 0.43826(17) 0.2096(2) 0.2583(2)
C15_15 C 0.38815(18) 0.19041(19) 0.2191(2)
C16_15 C 0.33523(19) 0.20029(19) 0.2461(2)
H20_15 H 0.3112 0.1991 0.2444
N11_15 N 0.22442(16) 0.15289(15) 0.21236(15)
N12_15 N 0.28236(16) 0.14678(16) 0.18920(15)
N13_15 N 0.3082(2) 0.09351(18) 0.1782(2)
H21_15 H 0.3260 0.1042 0.1699
H22_15 H 0.3078 0.0712 0.1787
C17_15 C 0.22391(19) 0.11763(19) 0.21351(18)
C18_15 C 0.2098(2) 0.06379(19) 0.2230(2)
C19_15 C 0.2509(2) 0.09666(18) 0.2031(2)
C20_15 C 0.1643(2) 0.1087(2) 0.2377(2)
H23_15 H 0.1527 0.0894 0.2490
H24_15 H 0.1671 0.1271 0.2547
N14_15 N 0.19809(17) 0.09758(15) 0.22565(17)
C21_15 C 0.1342(4) 0.0947(4) 0.1832(4)
H25_15 H 0.1199 0.1039 0.1649
H26_15 H 0.1555 0.0860 0.1735
H27_15 H 0.1221 0.0763 0.1947
C22_15 C 0.1419(3) 0.1218(3) 0.2077(3)
H28_15 H 0.1540 0.1406 0.1959
H29_15 H 0.1203 0.1311 0.2169
N15_15 N 0.2417(2) 0.06174(17) 0.2096(2)
C23_15 C 0.2809(2) 0.11185(18) 0.19041(19)
C24_15 C 0.2539(2) 0.16477(19) 0.20029(19)
H30_15 H 0.2556 0.1888 0.1991
S3_6 S 0.18696(7) 0.02935(5) 0.24281(8)
S6_13 S 0.24281(8) 0.18696(7) 0.02935(5)
Cu7_6 Cu 0.22881(3) 0.01939(3) 0.28489(4)
Cu1_16 Cu 0.17425(2) 0.32575(2) 0.17425(2)
Cl1_16 Cl 0.13707(5) 0.36293(5) 0.13707(5)
N1_16 N 0.21236(15) 0.22442(16) 0.15289(15)
N2_16 N 0.18920(15) 0.28236(16) 0.14678(16)
N3_16 N 0.1782(2) 0.3082(2) 0.09351(18)
H1_16 H 0.1699 0.3260 0.1042
H2_16 H 0.1787 0.3078 0.0712
C1_16 C 0.21351(18) 0.22391(19) 0.11763(19)
C2_16 C 0.2230(2) 0.2098(2) 0.06379(19)
C3_16 C 0.2031(2) 0.2509(2) 0.09666(18)
C4_16 C 0.2377(2) 0.1643(2) 0.1087(2)
H3_16 H 0.2490 0.1527 0.0894
H4_16 H 0.2547 0.1671 0.1271
N4_16 N 0.22565(17) 0.19809(17) 0.09758(15)
C5_16 C 0.1832(4) 0.1342(4) 0.0947(4)
H5_16 H 0.1649 0.1199 0.1039
H6_16 H 0.1735 0.1555 0.0860
H7_16 H 0.1947 0.1221 0.0763
C6_16 C 0.2077(3) 0.1419(3) 0.1218(3)
H8_16 H 0.1959 0.1540 0.1406
H9_16 H 0.2169 0.1203 0.1311
N5_16 N 0.2096(2) 0.2417(2) 0.06174(17)
C7_16 C 0.19041(19) 0.2809(2) 0.11185(18)
C8_16 C 0.20029(19) 0.2539(2) 0.16477(19)
H10_16 H 0.1991 0.2556 0.1888
N6_16 N 0.15289(15) 0.28764(15) 0.27558(16)
N7_16 N 0.14678(16) 0.31080(15) 0.21764(16)
N8_16 N 0.09351(18) 0.3218(2) 0.1918(2)
H11_16 H 0.1042 0.3301 0.1740
H12_16 H 0.0712 0.3213 0.1922
C9_16 C 0.11763(19) 0.28649(18) 0.27609(19)
C10_16 C 0.06379(19) 0.2770(2) 0.2902(2)
C11_16 C 0.09666(18) 0.2969(2) 0.2491(2)
C12_16 C 0.1087(2) 0.2623(2) 0.3357(2)
H13_16 H 0.0894 0.2510 0.3473
H14_16 H 0.1271 0.2453 0.3329
N9_16 N 0.09758(15) 0.27435(17) 0.30191(17)
C13_16 C 0.0947(4) 0.3168(4) 0.3658(4)
H15_16 H 0.1039 0.3351 0.3801
H16_16 H 0.0860 0.3265 0.3445
H17_16 H 0.0763 0.3053 0.3779
C14_16 C 0.1218(3) 0.2923(3) 0.3581(3)
H18_16 H 0.1406 0.3041 0.3460
H19_16 H 0.1311 0.2831 0.3797
N10_16 N 0.06174(17) 0.2904(2) 0.2583(2)
C15_16 C 0.11185(18) 0.30959(19) 0.2191(2)
C16_16 C 0.16477(19) 0.29971(19) 0.2461(2)
H20_16 H 0.1888 0.3009 0.2444
Cu3_9 Cu 0.01939(3) 0.28489(4) 0.22881(3)
N11_16 N 0.27558(16) 0.34711(15) 0.21236(15)
N12_16 N 0.21764(16) 0.35322(16) 0.18920(15)
N13_16 N 0.1918(2) 0.40649(18) 0.1782(2)
H21_16 H 0.1740 0.3958 0.1699
H22_16 H 0.1922 0.4288 0.1787
C17_16 C 0.27609(19) 0.38237(19) 0.21351(18)
C18_16 C 0.2902(2) 0.43621(19) 0.2230(2)
C19_16 C 0.2491(2) 0.40334(18) 0.2031(2)
C20_16 C 0.3357(2) 0.3913(2) 0.2377(2)
H23_16 H 0.3473 0.4106 0.2490
H24_16 H 0.3329 0.3729 0.2547
N14_16 N 0.30191(17) 0.40242(15) 0.22565(17)
C21_16 C 0.3658(4) 0.4053(4) 0.1832(4)
H25_16 H 0.3801 0.3961 0.1649
H26_16 H 0.3445 0.4140 0.1735
H27_16 H 0.3779 0.4237 0.1947
C22_16 C 0.3581(3) 0.3782(3) 0.2077(3)
H28_16 H 0.3460 0.3594 0.1959
H29_16 H 0.3797 0.3689 0.2169
N15_16 N 0.2583(2) 0.43826(17) 0.2096(2)
C23_16 C 0.2191(2) 0.38815(18) 0.19041(19)
C24_16 C 0.2461(2) 0.33523(19) 0.20029(19)
H30_16 H 0.2444 0.3112 0.1991
S8_9 S 0.02935(5) 0.24281(8) 0.18696(7)
Cu1_17 Cu 0.17425(2) 0.82575(2) 0.67425(2)
Cl1_17 Cl 0.13707(5) 0.86293(5) 0.63707(5)
N1_17 N 0.27558(16) 0.84711(15) 0.71236(15)
N2_17 N 0.21764(16) 0.85322(16) 0.68920(15)
N3_17 N 0.1918(2) 0.90649(18) 0.6782(2)
H1_17 H 0.1740 0.8958 0.6699
H2_17 H 0.1922 0.9288 0.6787
C1_17 C 0.27609(19) 0.88237(19) 0.71351(18)
C2_17 C 0.2902(2) 0.93621(19) 0.7230(2)
C3_17 C 0.2491(2) 0.90334(18) 0.7031(2)
C4_17 C 0.3357(2) 0.8913(2) 0.7377(2)
H3_17 H 0.3473 0.9106 0.7490
H4_17 H 0.3329 0.8729 0.7547
N4_17 N 0.30191(17) 0.90242(15) 0.72565(17)
C5_17 C 0.3658(4) 0.9053(4) 0.6832(4)
H5_17 H 0.3801 0.8961 0.6649
H6_17 H 0.3445 0.9140 0.6735
H7_17 H 0.3779 0.9237 0.6947
C6_17 C 0.3581(3) 0.8782(3) 0.7077(3)
H8_17 H 0.3460 0.8594 0.6959
H9_17 H 0.3797 0.8689 0.7169
N5_17 N 0.2583(2) 0.93826(17) 0.7096(2)
C7_17 C 0.2191(2) 0.88815(18) 0.69041(19)
C8_17 C 0.2461(2) 0.83523(19) 0.70029(19)
H10_17 H 0.2444 0.8112 0.6991
Cu2_14 Cu 0.22881(3) 0.98061(3) 0.71511(4)
N6_17 N 0.21236(15) 0.72442(16) 0.65289(15)
N7_17 N 0.18920(15) 0.78236(16) 0.64678(16)
N8_17 N 0.1782(2) 0.8082(2) 0.59351(18)
H11_17 H 0.1699 0.8260 0.6042
H12_17 H 0.1787 0.8078 0.5712
C9_17 C 0.21351(18) 0.72391(19) 0.61763(19)
C10_17 C 0.2230(2) 0.7098(2) 0.56379(19)
C11_17 C 0.2031(2) 0.7509(2) 0.59666(18)
C12_17 C 0.2377(2) 0.6643(2) 0.6087(2)
H13_17 H 0.2490 0.6527 0.5894
H14_17 H 0.2547 0.6671 0.6271
N9_17 N 0.22565(17) 0.69809(17) 0.59758(15)
C13_17 C 0.1832(4) 0.6342(4) 0.5947(4)
H15_17 H 0.1649 0.6199 0.6039
H16_17 H 0.1735 0.6555 0.5860
H17_17 H 0.1947 0.6221 0.5763
C14_17 C 0.2077(3) 0.6419(3) 0.6218(3)
H18_17 H 0.1959 0.6540 0.6406
H19_17 H 0.2169 0.6203 0.6311
N10_17 N 0.2096(2) 0.7417(2) 0.56174(17)
C15_17 C 0.19041(19) 0.7809(2) 0.61185(18)
C16_17 C 0.20029(19) 0.7539(2) 0.66477(19)
H20_17 H 0.1991 0.7556 0.6888
N11_17 N 0.15289(15) 0.78764(15) 0.77558(16)
N12_17 N 0.14678(16) 0.81080(15) 0.71764(16)
N13_17 N 0.09351(18) 0.8218(2) 0.6918(2)
H21_17 H 0.1042 0.8301 0.6740
H22_17 H 0.0712 0.8213 0.6922
C17_17 C 0.11763(19) 0.78649(18) 0.77609(19)
C18_17 C 0.06379(19) 0.7770(2) 0.7902(2)
C19_17 C 0.09666(18) 0.7969(2) 0.7491(2)
C20_17 C 0.1087(2) 0.7623(2) 0.8357(2)
H23_17 H 0.0894 0.7510 0.8473
H24_17 H 0.1271 0.7453 0.8329
N14_17 N 0.09758(15) 0.77435(17) 0.80191(17)
C21_17 C 0.0947(4) 0.8168(4) 0.8658(4)
H25_17 H 0.1039 0.8351 0.8801
H26_17 H 0.0860 0.8265 0.8445
H27_17 H 0.0763 0.8053 0.8779
C22_17 C 0.1218(3) 0.7923(3) 0.8581(3)
H28_17 H 0.1406 0.8041 0.8460
H29_17 H 0.1311 0.7831 0.8797
N15_17 N 0.06174(17) 0.7904(2) 0.7583(2)
C23_17 C 0.11185(18) 0.80959(19) 0.7191(2)
C24_17 C 0.16477(19) 0.79971(19) 0.7461(2)
H30_17 H 0.1888 0.8009 0.7444
S6_14 S 0.18696(7) 0.97065(5) 0.75719(8)
Cu1_18 Cu 0.32575(2) 0.67425(2) 0.67425(2)
Cl1_18 Cl 0.36293(5) 0.63707(5) 0.63707(5)
N1_18 N 0.34711(15) 0.71236(15) 0.77558(16)
N2_18 N 0.35322(16) 0.68920(15) 0.71764(16)
N3_18 N 0.40649(18) 0.6782(2) 0.6918(2)
H1_18 H 0.3958 0.6699 0.6740
H2_18 H 0.4288 0.6787 0.6922
C1_18 C 0.38237(19) 0.71351(18) 0.77609(19)
C2_18 C 0.43621(19) 0.7230(2) 0.7902(2)
C3_18 C 0.40334(18) 0.7031(2) 0.7491(2)
C4_18 C 0.3913(2) 0.7377(2) 0.8357(2)
H3_18 H 0.4106 0.7490 0.8473
H4_18 H 0.3729 0.7547 0.8329
N4_18 N 0.40242(15) 0.72565(17) 0.80191(17)
C5_18 C 0.4053(4) 0.6832(4) 0.8658(4)
H5_18 H 0.3961 0.6649 0.8801
H6_18 H 0.4140 0.6735 0.8445
H7_18 H 0.4237 0.6947 0.8779
C6_18 C 0.3782(3) 0.7077(3) 0.8581(3)
H8_18 H 0.3594 0.6959 0.8460
H9_18 H 0.3689 0.7169 0.8797
N5_18 N 0.43826(17) 0.7096(2) 0.7583(2)
C7_18 C 0.38815(18) 0.69041(19) 0.7191(2)
C8_18 C 0.33523(19) 0.70029(19) 0.7461(2)
H10_18 H 0.3112 0.6991 0.7444
N6_18 N 0.22442(16) 0.65289(15) 0.71236(15)
N7_18 N 0.28236(16) 0.64678(16) 0.68920(15)
N8_18 N 0.3082(2) 0.59351(18) 0.6782(2)
H11_18 H 0.3260 0.6042 0.6699
H12_18 H 0.3078 0.5712 0.6787
C9_18 C 0.22391(19) 0.61763(19) 0.71351(18)
C10_18 C 0.2098(2) 0.56379(19) 0.7230(2)
C11_18 C 0.2509(2) 0.59666(18) 0.7031(2)
C12_18 C 0.1643(2) 0.6087(2) 0.7377(2)
H13_18 H 0.1527 0.5894 0.7490
H14_18 H 0.1671 0.6271 0.7547
N9_18 N 0.19809(17) 0.59758(15) 0.72565(17)
C13_18 C 0.1342(4) 0.5947(4) 0.6832(4)
H15_18 H 0.1199 0.6039 0.6649
H16_18 H 0.1555 0.5860 0.6735
H17_18 H 0.1221 0.5763 0.6947
C14_18 C 0.1419(3) 0.6218(3) 0.7077(3)
H18_18 H 0.1540 0.6406 0.6959
H19_18 H 0.1203 0.6311 0.7169
N10_18 N 0.2417(2) 0.56174(17) 0.7096(2)
C15_18 C 0.2809(2) 0.61185(18) 0.69041(19)
C16_18 C 0.2539(2) 0.66477(19) 0.70029(19)
H20_18 H 0.2556 0.6888 0.6991
N11_18 N 0.28764(15) 0.77558(16) 0.65289(15)
N12_18 N 0.31080(15) 0.71764(16) 0.64678(16)
N13_18 N 0.3218(2) 0.6918(2) 0.59351(18)
H21_18 H 0.3301 0.6740 0.6042
H22_18 H 0.3213 0.6922 0.5712
C17_18 C 0.28649(18) 0.77609(19) 0.61763(19)
C18_18 C 0.2770(2) 0.7902(2) 0.56379(19)
C19_18 C 0.2969(2) 0.7491(2) 0.59666(18)
C20_18 C 0.2623(2) 0.8357(2) 0.6087(2)
H23_18 H 0.2510 0.8473 0.5894
H24_18 H 0.2453 0.8329 0.6271
N14_18 N 0.27435(17) 0.80191(17) 0.59758(15)
C21_18 C 0.3168(4) 0.8658(4) 0.5947(4)
H25_18 H 0.3351 0.8801 0.6039
H26_18 H 0.3265 0.8445 0.5860
H27_18 H 0.3053 0.8779 0.5763
C22_18 C 0.2923(3) 0.8581(3) 0.6218(3)
H28_18 H 0.3041 0.8460 0.6406
H29_18 H 0.2831 0.8797 0.6311
N15_18 N 0.2904(2) 0.7583(2) 0.56174(17)
C23_18 C 0.30959(19) 0.7191(2) 0.61185(18)
C24_18 C 0.29971(19) 0.7461(2) 0.66477(19)
H30_18 H 0.3009 0.7444 0.6888
Cu1_19 Cu 0.17425(2) 0.17425(2) 0.32575(2)
Cl1_19 Cl 0.13707(5) 0.13707(5) 0.36293(5)
N1_19 N 0.27558(16) 0.15289(15) 0.28764(15)
N2_19 N 0.21764(16) 0.14678(16) 0.31080(15)
N3_19 N 0.1918(2) 0.09351(18) 0.3218(2)
H1_19 H 0.1740 0.1042 0.3301
H2_19 H 0.1922 0.0712 0.3213
C1_19 C 0.27609(19) 0.11763(19) 0.28649(18)
C2_19 C 0.2902(2) 0.06379(19) 0.2770(2)
C3_19 C 0.2491(2) 0.09666(18) 0.2969(2)
C4_19 C 0.3357(2) 0.1087(2) 0.2623(2)
H3_19 H 0.3473 0.0894 0.2510
H4_19 H 0.3329 0.1271 0.2453
N4_19 N 0.30191(17) 0.09758(15) 0.27435(17)
C5_19 C 0.3658(4) 0.0947(4) 0.3168(4)
H5_19 H 0.3801 0.1039 0.3351
H6_19 H 0.3445 0.0860 0.3265
H7_19 H 0.3779 0.0763 0.3053
C6_19 C 0.3581(3) 0.1218(3) 0.2923(3)
H8_19 H 0.3460 0.1406 0.3041
H9_19 H 0.3797 0.1311 0.2831
N5_19 N 0.2583(2) 0.06174(17) 0.2904(2)
C7_19 C 0.2191(2) 0.11185(18) 0.30959(19)
C8_19 C 0.2461(2) 0.16477(19) 0.29971(19)
H10_19 H 0.2444 0.1888 0.3009
N6_19 N 0.21236(15) 0.27558(16) 0.34711(15)
N7_19 N 0.18920(15) 0.21764(16) 0.35322(16)
N8_19 N 0.1782(2) 0.1918(2) 0.40649(18)
H11_19 H 0.1699 0.1740 0.3958
H12_19 H 0.1787 0.1922 0.4288
C9_19 C 0.21351(18) 0.27609(19) 0.38237(19)
C10_19 C 0.2230(2) 0.2902(2) 0.43621(19)
C11_19 C 0.2031(2) 0.2491(2) 0.40334(18)
C12_19 C 0.2377(2) 0.3357(2) 0.3913(2)
H13_19 H 0.2490 0.3473 0.4106
H14_19 H 0.2547 0.3329 0.3729
N9_19 N 0.22565(17) 0.30191(17) 0.40242(15)
C13_19 C 0.1832(4) 0.3658(4) 0.4053(4)
H15_19 H 0.1649 0.3801 0.3961
H16_19 H 0.1735 0.3445 0.4140
H17_19 H 0.1947 0.3779 0.4237
C14_19 C 0.2077(3) 0.3581(3) 0.3782(3)
H18_19 H 0.1959 0.3460 0.3594
H19_19 H 0.2169 0.3797 0.3689
N10_19 N 0.2096(2) 0.2583(2) 0.43826(17)
C15_19 C 0.19041(19) 0.2191(2) 0.38815(18)
C16_19 C 0.20029(19) 0.2461(2) 0.33523(19)
H20_19 H 0.1991 0.2444 0.3112
N11_19 N 0.15289(15) 0.21236(15) 0.22442(16)
N12_19 N 0.14678(16) 0.18920(15) 0.28236(16)
N13_19 N 0.09351(18) 0.1782(2) 0.3082(2)
H21_19 H 0.1042 0.1699 0.3260
H22_19 H 0.0712 0.1787 0.3078
C17_19 C 0.11763(19) 0.21351(18) 0.22391(19)
C18_19 C 0.06379(19) 0.2230(2) 0.2098(2)
C19_19 C 0.09666(18) 0.2031(2) 0.2509(2)
C20_19 C 0.1087(2) 0.2377(2) 0.1643(2)
H23_19 H 0.0894 0.2490 0.1527
H24_19 H 0.1271 0.2547 0.1671
N14_19 N 0.09758(15) 0.22565(17) 0.19809(17)
C21_19 C 0.0947(4) 0.1832(4) 0.1342(4)
H25_19 H 0.1039 0.1649 0.1199
H26_19 H 0.0860 0.1735 0.1555
H27_19 H 0.0763 0.1947 0.1221
C22_19 C 0.1218(3) 0.2077(3) 0.1419(3)
H28_19 H 0.1406 0.1959 0.1540
H29_19 H 0.1311 0.2169 0.1203
N15_19 N 0.06174(17) 0.2096(2) 0.2417(2)
C23_19 C 0.11185(18) 0.19041(19) 0.2809(2)
C24_19 C 0.16477(19) 0.20029(19) 0.2539(2)
H30_19 H 0.1888 0.1991 0.2556
Cu1_20 Cu 0.82575(2) 0.17425(2) 0.17425(2)
Cl1_20 Cl 0.86293(5) 0.13707(5) 0.13707(5)
N1_20 N 0.84711(15) 0.27558(16) 0.21236(15)
N2_20 N 0.85322(16) 0.21764(16) 0.18920(15)
N3_20 N 0.90649(18) 0.1918(2) 0.1782(2)
H1_20 H 0.8958 0.1740 0.1699
H2_20 H 0.9288 0.1922 0.1787
C1_20 C 0.88237(19) 0.27609(19) 0.21351(18)
C2_20 C 0.93621(19) 0.2902(2) 0.2230(2)
C3_20 C 0.90334(18) 0.2491(2) 0.2031(2)
C4_20 C 0.8913(2) 0.3357(2) 0.2377(2)
H3_20 H 0.9106 0.3473 0.2490
H4_20 H 0.8729 0.3329 0.2547
N4_20 N 0.90242(15) 0.30191(17) 0.22565(17)
C5_20 C 0.9053(4) 0.3658(4) 0.1832(4)
H5_20 H 0.8961 0.3801 0.1649
H6_20 H 0.9140 0.3445 0.1735
H7_20 H 0.9237 0.3779 0.1947
C6_20 C 0.8782(3) 0.3581(3) 0.2077(3)
H8_20 H 0.8594 0.3460 0.1959
H9_20 H 0.8689 0.3797 0.2169
N5_20 N 0.93826(17) 0.2583(2) 0.2096(2)
C7_20 C 0.88815(18) 0.2191(2) 0.19041(19)
C8_20 C 0.83523(19) 0.2461(2) 0.20029(19)
H10_20 H 0.8112 0.2444 0.1991
N6_20 N 0.72442(16) 0.21236(15) 0.15289(15)
N7_20 N 0.78236(16) 0.18920(15) 0.14678(16)
N8_20 N 0.8082(2) 0.1782(2) 0.09351(18)
H11_20 H 0.8260 0.1699 0.1042
H12_20 H 0.8078 0.1787 0.0712
C9_20 C 0.72391(19) 0.21351(18) 0.11763(19)
C10_20 C 0.7098(2) 0.2230(2) 0.06379(19)
C11_20 C 0.7509(2) 0.2031(2) 0.09666(18)
C12_20 C 0.6643(2) 0.2377(2) 0.1087(2)
H13_20 H 0.6527 0.2490 0.0894
H14_20 H 0.6671 0.2547 0.1271
N9_20 N 0.69809(17) 0.22565(17) 0.09758(15)
C13_20 C 0.6342(4) 0.1832(4) 0.0947(4)
H15_20 H 0.6199 0.1649 0.1039
H16_20 H 0.6555 0.1735 0.0860
H17_20 H 0.6221 0.1947 0.0763
C14_20 C 0.6419(3) 0.2077(3) 0.1218(3)
H18_20 H 0.6540 0.1959 0.1406
H19_20 H 0.6203 0.2169 0.1311
N10_20 N 0.7417(2) 0.2096(2) 0.06174(17)
C15_20 C 0.7809(2) 0.19041(19) 0.11185(18)
C16_20 C 0.7539(2) 0.20029(19) 0.16477(19)
H20_20 H 0.7556 0.1991 0.1888
N11_20 N 0.78764(15) 0.15289(15) 0.27558(16)
N12_20 N 0.81080(15) 0.14678(16) 0.21764(16)
N13_20 N 0.8218(2) 0.09351(18) 0.1918(2)
H21_20 H 0.8301 0.1042 0.1740
H22_20 H 0.8213 0.0712 0.1922
C17_20 C 0.78649(18) 0.11763(19) 0.27609(19)
C18_20 C 0.7770(2) 0.06379(19) 0.2902(2)
C19_20 C 0.7969(2) 0.09666(18) 0.2491(2)
C20_20 C 0.7623(2) 0.1087(2) 0.3357(2)
H23_20 H 0.7510 0.0894 0.3473
H24_20 H 0.7453 0.1271 0.3329
N14_20 N 0.77435(17) 0.09758(15) 0.30191(17)
C21_20 C 0.8168(4) 0.0947(4) 0.3658(4)
H25_20 H 0.8351 0.1039 0.3801
H26_20 H 0.8265 0.0860 0.3445
H27_20 H 0.8053 0.0763 0.3779
C22_20 C 0.7923(3) 0.1218(3) 0.3581(3)
H28_20 H 0.8041 0.1406 0.3460
H29_20 H 0.7831 0.1311 0.3797
N15_20 N 0.7904(2) 0.06174(17) 0.2583(2)
C23_20 C 0.80959(19) 0.11185(18) 0.2191(2)
C24_20 C 0.79971(19) 0.16477(19) 0.2461(2)
H30_20 H 0.8009 0.1888 0.2444
S5_13 S 0.75719(8) 0.18696(7) 0.97065(5)
Cu10_13 Cu 0.71511(4) 0.22881(3) 0.98061(3)
S4_13 S 0.81304(7) 0.97065(5) 0.24281(8)
Cu5_13 Cu 0.77119(3) 0.98061(3) 0.28489(4)
Cu1_21 Cu 0.17425(2) 0.82575(2) 0.17425(2)
Cl1_21 Cl 0.13707(5) 0.86293(5) 0.13707(5)
N1_21 N 0.15289(15) 0.72442(16) 0.21236(15)
N2_21 N 0.14678(16) 0.78236(16) 0.18920(15)
N3_21 N 0.09351(18) 0.8082(2) 0.1782(2)
H1_21 H 0.1042 0.8260 0.1699
H2_21 H 0.0712 0.8078 0.1787
C1_21 C 0.11763(19) 0.72391(19) 0.21351(18)
C2_21 C 0.06379(19) 0.7098(2) 0.2230(2)
C3_21 C 0.09666(18) 0.7509(2) 0.2031(2)
C4_21 C 0.1087(2) 0.6643(2) 0.2377(2)
H3_21 H 0.0894 0.6527 0.2490
H4_21 H 0.1271 0.6671 0.2547
N4_21 N 0.09758(15) 0.69809(17) 0.22565(17)
C5_21 C 0.0947(4) 0.6342(4) 0.1832(4)
H5_21 H 0.1039 0.6199 0.1649
H6_21 H 0.0860 0.6555 0.1735
H7_21 H 0.0763 0.6221 0.1947
C6_21 C 0.1218(3) 0.6419(3) 0.2077(3)
H8_21 H 0.1406 0.6540 0.1959
H9_21 H 0.1311 0.6203 0.2169
N5_21 N 0.06174(17) 0.7417(2) 0.2096(2)
C7_21 C 0.11185(18) 0.7809(2) 0.19041(19)
C8_21 C 0.16477(19) 0.7539(2) 0.20029(19)
H10_21 H 0.1888 0.7556 0.1991
N6_21 N 0.27558(16) 0.78764(15) 0.15289(15)
N7_21 N 0.21764(16) 0.81080(15) 0.14678(16)
N8_21 N 0.1918(2) 0.8218(2) 0.09351(18)
H11_21 H 0.1740 0.8301 0.1042
H12_21 H 0.1922 0.8213 0.0712
C9_21 C 0.27609(19) 0.78649(18) 0.11763(19)
C10_21 C 0.2902(2) 0.7770(2) 0.06379(19)
C11_21 C 0.2491(2) 0.7969(2) 0.09666(18)
C12_21 C 0.3357(2) 0.7623(2) 0.1087(2)
H13_21 H 0.3473 0.7510 0.0894
H14_21 H 0.3329 0.7453 0.1271
N9_21 N 0.30191(17) 0.77435(17) 0.09758(15)
C13_21 C 0.3658(4) 0.8168(4) 0.0947(4)
H15_21 H 0.3801 0.8351 0.1039
H16_21 H 0.3445 0.8265 0.0860
H17_21 H 0.3779 0.8053 0.0763
C14_21 C 0.3581(3) 0.7923(3) 0.1218(3)
H18_21 H 0.3460 0.8041 0.1406
H19_21 H 0.3797 0.7831 0.1311
N10_21 N 0.2583(2) 0.7904(2) 0.06174(17)
C15_21 C 0.2191(2) 0.80959(19) 0.11185(18)
C16_21 C 0.2461(2) 0.79971(19) 0.16477(19)
H20_21 H 0.2444 0.8009 0.1888
N11_21 N 0.21236(15) 0.84711(15) 0.27558(16)
N12_21 N 0.18920(15) 0.85322(16) 0.21764(16)
N13_21 N 0.1782(2) 0.90649(18) 0.1918(2)
H21_21 H 0.1699 0.8958 0.1740
H22_21 H 0.1787 0.9288 0.1922
C17_21 C 0.21351(18) 0.88237(19) 0.27609(19)
C18_21 C 0.2230(2) 0.93621(19) 0.2902(2)
C19_21 C 0.2031(2) 0.90334(18) 0.2491(2)
C20_21 C 0.2377(2) 0.8913(2) 0.3357(2)
H23_21 H 0.2490 0.9106 0.3473
H24_21 H 0.2547 0.8729 0.3329
N14_21 N 0.22565(17) 0.90242(15) 0.30191(17)
C21_21 C 0.1832(4) 0.9053(4) 0.3658(4)
H25_21 H 0.1649 0.8961 0.3801
H26_21 H 0.1735 0.9140 0.3445
H27_21 H 0.1947 0.9237 0.3779
C22_21 C 0.2077(3) 0.8782(3) 0.3581(3)
H28_21 H 0.1959 0.8594 0.3460
H29_21 H 0.2169 0.8689 0.3797
N15_21 N 0.2096(2) 0.93826(17) 0.2583(2)
C23_21 C 0.19041(19) 0.88815(18) 0.2191(2)
C24_21 C 0.20029(19) 0.83523(19) 0.2461(2)
H30_21 H 0.1991 0.8112 0.2444
S9_13 S 0.97065(5) 0.75719(8) 0.18696(7)
Cu9_13 Cu 0.98061(3) 0.71511(4) 0.22881(3)
S4_14 S 0.81304(7) 0.02935(5) 0.75719(8)
Cu5_14 Cu 0.77119(3) 0.01939(3) 0.71511(4)
S5_14 S 0.75719(8) 0.81304(7) 0.02935(5)
Cu10_14 Cu 0.71511(4) 0.77119(3) 0.01939(3)
Cu1_22 Cu 0.82575(2) 0.82575(2) 0.82575(2)
Cl1_22 Cl 0.86293(5) 0.86293(5) 0.86293(5)
N1_22 N 0.84711(15) 0.72442(16) 0.78764(15)
N2_22 N 0.85322(16) 0.78236(16) 0.81080(15)
N3_22 N 0.90649(18) 0.8082(2) 0.8218(2)
H1_22 H 0.8958 0.8260 0.8301
H2_22 H 0.9288 0.8078 0.8213
C1_22 C 0.88237(19) 0.72391(19) 0.78649(18)
C2_22 C 0.93621(19) 0.7098(2) 0.7770(2)
C3_22 C 0.90334(18) 0.7509(2) 0.7969(2)
C4_22 C 0.8913(2) 0.6643(2) 0.7623(2)
H3_22 H 0.9106 0.6527 0.7510
H4_22 H 0.8729 0.6671 0.7453
N4_22 N 0.90242(15) 0.69809(17) 0.77435(17)
C5_22 C 0.9053(4) 0.6342(4) 0.8168(4)
H5_22 H 0.8961 0.6199 0.8351
H6_22 H 0.9140 0.6555 0.8265
H7_22 H 0.9237 0.6221 0.8053
C6_22 C 0.8782(3) 0.6419(3) 0.7923(3)
H8_22 H 0.8594 0.6540 0.8041
H9_22 H 0.8689 0.6203 0.7831
N5_22 N 0.93826(17) 0.7417(2) 0.7904(2)
C7_22 C 0.88815(18) 0.7809(2) 0.80959(19)
C8_22 C 0.83523(19) 0.7539(2) 0.79971(19)
H10_22 H 0.8112 0.7556 0.8009
N6_22 N 0.72442(16) 0.78764(15) 0.84711(15)
N7_22 N 0.78236(16) 0.81080(15) 0.85322(16)
N8_22 N 0.8082(2) 0.8218(2) 0.90649(18)
H11_22 H 0.8260 0.8301 0.8958
H12_22 H 0.8078 0.8213 0.9288
C9_22 C 0.72391(19) 0.78649(18) 0.88237(19)
C10_22 C 0.7098(2) 0.7770(2) 0.93621(19)
C11_22 C 0.7509(2) 0.7969(2) 0.90334(18)
C12_22 C 0.6643(2) 0.7623(2) 0.8913(2)
H13_22 H 0.6527 0.7510 0.9106
H14_22 H 0.6671 0.7453 0.8729
N9_22 N 0.69809(17) 0.77435(17) 0.90242(15)
C13_22 C 0.6342(4) 0.8168(4) 0.9053(4)
H15_22 H 0.6199 0.8351 0.8961
H16_22 H 0.6555 0.8265 0.9140
H17_22 H 0.6221 0.8053 0.9237
C14_22 C 0.6419(3) 0.7923(3) 0.8782(3)
H18_22 H 0.6540 0.8041 0.8594
H19_22 H 0.6203 0.7831 0.8689
N10_22 N 0.7417(2) 0.7904(2) 0.93826(17)
C15_22 C 0.7809(2) 0.80959(19) 0.88815(18)
C16_22 C 0.7539(2) 0.79971(19) 0.83523(19)
H20_22 H 0.7556 0.8009 0.8112
N11_22 N 0.78764(15) 0.84711(15) 0.72442(16)
N12_22 N 0.81080(15) 0.85322(16) 0.78236(16)
N13_22 N 0.8218(2) 0.90649(18) 0.8082(2)
H21_22 H 0.8301 0.8958 0.8260
H22_22 H 0.8213 0.9288 0.8078
C17_22 C 0.78649(18) 0.88237(19) 0.72391(19)
C18_22 C 0.7770(2) 0.93621(19) 0.7098(2)
C19_22 C 0.7969(2) 0.90334(18) 0.7509(2)
C20_22 C 0.7623(2) 0.8913(2) 0.6643(2)
H23_22 H 0.7510 0.9106 0.6527
H24_22 H 0.7453 0.8729 0.6671
N14_22 N 0.77435(17) 0.90242(15) 0.69809(17)
C21_22 C 0.8168(4) 0.9053(4) 0.6342(4)
H25_22 H 0.8351 0.8961 0.6199
H26_22 H 0.8265 0.9140 0.6555
H27_22 H 0.8053 0.9237 0.6221
C22_22 C 0.7923(3) 0.8782(3) 0.6419(3)
H28_22 H 0.8041 0.8594 0.6540
H29_22 H 0.7831 0.8689 0.6203
N15_22 N 0.7904(2) 0.93826(17) 0.7417(2)
C23_22 C 0.80959(19) 0.88815(18) 0.7809(2)
C24_22 C 0.79971(19) 0.83523(19) 0.7539(2)
H30_22 H 0.8009 0.8112 0.7556
Cu1_23 Cu 0.17425(2) 0.17425(2) 0.82575(2)
Cl1_23 Cl 0.13707(5) 0.13707(5) 0.86293(5)
N1_23 N 0.15289(15) 0.27558(16) 0.78764(15)
N2_23 N 0.14678(16) 0.21764(16) 0.81080(15)
N3_23 N 0.09351(18) 0.1918(2) 0.8218(2)
H1_23 H 0.1042 0.1740 0.8301
H2_23 H 0.0712 0.1922 0.8213
C1_23 C 0.11763(19) 0.27609(19) 0.78649(18)
C2_23 C 0.06379(19) 0.2902(2) 0.7770(2)
C3_23 C 0.09666(18) 0.2491(2) 0.7969(2)
C4_23 C 0.1087(2) 0.3357(2) 0.7623(2)
H3_23 H 0.0894 0.3473 0.7510
H4_23 H 0.1271 0.3329 0.7453
N4_23 N 0.09758(15) 0.30191(17) 0.77435(17)
C5_23 C 0.0947(4) 0.3658(4) 0.8168(4)
H5_23 H 0.1039 0.3801 0.8351
H6_23 H 0.0860 0.3445 0.8265
H7_23 H 0.0763 0.3779 0.8053
C6_23 C 0.1218(3) 0.3581(3) 0.7923(3)
H8_23 H 0.1406 0.3460 0.8041
H9_23 H 0.1311 0.3797 0.7831
N5_23 N 0.06174(17) 0.2583(2) 0.7904(2)
C7_23 C 0.11185(18) 0.2191(2) 0.80959(19)
C8_23 C 0.16477(19) 0.2461(2) 0.79971(19)
H10_23 H 0.1888 0.2444 0.8009
N6_23 N 0.27558(16) 0.21236(15) 0.84711(15)
N7_23 N 0.21764(16) 0.18920(15) 0.85322(16)
N8_23 N 0.1918(2) 0.1782(2) 0.90649(18)
H11_23 H 0.1740 0.1699 0.8958
H12_23 H 0.1922 0.1787 0.9288
C9_23 C 0.27609(19) 0.21351(18) 0.88237(19)
C10_23 C 0.2902(2) 0.2230(2) 0.93621(19)
C11_23 C 0.2491(2) 0.2031(2) 0.90334(18)
C12_23 C 0.3357(2) 0.2377(2) 0.8913(2)
H13_23 H 0.3473 0.2490 0.9106
H14_23 H 0.3329 0.2547 0.8729
N9_23 N 0.30191(17) 0.22565(17) 0.90242(15)
C13_23 C 0.3658(4) 0.1832(4) 0.9053(4)
H15_23 H 0.3801 0.1649 0.8961
H16_23 H 0.3445 0.1735 0.9140
H17_23 H 0.3779 0.1947 0.9237
C14_23 C 0.3581(3) 0.2077(3) 0.8782(3)
H18_23 H 0.3460 0.1959 0.8594
H19_23 H 0.3797 0.2169 0.8689
N10_23 N 0.2583(2) 0.2096(2) 0.93826(17)
C15_23 C 0.2191(2) 0.19041(19) 0.88815(18)
C16_23 C 0.2461(2) 0.20029(19) 0.83523(19)
H20_23 H 0.2444 0.1991 0.8112
N11_23 N 0.21236(15) 0.15289(15) 0.72442(16)
N12_23 N 0.18920(15) 0.14678(16) 0.78236(16)
N13_23 N 0.1782(2) 0.09351(18) 0.8082(2)
H21_23 H 0.1699 0.1042 0.8260
H22_23 H 0.1787 0.0712 0.8078
C17_23 C 0.21351(18) 0.11763(19) 0.72391(19)
C18_23 C 0.2230(2) 0.06379(19) 0.7098(2)
C19_23 C 0.2031(2) 0.09666(18) 0.7509(2)
C20_23 C 0.2377(2) 0.1087(2) 0.6643(2)
H23_23 H 0.2490 0.0894 0.6527
H24_23 H 0.2547 0.1271 0.6671
N14_23 N 0.22565(17) 0.09758(15) 0.69809(17)
C21_23 C 0.1832(4) 0.0947(4) 0.6342(4)
H25_23 H 0.1649 0.1039 0.6199
H26_23 H 0.1735 0.0860 0.6555
H27_23 H 0.1947 0.0763 0.6221
C22_23 C 0.2077(3) 0.1218(3) 0.6419(3)
H28_23 H 0.1959 0.1406 0.6540
H29_23 H 0.2169 0.1311 0.6203
N15_23 N 0.2096(2) 0.06174(17) 0.7417(2)
C23_23 C 0.19041(19) 0.11185(18) 0.7809(2)
C24_23 C 0.20029(19) 0.16477(19) 0.7539(2)
H30_23 H 0.1991 0.1888 0.7556
S9_14 S 0.97065(5) 0.24281(8) 0.81304(7)
Cu9_14 Cu 0.98061(3) 0.28489(4) 0.77119(3)
Cu1_24 Cu 0.32575(2) 0.82575(2) 0.82575(2)
Cl1_24 Cl 0.36293(5) 0.86293(5) 0.86293(5)
N1_24 N 0.28764(15) 0.72442(16) 0.84711(15)
N2_24 N 0.31080(15) 0.78236(16) 0.85322(16)
N3_24 N 0.3218(2) 0.8082(2) 0.90649(18)
H1_24 H 0.3301 0.8260 0.8958
H2_24 H 0.3213 0.8078 0.9288
C1_24 C 0.28649(18) 0.72391(19) 0.88237(19)
C2_24 C 0.2770(2) 0.7098(2) 0.93621(19)
C3_24 C 0.2969(2) 0.7509(2) 0.90334(18)
C4_24 C 0.2623(2) 0.6643(2) 0.8913(2)
H3_24 H 0.2510 0.6527 0.9106
H4_24 H 0.2453 0.6671 0.8729
N4_24 N 0.27435(17) 0.69809(17) 0.90242(15)
C5_24 C 0.3168(4) 0.6342(4) 0.9053(4)
H5_24 H 0.3351 0.6199 0.8961
H6_24 H 0.3265 0.6555 0.9140
H7_24 H 0.3053 0.6221 0.9237
C6_24 C 0.2923(3) 0.6419(3) 0.8782(3)
H8_24 H 0.3041 0.6540 0.8594
H9_24 H 0.2831 0.6203 0.8689
N5_24 N 0.2904(2) 0.7417(2) 0.93826(17)
C7_24 C 0.30959(19) 0.7809(2) 0.88815(18)
C8_24 C 0.29971(19) 0.7539(2) 0.83523(19)
H10_24 H 0.3009 0.7556 0.8112
N6_24 N 0.34711(15) 0.78764(15) 0.72442(16)
N7_24 N 0.35322(16) 0.81080(15) 0.78236(16)
N8_24 N 0.40649(18) 0.8218(2) 0.8082(2)
H11_24 H 0.3958 0.8301 0.8260
H12_24 H 0.4288 0.8213 0.8078
C9_24 C 0.38237(19) 0.78649(18) 0.72391(19)
C10_24 C 0.43621(19) 0.7770(2) 0.7098(2)
C11_24 C 0.40334(18) 0.7969(2) 0.7509(2)
C12_24 C 0.3913(2) 0.7623(2) 0.6643(2)
H13_24 H 0.4106 0.7510 0.6527
H14_24 H 0.3729 0.7453 0.6671
N9_24 N 0.40242(15) 0.77435(17) 0.69809(17)
C13_24 C 0.4053(4) 0.8168(4) 0.6342(4)
H15_24 H 0.3961 0.8351 0.6199
H16_24 H 0.4140 0.8265 0.6555
H17_24 H 0.4237 0.8053 0.6221
C14_24 C 0.3782(3) 0.7923(3) 0.6419(3)
H18_24 H 0.3594 0.8041 0.6540
H19_24 H 0.3689 0.7831 0.6203
N10_24 N 0.43826(17) 0.7904(2) 0.7417(2)
C15_24 C 0.38815(18) 0.80959(19) 0.7809(2)
C16_24 C 0.33523(19) 0.79971(19) 0.7539(2)
H20_24 H 0.3112 0.8009 0.7556
N11_24 N 0.22442(16) 0.84711(15) 0.78764(15)
N12_24 N 0.28236(16) 0.85322(16) 0.81080(15)
N13_24 N 0.3082(2) 0.90649(18) 0.8218(2)
H21_24 H 0.3260 0.8958 0.8301
H22_24 H 0.3078 0.9288 0.8213
C17_24 C 0.22391(19) 0.88237(19) 0.78649(18)
C18_24 C 0.2098(2) 0.93621(19) 0.7770(2)
C19_24 C 0.2509(2) 0.90334(18) 0.7969(2)
C20_24 C 0.1643(2) 0.8913(2) 0.7623(2)
H23_24 H 0.1527 0.9106 0.7510
H24_24 H 0.1671 0.8729 0.7453
N14_24 N 0.19809(17) 0.90242(15) 0.77435(17)
C21_24 C 0.1342(4) 0.9053(4) 0.8168(4)
H25_24 H 0.1199 0.8961 0.8351
H26_24 H 0.1555 0.9140 0.8265
H27_24 H 0.1221 0.9237 0.8053
C22_24 C 0.1419(3) 0.8782(3) 0.7923(3)
H28_24 H 0.1540 0.8594 0.8041
H29_24 H 0.1203 0.8689 0.7831
N15_24 N 0.2417(2) 0.93826(17) 0.7904(2)
C23_24 C 0.2809(2) 0.88815(18) 0.80959(19)
C24_24 C 0.2539(2) 0.83523(19) 0.79971(19)
H30_24 H 0.2556 0.8112 0.8009
Cu1_25 Cu 0.67425(2) 0.67425(2) 0.32575(2)
Cl1_25 Cl 0.63707(5) 0.63707(5) 0.36293(5)
N1_25 N 0.71236(15) 0.77558(16) 0.34711(15)
N2_25 N 0.68920(15) 0.71764(16) 0.35322(16)
N3_25 N 0.6782(2) 0.6918(2) 0.40649(18)
H1_25 H 0.6699 0.6740 0.3958
H2_25 H 0.6787 0.6922 0.4288
C1_25 C 0.71351(18) 0.77609(19) 0.38237(19)
C2_25 C 0.7230(2) 0.7902(2) 0.43621(19)
C3_25 C 0.7031(2) 0.7491(2) 0.40334(18)
C4_25 C 0.7377(2) 0.8357(2) 0.3913(2)
H3_25 H 0.7490 0.8473 0.4106
H4_25 H 0.7547 0.8329 0.3729
N4_25 N 0.72565(17) 0.80191(17) 0.40242(15)
C5_25 C 0.6832(4) 0.8658(4) 0.4053(4)
H5_25 H 0.6649 0.8801 0.3961
H6_25 H 0.6735 0.8445 0.4140
H7_25 H 0.6947 0.8779 0.4237
C6_25 C 0.7077(3) 0.8581(3) 0.3782(3)
H8_25 H 0.6959 0.8460 0.3594
H9_25 H 0.7169 0.8797 0.3689
N5_25 N 0.7096(2) 0.7583(2) 0.43826(17)
C7_25 C 0.69041(19) 0.7191(2) 0.38815(18)
C8_25 C 0.70029(19) 0.7461(2) 0.33523(19)
H10_25 H 0.6991 0.7444 0.3112
N6_25 N 0.65289(15) 0.71236(15) 0.22442(16)
N7_25 N 0.64678(16) 0.68920(15) 0.28236(16)
N8_25 N 0.59351(18) 0.6782(2) 0.3082(2)
H11_25 H 0.6042 0.6699 0.3260
H12_25 H 0.5712 0.6787 0.3078
C9_25 C 0.61763(19) 0.71351(18) 0.22391(19)
C10_25 C 0.56379(19) 0.7230(2) 0.2098(2)
C11_25 C 0.59666(18) 0.7031(2) 0.2509(2)
C12_25 C 0.6087(2) 0.7377(2) 0.1643(2)
H13_25 H 0.5894 0.7490 0.1527
H14_25 H 0.6271 0.7547 0.1671
N9_25 N 0.59758(15) 0.72565(17) 0.19809(17)
C13_25 C 0.5947(4) 0.6832(4) 0.1342(4)
H15_25 H 0.6039 0.6649 0.1199
H16_25 H 0.5860 0.6735 0.1555
H17_25 H 0.5763 0.6947 0.1221
C14_25 C 0.6218(3) 0.7077(3) 0.1419(3)
H18_25 H 0.6406 0.6959 0.1540
H19_25 H 0.6311 0.7169 0.1203
N10_25 N 0.56174(17) 0.7096(2) 0.2417(2)
C15_25 C 0.61185(18) 0.69041(19) 0.2809(2)
C16_25 C 0.66477(19) 0.70029(19) 0.2539(2)
H20_25 H 0.6888 0.6991 0.2556
N11_25 N 0.77558(16) 0.65289(15) 0.28764(15)
N12_25 N 0.71764(16) 0.64678(16) 0.31080(15)
N13_25 N 0.6918(2) 0.59351(18) 0.3218(2)
H21_25 H 0.6740 0.6042 0.3301
H22_25 H 0.6922 0.5712 0.3213
C17_25 C 0.77609(19) 0.61763(19) 0.28649(18)
C18_25 C 0.7902(2) 0.56379(19) 0.2770(2)
C19_25 C 0.7491(2) 0.59666(18) 0.2969(2)
C20_25 C 0.8357(2) 0.6087(2) 0.2623(2)
H23_25 H 0.8473 0.5894 0.2510
H24_25 H 0.8329 0.6271 0.2453
N14_25 N 0.80191(17) 0.59758(15) 0.27435(17)
C21_25 C 0.8658(4) 0.5947(4) 0.3168(4)
H25_25 H 0.8801 0.6039 0.3351
H26_25 H 0.8445 0.5860 0.3265
H27_25 H 0.8779 0.5763 0.3053
C22_25 C 0.8581(3) 0.6218(3) 0.2923(3)
H28_25 H 0.8460 0.6406 0.3041
H29_25 H 0.8797 0.6311 0.2831
N15_25 N 0.7583(2) 0.56174(17) 0.2904(2)
C23_25 C 0.7191(2) 0.61185(18) 0.30959(19)
C24_25 C 0.7461(2) 0.66477(19) 0.29971(19)
H30_25 H 0.7444 0.6888 0.3009
Cu1_26 Cu 0.82575(2) 0.32575(2) 0.82575(2)
Cl1_26 Cl 0.86293(5) 0.36293(5) 0.86293(5)
N1_26 N 0.78764(15) 0.22442(16) 0.84711(15)
N2_26 N 0.81080(15) 0.28236(16) 0.85322(16)
N3_26 N 0.8218(2) 0.3082(2) 0.90649(18)
H1_26 H 0.8301 0.3260 0.8958
H2_26 H 0.8213 0.3078 0.9288
C1_26 C 0.78649(18) 0.22391(19) 0.88237(19)
C2_26 C 0.7770(2) 0.2098(2) 0.93621(19)
C3_26 C 0.7969(2) 0.2509(2) 0.90334(18)
C4_26 C 0.7623(2) 0.1643(2) 0.8913(2)
H3_26 H 0.7510 0.1527 0.9106
H4_26 H 0.7453 0.1671 0.8729
N4_26 N 0.77435(17) 0.19809(17) 0.90242(15)
C5_26 C 0.8168(4) 0.1342(4) 0.9053(4)
H5_26 H 0.8351 0.1199 0.8961
H6_26 H 0.8265 0.1555 0.9140
H7_26 H 0.8053 0.1221 0.9237
C6_26 C 0.7923(3) 0.1419(3) 0.8782(3)
H8_26 H 0.8041 0.1540 0.8594
H9_26 H 0.7831 0.1203 0.8689
N5_26 N 0.7904(2) 0.2417(2) 0.93826(17)
C7_26 C 0.80959(19) 0.2809(2) 0.88815(18)
C8_26 C 0.79971(19) 0.2539(2) 0.83523(19)
H10_26 H 0.8009 0.2556 0.8112
N6_26 N 0.84711(15) 0.28764(15) 0.72442(16)
N7_26 N 0.85322(16) 0.31080(15) 0.78236(16)
N8_26 N 0.90649(18) 0.3218(2) 0.8082(2)
H11_26 H 0.8958 0.3301 0.8260
H12_26 H 0.9288 0.3213 0.8078
C9_26 C 0.88237(19) 0.28649(18) 0.72391(19)
C10_26 C 0.93621(19) 0.2770(2) 0.7098(2)
C11_26 C 0.90334(18) 0.2969(2) 0.7509(2)
C12_26 C 0.8913(2) 0.2623(2) 0.6643(2)
H13_26 H 0.9106 0.2510 0.6527
H14_26 H 0.8729 0.2453 0.6671
N9_26 N 0.90242(15) 0.27435(17) 0.69809(17)
C13_26 C 0.9053(4) 0.3168(4) 0.6342(4)
H15_26 H 0.8961 0.3351 0.6199
H16_26 H 0.9140 0.3265 0.6555
H17_26 H 0.9237 0.3053 0.6221
C14_26 C 0.8782(3) 0.2923(3) 0.6419(3)
H18_26 H 0.8594 0.3041 0.6540
H19_26 H 0.8689 0.2831 0.6203
N10_26 N 0.93826(17) 0.2904(2) 0.7417(2)
C15_26 C 0.88815(18) 0.30959(19) 0.7809(2)
C16_26 C 0.83523(19) 0.29971(19) 0.7539(2)
H20_26 H 0.8112 0.3009 0.7556
N11_26 N 0.72442(16) 0.34711(15) 0.78764(15)
N12_26 N 0.78236(16) 0.35322(16) 0.81080(15)
N13_26 N 0.8082(2) 0.40649(18) 0.8218(2)
H21_26 H 0.8260 0.3958 0.8301
H22_26 H 0.8078 0.4288 0.8213
C17_26 C 0.72391(19) 0.38237(19) 0.78649(18)
C18_26 C 0.7098(2) 0.43621(19) 0.7770(2)
C19_26 C 0.7509(2) 0.40334(18) 0.7969(2)
C20_26 C 0.6643(2) 0.3913(2) 0.7623(2)
H23_26 H 0.6527 0.4106 0.7510
H24_26 H 0.6671 0.3729 0.7453
N14_26 N 0.69809(17) 0.40242(15) 0.77435(17)
C21_26 C 0.6342(4) 0.4053(4) 0.8168(4)
H25_26 H 0.6199 0.3961 0.8351
H26_26 H 0.6555 0.4140 0.8265
H27_26 H 0.6221 0.4237 0.8053
C22_26 C 0.6419(3) 0.3782(3) 0.7923(3)
H28_26 H 0.6540 0.3594 0.8041
H29_26 H 0.6203 0.3689 0.7831
N15_26 N 0.7417(2) 0.43826(17) 0.7904(2)
C23_26 C 0.7809(2) 0.38815(18) 0.80959(19)
C24_26 C 0.7539(2) 0.33523(19) 0.79971(19)
H30_26 H 0.7556 0.3112 0.8009
Cu1_27 Cu 0.82575(2) 0.17425(2) 0.67425(2)
Cl1_27 Cl 0.86293(5) 0.13707(5) 0.63707(5)
N1_27 N 0.78764(15) 0.27558(16) 0.65289(15)
N2_27 N 0.81080(15) 0.21764(16) 0.64678(16)
N3_27 N 0.8218(2) 0.1918(2) 0.59351(18)
H1_27 H 0.8301 0.1740 0.6042
H2_27 H 0.8213 0.1922 0.5712
C1_27 C 0.78649(18) 0.27609(19) 0.61763(19)
C2_27 C 0.7770(2) 0.2902(2) 0.56379(19)
C3_27 C 0.7969(2) 0.2491(2) 0.59666(18)
C4_27 C 0.7623(2) 0.3357(2) 0.6087(2)
H3_27 H 0.7510 0.3473 0.5894
H4_27 H 0.7453 0.3329 0.6271
N4_27 N 0.77435(17) 0.30191(17) 0.59758(15)
C5_27 C 0.8168(4) 0.3658(4) 0.5947(4)
H5_27 H 0.8351 0.3801 0.6039
H6_27 H 0.8265 0.3445 0.5860
H7_27 H 0.8053 0.3779 0.5763
C6_27 C 0.7923(3) 0.3581(3) 0.6218(3)
H8_27 H 0.8041 0.3460 0.6406
H9_27 H 0.7831 0.3797 0.6311
N5_27 N 0.7904(2) 0.2583(2) 0.56174(17)
C7_27 C 0.80959(19) 0.2191(2) 0.61185(18)
C8_27 C 0.79971(19) 0.2461(2) 0.66477(19)
H10_27 H 0.8009 0.2444 0.6888
N6_27 N 0.84711(15) 0.21236(15) 0.77558(16)
N7_27 N 0.85322(16) 0.18920(15) 0.71764(16)
N8_27 N 0.90649(18) 0.1782(2) 0.6918(2)
H11_27 H 0.8958 0.1699 0.6740
H12_27 H 0.9288 0.1787 0.6922
C9_27 C 0.88237(19) 0.21351(18) 0.77609(19)
C10_27 C 0.93621(19) 0.2230(2) 0.7902(2)
C11_27 C 0.90334(18) 0.2031(2) 0.7491(2)
C12_27 C 0.8913(2) 0.2377(2) 0.8357(2)
H13_27 H 0.9106 0.2490 0.8473
H14_27 H 0.8729 0.2547 0.8329
N9_27 N 0.90242(15) 0.22565(17) 0.80191(17)
C13_27 C 0.9053(4) 0.1832(4) 0.8658(4)
H15_27 H 0.8961 0.1649 0.8801
H16_27 H 0.9140 0.1735 0.8445
H17_27 H 0.9237 0.1947 0.8779
C14_27 C 0.8782(3) 0.2077(3) 0.8581(3)
H18_27 H 0.8594 0.1959 0.8460
H19_27 H 0.8689 0.2169 0.8797
N10_27 N 0.93826(17) 0.2096(2) 0.7583(2)
C15_27 C 0.88815(18) 0.19041(19) 0.7191(2)
C16_27 C 0.83523(19) 0.20029(19) 0.7461(2)
H20_27 H 0.8112 0.1991 0.7444
N11_27 N 0.72442(16) 0.15289(15) 0.71236(15)
N12_27 N 0.78236(16) 0.14678(16) 0.68920(15)
N13_27 N 0.8082(2) 0.09351(18) 0.6782(2)
H21_27 H 0.8260 0.1042 0.6699
H22_27 H 0.8078 0.0712 0.6787
C17_27 C 0.72391(19) 0.11763(19) 0.71351(18)
C18_27 C 0.7098(2) 0.06379(19) 0.7230(2)
C19_27 C 0.7509(2) 0.09666(18) 0.7031(2)
C20_27 C 0.6643(2) 0.1087(2) 0.7377(2)
H23_27 H 0.6527 0.0894 0.7490
H24_27 H 0.6671 0.1271 0.7547
N14_27 N 0.69809(17) 0.09758(15) 0.72565(17)
C21_27 C 0.6342(4) 0.0947(4) 0.6832(4)
H25_27 H 0.6199 0.1039 0.6649
H26_27 H 0.6555 0.0860 0.6735
H27_27 H 0.6221 0.0763 0.6947
C22_27 C 0.6419(3) 0.1218(3) 0.7077(3)
H28_27 H 0.6540 0.1406 0.6959
H29_27 H 0.6203 0.1311 0.7169
N15_27 N 0.7417(2) 0.06174(17) 0.7096(2)
C23_27 C 0.7809(2) 0.11185(18) 0.69041(19)
C24_27 C 0.7539(2) 0.16477(19) 0.70029(19)
H30_27 H 0.7556 0.1888 0.6991
Cu1_28 Cu 0.67425(2) 0.32575(2) 0.67425(2)
Cl1_28 Cl 0.63707(5) 0.36293(5) 0.63707(5)
N1_28 N 0.71236(15) 0.22442(16) 0.65289(15)
N2_28 N 0.68920(15) 0.28236(16) 0.64678(16)
N3_28 N 0.6782(2) 0.3082(2) 0.59351(18)
H1_28 H 0.6699 0.3260 0.6042
H2_28 H 0.6787 0.3078 0.5712
C1_28 C 0.71351(18) 0.22391(19) 0.61763(19)
C2_28 C 0.7230(2) 0.2098(2) 0.56379(19)
C3_28 C 0.7031(2) 0.2509(2) 0.59666(18)
C4_28 C 0.7377(2) 0.1643(2) 0.6087(2)
H3_28 H 0.7490 0.1527 0.5894
H4_28 H 0.7547 0.1671 0.6271
N4_28 N 0.72565(17) 0.19809(17) 0.59758(15)
C5_28 C 0.6832(4) 0.1342(4) 0.5947(4)
H5_28 H 0.6649 0.1199 0.6039
H6_28 H 0.6735 0.1555 0.5860
H7_28 H 0.6947 0.1221 0.5763
C6_28 C 0.7077(3) 0.1419(3) 0.6218(3)
H8_28 H 0.6959 0.1540 0.6406
H9_28 H 0.7169 0.1203 0.6311
N5_28 N 0.7096(2) 0.2417(2) 0.56174(17)
C7_28 C 0.69041(19) 0.2809(2) 0.61185(18)
C8_28 C 0.70029(19) 0.2539(2) 0.66477(19)
H10_28 H 0.6991 0.2556 0.6888
N6_28 N 0.65289(15) 0.28764(15) 0.77558(16)
N7_28 N 0.64678(16) 0.31080(15) 0.71764(16)
N8_28 N 0.59351(18) 0.3218(2) 0.6918(2)
H11_28 H 0.6042 0.3301 0.6740
H12_28 H 0.5712 0.3213 0.6922
C9_28 C 0.61763(19) 0.28649(18) 0.77609(19)
C10_28 C 0.56379(19) 0.2770(2) 0.7902(2)
C11_28 C 0.59666(18) 0.2969(2) 0.7491(2)
C12_28 C 0.6087(2) 0.2623(2) 0.8357(2)
H13_28 H 0.5894 0.2510 0.8473
H14_28 H 0.6271 0.2453 0.8329
N9_28 N 0.59758(15) 0.27435(17) 0.80191(17)
C13_28 C 0.5947(4) 0.3168(4) 0.8658(4)
H15_28 H 0.6039 0.3351 0.8801
H16_28 H 0.5860 0.3265 0.8445
H17_28 H 0.5763 0.3053 0.8779
C14_28 C 0.6218(3) 0.2923(3) 0.8581(3)
H18_28 H 0.6406 0.3041 0.8460
H19_28 H 0.6311 0.2831 0.8797
N10_28 N 0.56174(17) 0.2904(2) 0.7583(2)
C15_28 C 0.61185(18) 0.30959(19) 0.7191(2)
C16_28 C 0.66477(19) 0.29971(19) 0.7461(2)
H20_28 H 0.6888 0.3009 0.7444
N11_28 N 0.77558(16) 0.34711(15) 0.71236(15)
N12_28 N 0.71764(16) 0.35322(16) 0.68920(15)
N13_28 N 0.6918(2) 0.40649(18) 0.6782(2)
H21_28 H 0.6740 0.3958 0.6699
H22_28 H 0.6922 0.4288 0.6787
C17_28 C 0.77609(19) 0.38237(19) 0.71351(18)
C18_28 C 0.7902(2) 0.43621(19) 0.7230(2)
C19_28 C 0.7491(2) 0.40334(18) 0.7031(2)
C20_28 C 0.8357(2) 0.3913(2) 0.7377(2)
H23_28 H 0.8473 0.4106 0.7490
H24_28 H 0.8329 0.3729 0.7547
N14_28 N 0.80191(17) 0.40242(15) 0.72565(17)
C21_28 C 0.8658(4) 0.4053(4) 0.6832(4)
H25_28 H 0.8801 0.3961 0.6649
H26_28 H 0.8445 0.4140 0.6735
H27_28 H 0.8779 0.4237 0.6947
C22_28 C 0.8581(3) 0.3782(3) 0.7077(3)
H28_28 H 0.8460 0.3594 0.6959
H29_28 H 0.8797 0.3689 0.7169
N15_28 N 0.7583(2) 0.43826(17) 0.7096(2)
C23_28 C 0.7191(2) 0.38815(18) 0.69041(19)
C24_28 C 0.7461(2) 0.33523(19) 0.70029(19)
H30_28 H 0.7444 0.3112 0.6991
Cu1_29 Cu 0.67425(2) 0.82575(2) 0.17425(2)
Cl1_29 Cl 0.63707(5) 0.86293(5) 0.13707(5)
N1_29 N 0.77558(16) 0.84711(15) 0.21236(15)
N2_29 N 0.71764(16) 0.85322(16) 0.18920(15)
N3_29 N 0.6918(2) 0.90649(18) 0.1782(2)
H1_29 H 0.6740 0.8958 0.1699
H2_29 H 0.6922 0.9288 0.1787
C1_29 C 0.77609(19) 0.88237(19) 0.21351(18)
C2_29 C 0.7902(2) 0.93621(19) 0.2230(2)
C3_29 C 0.7491(2) 0.90334(18) 0.2031(2)
C4_29 C 0.8357(2) 0.8913(2) 0.2377(2)
H3_29 H 0.8473 0.9106 0.2490
H4_29 H 0.8329 0.8729 0.2547
N4_29 N 0.80191(17) 0.90242(15) 0.22565(17)
C5_29 C 0.8658(4) 0.9053(4) 0.1832(4)
H5_29 H 0.8801 0.8961 0.1649
H6_29 H 0.8445 0.9140 0.1735
H7_29 H 0.8779 0.9237 0.1947
C6_29 C 0.8581(3) 0.8782(3) 0.2077(3)
H8_29 H 0.8460 0.8594 0.1959
H9_29 H 0.8797 0.8689 0.2169
N5_29 N 0.7583(2) 0.93826(17) 0.2096(2)
C7_29 C 0.7191(2) 0.88815(18) 0.19041(19)
C8_29 C 0.7461(2) 0.83523(19) 0.20029(19)
H10_29 H 0.7444 0.8112 0.1991
N6_29 N 0.71236(15) 0.72442(16) 0.15289(15)
N7_29 N 0.68920(15) 0.78236(16) 0.14678(16)
N8_29 N 0.6782(2) 0.8082(2) 0.09351(18)
H11_29 H 0.6699 0.8260 0.1042
H12_29 H 0.6787 0.8078 0.0712
C9_29 C 0.71351(18) 0.72391(19) 0.11763(19)
C10_29 C 0.7230(2) 0.7098(2) 0.06379(19)
C11_29 C 0.7031(2) 0.7509(2) 0.09666(18)
C12_29 C 0.7377(2) 0.6643(2) 0.1087(2)
H13_29 H 0.7490 0.6527 0.0894
H14_29 H 0.7547 0.6671 0.1271
N9_29 N 0.72565(17) 0.69809(17) 0.09758(15)
C13_29 C 0.6832(4) 0.6342(4) 0.0947(4)
H15_29 H 0.6649 0.6199 0.1039
H16_29 H 0.6735 0.6555 0.0860
H17_29 H 0.6947 0.6221 0.0763
C14_29 C 0.7077(3) 0.6419(3) 0.1218(3)
H18_29 H 0.6959 0.6540 0.1406
H19_29 H 0.7169 0.6203 0.1311
N10_29 N 0.7096(2) 0.7417(2) 0.06174(17)
C15_29 C 0.69041(19) 0.7809(2) 0.11185(18)
C16_29 C 0.70029(19) 0.7539(2) 0.16477(19)
H20_29 H 0.6991 0.7556 0.1888
N11_29 N 0.65289(15) 0.78764(15) 0.27558(16)
N12_29 N 0.64678(16) 0.81080(15) 0.21764(16)
N13_29 N 0.59351(18) 0.8218(2) 0.1918(2)
H21_29 H 0.6042 0.8301 0.1740
H22_29 H 0.5712 0.8213 0.1922
C17_29 C 0.61763(19) 0.78649(18) 0.27609(19)
C18_29 C 0.56379(19) 0.7770(2) 0.2902(2)
C19_29 C 0.59666(18) 0.7969(2) 0.2491(2)
C20_29 C 0.6087(2) 0.7623(2) 0.3357(2)
H23_29 H 0.5894 0.7510 0.3473
H24_29 H 0.6271 0.7453 0.3329
N14_29 N 0.59758(15) 0.77435(17) 0.30191(17)
C21_29 C 0.5947(4) 0.8168(4) 0.3658(4)
H25_29 H 0.6039 0.8351 0.3801
H26_29 H 0.5860 0.8265 0.3445
H27_29 H 0.5763 0.8053 0.3779
C22_29 C 0.6218(3) 0.7923(3) 0.3581(3)
H28_29 H 0.6406 0.8041 0.3460
H29_29 H 0.6311 0.7831 0.3797
N15_29 N 0.56174(17) 0.7904(2) 0.2583(2)
C23_29 C 0.61185(18) 0.80959(19) 0.2191(2)
C24_29 C 0.66477(19) 0.79971(19) 0.2461(2)
H30_29 H 0.6888 0.8009 0.2444
Cu1_30 Cu 0.82575(2) 0.67425(2) 0.17425(2)
Cl1_30 Cl 0.86293(5) 0.63707(5) 0.13707(5)
N1_30 N 0.84711(15) 0.71236(15) 0.27558(16)
N2_30 N 0.85322(16) 0.68920(15) 0.21764(16)
N3_30 N 0.90649(18) 0.6782(2) 0.1918(2)
H1_30 H 0.8958 0.6699 0.1740
H2_30 H 0.9288 0.6787 0.1922
C1_30 C 0.88237(19) 0.71351(18) 0.27609(19)
C2_30 C 0.93621(19) 0.7230(2) 0.2902(2)
C3_30 C 0.90334(18) 0.7031(2) 0.2491(2)
C4_30 C 0.8913(2) 0.7377(2) 0.3357(2)
H3_30 H 0.9106 0.7490 0.3473
H4_30 H 0.8729 0.7547 0.3329
N4_30 N 0.90242(15) 0.72565(17) 0.30191(17)
C5_30 C 0.9053(4) 0.6832(4) 0.3658(4)
H5_30 H 0.8961 0.6649 0.3801
H6_30 H 0.9140 0.6735 0.3445
H7_30 H 0.9237 0.6947 0.3779
C6_30 C 0.8782(3) 0.7077(3) 0.3581(3)
H8_30 H 0.8594 0.6959 0.3460
H9_30 H 0.8689 0.7169 0.3797
N5_30 N 0.93826(17) 0.7096(2) 0.2583(2)
C7_30 C 0.88815(18) 0.69041(19) 0.2191(2)
C8_30 C 0.83523(19) 0.70029(19) 0.2461(2)
H10_30 H 0.8112 0.6991 0.2444
N6_30 N 0.72442(16) 0.65289(15) 0.21236(15)
N7_30 N 0.78236(16) 0.64678(16) 0.18920(15)
N8_30 N 0.8082(2) 0.59351(18) 0.1782(2)
H11_30 H 0.8260 0.6042 0.1699
H12_30 H 0.8078 0.5712 0.1787
C9_30 C 0.72391(19) 0.61763(19) 0.21351(18)
C10_30 C 0.7098(2) 0.56379(19) 0.2230(2)
C11_30 C 0.7509(2) 0.59666(18) 0.2031(2)
C12_30 C 0.6643(2) 0.6087(2) 0.2377(2)
H13_30 H 0.6527 0.5894 0.2490
H14_30 H 0.6671 0.6271 0.2547
N9_30 N 0.69809(17) 0.59758(15) 0.22565(17)
C13_30 C 0.6342(4) 0.5947(4) 0.1832(4)
H15_30 H 0.6199 0.6039 0.1649
H16_30 H 0.6555 0.5860 0.1735
H17_30 H 0.6221 0.5763 0.1947
C14_30 C 0.6419(3) 0.6218(3) 0.2077(3)
H18_30 H 0.6540 0.6406 0.1959
H19_30 H 0.6203 0.6311 0.2169
N10_30 N 0.7417(2) 0.56174(17) 0.2096(2)
C15_30 C 0.7809(2) 0.61185(18) 0.19041(19)
C16_30 C 0.7539(2) 0.66477(19) 0.20029(19)
H20_30 H 0.7556 0.6888 0.1991
N11_30 N 0.78764(15) 0.77558(16) 0.15289(15)
N12_30 N 0.81080(15) 0.71764(16) 0.14678(16)
N13_30 N 0.8218(2) 0.6918(2) 0.09351(18)
H21_30 H 0.8301 0.6740 0.1042
H22_30 H 0.8213 0.6922 0.0712
C17_30 C 0.78649(18) 0.77609(19) 0.11763(19)
C18_30 C 0.7770(2) 0.7902(2) 0.06379(19)
C19_30 C 0.7969(2) 0.7491(2) 0.09666(18)
C20_30 C 0.7623(2) 0.8357(2) 0.1087(2)
H23_30 H 0.7510 0.8473 0.0894
H24_30 H 0.7453 0.8329 0.1271
N14_30 N 0.77435(17) 0.80191(17) 0.09758(15)
C21_30 C 0.8168(4) 0.8658(4) 0.0947(4)
H25_30 H 0.8351 0.8801 0.1039
H26_30 H 0.8265 0.8445 0.0860
H27_30 H 0.8053 0.8779 0.0763
C22_30 C 0.7923(3) 0.8581(3) 0.1218(3)
H28_30 H 0.8041 0.8460 0.1406
H29_30 H 0.7831 0.8797 0.1311
N15_30 N 0.7904(2) 0.7583(2) 0.06174(17)
C23_30 C 0.80959(19) 0.7191(2) 0.11185(18)
C24_30 C 0.79971(19) 0.7461(2) 0.16477(19)
H30_30 H 0.8009 0.7444 0.1888
Cu1_31 Cu 0.67425(2) 0.17425(2) 0.82575(2)
Cl1_31 Cl 0.63707(5) 0.13707(5) 0.86293(5)
N1_31 N 0.77558(16) 0.15289(15) 0.78764(15)
N2_31 N 0.71764(16) 0.14678(16) 0.81080(15)
N3_31 N 0.6918(2) 0.09351(18) 0.8218(2)
H1_31 H 0.6740 0.1042 0.8301
H2_31 H 0.6922 0.0712 0.8213
C1_31 C 0.77609(19) 0.11763(19) 0.78649(18)
C2_31 C 0.7902(2) 0.06379(19) 0.7770(2)
C3_31 C 0.7491(2) 0.09666(18) 0.7969(2)
C4_31 C 0.8357(2) 0.1087(2) 0.7623(2)
H3_31 H 0.8473 0.0894 0.7510
H4_31 H 0.8329 0.1271 0.7453
N4_31 N 0.80191(17) 0.09758(15) 0.77435(17)
C5_31 C 0.8658(4) 0.0947(4) 0.8168(4)
H5_31 H 0.8801 0.1039 0.8351
H6_31 H 0.8445 0.0860 0.8265
H7_31 H 0.8779 0.0763 0.8053
C6_31 C 0.8581(3) 0.1218(3) 0.7923(3)
H8_31 H 0.8460 0.1406 0.8041
H9_31 H 0.8797 0.1311 0.7831
N5_31 N 0.7583(2) 0.06174(17) 0.7904(2)
C7_31 C 0.7191(2) 0.11185(18) 0.80959(19)
C8_31 C 0.7461(2) 0.16477(19) 0.79971(19)
H10_31 H 0.7444 0.1888 0.8009
N6_31 N 0.71236(15) 0.27558(16) 0.84711(15)
N7_31 N 0.68920(15) 0.21764(16) 0.85322(16)
N8_31 N 0.6782(2) 0.1918(2) 0.90649(18)
H11_31 H 0.6699 0.1740 0.8958
H12_31 H 0.6787 0.1922 0.9288
C9_31 C 0.71351(18) 0.27609(19) 0.88237(19)
C10_31 C 0.7230(2) 0.2902(2) 0.93621(19)
C11_31 C 0.7031(2) 0.2491(2) 0.90334(18)
C12_31 C 0.7377(2) 0.3357(2) 0.8913(2)
H13_31 H 0.7490 0.3473 0.9106
H14_31 H 0.7547 0.3329 0.8729
N9_31 N 0.72565(17) 0.30191(17) 0.90242(15)
C13_31 C 0.6832(4) 0.3658(4) 0.9053(4)
H15_31 H 0.6649 0.3801 0.8961
H16_31 H 0.6735 0.3445 0.9140
H17_31 H 0.6947 0.3779 0.9237
C14_31 C 0.7077(3) 0.3581(3) 0.8782(3)
H18_31 H 0.6959 0.3460 0.8594
H19_31 H 0.7169 0.3797 0.8689
N10_31 N 0.7096(2) 0.2583(2) 0.93826(17)
C15_31 C 0.69041(19) 0.2191(2) 0.88815(18)
C16_31 C 0.70029(19) 0.2461(2) 0.83523(19)
H20_31 H 0.6991 0.2444 0.8112
N11_31 N 0.65289(15) 0.21236(15) 0.72442(16)
N12_31 N 0.64678(16) 0.18920(15) 0.78236(16)
N13_31 N 0.59351(18) 0.1782(2) 0.8082(2)
H21_31 H 0.6042 0.1699 0.8260
H22_31 H 0.5712 0.1787 0.8078
C17_31 C 0.61763(19) 0.21351(18) 0.72391(19)
C18_31 C 0.56379(19) 0.2230(2) 0.7098(2)
C19_31 C 0.59666(18) 0.2031(2) 0.7509(2)
C20_31 C 0.6087(2) 0.2377(2) 0.6643(2)
H23_31 H 0.5894 0.2490 0.6527
H24_31 H 0.6271 0.2547 0.6671
N14_31 N 0.59758(15) 0.22565(17) 0.69809(17)
C21_31 C 0.5947(4) 0.1832(4) 0.6342(4)
H25_31 H 0.6039 0.1649 0.6199
H26_31 H 0.5860 0.1735 0.6555
H27_31 H 0.5763 0.1947 0.6221
C22_31 C 0.6218(3) 0.2077(3) 0.6419(3)
H28_31 H 0.6406 0.1959 0.6540
H29_31 H 0.6311 0.2169 0.6203
N15_31 N 0.56174(17) 0.2096(2) 0.7417(2)
C23_31 C 0.61185(18) 0.19041(19) 0.7809(2)
C24_31 C 0.66477(19) 0.20029(19) 0.7539(2)
H30_31 H 0.6888 0.1991 0.7556
Cu1_32 Cu 0.82575(2) 0.82575(2) 0.32575(2)
Cl1_32 Cl 0.86293(5) 0.86293(5) 0.36293(5)
N1_32 N 0.78764(15) 0.72442(16) 0.34711(15)
N2_32 N 0.81080(15) 0.78236(16) 0.35322(16)
N3_32 N 0.8218(2) 0.8082(2) 0.40649(18)
H1_32 H 0.8301 0.8260 0.3958
H2_32 H 0.8213 0.8078 0.4288
C1_32 C 0.78649(18) 0.72391(19) 0.38237(19)
C2_32 C 0.7770(2) 0.7098(2) 0.43621(19)
C3_32 C 0.7969(2) 0.7509(2) 0.40334(18)
C4_32 C 0.7623(2) 0.6643(2) 0.3913(2)
H3_32 H 0.7510 0.6527 0.4106
H4_32 H 0.7453 0.6671 0.3729
N4_32 N 0.77435(17) 0.69809(17) 0.40242(15)
C5_32 C 0.8168(4) 0.6342(4) 0.4053(4)
H5_32 H 0.8351 0.6199 0.3961
H6_32 H 0.8265 0.6555 0.4140
H7_32 H 0.8053 0.6221 0.4237
C6_32 C 0.7923(3) 0.6419(3) 0.3782(3)
H8_32 H 0.8041 0.6540 0.3594
H9_32 H 0.7831 0.6203 0.3689
N5_32 N 0.7904(2) 0.7417(2) 0.43826(17)
C7_32 C 0.80959(19) 0.7809(2) 0.38815(18)
C8_32 C 0.79971(19) 0.7539(2) 0.33523(19)
H10_32 H 0.8009 0.7556 0.3112
N6_32 N 0.84711(15) 0.78764(15) 0.22442(16)
N7_32 N 0.85322(16) 0.81080(15) 0.28236(16)
N8_32 N 0.90649(18) 0.8218(2) 0.3082(2)
H11_32 H 0.8958 0.8301 0.3260
H12_32 H 0.9288 0.8213 0.3078
C9_32 C 0.88237(19) 0.78649(18) 0.22391(19)
C10_32 C 0.93621(19) 0.7770(2) 0.2098(2)
C11_32 C 0.90334(18) 0.7969(2) 0.2509(2)
C12_32 C 0.8913(2) 0.7623(2) 0.1643(2)
H13_32 H 0.9106 0.7510 0.1527
H14_32 H 0.8729 0.7453 0.1671
N9_32 N 0.90242(15) 0.77435(17) 0.19809(17)
C13_32 C 0.9053(4) 0.8168(4) 0.1342(4)
H15_32 H 0.8961 0.8351 0.1199
H16_32 H 0.9140 0.8265 0.1555
H17_32 H 0.9237 0.8053 0.1221
C14_32 C 0.8782(3) 0.7923(3) 0.1419(3)
H18_32 H 0.8594 0.8041 0.1540
H19_32 H 0.8689 0.7831 0.1203
N10_32 N 0.93826(17) 0.7904(2) 0.2417(2)
C15_32 C 0.88815(18) 0.80959(19) 0.2809(2)
C16_32 C 0.83523(19) 0.79971(19) 0.2539(2)
H20_32 H 0.8112 0.8009 0.2556
N11_32 N 0.72442(16) 0.84711(15) 0.28764(15)
N12_32 N 0.78236(16) 0.85322(16) 0.31080(15)
N13_32 N 0.8082(2) 0.90649(18) 0.3218(2)
H21_32 H 0.8260 0.8958 0.3301
H22_32 H 0.8078 0.9288 0.3213
C17_32 C 0.72391(19) 0.88237(19) 0.28649(18)
C18_32 C 0.7098(2) 0.93621(19) 0.2770(2)
C19_32 C 0.7509(2) 0.90334(18) 0.2969(2)
C20_32 C 0.6643(2) 0.8913(2) 0.2623(2)
H23_32 H 0.6527 0.9106 0.2510
H24_32 H 0.6671 0.8729 0.2453
N14_32 N 0.69809(17) 0.90242(15) 0.27435(17)
C21_32 C 0.6342(4) 0.9053(4) 0.3168(4)
H25_32 H 0.6199 0.8961 0.3351
H26_32 H 0.6555 0.9140 0.3265
H27_32 H 0.6221 0.9237 0.3053
C22_32 C 0.6419(3) 0.8782(3) 0.2923(3)
H28_32 H 0.6540 0.8594 0.3041
H29_32 H 0.6203 0.8689 0.2831
N15_32 N 0.7417(2) 0.93826(17) 0.2904(2)
C23_32 C 0.7809(2) 0.88815(18) 0.30959(19)
C24_32 C 0.7539(2) 0.83523(19) 0.29971(19)
H30_32 H 0.7556 0.8112 0.3009
loop_
_geom_bond_atom_site_label_1
_geom_bond_atom_site_label_2
_geom_bond_site_symmetry_1
_geom_bond_site_symmetry_2
S9 Cu9 1_555 1_555
Cu1 Cl1 1_555 1_555
N1 C1 1_555 1_555
N2 Cu1 1_555 1_555
N3 H1 1_555 1_555
H2 N3 1_555 1_555
C1 C3 1_555 1_555
C2 N4 1_555 1_555
C3 N5 1_555 1_555
C4 H3 1_555 1_555
H4 C4 1_555 1_555
N4 C1 1_555 1_555
C5 H5 1_555 1_555
H6 C5 1_555 1_555
H7 C5 1_555 1_555
C6 C4 1_555 1_555
H8 C6 1_555 1_555
H9 C6 1_555 1_555
N5 C2 1_555 1_555
C7 N2 1_555 1_555
C8 N1 1_555 1_555
H10 C8 1_555 1_555
S1 C2 1_555 1_555
Cu2 N5 1_555 1_555
N6 C9 1_555 1_555
N7 Cu1 1_555 1_555
N8 H11 1_555 1_555
H12 N8 1_555 1_555
C9 C11 1_555 1_555
C10 N9 1_555 1_555
C11 N10 1_555 1_555
C12 H13 1_555 1_555
H14 C12 1_555 1_555
N9 C9 1_555 1_555
C13 H15 1_555 1_555
H16 C13 1_555 1_555
H17 C13 1_555 1_555
C14 C12 1_555 1_555
H18 C14 1_555 1_555
H19 C14 1_555 1_555
N10 C10 1_555 1_555
C15 N7 1_555 1_555
C16 N6 1_555 1_555
H20 C16 1_555 1_555
S2 C10 1_555 1_555
Cu3 N10 1_555 1_555
N11 C17 1_555 1_555
N12 Cu1 1_555 1_555
N13 H21 1_555 1_555
H22 N13 1_555 1_555
C17 C19 1_555 1_555
C18 N14 1_555 1_555
C19 N15 1_555 1_555
C20 H23 1_555 1_555
H24 C20 1_555 1_555
N14 C17 1_555 1_555
C21 H25 1_555 1_555
H26 C21 1_555 1_555
H27 C21 1_555 1_555
C22 C20 1_555 1_555
H28 C22 1_555 1_555
H29 C22 1_555 1_555
N15 C18 1_555 1_555
C23 N12 1_555 1_555
C24 N11 1_555 1_555
H30 C24 1_555 1_555
S3 C18 1_555 1_555
Cu4 N15 1_555 1_555
S4 Cu4 1_555 1_555
S5 Cu3 1_555 1_555
S6 Cu2 1_555 1_555
S7 Cu4 1_555 1_555
S8 Cu3 1_555 1_555
Cu5 S3 1_555 1_555
Cu6 S1 1_555 1_555
Cu7 S3 1_555 1_555
Cu8 S2 1_555 1_555
Cu10 S2 1_555 1_555
N2 C8 1_555 1_555
N3 C7 1_555 1_555
C3 C7 1_555 1_555
C4 N4 1_555 1_555
C5 C6 1_555 1_555
N7 C16 1_555 1_555
N8 C15 1_555 1_555
C11 C15 1_555 1_555
C12 N9 1_555 1_555
C13 C14 1_555 1_555
N12 C24 1_555 1_555
N13 C23 1_555 1_555
C19 C23 1_555 1_555
C20 N14 1_555 1_555
C21 C22 1_555 1_555
S4 Cu5 1_555 1_555
S5 Cu10 1_555 1_555
S9_2 Cu9_2 1_555 1_555
Cu1_2 Cl1_2 1_555 1_555
N1_2 C1_2 1_555 1_555
N2_2 Cu1_2 1_555 1_555
N3_2 H1_2 1_555 1_555
H2_2 N3_2 1_555 1_555
C1_2 C3_2 1_555 1_555
C2_2 N4_2 1_555 1_555
C3_2 N5_2 1_555 1_555
C4_2 H3_2 1_555 1_555
H4_2 C4_2 1_555 1_555
N4_2 C1_2 1_555 1_555
C5_2 H5_2 1_555 1_555
H6_2 C5_2 1_555 1_555
H7_2 C5_2 1_555 1_555
C6_2 C4_2 1_555 1_555
H8_2 C6_2 1_555 1_555
H9_2 C6_2 1_555 1_555
N5_2 C2_2 1_555 1_555
C7_2 N2_2 1_555 1_555
C8_2 N1_2 1_555 1_555
H10_2 C8_2 1_555 1_555
S1_2 C2_2 1_555 1_555
Cu2_2 N5_2 1_555 1_555
N6_2 C9_2 1_555 1_555
N7_2 Cu1_2 1_555 1_555
N8_2 H11_2 1_555 1_555
H12_2 N8_2 1_555 1_555
C9_2 C11_2 1_555 1_555
C10_2 N9_2 1_555 1_555
C11_2 N10_2 1_555 1_555
C12_2 H13_2 1_555 1_555
H14_2 C12_2 1_555 1_555
N9_2 C9_2 1_555 1_555
C13_2 H15_2 1_555 1_555
H16_2 C13_2 1_555 1_555
H17_2 C13_2 1_555 1_555
C14_2 C12_2 1_555 1_555
H18_2 C14_2 1_555 1_555
H19_2 C14_2 1_555 1_555
N10_2 C10_2 1_555 1_555
C15_2 N7_2 1_555 1_555
C16_2 N6_2 1_555 1_555
H20_2 C16_2 1_555 1_555
S2_2 C10_2 1_555 1_555
Cu3_2 N10_2 1_555 1_555
N11_2 C17_2 1_555 1_555
N12_2 Cu1_2 1_555 1_555
N13_2 H21_2 1_555 1_555
H22_2 N13_2 1_555 1_555
C17_2 C19_2 1_555 1_555
C18_2 N14_2 1_555 1_555
C19_2 N15_2 1_555 1_555
C20_2 H23_2 1_555 1_555
H24_2 C20_2 1_555 1_555
N14_2 C17_2 1_555 1_555
C21_2 H25_2 1_555 1_555
H26_2 C21_2 1_555 1_555
H27_2 C21_2 1_555 1_555
C22_2 C20_2 1_555 1_555
H28_2 C22_2 1_555 1_555
H29_2 C22_2 1_555 1_555
N15_2 C18_2 1_555 1_555
C23_2 N12_2 1_555 1_555
C24_2 N11_2 1_555 1_555
H30_2 C24_2 1_555 1_555
S3_2 C18_2 1_555 1_555
Cu4_2 N15_2 1_555 1_555
S4_2 Cu4_2 1_555 1_555
S5_2 Cu3_2 1_555 1_555
S6_2 Cu2_2 1_555 1_555
S7_2 Cu4_2 1_555 1_555
S8_2 Cu3_2 1_555 1_555
Cu5_2 S3_2 1_555 1_555
Cu6_2 S1_2 1_555 1_555
Cu7_2 S3_2 1_555 1_555
Cu8_2 S2_2 1_555 1_555
Cu10_2 S2_2 1_555 1_555
N2_2 C8_2 1_555 1_555
N3_2 C7_2 1_555 1_555
C3_2 C7_2 1_555 1_555
C4_2 N4_2 1_555 1_555
C5_2 C6_2 1_555 1_555
N7_2 C16_2 1_555 1_555
N8_2 C15_2 1_555 1_555
C11_2 C15_2 1_555 1_555
C12_2 N9_2 1_555 1_555
C13_2 C14_2 1_555 1_555
N12_2 C24_2 1_555 1_555
N13_2 C23_2 1_555 1_555
C19_2 C23_2 1_555 1_555
C20_2 N14_2 1_555 1_555
C21_2 C22_2 1_555 1_555
S4_2 Cu5_2 1_555 1_555
S5_2 Cu10_2 1_555 1_555
Cu1_3 Cl1_3 1_555 1_555
N1_3 C1_3 1_555 1_555
N2_3 Cu1_3 1_555 1_555
N3_3 H1_3 1_555 1_555
H2_3 N3_3 1_555 1_555
C1_3 C3_3 1_555 1_555
C2_3 N4_3 1_555 1_555
C3_3 N5_3 1_555 1_555
C4_3 H3_3 1_555 1_555
H4_3 C4_3 1_555 1_555
N4_3 C1_3 1_555 1_555
C5_3 H5_3 1_555 1_555
H6_3 C5_3 1_555 1_555
H7_3 C5_3 1_555 1_555
C6_3 C4_3 1_555 1_555
H8_3 C6_3 1_555 1_555
H9_3 C6_3 1_555 1_555
N5_3 C2_3 1_555 1_555
C7_3 N2_3 1_555 1_555
C8_3 N1_3 1_555 1_555
H10_3 C8_3 1_555 1_555
S1_3 C2_3 1_555 1_555
Cu2_3 N5_3 1_555 1_555
N6_3 C9_3 1_555 1_555
N7_3 Cu1_3 1_555 1_555
N8_3 H11_3 1_555 1_555
H12_3 N8_3 1_555 1_555
C9_3 C11_3 1_555 1_555
C10_3 N9_3 1_555 1_555
C11_3 N10_3 1_555 1_555
C12_3 H13_3 1_555 1_555
H14_3 C12_3 1_555 1_555
N9_3 C9_3 1_555 1_555
C13_3 H15_3 1_555 1_555
H16_3 C13_3 1_555 1_555
H17_3 C13_3 1_555 1_555
C14_3 C12_3 1_555 1_555
H18_3 C14_3 1_555 1_555
H19_3 C14_3 1_555 1_555
N10_3 C10_3 1_555 1_555
C15_3 N7_3 1_555 1_555
C16_3 N6_3 1_555 1_555
H20_3 C16_3 1_555 1_555
S2_3 C10_3 1_555 1_555
Cu3_3 N10_3 1_555 1_555
N11_3 C17_3 1_555 1_555
N12_3 Cu1_3 1_555 1_555
N13_3 H21_3 1_555 1_555
H22_3 N13_3 1_555 1_555
C17_3 C19_3 1_555 1_555
C18_3 N14_3 1_555 1_555
C19_3 N15_3 1_555 1_555
C20_3 H23_3 1_555 1_555
H24_3 C20_3 1_555 1_555
N14_3 C17_3 1_555 1_555
C21_3 H25_3 1_555 1_555
H26_3 C21_3 1_555 1_555
H27_3 C21_3 1_555 1_555
C22_3 C20_3 1_555 1_555
H28_3 C22_3 1_555 1_555
H29_3 C22_3 1_555 1_555
N15_3 C18_3 1_555 1_555
C23_3 N12_3 1_555 1_555
C24_3 N11_3 1_555 1_555
H30_3 C24_3 1_555 1_555
S3_3 C18_3 1_555 1_555
Cu4_3 N15_3 1_555 1_555
S4_3 Cu4_3 1_555 1_555
S5_3 Cu3_3 1_555 1_555
S6_3 Cu2_3 1_555 1_555
S7_3 Cu4_3 1_555 1_555
S8_3 Cu3_3 1_555 1_555
Cu5_3 S3_3 1_555 1_555
Cu6_3 S1_3 1_555 1_555
Cu7_3 S3_3 1_555 1_555
Cu8_3 S2_3 1_555 1_555
Cu10_3 S2_3 1_555 1_555
N2_3 C8_3 1_555 1_555
N3_3 C7_3 1_555 1_555
C3_3 C7_3 1_555 1_555
C4_3 N4_3 1_555 1_555
C5_3 C6_3 1_555 1_555
N7_3 C16_3 1_555 1_555
N8_3 C15_3 1_555 1_555
C11_3 C15_3 1_555 1_555
C12_3 N9_3 1_555 1_555
C13_3 C14_3 1_555 1_555
N12_3 C24_3 1_555 1_555
N13_3 C23_3 1_555 1_555
C19_3 C23_3 1_555 1_555
C20_3 N14_3 1_555 1_555
C21_3 C22_3 1_555 1_555
S4_3 Cu5_3 1_555 1_555
S5_3 Cu10_3 1_555 1_555
S9_3 Cu9_3 1_555 1_555
Cu1_4 Cl1_4 1_555 1_555
N1_4 C1_4 1_555 1_555
N2_4 Cu1_4 1_555 1_555
N3_4 H1_4 1_555 1_555
H2_4 N3_4 1_555 1_555
C1_4 C3_4 1_555 1_555
C2_4 N4_4 1_555 1_555
C3_4 N5_4 1_555 1_555
C4_4 H3_4 1_555 1_555
H4_4 C4_4 1_555 1_555
N4_4 C1_4 1_555 1_555
C5_4 H5_4 1_555 1_555
H6_4 C5_4 1_555 1_555
H7_4 C5_4 1_555 1_555
C6_4 C4_4 1_555 1_555
H8_4 C6_4 1_555 1_555
H9_4 C6_4 1_555 1_555
N5_4 C2_4 1_555 1_555
C7_4 N2_4 1_555 1_555
C8_4 N1_4 1_555 1_555
H10_4 C8_4 1_555 1_555
S1_4 C2_4 1_555 1_555
Cu2_4 N5_4 1_555 1_555
N6_4 C9_4 1_555 1_555
N7_4 Cu1_4 1_555 1_555
N8_4 H11_4 1_555 1_555
H12_4 N8_4 1_555 1_555
C9_4 C11_4 1_555 1_555
C10_4 N9_4 1_555 1_555
C11_4 N10_4 1_555 1_555
C12_4 H13_4 1_555 1_555
H14_4 C12_4 1_555 1_555
N9_4 C9_4 1_555 1_555
C13_4 H15_4 1_555 1_555
H16_4 C13_4 1_555 1_555
H17_4 C13_4 1_555 1_555
C14_4 C12_4 1_555 1_555
H18_4 C14_4 1_555 1_555
H19_4 C14_4 1_555 1_555
N10_4 C10_4 1_555 1_555
C15_4 N7_4 1_555 1_555
C16_4 N6_4 1_555 1_555
H20_4 C16_4 1_555 1_555
S2_4 C10_4 1_555 1_555
Cu3_4 N10_4 1_555 1_555
N11_4 C17_4 1_555 1_555
N12_4 Cu1_4 1_555 1_555
N13_4 H21_4 1_555 1_555
H22_4 N13_4 1_555 1_555
C17_4 C19_4 1_555 1_555
C18_4 N14_4 1_555 1_555
C19_4 N15_4 1_555 1_555
C20_4 H23_4 1_555 1_555
H24_4 C20_4 1_555 1_555
N14_4 C17_4 1_555 1_555
C21_4 H25_4 1_555 1_555
H26_4 C21_4 1_555 1_555
H27_4 C21_4 1_555 1_555
C22_4 C20_4 1_555 1_555
H28_4 C22_4 1_555 1_555
H29_4 C22_4 1_555 1_555
N15_4 C18_4 1_555 1_555
C23_4 N12_4 1_555 1_555
C24_4 N11_4 1_555 1_555
H30_4 C24_4 1_555 1_555
S3_4 C18_4 1_555 1_555
Cu4_4 N15_4 1_555 1_555
S4_4 Cu4_4 1_555 1_555
S5_4 Cu3_4 1_555 1_555
S6_4 Cu2_4 1_555 1_555
S7_4 Cu4_4 1_555 1_555
S8_4 Cu3_4 1_555 1_555
Cu5_4 S3_4 1_555 1_555
Cu6_4 S1_4 1_555 1_555
Cu7_4 S3_4 1_555 1_555
Cu8_4 S2_4 1_555 1_555
Cu10_4 S2_4 1_555 1_555
N2_4 C8_4 1_555 1_555
N3_4 C7_4 1_555 1_555
C3_4 C7_4 1_555 1_555
C4_4 N4_4 1_555 1_555
C5_4 C6_4 1_555 1_555
N7_4 C16_4 1_555 1_555
N8_4 C15_4 1_555 1_555
C11_4 C15_4 1_555 1_555
C12_4 N9_4 1_555 1_555
C13_4 C14_4 1_555 1_555
N12_4 C24_4 1_555 1_555
N13_4 C23_4 1_555 1_555
C19_4 C23_4 1_555 1_555
C20_4 N14_4 1_555 1_555
C21_4 C22_4 1_555 1_555
S4_4 Cu5_4 1_555 1_555
S5_4 Cu10_4 1_555 1_555
S9_4 Cu9_4 1_555 1_555
S9_5 Cu9_5 1_555 1_555
Cu1_5 Cl1_5 1_555 1_555
N1_5 C1_5 1_555 1_555
N2_5 Cu1_5 1_555 1_555
N3_5 H1_5 1_555 1_555
H2_5 N3_5 1_555 1_555
C1_5 C3_5 1_555 1_555
C2_5 N4_5 1_555 1_555
C3_5 N5_5 1_555 1_555
C4_5 H3_5 1_555 1_555
H4_5 C4_5 1_555 1_555
N4_5 C1_5 1_555 1_555
C5_5 H5_5 1_555 1_555
H6_5 C5_5 1_555 1_555
H7_5 C5_5 1_555 1_555
C6_5 C4_5 1_555 1_555
H8_5 C6_5 1_555 1_555
H9_5 C6_5 1_555 1_555
N5_5 C2_5 1_555 1_555
C7_5 N2_5 1_555 1_555
C8_5 N1_5 1_555 1_555
H10_5 C8_5 1_555 1_555
S1_5 C2_5 1_555 1_555
Cu2_5 N5_5 1_555 1_555
N6_5 C9_5 1_555 1_555
N7_5 Cu1_5 1_555 1_555
N8_5 H11_5 1_555 1_555
H12_5 N8_5 1_555 1_555
C9_5 C11_5 1_555 1_555
C10_5 N9_5 1_555 1_555
C11_5 N10_5 1_555 1_555
C12_5 H13_5 1_555 1_555
H14_5 C12_5 1_555 1_555
N9_5 C9_5 1_555 1_555
C13_5 H15_5 1_555 1_555
H16_5 C13_5 1_555 1_555
H17_5 C13_5 1_555 1_555
C14_5 C12_5 1_555 1_555
H18_5 C14_5 1_555 1_555
H19_5 C14_5 1_555 1_555
N10_5 C10_5 1_555 1_555
C15_5 N7_5 1_555 1_555
C16_5 N6_5 1_555 1_555
H20_5 C16_5 1_555 1_555
S2_5 C10_5 1_555 1_555
Cu3_5 N10_5 1_555 1_555
N11_5 C17_5 1_555 1_555
N12_5 Cu1_5 1_555 1_555
N13_5 H21_5 1_555 1_555
H22_5 N13_5 1_555 1_555
C17_5 C19_5 1_555 1_555
C18_5 N14_5 1_555 1_555
C19_5 N15_5 1_555 1_555
C20_5 H23_5 1_555 1_555
H24_5 C20_5 1_555 1_555
N14_5 C17_5 1_555 1_555
C21_5 H25_5 1_555 1_555
H26_5 C21_5 1_555 1_555
H27_5 C21_5 1_555 1_555
C22_5 C20_5 1_555 1_555
H28_5 C22_5 1_555 1_555
H29_5 C22_5 1_555 1_555
N15_5 C18_5 1_555 1_555
C23_5 N12_5 1_555 1_555
C24_5 N11_5 1_555 1_555
H30_5 C24_5 1_555 1_555
S8 C18_5 1_555 1_555
Cu8 N15_5 1_555 1_555
S4_5 Cu8 1_555 1_555
S5_5 Cu3_5 1_555 1_555
S6_5 Cu2_5 1_555 1_555
S8_5 Cu3_5 1_555 1_555
Cu5_5 S8 1_555 1_555
Cu6_5 S1_5 1_555 1_555
Cu8_5 S2_5 1_555 1_555
Cu10_5 S2_5 1_555 1_555
N2_5 C8_5 1_555 1_555
N3_5 C7_5 1_555 1_555
C3_5 C7_5 1_555 1_555
C4_5 N4_5 1_555 1_555
C5_5 C6_5 1_555 1_555
N7_5 C16_5 1_555 1_555
N8_5 C15_5 1_555 1_555
C11_5 C15_5 1_555 1_555
C12_5 N9_5 1_555 1_555
C13_5 C14_5 1_555 1_555
N12_5 C24_5 1_555 1_555
N13_5 C23_5 1_555 1_555
C19_5 C23_5 1_555 1_555
C20_5 N14_5 1_555 1_555
C21_5 C22_5 1_555 1_555
S4_5 Cu5_5 1_555 1_555
S5_5 Cu10_5 1_555 1_555
S9_6 Cu9_6 1_555 1_555
Cu1_6 Cl1_6 1_555 1_555
N1_6 C1_6 1_555 1_555
N2_6 Cu1_6 1_555 1_555
N3_6 H1_6 1_555 1_555
H2_6 N3_6 1_555 1_555
C1_6 C3_6 1_555 1_555
C2_6 N4_6 1_555 1_555
C3_6 N5_6 1_555 1_555
C4_6 H3_6 1_555 1_555
H4_6 C4_6 1_555 1_555
N4_6 C1_6 1_555 1_555
C5_6 H5_6 1_555 1_555
H6_6 C5_6 1_555 1_555
H7_6 C5_6 1_555 1_555
C6_6 C4_6 1_555 1_555
H8_6 C6_6 1_555 1_555
H9_6 C6_6 1_555 1_555
N5_6 C2_6 1_555 1_555
C7_6 N2_6 1_555 1_555
C8_6 N1_6 1_555 1_555
H10_6 C8_6 1_555 1_555
S1_6 C2_6 1_555 1_555
Cu2_6 N5_6 1_555 1_555
N6_6 C9_6 1_555 1_555
N7_6 Cu1_6 1_555 1_555
N8_6 H11_6 1_555 1_555
H12_6 N8_6 1_555 1_555
C9_6 C11_6 1_555 1_555
C10_6 N9_6 1_555 1_555
C11_6 N10_6 1_555 1_555
C12_6 H13_6 1_555 1_555
H14_6 C12_6 1_555 1_555
N9_6 C9_6 1_555 1_555
C13_6 H15_6 1_555 1_555
H16_6 C13_6 1_555 1_555
H17_6 C13_6 1_555 1_555
C14_6 C12_6 1_555 1_555
H18_6 C14_6 1_555 1_555
H19_6 C14_6 1_555 1_555
N10_6 C10_6 1_555 1_555
C15_6 N7_6 1_555 1_555
C16_6 N6_6 1_555 1_555
H20_6 C16_6 1_555 1_555
S7 C10_6 1_555 1_555
Cu7 N10_6 1_555 1_555
N11_6 C17_6 1_555 1_555
N12_6 Cu1_6 1_555 1_555
N13_6 H21_6 1_555 1_555
H22_6 N13_6 1_555 1_555
C17_6 C19_6 1_555 1_555
C18_6 N14_6 1_555 1_555
C19_6 N15_6 1_555 1_555
C20_6 H23_6 1_555 1_555
H24_6 C20_6 1_555 1_555
N14_6 C17_6 1_555 1_555
C21_6 H25_6 1_555 1_555
H26_6 C21_6 1_555 1_555
H27_6 C21_6 1_555 1_555
C22_6 C20_6 1_555 1_555
H28_6 C22_6 1_555 1_555
H29_6 C22_6 1_555 1_555
N15_6 C18_6 1_555 1_555
C23_6 N12_6 1_555 1_555
C24_6 N11_6 1_555 1_555
H30_6 C24_6 1_555 1_555
S8_5 C18_6 1_555 1_555
Cu8_5 N15_6 1_555 1_555
S4_6 Cu8_5 1_555 1_555
S5_6 Cu7 1_555 1_555
S6_6 Cu2_6 1_555 1_555
Cu5_6 S8_5 1_555 1_555
Cu6_6 S1_6 1_555 1_555
Cu10_6 S7 1_555 1_555
N2_6 C8_6 1_555 1_555
N3_6 C7_6 1_555 1_555
C3_6 C7_6 1_555 1_555
C4_6 N4_6 1_555 1_555
C5_6 C6_6 1_555 1_555
N7_6 C16_6 1_555 1_555
N8_6 C15_6 1_555 1_555
C11_6 C15_6 1_555 1_555
C12_6 N9_6 1_555 1_555
C13_6 C14_6 1_555 1_555
N12_6 C24_6 1_555 1_555
N13_6 C23_6 1_555 1_555
C19_6 C23_6 1_555 1_555
C20_6 N14_6 1_555 1_555
C21_6 C22_6 1_555 1_555
S4_6 Cu5_6 1_555 1_555
S5_6 Cu10_6 1_555 1_555
Cu1_7 Cl1_7 1_555 1_555
N1_7 C1_7 1_555 1_555
N2_7 Cu1_7 1_555 1_555
N3_7 H1_7 1_555 1_555
H2_7 N3_7 1_555 1_555
C1_7 C3_7 1_555 1_555
C2_7 N4_7 1_555 1_555
C3_7 N5_7 1_555 1_555
C4_7 H3_7 1_555 1_555
H4_7 C4_7 1_555 1_555
N4_7 C1_7 1_555 1_555
C5_7 H5_7 1_555 1_555
H6_7 C5_7 1_555 1_555
H7_7 C5_7 1_555 1_555
C6_7 C4_7 1_555 1_555
H8_7 C6_7 1_555 1_555
H9_7 C6_7 1_555 1_555
N5_7 C2_7 1_555 1_555
C7_7 N2_7 1_555 1_555
C8_7 N1_7 1_555 1_555
H10_7 C8_7 1_555 1_555
S1_7 C2_7 1_555 1_555
Cu2_7 N5_7 1_555 1_555
N6_7 C9_7 1_555 1_555
N7_7 Cu1_7 1_555 1_555
N8_7 H11_7 1_555 1_555
H12_7 N8_7 1_555 1_555
C9_7 C11_7 1_555 1_555
C10_7 N9_7 1_555 1_555
C11_7 N10_7 1_555 1_555
C12_7 H13_7 1_555 1_555
H14_7 C12_7 1_555 1_555
N9_7 C9_7 1_555 1_555
C13_7 H15_7 1_555 1_555
H16_7 C13_7 1_555 1_555
H17_7 C13_7 1_555 1_555
C14_7 C12_7 1_555 1_555
H18_7 C14_7 1_555 1_555
H19_7 C14_7 1_555 1_555
N10_7 C10_7 1_555 1_555
C15_7 N7_7 1_555 1_555
C16_7 N6_7 1_555 1_555
H20_7 C16_7 1_555 1_555
S2_6 C10_7 1_555 1_555
Cu3_6 N10_7 1_555 1_555
N11_7 C17_7 1_555 1_555
N12_7 Cu1_7 1_555 1_555
N13_7 H21_7 1_555 1_555
H22_7 N13_7 1_555 1_555
C17_7 C19_7 1_555 1_555
C18_7 N14_7 1_555 1_555
C19_7 N15_7 1_555 1_555
C20_7 H23_7 1_555 1_555
H24_7 C20_7 1_555 1_555
N14_7 C17_7 1_555 1_555
C21_7 H25_7 1_555 1_555
H26_7 C21_7 1_555 1_555
H27_7 C21_7 1_555 1_555
C22_7 C20_7 1_555 1_555
H28_7 C22_7 1_555 1_555
H29_7 C22_7 1_555 1_555
N15_7 C18_7 1_555 1_555
C23_7 N12_7 1_555 1_555
C24_7 N11_7 1_555 1_555
H30_7 C24_7 1_555 1_555
S8_2 C18_7 1_555 1_555
Cu8_2 N15_7 1_555 1_555
S4_7 Cu8_2 1_555 1_555
S5_7 Cu3_6 1_555 1_555
S6_7 Cu2_7 1_555 1_555
S8_6 Cu3_6 1_555 1_555
Cu5_7 S8_2 1_555 1_555
Cu6_7 S1_7 1_555 1_555
Cu8_6 S2_6 1_555 1_555
Cu10_7 S2_6 1_555 1_555
N2_7 C8_7 1_555 1_555
N3_7 C7_7 1_555 1_555
C3_7 C7_7 1_555 1_555
C4_7 N4_7 1_555 1_555
C5_7 C6_7 1_555 1_555
N7_7 C16_7 1_555 1_555
N8_7 C15_7 1_555 1_555
C11_7 C15_7 1_555 1_555
C12_7 N9_7 1_555 1_555
C13_7 C14_7 1_555 1_555
N12_7 C24_7 1_555 1_555
N13_7 C23_7 1_555 1_555
C19_7 C23_7 1_555 1_555
C20_7 N14_7 1_555 1_555
C21_7 C22_7 1_555 1_555
S4_7 Cu5_7 1_555 1_555
S5_7 Cu10_7 1_555 1_555
S9_7 Cu9_7 1_555 1_555
S9_8 Cu9_8 1_555 1_555
Cu1_8 Cl1_8 1_555 1_555
N1_8 C1_8 1_555 1_555
N2_8 Cu1_8 1_555 1_555
N3_8 H1_8 1_555 1_555
H2_8 N3_8 1_555 1_555
C1_8 C3_8 1_555 1_555
C2_8 N4_8 1_555 1_555
C3_8 N5_8 1_555 1_555
C4_8 H3_8 1_555 1_555
H4_8 C4_8 1_555 1_555
N4_8 C1_8 1_555 1_555
C5_8 H5_8 1_555 1_555
H6_8 C5_8 1_555 1_555
H7_8 C5_8 1_555 1_555
C6_8 C4_8 1_555 1_555
H8_8 C6_8 1_555 1_555
H9_8 C6_8 1_555 1_555
N5_8 C2_8 1_555 1_555
C7_8 N2_8 1_555 1_555
C8_8 N1_8 1_555 1_555
H10_8 C8_8 1_555 1_555
S1_8 C2_8 1_555 1_555
Cu2_8 N5_8 1_555 1_555
N6_8 C9_8 1_555 1_555
N7_8 Cu1_8 1_555 1_555
N8_8 H11_8 1_555 1_555
H12_8 N8_8 1_555 1_555
C9_8 C11_8 1_555 1_555
C10_8 N9_8 1_555 1_555
C11_8 N10_8 1_555 1_555
C12_8 H13_8 1_555 1_555
H14_8 C12_8 1_555 1_555
N9_8 C9_8 1_555 1_555
C13_8 H15_8 1_555 1_555
H16_8 C13_8 1_555 1_555
H17_8 C13_8 1_555 1_555
C14_8 C12_8 1_555 1_555
H18_8 C14_8 1_555 1_555
H19_8 C14_8 1_555 1_555
N10_8 C10_8 1_555 1_555
C15_8 N7_8 1_555 1_555
C16_8 N6_8 1_555 1_555
H20_8 C16_8 1_555 1_555
S7_4 C10_8 1_555 1_555
Cu7_4 N10_8 1_555 1_555
N11_8 C17_8 1_555 1_555
N12_8 Cu1_8 1_555 1_555
N13_8 H21_8 1_555 1_555
H22_8 N13_8 1_555 1_555
C17_8 C19_8 1_555 1_555
C18_8 N14_8 1_555 1_555
C19_8 N15_8 1_555 1_555
C20_8 H23_8 1_555 1_555
H24_8 C20_8 1_555 1_555
N14_8 C17_8 1_555 1_555
C21_8 H25_8 1_555 1_555
H26_8 C21_8 1_555 1_555
H27_8 C21_8 1_555 1_555
C22_8 C20_8 1_555 1_555
H28_8 C22_8 1_555 1_555
H29_8 C22_8 1_555 1_555
N15_8 C18_8 1_555 1_555
C23_8 N12_8 1_555 1_555
C24_8 N11_8 1_555 1_555
H30_8 C24_8 1_555 1_555
S3_5 C18_8 1_555 1_555
Cu4_5 N15_8 1_555 1_555
S4_8 Cu4_5 1_555 1_555
S5_8 Cu7_4 1_555 1_555
S6_8 Cu2_8 1_555 1_555
S7_5 Cu4_5 1_555 1_555
Cu5_8 S3_5 1_555 1_555
Cu6_8 S1_8 1_555 1_555
Cu7_5 S3_5 1_555 1_555
Cu10_8 S7_4 1_555 1_555
N2_8 C8_8 1_555 1_555
N3_8 C7_8 1_555 1_555
C3_8 C7_8 1_555 1_555
C4_8 N4_8 1_555 1_555
C5_8 C6_8 1_555 1_555
N7_8 C16_8 1_555 1_555
N8_8 C15_8 1_555 1_555
C11_8 C15_8 1_555 1_555
C12_8 N9_8 1_555 1_555
C13_8 C14_8 1_555 1_555
N12_8 C24_8 1_555 1_555
N13_8 C23_8 1_555 1_555
C19_8 C23_8 1_555 1_555
C20_8 N14_8 1_555 1_555
C21_8 C22_8 1_555 1_555
S4_8 Cu5_8 1_555 1_555
S5_8 Cu10_8 1_555 1_555
S9_9 Cu9_9 1_555 1_555
Cu1_9 Cl1_9 1_555 1_555
N1_9 C1_9 1_555 1_555
N2_9 Cu1_9 1_555 1_555
N3_9 H1_9 1_555 1_555
H2_9 N3_9 1_555 1_555
C1_9 C3_9 1_555 1_555
C2_9 N4_9 1_555 1_555
C3_9 N5_9 1_555 1_555
C4_9 H3_9 1_555 1_555
H4_9 C4_9 1_555 1_555
N4_9 C1_9 1_555 1_555
C5_9 H5_9 1_555 1_555
H6_9 C5_9 1_555 1_555
H7_9 C5_9 1_555 1_555
C6_9 C4_9 1_555 1_555
H8_9 C6_9 1_555 1_555
H9_9 C6_9 1_555 1_555
N5_9 C2_9 1_555 1_555
C7_9 N2_9 1_555 1_555
C8_9 N1_9 1_555 1_555
H10_9 C8_9 1_555 1_555
S1_9 C2_9 1_555 1_555
Cu2_9 N5_9 1_555 1_555
N6_9 C9_9 1_555 1_555
N7_9 Cu1_9 1_555 1_555
N8_9 H11_9 1_555 1_555
H12_9 N8_9 1_555 1_555
C9_9 C11_9 1_555 1_555
C10_9 N9_9 1_555 1_555
C11_9 N10_9 1_555 1_555
C12_9 H13_9 1_555 1_555
H14_9 C12_9 1_555 1_555
N9_9 C9_9 1_555 1_555
C13_9 H15_9 1_555 1_555
H16_9 C13_9 1_555 1_555
H17_9 C13_9 1_555 1_555
C14_9 C12_9 1_555 1_555
H18_9 C14_9 1_555 1_555
H19_9 C14_9 1_555 1_555
N10_9 C10_9 1_555 1_555
C15_9 N7_9 1_555 1_555
C16_9 N6_9 1_555 1_555
H20_9 C16_9 1_555 1_555
S2_7 C10_9 1_555 1_555
Cu3_7 N10_9 1_555 1_555
N11_9 C17_9 1_555 1_555
N12_9 Cu1_9 1_555 1_555
N13_9 H21_9 1_555 1_555
H22_9 N13_9 1_555 1_555
C17_9 C19_9 1_555 1_555
C18_9 N14_9 1_555 1_555
C19_9 N15_9 1_555 1_555
C20_9 H23_9 1_555 1_555
H24_9 C20_9 1_555 1_555
N14_9 C17_9 1_555 1_555
C21_9 H25_9 1_555 1_555
H26_9 C21_9 1_555 1_555
H27_9 C21_9 1_555 1_555
C22_9 C20_9 1_555 1_555
H28_9 C22_9 1_555 1_555
H29_9 C22_9 1_555 1_555
N15_9 C18_9 1_555 1_555
C23_9 N12_9 1_555 1_555
C24_9 N11_9 1_555 1_555
H30_9 C24_9 1_555 1_555
S8_3 C18_9 1_555 1_555
Cu8_3 N15_9 1_555 1_555
S4_9 Cu8_3 1_555 1_555
S5_9 Cu3_7 1_555 1_555
S6_9 Cu2_9 1_555 1_555
S8_7 Cu3_7 1_555 1_555
Cu5_9 S8_3 1_555 1_555
Cu6_9 S1_9 1_555 1_555
Cu8_7 S2_7 1_555 1_555
Cu10_9 S2_7 1_555 1_555
N2_9 C8_9 1_555 1_555
N3_9 C7_9 1_555 1_555
C3_9 C7_9 1_555 1_555
C4_9 N4_9 1_555 1_555
C5_9 C6_9 1_555 1_555
N7_9 C16_9 1_555 1_555
N8_9 C15_9 1_555 1_555
C11_9 C15_9 1_555 1_555
C12_9 N9_9 1_555 1_555
C13_9 C14_9 1_555 1_555
N12_9 C24_9 1_555 1_555
N13_9 C23_9 1_555 1_555
C19_9 C23_9 1_555 1_555
C20_9 N14_9 1_555 1_555
C21_9 C22_9 1_555 1_555
S4_9 Cu5_9 1_555 1_555
S5_9 Cu10_9 1_555 1_555
Cu1_10 Cl1_10 1_555 1_555
N1_10 C1_10 1_555 1_555
N2_10 Cu1_10 1_555 1_555
N3_10 H1_10 1_555 1_555
H2_10 N3_10 1_555 1_555
C1_10 C3_10 1_555 1_555
C2_10 N4_10 1_555 1_555
C3_10 N5_10 1_555 1_555
C4_10 H3_10 1_555 1_555
H4_10 C4_10 1_555 1_555
N4_10 C1_10 1_555 1_555
C5_10 H5_10 1_555 1_555
H6_10 C5_10 1_555 1_555
H7_10 C5_10 1_555 1_555
C6_10 C4_10 1_555 1_555
H8_10 C6_10 1_555 1_555
H9_10 C6_10 1_555 1_555
N5_10 C2_10 1_555 1_555
C7_10 N2_10 1_555 1_555
C8_10 N1_10 1_555 1_555
H10_10 C8_10 1_555 1_555
S1_10 C2_10 1_555 1_555
Cu2_10 N5_10 1_555 1_555
N6_10 C9_10 1_555 1_555
N7_10 Cu1_10 1_555 1_555
N8_10 H11_10 1_555 1_555
H12_10 N8_10 1_555 1_555
C9_10 C11_10 1_555 1_555
C10_10 N9_10 1_555 1_555
C11_10 N10_10 1_555 1_555
C12_10 H13_10 1_555 1_555
H14_10 C12_10 1_555 1_555
N9_10 C9_10 1_555 1_555
C13_10 H15_10 1_555 1_555
H16_10 C13_10 1_555 1_555
H17_10 C13_10 1_555 1_555
C14_10 C12_10 1_555 1_555
H18_10 C14_10 1_555 1_555
H19_10 C14_10 1_555 1_555
N10_10 C10_10 1_555 1_555
C15_10 N7_10 1_555 1_555
C16_10 N6_10 1_555 1_555
H20_10 C16_10 1_555 1_555
S7_2 C10_10 1_555 1_555
Cu7_2 N10_10 1_555 1_555
N11_10 C17_10 1_555 1_555
N12_10 Cu1_10 1_555 1_555
N13_10 H21_10 1_555 1_555
H22_10 N13_10 1_555 1_555
C17_10 C19_10 1_555 1_555
C18_10 N14_10 1_555 1_555
C19_10 N15_10 1_555 1_555
C20_10 H23_10 1_555 1_555
H24_10 C20_10 1_555 1_555
N14_10 C17_10 1_555 1_555
C21_10 H25_10 1_555 1_555
H26_10 C21_10 1_555 1_555
H27_10 C21_10 1_555 1_555
C22_10 C20_10 1_555 1_555
H28_10 C22_10 1_555 1_555
H29_10 C22_10 1_555 1_555
N15_10 C18_10 1_555 1_555
C23_10 N12_10 1_555 1_555
C24_10 N11_10 1_555 1_555
H30_10 C24_10 1_555 1_555
S8_6 C18_10 1_555 1_555
Cu8_6 N15_10 1_555 1_555
S4_10 Cu8_6 1_555 1_555
S5_10 Cu7_2 1_555 1_555
S6_10 Cu2_10 1_555 1_555
Cu5_10 S8_6 1_555 1_555
Cu6_10 S1_10 1_555 1_555
Cu10_10 S7_2 1_555 1_555
N2_10 C8_10 1_555 1_555
N3_10 C7_10 1_555 1_555
C3_10 C7_10 1_555 1_555
C4_10 N4_10 1_555 1_555
C5_10 C6_10 1_555 1_555
N7_10 C16_10 1_555 1_555
N8_10 C15_10 1_555 1_555
C11_10 C15_10 1_555 1_555
C12_10 N9_10 1_555 1_555
C13_10 C14_10 1_555 1_555
N12_10 C24_10 1_555 1_555
N13_10 C23_10 1_555 1_555
C19_10 C23_10 1_555 1_555
C20_10 N14_10 1_555 1_555
C21_10 C22_10 1_555 1_555
S4_10 Cu5_10 1_555 1_555
S5_10 Cu10_10 1_555 1_555
S9_10 Cu9_10 1_555 1_555
Cu1_11 Cl1_11 1_555 1_555
N1_11 C1_11 1_555 1_555
N2_11 Cu1_11 1_555 1_555
N3_11 H1_11 1_555 1_555
H2_11 N3_11 1_555 1_555
C1_11 C3_11 1_555 1_555
C2_11 N4_11 1_555 1_555
C3_11 N5_11 1_555 1_555
C4_11 H3_11 1_555 1_555
H4_11 C4_11 1_555 1_555
N4_11 C1_11 1_555 1_555
C5_11 H5_11 1_555 1_555
H6_11 C5_11 1_555 1_555
H7_11 C5_11 1_555 1_555
C6_11 C4_11 1_555 1_555
H8_11 C6_11 1_555 1_555
H9_11 C6_11 1_555 1_555
N5_11 C2_11 1_555 1_555
C7_11 N2_11 1_555 1_555
C8_11 N1_11 1_555 1_555
H10_11 C8_11 1_555 1_555
S1_11 C2_11 1_555 1_555
Cu2_11 N5_11 1_555 1_555
N6_11 C9_11 1_555 1_555
N7_11 Cu1_11 1_555 1_555
N8_11 H11_11 1_555 1_555
H12_11 N8_11 1_555 1_555
C9_11 C11_11 1_555 1_555
C10_11 N9_11 1_555 1_555
C11_11 N10_11 1_555 1_555
C12_11 H13_11 1_555 1_555
H14_11 C12_11 1_555 1_555
N9_11 C9_11 1_555 1_555
C13_11 H15_11 1_555 1_555
H16_11 C13_11 1_555 1_555
H17_11 C13_11 1_555 1_555
C14_11 C12_11 1_555 1_555
H18_11 C14_11 1_555 1_555
H19_11 C14_11 1_555 1_555
N10_11 C10_11 1_555 1_555
C15_11 N7_11 1_555 1_555
C16_11 N6_11 1_555 1_555
H20_11 C16_11 1_555 1_555
S7_5 C10_11 1_555 1_555
Cu7_5 N10_11 1_555 1_555
N11_11 C17_11 1_555 1_555
N12_11 Cu1_11 1_555 1_555
N13_11 H21_11 1_555 1_555
H22_11 N13_11 1_555 1_555
C17_11 C19_11 1_555 1_555
C18_11 N14_11 1_555 1_555
C19_11 N15_11 1_555 1_555
C20_11 H23_11 1_555 1_555
H24_11 C20_11 1_555 1_555
N14_11 C17_11 1_555 1_555
C21_11 H25_11 1_555 1_555
H26_11 C21_11 1_555 1_555
H27_11 C21_11 1_555 1_555
C22_11 C20_11 1_555 1_555
H28_11 C22_11 1_555 1_555
H29_11 C22_11 1_555 1_555
N15_11 C18_11 1_555 1_555
C23_11 N12_11 1_555 1_555
C24_11 N11_11 1_555 1_555
H30_11 C24_11 1_555 1_555
S8_4 C18_11 1_555 1_555
Cu8_4 N15_11 1_555 1_555
S4_11 Cu8_4 1_555 1_555
S5_11 Cu7_5 1_555 1_555
S6_11 Cu2_11 1_555 1_555
Cu5_11 S8_4 1_555 1_555
Cu6_11 S1_11 1_555 1_555
Cu10_11 S7_5 1_555 1_555
N2_11 C8_11 1_555 1_555
N3_11 C7_11 1_555 1_555
C3_11 C7_11 1_555 1_555
C4_11 N4_11 1_555 1_555
C5_11 C6_11 1_555 1_555
N7_11 C16_11 1_555 1_555
N8_11 C15_11 1_555 1_555
C11_11 C15_11 1_555 1_555
C12_11 N9_11 1_555 1_555
C13_11 C14_11 1_555 1_555
N12_11 C24_11 1_555 1_555
N13_11 C23_11 1_555 1_555
C19_11 C23_11 1_555 1_555
C20_11 N14_11 1_555 1_555
C21_11 C22_11 1_555 1_555
S4_11 Cu5_11 1_555 1_555
S5_11 Cu10_11 1_555 1_555
S9_11 Cu9_11 1_555 1_555
Cu1_12 Cl1_12 1_555 1_555
N1_12 C1_12 1_555 1_555
N2_12 Cu1_12 1_555 1_555
N3_12 H1_12 1_555 1_555
H2_12 N3_12 1_555 1_555
C1_12 C3_12 1_555 1_555
C2_12 N4_12 1_555 1_555
C3_12 N5_12 1_555 1_555
C4_12 H3_12 1_555 1_555
H4_12 C4_12 1_555 1_555
N4_12 C1_12 1_555 1_555
C5_12 H5_12 1_555 1_555
H6_12 C5_12 1_555 1_555
H7_12 C5_12 1_555 1_555
C6_12 C4_12 1_555 1_555
H8_12 C6_12 1_555 1_555
H9_12 C6_12 1_555 1_555
N5_12 C2_12 1_555 1_555
C7_12 N2_12 1_555 1_555
C8_12 N1_12 1_555 1_555
H10_12 C8_12 1_555 1_555
S1_12 C2_12 1_555 1_555
Cu2_12 N5_12 1_555 1_555
N6_12 C9_12 1_555 1_555
N7_12 Cu1_12 1_555 1_555
N8_12 H11_12 1_555 1_555
H12_12 N8_12 1_555 1_555
C9_12 C11_12 1_555 1_555
C10_12 N9_12 1_555 1_555
C11_12 N10_12 1_555 1_555
C12_12 H13_12 1_555 1_555
H14_12 C12_12 1_555 1_555
N9_12 C9_12 1_555 1_555
C13_12 H15_12 1_555 1_555
H16_12 C13_12 1_555 1_555
H17_12 C13_12 1_555 1_555
C14_12 C12_12 1_555 1_555
H18_12 C14_12 1_555 1_555
H19_12 C14_12 1_555 1_555
N10_12 C10_12 1_555 1_555
C15_12 N7_12 1_555 1_555
C16_12 N6_12 1_555 1_555
H20_12 C16_12 1_555 1_555
S7_3 C10_12 1_555 1_555
Cu7_3 N10_12 1_555 1_555
N11_12 C17_12 1_555 1_555
N12_12 Cu1_12 1_555 1_555
N13_12 H21_12 1_555 1_555
H22_12 N13_12 1_555 1_555
C17_12 C19_12 1_555 1_555
C18_12 N14_12 1_555 1_555
C19_12 N15_12 1_555 1_555
C20_12 H23_12 1_555 1_555
H24_12 C20_12 1_555 1_555
N14_12 C17_12 1_555 1_555
C21_12 H25_12 1_555 1_555
H26_12 C21_12 1_555 1_555
H27_12 C21_12 1_555 1_555
C22_12 C20_12 1_555 1_555
H28_12 C22_12 1_555 1_555
H29_12 C22_12 1_555 1_555
N15_12 C18_12 1_555 1_555
C23_12 N12_12 1_555 1_555
C24_12 N11_12 1_555 1_555
H30_12 C24_12 1_555 1_555
S8_7 C18_12 1_555 1_555
Cu8_7 N15_12 1_555 1_555
S4_12 Cu8_7 1_555 1_555
S5_12 Cu7_3 1_555 1_555
S6_12 Cu2_12 1_555 1_555
Cu5_12 S8_7 1_555 1_555
Cu6_12 S1_12 1_555 1_555
Cu10_12 S7_3 1_555 1_555
N2_12 C8_12 1_555 1_555
N3_12 C7_12 1_555 1_555
C3_12 C7_12 1_555 1_555
C4_12 N4_12 1_555 1_555
C5_12 C6_12 1_555 1_555
N7_12 C16_12 1_555 1_555
N8_12 C15_12 1_555 1_555
C11_12 C15_12 1_555 1_555
C12_12 N9_12 1_555 1_555
C13_12 C14_12 1_555 1_555
N12_12 C24_12 1_555 1_555
N13_12 C23_12 1_555 1_555
C19_12 C23_12 1_555 1_555
C20_12 N14_12 1_555 1_555
C21_12 C22_12 1_555 1_555
S4_12 Cu5_12 1_555 1_555
S5_12 Cu10_12 1_555 1_555
S9_12 Cu9_12 1_555 1_555
Cu1_13 Cl1_13 1_555 1_555
N1_13 C1_13 1_555 1_555
N2_13 Cu1_13 1_555 1_555
N3_13 H1_13 1_555 1_555
H2_13 N3_13 1_555 1_555
C1_13 C3_13 1_555 1_555
C2_13 N4_13 1_555 1_555
C3_13 N5_13 1_555 1_555
C4_13 H3_13 1_555 1_555
H4_13 C4_13 1_555 1_555
N4_13 C1_13 1_555 1_555
C5_13 H5_13 1_555 1_555
H6_13 C5_13 1_555 1_555
H7_13 C5_13 1_555 1_555
C6_13 C4_13 1_555 1_555
H8_13 C6_13 1_555 1_555
H9_13 C6_13 1_555 1_555
N5_13 C2_13 1_555 1_555
C7_13 N2_13 1_555 1_555
C8_13 N1_13 1_555 1_555
H10_13 C8_13 1_555 1_555
S1_13 C2_13 1_555 1_555
Cu9_4 N5_13 1_555 1_555
N6_13 C9_13 1_555 1_555
N7_13 Cu1_13 1_555 1_555
N8_13 H11_13 1_555 1_555
H12_13 N8_13 1_555 1_555
C9_13 C11_13 1_555 1_555
C10_13 N9_13 1_555 1_555
C11_13 N10_13 1_555 1_555
C12_13 H13_13 1_555 1_555
H14_13 C12_13 1_555 1_555
N9_13 C9_13 1_555 1_555
C13_13 H15_13 1_555 1_555
H16_13 C13_13 1_555 1_555
H17_13 C13_13 1_555 1_555
C14_13 C12_13 1_555 1_555
H18_13 C14_13 1_555 1_555
H19_13 C14_13 1_555 1_555
N10_13 C10_13 1_555 1_555
C15_13 N7_13 1_555 1_555
C16_13 N6_13 1_555 1_555
H20_13 C16_13 1_555 1_555
S9_5 C10_13 1_555 1_555
Cu3_8 N10_13 1_555 1_555
N11_13 C17_13 1_555 1_555
N12_13 Cu1_13 1_555 1_555
N13_13 H21_13 1_555 1_555
H22_13 N13_13 1_555 1_555
C17_13 C19_13 1_555 1_555
C18_13 N14_13 1_555 1_555
C19_13 N15_13 1_555 1_555
C20_13 H23_13 1_555 1_555
H24_13 C20_13 1_555 1_555
N14_13 C17_13 1_555 1_555
C21_13 H25_13 1_555 1_555
H26_13 C21_13 1_555 1_555
H27_13 C21_13 1_555 1_555
C22_13 C20_13 1_555 1_555
H28_13 C22_13 1_555 1_555
H29_13 C22_13 1_555 1_555
N15_13 C18_13 1_555 1_555
C23_13 N12_13 1_555 1_555
C24_13 N11_13 1_555 1_555
H30_13 C24_13 1_555 1_555
S5_2 C18_13 1_555 1_555
Cu5_7 N15_13 1_555 1_555
S8_8 Cu3_8 1_555 1_555
Cu6_13 S1_13 1_555 1_555
N2_13 C8_13 1_555 1_555
N3_13 C7_13 1_555 1_555
C3_13 C7_13 1_555 1_555
C4_13 N4_13 1_555 1_555
C5_13 C6_13 1_555 1_555
N7_13 C16_13 1_555 1_555
N8_13 C15_13 1_555 1_555
C11_13 C15_13 1_555 1_555
C12_13 N9_13 1_555 1_555
C13_13 C14_13 1_555 1_555
N12_13 C24_13 1_555 1_555
N13_13 C23_13 1_555 1_555
C19_13 C23_13 1_555 1_555
C20_13 N14_13 1_555 1_555
C21_13 C22_13 1_555 1_555
Cu1_14 Cl1_14 1_555 1_555
N1_14 C1_14 1_555 1_555
N2_14 Cu1_14 1_555 1_555
N3_14 H1_14 1_555 1_555
H2_14 N3_14 1_555 1_555
C1_14 C3_14 1_555 1_555
C2_14 N4_14 1_555 1_555
C3_14 N5_14 1_555 1_555
C4_14 H3_14 1_555 1_555
H4_14 C4_14 1_555 1_555
N4_14 C1_14 1_555 1_555
C5_14 H5_14 1_555 1_555
H6_14 C5_14 1_555 1_555
H7_14 C5_14 1_555 1_555
C6_14 C4_14 1_555 1_555
H8_14 C6_14 1_555 1_555
H9_14 C6_14 1_555 1_555
N5_14 C2_14 1_555 1_555
C7_14 N2_14 1_555 1_555
C8_14 N1_14 1_555 1_555
H10_14 C8_14 1_555 1_555
S4_10 C2_14 1_555 1_555
Cu10_7 N5_14 1_555 1_555
N6_14 C9_14 1_555 1_555
N7_14 Cu1_14 1_555 1_555
N8_14 H11_14 1_555 1_555
H12_14 N8_14 1_555 1_555
C9_14 C11_14 1_555 1_555
C10_14 N9_14 1_555 1_555
C11_14 N10_14 1_555 1_555
C12_14 H13_14 1_555 1_555
H14_14 C12_14 1_555 1_555
N9_14 C9_14 1_555 1_555
C13_14 H15_14 1_555 1_555
H16_14 C13_14 1_555 1_555
H17_14 C13_14 1_555 1_555
C14_14 C12_14 1_555 1_555
H18_14 C14_14 1_555 1_555
H19_14 C14_14 1_555 1_555
N10_14 C10_14 1_555 1_555
C15_14 N7_14 1_555 1_555
C16_14 N6_14 1_555 1_555
H20_14 C16_14 1_555 1_555
S4_3 C10_14 1_555 1_555
Cu10_12 N10_14 1_555 1_555
N11_14 C17_14 1_555 1_555
N12_14 Cu1_14 1_555 1_555
N13_14 H21_14 1_555 1_555
H22_14 N13_14 1_555 1_555
C17_14 C19_14 1_555 1_555
C18_14 N14_14 1_555 1_555
C19_14 N15_14 1_555 1_555
C20_14 H23_14 1_555 1_555
H24_14 C20_14 1_555 1_555
N14_14 C17_14 1_555 1_555
C21_14 H25_14 1_555 1_555
H26_14 C21_14 1_555 1_555
H27_14 C21_14 1_555 1_555
C22_14 C20_14 1_555 1_555
H28_14 C22_14 1_555 1_555
H29_14 C22_14 1_555 1_555
N15_14 C18_14 1_555 1_555
C23_14 N12_14 1_555 1_555
C24_14 N11_14 1_555 1_555
H30_14 C24_14 1_555 1_555
S4_11 C18_14 1_555 1_555
Cu10_4 N15_14 1_555 1_555
N2_14 C8_14 1_555 1_555
N3_14 C7_14 1_555 1_555
C3_14 C7_14 1_555 1_555
C4_14 N4_14 1_555 1_555
C5_14 C6_14 1_555 1_555
N7_14 C16_14 1_555 1_555
N8_14 C15_14 1_555 1_555
C11_14 C15_14 1_555 1_555
C12_14 N9_14 1_555 1_555
C13_14 C14_14 1_555 1_555
N12_14 C24_14 1_555 1_555
N13_14 C23_14 1_555 1_555
C19_14 C23_14 1_555 1_555
C20_14 N14_14 1_555 1_555
C21_14 C22_14 1_555 1_555
Cu1_15 Cl1_15 1_555 1_555
N1_15 C1_15 1_555 1_555
N2_15 Cu1_15 1_555 1_555
N3_15 H1_15 1_555 1_555
H2_15 N3_15 1_555 1_555
C1_15 C3_15 1_555 1_555
C2_15 N4_15 1_555 1_555
C3_15 N5_15 1_555 1_555
C4_15 H3_15 1_555 1_555
H4_15 C4_15 1_555 1_555
N4_15 C1_15 1_555 1_555
C5_15 H5_15 1_555 1_555
H6_15 C5_15 1_555 1_555
H7_15 C5_15 1_555 1_555
C6_15 C4_15 1_555 1_555
H8_15 C6_15 1_555 1_555
H9_15 C6_15 1_555 1_555
N5_15 C2_15 1_555 1_555
C7_15 N2_15 1_555 1_555
C8_15 N1_15 1_555 1_555
H10_15 C8_15 1_555 1_555
S9_2 C2_15 1_555 1_555
Cu2_13 N5_15 1_555 1_555
N6_15 C9_15 1_555 1_555
N7_15 Cu1_15 1_555 1_555
N8_15 H11_15 1_555 1_555
H12_15 N8_15 1_555 1_555
C9_15 C11_15 1_555 1_555
C10_15 N9_15 1_555 1_555
C11_15 N10_15 1_555 1_555
C12_15 H13_15 1_555 1_555
H14_15 C12_15 1_555 1_555
N9_15 C9_15 1_555 1_555
C13_15 H15_15 1_555 1_555
H16_15 C13_15 1_555 1_555
H17_15 C13_15 1_555 1_555
C14_15 C12_15 1_555 1_555
H18_15 C14_15 1_555 1_555
H19_15 C14_15 1_555 1_555
N10_15 C10_15 1_555 1_555
C15_15 N7_15 1_555 1_555
C16_15 N6_15 1_555 1_555
H20_15 C16_15 1_555 1_555
S5_12 C10_15 1_555 1_555
Cu5_3 N10_15 1_555 1_555
N11_15 C17_15 1_555 1_555
N12_15 Cu1_15 1_555 1_555
N13_15 H21_15 1_555 1_555
H22_15 N13_15 1_555 1_555
C17_15 C19_15 1_555 1_555
C18_15 N14_15 1_555 1_555
C19_15 N15_15 1_555 1_555
C20_15 H23_15 1_555 1_555
H24_15 C20_15 1_555 1_555
N14_15 C17_15 1_555 1_555
C21_15 H25_15 1_555 1_555
H26_15 C21_15 1_555 1_555
H27_15 C21_15 1_555 1_555
C22_15 C20_15 1_555 1_555
H28_15 C22_15 1_555 1_555
H29_15 C22_15 1_555 1_555
N15_15 C18_15 1_555 1_555
C23_15 N12_15 1_555 1_555
C24_15 N11_15 1_555 1_555
H30_15 C24_15 1_555 1_555
S3_6 C18_15 1_555 1_555
Cu9_8 N15_15 1_555 1_555
S6_13 Cu2_13 1_555 1_555
Cu7_6 S3_6 1_555 1_555
N2_15 C8_15 1_555 1_555
N3_15 C7_15 1_555 1_555
C3_15 C7_15 1_555 1_555
C4_15 N4_15 1_555 1_555
C5_15 C6_15 1_555 1_555
N7_15 C16_15 1_555 1_555
N8_15 C15_15 1_555 1_555
C11_15 C15_15 1_555 1_555
C12_15 N9_15 1_555 1_555
C13_15 C14_15 1_555 1_555
N12_15 C24_15 1_555 1_555
N13_15 C23_15 1_555 1_555
C19_15 C23_15 1_555 1_555
C20_15 N14_15 1_555 1_555
C21_15 C22_15 1_555 1_555
Cu1_16 Cl1_16 1_555 1_555
N1_16 C1_16 1_555 1_555
N2_16 Cu1_16 1_555 1_555
N3_16 H1_16 1_555 1_555
H2_16 N3_16 1_555 1_555
C1_16 C3_16 1_555 1_555
C2_16 N4_16 1_555 1_555
C3_16 N5_16 1_555 1_555
C4_16 H3_16 1_555 1_555
H4_16 C4_16 1_555 1_555
N4_16 C1_16 1_555 1_555
C5_16 H5_16 1_555 1_555
H6_16 C5_16 1_555 1_555
H7_16 C5_16 1_555 1_555
C6_16 C4_16 1_555 1_555
H8_16 C6_16 1_555 1_555
H9_16 C6_16 1_555 1_555
N5_16 C2_16 1_555 1_555
C7_16 N2_16 1_555 1_555
C8_16 N1_16 1_555 1_555
H10_16 C8_16 1_555 1_555
S6_13 C2_16 1_555 1_555
Cu9_2 N5_16 1_555 1_555
N6_16 C9_16 1_555 1_555
N7_16 Cu1_16 1_555 1_555
N8_16 H11_16 1_555 1_555
H12_16 N8_16 1_555 1_555
C9_16 C11_16 1_555 1_555
C10_16 N9_16 1_555 1_555
C11_16 N10_16 1_555 1_555
C12_16 H13_16 1_555 1_555
H14_16 C12_16 1_555 1_555
N9_16 C9_16 1_555 1_555
C13_16 H15_16 1_555 1_555
H16_16 C13_16 1_555 1_555
H17_16 C13_16 1_555 1_555
C14_16 C12_16 1_555 1_555
H18_16 C14_16 1_555 1_555
H19_16 C14_16 1_555 1_555
N10_16 C10_16 1_555 1_555
C15_16 N7_16 1_555 1_555
C16_16 N6_16 1_555 1_555
H20_16 C16_16 1_555 1_555
S9_9 C10_16 1_555 1_555
Cu3_9 N10_16 1_555 1_555
N11_16 C17_16 1_555 1_555
N12_16 Cu1_16 1_555 1_555
N13_16 H21_16 1_555 1_555
H22_16 N13_16 1_555 1_555
C17_16 C19_16 1_555 1_555
C18_16 N14_16 1_555 1_555
C19_16 N15_16 1_555 1_555
C20_16 H23_16 1_555 1_555
H24_16 C20_16 1_555 1_555
N14_16 C17_16 1_555 1_555
C21_16 H25_16 1_555 1_555
H26_16 C21_16 1_555 1_555
H27_16 C21_16 1_555 1_555
C22_16 C20_16 1_555 1_555
H28_16 C22_16 1_555 1_555
H29_16 C22_16 1_555 1_555
N15_16 C18_16 1_555 1_555
C23_16 N12_16 1_555 1_555
C24_16 N11_16 1_555 1_555
H30_16 C24_16 1_555 1_555
S5_4 C18_16 1_555 1_555
Cu5_11 N15_16 1_555 1_555
S8_9 Cu3_9 1_555 1_555
N2_16 C8_16 1_555 1_555
N3_16 C7_16 1_555 1_555
C3_16 C7_16 1_555 1_555
C4_16 N4_16 1_555 1_555
C5_16 C6_16 1_555 1_555
N7_16 C16_16 1_555 1_555
N8_16 C15_16 1_555 1_555
C11_16 C15_16 1_555 1_555
C12_16 N9_16 1_555 1_555
C13_16 C14_16 1_555 1_555
N12_16 C24_16 1_555 1_555
N13_16 C23_16 1_555 1_555
C19_16 C23_16 1_555 1_555
C20_16 N14_16 1_555 1_555
C21_16 C22_16 1_555 1_555
Cu1_17 Cl1_17 1_555 1_555
N1_17 C1_17 1_555 1_555
N2_17 Cu1_17 1_555 1_555
N3_17 H1_17 1_555 1_555
H2_17 N3_17 1_555 1_555
C1_17 C3_17 1_555 1_555
C2_17 N4_17 1_555 1_555
C3_17 N5_17 1_555 1_555
C4_17 H3_17 1_555 1_555
H4_17 C4_17 1_555 1_555
N4_17 C1_17 1_555 1_555
C5_17 H5_17 1_555 1_555
H6_17 C5_17 1_555 1_555
H7_17 C5_17 1_555 1_555
C6_17 C4_17 1_555 1_555
H8_17 C6_17 1_555 1_555
H9_17 C6_17 1_555 1_555
N5_17 C2_17 1_555 1_555
C7_17 N2_17 1_555 1_555
C8_17 N1_17 1_555 1_555
H10_17 C8_17 1_555 1_555
S9_10 C2_17 1_555 1_555
Cu2_14 N5_17 1_555 1_555
N6_17 C9_17 1_555 1_555
N7_17 Cu1_17 1_555 1_555
N8_17 H11_17 1_555 1_555
H12_17 N8_17 1_555 1_555
C9_17 C11_17 1_555 1_555
C10_17 N9_17 1_555 1_555
C11_17 N10_17 1_555 1_555
C12_17 H13_17 1_555 1_555
H14_17 C12_17 1_555 1_555
N9_17 C9_17 1_555 1_555
C13_17 H15_17 1_555 1_555
H16_17 C13_17 1_555 1_555
H17_17 C13_17 1_555 1_555
C14_17 C12_17 1_555 1_555
H18_17 C14_17 1_555 1_555
H19_17 C14_17 1_555 1_555
N10_17 C10_17 1_555 1_555
C15_17 N7_17 1_555 1_555
C16_17 N6_17 1_555 1_555
H20_17 C16_17 1_555 1_555
S5_11 C10_17 1_555 1_555
Cu5_8 N10_17 1_555 1_555
N11_17 C17_17 1_555 1_555
N12_17 Cu1_17 1_555 1_555
N13_17 H21_17 1_555 1_555
H22_17 N13_17 1_555 1_555
C17_17 C19_17 1_555 1_555
C18_17 N14_17 1_555 1_555
C19_17 N15_17 1_555 1_555
C20_17 H23_17 1_555 1_555
H24_17 C20_17 1_555 1_555
N14_17 C17_17 1_555 1_555
C21_17 H25_17 1_555 1_555
H26_17 C21_17 1_555 1_555
H27_17 C21_17 1_555 1_555
C22_17 C20_17 1_555 1_555
H28_17 C22_17 1_555 1_555
H29_17 C22_17 1_555 1_555
N15_17 C18_17 1_555 1_555
C23_17 N12_17 1_555 1_555
C24_17 N11_17 1_555 1_555
H30_17 C24_17 1_555 1_555
S8_8 C18_17 1_555 1_555
Cu9_5 N15_17 1_555 1_555
S6_14 Cu2_14 1_555 1_555
N2_17 C8_17 1_555 1_555
N3_17 C7_17 1_555 1_555
C3_17 C7_17 1_555 1_555
C4_17 N4_17 1_555 1_555
C5_17 C6_17 1_555 1_555
N7_17 C16_17 1_555 1_555
N8_17 C15_17 1_555 1_555
C11_17 C15_17 1_555 1_555
C12_17 N9_17 1_555 1_555
C13_17 C14_17 1_555 1_555
N12_17 C24_17 1_555 1_555
N13_17 C23_17 1_555 1_555
C19_17 C23_17 1_555 1_555
C20_17 N14_17 1_555 1_555
C21_17 C22_17 1_555 1_555
Cu1_18 Cl1_18 1_555 1_555
N1_18 C1_18 1_555 1_555
N2_18 Cu1_18 1_555 1_555
N3_18 H1_18 1_555 1_555
H2_18 N3_18 1_555 1_555
C1_18 C3_18 1_555 1_555
C2_18 N4_18 1_555 1_555
C3_18 N5_18 1_555 1_555
C4_18 H3_18 1_555 1_555
H4_18 C4_18 1_555 1_555
N4_18 C1_18 1_555 1_555
C5_18 H5_18 1_555 1_555
H6_18 C5_18 1_555 1_555
H7_18 C5_18 1_555 1_555
C6_18 C4_18 1_555 1_555
H8_18 C6_18 1_555 1_555
H9_18 C6_18 1_555 1_555
N5_18 C2_18 1_555 1_555
C7_18 N2_18 1_555 1_555
C8_18 N1_18 1_555 1_555
H10_18 C8_18 1_555 1_555
S4 C2_18 1_555 1_555
Cu10_6 N5_18 1_555 1_555
N6_18 C9_18 1_555 1_555
N7_18 Cu1_18 1_555 1_555
N8_18 H11_18 1_555 1_555
H12_18 N8_18 1_555 1_555
C9_18 C11_18 1_555 1_555
C10_18 N9_18 1_555 1_555
C11_18 N10_18 1_555 1_555
C12_18 H13_18 1_555 1_555
H14_18 C12_18 1_555 1_555
N9_18 C9_18 1_555 1_555
C13_18 H15_18 1_555 1_555
H16_18 C13_18 1_555 1_555
H17_18 C13_18 1_555 1_555
C14_18 C12_18 1_555 1_555
H18_18 C14_18 1_555 1_555
H19_18 C14_18 1_555 1_555
N10_18 C10_18 1_555 1_555
C15_18 N7_18 1_555 1_555
C16_18 N6_18 1_555 1_555
H20_18 C16_18 1_555 1_555
S4_7 C10_18 1_555 1_555
Cu10_2 N10_18 1_555 1_555
N11_18 C17_18 1_555 1_555
N12_18 Cu1_18 1_555 1_555
N13_18 H21_18 1_555 1_555
H22_18 N13_18 1_555 1_555
C17_18 C19_18 1_555 1_555
C18_18 N14_18 1_555 1_555
C19_18 N15_18 1_555 1_555
C20_18 H23_18 1_555 1_555
H24_18 C20_18 1_555 1_555
N14_18 C17_18 1_555 1_555
C21_18 H25_18 1_555 1_555
H26_18 C21_18 1_555 1_555
H27_18 C21_18 1_555 1_555
C22_18 C20_18 1_555 1_555
H28_18 C22_18 1_555 1_555
H29_18 C22_18 1_555 1_555
N15_18 C18_18 1_555 1_555
C23_18 N12_18 1_555 1_555
C24_18 N11_18 1_555 1_555
H30_18 C24_18 1_555 1_555
S4_8 C18_18 1_555 1_555
Cu10_11 N15_18 1_555 1_555
N2_18 C8_18 1_555 1_555
N3_18 C7_18 1_555 1_555
C3_18 C7_18 1_555 1_555
C4_18 N4_18 1_555 1_555
C5_18 C6_18 1_555 1_555
N7_18 C16_18 1_555 1_555
N8_18 C15_18 1_555 1_555
C11_18 C15_18 1_555 1_555
C12_18 N9_18 1_555 1_555
C13_18 C14_18 1_555 1_555
N12_18 C24_18 1_555 1_555
N13_18 C23_18 1_555 1_555
C19_18 C23_18 1_555 1_555
C20_18 N14_18 1_555 1_555
C21_18 C22_18 1_555 1_555
Cu1_19 Cl1_19 1_555 1_555
N1_19 C1_19 1_555 1_555
N2_19 Cu1_19 1_555 1_555
N3_19 H1_19 1_555 1_555
H2_19 N3_19 1_555 1_555
C1_19 C3_19 1_555 1_555
C2_19 N4_19 1_555 1_555
C3_19 N5_19 1_555 1_555
C4_19 H3_19 1_555 1_555
H4_19 C4_19 1_555 1_555
N4_19 C1_19 1_555 1_555
C5_19 H5_19 1_555 1_555
H6_19 C5_19 1_555 1_555
H7_19 C5_19 1_555 1_555
C6_19 C4_19 1_555 1_555
H8_19 C6_19 1_555 1_555
H9_19 C6_19 1_555 1_555
N5_19 C2_19 1_555 1_555
C7_19 N2_19 1_555 1_555
C8_19 N1_19 1_555 1_555
H10_19 C8_19 1_555 1_555
S9_8 C2_19 1_555 1_555
Cu7_6 N5_19 1_555 1_555
N6_19 C9_19 1_555 1_555
N7_19 Cu1_19 1_555 1_555
N8_19 H11_19 1_555 1_555
H12_19 N8_19 1_555 1_555
C9_19 C11_19 1_555 1_555
C10_19 N9_19 1_555 1_555
C11_19 N10_19 1_555 1_555
C12_19 H13_19 1_555 1_555
H14_19 C12_19 1_555 1_555
N9_19 C9_19 1_555 1_555
C13_19 H15_19 1_555 1_555
H16_19 C13_19 1_555 1_555
H17_19 C13_19 1_555 1_555
C14_19 C12_19 1_555 1_555
H18_19 C14_19 1_555 1_555
H19_19 C14_19 1_555 1_555
N10_19 C10_19 1_555 1_555
C15_19 N7_19 1_555 1_555
C16_19 N6_19 1_555 1_555
H20_19 C16_19 1_555 1_555
S5_7 C10_19 1_555 1_555
Cu5_10 N10_19 1_555 1_555
N11_19 C17_19 1_555 1_555
N12_19 Cu1_19 1_555 1_555
N13_19 H21_19 1_555 1_555
H22_19 N13_19 1_555 1_555
C17_19 C19_19 1_555 1_555
C18_19 N14_19 1_555 1_555
C19_19 N15_19 1_555 1_555
C20_19 H23_19 1_555 1_555
H24_19 C20_19 1_555 1_555
N14_19 C17_19 1_555 1_555
C21_19 H25_19 1_555 1_555
H26_19 C21_19 1_555 1_555
H27_19 C21_19 1_555 1_555
C22_19 C20_19 1_555 1_555
H28_19 C22_19 1_555 1_555
H29_19 C22_19 1_555 1_555
N15_19 C18_19 1_555 1_555
C23_19 N12_19 1_555 1_555
C24_19 N11_19 1_555 1_555
H30_19 C24_19 1_555 1_555
S8_9 C18_19 1_555 1_555
Cu9_9 N15_19 1_555 1_555
N2_19 C8_19 1_555 1_555
N3_19 C7_19 1_555 1_555
C3_19 C7_19 1_555 1_555
C4_19 N4_19 1_555 1_555
C5_19 C6_19 1_555 1_555
N7_19 C16_19 1_555 1_555
N8_19 C15_19 1_555 1_555
C11_19 C15_19 1_555 1_555
C12_19 N9_19 1_555 1_555
C13_19 C14_19 1_555 1_555
N12_19 C24_19 1_555 1_555
N13_19 C23_19 1_555 1_555
C19_19 C23_19 1_555 1_555
C20_19 N14_19 1_555 1_555
C21_19 C22_19 1_555 1_555
Cu1_20 Cl1_20 1_555 1_555
N1_20 C1_20 1_555 1_555
N2_20 Cu1_20 1_555 1_555
N3_20 H1_20 1_555 1_555
H2_20 N3_20 1_555 1_555
C1_20 C3_20 1_555 1_555
C2_20 N4_20 1_555 1_555
C3_20 N5_20 1_555 1_555
C4_20 H3_20 1_555 1_555
H4_20 C4_20 1_555 1_555
N4_20 C1_20 1_555 1_555
C5_20 H5_20 1_555 1_555
H6_20 C5_20 1_555 1_555
H7_20 C5_20 1_555 1_555
C6_20 C4_20 1_555 1_555
H8_20 C6_20 1_555 1_555
H9_20 C6_20 1_555 1_555
N5_20 C2_20 1_555 1_555
C7_20 N2_20 1_555 1_555
C8_20 N1_20 1_555 1_555
H10_20 C8_20 1_555 1_555
S6_9 C2_20 1_555 1_555
Cu6_9 N5_20 1_555 1_555
N6_20 C9_20 1_555 1_555
N7_20 Cu1_20 1_555 1_555
N8_20 H11_20 1_555 1_555
H12_20 N8_20 1_555 1_555
C9_20 C11_20 1_555 1_555
C10_20 N9_20 1_555 1_555
C11_20 N10_20 1_555 1_555
C12_20 H13_20 1_555 1_555
H14_20 C12_20 1_555 1_555
N9_20 C9_20 1_555 1_555
C13_20 H15_20 1_555 1_555
H16_20 C13_20 1_555 1_555
H17_20 C13_20 1_555 1_555
C14_20 C12_20 1_555 1_555
H18_20 C14_20 1_555 1_555
H19_20 C14_20 1_555 1_555
N10_20 C10_20 1_555 1_555
C15_20 N7_20 1_555 1_555
C16_20 N6_20 1_555 1_555
H20_20 C16_20 1_555 1_555
S6_3 C10_20 1_555 1_555
Cu6_3 N10_20 1_555 1_555
N11_20 C17_20 1_555 1_555
N12_20 Cu1_20 1_555 1_555
N13_20 H21_20 1_555 1_555
H22_20 N13_20 1_555 1_555
C17_20 C19_20 1_555 1_555
C18_20 N14_20 1_555 1_555
C19_20 N15_20 1_555 1_555
C20_20 H23_20 1_555 1_555
H24_20 C20_20 1_555 1_555
N14_20 C17_20 1_555 1_555
C21_20 H25_20 1_555 1_555
H26_20 C21_20 1_555 1_555
H27_20 C21_20 1_555 1_555
C22_20 C20_20 1_555 1_555
H28_20 C22_20 1_555 1_555
H29_20 C22_20 1_555 1_555
N15_20 C18_20 1_555 1_555
C23_20 N12_20 1_555 1_555
C24_20 N11_20 1_555 1_555
H30_20 C24_20 1_555 1_555
S6_12 C18_20 1_555 1_555
Cu6_12 N15_20 1_555 1_555
N2_20 C8_20 1_555 1_555
N3_20 C7_20 1_555 1_555
C3_20 C7_20 1_555 1_555
C4_20 N4_20 1_555 1_555
C5_20 C6_20 1_555 1_555
N7_20 C16_20 1_555 1_555
N8_20 C15_20 1_555 1_555
C11_20 C15_20 1_555 1_555
C12_20 N9_20 1_555 1_555
C13_20 C14_20 1_555 1_555
N12_20 C24_20 1_555 1_555
N13_20 C23_20 1_555 1_555
C19_20 C23_20 1_555 1_555
C20_20 N14_20 1_555 1_555
C21_20 C22_20 1_555 1_555
S5_13 Cu10_13 1_555 1_555
S4_13 Cu5_13 1_555 1_555
Cu1_21 Cl1_21 1_555 1_555
N1_21 C1_21 1_555 1_555
N2_21 Cu1_21 1_555 1_555
N3_21 H1_21 1_555 1_555
H2_21 N3_21 1_555 1_555
C1_21 C3_21 1_555 1_555
C2_21 N4_21 1_555 1_555
C3_21 N5_21 1_555 1_555
C4_21 H3_21 1_555 1_555
H4_21 C4_21 1_555 1_555
N4_21 C1_21 1_555 1_555
C5_21 H5_21 1_555 1_555
H6_21 C5_21 1_555 1_555
H7_21 C5_21 1_555 1_555
C6_21 C4_21 1_555 1_555
H8_21 C6_21 1_555 1_555
H9_21 C6_21 1_555 1_555
N5_21 C2_21 1_555 1_555
C7_21 N2_21 1_555 1_555
C8_21 N1_21 1_555 1_555
H10_21 C8_21 1_555 1_555
S6_11 C2_21 1_555 1_555
Cu6_11 N5_21 1_555 1_555
N6_21 C9_21 1_555 1_555
N7_21 Cu1_21 1_555 1_555
N8_21 H11_21 1_555 1_555
H12_21 N8_21 1_555 1_555
C9_21 C11_21 1_555 1_555
C10_21 N9_21 1_555 1_555
C11_21 N10_21 1_555 1_555
C12_21 H13_21 1_555 1_555
H14_21 C12_21 1_555 1_555
N9_21 C9_21 1_555 1_555
C13_21 H15_21 1_555 1_555
H16_21 C13_21 1_555 1_555
H17_21 C13_21 1_555 1_555
C14_21 C12_21 1_555 1_555
H18_21 C14_21 1_555 1_555
H19_21 C14_21 1_555 1_555
N10_21 C10_21 1_555 1_555
C15_21 N7_21 1_555 1_555
C16_21 N6_21 1_555 1_555
H20_21 C16_21 1_555 1_555
S6_4 C10_21 1_555 1_555
Cu6_4 N10_21 1_555 1_555
N11_21 C17_21 1_555 1_555
N12_21 Cu1_21 1_555 1_555
N13_21 H21_21 1_555 1_555
H22_21 N13_21 1_555 1_555
C17_21 C19_21 1_555 1_555
C18_21 N14_21 1_555 1_555
C19_21 N15_21 1_555 1_555
C20_21 H23_21 1_555 1_555
H24_21 C20_21 1_555 1_555
N14_21 C17_21 1_555 1_555
C21_21 H25_21 1_555 1_555
H26_21 C21_21 1_555 1_555
H27_21 C21_21 1_555 1_555
C22_21 C20_21 1_555 1_555
H28_21 C22_21 1_555 1_555
H29_21 C22_21 1_555 1_555
N15_21 C18_21 1_555 1_555
C23_21 N12_21 1_555 1_555
C24_21 N11_21 1_555 1_555
H30_21 C24_21 1_555 1_555
S6_8 C18_21 1_555 1_555
Cu6_8 N15_21 1_555 1_555
N2_21 C8_21 1_555 1_555
N3_21 C7_21 1_555 1_555
C3_21 C7_21 1_555 1_555
C4_21 N4_21 1_555 1_555
C5_21 C6_21 1_555 1_555
N7_21 C16_21 1_555 1_555
N8_21 C15_21 1_555 1_555
C11_21 C15_21 1_555 1_555
C12_21 N9_21 1_555 1_555
C13_21 C14_21 1_555 1_555
N12_21 C24_21 1_555 1_555
N13_21 C23_21 1_555 1_555
C19_21 C23_21 1_555 1_555
C20_21 N14_21 1_555 1_555
C21_21 C22_21 1_555 1_555
S9_13 Cu9_13 1_555 1_555
S4_14 Cu5_14 1_555 1_555
S5_14 Cu10_14 1_555 1_555
Cu1_22 Cl1_22 1_555 1_555
N1_22 C1_22 1_555 1_555
N2_22 Cu1_22 1_555 1_555
N3_22 H1_22 1_555 1_555
H2_22 N3_22 1_555 1_555
C1_22 C3_22 1_555 1_555
C2_22 N4_22 1_555 1_555
C3_22 N5_22 1_555 1_555
C4_22 H3_22 1_555 1_555
H4_22 C4_22 1_555 1_555
N4_22 C1_22 1_555 1_555
C5_22 H5_22 1_555 1_555
H6_22 C5_22 1_555 1_555
H7_22 C5_22 1_555 1_555
C6_22 C4_22 1_555 1_555
H8_22 C6_22 1_555 1_555
H9_22 C6_22 1_555 1_555
N5_22 C2_22 1_555 1_555
C7_22 N2_22 1_555 1_555
C8_22 N1_22 1_555 1_555
H10_22 C8_22 1_555 1_555
S6_5 C2_22 1_555 1_555
Cu6_5 N5_22 1_555 1_555
N6_22 C9_22 1_555 1_555
N7_22 Cu1_22 1_555 1_555
N8_22 H11_22 1_555 1_555
H12_22 N8_22 1_555 1_555
C9_22 C11_22 1_555 1_555
C10_22 N9_22 1_555 1_555
C11_22 N10_22 1_555 1_555
C12_22 H13_22 1_555 1_555
H14_22 C12_22 1_555 1_555
N9_22 C9_22 1_555 1_555
C13_22 H15_22 1_555 1_555
H16_22 C13_22 1_555 1_555
H17_22 C13_22 1_555 1_555
C14_22 C12_22 1_555 1_555
H18_22 C14_22 1_555 1_555
H19_22 C14_22 1_555 1_555
N10_22 C10_22 1_555 1_555
C15_22 N7_22 1_555 1_555
C16_22 N6_22 1_555 1_555
H20_22 C16_22 1_555 1_555
S6 C10_22 1_555 1_555
Cu6 N10_22 1_555 1_555
N11_22 C17_22 1_555 1_555
N12_22 Cu1_22 1_555 1_555
N13_22 H21_22 1_555 1_555
H22_22 N13_22 1_555 1_555
C17_22 C19_22 1_555 1_555
C18_22 N14_22 1_555 1_555
C19_22 N15_22 1_555 1_555
C20_22 H23_22 1_555 1_555
H24_22 C20_22 1_555 1_555
N14_22 C17_22 1_555 1_555
C21_22 H25_22 1_555 1_555
H26_22 C21_22 1_555 1_555
H27_22 C21_22 1_555 1_555
C22_22 C20_22 1_555 1_555
H28_22 C22_22 1_555 1_555
H29_22 C22_22 1_555 1_555
N15_22 C18_22 1_555 1_555
C23_22 N12_22 1_555 1_555
C24_22 N11_22 1_555 1_555
H30_22 C24_22 1_555 1_555
S6_6 C18_22 1_555 1_555
Cu6_6 N15_22 1_555 1_555
N2_22 C8_22 1_555 1_555
N3_22 C7_22 1_555 1_555
C3_22 C7_22 1_555 1_555
C4_22 N4_22 1_555 1_555
C5_22 C6_22 1_555 1_555
N7_22 C16_22 1_555 1_555
N8_22 C15_22 1_555 1_555
C11_22 C15_22 1_555 1_555
C12_22 N9_22 1_555 1_555
C13_22 C14_22 1_555 1_555
N12_22 C24_22 1_555 1_555
N13_22 C23_22 1_555 1_555
C19_22 C23_22 1_555 1_555
C20_22 N14_22 1_555 1_555
C21_22 C22_22 1_555 1_555
Cu1_23 Cl1_23 1_555 1_555
N1_23 C1_23 1_555 1_555
N2_23 Cu1_23 1_555 1_555
N3_23 H1_23 1_555 1_555
H2_23 N3_23 1_555 1_555
C1_23 C3_23 1_555 1_555
C2_23 N4_23 1_555 1_555
C3_23 N5_23 1_555 1_555
C4_23 H3_23 1_555 1_555
H4_23 C4_23 1_555 1_555
N4_23 C1_23 1_555 1_555
C5_23 H5_23 1_555 1_555
H6_23 C5_23 1_555 1_555
H7_23 C5_23 1_555 1_555
C6_23 C4_23 1_555 1_555
H8_23 C6_23 1_555 1_555
H9_23 C6_23 1_555 1_555
N5_23 C2_23 1_555 1_555
C7_23 N2_23 1_555 1_555
C8_23 N1_23 1_555 1_555
H10_23 C8_23 1_555 1_555
S6_7 C2_23 1_555 1_555
Cu6_7 N5_23 1_555 1_555
N6_23 C9_23 1_555 1_555
N7_23 Cu1_23 1_555 1_555
N8_23 H11_23 1_555 1_555
H12_23 N8_23 1_555 1_555
C9_23 C11_23 1_555 1_555
C10_23 N9_23 1_555 1_555
C11_23 N10_23 1_555 1_555
C12_23 H13_23 1_555 1_555
H14_23 C12_23 1_555 1_555
N9_23 C9_23 1_555 1_555
C13_23 H15_23 1_555 1_555
H16_23 C13_23 1_555 1_555
H17_23 C13_23 1_555 1_555
C14_23 C12_23 1_555 1_555
H18_23 C14_23 1_555 1_555
H19_23 C14_23 1_555 1_555
N10_23 C10_23 1_555 1_555
C15_23 N7_23 1_555 1_555
C16_23 N6_23 1_555 1_555
H20_23 C16_23 1_555 1_555
S6_2 C10_23 1_555 1_555
Cu6_2 N10_23 1_555 1_555
N11_23 C17_23 1_555 1_555
N12_23 Cu1_23 1_555 1_555
N13_23 H21_23 1_555 1_555
H22_23 N13_23 1_555 1_555
C17_23 C19_23 1_555 1_555
C18_23 N14_23 1_555 1_555
C19_23 N15_23 1_555 1_555
C20_23 H23_23 1_555 1_555
H24_23 C20_23 1_555 1_555
N14_23 C17_23 1_555 1_555
C21_23 H25_23 1_555 1_555
H26_23 C21_23 1_555 1_555
H27_23 C21_23 1_555 1_555
C22_23 C20_23 1_555 1_555
H28_23 C22_23 1_555 1_555
H29_23 C22_23 1_555 1_555
N15_23 C18_23 1_555 1_555
C23_23 N12_23 1_555 1_555
C24_23 N11_23 1_555 1_555
H30_23 C24_23 1_555 1_555
S6_10 C18_23 1_555 1_555
Cu6_10 N15_23 1_555 1_555
N2_23 C8_23 1_555 1_555
N3_23 C7_23 1_555 1_555
C3_23 C7_23 1_555 1_555
C4_23 N4_23 1_555 1_555
C5_23 C6_23 1_555 1_555
N7_23 C16_23 1_555 1_555
N8_23 C15_23 1_555 1_555
C11_23 C15_23 1_555 1_555
C12_23 N9_23 1_555 1_555
C13_23 C14_23 1_555 1_555
N12_23 C24_23 1_555 1_555
N13_23 C23_23 1_555 1_555
C19_23 C23_23 1_555 1_555
C20_23 N14_23 1_555 1_555
C21_23 C22_23 1_555 1_555
S9_14 Cu9_14 1_555 1_555
Cu1_24 Cl1_24 1_555 1_555
N1_24 C1_24 1_555 1_555
N2_24 Cu1_24 1_555 1_555
N3_24 H1_24 1_555 1_555
H2_24 N3_24 1_555 1_555
C1_24 C3_24 1_555 1_555
C2_24 N4_24 1_555 1_555
C3_24 N5_24 1_555 1_555
C4_24 H3_24 1_555 1_555
H4_24 C4_24 1_555 1_555
N4_24 C1_24 1_555 1_555
C5_24 H5_24 1_555 1_555
H6_24 C5_24 1_555 1_555
H7_24 C5_24 1_555 1_555
C6_24 C4_24 1_555 1_555
H8_24 C6_24 1_555 1_555
H9_24 C6_24 1_555 1_555
N5_24 C2_24 1_555 1_555
C7_24 N2_24 1_555 1_555
C8_24 N1_24 1_555 1_555
H10_24 C8_24 1_555 1_555
S9_4 C2_24 1_555 1_555
Cu6_13 N5_24 1_555 1_555
N6_24 C9_24 1_555 1_555
N7_24 Cu1_24 1_555 1_555
N8_24 H11_24 1_555 1_555
H12_24 N8_24 1_555 1_555
C9_24 C11_24 1_555 1_555
C10_24 N9_24 1_555 1_555
C11_24 N10_24 1_555 1_555
C12_24 H13_24 1_555 1_555
H14_24 C12_24 1_555 1_555
N9_24 C9_24 1_555 1_555
C13_24 H15_24 1_555 1_555
H16_24 C13_24 1_555 1_555
H17_24 C13_24 1_555 1_555
C14_24 C12_24 1_555 1_555
H18_24 C14_24 1_555 1_555
H19_24 C14_24 1_555 1_555
N10_24 C10_24 1_555 1_555
C15_24 N7_24 1_555 1_555
C16_24 N6_24 1_555 1_555
H20_24 C16_24 1_555 1_555
S5_6 C10_24 1_555 1_555
Cu5 N10_24 1_555 1_555
N11_24 C17_24 1_555 1_555
N12_24 Cu1_24 1_555 1_555
N13_24 H21_24 1_555 1_555
H22_24 N13_24 1_555 1_555
C17_24 C19_24 1_555 1_555
C18_24 N14_24 1_555 1_555
C19_24 N15_24 1_555 1_555
C20_24 H23_24 1_555 1_555
H24_24 C20_24 1_555 1_555
N14_24 C17_24 1_555 1_555
C21_24 H25_24 1_555 1_555
H26_24 C21_24 1_555 1_555
H27_24 C21_24 1_555 1_555
C22_24 C20_24 1_555 1_555
H28_24 C22_24 1_555 1_555
H29_24 C22_24 1_555 1_555
N15_24 C18_24 1_555 1_555
C23_24 N12_24 1_555 1_555
C24_24 N11_24 1_555 1_555
H30_24 C24_24 1_555 1_555
S6_14 C18_24 1_555 1_555
Cu9_10 N15_24 1_555 1_555
N2_24 C8_24 1_555 1_555
N3_24 C7_24 1_555 1_555
C3_24 C7_24 1_555 1_555
C4_24 N4_24 1_555 1_555
C5_24 C6_24 1_555 1_555
N7_24 C16_24 1_555 1_555
N8_24 C15_24 1_555 1_555
C11_24 C15_24 1_555 1_555
C12_24 N9_24 1_555 1_555
C13_24 C14_24 1_555 1_555
N12_24 C24_24 1_555 1_555
N13_24 C23_24 1_555 1_555
C19_24 C23_24 1_555 1_555
C20_24 N14_24 1_555 1_555
C21_24 C22_24 1_555 1_555
Cu1_25 Cl1_25 1_555 1_555
N1_25 C1_25 1_555 1_555
N2_25 Cu1_25 1_555 1_555
N3_25 H1_25 1_555 1_555
H2_25 N3_25 1_555 1_555
C1_25 C3_25 1_555 1_555
C2_25 N4_25 1_555 1_555
C3_25 N5_25 1_555 1_555
C4_25 H3_25 1_555 1_555
H4_25 C4_25 1_555 1_555
N4_25 C1_25 1_555 1_555
C5_25 H5_25 1_555 1_555
H6_25 C5_25 1_555 1_555
H7_25 C5_25 1_555 1_555
C6_25 C4_25 1_555 1_555
H8_25 C6_25 1_555 1_555
H9_25 C6_25 1_555 1_555
N5_25 C2_25 1_555 1_555
C7_25 N2_25 1_555 1_555
C8_25 N1_25 1_555 1_555
H10_25 C8_25 1_555 1_555
S4_6 C2_25 1_555 1_555
Cu10_5 N5_25 1_555 1_555
N6_25 C9_25 1_555 1_555
N7_25 Cu1_25 1_555 1_555
N8_25 H11_25 1_555 1_555
H12_25 N8_25 1_555 1_555
C9_25 C11_25 1_555 1_555
C10_25 N9_25 1_555 1_555
C11_25 N10_25 1_555 1_555
C12_25 H13_25 1_555 1_555
H14_25 C12_25 1_555 1_555
N9_25 C9_25 1_555 1_555
C13_25 H15_25 1_555 1_555
H16_25 C13_25 1_555 1_555
H17_25 C13_25 1_555 1_555
C14_25 C12_25 1_555 1_555
H18_25 C14_25 1_555 1_555
H19_25 C14_25 1_555 1_555
N10_25 C10_25 1_555 1_555
C15_25 N7_25 1_555 1_555
C16_25 N6_25 1_555 1_555
H20_25 C16_25 1_555 1_555
S4_4 C10_25 1_555 1_555
Cu10_8 N10_25 1_555 1_555
N11_25 C17_25 1_555 1_555
N12_25 Cu1_25 1_555 1_555
N13_25 H21_25 1_555 1_555
H22_25 N13_25 1_555 1_555
C17_25 C19_25 1_555 1_555
C18_25 N14_25 1_555 1_555
C19_25 N15_25 1_555 1_555
C20_25 H23_25 1_555 1_555
H24_25 C20_25 1_555 1_555
N14_25 C17_25 1_555 1_555
C21_25 H25_25 1_555 1_555
H26_25 C21_25 1_555 1_555
H27_25 C21_25 1_555 1_555
C22_25 C20_25 1_555 1_555
H28_25 C22_25 1_555 1_555
H29_25 C22_25 1_555 1_555
N15_25 C18_25 1_555 1_555
C23_25 N12_25 1_555 1_555
C24_25 N11_25 1_555 1_555
H30_25 C24_25 1_555 1_555
S4_9 C18_25 1_555 1_555
Cu10_3 N15_25 1_555 1_555
N2_25 C8_25 1_555 1_555
N3_25 C7_25 1_555 1_555
C3_25 C7_25 1_555 1_555
C4_25 N4_25 1_555 1_555
C5_25 C6_25 1_555 1_555
N7_25 C16_25 1_555 1_555
N8_25 C15_25 1_555 1_555
C11_25 C15_25 1_555 1_555
C12_25 N9_25 1_555 1_555
C13_25 C14_25 1_555 1_555
N12_25 C24_25 1_555 1_555
N13_25 C23_25 1_555 1_555
C19_25 C23_25 1_555 1_555
C20_25 N14_25 1_555 1_555
C21_25 C22_25 1_555 1_555
Cu1_26 Cl1_26 1_555 1_555
N1_26 C1_26 1_555 1_555
N2_26 Cu1_26 1_555 1_555
N3_26 H1_26 1_555 1_555
H2_26 N3_26 1_555 1_555
C1_26 C3_26 1_555 1_555
C2_26 N4_26 1_555 1_555
C3_26 N5_26 1_555 1_555
C4_26 H3_26 1_555 1_555
H4_26 C4_26 1_555 1_555
N4_26 C1_26 1_555 1_555
C5_26 H5_26 1_555 1_555
H6_26 C5_26 1_555 1_555
H7_26 C5_26 1_555 1_555
C6_26 C4_26 1_555 1_555
H8_26 C6_26 1_555 1_555
H9_26 C6_26 1_555 1_555
N5_26 C2_26 1_555 1_555
C7_26 N2_26 1_555 1_555
C8_26 N1_26 1_555 1_555
H10_26 C8_26 1_555 1_555
S5_13 C2_26 1_555 1_555
Cu9_3 N5_26 1_555 1_555
N6_26 C9_26 1_555 1_555
N7_26 Cu1_26 1_555 1_555
N8_26 H11_26 1_555 1_555
H12_26 N8_26 1_555 1_555
C9_26 C11_26 1_555 1_555
C10_26 N9_26 1_555 1_555
C11_26 N10_26 1_555 1_555
C12_26 H13_26 1_555 1_555
H14_26 C12_26 1_555 1_555
N9_26 C9_26 1_555 1_555
C13_26 H15_26 1_555 1_555
H16_26 C13_26 1_555 1_555
H17_26 C13_26 1_555 1_555
C14_26 C12_26 1_555 1_555
H18_26 C14_26 1_555 1_555
H19_26 C14_26 1_555 1_555
N10_26 C10_26 1_555 1_555
C15_26 N7_26 1_555 1_555
C16_26 N6_26 1_555 1_555
H20_26 C16_26 1_555 1_555
S9_7 C10_26 1_555 1_555
Cu9_14 N10_26 1_555 1_555
N11_26 C17_26 1_555 1_555
N12_26 Cu1_26 1_555 1_555
N13_26 H21_26 1_555 1_555
H22_26 N13_26 1_555 1_555
C17_26 C19_26 1_555 1_555
C18_26 N14_26 1_555 1_555
C19_26 N15_26 1_555 1_555
C20_26 H23_26 1_555 1_555
H24_26 C20_26 1_555 1_555
N14_26 C17_26 1_555 1_555
C21_26 H25_26 1_555 1_555
H26_26 C21_26 1_555 1_555
H27_26 C21_26 1_555 1_555
C22_26 C20_26 1_555 1_555
H28_26 C22_26 1_555 1_555
H29_26 C22_26 1_555 1_555
N15_26 C18_26 1_555 1_555
C23_26 N12_26 1_555 1_555
C24_26 N11_26 1_555 1_555
H30_26 C24_26 1_555 1_555
S5 C18_26 1_555 1_555
Cu5_5 N15_26 1_555 1_555
N2_26 C8_26 1_555 1_555
N3_26 C7_26 1_555 1_555
C3_26 C7_26 1_555 1_555
C4_26 N4_26 1_555 1_555
C5_26 C6_26 1_555 1_555
N7_26 C16_26 1_555 1_555
N8_26 C15_26 1_555 1_555
C11_26 C15_26 1_555 1_555
C12_26 N9_26 1_555 1_555
C13_26 C14_26 1_555 1_555
N12_26 C24_26 1_555 1_555
N13_26 C23_26 1_555 1_555
C19_26 C23_26 1_555 1_555
C20_26 N14_26 1_555 1_555
C21_26 C22_26 1_555 1_555
Cu1_27 Cl1_27 1_555 1_555
N1_27 C1_27 1_555 1_555
N2_27 Cu1_27 1_555 1_555
N3_27 H1_27 1_555 1_555
H2_27 N3_27 1_555 1_555
C1_27 C3_27 1_555 1_555
C2_27 N4_27 1_555 1_555
C3_27 N5_27 1_555 1_555
C4_27 H3_27 1_555 1_555
H4_27 C4_27 1_555 1_555
N4_27 C1_27 1_555 1_555
C5_27 H5_27 1_555 1_555
H6_27 C5_27 1_555 1_555
H7_27 C5_27 1_555 1_555
C6_27 C4_27 1_555 1_555
H8_27 C6_27 1_555 1_555
H9_27 C6_27 1_555 1_555
N5_27 C2_27 1_555 1_555
C7_27 N2_27 1_555 1_555
C8_27 N1_27 1_555 1_555
H10_27 C8_27 1_555 1_555
S5_9 C2_27 1_555 1_555
Cu5_12 N5_27 1_555 1_555
N6_27 C9_27 1_555 1_555
N7_27 Cu1_27 1_555 1_555
N8_27 H11_27 1_555 1_555
H12_27 N8_27 1_555 1_555
C9_27 C11_27 1_555 1_555
C10_27 N9_27 1_555 1_555
C11_27 N10_27 1_555 1_555
C12_27 H13_27 1_555 1_555
H14_27 C12_27 1_555 1_555
N9_27 C9_27 1_555 1_555
C13_27 H15_27 1_555 1_555
H16_27 C13_27 1_555 1_555
H17_27 C13_27 1_555 1_555
C14_27 C12_27 1_555 1_555
H18_27 C14_27 1_555 1_555
H19_27 C14_27 1_555 1_555
N10_27 C10_27 1_555 1_555
C15_27 N7_27 1_555 1_555
C16_27 N6_27 1_555 1_555
H20_27 C16_27 1_555 1_555
S9_14 C10_27 1_555 1_555
Cu9_7 N10_27 1_555 1_555
N11_27 C17_27 1_555 1_555
N12_27 Cu1_27 1_555 1_555
N13_27 H21_27 1_555 1_555
H22_27 N13_27 1_555 1_555
C17_27 C19_27 1_555 1_555
C18_27 N14_27 1_555 1_555
C19_27 N15_27 1_555 1_555
C20_27 H23_27 1_555 1_555
H24_27 C20_27 1_555 1_555
N14_27 C17_27 1_555 1_555
C21_27 H25_27 1_555 1_555
H26_27 C21_27 1_555 1_555
H27_27 C21_27 1_555 1_555
C22_27 C20_27 1_555 1_555
H28_27 C22_27 1_555 1_555
H29_27 C22_27 1_555 1_555
N15_27 C18_27 1_555 1_555
C23_27 N12_27 1_555 1_555
C24_27 N11_27 1_555 1_555
H30_27 C24_27 1_555 1_555
S9_6 C18_27 1_555 1_555
Cu5_14 N15_27 1_555 1_555
N2_27 C8_27 1_555 1_555
N3_27 C7_27 1_555 1_555
C3_27 C7_27 1_555 1_555
C4_27 N4_27 1_555 1_555
C5_27 C6_27 1_555 1_555
N7_27 C16_27 1_555 1_555
N8_27 C15_27 1_555 1_555
C11_27 C15_27 1_555 1_555
C12_27 N9_27 1_555 1_555
C13_27 C14_27 1_555 1_555
N12_27 C24_27 1_555 1_555
N13_27 C23_27 1_555 1_555
C19_27 C23_27 1_555 1_555
C20_27 N14_27 1_555 1_555
C21_27 C22_27 1_555 1_555
Cu1_28 Cl1_28 1_555 1_555
N1_28 C1_28 1_555 1_555
N2_28 Cu1_28 1_555 1_555
N3_28 H1_28 1_555 1_555
H2_28 N3_28 1_555 1_555
C1_28 C3_28 1_555 1_555
C2_28 N4_28 1_555 1_555
C3_28 N5_28 1_555 1_555
C4_28 H3_28 1_555 1_555
H4_28 C4_28 1_555 1_555
N4_28 C1_28 1_555 1_555
C5_28 H5_28 1_555 1_555
H6_28 C5_28 1_555 1_555
H7_28 C5_28 1_555 1_555
C6_28 C4_28 1_555 1_555
H8_28 C6_28 1_555 1_555
H9_28 C6_28 1_555 1_555
N5_28 C2_28 1_555 1_555
C7_28 N2_28 1_555 1_555
C8_28 N1_28 1_555 1_555
H10_28 C8_28 1_555 1_555
S4_12 C2_28 1_555 1_555
Cu10_9 N5_28 1_555 1_555
N6_28 C9_28 1_555 1_555
N7_28 Cu1_28 1_555 1_555
N8_28 H11_28 1_555 1_555
H12_28 N8_28 1_555 1_555
C9_28 C11_28 1_555 1_555
C10_28 N9_28 1_555 1_555
C11_28 N10_28 1_555 1_555
C12_28 H13_28 1_555 1_555
H14_28 C12_28 1_555 1_555
N9_28 C9_28 1_555 1_555
C13_28 H15_28 1_555 1_555
H16_28 C13_28 1_555 1_555
H17_28 C13_28 1_555 1_555
C14_28 C12_28 1_555 1_555
H18_28 C14_28 1_555 1_555
H19_28 C14_28 1_555 1_555
N10_28 C10_28 1_555 1_555
C15_28 N7_28 1_555 1_555
C16_28 N6_28 1_555 1_555
H20_28 C16_28 1_555 1_555
S4_2 C10_28 1_555 1_555
Cu10_10 N10_28 1_555 1_555
N11_28 C17_28 1_555 1_555
N12_28 Cu1_28 1_555 1_555
N13_28 H21_28 1_555 1_555
H22_28 N13_28 1_555 1_555
C17_28 C19_28 1_555 1_555
C18_28 N14_28 1_555 1_555
C19_28 N15_28 1_555 1_555
C20_28 H23_28 1_555 1_555
H24_28 C20_28 1_555 1_555
N14_28 C17_28 1_555 1_555
C21_28 H25_28 1_555 1_555
H26_28 C21_28 1_555 1_555
H27_28 C21_28 1_555 1_555
C22_28 C20_28 1_555 1_555
H28_28 C22_28 1_555 1_555
H29_28 C22_28 1_555 1_555
N15_28 C18_28 1_555 1_555
C23_28 N12_28 1_555 1_555
C24_28 N11_28 1_555 1_555
H30_28 C24_28 1_555 1_555
S4_5 C18_28 1_555 1_555
Cu10 N15_28 1_555 1_555
N2_28 C8_28 1_555 1_555
N3_28 C7_28 1_555 1_555
C3_28 C7_28 1_555 1_555
C4_28 N4_28 1_555 1_555
C5_28 C6_28 1_555 1_555
N7_28 C16_28 1_555 1_555
N8_28 C15_28 1_555 1_555
C11_28 C15_28 1_555 1_555
C12_28 N9_28 1_555 1_555
C13_28 C14_28 1_555 1_555
N12_28 C24_28 1_555 1_555
N13_28 C23_28 1_555 1_555
C19_28 C23_28 1_555 1_555
C20_28 N14_28 1_555 1_555
C21_28 C22_28 1_555 1_555
Cu1_29 Cl1_29 1_555 1_555
N1_29 C1_29 1_555 1_555
N2_29 Cu1_29 1_555 1_555
N3_29 H1_29 1_555 1_555
H2_29 N3_29 1_555 1_555
C1_29 C3_29 1_555 1_555
C2_29 N4_29 1_555 1_555
C3_29 N5_29 1_555 1_555
C4_29 H3_29 1_555 1_555
H4_29 C4_29 1_555 1_555
N4_29 C1_29 1_555 1_555
C5_29 H5_29 1_555 1_555
H6_29 C5_29 1_555 1_555
H7_29 C5_29 1_555 1_555
C6_29 C4_29 1_555 1_555
H8_29 C6_29 1_555 1_555
H9_29 C6_29 1_555 1_555
N5_29 C2_29 1_555 1_555
C7_29 N2_29 1_555 1_555
C8_29 N1_29 1_555 1_555
H10_29 C8_29 1_555 1_555
S4_13 C2_29 1_555 1_555
Cu9_12 N5_29 1_555 1_555
N6_29 C9_29 1_555 1_555
N7_29 Cu1_29 1_555 1_555
N8_29 H11_29 1_555 1_555
H12_29 N8_29 1_555 1_555
C9_29 C11_29 1_555 1_555
C10_29 N9_29 1_555 1_555
C11_29 N10_29 1_555 1_555
C12_29 H13_29 1_555 1_555
H14_29 C12_29 1_555 1_555
N9_29 C9_29 1_555 1_555
C13_29 H15_29 1_555 1_555
H16_29 C13_29 1_555 1_555
H17_29 C13_29 1_555 1_555
C14_29 C12_29 1_555 1_555
H18_29 C14_29 1_555 1_555
H19_29 C14_29 1_555 1_555
N10_29 C10_29 1_555 1_555
C15_29 N7_29 1_555 1_555
C16_29 N6_29 1_555 1_555
H20_29 C16_29 1_555 1_555
S9 C10_29 1_555 1_555
Cu10_14 N10_29 1_555 1_555
N11_29 C17_29 1_555 1_555
N12_29 Cu1_29 1_555 1_555
N13_29 H21_29 1_555 1_555
H22_29 N13_29 1_555 1_555
C17_29 C19_29 1_555 1_555
C18_29 N14_29 1_555 1_555
C19_29 N15_29 1_555 1_555
C20_29 H23_29 1_555 1_555
H24_29 C20_29 1_555 1_555
N14_29 C17_29 1_555 1_555
C21_29 H25_29 1_555 1_555
H26_29 C21_29 1_555 1_555
H27_29 C21_29 1_555 1_555
C22_29 C20_29 1_555 1_555
H28_29 C22_29 1_555 1_555
H29_29 C22_29 1_555 1_555
N15_29 C18_29 1_555 1_555
C23_29 N12_29 1_555 1_555
C24_29 N11_29 1_555 1_555
H30_29 C24_29 1_555 1_555
S5_8 C18_29 1_555 1_555
Cu5_4 N15_29 1_555 1_555
N2_29 C8_29 1_555 1_555
N3_29 C7_29 1_555 1_555
C3_29 C7_29 1_555 1_555
C4_29 N4_29 1_555 1_555
C5_29 C6_29 1_555 1_555
N7_29 C16_29 1_555 1_555
N8_29 C15_29 1_555 1_555
C11_29 C15_29 1_555 1_555
C12_29 N9_29 1_555 1_555
C13_29 C14_29 1_555 1_555
N12_29 C24_29 1_555 1_555
N13_29 C23_29 1_555 1_555
C19_29 C23_29 1_555 1_555
C20_29 N14_29 1_555 1_555
C21_29 C22_29 1_555 1_555
Cu1_30 Cl1_30 1_555 1_555
N1_30 C1_30 1_555 1_555
N2_30 Cu1_30 1_555 1_555
N3_30 H1_30 1_555 1_555
H2_30 N3_30 1_555 1_555
C1_30 C3_30 1_555 1_555
C2_30 N4_30 1_555 1_555
C3_30 N5_30 1_555 1_555
C4_30 H3_30 1_555 1_555
H4_30 C4_30 1_555 1_555
N4_30 C1_30 1_555 1_555
C5_30 H5_30 1_555 1_555
H6_30 C5_30 1_555 1_555
H7_30 C5_30 1_555 1_555
C6_30 C4_30 1_555 1_555
H8_30 C6_30 1_555 1_555
H9_30 C6_30 1_555 1_555
N5_30 C2_30 1_555 1_555
C7_30 N2_30 1_555 1_555
C8_30 N1_30 1_555 1_555
H10_30 C8_30 1_555 1_555
S9_11 C2_30 1_555 1_555
Cu9_13 N5_30 1_555 1_555
N6_30 C9_30 1_555 1_555
N7_30 Cu1_30 1_555 1_555
N8_30 H11_30 1_555 1_555
H12_30 N8_30 1_555 1_555
C9_30 C11_30 1_555 1_555
C10_30 N9_30 1_555 1_555
C11_30 N10_30 1_555 1_555
C12_30 H13_30 1_555 1_555
H14_30 C12_30 1_555 1_555
N9_30 C9_30 1_555 1_555
C13_30 H15_30 1_555 1_555
H16_30 C13_30 1_555 1_555
H17_30 C13_30 1_555 1_555
C14_30 C12_30 1_555 1_555
H18_30 C14_30 1_555 1_555
H19_30 C14_30 1_555 1_555
N10_30 C10_30 1_555 1_555
C15_30 N7_30 1_555 1_555
C16_30 N6_30 1_555 1_555
H20_30 C16_30 1_555 1_555
S5_3 C10_30 1_555 1_555
Cu5_9 N10_30 1_555 1_555
N11_30 C17_30 1_555 1_555
N12_30 Cu1_30 1_555 1_555
N13_30 H21_30 1_555 1_555
H22_30 N13_30 1_555 1_555
C17_30 C19_30 1_555 1_555
C18_30 N14_30 1_555 1_555
C19_30 N15_30 1_555 1_555
C20_30 H23_30 1_555 1_555
H24_30 C20_30 1_555 1_555
N14_30 C17_30 1_555 1_555
C21_30 H25_30 1_555 1_555
H26_30 C21_30 1_555 1_555
H27_30 C21_30 1_555 1_555
C22_30 C20_30 1_555 1_555
H28_30 C22_30 1_555 1_555
H29_30 C22_30 1_555 1_555
N15_30 C18_30 1_555 1_555
C23_30 N12_30 1_555 1_555
C24_30 N11_30 1_555 1_555
H30_30 C24_30 1_555 1_555
S5_14 C18_30 1_555 1_555
Cu9 N15_30 1_555 1_555
N2_30 C8_30 1_555 1_555
N3_30 C7_30 1_555 1_555
C3_30 C7_30 1_555 1_555
C4_30 N4_30 1_555 1_555
C5_30 C6_30 1_555 1_555
N7_30 C16_30 1_555 1_555
N8_30 C15_30 1_555 1_555
C11_30 C15_30 1_555 1_555
C12_30 N9_30 1_555 1_555
C13_30 C14_30 1_555 1_555
N12_30 C24_30 1_555 1_555
N13_30 C23_30 1_555 1_555
C19_30 C23_30 1_555 1_555
C20_30 N14_30 1_555 1_555
C21_30 C22_30 1_555 1_555
Cu1_31 Cl1_31 1_555 1_555
N1_31 C1_31 1_555 1_555
N2_31 Cu1_31 1_555 1_555
N3_31 H1_31 1_555 1_555
H2_31 N3_31 1_555 1_555
C1_31 C3_31 1_555 1_555
C2_31 N4_31 1_555 1_555
C3_31 N5_31 1_555 1_555
C4_31 H3_31 1_555 1_555
H4_31 C4_31 1_555 1_555
N4_31 C1_31 1_555 1_555
C5_31 H5_31 1_555 1_555
H6_31 C5_31 1_555 1_555
H7_31 C5_31 1_555 1_555
C6_31 C4_31 1_555 1_555
H8_31 C6_31 1_555 1_555
H9_31 C6_31 1_555 1_555
N5_31 C2_31 1_555 1_555
C7_31 N2_31 1_555 1_555
C8_31 N1_31 1_555 1_555
H10_31 C8_31 1_555 1_555
S4_14 C2_31 1_555 1_555
Cu9_6 N5_31 1_555 1_555
N6_31 C9_31 1_555 1_555
N7_31 Cu1_31 1_555 1_555
N8_31 H11_31 1_555 1_555
H12_31 N8_31 1_555 1_555
C9_31 C11_31 1_555 1_555
C10_31 N9_31 1_555 1_555
C11_31 N10_31 1_555 1_555
C12_31 H13_31 1_555 1_555
H14_31 C12_31 1_555 1_555
N9_31 C9_31 1_555 1_555
C13_31 H15_31 1_555 1_555
H16_31 C13_31 1_555 1_555
H17_31 C13_31 1_555 1_555
C14_31 C12_31 1_555 1_555
H18_31 C14_31 1_555 1_555
H19_31 C14_31 1_555 1_555
N10_31 C10_31 1_555 1_555
C15_31 N7_31 1_555 1_555
C16_31 N6_31 1_555 1_555
H20_31 C16_31 1_555 1_555
S9_3 C10_31 1_555 1_555
Cu10_13 N10_31 1_555 1_555
N11_31 C17_31 1_555 1_555
N12_31 Cu1_31 1_555 1_555
N13_31 H21_31 1_555 1_555
H22_31 N13_31 1_555 1_555
C17_31 C19_31 1_555 1_555
C18_31 N14_31 1_555 1_555
C19_31 N15_31 1_555 1_555
C20_31 H23_31 1_555 1_555
H24_31 C20_31 1_555 1_555
N14_31 C17_31 1_555 1_555
C21_31 H25_31 1_555 1_555
H26_31 C21_31 1_555 1_555
H27_31 C21_31 1_555 1_555
C22_31 C20_31 1_555 1_555
H28_31 C22_31 1_555 1_555
H29_31 C22_31 1_555 1_555
N15_31 C18_31 1_555 1_555
C23_31 N12_31 1_555 1_555
C24_31 N11_31 1_555 1_555
H30_31 C24_31 1_555 1_555
S5_10 C18_31 1_555 1_555
Cu5_2 N15_31 1_555 1_555
N2_31 C8_31 1_555 1_555
N3_31 C7_31 1_555 1_555
C3_31 C7_31 1_555 1_555
C4_31 N4_31 1_555 1_555
C5_31 C6_31 1_555 1_555
N7_31 C16_31 1_555 1_555
N8_31 C15_31 1_555 1_555
C11_31 C15_31 1_555 1_555
C12_31 N9_31 1_555 1_555
C13_31 C14_31 1_555 1_555
N12_31 C24_31 1_555 1_555
N13_31 C23_31 1_555 1_555
C19_31 C23_31 1_555 1_555
C20_31 N14_31 1_555 1_555
C21_31 C22_31 1_555 1_555
Cu1_32 Cl1_32 1_555 1_555
N1_32 C1_32 1_555 1_555
N2_32 Cu1_32 1_555 1_555
N3_32 H1_32 1_555 1_555
H2_32 N3_32 1_555 1_555
C1_32 C3_32 1_555 1_555
C2_32 N4_32 1_555 1_555
C3_32 N5_32 1_555 1_555
C4_32 H3_32 1_555 1_555
H4_32 C4_32 1_555 1_555
N4_32 C1_32 1_555 1_555
C5_32 H5_32 1_555 1_555
H6_32 C5_32 1_555 1_555
H7_32 C5_32 1_555 1_555
C6_32 C4_32 1_555 1_555
H8_32 C6_32 1_555 1_555
H9_32 C6_32 1_555 1_555
N5_32 C2_32 1_555 1_555
C7_32 N2_32 1_555 1_555
C8_32 N1_32 1_555 1_555
H10_32 C8_32 1_555 1_555
S5_5 C2_32 1_555 1_555
Cu5_6 N5_32 1_555 1_555
N6_32 C9_32 1_555 1_555
N7_32 Cu1_32 1_555 1_555
N8_32 H11_32 1_555 1_555
H12_32 N8_32 1_555 1_555
C9_32 C11_32 1_555 1_555
C10_32 N9_32 1_555 1_555
C11_32 N10_32 1_555 1_555
C12_32 H13_32 1_555 1_555
H14_32 C12_32 1_555 1_555
N9_32 C9_32 1_555 1_555
C13_32 H15_32 1_555 1_555
H16_32 C13_32 1_555 1_555
H17_32 C13_32 1_555 1_555
C14_32 C12_32 1_555 1_555
H18_32 C14_32 1_555 1_555
H19_32 C14_32 1_555 1_555
N10_32 C10_32 1_555 1_555
C15_32 N7_32 1_555 1_555
C16_32 N6_32 1_555 1_555
H20_32 C16_32 1_555 1_555
S9_13 C10_32 1_555 1_555
Cu9_11 N10_32 1_555 1_555
N11_32 C17_32 1_555 1_555
N12_32 Cu1_32 1_555 1_555
N13_32 H21_32 1_555 1_555
H22_32 N13_32 1_555 1_555
C17_32 C19_32 1_555 1_555
C18_32 N14_32 1_555 1_555
C19_32 N15_32 1_555 1_555
C20_32 H23_32 1_555 1_555
H24_32 C20_32 1_555 1_555
N14_32 C17_32 1_555 1_555
C21_32 H25_32 1_555 1_555
H26_32 C21_32 1_555 1_555
H27_32 C21_32 1_555 1_555
C22_32 C20_32 1_555 1_555
H28_32 C22_32 1_555 1_555
H29_32 C22_32 1_555 1_555
N15_32 C18_32 1_555 1_555
C23_32 N12_32 1_555 1_555
C24_32 N11_32 1_555 1_555
H30_32 C24_32 1_555 1_555
S9_12 C18_32 1_555 1_555
Cu5_13 N15_32 1_555 1_555
N2_32 C8_32 1_555 1_555
N3_32 C7_32 1_555 1_555
C3_32 C7_32 1_555 1_555
C4_32 N4_32 1_555 1_555
C5_32 C6_32 1_555 1_555
N7_32 C16_32 1_555 1_555
N8_32 C15_32 1_555 1_555
C11_32 C15_32 1_555 1_555
C12_32 N9_32 1_555 1_555
C13_32 C14_32 1_555 1_555
N12_32 C24_32 1_555 1_555
N13_32 C23_32 1_555 1_555
C19_32 C23_32 1_555 1_555
C20_32 N14_32 1_555 1_555
C21_32 C22_32 1_555 1_555

#END
