
###############################################################################
#
# This file contains modified crystal structure data generated from the
# MOF subset of the Cambridge Structural Database (CSD) v543 
# hosted by the Cambridge Crystallographic Data Centre (CCDC).
#
# This work is licensed under the Creative Commons
# Attribution-NonCommercial-ShareAlike 4.0 International License.
# To view a copy of this license, visit
# http://creativecommons.org/licenses/by-nc-sa/4.0/
# or send a letter to
# Creative Commons, PO Box 1866, Mountain View, CA 94042, USA.
#
# CIF created using the CSD Python API on 29 September 2022
# The structure has been converted into the P1 space group
# The structure has a 3D framework
# The original CSD entry MOPFOO is in the tetragonal crystal system
# The framework has been calculated to contain at least 10.0% void space
# The void calculation uses a probe of radius 1.32A, grid spacing 0.4
#
###############################################################################

data_MOPFOO
_chemical_formula_moiety         '(C64 H48 N48 O32 Zn16)n'
_symmetry_cell_setting           triclinic
_symmetry_space_group_name_H-M   'P 1'
_symmetry_Int_Tables_number      1
_space_group_name_Hall           'P 1'
loop_
_symmetry_equiv_pos_site_id
_symmetry_equiv_pos_as_xyz
1 x,y,z
_cell_length_a                   13.673(5)
_cell_length_b                   13.673(5)
_cell_length_c                   22.794(5)
_cell_angle_alpha                90
_cell_angle_beta                 90
_cell_angle_gamma                90
_cell_volume                     4261.36
loop_
_atom_site_label
_atom_site_type_symbol
_atom_site_fract_x
_atom_site_fract_y
_atom_site_fract_z
O4 O 0.0598(3) 0.1447(3) 0.84094(14)
H4 H 0.0061 0.1241 0.7357
N5 N 0.02853(16) 0.39223(15) 0.96112(10)
C7 C 0.0430(2) 0.30502(19) 0.93718(13)
H5 H 0.0869 0.2937 0.9067
Zn3 Zn 0.09311(2) 0.51944(2) 0.940583(13)
N7 N 0.10777(15) 0.02853(16) 0.96112(10)
N6 N 0.95992(16) 0.37792(16) 0.00414(10)
C8 C 0.93746(19) 0.28373(17) 0.00237(12)
H6 H 0.8916 0.2545 0.0269
Zn5 Zn 0.90689(2) 0.48056(2) 0.059417(13)
Zn1 Zn 0.90689(2) 0.01944(2) 0.559417(13)
N1 N 0.76460(16) 0.01186(15) 0.53855(10)
N3 N 0.62208(16) 0.04008(16) 0.49586(10)
O1 O 0.9369(3) 0.0683(3) 0.63822(13)
C1 C 0.9020(3) 0.0114(4) 0.6739(2)
C2 C 0.9154(4) 0.0299(3) 0.7391(3)
C4 C 0.71627(17) 0.06254(19) 0.49763(12)
H3 H 0.7455 0.1084 0.4731
O3 O 0.9317(3) 0.0631(3) 0.86178(13)
C5 C 0.9886(4) 0.0980(3) 0.8261(2)
C6 C 0.9701(3) 0.0846(4) 0.7609(3)
Zn2 Zn 0.98056(2) 0.09311(2) 0.940583(13)
N4 N 0.98814(15) 0.23540(16) 0.96145(10)
Zn6 Zn 0.51944(2) 0.09311(2) 0.440583(13)
N9 N 0.87792(16) 0.04008(16) 0.99586(10)
N10 N 0.95992(16) 0.12208(16) 0.50414(10)
N2 N 0.60777(15) 0.97147(16) 0.53888(10)
O2 O 0.8553(3) 0.9402(3) 0.65906(14)
H1 H 0.8759 0.9939 0.7643
C3 C 0.69498(19) 0.9570(2) 0.56282(13)
H2 H 0.7063 0.9131 0.5933
Zn4 Zn 0.48056(2) 0.90689(2) 0.559417(13)
N8 N 0.97147(16) 0.89223(15) 0.53888(10)
Zn4_2 Zn 0.01944(2) 0.59311(2) 0.559417(13)
N6_2 N 0.54008(16) 0.12208(16) 0.00414(10)
C8_2 C 0.56254(19) 0.21627(17) 0.00237(12)
H6_2 H 0.6084 0.2455 0.0269
Zn5_2 Zn 0.59311(2) 0.01944(2) 0.059417(13)
Zn1_2 Zn 0.59311(2) 0.48056(2) 0.559417(13)
N1_2 N 0.73540(16) 0.48814(15) 0.53855(10)
N2_2 N 0.89223(15) 0.52853(16) 0.53888(10)
N3_2 N 0.87792(16) 0.45992(16) 0.49586(10)
O1_2 O 0.5631(3) 0.4317(3) 0.63822(13)
O2_2 O 0.6447(3) 0.5598(3) 0.65906(14)
C1_2 C 0.5980(3) 0.4886(4) 0.6739(2)
C2_2 C 0.5846(4) 0.4701(3) 0.7391(3)
H1_2 H 0.6241 0.5061 0.7643
C3_2 C 0.80502(19) 0.5430(2) 0.56282(13)
H2_2 H 0.7937 0.5869 0.5933
C4_2 C 0.78373(17) 0.43746(19) 0.49763(12)
H3_2 H 0.7545 0.3916 0.4731
O3_2 O 0.5683(3) 0.4369(3) 0.86178(13)
O4_2 O 0.4402(3) 0.3553(3) 0.84094(14)
C5_2 C 0.5114(4) 0.4020(3) 0.8261(2)
C6_2 C 0.5299(3) 0.4154(4) 0.7609(3)
H4_2 H 0.4939 0.3759 0.7357
Zn2_2 Zn 0.51944(2) 0.40689(2) 0.940583(13)
N4_2 N 0.51186(15) 0.26460(16) 0.96145(10)
N5_2 N 0.47147(16) 0.10777(15) 0.96112(10)
C7_2 C 0.4570(2) 0.19498(19) 0.93718(13)
H5_2 H 0.4131 0.2063 0.9067
Zn6_2 Zn 0.98056(2) 0.40689(2) 0.440583(13)
N7_2 N 0.39223(15) 0.47147(16) 0.96112(10)
N8_2 N 0.52853(16) 0.60777(15) 0.53888(10)
N9_2 N 0.62208(16) 0.45992(16) 0.99586(10)
N10_2 N 0.54008(16) 0.37792(16) 0.50414(10)
Zn3_2 Zn 0.40689(2) 0.98056(2) 0.940583(13)
O2_3 O 0.3553(3) 0.0598(3) 0.84094(14)
H1_3 H 0.3759 0.0061 0.7357
C3_3 C 0.19498(19) 0.0430(2) 0.93718(13)
H2_3 H 0.2063 0.0869 0.9067
N3_3 N 0.12208(16) 0.95992(16) 0.00414(10)
C4_3 C 0.21627(17) 0.93746(19) 0.00237(12)
H3_3 H 0.2455 0.8916 0.0269
Zn6_3 Zn 0.01944(2) 0.90689(2) 0.059417(13)
N1_3 N 0.26460(16) 0.98814(15) 0.96145(10)
O1_3 O 0.4369(3) 0.9317(3) 0.86178(13)
C1_3 C 0.4020(3) 0.9886(4) 0.8261(2)
C2_3 C 0.4154(4) 0.9701(3) 0.7609(3)
O3_3 O 0.4317(3) 0.9369(3) 0.63822(13)
O4_3 O 0.5598(3) 0.8553(3) 0.65906(14)
C5_3 C 0.4886(4) 0.9020(3) 0.6739(2)
C6_3 C 0.4701(3) 0.9154(4) 0.7391(3)
H4_3 H 0.5061 0.8759 0.7643
N4_3 N 0.48814(15) 0.76460(16) 0.53855(10)
N6_3 N 0.45992(16) 0.62208(16) 0.49586(10)
C7_3 C 0.5430(2) 0.69498(19) 0.56282(13)
H5_3 H 0.5869 0.7063 0.5933
C8_3 C 0.43746(19) 0.71627(17) 0.49763(12)
H6_3 H 0.3916 0.7455 0.4731
Zn5_3 Zn 0.40689(2) 0.51944(2) 0.440583(13)
N9_3 N 0.37792(16) 0.95992(16) 0.50414(10)
N10_3 N 0.45992(16) 0.87792(16) 0.99586(10)
N3_4 N 0.37792(16) 0.54008(16) 0.00414(10)
C4_4 C 0.28373(17) 0.56254(19) 0.00237(12)
H3_4 H 0.2545 0.6084 0.0269
Zn6_4 Zn 0.48056(2) 0.59311(2) 0.059417(13)
N1_4 N 0.23540(16) 0.51186(15) 0.96145(10)
O1_4 O 0.0631(3) 0.5683(3) 0.86178(13)
O2_4 O 0.1447(3) 0.4402(3) 0.84094(14)
C1_4 C 0.0980(3) 0.5114(4) 0.8261(2)
C2_4 C 0.0846(4) 0.5299(3) 0.7609(3)
H1_4 H 0.1241 0.4939 0.7357
C3_4 C 0.30502(19) 0.4570(2) 0.93718(13)
H2_4 H 0.2937 0.4131 0.9067
O3_4 O 0.0683(3) 0.5631(3) 0.63822(13)
C5_4 C 0.0114(4) 0.5980(3) 0.6739(2)
C6_4 C 0.0299(3) 0.5846(4) 0.7391(3)
N4_4 N 0.01186(15) 0.73540(16) 0.53855(10)
N6_4 N 0.04008(16) 0.87792(16) 0.49586(10)
C8_4 C 0.06254(19) 0.78373(17) 0.49763(12)
H6_4 H 0.1084 0.7545 0.4731
Zn5_4 Zn 0.09311(2) 0.98056(2) 0.440583(13)
N9_4 N 0.12208(16) 0.54008(16) 0.50414(10)
N10_4 N 0.04008(16) 0.62208(16) 0.99586(10)
O4_4 O 0.9402(3) 0.6447(3) 0.65906(14)
H4_4 H 0.9939 0.6241 0.7643
C7_4 C 0.9570(2) 0.80502(19) 0.56282(13)
H5_4 H 0.9131 0.7937 0.5933
N2_3 N 0.39223(15) 0.02853(16) 0.46112(10)
O2_5 O 0.1447(3) 0.0598(3) 0.34094(14)
H1_5 H 0.1241 0.0061 0.2357
C3_5 C 0.30502(19) 0.0430(2) 0.43718(13)
H2_5 H 0.2937 0.0869 0.4067
N8_3 N 0.02853(16) 0.10777(15) 0.46112(10)
N1_5 N 0.23540(16) 0.98814(15) 0.46145(10)
O1_5 O 0.0631(3) 0.9317(3) 0.36178(13)
C1_5 C 0.0980(3) 0.9886(4) 0.3261(2)
C2_5 C 0.0846(4) 0.9701(3) 0.2609(3)
C4_5 C 0.28373(17) 0.93746(19) 0.50237(12)
H3_5 H 0.2545 0.8916 0.5269
O3_5 O 0.0683(3) 0.9369(3) 0.13822(13)
C5_5 C 0.0114(4) 0.9020(3) 0.1739(2)
C6_5 C 0.0299(3) 0.9154(4) 0.2391(3)
N4_5 N 0.01186(15) 0.76460(16) 0.03855(10)
C8_5 C 0.06254(19) 0.71627(17) 0.99763(12)
H6_5 H 0.1084 0.7455 0.9731
O4_5 O 0.9402(3) 0.8553(3) 0.15906(14)
H4_5 H 0.9939 0.8759 0.2643
N5_3 N 0.97147(16) 0.60777(15) 0.03888(10)
C7_5 C 0.9570(2) 0.69498(19) 0.06282(13)
H5_5 H 0.9131 0.7063 0.0933
N7_3 N 0.89223(15) 0.97147(16) 0.03888(10)
N1_6 N 0.26460(16) 0.51186(15) 0.46145(10)
N2_4 N 0.10777(15) 0.47147(16) 0.46112(10)
O1_6 O 0.4369(3) 0.5683(3) 0.36178(13)
O2_6 O 0.3553(3) 0.4402(3) 0.34094(14)
C1_6 C 0.4020(3) 0.5114(4) 0.3261(2)
C2_6 C 0.4154(4) 0.5299(3) 0.2609(3)
H1_6 H 0.3759 0.4939 0.2357
C3_6 C 0.19498(19) 0.4570(2) 0.43718(13)
H2_6 H 0.2063 0.4131 0.4067
C4_6 C 0.21627(17) 0.56254(19) 0.50237(12)
H3_6 H 0.2455 0.6084 0.5269
O3_6 O 0.4317(3) 0.5631(3) 0.13822(13)
O4_6 O 0.5598(3) 0.6447(3) 0.15906(14)
C5_6 C 0.4886(4) 0.5980(3) 0.1739(2)
C6_6 C 0.4701(3) 0.5846(4) 0.2391(3)
H4_6 H 0.5061 0.6241 0.2643
N4_6 N 0.48814(15) 0.73540(16) 0.03855(10)
N5_4 N 0.52853(16) 0.89223(15) 0.03888(10)
C7_6 C 0.5430(2) 0.80502(19) 0.06282(13)
H5_6 H 0.5869 0.7937 0.0933
N7_4 N 0.60777(15) 0.52853(16) 0.03888(10)
N8_4 N 0.47147(16) 0.39223(15) 0.46112(10)
C8_6 C 0.43746(19) 0.78373(17) 0.99763(12)
H6_6 H 0.3916 0.7545 0.9731
N1_7 N 0.73540(16) 0.01186(15) 0.03855(10)
O1_7 O 0.5631(3) 0.0683(3) 0.13822(13)
C1_7 C 0.5980(3) 0.0114(4) 0.1739(2)
C2_7 C 0.5846(4) 0.0299(3) 0.2391(3)
O3_7 O 0.5683(3) 0.0631(3) 0.36178(13)
O4_7 O 0.4402(3) 0.1447(3) 0.34094(14)
C5_7 C 0.5114(4) 0.0980(3) 0.3261(2)
C6_7 C 0.5299(3) 0.0846(4) 0.2609(3)
H4_7 H 0.4939 0.1241 0.2357
N4_7 N 0.51186(15) 0.23540(16) 0.46145(10)
C7_7 C 0.4570(2) 0.30502(19) 0.43718(13)
H5_7 H 0.4131 0.2937 0.4067
C8_7 C 0.56254(19) 0.28373(17) 0.50237(12)
H6_7 H 0.6084 0.2545 0.5269
C4_7 C 0.78373(17) 0.06254(19) 0.99763(12)
H3_7 H 0.7545 0.1084 0.9731
O2_7 O 0.6447(3) 0.9402(3) 0.15906(14)
H1_7 H 0.6241 0.9939 0.2643
C3_7 C 0.80502(19) 0.9570(2) 0.06282(13)
H2_7 H 0.7937 0.9131 0.0933
O4_8 O 0.0598(3) 0.3553(3) 0.34094(14)
H4_8 H 0.0061 0.3759 0.2357
C7_8 C 0.0430(2) 0.19498(19) 0.43718(13)
H5_8 H 0.0869 0.2063 0.4067
N1_8 N 0.76460(16) 0.48814(15) 0.03855(10)
O1_8 O 0.9369(3) 0.4317(3) 0.13822(13)
O2_8 O 0.8553(3) 0.5598(3) 0.15906(14)
C1_8 C 0.9020(3) 0.4886(4) 0.1739(2)
C2_8 C 0.9154(4) 0.4701(3) 0.2391(3)
H1_8 H 0.8759 0.5061 0.2643
C3_8 C 0.69498(19) 0.5430(2) 0.06282(13)
H2_8 H 0.7063 0.5869 0.0933
O3_8 O 0.9317(3) 0.4369(3) 0.36178(13)
C5_8 C 0.9886(4) 0.4020(3) 0.3261(2)
C6_8 C 0.9701(3) 0.4154(4) 0.2609(3)
N4_8 N 0.98814(15) 0.26460(16) 0.46145(10)
C8_8 C 0.93746(19) 0.21627(17) 0.50237(12)
H6_8 H 0.8916 0.2455 0.5269
C4_8 C 0.71627(17) 0.43746(19) 0.99763(12)
H3_8 H 0.7455 0.3916 0.9731
loop_
_geom_bond_atom_site_label_1
_geom_bond_atom_site_label_2
_geom_bond_site_symmetry_1
_geom_bond_site_symmetry_2
H5 C7 1_555 1_555
Zn3 N5 1_555 1_555
N5 C7 1_555 1_555
N6 C8 1_555 1_555
H6 C8 1_555 1_555
Zn5 N6 1_555 1_555
Zn1 N1 1_555 1_555
N3 C4 1_555 1_555
O1 Zn1 1_555 1_555
C1 O1 1_555 1_555
C2 C1 1_555 1_555
C4 N1 1_555 1_555
H3 C4 1_555 1_555
O3 C5 1_555 1_555
C5 C6 1_555 1_555
C6 C2 1_555 1_555
Zn2 O3 1_555 1_555
N4 Zn2 1_555 1_555
Zn6 N3 1_555 1_555
N9 Zn2 1_555 1_555
N10 Zn1 1_555 1_555
C3 N2 1_555 1_555
H2 C3 1_555 1_555
Zn4 N2 1_555 1_555
N6_2 C8_2 1_555 1_555
H6_2 C8_2 1_555 1_555
Zn5_2 N6_2 1_555 1_555
Zn1_2 N1_2 1_555 1_555
N1_2 C3_2 1_555 1_555
N2_2 N3_2 1_555 1_555
N3_2 C4_2 1_555 1_555
O1_2 Zn1_2 1_555 1_555
O2_2 C1_2 1_555 1_555
C1_2 O1_2 1_555 1_555
C2_2 C1_2 1_555 1_555
H1_2 C2_2 1_555 1_555
C3_2 N2_2 1_555 1_555
H2_2 C3_2 1_555 1_555
C4_2 N1_2 1_555 1_555
H3_2 C4_2 1_555 1_555
O3_2 C5_2 1_555 1_555
O4_2 C5_2 1_555 1_555
C5_2 C6_2 1_555 1_555
C6_2 C2_2 1_555 1_555
H4_2 C6_2 1_555 1_555
Zn2_2 O3_2 1_555 1_555
N4_2 Zn2_2 1_555 1_555
C7_2 N4_2 1_555 1_555
H5_2 C7_2 1_555 1_555
Zn6_2 N3_2 1_555 1_555
N7_2 Zn2_2 1_555 1_555
N8_2 Zn1_2 1_555 1_555
N9_2 Zn2_2 1_555 1_555
N10_2 Zn1_2 1_555 1_555
N5_2 C7_2 1_555 1_555
C3_3 N7 1_555 1_555
H2_3 C3_3 1_555 1_555
N3_3 C4_3 1_555 1_555
H3_3 C4_3 1_555 1_555
Zn6_3 N3_3 1_555 1_555
Zn3_2 N1_3 1_555 1_555
O1_3 Zn3_2 1_555 1_555
C1_3 O1_3 1_555 1_555
C2_3 C1_3 1_555 1_555
O3_3 C5_3 1_555 1_555
O4_3 C5_3 1_555 1_555
C5_3 C6_3 1_555 1_555
C6_3 C2_3 1_555 1_555
H4_3 C6_3 1_555 1_555
Zn4 O3_3 1_555 1_555
N4_3 Zn4 1_555 1_555
N8_2 N6_3 1_555 1_555
N6_3 C8_3 1_555 1_555
C7_3 N4_3 1_555 1_555
H5_3 C7_3 1_555 1_555
C8_3 N4_3 1_555 1_555
H6_3 C8_3 1_555 1_555
Zn5_3 N6_3 1_555 1_555
N9_3 Zn4 1_555 1_555
N10_3 Zn3_2 1_555 1_555
N8_2 C7_3 1_555 1_555
N3_4 C4_4 1_555 1_555
H3_4 C4_4 1_555 1_555
Zn6_4 N3_4 1_555 1_555
Zn3 N1_4 1_555 1_555
N1_4 C3_4 1_555 1_555
O1_4 Zn3 1_555 1_555
O2_4 C1_4 1_555 1_555
C1_4 O1_4 1_555 1_555
C2_4 C1_4 1_555 1_555
H1_4 C2_4 1_555 1_555
C3_4 N7_2 1_555 1_555
H2_4 C3_4 1_555 1_555
O3_4 C5_4 1_555 1_555
C5_4 C6_4 1_555 1_555
C6_4 C2_4 1_555 1_555
Zn4_2 O3_4 1_555 1_555
N4_4 Zn4_2 1_555 1_555
N6_4 C8_4 1_555 1_555
C8_4 N4_4 1_555 1_555
H6_4 C8_4 1_555 1_555
Zn5_4 N6_4 1_555 1_555
N9_4 Zn4_2 1_555 1_555
N10_4 Zn3 1_555 1_555
H5_4 C7_4 1_555 1_555
N8 C7_4 1_555 1_555
C3_5 N2_3 1_555 1_555
H2_5 C3_5 1_555 1_555
Zn6 N2_3 1_555 1_555
Zn5_4 N1_5 1_555 1_555
N9_3 C4_5 1_555 1_555
O1_5 Zn5_4 1_555 1_555
C1_5 O1_5 1_555 1_555
C2_5 C1_5 1_555 1_555
C4_5 N1_5 1_555 1_555
H3_5 C4_5 1_555 1_555
O3_5 C5_5 1_555 1_555
C5_5 C6_5 1_555 1_555
C6_5 C2_5 1_555 1_555
Zn6_3 O3_5 1_555 1_555
N4_5 Zn6_3 1_555 1_555
N10_4 C8_5 1_555 1_555
H6_5 C8_5 1_555 1_555
H5_5 C7_5 1_555 1_555
Zn5 N5_3 1_555 1_555
N5_3 C7_5 1_555 1_555
Zn5_3 N1_6 1_555 1_555
N1_6 C3_6 1_555 1_555
N2_4 N9_4 1_555 1_555
N9_4 C4_6 1_555 1_555
O1_6 Zn5_3 1_555 1_555
O2_6 C1_6 1_555 1_555
C1_6 O1_6 1_555 1_555
C2_6 C1_6 1_555 1_555
H1_6 C2_6 1_555 1_555
C3_6 N2_4 1_555 1_555
H2_6 C3_6 1_555 1_555
C4_6 N1_6 1_555 1_555
H3_6 C4_6 1_555 1_555
O3_6 C5_6 1_555 1_555
O4_6 C5_6 1_555 1_555
C5_6 C6_6 1_555 1_555
C6_6 C2_6 1_555 1_555
H4_6 C6_6 1_555 1_555
Zn6_4 O3_6 1_555 1_555
N4_6 Zn6_4 1_555 1_555
C7_6 N4_6 1_555 1_555
H5_6 C7_6 1_555 1_555
N7_4 Zn6_4 1_555 1_555
N8_4 Zn5_3 1_555 1_555
N5_4 C7_6 1_555 1_555
N10_3 C8_6 1_555 1_555
H6_6 C8_6 1_555 1_555
Zn5_2 N1_7 1_555 1_555
O1_7 Zn5_2 1_555 1_555
C1_7 O1_7 1_555 1_555
C2_7 C1_7 1_555 1_555
O3_7 C5_7 1_555 1_555
O4_7 C5_7 1_555 1_555
C5_7 C6_7 1_555 1_555
C6_7 C2_7 1_555 1_555
H4_7 C6_7 1_555 1_555
Zn6 O3_7 1_555 1_555
N4_7 Zn6 1_555 1_555
N8_4 N10_2 1_555 1_555
N10_2 C8_7 1_555 1_555
C7_7 N4_7 1_555 1_555
H5_7 C7_7 1_555 1_555
C8_7 N4_7 1_555 1_555
H6_7 C8_7 1_555 1_555
N8_4 C7_7 1_555 1_555
N9 C4_7 1_555 1_555
H3_7 C4_7 1_555 1_555
C3_7 N7_3 1_555 1_555
H2_7 C3_7 1_555 1_555
H5_8 C7_8 1_555 1_555
N8_3 C7_8 1_555 1_555
Zn5 N1_8 1_555 1_555
N1_8 C3_8 1_555 1_555
O1_8 Zn5 1_555 1_555
O2_8 C1_8 1_555 1_555
C1_8 O1_8 1_555 1_555
C2_8 C1_8 1_555 1_555
H1_8 C2_8 1_555 1_555
C3_8 N7_4 1_555 1_555
H2_8 C3_8 1_555 1_555
O3_8 C5_8 1_555 1_555
C5_8 C6_8 1_555 1_555
C6_8 C2_8 1_555 1_555
Zn6_2 O3_8 1_555 1_555
N4_8 Zn6_2 1_555 1_555
N10 C8_8 1_555 1_555
C8_8 N4_8 1_555 1_555
H6_8 C8_8 1_555 1_555
N9_2 C4_8 1_555 1_555
H3_8 C4_8 1_555 1_555

#END
