
###############################################################################
#
# This file contains modified crystal structure data generated from the
# MOF subset of the Cambridge Structural Database (CSD) v543 
# hosted by the Cambridge Crystallographic Data Centre (CCDC).
#
# This work is licensed under the Creative Commons
# Attribution-NonCommercial-ShareAlike 4.0 International License.
# To view a copy of this license, visit
# http://creativecommons.org/licenses/by-nc-sa/4.0/
# or send a letter to
# Creative Commons, PO Box 1866, Mountain View, CA 94042, USA.
#
# CIF created using the CSD Python API on 29 September 2022
# The structure has been converted into the P1 space group
# The structure has a 3D framework
# The original CSD entry MOPQIT is in the monoclinic crystal system
# The framework has been calculated to contain at least 10.0% void space
# The void calculation uses a probe of radius 1.32A, grid spacing 0.4
#
###############################################################################

data_MOPQIT
_chemical_formula_moiety         '(C24 H24 Mg18 O44)n'
_symmetry_cell_setting           triclinic
_symmetry_space_group_name_H-M   'P 1'
_symmetry_Int_Tables_number      1
_space_group_name_Hall           'P 1'
loop_
_symmetry_equiv_pos_site_id
_symmetry_equiv_pos_as_xyz
1 x,y,z
_cell_length_a                   11.416(2)
_cell_length_b                   10.013(2)
_cell_length_c                   14.914(3)
_cell_angle_alpha                90
_cell_angle_beta                 91.44(3)
_cell_angle_gamma                90
_cell_volume                     1704.26
loop_
_atom_site_label
_atom_site_type_symbol
_atom_site_fract_x
_atom_site_fract_y
_atom_site_fract_z
Mg15 Mg 0.0000 -0.0000 0.5000
Mg3 Mg 0.0000 0.5000 0.0000
O9 O 0.0369(2) 0.9878(3) 0.36565(18)
H1 H 0.0053 0.7830 0.0356
H2 H 0.0236 0.9519 0.2442
Mg15_2 Mg 0.0000 1.0000 0.5000
O34 O 0.1520(2) 0.5913(3) 0.0420(2)
O35 O 0.0039(2) 0.3764(3) 0.1104(2)
Mg3_2 Mg -0.0000 0.5000 1.0000
O31 O 0.0974(2) 0.3539(3) 0.93035(18)
Mg9 Mg 0.74489(10) 0.07317(12) 0.36472(8)
Mg13 Mg 0.5000 -0.0000 0.5000
Mg15_3 Mg 1.0000 -0.0000 0.5000
O29 O 0.6935(3) 0.0465(3) 0.13575(19)
Mg1 Mg 0.76112(10) 0.87882(12) 0.19528(8)
Mg2 Mg 0.75511(10) 0.57317(12) 0.13528(8)
Mg3_3 Mg 1.0000 0.5000 0.0000
Mg4 Mg 0.5000 0.5000 0.0000
O1 O 0.6526(2) 0.9128(3) 0.30599(18)
O2 O 0.6593(2) 0.7503(3) 0.11493(17)
O3 O 0.8050(2) 0.6909(3) 0.24914(17)
O4 O 0.8704(2) 0.9843(3) 0.28360(17)
O5 O 0.6843(2) 0.4745(3) 0.02453(17)
O6 O 0.8965(2) 0.8621(3) 0.10865(19)
O7 O 0.8065(3) 0.5465(3) 0.36425(19)
O8 O 0.9026(2) 0.6461(3) 0.06965(18)
O10 O 0.5215(2) 0.7036(3) 0.0097(2)
O12 O 0.4961(2) 0.8764(3) 0.3896(2)
C1 C 0.9394(3) 0.7659(4) 0.0691(3)
C2 C 0.9810(3) 0.9732(4) 0.2946(3)
C3 C 0.8219(4) 0.6587(4) 0.3311(3)
H3 H 0.8482 0.7257 0.3698
C4 C 0.5776(3) 0.7826(4) 0.0578(3)
H4 H 0.5593 0.8728 0.0522
C6 C 0.5588(3) 0.8513(4) 0.3255(3)
H6 H 0.5356 0.7812 0.2882
C11 C 0.2594(3) 0.5921(4) 0.0331(3)
H11 H 0.3030 0.6462 0.0720
Mg7 Mg 0.73888(10) 0.37882(12) 0.30472(8)
Mg13_2 Mg 0.5000 1.0000 0.5000
Mg15_4 Mg 1.0000 1.0000 0.5000
O25 O 0.8474(2) 0.4128(3) 0.19401(18)
O27 O 0.6296(2) 0.4843(3) 0.21640(17)
O32 O 0.4631(2) 0.4878(3) 0.13435(18)
Mg3_4 Mg 1.0000 0.5000 1.0000
Mg4_2 Mg 0.5000 0.5000 1.0000
O11 O 0.8480(2) 0.4087(3) 0.9580(2)
C5 C 0.7406(3) 0.4079(4) 0.9669(3)
H5 H 0.6970 0.3538 0.9280
Mg5 Mg 0.23888(10) 0.12118(12) 0.80472(8)
Mg6 Mg 0.24489(10) 0.42683(12) 0.86472(8)
O13 O 0.3474(2) 0.0872(3) 0.69401(18)
O14 O 0.3407(2) 0.2497(3) 0.88507(17)
O15 O 0.1950(2) 0.3091(3) 0.75086(17)
O16 O 0.1296(2) 0.0157(3) 0.71640(17)
O17 O 0.3157(2) 0.5255(3) 0.97547(17)
O18 O 0.1035(2) 0.1379(3) 0.89135(19)
O19 O 0.1935(3) 0.4535(3) 0.63575(19)
O22 O 0.4785(2) 0.2964(3) 0.9903(2)
O24 O 0.5039(2) 0.1236(3) 0.6104(2)
C7 C 0.0606(3) 0.2341(4) 0.9309(3)
C8 C 0.0190(3) 0.0268(4) 0.7054(3)
C9 C 0.1781(4) 0.3413(4) 0.6689(3)
H9 H 0.1518 0.2743 0.6302
C10 C 0.4224(3) 0.2174(4) 0.9422(3)
H10 H 0.4407 0.1272 0.9478
C12 C 0.4412(3) 0.1487(4) 0.6745(3)
H12 H 0.4644 0.2188 0.7118
Mg8 Mg 0.26112(10) 0.62118(12) 0.69528(8)
O26 O 0.1526(2) 0.5872(3) 0.80599(18)
O28 O 0.3704(2) 0.5157(3) 0.78360(17)
O33 O 0.5369(2) 0.5122(3) 0.86565(18)
O36 O 0.9961(2) 0.6236(3) 0.8896(2)
Mg10 Mg 0.25511(10) 0.92683(12) 0.63528(8)
O30 O 0.3065(3) 0.9535(3) 0.86425(19)
O21 O 0.9631(2) 0.0122(3) 0.63435(18)
H7 H 0.9947 0.2170 0.9644
H8 H 0.9764 0.0481 0.7558
O17_2 O 0.1843(2) 0.0255(3) 0.52453(17)
O23 O 0.3480(2) 0.0913(3) 0.4580(2)
C11_2 C 0.2406(3) 0.0921(4) 0.4669(3)
H11_2 H 0.1970 0.1462 0.4280
O14_2 O 0.1593(2) 0.7497(3) 0.61493(17)
O15_2 O 0.3050(2) 0.8091(3) 0.74914(17)
O18_2 O 0.3965(2) 0.6379(3) 0.60865(19)
O20 O 0.4026(2) 0.8539(3) 0.56965(18)
O22_2 O 0.0215(2) 0.7964(3) 0.5097(2)
C7_2 C 0.4394(3) 0.7341(4) 0.5691(3)
H7_2 H 0.5053 0.7170 0.5356
C8_2 C 0.4810(3) 0.5268(4) 0.7946(3)
H8_2 H 0.5236 0.5481 0.7442
C9_2 C 0.3219(4) 0.8413(4) 0.8311(3)
H9_2 H 0.3482 0.7743 0.8698
C10_2 C 0.0776(3) 0.7174(4) 0.5578(3)
H10_2 H 0.0593 0.6272 0.5522
C12_2 C 0.0588(3) 0.6487(4) 0.8255(3)
H12_2 H 0.0356 0.7188 0.7882
O2_2 O 0.8407(2) 0.2503(3) 0.38507(17)
O3_2 O 0.6950(2) 0.1909(3) 0.25086(17)
O6_2 O 0.6035(2) 0.3621(3) 0.39135(19)
O8_2 O 0.5974(2) 0.1461(3) 0.43035(18)
O10_2 O 0.9785(2) 0.2036(3) 0.4903(2)
C1_2 C 0.5606(3) 0.2659(4) 0.4309(3)
H1_2 H 0.4947 0.2830 0.4644
C2_2 C 0.5190(3) 0.4732(4) 0.2054(3)
H2_2 H 0.4764 0.4519 0.2558
C3_2 C 0.6781(4) 0.1587(4) 0.1689(3)
H3_2 H 0.6518 0.2257 0.1302
C4_2 C 0.9224(3) 0.2826(4) 0.4422(3)
H4_2 H 0.9407 0.3728 0.4478
C6_2 C 0.9412(3) 0.3513(4) 0.1745(3)
H6_2 H 0.9644 0.2812 0.2118
O5_2 O 0.8157(2) 0.9745(3) 0.47547(17)
O11_2 O 0.6520(2) 0.9087(3) 0.5420(2)
C5_2 C 0.7594(3) 0.9079(4) 0.5331(3)
H5_2 H 0.8030 0.8538 0.5720
loop_
_geom_bond_atom_site_label_1
_geom_bond_atom_site_label_2
_geom_bond_site_symmetry_1
_geom_bond_site_symmetry_2
Mg15_2 O9 1_555 1_555
O34 Mg3 1_555 1_555
O35 Mg3 1_555 1_555
O31 Mg3_2 1_555 1_555
Mg1 O1 1_555 1_555
Mg2 O2 1_555 1_555
Mg3_3 O8 1_555 1_555
Mg4 O5 1_555 1_555
O1 C6 1_555 1_555
O2 Mg1 1_555 1_555
O3 Mg1 1_555 1_555
O4 Mg1 1_555 1_555
O5 Mg2 1_555 1_555
O6 Mg1 1_555 1_555
O7 C3 1_555 1_555
O8 Mg2 1_555 1_555
O10 Mg4 1_555 1_555
O12 C6 1_555 1_555
C1 O6 1_555 1_555
C2 O4 1_555 1_555
C3 O3 1_555 1_555
H3 C3 1_555 1_555
C4 O2 1_555 1_555
H4 C4 1_555 1_555
C6 H6 1_555 1_555
O34 C11 1_555 1_555
H11 C11 1_555 1_555
Mg7 O7 1_555 1_555
Mg13_2 O12 1_555 1_555
O25 Mg2 1_555 1_555
O27 Mg2 1_555 1_555
O32 Mg4 1_555 1_555
Mg2 O3 1_555 1_555
O8 C1 1_555 1_555
O10 C4 1_555 1_555
Mg7 O25 1_555 1_555
Mg7 O27 1_555 1_555
O11 Mg3_4 1_555 1_555
H5 C5 1_555 1_555
Mg5 O13 1_555 1_555
Mg6 O14 1_555 1_555
O13 C12 1_555 1_555
O14 Mg5 1_555 1_555
O15 Mg5 1_555 1_555
O16 Mg5 1_555 1_555
O17 Mg4_2 1_555 1_555
O18 Mg5 1_555 1_555
O19 C9 1_555 1_555
O31 Mg6 1_555 1_555
O22 Mg4_2 1_555 1_555
O24 C12 1_555 1_555
C7 O18 1_555 1_555
C8 O16 1_555 1_555
C9 O15 1_555 1_555
H9 C9 1_555 1_555
C10 O14 1_555 1_555
H10 C10 1_555 1_555
C12 H12 1_555 1_555
Mg8 O19 1_555 1_555
Mg13 O24 1_555 1_555
O26 Mg6 1_555 1_555
O28 Mg6 1_555 1_555
O33 Mg4_2 1_555 1_555
O36 Mg3_4 1_555 1_555
O11 C5 1_555 1_555
Mg6 O15 1_555 1_555
Mg6 O17 1_555 1_555
O31 C7 1_555 1_555
O22 C10 1_555 1_555
Mg8 O26 1_555 1_555
Mg8 O28 1_555 1_555
Mg15_3 O21 1_555 1_555
O17_2 Mg15 1_555 1_555
O23 C11_2 1_555 1_555
C11_2 O17_2 1_555 1_555
H11_2 C11_2 1_555 1_555
O23 Mg13 1_555 1_555
Mg10 O14_2 1_555 1_555
O26 C12_2 1_555 1_555
O14_2 Mg8 1_555 1_555
O15_2 Mg8 1_555 1_555
O18_2 Mg8 1_555 1_555
O30 C9_2 1_555 1_555
O20 Mg10 1_555 1_555
O33 C8_2 1_555 1_555
O22_2 Mg15_2 1_555 1_555
C7_2 O18_2 1_555 1_555
H7_2 C7_2 1_555 1_555
C8_2 O28 1_555 1_555
H8_2 C8_2 1_555 1_555
C9_2 O15_2 1_555 1_555
H9_2 C9_2 1_555 1_555
C10_2 O14_2 1_555 1_555
H10_2 C10_2 1_555 1_555
C12_2 H12_2 1_555 1_555
Mg13_2 O20 1_555 1_555
Mg10 O15_2 1_555 1_555
O20 C7_2 1_555 1_555
O22_2 C10_2 1_555 1_555
Mg9 O2_2 1_555 1_555
Mg13 O8_2 1_555 1_555
O25 C6_2 1_555 1_555
O2_2 Mg7 1_555 1_555
O3_2 Mg7 1_555 1_555
O6_2 Mg7 1_555 1_555
O29 C3_2 1_555 1_555
O8_2 Mg9 1_555 1_555
O32 C2_2 1_555 1_555
O10_2 Mg15_3 1_555 1_555
C1_2 O6_2 1_555 1_555
H1_2 C1_2 1_555 1_555
C2_2 O27 1_555 1_555
H2_2 C2_2 1_555 1_555
C3_2 O3_2 1_555 1_555
H3_2 C3_2 1_555 1_555
C4_2 O2_2 1_555 1_555
H4_2 C4_2 1_555 1_555
C6_2 H6_2 1_555 1_555
Mg9 O3_2 1_555 1_555
O8_2 C1_2 1_555 1_555
O10_2 C4_2 1_555 1_555
Mg15_4 O5_2 1_555 1_555
O11_2 Mg13_2 1_555 1_555
C5_2 O5_2 1_555 1_555
H5_2 C5_2 1_555 1_555
O11_2 C5_2 1_555 1_555

#END
