
###############################################################################
#
# This file contains modified crystal structure data generated from the
# MOF subset of the Cambridge Structural Database (CSD) v543 
# hosted by the Cambridge Crystallographic Data Centre (CCDC).
#
# This work is licensed under the Creative Commons
# Attribution-NonCommercial-ShareAlike 4.0 International License.
# To view a copy of this license, visit
# http://creativecommons.org/licenses/by-nc-sa/4.0/
# or send a letter to
# Creative Commons, PO Box 1866, Mountain View, CA 94042, USA.
#
# CIF created using the CSD Python API on 29 September 2022
# The structure has been converted into the P1 space group
# The structure has a 3D framework
# The original CSD entry MOSBIG is in the orthorhombic crystal system
# The framework has been calculated to contain at least 10.0% void space
# The void calculation uses a probe of radius 1.32A, grid spacing 0.4
#
###############################################################################

data_MOSBIG
_chemical_formula_moiety         '(C108 H96 Eu8 N20 O52)n'
_symmetry_cell_setting           triclinic
_symmetry_space_group_name_H-M   'P 1'
_symmetry_Int_Tables_number      1
_space_group_name_Hall           'P 1'
loop_
_symmetry_equiv_pos_site_id
_symmetry_equiv_pos_as_xyz
1 x,y,z
_cell_length_a                   8.0154(9)
_cell_length_b                   30.175(3)
_cell_length_c                   15.3220(17)
_cell_angle_alpha                90
_cell_angle_beta                 90
_cell_angle_gamma                90
_cell_volume                     3705.85
loop_
_atom_site_label
_atom_site_type_symbol
_atom_site_fract_x
_atom_site_fract_y
_atom_site_fract_z
Eu8 Eu 0.06459(6) 0.092827(16) 0.20442(4)
O10 O 0.0012(10) 0.9699(2) 0.7088(5)
O13 O 0.1081(9) 0.9580(2) 0.8850(5)
Eu9 Eu 0.56459(6) 0.092827(16) 0.29558(4)
O11 O 0.8919(9) 0.0420(2) 0.1150(5)
O14 O 0.7360(9) 0.0969(2) 0.1628(5)
C18 C 0.5252(14) 0.0874(3) 0.0092(7)
H14 H 0.5000 0.1106 0.0489
C19 C 0.6622(13) 0.0606(3) 0.0273(7)
C21 C 0.7682(15) 0.0662(3) 0.1059(8)
O3 O 0.3919(9) 0.0420(2) 0.3850(5)
O4 O 0.2360(9) 0.0969(2) 0.3372(5)
C2 C 0.0926(13) 0.0195(3) 0.6002(7)
C4 C 0.0252(14) 0.0874(3) 0.4908(7)
H2 H 0.0000 0.1106 0.4511
C5 C 0.1622(13) 0.0606(3) 0.4727(7)
C6 C 0.1975(14) 0.0268(3) 0.5298(7)
H3 H 0.2929 0.0086 0.5211
C7 C 0.2682(15) 0.0662(3) 0.3941(8)
N4 N 0.4270(12) 0.0824(3) 0.9397(7)
C16 C 0.5926(13) 0.0195(3) 0.8998(7)
C17 C 0.4586(13) 0.0484(3) 0.8886(8)
H13 H 0.3854 0.0432 0.8410
C20 C 0.6975(14) 0.0268(3) 0.9702(7)
H15 H 0.7929 0.0086 0.9789
Eu1 Eu 0.43541(6) 0.907173(16) 0.70442(4)
O1 O 0.2542(9) 0.9599(2) 0.6500(5)
O5 O 0.1568(9) 0.8692(2) 0.6831(4)
O7 O 0.4369(9) 0.8825(2) 0.5541(5)
N2 N 0.2915(16) 0.7500 0.5531(8)
N3 N 0.4796(17) 0.8944(4) 0.4104(8)
C1 C 0.1171(14) 0.9800(3) 0.6582(8)
C8 C 0.0943(14) 0.8320(3) 0.7100(8)
C9 C 0.1480(14) 0.7896(3) 0.6686(8)
C10 C 0.2420(13) 0.7877(3) 0.5917(8)
H4 H 0.2730 0.8149 0.5650
C11 C 0.0997(18) 0.7500 0.7046(10)
H5 H 0.0318 0.7500 0.7554
C12 C 0.4392(15) 0.9059(4) 0.4869(9)
H6 H 0.4068 0.9360 0.4941
C13 C 0.4784(17) 0.9266(6) 0.3360(10)
H7 H 0.4361 0.9553 0.3563
H8 H 0.5921 0.9303 0.3136
H9 H 0.4061 0.9154 0.2894
C14 C 0.591(3) 0.8562(7) 0.3932(14)
H10 H 0.5890 0.8361 0.4434
H11 H 0.5527 0.8404 0.3410
H12 H 0.7052 0.8668 0.3839
Eu2 Eu 0.93541(6) 0.907173(16) 0.79558(4)
Eu6 Eu 0.43541(6) 0.592827(16) 0.70442(4)
O8 O 0.7542(9) 0.9599(2) 0.8500(5)
O9 O 0.5012(10) 0.9699(2) 0.7912(5)
O12 O 0.6081(9) 0.9580(2) 0.6150(5)
O15 O 0.2640(9) 0.9031(2) 0.8372(5)
O16 O 0.7640(9) 0.9031(2) 0.6628(5)
O17 O 0.1568(9) 0.6308(2) 0.6831(4)
O18 O 0.6568(9) 0.8692(2) 0.8169(4)
O20 O 0.4877(10) 0.8305(2) 0.7305(5)
O21 O 0.9877(10) 0.8305(2) 0.7695(5)
O22 O 0.9369(9) 0.8825(2) 0.9459(5)
C15 C 0.6171(14) 0.9800(3) 0.8418(8)
C22 C 0.0943(14) 0.6680(3) 0.7100(8)
C23 C 0.1480(14) 0.7104(3) 0.6686(8)
C24 C 0.2420(13) 0.7123(3) 0.5917(8)
H16 H 0.2730 0.6851 0.5650
N1 N 0.9270(12) 0.0824(3) 0.5603(7)
C3 C 0.9586(13) 0.0484(3) 0.6114(8)
H1 H 0.8854 0.0432 0.6590
H2_2 H 1.0000 0.1106 0.4511
Eu7 Eu 0.93541(6) 0.592827(16) 0.79558(4)
O19 O 0.9877(10) 0.6695(2) 0.7695(5)
O1_2 O 0.2458(9) 0.0401(2) 0.1500(5)
O2 O 0.4988(10) 0.0301(2) 0.2088(5)
O5_2 O 0.3432(9) 0.1308(2) 0.1831(4)
O6 O 0.5123(10) 0.1695(2) 0.2695(5)
O7_2 O 0.0631(9) 0.1175(2) 0.0541(5)
N2_2 N 0.2085(16) 0.2500 0.0531(8)
C1_2 C 0.3829(14) 0.0200(3) 0.1582(8)
C8_2 C 0.4057(14) 0.1680(3) 0.2100(8)
C9_2 C 0.3520(14) 0.2104(3) 0.1686(8)
C10_2 C 0.2580(13) 0.2123(3) 0.0917(8)
H4_2 H 0.2270 0.1851 0.0650
C11_2 C 0.4003(18) 0.2500 0.2046(10)
H5_2 H 0.4682 0.2500 0.2554
Eu6_2 Eu 0.06459(6) 0.407173(16) 0.20442(4)
Eu7_2 Eu 0.56459(6) 0.407173(16) 0.29558(4)
O17_2 O 0.3432(9) 0.3692(2) 0.1831(4)
O19_2 O 0.5123(10) 0.3305(2) 0.2695(5)
O20_2 O 0.0123(10) 0.1695(2) 0.2305(5)
C22_2 C 0.4057(14) 0.3320(3) 0.2100(8)
C23_2 C 0.3520(14) 0.2896(3) 0.1686(8)
C24_2 C 0.2580(13) 0.2877(3) 0.0917(8)
H16_2 H 0.2270 0.3149 0.0650
N1_2 N 0.5730(12) 0.9176(3) 0.0603(7)
C2_2 C 0.4074(13) 0.9805(3) 0.1002(7)
C3_2 C 0.5414(13) 0.9516(3) 0.1114(8)
H1_2 H 0.6146 0.9568 0.1590
C6_2 C 0.3025(14) 0.9732(3) 0.0298(7)
H3_2 H 0.2071 0.9914 0.0211
N4_2 N 0.0730(12) 0.9176(3) 0.4397(7)
C17_2 C 0.0414(13) 0.9516(3) 0.3886(8)
H13_2 H 0.1146 0.9568 0.3410
H14_2 H 0.0000 0.8894 0.5489
C4_2 C 0.4748(14) 0.9126(3) 0.9908(7)
H2_3 H 0.5000 0.8894 0.9511
C5_2 C 0.3378(13) 0.9394(3) 0.9727(7)
C7_2 C 0.2318(15) 0.9338(3) 0.8941(8)
O8_2 O 0.7458(9) 0.0401(2) 0.3500(5)
O9_2 O 0.9988(10) 0.0301(2) 0.2912(5)
O18_2 O 0.8432(9) 0.1308(2) 0.3169(4)
O22_2 O 0.5631(9) 0.1175(2) 0.4459(5)
N5 N 0.5204(17) 0.1056(4) 0.5896(8)
C15_2 C 0.8829(14) 0.0200(3) 0.3418(8)
C25 C 0.5608(15) 0.0941(4) 0.5131(9)
H17 H 0.5932 0.0640 0.5059
C26 C 0.5216(17) 0.0734(6) 0.6640(10)
H18 H 0.5639 0.0447 0.6437
H19 H 0.4079 0.0697 0.6864
H20 H 0.5939 0.0846 0.7106
C27 C 0.409(3) 0.1438(7) 0.6068(14)
H21 H 0.4110 0.1639 0.5566
H22 H 0.4473 0.1596 0.6590
H23 H 0.2948 0.1332 0.6161
C16_2 C 0.9074(13) 0.9805(3) 0.3998(7)
C18_2 C 0.9748(14) 0.9126(3) 0.5092(7)
H14_3 H 1.0000 0.8894 0.5489
C19_2 C 0.8378(13) 0.9394(3) 0.5273(7)
C20_2 C 0.8025(14) 0.9732(3) 0.4702(7)
H15_2 H 0.7071 0.9914 0.4789
C21_2 C 0.7318(15) 0.9338(3) 0.6059(8)
H8_2 H 0.0921 0.5697 0.1864
C14_2 C 0.091(3) 0.6438(7) 0.1068(14)
H10_2 H 0.0890 0.6639 0.0566
H11_2 H 0.0527 0.6596 0.1590
H12_2 H 0.2052 0.6332 0.1161
O8_3 O 0.2542(9) 0.5401(2) 0.6500(5)
O9_3 O 0.0012(10) 0.5301(2) 0.7088(5)
O10_2 O 0.5012(10) 0.5301(2) 0.7912(5)
O11_2 O 0.3919(9) 0.4580(2) 0.3850(5)
O12_2 O 0.1081(9) 0.5420(2) 0.8850(5)
O13_2 O 0.6081(9) 0.5420(2) 0.6150(5)
O14_2 O 0.2360(9) 0.4031(2) 0.3372(5)
O16_2 O 0.2640(9) 0.5969(2) 0.8372(5)
O21_2 O 0.4877(10) 0.6695(2) 0.7305(5)
O22_3 O 0.4369(9) 0.6175(2) 0.5541(5)
N5_2 N 0.4796(17) 0.6056(4) 0.4104(8)
C15_3 C 0.1171(14) 0.5200(3) 0.6582(8)
C16_3 C 0.0926(13) 0.4805(3) 0.6002(7)
C18_3 C 0.0252(14) 0.4126(3) 0.4908(7)
H14_4 H 0.0000 0.3894 0.4511
C19_3 C 0.1622(13) 0.4394(3) 0.4727(7)
C20_3 C 0.1975(14) 0.4732(3) 0.5298(7)
H15_3 H 0.2929 0.4914 0.5211
C21_3 C 0.2682(15) 0.4338(3) 0.3941(8)
C25_2 C 0.4392(15) 0.5941(4) 0.4869(9)
H17_2 H 0.4068 0.5640 0.4941
C26_2 C 0.4784(17) 0.5734(6) 0.3360(10)
H18_2 H 0.4361 0.5447 0.3563
H19_2 H 0.5921 0.5697 0.3136
H20_2 H 0.4061 0.5846 0.2894
C27_2 C 0.591(3) 0.6438(7) 0.3932(14)
H21_2 H 0.5890 0.6639 0.4434
H22_2 H 0.5527 0.6596 0.3410
H23_2 H 0.7052 0.6332 0.3839
O3_2 O 0.8919(9) 0.4580(2) 0.1150(5)
O4_2 O 0.7360(9) 0.4031(2) 0.1628(5)
N3_2 N 0.9796(17) 0.6056(4) 0.0896(8)
C4_3 C 0.5252(14) 0.4126(3) 0.0092(7)
H2_4 H 0.5000 0.3894 0.0489
C5_3 C 0.6622(13) 0.4394(3) 0.0273(7)
C7_3 C 0.7682(15) 0.4338(3) 0.1059(8)
C12_2 C 0.9392(15) 0.5941(4) 0.0131(9)
H6_2 H 0.9068 0.5640 0.0059
C13_2 C 0.9784(17) 0.5734(6) 0.1640(10)
H7_2 H 0.9361 0.5447 0.1437
H9_2 H 0.9061 0.5846 0.2106
O1_3 O 0.7542(9) 0.5401(2) 0.8500(5)
O5_3 O 0.6568(9) 0.6308(2) 0.8169(4)
O7_3 O 0.9369(9) 0.6175(2) 0.9459(5)
N1_3 N 0.4270(12) 0.4176(3) 0.9397(7)
N2_3 N 0.7915(16) 0.7500 0.9469(8)
C1_3 C 0.6171(14) 0.5200(3) 0.8418(8)
C2_3 C 0.5926(13) 0.4805(3) 0.8998(7)
C3_3 C 0.4586(13) 0.4516(3) 0.8886(8)
H1_3 H 0.3854 0.4568 0.8410
C6_3 C 0.6975(14) 0.4732(3) 0.9702(7)
H3_3 H 0.7929 0.4914 0.9789
C8_3 C 0.5943(14) 0.6680(3) 0.7900(8)
C9_3 C 0.6480(14) 0.7104(3) 0.8314(8)
C10_3 C 0.7420(13) 0.7123(3) 0.9083(8)
H4_3 H 0.7730 0.6851 0.9350
C11_3 C 0.5997(18) 0.7500 0.7954(10)
H5_3 H 0.5318 0.7500 0.7446
O15_2 O 0.7640(9) 0.5969(2) 0.6628(5)
N4_3 N 0.9270(12) 0.4176(3) 0.5603(7)
C17_3 C 0.9586(13) 0.4516(3) 0.6114(8)
H13_3 H 0.8854 0.4568 0.6590
H14_5 H 1.0000 0.3894 0.4511
C22_3 C 0.5943(14) 0.8320(3) 0.7900(8)
C23_3 C 0.6480(14) 0.7896(3) 0.8314(8)
C24_3 C 0.7420(13) 0.7877(3) 0.9083(8)
H16_3 H 0.7730 0.8149 0.9350
O6_2 O 0.0123(10) 0.3305(2) 0.2305(5)
N1_4 N 0.0730(12) 0.5824(3) 0.4397(7)
C3_4 C 0.0414(13) 0.5484(3) 0.3886(8)
H1_4 H 0.1146 0.5432 0.3410
H2_5 H 0.0000 0.6106 0.5489
O1_4 O 0.7458(9) 0.4599(2) 0.3500(5)
O2_2 O 0.9988(10) 0.4699(2) 0.2912(5)
O5_4 O 0.8432(9) 0.3692(2) 0.3169(4)
O7_4 O 0.5631(9) 0.3825(2) 0.4459(5)
N2_4 N 0.7085(16) 0.2500 0.4469(8)
N3_3 N 0.5204(17) 0.3944(4) 0.5896(8)
C1_4 C 0.8829(14) 0.4800(3) 0.3418(8)
C2_4 C 0.9074(13) 0.5195(3) 0.3998(7)
C4_4 C 0.9748(14) 0.5874(3) 0.5092(7)
H2_6 H 1.0000 0.6106 0.5489
C5_4 C 0.8378(13) 0.5606(3) 0.5273(7)
C6_4 C 0.8025(14) 0.5268(3) 0.4702(7)
H3_4 H 0.7071 0.5086 0.4789
C7_4 C 0.7318(15) 0.5662(3) 0.6059(8)
C8_4 C 0.9057(14) 0.3320(3) 0.2900(8)
C9_4 C 0.8520(14) 0.2896(3) 0.3314(8)
C10_4 C 0.7580(13) 0.2877(3) 0.4083(8)
H4_4 H 0.7270 0.3149 0.4350
C11_4 C 0.9003(18) 0.2500 0.2954(10)
H5_4 H 0.9682 0.2500 0.2446
C12_3 C 0.5608(15) 0.4059(4) 0.5131(9)
H6_3 H 0.5932 0.4360 0.5059
C13_3 C 0.5216(17) 0.4266(6) 0.6640(10)
H7_3 H 0.5639 0.4553 0.6437
H8_3 H 0.4079 0.4303 0.6864
H9_3 H 0.5939 0.4154 0.7106
C14_3 C 0.409(3) 0.3562(7) 0.6068(14)
H10_3 H 0.4110 0.3361 0.5566
H11_3 H 0.4473 0.3404 0.6590
H12_3 H 0.2948 0.3668 0.6161
O8_4 O 0.2458(9) 0.4599(2) 0.1500(5)
O9_4 O 0.4988(10) 0.4699(2) 0.2088(5)
O22_4 O 0.0631(9) 0.3825(2) 0.0541(5)
N4_4 N 0.5730(12) 0.5824(3) 0.0603(7)
C15_4 C 0.3829(14) 0.4800(3) 0.1582(8)
C16_4 C 0.4074(13) 0.5195(3) 0.1002(7)
C17_4 C 0.5414(13) 0.5484(3) 0.1114(8)
H13_4 H 0.6146 0.5432 0.1590
C20_4 C 0.3025(14) 0.5268(3) 0.0298(7)
H15_4 H 0.2071 0.5086 0.0211
C22_4 C 0.9057(14) 0.1680(3) 0.2900(8)
C23_4 C 0.8520(14) 0.2104(3) 0.3314(8)
C24_4 C 0.7580(13) 0.2123(3) 0.4083(8)
H16_4 H 0.7270 0.1851 0.4350
N5_3 N 0.0204(17) 0.3944(4) 0.9104(8)
C18_4 C 0.4748(14) 0.5874(3) 0.9908(7)
H14_6 H 0.5000 0.6106 0.9511
C19_4 C 0.3378(13) 0.5606(3) 0.9727(7)
C21_4 C 0.2318(15) 0.5662(3) 0.8941(8)
C25_3 C 0.0608(15) 0.4059(4) 0.9869(9)
H17_3 H 0.0932 0.4360 0.9941
C26_3 C 0.0216(17) 0.4266(6) 0.8360(10)
H18_3 H 0.0639 0.4553 0.8563
H20_3 H 0.0939 0.4154 0.7894
H19_3 H 0.9079 0.4303 0.8136
C27_3 C 0.909(3) 0.3562(7) 0.8932(14)
H21_3 H 0.9110 0.3361 0.9434
H22_3 H 0.9473 0.3404 0.8410
H23_3 H 0.7948 0.3668 0.8839
H19_4 H 0.0921 0.9303 0.1864
C27_4 C 0.091(3) 0.8562(7) 0.1068(14)
H21_4 H 0.0890 0.8361 0.0566
H22_4 H 0.0527 0.8404 0.1590
H23_4 H 0.2052 0.8668 0.1161
N5_4 N 0.9796(17) 0.8944(4) 0.0896(8)
C25_4 C 0.9392(15) 0.9059(4) 0.0131(9)
H17_4 H 0.9068 0.9360 0.0059
C26_4 C 0.9784(17) 0.9266(6) 0.1640(10)
H18_4 H 0.9361 0.9553 0.1437
H20_4 H 0.9061 0.9154 0.2106
N3_4 N 0.0204(17) 0.1056(4) 0.9104(8)
C12_4 C 0.0608(15) 0.0941(4) 0.9869(9)
H6_4 H 0.0932 0.0640 0.9941
C13_4 C 0.0216(17) 0.0734(6) 0.8360(10)
H7_4 H 0.0639 0.0447 0.8563
H9_4 H 0.0939 0.0846 0.7894
H8_4 H 0.9079 0.0697 0.8136
C14_4 C 0.909(3) 0.1438(7) 0.8932(14)
H10_4 H 0.9110 0.1639 0.9434
H11_4 H 0.9473 0.1596 0.8410
H12_4 H 0.7948 0.1332 0.8839
loop_
_geom_bond_atom_site_label_1
_geom_bond_atom_site_label_2
_geom_bond_site_symmetry_1
_geom_bond_site_symmetry_2
Eu9 O14 1_555 1_555
O11 C21 1_555 1_555
O14 C21 1_555 1_555
H14 C18 1_555 1_555
C19 C18 1_555 1_555
C21 C19 1_555 1_555
O3 C7 1_555 1_555
O4 C7 1_555 1_555
H2 C4 1_555 1_555
C5 C4 1_555 1_555
C6 C2 1_555 1_555
H3 C6 1_555 1_555
C7 C5 1_555 1_555
Eu9 O3 1_555 1_555
Eu8 O4 1_555 1_555
N4 C17 1_555 1_555
C17 C16 1_555 1_555
H13 C17 1_555 1_555
C20 C16 1_555 1_555
H15 C20 1_555 1_555
C5 C6 1_555 1_555
Eu1 O1 1_555 1_555
O1 C1 1_555 1_555
O10 C1 1_555 1_555
O5 Eu1 1_555 1_555
O7 Eu1 1_555 1_555
N2 C10 1_555 1_555
N3 C12 1_555 1_555
C8 O5 1_555 1_555
C9 C8 1_555 1_555
C10 C9 1_555 1_555
H4 C10 1_555 1_555
C11 C9 1_555 1_555
H5 C11 1_555 1_555
C12 O7 1_555 1_555
H6 C12 1_555 1_555
C13 N3 1_555 1_555
H7 C13 1_555 1_555
H8 C13 1_555 1_555
H9 C13 1_555 1_555
C14 N3 1_555 1_555
H10 C14 1_555 1_555
H11 C14 1_555 1_555
H12 C14 1_555 1_555
Eu2 O8 1_555 1_555
Eu6 O17 1_555 1_555
O8 C15 1_555 1_555
O9 Eu1 1_555 1_555
O12 Eu1 1_555 1_555
O15 Eu1 1_555 1_555
O16 Eu2 1_555 1_555
O17 C22 1_555 1_555
O18 Eu2 1_555 1_555
O20 Eu1 1_555 1_555
O21 Eu2 1_555 1_555
O22 Eu2 1_555 1_555
C15 O9 1_555 1_555
C22 C23 1_555 1_555
C23 C11 1_555 1_555
C24 N2 1_555 1_555
H16 C24 1_555 1_555
C23 C24 1_555 1_555
N1 C3 1_555 1_555
C3 H1 1_555 1_555
Eu7 O19 1_555 1_555
Eu8 O1_2 1_555 1_555
O1_2 C1_2 1_555 1_555
O2 C1_2 1_555 1_555
O5_2 Eu8 1_555 1_555
O6 C8_2 1_555 1_555
O7_2 Eu8 1_555 1_555
N2_2 C10_2 1_555 1_555
C8_2 O5_2 1_555 1_555
C9_2 C8_2 1_555 1_555
C10_2 C9_2 1_555 1_555
H4_2 C10_2 1_555 1_555
C11_2 C9_2 1_555 1_555
H5_2 C11_2 1_555 1_555
Eu9 O2 1_555 1_555
Eu6_2 O17_2 1_555 1_555
Eu7_2 O19_2 1_555 1_555
O17_2 C22_2 1_555 1_555
O19_2 C22_2 1_555 1_555
O20_2 Eu8 1_555 1_555
C22_2 C23_2 1_555 1_555
C23_2 C11_2 1_555 1_555
C24_2 N2_2 1_555 1_555
H16_2 C24_2 1_555 1_555
O6 Eu9 1_555 1_555
C23_2 C24_2 1_555 1_555
N1_2 C3_2 1_555 1_555
C2_2 C3_2 1_555 1_555
C3_2 H1_2 1_555 1_555
C6_2 C2_2 1_555 1_555
H3_2 C6_2 1_555 1_555
N4_2 C17_2 1_555 1_555
H13_2 C17_2 1_555 1_555
O13 C7_2 1_555 1_555
O15 C7_2 1_555 1_555
H2_3 C4_2 1_555 1_555
C5_2 C4_2 1_555 1_555
C7_2 C5_2 1_555 1_555
Eu9 O8_2 1_555 1_555
O8_2 C15_2 1_555 1_555
O18_2 Eu9 1_555 1_555
O22_2 Eu9 1_555 1_555
N5 C25 1_555 1_555
C15_2 O9_2 1_555 1_555
C25 O22_2 1_555 1_555
H17 C25 1_555 1_555
C26 N5 1_555 1_555
H18 C26 1_555 1_555
H19 C26 1_555 1_555
H20 C26 1_555 1_555
C27 N5 1_555 1_555
H21 C27 1_555 1_555
H22 C27 1_555 1_555
H23 C27 1_555 1_555
O12 C21_2 1_555 1_555
O16 C21_2 1_555 1_555
H14_3 C18_2 1_555 1_555
C19_2 C18_2 1_555 1_555
C20_2 C16_2 1_555 1_555
H15_2 C20_2 1_555 1_555
C21_2 C19_2 1_555 1_555
C19_2 C20_2 1_555 1_555
H10_2 C14_2 1_555 1_555
H11_2 C14_2 1_555 1_555
H12_2 C14_2 1_555 1_555
Eu6 O8_3 1_555 1_555
Eu7_2 O11_2 1_555 1_555
Eu6_2 O14_2 1_555 1_555
O8_3 C15_3 1_555 1_555
O10_2 Eu6 1_555 1_555
O11_2 C21_3 1_555 1_555
O13_2 Eu6 1_555 1_555
O14_2 C21_3 1_555 1_555
O16_2 Eu6 1_555 1_555
O21_2 Eu6 1_555 1_555
O22_3 Eu6 1_555 1_555
N5_2 C25_2 1_555 1_555
C15_3 O9_3 1_555 1_555
C16_3 C15_3 1_555 1_555
H14_4 C18_3 1_555 1_555
C19_3 C18_3 1_555 1_555
C20_3 C16_3 1_555 1_555
H15_3 C20_3 1_555 1_555
C21_3 C19_3 1_555 1_555
C25_2 O22_3 1_555 1_555
H17_2 C25_2 1_555 1_555
C26_2 N5_2 1_555 1_555
H18_2 C26_2 1_555 1_555
H19_2 C26_2 1_555 1_555
H20_2 C26_2 1_555 1_555
C27_2 N5_2 1_555 1_555
H21_2 C27_2 1_555 1_555
H22_2 C27_2 1_555 1_555
H23_2 C27_2 1_555 1_555
C19_3 C20_3 1_555 1_555
O3_2 C7_3 1_555 1_555
O4_2 C7_3 1_555 1_555
N3_2 C12_2 1_555 1_555
H2_4 C4_3 1_555 1_555
C5_3 C4_3 1_555 1_555
C7_3 C5_3 1_555 1_555
H6_2 C12_2 1_555 1_555
C13_2 N3_2 1_555 1_555
H7_2 C13_2 1_555 1_555
H9_2 C13_2 1_555 1_555
Eu7_2 O4_2 1_555 1_555
Eu7 O1_3 1_555 1_555
O1_3 C1_3 1_555 1_555
O10_2 C1_3 1_555 1_555
O5_3 Eu7 1_555 1_555
O21_2 C8_3 1_555 1_555
O7_3 Eu7 1_555 1_555
N1_3 C3_3 1_555 1_555
N2_3 C10_3 1_555 1_555
C1_3 C2_3 1_555 1_555
C2_3 C3_3 1_555 1_555
C3_3 H1_3 1_555 1_555
C6_3 C2_3 1_555 1_555
H3_3 C6_3 1_555 1_555
C8_3 O5_3 1_555 1_555
C9_3 C8_3 1_555 1_555
C10_3 C9_3 1_555 1_555
H4_3 C10_3 1_555 1_555
C11_3 C9_3 1_555 1_555
H5_3 C11_3 1_555 1_555
O15_2 Eu7 1_555 1_555
O18 C22_3 1_555 1_555
O20 C22_3 1_555 1_555
N4_3 C17_3 1_555 1_555
H13_3 C17_3 1_555 1_555
C22_3 C23_3 1_555 1_555
C23_3 C11_3 1_555 1_555
C24_3 N2_3 1_555 1_555
H16_3 C24_3 1_555 1_555
C23_3 C24_3 1_555 1_555
N1_4 C3_4 1_555 1_555
C3_4 H1_4 1_555 1_555
O6_2 Eu6_2 1_555 1_555
Eu7_2 O1_4 1_555 1_555
O1_4 C1_4 1_555 1_555
O2_2 C1_4 1_555 1_555
O13_2 C7_4 1_555 1_555
O15_2 C7_4 1_555 1_555
O5_4 Eu7_2 1_555 1_555
O7_4 Eu7_2 1_555 1_555
N2_4 C10_4 1_555 1_555
N3_3 C12_3 1_555 1_555
C1_4 C2_4 1_555 1_555
H2_6 C4_4 1_555 1_555
C5_4 C4_4 1_555 1_555
C6_4 C2_4 1_555 1_555
H3_4 C6_4 1_555 1_555
C7_4 C5_4 1_555 1_555
C8_4 O5_4 1_555 1_555
C9_4 C8_4 1_555 1_555
C10_4 C9_4 1_555 1_555
H4_4 C10_4 1_555 1_555
C11_4 C9_4 1_555 1_555
H5_4 C11_4 1_555 1_555
C12_3 O7_4 1_555 1_555
H6_3 C12_3 1_555 1_555
C13_3 N3_3 1_555 1_555
H7_3 C13_3 1_555 1_555
H8_3 C13_3 1_555 1_555
H9_3 C13_3 1_555 1_555
C14_3 N3_3 1_555 1_555
H10_3 C14_3 1_555 1_555
H11_3 C14_3 1_555 1_555
H12_3 C14_3 1_555 1_555
Eu6_2 O8_4 1_555 1_555
O8_4 C15_4 1_555 1_555
O9_4 Eu7_2 1_555 1_555
O18_2 C22_4 1_555 1_555
O22_4 Eu6_2 1_555 1_555
N4_4 C17_4 1_555 1_555
C15_4 O9_4 1_555 1_555
C16_4 C15_4 1_555 1_555
C17_4 C16_4 1_555 1_555
H13_4 C17_4 1_555 1_555
C20_4 C16_4 1_555 1_555
H15_4 C20_4 1_555 1_555
C22_4 C23_4 1_555 1_555
C23_4 C11_4 1_555 1_555
C24_4 N2_4 1_555 1_555
H16_4 C24_4 1_555 1_555
C5_4 C6_4 1_555 1_555
C23_4 C24_4 1_555 1_555
O12_2 C21_4 1_555 1_555
O16_2 C21_4 1_555 1_555
N5_3 C25_3 1_555 1_555
H14_6 C18_4 1_555 1_555
C19_4 C18_4 1_555 1_555
C21_4 C19_4 1_555 1_555
H17_3 C25_3 1_555 1_555
C26_3 N5_3 1_555 1_555
H18_3 C26_3 1_555 1_555
H20_3 C26_3 1_555 1_555
H21_3 C27_3 1_555 1_555
H22_3 C27_3 1_555 1_555
H23_3 C27_3 1_555 1_555
H21_4 C27_4 1_555 1_555
H22_4 C27_4 1_555 1_555
H23_4 C27_4 1_555 1_555
N5_4 C25_4 1_555 1_555
H17_4 C25_4 1_555 1_555
C26_4 N5_4 1_555 1_555
H18_4 C26_4 1_555 1_555
H20_4 C26_4 1_555 1_555
N3_4 C12_4 1_555 1_555
H6_4 C12_4 1_555 1_555
C13_4 N3_4 1_555 1_555
H7_4 C13_4 1_555 1_555
H9_4 C13_4 1_555 1_555
H10_4 C14_4 1_555 1_555
H11_4 C14_4 1_555 1_555
H12_4 C14_4 1_555 1_555

#END
