
###############################################################################
#
# This file contains modified crystal structure data generated from the
# MOF subset of the Cambridge Structural Database (CSD) v543 
# hosted by the Cambridge Crystallographic Data Centre (CCDC).
#
# This work is licensed under the Creative Commons
# Attribution-NonCommercial-ShareAlike 4.0 International License.
# To view a copy of this license, visit
# http://creativecommons.org/licenses/by-nc-sa/4.0/
# or send a letter to
# Creative Commons, PO Box 1866, Mountain View, CA 94042, USA.
#
# CIF created using the CSD Python API on 29 September 2022
# The structure has been converted into the P1 space group
# The structure has a 3D framework
# The original CSD entry MOSGIM is in the orthorhombic crystal system
# The framework has been calculated to contain at least 10.0% void space
# The void calculation uses a probe of radius 1.32A, grid spacing 0.4
#
###############################################################################

data_MOSGIM
_chemical_formula_moiety         '(C192 H104 N16 O69 Zn16)n'
_symmetry_cell_setting           triclinic
_symmetry_space_group_name_H-M   'P 1'
_symmetry_Int_Tables_number      1
_space_group_name_Hall           'P 1'
loop_
_symmetry_equiv_pos_site_id
_symmetry_equiv_pos_as_xyz
1 x,y,z
_cell_length_a                   13.870(3)
_cell_length_b                   19.023(4)
_cell_length_c                   19.238(4)
_cell_angle_alpha                90
_cell_angle_beta                 90
_cell_angle_gamma                90
_cell_volume                     5075.93
loop_
_atom_site_label
_atom_site_type_symbol
_atom_site_fract_x
_atom_site_fract_y
_atom_site_fract_z
Zn10 Zn 0.13548(4) 0.10322(3) 0.06744(3)
Zn1 Zn 0.09564(4) 0.51621(3) 0.45568(3)
Zn2 Zn 0.13548(4) 0.39678(3) 0.56744(3)
C1 C 0.1227(5) 0.6608(3) 0.5365(3)
H1 H 0.1165 0.6334 0.5762
C2 C 0.1386(6) 0.7320(4) 0.5445(5)
H2 H 0.1451 0.7522 0.5883
C3 C 0.1444(6) 0.7720(4) 0.4849(5)
H3 H 0.1534 0.8203 0.4883
C4 C 0.1369(5) 0.7412(3) 0.4202(4)
C5 C 0.1437(6) 0.7836(4) 0.3541(5)
C6 C 0.1463(5) 0.7447(4) 0.2838(4)
C7 C 0.1380(4) 0.6672(3) 0.2858(3)
C8 C 0.1442(5) 0.6275(4) 0.2241(3)
H4 H 0.1516 0.6498 0.1813
C9 C 0.1393(6) 0.5565(4) 0.2278(3)
H5 H 0.1444 0.5292 0.1879
C10 C 0.1265(5) 0.5252(4) 0.2926(3)
H6 H 0.1227 0.4764 0.2945
C11 C 0.1258(4) 0.6311(3) 0.3489(3)
C12 C 0.1241(4) 0.6686(3) 0.4161(3)
C13 C 0.0889(5) 0.1823(3) 0.7995(3)
H7 H 0.0767 0.1356 0.7884
C14 C 0.0943(5) 0.2322(3) 0.7467(3)
H8 H 0.0887 0.2183 0.7005
C15 C 0.1078(4) 0.3019(3) 0.7627(3)
C16 C 0.1161(5) 0.3209(3) 0.8323(3)
H9 H 0.1237 0.3681 0.8436
C17 C 0.1133(5) 0.2716(3) 0.8853(3)
H10 H 0.1193 0.2857 0.9313
C18 C 0.1017(4) 0.2014(3) 0.8692(3)
C19 C 0.1029(4) 0.1466(3) 0.9258(3)
C20 C 0.1140(4) 0.3556(3) 0.7051(3)
C21 C 0.4022(4) 0.4856(3) 0.5084(3)
C22 C 0.4333(4) 0.5402(3) 0.4663(4)
H11 H 0.3882 0.5678 0.4432
C23 C 0.5294(4) 0.5540(3) 0.4580(4)
H12 H 0.5486 0.5906 0.4292
C24 C 0.2969(4) 0.4711(3) 0.5151(3)
N1 N 0.1157(3) 0.6291(2) 0.4746(2)
N2 N 0.1194(3) 0.5610(2) 0.3525(2)
O1 O 0.1127(3) 0.3322(2) 0.6431(2)
O2 O 0.1206(4) 0.4185(2) 0.7205(2)
O3 O 0.1170(3) 0.16730(19) 0.98773(18)
O4 O 0.0904(3) 0.08377(19) 0.90803(18)
O5 O 0.2720(2) 0.42453(19) 0.55980(19)
O6 O 0.2413(3) 0.5058(2) 0.4773(2)
O7 O 0.0555(2) 0.48098(17) 0.55627(16)
H13 H 0.0749 0.5162 0.5907
O8 O 0.1496(6) 0.8481(3) 0.3550(4)
O9 O 0.1551(4) 0.7782(3) 0.2290(3)
C25 C 0.5978(4) 0.5144(3) 0.4916(3)
C26 C 0.5667(4) 0.4598(3) 0.5337(4)
H14 H 0.6118 0.4322 0.5568
C27 C 0.4706(4) 0.4460(3) 0.5420(4)
H15 H 0.4514 0.4094 0.5708
C28 C 0.7031(4) 0.5289(3) 0.4849(3)
O10 O 0.7280(2) 0.57547(19) 0.44020(19)
O11 O 0.7587(3) 0.4942(2) 0.5227(2)
Zn6 Zn 0.90436(4) 0.48379(3) 0.54432(3)
Zn9 Zn 0.86452(4) 0.60322(3) 0.43256(3)
O20 O 0.1170(3) 0.33270(19) 0.48773(18)
O22 O 0.0904(3) 0.41623(19) 0.40803(18)
Zn7 Zn 0.09564(4) 0.98379(3) 0.95568(3)
Zn5 Zn 0.90436(4) 0.01621(3) 0.04432(3)
C29 C 0.8773(5) 0.3392(3) 0.4635(3)
H16 H 0.8835 0.3666 0.4238
C30 C 0.8614(6) 0.2680(4) 0.4555(5)
H17 H 0.8549 0.2478 0.4117
C31 C 0.8556(6) 0.2280(4) 0.5151(5)
H18 H 0.8466 0.1797 0.5117
C32 C 0.8631(5) 0.2588(3) 0.5798(4)
C33 C 0.8563(6) 0.2164(4) 0.6459(5)
C34 C 0.8537(5) 0.2553(4) 0.7162(4)
C35 C 0.8620(4) 0.3328(3) 0.7142(3)
C36 C 0.8558(5) 0.3725(4) 0.7759(3)
H19 H 0.8484 0.3502 0.8187
C37 C 0.8607(6) 0.4435(4) 0.7722(3)
H20 H 0.8556 0.4708 0.8121
C38 C 0.8735(5) 0.4748(4) 0.7074(3)
H21 H 0.8773 0.5236 0.7055
C39 C 0.8742(4) 0.3689(3) 0.6511(3)
C40 C 0.8759(4) 0.3314(3) 0.5839(3)
C41 C 0.9111(5) 0.8177(3) 0.2005(3)
H22 H 0.9233 0.8644 0.2116
C42 C 0.9057(5) 0.7678(3) 0.2533(3)
H23 H 0.9113 0.7817 0.2995
C43 C 0.8922(4) 0.6981(3) 0.2373(3)
C44 C 0.8839(5) 0.6791(3) 0.1677(3)
H24 H 0.8763 0.6319 0.1564
C45 C 0.8867(5) 0.7284(3) 0.1147(3)
H25 H 0.8807 0.7143 0.0687
C46 C 0.8983(4) 0.7986(3) 0.1308(3)
C47 C 0.8971(4) 0.8534(3) 0.0742(3)
C48 C 0.8860(4) 0.6444(3) 0.2949(3)
N3 N 0.8843(3) 0.3709(2) 0.5254(2)
N4 N 0.8806(3) 0.4390(2) 0.6475(2)
O12 O 0.8873(3) 0.6678(2) 0.3569(2)
O13 O 0.8794(4) 0.5815(2) 0.2795(2)
O14 O 0.8830(3) 0.83270(19) 0.01227(18)
O15 O 0.9096(3) 0.91623(19) 0.09197(18)
O16 O 0.9445(2) 0.51902(17) 0.44373(16)
H26 H 0.9251 0.4838 0.4093
O17 O 0.8504(6) 0.1519(3) 0.6450(4)
O18 O 0.8449(4) 0.2218(3) 0.7710(3)
O19 O 0.8830(3) 0.66730(19) 0.51227(18)
O21 O 0.9096(3) 0.58377(19) 0.59197(18)
Zn8 Zn 0.86452(4) 0.89678(3) 0.93256(3)
C41_2 C 0.0889(5) 0.3177(3) 0.2995(3)
H22_2 H 0.0767 0.3644 0.2884
C42_2 C 0.0943(5) 0.2678(3) 0.2467(3)
H23_2 H 0.0887 0.2817 0.2005
C43_2 C 0.1078(4) 0.1981(3) 0.2627(3)
C44_2 C 0.1161(5) 0.1791(3) 0.3323(3)
H24_2 H 0.1237 0.1319 0.3436
C45_2 C 0.1133(5) 0.2284(3) 0.3853(3)
H25_2 H 0.1193 0.2143 0.4313
C46_2 C 0.1017(4) 0.2986(3) 0.3692(3)
C47_2 C 0.1029(4) 0.3534(3) 0.4258(3)
C48_2 C 0.1140(4) 0.1444(3) 0.2051(3)
O12_2 O 0.1127(3) 0.1678(2) 0.1431(2)
O13_2 O 0.1206(4) 0.0815(2) 0.2205(2)
O16_2 O 0.0555(2) 0.01902(17) 0.05627(16)
O23 O 0.2720(2) 0.07547(19) 0.05980(19)
H21_2 H 0.1227 0.0236 0.7945
C31_2 C 0.1444(6) 0.7280(4) 0.9849(5)
H18_2 H 0.1534 0.6797 0.9883
C32_2 C 0.1369(5) 0.7588(3) 0.9202(4)
C33_2 C 0.1437(6) 0.7164(4) 0.8541(5)
C34_2 C 0.1463(5) 0.7553(4) 0.7838(4)
C35_2 C 0.1380(4) 0.8328(3) 0.7858(3)
C36_2 C 0.1442(5) 0.8725(4) 0.7241(3)
H19_2 H 0.1516 0.8502 0.6813
C37_2 C 0.1393(6) 0.9435(4) 0.7278(3)
H20_2 H 0.1444 0.9708 0.6879
C38_2 C 0.1265(5) 0.9748(4) 0.7926(3)
C39_2 C 0.1258(4) 0.8689(3) 0.8489(3)
C40_2 C 0.1241(4) 0.8314(3) 0.9161(3)
N3_2 N 0.1157(3) 0.8709(2) 0.9746(2)
N4_2 N 0.1194(3) 0.9390(2) 0.8525(2)
O17_2 O 0.1496(6) 0.6519(3) 0.8550(4)
O18_2 O 0.1551(4) 0.7218(3) 0.7290(3)
O24 O 0.2413(3) 0.9942(2) 0.9773(2)
C3_2 C 0.8556(6) 0.2720(4) 0.0151(5)
H3_2 H 0.8466 0.3203 0.0117
C4_2 C 0.8631(5) 0.2412(3) 0.0798(4)
C5_2 C 0.8563(6) 0.2836(4) 0.1459(5)
C6_2 C 0.8537(5) 0.2447(4) 0.2162(4)
C7_2 C 0.8620(4) 0.1672(3) 0.2142(3)
C8_2 C 0.8558(5) 0.1275(4) 0.2759(3)
H4_2 H 0.8484 0.1498 0.3187
C9_2 C 0.8607(6) 0.0565(4) 0.2722(3)
H5_2 H 0.8556 0.0292 0.3121
C10_2 C 0.8735(5) 0.0252(4) 0.2074(3)
C11_2 C 0.8742(4) 0.1311(3) 0.1511(3)
C12_2 C 0.8759(4) 0.1686(3) 0.0839(3)
C22_2 C 0.5667(4) 0.0402(3) 0.0337(4)
H11_2 H 0.6118 0.0678 0.0568
C23_2 C 0.4706(4) 0.0540(3) 0.0420(4)
H12_2 H 0.4514 0.0906 0.0708
N1_2 N 0.8843(3) 0.1291(2) 0.0254(2)
N2_2 N 0.8806(3) 0.0610(2) 0.1475(2)
O6_2 O 0.7587(3) 0.0058(2) 0.0227(2)
O8_2 O 0.8504(6) 0.3481(3) 0.1450(4)
O9_2 O 0.8449(4) 0.2782(3) 0.2710(3)
C25_2 C 0.4022(4) 0.0144(3) 0.0084(3)
C28_2 C 0.2969(4) 0.0289(3) 0.0151(3)
H6_2 H 0.8773 0.9764 0.2055
C13_2 C 0.9111(5) 0.6823(3) 0.7005(3)
H7_2 H 0.9233 0.6356 0.7116
C14_2 C 0.9057(5) 0.7322(3) 0.7533(3)
H8_2 H 0.9113 0.7183 0.7995
C15_2 C 0.8922(4) 0.8019(3) 0.7373(3)
C16_2 C 0.8839(5) 0.8209(3) 0.6677(3)
H9_2 H 0.8763 0.8681 0.6564
C17_2 C 0.8867(5) 0.7716(3) 0.6147(3)
H10_2 H 0.8807 0.7857 0.5687
C18_2 C 0.8983(4) 0.7014(3) 0.6308(3)
C19_2 C 0.8971(4) 0.6466(3) 0.5742(3)
C20_2 C 0.8860(4) 0.8556(3) 0.7949(3)
C21_2 C 0.5978(4) 0.9856(3) 0.9916(3)
C24_2 C 0.7031(4) 0.9711(3) 0.9849(3)
O1_2 O 0.8873(3) 0.8322(2) 0.8569(2)
O2_2 O 0.8794(4) 0.9185(2) 0.7795(2)
O5_2 O 0.7280(2) 0.92453(19) 0.94020(19)
O7_2 O 0.9445(2) 0.98098(17) 0.94373(16)
C26_2 C 0.4333(4) 0.9598(3) 0.9663(4)
H14_2 H 0.3882 0.9322 0.9432
C27_2 C 0.5294(4) 0.9460(3) 0.9580(4)
H15_2 H 0.5486 0.9094 0.9292
Zn7_2 Zn 0.40436(4) 0.01621(3) 0.45568(3)
Zn2_2 Zn 0.36452(4) 0.60322(3) 0.06744(3)
C1_2 C 0.3773(5) 0.3392(3) 0.0365(3)
H1_2 H 0.3835 0.3666 0.0762
C2_2 C 0.3614(6) 0.2680(4) 0.0445(5)
H2_2 H 0.3549 0.2478 0.0883
C13_3 C 0.4111(5) 0.8177(3) 0.2995(3)
H7_3 H 0.4233 0.8644 0.2884
C14_3 C 0.4057(5) 0.7678(3) 0.2467(3)
H8_3 H 0.4113 0.7817 0.2005
C15_3 C 0.3922(4) 0.6981(3) 0.2627(3)
C16_3 C 0.3839(5) 0.6791(3) 0.3323(3)
H9_3 H 0.3763 0.6319 0.3436
C17_3 C 0.3867(5) 0.7284(3) 0.3853(3)
H10_3 H 0.3807 0.7143 0.4313
C18_3 C 0.3983(4) 0.7986(3) 0.3692(3)
C19_3 C 0.3971(4) 0.8534(3) 0.4258(3)
C20_3 C 0.3860(4) 0.6444(3) 0.2051(3)
C21_3 C 0.0978(4) 0.5144(3) 0.0084(3)
C24_3 C 0.2031(4) 0.5289(3) 0.0151(3)
O1_3 O 0.3873(3) 0.6678(2) 0.1431(2)
O2_3 O 0.3794(4) 0.5815(2) 0.2205(2)
O3_2 O 0.3830(3) 0.83270(19) 0.48773(18)
O4_2 O 0.4096(3) 0.91623(19) 0.40803(18)
O5_3 O 0.2280(2) 0.57547(19) 0.05980(19)
O7_3 O 0.4445(2) 0.51902(17) 0.05627(16)
H13_2 H 0.4251 0.4838 0.0907
C27_3 C 0.0294(4) 0.5540(3) 0.0420(4)
H15_3 H 0.0486 0.5906 0.0708
Zn3 Zn 0.59564(4) 0.51621(3) 0.04432(3)
C31_3 C 0.6444(6) 0.7720(4) 0.0151(5)
H18_3 H 0.6534 0.8203 0.0117
C32_3 C 0.6369(5) 0.7412(3) 0.0798(4)
C33_3 C 0.6437(6) 0.7836(4) 0.1459(5)
C34_3 C 0.6463(5) 0.7447(4) 0.2162(4)
C35_3 C 0.6380(4) 0.6672(3) 0.2142(3)
C36_3 C 0.6442(5) 0.6275(4) 0.2759(3)
H19_3 H 0.6516 0.6498 0.3187
C37_3 C 0.6393(6) 0.5565(4) 0.2722(3)
H20_3 H 0.6444 0.5292 0.3121
C38_3 C 0.6265(5) 0.5252(4) 0.2074(3)
H21_3 H 0.6227 0.4764 0.2055
C39_3 C 0.6258(4) 0.6311(3) 0.1511(3)
C40_3 C 0.6241(4) 0.6686(3) 0.0839(3)
N3_3 N 0.6157(3) 0.6291(2) 0.0254(2)
N4_3 N 0.6194(3) 0.5610(2) 0.1475(2)
O17_3 O 0.6496(6) 0.8481(3) 0.1450(4)
O18_3 O 0.6551(4) 0.7782(3) 0.2710(3)
Zn10_2 Zn 0.36452(4) 0.89678(3) 0.56744(3)
O19_2 O 0.6170(3) 0.33270(19) 0.01227(18)
O21_2 O 0.5904(3) 0.41623(19) 0.09197(18)
O24_2 O 0.7413(3) 0.5058(2) 0.0227(2)
Zn1_2 Zn 0.40436(4) 0.48379(3) 0.95568(3)
C3_3 C 0.3556(6) 0.2280(4) 0.9849(5)
H3_3 H 0.3466 0.1797 0.9883
C4_3 C 0.3631(5) 0.2588(3) 0.9202(4)
C5_3 C 0.3563(6) 0.2164(4) 0.8541(5)
C6_3 C 0.3537(5) 0.2553(4) 0.7838(4)
C7_3 C 0.3620(4) 0.3328(3) 0.7858(3)
C8_3 C 0.3558(5) 0.3725(4) 0.7241(3)
H4_3 H 0.3484 0.3502 0.6813
C9_3 C 0.3607(6) 0.4435(4) 0.7278(3)
H5_3 H 0.3556 0.4708 0.6879
C10_3 C 0.3735(5) 0.4748(4) 0.7926(3)
H6_3 H 0.3773 0.5236 0.7945
C11_3 C 0.3742(4) 0.3689(3) 0.8489(3)
C12_3 C 0.3759(4) 0.3314(3) 0.9161(3)
C22_3 C 0.0667(4) 0.4598(3) 0.9663(4)
H11_3 H 0.1118 0.4322 0.9432
N1_3 N 0.3843(3) 0.3709(2) 0.9746(2)
N2_3 N 0.3806(3) 0.4390(2) 0.8525(2)
O6_3 O 0.2587(3) 0.4942(2) 0.9773(2)
O8_3 O 0.3504(6) 0.1519(3) 0.8550(4)
O9_3 O 0.3449(4) 0.2218(3) 0.7290(3)
Zn4 Zn 0.63548(4) 0.39678(3) 0.93256(3)
C29_2 C 0.6227(5) 0.6608(3) 0.9635(3)
H16_2 H 0.6165 0.6334 0.9238
C30_2 C 0.6386(6) 0.7320(4) 0.9555(5)
H17_2 H 0.6451 0.7522 0.9117
C41_3 C 0.5889(5) 0.1823(3) 0.7005(3)
H22_3 H 0.5767 0.1356 0.7116
C42_3 C 0.5943(5) 0.2322(3) 0.7533(3)
H23_3 H 0.5887 0.2183 0.7995
C43_3 C 0.6078(4) 0.3019(3) 0.7373(3)
C44_3 C 0.6161(5) 0.3209(3) 0.6677(3)
H24_3 H 0.6237 0.3681 0.6564
C45_3 C 0.6133(5) 0.2716(3) 0.6147(3)
H25_3 H 0.6193 0.2857 0.5687
C46_3 C 0.6017(4) 0.2014(3) 0.6308(3)
C47_3 C 0.6029(4) 0.1466(3) 0.5742(3)
C48_3 C 0.6140(4) 0.3556(3) 0.7949(3)
O12_3 O 0.6127(3) 0.3322(2) 0.8569(2)
O13_3 O 0.6206(4) 0.4185(2) 0.7795(2)
O14_2 O 0.6170(3) 0.16730(19) 0.51227(18)
O15_2 O 0.5904(3) 0.08377(19) 0.59197(18)
O16_3 O 0.5555(2) 0.48098(17) 0.94373(16)
H26_2 H 0.5749 0.5162 0.9093
Zn8_2 Zn 0.63548(4) 0.10322(3) 0.43256(3)
O20_2 O 0.3830(3) 0.66730(19) 0.98773(18)
O22_2 O 0.4096(3) 0.58377(19) 0.90803(18)
O23_2 O 0.7720(2) 0.42453(19) 0.94020(19)
Zn5_2 Zn 0.59564(4) 0.98379(3) 0.54432(3)
C26_3 C 0.9333(4) 0.5402(3) 0.0337(4)
H14_3 H 0.8882 0.5678 0.0568
C23_3 C 0.9706(4) 0.4460(3) 0.9580(4)
H12_3 H 0.9514 0.4094 0.9292
C25_3 C 0.9022(4) 0.4856(3) 0.9916(3)
C28_3 C 0.7969(4) 0.4711(3) 0.9849(3)
C26_4 C 0.0667(4) 0.0402(3) 0.4663(4)
H14_4 H 0.1118 0.0678 0.4432
O11_2 O 0.2587(3) 0.0058(2) 0.4773(2)
C23_4 C 0.0294(4) 0.9460(3) 0.5420(4)
H12_4 H 0.0486 0.9094 0.5708
C25_4 C 0.0978(4) 0.9856(3) 0.5084(3)
C28_4 C 0.2031(4) 0.9711(3) 0.5151(3)
O10_2 O 0.2280(2) 0.92453(19) 0.55980(19)
H6_4 H 0.6227 0.0236 0.7055
C13_4 C 0.5889(5) 0.3177(3) 0.2005(3)
H7_4 H 0.5767 0.3644 0.2116
C14_4 C 0.5943(5) 0.2678(3) 0.2533(3)
H8_4 H 0.5887 0.2817 0.2995
C15_4 C 0.6078(4) 0.1981(3) 0.2373(3)
C16_4 C 0.6161(5) 0.1791(3) 0.1677(3)
H9_4 H 0.6237 0.1319 0.1564
C17_4 C 0.6133(5) 0.2284(3) 0.1147(3)
H10_4 H 0.6193 0.2143 0.0687
C18_4 C 0.6017(4) 0.2986(3) 0.1308(3)
C19_4 C 0.6029(4) 0.3534(3) 0.0742(3)
C20_4 C 0.6140(4) 0.1444(3) 0.2949(3)
C21_4 C 0.9022(4) 0.0144(3) 0.4916(3)
C24_4 C 0.7969(4) 0.0289(3) 0.4849(3)
O1_4 O 0.6127(3) 0.1678(2) 0.3569(2)
O2_4 O 0.6206(4) 0.0815(2) 0.2795(2)
O5_4 O 0.7720(2) 0.07547(19) 0.44020(19)
O7_4 O 0.5555(2) 0.01902(17) 0.44373(16)
C27_4 C 0.9706(4) 0.0540(3) 0.4580(4)
H15_4 H 0.9514 0.0906 0.4292
C29_3 C 0.3773(5) 0.1608(3) 0.5365(3)
H16_3 H 0.3835 0.1334 0.5762
C30_3 C 0.3614(6) 0.2320(4) 0.5445(5)
H17_3 H 0.3549 0.2522 0.5883
C31_4 C 0.3556(6) 0.2720(4) 0.4849(5)
H18_4 H 0.3466 0.3203 0.4883
C32_4 C 0.3631(5) 0.2412(3) 0.4202(4)
C33_4 C 0.3563(6) 0.2836(4) 0.3541(5)
C34_4 C 0.3537(5) 0.2447(4) 0.2838(4)
C35_4 C 0.3620(4) 0.1672(3) 0.2858(3)
C36_4 C 0.3558(5) 0.1275(4) 0.2241(3)
H19_4 H 0.3484 0.1498 0.1813
C37_4 C 0.3607(6) 0.0565(4) 0.2278(3)
H20_4 H 0.3556 0.0292 0.1879
C38_4 C 0.3735(5) 0.0252(4) 0.2926(3)
C39_4 C 0.3742(4) 0.1311(3) 0.3489(3)
C40_4 C 0.3759(4) 0.1686(3) 0.4161(3)
N3_4 N 0.3843(3) 0.1291(2) 0.4746(2)
N4_4 N 0.3806(3) 0.0610(2) 0.3525(2)
H26_3 H 0.4251 0.0162 0.5907
O17_4 O 0.3504(6) 0.3481(3) 0.3550(4)
O18_4 O 0.3449(4) 0.2782(3) 0.2290(3)
C1_3 C 0.6227(5) 0.8392(3) 0.4635(3)
H1_3 H 0.6165 0.8666 0.4238
C2_3 C 0.6386(6) 0.7680(4) 0.4555(5)
H2_3 H 0.6451 0.7478 0.4117
C3_4 C 0.6444(6) 0.7280(4) 0.5151(5)
H3_4 H 0.6534 0.6797 0.5117
C4_4 C 0.6369(5) 0.7588(3) 0.5798(4)
C5_4 C 0.6437(6) 0.7164(4) 0.6459(5)
C6_4 C 0.6463(5) 0.7553(4) 0.7162(4)
C7_4 C 0.6380(4) 0.8328(3) 0.7142(3)
C8_4 C 0.6442(5) 0.8725(4) 0.7759(3)
H4_4 H 0.6516 0.8502 0.8187
C9_4 C 0.6393(6) 0.9435(4) 0.7722(3)
H5_4 H 0.6444 0.9708 0.8121
C10_4 C 0.6265(5) 0.9748(4) 0.7074(3)
C11_4 C 0.6258(4) 0.8689(3) 0.6511(3)
C12_4 C 0.6241(4) 0.8314(3) 0.5839(3)
C22_4 C 0.9333(4) 0.9598(3) 0.5337(4)
H11_4 H 0.8882 0.9322 0.5568
N1_4 N 0.6157(3) 0.8709(2) 0.5254(2)
N2_4 N 0.6194(3) 0.9390(2) 0.6475(2)
O6_4 O 0.7413(3) 0.9942(2) 0.5227(2)
H13_3 H 0.5749 0.9838 0.4093
O8_4 O 0.6496(6) 0.6519(3) 0.6450(4)
O9_4 O 0.6551(4) 0.7218(3) 0.7710(3)
H21_4 H 0.3773 0.9764 0.2945
C41_4 C 0.4111(5) 0.6823(3) 0.7995(3)
H22_4 H 0.4233 0.6356 0.7884
C42_4 C 0.4057(5) 0.7322(3) 0.7467(3)
H23_4 H 0.4113 0.7183 0.7005
C43_4 C 0.3922(4) 0.8019(3) 0.7627(3)
C44_4 C 0.3839(5) 0.8209(3) 0.8323(3)
H24_4 H 0.3763 0.8681 0.8436
C45_4 C 0.3867(5) 0.7716(3) 0.8853(3)
H25_4 H 0.3807 0.7857 0.9313
C46_4 C 0.3983(4) 0.7014(3) 0.8692(3)
C47_4 C 0.3971(4) 0.6466(3) 0.9258(3)
C48_4 C 0.3860(4) 0.8556(3) 0.7051(3)
O12_4 O 0.3873(3) 0.8322(2) 0.6431(2)
O13_4 O 0.3794(4) 0.9185(2) 0.7205(2)
O16_4 O 0.4445(2) 0.98098(17) 0.55627(16)
C29_4 C 0.1227(5) 0.8392(3) 0.0365(3)
H16_4 H 0.1165 0.8666 0.0762
C30_4 C 0.1386(6) 0.7680(4) 0.0445(5)
H17_4 H 0.1451 0.7478 0.0883
H26_4 H 0.0749 0.9838 0.0907
C1_4 C 0.8773(5) 0.1608(3) 0.9635(3)
H1_4 H 0.8835 0.1334 0.9238
C2_4 C 0.8614(6) 0.2320(4) 0.9555(5)
H2_4 H 0.8549 0.2522 0.9117
H13_4 H 0.9251 0.0162 0.9093
loop_
_geom_bond_atom_site_label_1
_geom_bond_atom_site_label_2
_geom_bond_site_symmetry_1
_geom_bond_site_symmetry_2
Zn1 N1 1_555 1_555
Zn2 O1 1_555 1_555
C1 H1 1_555 1_555
C2 C1 1_555 1_555
H2 C2 1_555 1_555
C3 C2 1_555 1_555
H3 C3 1_555 1_555
C4 C3 1_555 1_555
C5 C4 1_555 1_555
C6 C5 1_555 1_555
C7 C6 1_555 1_555
C8 C7 1_555 1_555
H4 C8 1_555 1_555
C9 C8 1_555 1_555
H5 C9 1_555 1_555
C10 C9 1_555 1_555
H6 C10 1_555 1_555
C11 C7 1_555 1_555
C12 C4 1_555 1_555
C13 H7 1_555 1_555
C14 C13 1_555 1_555
H8 C14 1_555 1_555
C15 C14 1_555 1_555
C16 C15 1_555 1_555
H9 C16 1_555 1_555
C17 C16 1_555 1_555
H10 C17 1_555 1_555
C18 C13 1_555 1_555
C19 C18 1_555 1_555
C20 C15 1_555 1_555
C21 C22 1_555 1_555
C22 H11 1_555 1_555
C23 C22 1_555 1_555
H12 C23 1_555 1_555
C24 C21 1_555 1_555
N1 C1 1_555 1_555
N2 Zn1 1_555 1_555
O1 C20 1_555 1_555
O2 C20 1_555 1_555
O3 C19 1_555 1_555
O4 C19 1_555 1_555
O5 Zn2 1_555 1_555
O6 Zn1 1_555 1_555
O7 Zn1 1_555 1_555
H13 O7 1_555 1_555
O8 C5 1_555 1_555
O9 C6 1_555 1_555
C25 C23 1_555 1_555
C26 C25 1_555 1_555
H14 C26 1_555 1_555
C27 C21 1_555 1_555
H15 C27 1_555 1_555
C28 C25 1_555 1_555
O10 C28 1_555 1_555
O11 C28 1_555 1_555
Zn6 O11 1_555 1_555
Zn9 O10 1_555 1_555
O20 Zn2 1_555 1_555
O22 Zn1 1_555 1_555
Zn2 O7 1_555 1_555
C10 N2 1_555 1_555
C11 C12 1_555 1_555
C11 N2 1_555 1_555
C12 N1 1_555 1_555
C17 C18 1_555 1_555
C24 O5 1_555 1_555
C24 O6 1_555 1_555
C26 C27 1_555 1_555
Zn9 O12 1_555 1_555
C29 H16 1_555 1_555
C30 C29 1_555 1_555
H17 C30 1_555 1_555
C31 C30 1_555 1_555
H18 C31 1_555 1_555
C32 C31 1_555 1_555
C33 C32 1_555 1_555
C34 C33 1_555 1_555
C35 C34 1_555 1_555
C36 C35 1_555 1_555
H19 C36 1_555 1_555
C37 C36 1_555 1_555
H20 C37 1_555 1_555
C38 C37 1_555 1_555
H21 C38 1_555 1_555
C39 C35 1_555 1_555
C40 C32 1_555 1_555
C41 H22 1_555 1_555
C42 C41 1_555 1_555
H23 C42 1_555 1_555
C43 C42 1_555 1_555
C44 C43 1_555 1_555
H24 C44 1_555 1_555
C45 C44 1_555 1_555
H25 C45 1_555 1_555
C46 C41 1_555 1_555
C47 C46 1_555 1_555
C48 C43 1_555 1_555
N3 Zn6 1_555 1_555
N4 Zn6 1_555 1_555
O12 C48 1_555 1_555
O13 C48 1_555 1_555
O14 C47 1_555 1_555
O15 C47 1_555 1_555
H26 O16 1_555 1_555
O17 C33 1_555 1_555
O18 C34 1_555 1_555
O19 Zn9 1_555 1_555
O21 Zn6 1_555 1_555
Zn6 O16 1_555 1_555
Zn9 O16 1_555 1_555
C29 N3 1_555 1_555
C38 N4 1_555 1_555
C39 C40 1_555 1_555
C39 N4 1_555 1_555
C40 N3 1_555 1_555
C45 C46 1_555 1_555
Zn10 O12_2 1_555 1_555
C41_2 H22_2 1_555 1_555
C42_2 C41_2 1_555 1_555
H23_2 C42_2 1_555 1_555
C43_2 C42_2 1_555 1_555
C44_2 C43_2 1_555 1_555
H24_2 C44_2 1_555 1_555
C45_2 C44_2 1_555 1_555
H25_2 C45_2 1_555 1_555
C46_2 C41_2 1_555 1_555
C47_2 C46_2 1_555 1_555
C48_2 C43_2 1_555 1_555
O12_2 C48_2 1_555 1_555
O13_2 C48_2 1_555 1_555
O20 C47_2 1_555 1_555
O22 C47_2 1_555 1_555
O23 Zn10 1_555 1_555
Zn10 O16_2 1_555 1_555
C45_2 C46_2 1_555 1_555
H18_2 C31_2 1_555 1_555
C32_2 C31_2 1_555 1_555
C33_2 C32_2 1_555 1_555
C34_2 C33_2 1_555 1_555
C35_2 C34_2 1_555 1_555
C36_2 C35_2 1_555 1_555
H19_2 C36_2 1_555 1_555
C37_2 C36_2 1_555 1_555
H20_2 C37_2 1_555 1_555
C38_2 C37_2 1_555 1_555
C39_2 C35_2 1_555 1_555
C40_2 C32_2 1_555 1_555
N3_2 Zn7 1_555 1_555
N4_2 Zn7 1_555 1_555
O17_2 C33_2 1_555 1_555
O18_2 C34_2 1_555 1_555
O24 Zn7 1_555 1_555
C38_2 N4_2 1_555 1_555
C39_2 C40_2 1_555 1_555
C39_2 N4_2 1_555 1_555
C40_2 N3_2 1_555 1_555
Zn5 N1_2 1_555 1_555
H3_2 C3_2 1_555 1_555
C4_2 C3_2 1_555 1_555
C5_2 C4_2 1_555 1_555
C6_2 C5_2 1_555 1_555
C7_2 C6_2 1_555 1_555
C8_2 C7_2 1_555 1_555
H4_2 C8_2 1_555 1_555
C9_2 C8_2 1_555 1_555
H5_2 C9_2 1_555 1_555
C10_2 C9_2 1_555 1_555
C11_2 C7_2 1_555 1_555
C12_2 C4_2 1_555 1_555
C22_2 H11_2 1_555 1_555
C23_2 C22_2 1_555 1_555
H12_2 C23_2 1_555 1_555
N2_2 Zn5 1_555 1_555
O6_2 Zn5 1_555 1_555
O8_2 C5_2 1_555 1_555
O9_2 C6_2 1_555 1_555
C25_2 C23_2 1_555 1_555
C28_2 C25_2 1_555 1_555
O23 C28_2 1_555 1_555
C10_2 N2_2 1_555 1_555
C11_2 C12_2 1_555 1_555
C11_2 N2_2 1_555 1_555
C12_2 N1_2 1_555 1_555
Zn8 O1_2 1_555 1_555
C13_2 H7_2 1_555 1_555
C14_2 C13_2 1_555 1_555
H8_2 C14_2 1_555 1_555
C15_2 C14_2 1_555 1_555
C16_2 C15_2 1_555 1_555
H9_2 C16_2 1_555 1_555
C17_2 C16_2 1_555 1_555
H10_2 C17_2 1_555 1_555
C18_2 C13_2 1_555 1_555
C19_2 C18_2 1_555 1_555
C20_2 C15_2 1_555 1_555
C24_2 C21_2 1_555 1_555
O1_2 C20_2 1_555 1_555
O2_2 C20_2 1_555 1_555
O19 C19_2 1_555 1_555
O21 C19_2 1_555 1_555
O5_2 Zn8 1_555 1_555
H14_2 C26_2 1_555 1_555
C27_2 C21_2 1_555 1_555
H15_2 C27_2 1_555 1_555
Zn8 O7_2 1_555 1_555
C17_2 C18_2 1_555 1_555
C24_2 O5_2 1_555 1_555
C26_2 C27_2 1_555 1_555
Zn2_2 O1_3 1_555 1_555
C1_2 H1_2 1_555 1_555
C2_2 C1_2 1_555 1_555
H2_2 C2_2 1_555 1_555
C13_3 H7_3 1_555 1_555
C14_3 C13_3 1_555 1_555
H8_3 C14_3 1_555 1_555
C15_3 C14_3 1_555 1_555
C16_3 C15_3 1_555 1_555
H9_3 C16_3 1_555 1_555
C17_3 C16_3 1_555 1_555
H10_3 C17_3 1_555 1_555
C18_3 C13_3 1_555 1_555
C19_3 C18_3 1_555 1_555
C20_3 C15_3 1_555 1_555
C24_3 C21_3 1_555 1_555
O1_3 C20_3 1_555 1_555
O2_3 C20_3 1_555 1_555
O3_2 C19_3 1_555 1_555
O4_2 C19_3 1_555 1_555
O5_3 Zn2_2 1_555 1_555
H13_2 O7_3 1_555 1_555
C27_3 C21_3 1_555 1_555
H15_3 C27_3 1_555 1_555
Zn3 O7_3 1_555 1_555
H18_3 C31_3 1_555 1_555
C32_3 C31_3 1_555 1_555
C33_3 C32_3 1_555 1_555
C34_3 C33_3 1_555 1_555
C35_3 C34_3 1_555 1_555
C36_3 C35_3 1_555 1_555
H19_3 C36_3 1_555 1_555
C37_3 C36_3 1_555 1_555
H20_3 C37_3 1_555 1_555
C38_3 C37_3 1_555 1_555
H21_3 C38_3 1_555 1_555
C39_3 C35_3 1_555 1_555
C40_3 C32_3 1_555 1_555
N3_3 Zn3 1_555 1_555
N4_3 Zn3 1_555 1_555
O17_3 C33_3 1_555 1_555
O18_3 C34_3 1_555 1_555
Zn10_2 O3_2 1_555 1_555
O21_2 Zn3 1_555 1_555
O24_2 Zn3 1_555 1_555
Zn2_2 O7_3 1_555 1_555
C17_3 C18_3 1_555 1_555
C24_3 O5_3 1_555 1_555
C38_3 N4_3 1_555 1_555
C39_3 C40_3 1_555 1_555
C39_3 N4_3 1_555 1_555
C40_3 N3_3 1_555 1_555
Zn1_2 N1_3 1_555 1_555
H3_3 C3_3 1_555 1_555
C4_3 C3_3 1_555 1_555
C5_3 C4_3 1_555 1_555
C6_3 C5_3 1_555 1_555
C7_3 C6_3 1_555 1_555
C8_3 C7_3 1_555 1_555
H4_3 C8_3 1_555 1_555
C9_3 C8_3 1_555 1_555
H5_3 C9_3 1_555 1_555
C10_3 C9_3 1_555 1_555
H6_3 C10_3 1_555 1_555
C11_3 C7_3 1_555 1_555
C12_3 C4_3 1_555 1_555
C22_3 H11_3 1_555 1_555
N2_3 Zn1_2 1_555 1_555
O6_3 Zn1_2 1_555 1_555
O8_3 C5_3 1_555 1_555
O9_3 C6_3 1_555 1_555
Zn4 O12_3 1_555 1_555
C29_2 H16_2 1_555 1_555
C30_2 C29_2 1_555 1_555
H17_2 C30_2 1_555 1_555
C41_3 H22_3 1_555 1_555
C42_3 C41_3 1_555 1_555
H23_3 C42_3 1_555 1_555
C43_3 C42_3 1_555 1_555
C44_3 C43_3 1_555 1_555
H24_3 C44_3 1_555 1_555
C45_3 C44_3 1_555 1_555
H25_3 C45_3 1_555 1_555
C46_3 C41_3 1_555 1_555
C47_3 C46_3 1_555 1_555
C48_3 C43_3 1_555 1_555
O12_3 C48_3 1_555 1_555
O13_3 C48_3 1_555 1_555
O14_2 C47_3 1_555 1_555
O15_2 C47_3 1_555 1_555
O16_3 Zn1_2 1_555 1_555
H26_2 O16_3 1_555 1_555
Zn8_2 O14_2 1_555 1_555
O22_2 Zn1_2 1_555 1_555
O23_2 Zn4 1_555 1_555
C10_3 N2_3 1_555 1_555
C11_3 C12_3 1_555 1_555
C11_3 N2_3 1_555 1_555
C12_3 N1_3 1_555 1_555
Zn4 O16_3 1_555 1_555
C45_3 C46_3 1_555 1_555
H14_3 C26_3 1_555 1_555
H12_3 C23_3 1_555 1_555
C25_3 C23_3 1_555 1_555
C28_3 C25_3 1_555 1_555
O23_2 C28_3 1_555 1_555
H14_4 C26_4 1_555 1_555
Zn7_2 O11_2 1_555 1_555
H12_4 C23_4 1_555 1_555
C25_4 C23_4 1_555 1_555
C28_4 C25_4 1_555 1_555
O10_2 C28_4 1_555 1_555
Zn10_2 O10_2 1_555 1_555
Zn8_2 O1_4 1_555 1_555
C13_4 H7_4 1_555 1_555
C14_4 C13_4 1_555 1_555
H8_4 C14_4 1_555 1_555
C15_4 C14_4 1_555 1_555
C16_4 C15_4 1_555 1_555
H9_4 C16_4 1_555 1_555
C17_4 C16_4 1_555 1_555
H10_4 C17_4 1_555 1_555
C18_4 C13_4 1_555 1_555
C19_4 C18_4 1_555 1_555
C20_4 C15_4 1_555 1_555
C24_4 C21_4 1_555 1_555
O1_4 C20_4 1_555 1_555
O2_4 C20_4 1_555 1_555
O19_2 C19_4 1_555 1_555
O21_2 C19_4 1_555 1_555
O5_4 Zn8_2 1_555 1_555
C27_4 C21_4 1_555 1_555
H15_4 C27_4 1_555 1_555
Zn7_2 O7_4 1_555 1_555
C29_3 H16_3 1_555 1_555
C30_3 C29_3 1_555 1_555
H17_3 C30_3 1_555 1_555
C31_4 C30_3 1_555 1_555
H18_4 C31_4 1_555 1_555
C32_4 C31_4 1_555 1_555
C33_4 C32_4 1_555 1_555
C34_4 C33_4 1_555 1_555
C35_4 C34_4 1_555 1_555
C36_4 C35_4 1_555 1_555
H19_4 C36_4 1_555 1_555
C37_4 C36_4 1_555 1_555
H20_4 C37_4 1_555 1_555
C38_4 C37_4 1_555 1_555
C39_4 C35_4 1_555 1_555
C40_4 C32_4 1_555 1_555
N3_4 Zn7_2 1_555 1_555
N4_4 Zn7_2 1_555 1_555
O17_4 C33_4 1_555 1_555
O18_4 C34_4 1_555 1_555
Zn8_2 O7_4 1_555 1_555
C17_4 C18_4 1_555 1_555
C24_4 O5_4 1_555 1_555
C29_3 N3_4 1_555 1_555
C38_4 N4_4 1_555 1_555
C39_4 C40_4 1_555 1_555
C39_4 N4_4 1_555 1_555
C40_4 N3_4 1_555 1_555
Zn5_2 N1_4 1_555 1_555
C1_3 H1_3 1_555 1_555
C2_3 C1_3 1_555 1_555
H2_3 C2_3 1_555 1_555
C3_4 C2_3 1_555 1_555
H3_4 C3_4 1_555 1_555
C4_4 C3_4 1_555 1_555
C5_4 C4_4 1_555 1_555
C6_4 C5_4 1_555 1_555
C7_4 C6_4 1_555 1_555
C8_4 C7_4 1_555 1_555
H4_4 C8_4 1_555 1_555
C9_4 C8_4 1_555 1_555
H5_4 C9_4 1_555 1_555
C10_4 C9_4 1_555 1_555
C11_4 C7_4 1_555 1_555
C12_4 C4_4 1_555 1_555
C22_4 H11_4 1_555 1_555
N1_4 C1_3 1_555 1_555
N2_4 Zn5_2 1_555 1_555
O6_4 Zn5_2 1_555 1_555
O8_4 C5_4 1_555 1_555
O9_4 C6_4 1_555 1_555
Zn10_2 O12_4 1_555 1_555
C41_4 H22_4 1_555 1_555
C42_4 C41_4 1_555 1_555
H23_4 C42_4 1_555 1_555
C43_4 C42_4 1_555 1_555
C44_4 C43_4 1_555 1_555
H24_4 C44_4 1_555 1_555
C45_4 C44_4 1_555 1_555
H25_4 C45_4 1_555 1_555
C46_4 C41_4 1_555 1_555
C47_4 C46_4 1_555 1_555
C48_4 C43_4 1_555 1_555
O12_4 C48_4 1_555 1_555
O13_4 C48_4 1_555 1_555
O20_2 C47_4 1_555 1_555
O22_2 C47_4 1_555 1_555
O16_4 Zn5_2 1_555 1_555
C10_4 N2_4 1_555 1_555
C11_4 C12_4 1_555 1_555
C11_4 N2_4 1_555 1_555
C12_4 N1_4 1_555 1_555
Zn10_2 O16_4 1_555 1_555
C45_4 C46_4 1_555 1_555
C29_4 H16_4 1_555 1_555
C30_4 C29_4 1_555 1_555
H17_4 C30_4 1_555 1_555
C1_4 H1_4 1_555 1_555
C2_4 C1_4 1_555 1_555
H2_4 C2_4 1_555 1_555

#END
