
###############################################################################
#
# This file contains modified crystal structure data generated from the
# MOF subset of the Cambridge Structural Database (CSD) v543 
# hosted by the Cambridge Crystallographic Data Centre (CCDC).
#
# This work is licensed under the Creative Commons
# Attribution-NonCommercial-ShareAlike 4.0 International License.
# To view a copy of this license, visit
# http://creativecommons.org/licenses/by-nc-sa/4.0/
# or send a letter to
# Creative Commons, PO Box 1866, Mountain View, CA 94042, USA.
#
# CIF created using the CSD Python API on 29 September 2022
# The structure has been converted into the P1 space group
# The structure has a 3D framework
# The original CSD entry MOSHUA is in the cubic crystal system
# The original CSD entry MOSHUA is in a Sohncke space group
# The framework has been calculated to contain at least 10.0% void space
# The void calculation uses a probe of radius 1.32A, grid spacing 0.4
# H atom positions have been added when not included in the experimental data
# Generated hydrogen atom positions removed from atoms on special positions
#
###############################################################################

data_MOSHUA
_chemical_formula_moiety         '(C384 H264 N24 O52 Zn10)n'
_symmetry_cell_setting           triclinic
_symmetry_space_group_name_H-M   'P 1'
_symmetry_Int_Tables_number      1
_space_group_name_Hall           'P 1'
loop_
_symmetry_equiv_pos_site_id
_symmetry_equiv_pos_as_xyz
1 x,y,z
_cell_length_a                   25.279(3)
_cell_length_b                   25.279(3)
_cell_length_c                   25.279(3)
_cell_angle_alpha                90
_cell_angle_beta                 90
_cell_angle_gamma                90
_cell_volume                     16154
loop_
_atom_site_label
_atom_site_type_symbol
_atom_site_fract_x
_atom_site_fract_y
_atom_site_fract_z
O19 O 0.0126(7) 0.0895(6) 0.5641(7)
H63 H 0.0235844 0.0142035 0.463902
O3 O 0.0076(6) 0.9924(6) 0.4924(6)
H64 H 0.0360983 0.976416 0.514203
Zn1 Zn 0.8750 0.1250 0.6250
Zn2 Zn 0.95841(13) 0.04159(13) 0.54159(13)
N1 N 0.7281(7) 0.1971(7) 0.4210(8)
O1 O 0.8746(6) 0.1256(6) 0.5406(7)
C1 C 0.6989(11) 0.1866(11) 0.3740(10)
C2 C 0.6544(10) 0.2179(9) 0.3583(10)
C3 C 0.8799(11) 0.0991(11) 0.4987(12)
O2 O 0.9105(6) 0.0641(7) 0.4874(7)
C4 C 0.8414(5) 0.1134(7) 0.4545(6)
C5 C 0.8423(5) 0.0830(5) 0.4087(7)
H1 H 0.8681 0.0572 0.4043
C6 C 0.8046(7) 0.0911(6) 0.3695(5)
H2 H 0.8053 0.0708 0.3389
C7 C 0.7660(6) 0.1297(7) 0.3761(6)
C8 C 0.7650(6) 0.1601(5) 0.4219(8)
C9 C 0.8027(7) 0.1520(6) 0.4611(5)
H3 H 0.8021 0.1723 0.4917
C10 C 0.7100(9) 0.2241(9) 0.4698(9)
H4 H 0.7071 0.1983 0.4980
H5 H 0.6751 0.2388 0.4637
C11 C 0.8099(8) 0.3346(9) 0.4652(10)
H6 H 0.8287 0.3537 0.4401
C12 C 0.8172(6) 0.3448(7) 0.5187(12)
H7 H 0.8410 0.3708 0.5294
C13 C 0.7891(9) 0.3162(10) 0.5563(7)
H8 H 0.7940 0.3231 0.5921
C14 C 0.7536(8) 0.2774(9) 0.5404(11)
H9 H 0.7347 0.2582 0.5655
C15 C 0.7462(6) 0.2671(7) 0.4869(12)
C16 C 0.7744(10) 0.2958(10) 0.4493(7)
H10 H 0.7694 0.2889 0.4135
N2 N 0.5790(8) 0.2281(7) 0.3029(7)
O4 O 0.4594(7) 0.3746(6) 0.3744(6)
C17 C 0.6260(10) 0.1989(11) 0.3134(11)
C18 C 0.6417(10) 0.1544(10) 0.2821(9)
C19 C 0.5013(12) 0.3799(11) 0.4009(11)
O5 O 0.5126(7) 0.4105(6) 0.4359(7)
C20 C 0.5455(6) 0.3414(5) 0.3866(7)
C21 C 0.5913(7) 0.3423(5) 0.4170(5)
H11 H 0.5957 0.3681 0.4428
C22 C 0.6305(5) 0.3046(7) 0.4089(6)
H12 H 0.6611 0.3053 0.4292
C23 C 0.6239(6) 0.2660(6) 0.3703(7)
C24 C 0.5781(8) 0.2650(6) 0.3399(5)
C25 C 0.5389(5) 0.3027(7) 0.3480(6)
H13 H 0.5083 0.3021 0.3277
C26 C 0.5302(9) 0.2100(9) 0.2759(9)
H14 H 0.5020 0.2071 0.3017
H15 H 0.5363 0.1751 0.2612
C27 C 0.5348(10) 0.3099(8) 0.1654(9)
H16 H 0.5599 0.3287 0.1463
C28 C 0.4813(12) 0.3172(6) 0.1552(7)
H17 H 0.4706 0.3410 0.1292
C29 C 0.4437(7) 0.2891(9) 0.1838(10)
H18 H 0.4079 0.2940 0.1769
C30 C 0.4596(11) 0.2536(8) 0.2226(9)
H19 H 0.4345 0.2347 0.2418
C31 C 0.5131(12) 0.2462(6) 0.2329(7)
C32 C 0.5507(7) 0.2744(10) 0.2042(10)
H20 H 0.5865 0.2694 0.2111
N3 N 0.6971(7) 0.0790(8) 0.2719(7)
C33 C 0.6866(11) 0.1260(10) 0.3011(11)
C34 C 0.7179(9) 0.1417(10) 0.3456(10)
C35 C 0.5991(11) 0.0013(12) 0.1201(11)
O7 O 0.5641(7) 0.0126(7) 0.0895(6)
C36 C 0.6134(7) 0.0455(6) 0.1586(5)
C37 C 0.5830(5) 0.0913(7) 0.1577(5)
H21 H 0.5572 0.0957 0.1319
C38 C 0.5911(6) 0.1305(5) 0.1954(7)
H22 H 0.5708 0.1611 0.1947
C39 C 0.6297(7) 0.1239(6) 0.2340(6)
C40 C 0.6601(5) 0.0781(8) 0.2350(6)
C41 C 0.6520(6) 0.0389(5) 0.1973(7)
H23 H 0.6723 0.0083 0.1979
C42 C 0.7241(9) 0.0302(9) 0.2900(9)
H24 H 0.6983 0.0020 0.2929
H25 H 0.7388 0.0363 0.3249
C43 C 0.8346(9) 0.0348(10) 0.1901(8)
H26 H 0.8537 0.0599 0.1713
C47 C 0.7671(7) 0.0131(12) 0.2538(6)
C48 C 0.7958(10) 0.0507(7) 0.2256(10)
H30 H 0.7889 0.0865 0.2306
Zn3 Zn 0.79159(13) 0.20841(13) 0.70841(13)
O8 O 0.7424(6) 0.2576(6) 0.7576(6)
N4 N 0.6710(8) 0.0529(7) 0.4781(7)
O9 O 0.7906(7) 0.1244(6) 0.6246(6)
C49 C 0.6240(10) 0.0634(11) 0.4489(11)
C50 C 0.6083(10) 0.0321(9) 0.4044(10)
C51 C 0.7487(12) 0.1509(11) 0.6299(11)
O10 O 0.7374(7) 0.1859(7) 0.6605(6)
C52 C 0.7045(6) 0.1366(7) 0.5914(5)
C53 C 0.6587(7) 0.1670(5) 0.5923(5)
H31 H 0.6543 0.1928 0.6181
C54 C 0.6195(5) 0.1589(6) 0.5546(7)
H32 H 0.5889 0.1792 0.5553
C55 C 0.6261(6) 0.1203(7) 0.5160(6)
C56 C 0.6719(8) 0.0899(5) 0.5150(6)
C57 C 0.7111(5) 0.0980(6) 0.5527(7)
H33 H 0.7417 0.0777 0.5521
C58 C 0.7198(9) 0.0259(9) 0.4600(9)
H34 H 0.7480 0.0517 0.4571
H35 H 0.7137 0.0112 0.4251
N5 N 0.5529(7) 0.0219(7) 0.3290(8)
C65 C 0.5634(11) 0.0511(11) 0.3760(10)
C66 C 0.5321(9) 0.0956(10) 0.3917(10)
C74 C 0.5259(9) 0.0400(9) 0.2802(9)
H44 H 0.5517 0.0429 0.2520
H45 H 0.5112 0.0749 0.2863
H49 H 0.4918 0.0153 0.1845
C79 C 0.4829(7) 0.0038(6) 0.2631(12)
N6 N 0.5219(7) 0.1710(8) 0.4471(7)
O13 O 0.3754(6) 0.2906(7) 0.3756(6)
C81 C 0.5511(11) 0.1240(10) 0.4366(11)
C82 C 0.5956(10) 0.1083(10) 0.4679(9)
C83 C 0.3701(11) 0.2487(12) 0.3491(11)
O14 O 0.3395(6) 0.2374(7) 0.3141(7)
C84 C 0.4086(5) 0.2045(6) 0.3634(7)
C85 C 0.4077(5) 0.1587(7) 0.3330(5)
H51 H 0.3819 0.1543 0.3072
C86 C 0.4454(7) 0.1195(5) 0.3411(6)
H52 H 0.4447 0.0889 0.3208
C87 C 0.4840(6) 0.1261(6) 0.3797(7)
C88 C 0.4850(6) 0.1719(8) 0.4101(5)
C89 C 0.4473(7) 0.2111(5) 0.4020(6)
H53 H 0.4479 0.2417 0.4223
C90 C 0.5400(9) 0.2198(9) 0.4741(9)
H54 H 0.5429 0.2480 0.4483
H55 H 0.5749 0.2137 0.4888
C91 C 0.4401(8) 0.2152(10) 0.5846(9)
H56 H 0.4213 0.1901 0.6037
C92 C 0.4328(6) 0.2687(12) 0.5948(7)
H57 H 0.4090 0.2794 0.6208
C93 C 0.4609(9) 0.3063(7) 0.5662(10)
H58 H 0.4560 0.3421 0.5731
C94 C 0.4964(8) 0.2904(11) 0.5274(9)
H59 H 0.5153 0.3155 0.5082
C95 C 0.5038(6) 0.2369(12) 0.5171(7)
C96 C 0.4756(10) 0.1993(7) 0.5458(10)
H60 H 0.4806 0.1635 0.5389
Zn5 Zn 0.3750 0.3750 0.3750
Zn7 Zn 0.45841(13) 0.45841(13) 0.45841(13)
Zn9 Zn 0.29159(13) 0.29159(13) 0.29159(13)
O15 O 0.9594(7) 0.1254(6) 0.6256(6)
O16 O 0.8744(6) 0.0406(7) 0.6254(6)
O17 O 0.8756(6) 0.1246(6) 0.7094(7)
O18 O 0.8754(6) 0.2094(7) 0.6244(6)
O21 O 0.8141(7) 0.1605(6) 0.7626(7)
O22 O 0.8395(6) 0.2626(7) 0.6859(7)
O6 O 0.6256(6) 0.9594(7) 0.1254(6)
C44 C 0.8448(7) 0.9813(12) 0.1828(6)
H27 H 0.8708 0.9706 0.1590
C45 C 0.8162(10) 0.9437(7) 0.2109(9)
H28 H 0.8231 0.9079 0.2060
C46 C 0.7774(9) 0.9596(11) 0.2464(8)
H29 H 0.7582 0.9345 0.2653
C59 C 0.7152(10) 0.9154(9) 0.5599(8)
H36 H 0.6901 0.8963 0.5787
C60 C 0.7687(12) 0.9052(7) 0.5672(6)
H37 H 0.7794 0.8792 0.5910
C61 C 0.8063(7) 0.9338(10) 0.5391(9)
H38 H 0.8421 0.9269 0.5440
C62 C 0.7904(11) 0.9726(9) 0.5036(8)
H39 H 0.8155 0.9918 0.4847
C63 C 0.7369(12) 0.9829(7) 0.4962(6)
C64 C 0.6993(7) 0.9542(10) 0.5244(10)
H40 H 0.6635 0.9611 0.5194
O11 O 0.6244(6) 0.8754(6) 0.2094(7)
C67 C 0.6509(11) 0.8701(11) 0.2513(12)
O12 O 0.6859(7) 0.8395(6) 0.2626(7)
C68 C 0.6366(7) 0.9086(5) 0.2955(6)
C69 C 0.6670(5) 0.9077(5) 0.3413(7)
H41 H 0.6928 0.8819 0.3457
C70 C 0.6589(6) 0.9454(7) 0.3805(5)
H42 H 0.6792 0.9447 0.4111
C71 C 0.6203(7) 0.9840(6) 0.3739(6)
C72 C 0.5899(5) 0.9850(6) 0.3281(8)
C73 C 0.5980(6) 0.9473(7) 0.2889(5)
H43 H 0.5777 0.9479 0.2583
C75 C 0.4154(9) 0.9401(8) 0.2848(10)
H46 H 0.3963 0.9213 0.3099
C76 C 0.4052(7) 0.9328(6) 0.2313(12)
H47 H 0.3792 0.9090 0.2206
C77 C 0.4338(10) 0.9609(9) 0.1937(7)
H48 H 0.4269 0.9560 0.1579
C78 C 0.4726(9) 0.9964(8) 0.2096(11)
C80 C 0.4542(10) 0.9756(10) 0.3007(7)
H50 H 0.4611 0.9806 0.3365
Zn4 Zn 0.6250 0.8750 0.1250
Zn6 Zn 0.54159(13) 0.95841(13) 0.04159(13)
Zn8 Zn 0.70841(13) 0.79159(13) 0.20841(13)
O20 O 0.9359(7) 0.9874(7) 0.5895(6)
C75_2 C 0.0846(9) 0.0599(8) 0.7848(10)
H46_2 H 0.1037 0.0787 0.8099
C76_2 C 0.0948(7) 0.0672(6) 0.7313(12)
H47_2 H 0.1208 0.0910 0.7206
C77_2 C 0.0662(10) 0.0391(9) 0.6937(7)
H48_2 H 0.0731 0.0440 0.6579
C78_2 C 0.0274(9) 0.0036(8) 0.7096(11)
C80_2 C 0.0458(10) 0.0244(10) 0.8007(7)
H50_2 H 0.0389 0.0194 0.8365
C91_2 C 0.0599(8) 0.7848(10) 0.0846(9)
H56_2 H 0.0787 0.8099 0.1037
C92_2 C 0.0672(6) 0.7313(12) 0.0948(7)
H57_2 H 0.0910 0.7206 0.1208
C93_2 C 0.0391(9) 0.6937(7) 0.0662(10)
H58_2 H 0.0440 0.6579 0.0731
C94_2 C 0.0036(8) 0.7096(11) 0.0274(9)
C96_2 C 0.0244(10) 0.8007(7) 0.0458(10)
H60_2 H 0.0194 0.8365 0.0389
O4_2 O 0.0406(7) 0.6254(6) 0.8744(6)
C28_2 C 0.0187(12) 0.6828(6) 0.6552(7)
H17_2 H 0.0294 0.6590 0.6292
C29_2 C 0.0563(7) 0.7109(9) 0.6838(10)
H18_2 H 0.0921 0.7060 0.6769
C30_2 C 0.0404(11) 0.7464(8) 0.7226(9)
H19_2 H 0.0655 0.7653 0.7418
H49_2 H 0.0082 0.9847 0.6845
C79_2 C 0.0171(7) 0.9962(6) 0.7631(12)
O13_2 O 0.1246(6) 0.7094(7) 0.8756(6)
C83_2 C 0.1299(11) 0.7513(12) 0.8491(11)
O14_2 O 0.1605(6) 0.7626(7) 0.8141(7)
C84_2 C 0.0914(5) 0.7955(6) 0.8634(7)
C85_2 C 0.0923(5) 0.8413(7) 0.8330(5)
H51_2 H 0.1181 0.8457 0.8072
C86_2 C 0.0546(7) 0.8805(5) 0.8411(6)
H52_2 H 0.0553 0.9111 0.8208
C87_2 C 0.0160(6) 0.8739(6) 0.8797(7)
C88_2 C 0.0150(6) 0.8281(8) 0.9101(5)
C89_2 C 0.0527(7) 0.7889(5) 0.9020(6)
H53_2 H 0.0521 0.7583 0.9223
Zn5_2 Zn 0.1250 0.6250 0.8750
Zn7_2 Zn 0.04159(13) 0.54159(13) 0.95841(13)
Zn9_2 Zn 0.20841(13) 0.70841(13) 0.79159(13)
C59_2 C 0.7848(10) 0.0846(9) 0.0599(8)
H36_2 H 0.8099 0.1037 0.0787
C60_2 C 0.7313(12) 0.0948(7) 0.0672(6)
H37_2 H 0.7206 0.1208 0.0910
C61_2 C 0.6937(7) 0.0662(10) 0.0391(9)
H38_2 H 0.6579 0.0731 0.0440
C62_2 C 0.7096(11) 0.0274(9) 0.0036(8)
C64_2 C 0.8007(7) 0.0458(10) 0.0244(10)
H40_2 H 0.8365 0.0389 0.0194
H64_2 H 0.463902 0.0235844 0.0142035
O3_2 O 0.4924(6) 0.0076(6) 0.9924(6)
C44_2 C 0.6552(7) 0.0187(12) 0.6828(6)
H27_2 H 0.6292 0.0294 0.6590
C45_2 C 0.6838(10) 0.0563(7) 0.7109(9)
H28_2 H 0.6769 0.0921 0.7060
C46_2 C 0.7226(9) 0.0404(11) 0.7464(8)
H29_2 H 0.7418 0.0655 0.7653
H39_2 H 0.6845 0.0082 0.9847
C63_2 C 0.7631(12) 0.0171(7) 0.9962(6)
C67_2 C 0.8491(11) 0.1299(11) 0.7513(12)
C68_2 C 0.8634(7) 0.0914(5) 0.7955(6)
C69_2 C 0.8330(5) 0.0923(5) 0.8413(7)
H41_2 H 0.8072 0.1181 0.8457
C70_2 C 0.8411(6) 0.0546(7) 0.8805(5)
H42_2 H 0.8208 0.0553 0.9111
C71_2 C 0.8797(7) 0.0160(6) 0.8739(6)
C72_2 C 0.9101(5) 0.0150(6) 0.8281(8)
C73_2 C 0.9020(6) 0.0527(7) 0.7889(5)
H43_2 H 0.9223 0.0521 0.7583
O1_2 O 0.6254(6) 0.8744(6) 0.0406(7)
C12_2 C 0.6828(6) 0.6552(7) 0.0187(12)
H7_2 H 0.6590 0.6292 0.0294
C13_2 C 0.7109(9) 0.6838(10) 0.0563(7)
H8_2 H 0.7060 0.6769 0.0921
C14_2 C 0.7464(8) 0.7226(9) 0.0404(11)
H9_2 H 0.7653 0.7418 0.0655
O8_2 O 0.7576(6) 0.7424(6) 0.2576(6)
O9_2 O 0.7094(7) 0.8756(6) 0.1246(6)
C51_2 C 0.7513(12) 0.8491(11) 0.1299(11)
O10_2 O 0.7626(7) 0.8141(7) 0.1605(6)
C52_2 C 0.7955(6) 0.8634(7) 0.0914(5)
C53_2 C 0.8413(7) 0.8330(5) 0.0923(5)
H31_2 H 0.8457 0.8072 0.1181
C54_2 C 0.8805(5) 0.8411(6) 0.0546(7)
H32_2 H 0.9111 0.8208 0.0553
C55_2 C 0.8739(6) 0.8797(7) 0.0160(6)
C56_2 C 0.8281(8) 0.9101(5) 0.0150(6)
C57_2 C 0.7889(5) 0.9020(6) 0.0527(7)
H33_2 H 0.7583 0.9223 0.0521
H59_2 H 0.9847 0.6845 0.0082
C95_2 C 0.9962(6) 0.7631(12) 0.0171(7)
O15_2 O 0.5406(7) 0.8746(6) 0.1256(6)
O18_2 O 0.6246(6) 0.7906(7) 0.1244(6)
O19_2 O 0.4874(7) 0.9105(6) 0.0641(7)
O22_2 O 0.6605(6) 0.7374(7) 0.1859(7)
N1_2 N 0.7719(7) 0.8029(7) 0.9210(8)
C1_2 C 0.8011(11) 0.8134(11) 0.8740(10)
C2_2 C 0.8456(10) 0.7821(9) 0.8583(10)
C3_2 C 0.6201(11) 0.9009(11) 0.9987(12)
O2_2 O 0.5895(6) 0.9359(7) 0.9874(7)
C4_2 C 0.6586(5) 0.8866(7) 0.9545(6)
C5_2 C 0.6577(5) 0.9170(5) 0.9087(7)
H1_2 H 0.6319 0.9428 0.9043
C6_2 C 0.6954(7) 0.9089(6) 0.8695(5)
H2_2 H 0.6947 0.9292 0.8389
C7_2 C 0.7340(6) 0.8703(7) 0.8761(6)
C8_2 C 0.7350(6) 0.8399(5) 0.9219(8)
C9_2 C 0.6973(7) 0.8480(6) 0.9611(5)
H3_2 H 0.6979 0.8277 0.9917
C10_2 C 0.7900(9) 0.7759(9) 0.9698(9)
H4_2 H 0.7929 0.8017 0.9980
H5_2 H 0.8249 0.7612 0.9637
C11_2 C 0.6901(8) 0.6654(9) 0.9652(10)
H6_2 H 0.6713 0.6463 0.9401
C15_2 C 0.7538(6) 0.7329(7) 0.9869(12)
C16_2 C 0.7256(10) 0.7042(10) 0.9493(7)
H10_2 H 0.7306 0.7111 0.9135
N2_2 N 0.9210(8) 0.7719(7) 0.8029(7)
C17_2 C 0.8740(10) 0.8011(11) 0.8134(11)
C18_2 C 0.8583(10) 0.8456(10) 0.7821(9)
C19_2 C 0.9987(12) 0.6201(11) 0.9009(11)
O5_2 O 0.9874(7) 0.5895(6) 0.9359(7)
C20_2 C 0.9545(6) 0.6586(5) 0.8866(7)
C21_2 C 0.9087(7) 0.6577(5) 0.9170(5)
H11_2 H 0.9043 0.6319 0.9428
C22_2 C 0.8695(5) 0.6954(7) 0.9089(6)
H12_2 H 0.8389 0.6947 0.9292
C23_2 C 0.8761(6) 0.7340(6) 0.8703(7)
C24_2 C 0.9219(8) 0.7350(6) 0.8399(5)
C25_2 C 0.9611(5) 0.6973(7) 0.8480(6)
H13_2 H 0.9917 0.6979 0.8277
C26_2 C 0.9698(9) 0.7900(9) 0.7759(9)
H14_2 H 0.9980 0.7929 0.8017
H15_2 H 0.9637 0.8249 0.7612
C27_2 C 0.9652(10) 0.6901(8) 0.6654(9)
H16_2 H 0.9401 0.6713 0.6463
C31_2 C 0.9869(12) 0.7538(6) 0.7329(7)
C32_2 C 0.9493(7) 0.7256(10) 0.7042(10)
H20_2 H 0.9135 0.7306 0.7111
N3_2 N 0.8029(7) 0.9210(8) 0.7719(7)
C33_2 C 0.8134(11) 0.8740(10) 0.8011(11)
C34_2 C 0.7821(9) 0.8583(10) 0.8456(10)
C35_2 C 0.9009(11) 0.9987(12) 0.6201(11)
C36_2 C 0.8866(7) 0.9545(6) 0.6586(5)
C37_2 C 0.9170(5) 0.9087(7) 0.6577(5)
H21_2 H 0.9428 0.9043 0.6319
C38_2 C 0.9089(6) 0.8695(5) 0.6954(7)
H22_2 H 0.9292 0.8389 0.6947
C39_2 C 0.8703(7) 0.8761(6) 0.7340(6)
C40_2 C 0.8399(5) 0.9219(8) 0.7350(6)
C41_2 C 0.8480(6) 0.9611(5) 0.6973(7)
H23_2 H 0.8277 0.9917 0.6979
C42_2 C 0.7759(9) 0.9698(9) 0.7900(9)
H24_2 H 0.8017 0.9980 0.7929
H25_2 H 0.7612 0.9637 0.8249
C43_2 C 0.6654(9) 0.9652(10) 0.6901(8)
H26_2 H 0.6463 0.9401 0.6713
C47_2 C 0.7329(7) 0.9869(12) 0.7538(6)
C48_2 C 0.7042(10) 0.9493(7) 0.7256(10)
H30_2 H 0.7111 0.9135 0.7306
N4_2 N 0.8290(8) 0.9471(7) 0.9781(7)
C49_2 C 0.8760(10) 0.9366(11) 0.9489(11)
C50_2 C 0.8917(10) 0.9679(9) 0.9044(10)
C58_2 C 0.7802(9) 0.9741(9) 0.9600(9)
H34_2 H 0.7520 0.9483 0.9571
H35_2 H 0.7863 0.9888 0.9251
N5_2 N 0.9471(7) 0.9781(7) 0.8290(8)
C65_2 C 0.9366(11) 0.9489(11) 0.8760(10)
C66_2 C 0.9679(9) 0.9044(10) 0.8917(10)
C74_2 C 0.9741(9) 0.9600(9) 0.7802(9)
H44_2 H 0.9483 0.9571 0.7520
H45_2 H 0.9888 0.9251 0.7863
N6_2 N 0.9781(7) 0.8290(8) 0.9471(7)
C81_2 C 0.9489(11) 0.8760(10) 0.9366(11)
C82_2 C 0.9044(10) 0.8917(10) 0.9679(9)
C90_2 C 0.9600(9) 0.7802(9) 0.9741(9)
H54_2 H 0.9571 0.7520 0.9483
H55_2 H 0.9251 0.7863 0.9888
H63_2 H 0.476416 0.985797 0.963902
N1_3 N 0.2719(7) 0.6971(7) 0.0790(8)
C1_3 C 0.3011(11) 0.6866(11) 0.1260(10)
C2_3 C 0.3456(10) 0.7179(9) 0.1417(10)
C3_3 C 0.1201(11) 0.5991(11) 0.0013(12)
O2_3 O 0.0895(6) 0.5641(7) 0.0126(7)
C4_3 C 0.1586(5) 0.6134(7) 0.0455(6)
C5_3 C 0.1577(5) 0.5830(5) 0.0913(7)
H1_3 H 0.1319 0.5572 0.0957
C6_3 C 0.1954(7) 0.5911(6) 0.1305(5)
H2_3 H 0.1947 0.5708 0.1611
C7_3 C 0.2340(6) 0.6297(7) 0.1239(6)
C8_3 C 0.2350(6) 0.6601(5) 0.0781(8)
C9_3 C 0.1973(7) 0.6520(6) 0.0389(5)
H3_3 H 0.1979 0.6723 0.0083
C10_3 C 0.2900(9) 0.7241(9) 0.0302(9)
H4_3 H 0.2929 0.6983 0.0020
H5_3 H 0.3249 0.7388 0.0363
C11_3 C 0.1901(8) 0.8346(9) 0.0348(10)
H6_3 H 0.1713 0.8537 0.0599
C15_3 C 0.2538(6) 0.7671(7) 0.0131(12)
C16_3 C 0.2256(10) 0.7958(10) 0.0507(7)
H10_3 H 0.2306 0.7889 0.0865
N2_3 N 0.4210(8) 0.7281(7) 0.1971(7)
C17_3 C 0.3740(10) 0.6989(11) 0.1866(11)
C18_3 C 0.3583(10) 0.6544(10) 0.2179(9)
C19_3 C 0.4987(12) 0.8799(11) 0.0991(11)
C20_3 C 0.4545(6) 0.8414(5) 0.1134(7)
C21_3 C 0.4087(7) 0.8423(5) 0.0830(5)
H11_3 H 0.4043 0.8681 0.0572
C22_3 C 0.3695(5) 0.8046(7) 0.0911(6)
H12_3 H 0.3389 0.8053 0.0708
C23_3 C 0.3761(6) 0.7660(6) 0.1297(7)
C24_3 C 0.4219(8) 0.7650(6) 0.1601(5)
C25_3 C 0.4611(5) 0.8027(7) 0.1520(6)
H13_3 H 0.4917 0.8021 0.1723
C26_3 C 0.4698(9) 0.7100(9) 0.2241(9)
H14_3 H 0.4980 0.7071 0.1983
H15_3 H 0.4637 0.6751 0.2388
C27_3 C 0.4652(10) 0.8099(8) 0.3346(9)
H16_3 H 0.4401 0.8287 0.3537
C28_3 C 0.5187(12) 0.8172(6) 0.3448(7)
H17_3 H 0.5294 0.8410 0.3708
C29_3 C 0.5563(7) 0.7891(9) 0.3162(10)
H18_3 H 0.5921 0.7940 0.3231
C30_3 C 0.5404(11) 0.7536(8) 0.2774(9)
H19_3 H 0.5655 0.7347 0.2582
C31_3 C 0.4869(12) 0.7462(6) 0.2671(7)
C32_3 C 0.4493(7) 0.7744(10) 0.2958(10)
H20_3 H 0.4135 0.7694 0.2889
N3_3 N 0.3029(7) 0.5790(8) 0.2281(7)
O6_2 O 0.3744(6) 0.4594(7) 0.3746(6)
C33_3 C 0.3134(11) 0.6260(10) 0.1989(11)
C34_3 C 0.2821(9) 0.6417(10) 0.1544(10)
C35_3 C 0.4009(11) 0.5013(12) 0.3799(11)
O7_2 O 0.4359(7) 0.5126(7) 0.4105(6)
C36_3 C 0.3866(7) 0.5455(6) 0.3414(5)
C37_3 C 0.4170(5) 0.5913(7) 0.3423(5)
H21_3 H 0.4428 0.5957 0.3681
C38_3 C 0.4089(6) 0.6305(5) 0.3046(7)
H22_3 H 0.4292 0.6611 0.3053
C39_3 C 0.3703(7) 0.6239(6) 0.2660(6)
C40_3 C 0.3399(5) 0.5781(8) 0.2650(6)
C41_3 C 0.3480(6) 0.5389(5) 0.3027(7)
H23_3 H 0.3277 0.5083 0.3021
C42_3 C 0.2759(9) 0.5302(9) 0.2100(9)
H24_3 H 0.3017 0.5020 0.2071
H25_3 H 0.2612 0.5363 0.1751
C43_3 C 0.1654(9) 0.5348(10) 0.3099(8)
H26_3 H 0.1463 0.5599 0.3287
C44_3 C 0.1552(7) 0.4813(12) 0.3172(6)
H27_3 H 0.1292 0.4706 0.3410
C45_3 C 0.1838(10) 0.4437(7) 0.2891(9)
H28_3 H 0.1769 0.4079 0.2940
C46_3 C 0.2226(9) 0.4596(11) 0.2536(8)
H29_3 H 0.2418 0.4345 0.2347
C47_3 C 0.2329(7) 0.5131(12) 0.2462(6)
C48_3 C 0.2042(10) 0.5507(7) 0.2744(10)
H30_3 H 0.2111 0.5865 0.2694
N4_3 N 0.3290(8) 0.5529(7) 0.0219(7)
C49_3 C 0.3760(10) 0.5634(11) 0.0511(11)
C50_3 C 0.3917(10) 0.5321(9) 0.0956(10)
C58_3 C 0.2802(9) 0.5259(9) 0.0400(9)
H34_3 H 0.2520 0.5517 0.0429
H35_3 H 0.2863 0.5112 0.0749
H39_3 H 0.1845 0.4918 0.0153
C63_3 C 0.2631(12) 0.4829(7) 0.0038(6)
N5_3 N 0.4471(7) 0.5219(7) 0.1710(8)
O11_2 O 0.3756(6) 0.3754(6) 0.2906(7)
C65_3 C 0.4366(11) 0.5511(11) 0.1240(10)
C66_3 C 0.4679(9) 0.5956(10) 0.1083(10)
C67_3 C 0.3491(11) 0.3701(11) 0.2487(12)
O12_2 O 0.3141(7) 0.3395(6) 0.2374(7)
C68_3 C 0.3634(7) 0.4086(5) 0.2045(6)
C69_3 C 0.3330(5) 0.4077(5) 0.1587(7)
H41_3 H 0.3072 0.3819 0.1543
C70_3 C 0.3411(6) 0.4454(7) 0.1195(5)
H42_3 H 0.3208 0.4447 0.0889
C71_3 C 0.3797(7) 0.4840(6) 0.1261(6)
C72_3 C 0.4101(5) 0.4850(6) 0.1719(8)
C73_3 C 0.4020(6) 0.4473(7) 0.2111(5)
H43_3 H 0.4223 0.4479 0.2417
C74_3 C 0.4741(9) 0.5400(9) 0.2198(9)
H44_3 H 0.4483 0.5429 0.2480
H45_3 H 0.4888 0.5749 0.2137
C75_3 C 0.5846(9) 0.4401(8) 0.2152(10)
H46_3 H 0.6037 0.4213 0.1901
C76_3 C 0.5948(7) 0.4328(6) 0.2687(12)
H47_3 H 0.6208 0.4090 0.2794
C77_3 C 0.5662(10) 0.4609(9) 0.3063(7)
H48_3 H 0.5731 0.4560 0.3421
C78_3 C 0.5274(9) 0.4964(8) 0.2904(11)
H49_3 H 0.5082 0.5153 0.3155
C79_3 C 0.5171(7) 0.5038(6) 0.2369(12)
C80_3 C 0.5458(10) 0.4756(10) 0.1993(7)
H50_3 H 0.5389 0.4806 0.1635
N6_3 N 0.4781(7) 0.6710(8) 0.0529(7)
C81_3 C 0.4489(11) 0.6240(10) 0.0634(11)
C82_3 C 0.4044(10) 0.6083(10) 0.0321(9)
C83_3 C 0.6299(11) 0.7487(12) 0.1509(11)
C84_3 C 0.5914(5) 0.7045(6) 0.1366(7)
C85_3 C 0.5923(5) 0.6587(7) 0.1670(5)
H51_3 H 0.6181 0.6543 0.1928
C86_3 C 0.5546(7) 0.6195(5) 0.1589(6)
H52_3 H 0.5553 0.5889 0.1792
C87_3 C 0.5160(6) 0.6261(6) 0.1203(7)
C88_3 C 0.5150(6) 0.6719(8) 0.0899(5)
C89_3 C 0.5527(7) 0.7111(5) 0.0980(6)
H53_3 H 0.5521 0.7417 0.0777
C90_3 C 0.4600(9) 0.7198(9) 0.0259(9)
H54_3 H 0.4571 0.7480 0.0517
H55_3 H 0.4251 0.7137 0.0112
O1_3 O 0.1254(6) 0.6256(6) 0.9594(7)
C12_3 C 0.1828(6) 0.8448(7) 0.9813(12)
H7_3 H 0.1590 0.8708 0.9706
C13_3 C 0.2109(9) 0.8162(10) 0.9437(7)
H8_3 H 0.2060 0.8231 0.9079
C14_3 C 0.2464(8) 0.7774(9) 0.9596(11)
H9_3 H 0.2653 0.7582 0.9345
O8_3 O 0.2576(6) 0.7576(6) 0.7424(6)
O9_3 O 0.2094(7) 0.6244(6) 0.8754(6)
C51_3 C 0.2513(12) 0.6509(11) 0.8701(11)
O10_3 O 0.2626(7) 0.6859(7) 0.8395(6)
C52_3 C 0.2955(6) 0.6366(7) 0.9086(5)
C53_3 C 0.3413(7) 0.6670(5) 0.9077(5)
H31_3 H 0.3457 0.6928 0.8819
C54_3 C 0.3805(5) 0.6589(6) 0.9454(7)
H32_3 H 0.4111 0.6792 0.9447
C55_3 C 0.3739(6) 0.6203(7) 0.9840(6)
C56_3 C 0.3281(8) 0.5899(5) 0.9850(6)
C57_3 C 0.2889(5) 0.5980(6) 0.9473(7)
H33_3 H 0.2583 0.5777 0.9479
C59_3 C 0.2848(10) 0.4154(9) 0.9401(8)
H36_3 H 0.3099 0.3963 0.9213
C60_3 C 0.2313(12) 0.4052(7) 0.9328(6)
H37_3 H 0.2206 0.3792 0.9090
C61_3 C 0.1937(7) 0.4338(10) 0.9609(9)
H38_3 H 0.1579 0.4269 0.9560
C62_3 C 0.2096(11) 0.4726(9) 0.9964(8)
C64_3 C 0.3007(7) 0.4542(10) 0.9756(10)
H40_3 H 0.3365 0.4611 0.9806
C91_3 C 0.5599(8) 0.7152(10) 0.9154(9)
H56_3 H 0.5787 0.6901 0.8963
C92_3 C 0.5672(6) 0.7687(12) 0.9052(7)
H57_3 H 0.5910 0.7794 0.8792
C93_3 C 0.5391(9) 0.8063(7) 0.9338(10)
H58_3 H 0.5440 0.8421 0.9269
C94_3 C 0.5036(8) 0.7904(11) 0.9726(9)
H59_3 H 0.4847 0.8155 0.9918
C95_3 C 0.4962(6) 0.7369(12) 0.9829(7)
C96_3 C 0.5244(10) 0.6993(7) 0.9542(10)
H60_3 H 0.5194 0.6635 0.9611
O16_2 O 0.1256(6) 0.5406(7) 0.8746(6)
O17_2 O 0.1244(6) 0.6246(6) 0.7906(7)
O20_2 O 0.0641(7) 0.4874(7) 0.9105(6)
O21_2 O 0.1859(7) 0.6605(6) 0.7374(7)
O3_3 O 0.9924(6) 0.4924(6) 0.0076(6)
H63_3 H 0.976416 0.514203 0.0360983
H64_3 H 0.963902 0.476416 0.985797
N1_4 N 0.2281(7) 0.3029(7) 0.5790(8)
O1_4 O 0.3746(6) 0.3744(6) 0.4594(7)
C1_4 C 0.1989(11) 0.3134(11) 0.6260(10)
C2_4 C 0.1544(10) 0.2821(9) 0.6417(10)
C3_4 C 0.3799(11) 0.4009(11) 0.5013(12)
O2_4 O 0.4105(6) 0.4359(7) 0.5126(7)
C4_4 C 0.3414(5) 0.3866(7) 0.5455(6)
C5_4 C 0.3423(5) 0.4170(5) 0.5913(7)
H1_4 H 0.3681 0.4428 0.5957
C6_4 C 0.3046(7) 0.4089(6) 0.6305(5)
H2_4 H 0.3053 0.4292 0.6611
C7_4 C 0.2660(6) 0.3703(7) 0.6239(6)
C8_4 C 0.2650(6) 0.3399(5) 0.5781(8)
C9_4 C 0.3027(7) 0.3480(6) 0.5389(5)
H3_4 H 0.3021 0.3277 0.5083
O3_4 O 0.5076(6) 0.5076(6) 0.5076(6)
C10_4 C 0.2100(9) 0.2759(9) 0.5302(9)
H4_4 H 0.2071 0.3017 0.5020
H5_4 H 0.1751 0.2612 0.5363
C11_4 C 0.3099(8) 0.1654(9) 0.5348(10)
H6_4 H 0.3287 0.1463 0.5599
C12_4 C 0.3172(6) 0.1552(7) 0.4813(12)
H7_4 H 0.3410 0.1292 0.4706
C13_4 C 0.2891(9) 0.1838(10) 0.4437(7)
H8_4 H 0.2940 0.1769 0.4079
C14_4 C 0.2536(8) 0.2226(9) 0.4596(11)
H9_4 H 0.2347 0.2418 0.4345
C15_4 C 0.2462(6) 0.2329(7) 0.5131(12)
C16_4 C 0.2744(10) 0.2042(10) 0.5507(7)
H10_4 H 0.2694 0.2111 0.5865
N2_4 N 0.0790(8) 0.2719(7) 0.6971(7)
C17_4 C 0.1260(10) 0.3011(11) 0.6866(11)
C18_4 C 0.1417(10) 0.3456(10) 0.7179(9)
C19_4 C 0.0013(12) 0.1201(11) 0.5991(11)
C20_4 C 0.0455(6) 0.1586(5) 0.6134(7)
C21_4 C 0.0913(7) 0.1577(5) 0.5830(5)
H11_4 H 0.0957 0.1319 0.5572
C22_4 C 0.1305(5) 0.1954(7) 0.5911(6)
H12_4 H 0.1611 0.1947 0.5708
C23_4 C 0.1239(6) 0.2340(6) 0.6297(7)
C24_4 C 0.0781(8) 0.2350(6) 0.6601(5)
C25_4 C 0.0389(5) 0.1973(7) 0.6520(6)
H13_4 H 0.0083 0.1979 0.6723
C26_4 C 0.0302(9) 0.2900(9) 0.7241(9)
H14_4 H 0.0020 0.2929 0.6983
H15_4 H 0.0363 0.3249 0.7388
C27_4 C 0.0348(10) 0.1901(8) 0.8346(9)
H16_4 H 0.0599 0.1713 0.8537
C31_4 C 0.0131(12) 0.2538(6) 0.7671(7)
C32_4 C 0.0507(7) 0.2256(10) 0.7958(10)
H20_4 H 0.0865 0.2306 0.7889
N3_4 N 0.1971(7) 0.4210(8) 0.7281(7)
C33_4 C 0.1866(11) 0.3740(10) 0.6989(11)
C34_4 C 0.2179(9) 0.3583(10) 0.6544(10)
C35_4 C 0.0991(11) 0.4987(12) 0.8799(11)
C36_4 C 0.1134(7) 0.4545(6) 0.8414(5)
C37_4 C 0.0830(5) 0.4087(7) 0.8423(5)
H21_4 H 0.0572 0.4043 0.8681
C38_4 C 0.0911(6) 0.3695(5) 0.8046(7)
H22_4 H 0.0708 0.3389 0.8053
C39_4 C 0.1297(7) 0.3761(6) 0.7660(6)
C40_4 C 0.1601(5) 0.4219(8) 0.7650(6)
C41_4 C 0.1520(6) 0.4611(5) 0.8027(7)
H23_4 H 0.1723 0.4917 0.8021
C42_4 C 0.2241(9) 0.4698(9) 0.7100(9)
H24_4 H 0.1983 0.4980 0.7071
H25_4 H 0.2388 0.4637 0.6751
C43_4 C 0.3346(9) 0.4652(10) 0.8099(8)
H26_4 H 0.3537 0.4401 0.8287
C44_4 C 0.3448(7) 0.5187(12) 0.8172(6)
H27_4 H 0.3708 0.5294 0.8410
C45_4 C 0.3162(10) 0.5563(7) 0.7891(9)
H28_4 H 0.3231 0.5921 0.7940
C46_4 C 0.2774(9) 0.5404(11) 0.7536(8)
H29_4 H 0.2582 0.5655 0.7347
C47_4 C 0.2671(7) 0.4869(12) 0.7462(6)
C48_4 C 0.2958(10) 0.4493(7) 0.7744(10)
H30_4 H 0.2889 0.4135 0.7694
O8_4 O 0.2424(6) 0.2424(6) 0.2424(6)
N4_4 N 0.1710(8) 0.4471(7) 0.5219(7)
O9_4 O 0.2906(7) 0.3756(6) 0.3754(6)
C49_4 C 0.1240(10) 0.4366(11) 0.5511(11)
C50_4 C 0.1083(10) 0.4679(9) 0.5956(10)
C51_4 C 0.2487(12) 0.3491(11) 0.3701(11)
O10_4 O 0.2374(7) 0.3141(7) 0.3395(6)
C52_4 C 0.2045(6) 0.3634(7) 0.4086(5)
C53_4 C 0.1587(7) 0.3330(5) 0.4077(5)
H31_4 H 0.1543 0.3072 0.3819
C54_4 C 0.1195(5) 0.3411(6) 0.4454(7)
H32_4 H 0.0889 0.3208 0.4447
C55_4 C 0.1261(6) 0.3797(7) 0.4840(6)
C56_4 C 0.1719(8) 0.4101(5) 0.4850(6)
C57_4 C 0.2111(5) 0.4020(6) 0.4473(7)
H33_4 H 0.2417 0.4223 0.4479
C58_4 C 0.2198(9) 0.4741(9) 0.5400(9)
H34_4 H 0.2480 0.4483 0.5429
H35_4 H 0.2137 0.4888 0.5749
C59_4 C 0.2152(10) 0.5846(9) 0.4401(8)
H36_4 H 0.1901 0.6037 0.4213
C60_4 C 0.2687(12) 0.5948(7) 0.4328(6)
H37_4 H 0.2794 0.6208 0.4090
C61_4 C 0.3063(7) 0.5662(10) 0.4609(9)
H38_4 H 0.3421 0.5731 0.4560
C62_4 C 0.2904(11) 0.5274(9) 0.4964(8)
H39_4 H 0.3155 0.5082 0.5153
C63_4 C 0.2369(12) 0.5171(7) 0.5038(6)
C64_4 C 0.1993(7) 0.5458(10) 0.4756(10)
H40_4 H 0.1635 0.5389 0.4806
N5_4 N 0.0529(7) 0.4781(7) 0.6710(8)
C65_4 C 0.0634(11) 0.4489(11) 0.6240(10)
C66_4 C 0.0321(9) 0.4044(10) 0.6083(10)
C67_4 C 0.1509(11) 0.6299(11) 0.7487(12)
C68_4 C 0.1366(7) 0.5914(5) 0.7045(6)
C69_4 C 0.1670(5) 0.5923(5) 0.6587(7)
H41_4 H 0.1928 0.6181 0.6543
C70_4 C 0.1589(6) 0.5546(7) 0.6195(5)
H42_4 H 0.1792 0.5553 0.5889
C71_4 C 0.1203(7) 0.5160(6) 0.6261(6)
C72_4 C 0.0899(5) 0.5150(6) 0.6719(8)
C73_4 C 0.0980(6) 0.5527(7) 0.7111(5)
H43_4 H 0.0777 0.5521 0.7417
C74_4 C 0.0259(9) 0.4600(9) 0.7198(9)
H44_4 H 0.0517 0.4571 0.7480
H45_4 H 0.0112 0.4251 0.7137
N6_4 N 0.0219(7) 0.3290(8) 0.5529(7)
C81_4 C 0.0511(11) 0.3760(10) 0.5634(11)
C82_4 C 0.0956(10) 0.3917(10) 0.5321(9)
C90_4 C 0.0400(9) 0.2802(9) 0.5259(9)
H54_4 H 0.0429 0.2520 0.5517
H55_4 H 0.0749 0.2863 0.5112
H59_4 H 0.0153 0.1845 0.4918
C95_4 C 0.0038(6) 0.2631(12) 0.4829(7)
C28_4 C 0.9813(12) 0.1828(6) 0.8448(7)
H17_4 H 0.9706 0.1590 0.8708
C29_4 C 0.9437(7) 0.2109(9) 0.8162(10)
H18_4 H 0.9079 0.2060 0.8231
C30_4 C 0.9596(11) 0.2464(8) 0.7774(9)
H19_4 H 0.9345 0.2653 0.7582
C75_4 C 0.9154(9) 0.5599(8) 0.7152(10)
H46_4 H 0.8963 0.5787 0.6901
C76_4 C 0.9052(7) 0.5672(6) 0.7687(12)
H47_4 H 0.8792 0.5910 0.7794
C77_4 C 0.9338(10) 0.5391(9) 0.8063(7)
H48_4 H 0.9269 0.5440 0.8421
C78_4 C 0.9726(9) 0.5036(8) 0.7904(11)
H49_4 H 0.9918 0.4847 0.8155
C79_4 C 0.9829(7) 0.4962(6) 0.7369(12)
C80_4 C 0.9542(10) 0.5244(10) 0.6993(7)
H50_4 H 0.9611 0.5194 0.6635
C83_4 C 0.8701(11) 0.2513(12) 0.6509(11)
C84_4 C 0.9086(5) 0.2955(6) 0.6366(7)
C85_4 C 0.9077(5) 0.3413(7) 0.6670(5)
H51_4 H 0.8819 0.3457 0.6928
C86_4 C 0.9454(7) 0.3805(5) 0.6589(6)
H52_4 H 0.9447 0.4111 0.6792
C87_4 C 0.9840(6) 0.3739(6) 0.6203(7)
C88_4 C 0.9850(6) 0.3281(8) 0.5899(5)
C89_4 C 0.9473(7) 0.2889(5) 0.5980(6)
H53_4 H 0.9479 0.2583 0.5777
C91_4 C 0.9401(8) 0.2848(10) 0.4154(9)
H56_4 H 0.9213 0.3099 0.3963
C92_4 C 0.9328(6) 0.2313(12) 0.4052(7)
H57_4 H 0.9090 0.2206 0.3792
C93_4 C 0.9609(9) 0.1937(7) 0.4338(10)
H58_4 H 0.9560 0.1579 0.4269
C94_4 C 0.9964(8) 0.2096(11) 0.4726(9)
C96_4 C 0.9756(10) 0.3007(7) 0.4542(10)
H60_4 H 0.9806 0.3365 0.4611
H64_4 H 0.514203 0.0360983 0.976416
H64_5 H 0.0142035 0.463902 0.0235844
H64_6 H 0.985797 0.963902 0.476416
loop_
_geom_bond_atom_site_label_1
_geom_bond_atom_site_label_2
_geom_bond_site_symmetry_1
_geom_bond_site_symmetry_2
O3 H64 1_555 1_555
Zn1 O1 1_555 1_555
Zn2 O2 1_555 1_555
N1 C1 1_555 1_555
O1 C3 1_555 1_555
C1 C2 1_555 1_555
C2 C17 1_555 1_555
C3 O2 1_555 1_555
C4 C3 1_555 1_555
C5 C4 1_555 1_555
H1 C5 1_555 1_555
C6 C5 1_555 1_555
H2 C6 1_555 1_555
C7 C6 1_555 1_555
C8 N1 1_555 1_555
C9 C4 1_555 1_555
H3 C9 1_555 1_555
C10 N1 1_555 1_555
H4 C10 1_555 1_555
H5 C10 1_555 1_555
C11 H6 1_555 1_555
C12 C11 1_555 1_555
H7 C12 1_555 1_555
C13 C12 1_555 1_555
H8 C13 1_555 1_555
C14 C13 1_555 1_555
H9 C14 1_555 1_555
C15 C10 1_555 1_555
C16 C11 1_555 1_555
H10 C16 1_555 1_555
N2 C17 1_555 1_555
O4 C19 1_555 1_555
C17 C18 1_555 1_555
C18 C33 1_555 1_555
C19 O5 1_555 1_555
O5 Zn7 1_555 1_555
C20 C19 1_555 1_555
C21 C20 1_555 1_555
H11 C21 1_555 1_555
C22 C21 1_555 1_555
H12 C22 1_555 1_555
C23 C2 1_555 1_555
C24 N2 1_555 1_555
C25 C20 1_555 1_555
H13 C25 1_555 1_555
C26 N2 1_555 1_555
H14 C26 1_555 1_555
H15 C26 1_555 1_555
C27 H16 1_555 1_555
C28 C27 1_555 1_555
H17 C28 1_555 1_555
C29 C28 1_555 1_555
H18 C29 1_555 1_555
C30 C29 1_555 1_555
H19 C30 1_555 1_555
C31 C26 1_555 1_555
C32 C27 1_555 1_555
H20 C32 1_555 1_555
N3 C33 1_555 1_555
C33 C34 1_555 1_555
C34 C1 1_555 1_555
C35 O7 1_555 1_555
C36 C35 1_555 1_555
C37 C36 1_555 1_555
H21 C37 1_555 1_555
C38 C37 1_555 1_555
H22 C38 1_555 1_555
C39 C18 1_555 1_555
C40 N3 1_555 1_555
C41 C36 1_555 1_555
H23 C41 1_555 1_555
C42 N3 1_555 1_555
H24 C42 1_555 1_555
H25 C42 1_555 1_555
C43 H26 1_555 1_555
C47 C42 1_555 1_555
C48 C43 1_555 1_555
H30 C48 1_555 1_555
Zn3 O8 1_555 1_555
N4 C49 1_555 1_555
O9 Zn1 1_555 1_555
C49 C50 1_555 1_555
C50 C65 1_555 1_555
C51 O9 1_555 1_555
O10 Zn3 1_555 1_555
C52 C51 1_555 1_555
C53 C52 1_555 1_555
H31 C53 1_555 1_555
C54 C53 1_555 1_555
H32 C54 1_555 1_555
C55 C54 1_555 1_555
C56 N4 1_555 1_555
C57 C52 1_555 1_555
H33 C57 1_555 1_555
C58 N4 1_555 1_555
H34 C58 1_555 1_555
H35 C58 1_555 1_555
N5 C65 1_555 1_555
C65 C66 1_555 1_555
C66 C81 1_555 1_555
C74 N5 1_555 1_555
H44 C74 1_555 1_555
H45 C74 1_555 1_555
C79 C74 1_555 1_555
N6 C81 1_555 1_555
O13 C83 1_555 1_555
C81 C82 1_555 1_555
C82 C49 1_555 1_555
C83 O14 1_555 1_555
O14 Zn9 1_555 1_555
C84 C83 1_555 1_555
C85 C84 1_555 1_555
H51 C85 1_555 1_555
C86 C85 1_555 1_555
H52 C86 1_555 1_555
C87 C66 1_555 1_555
C88 N6 1_555 1_555
C89 C84 1_555 1_555
H53 C89 1_555 1_555
C90 N6 1_555 1_555
H54 C90 1_555 1_555
H55 C90 1_555 1_555
C91 H56 1_555 1_555
C92 C91 1_555 1_555
H57 C92 1_555 1_555
C93 C92 1_555 1_555
H58 C93 1_555 1_555
C94 C93 1_555 1_555
H59 C94 1_555 1_555
C95 C90 1_555 1_555
C96 C91 1_555 1_555
H60 C96 1_555 1_555
Zn5 O4 1_555 1_555
O15 Zn1 1_555 1_555
O16 Zn1 1_555 1_555
O17 Zn1 1_555 1_555
O18 Zn1 1_555 1_555
O21 Zn3 1_555 1_555
O22 Zn3 1_555 1_555
C7 C8 1_555 1_555
C7 C34 1_555 1_555
C8 C9 1_555 1_555
C14 C15 1_555 1_555
C15 C16 1_555 1_555
C22 C23 1_555 1_555
C23 C24 1_555 1_555
C24 C25 1_555 1_555
C30 C31 1_555 1_555
C31 C32 1_555 1_555
C38 C39 1_555 1_555
C39 C40 1_555 1_555
C40 C41 1_555 1_555
C47 C48 1_555 1_555
C51 O10 1_555 1_555
C55 C56 1_555 1_555
C55 C82 1_555 1_555
C56 C57 1_555 1_555
O13 Zn5 1_555 1_555
C86 C87 1_555 1_555
C87 C88 1_555 1_555
C88 C89 1_555 1_555
C94 C95 1_555 1_555
C95 C96 1_555 1_555
H27 C44 1_555 1_555
C45 C44 1_555 1_555
H28 C45 1_555 1_555
C46 C45 1_555 1_555
H29 C46 1_555 1_555
C59 H36 1_555 1_555
C60 C59 1_555 1_555
H37 C60 1_555 1_555
C61 C60 1_555 1_555
H38 C61 1_555 1_555
C62 C61 1_555 1_555
H39 C62 1_555 1_555
C64 C59 1_555 1_555
H40 C64 1_555 1_555
O11 C67 1_555 1_555
C67 O12 1_555 1_555
O12 Zn8 1_555 1_555
C68 C67 1_555 1_555
C69 C68 1_555 1_555
H41 C69 1_555 1_555
C70 C69 1_555 1_555
H42 C70 1_555 1_555
C73 C68 1_555 1_555
H43 C73 1_555 1_555
C75 H46 1_555 1_555
C76 C75 1_555 1_555
H47 C76 1_555 1_555
C77 C76 1_555 1_555
H48 C77 1_555 1_555
C78 C77 1_555 1_555
C80 C75 1_555 1_555
H50 C80 1_555 1_555
Zn4 O6 1_555 1_555
C62 C63 1_555 1_555
C63 C64 1_555 1_555
O11 Zn4 1_555 1_555
C70 C71 1_555 1_555
C71 C72 1_555 1_555
C72 C73 1_555 1_555
C75_2 H46_2 1_555 1_555
C76_2 C75_2 1_555 1_555
H47_2 C76_2 1_555 1_555
C77_2 C76_2 1_555 1_555
H48_2 C77_2 1_555 1_555
C78_2 C77_2 1_555 1_555
C80_2 C75_2 1_555 1_555
H50_2 C80_2 1_555 1_555
C91_2 H56_2 1_555 1_555
C92_2 C91_2 1_555 1_555
H57_2 C92_2 1_555 1_555
C93_2 C92_2 1_555 1_555
H58_2 C93_2 1_555 1_555
C94_2 C93_2 1_555 1_555
C96_2 C91_2 1_555 1_555
H60_2 C96_2 1_555 1_555
H17_2 C28_2 1_555 1_555
C29_2 C28_2 1_555 1_555
H18_2 C29_2 1_555 1_555
C30_2 C29_2 1_555 1_555
H19_2 C30_2 1_555 1_555
O13_2 C83_2 1_555 1_555
C83_2 O14_2 1_555 1_555
O14_2 Zn9_2 1_555 1_555
C84_2 C83_2 1_555 1_555
C85_2 C84_2 1_555 1_555
H51_2 C85_2 1_555 1_555
C86_2 C85_2 1_555 1_555
H52_2 C86_2 1_555 1_555
C89_2 C84_2 1_555 1_555
H53_2 C89_2 1_555 1_555
Zn5_2 O4_2 1_555 1_555
O13_2 Zn5_2 1_555 1_555
C86_2 C87_2 1_555 1_555
C87_2 C88_2 1_555 1_555
C88_2 C89_2 1_555 1_555
C59_2 H36_2 1_555 1_555
C60_2 C59_2 1_555 1_555
H37_2 C60_2 1_555 1_555
C61_2 C60_2 1_555 1_555
H38_2 C61_2 1_555 1_555
C62_2 C61_2 1_555 1_555
C64_2 C59_2 1_555 1_555
H40_2 C64_2 1_555 1_555
H27_2 C44_2 1_555 1_555
C45_2 C44_2 1_555 1_555
H28_2 C45_2 1_555 1_555
C46_2 C45_2 1_555 1_555
H29_2 C46_2 1_555 1_555
O17 C67_2 1_555 1_555
C67_2 O21 1_555 1_555
C68_2 C67_2 1_555 1_555
C69_2 C68_2 1_555 1_555
H41_2 C69_2 1_555 1_555
C70_2 C69_2 1_555 1_555
H42_2 C70_2 1_555 1_555
C73_2 C68_2 1_555 1_555
H43_2 C73_2 1_555 1_555
C70_2 C71_2 1_555 1_555
C71_2 C72_2 1_555 1_555
C72_2 C73_2 1_555 1_555
Zn4 O1_2 1_555 1_555
H7_2 C12_2 1_555 1_555
C13_2 C12_2 1_555 1_555
H8_2 C13_2 1_555 1_555
C14_2 C13_2 1_555 1_555
H9_2 C14_2 1_555 1_555
Zn8 O8_2 1_555 1_555
O9_2 Zn4 1_555 1_555
C51_2 O9_2 1_555 1_555
O10_2 Zn8 1_555 1_555
C52_2 C51_2 1_555 1_555
C53_2 C52_2 1_555 1_555
H31_2 C53_2 1_555 1_555
C54_2 C53_2 1_555 1_555
H32_2 C54_2 1_555 1_555
C55_2 C54_2 1_555 1_555
C57_2 C52_2 1_555 1_555
H33_2 C57_2 1_555 1_555
O15_2 Zn4 1_555 1_555
O18_2 Zn4 1_555 1_555
O19_2 Zn6 1_555 1_555
O22_2 Zn8 1_555 1_555
C51_2 O10_2 1_555 1_555
C55_2 C56_2 1_555 1_555
C56_2 C57_2 1_555 1_555
N1_2 C1_2 1_555 1_555
C1_2 C2_2 1_555 1_555
C2_2 C17_2 1_555 1_555
C3_2 O2_2 1_555 1_555
C4_2 C3_2 1_555 1_555
C5_2 C4_2 1_555 1_555
H1_2 C5_2 1_555 1_555
C6_2 C5_2 1_555 1_555
H2_2 C6_2 1_555 1_555
C7_2 C6_2 1_555 1_555
C8_2 N1_2 1_555 1_555
C9_2 C4_2 1_555 1_555
H3_2 C9_2 1_555 1_555
C10_2 N1_2 1_555 1_555
H4_2 C10_2 1_555 1_555
H5_2 C10_2 1_555 1_555
C11_2 H6_2 1_555 1_555
C15_2 C10_2 1_555 1_555
C16_2 C11_2 1_555 1_555
H10_2 C16_2 1_555 1_555
N2_2 C17_2 1_555 1_555
C17_2 C18_2 1_555 1_555
C18_2 C33_2 1_555 1_555
C19_2 O5_2 1_555 1_555
C20_2 C19_2 1_555 1_555
C21_2 C20_2 1_555 1_555
H11_2 C21_2 1_555 1_555
C22_2 C21_2 1_555 1_555
H12_2 C22_2 1_555 1_555
C23_2 C2_2 1_555 1_555
C24_2 N2_2 1_555 1_555
C25_2 C20_2 1_555 1_555
H13_2 C25_2 1_555 1_555
C26_2 N2_2 1_555 1_555
H14_2 C26_2 1_555 1_555
H15_2 C26_2 1_555 1_555
C27_2 H16_2 1_555 1_555
C31_2 C26_2 1_555 1_555
C32_2 C27_2 1_555 1_555
H20_2 C32_2 1_555 1_555
N3_2 C33_2 1_555 1_555
C33_2 C34_2 1_555 1_555
C34_2 C1_2 1_555 1_555
C35_2 O20 1_555 1_555
C36_2 C35_2 1_555 1_555
C37_2 C36_2 1_555 1_555
H21_2 C37_2 1_555 1_555
C38_2 C37_2 1_555 1_555
H22_2 C38_2 1_555 1_555
C39_2 C18_2 1_555 1_555
C40_2 N3_2 1_555 1_555
C41_2 C36_2 1_555 1_555
H23_2 C41_2 1_555 1_555
C42_2 N3_2 1_555 1_555
H24_2 C42_2 1_555 1_555
H25_2 C42_2 1_555 1_555
C43_2 H26_2 1_555 1_555
C47_2 C42_2 1_555 1_555
C48_2 C43_2 1_555 1_555
H30_2 C48_2 1_555 1_555
N4_2 C49_2 1_555 1_555
C49_2 C50_2 1_555 1_555
C50_2 C65_2 1_555 1_555
C58_2 N4_2 1_555 1_555
H34_2 C58_2 1_555 1_555
H35_2 C58_2 1_555 1_555
N5_2 C65_2 1_555 1_555
C65_2 C66_2 1_555 1_555
C66_2 C81_2 1_555 1_555
C74_2 N5_2 1_555 1_555
H44_2 C74_2 1_555 1_555
H45_2 C74_2 1_555 1_555
N6_2 C81_2 1_555 1_555
C81_2 C82_2 1_555 1_555
C82_2 C49_2 1_555 1_555
C90_2 N6_2 1_555 1_555
H54_2 C90_2 1_555 1_555
H55_2 C90_2 1_555 1_555
C7_2 C8_2 1_555 1_555
C7_2 C34_2 1_555 1_555
C8_2 C9_2 1_555 1_555
C15_2 C16_2 1_555 1_555
C22_2 C23_2 1_555 1_555
C23_2 C24_2 1_555 1_555
C24_2 C25_2 1_555 1_555
C31_2 C32_2 1_555 1_555
C38_2 C39_2 1_555 1_555
C39_2 C40_2 1_555 1_555
C40_2 C41_2 1_555 1_555
C47_2 C48_2 1_555 1_555
N1_3 C1_3 1_555 1_555
C1_3 C2_3 1_555 1_555
C2_3 C17_3 1_555 1_555
C3_3 O2_3 1_555 1_555
C4_3 C3_3 1_555 1_555
C5_3 C4_3 1_555 1_555
H1_3 C5_3 1_555 1_555
C6_3 C5_3 1_555 1_555
H2_3 C6_3 1_555 1_555
C7_3 C6_3 1_555 1_555
C8_3 N1_3 1_555 1_555
C9_3 C4_3 1_555 1_555
H3_3 C9_3 1_555 1_555
C10_3 N1_3 1_555 1_555
H4_3 C10_3 1_555 1_555
H5_3 C10_3 1_555 1_555
C11_3 H6_3 1_555 1_555
C15_3 C10_3 1_555 1_555
C16_3 C11_3 1_555 1_555
H10_3 C16_3 1_555 1_555
N2_3 C17_3 1_555 1_555
O15_2 C19_3 1_555 1_555
C17_3 C18_3 1_555 1_555
C18_3 C33_3 1_555 1_555
C19_3 O19_2 1_555 1_555
C20_3 C19_3 1_555 1_555
C21_3 C20_3 1_555 1_555
H11_3 C21_3 1_555 1_555
C22_3 C21_3 1_555 1_555
H12_3 C22_3 1_555 1_555
C23_3 C2_3 1_555 1_555
C24_3 N2_3 1_555 1_555
C25_3 C20_3 1_555 1_555
H13_3 C25_3 1_555 1_555
C26_3 N2_3 1_555 1_555
H14_3 C26_3 1_555 1_555
H15_3 C26_3 1_555 1_555
C27_3 H16_3 1_555 1_555
C28_3 C27_3 1_555 1_555
H17_3 C28_3 1_555 1_555
C29_3 C28_3 1_555 1_555
H18_3 C29_3 1_555 1_555
C30_3 C29_3 1_555 1_555
H19_3 C30_3 1_555 1_555
C31_3 C26_3 1_555 1_555
C32_3 C27_3 1_555 1_555
H20_3 C32_3 1_555 1_555
N3_3 C33_3 1_555 1_555
O6_2 C35_3 1_555 1_555
C33_3 C34_3 1_555 1_555
C34_3 C1_3 1_555 1_555
C35_3 O7_2 1_555 1_555
O7_2 Zn7 1_555 1_555
C36_3 C35_3 1_555 1_555
C37_3 C36_3 1_555 1_555
H21_3 C37_3 1_555 1_555
C38_3 C37_3 1_555 1_555
H22_3 C38_3 1_555 1_555
C39_3 C18_3 1_555 1_555
C40_3 N3_3 1_555 1_555
C41_3 C36_3 1_555 1_555
H23_3 C41_3 1_555 1_555
C42_3 N3_3 1_555 1_555
H24_3 C42_3 1_555 1_555
H25_3 C42_3 1_555 1_555
C43_3 H26_3 1_555 1_555
C44_3 C43_3 1_555 1_555
H27_3 C44_3 1_555 1_555
C45_3 C44_3 1_555 1_555
H28_3 C45_3 1_555 1_555
C46_3 C45_3 1_555 1_555
H29_3 C46_3 1_555 1_555
C47_3 C42_3 1_555 1_555
C48_3 C43_3 1_555 1_555
H30_3 C48_3 1_555 1_555
N4_3 C49_3 1_555 1_555
C49_3 C50_3 1_555 1_555
C50_3 C65_3 1_555 1_555
C58_3 N4_3 1_555 1_555
H34_3 C58_3 1_555 1_555
H35_3 C58_3 1_555 1_555
C63_3 C58_3 1_555 1_555
N5_3 C65_3 1_555 1_555
O11_2 C67_3 1_555 1_555
C65_3 C66_3 1_555 1_555
C66_3 C81_3 1_555 1_555
C67_3 O12_2 1_555 1_555
O12_2 Zn9 1_555 1_555
C68_3 C67_3 1_555 1_555
C69_3 C68_3 1_555 1_555
H41_3 C69_3 1_555 1_555
C70_3 C69_3 1_555 1_555
H42_3 C70_3 1_555 1_555
C71_3 C50_3 1_555 1_555
C72_3 N5_3 1_555 1_555
C73_3 C68_3 1_555 1_555
H43_3 C73_3 1_555 1_555
C74_3 N5_3 1_555 1_555
H44_3 C74_3 1_555 1_555
H45_3 C74_3 1_555 1_555
C75_3 H46_3 1_555 1_555
C76_3 C75_3 1_555 1_555
H47_3 C76_3 1_555 1_555
C77_3 C76_3 1_555 1_555
H48_3 C77_3 1_555 1_555
C78_3 C77_3 1_555 1_555
H49_3 C78_3 1_555 1_555
C79_3 C74_3 1_555 1_555
C80_3 C75_3 1_555 1_555
H50_3 C80_3 1_555 1_555
N6_3 C81_3 1_555 1_555
O18_2 C83_3 1_555 1_555
C81_3 C82_3 1_555 1_555
C82_3 C49_3 1_555 1_555
C83_3 O22_2 1_555 1_555
C84_3 C83_3 1_555 1_555
C85_3 C84_3 1_555 1_555
H51_3 C85_3 1_555 1_555
C86_3 C85_3 1_555 1_555
H52_3 C86_3 1_555 1_555
C87_3 C66_3 1_555 1_555
C88_3 N6_3 1_555 1_555
C89_3 C84_3 1_555 1_555
H53_3 C89_3 1_555 1_555
C90_3 N6_3 1_555 1_555
H54_3 C90_3 1_555 1_555
H55_3 C90_3 1_555 1_555
Zn5 O6_2 1_555 1_555
C7_3 C8_3 1_555 1_555
C7_3 C34_3 1_555 1_555
C8_3 C9_3 1_555 1_555
C15_3 C16_3 1_555 1_555
C22_3 C23_3 1_555 1_555
C23_3 C24_3 1_555 1_555
C24_3 C25_3 1_555 1_555
C30_3 C31_3 1_555 1_555
C31_3 C32_3 1_555 1_555
C38_3 C39_3 1_555 1_555
C39_3 C40_3 1_555 1_555
C40_3 C41_3 1_555 1_555
C46_3 C47_3 1_555 1_555
C47_3 C48_3 1_555 1_555
O11_2 Zn5 1_555 1_555
C70_3 C71_3 1_555 1_555
C71_3 C72_3 1_555 1_555
C72_3 C73_3 1_555 1_555
C78_3 C79_3 1_555 1_555
C79_3 C80_3 1_555 1_555
C86_3 C87_3 1_555 1_555
C87_3 C88_3 1_555 1_555
C88_3 C89_3 1_555 1_555
Zn5_2 O1_3 1_555 1_555
H7_3 C12_3 1_555 1_555
C13_3 C12_3 1_555 1_555
H8_3 C13_3 1_555 1_555
C14_3 C13_3 1_555 1_555
H9_3 C14_3 1_555 1_555
Zn9_2 O8_3 1_555 1_555
O9_3 Zn5_2 1_555 1_555
C51_3 O9_3 1_555 1_555
O10_3 Zn9_2 1_555 1_555
C52_3 C51_3 1_555 1_555
C53_3 C52_3 1_555 1_555
H31_3 C53_3 1_555 1_555
C54_3 C53_3 1_555 1_555
H32_3 C54_3 1_555 1_555
C55_3 C54_3 1_555 1_555
C57_3 C52_3 1_555 1_555
H33_3 C57_3 1_555 1_555
C59_3 H36_3 1_555 1_555
C60_3 C59_3 1_555 1_555
H37_3 C60_3 1_555 1_555
C61_3 C60_3 1_555 1_555
H38_3 C61_3 1_555 1_555
C62_3 C61_3 1_555 1_555
C64_3 C59_3 1_555 1_555
H40_3 C64_3 1_555 1_555
C91_3 H56_3 1_555 1_555
C92_3 C91_3 1_555 1_555
H57_3 C92_3 1_555 1_555
C93_3 C92_3 1_555 1_555
H58_3 C93_3 1_555 1_555
C94_3 C93_3 1_555 1_555
H59_3 C94_3 1_555 1_555
C96_3 C91_3 1_555 1_555
H60_3 C96_3 1_555 1_555
O16_2 Zn5_2 1_555 1_555
O17_2 Zn5_2 1_555 1_555
O20_2 Zn7_2 1_555 1_555
O21_2 Zn9_2 1_555 1_555
C51_3 O10_3 1_555 1_555
C55_3 C56_3 1_555 1_555
C56_3 C57_3 1_555 1_555
C94_3 C95_3 1_555 1_555
C95_3 C96_3 1_555 1_555
O3_3 H63_3 1_555 1_555
Zn5 O1_4 1_555 1_555
Zn7 O2_4 1_555 1_555
N1_4 C1_4 1_555 1_555
O1_4 C3_4 1_555 1_555
C1_4 C2_4 1_555 1_555
C2_4 C17_4 1_555 1_555
C3_4 O2_4 1_555 1_555
C4_4 C3_4 1_555 1_555
C5_4 C4_4 1_555 1_555
H1_4 C5_4 1_555 1_555
C6_4 C5_4 1_555 1_555
H2_4 C6_4 1_555 1_555
C7_4 C6_4 1_555 1_555
C8_4 N1_4 1_555 1_555
C9_4 C4_4 1_555 1_555
H3_4 C9_4 1_555 1_555
O3_4 Zn7 1_555 1_555
C10_4 N1_4 1_555 1_555
H4_4 C10_4 1_555 1_555
H5_4 C10_4 1_555 1_555
C11_4 H6_4 1_555 1_555
C12_4 C11_4 1_555 1_555
H7_4 C12_4 1_555 1_555
C13_4 C12_4 1_555 1_555
H8_4 C13_4 1_555 1_555
C14_4 C13_4 1_555 1_555
H9_4 C14_4 1_555 1_555
C15_4 C10_4 1_555 1_555
C16_4 C11_4 1_555 1_555
H10_4 C16_4 1_555 1_555
N2_4 C17_4 1_555 1_555
C17_4 C18_4 1_555 1_555
C18_4 C33_4 1_555 1_555
C19_4 O19 1_555 1_555
C20_4 C19_4 1_555 1_555
C21_4 C20_4 1_555 1_555
H11_4 C21_4 1_555 1_555
C22_4 C21_4 1_555 1_555
H12_4 C22_4 1_555 1_555
C23_4 C2_4 1_555 1_555
C24_4 N2_4 1_555 1_555
C25_4 C20_4 1_555 1_555
H13_4 C25_4 1_555 1_555
C26_4 N2_4 1_555 1_555
H14_4 C26_4 1_555 1_555
H15_4 C26_4 1_555 1_555
C27_4 H16_4 1_555 1_555
C31_4 C26_4 1_555 1_555
C32_4 C27_4 1_555 1_555
H20_4 C32_4 1_555 1_555
N3_4 C33_4 1_555 1_555
O16_2 C35_4 1_555 1_555
C33_4 C34_4 1_555 1_555
C34_4 C1_4 1_555 1_555
C35_4 O20_2 1_555 1_555
C36_4 C35_4 1_555 1_555
C37_4 C36_4 1_555 1_555
H21_4 C37_4 1_555 1_555
C38_4 C37_4 1_555 1_555
H22_4 C38_4 1_555 1_555
C39_4 C18_4 1_555 1_555
C40_4 N3_4 1_555 1_555
C41_4 C36_4 1_555 1_555
H23_4 C41_4 1_555 1_555
C42_4 N3_4 1_555 1_555
H24_4 C42_4 1_555 1_555
H25_4 C42_4 1_555 1_555
C43_4 H26_4 1_555 1_555
C44_4 C43_4 1_555 1_555
H27_4 C44_4 1_555 1_555
C45_4 C44_4 1_555 1_555
H28_4 C45_4 1_555 1_555
C46_4 C45_4 1_555 1_555
H29_4 C46_4 1_555 1_555
C47_4 C42_4 1_555 1_555
C48_4 C43_4 1_555 1_555
H30_4 C48_4 1_555 1_555
Zn9 O8_4 1_555 1_555
N4_4 C49_4 1_555 1_555
O9_4 Zn5 1_555 1_555
C49_4 C50_4 1_555 1_555
C50_4 C65_4 1_555 1_555
C51_4 O9_4 1_555 1_555
O10_4 Zn9 1_555 1_555
C52_4 C51_4 1_555 1_555
C53_4 C52_4 1_555 1_555
H31_4 C53_4 1_555 1_555
C54_4 C53_4 1_555 1_555
H32_4 C54_4 1_555 1_555
C55_4 C54_4 1_555 1_555
C56_4 N4_4 1_555 1_555
C57_4 C52_4 1_555 1_555
H33_4 C57_4 1_555 1_555
C58_4 N4_4 1_555 1_555
H34_4 C58_4 1_555 1_555
H35_4 C58_4 1_555 1_555
C59_4 H36_4 1_555 1_555
C60_4 C59_4 1_555 1_555
H37_4 C60_4 1_555 1_555
C61_4 C60_4 1_555 1_555
H38_4 C61_4 1_555 1_555
C62_4 C61_4 1_555 1_555
H39_4 C62_4 1_555 1_555
C63_4 C58_4 1_555 1_555
C64_4 C59_4 1_555 1_555
H40_4 C64_4 1_555 1_555
N5_4 C65_4 1_555 1_555
O17_2 C67_4 1_555 1_555
C65_4 C66_4 1_555 1_555
C66_4 C81_4 1_555 1_555
C67_4 O21_2 1_555 1_555
C68_4 C67_4 1_555 1_555
C69_4 C68_4 1_555 1_555
H41_4 C69_4 1_555 1_555
C70_4 C69_4 1_555 1_555
H42_4 C70_4 1_555 1_555
C71_4 C50_4 1_555 1_555
C72_4 N5_4 1_555 1_555
C73_4 C68_4 1_555 1_555
H43_4 C73_4 1_555 1_555
C74_4 N5_4 1_555 1_555
H44_4 C74_4 1_555 1_555
H45_4 C74_4 1_555 1_555
N6_4 C81_4 1_555 1_555
C81_4 C82_4 1_555 1_555
C82_4 C49_4 1_555 1_555
C90_4 N6_4 1_555 1_555
H54_4 C90_4 1_555 1_555
H55_4 C90_4 1_555 1_555
C95_4 C90_4 1_555 1_555
C7_4 C8_4 1_555 1_555
C7_4 C34_4 1_555 1_555
C8_4 C9_4 1_555 1_555
C14_4 C15_4 1_555 1_555
C15_4 C16_4 1_555 1_555
C22_4 C23_4 1_555 1_555
C23_4 C24_4 1_555 1_555
C24_4 C25_4 1_555 1_555
C31_4 C32_4 1_555 1_555
C38_4 C39_4 1_555 1_555
C39_4 C40_4 1_555 1_555
C40_4 C41_4 1_555 1_555
C46_4 C47_4 1_555 1_555
C47_4 C48_4 1_555 1_555
C51_4 O10_4 1_555 1_555
C55_4 C56_4 1_555 1_555
C55_4 C82_4 1_555 1_555
C56_4 C57_4 1_555 1_555
C62_4 C63_4 1_555 1_555
C63_4 C64_4 1_555 1_555
C70_4 C71_4 1_555 1_555
C71_4 C72_4 1_555 1_555
C72_4 C73_4 1_555 1_555
H17_4 C28_4 1_555 1_555
C29_4 C28_4 1_555 1_555
H18_4 C29_4 1_555 1_555
C30_4 C29_4 1_555 1_555
H19_4 C30_4 1_555 1_555
C75_4 H46_4 1_555 1_555
C76_4 C75_4 1_555 1_555
H47_4 C76_4 1_555 1_555
C77_4 C76_4 1_555 1_555
H48_4 C77_4 1_555 1_555
C78_4 C77_4 1_555 1_555
H49_4 C78_4 1_555 1_555
C80_4 C75_4 1_555 1_555
H50_4 C80_4 1_555 1_555
O18 C83_4 1_555 1_555
C83_4 O22 1_555 1_555
C84_4 C83_4 1_555 1_555
C85_4 C84_4 1_555 1_555
H51_4 C85_4 1_555 1_555
C86_4 C85_4 1_555 1_555
H52_4 C86_4 1_555 1_555
C89_4 C84_4 1_555 1_555
H53_4 C89_4 1_555 1_555
C91_4 H56_4 1_555 1_555
C92_4 C91_4 1_555 1_555
H57_4 C92_4 1_555 1_555
C93_4 C92_4 1_555 1_555
H58_4 C93_4 1_555 1_555
C94_4 C93_4 1_555 1_555
C96_4 C91_4 1_555 1_555
H60_4 C96_4 1_555 1_555
C78_4 C79_4 1_555 1_555
C79_4 C80_4 1_555 1_555
C86_4 C87_4 1_555 1_555
C87_4 C88_4 1_555 1_555
C88_4 C89_4 1_555 1_555
O3_2 H64_4 1_555 1_555

#END
