
###############################################################################
#
# This file contains modified crystal structure data generated from the
# MOF subset of the Cambridge Structural Database (CSD) v543 
# hosted by the Cambridge Crystallographic Data Centre (CCDC).
#
# This work is licensed under the Creative Commons
# Attribution-NonCommercial-ShareAlike 4.0 International License.
# To view a copy of this license, visit
# http://creativecommons.org/licenses/by-nc-sa/4.0/
# or send a letter to
# Creative Commons, PO Box 1866, Mountain View, CA 94042, USA.
#
# CIF created using the CSD Python API on 29 September 2022
# The structure has been converted into the P1 space group
# The structure has a 3D framework
# The original CSD entry MOSKAJ is in the monoclinic crystal system
# The framework has been calculated to contain at least 10.0% void space
# The void calculation uses a probe of radius 1.32A, grid spacing 0.4
#
###############################################################################

data_MOSKAJ
_chemical_formula_moiety         '(C228 H156 N4 O28 Zn6)n'
_symmetry_cell_setting           triclinic
_symmetry_space_group_name_H-M   'P 1'
_symmetry_Int_Tables_number      1
_space_group_name_Hall           'P 1'
loop_
_symmetry_equiv_pos_site_id
_symmetry_equiv_pos_as_xyz
1 x,y,z
_cell_length_a                   21.4034(11)
_cell_length_b                   13.3957(7)
_cell_length_c                   19.4446(10)
_cell_angle_alpha                90
_cell_angle_beta                 115.465(2)
_cell_angle_gamma                90
_cell_volume                     5033.41
loop_
_atom_site_label
_atom_site_type_symbol
_atom_site_fract_x
_atom_site_fract_y
_atom_site_fract_z
O1 O 0.03629(11) 0.49975(19) 0.19402(13)
Zn5 Zn 0.11377(2) 0.43814(4) 0.18118(2)
C37 C 0.35666(16) 0.0268(2) 0.74287(18)
H22 H 0.379267 0.089517 0.757202
C38 C 0.28803(15) 0.0225(2) 0.69042(17)
H23 H 0.263377 0.082151 0.668974
Zn1 Zn 0.11377(2) 0.06186(4) 0.68118(2)
O10 O 0.03629(11) 0.00025(19) 0.69402(13)
O13 O 0.19147(10) 0.12953(16) 0.76803(12)
O14 O 0.06272(10) 0.18203(17) 0.61816(12)
C6 C 0.61921(14) 0.0245(2) 0.02248(15)
C7 C 0.68239(15) 0.0283(2) 0.08691(16)
H4 H 0.703080 0.091266 0.105813
C9 C 0.58500(15) 0.2044(2) 0.02232(16)
H5 H 0.605613 0.202901 0.076422
H6 H 0.554702 0.348909 0.013394
C19 C 0.72326(14) 0.5262(2) 0.06010(16)
C20 C 0.66696(15) 0.5746(2) 0.06335(16)
H11 H 0.674405 0.617443 0.105089
C21 C 0.60051(14) 0.5615(2) 0.00718(16)
H12 H 0.563249 0.596010 0.010812
C22 C 0.79490(15) 0.5399(2) 0.12082(17)
C23 C 0.80781(17) 0.5633(3) 0.19525(19)
H13 H 0.770123 0.573299 0.208026
C24 C 0.87514(19) 0.5722(3) 0.2513(2)
H14 H 0.883279 0.590476 0.301660
C25 C 0.93057(17) 0.5543(3) 0.2338(2)
H15 H 0.976622 0.558083 0.272527
C26 C 0.91856(15) 0.5312(2) 0.16032(18)
C27 C 0.85111(15) 0.5261(2) 0.10375(18)
H16 H 0.843290 0.513089 0.052659
C28 C 0.97627(15) 0.5044(2) 0.13977(18)
O2 O 0.96352(10) 0.48679(17) 0.07138(12)
O3 O 0.81151(11) 0.03234(17) 0.21469(12)
Zn6 Zn 0.92790(2) 0.35945(4) 0.01892(3)
C8 C 0.58558(14) 0.1180(2) 0.98191(15)
C10 C 0.55493(14) 0.2916(2) 0.98477(15)
C11 C 0.52482(14) 0.2966(2) 0.90525(15)
C12 C 0.52477(15) 0.2104(2) 0.86556(15)
H7 H 0.503651 0.211525 0.811451
C13 C 0.55465(15) 0.1232(2) 0.90285(16)
H8 H 0.554074 0.065671 0.874009
C14 C 0.49022(13) 0.3895(2) 0.86276(15)
C15 C 0.51559(14) 0.4828(2) 0.88517(15)
C16 C 0.58726(14) 0.4989(2) 0.94546(15)
C17 C 0.64360(15) 0.4505(2) 0.94156(16)
H9 H 0.636124 0.407893 0.899671
C18 C 0.70980(15) 0.4638(2) 0.99771(17)
H10 H 0.747121 0.429746 0.993890
C29 C 0.47520(14) 0.5756(2) 0.85185(15)
C30 C 0.50835(14) 0.6614(2) 0.84326(16)
H17 H 0.556979 0.660262 0.859120
C31 C 0.47169(14) 0.7481(2) 0.81206(15)
H18 H 0.495803 0.805126 0.807067
C32 C 0.40030(14) 0.7535(2) 0.78786(15)
C33 C 0.36713(15) 0.6683(2) 0.79843(16)
H19 H 0.318629 0.669695 0.783395
C34 C 0.40390(14) 0.5827(2) 0.83027(15)
H20 H 0.380210 0.526897 0.837840
C35 C 0.36109(15) 0.8467(2) 0.75362(15)
C36 C 0.39259(15) 0.9397(2) 0.77463(17)
H21 H 0.439457 0.943592 0.811310
C39 C 0.25535(15) 0.9307(2) 0.66924(16)
C40 C 0.29208(14) 0.8431(2) 0.69993(16)
H24 H 0.269865 0.780269 0.684096
C41 C 0.18185(16) 0.9258(2) 0.61158(17)
C42 C 0.42424(14) 0.3703(2) 0.79368(15)
C43 C 0.37604(14) 0.3033(2) 0.79783(15)
H25 H 0.385627 0.270454 0.844621
C44 C 0.31434(14) 0.2838(2) 0.73468(16)
H26 H 0.281609 0.239958 0.739556
C45 C 0.29942(14) 0.3274(2) 0.66423(16)
C46 C 0.34841(14) 0.3933(2) 0.65987(16)
H27 H 0.339751 0.423865 0.612549
C47 C 0.40942(14) 0.4146(2) 0.72351(16)
H28 H 0.441566 0.460109 0.719136
C48 C 0.23477(15) 0.3020(2) 0.59657(16)
C49 C 0.23132(17) 0.3049(3) 0.52319(18)
H29 H 0.270874 0.324706 0.516280
C50 C 0.17108(18) 0.2794(3) 0.46042(19)
H30 H 0.169652 0.282349 0.410954
C51 C 0.11344(17) 0.2500(3) 0.46890(19)
H31 H 0.072023 0.233913 0.425430
C52 C 0.11582(16) 0.2438(2) 0.54112(17)
C53 C 0.17661(15) 0.2703(2) 0.60485(17)
H32 H 0.178002 0.266572 0.654280
C54 C 0.05515(16) 0.2091(2) 0.55267(18)
C55 C 0.0711(2) 0.7801(3) 0.3387(2)
H33 H 0.021925 0.778420 0.315950
C56 C 0.1772(3) 0.7747(4) 0.3221(3)
H34 H 0.198045 0.785666 0.377303
H35 H 0.190177 0.829318 0.297368
H36 H 0.193770 0.711236 0.311043
C57 C 0.0630(3) 0.7599(5) 0.2128(3)
H37 H 0.013620 0.765672 0.200083
H38 H 0.072262 0.694148 0.197026
H39 H 0.076083 0.812037 0.186056
N1 N 0.1028(2) 0.7714(3) 0.2936(2)
O7 O 0.16502(11) 0.85423(17) 0.56477(13)
O8 O 0.13893(11) 0.99282(18) 0.60728(12)
O9 O 0.10126(14) 0.7903(2) 0.40822(14)
Zn2 Zn 0.07210(2) 0.85945(4) 0.48108(3)
O11 O 0.03648(10) 0.98679(17) 0.42862(12)
O12 O 0.18849(11) 0.96766(17) 0.78531(12)
O15 O 0.00344(11) 0.79175(18) 0.50477(13)
C1 C 0.78274(15) 0.9502(2) 0.19389(16)
C2 C 0.71552(14) 0.9421(2) 0.12385(16)
C3 C 0.68509(15) 0.8500(2) 0.09661(16)
H1 H 0.707670 0.790396 0.121429
C4 C 0.62203(16) 0.8449(2) 0.03349(17)
H2 H 0.601178 0.781924 0.015081
O4 O 0.80853(10) 0.87047(16) 0.23197(12)
Zn4 Zn 0.88623(2) 0.93814(4) 0.31882(2)
O6 O 0.99656(11) 0.20825(18) 0.49523(13)
Zn7 Zn 0.92790(2) 0.14055(4) 0.51892(3)
O6_2 O 0.00344(11) 0.70825(18) 0.00477(13)
Zn7_2 Zn 0.07210(2) 0.64055(4) 0.98108(3)
C55_2 C 0.9289(2) 0.2801(3) 0.1613(2)
H33_2 H 0.978075 0.278420 0.184050
C56_2 C 0.8228(3) 0.2747(4) 0.1779(3)
H34_2 H 0.801955 0.285666 0.122697
H35_2 H 0.809823 0.329318 0.202632
H36_2 H 0.806230 0.211236 0.188957
C57_2 C 0.9370(3) 0.2599(5) 0.2872(3)
H37_2 H 0.986380 0.265672 0.299917
H38_2 H 0.927738 0.194148 0.302974
H39_2 H 0.923917 0.312037 0.313944
N1_2 N 0.8972(2) 0.2714(3) 0.2064(2)
O9_2 O 0.89874(14) 0.2903(2) 0.09178(14)
C19_2 C 0.27674(14) 0.0262(2) 0.43990(16)
C20_2 C 0.33304(15) 0.0746(2) 0.43665(16)
H11_2 H 0.325595 0.117443 0.394911
C21_2 C 0.39949(14) 0.0615(2) 0.49282(16)
H12_2 H 0.436751 0.096010 0.489188
C22_2 C 0.20510(15) 0.0399(2) 0.37918(17)
C23_2 C 0.19219(17) 0.0633(3) 0.30475(19)
H13_2 H 0.229877 0.073299 0.291974
C24_2 C 0.12486(19) 0.0722(3) 0.2487(2)
H14_2 H 0.116721 0.090476 0.198340
C25_2 C 0.06943(17) 0.0543(3) 0.2662(2)
H15_2 H 0.023378 0.058083 0.227473
C26_2 C 0.08144(15) 0.0312(2) 0.33968(18)
C27_2 C 0.14889(15) 0.0261(2) 0.39625(18)
H16_2 H 0.156710 0.013089 0.447341
C28_2 C 0.02373(15) 0.0044(2) 0.36023(18)
C29_2 C 0.52480(14) 0.0756(2) 0.64815(15)
C30_2 C 0.49165(14) 0.1614(2) 0.65674(16)
H17_2 H 0.443021 0.160262 0.640880
C31_2 C 0.52831(14) 0.2481(2) 0.68794(15)
H18_2 H 0.504197 0.305126 0.692933
C32_2 C 0.59970(14) 0.2535(2) 0.71214(15)
C33_2 C 0.63287(15) 0.1683(2) 0.70157(16)
H19_2 H 0.681371 0.169695 0.716605
C34_2 C 0.59610(14) 0.0827(2) 0.66973(15)
H20_2 H 0.619790 0.026897 0.662160
C35_2 C 0.63891(15) 0.3467(2) 0.74638(15)
C36_2 C 0.60741(15) 0.4397(2) 0.72537(17)
H21_2 H 0.560543 0.443592 0.688690
C37_2 C 0.64334(16) 0.5268(2) 0.75713(18)
H22_2 H 0.620733 0.589517 0.742798
C38_2 C 0.71197(15) 0.5225(2) 0.80958(17)
H23_2 H 0.736623 0.582151 0.831026
C39_2 C 0.74465(15) 0.4307(2) 0.83076(16)
C40_2 C 0.70792(14) 0.3431(2) 0.80007(16)
H24_2 H 0.730135 0.280269 0.815904
C41_2 C 0.81815(16) 0.4258(2) 0.88842(17)
O7_2 O 0.83498(11) 0.35423(17) 0.93523(13)
O8_2 O 0.86107(11) 0.49282(18) 0.89272(12)
Zn1_2 Zn 0.88623(2) 0.56186(4) 0.81882(2)
O10_2 O 0.96371(11) 0.50025(19) 0.80598(13)
O12_2 O 0.81151(11) 0.46766(17) 0.71469(12)
O13_2 O 0.80853(10) 0.62953(16) 0.73197(12)
O14_2 O 0.93728(10) 0.68203(17) 0.88184(12)
O15_2 O 0.99656(11) 0.29175(18) 0.99523(13)
C1_2 C 0.21726(15) 0.4502(2) 0.30611(16)
C2_2 C 0.28448(14) 0.4421(2) 0.37615(16)
C3_2 C 0.31491(15) 0.3500(2) 0.40339(16)
H1_2 H 0.292330 0.290396 0.378571
C4_2 C 0.37797(16) 0.3449(2) 0.46651(17)
H2_2 H 0.398822 0.281924 0.484919
C5 C 0.41088(16) 0.4318(2) 0.50308(17)
H3 H 0.454502 0.427797 0.546085
C6_2 C 0.38079(14) 0.5245(2) 0.47752(15)
C7_2 C 0.31761(15) 0.5283(2) 0.41309(16)
H4_2 H 0.296920 0.591266 0.394187
C8_2 C 0.41442(14) 0.6180(2) 0.51809(15)
C9_2 C 0.41500(15) 0.7044(2) 0.47768(16)
H5_2 H 0.394387 0.702901 0.423578
C10_2 C 0.44507(14) 0.7916(2) 0.51523(15)
H6_2 H 0.445298 0.848909 0.486606
C11_2 C 0.47518(14) 0.7966(2) 0.59475(15)
C12_2 C 0.47523(15) 0.7104(2) 0.63444(15)
H7_2 H 0.496349 0.711525 0.688549
C13_2 C 0.44535(15) 0.6232(2) 0.59715(16)
H8_2 H 0.445926 0.565671 0.625991
C14_2 C 0.50978(13) 0.8895(2) 0.63724(15)
C15_2 C 0.48441(14) 0.9828(2) 0.61483(15)
C16_2 C 0.41274(14) 0.9989(2) 0.55454(15)
C17_2 C 0.35640(15) 0.9505(2) 0.55844(16)
H9_2 H 0.363876 0.907893 0.600329
C18_2 C 0.29020(15) 0.9638(2) 0.50229(17)
H10_2 H 0.252879 0.929746 0.506110
C42_2 C 0.57576(14) 0.8703(2) 0.70632(15)
C43_2 C 0.62396(14) 0.8033(2) 0.70217(15)
H25_2 H 0.614373 0.770454 0.655379
C44_2 C 0.68566(14) 0.7838(2) 0.76532(16)
H26_2 H 0.718391 0.739958 0.760444
C45_2 C 0.70058(14) 0.8274(2) 0.83577(16)
C46_2 C 0.65159(14) 0.8933(2) 0.84013(16)
H27_2 H 0.660249 0.923865 0.887451
C47_2 C 0.59058(14) 0.9146(2) 0.77649(16)
H28_2 H 0.558434 0.960109 0.780864
C48_2 C 0.76523(15) 0.8020(2) 0.90343(16)
C49_2 C 0.76868(17) 0.8049(3) 0.97681(18)
H29_2 H 0.729126 0.824706 0.983720
C52_2 C 0.88418(16) 0.7438(2) 0.95888(17)
C53_2 C 0.82339(15) 0.7703(2) 0.89515(17)
H32_2 H 0.821998 0.766572 0.845720
C54_2 C 0.94485(16) 0.7091(2) 0.94733(18)
O3_2 O 0.18849(11) 0.53234(17) 0.28531(12)
O4_2 O 0.19147(10) 0.37047(16) 0.26803(12)
O1_2 O 0.96371(11) 0.99975(19) 0.30598(13)
C1_3 C 0.21726(15) 0.0498(2) 0.80611(16)
C2_3 C 0.28448(14) 0.0579(2) 0.87615(16)
C3_3 C 0.31491(15) 0.1500(2) 0.90339(16)
H1_3 H 0.292330 0.209604 0.878571
C4_3 C 0.37797(16) 0.1551(2) 0.96651(17)
H2_3 H 0.398822 0.218076 0.984919
C8_3 C 0.41442(14) 0.8820(2) 0.01809(15)
C10_3 C 0.44507(14) 0.7084(2) 0.01523(15)
C11_3 C 0.47518(14) 0.7034(2) 0.09475(15)
C12_3 C 0.47523(15) 0.7896(2) 0.13444(15)
H7_3 H 0.496349 0.788475 0.188549
C13_3 C 0.44535(15) 0.8768(2) 0.09715(16)
H8_3 H 0.445926 0.934329 0.125991
C14_3 C 0.50978(13) 0.6105(2) 0.13724(15)
C15_3 C 0.48441(14) 0.5172(2) 0.11483(15)
C16_3 C 0.41274(14) 0.5011(2) 0.05454(15)
C17_3 C 0.35640(15) 0.5495(2) 0.05844(16)
H9_3 H 0.363876 0.592107 0.100329
C18_3 C 0.29020(15) 0.5362(2) 0.00229(17)
H10_3 H 0.252879 0.570254 0.006110
C29_3 C 0.52480(14) 0.4244(2) 0.14815(15)
C30_3 C 0.49165(14) 0.3386(2) 0.15674(16)
H17_3 H 0.443021 0.339738 0.140880
C31_3 C 0.52831(14) 0.2519(2) 0.18794(15)
H18_3 H 0.504197 0.194874 0.192933
C32_3 C 0.59970(14) 0.2465(2) 0.21214(15)
C33_3 C 0.63287(15) 0.3317(2) 0.20157(16)
H19_3 H 0.681371 0.330305 0.216605
C34_3 C 0.59610(14) 0.4173(2) 0.16973(15)
H20_3 H 0.619790 0.473103 0.162160
C35_3 C 0.63891(15) 0.1533(2) 0.24638(15)
C36_3 C 0.60741(15) 0.0603(2) 0.22537(17)
H21_3 H 0.560543 0.056408 0.188690
C39_3 C 0.74465(15) 0.0693(2) 0.33076(16)
C40_3 C 0.70792(14) 0.1569(2) 0.30007(16)
H24_3 H 0.730135 0.219731 0.315904
C41_3 C 0.81815(16) 0.0742(2) 0.38842(17)
C42_3 C 0.57576(14) 0.6297(2) 0.20632(15)
C43_3 C 0.62396(14) 0.6967(2) 0.20217(15)
H25_3 H 0.614373 0.729546 0.155379
C44_3 C 0.68566(14) 0.7162(2) 0.26532(16)
H26_3 H 0.718391 0.760042 0.260444
C45_3 C 0.70058(14) 0.6726(2) 0.33577(16)
C46_3 C 0.65159(14) 0.6067(2) 0.34013(16)
H27_3 H 0.660249 0.576135 0.387451
C47_3 C 0.59058(14) 0.5854(2) 0.27649(16)
H28_3 H 0.558434 0.539891 0.280864
C48_3 C 0.76523(15) 0.6980(2) 0.40343(16)
C49_3 C 0.76868(17) 0.6951(3) 0.47681(18)
H29_3 H 0.729126 0.675294 0.483720
C50_2 C 0.82892(18) 0.7206(3) 0.53958(19)
H30_2 H 0.830348 0.717651 0.589046
C51_2 C 0.88656(17) 0.7500(3) 0.53110(19)
H31_2 H 0.927977 0.766087 0.574570
C52_3 C 0.88418(16) 0.7562(2) 0.45888(17)
C53_3 C 0.82339(15) 0.7297(2) 0.39515(17)
H32_3 H 0.821998 0.733428 0.345720
C54_3 C 0.94485(16) 0.7909(2) 0.44733(18)
C55_3 C 0.9289(2) 0.2199(3) 0.6613(2)
H33_3 H 0.978075 0.221580 0.684050
C56_3 C 0.8228(3) 0.2253(4) 0.6779(3)
H34_3 H 0.801955 0.214334 0.622697
H35_3 H 0.809823 0.170682 0.702632
H36_3 H 0.806230 0.288764 0.688957
C57_3 C 0.9370(3) 0.2401(5) 0.7872(3)
H37_3 H 0.986380 0.234328 0.799917
H38_3 H 0.927738 0.305852 0.802974
H39_3 H 0.923917 0.187963 0.813944
N1_3 N 0.8972(2) 0.2286(3) 0.7064(2)
O5 O 0.93728(10) 0.81797(17) 0.38184(12)
O7_3 O 0.83498(11) 0.14577(17) 0.43523(13)
O8_3 O 0.86107(11) 0.00718(18) 0.39272(12)
O9_3 O 0.89874(14) 0.2097(2) 0.59178(14)
O11_2 O 0.96352(10) 0.01321(17) 0.57138(12)
C6_3 C 0.38079(14) 0.9755(2) 0.97752(15)
C7_3 C 0.31761(15) 0.9717(2) 0.91309(16)
H4_3 H 0.296920 0.908734 0.894187
C9_3 C 0.41500(15) 0.7956(2) 0.97768(16)
H5_3 H 0.394387 0.797099 0.923578
H6_3 H 0.445298 0.651091 0.986606
C19_3 C 0.27674(14) 0.4738(2) 0.93990(16)
C20_3 C 0.33304(15) 0.4254(2) 0.93665(16)
H11_3 H 0.325595 0.382557 0.894911
C21_3 C 0.39949(14) 0.4385(2) 0.99282(16)
H12_3 H 0.436751 0.403990 0.989188
C22_3 C 0.20510(15) 0.4601(2) 0.87918(17)
C23_3 C 0.19219(17) 0.4367(3) 0.80475(19)
H13_3 H 0.229877 0.426701 0.791974
C24_3 C 0.12486(19) 0.4278(3) 0.7487(2)
H14_3 H 0.116721 0.409524 0.698340
C25_3 C 0.06943(17) 0.4457(3) 0.7662(2)
H15_3 H 0.023378 0.441917 0.727473
C26_3 C 0.08144(15) 0.4688(2) 0.83968(18)
C27_3 C 0.14889(15) 0.4739(2) 0.89625(18)
H16_3 H 0.156710 0.486911 0.947341
C28_3 C 0.02373(15) 0.4956(2) 0.86023(18)
O2_2 O 0.03648(10) 0.51321(17) 0.92862(12)
C37_3 C 0.64334(16) 0.9732(2) 0.25713(18)
H22_3 H 0.620733 0.910483 0.242798
C38_3 C 0.71197(15) 0.9775(2) 0.30958(17)
H23_3 H 0.736623 0.917849 0.331026
C1_4 C 0.78274(15) 0.5498(2) 0.69389(16)
C2_4 C 0.71552(14) 0.5579(2) 0.62385(16)
C3_4 C 0.68509(15) 0.6500(2) 0.59661(16)
H1_4 H 0.707670 0.709604 0.621429
C4_4 C 0.62203(16) 0.6551(2) 0.53349(17)
H2_4 H 0.601178 0.718076 0.515081
C5_2 C 0.58912(16) 0.5682(2) 0.49692(17)
H3_2 H 0.545498 0.572203 0.453915
C6_4 C 0.61921(14) 0.4755(2) 0.52248(15)
C7_4 C 0.68239(15) 0.4717(2) 0.58691(16)
H4_4 H 0.703080 0.408734 0.605813
C8_4 C 0.58558(14) 0.3820(2) 0.48191(15)
C9_4 C 0.58500(15) 0.2956(2) 0.52232(16)
H5_4 H 0.605613 0.297099 0.576422
C10_4 C 0.55493(14) 0.2084(2) 0.48477(15)
H6_4 H 0.554702 0.151091 0.513394
C11_4 C 0.52482(14) 0.2034(2) 0.40525(15)
C12_4 C 0.52477(15) 0.2896(2) 0.36556(15)
H7_4 H 0.503651 0.288475 0.311451
C13_4 C 0.55465(15) 0.3768(2) 0.40285(16)
H8_4 H 0.554074 0.434329 0.374009
C14_4 C 0.49022(13) 0.1105(2) 0.36276(15)
C15_4 C 0.51559(14) 0.0172(2) 0.38517(15)
C16_4 C 0.58726(14) 0.0011(2) 0.44546(15)
C17_4 C 0.64360(15) 0.0495(2) 0.44156(16)
H9_4 H 0.636124 0.092107 0.399671
C18_4 C 0.70980(15) 0.0362(2) 0.49771(17)
H10_4 H 0.747121 0.070254 0.493890
C42_4 C 0.42424(14) 0.1297(2) 0.29368(15)
C43_4 C 0.37604(14) 0.1967(2) 0.29783(15)
H25_4 H 0.385627 0.229546 0.344621
C44_4 C 0.31434(14) 0.2162(2) 0.23468(16)
H26_4 H 0.281609 0.260042 0.239556
C45_4 C 0.29942(14) 0.1726(2) 0.16423(16)
C46_4 C 0.34841(14) 0.1067(2) 0.15987(16)
H27_4 H 0.339751 0.076135 0.112549
C47_4 C 0.40942(14) 0.0854(2) 0.22351(16)
H28_4 H 0.441566 0.039891 0.219136
C48_4 C 0.23477(15) 0.1980(2) 0.09657(16)
C49_4 C 0.23132(17) 0.1951(3) 0.02319(18)
H29_4 H 0.270874 0.175294 0.016280
C52_4 C 0.11582(16) 0.2562(2) 0.04112(17)
C53_4 C 0.17661(15) 0.2297(2) 0.10485(17)
H32_4 H 0.178002 0.233428 0.154280
C54_4 C 0.05515(16) 0.2909(2) 0.05267(18)
O5_2 O 0.06272(10) 0.31797(17) 0.11816(12)
C19_4 C 0.72326(14) 0.9738(2) 0.56010(16)
C20_4 C 0.66696(15) 0.9254(2) 0.56335(16)
H11_4 H 0.674405 0.882557 0.605089
C21_4 C 0.60051(14) 0.9385(2) 0.50718(16)
H12_4 H 0.563249 0.903990 0.510812
C22_4 C 0.79490(15) 0.9601(2) 0.62082(17)
C23_4 C 0.80781(17) 0.9367(3) 0.69525(19)
H13_4 H 0.770123 0.926701 0.708026
C24_4 C 0.87514(19) 0.9278(3) 0.7513(2)
H14_4 H 0.883279 0.909524 0.801660
C25_4 C 0.93057(17) 0.9457(3) 0.7338(2)
H15_4 H 0.976622 0.941917 0.772527
C26_4 C 0.91856(15) 0.9688(2) 0.66032(18)
C27_4 C 0.85111(15) 0.9739(2) 0.60375(18)
H16_4 H 0.843290 0.986911 0.552659
C28_4 C 0.97627(15) 0.9956(2) 0.63977(18)
C29_4 C 0.47520(14) 0.9244(2) 0.35185(15)
C30_4 C 0.50835(14) 0.8386(2) 0.34326(16)
H17_4 H 0.556979 0.839738 0.359120
C31_4 C 0.47169(14) 0.7519(2) 0.31206(15)
H18_4 H 0.495803 0.694874 0.307067
C32_4 C 0.40030(14) 0.7465(2) 0.28786(15)
C33_4 C 0.36713(15) 0.8317(2) 0.29843(16)
H19_4 H 0.318629 0.830305 0.283395
C34_4 C 0.40390(14) 0.9173(2) 0.33027(15)
H20_4 H 0.380210 0.973103 0.337840
C35_4 C 0.36109(15) 0.6533(2) 0.25362(15)
C36_4 C 0.39259(15) 0.5603(2) 0.27463(17)
H21_4 H 0.439457 0.556408 0.311310
C37_4 C 0.35666(16) 0.4732(2) 0.24287(18)
H22_4 H 0.379267 0.410483 0.257202
C38_4 C 0.28803(15) 0.4775(2) 0.19042(17)
H23_4 H 0.263377 0.417849 0.168974
C39_4 C 0.25535(15) 0.5693(2) 0.16924(16)
C40_4 C 0.29208(14) 0.6569(2) 0.19993(16)
H24_4 H 0.269865 0.719731 0.184096
C41_4 C 0.18185(16) 0.5742(2) 0.11158(17)
O7_4 O 0.16502(11) 0.64577(17) 0.06477(13)
O8_4 O 0.13893(11) 0.50718(18) 0.10728(12)
C55_4 C 0.0711(2) 0.7199(3) 0.8387(2)
H33_4 H 0.021925 0.721580 0.815950
C56_4 C 0.1772(3) 0.7253(4) 0.8221(3)
H34_4 H 0.198045 0.714334 0.877303
H35_4 H 0.190177 0.670682 0.797368
H36_4 H 0.193770 0.788764 0.811043
C57_4 C 0.0630(3) 0.7401(5) 0.7128(3)
H37_4 H 0.013620 0.734328 0.700083
H38_4 H 0.072262 0.805852 0.697026
H39_4 H 0.076083 0.687963 0.686056
N1_4 N 0.1028(2) 0.7286(3) 0.7936(2)
O9_4 O 0.10126(14) 0.7097(2) 0.90822(14)
C5_3 C 0.58912(16) 0.9318(2) 0.99692(17)
H3_3 H 0.545498 0.927797 0.953915
C50_3 C 0.82892(18) 0.7794(3) 0.03958(19)
H30_3 H 0.830348 0.782349 0.089046
C51_3 C 0.88656(17) 0.7500(3) 0.03110(19)
H31_3 H 0.927977 0.733913 0.074570
C5_4 C 0.41088(16) 0.0682(2) 0.00308(17)
H3_4 H 0.454502 0.072203 0.046085
C50_4 C 0.17108(18) 0.2206(3) 0.96042(19)
H30_4 H 0.169652 0.217651 0.910954
C51_4 C 0.11344(17) 0.2500(3) 0.96890(19)
H31_4 H 0.072023 0.266087 0.925430
loop_
_geom_bond_atom_site_label_1
_geom_bond_atom_site_label_2
_geom_bond_site_symmetry_1
_geom_bond_site_symmetry_2
Zn5 O1 1_555 1_555
H22 C37 1_555 1_555
C38 C37 1_555 1_555
H23 C38 1_555 1_555
O10 Zn1 1_555 1_555
O13 Zn1 1_555 1_555
O14 Zn1 1_555 1_555
H4 C7 1_555 1_555
H5 C9 1_555 1_555
C20 C19 1_555 1_555
H11 C20 1_555 1_555
H12 C21 1_555 1_555
C22 C19 1_555 1_555
C23 C22 1_555 1_555
H13 C23 1_555 1_555
C24 C23 1_555 1_555
H14 C24 1_555 1_555
C25 C24 1_555 1_555
H15 C25 1_555 1_555
C26 C25 1_555 1_555
C27 C22 1_555 1_555
H16 C27 1_555 1_555
C28 C26 1_555 1_555
O2 C28 1_555 1_555
Zn6 O2 1_555 1_555
C6 C7 1_555 1_555
C20 C21 1_555 1_555
C26 C27 1_555 1_555
C11 C10 1_555 1_555
C12 C11 1_555 1_555
H7 C12 1_555 1_555
C13 C8 1_555 1_555
H8 C13 1_555 1_555
C14 C11 1_555 1_555
C15 C14 1_555 1_555
C16 C15 1_555 1_555
C17 C16 1_555 1_555
H9 C17 1_555 1_555
C18 C17 1_555 1_555
H10 C18 1_555 1_555
C29 C15 1_555 1_555
C30 C29 1_555 1_555
H17 C30 1_555 1_555
C31 C30 1_555 1_555
H18 C31 1_555 1_555
C32 C31 1_555 1_555
C33 C32 1_555 1_555
H19 C33 1_555 1_555
C34 C29 1_555 1_555
H20 C34 1_555 1_555
C35 C32 1_555 1_555
C36 C35 1_555 1_555
H21 C36 1_555 1_555
C40 C35 1_555 1_555
H24 C40 1_555 1_555
C41 C39 1_555 1_555
C42 C14 1_555 1_555
C43 C42 1_555 1_555
H25 C43 1_555 1_555
C44 C43 1_555 1_555
H26 C44 1_555 1_555
C45 C44 1_555 1_555
C46 C45 1_555 1_555
H27 C46 1_555 1_555
C47 C42 1_555 1_555
H28 C47 1_555 1_555
C48 C45 1_555 1_555
C49 C48 1_555 1_555
H29 C49 1_555 1_555
C50 C49 1_555 1_555
H30 C50 1_555 1_555
C51 C50 1_555 1_555
H31 C51 1_555 1_555
C52 C51 1_555 1_555
C53 C48 1_555 1_555
H32 C53 1_555 1_555
C54 C52 1_555 1_555
C55 H33 1_555 1_555
C56 H34 1_555 1_555
H35 C56 1_555 1_555
H36 C56 1_555 1_555
C57 H37 1_555 1_555
H38 C57 1_555 1_555
H39 C57 1_555 1_555
N1 C55 1_555 1_555
O14 C54 1_555 1_555
O7 C41 1_555 1_555
O8 C41 1_555 1_555
O9 C55 1_555 1_555
Zn2 O7 1_555 1_555
O11 Zn2 1_555 1_555
O15 Zn2 1_555 1_555
C12 C13 1_555 1_555
C33 C34 1_555 1_555
C39 C40 1_555 1_555
C46 C47 1_555 1_555
C52 C53 1_555 1_555
C56 N1 1_555 1_555
C57 N1 1_555 1_555
O9 Zn2 1_555 1_555
C1 C2 1_555 1_555
C2 C3 1_555 1_555
C3 H1 1_555 1_555
C4 C3 1_555 1_555
H2 C4 1_555 1_555
O4 C1 1_555 1_555
O4 Zn4 1_555 1_555
Zn7 O6 1_555 1_555
C55_2 H33_2 1_555 1_555
C56_2 H34_2 1_555 1_555
H35_2 C56_2 1_555 1_555
H36_2 C56_2 1_555 1_555
C57_2 H37_2 1_555 1_555
H38_2 C57_2 1_555 1_555
H39_2 C57_2 1_555 1_555
N1_2 C55_2 1_555 1_555
O9_2 C55_2 1_555 1_555
C56_2 N1_2 1_555 1_555
C57_2 N1_2 1_555 1_555
O9_2 Zn6 1_555 1_555
C20_2 C19_2 1_555 1_555
H11_2 C20_2 1_555 1_555
H12_2 C21_2 1_555 1_555
C22_2 C19_2 1_555 1_555
C23_2 C22_2 1_555 1_555
H13_2 C23_2 1_555 1_555
C24_2 C23_2 1_555 1_555
H14_2 C24_2 1_555 1_555
C25_2 C24_2 1_555 1_555
H15_2 C25_2 1_555 1_555
C26_2 C25_2 1_555 1_555
C27_2 C22_2 1_555 1_555
H16_2 C27_2 1_555 1_555
C28_2 C26_2 1_555 1_555
C30_2 C29_2 1_555 1_555
H17_2 C30_2 1_555 1_555
C31_2 C30_2 1_555 1_555
H18_2 C31_2 1_555 1_555
C32_2 C31_2 1_555 1_555
C33_2 C32_2 1_555 1_555
H19_2 C33_2 1_555 1_555
C34_2 C29_2 1_555 1_555
H20_2 C34_2 1_555 1_555
C35_2 C32_2 1_555 1_555
C36_2 C35_2 1_555 1_555
H21_2 C36_2 1_555 1_555
C37_2 C36_2 1_555 1_555
H22_2 C37_2 1_555 1_555
C38_2 C37_2 1_555 1_555
H23_2 C38_2 1_555 1_555
C39_2 C38_2 1_555 1_555
C40_2 C35_2 1_555 1_555
H24_2 C40_2 1_555 1_555
C41_2 C39_2 1_555 1_555
O7_2 C41_2 1_555 1_555
O8_2 C41_2 1_555 1_555
Zn1_2 O8_2 1_555 1_555
O10_2 Zn1_2 1_555 1_555
O12_2 Zn1_2 1_555 1_555
O13_2 Zn1_2 1_555 1_555
O14_2 Zn1_2 1_555 1_555
C20_2 C21_2 1_555 1_555
C26_2 C27_2 1_555 1_555
C33_2 C34_2 1_555 1_555
C39_2 C40_2 1_555 1_555
C1_2 C2_2 1_555 1_555
C2_2 C3_2 1_555 1_555
C3_2 H1_2 1_555 1_555
C4_2 C3_2 1_555 1_555
H2_2 C4_2 1_555 1_555
C5 C4_2 1_555 1_555
H3 C5 1_555 1_555
C6_2 C5 1_555 1_555
C7_2 C2_2 1_555 1_555
H4_2 C7_2 1_555 1_555
C8_2 C6_2 1_555 1_555
C9_2 C8_2 1_555 1_555
H5_2 C9_2 1_555 1_555
C10_2 C9_2 1_555 1_555
H6_2 C10_2 1_555 1_555
C11_2 C10_2 1_555 1_555
C12_2 C11_2 1_555 1_555
H7_2 C12_2 1_555 1_555
C13_2 C8_2 1_555 1_555
H8_2 C13_2 1_555 1_555
C14_2 C11_2 1_555 1_555
C15_2 C14_2 1_555 1_555
C16_2 C15_2 1_555 1_555
C17_2 C16_2 1_555 1_555
H9_2 C17_2 1_555 1_555
C18_2 C17_2 1_555 1_555
H10_2 C18_2 1_555 1_555
C42_2 C14_2 1_555 1_555
C43_2 C42_2 1_555 1_555
H25_2 C43_2 1_555 1_555
C44_2 C43_2 1_555 1_555
H26_2 C44_2 1_555 1_555
C45_2 C44_2 1_555 1_555
C46_2 C45_2 1_555 1_555
H27_2 C46_2 1_555 1_555
C47_2 C42_2 1_555 1_555
H28_2 C47_2 1_555 1_555
C48_2 C45_2 1_555 1_555
C49_2 C48_2 1_555 1_555
H29_2 C49_2 1_555 1_555
C53_2 C48_2 1_555 1_555
H32_2 C53_2 1_555 1_555
C54_2 C52_2 1_555 1_555
O3_2 C1_2 1_555 1_555
O4_2 C1_2 1_555 1_555
O14_2 C54_2 1_555 1_555
Zn5 O3_2 1_555 1_555
C6_2 C7_2 1_555 1_555
C12_2 C13_2 1_555 1_555
C46_2 C47_2 1_555 1_555
C52_2 C53_2 1_555 1_555
O4_2 Zn5 1_555 1_555
Zn4 O1_2 1_555 1_555
C1_3 C2_3 1_555 1_555
C2_3 C3_3 1_555 1_555
C3_3 H1_3 1_555 1_555
C4_3 C3_3 1_555 1_555
H2_3 C4_3 1_555 1_555
O13 C1_3 1_555 1_555
C11_3 C10_3 1_555 1_555
C12_3 C11_3 1_555 1_555
H7_3 C12_3 1_555 1_555
C13_3 C8_3 1_555 1_555
H8_3 C13_3 1_555 1_555
C14_3 C11_3 1_555 1_555
C15_3 C14_3 1_555 1_555
C16_3 C15_3 1_555 1_555
C17_3 C16_3 1_555 1_555
H9_3 C17_3 1_555 1_555
C18_3 C17_3 1_555 1_555
H10_3 C18_3 1_555 1_555
C29_3 C15_3 1_555 1_555
C30_3 C29_3 1_555 1_555
H17_3 C30_3 1_555 1_555
C31_3 C30_3 1_555 1_555
H18_3 C31_3 1_555 1_555
C32_3 C31_3 1_555 1_555
C33_3 C32_3 1_555 1_555
H19_3 C33_3 1_555 1_555
C34_3 C29_3 1_555 1_555
H20_3 C34_3 1_555 1_555
C35_3 C32_3 1_555 1_555
C36_3 C35_3 1_555 1_555
H21_3 C36_3 1_555 1_555
C40_3 C35_3 1_555 1_555
H24_3 C40_3 1_555 1_555
C41_3 C39_3 1_555 1_555
C42_3 C14_3 1_555 1_555
C43_3 C42_3 1_555 1_555
H25_3 C43_3 1_555 1_555
C44_3 C43_3 1_555 1_555
H26_3 C44_3 1_555 1_555
C45_3 C44_3 1_555 1_555
C46_3 C45_3 1_555 1_555
H27_3 C46_3 1_555 1_555
C47_3 C42_3 1_555 1_555
H28_3 C47_3 1_555 1_555
C48_3 C45_3 1_555 1_555
C49_3 C48_3 1_555 1_555
H29_3 C49_3 1_555 1_555
C50_2 C49_3 1_555 1_555
H30_2 C50_2 1_555 1_555
C51_2 C50_2 1_555 1_555
H31_2 C51_2 1_555 1_555
C52_3 C51_2 1_555 1_555
C53_3 C48_3 1_555 1_555
H32_3 C53_3 1_555 1_555
C54_3 C52_3 1_555 1_555
C55_3 H33_3 1_555 1_555
C56_3 H34_3 1_555 1_555
H35_3 C56_3 1_555 1_555
H36_3 C56_3 1_555 1_555
C57_3 H37_3 1_555 1_555
H38_3 C57_3 1_555 1_555
H39_3 C57_3 1_555 1_555
N1_3 C55_3 1_555 1_555
O5 C54_3 1_555 1_555
O7_3 C41_3 1_555 1_555
O8_3 C41_3 1_555 1_555
O9_3 C55_3 1_555 1_555
Zn7 O7_3 1_555 1_555
O11_2 Zn7 1_555 1_555
Zn4 O5 1_555 1_555
C12_3 C13_3 1_555 1_555
C33_3 C34_3 1_555 1_555
C39_3 C40_3 1_555 1_555
C46_3 C47_3 1_555 1_555
C52_3 C53_3 1_555 1_555
C56_3 N1_3 1_555 1_555
C57_3 N1_3 1_555 1_555
O9_3 Zn7 1_555 1_555
H4_3 C7_3 1_555 1_555
H5_3 C9_3 1_555 1_555
C20_3 C19_3 1_555 1_555
H11_3 C20_3 1_555 1_555
H12_3 C21_3 1_555 1_555
C22_3 C19_3 1_555 1_555
C23_3 C22_3 1_555 1_555
H13_3 C23_3 1_555 1_555
C24_3 C23_3 1_555 1_555
H14_3 C24_3 1_555 1_555
C25_3 C24_3 1_555 1_555
H15_3 C25_3 1_555 1_555
C26_3 C25_3 1_555 1_555
C27_3 C22_3 1_555 1_555
H16_3 C27_3 1_555 1_555
C28_3 C26_3 1_555 1_555
O2_2 C28_3 1_555 1_555
Zn7_2 O2_2 1_555 1_555
C6_3 C7_3 1_555 1_555
C20_3 C21_3 1_555 1_555
C26_3 C27_3 1_555 1_555
H22_3 C37_3 1_555 1_555
C38_3 C37_3 1_555 1_555
H23_3 C38_3 1_555 1_555
C1_4 C2_4 1_555 1_555
C2_4 C3_4 1_555 1_555
C3_4 H1_4 1_555 1_555
C4_4 C3_4 1_555 1_555
H2_4 C4_4 1_555 1_555
C5_2 C4_4 1_555 1_555
H3_2 C5_2 1_555 1_555
C6_4 C5_2 1_555 1_555
C7_4 C2_4 1_555 1_555
H4_4 C7_4 1_555 1_555
C8_4 C6_4 1_555 1_555
C9_4 C8_4 1_555 1_555
H5_4 C9_4 1_555 1_555
C10_4 C9_4 1_555 1_555
H6_4 C10_4 1_555 1_555
C11_4 C10_4 1_555 1_555
C12_4 C11_4 1_555 1_555
H7_4 C12_4 1_555 1_555
C13_4 C8_4 1_555 1_555
H8_4 C13_4 1_555 1_555
C14_4 C11_4 1_555 1_555
C15_4 C14_4 1_555 1_555
C16_4 C15_4 1_555 1_555
C17_4 C16_4 1_555 1_555
H9_4 C17_4 1_555 1_555
C18_4 C17_4 1_555 1_555
H10_4 C18_4 1_555 1_555
C42_4 C14_4 1_555 1_555
C43_4 C42_4 1_555 1_555
H25_4 C43_4 1_555 1_555
C44_4 C43_4 1_555 1_555
H26_4 C44_4 1_555 1_555
C45_4 C44_4 1_555 1_555
C46_4 C45_4 1_555 1_555
H27_4 C46_4 1_555 1_555
C47_4 C42_4 1_555 1_555
H28_4 C47_4 1_555 1_555
C48_4 C45_4 1_555 1_555
C49_4 C48_4 1_555 1_555
H29_4 C49_4 1_555 1_555
C53_4 C48_4 1_555 1_555
H32_4 C53_4 1_555 1_555
C54_4 C52_4 1_555 1_555
O12_2 C1_4 1_555 1_555
O13_2 C1_4 1_555 1_555
O5_2 C54_4 1_555 1_555
Zn5 O5_2 1_555 1_555
C6_4 C7_4 1_555 1_555
C12_4 C13_4 1_555 1_555
C46_4 C47_4 1_555 1_555
C52_4 C53_4 1_555 1_555
C20_4 C19_4 1_555 1_555
H11_4 C20_4 1_555 1_555
H12_4 C21_4 1_555 1_555
C22_4 C19_4 1_555 1_555
C23_4 C22_4 1_555 1_555
H13_4 C23_4 1_555 1_555
C24_4 C23_4 1_555 1_555
H14_4 C24_4 1_555 1_555
C25_4 C24_4 1_555 1_555
H15_4 C25_4 1_555 1_555
C26_4 C25_4 1_555 1_555
C27_4 C22_4 1_555 1_555
H16_4 C27_4 1_555 1_555
C28_4 C26_4 1_555 1_555
C30_4 C29_4 1_555 1_555
H17_4 C30_4 1_555 1_555
C31_4 C30_4 1_555 1_555
H18_4 C31_4 1_555 1_555
C32_4 C31_4 1_555 1_555
C33_4 C32_4 1_555 1_555
H19_4 C33_4 1_555 1_555
C34_4 C29_4 1_555 1_555
H20_4 C34_4 1_555 1_555
C35_4 C32_4 1_555 1_555
C36_4 C35_4 1_555 1_555
H21_4 C36_4 1_555 1_555
C37_4 C36_4 1_555 1_555
H22_4 C37_4 1_555 1_555
C38_4 C37_4 1_555 1_555
H23_4 C38_4 1_555 1_555
C39_4 C38_4 1_555 1_555
C40_4 C35_4 1_555 1_555
H24_4 C40_4 1_555 1_555
C41_4 C39_4 1_555 1_555
O7_4 C41_4 1_555 1_555
O8_4 C41_4 1_555 1_555
Zn5 O8_4 1_555 1_555
C20_4 C21_4 1_555 1_555
C26_4 C27_4 1_555 1_555
C33_4 C34_4 1_555 1_555
C39_4 C40_4 1_555 1_555
C55_4 H33_4 1_555 1_555
C56_4 H34_4 1_555 1_555
H35_4 C56_4 1_555 1_555
H36_4 C56_4 1_555 1_555
C57_4 H37_4 1_555 1_555
H38_4 C57_4 1_555 1_555
H39_4 C57_4 1_555 1_555
N1_4 C55_4 1_555 1_555
O9_4 C55_4 1_555 1_555
C56_4 N1_4 1_555 1_555
C57_4 N1_4 1_555 1_555
O9_4 Zn7_2 1_555 1_555
H3_3 C5_3 1_555 1_555
H30_3 C50_3 1_555 1_555
C51_3 C50_3 1_555 1_555
H31_3 C51_3 1_555 1_555
H3_4 C5_4 1_555 1_555
H30_4 C50_4 1_555 1_555
C51_4 C50_4 1_555 1_555
H31_4 C51_4 1_555 1_555

#END
