
###############################################################################
#
# This file contains modified crystal structure data generated from the
# MOF subset of the Cambridge Structural Database (CSD) v543 
# hosted by the Cambridge Crystallographic Data Centre (CCDC).
#
# This work is licensed under the Creative Commons
# Attribution-NonCommercial-ShareAlike 4.0 International License.
# To view a copy of this license, visit
# http://creativecommons.org/licenses/by-nc-sa/4.0/
# or send a letter to
# Creative Commons, PO Box 1866, Mountain View, CA 94042, USA.
#
# CIF created using the CSD Python API on 29 September 2022
# The structure has been converted into the P1 space group
# The structure has a 3D framework
# The original CSD entry MOSPAO is in the rhombohedral crystal system
# The framework has been calculated to contain at least 10.0% void space
# The void calculation uses a probe of radius 1.32A, grid spacing 0.4
#
###############################################################################

data_MOSPAO
_chemical_formula_moiety         '(C504 H288 Cu36 N72 O180)n'
_symmetry_cell_setting           triclinic
_symmetry_space_group_name_H-M   'P 1'
_symmetry_Int_Tables_number      1
_space_group_name_Hall           'P 1'
loop_
_symmetry_equiv_pos_site_id
_symmetry_equiv_pos_as_xyz
1 x,y,z
_cell_length_a                   18.3138(2)
_cell_length_b                   18.3138(2)
_cell_length_c                   69.7479(13)
_cell_angle_alpha                90
_cell_angle_beta                 90
_cell_angle_gamma                120
_cell_volume                     20259
loop_
_atom_site_label
_atom_site_type_symbol
_atom_site_fract_x
_atom_site_fract_y
_atom_site_fract_z
O1 O 0.3862(7) 0.1132(5) 0.00848(11)
O2 O 0.2099(3) 0.3094(2) 0.05768(5)
O3 O 0.1708(3) 0.2266(2) 0.08350(6)
N1 N 0.3761(3) 0.2152(4) 0.01846(9)
H1 H 0.3910 0.2680 0.0160
H4 H 0.5554 0.3445 0.0051
C6 C 0.4041(6) 0.1845(6) 0.00714(13)
C7 C 0.3245(4) 0.1821(4) 0.03470(9)
C8 C 0.2897(4) 0.2279(4) 0.04241(9)
H6 H 0.3002 0.2790 0.0365
C9 C 0.2396(4) 0.1993(3) 0.05869(8)
C10 C 0.2232(3) 0.1234(3) 0.06707(7)
H7 H 0.1898 0.1040 0.0784
C11 C 0.2551(3) 0.0765(3) 0.05908(7)
C12 C 0.3064(4) 0.1053(4) 0.04274(8)
H8 H 0.3285 0.0730 0.0372
C13 C 0.2043(3) 0.2487(3) 0.06730(7)
Cu4 Cu 0.17239(5) 0.38355(3) 0.06809(2)
Cu5 Cu 0.12217(4) 0.28312(3) 0.09858(2)
Cu1 Cu 0.38355(3) 0.21116(4) 0.93191(2)
N2 N 0.4601(2) 0.2579(2) 0.95750(5)
C1 C 0.5322(3) 0.3305(3) 0.95782(7)
H2 H 0.5590 0.3599 0.9464
C2 C 0.568(2) 0.363(2) 0.9766(5)
H3 H 0.6193 0.4150 0.9774
C3 C 0.5314(10) 0.3214(9) 0.9930(2)
C4 C 0.4561(5) 0.2426(5) 0.99151(12)
C5 C 0.4212(7) 0.2108(8) 0.9733(3)
H5 H 0.3715 0.1574 0.9720
Cu2 Cu 0.28312(3) 0.16094(5) 0.90142(2)
O6 O 0.3094(2) 0.0995(4) 0.94232(5)
O7 O 0.4401(2) 0.1625(3) 0.91683(6)
O8 O 0.3038(3) 0.2477(2) 0.94115(5)
O9 O 0.4462(3) 0.3152(2) 0.91792(5)
O4 O 0.2477(2) 0.9439(2) 0.05885(5)
O5 O 0.2024(2) 0.9819(2) 0.08459(5)
C14 C 0.2335(3) 0.9939(3) 0.06805(6)
Cu3 Cu 0.21116(4) 0.82761(5) 0.06809(2)
Cu6 Cu 0.16094(5) 0.87783(4) 0.09858(2)
O4_2 O 0.0561(2) 0.3038(3) 0.05885(5)
O5_2 O 0.0181(2) 0.2205(3) 0.08459(5)
C14_2 C 0.0061(3) 0.2396(4) 0.06805(6)
Cu1_2 Cu 0.78884(4) 0.17239(5) 0.93191(2)
N2_2 N 0.7421(2) 0.2022(3) 0.95750(5)
C1_2 C 0.6695(3) 0.2017(4) 0.95782(7)
H2_2 H 0.6401 0.1991 0.9464
C2_2 C 0.637(2) 0.205(3) 0.9766(5)
H3_2 H 0.5850 0.2043 0.9774
C3_2 C 0.6786(9) 0.2100(13) 0.9930(2)
C4_2 C 0.7574(5) 0.2135(7) 0.99151(12)
C5_2 C 0.7892(8) 0.2104(11) 0.9733(3)
H5_2 H 0.8426 0.2141 0.9720
Cu2_2 Cu 0.83906(5) 0.12217(6) 0.90142(2)
O6_2 O 0.9005(4) 0.2099(4) 0.94232(5)
O7_2 O 0.8375(3) 0.2775(4) 0.91683(6)
O8_2 O 0.7523(2) 0.0561(4) 0.94115(5)
O9_2 O 0.6848(2) 0.1309(4) 0.91792(5)
O2_2 O 0.6906(2) 0.9005(4) 0.05768(5)
O3_2 O 0.7734(2) 0.9442(4) 0.08350(6)
C13_2 C 0.7513(3) 0.9556(4) 0.06730(7)
Cu4_2 Cu 0.61645(3) 0.78884(6) 0.06809(2)
Cu5_2 Cu 0.71688(3) 0.83906(5) 0.09858(2)
O2_3 O 0.0995(4) 0.7901(3) 0.05768(5)
O3_3 O 0.0558(4) 0.8292(3) 0.08350(6)
C13_3 C 0.0444(4) 0.7957(3) 0.06730(7)
O1_2 O 0.7270(9) 0.6138(7) 0.00848(11)
O4_3 O 0.6962(3) 0.7523(2) 0.05885(5)
O5_3 O 0.7795(3) 0.7976(2) 0.08459(5)
N1_2 N 0.8391(5) 0.6239(3) 0.01846(9)
H1_2 H 0.8770 0.6090 0.0160
H4_2 H 0.7891 0.4446 0.0051
C6_2 C 0.7804(8) 0.5959(6) 0.00714(13)
C7_2 C 0.8576(6) 0.6755(4) 0.03470(9)
C8_2 C 0.9382(6) 0.7103(4) 0.04241(9)
H6_2 H 0.9788 0.6998 0.0365
C9_2 C 0.9597(5) 0.7604(4) 0.05869(8)
C10_2 C 0.9002(4) 0.7768(3) 0.06707(7)
H7_2 H 0.9142 0.8102 0.0784
C11_2 C 0.8214(4) 0.7449(3) 0.05908(7)
C12_2 C 0.7989(6) 0.6936(4) 0.04274(8)
H8_2 H 0.7445 0.6715 0.0372
C14_3 C 0.7604(4) 0.7665(3) 0.06805(6)
Cu1_3 Cu 0.82761(5) 0.61645(3) 0.93191(2)
N2_3 N 0.7978(3) 0.5399(2) 0.95750(5)
C1_3 C 0.7983(4) 0.4678(3) 0.95782(7)
H2_3 H 0.8009 0.4410 0.9464
C2_3 C 0.795(3) 0.432(2) 0.9766(5)
H3_3 H 0.7957 0.3807 0.9774
C3_3 C 0.7900(13) 0.4686(10) 0.9930(2)
C4_3 C 0.7865(7) 0.5439(5) 0.99151(12)
C5_3 C 0.7896(11) 0.5788(7) 0.9733(3)
H5_3 H 0.7859 0.6285 0.9720
Cu2_3 Cu 0.87783(6) 0.71688(3) 0.90142(2)
O6_3 O 0.7901(4) 0.6906(2) 0.94232(5)
O7_3 O 0.7225(4) 0.5599(2) 0.91683(6)
O8_3 O 0.9439(4) 0.6962(3) 0.94115(5)
O9_3 O 0.8691(4) 0.5538(3) 0.91792(5)
Cu1_4 Cu 0.21116(4) 0.38355(3) 0.56809(2)
O1_3 O 0.1132(5) 0.3862(7) 0.49152(11)
O2_4 O 0.3094(2) 0.2099(3) 0.44232(5)
O3_4 O 0.2266(2) 0.1708(3) 0.41650(6)
N1_3 N 0.2152(4) 0.3761(3) 0.48154(9)
H1_3 H 0.2680 0.3910 0.4840
N2_4 N 0.2579(2) 0.4601(2) 0.54250(5)
C1_4 C 0.3305(3) 0.5322(3) 0.54218(7)
H2_4 H 0.3599 0.5590 0.5536
C2_4 C 0.363(2) 0.568(2) 0.5234(5)
H3_4 H 0.4150 0.6193 0.5226
C3_4 C 0.3214(9) 0.5314(10) 0.5070(2)
H4_3 H 0.3445 0.5554 0.4949
C4_4 C 0.2426(5) 0.4561(5) 0.50849(12)
C5_4 C 0.2108(8) 0.4212(7) 0.5267(3)
H5_4 H 0.1574 0.3715 0.5280
C6_3 C 0.1845(6) 0.4041(6) 0.49286(13)
C7_3 C 0.1821(4) 0.3245(4) 0.46530(9)
C8_3 C 0.2279(4) 0.2897(4) 0.45759(9)
H6_3 H 0.2790 0.3002 0.4635
C9_3 C 0.1993(3) 0.2396(4) 0.44131(8)
C10_3 C 0.1234(3) 0.2232(3) 0.43293(7)
H7_3 H 0.1040 0.1898 0.4216
C11_3 C 0.0765(3) 0.2551(3) 0.44092(7)
C12_3 C 0.1053(4) 0.3064(4) 0.45726(8)
H8_3 H 0.0730 0.3285 0.4628
C13_4 C 0.2487(3) 0.2043(3) 0.43270(7)
Cu2_4 Cu 0.16094(5) 0.28312(3) 0.59858(2)
Cu4_3 Cu 0.38355(3) 0.17239(5) 0.43191(2)
Cu5_3 Cu 0.28312(3) 0.12217(4) 0.40142(2)
O6_4 O 0.0995(4) 0.3094(2) 0.55768(5)
O7_4 O 0.1625(3) 0.4401(2) 0.58317(6)
O8_4 O 0.2477(2) 0.3038(3) 0.55885(5)
O9_4 O 0.3152(2) 0.4462(3) 0.58208(5)
O4_4 O 0.9439(2) 0.2477(2) 0.44115(5)
O5_4 O 0.9819(2) 0.2024(2) 0.41541(5)
C14_4 C 0.9939(3) 0.2335(3) 0.43195(6)
Cu3_2 Cu 0.82761(5) 0.21116(4) 0.43191(2)
Cu6_2 Cu 0.87783(4) 0.16094(5) 0.40142(2)
O2_5 O 0.7901(3) 0.0995(4) 0.44232(5)
O3_5 O 0.8292(3) 0.0558(4) 0.41650(6)
C13_5 C 0.7957(3) 0.0444(4) 0.43270(7)
Cu1_5 Cu 0.61645(3) 0.82761(5) 0.56809(2)
O1_4 O 0.6138(7) 0.7270(9) 0.49152(11)
O4_5 O 0.7523(2) 0.6962(3) 0.44115(5)
O5_5 O 0.7976(2) 0.7795(3) 0.41541(5)
N1_4 N 0.6239(3) 0.8391(5) 0.48154(9)
H1_4 H 0.6090 0.8770 0.4840
N2_5 N 0.5399(2) 0.7978(3) 0.54250(5)
C1_5 C 0.4678(3) 0.7983(4) 0.54218(7)
H2_5 H 0.4410 0.8009 0.5536
C2_5 C 0.432(2) 0.795(3) 0.5234(5)
H3_5 H 0.3807 0.7957 0.5226
C3_5 C 0.4686(10) 0.7900(13) 0.5070(2)
H4_4 H 0.4446 0.7891 0.4949
C4_5 C 0.5439(5) 0.7865(7) 0.50849(12)
C5_5 C 0.5788(7) 0.7896(11) 0.5267(3)
H5_5 H 0.6285 0.7859 0.5280
C6_4 C 0.5959(6) 0.7804(8) 0.49286(13)
C7_4 C 0.6755(4) 0.8576(6) 0.46530(9)
C8_4 C 0.7103(4) 0.9382(6) 0.45759(9)
H6_4 H 0.6998 0.9788 0.4635
C9_4 C 0.7604(4) 0.9597(5) 0.44131(8)
C10_4 C 0.7768(3) 0.9002(4) 0.43293(7)
H7_4 H 0.8102 0.9142 0.4216
C11_4 C 0.7449(3) 0.8214(4) 0.44092(7)
C12_4 C 0.6936(4) 0.7989(6) 0.45726(8)
H8_4 H 0.6715 0.7445 0.4628
C14_5 C 0.7665(3) 0.7604(4) 0.43195(6)
Cu2_5 Cu 0.71688(3) 0.87783(6) 0.59858(2)
Cu3_3 Cu 0.78884(4) 0.61645(6) 0.43191(2)
Cu6_3 Cu 0.83906(5) 0.71688(6) 0.40142(2)
O6_5 O 0.6906(2) 0.7901(4) 0.55768(5)
O7_5 O 0.5599(2) 0.7225(4) 0.58317(6)
O8_5 O 0.6962(3) 0.9439(4) 0.55885(5)
O9_5 O 0.5538(3) 0.8691(4) 0.58208(5)
O4_6 O 0.3038(3) 0.0561(2) 0.44115(5)
O5_6 O 0.2205(3) 0.0181(2) 0.41541(5)
C14_6 C 0.2396(4) 0.0061(3) 0.43195(6)
Cu1_6 Cu 0.17239(5) 0.78884(4) 0.56809(2)
O1_5 O 0.2730(9) 0.8868(5) 0.49152(11)
N1_5 N 0.1609(5) 0.7848(4) 0.48154(9)
H1_5 H 0.1230 0.7320 0.4840
N2_6 N 0.2022(3) 0.7421(2) 0.54250(5)
C1_6 C 0.2017(4) 0.6695(3) 0.54218(7)
H2_6 H 0.1991 0.6401 0.5536
C2_6 C 0.205(3) 0.637(2) 0.5234(5)
H3_6 H 0.2043 0.5850 0.5226
C3_6 C 0.2100(13) 0.6786(9) 0.5070(2)
H4_5 H 0.2109 0.6555 0.4949
C4_6 C 0.2135(7) 0.7574(5) 0.50849(12)
C5_6 C 0.2104(11) 0.7892(8) 0.5267(3)
H5_6 H 0.2141 0.8426 0.5280
C6_5 C 0.2196(8) 0.8155(6) 0.49286(13)
C7_5 C 0.1424(6) 0.8179(4) 0.46530(9)
C8_5 C 0.0618(6) 0.7721(4) 0.45759(9)
H6_5 H 0.0212 0.7210 0.4635
C9_5 C 0.0403(5) 0.8007(3) 0.44131(8)
C10_5 C 0.0998(4) 0.8766(3) 0.43293(7)
H7_5 H 0.0858 0.8960 0.4216
C11_5 C 0.1786(4) 0.9235(3) 0.44092(7)
C12_5 C 0.2011(6) 0.8947(4) 0.45726(8)
H8_5 H 0.2555 0.9270 0.4628
Cu2_6 Cu 0.12217(6) 0.83906(5) 0.59858(2)
O6_6 O 0.2099(4) 0.9005(4) 0.55768(5)
O7_6 O 0.2775(4) 0.8375(3) 0.58317(6)
O8_6 O 0.0561(4) 0.7523(2) 0.55885(5)
O9_6 O 0.1309(4) 0.6848(2) 0.58208(5)
O2_6 O 0.9005(4) 0.6906(2) 0.44232(5)
O3_6 O 0.9442(4) 0.7734(2) 0.41650(6)
C13_6 C 0.9556(4) 0.7513(3) 0.43270(7)
Cu1_7 Cu 0.05022(3) 0.54449(4) 0.26524(2)
O1_6 O 0.0529(7) 0.4465(5) 0.34181(11)
N1_6 N 0.0428(3) 0.5485(4) 0.35179(9)
H1_6 H 0.0577 0.6013 0.3493
N2_7 N 0.1268(2) 0.5912(2) 0.29083(5)
C1_7 C 0.1989(3) 0.6638(3) 0.29115(7)
H2_7 H 0.2257 0.6932 0.2797
C2_7 C 0.235(2) 0.696(2) 0.3099(5)
H3_7 H 0.2860 0.7483 0.3107
C3_7 C 0.1981(10) 0.6547(9) 0.3263(2)
H4_6 H 0.2221 0.6778 0.3384
C4_7 C 0.1228(5) 0.5759(5) 0.32484(12)
C5_7 C 0.0879(7) 0.5441(8) 0.3066(3)
H5_7 H 0.0382 0.4907 0.3053
C6_6 C 0.0708(6) 0.5178(6) 0.34047(13)
O7_7 O 0.1067(2) 0.4959(3) 0.25017(6)
O9_7 O 0.1128(3) 0.6486(2) 0.25126(5)
O2_7 O 0.8766(3) 0.6427(2) 0.39101(5)
O3_7 O 0.8375(3) 0.5599(2) 0.41683(6)
O4_7 O 0.9144(2) 0.2772(2) 0.39218(5)
O5_7 O 0.8691(2) 0.3152(2) 0.41792(5)
C7_6 C 0.9912(4) 0.5154(4) 0.36803(9)
C8_6 C 0.9564(4) 0.5612(4) 0.37574(9)
H6_6 H 0.9669 0.6123 0.3698
C9_6 C 0.9063(4) 0.5326(3) 0.39202(8)
C10_6 C 0.8899(3) 0.4567(3) 0.40040(7)
H7_6 H 0.8565 0.4373 0.4117
C11_6 C 0.9218(3) 0.4098(3) 0.39241(7)
C12_6 C 0.9731(4) 0.4386(4) 0.37607(8)
H8_6 H 0.9952 0.4063 0.3705
C13_7 C 0.8710(3) 0.5820(3) 0.40063(7)
C14_7 C 0.9002(3) 0.3272(3) 0.40138(6)
Cu2_7 Cu 0.94978(3) 0.49428(5) 0.23476(2)
O6_7 O 0.9761(2) 0.4328(4) 0.27565(5)
O8_7 O 0.9705(3) 0.5810(2) 0.27448(5)
Cu1_8 Cu 0.45551(4) 0.50572(5) 0.26524(2)
O1_7 O 0.5535(5) 0.6063(9) 0.34181(11)
O2_8 O 0.3573(2) 0.2338(4) 0.39101(5)
O3_8 O 0.4401(2) 0.2775(4) 0.41683(6)
O4_8 O 0.7228(2) 0.6371(3) 0.39218(5)
O5_8 O 0.6848(2) 0.5538(3) 0.41792(5)
N1_7 N 0.4515(4) 0.4942(5) 0.35179(9)
H1_7 H 0.3987 0.4563 0.3493
N2_8 N 0.4088(2) 0.5355(3) 0.29083(5)
C1_8 C 0.3362(3) 0.5350(4) 0.29115(7)
H2_8 H 0.3068 0.5324 0.2797
C2_8 C 0.304(2) 0.538(3) 0.3099(5)
H3_8 H 0.2517 0.5376 0.3107
C3_8 C 0.3453(9) 0.5433(13) 0.3263(2)
H4_7 H 0.3222 0.5442 0.3384
C4_8 C 0.4241(5) 0.5468(7) 0.32484(12)
C5_8 C 0.4559(8) 0.5437(11) 0.3066(3)
H5_8 H 0.5093 0.5474 0.3053
C6_7 C 0.4822(6) 0.5529(8) 0.34047(13)
C7_7 C 0.4846(4) 0.4757(6) 0.36803(9)
C8_7 C 0.4388(4) 0.3951(6) 0.37574(9)
H6_7 H 0.3877 0.3545 0.3698
C9_7 C 0.4674(3) 0.3736(5) 0.39202(8)
C10_7 C 0.5433(3) 0.4331(4) 0.40040(7)
H7_7 H 0.5627 0.4191 0.4117
C11_7 C 0.5902(3) 0.5119(4) 0.39241(7)
C12_7 C 0.5614(4) 0.5344(6) 0.37607(8)
H8_7 H 0.5937 0.5888 0.3705
C13_8 C 0.4180(3) 0.2889(4) 0.40063(7)
C14_8 C 0.6728(3) 0.5729(4) 0.40138(6)
Cu2_8 Cu 0.50572(5) 0.45551(6) 0.23476(2)
O6_8 O 0.5672(4) 0.5432(4) 0.27565(5)
O7_8 O 0.5041(3) 0.6109(4) 0.25017(6)
O8_8 O 0.4190(2) 0.3894(4) 0.27448(5)
O9_8 O 0.3514(2) 0.4643(4) 0.25126(5)
O2_9 O 0.7662(4) 0.1234(3) 0.39101(5)
O3_9 O 0.7225(4) 0.1625(3) 0.41683(6)
O4_9 O 0.3629(3) 0.0856(2) 0.39218(5)
O5_9 O 0.4462(3) 0.1309(2) 0.41792(5)
C7_8 C 0.5243(6) 0.0088(4) 0.36803(9)
C8_8 C 0.6049(6) 0.0436(4) 0.37574(9)
H6_8 H 0.6455 0.0331 0.3698
C9_8 C 0.6264(5) 0.0937(4) 0.39202(8)
C10_8 C 0.5669(4) 0.1101(3) 0.40040(7)
H7_8 H 0.5809 0.1435 0.4117
C11_8 C 0.4881(4) 0.0782(3) 0.39241(7)
C12_8 C 0.4656(6) 0.0269(4) 0.37607(8)
H8_8 H 0.4112 0.0048 0.3705
C13_9 C 0.7111(4) 0.1290(3) 0.40063(7)
C14_9 C 0.4271(4) 0.0998(3) 0.40138(6)
Cu2_9 Cu 0.54449(6) 0.05022(3) 0.23476(2)
O6_9 O 0.4568(4) 0.0239(2) 0.27565(5)
O8_9 O 0.6106(4) 0.0295(3) 0.27448(5)
Cu1_9 Cu 0.49428(5) 0.94978(3) 0.26524(2)
O1_8 O 0.3937(9) 0.9471(7) 0.34181(11)
N1_8 N 0.5058(5) 0.9572(3) 0.35179(9)
H1_8 H 0.5437 0.9423 0.3493
N2_9 N 0.4645(3) 0.8732(2) 0.29083(5)
C1_9 C 0.4650(4) 0.8011(3) 0.29115(7)
H2_9 H 0.4676 0.7743 0.2797
C2_9 C 0.462(3) 0.765(2) 0.3099(5)
H3_9 H 0.4624 0.7140 0.3107
C3_9 C 0.4567(13) 0.8019(10) 0.3263(2)
H4_8 H 0.4558 0.7779 0.3384
C4_9 C 0.4532(7) 0.8772(5) 0.32484(12)
C5_9 C 0.4563(11) 0.9121(7) 0.3066(3)
H5_9 H 0.4526 0.9618 0.3053
C6_8 C 0.4471(8) 0.9292(6) 0.34047(13)
O7_9 O 0.3891(4) 0.8933(2) 0.25017(6)
O9_9 O 0.5357(4) 0.8872(3) 0.25126(5)
H2_10 H 0.0266 0.8923 0.8869
C2_10 C 0.030(2) 0.901(2) 0.8567(5)
H3_10 H 0.0817 0.9526 0.8559
H4_9 H 0.0112 0.8887 0.8282
Cu4_4 Cu 0.05022(3) 0.50572(5) 0.76524(2)
O1_9 O 0.7799(5) 0.7195(7) 0.82485(11)
O2_10 O 0.9761(2) 0.5432(3) 0.77565(5)
O3_10 O 0.8933(2) 0.5041(3) 0.74983(6)
O4_10 O 0.6106(2) 0.5810(2) 0.77448(5)
O5_10 O 0.6486(2) 0.5357(2) 0.74874(5)
N1_9 N 0.8819(4) 0.7094(3) 0.81487(9)
H1_9 H 0.9347 0.7243 0.8173
N2_10 N 0.9246(2) 0.7934(2) 0.87583(5)
C1_10 C 0.9972(3) 0.8655(3) 0.87551(7)
C3_10 C 0.9881(9) 0.8647(10) 0.8403(2)
C4_10 C 0.9093(5) 0.7894(5) 0.84182(12)
C5_10 C 0.8775(8) 0.7545(7) 0.8600(3)
H5_10 H 0.8241 0.7048 0.8613
C6_9 C 0.8512(6) 0.7374(6) 0.82619(13)
C7_9 C 0.8488(4) 0.6578(4) 0.79863(9)
C8_9 C 0.8946(4) 0.6230(4) 0.79092(9)
H6_9 H 0.9457 0.6335 0.7968
C9_9 C 0.8660(3) 0.5729(4) 0.77464(8)
C10_9 C 0.7901(3) 0.5565(3) 0.76626(7)
H7_9 H 0.7707 0.5231 0.7549
C11_9 C 0.7432(3) 0.5884(3) 0.77425(7)
C12_9 C 0.7720(4) 0.6397(4) 0.79059(8)
H8_9 H 0.7397 0.6618 0.7961
C13_10 C 0.9154(3) 0.5376(3) 0.76603(7)
C14_10 C 0.6606(3) 0.5668(3) 0.76528(6)
Cu3_4 Cu 0.49428(5) 0.54449(4) 0.76524(2)
Cu5_4 Cu 0.94978(3) 0.45551(4) 0.73476(2)
Cu6_4 Cu 0.54449(4) 0.49428(5) 0.73476(2)
O6_10 O 0.7662(4) 0.6427(2) 0.89101(5)
O7_10 O 0.8292(3) 0.7734(2) 0.91650(6)
O8_10 O 0.9144(2) 0.6371(3) 0.89218(5)
O9_10 O 0.9819(2) 0.7795(3) 0.91541(5)
O1_10 O 0.2805(7) 0.0603(9) 0.82485(11)
O2_11 O 0.4568(3) 0.4328(4) 0.77565(5)
O3_11 O 0.4959(3) 0.3891(4) 0.74983(6)
O4_11 O 0.4190(2) 0.0295(3) 0.77448(5)
O5_11 O 0.4643(2) 0.1128(3) 0.74874(5)
N1_10 N 0.2906(3) 0.1724(5) 0.81487(9)
H1_10 H 0.2757 0.2103 0.8173
N2_11 N 0.2066(2) 0.1311(3) 0.87583(5)
C1_11 C 0.1345(3) 0.1316(4) 0.87551(7)
H2_11 H 0.1077 0.1342 0.8869
C2_11 C 0.099(2) 0.128(3) 0.8567(5)
H3_11 H 0.0474 0.1290 0.8559
C3_11 C 0.1353(10) 0.1233(13) 0.8403(2)
H4_10 H 0.1113 0.1224 0.8282
C4_11 C 0.2106(5) 0.1198(7) 0.84182(12)
C5_11 C 0.2455(7) 0.1229(11) 0.8600(3)
H5_11 H 0.2952 0.1192 0.8613
C6_10 C 0.2626(6) 0.1137(8) 0.82619(13)
C7_10 C 0.3422(4) 0.1909(6) 0.79863(9)
C8_10 C 0.3770(4) 0.2715(6) 0.79092(9)
H6_10 H 0.3665 0.3121 0.7968
C9_10 C 0.4271(4) 0.2930(5) 0.77464(8)
C10_10 C 0.4435(3) 0.2335(4) 0.76626(7)
H7_10 H 0.4769 0.2475 0.7549
C11_10 C 0.4116(3) 0.1547(4) 0.77425(7)
C12_10 C 0.3603(4) 0.1322(6) 0.79059(8)
H8_10 H 0.3382 0.0778 0.7961
C13_11 C 0.4624(3) 0.3777(4) 0.76603(7)
C14_11 C 0.4332(3) 0.0937(4) 0.76528(6)
Cu6_5 Cu 0.50572(5) 0.05022(6) 0.73476(2)
O6_11 O 0.3573(2) 0.1234(4) 0.89101(5)
O7_11 O 0.2266(2) 0.0558(4) 0.91650(6)
O8_11 O 0.3629(3) 0.2772(4) 0.89218(5)
O9_11 O 0.2205(3) 0.2024(4) 0.91541(5)
Cu3_5 Cu 0.45551(4) 0.94978(6) 0.76524(2)
O1_11 O 0.9397(9) 0.2201(5) 0.82485(11)
O2_12 O 0.5672(4) 0.0239(2) 0.77565(5)
O3_12 O 0.6109(4) 0.1067(2) 0.74983(6)
O4_12 O 0.9705(3) 0.3894(2) 0.77448(5)
O5_12 O 0.8872(3) 0.3514(2) 0.74874(5)
N1_11 N 0.8276(5) 0.1181(4) 0.81487(9)
H1_11 H 0.7897 0.0653 0.8173
N2_12 N 0.8689(3) 0.0754(2) 0.87583(5)
C1_12 C 0.8684(4) 0.0028(3) 0.87551(7)
C3_12 C 0.8767(13) 0.0119(9) 0.8403(2)
C4_12 C 0.8802(7) 0.0907(5) 0.84182(12)
C5_12 C 0.8771(11) 0.1225(8) 0.8600(3)
H5_12 H 0.8808 0.1759 0.8613
C6_11 C 0.8863(8) 0.1488(6) 0.82619(13)
C7_11 C 0.8091(6) 0.1512(4) 0.79863(9)
C8_11 C 0.7285(6) 0.1054(4) 0.79092(9)
H6_11 H 0.6879 0.0543 0.7968
C9_11 C 0.7070(5) 0.1340(3) 0.77464(8)
C10_11 C 0.7665(4) 0.2099(3) 0.76626(7)
H7_11 H 0.7525 0.2293 0.7549
C11_11 C 0.8453(4) 0.2568(3) 0.77425(7)
C12_11 C 0.8678(6) 0.2280(4) 0.79059(8)
H8_11 H 0.9222 0.2603 0.7961
C13_12 C 0.6223(4) 0.0846(3) 0.76603(7)
C14_12 C 0.9063(4) 0.3394(3) 0.76528(6)
O6_12 O 0.8766(4) 0.2338(4) 0.89101(5)
O7_12 O 0.9442(4) 0.1708(3) 0.91650(6)
O8_12 O 0.7228(4) 0.0856(2) 0.89218(5)
O9_12 O 0.7976(4) 0.0181(2) 0.91541(5)
H2_12 H 0.8658 0.9734 0.8869
C2_12 C 0.872(3) 0.970(2) 0.8567(5)
H3_12 H 0.8710 0.9183 0.8559
H4_11 H 0.8776 0.9888 0.8282
H2_13 H 0.8923 0.0266 0.6131
C2_13 C 0.901(2) 0.030(2) 0.6433(5)
H3_13 H 0.9526 0.0817 0.6441
H4_12 H 0.8887 0.0112 0.6718
O1_12 O 0.7195(7) 0.7799(5) 0.67515(11)
O2_13 O 0.5432(3) 0.9761(2) 0.72435(5)
O3_13 O 0.5041(3) 0.8933(2) 0.75017(6)
O4_13 O 0.5810(2) 0.6106(2) 0.72552(5)
O5_13 O 0.5357(2) 0.6486(2) 0.75126(5)
N1_12 N 0.7094(3) 0.8819(4) 0.68513(9)
H1_12 H 0.7243 0.9347 0.6827
N2_13 N 0.7934(2) 0.9246(2) 0.62417(5)
C1_13 C 0.8655(3) 0.9972(3) 0.62449(7)
C3_13 C 0.8647(10) 0.9881(9) 0.6597(2)
C4_13 C 0.7894(5) 0.9093(5) 0.65818(12)
C5_13 C 0.7545(7) 0.8775(8) 0.6400(3)
H5_13 H 0.7048 0.8241 0.6387
C6_12 C 0.7374(6) 0.8512(6) 0.67381(13)
C7_12 C 0.6578(4) 0.8488(4) 0.70137(9)
C8_12 C 0.6230(4) 0.8946(4) 0.70908(9)
H6_12 H 0.6335 0.9457 0.7032
C9_12 C 0.5729(4) 0.8660(3) 0.72536(8)
C10_12 C 0.5565(3) 0.7901(3) 0.73374(7)
H7_12 H 0.5231 0.7707 0.7451
C11_12 C 0.5884(3) 0.7432(3) 0.72575(7)
C12_12 C 0.6397(4) 0.7720(4) 0.70941(8)
H8_12 H 0.6618 0.7397 0.7039
C13_13 C 0.5376(3) 0.9154(3) 0.73397(7)
C14_13 C 0.5668(3) 0.6606(3) 0.73472(6)
O6_13 O 0.6427(2) 0.7662(4) 0.60899(5)
O7_13 O 0.7734(2) 0.8292(3) 0.58350(6)
O8_13 O 0.6371(3) 0.9144(2) 0.60782(5)
O9_13 O 0.7795(3) 0.9819(2) 0.58459(5)
O1_13 O 0.2201(5) 0.9397(9) 0.67515(11)
O2_14 O 0.0239(2) 0.5672(4) 0.72435(5)
O3_14 O 0.1067(2) 0.6109(4) 0.75017(6)
O4_14 O 0.3894(2) 0.9705(3) 0.72552(5)
O5_14 O 0.3514(2) 0.8872(3) 0.75126(5)
N1_13 N 0.1181(4) 0.8276(5) 0.68513(9)
H1_13 H 0.0653 0.7897 0.6827
N2_14 N 0.0754(2) 0.8689(3) 0.62417(5)
C1_14 C 0.0028(3) 0.8684(4) 0.62449(7)
C3_14 C 0.0119(9) 0.8767(13) 0.6597(2)
C4_14 C 0.0907(5) 0.8802(7) 0.65818(12)
C5_14 C 0.1225(8) 0.8771(11) 0.6400(3)
H5_14 H 0.1759 0.8808 0.6387
C6_13 C 0.1488(6) 0.8863(8) 0.67381(13)
C7_13 C 0.1512(4) 0.8091(6) 0.70137(9)
C8_13 C 0.1054(4) 0.7285(6) 0.70908(9)
H6_13 H 0.0543 0.6879 0.7032
C9_13 C 0.1340(3) 0.7070(5) 0.72536(8)
C10_13 C 0.2099(3) 0.7665(4) 0.73374(7)
H7_13 H 0.2293 0.7525 0.7451
C11_13 C 0.2568(3) 0.8453(4) 0.72575(7)
C12_13 C 0.2280(4) 0.8678(6) 0.70941(8)
H8_13 H 0.2603 0.9222 0.7039
C13_14 C 0.0846(3) 0.6223(4) 0.73397(7)
C14_14 C 0.3394(3) 0.9063(4) 0.73472(6)
O6_14 O 0.2338(4) 0.8766(4) 0.60899(5)
O7_14 O 0.1708(3) 0.9442(4) 0.58350(6)
O8_14 O 0.0856(2) 0.7228(4) 0.60782(5)
O9_14 O 0.0181(2) 0.7976(4) 0.58459(5)
H2_14 H 0.9734 0.8658 0.6131
C2_14 C 0.970(2) 0.872(3) 0.6433(5)
H3_14 H 0.9183 0.8710 0.6441
H4_13 H 0.9888 0.8776 0.6718
O1_14 O 0.0603(9) 0.2805(7) 0.67515(11)
O2_15 O 0.4328(4) 0.4568(3) 0.72435(5)
O3_15 O 0.3891(4) 0.4959(3) 0.75017(6)
O4_15 O 0.0295(3) 0.4190(2) 0.72552(5)
O5_15 O 0.1128(3) 0.4643(2) 0.75126(5)
N1_14 N 0.1724(5) 0.2906(3) 0.68513(9)
H1_14 H 0.2103 0.2757 0.6827
N2_15 N 0.1311(3) 0.2066(2) 0.62417(5)
C1_15 C 0.1316(4) 0.1345(3) 0.62449(7)
H2_15 H 0.1342 0.1077 0.6131
C2_15 C 0.128(3) 0.099(2) 0.6433(5)
H3_15 H 0.1290 0.0474 0.6441
C3_15 C 0.1233(13) 0.1353(10) 0.6597(2)
H4_14 H 0.1224 0.1113 0.6718
C4_15 C 0.1198(7) 0.2106(5) 0.65818(12)
C5_15 C 0.1229(11) 0.2455(7) 0.6400(3)
H5_15 H 0.1192 0.2952 0.6387
C6_14 C 0.1137(8) 0.2626(6) 0.67381(13)
C7_14 C 0.1909(6) 0.3422(4) 0.70137(9)
C8_14 C 0.2715(6) 0.3770(4) 0.70908(9)
H6_14 H 0.3121 0.3665 0.7032
C9_14 C 0.2930(5) 0.4271(4) 0.72536(8)
C10_14 C 0.2335(4) 0.4435(3) 0.73374(7)
H7_14 H 0.2475 0.4769 0.7451
C11_14 C 0.1547(4) 0.4116(3) 0.72575(7)
C12_14 C 0.1322(6) 0.3603(4) 0.70941(8)
H8_14 H 0.0778 0.3382 0.7039
C13_15 C 0.3777(4) 0.4624(3) 0.73397(7)
C14_15 C 0.0937(4) 0.4332(3) 0.73472(6)
O6_15 O 0.1234(4) 0.3573(2) 0.60899(5)
O7_15 O 0.0558(4) 0.2266(2) 0.58350(6)
O8_15 O 0.2772(4) 0.3629(3) 0.60782(5)
O9_15 O 0.2024(4) 0.2205(3) 0.58459(5)
O1_15 O 0.4465(5) 0.0529(7) 0.15819(11)
N1_15 N 0.5485(4) 0.0428(3) 0.14821(9)
H1_15 H 0.6013 0.0577 0.1507
N2_16 N 0.5912(2) 0.1268(2) 0.20917(5)
C1_16 C 0.6638(3) 0.1989(3) 0.20885(7)
H2_16 H 0.6932 0.2257 0.2203
C2_16 C 0.696(2) 0.235(2) 0.1901(5)
H3_16 H 0.7483 0.2860 0.1893
C3_16 C 0.6547(9) 0.1981(10) 0.1737(2)
H4_15 H 0.6778 0.2221 0.1616
C4_16 C 0.5759(5) 0.1228(5) 0.17516(12)
C5_16 C 0.5441(8) 0.0879(7) 0.1934(3)
H5_16 H 0.4907 0.0382 0.1947
C6_15 C 0.5178(6) 0.0708(6) 0.15953(13)
O7_16 O 0.4959(3) 0.1067(2) 0.24983(6)
O9_16 O 0.6486(2) 0.1128(3) 0.24874(5)
O2_16 O 0.6427(2) 0.8766(3) 0.10899(5)
O3_16 O 0.5599(2) 0.8375(3) 0.08317(6)
O4_16 O 0.2772(2) 0.9144(2) 0.10782(5)
O5_16 O 0.3152(2) 0.8691(2) 0.08208(5)
C7_15 C 0.5154(4) 0.9912(4) 0.13197(9)
C8_15 C 0.5612(4) 0.9564(4) 0.12426(9)
H6_15 H 0.6123 0.9669 0.1302
C9_15 C 0.5326(3) 0.9063(4) 0.10798(8)
C10_15 C 0.4567(3) 0.8899(3) 0.09960(7)
H7_15 H 0.4373 0.8565 0.0883
C11_15 C 0.4098(3) 0.9218(3) 0.10759(7)
C12_15 C 0.4386(4) 0.9731(4) 0.12393(8)
H8_15 H 0.4063 0.9952 0.1295
C13_16 C 0.5820(3) 0.8710(3) 0.09937(7)
C14_16 C 0.3272(3) 0.9002(3) 0.09862(6)
O6_16 O 0.4328(4) 0.9761(2) 0.22435(5)
O8_16 O 0.5810(2) 0.9705(3) 0.22552(5)
O2_17 O 0.1234(3) 0.7662(4) 0.10899(5)
O3_17 O 0.1625(3) 0.7225(4) 0.08317(6)
O4_17 O 0.0856(2) 0.3629(3) 0.10782(5)
O5_17 O 0.1309(2) 0.4462(3) 0.08208(5)
C7_16 C 0.0088(4) 0.5243(6) 0.13197(9)
C8_16 C 0.0436(4) 0.6049(6) 0.12426(9)
H6_16 H 0.0331 0.6455 0.1302
C9_16 C 0.0937(4) 0.6264(5) 0.10798(8)
C10_16 C 0.1101(3) 0.5669(4) 0.09960(7)
H7_16 H 0.1435 0.5809 0.0883
C11_16 C 0.0782(3) 0.4881(4) 0.10759(7)
C12_16 C 0.0269(4) 0.4656(6) 0.12393(8)
H8_16 H 0.0048 0.4112 0.1295
C13_17 C 0.1290(3) 0.7111(4) 0.09937(7)
C14_17 C 0.0998(3) 0.4271(4) 0.09862(6)
O6_17 O 0.0239(2) 0.4568(4) 0.22435(5)
O8_17 O 0.0295(3) 0.6106(4) 0.22552(5)
O1_16 O 0.9471(7) 0.3937(9) 0.15819(11)
N1_16 N 0.9572(3) 0.5058(5) 0.14821(9)
H1_16 H 0.9423 0.5437 0.1507
N2_17 N 0.8732(2) 0.4645(3) 0.20917(5)
C1_17 C 0.8011(3) 0.4650(4) 0.20885(7)
H2_17 H 0.7743 0.4676 0.2203
C2_17 C 0.765(2) 0.462(3) 0.1901(5)
H3_17 H 0.7140 0.4624 0.1893
C3_17 C 0.8019(10) 0.4567(13) 0.1737(2)
H4_16 H 0.7779 0.4558 0.1616
C4_17 C 0.8772(5) 0.4532(7) 0.17516(12)
C5_17 C 0.9121(7) 0.4563(11) 0.1934(3)
H5_17 H 0.9618 0.4526 0.1947
C6_16 C 0.9292(6) 0.4471(8) 0.15953(13)
O7_17 O 0.8933(2) 0.3891(4) 0.24983(6)
O9_17 O 0.8872(3) 0.5357(4) 0.24874(5)
O1_17 O 0.6063(9) 0.5535(5) 0.15819(11)
O2_18 O 0.2338(4) 0.3573(2) 0.10899(5)
O3_18 O 0.2775(4) 0.4401(2) 0.08317(6)
O4_18 O 0.6371(3) 0.7228(2) 0.10782(5)
O5_18 O 0.5538(3) 0.6848(2) 0.08208(5)
N1_17 N 0.4942(5) 0.4515(4) 0.14821(9)
H1_17 H 0.4563 0.3987 0.1507
N2_18 N 0.5355(3) 0.4088(2) 0.20917(5)
C1_18 C 0.5350(4) 0.3362(3) 0.20885(7)
H2_18 H 0.5324 0.3068 0.2203
C2_18 C 0.538(3) 0.304(2) 0.1901(5)
H3_18 H 0.5376 0.2517 0.1893
C3_18 C 0.5433(13) 0.3453(9) 0.1737(2)
H4_17 H 0.5442 0.3222 0.1616
C4_18 C 0.5468(7) 0.4241(5) 0.17516(12)
C5_18 C 0.5437(11) 0.4559(8) 0.1934(3)
H5_18 H 0.5474 0.5093 0.1947
C6_17 C 0.5529(8) 0.4822(6) 0.15953(13)
C7_17 C 0.4757(6) 0.4846(4) 0.13197(9)
C8_17 C 0.3951(6) 0.4388(4) 0.12426(9)
H6_17 H 0.3545 0.3877 0.1302
C9_17 C 0.3736(5) 0.4674(3) 0.10798(8)
C10_17 C 0.4331(4) 0.5433(3) 0.09960(7)
H7_17 H 0.4191 0.5627 0.0883
C11_17 C 0.5119(4) 0.5902(3) 0.10759(7)
C12_17 C 0.5344(6) 0.5614(4) 0.12393(8)
H8_17 H 0.5888 0.5937 0.1295
C13_18 C 0.2889(4) 0.4180(3) 0.09937(7)
C14_18 C 0.5729(4) 0.6728(3) 0.09862(6)
O6_18 O 0.5432(4) 0.5672(4) 0.22435(5)
O7_18 O 0.6109(4) 0.5041(3) 0.24983(6)
O8_18 O 0.3894(4) 0.4190(2) 0.22552(5)
O9_18 O 0.4643(4) 0.3514(2) 0.24874(5)
C14_19 C 0.7665(3) 0.0061(3) 0.93195(6)
N2_19 N 0.5399(2) 0.7421(2) 0.04250(5)
C1_19 C 0.4678(3) 0.6695(3) 0.04218(7)
H2_19 H 0.4410 0.6401 0.0536
C2_19 C 0.432(2) 0.637(2) 0.0234(5)
H3_19 H 0.3807 0.5850 0.0226
C3_19 C 0.4686(10) 0.6786(9) 0.0070(2)
C4_19 C 0.5439(5) 0.7574(5) 0.00849(12)
C5_19 C 0.5788(7) 0.7892(8) 0.0267(3)
H5_19 H 0.6285 0.8426 0.0280
O1_18 O 0.6138(7) 0.8868(5) 0.99152(11)
N1_18 N 0.6239(3) 0.7848(4) 0.98154(9)
H1_18 H 0.6090 0.7320 0.9840
H4_18 H 0.4446 0.6555 0.9949
C6_18 C 0.5959(6) 0.8155(6) 0.99286(13)
C7_18 C 0.6755(4) 0.8179(4) 0.96530(9)
C8_18 C 0.7103(4) 0.7721(4) 0.95759(9)
H6_18 H 0.6998 0.7210 0.9635
C9_18 C 0.7604(4) 0.8007(3) 0.94131(8)
C10_18 C 0.7768(3) 0.8766(3) 0.93293(7)
H7_18 H 0.8102 0.8960 0.9216
C11_18 C 0.7449(3) 0.9235(3) 0.94092(7)
C12_18 C 0.6936(4) 0.8947(4) 0.95726(8)
H8_18 H 0.6715 0.9270 0.9628
C13_19 C 0.7957(3) 0.7513(3) 0.93270(7)
C13_20 C 0.2487(3) 0.0444(4) 0.93270(7)
N2_20 N 0.2579(2) 0.7978(3) 0.04250(5)
C1_20 C 0.3305(3) 0.7983(4) 0.04218(7)
H2_20 H 0.3599 0.8009 0.0536
C2_20 C 0.363(2) 0.795(3) 0.0234(5)
H3_20 H 0.4150 0.7957 0.0226
C3_20 C 0.3214(9) 0.7900(13) 0.0070(2)
C4_20 C 0.2426(5) 0.7865(7) 0.00849(12)
C5_20 C 0.2108(8) 0.7896(11) 0.0267(3)
H5_20 H 0.1574 0.7859 0.0280
C14_20 C 0.9939(3) 0.7604(4) 0.93195(6)
N2_21 N 0.2022(3) 0.4601(2) 0.04250(5)
C1_21 C 0.2017(4) 0.5322(3) 0.04218(7)
H2_21 H 0.1991 0.5590 0.0536
C2_21 C 0.205(3) 0.568(2) 0.0234(5)
H3_21 H 0.2043 0.6193 0.0226
C3_21 C 0.2100(13) 0.5314(10) 0.0070(2)
C4_21 C 0.2135(7) 0.4561(5) 0.00849(12)
C5_21 C 0.2104(11) 0.4212(7) 0.0267(3)
H5_21 H 0.2141 0.3715 0.0280
O1_19 O 0.2730(9) 0.3862(7) 0.99152(11)
N1_19 N 0.1609(5) 0.3761(3) 0.98154(9)
H1_19 H 0.1230 0.3910 0.9840
H4_19 H 0.2109 0.5554 0.9949
C6_19 C 0.2196(8) 0.4041(6) 0.99286(13)
C7_19 C 0.1424(6) 0.3245(4) 0.96530(9)
C8_19 C 0.0618(6) 0.2897(4) 0.95759(9)
H6_19 H 0.0212 0.3002 0.9635
C9_19 C 0.0403(5) 0.2396(4) 0.94131(8)
C10_19 C 0.0998(4) 0.2232(3) 0.93293(7)
H7_19 H 0.0858 0.1898 0.9216
C11_19 C 0.1786(4) 0.2551(3) 0.94092(7)
C12_19 C 0.2011(6) 0.3064(4) 0.95726(8)
H8_19 H 0.2555 0.3285 0.9628
C14_21 C 0.2396(4) 0.2335(3) 0.93195(6)
C13_21 C 0.9556(4) 0.2043(3) 0.93270(7)
C14_22 C 0.0061(3) 0.7665(3) 0.56805(6)
O1_20 O 0.8868(5) 0.6138(7) 0.50848(11)
N1_20 N 0.7848(4) 0.6239(3) 0.51846(9)
H1_20 H 0.7320 0.6090 0.5160
N2_22 N 0.7421(2) 0.5399(2) 0.45750(5)
C1_22 C 0.6695(3) 0.4678(3) 0.45782(7)
H2_22 H 0.6401 0.4410 0.4464
C2_22 C 0.637(2) 0.432(2) 0.4766(5)
H3_22 H 0.5850 0.3807 0.4774
C3_22 C 0.6786(9) 0.4686(10) 0.4930(2)
H4_20 H 0.6555 0.4446 0.5051
C4_22 C 0.7574(5) 0.5439(5) 0.49151(12)
C5_22 C 0.7892(8) 0.5788(7) 0.4733(3)
H5_22 H 0.8426 0.6285 0.4720
C6_20 C 0.8155(6) 0.5959(6) 0.50714(13)
C7_20 C 0.8179(4) 0.6755(4) 0.53470(9)
C8_20 C 0.7721(4) 0.7103(4) 0.54241(9)
H6_20 H 0.7210 0.6998 0.5365
C9_20 C 0.8007(3) 0.7604(4) 0.55869(8)
C10_20 C 0.8766(3) 0.7768(3) 0.56707(7)
H7_20 H 0.8960 0.8102 0.5784
C11_20 C 0.9235(3) 0.7449(3) 0.55908(7)
C12_20 C 0.8947(4) 0.6936(4) 0.54274(8)
H8_20 H 0.9270 0.6715 0.5372
C13_22 C 0.7513(3) 0.7957(3) 0.56730(7)
O1_21 O 0.3862(7) 0.2730(9) 0.50848(11)
N1_21 N 0.3761(3) 0.1609(5) 0.51846(9)
H1_21 H 0.3910 0.1230 0.5160
N2_23 N 0.4601(2) 0.2022(3) 0.45750(5)
C1_23 C 0.5322(3) 0.2017(4) 0.45782(7)
H2_23 H 0.5590 0.1991 0.4464
C2_23 C 0.568(2) 0.205(3) 0.4766(5)
H3_23 H 0.6193 0.2043 0.4774
C3_23 C 0.5314(10) 0.2100(13) 0.4930(2)
H4_21 H 0.5554 0.2109 0.5051
C4_23 C 0.4561(5) 0.2135(7) 0.49151(12)
C5_23 C 0.4212(7) 0.2104(11) 0.4733(3)
H5_23 H 0.3715 0.2141 0.4720
C6_21 C 0.4041(6) 0.2196(8) 0.50714(13)
C7_21 C 0.3245(4) 0.1424(6) 0.53470(9)
C8_21 C 0.2897(4) 0.0618(6) 0.54241(9)
H6_21 H 0.3002 0.0212 0.5365
C9_21 C 0.2396(4) 0.0403(5) 0.55869(8)
C10_21 C 0.2232(3) 0.0998(4) 0.56707(7)
H7_21 H 0.1898 0.0858 0.5784
C11_21 C 0.2551(3) 0.1786(4) 0.55908(7)
C12_21 C 0.3064(4) 0.2011(6) 0.54274(8)
H8_21 H 0.3285 0.2555 0.5372
C14_23 C 0.2335(3) 0.2396(4) 0.56805(6)
C13_23 C 0.2043(3) 0.9556(4) 0.56730(7)
C13_24 C 0.0444(4) 0.2487(3) 0.56730(7)
O1_22 O 0.7270(9) 0.1132(5) 0.50848(11)
N1_22 N 0.8391(5) 0.2152(4) 0.51846(9)
H1_22 H 0.8770 0.2680 0.5160
N2_24 N 0.7978(3) 0.2579(2) 0.45750(5)
C1_24 C 0.7983(4) 0.3305(3) 0.45782(7)
H2_24 H 0.8009 0.3599 0.4464
C2_24 C 0.795(3) 0.363(2) 0.4766(5)
H3_24 H 0.7957 0.4150 0.4774
C3_24 C 0.7900(13) 0.3214(9) 0.4930(2)
H4_22 H 0.7891 0.3445 0.5051
C4_24 C 0.7865(7) 0.2426(5) 0.49151(12)
C5_24 C 0.7896(11) 0.2108(8) 0.4733(3)
H5_24 H 0.7859 0.1574 0.4720
C6_22 C 0.7804(8) 0.1845(6) 0.50714(13)
C7_22 C 0.8576(6) 0.1821(4) 0.53470(9)
C8_22 C 0.9382(6) 0.2279(4) 0.54241(9)
H6_22 H 0.9788 0.2790 0.5365
C9_22 C 0.9597(5) 0.1993(3) 0.55869(8)
C10_22 C 0.9002(4) 0.1234(3) 0.56707(7)
H7_22 H 0.9142 0.1040 0.5784
C11_22 C 0.8214(4) 0.0765(3) 0.55908(7)
C12_22 C 0.7989(6) 0.1053(4) 0.54274(8)
H8_22 H 0.7445 0.0730 0.5372
C14_24 C 0.7604(4) 0.9939(3) 0.56805(6)
C7_23 C 0.0088(4) 0.4846(4) 0.63197(9)
C8_23 C 0.0436(4) 0.4388(4) 0.62426(9)
H6_23 H 0.0331 0.3877 0.6302
C9_23 C 0.0937(4) 0.4674(3) 0.60798(8)
C10_23 C 0.1101(3) 0.5433(3) 0.59960(7)
H7_23 H 0.1435 0.5627 0.5883
C11_23 C 0.0782(3) 0.5902(3) 0.60759(7)
C12_23 C 0.0269(4) 0.5614(4) 0.62393(8)
H8_23 H 0.0048 0.5937 0.6295
C13_25 C 0.1290(3) 0.4180(3) 0.59937(7)
C14_25 C 0.0998(3) 0.6728(3) 0.59862(6)
O1_23 O 0.9471(7) 0.5535(5) 0.65819(11)
N1_23 N 0.9572(3) 0.4515(4) 0.64821(9)
H1_23 H 0.9423 0.3987 0.6507
N2_25 N 0.8732(2) 0.4088(2) 0.70917(5)
C1_25 C 0.8011(3) 0.3362(3) 0.70885(7)
H2_25 H 0.7743 0.3068 0.7203
C2_25 C 0.765(2) 0.304(2) 0.6901(5)
H3_25 H 0.7140 0.2517 0.6893
C3_25 C 0.8019(10) 0.3453(9) 0.6737(2)
H4_23 H 0.7779 0.3222 0.6616
C4_25 C 0.8772(5) 0.4241(5) 0.67516(12)
C5_25 C 0.9121(7) 0.4559(8) 0.6934(3)
H5_25 H 0.9618 0.5093 0.6947
C6_23 C 0.9292(6) 0.4822(6) 0.65953(13)
O1_24 O 0.4465(5) 0.3937(9) 0.65819(11)
N1_24 N 0.5485(4) 0.5058(5) 0.64821(9)
H1_24 H 0.6013 0.5437 0.6507
N2_26 N 0.5912(2) 0.4645(3) 0.70917(5)
C1_26 C 0.6638(3) 0.4650(4) 0.70885(7)
H2_26 H 0.6932 0.4676 0.7203
C2_26 C 0.696(2) 0.462(3) 0.6901(5)
H3_26 H 0.7483 0.4624 0.6893
C3_26 C 0.6547(9) 0.4567(13) 0.6737(2)
H4_24 H 0.6778 0.4558 0.6616
C4_26 C 0.5759(5) 0.4532(7) 0.67516(12)
C5_26 C 0.5441(8) 0.4563(11) 0.6934(3)
H5_26 H 0.4907 0.4526 0.6947
C6_24 C 0.5178(6) 0.4471(8) 0.65953(13)
C7_24 C 0.5154(4) 0.5243(6) 0.63197(9)
C8_24 C 0.5612(4) 0.6049(6) 0.62426(9)
H6_24 H 0.6123 0.6455 0.6302
C9_24 C 0.5326(3) 0.6264(5) 0.60798(8)
C10_24 C 0.4567(3) 0.5669(4) 0.59960(7)
H7_24 H 0.4373 0.5809 0.5883
C11_24 C 0.4098(3) 0.4881(4) 0.60759(7)
C12_24 C 0.4386(4) 0.4656(6) 0.62393(8)
H8_24 H 0.4063 0.4112 0.6295
C13_26 C 0.5820(3) 0.7111(4) 0.59937(7)
C14_26 C 0.3272(3) 0.4271(4) 0.59862(6)
O1_25 O 0.6063(9) 0.0529(7) 0.65819(11)
N1_25 N 0.4942(5) 0.0428(3) 0.64821(9)
H1_25 H 0.4563 0.0577 0.6507
N2_27 N 0.5355(3) 0.1268(2) 0.70917(5)
C1_27 C 0.5350(4) 0.1989(3) 0.70885(7)
H2_27 H 0.5324 0.2257 0.7203
C2_27 C 0.538(3) 0.235(2) 0.6901(5)
H3_27 H 0.5376 0.2860 0.6893
C3_27 C 0.5433(13) 0.1981(10) 0.6737(2)
H4_25 H 0.5442 0.2221 0.6616
C4_27 C 0.5468(7) 0.1228(5) 0.67516(12)
C5_27 C 0.5437(11) 0.0879(7) 0.6934(3)
H5_27 H 0.5474 0.0382 0.6947
C6_25 C 0.5529(8) 0.0708(6) 0.65953(13)
C7_25 C 0.4757(6) 0.9912(4) 0.63197(9)
C8_25 C 0.3951(6) 0.9564(4) 0.62426(9)
H6_25 H 0.3545 0.9669 0.6302
C9_25 C 0.3736(5) 0.9063(4) 0.60798(8)
C10_25 C 0.4331(4) 0.8899(3) 0.59960(7)
H7_25 H 0.4191 0.8565 0.5883
C11_25 C 0.5119(4) 0.9218(3) 0.60759(7)
C12_25 C 0.5344(6) 0.9731(4) 0.62393(8)
H8_25 H 0.5888 0.9952 0.6295
C13_27 C 0.2889(4) 0.8710(3) 0.59937(7)
C14_27 C 0.5729(4) 0.9002(3) 0.59862(6)
O1_26 O 0.2201(5) 0.2805(7) 0.17515(11)
N1_26 N 0.1181(4) 0.2906(3) 0.18513(9)
H1_26 H 0.0653 0.2757 0.1827
N2_28 N 0.0754(2) 0.2066(2) 0.12417(5)
C1_28 C 0.0028(3) 0.1345(3) 0.12449(7)
C3_28 C 0.0119(9) 0.1353(10) 0.1597(2)
C4_28 C 0.0907(5) 0.2106(5) 0.15818(12)
C5_28 C 0.1225(8) 0.2455(7) 0.1400(3)
H5_28 H 0.1759 0.2952 0.1387
C6_26 C 0.1488(6) 0.2626(6) 0.17381(13)
C7_26 C 0.1512(4) 0.3422(4) 0.20137(9)
C8_26 C 0.1054(4) 0.3770(4) 0.20908(9)
H6_26 H 0.0543 0.3665 0.2032
C9_26 C 0.1340(3) 0.4271(4) 0.22536(8)
C10_26 C 0.2099(3) 0.4435(3) 0.23374(7)
H7_26 H 0.2293 0.4769 0.2451
C11_26 C 0.2568(3) 0.4116(3) 0.22575(7)
C12_26 C 0.2280(4) 0.3603(4) 0.20941(8)
H8_26 H 0.2603 0.3382 0.2039
C13_28 C 0.0846(3) 0.4624(3) 0.23397(7)
C14_28 C 0.3394(3) 0.4332(3) 0.23472(6)
H2_28 H 0.9734 0.1077 0.1131
C2_28 C 0.970(2) 0.099(2) 0.1433(5)
H3_28 H 0.9183 0.0474 0.1441
H4_26 H 0.9888 0.1113 0.1718
O1_27 O 0.7195(7) 0.9397(9) 0.17515(11)
N1_27 N 0.7094(3) 0.8276(5) 0.18513(9)
H1_27 H 0.7243 0.7897 0.1827
N2_29 N 0.7934(2) 0.8689(3) 0.12417(5)
C1_29 C 0.8655(3) 0.8684(4) 0.12449(7)
H2_29 H 0.8923 0.8658 0.1131
C2_29 C 0.901(2) 0.872(3) 0.1433(5)
H3_29 H 0.9526 0.8710 0.1441
C3_29 C 0.8647(10) 0.8767(13) 0.1597(2)
H4_27 H 0.8887 0.8776 0.1718
C4_29 C 0.7894(5) 0.8802(7) 0.15818(12)
C5_29 C 0.7545(7) 0.8771(11) 0.1400(3)
H5_29 H 0.7048 0.8808 0.1387
C6_27 C 0.7374(6) 0.8863(8) 0.17381(13)
C7_27 C 0.6578(4) 0.8091(6) 0.20137(9)
C8_27 C 0.6230(4) 0.7285(6) 0.20908(9)
H6_27 H 0.6335 0.6879 0.2032
C9_27 C 0.5729(4) 0.7070(5) 0.22536(8)
C10_27 C 0.5565(3) 0.7665(4) 0.23374(7)
H7_27 H 0.5231 0.7525 0.2451
C11_27 C 0.5884(3) 0.8453(4) 0.22575(7)
C12_27 C 0.6397(4) 0.8678(6) 0.20941(8)
H8_27 H 0.6618 0.9222 0.2039
C13_29 C 0.5376(3) 0.6223(4) 0.23397(7)
C14_29 C 0.5668(3) 0.9063(4) 0.23472(6)
H2_30 H 0.1342 0.0266 0.1131
C2_30 C 0.128(3) 0.030(2) 0.1433(5)
H3_30 H 0.1290 0.0817 0.1441
H4_28 H 0.1224 0.0112 0.1718
O1_28 O 0.0603(9) 0.7799(5) 0.17515(11)
N1_28 N 0.1724(5) 0.8819(4) 0.18513(9)
H1_28 H 0.2103 0.9347 0.1827
N2_30 N 0.1311(3) 0.9246(2) 0.12417(5)
C1_30 C 0.1316(4) 0.9972(3) 0.12449(7)
C3_30 C 0.1233(13) 0.9881(9) 0.1597(2)
C4_30 C 0.1198(7) 0.9093(5) 0.15818(12)
C5_30 C 0.1229(11) 0.8775(8) 0.1400(3)
H5_30 H 0.1192 0.8241 0.1387
C6_28 C 0.1137(8) 0.8512(6) 0.17381(13)
C7_28 C 0.1909(6) 0.8488(4) 0.20137(9)
C8_28 C 0.2715(6) 0.8946(4) 0.20908(9)
H6_28 H 0.3121 0.9457 0.2032
C9_28 C 0.2930(5) 0.8660(3) 0.22536(8)
C10_28 C 0.2335(4) 0.7901(3) 0.23374(7)
H7_28 H 0.2475 0.7707 0.2451
C11_28 C 0.1547(4) 0.7432(3) 0.22575(7)
C12_28 C 0.1322(6) 0.7720(4) 0.20941(8)
H8_28 H 0.0778 0.7397 0.2039
C13_30 C 0.3777(4) 0.9154(3) 0.23397(7)
C14_30 C 0.0937(4) 0.6606(3) 0.23472(6)
O1_29 O 0.2805(7) 0.2201(5) 0.32485(11)
N1_29 N 0.2906(3) 0.1181(4) 0.31487(9)
H1_29 H 0.2757 0.0653 0.3173
N2_31 N 0.2066(2) 0.0754(2) 0.37583(5)
C1_31 C 0.1345(3) 0.0028(3) 0.37551(7)
C3_31 C 0.1353(10) 0.0119(9) 0.3403(2)
C4_31 C 0.2106(5) 0.0907(5) 0.34182(12)
C5_31 C 0.2455(7) 0.1225(8) 0.3600(3)
H5_31 H 0.2952 0.1759 0.3613
C6_29 C 0.2626(6) 0.1488(6) 0.32619(13)
C7_29 C 0.3422(4) 0.1512(4) 0.29863(9)
C8_29 C 0.3770(4) 0.1054(4) 0.29092(9)
H6_29 H 0.3665 0.0543 0.2968
C9_29 C 0.4271(4) 0.1340(3) 0.27464(8)
C10_29 C 0.4435(3) 0.2099(3) 0.26626(7)
H7_29 H 0.4769 0.2293 0.2549
C11_29 C 0.4116(3) 0.2568(3) 0.27425(7)
C12_29 C 0.3603(4) 0.2280(4) 0.29059(8)
H8_29 H 0.3382 0.2603 0.2961
C13_31 C 0.4624(3) 0.0846(3) 0.26603(7)
C14_31 C 0.4332(3) 0.3394(3) 0.26528(6)
H2_31 H 0.1077 0.9734 0.3869
C2_31 C 0.099(2) 0.970(2) 0.3567(5)
H3_31 H 0.0474 0.9183 0.3559
H4_29 H 0.1113 0.9888 0.3282
H2_32 H 0.0266 0.1342 0.3869
C2_32 C 0.030(2) 0.128(3) 0.3567(5)
H3_32 H 0.0817 0.1290 0.3559
H4_30 H 0.0112 0.1224 0.3282
O1_30 O 0.7799(5) 0.0603(9) 0.32485(11)
N1_30 N 0.8819(4) 0.1724(5) 0.31487(9)
H1_30 H 0.9347 0.2103 0.3173
N2_32 N 0.9246(2) 0.1311(3) 0.37583(5)
C1_32 C 0.9972(3) 0.1316(4) 0.37551(7)
C3_32 C 0.9881(9) 0.1233(13) 0.3403(2)
C4_32 C 0.9093(5) 0.1198(7) 0.34182(12)
C5_32 C 0.8775(8) 0.1229(11) 0.3600(3)
H5_32 H 0.8241 0.1192 0.3613
C6_30 C 0.8512(6) 0.1137(8) 0.32619(13)
C7_30 C 0.8488(4) 0.1909(6) 0.29863(9)
C8_30 C 0.8946(4) 0.2715(6) 0.29092(9)
H6_30 H 0.9457 0.3121 0.2968
C9_30 C 0.8660(3) 0.2930(5) 0.27464(8)
C10_30 C 0.7901(3) 0.2335(4) 0.26626(7)
H7_30 H 0.7707 0.2475 0.2549
C11_30 C 0.7432(3) 0.1547(4) 0.27425(7)
C12_30 C 0.7720(4) 0.1322(6) 0.29059(8)
H8_30 H 0.7397 0.0778 0.2961
C13_32 C 0.9154(3) 0.3777(4) 0.26603(7)
C14_32 C 0.6606(3) 0.0937(4) 0.26528(6)
O1_31 O 0.9397(9) 0.7195(7) 0.32485(11)
N1_31 N 0.8276(5) 0.7094(3) 0.31487(9)
H1_31 H 0.7897 0.7243 0.3173
N2_33 N 0.8689(3) 0.7934(2) 0.37583(5)
C1_33 C 0.8684(4) 0.8655(3) 0.37551(7)
H2_33 H 0.8658 0.8923 0.3869
C2_33 C 0.872(3) 0.901(2) 0.3567(5)
H3_33 H 0.8710 0.9526 0.3559
C3_33 C 0.8767(13) 0.8647(10) 0.3403(2)
H4_31 H 0.8776 0.8887 0.3282
C4_33 C 0.8802(7) 0.7894(5) 0.34182(12)
C5_33 C 0.8771(11) 0.7545(7) 0.3600(3)
H5_33 H 0.8808 0.7048 0.3613
C6_31 C 0.8863(8) 0.7374(6) 0.32619(13)
C7_31 C 0.8091(6) 0.6578(4) 0.29863(9)
C8_31 C 0.7285(6) 0.6230(4) 0.29092(9)
H6_31 H 0.6879 0.6335 0.2968
C9_31 C 0.7070(5) 0.5729(4) 0.27464(8)
C10_31 C 0.7665(4) 0.5565(3) 0.26626(7)
H7_31 H 0.7525 0.5231 0.2549
C11_31 C 0.8453(4) 0.5884(3) 0.27425(7)
C12_31 C 0.8678(6) 0.6397(4) 0.29059(8)
H8_31 H 0.9222 0.6618 0.2961
C13_33 C 0.6223(4) 0.5376(3) 0.26603(7)
C14_33 C 0.9063(4) 0.5668(3) 0.26528(6)
C7_32 C 0.4846(4) 0.0088(4) 0.86803(9)
C8_32 C 0.4388(4) 0.0436(4) 0.87574(9)
H6_32 H 0.3877 0.0331 0.8698
C9_32 C 0.4674(3) 0.0937(4) 0.89202(8)
C10_32 C 0.5433(3) 0.1101(3) 0.90040(7)
H7_32 H 0.5627 0.1435 0.9117
C11_32 C 0.5902(3) 0.0782(3) 0.89241(7)
C12_32 C 0.5614(4) 0.0269(4) 0.87607(8)
H8_32 H 0.5937 0.0048 0.8705
C13_34 C 0.4180(3) 0.1290(3) 0.90063(7)
C14_34 C 0.6728(3) 0.0998(3) 0.90138(6)
O1_32 O 0.5535(5) 0.9471(7) 0.84181(11)
N1_32 N 0.4515(4) 0.9572(3) 0.85179(9)
H1_32 H 0.3987 0.9423 0.8493
N2_34 N 0.4088(2) 0.8732(2) 0.79083(5)
C1_34 C 0.3362(3) 0.8011(3) 0.79115(7)
H2_34 H 0.3068 0.7743 0.7797
C2_34 C 0.304(2) 0.765(2) 0.8099(5)
H3_34 H 0.2517 0.7140 0.8107
C3_34 C 0.3453(9) 0.8019(10) 0.8263(2)
H4_32 H 0.3222 0.7779 0.8384
C4_34 C 0.4241(5) 0.8772(5) 0.82484(12)
C5_34 C 0.4559(8) 0.9121(7) 0.8066(3)
H5_34 H 0.5093 0.9618 0.8053
C6_32 C 0.4822(6) 0.9292(6) 0.84047(13)
O1_33 O 0.0529(7) 0.6063(9) 0.84181(11)
N1_33 N 0.0428(3) 0.4942(5) 0.85179(9)
H1_33 H 0.0577 0.4563 0.8493
N2_35 N 0.1268(2) 0.5355(3) 0.79083(5)
C1_35 C 0.1989(3) 0.5350(4) 0.79115(7)
H2_35 H 0.2257 0.5324 0.7797
C2_35 C 0.235(2) 0.538(3) 0.8099(5)
H3_35 H 0.2860 0.5376 0.8107
C3_35 C 0.1981(10) 0.5433(13) 0.8263(2)
H4_33 H 0.2221 0.5442 0.8384
C4_35 C 0.1228(5) 0.5468(7) 0.82484(12)
C5_35 C 0.0879(7) 0.5437(11) 0.8066(3)
H5_35 H 0.0382 0.5474 0.8053
C6_33 C 0.0708(6) 0.5529(8) 0.84047(13)
C7_33 C 0.9912(4) 0.4757(6) 0.86803(9)
C8_33 C 0.9564(4) 0.3951(6) 0.87574(9)
H6_33 H 0.9669 0.3545 0.8698
C9_33 C 0.9063(4) 0.3736(5) 0.89202(8)
C10_33 C 0.8899(3) 0.4331(4) 0.90040(7)
H7_33 H 0.8565 0.4191 0.9117
C11_33 C 0.9218(3) 0.5119(4) 0.89241(7)
C12_33 C 0.9731(4) 0.5344(6) 0.87607(8)
H8_33 H 0.9952 0.5888 0.8705
C13_35 C 0.8710(3) 0.2889(4) 0.90063(7)
C14_35 C 0.9002(3) 0.5729(4) 0.90138(6)
O1_34 O 0.3937(9) 0.4465(5) 0.84181(11)
N1_34 N 0.5058(5) 0.5485(4) 0.85179(9)
H1_34 H 0.5437 0.6013 0.8493
N2_36 N 0.4645(3) 0.5912(2) 0.79083(5)
C1_36 C 0.4650(4) 0.6638(3) 0.79115(7)
H2_36 H 0.4676 0.6932 0.7797
C2_36 C 0.462(3) 0.696(2) 0.8099(5)
H3_36 H 0.4624 0.7483 0.8107
C3_36 C 0.4567(13) 0.6547(9) 0.8263(2)
H4_34 H 0.4558 0.6778 0.8384
C4_36 C 0.4532(7) 0.5759(5) 0.82484(12)
C5_36 C 0.4563(11) 0.5441(8) 0.8066(3)
H5_36 H 0.4526 0.4907 0.8053
C6_34 C 0.4471(8) 0.5178(6) 0.84047(13)
C7_34 C 0.5243(6) 0.5154(4) 0.86803(9)
C8_34 C 0.6049(6) 0.5612(4) 0.87574(9)
H6_34 H 0.6455 0.6123 0.8698
C9_34 C 0.6264(5) 0.5326(3) 0.89202(8)
C10_34 C 0.5669(4) 0.4567(3) 0.90040(7)
H7_34 H 0.5809 0.4373 0.9117
C11_34 C 0.4881(4) 0.4098(3) 0.89241(7)
C12_34 C 0.4656(6) 0.4386(4) 0.87607(8)
H8_34 H 0.4112 0.4063 0.8705
C13_36 C 0.7111(4) 0.5820(3) 0.90063(7)
C14_36 C 0.4271(4) 0.3272(3) 0.90138(6)
O1_35 O 0.8868(5) 0.2730(9) 0.00848(11)
N1_35 N 0.7848(4) 0.1609(5) 0.01846(9)
H1_35 H 0.7320 0.1230 0.0160
H4_35 H 0.6555 0.2109 0.0051
C6_35 C 0.8155(6) 0.2196(8) 0.00714(13)
C7_35 C 0.8179(4) 0.1424(6) 0.03470(9)
C8_35 C 0.7721(4) 0.0618(6) 0.04241(9)
H6_35 H 0.7210 0.0212 0.0365
C9_35 C 0.8007(3) 0.0403(5) 0.05869(8)
C10_35 C 0.8766(3) 0.0998(4) 0.06707(7)
H7_35 H 0.8960 0.0858 0.0784
C11_35 C 0.9235(3) 0.1786(4) 0.05908(7)
C12_35 C 0.8947(4) 0.2011(6) 0.04274(8)
H8_35 H 0.9270 0.2555 0.0372
O1_36 O 0.1132(5) 0.7270(9) 0.99152(11)
N1_36 N 0.2152(4) 0.8391(5) 0.98154(9)
H1_36 H 0.2680 0.8770 0.9840
H4_36 H 0.3445 0.7891 0.9949
C6_36 C 0.1845(6) 0.7804(8) 0.99286(13)
C7_36 C 0.1821(4) 0.8576(6) 0.96530(9)
C8_36 C 0.2279(4) 0.9382(6) 0.95759(9)
H6_36 H 0.2790 0.9788 0.9635
C9_36 C 0.1993(3) 0.9597(5) 0.94131(8)
C10_36 C 0.1234(3) 0.9002(4) 0.93293(7)
H7_36 H 0.1040 0.9142 0.9216
C11_36 C 0.0765(3) 0.8214(4) 0.94092(7)
C12_36 C 0.1053(4) 0.7989(6) 0.95726(8)
H8_36 H 0.0730 0.7445 0.9628
loop_
_geom_bond_atom_site_label_1
_geom_bond_atom_site_label_2
_geom_bond_site_symmetry_1
_geom_bond_site_symmetry_2
O1 C6 1_555 1_555
O2 C13 1_555 1_555
O3 C13 1_555 1_555
N1 H1 1_555 1_555
C6 N1 1_555 1_555
C7 N1 1_555 1_555
C8 C7 1_555 1_555
H6 C8 1_555 1_555
C9 C8 1_555 1_555
C10 C9 1_555 1_555
H7 C10 1_555 1_555
C11 C10 1_555 1_555
C12 C7 1_555 1_555
H8 C12 1_555 1_555
C13 C9 1_555 1_555
Cu4 O2 1_555 1_555
Cu5 O3 1_555 1_555
C11 C12 1_555 1_555
Cu4 Cu5 1_555 1_555
Cu1 N2 1_555 1_555
N2 C1 1_555 1_555
C1 H2 1_555 1_555
C2 C1 1_555 1_555
H3 C2 1_555 1_555
C3 C2 1_555 1_555
C4 C3 1_555 1_555
C5 N2 1_555 1_555
H5 C5 1_555 1_555
Cu2 Cu1 1_555 1_555
O6 Cu1 1_555 1_555
O7 Cu1 1_555 1_555
O8 Cu1 1_555 1_555
O9 Cu1 1_555 1_555
C4 C5 1_555 1_555
O4 C14 1_555 1_555
O5 C14 1_555 1_555
Cu3 O4 1_555 1_555
Cu6 O5 1_555 1_555
Cu3 Cu6 1_555 1_555
O4_2 C14_2 1_555 1_555
O5_2 C14_2 1_555 1_555
Cu4 O4_2 1_555 1_555
Cu5 O5_2 1_555 1_555
Cu1_2 N2_2 1_555 1_555
N2_2 C1_2 1_555 1_555
C1_2 H2_2 1_555 1_555
C2_2 C1_2 1_555 1_555
H3_2 C2_2 1_555 1_555
C3_2 C2_2 1_555 1_555
C4_2 C3_2 1_555 1_555
C5_2 N2_2 1_555 1_555
H5_2 C5_2 1_555 1_555
Cu2_2 Cu1_2 1_555 1_555
O6_2 Cu1_2 1_555 1_555
O7_2 Cu1_2 1_555 1_555
O8_2 Cu1_2 1_555 1_555
O9_2 Cu1_2 1_555 1_555
C4_2 C5_2 1_555 1_555
O2_2 C13_2 1_555 1_555
O3_2 C13_2 1_555 1_555
Cu4_2 O2_2 1_555 1_555
Cu5_2 O3_2 1_555 1_555
Cu4_2 Cu5_2 1_555 1_555
O2_3 C13_3 1_555 1_555
O3_3 C13_3 1_555 1_555
Cu3 O2_3 1_555 1_555
Cu6 O3_3 1_555 1_555
O1_2 C6_2 1_555 1_555
O4_3 C14_3 1_555 1_555
O5_3 C14_3 1_555 1_555
N1_2 H1_2 1_555 1_555
C6_2 N1_2 1_555 1_555
C7_2 N1_2 1_555 1_555
C8_2 C7_2 1_555 1_555
H6_2 C8_2 1_555 1_555
C9_2 C8_2 1_555 1_555
C10_2 C9_2 1_555 1_555
H7_2 C10_2 1_555 1_555
C11_2 C10_2 1_555 1_555
C12_2 C7_2 1_555 1_555
H8_2 C12_2 1_555 1_555
C14_3 C11_2 1_555 1_555
Cu4_2 O4_3 1_555 1_555
Cu5_2 O5_3 1_555 1_555
C11_2 C12_2 1_555 1_555
Cu1_3 N2_3 1_555 1_555
N2_3 C1_3 1_555 1_555
C1_3 H2_3 1_555 1_555
C2_3 C1_3 1_555 1_555
H3_3 C2_3 1_555 1_555
C3_3 C2_3 1_555 1_555
C4_3 C3_3 1_555 1_555
C5_3 N2_3 1_555 1_555
H5_3 C5_3 1_555 1_555
Cu2_3 Cu1_3 1_555 1_555
O6_3 Cu1_3 1_555 1_555
O7_3 Cu1_3 1_555 1_555
O8_3 Cu1_3 1_555 1_555
O9_3 Cu1_3 1_555 1_555
C4_3 C5_3 1_555 1_555
Cu1_4 N2_4 1_555 1_555
O1_3 C6_3 1_555 1_555
O2_4 C13_4 1_555 1_555
O3_4 C13_4 1_555 1_555
N1_3 H1_3 1_555 1_555
N2_4 C1_4 1_555 1_555
C1_4 H2_4 1_555 1_555
C2_4 C1_4 1_555 1_555
H3_4 C2_4 1_555 1_555
C3_4 C2_4 1_555 1_555
H4_3 C3_4 1_555 1_555
C4_4 C3_4 1_555 1_555
C5_4 N2_4 1_555 1_555
H5_4 C5_4 1_555 1_555
C6_3 N1_3 1_555 1_555
C7_3 N1_3 1_555 1_555
C8_3 C7_3 1_555 1_555
H6_3 C8_3 1_555 1_555
C9_3 C8_3 1_555 1_555
C10_3 C9_3 1_555 1_555
H7_3 C10_3 1_555 1_555
C11_3 C10_3 1_555 1_555
C12_3 C7_3 1_555 1_555
H8_3 C12_3 1_555 1_555
C13_4 C9_3 1_555 1_555
Cu2_4 Cu1_4 1_555 1_555
Cu4_3 O2_4 1_555 1_555
Cu5_3 O3_4 1_555 1_555
O6_4 Cu1_4 1_555 1_555
O7_4 Cu1_4 1_555 1_555
O8_4 Cu1_4 1_555 1_555
O9_4 Cu1_4 1_555 1_555
C4_4 C5_4 1_555 1_555
C4_4 C6_3 1_555 1_555
C11_3 C12_3 1_555 1_555
Cu4_3 Cu5_3 1_555 1_555
O4_4 C14_4 1_555 1_555
O5_4 C14_4 1_555 1_555
Cu3_2 O4_4 1_555 1_555
Cu6_2 O5_4 1_555 1_555
Cu3_2 Cu6_2 1_555 1_555
O2_5 C13_5 1_555 1_555
O3_5 C13_5 1_555 1_555
Cu3_2 O2_5 1_555 1_555
Cu6_2 O3_5 1_555 1_555
Cu1_5 N2_5 1_555 1_555
O1_4 C6_4 1_555 1_555
O4_5 C14_5 1_555 1_555
O5_5 C14_5 1_555 1_555
N1_4 H1_4 1_555 1_555
N2_5 C1_5 1_555 1_555
C1_5 H2_5 1_555 1_555
C2_5 C1_5 1_555 1_555
H3_5 C2_5 1_555 1_555
C3_5 C2_5 1_555 1_555
H4_4 C3_5 1_555 1_555
C4_5 C3_5 1_555 1_555
C5_5 N2_5 1_555 1_555
H5_5 C5_5 1_555 1_555
C6_4 N1_4 1_555 1_555
C7_4 N1_4 1_555 1_555
C8_4 C7_4 1_555 1_555
H6_4 C8_4 1_555 1_555
C9_4 C8_4 1_555 1_555
C10_4 C9_4 1_555 1_555
H7_4 C10_4 1_555 1_555
C11_4 C10_4 1_555 1_555
C12_4 C7_4 1_555 1_555
H8_4 C12_4 1_555 1_555
C14_5 C11_4 1_555 1_555
Cu2_5 Cu1_5 1_555 1_555
Cu3_3 O4_5 1_555 1_555
Cu6_3 O5_5 1_555 1_555
O6_5 Cu1_5 1_555 1_555
O7_5 Cu1_5 1_555 1_555
O8_5 Cu1_5 1_555 1_555
O9_5 Cu1_5 1_555 1_555
C4_5 C5_5 1_555 1_555
C4_5 C6_4 1_555 1_555
C11_4 C12_4 1_555 1_555
Cu3_3 Cu6_3 1_555 1_555
O4_6 C14_6 1_555 1_555
O5_6 C14_6 1_555 1_555
Cu4_3 O4_6 1_555 1_555
Cu5_3 O5_6 1_555 1_555
Cu1_6 N2_6 1_555 1_555
O1_5 C6_5 1_555 1_555
N1_5 H1_5 1_555 1_555
N2_6 C1_6 1_555 1_555
C1_6 H2_6 1_555 1_555
C2_6 C1_6 1_555 1_555
H3_6 C2_6 1_555 1_555
C3_6 C2_6 1_555 1_555
H4_5 C3_6 1_555 1_555
C4_6 C3_6 1_555 1_555
C5_6 N2_6 1_555 1_555
H5_6 C5_6 1_555 1_555
C6_5 N1_5 1_555 1_555
C7_5 N1_5 1_555 1_555
C8_5 C7_5 1_555 1_555
H6_5 C8_5 1_555 1_555
C9_5 C8_5 1_555 1_555
C10_5 C9_5 1_555 1_555
H7_5 C10_5 1_555 1_555
C11_5 C10_5 1_555 1_555
C12_5 C7_5 1_555 1_555
H8_5 C12_5 1_555 1_555
Cu2_6 Cu1_6 1_555 1_555
O6_6 Cu1_6 1_555 1_555
O7_6 Cu1_6 1_555 1_555
O8_6 Cu1_6 1_555 1_555
O9_6 Cu1_6 1_555 1_555
C4_6 C5_6 1_555 1_555
C4_6 C6_5 1_555 1_555
C11_5 C12_5 1_555 1_555
O2_6 C13_6 1_555 1_555
O3_6 C13_6 1_555 1_555
Cu3_3 O2_6 1_555 1_555
Cu6_3 O3_6 1_555 1_555
Cu1_7 N2_7 1_555 1_555
O1_6 C6_6 1_555 1_555
N1_6 H1_6 1_555 1_555
N2_7 C1_7 1_555 1_555
C1_7 H2_7 1_555 1_555
C2_7 C1_7 1_555 1_555
H3_7 C2_7 1_555 1_555
C3_7 C2_7 1_555 1_555
H4_6 C3_7 1_555 1_555
C4_7 C3_7 1_555 1_555
C5_7 N2_7 1_555 1_555
H5_7 C5_7 1_555 1_555
C6_6 N1_6 1_555 1_555
O7_7 Cu1_7 1_555 1_555
O9_7 Cu1_7 1_555 1_555
C4_7 C5_7 1_555 1_555
C4_7 C6_6 1_555 1_555
O2_7 C13_7 1_555 1_555
O3_7 C13_7 1_555 1_555
O4_7 C14_7 1_555 1_555
O5_7 C14_7 1_555 1_555
C8_6 C7_6 1_555 1_555
H6_6 C8_6 1_555 1_555
C9_6 C8_6 1_555 1_555
C10_6 C9_6 1_555 1_555
H7_6 C10_6 1_555 1_555
C11_6 C10_6 1_555 1_555
C12_6 C7_6 1_555 1_555
H8_6 C12_6 1_555 1_555
C13_7 C9_6 1_555 1_555
C14_7 C11_6 1_555 1_555
Cu6_2 O4_7 1_555 1_555
Cu6_3 O2_7 1_555 1_555
Cu3_3 O3_7 1_555 1_555
Cu3_2 O5_7 1_555 1_555
C11_6 C12_6 1_555 1_555
Cu1_8 N2_8 1_555 1_555
O1_7 C6_7 1_555 1_555
O2_8 C13_8 1_555 1_555
O3_8 C13_8 1_555 1_555
O4_8 C14_8 1_555 1_555
O5_8 C14_8 1_555 1_555
N1_7 H1_7 1_555 1_555
N2_8 C1_8 1_555 1_555
C1_8 H2_8 1_555 1_555
C2_8 C1_8 1_555 1_555
H3_8 C2_8 1_555 1_555
C3_8 C2_8 1_555 1_555
H4_7 C3_8 1_555 1_555
C4_8 C3_8 1_555 1_555
C5_8 N2_8 1_555 1_555
H5_8 C5_8 1_555 1_555
C6_7 N1_7 1_555 1_555
C7_7 N1_7 1_555 1_555
C8_7 C7_7 1_555 1_555
H6_7 C8_7 1_555 1_555
C9_7 C8_7 1_555 1_555
C10_7 C9_7 1_555 1_555
H7_7 C10_7 1_555 1_555
C11_7 C10_7 1_555 1_555
C12_7 C7_7 1_555 1_555
H8_7 C12_7 1_555 1_555
C13_8 C9_7 1_555 1_555
C14_8 C11_7 1_555 1_555
Cu2_8 Cu1_8 1_555 1_555
Cu6_3 O4_8 1_555 1_555
Cu5_3 O2_8 1_555 1_555
Cu4_3 O3_8 1_555 1_555
Cu3_3 O5_8 1_555 1_555
O6_8 Cu1_8 1_555 1_555
O7_8 Cu1_8 1_555 1_555
O8_8 Cu1_8 1_555 1_555
O9_8 Cu1_8 1_555 1_555
C4_8 C5_8 1_555 1_555
C4_8 C6_7 1_555 1_555
C11_7 C12_7 1_555 1_555
O2_9 C13_9 1_555 1_555
O3_9 C13_9 1_555 1_555
O4_9 C14_9 1_555 1_555
O5_9 C14_9 1_555 1_555
C8_8 C7_8 1_555 1_555
H6_8 C8_8 1_555 1_555
C9_8 C8_8 1_555 1_555
C10_8 C9_8 1_555 1_555
H7_8 C10_8 1_555 1_555
C11_8 C10_8 1_555 1_555
C12_8 C7_8 1_555 1_555
H8_8 C12_8 1_555 1_555
C13_9 C9_8 1_555 1_555
C14_9 C11_8 1_555 1_555
Cu5_3 O4_9 1_555 1_555
Cu6_2 O2_9 1_555 1_555
Cu3_2 O3_9 1_555 1_555
Cu4_3 O5_9 1_555 1_555
C11_8 C12_8 1_555 1_555
Cu1_9 N2_9 1_555 1_555
O1_8 C6_8 1_555 1_555
N1_8 H1_8 1_555 1_555
N2_9 C1_9 1_555 1_555
C1_9 H2_9 1_555 1_555
C2_9 C1_9 1_555 1_555
H3_9 C2_9 1_555 1_555
C3_9 C2_9 1_555 1_555
H4_8 C3_9 1_555 1_555
C4_9 C3_9 1_555 1_555
C5_9 N2_9 1_555 1_555
H5_9 C5_9 1_555 1_555
C6_8 N1_8 1_555 1_555
O7_9 Cu1_9 1_555 1_555
O9_9 Cu1_9 1_555 1_555
C4_9 C5_9 1_555 1_555
C4_9 C6_8 1_555 1_555
H3_10 C2_10 1_555 1_555
Cu2_3 N2_10 1_555 1_555
O1_9 C6_9 1_555 1_555
O2_10 C13_10 1_555 1_555
O3_10 C13_10 1_555 1_555
O4_10 C14_10 1_555 1_555
O5_10 C14_10 1_555 1_555
N1_9 H1_9 1_555 1_555
N2_10 C1_10 1_555 1_555
C4_10 C3_10 1_555 1_555
C5_10 N2_10 1_555 1_555
H5_10 C5_10 1_555 1_555
C6_9 N1_9 1_555 1_555
C7_9 N1_9 1_555 1_555
C8_9 C7_9 1_555 1_555
H6_9 C8_9 1_555 1_555
C9_9 C8_9 1_555 1_555
C10_9 C9_9 1_555 1_555
H7_9 C10_9 1_555 1_555
C11_9 C10_9 1_555 1_555
C12_9 C7_9 1_555 1_555
H8_9 C12_9 1_555 1_555
C13_10 C9_9 1_555 1_555
C14_10 C11_9 1_555 1_555
Cu3_4 O4_10 1_555 1_555
Cu5_4 O3_10 1_555 1_555
Cu6_4 O5_10 1_555 1_555
O6_10 Cu2_3 1_555 1_555
O7_10 Cu2_3 1_555 1_555
O8_10 Cu2_3 1_555 1_555
O9_10 Cu2_3 1_555 1_555
C4_10 C5_10 1_555 1_555
C4_10 C6_9 1_555 1_555
C11_9 C12_9 1_555 1_555
Cu3_4 Cu6_4 1_555 1_555
Cu2 N2_11 1_555 1_555
O1_10 C6_10 1_555 1_555
O2_11 C13_11 1_555 1_555
O3_11 C13_11 1_555 1_555
O4_11 C14_11 1_555 1_555
O5_11 C14_11 1_555 1_555
N1_10 H1_10 1_555 1_555
N2_11 C1_11 1_555 1_555
C1_11 H2_11 1_555 1_555
C2_11 C1_11 1_555 1_555
H3_11 C2_11 1_555 1_555
C3_11 C2_11 1_555 1_555
H4_10 C3_11 1_555 1_555
C4_11 C3_11 1_555 1_555
C5_11 N2_11 1_555 1_555
H5_11 C5_11 1_555 1_555
C6_10 N1_10 1_555 1_555
C7_10 N1_10 1_555 1_555
C8_10 C7_10 1_555 1_555
H6_10 C8_10 1_555 1_555
C9_10 C8_10 1_555 1_555
C10_10 C9_10 1_555 1_555
H7_10 C10_10 1_555 1_555
C11_10 C10_10 1_555 1_555
C12_10 C7_10 1_555 1_555
H8_10 C12_10 1_555 1_555
C13_11 C9_10 1_555 1_555
C14_11 C11_10 1_555 1_555
Cu3_4 O2_11 1_555 1_555
Cu6_4 O3_11 1_555 1_555
Cu6_5 O5_11 1_555 1_555
O6_11 Cu2 1_555 1_555
O7_11 Cu2 1_555 1_555
O8_11 Cu2 1_555 1_555
O9_11 Cu2 1_555 1_555
C4_11 C5_11 1_555 1_555
C4_11 C6_10 1_555 1_555
C11_10 C12_10 1_555 1_555
Cu2_2 N2_12 1_555 1_555
O1_11 C6_11 1_555 1_555
O2_12 C13_12 1_555 1_555
O3_12 C13_12 1_555 1_555
O4_12 C14_12 1_555 1_555
O5_12 C14_12 1_555 1_555
N1_11 H1_11 1_555 1_555
N2_12 C1_12 1_555 1_555
C4_12 C3_12 1_555 1_555
C5_12 N2_12 1_555 1_555
H5_12 C5_12 1_555 1_555
C6_11 N1_11 1_555 1_555
C7_11 N1_11 1_555 1_555
C8_11 C7_11 1_555 1_555
H6_11 C8_11 1_555 1_555
C9_11 C8_11 1_555 1_555
C10_11 C9_11 1_555 1_555
H7_11 C10_11 1_555 1_555
C11_11 C10_11 1_555 1_555
C12_11 C7_11 1_555 1_555
H8_11 C12_11 1_555 1_555
C13_12 C9_11 1_555 1_555
C14_12 C11_11 1_555 1_555
Cu6_5 O3_12 1_555 1_555
Cu5_4 O5_12 1_555 1_555
O6_12 Cu2_2 1_555 1_555
O7_12 Cu2_2 1_555 1_555
O8_12 Cu2_2 1_555 1_555
O9_12 Cu2_2 1_555 1_555
C4_12 C5_12 1_555 1_555
C4_12 C6_11 1_555 1_555
C11_11 C12_11 1_555 1_555
H3_12 C2_12 1_555 1_555
H3_13 C2_13 1_555 1_555
Cu2_5 N2_13 1_555 1_555
O1_12 C6_12 1_555 1_555
O2_13 C13_13 1_555 1_555
O3_13 C13_13 1_555 1_555
O4_13 C14_13 1_555 1_555
O5_13 C14_13 1_555 1_555
N1_12 H1_12 1_555 1_555
N2_13 C1_13 1_555 1_555
C4_13 C3_13 1_555 1_555
C5_13 N2_13 1_555 1_555
H5_13 C5_13 1_555 1_555
C6_12 N1_12 1_555 1_555
C7_12 N1_12 1_555 1_555
C8_12 C7_12 1_555 1_555
H6_12 C8_12 1_555 1_555
C9_12 C8_12 1_555 1_555
C10_12 C9_12 1_555 1_555
H7_12 C10_12 1_555 1_555
C11_12 C10_12 1_555 1_555
C12_12 C7_12 1_555 1_555
H8_12 C12_12 1_555 1_555
C13_13 C9_12 1_555 1_555
C14_13 C11_12 1_555 1_555
Cu6_4 O4_13 1_555 1_555
Cu3_5 O3_13 1_555 1_555
Cu3_4 O5_13 1_555 1_555
O6_13 Cu2_5 1_555 1_555
O7_13 Cu2_5 1_555 1_555
O8_13 Cu2_5 1_555 1_555
O9_13 Cu2_5 1_555 1_555
C4_13 C5_13 1_555 1_555
C4_13 C6_12 1_555 1_555
C11_12 C12_12 1_555 1_555
Cu2_6 N2_14 1_555 1_555
O1_13 C6_13 1_555 1_555
O2_14 C13_14 1_555 1_555
O3_14 C13_14 1_555 1_555
O4_14 C14_14 1_555 1_555
O5_14 C14_14 1_555 1_555
N1_13 H1_13 1_555 1_555
N2_14 C1_14 1_555 1_555
C4_14 C3_14 1_555 1_555
C5_14 N2_14 1_555 1_555
H5_14 C5_14 1_555 1_555
C6_13 N1_13 1_555 1_555
C7_13 N1_13 1_555 1_555
C8_13 C7_13 1_555 1_555
H6_13 C8_13 1_555 1_555
C9_13 C8_13 1_555 1_555
C10_13 C9_13 1_555 1_555
H7_13 C10_13 1_555 1_555
C11_13 C10_13 1_555 1_555
C12_13 C7_13 1_555 1_555
H8_13 C12_13 1_555 1_555
C13_14 C9_13 1_555 1_555
C14_14 C11_13 1_555 1_555
Cu4_4 O3_14 1_555 1_555
Cu3_5 O5_14 1_555 1_555
O6_14 Cu2_6 1_555 1_555
O7_14 Cu2_6 1_555 1_555
O8_14 Cu2_6 1_555 1_555
O9_14 Cu2_6 1_555 1_555
C4_14 C5_14 1_555 1_555
C4_14 C6_13 1_555 1_555
C11_13 C12_13 1_555 1_555
H3_14 C2_14 1_555 1_555
Cu2_4 N2_15 1_555 1_555
O1_14 C6_14 1_555 1_555
O2_15 C13_15 1_555 1_555
O3_15 C13_15 1_555 1_555
O4_15 C14_15 1_555 1_555
O5_15 C14_15 1_555 1_555
N1_14 H1_14 1_555 1_555
N2_15 C1_15 1_555 1_555
C1_15 H2_15 1_555 1_555
C2_15 C1_15 1_555 1_555
H3_15 C2_15 1_555 1_555
C3_15 C2_15 1_555 1_555
H4_14 C3_15 1_555 1_555
C4_15 C3_15 1_555 1_555
C5_15 N2_15 1_555 1_555
H5_15 C5_15 1_555 1_555
C6_14 N1_14 1_555 1_555
C7_14 N1_14 1_555 1_555
C8_14 C7_14 1_555 1_555
H6_14 C8_14 1_555 1_555
C9_14 C8_14 1_555 1_555
C10_14 C9_14 1_555 1_555
H7_14 C10_14 1_555 1_555
C11_14 C10_14 1_555 1_555
C12_14 C7_14 1_555 1_555
H8_14 C12_14 1_555 1_555
C13_15 C9_14 1_555 1_555
C14_15 C11_14 1_555 1_555
Cu6_4 O2_15 1_555 1_555
Cu3_4 O3_15 1_555 1_555
Cu4_4 O5_15 1_555 1_555
O6_15 Cu2_4 1_555 1_555
O7_15 Cu2_4 1_555 1_555
O8_15 Cu2_4 1_555 1_555
O9_15 Cu2_4 1_555 1_555
C4_15 C5_15 1_555 1_555
C4_15 C6_14 1_555 1_555
C11_14 C12_14 1_555 1_555
Cu2_9 N2_16 1_555 1_555
O1_15 C6_15 1_555 1_555
N1_15 H1_15 1_555 1_555
N2_16 C1_16 1_555 1_555
C1_16 H2_16 1_555 1_555
C2_16 C1_16 1_555 1_555
H3_16 C2_16 1_555 1_555
C3_16 C2_16 1_555 1_555
H4_15 C3_16 1_555 1_555
C4_16 C3_16 1_555 1_555
C5_16 N2_16 1_555 1_555
H5_16 C5_16 1_555 1_555
C6_15 N1_15 1_555 1_555
O7_16 Cu2_9 1_555 1_555
O9_16 Cu2_9 1_555 1_555
C4_16 C5_16 1_555 1_555
C4_16 C6_15 1_555 1_555
O2_16 C13_16 1_555 1_555
O3_16 C13_16 1_555 1_555
O4_16 C14_16 1_555 1_555
O5_16 C14_16 1_555 1_555
C8_15 C7_15 1_555 1_555
H6_15 C8_15 1_555 1_555
C9_15 C8_15 1_555 1_555
C10_15 C9_15 1_555 1_555
H7_15 C10_15 1_555 1_555
C11_15 C10_15 1_555 1_555
C12_15 C7_15 1_555 1_555
H8_15 C12_15 1_555 1_555
C13_16 C9_15 1_555 1_555
C14_16 C11_15 1_555 1_555
Cu6 O4_16 1_555 1_555
Cu5_2 O2_16 1_555 1_555
Cu4_2 O3_16 1_555 1_555
Cu3 O5_16 1_555 1_555
C11_15 C12_15 1_555 1_555
O2_17 C13_17 1_555 1_555
O3_17 C13_17 1_555 1_555
O4_17 C14_17 1_555 1_555
O5_17 C14_17 1_555 1_555
C8_16 C7_16 1_555 1_555
H6_16 C8_16 1_555 1_555
C9_16 C8_16 1_555 1_555
C10_16 C9_16 1_555 1_555
H7_16 C10_16 1_555 1_555
C11_16 C10_16 1_555 1_555
C12_16 C7_16 1_555 1_555
H8_16 C12_16 1_555 1_555
C13_17 C9_16 1_555 1_555
C14_17 C11_16 1_555 1_555
Cu5 O4_17 1_555 1_555
Cu6 O2_17 1_555 1_555
Cu3 O3_17 1_555 1_555
Cu4 O5_17 1_555 1_555
C11_16 C12_16 1_555 1_555
Cu2_7 N2_17 1_555 1_555
O1_16 C6_16 1_555 1_555
N1_16 H1_16 1_555 1_555
N2_17 C1_17 1_555 1_555
C1_17 H2_17 1_555 1_555
C2_17 C1_17 1_555 1_555
H3_17 C2_17 1_555 1_555
C3_17 C2_17 1_555 1_555
H4_16 C3_17 1_555 1_555
C4_17 C3_17 1_555 1_555
C5_17 N2_17 1_555 1_555
H5_17 C5_17 1_555 1_555
C6_16 N1_16 1_555 1_555
O7_17 Cu2_7 1_555 1_555
O9_17 Cu2_7 1_555 1_555
C4_17 C5_17 1_555 1_555
C4_17 C6_16 1_555 1_555
Cu2_8 N2_18 1_555 1_555
O1_17 C6_17 1_555 1_555
O2_18 C13_18 1_555 1_555
O3_18 C13_18 1_555 1_555
O4_18 C14_18 1_555 1_555
O5_18 C14_18 1_555 1_555
N1_17 H1_17 1_555 1_555
N2_18 C1_18 1_555 1_555
C1_18 H2_18 1_555 1_555
C2_18 C1_18 1_555 1_555
H3_18 C2_18 1_555 1_555
C3_18 C2_18 1_555 1_555
H4_17 C3_18 1_555 1_555
C4_18 C3_18 1_555 1_555
C5_18 N2_18 1_555 1_555
H5_18 C5_18 1_555 1_555
C6_17 N1_17 1_555 1_555
C7_17 N1_17 1_555 1_555
C8_17 C7_17 1_555 1_555
H6_17 C8_17 1_555 1_555
C9_17 C8_17 1_555 1_555
C10_17 C9_17 1_555 1_555
H7_17 C10_17 1_555 1_555
C11_17 C10_17 1_555 1_555
C12_17 C7_17 1_555 1_555
H8_17 C12_17 1_555 1_555
C13_18 C9_17 1_555 1_555
C14_18 C11_17 1_555 1_555
Cu5_2 O4_18 1_555 1_555
Cu5 O2_18 1_555 1_555
Cu4 O3_18 1_555 1_555
Cu4_2 O5_18 1_555 1_555
O6_18 Cu2_8 1_555 1_555
O7_18 Cu2_8 1_555 1_555
O8_18 Cu2_8 1_555 1_555
O9_18 Cu2_8 1_555 1_555
C4_18 C5_18 1_555 1_555
C4_18 C6_17 1_555 1_555
C11_17 C12_17 1_555 1_555
O8_2 C14_19 1_555 1_555
O9_12 C14_19 1_555 1_555
Cu4_2 N2_19 1_555 1_555
N2_19 C1_19 1_555 1_555
C1_19 H2_19 1_555 1_555
C2_19 C1_19 1_555 1_555
H3_19 C2_19 1_555 1_555
C3_19 C2_19 1_555 1_555
C4_19 C3_19 1_555 1_555
C5_19 N2_19 1_555 1_555
H5_19 C5_19 1_555 1_555
C4_19 C5_19 1_555 1_555
O1_18 C6_18 1_555 1_555
O6_3 C13_19 1_555 1_555
O7_10 C13_19 1_555 1_555
N1_18 H1_18 1_555 1_555
C6_18 N1_18 1_555 1_555
C7_18 N1_18 1_555 1_555
C8_18 C7_18 1_555 1_555
H6_18 C8_18 1_555 1_555
C9_18 C8_18 1_555 1_555
C10_18 C9_18 1_555 1_555
H7_18 C10_18 1_555 1_555
C11_18 C10_18 1_555 1_555
C12_18 C7_18 1_555 1_555
H8_18 C12_18 1_555 1_555
C13_19 C9_18 1_555 1_555
C11_18 C12_18 1_555 1_555
O6 C13_20 1_555 1_555
O7_11 C13_20 1_555 1_555
Cu3 N2_20 1_555 1_555
N2_20 C1_20 1_555 1_555
C1_20 H2_20 1_555 1_555
C2_20 C1_20 1_555 1_555
H3_20 C2_20 1_555 1_555
C3_20 C2_20 1_555 1_555
C4_20 C3_20 1_555 1_555
C5_20 N2_20 1_555 1_555
H5_20 C5_20 1_555 1_555
C4_20 C5_20 1_555 1_555
O8_3 C14_20 1_555 1_555
O9_10 C14_20 1_555 1_555
Cu4 N2_21 1_555 1_555
N2_21 C1_21 1_555 1_555
C1_21 H2_21 1_555 1_555
C2_21 C1_21 1_555 1_555
H3_21 C2_21 1_555 1_555
C3_21 C2_21 1_555 1_555
C4_21 C3_21 1_555 1_555
C5_21 N2_21 1_555 1_555
H5_21 C5_21 1_555 1_555
C4_21 C5_21 1_555 1_555
O1_19 C6_19 1_555 1_555
O8 C14_21 1_555 1_555
O9_11 C14_21 1_555 1_555
N1_19 H1_19 1_555 1_555
C6_19 N1_19 1_555 1_555
C7_19 N1_19 1_555 1_555
C8_19 C7_19 1_555 1_555
H6_19 C8_19 1_555 1_555
C9_19 C8_19 1_555 1_555
C10_19 C9_19 1_555 1_555
H7_19 C10_19 1_555 1_555
C11_19 C10_19 1_555 1_555
C12_19 C7_19 1_555 1_555
H8_19 C12_19 1_555 1_555
C14_21 C11_19 1_555 1_555
C11_19 C12_19 1_555 1_555
O6_2 C13_21 1_555 1_555
O7_12 C13_21 1_555 1_555
O8_6 C14_22 1_555 1_555
O9_14 C14_22 1_555 1_555
Cu3_3 N2_22 1_555 1_555
O1_20 C6_20 1_555 1_555
O6_5 C13_22 1_555 1_555
O7_13 C13_22 1_555 1_555
N1_20 H1_20 1_555 1_555
N2_22 C1_22 1_555 1_555
C1_22 H2_22 1_555 1_555
C2_22 C1_22 1_555 1_555
H3_22 C2_22 1_555 1_555
C3_22 C2_22 1_555 1_555
H4_20 C3_22 1_555 1_555
C4_22 C3_22 1_555 1_555
C5_22 N2_22 1_555 1_555
H5_22 C5_22 1_555 1_555
C6_20 N1_20 1_555 1_555
C7_20 N1_20 1_555 1_555
C8_20 C7_20 1_555 1_555
H6_20 C8_20 1_555 1_555
C9_20 C8_20 1_555 1_555
C10_20 C9_20 1_555 1_555
H7_20 C10_20 1_555 1_555
C11_20 C10_20 1_555 1_555
C12_20 C7_20 1_555 1_555
H8_20 C12_20 1_555 1_555
C13_22 C9_20 1_555 1_555
C4_22 C5_22 1_555 1_555
C4_22 C6_20 1_555 1_555
C11_20 C12_20 1_555 1_555
Cu4_3 N2_23 1_555 1_555
O1_21 C6_21 1_555 1_555
O8_4 C14_23 1_555 1_555
O9_15 C14_23 1_555 1_555
N1_21 H1_21 1_555 1_555
N2_23 C1_23 1_555 1_555
C1_23 H2_23 1_555 1_555
C2_23 C1_23 1_555 1_555
H3_23 C2_23 1_555 1_555
C3_23 C2_23 1_555 1_555
H4_21 C3_23 1_555 1_555
C4_23 C3_23 1_555 1_555
C5_23 N2_23 1_555 1_555
H5_23 C5_23 1_555 1_555
C6_21 N1_21 1_555 1_555
C7_21 N1_21 1_555 1_555
C8_21 C7_21 1_555 1_555
H6_21 C8_21 1_555 1_555
C9_21 C8_21 1_555 1_555
C10_21 C9_21 1_555 1_555
H7_21 C10_21 1_555 1_555
C11_21 C10_21 1_555 1_555
C12_21 C7_21 1_555 1_555
H8_21 C12_21 1_555 1_555
C14_23 C11_21 1_555 1_555
C4_23 C5_23 1_555 1_555
C4_23 C6_21 1_555 1_555
C11_21 C12_21 1_555 1_555
O6_6 C13_23 1_555 1_555
O7_14 C13_23 1_555 1_555
O6_4 C13_24 1_555 1_555
O7_15 C13_24 1_555 1_555
Cu3_2 N2_24 1_555 1_555
O1_22 C6_22 1_555 1_555
N1_22 H1_22 1_555 1_555
N2_24 C1_24 1_555 1_555
C1_24 H2_24 1_555 1_555
C2_24 C1_24 1_555 1_555
H3_24 C2_24 1_555 1_555
C3_24 C2_24 1_555 1_555
H4_22 C3_24 1_555 1_555
C4_24 C3_24 1_555 1_555
C5_24 N2_24 1_555 1_555
H5_24 C5_24 1_555 1_555
C6_22 N1_22 1_555 1_555
C7_22 N1_22 1_555 1_555
C8_22 C7_22 1_555 1_555
H6_22 C8_22 1_555 1_555
C9_22 C8_22 1_555 1_555
C10_22 C9_22 1_555 1_555
H7_22 C10_22 1_555 1_555
C11_22 C10_22 1_555 1_555
C12_22 C7_22 1_555 1_555
H8_22 C12_22 1_555 1_555
C4_24 C5_24 1_555 1_555
C4_24 C6_22 1_555 1_555
C11_22 C12_22 1_555 1_555
O8_5 C14_24 1_555 1_555
O9_13 C14_24 1_555 1_555
O6_15 C13_25 1_555 1_555
O7_4 C13_25 1_555 1_555
O8_14 C14_25 1_555 1_555
O9_6 C14_25 1_555 1_555
C8_23 C7_23 1_555 1_555
H6_23 C8_23 1_555 1_555
C9_23 C8_23 1_555 1_555
C10_23 C9_23 1_555 1_555
H7_23 C10_23 1_555 1_555
C11_23 C10_23 1_555 1_555
C12_23 C7_23 1_555 1_555
H8_23 C12_23 1_555 1_555
C13_25 C9_23 1_555 1_555
C14_25 C11_23 1_555 1_555
C11_23 C12_23 1_555 1_555
Cu5_4 N2_25 1_555 1_555
O1_23 C6_23 1_555 1_555
N1_23 H1_23 1_555 1_555
N2_25 C1_25 1_555 1_555
C1_25 H2_25 1_555 1_555
C2_25 C1_25 1_555 1_555
H3_25 C2_25 1_555 1_555
C3_25 C2_25 1_555 1_555
H4_23 C3_25 1_555 1_555
C4_25 C3_25 1_555 1_555
C5_25 N2_25 1_555 1_555
H5_25 C5_25 1_555 1_555
C6_23 N1_23 1_555 1_555
C4_25 C5_25 1_555 1_555
C4_25 C6_23 1_555 1_555
Cu6_4 N2_26 1_555 1_555
O1_24 C6_24 1_555 1_555
O6_13 C13_26 1_555 1_555
O7_5 C13_26 1_555 1_555
O8_15 C14_26 1_555 1_555
O9_4 C14_26 1_555 1_555
N1_24 H1_24 1_555 1_555
N2_26 C1_26 1_555 1_555
C1_26 H2_26 1_555 1_555
C2_26 C1_26 1_555 1_555
H3_26 C2_26 1_555 1_555
C3_26 C2_26 1_555 1_555
H4_24 C3_26 1_555 1_555
C4_26 C3_26 1_555 1_555
C5_26 N2_26 1_555 1_555
H5_26 C5_26 1_555 1_555
C6_24 N1_24 1_555 1_555
C7_24 N1_24 1_555 1_555
C8_24 C7_24 1_555 1_555
H6_24 C8_24 1_555 1_555
C9_24 C8_24 1_555 1_555
C10_24 C9_24 1_555 1_555
H7_24 C10_24 1_555 1_555
C11_24 C10_24 1_555 1_555
C12_24 C7_24 1_555 1_555
H8_24 C12_24 1_555 1_555
C13_26 C9_24 1_555 1_555
C14_26 C11_24 1_555 1_555
C4_26 C5_26 1_555 1_555
C4_26 C6_24 1_555 1_555
C11_24 C12_24 1_555 1_555
Cu6_5 N2_27 1_555 1_555
O1_25 C6_25 1_555 1_555
N1_25 H1_25 1_555 1_555
N2_27 C1_27 1_555 1_555
C1_27 H2_27 1_555 1_555
C2_27 C1_27 1_555 1_555
H3_27 C2_27 1_555 1_555
C3_27 C2_27 1_555 1_555
H4_25 C3_27 1_555 1_555
C4_27 C3_27 1_555 1_555
C5_27 N2_27 1_555 1_555
H5_27 C5_27 1_555 1_555
C6_25 N1_25 1_555 1_555
C4_27 C5_27 1_555 1_555
C4_27 C6_25 1_555 1_555
O6_14 C13_27 1_555 1_555
O7_6 C13_27 1_555 1_555
O8_13 C14_27 1_555 1_555
O9_5 C14_27 1_555 1_555
C8_25 C7_25 1_555 1_555
H6_25 C8_25 1_555 1_555
C9_25 C8_25 1_555 1_555
C10_25 C9_25 1_555 1_555
H7_25 C10_25 1_555 1_555
C11_25 C10_25 1_555 1_555
C12_25 C7_25 1_555 1_555
H8_25 C12_25 1_555 1_555
C13_27 C9_25 1_555 1_555
C14_27 C11_25 1_555 1_555
C11_25 C12_25 1_555 1_555
Cu5 N2_28 1_555 1_555
O1_26 C6_26 1_555 1_555
O6_17 C13_28 1_555 1_555
O7_7 C13_28 1_555 1_555
O8_18 C14_28 1_555 1_555
O9_8 C14_28 1_555 1_555
N1_26 H1_26 1_555 1_555
N2_28 C1_28 1_555 1_555
C4_28 C3_28 1_555 1_555
C5_28 N2_28 1_555 1_555
H5_28 C5_28 1_555 1_555
C6_26 N1_26 1_555 1_555
C7_26 N1_26 1_555 1_555
C8_26 C7_26 1_555 1_555
H6_26 C8_26 1_555 1_555
C9_26 C8_26 1_555 1_555
C10_26 C9_26 1_555 1_555
H7_26 C10_26 1_555 1_555
C11_26 C10_26 1_555 1_555
C12_26 C7_26 1_555 1_555
H8_26 C12_26 1_555 1_555
C13_28 C9_26 1_555 1_555
C14_28 C11_26 1_555 1_555
C4_28 C5_28 1_555 1_555
C4_28 C6_26 1_555 1_555
C11_26 C12_26 1_555 1_555
H3_28 C2_28 1_555 1_555
Cu5_2 N2_29 1_555 1_555
O1_27 C6_27 1_555 1_555
O6_18 C13_29 1_555 1_555
O7_8 C13_29 1_555 1_555
O8_16 C14_29 1_555 1_555
O9_9 C14_29 1_555 1_555
N1_27 H1_27 1_555 1_555
N2_29 C1_29 1_555 1_555
C1_29 H2_29 1_555 1_555
C2_29 C1_29 1_555 1_555
H3_29 C2_29 1_555 1_555
C3_29 C2_29 1_555 1_555
H4_27 C3_29 1_555 1_555
C4_29 C3_29 1_555 1_555
C5_29 N2_29 1_555 1_555
H5_29 C5_29 1_555 1_555
C6_27 N1_27 1_555 1_555
C7_27 N1_27 1_555 1_555
C8_27 C7_27 1_555 1_555
H6_27 C8_27 1_555 1_555
C9_27 C8_27 1_555 1_555
C10_27 C9_27 1_555 1_555
H7_27 C10_27 1_555 1_555
C11_27 C10_27 1_555 1_555
C12_27 C7_27 1_555 1_555
H8_27 C12_27 1_555 1_555
C13_29 C9_27 1_555 1_555
C14_29 C11_27 1_555 1_555
C4_29 C5_29 1_555 1_555
C4_29 C6_27 1_555 1_555
C11_27 C12_27 1_555 1_555
H3_30 C2_30 1_555 1_555
Cu6 N2_30 1_555 1_555
O1_28 C6_28 1_555 1_555
O6_16 C13_30 1_555 1_555
O7_9 C13_30 1_555 1_555
O8_17 C14_30 1_555 1_555
O9_7 C14_30 1_555 1_555
N1_28 H1_28 1_555 1_555
N2_30 C1_30 1_555 1_555
C4_30 C3_30 1_555 1_555
C5_30 N2_30 1_555 1_555
H5_30 C5_30 1_555 1_555
C6_28 N1_28 1_555 1_555
C7_28 N1_28 1_555 1_555
C8_28 C7_28 1_555 1_555
H6_28 C8_28 1_555 1_555
C9_28 C8_28 1_555 1_555
C10_28 C9_28 1_555 1_555
H7_28 C10_28 1_555 1_555
C11_28 C10_28 1_555 1_555
C12_28 C7_28 1_555 1_555
H8_28 C12_28 1_555 1_555
C13_30 C9_28 1_555 1_555
C14_30 C11_28 1_555 1_555
C4_30 C5_30 1_555 1_555
C4_30 C6_28 1_555 1_555
C11_28 C12_28 1_555 1_555
Cu5_3 N2_31 1_555 1_555
O1_29 C6_29 1_555 1_555
O6_9 C13_31 1_555 1_555
O7_16 C13_31 1_555 1_555
O8_8 C14_31 1_555 1_555
O9_18 C14_31 1_555 1_555
N1_29 H1_29 1_555 1_555
N2_31 C1_31 1_555 1_555
C4_31 C3_31 1_555 1_555
C5_31 N2_31 1_555 1_555
H5_31 C5_31 1_555 1_555
C6_29 N1_29 1_555 1_555
C7_29 N1_29 1_555 1_555
C8_29 C7_29 1_555 1_555
H6_29 C8_29 1_555 1_555
C9_29 C8_29 1_555 1_555
C10_29 C9_29 1_555 1_555
H7_29 C10_29 1_555 1_555
C11_29 C10_29 1_555 1_555
C12_29 C7_29 1_555 1_555
H8_29 C12_29 1_555 1_555
C13_31 C9_29 1_555 1_555
C14_31 C11_29 1_555 1_555
C4_31 C5_31 1_555 1_555
C4_31 C6_29 1_555 1_555
C11_29 C12_29 1_555 1_555
H3_31 C2_31 1_555 1_555
H3_32 C2_32 1_555 1_555
Cu6_2 N2_32 1_555 1_555
O1_30 C6_30 1_555 1_555
O6_7 C13_32 1_555 1_555
O7_17 C13_32 1_555 1_555
O8_9 C14_32 1_555 1_555
O9_16 C14_32 1_555 1_555
N1_30 H1_30 1_555 1_555
N2_32 C1_32 1_555 1_555
C4_32 C3_32 1_555 1_555
C5_32 N2_32 1_555 1_555
H5_32 C5_32 1_555 1_555
C6_30 N1_30 1_555 1_555
C7_30 N1_30 1_555 1_555
C8_30 C7_30 1_555 1_555
H6_30 C8_30 1_555 1_555
C9_30 C8_30 1_555 1_555
C10_30 C9_30 1_555 1_555
H7_30 C10_30 1_555 1_555
C11_30 C10_30 1_555 1_555
C12_30 C7_30 1_555 1_555
H8_30 C12_30 1_555 1_555
C13_32 C9_30 1_555 1_555
C14_32 C11_30 1_555 1_555
C4_32 C5_32 1_555 1_555
C4_32 C6_30 1_555 1_555
C11_30 C12_30 1_555 1_555
Cu6_3 N2_33 1_555 1_555
O1_31 C6_31 1_555 1_555
O6_8 C13_33 1_555 1_555
O7_18 C13_33 1_555 1_555
O8_7 C14_33 1_555 1_555
O9_17 C14_33 1_555 1_555
N1_31 H1_31 1_555 1_555
N2_33 C1_33 1_555 1_555
C1_33 H2_33 1_555 1_555
C2_33 C1_33 1_555 1_555
H3_33 C2_33 1_555 1_555
C3_33 C2_33 1_555 1_555
H4_31 C3_33 1_555 1_555
C4_33 C3_33 1_555 1_555
C5_33 N2_33 1_555 1_555
H5_33 C5_33 1_555 1_555
C6_31 N1_31 1_555 1_555
C7_31 N1_31 1_555 1_555
C8_31 C7_31 1_555 1_555
H6_31 C8_31 1_555 1_555
C9_31 C8_31 1_555 1_555
C10_31 C9_31 1_555 1_555
H7_31 C10_31 1_555 1_555
C11_31 C10_31 1_555 1_555
C12_31 C7_31 1_555 1_555
H8_31 C12_31 1_555 1_555
C13_33 C9_31 1_555 1_555
C14_33 C11_31 1_555 1_555
C4_33 C5_33 1_555 1_555
C4_33 C6_31 1_555 1_555
C11_31 C12_31 1_555 1_555
O6_11 C13_34 1_555 1_555
O7 C13_34 1_555 1_555
O8_12 C14_34 1_555 1_555
O9_2 C14_34 1_555 1_555
C8_32 C7_32 1_555 1_555
H6_32 C8_32 1_555 1_555
C9_32 C8_32 1_555 1_555
C10_32 C9_32 1_555 1_555
H7_32 C10_32 1_555 1_555
C11_32 C10_32 1_555 1_555
C12_32 C7_32 1_555 1_555
H8_32 C12_32 1_555 1_555
C13_34 C9_32 1_555 1_555
C14_34 C11_32 1_555 1_555
C11_32 C12_32 1_555 1_555
Cu3_5 N2_34 1_555 1_555
O1_32 C6_32 1_555 1_555
N1_32 H1_32 1_555 1_555
N2_34 C1_34 1_555 1_555
C1_34 H2_34 1_555 1_555
C2_34 C1_34 1_555 1_555
H3_34 C2_34 1_555 1_555
C3_34 C2_34 1_555 1_555
H4_32 C3_34 1_555 1_555
C4_34 C3_34 1_555 1_555
C5_34 N2_34 1_555 1_555
H5_34 C5_34 1_555 1_555
C6_32 N1_32 1_555 1_555
C4_34 C5_34 1_555 1_555
C4_34 C6_32 1_555 1_555
Cu4_4 N2_35 1_555 1_555
O1_33 C6_33 1_555 1_555
N1_33 H1_33 1_555 1_555
N2_35 C1_35 1_555 1_555
C1_35 H2_35 1_555 1_555
C2_35 C1_35 1_555 1_555
H3_35 C2_35 1_555 1_555
C3_35 C2_35 1_555 1_555
H4_33 C3_35 1_555 1_555
C4_35 C3_35 1_555 1_555
C5_35 N2_35 1_555 1_555
H5_35 C5_35 1_555 1_555
C6_33 N1_33 1_555 1_555
C4_35 C5_35 1_555 1_555
C4_35 C6_33 1_555 1_555
O6_12 C13_35 1_555 1_555
O7_2 C13_35 1_555 1_555
O8_10 C14_35 1_555 1_555
O9_3 C14_35 1_555 1_555
C8_33 C7_33 1_555 1_555
H6_33 C8_33 1_555 1_555
C9_33 C8_33 1_555 1_555
C10_33 C9_33 1_555 1_555
H7_33 C10_33 1_555 1_555
C11_33 C10_33 1_555 1_555
C12_33 C7_33 1_555 1_555
H8_33 C12_33 1_555 1_555
C13_35 C9_33 1_555 1_555
C14_35 C11_33 1_555 1_555
C11_33 C12_33 1_555 1_555
Cu3_4 N2_36 1_555 1_555
O1_34 C6_34 1_555 1_555
O6_10 C13_36 1_555 1_555
O7_3 C13_36 1_555 1_555
O8_11 C14_36 1_555 1_555
O9 C14_36 1_555 1_555
N1_34 H1_34 1_555 1_555
N2_36 C1_36 1_555 1_555
C1_36 H2_36 1_555 1_555
C2_36 C1_36 1_555 1_555
H3_36 C2_36 1_555 1_555
C3_36 C2_36 1_555 1_555
H4_34 C3_36 1_555 1_555
C4_36 C3_36 1_555 1_555
C5_36 N2_36 1_555 1_555
H5_36 C5_36 1_555 1_555
C6_34 N1_34 1_555 1_555
C7_34 N1_34 1_555 1_555
C8_34 C7_34 1_555 1_555
H6_34 C8_34 1_555 1_555
C9_34 C8_34 1_555 1_555
C10_34 C9_34 1_555 1_555
H7_34 C10_34 1_555 1_555
C11_34 C10_34 1_555 1_555
C12_34 C7_34 1_555 1_555
H8_34 C12_34 1_555 1_555
C13_36 C9_34 1_555 1_555
C14_36 C11_34 1_555 1_555
C4_36 C5_36 1_555 1_555
C4_36 C6_34 1_555 1_555
C11_34 C12_34 1_555 1_555
O1_35 C6_35 1_555 1_555
N1_35 H1_35 1_555 1_555
C6_35 N1_35 1_555 1_555
C7_35 N1_35 1_555 1_555
C8_35 C7_35 1_555 1_555
H6_35 C8_35 1_555 1_555
C9_35 C8_35 1_555 1_555
C10_35 C9_35 1_555 1_555
H7_35 C10_35 1_555 1_555
C11_35 C10_35 1_555 1_555
C12_35 C7_35 1_555 1_555
H8_35 C12_35 1_555 1_555
C11_35 C12_35 1_555 1_555
O1_36 C6_36 1_555 1_555
N1_36 H1_36 1_555 1_555
C6_36 N1_36 1_555 1_555
C7_36 N1_36 1_555 1_555
C8_36 C7_36 1_555 1_555
H6_36 C8_36 1_555 1_555
C9_36 C8_36 1_555 1_555
C10_36 C9_36 1_555 1_555
H7_36 C10_36 1_555 1_555
C11_36 C10_36 1_555 1_555
C12_36 C7_36 1_555 1_555
H8_36 C12_36 1_555 1_555
C11_36 C12_36 1_555 1_555

#END
