
###############################################################################
#
# This file contains modified crystal structure data generated from the
# MOF subset of the Cambridge Structural Database (CSD) v543 
# hosted by the Cambridge Crystallographic Data Centre (CCDC).
#
# This work is licensed under the Creative Commons
# Attribution-NonCommercial-ShareAlike 4.0 International License.
# To view a copy of this license, visit
# http://creativecommons.org/licenses/by-nc-sa/4.0/
# or send a letter to
# Creative Commons, PO Box 1866, Mountain View, CA 94042, USA.
#
# CIF created using the CSD Python API on 29 September 2022
# The structure has been converted into the P1 space group
# The structure has a 3D framework
# The original CSD entry MOTKAI is in the monoclinic crystal system
# The framework has been calculated to contain at least 10.0% void space
# The void calculation uses a probe of radius 1.32A, grid spacing 0.4
# H atom positions have been added when not included in the experimental data
# Generated hydrogen atom positions removed from atoms on special positions
#
###############################################################################

data_MOTKAI
_chemical_formula_moiety         '(C8 H32 Al9 F4 O15 P4)n'
_symmetry_cell_setting           triclinic
_symmetry_space_group_name_H-M   'P 1'
_symmetry_Int_Tables_number      1
_space_group_name_Hall           'P 1'
loop_
_symmetry_equiv_pos_site_id
_symmetry_equiv_pos_as_xyz
1 x,y,z
_cell_length_a                   4.93921(26)
_cell_length_b                   12.1867(4)
_cell_length_c                   10.7830(5)
_cell_angle_alpha                90
_cell_angle_beta                 94.7665(33)
_cell_angle_gamma                90
_cell_volume                     646.813
loop_
_atom_site_label
_atom_site_type_symbol
_atom_site_fract_x
_atom_site_fract_y
_atom_site_fract_z
_atom_site_U_iso_or_equiv
_atom_site_thermal_displace_type
Al5 Al 0.0000 0.5000 -0.0000 0.0335 Uiso
O4 O 0.5275(27) 0.2500 0.0326(9) 0.0226 Uiso
Al5_2 Al -0.0000 0.5000 1.0000 0.0335 Uiso
O12 O 0.2260(15) 0.5071(12) 0.1438(5) 0.0226 Uiso
Al2 Al 0.2435(19) 0.2500 0.8986(7) 0.0335 Uiso
F1 F 0.0663(17) 0.3533(4) 0.9837(6) 0.0226 Uiso
F3 F 0.0663(17) 0.1467(4) 0.9837(6) 0.0226 Uiso
O7 O 0.2981(12) 0.5412(7) 0.9163(6) 0.0226 Uiso
O9 O 0.3927(20) 0.3632(6) 0.8111(7) 0.0226 Uiso
O10 O 0.3927(20) 0.1368(6) 0.8111(7) 0.0226 Uiso
Al5_3 Al 1.0000 0.5000 -0.0000 0.0335 Uiso
P1 P 0.5359(12) 0.5140(5) 0.1813(4) 0.0335 Uiso
O1 O 0.7019(12) 0.4588(7) 0.0837(6) 0.0226 Uiso
O2 O 0.6073(20) 0.6368(6) 0.1889(7) 0.0226 Uiso
C1 C 0.4704(27) 0.5221(12) 0.4322(5) 0.0226 Uiso
C2 C 0.6168(30) 0.4634(10) 0.3334(9) 0.0226 Uiso
Al5_4 Al 1.0000 0.5000 1.0000 0.0335 Uiso
Al6 Al 0.7565(19) 0.7500 0.1014(7) 0.0335 Uiso
P2 P 0.4641(12) 0.4860(5) 0.8187(4) 0.0335 Uiso
F2 F 0.9337(17) 0.6467(4) 0.0163(6) 0.0226 Uiso
O11 O 0.7740(15) 0.4929(12) 0.8562(5) 0.0226 Uiso
C3 C 0.5296(27) 0.4779(12) 0.5678(5) 0.0226 Uiso
C4 C 0.3832(30) 0.5366(10) 0.6666(9) 0.0226 Uiso
H1 H 0.252881 0.515042 0.407274 . .
H2 H 0.529307 0.608199 0.431666 . .
H5 H 0.834672 0.472448 0.355981 . .
H6 H 0.562838 0.376796 0.334899 . .
H9 H 0.437162 0.623204 0.665101 . .
H10 H 0.165328 0.527552 0.644019 . .
H11 H 0.747119 0.484958 0.592726 . .
H12 H 0.470693 0.391801 0.568334 . .
O5 O 0.9272(23) 0.2500 0.7821(10) 0.0226 Uiso
Al3 Al 0.0000 0.0000 0.0000 0.0335 Uiso
Al3_2 Al -0.0000 0.0000 1.0000 0.0335 Uiso
Al3_3 Al 0.0000 1.0000 0.0000 0.0335 Uiso
Al3_4 Al 0.0000 1.0000 1.0000 0.0335 Uiso
Al3_5 Al 1.0000 0.0000 0.0000 0.0335 Uiso
P1_2 P 0.4641(12) 0.0140(5) 0.8187(4) 0.0335 Uiso
O3 O 0.7740(15) 0.0071(12) 0.8562(5) 0.0226 Uiso
C1_2 C 0.5296(27) 0.0221(12) 0.5678(5) 0.0226 Uiso
Al3_6 Al 1.0000 0.0000 1.0000 0.0335 Uiso
O6 O 0.7019(12) 0.0412(7) 0.0837(6) 0.0226 Uiso
C4_2 C 0.6168(30) 0.0366(10) 0.3334(9) 0.0226 Uiso
H1_2 H 0.747119 0.0150424 0.592726 . .
H2_2 H 0.470693 0.108199 0.568334 . .
H9_2 H 0.562838 0.123204 0.334899 . .
H10_2 H 0.834672 0.0275523 0.355981 . .
O5_2 O 0.0728(23) 0.7500 0.2179(10) 0.0226 Uiso
Al3_7 Al 1.0000 1.0000 0.0000 0.0335 Uiso
O13 O 0.2260(15) 0.9929(12) 0.1438(5) 0.0226 Uiso
O1_2 O 0.2981(12) 0.9588(7) 0.9163(6) 0.0226 Uiso
C2_2 C 0.3832(30) 0.9634(10) 0.6666(9) 0.0226 Uiso
Al3_8 Al 1.0000 1.0000 1.0000 0.0335 Uiso
P2_2 P 0.5359(12) 0.9860(5) 0.1813(4) 0.0335 Uiso
O8 O 0.6073(20) 0.8632(6) 0.1889(7) 0.0226 Uiso
C3_2 C 0.4704(27) 0.9779(12) 0.4322(5) 0.0226 Uiso
H5_2 H 0.165328 0.972448 0.644019 . .
H6_2 H 0.437162 0.876796 0.665101 . .
H11_2 H 0.252881 0.984958 0.407274 . .
H12_2 H 0.529307 0.891801 0.431666 . .
F1_2 F 0.9337(17) 0.8533(4) 0.0163(6) 0.0226 Uiso
O4_2 O 0.4725(27) 0.7500 0.9674(9) 0.0226 Uiso
loop_
_geom_bond_atom_site_label_1
_geom_bond_atom_site_label_2
_geom_bond_site_symmetry_1
_geom_bond_site_symmetry_2
O12 Al5 1_555 1_555
Al5_2 F1 1_555 1_555
Al2 F1 1_555 1_555
F3 Al2 1_555 1_555
O7 Al5_2 1_555 1_555
O9 Al2 1_555 1_555
O10 Al2 1_555 1_555
P1 O1 1_555 1_555
O1 Al5_3 1_555 1_555
O2 P1 1_555 1_555
O12 P1 1_555 1_555
C1 C2 1_555 1_555
C2 P1 1_555 1_555
Al5_4 O11 1_555 1_555
Al6 O2 1_555 1_555
P2 O7 1_555 1_555
F2 Al5_3 1_555 1_555
O9 P2 1_555 1_555
O11 P2 1_555 1_555
C3 C1 1_555 1_555
C4 P2 1_555 1_555
Al6 F2 1_555 1_555
C3 C4 1_555 1_555
C1 H1 1_555 1_555
C1 H2 1_555 1_555
C2 H5 1_555 1_555
C2 H6 1_555 1_555
C4 H9 1_555 1_555
C4 H10 1_555 1_555
C3 H11 1_555 1_555
C3 H12 1_555 1_555
O10 P1_2 1_555 1_555
O3 P1_2 1_555 1_555
Al3_6 O3 1_555 1_555
Al3_5 O6 1_555 1_555
F3 Al3_2 1_555 1_555
C1_2 H1_2 1_555 1_555
C1_2 H2_2 1_555 1_555
C4_2 H9_2 1_555 1_555
C4_2 H10_2 1_555 1_555
O13 Al3_3 1_555 1_555
O1_2 Al3_4 1_555 1_555
Al6 O8 1_555 1_555
O8 P2_2 1_555 1_555
O13 P2_2 1_555 1_555
C2_2 H5_2 1_555 1_555
C2_2 H6_2 1_555 1_555
C3_2 H11_2 1_555 1_555
C3_2 H12_2 1_555 1_555
Al3_7 F1_2 1_555 1_555
Al6 F1_2 1_555 1_555

#END
