
###############################################################################
#
# This file contains modified crystal structure data generated from the
# MOF subset of the Cambridge Structural Database (CSD) v543 
# hosted by the Cambridge Crystallographic Data Centre (CCDC).
#
# This work is licensed under the Creative Commons
# Attribution-NonCommercial-ShareAlike 4.0 International License.
# To view a copy of this license, visit
# http://creativecommons.org/licenses/by-nc-sa/4.0/
# or send a letter to
# Creative Commons, PO Box 1866, Mountain View, CA 94042, USA.
#
# CIF created using the CSD Python API on 29 September 2022
# The structure has been converted into the P1 space group
# The structure has a 3D framework
# The original CSD entry MOTVOI is in the monoclinic crystal system
# The framework has been calculated to contain at least 10.0% void space
# The void calculation uses a probe of radius 1.32A, grid spacing 0.4
# The framework is charged, counterions have been retained in the structure
#
###############################################################################

data_MOTVOI
_chemical_formula_moiety         '(C156 H172 Eu11 N20 O66 2+)n'
_symmetry_cell_setting           triclinic
_symmetry_space_group_name_H-M   'P 1'
_symmetry_Int_Tables_number      1
_space_group_name_Hall           'P 1'
loop_
_symmetry_equiv_pos_site_id
_symmetry_equiv_pos_as_xyz
1 x,y,z
_cell_length_a                   15.4724(19)
_cell_length_b                   14.1459(17)
_cell_length_c                   24.040(2)
_cell_angle_alpha                90
_cell_angle_beta                 90.188(2)
_cell_angle_gamma                90
_cell_volume                     5261.63
loop_
_atom_site_label
_atom_site_type_symbol
_atom_site_fract_x
_atom_site_fract_y
_atom_site_fract_z
Eu13 Eu -0.0000 0.0000 -0.0000
Eu13_2 Eu -0.0000 0.0000 1.0000
Eu7 Eu 0.05602(3) 0.37368(3) 0.991546(17)
Eu13_3 Eu -0.0000 1.0000 -0.0000
Eu13_4 Eu -0.0000 1.0000 1.0000
C1 C 0.3716(7) 0.0084(6) 0.4250(3)
C2 C 0.3357(5) 0.0533(6) 0.3730(3)
C3 C 0.3685(6) 0.1394(6) 0.3542(4)
H1 H 0.4125 0.1702 0.3751
C4 C 0.3398(5) 0.1787(6) 0.3082(4)
H2 H 0.3624 0.2380 0.2967
C5 C 0.2754(5) 0.1338(6) 0.2754(4)
C6 C 0.2425(5) 0.0479(6) 0.2952(3)
C7 C 0.2724(5) 0.0043(6) 0.3439(3)
C8 C 0.0740(6) 0.1751(7) 0.0778(3)
C9 C 0.1308(5) 0.1653(6) 0.1277(3)
C10 C 0.1891(6) 0.2337(6) 0.1413(3)
H4 H 0.1942 0.2866 0.1172
C11 C 0.2435(6) 0.2306(6) 0.1899(3)
H5 H 0.2854 0.2777 0.1979
C12 C 0.2303(5) 0.1572(6) 0.2221(3)
C13 C 0.1724(6) 0.0846(6) 0.2095(3)
C14 C 0.1214(6) 0.0872(6) 0.1646(3)
H6 H 0.0803 0.0387 0.1575
C15 C 0.1761(6) 0.0026(5) 0.2551(3)
H7 H 0.0966 0.0189 0.3214
H9 H 0.0501 0.0397 0.2631
O2 O 0.4374(4) 0.0420(4) 0.4512(2)
O3 O 0.0857(3) 0.2434(4) 0.0468(2)
O4 O 0.0225(5) 0.1122(5) 0.0657(2)
Eu8 Eu 0.55602(3) 0.12632(3) 0.491546(17)
Eu13_5 Eu 1.0000 0.0000 -0.0000
H3 H 0.2507 0.9451 0.3562
C16 C 0.0908(6) 0.9982(7) 0.2826(4)
H8 H 0.0692 0.9331 0.2817
C17 C 0.4643(5) 0.6819(6) 0.5915(3)
C18 C 0.4165(5) 0.6868(6) 0.6448(3)
C19 C 0.3951(5) 0.7711(6) 0.6683(3)
H10 H 0.4116 0.8279 0.6501
C20 C 0.3499(6) 0.7766(6) 0.7179(3)
H11 H 0.3431 0.8357 0.7361
C21 C 0.3158(5) 0.6976(6) 0.7402(3)
C22 C 0.3415(5) 0.6072(6) 0.7182(3)
C23 C 0.3896(5) 0.6044(6) 0.6712(3)
H12 H 0.4053 0.5449 0.6559
C24 C 0.1057(6) 0.5725(6) 0.9193(3)
C25 C 0.1615(5) 0.6081(6) 0.8727(3)
C26 C 0.1672(6) 0.7068(6) 0.8655(4)
H13 H 0.1356 0.7483 0.8889
C27 C 0.2199(6) 0.7428(6) 0.8236(3)
H14 H 0.2246 0.8090 0.8179
C28 C 0.2656(5) 0.6795(6) 0.7898(3)
C29 C 0.2536(5) 0.5837(6) 0.7948(3)
C30 C 0.2022(5) 0.5483(6) 0.8387(3)
H15 H 0.1967 0.4820 0.8440
C31 C 0.2973(6) 0.5304(6) 0.7516(3)
C32 C 0.3636(6) 0.4543(7) 0.7700(3)
H16 H 0.3329 0.3998 0.7854
H17 H 0.4022 0.4809 0.7983
H18 H 0.3976 0.4342 0.7378
Eu1 Eu 0.44398(3) 0.87368(3) 0.508454(17)
Eu2 Eu 0.5000 0.5000 0.5000
N1 N 0.2564(5) 0.7509(6) 0.5225(3)
O1 O 0.3390(4) 0.9320(4) 0.4436(2)
O5 O 0.2027(4) 0.9217(4) 0.2327(2)
H19 H 0.2642 0.9111 0.2250
O6 O 0.4891(3) 0.7576(4) 0.5700(2)
O7 O 0.4768(4) 0.6025(4) 0.5685(2)
O8 O 0.0502(4) 0.6278(4) 0.9401(2)
O9 O 0.1165(4) 0.4848(4) 0.9317(2)
O10 O 0.2364(4) 0.4905(4) 0.7174(2)
H20 H 0.2626 0.4579 0.6868
O11 O 0.3072(3) 0.8087(4) 0.5420(2)
O12 O 0.2034(4) 0.7143(4) 0.5553(2)
O13 O 0.2532(4) 0.7335(4) 0.4729(2)
C33 C 0.7000(6) 0.6749(8) 0.5632(4)
H21 H 0.7002 0.6706 0.6026
C34 C 0.7735(8) 0.7086(7) 0.4818(4)
H22 H 0.8025 0.6474 0.4859
H23 H 0.8139 0.7546 0.4660
H24 H 0.7235 0.7017 0.4570
C35 C 0.7803(6) 0.8321(6) 0.5606(4)
H25 H 0.7362 0.8816 0.5584
H26 H 0.8317 0.8520 0.5398
H27 H 0.7960 0.8212 0.5996
N2 N 0.7450(4) 0.7412(6) 0.5355(3)
O14 O 0.6537(4) 0.6140(4) 0.5302(2)
N3 N 0.2931(4) 0.5067(6) 0.5532(3)
O15 O 0.3032(4) 0.4178(5) 0.5485(2)
O16 O 0.3169(4) 0.5596(4) 0.5172(2)
O17 O 0.2527(3) 0.5379(4) 0.5991(2)
H30 H 0.7493 0.0549 0.6438
C51 C 0.9092(6) 0.0018(7) 0.7174(4)
H35 H 0.9308 0.0669 0.7183
C52 C 0.5357(5) 0.3181(6) 0.4085(3)
C53 C 0.5835(5) 0.3132(6) 0.3552(3)
C54 C 0.6049(5) 0.2289(6) 0.3317(3)
H37 H 0.5884 0.1721 0.3499
C55 C 0.6501(6) 0.2234(6) 0.2821(3)
H38 H 0.6569 0.1643 0.2639
C56 C 0.6842(5) 0.3024(6) 0.2598(3)
C57 C 0.6585(5) 0.3928(6) 0.2818(3)
C58 C 0.6104(5) 0.3956(6) 0.3288(3)
H39 H 0.5947 0.4551 0.3441
C59 C 0.8943(6) 0.4275(6) 0.0807(3)
C60 C 0.8385(5) 0.3919(6) 0.1273(3)
C61 C 0.8328(6) 0.2932(6) 0.1345(4)
H40 H 0.8644 0.2517 0.1111
C62 C 0.7801(6) 0.2572(6) 0.1764(3)
H41 H 0.7754 0.1910 0.1821
C63 C 0.7344(5) 0.3205(6) 0.2102(3)
C64 C 0.7464(5) 0.4163(6) 0.2052(3)
C65 C 0.7978(5) 0.4517(6) 0.1613(3)
H42 H 0.8033 0.5180 0.1560
C66 C 0.7027(6) 0.4696(6) 0.2484(3)
C67 C 0.6364(6) 0.5457(7) 0.2300(3)
H43 H 0.6671 0.6002 0.2146
H44 H 0.5978 0.5191 0.2017
H45 H 0.6024 0.5658 0.2622
N4 N 0.7436(5) 0.2491(6) 0.4775(3)
O18 O 0.6610(4) 0.0680(4) 0.5564(2)
O22 O 0.7973(4) 0.0783(4) 0.7673(2)
H46 H 0.7358 0.0889 0.7750
O23 O 0.5109(3) 0.2424(4) 0.4300(2)
O24 O 0.5232(4) 0.3975(4) 0.4315(2)
O25 O 0.9498(4) 0.3722(4) 0.0599(2)
O26 O 0.8835(4) 0.5152(4) 0.0683(2)
O27 O 0.7636(4) 0.5095(4) 0.2826(2)
H47 H 0.7374 0.5421 0.3132
O28 O 0.6928(3) 0.1913(4) 0.4580(2)
O29 O 0.7966(4) 0.2857(4) 0.4447(2)
O30 O 0.7468(4) 0.2665(4) 0.5271(2)
C68 C 0.3000(6) 0.3251(8) 0.4368(4)
H48 H 0.2998 0.3294 0.3974
C69 C 0.2265(8) 0.2914(7) 0.5182(4)
H49 H 0.1975 0.3526 0.5141
H50 H 0.1861 0.2454 0.5340
H51 H 0.2765 0.2983 0.5430
C70 C 0.2197(6) 0.1679(6) 0.4394(4)
H52 H 0.2638 0.1184 0.4416
H53 H 0.1683 0.1480 0.4602
H54 H 0.2040 0.1788 0.4004
N5 N 0.2550(4) 0.2588(6) 0.4645(3)
O31 O 0.3463(4) 0.3860(4) 0.4698(2)
N6 N 0.7069(4) 0.4933(6) 0.4468(3)
O32 O 0.6968(4) 0.5822(5) 0.4515(2)
O33 O 0.6831(4) 0.4404(4) 0.4828(2)
O34 O 0.7473(3) 0.4621(4) 0.4009(2)
Eu11 Eu 0.94398(3) 0.62632(3) 0.008454(17)
Eu13_6 Eu 1.0000 0.0000 1.0000
O36 O 0.5626(4) 0.9580(4) 0.5488(2)
O37 O 0.4143(3) 0.7434(4) 0.4532(2)
O38 O 0.5857(3) 0.2566(4) 0.5468(2)
O39 O 0.4775(5) 0.6122(5) 0.4343(2)
O40 O 0.5225(5) 0.3878(5) 0.5657(2)
O41 O 0.4498(4) 0.1278(4) 0.5599(2)
O42 O 0.5502(4) 0.8722(4) 0.4401(2)
O43 O 0.3835(4) 0.9848(4) 0.5683(2)
O44 O 0.6165(4) 0.0152(4) 0.4317(2)
Eu13_7 Eu 1.0000 1.0000 -0.0000
C36 C 0.6284(7) 0.9916(6) 0.5750(3)
C37 C 0.6643(5) 0.9467(6) 0.6270(3)
C38 C 0.6315(6) 0.8606(6) 0.6458(4)
H28 H 0.5875 0.8298 0.6249
C39 C 0.6602(5) 0.8213(6) 0.6918(4)
H29 H 0.6376 0.7620 0.7033
C40 C 0.7246(5) 0.8662(6) 0.7246(4)
C41 C 0.7575(5) 0.9521(6) 0.7048(3)
C42 C 0.7276(5) 0.9957(6) 0.6561(3)
C43 C 0.9260(6) 0.8249(7) 0.9222(3)
C44 C 0.8692(5) 0.8347(6) 0.8723(3)
C45 C 0.8109(6) 0.7663(6) 0.8587(3)
H31 H 0.8058 0.7134 0.8828
C46 C 0.7565(6) 0.7694(6) 0.8101(3)
H32 H 0.7146 0.7223 0.8021
C47 C 0.7697(5) 0.8428(6) 0.7779(3)
C48 C 0.8276(6) 0.9154(6) 0.7905(3)
C49 C 0.8786(6) 0.9128(6) 0.8354(3)
H33 H 0.9197 0.9613 0.8425
C50 C 0.8239(6) 0.9974(5) 0.7449(3)
H34 H 0.9034 0.9811 0.6786
H36 H 0.9499 0.9603 0.7369
O20 O 0.9143(3) 0.7566(4) 0.9532(2)
O21 O 0.9775(5) 0.8878(5) 0.9343(2)
Eu13_8 Eu 1.0000 1.0000 1.0000
C1_2 C 0.1284(7) 0.5084(6) 0.0750(3)
C2_2 C 0.1643(5) 0.5533(6) 0.1270(3)
C3_2 C 0.1315(6) 0.6394(6) 0.1458(4)
H1_2 H 0.0875 0.6702 0.1249
C4_2 C 0.1602(5) 0.6787(6) 0.1918(4)
H2_2 H 0.1376 0.7380 0.2033
C5_2 C 0.2246(5) 0.6338(6) 0.2246(4)
C6_2 C 0.2575(5) 0.5479(6) 0.2048(3)
C7_2 C 0.2276(5) 0.5043(6) 0.1561(3)
H3_2 H 0.2493 0.4451 0.1438
C8_2 C 0.4260(6) 0.6751(7) 0.4222(3)
C9_2 C 0.3692(5) 0.6653(6) 0.3723(3)
C10_2 C 0.3109(6) 0.7337(6) 0.3587(3)
H4_2 H 0.3058 0.7866 0.3828
C11_2 C 0.2565(6) 0.7306(6) 0.3101(3)
H5_2 H 0.2146 0.7777 0.3021
C12_2 C 0.2697(5) 0.6572(6) 0.2779(3)
C13_2 C 0.3276(6) 0.5846(6) 0.2905(3)
C14_2 C 0.3786(6) 0.5872(6) 0.3354(3)
H6_2 H 0.4197 0.5387 0.3425
C15_2 C 0.3239(6) 0.5026(5) 0.2449(3)
C16_2 C 0.4092(6) 0.4982(7) 0.2174(4)
H7_2 H 0.4034 0.5189 0.1786
H8_2 H 0.4308 0.4331 0.2183
H9_2 H 0.4499 0.5397 0.2369
O1_2 O 0.1610(4) 0.4320(4) 0.0564(2)
O2_2 O 0.0626(4) 0.5420(4) 0.0488(2)
O5_2 O 0.2973(4) 0.4217(4) 0.2673(2)
H19_2 H 0.2358 0.4111 0.2750
O13_2 O 0.2468(4) 0.2335(4) 0.0271(2)
C17_2 C 0.0357(5) 0.1819(6) 0.9085(3)
C18_2 C 0.0835(5) 0.1868(6) 0.8552(3)
C19_2 C 0.1049(5) 0.2711(6) 0.8317(3)
H10_2 H 0.0884 0.3279 0.8499
C20_2 C 0.1501(6) 0.2766(6) 0.7821(3)
H11_2 H 0.1569 0.3357 0.7639
C21_2 C 0.1842(5) 0.1976(6) 0.7598(3)
C22_2 C 0.1585(5) 0.1072(6) 0.7818(3)
C23_2 C 0.1104(5) 0.1044(6) 0.8288(3)
H12_2 H 0.0947 0.0449 0.8441
C24_2 C 0.3943(6) 0.0725(6) 0.5807(3)
C25_2 C 0.3385(5) 0.1081(6) 0.6273(3)
C26_2 C 0.3328(6) 0.2068(6) 0.6345(4)
H13_2 H 0.3644 0.2483 0.6111
C27_2 C 0.2801(6) 0.2428(6) 0.6764(3)
H14_2 H 0.2754 0.3090 0.6821
C28_2 C 0.2344(5) 0.1795(6) 0.7102(3)
C29_2 C 0.2464(5) 0.0837(6) 0.7052(3)
C30_2 C 0.2978(5) 0.0483(6) 0.6613(3)
C31_2 C 0.2027(6) 0.0304(6) 0.7484(3)
N1_2 N 0.2436(5) 0.2509(6) 0.9775(3)
O6_2 O 0.0109(3) 0.2576(4) 0.9300(2)
O7_2 O 0.0232(4) 0.1025(4) 0.9315(2)
O11_2 O 0.1928(3) 0.3087(4) 0.9580(2)
O12_2 O 0.2966(4) 0.2143(4) 0.9447(2)
N3_2 N 0.2069(4) 0.0067(6) 0.9468(3)
O16_2 O 0.1831(4) 0.0596(4) 0.9828(2)
O17_2 O 0.2473(3) 0.0379(4) 0.9009(2)
C68_2 C 0.2000(6) 0.8251(8) 0.0632(4)
H48_2 H 0.2002 0.8294 0.1026
C70_2 C 0.2803(6) 0.6679(6) 0.0606(4)
H52_2 H 0.2362 0.6184 0.0584
H53_2 H 0.3317 0.6480 0.0398
H54_2 H 0.2960 0.6788 0.0996
N5_2 N 0.2450(4) 0.7588(6) 0.0355(3)
O31_2 O 0.1537(4) 0.8860(4) 0.0302(2)
H15_2 H 0.3033 0.9820 0.6560
C32_2 C 0.1364(6) 0.9543(7) 0.7300(3)
H16_2 H 0.1671 0.8998 0.7146
H17_2 H 0.0978 0.9809 0.7017
H18_2 H 0.1024 0.9342 0.7622
O10_2 O 0.2636(4) 0.9905(4) 0.7826(2)
H20_2 H 0.2374 0.9579 0.8132
O15_2 O 0.1968(4) 0.9178(5) 0.9515(2)
C69_2 C 0.2735(8) 0.7914(7) 0.9818(4)
H49_2 H 0.3025 0.8526 0.9859
H50_2 H 0.3139 0.7454 0.9660
H51_2 H 0.2235 0.7983 0.9570
C34_2 C 0.7265(8) 0.2086(7) 0.0182(4)
H22_2 H 0.6975 0.1474 0.0141
H23_2 H 0.6861 0.2546 0.0340
H24_2 H 0.7765 0.2017 0.0430
H42_2 H 0.6967 0.0180 0.3440
C67_2 C 0.8636(6) 0.0457(7) 0.2700(3)
H43_2 H 0.8329 0.1002 0.2854
H44_2 H 0.9022 0.0191 0.2983
H45_2 H 0.8976 0.0658 0.2378
O27_2 O 0.7364(4) 0.0095(4) 0.2174(2)
H47_2 H 0.7626 0.0421 0.1868
O32_2 O 0.8032(4) 0.0822(5) 0.0485(2)
C33_2 C 0.8000(6) 0.1749(8) 0.9368(4)
H21_2 H 0.7998 0.1706 0.8974
C35_2 C 0.7197(6) 0.3321(6) 0.9394(4)
H25_2 H 0.7638 0.3816 0.9416
H26_2 H 0.6683 0.3520 0.9602
H27_2 H 0.7040 0.3212 0.9004
N2_2 N 0.7550(4) 0.2412(6) 0.9645(3)
O14_2 O 0.8463(4) 0.1140(4) 0.9698(2)
O36_2 O 0.9374(4) 0.4580(4) 0.9512(2)
C52_2 C 0.9643(5) 0.8181(6) 0.0915(3)
C53_2 C 0.9165(5) 0.8132(6) 0.1448(3)
C54_2 C 0.8951(5) 0.7289(6) 0.1683(3)
H37_2 H 0.9116 0.6721 0.1501
C55_2 C 0.8499(6) 0.7234(6) 0.2179(3)
H38_2 H 0.8431 0.6643 0.2361
C56_2 C 0.8158(5) 0.8024(6) 0.2402(3)
C57_2 C 0.8415(5) 0.8928(6) 0.2182(3)
C58_2 C 0.8896(5) 0.8956(6) 0.1712(3)
H39_2 H 0.9053 0.9551 0.1559
C59_2 C 0.6057(6) 0.9275(6) 0.4193(3)
C60_2 C 0.6615(5) 0.8919(6) 0.3727(3)
C61_2 C 0.6672(6) 0.7932(6) 0.3655(4)
H40_2 H 0.6356 0.7517 0.3889
C62_2 C 0.7199(6) 0.7572(6) 0.3236(3)
H41_2 H 0.7246 0.6910 0.3179
C63_2 C 0.7656(5) 0.8205(6) 0.2898(3)
C64_2 C 0.7536(5) 0.9163(6) 0.2948(3)
C65_2 C 0.7022(5) 0.9517(6) 0.3387(3)
C66_2 C 0.7973(6) 0.9696(6) 0.2516(3)
N4_2 N 0.7564(5) 0.7491(6) 0.0225(3)
O23_2 O 0.9891(3) 0.7424(4) 0.0700(2)
O24_2 O 0.9768(4) 0.8975(4) 0.0685(2)
O28_2 O 0.8072(3) 0.6913(4) 0.0420(2)
O29_2 O 0.7034(4) 0.7857(4) 0.0553(2)
N6_2 N 0.7931(4) 0.9933(6) 0.0532(3)
O33_2 O 0.8169(4) 0.9404(4) 0.0172(2)
O34_2 O 0.7527(3) 0.9621(4) 0.0991(2)
C36_2 C 0.8716(7) 0.4916(6) 0.9250(3)
C37_2 C 0.8357(5) 0.4467(6) 0.8730(3)
C38_2 C 0.8685(6) 0.3606(6) 0.8542(4)
H28_2 H 0.9125 0.3298 0.8751
C39_2 C 0.8398(5) 0.3213(6) 0.8082(4)
H29_2 H 0.8624 0.2620 0.7967
C40_2 C 0.7754(5) 0.3662(6) 0.7754(4)
C41_2 C 0.7425(5) 0.4521(6) 0.7952(3)
C42_2 C 0.7724(5) 0.4957(6) 0.8439(3)
H30_2 H 0.7507 0.5549 0.8562
C43_2 C 0.5740(6) 0.3249(7) 0.5778(3)
C44_2 C 0.6308(5) 0.3347(6) 0.6277(3)
C45_2 C 0.6891(6) 0.2663(6) 0.6413(3)
H31_2 H 0.6942 0.2134 0.6172
C46_2 C 0.7435(6) 0.2694(6) 0.6899(3)
H32_2 H 0.7854 0.2223 0.6979
C47_2 C 0.7303(5) 0.3428(6) 0.7221(3)
C48_2 C 0.6724(6) 0.4154(6) 0.7095(3)
C49_2 C 0.6214(6) 0.4128(6) 0.6646(3)
H33_2 H 0.5803 0.4613 0.6575
C50_2 C 0.6761(6) 0.4974(5) 0.7551(3)
C51_2 C 0.5908(6) 0.5018(7) 0.7826(4)
H34_2 H 0.5966 0.4811 0.8214
H35_2 H 0.5692 0.5669 0.7817
H36_2 H 0.5501 0.4603 0.7631
O18_2 O 0.8390(4) 0.5680(4) 0.9436(2)
O22_2 O 0.7027(4) 0.5783(4) 0.7327(2)
H46_2 H 0.7642 0.5889 0.7250
O30_2 O 0.7532(4) 0.7665(4) 0.9729(2)
H60 H 0.0159 0.6697 0.3885
C71 C 0.9287(10) 0.5292(12) 0.4599(6)
H55 H 0.9697 0.4781 0.4523
H56 H 0.8755 0.5025 0.4755
H57 H 0.9543 0.5734 0.4867
C72 C 0.9637(13) 0.6758(13) 0.4111(14)
H58 H 0.9800 0.6861 0.4501
H59 H 0.9294 0.7296 0.3978
N7 N 0.9077(11) 0.5813(10) 0.4061(8)
H61 H 0.8496 0.5948 0.4036
H62 H 0.9238 0.5464 0.3756
C71_2 C 0.5713(10) 0.0292(12) 0.0401(6)
H56_2 H 0.6245 0.0025 0.0245
H57_2 H 0.5457 0.0734 0.0133
C72_2 C 0.5363(13) 0.1758(13) 0.0889(14)
H58_2 H 0.5200 0.1861 0.0499
H59_2 H 0.5706 0.2296 0.1022
H60_2 H 0.4841 0.1697 0.1115
N7_2 N 0.5923(11) 0.0813(10) 0.0939(8)
H61_2 H 0.6504 0.0948 0.0964
H62_2 H 0.5762 0.0464 0.1244
H55_2 H 0.5303 0.9781 0.0477
C71_3 C 0.0713(10) 0.4708(12) 0.5401(6)
H55_3 H 0.0303 0.5219 0.5477
H56_3 H 0.1245 0.4975 0.5245
H57_3 H 0.0457 0.4266 0.5133
C72_3 C 0.0363(13) 0.3242(13) 0.5889(14)
H58_3 H 0.0200 0.3139 0.5499
H59_3 H 0.0706 0.2704 0.6022
N7_3 N 0.0923(11) 0.4187(10) 0.5939(8)
H61_3 H 0.1504 0.4052 0.5964
H62_3 H 0.0762 0.4536 0.6244
H60_3 H 0.9841 0.3303 0.6115
H55_4 H 0.4697 0.0219 0.9523
C71_4 C 0.4287(10) 0.9708(12) 0.9599(6)
H56_4 H 0.3755 0.9975 0.9755
H57_4 H 0.4543 0.9266 0.9867
C72_4 C 0.4637(13) 0.8242(13) 0.9111(14)
H58_4 H 0.4800 0.8139 0.9501
H59_4 H 0.4294 0.7704 0.8978
H60_4 H 0.5159 0.8303 0.8885
N7_4 N 0.4077(11) 0.9187(10) 0.9061(8)
H61_4 H 0.3496 0.9052 0.9036
H62_4 H 0.4238 0.9536 0.8756
C73 C 0.4995(6) 0.7374(6) 0.2519(4)
H63 H 0.5163 0.7437 0.2128
H64 H 0.4495 0.6953 0.2548
H65 H 0.5479 0.7110 0.2733
C74 C 0.5415(6) 0.9042(7) 0.2638(4)
H66 H 0.5899 0.8962 0.2898
H67 H 0.5161 0.9671 0.2689
H68 H 0.5623 0.8978 0.2256
N8 N 0.4766(5) 0.8327(5) 0.2747(3)
H69 H 0.4250 0.8519 0.2592
H70 H 0.4688 0.8278 0.3125
C73_2 C 0.0005(6) 0.2374(6) 0.2481(4)
H64_2 H 0.0505 0.1953 0.2452
N8_2 N 0.0234(5) 0.3327(5) 0.2253(3)
H69_2 H 0.0750 0.3519 0.2408
H70_2 H 0.0312 0.3278 0.1875
H63_2 H 0.9837 0.2437 0.2872
H65_2 H 0.9521 0.2110 0.2267
C74_2 C 0.9585(6) 0.4042(7) 0.2362(4)
H66_2 H 0.9101 0.3962 0.2102
H67_2 H 0.9839 0.4671 0.2311
H68_2 H 0.9377 0.3978 0.2744
C73_3 C 0.5005(6) 0.2626(6) 0.7481(4)
H63_3 H 0.4837 0.2563 0.7872
H64_3 H 0.5505 0.3047 0.7452
H65_3 H 0.4521 0.2890 0.7267
C74_3 C 0.4585(6) 0.0958(7) 0.7362(4)
H66_3 H 0.4101 0.1038 0.7102
H67_3 H 0.4839 0.0329 0.7311
H68_3 H 0.4377 0.1022 0.7744
N8_3 N 0.5234(5) 0.1673(5) 0.7253(3)
H69_3 H 0.5750 0.1481 0.7408
H70_3 H 0.5312 0.1722 0.6875
H63_4 H 0.0163 0.7563 0.7128
H65_4 H 0.0479 0.7890 0.7733
C74_4 C 0.0415(6) 0.5958(7) 0.7638(4)
H66_4 H 0.0899 0.6038 0.7898
H67_4 H 0.0161 0.5329 0.7689
H68_4 H 0.0623 0.6022 0.7256
C73_4 C 0.9995(6) 0.7626(6) 0.7519(4)
H64_4 H 0.9495 0.8047 0.7548
N8_4 N 0.9766(5) 0.6673(5) 0.7747(3)
H69_4 H 0.9250 0.6481 0.7592
H70_4 H 0.9688 0.6722 0.8125
loop_
_geom_bond_atom_site_label_1
_geom_bond_atom_site_label_2
_geom_bond_site_symmetry_1
_geom_bond_site_symmetry_2
C1 C2 1_555 1_555
C2 C3 1_555 1_555
C3 H1 1_555 1_555
C4 C3 1_555 1_555
H2 C4 1_555 1_555
C5 C4 1_555 1_555
C6 C5 1_555 1_555
C7 C2 1_555 1_555
C8 C9 1_555 1_555
C9 C10 1_555 1_555
C10 H4 1_555 1_555
C11 C10 1_555 1_555
H5 C11 1_555 1_555
C12 C5 1_555 1_555
C13 C12 1_555 1_555
C14 C9 1_555 1_555
H6 C14 1_555 1_555
C15 C6 1_555 1_555
O2 C1 1_555 1_555
O3 C8 1_555 1_555
O4 C8 1_555 1_555
Eu8 O2 1_555 1_555
Eu13 O4 1_555 1_555
C6 C7 1_555 1_555
C11 C12 1_555 1_555
C13 C14 1_555 1_555
C13 C15 1_555 1_555
H8 C16 1_555 1_555
C17 C18 1_555 1_555
C18 C19 1_555 1_555
C19 H10 1_555 1_555
C20 C19 1_555 1_555
H11 C20 1_555 1_555
C21 C20 1_555 1_555
C22 C21 1_555 1_555
C23 C18 1_555 1_555
H12 C23 1_555 1_555
C24 C25 1_555 1_555
C25 C26 1_555 1_555
C26 H13 1_555 1_555
C27 C26 1_555 1_555
H14 C27 1_555 1_555
C28 C21 1_555 1_555
C29 C28 1_555 1_555
C30 C25 1_555 1_555
H15 C30 1_555 1_555
C31 C22 1_555 1_555
C32 C31 1_555 1_555
H16 C32 1_555 1_555
H17 C32 1_555 1_555
H18 C32 1_555 1_555
Eu1 O1 1_555 1_555
Eu2 O7 1_555 1_555
N1 O11 1_555 1_555
H19 O5 1_555 1_555
O6 C17 1_555 1_555
O7 C17 1_555 1_555
O8 C24 1_555 1_555
O9 C24 1_555 1_555
O10 C31 1_555 1_555
H20 O10 1_555 1_555
O11 Eu1 1_555 1_555
O12 N1 1_555 1_555
O13 N1 1_555 1_555
C33 H21 1_555 1_555
C34 H22 1_555 1_555
H23 C34 1_555 1_555
H24 C34 1_555 1_555
C35 H25 1_555 1_555
H26 C35 1_555 1_555
H27 C35 1_555 1_555
N2 C33 1_555 1_555
O14 Eu2 1_555 1_555
N3 O15 1_555 1_555
O16 Eu2 1_555 1_555
O17 N3 1_555 1_555
H35 C51 1_555 1_555
C52 C53 1_555 1_555
C53 C54 1_555 1_555
C54 H37 1_555 1_555
C55 C54 1_555 1_555
H38 C55 1_555 1_555
C56 C55 1_555 1_555
C57 C56 1_555 1_555
C58 C53 1_555 1_555
H39 C58 1_555 1_555
C59 C60 1_555 1_555
C60 C61 1_555 1_555
C61 H40 1_555 1_555
C62 C61 1_555 1_555
H41 C62 1_555 1_555
C63 C56 1_555 1_555
C64 C63 1_555 1_555
C65 C60 1_555 1_555
H42 C65 1_555 1_555
C66 C57 1_555 1_555
C67 C66 1_555 1_555
H43 C67 1_555 1_555
H44 C67 1_555 1_555
H45 C67 1_555 1_555
Eu8 O18 1_555 1_555
N4 O28 1_555 1_555
H46 O22 1_555 1_555
O23 C52 1_555 1_555
O24 Eu2 1_555 1_555
O25 C59 1_555 1_555
O26 C59 1_555 1_555
O27 C66 1_555 1_555
H47 O27 1_555 1_555
O28 Eu8 1_555 1_555
O29 N4 1_555 1_555
O30 N4 1_555 1_555
C68 H48 1_555 1_555
C69 H49 1_555 1_555
H50 C69 1_555 1_555
H51 C69 1_555 1_555
C70 H52 1_555 1_555
H53 C70 1_555 1_555
H54 C70 1_555 1_555
N5 C68 1_555 1_555
O31 Eu2 1_555 1_555
N6 O32 1_555 1_555
O33 Eu2 1_555 1_555
O34 N6 1_555 1_555
Eu7 O9 1_555 1_555
Eu11 O26 1_555 1_555
O36 Eu1 1_555 1_555
O37 Eu1 1_555 1_555
O38 Eu8 1_555 1_555
O39 Eu2 1_555 1_555
O40 Eu2 1_555 1_555
O41 Eu8 1_555 1_555
O42 Eu1 1_555 1_555
O43 Eu1 1_555 1_555
O44 Eu8 1_555 1_555
C22 C23 1_555 1_555
C27 C28 1_555 1_555
C29 C30 1_555 1_555
C29 C31 1_555 1_555
Eu1 O6 1_555 1_555
C33 O14 1_555 1_555
C34 N2 1_555 1_555
C35 N2 1_555 1_555
N3 O16 1_555 1_555
C52 O24 1_555 1_555
C57 C58 1_555 1_555
C62 C63 1_555 1_555
C64 C65 1_555 1_555
C64 C66 1_555 1_555
Eu8 O23 1_555 1_555
C68 O31 1_555 1_555
C69 N5 1_555 1_555
C70 N5 1_555 1_555
N6 O33 1_555 1_555
C36 C37 1_555 1_555
C37 C38 1_555 1_555
C38 H28 1_555 1_555
C39 C38 1_555 1_555
H29 C39 1_555 1_555
C40 C39 1_555 1_555
C41 C40 1_555 1_555
C42 C37 1_555 1_555
C43 C44 1_555 1_555
C44 C45 1_555 1_555
C45 H31 1_555 1_555
C46 C45 1_555 1_555
H32 C46 1_555 1_555
C47 C40 1_555 1_555
C48 C47 1_555 1_555
C49 C44 1_555 1_555
H33 C49 1_555 1_555
C50 C41 1_555 1_555
O36 C36 1_555 1_555
O20 C43 1_555 1_555
O21 C43 1_555 1_555
Eu13_8 O21 1_555 1_555
C41 C42 1_555 1_555
C46 C47 1_555 1_555
C48 C49 1_555 1_555
C48 C50 1_555 1_555
C1_2 C2_2 1_555 1_555
C2_2 C3_2 1_555 1_555
C3_2 H1_2 1_555 1_555
C4_2 C3_2 1_555 1_555
H2_2 C4_2 1_555 1_555
C5_2 C4_2 1_555 1_555
C6_2 C5_2 1_555 1_555
C7_2 C2_2 1_555 1_555
H3_2 C7_2 1_555 1_555
C8_2 C9_2 1_555 1_555
C9_2 C10_2 1_555 1_555
C10_2 H4_2 1_555 1_555
C11_2 C10_2 1_555 1_555
H5_2 C11_2 1_555 1_555
C12_2 C5_2 1_555 1_555
C13_2 C12_2 1_555 1_555
C14_2 C9_2 1_555 1_555
H6_2 C14_2 1_555 1_555
C15_2 C6_2 1_555 1_555
C16_2 C15_2 1_555 1_555
H7_2 C16_2 1_555 1_555
H8_2 C16_2 1_555 1_555
H9_2 C16_2 1_555 1_555
O1_2 C1_2 1_555 1_555
O2_2 C1_2 1_555 1_555
O37 C8_2 1_555 1_555
O39 C8_2 1_555 1_555
O5_2 C15_2 1_555 1_555
H19_2 O5_2 1_555 1_555
C6_2 C7_2 1_555 1_555
C11_2 C12_2 1_555 1_555
C13_2 C14_2 1_555 1_555
C13_2 C15_2 1_555 1_555
C17_2 C18_2 1_555 1_555
C18_2 C19_2 1_555 1_555
C19_2 H10_2 1_555 1_555
C20_2 C19_2 1_555 1_555
H11_2 C20_2 1_555 1_555
C21_2 C20_2 1_555 1_555
C22_2 C21_2 1_555 1_555
C23_2 C18_2 1_555 1_555
H12_2 C23_2 1_555 1_555
C24_2 C25_2 1_555 1_555
C25_2 C26_2 1_555 1_555
C26_2 H13_2 1_555 1_555
C27_2 C26_2 1_555 1_555
H14_2 C27_2 1_555 1_555
C28_2 C21_2 1_555 1_555
C29_2 C28_2 1_555 1_555
C30_2 C25_2 1_555 1_555
C31_2 C22_2 1_555 1_555
Eu13_2 O7_2 1_555 1_555
N1_2 O11_2 1_555 1_555
O6_2 C17_2 1_555 1_555
O7_2 C17_2 1_555 1_555
O41 C24_2 1_555 1_555
O11_2 Eu7 1_555 1_555
O12_2 N1_2 1_555 1_555
O16_2 Eu13_2 1_555 1_555
O17_2 N3_2 1_555 1_555
C22_2 C23_2 1_555 1_555
C27_2 C28_2 1_555 1_555
C29_2 C30_2 1_555 1_555
C29_2 C31_2 1_555 1_555
Eu7 O6_2 1_555 1_555
N3_2 O16_2 1_555 1_555
C68_2 H48_2 1_555 1_555
C70_2 H52_2 1_555 1_555
H53_2 C70_2 1_555 1_555
H54_2 C70_2 1_555 1_555
N5_2 C68_2 1_555 1_555
O31_2 Eu13_3 1_555 1_555
C68_2 O31_2 1_555 1_555
C70_2 N5_2 1_555 1_555
H16_2 C32_2 1_555 1_555
H17_2 C32_2 1_555 1_555
H18_2 C32_2 1_555 1_555
H20_2 O10_2 1_555 1_555
C69_2 H49_2 1_555 1_555
H50_2 C69_2 1_555 1_555
H51_2 C69_2 1_555 1_555
C34_2 H22_2 1_555 1_555
H23_2 C34_2 1_555 1_555
H24_2 C34_2 1_555 1_555
H43_2 C67_2 1_555 1_555
H44_2 C67_2 1_555 1_555
H45_2 C67_2 1_555 1_555
H47_2 O27_2 1_555 1_555
C33_2 H21_2 1_555 1_555
C35_2 H25_2 1_555 1_555
H26_2 C35_2 1_555 1_555
H27_2 C35_2 1_555 1_555
N2_2 C33_2 1_555 1_555
O14_2 Eu13_6 1_555 1_555
C33_2 O14_2 1_555 1_555
C35_2 N2_2 1_555 1_555
C52_2 C53_2 1_555 1_555
C53_2 C54_2 1_555 1_555
C54_2 H37_2 1_555 1_555
C55_2 C54_2 1_555 1_555
H38_2 C55_2 1_555 1_555
C56_2 C55_2 1_555 1_555
C57_2 C56_2 1_555 1_555
C58_2 C53_2 1_555 1_555
H39_2 C58_2 1_555 1_555
C59_2 C60_2 1_555 1_555
C60_2 C61_2 1_555 1_555
C61_2 H40_2 1_555 1_555
C62_2 C61_2 1_555 1_555
H41_2 C62_2 1_555 1_555
C63_2 C56_2 1_555 1_555
C64_2 C63_2 1_555 1_555
C65_2 C60_2 1_555 1_555
C66_2 C57_2 1_555 1_555
N4_2 O28_2 1_555 1_555
O23_2 C52_2 1_555 1_555
O24_2 Eu13_7 1_555 1_555
O42 C59_2 1_555 1_555
O28_2 Eu11 1_555 1_555
O29_2 N4_2 1_555 1_555
O33_2 Eu13_7 1_555 1_555
O34_2 N6_2 1_555 1_555
C52_2 O24_2 1_555 1_555
C57_2 C58_2 1_555 1_555
C62_2 C63_2 1_555 1_555
C64_2 C65_2 1_555 1_555
C64_2 C66_2 1_555 1_555
Eu11 O23_2 1_555 1_555
N6_2 O33_2 1_555 1_555
C36_2 C37_2 1_555 1_555
C37_2 C38_2 1_555 1_555
C38_2 H28_2 1_555 1_555
C39_2 C38_2 1_555 1_555
H29_2 C39_2 1_555 1_555
C40_2 C39_2 1_555 1_555
C41_2 C40_2 1_555 1_555
C42_2 C37_2 1_555 1_555
H30_2 C42_2 1_555 1_555
C43_2 C44_2 1_555 1_555
C44_2 C45_2 1_555 1_555
C45_2 H31_2 1_555 1_555
C46_2 C45_2 1_555 1_555
H32_2 C46_2 1_555 1_555
C47_2 C40_2 1_555 1_555
C48_2 C47_2 1_555 1_555
C49_2 C44_2 1_555 1_555
H33_2 C49_2 1_555 1_555
C50_2 C41_2 1_555 1_555
C51_2 C50_2 1_555 1_555
H34_2 C51_2 1_555 1_555
H35_2 C51_2 1_555 1_555
H36_2 C51_2 1_555 1_555
O18_2 C36_2 1_555 1_555
O36_2 C36_2 1_555 1_555
O38 C43_2 1_555 1_555
O40 C43_2 1_555 1_555
O22_2 C50_2 1_555 1_555
H46_2 O22_2 1_555 1_555
C41_2 C42_2 1_555 1_555
C46_2 C47_2 1_555 1_555
C48_2 C49_2 1_555 1_555
C48_2 C50_2 1_555 1_555
C71 H55 1_555 1_555
H56 C71 1_555 1_555
H57 C71 1_555 1_555
C72 H58 1_555 1_555
H59 C72 1_555 1_555
N7 C71 1_555 1_555
H61 N7 1_555 1_555
H62 N7 1_555 1_555
C72 N7 1_555 1_555
H56_2 C71_2 1_555 1_555
H57_2 C71_2 1_555 1_555
C72_2 H58_2 1_555 1_555
H59_2 C72_2 1_555 1_555
H60_2 C72_2 1_555 1_555
N7_2 C71_2 1_555 1_555
H61_2 N7_2 1_555 1_555
H62_2 N7_2 1_555 1_555
C72_2 N7_2 1_555 1_555
C71_3 H55_3 1_555 1_555
H56_3 C71_3 1_555 1_555
H57_3 C71_3 1_555 1_555
C72_3 H58_3 1_555 1_555
H59_3 C72_3 1_555 1_555
N7_3 C71_3 1_555 1_555
H61_3 N7_3 1_555 1_555
H62_3 N7_3 1_555 1_555
C72_3 N7_3 1_555 1_555
H56_4 C71_4 1_555 1_555
H57_4 C71_4 1_555 1_555
C72_4 H58_4 1_555 1_555
H59_4 C72_4 1_555 1_555
H60_4 C72_4 1_555 1_555
N7_4 C71_4 1_555 1_555
H61_4 N7_4 1_555 1_555
H62_4 N7_4 1_555 1_555
C72_4 N7_4 1_555 1_555
C73 H63 1_555 1_555
H64 C73 1_555 1_555
H65 C73 1_555 1_555
C74 H66 1_555 1_555
H67 C74 1_555 1_555
H68 C74 1_555 1_555
N8 C73 1_555 1_555
H69 N8 1_555 1_555
H70 N8 1_555 1_555
C74 N8 1_555 1_555
H64_2 C73_2 1_555 1_555
N8_2 C73_2 1_555 1_555
H69_2 N8_2 1_555 1_555
H70_2 N8_2 1_555 1_555
C74_2 H66_2 1_555 1_555
H67_2 C74_2 1_555 1_555
H68_2 C74_2 1_555 1_555
C73_3 H63_3 1_555 1_555
H64_3 C73_3 1_555 1_555
H65_3 C73_3 1_555 1_555
C74_3 H66_3 1_555 1_555
H67_3 C74_3 1_555 1_555
H68_3 C74_3 1_555 1_555
N8_3 C73_3 1_555 1_555
H69_3 N8_3 1_555 1_555
H70_3 N8_3 1_555 1_555
C74_3 N8_3 1_555 1_555
C74_4 H66_4 1_555 1_555
H67_4 C74_4 1_555 1_555
H68_4 C74_4 1_555 1_555
H64_4 C73_4 1_555 1_555
N8_4 C73_4 1_555 1_555
H69_4 N8_4 1_555 1_555
H70_4 N8_4 1_555 1_555

#END
