
###############################################################################
#
# This file contains modified crystal structure data generated from the
# MOF subset of the Cambridge Structural Database (CSD) v543 
# hosted by the Cambridge Crystallographic Data Centre (CCDC).
#
# This work is licensed under the Creative Commons
# Attribution-NonCommercial-ShareAlike 4.0 International License.
# To view a copy of this license, visit
# http://creativecommons.org/licenses/by-nc-sa/4.0/
# or send a letter to
# Creative Commons, PO Box 1866, Mountain View, CA 94042, USA.
#
# CIF created using the CSD Python API on 29 September 2022
# The structure has been converted into the P1 space group
# The structure has a 3D framework
# The original CSD entry MOVGUB is in the monoclinic crystal system
# The framework has been calculated to contain at least 10.0% void space
# The void calculation uses a probe of radius 1.32A, grid spacing 0.4
# The framework is charged, counterions have been retained in the structure
#
###############################################################################

data_MOVGUB
_chemical_formula_moiety         '(C144 H104 Eu8 N32 O80 Zn6 4+)n'
_symmetry_cell_setting           triclinic
_symmetry_space_group_name_H-M   'P 1'
_symmetry_Int_Tables_number      1
_space_group_name_Hall           'P 1'
loop_
_symmetry_equiv_pos_site_id
_symmetry_equiv_pos_as_xyz
1 x,y,z
_cell_length_a                   17.0712(9)
_cell_length_b                   16.9810(11)
_cell_length_c                   20.3832(10)
_cell_angle_alpha                90
_cell_angle_beta                 108.073(6)
_cell_angle_gamma                90
_cell_volume                     5617.28
loop_
_atom_site_label
_atom_site_type_symbol
_atom_site_fract_x
_atom_site_fract_y
_atom_site_fract_z
O1 O 0.2992(12) 0.9000(13) 0.7775(11)
O2 O 0.3453(6) 0.9097(7) 0.6722(5)
N1 N 0.3192(16) 0.8667(19) 0.7184(13)
O3 O 0.2875(13) 0.7994(15) 0.7391(10)
O1_2 O 0.7008(12) 0.9000(13) 0.7225(11)
O2_2 O 0.6547(6) 0.9097(7) 0.8278(5)
N1_2 N 0.6808(16) 0.8667(19) 0.7816(13)
O3_2 O 0.7125(13) 0.7994(15) 0.7609(10)
O1_3 O 0.7992(12) 0.4000(13) 0.7775(11)
O2_3 O 0.8453(6) 0.4097(7) 0.6722(5)
N1_3 N 0.8192(16) 0.3667(19) 0.7184(13)
O3_3 O 0.7875(13) 0.2994(15) 0.7391(10)
O1_4 O 0.2008(12) 0.4000(13) 0.7225(11)
O2_4 O 0.1547(6) 0.4097(7) 0.8278(5)
N1_4 N 0.1808(16) 0.3667(19) 0.7816(13)
O3_4 O 0.2125(13) 0.2994(15) 0.7609(10)
O1_5 O 0.7008(12) 0.1000(13) 0.2225(11)
O2_5 O 0.6547(6) 0.0903(7) 0.3278(5)
N1_5 N 0.6808(16) 0.1333(19) 0.2816(13)
O3_5 O 0.7125(13) 0.2006(15) 0.2609(10)
O1_6 O 0.2992(12) 0.1000(13) 0.2775(11)
O2_6 O 0.3453(6) 0.0903(7) 0.1722(5)
N1_6 N 0.3192(16) 0.1333(19) 0.2184(13)
O3_6 O 0.2875(13) 0.2006(15) 0.2391(10)
O1_7 O 0.2008(12) 0.6000(13) 0.2225(11)
O2_7 O 0.1547(6) 0.5903(7) 0.3278(5)
N1_7 N 0.1808(16) 0.6333(19) 0.2816(13)
O3_7 O 0.2125(13) 0.7006(15) 0.2609(10)
O1_8 O 0.7992(12) 0.6000(13) 0.2775(11)
O2_8 O 0.8453(6) 0.5903(7) 0.1722(5)
N1_8 N 0.8192(16) 0.6333(19) 0.2184(13)
O3_8 O 0.7875(13) 0.7006(15) 0.2391(10)
Eu6 Eu 0.00554(2) 0.56227(3) 0.91741(2)
Eu3 Eu 0.49446(2) 0.06227(3) 0.58259(2)
Eu4 Eu 0.50554(2) 0.06227(3) 0.91741(2)
O18 O 0.8449(4) 0.4570(4) 0.0327(3)
Eu8 Eu 0.49446(2) 0.93773(3) 0.08259(2)
Eu10 Eu 0.99446(2) 0.43773(3) 0.08259(2)
O29 O 0.5405(4) 0.1411(4) 0.0208(3)
Zn1 Zn 0.5000 0.55994(9) 0.7500
C1 C 0.5128(5) 0.3093(6) 0.6388(4)
C2 C 0.4421(6) 0.3528(6) 0.6261(4)
H1 H 0.3911 0.3303 0.6035
C3 C 0.4475(5) 0.4306(6) 0.6473(4)
C4 C 0.5886(5) 0.4212(6) 0.6951(5)
H2 H 0.6386 0.4444 0.7190
C5 C 0.5887(5) 0.3445(6) 0.6722(4)
H3 H 0.6378 0.3172 0.6788
C6 C 0.3734(5) 0.4821(6) 0.6344(4)
C7 C 0.3011(5) 0.4687(6) 0.5818(4)
H4 H 0.2969 0.4252 0.5532
C8 C 0.2360(5) 0.5184(6) 0.5713(4)
C9 C 0.2451(5) 0.5862(6) 0.6123(4)
H5 H 0.2024 0.6225 0.6050
C10 C 0.3184(5) 0.5979(6) 0.6634(5)
H6 H 0.3248 0.6426 0.6908
C11 C 0.5481(6) 0.6528(6) 0.6366(4)
H7 H 0.5612 0.6041 0.6220
C12 C 0.5496(6) 0.7186(6) 0.5971(4)
H8 H 0.5622 0.7144 0.5560
C13 C 0.5319(5) 0.7901(6) 0.6203(4)
C14 C 0.5117(5) 0.7952(6) 0.6813(5)
H9 H 0.4989 0.8435 0.6970
C15 C 0.5113(5) 0.7279(5) 0.7175(4)
C16 C 0.5277(5) 0.8643(6) 0.5780(5)
C17 C 0.1549(5) 0.4999(6) 0.5176(4)
C18 C 0.5092(5) 0.2242(6) 0.6196(4)
N2 N 0.5196(4) 0.4634(5) 0.6844(4)
N3 N 0.3811(4) 0.5469(5) 0.6750(4)
N4 N 0.5284(4) 0.6567(5) 0.6958(3)
O4 O 0.4401(4) 0.0426(5) 0.6799(3)
H10 H 0.4805 0.0361 0.7192
H11 H 0.4084 0.0002 0.6732
O5 O 0.6139(4) 0.0422(5) 0.6824(3)
H12 H 0.6406 0.0874 0.6966
H13 H 0.6497 0.0086 0.6735
O6 O 0.5710(4) 0.1899(4) 0.6121(3)
O7 O 0.4421(4) 0.1883(4) 0.6108(4)
O8 O 0.1551(4) 0.4570(4) 0.4673(3)
O9 O 0.0898(3) 0.5257(4) 0.5252(3)
O10 O 0.5116(4) 0.9269(4) 0.6049(3)
O11 O 0.5405(4) 0.8589(4) 0.5208(3)
C19 C 0.4519(6) 0.6528(6) 0.8634(4)
H14 H 0.4388 0.6041 0.8780
C20 C 0.4504(6) 0.7186(6) 0.9029(4)
H15 H 0.4378 0.7144 0.9440
C21 C 0.4681(5) 0.7901(6) 0.8797(4)
C22 C 0.4883(5) 0.7952(6) 0.8187(5)
H16 H 0.5011 0.8435 0.8030
C23 C 0.4887(5) 0.7279(5) 0.7825(4)
C24 C 0.4723(5) 0.8643(6) 0.9220(5)
N5 N 0.4716(4) 0.6567(5) 0.8042(3)
O12 O 0.4884(4) 0.9269(4) 0.8951(3)
O13 O 0.4595(4) 0.8589(4) 0.9792(3)
C25 C 0.4872(5) 0.3093(6) 0.8612(4)
C26 C 0.5579(6) 0.3528(6) 0.8739(4)
H17 H 0.6089 0.3303 0.8965
C27 C 0.5525(5) 0.4306(6) 0.8527(4)
C28 C 0.4114(5) 0.4212(6) 0.8049(5)
H18 H 0.3614 0.4444 0.7810
C29 C 0.4113(5) 0.3445(6) 0.8278(4)
H19 H 0.3622 0.3172 0.8212
C30 C 0.6266(5) 0.4821(6) 0.8656(4)
C31 C 0.6989(5) 0.4687(6) 0.9182(4)
H20 H 0.7031 0.4252 0.9468
C32 C 0.7640(5) 0.5184(6) 0.9287(4)
C33 C 0.7549(5) 0.5862(6) 0.8877(4)
H21 H 0.7976 0.6225 0.8950
C34 C 0.6816(5) 0.5979(6) 0.8366(5)
H22 H 0.6752 0.6426 0.8092
C35 C 0.8451(5) 0.4999(6) 0.9824(4)
C36 C 0.4908(5) 0.2242(6) 0.8804(4)
N6 N 0.4804(4) 0.4634(5) 0.8156(4)
N7 N 0.6189(4) 0.5469(5) 0.8250(4)
O14 O 0.5599(4) 0.0426(5) 0.8201(3)
H23 H 0.5195 0.0361 0.7808
H24 H 0.5916 0.0002 0.8268
O15 O 0.3861(4) 0.0422(5) 0.8176(3)
H25 H 0.3594 0.0874 0.8034
H26 H 0.3503 0.0086 0.8265
O16 O 0.4290(4) 0.1899(4) 0.8879(3)
O17 O 0.5579(4) 0.1883(4) 0.8892(4)
O19 O 0.9102(3) 0.5257(4) 0.9748(3)
Eu7 Eu 0.50554(2) 0.93773(3) 0.41741(2)
Eu9 Eu 0.00554(2) 0.43773(3) 0.41741(2)
O20 O 0.3449(4) 0.0430(4) 0.5327(3)
O21 O 0.6551(4) 0.0430(4) 0.9673(3)
O22 O 0.5898(3) 0.0257(4) 0.5252(3)
O23 O 0.4102(3) 0.0257(4) 0.9748(3)
O28 O 0.4595(4) 0.1411(4) 0.4792(3)
O25 O 0.5898(3) 0.9743(4) 0.0252(3)
O24 O 0.4102(3) 0.9743(4) 0.4748(3)
Eu5 Eu 0.99446(2) 0.56227(3) 0.58259(2)
Zn1_2 Zn 0.0000 0.05994(9) 0.7500
C11_2 C 0.0481(6) 0.1528(6) 0.6366(4)
H7_2 H 0.0612 0.1041 0.6220
C12_2 C 0.0496(6) 0.2186(6) 0.5971(4)
H8_2 H 0.0622 0.2144 0.5560
C13_2 C 0.0319(5) 0.2901(6) 0.6203(4)
C14_2 C 0.0117(5) 0.2952(6) 0.6813(5)
C15_2 C 0.0113(5) 0.2279(5) 0.7175(4)
C16_2 C 0.0277(5) 0.3643(6) 0.5780(5)
N4_2 N 0.0284(4) 0.1567(5) 0.6958(3)
O10_2 O 0.0116(4) 0.4269(4) 0.6049(3)
O11_2 O 0.0405(4) 0.3589(4) 0.5208(3)
H16_2 H 0.0011 0.3435 0.8030
C32_2 C 0.2640(5) 0.0184(6) 0.9287(4)
C33_2 C 0.2549(5) 0.0862(6) 0.8877(4)
H21_2 H 0.2976 0.1225 0.8950
C34_2 C 0.1816(5) 0.0979(6) 0.8366(5)
H22_2 H 0.1752 0.1426 0.8092
N7_2 N 0.1189(4) 0.0469(5) 0.8250(4)
O18_2 O 0.3449(4) 0.9570(4) 0.0327(3)
O25_2 O 0.0898(3) 0.4743(4) 0.0252(3)
O29_2 O 0.0405(4) 0.6411(4) 0.0208(3)
C1_2 C 0.0128(5) 0.8093(6) 0.6388(4)
C4_2 C 0.0886(5) 0.9212(6) 0.6951(5)
H2_2 H 0.1386 0.9444 0.7190
C5_2 C 0.0887(5) 0.8445(6) 0.6722(4)
H3_2 H 0.1378 0.8172 0.6788
C18_2 C 0.0092(5) 0.7242(6) 0.6196(4)
N2_2 N 0.0196(4) 0.9634(5) 0.6844(4)
O5_2 O 0.1139(4) 0.5422(5) 0.6824(3)
H12_2 H 0.1406 0.5874 0.6966
H13_2 H 0.1497 0.5086 0.6735
O6_2 O 0.0710(4) 0.6899(4) 0.6121(3)
C26_2 C 0.0579(6) 0.8528(6) 0.8739(4)
H17_2 H 0.1089 0.8303 0.8965
C27_2 C 0.0525(5) 0.9306(6) 0.8527(4)
C30_2 C 0.1266(5) 0.9821(6) 0.8656(4)
C31_2 C 0.1989(5) 0.9687(6) 0.9182(4)
H20_2 H 0.2031 0.9252 0.9468
C35_2 C 0.3451(5) 0.9999(6) 0.9824(4)
O14_2 O 0.0599(4) 0.5426(5) 0.8201(3)
H23_2 H 0.0195 0.5361 0.7808
H24_2 H 0.0916 0.5002 0.8268
O17_2 O 0.0579(4) 0.6883(4) 0.8892(4)
O21_2 O 0.1551(4) 0.5430(4) 0.9673(3)
Zn1_3 Zn 1.0000 0.05994(9) 0.7500
C8_2 C 0.7360(5) 0.0184(6) 0.5713(4)
C9_2 C 0.7451(5) 0.0862(6) 0.6123(4)
H5_2 H 0.7024 0.1225 0.6050
C10_2 C 0.8184(5) 0.0979(6) 0.6634(5)
H6_2 H 0.8248 0.1426 0.6908
H9_2 H 0.9989 0.3435 0.6970
N3_2 N 0.8811(4) 0.0469(5) 0.6750(4)
C19_2 C 0.9519(6) 0.1528(6) 0.8634(4)
H14_2 H 0.9388 0.1041 0.8780
C20_2 C 0.9504(6) 0.2186(6) 0.9029(4)
H15_2 H 0.9378 0.2144 0.9440
C21_2 C 0.9681(5) 0.2901(6) 0.8797(4)
C22_2 C 0.9883(5) 0.2952(6) 0.8187(5)
C23_2 C 0.9887(5) 0.2279(5) 0.7825(4)
C24_2 C 0.9723(5) 0.3643(6) 0.9220(5)
N5_2 N 0.9716(4) 0.1567(5) 0.8042(3)
O12_2 O 0.9884(4) 0.4269(4) 0.8951(3)
O13_2 O 0.9595(4) 0.3589(4) 0.9792(3)
C2_2 C 0.9421(6) 0.8528(6) 0.6261(4)
H1_2 H 0.8911 0.8303 0.6035
C3_2 C 0.9475(5) 0.9306(6) 0.6473(4)
C6_2 C 0.8734(5) 0.9821(6) 0.6344(4)
C7_2 C 0.8011(5) 0.9687(6) 0.5818(4)
H4_2 H 0.7969 0.9252 0.5532
C17_2 C 0.6549(5) 0.9999(6) 0.5176(4)
O4_2 O 0.9401(4) 0.5426(5) 0.6799(3)
H10_2 H 0.9805 0.5361 0.7192
H11_2 H 0.9084 0.5002 0.6732
O7_2 O 0.9421(4) 0.6883(4) 0.6108(4)
O8_2 O 0.6551(4) 0.9570(4) 0.4673(3)
C25_2 C 0.9872(5) 0.8093(6) 0.8612(4)
C28_2 C 0.9114(5) 0.9212(6) 0.8049(5)
H18_2 H 0.8614 0.9444 0.7810
C29_2 C 0.9113(5) 0.8445(6) 0.8278(4)
H19_2 H 0.8622 0.8172 0.8212
C36_2 C 0.9908(5) 0.7242(6) 0.8804(4)
N6_2 N 0.9804(4) 0.9634(5) 0.8156(4)
O15_2 O 0.8861(4) 0.5422(5) 0.8176(3)
H25_2 H 0.8594 0.5874 0.8034
H26_2 H 0.8503 0.5086 0.8265
O16_2 O 0.9290(4) 0.6899(4) 0.8879(3)
O20_2 O 0.8449(4) 0.5430(4) 0.5327(3)
O24_2 O 0.9102(3) 0.4743(4) 0.4748(3)
O28_2 O 0.9595(4) 0.6411(4) 0.4792(3)
O26 O 0.4884(4) 0.0731(4) 0.3951(3)
O27 O 0.5116(4) 0.0731(4) 0.1049(3)
Zn1_4 Zn 0.5000 0.44006(9) 0.2500
C1_3 C 0.4872(5) 0.6907(6) 0.3612(4)
C2_3 C 0.5579(6) 0.6472(6) 0.3739(4)
H1_3 H 0.6089 0.6697 0.3965
C3_3 C 0.5525(5) 0.5694(6) 0.3527(4)
C4_3 C 0.4114(5) 0.5788(6) 0.3049(5)
H2_3 H 0.3614 0.5556 0.2810
C5_3 C 0.4113(5) 0.6555(6) 0.3278(4)
H3_3 H 0.3622 0.6828 0.3212
C6_3 C 0.6266(5) 0.5179(6) 0.3656(4)
C7_3 C 0.6989(5) 0.5313(6) 0.4182(4)
H4_3 H 0.7031 0.5748 0.4468
C8_3 C 0.7640(5) 0.4816(6) 0.4287(4)
C9_3 C 0.7549(5) 0.4138(6) 0.3877(4)
H5_3 H 0.7976 0.3775 0.3950
C10_3 C 0.6816(5) 0.4021(6) 0.3366(5)
H6_3 H 0.6752 0.3574 0.3092
C11_3 C 0.4519(6) 0.3472(6) 0.3634(4)
H7_3 H 0.4388 0.3959 0.3780
C12_3 C 0.4504(6) 0.2814(6) 0.4029(4)
H8_3 H 0.4378 0.2856 0.4440
C13_3 C 0.4681(5) 0.2099(6) 0.3797(4)
C14_3 C 0.4883(5) 0.2048(6) 0.3187(5)
H9_3 H 0.5011 0.1565 0.3030
C15_3 C 0.4887(5) 0.2721(5) 0.2825(4)
C16_3 C 0.4723(5) 0.1357(6) 0.4220(5)
C17_3 C 0.8451(5) 0.5001(6) 0.4824(4)
C18_3 C 0.4908(5) 0.7758(6) 0.3804(4)
N2_3 N 0.4804(4) 0.5366(5) 0.3156(4)
N3_3 N 0.6189(4) 0.4531(5) 0.3250(4)
N4_3 N 0.4716(4) 0.3433(5) 0.3042(3)
O4_3 O 0.5599(4) 0.9574(5) 0.3201(3)
H10_3 H 0.5195 0.9639 0.2808
H11_3 H 0.5916 0.9998 0.3268
O5_3 O 0.3861(4) 0.9578(5) 0.3176(3)
H12_3 H 0.3594 0.9126 0.3034
H13_3 H 0.3503 0.9914 0.3265
O6_3 O 0.4290(4) 0.8101(4) 0.3879(3)
O7_3 O 0.5579(4) 0.8117(4) 0.3892(4)
C19_3 C 0.5481(6) 0.3472(6) 0.1366(4)
H14_3 H 0.5612 0.3959 0.1220
C20_3 C 0.5496(6) 0.2814(6) 0.0971(4)
H15_3 H 0.5622 0.2856 0.0560
C21_3 C 0.5319(5) 0.2099(6) 0.1203(4)
C22_3 C 0.5117(5) 0.2048(6) 0.1813(5)
H16_3 H 0.4989 0.1565 0.1970
C23_3 C 0.5113(5) 0.2721(5) 0.2175(4)
C24_3 C 0.5277(5) 0.1357(6) 0.0780(5)
N5_3 N 0.5284(4) 0.3433(5) 0.1958(3)
C25_3 C 0.5128(5) 0.6907(6) 0.1388(4)
C26_3 C 0.4421(6) 0.6472(6) 0.1261(4)
H17_3 H 0.3911 0.6697 0.1035
C27_3 C 0.4475(5) 0.5694(6) 0.1473(4)
C28_3 C 0.5886(5) 0.5788(6) 0.1951(5)
H18_3 H 0.6386 0.5556 0.2190
C29_3 C 0.5887(5) 0.6555(6) 0.1722(4)
H19_3 H 0.6378 0.6828 0.1788
C30_3 C 0.3734(5) 0.5179(6) 0.1344(4)
C31_3 C 0.3011(5) 0.5313(6) 0.0818(4)
H20_3 H 0.2969 0.5748 0.0532
C32_3 C 0.2360(5) 0.4816(6) 0.0713(4)
C33_3 C 0.2451(5) 0.4138(6) 0.1123(4)
H21_3 H 0.2024 0.3775 0.1050
C34_3 C 0.3184(5) 0.4021(6) 0.1634(5)
H22_3 H 0.3248 0.3574 0.1908
C35_3 C 0.1549(5) 0.5001(6) 0.0176(4)
C36_3 C 0.5092(5) 0.7758(6) 0.1196(4)
N6_3 N 0.5196(4) 0.5366(5) 0.1844(4)
N7_3 N 0.3811(4) 0.4531(5) 0.1750(4)
O14_3 O 0.4401(4) 0.9574(5) 0.1799(3)
H23_3 H 0.4805 0.9639 0.2192
H24_3 H 0.4084 0.9998 0.1732
O15_3 O 0.6139(4) 0.9578(5) 0.1824(3)
H25_3 H 0.6406 0.9126 0.1966
H26_3 H 0.6497 0.9914 0.1735
O16_3 O 0.5710(4) 0.8101(4) 0.1121(3)
O17_3 O 0.4421(4) 0.8117(4) 0.1108(4)
C2_4 C 0.0579(6) 0.1472(6) 0.3739(4)
H1_4 H 0.1089 0.1697 0.3965
C3_4 C 0.0525(5) 0.0694(6) 0.3527(4)
C6_4 C 0.1266(5) 0.0179(6) 0.3656(4)
C7_4 C 0.1989(5) 0.0313(6) 0.4182(4)
H4_4 H 0.2031 0.0748 0.4468
C17_4 C 0.3451(5) 0.0001(6) 0.4824(4)
O4_4 O 0.0599(4) 0.4574(5) 0.3201(3)
H10_4 H 0.0195 0.4639 0.2808
H11_4 H 0.0916 0.4998 0.3268
O7_4 O 0.0579(4) 0.3117(4) 0.3892(4)
C25_4 C 0.0128(5) 0.1907(6) 0.1388(4)
C28_4 C 0.0886(5) 0.0788(6) 0.1951(5)
H18_4 H 0.1386 0.0556 0.2190
C29_4 C 0.0887(5) 0.1555(6) 0.1722(4)
H19_4 H 0.1378 0.1828 0.1788
C36_4 C 0.0092(5) 0.2758(6) 0.1196(4)
N6_4 N 0.0196(4) 0.0366(5) 0.1844(4)
O15_4 O 0.1139(4) 0.4578(5) 0.1824(3)
H25_4 H 0.1406 0.4126 0.1966
H26_4 H 0.1497 0.4914 0.1735
O16_4 O 0.0710(4) 0.3101(4) 0.1121(3)
O27_2 O 0.0116(4) 0.5731(4) 0.1049(3)
Zn1_5 Zn 0.0000 0.94006(9) 0.2500
C8_4 C 0.2640(5) 0.9816(6) 0.4287(4)
C9_4 C 0.2549(5) 0.9138(6) 0.3877(4)
H5_4 H 0.2976 0.8775 0.3950
C10_4 C 0.1816(5) 0.9021(6) 0.3366(5)
H6_4 H 0.1752 0.8574 0.3092
H9_4 H 0.0011 0.6565 0.3030
N3_4 N 0.1189(4) 0.9531(5) 0.3250(4)
C19_4 C 0.0481(6) 0.8472(6) 0.1366(4)
H14_4 H 0.0612 0.8959 0.1220
C20_4 C 0.0496(6) 0.7814(6) 0.0971(4)
H15_4 H 0.0622 0.7856 0.0560
C21_4 C 0.0319(5) 0.7099(6) 0.1203(4)
C22_4 C 0.0117(5) 0.7048(6) 0.1813(5)
C23_4 C 0.0113(5) 0.7721(5) 0.2175(4)
C24_4 C 0.0277(5) 0.6357(6) 0.0780(5)
N5_4 N 0.0284(4) 0.8433(5) 0.1958(3)
C1_4 C 0.9872(5) 0.1907(6) 0.3612(4)
C4_4 C 0.9114(5) 0.0788(6) 0.3049(5)
H2_4 H 0.8614 0.0556 0.2810
C5_4 C 0.9113(5) 0.1555(6) 0.3278(4)
H3_4 H 0.8622 0.1828 0.3212
C18_4 C 0.9908(5) 0.2758(6) 0.3804(4)
N2_4 N 0.9804(4) 0.0366(5) 0.3156(4)
O5_4 O 0.8861(4) 0.4578(5) 0.3176(3)
H12_4 H 0.8594 0.4126 0.3034
H13_4 H 0.8503 0.4914 0.3265
O6_4 O 0.9290(4) 0.3101(4) 0.3879(3)
C26_4 C 0.9421(6) 0.1472(6) 0.1261(4)
H17_4 H 0.8911 0.1697 0.1035
C27_4 C 0.9475(5) 0.0694(6) 0.1473(4)
C30_4 C 0.8734(5) 0.0179(6) 0.1344(4)
C31_4 C 0.8011(5) 0.0313(6) 0.0818(4)
H20_4 H 0.7969 0.0748 0.0532
C35_4 C 0.6549(5) 0.0001(6) 0.0176(4)
O14_4 O 0.9401(4) 0.4574(5) 0.1799(3)
H23_4 H 0.9805 0.4639 0.2192
H24_4 H 0.9084 0.4998 0.1732
O17_4 O 0.9421(4) 0.3117(4) 0.1108(4)
O26_2 O 0.9884(4) 0.5731(4) 0.3951(3)
Zn1_6 Zn 1.0000 0.94006(9) 0.2500
C11_4 C 0.9519(6) 0.8472(6) 0.3634(4)
H7_4 H 0.9388 0.8959 0.3780
C12_4 C 0.9504(6) 0.7814(6) 0.4029(4)
H8_4 H 0.9378 0.7856 0.4440
C13_4 C 0.9681(5) 0.7099(6) 0.3797(4)
C14_4 C 0.9883(5) 0.7048(6) 0.3187(5)
C15_4 C 0.9887(5) 0.7721(5) 0.2825(4)
C16_4 C 0.9723(5) 0.6357(6) 0.4220(5)
N4_4 N 0.9716(4) 0.8433(5) 0.3042(3)
H16_4 H 0.9989 0.6565 0.1970
C32_4 C 0.7360(5) 0.9816(6) 0.0713(4)
C33_4 C 0.7451(5) 0.9138(6) 0.1123(4)
H21_4 H 0.7024 0.8775 0.1050
C34_4 C 0.8184(5) 0.9021(6) 0.1634(5)
H22_4 H 0.8248 0.8574 0.1908
N7_4 N 0.8811(4) 0.9531(5) 0.1750(4)
loop_
_geom_bond_atom_site_label_1
_geom_bond_atom_site_label_2
_geom_bond_site_symmetry_1
_geom_bond_site_symmetry_2
O1 N1 1_555 1_555
O2 N1 1_555 1_555
N1 O3 1_555 1_555
O1_2 N1_2 1_555 1_555
O2_2 N1_2 1_555 1_555
N1_2 O3_2 1_555 1_555
O1_3 N1_3 1_555 1_555
O2_3 N1_3 1_555 1_555
N1_3 O3_3 1_555 1_555
O1_4 N1_4 1_555 1_555
O2_4 N1_4 1_555 1_555
N1_4 O3_4 1_555 1_555
O1_5 N1_5 1_555 1_555
O2_5 N1_5 1_555 1_555
N1_5 O3_5 1_555 1_555
O1_6 N1_6 1_555 1_555
O2_6 N1_6 1_555 1_555
N1_6 O3_6 1_555 1_555
O1_7 N1_7 1_555 1_555
O2_7 N1_7 1_555 1_555
N1_7 O3_7 1_555 1_555
O1_8 N1_8 1_555 1_555
O2_8 N1_8 1_555 1_555
N1_8 O3_8 1_555 1_555
Eu10 O18 1_555 1_555
Zn1 N2 1_555 1_555
Eu3 O4 1_555 1_555
C1 C2 1_555 1_555
C2 H1 1_555 1_555
C3 C2 1_555 1_555
C4 H2 1_555 1_555
C5 C1 1_555 1_555
H3 C5 1_555 1_555
C6 C3 1_555 1_555
C7 C6 1_555 1_555
H4 C7 1_555 1_555
C8 C7 1_555 1_555
C9 C8 1_555 1_555
H5 C9 1_555 1_555
C10 C9 1_555 1_555
H6 C10 1_555 1_555
C11 H7 1_555 1_555
C12 C11 1_555 1_555
H8 C12 1_555 1_555
C13 C12 1_555 1_555
C14 C13 1_555 1_555
H9 C14 1_555 1_555
C15 C14 1_555 1_555
C16 C13 1_555 1_555
C17 C8 1_555 1_555
C18 C1 1_555 1_555
N2 C3 1_555 1_555
N3 Zn1 1_555 1_555
N4 Zn1 1_555 1_555
O4 H10 1_555 1_555
H11 O4 1_555 1_555
O5 Eu3 1_555 1_555
H12 O5 1_555 1_555
H13 O5 1_555 1_555
O6 Eu3 1_555 1_555
O7 Eu3 1_555 1_555
O8 C17 1_555 1_555
O9 C17 1_555 1_555
O10 C16 1_555 1_555
O11 C16 1_555 1_555
C19 H14 1_555 1_555
C20 C19 1_555 1_555
H15 C20 1_555 1_555
C21 C20 1_555 1_555
C22 C21 1_555 1_555
H16 C22 1_555 1_555
C23 C15 1_555 1_555
C24 C21 1_555 1_555
N5 Zn1 1_555 1_555
O12 C24 1_555 1_555
O13 C24 1_555 1_555
Eu4 O14 1_555 1_555
C25 C26 1_555 1_555
C26 H17 1_555 1_555
C27 C26 1_555 1_555
C28 H18 1_555 1_555
C29 C25 1_555 1_555
H19 C29 1_555 1_555
C30 C27 1_555 1_555
C31 C30 1_555 1_555
H20 C31 1_555 1_555
C32 C31 1_555 1_555
C33 C32 1_555 1_555
H21 C33 1_555 1_555
C34 C33 1_555 1_555
H22 C34 1_555 1_555
C35 C32 1_555 1_555
C36 C25 1_555 1_555
N6 Zn1 1_555 1_555
N7 Zn1 1_555 1_555
O14 H23 1_555 1_555
H24 O14 1_555 1_555
O15 Eu4 1_555 1_555
H25 O15 1_555 1_555
H26 O15 1_555 1_555
O16 Eu4 1_555 1_555
O17 Eu4 1_555 1_555
O19 C35 1_555 1_555
Eu7 O11 1_555 1_555
Eu9 O8 1_555 1_555
O20 Eu3 1_555 1_555
O21 Eu4 1_555 1_555
O22 Eu3 1_555 1_555
O23 Eu4 1_555 1_555
O28 Eu3 1_555 1_555
C4 C5 1_555 1_555
C4 N2 1_555 1_555
C6 N3 1_555 1_555
C10 N3 1_555 1_555
C11 N4 1_555 1_555
C15 N4 1_555 1_555
C18 O6 1_555 1_555
C18 O7 1_555 1_555
O9 Eu9 1_555 1_555
C19 N5 1_555 1_555
C22 C23 1_555 1_555
C23 N5 1_555 1_555
C27 N6 1_555 1_555
C28 C29 1_555 1_555
C28 N6 1_555 1_555
C30 N7 1_555 1_555
C34 N7 1_555 1_555
C36 O16 1_555 1_555
C36 O17 1_555 1_555
C11_2 H7_2 1_555 1_555
C12_2 C11_2 1_555 1_555
H8_2 C12_2 1_555 1_555
C13_2 C12_2 1_555 1_555
C14_2 C13_2 1_555 1_555
C15_2 C14_2 1_555 1_555
C16_2 C13_2 1_555 1_555
N4_2 Zn1_2 1_555 1_555
O10_2 C16_2 1_555 1_555
O11_2 C16_2 1_555 1_555
C33_2 C32_2 1_555 1_555
H21_2 C33_2 1_555 1_555
C34_2 C33_2 1_555 1_555
H22_2 C34_2 1_555 1_555
N7_2 Zn1_2 1_555 1_555
Eu9 O11_2 1_555 1_555
C11_2 N4_2 1_555 1_555
C15_2 N4_2 1_555 1_555
C34_2 N7_2 1_555 1_555
Eu8 O18_2 1_555 1_555
C4_2 H2_2 1_555 1_555
C5_2 C1_2 1_555 1_555
H3_2 C5_2 1_555 1_555
C18_2 C1_2 1_555 1_555
H12_2 O5_2 1_555 1_555
H13_2 O5_2 1_555 1_555
Eu6 O14_2 1_555 1_555
C26_2 H17_2 1_555 1_555
C27_2 C26_2 1_555 1_555
C30_2 C27_2 1_555 1_555
C31_2 C30_2 1_555 1_555
H20_2 C31_2 1_555 1_555
O14_2 H23_2 1_555 1_555
H24_2 O14_2 1_555 1_555
O17_2 Eu6 1_555 1_555
O21_2 Eu6 1_555 1_555
C4_2 C5_2 1_555 1_555
C4_2 N2_2 1_555 1_555
C18_2 O6_2 1_555 1_555
C9_2 C8_2 1_555 1_555
H5_2 C9_2 1_555 1_555
C10_2 C9_2 1_555 1_555
H6_2 C10_2 1_555 1_555
N3_2 Zn1_3 1_555 1_555
C19_2 H14_2 1_555 1_555
C20_2 C19_2 1_555 1_555
H15_2 C20_2 1_555 1_555
C21_2 C20_2 1_555 1_555
C22_2 C21_2 1_555 1_555
C24_2 C21_2 1_555 1_555
N5_2 Zn1_3 1_555 1_555
O12_2 C24_2 1_555 1_555
O13_2 C24_2 1_555 1_555
C10_2 N3_2 1_555 1_555
C19_2 N5_2 1_555 1_555
C22_2 C23_2 1_555 1_555
C23_2 N5_2 1_555 1_555
Eu5 O4_2 1_555 1_555
C2_2 H1_2 1_555 1_555
C3_2 C2_2 1_555 1_555
C6_2 C3_2 1_555 1_555
C7_2 C6_2 1_555 1_555
H4_2 C7_2 1_555 1_555
O4_2 H10_2 1_555 1_555
H11_2 O4_2 1_555 1_555
O7_2 Eu5 1_555 1_555
O8_2 C17_2 1_555 1_555
C28_2 H18_2 1_555 1_555
C29_2 C25_2 1_555 1_555
H19_2 C29_2 1_555 1_555
C36_2 C25_2 1_555 1_555
H25_2 O15_2 1_555 1_555
H26_2 O15_2 1_555 1_555
Eu7 O8_2 1_555 1_555
O20_2 Eu5 1_555 1_555
O24_2 Eu5 1_555 1_555
O28_2 Eu5 1_555 1_555
C28_2 C29_2 1_555 1_555
C28_2 N6_2 1_555 1_555
C36_2 O16_2 1_555 1_555
Zn1_4 N2_3 1_555 1_555
Eu7 O4_3 1_555 1_555
C1_3 C2_3 1_555 1_555
C2_3 H1_3 1_555 1_555
C3_3 C2_3 1_555 1_555
C4_3 H2_3 1_555 1_555
C5_3 C1_3 1_555 1_555
H3_3 C5_3 1_555 1_555
C6_3 C3_3 1_555 1_555
C7_3 C6_3 1_555 1_555
H4_3 C7_3 1_555 1_555
C8_3 C7_3 1_555 1_555
C9_3 C8_3 1_555 1_555
H5_3 C9_3 1_555 1_555
C10_3 C9_3 1_555 1_555
H6_3 C10_3 1_555 1_555
C11_3 H7_3 1_555 1_555
C12_3 C11_3 1_555 1_555
H8_3 C12_3 1_555 1_555
C13_3 C12_3 1_555 1_555
C14_3 C13_3 1_555 1_555
H9_3 C14_3 1_555 1_555
C15_3 C14_3 1_555 1_555
C16_3 C13_3 1_555 1_555
C17_3 C8_3 1_555 1_555
C18_3 C1_3 1_555 1_555
N2_3 C3_3 1_555 1_555
N3_3 Zn1_4 1_555 1_555
N4_3 Zn1_4 1_555 1_555
O4_3 H10_3 1_555 1_555
H11_3 O4_3 1_555 1_555
O5_3 Eu7 1_555 1_555
H12_3 O5_3 1_555 1_555
H13_3 O5_3 1_555 1_555
O6_3 Eu7 1_555 1_555
O7_3 Eu7 1_555 1_555
O20_2 C17_3 1_555 1_555
O24_2 C17_3 1_555 1_555
O26 C16_3 1_555 1_555
O28 C16_3 1_555 1_555
C19_3 H14_3 1_555 1_555
C20_3 C19_3 1_555 1_555
H15_3 C20_3 1_555 1_555
C21_3 C20_3 1_555 1_555
C22_3 C21_3 1_555 1_555
H16_3 C22_3 1_555 1_555
C23_3 C15_3 1_555 1_555
C24_3 C21_3 1_555 1_555
N5_3 Zn1_4 1_555 1_555
O27 C24_3 1_555 1_555
O29 C24_3 1_555 1_555
Eu8 O14_3 1_555 1_555
C25_3 C26_3 1_555 1_555
C26_3 H17_3 1_555 1_555
C27_3 C26_3 1_555 1_555
C28_3 H18_3 1_555 1_555
C29_3 C25_3 1_555 1_555
H19_3 C29_3 1_555 1_555
C30_3 C27_3 1_555 1_555
C31_3 C30_3 1_555 1_555
H20_3 C31_3 1_555 1_555
C32_3 C31_3 1_555 1_555
C33_3 C32_3 1_555 1_555
H21_3 C33_3 1_555 1_555
C34_3 C33_3 1_555 1_555
H22_3 C34_3 1_555 1_555
C35_3 C32_3 1_555 1_555
C36_3 C25_3 1_555 1_555
N6_3 Zn1_4 1_555 1_555
N7_3 Zn1_4 1_555 1_555
O14_3 H23_3 1_555 1_555
H24_3 O14_3 1_555 1_555
O15_3 Eu8 1_555 1_555
H25_3 O15_3 1_555 1_555
H26_3 O15_3 1_555 1_555
O16_3 Eu8 1_555 1_555
O17_3 Eu8 1_555 1_555
O25_2 C35_3 1_555 1_555
O24 Eu7 1_555 1_555
O25 Eu8 1_555 1_555
C4_3 C5_3 1_555 1_555
C4_3 N2_3 1_555 1_555
C6_3 N3_3 1_555 1_555
C10_3 N3_3 1_555 1_555
C11_3 N4_3 1_555 1_555
C15_3 N4_3 1_555 1_555
C18_3 O6_3 1_555 1_555
C18_3 O7_3 1_555 1_555
C19_3 N5_3 1_555 1_555
C22_3 C23_3 1_555 1_555
C23_3 N5_3 1_555 1_555
C27_3 N6_3 1_555 1_555
C28_3 C29_3 1_555 1_555
C28_3 N6_3 1_555 1_555
C30_3 N7_3 1_555 1_555
C34_3 N7_3 1_555 1_555
C36_3 O16_3 1_555 1_555
C36_3 O17_3 1_555 1_555
Eu9 O4_4 1_555 1_555
C2_4 H1_4 1_555 1_555
C3_4 C2_4 1_555 1_555
C6_4 C3_4 1_555 1_555
C7_4 C6_4 1_555 1_555
H4_4 C7_4 1_555 1_555
O4_4 H10_4 1_555 1_555
H11_4 O4_4 1_555 1_555
O7_4 Eu9 1_555 1_555
O20 C17_4 1_555 1_555
C28_4 H18_4 1_555 1_555
C29_4 C25_4 1_555 1_555
H19_4 C29_4 1_555 1_555
C36_4 C25_4 1_555 1_555
H25_4 O15_4 1_555 1_555
H26_4 O15_4 1_555 1_555
C28_4 C29_4 1_555 1_555
C28_4 N6_4 1_555 1_555
C36_4 O16_4 1_555 1_555
C9_4 C8_4 1_555 1_555
H5_4 C9_4 1_555 1_555
C10_4 C9_4 1_555 1_555
H6_4 C10_4 1_555 1_555
N3_4 Zn1_5 1_555 1_555
C19_4 H14_4 1_555 1_555
C20_4 C19_4 1_555 1_555
H15_4 C20_4 1_555 1_555
C21_4 C20_4 1_555 1_555
C22_4 C21_4 1_555 1_555
C24_4 C21_4 1_555 1_555
N5_4 Zn1_5 1_555 1_555
O27_2 C24_4 1_555 1_555
O29_2 C24_4 1_555 1_555
C10_4 N3_4 1_555 1_555
C19_4 N5_4 1_555 1_555
C22_4 C23_4 1_555 1_555
C23_4 N5_4 1_555 1_555
C4_4 H2_4 1_555 1_555
C5_4 C1_4 1_555 1_555
H3_4 C5_4 1_555 1_555
C18_4 C1_4 1_555 1_555
H12_4 O5_4 1_555 1_555
H13_4 O5_4 1_555 1_555
Eu10 O14_4 1_555 1_555
C26_4 H17_4 1_555 1_555
C27_4 C26_4 1_555 1_555
C30_4 C27_4 1_555 1_555
C31_4 C30_4 1_555 1_555
H20_4 C31_4 1_555 1_555
O14_4 H23_4 1_555 1_555
H24_4 O14_4 1_555 1_555
O17_4 Eu10 1_555 1_555
C4_4 C5_4 1_555 1_555
C4_4 N2_4 1_555 1_555
C18_4 O6_4 1_555 1_555
C11_4 H7_4 1_555 1_555
C12_4 C11_4 1_555 1_555
H8_4 C12_4 1_555 1_555
C13_4 C12_4 1_555 1_555
C14_4 C13_4 1_555 1_555
C15_4 C14_4 1_555 1_555
C16_4 C13_4 1_555 1_555
N4_4 Zn1_6 1_555 1_555
O26_2 C16_4 1_555 1_555
O28_2 C16_4 1_555 1_555
C33_4 C32_4 1_555 1_555
H21_4 C33_4 1_555 1_555
C34_4 C33_4 1_555 1_555
H22_4 C34_4 1_555 1_555
N7_4 Zn1_6 1_555 1_555
C11_4 N4_4 1_555 1_555
C15_4 N4_4 1_555 1_555
C34_4 N7_4 1_555 1_555

#END
