
###############################################################################
#
# This file contains modified crystal structure data generated from the
# MOF subset of the Cambridge Structural Database (CSD) v543 
# hosted by the Cambridge Crystallographic Data Centre (CCDC).
#
# This work is licensed under the Creative Commons
# Attribution-NonCommercial-ShareAlike 4.0 International License.
# To view a copy of this license, visit
# http://creativecommons.org/licenses/by-nc-sa/4.0/
# or send a letter to
# Creative Commons, PO Box 1866, Mountain View, CA 94042, USA.
#
# CIF created using the CSD Python API on 29 September 2022
# The structure has been converted into the P1 space group
# The structure has a 3D framework
# The original CSD entry MOVHEM is in the monoclinic crystal system
# The framework has been calculated to contain at least 10.0% void space
# The void calculation uses a probe of radius 1.32A, grid spacing 0.4
# The framework is charged, counterions have been retained in the structure
#
###############################################################################

data_MOVHEM
_chemical_formula_moiety         '(C144 H104 N32 O82 Tb8 Zn6 4+)n'
_symmetry_cell_setting           triclinic
_symmetry_space_group_name_H-M   'P 1'
_symmetry_Int_Tables_number      1
_space_group_name_Hall           'P 1'
loop_
_symmetry_equiv_pos_site_id
_symmetry_equiv_pos_as_xyz
1 x,y,z
_cell_length_a                   17.0778(7)
_cell_length_b                   16.9284(4)
_cell_length_c                   20.3385(9)
_cell_angle_alpha                90
_cell_angle_beta                 108.115(5)
_cell_angle_gamma                90
_cell_volume                     5588.42
loop_
_atom_site_label
_atom_site_type_symbol
_atom_site_fract_x
_atom_site_fract_y
_atom_site_fract_z
Tb6 Tb 0.00555(2) 0.56205(2) 0.917652(19)
Tb3 Tb 0.49445(2) 0.06205(2) 0.582348(19)
Tb4 Tb 0.50555(2) 0.06205(2) 0.917652(19)
O15 O 0.8465(3) 0.4576(3) 0.0333(3)
Tb8 Tb 0.49445(2) 0.93795(2) 0.082348(19)
Tb10 Tb 0.99445(2) 0.43795(2) 0.082348(19)
O26 O 0.5409(3) 0.1393(3) 0.0198(3)
Zn1 Zn 0.5000 0.55993(7) 0.7500
C1 C 0.5122(5) 0.3085(5) 0.6385(4)
C2 C 0.4407(5) 0.3528(5) 0.6247(4)
H1 H 0.3898 0.3309 0.6010
C3 C 0.4469(5) 0.4307(4) 0.6471(4)
C4 C 0.5880(5) 0.4207(5) 0.6943(5)
H2 H 0.6385 0.4436 0.7180
C5 C 0.5874(5) 0.3437(5) 0.6715(4)
H3 H 0.6363 0.3161 0.6783
C6 C 0.3740(5) 0.4823(5) 0.6338(4)
C7 C 0.3011(5) 0.4675(5) 0.5813(4)
H4 H 0.2962 0.4236 0.5528
C8 C 0.2360(5) 0.5191(5) 0.5721(4)
C9 C 0.2450(5) 0.5866(5) 0.6128(4)
H5 H 0.2024 0.6230 0.6060
C10 C 0.3188(5) 0.5978(5) 0.6633(4)
H6 H 0.3257 0.6427 0.6909
C11 C 0.5479(5) 0.6528(5) 0.6368(4)
H7 H 0.5607 0.6038 0.6222
C12 C 0.5493(5) 0.7181(5) 0.5966(4)
H8 H 0.5626 0.7131 0.5558
C13 C 0.5303(5) 0.7921(5) 0.6187(4)
C14 C 0.5119(5) 0.7962(5) 0.6813(4)
H9 H 0.5007 0.8445 0.6980
C15 C 0.5108(5) 0.7277(4) 0.7175(4)
C16 C 0.5281(5) 0.8661(5) 0.5772(5)
C17 C 0.1539(5) 0.5001(5) 0.5184(4)
C18 C 0.5082(5) 0.2226(5) 0.6186(4)
N1 N 0.5194(4) 0.4640(4) 0.6840(3)
N2 N 0.3818(4) 0.5466(4) 0.6747(4)
N3 N 0.5288(4) 0.6566(4) 0.6959(4)
O1 O 0.4402(4) 0.0422(4) 0.6794(3)
H10 H 0.4765 0.0557 0.7173
O2 O 0.6123(4) 0.0435(4) 0.6819(3)
H12 H 0.6498 0.0785 0.6829
O3 O 0.5706(3) 0.1893(3) 0.6112(3)
O4 O 0.4415(3) 0.1862(3) 0.6107(3)
O5 O 0.1535(3) 0.4576(3) 0.4667(3)
O6 O 0.0892(3) 0.5265(3) 0.5258(3)
O7 O 0.5113(4) 0.9278(3) 0.6043(3)
O8 O 0.5409(3) 0.8607(3) 0.5198(3)
C19 C 0.4521(5) 0.6528(5) 0.8632(4)
H14 H 0.4393 0.6038 0.8778
C20 C 0.4507(5) 0.7181(5) 0.9034(4)
H15 H 0.4374 0.7131 0.9442
C21 C 0.4697(5) 0.7921(5) 0.8813(4)
C22 C 0.4881(5) 0.7962(5) 0.8187(4)
H16 H 0.4993 0.8445 0.8020
C23 C 0.4892(5) 0.7277(4) 0.7825(4)
C24 C 0.4719(5) 0.8661(5) 0.9228(5)
N4 N 0.4712(4) 0.6566(4) 0.8041(4)
O9 O 0.4887(4) 0.9278(3) 0.8957(3)
O10 O 0.4591(3) 0.8607(3) 0.9802(3)
C25 C 0.4878(5) 0.3085(5) 0.8615(4)
C26 C 0.5593(5) 0.3528(5) 0.8753(4)
H17 H 0.6102 0.3309 0.8990
C27 C 0.5531(5) 0.4307(4) 0.8529(4)
C28 C 0.4120(5) 0.4207(5) 0.8057(5)
H18 H 0.3615 0.4436 0.7820
C29 C 0.4126(5) 0.3437(5) 0.8285(4)
H19 H 0.3637 0.3161 0.8217
C30 C 0.6260(5) 0.4823(5) 0.8662(4)
C31 C 0.6989(5) 0.4675(5) 0.9187(4)
H20 H 0.7038 0.4236 0.9472
C32 C 0.7640(5) 0.5191(5) 0.9279(4)
C33 C 0.7550(5) 0.5866(5) 0.8872(4)
H21 H 0.7976 0.6230 0.8940
C34 C 0.6812(5) 0.5978(5) 0.8367(4)
H22 H 0.6743 0.6427 0.8091
C35 C 0.8461(5) 0.5001(5) 0.9816(4)
C36 C 0.4918(5) 0.2226(5) 0.8814(4)
N5 N 0.4806(4) 0.4640(4) 0.8160(3)
N6 N 0.6182(4) 0.5466(4) 0.8253(4)
O11 O 0.5598(4) 0.0422(4) 0.8206(3)
H23 H 0.5235 0.0557 0.7827
O12 O 0.3877(4) 0.0435(4) 0.8181(3)
H25 H 0.3502 0.0785 0.8171
O13 O 0.4294(3) 0.1893(3) 0.8888(3)
O14 O 0.5585(3) 0.1862(3) 0.8893(3)
O16 O 0.9108(3) 0.5265(3) 0.9742(3)
Tb7 Tb 0.50555(2) 0.93795(2) 0.417652(19)
Tb9 Tb 0.00555(2) 0.43795(2) 0.417652(19)
O17 O 0.3465(3) 0.0424(3) 0.5333(3)
O18 O 0.6535(3) 0.0424(3) 0.9667(3)
O19 O 0.5892(3) 0.0265(3) 0.5258(3)
O20 O 0.4108(3) 0.0265(3) 0.9742(3)
O25 O 0.4591(3) 0.1393(3) 0.4802(3)
O22 O 0.5892(3) 0.9735(3) 0.0258(3)
H11 H 0.4282 0.9934 0.6817
H13 H 0.6331 0.9969 0.6808
H24 H 0.5718 0.9934 0.8183
H26 H 0.3669 0.9969 0.8192
O21 O 0.4108(3) 0.9735(3) 0.4742(3)
Tb5 Tb 0.99445(2) 0.56205(2) 0.582348(19)
Zn1_2 Zn 0.0000 0.05993(7) 0.7500
C11_2 C 0.0479(5) 0.1528(5) 0.6368(4)
H7_2 H 0.0607 0.1038 0.6222
C12_2 C 0.0493(5) 0.2181(5) 0.5966(4)
H8_2 H 0.0626 0.2131 0.5558
C13_2 C 0.0303(5) 0.2921(5) 0.6187(4)
C14_2 C 0.0119(5) 0.2962(5) 0.6813(4)
H9_2 H 0.0007 0.3445 0.6980
C15_2 C 0.0108(5) 0.2277(4) 0.7175(4)
C16_2 C 0.0281(5) 0.3661(5) 0.5772(5)
N3_2 N 0.0288(4) 0.1566(4) 0.6959(4)
O7_2 O 0.0113(4) 0.4278(3) 0.6043(3)
O8_2 O 0.0409(3) 0.3607(3) 0.5198(3)
C32_2 C 0.2640(5) 0.0191(5) 0.9279(4)
C33_2 C 0.2550(5) 0.0866(5) 0.8872(4)
H21_2 H 0.2976 0.1230 0.8940
C34_2 C 0.1812(5) 0.0978(5) 0.8367(4)
H22_2 H 0.1743 0.1427 0.8091
C35_2 C 0.3461(5) 0.0001(5) 0.9816(4)
N6_2 N 0.1182(4) 0.0466(4) 0.8253(4)
O15_2 O 0.3465(3) 0.9576(3) 0.0333(3)
O22_2 O 0.0892(3) 0.4735(3) 0.0258(3)
O26_2 O 0.0409(3) 0.6393(3) 0.0198(3)
C1_2 C 0.0122(5) 0.8085(5) 0.6385(4)
C4_2 C 0.0880(5) 0.9207(5) 0.6943(5)
H2_2 H 0.1385 0.9436 0.7180
C5_2 C 0.0874(5) 0.8437(5) 0.6715(4)
H3_2 H 0.1363 0.8161 0.6783
C18_2 C 0.0082(5) 0.7226(5) 0.6186(4)
N1_2 N 0.0194(4) 0.9640(4) 0.6840(3)
O2_2 O 0.1123(4) 0.5435(4) 0.6819(3)
H12_2 H 0.1498 0.5785 0.6829
H13_2 H 0.1331 0.4969 0.6808
O3_2 O 0.0706(3) 0.6893(3) 0.6112(3)
C26_2 C 0.0593(5) 0.8528(5) 0.8753(4)
H17_2 H 0.1102 0.8309 0.8990
C27_2 C 0.0531(5) 0.9307(4) 0.8529(4)
C30_2 C 0.1260(5) 0.9823(5) 0.8662(4)
C31_2 C 0.1989(5) 0.9675(5) 0.9187(4)
H20_2 H 0.2038 0.9236 0.9472
O11_2 O 0.0598(4) 0.5422(4) 0.8206(3)
H23_2 H 0.0235 0.5557 0.7827
H24_2 H 0.0718 0.4934 0.8183
O14_2 O 0.0585(3) 0.6862(3) 0.8893(3)
O18_2 O 0.1535(3) 0.5424(3) 0.9667(3)
Zn1_3 Zn 1.0000 0.05993(7) 0.7500
C8_2 C 0.7360(5) 0.0191(5) 0.5721(4)
C9_2 C 0.7450(5) 0.0866(5) 0.6128(4)
H5_2 H 0.7024 0.1230 0.6060
C10_2 C 0.8188(5) 0.0978(5) 0.6633(4)
H6_2 H 0.8257 0.1427 0.6909
C17_2 C 0.6539(5) 0.0001(5) 0.5184(4)
N2_2 N 0.8818(4) 0.0466(4) 0.6747(4)
C19_2 C 0.9521(5) 0.1528(5) 0.8632(4)
H14_2 H 0.9393 0.1038 0.8778
C20_2 C 0.9507(5) 0.2181(5) 0.9034(4)
H15_2 H 0.9374 0.2131 0.9442
C21_2 C 0.9697(5) 0.2921(5) 0.8813(4)
C22_2 C 0.9881(5) 0.2962(5) 0.8187(4)
H16_2 H 0.9993 0.3445 0.8020
C23_2 C 0.9892(5) 0.2277(4) 0.7825(4)
C24_2 C 0.9719(5) 0.3661(5) 0.9228(5)
N4_2 N 0.9712(4) 0.1566(4) 0.8041(4)
O9_2 O 0.9887(4) 0.4278(3) 0.8957(3)
O10_2 O 0.9591(3) 0.3607(3) 0.9802(3)
C2_2 C 0.9407(5) 0.8528(5) 0.6247(4)
H1_2 H 0.8898 0.8309 0.6010
C3_2 C 0.9469(5) 0.9307(4) 0.6471(4)
C6_2 C 0.8740(5) 0.9823(5) 0.6338(4)
C7_2 C 0.8011(5) 0.9675(5) 0.5813(4)
H4_2 H 0.7962 0.9236 0.5528
O1_2 O 0.9402(4) 0.5422(4) 0.6794(3)
H10_2 H 0.9765 0.5557 0.7173
H11_2 H 0.9282 0.4934 0.6817
O4_2 O 0.9415(3) 0.6862(3) 0.6107(3)
O5_2 O 0.6535(3) 0.9576(3) 0.4667(3)
C25_2 C 0.9878(5) 0.8085(5) 0.8615(4)
C28_2 C 0.9120(5) 0.9207(5) 0.8057(5)
H18_2 H 0.8615 0.9436 0.7820
C29_2 C 0.9126(5) 0.8437(5) 0.8285(4)
H19_2 H 0.8637 0.8161 0.8217
C36_2 C 0.9918(5) 0.7226(5) 0.8814(4)
N5_2 N 0.9806(4) 0.9640(4) 0.8160(3)
O12_2 O 0.8877(4) 0.5435(4) 0.8181(3)
H25_2 H 0.8502 0.5785 0.8171
H26_2 H 0.8669 0.4969 0.8192
O13_2 O 0.9294(3) 0.6893(3) 0.8888(3)
O17_2 O 0.8465(3) 0.5424(3) 0.5333(3)
O21_2 O 0.9108(3) 0.4735(3) 0.4742(3)
O25_2 O 0.9591(3) 0.6393(3) 0.4802(3)
H11_3 H 0.5718 0.0066 0.3183
H13_3 H 0.3669 0.0031 0.3192
H24_3 H 0.4282 0.0066 0.1817
H26_3 H 0.6331 0.0031 0.1808
O23 O 0.4887(4) 0.0722(3) 0.3957(3)
O24 O 0.5113(4) 0.0722(3) 0.1043(3)
Zn1_4 Zn 0.5000 0.44007(7) 0.2500
C1_3 C 0.4878(5) 0.6915(5) 0.3615(4)
C2_3 C 0.5593(5) 0.6472(5) 0.3753(4)
H1_3 H 0.6102 0.6691 0.3990
C3_3 C 0.5531(5) 0.5693(4) 0.3529(4)
C4_3 C 0.4120(5) 0.5793(5) 0.3057(5)
H2_3 H 0.3615 0.5564 0.2820
C5_3 C 0.4126(5) 0.6563(5) 0.3285(4)
H3_3 H 0.3637 0.6839 0.3217
C6_3 C 0.6260(5) 0.5177(5) 0.3662(4)
C7_3 C 0.6989(5) 0.5325(5) 0.4187(4)
H4_3 H 0.7038 0.5764 0.4472
C8_3 C 0.7640(5) 0.4809(5) 0.4279(4)
C9_3 C 0.7550(5) 0.4134(5) 0.3872(4)
H5_3 H 0.7976 0.3770 0.3940
C10_3 C 0.6812(5) 0.4022(5) 0.3367(4)
H6_3 H 0.6743 0.3573 0.3091
C11_3 C 0.4521(5) 0.3472(5) 0.3632(4)
H7_3 H 0.4393 0.3962 0.3778
C12_3 C 0.4507(5) 0.2819(5) 0.4034(4)
H8_3 H 0.4374 0.2869 0.4442
C13_3 C 0.4697(5) 0.2079(5) 0.3813(4)
C14_3 C 0.4881(5) 0.2038(5) 0.3187(4)
H9_3 H 0.4993 0.1555 0.3020
C15_3 C 0.4892(5) 0.2723(4) 0.2825(4)
C16_3 C 0.4719(5) 0.1339(5) 0.4228(5)
C17_3 C 0.8461(5) 0.4999(5) 0.4816(4)
C18_3 C 0.4918(5) 0.7774(5) 0.3814(4)
N1_3 N 0.4806(4) 0.5360(4) 0.3160(3)
N2_3 N 0.6182(4) 0.4534(4) 0.3253(4)
N3_3 N 0.4712(4) 0.3434(4) 0.3041(4)
O1_3 O 0.5598(4) 0.9578(4) 0.3206(3)
H10_3 H 0.5235 0.9443 0.2827
O2_3 O 0.3877(4) 0.9565(4) 0.3181(3)
H12_3 H 0.3502 0.9215 0.3171
O3_3 O 0.4294(3) 0.8107(3) 0.3888(3)
O4_3 O 0.5585(3) 0.8138(3) 0.3893(3)
C19_3 C 0.5479(5) 0.3472(5) 0.1368(4)
H14_3 H 0.5607 0.3962 0.1222
C20_3 C 0.5493(5) 0.2819(5) 0.0966(4)
H15_3 H 0.5626 0.2869 0.0558
C21_3 C 0.5303(5) 0.2079(5) 0.1187(4)
C22_3 C 0.5119(5) 0.2038(5) 0.1813(4)
H16_3 H 0.5007 0.1555 0.1980
C23_3 C 0.5108(5) 0.2723(4) 0.2175(4)
C24_3 C 0.5281(5) 0.1339(5) 0.0772(5)
N4_3 N 0.5288(4) 0.3434(4) 0.1959(4)
C25_3 C 0.5122(5) 0.6915(5) 0.1385(4)
C26_3 C 0.4407(5) 0.6472(5) 0.1247(4)
H17_3 H 0.3898 0.6691 0.1010
C27_3 C 0.4469(5) 0.5693(4) 0.1471(4)
C28_3 C 0.5880(5) 0.5793(5) 0.1943(5)
H18_3 H 0.6385 0.5564 0.2180
C29_3 C 0.5874(5) 0.6563(5) 0.1715(4)
H19_3 H 0.6363 0.6839 0.1783
C30_3 C 0.3740(5) 0.5177(5) 0.1338(4)
C31_3 C 0.3011(5) 0.5325(5) 0.0813(4)
H20_3 H 0.2962 0.5764 0.0528
C32_3 C 0.2360(5) 0.4809(5) 0.0721(4)
C33_3 C 0.2450(5) 0.4134(5) 0.1128(4)
H21_3 H 0.2024 0.3770 0.1060
C34_3 C 0.3188(5) 0.4022(5) 0.1633(4)
H22_3 H 0.3257 0.3573 0.1909
C35_3 C 0.1539(5) 0.4999(5) 0.0184(4)
C36_3 C 0.5082(5) 0.7774(5) 0.1186(4)
N5_3 N 0.5194(4) 0.5360(4) 0.1840(3)
N6_3 N 0.3818(4) 0.4534(4) 0.1747(4)
O11_3 O 0.4402(4) 0.9578(4) 0.1794(3)
H23_3 H 0.4765 0.9443 0.2173
O12_3 O 0.6123(4) 0.9565(4) 0.1819(3)
H25_3 H 0.6498 0.9215 0.1829
O13_3 O 0.5706(3) 0.8107(3) 0.1112(3)
O14_3 O 0.4415(3) 0.8138(3) 0.1107(3)
C2_4 C 0.0593(5) 0.1472(5) 0.3753(4)
H1_4 H 0.1102 0.1691 0.3990
C3_4 C 0.0531(5) 0.0693(4) 0.3529(4)
C6_4 C 0.1260(5) 0.0177(5) 0.3662(4)
C7_4 C 0.1989(5) 0.0325(5) 0.4187(4)
H4_4 H 0.2038 0.0764 0.4472
O1_4 O 0.0598(4) 0.4578(4) 0.3206(3)
H10_4 H 0.0235 0.4443 0.2827
H11_4 H 0.0718 0.5066 0.3183
O4_4 O 0.0585(3) 0.3138(3) 0.3893(3)
C25_4 C 0.0122(5) 0.1915(5) 0.1385(4)
C28_4 C 0.0880(5) 0.0793(5) 0.1943(5)
H18_4 H 0.1385 0.0564 0.2180
C29_4 C 0.0874(5) 0.1563(5) 0.1715(4)
H19_4 H 0.1363 0.1839 0.1783
C36_4 C 0.0082(5) 0.2774(5) 0.1186(4)
N5_4 N 0.0194(4) 0.0360(4) 0.1840(3)
O12_4 O 0.1123(4) 0.4565(4) 0.1819(3)
H25_4 H 0.1498 0.4215 0.1829
H26_4 H 0.1331 0.5031 0.1808
O13_4 O 0.0706(3) 0.3107(3) 0.1112(3)
O24_2 O 0.0113(4) 0.5722(3) 0.1043(3)
Zn1_5 Zn -0.0000 0.94007(7) 0.2500
C8_4 C 0.2640(5) 0.9809(5) 0.4279(4)
C9_4 C 0.2550(5) 0.9134(5) 0.3872(4)
H5_4 H 0.2976 0.8770 0.3940
C10_4 C 0.1812(5) 0.9022(5) 0.3367(4)
H6_4 H 0.1743 0.8573 0.3091
C17_4 C 0.3461(5) 0.9999(5) 0.4816(4)
N2_4 N 0.1182(4) 0.9534(4) 0.3253(4)
C19_4 C 0.0479(5) 0.8472(5) 0.1368(4)
H14_4 H 0.0607 0.8962 0.1222
C20_4 C 0.0493(5) 0.7819(5) 0.0966(4)
H15_4 H 0.0626 0.7869 0.0558
C21_4 C 0.0303(5) 0.7079(5) 0.1187(4)
C22_4 C 0.0119(5) 0.7038(5) 0.1813(4)
H16_4 H 0.0007 0.6555 0.1980
C23_4 C 0.0108(5) 0.7723(4) 0.2175(4)
C24_4 C 0.0281(5) 0.6339(5) 0.0772(5)
N4_4 N 0.0288(4) 0.8434(4) 0.1959(4)
C1_4 C 0.9878(5) 0.1915(5) 0.3615(4)
C4_4 C 0.9120(5) 0.0793(5) 0.3057(5)
H2_4 H 0.8615 0.0564 0.2820
C5_4 C 0.9126(5) 0.1563(5) 0.3285(4)
H3_4 H 0.8637 0.1839 0.3217
C18_4 C 0.9918(5) 0.2774(5) 0.3814(4)
N1_4 N 0.9806(4) 0.0360(4) 0.3160(3)
O2_4 O 0.8877(4) 0.4565(4) 0.3181(3)
H12_4 H 0.8502 0.4215 0.3171
H13_4 H 0.8669 0.5031 0.3192
O3_4 O 0.9294(3) 0.3107(3) 0.3888(3)
C26_4 C 0.9407(5) 0.1472(5) 0.1247(4)
H17_4 H 0.8898 0.1691 0.1010
C27_4 C 0.9469(5) 0.0693(4) 0.1471(4)
C30_4 C 0.8740(5) 0.0177(5) 0.1338(4)
C31_4 C 0.8011(5) 0.0325(5) 0.0813(4)
H20_4 H 0.7962 0.0764 0.0528
O11_4 O 0.9402(4) 0.4578(4) 0.1794(3)
H23_4 H 0.9765 0.4443 0.2173
H24_4 H 0.9282 0.5066 0.1817
O14_4 O 0.9415(3) 0.3138(3) 0.1107(3)
O23_2 O 0.9887(4) 0.5722(3) 0.3957(3)
Zn1_6 Zn 1.0000 0.94007(7) 0.2500
C11_4 C 0.9521(5) 0.8472(5) 0.3632(4)
H7_4 H 0.9393 0.8962 0.3778
C12_4 C 0.9507(5) 0.7819(5) 0.4034(4)
H8_4 H 0.9374 0.7869 0.4442
C13_4 C 0.9697(5) 0.7079(5) 0.3813(4)
C14_4 C 0.9881(5) 0.7038(5) 0.3187(4)
H9_4 H 0.9993 0.6555 0.3020
C15_4 C 0.9892(5) 0.7723(4) 0.2825(4)
C16_4 C 0.9719(5) 0.6339(5) 0.4228(5)
N3_4 N 0.9712(4) 0.8434(4) 0.3041(4)
C32_4 C 0.7360(5) 0.9809(5) 0.0721(4)
C33_4 C 0.7450(5) 0.9134(5) 0.1128(4)
H21_4 H 0.7024 0.8770 0.1060
C34_4 C 0.8188(5) 0.9022(5) 0.1633(4)
H22_4 H 0.8257 0.8573 0.1909
C35_4 C 0.6539(5) 0.9999(5) 0.0184(4)
N6_4 N 0.8818(4) 0.9534(4) 0.1747(4)
O27 O 0.2647(6) 0.2950(7) 0.6669(5)
O28 O 0.2008(11) 0.4033(12) 0.7209(10)
N7 N 0.2198(14) 0.3274(15) 0.7068(11)
O29 O 0.2121(11) 0.2954(11) 0.7654(9)
O27_2 O 0.7353(6) 0.2950(7) 0.8331(5)
O28_2 O 0.7992(11) 0.4033(12) 0.7791(10)
N7_2 N 0.7802(14) 0.3274(15) 0.7932(11)
O29_2 O 0.7879(11) 0.2954(11) 0.7346(9)
O27_3 O 0.7647(6) 0.7950(7) 0.6669(5)
O28_3 O 0.7008(11) 0.9033(12) 0.7209(10)
N7_3 N 0.7198(14) 0.8274(15) 0.7068(11)
O29_3 O 0.7121(11) 0.7954(11) 0.7654(9)
O27_4 O 0.2353(6) 0.7950(7) 0.8331(5)
O28_4 O 0.2992(11) 0.9033(12) 0.7791(10)
N7_4 N 0.2802(14) 0.8274(15) 0.7932(11)
O29_4 O 0.2879(11) 0.7954(11) 0.7346(9)
O27_5 O 0.7353(6) 0.7050(7) 0.3331(5)
O28_5 O 0.7992(11) 0.5967(12) 0.2791(10)
N7_5 N 0.7802(14) 0.6726(15) 0.2932(11)
O29_5 O 0.7879(11) 0.7046(11) 0.2346(9)
O27_6 O 0.2647(6) 0.7050(7) 0.1669(5)
O28_6 O 0.2008(11) 0.5967(12) 0.2209(10)
N7_6 N 0.2198(14) 0.6726(15) 0.2068(11)
O29_6 O 0.2121(11) 0.7046(11) 0.2654(9)
O27_7 O 0.2353(6) 0.2050(7) 0.3331(5)
O28_7 O 0.2992(11) 0.0967(12) 0.2791(10)
N7_7 N 0.2802(14) 0.1726(15) 0.2932(11)
O29_7 O 0.2879(11) 0.2046(11) 0.2346(9)
O27_8 O 0.7647(6) 0.2050(7) 0.1669(5)
O28_8 O 0.7008(11) 0.0967(12) 0.2209(10)
N7_8 N 0.7198(14) 0.1726(15) 0.2068(11)
O29_8 O 0.7121(11) 0.2046(11) 0.2654(9)
loop_
_geom_bond_atom_site_label_1
_geom_bond_atom_site_label_2
_geom_bond_site_symmetry_1
_geom_bond_site_symmetry_2
Tb10 O15 1_555 1_555
Zn1 N1 1_555 1_555
Tb3 O1 1_555 1_555
C1 C2 1_555 1_555
C2 H1 1_555 1_555
C3 C2 1_555 1_555
C4 H2 1_555 1_555
C5 C1 1_555 1_555
H3 C5 1_555 1_555
C6 C3 1_555 1_555
C7 C6 1_555 1_555
H4 C7 1_555 1_555
C8 C7 1_555 1_555
C9 C8 1_555 1_555
H5 C9 1_555 1_555
C10 C9 1_555 1_555
H6 C10 1_555 1_555
C11 H7 1_555 1_555
C12 C11 1_555 1_555
H8 C12 1_555 1_555
C13 C12 1_555 1_555
C14 C13 1_555 1_555
H9 C14 1_555 1_555
C15 C14 1_555 1_555
C16 C13 1_555 1_555
C17 C8 1_555 1_555
C18 C1 1_555 1_555
N1 C3 1_555 1_555
N2 Zn1 1_555 1_555
N3 Zn1 1_555 1_555
O1 H10 1_555 1_555
O2 Tb3 1_555 1_555
H12 O2 1_555 1_555
O3 Tb3 1_555 1_555
O4 Tb3 1_555 1_555
O5 C17 1_555 1_555
O6 C17 1_555 1_555
O7 C16 1_555 1_555
O8 C16 1_555 1_555
C19 H14 1_555 1_555
C20 C19 1_555 1_555
H15 C20 1_555 1_555
C21 C20 1_555 1_555
C22 C21 1_555 1_555
H16 C22 1_555 1_555
C23 C15 1_555 1_555
C24 C21 1_555 1_555
N4 Zn1 1_555 1_555
O9 C24 1_555 1_555
O10 C24 1_555 1_555
Tb4 O11 1_555 1_555
C25 C26 1_555 1_555
C26 H17 1_555 1_555
C27 C26 1_555 1_555
C28 H18 1_555 1_555
C29 C25 1_555 1_555
H19 C29 1_555 1_555
C30 C27 1_555 1_555
C31 C30 1_555 1_555
H20 C31 1_555 1_555
C32 C31 1_555 1_555
C33 C32 1_555 1_555
H21 C33 1_555 1_555
C34 C33 1_555 1_555
H22 C34 1_555 1_555
C35 C32 1_555 1_555
C36 C25 1_555 1_555
N5 Zn1 1_555 1_555
N6 Zn1 1_555 1_555
O11 H23 1_555 1_555
O12 Tb4 1_555 1_555
H25 O12 1_555 1_555
O13 Tb4 1_555 1_555
O14 Tb4 1_555 1_555
O16 C35 1_555 1_555
Tb7 O8 1_555 1_555
Tb9 O5 1_555 1_555
O17 Tb3 1_555 1_555
O18 Tb4 1_555 1_555
O19 Tb3 1_555 1_555
O20 Tb4 1_555 1_555
O25 Tb3 1_555 1_555
C4 C5 1_555 1_555
C4 N1 1_555 1_555
C6 N2 1_555 1_555
C10 N2 1_555 1_555
C11 N3 1_555 1_555
C15 N3 1_555 1_555
C18 O3 1_555 1_555
C18 O4 1_555 1_555
O6 Tb9 1_555 1_555
C19 N4 1_555 1_555
C22 C23 1_555 1_555
C23 N4 1_555 1_555
C27 N5 1_555 1_555
C28 C29 1_555 1_555
C28 N5 1_555 1_555
C30 N6 1_555 1_555
C34 N6 1_555 1_555
C36 O13 1_555 1_555
C36 O14 1_555 1_555
C11_2 H7_2 1_555 1_555
C12_2 C11_2 1_555 1_555
H8_2 C12_2 1_555 1_555
C13_2 C12_2 1_555 1_555
C14_2 C13_2 1_555 1_555
H9_2 C14_2 1_555 1_555
C15_2 C14_2 1_555 1_555
C16_2 C13_2 1_555 1_555
N3_2 Zn1_2 1_555 1_555
O7_2 C16_2 1_555 1_555
O8_2 C16_2 1_555 1_555
C33_2 C32_2 1_555 1_555
H21_2 C33_2 1_555 1_555
C34_2 C33_2 1_555 1_555
H22_2 C34_2 1_555 1_555
C35_2 C32_2 1_555 1_555
N6_2 Zn1_2 1_555 1_555
O20 C35_2 1_555 1_555
Tb9 O8_2 1_555 1_555
C11_2 N3_2 1_555 1_555
C15_2 N3_2 1_555 1_555
C34_2 N6_2 1_555 1_555
Tb8 O15_2 1_555 1_555
C4_2 H2_2 1_555 1_555
C5_2 C1_2 1_555 1_555
H3_2 C5_2 1_555 1_555
C18_2 C1_2 1_555 1_555
H12_2 O2_2 1_555 1_555
H13_2 O2_2 1_555 1_555
Tb6 O11_2 1_555 1_555
C26_2 H17_2 1_555 1_555
C27_2 C26_2 1_555 1_555
C30_2 C27_2 1_555 1_555
C31_2 C30_2 1_555 1_555
H20_2 C31_2 1_555 1_555
O11_2 H23_2 1_555 1_555
H24_2 O11_2 1_555 1_555
O14_2 Tb6 1_555 1_555
O18_2 Tb6 1_555 1_555
C4_2 C5_2 1_555 1_555
C4_2 N1_2 1_555 1_555
C18_2 O3_2 1_555 1_555
C9_2 C8_2 1_555 1_555
H5_2 C9_2 1_555 1_555
C10_2 C9_2 1_555 1_555
H6_2 C10_2 1_555 1_555
C17_2 C8_2 1_555 1_555
N2_2 Zn1_3 1_555 1_555
O19 C17_2 1_555 1_555
C19_2 H14_2 1_555 1_555
C20_2 C19_2 1_555 1_555
H15_2 C20_2 1_555 1_555
C21_2 C20_2 1_555 1_555
C22_2 C21_2 1_555 1_555
H16_2 C22_2 1_555 1_555
C24_2 C21_2 1_555 1_555
N4_2 Zn1_3 1_555 1_555
O9_2 C24_2 1_555 1_555
O10_2 C24_2 1_555 1_555
C10_2 N2_2 1_555 1_555
C19_2 N4_2 1_555 1_555
C22_2 C23_2 1_555 1_555
C23_2 N4_2 1_555 1_555
Tb5 O1_2 1_555 1_555
C2_2 H1_2 1_555 1_555
C3_2 C2_2 1_555 1_555
C6_2 C3_2 1_555 1_555
C7_2 C6_2 1_555 1_555
H4_2 C7_2 1_555 1_555
O1_2 H10_2 1_555 1_555
H11_2 O1_2 1_555 1_555
O4_2 Tb5 1_555 1_555
C28_2 H18_2 1_555 1_555
C29_2 C25_2 1_555 1_555
H19_2 C29_2 1_555 1_555
C36_2 C25_2 1_555 1_555
H25_2 O12_2 1_555 1_555
H26_2 O12_2 1_555 1_555
Tb7 O5_2 1_555 1_555
O17_2 Tb5 1_555 1_555
O21_2 Tb5 1_555 1_555
O25_2 Tb5 1_555 1_555
C28_2 C29_2 1_555 1_555
C28_2 N5_2 1_555 1_555
C36_2 O13_2 1_555 1_555
Zn1_4 N1_3 1_555 1_555
Tb7 O1_3 1_555 1_555
C1_3 C2_3 1_555 1_555
C2_3 H1_3 1_555 1_555
C3_3 C2_3 1_555 1_555
C4_3 H2_3 1_555 1_555
C5_3 C1_3 1_555 1_555
H3_3 C5_3 1_555 1_555
C6_3 C3_3 1_555 1_555
C7_3 C6_3 1_555 1_555
H4_3 C7_3 1_555 1_555
C8_3 C7_3 1_555 1_555
C9_3 C8_3 1_555 1_555
H5_3 C9_3 1_555 1_555
C10_3 C9_3 1_555 1_555
H6_3 C10_3 1_555 1_555
C11_3 H7_3 1_555 1_555
C12_3 C11_3 1_555 1_555
H8_3 C12_3 1_555 1_555
C13_3 C12_3 1_555 1_555
C14_3 C13_3 1_555 1_555
H9_3 C14_3 1_555 1_555
C15_3 C14_3 1_555 1_555
C16_3 C13_3 1_555 1_555
C17_3 C8_3 1_555 1_555
C18_3 C1_3 1_555 1_555
N1_3 C3_3 1_555 1_555
N2_3 Zn1_4 1_555 1_555
N3_3 Zn1_4 1_555 1_555
O1_3 H10_3 1_555 1_555
O2_3 Tb7 1_555 1_555
H12_3 O2_3 1_555 1_555
O3_3 Tb7 1_555 1_555
O4_3 Tb7 1_555 1_555
O17_2 C17_3 1_555 1_555
O21_2 C17_3 1_555 1_555
O23 C16_3 1_555 1_555
O25 C16_3 1_555 1_555
C19_3 H14_3 1_555 1_555
C20_3 C19_3 1_555 1_555
H15_3 C20_3 1_555 1_555
C21_3 C20_3 1_555 1_555
C22_3 C21_3 1_555 1_555
H16_3 C22_3 1_555 1_555
C23_3 C15_3 1_555 1_555
C24_3 C21_3 1_555 1_555
N4_3 Zn1_4 1_555 1_555
O24 C24_3 1_555 1_555
O26 C24_3 1_555 1_555
Tb8 O11_3 1_555 1_555
C25_3 C26_3 1_555 1_555
C26_3 H17_3 1_555 1_555
C27_3 C26_3 1_555 1_555
C28_3 H18_3 1_555 1_555
C29_3 C25_3 1_555 1_555
H19_3 C29_3 1_555 1_555
C30_3 C27_3 1_555 1_555
C31_3 C30_3 1_555 1_555
H20_3 C31_3 1_555 1_555
C32_3 C31_3 1_555 1_555
C33_3 C32_3 1_555 1_555
H21_3 C33_3 1_555 1_555
C34_3 C33_3 1_555 1_555
H22_3 C34_3 1_555 1_555
C35_3 C32_3 1_555 1_555
C36_3 C25_3 1_555 1_555
N5_3 Zn1_4 1_555 1_555
N6_3 Zn1_4 1_555 1_555
O11_3 H23_3 1_555 1_555
O12_3 Tb8 1_555 1_555
H25_3 O12_3 1_555 1_555
O13_3 Tb8 1_555 1_555
O14_3 Tb8 1_555 1_555
O22_2 C35_3 1_555 1_555
O21 Tb7 1_555 1_555
O22 Tb8 1_555 1_555
C4_3 C5_3 1_555 1_555
C4_3 N1_3 1_555 1_555
C6_3 N2_3 1_555 1_555
C10_3 N2_3 1_555 1_555
C11_3 N3_3 1_555 1_555
C15_3 N3_3 1_555 1_555
C18_3 O3_3 1_555 1_555
C18_3 O4_3 1_555 1_555
C19_3 N4_3 1_555 1_555
C22_3 C23_3 1_555 1_555
C23_3 N4_3 1_555 1_555
C27_3 N5_3 1_555 1_555
C28_3 C29_3 1_555 1_555
C28_3 N5_3 1_555 1_555
C30_3 N6_3 1_555 1_555
C34_3 N6_3 1_555 1_555
C36_3 O13_3 1_555 1_555
C36_3 O14_3 1_555 1_555
Tb9 O1_4 1_555 1_555
C2_4 H1_4 1_555 1_555
C3_4 C2_4 1_555 1_555
C6_4 C3_4 1_555 1_555
C7_4 C6_4 1_555 1_555
H4_4 C7_4 1_555 1_555
O1_4 H10_4 1_555 1_555
H11_4 O1_4 1_555 1_555
O4_4 Tb9 1_555 1_555
C28_4 H18_4 1_555 1_555
C29_4 C25_4 1_555 1_555
H19_4 C29_4 1_555 1_555
C36_4 C25_4 1_555 1_555
H25_4 O12_4 1_555 1_555
H26_4 O12_4 1_555 1_555
C28_4 C29_4 1_555 1_555
C28_4 N5_4 1_555 1_555
C36_4 O13_4 1_555 1_555
C9_4 C8_4 1_555 1_555
H5_4 C9_4 1_555 1_555
C10_4 C9_4 1_555 1_555
H6_4 C10_4 1_555 1_555
C17_4 C8_4 1_555 1_555
N2_4 Zn1_5 1_555 1_555
O21 C17_4 1_555 1_555
C19_4 H14_4 1_555 1_555
C20_4 C19_4 1_555 1_555
H15_4 C20_4 1_555 1_555
C21_4 C20_4 1_555 1_555
C22_4 C21_4 1_555 1_555
H16_4 C22_4 1_555 1_555
C24_4 C21_4 1_555 1_555
N4_4 Zn1_5 1_555 1_555
O24_2 C24_4 1_555 1_555
O26_2 C24_4 1_555 1_555
C10_4 N2_4 1_555 1_555
C19_4 N4_4 1_555 1_555
C22_4 C23_4 1_555 1_555
C23_4 N4_4 1_555 1_555
C4_4 H2_4 1_555 1_555
C5_4 C1_4 1_555 1_555
H3_4 C5_4 1_555 1_555
C18_4 C1_4 1_555 1_555
H12_4 O2_4 1_555 1_555
H13_4 O2_4 1_555 1_555
Tb10 O11_4 1_555 1_555
C26_4 H17_4 1_555 1_555
C27_4 C26_4 1_555 1_555
C30_4 C27_4 1_555 1_555
C31_4 C30_4 1_555 1_555
H20_4 C31_4 1_555 1_555
O11_4 H23_4 1_555 1_555
H24_4 O11_4 1_555 1_555
O14_4 Tb10 1_555 1_555
C4_4 C5_4 1_555 1_555
C4_4 N1_4 1_555 1_555
C18_4 O3_4 1_555 1_555
C11_4 H7_4 1_555 1_555
C12_4 C11_4 1_555 1_555
H8_4 C12_4 1_555 1_555
C13_4 C12_4 1_555 1_555
C14_4 C13_4 1_555 1_555
H9_4 C14_4 1_555 1_555
C15_4 C14_4 1_555 1_555
C16_4 C13_4 1_555 1_555
N3_4 Zn1_6 1_555 1_555
O23_2 C16_4 1_555 1_555
O25_2 C16_4 1_555 1_555
C33_4 C32_4 1_555 1_555
H21_4 C33_4 1_555 1_555
C34_4 C33_4 1_555 1_555
H22_4 C34_4 1_555 1_555
C35_4 C32_4 1_555 1_555
N6_4 Zn1_6 1_555 1_555
O22 C35_4 1_555 1_555
C11_4 N3_4 1_555 1_555
C15_4 N3_4 1_555 1_555
C34_4 N6_4 1_555 1_555
O27 N7 1_555 1_555
O28 N7 1_555 1_555
N7 O29 1_555 1_555
O27_2 N7_2 1_555 1_555
O28_2 N7_2 1_555 1_555
N7_2 O29_2 1_555 1_555
O27_3 N7_3 1_555 1_555
O28_3 N7_3 1_555 1_555
N7_3 O29_3 1_555 1_555
O27_4 N7_4 1_555 1_555
O28_4 N7_4 1_555 1_555
N7_4 O29_4 1_555 1_555
O27_5 N7_5 1_555 1_555
O28_5 N7_5 1_555 1_555
N7_5 O29_5 1_555 1_555
O27_6 N7_6 1_555 1_555
O28_6 N7_6 1_555 1_555
N7_6 O29_6 1_555 1_555
O27_7 N7_7 1_555 1_555
O28_7 N7_7 1_555 1_555
N7_7 O29_7 1_555 1_555
O27_8 N7_8 1_555 1_555
O28_8 N7_8 1_555 1_555
N7_8 O29_8 1_555 1_555

#END
