
###############################################################################
#
# This file contains modified crystal structure data generated from the
# MOF subset of the Cambridge Structural Database (CSD) v543 
# hosted by the Cambridge Crystallographic Data Centre (CCDC).
#
# This work is licensed under the Creative Commons
# Attribution-NonCommercial-ShareAlike 4.0 International License.
# To view a copy of this license, visit
# http://creativecommons.org/licenses/by-nc-sa/4.0/
# or send a letter to
# Creative Commons, PO Box 1866, Mountain View, CA 94042, USA.
#
# CIF created using the CSD Python API on 29 September 2022
# The structure has been converted into the P1 space group
# The structure has a 3D framework
# The original CSD entry MOVKOZ is in the monoclinic crystal system
# The framework has been calculated to contain at least 10.0% void space
# The void calculation uses a probe of radius 1.32A, grid spacing 0.4
# The framework is charged, counterions have been retained in the structure
#
###############################################################################

data_MOVKOZ
_chemical_formula_moiety         '(C144 H104 I24 N24 O60 Tb8 Zn6 12-)n'
_symmetry_cell_setting           triclinic
_symmetry_space_group_name_H-M   'P 1'
_symmetry_Int_Tables_number      1
_space_group_name_Hall           'P 1'
loop_
_symmetry_equiv_pos_site_id
_symmetry_equiv_pos_as_xyz
1 x,y,z
_cell_length_a                   17.2316(6)
_cell_length_b                   16.7585(7)
_cell_length_c                   21.2567(7)
_cell_angle_alpha                90
_cell_angle_beta                 106.996(4)
_cell_angle_gamma                90
_cell_volume                     5870.33
loop_
_atom_site_label
_atom_site_type_symbol
_atom_site_fract_x
_atom_site_fract_y
_atom_site_fract_z
Tb6 Tb 0.02058(2) 0.06529(3) 0.928907(17)
Tb8 Tb 0.47942(2) 0.43471(3) 0.071093(17)
Zn1 Zn 0.5000 0.05995(9) 0.7500
C1 C 0.3162(5) 0.0924(6) 0.6780(4)
H1 H 0.3228 0.1377 0.7043
C2 C 0.2393(5) 0.0773(6) 0.6320(4)
H2 H 0.1953 0.1106 0.6295
C3 C 0.2317(5) 0.0134(6) 0.5918(4)
C13 C 0.5329(5) 0.1543(6) 0.6356(4)
H7 H 0.5418 0.1045 0.6195
C14 C 0.5317(6) 0.2198(7) 0.5967(4)
H8 H 0.5416 0.2151 0.5562
C15 C 0.5156(5) 0.2922(6) 0.6195(4)
C16 C 0.5035(5) 0.2991(6) 0.6795(4)
H9 H 0.4936 0.3487 0.6953
C17 C 0.5061(5) 0.2297(6) 0.7174(4)
C18 C 0.5115(5) 0.3686(6) 0.5767(4)
N1 N 0.3790(4) 0.0436(5) 0.6846(3)
N3 N 0.5221(4) 0.1579(5) 0.6950(3)
O2 O 0.0899(3) 0.0267(4) 0.5384(3)
O3 O 0.5326(4) 0.3605(4) 0.5257(3)
O4 O 0.4895(4) 0.4296(4) 0.5981(3)
C19 C 0.4671(5) 0.1543(6) 0.8644(4)
H14 H 0.4582 0.1045 0.8805
C20 C 0.4683(6) 0.2198(7) 0.9033(4)
H15 H 0.4584 0.2151 0.9438
C21 C 0.4844(5) 0.2922(6) 0.8805(4)
C22 C 0.4965(5) 0.2991(6) 0.8205(4)
H16 H 0.5064 0.3487 0.8047
C23 C 0.4939(5) 0.2297(6) 0.7826(4)
C24 C 0.4885(5) 0.3686(6) 0.9233(4)
N4 N 0.4779(4) 0.1579(5) 0.8050(3)
O9 O 0.4674(4) 0.3605(4) 0.9743(3)
O10 O 0.5105(4) 0.4296(4) 0.9019(3)
C25 C 0.6838(5) 0.0924(6) 0.8220(4)
H17 H 0.6772 0.1377 0.7957
C26 C 0.7607(5) 0.0773(6) 0.8680(4)
H18 H 0.8047 0.1106 0.8705
C27 C 0.7683(5) 0.0134(6) 0.9082(4)
N5 N 0.6210(4) 0.0436(5) 0.8154(3)
O12 O 0.9101(3) 0.0267(4) 0.9616(3)
Tb3 Tb 0.47942(2) 0.56529(3) 0.571093(17)
Tb4 Tb 0.52058(2) 0.56529(3) 0.928907(17)
Tb7 Tb 0.52058(2) 0.43471(3) 0.428907(17)
O11 O 0.8409(3) 0.9438(5) 0.0044(3)
Tb10 Tb 0.97942(2) 0.93471(3) 0.071093(17)
O22 O 0.5899(3) 0.4733(4) 0.0384(3)
O24 O 0.5326(4) 0.6395(4) 0.0257(3)
C4 C 0.3000(5) 0.9652(6) 0.5966(4)
H3 H 0.2967 0.9230 0.5675
C5 C 0.3716(5) 0.9805(6) 0.6441(4)
C6 C 0.1558(5) 0.9926(7) 0.5382(4)
C7 C 0.4449(5) 0.9315(6) 0.6524(4)
C8 C 0.4386(5) 0.8528(6) 0.6260(4)
H4 H 0.3883 0.8304 0.6053
C9 C 0.5089(5) 0.8110(6) 0.6321(4)
C10 C 0.5840(5) 0.8480(6) 0.6631(4)
H5 H 0.6327 0.8222 0.6660
C11 C 0.5833(5) 0.9233(6) 0.6890(4)
H6 H 0.6327 0.9471 0.7104
C12 C 0.5034(5) 0.7273(6) 0.6086(4)
N2 N 0.5152(4) 0.9640(5) 0.6849(3)
O1 O 0.1591(3) 0.9438(5) 0.4956(3)
O5 O 0.4354(4) 0.6925(4) 0.5971(3)
O6 O 0.5647(3) 0.6920(4) 0.6016(3)
O7 O 0.5698(5) 0.5559(5) 0.6789(3)
H10 H 0.5936 0.5097 0.6993
H11 H 0.5868 0.5981 0.7076
O8 O 0.3933(5) 0.5466(5) 0.6411(4)
H12 H 0.3570 0.5119 0.6241
H13 H 0.3704 0.5907 0.6452
C28 C 0.7000(5) 0.9652(6) 0.9034(4)
H19 H 0.7033 0.9230 0.9325
C29 C 0.6284(5) 0.9805(6) 0.8559(4)
C30 C 0.8442(5) 0.9926(7) 0.9618(4)
C31 C 0.5551(5) 0.9315(6) 0.8476(4)
C32 C 0.5614(5) 0.8528(6) 0.8740(4)
H20 H 0.6117 0.8304 0.8947
C33 C 0.4911(5) 0.8110(6) 0.8679(4)
C34 C 0.4160(5) 0.8480(6) 0.8369(4)
H21 H 0.3673 0.8222 0.8340
C35 C 0.4167(5) 0.9233(6) 0.8110(4)
H22 H 0.3673 0.9471 0.7896
C36 C 0.4966(5) 0.7273(6) 0.8914(4)
N6 N 0.4848(4) 0.9640(5) 0.8151(3)
O13 O 0.5646(4) 0.6925(4) 0.9029(3)
O14 O 0.4353(3) 0.6920(4) 0.8984(3)
O15 O 0.4302(5) 0.5559(5) 0.8211(3)
H23 H 0.4064 0.5097 0.8007
H24 H 0.4132 0.5981 0.7924
O16 O 0.6067(5) 0.5466(5) 0.8589(4)
H25 H 0.6430 0.5119 0.8759
H26 H 0.6296 0.5907 0.8548
Tb9 Tb 0.02058(2) 0.93471(3) 0.428907(17)
O17 O 0.3409(3) 0.5562(5) 0.5044(3)
O18 O 0.6591(3) 0.5562(5) 0.9956(3)
O19 O 0.5899(3) 0.5267(4) 0.5384(3)
O20 O 0.4101(3) 0.5267(4) 0.9616(3)
O21 O 0.4101(3) 0.4733(4) 0.4616(3)
O23 O 0.4674(4) 0.6395(4) 0.4743(3)
Tb5 Tb 0.97942(2) 0.06529(3) 0.571093(17)
O11_2 O 0.3409(3) 0.4438(5) 0.0044(3)
O24_2 O 0.0326(4) 0.1395(4) 0.0257(3)
Zn1_2 Zn -0.0000 0.55995(9) 0.7500
C9_2 C 0.0089(5) 0.3110(6) 0.6321(4)
C10_2 C 0.0840(5) 0.3480(6) 0.6631(4)
H5_2 H 0.1327 0.3222 0.6660
C11_2 C 0.0833(5) 0.4233(6) 0.6890(4)
H6_2 H 0.1327 0.4471 0.7104
C12_2 C 0.0034(5) 0.2273(6) 0.6086(4)
C13_2 C 0.0329(5) 0.6543(6) 0.6356(4)
H7_2 H 0.0418 0.6045 0.6195
C14_2 C 0.0317(6) 0.7198(7) 0.5967(4)
H8_2 H 0.0416 0.7151 0.5562
C15_2 C 0.0156(5) 0.7922(6) 0.6195(4)
C16_2 C 0.0035(5) 0.7991(6) 0.6795(4)
C17_2 C 0.0061(5) 0.7297(6) 0.7174(4)
C18_2 C 0.0115(5) 0.8686(6) 0.5767(4)
N2_2 N 0.0152(4) 0.4640(5) 0.6849(3)
N3_2 N 0.0221(4) 0.6579(5) 0.6950(3)
O3_2 O 0.0326(4) 0.8605(4) 0.5257(3)
O6_2 O 0.0647(3) 0.1920(4) 0.6016(3)
O7_2 O 0.0698(5) 0.0559(5) 0.6789(3)
H10_2 H 0.0936 0.0097 0.6993
H11_2 H 0.0868 0.0981 0.7076
H16_2 H 0.0064 0.8487 0.8047
O10_2 O 0.0105(4) 0.9296(4) 0.9019(3)
C25_2 C 0.1838(5) 0.5924(6) 0.8220(4)
H17_2 H 0.1772 0.6377 0.7957
C26_2 C 0.2607(5) 0.5773(6) 0.8680(4)
H18_2 H 0.3047 0.6106 0.8705
C27_2 C 0.2683(5) 0.5134(6) 0.9082(4)
C28_2 C 0.2000(5) 0.4652(6) 0.9034(4)
H19_2 H 0.2033 0.4230 0.9325
C29_2 C 0.1284(5) 0.4805(6) 0.8559(4)
C30_2 C 0.3442(5) 0.4926(7) 0.9618(4)
C31_2 C 0.0551(5) 0.4315(6) 0.8476(4)
C32_2 C 0.0614(5) 0.3528(6) 0.8740(4)
H20_2 H 0.1117 0.3304 0.8947
N5_2 N 0.1210(4) 0.5436(5) 0.8154(3)
O13_2 O 0.0646(4) 0.1925(4) 0.9029(3)
O16_2 O 0.1067(5) 0.0466(5) 0.8589(4)
H25_2 H 0.1430 0.0119 0.8759
H26_2 H 0.1296 0.0907 0.8548
O18_2 O 0.1591(3) 0.0562(5) 0.9956(3)
O22_2 O 0.0899(3) 0.9733(4) 0.0384(3)
Zn1_3 Zn 1.0000 0.55995(9) 0.7500
C1_2 C 0.8162(5) 0.5924(6) 0.6780(4)
H1_2 H 0.8228 0.6377 0.7043
C2_2 C 0.7393(5) 0.5773(6) 0.6320(4)
H2_2 H 0.6953 0.6106 0.6295
C3_2 C 0.7317(5) 0.5134(6) 0.5918(4)
C4_2 C 0.8000(5) 0.4652(6) 0.5966(4)
H3_2 H 0.7967 0.4230 0.5675
C5_2 C 0.8716(5) 0.4805(6) 0.6441(4)
C6_2 C 0.6558(5) 0.4926(7) 0.5382(4)
C7_2 C 0.9449(5) 0.4315(6) 0.6524(4)
C8_2 C 0.9386(5) 0.3528(6) 0.6260(4)
H4_2 H 0.8883 0.3304 0.6053
H9_2 H 0.9936 0.8487 0.6953
N1_2 N 0.8790(4) 0.5436(5) 0.6846(3)
O1_2 O 0.6591(3) 0.4438(5) 0.4956(3)
O4_2 O 0.9895(4) 0.9296(4) 0.5981(3)
O5_2 O 0.9354(4) 0.1925(4) 0.5971(3)
O8_2 O 0.8933(5) 0.0466(5) 0.6411(4)
H12_2 H 0.8570 0.0119 0.6241
H13_2 H 0.8704 0.0907 0.6452
C19_2 C 0.9671(5) 0.6543(6) 0.8644(4)
H14_2 H 0.9582 0.6045 0.8805
C20_2 C 0.9683(6) 0.7198(7) 0.9033(4)
H15_2 H 0.9584 0.7151 0.9438
C21_2 C 0.9844(5) 0.7922(6) 0.8805(4)
C22_2 C 0.9965(5) 0.7991(6) 0.8205(4)
C23_2 C 0.9939(5) 0.7297(6) 0.7826(4)
C24_2 C 0.9885(5) 0.8686(6) 0.9233(4)
N4_2 N 0.9779(4) 0.6579(5) 0.8050(3)
O9_2 O 0.9674(4) 0.8605(4) 0.9743(3)
C33_2 C 0.9911(5) 0.3110(6) 0.8679(4)
C34_2 C 0.9160(5) 0.3480(6) 0.8369(4)
H21_2 H 0.8673 0.3222 0.8340
C35_2 C 0.9167(5) 0.4233(6) 0.8110(4)
H22_2 H 0.8673 0.4471 0.7896
C36_2 C 0.9966(5) 0.2273(6) 0.8914(4)
N6_2 N 0.9848(4) 0.4640(5) 0.8151(3)
O14_2 O 0.9353(3) 0.1920(4) 0.8984(3)
O15_2 O 0.9302(5) 0.0559(5) 0.8211(3)
H23_2 H 0.9064 0.0097 0.8007
H24_2 H 0.9132 0.0981 0.7924
O17_2 O 0.8409(3) 0.0562(5) 0.5044(3)
O23_2 O 0.9674(4) 0.1395(4) 0.4743(3)
O21_2 O 0.9101(3) 0.9733(4) 0.4616(3)
C4_3 C 0.7000(5) 0.0348(6) 0.4034(4)
H3_3 H 0.7033 0.0770 0.4325
C5_3 C 0.6284(5) 0.0195(6) 0.3559(4)
C6_3 C 0.8442(5) 0.0074(7) 0.4618(4)
C7_3 C 0.5551(5) 0.0685(6) 0.3476(4)
C8_3 C 0.5614(5) 0.1472(6) 0.3740(4)
H4_3 H 0.6117 0.1696 0.3947
C9_3 C 0.4911(5) 0.1890(6) 0.3679(4)
C10_3 C 0.4160(5) 0.1520(6) 0.3369(4)
H5_3 H 0.3673 0.1778 0.3340
C11_3 C 0.4167(5) 0.0767(6) 0.3110(4)
H6_3 H 0.3673 0.0529 0.2896
C12_3 C 0.4966(5) 0.2727(6) 0.3914(4)
N2_3 N 0.4848(4) 0.0360(5) 0.3151(3)
O5_3 O 0.5646(4) 0.3075(4) 0.4029(3)
O6_3 O 0.4353(3) 0.3080(4) 0.3984(3)
O7_3 O 0.4302(5) 0.4441(5) 0.3211(3)
H10_3 H 0.4064 0.4903 0.3007
H11_3 H 0.4132 0.4019 0.2924
O8_3 O 0.6067(5) 0.4534(5) 0.3589(4)
H12_3 H 0.6430 0.4881 0.3759
H13_3 H 0.6296 0.4093 0.3548
C28_3 C 0.3000(5) 0.0348(6) 0.0966(4)
H19_3 H 0.2967 0.0770 0.0675
C29_3 C 0.3716(5) 0.0195(6) 0.1441(4)
C30_3 C 0.1558(5) 0.0074(7) 0.0382(4)
C31_3 C 0.4449(5) 0.0685(6) 0.1524(4)
C32_3 C 0.4386(5) 0.1472(6) 0.1260(4)
H20_3 H 0.3883 0.1696 0.1053
C33_3 C 0.5089(5) 0.1890(6) 0.1321(4)
C34_3 C 0.5840(5) 0.1520(6) 0.1631(4)
H21_3 H 0.6327 0.1778 0.1660
C35_3 C 0.5833(5) 0.0767(6) 0.1890(4)
H22_3 H 0.6327 0.0529 0.2104
C36_3 C 0.5034(5) 0.2727(6) 0.1086(4)
N6_3 N 0.5152(4) 0.0360(5) 0.1849(3)
O13_3 O 0.4354(4) 0.3075(4) 0.0971(3)
O14_3 O 0.5647(3) 0.3080(4) 0.1016(3)
O15_3 O 0.5698(5) 0.4441(5) 0.1789(3)
H23_3 H 0.5936 0.4903 0.1993
H24_3 H 0.5868 0.4019 0.2076
O16_3 O 0.3933(5) 0.4534(5) 0.1411(4)
H25_3 H 0.3570 0.4881 0.1241
H26_3 H 0.3704 0.4093 0.1452
O25 O 0.5105(4) 0.5704(4) 0.4019(3)
O26 O 0.4895(4) 0.5704(4) 0.0981(3)
Zn1_4 Zn 0.5000 0.94005(9) 0.2500
C1_3 C 0.6838(5) 0.9076(6) 0.3220(4)
H1_3 H 0.6772 0.8623 0.2957
C2_3 C 0.7607(5) 0.9227(6) 0.3680(4)
H2_3 H 0.8047 0.8894 0.3705
C3_3 C 0.7683(5) 0.9866(6) 0.4082(4)
C13_3 C 0.4671(5) 0.8457(6) 0.3644(4)
H7_3 H 0.4582 0.8955 0.3805
C14_3 C 0.4683(6) 0.7802(7) 0.4033(4)
H8_3 H 0.4584 0.7849 0.4438
C15_3 C 0.4844(5) 0.7078(6) 0.3805(4)
C16_3 C 0.4965(5) 0.7009(6) 0.3205(4)
H9_3 H 0.5064 0.6513 0.3047
C17_3 C 0.4939(5) 0.7703(6) 0.2826(4)
C18_3 C 0.4885(5) 0.6314(6) 0.4233(4)
N1_3 N 0.6210(4) 0.9564(5) 0.3154(3)
N3_3 N 0.4779(4) 0.8421(5) 0.3050(3)
C19_3 C 0.5329(5) 0.8457(6) 0.1356(4)
H14_3 H 0.5418 0.8955 0.1195
C20_3 C 0.5317(6) 0.7802(7) 0.0967(4)
H15_3 H 0.5416 0.7849 0.0562
C21_3 C 0.5156(5) 0.7078(6) 0.1195(4)
C22_3 C 0.5035(5) 0.7009(6) 0.1795(4)
H16_3 H 0.4936 0.6513 0.1953
C23_3 C 0.5061(5) 0.7703(6) 0.2174(4)
C24_3 C 0.5115(5) 0.6314(6) 0.0767(4)
N4_3 N 0.5221(4) 0.8421(5) 0.1950(3)
C25_3 C 0.3162(5) 0.9076(6) 0.1780(4)
H17_3 H 0.3228 0.8623 0.2043
C26_3 C 0.2393(5) 0.9227(6) 0.1320(4)
H18_3 H 0.1953 0.8894 0.1295
C27_3 C 0.2317(5) 0.9866(6) 0.0918(4)
N5_3 N 0.3790(4) 0.9564(5) 0.1846(3)
O25_2 O 0.0105(4) 0.0704(4) 0.4019(3)
Zn1_5 Zn -0.0000 0.44005(9) 0.2500
C1_4 C 0.1838(5) 0.4076(6) 0.3220(4)
H1_4 H 0.1772 0.3623 0.2957
C2_4 C 0.2607(5) 0.4227(6) 0.3680(4)
H2_4 H 0.3047 0.3894 0.3705
C3_4 C 0.2683(5) 0.4866(6) 0.4082(4)
C4_4 C 0.2000(5) 0.5348(6) 0.4034(4)
H3_4 H 0.2033 0.5770 0.4325
C5_4 C 0.1284(5) 0.5195(6) 0.3559(4)
C6_4 C 0.3442(5) 0.5074(7) 0.4618(4)
C7_4 C 0.0551(5) 0.5685(6) 0.3476(4)
C8_4 C 0.0614(5) 0.6472(6) 0.3740(4)
H4_4 H 0.1117 0.6696 0.3947
H9_4 H 0.0064 0.1513 0.3047
N1_4 N 0.1210(4) 0.4564(5) 0.3154(3)
O5_4 O 0.0646(4) 0.8075(4) 0.4029(3)
O8_4 O 0.1067(5) 0.9534(5) 0.3589(4)
H12_4 H 0.1430 0.9881 0.3759
H13_4 H 0.1296 0.9093 0.3548
C19_4 C 0.0329(5) 0.3457(6) 0.1356(4)
H14_4 H 0.0418 0.3955 0.1195
C20_4 C 0.0317(6) 0.2802(7) 0.0967(4)
H15_4 H 0.0416 0.2849 0.0562
C21_4 C 0.0156(5) 0.2078(6) 0.1195(4)
C22_4 C 0.0035(5) 0.2009(6) 0.1795(4)
C23_4 C 0.0061(5) 0.2703(6) 0.2174(4)
C24_4 C 0.0115(5) 0.1314(6) 0.0767(4)
N4_4 N 0.0221(4) 0.3421(5) 0.1950(3)
C33_4 C 0.0089(5) 0.6890(6) 0.1321(4)
C34_4 C 0.0840(5) 0.6520(6) 0.1631(4)
H21_4 H 0.1327 0.6778 0.1660
C35_4 C 0.0833(5) 0.5767(6) 0.1890(4)
H22_4 H 0.1327 0.5529 0.2104
C36_4 C 0.0034(5) 0.7727(6) 0.1086(4)
N6_4 N 0.0152(4) 0.5360(5) 0.1849(3)
O14_4 O 0.0647(3) 0.8080(4) 0.1016(3)
O15_4 O 0.0698(5) 0.9441(5) 0.1789(3)
H23_4 H 0.0936 0.9903 0.1993
H24_4 H 0.0868 0.9019 0.2076
O26_2 O 0.9895(4) 0.0704(4) 0.0981(3)
Zn1_6 Zn 1.0000 0.44005(9) 0.2500
C9_4 C 0.9911(5) 0.6890(6) 0.3679(4)
C10_4 C 0.9160(5) 0.6520(6) 0.3369(4)
H5_4 H 0.8673 0.6778 0.3340
C11_4 C 0.9167(5) 0.5767(6) 0.3110(4)
H6_4 H 0.8673 0.5529 0.2896
C12_4 C 0.9966(5) 0.7727(6) 0.3914(4)
C13_4 C 0.9671(5) 0.3457(6) 0.3644(4)
H7_4 H 0.9582 0.3955 0.3805
C14_4 C 0.9683(6) 0.2802(7) 0.4033(4)
H8_4 H 0.9584 0.2849 0.4438
C15_4 C 0.9844(5) 0.2078(6) 0.3805(4)
C16_4 C 0.9965(5) 0.2009(6) 0.3205(4)
C17_4 C 0.9939(5) 0.2703(6) 0.2826(4)
C18_4 C 0.9885(5) 0.1314(6) 0.4233(4)
N2_4 N 0.9848(4) 0.5360(5) 0.3151(3)
N3_4 N 0.9779(4) 0.3421(5) 0.3050(3)
O6_4 O 0.9353(3) 0.8080(4) 0.3984(3)
O7_4 O 0.9302(5) 0.9441(5) 0.3211(3)
H10_4 H 0.9064 0.9903 0.3007
H11_4 H 0.9132 0.9019 0.2924
H16_4 H 0.9936 0.1513 0.1953
C25_4 C 0.8162(5) 0.4076(6) 0.1780(4)
H17_4 H 0.8228 0.3623 0.2043
C26_4 C 0.7393(5) 0.4227(6) 0.1320(4)
H18_4 H 0.6953 0.3894 0.1295
C27_4 C 0.7317(5) 0.4866(6) 0.0918(4)
C28_4 C 0.8000(5) 0.5348(6) 0.0966(4)
H19_4 H 0.7967 0.5770 0.0675
C29_4 C 0.8716(5) 0.5195(6) 0.1441(4)
C30_4 C 0.6558(5) 0.5074(7) 0.0382(4)
C31_4 C 0.9449(5) 0.5685(6) 0.1524(4)
C32_4 C 0.9386(5) 0.6472(6) 0.1260(4)
H20_4 H 0.8883 0.6696 0.1053
N5_4 N 0.8790(4) 0.4564(5) 0.1846(3)
O13_4 O 0.9354(4) 0.8075(4) 0.0971(3)
O16_4 O 0.8933(5) 0.9534(5) 0.1411(4)
H25_4 H 0.8570 0.9881 0.1241
H26_4 H 0.8704 0.9093 0.1452
I1 I 0.18273(7) 0.89964(10) 0.77297(6)
I1_2 I 0.81727(7) 0.89964(10) 0.72703(6)
I1_3 I 0.68273(7) 0.39964(10) 0.77297(6)
I1_4 I 0.31727(7) 0.39964(10) 0.72703(6)
I1_5 I 0.81727(7) 0.10036(10) 0.22703(6)
I1_6 I 0.18273(7) 0.10036(10) 0.27297(6)
I1_7 I 0.31727(7) 0.60036(10) 0.22703(6)
I1_8 I 0.68273(7) 0.60036(10) 0.27297(6)
I2 I 0.2436(3) 0.7758(3) 0.6938(2)
I2_2 I 0.7564(3) 0.7758(3) 0.8062(2)
I2_3 I 0.7436(3) 0.2758(3) 0.6938(2)
I2_4 I 0.2564(3) 0.2758(3) 0.8062(2)
I2_5 I 0.7564(3) 0.2242(3) 0.3062(2)
I2_6 I 0.2436(3) 0.2242(3) 0.1938(2)
I2_7 I 0.2564(3) 0.7242(3) 0.3062(2)
I2_8 I 0.7436(3) 0.7242(3) 0.1938(2)
I3 I 0.4241(4) 0.0192(3) 0.48404(18)
I3_2 I 0.5759(4) 0.0192(3) 0.01596(18)
I3_3 I 0.9241(4) 0.5192(3) 0.48404(18)
I3_4 I 0.0759(4) 0.5192(3) 0.01596(18)
I3_5 I 0.5759(4) 0.9808(3) 0.51596(18)
I3_6 I 0.4241(4) 0.9808(3) 0.98404(18)
I3_7 I 0.0759(4) 0.4808(3) 0.51596(18)
I3_8 I 0.9241(4) 0.4808(3) 0.98404(18)
loop_
_geom_bond_atom_site_label_1
_geom_bond_atom_site_label_2
_geom_bond_site_symmetry_1
_geom_bond_site_symmetry_2
Zn1 N1 1_555 1_555
C1 H1 1_555 1_555
C2 C1 1_555 1_555
H2 C2 1_555 1_555
C3 C2 1_555 1_555
C13 H7 1_555 1_555
C14 C13 1_555 1_555
H8 C14 1_555 1_555
C15 C14 1_555 1_555
C16 C15 1_555 1_555
H9 C16 1_555 1_555
C17 C16 1_555 1_555
C18 C15 1_555 1_555
N1 C1 1_555 1_555
N3 Zn1 1_555 1_555
O3 C18 1_555 1_555
O4 C18 1_555 1_555
C19 H14 1_555 1_555
C20 C19 1_555 1_555
H15 C20 1_555 1_555
C21 C20 1_555 1_555
C22 C21 1_555 1_555
H16 C22 1_555 1_555
C23 C17 1_555 1_555
C24 C21 1_555 1_555
N4 Zn1 1_555 1_555
O9 C24 1_555 1_555
O10 C24 1_555 1_555
C25 H17 1_555 1_555
C26 C25 1_555 1_555
H18 C26 1_555 1_555
C27 C26 1_555 1_555
N5 Zn1 1_555 1_555
Tb3 O4 1_555 1_555
Tb4 O10 1_555 1_555
Tb7 O3 1_555 1_555
C13 N3 1_555 1_555
C17 N3 1_555 1_555
C19 N4 1_555 1_555
C22 C23 1_555 1_555
C23 N4 1_555 1_555
C25 N5 1_555 1_555
Tb10 O11 1_555 1_555
Tb3 O5 1_555 1_555
H3 C4 1_555 1_555
C5 C4 1_555 1_555
C7 C5 1_555 1_555
C8 C7 1_555 1_555
H4 C8 1_555 1_555
C9 C8 1_555 1_555
C10 C9 1_555 1_555
H5 C10 1_555 1_555
C11 C10 1_555 1_555
H6 C11 1_555 1_555
C12 C9 1_555 1_555
O1 C6 1_555 1_555
O5 C12 1_555 1_555
O6 Tb3 1_555 1_555
O7 Tb3 1_555 1_555
H10 O7 1_555 1_555
H11 O7 1_555 1_555
O8 Tb3 1_555 1_555
H12 O8 1_555 1_555
H13 O8 1_555 1_555
Tb4 O13 1_555 1_555
H19 C28 1_555 1_555
C29 C28 1_555 1_555
C31 C29 1_555 1_555
C32 C31 1_555 1_555
H20 C32 1_555 1_555
C33 C32 1_555 1_555
C34 C33 1_555 1_555
H21 C34 1_555 1_555
C35 C34 1_555 1_555
H22 C35 1_555 1_555
C36 C33 1_555 1_555
O13 C36 1_555 1_555
O14 Tb4 1_555 1_555
O15 Tb4 1_555 1_555
H23 O15 1_555 1_555
H24 O15 1_555 1_555
O16 Tb4 1_555 1_555
H25 O16 1_555 1_555
H26 O16 1_555 1_555
Tb9 O1 1_555 1_555
O17 Tb3 1_555 1_555
O18 Tb4 1_555 1_555
O19 Tb3 1_555 1_555
O20 Tb4 1_555 1_555
O21 Tb3 1_555 1_555
O23 Tb3 1_555 1_555
C7 N2 1_555 1_555
C11 N2 1_555 1_555
C12 O6 1_555 1_555
C31 N6 1_555 1_555
C35 N6 1_555 1_555
C36 O14 1_555 1_555
Tb8 O11_2 1_555 1_555
C10_2 C9_2 1_555 1_555
H5_2 C10_2 1_555 1_555
C11_2 C10_2 1_555 1_555
H6_2 C11_2 1_555 1_555
C12_2 C9_2 1_555 1_555
C13_2 H7_2 1_555 1_555
C14_2 C13_2 1_555 1_555
H8_2 C14_2 1_555 1_555
C15_2 C14_2 1_555 1_555
C16_2 C15_2 1_555 1_555
C17_2 C16_2 1_555 1_555
C18_2 C15_2 1_555 1_555
N2_2 Zn1_2 1_555 1_555
N3_2 Zn1_2 1_555 1_555
O3_2 C18_2 1_555 1_555
H10_2 O7_2 1_555 1_555
H11_2 O7_2 1_555 1_555
Tb6 O13_2 1_555 1_555
C25_2 H17_2 1_555 1_555
C26_2 C25_2 1_555 1_555
H18_2 C26_2 1_555 1_555
C27_2 C26_2 1_555 1_555
C28_2 C27_2 1_555 1_555
H19_2 C28_2 1_555 1_555
C29_2 C28_2 1_555 1_555
C30_2 C27_2 1_555 1_555
C31_2 C29_2 1_555 1_555
C32_2 C31_2 1_555 1_555
H20_2 C32_2 1_555 1_555
N5_2 Zn1_2 1_555 1_555
O20 C30_2 1_555 1_555
O16_2 Tb6 1_555 1_555
H25_2 O16_2 1_555 1_555
H26_2 O16_2 1_555 1_555
Tb9 O3_2 1_555 1_555
O18_2 Tb6 1_555 1_555
C11_2 N2_2 1_555 1_555
C12_2 O6_2 1_555 1_555
C13_2 N3_2 1_555 1_555
C17_2 N3_2 1_555 1_555
C25_2 N5_2 1_555 1_555
C29_2 N5_2 1_555 1_555
Zn1_3 N1_2 1_555 1_555
Tb5 O5_2 1_555 1_555
C1_2 H1_2 1_555 1_555
C2_2 C1_2 1_555 1_555
H2_2 C2_2 1_555 1_555
C3_2 C2_2 1_555 1_555
C4_2 C3_2 1_555 1_555
H3_2 C4_2 1_555 1_555
C5_2 C4_2 1_555 1_555
C6_2 C3_2 1_555 1_555
C7_2 C5_2 1_555 1_555
C8_2 C7_2 1_555 1_555
H4_2 C8_2 1_555 1_555
N1_2 C1_2 1_555 1_555
O1_2 C6_2 1_555 1_555
O19 C6_2 1_555 1_555
O8_2 Tb5 1_555 1_555
H12_2 O8_2 1_555 1_555
H13_2 O8_2 1_555 1_555
C19_2 H14_2 1_555 1_555
C20_2 C19_2 1_555 1_555
H15_2 C20_2 1_555 1_555
C21_2 C20_2 1_555 1_555
C22_2 C21_2 1_555 1_555
C24_2 C21_2 1_555 1_555
N4_2 Zn1_3 1_555 1_555
O9_2 C24_2 1_555 1_555
C34_2 C33_2 1_555 1_555
H21_2 C34_2 1_555 1_555
C35_2 C34_2 1_555 1_555
H22_2 C35_2 1_555 1_555
C36_2 C33_2 1_555 1_555
N6_2 Zn1_3 1_555 1_555
H23_2 O15_2 1_555 1_555
H24_2 O15_2 1_555 1_555
Tb7 O1_2 1_555 1_555
O17_2 Tb5 1_555 1_555
O23_2 Tb5 1_555 1_555
C5_2 N1_2 1_555 1_555
O19 Tb7 1_555 1_555
C19_2 N4_2 1_555 1_555
C22_2 C23_2 1_555 1_555
C23_2 N4_2 1_555 1_555
C35_2 N6_2 1_555 1_555
C36_2 O14_2 1_555 1_555
Tb7 O5_3 1_555 1_555
H3_3 C4_3 1_555 1_555
C5_3 C4_3 1_555 1_555
C7_3 C5_3 1_555 1_555
C8_3 C7_3 1_555 1_555
H4_3 C8_3 1_555 1_555
C9_3 C8_3 1_555 1_555
C10_3 C9_3 1_555 1_555
H5_3 C10_3 1_555 1_555
C11_3 C10_3 1_555 1_555
H6_3 C11_3 1_555 1_555
C12_3 C9_3 1_555 1_555
O17_2 C6_3 1_555 1_555
O5_3 C12_3 1_555 1_555
O6_3 Tb7 1_555 1_555
O7_3 Tb7 1_555 1_555
H10_3 O7_3 1_555 1_555
H11_3 O7_3 1_555 1_555
O8_3 Tb7 1_555 1_555
H12_3 O8_3 1_555 1_555
H13_3 O8_3 1_555 1_555
Tb8 O13_3 1_555 1_555
H19_3 C28_3 1_555 1_555
C29_3 C28_3 1_555 1_555
C31_3 C29_3 1_555 1_555
C32_3 C31_3 1_555 1_555
H20_3 C32_3 1_555 1_555
C33_3 C32_3 1_555 1_555
C34_3 C33_3 1_555 1_555
H21_3 C34_3 1_555 1_555
C35_3 C34_3 1_555 1_555
H22_3 C35_3 1_555 1_555
C36_3 C33_3 1_555 1_555
O13_3 C36_3 1_555 1_555
O14_3 Tb8 1_555 1_555
O15_3 Tb8 1_555 1_555
H23_3 O15_3 1_555 1_555
H24_3 O15_3 1_555 1_555
O16_3 Tb8 1_555 1_555
H25_3 O16_3 1_555 1_555
H26_3 O16_3 1_555 1_555
O21 Tb7 1_555 1_555
O22 Tb8 1_555 1_555
O25 Tb7 1_555 1_555
O26 Tb8 1_555 1_555
C7_3 N2_3 1_555 1_555
C11_3 N2_3 1_555 1_555
C12_3 O6_3 1_555 1_555
C31_3 N6_3 1_555 1_555
C35_3 N6_3 1_555 1_555
C36_3 O14_3 1_555 1_555
Zn1_4 N1_3 1_555 1_555
C1_3 H1_3 1_555 1_555
C2_3 C1_3 1_555 1_555
H2_3 C2_3 1_555 1_555
C3_3 C2_3 1_555 1_555
C13_3 H7_3 1_555 1_555
C14_3 C13_3 1_555 1_555
H8_3 C14_3 1_555 1_555
C15_3 C14_3 1_555 1_555
C16_3 C15_3 1_555 1_555
H9_3 C16_3 1_555 1_555
C17_3 C16_3 1_555 1_555
C18_3 C15_3 1_555 1_555
N1_3 C1_3 1_555 1_555
N3_3 Zn1_4 1_555 1_555
O23 C18_3 1_555 1_555
O25 C18_3 1_555 1_555
C19_3 H14_3 1_555 1_555
C20_3 C19_3 1_555 1_555
H15_3 C20_3 1_555 1_555
C21_3 C20_3 1_555 1_555
C22_3 C21_3 1_555 1_555
H16_3 C22_3 1_555 1_555
C23_3 C17_3 1_555 1_555
C24_3 C21_3 1_555 1_555
N4_3 Zn1_4 1_555 1_555
O24 C24_3 1_555 1_555
O26 C24_3 1_555 1_555
C25_3 H17_3 1_555 1_555
C26_3 C25_3 1_555 1_555
H18_3 C26_3 1_555 1_555
C27_3 C26_3 1_555 1_555
N5_3 Zn1_4 1_555 1_555
C13_3 N3_3 1_555 1_555
C17_3 N3_3 1_555 1_555
C19_3 N4_3 1_555 1_555
C22_3 C23_3 1_555 1_555
C23_3 N4_3 1_555 1_555
C25_3 N5_3 1_555 1_555
Zn1_5 N1_4 1_555 1_555
Tb9 O5_4 1_555 1_555
C1_4 H1_4 1_555 1_555
C2_4 C1_4 1_555 1_555
H2_4 C2_4 1_555 1_555
C3_4 C2_4 1_555 1_555
C4_4 C3_4 1_555 1_555
H3_4 C4_4 1_555 1_555
C5_4 C4_4 1_555 1_555
C6_4 C3_4 1_555 1_555
C7_4 C5_4 1_555 1_555
C8_4 C7_4 1_555 1_555
H4_4 C8_4 1_555 1_555
N1_4 C1_4 1_555 1_555
O17 C6_4 1_555 1_555
O21 C6_4 1_555 1_555
O8_4 Tb9 1_555 1_555
H12_4 O8_4 1_555 1_555
H13_4 O8_4 1_555 1_555
C19_4 H14_4 1_555 1_555
C20_4 C19_4 1_555 1_555
H15_4 C20_4 1_555 1_555
C21_4 C20_4 1_555 1_555
C22_4 C21_4 1_555 1_555
C24_4 C21_4 1_555 1_555
N4_4 Zn1_5 1_555 1_555
O24_2 C24_4 1_555 1_555
C34_4 C33_4 1_555 1_555
H21_4 C34_4 1_555 1_555
C35_4 C34_4 1_555 1_555
H22_4 C35_4 1_555 1_555
C36_4 C33_4 1_555 1_555
N6_4 Zn1_5 1_555 1_555
H23_4 O15_4 1_555 1_555
H24_4 O15_4 1_555 1_555
C5_4 N1_4 1_555 1_555
C19_4 N4_4 1_555 1_555
C22_4 C23_4 1_555 1_555
C23_4 N4_4 1_555 1_555
C35_4 N6_4 1_555 1_555
C36_4 O14_4 1_555 1_555
C10_4 C9_4 1_555 1_555
H5_4 C10_4 1_555 1_555
C11_4 C10_4 1_555 1_555
H6_4 C11_4 1_555 1_555
C12_4 C9_4 1_555 1_555
C13_4 H7_4 1_555 1_555
C14_4 C13_4 1_555 1_555
H8_4 C14_4 1_555 1_555
C15_4 C14_4 1_555 1_555
C16_4 C15_4 1_555 1_555
C17_4 C16_4 1_555 1_555
C18_4 C15_4 1_555 1_555
N2_4 Zn1_6 1_555 1_555
N3_4 Zn1_6 1_555 1_555
O23_2 C18_4 1_555 1_555
H10_4 O7_4 1_555 1_555
H11_4 O7_4 1_555 1_555
Tb10 O13_4 1_555 1_555
C25_4 H17_4 1_555 1_555
C26_4 C25_4 1_555 1_555
H18_4 C26_4 1_555 1_555
C27_4 C26_4 1_555 1_555
C28_4 C27_4 1_555 1_555
H19_4 C28_4 1_555 1_555
C29_4 C28_4 1_555 1_555
C30_4 C27_4 1_555 1_555
C31_4 C29_4 1_555 1_555
C32_4 C31_4 1_555 1_555
H20_4 C32_4 1_555 1_555
N5_4 Zn1_6 1_555 1_555
O22 C30_4 1_555 1_555
O16_4 Tb10 1_555 1_555
H25_4 O16_4 1_555 1_555
H26_4 O16_4 1_555 1_555
C11_4 N2_4 1_555 1_555
C12_4 O6_4 1_555 1_555
C13_4 N3_4 1_555 1_555
C17_4 N3_4 1_555 1_555
C25_4 N5_4 1_555 1_555
C29_4 N5_4 1_555 1_555

#END
