
###############################################################################
#
# This file contains modified crystal structure data generated from the
# MOF subset of the Cambridge Structural Database (CSD) v543 
# hosted by the Cambridge Crystallographic Data Centre (CCDC).
#
# This work is licensed under the Creative Commons
# Attribution-NonCommercial-ShareAlike 4.0 International License.
# To view a copy of this license, visit
# http://creativecommons.org/licenses/by-nc-sa/4.0/
# or send a letter to
# Creative Commons, PO Box 1866, Mountain View, CA 94042, USA.
#
# CIF created using the CSD Python API on 29 September 2022
# The structure has been converted into the P1 space group
# The structure has a 3D framework
# The original CSD entry MOWFIQ is in the orthorhombic crystal system
# The original CSD entry MOWFIQ is in a Sohncke space group
# The framework has been calculated to contain at least 10.0% void space
# The void calculation uses a probe of radius 1.32A, grid spacing 0.4
#
###############################################################################

data_MOWFIQ
_chemical_formula_moiety         '(C384 H248 O104 Zn22)n'
_symmetry_cell_setting           triclinic
_symmetry_space_group_name_H-M   'P 1'
_symmetry_Int_Tables_number      1
_space_group_name_Hall           'P 1'
loop_
_symmetry_equiv_pos_site_id
_symmetry_equiv_pos_as_xyz
1 x,y,z
_cell_length_a                   31.589(5)
_cell_length_b                   33.562(5)
_cell_length_c                   20.708(3)
_cell_angle_alpha                90
_cell_angle_beta                 90
_cell_angle_gamma                90
_cell_volume                     21954.4
loop_
_atom_site_label
_atom_site_type_symbol
_atom_site_fract_x
_atom_site_fract_y
_atom_site_fract_z
Zn8 Zn 0.01722(7) 0.29028(6) 0.86763(13)
O16 O 0.5730(4) 0.3203(4) 0.3169(8)
O17 O 0.5453(4) 0.3108(3) 0.2146(6)
O18 O 0.7202(4) 0.4519(4) 0.2074(7)
H32 H 0.7048 0.4347 0.2230
O19 O 0.7547(4) 0.5741(3) 0.2194(7)
H33 H 0.7294 0.5690 0.2169
O20 O 0.9452(4) 0.6920(3) 0.2822(7)
O21 O 0.9233(5) 0.6692(5) 0.3824(9)
C52 C 0.5617(4) 0.6201(3) 0.0056(6)
H40 H 0.5504 0.5956 0.0173
C53 C 0.6043(4) 0.6281(4) 0.0165(6)
H41 H 0.6497 0.6701 0.0063
C56 C 0.6339(6) 0.5963(5) 0.0471(10)
C57 C 0.6137(6) 0.5612(5) 0.0721(10)
H43 H 0.5849 0.5561 0.0672
C58 C 0.6419(6) 0.5349(5) 0.1052(10)
C59 C 0.6861(7) 0.5414(6) 0.1093(11)
C60 C 0.7057(7) 0.5720(6) 0.0715(10)
H44 H 0.7348 0.5745 0.0671
C61 C 0.6767(7) 0.5980(6) 0.0414(10)
H45 H 0.6878 0.6181 0.0155
C62 C 0.6252(6) 0.5013(5) 0.1306(10)
H46 H 0.5965 0.4961 0.1257
C63 C 0.6517(6) 0.4729(4) 0.1657(9)
C64 C 0.6964(7) 0.4787(6) 0.1762(11)
C65 C 0.7120(5) 0.5132(5) 0.1433(10)
C66 C 0.6320(4) 0.4337(3) 0.1958(7)
C67 C 0.6376(4) 0.4202(3) 0.2587(6)
H47 H 0.6547 0.4343 0.2871
C68 C 0.6177(4) 0.3854(4) 0.2790(5)
H48 H 0.6214 0.3764 0.3210
C69 C 0.5921(4) 0.3643(3) 0.2364(7)
C70 C 0.5865(4) 0.3778(3) 0.1736(6)
H49 H 0.5694 0.3637 0.1451
C71 C 0.6065(4) 0.4126(4) 0.1533(5)
H50 H 0.6027 0.4216 0.1112
C72 C 0.5672(6) 0.3293(4) 0.2600(9)
C73 C 0.7584(5) 0.5209(5) 0.1452(10)
C74 C 0.7760(6) 0.5495(6) 0.1829(11)
C75 C 0.8237(6) 0.5520(6) 0.1782(10)
C76 C 0.8485(6) 0.5285(5) 0.1429(10)
H51 H 0.8776 0.5328 0.1415
C77 C 0.8308(6) 0.4977(5) 0.1084(10)
C78 C 0.7827(6) 0.4901(5) 0.1104(10)
C79 C 0.7638(6) 0.4616(5) 0.0722(10)
H52 H 0.7346 0.4594 0.0680
C80 C 0.7927(7) 0.4356(6) 0.0392(11)
H53 H 0.7815 0.4169 0.0108
C81 C 0.8392(7) 0.4368(6) 0.0479(11)
C82 C 0.8553(6) 0.4709(6) 0.0755(10)
H54 H 0.8841 0.4759 0.0716
C83 C 0.8470(4) 0.5852(3) 0.2132(7)
C84 C 0.8423(4) 0.5892(3) 0.2796(7)
H55 H 0.8234 0.5730 0.3017
C85 C 0.8659(4) 0.6175(4) 0.3129(5)
H56 H 0.8628 0.6201 0.3574
C86 C 0.8942(4) 0.6417(3) 0.2799(7)
C87 C 0.8989(3) 0.6377(3) 0.2134(7)
H57 H 0.9179 0.6540 0.1913
C88 C 0.8753(4) 0.6095(4) 0.1801(5)
H58 H 0.8785 0.6068 0.1357
C89 C 0.9221(7) 0.6738(6) 0.3190(11)
C90 C 0.8670(4) 0.4065(4) 0.0179(7)
C91 C 0.8522(3) 0.3676(4) 0.0126(7)
H59 H 0.8253 0.3612 0.0274
Zn9 Zn 0.98278(7) 0.70972(6) 0.36763(13)
Zn11 Zn 0.56513(8) 0.26886(6) 0.37502(14)
Zn15 Zn 0.5000 0.27590(8) 0.2500
Zn1 Zn 0.48278(7) 0.79028(6) 0.63237(13)
Zn2 Zn 0.56513(8) 0.73114(6) 0.62498(14)
Zn3 Zn 0.5000 0.72410(8) 0.7500
O1 O 0.4552(4) 0.7529(4) 0.5871(7)
O2 O 0.5184(4) 0.7040(3) 0.5930(7)
O3 O 0.4270(4) 0.3203(4) 0.1831(8)
O4 O 0.4547(4) 0.3108(3) 0.2854(6)
O5 O 0.2798(4) 0.4519(4) 0.2926(7)
H1 H 0.2952 0.4347 0.2770
O6 O 0.2453(4) 0.5741(3) 0.2806(7)
H2 H 0.2706 0.5690 0.2831
O7 O 0.0548(4) 0.6920(3) 0.2178(7)
O8 O 0.0767(5) 0.6692(5) 0.1176(9)
O9 O 0.0675(4) 0.2835(4) 0.5706(7)
O10 O 0.0208(5) 0.3277(3) 0.5870(6)
O11 O 0.5254(3) 0.7601(2) 0.6886(5)
H3 H 0.5421 0.7797 0.7126
O12 O 0.6183(5) 0.7565(4) 0.6726(10)
H4 H 0.6276 0.7459 0.7116
H5 H 0.6322 0.7782 0.6545
O13 O 0.6031(5) 0.6995(5) 0.5650(7)
H6 H 0.5914 0.6805 0.5375
H7 H 0.6321 0.7039 0.5650
C1 C 0.4777(6) 0.7153(5) 0.5725(9)
C2 C 0.4470(4) 0.6855(3) 0.5403(6)
C3 C 0.4640(3) 0.6488(4) 0.5228(6)
H8 H 0.4925 0.6435 0.5301
C4 C 0.4383(4) 0.6201(3) 0.4944(6)
H9 H 0.4496 0.5956 0.4827
C5 C 0.3957(4) 0.6281(4) 0.4835(6)
C6 C 0.3788(3) 0.6647(4) 0.5010(7)
H10 H 0.3503 0.6701 0.4937
C7 C 0.4045(4) 0.6935(3) 0.5293(6)
H11 H 0.3931 0.7180 0.5410
C8 C 0.3661(6) 0.5963(5) 0.4529(10)
C9 C 0.3863(6) 0.5612(5) 0.4279(10)
H12 H 0.4151 0.5561 0.4328
C10 C 0.3581(6) 0.5349(5) 0.3948(10)
C11 C 0.3139(7) 0.5414(6) 0.3907(11)
C12 C 0.2943(7) 0.5720(6) 0.4285(10)
H13 H 0.2652 0.5745 0.4329
C13 C 0.3233(7) 0.5980(6) 0.4586(10)
H14 H 0.3122 0.6181 0.4845
C14 C 0.3748(6) 0.5013(5) 0.3694(10)
H15 H 0.4035 0.4961 0.3743
C15 C 0.3483(6) 0.4729(4) 0.3343(9)
C16 C 0.3036(7) 0.4787(6) 0.3238(11)
C17 C 0.2880(5) 0.5132(5) 0.3567(10)
C18 C 0.3680(4) 0.4337(3) 0.3042(7)
C19 C 0.3624(4) 0.4202(3) 0.2413(6)
H16 H 0.3453 0.4343 0.2129
C20 C 0.3823(4) 0.3854(4) 0.2210(5)
H17 H 0.3786 0.3764 0.1790
C21 C 0.4079(4) 0.3643(3) 0.2636(7)
C22 C 0.4135(4) 0.3778(3) 0.3264(6)
H18 H 0.4306 0.3637 0.3549
C23 C 0.3935(4) 0.4126(4) 0.3467(5)
H19 H 0.3973 0.4216 0.3888
C24 C 0.4328(6) 0.3293(4) 0.2400(9)
C25 C 0.2416(5) 0.5209(5) 0.3548(10)
C26 C 0.2240(6) 0.5495(6) 0.3171(11)
C27 C 0.1763(6) 0.5520(6) 0.3218(10)
C28 C 0.1515(6) 0.5285(5) 0.3571(10)
H20 H 0.1224 0.5328 0.3585
C29 C 0.1692(6) 0.4977(5) 0.3916(10)
C30 C 0.2173(6) 0.4901(5) 0.3896(10)
C31 C 0.2362(6) 0.4616(5) 0.4278(10)
H21 H 0.2654 0.4594 0.4320
C32 C 0.2073(7) 0.4356(6) 0.4608(11)
H22 H 0.2185 0.4169 0.4892
C33 C 0.1608(7) 0.4368(6) 0.4521(11)
C34 C 0.1447(6) 0.4709(6) 0.4245(10)
H23 H 0.1159 0.4759 0.4284
C35 C 0.1530(4) 0.5852(3) 0.2868(7)
C36 C 0.1577(4) 0.5892(3) 0.2204(7)
H24 H 0.1766 0.5730 0.1983
C37 C 0.1341(4) 0.6175(4) 0.1871(5)
H25 H 0.1372 0.6201 0.1426
C38 C 0.1058(4) 0.6417(3) 0.2201(7)
C39 C 0.1011(3) 0.6377(3) 0.2866(7)
H26 H 0.0821 0.6540 0.3087
C40 C 0.1247(4) 0.6095(4) 0.3199(5)
H27 H 0.1215 0.6068 0.3643
C41 C 0.0779(7) 0.6738(6) 0.1810(11)
C42 C 0.1330(4) 0.4065(4) 0.4821(7)
C43 C 0.1478(3) 0.3676(4) 0.4874(7)
H28 H 0.1747 0.3612 0.4726
C44 C 0.1224(4) 0.3384(3) 0.5150(7)
H29 H 0.1323 0.3124 0.5185
C45 C 0.0822(4) 0.3480(4) 0.5372(6)
C46 C 0.0673(3) 0.3869(4) 0.5319(6)
H30 H 0.0404 0.3933 0.5468
C47 C 0.0927(4) 0.4161(3) 0.5044(7)
H31 H 0.0828 0.4421 0.5008
C48 C 0.0559(6) 0.3169(5) 0.5704(11)
Zn4 Zn 0.51722(7) 0.79028(6) 0.86763(13)
Zn5 Zn 0.43487(8) 0.73114(6) 0.87502(14)
O14 O 0.5448(4) 0.7529(4) 0.9129(7)
O15 O 0.4816(4) 0.7040(3) 0.9070(7)
O22 O 0.9325(4) 0.2835(4) 0.9294(7)
O23 O 0.9792(5) 0.3277(3) 0.9130(6)
O24 O 0.4746(3) 0.7601(2) 0.8114(5)
H34 H 0.4579 0.7797 0.7874
O25 O 0.3817(5) 0.7565(4) 0.8274(10)
H35 H 0.3724 0.7459 0.7884
H36 H 0.3678 0.7782 0.8455
O26 O 0.3969(5) 0.6995(5) 0.9350(7)
H37 H 0.4086 0.6805 0.9625
H38 H 0.3679 0.7039 0.9350
C49 C 0.5223(6) 0.7153(5) 0.9275(9)
C50 C 0.5530(4) 0.6855(3) 0.9597(6)
C51 C 0.5360(3) 0.6488(4) 0.9772(6)
H39 H 0.5075 0.6435 0.9699
C54 C 0.6212(3) 0.6647(4) 0.9990(7)
C55 C 0.5955(4) 0.6935(3) 0.9707(6)
H42 H 0.6069 0.7180 0.9590
C92 C 0.8776(4) 0.3384(3) 0.9850(7)
H60 H 0.8677 0.3124 0.9815
C93 C 0.9178(4) 0.3480(4) 0.9628(6)
C94 C 0.9327(3) 0.3869(4) 0.9681(6)
H61 H 0.9596 0.3933 0.9532
C95 C 0.9073(4) 0.4161(3) 0.9956(7)
H62 H 0.9172 0.4421 0.9992
C96 C 0.9441(6) 0.3169(5) 0.9296(11)
Zn7 Zn 0.01722(7) 0.70972(6) 0.13237(13)
Zn10 Zn 0.43487(8) 0.26886(6) 0.12498(14)
Zn12 Zn 0.06513(8) 0.23114(6) 0.62498(14)
Zn13 Zn 0.93487(8) 0.23114(6) 0.87502(14)
O27 O 0.5730(4) 0.6797(4) 0.6831(8)
O28 O 0.4270(4) 0.6797(4) 0.8169(8)
O29 O 0.5453(4) 0.6892(3) 0.7854(6)
O30 O 0.4547(4) 0.6892(3) 0.7146(6)
O31 O 0.4452(4) 0.8080(3) 0.7178(7)
O32 O 0.5548(4) 0.8080(3) 0.7822(7)
O33 O 0.4233(5) 0.8308(5) 0.6176(9)
O34 O 0.5767(5) 0.8308(5) 0.8824(9)
O35 O 0.5675(4) 0.7835(4) 0.5706(7)
O36 O 0.4325(4) 0.7835(4) 0.9294(7)
O37 O 0.5208(5) 0.8277(3) 0.5870(6)
O38 O 0.4792(5) 0.8277(3) 0.9130(6)
Zn6 Zn 0.98278(7) 0.29028(6) 0.63237(13)
Zn1_2 Zn 0.51722(7) 0.20972(6) 0.13237(13)
O1_2 O 0.5448(4) 0.2471(4) 0.0871(7)
O2_2 O 0.4816(4) 0.2960(3) 0.0930(7)
O9_2 O 0.9325(4) 0.7165(4) 0.0706(7)
O10_2 O 0.9792(5) 0.6723(3) 0.0870(6)
O11_2 O 0.4746(3) 0.2399(2) 0.1886(5)
H3_2 H 0.4579 0.2203 0.2126
O12_2 O 0.3817(5) 0.2435(4) 0.1726(10)
H4_2 H 0.3724 0.2541 0.2116
H5_2 H 0.3678 0.2218 0.1545
O13_2 O 0.3969(5) 0.3005(5) 0.0650(7)
H6_2 H 0.4086 0.3195 0.0375
H7_2 H 0.3679 0.2961 0.0650
C1_2 C 0.5223(6) 0.2847(5) 0.0725(9)
C2_2 C 0.5530(4) 0.3145(3) 0.0403(6)
C3_2 C 0.5360(3) 0.3512(4) 0.0228(6)
H8_2 H 0.5075 0.3565 0.0301
C6_2 C 0.6212(3) 0.3353(4) 0.0010(7)
C7_2 C 0.5955(4) 0.3065(3) 0.0293(6)
H11_2 H 0.6069 0.2820 0.0410
C44_2 C 0.8776(4) 0.6616(3) 0.0150(7)
H29_2 H 0.8677 0.6876 0.0185
C45_2 C 0.9178(4) 0.6520(4) 0.0372(6)
C46_2 C 0.9327(3) 0.6131(4) 0.0319(6)
H30_2 H 0.9596 0.6067 0.0468
C47_2 C 0.9073(4) 0.5839(3) 0.0044(7)
H31_2 H 0.9172 0.5579 0.0008
C48_2 C 0.9441(6) 0.6831(5) 0.0704(11)
Zn4_2 Zn 0.48278(7) 0.20972(6) 0.36763(13)
O14_2 O 0.4552(4) 0.2471(4) 0.4129(7)
O15_2 O 0.5184(4) 0.2960(3) 0.4070(7)
O18_2 O 0.2798(4) 0.5481(4) 0.7074(7)
H32_2 H 0.2952 0.5653 0.7230
O19_2 O 0.2453(4) 0.4259(3) 0.7194(7)
H33_2 H 0.2706 0.4310 0.7169
O20_2 O 0.0548(4) 0.3080(3) 0.7822(7)
O21_2 O 0.0767(5) 0.3308(5) 0.8824(9)
O22_2 O 0.0675(4) 0.7165(4) 0.4294(7)
O23_2 O 0.0208(5) 0.6723(3) 0.4130(6)
O24_2 O 0.5254(3) 0.2399(2) 0.3114(5)
H34_2 H 0.5421 0.2203 0.2874
O25_2 O 0.6183(5) 0.2435(4) 0.3274(10)
H35_2 H 0.6276 0.2541 0.2884
H36_2 H 0.6322 0.2218 0.3455
O26_2 O 0.6031(5) 0.3005(5) 0.4350(7)
H37_2 H 0.5914 0.3195 0.4625
H38_2 H 0.6321 0.2961 0.4350
C49_2 C 0.4777(6) 0.2847(5) 0.4275(9)
C50_2 C 0.4470(4) 0.3145(3) 0.4597(6)
C51_2 C 0.4640(3) 0.3512(4) 0.4772(6)
H39_2 H 0.4925 0.3565 0.4699
C52_2 C 0.4383(4) 0.3799(3) 0.5056(6)
H40_2 H 0.4496 0.4044 0.5173
C53_2 C 0.3957(4) 0.3719(4) 0.5165(6)
C54_2 C 0.3788(3) 0.3353(4) 0.4990(7)
H41_2 H 0.3503 0.3299 0.5063
C55_2 C 0.4045(4) 0.3065(3) 0.4707(6)
H42_2 H 0.3931 0.2820 0.4590
C56_2 C 0.3661(6) 0.4037(5) 0.5471(10)
C57_2 C 0.3863(6) 0.4388(5) 0.5721(10)
H43_2 H 0.4151 0.4439 0.5672
C58_2 C 0.3581(6) 0.4651(5) 0.6052(10)
C59_2 C 0.3139(7) 0.4586(6) 0.6093(11)
C60_2 C 0.2943(7) 0.4280(6) 0.5715(10)
H44_2 H 0.2652 0.4255 0.5671
C61_2 C 0.3233(7) 0.4020(6) 0.5414(10)
H45_2 H 0.3122 0.3819 0.5155
C62_2 C 0.3748(6) 0.4987(5) 0.6306(10)
H46_2 H 0.4035 0.5039 0.6257
C63_2 C 0.3483(6) 0.5271(4) 0.6657(9)
C64_2 C 0.3036(7) 0.5213(6) 0.6762(11)
C65_2 C 0.2880(5) 0.4868(5) 0.6433(10)
C66_2 C 0.3680(4) 0.5663(3) 0.6958(7)
C67_2 C 0.3624(4) 0.5798(3) 0.7587(6)
H47_2 H 0.3453 0.5657 0.7871
C68_2 C 0.3823(4) 0.6146(4) 0.7790(5)
H48_2 H 0.3786 0.6236 0.8210
C69_2 C 0.4079(4) 0.6357(3) 0.7364(7)
C70_2 C 0.4135(4) 0.6222(3) 0.6736(6)
H49_2 H 0.4306 0.6363 0.6451
C71_2 C 0.3935(4) 0.5874(4) 0.6533(5)
H50_2 H 0.3973 0.5784 0.6112
C72_2 C 0.4328(6) 0.6707(4) 0.7600(9)
C73_2 C 0.2416(5) 0.4791(5) 0.6452(10)
C74_2 C 0.2240(6) 0.4505(6) 0.6829(11)
C75_2 C 0.1763(6) 0.4480(6) 0.6782(10)
C76_2 C 0.1515(6) 0.4715(5) 0.6429(10)
H51_2 H 0.1224 0.4672 0.6415
C77_2 C 0.1692(6) 0.5023(5) 0.6084(10)
C78_2 C 0.2173(6) 0.5099(5) 0.6104(10)
C79_2 C 0.2362(6) 0.5384(5) 0.5722(10)
H52_2 H 0.2654 0.5406 0.5680
C80_2 C 0.2073(7) 0.5644(6) 0.5392(11)
H53_2 H 0.2185 0.5831 0.5108
C81_2 C 0.1608(7) 0.5632(6) 0.5479(11)
C82_2 C 0.1447(6) 0.5291(6) 0.5755(10)
H54_2 H 0.1159 0.5241 0.5716
C83_2 C 0.1530(4) 0.4148(3) 0.7132(7)
C84_2 C 0.1577(4) 0.4108(3) 0.7796(7)
H55_2 H 0.1766 0.4270 0.8017
C85_2 C 0.1341(4) 0.3825(4) 0.8129(5)
H56_2 H 0.1372 0.3799 0.8574
C86_2 C 0.1058(4) 0.3583(3) 0.7799(7)
C87_2 C 0.1011(3) 0.3623(3) 0.7134(7)
H57_2 H 0.0821 0.3460 0.6913
C88_2 C 0.1247(4) 0.3905(4) 0.6801(5)
H58_2 H 0.1215 0.3932 0.6357
C89_2 C 0.0779(7) 0.3262(6) 0.8190(11)
C90_2 C 0.1330(4) 0.5935(4) 0.5179(7)
C91_2 C 0.1478(3) 0.6324(4) 0.5126(7)
H59_2 H 0.1747 0.6388 0.5274
C92_2 C 0.1224(4) 0.6616(3) 0.4850(7)
H60_2 H 0.1323 0.6876 0.4815
C93_2 C 0.0822(4) 0.6520(4) 0.4628(6)
C94_2 C 0.0673(3) 0.6131(4) 0.4681(6)
H61_2 H 0.0404 0.6067 0.4532
C95_2 C 0.0927(4) 0.5839(3) 0.4956(7)
H62_2 H 0.0828 0.5579 0.4992
C96_2 C 0.0559(6) 0.6831(5) 0.4296(11)
Zn12_2 Zn 0.93487(8) 0.76886(6) 0.12498(14)
Zn13_2 Zn 0.06513(8) 0.76886(6) 0.37502(14)
O31_2 O 0.5548(4) 0.1920(3) 0.2178(7)
O32_2 O 0.4452(4) 0.1920(3) 0.2822(7)
O33_2 O 0.5767(5) 0.1692(5) 0.1176(9)
O34_2 O 0.4233(5) 0.1692(5) 0.3824(9)
O35_2 O 0.4325(4) 0.2165(4) 0.0706(7)
O36_2 O 0.5675(4) 0.2165(4) 0.4294(7)
O37_2 O 0.4792(5) 0.1723(3) 0.0870(6)
O38_2 O 0.5208(5) 0.1723(3) 0.4130(6)
O5_2 O 0.7202(4) 0.5481(4) 0.7926(7)
H1_2 H 0.7048 0.5653 0.7770
O6_2 O 0.7547(4) 0.4259(3) 0.7806(7)
H2_2 H 0.7294 0.4310 0.7831
O7_2 O 0.9452(4) 0.3080(3) 0.7178(7)
O8_2 O 0.9233(5) 0.3308(5) 0.6176(9)
C4_2 C 0.5617(4) 0.3799(3) 0.9944(6)
H9_2 H 0.5504 0.4044 0.9827
C5_2 C 0.6043(4) 0.3719(4) 0.9835(6)
H10_2 H 0.6497 0.3299 0.9937
C8_2 C 0.6339(6) 0.4037(5) 0.9529(10)
C9_2 C 0.6137(6) 0.4388(5) 0.9279(10)
H12_2 H 0.5849 0.4439 0.9328
C10_2 C 0.6419(6) 0.4651(5) 0.8948(10)
C11_2 C 0.6861(7) 0.4586(6) 0.8907(11)
C12_2 C 0.7057(7) 0.4280(6) 0.9285(10)
H13_2 H 0.7348 0.4255 0.9329
C13_2 C 0.6767(7) 0.4020(6) 0.9586(10)
H14_2 H 0.6878 0.3819 0.9845
C14_2 C 0.6252(6) 0.4987(5) 0.8694(10)
H15_2 H 0.5965 0.5039 0.8743
C15_2 C 0.6517(6) 0.5271(4) 0.8343(9)
C16_2 C 0.6964(7) 0.5213(6) 0.8238(11)
C17_2 C 0.7120(5) 0.4868(5) 0.8567(10)
C18_2 C 0.6320(4) 0.5663(3) 0.8042(7)
C19_2 C 0.6376(4) 0.5798(3) 0.7413(6)
H16_2 H 0.6547 0.5657 0.7129
C20_2 C 0.6177(4) 0.6146(4) 0.7210(5)
H17_2 H 0.6214 0.6236 0.6790
C21_2 C 0.5921(4) 0.6357(3) 0.7636(7)
C22_2 C 0.5865(4) 0.6222(3) 0.8264(6)
H18_2 H 0.5694 0.6363 0.8549
C23_2 C 0.6065(4) 0.5874(4) 0.8467(5)
H19_2 H 0.6027 0.5784 0.8888
C24_2 C 0.5672(6) 0.6707(4) 0.7400(9)
C25_2 C 0.7584(5) 0.4791(5) 0.8548(10)
C26_2 C 0.7760(6) 0.4505(6) 0.8171(11)
C27_2 C 0.8237(6) 0.4480(6) 0.8218(10)
C28_2 C 0.8485(6) 0.4715(5) 0.8571(10)
H20_2 H 0.8776 0.4672 0.8585
C29_2 C 0.8308(6) 0.5023(5) 0.8916(10)
C30_2 C 0.7827(6) 0.5099(5) 0.8896(10)
C31_2 C 0.7638(6) 0.5384(5) 0.9278(10)
H21_2 H 0.7346 0.5406 0.9320
C32_2 C 0.7927(7) 0.5644(6) 0.9608(11)
H22_2 H 0.7815 0.5831 0.9892
C33_2 C 0.8392(7) 0.5632(6) 0.9521(11)
C34_2 C 0.8553(6) 0.5291(6) 0.9245(10)
H23_2 H 0.8841 0.5241 0.9284
C35_2 C 0.8470(4) 0.4148(3) 0.7868(7)
C36_2 C 0.8423(4) 0.4108(3) 0.7204(7)
H24_2 H 0.8234 0.4270 0.6983
C37_2 C 0.8659(4) 0.3825(4) 0.6871(5)
H25_2 H 0.8628 0.3799 0.6426
C38_2 C 0.8942(4) 0.3583(3) 0.7201(7)
C39_2 C 0.8989(3) 0.3623(3) 0.7866(7)
H26_2 H 0.9179 0.3460 0.8087
C40_2 C 0.8753(4) 0.3905(4) 0.8199(5)
H27_2 H 0.8785 0.3932 0.8643
C41_2 C 0.9221(7) 0.3262(6) 0.6810(11)
C42_2 C 0.8670(4) 0.5935(4) 0.9821(7)
C43_2 C 0.8522(3) 0.6324(4) 0.9874(7)
H28_2 H 0.8253 0.6388 0.9726
O19_3 O 0.2547(4) 0.0741(3) 0.2194(7)
H33_3 H 0.2294 0.0690 0.2169
C52_3 C 0.0617(4) 0.1201(3) 0.0056(6)
H40_3 H 0.0504 0.0956 0.0173
C53_3 C 0.1043(4) 0.1281(4) 0.0165(6)
H41_3 H 0.1497 0.1701 0.0063
C56_3 C 0.1339(6) 0.0963(5) 0.0471(10)
C57_3 C 0.1137(6) 0.0612(5) 0.0721(10)
H43_3 H 0.0849 0.0561 0.0672
C58_3 C 0.1419(6) 0.0349(5) 0.1052(10)
C59_3 C 0.1861(7) 0.0414(6) 0.1093(11)
C60_3 C 0.2057(7) 0.0720(6) 0.0715(10)
H44_3 H 0.2348 0.0745 0.0671
C61_3 C 0.1767(7) 0.0980(6) 0.0414(10)
H45_3 H 0.1878 0.1181 0.0155
C62_3 C 0.1252(6) 0.0013(5) 0.1306(10)
C65_3 C 0.2120(5) 0.0132(5) 0.1433(10)
C73_3 C 0.2584(5) 0.0209(5) 0.1452(10)
C74_3 C 0.2760(6) 0.0495(6) 0.1829(11)
C75_3 C 0.3237(6) 0.0520(6) 0.1782(10)
C76_3 C 0.3485(6) 0.0285(5) 0.1429(10)
H51_3 H 0.3776 0.0328 0.1415
C83_3 C 0.3470(4) 0.0852(3) 0.2132(7)
C84_3 C 0.3423(4) 0.0892(3) 0.2796(7)
H55_3 H 0.3234 0.0730 0.3017
C85_3 C 0.3659(4) 0.1175(4) 0.3129(5)
H56_3 H 0.3628 0.1201 0.3574
C86_3 C 0.3942(4) 0.1417(3) 0.2799(7)
C87_3 C 0.3989(3) 0.1377(3) 0.2134(7)
H57_3 H 0.4179 0.1540 0.1913
C88_3 C 0.3753(4) 0.1095(4) 0.1801(5)
H58_3 H 0.3785 0.1068 0.1357
C89_3 C 0.4221(7) 0.1738(6) 0.3190(11)
Zn3_2 Zn 0.0000 0.22410(8) 0.7500
O2_3 O 0.0184(4) 0.2040(3) 0.5930(7)
O11_3 O 0.0254(3) 0.2601(2) 0.6886(5)
H3_3 H 0.0421 0.2797 0.7126
O12_3 O 0.1183(5) 0.2565(4) 0.6726(10)
H4_3 H 0.1276 0.2459 0.7116
H5_3 H 0.1322 0.2782 0.6545
O13_3 O 0.1031(5) 0.1995(5) 0.5650(7)
H6_3 H 0.0914 0.1805 0.5375
H7_3 H 0.1321 0.2039 0.5650
O14_3 O 0.0448(4) 0.2529(4) 0.9129(7)
C49_3 C 0.0223(6) 0.2153(5) 0.9275(9)
C50_3 C 0.0530(4) 0.1855(3) 0.9597(6)
C51_3 C 0.0360(3) 0.1488(4) 0.9772(6)
H39_3 H 0.0075 0.1435 0.9699
C54_3 C 0.1212(3) 0.1647(4) 0.9990(7)
C55_3 C 0.0955(4) 0.1935(3) 0.9707(6)
H42_3 H 0.1069 0.2180 0.9590
O27_2 O 0.0730(4) 0.1797(4) 0.6831(8)
O29_2 O 0.0453(4) 0.1892(3) 0.7854(6)
O16_2 O 0.0730(4) 0.8203(4) 0.3169(8)
O17_2 O 0.0453(4) 0.8108(3) 0.2146(6)
O18_3 O 0.2202(4) 0.9519(4) 0.2074(7)
H32_3 H 0.2048 0.9347 0.2230
H46_3 H 0.0965 0.9961 0.1257
C63_3 C 0.1517(6) 0.9729(4) 0.1657(9)
C64_3 C 0.1964(7) 0.9787(6) 0.1762(11)
C66_3 C 0.1320(4) 0.9337(3) 0.1958(7)
C67_3 C 0.1376(4) 0.9202(3) 0.2587(6)
H47_3 H 0.1547 0.9343 0.2871
C68_3 C 0.1177(4) 0.8854(4) 0.2790(5)
H48_3 H 0.1214 0.8764 0.3210
C69_3 C 0.0921(4) 0.8643(3) 0.2364(7)
C70_3 C 0.0865(4) 0.8778(3) 0.1736(6)
H49_3 H 0.0694 0.8637 0.1451
C71_3 C 0.1065(4) 0.9126(4) 0.1533(5)
H50_3 H 0.1027 0.9216 0.1112
C72_3 C 0.0672(6) 0.8293(4) 0.2600(9)
C77_3 C 0.3308(6) 0.9977(5) 0.1084(10)
C78_3 C 0.2827(6) 0.9901(5) 0.1104(10)
C79_3 C 0.2638(6) 0.9616(5) 0.0722(10)
H52_3 H 0.2346 0.9594 0.0680
C80_3 C 0.2927(7) 0.9356(6) 0.0392(11)
H53_3 H 0.2815 0.9169 0.0108
C81_3 C 0.3392(7) 0.9368(6) 0.0479(11)
C82_3 C 0.3553(6) 0.9709(6) 0.0755(10)
H54_3 H 0.3841 0.9759 0.0716
C90_3 C 0.3670(4) 0.9065(4) 0.0179(7)
C91_3 C 0.3522(3) 0.8676(4) 0.0126(7)
H59_3 H 0.3253 0.8612 0.0274
Zn15_2 Zn 0.0000 0.77590(8) 0.2500
C92_3 C 0.3776(4) 0.8384(3) 0.9850(7)
H60_3 H 0.3677 0.8124 0.9815
C93_3 C 0.4178(4) 0.8480(4) 0.9628(6)
C94_3 C 0.4327(3) 0.8869(4) 0.9681(6)
H61_3 H 0.4596 0.8933 0.9532
C95_3 C 0.4073(4) 0.9161(3) 0.9956(7)
H62_3 H 0.4172 0.9421 0.9992
C96_3 C 0.4441(6) 0.8169(5) 0.9296(11)
Zn3_3 Zn 1.0000 0.22410(8) 0.7500
O1_3 O 0.9552(4) 0.2529(4) 0.5871(7)
O6_3 O 0.7453(4) 0.0741(3) 0.2806(7)
H2_3 H 0.7706 0.0690 0.2831
C1_3 C 0.9777(6) 0.2153(5) 0.5725(9)
C2_3 C 0.9470(4) 0.1855(3) 0.5403(6)
C3_3 C 0.9640(3) 0.1488(4) 0.5228(6)
H8_3 H 0.9925 0.1435 0.5301
C4_3 C 0.9383(4) 0.1201(3) 0.4944(6)
H9_3 H 0.9496 0.0956 0.4827
C5_3 C 0.8957(4) 0.1281(4) 0.4835(6)
C6_3 C 0.8788(3) 0.1647(4) 0.5010(7)
H10_3 H 0.8503 0.1701 0.4937
C7_3 C 0.9045(4) 0.1935(3) 0.5293(6)
H11_3 H 0.8931 0.2180 0.5410
C8_3 C 0.8661(6) 0.0963(5) 0.4529(10)
C9_3 C 0.8863(6) 0.0612(5) 0.4279(10)
H12_3 H 0.9151 0.0561 0.4328
C10_3 C 0.8581(6) 0.0349(5) 0.3948(10)
C11_3 C 0.8139(7) 0.0414(6) 0.3907(11)
C12_3 C 0.7943(7) 0.0720(6) 0.4285(10)
H13_3 H 0.7652 0.0745 0.4329
C13_3 C 0.8233(7) 0.0980(6) 0.4586(10)
H14_3 H 0.8122 0.1181 0.4845
C14_3 C 0.8748(6) 0.0013(5) 0.3694(10)
C17_3 C 0.7880(5) 0.0132(5) 0.3567(10)
C25_3 C 0.7416(5) 0.0209(5) 0.3548(10)
C26_3 C 0.7240(6) 0.0495(6) 0.3171(11)
C27_3 C 0.6763(6) 0.0520(6) 0.3218(10)
C28_3 C 0.6515(6) 0.0285(5) 0.3571(10)
H20_3 H 0.6224 0.0328 0.3585
C35_3 C 0.6530(4) 0.0852(3) 0.2868(7)
C36_3 C 0.6577(4) 0.0892(3) 0.2204(7)
H24_3 H 0.6766 0.0730 0.1983
C37_3 C 0.6341(4) 0.1175(4) 0.1871(5)
H25_3 H 0.6372 0.1201 0.1426
C38_3 C 0.6058(4) 0.1417(3) 0.2201(7)
C39_3 C 0.6011(3) 0.1377(3) 0.2866(7)
H26_3 H 0.5821 0.1540 0.3087
C40_3 C 0.6247(4) 0.1095(4) 0.3199(5)
H27_3 H 0.6215 0.1068 0.3643
C41_3 C 0.5779(7) 0.1738(6) 0.1810(11)
O15_3 O 0.9816(4) 0.2040(3) 0.9070(7)
O24_3 O 0.9746(3) 0.2601(2) 0.8114(5)
H34_3 H 0.9579 0.2797 0.7874
O25_3 O 0.8817(5) 0.2565(4) 0.8274(10)
H35_3 H 0.8724 0.2459 0.7884
H36_3 H 0.8678 0.2782 0.8455
O26_3 O 0.8969(5) 0.1995(5) 0.9350(7)
H37_3 H 0.9086 0.1805 0.9625
H38_3 H 0.8679 0.2039 0.9350
O28_2 O 0.9270(4) 0.1797(4) 0.8169(8)
O30_2 O 0.9547(4) 0.1892(3) 0.7146(6)
Zn15_3 Zn 1.0000 0.77590(8) 0.2500
O3_2 O 0.9270(4) 0.8203(4) 0.1831(8)
O4_2 O 0.9547(4) 0.8108(3) 0.2854(6)
O5_3 O 0.7798(4) 0.9519(4) 0.2926(7)
H1_3 H 0.7952 0.9347 0.2770
H15_3 H 0.9035 0.9961 0.3743
C15_3 C 0.8483(6) 0.9729(4) 0.3343(9)
C16_3 C 0.8036(7) 0.9787(6) 0.3238(11)
C18_3 C 0.8680(4) 0.9337(3) 0.3042(7)
C19_3 C 0.8624(4) 0.9202(3) 0.2413(6)
H16_3 H 0.8453 0.9343 0.2129
C20_3 C 0.8823(4) 0.8854(4) 0.2210(5)
H17_3 H 0.8786 0.8764 0.1790
C21_3 C 0.9079(4) 0.8643(3) 0.2636(7)
C22_3 C 0.9135(4) 0.8778(3) 0.3264(6)
H18_3 H 0.9306 0.8637 0.3549
C23_3 C 0.8935(4) 0.9126(4) 0.3467(5)
H19_3 H 0.8973 0.9216 0.3888
C24_3 C 0.9328(6) 0.8293(4) 0.2400(9)
C29_3 C 0.6692(6) 0.9977(5) 0.3916(10)
C30_3 C 0.7173(6) 0.9901(5) 0.3896(10)
C31_3 C 0.7362(6) 0.9616(5) 0.4278(10)
H21_3 H 0.7654 0.9594 0.4320
C32_3 C 0.7073(7) 0.9356(6) 0.4608(11)
H22_3 H 0.7185 0.9169 0.4892
C33_3 C 0.6608(7) 0.9368(6) 0.4521(11)
C34_3 C 0.6447(6) 0.9709(6) 0.4245(10)
H23_3 H 0.6159 0.9759 0.4284
C42_3 C 0.6330(4) 0.9065(4) 0.4821(7)
C43_3 C 0.6478(3) 0.8676(4) 0.4874(7)
H28_3 H 0.6747 0.8612 0.4726
C44_3 C 0.6224(4) 0.8384(3) 0.5150(7)
H29_3 H 0.6323 0.8124 0.5185
C45_3 C 0.5822(4) 0.8480(4) 0.5372(6)
C46_3 C 0.5673(3) 0.8869(4) 0.5319(6)
H30_3 H 0.5404 0.8933 0.5468
C47_3 C 0.5927(4) 0.9161(3) 0.5044(7)
H31_3 H 0.5828 0.9421 0.5008
C48_3 C 0.5559(6) 0.8169(5) 0.5704(11)
C44_4 C 0.3776(4) 0.1616(3) 0.0150(7)
H29_4 H 0.3677 0.1876 0.0185
C45_4 C 0.4178(4) 0.1520(4) 0.0372(6)
C46_4 C 0.4327(3) 0.1131(4) 0.0319(6)
H30_4 H 0.4596 0.1067 0.0468
C47_4 C 0.4073(4) 0.0839(3) 0.0044(7)
H31_4 H 0.4172 0.0579 0.0008
C48_4 C 0.4441(6) 0.1831(5) 0.0704(11)
O5_4 O 0.2202(4) 0.0481(4) 0.7926(7)
H1_4 H 0.2048 0.0653 0.7770
H15_4 H 0.0965 0.0039 0.8743
C15_4 C 0.1517(6) 0.0271(4) 0.8343(9)
C16_4 C 0.1964(7) 0.0213(6) 0.8238(11)
C18_4 C 0.1320(4) 0.0663(3) 0.8042(7)
C19_4 C 0.1376(4) 0.0798(3) 0.7413(6)
H16_4 H 0.1547 0.0657 0.7129
C20_4 C 0.1177(4) 0.1146(4) 0.7210(5)
H17_4 H 0.1214 0.1236 0.6790
C21_4 C 0.0921(4) 0.1357(3) 0.7636(7)
C22_4 C 0.0865(4) 0.1222(3) 0.8264(6)
H18_4 H 0.0694 0.1363 0.8549
C23_4 C 0.1065(4) 0.0874(4) 0.8467(5)
H19_4 H 0.1027 0.0784 0.8888
C24_4 C 0.0672(6) 0.1707(4) 0.7400(9)
C29_4 C 0.3308(6) 0.0023(5) 0.8916(10)
C30_4 C 0.2827(6) 0.0099(5) 0.8896(10)
C31_4 C 0.2638(6) 0.0384(5) 0.9278(10)
H21_4 H 0.2346 0.0406 0.9320
C32_4 C 0.2927(7) 0.0644(6) 0.9608(11)
H22_4 H 0.2815 0.0831 0.9892
C33_4 C 0.3392(7) 0.0632(6) 0.9521(11)
C34_4 C 0.3553(6) 0.0291(6) 0.9245(10)
H23_4 H 0.3841 0.0241 0.9284
C42_4 C 0.3670(4) 0.0935(4) 0.9821(7)
C43_4 C 0.3522(3) 0.1324(4) 0.9874(7)
H28_4 H 0.3253 0.1388 0.9726
O1_4 O 0.0448(4) 0.7471(4) 0.0871(7)
C1_4 C 0.0223(6) 0.7847(5) 0.0725(9)
C2_4 C 0.0530(4) 0.8145(3) 0.0403(6)
C3_4 C 0.0360(3) 0.8512(4) 0.0228(6)
H8_4 H 0.0075 0.8565 0.0301
C6_4 C 0.1212(3) 0.8353(4) 0.0010(7)
C7_4 C 0.0955(4) 0.8065(3) 0.0293(6)
H11_4 H 0.1069 0.7820 0.0410
O15_4 O 0.0184(4) 0.7960(3) 0.4070(7)
O24_4 O 0.0254(3) 0.7399(2) 0.3114(5)
H34_4 H 0.0421 0.7203 0.2874
O25_4 O 0.1183(5) 0.7435(4) 0.3274(10)
H35_4 H 0.1276 0.7541 0.2884
H36_4 H 0.1322 0.7218 0.3455
O26_4 O 0.1031(5) 0.8005(5) 0.4350(7)
H37_4 H 0.0914 0.8195 0.4625
H38_4 H 0.1321 0.7961 0.4350
O6_4 O 0.2547(4) 0.9259(3) 0.7806(7)
H2_4 H 0.2294 0.9310 0.7831
C4_4 C 0.0617(4) 0.8799(3) 0.9944(6)
H9_4 H 0.0504 0.9044 0.9827
C5_4 C 0.1043(4) 0.8719(4) 0.9835(6)
H10_4 H 0.1497 0.8299 0.9937
C8_4 C 0.1339(6) 0.9037(5) 0.9529(10)
C9_4 C 0.1137(6) 0.9388(5) 0.9279(10)
H12_4 H 0.0849 0.9439 0.9328
C10_4 C 0.1419(6) 0.9651(5) 0.8948(10)
C11_4 C 0.1861(7) 0.9586(6) 0.8907(11)
C12_4 C 0.2057(7) 0.9280(6) 0.9285(10)
H13_4 H 0.2348 0.9255 0.9329
C13_4 C 0.1767(7) 0.9020(6) 0.9586(10)
H14_4 H 0.1878 0.8819 0.9845
C14_4 C 0.1252(6) 0.9987(5) 0.8694(10)
C17_4 C 0.2120(5) 0.9868(5) 0.8567(10)
C25_4 C 0.2584(5) 0.9791(5) 0.8548(10)
C26_4 C 0.2760(6) 0.9505(6) 0.8171(11)
C27_4 C 0.3237(6) 0.9480(6) 0.8218(10)
C28_4 C 0.3485(6) 0.9715(5) 0.8571(10)
H20_4 H 0.3776 0.9672 0.8585
C35_4 C 0.3470(4) 0.9148(3) 0.7868(7)
C36_4 C 0.3423(4) 0.9108(3) 0.7204(7)
H24_4 H 0.3234 0.9270 0.6983
C37_4 C 0.3659(4) 0.8825(4) 0.6871(5)
H25_4 H 0.3628 0.8799 0.6426
C38_4 C 0.3942(4) 0.8583(3) 0.7201(7)
C39_4 C 0.3989(3) 0.8623(3) 0.7866(7)
H26_4 H 0.4179 0.8460 0.8087
C40_4 C 0.3753(4) 0.8905(4) 0.8199(5)
H27_4 H 0.3785 0.8932 0.8643
C41_4 C 0.4221(7) 0.8262(6) 0.6810(11)
O18_4 O 0.7798(4) 0.0481(4) 0.7074(7)
H32_4 H 0.7952 0.0653 0.7230
H46_4 H 0.9035 0.0039 0.6257
C63_4 C 0.8483(6) 0.0271(4) 0.6657(9)
C64_4 C 0.8036(7) 0.0213(6) 0.6762(11)
C66_4 C 0.8680(4) 0.0663(3) 0.6958(7)
C67_4 C 0.8624(4) 0.0798(3) 0.7587(6)
H47_4 H 0.8453 0.0657 0.7871
C68_4 C 0.8823(4) 0.1146(4) 0.7790(5)
H48_4 H 0.8786 0.1236 0.8210
C69_4 C 0.9079(4) 0.1357(3) 0.7364(7)
C70_4 C 0.9135(4) 0.1222(3) 0.6736(6)
H49_4 H 0.9306 0.1363 0.6451
C71_4 C 0.8935(4) 0.0874(4) 0.6533(5)
H50_4 H 0.8973 0.0784 0.6112
C72_4 C 0.9328(6) 0.1707(4) 0.7600(9)
C77_4 C 0.6692(6) 0.0023(5) 0.6084(10)
C78_4 C 0.7173(6) 0.0099(5) 0.6104(10)
C79_4 C 0.7362(6) 0.0384(5) 0.5722(10)
H52_4 H 0.7654 0.0406 0.5680
C80_4 C 0.7073(7) 0.0644(6) 0.5392(11)
H53_4 H 0.7185 0.0831 0.5108
C81_4 C 0.6608(7) 0.0632(6) 0.5479(11)
C82_4 C 0.6447(6) 0.0291(6) 0.5755(10)
H54_4 H 0.6159 0.0241 0.5716
C90_4 C 0.6330(4) 0.0935(4) 0.5179(7)
C91_4 C 0.6478(3) 0.1324(4) 0.5126(7)
H59_4 H 0.6747 0.1388 0.5274
C92_4 C 0.6224(4) 0.1616(3) 0.4850(7)
H60_4 H 0.6323 0.1876 0.4815
C93_4 C 0.5822(4) 0.1520(4) 0.4628(6)
C94_4 C 0.5673(3) 0.1131(4) 0.4681(6)
H61_4 H 0.5404 0.1067 0.4532
C95_4 C 0.5927(4) 0.0839(3) 0.4956(7)
H62_4 H 0.5828 0.0579 0.4992
C96_4 C 0.5559(6) 0.1831(5) 0.4296(11)
O2_4 O 0.9816(4) 0.7960(3) 0.0930(7)
O11_4 O 0.9746(3) 0.7399(2) 0.1886(5)
H3_4 H 0.9579 0.7203 0.2126
O12_4 O 0.8817(5) 0.7435(4) 0.1726(10)
H4_4 H 0.8724 0.7541 0.2116
H5_4 H 0.8678 0.7218 0.1545
O13_4 O 0.8969(5) 0.8005(5) 0.0650(7)
H6_4 H 0.9086 0.8195 0.0375
H7_4 H 0.8679 0.7961 0.0650
O14_4 O 0.9552(4) 0.7471(4) 0.4129(7)
O19_4 O 0.7453(4) 0.9259(3) 0.7194(7)
H33_4 H 0.7706 0.9310 0.7169
C49_4 C 0.9777(6) 0.7847(5) 0.4275(9)
C50_4 C 0.9470(4) 0.8145(3) 0.4597(6)
C51_4 C 0.9640(3) 0.8512(4) 0.4772(6)
H39_4 H 0.9925 0.8565 0.4699
C52_4 C 0.9383(4) 0.8799(3) 0.5056(6)
H40_4 H 0.9496 0.9044 0.5173
C53_4 C 0.8957(4) 0.8719(4) 0.5165(6)
C54_4 C 0.8788(3) 0.8353(4) 0.4990(7)
H41_4 H 0.8503 0.8299 0.5063
C55_4 C 0.9045(4) 0.8065(3) 0.4707(6)
H42_4 H 0.8931 0.7820 0.4590
C56_4 C 0.8661(6) 0.9037(5) 0.5471(10)
C57_4 C 0.8863(6) 0.9388(5) 0.5721(10)
H43_4 H 0.9151 0.9439 0.5672
C58_4 C 0.8581(6) 0.9651(5) 0.6052(10)
C59_4 C 0.8139(7) 0.9586(6) 0.6093(11)
C60_4 C 0.7943(7) 0.9280(6) 0.5715(10)
H44_4 H 0.7652 0.9255 0.5671
C61_4 C 0.8233(7) 0.9020(6) 0.5414(10)
H45_4 H 0.8122 0.8819 0.5155
C62_4 C 0.8748(6) 0.9987(5) 0.6306(10)
C65_4 C 0.7880(5) 0.9868(5) 0.6433(10)
C73_4 C 0.7416(5) 0.9791(5) 0.6452(10)
C74_4 C 0.7240(6) 0.9505(6) 0.6829(11)
C75_4 C 0.6763(6) 0.9480(6) 0.6782(10)
C76_4 C 0.6515(6) 0.9715(5) 0.6429(10)
H51_4 H 0.6224 0.9672 0.6415
C83_4 C 0.6530(4) 0.9148(3) 0.7132(7)
C84_4 C 0.6577(4) 0.9108(3) 0.7796(7)
H55_4 H 0.6766 0.9270 0.8017
C85_4 C 0.6341(4) 0.8825(4) 0.8129(5)
H56_4 H 0.6372 0.8799 0.8574
C86_4 C 0.6058(4) 0.8583(3) 0.7799(7)
C87_4 C 0.6011(3) 0.8623(3) 0.7134(7)
H57_4 H 0.5821 0.8460 0.6913
C88_4 C 0.6247(4) 0.8905(4) 0.6801(5)
H58_4 H 0.6215 0.8932 0.6357
C89_4 C 0.5779(7) 0.8262(6) 0.8190(11)
loop_
_geom_bond_atom_site_label_1
_geom_bond_atom_site_label_2
_geom_bond_site_symmetry_1
_geom_bond_site_symmetry_2
O16 C72 1_555 1_555
O17 C72 1_555 1_555
O18 H32 1_555 1_555
O19 H33 1_555 1_555
O20 C89 1_555 1_555
O21 C89 1_555 1_555
H40 C52 1_555 1_555
C53 C52 1_555 1_555
C56 C53 1_555 1_555
C57 C56 1_555 1_555
H43 C57 1_555 1_555
C58 C57 1_555 1_555
C59 C58 1_555 1_555
C60 C59 1_555 1_555
H44 C60 1_555 1_555
C61 C56 1_555 1_555
H45 C61 1_555 1_555
C62 C58 1_555 1_555
H46 C62 1_555 1_555
C63 C62 1_555 1_555
C64 O18 1_555 1_555
C65 C59 1_555 1_555
C66 C63 1_555 1_555
C67 C66 1_555 1_555
H47 C67 1_555 1_555
C68 C67 1_555 1_555
H48 C68 1_555 1_555
C69 C68 1_555 1_555
C70 C69 1_555 1_555
H49 C70 1_555 1_555
C71 C66 1_555 1_555
H50 C71 1_555 1_555
C72 C69 1_555 1_555
C73 C65 1_555 1_555
C74 O19 1_555 1_555
C75 C74 1_555 1_555
C76 C75 1_555 1_555
H51 C76 1_555 1_555
C77 C76 1_555 1_555
C78 C73 1_555 1_555
C79 C78 1_555 1_555
H52 C79 1_555 1_555
C80 C79 1_555 1_555
H53 C80 1_555 1_555
C81 C80 1_555 1_555
C82 C77 1_555 1_555
H54 C82 1_555 1_555
C83 C75 1_555 1_555
C84 C83 1_555 1_555
H55 C84 1_555 1_555
C85 C84 1_555 1_555
H56 C85 1_555 1_555
C86 C85 1_555 1_555
C87 C86 1_555 1_555
H57 C87 1_555 1_555
C88 C83 1_555 1_555
H58 C88 1_555 1_555
C89 C86 1_555 1_555
C90 C81 1_555 1_555
C91 C90 1_555 1_555
H59 C91 1_555 1_555
Zn9 O20 1_555 1_555
Zn11 O16 1_555 1_555
Zn15 O17 1_555 1_555
O21 Zn9 1_555 1_555
C60 C61 1_555 1_555
C63 C64 1_555 1_555
C64 C65 1_555 1_555
C70 C71 1_555 1_555
C73 C74 1_555 1_555
C77 C78 1_555 1_555
C81 C82 1_555 1_555
C87 C88 1_555 1_555
Zn1 O1 1_555 1_555
Zn2 O2 1_555 1_555
Zn3 O11 1_555 1_555
O1 C1 1_555 1_555
O2 C1 1_555 1_555
O3 C24 1_555 1_555
O4 C24 1_555 1_555
O5 H1 1_555 1_555
O6 H2 1_555 1_555
O7 C41 1_555 1_555
O8 C41 1_555 1_555
O9 C48 1_555 1_555
O10 C48 1_555 1_555
O11 Zn1 1_555 1_555
H3 O11 1_555 1_555
O12 Zn2 1_555 1_555
H4 O12 1_555 1_555
H5 O12 1_555 1_555
O13 Zn2 1_555 1_555
H6 O13 1_555 1_555
H7 O13 1_555 1_555
C1 C2 1_555 1_555
C2 C3 1_555 1_555
C3 H8 1_555 1_555
C4 C3 1_555 1_555
H9 C4 1_555 1_555
C5 C4 1_555 1_555
C6 C5 1_555 1_555
H10 C6 1_555 1_555
C7 C2 1_555 1_555
H11 C7 1_555 1_555
C8 C5 1_555 1_555
C9 C8 1_555 1_555
H12 C9 1_555 1_555
C10 C9 1_555 1_555
C11 C10 1_555 1_555
C12 C11 1_555 1_555
H13 C12 1_555 1_555
C13 C8 1_555 1_555
H14 C13 1_555 1_555
C14 C10 1_555 1_555
H15 C14 1_555 1_555
C15 C14 1_555 1_555
C16 O5 1_555 1_555
C17 C11 1_555 1_555
C18 C15 1_555 1_555
C19 C18 1_555 1_555
H16 C19 1_555 1_555
C20 C19 1_555 1_555
H17 C20 1_555 1_555
C21 C20 1_555 1_555
C22 C21 1_555 1_555
H18 C22 1_555 1_555
C23 C18 1_555 1_555
H19 C23 1_555 1_555
C24 C21 1_555 1_555
C25 C17 1_555 1_555
C26 O6 1_555 1_555
C27 C26 1_555 1_555
C28 C27 1_555 1_555
H20 C28 1_555 1_555
C29 C28 1_555 1_555
C30 C25 1_555 1_555
C31 C30 1_555 1_555
H21 C31 1_555 1_555
C32 C31 1_555 1_555
H22 C32 1_555 1_555
C33 C32 1_555 1_555
C34 C29 1_555 1_555
H23 C34 1_555 1_555
C35 C27 1_555 1_555
C36 C35 1_555 1_555
H24 C36 1_555 1_555
C37 C36 1_555 1_555
H25 C37 1_555 1_555
C38 C37 1_555 1_555
C39 C38 1_555 1_555
H26 C39 1_555 1_555
C40 C35 1_555 1_555
H27 C40 1_555 1_555
C41 C38 1_555 1_555
C42 C33 1_555 1_555
C43 C42 1_555 1_555
H28 C43 1_555 1_555
C44 C43 1_555 1_555
H29 C44 1_555 1_555
C45 C44 1_555 1_555
C46 C45 1_555 1_555
H30 C46 1_555 1_555
C47 C42 1_555 1_555
H31 C47 1_555 1_555
C48 C45 1_555 1_555
Zn4 O14 1_555 1_555
Zn5 O15 1_555 1_555
O14 C49 1_555 1_555
O15 C49 1_555 1_555
O22 C96 1_555 1_555
O23 C96 1_555 1_555
O24 Zn3 1_555 1_555
H34 O24 1_555 1_555
O25 Zn5 1_555 1_555
H35 O25 1_555 1_555
H36 O25 1_555 1_555
O26 Zn5 1_555 1_555
H37 O26 1_555 1_555
H38 O26 1_555 1_555
C49 C50 1_555 1_555
C50 C51 1_555 1_555
C51 H39 1_555 1_555
C55 C50 1_555 1_555
H42 C55 1_555 1_555
H60 C92 1_555 1_555
C93 C92 1_555 1_555
C94 C93 1_555 1_555
H61 C94 1_555 1_555
H62 C95 1_555 1_555
C96 C93 1_555 1_555
Zn7 O7 1_555 1_555
Zn10 O3 1_555 1_555
Zn12 O9 1_555 1_555
Zn13 O22 1_555 1_555
Zn15 O4 1_555 1_555
O27 Zn2 1_555 1_555
O28 Zn5 1_555 1_555
O29 Zn3 1_555 1_555
O30 Zn3 1_555 1_555
O31 Zn1 1_555 1_555
O32 Zn4 1_555 1_555
O33 Zn1 1_555 1_555
O34 Zn4 1_555 1_555
O35 Zn2 1_555 1_555
O36 Zn5 1_555 1_555
O37 Zn1 1_555 1_555
O38 Zn4 1_555 1_555
Zn2 O11 1_555 1_555
O8 Zn7 1_555 1_555
C6 C7 1_555 1_555
C12 C13 1_555 1_555
C15 C16 1_555 1_555
C16 C17 1_555 1_555
C22 C23 1_555 1_555
C25 C26 1_555 1_555
C29 C30 1_555 1_555
C33 C34 1_555 1_555
C39 C40 1_555 1_555
C46 C47 1_555 1_555
Zn4 O24 1_555 1_555
Zn5 O24 1_555 1_555
C54 C55 1_555 1_555
C94 C95 1_555 1_555
Zn1_2 O1_2 1_555 1_555
Zn10 O2_2 1_555 1_555
Zn15 O11_2 1_555 1_555
O1_2 C1_2 1_555 1_555
O2_2 C1_2 1_555 1_555
O9_2 C48_2 1_555 1_555
O10_2 C48_2 1_555 1_555
O11_2 Zn1_2 1_555 1_555
H3_2 O11_2 1_555 1_555
O12_2 Zn10 1_555 1_555
H4_2 O12_2 1_555 1_555
H5_2 O12_2 1_555 1_555
O13_2 Zn10 1_555 1_555
H6_2 O13_2 1_555 1_555
H7_2 O13_2 1_555 1_555
C1_2 C2_2 1_555 1_555
C2_2 C3_2 1_555 1_555
C3_2 H8_2 1_555 1_555
C7_2 C2_2 1_555 1_555
H11_2 C7_2 1_555 1_555
H29_2 C44_2 1_555 1_555
C45_2 C44_2 1_555 1_555
C46_2 C45_2 1_555 1_555
H30_2 C46_2 1_555 1_555
H31_2 C47_2 1_555 1_555
C48_2 C45_2 1_555 1_555
Zn4_2 O14_2 1_555 1_555
Zn11 O15_2 1_555 1_555
O14_2 C49_2 1_555 1_555
O15_2 C49_2 1_555 1_555
O28 C72_2 1_555 1_555
O30 C72_2 1_555 1_555
O18_2 H32_2 1_555 1_555
O19_2 H33_2 1_555 1_555
O20_2 C89_2 1_555 1_555
O21_2 C89_2 1_555 1_555
O22_2 C96_2 1_555 1_555
O23_2 C96_2 1_555 1_555
O24_2 Zn15 1_555 1_555
H34_2 O24_2 1_555 1_555
O25_2 Zn11 1_555 1_555
H35_2 O25_2 1_555 1_555
H36_2 O25_2 1_555 1_555
O26_2 Zn11 1_555 1_555
H37_2 O26_2 1_555 1_555
H38_2 O26_2 1_555 1_555
C49_2 C50_2 1_555 1_555
C50_2 C51_2 1_555 1_555
C51_2 H39_2 1_555 1_555
C52_2 C51_2 1_555 1_555
H40_2 C52_2 1_555 1_555
C53_2 C52_2 1_555 1_555
C54_2 C53_2 1_555 1_555
H41_2 C54_2 1_555 1_555
C55_2 C50_2 1_555 1_555
H42_2 C55_2 1_555 1_555
C56_2 C53_2 1_555 1_555
C57_2 C56_2 1_555 1_555
H43_2 C57_2 1_555 1_555
C58_2 C57_2 1_555 1_555
C59_2 C58_2 1_555 1_555
C60_2 C59_2 1_555 1_555
H44_2 C60_2 1_555 1_555
C61_2 C56_2 1_555 1_555
H45_2 C61_2 1_555 1_555
C62_2 C58_2 1_555 1_555
H46_2 C62_2 1_555 1_555
C63_2 C62_2 1_555 1_555
C64_2 O18_2 1_555 1_555
C65_2 C59_2 1_555 1_555
C66_2 C63_2 1_555 1_555
C67_2 C66_2 1_555 1_555
H47_2 C67_2 1_555 1_555
C68_2 C67_2 1_555 1_555
H48_2 C68_2 1_555 1_555
C69_2 C68_2 1_555 1_555
C70_2 C69_2 1_555 1_555
H49_2 C70_2 1_555 1_555
C71_2 C66_2 1_555 1_555
H50_2 C71_2 1_555 1_555
C72_2 C69_2 1_555 1_555
C73_2 C65_2 1_555 1_555
C74_2 O19_2 1_555 1_555
C75_2 C74_2 1_555 1_555
C76_2 C75_2 1_555 1_555
H51_2 C76_2 1_555 1_555
C77_2 C76_2 1_555 1_555
C78_2 C73_2 1_555 1_555
C79_2 C78_2 1_555 1_555
H52_2 C79_2 1_555 1_555
C80_2 C79_2 1_555 1_555
H53_2 C80_2 1_555 1_555
C81_2 C80_2 1_555 1_555
C82_2 C77_2 1_555 1_555
H54_2 C82_2 1_555 1_555
C83_2 C75_2 1_555 1_555
C84_2 C83_2 1_555 1_555
H55_2 C84_2 1_555 1_555
C85_2 C84_2 1_555 1_555
H56_2 C85_2 1_555 1_555
C86_2 C85_2 1_555 1_555
C87_2 C86_2 1_555 1_555
H57_2 C87_2 1_555 1_555
C88_2 C83_2 1_555 1_555
H58_2 C88_2 1_555 1_555
C89_2 C86_2 1_555 1_555
C90_2 C81_2 1_555 1_555
C91_2 C90_2 1_555 1_555
H59_2 C91_2 1_555 1_555
C92_2 C91_2 1_555 1_555
H60_2 C92_2 1_555 1_555
C93_2 C92_2 1_555 1_555
C94_2 C93_2 1_555 1_555
H61_2 C94_2 1_555 1_555
C95_2 C90_2 1_555 1_555
H62_2 C95_2 1_555 1_555
C96_2 C93_2 1_555 1_555
Zn8 O20_2 1_555 1_555
Zn12_2 O9_2 1_555 1_555
Zn13_2 O22_2 1_555 1_555
O31_2 Zn1_2 1_555 1_555
O32_2 Zn4_2 1_555 1_555
O33_2 Zn1_2 1_555 1_555
O34_2 Zn4_2 1_555 1_555
O35_2 Zn10 1_555 1_555
O36_2 Zn11 1_555 1_555
O37_2 Zn1_2 1_555 1_555
O38_2 Zn4_2 1_555 1_555
Zn10 O11_2 1_555 1_555
C6_2 C7_2 1_555 1_555
C46_2 C47_2 1_555 1_555
Zn4_2 O24_2 1_555 1_555
Zn11 O24_2 1_555 1_555
O21_2 Zn8 1_555 1_555
C54_2 C55_2 1_555 1_555
C60_2 C61_2 1_555 1_555
C63_2 C64_2 1_555 1_555
C64_2 C65_2 1_555 1_555
C70_2 C71_2 1_555 1_555
C73_2 C74_2 1_555 1_555
C77_2 C78_2 1_555 1_555
C81_2 C82_2 1_555 1_555
C87_2 C88_2 1_555 1_555
C94_2 C95_2 1_555 1_555
O27 C24_2 1_555 1_555
O29 C24_2 1_555 1_555
O5_2 H1_2 1_555 1_555
O6_2 H2_2 1_555 1_555
O7_2 C41_2 1_555 1_555
O8_2 C41_2 1_555 1_555
H9_2 C4_2 1_555 1_555
C5_2 C4_2 1_555 1_555
C8_2 C5_2 1_555 1_555
C9_2 C8_2 1_555 1_555
H12_2 C9_2 1_555 1_555
C10_2 C9_2 1_555 1_555
C11_2 C10_2 1_555 1_555
C12_2 C11_2 1_555 1_555
H13_2 C12_2 1_555 1_555
C13_2 C8_2 1_555 1_555
H14_2 C13_2 1_555 1_555
C14_2 C10_2 1_555 1_555
H15_2 C14_2 1_555 1_555
C15_2 C14_2 1_555 1_555
C16_2 O5_2 1_555 1_555
C17_2 C11_2 1_555 1_555
C18_2 C15_2 1_555 1_555
C19_2 C18_2 1_555 1_555
H16_2 C19_2 1_555 1_555
C20_2 C19_2 1_555 1_555
H17_2 C20_2 1_555 1_555
C21_2 C20_2 1_555 1_555
C22_2 C21_2 1_555 1_555
H18_2 C22_2 1_555 1_555
C23_2 C18_2 1_555 1_555
H19_2 C23_2 1_555 1_555
C24_2 C21_2 1_555 1_555
C25_2 C17_2 1_555 1_555
C26_2 O6_2 1_555 1_555
C27_2 C26_2 1_555 1_555
C28_2 C27_2 1_555 1_555
H20_2 C28_2 1_555 1_555
C29_2 C28_2 1_555 1_555
C30_2 C25_2 1_555 1_555
C31_2 C30_2 1_555 1_555
H21_2 C31_2 1_555 1_555
C32_2 C31_2 1_555 1_555
H22_2 C32_2 1_555 1_555
C33_2 C32_2 1_555 1_555
C34_2 C29_2 1_555 1_555
H23_2 C34_2 1_555 1_555
C35_2 C27_2 1_555 1_555
C36_2 C35_2 1_555 1_555
H24_2 C36_2 1_555 1_555
C37_2 C36_2 1_555 1_555
H25_2 C37_2 1_555 1_555
C38_2 C37_2 1_555 1_555
C39_2 C38_2 1_555 1_555
H26_2 C39_2 1_555 1_555
C40_2 C35_2 1_555 1_555
H27_2 C40_2 1_555 1_555
C41_2 C38_2 1_555 1_555
C42_2 C33_2 1_555 1_555
C43_2 C42_2 1_555 1_555
H28_2 C43_2 1_555 1_555
Zn6 O7_2 1_555 1_555
O8_2 Zn6 1_555 1_555
C12_2 C13_2 1_555 1_555
C15_2 C16_2 1_555 1_555
C16_2 C17_2 1_555 1_555
C22_2 C23_2 1_555 1_555
C25_2 C26_2 1_555 1_555
C29_2 C30_2 1_555 1_555
C33_2 C34_2 1_555 1_555
C39_2 C40_2 1_555 1_555
O19_3 H33_3 1_555 1_555
O32_2 C89_3 1_555 1_555
O34_2 C89_3 1_555 1_555
H40_3 C52_3 1_555 1_555
C53_3 C52_3 1_555 1_555
C56_3 C53_3 1_555 1_555
C57_3 C56_3 1_555 1_555
H43_3 C57_3 1_555 1_555
C58_3 C57_3 1_555 1_555
C59_3 C58_3 1_555 1_555
C60_3 C59_3 1_555 1_555
H44_3 C60_3 1_555 1_555
C61_3 C56_3 1_555 1_555
H45_3 C61_3 1_555 1_555
C62_3 C58_3 1_555 1_555
C65_3 C59_3 1_555 1_555
C73_3 C65_3 1_555 1_555
C74_3 O19_3 1_555 1_555
C75_3 C74_3 1_555 1_555
C76_3 C75_3 1_555 1_555
H51_3 C76_3 1_555 1_555
C83_3 C75_3 1_555 1_555
C84_3 C83_3 1_555 1_555
H55_3 C84_3 1_555 1_555
C85_3 C84_3 1_555 1_555
H56_3 C85_3 1_555 1_555
C86_3 C85_3 1_555 1_555
C87_3 C86_3 1_555 1_555
H57_3 C87_3 1_555 1_555
C88_3 C83_3 1_555 1_555
H58_3 C88_3 1_555 1_555
C89_3 C86_3 1_555 1_555
C60_3 C61_3 1_555 1_555
C73_3 C74_3 1_555 1_555
C87_3 C88_3 1_555 1_555
Zn12 O2_3 1_555 1_555
Zn3_2 O11_3 1_555 1_555
H3_3 O11_3 1_555 1_555
O12_3 Zn12 1_555 1_555
H4_3 O12_3 1_555 1_555
H5_3 O12_3 1_555 1_555
O13_3 Zn12 1_555 1_555
H6_3 O13_3 1_555 1_555
H7_3 O13_3 1_555 1_555
Zn8 O14_3 1_555 1_555
O14_3 C49_3 1_555 1_555
C49_3 C50_3 1_555 1_555
C50_3 C51_3 1_555 1_555
C51_3 H39_3 1_555 1_555
C55_3 C50_3 1_555 1_555
H42_3 C55_3 1_555 1_555
O27_2 Zn12 1_555 1_555
O29_2 Zn3_2 1_555 1_555
Zn12 O11_3 1_555 1_555
C54_3 C55_3 1_555 1_555
O16_2 C72_3 1_555 1_555
O17_2 C72_3 1_555 1_555
O18_3 H32_3 1_555 1_555
C64_3 O18_3 1_555 1_555
C66_3 C63_3 1_555 1_555
C67_3 C66_3 1_555 1_555
H47_3 C67_3 1_555 1_555
C68_3 C67_3 1_555 1_555
H48_3 C68_3 1_555 1_555
C69_3 C68_3 1_555 1_555
C70_3 C69_3 1_555 1_555
H49_3 C70_3 1_555 1_555
C71_3 C66_3 1_555 1_555
H50_3 C71_3 1_555 1_555
C72_3 C69_3 1_555 1_555
C79_3 C78_3 1_555 1_555
H52_3 C79_3 1_555 1_555
C80_3 C79_3 1_555 1_555
H53_3 C80_3 1_555 1_555
C81_3 C80_3 1_555 1_555
C82_3 C77_3 1_555 1_555
H54_3 C82_3 1_555 1_555
C90_3 C81_3 1_555 1_555
C91_3 C90_3 1_555 1_555
H59_3 C91_3 1_555 1_555
Zn13_2 O16_2 1_555 1_555
Zn15_2 O17_2 1_555 1_555
C63_3 C64_3 1_555 1_555
C70_3 C71_3 1_555 1_555
C77_3 C78_3 1_555 1_555
C81_3 C82_3 1_555 1_555
O36 C96_3 1_555 1_555
O38 C96_3 1_555 1_555
H60_3 C92_3 1_555 1_555
C93_3 C92_3 1_555 1_555
C94_3 C93_3 1_555 1_555
H61_3 C94_3 1_555 1_555
H62_3 C95_3 1_555 1_555
C96_3 C93_3 1_555 1_555
C94_3 C95_3 1_555 1_555
Zn6 O1_3 1_555 1_555
O1_3 C1_3 1_555 1_555
O6_3 H2_3 1_555 1_555
O31_2 C41_3 1_555 1_555
O33_2 C41_3 1_555 1_555
C1_3 C2_3 1_555 1_555
C2_3 C3_3 1_555 1_555
C3_3 H8_3 1_555 1_555
C4_3 C3_3 1_555 1_555
H9_3 C4_3 1_555 1_555
C5_3 C4_3 1_555 1_555
C6_3 C5_3 1_555 1_555
H10_3 C6_3 1_555 1_555
C7_3 C2_3 1_555 1_555
H11_3 C7_3 1_555 1_555
C8_3 C5_3 1_555 1_555
C9_3 C8_3 1_555 1_555
H12_3 C9_3 1_555 1_555
C10_3 C9_3 1_555 1_555
C11_3 C10_3 1_555 1_555
C12_3 C11_3 1_555 1_555
H13_3 C12_3 1_555 1_555
C13_3 C8_3 1_555 1_555
H14_3 C13_3 1_555 1_555
C14_3 C10_3 1_555 1_555
C17_3 C11_3 1_555 1_555
C25_3 C17_3 1_555 1_555
C26_3 O6_3 1_555 1_555
C27_3 C26_3 1_555 1_555
C28_3 C27_3 1_555 1_555
H20_3 C28_3 1_555 1_555
C35_3 C27_3 1_555 1_555
C36_3 C35_3 1_555 1_555
H24_3 C36_3 1_555 1_555
C37_3 C36_3 1_555 1_555
H25_3 C37_3 1_555 1_555
C38_3 C37_3 1_555 1_555
C39_3 C38_3 1_555 1_555
H26_3 C39_3 1_555 1_555
C40_3 C35_3 1_555 1_555
H27_3 C40_3 1_555 1_555
C41_3 C38_3 1_555 1_555
Zn13 O15_3 1_555 1_555
O24_3 Zn3_3 1_555 1_555
H34_3 O24_3 1_555 1_555
O25_3 Zn13 1_555 1_555
H35_3 O25_3 1_555 1_555
H36_3 O25_3 1_555 1_555
O26_3 Zn13 1_555 1_555
H37_3 O26_3 1_555 1_555
H38_3 O26_3 1_555 1_555
O28_2 Zn13 1_555 1_555
O30_2 Zn3_3 1_555 1_555
C6_3 C7_3 1_555 1_555
C12_3 C13_3 1_555 1_555
C25_3 C26_3 1_555 1_555
C39_3 C40_3 1_555 1_555
Zn13 O24_3 1_555 1_555
O3_2 C24_3 1_555 1_555
O4_2 C24_3 1_555 1_555
O5_3 H1_3 1_555 1_555
O35 C48_3 1_555 1_555
O37 C48_3 1_555 1_555
C16_3 O5_3 1_555 1_555
C18_3 C15_3 1_555 1_555
C19_3 C18_3 1_555 1_555
H16_3 C19_3 1_555 1_555
C20_3 C19_3 1_555 1_555
H17_3 C20_3 1_555 1_555
C21_3 C20_3 1_555 1_555
C22_3 C21_3 1_555 1_555
H18_3 C22_3 1_555 1_555
C23_3 C18_3 1_555 1_555
H19_3 C23_3 1_555 1_555
C24_3 C21_3 1_555 1_555
C31_3 C30_3 1_555 1_555
H21_3 C31_3 1_555 1_555
C32_3 C31_3 1_555 1_555
H22_3 C32_3 1_555 1_555
C33_3 C32_3 1_555 1_555
C34_3 C29_3 1_555 1_555
H23_3 C34_3 1_555 1_555
C42_3 C33_3 1_555 1_555
C43_3 C42_3 1_555 1_555
H28_3 C43_3 1_555 1_555
C44_3 C43_3 1_555 1_555
H29_3 C44_3 1_555 1_555
C45_3 C44_3 1_555 1_555
C46_3 C45_3 1_555 1_555
H30_3 C46_3 1_555 1_555
C47_3 C42_3 1_555 1_555
H31_3 C47_3 1_555 1_555
C48_3 C45_3 1_555 1_555
Zn12_2 O3_2 1_555 1_555
Zn15_3 O4_2 1_555 1_555
C15_3 C16_3 1_555 1_555
C22_3 C23_3 1_555 1_555
C29_3 C30_3 1_555 1_555
C33_3 C34_3 1_555 1_555
C46_3 C47_3 1_555 1_555
O35_2 C48_4 1_555 1_555
O37_2 C48_4 1_555 1_555
H29_4 C44_4 1_555 1_555
C45_4 C44_4 1_555 1_555
C46_4 C45_4 1_555 1_555
H30_4 C46_4 1_555 1_555
H31_4 C47_4 1_555 1_555
C48_4 C45_4 1_555 1_555
C46_4 C47_4 1_555 1_555
O27_2 C24_4 1_555 1_555
O29_2 C24_4 1_555 1_555
O5_4 H1_4 1_555 1_555
C16_4 O5_4 1_555 1_555
C18_4 C15_4 1_555 1_555
C19_4 C18_4 1_555 1_555
H16_4 C19_4 1_555 1_555
C20_4 C19_4 1_555 1_555
H17_4 C20_4 1_555 1_555
C21_4 C20_4 1_555 1_555
C22_4 C21_4 1_555 1_555
H18_4 C22_4 1_555 1_555
C23_4 C18_4 1_555 1_555
H19_4 C23_4 1_555 1_555
C24_4 C21_4 1_555 1_555
C31_4 C30_4 1_555 1_555
H21_4 C31_4 1_555 1_555
C32_4 C31_4 1_555 1_555
H22_4 C32_4 1_555 1_555
C33_4 C32_4 1_555 1_555
C34_4 C29_4 1_555 1_555
H23_4 C34_4 1_555 1_555
C42_4 C33_4 1_555 1_555
C43_4 C42_4 1_555 1_555
H28_4 C43_4 1_555 1_555
C15_4 C16_4 1_555 1_555
C22_4 C23_4 1_555 1_555
C29_4 C30_4 1_555 1_555
C33_4 C34_4 1_555 1_555
Zn7 O1_4 1_555 1_555
O1_4 C1_4 1_555 1_555
C1_4 C2_4 1_555 1_555
C2_4 C3_4 1_555 1_555
C3_4 H8_4 1_555 1_555
C7_4 C2_4 1_555 1_555
H11_4 C7_4 1_555 1_555
Zn13_2 O15_4 1_555 1_555
O24_4 Zn15_2 1_555 1_555
H34_4 O24_4 1_555 1_555
O25_4 Zn13_2 1_555 1_555
H35_4 O25_4 1_555 1_555
H36_4 O25_4 1_555 1_555
O26_4 Zn13_2 1_555 1_555
H37_4 O26_4 1_555 1_555
H38_4 O26_4 1_555 1_555
C6_4 C7_4 1_555 1_555
Zn13_2 O24_4 1_555 1_555
O6_4 H2_4 1_555 1_555
O31 C41_4 1_555 1_555
O33 C41_4 1_555 1_555
H9_4 C4_4 1_555 1_555
C5_4 C4_4 1_555 1_555
C8_4 C5_4 1_555 1_555
C9_4 C8_4 1_555 1_555
H12_4 C9_4 1_555 1_555
C10_4 C9_4 1_555 1_555
C11_4 C10_4 1_555 1_555
C12_4 C11_4 1_555 1_555
H13_4 C12_4 1_555 1_555
C13_4 C8_4 1_555 1_555
H14_4 C13_4 1_555 1_555
C14_4 C10_4 1_555 1_555
C17_4 C11_4 1_555 1_555
C25_4 C17_4 1_555 1_555
C26_4 O6_4 1_555 1_555
C27_4 C26_4 1_555 1_555
C28_4 C27_4 1_555 1_555
H20_4 C28_4 1_555 1_555
C35_4 C27_4 1_555 1_555
C36_4 C35_4 1_555 1_555
H24_4 C36_4 1_555 1_555
C37_4 C36_4 1_555 1_555
H25_4 C37_4 1_555 1_555
C38_4 C37_4 1_555 1_555
C39_4 C38_4 1_555 1_555
H26_4 C39_4 1_555 1_555
C40_4 C35_4 1_555 1_555
H27_4 C40_4 1_555 1_555
C41_4 C38_4 1_555 1_555
C12_4 C13_4 1_555 1_555
C25_4 C26_4 1_555 1_555
C39_4 C40_4 1_555 1_555
O28_2 C72_4 1_555 1_555
O30_2 C72_4 1_555 1_555
O18_4 H32_4 1_555 1_555
O36_2 C96_4 1_555 1_555
O38_2 C96_4 1_555 1_555
C64_4 O18_4 1_555 1_555
C66_4 C63_4 1_555 1_555
C67_4 C66_4 1_555 1_555
H47_4 C67_4 1_555 1_555
C68_4 C67_4 1_555 1_555
H48_4 C68_4 1_555 1_555
C69_4 C68_4 1_555 1_555
C70_4 C69_4 1_555 1_555
H49_4 C70_4 1_555 1_555
C71_4 C66_4 1_555 1_555
H50_4 C71_4 1_555 1_555
C72_4 C69_4 1_555 1_555
C79_4 C78_4 1_555 1_555
H52_4 C79_4 1_555 1_555
C80_4 C79_4 1_555 1_555
H53_4 C80_4 1_555 1_555
C81_4 C80_4 1_555 1_555
C82_4 C77_4 1_555 1_555
H54_4 C82_4 1_555 1_555
C90_4 C81_4 1_555 1_555
C91_4 C90_4 1_555 1_555
H59_4 C91_4 1_555 1_555
C92_4 C91_4 1_555 1_555
H60_4 C92_4 1_555 1_555
C93_4 C92_4 1_555 1_555
C94_4 C93_4 1_555 1_555
H61_4 C94_4 1_555 1_555
C95_4 C90_4 1_555 1_555
H62_4 C95_4 1_555 1_555
C96_4 C93_4 1_555 1_555
C63_4 C64_4 1_555 1_555
C70_4 C71_4 1_555 1_555
C77_4 C78_4 1_555 1_555
C81_4 C82_4 1_555 1_555
C94_4 C95_4 1_555 1_555
Zn12_2 O2_4 1_555 1_555
Zn15_3 O11_4 1_555 1_555
H3_4 O11_4 1_555 1_555
O12_4 Zn12_2 1_555 1_555
H4_4 O12_4 1_555 1_555
H5_4 O12_4 1_555 1_555
O13_4 Zn12_2 1_555 1_555
H6_4 O13_4 1_555 1_555
H7_4 O13_4 1_555 1_555
Zn9 O14_4 1_555 1_555
O14_4 C49_4 1_555 1_555
O19_4 H33_4 1_555 1_555
O32 C89_4 1_555 1_555
O34 C89_4 1_555 1_555
C49_4 C50_4 1_555 1_555
C50_4 C51_4 1_555 1_555
C51_4 H39_4 1_555 1_555
C52_4 C51_4 1_555 1_555
H40_4 C52_4 1_555 1_555
C53_4 C52_4 1_555 1_555
C54_4 C53_4 1_555 1_555
H41_4 C54_4 1_555 1_555
C55_4 C50_4 1_555 1_555
H42_4 C55_4 1_555 1_555
C56_4 C53_4 1_555 1_555
C57_4 C56_4 1_555 1_555
H43_4 C57_4 1_555 1_555
C58_4 C57_4 1_555 1_555
C59_4 C58_4 1_555 1_555
C60_4 C59_4 1_555 1_555
H44_4 C60_4 1_555 1_555
C61_4 C56_4 1_555 1_555
H45_4 C61_4 1_555 1_555
C62_4 C58_4 1_555 1_555
C65_4 C59_4 1_555 1_555
C73_4 C65_4 1_555 1_555
C74_4 O19_4 1_555 1_555
C75_4 C74_4 1_555 1_555
C76_4 C75_4 1_555 1_555
H51_4 C76_4 1_555 1_555
C83_4 C75_4 1_555 1_555
C84_4 C83_4 1_555 1_555
H55_4 C84_4 1_555 1_555
C85_4 C84_4 1_555 1_555
H56_4 C85_4 1_555 1_555
C86_4 C85_4 1_555 1_555
C87_4 C86_4 1_555 1_555
H57_4 C87_4 1_555 1_555
C88_4 C83_4 1_555 1_555
H58_4 C88_4 1_555 1_555
C89_4 C86_4 1_555 1_555
Zn12_2 O11_4 1_555 1_555
C54_4 C55_4 1_555 1_555
C60_4 C61_4 1_555 1_555
C73_4 C74_4 1_555 1_555
C87_4 C88_4 1_555 1_555

#END
