
###############################################################################
#
# This file contains modified crystal structure data generated from the
# MOF subset of the Cambridge Structural Database (CSD) v543 
# hosted by the Cambridge Crystallographic Data Centre (CCDC).
#
# This work is licensed under the Creative Commons
# Attribution-NonCommercial-ShareAlike 4.0 International License.
# To view a copy of this license, visit
# http://creativecommons.org/licenses/by-nc-sa/4.0/
# or send a letter to
# Creative Commons, PO Box 1866, Mountain View, CA 94042, USA.
#
# CIF created using the CSD Python API on 29 September 2022
# The structure has been converted into the P1 space group
# The structure has a 3D framework
# The original CSD entry MOXDOT01 is in the monoclinic crystal system
# The framework has been calculated to contain at least 10.0% void space
# The void calculation uses a probe of radius 1.32A, grid spacing 0.4
# The framework is charged, counterions have been retained in the structure
#
###############################################################################

data_MOXDOT01
_chemical_formula_moiety         '(C224 H128 Co12 O64 8-)n'
_symmetry_cell_setting           triclinic
_symmetry_space_group_name_H-M   'P 1'
_symmetry_Int_Tables_number      1
_space_group_name_Hall           'P 1'
loop_
_symmetry_equiv_pos_site_id
_symmetry_equiv_pos_as_xyz
1 x,y,z
_cell_length_a                   22.550(10)
_cell_length_b                   14.187(7)
_cell_length_c                   25.681(12)
_cell_angle_alpha                90
_cell_angle_beta                 92.096(9)
_cell_angle_gamma                90
_cell_volume                     8210.29
loop_
_atom_site_label
_atom_site_type_symbol
_atom_site_fract_x
_atom_site_fract_y
_atom_site_fract_z
C15 C 0.154010(13) 0.17565(2) 0.516550(11)
C16 C 0.154860(5) 0.124270(9) 0.463850(4)
C17 C 0.202490(5) 0.066610(9) 0.452410(4)
H9 H 0.2343 0.0605 0.4762
C18 C 0.202500(6) 0.018050(10) 0.405400(4)
C19 C 0.154890(6) 0.027150(10) 0.369830(4)
C20 C 0.107260(6) 0.084820(10) 0.381270(4)
H11 H 0.0754 0.0909 0.3575
C21 C 0.107250(5) 0.133380(9) 0.428280(4)
H12 H 0.0754 0.1720 0.4359
O7 O 0.197590(11) 0.164390(19) 0.546200(10)
O8 O 0.109640(9) 0.220370(16) 0.525560(8)
Co4 Co 0.091650(2) 0.283395(3) 0.592776(1)
Co8 Co 0.253000(2) 0.250040(3) 0.595250(1)
H10 H 0.2344 0.9795 0.3978
C22 C 0.156200(8) 0.971440(12) 0.321460(5)
C23 C 0.210000(9) 0.961530(14) 0.293760(5)
H13 H 0.2443 0.9888 0.3082
C24 C 0.214080(11) 0.915600(16) 0.248390(6)
H14 H 0.2504 0.9092 0.2328
C25 C 0.160260(12) 0.875970(16) 0.224040(6)
C26 C 0.106560(11) 0.891550(15) 0.247870(6)
H15 H 0.0719 0.8690 0.2316
C27 C 0.102580(9) 0.941020(13) 0.296500(5)
H16 H 0.0661 0.9526 0.3110
C28 C 0.160650(14) 0.82206(2) 0.173100(13)
C30 C 0.321730(4) 0.024780(7) 0.111380(4)
C31 C 0.355630(5) 0.104100(7) 0.123620(5)
H17 H 0.3964 0.0984 0.1297
C32 C 0.328610(5) 0.191880(7) 0.126760(5)
H18 H 0.3513 0.2450 0.1349
C33 C 0.267700(5) 0.200340(7) 0.117670(5)
C34 C 0.233800(5) 0.121010(7) 0.105440(6)
H19 H 0.1930 0.1267 0.0994
C35 C 0.260810(4) 0.033230(7) 0.102290(5)
C36 C 0.240070(6) 0.298640(7) 0.116020(7)
C37 C 0.272360(7) 0.375960(7) 0.101850(7)
H21 H 0.3124 0.3684 0.0953
C38 C 0.246660(8) 0.467040(7) 0.096810(8)
H22 H 0.2688 0.5185 0.0863
C39 C 0.189120(8) 0.476210(8) 0.107740(10)
C40 C 0.158310(7) 0.396990(9) 0.122800(10)
H23 H 0.1186 0.4044 0.1303
C41 C 0.181980(6) 0.308870(8) 0.127390(9)
H24 H 0.1594 0.2579 0.1378
C42 C 0.158280(12) 0.568510(18) 0.102120(12)
Co1 Co 0.091650(2) 0.716605(3) 0.092776(1)
O3 O 0.185860(10) 0.640860(15) 0.091220(9)
O4 O 0.102900(11) 0.575880(16) 0.105250(10)
O5 O 0.209160(10) 0.80264(2) 0.158420(10)
O6 O 0.112190(10) 0.792380(17) 0.157070(8)
O9 O 0.004209(11) 0.732918(16) 0.097244(9)
Co7 Co 0.253000(2) 0.749960(3) 0.095250(1)
O20 O 0.109640(9) 0.779630(16) 0.025560(8)
C29 C 0.350960(12) 0.929310(18) 0.105050(12)
H20 H 0.2381 0.9802 0.0941
C43 C 0.354070(11) 0.67063(2) 0.171860(11)
C44 C 0.354390(5) 0.617610(8) 0.223270(4)
C45 C 0.405250(5) 0.608350(9) 0.255100(4)
H25 H 0.4408 0.6346 0.2450
C46 C 0.402940(5) 0.559830(10) 0.302000(4)
H26 H 0.4370 0.5536 0.3233
C47 C 0.349760(6) 0.520570(10) 0.317080(4)
C48 C 0.298900(6) 0.529830(10) 0.285260(4)
H27 H 0.2633 0.5036 0.2953
C49 C 0.301220(5) 0.578350(9) 0.238350(4)
H28 H 0.2672 0.5845 0.2171
C50 C 0.347920(8) 0.465460(11) 0.366930(4)
C51 C 0.297720(8) 0.469910(13) 0.397040(5)
H29 H 0.2644 0.5036 0.3856
C52 C 0.298770(10) 0.423260(15) 0.443990(5)
H30 H 0.2658 0.4283 0.4645
C53 C 0.345820(11) 0.369630(15) 0.462230(5)
C54 C 0.391180(11) 0.363270(14) 0.430160(6)
H31 H 0.4231 0.3253 0.4405
C55 C 0.393890(9) 0.409920(12) 0.381950(5)
H32 H 0.4264 0.4026 0.3611
C56 C 0.341980(14) 0.31504(2) 0.512070(10)
Co2 Co 0.414750(2) 0.782770(3) 0.095610(1)
O1 O 0.320570(10) 0.856660(15) 0.096950(9)
O2 O 0.406080(9) 0.924400(15) 0.107780(9)
O11 O 0.399930(8) 0.709970(16) 0.161210(8)
O12 O 0.307740(11) 0.664300(19) 0.143520(10)
O13 O 0.390520(11) 0.279830(17) 0.527680(9)
O14 O 0.295270(12) 0.31222(2) 0.533380(10)
Co6 Co 0.414750(2) 0.217230(3) 0.595610(1)
O19 O 0.197590(11) 0.835610(19) 0.046200(10)
O21 O 0.390520(11) 0.720170(17) 0.027680(9)
O22 O 0.295270(12) 0.68778(2) 0.033380(10)
O23 O 0.501799(11) 0.76720(2) 0.099111(12)
C1 C 0.972345(18) 0.70298(3) 0.061246(15)
C2 C 0.869077(5) 0.690070(8) 0.022962(6)
C3 C 0.808463(5) 0.705007(9) 0.026709(6)
C4 C 0.786286(5) 0.741401(12) 0.072329(7)
C5 C 0.824723(7) 0.762858(16) 0.114201(7)
H3 H 0.8099 0.7872 0.1447
C6 C 0.885337(6) 0.747922(15) 0.110454(6)
H4 H 0.9111 0.7623 0.1385
C7 C 0.907515(5) 0.711528(11) 0.064835(6)
C8 C 0.596608(6) 0.790764(18) 0.068251(12)
C9 C 0.629538(5) 0.809233(15) 0.024695(11)
C10 C 0.690350(5) 0.792836(12) 0.026305(10)
C11 C 0.718230(6) 0.757977(13) 0.071474(8)
C12 C 0.685300(7) 0.739509(18) 0.115032(9)
H7 H 0.7040 0.7162 0.1453
C13 C 0.624489(7) 0.75590(2) 0.113424(11)
H8 H 0.6025 0.7435 0.1426
C14 C 0.527958(12) 0.78881(3) 0.06567(2)
O10 O 0.991205(14) 0.65678(3) 0.023826(15)
O16 O 0.508473(15) 0.85002(3) 0.030055(19)
C56_2 C 0.341980(14) 0.68496(2) 0.012070(10)
C29_2 C 0.350960(12) 0.070690(18) 0.605050(12)
H20_2 H 0.2381 0.0198 0.5941
C43_2 C 0.354070(11) 0.32937(2) 0.671860(11)
C44_2 C 0.354390(5) 0.382390(8) 0.723270(4)
C45_2 C 0.405250(5) 0.391650(9) 0.755100(4)
H25_2 H 0.4408 0.3654 0.7450
C46_2 C 0.402940(5) 0.440170(10) 0.802000(4)
H26_2 H 0.4370 0.4464 0.8233
C47_2 C 0.349760(6) 0.479430(10) 0.817080(4)
C48_2 C 0.298900(6) 0.470170(10) 0.785260(4)
H27_2 H 0.2633 0.4964 0.7953
C49_2 C 0.301220(5) 0.421650(9) 0.738350(4)
H28_2 H 0.2672 0.4155 0.7171
C50_2 C 0.347920(8) 0.534540(11) 0.866930(4)
C51_2 C 0.297720(8) 0.530090(13) 0.897040(5)
H29_2 H 0.2644 0.4964 0.8856
C52_2 C 0.298770(10) 0.576740(15) 0.943990(5)
H30_2 H 0.2658 0.5717 0.9645
C53_2 C 0.345820(11) 0.630370(15) 0.962230(5)
C54_2 C 0.391180(11) 0.636730(14) 0.930160(6)
H31_2 H 0.4231 0.6747 0.9405
C55_2 C 0.393890(9) 0.590080(12) 0.881950(5)
H32_2 H 0.4264 0.5974 0.8611
O1_2 O 0.320570(10) 0.143340(15) 0.596950(9)
O2_2 O 0.406080(9) 0.075600(15) 0.607780(9)
O11_2 O 0.399930(8) 0.290030(16) 0.661210(8)
O12_2 O 0.307740(11) 0.335700(19) 0.643520(10)
O17 O 0.185860(10) 0.359140(15) 0.591220(9)
O18 O 0.209160(10) 0.19736(2) 0.658420(10)
O23_2 O 0.501799(11) 0.23280(2) 0.599111(12)
H10_2 H 0.2344 0.0205 0.8978
C22_2 C 0.156200(8) 0.028560(12) 0.821460(5)
C23_2 C 0.210000(9) 0.038470(14) 0.793760(5)
H13_2 H 0.2443 0.0112 0.8082
C24_2 C 0.214080(11) 0.084400(16) 0.748390(6)
H14_2 H 0.2504 0.0908 0.7328
C25_2 C 0.160260(12) 0.124030(16) 0.724040(6)
C26_2 C 0.106560(11) 0.108450(15) 0.747870(6)
H15_2 H 0.0719 0.1310 0.7316
C27_2 C 0.102580(9) 0.058980(13) 0.796500(5)
H16_2 H 0.0661 0.0474 0.8110
C28_2 C 0.160650(14) 0.17794(2) 0.673100(13)
C30_2 C 0.321730(4) 0.975220(7) 0.611380(4)
C31_2 C 0.355630(5) 0.895900(7) 0.623620(5)
H17_2 H 0.3964 0.9016 0.6297
C32_2 C 0.328610(5) 0.808120(7) 0.626760(5)
H18_2 H 0.3513 0.7550 0.6349
C33_2 C 0.267700(5) 0.799660(7) 0.617670(5)
C34_2 C 0.233800(5) 0.878990(7) 0.605440(6)
H19_2 H 0.1930 0.8733 0.5994
C35_2 C 0.260810(4) 0.966770(7) 0.602290(5)
C36_2 C 0.240070(6) 0.701360(7) 0.616020(7)
C37_2 C 0.272360(7) 0.624040(7) 0.601850(7)
H21_2 H 0.3124 0.6316 0.5953
C38_2 C 0.246660(8) 0.532960(7) 0.596810(8)
H22_2 H 0.2688 0.4815 0.5863
C39_2 C 0.189120(8) 0.523790(8) 0.607740(10)
C40_2 C 0.158310(7) 0.603010(9) 0.622800(10)
H23_2 H 0.1186 0.5956 0.6303
C41_2 C 0.181980(6) 0.691130(8) 0.627390(9)
H24_2 H 0.1594 0.7421 0.6378
C42_2 C 0.158280(12) 0.431490(18) 0.602120(12)
O4_2 O 0.102900(11) 0.424120(16) 0.605250(10)
O6_2 O 0.112190(10) 0.207620(17) 0.657070(8)
O9_2 O 0.004209(11) 0.267082(16) 0.597244(9)
C15_2 C 0.154010(13) 0.82435(2) 0.016550(11)
C1_2 C 0.972345(18) 0.29702(3) 0.561246(15)
C2_2 C 0.869077(5) 0.309930(8) 0.522962(6)
H1 H 0.8839 0.3343 0.4924
C3_2 C 0.808463(5) 0.294993(9) 0.526709(6)
H2 H 0.7827 0.3093 0.4987
C4_2 C 0.786286(5) 0.258599(12) 0.572329(7)
C5_2 C 0.824723(7) 0.237142(16) 0.614201(7)
H3_2 H 0.8099 0.2128 0.6447
C6_2 C 0.885337(6) 0.252078(15) 0.610454(6)
H4_2 H 0.9111 0.2377 0.6385
C7_2 C 0.907515(5) 0.288472(11) 0.564835(6)
C8_2 C 0.596608(6) 0.209236(18) 0.568251(12)
C9_2 C 0.629538(5) 0.190767(15) 0.524695(11)
H5 H 0.6109 0.1674 0.4945
C10_2 C 0.690350(5) 0.207164(12) 0.526305(10)
H6 H 0.7124 0.1948 0.4972
C11_2 C 0.718230(6) 0.242023(13) 0.571474(8)
C12_2 C 0.685300(7) 0.260491(18) 0.615032(9)
H7_2 H 0.7040 0.2838 0.6453
C13_2 C 0.624489(7) 0.24410(2) 0.613424(11)
H8_2 H 0.6025 0.2565 0.6426
C14_2 C 0.527958(12) 0.21119(3) 0.56567(2)
O10_2 O 0.991205(14) 0.34322(3) 0.523826(15)
O16_2 O 0.508473(15) 0.14998(3) 0.530055(19)
H1_2 H 0.8839 0.6657 0.9924
H2_2 H 0.7827 0.6907 0.9987
H5_2 H 0.6109 0.8326 0.9945
H6_2 H 0.7124 0.8052 0.9972
C1_3 C 0.027655(18) 0.70298(3) 0.438754(15)
C2_3 C 0.130923(5) 0.690070(8) 0.477038(6)
H1_3 H 0.1161 0.6657 0.5076
C3_3 C 0.191537(5) 0.705007(9) 0.473291(6)
H2_3 H 0.2173 0.6907 0.5013
C4_3 C 0.213714(5) 0.741401(12) 0.427671(7)
C5_3 C 0.175277(7) 0.762858(16) 0.385799(7)
H3_3 H 0.1901 0.7872 0.3553
C6_3 C 0.114663(6) 0.747922(15) 0.389546(6)
H4_3 H 0.0889 0.7623 0.3615
C7_3 C 0.092485(5) 0.711528(11) 0.435165(6)
C8_3 C 0.403392(6) 0.790764(18) 0.431749(12)
C9_3 C 0.370462(5) 0.809233(15) 0.475305(11)
H5_3 H 0.3891 0.8326 0.5055
C10_3 C 0.309650(5) 0.792836(12) 0.473695(10)
H6_3 H 0.2876 0.8052 0.5028
C11_3 C 0.281770(6) 0.757977(13) 0.428526(8)
C12_3 C 0.314700(7) 0.739509(18) 0.384968(9)
H7_3 H 0.2960 0.7162 0.3547
C13_3 C 0.375511(7) 0.75590(2) 0.386576(11)
H8_3 H 0.3975 0.7435 0.3574
C14_3 C 0.472042(12) 0.78881(3) 0.43433(2)
O10_3 O 0.008795(14) 0.65678(3) 0.476174(15)
O15 O 0.498201(11) 0.76720(2) 0.400889(12)
O16_3 O 0.491527(15) 0.85002(3) 0.469945(19)
Co5 Co 0.585250(2) 0.782770(3) 0.404390(1)
C15_3 C 0.845990(13) 0.17565(2) 0.983450(11)
O7_2 O 0.802410(11) 0.164390(19) 0.953800(10)
O8_2 O 0.890360(9) 0.220370(16) 0.974440(8)
Co4_2 Co 0.908350(2) 0.283395(3) 0.907224(1)
Co8_2 Co 0.747000(2) 0.250040(3) 0.904750(1)
H10_3 H 0.7656 0.9795 0.1022
C22_3 C 0.843800(8) 0.971440(12) 0.178540(5)
C23_3 C 0.790000(9) 0.961530(14) 0.206240(5)
H13_3 H 0.7557 0.9888 0.1918
C24_3 C 0.785920(11) 0.915600(16) 0.251610(6)
H14_3 H 0.7496 0.9092 0.2672
C25_3 C 0.839740(12) 0.875970(16) 0.275960(6)
C26_3 C 0.893440(11) 0.891550(15) 0.252130(6)
H15_3 H 0.9281 0.8690 0.2684
C27_3 C 0.897420(9) 0.941020(13) 0.203500(5)
H16_3 H 0.9339 0.9526 0.1890
C28_3 C 0.839350(14) 0.82206(2) 0.326900(13)
C30_3 C 0.678270(4) 0.024780(7) 0.388620(4)
C31_3 C 0.644370(5) 0.104100(7) 0.376380(5)
H17_3 H 0.6036 0.0984 0.3703
C32_3 C 0.671390(5) 0.191880(7) 0.373240(5)
H18_3 H 0.6487 0.2450 0.3651
C33_3 C 0.732300(5) 0.200340(7) 0.382330(5)
C34_3 C 0.766200(5) 0.121010(7) 0.394560(6)
H19_3 H 0.8070 0.1267 0.4006
C35_3 C 0.739190(4) 0.033230(7) 0.397710(5)
C36_3 C 0.759930(6) 0.298640(7) 0.383980(7)
C37_3 C 0.727640(7) 0.375960(7) 0.398150(7)
H21_3 H 0.6876 0.3684 0.4047
C38_3 C 0.753340(8) 0.467040(7) 0.403190(8)
H22_3 H 0.7312 0.5185 0.4137
C39_3 C 0.810880(8) 0.476210(8) 0.392260(10)
C40_3 C 0.841690(7) 0.396990(9) 0.377200(10)
H23_3 H 0.8814 0.4044 0.3697
C41_3 C 0.818020(6) 0.308870(8) 0.372610(9)
H24_3 H 0.8406 0.2579 0.3622
C42_3 C 0.841720(12) 0.568510(18) 0.397880(12)
Co1_2 Co 0.908350(2) 0.716605(3) 0.407224(1)
O3_2 O 0.814140(10) 0.640860(15) 0.408780(9)
O4_3 O 0.897100(11) 0.575880(16) 0.394750(10)
O5_2 O 0.790840(10) 0.80264(2) 0.341580(10)
O6_3 O 0.887810(10) 0.792380(17) 0.342930(8)
O9_3 O 0.995791(11) 0.732918(16) 0.402756(9)
Co7_2 Co 0.747000(2) 0.749960(3) 0.404750(1)
O20_2 O 0.890360(9) 0.779630(16) 0.474440(8)
C29_3 C 0.649040(12) 0.929310(18) 0.394950(12)
H20_3 H 0.7619 0.9802 0.4059
C43_3 C 0.645930(11) 0.67063(2) 0.328140(11)
C44_3 C 0.645610(5) 0.617610(8) 0.276730(4)
C45_3 C 0.594750(5) 0.608350(9) 0.244900(4)
H25_3 H 0.5592 0.6346 0.2550
C46_3 C 0.597060(5) 0.559830(10) 0.198000(4)
H26_3 H 0.5630 0.5536 0.1767
C47_3 C 0.650240(6) 0.520570(10) 0.182920(4)
C48_3 C 0.701100(6) 0.529830(10) 0.214740(4)
H27_3 H 0.7367 0.5036 0.2047
C49_3 C 0.698780(5) 0.578350(9) 0.261650(4)
H28_3 H 0.7328 0.5845 0.2829
C50_3 C 0.652080(8) 0.465460(11) 0.133070(4)
C51_3 C 0.702280(8) 0.469910(13) 0.102960(5)
H29_3 H 0.7356 0.5036 0.1144
C52_3 C 0.701230(10) 0.423260(15) 0.056010(5)
H30_3 H 0.7342 0.4283 0.0355
C53_3 C 0.654180(11) 0.369630(15) 0.037770(5)
C54_3 C 0.608820(11) 0.363270(14) 0.069840(6)
H31_3 H 0.5769 0.3253 0.0595
C55_3 C 0.606110(9) 0.409920(12) 0.118050(5)
H32_3 H 0.5736 0.4026 0.1389
O1_3 O 0.679430(10) 0.856660(15) 0.403050(9)
O2_3 O 0.593920(9) 0.924400(15) 0.392220(9)
O11_3 O 0.600070(8) 0.709970(16) 0.338790(8)
O12_3 O 0.692260(11) 0.664300(19) 0.356480(10)
O19_2 O 0.802410(11) 0.835610(19) 0.453800(10)
O21_2 O 0.609480(11) 0.720170(17) 0.472320(9)
O22_2 O 0.704730(12) 0.68778(2) 0.466620(10)
C56_3 C 0.658020(14) 0.31504(2) 0.987930(10)
O13_2 O 0.609480(11) 0.279830(17) 0.972320(9)
O14_2 O 0.704730(12) 0.31222(2) 0.966620(10)
Co6_2 Co 0.585250(2) 0.217230(3) 0.904390(1)
C1_4 C 0.027655(18) 0.29702(3) 0.938754(15)
C2_4 C 0.130923(5) 0.309930(8) 0.977038(6)
C3_4 C 0.191537(5) 0.294993(9) 0.973291(6)
C4_4 C 0.213714(5) 0.258599(12) 0.927671(7)
C5_4 C 0.175277(7) 0.237142(16) 0.885799(7)
H3_4 H 0.1901 0.2128 0.8553
C6_4 C 0.114663(6) 0.252078(15) 0.889546(6)
H4_4 H 0.0889 0.2377 0.8615
C7_4 C 0.092485(5) 0.288472(11) 0.935165(6)
C8_4 C 0.403392(6) 0.209236(18) 0.931749(12)
C9_4 C 0.370462(5) 0.190767(15) 0.975305(11)
C10_4 C 0.309650(5) 0.207164(12) 0.973695(10)
C11_4 C 0.281770(6) 0.242023(13) 0.928526(8)
C12_4 C 0.314700(7) 0.260491(18) 0.884968(9)
H7_4 H 0.2960 0.2838 0.8547
C13_4 C 0.375511(7) 0.24410(2) 0.886576(11)
H8_4 H 0.3975 0.2565 0.8574
C14_4 C 0.472042(12) 0.21119(3) 0.93433(2)
O10_4 O 0.008795(14) 0.34322(3) 0.976174(15)
O15_2 O 0.498201(11) 0.23280(2) 0.900889(12)
O16_4 O 0.491527(15) 0.14998(3) 0.969945(19)
C29_4 C 0.649040(12) 0.070690(18) 0.894950(12)
H20_4 H 0.7619 0.0198 0.9059
C43_4 C 0.645930(11) 0.32937(2) 0.828140(11)
C44_4 C 0.645610(5) 0.382390(8) 0.776730(4)
C45_4 C 0.594750(5) 0.391650(9) 0.744900(4)
H25_4 H 0.5592 0.3654 0.7550
C46_4 C 0.597060(5) 0.440170(10) 0.698000(4)
H26_4 H 0.5630 0.4464 0.6767
C47_4 C 0.650240(6) 0.479430(10) 0.682920(4)
C48_4 C 0.701100(6) 0.470170(10) 0.714740(4)
H27_4 H 0.7367 0.4964 0.7047
C49_4 C 0.698780(5) 0.421650(9) 0.761650(4)
H28_4 H 0.7328 0.4155 0.7829
C50_4 C 0.652080(8) 0.534540(11) 0.633070(4)
C51_4 C 0.702280(8) 0.530090(13) 0.602960(5)
H29_4 H 0.7356 0.4964 0.6144
C52_4 C 0.701230(10) 0.576740(15) 0.556010(5)
H30_4 H 0.7342 0.5717 0.5355
C53_4 C 0.654180(11) 0.630370(15) 0.537770(5)
C54_4 C 0.608820(11) 0.636730(14) 0.569840(6)
H31_4 H 0.5769 0.6747 0.5595
C55_4 C 0.606110(9) 0.590080(12) 0.618050(5)
H32_4 H 0.5736 0.5974 0.6389
C56_4 C 0.658020(14) 0.68496(2) 0.487930(10)
O1_4 O 0.679430(10) 0.143340(15) 0.903050(9)
O2_4 O 0.593920(9) 0.075600(15) 0.892220(9)
O11_4 O 0.600070(8) 0.290030(16) 0.838790(8)
O12_4 O 0.692260(11) 0.335700(19) 0.856480(10)
O17_2 O 0.814140(10) 0.359140(15) 0.908780(9)
O18_2 O 0.790840(10) 0.19736(2) 0.841580(10)
H10_4 H 0.7656 0.0205 0.6022
C22_4 C 0.843800(8) 0.028560(12) 0.678540(5)
C23_4 C 0.790000(9) 0.038470(14) 0.706240(5)
H13_4 H 0.7557 0.0112 0.6918
C24_4 C 0.785920(11) 0.084400(16) 0.751610(6)
H14_4 H 0.7496 0.0908 0.7672
C25_4 C 0.839740(12) 0.124030(16) 0.775960(6)
C26_4 C 0.893440(11) 0.108450(15) 0.752130(6)
H15_4 H 0.9281 0.1310 0.7684
C27_4 C 0.897420(9) 0.058980(13) 0.703500(5)
H16_4 H 0.9339 0.0474 0.6890
C28_4 C 0.839350(14) 0.17794(2) 0.826900(13)
C30_4 C 0.678270(4) 0.975220(7) 0.888620(4)
C31_4 C 0.644370(5) 0.895900(7) 0.876380(5)
H17_4 H 0.6036 0.9016 0.8703
C32_4 C 0.671390(5) 0.808120(7) 0.873240(5)
H18_4 H 0.6487 0.7550 0.8651
C33_4 C 0.732300(5) 0.799660(7) 0.882330(5)
C34_4 C 0.766200(5) 0.878990(7) 0.894560(6)
H19_4 H 0.8070 0.8733 0.9006
C35_4 C 0.739190(4) 0.966770(7) 0.897710(5)
C36_4 C 0.759930(6) 0.701360(7) 0.883980(7)
C37_4 C 0.727640(7) 0.624040(7) 0.898150(7)
H21_4 H 0.6876 0.6316 0.9047
C38_4 C 0.753340(8) 0.532960(7) 0.903190(8)
H22_4 H 0.7312 0.4815 0.9137
C39_4 C 0.810880(8) 0.523790(8) 0.892260(10)
C40_4 C 0.841690(7) 0.603010(9) 0.877200(10)
H23_4 H 0.8814 0.5956 0.8697
C41_4 C 0.818020(6) 0.691130(8) 0.872610(9)
H24_4 H 0.8406 0.7421 0.8622
C42_4 C 0.841720(12) 0.431490(18) 0.897880(12)
O4_4 O 0.897100(11) 0.424120(16) 0.894750(10)
O6_4 O 0.887810(10) 0.207620(17) 0.842930(8)
O9_4 O 0.995791(11) 0.267082(16) 0.902756(9)
C15_4 C 0.845990(13) 0.82435(2) 0.483450(11)
C16_2 C 0.845140(5) 0.875730(9) 0.536150(4)
C17_2 C 0.797510(5) 0.933390(9) 0.547590(4)
H9_2 H 0.7657 0.9395 0.5238
C18_2 C 0.797500(6) 0.981950(10) 0.594600(4)
C19_2 C 0.845110(6) 0.972850(10) 0.630170(4)
C20_2 C 0.892740(6) 0.915180(10) 0.618730(4)
H11_2 H 0.9246 0.9091 0.6425
C21_2 C 0.892750(5) 0.866620(9) 0.571720(4)
H12_2 H 0.9246 0.8280 0.5641
C16_3 C 0.845140(5) 0.124270(9) 0.036150(4)
C17_3 C 0.797510(5) 0.066610(9) 0.047590(4)
H9_3 H 0.7657 0.0605 0.0238
C18_3 C 0.797500(6) 0.018050(10) 0.094600(4)
C19_3 C 0.845110(6) 0.027150(10) 0.130170(4)
C20_3 C 0.892740(6) 0.084820(10) 0.118730(4)
H11_3 H 0.9246 0.0909 0.1425
C21_3 C 0.892750(5) 0.133380(9) 0.071720(4)
H12_3 H 0.9246 0.1720 0.0641
H1_4 H 0.1161 0.3343 0.0076
H2_4 H 0.2173 0.3093 0.0013
H5_4 H 0.3891 0.1674 0.0055
H6_4 H 0.2876 0.1948 0.0028
C16_4 C 0.154860(5) 0.875730(9) 0.963850(4)
C17_4 C 0.202490(5) 0.933390(9) 0.952410(4)
H9_4 H 0.2343 0.9395 0.9762
C18_4 C 0.202500(6) 0.981950(10) 0.905400(4)
C19_4 C 0.154890(6) 0.972850(10) 0.869830(4)
C20_4 C 0.107260(6) 0.915180(10) 0.881270(4)
H11_4 H 0.0754 0.9091 0.8575
C21_4 C 0.107250(5) 0.866620(9) 0.928280(4)
H12_4 H 0.0754 0.8280 0.9359
loop_
_geom_bond_atom_site_label_1
_geom_bond_atom_site_label_2
_geom_bond_site_symmetry_1
_geom_bond_site_symmetry_2
C15 C16 1_555 1_555
C16 C17 1_555 1_555
C17 H9 1_555 1_555
C18 C17 1_555 1_555
C19 C18 1_555 1_555
C20 C19 1_555 1_555
H11 C20 1_555 1_555
C21 C16 1_555 1_555
H12 C21 1_555 1_555
O7 C15 1_555 1_555
O8 C15 1_555 1_555
Co4 O8 1_555 1_555
Co8 O7 1_555 1_555
C20 C21 1_555 1_555
C23 C22 1_555 1_555
H13 C23 1_555 1_555
C24 C23 1_555 1_555
H14 C24 1_555 1_555
C25 C24 1_555 1_555
C26 C25 1_555 1_555
H15 C26 1_555 1_555
C27 C22 1_555 1_555
H16 C27 1_555 1_555
C28 C25 1_555 1_555
C30 C31 1_555 1_555
C31 H17 1_555 1_555
C32 C31 1_555 1_555
H18 C32 1_555 1_555
C33 C32 1_555 1_555
C34 C33 1_555 1_555
H19 C34 1_555 1_555
C35 C30 1_555 1_555
C36 C33 1_555 1_555
C37 C36 1_555 1_555
H21 C37 1_555 1_555
C38 C37 1_555 1_555
H22 C38 1_555 1_555
C39 C38 1_555 1_555
C40 C39 1_555 1_555
H23 C40 1_555 1_555
C41 C36 1_555 1_555
H24 C41 1_555 1_555
C42 C39 1_555 1_555
Co1 O4 1_555 1_555
O3 C42 1_555 1_555
O4 C42 1_555 1_555
O5 C28 1_555 1_555
O6 C28 1_555 1_555
Co7 O3 1_555 1_555
O20 Co1 1_555 1_555
C26 C27 1_555 1_555
C34 C35 1_555 1_555
C40 C41 1_555 1_555
Co1 O6 1_555 1_555
Co1 O9 1_555 1_555
O5 Co7 1_555 1_555
C43 C44 1_555 1_555
C44 C45 1_555 1_555
C45 H25 1_555 1_555
C46 C45 1_555 1_555
H26 C46 1_555 1_555
C47 C46 1_555 1_555
C48 C47 1_555 1_555
H27 C48 1_555 1_555
C49 C44 1_555 1_555
H28 C49 1_555 1_555
C50 C47 1_555 1_555
C51 C50 1_555 1_555
H29 C51 1_555 1_555
C52 C51 1_555 1_555
H30 C52 1_555 1_555
C53 C52 1_555 1_555
C54 C53 1_555 1_555
H31 C54 1_555 1_555
C55 C50 1_555 1_555
H32 C55 1_555 1_555
C56 C53 1_555 1_555
Co2 O2 1_555 1_555
Co7 O1 1_555 1_555
O1 C29 1_555 1_555
O2 C29 1_555 1_555
O11 C43 1_555 1_555
O12 C43 1_555 1_555
O13 C56 1_555 1_555
O14 C56 1_555 1_555
Co6 O13 1_555 1_555
Co8 O14 1_555 1_555
O19 Co7 1_555 1_555
O21 Co2 1_555 1_555
O22 Co7 1_555 1_555
O23 Co2 1_555 1_555
C48 C49 1_555 1_555
C54 C55 1_555 1_555
Co2 O11 1_555 1_555
Co7 O12 1_555 1_555
C1 C7 1_555 1_555
C3 C2 1_555 1_555
C4 C3 1_555 1_555
C5 C4 1_555 1_555
H3 C5 1_555 1_555
C6 C5 1_555 1_555
H4 C6 1_555 1_555
C7 C2 1_555 1_555
C8 C9 1_555 1_555
C10 C9 1_555 1_555
C11 C4 1_555 1_555
C12 C11 1_555 1_555
H7 C12 1_555 1_555
C13 C8 1_555 1_555
H8 C13 1_555 1_555
C14 C8 1_555 1_555
O10 C1 1_555 1_555
O23 C14 1_555 1_555
O16 C14 1_555 1_555
C6 C7 1_555 1_555
C10 C11 1_555 1_555
C12 C13 1_555 1_555
O21 C56_2 1_555 1_555
O22 C56_2 1_555 1_555
C43_2 C44_2 1_555 1_555
C44_2 C45_2 1_555 1_555
C45_2 H25_2 1_555 1_555
C46_2 C45_2 1_555 1_555
H26_2 C46_2 1_555 1_555
C47_2 C46_2 1_555 1_555
C48_2 C47_2 1_555 1_555
H27_2 C48_2 1_555 1_555
C49_2 C44_2 1_555 1_555
H28_2 C49_2 1_555 1_555
C50_2 C47_2 1_555 1_555
C51_2 C50_2 1_555 1_555
H29_2 C51_2 1_555 1_555
C52_2 C51_2 1_555 1_555
H30_2 C52_2 1_555 1_555
C53_2 C52_2 1_555 1_555
C54_2 C53_2 1_555 1_555
H31_2 C54_2 1_555 1_555
C55_2 C50_2 1_555 1_555
H32_2 C55_2 1_555 1_555
Co6 O2_2 1_555 1_555
Co8 O1_2 1_555 1_555
O1_2 C29_2 1_555 1_555
O2_2 C29_2 1_555 1_555
O11_2 C43_2 1_555 1_555
O12_2 C43_2 1_555 1_555
O17 Co8 1_555 1_555
O18 Co8 1_555 1_555
O23_2 Co6 1_555 1_555
C48_2 C49_2 1_555 1_555
C54_2 C55_2 1_555 1_555
Co6 O11_2 1_555 1_555
Co8 O12_2 1_555 1_555
C23_2 C22_2 1_555 1_555
H13_2 C23_2 1_555 1_555
C24_2 C23_2 1_555 1_555
H14_2 C24_2 1_555 1_555
C25_2 C24_2 1_555 1_555
C26_2 C25_2 1_555 1_555
H15_2 C26_2 1_555 1_555
C27_2 C22_2 1_555 1_555
H16_2 C27_2 1_555 1_555
C28_2 C25_2 1_555 1_555
C30_2 C31_2 1_555 1_555
C31_2 H17_2 1_555 1_555
C32_2 C31_2 1_555 1_555
H18_2 C32_2 1_555 1_555
C33_2 C32_2 1_555 1_555
C34_2 C33_2 1_555 1_555
H19_2 C34_2 1_555 1_555
C35_2 C30_2 1_555 1_555
C36_2 C33_2 1_555 1_555
C37_2 C36_2 1_555 1_555
H21_2 C37_2 1_555 1_555
C38_2 C37_2 1_555 1_555
H22_2 C38_2 1_555 1_555
C39_2 C38_2 1_555 1_555
C40_2 C39_2 1_555 1_555
H23_2 C40_2 1_555 1_555
C41_2 C36_2 1_555 1_555
H24_2 C41_2 1_555 1_555
C42_2 C39_2 1_555 1_555
Co4 O4_2 1_555 1_555
O17 C42_2 1_555 1_555
O4_2 C42_2 1_555 1_555
O18 C28_2 1_555 1_555
O6_2 C28_2 1_555 1_555
C26_2 C27_2 1_555 1_555
C34_2 C35_2 1_555 1_555
C40_2 C41_2 1_555 1_555
Co4 O6_2 1_555 1_555
Co4 O9_2 1_555 1_555
O19 C15_2 1_555 1_555
O20 C15_2 1_555 1_555
C1_2 C7_2 1_555 1_555
C2_2 H1 1_555 1_555
C3_2 C2_2 1_555 1_555
H2 C3_2 1_555 1_555
C4_2 C3_2 1_555 1_555
C5_2 C4_2 1_555 1_555
H3_2 C5_2 1_555 1_555
C6_2 C5_2 1_555 1_555
H4_2 C6_2 1_555 1_555
C7_2 C2_2 1_555 1_555
C8_2 C9_2 1_555 1_555
C9_2 H5 1_555 1_555
C10_2 C9_2 1_555 1_555
H6 C10_2 1_555 1_555
C11_2 C4_2 1_555 1_555
C12_2 C11_2 1_555 1_555
H7_2 C12_2 1_555 1_555
C13_2 C8_2 1_555 1_555
H8_2 C13_2 1_555 1_555
C14_2 C8_2 1_555 1_555
O10_2 C1_2 1_555 1_555
O23_2 C14_2 1_555 1_555
O16_2 C14_2 1_555 1_555
C6_2 C7_2 1_555 1_555
C10_2 C11_2 1_555 1_555
C12_2 C13_2 1_555 1_555
C1_3 C7_3 1_555 1_555
C2_3 H1_3 1_555 1_555
C3_3 C2_3 1_555 1_555
H2_3 C3_3 1_555 1_555
C4_3 C3_3 1_555 1_555
C5_3 C4_3 1_555 1_555
H3_3 C5_3 1_555 1_555
C6_3 C5_3 1_555 1_555
H4_3 C6_3 1_555 1_555
C7_3 C2_3 1_555 1_555
C8_3 C9_3 1_555 1_555
C9_3 H5_3 1_555 1_555
C10_3 C9_3 1_555 1_555
H6_3 C10_3 1_555 1_555
C11_3 C4_3 1_555 1_555
C12_3 C11_3 1_555 1_555
H7_3 C12_3 1_555 1_555
C13_3 C8_3 1_555 1_555
H8_3 C13_3 1_555 1_555
C14_3 C8_3 1_555 1_555
O10_3 C1_3 1_555 1_555
O15 C14_3 1_555 1_555
O16_3 C14_3 1_555 1_555
Co5 O15 1_555 1_555
C6_3 C7_3 1_555 1_555
C10_3 C11_3 1_555 1_555
C12_3 C13_3 1_555 1_555
O7_2 C15_3 1_555 1_555
O8_2 C15_3 1_555 1_555
Co4_2 O8_2 1_555 1_555
Co8_2 O7_2 1_555 1_555
C23_3 C22_3 1_555 1_555
H13_3 C23_3 1_555 1_555
C24_3 C23_3 1_555 1_555
H14_3 C24_3 1_555 1_555
C25_3 C24_3 1_555 1_555
C26_3 C25_3 1_555 1_555
H15_3 C26_3 1_555 1_555
C27_3 C22_3 1_555 1_555
H16_3 C27_3 1_555 1_555
C28_3 C25_3 1_555 1_555
C30_3 C31_3 1_555 1_555
C31_3 H17_3 1_555 1_555
C32_3 C31_3 1_555 1_555
H18_3 C32_3 1_555 1_555
C33_3 C32_3 1_555 1_555
C34_3 C33_3 1_555 1_555
H19_3 C34_3 1_555 1_555
C35_3 C30_3 1_555 1_555
C36_3 C33_3 1_555 1_555
C37_3 C36_3 1_555 1_555
H21_3 C37_3 1_555 1_555
C38_3 C37_3 1_555 1_555
H22_3 C38_3 1_555 1_555
C39_3 C38_3 1_555 1_555
C40_3 C39_3 1_555 1_555
H23_3 C40_3 1_555 1_555
C41_3 C36_3 1_555 1_555
H24_3 C41_3 1_555 1_555
C42_3 C39_3 1_555 1_555
Co1_2 O4_3 1_555 1_555
O3_2 C42_3 1_555 1_555
O4_3 C42_3 1_555 1_555
O5_2 C28_3 1_555 1_555
O6_3 C28_3 1_555 1_555
Co7_2 O3_2 1_555 1_555
O20_2 Co1_2 1_555 1_555
C26_3 C27_3 1_555 1_555
C34_3 C35_3 1_555 1_555
C40_3 C41_3 1_555 1_555
Co1_2 O6_3 1_555 1_555
Co1_2 O9_3 1_555 1_555
O5_2 Co7_2 1_555 1_555
C43_3 C44_3 1_555 1_555
C44_3 C45_3 1_555 1_555
C45_3 H25_3 1_555 1_555
C46_3 C45_3 1_555 1_555
H26_3 C46_3 1_555 1_555
C47_3 C46_3 1_555 1_555
C48_3 C47_3 1_555 1_555
H27_3 C48_3 1_555 1_555
C49_3 C44_3 1_555 1_555
H28_3 C49_3 1_555 1_555
C50_3 C47_3 1_555 1_555
C51_3 C50_3 1_555 1_555
H29_3 C51_3 1_555 1_555
C52_3 C51_3 1_555 1_555
H30_3 C52_3 1_555 1_555
C53_3 C52_3 1_555 1_555
C54_3 C53_3 1_555 1_555
H31_3 C54_3 1_555 1_555
C55_3 C50_3 1_555 1_555
H32_3 C55_3 1_555 1_555
Co5 O2_3 1_555 1_555
Co7_2 O1_3 1_555 1_555
O1_3 C29_3 1_555 1_555
O2_3 C29_3 1_555 1_555
O11_3 C43_3 1_555 1_555
O12_3 C43_3 1_555 1_555
O19_2 Co7_2 1_555 1_555
O21_2 Co5 1_555 1_555
O22_2 Co7_2 1_555 1_555
C48_3 C49_3 1_555 1_555
C54_3 C55_3 1_555 1_555
Co5 O11_3 1_555 1_555
Co7_2 O12_3 1_555 1_555
O13_2 C56_3 1_555 1_555
O14_2 C56_3 1_555 1_555
Co6_2 O13_2 1_555 1_555
Co8_2 O14_2 1_555 1_555
C1_4 C7_4 1_555 1_555
C3_4 C2_4 1_555 1_555
C4_4 C3_4 1_555 1_555
C5_4 C4_4 1_555 1_555
H3_4 C5_4 1_555 1_555
C6_4 C5_4 1_555 1_555
H4_4 C6_4 1_555 1_555
C7_4 C2_4 1_555 1_555
C8_4 C9_4 1_555 1_555
C10_4 C9_4 1_555 1_555
C11_4 C4_4 1_555 1_555
C12_4 C11_4 1_555 1_555
H7_4 C12_4 1_555 1_555
C13_4 C8_4 1_555 1_555
H8_4 C13_4 1_555 1_555
C14_4 C8_4 1_555 1_555
O10_4 C1_4 1_555 1_555
O15_2 C14_4 1_555 1_555
O16_4 C14_4 1_555 1_555
Co6_2 O15_2 1_555 1_555
C6_4 C7_4 1_555 1_555
C10_4 C11_4 1_555 1_555
C12_4 C13_4 1_555 1_555
C43_4 C44_4 1_555 1_555
C44_4 C45_4 1_555 1_555
C45_4 H25_4 1_555 1_555
C46_4 C45_4 1_555 1_555
H26_4 C46_4 1_555 1_555
C47_4 C46_4 1_555 1_555
C48_4 C47_4 1_555 1_555
H27_4 C48_4 1_555 1_555
C49_4 C44_4 1_555 1_555
H28_4 C49_4 1_555 1_555
C50_4 C47_4 1_555 1_555
C51_4 C50_4 1_555 1_555
H29_4 C51_4 1_555 1_555
C52_4 C51_4 1_555 1_555
H30_4 C52_4 1_555 1_555
C53_4 C52_4 1_555 1_555
C54_4 C53_4 1_555 1_555
H31_4 C54_4 1_555 1_555
C55_4 C50_4 1_555 1_555
H32_4 C55_4 1_555 1_555
C56_4 C53_4 1_555 1_555
Co6_2 O2_4 1_555 1_555
Co8_2 O1_4 1_555 1_555
O1_4 C29_4 1_555 1_555
O2_4 C29_4 1_555 1_555
O11_4 C43_4 1_555 1_555
O12_4 C43_4 1_555 1_555
O21_2 C56_4 1_555 1_555
O22_2 C56_4 1_555 1_555
O17_2 Co8_2 1_555 1_555
O18_2 Co8_2 1_555 1_555
C48_4 C49_4 1_555 1_555
C54_4 C55_4 1_555 1_555
Co6_2 O11_4 1_555 1_555
Co8_2 O12_4 1_555 1_555
C23_4 C22_4 1_555 1_555
H13_4 C23_4 1_555 1_555
C24_4 C23_4 1_555 1_555
H14_4 C24_4 1_555 1_555
C25_4 C24_4 1_555 1_555
C26_4 C25_4 1_555 1_555
H15_4 C26_4 1_555 1_555
C27_4 C22_4 1_555 1_555
H16_4 C27_4 1_555 1_555
C28_4 C25_4 1_555 1_555
C30_4 C31_4 1_555 1_555
C31_4 H17_4 1_555 1_555
C32_4 C31_4 1_555 1_555
H18_4 C32_4 1_555 1_555
C33_4 C32_4 1_555 1_555
C34_4 C33_4 1_555 1_555
H19_4 C34_4 1_555 1_555
C35_4 C30_4 1_555 1_555
C36_4 C33_4 1_555 1_555
C37_4 C36_4 1_555 1_555
H21_4 C37_4 1_555 1_555
C38_4 C37_4 1_555 1_555
H22_4 C38_4 1_555 1_555
C39_4 C38_4 1_555 1_555
C40_4 C39_4 1_555 1_555
H23_4 C40_4 1_555 1_555
C41_4 C36_4 1_555 1_555
H24_4 C41_4 1_555 1_555
C42_4 C39_4 1_555 1_555
Co4_2 O4_4 1_555 1_555
O17_2 C42_4 1_555 1_555
O4_4 C42_4 1_555 1_555
O18_2 C28_4 1_555 1_555
O6_4 C28_4 1_555 1_555
C26_4 C27_4 1_555 1_555
C34_4 C35_4 1_555 1_555
C40_4 C41_4 1_555 1_555
Co4_2 O6_4 1_555 1_555
Co4_2 O9_4 1_555 1_555
C15_4 C16_2 1_555 1_555
C16_2 C17_2 1_555 1_555
C17_2 H9_2 1_555 1_555
C18_2 C17_2 1_555 1_555
C19_2 C18_2 1_555 1_555
C20_2 C19_2 1_555 1_555
H11_2 C20_2 1_555 1_555
C21_2 C16_2 1_555 1_555
H12_2 C21_2 1_555 1_555
O19_2 C15_4 1_555 1_555
O20_2 C15_4 1_555 1_555
C20_2 C21_2 1_555 1_555
C16_3 C17_3 1_555 1_555
C17_3 H9_3 1_555 1_555
C18_3 C17_3 1_555 1_555
C19_3 C18_3 1_555 1_555
C20_3 C19_3 1_555 1_555
H11_3 C20_3 1_555 1_555
C21_3 C16_3 1_555 1_555
H12_3 C21_3 1_555 1_555
C20_3 C21_3 1_555 1_555
C16_4 C17_4 1_555 1_555
C17_4 H9_4 1_555 1_555
C18_4 C17_4 1_555 1_555
C19_4 C18_4 1_555 1_555
C20_4 C19_4 1_555 1_555
H11_4 C20_4 1_555 1_555
C21_4 C16_4 1_555 1_555
H12_4 C21_4 1_555 1_555
C20_4 C21_4 1_555 1_555

#END
