
###############################################################################
#
# This file contains modified crystal structure data generated from the
# MOF subset of the Cambridge Structural Database (CSD) v543 
# hosted by the Cambridge Crystallographic Data Centre (CCDC).
#
# This work is licensed under the Creative Commons
# Attribution-NonCommercial-ShareAlike 4.0 International License.
# To view a copy of this license, visit
# http://creativecommons.org/licenses/by-nc-sa/4.0/
# or send a letter to
# Creative Commons, PO Box 1866, Mountain View, CA 94042, USA.
#
# CIF created using the CSD Python API on 29 September 2022
# The structure has been converted into the P1 space group
# The structure has a 3D framework
# The original CSD entry MOXDOT is in the monoclinic crystal system
# The framework has been calculated to contain at least 10.0% void space
# The void calculation uses a probe of radius 1.32A, grid spacing 0.4
# The framework is charged, counterions have been retained in the structure
#
###############################################################################

data_MOXDOT
_chemical_formula_moiety         '(C240 H192 Co12 N8 O64)n'
_symmetry_cell_setting           triclinic
_symmetry_space_group_name_H-M   'P 1'
_symmetry_Int_Tables_number      1
_space_group_name_Hall           'P 1'
loop_
_symmetry_equiv_pos_site_id
_symmetry_equiv_pos_as_xyz
1 x,y,z
_cell_length_a                   22.550(10)
_cell_length_b                   14.187(7)
_cell_length_c                   25.681(12)
_cell_angle_alpha                90
_cell_angle_beta                 92.096(9)
_cell_angle_gamma                90
_cell_volume                     8210.29
loop_
_atom_site_label
_atom_site_type_symbol
_atom_site_fract_x
_atom_site_fract_y
_atom_site_fract_z
C1 C 0.464698(7) 0.305058(7) 0.122200(4)
H1 H 0.5005 0.2730 0.1135
H2 H 0.4347 0.2596 0.1299
H3 H 0.4724 0.3443 0.1521
C2 C 0.427387(9) 0.474773(5) 0.076332(9)
H4 H 0.4629 0.5110 0.0725
H5 H 0.4102 0.4900 0.1089
H6 H 0.3996 0.4893 0.0483
N1 N 0.442725(7) 0.367406(6) 0.075133(5)
H7 H 0.4704 0.3612 0.0510
H8 H 0.4099 0.3387 0.0619
C1_2 C 0.535302(7) 0.305058(7) 0.377800(4)
H1_2 H 0.4995 0.2730 0.3865
H2_2 H 0.5653 0.2596 0.3701
H3_2 H 0.5276 0.3443 0.3479
C2_2 C 0.572613(9) 0.474773(5) 0.423668(9)
H4_2 H 0.5371 0.5110 0.4275
H5_2 H 0.5898 0.4900 0.3911
H6_2 H 0.6004 0.4893 0.4517
N1_2 N 0.557275(7) 0.367406(6) 0.424867(5)
H7_2 H 0.5296 0.3612 0.4490
H8_2 H 0.5901 0.3387 0.4381
C1_3 C 0.535302(7) 0.694942(7) 0.877800(4)
H1_3 H 0.4995 0.7270 0.8865
H2_3 H 0.5653 0.7404 0.8701
H3_3 H 0.5276 0.6557 0.8479
C2_3 C 0.572613(9) 0.525227(5) 0.923668(9)
H4_3 H 0.5371 0.4890 0.9275
H5_3 H 0.5898 0.5100 0.8911
H6_3 H 0.6004 0.5107 0.9517
N1_3 N 0.557275(7) 0.632594(6) 0.924867(5)
H7_3 H 0.5296 0.6388 0.9490
H8_3 H 0.5901 0.6613 0.9381
C1_4 C 0.464698(7) 0.694942(7) 0.622200(4)
H1_4 H 0.5005 0.7270 0.6135
H2_4 H 0.4347 0.7404 0.6299
H3_4 H 0.4724 0.6557 0.6521
C2_4 C 0.427387(9) 0.525227(5) 0.576332(9)
H4_4 H 0.4629 0.4890 0.5725
H5_4 H 0.4102 0.5100 0.6089
H6_4 H 0.3996 0.5107 0.5483
N1_4 N 0.442725(7) 0.632594(6) 0.575133(5)
H7_4 H 0.4704 0.6388 0.5510
H8_4 H 0.4099 0.6613 0.5619
C3 C 0.042538(8) 0.192967(5) 0.101005(9)
H9 H 0.0208 0.1863 0.1322
H10 H 0.0182 0.2241 0.0748
H11 H 0.0776 0.2297 0.1083
N2 N 0.060477(7) 0.093638(6) 0.080986(6)
H12 H 0.0914 0.1035 0.0605
H13 H 0.0302 0.0749 0.0596
C4 C 0.077615(10) 0.005487(6) 0.114746(7)
H15 H 0.0914 0.0255 0.1488
H14 H 0.0435 0.9657 0.1179
H16 H 0.1085 0.9710 0.0984
C3_2 C 0.957462(8) 0.192967(5) 0.398995(9)
H9_2 H 0.9792 0.1863 0.3678
H10_2 H 0.9818 0.2241 0.4252
H11_2 H 0.9224 0.2297 0.3917
N2_2 N 0.939523(7) 0.093638(6) 0.419014(6)
H12_2 H 0.9086 0.1035 0.4395
H13_2 H 0.9698 0.0749 0.4404
C4_2 C 0.922385(10) 0.005487(6) 0.385254(7)
H15_2 H 0.9086 0.0255 0.3512
H14_2 H 0.9565 0.9657 0.3821
H16_2 H 0.8915 0.9710 0.4016
H14_3 H 0.9565 0.0343 0.8821
H16_3 H 0.8915 0.0290 0.9016
C3_3 C 0.957462(8) 0.807033(5) 0.898995(9)
H9_3 H 0.9792 0.8137 0.8678
H10_3 H 0.9818 0.7759 0.9252
H11_3 H 0.9224 0.7703 0.8917
N2_3 N 0.939523(7) 0.906362(6) 0.919014(6)
H12_3 H 0.9086 0.8965 0.9395
H13_3 H 0.9698 0.9251 0.9404
C4_3 C 0.922385(10) 0.994513(6) 0.885254(7)
H15_3 H 0.9086 0.9745 0.8512
H14_4 H 0.0435 0.0343 0.6179
H16_4 H 0.1085 0.0290 0.5984
C3_4 C 0.042538(8) 0.807033(5) 0.601005(9)
H9_4 H 0.0208 0.8137 0.6322
H10_4 H 0.0182 0.7759 0.5748
H11_4 H 0.0776 0.7703 0.6083
N2_4 N 0.060477(7) 0.906362(6) 0.580986(6)
H12_4 H 0.0914 0.8965 0.5605
H13_4 H 0.0302 0.9251 0.5596
C4_4 C 0.077615(10) 0.994513(6) 0.614746(7)
H15_4 H 0.0914 0.9745 0.6488
C19 C 0.154580(6) 0.174360(11) 0.516290(5)
C20 C 0.154910(2) 0.123420(4) 0.464080(2)
C21 C 0.202760(2) 0.066420(4) 0.452380(2)
H25 H 0.2348 0.0607 0.4760
C22 C 0.202710(3) 0.017910(4) 0.405350(2)
C23 C 0.154820(3) 0.026400(4) 0.370030(2)
C24 C 0.106970(3) 0.083400(5) 0.381730(2)
H27 H 0.0749 0.0891 0.3581
C25 C 0.107020(2) 0.131910(4) 0.428760(2)
H28 H 0.0750 0.1701 0.4366
O7 O 0.198100(5) 0.163270(8) 0.546990(4)
O8 O 0.109300(4) 0.220510(7) 0.525490(3)
Co4 Co 0.091617(1) 0.283240(1) 0.592755(1)
Co8 Co 0.253030(1) 0.250130(1) 0.595270(1)
H26 H 0.2347 0.9798 0.3975
C26 C 0.156090(4) 0.970750(5) 0.321630(2)
C27 C 0.209740(4) 0.961600(6) 0.293640(2)
H29 H 0.2440 0.9893 0.3079
C28 C 0.213750(5) 0.915770(7) 0.248230(3)
H30 H 0.2500 0.9099 0.2325
C29 C 0.159990(6) 0.875430(7) 0.224160(3)
C30 C 0.106390(5) 0.890250(7) 0.248280(3)
H31 H 0.0717 0.8672 0.2322
C31 C 0.102470(4) 0.939630(6) 0.296940(2)
H32 H 0.0660 0.9507 0.3116
C32 C 0.161090(6) 0.821410(11) 0.173270(6)
C34 C 0.321820(2) 0.024920(3) 0.111730(2)
C35 C 0.355690(2) 0.104330(3) 0.123870(2)
H33 H 0.3964 0.0987 0.1299
C36 C 0.328640(2) 0.192090(3) 0.126930(2)
H34 H 0.3513 0.2452 0.1351
C37 C 0.267720(2) 0.200450(3) 0.117850(2)
C38 C 0.233850(2) 0.121050(3) 0.105710(3)
H35 H 0.1931 0.1266 0.0996
C39 C 0.260900(2) 0.033290(3) 0.102650(2)
C40 C 0.240050(3) 0.298720(3) 0.116110(3)
C41 C 0.272300(3) 0.376030(3) 0.101840(3)
H37 H 0.3123 0.3685 0.0953
C42 C 0.246560(4) 0.467060(3) 0.096710(4)
H38 H 0.2687 0.5185 0.0862
C43 C 0.189020(4) 0.476220(4) 0.107650(4)
C44 C 0.158250(3) 0.397010(4) 0.122800(5)
H39 H 0.1185 0.4044 0.1303
C45 C 0.181960(3) 0.308940(4) 0.127480(4)
H40 H 0.1594 0.2580 0.1380
C46 C 0.157660(6) 0.569780(9) 0.101680(6)
Co1 Co 0.091617(1) 0.716760(1) 0.092755(1)
O3 O 0.185770(5) 0.640410(6) 0.091110(4)
O4 O 0.102960(5) 0.575890(7) 0.104280(5)
O5 O 0.208880(5) 0.803700(10) 0.157960(4)
O6 O 0.112130(4) 0.792070(8) 0.156620(4)
O9 O 0.004307(5) 0.733388(8) 0.097057(4)
Co7 Co 0.253030(1) 0.749870(1) 0.095270(1)
O20 O 0.109300(4) 0.779490(7) 0.025490(3)
C33 C 0.350770(6) 0.928230(9) 0.104540(6)
H36 H 0.2382 0.9802 0.0945
C60 C 0.342080(6) 0.684580(10) 0.013030(5)
Co2 Co 0.414710(1) 0.782780(1) 0.095610(1)
O1 O 0.320630(4) 0.856770(7) 0.097420(4)
O2 O 0.405730(4) 0.925370(7) 0.107570(4)
O13 O 0.391700(5) 0.720840(8) 0.027050(4)
O14 O 0.296270(5) 0.689090(10) 0.033300(4)
O19 O 0.198100(5) 0.836730(8) 0.046990(4)
O21 O 0.399450(4) 0.711180(7) 0.161310(3)
O22 O 0.307860(5) 0.663860(8) 0.143400(4)
O23 O 0.500927(4) 0.765996(9) 0.097200(5)
C47 C 0.354670(6) 0.330150(10) 0.671240(5)
C48 C 0.354880(2) 0.383490(4) 0.723150(2)
C49 C 0.405470(2) 0.391200(4) 0.755450(2)
H41 H 0.4409 0.3641 0.7456
C50 C 0.403090(3) 0.439390(4) 0.802450(2)
H42 H 0.4369 0.4446 0.8241
C51 C 0.350120(3) 0.479880(4) 0.817160(2)
C52 C 0.299530(3) 0.472160(4) 0.784860(2)
H43 H 0.2641 0.4992 0.7947
C53 C 0.301910(2) 0.423970(4) 0.737860(2)
H44 H 0.2681 0.4188 0.7162
C54 C 0.348250(4) 0.534610(5) 0.867130(2)
C55 C 0.297650(4) 0.531200(6) 0.896760(2)
H45 H 0.2641 0.4984 0.8849
C56 C 0.298610(5) 0.577430(7) 0.943830(2)
H46 H 0.2653 0.5731 0.9641
C57 C 0.346000(5) 0.629710(7) 0.962650(2)
C58 C 0.391810(5) 0.635190(6) 0.931020(3)
H47 H 0.4240 0.6722 0.9417
C59 C 0.394610(4) 0.588860(5) 0.882710(2)
H48 H 0.4275 0.5955 0.8622
O11 O 0.399450(4) 0.288820(7) 0.661310(3)
O12 O 0.307860(5) 0.336140(8) 0.643400(4)
Co5 Co 0.414710(1) 0.217220(1) 0.595610(1)
C5 C 0.972004(8) 0.704146(14) 0.061763(7)
C6 C 0.869051(2) 0.689241(4) 0.023231(3)
C7 C 0.808403(2) 0.704139(4) 0.026728(3)
C8 C 0.785987(2) 0.740755(5) 0.072197(3)
C9 C 0.824218(3) 0.762474(7) 0.114170(3)
H19 H 0.8092 0.7870 0.1446
C10 C 0.884866(3) 0.747576(7) 0.110674(3)
H20 H 0.9104 0.7621 0.1388
C11 C 0.907283(2) 0.710960(5) 0.065204(3)
C12 C 0.596279(3) 0.789912(8) 0.067334(5)
C13 C 0.629416(2) 0.808180(6) 0.023876(5)
C14 C 0.690236(2) 0.791852(5) 0.025740(4)
C15 C 0.717918(2) 0.757261(6) 0.071062(4)
C16 C 0.684781(3) 0.738994(8) 0.114522(4)
H23 H 0.7033 0.7158 0.1448
C17 C 0.623962(3) 0.755319(9) 0.112659(5)
H24 H 0.6018 0.7431 0.1417
C18 C 0.528163(4) 0.788161(16) 0.065865(10)
O10 O 0.991612(7) 0.655960(13) 0.024123(7)
O16 O 0.508049(8) 0.851496(17) 0.027680(9)
C33_2 C 0.350770(6) 0.071770(9) 0.604540(6)
H36_2 H 0.2382 0.0198 0.5945
C47_2 C 0.354670(6) 0.669850(10) 0.171240(5)
C48_2 C 0.354880(2) 0.616510(4) 0.223150(2)
C49_2 C 0.405470(2) 0.608800(4) 0.255450(2)
H41_2 H 0.4409 0.6359 0.2456
C50_2 C 0.403090(3) 0.560610(4) 0.302450(2)
H42_2 H 0.4369 0.5554 0.3241
C51_2 C 0.350120(3) 0.520120(4) 0.317160(2)
C52_2 C 0.299530(3) 0.527840(4) 0.284860(2)
H43_2 H 0.2641 0.5008 0.2947
C53_2 C 0.301910(2) 0.576030(4) 0.237860(2)
H44_2 H 0.2681 0.5812 0.2162
C54_2 C 0.348250(4) 0.465390(5) 0.367130(2)
C55_2 C 0.297650(4) 0.468800(6) 0.396760(2)
H45_2 H 0.2641 0.5016 0.3849
C56_2 C 0.298610(5) 0.422570(7) 0.443830(2)
H46_2 H 0.2653 0.4269 0.4641
C57_2 C 0.346000(5) 0.370290(7) 0.462650(2)
C58_2 C 0.391810(5) 0.364810(6) 0.431020(3)
H47_2 H 0.4240 0.3278 0.4417
C59_2 C 0.394610(4) 0.411140(5) 0.382710(2)
H48_2 H 0.4275 0.4045 0.3622
C60_2 C 0.342080(6) 0.315420(10) 0.513030(5)
O1_2 O 0.320630(4) 0.143230(7) 0.597420(4)
O2_2 O 0.405730(4) 0.074630(7) 0.607570(4)
O13_2 O 0.391700(5) 0.279160(8) 0.527050(4)
O14_2 O 0.296270(5) 0.310910(10) 0.533300(4)
O17 O 0.185770(5) 0.359590(6) 0.591110(4)
O18 O 0.208880(5) 0.196300(10) 0.657960(4)
O23_2 O 0.500927(4) 0.234004(9) 0.597200(5)
H26_2 H 0.2347 0.0202 0.8975
C26_2 C 0.156090(4) 0.029250(5) 0.821630(2)
C27_2 C 0.209740(4) 0.038400(6) 0.793640(2)
H29_2 H 0.2440 0.0107 0.8079
C28_2 C 0.213750(5) 0.084230(7) 0.748230(3)
H30_2 H 0.2500 0.0901 0.7325
C29_2 C 0.159990(6) 0.124570(7) 0.724160(3)
C30_2 C 0.106390(5) 0.109750(7) 0.748280(3)
H31_2 H 0.0717 0.1328 0.7322
C31_2 C 0.102470(4) 0.060370(6) 0.796940(2)
H32_2 H 0.0660 0.0493 0.8116
C32_2 C 0.161090(6) 0.178590(11) 0.673270(6)
C34_2 C 0.321820(2) 0.975080(3) 0.611730(2)
C35_2 C 0.355690(2) 0.895670(3) 0.623870(2)
H33_2 H 0.3964 0.9013 0.6299
C36_2 C 0.328640(2) 0.807910(3) 0.626930(2)
H34_2 H 0.3513 0.7548 0.6351
C37_2 C 0.267720(2) 0.799550(3) 0.617850(2)
C38_2 C 0.233850(2) 0.878950(3) 0.605710(3)
H35_2 H 0.1931 0.8734 0.5996
C39_2 C 0.260900(2) 0.966710(3) 0.602650(2)
C40_2 C 0.240050(3) 0.701280(3) 0.616110(3)
C41_2 C 0.272300(3) 0.623970(3) 0.601840(3)
H37_2 H 0.3123 0.6315 0.5953
C42_2 C 0.246560(4) 0.532940(3) 0.596710(4)
H38_2 H 0.2687 0.4815 0.5862
C43_2 C 0.189020(4) 0.523780(4) 0.607650(4)
C44_2 C 0.158250(3) 0.602990(4) 0.622800(5)
H39_2 H 0.1185 0.5956 0.6303
C45_2 C 0.181960(3) 0.691060(4) 0.627480(4)
H40_2 H 0.1594 0.7420 0.6380
C46_2 C 0.157660(6) 0.430220(9) 0.601680(6)
O4_2 O 0.102960(5) 0.424110(7) 0.604280(5)
O6_2 O 0.112130(4) 0.207930(8) 0.656620(4)
O9_2 O 0.004307(5) 0.266612(8) 0.597057(4)
C19_2 C 0.154580(6) 0.825640(11) 0.016290(5)
C5_2 C 0.972004(8) 0.295854(14) 0.561763(7)
C6_2 C 0.869051(2) 0.310759(4) 0.523231(3)
H17 H 0.8840 0.3353 0.4928
C7_2 C 0.808403(2) 0.295861(4) 0.526728(3)
H18 H 0.7828 0.3104 0.4986
C8_2 C 0.785987(2) 0.259245(5) 0.572197(3)
C9_2 C 0.824218(3) 0.237526(7) 0.614170(3)
H19_2 H 0.8092 0.2130 0.6446
C10_2 C 0.884866(3) 0.252424(7) 0.610674(3)
H20_2 H 0.9104 0.2379 0.6388
C11_2 C 0.907283(2) 0.289040(5) 0.565204(3)
C12_2 C 0.596279(3) 0.210088(8) 0.567334(5)
C13_2 C 0.629416(2) 0.191820(6) 0.523876(5)
H21 H 0.6109 0.1687 0.4936
C14_2 C 0.690236(2) 0.208148(5) 0.525740(4)
H22 H 0.7124 0.1959 0.4967
C15_2 C 0.717918(2) 0.242739(6) 0.571062(4)
C16_2 C 0.684781(3) 0.261006(8) 0.614522(4)
H23_2 H 0.7033 0.2842 0.6448
C17_2 C 0.623962(3) 0.244681(9) 0.612659(5)
H24_2 H 0.6018 0.2569 0.6417
C18_2 C 0.528163(4) 0.211839(16) 0.565865(10)
O10_2 O 0.991612(7) 0.344040(13) 0.524123(7)
O16_2 O 0.508049(8) 0.148504(17) 0.527680(9)
H17_2 H 0.8840 0.6647 0.9928
H18_2 H 0.7828 0.6896 0.9986
H21_2 H 0.6109 0.8313 0.9936
H22_2 H 0.7124 0.8041 0.9967
C5_3 C 0.027996(8) 0.704146(14) 0.438237(7)
C6_3 C 0.130949(2) 0.689241(4) 0.476769(3)
H17_3 H 0.1160 0.6647 0.5072
C7_3 C 0.191597(2) 0.704139(4) 0.473272(3)
H18_3 H 0.2172 0.6896 0.5014
C8_3 C 0.214013(2) 0.740755(5) 0.427803(3)
C9_3 C 0.175782(3) 0.762474(7) 0.385830(3)
H19_3 H 0.1908 0.7870 0.3554
C10_3 C 0.115134(3) 0.747576(7) 0.389326(3)
H20_3 H 0.0896 0.7621 0.3612
C11_3 C 0.092717(2) 0.710960(5) 0.434796(3)
C12_3 C 0.403721(3) 0.789912(8) 0.432666(5)
C13_3 C 0.370584(2) 0.808180(6) 0.476124(5)
H21_3 H 0.3891 0.8313 0.5064
C14_3 C 0.309764(2) 0.791852(5) 0.474260(4)
H22_3 H 0.2876 0.8041 0.5033
C15_3 C 0.282082(2) 0.757261(6) 0.428938(4)
C16_3 C 0.315219(3) 0.738994(8) 0.385478(4)
H23_3 H 0.2967 0.7158 0.3552
C17_3 C 0.376038(3) 0.755319(9) 0.387341(5)
H24_3 H 0.3982 0.7431 0.3583
C18_3 C 0.471837(4) 0.788161(16) 0.434135(10)
O10_3 O 0.008388(7) 0.655960(13) 0.475877(7)
O15 O 0.499073(4) 0.765996(9) 0.402800(5)
O16_3 O 0.491951(8) 0.851496(17) 0.472320(9)
Co6 Co 0.585290(1) 0.782780(1) 0.404390(1)
C19_3 C 0.845420(6) 0.174360(11) 0.983710(5)
O7_2 O 0.801900(5) 0.163270(8) 0.953010(4)
O8_2 O 0.890700(4) 0.220510(7) 0.974510(3)
Co4_2 Co 0.908383(1) 0.283240(1) 0.907245(1)
Co8_2 Co 0.746970(1) 0.250130(1) 0.904730(1)
H26_3 H 0.7653 0.9798 0.1025
C26_3 C 0.843910(4) 0.970750(5) 0.178370(2)
C27_3 C 0.790260(4) 0.961600(6) 0.206360(2)
H29_3 H 0.7560 0.9893 0.1921
C28_3 C 0.786250(5) 0.915770(7) 0.251770(3)
H30_3 H 0.7500 0.9099 0.2675
C29_3 C 0.840010(6) 0.875430(7) 0.275840(3)
C30_3 C 0.893610(5) 0.890250(7) 0.251720(3)
H31_3 H 0.9283 0.8672 0.2678
C31_3 C 0.897530(4) 0.939630(6) 0.203060(2)
H32_3 H 0.9340 0.9507 0.1884
C32_3 C 0.838910(6) 0.821410(11) 0.326730(6)
C34_3 C 0.678180(2) 0.024920(3) 0.388270(2)
C35_3 C 0.644310(2) 0.104330(3) 0.376130(2)
H33_3 H 0.6036 0.0987 0.3701
C36_3 C 0.671360(2) 0.192090(3) 0.373070(2)
H34_3 H 0.6487 0.2452 0.3649
C37_3 C 0.732280(2) 0.200450(3) 0.382150(2)
C38_3 C 0.766150(2) 0.121050(3) 0.394290(3)
H35_3 H 0.8069 0.1266 0.4004
C39_3 C 0.739100(2) 0.033290(3) 0.397350(2)
C40_3 C 0.759950(3) 0.298720(3) 0.383890(3)
C41_3 C 0.727700(3) 0.376030(3) 0.398160(3)
H37_3 H 0.6877 0.3685 0.4047
C42_3 C 0.753440(4) 0.467060(3) 0.403290(4)
H38_3 H 0.7313 0.5185 0.4138
C43_3 C 0.810980(4) 0.476220(4) 0.392350(4)
C44_3 C 0.841750(3) 0.397010(4) 0.377200(5)
H39_3 H 0.8815 0.4044 0.3697
C45_3 C 0.818040(3) 0.308940(4) 0.372520(4)
H40_3 H 0.8406 0.2580 0.3620
C46_3 C 0.842340(6) 0.569780(9) 0.398320(6)
Co1_2 Co 0.908383(1) 0.716760(1) 0.407245(1)
O3_2 O 0.814230(5) 0.640410(6) 0.408890(4)
O4_3 O 0.897040(5) 0.575890(7) 0.395720(5)
O5_2 O 0.791120(5) 0.803700(10) 0.342040(4)
O6_3 O 0.887870(4) 0.792070(8) 0.343380(4)
O9_3 O 0.995693(5) 0.733388(8) 0.402943(4)
Co7_2 Co 0.746970(1) 0.749870(1) 0.404730(1)
O20_2 O 0.890700(4) 0.779490(7) 0.474510(3)
C33_3 C 0.649230(6) 0.928230(9) 0.395460(6)
H36_3 H 0.7618 0.9802 0.4055
C47_3 C 0.645330(6) 0.330150(10) 0.828760(5)
C48_3 C 0.645120(2) 0.383490(4) 0.776850(2)
C49_3 C 0.594530(2) 0.391200(4) 0.744550(2)
H41_3 H 0.5591 0.3641 0.7544
C50_3 C 0.596910(3) 0.439390(4) 0.697550(2)
H42_3 H 0.5631 0.4446 0.6759
C51_3 C 0.649880(3) 0.479880(4) 0.682840(2)
C52_3 C 0.700470(3) 0.472160(4) 0.715140(2)
H43_3 H 0.7359 0.4992 0.7053
C53_3 C 0.698090(2) 0.423970(4) 0.762140(2)
H44_3 H 0.7319 0.4188 0.7838
C54_3 C 0.651750(4) 0.534610(5) 0.632870(2)
C55_3 C 0.702350(4) 0.531200(6) 0.603240(2)
H45_3 H 0.7359 0.4984 0.6151
C56_3 C 0.701390(5) 0.577430(7) 0.556170(2)
H46_3 H 0.7347 0.5731 0.5359
C57_3 C 0.654000(5) 0.629710(7) 0.537350(2)
C58_3 C 0.608190(5) 0.635190(6) 0.568980(3)
H47_3 H 0.5760 0.6722 0.5583
C59_3 C 0.605390(4) 0.588860(5) 0.617290(2)
H48_3 H 0.5725 0.5955 0.6378
C60_3 C 0.657920(6) 0.684580(10) 0.486970(5)
O1_3 O 0.679370(4) 0.856770(7) 0.402580(4)
O2_3 O 0.594270(4) 0.925370(7) 0.392430(4)
O11_2 O 0.600550(4) 0.288820(7) 0.838690(3)
O12_2 O 0.692140(5) 0.336140(8) 0.856600(4)
O13_3 O 0.608300(5) 0.720840(8) 0.472950(4)
O14_3 O 0.703730(5) 0.689090(10) 0.466700(4)
Co5_2 Co 0.585290(1) 0.217220(1) 0.904390(1)
O19_2 O 0.801900(5) 0.836730(8) 0.453010(4)
O21_2 O 0.600550(4) 0.711180(7) 0.338690(3)
O22_2 O 0.692140(5) 0.663860(8) 0.356600(4)
C5_4 C 0.027996(8) 0.295854(14) 0.938237(7)
C6_4 C 0.130949(2) 0.310759(4) 0.976769(3)
C7_4 C 0.191597(2) 0.295861(4) 0.973272(3)
C8_4 C 0.214013(2) 0.259245(5) 0.927803(3)
C9_4 C 0.175782(3) 0.237526(7) 0.885830(3)
H19_4 H 0.1908 0.2130 0.8554
C10_4 C 0.115134(3) 0.252424(7) 0.889326(3)
H20_4 H 0.0896 0.2379 0.8612
C11_4 C 0.092717(2) 0.289040(5) 0.934796(3)
C12_4 C 0.403721(3) 0.210088(8) 0.932666(5)
C13_4 C 0.370584(2) 0.191820(6) 0.976124(5)
C14_4 C 0.309764(2) 0.208148(5) 0.974260(4)
C15_4 C 0.282082(2) 0.242739(6) 0.928938(4)
C16_4 C 0.315219(3) 0.261006(8) 0.885478(4)
H23_4 H 0.2967 0.2842 0.8552
C17_4 C 0.376038(3) 0.244681(9) 0.887341(5)
H24_4 H 0.3982 0.2569 0.8583
C18_4 C 0.471837(4) 0.211839(16) 0.934135(10)
O10_4 O 0.008388(7) 0.344040(13) 0.975877(7)
O15_2 O 0.499073(4) 0.234004(9) 0.902800(5)
O16_4 O 0.491951(8) 0.148504(17) 0.972320(9)
C47_4 C 0.645330(6) 0.669850(10) 0.328760(5)
C48_4 C 0.645120(2) 0.616510(4) 0.276850(2)
C49_4 C 0.594530(2) 0.608800(4) 0.244550(2)
H41_4 H 0.5591 0.6359 0.2544
C50_4 C 0.596910(3) 0.560610(4) 0.197550(2)
H42_4 H 0.5631 0.5554 0.1759
C51_4 C 0.649880(3) 0.520120(4) 0.182840(2)
C52_4 C 0.700470(3) 0.527840(4) 0.215140(2)
H43_4 H 0.7359 0.5008 0.2053
C53_4 C 0.698090(2) 0.576030(4) 0.262140(2)
H44_4 H 0.7319 0.5812 0.2838
C54_4 C 0.651750(4) 0.465390(5) 0.132870(2)
C55_4 C 0.702350(4) 0.468800(6) 0.103240(2)
H45_4 H 0.7359 0.5016 0.1151
C56_4 C 0.701390(5) 0.422570(7) 0.056170(2)
H46_4 H 0.7347 0.4269 0.0359
C57_4 C 0.654000(5) 0.370290(7) 0.037350(2)
C58_4 C 0.608190(5) 0.364810(6) 0.068980(3)
H47_4 H 0.5760 0.3278 0.0583
C59_4 C 0.605390(4) 0.411140(5) 0.117290(2)
H48_4 H 0.5725 0.4045 0.1378
C33_4 C 0.649230(6) 0.071770(9) 0.895460(6)
H36_4 H 0.7618 0.0198 0.9055
C60_4 C 0.657920(6) 0.315420(10) 0.986970(5)
O1_4 O 0.679370(4) 0.143230(7) 0.902580(4)
O2_4 O 0.594270(4) 0.074630(7) 0.892430(4)
O13_4 O 0.608300(5) 0.279160(8) 0.972950(4)
O14_4 O 0.703730(5) 0.310910(10) 0.966700(4)
O17_2 O 0.814230(5) 0.359590(6) 0.908890(4)
O18_2 O 0.791120(5) 0.196300(10) 0.842040(4)
H26_4 H 0.7653 0.0202 0.6025
C26_4 C 0.843910(4) 0.029250(5) 0.678370(2)
C27_4 C 0.790260(4) 0.038400(6) 0.706360(2)
H29_4 H 0.7560 0.0107 0.6921
C28_4 C 0.786250(5) 0.084230(7) 0.751770(3)
H30_4 H 0.7500 0.0901 0.7675
C29_4 C 0.840010(6) 0.124570(7) 0.775840(3)
C30_4 C 0.893610(5) 0.109750(7) 0.751720(3)
H31_4 H 0.9283 0.1328 0.7678
C31_4 C 0.897530(4) 0.060370(6) 0.703060(2)
H32_4 H 0.9340 0.0493 0.6884
C32_4 C 0.838910(6) 0.178590(11) 0.826730(6)
C34_4 C 0.678180(2) 0.975080(3) 0.888270(2)
C35_4 C 0.644310(2) 0.895670(3) 0.876130(2)
H33_4 H 0.6036 0.9013 0.8701
C36_4 C 0.671360(2) 0.807910(3) 0.873070(2)
H34_4 H 0.6487 0.7548 0.8649
C37_4 C 0.732280(2) 0.799550(3) 0.882150(2)
C38_4 C 0.766150(2) 0.878950(3) 0.894290(3)
H35_4 H 0.8069 0.8734 0.9004
C39_4 C 0.739100(2) 0.966710(3) 0.897350(2)
C40_4 C 0.759950(3) 0.701280(3) 0.883890(3)
C41_4 C 0.727700(3) 0.623970(3) 0.898160(3)
H37_4 H 0.6877 0.6315 0.9047
C42_4 C 0.753440(4) 0.532940(3) 0.903290(4)
H38_4 H 0.7313 0.4815 0.9138
C43_4 C 0.810980(4) 0.523780(4) 0.892350(4)
C44_4 C 0.841750(3) 0.602990(4) 0.877200(5)
H39_4 H 0.8815 0.5956 0.8697
C45_4 C 0.818040(3) 0.691060(4) 0.872520(4)
H40_4 H 0.8406 0.7420 0.8620
C46_4 C 0.842340(6) 0.430220(9) 0.898320(6)
O4_4 O 0.897040(5) 0.424110(7) 0.895720(5)
O6_4 O 0.887870(4) 0.207930(8) 0.843380(4)
O9_4 O 0.995693(5) 0.266612(8) 0.902943(4)
C19_4 C 0.845420(6) 0.825640(11) 0.483710(5)
C20_2 C 0.845090(2) 0.876580(4) 0.535920(2)
C21_2 C 0.797240(2) 0.933580(4) 0.547620(2)
H25_2 H 0.7652 0.9393 0.5240
C22_2 C 0.797290(3) 0.982090(4) 0.594650(2)
C23_2 C 0.845180(3) 0.973600(4) 0.629970(2)
C24_2 C 0.893030(3) 0.916600(5) 0.618270(2)
H27_2 H 0.9251 0.9109 0.6419
C25_2 C 0.892980(2) 0.868090(4) 0.571240(2)
H28_2 H 0.9250 0.8299 0.5634
C20_3 C 0.845090(2) 0.123420(4) 0.035920(2)
C21_3 C 0.797240(2) 0.066420(4) 0.047620(2)
H25_3 H 0.7652 0.0607 0.0240
C22_3 C 0.797290(3) 0.017910(4) 0.094650(2)
C23_3 C 0.845180(3) 0.026400(4) 0.129970(2)
C24_3 C 0.893030(3) 0.083400(5) 0.118270(2)
H27_3 H 0.9251 0.0891 0.1419
C25_3 C 0.892980(2) 0.131910(4) 0.071240(2)
H28_3 H 0.9250 0.1701 0.0634
H17_4 H 0.1160 0.3353 0.0072
H18_4 H 0.2172 0.3104 0.0014
H21_4 H 0.3891 0.1687 0.0064
H22_4 H 0.2876 0.1959 0.0033
C20_4 C 0.154910(2) 0.876580(4) 0.964080(2)
C21_4 C 0.202760(2) 0.933580(4) 0.952380(2)
H25_4 H 0.2348 0.9393 0.9760
C22_4 C 0.202710(3) 0.982090(4) 0.905350(2)
C23_4 C 0.154820(3) 0.973600(4) 0.870030(2)
C24_4 C 0.106970(3) 0.916600(5) 0.881730(2)
H27_4 H 0.0749 0.9109 0.8581
C25_4 C 0.107020(2) 0.868090(4) 0.928760(2)
H28_4 H 0.0750 0.8299 0.9366
loop_
_geom_bond_atom_site_label_1
_geom_bond_atom_site_label_2
_geom_bond_site_symmetry_1
_geom_bond_site_symmetry_2
C1 H1 1_555 1_555
H2 C1 1_555 1_555
H3 C1 1_555 1_555
C2 H4 1_555 1_555
H5 C2 1_555 1_555
H6 C2 1_555 1_555
N1 C1 1_555 1_555
H7 N1 1_555 1_555
H8 N1 1_555 1_555
C2 N1 1_555 1_555
C1_2 H1_2 1_555 1_555
H2_2 C1_2 1_555 1_555
H3_2 C1_2 1_555 1_555
C2_2 H4_2 1_555 1_555
H5_2 C2_2 1_555 1_555
H6_2 C2_2 1_555 1_555
N1_2 C1_2 1_555 1_555
H7_2 N1_2 1_555 1_555
H8_2 N1_2 1_555 1_555
C2_2 N1_2 1_555 1_555
C1_3 H1_3 1_555 1_555
H2_3 C1_3 1_555 1_555
H3_3 C1_3 1_555 1_555
C2_3 H4_3 1_555 1_555
H5_3 C2_3 1_555 1_555
H6_3 C2_3 1_555 1_555
N1_3 C1_3 1_555 1_555
H7_3 N1_3 1_555 1_555
H8_3 N1_3 1_555 1_555
C2_3 N1_3 1_555 1_555
C1_4 H1_4 1_555 1_555
H2_4 C1_4 1_555 1_555
H3_4 C1_4 1_555 1_555
C2_4 H4_4 1_555 1_555
H5_4 C2_4 1_555 1_555
H6_4 C2_4 1_555 1_555
N1_4 C1_4 1_555 1_555
H7_4 N1_4 1_555 1_555
H8_4 N1_4 1_555 1_555
C2_4 N1_4 1_555 1_555
C3 H9 1_555 1_555
H10 C3 1_555 1_555
H11 C3 1_555 1_555
N2 C3 1_555 1_555
H12 N2 1_555 1_555
H13 N2 1_555 1_555
C4 N2 1_555 1_555
H15 C4 1_555 1_555
C3_2 H9_2 1_555 1_555
H10_2 C3_2 1_555 1_555
H11_2 C3_2 1_555 1_555
N2_2 C3_2 1_555 1_555
H12_2 N2_2 1_555 1_555
H13_2 N2_2 1_555 1_555
C4_2 N2_2 1_555 1_555
H15_2 C4_2 1_555 1_555
C3_3 H9_3 1_555 1_555
H10_3 C3_3 1_555 1_555
H11_3 C3_3 1_555 1_555
N2_3 C3_3 1_555 1_555
H12_3 N2_3 1_555 1_555
H13_3 N2_3 1_555 1_555
C4_3 N2_3 1_555 1_555
H15_3 C4_3 1_555 1_555
C3_4 H9_4 1_555 1_555
H10_4 C3_4 1_555 1_555
H11_4 C3_4 1_555 1_555
N2_4 C3_4 1_555 1_555
H12_4 N2_4 1_555 1_555
H13_4 N2_4 1_555 1_555
C4_4 N2_4 1_555 1_555
H15_4 C4_4 1_555 1_555
C19 C20 1_555 1_555
C20 C21 1_555 1_555
C21 H25 1_555 1_555
C22 C21 1_555 1_555
C23 C22 1_555 1_555
C24 C23 1_555 1_555
H27 C24 1_555 1_555
C25 C20 1_555 1_555
H28 C25 1_555 1_555
O7 C19 1_555 1_555
O8 C19 1_555 1_555
Co4 O8 1_555 1_555
Co8 O7 1_555 1_555
C24 C25 1_555 1_555
C27 C26 1_555 1_555
H29 C27 1_555 1_555
C28 C27 1_555 1_555
H30 C28 1_555 1_555
C29 C28 1_555 1_555
C30 C29 1_555 1_555
H31 C30 1_555 1_555
C31 C26 1_555 1_555
H32 C31 1_555 1_555
C32 C29 1_555 1_555
C34 C35 1_555 1_555
C35 H33 1_555 1_555
C36 C35 1_555 1_555
H34 C36 1_555 1_555
C37 C36 1_555 1_555
C38 C37 1_555 1_555
H35 C38 1_555 1_555
C39 C34 1_555 1_555
C40 C37 1_555 1_555
C41 C40 1_555 1_555
H37 C41 1_555 1_555
C42 C41 1_555 1_555
H38 C42 1_555 1_555
C43 C42 1_555 1_555
C44 C43 1_555 1_555
H39 C44 1_555 1_555
C45 C40 1_555 1_555
H40 C45 1_555 1_555
C46 C43 1_555 1_555
Co1 O4 1_555 1_555
O3 C46 1_555 1_555
O4 C46 1_555 1_555
O5 C32 1_555 1_555
O6 C32 1_555 1_555
Co7 O3 1_555 1_555
O20 Co1 1_555 1_555
C30 C31 1_555 1_555
C38 C39 1_555 1_555
C44 C45 1_555 1_555
Co1 O6 1_555 1_555
Co1 O9 1_555 1_555
O5 Co7 1_555 1_555
Co2 O2 1_555 1_555
Co7 O1 1_555 1_555
O1 C33 1_555 1_555
O2 C33 1_555 1_555
O13 C60 1_555 1_555
O14 C60 1_555 1_555
O19 Co7 1_555 1_555
O21 Co2 1_555 1_555
O22 Co7 1_555 1_555
O23 Co2 1_555 1_555
Co2 O13 1_555 1_555
Co7 O14 1_555 1_555
C47 C48 1_555 1_555
C48 C49 1_555 1_555
C49 H41 1_555 1_555
C50 C49 1_555 1_555
H42 C50 1_555 1_555
C51 C50 1_555 1_555
C52 C51 1_555 1_555
H43 C52 1_555 1_555
C53 C48 1_555 1_555
H44 C53 1_555 1_555
C54 C51 1_555 1_555
C55 C54 1_555 1_555
H45 C55 1_555 1_555
C56 C55 1_555 1_555
H46 C56 1_555 1_555
C57 C56 1_555 1_555
C58 C57 1_555 1_555
H47 C58 1_555 1_555
C59 C54 1_555 1_555
H48 C59 1_555 1_555
O11 C47 1_555 1_555
O12 C47 1_555 1_555
Co5 O11 1_555 1_555
Co8 O12 1_555 1_555
C52 C53 1_555 1_555
C58 C59 1_555 1_555
C5 C11 1_555 1_555
C7 C6 1_555 1_555
C8 C7 1_555 1_555
C9 C8 1_555 1_555
H19 C9 1_555 1_555
C10 C9 1_555 1_555
H20 C10 1_555 1_555
C11 C6 1_555 1_555
C12 C13 1_555 1_555
C14 C13 1_555 1_555
C15 C8 1_555 1_555
C16 C15 1_555 1_555
H23 C16 1_555 1_555
C17 C12 1_555 1_555
H24 C17 1_555 1_555
C18 C12 1_555 1_555
O10 C5 1_555 1_555
O23 C18 1_555 1_555
O16 C18 1_555 1_555
C10 C11 1_555 1_555
C14 C15 1_555 1_555
C16 C17 1_555 1_555
C47_2 C48_2 1_555 1_555
C48_2 C49_2 1_555 1_555
C49_2 H41_2 1_555 1_555
C50_2 C49_2 1_555 1_555
H42_2 C50_2 1_555 1_555
C51_2 C50_2 1_555 1_555
C52_2 C51_2 1_555 1_555
H43_2 C52_2 1_555 1_555
C53_2 C48_2 1_555 1_555
H44_2 C53_2 1_555 1_555
C54_2 C51_2 1_555 1_555
C55_2 C54_2 1_555 1_555
H45_2 C55_2 1_555 1_555
C56_2 C55_2 1_555 1_555
H46_2 C56_2 1_555 1_555
C57_2 C56_2 1_555 1_555
C58_2 C57_2 1_555 1_555
H47_2 C58_2 1_555 1_555
C59_2 C54_2 1_555 1_555
H48_2 C59_2 1_555 1_555
C60_2 C57_2 1_555 1_555
Co5 O2_2 1_555 1_555
Co8 O1_2 1_555 1_555
O1_2 C33_2 1_555 1_555
O2_2 C33_2 1_555 1_555
O21 C47_2 1_555 1_555
O22 C47_2 1_555 1_555
O13_2 C60_2 1_555 1_555
O14_2 C60_2 1_555 1_555
O17 Co8 1_555 1_555
O18 Co8 1_555 1_555
O23_2 Co5 1_555 1_555
C52_2 C53_2 1_555 1_555
C58_2 C59_2 1_555 1_555
Co5 O13_2 1_555 1_555
Co8 O14_2 1_555 1_555
C27_2 C26_2 1_555 1_555
H29_2 C27_2 1_555 1_555
C28_2 C27_2 1_555 1_555
H30_2 C28_2 1_555 1_555
C29_2 C28_2 1_555 1_555
C30_2 C29_2 1_555 1_555
H31_2 C30_2 1_555 1_555
C31_2 C26_2 1_555 1_555
H32_2 C31_2 1_555 1_555
C32_2 C29_2 1_555 1_555
C34_2 C35_2 1_555 1_555
C35_2 H33_2 1_555 1_555
C36_2 C35_2 1_555 1_555
H34_2 C36_2 1_555 1_555
C37_2 C36_2 1_555 1_555
C38_2 C37_2 1_555 1_555
H35_2 C38_2 1_555 1_555
C39_2 C34_2 1_555 1_555
C40_2 C37_2 1_555 1_555
C41_2 C40_2 1_555 1_555
H37_2 C41_2 1_555 1_555
C42_2 C41_2 1_555 1_555
H38_2 C42_2 1_555 1_555
C43_2 C42_2 1_555 1_555
C44_2 C43_2 1_555 1_555
H39_2 C44_2 1_555 1_555
C45_2 C40_2 1_555 1_555
H40_2 C45_2 1_555 1_555
C46_2 C43_2 1_555 1_555
Co4 O4_2 1_555 1_555
O17 C46_2 1_555 1_555
O4_2 C46_2 1_555 1_555
O18 C32_2 1_555 1_555
O6_2 C32_2 1_555 1_555
C30_2 C31_2 1_555 1_555
C38_2 C39_2 1_555 1_555
C44_2 C45_2 1_555 1_555
Co4 O6_2 1_555 1_555
Co4 O9_2 1_555 1_555
O19 C19_2 1_555 1_555
O20 C19_2 1_555 1_555
C5_2 C11_2 1_555 1_555
C6_2 H17 1_555 1_555
C7_2 C6_2 1_555 1_555
H18 C7_2 1_555 1_555
C8_2 C7_2 1_555 1_555
C9_2 C8_2 1_555 1_555
H19_2 C9_2 1_555 1_555
C10_2 C9_2 1_555 1_555
H20_2 C10_2 1_555 1_555
C11_2 C6_2 1_555 1_555
C12_2 C13_2 1_555 1_555
C13_2 H21 1_555 1_555
C14_2 C13_2 1_555 1_555
H22 C14_2 1_555 1_555
C15_2 C8_2 1_555 1_555
C16_2 C15_2 1_555 1_555
H23_2 C16_2 1_555 1_555
C17_2 C12_2 1_555 1_555
H24_2 C17_2 1_555 1_555
C18_2 C12_2 1_555 1_555
O10_2 C5_2 1_555 1_555
O23_2 C18_2 1_555 1_555
O16_2 C18_2 1_555 1_555
C10_2 C11_2 1_555 1_555
C14_2 C15_2 1_555 1_555
C16_2 C17_2 1_555 1_555
C5_3 C11_3 1_555 1_555
C6_3 H17_3 1_555 1_555
C7_3 C6_3 1_555 1_555
H18_3 C7_3 1_555 1_555
C8_3 C7_3 1_555 1_555
C9_3 C8_3 1_555 1_555
H19_3 C9_3 1_555 1_555
C10_3 C9_3 1_555 1_555
H20_3 C10_3 1_555 1_555
C11_3 C6_3 1_555 1_555
C12_3 C13_3 1_555 1_555
C13_3 H21_3 1_555 1_555
C14_3 C13_3 1_555 1_555
H22_3 C14_3 1_555 1_555
C15_3 C8_3 1_555 1_555
C16_3 C15_3 1_555 1_555
H23_3 C16_3 1_555 1_555
C17_3 C12_3 1_555 1_555
H24_3 C17_3 1_555 1_555
C18_3 C12_3 1_555 1_555
O10_3 C5_3 1_555 1_555
O15 C18_3 1_555 1_555
O16_3 C18_3 1_555 1_555
Co6 O15 1_555 1_555
C10_3 C11_3 1_555 1_555
C14_3 C15_3 1_555 1_555
C16_3 C17_3 1_555 1_555
O7_2 C19_3 1_555 1_555
O8_2 C19_3 1_555 1_555
Co4_2 O8_2 1_555 1_555
Co8_2 O7_2 1_555 1_555
C27_3 C26_3 1_555 1_555
H29_3 C27_3 1_555 1_555
C28_3 C27_3 1_555 1_555
H30_3 C28_3 1_555 1_555
C29_3 C28_3 1_555 1_555
C30_3 C29_3 1_555 1_555
H31_3 C30_3 1_555 1_555
C31_3 C26_3 1_555 1_555
H32_3 C31_3 1_555 1_555
C32_3 C29_3 1_555 1_555
C34_3 C35_3 1_555 1_555
C35_3 H33_3 1_555 1_555
C36_3 C35_3 1_555 1_555
H34_3 C36_3 1_555 1_555
C37_3 C36_3 1_555 1_555
C38_3 C37_3 1_555 1_555
H35_3 C38_3 1_555 1_555
C39_3 C34_3 1_555 1_555
C40_3 C37_3 1_555 1_555
C41_3 C40_3 1_555 1_555
H37_3 C41_3 1_555 1_555
C42_3 C41_3 1_555 1_555
H38_3 C42_3 1_555 1_555
C43_3 C42_3 1_555 1_555
C44_3 C43_3 1_555 1_555
H39_3 C44_3 1_555 1_555
C45_3 C40_3 1_555 1_555
H40_3 C45_3 1_555 1_555
C46_3 C43_3 1_555 1_555
Co1_2 O4_3 1_555 1_555
O3_2 C46_3 1_555 1_555
O4_3 C46_3 1_555 1_555
O5_2 C32_3 1_555 1_555
O6_3 C32_3 1_555 1_555
Co7_2 O3_2 1_555 1_555
O20_2 Co1_2 1_555 1_555
C30_3 C31_3 1_555 1_555
C38_3 C39_3 1_555 1_555
C44_3 C45_3 1_555 1_555
Co1_2 O6_3 1_555 1_555
Co1_2 O9_3 1_555 1_555
O5_2 Co7_2 1_555 1_555
C47_3 C48_3 1_555 1_555
C48_3 C49_3 1_555 1_555
C49_3 H41_3 1_555 1_555
C50_3 C49_3 1_555 1_555
H42_3 C50_3 1_555 1_555
C51_3 C50_3 1_555 1_555
C52_3 C51_3 1_555 1_555
H43_3 C52_3 1_555 1_555
C53_3 C48_3 1_555 1_555
H44_3 C53_3 1_555 1_555
C54_3 C51_3 1_555 1_555
C55_3 C54_3 1_555 1_555
H45_3 C55_3 1_555 1_555
C56_3 C55_3 1_555 1_555
H46_3 C56_3 1_555 1_555
C57_3 C56_3 1_555 1_555
C58_3 C57_3 1_555 1_555
H47_3 C58_3 1_555 1_555
C59_3 C54_3 1_555 1_555
H48_3 C59_3 1_555 1_555
C60_3 C57_3 1_555 1_555
Co6 O2_3 1_555 1_555
Co7_2 O1_3 1_555 1_555
O1_3 C33_3 1_555 1_555
O2_3 C33_3 1_555 1_555
O11_2 C47_3 1_555 1_555
O12_2 C47_3 1_555 1_555
O13_3 C60_3 1_555 1_555
O14_3 C60_3 1_555 1_555
Co5_2 O11_2 1_555 1_555
Co8_2 O12_2 1_555 1_555
O19_2 Co7_2 1_555 1_555
O21_2 Co6 1_555 1_555
O22_2 Co7_2 1_555 1_555
C52_3 C53_3 1_555 1_555
C58_3 C59_3 1_555 1_555
Co6 O13_3 1_555 1_555
Co7_2 O14_3 1_555 1_555
C5_4 C11_4 1_555 1_555
C7_4 C6_4 1_555 1_555
C8_4 C7_4 1_555 1_555
C9_4 C8_4 1_555 1_555
H19_4 C9_4 1_555 1_555
C10_4 C9_4 1_555 1_555
H20_4 C10_4 1_555 1_555
C11_4 C6_4 1_555 1_555
C12_4 C13_4 1_555 1_555
C14_4 C13_4 1_555 1_555
C15_4 C8_4 1_555 1_555
C16_4 C15_4 1_555 1_555
H23_4 C16_4 1_555 1_555
C17_4 C12_4 1_555 1_555
H24_4 C17_4 1_555 1_555
C18_4 C12_4 1_555 1_555
O10_4 C5_4 1_555 1_555
O15_2 C18_4 1_555 1_555
O16_4 C18_4 1_555 1_555
Co5_2 O15_2 1_555 1_555
C10_4 C11_4 1_555 1_555
C14_4 C15_4 1_555 1_555
C16_4 C17_4 1_555 1_555
C47_4 C48_4 1_555 1_555
C48_4 C49_4 1_555 1_555
C49_4 H41_4 1_555 1_555
C50_4 C49_4 1_555 1_555
H42_4 C50_4 1_555 1_555
C51_4 C50_4 1_555 1_555
C52_4 C51_4 1_555 1_555
H43_4 C52_4 1_555 1_555
C53_4 C48_4 1_555 1_555
H44_4 C53_4 1_555 1_555
C54_4 C51_4 1_555 1_555
C55_4 C54_4 1_555 1_555
H45_4 C55_4 1_555 1_555
C56_4 C55_4 1_555 1_555
H46_4 C56_4 1_555 1_555
C57_4 C56_4 1_555 1_555
C58_4 C57_4 1_555 1_555
H47_4 C58_4 1_555 1_555
C59_4 C54_4 1_555 1_555
H48_4 C59_4 1_555 1_555
O21_2 C47_4 1_555 1_555
O22_2 C47_4 1_555 1_555
C52_4 C53_4 1_555 1_555
C58_4 C59_4 1_555 1_555
Co5_2 O2_4 1_555 1_555
Co8_2 O1_4 1_555 1_555
O1_4 C33_4 1_555 1_555
O2_4 C33_4 1_555 1_555
O13_4 C60_4 1_555 1_555
O14_4 C60_4 1_555 1_555
O17_2 Co8_2 1_555 1_555
O18_2 Co8_2 1_555 1_555
Co5_2 O13_4 1_555 1_555
Co8_2 O14_4 1_555 1_555
C27_4 C26_4 1_555 1_555
H29_4 C27_4 1_555 1_555
C28_4 C27_4 1_555 1_555
H30_4 C28_4 1_555 1_555
C29_4 C28_4 1_555 1_555
C30_4 C29_4 1_555 1_555
H31_4 C30_4 1_555 1_555
C31_4 C26_4 1_555 1_555
H32_4 C31_4 1_555 1_555
C32_4 C29_4 1_555 1_555
C34_4 C35_4 1_555 1_555
C35_4 H33_4 1_555 1_555
C36_4 C35_4 1_555 1_555
H34_4 C36_4 1_555 1_555
C37_4 C36_4 1_555 1_555
C38_4 C37_4 1_555 1_555
H35_4 C38_4 1_555 1_555
C39_4 C34_4 1_555 1_555
C40_4 C37_4 1_555 1_555
C41_4 C40_4 1_555 1_555
H37_4 C41_4 1_555 1_555
C42_4 C41_4 1_555 1_555
H38_4 C42_4 1_555 1_555
C43_4 C42_4 1_555 1_555
C44_4 C43_4 1_555 1_555
H39_4 C44_4 1_555 1_555
C45_4 C40_4 1_555 1_555
H40_4 C45_4 1_555 1_555
C46_4 C43_4 1_555 1_555
Co4_2 O4_4 1_555 1_555
O17_2 C46_4 1_555 1_555
O4_4 C46_4 1_555 1_555
O18_2 C32_4 1_555 1_555
O6_4 C32_4 1_555 1_555
C30_4 C31_4 1_555 1_555
C38_4 C39_4 1_555 1_555
C44_4 C45_4 1_555 1_555
Co4_2 O6_4 1_555 1_555
Co4_2 O9_4 1_555 1_555
C19_4 C20_2 1_555 1_555
C20_2 C21_2 1_555 1_555
C21_2 H25_2 1_555 1_555
C22_2 C21_2 1_555 1_555
C23_2 C22_2 1_555 1_555
C24_2 C23_2 1_555 1_555
H27_2 C24_2 1_555 1_555
C25_2 C20_2 1_555 1_555
H28_2 C25_2 1_555 1_555
O19_2 C19_4 1_555 1_555
O20_2 C19_4 1_555 1_555
C24_2 C25_2 1_555 1_555
C20_3 C21_3 1_555 1_555
C21_3 H25_3 1_555 1_555
C22_3 C21_3 1_555 1_555
C23_3 C22_3 1_555 1_555
C24_3 C23_3 1_555 1_555
H27_3 C24_3 1_555 1_555
C25_3 C20_3 1_555 1_555
H28_3 C25_3 1_555 1_555
C24_3 C25_3 1_555 1_555
C20_4 C21_4 1_555 1_555
C21_4 H25_4 1_555 1_555
C22_4 C21_4 1_555 1_555
C23_4 C22_4 1_555 1_555
C24_4 C23_4 1_555 1_555
H27_4 C24_4 1_555 1_555
C25_4 C20_4 1_555 1_555
H28_4 C25_4 1_555 1_555
C24_4 C25_4 1_555 1_555

#END
