
###############################################################################
#
# This file contains modified crystal structure data generated from the
# MOF subset of the Cambridge Structural Database (CSD) v543 
# hosted by the Cambridge Crystallographic Data Centre (CCDC).
#
# This work is licensed under the Creative Commons
# Attribution-NonCommercial-ShareAlike 4.0 International License.
# To view a copy of this license, visit
# http://creativecommons.org/licenses/by-nc-sa/4.0/
# or send a letter to
# Creative Commons, PO Box 1866, Mountain View, CA 94042, USA.
#
# CIF created using the CSD Python API on 29 September 2022
# The structure has been converted into the P1 space group
# The structure has a 3D framework
# The original CSD entry MOXDIN is in the monoclinic crystal system
# The framework has been calculated to contain at least 10.0% void space
# The void calculation uses a probe of radius 1.32A, grid spacing 0.4
# The framework is charged, counterions have been retained in the structure
# H atom positions have been added when not included in the experimental data
#
###############################################################################

data_MOXDIN
_chemical_formula_moiety         '(C144 H128 Co12 N8 O61)n'
_symmetry_cell_setting           triclinic
_symmetry_space_group_name_H-M   'P 1'
_symmetry_Int_Tables_number      1
_space_group_name_Hall           'P 1'
loop_
_symmetry_equiv_pos_site_id
_symmetry_equiv_pos_as_xyz
1 x,y,z
_cell_length_a                   32.997(7)
_cell_length_b                   9.7187(19)
_cell_length_c                   18.392(4)
_cell_angle_alpha                90
_cell_angle_beta                 92.25(3)
_cell_angle_gamma                90
_cell_volume                     5893.55
loop_
_atom_site_label
_atom_site_type_symbol
_atom_site_fract_x
_atom_site_fract_y
_atom_site_fract_z
C1 C 0.193040(6) 0.15454(2) 0.374350(11)
C2 C 0.190540(6) 0.07787(2) 0.302780(11)
C3 C 0.153690(7) 0.02643(2) 0.275430(11)
H1 H 0.1298 0.0371 0.3021
C4 C 0.225410(7) 0.06220(3) 0.263750(12)
H2 H 0.2505 0.0979 0.2824
C8 C 0.296430(6) 0.00830(2) 0.041070(11)
C9 C 0.271630(6) 0.133780(19) 0.019640(11)
C11 C 0.269490(7) 0.24294(2) 0.069350(12)
H5 H 0.2829 0.2376 0.1159
O3 O 0.227370(4) 0.184580(15) 0.399900(8)
O4 O 0.159520(4) 0.180210(15) 0.402900(8)
O8 O 0.317140(5) 0.007410(17) 0.098510(9)
C26 C 0.247380(6) 0.35842(2) 0.048750(12)
H12 H 0.2452 0.4330 0.0818
Co5 Co 0.152300(1) 0.300320(3) 0.487060(1)
Co8 Co 0.2500 0.7500 0.0000
Co9 Co 0.2500 0.2500 0.5000
O20 O 0.203940(4) 0.592970(14) 0.005110(8)
C10 C 0.252620(6) 0.14158(2) 0.951250(12)
H4 H 0.2548 0.0670 0.9182
C14 C 0.465310(8) 0.07754(3) 0.99253(2)
H6 H 0.4418 0.1336 0.9879
C24 C 0.203570(6) 0.49170(2) 0.958930(11)
C25 C 0.228370(6) 0.366220(19) 0.980360(11)
C27 C 0.230510(7) 0.25706(2) 0.930650(12)
H13 H 0.2171 0.2624 0.8841
C28 C 0.579520(8) 0.12279(3) 0.987440(14)
C29 C 0.537710(6) 0.05884(3) 0.994710(13)
C31 C 0.504940(9) 0.13535(3) 0.98624(2)
H15 H 0.5076 0.2306 0.9758
Co4 Co 0.152300(1) 0.699680(3) 0.987060(1)
Co7 Co 0.652300(1) 0.199680(3) 0.987060(1)
Co8_2 Co 0.2500 0.7500 1.0000
O18 O 0.610030(5) 0.05060(2) 0.995860(12)
O19 O 0.582700(7) 0.24245(3) 0.970850(18)
O22 O 0.182860(5) 0.492590(17) 0.901490(9)
C5 C 0.223410(7) 0.99309(2) 0.196330(12)
H3 H 0.2471 0.9824 0.1692
C6 C 0.186560(7) 0.94068(2) 0.169770(12)
C7 C 0.185080(6) 0.86899(2) 0.097730(11)
C12 C 0.420480(8) 0.87721(3) 0.012560(14)
C13 C 0.462290(6) 0.94116(3) 0.005290(13)
C15 C 0.495060(9) 0.86465(3) 0.01376(2)
H7 H 0.4924 0.7694 0.0242
C16 C 0.152190(7) 0.95975(3) 0.209200(12)
H8 H 0.1269 0.9261 0.1902
O1 O 0.214280(4) 0.882740(14) 0.056660(8)
O2 O 0.152830(4) 0.802150(16) 0.081820(8)
O5 O 0.389970(5) 0.94940(2) 0.004140(12)
O6 O 0.417300(7) 0.75755(3) 0.029150(18)
C30 C 0.534690(8) 0.92246(3) 0.00747(2)
H14 H 0.5582 0.8664 0.0121
Co3 Co 0.347700(1) 0.800320(3) 0.012940(1)
O12 O 0.272630(4) 0.684580(15) 0.100100(8)
O15 O 0.340480(4) 0.680210(15) 0.097100(8)
O7 O 0.296060(4) 0.907030(14) 0.994890(8)
C17 C 0.306960(6) 0.34546(2) 0.625650(11)
C18 C 0.309460(6) 0.42213(2) 0.697220(11)
C19 C 0.346310(7) 0.47357(2) 0.724570(11)
H9 H 0.3702 0.4629 0.6979
C20 C 0.274590(7) 0.43780(3) 0.736250(12)
H10 H 0.2495 0.4021 0.7176
C21 C 0.276590(7) 0.50691(2) 0.803670(12)
H11 H 0.2529 0.5176 0.8308
C22 C 0.313440(7) 0.55932(2) 0.830230(12)
C23 C 0.314920(6) 0.63101(2) 0.902270(11)
C32 C 0.347810(7) 0.54025(3) 0.790800(12)
H16 H 0.3731 0.5739 0.8098
Co6 Co 0.347700(1) 0.199680(3) 0.512940(1)
O9 O 0.285720(4) 0.617260(14) 0.943340(8)
O10 O 0.347170(4) 0.697850(16) 0.918180(8)
O11 O 0.272630(4) 0.315420(15) 0.600100(8)
O13 O 0.227370(4) 0.815420(15) 0.899900(8)
O14 O 0.340480(4) 0.319790(15) 0.597100(8)
O16 O 0.159520(4) 0.819790(15) 0.902900(8)
O17 O 0.110030(5) 0.55060(2) 0.995860(12)
C1_2 C 0.806960(6) 0.15454(2) 0.125650(11)
C2_2 C 0.809460(6) 0.07787(2) 0.197220(11)
C3_2 C 0.846310(7) 0.02643(2) 0.224570(11)
H1_2 H 0.8702 0.0371 0.1979
C4_2 C 0.774590(7) 0.06220(3) 0.236250(12)
H2_2 H 0.7495 0.0979 0.2176
C8_2 C 0.703570(6) 0.00830(2) 0.458930(11)
C9_2 C 0.728370(6) 0.133780(19) 0.480360(11)
C10_2 C 0.747380(6) 0.14158(2) 0.548750(12)
H4_2 H 0.7452 0.0670 0.5818
C11_2 C 0.730510(7) 0.24294(2) 0.430650(12)
H5_2 H 0.7171 0.2376 0.3841
C14_2 C 0.534690(8) 0.07754(3) 0.50747(2)
H6_2 H 0.5582 0.1336 0.5121
O3_2 O 0.772630(4) 0.184580(15) 0.100100(8)
O4_2 O 0.840480(4) 0.180210(15) 0.097100(8)
O8_2 O 0.682860(5) 0.007410(17) 0.401490(9)
C24_2 C 0.796430(6) 0.49170(2) 0.541070(11)
C25_2 C 0.771630(6) 0.366220(19) 0.519640(11)
C26_2 C 0.752620(6) 0.35842(2) 0.451250(12)
H12_2 H 0.7548 0.4330 0.4182
C27_2 C 0.769490(7) 0.25706(2) 0.569350(12)
H13_2 H 0.7829 0.2624 0.6159
C28_2 C 0.420480(8) 0.12279(3) 0.512560(14)
C29_2 C 0.462290(6) 0.05884(3) 0.505290(13)
C31_2 C 0.495060(9) 0.13535(3) 0.51376(2)
H15_2 H 0.4924 0.2306 0.5242
Co4_2 Co 0.847700(1) 0.699680(3) 0.512940(1)
Co5_2 Co 0.847700(1) 0.300320(3) 0.012940(1)
Co8_3 Co 0.7500 0.7500 0.5000
Co9_2 Co 0.7500 0.2500 0.0000
O18_2 O 0.389970(5) 0.05060(2) 0.504140(12)
O19_2 O 0.417300(7) 0.24245(3) 0.529150(18)
O20_2 O 0.796060(4) 0.592970(14) 0.494890(8)
O22_2 O 0.817140(5) 0.492590(17) 0.598510(9)
Co9_3 Co 0.7500 0.2500 1.0000
C5_2 C 0.776590(7) 0.99309(2) 0.303670(12)
H3_2 H 0.7529 0.9824 0.3308
C6_2 C 0.813440(7) 0.94068(2) 0.330230(12)
C7_2 C 0.814920(6) 0.86899(2) 0.402270(11)
C12_2 C 0.579520(8) 0.87721(3) 0.487440(14)
C13_2 C 0.537710(6) 0.94116(3) 0.494710(13)
C15_2 C 0.504940(9) 0.86465(3) 0.48624(2)
H7_2 H 0.5076 0.7694 0.4758
C16_2 C 0.847810(7) 0.95975(3) 0.290800(12)
H8_2 H 0.8731 0.9261 0.3098
O1_2 O 0.785720(4) 0.882740(14) 0.443340(8)
O2_2 O 0.847170(4) 0.802150(16) 0.418180(8)
O5_2 O 0.610030(5) 0.94940(2) 0.495860(12)
O6_2 O 0.582700(7) 0.75755(3) 0.470850(18)
O7_2 O 0.703940(4) 0.907030(14) 0.505110(8)
C17_2 C 0.693040(6) 0.34546(2) 0.874350(11)
C18_2 C 0.690540(6) 0.42213(2) 0.802780(11)
C19_2 C 0.653690(7) 0.47357(2) 0.775430(11)
H9_2 H 0.6298 0.4629 0.8021
C20_2 C 0.725410(7) 0.43780(3) 0.763750(12)
H10_2 H 0.7505 0.4021 0.7824
C21_2 C 0.723410(7) 0.50691(2) 0.696330(12)
H11_2 H 0.7471 0.5176 0.6692
C22_2 C 0.686560(7) 0.55932(2) 0.669770(12)
C23_2 C 0.685080(6) 0.63101(2) 0.597730(11)
C30_2 C 0.465310(8) 0.92246(3) 0.49253(2)
H14_2 H 0.4418 0.8664 0.4879
C32_2 C 0.652190(7) 0.54025(3) 0.709200(12)
H16_2 H 0.6269 0.5739 0.6902
Co3_2 Co 0.652300(1) 0.800320(3) 0.487060(1)
O9_2 O 0.714280(4) 0.617260(14) 0.556660(8)
O10_2 O 0.652830(4) 0.697850(16) 0.581820(8)
O11_2 O 0.727370(4) 0.315420(15) 0.899900(8)
O12_2 O 0.727370(4) 0.684580(15) 0.399900(8)
O13_2 O 0.772630(4) 0.815420(15) 0.600100(8)
O14_2 O 0.659520(4) 0.319790(15) 0.902900(8)
O15_2 O 0.659520(4) 0.680210(15) 0.402900(8)
O16_2 O 0.840480(4) 0.819790(15) 0.597100(8)
O17_2 O 0.889970(5) 0.55060(2) 0.504140(12)
C30_3 C 0.034690(8) 0.42246(3) 0.00747(2)
H14_3 H 0.0582 0.3664 0.0121
C28_3 C 0.079520(8) 0.62279(3) 0.987440(14)
C29_3 C 0.037710(6) 0.55884(3) 0.994710(13)
C31_3 C 0.004940(9) 0.63535(3) 0.98624(2)
H15_3 H 0.0076 0.7306 0.9758
O19_3 O 0.082700(7) 0.74245(3) 0.970850(18)
O20_3 O 0.703940(4) 0.092970(14) 0.005110(8)
C1_3 C 0.693040(6) 0.65454(2) 0.374350(11)
C2_3 C 0.690540(6) 0.57787(2) 0.302780(11)
C3_3 C 0.653690(7) 0.52643(2) 0.275430(11)
H1_3 H 0.6298 0.5371 0.3021
C4_3 C 0.725410(7) 0.56220(3) 0.263750(12)
H2_3 H 0.7505 0.5979 0.2824
C5_3 C 0.723410(7) 0.49309(2) 0.196330(12)
H3_3 H 0.7471 0.4824 0.1692
C6_3 C 0.686560(7) 0.44068(2) 0.169770(12)
C7_3 C 0.685080(6) 0.36899(2) 0.097730(11)
C8_3 C 0.796430(6) 0.50830(2) 0.041070(11)
C9_3 C 0.771630(6) 0.633780(19) 0.019640(11)
C11_3 C 0.769490(7) 0.74294(2) 0.069350(12)
H5_3 H 0.7829 0.7376 0.1159
C12_3 C 0.920480(8) 0.37721(3) 0.012560(14)
C13_3 C 0.962290(6) 0.44116(3) 0.005290(13)
C15_3 C 0.995060(9) 0.36465(3) 0.01376(2)
H7_3 H 0.9924 0.2694 0.0242
C16_3 C 0.652190(7) 0.45975(3) 0.209200(12)
H8_3 H 0.6269 0.4261 0.1902
O1_3 O 0.714280(4) 0.382740(14) 0.056660(8)
O2_3 O 0.652830(4) 0.302150(16) 0.081820(8)
O5_3 O 0.889970(5) 0.44940(2) 0.004140(12)
O6_3 O 0.917300(7) 0.25755(3) 0.029150(18)
O8_3 O 0.817140(5) 0.507410(17) 0.098510(9)
C26_3 C 0.747380(6) 0.85842(2) 0.048750(12)
H12_3 H 0.7452 0.9330 0.0818
C10_3 C 0.752620(6) 0.64158(2) 0.951250(12)
H4_3 H 0.7548 0.5670 0.9182
C14_3 C 0.965310(8) 0.57754(3) 0.99253(2)
H6_3 H 0.9418 0.6336 0.9879
O7_3 O 0.796060(4) 0.407030(14) 0.994890(8)
C21_3 C 0.776590(7) 0.00691(2) 0.803670(12)
H11_3 H 0.7529 0.0176 0.8308
C22_3 C 0.813440(7) 0.05932(2) 0.830230(12)
C23_3 C 0.814920(6) 0.13101(2) 0.902270(11)
C24_3 C 0.703570(6) 0.99170(2) 0.958930(11)
C25_3 C 0.728370(6) 0.866220(19) 0.980360(11)
C27_3 C 0.730510(7) 0.75706(2) 0.930650(12)
H13_3 H 0.7171 0.7624 0.8841
C32_3 C 0.847810(7) 0.04025(3) 0.790800(12)
H16_3 H 0.8731 0.0739 0.8098
O9_3 O 0.785720(4) 0.117260(14) 0.943340(8)
O10_3 O 0.847170(4) 0.197850(16) 0.918180(8)
O22_3 O 0.682860(5) 0.992590(17) 0.901490(9)
C17_3 C 0.806960(6) 0.84546(2) 0.625650(11)
C18_3 C 0.809460(6) 0.92213(2) 0.697220(11)
C19_3 C 0.846310(7) 0.97357(2) 0.724570(11)
H9_3 H 0.8702 0.9629 0.6979
C20_3 C 0.774590(7) 0.93780(3) 0.736250(12)
H10_3 H 0.7495 0.9021 0.7176
O20_4 O 0.296060(4) 0.092970(14) 0.494890(8)
C1_4 C 0.306960(6) 0.65454(2) 0.125650(11)
C2_4 C 0.309460(6) 0.57787(2) 0.197220(11)
C3_4 C 0.346310(7) 0.52643(2) 0.224570(11)
H1_4 H 0.3702 0.5371 0.1979
C4_4 C 0.274590(7) 0.56220(3) 0.236250(12)
H2_4 H 0.2495 0.5979 0.2176
C5_4 C 0.276590(7) 0.49309(2) 0.303670(12)
H3_4 H 0.2529 0.4824 0.3308
C6_4 C 0.313440(7) 0.44068(2) 0.330230(12)
C7_4 C 0.314920(6) 0.36899(2) 0.402270(11)
C8_4 C 0.203570(6) 0.50830(2) 0.458930(11)
C9_4 C 0.228370(6) 0.633780(19) 0.480360(11)
C10_4 C 0.247380(6) 0.64158(2) 0.548750(12)
H4_4 H 0.2452 0.5670 0.5818
C11_4 C 0.230510(7) 0.74294(2) 0.430650(12)
H5_4 H 0.2171 0.7376 0.3841
C12_4 C 0.079520(8) 0.37721(3) 0.487440(14)
C13_4 C 0.037710(6) 0.44116(3) 0.494710(13)
C14_4 C 0.034690(8) 0.57754(3) 0.50747(2)
H6_4 H 0.0582 0.6336 0.5121
C15_4 C 0.004940(9) 0.36465(3) 0.48624(2)
H7_4 H 0.0076 0.2694 0.4758
C16_4 C 0.347810(7) 0.45975(3) 0.290800(12)
H8_4 H 0.3731 0.4261 0.3098
O1_4 O 0.285720(4) 0.382740(14) 0.443340(8)
O2_4 O 0.347170(4) 0.302150(16) 0.418180(8)
O5_4 O 0.110030(5) 0.44940(2) 0.495860(12)
O6_4 O 0.082700(7) 0.25755(3) 0.470850(18)
O7_4 O 0.203940(4) 0.407030(14) 0.505110(8)
O8_4 O 0.182860(5) 0.507410(17) 0.401490(9)
C21_4 C 0.223410(7) 0.00691(2) 0.696330(12)
H11_4 H 0.2471 0.0176 0.6692
C22_4 C 0.186560(7) 0.05932(2) 0.669770(12)
C23_4 C 0.185080(6) 0.13101(2) 0.597730(11)
C24_4 C 0.296430(6) 0.99170(2) 0.541070(11)
C25_4 C 0.271630(6) 0.866220(19) 0.519640(11)
C26_4 C 0.252620(6) 0.85842(2) 0.451250(12)
H12_4 H 0.2548 0.9330 0.4182
C27_4 C 0.269490(7) 0.75706(2) 0.569350(12)
H13_4 H 0.2829 0.7624 0.6159
C32_4 C 0.152190(7) 0.04025(3) 0.709200(12)
H16_4 H 0.1269 0.0739 0.6902
O9_4 O 0.214280(4) 0.117260(14) 0.556660(8)
O10_4 O 0.152830(4) 0.197850(16) 0.581820(8)
O22_4 O 0.317140(5) 0.992590(17) 0.598510(9)
C17_4 C 0.193040(6) 0.84546(2) 0.874350(11)
C18_4 C 0.190540(6) 0.92213(2) 0.802780(11)
C19_4 C 0.153690(7) 0.97357(2) 0.775430(11)
H9_4 H 0.1298 0.9629 0.8021
C20_4 C 0.225410(7) 0.93780(3) 0.763750(12)
H10_4 H 0.2505 0.9021 0.7824
C28_4 C 0.920480(8) 0.62279(3) 0.512560(14)
C29_4 C 0.962290(6) 0.55884(3) 0.505290(13)
C30_4 C 0.965310(8) 0.42246(3) 0.49253(2)
H14_4 H 0.9418 0.3664 0.4879
C31_4 C 0.995060(9) 0.63535(3) 0.51376(2)
H15_4 H 0.9924 0.7306 0.5242
O19_4 O 0.917300(7) 0.74245(3) 0.529150(18)
C33 C 0.089570(11) 0.45654(5) 0.67849(2)
C34 C 0.109250(13) 0.60436(4) 0.785990(16)
N1 N 0.125430(7) 0.52725(3) 0.720430(14)
H17 H 0.0677267 0.534092 0.659831
H18 H 0.10082 0.401512 0.63181
H19 H 0.0749328 0.384267 0.714321
H20 H 0.13909 0.594748 0.687132
H21 H 0.145807 0.455104 0.73792
H22 H 0.0945746 0.531796 0.821609
H23 H 0.134316 0.654428 0.815804
H24 H 0.0873685 0.681621 0.767119
C33_2 C 0.910430(11) 0.45654(5) 0.82151(2)
C34_2 C 0.890750(13) 0.60436(4) 0.714010(16)
N1_2 N 0.874570(7) 0.52725(3) 0.779570(14)
H17_2 H 0.932273 0.534092 0.840169
H18_2 H 0.89918 0.401512 0.86819
H19_2 H 0.925067 0.384267 0.785679
H20_2 H 0.86091 0.594748 0.812868
H21_2 H 0.854193 0.455104 0.76208
H22_2 H 0.905425 0.531796 0.678391
H23_2 H 0.865684 0.654428 0.684196
H24_2 H 0.912632 0.681621 0.732881
C34_3 C 0.609250(13) 0.10436(4) 0.785990(16)
N1_3 N 0.625430(7) 0.02725(3) 0.720430(14)
H17_3 H 0.567727 0.0340919 0.659831
H20_3 H 0.63909 0.0947478 0.687132
H22_3 H 0.594575 0.0317956 0.821609
H23_3 H 0.634316 0.154428 0.815804
H24_3 H 0.587368 0.181621 0.767119
C33_3 C 0.589570(11) 0.95654(5) 0.67849(2)
H18_3 H 0.60082 0.901512 0.63181
H19_3 H 0.574933 0.884267 0.714321
H21_3 H 0.645807 0.955104 0.73792
C34_4 C 0.390750(13) 0.10436(4) 0.714010(16)
N1_4 N 0.374570(7) 0.02725(3) 0.779570(14)
H17_4 H 0.432273 0.0340919 0.840169
H20_4 H 0.36091 0.0947478 0.812868
H22_4 H 0.405425 0.0317956 0.678391
H23_4 H 0.365684 0.154428 0.684196
H24_4 H 0.412632 0.181621 0.732881
C33_4 C 0.410430(11) 0.95654(5) 0.82151(2)
H18_4 H 0.39918 0.901512 0.86819
H19_4 H 0.425067 0.884267 0.785679
H21_4 H 0.354193 0.955104 0.76208
C33_5 C 0.910430(11) 0.54346(5) 0.32151(2)
C34_5 C 0.890750(13) 0.39564(4) 0.214010(16)
N1_5 N 0.874570(7) 0.47275(3) 0.279570(14)
H17_5 H 0.932273 0.465908 0.340169
H18_5 H 0.89918 0.598488 0.36819
H19_5 H 0.925067 0.615733 0.285679
H20_5 H 0.86091 0.405252 0.312868
H21_5 H 0.854193 0.544896 0.26208
H22_5 H 0.905425 0.468204 0.178391
H23_5 H 0.865684 0.345572 0.184196
H24_5 H 0.912632 0.318379 0.232881
C33_6 C 0.089570(11) 0.54346(5) 0.17849(2)
C34_6 C 0.109250(13) 0.39564(4) 0.285990(16)
N1_6 N 0.125430(7) 0.47275(3) 0.220430(14)
H17_6 H 0.0677267 0.465908 0.159831
H18_6 H 0.10082 0.598488 0.13181
H19_6 H 0.0749328 0.615733 0.214321
H20_6 H 0.13909 0.405252 0.187132
H21_6 H 0.145807 0.544896 0.23792
H22_6 H 0.0945746 0.468204 0.321609
H23_6 H 0.134316 0.345572 0.315804
H24_6 H 0.0873685 0.318379 0.267119
C33_7 C 0.410430(11) 0.04346(5) 0.32151(2)
H18_7 H 0.39918 0.0984882 0.36819
H19_7 H 0.425067 0.115733 0.285679
H21_7 H 0.354193 0.0448965 0.26208
C34_7 C 0.390750(13) 0.89564(4) 0.214010(16)
N1_7 N 0.374570(7) 0.97275(3) 0.279570(14)
H17_7 H 0.432273 0.965908 0.340169
H20_7 H 0.36091 0.905252 0.312868
H22_7 H 0.405425 0.968204 0.178391
H23_7 H 0.365684 0.845572 0.184196
H24_7 H 0.412632 0.818379 0.232881
C33_8 C 0.589570(11) 0.04346(5) 0.17849(2)
H18_8 H 0.60082 0.0984882 0.13181
H19_8 H 0.574933 0.115733 0.214321
H21_8 H 0.645807 0.0448965 0.23792
C34_8 C 0.609250(13) 0.89564(4) 0.285990(16)
N1_8 N 0.625430(7) 0.97275(3) 0.220430(14)
H17_8 H 0.567727 0.965908 0.159831
H20_8 H 0.63909 0.905252 0.187132
H22_8 H 0.594575 0.968204 0.321609
H23_8 H 0.634316 0.845572 0.315804
H24_8 H 0.587368 0.818379 0.267119
loop_
_geom_bond_atom_site_label_1
_geom_bond_atom_site_label_2
_geom_bond_site_symmetry_1
_geom_bond_site_symmetry_2
C1 C2 1_555 1_555
C2 C3 1_555 1_555
C3 H1 1_555 1_555
C4 C2 1_555 1_555
H2 C4 1_555 1_555
C8 C9 1_555 1_555
C11 C9 1_555 1_555
H5 C11 1_555 1_555
O3 C1 1_555 1_555
O4 C1 1_555 1_555
O8 C8 1_555 1_555
C26 C11 1_555 1_555
H12 C26 1_555 1_555
Co5 O4 1_555 1_555
Co8 O20 1_555 1_555
Co9 O3 1_555 1_555
C10 H4 1_555 1_555
C14 H6 1_555 1_555
C24 C25 1_555 1_555
C27 C10 1_555 1_555
H13 C27 1_555 1_555
C28 C29 1_555 1_555
C31 C14 1_555 1_555
H15 C31 1_555 1_555
Co7 O18 1_555 1_555
O18 C28 1_555 1_555
O19 C28 1_555 1_555
O22 C24 1_555 1_555
C25 C27 1_555 1_555
C29 C31 1_555 1_555
H3 C5 1_555 1_555
C6 C5 1_555 1_555
C7 C6 1_555 1_555
C12 C13 1_555 1_555
C15 C13 1_555 1_555
H7 C15 1_555 1_555
H8 C16 1_555 1_555
Co8 O1 1_555 1_555
O1 C7 1_555 1_555
O2 C7 1_555 1_555
O5 C12 1_555 1_555
O6 C12 1_555 1_555
C30 C15 1_555 1_555
H14 C30 1_555 1_555
Co3 O5 1_555 1_555
O12 Co8 1_555 1_555
O15 Co3 1_555 1_555
C6 C16 1_555 1_555
C17 C18 1_555 1_555
C18 C19 1_555 1_555
C19 H9 1_555 1_555
C20 C18 1_555 1_555
H10 C20 1_555 1_555
C21 C20 1_555 1_555
H11 C21 1_555 1_555
C22 C21 1_555 1_555
C23 C22 1_555 1_555
C32 C19 1_555 1_555
H16 C32 1_555 1_555
Co6 O14 1_555 1_555
Co9 O11 1_555 1_555
O9 Co8_2 1_555 1_555
O10 C23 1_555 1_555
O11 C17 1_555 1_555
O13 Co8_2 1_555 1_555
O14 C17 1_555 1_555
O16 Co4 1_555 1_555
O17 Co4 1_555 1_555
Co8_2 O7 1_555 1_555
C22 C32 1_555 1_555
C23 O9 1_555 1_555
C1_2 C2_2 1_555 1_555
C2_2 C3_2 1_555 1_555
C3_2 H1_2 1_555 1_555
C4_2 C2_2 1_555 1_555
H2_2 C4_2 1_555 1_555
C8_2 C9_2 1_555 1_555
C9_2 C10_2 1_555 1_555
C10_2 H4_2 1_555 1_555
C11_2 C9_2 1_555 1_555
H5_2 C11_2 1_555 1_555
C14_2 H6_2 1_555 1_555
O3_2 C1_2 1_555 1_555
O4_2 C1_2 1_555 1_555
O8_2 C8_2 1_555 1_555
C24_2 C25_2 1_555 1_555
C25_2 C26_2 1_555 1_555
C26_2 C11_2 1_555 1_555
H12_2 C26_2 1_555 1_555
C27_2 C10_2 1_555 1_555
H13_2 C27_2 1_555 1_555
C28_2 C29_2 1_555 1_555
C31_2 C14_2 1_555 1_555
H15_2 C31_2 1_555 1_555
Co4_2 O20_2 1_555 1_555
Co5_2 O4_2 1_555 1_555
Co6 O18_2 1_555 1_555
Co8_3 O20_2 1_555 1_555
Co9_2 O3_2 1_555 1_555
O18_2 C28_2 1_555 1_555
O19_2 C28_2 1_555 1_555
O20_2 C24_2 1_555 1_555
O22_2 C24_2 1_555 1_555
C25_2 C27_2 1_555 1_555
C29_2 C31_2 1_555 1_555
H3_2 C5_2 1_555 1_555
C6_2 C5_2 1_555 1_555
C7_2 C6_2 1_555 1_555
C12_2 C13_2 1_555 1_555
C15_2 C13_2 1_555 1_555
H7_2 C15_2 1_555 1_555
H8_2 C16_2 1_555 1_555
Co4_2 O2_2 1_555 1_555
Co8_3 O1_2 1_555 1_555
O1_2 C7_2 1_555 1_555
O2_2 C7_2 1_555 1_555
O5_2 C12_2 1_555 1_555
O6_2 C12_2 1_555 1_555
C17_2 C18_2 1_555 1_555
C18_2 C19_2 1_555 1_555
C19_2 H9_2 1_555 1_555
C20_2 C18_2 1_555 1_555
H10_2 C20_2 1_555 1_555
C21_2 C20_2 1_555 1_555
H11_2 C21_2 1_555 1_555
C22_2 C21_2 1_555 1_555
C23_2 C22_2 1_555 1_555
C30_2 C15_2 1_555 1_555
H14_2 C30_2 1_555 1_555
C32_2 C19_2 1_555 1_555
H16_2 C32_2 1_555 1_555
Co3_2 O5_2 1_555 1_555
Co7 O14_2 1_555 1_555
Co9_3 O11_2 1_555 1_555
O9_2 Co8_3 1_555 1_555
O10_2 C23_2 1_555 1_555
O11_2 C17_2 1_555 1_555
O12_2 Co8_3 1_555 1_555
O13_2 Co8_3 1_555 1_555
O14_2 C17_2 1_555 1_555
O15_2 Co3_2 1_555 1_555
O16_2 Co4_2 1_555 1_555
O17_2 Co4_2 1_555 1_555
C6_2 C16_2 1_555 1_555
Co8_3 O7_2 1_555 1_555
O7_2 Co3_2 1_555 1_555
C22_2 C32_2 1_555 1_555
C23_2 O9_2 1_555 1_555
Co3_2 O10_2 1_555 1_555
H14_3 C30_3 1_555 1_555
C28_3 C29_3 1_555 1_555
H15_3 C31_3 1_555 1_555
O17 C28_3 1_555 1_555
O19_3 C28_3 1_555 1_555
C29_3 C31_3 1_555 1_555
Co9_2 O20_3 1_555 1_555
C1_3 C2_3 1_555 1_555
C2_3 C3_3 1_555 1_555
C3_3 H1_3 1_555 1_555
C4_3 C2_3 1_555 1_555
H2_3 C4_3 1_555 1_555
C5_3 C4_3 1_555 1_555
H3_3 C5_3 1_555 1_555
C6_3 C5_3 1_555 1_555
C7_3 C6_3 1_555 1_555
C8_3 C9_3 1_555 1_555
C11_3 C9_3 1_555 1_555
H5_3 C11_3 1_555 1_555
C12_3 C13_3 1_555 1_555
C15_3 C13_3 1_555 1_555
H7_3 C15_3 1_555 1_555
C16_3 C3_3 1_555 1_555
H8_3 C16_3 1_555 1_555
Co9_2 O1_3 1_555 1_555
O1_3 C7_3 1_555 1_555
O2_3 C7_3 1_555 1_555
O12_2 C1_3 1_555 1_555
O15_2 C1_3 1_555 1_555
O5_3 C12_3 1_555 1_555
O6_3 C12_3 1_555 1_555
O8_3 C8_3 1_555 1_555
C26_3 C11_3 1_555 1_555
H12_3 C26_3 1_555 1_555
Co5_2 O5_3 1_555 1_555
C6_3 C16_3 1_555 1_555
C10_3 H4_3 1_555 1_555
C14_3 H6_3 1_555 1_555
H11_3 C21_3 1_555 1_555
C22_3 C21_3 1_555 1_555
C23_3 C22_3 1_555 1_555
C24_3 C25_3 1_555 1_555
C27_3 C10_3 1_555 1_555
H13_3 C27_3 1_555 1_555
H16_3 C32_3 1_555 1_555
O9_3 Co9_3 1_555 1_555
O10_3 C23_3 1_555 1_555
O22_3 C24_3 1_555 1_555
Co9_3 O7_3 1_555 1_555
C22_3 C32_3 1_555 1_555
C23_3 O9_3 1_555 1_555
C25_3 C27_3 1_555 1_555
C17_3 C18_3 1_555 1_555
C18_3 C19_3 1_555 1_555
C19_3 H9_3 1_555 1_555
C20_3 C18_3 1_555 1_555
H10_3 C20_3 1_555 1_555
O13_2 C17_3 1_555 1_555
O16_2 C17_3 1_555 1_555
Co6 O20_4 1_555 1_555
Co9 O20_4 1_555 1_555
C1_4 C2_4 1_555 1_555
C2_4 C3_4 1_555 1_555
C3_4 H1_4 1_555 1_555
C4_4 C2_4 1_555 1_555
H2_4 C4_4 1_555 1_555
C5_4 C4_4 1_555 1_555
H3_4 C5_4 1_555 1_555
C6_4 C5_4 1_555 1_555
C7_4 C6_4 1_555 1_555
C8_4 C9_4 1_555 1_555
C9_4 C10_4 1_555 1_555
C10_4 H4_4 1_555 1_555
C11_4 C9_4 1_555 1_555
H5_4 C11_4 1_555 1_555
C12_4 C13_4 1_555 1_555
C13_4 C14_4 1_555 1_555
C14_4 H6_4 1_555 1_555
C15_4 C13_4 1_555 1_555
H7_4 C15_4 1_555 1_555
C16_4 C3_4 1_555 1_555
H8_4 C16_4 1_555 1_555
Co6 O2_4 1_555 1_555
Co9 O1_4 1_555 1_555
O1_4 C7_4 1_555 1_555
O2_4 C7_4 1_555 1_555
O12 C1_4 1_555 1_555
O15 C1_4 1_555 1_555
O5_4 C12_4 1_555 1_555
O6_4 C12_4 1_555 1_555
O7_4 C8_4 1_555 1_555
O8_4 C8_4 1_555 1_555
H11_4 C21_4 1_555 1_555
C22_4 C21_4 1_555 1_555
C23_4 C22_4 1_555 1_555
C24_4 C25_4 1_555 1_555
C25_4 C26_4 1_555 1_555
C26_4 C11_4 1_555 1_555
H12_4 C26_4 1_555 1_555
C27_4 C10_4 1_555 1_555
H13_4 C27_4 1_555 1_555
H16_4 C32_4 1_555 1_555
Co5 O5_4 1_555 1_555
O9_4 Co9 1_555 1_555
O10_4 C23_4 1_555 1_555
O22_4 C24_4 1_555 1_555
C6_4 C16_4 1_555 1_555
Co9 O7_4 1_555 1_555
O7_4 Co5 1_555 1_555
C22_4 C32_4 1_555 1_555
C23_4 O9_4 1_555 1_555
C25_4 C27_4 1_555 1_555
Co5 O10_4 1_555 1_555
C17_4 C18_4 1_555 1_555
C18_4 C19_4 1_555 1_555
C19_4 H9_4 1_555 1_555
C20_4 C18_4 1_555 1_555
H10_4 C20_4 1_555 1_555
O13 C17_4 1_555 1_555
O16 C17_4 1_555 1_555
C28_4 C29_4 1_555 1_555
C29_4 C30_4 1_555 1_555
H14_4 C30_4 1_555 1_555
H15_4 C31_4 1_555 1_555
O17_2 C28_4 1_555 1_555
O19_4 C28_4 1_555 1_555
C29_4 C31_4 1_555 1_555
C33 N1 1_555 1_555
C34 N1 1_555 1_555
C33 H17 1_555 1_555
C33 H18 1_555 1_555
C33 H19 1_555 1_555
N1 H20 1_555 1_555
N1 H21 1_555 1_555
C34 H22 1_555 1_555
C34 H23 1_555 1_555
C34 H24 1_555 1_555
C33_2 N1_2 1_555 1_555
C34_2 N1_2 1_555 1_555
C33_2 H17_2 1_555 1_555
C33_2 H18_2 1_555 1_555
C33_2 H19_2 1_555 1_555
N1_2 H20_2 1_555 1_555
N1_2 H21_2 1_555 1_555
C34_2 H22_2 1_555 1_555
C34_2 H23_2 1_555 1_555
C34_2 H24_2 1_555 1_555
C34_3 N1_3 1_555 1_555
N1_3 H20_3 1_555 1_555
C34_3 H22_3 1_555 1_555
C34_3 H23_3 1_555 1_555
C34_3 H24_3 1_555 1_555
C33_3 H18_3 1_555 1_555
C33_3 H19_3 1_555 1_555
C34_4 N1_4 1_555 1_555
N1_4 H20_4 1_555 1_555
C34_4 H22_4 1_555 1_555
C34_4 H23_4 1_555 1_555
C34_4 H24_4 1_555 1_555
C33_4 H18_4 1_555 1_555
C33_4 H19_4 1_555 1_555
C33_5 N1_5 1_555 1_555
C34_5 N1_5 1_555 1_555
C33_5 H17_5 1_555 1_555
C33_5 H18_5 1_555 1_555
C33_5 H19_5 1_555 1_555
N1_5 H20_5 1_555 1_555
N1_5 H21_5 1_555 1_555
C34_5 H22_5 1_555 1_555
C34_5 H23_5 1_555 1_555
C34_5 H24_5 1_555 1_555
C33_6 N1_6 1_555 1_555
C34_6 N1_6 1_555 1_555
C33_6 H17_6 1_555 1_555
C33_6 H18_6 1_555 1_555
C33_6 H19_6 1_555 1_555
N1_6 H20_6 1_555 1_555
N1_6 H21_6 1_555 1_555
C34_6 H22_6 1_555 1_555
C34_6 H23_6 1_555 1_555
C34_6 H24_6 1_555 1_555
C33_7 H18_7 1_555 1_555
C33_7 H19_7 1_555 1_555
C34_7 N1_7 1_555 1_555
N1_7 H20_7 1_555 1_555
C34_7 H22_7 1_555 1_555
C34_7 H23_7 1_555 1_555
C34_7 H24_7 1_555 1_555
C33_8 H18_8 1_555 1_555
C33_8 H19_8 1_555 1_555
C34_8 N1_8 1_555 1_555
N1_8 H20_8 1_555 1_555
C34_8 H22_8 1_555 1_555
C34_8 H23_8 1_555 1_555
C34_8 H24_8 1_555 1_555

#END
