
###############################################################################
#
# This file contains modified crystal structure data generated from the
# MOF subset of the Cambridge Structural Database (CSD) v543 
# hosted by the Cambridge Crystallographic Data Centre (CCDC).
#
# This work is licensed under the Creative Commons
# Attribution-NonCommercial-ShareAlike 4.0 International License.
# To view a copy of this license, visit
# http://creativecommons.org/licenses/by-nc-sa/4.0/
# or send a letter to
# Creative Commons, PO Box 1866, Mountain View, CA 94042, USA.
#
# CIF created using the CSD Python API on 29 September 2022
# The structure has been converted into the P1 space group
# The structure has a 3D framework
# The original CSD entry MOXDIN01 is in the monoclinic crystal system
# The framework has been calculated to contain at least 10.0% void space
# The void calculation uses a probe of radius 1.32A, grid spacing 0.4
# The framework is charged, counterions have been retained in the structure
#
###############################################################################

data_MOXDIN01
_chemical_formula_moiety         '(C128 H64 Co12 O61 8-)n'
_symmetry_cell_setting           triclinic
_symmetry_space_group_name_H-M   'P 1'
_symmetry_Int_Tables_number      1
_space_group_name_Hall           'P 1'
loop_
_symmetry_equiv_pos_site_id
_symmetry_equiv_pos_as_xyz
1 x,y,z
_cell_length_a                   32.997(7)
_cell_length_b                   9.7187(19)
_cell_length_c                   18.392(4)
_cell_angle_alpha                90
_cell_angle_beta                 92.25(3)
_cell_angle_gamma                90
_cell_volume                     5893.55
loop_
_atom_site_label
_atom_site_type_symbol
_atom_site_fract_x
_atom_site_fract_y
_atom_site_fract_z
C1 C 0.19313(9) 0.1543(3) 0.37421(17)
C2 C 0.19053(10) 0.0771(4) 0.30302(17)
C3 C 0.15384(10) 0.0266(4) 0.27549(18)
H1 H 0.1300 0.0377 0.3021
C4 C 0.22539(10) 0.0612(4) 0.26368(19)
H2 H 0.2505 0.0966 0.2823
C8 C 0.29653(10) 0.0083(3) 0.04097(18)
C9 C 0.27161(10) 0.1339(3) 0.01948(18)
C11 C 0.26939(11) 0.2427(3) 0.0689(2)
H5 H 0.2828 0.2374 0.1154
O3 O 0.22735(7) 0.1844(2) 0.40013(12)
O4 O 0.15941(7) 0.1806(2) 0.40293(12)
O8 O 0.31721(8) 0.0074(3) 0.09853(15)
C26 C 0.24724(10) 0.3582(3) 0.04855(18)
H12 H 0.2450 0.4325 0.0817
Co4 Co 0.152290(12) 0.30032(4) 0.48709(2)
Co8 Co 0.2500 0.2500 0.5000
Co10 Co 0.2500 0.7500 0.0000
O20 O 0.20391(6) 0.5930(2) 0.00492(12)
C10 C 0.25276(10) 0.1418(3) 0.95145(18)
H4 H 0.2550 0.0675 0.9183
C14 C 0.46562(12) 0.0769(5) 0.9927(3)
H6 H 0.4420 0.1328 0.9885
C24 C 0.20347(10) 0.4917(3) 0.95903(18)
C25 C 0.22839(10) 0.3661(3) 0.98052(18)
C27 C 0.23061(11) 0.2573(3) 0.9311(2)
H13 H 0.2172 0.2626 0.8846
C28 C 0.57938(12) 0.1230(4) 0.9876(2)
C29 C 0.53771(10) 0.0584(4) 0.9950(2)
C31 C 0.50467(14) 0.1362(5) 0.9862(3)
H15 H 0.5072 0.2314 0.9754
Co6 Co 0.152290(12) 0.69968(4) 0.98709(2)
Co7 Co 0.652290(12) 0.19968(4) 0.98709(2)
Co10_2 Co 0.2500 0.7500 1.0000
O18 O 0.60988(9) 0.0501(3) 0.99580(18)
O19 O 0.58271(12) 0.2428(4) 0.9714(3)
O22 O 0.18279(8) 0.4926(3) 0.90147(15)
C5 C 0.22340(10) 0.9927(4) 0.19642(19)
H3 H 0.2472 0.9812 0.1695
C6 C 0.18639(10) 0.9419(3) 0.16954(18)
C7 C 0.18474(10) 0.8692(3) 0.09787(17)
C12 C 0.42062(12) 0.8770(4) 0.0124(2)
C13 C 0.46229(10) 0.9416(4) 0.0050(2)
C15 C 0.49533(14) 0.8638(5) 0.0138(3)
H7 H 0.4928 0.7686 0.0246
C16 C 0.15209(11) 0.9601(4) 0.20934(19)
H8 H 0.1268 0.9259 0.1906
O1 O 0.21434(7) 0.8825(2) 0.05675(12)
O2 O 0.15282(7) 0.8020(3) 0.08172(13)
O5 O 0.39012(9) 0.9499(3) 0.00420(18)
O6 O 0.41729(12) 0.7572(4) 0.0286(3)
C30 C 0.53438(12) 0.9231(5) 0.0073(3)
H14 H 0.5580 0.8672 0.0115
Co3 Co 0.347710(12) 0.80032(4) 0.01291(2)
O12 O 0.27265(7) 0.6844(2) 0.09987(12)
O15 O 0.34059(7) 0.6806(2) 0.09707(12)
O7 O 0.29609(6) 0.9070(2) 0.99508(12)
C17 C 0.30687(9) 0.3457(3) 0.62579(17)
C18 C 0.30947(10) 0.4229(4) 0.69698(17)
C19 C 0.34616(10) 0.4734(4) 0.72451(18)
H9 H 0.3700 0.4623 0.6979
C20 C 0.27461(10) 0.4388(4) 0.73632(19)
H10 H 0.2495 0.4034 0.7177
C21 C 0.27660(10) 0.5073(4) 0.80358(19)
H11 H 0.2528 0.5188 0.8305
C22 C 0.31361(10) 0.5581(3) 0.83046(18)
C23 C 0.31526(10) 0.6308(3) 0.90213(17)
C32 C 0.34791(11) 0.5399(4) 0.79066(19)
H16 H 0.3732 0.5741 0.8094
Co5 Co 0.347710(12) 0.19968(4) 0.51291(2)
O9 O 0.28566(7) 0.6175(2) 0.94325(12)
O10 O 0.34718(7) 0.6980(3) 0.91828(13)
O11 O 0.27265(7) 0.3156(2) 0.59987(12)
O13 O 0.22735(7) 0.8156(2) 0.90013(12)
O14 O 0.34059(7) 0.3194(2) 0.59707(12)
O16 O 0.15941(7) 0.8194(2) 0.90293(12)
O17 O 0.10988(9) 0.5501(3) 0.99580(18)
C1_2 C 0.80687(9) 0.1543(3) 0.12579(17)
C2_2 C 0.80947(10) 0.0771(4) 0.19698(17)
C3_2 C 0.84616(10) 0.0266(4) 0.22451(18)
H1_2 H 0.8700 0.0377 0.1979
C4_2 C 0.77461(10) 0.0612(4) 0.23632(19)
H2_2 H 0.7495 0.0966 0.2177
C8_2 C 0.70347(10) 0.0083(3) 0.45903(18)
C9_2 C 0.72839(10) 0.1339(3) 0.48052(18)
C10_2 C 0.74724(10) 0.1418(3) 0.54855(18)
H4_2 H 0.7450 0.0675 0.5817
C11_2 C 0.73061(11) 0.2427(3) 0.4311(2)
H5_2 H 0.7172 0.2374 0.3846
C14_2 C 0.53438(12) 0.0769(5) 0.5073(3)
H6_2 H 0.5580 0.1328 0.5115
O3_2 O 0.77265(7) 0.1844(2) 0.09987(12)
O4_2 O 0.84059(7) 0.1806(2) 0.09707(12)
O8_2 O 0.68279(8) 0.0074(3) 0.40147(15)
C24_2 C 0.79653(10) 0.4917(3) 0.54097(18)
C25_2 C 0.77161(10) 0.3661(3) 0.51948(18)
C26_2 C 0.75276(10) 0.3582(3) 0.45145(18)
H12_2 H 0.7550 0.4325 0.4183
C27_2 C 0.76939(11) 0.2573(3) 0.5689(2)
H13_2 H 0.7828 0.2626 0.6154
C28_2 C 0.42062(12) 0.1230(4) 0.5124(2)
C29_2 C 0.46229(10) 0.0584(4) 0.5050(2)
C31_2 C 0.49533(14) 0.1362(5) 0.5138(3)
H15_2 H 0.4928 0.2314 0.5246
Co4_2 Co 0.847710(12) 0.30032(4) 0.01291(2)
Co6_2 Co 0.847710(12) 0.69968(4) 0.51291(2)
Co8_2 Co 0.7500 0.2500 0.0000
Co10_3 Co 0.7500 0.7500 0.5000
O18_2 O 0.39012(9) 0.0501(3) 0.50420(18)
O19_2 O 0.41729(12) 0.2428(4) 0.5286(3)
O20_2 O 0.79609(6) 0.5930(2) 0.49508(12)
O22_2 O 0.81721(8) 0.4926(3) 0.59853(15)
Co8_3 Co 0.7500 0.2500 1.0000
C5_2 C 0.77660(10) 0.9927(4) 0.30358(19)
H3_2 H 0.7528 0.9812 0.3305
C6_2 C 0.81361(10) 0.9419(3) 0.33046(18)
C7_2 C 0.81526(10) 0.8692(3) 0.40213(17)
C12_2 C 0.57938(12) 0.8770(4) 0.4876(2)
C13_2 C 0.53771(10) 0.9416(4) 0.4950(2)
C15_2 C 0.50467(14) 0.8638(5) 0.4862(3)
H7_2 H 0.5072 0.7686 0.4754
C16_2 C 0.84791(11) 0.9601(4) 0.29066(19)
H8_2 H 0.8732 0.9259 0.3094
O1_2 O 0.78566(7) 0.8825(2) 0.44325(12)
O2_2 O 0.84718(7) 0.8020(3) 0.41828(13)
O5_2 O 0.60988(9) 0.9499(3) 0.49580(18)
O6_2 O 0.58271(12) 0.7572(4) 0.4714(3)
O7_2 O 0.70391(6) 0.9070(2) 0.50492(12)
C17_2 C 0.69313(9) 0.3457(3) 0.87421(17)
C18_2 C 0.69053(10) 0.4229(4) 0.80302(17)
C19_2 C 0.65384(10) 0.4734(4) 0.77549(18)
H9_2 H 0.6300 0.4623 0.8021
C20_2 C 0.72539(10) 0.4388(4) 0.76368(19)
H10_2 H 0.7505 0.4034 0.7823
C21_2 C 0.72340(10) 0.5073(4) 0.69642(19)
H11_2 H 0.7472 0.5188 0.6695
C22_2 C 0.68639(10) 0.5581(3) 0.66954(18)
C23_2 C 0.68474(10) 0.6308(3) 0.59787(17)
C30_2 C 0.46562(12) 0.9231(5) 0.4927(3)
H14_2 H 0.4420 0.8672 0.4885
C32_2 C 0.65209(11) 0.5399(4) 0.70934(19)
H16_2 H 0.6268 0.5741 0.6906
Co3_2 Co 0.652290(12) 0.80032(4) 0.48709(2)
O9_2 O 0.71434(7) 0.6175(2) 0.55675(12)
O10_2 O 0.65282(7) 0.6980(3) 0.58172(13)
O11_2 O 0.72735(7) 0.3156(2) 0.90013(12)
O12_2 O 0.72735(7) 0.6844(2) 0.40013(12)
O13_2 O 0.77265(7) 0.8156(2) 0.59987(12)
O14_2 O 0.65941(7) 0.3194(2) 0.90293(12)
O15_2 O 0.65941(7) 0.6806(2) 0.40293(12)
O16_2 O 0.84059(7) 0.8194(2) 0.59707(12)
O17_2 O 0.89012(9) 0.5501(3) 0.50420(18)
C30_3 C 0.03438(12) 0.4231(5) 0.0073(3)
H14_3 H 0.0580 0.3672 0.0115
C28_3 C 0.07938(12) 0.6230(4) 0.9876(2)
C29_3 C 0.03771(10) 0.5584(4) 0.9950(2)
C31_3 C 0.00467(14) 0.6362(5) 0.9862(3)
H15_3 H 0.0072 0.7314 0.9754
O19_3 O 0.08271(12) 0.7428(4) 0.9714(3)
O20_3 O 0.70391(6) 0.0930(2) 0.00492(12)
C1_3 C 0.69313(9) 0.6543(3) 0.37421(17)
C2_3 C 0.69053(10) 0.5771(4) 0.30302(17)
C3_3 C 0.65384(10) 0.5266(4) 0.27549(18)
H1_3 H 0.6300 0.5377 0.3021
C4_3 C 0.72539(10) 0.5612(4) 0.26368(19)
H2_3 H 0.7505 0.5966 0.2823
C5_3 C 0.72340(10) 0.4927(4) 0.19642(19)
H3_3 H 0.7472 0.4812 0.1695
C6_3 C 0.68639(10) 0.4419(3) 0.16954(18)
C7_3 C 0.68474(10) 0.3692(3) 0.09787(17)
C8_3 C 0.79653(10) 0.5083(3) 0.04097(18)
C9_3 C 0.77161(10) 0.6339(3) 0.01948(18)
C11_3 C 0.76939(11) 0.7427(3) 0.0689(2)
H5_3 H 0.7828 0.7374 0.1154
C12_3 C 0.92062(12) 0.3770(4) 0.0124(2)
C13_3 C 0.96229(10) 0.4416(4) 0.0050(2)
C15_3 C 0.99533(14) 0.3638(5) 0.0138(3)
H7_3 H 0.9928 0.2686 0.0246
C16_3 C 0.65209(11) 0.4601(4) 0.20934(19)
H8_3 H 0.6268 0.4259 0.1906
O1_3 O 0.71434(7) 0.3825(2) 0.05675(12)
O2_3 O 0.65282(7) 0.3020(3) 0.08172(13)
O5_3 O 0.89012(9) 0.4499(3) 0.00420(18)
O6_3 O 0.91729(12) 0.2572(4) 0.0286(3)
O8_3 O 0.81721(8) 0.5074(3) 0.09853(15)
C26_3 C 0.74724(10) 0.8582(3) 0.04855(18)
H12_3 H 0.7450 0.9325 0.0817
C10_3 C 0.75276(10) 0.6418(3) 0.95145(18)
H4_3 H 0.7550 0.5675 0.9183
C14_3 C 0.96562(12) 0.5769(5) 0.9927(3)
H6_3 H 0.9420 0.6328 0.9885
O7_3 O 0.79609(6) 0.4070(2) 0.99508(12)
C21_3 C 0.77660(10) 0.0073(4) 0.80358(19)
H11_3 H 0.7528 0.0188 0.8305
C22_3 C 0.81361(10) 0.0581(3) 0.83046(18)
C23_3 C 0.81526(10) 0.1308(3) 0.90213(17)
C24_3 C 0.70347(10) 0.9917(3) 0.95903(18)
C25_3 C 0.72839(10) 0.8661(3) 0.98052(18)
C27_3 C 0.73061(11) 0.7573(3) 0.9311(2)
H13_3 H 0.7172 0.7626 0.8846
C32_3 C 0.84791(11) 0.0399(4) 0.79066(19)
H16_3 H 0.8732 0.0741 0.8094
O9_3 O 0.78566(7) 0.1175(2) 0.94325(12)
O10_3 O 0.84718(7) 0.1980(3) 0.91828(13)
O22_3 O 0.68279(8) 0.9926(3) 0.90147(15)
C17_3 C 0.80687(9) 0.8457(3) 0.62579(17)
C18_3 C 0.80947(10) 0.9229(4) 0.69698(17)
C19_3 C 0.84616(10) 0.9734(4) 0.72451(18)
H9_3 H 0.8700 0.9623 0.6979
C20_3 C 0.77461(10) 0.9388(4) 0.73632(19)
H10_3 H 0.7495 0.9034 0.7177
O20_4 O 0.29609(6) 0.0930(2) 0.49508(12)
C1_4 C 0.30687(9) 0.6543(3) 0.12579(17)
C2_4 C 0.30947(10) 0.5771(4) 0.19698(17)
C3_4 C 0.34616(10) 0.5266(4) 0.22451(18)
H1_4 H 0.3700 0.5377 0.1979
C4_4 C 0.27461(10) 0.5612(4) 0.23632(19)
H2_4 H 0.2495 0.5966 0.2177
C5_4 C 0.27660(10) 0.4927(4) 0.30358(19)
H3_4 H 0.2528 0.4812 0.3305
C6_4 C 0.31361(10) 0.4419(3) 0.33046(18)
C7_4 C 0.31526(10) 0.3692(3) 0.40213(17)
C8_4 C 0.20347(10) 0.5083(3) 0.45903(18)
C9_4 C 0.22839(10) 0.6339(3) 0.48052(18)
C10_4 C 0.24724(10) 0.6418(3) 0.54855(18)
H4_4 H 0.2450 0.5675 0.5817
C11_4 C 0.23061(11) 0.7427(3) 0.4311(2)
H5_4 H 0.2172 0.7374 0.3846
C12_4 C 0.07938(12) 0.3770(4) 0.4876(2)
C13_4 C 0.03771(10) 0.4416(4) 0.4950(2)
C14_4 C 0.03438(12) 0.5769(5) 0.5073(3)
H6_4 H 0.0580 0.6328 0.5115
C15_4 C 0.00467(14) 0.3638(5) 0.4862(3)
H7_4 H 0.0072 0.2686 0.4754
C16_4 C 0.34791(11) 0.4601(4) 0.29066(19)
H8_4 H 0.3732 0.4259 0.3094
O1_4 O 0.28566(7) 0.3825(2) 0.44325(12)
O2_4 O 0.34718(7) 0.3020(3) 0.41828(13)
O5_4 O 0.10988(9) 0.4499(3) 0.49580(18)
O6_4 O 0.08271(12) 0.2572(4) 0.4714(3)
O7_4 O 0.20391(6) 0.4070(2) 0.50492(12)
O8_4 O 0.18279(8) 0.5074(3) 0.40147(15)
C21_4 C 0.22340(10) 0.0073(4) 0.69642(19)
H11_4 H 0.2472 0.0188 0.6695
C22_4 C 0.18639(10) 0.0581(3) 0.66954(18)
C23_4 C 0.18474(10) 0.1308(3) 0.59787(17)
C24_4 C 0.29653(10) 0.9917(3) 0.54097(18)
C25_4 C 0.27161(10) 0.8661(3) 0.51948(18)
C26_4 C 0.25276(10) 0.8582(3) 0.45145(18)
H12_4 H 0.2550 0.9325 0.4183
C27_4 C 0.26939(11) 0.7573(3) 0.5689(2)
H13_4 H 0.2828 0.7626 0.6154
C32_4 C 0.15209(11) 0.0399(4) 0.70934(19)
H16_4 H 0.1268 0.0741 0.6906
O9_4 O 0.21434(7) 0.1175(2) 0.55675(12)
O10_4 O 0.15282(7) 0.1980(3) 0.58172(13)
O22_4 O 0.31721(8) 0.9926(3) 0.59853(15)
C17_4 C 0.19313(9) 0.8457(3) 0.87421(17)
C18_4 C 0.19053(10) 0.9229(4) 0.80302(17)
C19_4 C 0.15384(10) 0.9734(4) 0.77549(18)
H9_4 H 0.1300 0.9623 0.8021
C20_4 C 0.22539(10) 0.9388(4) 0.76368(19)
H10_4 H 0.2505 0.9034 0.7823
C28_4 C 0.92062(12) 0.6230(4) 0.5124(2)
C29_4 C 0.96229(10) 0.5584(4) 0.5050(2)
C30_4 C 0.96562(12) 0.4231(5) 0.4927(3)
H14_4 H 0.9420 0.3672 0.4885
C31_4 C 0.99533(14) 0.6362(5) 0.5138(3)
H15_4 H 0.9928 0.7314 0.5246
O19_4 O 0.91729(12) 0.7428(4) 0.5286(3)
loop_
_geom_bond_atom_site_label_1
_geom_bond_atom_site_label_2
_geom_bond_site_symmetry_1
_geom_bond_site_symmetry_2
C1 C2 1_555 1_555
C2 C3 1_555 1_555
C3 H1 1_555 1_555
C4 C2 1_555 1_555
H2 C4 1_555 1_555
C8 C9 1_555 1_555
C11 C9 1_555 1_555
H5 C11 1_555 1_555
O3 C1 1_555 1_555
O4 C1 1_555 1_555
O8 C8 1_555 1_555
C26 C11 1_555 1_555
H12 C26 1_555 1_555
Co4 O4 1_555 1_555
Co8 O3 1_555 1_555
Co10 O20 1_555 1_555
C10 H4 1_555 1_555
C14 H6 1_555 1_555
C24 C25 1_555 1_555
C27 C10 1_555 1_555
H13 C27 1_555 1_555
C28 C29 1_555 1_555
C31 C14 1_555 1_555
H15 C31 1_555 1_555
Co7 O18 1_555 1_555
O18 C28 1_555 1_555
O19 C28 1_555 1_555
O22 C24 1_555 1_555
C25 C27 1_555 1_555
C29 C31 1_555 1_555
H3 C5 1_555 1_555
C6 C5 1_555 1_555
C7 C6 1_555 1_555
C12 C13 1_555 1_555
C15 C13 1_555 1_555
H7 C15 1_555 1_555
H8 C16 1_555 1_555
Co10 O1 1_555 1_555
O1 C7 1_555 1_555
O2 C7 1_555 1_555
O5 C12 1_555 1_555
O6 C12 1_555 1_555
C30 C15 1_555 1_555
H14 C30 1_555 1_555
Co3 O5 1_555 1_555
O12 Co10 1_555 1_555
O15 Co3 1_555 1_555
C6 C16 1_555 1_555
C17 C18 1_555 1_555
C18 C19 1_555 1_555
C19 H9 1_555 1_555
C20 C18 1_555 1_555
H10 C20 1_555 1_555
C21 C20 1_555 1_555
H11 C21 1_555 1_555
C22 C21 1_555 1_555
C23 C22 1_555 1_555
C32 C19 1_555 1_555
H16 C32 1_555 1_555
Co5 O14 1_555 1_555
Co8 O11 1_555 1_555
O9 Co10_2 1_555 1_555
O10 C23 1_555 1_555
O11 C17 1_555 1_555
O13 Co10_2 1_555 1_555
O14 C17 1_555 1_555
O16 Co6 1_555 1_555
O17 Co6 1_555 1_555
Co10_2 O7 1_555 1_555
C22 C32 1_555 1_555
C23 O9 1_555 1_555
C1_2 C2_2 1_555 1_555
C2_2 C3_2 1_555 1_555
C3_2 H1_2 1_555 1_555
C4_2 C2_2 1_555 1_555
H2_2 C4_2 1_555 1_555
C8_2 C9_2 1_555 1_555
C9_2 C10_2 1_555 1_555
C10_2 H4_2 1_555 1_555
C11_2 C9_2 1_555 1_555
H5_2 C11_2 1_555 1_555
C14_2 H6_2 1_555 1_555
O3_2 C1_2 1_555 1_555
O4_2 C1_2 1_555 1_555
O8_2 C8_2 1_555 1_555
C24_2 C25_2 1_555 1_555
C25_2 C26_2 1_555 1_555
C26_2 C11_2 1_555 1_555
H12_2 C26_2 1_555 1_555
C27_2 C10_2 1_555 1_555
H13_2 C27_2 1_555 1_555
C28_2 C29_2 1_555 1_555
C31_2 C14_2 1_555 1_555
H15_2 C31_2 1_555 1_555
Co4_2 O4_2 1_555 1_555
Co6_2 O20_2 1_555 1_555
Co5 O18_2 1_555 1_555
Co8_2 O3_2 1_555 1_555
Co10_3 O20_2 1_555 1_555
O18_2 C28_2 1_555 1_555
O19_2 C28_2 1_555 1_555
O20_2 C24_2 1_555 1_555
O22_2 C24_2 1_555 1_555
C25_2 C27_2 1_555 1_555
C29_2 C31_2 1_555 1_555
H3_2 C5_2 1_555 1_555
C6_2 C5_2 1_555 1_555
C7_2 C6_2 1_555 1_555
C12_2 C13_2 1_555 1_555
C15_2 C13_2 1_555 1_555
H7_2 C15_2 1_555 1_555
H8_2 C16_2 1_555 1_555
Co6_2 O2_2 1_555 1_555
Co10_3 O1_2 1_555 1_555
O1_2 C7_2 1_555 1_555
O2_2 C7_2 1_555 1_555
O5_2 C12_2 1_555 1_555
O6_2 C12_2 1_555 1_555
C17_2 C18_2 1_555 1_555
C18_2 C19_2 1_555 1_555
C19_2 H9_2 1_555 1_555
C20_2 C18_2 1_555 1_555
H10_2 C20_2 1_555 1_555
C21_2 C20_2 1_555 1_555
H11_2 C21_2 1_555 1_555
C22_2 C21_2 1_555 1_555
C23_2 C22_2 1_555 1_555
C30_2 C15_2 1_555 1_555
H14_2 C30_2 1_555 1_555
C32_2 C19_2 1_555 1_555
H16_2 C32_2 1_555 1_555
Co3_2 O5_2 1_555 1_555
Co7 O14_2 1_555 1_555
Co8_3 O11_2 1_555 1_555
O9_2 Co10_3 1_555 1_555
O10_2 C23_2 1_555 1_555
O11_2 C17_2 1_555 1_555
O12_2 Co10_3 1_555 1_555
O13_2 Co10_3 1_555 1_555
O14_2 C17_2 1_555 1_555
O15_2 Co3_2 1_555 1_555
O16_2 Co6_2 1_555 1_555
O17_2 Co6_2 1_555 1_555
C6_2 C16_2 1_555 1_555
Co10_3 O7_2 1_555 1_555
O7_2 Co3_2 1_555 1_555
C22_2 C32_2 1_555 1_555
C23_2 O9_2 1_555 1_555
Co3_2 O10_2 1_555 1_555
H14_3 C30_3 1_555 1_555
C28_3 C29_3 1_555 1_555
H15_3 C31_3 1_555 1_555
O17 C28_3 1_555 1_555
O19_3 C28_3 1_555 1_555
C29_3 C31_3 1_555 1_555
Co8_2 O20_3 1_555 1_555
C1_3 C2_3 1_555 1_555
C2_3 C3_3 1_555 1_555
C3_3 H1_3 1_555 1_555
C4_3 C2_3 1_555 1_555
H2_3 C4_3 1_555 1_555
C5_3 C4_3 1_555 1_555
H3_3 C5_3 1_555 1_555
C6_3 C5_3 1_555 1_555
C7_3 C6_3 1_555 1_555
C8_3 C9_3 1_555 1_555
C11_3 C9_3 1_555 1_555
H5_3 C11_3 1_555 1_555
C12_3 C13_3 1_555 1_555
C15_3 C13_3 1_555 1_555
H7_3 C15_3 1_555 1_555
C16_3 C3_3 1_555 1_555
H8_3 C16_3 1_555 1_555
Co8_2 O1_3 1_555 1_555
O1_3 C7_3 1_555 1_555
O2_3 C7_3 1_555 1_555
O12_2 C1_3 1_555 1_555
O15_2 C1_3 1_555 1_555
O5_3 C12_3 1_555 1_555
O6_3 C12_3 1_555 1_555
O8_3 C8_3 1_555 1_555
C26_3 C11_3 1_555 1_555
H12_3 C26_3 1_555 1_555
Co4_2 O5_3 1_555 1_555
C6_3 C16_3 1_555 1_555
C10_3 H4_3 1_555 1_555
C14_3 H6_3 1_555 1_555
H11_3 C21_3 1_555 1_555
C22_3 C21_3 1_555 1_555
C23_3 C22_3 1_555 1_555
C24_3 C25_3 1_555 1_555
C27_3 C10_3 1_555 1_555
H13_3 C27_3 1_555 1_555
H16_3 C32_3 1_555 1_555
O9_3 Co8_3 1_555 1_555
O10_3 C23_3 1_555 1_555
O22_3 C24_3 1_555 1_555
Co8_3 O7_3 1_555 1_555
C22_3 C32_3 1_555 1_555
C23_3 O9_3 1_555 1_555
C25_3 C27_3 1_555 1_555
C17_3 C18_3 1_555 1_555
C18_3 C19_3 1_555 1_555
C19_3 H9_3 1_555 1_555
C20_3 C18_3 1_555 1_555
H10_3 C20_3 1_555 1_555
O13_2 C17_3 1_555 1_555
O16_2 C17_3 1_555 1_555
Co5 O20_4 1_555 1_555
Co8 O20_4 1_555 1_555
C1_4 C2_4 1_555 1_555
C2_4 C3_4 1_555 1_555
C3_4 H1_4 1_555 1_555
C4_4 C2_4 1_555 1_555
H2_4 C4_4 1_555 1_555
C5_4 C4_4 1_555 1_555
H3_4 C5_4 1_555 1_555
C6_4 C5_4 1_555 1_555
C7_4 C6_4 1_555 1_555
C8_4 C9_4 1_555 1_555
C9_4 C10_4 1_555 1_555
C10_4 H4_4 1_555 1_555
C11_4 C9_4 1_555 1_555
H5_4 C11_4 1_555 1_555
C12_4 C13_4 1_555 1_555
C13_4 C14_4 1_555 1_555
C14_4 H6_4 1_555 1_555
C15_4 C13_4 1_555 1_555
H7_4 C15_4 1_555 1_555
C16_4 C3_4 1_555 1_555
H8_4 C16_4 1_555 1_555
Co5 O2_4 1_555 1_555
Co8 O1_4 1_555 1_555
O1_4 C7_4 1_555 1_555
O2_4 C7_4 1_555 1_555
O12 C1_4 1_555 1_555
O15 C1_4 1_555 1_555
O5_4 C12_4 1_555 1_555
O6_4 C12_4 1_555 1_555
O7_4 C8_4 1_555 1_555
O8_4 C8_4 1_555 1_555
H11_4 C21_4 1_555 1_555
C22_4 C21_4 1_555 1_555
C23_4 C22_4 1_555 1_555
C24_4 C25_4 1_555 1_555
C25_4 C26_4 1_555 1_555
C26_4 C11_4 1_555 1_555
H12_4 C26_4 1_555 1_555
C27_4 C10_4 1_555 1_555
H13_4 C27_4 1_555 1_555
H16_4 C32_4 1_555 1_555
Co4 O5_4 1_555 1_555
O9_4 Co8 1_555 1_555
O10_4 C23_4 1_555 1_555
O22_4 C24_4 1_555 1_555
C6_4 C16_4 1_555 1_555
Co8 O7_4 1_555 1_555
O7_4 Co4 1_555 1_555
C22_4 C32_4 1_555 1_555
C23_4 O9_4 1_555 1_555
C25_4 C27_4 1_555 1_555
Co4 O10_4 1_555 1_555
C17_4 C18_4 1_555 1_555
C18_4 C19_4 1_555 1_555
C19_4 H9_4 1_555 1_555
C20_4 C18_4 1_555 1_555
H10_4 C20_4 1_555 1_555
O13 C17_4 1_555 1_555
O16 C17_4 1_555 1_555
C28_4 C29_4 1_555 1_555
C29_4 C30_4 1_555 1_555
H14_4 C30_4 1_555 1_555
H15_4 C31_4 1_555 1_555
O17_2 C28_4 1_555 1_555
O19_4 C28_4 1_555 1_555
C29_4 C31_4 1_555 1_555

#END
