
###############################################################################
#
# This file contains modified crystal structure data generated from the
# MOF subset of the Cambridge Structural Database (CSD) v543 
# hosted by the Cambridge Crystallographic Data Centre (CCDC).
#
# This work is licensed under the Creative Commons
# Attribution-NonCommercial-ShareAlike 4.0 International License.
# To view a copy of this license, visit
# http://creativecommons.org/licenses/by-nc-sa/4.0/
# or send a letter to
# Creative Commons, PO Box 1866, Mountain View, CA 94042, USA.
#
# CIF created using the CSD Python API on 29 September 2022
# The structure has been converted into the P1 space group
# The structure has a 3D framework
# The original CSD entry MOXHUF is in the rhombohedral crystal system
# The framework has been calculated to contain at least 10.0% void space
# The void calculation uses a probe of radius 1.32A, grid spacing 0.4
#
###############################################################################

data_MOXHUF
_chemical_formula_moiety         '(C198 H180 Ca18 N36 O112)n'
_symmetry_cell_setting           triclinic
_symmetry_space_group_name_H-M   'P 1'
_symmetry_Int_Tables_number      1
_space_group_name_Hall           'P 1'
loop_
_symmetry_equiv_pos_site_id
_symmetry_equiv_pos_as_xyz
1 x,y,z
_cell_length_a                   32.4109(13)
_cell_length_b                   32.4109(13)
_cell_length_c                   9.4673(3)
_cell_angle_alpha                90
_cell_angle_beta                 90
_cell_angle_gamma                120
_cell_volume                     8612.69
loop_
_atom_site_label
_atom_site_type_symbol
_atom_site_fract_x
_atom_site_fract_y
_atom_site_fract_z
Ca1 Ca 0.29779(4) 0.29538(4) 0.36233(16)
O1 O 0.2431(2) 0.3180(3) 0.3106(6)
O2 O 0.2507(3) 0.3371(4) 0.0857(7)
O3 O 0.04531(15) 0.35337(17) 0.2911(4)
O4 O 0.02191(16) 0.30925(17) 0.0993(4)
O5 O 0.1685(5) 0.2409(5) 0.0734(11)
O7 O 0.2321(3) 0.2182(2) 0.3584(9)
N1 N 0.1455(2) 0.2582(2) 0.0296(6)
N2 N 0.1601(4) 0.1545(4) 0.3248(17)
C1 C 0.1826(2) 0.3261(3) 0.1985(7)
C2 C 0.1101(7) 0.1398(7) 0.266(3)
H1 H 0.086430 0.113196 0.319016
H2 H 0.108406 0.130881 0.168521
H3 H 0.104429 0.166046 0.273892
C3 C 0.1445(2) 0.2960(2) 0.1118(5)
C4 C 0.1021(2) 0.2971(2) 0.1096(6)
H4 H 0.077285 0.276914 0.050233
C5 C 0.0978(2) 0.3289(3) 0.1979(7)
C6 C 0.1347(2) 0.3584(3) 0.2870(6)
H5 H 0.131434 0.379080 0.347925
C7 C 0.1762(2) 0.3569(3) 0.2846(7)
H6 H 0.201008 0.377384 0.343314
C8 C 0.2295(2) 0.3273(3) 0.1991(9)
C9 C 0.0520(2) 0.3304(3) 0.1976(7)
C10 C 0.1912(5) 0.2009(4) 0.3329(13)
H7 H 0.179629 0.221528 0.316957
C11 C 0.1743(9) 0.1203(7) 0.332(4)
H8 H 0.161233 0.098964 0.253089
H9 H 0.162941 0.102676 0.418310
H10 H 0.208423 0.135847 0.329084
Ca4 Ca 0.33092(6) 0.36888(4) 0.02900(16)
Ca5 Ca 0.03795(4) 0.36888(4) 0.52900(16)
O8 O 0.3296(4) 0.2469(5) 0.4190(7)
O9 O 0.31330(17) 0.28802(15) 0.1244(4)
O10 O 0.37864(15) 0.35861(23) 0.4578(4)
O11 O 0.28734(23) 0.30925(17) 0.5993(4)
O12 O 0.35524(16) 0.37933(23) 0.2660(4)
Ca3 Ca 0.96446(4) 0.33574(6) 0.19566(16)
Ca2 Ca 0.99759(6) 0.29538(4) 0.86233(16)
Ca1_2 Ca 0.70462(4) 0.00241(6) 0.36233(16)
O7_2 O 0.7818(2) 0.0139(4) 0.3584(9)
N2_2 N 0.8455(4) 0.0056(6) 0.3248(17)
C11_2 C 0.8797(7) 0.0540(11) 0.332(4)
H8_2 H 0.901036 0.062269 0.253089
H9_2 H 0.897324 0.060265 0.418310
H10_2 H 0.864153 0.072576 0.329084
O8_2 O 0.7531(5) 0.0826(6) 0.4190(7)
O9_2 O 0.71198(15) 0.02527(23) 0.1244(4)
O10_2 O 0.64139(23) 0.02004(27) 0.4578(4)
O1_2 O 0.6820(3) 0.9251(4) 0.3106(6)
O2_2 O 0.6629(4) 0.9136(5) 0.0857(7)
O3_2 O 0.64663(17) 0.69194(23) 0.2911(4)
O4_2 O 0.69075(17) 0.71266(23) 0.0993(4)
O5_2 O 0.7591(5) 0.9276(7) 0.0734(11)
N1_2 N 0.7418(2) 0.8873(3) 0.0296(6)
C1_2 C 0.6739(3) 0.8565(4) 0.1985(7)
C2_2 C 0.8602(7) 0.9703(10) 0.266(3)
H1_2 H 0.886804 0.973234 0.319016
H2_2 H 0.869119 0.977525 0.168521
H3_2 H 0.833954 0.938383 0.273892
C3_2 C 0.7040(2) 0.8485(3) 0.1118(5)
C4_2 C 0.7029(2) 0.8050(3) 0.1096(6)
H4_2 H 0.723086 0.800371 0.050233
C5_2 C 0.6711(3) 0.7689(4) 0.1979(7)
C6_2 C 0.6416(3) 0.7763(4) 0.2870(6)
H5_2 H 0.620920 0.752354 0.347925
C7_2 C 0.6431(3) 0.8193(4) 0.2846(7)
H6_2 H 0.622616 0.823624 0.343314
C8_2 C 0.6727(3) 0.9022(4) 0.1991(9)
C9_2 C 0.6696(3) 0.7216(4) 0.1976(7)
C10_2 C 0.7991(4) 0.9903(6) 0.3329(13)
H7_2 H 0.778472 0.958101 0.316957
Ca3_2 Ca 0.66426(6) 0.62871(7) 0.19566(16)
Ca4_2 Ca 0.63112(4) 0.96205(7) 0.02900(16)
Ca5_2 Ca 0.63112(4) 0.66908(6) 0.52900(16)
O11_2 O 0.69075(17) 0.97809(29) 0.5993(4)
O12_2 O 0.62067(23) 0.97592(28) 0.2660(4)
O6 O 0.7564(3) 0.8791(4) 0.9235(7)
Ca2_2 Ca 0.70462(4) 0.70221(7) 0.86233(16)
Ca3_3 Ca 0.37129(7) 0.03554(4) 0.19566(16)
Ca2_3 Ca 0.29779(7) 0.00241(6) 0.86233(16)
O1_3 O 0.0749(4) 0.7569(2) 0.3106(6)
O2_3 O 0.0864(5) 0.7493(3) 0.0857(7)
O3_3 O 0.30806(23) 0.95469(15) 0.2911(4)
O4_3 O 0.28734(23) 0.97809(16) 0.0993(4)
O5_3 O 0.0724(7) 0.8315(5) 0.0734(11)
N1_3 N 0.1127(3) 0.8545(2) 0.0296(6)
C1_3 C 0.1435(4) 0.8174(2) 0.1985(7)
C2_3 C 0.0297(10) 0.8899(7) 0.266(3)
H1_3 H 0.026766 0.913570 0.319016
H2_3 H 0.022475 0.891594 0.168521
H3_3 H 0.061617 0.895571 0.273892
C3_3 C 0.1515(3) 0.8555(2) 0.1118(5)
C4_3 C 0.1950(3) 0.8979(2) 0.1096(6)
H4_3 H 0.199629 0.922715 0.050233
C5_3 C 0.2311(4) 0.9022(2) 0.1979(7)
C6_3 C 0.2237(4) 0.8653(2) 0.2870(6)
H5_3 H 0.247646 0.868566 0.347925
C7_3 C 0.1807(4) 0.8238(2) 0.2846(7)
H6_3 H 0.176376 0.798992 0.343314
C8_3 C 0.0978(4) 0.7705(2) 0.1991(9)
C9_3 C 0.2784(4) 0.9480(2) 0.1976(7)
C10_3 C 0.0097(6) 0.8088(5) 0.3329(13)
H7_3 H 0.041899 0.820371 0.316957
Ca4_3 Ca 0.03795(7) 0.66908(6) 0.02900(16)
Ca5_3 Ca 0.33092(6) 0.96205(4) 0.52900(16)
O11_3 O 0.02191(29) 0.71266(23) 0.5993(4)
O12_3 O 0.02408(28) 0.64476(16) 0.2660(4)
Ca1_3 Ca 0.99759(6) 0.70221(4) 0.36233(16)
O7_3 O 0.9861(4) 0.7679(3) 0.3584(9)
N2_3 N 0.9944(6) 0.8399(4) 0.3248(17)
C11_3 C 0.9460(11) 0.8257(9) 0.332(4)
H8_3 H 0.937731 0.838767 0.253089
H9_3 H 0.939735 0.837059 0.418310
H10_3 H 0.927424 0.791577 0.329084
O8_3 O 0.9174(6) 0.6704(4) 0.4190(7)
O9_3 O 0.97473(23) 0.68670(17) 0.1244(4)
O10_3 O 0.97996(27) 0.62136(15) 0.4578(4)
Ca3_4 Ca 0.66426(6) 0.03554(4) 0.69566(16)
O1_4 O 0.6820(3) 0.7569(2) 0.8106(6)
O2_4 O 0.6629(4) 0.7493(3) 0.5857(7)
O3_4 O 0.64663(17) 0.95469(15) 0.7911(4)
O5_4 O 0.7591(5) 0.8315(5) 0.5734(11)
O6_2 O 0.7564(3) 0.8773(3) 0.4235(7)
O7_4 O 0.7818(2) 0.7679(3) 0.8584(9)
N1_4 N 0.7418(2) 0.8545(2) 0.5296(6)
N2_4 N 0.8455(4) 0.8399(4) 0.8248(17)
C1_4 C 0.6739(3) 0.8174(2) 0.6985(7)
C2_4 C 0.8602(7) 0.8899(7) 0.766(3)
H1_4 H 0.886804 0.913570 0.819016
H2_4 H 0.869119 0.891594 0.668521
H3_4 H 0.833954 0.895571 0.773892
C3_4 C 0.7040(2) 0.8555(2) 0.6118(5)
C4_4 C 0.7029(2) 0.8979(2) 0.6096(6)
H4_4 H 0.723086 0.922715 0.550233
C5_4 C 0.6711(3) 0.9022(2) 0.6979(7)
C6_4 C 0.6416(3) 0.8653(2) 0.7870(6)
H5_4 H 0.620920 0.868566 0.847925
C7_4 C 0.6431(3) 0.8238(2) 0.7846(7)
H6_4 H 0.622616 0.798992 0.843314
C8_4 C 0.6727(3) 0.7705(2) 0.6991(9)
C9_4 C 0.6696(3) 0.9480(2) 0.6976(7)
C10_4 C 0.7991(4) 0.8088(5) 0.8329(13)
H7_4 H 0.778472 0.820371 0.816957
C11_4 C 0.8797(7) 0.8257(9) 0.832(4)
H8_4 H 0.901036 0.838767 0.753089
H9_4 H 0.897324 0.837059 0.918310
H10_4 H 0.864153 0.791577 0.829084
O8_4 O 0.7531(5) 0.6704(4) 0.9190(7)
O9_4 O 0.71198(15) 0.68670(17) 0.6244(4)
O10_4 O 0.64139(23) 0.62136(15) 0.9578(4)
O12_4 O 0.62067(23) 0.64476(16) 0.7660(4)
O7_5 O 0.2321(3) 0.0139(4) 0.8584(9)
N2_5 N 0.1601(4) 0.0056(6) 0.8248(17)
C11_5 C 0.1743(9) 0.0540(11) 0.832(4)
H8_5 H 0.161233 0.062269 0.753089
H9_5 H 0.162941 0.060265 0.918310
H10_5 H 0.208423 0.072576 0.829084
O8_5 O 0.3296(4) 0.0826(6) 0.9190(7)
O9_5 O 0.31330(17) 0.02527(23) 0.6244(4)
O10_5 O 0.37864(15) 0.02004(27) 0.9578(4)
O1_5 O 0.2431(2) 0.9251(4) 0.8106(6)
O2_5 O 0.2507(3) 0.9136(5) 0.5857(7)
O3_5 O 0.04531(15) 0.69194(23) 0.7911(4)
O5_5 O 0.1685(5) 0.9276(7) 0.5734(11)
O6_3 O 0.1227(3) 0.8791(4) 0.4235(7)
N1_5 N 0.1455(2) 0.8873(3) 0.5296(6)
C1_5 C 0.1826(2) 0.8565(4) 0.6985(7)
C2_5 C 0.1101(7) 0.9703(10) 0.766(3)
H1_5 H 0.086430 0.973234 0.819016
H2_5 H 0.108406 0.977525 0.668521
H3_5 H 0.104429 0.938383 0.773892
C3_5 C 0.1445(2) 0.8485(3) 0.6118(5)
C4_5 C 0.1021(2) 0.8050(3) 0.6096(6)
H4_5 H 0.077285 0.800371 0.550233
C5_5 C 0.0978(2) 0.7689(4) 0.6979(7)
C6_5 C 0.1347(2) 0.7763(4) 0.7870(6)
H5_5 H 0.131434 0.752354 0.847925
C7_5 C 0.1762(2) 0.8193(4) 0.7846(7)
H6_5 H 0.201008 0.823624 0.843314
C8_5 C 0.2295(2) 0.9022(4) 0.6991(9)
C9_5 C 0.0520(2) 0.7216(4) 0.6976(7)
C10_5 C 0.1912(5) 0.9903(6) 0.8329(13)
H7_5 H 0.179629 0.958101 0.816957
O12_5 O 0.35524(16) 0.97592(28) 0.7660(4)
Ca3_5 Ca 0.96446(4) 0.62871(7) 0.69566(16)
O1_6 O 0.0749(4) 0.3180(3) 0.8106(6)
O2_6 O 0.0864(5) 0.3371(4) 0.5857(7)
O3_6 O 0.30806(23) 0.35337(17) 0.7911(4)
O5_6 O 0.0724(7) 0.2409(5) 0.5734(11)
O6_4 O 0.1209(4) 0.2436(3) 0.4235(7)
N1_6 N 0.1127(3) 0.2582(2) 0.5296(6)
C1_6 C 0.1435(4) 0.3261(3) 0.6985(7)
C2_6 C 0.0297(10) 0.1398(7) 0.766(3)
H1_6 H 0.026766 0.113196 0.819016
H2_6 H 0.022475 0.130881 0.668521
H3_6 H 0.061617 0.166046 0.773892
C3_6 C 0.1515(3) 0.2960(2) 0.6118(5)
C4_6 C 0.1950(3) 0.2971(2) 0.6096(6)
H4_6 H 0.199629 0.276914 0.550233
C5_6 C 0.2311(4) 0.3289(3) 0.6979(7)
C6_6 C 0.2237(4) 0.3584(3) 0.7870(6)
H5_6 H 0.247646 0.379080 0.847925
C7_6 C 0.1807(4) 0.3569(3) 0.7846(7)
H6_6 H 0.176376 0.377384 0.843314
C8_6 C 0.0978(4) 0.3273(3) 0.6991(9)
C9_6 C 0.2784(4) 0.3304(3) 0.6976(7)
C10_6 C 0.0097(6) 0.2009(4) 0.8329(13)
H7_6 H 0.041899 0.221528 0.816957
Ca3_6 Ca 0.37129(7) 0.33574(6) 0.69566(16)
O12_6 O 0.02408(28) 0.37933(23) 0.7660(4)
O7_6 O 0.9861(4) 0.2182(2) 0.8584(9)
N2_6 N 0.9944(6) 0.1545(4) 0.8248(17)
C11_6 C 0.9460(11) 0.1203(7) 0.832(4)
H8_6 H 0.937731 0.098964 0.753089
H9_6 H 0.939735 0.102676 0.918310
H10_6 H 0.927424 0.135847 0.829084
O8_6 O 0.9174(6) 0.2469(5) 0.9190(7)
O9_6 O 0.97473(23) 0.28802(15) 0.6244(4)
O10_6 O 0.97996(27) 0.35861(23) 0.9578(4)
O1_7 O 0.9098(2) 0.6513(3) 0.6439(6)
O4_4 O 0.68858(16) 0.64258(17) 0.4326(4)
O5_7 O 0.8352(5) 0.5742(5) 0.4067(11)
O6_5 O 0.7894(3) 0.5769(3) 0.2568(7)
O7_7 O 0.8988(3) 0.5515(2) 0.6917(9)
N1_7 N 0.8122(2) 0.5915(2) 0.3629(6)
N2_7 N 0.8268(4) 0.4878(4) 0.6581(17)
C1_7 C 0.8493(2) 0.6594(3) 0.5318(7)
C2_7 C 0.7768(7) 0.4731(7) 0.599(3)
H1_7 H 0.753097 0.446529 0.652349
H2_7 H 0.775073 0.464214 0.501854
H3_7 H 0.771096 0.499379 0.607225
C3_7 C 0.8112(2) 0.6293(2) 0.4451(5)
C4_7 C 0.7688(2) 0.6304(2) 0.4429(6)
H4_7 H 0.743952 0.610247 0.383566
C5_7 C 0.7645(2) 0.6622(3) 0.5312(7)
C6_7 C 0.8014(2) 0.6917(3) 0.6203(6)
H5_7 H 0.798101 0.712413 0.681258
C7_7 C 0.8429(2) 0.6902(3) 0.6179(7)
H6_7 H 0.867675 0.710717 0.676647
C8_7 C 0.8962(2) 0.6606(3) 0.5324(9)
C9_7 C 0.7187(2) 0.6637(3) 0.5309(7)
C10_7 C 0.8579(5) 0.5342(4) 0.6662(13)
H7_7 H 0.846296 0.554861 0.650290
C11_7 C 0.8410(9) 0.4536(7) 0.665(4)
H8_7 H 0.827900 0.432297 0.586422
H9_7 H 0.829608 0.436009 0.751643
H10_7 H 0.875090 0.469180 0.662417
O8_7 O 0.9962(4) 0.5803(5) 0.7524(7)
O11_4 O 0.95401(23) 0.64258(17) 0.9326(4)
O1_8 O 0.3487(3) 0.2584(4) 0.6439(6)
O4_5 O 0.35742(17) 0.04599(23) 0.4326(4)
O5_8 O 0.4258(5) 0.2609(7) 0.4067(11)
O6_6 O 0.4231(3) 0.2124(4) 0.2568(7)
O7_8 O 0.4485(2) 0.3472(4) 0.6917(9)
N1_8 N 0.4085(2) 0.2206(3) 0.3629(6)
N2_8 N 0.5122(4) 0.3389(6) 0.6581(17)
C1_8 C 0.3406(3) 0.1898(4) 0.5318(7)
C2_8 C 0.5269(7) 0.3036(10) 0.599(3)
H1_8 H 0.553471 0.306567 0.652349
H2_8 H 0.535786 0.310858 0.501854
H3_8 H 0.500621 0.271716 0.607225
C3_8 C 0.3707(2) 0.1818(3) 0.4451(5)
C4_8 C 0.3696(2) 0.1383(3) 0.4429(6)
H4_8 H 0.389753 0.133704 0.383566
C5_8 C 0.3378(3) 0.1022(4) 0.5312(7)
C6_8 C 0.3083(3) 0.1096(4) 0.6203(6)
H5_8 H 0.287587 0.085687 0.681258
C7_8 C 0.3098(3) 0.1526(4) 0.6179(7)
H6_8 H 0.289283 0.156957 0.676647
C8_8 C 0.3394(3) 0.2355(4) 0.5324(9)
C9_8 C 0.3363(3) 0.0549(4) 0.5309(7)
C10_8 C 0.4658(4) 0.3236(6) 0.6662(13)
H7_8 H 0.445139 0.291434 0.650290
C11_8 C 0.5464(7) 0.3873(11) 0.665(4)
H8_8 H 0.567703 0.395602 0.586422
H9_8 H 0.563991 0.393598 0.751643
H10_8 H 0.530820 0.405909 0.662417
O8_8 O 0.4197(5) 0.4160(6) 0.7524(7)
O11_5 O 0.35742(17) 0.31142(29) 0.9326(4)
O1_9 O 0.7416(4) 0.0902(2) 0.6439(6)
O4_6 O 0.95401(23) 0.31142(16) 0.4326(4)
O5_9 O 0.7391(7) 0.1648(5) 0.4067(11)
O6_7 O 0.7876(4) 0.2106(3) 0.2568(7)
O7_9 O 0.6528(4) 0.1012(3) 0.6917(9)
N1_9 N 0.7794(3) 0.1878(2) 0.3629(6)
N2_9 N 0.6611(6) 0.1732(4) 0.6581(17)
C1_9 C 0.8102(4) 0.1507(2) 0.5318(7)
C2_9 C 0.6964(10) 0.2232(7) 0.599(3)
H1_9 H 0.693433 0.246903 0.652349
H2_9 H 0.689142 0.224927 0.501854
H3_9 H 0.728284 0.228904 0.607225
C3_9 C 0.8182(3) 0.1888(2) 0.4451(5)
C4_9 C 0.8617(3) 0.2312(2) 0.4429(6)
H4_9 H 0.866296 0.256048 0.383566
C5_9 C 0.8978(4) 0.2355(2) 0.5312(7)
C6_9 C 0.8904(4) 0.1986(2) 0.6203(6)
H5_9 H 0.914313 0.201899 0.681258
C7_9 C 0.8474(4) 0.1571(2) 0.6179(7)
H6_9 H 0.843043 0.132325 0.676647
C8_9 C 0.7645(4) 0.1038(2) 0.5324(9)
C9_9 C 0.9451(4) 0.2813(2) 0.5309(7)
C10_9 C 0.6764(6) 0.1421(5) 0.6662(13)
H7_9 H 0.708566 0.153704 0.650290
C11_9 C 0.6127(11) 0.1590(9) 0.665(4)
H8_9 H 0.604398 0.172100 0.586422
H9_9 H 0.606402 0.170392 0.751643
H10_9 H 0.594091 0.124910 0.662417
O8_9 O 0.5840(6) 0.0038(4) 0.7524(7)
O11_6 O 0.68858(29) 0.04599(23) 0.9326(4)
O1_10 O 0.3487(3) 0.0902(2) 0.1439(6)
O7_10 O 0.4485(2) 0.1012(3) 0.1917(9)
N2_10 N 0.5122(4) 0.1732(4) 0.1581(17)
C1_10 C 0.3406(3) 0.1507(2) 0.0318(7)
C2_10 C 0.5269(7) 0.2232(7) 0.099(3)
H1_10 H 0.553471 0.246903 0.152349
H2_10 H 0.535786 0.224927 0.001854
H3_10 H 0.500621 0.228904 0.107225
C5_10 C 0.3378(3) 0.2355(2) 0.0312(7)
C6_10 C 0.3083(3) 0.1986(2) 0.1203(6)
H5_10 H 0.287587 0.201899 0.181258
C7_10 C 0.3098(3) 0.1571(2) 0.1179(7)
H6_10 H 0.289283 0.132325 0.176647
C8_10 C 0.3394(3) 0.1038(2) 0.0324(9)
C9_10 C 0.3363(3) 0.2813(2) 0.0309(7)
C10_10 C 0.4658(4) 0.1421(5) 0.1662(13)
H7_10 H 0.445139 0.153704 0.150290
C11_10 C 0.5464(7) 0.1590(9) 0.165(4)
H8_10 H 0.567703 0.172100 0.086422
H9_10 H 0.563991 0.170392 0.251643
H10_10 H 0.530820 0.124910 0.162417
O8_10 O 0.4197(5) 0.0038(4) 0.2524(7)
O5_10 O 0.4258(5) 0.1648(5) 0.9067(11)
O6_8 O 0.4231(3) 0.2106(3) 0.7568(7)
N1_10 N 0.4085(2) 0.1878(2) 0.8629(6)
C3_10 C 0.3707(2) 0.1888(2) 0.9451(5)
C4_10 C 0.3696(2) 0.2312(2) 0.9429(6)
H4_10 H 0.389753 0.256048 0.883566
O1_11 O 0.9098(2) 0.2584(4) 0.1439(6)
O7_11 O 0.8988(3) 0.3472(4) 0.1917(9)
N2_11 N 0.8268(4) 0.3389(6) 0.1581(17)
C1_11 C 0.8493(2) 0.1898(4) 0.0318(7)
C2_11 C 0.7768(7) 0.3036(10) 0.099(3)
H1_11 H 0.753097 0.306567 0.152349
H2_11 H 0.775073 0.310858 0.001854
H3_11 H 0.771096 0.271716 0.107225
C5_11 C 0.7645(2) 0.1022(4) 0.0312(7)
C6_11 C 0.8014(2) 0.1096(4) 0.1203(6)
H5_11 H 0.798101 0.085687 0.181258
C7_11 C 0.8429(2) 0.1526(4) 0.1179(7)
H6_11 H 0.867675 0.156957 0.176647
C8_11 C 0.8962(2) 0.2355(4) 0.0324(9)
C9_11 C 0.7187(2) 0.0549(4) 0.0309(7)
C10_11 C 0.8579(5) 0.3236(6) 0.1662(13)
H7_11 H 0.846296 0.291434 0.150290
C11_11 C 0.8410(9) 0.3873(11) 0.165(4)
H8_11 H 0.827900 0.395602 0.086422
H9_11 H 0.829608 0.393598 0.251643
H10_11 H 0.875090 0.405909 0.162417
O8_11 O 0.9962(4) 0.4160(6) 0.2524(7)
O5_11 O 0.8352(5) 0.2609(7) 0.9067(11)
O6_9 O 0.7894(3) 0.2124(4) 0.7568(7)
N1_11 N 0.8122(2) 0.2206(3) 0.8629(6)
C3_11 C 0.8112(2) 0.1818(3) 0.9451(5)
C4_11 C 0.7688(2) 0.1383(3) 0.9429(6)
H4_11 H 0.743952 0.133704 0.883566
O1_12 O 0.7416(4) 0.6513(3) 0.1439(6)
O7_12 O 0.6528(4) 0.5515(2) 0.1917(9)
N2_12 N 0.6611(6) 0.4878(4) 0.1581(17)
C1_12 C 0.8102(4) 0.6594(3) 0.0318(7)
C2_12 C 0.6964(10) 0.4731(7) 0.099(3)
H1_12 H 0.693433 0.446529 0.152349
H2_12 H 0.689142 0.464214 0.001854
H3_12 H 0.728284 0.499379 0.107225
C5_12 C 0.8978(4) 0.6622(3) 0.0312(7)
C6_12 C 0.8904(4) 0.6917(3) 0.1203(6)
H5_12 H 0.914313 0.712413 0.181258
C7_12 C 0.8474(4) 0.6902(3) 0.1179(7)
H6_12 H 0.843043 0.710717 0.176647
C8_12 C 0.7645(4) 0.6606(3) 0.0324(9)
C9_12 C 0.9451(4) 0.6637(3) 0.0309(7)
C10_12 C 0.6764(6) 0.5342(4) 0.1662(13)
H7_12 H 0.708566 0.554861 0.150290
C11_12 C 0.6127(11) 0.4536(7) 0.165(4)
H8_12 H 0.604398 0.432297 0.086422
H9_12 H 0.606402 0.436009 0.251643
H10_12 H 0.594091 0.469180 0.162417
O8_12 O 0.5840(6) 0.5803(5) 0.2524(7)
O5_12 O 0.7391(7) 0.5742(5) 0.9067(11)
O6_10 O 0.7876(4) 0.5769(3) 0.7568(7)
N1_12 N 0.7794(3) 0.5915(2) 0.8629(6)
C3_12 C 0.8182(3) 0.6293(2) 0.9451(5)
C4_12 C 0.8617(3) 0.6304(2) 0.9429(6)
H4_12 H 0.866296 0.610247 0.883566
H5_13 H 0.464767 0.045747 0.014592
H6_13 H 0.534341 0.044051 0.009981
C6_13 C 0.4680(2) 0.0251(3) 0.9537(6)
C7_13 C 0.5095(2) 0.0236(3) 0.9513(7)
O7_13 O 0.5654(3) 0.8849(2) 0.0251(9)
H9_13 H 0.496274 0.769343 0.084977
O1_13 O 0.5764(2) 0.9847(3) 0.9773(6)
O5_13 O 0.5018(5) 0.9076(5) 0.7401(11)
O6_11 O 0.4560(3) 0.9103(3) 0.5902(7)
N1_13 N 0.4788(2) 0.9249(2) 0.6963(6)
N2_13 N 0.4934(4) 0.8212(4) 0.9915(17)
C1_13 C 0.5159(2) 0.9928(3) 0.8652(7)
C2_13 C 0.4434(7) 0.8065(7) 0.933(3)
H1_13 H 0.419763 0.779863 0.985683
H2_13 H 0.441739 0.797548 0.835188
H3_13 H 0.437762 0.832713 0.940559
C3_13 C 0.4778(2) 0.9627(2) 0.7785(5)
C4_13 C 0.4354(2) 0.9638(2) 0.7763(6)
H4_13 H 0.410618 0.943581 0.716900
C5_13 C 0.4311(2) 0.9956(3) 0.8646(7)
C8_13 C 0.5628(2) 0.9940(3) 0.8658(9)
C9_13 C 0.3853(2) 0.9971(3) 0.8643(7)
C10_13 C 0.5245(5) 0.8676(4) 0.9996(13)
H7_13 H 0.512962 0.888195 0.983624
C11_13 C 0.5076(9) 0.7870(7) 0.999(4)
H8_13 H 0.494566 0.765631 0.919756
H10_13 H 0.541756 0.802514 0.995751
O7_14 O 0.1151(2) 0.6806(4) 0.0251(9)
H9_14 H 0.230657 0.726932 0.084977
O1_14 O 0.0153(3) 0.5918(4) 0.9773(6)
O5_14 O 0.0924(5) 0.5943(7) 0.7401(11)
O6_12 O 0.0897(3) 0.5458(4) 0.5902(7)
N1_14 N 0.0751(2) 0.5540(3) 0.6963(6)
N2_14 N 0.1788(4) 0.6723(6) 0.9915(17)
C1_14 C 0.0072(3) 0.5232(4) 0.8652(7)
C2_14 C 0.1935(7) 0.6370(10) 0.933(3)
H1_14 H 0.220137 0.639901 0.985683
H2_14 H 0.202452 0.644192 0.835188
H3_14 H 0.167287 0.605050 0.940559
C3_14 C 0.0373(2) 0.5152(3) 0.7785(5)
C4_14 C 0.0362(2) 0.4717(3) 0.7763(6)
H4_14 H 0.056419 0.467038 0.716900
C5_14 C 0.0044(3) 0.4356(4) 0.8646(7)
C8_14 C 0.0060(3) 0.5689(4) 0.8658(9)
C9_14 C 0.0029(3) 0.3883(4) 0.8643(7)
C10_14 C 0.1324(4) 0.6570(6) 0.9996(13)
H7_14 H 0.111805 0.624768 0.983624
C11_14 C 0.2130(7) 0.7207(11) 0.999(4)
H8_14 H 0.234369 0.728936 0.919756
H10_14 H 0.197486 0.739243 0.995751
H5_14 H 0.954253 0.419021 0.014592
H6_14 H 0.955949 0.490291 0.009981
C6_14 C 0.9749(3) 0.4430(4) 0.9537(6)
C7_14 C 0.9764(3) 0.4860(4) 0.9513(7)
O7_15 O 0.3194(4) 0.4346(3) 0.0251(9)
H5_15 H 0.580979 0.535233 0.014592
H6_15 H 0.509709 0.465659 0.009981
H9_15 H 0.273068 0.503726 0.084977
O1_15 O 0.4082(4) 0.4236(2) 0.9773(6)
O5_15 O 0.4057(7) 0.4982(5) 0.7401(11)
O6_13 O 0.4542(4) 0.5440(3) 0.5902(7)
N1_15 N 0.4460(3) 0.5212(2) 0.6963(6)
N2_15 N 0.3277(6) 0.5066(4) 0.9915(17)
C1_15 C 0.4768(4) 0.4841(2) 0.8652(7)
C2_15 C 0.3630(10) 0.5566(7) 0.933(3)
H1_15 H 0.360099 0.580237 0.985683
H2_15 H 0.355808 0.558261 0.835188
H3_15 H 0.394950 0.562238 0.940559
C3_15 C 0.4848(3) 0.5222(2) 0.7785(5)
C4_15 C 0.5283(3) 0.5646(2) 0.7763(6)
H4_15 H 0.532962 0.589382 0.716900
C5_15 C 0.5644(4) 0.5689(2) 0.8646(7)
C6_15 C 0.5570(4) 0.5320(2) 0.9537(6)
C7_15 C 0.5140(4) 0.4905(2) 0.9513(7)
C8_15 C 0.4311(4) 0.4372(2) 0.8658(9)
C9_15 C 0.6117(4) 0.6147(2) 0.8643(7)
C10_15 C 0.3430(6) 0.4755(5) 0.9996(13)
H7_15 H 0.375232 0.487038 0.983624
C11_15 C 0.2793(11) 0.4924(9) 0.999(4)
H8_15 H 0.271064 0.505434 0.919756
H10_15 H 0.260757 0.458244 0.995751
O1_16 O 0.0153(3) 0.4236(2) 0.4773(6)
O5_16 O 0.0924(5) 0.4982(5) 0.2401(11)
O6_14 O 0.0897(3) 0.5440(3) 0.0902(7)
O7_16 O 0.1151(2) 0.4346(3) 0.5251(9)
N1_16 N 0.0751(2) 0.5212(2) 0.1963(6)
N2_16 N 0.1788(4) 0.5066(4) 0.4915(17)
C1_16 C 0.0072(3) 0.4841(2) 0.3652(7)
C2_16 C 0.1935(7) 0.5566(7) 0.433(3)
H1_16 H 0.220137 0.580237 0.485683
H2_16 H 0.202452 0.558261 0.335188
H3_16 H 0.167287 0.562238 0.440559
C3_16 C 0.0373(2) 0.5222(2) 0.2785(5)
C4_16 C 0.0362(2) 0.5646(2) 0.2763(6)
H4_16 H 0.056419 0.589382 0.216900
C5_16 C 0.0044(3) 0.5689(2) 0.3646(7)
C8_16 C 0.0060(3) 0.4372(2) 0.3658(9)
C9_16 C 0.0029(3) 0.6147(2) 0.3643(7)
C10_16 C 0.1324(4) 0.4755(5) 0.4996(13)
H7_16 H 0.111805 0.487038 0.483624
C11_16 C 0.2130(7) 0.4924(9) 0.499(4)
H8_16 H 0.234369 0.505434 0.419756
H9_16 H 0.230657 0.503726 0.584977
H10_16 H 0.197486 0.458244 0.495751
C6_16 C 0.9749(3) 0.5320(2) 0.4537(6)
H5_16 H 0.954253 0.535233 0.514592
C7_16 C 0.9764(3) 0.4905(2) 0.4513(7)
H6_16 H 0.955949 0.465659 0.509981
O1_17 O 0.5764(2) 0.5918(4) 0.4773(6)
O5_17 O 0.5018(5) 0.5943(7) 0.2401(11)
O6_15 O 0.4560(3) 0.5458(4) 0.0902(7)
O7_17 O 0.5654(3) 0.6806(4) 0.5251(9)
N1_17 N 0.4788(2) 0.5540(3) 0.1963(6)
N2_17 N 0.4934(4) 0.6723(6) 0.4915(17)
C1_17 C 0.5159(2) 0.5232(4) 0.3652(7)
C2_17 C 0.4434(7) 0.6370(10) 0.433(3)
H1_17 H 0.419763 0.639901 0.485683
H2_17 H 0.441739 0.644192 0.335188
H3_17 H 0.437762 0.605050 0.440559
C3_17 C 0.4778(2) 0.5152(3) 0.2785(5)
C4_17 C 0.4354(2) 0.4717(3) 0.2763(6)
H4_17 H 0.410618 0.467038 0.216900
C5_17 C 0.4311(2) 0.4356(4) 0.3646(7)
C6_17 C 0.4680(2) 0.4430(4) 0.4537(6)
H5_17 H 0.464767 0.419021 0.514592
C7_17 C 0.5095(2) 0.4860(4) 0.4513(7)
H6_17 H 0.534341 0.490291 0.509981
C8_17 C 0.5628(2) 0.5689(4) 0.3658(9)
C9_17 C 0.3853(2) 0.3883(4) 0.3643(7)
C10_17 C 0.5245(5) 0.6570(6) 0.4996(13)
H7_17 H 0.512962 0.624768 0.483624
C11_17 C 0.5076(9) 0.7207(11) 0.499(4)
H8_17 H 0.494566 0.728936 0.419756
H9_17 H 0.496274 0.726932 0.584977
H10_17 H 0.541756 0.739243 0.495751
C6_18 C 0.5570(4) 0.0251(3) 0.4537(6)
H5_18 H 0.580979 0.045747 0.514592
C7_18 C 0.5140(4) 0.0236(3) 0.4513(7)
H6_18 H 0.509709 0.044051 0.509981
O1_18 O 0.4082(4) 0.9847(3) 0.4773(6)
O5_18 O 0.4057(7) 0.9076(5) 0.2401(11)
O6_16 O 0.4542(4) 0.9103(3) 0.0902(7)
O7_18 O 0.3194(4) 0.8849(2) 0.5251(9)
N1_18 N 0.4460(3) 0.9249(2) 0.1963(6)
N2_18 N 0.3277(6) 0.8212(4) 0.4915(17)
C1_18 C 0.4768(4) 0.9928(3) 0.3652(7)
C2_18 C 0.3630(10) 0.8065(7) 0.433(3)
H1_18 H 0.360099 0.779863 0.485683
H2_18 H 0.355808 0.797548 0.335188
H3_18 H 0.394950 0.832713 0.440559
C3_18 C 0.4848(3) 0.9627(2) 0.2785(5)
C4_18 C 0.5283(3) 0.9638(2) 0.2763(6)
H4_18 H 0.532962 0.943581 0.216900
C5_18 C 0.5644(4) 0.9956(3) 0.3646(7)
C8_18 C 0.4311(4) 0.9940(3) 0.3658(9)
C9_18 C 0.6117(4) 0.9971(3) 0.3643(7)
C10_18 C 0.3430(6) 0.8676(4) 0.4996(13)
H7_18 H 0.375232 0.888195 0.483624
C11_18 C 0.2793(11) 0.7870(7) 0.499(4)
H8_18 H 0.271064 0.765631 0.419756
H9_18 H 0.273068 0.769343 0.584977
H10_18 H 0.260757 0.802514 0.495751
O6_17 O 0.1227(3) 0.2436(3) 0.9235(7)
O6_18 O 0.1209(4) 0.8773(3) 0.9235(7)
loop_
_geom_bond_atom_site_label_1
_geom_bond_atom_site_label_2
_geom_bond_site_symmetry_1
_geom_bond_site_symmetry_2
Ca1 O1 1_555 1_555
O1 C8 1_555 1_555
O2 C8 1_555 1_555
O3 C9 1_555 1_555
O4 C9 1_555 1_555
O5 N1 1_555 1_555
O7 Ca1 1_555 1_555
N1 C3 1_555 1_555
N2 C2 1_555 1_555
C1 C3 1_555 1_555
C2 H1 1_555 1_555
H2 C2 1_555 1_555
H3 C2 1_555 1_555
C3 C4 1_555 1_555
C4 H4 1_555 1_555
C5 C4 1_555 1_555
C6 C5 1_555 1_555
H5 C6 1_555 1_555
C7 C1 1_555 1_555
H6 C7 1_555 1_555
C8 C1 1_555 1_555
C9 C5 1_555 1_555
C10 O7 1_555 1_555
H7 C10 1_555 1_555
C11 N2 1_555 1_555
H8 C11 1_555 1_555
H9 C11 1_555 1_555
H10 C11 1_555 1_555
Ca4 O2 1_555 1_555
Ca5 O3 1_555 1_555
O8 Ca1 1_555 1_555
O9 Ca1 1_555 1_555
O10 Ca1 1_555 1_555
O11 Ca1 1_555 1_555
O12 Ca1 1_555 1_555
N2 C10 1_555 1_555
C6 C7 1_555 1_555
Ca4 O9 1_555 1_555
Ca4 O12 1_555 1_555
O7_2 Ca1_2 1_555 1_555
C11_2 N2_2 1_555 1_555
H8_2 C11_2 1_555 1_555
H9_2 C11_2 1_555 1_555
H10_2 C11_2 1_555 1_555
O8_2 Ca1_2 1_555 1_555
O9_2 Ca1_2 1_555 1_555
O10_2 Ca1_2 1_555 1_555
O1_2 C8_2 1_555 1_555
O2_2 C8_2 1_555 1_555
O3_2 C9_2 1_555 1_555
O4_2 C9_2 1_555 1_555
O5_2 N1_2 1_555 1_555
N1_2 C3_2 1_555 1_555
C1_2 C3_2 1_555 1_555
C2_2 H1_2 1_555 1_555
H2_2 C2_2 1_555 1_555
H3_2 C2_2 1_555 1_555
C3_2 C4_2 1_555 1_555
C4_2 H4_2 1_555 1_555
C5_2 C4_2 1_555 1_555
C6_2 C5_2 1_555 1_555
H5_2 C6_2 1_555 1_555
C7_2 C1_2 1_555 1_555
H6_2 C7_2 1_555 1_555
C8_2 C1_2 1_555 1_555
C9_2 C5_2 1_555 1_555
H7_2 C10_2 1_555 1_555
Ca3_2 O3_2 1_555 1_555
Ca4_2 O2_2 1_555 1_555
Ca5_2 O3_2 1_555 1_555
O4_2 Ca3_2 1_555 1_555
C6_2 C7_2 1_555 1_555
Ca4_2 O12_2 1_555 1_555
O1_3 C8_3 1_555 1_555
O2_3 C8_3 1_555 1_555
O3_3 C9_3 1_555 1_555
O4_3 C9_3 1_555 1_555
O5_3 N1_3 1_555 1_555
N1_3 C3_3 1_555 1_555
C1_3 C3_3 1_555 1_555
C2_3 H1_3 1_555 1_555
H2_3 C2_3 1_555 1_555
H3_3 C2_3 1_555 1_555
C3_3 C4_3 1_555 1_555
C4_3 H4_3 1_555 1_555
C5_3 C4_3 1_555 1_555
C6_3 C5_3 1_555 1_555
H5_3 C6_3 1_555 1_555
C7_3 C1_3 1_555 1_555
H6_3 C7_3 1_555 1_555
C8_3 C1_3 1_555 1_555
C9_3 C5_3 1_555 1_555
H7_3 C10_3 1_555 1_555
Ca4_3 O2_3 1_555 1_555
Ca5_3 O3_3 1_555 1_555
C6_3 C7_3 1_555 1_555
Ca4_3 O12_3 1_555 1_555
O7_3 Ca1_3 1_555 1_555
C11_3 N2_3 1_555 1_555
H8_3 C11_3 1_555 1_555
H9_3 C11_3 1_555 1_555
H10_3 C11_3 1_555 1_555
O8_3 Ca1_3 1_555 1_555
O9_3 Ca1_3 1_555 1_555
O10_3 Ca1_3 1_555 1_555
Ca2_2 O1_4 1_555 1_555
O1_4 C8_4 1_555 1_555
O2_4 C8_4 1_555 1_555
O3_4 C9_4 1_555 1_555
O11_2 C9_4 1_555 1_555
O5_4 N1_4 1_555 1_555
O6_2 N1_4 1_555 1_555
O7_4 Ca2_2 1_555 1_555
N1_4 C3_4 1_555 1_555
N2_4 C2_4 1_555 1_555
C1_4 C3_4 1_555 1_555
C2_4 H1_4 1_555 1_555
H2_4 C2_4 1_555 1_555
H3_4 C2_4 1_555 1_555
C3_4 C4_4 1_555 1_555
C4_4 H4_4 1_555 1_555
C5_4 C4_4 1_555 1_555
C6_4 C5_4 1_555 1_555
H5_4 C6_4 1_555 1_555
C7_4 C1_4 1_555 1_555
H6_4 C7_4 1_555 1_555
C8_4 C1_4 1_555 1_555
C9_4 C5_4 1_555 1_555
C10_4 O7_4 1_555 1_555
H7_4 C10_4 1_555 1_555
C11_4 N2_4 1_555 1_555
H8_4 C11_4 1_555 1_555
H9_4 C11_4 1_555 1_555
H10_4 C11_4 1_555 1_555
Ca5_2 O2_4 1_555 1_555
O8_4 Ca2_2 1_555 1_555
O9_4 Ca2_2 1_555 1_555
O10_4 Ca2_2 1_555 1_555
O12_4 Ca2_2 1_555 1_555
N2_4 C10_4 1_555 1_555
C6_4 C7_4 1_555 1_555
Ca5_2 O9_4 1_555 1_555
Ca5_2 O12_4 1_555 1_555
O7_5 Ca2_3 1_555 1_555
C11_5 N2_5 1_555 1_555
H8_5 C11_5 1_555 1_555
H9_5 C11_5 1_555 1_555
H10_5 C11_5 1_555 1_555
O8_5 Ca2_3 1_555 1_555
O9_5 Ca2_3 1_555 1_555
O10_5 Ca2_3 1_555 1_555
O1_5 C8_5 1_555 1_555
O2_5 C8_5 1_555 1_555
O3_5 C9_5 1_555 1_555
O11_3 C9_5 1_555 1_555
O5_5 N1_5 1_555 1_555
O6_3 N1_5 1_555 1_555
N1_5 C3_5 1_555 1_555
C1_5 C3_5 1_555 1_555
C2_5 H1_5 1_555 1_555
H2_5 C2_5 1_555 1_555
H3_5 C2_5 1_555 1_555
C3_5 C4_5 1_555 1_555
C4_5 H4_5 1_555 1_555
C5_5 C4_5 1_555 1_555
C6_5 C5_5 1_555 1_555
H5_5 C6_5 1_555 1_555
C7_5 C1_5 1_555 1_555
H6_5 C7_5 1_555 1_555
C8_5 C1_5 1_555 1_555
C9_5 C5_5 1_555 1_555
H7_5 C10_5 1_555 1_555
Ca5_3 O2_5 1_555 1_555
C6_5 C7_5 1_555 1_555
Ca5_3 O12_5 1_555 1_555
O1_6 C8_6 1_555 1_555
O2_6 C8_6 1_555 1_555
O3_6 C9_6 1_555 1_555
O11 C9_6 1_555 1_555
O5_6 N1_6 1_555 1_555
O6_4 N1_6 1_555 1_555
N1_6 C3_6 1_555 1_555
C1_6 C3_6 1_555 1_555
C2_6 H1_6 1_555 1_555
H2_6 C2_6 1_555 1_555
H3_6 C2_6 1_555 1_555
C3_6 C4_6 1_555 1_555
C4_6 H4_6 1_555 1_555
C5_6 C4_6 1_555 1_555
C6_6 C5_6 1_555 1_555
H5_6 C6_6 1_555 1_555
C7_6 C1_6 1_555 1_555
H6_6 C7_6 1_555 1_555
C8_6 C1_6 1_555 1_555
C9_6 C5_6 1_555 1_555
H7_6 C10_6 1_555 1_555
Ca3_6 O3_6 1_555 1_555
Ca5 O2_6 1_555 1_555
O11 Ca3_6 1_555 1_555
C6_6 C7_6 1_555 1_555
Ca5 O12_6 1_555 1_555
O7_6 Ca2 1_555 1_555
C11_6 N2_6 1_555 1_555
H8_6 C11_6 1_555 1_555
H9_6 C11_6 1_555 1_555
H10_6 C11_6 1_555 1_555
O8_6 Ca2 1_555 1_555
O9_6 Ca2 1_555 1_555
O10_6 Ca2 1_555 1_555
Ca3_5 O1_7 1_555 1_555
O1_7 C8_7 1_555 1_555
O8_3 C8_7 1_555 1_555
O9_4 C9_7 1_555 1_555
O4_4 C9_7 1_555 1_555
O5_7 N1_7 1_555 1_555
O6_5 N1_7 1_555 1_555
O7_7 Ca3_5 1_555 1_555
N1_7 C3_7 1_555 1_555
N2_7 C2_7 1_555 1_555
C1_7 C3_7 1_555 1_555
C2_7 H1_7 1_555 1_555
H2_7 C2_7 1_555 1_555
H3_7 C2_7 1_555 1_555
C3_7 C4_7 1_555 1_555
C4_7 H4_7 1_555 1_555
C5_7 C4_7 1_555 1_555
C6_7 C5_7 1_555 1_555
H5_7 C6_7 1_555 1_555
C7_7 C1_7 1_555 1_555
H6_7 C7_7 1_555 1_555
C8_7 C1_7 1_555 1_555
C9_7 C5_7 1_555 1_555
C10_7 O7_7 1_555 1_555
H7_7 C10_7 1_555 1_555
C11_7 N2_7 1_555 1_555
H8_7 C11_7 1_555 1_555
H9_7 C11_7 1_555 1_555
H10_7 C11_7 1_555 1_555
Ca3_2 O4_4 1_555 1_555
O8_7 Ca3_5 1_555 1_555
O10_3 Ca3_5 1_555 1_555
O11_4 Ca3_5 1_555 1_555
O4_4 Ca5_2 1_555 1_555
N2_7 C10_7 1_555 1_555
C6_7 C7_7 1_555 1_555
Ca3_6 O1_8 1_555 1_555
O1_8 C8_8 1_555 1_555
O8 C8_8 1_555 1_555
O9_5 C9_8 1_555 1_555
O4_5 C9_8 1_555 1_555
O5_8 N1_8 1_555 1_555
O6_6 N1_8 1_555 1_555
O7_8 Ca3_6 1_555 1_555
N1_8 C3_8 1_555 1_555
N2_8 C2_8 1_555 1_555
C1_8 C3_8 1_555 1_555
C2_8 H1_8 1_555 1_555
H2_8 C2_8 1_555 1_555
H3_8 C2_8 1_555 1_555
C3_8 C4_8 1_555 1_555
C4_8 H4_8 1_555 1_555
C5_8 C4_8 1_555 1_555
C6_8 C5_8 1_555 1_555
H5_8 C6_8 1_555 1_555
C7_8 C1_8 1_555 1_555
H6_8 C7_8 1_555 1_555
C8_8 C1_8 1_555 1_555
C9_8 C5_8 1_555 1_555
C10_8 O7_8 1_555 1_555
H7_8 C10_8 1_555 1_555
C11_8 N2_8 1_555 1_555
H8_8 C11_8 1_555 1_555
H9_8 C11_8 1_555 1_555
H10_8 C11_8 1_555 1_555
Ca3_3 O4_5 1_555 1_555
O8_8 Ca3_6 1_555 1_555
O10 Ca3_6 1_555 1_555
O11_5 Ca3_6 1_555 1_555
N2_8 C10_8 1_555 1_555
C6_8 C7_8 1_555 1_555
Ca3_4 O1_9 1_555 1_555
O1_9 C8_9 1_555 1_555
O8_2 C8_9 1_555 1_555
O9_6 C9_9 1_555 1_555
O4_6 C9_9 1_555 1_555
O5_9 N1_9 1_555 1_555
O6_7 N1_9 1_555 1_555
O7_9 Ca3_4 1_555 1_555
N1_9 C3_9 1_555 1_555
N2_9 C2_9 1_555 1_555
C1_9 C3_9 1_555 1_555
C2_9 H1_9 1_555 1_555
H2_9 C2_9 1_555 1_555
H3_9 C2_9 1_555 1_555
C3_9 C4_9 1_555 1_555
C4_9 H4_9 1_555 1_555
C5_9 C4_9 1_555 1_555
C6_9 C5_9 1_555 1_555
H5_9 C6_9 1_555 1_555
C7_9 C1_9 1_555 1_555
H6_9 C7_9 1_555 1_555
C8_9 C1_9 1_555 1_555
C9_9 C5_9 1_555 1_555
C10_9 O7_9 1_555 1_555
H7_9 C10_9 1_555 1_555
C11_9 N2_9 1_555 1_555
H8_9 C11_9 1_555 1_555
H9_9 C11_9 1_555 1_555
H10_9 C11_9 1_555 1_555
Ca3 O4_6 1_555 1_555
O8_9 Ca3_4 1_555 1_555
O10_2 Ca3_4 1_555 1_555
O11_6 Ca3_4 1_555 1_555
N2_9 C10_9 1_555 1_555
C6_9 C7_9 1_555 1_555
Ca3_3 O1_10 1_555 1_555
O1_10 C8_10 1_555 1_555
O9 C9_10 1_555 1_555
O7_10 Ca3_3 1_555 1_555
N2_10 C2_10 1_555 1_555
C2_10 H1_10 1_555 1_555
H2_10 C2_10 1_555 1_555
H3_10 C2_10 1_555 1_555
C6_10 C5_10 1_555 1_555
H5_10 C6_10 1_555 1_555
C7_10 C1_10 1_555 1_555
H6_10 C7_10 1_555 1_555
C8_10 C1_10 1_555 1_555
C9_10 C5_10 1_555 1_555
C10_10 O7_10 1_555 1_555
H7_10 C10_10 1_555 1_555
C11_10 N2_10 1_555 1_555
H8_10 C11_10 1_555 1_555
H9_10 C11_10 1_555 1_555
H10_10 C11_10 1_555 1_555
O8_10 Ca3_3 1_555 1_555
N2_10 C10_10 1_555 1_555
C6_10 C7_10 1_555 1_555
O5_10 N1_10 1_555 1_555
O6_8 N1_10 1_555 1_555
N1_10 C3_10 1_555 1_555
C3_10 C4_10 1_555 1_555
C4_10 H4_10 1_555 1_555
Ca3 O1_11 1_555 1_555
O1_11 C8_11 1_555 1_555
O9_2 C9_11 1_555 1_555
O7_11 Ca3 1_555 1_555
N2_11 C2_11 1_555 1_555
C2_11 H1_11 1_555 1_555
H2_11 C2_11 1_555 1_555
H3_11 C2_11 1_555 1_555
C6_11 C5_11 1_555 1_555
H5_11 C6_11 1_555 1_555
C7_11 C1_11 1_555 1_555
H6_11 C7_11 1_555 1_555
C8_11 C1_11 1_555 1_555
C9_11 C5_11 1_555 1_555
C10_11 O7_11 1_555 1_555
H7_11 C10_11 1_555 1_555
C11_11 N2_11 1_555 1_555
H8_11 C11_11 1_555 1_555
H9_11 C11_11 1_555 1_555
H10_11 C11_11 1_555 1_555
O8_11 Ca3 1_555 1_555
N2_11 C10_11 1_555 1_555
C6_11 C7_11 1_555 1_555
O5_11 N1_11 1_555 1_555
O6_9 N1_11 1_555 1_555
N1_11 C3_11 1_555 1_555
C3_11 C4_11 1_555 1_555
C4_11 H4_11 1_555 1_555
Ca3_2 O1_12 1_555 1_555
O1_12 C8_12 1_555 1_555
O9_3 C9_12 1_555 1_555
O7_12 Ca3_2 1_555 1_555
N2_12 C2_12 1_555 1_555
C2_12 H1_12 1_555 1_555
H2_12 C2_12 1_555 1_555
H3_12 C2_12 1_555 1_555
C6_12 C5_12 1_555 1_555
H5_12 C6_12 1_555 1_555
C7_12 C1_12 1_555 1_555
H6_12 C7_12 1_555 1_555
C8_12 C1_12 1_555 1_555
C9_12 C5_12 1_555 1_555
C10_12 O7_12 1_555 1_555
H7_12 C10_12 1_555 1_555
C11_12 N2_12 1_555 1_555
H8_12 C11_12 1_555 1_555
H9_12 C11_12 1_555 1_555
H10_12 C11_12 1_555 1_555
O8_12 Ca3_2 1_555 1_555
N2_12 C10_12 1_555 1_555
C6_12 C7_12 1_555 1_555
O5_12 N1_12 1_555 1_555
O6_10 N1_12 1_555 1_555
N1_12 C3_12 1_555 1_555
C3_12 C4_12 1_555 1_555
C4_12 H4_12 1_555 1_555
C6_13 C7_13 1_555 1_555
O7_13 Ca4_2 1_555 1_555
O1_13 C8_13 1_555 1_555
O12_5 C9_13 1_555 1_555
O5_13 N1_13 1_555 1_555
O6_11 N1_13 1_555 1_555
N1_13 C3_13 1_555 1_555
N2_13 C2_13 1_555 1_555
C1_13 C3_13 1_555 1_555
C2_13 H1_13 1_555 1_555
H2_13 C2_13 1_555 1_555
H3_13 C2_13 1_555 1_555
C3_13 C4_13 1_555 1_555
C4_13 H4_13 1_555 1_555
C5_13 C4_13 1_555 1_555
C8_13 C1_13 1_555 1_555
C9_13 C5_13 1_555 1_555
H7_13 C10_13 1_555 1_555
C11_13 N2_13 1_555 1_555
H8_13 C11_13 1_555 1_555
H10_13 C11_13 1_555 1_555
N2_13 C10_13 1_555 1_555
O7_14 Ca4_3 1_555 1_555
O1_14 C8_14 1_555 1_555
O12_6 C9_14 1_555 1_555
O5_14 N1_14 1_555 1_555
O6_12 N1_14 1_555 1_555
N1_14 C3_14 1_555 1_555
N2_14 C2_14 1_555 1_555
C1_14 C3_14 1_555 1_555
C2_14 H1_14 1_555 1_555
H2_14 C2_14 1_555 1_555
H3_14 C2_14 1_555 1_555
C3_14 C4_14 1_555 1_555
C4_14 H4_14 1_555 1_555
C5_14 C4_14 1_555 1_555
C8_14 C1_14 1_555 1_555
C9_14 C5_14 1_555 1_555
H7_14 C10_14 1_555 1_555
C11_14 N2_14 1_555 1_555
H8_14 C11_14 1_555 1_555
H10_14 C11_14 1_555 1_555
N2_14 C10_14 1_555 1_555
C6_14 C7_14 1_555 1_555
O7_15 Ca4 1_555 1_555
O1_15 C8_15 1_555 1_555
O8_8 C8_15 1_555 1_555
O10_4 C9_15 1_555 1_555
O12_4 C9_15 1_555 1_555
O5_15 N1_15 1_555 1_555
O6_13 N1_15 1_555 1_555
N1_15 C3_15 1_555 1_555
N2_15 C2_15 1_555 1_555
C1_15 C3_15 1_555 1_555
C2_15 H1_15 1_555 1_555
H2_15 C2_15 1_555 1_555
H3_15 C2_15 1_555 1_555
C3_15 C4_15 1_555 1_555
C4_15 H4_15 1_555 1_555
C5_15 C4_15 1_555 1_555
C6_15 C5_15 1_555 1_555
C7_15 C1_15 1_555 1_555
C8_15 C1_15 1_555 1_555
C9_15 C5_15 1_555 1_555
H7_15 C10_15 1_555 1_555
C11_15 N2_15 1_555 1_555
H8_15 C11_15 1_555 1_555
H10_15 C11_15 1_555 1_555
N2_15 C10_15 1_555 1_555
C6_15 C7_15 1_555 1_555
Ca5 O1_16 1_555 1_555
O1_16 C8_16 1_555 1_555
O12_3 C9_16 1_555 1_555
O5_16 N1_16 1_555 1_555
O6_14 N1_16 1_555 1_555
O7_16 Ca5 1_555 1_555
N1_16 C3_16 1_555 1_555
N2_16 C2_16 1_555 1_555
C1_16 C3_16 1_555 1_555
C2_16 H1_16 1_555 1_555
H2_16 C2_16 1_555 1_555
H3_16 C2_16 1_555 1_555
C3_16 C4_16 1_555 1_555
C4_16 H4_16 1_555 1_555
C5_16 C4_16 1_555 1_555
C8_16 C1_16 1_555 1_555
C9_16 C5_16 1_555 1_555
C10_16 O7_16 1_555 1_555
H7_16 C10_16 1_555 1_555
C11_16 N2_16 1_555 1_555
H8_16 C11_16 1_555 1_555
H9_16 C11_16 1_555 1_555
H10_16 C11_16 1_555 1_555
N2_16 C10_16 1_555 1_555
H5_16 C6_16 1_555 1_555
H6_16 C7_16 1_555 1_555
C6_16 C7_16 1_555 1_555
Ca5_2 O1_17 1_555 1_555
O1_17 C8_17 1_555 1_555
O8_12 C8_17 1_555 1_555
O10 C9_17 1_555 1_555
O12 C9_17 1_555 1_555
O5_17 N1_17 1_555 1_555
O6_15 N1_17 1_555 1_555
O7_17 Ca5_2 1_555 1_555
N1_17 C3_17 1_555 1_555
N2_17 C2_17 1_555 1_555
C1_17 C3_17 1_555 1_555
C2_17 H1_17 1_555 1_555
H2_17 C2_17 1_555 1_555
H3_17 C2_17 1_555 1_555
C3_17 C4_17 1_555 1_555
C4_17 H4_17 1_555 1_555
C5_17 C4_17 1_555 1_555
C6_17 C5_17 1_555 1_555
H5_17 C6_17 1_555 1_555
C7_17 C1_17 1_555 1_555
H6_17 C7_17 1_555 1_555
C8_17 C1_17 1_555 1_555
C9_17 C5_17 1_555 1_555
C10_17 O7_17 1_555 1_555
H7_17 C10_17 1_555 1_555
C11_17 N2_17 1_555 1_555
H8_17 C11_17 1_555 1_555
H9_17 C11_17 1_555 1_555
H10_17 C11_17 1_555 1_555
N2_17 C10_17 1_555 1_555
C6_17 C7_17 1_555 1_555
H5_18 C6_18 1_555 1_555
H6_18 C7_18 1_555 1_555
C6_18 C7_18 1_555 1_555
Ca5_3 O1_18 1_555 1_555
O1_18 C8_18 1_555 1_555
O12_2 C9_18 1_555 1_555
O5_18 N1_18 1_555 1_555
O6_16 N1_18 1_555 1_555
O7_18 Ca5_3 1_555 1_555
N1_18 C3_18 1_555 1_555
N2_18 C2_18 1_555 1_555
C1_18 C3_18 1_555 1_555
C2_18 H1_18 1_555 1_555
H2_18 C2_18 1_555 1_555
H3_18 C2_18 1_555 1_555
C3_18 C4_18 1_555 1_555
C4_18 H4_18 1_555 1_555
C5_18 C4_18 1_555 1_555
C8_18 C1_18 1_555 1_555
C9_18 C5_18 1_555 1_555
C10_18 O7_18 1_555 1_555
H7_18 C10_18 1_555 1_555
C11_18 N2_18 1_555 1_555
H8_18 C11_18 1_555 1_555
H9_18 C11_18 1_555 1_555
H10_18 C11_18 1_555 1_555
N2_18 C10_18 1_555 1_555

#END
