
###############################################################################
#
# This file contains modified crystal structure data generated from the
# MOF subset of the Cambridge Structural Database (CSD) v543 
# hosted by the Cambridge Crystallographic Data Centre (CCDC).
#
# This work is licensed under the Creative Commons
# Attribution-NonCommercial-ShareAlike 4.0 International License.
# To view a copy of this license, visit
# http://creativecommons.org/licenses/by-nc-sa/4.0/
# or send a letter to
# Creative Commons, PO Box 1866, Mountain View, CA 94042, USA.
#
# CIF created using the CSD Python API on 29 September 2022
# The structure has been converted into the P1 space group
# The structure has a 3D framework
# The original CSD entry MOXJOZ is in the cubic crystal system
# The framework has been calculated to contain at least 10.0% void space
# The void calculation uses a probe of radius 1.32A, grid spacing 0.4
#
###############################################################################

data_MOXJOZ
_chemical_formula_moiety         '(C96 H120 B12 Cu3 N48)n'
_symmetry_cell_setting           triclinic
_symmetry_space_group_name_H-M   'P 1'
_symmetry_Int_Tables_number      1
_space_group_name_Hall           'P 1'
loop_
_symmetry_equiv_pos_site_id
_symmetry_equiv_pos_as_xyz
1 x,y,z
_cell_length_a                   16.0184(2)
_cell_length_b                   16.0184(2)
_cell_length_c                   16.0184(2)
_cell_angle_alpha                90
_cell_angle_beta                 90
_cell_angle_gamma                90
_cell_volume                     4110.15
loop_
_atom_site_label
_atom_site_type_symbol
_atom_site_fract_x
_atom_site_fract_y
_atom_site_fract_z
Cu1 Cu 0.5000 0.0000 0.2500
B1 B 0.2500 0.0000 0.5000
N1 N 0.4029(3) 0.0312(3) 0.3269(3)
N2 N 0.3071(3) 0.0302(3) 0.4272(3)
C1 C 0.3013(4) 0.1063(4) 0.3868(4)
H1 H 0.2642 0.1493 0.3988
C2 C 0.3605(4) 0.1058(4) 0.3264(4)
H2 H 0.3710 0.1496 0.2898
Cu2 Cu 0.5000 -0.0000 0.7500
Cu4 Cu -0.0000 0.2500 0.5000
N5 N 0.0971(3) 0.1731(3) 0.5312(3)
N7 N 0.5312(3) 0.0971(3) 0.1731(3)
N11 N 0.1929(3) 0.0728(3) 0.5302(3)
C7 C 0.1987(4) 0.1132(4) 0.6063(4)
H8 H 0.2358 0.1012 0.6493
C10 C 0.1395(4) 0.1736(4) 0.6058(4)
H11 H 0.1290 0.2102 0.6496
C11 C 0.3707(3) 0.0107(4) 0.6115(4)
C13 C 0.1293(3) 0.1115(4) 0.4893(4)
C14 C 0.4031(4) 0.0953(4) 0.5849(4)
C16 C 0.0969(4) 0.0849(4) 0.4047(4)
H12 H 0.4478 0.1119 0.6212
H14 H 0.0522 0.1212 0.3881
H15 H 0.3589 0.1356 0.5879
H17 H 0.1411 0.0879 0.3644
H18 H 0.4234 0.0921 0.5285
H20 H 0.0766 0.0285 0.4079
Cu1_2 Cu 0.5000 1.0000 0.2500
B1_2 B 0.2500 1.0000 0.5000
C3 C 0.3707(3) 0.9893(4) 0.3885(4)
C4 C 0.4031(4) 0.9047(4) 0.4151(4)
H3 H 0.4478 0.8881 0.3788
H4 H 0.3589 0.8644 0.4121
H5 H 0.4234 0.9079 0.4715
Cu2_2 Cu 0.5000 1.0000 0.7500
Cu3 Cu -0.0000 0.7500 0.5000
N3 N 0.4029(3) 0.9688(3) 0.6731(3)
N4 N 0.0971(3) 0.8269(3) 0.4688(3)
N6 N 0.5971(3) 0.9688(3) 0.3269(3)
N8 N 0.4688(3) 0.9029(3) 0.1731(3)
N9 N 0.3071(3) 0.9698(3) 0.5728(3)
N10 N 0.1929(3) 0.9272(3) 0.4698(3)
C5 C 0.3013(4) 0.8937(4) 0.6132(4)
C6 C 0.1987(4) 0.8868(4) 0.3937(4)
H6 H 0.2642 0.8507 0.6012
H7 H 0.2358 0.8988 0.3507
C8 C 0.3605(4) 0.8942(4) 0.6736(4)
C9 C 0.1395(4) 0.8264(4) 0.3942(4)
H9 H 0.3710 0.8504 0.7102
H10 H 0.1290 0.7898 0.3504
C12 C 0.1293(3) 0.8885(4) 0.5107(4)
C15 C 0.0969(4) 0.9151(4) 0.5953(4)
H13 H 0.0522 0.8788 0.6119
H16 H 0.1411 0.9121 0.6356
H19 H 0.0766 0.9715 0.5921
Cu4_2 Cu 1.0000 0.2500 0.5000
Cu3_2 Cu 1.0000 0.7500 0.5000
B1_3 B 0.7500 0.0000 0.5000
C3_2 C 0.6293(3) 0.0107(4) 0.3885(4)
C4_2 C 0.5969(4) 0.0953(4) 0.4151(4)
H3_2 H 0.5522 0.1119 0.3788
H4_2 H 0.6411 0.1356 0.4121
H5_2 H 0.5766 0.0921 0.4715
N3_2 N 0.5971(3) 0.0312(3) 0.6731(3)
N4_2 N 0.9029(3) 0.1731(3) 0.4688(3)
N9_2 N 0.6929(3) 0.0302(3) 0.5728(3)
N10_2 N 0.8071(3) 0.0728(3) 0.4698(3)
C5_2 C 0.6987(4) 0.1063(4) 0.6132(4)
C6_2 C 0.8013(4) 0.1132(4) 0.3937(4)
H6_2 H 0.7358 0.1493 0.6012
H7_2 H 0.7642 0.1012 0.3507
C8_2 C 0.6395(4) 0.1058(4) 0.6736(4)
C9_2 C 0.8605(4) 0.1736(4) 0.3942(4)
H9_2 H 0.6290 0.1496 0.7102
H10_2 H 0.8710 0.2102 0.3504
C12_2 C 0.8707(3) 0.1115(4) 0.5107(4)
C15_2 C 0.9031(4) 0.0849(4) 0.5953(4)
H13_2 H 0.9478 0.1212 0.6119
H16_2 H 0.8589 0.0879 0.6356
H19_2 H 0.9234 0.0285 0.5921
B1_4 B 0.7500 1.0000 0.5000
N2_2 N 0.6929(3) 0.9698(3) 0.4272(3)
C1_2 C 0.6987(4) 0.8937(4) 0.3868(4)
H1_2 H 0.7358 0.8507 0.3988
C2_2 C 0.6395(4) 0.8942(4) 0.3264(4)
H2_2 H 0.6290 0.8504 0.2898
N5_2 N 0.9029(3) 0.8269(3) 0.5312(3)
N11_2 N 0.8071(3) 0.9272(3) 0.5302(3)
C7_2 C 0.8013(4) 0.8868(4) 0.6063(4)
H8_2 H 0.7642 0.8988 0.6493
C10_2 C 0.8605(4) 0.8264(4) 0.6058(4)
H11_2 H 0.8710 0.7898 0.6496
C11_2 C 0.6293(3) 0.9893(4) 0.6115(4)
C13_2 C 0.8707(3) 0.8885(4) 0.4893(4)
C14_2 C 0.5969(4) 0.9047(4) 0.5849(4)
C16_2 C 0.9031(4) 0.9151(4) 0.4047(4)
H12_2 H 0.5522 0.8881 0.6212
H14_2 H 0.9478 0.8788 0.3881
H15_2 H 0.6411 0.8644 0.5879
H17_2 H 0.8589 0.9121 0.3644
H18_2 H 0.5766 0.9079 0.5285
H20_2 H 0.9234 0.9715 0.4079
N7_2 N 0.4688(3) 0.0971(3) 0.8269(3)
N8_2 N 0.5312(3) 0.9029(3) 0.8269(3)
Cu1_3 Cu 0.2500 0.5000 0.0000
B1_5 B 0.5000 0.2500 0.0000
N1_2 N 0.3269(3) 0.4029(3) 0.0312(3)
N2_3 N 0.4272(3) 0.3071(3) 0.0302(3)
C1_3 C 0.3868(4) 0.3013(4) 0.1063(4)
H1_3 H 0.3988 0.2642 0.1493
C2_3 C 0.3264(4) 0.3605(4) 0.1058(4)
H2_3 H 0.2898 0.3710 0.1496
Cu2_3 Cu 0.7500 0.5000 0.0000
N7_3 N 0.1731(3) 0.5312(3) 0.0971(3)
N11_3 N 0.5302(3) 0.1929(3) 0.0728(3)
C7_3 C 0.6063(4) 0.1987(4) 0.1132(4)
H8_3 H 0.6493 0.2358 0.1012
C10_3 C 0.6058(4) 0.1395(4) 0.1736(4)
H11_3 H 0.6496 0.1290 0.2102
C11_3 C 0.6115(4) 0.3707(3) 0.0107(4)
C13_3 C 0.4893(4) 0.1293(3) 0.1115(4)
C14_3 C 0.5849(4) 0.4031(4) 0.0953(4)
C16_3 C 0.4047(4) 0.0969(4) 0.0849(4)
H12_3 H 0.6212 0.4478 0.1119
H14_3 H 0.3881 0.0522 0.1212
H15_3 H 0.5879 0.3589 0.1356
H17_3 H 0.3644 0.1411 0.0879
H18_3 H 0.5285 0.4234 0.0921
H20_3 H 0.4079 0.0766 0.0285
Cu1_4 Cu 0.2500 0.5000 1.0000
B1_6 B 0.5000 0.2500 1.0000
C3_3 C 0.3885(4) 0.3707(3) 0.9893(4)
C4_3 C 0.4151(4) 0.4031(4) 0.9047(4)
H3_3 H 0.3788 0.4478 0.8881
H4_3 H 0.4121 0.3589 0.8644
H5_3 H 0.4715 0.4234 0.9079
Cu2_4 Cu 0.7500 0.5000 1.0000
N3_3 N 0.6731(3) 0.4029(3) 0.9688(3)
N6_2 N 0.3269(3) 0.5971(3) 0.9688(3)
N8_3 N 0.1731(3) 0.4688(3) 0.9029(3)
N9_3 N 0.5728(3) 0.3071(3) 0.9698(3)
N10_3 N 0.4698(3) 0.1929(3) 0.9272(3)
C5_3 C 0.6132(4) 0.3013(4) 0.8937(4)
C6_3 C 0.3937(4) 0.1987(4) 0.8868(4)
H6_3 H 0.6012 0.2642 0.8507
H7_3 H 0.3507 0.2358 0.8988
C8_3 C 0.6736(4) 0.3605(4) 0.8942(4)
C9_3 C 0.3942(4) 0.1395(4) 0.8264(4)
H9_3 H 0.7102 0.3710 0.8504
H10_3 H 0.3504 0.1290 0.7898
C12_3 C 0.5107(4) 0.1293(3) 0.8885(4)
C15_3 C 0.5953(4) 0.0969(4) 0.9151(4)
H13_3 H 0.6119 0.0522 0.8788
H16_3 H 0.6356 0.1411 0.9121
H19_3 H 0.5921 0.0766 0.9715
B1_7 B 0.5000 0.7500 0.0000
C3_4 C 0.3885(4) 0.6293(3) 0.0107(4)
C4_4 C 0.4151(4) 0.5969(4) 0.0953(4)
H3_4 H 0.3788 0.5522 0.1119
H4_4 H 0.4121 0.6411 0.1356
H5_4 H 0.4715 0.5766 0.0921
N3_4 N 0.6731(3) 0.5971(3) 0.0312(3)
N9_4 N 0.5728(3) 0.6929(3) 0.0302(3)
N10_4 N 0.4698(3) 0.8071(3) 0.0728(3)
C5_4 C 0.6132(4) 0.6987(4) 0.1063(4)
C6_4 C 0.3937(4) 0.8013(4) 0.1132(4)
H6_4 H 0.6012 0.7358 0.1493
H7_4 H 0.3507 0.7642 0.1012
C8_4 C 0.6736(4) 0.6395(4) 0.1058(4)
C9_4 C 0.3942(4) 0.8605(4) 0.1736(4)
H9_4 H 0.7102 0.6290 0.1496
H10_4 H 0.3504 0.8710 0.2102
C12_4 C 0.5107(4) 0.8707(3) 0.1115(4)
C15_4 C 0.5953(4) 0.9031(4) 0.0849(4)
H13_4 H 0.6119 0.9478 0.1212
H16_4 H 0.6356 0.8589 0.0879
H19_4 H 0.5921 0.9234 0.0285
B1_8 B 0.5000 0.7500 1.0000
N2_4 N 0.4272(3) 0.6929(3) 0.9698(3)
C1_4 C 0.3868(4) 0.6987(4) 0.8937(4)
H1_4 H 0.3988 0.7358 0.8507
C2_4 C 0.3264(4) 0.6395(4) 0.8942(4)
H2_4 H 0.2898 0.6290 0.8504
N11_4 N 0.5302(3) 0.8071(3) 0.9272(3)
C7_4 C 0.6063(4) 0.8013(4) 0.8868(4)
H8_4 H 0.6493 0.7642 0.8988
C10_4 C 0.6058(4) 0.8605(4) 0.8264(4)
H11_4 H 0.6496 0.8710 0.7898
C11_4 C 0.6115(4) 0.6293(3) 0.9893(4)
C13_4 C 0.4893(4) 0.8707(3) 0.8885(4)
C14_4 C 0.5849(4) 0.5969(4) 0.9047(4)
C16_4 C 0.4047(4) 0.9031(4) 0.9151(4)
H12_4 H 0.6212 0.5522 0.8881
H14_4 H 0.3881 0.9478 0.8788
H15_4 H 0.5879 0.6411 0.8644
H17_4 H 0.3644 0.8589 0.9121
H18_4 H 0.5285 0.5766 0.9079
H20_4 H 0.4079 0.9234 0.9715
N7_4 N 0.8269(3) 0.4688(3) 0.0971(3)
N8_4 N 0.8269(3) 0.5312(3) 0.9029(3)
B1_9 B 0.0000 0.5000 0.2500
N1_3 N 0.0312(3) 0.3269(3) 0.4029(3)
N2_5 N 0.0302(3) 0.4272(3) 0.3071(3)
C1_5 C 0.1063(4) 0.3868(4) 0.3013(4)
H1_5 H 0.1493 0.3988 0.2642
C2_5 C 0.1058(4) 0.3264(4) 0.3605(4)
H2_5 H 0.1496 0.2898 0.3710
N11_5 N 0.0728(3) 0.5302(3) 0.1929(3)
C7_5 C 0.1132(4) 0.6063(4) 0.1987(4)
H8_5 H 0.1012 0.6493 0.2358
C10_5 C 0.1736(4) 0.6058(4) 0.1395(4)
H11_5 H 0.2102 0.6496 0.1290
C11_5 C 0.0107(4) 0.6115(4) 0.3707(3)
C13_5 C 0.1115(4) 0.4893(4) 0.1293(3)
C14_5 C 0.0953(4) 0.5849(4) 0.4031(4)
C16_5 C 0.0849(4) 0.4047(4) 0.0969(4)
H12_5 H 0.1119 0.6212 0.4478
H14_5 H 0.1212 0.3881 0.0522
H15_5 H 0.1356 0.5879 0.3589
H17_5 H 0.0879 0.3644 0.1411
H18_5 H 0.0921 0.5285 0.4234
H20_5 H 0.0285 0.4079 0.0766
B1_10 B 1.0000 0.5000 0.2500
C3_5 C 0.9893(4) 0.3885(4) 0.3707(3)
C4_5 C 0.9047(4) 0.4151(4) 0.4031(4)
H3_5 H 0.8881 0.3788 0.4478
H4_5 H 0.8644 0.4121 0.3589
H5_5 H 0.9079 0.4715 0.4234
N3_5 N 0.9688(3) 0.6731(3) 0.4029(3)
N6_3 N 0.9688(3) 0.3269(3) 0.5971(3)
N9_5 N 0.9698(3) 0.5728(3) 0.3071(3)
N10_5 N 0.9272(3) 0.4698(3) 0.1929(3)
C5_5 C 0.8937(4) 0.6132(4) 0.3013(4)
C6_5 C 0.8868(4) 0.3937(4) 0.1987(4)
H6_5 H 0.8507 0.6012 0.2642
H7_5 H 0.8988 0.3507 0.2358
C8_5 C 0.8942(4) 0.6736(4) 0.3605(4)
C9_5 C 0.8264(4) 0.3942(4) 0.1395(4)
H9_5 H 0.8504 0.7102 0.3710
H10_5 H 0.7898 0.3504 0.1290
C12_5 C 0.8885(4) 0.5107(4) 0.1293(3)
C15_5 C 0.9151(4) 0.5953(4) 0.0969(4)
H13_5 H 0.8788 0.6119 0.0522
H16_5 H 0.9121 0.6356 0.1411
H19_5 H 0.9715 0.5921 0.0766
B1_11 B -0.0000 0.5000 0.7500
C3_6 C 0.0107(4) 0.3885(4) 0.6293(3)
C4_6 C 0.0953(4) 0.4151(4) 0.5969(4)
H3_6 H 0.1119 0.3788 0.5522
H4_6 H 0.1356 0.4121 0.6411
H5_6 H 0.0921 0.4715 0.5766
N3_6 N 0.0312(3) 0.6731(3) 0.5971(3)
N9_6 N 0.0302(3) 0.5728(3) 0.6929(3)
N10_6 N 0.0728(3) 0.4698(3) 0.8071(3)
C5_6 C 0.1063(4) 0.6132(4) 0.6987(4)
C6_6 C 0.1132(4) 0.3937(4) 0.8013(4)
H6_6 H 0.1493 0.6012 0.7358
H7_6 H 0.1012 0.3507 0.7642
C8_6 C 0.1058(4) 0.6736(4) 0.6395(4)
C9_6 C 0.1736(4) 0.3942(4) 0.8605(4)
H9_6 H 0.1496 0.7102 0.6290
H10_6 H 0.2102 0.3504 0.8710
C12_6 C 0.1115(4) 0.5107(4) 0.8707(3)
C15_6 C 0.0849(4) 0.5953(4) 0.9031(4)
H13_6 H 0.1212 0.6119 0.9478
H16_6 H 0.0879 0.6356 0.8589
H19_6 H 0.0285 0.5921 0.9234
B1_12 B 1.0000 0.5000 0.7500
N2_6 N 0.9698(3) 0.4272(3) 0.6929(3)
C1_6 C 0.8937(4) 0.3868(4) 0.6987(4)
H1_6 H 0.8507 0.3988 0.7358
C2_6 C 0.8942(4) 0.3264(4) 0.6395(4)
H2_6 H 0.8504 0.2898 0.6290
N11_6 N 0.9272(3) 0.5302(3) 0.8071(3)
C7_6 C 0.8868(4) 0.6063(4) 0.8013(4)
H8_6 H 0.8988 0.6493 0.7642
C10_6 C 0.8264(4) 0.6058(4) 0.8605(4)
H11_6 H 0.7898 0.6496 0.8710
C11_6 C 0.9893(4) 0.6115(4) 0.6293(3)
C13_6 C 0.8885(4) 0.4893(4) 0.8707(3)
C14_6 C 0.9047(4) 0.5849(4) 0.5969(4)
C16_6 C 0.9151(4) 0.4047(4) 0.9031(4)
H12_6 H 0.8881 0.6212 0.5522
H14_6 H 0.8788 0.3881 0.9478
H15_6 H 0.8644 0.5879 0.6411
H17_6 H 0.9121 0.3644 0.8589
H18_6 H 0.9079 0.5285 0.5766
H20_6 H 0.9715 0.4079 0.9234
loop_
_geom_bond_atom_site_label_1
_geom_bond_atom_site_label_2
_geom_bond_site_symmetry_1
_geom_bond_site_symmetry_2
Cu1 N1 1_555 1_555
B1 N2 1_555 1_555
N1 C2 1_555 1_555
N2 C1 1_555 1_555
C1 H1 1_555 1_555
C2 C1 1_555 1_555
H2 C2 1_555 1_555
Cu4 N5 1_555 1_555
N5 C10 1_555 1_555
N7 Cu1 1_555 1_555
N11 B1 1_555 1_555
C7 N11 1_555 1_555
H8 C7 1_555 1_555
C10 C7 1_555 1_555
H11 C10 1_555 1_555
C13 N5 1_555 1_555
C14 C11 1_555 1_555
C16 C13 1_555 1_555
H12 C14 1_555 1_555
H14 C16 1_555 1_555
H15 C14 1_555 1_555
H17 C16 1_555 1_555
H18 C14 1_555 1_555
H20 C16 1_555 1_555
N11 C13 1_555 1_555
C4 C3 1_555 1_555
H3 C4 1_555 1_555
H4 C4 1_555 1_555
H5 C4 1_555 1_555
Cu2_2 N3 1_555 1_555
Cu3 N4 1_555 1_555
N3 C8 1_555 1_555
N4 C9 1_555 1_555
N6 Cu1_2 1_555 1_555
N8 Cu1_2 1_555 1_555
N9 B1_2 1_555 1_555
N10 B1_2 1_555 1_555
C5 N9 1_555 1_555
C6 N10 1_555 1_555
H6 C5 1_555 1_555
H7 C6 1_555 1_555
C8 C5 1_555 1_555
C9 C6 1_555 1_555
H9 C8 1_555 1_555
H10 C9 1_555 1_555
C12 N4 1_555 1_555
C15 C12 1_555 1_555
H13 C15 1_555 1_555
H16 C15 1_555 1_555
H19 C15 1_555 1_555
N10 C12 1_555 1_555
C4_2 C3_2 1_555 1_555
H3_2 C4_2 1_555 1_555
H4_2 C4_2 1_555 1_555
H5_2 C4_2 1_555 1_555
Cu2 N3_2 1_555 1_555
Cu4_2 N4_2 1_555 1_555
N3_2 C8_2 1_555 1_555
N4_2 C9_2 1_555 1_555
N9_2 B1_3 1_555 1_555
N10_2 B1_3 1_555 1_555
C5_2 N9_2 1_555 1_555
C6_2 N10_2 1_555 1_555
H6_2 C5_2 1_555 1_555
H7_2 C6_2 1_555 1_555
C8_2 C5_2 1_555 1_555
C9_2 C6_2 1_555 1_555
H9_2 C8_2 1_555 1_555
H10_2 C9_2 1_555 1_555
C12_2 N4_2 1_555 1_555
C15_2 C12_2 1_555 1_555
H13_2 C15_2 1_555 1_555
H16_2 C15_2 1_555 1_555
H19_2 C15_2 1_555 1_555
N10_2 C12_2 1_555 1_555
B1_4 N2_2 1_555 1_555
N6 C2_2 1_555 1_555
N2_2 C1_2 1_555 1_555
C1_2 H1_2 1_555 1_555
C2_2 C1_2 1_555 1_555
H2_2 C2_2 1_555 1_555
Cu3_2 N5_2 1_555 1_555
N5_2 C10_2 1_555 1_555
N11_2 B1_4 1_555 1_555
C7_2 N11_2 1_555 1_555
H8_2 C7_2 1_555 1_555
C10_2 C7_2 1_555 1_555
H11_2 C10_2 1_555 1_555
C13_2 N5_2 1_555 1_555
C14_2 C11_2 1_555 1_555
C16_2 C13_2 1_555 1_555
H12_2 C14_2 1_555 1_555
H14_2 C16_2 1_555 1_555
H15_2 C14_2 1_555 1_555
H17_2 C16_2 1_555 1_555
H18_2 C14_2 1_555 1_555
H20_2 C16_2 1_555 1_555
N11_2 C13_2 1_555 1_555
N7_2 Cu2 1_555 1_555
N8_2 Cu2_2 1_555 1_555
Cu1_3 N1_2 1_555 1_555
B1_5 N2_3 1_555 1_555
N1_2 C2_3 1_555 1_555
N2_3 C1_3 1_555 1_555
C1_3 H1_3 1_555 1_555
C2_3 C1_3 1_555 1_555
H2_3 C2_3 1_555 1_555
N7 C10_3 1_555 1_555
N7_3 Cu1_3 1_555 1_555
N11_3 B1_5 1_555 1_555
C7_3 N11_3 1_555 1_555
H8_3 C7_3 1_555 1_555
C10_3 C7_3 1_555 1_555
H11_3 C10_3 1_555 1_555
C13_3 N7 1_555 1_555
C14_3 C11_3 1_555 1_555
C16_3 C13_3 1_555 1_555
H12_3 C14_3 1_555 1_555
H14_3 C16_3 1_555 1_555
H15_3 C14_3 1_555 1_555
H17_3 C16_3 1_555 1_555
H18_3 C14_3 1_555 1_555
H20_3 C16_3 1_555 1_555
N11_3 C13_3 1_555 1_555
C4_3 C3_3 1_555 1_555
H3_3 C4_3 1_555 1_555
H4_3 C4_3 1_555 1_555
H5_3 C4_3 1_555 1_555
Cu2_4 N3_3 1_555 1_555
N3_3 C8_3 1_555 1_555
N7_2 C9_3 1_555 1_555
N6_2 Cu1_4 1_555 1_555
N8_3 Cu1_4 1_555 1_555
N9_3 B1_6 1_555 1_555
N10_3 B1_6 1_555 1_555
C5_3 N9_3 1_555 1_555
C6_3 N10_3 1_555 1_555
H6_3 C5_3 1_555 1_555
H7_3 C6_3 1_555 1_555
C8_3 C5_3 1_555 1_555
C9_3 C6_3 1_555 1_555
H9_3 C8_3 1_555 1_555
H10_3 C9_3 1_555 1_555
C12_3 N7_2 1_555 1_555
C15_3 C12_3 1_555 1_555
H13_3 C15_3 1_555 1_555
H16_3 C15_3 1_555 1_555
H19_3 C15_3 1_555 1_555
N10_3 C12_3 1_555 1_555
C4_4 C3_4 1_555 1_555
H3_4 C4_4 1_555 1_555
H4_4 C4_4 1_555 1_555
H5_4 C4_4 1_555 1_555
Cu2_3 N3_4 1_555 1_555
N3_4 C8_4 1_555 1_555
N8 C9_4 1_555 1_555
N9_4 B1_7 1_555 1_555
N10_4 B1_7 1_555 1_555
C5_4 N9_4 1_555 1_555
C6_4 N10_4 1_555 1_555
H6_4 C5_4 1_555 1_555
H7_4 C6_4 1_555 1_555
C8_4 C5_4 1_555 1_555
C9_4 C6_4 1_555 1_555
H9_4 C8_4 1_555 1_555
H10_4 C9_4 1_555 1_555
C12_4 N8 1_555 1_555
C15_4 C12_4 1_555 1_555
H13_4 C15_4 1_555 1_555
H16_4 C15_4 1_555 1_555
H19_4 C15_4 1_555 1_555
N10_4 C12_4 1_555 1_555
B1_8 N2_4 1_555 1_555
N6_2 C2_4 1_555 1_555
N2_4 C1_4 1_555 1_555
C1_4 H1_4 1_555 1_555
C2_4 C1_4 1_555 1_555
H2_4 C2_4 1_555 1_555
N8_2 C10_4 1_555 1_555
N11_4 B1_8 1_555 1_555
C7_4 N11_4 1_555 1_555
H8_4 C7_4 1_555 1_555
C10_4 C7_4 1_555 1_555
H11_4 C10_4 1_555 1_555
C13_4 N8_2 1_555 1_555
C14_4 C11_4 1_555 1_555
C16_4 C13_4 1_555 1_555
H12_4 C14_4 1_555 1_555
H14_4 C16_4 1_555 1_555
H15_4 C14_4 1_555 1_555
H17_4 C16_4 1_555 1_555
H18_4 C14_4 1_555 1_555
H20_4 C16_4 1_555 1_555
N11_4 C13_4 1_555 1_555
N7_4 Cu2_3 1_555 1_555
N8_4 Cu2_4 1_555 1_555
Cu4 N1_3 1_555 1_555
B1_9 N2_5 1_555 1_555
N1_3 C2_5 1_555 1_555
N2_5 C1_5 1_555 1_555
C1_5 H1_5 1_555 1_555
C2_5 C1_5 1_555 1_555
H2_5 C2_5 1_555 1_555
N7_3 C10_5 1_555 1_555
N11_5 B1_9 1_555 1_555
C7_5 N11_5 1_555 1_555
H8_5 C7_5 1_555 1_555
C10_5 C7_5 1_555 1_555
H11_5 C10_5 1_555 1_555
C13_5 N7_3 1_555 1_555
C14_5 C11_5 1_555 1_555
C16_5 C13_5 1_555 1_555
H12_5 C14_5 1_555 1_555
H14_5 C16_5 1_555 1_555
H15_5 C14_5 1_555 1_555
H17_5 C16_5 1_555 1_555
H18_5 C14_5 1_555 1_555
H20_5 C16_5 1_555 1_555
N11_5 C13_5 1_555 1_555
C4_5 C3_5 1_555 1_555
H3_5 C4_5 1_555 1_555
H4_5 C4_5 1_555 1_555
H5_5 C4_5 1_555 1_555
Cu3_2 N3_5 1_555 1_555
N3_5 C8_5 1_555 1_555
N7_4 C9_5 1_555 1_555
N6_3 Cu4_2 1_555 1_555
N9_5 B1_10 1_555 1_555
N10_5 B1_10 1_555 1_555
C5_5 N9_5 1_555 1_555
C6_5 N10_5 1_555 1_555
H6_5 C5_5 1_555 1_555
H7_5 C6_5 1_555 1_555
C8_5 C5_5 1_555 1_555
C9_5 C6_5 1_555 1_555
H9_5 C8_5 1_555 1_555
H10_5 C9_5 1_555 1_555
C12_5 N7_4 1_555 1_555
C15_5 C12_5 1_555 1_555
H13_5 C15_5 1_555 1_555
H16_5 C15_5 1_555 1_555
H19_5 C15_5 1_555 1_555
N10_5 C12_5 1_555 1_555
C4_6 C3_6 1_555 1_555
H3_6 C4_6 1_555 1_555
H4_6 C4_6 1_555 1_555
H5_6 C4_6 1_555 1_555
Cu3 N3_6 1_555 1_555
N3_6 C8_6 1_555 1_555
N8_3 C9_6 1_555 1_555
N9_6 B1_11 1_555 1_555
N10_6 B1_11 1_555 1_555
C5_6 N9_6 1_555 1_555
C6_6 N10_6 1_555 1_555
H6_6 C5_6 1_555 1_555
H7_6 C6_6 1_555 1_555
C8_6 C5_6 1_555 1_555
C9_6 C6_6 1_555 1_555
H9_6 C8_6 1_555 1_555
H10_6 C9_6 1_555 1_555
C12_6 N8_3 1_555 1_555
C15_6 C12_6 1_555 1_555
H13_6 C15_6 1_555 1_555
H16_6 C15_6 1_555 1_555
H19_6 C15_6 1_555 1_555
N10_6 C12_6 1_555 1_555
B1_12 N2_6 1_555 1_555
N6_3 C2_6 1_555 1_555
N2_6 C1_6 1_555 1_555
C1_6 H1_6 1_555 1_555
C2_6 C1_6 1_555 1_555
H2_6 C2_6 1_555 1_555
N8_4 C10_6 1_555 1_555
N11_6 B1_12 1_555 1_555
C7_6 N11_6 1_555 1_555
H8_6 C7_6 1_555 1_555
C10_6 C7_6 1_555 1_555
H11_6 C10_6 1_555 1_555
C13_6 N8_4 1_555 1_555
C14_6 C11_6 1_555 1_555
C16_6 C13_6 1_555 1_555
H12_6 C14_6 1_555 1_555
H14_6 C16_6 1_555 1_555
H15_6 C14_6 1_555 1_555
H17_6 C16_6 1_555 1_555
H18_6 C14_6 1_555 1_555
H20_6 C16_6 1_555 1_555
N11_6 C13_6 1_555 1_555

#END
