
###############################################################################
#
# This file contains modified crystal structure data generated from the
# MOF subset of the Cambridge Structural Database (CSD) v543 
# hosted by the Cambridge Crystallographic Data Centre (CCDC).
#
# This work is licensed under the Creative Commons
# Attribution-NonCommercial-ShareAlike 4.0 International License.
# To view a copy of this license, visit
# http://creativecommons.org/licenses/by-nc-sa/4.0/
# or send a letter to
# Creative Commons, PO Box 1866, Mountain View, CA 94042, USA.
#
# CIF created using the CSD Python API on 29 September 2022
# The structure has been converted into the P1 space group
# The structure has a 3D framework
# The original CSD entry MOXKAN is in the monoclinic crystal system
# The framework has been calculated to contain at least 10.0% void space
# The void calculation uses a probe of radius 1.32A, grid spacing 0.4
#
###############################################################################

data_MOXKAN
_chemical_formula_moiety         '(C192 H208 Ce16 N128)n'
_symmetry_cell_setting           triclinic
_symmetry_space_group_name_H-M   'P 1'
_symmetry_Int_Tables_number      1
_space_group_name_Hall           'P 1'
loop_
_symmetry_equiv_pos_site_id
_symmetry_equiv_pos_as_xyz
1 x,y,z
_cell_length_a                   23.253(5)
_cell_length_b                   14.024(3)
_cell_length_c                   23.455(5)
_cell_angle_alpha                90
_cell_angle_beta                 107.68(3)
_cell_angle_gamma                90
_cell_volume                     7287.41
loop_
_atom_site_label
_atom_site_type_symbol
_atom_site_fract_x
_atom_site_fract_y
_atom_site_fract_z
N2 N 0.35863(15) 0.0576(2) 0.23592(16)
N6 N 0.63424(14) 0.0308(2) 0.25231(16)
C3 C 0.39260(18) 0.0477(3) 0.29502(19)
C8 C 0.53360(17) 0.0416(3) 0.2310(2)
C9 C 0.58655(18) 0.0905(3) 0.2526(2)
H3 H 0.3892 0.0955 0.3252
H8 H 0.4938 0.0599 0.2269
H9 H 0.5907 0.1576 0.2611
H37 H 0.8439 0.0355 0.4585
Ce6 Ce 0.257801(8) 0.144697(12) 0.209242(8)
Ce8 Ce 0.747499(8) 0.057283(12) 0.292364(8)
Ce1 Ce 0.488878(8) 0.797168(13) 0.226355(9)
Ce2 Ce 0.242199(8) 0.644697(12) 0.290758(8)
Ce3 Ce 0.752501(8) 0.557283(12) 0.207636(8)
Ce4 Ce 0.723124(8) 0.699509(13) 0.496385(8)
N1 N 0.41844(14) 0.9284(2) 0.24424(15)
N3 N 0.43886(13) 0.7332(2) 0.30159(15)
N4 N 0.35452(15) 0.6821(2) 0.32161(15)
N5 N 0.54594(14) 0.9496(2) 0.21677(15)
N7 N 0.57177(13) 0.7200(2) 0.19084(15)
N8 N 0.64436(14) 0.6223(2) 0.17823(15)
N9 N 0.57035(15) 0.8153(2) 0.32661(15)
N10 N 0.63559(14) 0.7771(2) 0.41715(15)
N11 N 0.42607(14) 0.8315(2) 0.11963(15)
N12 N 0.33431(14) 0.8358(2) 0.04939(15)
N13 N 0.44834(15) 0.6244(2) 0.18773(17)
N14 N 0.39823(17) 0.4896(3) 0.1730(2)
N15 N 0.27266(14) 0.4721(2) 0.27287(15)
N16 N 0.26839(14) 0.3200(2) 0.23992(14)
N17 N 0.23718(16) 0.6420(2) 0.17769(15)
N18 N 0.24200(15) 0.6889(2) 0.08678(15)
N19 N 0.27914(15) 0.5742(2) 0.39439(15)
N20 N 0.27859(15) 0.4728(2) 0.46921(15)
N21 N 0.18245(16) 0.7347(2) 0.35398(15)
N22 N 0.14871(18) 0.7408(3) 0.43245(17)
N23 N 0.74029(14) 0.3833(2) 0.23530(14)
N24 N 0.72600(15) 0.2277(2) 0.25260(14)
N25 N 0.73761(15) 0.5602(2) 0.31401(15)
N26 N 0.72280(16) 0.6135(2) 0.39942(14)
N27 N 0.78131(14) 0.9604(2) 0.39267(14)
N28 N 0.77075(14) 0.8443(2) 0.45633(15)
N29 N 0.78960(16) 0.6525(2) 0.12831(15)
N30 N 0.84763(18) 0.6660(3) 0.06968(19)
N31 N 0.62609(16) 0.6785(3) 0.53111(16)
N32 N 0.56021(18) 0.6697(3) 0.58124(19)
C1 C 0.37626(17) 0.9843(3) 0.20795(18)
C2 C 0.42869(16) 0.9686(3) 0.30002(18)
C4 C 0.37828(17) 0.7351(3) 0.28682(18)
C5 C 0.45533(17) 0.6732(3) 0.35093(18)
C6 C 0.40482(18) 0.6429(3) 0.36314(18)
C7 C 0.60636(17) 0.9482(3) 0.23077(18)
C10 C 0.61418(17) 0.6536(3) 0.21485(17)
C11 C 0.57521(18) 0.7314(3) 0.13355(19)
C12 C 0.61952(17) 0.6728(3) 0.12607(18)
C13 C 0.60446(17) 0.7483(3) 0.36177(18)
C14 C 0.58086(17) 0.8956(3) 0.36266(18)
C15 C 0.61981(17) 0.8719(3) 0.41686(17)
C16 C 0.37246(18) 0.7890(3) 0.09532(18)
C17 C 0.42209(17) 0.9134(3) 0.08552(18)
C18 C 0.36649(18) 0.9158(3) 0.04334(18)
C19 C 0.4113(2) 0.5691(3) 0.2058(2)
C20 C 0.4594(2) 0.5757(3) 0.1408(2)
C21 C 0.4286(2) 0.4927(3) 0.1311(2)
C22 C 0.23766(16) 0.3995(2) 0.24505(16)
C23 C 0.33037(17) 0.4366(3) 0.28721(18)
C24 C 0.32778(17) 0.3443(3) 0.26718(18)
C25 C 0.24984(18) 0.7117(3) 0.14404(19)
C26 C 0.2199(2) 0.5673(3) 0.13768(19)
C27 C 0.22337(19) 0.5959(3) 0.08307(18)
C28 C 0.27308(18) 0.4847(3) 0.41101(17)
C29 C 0.2894(2) 0.6241(3) 0.4469(2)
C30 C 0.2890(2) 0.5635(3) 0.49183(19)
C31 C 0.1506(2) 0.6913(3) 0.3841(2)
C32 C 0.2028(2) 0.8170(3) 0.3859(2)
C33 C 0.1827(2) 0.8212(3) 0.4347(2)
C34 C 0.76425(17) 0.3020(2) 0.26198(17)
C35 C 0.68100(17) 0.3583(2) 0.20632(18)
C36 C 0.67272(17) 0.2640(3) 0.21646(18)
C37 C 0.75266(18) 0.6232(3) 0.35948(18)
C38 C 0.69249(17) 0.5057(3) 0.32665(17)
C39 C 0.68391(18) 0.5390(3) 0.37758(18)
C40 C 0.75429(17) 0.8783(3) 0.39998(16)
C41 C 0.81896(18) 0.9792(3) 0.44981(18)
C42 C 0.81223(17) 0.9098(3) 0.48835(17)
C43 C 0.8108(2) 0.6098(3) 0.0891(2)
C44 C 0.8146(2) 0.7429(3) 0.1340(2)
C45 C 0.8502(2) 0.7512(3) 0.0983(2)
C46 C 0.6128(2) 0.7053(3) 0.5796(2)
C47 C 0.5779(2) 0.6233(4) 0.4999(2)
C48 C 0.5373(2) 0.6177(4) 0.5309(3)
H1 H 0.3601 0.9701 0.1662
H2 H 0.4562 0.9442 0.3353
H4 H 0.3569 0.7674 0.2545
H5 H 0.4954 0.6565 0.3722
H6 H 0.4004 0.6029 0.3935
H7 H 0.6291 0.8906 0.2272
H10 H 0.6261 0.6363 0.2544
H11 H 0.5478 0.7735 0.1091
H12 H 0.6327 0.6705 0.0891
H13 H 0.6084 0.6854 0.3475
H14 H 0.3752 0.4411 0.1801
H15 H 0.6353 0.9125 0.4490
H16 H 0.3620 0.7358 0.1102
H17 H 0.4561 0.9583 0.0943
H18 H 0.3485 0.9639 0.0127
H19 H 0.3920 0.5813 0.2369
H20 H 0.4895 0.6028 0.1206
H21 H 0.4273 0.4434 0.1026
H22 H 0.1351 0.7176 0.4605
H23 H 0.3651 0.4716 0.3104
H24 H 0.3589 0.3038 0.2696
H25 H 0.2630 0.7729 0.1615
H26 H 0.2115 0.5086 0.1509
H27 H 0.2147 0.5643 0.0477
H28 H 0.2613 0.4313 0.3837
H29 H 0.3034 0.6958 0.4507
H30 H 0.8710 0.6481 0.0464
H31 H 0.1315 0.6359 0.3741
H32 H 0.5453 0.6783 0.6059
H33 H 0.1932 0.8700 0.4644
H34 H 0.6542 0.4023 0.1858
H35 H 0.7803 0.6690 0.3618
H36 H 0.6564 0.5167 0.3985
H38 H 0.8321 0.9056 0.5332
H39 H 0.8058 0.5424 0.0798
H40 H 0.8050 0.7878 0.1607
H41 H 0.8743 0.8016 0.0954
H42 H 0.6393 0.7465 0.6127
H43 H 0.5763 0.5867 0.4645
H44 H 0.5028 0.5876 0.5252
H45 H 0.5645 0.9563 0.3463
H46 H 0.1951 0.4026 0.2281
H47 H 0.2944 0.5771 0.5332
H48 H 0.2283 0.8593 0.3724
H49 H 0.8052 0.2990 0.2862
H50 H 0.6384 0.2260 0.2030
H51 H 0.6726 0.4478 0.3004
H52 H 0.7268 0.8452 0.3675
Ce9 Ce 0.276876(8) 0.300491(13) 0.503615(8)
N33 N 0.14137(15) 0.5576(2) 0.26408(16)
N34 N 0.86576(14) 0.5308(2) 0.24769(16)
N35 N 0.83431(14) 0.6642(2) 0.54939(15)
N36 N 0.23161(14) 0.8200(2) 0.26008(14)
N37 N 0.74200(15) 0.8111(2) 0.58678(15)
N38 N 0.72141(15) 0.5272(2) 0.53079(15)
N39 N 0.77400(15) 0.7277(2) 0.24740(14)
N40 N 0.71869(14) 0.4604(2) 0.10733(14)
Ce10 Ce 0.223124(8) 0.800491(13) 0.996385(8)
Ce1_2 Ce 0.011122(8) 0.297168(13) 0.273645(9)
N1_2 N 0.08156(14) 0.4284(2) 0.25576(15)
N3_2 N 0.06114(13) 0.2332(2) 0.19841(15)
N4_2 N 0.14548(15) 0.1821(2) 0.17839(15)
N11_2 N 0.07393(14) 0.3315(2) 0.38037(15)
N12_2 N 0.16569(14) 0.3358(2) 0.45061(15)
N13_2 N 0.05166(15) 0.1244(2) 0.31227(17)
N17_2 N 0.26282(16) 0.1420(2) 0.32231(15)
N18_2 N 0.25800(15) 0.1889(2) 0.41322(15)
N19_2 N 0.22086(15) 0.0742(2) 0.10561(15)
N21_2 N 0.31755(16) 0.2347(2) 0.14602(15)
N22_2 N 0.35129(18) 0.2408(3) 0.06755(17)
C1_2 C 0.12374(17) 0.4843(3) 0.29205(18)
C2_2 C 0.07131(16) 0.4686(3) 0.19998(18)
C3_2 C 0.10740(18) 0.5477(3) 0.20498(19)
C4_2 C 0.12172(17) 0.2351(3) 0.21318(18)
C5_2 C 0.04467(17) 0.1732(3) 0.14907(18)
C6_2 C 0.09518(18) 0.1429(3) 0.13686(18)
C16_2 C 0.12754(18) 0.2890(3) 0.40468(18)
C17_2 C 0.07791(17) 0.4134(3) 0.41448(18)
C18_2 C 0.13351(18) 0.4158(3) 0.45666(18)
C19_2 C 0.0887(2) 0.0691(3) 0.2942(2)
C20_2 C 0.0406(2) 0.0757(3) 0.3592(2)
C25_2 C 0.25016(18) 0.2117(3) 0.35596(19)
C26_2 C 0.2801(2) 0.0673(3) 0.36232(19)
C27_2 C 0.27663(19) 0.0959(3) 0.41693(18)
C29_2 C 0.2106(2) 0.1241(3) 0.0531(2)
C30_2 C 0.2110(2) 0.0635(3) 0.00817(19)
C31_2 C 0.3494(2) 0.1913(3) 0.1159(2)
C32_2 C 0.2972(2) 0.3170(3) 0.1141(2)
C33_2 C 0.3173(2) 0.3212(3) 0.0653(2)
H1_2 H 0.1399 0.4701 0.3338
H2_2 H 0.0438 0.4442 0.1647
H3_2 H 0.1108 0.5955 0.1748
H4_2 H 0.1431 0.2674 0.2455
H5_2 H 0.0046 0.1565 0.1278
H6_2 H 0.0996 0.1029 0.1065
H8_2 H 0.0062 0.5599 0.2731
H16_2 H 0.1380 0.2358 0.3898
H17_2 H 0.0439 0.4583 0.4057
H18_2 H 0.1515 0.4639 0.4873
H19_2 H 0.1080 0.0813 0.2631
H20_2 H 0.0105 0.1028 0.3794
H22_2 H 0.3649 0.2176 0.0395
H25_2 H 0.2370 0.2729 0.3385
H26_2 H 0.2885 0.0086 0.3491
H27_2 H 0.2853 0.0643 0.4523
H29_2 H 0.1966 0.1958 0.0493
H31_2 H 0.3685 0.1359 0.1259
H33_2 H 0.3068 0.3700 0.0356
H48_2 H 0.2717 0.3593 0.1276
N14_2 N 0.10177(17) 0.9896(3) 0.3270(2)
N15_2 N 0.22734(14) 0.9721(2) 0.22713(15)
N20_2 N 0.22141(15) 0.9728(2) 0.03079(15)
C21_2 C 0.0714(2) 0.9927(3) 0.3689(2)
C22_2 C 0.26234(16) 0.8995(2) 0.25495(16)
C23_2 C 0.16963(17) 0.9366(3) 0.21279(18)
C24_2 C 0.17222(17) 0.8443(3) 0.23282(18)
C28_2 C 0.22692(18) 0.9847(3) 0.08899(17)
H14_2 H 0.1248 0.9411 0.3199
H21_2 H 0.0727 0.9434 0.3974
H23_2 H 0.1349 0.9716 0.1896
H24_2 H 0.1411 0.8038 0.2304
H28_2 H 0.2387 0.9313 0.1163
H46_2 H 0.3049 0.9026 0.2719
Ce4_2 Ce 0.776876(8) 0.199509(13) 0.003615(8)
N5_2 N 0.95406(14) 0.4496(2) 0.28323(15)
N7_2 N 0.92823(13) 0.2200(2) 0.30916(15)
N8_2 N 0.85564(14) 0.1223(2) 0.32177(15)
N9_2 N 0.92965(15) 0.3153(2) 0.17339(15)
N10_2 N 0.86441(14) 0.2771(2) 0.08285(15)
N25_2 N 0.76239(15) 0.0602(2) 0.18599(15)
N26_2 N 0.77720(16) 0.1135(2) 0.10058(14)
N28_2 N 0.72925(14) 0.3443(2) 0.04367(15)
N29_2 N 0.71040(16) 0.1525(2) 0.37169(15)
N30_2 N 0.65237(18) 0.1660(3) 0.43032(19)
C7_2 C 0.89364(17) 0.4482(3) 0.26923(18)
C8_2 C 0.96640(17) 0.5416(3) 0.2690(2)
C9_2 C 0.91345(18) 0.5905(3) 0.2474(2)
C10_2 C 0.88582(17) 0.1536(3) 0.28515(17)
C11_2 C 0.92479(18) 0.2314(3) 0.36645(19)
C12_2 C 0.88048(17) 0.1728(3) 0.37393(18)
C13_2 C 0.89554(17) 0.2483(3) 0.13823(18)
C14_2 C 0.91914(17) 0.3956(3) 0.13734(18)
C15_2 C 0.88019(17) 0.3719(3) 0.08314(17)
C37_2 C 0.74734(18) 0.1232(3) 0.14052(18)
C38_2 C 0.80751(17) 0.0057(3) 0.17335(17)
C39_2 C 0.81609(18) 0.0390(3) 0.12242(18)
C40_2 C 0.74571(17) 0.3783(3) 0.10002(16)
C41_2 C 0.68104(18) 0.4792(3) 0.05019(18)
C42_2 C 0.68777(17) 0.4098(3) 0.01165(17)
C43_2 C 0.6892(2) 0.1098(3) 0.4109(2)
C44_2 C 0.6854(2) 0.2429(3) 0.3660(2)
C45_2 C 0.6498(2) 0.2512(3) 0.4017(2)
C47_2 C 0.9221(2) 0.1233(4) 0.0001(2)
H7_2 H 0.8709 0.3906 0.2728
H9_2 H 0.9093 0.6576 0.2389
H10_2 H 0.8739 0.1363 0.2456
H11_2 H 0.9522 0.2735 0.3909
H12_2 H 0.8673 0.1705 0.4109
H13_2 H 0.8916 0.1854 0.1525
H15_2 H 0.8647 0.4125 0.0510
H30_2 H 0.6290 0.1481 0.4536
H35_2 H 0.7197 0.1690 0.1382
H36_2 H 0.8436 0.0167 0.1015
H37_2 H 0.6561 0.5355 0.0415
H39_2 H 0.6942 0.0424 0.4202
H40_2 H 0.6950 0.2878 0.3393
H41_2 H 0.6257 0.3016 0.4046
H43_2 H 0.9237 0.0867 0.0355
H45_2 H 0.9355 0.4563 0.1537
H52_2 H 0.7732 0.3452 0.1325
N31_2 N 0.87391(16) 0.1785(3) 0.96889(16)
N32_2 N 0.93979(18) 0.1697(3) 0.91876(19)
C46_2 C 0.8872(2) 0.2053(3) 0.9204(2)
C48_2 C 0.9627(2) 0.1177(4) 0.9691(3)
H32_2 H 0.9547 0.1783 0.8941
H38_2 H 0.6679 0.4056 0.9668
H42_2 H 0.8607 0.2465 0.8873
H44_2 H 0.9972 0.0876 0.9748
N35_2 N 0.66569(14) 0.1642(2) 0.95061(15)
N37_2 N 0.75800(15) 0.3111(2) 0.91322(15)
N38_2 N 0.77859(15) 0.0272(2) 0.96921(15)
N23_2 N 0.75971(14) 0.8833(2) 0.26470(14)
C34_2 C 0.73575(17) 0.8020(2) 0.23802(17)
C35_2 C 0.81900(17) 0.8583(2) 0.29368(18)
C36_2 C 0.82728(17) 0.7640(3) 0.28354(18)
H34_2 H 0.8458 0.9023 0.3142
H49_2 H 0.6948 0.7990 0.2138
H50_2 H 0.8616 0.7260 0.2970
H51_2 H 0.8274 0.9478 0.1996
Ce1_3 Ce 0.511122(8) 0.202832(13) 0.773645(9)
Ce2_2 Ce 0.757801(8) 0.355303(12) 0.709242(8)
Ce3_2 Ce 0.247499(8) 0.442717(12) 0.792364(8)
N1_3 N 0.58156(14) 0.0716(2) 0.75576(15)
N3_3 N 0.56114(13) 0.2668(2) 0.69841(15)
N4_3 N 0.64548(15) 0.3179(2) 0.67839(15)
N5_3 N 0.45406(14) 0.0504(2) 0.78323(15)
N7_3 N 0.42823(13) 0.2800(2) 0.80916(15)
N8_3 N 0.35564(14) 0.3777(2) 0.82177(15)
N9_3 N 0.42965(15) 0.1847(2) 0.67339(15)
N10_3 N 0.36441(14) 0.2229(2) 0.58285(15)
N11_3 N 0.57393(14) 0.1685(2) 0.88037(15)
N13_3 N 0.55166(15) 0.3756(2) 0.81227(17)
N14_3 N 0.60177(17) 0.5104(3) 0.8270(2)
N15_3 N 0.72734(14) 0.5279(2) 0.72713(15)
N16_2 N 0.73161(14) 0.6800(2) 0.76008(14)
N17_3 N 0.76282(16) 0.3580(2) 0.82231(15)
N19_3 N 0.72086(15) 0.4258(2) 0.60561(15)
N21_3 N 0.81755(16) 0.2653(2) 0.64602(15)
N22_3 N 0.85129(18) 0.2592(3) 0.56755(17)
N23_3 N 0.25971(14) 0.6167(2) 0.76470(14)
N24_2 N 0.27400(15) 0.7723(2) 0.74740(14)
N25_3 N 0.26239(15) 0.4398(2) 0.68599(15)
N26_3 N 0.27720(16) 0.3865(2) 0.60058(14)
N27_2 N 0.21869(14) 0.0396(2) 0.60733(14)
N28_3 N 0.22925(14) 0.1557(2) 0.54367(15)
N29_3 N 0.21040(16) 0.3475(2) 0.87169(15)
N30_3 N 0.15237(18) 0.3340(3) 0.93032(19)
N31_3 N 0.37391(16) 0.3215(3) 0.46889(16)
N32_3 N 0.43979(18) 0.3303(3) 0.41876(19)
C1_3 C 0.62374(17) 0.0157(3) 0.79205(18)
C2_3 C 0.57131(16) 0.0314(3) 0.69998(18)
C4_3 C 0.62172(17) 0.2649(3) 0.71318(18)
C5_3 C 0.54467(17) 0.3268(3) 0.64907(18)
C6_3 C 0.59518(18) 0.3571(3) 0.63686(18)
C7_3 C 0.39364(17) 0.0518(3) 0.76923(18)
C10_3 C 0.38582(17) 0.3464(3) 0.78515(17)
C11_3 C 0.42479(18) 0.2686(3) 0.86645(19)
C12_3 C 0.38048(17) 0.3272(3) 0.87393(18)
C13_3 C 0.39554(17) 0.2517(3) 0.63823(18)
C14_3 C 0.41914(17) 0.1044(3) 0.63734(18)
C15_3 C 0.38019(17) 0.1281(3) 0.58314(17)
C16_3 C 0.62754(18) 0.2110(3) 0.90468(18)
C17_3 C 0.57791(17) 0.0866(3) 0.91448(18)
C18_3 C 0.63351(18) 0.0842(3) 0.95666(18)
C19_3 C 0.5887(2) 0.4309(3) 0.7942(2)
C20_3 C 0.5406(2) 0.4243(3) 0.8592(2)
C21_3 C 0.5714(2) 0.5073(3) 0.8689(2)
C22_3 C 0.76234(16) 0.6005(2) 0.75495(16)
C23_3 C 0.66963(17) 0.5634(3) 0.71279(18)
C24_3 C 0.67222(17) 0.6557(3) 0.73282(18)
C25_3 C 0.75016(18) 0.2883(3) 0.85596(19)
C26_3 C 0.7801(2) 0.4327(3) 0.86232(19)
C27_3 C 0.77663(19) 0.4041(3) 0.91693(18)
C28_3 C 0.72692(18) 0.5153(3) 0.58899(17)
C29_3 C 0.7106(2) 0.3759(3) 0.5531(2)
C30_3 C 0.7110(2) 0.4365(3) 0.50817(19)
C31_3 C 0.8494(2) 0.3087(3) 0.6159(2)
C32_3 C 0.7972(2) 0.1830(3) 0.6141(2)
C33_3 C 0.8173(2) 0.1788(3) 0.5653(2)
C34_3 C 0.23575(17) 0.6980(2) 0.73802(17)
C35_3 C 0.31900(17) 0.6417(2) 0.79368(18)
C36_3 C 0.32728(17) 0.7360(3) 0.78354(18)
C37_3 C 0.24734(18) 0.3768(3) 0.64052(18)
C38_3 C 0.30751(17) 0.4943(3) 0.67335(17)
C39_3 C 0.31609(18) 0.4610(3) 0.62242(18)
C40_3 C 0.24571(17) 0.1217(3) 0.60002(16)
C41_3 C 0.18104(18) 0.0208(3) 0.55019(18)
C42_3 C 0.18777(17) 0.0902(3) 0.51165(17)
C43_3 C 0.1892(2) 0.3902(3) 0.9109(2)
C44_3 C 0.1854(2) 0.2571(3) 0.8660(2)
C45_3 C 0.1498(2) 0.2488(3) 0.9017(2)
C46_3 C 0.3872(2) 0.2947(3) 0.4204(2)
C47_3 C 0.4221(2) 0.3767(4) 0.5001(2)
C48_3 C 0.4627(2) 0.3823(4) 0.4691(3)
H1_3 H 0.6399 0.0299 0.8338
H2_3 H 0.5438 0.0558 0.6647
H4_3 H 0.6431 0.2326 0.7455
H5_3 H 0.5046 0.3435 0.6278
H6_3 H 0.5996 0.3971 0.6065
H7_3 H 0.3709 0.1094 0.7728
H10_3 H 0.3739 0.3637 0.7456
H11_3 H 0.4522 0.2265 0.8909
H12_3 H 0.3673 0.3295 0.9109
H13_3 H 0.3916 0.3146 0.6525
H14_3 H 0.6248 0.5589 0.8199
H15_3 H 0.3647 0.0875 0.5510
H16_3 H 0.6380 0.2642 0.8898
H17_3 H 0.5439 0.0417 0.9057
H18_3 H 0.6515 0.0361 0.9873
H19_3 H 0.6080 0.4187 0.7631
H20_3 H 0.5105 0.3972 0.8794
H21_3 H 0.5727 0.5566 0.8974
H22_3 H 0.8649 0.2824 0.5395
H23_3 H 0.6349 0.5284 0.6896
H24_3 H 0.6411 0.6962 0.7304
H25_3 H 0.7370 0.2271 0.8385
H26_3 H 0.7885 0.4914 0.8491
H27_3 H 0.7853 0.4357 0.9523
H28_3 H 0.7387 0.5687 0.6163
H29_3 H 0.6966 0.3042 0.5493
H30_3 H 0.1290 0.3519 0.9536
H31_3 H 0.8685 0.3641 0.6259
H32_3 H 0.4547 0.3217 0.3941
H33_3 H 0.8068 0.1300 0.5356
H34_3 H 0.3458 0.5977 0.8142
H35_3 H 0.2197 0.3310 0.6382
H36_3 H 0.3436 0.4833 0.6015
H38_3 H 0.1679 0.0944 0.4668
H39_3 H 0.1942 0.4576 0.9202
H40_3 H 0.1950 0.2122 0.8393
H41_3 H 0.1257 0.1984 0.9046
H42_3 H 0.3607 0.2535 0.3873
H43_3 H 0.4237 0.4133 0.5355
H44_3 H 0.4972 0.4124 0.4748
H45_3 H 0.4355 0.0437 0.6537
H46_3 H 0.8049 0.5974 0.7719
H47_2 H 0.7056 0.4229 0.4668
H48_3 H 0.7717 0.1407 0.6276
H49_3 H 0.1948 0.7010 0.7138
H50_3 H 0.3616 0.7740 0.7970
H51_3 H 0.3274 0.5522 0.6996
H52_3 H 0.2732 0.1548 0.6325
Ce5 Ce 0.742199(8) 0.855303(12) 0.790758(8)
Ce7 Ce 0.252501(8) 0.942717(12) 0.707636(8)
N33_2 N 0.85863(15) 0.4424(2) 0.73592(16)
N34_2 N 0.13424(14) 0.4692(2) 0.75231(16)
N36_2 N 0.76839(14) 0.1800(2) 0.73992(14)
N39_2 N 0.22600(15) 0.2723(2) 0.75260(14)
N40_2 N 0.28131(14) 0.5396(2) 0.89267(14)
N2_2 N 0.64137(15) 0.9424(2) 0.76408(16)
N6_2 N 0.36576(14) 0.9692(2) 0.74769(16)
C3_3 C 0.60740(18) 0.9523(3) 0.70498(19)
C8_3 C 0.46640(17) 0.9584(3) 0.7690(2)
C9_3 C 0.41345(18) 0.9095(3) 0.7474(2)
H3_3 H 0.6108 0.9045 0.6748
H8_3 H 0.5062 0.9401 0.7731
H9_3 H 0.4093 0.8424 0.7389
H37_3 H 0.1561 0.9645 0.5415
N23_4 N 0.24029(14) 0.1167(2) 0.73530(14)
C34_4 C 0.26425(17) 0.1980(2) 0.76198(17)
C35_4 C 0.18100(17) 0.1417(2) 0.70632(18)
C36_4 C 0.17272(17) 0.2360(3) 0.71646(18)
H34_4 H 0.1542 0.0977 0.6858
H49_4 H 0.3052 0.2010 0.7862
H50_4 H 0.1384 0.2740 0.7030
H51_4 H 0.1726 0.0522 0.8004
N31_4 N 0.12609(16) 0.8215(3) 0.03111(16)
N32_4 N 0.06021(18) 0.8303(3) 0.08124(19)
C46_4 C 0.1128(2) 0.7947(3) 0.0796(2)
C48_4 C 0.0373(2) 0.8823(4) 0.0309(3)
H32_4 H 0.0453 0.8217 0.1059
H38_4 H 0.3321 0.5944 0.0332
H42_4 H 0.1393 0.7535 0.1127
H44_4 H 0.0028 0.9124 0.0252
N5_4 N 0.04594(14) 0.5504(2) 0.71677(15)
N7_4 N 0.07177(13) 0.7800(2) 0.69084(15)
N8_4 N 0.14436(14) 0.8777(2) 0.67823(15)
N9_4 N 0.07035(15) 0.6847(2) 0.82661(15)
N10_4 N 0.13559(14) 0.7229(2) 0.91715(15)
N25_4 N 0.23761(15) 0.9398(2) 0.81401(15)
N26_4 N 0.22280(16) 0.8865(2) 0.89942(14)
N28_4 N 0.27075(14) 0.6557(2) 0.95633(15)
N29_4 N 0.28960(16) 0.8475(2) 0.62831(15)
N30_4 N 0.34763(18) 0.8340(3) 0.56968(19)
C7_4 C 0.10636(17) 0.5518(3) 0.73077(18)
C8_4 C 0.03360(17) 0.4584(3) 0.7310(2)
C9_4 C 0.08655(18) 0.4095(3) 0.7526(2)
C10_4 C 0.11418(17) 0.8464(3) 0.71485(17)
C11_4 C 0.07521(18) 0.7686(3) 0.63355(19)
C12_4 C 0.11952(17) 0.8272(3) 0.62607(18)
C13_4 C 0.10446(17) 0.7517(3) 0.86177(18)
C14_4 C 0.08086(17) 0.6044(3) 0.86266(18)
C15_4 C 0.11981(17) 0.6281(3) 0.91686(17)
C37_4 C 0.25266(18) 0.8768(3) 0.85948(18)
C38_4 C 0.19249(17) 0.9943(3) 0.82665(17)
C39_4 C 0.18391(18) 0.9610(3) 0.87758(18)
C40_4 C 0.25429(17) 0.6217(3) 0.89998(16)
C41_4 C 0.31896(18) 0.5208(3) 0.94981(18)
C42_4 C 0.31223(17) 0.5902(3) 0.98835(17)
C43_4 C 0.3108(2) 0.8902(3) 0.5891(2)
C44_4 C 0.3146(2) 0.7571(3) 0.6340(2)
C45_4 C 0.3502(2) 0.7488(3) 0.5983(2)
C47_4 C 0.0779(2) 0.8767(4) 0.9999(2)
H7_4 H 0.1291 0.6094 0.7272
H9_4 H 0.0907 0.3424 0.7611
H10_4 H 0.1261 0.8637 0.7544
H11_4 H 0.0478 0.7265 0.6091
H12_4 H 0.1327 0.8295 0.5891
H13_4 H 0.1084 0.8146 0.8475
H15_4 H 0.1353 0.5875 0.9490
H30_4 H 0.3710 0.8519 0.5464
H35_4 H 0.2803 0.8310 0.8618
H36_4 H 0.1564 0.9833 0.8985
H37_4 H 0.3439 0.4645 0.9585
H39_4 H 0.3058 0.9576 0.5798
H40_4 H 0.3050 0.7122 0.6607
H41_4 H 0.3743 0.6984 0.5954
H43_4 H 0.0763 0.9133 0.9645
H45_4 H 0.0645 0.5437 0.8463
H52_4 H 0.2268 0.6548 0.8675
N14_4 N 0.89823(17) 0.0104(3) 0.6730(2)
N15_4 N 0.77266(14) 0.0279(2) 0.77287(15)
C21_4 C 0.9286(2) 0.0073(3) 0.6311(2)
C22_4 C 0.73766(16) 0.1005(2) 0.74505(16)
C23_4 C 0.83037(17) 0.0634(3) 0.78721(18)
C24_4 C 0.82778(17) 0.1557(3) 0.76718(18)
C28_4 C 0.77308(18) 0.0153(3) 0.91101(17)
H14_4 H 0.8752 0.0589 0.6801
H21_4 H 0.9273 0.0566 0.6026
H23_4 H 0.8651 0.0284 0.8104
H24_4 H 0.8589 0.1962 0.7696
H28_4 H 0.7613 0.0687 0.8837
H46_4 H 0.6951 0.0974 0.7281
Ce1_4 Ce 0.988878(8) 0.702832(13) 0.726355(9)
N1_4 N 0.91844(14) 0.5716(2) 0.74424(15)
N3_4 N 0.93886(13) 0.7668(2) 0.80159(15)
N4_4 N 0.85452(15) 0.8179(2) 0.82161(15)
N11_4 N 0.92607(14) 0.6685(2) 0.61963(15)
N13_4 N 0.94834(15) 0.8756(2) 0.68773(17)
N17_4 N 0.73718(16) 0.8580(2) 0.67769(15)
N19_4 N 0.77914(15) 0.9258(2) 0.89439(15)
N21_4 N 0.68245(16) 0.7653(2) 0.85398(15)
N22_4 N 0.64871(18) 0.7592(3) 0.93245(17)
C1_4 C 0.87626(17) 0.5157(3) 0.70795(18)
C2_4 C 0.92869(16) 0.5314(3) 0.80002(18)
C3_4 C 0.89260(18) 0.4523(3) 0.79502(19)
C4_4 C 0.87828(17) 0.7649(3) 0.78682(18)
C5_4 C 0.95533(17) 0.8268(3) 0.85093(18)
C6_4 C 0.90482(18) 0.8571(3) 0.86314(18)
C16_4 C 0.87246(18) 0.7110(3) 0.59532(18)
C17_4 C 0.92209(17) 0.5866(3) 0.58552(18)
C18_4 C 0.86649(18) 0.5842(3) 0.54334(18)
C19_4 C 0.9113(2) 0.9309(3) 0.7058(2)
C20_4 C 0.9594(2) 0.9243(3) 0.6408(2)
C25_4 C 0.74984(18) 0.7883(3) 0.64404(19)
C26_4 C 0.7199(2) 0.9327(3) 0.63768(19)
C27_4 C 0.72337(19) 0.9041(3) 0.58307(18)
C29_4 C 0.7894(2) 0.8759(3) 0.9469(2)
C30_4 C 0.7890(2) 0.9365(3) 0.99183(19)
C31_4 C 0.6506(2) 0.8087(3) 0.8841(2)
C32_4 C 0.7028(2) 0.6830(3) 0.8859(2)
C33_4 C 0.6827(2) 0.6788(3) 0.9347(2)
H1_4 H 0.8601 0.5299 0.6662
H2_4 H 0.9562 0.5558 0.8353
H3_4 H 0.8892 0.4045 0.8252
H4_4 H 0.8569 0.7326 0.7545
H5_4 H 0.9954 0.8435 0.8722
H6_4 H 0.9004 0.8971 0.8935
H8_4 H 0.9938 0.4401 0.7269
H16_4 H 0.8620 0.7642 0.6102
H17_4 H 0.9561 0.5417 0.5943
H18_4 H 0.8485 0.5361 0.5127
H19_4 H 0.8920 0.9187 0.7369
H20_4 H 0.9895 0.8972 0.6206
H22_4 H 0.6351 0.7824 0.9605
H25_4 H 0.7630 0.7271 0.6615
H26_4 H 0.7115 0.9914 0.6509
H27_4 H 0.7147 0.9357 0.5477
H29_4 H 0.8034 0.8042 0.9507
H31_4 H 0.6315 0.8641 0.8741
H33_4 H 0.6932 0.6300 0.9644
H48_4 H 0.7283 0.6407 0.8724
H47_3 H 0.2056 0.0771 0.9668
H47_4 H 0.7944 0.9229 0.0332
loop_
_geom_bond_atom_site_label_1
_geom_bond_atom_site_label_2
_geom_bond_site_symmetry_1
_geom_bond_site_symmetry_2
C3 N2 1_555 1_555
C9 N6 1_555 1_555
H3 C3 1_555 1_555
H8 C8 1_555 1_555
H9 C9 1_555 1_555
Ce6 N2 1_555 1_555
Ce8 N6 1_555 1_555
C8 C9 1_555 1_555
Ce1 N1 1_555 1_555
Ce2 N4 1_555 1_555
Ce3 N8 1_555 1_555
Ce4 N10 1_555 1_555
N1 C1 1_555 1_555
N3 Ce1 1_555 1_555
N4 C4 1_555 1_555
N5 Ce1 1_555 1_555
N7 Ce1 1_555 1_555
N8 C10 1_555 1_555
N9 Ce1 1_555 1_555
N10 C13 1_555 1_555
N11 Ce1 1_555 1_555
N12 C16 1_555 1_555
N13 Ce1 1_555 1_555
N14 C19 1_555 1_555
N15 Ce2 1_555 1_555
N16 C22 1_555 1_555
N17 Ce2 1_555 1_555
N18 C25 1_555 1_555
N19 Ce2 1_555 1_555
N20 C28 1_555 1_555
N21 Ce2 1_555 1_555
N22 C31 1_555 1_555
N23 Ce3 1_555 1_555
N24 C34 1_555 1_555
N25 Ce3 1_555 1_555
N26 Ce4 1_555 1_555
N27 C40 1_555 1_555
N28 Ce4 1_555 1_555
N29 Ce3 1_555 1_555
N30 C43 1_555 1_555
N31 Ce4 1_555 1_555
N32 C46 1_555 1_555
C1 H1 1_555 1_555
C2 N1 1_555 1_555
C4 N3 1_555 1_555
C5 N3 1_555 1_555
C6 N4 1_555 1_555
C7 N5 1_555 1_555
C10 N7 1_555 1_555
C11 N7 1_555 1_555
C12 N8 1_555 1_555
C13 N9 1_555 1_555
C14 N9 1_555 1_555
C15 N10 1_555 1_555
C16 N11 1_555 1_555
C17 N11 1_555 1_555
C18 N12 1_555 1_555
C19 N13 1_555 1_555
C20 N13 1_555 1_555
C21 N14 1_555 1_555
C22 N15 1_555 1_555
C23 N15 1_555 1_555
C24 N16 1_555 1_555
C25 N17 1_555 1_555
C26 N17 1_555 1_555
C27 N18 1_555 1_555
C28 N19 1_555 1_555
C29 N19 1_555 1_555
C30 N20 1_555 1_555
C31 N21 1_555 1_555
C32 N21 1_555 1_555
C33 N22 1_555 1_555
C34 N23 1_555 1_555
C35 N23 1_555 1_555
C36 N24 1_555 1_555
C37 N25 1_555 1_555
C38 N25 1_555 1_555
C39 N26 1_555 1_555
C40 N28 1_555 1_555
C41 N27 1_555 1_555
C42 N28 1_555 1_555
C43 N29 1_555 1_555
C44 N29 1_555 1_555
C45 N30 1_555 1_555
C46 N31 1_555 1_555
C47 N31 1_555 1_555
C48 N32 1_555 1_555
H2 C2 1_555 1_555
H4 C4 1_555 1_555
H5 C5 1_555 1_555
H6 C6 1_555 1_555
H7 C7 1_555 1_555
H10 C10 1_555 1_555
H11 C11 1_555 1_555
H12 C12 1_555 1_555
H13 C13 1_555 1_555
H14 N14 1_555 1_555
H15 C15 1_555 1_555
H16 C16 1_555 1_555
H17 C17 1_555 1_555
H18 C18 1_555 1_555
H19 C19 1_555 1_555
H20 C20 1_555 1_555
H21 C21 1_555 1_555
H22 N22 1_555 1_555
H23 C23 1_555 1_555
H24 C24 1_555 1_555
H25 C25 1_555 1_555
H26 C26 1_555 1_555
H27 C27 1_555 1_555
H28 C28 1_555 1_555
H29 C29 1_555 1_555
H30 N30 1_555 1_555
H31 C31 1_555 1_555
H32 N32 1_555 1_555
H33 C33 1_555 1_555
H34 C35 1_555 1_555
H35 C37 1_555 1_555
H36 C39 1_555 1_555
H38 C42 1_555 1_555
H39 C43 1_555 1_555
H40 C44 1_555 1_555
H41 C45 1_555 1_555
H42 C46 1_555 1_555
H43 C47 1_555 1_555
H44 C48 1_555 1_555
H45 C14 1_555 1_555
H46 C22 1_555 1_555
H47 C30 1_555 1_555
H48 C32 1_555 1_555
H49 C34 1_555 1_555
H50 C36 1_555 1_555
H51 C38 1_555 1_555
H52 C40 1_555 1_555
Ce6 N16 1_555 1_555
Ce8 N24 1_555 1_555
Ce9 N20 1_555 1_555
N33 Ce2 1_555 1_555
N34 Ce3 1_555 1_555
N35 Ce4 1_555 1_555
N36 Ce2 1_555 1_555
N37 Ce4 1_555 1_555
N38 Ce4 1_555 1_555
N39 Ce3 1_555 1_555
N40 Ce3 1_555 1_555
N26 C37 1_555 1_555
C5 C6 1_555 1_555
C11 C12 1_555 1_555
C14 C15 1_555 1_555
C17 C18 1_555 1_555
C20 C21 1_555 1_555
C23 C24 1_555 1_555
C26 C27 1_555 1_555
C29 C30 1_555 1_555
C32 C33 1_555 1_555
C35 C36 1_555 1_555
C38 C39 1_555 1_555
C41 C42 1_555 1_555
C44 C45 1_555 1_555
C47 C48 1_555 1_555
Ce1_2 N1_2 1_555 1_555
Ce6 N4_2 1_555 1_555
N1_2 C1_2 1_555 1_555
N33 C1_2 1_555 1_555
N3_2 Ce1_2 1_555 1_555
N4_2 C4_2 1_555 1_555
N11_2 Ce1_2 1_555 1_555
N12_2 C16_2 1_555 1_555
N13_2 Ce1_2 1_555 1_555
N17_2 Ce6 1_555 1_555
N18_2 C25_2 1_555 1_555
N19_2 Ce6 1_555 1_555
N21_2 Ce6 1_555 1_555
N22_2 C31_2 1_555 1_555
C1_2 H1_2 1_555 1_555
C2_2 N1_2 1_555 1_555
C3_2 N33 1_555 1_555
C4_2 N3_2 1_555 1_555
C5_2 N3_2 1_555 1_555
C6_2 N4_2 1_555 1_555
C16_2 N11_2 1_555 1_555
C17_2 N11_2 1_555 1_555
C18_2 N12_2 1_555 1_555
C19_2 N13_2 1_555 1_555
C20_2 N13_2 1_555 1_555
C25_2 N17_2 1_555 1_555
C26_2 N17_2 1_555 1_555
C27_2 N18_2 1_555 1_555
C29_2 N19_2 1_555 1_555
C31_2 N21_2 1_555 1_555
C32_2 N21_2 1_555 1_555
C33_2 N22_2 1_555 1_555
H2_2 C2_2 1_555 1_555
H3_2 C3_2 1_555 1_555
H4_2 C4_2 1_555 1_555
H5_2 C5_2 1_555 1_555
H6_2 C6_2 1_555 1_555
H16_2 C16_2 1_555 1_555
H17_2 C17_2 1_555 1_555
H18_2 C18_2 1_555 1_555
H19_2 C19_2 1_555 1_555
H20_2 C20_2 1_555 1_555
H22_2 N22_2 1_555 1_555
H25_2 C25_2 1_555 1_555
H26_2 C26_2 1_555 1_555
H27_2 C27_2 1_555 1_555
H29_2 C29_2 1_555 1_555
H31_2 C31_2 1_555 1_555
H33_2 C33_2 1_555 1_555
H48_2 C32_2 1_555 1_555
Ce9 N12_2 1_555 1_555
N18_2 Ce9 1_555 1_555
C2_2 C3_2 1_555 1_555
C5_2 C6_2 1_555 1_555
C17_2 C18_2 1_555 1_555
C26_2 C27_2 1_555 1_555
C29_2 C30_2 1_555 1_555
C32_2 C33_2 1_555 1_555
N36 C22_2 1_555 1_555
N20_2 C28_2 1_555 1_555
C21_2 N14_2 1_555 1_555
C22_2 N15_2 1_555 1_555
C23_2 N15_2 1_555 1_555
C24_2 N36 1_555 1_555
H14_2 N14_2 1_555 1_555
H21_2 C21_2 1_555 1_555
H23_2 C23_2 1_555 1_555
H24_2 C24_2 1_555 1_555
H28_2 C28_2 1_555 1_555
H46_2 C22_2 1_555 1_555
C23_2 C24_2 1_555 1_555
Ce8 N8_2 1_555 1_555
Ce4_2 N10_2 1_555 1_555
N34 C7_2 1_555 1_555
N8_2 C10_2 1_555 1_555
N10_2 C13_2 1_555 1_555
N25_2 Ce8 1_555 1_555
N26_2 Ce4_2 1_555 1_555
N40 C40_2 1_555 1_555
N28_2 Ce4_2 1_555 1_555
N29_2 Ce8 1_555 1_555
N30_2 C43_2 1_555 1_555
C7_2 N5_2 1_555 1_555
C8_2 N5_2 1_555 1_555
C9_2 N34 1_555 1_555
C10_2 N7_2 1_555 1_555
C11_2 N7_2 1_555 1_555
C12_2 N8_2 1_555 1_555
C13_2 N9_2 1_555 1_555
C14_2 N9_2 1_555 1_555
C15_2 N10_2 1_555 1_555
C37_2 N25_2 1_555 1_555
C38_2 N25_2 1_555 1_555
C39_2 N26_2 1_555 1_555
C40_2 N28_2 1_555 1_555
C41_2 N40 1_555 1_555
C42_2 N28_2 1_555 1_555
C43_2 N29_2 1_555 1_555
C44_2 N29_2 1_555 1_555
C45_2 N30_2 1_555 1_555
H7_2 C7_2 1_555 1_555
H9_2 C9_2 1_555 1_555
H10_2 C10_2 1_555 1_555
H11_2 C11_2 1_555 1_555
H12_2 C12_2 1_555 1_555
H13_2 C13_2 1_555 1_555
H15_2 C15_2 1_555 1_555
H30_2 N30_2 1_555 1_555
H35_2 C37_2 1_555 1_555
H36_2 C39_2 1_555 1_555
H37_2 C41_2 1_555 1_555
H39_2 C43_2 1_555 1_555
H40_2 C44_2 1_555 1_555
H41_2 C45_2 1_555 1_555
H43_2 C47_2 1_555 1_555
H45_2 C14_2 1_555 1_555
H52_2 C40_2 1_555 1_555
N26_2 C37_2 1_555 1_555
C8_2 C9_2 1_555 1_555
C11_2 C12_2 1_555 1_555
C14_2 C15_2 1_555 1_555
C38_2 C39_2 1_555 1_555
C41_2 C42_2 1_555 1_555
C44_2 C45_2 1_555 1_555
N32_2 C46_2 1_555 1_555
C46_2 N31_2 1_555 1_555
C48_2 N32_2 1_555 1_555
H32_2 N32_2 1_555 1_555
H42_2 C46_2 1_555 1_555
H44_2 C48_2 1_555 1_555
N39 C34_2 1_555 1_555
C34_2 N23_2 1_555 1_555
C35_2 N23_2 1_555 1_555
C36_2 N39 1_555 1_555
H34_2 C35_2 1_555 1_555
H49_2 C34_2 1_555 1_555
H50_2 C36_2 1_555 1_555
C35_2 C36_2 1_555 1_555
Ce1_3 N1_3 1_555 1_555
Ce2_2 N4_3 1_555 1_555
Ce3_2 N8_3 1_555 1_555
Ce9 N10_3 1_555 1_555
N1_3 C1_3 1_555 1_555
N3_3 Ce1_3 1_555 1_555
N4_3 C4_3 1_555 1_555
N5_3 Ce1_3 1_555 1_555
N7_3 Ce1_3 1_555 1_555
N8_3 C10_3 1_555 1_555
N9_3 Ce1_3 1_555 1_555
N10_3 C13_3 1_555 1_555
N11_3 Ce1_3 1_555 1_555
N35_2 C16_3 1_555 1_555
N13_3 Ce1_3 1_555 1_555
N14_3 C19_3 1_555 1_555
N15_3 Ce2_2 1_555 1_555
N16_2 C22_3 1_555 1_555
N17_3 Ce2_2 1_555 1_555
N37_2 C25_3 1_555 1_555
N19_3 Ce2_2 1_555 1_555
N38 C28_3 1_555 1_555
N21_3 Ce2_2 1_555 1_555
N22_3 C31_3 1_555 1_555
N23_3 Ce3_2 1_555 1_555
N24_2 C34_3 1_555 1_555
N25_3 Ce3_2 1_555 1_555
N26_3 Ce9 1_555 1_555
N27_2 C40_3 1_555 1_555
N28_3 Ce9 1_555 1_555
N29_3 Ce3_2 1_555 1_555
N30_3 C43_3 1_555 1_555
N31_3 Ce9 1_555 1_555
N32_3 C46_3 1_555 1_555
C1_3 H1_3 1_555 1_555
C2_3 N1_3 1_555 1_555
C4_3 N3_3 1_555 1_555
C5_3 N3_3 1_555 1_555
C6_3 N4_3 1_555 1_555
C7_3 N5_3 1_555 1_555
C10_3 N7_3 1_555 1_555
C11_3 N7_3 1_555 1_555
C12_3 N8_3 1_555 1_555
C13_3 N9_3 1_555 1_555
C14_3 N9_3 1_555 1_555
C15_3 N10_3 1_555 1_555
C16_3 N11_3 1_555 1_555
C17_3 N11_3 1_555 1_555
C18_3 N35_2 1_555 1_555
C19_3 N13_3 1_555 1_555
C20_3 N13_3 1_555 1_555
C21_3 N14_3 1_555 1_555
C22_3 N15_3 1_555 1_555
C23_3 N15_3 1_555 1_555
C24_3 N16_2 1_555 1_555
C25_3 N17_3 1_555 1_555
C26_3 N17_3 1_555 1_555
C27_3 N37_2 1_555 1_555
C28_3 N19_3 1_555 1_555
C29_3 N19_3 1_555 1_555
C30_3 N38 1_555 1_555
C31_3 N21_3 1_555 1_555
C32_3 N21_3 1_555 1_555
C33_3 N22_3 1_555 1_555
C34_3 N23_3 1_555 1_555
C35_3 N23_3 1_555 1_555
C36_3 N24_2 1_555 1_555
C37_3 N25_3 1_555 1_555
C38_3 N25_3 1_555 1_555
C39_3 N26_3 1_555 1_555
C40_3 N28_3 1_555 1_555
C41_3 N27_2 1_555 1_555
C42_3 N28_3 1_555 1_555
C43_3 N29_3 1_555 1_555
C44_3 N29_3 1_555 1_555
C45_3 N30_3 1_555 1_555
C46_3 N31_3 1_555 1_555
C47_3 N31_3 1_555 1_555
C48_3 N32_3 1_555 1_555
H2_3 C2_3 1_555 1_555
H4_3 C4_3 1_555 1_555
H5_3 C5_3 1_555 1_555
H6_3 C6_3 1_555 1_555
H7_3 C7_3 1_555 1_555
H10_3 C10_3 1_555 1_555
H11_3 C11_3 1_555 1_555
H12_3 C12_3 1_555 1_555
H13_3 C13_3 1_555 1_555
H14_3 N14_3 1_555 1_555
H15_3 C15_3 1_555 1_555
H16_3 C16_3 1_555 1_555
H17_3 C17_3 1_555 1_555
H18_3 C18_3 1_555 1_555
H19_3 C19_3 1_555 1_555
H20_3 C20_3 1_555 1_555
H21_3 C21_3 1_555 1_555
H22_3 N22_3 1_555 1_555
H23_3 C23_3 1_555 1_555
H24_3 C24_3 1_555 1_555
H25_3 C25_3 1_555 1_555
H26_3 C26_3 1_555 1_555
H27_3 C27_3 1_555 1_555
H28_3 C28_3 1_555 1_555
H29_3 C29_3 1_555 1_555
H30_3 N30_3 1_555 1_555
H31_3 C31_3 1_555 1_555
H32_3 N32_3 1_555 1_555
H33_3 C33_3 1_555 1_555
H34_3 C35_3 1_555 1_555
H35_3 C37_3 1_555 1_555
H36_3 C39_3 1_555 1_555
H38_3 C42_3 1_555 1_555
H39_3 C43_3 1_555 1_555
H40_3 C44_3 1_555 1_555
H41_3 C45_3 1_555 1_555
H42_3 C46_3 1_555 1_555
H43_3 C47_3 1_555 1_555
H44_3 C48_3 1_555 1_555
H45_3 C14_3 1_555 1_555
H46_3 C22_3 1_555 1_555
H47_2 C30_3 1_555 1_555
H48_3 C32_3 1_555 1_555
H49_3 C34_3 1_555 1_555
H50_3 C36_3 1_555 1_555
H51_3 C38_3 1_555 1_555
H52_3 C40_3 1_555 1_555
Ce5 N16_2 1_555 1_555
Ce7 N24_2 1_555 1_555
N33_2 Ce2_2 1_555 1_555
N34_2 Ce3_2 1_555 1_555
N36_2 Ce2_2 1_555 1_555
N39_2 Ce3_2 1_555 1_555
N40_2 Ce3_2 1_555 1_555
N26_3 C37_3 1_555 1_555
C5_3 C6_3 1_555 1_555
C11_3 C12_3 1_555 1_555
C14_3 C15_3 1_555 1_555
C17_3 C18_3 1_555 1_555
C20_3 C21_3 1_555 1_555
C23_3 C24_3 1_555 1_555
C26_3 C27_3 1_555 1_555
C29_3 C30_3 1_555 1_555
C32_3 C33_3 1_555 1_555
C35_3 C36_3 1_555 1_555
C38_3 C39_3 1_555 1_555
C41_3 C42_3 1_555 1_555
C44_3 C45_3 1_555 1_555
C47_3 C48_3 1_555 1_555
C3_3 N2_2 1_555 1_555
C9_3 N6_2 1_555 1_555
H3_3 C3_3 1_555 1_555
H8_3 C8_3 1_555 1_555
H9_3 C9_3 1_555 1_555
Ce5 N2_2 1_555 1_555
Ce7 N6_2 1_555 1_555
C8_3 C9_3 1_555 1_555
N39_2 C34_4 1_555 1_555
C34_4 N23_4 1_555 1_555
C35_4 N23_4 1_555 1_555
C36_4 N39_2 1_555 1_555
H34_4 C35_4 1_555 1_555
H49_4 C34_4 1_555 1_555
H50_4 C36_4 1_555 1_555
C35_4 C36_4 1_555 1_555
N32_4 C46_4 1_555 1_555
C46_4 N31_4 1_555 1_555
C48_4 N32_4 1_555 1_555
H32_4 N32_4 1_555 1_555
H42_4 C46_4 1_555 1_555
H44_4 C48_4 1_555 1_555
Ce7 N8_4 1_555 1_555
Ce10 N10_4 1_555 1_555
N34_2 C7_4 1_555 1_555
N8_4 C10_4 1_555 1_555
N10_4 C13_4 1_555 1_555
N25_4 Ce7 1_555 1_555
N26_4 Ce10 1_555 1_555
N40_2 C40_4 1_555 1_555
N28_4 Ce10 1_555 1_555
N29_4 Ce7 1_555 1_555
N30_4 C43_4 1_555 1_555
C7_4 N5_4 1_555 1_555
C8_4 N5_4 1_555 1_555
C9_4 N34_2 1_555 1_555
C10_4 N7_4 1_555 1_555
C11_4 N7_4 1_555 1_555
C12_4 N8_4 1_555 1_555
C13_4 N9_4 1_555 1_555
C14_4 N9_4 1_555 1_555
C15_4 N10_4 1_555 1_555
C37_4 N25_4 1_555 1_555
C38_4 N25_4 1_555 1_555
C39_4 N26_4 1_555 1_555
C40_4 N28_4 1_555 1_555
C41_4 N40_2 1_555 1_555
C42_4 N28_4 1_555 1_555
C43_4 N29_4 1_555 1_555
C44_4 N29_4 1_555 1_555
C45_4 N30_4 1_555 1_555
H7_4 C7_4 1_555 1_555
H9_4 C9_4 1_555 1_555
H10_4 C10_4 1_555 1_555
H11_4 C11_4 1_555 1_555
H12_4 C12_4 1_555 1_555
H13_4 C13_4 1_555 1_555
H15_4 C15_4 1_555 1_555
H30_4 N30_4 1_555 1_555
H35_4 C37_4 1_555 1_555
H36_4 C39_4 1_555 1_555
H37_4 C41_4 1_555 1_555
H39_4 C43_4 1_555 1_555
H40_4 C44_4 1_555 1_555
H41_4 C45_4 1_555 1_555
H43_4 C47_4 1_555 1_555
H45_4 C14_4 1_555 1_555
H52_4 C40_4 1_555 1_555
N26_4 C37_4 1_555 1_555
C8_4 C9_4 1_555 1_555
C11_4 C12_4 1_555 1_555
C14_4 C15_4 1_555 1_555
C38_4 C39_4 1_555 1_555
C41_4 C42_4 1_555 1_555
C44_4 C45_4 1_555 1_555
N36_2 C22_4 1_555 1_555
N38_2 C28_4 1_555 1_555
C21_4 N14_4 1_555 1_555
C22_4 N15_4 1_555 1_555
C23_4 N15_4 1_555 1_555
C24_4 N36_2 1_555 1_555
H14_4 N14_4 1_555 1_555
H21_4 C21_4 1_555 1_555
H23_4 C23_4 1_555 1_555
H24_4 C24_4 1_555 1_555
H28_4 C28_4 1_555 1_555
H46_4 C22_4 1_555 1_555
C23_4 C24_4 1_555 1_555
Ce1_4 N1_4 1_555 1_555
Ce5 N4_4 1_555 1_555
N1_4 C1_4 1_555 1_555
N33_2 C1_4 1_555 1_555
N3_4 Ce1_4 1_555 1_555
N4_4 C4_4 1_555 1_555
N11_4 Ce1_4 1_555 1_555
N35 C16_4 1_555 1_555
N13_4 Ce1_4 1_555 1_555
N17_4 Ce5 1_555 1_555
N37 C25_4 1_555 1_555
N19_4 Ce5 1_555 1_555
N21_4 Ce5 1_555 1_555
N22_4 C31_4 1_555 1_555
C1_4 H1_4 1_555 1_555
C2_4 N1_4 1_555 1_555
C3_4 N33_2 1_555 1_555
C4_4 N3_4 1_555 1_555
C5_4 N3_4 1_555 1_555
C6_4 N4_4 1_555 1_555
C16_4 N11_4 1_555 1_555
C17_4 N11_4 1_555 1_555
C18_4 N35 1_555 1_555
C19_4 N13_4 1_555 1_555
C20_4 N13_4 1_555 1_555
C25_4 N17_4 1_555 1_555
C26_4 N17_4 1_555 1_555
C27_4 N37 1_555 1_555
C29_4 N19_4 1_555 1_555
C31_4 N21_4 1_555 1_555
C32_4 N21_4 1_555 1_555
C33_4 N22_4 1_555 1_555
H2_4 C2_4 1_555 1_555
H3_4 C3_4 1_555 1_555
H4_4 C4_4 1_555 1_555
H5_4 C5_4 1_555 1_555
H6_4 C6_4 1_555 1_555
H16_4 C16_4 1_555 1_555
H17_4 C17_4 1_555 1_555
H18_4 C18_4 1_555 1_555
H19_4 C19_4 1_555 1_555
H20_4 C20_4 1_555 1_555
H22_4 N22_4 1_555 1_555
H25_4 C25_4 1_555 1_555
H26_4 C26_4 1_555 1_555
H27_4 C27_4 1_555 1_555
H29_4 C29_4 1_555 1_555
H31_4 C31_4 1_555 1_555
H33_4 C33_4 1_555 1_555
H48_4 C32_4 1_555 1_555
C2_4 C3_4 1_555 1_555
C5_4 C6_4 1_555 1_555
C17_4 C18_4 1_555 1_555
C26_4 C27_4 1_555 1_555
C29_4 C30_4 1_555 1_555
C32_4 C33_4 1_555 1_555

#END
