
###############################################################################
#
# This file contains modified crystal structure data generated from the
# MOF subset of the Cambridge Structural Database (CSD) v543 
# hosted by the Cambridge Crystallographic Data Centre (CCDC).
#
# This work is licensed under the Creative Commons
# Attribution-NonCommercial-ShareAlike 4.0 International License.
# To view a copy of this license, visit
# http://creativecommons.org/licenses/by-nc-sa/4.0/
# or send a letter to
# Creative Commons, PO Box 1866, Mountain View, CA 94042, USA.
#
# CIF created using the CSD Python API on 29 September 2022
# The structure has been converted into the P1 space group
# The structure has a 3D framework
# The original CSD entry MOXNUJ is in the tetragonal crystal system
# The framework has been calculated to contain at least 10.0% void space
# The void calculation uses a probe of radius 1.32A, grid spacing 0.4
#
###############################################################################

data_MOXNUJ
_chemical_formula_moiety         '(C134 H176 Cu15 N16 O64)n'
_symmetry_cell_setting           triclinic
_symmetry_space_group_name_H-M   'P 1'
_symmetry_Int_Tables_number      1
_space_group_name_Hall           'P 1'
loop_
_symmetry_equiv_pos_site_id
_symmetry_equiv_pos_as_xyz
1 x,y,z
_cell_length_a                   22.782(3)
_cell_length_b                   22.782(3)
_cell_length_c                   9.804(4)
_cell_angle_alpha                90
_cell_angle_beta                 90
_cell_angle_gamma                90
_cell_volume                     5088.47
loop_
_atom_site_label
_atom_site_type_symbol
_atom_site_fract_x
_atom_site_fract_y
_atom_site_fract_z
Cu1 Cu 0.5000 0.0000 0.0000
Cu2 Cu 0.5000 0.5000 0.0000
N6 N 0.50509(5) 0.56631(4) 0.13578(11)
O8 O 0.41533(5) 0.01603(6) 0.02034(14)
O10 O 0.58467(5) 0.48397(6) 0.02034(14)
C28 C 0.38849(8) 0.04184(8) 0.1065(2)
C30 C 0.61151(8) 0.45816(8) 0.1065(2)
O11 O 0.41093(4) 0.06343(4) 0.21274(12)
O13 O 0.58907(4) 0.43657(4) 0.21274(12)
C31 C 0.32200(8) 0.04836(9) 0.1028(2)
C33 C 0.67800(8) 0.45164(9) 0.1028(2)
H30 H 0.3105 0.0660 0.0181
H32 H 0.6895 0.4340 0.0181
H33 H 0.3041 0.0104 0.1110
H35 H 0.6959 0.4896 0.1110
H36 H 0.3095 0.0728 0.1772
H38 H 0.6905 0.4272 0.1772
O14 O 0.52259(5) 0.07756(4) 0.18584(10)
O16 O 0.47741(5) 0.42244(4) 0.18584(10)
H39 H 0.4883 0.0894 0.2017
H41 H 0.5117 0.4106 0.2017
H42 H 0.5450 0.1075 0.1767
H44 H 0.4550 0.3925 0.1767
Cu1_2 Cu 0.5000 1.0000 0.0000
N5 N 0.49491(5) 0.93369(4) 0.13578(11)
C2 C 0.63786(4) 0.71814(4) 0.91586(9)
H2 H 0.6349 0.6885 0.8509
C3 C 0.60197(4) 0.76589(4) 0.91051(8)
O1 O 0.56110(3) 0.77601(3) 0.81310(7)
C6 C 0.55169(3) 0.73078(3) 0.71415(7)
H5 H 0.5428 0.6939 0.7591
H6 H 0.5866 0.7255 0.6588
C7 C 0.5000 0.7500 0.6250
C11 C 0.53542(5) 0.92823(5) 0.23142(12)
C12 C 0.46458(5) 0.57177(5) 0.23142(12)
H13 H 0.5678 0.9530 0.2287
H14 H 0.4322 0.5470 0.2287
C13 C 0.36214(4) 0.78186(4) 0.91586(9)
C14 C 0.53186(4) 0.88786(4) 0.33414(9)
C15 C 0.46814(4) 0.61214(4) 0.33414(9)
H15 H 0.3651 0.8115 0.8509
H16 H 0.5615 0.8849 0.3991
H17 H 0.4385 0.6151 0.3991
C16 C 0.39803(4) 0.73411(4) 0.91051(8)
C17 C 0.48411(4) 0.85197(4) 0.33949(8)
C18 C 0.51589(4) 0.64803(4) 0.33949(8)
C20 C 0.44242(5) 0.85606(5) 0.23852(10)
C21 C 0.55758(5) 0.64394(5) 0.23852(10)
H19 H 0.4097 0.8316 0.2383
H20 H 0.5903 0.6684 0.2383
C23 C 0.45042(6) 0.89706(7) 0.13852(14)
C24 C 0.54958(6) 0.60294(7) 0.13852(14)
H22 H 0.4229 0.8991 0.0687
H23 H 0.5771 0.6009 0.0687
O5 O 0.43890(3) 0.72399(3) 0.81310(7)
O6 O 0.47399(3) 0.81110(3) 0.43690(7)
O7 O 0.52601(3) 0.68890(3) 0.43690(7)
C25 C 0.44831(3) 0.76922(3) 0.71415(7)
C26 C 0.51922(3) 0.80169(3) 0.53585(7)
C27 C 0.48078(3) 0.69831(3) 0.53585(7)
H24 H 0.4572 0.8061 0.7591
H25 H 0.5561 0.7928 0.4909
H26 H 0.4439 0.7072 0.4909
H27 H 0.4134 0.7745 0.6588
H28 H 0.5245 0.8366 0.5912
H29 H 0.4755 0.6634 0.5912
Cu1_3 Cu 0.5000 0.0000 1.0000
N1 N 0.50509(5) 0.06631(4) 0.86422(11)
C1 C 0.46458(5) 0.07177(5) 0.76858(12)
H1 H 0.4322 0.0470 0.7713
C2_2 C 0.46814(4) 0.11214(4) 0.66586(9)
H2_2 H 0.4385 0.1151 0.6009
C3_2 C 0.51589(4) 0.14803(4) 0.66051(8)
C4 C 0.55758(5) 0.14394(5) 0.76148(10)
H3 H 0.5903 0.1684 0.7617
C5 C 0.54958(6) 0.10294(7) 0.86148(14)
H4 H 0.5771 0.1009 0.9313
O1_2 O 0.52601(3) 0.18890(3) 0.56310(7)
C6_2 C 0.48078(3) 0.19831(3) 0.46415(7)
H5_2 H 0.4439 0.2072 0.5091
H6_2 H 0.4755 0.1634 0.4088
C7_2 C 0.5000 0.2500 0.3750
Cu2_2 Cu 0.5000 0.5000 1.0000
N2 N 0.49491(5) 0.43369(4) 0.86422(11)
C10 C 0.53542(5) 0.42823(5) 0.76858(12)
H12 H 0.5678 0.4530 0.7713
C13_2 C 0.53186(4) 0.38786(4) 0.66586(9)
C14_2 C 0.63786(4) 0.21814(4) 0.08414(9)
C15_2 C 0.36214(4) 0.28186(4) 0.08414(9)
H15_2 H 0.5615 0.3849 0.6009
H16_2 H 0.6349 0.1885 0.1491
H17_2 H 0.3651 0.3115 0.1491
C16_2 C 0.48411(4) 0.35197(4) 0.66051(8)
C17_2 C 0.60197(4) 0.26589(4) 0.08949(8)
C18_2 C 0.39803(4) 0.23411(4) 0.08949(8)
C19 C 0.44242(5) 0.35606(5) 0.76148(10)
H18 H 0.4097 0.3316 0.7617
C22 C 0.45042(6) 0.39706(7) 0.86148(14)
H21 H 0.4229 0.3991 0.9313
O5_2 O 0.47399(3) 0.31110(3) 0.56310(7)
O6_2 O 0.56110(3) 0.27601(3) 0.18690(7)
O7_2 O 0.43890(3) 0.22399(3) 0.18690(7)
C25_2 C 0.51922(3) 0.30169(3) 0.46415(7)
C26_2 C 0.55169(3) 0.23078(3) 0.28585(7)
C27_2 C 0.44831(3) 0.26922(3) 0.28585(7)
H24_2 H 0.5561 0.2928 0.5091
H25_2 H 0.5428 0.1939 0.2409
H26_2 H 0.4572 0.3061 0.2409
H27_2 H 0.5245 0.3366 0.4088
H28_2 H 0.5866 0.2255 0.3412
H29_2 H 0.4134 0.2745 0.3412
O9 O 0.41533(5) 0.51603(6) 0.97966(14)
C29 C 0.38849(8) 0.54184(8) 0.8935(2)
O12 O 0.41093(4) 0.56343(4) 0.78726(12)
C32 C 0.32200(8) 0.54836(9) 0.8972(2)
H31 H 0.3105 0.5660 0.9819
H34 H 0.3041 0.5104 0.8890
H37 H 0.3095 0.5728 0.8228
O15 O 0.52259(5) 0.57756(4) 0.81416(10)
H40 H 0.4883 0.5894 0.7983
H43 H 0.5450 0.6075 0.8233
Cu1_4 Cu 0.5000 1.0000 1.0000
O2 O 0.58467(5) 0.98397(6) 0.97966(14)
C8 C 0.61151(8) 0.95816(8) 0.8935(2)
O3 O 0.58907(4) 0.93657(4) 0.78726(12)
C9 C 0.67800(8) 0.95164(9) 0.8972(2)
H7 H 0.6895 0.9340 0.9819
H8 H 0.6959 0.9896 0.8890
H9 H 0.6905 0.9272 0.8228
O4 O 0.47741(5) 0.92244(4) 0.81416(10)
H10 H 0.5117 0.9106 0.7983
H11 H 0.4550 0.8925 0.8233
Cu3 Cu 0.7500 0.2500 0.7500
Cu4 Cu 0.2500 0.2500 0.7500
N3 N 0.68369(4) 0.25509(5) 0.88578(11)
N4 N 0.31631(4) 0.24491(5) 0.88578(11)
C11_2 C 0.67823(5) 0.21458(5) 0.98142(12)
C12_2 C 0.32177(5) 0.28542(5) 0.98142(12)
H13_2 H 0.7030 0.1822 0.9787
H14_2 H 0.2970 0.3178 0.9787
C20_2 C 0.60606(5) 0.30758(5) 0.98852(10)
C21_2 C 0.39394(5) 0.19242(5) 0.98852(10)
H19_2 H 0.5816 0.3403 0.9883
H20_2 H 0.4184 0.1597 0.9883
C23_2 C 0.64706(7) 0.29958(6) 0.88852(14)
C24_2 C 0.35294(7) 0.20042(6) 0.88852(14)
H22_2 H 0.6491 0.3271 0.8187
H23_2 H 0.3509 0.1729 0.8187
C7_3 C -0.0000 0.2500 0.1250
N2_2 N 0.18369(4) 0.25509(5) 0.61422(11)
C10_2 C 0.17823(5) 0.21458(5) 0.51858(12)
H12_2 H 0.2030 0.1822 0.5213
C13_3 C 0.13786(4) 0.21814(4) 0.41586(9)
H15_3 H 0.1349 0.1885 0.3509
C16_3 C 0.10197(4) 0.26589(4) 0.41051(8)
C19_2 C 0.10606(5) 0.30758(5) 0.51148(10)
H18_2 H 0.0816 0.3403 0.5117
C22_2 C 0.14706(7) 0.29958(6) 0.61148(14)
H21_2 H 0.1491 0.3271 0.6813
O5_3 O 0.06110(3) 0.27601(3) 0.31310(7)
C25_3 C 0.05169(3) 0.23078(3) 0.21415(7)
C27_3 C 0.01922(3) 0.30169(3) 0.03585(7)
H24_3 H 0.0428 0.1939 0.2591
H27_3 H 0.0866 0.2255 0.1588
H29_3 H 0.0245 0.3366 0.0912
O9_2 O 0.26603(6) 0.33467(5) 0.72966(14)
O10_2 O 0.23397(6) 0.16533(5) 0.77034(14)
C29_2 C 0.29184(8) 0.36151(8) 0.6435(2)
C30_2 C 0.20816(8) 0.13849(8) 0.8565(2)
O12_2 O 0.31343(4) 0.33907(4) 0.53726(12)
O13_2 O 0.18657(4) 0.16093(4) 0.96274(12)
C32_2 C 0.29836(9) 0.42800(8) 0.6472(2)
C33_2 C 0.20164(9) 0.07200(8) 0.8528(2)
H31_2 H 0.3160 0.4395 0.7319
H32_2 H 0.1840 0.0605 0.7681
H34_2 H 0.2604 0.4459 0.6390
H35_2 H 0.2396 0.0541 0.8610
H37_2 H 0.3228 0.4405 0.5728
H38_2 H 0.1772 0.0595 0.9272
O15_2 O 0.32756(4) 0.22741(5) 0.56416(10)
O16_2 O 0.17244(4) 0.27259(5) 0.93584(10)
H40_2 H 0.3394 0.2617 0.5483
H41_2 H 0.1606 0.2383 0.9517
H43_2 H 0.3575 0.2050 0.5733
H44_2 H 0.1425 0.2950 0.9267
N1_2 N 0.81631(4) 0.24491(5) 0.61422(11)
C1_2 C 0.82177(5) 0.28542(5) 0.51858(12)
H1_2 H 0.7970 0.3178 0.5213
C2_3 C 0.86214(4) 0.28186(4) 0.41586(9)
H2_3 H 0.8651 0.3115 0.3509
C3_3 C 0.89803(4) 0.23411(4) 0.41051(8)
C4_2 C 0.89394(5) 0.19242(5) 0.51148(10)
H3_2 H 0.9184 0.1597 0.5117
C5_2 C 0.85294(7) 0.20042(6) 0.61148(14)
H4_2 H 0.8509 0.1729 0.6813
O1_3 O 0.93890(3) 0.22399(3) 0.31310(7)
C6_3 C 0.94831(3) 0.26922(3) 0.21415(7)
H5_3 H 0.9572 0.3061 0.2591
H6_3 H 0.9134 0.2745 0.1588
C7_4 C 1.0000 0.2500 0.1250
O2_2 O 0.73397(6) 0.16533(5) 0.72966(14)
C8_2 C 0.70816(8) 0.13849(8) 0.6435(2)
O3_2 O 0.68657(4) 0.16093(4) 0.53726(12)
C9_2 C 0.70164(9) 0.07200(8) 0.6472(2)
H7_2 H 0.6840 0.0605 0.7319
H8_2 H 0.7396 0.0541 0.6390
H9_2 H 0.6772 0.0595 0.5728
O4_2 O 0.67244(4) 0.27259(5) 0.56416(10)
H10_2 H 0.6606 0.2383 0.5483
H11_2 H 0.6425 0.2950 0.5733
C26_3 C 0.98078(3) 0.19831(3) 0.03585(7)
H28_3 H 0.9755 0.1634 0.0912
O8_2 O 0.76603(6) 0.33467(5) 0.77034(14)
C28_2 C 0.79184(8) 0.36151(8) 0.8565(2)
O11_2 O 0.81343(4) 0.33907(4) 0.96274(12)
C31_2 C 0.79836(9) 0.42800(8) 0.8528(2)
H30_2 H 0.8160 0.4395 0.7681
H33_2 H 0.7604 0.4459 0.8610
H36_2 H 0.8228 0.4405 0.9272
O14_2 O 0.82756(4) 0.22741(5) 0.93584(10)
H39_2 H 0.8394 0.2617 0.9517
H42_2 H 0.8575 0.2050 0.9267
Cu1_5 Cu 0.7500 0.7500 0.2500
N1_3 N 0.68369(4) 0.75509(5) 0.11422(11)
C1_3 C 0.67823(5) 0.71458(5) 0.01858(12)
H1_3 H 0.7030 0.6822 0.0213
C4_3 C 0.60606(5) 0.80758(5) 0.01148(10)
H3_3 H 0.5816 0.8403 0.0117
C5_3 C 0.64706(7) 0.79958(6) 0.11148(14)
H4_3 H 0.6491 0.8271 0.1813
O2_3 O 0.76603(6) 0.83467(5) 0.22966(14)
C8_3 C 0.79184(8) 0.86151(8) 0.1435(2)
O3_3 O 0.81343(4) 0.83907(4) 0.03726(12)
C9_3 C 0.79836(9) 0.92800(8) 0.1472(2)
H7_3 H 0.8160 0.9395 0.2319
H8_3 H 0.7604 0.9459 0.1390
H9_3 H 0.8228 0.9405 0.0728
O4_3 O 0.82756(4) 0.72741(5) 0.06416(10)
H10_3 H 0.8394 0.7617 0.0483
H11_3 H 0.8575 0.7050 0.0733
Cu2_3 Cu 0.2500 0.7500 0.2500
N2_3 N 0.31631(4) 0.74491(5) 0.11422(11)
N5_2 N 0.81631(4) 0.74491(5) 0.38578(11)
N6_2 N 0.18369(4) 0.75509(5) 0.38578(11)
C10_3 C 0.32177(5) 0.78542(5) 0.01858(12)
H12_3 H 0.2970 0.8178 0.0213
C19_3 C 0.39394(5) 0.69242(5) 0.01148(10)
H18_3 H 0.4184 0.6597 0.0117
C22_3 C 0.35294(7) 0.70042(6) 0.11148(14)
H21_3 H 0.3509 0.6729 0.1813
O8_3 O 0.73397(6) 0.66533(5) 0.27034(14)
O9_3 O 0.23397(6) 0.66533(5) 0.22966(14)
O10_3 O 0.26603(6) 0.83467(5) 0.27034(14)
C28_3 C 0.70816(8) 0.63849(8) 0.3565(2)
C29_3 C 0.20816(8) 0.63849(8) 0.1435(2)
C30_3 C 0.29184(8) 0.86151(8) 0.3565(2)
O11_3 O 0.68657(4) 0.66093(4) 0.46274(12)
O12_3 O 0.18657(4) 0.66093(4) 0.03726(12)
O13_3 O 0.31343(4) 0.83907(4) 0.46274(12)
C31_3 C 0.70164(9) 0.57200(8) 0.3528(2)
C32_3 C 0.20164(9) 0.57200(8) 0.1472(2)
C33_3 C 0.29836(9) 0.92800(8) 0.3528(2)
H30_3 H 0.6840 0.5605 0.2681
H31_3 H 0.1840 0.5605 0.2319
H32_3 H 0.3160 0.9395 0.2681
H33_3 H 0.7396 0.5541 0.3610
H34_3 H 0.2396 0.5541 0.1390
H35_3 H 0.2604 0.9459 0.3610
H36_3 H 0.6772 0.5595 0.4272
H37_3 H 0.1772 0.5595 0.0728
H38_3 H 0.3228 0.9405 0.4272
O14_3 O 0.67244(4) 0.77259(5) 0.43584(10)
O15_3 O 0.17244(4) 0.77259(5) 0.06416(10)
O16_3 O 0.32756(4) 0.72741(5) 0.43584(10)
H39_3 H 0.6606 0.7383 0.4517
H40_3 H 0.1606 0.7383 0.0483
H41_3 H 0.3394 0.7617 0.4517
H42_3 H 0.6425 0.7950 0.4267
H43_3 H 0.1425 0.7950 0.0733
H44_3 H 0.3575 0.7050 0.4267
C6_4 C 0.01922(3) 0.80169(3) 0.96415(7)
H6_4 H 0.0245 0.8366 0.9088
C7_5 C -0.0000 0.7500 0.8750
C12_3 C 0.17823(5) 0.71458(5) 0.48142(12)
H14_3 H 0.2030 0.6822 0.4787
C15_3 C 0.13786(4) 0.71814(4) 0.58414(9)
H17_3 H 0.1349 0.6885 0.6491
C18_3 C 0.10197(4) 0.76589(4) 0.58949(8)
C21_3 C 0.10606(5) 0.80758(5) 0.48852(10)
H20_3 H 0.0816 0.8403 0.4883
C24_3 C 0.14706(7) 0.79958(6) 0.38852(14)
H23_3 H 0.1491 0.8271 0.3187
O7_3 O 0.06110(3) 0.77601(3) 0.68690(7)
C27_4 C 0.05169(3) 0.73078(3) 0.78585(7)
H26_3 H 0.0428 0.6939 0.7409
H29_4 H 0.0866 0.7255 0.8412
C7_6 C 1.0000 0.7500 0.8750
C11_3 C 0.82177(5) 0.78542(5) 0.48142(12)
H13_3 H 0.7970 0.8178 0.4787
C14_3 C 0.86214(4) 0.78186(4) 0.58414(9)
H16_3 H 0.8651 0.8115 0.6491
C17_3 C 0.89803(4) 0.73411(4) 0.58949(8)
C20_3 C 0.89394(5) 0.69242(5) 0.48852(10)
H19_3 H 0.9184 0.6597 0.4883
C23_3 C 0.85294(7) 0.70042(6) 0.38852(14)
H22_3 H 0.8509 0.6729 0.3187
O6_3 O 0.93890(3) 0.72399(3) 0.68690(7)
C25_4 C 0.98078(3) 0.69831(3) 0.96415(7)
C26_4 C 0.94831(3) 0.76922(3) 0.78585(7)
H25_3 H 0.9572 0.8061 0.7409
H27_4 H 0.9755 0.6634 0.9088
H28_4 H 0.9134 0.7745 0.8412
Cu1_6 Cu -0.0000 0.0000 0.5000
O4_4 O 0.02259(5) 0.07756(4) 0.31416(10)
H11_4 H 0.0450 0.1075 0.3233
N5_3 N 0.00509(5) 0.06631(4) 0.63578(11)
Cu1_7 Cu -0.0000 1.0000 0.5000
C1_4 C 0.03542(5) 0.92823(5) 0.26858(12)
H1_4 H 0.0678 0.9530 0.2713
C2_4 C 0.03186(4) 0.88786(4) 0.16586(9)
H2_4 H 0.0615 0.8849 0.1009
H5_4 H 0.0561 0.7928 0.0091
Cu2_4 Cu 0.0000 0.5000 0.5000
N2_4 N 0.00509(5) 0.56631(4) 0.36422(11)
C16_4 C 0.01589(4) 0.64803(4) 0.16051(8)
C19_4 C 0.05758(5) 0.64394(5) 0.26148(10)
H18_4 H 0.0903 0.6684 0.2617
C22_4 C 0.04958(6) 0.60294(7) 0.36148(14)
H21_4 H 0.0771 0.6009 0.4313
O5_4 O 0.02601(3) 0.68890(3) 0.06310(7)
O8_4 O 0.08467(5) 0.98397(6) 0.52034(14)
O9_4 O 0.08467(5) 0.48397(6) 0.47966(14)
C28_4 C 0.11151(8) 0.95816(8) 0.6065(2)
C29_4 C 0.11151(8) 0.45816(8) 0.3935(2)
O11_4 O 0.08907(4) 0.93657(4) 0.71274(12)
O12_4 O 0.08907(4) 0.43657(4) 0.28726(12)
C31_4 C 0.17800(8) 0.95164(9) 0.6028(2)
C32_4 C 0.17800(8) 0.45164(9) 0.3972(2)
H30_4 H 0.1895 0.9340 0.5181
H31_4 H 0.1895 0.4340 0.4819
H33_4 H 0.1959 0.9896 0.6110
H34_4 H 0.1959 0.4896 0.3890
H36_4 H 0.1905 0.9272 0.6772
H37_4 H 0.1905 0.4272 0.3228
O16_4 O 0.02259(5) 0.57756(4) 0.68584(10)
H39_4 H 0.0117 0.9106 0.7017
H40_4 H 0.0117 0.4106 0.2983
H44_4 H 0.0450 0.6075 0.6767
C12_4 C 0.03542(5) 0.42823(5) 0.73142(12)
H14_4 H 0.0678 0.4530 0.7287
C15_4 C 0.03186(4) 0.38786(4) 0.83414(9)
H17_4 H 0.0615 0.3849 0.8991
C17_4 C 0.01589(4) 0.14803(4) 0.83949(8)
C20_4 C 0.05758(5) 0.14394(5) 0.73852(10)
H19_4 H 0.0903 0.1684 0.7383
C23_4 C 0.04958(6) 0.10294(7) 0.63852(14)
H22_4 H 0.0771 0.1009 0.5687
O6_4 O 0.02601(3) 0.18890(3) 0.93690(7)
H26_4 H 0.0561 0.2928 0.9909
Cu1_8 Cu 1.0000 0.0000 0.5000
O2_4 O 0.91533(5) 0.01603(6) 0.47966(14)
C8_4 C 0.88849(8) 0.04184(8) 0.3935(2)
O3_4 O 0.91093(4) 0.06343(4) 0.28726(12)
C9_4 C 0.82200(8) 0.04836(9) 0.3972(2)
H7_4 H 0.8105 0.0660 0.4819
H8_4 H 0.8041 0.0104 0.3890
H9_4 H 0.8095 0.0728 0.3228
H10_4 H 0.9883 0.0894 0.2983
Cu1_9 Cu 1.0000 1.0000 0.5000
N1_4 N 0.99491(5) 0.93369(4) 0.36422(11)
C3_4 C 0.98411(4) 0.85197(4) 0.16051(8)
C4_4 C 0.94242(5) 0.85606(5) 0.26148(10)
H3_4 H 0.9097 0.8316 0.2617
C5_4 C 0.95042(6) 0.89706(7) 0.36148(14)
H4_4 H 0.9229 0.8991 0.4313
O1_4 O 0.97399(3) 0.81110(3) 0.06310(7)
Cu2_5 Cu 1.0000 0.5000 0.5000
N6_3 N 0.99491(5) 0.43369(4) 0.63578(11)
C10_4 C 0.96458(5) 0.57177(5) 0.26858(12)
H12_4 H 0.9322 0.5470 0.2713
C13_4 C 0.96814(4) 0.61214(4) 0.16586(9)
H15_4 H 0.9385 0.6151 0.1009
H24_4 H 0.9439 0.7072 0.0091
O10_4 O 0.91533(5) 0.51603(6) 0.52034(14)
C30_4 C 0.88849(8) 0.54184(8) 0.6065(2)
O13_4 O 0.91093(4) 0.56343(4) 0.71274(12)
C33_4 C 0.82200(8) 0.54836(9) 0.6028(2)
H32_4 H 0.8105 0.5660 0.5181
H35_4 H 0.8041 0.5104 0.6110
H38_4 H 0.8095 0.5728 0.6772
O14_4 O 0.97741(5) 0.92244(4) 0.68584(10)
O15_4 O 0.97741(5) 0.42244(4) 0.31416(10)
H41_4 H 0.9883 0.5894 0.7017
H42_4 H 0.9550 0.8925 0.6767
H43_4 H 0.9550 0.3925 0.3233
C11_4 C 0.96458(5) 0.07177(5) 0.73142(12)
H13_4 H 0.9322 0.0470 0.7287
C14_4 C 0.96814(4) 0.11214(4) 0.83414(9)
H16_4 H 0.9385 0.1151 0.8991
C18_4 C 0.98411(4) 0.35197(4) 0.83949(8)
C21_4 C 0.94242(5) 0.35606(5) 0.73852(10)
H20_4 H 0.9097 0.3316 0.7383
C24_4 C 0.95042(6) 0.39706(7) 0.63852(14)
H23_4 H 0.9229 0.3991 0.5687
O7_4 O 0.97399(3) 0.31110(3) 0.93690(7)
H25_4 H 0.9439 0.2072 0.9909
loop_
_geom_bond_atom_site_label_1
_geom_bond_atom_site_label_2
_geom_bond_site_symmetry_1
_geom_bond_site_symmetry_2
N6 Cu2 1_555 1_555
O8 Cu1 1_555 1_555
O10 Cu2 1_555 1_555
C28 O8 1_555 1_555
C30 O10 1_555 1_555
O11 C28 1_555 1_555
O13 C30 1_555 1_555
C31 C28 1_555 1_555
C33 C30 1_555 1_555
H30 C31 1_555 1_555
H32 C33 1_555 1_555
H33 C31 1_555 1_555
H35 C33 1_555 1_555
H36 C31 1_555 1_555
H38 C33 1_555 1_555
O14 Cu1 1_555 1_555
O16 Cu2 1_555 1_555
H39 O14 1_555 1_555
H41 O16 1_555 1_555
H42 O14 1_555 1_555
H44 O16 1_555 1_555
N5 Cu1_2 1_555 1_555
H2 C2 1_555 1_555
C3 C2 1_555 1_555
O1 C3 1_555 1_555
C6 O1 1_555 1_555
H5 C6 1_555 1_555
H6 C6 1_555 1_555
C7 C6 1_555 1_555
N5 C11 1_555 1_555
N6 C12 1_555 1_555
C11 H13 1_555 1_555
C12 H14 1_555 1_555
C14 C11 1_555 1_555
C15 C12 1_555 1_555
H15 C13 1_555 1_555
H16 C14 1_555 1_555
H17 C15 1_555 1_555
C16 C13 1_555 1_555
C17 C14 1_555 1_555
C18 C15 1_555 1_555
C20 C17 1_555 1_555
C21 C18 1_555 1_555
H19 C20 1_555 1_555
H20 C21 1_555 1_555
C23 N5 1_555 1_555
C24 N6 1_555 1_555
H22 C23 1_555 1_555
H23 C24 1_555 1_555
O5 C16 1_555 1_555
O6 C17 1_555 1_555
O7 C18 1_555 1_555
C25 C7 1_555 1_555
C26 C7 1_555 1_555
C27 C7 1_555 1_555
H24 C25 1_555 1_555
H25 C26 1_555 1_555
H26 C27 1_555 1_555
H27 C25 1_555 1_555
H28 C26 1_555 1_555
H29 C27 1_555 1_555
C20 C23 1_555 1_555
C21 C24 1_555 1_555
O5 C25 1_555 1_555
O6 C26 1_555 1_555
O7 C27 1_555 1_555
Cu1_3 N1 1_555 1_555
N1 C1 1_555 1_555
C1 H1 1_555 1_555
C2_2 C1 1_555 1_555
H2_2 C2_2 1_555 1_555
C3_2 C2_2 1_555 1_555
C4 C3_2 1_555 1_555
H3 C4 1_555 1_555
C5 N1 1_555 1_555
H4 C5 1_555 1_555
O1_2 C3_2 1_555 1_555
C6_2 O1_2 1_555 1_555
H5_2 C6_2 1_555 1_555
H6_2 C6_2 1_555 1_555
C7_2 C6_2 1_555 1_555
Cu2_2 N2 1_555 1_555
N2 C10 1_555 1_555
C10 H12 1_555 1_555
C13_2 C10 1_555 1_555
H15_2 C13_2 1_555 1_555
H16_2 C14_2 1_555 1_555
H17_2 C15_2 1_555 1_555
C16_2 C13_2 1_555 1_555
C17_2 C14_2 1_555 1_555
C18_2 C15_2 1_555 1_555
C19 C16_2 1_555 1_555
H18 C19 1_555 1_555
C22 N2 1_555 1_555
H21 C22 1_555 1_555
O5_2 C16_2 1_555 1_555
O6_2 C17_2 1_555 1_555
O7_2 C18_2 1_555 1_555
C25_2 C7_2 1_555 1_555
C26_2 C7_2 1_555 1_555
C27_2 C7_2 1_555 1_555
H24_2 C25_2 1_555 1_555
H25_2 C26_2 1_555 1_555
H26_2 C27_2 1_555 1_555
H27_2 C25_2 1_555 1_555
H28_2 C26_2 1_555 1_555
H29_2 C27_2 1_555 1_555
O9 Cu2_2 1_555 1_555
C29 O9 1_555 1_555
O12 C29 1_555 1_555
C32 C29 1_555 1_555
H31 C32 1_555 1_555
H34 C32 1_555 1_555
H37 C32 1_555 1_555
O15 Cu2_2 1_555 1_555
H40 O15 1_555 1_555
H43 O15 1_555 1_555
C4 C5 1_555 1_555
C19 C22 1_555 1_555
O5_2 C25_2 1_555 1_555
O6_2 C26_2 1_555 1_555
O7_2 C27_2 1_555 1_555
O2 Cu1_4 1_555 1_555
C8 O2 1_555 1_555
O3 C8 1_555 1_555
C9 C8 1_555 1_555
H7 C9 1_555 1_555
H8 C9 1_555 1_555
H9 C9 1_555 1_555
O4 Cu1_4 1_555 1_555
H10 O4 1_555 1_555
H11 O4 1_555 1_555
Cu3 N3 1_555 1_555
Cu4 N4 1_555 1_555
N3 C11_2 1_555 1_555
N4 C12_2 1_555 1_555
C11_2 H13_2 1_555 1_555
C12_2 H14_2 1_555 1_555
H19_2 C20_2 1_555 1_555
H20_2 C21_2 1_555 1_555
C23_2 N3 1_555 1_555
C24_2 N4 1_555 1_555
H22_2 C23_2 1_555 1_555
H23_2 C24_2 1_555 1_555
C20_2 C23_2 1_555 1_555
C21_2 C24_2 1_555 1_555
Cu4 N2_2 1_555 1_555
N2_2 C10_2 1_555 1_555
C10_2 H12_2 1_555 1_555
C13_3 C10_2 1_555 1_555
H15_3 C13_3 1_555 1_555
C16_3 C13_3 1_555 1_555
C19_2 C16_3 1_555 1_555
H18_2 C19_2 1_555 1_555
C22_2 N2_2 1_555 1_555
H21_2 C22_2 1_555 1_555
O5_3 C16_3 1_555 1_555
C25_3 C7_3 1_555 1_555
C27_3 C7_3 1_555 1_555
H24_3 C25_3 1_555 1_555
H27_3 C25_3 1_555 1_555
H29_3 C27_3 1_555 1_555
O9_2 Cu4 1_555 1_555
O10_2 Cu4 1_555 1_555
C29_2 O9_2 1_555 1_555
C30_2 O10_2 1_555 1_555
O12_2 C29_2 1_555 1_555
O13_2 C30_2 1_555 1_555
C32_2 C29_2 1_555 1_555
C33_2 C30_2 1_555 1_555
H31_2 C32_2 1_555 1_555
H32_2 C33_2 1_555 1_555
H34_2 C32_2 1_555 1_555
H35_2 C33_2 1_555 1_555
H37_2 C32_2 1_555 1_555
H38_2 C33_2 1_555 1_555
O15_2 Cu4 1_555 1_555
O16_2 Cu4 1_555 1_555
H40_2 O15_2 1_555 1_555
H41_2 O16_2 1_555 1_555
H43_2 O15_2 1_555 1_555
H44_2 O16_2 1_555 1_555
C19_2 C22_2 1_555 1_555
O5_3 C25_3 1_555 1_555
Cu3 N1_2 1_555 1_555
N1_2 C1_2 1_555 1_555
C1_2 H1_2 1_555 1_555
C2_3 C1_2 1_555 1_555
H2_3 C2_3 1_555 1_555
C3_3 C2_3 1_555 1_555
C4_2 C3_3 1_555 1_555
H3_2 C4_2 1_555 1_555
C5_2 N1_2 1_555 1_555
H4_2 C5_2 1_555 1_555
O1_3 C3_3 1_555 1_555
C6_3 O1_3 1_555 1_555
H5_3 C6_3 1_555 1_555
H6_3 C6_3 1_555 1_555
C7_4 C6_3 1_555 1_555
O2_2 Cu3 1_555 1_555
C8_2 O2_2 1_555 1_555
O3_2 C8_2 1_555 1_555
C9_2 C8_2 1_555 1_555
H7_2 C9_2 1_555 1_555
H8_2 C9_2 1_555 1_555
H9_2 C9_2 1_555 1_555
O4_2 Cu3 1_555 1_555
H10_2 O4_2 1_555 1_555
H11_2 O4_2 1_555 1_555
C26_3 C7_4 1_555 1_555
H28_3 C26_3 1_555 1_555
O8_2 Cu3 1_555 1_555
C28_2 O8_2 1_555 1_555
O11_2 C28_2 1_555 1_555
C31_2 C28_2 1_555 1_555
H30_2 C31_2 1_555 1_555
H33_2 C31_2 1_555 1_555
H36_2 C31_2 1_555 1_555
O14_2 Cu3 1_555 1_555
H39_2 O14_2 1_555 1_555
H42_2 O14_2 1_555 1_555
C4_2 C5_2 1_555 1_555
Cu1_5 N1_3 1_555 1_555
N1_3 C1_3 1_555 1_555
C1_3 H1_3 1_555 1_555
H3_3 C4_3 1_555 1_555
C5_3 N1_3 1_555 1_555
H4_3 C5_3 1_555 1_555
O2_3 Cu1_5 1_555 1_555
C8_3 O2_3 1_555 1_555
O3_3 C8_3 1_555 1_555
C9_3 C8_3 1_555 1_555
H7_3 C9_3 1_555 1_555
H8_3 C9_3 1_555 1_555
H9_3 C9_3 1_555 1_555
O4_3 Cu1_5 1_555 1_555
H10_3 O4_3 1_555 1_555
H11_3 O4_3 1_555 1_555
Cu2_3 N2_3 1_555 1_555
N2_3 C10_3 1_555 1_555
N5_2 Cu1_5 1_555 1_555
N6_2 Cu2_3 1_555 1_555
C10_3 H12_3 1_555 1_555
H18_3 C19_3 1_555 1_555
C22_3 N2_3 1_555 1_555
H21_3 C22_3 1_555 1_555
O8_3 Cu1_5 1_555 1_555
O9_3 Cu2_3 1_555 1_555
O10_3 Cu2_3 1_555 1_555
C28_3 O8_3 1_555 1_555
C29_3 O9_3 1_555 1_555
C30_3 O10_3 1_555 1_555
O11_3 C28_3 1_555 1_555
O12_3 C29_3 1_555 1_555
O13_3 C30_3 1_555 1_555
C31_3 C28_3 1_555 1_555
C32_3 C29_3 1_555 1_555
C33_3 C30_3 1_555 1_555
H30_3 C31_3 1_555 1_555
H31_3 C32_3 1_555 1_555
H32_3 C33_3 1_555 1_555
H33_3 C31_3 1_555 1_555
H34_3 C32_3 1_555 1_555
H35_3 C33_3 1_555 1_555
H36_3 C31_3 1_555 1_555
H37_3 C32_3 1_555 1_555
H38_3 C33_3 1_555 1_555
O14_3 Cu1_5 1_555 1_555
O15_3 Cu2_3 1_555 1_555
O16_3 Cu2_3 1_555 1_555
H39_3 O14_3 1_555 1_555
H40_3 O15_3 1_555 1_555
H41_3 O16_3 1_555 1_555
H42_3 O14_3 1_555 1_555
H43_3 O15_3 1_555 1_555
H44_3 O16_3 1_555 1_555
C4_3 C5_3 1_555 1_555
C19_3 C22_3 1_555 1_555
H6_4 C6_4 1_555 1_555
C7_5 C6_4 1_555 1_555
N6_2 C12_3 1_555 1_555
C12_3 H14_3 1_555 1_555
C15_3 C12_3 1_555 1_555
H17_3 C15_3 1_555 1_555
C18_3 C15_3 1_555 1_555
C21_3 C18_3 1_555 1_555
H20_3 C21_3 1_555 1_555
C24_3 N6_2 1_555 1_555
H23_3 C24_3 1_555 1_555
O7_3 C18_3 1_555 1_555
C27_4 C7_5 1_555 1_555
H26_3 C27_4 1_555 1_555
H29_4 C27_4 1_555 1_555
C21_3 C24_3 1_555 1_555
O7_3 C27_4 1_555 1_555
N5_2 C11_3 1_555 1_555
C11_3 H13_3 1_555 1_555
C14_3 C11_3 1_555 1_555
H16_3 C14_3 1_555 1_555
C17_3 C14_3 1_555 1_555
C20_3 C17_3 1_555 1_555
H19_3 C20_3 1_555 1_555
C23_3 N5_2 1_555 1_555
H22_3 C23_3 1_555 1_555
O6_3 C17_3 1_555 1_555
C25_4 C7_6 1_555 1_555
C26_4 C7_6 1_555 1_555
H25_3 C26_4 1_555 1_555
H27_4 C25_4 1_555 1_555
H28_4 C26_4 1_555 1_555
C20_3 C23_3 1_555 1_555
O6_3 C26_4 1_555 1_555
O4_4 Cu1_6 1_555 1_555
H11_4 O4_4 1_555 1_555
N5_3 Cu1_6 1_555 1_555
C1_4 H1_4 1_555 1_555
C2_4 C1_4 1_555 1_555
H2_4 C2_4 1_555 1_555
Cu2_4 N2_4 1_555 1_555
C19_4 C16_4 1_555 1_555
H18_4 C19_4 1_555 1_555
C22_4 N2_4 1_555 1_555
H21_4 C22_4 1_555 1_555
O5_4 C16_4 1_555 1_555
O8_4 Cu1_7 1_555 1_555
O9_4 Cu2_4 1_555 1_555
C28_4 O8_4 1_555 1_555
C29_4 O9_4 1_555 1_555
O11_4 C28_4 1_555 1_555
O12_4 C29_4 1_555 1_555
C31_4 C28_4 1_555 1_555
C32_4 C29_4 1_555 1_555
H30_4 C31_4 1_555 1_555
H31_4 C32_4 1_555 1_555
H33_4 C31_4 1_555 1_555
H34_4 C32_4 1_555 1_555
H36_4 C31_4 1_555 1_555
H37_4 C32_4 1_555 1_555
O16_4 Cu2_4 1_555 1_555
H44_4 O16_4 1_555 1_555
C19_4 C22_4 1_555 1_555
C12_4 H14_4 1_555 1_555
C15_4 C12_4 1_555 1_555
H17_4 C15_4 1_555 1_555
C20_4 C17_4 1_555 1_555
H19_4 C20_4 1_555 1_555
C23_4 N5_3 1_555 1_555
H22_4 C23_4 1_555 1_555
O6_4 C17_4 1_555 1_555
C20_4 C23_4 1_555 1_555
O2_4 Cu1_8 1_555 1_555
C8_4 O2_4 1_555 1_555
O3_4 C8_4 1_555 1_555
C9_4 C8_4 1_555 1_555
H7_4 C9_4 1_555 1_555
H8_4 C9_4 1_555 1_555
H9_4 C9_4 1_555 1_555
Cu1_9 N1_4 1_555 1_555
C4_4 C3_4 1_555 1_555
H3_4 C4_4 1_555 1_555
C5_4 N1_4 1_555 1_555
H4_4 C5_4 1_555 1_555
O1_4 C3_4 1_555 1_555
N6_3 Cu2_5 1_555 1_555
C10_4 H12_4 1_555 1_555
C13_4 C10_4 1_555 1_555
H15_4 C13_4 1_555 1_555
O10_4 Cu2_5 1_555 1_555
C30_4 O10_4 1_555 1_555
O13_4 C30_4 1_555 1_555
C33_4 C30_4 1_555 1_555
H32_4 C33_4 1_555 1_555
H35_4 C33_4 1_555 1_555
H38_4 C33_4 1_555 1_555
O14_4 Cu1_9 1_555 1_555
O15_4 Cu2_5 1_555 1_555
H42_4 O14_4 1_555 1_555
H43_4 O15_4 1_555 1_555
C4_4 C5_4 1_555 1_555
C11_4 H13_4 1_555 1_555
C14_4 C11_4 1_555 1_555
H16_4 C14_4 1_555 1_555
C21_4 C18_4 1_555 1_555
H20_4 C21_4 1_555 1_555
C24_4 N6_3 1_555 1_555
H23_4 C24_4 1_555 1_555
O7_4 C18_4 1_555 1_555
C21_4 C24_4 1_555 1_555

#END
