
###############################################################################
#
# This file contains modified crystal structure data generated from the
# MOF subset of the Cambridge Structural Database (CSD) v543 
# hosted by the Cambridge Crystallographic Data Centre (CCDC).
#
# This work is licensed under the Creative Commons
# Attribution-NonCommercial-ShareAlike 4.0 International License.
# To view a copy of this license, visit
# http://creativecommons.org/licenses/by-nc-sa/4.0/
# or send a letter to
# Creative Commons, PO Box 1866, Mountain View, CA 94042, USA.
#
# CIF created using the CSD Python API on 29 September 2022
# The structure has been converted into the P1 space group
# The structure has a 3D framework
# The original CSD entry MOXPIZ is in the orthorhombic crystal system
# The framework has been calculated to contain at least 10.0% void space
# The void calculation uses a probe of radius 1.32A, grid spacing 0.4
# The framework is charged, counterions have been retained in the structure
# H atom positions have been added when not included in the experimental data
# Generated hydrogen atom positions removed from atoms on special positions
#
###############################################################################

data_MOXPIZ
_chemical_formula_moiety         '(C196 H224 Cu6 N32 O76 4-)n'
_symmetry_cell_setting           triclinic
_symmetry_space_group_name_H-M   'P 1'
_symmetry_Int_Tables_number      1
_space_group_name_Hall           'P 1'
loop_
_symmetry_equiv_pos_site_id
_symmetry_equiv_pos_as_xyz
1 x,y,z
_cell_length_a                   39.952(5)
_cell_length_b                   15.031(2)
_cell_length_c                   16.253(2)
_cell_angle_alpha                90
_cell_angle_beta                 90
_cell_angle_gamma                90
_cell_volume                     9760.23
loop_
_atom_site_label
_atom_site_type_symbol
_atom_site_fract_x
_atom_site_fract_y
_atom_site_fract_z
Cu6 Cu 0.2500 0.7500 -0.0000
C26 C 0.0057(4) 0.7500 0.5000
N4 N 0.2140(3) 0.7474(11) 0.9131(9)
N5 N 0.2140(3) 0.7526(11) 0.0869(9)
C28 C 0.0754(3) 0.7797(10) 0.6424(10)
C29 C 0.0754(3) 0.7203(10) 0.3576(10)
Cu6_2 Cu 0.2500 0.7500 1.0000
O10 O 0.0490(2) 0.7946(6) 0.5921(7)
O11 O 0.0490(2) 0.7054(6) 0.4079(7)
C31 C 0.0980(4) 0.8475(11) 0.6495(12)
C32 C 0.0980(4) 0.6525(11) 0.3505(12)
H22 H 0.0951 0.9005 0.6196
H23 H 0.0951 0.5995 0.3804
C34 C 0.1254(4) 0.8373(13) 0.7013(13)
C35 C 0.1254(4) 0.6627(13) 0.2987(13)
H25 H 0.1405 0.8849 0.7062
H26 H 0.1405 0.6151 0.2938
C37 C 0.1315(4) 0.7624(11) 0.7451(9)
C38 C 0.1315(4) 0.7376(11) 0.2549(9)
C40 C 0.1081(4) 0.6963(11) 0.7365(9)
C41 C 0.1081(4) 0.8037(11) 0.2635(9)
H28 H 0.1113 0.6433 0.7663
H29 H 0.1113 0.8567 0.2337
C43 C 0.0802(3) 0.7026(11) 0.6873(10)
C44 C 0.0802(3) 0.7974(11) 0.3127(10)
H31 H 0.0648 0.6555 0.6841
H32 H 0.0648 0.8445 0.3159
C46 C 0.1601(4) 0.7566(11) 0.8002(12)
C47 C 0.1601(4) 0.7434(11) 0.1998(12)
C49 C 0.1871(4) 0.8143(12) 0.7970(11)
C50 C 0.1871(4) 0.6857(12) 0.2030(11)
H34 H 0.1882 0.8584 0.7561
H35 H 0.1882 0.6416 0.2439
C52 C 0.0271(3) 0.7230(9) 0.5729(9)
C53 C 0.0271(3) 0.7770(9) 0.4271(9)
H37 H 0.0128 0.7095 0.6204
H38 H 0.0128 0.7905 0.3796
H40 H 0.0401 0.6697 0.5594
H41 H 0.0401 0.8303 0.4406
C55 C 0.2125(4) 0.8064(14) 0.8547(14)
C56 C 0.2125(4) 0.6936(14) 0.1453(14)
H43 H 0.2303 0.8474 0.8513
H44 H 0.2303 0.6526 0.1487
C58 C 0.1888(4) 0.6907(13) 0.9156(12)
C59 C 0.1888(4) 0.8093(13) 0.0844(12)
H46 H 0.1891 0.6460 0.9560
H47 H 0.1891 0.8540 0.0440
C61 C 0.1616(4) 0.6939(13) 0.8608(13)
C62 C 0.1616(4) 0.8061(13) 0.1392(13)
H49 H 0.1441 0.6523 0.8660
H50 H 0.1441 0.8477 0.1340
Cu4 Cu 0.7500 0.2500 0.5000
N11 N 0.7864(2) 0.1551(8) 0.5054(8)
H62 H 0.8969 0.0325 0.5937
C86 C 0.8427(3) 0.0453(9) 0.4983(10)
C89 C 0.8401(3) 0.1098(10) 0.5548(9)
H71 H 0.8576 0.1185 0.5926
C92 C 0.8119(3) 0.1645(10) 0.5587(10)
H74 H 0.8107 0.2088 0.5994
C95 C 0.7887(3) 0.0906(10) 0.4488(11)
H77 H 0.7710 0.0830 0.4115
C98 C 0.8159(3) 0.0353(10) 0.4430(10)
N2 N 0.7136(2) 0.1551(8) 0.4946(8)
O4 O 0.7500 0.2500 0.3518(9)
H14 H 0.6031 0.0325 0.4063
C21 C 0.6573(3) 0.0453(9) 0.5017(10)
C22 C 0.6599(3) 0.1098(10) 0.4452(9)
H17 H 0.6424 0.1185 0.4074
C23 C 0.6881(3) 0.1645(10) 0.4413(10)
H18 H 0.6893 0.2088 0.4006
C24 C 0.7113(3) 0.0906(10) 0.5512(11)
H19 H 0.7290 0.0830 0.5885
C25 C 0.6841(3) 0.0353(10) 0.5570(10)
O6 O 0.9603(2) 0.6589(7) 0.5427(6)
O7 O 0.9603(2) 0.8411(7) 0.4573(6)
N10 N 0.7864(2) 0.3449(8) 0.4946(8)
N13 N 0.7136(2) 0.3449(8) 0.5054(8)
O12 O 0.7500 0.2500 0.6482(9)
C64 C 0.9835(3) 0.6718(9) 0.4767(10)
C65 C 0.9835(3) 0.8282(9) 0.5233(10)
H52 H 0.9715 0.6845 0.4254
H53 H 0.9715 0.8155 0.5746
H55 H 0.9970 0.6181 0.4687
H56 H 0.9970 0.8819 0.5313
C67 C 0.9324(3) 0.6099(10) 0.5266(10)
C68 C 0.9324(3) 0.8901(10) 0.4734(10)
C70 C 0.9284(3) 0.5538(11) 0.4620(11)
C71 C 0.9284(3) 0.9462(11) 0.5380(11)
H58 H 0.9457 0.5477 0.4232
H59 H 0.9457 0.9523 0.5768
C73 C 0.8992(4) 0.5052(10) 0.4521(10)
C74 C 0.8992(4) 0.9948(10) 0.5479(10)
H61 H 0.8969 0.4675 0.4063
C76 C 0.8730(3) 0.5116(9) 0.5097(10)
C77 C 0.8730(3) 0.9884(9) 0.4903(10)
C79 C 0.8781(3) 0.5679(10) 0.5757(10)
C80 C 0.8781(3) 0.9321(10) 0.4243(10)
H64 H 0.8614 0.5733 0.6160
H65 H 0.8614 0.9267 0.3840
C82 C 0.9071(4) 0.6162(10) 0.5839(10)
C83 C 0.9071(4) 0.8838(10) 0.4161(10)
H67 H 0.9097 0.6542 0.6294
H68 H 0.9097 0.8458 0.3706
C85 C 0.8427(3) 0.4547(9) 0.5017(10)
C88 C 0.8401(3) 0.3902(10) 0.4452(9)
H70 H 0.8576 0.3815 0.4074
C91 C 0.8119(3) 0.3355(10) 0.4413(10)
H73 H 0.8107 0.2912 0.4006
C94 C 0.7887(3) 0.4094(10) 0.5512(11)
H76 H 0.7710 0.4170 0.5885
C97 C 0.8159(3) 0.4647(10) 0.5570(10)
H79 H 0.8166 0.5091 0.5977
H80 H 0.8166 0.9909 0.4023
O2 O 0.2500 0.9162(14) -0.0000
N8 N 0.2860(3) 0.7474(11) 0.0869(9)
O8 O 0.2500 0.5838(14) -0.0000
C1 C 0.4943(4) 0.7500 0.5000
N1 N 0.2860(3) 0.7526(11) 0.9131(9)
O1 O 0.5397(2) 0.8411(7) 0.5427(6)
C2 C 0.4246(3) 0.7203(10) 0.6424(10)
O2_2 O 0.2500 0.9162(14) 1.0000
O3 O 0.4510(2) 0.7054(6) 0.5921(7)
C3 C 0.4020(4) 0.6525(11) 0.6495(12)
H1 H 0.4049 0.5995 0.6196
C4 C 0.3746(4) 0.6627(13) 0.7013(13)
H2 H 0.3595 0.6151 0.7062
C5 C 0.3685(4) 0.7376(11) 0.7451(9)
C6 C 0.3919(4) 0.8037(11) 0.7365(9)
H3 H 0.3887 0.8567 0.7663
C7 C 0.4198(3) 0.7974(11) 0.6873(10)
H4 H 0.4352 0.8445 0.6841
C8 C 0.3399(4) 0.7434(11) 0.8002(12)
C9 C 0.3129(4) 0.6857(12) 0.7970(11)
H5 H 0.3118 0.6416 0.7561
C10 C 0.4729(3) 0.7770(9) 0.5729(9)
H6 H 0.4872 0.7905 0.6204
H7 H 0.4599 0.8303 0.5594
C11 C 0.2875(4) 0.6936(14) 0.8547(14)
H8 H 0.2697 0.6526 0.8513
C12 C 0.3112(4) 0.8093(13) 0.9156(12)
H9 H 0.3109 0.8540 0.9560
C13 C 0.3384(4) 0.8061(13) 0.8608(13)
H10 H 0.3559 0.8477 0.8660
C14 C 0.5165(3) 0.8282(9) 0.4767(10)
H11 H 0.5285 0.8155 0.4254
H12 H 0.5030 0.8819 0.4687
C15 C 0.5676(3) 0.8901(10) 0.5266(10)
C16 C 0.5716(3) 0.9462(11) 0.4620(11)
H13 H 0.5543 0.9523 0.4232
C17 C 0.6008(4) 0.9948(10) 0.4521(10)
C18 C 0.6270(3) 0.9884(9) 0.5097(10)
C19 C 0.6219(3) 0.9321(10) 0.5757(10)
H15 H 0.6386 0.9267 0.6160
C20 C 0.5929(4) 0.8838(10) 0.5839(10)
H16 H 0.5903 0.8458 0.6294
H20 H 0.6834 0.9909 0.5977
O5 O 0.5397(2) 0.6589(7) 0.4573(6)
C27 C 0.4246(3) 0.7797(10) 0.3576(10)
O8_2 O 0.2500 0.5838(14) 1.0000
O9 O 0.4510(2) 0.7946(6) 0.4079(7)
C30 C 0.4020(4) 0.8475(11) 0.3505(12)
H21 H 0.4049 0.9005 0.3804
C33 C 0.3746(4) 0.8373(13) 0.2987(13)
H24 H 0.3595 0.8849 0.2938
C36 C 0.3685(4) 0.7624(11) 0.2549(9)
C39 C 0.3919(4) 0.6963(11) 0.2635(9)
H27 H 0.3887 0.6433 0.2337
C42 C 0.4198(3) 0.7026(11) 0.3127(10)
H30 H 0.4352 0.6555 0.3159
C45 C 0.3399(4) 0.7566(11) 0.1998(12)
C48 C 0.3129(4) 0.8143(12) 0.2030(11)
H33 H 0.3118 0.8584 0.2439
C51 C 0.4729(3) 0.7230(9) 0.4271(9)
H36 H 0.4872 0.7095 0.3796
H39 H 0.4599 0.6697 0.4406
C54 C 0.2875(4) 0.8064(14) 0.1453(14)
H42 H 0.2697 0.8474 0.1487
C57 C 0.3112(4) 0.6907(13) 0.0844(12)
H45 H 0.3109 0.6460 0.0440
C60 C 0.3384(4) 0.6939(13) 0.1392(13)
H48 H 0.3559 0.6523 0.1340
C63 C 0.5165(3) 0.6718(9) 0.5233(10)
H51 H 0.5285 0.6845 0.5746
H54 H 0.5030 0.6181 0.5313
C66 C 0.5676(3) 0.6099(10) 0.4734(10)
C69 C 0.5716(3) 0.5538(11) 0.5380(11)
H57 H 0.5543 0.5477 0.5768
C72 C 0.6008(4) 0.5052(10) 0.5479(10)
H60 H 0.6031 0.4675 0.5937
C75 C 0.6270(3) 0.5116(9) 0.4903(10)
C78 C 0.6219(3) 0.5679(10) 0.4243(10)
H63 H 0.6386 0.5733 0.3840
C81 C 0.5929(4) 0.6162(10) 0.4161(10)
H66 H 0.5903 0.6542 0.3706
C84 C 0.6573(3) 0.4547(9) 0.4983(10)
C87 C 0.6599(3) 0.3902(10) 0.5548(9)
H69 H 0.6424 0.3815 0.5926
C90 C 0.6881(3) 0.3355(10) 0.5587(10)
H72 H 0.6893 0.2912 0.5994
C93 C 0.7113(3) 0.4094(10) 0.4488(11)
H75 H 0.7290 0.4170 0.4115
C96 C 0.6841(3) 0.4647(10) 0.4430(10)
H78 H 0.6834 0.5091 0.4023
Cu5 Cu 0.7500 0.2500 0.0000
C1_2 C 0.5057(4) 0.2500 0.5000
N1_2 N 0.7140(3) 0.2474(11) 0.0869(9)
O1_2 O 0.4603(2) 0.1589(7) 0.4573(6)
C2_2 C 0.5754(3) 0.2797(10) 0.3576(10)
O2_3 O 0.7500 0.0838(14) 0.0000
O3_2 O 0.5490(2) 0.2946(6) 0.4079(7)
C3_2 C 0.5980(4) 0.3475(11) 0.3505(12)
H1_2 H 0.5951 0.4005 0.3804
C4_2 C 0.6254(4) 0.3373(13) 0.2987(13)
H2_2 H 0.6405 0.3849 0.2938
C5_2 C 0.6315(4) 0.2624(11) 0.2549(9)
C6_2 C 0.6081(4) 0.1963(11) 0.2635(9)
H3_2 H 0.6113 0.1433 0.2337
C7_2 C 0.5802(3) 0.2026(11) 0.3127(10)
H4_2 H 0.5648 0.1555 0.3159
C8_2 C 0.6601(4) 0.2566(11) 0.1998(12)
C9_2 C 0.6871(4) 0.3143(12) 0.2030(11)
H5_2 H 0.6882 0.3584 0.2439
C10_2 C 0.5271(3) 0.2230(9) 0.4271(9)
H6_2 H 0.5128 0.2095 0.3796
H7_2 H 0.5401 0.1697 0.4406
C11_2 C 0.7125(4) 0.3064(14) 0.1453(14)
H8_2 H 0.7303 0.3474 0.1487
C12_2 C 0.6888(4) 0.1907(13) 0.0844(12)
H9_2 H 0.6891 0.1460 0.0440
C13_2 C 0.6616(4) 0.1939(13) 0.1392(13)
H10_2 H 0.6441 0.1523 0.1340
C14_2 C 0.4835(3) 0.1718(9) 0.5233(10)
H11_2 H 0.4715 0.1845 0.5746
H12_2 H 0.4970 0.1181 0.5313
C15_2 C 0.4324(3) 0.1099(10) 0.4734(10)
C16_2 C 0.4284(3) 0.0538(11) 0.5380(11)
H13_2 H 0.4457 0.0477 0.5768
C17_2 C 0.3992(4) 0.0052(10) 0.5479(10)
C18_2 C 0.3730(3) 0.0116(9) 0.4903(10)
C19_2 C 0.3781(3) 0.0679(10) 0.4243(10)
H15_2 H 0.3614 0.0733 0.3840
C20_2 C 0.4071(4) 0.1162(10) 0.4161(10)
H16_2 H 0.4097 0.1542 0.3706
H20_2 H 0.3166 0.0091 0.4023
Cu3 Cu 0.2500 0.7500 0.5000
N3 N 0.7140(3) 0.2526(11) 0.9131(9)
N6 N 0.7860(3) 0.2526(11) 0.0869(9)
O5_2 O 0.4603(2) 0.3411(7) 0.5427(6)
C27_2 C 0.5754(3) 0.2203(10) 0.6424(10)
Cu5_2 Cu 0.7500 0.2500 1.0000
O8_3 O 0.7500 0.4162(14) 0.0000
N9 N 0.2864(2) 0.6551(8) 0.4946(8)
O9_2 O 0.5490(2) 0.2054(6) 0.5921(7)
C30_2 C 0.5980(4) 0.1525(11) 0.6495(12)
H21_2 H 0.5951 0.0995 0.6196
C33_2 C 0.6254(4) 0.1627(13) 0.7013(13)
H24_2 H 0.6405 0.1151 0.7062
C36_2 C 0.6315(4) 0.2376(11) 0.7451(9)
C39_2 C 0.6081(4) 0.3037(11) 0.7365(9)
H27_2 H 0.6113 0.3567 0.7663
C42_2 C 0.5802(3) 0.2974(11) 0.6873(10)
H30_2 H 0.5648 0.3445 0.6841
C45_2 C 0.6601(4) 0.2434(11) 0.8002(12)
C48_2 C 0.6871(4) 0.1857(12) 0.7970(11)
H33_2 H 0.6882 0.1416 0.7561
C51_2 C 0.5271(3) 0.2770(9) 0.5729(9)
H36_2 H 0.5128 0.2905 0.6204
H39_2 H 0.5401 0.3303 0.5594
C54_2 C 0.7125(4) 0.1936(14) 0.8547(14)
H42_2 H 0.7303 0.1526 0.8513
C57_2 C 0.6888(4) 0.3093(13) 0.9156(12)
H45_2 H 0.6891 0.3540 0.9560
C60_2 C 0.6616(4) 0.3061(13) 0.8608(13)
H48_2 H 0.6441 0.3477 0.8660
C63_2 C 0.4835(3) 0.3282(9) 0.4767(10)
H51_2 H 0.4715 0.3155 0.4254
H54_2 H 0.4970 0.3819 0.4687
C66_2 C 0.4324(3) 0.3901(10) 0.5266(10)
C69_2 C 0.4284(3) 0.4462(11) 0.4620(11)
H57_2 H 0.4457 0.4523 0.4232
C72_2 C 0.3992(4) 0.4948(10) 0.4521(10)
H60_2 H 0.3969 0.5325 0.4063
C75_2 C 0.3730(3) 0.4884(9) 0.5097(10)
C78_2 C 0.3781(3) 0.4321(10) 0.5757(10)
H63_2 H 0.3614 0.4267 0.6160
C81_2 C 0.4071(4) 0.3838(10) 0.5839(10)
H66_2 H 0.4097 0.3458 0.6294
C84_2 C 0.3427(3) 0.5453(9) 0.5017(10)
C87_2 C 0.3401(3) 0.6098(10) 0.4452(9)
H69_2 H 0.3576 0.6185 0.4074
C90_2 C 0.3119(3) 0.6645(10) 0.4413(10)
H72_2 H 0.3107 0.7088 0.4006
C93_2 C 0.2887(3) 0.5906(10) 0.5512(11)
H75_2 H 0.2710 0.5830 0.5885
C96_2 C 0.3159(3) 0.5353(10) 0.5570(10)
H78_2 H 0.3166 0.4909 0.5977
O2_4 O 0.7500 0.0838(14) 1.0000
N7 N 0.7860(3) 0.2474(11) 0.9131(9)
O8_4 O 0.7500 0.4162(14) 1.0000
N2_2 N 0.2864(2) 0.8449(8) 0.5054(8)
O4_2 O 0.2500 0.7500 0.6482(9)
H14_2 H 0.3969 0.9675 0.5937
C21_2 C 0.3427(3) 0.9547(9) 0.4983(10)
C22_2 C 0.3401(3) 0.8902(10) 0.5548(9)
H17_2 H 0.3576 0.8815 0.5926
C23_2 C 0.3119(3) 0.8355(10) 0.5587(10)
H18_2 H 0.3107 0.7912 0.5994
C24_2 C 0.2887(3) 0.9094(10) 0.4488(11)
H19_2 H 0.2710 0.9170 0.4115
C25_2 C 0.3159(3) 0.9647(10) 0.4430(10)
O6_2 O 0.0397(2) 0.3411(7) 0.4573(6)
O7_2 O 0.0397(2) 0.1589(7) 0.5427(6)
N10_2 N 0.2136(2) 0.6551(8) 0.5054(8)
N12 N 0.2136(2) 0.8449(8) 0.4946(8)
O12_2 O 0.2500 0.7500 0.3518(9)
C64_2 C 0.0165(3) 0.3282(9) 0.5233(10)
C65_2 C 0.0165(3) 0.1718(9) 0.4767(10)
H52_2 H 0.0285 0.3155 0.5746
H53_2 H 0.0285 0.1845 0.4254
H55_2 H 0.0030 0.3819 0.5313
H56_2 H 0.0030 0.1181 0.4687
C67_2 C 0.0676(3) 0.3901(10) 0.4734(10)
C68_2 C 0.0676(3) 0.1099(10) 0.5266(10)
C70_2 C 0.0716(3) 0.4462(11) 0.5380(11)
C71_2 C 0.0716(3) 0.0538(11) 0.4620(11)
H58_2 H 0.0543 0.4523 0.5768
H59_2 H 0.0543 0.0477 0.4232
C73_2 C 0.1008(4) 0.4948(10) 0.5479(10)
C74_2 C 0.1008(4) 0.0052(10) 0.4521(10)
H61_2 H 0.1031 0.5325 0.5937
C76_2 C 0.1270(3) 0.4884(9) 0.4903(10)
C77_2 C 0.1270(3) 0.0116(9) 0.5097(10)
C79_2 C 0.1219(3) 0.4321(10) 0.4243(10)
C80_2 C 0.1219(3) 0.0679(10) 0.5757(10)
H64_2 H 0.1386 0.4267 0.3840
H65_2 H 0.1386 0.0733 0.6160
C82_2 C 0.0929(4) 0.3838(10) 0.4161(10)
C83_2 C 0.0929(4) 0.1162(10) 0.5839(10)
H67_2 H 0.0903 0.3458 0.3706
H68_2 H 0.0903 0.1542 0.6294
C85_2 C 0.1573(3) 0.5453(9) 0.4983(10)
C88_2 C 0.1599(3) 0.6098(10) 0.5548(9)
H70_2 H 0.1424 0.6185 0.5926
C91_2 C 0.1881(3) 0.6645(10) 0.5587(10)
H73_2 H 0.1893 0.7088 0.5994
C94_2 C 0.2113(3) 0.5906(10) 0.4488(11)
H76_2 H 0.2290 0.5830 0.4115
C97_2 C 0.1841(3) 0.5353(10) 0.4430(10)
H79_2 H 0.1834 0.4909 0.4023
H80_2 H 0.1834 0.0091 0.5977
H62_2 H 0.1031 0.9675 0.4063
C86_2 C 0.1573(3) 0.9547(9) 0.5017(10)
C89_2 C 0.1599(3) 0.8902(10) 0.4452(9)
H71_2 H 0.1424 0.8815 0.4074
C92_2 C 0.1881(3) 0.8355(10) 0.4413(10)
H74_2 H 0.1893 0.7912 0.4006
C95_2 C 0.2113(3) 0.9094(10) 0.5512(11)
H77_2 H 0.2290 0.9170 0.5885
C98_2 C 0.1841(3) 0.9647(10) 0.5570(10)
C26_2 C 0.9943(4) 0.2500 0.5000
C28_2 C 0.9246(3) 0.2203(10) 0.3576(10)
C29_2 C 0.9246(3) 0.2797(10) 0.6424(10)
O10_2 O 0.9510(2) 0.2054(6) 0.4079(7)
O11_2 O 0.9510(2) 0.2946(6) 0.5921(7)
C31_2 C 0.9020(4) 0.1525(11) 0.3505(12)
C32_2 C 0.9020(4) 0.3475(11) 0.6495(12)
H22_2 H 0.9049 0.0995 0.3804
H23_2 H 0.9049 0.4005 0.6196
C34_2 C 0.8746(4) 0.1627(13) 0.2987(13)
C35_2 C 0.8746(4) 0.3373(13) 0.7013(13)
H25_2 H 0.8595 0.1151 0.2938
H26_2 H 0.8595 0.3849 0.7062
C37_2 C 0.8685(4) 0.2376(11) 0.2549(9)
C38_2 C 0.8685(4) 0.2624(11) 0.7451(9)
C40_2 C 0.8919(4) 0.3037(11) 0.2635(9)
C41_2 C 0.8919(4) 0.1963(11) 0.7365(9)
H28_2 H 0.8887 0.3567 0.2337
H29_2 H 0.8887 0.1433 0.7663
C43_2 C 0.9198(3) 0.2974(11) 0.3127(10)
C44_2 C 0.9198(3) 0.2026(11) 0.6873(10)
H31_2 H 0.9352 0.3445 0.3159
H32_2 H 0.9352 0.1555 0.6841
C46_2 C 0.8399(4) 0.2434(11) 0.1998(12)
C47_2 C 0.8399(4) 0.2566(11) 0.8002(12)
C49_2 C 0.8129(4) 0.1857(12) 0.2030(11)
C50_2 C 0.8129(4) 0.3143(12) 0.7970(11)
H34_2 H 0.8118 0.1416 0.2439
H35_2 H 0.8118 0.3584 0.7561
C52_2 C 0.9729(3) 0.2770(9) 0.4271(9)
C53_2 C 0.9729(3) 0.2230(9) 0.5729(9)
H37_2 H 0.9872 0.2905 0.3796
H38_2 H 0.9872 0.2095 0.6204
H40_2 H 0.9599 0.3303 0.4406
H41_2 H 0.9599 0.1697 0.5594
C55_2 C 0.7875(4) 0.1936(14) 0.1453(14)
C56_2 C 0.7875(4) 0.3064(14) 0.8547(14)
H43_2 H 0.7697 0.1526 0.1487
H44_2 H 0.7697 0.3474 0.8513
C58_2 C 0.8112(4) 0.3093(13) 0.0844(12)
C59_2 C 0.8112(4) 0.1907(13) 0.9156(12)
H46_2 H 0.8109 0.3540 0.0440
H47_2 H 0.8109 0.1460 0.9560
C61_2 C 0.8384(4) 0.3061(13) 0.1392(13)
C62_2 C 0.8384(4) 0.1939(13) 0.8608(13)
H49_2 H 0.8559 0.3477 0.1340
H50_2 H 0.8559 0.1523 0.8660
N14 N 0.6954(7) 0.9167(16) 0.7320(14)
O13 O 0.7223(7) 0.962(2) 0.740(2)
O14 O 0.6958(12) 0.843(3) 0.693(3)
O15 O 0.6681(7) 0.945(3) 0.763(3)
N14_2 N 0.8046(7) 0.5833(16) 0.7320(14)
O13_2 O 0.7777(7) 0.538(2) 0.740(2)
O14_2 O 0.8042(12) 0.657(3) 0.693(3)
O15_2 O 0.8319(7) 0.555(3) 0.763(3)
N14_3 N 0.8046(7) 0.9167(16) 0.2680(14)
O13_3 O 0.7777(7) 0.962(2) 0.260(2)
O14_3 O 0.8042(12) 0.843(3) 0.307(3)
O15_3 O 0.8319(7) 0.945(3) 0.237(3)
N14_4 N 0.6954(7) 0.5833(16) 0.2680(14)
O13_4 O 0.7223(7) 0.538(2) 0.260(2)
O14_4 O 0.6958(12) 0.657(3) 0.307(3)
O15_4 O 0.6681(7) 0.555(3) 0.237(3)
N14_5 N 0.3046(7) 0.0833(16) 0.2680(14)
O13_5 O 0.2777(7) 0.038(2) 0.260(2)
O14_5 O 0.3042(12) 0.157(3) 0.307(3)
O15_5 O 0.3319(7) 0.055(3) 0.237(3)
N14_6 N 0.1954(7) 0.4167(16) 0.2680(14)
O13_6 O 0.2223(7) 0.462(2) 0.260(2)
O14_6 O 0.1958(12) 0.343(3) 0.307(3)
O15_6 O 0.1681(7) 0.445(3) 0.237(3)
N14_7 N 0.1954(7) 0.0833(16) 0.7320(14)
O13_7 O 0.2223(7) 0.038(2) 0.740(2)
O14_7 O 0.1958(12) 0.157(3) 0.693(3)
O15_7 O 0.1681(7) 0.055(3) 0.763(3)
N14_8 N 0.3046(7) 0.4167(16) 0.7320(14)
O13_8 O 0.2777(7) 0.462(2) 0.740(2)
O14_8 O 0.3042(12) 0.343(3) 0.693(3)
O15_8 O 0.3319(7) 0.445(3) 0.763(3)
N15 N 0.4856(6) 0.008(3) 0.2661(18)
O16 O 0.5099(9) 0.019(2) 0.321(2)
O18 O 0.4681(13) 0.077(3) 0.240(4)
O17 O 0.4789(14) 0.926(3) 0.238(3)
N15_2 N 0.0144(6) 0.492(3) 0.2661(18)
O17_2 O 0.0211(14) 0.574(3) 0.238(3)
O18_2 O 0.0319(13) 0.423(3) 0.240(4)
O16_2 O 0.9901(9) 0.481(2) 0.321(2)
N15_3 N 0.0144(6) 0.008(3) 0.7339(18)
O18_3 O 0.0319(13) 0.077(3) 0.760(4)
O17_3 O 0.0211(14) 0.926(3) 0.762(3)
O16_3 O 0.9901(9) 0.019(2) 0.679(2)
N15_4 N 0.4856(6) 0.492(3) 0.7339(18)
O16_4 O 0.5099(9) 0.481(2) 0.679(2)
O17_4 O 0.4789(14) 0.574(3) 0.762(3)
O18_4 O 0.4681(13) 0.423(3) 0.760(4)
O17_5 O 0.5211(14) 0.074(3) 0.762(3)
N15_5 N 0.5144(6) 0.992(3) 0.7339(18)
O16_5 O 0.4901(9) 0.981(2) 0.679(2)
O18_5 O 0.5319(13) 0.923(3) 0.760(4)
O16_6 O 0.0099(9) 0.519(2) 0.679(2)
N15_6 N 0.9856(6) 0.508(3) 0.7339(18)
O17_6 O 0.9789(14) 0.426(3) 0.762(3)
O18_6 O 0.9681(13) 0.577(3) 0.760(4)
O16_7 O 0.0099(9) 0.981(2) 0.321(2)
O17_7 O 0.9789(14) 0.074(3) 0.238(3)
N15_7 N 0.9856(6) 0.992(3) 0.2661(18)
O18_7 O 0.9681(13) 0.923(3) 0.240(4)
N15_8 N 0.5144(6) 0.508(3) 0.2661(18)
O16_8 O 0.4901(9) 0.519(2) 0.321(2)
O17_8 O 0.5211(14) 0.426(3) 0.238(3)
O18_8 O 0.5319(13) 0.577(3) 0.240(4)
loop_
_geom_bond_atom_site_label_1
_geom_bond_atom_site_label_2
_geom_bond_site_symmetry_1
_geom_bond_site_symmetry_2
C26 C52 1_555 1_555
N4 Cu6_2 1_555 1_555
N5 Cu6 1_555 1_555
C28 O10 1_555 1_555
C29 O11 1_555 1_555
O10 C52 1_555 1_555
O11 C53 1_555 1_555
C31 C28 1_555 1_555
C32 C29 1_555 1_555
H22 C31 1_555 1_555
H23 C32 1_555 1_555
C34 C31 1_555 1_555
C35 C32 1_555 1_555
H25 C34 1_555 1_555
H26 C35 1_555 1_555
C37 C34 1_555 1_555
C38 C35 1_555 1_555
C40 C37 1_555 1_555
C41 C38 1_555 1_555
H28 C40 1_555 1_555
H29 C41 1_555 1_555
C43 C28 1_555 1_555
C44 C29 1_555 1_555
H31 C43 1_555 1_555
H32 C44 1_555 1_555
C46 C37 1_555 1_555
C47 C38 1_555 1_555
C49 C46 1_555 1_555
C50 C47 1_555 1_555
H34 C49 1_555 1_555
H35 C50 1_555 1_555
C52 H37 1_555 1_555
C53 C26 1_555 1_555
H38 C53 1_555 1_555
H40 C52 1_555 1_555
H41 C53 1_555 1_555
C55 N4 1_555 1_555
C56 N5 1_555 1_555
H43 C55 1_555 1_555
H44 C56 1_555 1_555
C58 N4 1_555 1_555
C59 N5 1_555 1_555
H46 C58 1_555 1_555
H47 C59 1_555 1_555
C61 C46 1_555 1_555
C62 C47 1_555 1_555
H49 C61 1_555 1_555
H50 C62 1_555 1_555
C40 C43 1_555 1_555
C41 C44 1_555 1_555
C49 C55 1_555 1_555
C50 C56 1_555 1_555
C58 C61 1_555 1_555
C59 C62 1_555 1_555
Cu4 N11 1_555 1_555
N11 C92 1_555 1_555
C89 C86 1_555 1_555
H71 C89 1_555 1_555
C92 C89 1_555 1_555
H74 C92 1_555 1_555
C95 N11 1_555 1_555
H77 C95 1_555 1_555
C98 C86 1_555 1_555
C95 C98 1_555 1_555
Cu4 N2 1_555 1_555
N2 C23 1_555 1_555
O4 Cu4 1_555 1_555
C22 C21 1_555 1_555
H17 C22 1_555 1_555
C23 C22 1_555 1_555
H18 C23 1_555 1_555
C24 N2 1_555 1_555
H19 C24 1_555 1_555
C25 C21 1_555 1_555
O6 C64 1_555 1_555
O7 C65 1_555 1_555
N10 Cu4 1_555 1_555
N13 Cu4 1_555 1_555
O12 Cu4 1_555 1_555
H52 C64 1_555 1_555
H53 C65 1_555 1_555
H55 C64 1_555 1_555
H56 C65 1_555 1_555
C67 O6 1_555 1_555
C68 O7 1_555 1_555
C70 C67 1_555 1_555
C71 C68 1_555 1_555
H58 C70 1_555 1_555
H59 C71 1_555 1_555
C73 C70 1_555 1_555
C74 C71 1_555 1_555
H61 C73 1_555 1_555
C76 C73 1_555 1_555
C77 C74 1_555 1_555
C79 C76 1_555 1_555
C80 C77 1_555 1_555
H64 C79 1_555 1_555
H65 C80 1_555 1_555
C82 C67 1_555 1_555
C83 C68 1_555 1_555
H67 C82 1_555 1_555
H68 C83 1_555 1_555
C85 C76 1_555 1_555
C88 C85 1_555 1_555
H70 C88 1_555 1_555
C91 N10 1_555 1_555
H73 C91 1_555 1_555
C94 N10 1_555 1_555
H76 C94 1_555 1_555
C97 C85 1_555 1_555
H79 C97 1_555 1_555
C24 C25 1_555 1_555
C79 C82 1_555 1_555
C80 C83 1_555 1_555
C88 C91 1_555 1_555
C94 C97 1_555 1_555
Cu6 O2 1_555 1_555
N8 Cu6 1_555 1_555
O8 Cu6 1_555 1_555
C1 C10 1_555 1_555
N1 Cu6_2 1_555 1_555
O1 C14 1_555 1_555
C2 O3 1_555 1_555
Cu6_2 O2_2 1_555 1_555
O3 C10 1_555 1_555
C3 C2 1_555 1_555
H1 C3 1_555 1_555
C4 C3 1_555 1_555
H2 C4 1_555 1_555
C5 C4 1_555 1_555
C6 C5 1_555 1_555
H3 C6 1_555 1_555
C7 C2 1_555 1_555
H4 C7 1_555 1_555
C8 C5 1_555 1_555
C9 C8 1_555 1_555
H5 C9 1_555 1_555
C10 H6 1_555 1_555
H7 C10 1_555 1_555
C11 N1 1_555 1_555
H8 C11 1_555 1_555
C12 N1 1_555 1_555
H9 C12 1_555 1_555
C13 C8 1_555 1_555
H10 C13 1_555 1_555
C14 C1 1_555 1_555
H11 C14 1_555 1_555
H12 C14 1_555 1_555
C15 O1 1_555 1_555
C16 C15 1_555 1_555
H13 C16 1_555 1_555
C17 C16 1_555 1_555
C18 C17 1_555 1_555
C19 C18 1_555 1_555
H15 C19 1_555 1_555
C20 C15 1_555 1_555
H16 C20 1_555 1_555
O5 C63 1_555 1_555
C27 O9 1_555 1_555
O8_2 Cu6_2 1_555 1_555
N13 C90 1_555 1_555
O9 C51 1_555 1_555
C30 C27 1_555 1_555
H21 C30 1_555 1_555
C33 C30 1_555 1_555
H24 C33 1_555 1_555
C36 C33 1_555 1_555
C39 C36 1_555 1_555
H27 C39 1_555 1_555
C42 C27 1_555 1_555
H30 C42 1_555 1_555
C45 C36 1_555 1_555
C48 C45 1_555 1_555
H33 C48 1_555 1_555
C51 C1 1_555 1_555
H36 C51 1_555 1_555
H39 C51 1_555 1_555
C54 N8 1_555 1_555
H42 C54 1_555 1_555
C57 N8 1_555 1_555
H45 C57 1_555 1_555
C60 C45 1_555 1_555
H48 C60 1_555 1_555
C63 C1 1_555 1_555
H51 C63 1_555 1_555
H54 C63 1_555 1_555
C66 O5 1_555 1_555
C69 C66 1_555 1_555
H57 C69 1_555 1_555
C72 C69 1_555 1_555
H60 C72 1_555 1_555
C75 C72 1_555 1_555
C78 C75 1_555 1_555
H63 C78 1_555 1_555
C81 C66 1_555 1_555
H66 C81 1_555 1_555
C84 C75 1_555 1_555
C87 C84 1_555 1_555
H69 C87 1_555 1_555
C90 C87 1_555 1_555
H72 C90 1_555 1_555
C93 N13 1_555 1_555
H75 C93 1_555 1_555
C96 C84 1_555 1_555
H78 C96 1_555 1_555
C6 C7 1_555 1_555
C9 C11 1_555 1_555
C12 C13 1_555 1_555
C19 C20 1_555 1_555
C39 C42 1_555 1_555
C48 C54 1_555 1_555
C57 C60 1_555 1_555
C78 C81 1_555 1_555
C93 C96 1_555 1_555
C1_2 C10_2 1_555 1_555
N1_2 Cu5 1_555 1_555
O1_2 C14_2 1_555 1_555
C2_2 O3_2 1_555 1_555
Cu5 O2_3 1_555 1_555
O3_2 C10_2 1_555 1_555
C3_2 C2_2 1_555 1_555
H1_2 C3_2 1_555 1_555
C4_2 C3_2 1_555 1_555
H2_2 C4_2 1_555 1_555
C5_2 C4_2 1_555 1_555
C6_2 C5_2 1_555 1_555
H3_2 C6_2 1_555 1_555
C7_2 C2_2 1_555 1_555
H4_2 C7_2 1_555 1_555
C8_2 C5_2 1_555 1_555
C9_2 C8_2 1_555 1_555
H5_2 C9_2 1_555 1_555
C10_2 H6_2 1_555 1_555
H7_2 C10_2 1_555 1_555
C11_2 N1_2 1_555 1_555
H8_2 C11_2 1_555 1_555
C12_2 N1_2 1_555 1_555
H9_2 C12_2 1_555 1_555
C13_2 C8_2 1_555 1_555
H10_2 C13_2 1_555 1_555
C14_2 C1_2 1_555 1_555
H11_2 C14_2 1_555 1_555
H12_2 C14_2 1_555 1_555
C15_2 O1_2 1_555 1_555
C16_2 C15_2 1_555 1_555
H13_2 C16_2 1_555 1_555
C17_2 C16_2 1_555 1_555
C18_2 C17_2 1_555 1_555
C19_2 C18_2 1_555 1_555
H15_2 C19_2 1_555 1_555
C20_2 C15_2 1_555 1_555
H16_2 C20_2 1_555 1_555
Cu3 N9 1_555 1_555
N3 Cu5_2 1_555 1_555
N6 Cu5 1_555 1_555
O5_2 C63_2 1_555 1_555
C27_2 O9_2 1_555 1_555
O8_3 Cu5 1_555 1_555
N9 C90_2 1_555 1_555
O9_2 C51_2 1_555 1_555
C30_2 C27_2 1_555 1_555
H21_2 C30_2 1_555 1_555
C33_2 C30_2 1_555 1_555
H24_2 C33_2 1_555 1_555
C36_2 C33_2 1_555 1_555
C39_2 C36_2 1_555 1_555
H27_2 C39_2 1_555 1_555
C42_2 C27_2 1_555 1_555
H30_2 C42_2 1_555 1_555
C45_2 C36_2 1_555 1_555
C48_2 C45_2 1_555 1_555
H33_2 C48_2 1_555 1_555
C51_2 C1_2 1_555 1_555
H36_2 C51_2 1_555 1_555
H39_2 C51_2 1_555 1_555
C54_2 N3 1_555 1_555
H42_2 C54_2 1_555 1_555
C57_2 N3 1_555 1_555
H45_2 C57_2 1_555 1_555
C60_2 C45_2 1_555 1_555
H48_2 C60_2 1_555 1_555
C63_2 C1_2 1_555 1_555
H51_2 C63_2 1_555 1_555
H54_2 C63_2 1_555 1_555
C66_2 O5_2 1_555 1_555
C69_2 C66_2 1_555 1_555
H57_2 C69_2 1_555 1_555
C72_2 C69_2 1_555 1_555
H60_2 C72_2 1_555 1_555
C75_2 C72_2 1_555 1_555
C78_2 C75_2 1_555 1_555
H63_2 C78_2 1_555 1_555
C81_2 C66_2 1_555 1_555
H66_2 C81_2 1_555 1_555
C84_2 C75_2 1_555 1_555
C87_2 C84_2 1_555 1_555
H69_2 C87_2 1_555 1_555
C90_2 C87_2 1_555 1_555
H72_2 C90_2 1_555 1_555
C93_2 N9 1_555 1_555
H75_2 C93_2 1_555 1_555
C96_2 C84_2 1_555 1_555
H78_2 C96_2 1_555 1_555
C6_2 C7_2 1_555 1_555
C9_2 C11_2 1_555 1_555
C12_2 C13_2 1_555 1_555
C19_2 C20_2 1_555 1_555
C39_2 C42_2 1_555 1_555
C48_2 C54_2 1_555 1_555
C57_2 C60_2 1_555 1_555
C78_2 C81_2 1_555 1_555
C93_2 C96_2 1_555 1_555
Cu5_2 O2_4 1_555 1_555
N7 Cu5_2 1_555 1_555
O8_4 Cu5_2 1_555 1_555
Cu3 N2_2 1_555 1_555
N2_2 C23_2 1_555 1_555
O4_2 Cu3 1_555 1_555
C22_2 C21_2 1_555 1_555
H17_2 C22_2 1_555 1_555
C23_2 C22_2 1_555 1_555
H18_2 C23_2 1_555 1_555
C24_2 N2_2 1_555 1_555
H19_2 C24_2 1_555 1_555
C25_2 C21_2 1_555 1_555
O6_2 C64_2 1_555 1_555
O7_2 C65_2 1_555 1_555
N10_2 Cu3 1_555 1_555
N12 Cu3 1_555 1_555
O12_2 Cu3 1_555 1_555
H52_2 C64_2 1_555 1_555
H53_2 C65_2 1_555 1_555
H55_2 C64_2 1_555 1_555
H56_2 C65_2 1_555 1_555
C67_2 O6_2 1_555 1_555
C68_2 O7_2 1_555 1_555
C70_2 C67_2 1_555 1_555
C71_2 C68_2 1_555 1_555
H58_2 C70_2 1_555 1_555
H59_2 C71_2 1_555 1_555
C73_2 C70_2 1_555 1_555
C74_2 C71_2 1_555 1_555
H61_2 C73_2 1_555 1_555
C76_2 C73_2 1_555 1_555
C77_2 C74_2 1_555 1_555
C79_2 C76_2 1_555 1_555
C80_2 C77_2 1_555 1_555
H64_2 C79_2 1_555 1_555
H65_2 C80_2 1_555 1_555
C82_2 C67_2 1_555 1_555
C83_2 C68_2 1_555 1_555
H67_2 C82_2 1_555 1_555
H68_2 C83_2 1_555 1_555
C85_2 C76_2 1_555 1_555
C88_2 C85_2 1_555 1_555
H70_2 C88_2 1_555 1_555
C91_2 N10_2 1_555 1_555
H73_2 C91_2 1_555 1_555
C94_2 N10_2 1_555 1_555
H76_2 C94_2 1_555 1_555
C97_2 C85_2 1_555 1_555
H79_2 C97_2 1_555 1_555
C24_2 C25_2 1_555 1_555
C79_2 C82_2 1_555 1_555
C80_2 C83_2 1_555 1_555
C88_2 C91_2 1_555 1_555
C94_2 C97_2 1_555 1_555
N12 C92_2 1_555 1_555
C89_2 C86_2 1_555 1_555
H71_2 C89_2 1_555 1_555
C92_2 C89_2 1_555 1_555
H74_2 C92_2 1_555 1_555
C95_2 N12 1_555 1_555
H77_2 C95_2 1_555 1_555
C98_2 C86_2 1_555 1_555
C95_2 C98_2 1_555 1_555
C26_2 C52_2 1_555 1_555
C28_2 O10_2 1_555 1_555
C29_2 O11_2 1_555 1_555
O10_2 C52_2 1_555 1_555
O11_2 C53_2 1_555 1_555
C31_2 C28_2 1_555 1_555
C32_2 C29_2 1_555 1_555
H22_2 C31_2 1_555 1_555
H23_2 C32_2 1_555 1_555
C34_2 C31_2 1_555 1_555
C35_2 C32_2 1_555 1_555
H25_2 C34_2 1_555 1_555
H26_2 C35_2 1_555 1_555
C37_2 C34_2 1_555 1_555
C38_2 C35_2 1_555 1_555
C40_2 C37_2 1_555 1_555
C41_2 C38_2 1_555 1_555
H28_2 C40_2 1_555 1_555
H29_2 C41_2 1_555 1_555
C43_2 C28_2 1_555 1_555
C44_2 C29_2 1_555 1_555
H31_2 C43_2 1_555 1_555
H32_2 C44_2 1_555 1_555
C46_2 C37_2 1_555 1_555
C47_2 C38_2 1_555 1_555
C49_2 C46_2 1_555 1_555
C50_2 C47_2 1_555 1_555
H34_2 C49_2 1_555 1_555
H35_2 C50_2 1_555 1_555
C52_2 H37_2 1_555 1_555
C53_2 C26_2 1_555 1_555
H38_2 C53_2 1_555 1_555
H40_2 C52_2 1_555 1_555
H41_2 C53_2 1_555 1_555
C55_2 N6 1_555 1_555
C56_2 N7 1_555 1_555
H43_2 C55_2 1_555 1_555
H44_2 C56_2 1_555 1_555
C58_2 N6 1_555 1_555
C59_2 N7 1_555 1_555
H46_2 C58_2 1_555 1_555
H47_2 C59_2 1_555 1_555
C61_2 C46_2 1_555 1_555
C62_2 C47_2 1_555 1_555
H49_2 C61_2 1_555 1_555
H50_2 C62_2 1_555 1_555
C40_2 C43_2 1_555 1_555
C41_2 C44_2 1_555 1_555
C49_2 C55_2 1_555 1_555
C50_2 C56_2 1_555 1_555
C58_2 C61_2 1_555 1_555
C59_2 C62_2 1_555 1_555
N14 O13 1_555 1_555
O14 N14 1_555 1_555
O15 N14 1_555 1_555
N14_2 O13_2 1_555 1_555
O14_2 N14_2 1_555 1_555
O15_2 N14_2 1_555 1_555
N14_3 O13_3 1_555 1_555
O14_3 N14_3 1_555 1_555
O15_3 N14_3 1_555 1_555
N14_4 O13_4 1_555 1_555
O14_4 N14_4 1_555 1_555
O15_4 N14_4 1_555 1_555
N14_5 O13_5 1_555 1_555
O14_5 N14_5 1_555 1_555
O15_5 N14_5 1_555 1_555
N14_6 O13_6 1_555 1_555
O14_6 N14_6 1_555 1_555
O15_6 N14_6 1_555 1_555
N14_7 O13_7 1_555 1_555
O14_7 N14_7 1_555 1_555
O15_7 N14_7 1_555 1_555
N14_8 O13_8 1_555 1_555
O14_8 N14_8 1_555 1_555
O15_8 N14_8 1_555 1_555
N15 O16 1_555 1_555
O18 N15 1_555 1_555
O17_2 N15_2 1_555 1_555
O18_2 N15_2 1_555 1_555
O18_3 N15_3 1_555 1_555
N15_4 O16_4 1_555 1_555
O17_4 N15_4 1_555 1_555
O18_4 N15_4 1_555 1_555
N15_5 O16_5 1_555 1_555
O18_5 N15_5 1_555 1_555
O17_6 N15_6 1_555 1_555
O18_6 N15_6 1_555 1_555
O18_7 N15_7 1_555 1_555
N15_8 O16_8 1_555 1_555
O17_8 N15_8 1_555 1_555
O18_8 N15_8 1_555 1_555

#END
