
###############################################################################
#
# This file contains modified crystal structure data generated from the
# MOF subset of the Cambridge Structural Database (CSD) v543 
# hosted by the Cambridge Crystallographic Data Centre (CCDC).
#
# This work is licensed under the Creative Commons
# Attribution-NonCommercial-ShareAlike 4.0 International License.
# To view a copy of this license, visit
# http://creativecommons.org/licenses/by-nc-sa/4.0/
# or send a letter to
# Creative Commons, PO Box 1866, Mountain View, CA 94042, USA.
#
# CIF created using the CSD Python API on 29 September 2022
# The structure has been converted into the P1 space group
# The structure has a 3D framework
# The original CSD entry MOXPEV is in the monoclinic crystal system
# The framework has been calculated to contain at least 10.0% void space
# The void calculation uses a probe of radius 1.32A, grid spacing 0.4
# The framework is charged, counterions have been retained in the structure
#
###############################################################################

data_MOXPEV
_chemical_formula_moiety         '(C200 H192 B14 Cu8 F48 N32 O32 6-)n'
_symmetry_cell_setting           triclinic
_symmetry_space_group_name_H-M   'P 1'
_symmetry_Int_Tables_number      1
_space_group_name_Hall           'P 1'
loop_
_symmetry_equiv_pos_site_id
_symmetry_equiv_pos_as_xyz
1 x,y,z
_cell_length_a                   14.272(2)
_cell_length_b                   24.516(4)
_cell_length_c                   21.640(3)
_cell_angle_alpha                90
_cell_angle_beta                 97.075(4)
_cell_angle_gamma                90
_cell_volume                     7514.02
loop_
_atom_site_label
_atom_site_type_symbol
_atom_site_fract_x
_atom_site_fract_y
_atom_site_fract_z
N4 N 0.27526(5) 0.34489(3) 0.01093(3)
C24 C 0.20961(5) 0.31567(3) 0.03321(4)
H23 H 0.2219 0.2997 0.0728
H24 H 0.0796 0.2864 0.0154
Cu5 Cu 0.390962(8) 0.376170(5) 0.070403(6)
O4 O 0.01410(3) 0.32935(2) 0.90448(3)
C21 C 0.09873(4) 0.33180(2) 0.94219(3)
C22 C 0.16848(6) 0.36283(4) 0.91982(4)
H21 H 0.1567 0.3808 0.8813
C23 C 0.25221(5) 0.36670(2) 0.95393(3)
H22 H 0.2994 0.3863 0.9368
C25 C 0.12408(5) 0.30865(2) 0.99892(4)
N9 N 0.00836(3) 0.14000(2) 0.53112(2)
Cu6 Cu 0.109038(8) 0.876170(5) 0.429597(6)
H40 H 0.0449 0.8195 0.5431
N3 N 0.50836(3) 0.36000(2) 0.03112(2)
C18 C 0.59321(5) 0.37366(3) 0.06080(4)
H17 H 0.5944 0.3946 0.0973
C19 C 0.67770(5) 0.35954(3) 0.04225(3)
H18 H 0.7345 0.3718 0.0645
Cu1 Cu 0.890962(8) 0.123830(5) 0.570403(6)
C1 C 0.84883(4) 0.31815(3) 0.88784(3)
C2 C 0.85656(4) 0.30073(2) 0.81949(2)
H1 H 0.8022 0.3145 0.7918
H2 H 0.9142 0.3159 0.8059
O1 O 0.85885(3) 0.24296(2) 0.81703(2)
C3 C 0.86785(4) 0.21731(3) 0.76156(3)
C4 C 0.87905(5) 0.24795(2) 0.71014(3)
H3 H 0.8809 0.2863 0.7115
C5 C 0.88709(5) 0.22062(3) 0.65841(3)
H4 H 0.8913 0.2411 0.6221
N1 N 0.88978(4) 0.16665(2) 0.65346(3)
C6 C 0.87785(5) 0.13768(3) 0.70409(3)
H5 H 0.8747 0.0995 0.7011
C7 C 0.86984(5) 0.16237(3) 0.76149(3)
H6 H 0.8661 0.1419 0.7978
C8 C 0.84381(5) 0.38060(2) 0.89258(3)
H7 H 0.8606 0.3923 0.9358
H8 H 0.8877 0.3976 0.8669
O2 O 0.74677(3) 0.39630(2) 0.870392(19)
C9 C 0.72316(5) 0.44526(2) 0.88517(3)
C10 C 0.62825(5) 0.45403(3) 0.87998(3)
H9 H 0.5853 0.4264 0.8658
C11 C 0.59712(4) 0.50482(2) 0.89611(3)
H10 H 0.5315 0.5099 0.8940
N2 N 0.65227(5) 0.54753(2) 0.91446(3)
C12 C 0.74833(5) 0.53665(4) 0.91860(3)
H11 H 0.7919 0.5640 0.9328
C13 C 0.78127(8) 0.48594(4) 0.90208(7)
H12 H 0.8466 0.4805 0.9030
C14 C 0.76529(4) 0.29119(2) 0.90928(3)
H13 H 0.7076 0.3003 0.8818
H14 H 0.7730 0.2515 0.9103
O3 O 0.76151(3) 0.31265(3) 0.97169(3)
C15 C 0.67858(5) 0.32714(4) 0.99051(4)
C16 C 0.59500(5) 0.31209(3) 0.95748(3)
H15 H 0.5930 0.2908 0.9212
C17 C 0.51276(6) 0.32972(3) 0.97979(3)
H16 H 0.4551 0.3195 0.9569
C20 C 0.93852(5) 0.30011(4) 0.92707(4)
H19 H 0.9356 0.3086 0.9710
H20 H 0.9476 0.2607 0.9229
Cu3 Cu 0.609038(8) 0.623830(5) 0.929597(6)
C36 C 0.90288(4) 0.00482(2) 0.60389(3)
H34 H 0.9685 0.0099 0.6060
N6 N 0.84773(5) 0.04753(2) 0.58554(3)
C37 C 0.75167(5) 0.03665(4) 0.58140(3)
H35 H 0.7081 0.0640 0.5672
N12 N 0.77526(5) 0.15511(3) 0.51093(3)
C26 C 0.65117(4) 0.81815(3) 0.61216(3)
C27 C 0.64344(4) 0.80073(2) 0.68051(2)
H25 H 0.6978 0.8145 0.7082
H26 H 0.5858 0.8159 0.6941
O5 O 0.64115(3) 0.74296(2) 0.68297(2)
C28 C 0.63215(4) 0.71731(3) 0.73844(3)
C29 C 0.62095(5) 0.74795(2) 0.78986(3)
H27 H 0.6191 0.7863 0.7885
C30 C 0.61291(5) 0.72062(3) 0.84159(3)
H28 H 0.6087 0.7411 0.8779
N5 N 0.61022(4) 0.66665(2) 0.84654(3)
C31 C 0.62215(5) 0.63768(3) 0.79591(3)
H29 H 0.6253 0.5995 0.7989
C32 C 0.63016(5) 0.66237(3) 0.73851(3)
H30 H 0.6339 0.6419 0.7022
C33 C 0.65619(5) 0.88060(2) 0.60742(3)
H31 H 0.6394 0.8923 0.5642
H32 H 0.6123 0.8976 0.6331
O6 O 0.75323(3) 0.89630(2) 0.629608(19)
C34 C 0.77684(5) 0.94526(2) 0.61483(3)
C35 C 0.87175(5) 0.95403(3) 0.62002(3)
H33 H 0.9147 0.9264 0.6342
C38 C 0.71873(8) 0.98594(4) 0.59792(7)
H36 H 0.6534 0.9805 0.5970
C39 C 0.73471(4) 0.79119(2) 0.59072(3)
H37 H 0.7924 0.8003 0.6182
H38 H 0.7270 0.7515 0.5897
O7 O 0.73849(3) 0.81265(3) 0.52831(3)
C40 C 0.82142(5) 0.82714(4) 0.50949(4)
C41 C 0.90500(5) 0.81209(3) 0.54252(3)
H39 H 0.9070 0.7908 0.5788
C42 C 0.98724(6) 0.82972(3) 0.52021(3)
N8 N 0.99164(3) 0.86000(2) 0.46888(2)
N10 N 0.49164(3) 0.64000(2) 0.96888(2)
C43 C 0.90679(5) 0.87366(3) 0.43920(4)
H41 H 0.9056 0.8946 0.4027
C44 C 0.82230(5) 0.85954(3) 0.45775(3)
H42 H 0.7655 0.8718 0.4355
C45 C 0.56148(5) 0.80011(4) 0.57293(4)
H43 H 0.5644 0.8086 0.5290
H44 H 0.5524 0.7607 0.5771
O8 O 0.48590(3) 0.82935(2) 0.59552(3)
C46 C 0.40127(4) 0.83180(2) 0.55781(3)
C47 C 0.33152(6) 0.86283(4) 0.58018(4)
H45 H 0.3433 0.8808 0.6187
C48 C 0.24779(5) 0.86670(2) 0.54607(3)
H46 H 0.2006 0.8863 0.5632
N11 N 0.22474(5) 0.84489(3) 0.48907(3)
N13 N 0.72474(5) 0.65511(3) 0.98907(3)
C49 C 0.29039(5) 0.81567(3) 0.46679(4)
H47 H 0.2781 0.7997 0.4272
C50 C 0.37592(5) 0.80865(2) 0.50108(4)
H48 H 0.4204 0.7864 0.4846
C26_2 C 0.34883(4) 0.18185(3) 0.38784(3)
C27_2 C 0.35656(4) 0.19927(2) 0.31949(2)
H25_2 H 0.3022 0.1855 0.2918
H26_2 H 0.4142 0.1841 0.3059
O5_2 O 0.35885(3) 0.25704(2) 0.31703(2)
C28_2 C 0.36785(4) 0.28269(3) 0.26156(3)
C29_2 C 0.37905(5) 0.25205(2) 0.21014(3)
H27_2 H 0.3809 0.2137 0.2115
C30_2 C 0.38709(5) 0.27938(3) 0.15841(3)
H28_2 H 0.3913 0.2589 0.1221
N5_2 N 0.38978(4) 0.33335(2) 0.15346(3)
C31_2 C 0.37785(5) 0.36232(3) 0.20409(3)
H29_2 H 0.3747 0.4005 0.2011
C32_2 C 0.36984(5) 0.33763(3) 0.26149(3)
H30_2 H 0.3661 0.3581 0.2978
C33_2 C 0.34381(5) 0.11940(2) 0.39258(3)
H31_2 H 0.3606 0.1077 0.4358
H32_2 H 0.3877 0.1024 0.3669
O6_2 O 0.24677(3) 0.10370(2) 0.370392(19)
C34_2 C 0.22316(5) 0.05474(2) 0.38517(3)
C35_2 C 0.12825(5) 0.04597(3) 0.37998(3)
H33_2 H 0.0853 0.0736 0.3658
N7 N 0.34773(5) 0.45247(2) 0.08554(3)
C38_2 C 0.28127(8) 0.01406(4) 0.40208(7)
H36_2 H 0.3466 0.0195 0.4030
C39_2 C 0.26529(4) 0.20881(2) 0.40928(3)
H37_2 H 0.2076 0.1997 0.3818
H38_2 H 0.2730 0.2485 0.4103
O7_2 O 0.26151(3) 0.18735(3) 0.47169(3)
C40_2 C 0.17858(5) 0.17286(4) 0.49051(4)
C41_2 C 0.09500(5) 0.18791(3) 0.45748(3)
H39_2 H 0.0930 0.2092 0.4212
C42_2 C 0.01276(6) 0.17028(3) 0.47979(3)
C43_2 C 0.09321(5) 0.12634(3) 0.56080(4)
H41_2 H 0.0944 0.1054 0.5973
C44_2 C 0.17770(5) 0.14046(3) 0.54225(3)
H42_2 H 0.2345 0.1282 0.5645
C45_2 C 0.43852(5) 0.19989(4) 0.42707(4)
H43_2 H 0.4356 0.1914 0.4710
H44_2 H 0.4476 0.2393 0.4229
O8_2 O 0.51410(3) 0.17065(2) 0.40448(3)
C46_2 C 0.59873(4) 0.16820(2) 0.44219(3)
C47_2 C 0.66848(6) 0.13717(4) 0.41982(4)
H45_2 H 0.6567 0.1192 0.3813
C48_2 C 0.75221(5) 0.13330(2) 0.45393(3)
H46_2 H 0.7994 0.1137 0.4368
C49_2 C 0.70961(5) 0.18433(3) 0.53321(4)
H47_2 H 0.7219 0.2003 0.5728
C50_2 C 0.62408(5) 0.19135(2) 0.49892(4)
H48_2 H 0.5796 0.2136 0.5154
C1_2 C 0.15117(4) 0.68185(3) 0.11216(3)
C2_2 C 0.14344(4) 0.69927(2) 0.18051(2)
H1_2 H 0.1978 0.6855 0.2082
H2_2 H 0.0858 0.6841 0.1941
O1_2 O 0.14115(3) 0.75704(2) 0.18297(2)
C3_2 C 0.13215(4) 0.78269(3) 0.23844(3)
C4_2 C 0.12095(5) 0.75205(2) 0.28986(3)
H3_2 H 0.1191 0.7137 0.2885
C5_2 C 0.11291(5) 0.77938(3) 0.34159(3)
H4_2 H 0.1087 0.7589 0.3779
N1_2 N 0.11022(4) 0.83335(2) 0.34654(3)
C6_2 C 0.12215(5) 0.86232(3) 0.29591(3)
H5_2 H 0.1253 0.9005 0.2989
C7_2 C 0.13016(5) 0.83763(3) 0.23851(3)
H6_2 H 0.1339 0.8581 0.2022
C8_2 C 0.15619(5) 0.61940(2) 0.10742(3)
H7_2 H 0.1394 0.6077 0.0642
H8_2 H 0.1123 0.6024 0.1331
O2_2 O 0.25323(3) 0.60370(2) 0.129608(19)
C9_2 C 0.27684(5) 0.55474(2) 0.11483(3)
C10_2 C 0.37175(5) 0.54597(3) 0.12002(3)
H9_2 H 0.4147 0.5736 0.1342
C11_2 C 0.40288(4) 0.49518(2) 0.10389(3)
H10_2 H 0.4685 0.4901 0.1060
C12_2 C 0.25167(5) 0.46335(4) 0.08140(3)
H11_2 H 0.2081 0.4360 0.0672
C13_2 C 0.21873(8) 0.51406(4) 0.09792(7)
H12_2 H 0.1534 0.5195 0.0970
C14_2 C 0.23471(4) 0.70881(2) 0.09072(3)
H13_2 H 0.2924 0.6997 0.1182
H14_2 H 0.2270 0.7485 0.0897
O3_2 O 0.23849(3) 0.68735(3) 0.02831(3)
C15_2 C 0.32142(5) 0.67286(4) 0.00949(4)
C16_2 C 0.40500(5) 0.68791(3) 0.04252(3)
H15_2 H 0.4070 0.7092 0.0788
C17_2 C 0.48724(6) 0.67028(3) 0.02021(3)
H16_2 H 0.5449 0.6805 0.0431
C20_2 C 0.06148(5) 0.69989(4) 0.07293(4)
H19_2 H 0.0644 0.6914 0.0290
H20_2 H 0.0524 0.7393 0.0771
C36_2 C 0.09712(4) 0.99518(2) 0.39611(3)
H34_2 H 0.0315 0.9901 0.3940
N6_2 N 0.15227(5) 0.95247(2) 0.41446(3)
C37_2 C 0.24833(5) 0.96335(4) 0.41860(3)
H35_2 H 0.2919 0.9360 0.4328
C18_2 C 0.40679(5) 0.62634(3) 0.93920(4)
H17_2 H 0.4056 0.6054 0.9027
C19_2 C 0.32230(5) 0.64046(3) 0.95775(3)
H18_2 H 0.2655 0.6282 0.9355
H40_2 H 0.9551 0.1805 0.4569
O4_2 O 0.98590(3) 0.67065(2) 0.09552(3)
C21_2 C 0.90127(4) 0.66820(2) 0.05781(3)
C22_2 C 0.83152(6) 0.63717(4) 0.08018(4)
H21_2 H 0.8433 0.6192 0.1187
C23_2 C 0.74779(5) 0.63330(2) 0.04607(3)
H22_2 H 0.7006 0.6137 0.0632
C25_2 C 0.87592(5) 0.69135(2) 0.00108(4)
C24_2 C 0.79039(5) 0.68433(3) 0.96679(4)
H23_2 H 0.7781 0.7003 0.9272
H24_2 H 0.9204 0.7136 0.9846
Cu1_2 Cu 0.109038(8) 0.123830(5) 0.929597(6)
C1_3 C 0.15117(4) 0.31815(3) 0.61216(3)
C2_3 C 0.14344(4) 0.30073(2) 0.68051(2)
H1_3 H 0.1978 0.3145 0.7082
H2_3 H 0.0858 0.3159 0.6941
O1_3 O 0.14115(3) 0.24296(2) 0.68297(2)
C3_3 C 0.13215(4) 0.21731(3) 0.73844(3)
C4_3 C 0.12095(5) 0.24795(2) 0.78986(3)
H3_3 H 0.1191 0.2863 0.7885
C5_3 C 0.11291(5) 0.22062(3) 0.84159(3)
H4_3 H 0.1087 0.2411 0.8779
N1_3 N 0.11022(4) 0.16665(2) 0.84654(3)
C6_3 C 0.12215(5) 0.13768(3) 0.79591(3)
H5_3 H 0.1253 0.0995 0.7989
C7_3 C 0.13016(5) 0.16237(3) 0.73851(3)
H6_3 H 0.1339 0.1419 0.7022
C8_3 C 0.15619(5) 0.38060(2) 0.60742(3)
H7_3 H 0.1394 0.3923 0.5642
H8_3 H 0.1123 0.3976 0.6331
O2_3 O 0.25323(3) 0.39630(2) 0.629608(19)
C9_3 C 0.27684(5) 0.44526(2) 0.61483(3)
C10_3 C 0.37175(5) 0.45403(3) 0.62002(3)
H9_3 H 0.4147 0.4264 0.6342
C11_3 C 0.40288(4) 0.50482(2) 0.60389(3)
H10_3 H 0.4685 0.5099 0.6060
N2_2 N 0.34773(5) 0.54753(2) 0.58554(3)
C12_3 C 0.25167(5) 0.53665(4) 0.58140(3)
H11_3 H 0.2081 0.5640 0.5672
C13_3 C 0.21873(8) 0.48594(4) 0.59792(7)
H12_3 H 0.1534 0.4805 0.5970
C14_3 C 0.23471(4) 0.29119(2) 0.59072(3)
H13_3 H 0.2924 0.3003 0.6182
H14_3 H 0.2270 0.2515 0.5897
O3_3 O 0.23849(3) 0.31265(3) 0.52831(3)
C15_3 C 0.32142(5) 0.32714(4) 0.50949(4)
C16_3 C 0.40500(5) 0.31209(3) 0.54252(3)
H15_3 H 0.4070 0.2908 0.5788
C17_3 C 0.48724(6) 0.32972(3) 0.52021(3)
H16_3 H 0.5449 0.3195 0.5431
N3_2 N 0.49164(3) 0.36000(2) 0.46888(2)
C18_3 C 0.40679(5) 0.37366(3) 0.43920(4)
H17_3 H 0.4056 0.3946 0.4027
C19_3 C 0.32230(5) 0.35954(3) 0.45775(3)
H18_3 H 0.2655 0.3718 0.4355
C20_3 C 0.06148(5) 0.30011(4) 0.57293(4)
H19_3 H 0.0644 0.3086 0.5290
H20_3 H 0.0524 0.2607 0.5771
Cu3_2 Cu 0.390962(8) 0.623830(5) 0.570403(6)
Cu4 Cu 0.609038(8) 0.376170(5) 0.429597(6)
C36_3 C 0.09712(4) 0.00482(2) 0.89611(3)
H34_3 H 0.0315 0.0099 0.8940
N6_3 N 0.15227(5) 0.04753(2) 0.91446(3)
C37_3 C 0.24833(5) 0.03665(4) 0.91860(3)
H35_3 H 0.2919 0.0640 0.9328
N12_2 N 0.22474(5) 0.15511(3) 0.98907(3)
Cu7 Cu 0.890962(8) 0.876170(5) 0.070403(6)
N8_2 N 0.00836(3) 0.86000(2) 0.03112(2)
C43_3 C 0.09321(5) 0.87366(3) 0.06080(4)
H41_3 H 0.0944 0.8946 0.0973
C44_3 C 0.17770(5) 0.85954(3) 0.04225(3)
H42_3 H 0.2345 0.8718 0.0645
N11_2 N 0.77526(5) 0.84489(3) 0.01093(3)
C49_3 C 0.70961(5) 0.81567(3) 0.03321(4)
H47_3 H 0.7219 0.7997 0.0728
H48_3 H 0.5796 0.7864 0.0154
C26_3 C 0.34883(4) 0.81815(3) 0.88784(3)
C27_3 C 0.35656(4) 0.80073(2) 0.81949(2)
H25_3 H 0.3022 0.8145 0.7918
H26_3 H 0.4142 0.8159 0.8059
O5_3 O 0.35885(3) 0.74296(2) 0.81703(2)
C28_3 C 0.36785(4) 0.71731(3) 0.76156(3)
C29_3 C 0.37905(5) 0.74795(2) 0.71014(3)
H27_3 H 0.3809 0.7863 0.7115
C30_3 C 0.38709(5) 0.72062(3) 0.65841(3)
H28_3 H 0.3913 0.7411 0.6221
N5_3 N 0.38978(4) 0.66665(2) 0.65346(3)
C31_3 C 0.37785(5) 0.63768(3) 0.70409(3)
H29_3 H 0.3747 0.5995 0.7011
C32_3 C 0.36984(5) 0.66237(3) 0.76149(3)
H30_3 H 0.3661 0.6419 0.7978
C33_3 C 0.34381(5) 0.88060(2) 0.89258(3)
H31_3 H 0.3606 0.8923 0.9358
H32_3 H 0.3877 0.8976 0.8669
O6_3 O 0.24677(3) 0.89630(2) 0.870392(19)
C34_3 C 0.22316(5) 0.94526(2) 0.88517(3)
C35_3 C 0.12825(5) 0.95403(3) 0.87998(3)
H33_3 H 0.0853 0.9264 0.8658
C38_3 C 0.28127(8) 0.98594(4) 0.90208(7)
H36_3 H 0.3466 0.9805 0.9030
C39_3 C 0.26529(4) 0.79119(2) 0.90928(3)
H37_3 H 0.2076 0.8003 0.8818
H38_3 H 0.2730 0.7515 0.9103
O7_3 O 0.26151(3) 0.81265(3) 0.97169(3)
C40_3 C 0.17858(5) 0.82714(4) 0.99051(4)
C41_3 C 0.09500(5) 0.81209(3) 0.95748(3)
H39_3 H 0.0930 0.7908 0.9212
C42_3 C 0.01276(6) 0.82972(3) 0.97979(3)
N10_2 N 0.50836(3) 0.64000(2) 0.53112(2)
C45_3 C 0.43852(5) 0.80011(4) 0.92707(4)
H43_3 H 0.4356 0.8086 0.9710
H44_3 H 0.4476 0.7607 0.9229
O8_3 O 0.51410(3) 0.82935(2) 0.90448(3)
C46_3 C 0.59873(4) 0.83180(2) 0.94219(3)
C47_3 C 0.66848(6) 0.86283(4) 0.91982(4)
H45_3 H 0.6567 0.8808 0.8813
C48_3 C 0.75221(5) 0.86670(2) 0.95393(3)
H46_3 H 0.7994 0.8863 0.9368
N13_2 N 0.27526(5) 0.65511(3) 0.51093(3)
C50_3 C 0.62408(5) 0.80865(2) 0.99892(4)
O4_3 O 0.98590(3) 0.32935(2) 0.59552(3)
C21_3 C 0.90127(4) 0.33180(2) 0.55781(3)
C22_3 C 0.83152(6) 0.36283(4) 0.58018(4)
H21_3 H 0.8433 0.3808 0.6187
C23_3 C 0.74779(5) 0.36670(2) 0.54607(3)
H22_3 H 0.7006 0.3863 0.5632
N4_2 N 0.72474(5) 0.34489(3) 0.48907(3)
C24_3 C 0.79039(5) 0.31567(3) 0.46679(4)
H23_3 H 0.7781 0.2997 0.4272
C25_3 C 0.87592(5) 0.30865(2) 0.50108(4)
H24_3 H 0.9204 0.2864 0.4846
N9_2 N 0.99164(3) 0.14000(2) 0.96888(2)
H40_3 H 0.9551 0.8195 0.9569
H40_4 H 0.0449 0.1805 0.0431
O4_4 O 0.01410(3) 0.67065(2) 0.40448(3)
C21_4 C 0.09873(4) 0.66820(2) 0.44219(3)
C22_4 C 0.16848(6) 0.63717(4) 0.41982(4)
H21_4 H 0.1567 0.6192 0.3813
C23_4 C 0.25221(5) 0.63330(2) 0.45393(3)
H22_4 H 0.2994 0.6137 0.4368
C24_4 C 0.20961(5) 0.68433(3) 0.53321(4)
H23_4 H 0.2219 0.7003 0.5728
C25_4 C 0.12408(5) 0.69135(2) 0.49892(4)
H24_4 H 0.0796 0.7136 0.5154
C26_4 C 0.65117(4) 0.18185(3) 0.11216(3)
C27_4 C 0.64344(4) 0.19927(2) 0.18051(2)
H25_4 H 0.6978 0.1855 0.2082
H26_4 H 0.5858 0.1841 0.1941
O5_4 O 0.64115(3) 0.25704(2) 0.18297(2)
C28_4 C 0.63215(4) 0.28269(3) 0.23844(3)
C29_4 C 0.62095(5) 0.25205(2) 0.28986(3)
H27_4 H 0.6191 0.2137 0.2885
C30_4 C 0.61291(5) 0.27938(3) 0.34159(3)
H28_4 H 0.6087 0.2589 0.3779
N5_4 N 0.61022(4) 0.33335(2) 0.34654(3)
C31_4 C 0.62215(5) 0.36232(3) 0.29591(3)
H29_4 H 0.6253 0.4005 0.2989
C32_4 C 0.63016(5) 0.33763(3) 0.23851(3)
H30_4 H 0.6339 0.3581 0.2022
C33_4 C 0.65619(5) 0.11940(2) 0.10742(3)
H31_4 H 0.6394 0.1077 0.0642
H32_4 H 0.6123 0.1024 0.1331
O6_4 O 0.75323(3) 0.10370(2) 0.129608(19)
C34_4 C 0.77684(5) 0.05474(2) 0.11483(3)
C35_4 C 0.87175(5) 0.04597(3) 0.12002(3)
H33_4 H 0.9147 0.0736 0.1342
N7_2 N 0.65227(5) 0.45247(2) 0.41446(3)
C38_4 C 0.71873(8) 0.01406(4) 0.09792(7)
H36_4 H 0.6534 0.0195 0.0970
C39_4 C 0.73471(4) 0.20881(2) 0.09072(3)
H37_4 H 0.7924 0.1997 0.1182
H38_4 H 0.7270 0.2485 0.0897
O7_4 O 0.73849(3) 0.18735(3) 0.02831(3)
C40_4 C 0.82142(5) 0.17286(4) 0.00949(4)
C41_4 C 0.90500(5) 0.18791(3) 0.04252(3)
H39_4 H 0.9070 0.2092 0.0788
C42_4 C 0.98724(6) 0.17028(3) 0.02021(3)
C45_4 C 0.56148(5) 0.19989(4) 0.07293(4)
H43_4 H 0.5644 0.1914 0.0290
H44_4 H 0.5524 0.2393 0.0771
O8_4 O 0.48590(3) 0.17065(2) 0.09552(3)
C46_4 C 0.40127(4) 0.16820(2) 0.05781(3)
C47_4 C 0.33152(6) 0.13717(4) 0.08018(4)
H45_4 H 0.3433 0.1192 0.1187
C48_4 C 0.24779(5) 0.13330(2) 0.04607(3)
H46_4 H 0.2006 0.1137 0.0632
C50_4 C 0.37592(5) 0.19135(2) 0.00108(4)
C43_4 C 0.90679(5) 0.12634(3) 0.93920(4)
H41_4 H 0.9056 0.1054 0.9027
C44_4 C 0.82230(5) 0.14046(3) 0.95775(3)
H42_4 H 0.7655 0.1282 0.9355
C49_4 C 0.29039(5) 0.18433(3) 0.96679(4)
H47_4 H 0.2781 0.2003 0.9272
H48_4 H 0.4204 0.2136 0.9846
C1_4 C 0.84883(4) 0.68185(3) 0.38784(3)
C2_4 C 0.85656(4) 0.69927(2) 0.31949(2)
H1_4 H 0.8022 0.6855 0.2918
H2_4 H 0.9142 0.6841 0.3059
O1_4 O 0.85885(3) 0.75704(2) 0.31703(2)
C3_4 C 0.86785(4) 0.78269(3) 0.26156(3)
C4_4 C 0.87905(5) 0.75205(2) 0.21014(3)
H3_4 H 0.8809 0.7137 0.2115
C5_4 C 0.88709(5) 0.77938(3) 0.15841(3)
H4_4 H 0.8913 0.7589 0.1221
N1_4 N 0.88978(4) 0.83335(2) 0.15346(3)
C6_4 C 0.87785(5) 0.86232(3) 0.20409(3)
H5_4 H 0.8747 0.9005 0.2011
C7_4 C 0.86984(5) 0.83763(3) 0.26149(3)
H6_4 H 0.8661 0.8581 0.2978
C8_4 C 0.84381(5) 0.61940(2) 0.39258(3)
H7_4 H 0.8606 0.6077 0.4358
H8_4 H 0.8877 0.6024 0.3669
O2_4 O 0.74677(3) 0.60370(2) 0.370392(19)
C9_4 C 0.72316(5) 0.55474(2) 0.38517(3)
C10_4 C 0.62825(5) 0.54597(3) 0.37998(3)
H9_4 H 0.5853 0.5736 0.3658
C11_4 C 0.59712(4) 0.49518(2) 0.39611(3)
H10_4 H 0.5315 0.4901 0.3940
C12_4 C 0.74833(5) 0.46335(4) 0.41860(3)
H11_4 H 0.7919 0.4360 0.4328
C13_4 C 0.78127(8) 0.51406(4) 0.40208(7)
H12_4 H 0.8466 0.5195 0.4030
C14_4 C 0.76529(4) 0.70881(2) 0.40928(3)
H13_4 H 0.7076 0.6997 0.3818
H14_4 H 0.7730 0.7485 0.4103
O3_4 O 0.76151(3) 0.68735(3) 0.47169(3)
C15_4 C 0.67858(5) 0.67286(4) 0.49051(4)
C16_4 C 0.59500(5) 0.68791(3) 0.45748(3)
H15_4 H 0.5930 0.7092 0.4212
C17_4 C 0.51276(6) 0.67028(3) 0.47979(3)
H16_4 H 0.4551 0.6805 0.4569
C18_4 C 0.59321(5) 0.62634(3) 0.56080(4)
H17_4 H 0.5944 0.6054 0.5973
C19_4 C 0.67770(5) 0.64046(3) 0.54225(3)
H18_4 H 0.7345 0.6282 0.5645
C20_4 C 0.93852(5) 0.69989(4) 0.42707(4)
H19_4 H 0.9356 0.6914 0.4710
H20_4 H 0.9476 0.7393 0.4229
C36_4 C 0.90288(4) 0.99518(2) 0.10389(3)
H34_4 H 0.9685 0.9901 0.1060
N6_4 N 0.84773(5) 0.95247(2) 0.08554(3)
C37_4 C 0.75167(5) 0.96335(4) 0.08140(3)
H35_4 H 0.7081 0.9360 0.0672
B1 B -0.0000 0.42787(9) 0.7500
F3 F 0.02713(9) 0.45965(5) 0.70390(6)
F4 F 0.07235(9) 0.39595(6) 0.77269(5)
B1_2 B 1.0000 0.42787(9) 0.7500
F1 F 0.97287(9) 0.45965(5) 0.79610(6)
F2 F 0.92765(9) 0.39595(6) 0.72731(5)
B1_3 B 0.5000 0.92787(9) 0.7500
F1_2 F 0.47287(9) 0.95965(5) 0.79610(6)
F2_2 F 0.42765(9) 0.89595(6) 0.72731(5)
F3_2 F 0.52713(9) 0.95965(5) 0.70390(6)
F4_2 F 0.57235(9) 0.89595(6) 0.77269(5)
B1_4 B -0.0000 0.57213(9) 0.2500
F1_3 F 0.02713(9) 0.54035(5) 0.20390(6)
F2_3 F 0.07235(9) 0.60405(6) 0.27269(5)
B1_5 B 1.0000 0.57213(9) 0.2500
F3_3 F 0.97287(9) 0.54035(5) 0.29610(6)
F4_3 F 0.92765(9) 0.60405(6) 0.22731(5)
B1_6 B 0.5000 0.07213(9) 0.2500
F1_4 F 0.52713(9) 0.04035(5) 0.20390(6)
F2_4 F 0.57235(9) 0.10405(6) 0.27269(5)
F3_4 F 0.47287(9) 0.04035(5) 0.29610(6)
F4_4 F 0.42765(9) 0.10405(6) 0.22731(5)
B2 B 0.58260(15) 0.30599(8) 0.69310(11)
F5 F 0.49148(12) 0.30022(8) 0.69231(11)
F6 F 0.61297(13) 0.27263(7) 0.65284(8)
F7 F 0.62471(15) 0.29522(12) 0.74877(11)
F8 F 0.60192(15) 0.35619(7) 0.67875(9)
B2_2 B 0.41740(15) 0.30599(8) 0.80690(11)
F5_2 F 0.50852(12) 0.30022(8) 0.80769(11)
F6_2 F 0.38703(13) 0.27263(7) 0.84716(8)
F7_2 F 0.37529(15) 0.29522(12) 0.75123(11)
F8_2 F 0.39808(15) 0.35619(7) 0.82125(9)
B2_3 B 0.08260(15) 0.80599(8) 0.69310(11)
F6_3 F 0.11297(13) 0.77263(7) 0.65284(8)
F7_3 F 0.12471(15) 0.79522(12) 0.74877(11)
F8_3 F 0.10192(15) 0.85619(7) 0.67875(9)
F5_3 F 0.99148(12) 0.80022(8) 0.69231(11)
F5_4 F 0.00852(12) 0.80022(8) 0.80769(11)
B2_4 B 0.91740(15) 0.80599(8) 0.80690(11)
F6_4 F 0.88703(13) 0.77263(7) 0.84716(8)
F7_4 F 0.87529(15) 0.79522(12) 0.75123(11)
F8_4 F 0.89808(15) 0.85619(7) 0.82125(9)
B2_5 B 0.41740(15) 0.69401(8) 0.30690(11)
F5_5 F 0.50852(12) 0.69978(8) 0.30769(11)
F6_5 F 0.38703(13) 0.72737(7) 0.34716(8)
F7_5 F 0.37529(15) 0.70478(12) 0.25123(11)
F8_5 F 0.39808(15) 0.64381(7) 0.32125(9)
B2_6 B 0.58260(15) 0.69401(8) 0.19310(11)
F5_6 F 0.49148(12) 0.69978(8) 0.19231(11)
F6_6 F 0.61297(13) 0.72737(7) 0.15284(8)
F7_6 F 0.62471(15) 0.70478(12) 0.24877(11)
F8_6 F 0.60192(15) 0.64381(7) 0.17875(9)
F5_7 F 0.00852(12) 0.19978(8) 0.30769(11)
B2_7 B 0.91740(15) 0.19401(8) 0.30690(11)
F6_7 F 0.88703(13) 0.22737(7) 0.34716(8)
F7_7 F 0.87529(15) 0.20478(12) 0.25123(11)
F8_7 F 0.89808(15) 0.14381(7) 0.32125(9)
B2_8 B 0.08260(15) 0.19401(8) 0.19310(11)
F6_8 F 0.11297(13) 0.22737(7) 0.15284(8)
F7_8 F 0.12471(15) 0.20478(12) 0.24877(11)
F8_8 F 0.10192(15) 0.14381(7) 0.17875(9)
F5_8 F 0.99148(12) 0.19978(8) 0.19231(11)
loop_
_geom_bond_atom_site_label_1
_geom_bond_atom_site_label_2
_geom_bond_site_symmetry_1
_geom_bond_site_symmetry_2
C24 N4 1_555 1_555
H23 C24 1_555 1_555
Cu5 N4 1_555 1_555
C21 O4 1_555 1_555
C22 C21 1_555 1_555
H21 C22 1_555 1_555
C23 C22 1_555 1_555
H22 C23 1_555 1_555
C25 C21 1_555 1_555
C18 N3 1_555 1_555
H17 C18 1_555 1_555
H18 C19 1_555 1_555
Cu5 N3 1_555 1_555
C18 C19 1_555 1_555
Cu1 N1 1_555 1_555
C1 C2 1_555 1_555
C2 H1 1_555 1_555
H2 C2 1_555 1_555
O1 C2 1_555 1_555
C3 O1 1_555 1_555
C4 C3 1_555 1_555
H3 C4 1_555 1_555
C5 C4 1_555 1_555
H4 C5 1_555 1_555
N1 C5 1_555 1_555
C6 N1 1_555 1_555
H5 C6 1_555 1_555
C7 C3 1_555 1_555
H6 C7 1_555 1_555
C8 C1 1_555 1_555
H7 C8 1_555 1_555
H8 C8 1_555 1_555
O2 C8 1_555 1_555
C9 O2 1_555 1_555
C10 C9 1_555 1_555
H9 C10 1_555 1_555
C11 C10 1_555 1_555
H10 C11 1_555 1_555
N2 C11 1_555 1_555
C12 N2 1_555 1_555
H11 C12 1_555 1_555
C13 C9 1_555 1_555
H12 C13 1_555 1_555
C14 C1 1_555 1_555
H13 C14 1_555 1_555
H14 C14 1_555 1_555
O3 C14 1_555 1_555
C15 O3 1_555 1_555
C16 C15 1_555 1_555
H15 C16 1_555 1_555
C17 C16 1_555 1_555
H16 C17 1_555 1_555
C20 C1 1_555 1_555
H19 C20 1_555 1_555
H20 C20 1_555 1_555
Cu3 N2 1_555 1_555
H34 C36 1_555 1_555
N6 Cu1 1_555 1_555
C37 N6 1_555 1_555
H35 C37 1_555 1_555
N12 Cu1 1_555 1_555
C6 C7 1_555 1_555
C12 C13 1_555 1_555
C36 N6 1_555 1_555
Cu3 N5 1_555 1_555
Cu6 N11 1_555 1_555
C26 C27 1_555 1_555
C27 H25 1_555 1_555
H26 C27 1_555 1_555
O5 C27 1_555 1_555
C28 O5 1_555 1_555
C29 C28 1_555 1_555
H27 C29 1_555 1_555
C30 C29 1_555 1_555
H28 C30 1_555 1_555
N5 C30 1_555 1_555
C31 N5 1_555 1_555
H29 C31 1_555 1_555
C32 C28 1_555 1_555
H30 C32 1_555 1_555
C33 C26 1_555 1_555
H31 C33 1_555 1_555
H32 C33 1_555 1_555
O6 C33 1_555 1_555
C34 O6 1_555 1_555
C35 C34 1_555 1_555
H33 C35 1_555 1_555
C38 C34 1_555 1_555
H36 C38 1_555 1_555
C39 C26 1_555 1_555
H37 C39 1_555 1_555
H38 C39 1_555 1_555
O7 C39 1_555 1_555
C40 O7 1_555 1_555
C41 C40 1_555 1_555
H39 C41 1_555 1_555
C42 C41 1_555 1_555
N8 C42 1_555 1_555
N10 Cu3 1_555 1_555
C43 N8 1_555 1_555
H41 C43 1_555 1_555
C44 C40 1_555 1_555
H42 C44 1_555 1_555
C45 C26 1_555 1_555
H43 C45 1_555 1_555
H44 C45 1_555 1_555
O8 C45 1_555 1_555
C46 O8 1_555 1_555
C47 C46 1_555 1_555
H45 C47 1_555 1_555
C48 C47 1_555 1_555
H46 C48 1_555 1_555
N11 C48 1_555 1_555
N13 Cu3 1_555 1_555
C49 N11 1_555 1_555
H47 C49 1_555 1_555
C50 C46 1_555 1_555
H48 C50 1_555 1_555
C31 C32 1_555 1_555
C43 C44 1_555 1_555
C49 C50 1_555 1_555
Cu5 N5_2 1_555 1_555
C26_2 C27_2 1_555 1_555
C27_2 H25_2 1_555 1_555
H26_2 C27_2 1_555 1_555
O5_2 C27_2 1_555 1_555
C28_2 O5_2 1_555 1_555
C29_2 C28_2 1_555 1_555
H27_2 C29_2 1_555 1_555
C30_2 C29_2 1_555 1_555
H28_2 C30_2 1_555 1_555
N5_2 C30_2 1_555 1_555
C31_2 N5_2 1_555 1_555
H29_2 C31_2 1_555 1_555
C32_2 C28_2 1_555 1_555
H30_2 C32_2 1_555 1_555
C33_2 C26_2 1_555 1_555
H31_2 C33_2 1_555 1_555
H32_2 C33_2 1_555 1_555
O6_2 C33_2 1_555 1_555
C34_2 O6_2 1_555 1_555
C35_2 C34_2 1_555 1_555
H33_2 C35_2 1_555 1_555
N7 Cu5 1_555 1_555
C38_2 C34_2 1_555 1_555
H36_2 C38_2 1_555 1_555
C39_2 C26_2 1_555 1_555
H37_2 C39_2 1_555 1_555
H38_2 C39_2 1_555 1_555
O7_2 C39_2 1_555 1_555
C40_2 O7_2 1_555 1_555
C41_2 C40_2 1_555 1_555
H39_2 C41_2 1_555 1_555
C42_2 C41_2 1_555 1_555
N9 C42_2 1_555 1_555
C43_2 N9 1_555 1_555
H41_2 C43_2 1_555 1_555
C44_2 C40_2 1_555 1_555
H42_2 C44_2 1_555 1_555
C45_2 C26_2 1_555 1_555
H43_2 C45_2 1_555 1_555
H44_2 C45_2 1_555 1_555
O8_2 C45_2 1_555 1_555
C46_2 O8_2 1_555 1_555
C47_2 C46_2 1_555 1_555
H45_2 C47_2 1_555 1_555
C48_2 C47_2 1_555 1_555
H46_2 C48_2 1_555 1_555
N12 C48_2 1_555 1_555
C49_2 N12 1_555 1_555
H47_2 C49_2 1_555 1_555
C50_2 C46_2 1_555 1_555
H48_2 C50_2 1_555 1_555
C31_2 C32_2 1_555 1_555
C43_2 C44_2 1_555 1_555
C49_2 C50_2 1_555 1_555
Cu6 N1_2 1_555 1_555
C1_2 C2_2 1_555 1_555
C2_2 H1_2 1_555 1_555
H2_2 C2_2 1_555 1_555
O1_2 C2_2 1_555 1_555
C3_2 O1_2 1_555 1_555
C4_2 C3_2 1_555 1_555
H3_2 C4_2 1_555 1_555
C5_2 C4_2 1_555 1_555
H4_2 C5_2 1_555 1_555
N1_2 C5_2 1_555 1_555
C6_2 N1_2 1_555 1_555
H5_2 C6_2 1_555 1_555
C7_2 C3_2 1_555 1_555
H6_2 C7_2 1_555 1_555
C8_2 C1_2 1_555 1_555
H7_2 C8_2 1_555 1_555
H8_2 C8_2 1_555 1_555
O2_2 C8_2 1_555 1_555
C9_2 O2_2 1_555 1_555
C10_2 C9_2 1_555 1_555
H9_2 C10_2 1_555 1_555
C11_2 C10_2 1_555 1_555
H10_2 C11_2 1_555 1_555
N7 C11_2 1_555 1_555
C12_2 N7 1_555 1_555
H11_2 C12_2 1_555 1_555
C13_2 C9_2 1_555 1_555
H12_2 C13_2 1_555 1_555
C14_2 C1_2 1_555 1_555
H13_2 C14_2 1_555 1_555
H14_2 C14_2 1_555 1_555
O3_2 C14_2 1_555 1_555
C15_2 O3_2 1_555 1_555
C16_2 C15_2 1_555 1_555
H15_2 C16_2 1_555 1_555
C17_2 C16_2 1_555 1_555
H16_2 C17_2 1_555 1_555
C20_2 C1_2 1_555 1_555
H19_2 C20_2 1_555 1_555
H20_2 C20_2 1_555 1_555
H34_2 C36_2 1_555 1_555
N6_2 Cu6 1_555 1_555
C37_2 N6_2 1_555 1_555
H35_2 C37_2 1_555 1_555
C6_2 C7_2 1_555 1_555
C12_2 C13_2 1_555 1_555
C36_2 N6_2 1_555 1_555
C18_2 N10 1_555 1_555
H17_2 C18_2 1_555 1_555
H18_2 C19_2 1_555 1_555
C18_2 C19_2 1_555 1_555
C21_2 O4_2 1_555 1_555
C22_2 C21_2 1_555 1_555
H21_2 C22_2 1_555 1_555
C23_2 C22_2 1_555 1_555
H22_2 C23_2 1_555 1_555
C25_2 C21_2 1_555 1_555
C24_2 N13 1_555 1_555
H23_2 C24_2 1_555 1_555
Cu1_2 N1_3 1_555 1_555
C1_3 C2_3 1_555 1_555
C2_3 H1_3 1_555 1_555
H2_3 C2_3 1_555 1_555
O1_3 C2_3 1_555 1_555
C3_3 O1_3 1_555 1_555
C4_3 C3_3 1_555 1_555
H3_3 C4_3 1_555 1_555
C5_3 C4_3 1_555 1_555
H4_3 C5_3 1_555 1_555
N1_3 C5_3 1_555 1_555
C6_3 N1_3 1_555 1_555
H5_3 C6_3 1_555 1_555
C7_3 C3_3 1_555 1_555
H6_3 C7_3 1_555 1_555
C8_3 C1_3 1_555 1_555
H7_3 C8_3 1_555 1_555
H8_3 C8_3 1_555 1_555
O2_3 C8_3 1_555 1_555
C9_3 O2_3 1_555 1_555
C10_3 C9_3 1_555 1_555
H9_3 C10_3 1_555 1_555
C11_3 C10_3 1_555 1_555
H10_3 C11_3 1_555 1_555
N2_2 C11_3 1_555 1_555
C12_3 N2_2 1_555 1_555
H11_3 C12_3 1_555 1_555
C13_3 C9_3 1_555 1_555
H12_3 C13_3 1_555 1_555
C14_3 C1_3 1_555 1_555
H13_3 C14_3 1_555 1_555
H14_3 C14_3 1_555 1_555
O3_3 C14_3 1_555 1_555
C15_3 O3_3 1_555 1_555
C16_3 C15_3 1_555 1_555
H15_3 C16_3 1_555 1_555
C17_3 C16_3 1_555 1_555
H16_3 C17_3 1_555 1_555
N3_2 C17_3 1_555 1_555
C18_3 N3_2 1_555 1_555
H17_3 C18_3 1_555 1_555
C19_3 C15_3 1_555 1_555
H18_3 C19_3 1_555 1_555
C20_3 C1_3 1_555 1_555
H19_3 C20_3 1_555 1_555
H20_3 C20_3 1_555 1_555
Cu3_2 N2_2 1_555 1_555
Cu4 N3_2 1_555 1_555
H34_3 C36_3 1_555 1_555
N6_3 Cu1_2 1_555 1_555
C37_3 N6_3 1_555 1_555
H35_3 C37_3 1_555 1_555
N12_2 Cu1_2 1_555 1_555
C6_3 C7_3 1_555 1_555
C12_3 C13_3 1_555 1_555
C18_3 C19_3 1_555 1_555
C36_3 N6_3 1_555 1_555
Cu7 N11_2 1_555 1_555
C43_3 N8_2 1_555 1_555
H41_3 C43_3 1_555 1_555
H42_3 C44_3 1_555 1_555
C49_3 N11_2 1_555 1_555
H47_3 C49_3 1_555 1_555
C43_3 C44_3 1_555 1_555
Cu3_2 N5_3 1_555 1_555
C26_3 C27_3 1_555 1_555
C27_3 H25_3 1_555 1_555
H26_3 C27_3 1_555 1_555
O5_3 C27_3 1_555 1_555
C28_3 O5_3 1_555 1_555
C29_3 C28_3 1_555 1_555
H27_3 C29_3 1_555 1_555
C30_3 C29_3 1_555 1_555
H28_3 C30_3 1_555 1_555
N5_3 C30_3 1_555 1_555
C31_3 N5_3 1_555 1_555
H29_3 C31_3 1_555 1_555
C32_3 C28_3 1_555 1_555
H30_3 C32_3 1_555 1_555
C33_3 C26_3 1_555 1_555
H31_3 C33_3 1_555 1_555
H32_3 C33_3 1_555 1_555
O6_3 C33_3 1_555 1_555
C34_3 O6_3 1_555 1_555
C35_3 C34_3 1_555 1_555
H33_3 C35_3 1_555 1_555
C38_3 C34_3 1_555 1_555
H36_3 C38_3 1_555 1_555
C39_3 C26_3 1_555 1_555
H37_3 C39_3 1_555 1_555
H38_3 C39_3 1_555 1_555
O7_3 C39_3 1_555 1_555
C40_3 O7_3 1_555 1_555
C41_3 C40_3 1_555 1_555
H39_3 C41_3 1_555 1_555
C42_3 C41_3 1_555 1_555
N10_2 Cu3_2 1_555 1_555
C45_3 C26_3 1_555 1_555
H43_3 C45_3 1_555 1_555
H44_3 C45_3 1_555 1_555
O8_3 C45_3 1_555 1_555
C46_3 O8_3 1_555 1_555
C47_3 C46_3 1_555 1_555
H45_3 C47_3 1_555 1_555
C48_3 C47_3 1_555 1_555
H46_3 C48_3 1_555 1_555
N13_2 Cu3_2 1_555 1_555
C50_3 C46_3 1_555 1_555
C31_3 C32_3 1_555 1_555
C21_3 O4_3 1_555 1_555
C22_3 C21_3 1_555 1_555
H21_3 C22_3 1_555 1_555
C23_3 C22_3 1_555 1_555
H22_3 C23_3 1_555 1_555
N4_2 C23_3 1_555 1_555
C24_3 N4_2 1_555 1_555
H23_3 C24_3 1_555 1_555
C25_3 C21_3 1_555 1_555
H24_3 C25_3 1_555 1_555
Cu4 N4_2 1_555 1_555
C24_3 C25_3 1_555 1_555
C21_4 O4_4 1_555 1_555
C22_4 C21_4 1_555 1_555
H21_4 C22_4 1_555 1_555
C23_4 C22_4 1_555 1_555
H22_4 C23_4 1_555 1_555
N13_2 C23_4 1_555 1_555
C24_4 N13_2 1_555 1_555
H23_4 C24_4 1_555 1_555
C25_4 C21_4 1_555 1_555
H24_4 C25_4 1_555 1_555
C24_4 C25_4 1_555 1_555
Cu4 N5_4 1_555 1_555
C26_4 C27_4 1_555 1_555
C27_4 H25_4 1_555 1_555
H26_4 C27_4 1_555 1_555
O5_4 C27_4 1_555 1_555
C28_4 O5_4 1_555 1_555
C29_4 C28_4 1_555 1_555
H27_4 C29_4 1_555 1_555
C30_4 C29_4 1_555 1_555
H28_4 C30_4 1_555 1_555
N5_4 C30_4 1_555 1_555
C31_4 N5_4 1_555 1_555
H29_4 C31_4 1_555 1_555
C32_4 C28_4 1_555 1_555
H30_4 C32_4 1_555 1_555
C33_4 C26_4 1_555 1_555
H31_4 C33_4 1_555 1_555
H32_4 C33_4 1_555 1_555
O6_4 C33_4 1_555 1_555
C34_4 O6_4 1_555 1_555
C35_4 C34_4 1_555 1_555
H33_4 C35_4 1_555 1_555
N7_2 Cu4 1_555 1_555
C38_4 C34_4 1_555 1_555
H36_4 C38_4 1_555 1_555
C39_4 C26_4 1_555 1_555
H37_4 C39_4 1_555 1_555
H38_4 C39_4 1_555 1_555
O7_4 C39_4 1_555 1_555
C40_4 O7_4 1_555 1_555
C41_4 C40_4 1_555 1_555
H39_4 C41_4 1_555 1_555
C42_4 C41_4 1_555 1_555
C45_4 C26_4 1_555 1_555
H43_4 C45_4 1_555 1_555
H44_4 C45_4 1_555 1_555
O8_4 C45_4 1_555 1_555
C46_4 O8_4 1_555 1_555
C47_4 C46_4 1_555 1_555
H45_4 C47_4 1_555 1_555
C48_4 C47_4 1_555 1_555
H46_4 C48_4 1_555 1_555
C50_4 C46_4 1_555 1_555
C31_4 C32_4 1_555 1_555
C43_4 N9_2 1_555 1_555
H41_4 C43_4 1_555 1_555
H42_4 C44_4 1_555 1_555
C49_4 N12_2 1_555 1_555
H47_4 C49_4 1_555 1_555
C43_4 C44_4 1_555 1_555
Cu7 N1_4 1_555 1_555
C1_4 C2_4 1_555 1_555
C2_4 H1_4 1_555 1_555
H2_4 C2_4 1_555 1_555
O1_4 C2_4 1_555 1_555
C3_4 O1_4 1_555 1_555
C4_4 C3_4 1_555 1_555
H3_4 C4_4 1_555 1_555
C5_4 C4_4 1_555 1_555
H4_4 C5_4 1_555 1_555
N1_4 C5_4 1_555 1_555
C6_4 N1_4 1_555 1_555
H5_4 C6_4 1_555 1_555
C7_4 C3_4 1_555 1_555
H6_4 C7_4 1_555 1_555
C8_4 C1_4 1_555 1_555
H7_4 C8_4 1_555 1_555
H8_4 C8_4 1_555 1_555
O2_4 C8_4 1_555 1_555
C9_4 O2_4 1_555 1_555
C10_4 C9_4 1_555 1_555
H9_4 C10_4 1_555 1_555
C11_4 C10_4 1_555 1_555
H10_4 C11_4 1_555 1_555
N7_2 C11_4 1_555 1_555
C12_4 N7_2 1_555 1_555
H11_4 C12_4 1_555 1_555
C13_4 C9_4 1_555 1_555
H12_4 C13_4 1_555 1_555
C14_4 C1_4 1_555 1_555
H13_4 C14_4 1_555 1_555
H14_4 C14_4 1_555 1_555
O3_4 C14_4 1_555 1_555
C15_4 O3_4 1_555 1_555
C16_4 C15_4 1_555 1_555
H15_4 C16_4 1_555 1_555
C17_4 C16_4 1_555 1_555
H16_4 C17_4 1_555 1_555
N10_2 C17_4 1_555 1_555
C18_4 N10_2 1_555 1_555
H17_4 C18_4 1_555 1_555
C19_4 C15_4 1_555 1_555
H18_4 C19_4 1_555 1_555
C20_4 C1_4 1_555 1_555
H19_4 C20_4 1_555 1_555
H20_4 C20_4 1_555 1_555
H34_4 C36_4 1_555 1_555
N6_4 Cu7 1_555 1_555
C37_4 N6_4 1_555 1_555
H35_4 C37_4 1_555 1_555
C6_4 C7_4 1_555 1_555
C12_4 C13_4 1_555 1_555
C18_4 C19_4 1_555 1_555
C36_4 N6_4 1_555 1_555
F3 B1 1_555 1_555
F4 B1 1_555 1_555
B1_2 F1 1_555 1_555
F2 B1_2 1_555 1_555
B1_3 F1_2 1_555 1_555
F2_2 B1_3 1_555 1_555
F3_2 B1_3 1_555 1_555
F4_2 B1_3 1_555 1_555
B1_4 F1_3 1_555 1_555
F2_3 B1_4 1_555 1_555
F3_3 B1_5 1_555 1_555
F4_3 B1_5 1_555 1_555
B1_6 F1_4 1_555 1_555
F2_4 B1_6 1_555 1_555
F3_4 B1_6 1_555 1_555
F4_4 B1_6 1_555 1_555
B2 F5 1_555 1_555
F6 B2 1_555 1_555
F7 B2 1_555 1_555
F8 B2 1_555 1_555
B2_2 F5_2 1_555 1_555
F6_2 B2_2 1_555 1_555
F7_2 B2_2 1_555 1_555
F8_2 B2_2 1_555 1_555
F6_3 B2_3 1_555 1_555
F7_3 B2_3 1_555 1_555
F8_3 B2_3 1_555 1_555
F6_4 B2_4 1_555 1_555
F7_4 B2_4 1_555 1_555
F8_4 B2_4 1_555 1_555
B2_5 F5_5 1_555 1_555
F6_5 B2_5 1_555 1_555
F7_5 B2_5 1_555 1_555
F8_5 B2_5 1_555 1_555
B2_6 F5_6 1_555 1_555
F6_6 B2_6 1_555 1_555
F7_6 B2_6 1_555 1_555
F8_6 B2_6 1_555 1_555
F6_7 B2_7 1_555 1_555
F7_7 B2_7 1_555 1_555
F8_7 B2_7 1_555 1_555
F6_8 B2_8 1_555 1_555
F7_8 B2_8 1_555 1_555
F8_8 B2_8 1_555 1_555

#END
