
###############################################################################
#
# This file contains modified crystal structure data generated from the
# MOF subset of the Cambridge Structural Database (CSD) v543 
# hosted by the Cambridge Crystallographic Data Centre (CCDC).
#
# This work is licensed under the Creative Commons
# Attribution-NonCommercial-ShareAlike 4.0 International License.
# To view a copy of this license, visit
# http://creativecommons.org/licenses/by-nc-sa/4.0/
# or send a letter to
# Creative Commons, PO Box 1866, Mountain View, CA 94042, USA.
#
# CIF created using the CSD Python API on 29 September 2022
# The structure has been converted into the P1 space group
# The structure has a 3D framework
# The original CSD entry MOYJUI is in the monoclinic crystal system
# The framework has been calculated to contain at least 10.0% void space
# The void calculation uses a probe of radius 1.32A, grid spacing 0.4
#
###############################################################################

data_MOYJUI
_chemical_formula_moiety         '(C272 H192 Cd8 N48 O56)n'
_symmetry_cell_setting           triclinic
_symmetry_space_group_name_H-M   'P 1'
_symmetry_Int_Tables_number      1
_space_group_name_Hall           'P 1'
loop_
_symmetry_equiv_pos_site_id
_symmetry_equiv_pos_as_xyz
1 x,y,z
_cell_length_a                   40.7755(7)
_cell_length_b                   8.8797(2)
_cell_length_c                   29.8769(5)
_cell_angle_alpha                90
_cell_angle_beta                 109.7340(10)
_cell_angle_gamma                90
_cell_volume                     10182.3
loop_
_atom_site_label
_atom_site_type_symbol
_atom_site_fract_x
_atom_site_fract_y
_atom_site_fract_z
Cd4 Cd 0.72708(2) 0.62096(4) 0.03247(2)
Cd1 Cd 0.72708(2) 0.37904(4) 0.53247(2)
O1 O 0.69139(8) 0.5387(4) 0.95865(11)
O2 O 0.73034(8) 0.4012(4) 0.61362(11)
O3 O 0.69141(8) 0.5432(4) 0.56145(10)
O4 O 0.73303(9) 0.6827(4) 0.95070(11)
N1 N 0.68431(10) 0.1999(5) 0.52935(13)
C1 C 0.68678(11) 0.6085(5) 0.88041(15)
C2 C 0.70427(12) 0.4860(5) 0.60258(15)
C3 C 0.68668(11) 0.5170(5) 0.63842(15)
C4 C 0.66135(12) 0.6273(6) 0.62996(15)
H1 H 0.655199 0.683872 0.601320
C5 C 0.65957(12) 0.0322(5) 0.57203(17)
C6 C 0.63727(12) 0.5395(6) 0.81233(17)
H3 H 0.614841 0.495153 0.799269
C8 C 0.69522(12) 0.4315(6) 0.67981(17)
H5 H 0.712270 0.354314 0.685528
C9 C 0.62840(12) 0.0260(6) 0.53408(17)
C11 C 0.70475(12) 0.6095(5) 0.93274(15)
C12 C 0.68651(12) 0.1194(6) 0.56806(17)
H6 H 0.707703 0.122387 0.594218
C13 C 0.62597(13) 0.1061(6) 0.49304(18)
H7 H 0.605320 0.102623 0.466026
C15 C 0.64484(12) 0.6565(6) 0.66258(15)
H8 H 0.627692 0.733356 0.656754
C17 C 0.65374(12) 0.5719(6) 0.70383(16)
C18 C 0.65339(12) 0.6000(6) 0.78292(16)
C19 C 0.67868(13) 0.4596(7) 0.71280(17)
H9 H 0.684460 0.402106 0.741241
C22 C 0.68581(13) 0.6683(7) 0.80121(17)
H10 H 0.696494 0.711008 0.780400
C25 C 0.65375(12) 0.5433(6) 0.86096(16)
H13 H 0.642610 0.501476 0.881349
C28 C 0.65443(12) 0.1915(6) 0.49243(17)
H16 H 0.652606 0.246611 0.464444
C29 C 0.70246(12) 0.6739(6) 0.84987(16)
H17 H 0.724488 0.721958 0.862641
O7 O 0.63503(9) 0.5978(5) 0.73426(11)
Cd3 Cd 0.77292(2) 0.87904(4) 0.96753(2)
O8 O 0.69139(8) 0.4613(4) 0.45865(11)
O9 O 0.76697(9) 0.1827(4) 0.54930(11)
O10 O 0.73303(9) 0.3173(4) 0.45070(11)
N7 N 0.77427(10) 0.5339(5) 0.54264(13)
N2 N 0.43039(10) 0.9261(5) 0.99727(15)
O5 O 0.39667(9) 0.8712(5) 0.92149(14)
N3 N 0.72573(10) 0.0339(5) 0.95736(13)
O6 O 0.60573(10) 0.2479(5) 0.91097(14)
N4 N 0.63138(10) 0.3572(5) 0.98317(15)
N5 N 0.45789(10) 0.8448(5) 0.99217(16)
N6 N 0.60103(10) 0.4308(5) 0.98069(15)
H2 H 0.337681 0.977126 0.899671
C7 C 0.66816(14) 0.1183(6) 0.91209(17)
H4 H 0.649660 0.120819 0.882447
C14 C 0.66513(12) 0.1904(6) 0.95143(16)
C20 C 0.63112(13) 0.2669(6) 0.94621(18)
C21 C 0.40071(12) 0.9335(6) 0.95937(18)
C23 C 0.72270(12) 0.1057(5) 0.99525(17)
C24 C 0.69900(13) 0.0415(6) 0.91684(17)
C26 C 0.69315(12) 0.1842(5) 0.99399(16)
C33 C 0.54219(17) 0.5975(10) 0.9823(3)
H21 H 0.539898 0.539911 0.954650
C34 C 0.51398(17) 0.6782(10) 0.9852(3)
H22 H 0.492511 0.674714 0.959523
H12 H 0.701007 0.992122 0.889685
O6_2 O 0.89427(10) 0.7479(5) 0.58903(14)
N4_2 N 0.86862(10) 0.8572(5) 0.51683(15)
N6_2 N 0.89897(10) 0.9308(5) 0.51931(15)
C7_2 C 0.83184(14) 0.6183(6) 0.58791(17)
H4_2 H 0.850340 0.620819 0.617553
C14_2 C 0.83487(12) 0.6904(6) 0.54857(16)
C20_2 C 0.86888(13) 0.7669(6) 0.55379(18)
C23_2 C 0.77730(12) 0.6057(5) 0.50475(17)
H11 H 0.758243 0.602504 0.475703
C24_2 C 0.80100(13) 0.5415(6) 0.58316(17)
H12_2 H 0.798993 0.492122 0.610315
C26_2 C 0.80685(12) 0.6842(5) 0.50601(16)
H14 H 0.808059 0.733096 0.478328
H23 H 0.8476(11) 0.879(7) 0.4886(16)
O1_2 O 0.80861(8) 0.0387(4) 0.54135(11)
O3_2 O 0.80859(8) 0.0432(4) 0.93855(10)
C1_2 C 0.81322(11) 0.1085(5) 0.61959(15)
C3_2 C 0.81332(11) 0.0170(5) 0.86158(15)
C4_2 C 0.83865(12) 0.1273(6) 0.87004(15)
H1_2 H 0.844801 0.183872 0.898680
C6_2 C 0.86273(12) 0.0395(6) 0.68767(17)
C11_2 C 0.79525(12) 0.1095(5) 0.56726(15)
C15_2 C 0.85516(12) 0.1565(6) 0.83742(15)
H8_2 H 0.872308 0.233356 0.843246
C17_2 C 0.84626(12) 0.0719(6) 0.79617(16)
C18_2 C 0.84661(12) 0.1000(6) 0.71708(16)
C22_2 C 0.81419(13) 0.1683(7) 0.69879(17)
H10_2 H 0.803506 0.211008 0.719600
C25_2 C 0.84625(12) 0.0433(6) 0.63904(16)
H13_2 H 0.857390 0.001476 0.618651
C29_2 C 0.79754(12) 0.1739(6) 0.65013(16)
H17_2 H 0.775512 0.221958 0.637359
O7_2 O 0.86497(9) 0.0978(5) 0.76574(11)
Cd4_2 Cd 0.77292(2) 0.12096(4) 0.46753(2)
C13_2 C 0.87403(13) 0.6061(6) 0.00696(18)
H7_2 H 0.894680 0.602623 0.033974
C28_2 C 0.84557(12) 0.6915(6) 0.00757(17)
H16_2 H 0.847394 0.746611 0.035556
C31 C 0.98637(13) 0.3477(6) 0.02767(19)
H19 H 0.987939 0.403399 0.055461
H24 H 0.9325(14) 0.482(6) 0.0265(13)
O8_2 O 0.80861(8) 0.9613(4) 0.04135(11)
O10_2 O 0.76697(9) 0.8173(4) 0.04930(11)
O2_2 O 0.76966(8) 0.9012(4) 0.88638(11)
N1_2 N 0.81569(10) 0.6999(5) 0.97065(13)
N2_2 N 0.93039(10) 0.4261(5) 0.99727(15)
O5_2 O 0.89667(9) 0.3712(5) 0.92149(14)
N5_2 N 0.95789(10) 0.3448(5) 0.99217(16)
C2_2 C 0.79573(12) 0.9860(5) 0.89742(15)
C5_2 C 0.84043(12) 0.5322(5) 0.92797(17)
H2_2 H 0.837681 0.477126 0.899671
H3_2 H 0.885159 0.995153 0.700731
C8_2 C 0.80478(12) 0.9315(6) 0.82019(17)
H5_2 H 0.787730 0.854314 0.814472
C9_2 C 0.87160(12) 0.5260(6) 0.96592(17)
C12_2 C 0.81349(12) 0.6194(6) 0.93194(17)
H6_2 H 0.792297 0.622387 0.905782
C19_2 C 0.82132(13) 0.9596(7) 0.78720(17)
H9_2 H 0.815540 0.902106 0.758759
C21_2 C 0.90071(12) 0.4335(6) 0.95937(18)
H22_2 H 0.992511 0.174714 0.959523
H12_3 H 0.701007 0.007878 0.389685
N2_3 N 0.43039(10) 0.0739(5) 0.49727(15)
O5_3 O 0.39667(9) 0.1288(5) 0.42149(14)
N3_2 N 0.72573(10) 0.9661(5) 0.45736(13)
O6_3 O 0.60573(10) 0.7521(5) 0.41097(14)
N4_3 N 0.63138(10) 0.6428(5) 0.48317(15)
N5_3 N 0.45789(10) 0.1552(5) 0.49217(16)
N6_3 N 0.60103(10) 0.5692(5) 0.48069(15)
H2_3 H 0.337681 0.022874 0.399671
C7_3 C 0.66816(14) 0.8817(6) 0.41209(17)
H4_3 H 0.649660 0.879181 0.382447
C10 C 0.51653(12) 0.2367(6) 0.52469(17)
C14_3 C 0.66513(12) 0.8096(6) 0.45143(16)
C16 C 0.57335(12) 0.4004(6) 0.51883(18)
C20_3 C 0.63112(13) 0.7331(6) 0.44621(18)
C21_3 C 0.40071(12) 0.0665(6) 0.45937(18)
C23_3 C 0.72270(12) 0.8943(5) 0.49525(17)
H11_2 H 0.741757 0.897496 0.524297
C24_3 C 0.69900(13) 0.9585(6) 0.41684(17)
C26_3 C 0.69315(12) 0.8158(5) 0.49399(16)
H14_2 H 0.691941 0.766904 0.521672
C27 C 0.60352(12) 0.4845(6) 0.51640(17)
H15 H 0.625191 0.476237 0.541550
C30 C 0.57612(14) 0.3127(8) 0.5581(2)
H18 H 0.597761 0.306875 0.583384
C31_2 C 0.48637(13) 0.1523(6) 0.52767(19)
H19_2 H 0.487939 0.096601 0.555461
C32 C 0.54774(14) 0.2332(7) 0.5610(2)
H20 H 0.549998 0.175395 0.588601
C33_2 C 0.54219(17) 0.4025(10) 0.4823(3)
H21_2 H 0.539898 0.460089 0.454650
C34_2 C 0.51398(17) 0.3218(10) 0.4852(3)
H22_3 H 0.492511 0.325286 0.459523
H23_2 H 0.6524(11) 0.621(7) 0.5114(16)
H24_2 H 0.4325(14) 0.018(6) 0.5265(13)
O2_3 O 0.73034(8) 0.5988(4) 0.11362(11)
O3_3 O 0.69141(8) 0.4568(4) 0.06145(10)
N1_3 N 0.68431(10) 0.8001(5) 0.02935(13)
C1_3 C 0.68678(11) 0.3915(5) 0.38041(15)
C2_3 C 0.70427(12) 0.5140(5) 0.10258(15)
C3_3 C 0.68668(11) 0.4830(5) 0.13842(15)
C4_3 C 0.66135(12) 0.3727(6) 0.12996(15)
H1_3 H 0.655199 0.316128 0.101320
C5_3 C 0.65957(12) 0.9678(5) 0.07203(17)
C6_3 C 0.63727(12) 0.4605(6) 0.31233(17)
H3_3 H 0.614841 0.504847 0.299269
C8_3 C 0.69522(12) 0.5685(6) 0.17981(17)
H5_3 H 0.712270 0.645686 0.185528
C9_3 C 0.62840(12) 0.9740(6) 0.03408(17)
C11_3 C 0.70475(12) 0.3905(5) 0.43274(15)
C12_3 C 0.68651(12) 0.8806(6) 0.06806(17)
H6_3 H 0.707703 0.877613 0.094218
C15_3 C 0.64484(12) 0.3435(6) 0.16258(15)
H8_3 H 0.627692 0.266644 0.156754
C17_3 C 0.65374(12) 0.4281(6) 0.20383(16)
C18_3 C 0.65339(12) 0.4000(6) 0.28292(16)
C19_3 C 0.67868(13) 0.5404(7) 0.21280(17)
H9_3 H 0.684460 0.597894 0.241241
C22_3 C 0.68581(13) 0.3317(7) 0.30121(17)
H10_3 H 0.696494 0.288992 0.280400
C25_3 C 0.65375(12) 0.4567(6) 0.36096(16)
H13_3 H 0.642610 0.498524 0.381349
C29_3 C 0.70246(12) 0.3261(6) 0.34987(16)
H17_3 H 0.724488 0.278042 0.362641
O7_3 O 0.63503(9) 0.4022(5) 0.23426(11)
N7_2 N 0.77427(10) 0.4661(5) 0.04264(13)
C13_3 C 0.62597(13) 0.8939(6) 0.99304(18)
H7_3 H 0.605320 0.897377 0.966026
C28_3 C 0.65443(12) 0.8085(6) 0.99243(17)
H16_3 H 0.652606 0.753389 0.964444
O2_4 O 0.76966(8) 0.0988(4) 0.38638(11)
N1_4 N 0.81569(10) 0.3001(5) 0.47065(13)
N2_4 N 0.93039(10) 0.5739(5) 0.49727(15)
O5_4 O 0.89667(9) 0.6288(5) 0.42149(14)
N5_4 N 0.95789(10) 0.6552(5) 0.49217(16)
C2_4 C 0.79573(12) 0.0140(5) 0.39742(15)
C5_4 C 0.84043(12) 0.4678(5) 0.42797(17)
H2_4 H 0.837681 0.522874 0.399671
H3_4 H 0.885159 0.004847 0.200731
C8_4 C 0.80478(12) 0.0685(6) 0.32019(17)
H5_4 H 0.787730 0.145686 0.314472
C9_4 C 0.87160(12) 0.4740(6) 0.46592(17)
C12_4 C 0.81349(12) 0.3806(6) 0.43194(17)
H6_4 H 0.792297 0.377613 0.405782
C13_4 C 0.87403(13) 0.3939(6) 0.50696(18)
H7_4 H 0.894680 0.397377 0.533974
C19_4 C 0.82132(13) 0.0404(7) 0.28720(17)
H9_4 H 0.815540 0.097894 0.258759
C21_4 C 0.90071(12) 0.5665(6) 0.45937(18)
C28_4 C 0.84557(12) 0.3085(6) 0.50757(17)
H16_4 H 0.847394 0.253389 0.535556
C31_3 C 0.98637(13) 0.6523(6) 0.52767(19)
H19_3 H 0.987939 0.596601 0.555461
H22_4 H 0.992511 0.825286 0.459523
H24_3 H 0.9325(14) 0.518(6) 0.5265(13)
O3_4 O 0.80859(8) 0.9568(4) 0.43855(10)
C1_4 C 0.81322(11) 0.8915(5) 0.11959(15)
C3_4 C 0.81332(11) 0.9830(5) 0.36158(15)
C4_4 C 0.83865(12) 0.8727(6) 0.37004(15)
H1_4 H 0.844801 0.816128 0.398680
C6_4 C 0.86273(12) 0.9605(6) 0.18767(17)
C11_4 C 0.79525(12) 0.8905(5) 0.06726(15)
C15_4 C 0.85516(12) 0.8435(6) 0.33742(15)
H8_4 H 0.872308 0.766644 0.343246
C17_4 C 0.84626(12) 0.9281(6) 0.29617(16)
C18_4 C 0.84661(12) 0.9000(6) 0.21708(16)
C22_4 C 0.81419(13) 0.8317(7) 0.19879(17)
H10_4 H 0.803506 0.788992 0.219600
C25_4 C 0.84625(12) 0.9567(6) 0.13904(16)
H13_4 H 0.857390 0.998524 0.118651
C29_4 C 0.79754(12) 0.8261(6) 0.15013(16)
H17_4 H 0.775512 0.778042 0.137359
O7_4 O 0.86497(9) 0.9022(5) 0.26574(11)
O6_4 O 0.89427(10) 0.2521(5) 0.08903(14)
N4_4 N 0.86862(10) 0.1428(5) 0.01683(15)
N6_4 N 0.89897(10) 0.0692(5) 0.01931(15)
C7_4 C 0.83184(14) 0.3817(6) 0.08791(17)
H4_4 H 0.850340 0.379181 0.117553
C14_4 C 0.83487(12) 0.3096(6) 0.04857(16)
C20_4 C 0.86888(13) 0.2331(6) 0.05379(18)
C23_4 C 0.77730(12) 0.3943(5) 0.00475(17)
C24_4 C 0.80100(13) 0.4585(6) 0.08316(17)
H12_4 H 0.798993 0.507878 0.110315
C26_4 C 0.80685(12) 0.3158(5) 0.00601(16)
N2_5 N 0.56961(10) 0.9261(5) 0.50273(15)
O5_5 O 0.60333(9) 0.8712(5) 0.57851(14)
N3_3 N 0.27427(10) 0.0339(5) 0.54264(13)
O6_5 O 0.39427(10) 0.2479(5) 0.58903(14)
N4_5 N 0.36862(10) 0.3572(5) 0.51683(15)
N5_5 N 0.54211(10) 0.8448(5) 0.50783(16)
N6_5 N 0.39897(10) 0.4308(5) 0.51931(15)
H2_5 H 0.662319 0.977126 0.600329
C7_5 C 0.33184(14) 0.1183(6) 0.58791(17)
H4_5 H 0.350340 0.120819 0.617553
C10_2 C 0.48347(12) 0.7633(6) 0.47531(17)
C14_5 C 0.33487(12) 0.1904(6) 0.54857(16)
C16_2 C 0.42665(12) 0.5996(6) 0.48117(18)
C20_5 C 0.36888(13) 0.2669(6) 0.55379(18)
C21_5 C 0.59929(12) 0.9335(6) 0.54063(18)
C23_5 C 0.27730(12) 0.1057(5) 0.50475(17)
H11_3 H 0.258243 0.102504 0.475703
C24_5 C 0.30100(13) 0.0415(6) 0.58316(17)
C26_5 C 0.30685(12) 0.1842(5) 0.50601(16)
H14_3 H 0.308059 0.233096 0.478328
C27_2 C 0.39648(12) 0.5155(6) 0.48360(17)
H15_2 H 0.374809 0.523763 0.458450
C30_2 C 0.42388(14) 0.6873(8) 0.4419(2)
H18_2 H 0.402239 0.693125 0.416616
C31_4 C 0.51363(13) 0.8477(6) 0.47233(19)
H19_4 H 0.512061 0.903399 0.444539
C32_2 C 0.45226(14) 0.7668(7) 0.4390(2)
H20_2 H 0.450002 0.824605 0.411399
C33_3 C 0.45781(17) 0.5975(10) 0.5177(3)
H21_3 H 0.460102 0.539911 0.545350
C34_3 C 0.48602(17) 0.6782(10) 0.5148(3)
H22_5 H 0.507489 0.674714 0.540477
H23_3 H 0.3476(11) 0.379(7) 0.4886(16)
H24_4 H 0.5675(14) 0.982(6) 0.4735(13)
H12_5 H 0.298993 0.992122 0.610315
Cd2 Cd 0.22708(2) 0.87904(4) 0.53247(2)
C13_5 C 0.37403(13) 0.1061(6) 0.00696(18)
H7_5 H 0.394680 0.102623 0.033974
C28_5 C 0.34557(12) 0.1915(6) 0.00757(17)
H16_5 H 0.347394 0.246611 0.035556
O8_3 O 0.30861(8) 0.4613(4) 0.04135(11)
O10_3 O 0.26697(9) 0.3173(4) 0.04930(11)
Cd1_2 Cd 0.27292(2) 0.37904(4) 0.96753(2)
O1_3 O 0.30861(8) 0.5387(4) 0.54135(11)
O2_5 O 0.26966(8) 0.4012(4) 0.88638(11)
O3_5 O 0.30859(8) 0.5432(4) 0.93855(10)
O4_2 O 0.26697(9) 0.6827(4) 0.54930(11)
N1_5 N 0.31569(10) 0.1999(5) 0.97065(13)
C1_5 C 0.31322(11) 0.6085(5) 0.61959(15)
C2_5 C 0.29573(12) 0.4860(5) 0.89742(15)
C3_5 C 0.31332(11) 0.5170(5) 0.86158(15)
C4_5 C 0.33865(12) 0.6273(6) 0.87004(15)
H1_5 H 0.344801 0.683872 0.898680
C5_5 C 0.34043(12) 0.0322(5) 0.92797(17)
C6_5 C 0.36273(12) 0.5395(6) 0.68767(17)
H3_5 H 0.385159 0.495153 0.700731
C8_5 C 0.30478(12) 0.4315(6) 0.82019(17)
H5_5 H 0.287730 0.354314 0.814472
C9_5 C 0.37160(12) 0.0260(6) 0.96592(17)
C11_5 C 0.29525(12) 0.6095(5) 0.56726(15)
C12_5 C 0.31349(12) 0.1194(6) 0.93194(17)
H6_5 H 0.292297 0.122387 0.905782
C15_5 C 0.35516(12) 0.6565(6) 0.83742(15)
H8_5 H 0.372308 0.733356 0.843246
C17_5 C 0.34626(12) 0.5719(6) 0.79617(16)
C18_5 C 0.34661(12) 0.6000(6) 0.71708(16)
C19_5 C 0.32132(13) 0.4596(7) 0.78720(17)
H9_5 H 0.315540 0.402106 0.758759
C22_5 C 0.31419(13) 0.6683(7) 0.69879(17)
H10_5 H 0.303506 0.711008 0.719600
C25_5 C 0.34625(12) 0.5433(6) 0.63904(16)
H13_5 H 0.357390 0.501476 0.618651
C29_5 C 0.29754(12) 0.6739(6) 0.65013(16)
H17_5 H 0.275512 0.721958 0.637359
O7_5 O 0.36497(9) 0.5978(5) 0.76574(11)
Cd4_3 Cd 0.27292(2) 0.62096(4) 0.46753(2)
O9_2 O 0.23303(9) 0.1827(4) 0.95070(11)
N7_3 N 0.22573(10) 0.5339(5) 0.95736(13)
Cd4_4 Cd 0.22708(2) 0.12096(4) 0.03247(2)
O1_4 O 0.19139(8) 0.0387(4) 0.95865(11)
O3_6 O 0.19141(8) 0.0432(4) 0.56145(10)
C1_6 C 0.18678(11) 0.1085(5) 0.88041(15)
C3_6 C 0.18668(11) 0.0170(5) 0.63842(15)
C4_6 C 0.16135(12) 0.1273(6) 0.62996(15)
H1_6 H 0.155199 0.183872 0.601320
C6_6 C 0.13727(12) 0.0395(6) 0.81233(17)
C11_6 C 0.20475(12) 0.1095(5) 0.93274(15)
C15_6 C 0.14484(12) 0.1565(6) 0.66258(15)
H8_6 H 0.127692 0.233356 0.656754
C17_6 C 0.15374(12) 0.0719(6) 0.70383(16)
C18_6 C 0.15339(12) 0.1000(6) 0.78292(16)
C22_6 C 0.18581(13) 0.1683(7) 0.80121(17)
H10_6 H 0.196494 0.211008 0.780400
C25_6 C 0.15375(12) 0.0433(6) 0.86096(16)
H13_6 H 0.142610 0.001476 0.881349
C29_6 C 0.20246(12) 0.1739(6) 0.84987(16)
H17_6 H 0.224488 0.221958 0.862641
O7_6 O 0.13503(9) 0.0978(5) 0.73426(11)
O2_6 O 0.23034(8) 0.9012(4) 0.61362(11)
N1_6 N 0.18431(10) 0.6999(5) 0.52935(13)
N2_6 N 0.06961(10) 0.4261(5) 0.50273(15)
O5_6 O 0.10333(9) 0.3712(5) 0.57851(14)
N5_6 N 0.04211(10) 0.3448(5) 0.50783(16)
C2_6 C 0.20427(12) 0.9860(5) 0.60258(15)
C5_6 C 0.15957(12) 0.5322(5) 0.57203(17)
H2_6 H 0.162319 0.477126 0.600329
H3_6 H 0.114841 0.995153 0.799269
C8_6 C 0.19522(12) 0.9315(6) 0.67981(17)
H5_6 H 0.212270 0.854314 0.685528
C9_6 C 0.12840(12) 0.5260(6) 0.53408(17)
C12_6 C 0.18651(12) 0.6194(6) 0.56806(17)
H6_6 H 0.207703 0.622387 0.594218
C13_6 C 0.12597(13) 0.6061(6) 0.49304(18)
H7_6 H 0.105320 0.602623 0.466026
C19_6 C 0.17868(13) 0.9596(7) 0.71280(17)
H9_6 H 0.184460 0.902106 0.741241
C21_6 C 0.09929(12) 0.4335(6) 0.54063(18)
C28_6 C 0.15443(12) 0.6915(6) 0.49243(17)
H16_6 H 0.152606 0.746611 0.464444
C31_5 C 0.01363(13) 0.3477(6) 0.47233(19)
H19_5 H 0.012061 0.403399 0.444539
H22_6 H 0.007489 0.174714 0.540477
H24_5 H 0.0675(14) 0.482(6) 0.4735(13)
O8_4 O 0.19139(8) 0.9613(4) 0.45865(11)
O10_4 O 0.23303(9) 0.8173(4) 0.45070(11)
O6_6 O 0.10573(10) 0.7479(5) 0.91097(14)
N4_6 N 0.13138(10) 0.8572(5) 0.98317(15)
N6_6 N 0.10103(10) 0.9308(5) 0.98069(15)
C7_6 C 0.16816(14) 0.6183(6) 0.91209(17)
H4_6 H 0.149660 0.620819 0.882447
C14_6 C 0.16513(12) 0.6904(6) 0.95143(16)
C20_6 C 0.13112(13) 0.7669(6) 0.94621(18)
C23_6 C 0.22270(12) 0.6057(5) 0.99525(17)
C24_6 C 0.19900(13) 0.5415(6) 0.91684(17)
H12_6 H 0.201007 0.492122 0.889685
C26_6 C 0.19315(12) 0.6842(5) 0.99399(16)
O2_7 O 0.26966(8) 0.5988(4) 0.38638(11)
O3_7 O 0.30859(8) 0.4568(4) 0.43855(10)
N1_7 N 0.31569(10) 0.8001(5) 0.47065(13)
C1_7 C 0.31322(11) 0.3915(5) 0.11959(15)
C2_7 C 0.29573(12) 0.5140(5) 0.39742(15)
C3_7 C 0.31332(11) 0.4830(5) 0.36158(15)
C4_7 C 0.33865(12) 0.3727(6) 0.37004(15)
H1_7 H 0.344801 0.316128 0.398680
C5_7 C 0.34043(12) 0.9678(5) 0.42797(17)
C6_7 C 0.36273(12) 0.4605(6) 0.18767(17)
H3_7 H 0.385159 0.504847 0.200731
C8_7 C 0.30478(12) 0.5685(6) 0.32019(17)
H5_7 H 0.287730 0.645686 0.314472
C9_7 C 0.37160(12) 0.9740(6) 0.46592(17)
C11_7 C 0.29525(12) 0.3905(5) 0.06726(15)
C12_7 C 0.31349(12) 0.8806(6) 0.43194(17)
H6_7 H 0.292297 0.877613 0.405782
C13_7 C 0.37403(13) 0.8939(6) 0.50696(18)
H7_7 H 0.394680 0.897377 0.533974
C15_7 C 0.35516(12) 0.3435(6) 0.33742(15)
H8_7 H 0.372308 0.266644 0.343246
C17_7 C 0.34626(12) 0.4281(6) 0.29617(16)
C18_7 C 0.34661(12) 0.4000(6) 0.21708(16)
C19_7 C 0.32132(13) 0.5404(7) 0.28720(17)
H9_7 H 0.315540 0.597894 0.258759
C22_7 C 0.31419(13) 0.3317(7) 0.19879(17)
H10_7 H 0.303506 0.288992 0.219600
C25_7 C 0.34625(12) 0.4567(6) 0.13904(16)
H13_7 H 0.357390 0.498524 0.118651
C28_7 C 0.34557(12) 0.8085(6) 0.50757(17)
H16_7 H 0.347394 0.753389 0.535556
C29_7 C 0.29754(12) 0.3261(6) 0.15013(16)
H17_7 H 0.275512 0.278042 0.137359
O7_7 O 0.36497(9) 0.4022(5) 0.26574(11)
N7_4 N 0.22573(10) 0.4661(5) 0.45736(13)
H12_7 H 0.298993 0.007878 0.110315
N2_7 N 0.56961(10) 0.0739(5) 0.00273(15)
O5_7 O 0.60333(9) 0.1288(5) 0.07851(14)
N3_4 N 0.27427(10) 0.9661(5) 0.04264(13)
O6_7 O 0.39427(10) 0.7521(5) 0.08903(14)
N4_7 N 0.36862(10) 0.6428(5) 0.01683(15)
N5_7 N 0.54211(10) 0.1552(5) 0.00783(16)
N6_7 N 0.39897(10) 0.5692(5) 0.01931(15)
H2_7 H 0.662319 0.022874 0.100329
C7_7 C 0.33184(14) 0.8817(6) 0.08791(17)
H4_7 H 0.350340 0.879181 0.117553
C14_7 C 0.33487(12) 0.8096(6) 0.04857(16)
C20_7 C 0.36888(13) 0.7331(6) 0.05379(18)
C21_7 C 0.59929(12) 0.0665(6) 0.04063(18)
C23_7 C 0.27730(12) 0.8943(5) 0.00475(17)
C24_7 C 0.30100(13) 0.9585(6) 0.08316(17)
C26_7 C 0.30685(12) 0.8158(5) 0.00601(16)
C33_4 C 0.45781(17) 0.4025(10) 0.0177(3)
H21_4 H 0.460102 0.460089 0.045350
C34_4 C 0.48602(17) 0.3218(10) 0.0148(3)
H22_7 H 0.507489 0.325286 0.040477
O6_8 O 0.10573(10) 0.2521(5) 0.41097(14)
N4_8 N 0.13138(10) 0.1428(5) 0.48317(15)
N6_8 N 0.10103(10) 0.0692(5) 0.48069(15)
C7_8 C 0.16816(14) 0.3817(6) 0.41209(17)
H4_8 H 0.149660 0.379181 0.382447
C14_8 C 0.16513(12) 0.3096(6) 0.45143(16)
C20_8 C 0.13112(13) 0.2331(6) 0.44621(18)
C23_8 C 0.22270(12) 0.3943(5) 0.49525(17)
H11_4 H 0.241757 0.397496 0.524297
C24_8 C 0.19900(13) 0.4585(6) 0.41684(17)
H12_8 H 0.201007 0.507878 0.389685
C26_8 C 0.19315(12) 0.3158(5) 0.49399(16)
H14_4 H 0.191941 0.266904 0.521672
H23_4 H 0.1524(11) 0.121(7) 0.5114(16)
O2_8 O 0.23034(8) 0.0988(4) 0.11362(11)
N1_8 N 0.18431(10) 0.3001(5) 0.02935(13)
N2_8 N 0.06961(10) 0.5739(5) 0.00273(15)
O5_8 O 0.10333(9) 0.6288(5) 0.07851(14)
N5_8 N 0.04211(10) 0.6552(5) 0.00783(16)
C2_8 C 0.20427(12) 0.0140(5) 0.10258(15)
C5_8 C 0.15957(12) 0.4678(5) 0.07203(17)
H2_8 H 0.162319 0.522874 0.100329
H3_8 H 0.114841 0.004847 0.299269
C8_8 C 0.19522(12) 0.0685(6) 0.17981(17)
H5_8 H 0.212270 0.145686 0.185528
C9_8 C 0.12840(12) 0.4740(6) 0.03408(17)
C12_8 C 0.18651(12) 0.3806(6) 0.06806(17)
H6_8 H 0.207703 0.377613 0.094218
C19_8 C 0.17868(13) 0.0404(7) 0.21280(17)
H9_8 H 0.184460 0.097894 0.241241
C21_8 C 0.09929(12) 0.5665(6) 0.04063(18)
H22_8 H 0.007489 0.825286 0.040477
C13_8 C 0.12597(13) 0.3939(6) 0.99304(18)
H7_8 H 0.105320 0.397377 0.966026
C28_8 C 0.15443(12) 0.3085(6) 0.99243(17)
H16_8 H 0.152606 0.253389 0.964444
C31_6 C 0.01363(13) 0.6523(6) 0.97233(19)
H19_6 H 0.012061 0.596601 0.944539
H24_6 H 0.0675(14) 0.518(6) 0.9735(13)
O3_8 O 0.19141(8) 0.9568(4) 0.06145(10)
C1_8 C 0.18678(11) 0.8915(5) 0.38041(15)
C3_8 C 0.18668(11) 0.9830(5) 0.13842(15)
C4_8 C 0.16135(12) 0.8727(6) 0.12996(15)
H1_8 H 0.155199 0.816128 0.101320
C6_8 C 0.13727(12) 0.9605(6) 0.31233(17)
C11_8 C 0.20475(12) 0.8905(5) 0.43274(15)
C15_8 C 0.14484(12) 0.8435(6) 0.16258(15)
H8_8 H 0.127692 0.766644 0.156754
C17_8 C 0.15374(12) 0.9281(6) 0.20383(16)
C18_8 C 0.15339(12) 0.9000(6) 0.28292(16)
C22_8 C 0.18581(13) 0.8317(7) 0.30121(17)
H10_8 H 0.196494 0.788992 0.280400
C25_8 C 0.15375(12) 0.9567(6) 0.36096(16)
H13_8 H 0.142610 0.998524 0.381349
C29_8 C 0.20246(12) 0.8261(6) 0.34987(16)
H17_8 H 0.224488 0.778042 0.362641
O7_8 O 0.13503(9) 0.9022(5) 0.23426(11)
C10_3 C 0.51653(12) 0.7633(6) 0.02469(17)
C16_3 C 0.57335(12) 0.5996(6) 0.01883(18)
H11_5 H 0.741757 0.102504 0.024297
H14_5 H 0.691941 0.233096 0.021672
C27_3 C 0.60352(12) 0.5155(6) 0.01640(17)
H15_3 H 0.625191 0.523763 0.041550
C30_3 C 0.57612(14) 0.6873(8) 0.0581(2)
H18_3 H 0.597761 0.693125 0.083384
C31_7 C 0.48637(13) 0.8477(6) 0.02767(19)
H19_7 H 0.487939 0.903399 0.055461
C32_3 C 0.54774(14) 0.7668(7) 0.0610(2)
H20_3 H 0.549998 0.824605 0.088601
H23_5 H 0.6524(11) 0.379(7) 0.0114(16)
H24_7 H 0.4325(14) 0.982(6) 0.0265(13)
C10_4 C 0.98347(12) 0.2633(6) 0.47531(17)
C16_4 C 0.92665(12) 0.0996(6) 0.48117(18)
C27_4 C 0.89648(12) 0.0155(6) 0.48360(17)
H15_4 H 0.874809 0.023763 0.458450
C30_4 C 0.92388(14) 0.1873(8) 0.4419(2)
H18_4 H 0.902239 0.193125 0.416616
C32_4 C 0.95226(14) 0.2668(7) 0.4390(2)
H20_4 H 0.950002 0.324605 0.411399
C33_5 C 0.95781(17) 0.0975(10) 0.5177(3)
H21_5 H 0.960102 0.039911 0.545350
C34_5 C 0.98602(17) 0.1782(10) 0.5148(3)
C10_5 C 0.01653(12) 0.2633(6) 0.02469(17)
C16_5 C 0.07335(12) 0.0996(6) 0.01883(18)
C27_5 C 0.10352(12) 0.0155(6) 0.01640(17)
H15_5 H 0.125191 0.023763 0.041550
C30_5 C 0.07612(14) 0.1873(8) 0.0581(2)
H18_5 H 0.097761 0.193125 0.083384
C32_5 C 0.04774(14) 0.2668(7) 0.0610(2)
H20_5 H 0.049998 0.324605 0.088601
C33_6 C 0.04219(17) 0.0975(10) 0.9823(3)
H21_6 H 0.039898 0.039911 0.954650
C34_6 C 0.01398(17) 0.1782(10) 0.9852(3)
H11_6 H 0.241757 0.602504 0.024297
H14_6 H 0.191941 0.733096 0.021672
H23_6 H 0.1524(11) 0.879(7) 0.0114(16)
C10_6 C 0.48347(12) 0.2367(6) 0.97531(17)
C16_6 C 0.42665(12) 0.4004(6) 0.98117(18)
H11_7 H 0.258243 0.897496 0.975703
H14_7 H 0.308059 0.766904 0.978328
C27_6 C 0.39648(12) 0.4845(6) 0.98360(17)
H15_6 H 0.374809 0.476237 0.958450
C30_6 C 0.42388(14) 0.3127(8) 0.9419(2)
H18_6 H 0.402239 0.306875 0.916616
C31_8 C 0.51363(13) 0.1523(6) 0.97233(19)
H19_8 H 0.512061 0.096601 0.944539
C32_6 C 0.45226(14) 0.2332(7) 0.9390(2)
H20_6 H 0.450002 0.175395 0.911399
H23_7 H 0.3476(11) 0.621(7) 0.9886(16)
H24_8 H 0.5675(14) 0.018(6) 0.9735(13)
C10_7 C 0.01653(12) 0.7367(6) 0.52469(17)
C16_7 C 0.07335(12) 0.9004(6) 0.51883(18)
C27_7 C 0.10352(12) 0.9845(6) 0.51640(17)
H15_7 H 0.125191 0.976237 0.541550
C30_7 C 0.07612(14) 0.8127(8) 0.5581(2)
H18_7 H 0.097761 0.806875 0.583384
C32_7 C 0.04774(14) 0.7332(7) 0.5610(2)
H20_7 H 0.049998 0.675395 0.588601
C33_7 C 0.04219(17) 0.9025(10) 0.4823(3)
H21_7 H 0.039898 0.960089 0.454650
C34_7 C 0.01398(17) 0.8218(10) 0.4852(3)
H11_8 H 0.758243 0.397496 0.975703
H14_8 H 0.808059 0.266904 0.978328
H23_8 H 0.8476(11) 0.121(7) 0.9886(16)
C33_8 C 0.95781(17) 0.9025(10) 0.0177(3)
H21_8 H 0.960102 0.960089 0.045350
C34_8 C 0.98602(17) 0.8218(10) 0.0148(3)
C10_8 C 0.98347(12) 0.7367(6) 0.97531(17)
C16_8 C 0.92665(12) 0.9004(6) 0.98117(18)
C27_8 C 0.89648(12) 0.9845(6) 0.98360(17)
H15_8 H 0.874809 0.976237 0.958450
C30_8 C 0.92388(14) 0.8127(8) 0.9419(2)
H18_8 H 0.902239 0.806875 0.916616
C32_8 C 0.95226(14) 0.7332(7) 0.9390(2)
H20_8 H 0.950002 0.675395 0.911399
loop_
_geom_bond_atom_site_label_1
_geom_bond_atom_site_label_2
_geom_bond_site_symmetry_1
_geom_bond_site_symmetry_2
Cd1 O2 1_555 1_555
O1 C11 1_555 1_555
O2 C2 1_555 1_555
O3 Cd1 1_555 1_555
O4 C11 1_555 1_555
N1 Cd1 1_555 1_555
C1 C11 1_555 1_555
C2 O3 1_555 1_555
C3 C2 1_555 1_555
C4 C3 1_555 1_555
H1 C4 1_555 1_555
C6 H3 1_555 1_555
C8 C3 1_555 1_555
H5 C8 1_555 1_555
C9 C5 1_555 1_555
C12 N1 1_555 1_555
H6 C12 1_555 1_555
C13 C9 1_555 1_555
H7 C13 1_555 1_555
C15 C4 1_555 1_555
H8 C15 1_555 1_555
C17 C15 1_555 1_555
C18 C6 1_555 1_555
C19 C8 1_555 1_555
H9 C19 1_555 1_555
C22 C18 1_555 1_555
H10 C22 1_555 1_555
C25 C1 1_555 1_555
H13 C25 1_555 1_555
C28 N1 1_555 1_555
H16 C28 1_555 1_555
C29 C1 1_555 1_555
H17 C29 1_555 1_555
O7 C17 1_555 1_555
Cd3 O4 1_555 1_555
O8 Cd1 1_555 1_555
O9 Cd1 1_555 1_555
O10 Cd1 1_555 1_555
N7 Cd1 1_555 1_555
C5 C12 1_555 1_555
C6 C25 1_555 1_555
C13 C28 1_555 1_555
C17 C19 1_555 1_555
C18 O7 1_555 1_555
C22 C29 1_555 1_555
N2 N5 1_555 1_555
O5 C21 1_555 1_555
N3 C23 1_555 1_555
O6 C20 1_555 1_555
N4 N6 1_555 1_555
C7 H4 1_555 1_555
C14 C7 1_555 1_555
C20 N4 1_555 1_555
C21 N2 1_555 1_555
C24 N3 1_555 1_555
C26 C14 1_555 1_555
H21 C33 1_555 1_555
H22 C34 1_555 1_555
C7 C24 1_555 1_555
C14 C20 1_555 1_555
C23 C26 1_555 1_555
C33 C34 1_555 1_555
N7 C23_2 1_555 1_555
O6_2 C20_2 1_555 1_555
N4_2 N6_2 1_555 1_555
C7_2 H4_2 1_555 1_555
C14_2 C7_2 1_555 1_555
C20_2 N4_2 1_555 1_555
C23_2 H11 1_555 1_555
C24_2 N7 1_555 1_555
H12_2 C24_2 1_555 1_555
C26_2 C14_2 1_555 1_555
H14 C26_2 1_555 1_555
H23 N4_2 1_555 1_555
C7_2 C24_2 1_555 1_555
C14_2 C20_2 1_555 1_555
C23_2 C26_2 1_555 1_555
O1_2 C11_2 1_555 1_555
O9 C11_2 1_555 1_555
C1_2 C11_2 1_555 1_555
C4_2 C3_2 1_555 1_555
H1_2 C4_2 1_555 1_555
C15_2 C4_2 1_555 1_555
H8_2 C15_2 1_555 1_555
C17_2 C15_2 1_555 1_555
C18_2 C6_2 1_555 1_555
C22_2 C18_2 1_555 1_555
H10_2 C22_2 1_555 1_555
C25_2 C1_2 1_555 1_555
H13_2 C25_2 1_555 1_555
C29_2 C1_2 1_555 1_555
H17_2 C29_2 1_555 1_555
O7_2 C17_2 1_555 1_555
Cd4_2 O1_2 1_555 1_555
O9 Cd4_2 1_555 1_555
C6_2 C25_2 1_555 1_555
C18_2 O7_2 1_555 1_555
C22_2 C29_2 1_555 1_555
H7_2 C13_2 1_555 1_555
H16_2 C28_2 1_555 1_555
C31 H19 1_555 1_555
C13_2 C28_2 1_555 1_555
Cd3 O2_2 1_555 1_555
O2_2 C2_2 1_555 1_555
N1_2 Cd3 1_555 1_555
N2_2 N5_2 1_555 1_555
O5_2 C21_2 1_555 1_555
C5_2 H2_2 1_555 1_555
H5_2 C8_2 1_555 1_555
C9_2 C5_2 1_555 1_555
C12_2 N1_2 1_555 1_555
H6_2 C12_2 1_555 1_555
C19_2 C8_2 1_555 1_555
H9_2 C19_2 1_555 1_555
C21_2 N2_2 1_555 1_555
C5_2 C12_2 1_555 1_555
C9_2 C21_2 1_555 1_555
N2_3 N5_3 1_555 1_555
O5_3 C21_3 1_555 1_555
N3_2 C23_3 1_555 1_555
O6_3 C20_3 1_555 1_555
N4_3 N6_3 1_555 1_555
N5_3 C31_2 1_555 1_555
N6_3 C27 1_555 1_555
C7_3 H4_3 1_555 1_555
C10 C31_2 1_555 1_555
C14_3 C7_3 1_555 1_555
C16 C27 1_555 1_555
C20_3 N4_3 1_555 1_555
C21_3 N2_3 1_555 1_555
C23_3 H11_2 1_555 1_555
C24_3 N3_2 1_555 1_555
C26_3 C14_3 1_555 1_555
H14_2 C26_3 1_555 1_555
C27 H15 1_555 1_555
C30 C16 1_555 1_555
H18 C30 1_555 1_555
C31_2 H19_2 1_555 1_555
C32 C10 1_555 1_555
H20 C32 1_555 1_555
C33_2 C16 1_555 1_555
H21_2 C33_2 1_555 1_555
C34_2 C10 1_555 1_555
H22_3 C34_2 1_555 1_555
H23_2 N4_3 1_555 1_555
H24_2 N2_3 1_555 1_555
C7_3 C24_3 1_555 1_555
C14_3 C20_3 1_555 1_555
C23_3 C26_3 1_555 1_555
C30 C32 1_555 1_555
C33_2 C34_2 1_555 1_555
Cd4 O2_3 1_555 1_555
O8 C11_3 1_555 1_555
O2_3 C2_3 1_555 1_555
O3_3 Cd4 1_555 1_555
O10 C11_3 1_555 1_555
N1_3 Cd4 1_555 1_555
C1_3 C11_3 1_555 1_555
C2_3 O3_3 1_555 1_555
C3_3 C2_3 1_555 1_555
C4_3 C3_3 1_555 1_555
H1_3 C4_3 1_555 1_555
C6_3 H3_3 1_555 1_555
C8_3 C3_3 1_555 1_555
H5_3 C8_3 1_555 1_555
C9_3 C5_3 1_555 1_555
C12_3 N1_3 1_555 1_555
H6_3 C12_3 1_555 1_555
C15_3 C4_3 1_555 1_555
H8_3 C15_3 1_555 1_555
C17_3 C15_3 1_555 1_555
C18_3 C6_3 1_555 1_555
C19_3 C8_3 1_555 1_555
H9_3 C19_3 1_555 1_555
C22_3 C18_3 1_555 1_555
H10_3 C22_3 1_555 1_555
C25_3 C1_3 1_555 1_555
H13_3 C25_3 1_555 1_555
C29_3 C1_3 1_555 1_555
H17_3 C29_3 1_555 1_555
O7_3 C17_3 1_555 1_555
Cd4_2 O10 1_555 1_555
O10_2 Cd4 1_555 1_555
N7_2 Cd4 1_555 1_555
C5_3 C12_3 1_555 1_555
C6_3 C25_3 1_555 1_555
C17_3 C19_3 1_555 1_555
C18_3 O7_3 1_555 1_555
C22_3 C29_3 1_555 1_555
H7_3 C13_3 1_555 1_555
H16_3 C28_3 1_555 1_555
C13_3 C28_3 1_555 1_555
Cd4_2 O2_4 1_555 1_555
O2_4 C2_4 1_555 1_555
N1_4 Cd4_2 1_555 1_555
N2_4 N5_4 1_555 1_555
O5_4 C21_4 1_555 1_555
N5_4 C31_3 1_555 1_555
C5_4 H2_4 1_555 1_555
H5_4 C8_4 1_555 1_555
C9_4 C5_4 1_555 1_555
C12_4 N1_4 1_555 1_555
H6_4 C12_4 1_555 1_555
C13_4 C9_4 1_555 1_555
H7_4 C13_4 1_555 1_555
C19_4 C8_4 1_555 1_555
H9_4 C19_4 1_555 1_555
C21_4 N2_4 1_555 1_555
C28_4 N1_4 1_555 1_555
H16_4 C28_4 1_555 1_555
C31_3 H19_3 1_555 1_555
H24_3 N2_4 1_555 1_555
C5_4 C12_4 1_555 1_555
C9_4 C21_4 1_555 1_555
C13_4 C28_4 1_555 1_555
O8_2 C11_4 1_555 1_555
O10_2 C11_4 1_555 1_555
C1_4 C11_4 1_555 1_555
C4_4 C3_4 1_555 1_555
H1_4 C4_4 1_555 1_555
C15_4 C4_4 1_555 1_555
H8_4 C15_4 1_555 1_555
C17_4 C15_4 1_555 1_555
C18_4 C6_4 1_555 1_555
C22_4 C18_4 1_555 1_555
H10_4 C22_4 1_555 1_555
C25_4 C1_4 1_555 1_555
H13_4 C25_4 1_555 1_555
C29_4 C1_4 1_555 1_555
H17_4 C29_4 1_555 1_555
O7_4 C17_4 1_555 1_555
C6_4 C25_4 1_555 1_555
C18_4 O7_4 1_555 1_555
C22_4 C29_4 1_555 1_555
N7_2 C23_4 1_555 1_555
O6_4 C20_4 1_555 1_555
N4_4 N6_4 1_555 1_555
C7_4 H4_4 1_555 1_555
C14_4 C7_4 1_555 1_555
C20_4 N4_4 1_555 1_555
C24_4 N7_2 1_555 1_555
H12_4 C24_4 1_555 1_555
C26_4 C14_4 1_555 1_555
C7_4 C24_4 1_555 1_555
C14_4 C20_4 1_555 1_555
C23_4 C26_4 1_555 1_555
N2_5 N5_5 1_555 1_555
O5_5 C21_5 1_555 1_555
N3_3 C23_5 1_555 1_555
O6_5 C20_5 1_555 1_555
N4_5 N6_5 1_555 1_555
N5_5 C31_4 1_555 1_555
N6_5 C27_2 1_555 1_555
C7_5 H4_5 1_555 1_555
C10_2 C31_4 1_555 1_555
C14_5 C7_5 1_555 1_555
C16_2 C27_2 1_555 1_555
C20_5 N4_5 1_555 1_555
C21_5 N2_5 1_555 1_555
C23_5 H11_3 1_555 1_555
C24_5 N3_3 1_555 1_555
C26_5 C14_5 1_555 1_555
H14_3 C26_5 1_555 1_555
C27_2 H15_2 1_555 1_555
C30_2 C16_2 1_555 1_555
H18_2 C30_2 1_555 1_555
C31_4 H19_4 1_555 1_555
C32_2 C10_2 1_555 1_555
H20_2 C32_2 1_555 1_555
C33_3 C16_2 1_555 1_555
H21_3 C33_3 1_555 1_555
C34_3 C10_2 1_555 1_555
H22_5 C34_3 1_555 1_555
H23_3 N4_5 1_555 1_555
H24_4 N2_5 1_555 1_555
C7_5 C24_5 1_555 1_555
C14_5 C20_5 1_555 1_555
C23_5 C26_5 1_555 1_555
C30_2 C32_2 1_555 1_555
C33_3 C34_3 1_555 1_555
H7_5 C13_5 1_555 1_555
H16_5 C28_5 1_555 1_555
C13_5 C28_5 1_555 1_555
Cd1_2 O2_5 1_555 1_555
O1_3 C11_5 1_555 1_555
O2_5 C2_5 1_555 1_555
O3_5 Cd1_2 1_555 1_555
O4_2 C11_5 1_555 1_555
N1_5 Cd1_2 1_555 1_555
C1_5 C11_5 1_555 1_555
C2_5 O3_5 1_555 1_555
C3_5 C2_5 1_555 1_555
C4_5 C3_5 1_555 1_555
H1_5 C4_5 1_555 1_555
C6_5 H3_5 1_555 1_555
C8_5 C3_5 1_555 1_555
H5_5 C8_5 1_555 1_555
C9_5 C5_5 1_555 1_555
C12_5 N1_5 1_555 1_555
H6_5 C12_5 1_555 1_555
C15_5 C4_5 1_555 1_555
H8_5 C15_5 1_555 1_555
C17_5 C15_5 1_555 1_555
C18_5 C6_5 1_555 1_555
C19_5 C8_5 1_555 1_555
H9_5 C19_5 1_555 1_555
C22_5 C18_5 1_555 1_555
H10_5 C22_5 1_555 1_555
C25_5 C1_5 1_555 1_555
H13_5 C25_5 1_555 1_555
C29_5 C1_5 1_555 1_555
H17_5 C29_5 1_555 1_555
O7_5 C17_5 1_555 1_555
Cd2 O4_2 1_555 1_555
Cd4_3 O1_3 1_555 1_555
O9_2 Cd1_2 1_555 1_555
N7_3 Cd1_2 1_555 1_555
O4_2 Cd4_3 1_555 1_555
C5_5 C12_5 1_555 1_555
C6_5 C25_5 1_555 1_555
C17_5 C19_5 1_555 1_555
C18_5 O7_5 1_555 1_555
C22_5 C29_5 1_555 1_555
O1_4 C11_6 1_555 1_555
O9_2 C11_6 1_555 1_555
C1_6 C11_6 1_555 1_555
C4_6 C3_6 1_555 1_555
H1_6 C4_6 1_555 1_555
C15_6 C4_6 1_555 1_555
H8_6 C15_6 1_555 1_555
C17_6 C15_6 1_555 1_555
C18_6 C6_6 1_555 1_555
C22_6 C18_6 1_555 1_555
H10_6 C22_6 1_555 1_555
C25_6 C1_6 1_555 1_555
H13_6 C25_6 1_555 1_555
C29_6 C1_6 1_555 1_555
H17_6 C29_6 1_555 1_555
O7_6 C17_6 1_555 1_555
C6_6 C25_6 1_555 1_555
C18_6 O7_6 1_555 1_555
C22_6 C29_6 1_555 1_555
Cd2 O2_6 1_555 1_555
O2_6 C2_6 1_555 1_555
N1_6 Cd2 1_555 1_555
N2_6 N5_6 1_555 1_555
O5_6 C21_6 1_555 1_555
N5_6 C31_5 1_555 1_555
C5_6 H2_6 1_555 1_555
H5_6 C8_6 1_555 1_555
C9_6 C5_6 1_555 1_555
C12_6 N1_6 1_555 1_555
H6_6 C12_6 1_555 1_555
C13_6 C9_6 1_555 1_555
H7_6 C13_6 1_555 1_555
C19_6 C8_6 1_555 1_555
H9_6 C19_6 1_555 1_555
C21_6 N2_6 1_555 1_555
C28_6 N1_6 1_555 1_555
H16_6 C28_6 1_555 1_555
C31_5 H19_5 1_555 1_555
H24_5 N2_6 1_555 1_555
O8_4 Cd2 1_555 1_555
O10_4 Cd2 1_555 1_555
C5_6 C12_6 1_555 1_555
C9_6 C21_6 1_555 1_555
C13_6 C28_6 1_555 1_555
N7_3 C23_6 1_555 1_555
O6_6 C20_6 1_555 1_555
N4_6 N6_6 1_555 1_555
C7_6 H4_6 1_555 1_555
C14_6 C7_6 1_555 1_555
C20_6 N4_6 1_555 1_555
C24_6 N7_3 1_555 1_555
H12_6 C24_6 1_555 1_555
C26_6 C14_6 1_555 1_555
C7_6 C24_6 1_555 1_555
C14_6 C20_6 1_555 1_555
C23_6 C26_6 1_555 1_555
Cd4_3 O2_7 1_555 1_555
O8_3 C11_7 1_555 1_555
O2_7 C2_7 1_555 1_555
O3_7 Cd4_3 1_555 1_555
O10_3 C11_7 1_555 1_555
N1_7 Cd4_3 1_555 1_555
C1_7 C11_7 1_555 1_555
C2_7 O3_7 1_555 1_555
C3_7 C2_7 1_555 1_555
C4_7 C3_7 1_555 1_555
H1_7 C4_7 1_555 1_555
C6_7 H3_7 1_555 1_555
C8_7 C3_7 1_555 1_555
H5_7 C8_7 1_555 1_555
C9_7 C5_7 1_555 1_555
C12_7 N1_7 1_555 1_555
H6_7 C12_7 1_555 1_555
C13_7 C9_7 1_555 1_555
H7_7 C13_7 1_555 1_555
C15_7 C4_7 1_555 1_555
H8_7 C15_7 1_555 1_555
C17_7 C15_7 1_555 1_555
C18_7 C6_7 1_555 1_555
C19_7 C8_7 1_555 1_555
H9_7 C19_7 1_555 1_555
C22_7 C18_7 1_555 1_555
H10_7 C22_7 1_555 1_555
C25_7 C1_7 1_555 1_555
H13_7 C25_7 1_555 1_555
C28_7 N1_7 1_555 1_555
H16_7 C28_7 1_555 1_555
C29_7 C1_7 1_555 1_555
H17_7 C29_7 1_555 1_555
O7_7 C17_7 1_555 1_555
Cd4_4 O10_3 1_555 1_555
O10_4 Cd4_3 1_555 1_555
N7_4 Cd4_3 1_555 1_555
C5_7 C12_7 1_555 1_555
C6_7 C25_7 1_555 1_555
C13_7 C28_7 1_555 1_555
C17_7 C19_7 1_555 1_555
C18_7 O7_7 1_555 1_555
C22_7 C29_7 1_555 1_555
N2_7 N5_7 1_555 1_555
O5_7 C21_7 1_555 1_555
N3_4 C23_7 1_555 1_555
O6_7 C20_7 1_555 1_555
N4_7 N6_7 1_555 1_555
C7_7 H4_7 1_555 1_555
C14_7 C7_7 1_555 1_555
C20_7 N4_7 1_555 1_555
C21_7 N2_7 1_555 1_555
C24_7 N3_4 1_555 1_555
C26_7 C14_7 1_555 1_555
H21_4 C33_4 1_555 1_555
H22_7 C34_4 1_555 1_555
C7_7 C24_7 1_555 1_555
C14_7 C20_7 1_555 1_555
C23_7 C26_7 1_555 1_555
C33_4 C34_4 1_555 1_555
N7_4 C23_8 1_555 1_555
O6_8 C20_8 1_555 1_555
N4_8 N6_8 1_555 1_555
C7_8 H4_8 1_555 1_555
C14_8 C7_8 1_555 1_555
C20_8 N4_8 1_555 1_555
C23_8 H11_4 1_555 1_555
C24_8 N7_4 1_555 1_555
H12_8 C24_8 1_555 1_555
C26_8 C14_8 1_555 1_555
H14_4 C26_8 1_555 1_555
H23_4 N4_8 1_555 1_555
C7_8 C24_8 1_555 1_555
C14_8 C20_8 1_555 1_555
C23_8 C26_8 1_555 1_555
Cd4_4 O2_8 1_555 1_555
O2_8 C2_8 1_555 1_555
N1_8 Cd4_4 1_555 1_555
N2_8 N5_8 1_555 1_555
O5_8 C21_8 1_555 1_555
C5_8 H2_8 1_555 1_555
H5_8 C8_8 1_555 1_555
C9_8 C5_8 1_555 1_555
C12_8 N1_8 1_555 1_555
H6_8 C12_8 1_555 1_555
C19_8 C8_8 1_555 1_555
H9_8 C19_8 1_555 1_555
C21_8 N2_8 1_555 1_555
C5_8 C12_8 1_555 1_555
C9_8 C21_8 1_555 1_555
H7_8 C13_8 1_555 1_555
H16_8 C28_8 1_555 1_555
C31_6 H19_6 1_555 1_555
C13_8 C28_8 1_555 1_555
O8_4 C11_8 1_555 1_555
O10_4 C11_8 1_555 1_555
C1_8 C11_8 1_555 1_555
C4_8 C3_8 1_555 1_555
H1_8 C4_8 1_555 1_555
C15_8 C4_8 1_555 1_555
H8_8 C15_8 1_555 1_555
C17_8 C15_8 1_555 1_555
C18_8 C6_8 1_555 1_555
C22_8 C18_8 1_555 1_555
H10_8 C22_8 1_555 1_555
C25_8 C1_8 1_555 1_555
H13_8 C25_8 1_555 1_555
C29_8 C1_8 1_555 1_555
H17_8 C29_8 1_555 1_555
O7_8 C17_8 1_555 1_555
C6_8 C25_8 1_555 1_555
C18_8 O7_8 1_555 1_555
C22_8 C29_8 1_555 1_555
C10_3 C31_7 1_555 1_555
C16_3 C27_3 1_555 1_555
C27_3 H15_3 1_555 1_555
C30_3 C16_3 1_555 1_555
H18_3 C30_3 1_555 1_555
C31_7 H19_7 1_555 1_555
C32_3 C10_3 1_555 1_555
H20_3 C32_3 1_555 1_555
C30_3 C32_3 1_555 1_555
C16_4 C27_4 1_555 1_555
C27_4 H15_4 1_555 1_555
C30_4 C16_4 1_555 1_555
H18_4 C30_4 1_555 1_555
C32_4 C10_4 1_555 1_555
H20_4 C32_4 1_555 1_555
C33_5 C16_4 1_555 1_555
H21_5 C33_5 1_555 1_555
C34_5 C10_4 1_555 1_555
C30_4 C32_4 1_555 1_555
C33_5 C34_5 1_555 1_555
C16_5 C27_5 1_555 1_555
C27_5 H15_5 1_555 1_555
C30_5 C16_5 1_555 1_555
H18_5 C30_5 1_555 1_555
C32_5 C10_5 1_555 1_555
H20_5 C32_5 1_555 1_555
C30_5 C32_5 1_555 1_555
H21_6 C33_6 1_555 1_555
C33_6 C34_6 1_555 1_555
C10_6 C31_8 1_555 1_555
C16_6 C27_6 1_555 1_555
C27_6 H15_6 1_555 1_555
C30_6 C16_6 1_555 1_555
H18_6 C30_6 1_555 1_555
C31_8 H19_8 1_555 1_555
C32_6 C10_6 1_555 1_555
H20_6 C32_6 1_555 1_555
C30_6 C32_6 1_555 1_555
C16_7 C27_7 1_555 1_555
C27_7 H15_7 1_555 1_555
C30_7 C16_7 1_555 1_555
H18_7 C30_7 1_555 1_555
C32_7 C10_7 1_555 1_555
H20_7 C32_7 1_555 1_555
C33_7 C16_7 1_555 1_555
H21_7 C33_7 1_555 1_555
C34_7 C10_7 1_555 1_555
C30_7 C32_7 1_555 1_555
C33_7 C34_7 1_555 1_555
H21_8 C33_8 1_555 1_555
C33_8 C34_8 1_555 1_555
C16_8 C27_8 1_555 1_555
C27_8 H15_8 1_555 1_555
C30_8 C16_8 1_555 1_555
H18_8 C30_8 1_555 1_555
C32_8 C10_8 1_555 1_555
H20_8 C32_8 1_555 1_555
C30_8 C32_8 1_555 1_555

#END
