
###############################################################################
#
# This file contains modified crystal structure data generated from the
# MOF subset of the Cambridge Structural Database (CSD) v543 
# hosted by the Cambridge Crystallographic Data Centre (CCDC).
#
# This work is licensed under the Creative Commons
# Attribution-NonCommercial-ShareAlike 4.0 International License.
# To view a copy of this license, visit
# http://creativecommons.org/licenses/by-nc-sa/4.0/
# or send a letter to
# Creative Commons, PO Box 1866, Mountain View, CA 94042, USA.
#
# CIF created using the CSD Python API on 29 September 2022
# The structure has been converted into the P1 space group
# The structure has a 3D framework
# The original CSD entry MOYLAQ is in the monoclinic crystal system
# The framework has been calculated to contain at least 10.0% void space
# The void calculation uses a probe of radius 1.32A, grid spacing 0.4
# The framework is charged, counterions have been retained in the structure
#
###############################################################################

data_MOYLAQ
_chemical_formula_moiety         '(C216 H168 Cd6 N56 12+)n'
_symmetry_cell_setting           triclinic
_symmetry_space_group_name_H-M   'P 1'
_symmetry_Int_Tables_number      1
_space_group_name_Hall           'P 1'
loop_
_symmetry_equiv_pos_site_id
_symmetry_equiv_pos_as_xyz
1 x,y,z
_cell_length_a                   30.2102(19)
_cell_length_b                   8.9486(6)
_cell_length_c                   31.4489(17)
_cell_angle_alpha                90
_cell_angle_beta                 118.440(2)
_cell_angle_gamma                90
_cell_volume                     7475.83
loop_
_atom_site_label
_atom_site_type_symbol
_atom_site_fract_x
_atom_site_fract_y
_atom_site_fract_z
Cd4 Cd 0.250000 0.750000 0.000000
Cd1 Cd 0.250000 0.250000 0.500000
N3 N 0.19332(9) 0.1022(3) 0.43554(8)
C1 C 0.15088(12) 0.0086(4) 0.36088(12)
C3 C 0.15149(11) 0.0422(4) 0.43032(11)
H2 H 0.141754 0.040597 0.454270
C4 C 0.19347(12) 0.0814(4) 0.39235(11)
H3 H 0.218884 0.112409 0.385645
H6 H 0.045292 0.014857 0.303014
N9 N 0.23052(10) 0.5449(3) 0.94717(9)
N11 N 0.18810(10) 0.3339(4) 0.51888(9)
N12 N 0.19208(12) 0.4066(3) 0.88147(9)
N13 N 0.14694(11) 0.3770(4) 0.55925(10)
C29 C 0.15940(15) 0.3675(4) 0.83160(12)
N14 N 0.06576(12) 0.2805(5) 0.68483(11)
C33 C 0.17332(11) 0.2769(4) 0.54836(11)
H25 H 0.180148 0.179694 0.560245
C34 C 0.01727(14) 0.2170(5) 0.66716(12)
C35 C 0.10900(14) 0.3958(5) 0.81165(12)
H26 H 0.095528 0.434220 0.830491
C37 C 0.19482(13) 0.5389(4) 0.90181(11)
H28 H 0.173762 0.618808 0.885724
C38 C 0.00776(14) 0.1161(5) 0.69518(12)
H29 H 0.033152 0.091604 0.725922
C40 C 0.12574(13) 0.3519(5) 0.59064(12)
C41 C 0.07811(14) 0.3663(5) 0.76285(13)
H31 H 0.043843 0.386634 0.748907
C42 C 0.17993(16) 0.3056(5) 0.80507(13)
H32 H 0.214323 0.287015 0.819211
C44 C 0.09763(15) 0.3075(5) 0.73501(12)
C45 C 0.12885(15) 0.4623(5) 0.62251(14)
H34 H 0.144345 0.552873 0.623331
C46 C 0.10888(15) 0.4376(5) 0.65307(14)
H35 H 0.111001 0.512409 0.674498
C47 C 0.14833(16) 0.2709(5) 0.75637(14)
H36 H 0.161296 0.223305 0.738401
C48 C 0.08594(14) 0.3053(5) 0.65263(13)
C49 C 0.2511(2) 0.4030(5) 0.95639(14)
H37 H 0.276793 0.370483 0.985958
C50 C 0.10261(15) 0.2198(5) 0.58933(14)
H38 H 0.099996 0.146044 0.567418
C51 C 0.2283(2) 0.3194(6) 0.91622(16)
H39 H 0.235859 0.220819 0.912731
C52 C 0.08287(16) 0.1951(6) 0.62078(14)
H40 H 0.067638 0.104335 0.620237
C53 C 0.1456(2) 0.5059(7) 0.53630(19)
H41 H 0.129904 0.594385 0.537209
C54 C 0.17160(18) 0.4810(6) 0.51158(17)
H42 H 0.177355 0.551046 0.492905
Cd4_2 Cd 0.250000 0.750000 1.000000
N15 N 0.23052(10) 0.4551(3) 0.44717(9)
N16 N 0.26948(10) 0.0449(3) 0.55283(9)
N17 N 0.30668(9) 0.3978(3) 0.56446(8)
N18 N 0.31190(10) 0.1661(4) 0.48112(9)
N2 N 0.76948(10) 0.4551(3) 0.05283(9)
N4 N 0.81190(10) 0.6661(4) 0.48112(9)
N5 N 0.80792(12) 0.5934(3) 0.11853(9)
N6 N 0.85306(11) 0.6230(4) 0.44075(10)
C2 C 0.84060(15) 0.6325(4) 0.16840(12)
N7 N 0.93424(12) 0.7195(5) 0.31517(11)
C6 C 0.82668(11) 0.7231(4) 0.45164(11)
H4 H 0.819852 0.820306 0.439755
C7 C 0.98273(14) 0.7830(5) 0.33284(12)
C8 C 0.89100(14) 0.6042(5) 0.18835(12)
H5 H 0.904472 0.565780 0.169509
C10 C 0.80518(13) 0.4611(4) 0.09819(11)
H7 H 0.826238 0.381192 0.114276
C11 C 0.99224(14) 0.8839(5) 0.30482(12)
H8 H 0.966848 0.908396 0.274078
C13 C 0.87426(13) 0.6481(5) 0.40936(12)
C14 C 0.92189(14) 0.6337(5) 0.23715(13)
H10 H 0.956157 0.613366 0.251093
C15 C 0.82007(16) 0.6944(5) 0.19493(13)
H11 H 0.785677 0.712985 0.180789
C17 C 0.90237(15) 0.6925(5) 0.26499(12)
C18 C 0.87115(15) 0.5377(5) 0.37749(14)
H13 H 0.855655 0.447127 0.376669
C19 C 0.89112(15) 0.5624(5) 0.34693(14)
H14 H 0.888999 0.487591 0.325502
C20 C 0.85167(16) 0.7291(5) 0.24363(14)
H15 H 0.838704 0.776695 0.261599
C21 C 0.91406(14) 0.6947(5) 0.34737(13)
C22 C 0.7489(2) 0.5970(5) 0.04361(14)
H16 H 0.723207 0.629517 0.014042
C23 C 0.89739(15) 0.7802(5) 0.41067(14)
H17 H 0.900004 0.853956 0.432582
C24 C 0.7717(2) 0.6806(6) 0.08378(16)
H18 H 0.764141 0.779181 0.087269
C25 C 0.91713(16) 0.8049(6) 0.37922(14)
H19 H 0.932362 0.895665 0.379763
C26 C 0.8544(2) 0.4941(7) 0.46370(19)
H20 H 0.870096 0.405615 0.462791
C27 C 0.82840(18) 0.5190(6) 0.48842(17)
H21 H 0.822645 0.448954 0.507095
N10 N 0.80668(9) 0.8978(3) 0.56446(8)
C28 C 0.84912(12) 0.9914(4) 0.63912(12)
C30 C 0.84851(11) 0.9578(4) 0.56968(11)
H23 H 0.858246 0.959403 0.545730
C31 C 0.80653(12) 0.9186(4) 0.60765(11)
H24 H 0.781116 0.887591 0.614355
H27 H 0.954708 0.985143 0.696986
Cd2 Cd 0.750000 0.250000 0.000000
Cd3 Cd 0.750000 0.750000 0.500000
Cd2_2 Cd 0.750000 0.250000 1.000000
N4_2 N 0.18810(10) 0.6661(4) 0.01888(9)
N5_2 N 0.19208(12) 0.5934(3) 0.38147(9)
N6_2 N 0.14694(11) 0.6230(4) 0.05925(10)
C2_2 C 0.15940(15) 0.6325(4) 0.33160(12)
N7_2 N 0.06576(12) 0.7195(5) 0.18483(11)
C6_2 C 0.17332(11) 0.7231(4) 0.04836(11)
H4_2 H 0.180148 0.820306 0.060245
C7_2 C 0.01727(14) 0.7830(5) 0.16716(12)
C8_2 C 0.10900(14) 0.6042(5) 0.31165(12)
H5_2 H 0.095528 0.565780 0.330491
C10_2 C 0.19482(13) 0.4611(4) 0.40181(11)
H7_2 H 0.173762 0.381192 0.385724
C11_2 C 0.00776(14) 0.8839(5) 0.19518(12)
H8_2 H 0.033152 0.908396 0.225922
C13_2 C 0.12574(13) 0.6481(5) 0.09064(12)
C14_2 C 0.07811(14) 0.6337(5) 0.26285(13)
H10_2 H 0.043843 0.613366 0.248907
C15_2 C 0.17993(16) 0.6944(5) 0.30507(13)
H11_2 H 0.214323 0.712985 0.319211
C17_2 C 0.09763(15) 0.6925(5) 0.23501(12)
C18_2 C 0.12885(15) 0.5377(5) 0.12251(14)
H13_2 H 0.144345 0.447127 0.123331
C19_2 C 0.10888(15) 0.5624(5) 0.15307(14)
H14_2 H 0.111001 0.487591 0.174498
C20_2 C 0.14833(16) 0.7291(5) 0.25637(14)
H15_2 H 0.161296 0.776695 0.238401
C21_2 C 0.08594(14) 0.6947(5) 0.15263(13)
C22_2 C 0.2511(2) 0.5970(5) 0.45639(14)
H16_2 H 0.276793 0.629517 0.485958
C23_2 C 0.10261(15) 0.7802(5) 0.08933(14)
H17_2 H 0.099996 0.853956 0.067418
C24_2 C 0.2283(2) 0.6806(6) 0.41622(16)
H18_2 H 0.235859 0.779181 0.412731
C25_2 C 0.08287(16) 0.8049(6) 0.12078(14)
H19_2 H 0.067638 0.895665 0.120237
C26_2 C 0.1456(2) 0.4941(7) 0.03630(19)
H20_2 H 0.129904 0.405615 0.037209
C27_2 C 0.17160(18) 0.5190(6) 0.01158(17)
H21_2 H 0.177355 0.448954 0.992905
N10_2 N 0.19332(9) 0.8978(3) 0.93554(8)
C28_2 C 0.15088(12) 0.9914(4) 0.86088(12)
C30_2 C 0.15149(11) 0.9578(4) 0.93032(11)
H23_2 H 0.141754 0.959403 0.954270
C31_2 C 0.19347(12) 0.9186(4) 0.89235(11)
H24_2 H 0.218884 0.887591 0.885645
H27_2 H 0.045292 0.985143 0.803014
N3_2 N 0.80668(9) 0.1022(3) 0.06446(8)
C1_2 C 0.84912(12) 0.0086(4) 0.13912(12)
C3_2 C 0.84851(11) 0.0422(4) 0.06968(11)
H2_2 H 0.858246 0.040597 0.045730
C4_2 C 0.80653(12) 0.0814(4) 0.10765(11)
H3_2 H 0.781116 0.112409 0.114355
H6_2 H 0.954708 0.014857 0.196986
H42_2 H 0.822645 0.551046 0.007095
N18_2 N 0.68810(10) 0.1661(4) 0.01888(9)
N9_2 N 0.76948(10) 0.5449(3) 0.55283(9)
N11_2 N 0.81190(10) 0.3339(4) 0.98112(9)
N12_2 N 0.80792(12) 0.4066(3) 0.61853(9)
N13_2 N 0.85306(11) 0.3770(4) 0.94075(10)
C29_2 C 0.84060(15) 0.3675(4) 0.66840(12)
N14_2 N 0.93424(12) 0.2805(5) 0.81517(11)
C33_2 C 0.82668(11) 0.2769(4) 0.95164(11)
H25_2 H 0.819852 0.179694 0.939755
C34_2 C 0.98273(14) 0.2170(5) 0.83284(12)
C35_2 C 0.89100(14) 0.3958(5) 0.68835(12)
H26_2 H 0.904472 0.434220 0.669509
C37_2 C 0.80518(13) 0.5389(4) 0.59819(11)
H28_2 H 0.826238 0.618808 0.614276
C38_2 C 0.99224(14) 0.1161(5) 0.80482(12)
H29_2 H 0.966848 0.091604 0.774078
C40_2 C 0.87426(13) 0.3519(5) 0.90936(12)
C41_2 C 0.92189(14) 0.3663(5) 0.73715(13)
H31_2 H 0.956157 0.386634 0.751093
C42_2 C 0.82007(16) 0.3056(5) 0.69493(13)
H32_2 H 0.785677 0.287015 0.680789
C44_2 C 0.90237(15) 0.3075(5) 0.76499(12)
C45_2 C 0.87115(15) 0.4623(5) 0.87749(14)
H34_2 H 0.855655 0.552873 0.876669
C46_2 C 0.89112(15) 0.4376(5) 0.84693(14)
H35_2 H 0.888999 0.512409 0.825502
C47_2 C 0.85167(16) 0.2709(5) 0.74363(14)
H36_2 H 0.838704 0.223305 0.761599
C48_2 C 0.91406(14) 0.3053(5) 0.84737(13)
C49_2 C 0.7489(2) 0.4030(5) 0.54361(14)
H37_2 H 0.723207 0.370483 0.514042
C50_2 C 0.89739(15) 0.2198(5) 0.91067(14)
H38_2 H 0.900004 0.146044 0.932582
C51_2 C 0.7717(2) 0.3194(6) 0.58378(16)
H39_2 H 0.764141 0.220819 0.587269
C52_2 C 0.91713(16) 0.1951(6) 0.87922(14)
H40_2 H 0.932362 0.104335 0.879763
C53_2 C 0.8544(2) 0.5059(7) 0.96370(19)
H41_2 H 0.870096 0.594385 0.962791
C54_2 C 0.82840(18) 0.4810(6) 0.98842(17)
N16_2 N 0.73052(10) 0.0449(3) 0.94717(9)
N17_2 N 0.69332(9) 0.3978(3) 0.93554(8)
C37_3 C 0.69482(13) 0.0389(4) 0.90181(11)
H28_3 H 0.673762 0.118808 0.885724
H34_3 H 0.644345 0.052873 0.623331
H35_3 H 0.611001 0.012409 0.674498
C53_3 C 0.6456(2) 0.0059(7) 0.53630(19)
H41_3 H 0.629904 0.094385 0.537209
H42_3 H 0.677355 0.051046 0.492905
N1 N 0.62440(10) 0.4831(3) 0.38595(9)
N3_3 N 0.69332(9) 0.6022(3) 0.43554(8)
N5_3 N 0.30792(12) 0.0934(3) 0.11853(9)
N6_3 N 0.35306(11) 0.1230(4) 0.44075(10)
C1_3 C 0.65088(12) 0.5086(4) 0.36088(12)
H1 H 0.641510 0.481518 0.329159
C2_3 C 0.34060(15) 0.1325(4) 0.16840(12)
C3_3 C 0.65149(11) 0.5422(4) 0.43032(11)
H2_3 H 0.641754 0.540597 0.454270
C4_3 C 0.69347(12) 0.5814(4) 0.39235(11)
H3_3 H 0.718884 0.612409 0.385645
N7_3 N 0.43424(12) 0.2195(5) 0.31517(11)
C5 C 0.57618(12) 0.4141(4) 0.36745(12)
C6_3 C 0.32668(11) 0.2231(4) 0.45164(11)
H4_3 H 0.319852 0.320306 0.439755
C7_3 C 0.48273(14) 0.2830(5) 0.33284(12)
C8_3 C 0.39100(14) 0.1042(5) 0.18835(12)
H5_3 H 0.404472 0.065780 0.169509
C9 C 0.53901(13) 0.4481(5) 0.32218(12)
H6_3 H 0.545292 0.514857 0.303014
C11_3 C 0.49224(14) 0.3839(5) 0.30482(12)
H8_3 H 0.466848 0.408396 0.274078
C12 C 0.52029(15) 0.2508(5) 0.37843(14)
H9 H 0.513669 0.186713 0.398004
C13_3 C 0.37426(13) 0.1481(5) 0.40936(12)
C14_3 C 0.42189(14) 0.1337(5) 0.23715(13)
H10_3 H 0.456157 0.113366 0.251093
C15_3 C 0.32007(16) 0.1944(5) 0.19493(13)
H11_3 H 0.285677 0.212985 0.180789
C16 C 0.56763(14) 0.3114(5) 0.39581(14)
H12 H 0.593430 0.283983 0.426016
C17_3 C 0.40237(15) 0.1925(5) 0.26499(12)
C18_3 C 0.37115(15) 0.0377(5) 0.37749(14)
C19_3 C 0.39112(15) 0.0624(5) 0.34693(14)
C20_3 C 0.35167(16) 0.2291(5) 0.24363(14)
H15_3 H 0.338704 0.276695 0.261599
C21_3 C 0.41406(14) 0.1947(5) 0.34737(13)
C22_3 C 0.2489(2) 0.0970(5) 0.04361(14)
H16_3 H 0.223207 0.129517 0.014042
C23_3 C 0.39739(15) 0.2802(5) 0.41067(14)
H17_3 H 0.400004 0.353956 0.432582
C24_3 C 0.2717(2) 0.1806(6) 0.08378(16)
H18_3 H 0.264141 0.279181 0.087269
C25_3 C 0.41713(16) 0.3049(6) 0.37922(14)
H19_3 H 0.432362 0.395665 0.379763
C27_3 C 0.32840(18) 0.0190(6) 0.48842(17)
N8 N 0.37560(10) 0.5169(3) 0.61405(9)
N11_3 N 0.68810(10) 0.8339(4) 0.51888(9)
N12_3 N 0.69208(12) 0.9066(3) 0.88147(9)
N13_3 N 0.64694(11) 0.8770(4) 0.55925(10)
C28_3 C 0.34912(12) 0.4914(4) 0.63912(12)
H22 H 0.358490 0.518482 0.670841
C29_3 C 0.65940(15) 0.8675(4) 0.83160(12)
C30_3 C 0.34851(11) 0.4578(4) 0.56968(11)
H23_3 H 0.358246 0.459403 0.545730
C31_3 C 0.30653(12) 0.4186(4) 0.60765(11)
H24_3 H 0.281116 0.387591 0.614355
N14_3 N 0.56576(12) 0.7805(5) 0.68483(11)
C32 C 0.42382(12) 0.5859(4) 0.63255(12)
C33_3 C 0.67332(11) 0.7769(4) 0.54836(11)
H25_3 H 0.680148 0.679694 0.560245
C34_3 C 0.51727(14) 0.7170(5) 0.66716(12)
C35_3 C 0.60900(14) 0.8958(5) 0.81165(12)
H26_3 H 0.595528 0.934220 0.830491
C36 C 0.46099(13) 0.5519(5) 0.67782(12)
H27_3 H 0.454708 0.485143 0.696986
C38_3 C 0.50776(14) 0.6161(5) 0.69518(12)
H29_3 H 0.533152 0.591604 0.725922
C39 C 0.47971(15) 0.7492(5) 0.62157(14)
H30 H 0.486331 0.813287 0.601996
C40_3 C 0.62574(13) 0.8519(5) 0.59064(12)
C41_3 C 0.57811(14) 0.8663(5) 0.76285(13)
H31_3 H 0.543843 0.886634 0.748907
C42_3 C 0.67993(16) 0.8056(5) 0.80507(13)
H32_3 H 0.714323 0.787015 0.819211
C43 C 0.43237(14) 0.6886(5) 0.60419(14)
H33 H 0.406570 0.716017 0.573984
C44_3 C 0.59763(15) 0.8075(5) 0.73501(12)
C45_3 C 0.62885(15) 0.9623(5) 0.62251(14)
C46_3 C 0.60888(15) 0.9376(5) 0.65307(14)
C47_3 C 0.64833(16) 0.7709(5) 0.75637(14)
H36_3 H 0.661296 0.723305 0.738401
C48_3 C 0.58594(14) 0.8053(5) 0.65263(13)
C49_3 C 0.7511(2) 0.9030(5) 0.95639(14)
H37_3 H 0.776793 0.870483 0.985958
C50_3 C 0.60261(15) 0.7198(5) 0.58933(14)
H38_3 H 0.599996 0.646044 0.567418
C51_3 C 0.7283(2) 0.8194(6) 0.91622(16)
H39_3 H 0.735859 0.720819 0.912731
C52_3 C 0.58287(16) 0.6951(6) 0.62078(14)
H40_3 H 0.567638 0.604335 0.620237
C54_3 C 0.67160(18) 0.9810(6) 0.51158(17)
N15_2 N 0.73052(10) 0.9551(3) 0.44717(9)
N2_2 N 0.26948(10) 0.9551(3) 0.05283(9)
C10_3 C 0.30518(13) 0.9611(4) 0.09819(11)
H7_3 H 0.326238 0.881192 0.114276
H13_3 H 0.355655 0.947127 0.376669
H14_3 H 0.388999 0.987591 0.325502
C26_3 C 0.3544(2) 0.9941(7) 0.46370(19)
H20_3 H 0.370096 0.905615 0.462791
H21_3 H 0.322645 0.948954 0.507095
C37_4 C 0.30518(13) 0.0389(4) 0.59819(11)
H28_4 H 0.326238 0.118808 0.614276
H34_4 H 0.355655 0.052873 0.876669
H35_4 H 0.388999 0.012409 0.825502
C53_4 C 0.3544(2) 0.0059(7) 0.96370(19)
H41_4 H 0.370096 0.094385 0.962791
N1_2 N 0.37560(10) 0.4831(3) 0.11405(9)
N3_4 N 0.30668(9) 0.6022(3) 0.06446(8)
N5_4 N 0.69208(12) 0.0934(3) 0.38147(9)
N6_4 N 0.64694(11) 0.1230(4) 0.05925(10)
C1_4 C 0.34912(12) 0.5086(4) 0.13912(12)
H1_2 H 0.358490 0.481518 0.170841
C2_4 C 0.65940(15) 0.1325(4) 0.33160(12)
C3_4 C 0.34851(11) 0.5422(4) 0.06968(11)
H2_4 H 0.358246 0.540597 0.045730
C4_4 C 0.30653(12) 0.5814(4) 0.10765(11)
H3_4 H 0.281116 0.612409 0.114355
N7_4 N 0.56576(12) 0.2195(5) 0.18483(11)
C5_2 C 0.42382(12) 0.4141(4) 0.13255(12)
C6_4 C 0.67332(11) 0.2231(4) 0.04836(11)
H4_4 H 0.680148 0.320306 0.060245
C7_4 C 0.51727(14) 0.2830(5) 0.16716(12)
C8_4 C 0.60900(14) 0.1042(5) 0.31165(12)
H5_4 H 0.595528 0.065780 0.330491
C9_2 C 0.46099(13) 0.4481(5) 0.17782(12)
H6_4 H 0.454708 0.514857 0.196986
C11_4 C 0.50776(14) 0.3839(5) 0.19518(12)
H8_4 H 0.533152 0.408396 0.225922
C12_2 C 0.47971(15) 0.2508(5) 0.12157(14)
H9_2 H 0.486331 0.186713 0.101996
C13_4 C 0.62574(13) 0.1481(5) 0.09064(12)
C14_4 C 0.57811(14) 0.1337(5) 0.26285(13)
H10_4 H 0.543843 0.113366 0.248907
C15_4 C 0.67993(16) 0.1944(5) 0.30507(13)
H11_4 H 0.714323 0.212985 0.319211
C16_2 C 0.43237(14) 0.3114(5) 0.10419(14)
H12_2 H 0.406570 0.283983 0.073984
C17_4 C 0.59763(15) 0.1925(5) 0.23501(12)
C18_4 C 0.62885(15) 0.0377(5) 0.12251(14)
C19_4 C 0.60888(15) 0.0624(5) 0.15307(14)
C20_4 C 0.64833(16) 0.2291(5) 0.25637(14)
H15_4 H 0.661296 0.276695 0.238401
C21_4 C 0.58594(14) 0.1947(5) 0.15263(13)
C22_4 C 0.7511(2) 0.0970(5) 0.45639(14)
H16_4 H 0.776793 0.129517 0.485958
C23_4 C 0.60261(15) 0.2802(5) 0.08933(14)
H17_4 H 0.599996 0.353956 0.067418
C24_4 C 0.7283(2) 0.1806(6) 0.41622(16)
H18_4 H 0.735859 0.279181 0.412731
C25_4 C 0.58287(16) 0.3049(6) 0.12078(14)
H19_4 H 0.567638 0.395665 0.120237
C27_4 C 0.67160(18) 0.0190(6) 0.01158(17)
N8_2 N 0.62440(10) 0.5169(3) 0.88595(9)
N11_4 N 0.31190(10) 0.8339(4) 0.98112(9)
N12_4 N 0.30792(12) 0.9066(3) 0.61853(9)
N13_4 N 0.35306(11) 0.8770(4) 0.94075(10)
C28_4 C 0.65088(12) 0.4914(4) 0.86088(12)
H22_2 H 0.641510 0.518482 0.829159
C29_4 C 0.34060(15) 0.8675(4) 0.66840(12)
C30_4 C 0.65149(11) 0.4578(4) 0.93032(11)
H23_4 H 0.641754 0.459403 0.954270
C31_4 C 0.69347(12) 0.4186(4) 0.89235(11)
H24_4 H 0.718884 0.387591 0.885645
N14_4 N 0.43424(12) 0.7805(5) 0.81517(11)
C32_2 C 0.57618(12) 0.5859(4) 0.86745(12)
C33_4 C 0.32668(11) 0.7769(4) 0.95164(11)
H25_4 H 0.319852 0.679694 0.939755
C34_4 C 0.48273(14) 0.7170(5) 0.83284(12)
C35_4 C 0.39100(14) 0.8958(5) 0.68835(12)
H26_4 H 0.404472 0.934220 0.669509
C36_2 C 0.53901(13) 0.5519(5) 0.82218(12)
H27_4 H 0.545292 0.485143 0.803014
C38_4 C 0.49224(14) 0.6161(5) 0.80482(12)
H29_4 H 0.466848 0.591604 0.774078
C39_2 C 0.52029(15) 0.7492(5) 0.87843(14)
H30_2 H 0.513669 0.813287 0.898004
C40_4 C 0.37426(13) 0.8519(5) 0.90936(12)
C41_4 C 0.42189(14) 0.8663(5) 0.73715(13)
H31_4 H 0.456157 0.886634 0.751093
C42_4 C 0.32007(16) 0.8056(5) 0.69493(13)
H32_4 H 0.285677 0.787015 0.680789
C43_2 C 0.56763(14) 0.6886(5) 0.89581(14)
H33_2 H 0.593430 0.716017 0.926016
C44_4 C 0.40237(15) 0.8075(5) 0.76499(12)
C45_4 C 0.37115(15) 0.9623(5) 0.87749(14)
C46_4 C 0.39112(15) 0.9376(5) 0.84693(14)
C47_4 C 0.35167(16) 0.7709(5) 0.74363(14)
H36_4 H 0.338704 0.723305 0.761599
C48_4 C 0.41406(14) 0.8053(5) 0.84737(13)
C49_4 C 0.2489(2) 0.9030(5) 0.54361(14)
H37_4 H 0.223207 0.870483 0.514042
C50_4 C 0.39739(15) 0.7198(5) 0.91067(14)
H38_4 H 0.400004 0.646044 0.932582
C51_4 C 0.2717(2) 0.8194(6) 0.58378(16)
H39_4 H 0.264141 0.720819 0.587269
C52_4 C 0.41713(16) 0.6951(6) 0.87922(14)
H40_4 H 0.432362 0.604335 0.879763
C54_4 C 0.32840(18) 0.9810(6) 0.98842(17)
C10_4 C 0.69482(13) 0.9611(4) 0.40181(11)
H7_4 H 0.673762 0.881192 0.385724
H13_4 H 0.644345 0.947127 0.123331
H14_4 H 0.611001 0.987591 0.174498
C26_4 C 0.6456(2) 0.9941(7) 0.03630(19)
H20_4 H 0.629904 0.905615 0.037209
N1_3 N 0.12440(10) 0.9831(3) 0.38595(9)
H1_3 H 0.141510 0.981518 0.329159
C5_3 C 0.07618(12) 0.9141(4) 0.36745(12)
C9_3 C 0.03901(13) 0.9481(5) 0.32218(12)
C12_3 C 0.02029(15) 0.7508(5) 0.37843(14)
H9_3 H 0.013669 0.686713 0.398004
C16_3 C 0.06763(14) 0.8114(5) 0.39581(14)
H12_3 H 0.093430 0.783983 0.426016
N8_3 N 0.87560(10) 0.0169(3) 0.61405(9)
H22_3 H 0.858490 0.018482 0.670841
C32_3 C 0.92382(12) 0.0859(4) 0.63255(12)
C36_3 C 0.96099(13) 0.0519(5) 0.67782(12)
C39_3 C 0.97971(15) 0.2492(5) 0.62157(14)
H30_3 H 0.986331 0.313287 0.601996
C43_3 C 0.93237(14) 0.1886(5) 0.60419(14)
H33_3 H 0.906570 0.216017 0.573984
N8_4 N 0.12440(10) 0.0169(3) 0.88595(9)
H22_4 H 0.141510 0.018482 0.829159
C32_4 C 0.07618(12) 0.0859(4) 0.86745(12)
C36_4 C 0.03901(13) 0.0519(5) 0.82218(12)
C39_4 C 0.02029(15) 0.2492(5) 0.87843(14)
H30_4 H 0.013669 0.313287 0.898004
C43_4 C 0.06763(14) 0.1886(5) 0.89581(14)
H33_4 H 0.093430 0.216017 0.926016
N1_4 N 0.87560(10) 0.9831(3) 0.11405(9)
H1_4 H 0.858490 0.981518 0.170841
C5_4 C 0.92382(12) 0.9141(4) 0.13255(12)
C9_4 C 0.96099(13) 0.9481(5) 0.17782(12)
C12_4 C 0.97971(15) 0.7508(5) 0.12157(14)
H9_4 H 0.986331 0.686713 0.101996
C16_4 C 0.93237(14) 0.8114(5) 0.10419(14)
H12_4 H 0.906570 0.783983 0.073984
H42_4 H 0.322645 0.051046 0.007095
H21_4 H 0.677355 0.948954 0.992905
loop_
_geom_bond_atom_site_label_1
_geom_bond_atom_site_label_2
_geom_bond_site_symmetry_1
_geom_bond_site_symmetry_2
Cd1 N3 1_555 1_555
N3 C3 1_555 1_555
H2 C3 1_555 1_555
C4 N3 1_555 1_555
H3 C4 1_555 1_555
N9 C37 1_555 1_555
N11 Cd1 1_555 1_555
N12 C29 1_555 1_555
N13 C33 1_555 1_555
C29 C35 1_555 1_555
N14 C34 1_555 1_555
C33 N11 1_555 1_555
H25 C33 1_555 1_555
C34 C38 1_555 1_555
C35 H26 1_555 1_555
C37 N12 1_555 1_555
H28 C37 1_555 1_555
H29 C38 1_555 1_555
C40 N13 1_555 1_555
C41 C35 1_555 1_555
H31 C41 1_555 1_555
C42 C29 1_555 1_555
H32 C42 1_555 1_555
C44 N14 1_555 1_555
C45 C40 1_555 1_555
H34 C45 1_555 1_555
C46 C45 1_555 1_555
H35 C46 1_555 1_555
C47 C42 1_555 1_555
H36 C47 1_555 1_555
C48 N14 1_555 1_555
C49 N9 1_555 1_555
H37 C49 1_555 1_555
C50 C40 1_555 1_555
H38 C50 1_555 1_555
C51 N12 1_555 1_555
H39 C51 1_555 1_555
C52 C48 1_555 1_555
H40 C52 1_555 1_555
C53 N13 1_555 1_555
H41 C53 1_555 1_555
C54 N11 1_555 1_555
H42 C54 1_555 1_555
Cd4_2 N9 1_555 1_555
N15 Cd1 1_555 1_555
N16 Cd1 1_555 1_555
N17 Cd1 1_555 1_555
N18 Cd1 1_555 1_555
C1 C4 1_555 1_555
C41 C44 1_555 1_555
C44 C47 1_555 1_555
C46 C48 1_555 1_555
C49 C51 1_555 1_555
C50 C52 1_555 1_555
C53 C54 1_555 1_555
N2 C10 1_555 1_555
N4 C6 1_555 1_555
N5 C2 1_555 1_555
N6 C6 1_555 1_555
C2 C8 1_555 1_555
N7 C7 1_555 1_555
C6 H4 1_555 1_555
C7 C11 1_555 1_555
C8 H5 1_555 1_555
C10 N5 1_555 1_555
H7 C10 1_555 1_555
H8 C11 1_555 1_555
C13 N6 1_555 1_555
C14 C8 1_555 1_555
H10 C14 1_555 1_555
C15 C2 1_555 1_555
H11 C15 1_555 1_555
C17 N7 1_555 1_555
C18 C13 1_555 1_555
H13 C18 1_555 1_555
C19 C18 1_555 1_555
H14 C19 1_555 1_555
C20 C15 1_555 1_555
H15 C20 1_555 1_555
C21 N7 1_555 1_555
C22 N2 1_555 1_555
H16 C22 1_555 1_555
C23 C13 1_555 1_555
H17 C23 1_555 1_555
C24 N5 1_555 1_555
H18 C24 1_555 1_555
C25 C21 1_555 1_555
H19 C25 1_555 1_555
C26 N6 1_555 1_555
H20 C26 1_555 1_555
C27 N4 1_555 1_555
H21 C27 1_555 1_555
N10 C30 1_555 1_555
H23 C30 1_555 1_555
C31 N10 1_555 1_555
H24 C31 1_555 1_555
Cd2 N2 1_555 1_555
Cd3 N4 1_555 1_555
C14 C17 1_555 1_555
C17 C20 1_555 1_555
C19 C21 1_555 1_555
C22 C24 1_555 1_555
C23 C25 1_555 1_555
C26 C27 1_555 1_555
N10 Cd3 1_555 1_555
C28 C31 1_555 1_555
N15 C10_2 1_555 1_555
N4_2 C6_2 1_555 1_555
N5_2 C2_2 1_555 1_555
N6_2 C6_2 1_555 1_555
C2_2 C8_2 1_555 1_555
N7_2 C7_2 1_555 1_555
C6_2 H4_2 1_555 1_555
C7_2 C11_2 1_555 1_555
C8_2 H5_2 1_555 1_555
C10_2 N5_2 1_555 1_555
H7_2 C10_2 1_555 1_555
H8_2 C11_2 1_555 1_555
C13_2 N6_2 1_555 1_555
C14_2 C8_2 1_555 1_555
H10_2 C14_2 1_555 1_555
C15_2 C2_2 1_555 1_555
H11_2 C15_2 1_555 1_555
C17_2 N7_2 1_555 1_555
C18_2 C13_2 1_555 1_555
H13_2 C18_2 1_555 1_555
C19_2 C18_2 1_555 1_555
H14_2 C19_2 1_555 1_555
C20_2 C15_2 1_555 1_555
H15_2 C20_2 1_555 1_555
C21_2 N7_2 1_555 1_555
C22_2 N15 1_555 1_555
H16_2 C22_2 1_555 1_555
C23_2 C13_2 1_555 1_555
H17_2 C23_2 1_555 1_555
C24_2 N5_2 1_555 1_555
H18_2 C24_2 1_555 1_555
C25_2 C21_2 1_555 1_555
H19_2 C25_2 1_555 1_555
C26_2 N6_2 1_555 1_555
H20_2 C26_2 1_555 1_555
C27_2 N4_2 1_555 1_555
Cd4 N4_2 1_555 1_555
C14_2 C17_2 1_555 1_555
C17_2 C20_2 1_555 1_555
C19_2 C21_2 1_555 1_555
C22_2 C24_2 1_555 1_555
C23_2 C25_2 1_555 1_555
C26_2 C27_2 1_555 1_555
N10_2 C30_2 1_555 1_555
H23_2 C30_2 1_555 1_555
C31_2 N10_2 1_555 1_555
H24_2 C31_2 1_555 1_555
N10_2 Cd4_2 1_555 1_555
C28_2 C31_2 1_555 1_555
Cd2 N3_2 1_555 1_555
N3_2 C3_2 1_555 1_555
H2_2 C3_2 1_555 1_555
C4_2 N3_2 1_555 1_555
H3_2 C4_2 1_555 1_555
N18_2 Cd2 1_555 1_555
C1_2 C4_2 1_555 1_555
N9_2 C37_2 1_555 1_555
N11_2 Cd2_2 1_555 1_555
N12_2 C29_2 1_555 1_555
N13_2 C33_2 1_555 1_555
C29_2 C35_2 1_555 1_555
N14_2 C34_2 1_555 1_555
C33_2 N11_2 1_555 1_555
H25_2 C33_2 1_555 1_555
C34_2 C38_2 1_555 1_555
C35_2 H26_2 1_555 1_555
C37_2 N12_2 1_555 1_555
H28_2 C37_2 1_555 1_555
H29_2 C38_2 1_555 1_555
C40_2 N13_2 1_555 1_555
C41_2 C35_2 1_555 1_555
H31_2 C41_2 1_555 1_555
C42_2 C29_2 1_555 1_555
H32_2 C42_2 1_555 1_555
C44_2 N14_2 1_555 1_555
C45_2 C40_2 1_555 1_555
H34_2 C45_2 1_555 1_555
C46_2 C45_2 1_555 1_555
H35_2 C46_2 1_555 1_555
C47_2 C42_2 1_555 1_555
H36_2 C47_2 1_555 1_555
C48_2 N14_2 1_555 1_555
C49_2 N9_2 1_555 1_555
H37_2 C49_2 1_555 1_555
C50_2 C40_2 1_555 1_555
H38_2 C50_2 1_555 1_555
C51_2 N12_2 1_555 1_555
H39_2 C51_2 1_555 1_555
C52_2 C48_2 1_555 1_555
H40_2 C52_2 1_555 1_555
C53_2 N13_2 1_555 1_555
H41_2 C53_2 1_555 1_555
C54_2 N11_2 1_555 1_555
Cd3 N9_2 1_555 1_555
N16_2 Cd2_2 1_555 1_555
N17_2 Cd2_2 1_555 1_555
C41_2 C44_2 1_555 1_555
C44_2 C47_2 1_555 1_555
C46_2 C48_2 1_555 1_555
C49_2 C51_2 1_555 1_555
C50_2 C52_2 1_555 1_555
C53_2 C54_2 1_555 1_555
N16_2 C37_3 1_555 1_555
H28_3 C37_3 1_555 1_555
H41_3 C53_3 1_555 1_555
Cd3 N3_3 1_555 1_555
N1 C1_3 1_555 1_555
N3_3 C3_3 1_555 1_555
N18 C6_3 1_555 1_555
N5_3 C2_3 1_555 1_555
N6_3 C6_3 1_555 1_555
C1_3 H1 1_555 1_555
C2_3 C8_3 1_555 1_555
C3_3 N1 1_555 1_555
H2_3 C3_3 1_555 1_555
C4_3 N3_3 1_555 1_555
H3_3 C4_3 1_555 1_555
N7_3 C7_3 1_555 1_555
C5 N1 1_555 1_555
C6_3 H4_3 1_555 1_555
C7_3 C11_3 1_555 1_555
C8_3 H5_3 1_555 1_555
C9 C5 1_555 1_555
H6_3 C9 1_555 1_555
C11_3 C9 1_555 1_555
H8_3 C11_3 1_555 1_555
C12 C7_3 1_555 1_555
H9 C12 1_555 1_555
C13_3 N6_3 1_555 1_555
C14_3 C8_3 1_555 1_555
H10_3 C14_3 1_555 1_555
C15_3 C2_3 1_555 1_555
H11_3 C15_3 1_555 1_555
C16 C5 1_555 1_555
H12 C16 1_555 1_555
C17_3 N7_3 1_555 1_555
C18_3 C13_3 1_555 1_555
C19_3 C18_3 1_555 1_555
C20_3 C15_3 1_555 1_555
H15_3 C20_3 1_555 1_555
C21_3 N7_3 1_555 1_555
H16_3 C22_3 1_555 1_555
C23_3 C13_3 1_555 1_555
H17_3 C23_3 1_555 1_555
C24_3 N5_3 1_555 1_555
H18_3 C24_3 1_555 1_555
C25_3 C21_3 1_555 1_555
H19_3 C25_3 1_555 1_555
C27_3 N18 1_555 1_555
N8 C28_3 1_555 1_555
N17 C30_3 1_555 1_555
N11_3 Cd3 1_555 1_555
N12_3 C29_3 1_555 1_555
N13_3 C33_3 1_555 1_555
C28_3 H22 1_555 1_555
C29_3 C35_3 1_555 1_555
C30_3 N8 1_555 1_555
H23_3 C30_3 1_555 1_555
C31_3 N17 1_555 1_555
H24_3 C31_3 1_555 1_555
N14_3 C34_3 1_555 1_555
C32 N8 1_555 1_555
C33_3 N11_3 1_555 1_555
H25_3 C33_3 1_555 1_555
C34_3 C38_3 1_555 1_555
C35_3 H26_3 1_555 1_555
C36 C32 1_555 1_555
H27_3 C36 1_555 1_555
C38_3 C36 1_555 1_555
H29_3 C38_3 1_555 1_555
C39 C34_3 1_555 1_555
H30 C39 1_555 1_555
C40_3 N13_3 1_555 1_555
C41_3 C35_3 1_555 1_555
H31_3 C41_3 1_555 1_555
C42_3 C29_3 1_555 1_555
H32_3 C42_3 1_555 1_555
C43 C32 1_555 1_555
H33 C43 1_555 1_555
C44_3 N14_3 1_555 1_555
C45_3 C40_3 1_555 1_555
C46_3 C45_3 1_555 1_555
C47_3 C42_3 1_555 1_555
H36_3 C47_3 1_555 1_555
C48_3 N14_3 1_555 1_555
H37_3 C49_3 1_555 1_555
C50_3 C40_3 1_555 1_555
H38_3 C50_3 1_555 1_555
C51_3 N12_3 1_555 1_555
H39_3 C51_3 1_555 1_555
C52_3 C48_3 1_555 1_555
H40_3 C52_3 1_555 1_555
C54_3 N11_3 1_555 1_555
N15_2 Cd3 1_555 1_555
C1_3 C4_3 1_555 1_555
C12 C16 1_555 1_555
C14_3 C17_3 1_555 1_555
C17_3 C20_3 1_555 1_555
C19_3 C21_3 1_555 1_555
C22_3 C24_3 1_555 1_555
C23_3 C25_3 1_555 1_555
C28_3 C31_3 1_555 1_555
C39 C43 1_555 1_555
C41_3 C44_3 1_555 1_555
C44_3 C47_3 1_555 1_555
C46_3 C48_3 1_555 1_555
C49_3 C51_3 1_555 1_555
C50_3 C52_3 1_555 1_555
N2_2 C10_3 1_555 1_555
H7_3 C10_3 1_555 1_555
H20_3 C26_3 1_555 1_555
Cd4 N2_2 1_555 1_555
N16 C37_4 1_555 1_555
H28_4 C37_4 1_555 1_555
H41_4 C53_4 1_555 1_555
Cd4 N3_4 1_555 1_555
N1_2 C1_4 1_555 1_555
N3_4 C3_4 1_555 1_555
N18_2 C6_4 1_555 1_555
N5_4 C2_4 1_555 1_555
N6_4 C6_4 1_555 1_555
C1_4 H1_2 1_555 1_555
C2_4 C8_4 1_555 1_555
C3_4 N1_2 1_555 1_555
H2_4 C3_4 1_555 1_555
C4_4 N3_4 1_555 1_555
H3_4 C4_4 1_555 1_555
N7_4 C7_4 1_555 1_555
C5_2 N1_2 1_555 1_555
C6_4 H4_4 1_555 1_555
C7_4 C11_4 1_555 1_555
C8_4 H5_4 1_555 1_555
C9_2 C5_2 1_555 1_555
H6_4 C9_2 1_555 1_555
C11_4 C9_2 1_555 1_555
H8_4 C11_4 1_555 1_555
C12_2 C7_4 1_555 1_555
H9_2 C12_2 1_555 1_555
C13_4 N6_4 1_555 1_555
C14_4 C8_4 1_555 1_555
H10_4 C14_4 1_555 1_555
C15_4 C2_4 1_555 1_555
H11_4 C15_4 1_555 1_555
C16_2 C5_2 1_555 1_555
H12_2 C16_2 1_555 1_555
C17_4 N7_4 1_555 1_555
C18_4 C13_4 1_555 1_555
C19_4 C18_4 1_555 1_555
C20_4 C15_4 1_555 1_555
H15_4 C20_4 1_555 1_555
C21_4 N7_4 1_555 1_555
H16_4 C22_4 1_555 1_555
C23_4 C13_4 1_555 1_555
H17_4 C23_4 1_555 1_555
C24_4 N5_4 1_555 1_555
H18_4 C24_4 1_555 1_555
C25_4 C21_4 1_555 1_555
H19_4 C25_4 1_555 1_555
C27_4 N18_2 1_555 1_555
C1_4 C4_4 1_555 1_555
C12_2 C16_2 1_555 1_555
C14_4 C17_4 1_555 1_555
C17_4 C20_4 1_555 1_555
C19_4 C21_4 1_555 1_555
C22_4 C24_4 1_555 1_555
C23_4 C25_4 1_555 1_555
N8_2 C28_4 1_555 1_555
N17_2 C30_4 1_555 1_555
N11_4 Cd4_2 1_555 1_555
N12_4 C29_4 1_555 1_555
N13_4 C33_4 1_555 1_555
C28_4 H22_2 1_555 1_555
C29_4 C35_4 1_555 1_555
C30_4 N8_2 1_555 1_555
H23_4 C30_4 1_555 1_555
C31_4 N17_2 1_555 1_555
H24_4 C31_4 1_555 1_555
N14_4 C34_4 1_555 1_555
C32_2 N8_2 1_555 1_555
C33_4 N11_4 1_555 1_555
H25_4 C33_4 1_555 1_555
C34_4 C38_4 1_555 1_555
C35_4 H26_4 1_555 1_555
C36_2 C32_2 1_555 1_555
H27_4 C36_2 1_555 1_555
C38_4 C36_2 1_555 1_555
H29_4 C38_4 1_555 1_555
C39_2 C34_4 1_555 1_555
H30_2 C39_2 1_555 1_555
C40_4 N13_4 1_555 1_555
C41_4 C35_4 1_555 1_555
H31_4 C41_4 1_555 1_555
C42_4 C29_4 1_555 1_555
H32_4 C42_4 1_555 1_555
C43_2 C32_2 1_555 1_555
H33_2 C43_2 1_555 1_555
C44_4 N14_4 1_555 1_555
C45_4 C40_4 1_555 1_555
C46_4 C45_4 1_555 1_555
C47_4 C42_4 1_555 1_555
H36_4 C47_4 1_555 1_555
C48_4 N14_4 1_555 1_555
H37_4 C49_4 1_555 1_555
C50_4 C40_4 1_555 1_555
H38_4 C50_4 1_555 1_555
C51_4 N12_4 1_555 1_555
H39_4 C51_4 1_555 1_555
C52_4 C48_4 1_555 1_555
H40_4 C52_4 1_555 1_555
C54_4 N11_4 1_555 1_555
C28_4 C31_4 1_555 1_555
C39_2 C43_2 1_555 1_555
C41_4 C44_4 1_555 1_555
C44_4 C47_4 1_555 1_555
C46_4 C48_4 1_555 1_555
C49_4 C51_4 1_555 1_555
C50_4 C52_4 1_555 1_555
N15_2 C10_4 1_555 1_555
H7_4 C10_4 1_555 1_555
H20_4 C26_4 1_555 1_555
C5_3 N1_3 1_555 1_555
C9_3 C5_3 1_555 1_555
H9_3 C12_3 1_555 1_555
C16_3 C5_3 1_555 1_555
H12_3 C16_3 1_555 1_555
C12_3 C16_3 1_555 1_555
C32_3 N8_3 1_555 1_555
C36_3 C32_3 1_555 1_555
H30_3 C39_3 1_555 1_555
C43_3 C32_3 1_555 1_555
H33_3 C43_3 1_555 1_555
C39_3 C43_3 1_555 1_555
C32_4 N8_4 1_555 1_555
C36_4 C32_4 1_555 1_555
H30_4 C39_4 1_555 1_555
C43_4 C32_4 1_555 1_555
H33_4 C43_4 1_555 1_555
C39_4 C43_4 1_555 1_555
C5_4 N1_4 1_555 1_555
C9_4 C5_4 1_555 1_555
H9_4 C12_4 1_555 1_555
C16_4 C5_4 1_555 1_555
H12_4 C16_4 1_555 1_555
C12_4 C16_4 1_555 1_555

#END
