
###############################################################################
#
# This file contains modified crystal structure data generated from the
# MOF subset of the Cambridge Structural Database (CSD) v543 
# hosted by the Cambridge Crystallographic Data Centre (CCDC).
#
# This work is licensed under the Creative Commons
# Attribution-NonCommercial-ShareAlike 4.0 International License.
# To view a copy of this license, visit
# http://creativecommons.org/licenses/by-nc-sa/4.0/
# or send a letter to
# Creative Commons, PO Box 1866, Mountain View, CA 94042, USA.
#
# CIF created using the CSD Python API on 29 September 2022
# The structure has been converted into the P1 space group
# The structure has a 3D framework
# The original CSD entry MOYMET is in the tetragonal crystal system
# The framework has been calculated to contain at least 10.0% void space
# The void calculation uses a probe of radius 1.32A, grid spacing 0.4
#
###############################################################################

data_MOYMET
_chemical_formula_moiety         '(C96 H136 Co8 O52)n'
_symmetry_cell_setting           triclinic
_symmetry_space_group_name_H-M   'P 1'
_symmetry_Int_Tables_number      1
_space_group_name_Hall           'P 1'
loop_
_symmetry_equiv_pos_site_id
_symmetry_equiv_pos_as_xyz
1 x,y,z
_cell_length_a                   22.1138(10)
_cell_length_b                   22.1138(10)
_cell_length_c                   8.0576(8)
_cell_angle_alpha                90
_cell_angle_beta                 90
_cell_angle_gamma                90
_cell_volume                     3940.33
loop_
_atom_site_label
_atom_site_type_symbol
_atom_site_fract_x
_atom_site_fract_y
_atom_site_fract_z
O7 O 0.22800(4) 0.78302(4) 0.00779(13)
H5 H 0.1845 0.7774 0.0078
H6 H 0.2342 0.8264 0.0078
C5 C 0.16582(7) 0.50566(7) 0.03363(18)
H9 H 0.1768 0.5964 0.0108
C9 C 0.12979(7) 0.50725(7) 0.19557(19)
C10 C 0.17005(11) 0.53406(14) 0.3317(3)
H10 H 0.2078 0.5126 0.3348
H11 H 0.1501 0.5304 0.4370
H12 H 0.1775 0.5760 0.3084
C11 C 0.07487(10) 0.54755(11) 0.1742(3)
H13 H 0.0525 0.5489 0.2763
H14 H 0.0496 0.5317 0.0877
H15 H 0.0877 0.5876 0.1452
C12 C 0.10820(12) 0.44486(10) 0.2484(3)
H16 H 0.1424 0.4186 0.2617
H17 H 0.0817 0.4287 0.1650
H18 H 0.0868 0.4479 0.3518
Co3 Co 0.255365(8) 0.755199(9) 0.25767(2)
Co1 Co 0.255199(9) 0.755365(8) 0.75767(2)
O1 O 0.23530(6) 0.66645(4) 0.82550(13)
O2 O 0.26261(7) 0.61778(5) 0.59560(14)
O3 O 0.22608(5) 0.34441(4) 0.81120(13)
O4 O 0.24984(8) 0.39330(5) 0.57862(14)
O5 O 0.34106(5) 0.74561(6) 0.85370(14)
H1 H 0.3469 0.7527 0.9550
H2 H 0.3470 0.7065 0.8438
O6 O 0.16953(5) 0.76509(6) 0.66097(15)
H3 H 0.1730 0.7490 0.5681
H4 H 0.1345 0.7797 0.6715
C1 C 0.21986(7) 0.55999(6) 0.81450(19)
C2 C 0.23438(7) 0.50563(6) 0.73635(17)
H7 H 0.2564 0.5056 0.6380
C3 C 0.21548(7) 0.45116(6) 0.80728(18)
C4 C 0.18148(7) 0.45158(7) 0.95396(19)
H8 H 0.1690 0.4150 0.9996
C6 C 0.18616(7) 0.55974(7) 0.96032(19)
C7 C 0.24088(7) 0.61848(7) 0.73874(18)
C8 C 0.23168(7) 0.39235(6) 0.72466(19)
Co2 Co 0.244801(9) 0.255365(8) 0.74233(2)
O8 O 0.27392(5) 0.84441(4) 0.68880(13)
O9 O 0.28302(4) 0.72800(4) 0.50779(13)
H19 H 0.2774 0.6845 0.5078
H20 H 0.3264 0.7342 0.5078
O7_2 O 0.77200(4) 0.21698(4) 0.00779(13)
H5_2 H 0.8155 0.2226 0.0078
H6_2 H 0.7658 0.1736 0.0078
C5_2 C 0.83418(7) 0.49434(7) 0.03363(18)
H9_2 H 0.8232 0.4036 0.0108
C9_2 C 0.87021(7) 0.49275(7) 0.19557(19)
C10_2 C 0.82995(11) 0.46594(14) 0.3317(3)
H10_2 H 0.7922 0.4874 0.3348
H11_2 H 0.8499 0.4696 0.4370
H12_2 H 0.8225 0.4240 0.3084
C11_2 C 0.92513(10) 0.45245(11) 0.1742(3)
H13_2 H 0.9475 0.4511 0.2763
H14_2 H 0.9504 0.4683 0.0877
H15_2 H 0.9123 0.4124 0.1452
C12_2 C 0.89180(12) 0.55514(10) 0.2484(3)
H16_2 H 0.8576 0.5814 0.2617
H17_2 H 0.9183 0.5713 0.1650
H18_2 H 0.9132 0.5521 0.3518
Co3_2 Co 0.744635(8) 0.244801(9) 0.25767(2)
Co1_2 Co 0.744801(9) 0.244635(8) 0.75767(2)
O1_2 O 0.76470(6) 0.33355(4) 0.82550(13)
O2_2 O 0.73739(7) 0.38222(5) 0.59560(14)
O3_2 O 0.77392(5) 0.65559(4) 0.81120(13)
O4_2 O 0.75016(8) 0.60670(5) 0.57862(14)
O5_2 O 0.65894(5) 0.25439(6) 0.85370(14)
H1_2 H 0.6531 0.2473 0.9550
H2_2 H 0.6530 0.2935 0.8438
O6_2 O 0.83047(5) 0.23491(6) 0.66097(15)
H3_2 H 0.8270 0.2510 0.5681
H4_2 H 0.8655 0.2203 0.6715
C1_2 C 0.78014(7) 0.44001(6) 0.81450(19)
C2_2 C 0.76562(7) 0.49437(6) 0.73635(17)
H7_2 H 0.7436 0.4944 0.6380
C3_2 C 0.78452(7) 0.54884(6) 0.80728(18)
C4_2 C 0.81852(7) 0.54842(7) 0.95396(19)
H8_2 H 0.8310 0.5850 0.9996
C6_2 C 0.81384(7) 0.44026(7) 0.96032(19)
C7_2 C 0.75912(7) 0.38152(7) 0.73874(18)
C8_2 C 0.76832(7) 0.60765(6) 0.72466(19)
Co2_2 Co 0.755199(9) 0.744635(8) 0.74233(2)
O8_2 O 0.72608(5) 0.15559(4) 0.68880(13)
O9_2 O 0.71698(4) 0.27200(4) 0.50779(13)
H19_2 H 0.7226 0.3155 0.5078
H20_2 H 0.6736 0.2658 0.5078
Co1_3 Co 0.755365(8) 0.744801(9) 0.24233(2)
O1_3 O 0.66645(4) 0.76470(6) 0.17450(13)
O2_3 O 0.61778(5) 0.73739(7) 0.40440(14)
O3_3 O 0.34441(4) 0.77392(5) 0.18880(13)
O4_3 O 0.39330(5) 0.75016(8) 0.42138(14)
O5_3 O 0.74561(6) 0.65894(5) 0.14630(14)
H1_3 H 0.7527 0.6531 0.0450
H2_3 H 0.7065 0.6530 0.1562
O6_3 O 0.76509(6) 0.83047(5) 0.33903(15)
H3_3 H 0.7490 0.8270 0.4319
H4_3 H 0.7797 0.8655 0.3285
C1_3 C 0.55999(6) 0.78014(7) 0.18550(19)
C2_3 C 0.50563(6) 0.76562(7) 0.26365(17)
H7_3 H 0.5056 0.7436 0.3620
C3_3 C 0.45116(6) 0.78452(7) 0.19272(18)
C4_3 C 0.45158(7) 0.81852(7) 0.04604(19)
H8_3 H 0.4150 0.8310 0.0004
C6_3 C 0.55974(7) 0.81384(7) 0.03968(19)
C7_3 C 0.61848(7) 0.75912(7) 0.26126(18)
C8_3 C 0.39235(6) 0.76832(7) 0.27534(19)
O8_3 O 0.84441(4) 0.72608(5) 0.31120(13)
O9_3 O 0.72800(4) 0.71698(4) 0.49221(13)
H19_3 H 0.6845 0.7226 0.4922
H20_3 H 0.7342 0.6736 0.4922
O7_3 O 0.78302(4) 0.77200(4) 0.99221(13)
H5_3 H 0.7774 0.8155 0.9922
H6_3 H 0.8264 0.7658 0.9922
C5_3 C 0.50566(7) 0.83418(7) 0.96637(18)
H9_3 H 0.5964 0.8232 0.9892
C9_3 C 0.50725(7) 0.87021(7) 0.80443(19)
C10_3 C 0.53406(14) 0.82995(11) 0.6683(3)
H10_3 H 0.5126 0.7922 0.6652
H11_3 H 0.5304 0.8499 0.5630
H12_3 H 0.5760 0.8225 0.6916
C11_3 C 0.54755(11) 0.92513(10) 0.8258(3)
H13_3 H 0.5489 0.9475 0.7237
H14_3 H 0.5317 0.9504 0.9123
H15_3 H 0.5876 0.9123 0.8548
C12_3 C 0.44486(10) 0.89180(12) 0.7516(3)
H16_3 H 0.4186 0.8576 0.7383
H17_3 H 0.4287 0.9183 0.8350
H18_3 H 0.4479 0.9132 0.6482
Co1_4 Co 0.244635(8) 0.255199(9) 0.24233(2)
O1_4 O 0.33355(4) 0.23530(6) 0.17450(13)
O2_4 O 0.38222(5) 0.26261(7) 0.40440(14)
O3_4 O 0.65559(4) 0.22608(5) 0.18880(13)
O4_4 O 0.60670(5) 0.24984(8) 0.42138(14)
O5_4 O 0.25439(6) 0.34106(5) 0.14630(14)
H1_4 H 0.2473 0.3469 0.0450
H2_4 H 0.2935 0.3470 0.1562
O6_4 O 0.23491(6) 0.16953(5) 0.33903(15)
H3_4 H 0.2510 0.1730 0.4319
H4_4 H 0.2203 0.1345 0.3285
C1_4 C 0.44001(6) 0.21986(7) 0.18550(19)
C2_4 C 0.49437(6) 0.23438(7) 0.26365(17)
H7_4 H 0.4944 0.2564 0.3620
C3_4 C 0.54884(6) 0.21548(7) 0.19272(18)
C4_4 C 0.54842(7) 0.18148(7) 0.04604(19)
H8_4 H 0.5850 0.1690 0.0004
C6_4 C 0.44026(7) 0.18616(7) 0.03968(19)
C7_4 C 0.38152(7) 0.24088(7) 0.26126(18)
C8_4 C 0.60765(6) 0.23168(7) 0.27534(19)
O8_4 O 0.15559(4) 0.27392(5) 0.31120(13)
O9_4 O 0.27200(4) 0.28302(4) 0.49221(13)
H19_4 H 0.3155 0.2774 0.4922
H20_4 H 0.2658 0.3264 0.4922
O7_4 O 0.21698(4) 0.22800(4) 0.99221(13)
H5_4 H 0.2226 0.1845 0.9922
H6_4 H 0.1736 0.2342 0.9922
C5_4 C 0.49434(7) 0.16582(7) 0.96637(18)
H9_4 H 0.4036 0.1768 0.9892
C9_4 C 0.49275(7) 0.12979(7) 0.80443(19)
C10_4 C 0.46594(14) 0.17005(11) 0.6683(3)
H10_4 H 0.4874 0.2078 0.6652
H11_4 H 0.4696 0.1501 0.5630
H12_4 H 0.4240 0.1775 0.6916
C11_4 C 0.45245(11) 0.07487(10) 0.8258(3)
H13_4 H 0.4511 0.0525 0.7237
H14_4 H 0.4683 0.0496 0.9123
H15_4 H 0.4124 0.0877 0.8548
C12_4 C 0.55514(10) 0.10820(12) 0.7516(3)
H16_4 H 0.5814 0.1424 0.7383
H17_4 H 0.5713 0.0817 0.8350
H18_4 H 0.5521 0.0868 0.6482
O1_5 O 0.26470(6) 0.16645(4) 0.67450(13)
O2_5 O 0.23739(7) 0.11778(5) 0.90440(14)
O5_5 O 0.15894(5) 0.24561(6) 0.64630(14)
H1_5 H 0.1531 0.2527 0.5450
H2_5 H 0.1530 0.2065 0.6562
O6_5 O 0.33047(5) 0.26509(6) 0.83903(15)
H3_5 H 0.3270 0.2490 0.9319
H4_5 H 0.3655 0.2797 0.8285
C1_5 C 0.28014(7) 0.05999(6) 0.68550(19)
C2_5 C 0.26562(7) 0.00563(6) 0.76365(17)
H7_5 H 0.2436 0.0056 0.8620
C5_5 C 0.33418(7) 0.00566(7) 0.46637(18)
C6_5 C 0.31384(7) 0.05974(7) 0.53968(19)
H9_5 H 0.3232 0.0964 0.4892
C7_5 C 0.25912(7) 0.11848(7) 0.76126(18)
C9_5 C 0.37021(7) 0.00725(7) 0.30443(19)
C10_5 C 0.32995(11) 0.03406(14) 0.1683(3)
H10_5 H 0.2922 0.0126 0.1652
H11_5 H 0.3499 0.0304 0.0630
H12_5 H 0.3225 0.0760 0.1916
C11_5 C 0.42513(10) 0.04755(11) 0.3258(3)
H13_5 H 0.4475 0.0489 0.2237
H14_5 H 0.4504 0.0317 0.4123
H15_5 H 0.4123 0.0876 0.3548
O4_5 O 0.25016(8) 0.89330(5) 0.92138(14)
C3_5 C 0.28452(7) 0.95116(6) 0.69272(18)
C4_5 C 0.31852(7) 0.95158(7) 0.54604(19)
H8_5 H 0.3310 0.9150 0.5004
C8_5 C 0.26832(7) 0.89235(6) 0.77534(19)
C12_5 C 0.39180(12) 0.94486(10) 0.2516(3)
H16_5 H 0.3576 0.9186 0.2383
H17_5 H 0.4183 0.9287 0.3350
H18_5 H 0.4132 0.9479 0.1482
O4_6 O 0.74984(8) 0.10670(5) 0.92138(14)
C3_6 C 0.71548(7) 0.04884(6) 0.69272(18)
C4_6 C 0.68148(7) 0.04842(7) 0.54604(19)
H8_6 H 0.6690 0.0850 0.5004
C8_6 C 0.73168(7) 0.10765(6) 0.77534(19)
C12_6 C 0.60820(12) 0.05514(10) 0.2516(3)
H16_6 H 0.6424 0.0814 0.2383
H17_6 H 0.5817 0.0713 0.3350
H18_6 H 0.5868 0.0521 0.1482
O1_6 O 0.73530(6) 0.83355(4) 0.67450(13)
O2_6 O 0.76261(7) 0.88222(5) 0.90440(14)
O5_6 O 0.84106(5) 0.75439(6) 0.64630(14)
H1_6 H 0.8469 0.7473 0.5450
H2_6 H 0.8470 0.7935 0.6562
O6_6 O 0.66953(5) 0.73491(6) 0.83903(15)
H3_6 H 0.6730 0.7510 0.9319
H4_6 H 0.6345 0.7203 0.8285
C1_6 C 0.71986(7) 0.94001(6) 0.68550(19)
C2_6 C 0.73438(7) 0.99437(6) 0.76365(17)
H7_6 H 0.7564 0.9944 0.8620
C5_6 C 0.66582(7) 0.99434(7) 0.46637(18)
C6_6 C 0.68616(7) 0.94026(7) 0.53968(19)
H9_6 H 0.6768 0.9036 0.4892
C7_6 C 0.74088(7) 0.88152(7) 0.76126(18)
C9_6 C 0.62979(7) 0.99275(7) 0.30443(19)
C10_6 C 0.67005(11) 0.96594(14) 0.1683(3)
H10_6 H 0.7078 0.9874 0.1652
H11_6 H 0.6501 0.9696 0.0630
H12_6 H 0.6775 0.9240 0.1916
C11_6 C 0.57487(10) 0.95245(11) 0.3258(3)
H13_6 H 0.5525 0.9511 0.2237
H14_6 H 0.5496 0.9683 0.4123
H15_6 H 0.5877 0.9124 0.3548
O4_7 O 0.10670(5) 0.25016(8) 0.07862(14)
C3_7 C 0.04884(6) 0.28452(7) 0.30728(18)
C4_7 C 0.04842(7) 0.31852(7) 0.45396(19)
H8_7 H 0.0850 0.3310 0.4996
C8_7 C 0.10765(6) 0.26832(7) 0.22466(19)
C12_7 C 0.05514(10) 0.39180(12) 0.7484(3)
H16_7 H 0.0814 0.3576 0.7617
H17_7 H 0.0713 0.4183 0.6650
H18_7 H 0.0521 0.4132 0.8518
O1_7 O 0.83355(4) 0.26470(6) 0.32550(13)
O2_7 O 0.88222(5) 0.23739(7) 0.09560(14)
O5_7 O 0.75439(6) 0.15894(5) 0.35370(14)
H1_7 H 0.7473 0.1531 0.4550
H2_7 H 0.7935 0.1530 0.3438
O6_7 O 0.73491(6) 0.33047(5) 0.16097(15)
H3_7 H 0.7510 0.3270 0.0681
H4_7 H 0.7203 0.3655 0.1715
C1_7 C 0.94001(6) 0.28014(7) 0.31450(19)
C2_7 C 0.99437(6) 0.26562(7) 0.23635(17)
H7_7 H 0.9944 0.2436 0.1380
C5_7 C 0.99434(7) 0.33418(7) 0.53363(18)
C6_7 C 0.94026(7) 0.31384(7) 0.46032(19)
H9_7 H 0.9036 0.3232 0.5108
C7_7 C 0.88152(7) 0.25912(7) 0.23874(18)
C9_7 C 0.99275(7) 0.37021(7) 0.69557(19)
C10_7 C 0.96594(14) 0.32995(11) 0.8317(3)
H10_7 H 0.9874 0.2922 0.8348
H11_7 H 0.9696 0.3499 0.9370
H12_7 H 0.9240 0.3225 0.8084
C11_7 C 0.95245(11) 0.42513(10) 0.6742(3)
H13_7 H 0.9511 0.4475 0.7763
H14_7 H 0.9683 0.4504 0.5877
H15_7 H 0.9124 0.4123 0.6452
O1_8 O 0.16645(4) 0.73530(6) 0.32550(13)
O2_8 O 0.11778(5) 0.76261(7) 0.09560(14)
O5_8 O 0.24561(6) 0.84106(5) 0.35370(14)
H1_8 H 0.2527 0.8469 0.4550
H2_8 H 0.2065 0.8470 0.3438
O6_8 O 0.26509(6) 0.66953(5) 0.16097(15)
H3_8 H 0.2490 0.6730 0.0681
H4_8 H 0.2797 0.6345 0.1715
C1_8 C 0.05999(6) 0.71986(7) 0.31450(19)
C2_8 C 0.00563(6) 0.73438(7) 0.23635(17)
H7_8 H 0.0056 0.7564 0.1380
C5_8 C 0.00566(7) 0.66582(7) 0.53363(18)
C6_8 C 0.05974(7) 0.68616(7) 0.46032(19)
H9_8 H 0.0964 0.6768 0.5108
C7_8 C 0.11848(7) 0.74088(7) 0.23874(18)
C9_8 C 0.00725(7) 0.62979(7) 0.69557(19)
C10_8 C 0.03406(14) 0.67005(11) 0.8317(3)
H10_8 H 0.0126 0.7078 0.8348
H11_8 H 0.0304 0.6501 0.9370
H12_8 H 0.0760 0.6775 0.8084
C11_8 C 0.04755(11) 0.57487(10) 0.6742(3)
H13_8 H 0.0489 0.5525 0.7763
H14_8 H 0.0317 0.5496 0.5877
H15_8 H 0.0876 0.5877 0.6452
O4_8 O 0.89330(5) 0.74984(8) 0.07862(14)
C3_8 C 0.95116(6) 0.71548(7) 0.30728(18)
C4_8 C 0.95158(7) 0.68148(7) 0.45396(19)
H8_8 H 0.9150 0.6690 0.4996
C8_8 C 0.89235(6) 0.73168(7) 0.22466(19)
C12_8 C 0.94486(10) 0.60820(12) 0.7484(3)
H16_8 H 0.9186 0.6424 0.7617
H17_8 H 0.9287 0.5817 0.6650
H18_8 H 0.9479 0.5868 0.8518
loop_
_geom_bond_atom_site_label_1
_geom_bond_atom_site_label_2
_geom_bond_site_symmetry_1
_geom_bond_site_symmetry_2
H5 O7 1_555 1_555
H6 O7 1_555 1_555
C9 C5 1_555 1_555
C10 C9 1_555 1_555
H10 C10 1_555 1_555
H11 C10 1_555 1_555
H12 C10 1_555 1_555
C11 C9 1_555 1_555
H13 C11 1_555 1_555
H14 C11 1_555 1_555
H15 C11 1_555 1_555
C12 C9 1_555 1_555
H16 C12 1_555 1_555
H17 C12 1_555 1_555
H18 C12 1_555 1_555
Co3 O7 1_555 1_555
Co1 O1 1_555 1_555
O1 C7 1_555 1_555
O2 C7 1_555 1_555
O3 C8 1_555 1_555
O4 C8 1_555 1_555
O5 Co1 1_555 1_555
H1 O5 1_555 1_555
H2 O5 1_555 1_555
O6 Co1 1_555 1_555
H3 O6 1_555 1_555
H4 O6 1_555 1_555
C1 C2 1_555 1_555
C2 H7 1_555 1_555
C3 C2 1_555 1_555
C4 C3 1_555 1_555
H8 C4 1_555 1_555
C6 C1 1_555 1_555
C7 C1 1_555 1_555
C8 C3 1_555 1_555
Co2 O3 1_555 1_555
O8 Co1 1_555 1_555
O9 Co1 1_555 1_555
H19 O9 1_555 1_555
H20 O9 1_555 1_555
H5_2 O7_2 1_555 1_555
H6_2 O7_2 1_555 1_555
C9_2 C5_2 1_555 1_555
C10_2 C9_2 1_555 1_555
H10_2 C10_2 1_555 1_555
H11_2 C10_2 1_555 1_555
H12_2 C10_2 1_555 1_555
C11_2 C9_2 1_555 1_555
H13_2 C11_2 1_555 1_555
H14_2 C11_2 1_555 1_555
H15_2 C11_2 1_555 1_555
C12_2 C9_2 1_555 1_555
H16_2 C12_2 1_555 1_555
H17_2 C12_2 1_555 1_555
H18_2 C12_2 1_555 1_555
Co3_2 O7_2 1_555 1_555
Co1_2 O1_2 1_555 1_555
O1_2 C7_2 1_555 1_555
O2_2 C7_2 1_555 1_555
O3_2 C8_2 1_555 1_555
O4_2 C8_2 1_555 1_555
O5_2 Co1_2 1_555 1_555
H1_2 O5_2 1_555 1_555
H2_2 O5_2 1_555 1_555
O6_2 Co1_2 1_555 1_555
H3_2 O6_2 1_555 1_555
H4_2 O6_2 1_555 1_555
C1_2 C2_2 1_555 1_555
C2_2 H7_2 1_555 1_555
C3_2 C2_2 1_555 1_555
C4_2 C3_2 1_555 1_555
H8_2 C4_2 1_555 1_555
C6_2 C1_2 1_555 1_555
C7_2 C1_2 1_555 1_555
C8_2 C3_2 1_555 1_555
Co2_2 O3_2 1_555 1_555
O8_2 Co1_2 1_555 1_555
O9_2 Co1_2 1_555 1_555
H19_2 O9_2 1_555 1_555
H20_2 O9_2 1_555 1_555
Co1_3 O1_3 1_555 1_555
O1_3 C7_3 1_555 1_555
O2_3 C7_3 1_555 1_555
O3_3 C8_3 1_555 1_555
O4_3 C8_3 1_555 1_555
O5_3 Co1_3 1_555 1_555
H1_3 O5_3 1_555 1_555
H2_3 O5_3 1_555 1_555
O6_3 Co1_3 1_555 1_555
H3_3 O6_3 1_555 1_555
H4_3 O6_3 1_555 1_555
C1_3 C2_3 1_555 1_555
C2_3 H7_3 1_555 1_555
C3_3 C2_3 1_555 1_555
C4_3 C3_3 1_555 1_555
H8_3 C4_3 1_555 1_555
C6_3 C1_3 1_555 1_555
C7_3 C1_3 1_555 1_555
C8_3 C3_3 1_555 1_555
Co3 O3_3 1_555 1_555
O8_3 Co1_3 1_555 1_555
O9_3 Co1_3 1_555 1_555
H19_3 O9_3 1_555 1_555
H20_3 O9_3 1_555 1_555
H5_3 O7_3 1_555 1_555
H6_3 O7_3 1_555 1_555
C9_3 C5_3 1_555 1_555
C10_3 C9_3 1_555 1_555
H10_3 C10_3 1_555 1_555
H11_3 C10_3 1_555 1_555
H12_3 C10_3 1_555 1_555
C11_3 C9_3 1_555 1_555
H13_3 C11_3 1_555 1_555
H14_3 C11_3 1_555 1_555
H15_3 C11_3 1_555 1_555
C12_3 C9_3 1_555 1_555
H16_3 C12_3 1_555 1_555
H17_3 C12_3 1_555 1_555
H18_3 C12_3 1_555 1_555
Co2_2 O7_3 1_555 1_555
Co1_4 O1_4 1_555 1_555
O1_4 C7_4 1_555 1_555
O2_4 C7_4 1_555 1_555
O3_4 C8_4 1_555 1_555
O4_4 C8_4 1_555 1_555
O5_4 Co1_4 1_555 1_555
H1_4 O5_4 1_555 1_555
H2_4 O5_4 1_555 1_555
O6_4 Co1_4 1_555 1_555
H3_4 O6_4 1_555 1_555
H4_4 O6_4 1_555 1_555
C1_4 C2_4 1_555 1_555
C2_4 H7_4 1_555 1_555
C3_4 C2_4 1_555 1_555
C4_4 C3_4 1_555 1_555
H8_4 C4_4 1_555 1_555
C6_4 C1_4 1_555 1_555
C7_4 C1_4 1_555 1_555
C8_4 C3_4 1_555 1_555
Co3_2 O3_4 1_555 1_555
O8_4 Co1_4 1_555 1_555
O9_4 Co1_4 1_555 1_555
H19_4 O9_4 1_555 1_555
H20_4 O9_4 1_555 1_555
H5_4 O7_4 1_555 1_555
H6_4 O7_4 1_555 1_555
C9_4 C5_4 1_555 1_555
C10_4 C9_4 1_555 1_555
H10_4 C10_4 1_555 1_555
H11_4 C10_4 1_555 1_555
H12_4 C10_4 1_555 1_555
C11_4 C9_4 1_555 1_555
H13_4 C11_4 1_555 1_555
H14_4 C11_4 1_555 1_555
H15_4 C11_4 1_555 1_555
C12_4 C9_4 1_555 1_555
H16_4 C12_4 1_555 1_555
H17_4 C12_4 1_555 1_555
H18_4 C12_4 1_555 1_555
Co2 O7_4 1_555 1_555
Co2 O1_5 1_555 1_555
O1_5 C7_5 1_555 1_555
O2_5 C7_5 1_555 1_555
O5_5 Co2 1_555 1_555
H1_5 O5_5 1_555 1_555
H2_5 O5_5 1_555 1_555
O6_5 Co2 1_555 1_555
H3_5 O6_5 1_555 1_555
H4_5 O6_5 1_555 1_555
O9_4 Co2 1_555 1_555
C1_5 C2_5 1_555 1_555
C2_5 H7_5 1_555 1_555
C6_5 C1_5 1_555 1_555
H9_5 C6_5 1_555 1_555
C7_5 C1_5 1_555 1_555
C9_5 C5_5 1_555 1_555
C10_5 C9_5 1_555 1_555
H10_5 C10_5 1_555 1_555
H11_5 C10_5 1_555 1_555
H12_5 C10_5 1_555 1_555
C11_5 C9_5 1_555 1_555
H13_5 C11_5 1_555 1_555
H14_5 C11_5 1_555 1_555
H15_5 C11_5 1_555 1_555
C5_5 C6_5 1_555 1_555
O8 C8_5 1_555 1_555
O4_5 C8_5 1_555 1_555
C4_5 C3_5 1_555 1_555
H8_5 C4_5 1_555 1_555
C8_5 C3_5 1_555 1_555
H16_5 C12_5 1_555 1_555
H17_5 C12_5 1_555 1_555
H18_5 C12_5 1_555 1_555
O8_2 C8_6 1_555 1_555
O4_6 C8_6 1_555 1_555
C4_6 C3_6 1_555 1_555
H8_6 C4_6 1_555 1_555
C8_6 C3_6 1_555 1_555
H16_6 C12_6 1_555 1_555
H17_6 C12_6 1_555 1_555
H18_6 C12_6 1_555 1_555
Co2_2 O1_6 1_555 1_555
O1_6 C7_6 1_555 1_555
O2_6 C7_6 1_555 1_555
O5_6 Co2_2 1_555 1_555
H1_6 O5_6 1_555 1_555
H2_6 O5_6 1_555 1_555
O6_6 Co2_2 1_555 1_555
H3_6 O6_6 1_555 1_555
H4_6 O6_6 1_555 1_555
O9_3 Co2_2 1_555 1_555
C1_6 C2_6 1_555 1_555
C2_6 H7_6 1_555 1_555
C6_6 C1_6 1_555 1_555
H9_6 C6_6 1_555 1_555
C7_6 C1_6 1_555 1_555
C9_6 C5_6 1_555 1_555
C10_6 C9_6 1_555 1_555
H10_6 C10_6 1_555 1_555
H11_6 C10_6 1_555 1_555
H12_6 C10_6 1_555 1_555
C11_6 C9_6 1_555 1_555
H13_6 C11_6 1_555 1_555
H14_6 C11_6 1_555 1_555
H15_6 C11_6 1_555 1_555
C5_6 C6_6 1_555 1_555
O8_4 C8_7 1_555 1_555
O4_7 C8_7 1_555 1_555
C4_7 C3_7 1_555 1_555
H8_7 C4_7 1_555 1_555
C8_7 C3_7 1_555 1_555
H16_7 C12_7 1_555 1_555
H17_7 C12_7 1_555 1_555
H18_7 C12_7 1_555 1_555
Co3_2 O1_7 1_555 1_555
O1_7 C7_7 1_555 1_555
O2_7 C7_7 1_555 1_555
O5_7 Co3_2 1_555 1_555
H1_7 O5_7 1_555 1_555
H2_7 O5_7 1_555 1_555
O6_7 Co3_2 1_555 1_555
H3_7 O6_7 1_555 1_555
H4_7 O6_7 1_555 1_555
O9_2 Co3_2 1_555 1_555
C1_7 C2_7 1_555 1_555
C2_7 H7_7 1_555 1_555
C6_7 C1_7 1_555 1_555
H9_7 C6_7 1_555 1_555
C7_7 C1_7 1_555 1_555
C9_7 C5_7 1_555 1_555
C10_7 C9_7 1_555 1_555
H10_7 C10_7 1_555 1_555
H11_7 C10_7 1_555 1_555
H12_7 C10_7 1_555 1_555
C11_7 C9_7 1_555 1_555
H13_7 C11_7 1_555 1_555
H14_7 C11_7 1_555 1_555
H15_7 C11_7 1_555 1_555
C5_7 C6_7 1_555 1_555
Co3 O1_8 1_555 1_555
O1_8 C7_8 1_555 1_555
O2_8 C7_8 1_555 1_555
O5_8 Co3 1_555 1_555
H1_8 O5_8 1_555 1_555
H2_8 O5_8 1_555 1_555
O6_8 Co3 1_555 1_555
H3_8 O6_8 1_555 1_555
H4_8 O6_8 1_555 1_555
O9 Co3 1_555 1_555
C1_8 C2_8 1_555 1_555
C2_8 H7_8 1_555 1_555
C6_8 C1_8 1_555 1_555
H9_8 C6_8 1_555 1_555
C7_8 C1_8 1_555 1_555
C9_8 C5_8 1_555 1_555
C10_8 C9_8 1_555 1_555
H10_8 C10_8 1_555 1_555
H11_8 C10_8 1_555 1_555
H12_8 C10_8 1_555 1_555
C11_8 C9_8 1_555 1_555
H13_8 C11_8 1_555 1_555
H14_8 C11_8 1_555 1_555
H15_8 C11_8 1_555 1_555
C5_8 C6_8 1_555 1_555
O8_3 C8_8 1_555 1_555
O4_8 C8_8 1_555 1_555
C4_8 C3_8 1_555 1_555
H8_8 C4_8 1_555 1_555
C8_8 C3_8 1_555 1_555
H16_8 C12_8 1_555 1_555
H17_8 C12_8 1_555 1_555
H18_8 C12_8 1_555 1_555

#END
