
###############################################################################
#
# This file contains modified crystal structure data generated from the
# MOF subset of the Cambridge Structural Database (CSD) v543 
# hosted by the Cambridge Crystallographic Data Centre (CCDC).
#
# This work is licensed under the Creative Commons
# Attribution-NonCommercial-ShareAlike 4.0 International License.
# To view a copy of this license, visit
# http://creativecommons.org/licenses/by-nc-sa/4.0/
# or send a letter to
# Creative Commons, PO Box 1866, Mountain View, CA 94042, USA.
#
# CIF created using the CSD Python API on 29 September 2022
# The structure has been converted into the P1 space group
# The structure has a 3D framework
# The original CSD entry MOYNEU is in the orthorhombic crystal system
# The framework has been calculated to contain at least 10.0% void space
# The void calculation uses a probe of radius 1.32A, grid spacing 0.4
#
###############################################################################

data_MOYNEU
_chemical_formula_moiety         '(C168 H160 O28 Zn8)n'
_symmetry_cell_setting           triclinic
_symmetry_space_group_name_H-M   'P 1'
_symmetry_Int_Tables_number      1
_space_group_name_Hall           'P 1'
loop_
_symmetry_equiv_pos_site_id
_symmetry_equiv_pos_as_xyz
1 x,y,z
_cell_length_a                   16.429(5)
_cell_length_b                   11.675(5)
_cell_length_c                   20.934(5)
_cell_angle_alpha                90
_cell_angle_beta                 90
_cell_angle_gamma                90
_cell_volume                     4015.32
loop_
_atom_site_label
_atom_site_type_symbol
_atom_site_fract_x
_atom_site_fract_y
_atom_site_fract_z
Zn4 Zn 0.7500 -0.0000 0.17305(5)
Zn9 Zn 0.73031(13) 0.2500 0.2500
O12 O 0.6508(4) 0.0795(8) 0.2421(3)
H23 H 0.3559 0.0250 0.4933
C26 C 0.4768(8) 0.0329(11) 0.3808(5)
H24 H 0.4468 0.0944 0.3965
C27 C 0.5343(8) 0.0453(15) 0.3319(6)
H25 H 0.5429 0.1174 0.3143
Zn1 Zn 0.2500 0.5000 0.67305(5)
Zn2 Zn 0.23031(13) 0.2500 0.7500
O1 O 0.2053(5) 0.3932(8) 0.6094(3)
O2 O 0.2240(5) 0.2257(8) 0.6584(3)
C1 C 0.1107(5) 0.2937(8) 0.5162(4)
H1 H 0.1059 0.3726 0.5209
C2 C 0.1580(5) 0.2296(8) 0.5582(3)
C3 C 0.1697(6) 0.1138(9) 0.5509(4)
H2 H 0.2016 0.0748 0.5804
C4 C 0.1347(6) 0.0527(9) 0.4999(5)
C9 C 0.0114(7) 0.2833(10) 0.4175(5)
C10 C 0.0708(5) 0.2366(8) 0.4670(4)
C11 C 0.0843(6) 0.1186(9) 0.4594(4)
C12 C 0.0327(6) 0.0802(11) 0.4047(4)
C14 C 0.1987(5) 0.2862(8) 0.6129(3)
C19 C 0.0521(11) 0.3708(16) 0.3732(7)
H14 H 0.0122 0.3981 0.3426
H15 H 0.0699 0.4359 0.3983
C20 C 0.1223(11) 0.3237(17) 0.3384(7)
H16 H 0.1070 0.2546 0.3156
H17 H 0.1661 0.3053 0.3677
C21 C 0.1506(10) 0.4226(17) 0.2887(7)
H18 H 0.1954 0.3951 0.2636
H19 H 0.1671 0.4894 0.3121
H20 H 0.1060 0.4417 0.2611
Zn4_2 Zn 0.7500 1.0000 0.17305(5)
Zn7 Zn 0.26969(13) 0.7500 0.7500
Zn8 Zn 0.76969(13) 0.7500 0.2500
O5 O 0.2947(5) 0.6068(8) 0.6094(3)
O6 O 0.2760(5) 0.7743(8) 0.6584(3)
O7 O 0.2240(5) 0.2743(8) 0.8416(3)
O8 O 0.6766(5) 0.8907(8) 0.2332(3)
O9 O 0.1766(5) 0.6093(8) 0.7332(3)
O10 O 0.3234(5) 0.3907(8) 0.7332(3)
O11 O 0.3234(5) 0.1093(8) 0.7668(3)
O13 O 0.1508(4) 0.4205(8) 0.7421(3)
O14 O 0.3492(4) 0.5795(8) 0.7421(3)
O15 O 0.1508(4) 0.0795(8) 0.7579(3)
C22 C 0.3893(5) 0.7063(8) 0.5162(4)
H21 H 0.3941 0.6274 0.5209
C23 C 0.3420(5) 0.7704(8) 0.5582(3)
C24 C 0.3303(6) 0.8862(9) 0.5509(4)
H22 H 0.2984 0.9252 0.5804
C25 C 0.3653(6) 0.9473(9) 0.4999(5)
C28 C 0.5796(7) 0.9512(15) 0.3086(5)
C29 C 0.5670(6) 0.8419(14) 0.3326(5)
H26 H 0.5948 0.7795 0.3156
C30 C 0.4886(7) 0.7167(10) 0.4175(5)
C31 C 0.4292(5) 0.7634(8) 0.4670(4)
C32 C 0.4157(6) 0.8814(9) 0.4594(4)
C33 C 0.4673(6) 0.9198(11) 0.4047(4)
C34 C 0.5113(6) 0.8273(11) 0.3832(4)
C35 C 0.3013(5) 0.7138(8) 0.6129(3)
C36 C 0.6421(7) 0.9719(12) 0.2527(7)
C37 C 0.5609(7) 0.6498(11) 0.4493(6)
H27 H 0.5391 0.5870 0.4743
H28 H 0.5950 0.6175 0.4161
C38 C 0.6117(8) 0.7243(12) 0.4915(7)
H29 H 0.5768 0.7682 0.5198
H30 H 0.6428 0.7776 0.4657
C39 C 0.6716(8) 0.6477(13) 0.5324(7)
H31 H 0.7037 0.6958 0.5597
H32 H 0.7068 0.6056 0.5043
H33 H 0.6407 0.5951 0.5579
C40 C 0.4479(11) 0.6292(16) 0.3732(7)
H34 H 0.4878 0.6019 0.3426
H35 H 0.4301 0.5641 0.3983
C41 C 0.3777(11) 0.6763(17) 0.3384(7)
H36 H 0.3930 0.7454 0.3156
H37 H 0.3339 0.6947 0.3677
C42 C 0.3494(10) 0.5774(17) 0.2887(7)
H38 H 0.3046 0.6049 0.2636
H39 H 0.3329 0.5106 0.3121
H40 H 0.3940 0.5583 0.2611
O3 O 0.8234(5) 0.1093(8) 0.2332(3)
C7 C 0.9204(7) 0.0488(15) 0.3086(5)
C8 C 0.9330(6) 0.1581(14) 0.3326(5)
H6 H 0.9052 0.2205 0.3156
C13 C 0.9887(6) 0.1727(11) 0.3832(4)
C15 C 0.8579(7) 0.0281(12) 0.2527(7)
C16 C 0.9391(7) 0.3502(11) 0.4493(6)
H7 H 0.9609 0.4130 0.4743
H8 H 0.9050 0.3825 0.4161
C17 C 0.8883(8) 0.2757(12) 0.4915(7)
H9 H 0.9232 0.2318 0.5198
H10 H 0.8572 0.2224 0.4657
C18 C 0.8284(8) 0.3523(13) 0.5324(7)
H11 H 0.7963 0.3042 0.5597
H12 H 0.7932 0.3944 0.5043
H13 H 0.8593 0.4049 0.5579
O4 O 0.8492(4) 0.9205(8) 0.2421(3)
C6 C 0.9657(8) 0.9547(15) 0.3319(6)
H5 H 0.9571 0.8826 0.3143
O7_2 O 0.2760(5) 0.7257(8) 0.8416(3)
O11_2 O 0.1766(5) 0.8907(8) 0.7668(3)
O15_2 O 0.3492(4) 0.9205(8) 0.7579(3)
Zn1_2 Zn 0.2500 0.0000 0.82695(5)
O1_2 O 0.2053(5) 0.1068(8) 0.8906(3)
C1_2 C 0.1107(5) 0.2063(8) 0.9838(4)
H1_2 H 0.1059 0.1274 0.9791
C2_2 C 0.1580(5) 0.2704(8) 0.9418(3)
C3_2 C 0.1697(6) 0.3862(9) 0.9491(4)
H2_2 H 0.2016 0.4252 0.9196
C14_2 C 0.1987(5) 0.2138(8) 0.8871(3)
Zn4_3 Zn 0.7500 0.5000 0.32695(5)
O8_2 O 0.6766(5) 0.6093(8) 0.2668(3)
O12_2 O 0.6508(4) 0.4205(8) 0.2579(3)
C25_2 C 0.3653(6) 0.5527(9) 0.0001(5)
H23_2 H 0.3559 0.4750 0.0067
C26_2 C 0.4768(8) 0.4671(11) 0.1192(5)
H24_2 H 0.4468 0.4056 0.1035
C27_2 C 0.5343(8) 0.4547(15) 0.1681(6)
H25_2 H 0.5429 0.3826 0.1857
C28_2 C 0.5796(7) 0.5488(15) 0.1914(5)
C29_2 C 0.5670(6) 0.6581(14) 0.1674(5)
H26_2 H 0.5948 0.7205 0.1844
C30_2 C 0.4886(7) 0.7833(10) 0.0825(5)
C31_2 C 0.4292(5) 0.7366(8) 0.0330(4)
C32_2 C 0.4157(6) 0.6186(9) 0.0406(4)
C33_2 C 0.4673(6) 0.5802(11) 0.0953(4)
C34_2 C 0.5113(6) 0.6727(11) 0.1168(4)
C36_2 C 0.6421(7) 0.5281(12) 0.2473(7)
C37_2 C 0.5609(7) 0.8502(11) 0.0507(6)
H27_2 H 0.5391 0.9130 0.0257
H28_2 H 0.5950 0.8825 0.0839
C38_2 C 0.6117(8) 0.7757(12) 0.0085(7)
H30_2 H 0.6428 0.7224 0.0343
C40_2 C 0.4479(11) 0.8708(16) 0.1268(7)
H34_2 H 0.4878 0.8981 0.1574
H35_2 H 0.4301 0.9359 0.1017
C41_2 C 0.3777(11) 0.8237(17) 0.1616(7)
H36_2 H 0.3930 0.7546 0.1844
H37_2 H 0.3339 0.8053 0.1323
C42_2 C 0.3494(10) 0.9226(17) 0.2113(7)
H38_2 H 0.3046 0.8951 0.2364
H39_2 H 0.3329 0.9894 0.1879
H40_2 H 0.3940 0.9417 0.2389
Zn1_3 Zn 0.2500 1.0000 0.82695(5)
O5_2 O 0.2947(5) 0.8932(8) 0.8906(3)
C22_2 C 0.3893(5) 0.7937(8) 0.9838(4)
H21_2 H 0.3941 0.8726 0.9791
C23_2 C 0.3420(5) 0.7296(8) 0.9418(3)
C24_2 C 0.3303(6) 0.6138(9) 0.9491(4)
H22_2 H 0.2984 0.5748 0.9196
C35_2 C 0.3013(5) 0.7862(8) 0.8871(3)
H29_2 H 0.5768 0.7318 0.9802
C39_2 C 0.6716(8) 0.8523(13) 0.9676(7)
H31_2 H 0.7037 0.8042 0.9403
H32_2 H 0.7068 0.8944 0.9957
H33_2 H 0.6407 0.9049 0.9421
O3_2 O 0.8234(5) 0.3907(8) 0.2668(3)
O4_2 O 0.8492(4) 0.5795(8) 0.2579(3)
C6_2 C 0.9657(8) 0.5453(15) 0.1681(6)
H5_2 H 0.9571 0.6174 0.1857
C7_2 C 0.9204(7) 0.4512(15) 0.1914(5)
C8_2 C 0.9330(6) 0.3419(14) 0.1674(5)
H6_2 H 0.9052 0.2795 0.1844
C13_2 C 0.9887(6) 0.3273(11) 0.1168(4)
C15_2 C 0.8579(7) 0.4719(12) 0.2473(7)
C16_2 C 0.9391(7) 0.1498(11) 0.0507(6)
H7_2 H 0.9609 0.0870 0.0257
H8_2 H 0.9050 0.1175 0.0839
C17_2 C 0.8883(8) 0.2243(12) 0.0085(7)
H10_2 H 0.8572 0.2776 0.0343
C6_3 C 0.0343(8) 0.0453(15) 0.6681(6)
H5_3 H 0.0429 0.1174 0.6857
C7_3 C 0.0796(7) 0.9512(15) 0.6914(5)
C8_3 C 0.0670(6) 0.8419(14) 0.6674(5)
H6_3 H 0.0948 0.7795 0.6844
C13_3 C 0.0113(6) 0.8273(11) 0.6168(4)
C15_3 C 0.1421(7) 0.9719(12) 0.7473(7)
C16_3 C 0.0609(7) 0.6498(11) 0.5507(6)
H7_3 H 0.0391 0.5870 0.5257
H8_3 H 0.0950 0.6175 0.5839
C17_3 C 0.1117(8) 0.7243(12) 0.5085(7)
H9_2 H 0.0768 0.7682 0.4802
H10_3 H 0.1428 0.7776 0.5343
C18_2 C 0.1716(8) 0.6477(13) 0.4676(7)
H11_2 H 0.2037 0.6958 0.4403
H12_2 H 0.2068 0.6056 0.4957
H13_2 H 0.1407 0.5951 0.4421
O1_3 O 0.7947(5) 0.6068(8) 0.3906(3)
O2_2 O 0.7760(5) 0.7743(8) 0.3416(3)
C1_3 C 0.8893(5) 0.7063(8) 0.4838(4)
H1_3 H 0.8941 0.6274 0.4791
C2_3 C 0.8420(5) 0.7704(8) 0.4418(3)
C3_3 C 0.8303(6) 0.8862(9) 0.4491(4)
H2_3 H 0.7984 0.9252 0.4196
C4_2 C 0.8653(6) 0.9473(9) 0.5001(5)
C9_2 C 0.9886(7) 0.7167(10) 0.5825(5)
C10_2 C 0.9292(5) 0.7634(8) 0.5330(4)
C11_2 C 0.9157(6) 0.8814(9) 0.5406(4)
C12_2 C 0.9673(6) 0.9198(11) 0.5953(4)
C14_3 C 0.8013(5) 0.7138(8) 0.3871(3)
C19_2 C 0.9479(11) 0.6292(16) 0.6268(7)
H14_2 H 0.9878 0.6019 0.6574
H15_2 H 0.9301 0.5641 0.6017
C20_2 C 0.8777(11) 0.6763(17) 0.6616(7)
H16_2 H 0.8930 0.7454 0.6844
H17_2 H 0.8339 0.6947 0.6323
C21_2 C 0.8494(10) 0.5774(17) 0.7113(7)
H18_2 H 0.8046 0.6049 0.7364
H19_2 H 0.8329 0.5106 0.6879
H20_2 H 0.8940 0.5583 0.7389
O5_3 O 0.7053(5) 0.3932(8) 0.3906(3)
O6_2 O 0.7240(5) 0.2257(8) 0.3416(3)
O7_3 O 0.7760(5) 0.7257(8) 0.1584(3)
C22_3 C 0.6107(5) 0.2937(8) 0.4838(4)
H21_3 H 0.6059 0.3726 0.4791
C23_3 C 0.6580(5) 0.2296(8) 0.4418(3)
C24_3 C 0.6697(6) 0.1138(9) 0.4491(4)
H22_3 H 0.7016 0.0748 0.4196
C25_3 C 0.6347(6) 0.0527(9) 0.5001(5)
C28_3 C 0.4204(7) 0.0488(15) 0.6914(5)
C29_3 C 0.4330(6) 0.1581(14) 0.6674(5)
H26_3 H 0.4052 0.2205 0.6844
C30_3 C 0.5114(7) 0.2833(10) 0.5825(5)
C31_3 C 0.5708(5) 0.2366(8) 0.5330(4)
C32_3 C 0.5843(6) 0.1186(9) 0.5406(4)
C33_3 C 0.5327(6) 0.0802(11) 0.5953(4)
C34_3 C 0.4887(6) 0.1727(11) 0.6168(4)
C35_3 C 0.6987(5) 0.2862(8) 0.3871(3)
C36_3 C 0.3579(7) 0.0281(12) 0.7473(7)
C37_3 C 0.4391(7) 0.3502(11) 0.5507(6)
H27_3 H 0.4609 0.4130 0.5257
H28_3 H 0.4050 0.3825 0.5839
C38_3 C 0.3883(8) 0.2757(12) 0.5085(7)
H29_3 H 0.4232 0.2318 0.4802
H30_3 H 0.3572 0.2224 0.5343
C39_3 C 0.3284(8) 0.3523(13) 0.4676(7)
H31_3 H 0.2963 0.3042 0.4403
H32_3 H 0.2932 0.3944 0.4957
H33_3 H 0.3593 0.4049 0.4421
C40_3 C 0.5521(11) 0.3708(16) 0.6268(7)
H34_3 H 0.5122 0.3981 0.6574
H35_3 H 0.5699 0.4359 0.6017
C41_3 C 0.6223(11) 0.3237(17) 0.6616(7)
H36_3 H 0.6070 0.2546 0.6844
H37_3 H 0.6661 0.3053 0.6323
C42_3 C 0.6506(10) 0.4226(17) 0.7113(7)
H38_3 H 0.6954 0.3951 0.7364
H39_3 H 0.6671 0.4894 0.6879
H40_3 H 0.6060 0.4417 0.7389
H23_3 H 0.6441 0.9750 0.5067
C26_3 C 0.5232(8) 0.9671(11) 0.6192(5)
H24_3 H 0.5532 0.9056 0.6035
C27_3 C 0.4657(8) 0.9547(15) 0.6681(6)
H25_3 H 0.4571 0.8826 0.6857
O7_4 O 0.7240(5) 0.2743(8) 0.1584(3)
C6_4 C 0.0343(8) 0.4547(15) 0.8319(6)
H5_4 H 0.0429 0.3826 0.8143
C7_4 C 0.0796(7) 0.5488(15) 0.8086(5)
C8_4 C 0.0670(6) 0.6581(14) 0.8326(5)
H6_4 H 0.0948 0.7205 0.8156
C13_4 C 0.0113(6) 0.6727(11) 0.8832(4)
C15_4 C 0.1421(7) 0.5281(12) 0.7527(7)
C16_4 C 0.0609(7) 0.8502(11) 0.9493(6)
H7_4 H 0.0391 0.9130 0.9743
H8_4 H 0.0950 0.8825 0.9161
C17_4 C 0.1117(8) 0.7757(12) 0.9915(7)
H10_4 H 0.1428 0.7224 0.9657
O5_4 O 0.7053(5) 0.1068(8) 0.1094(3)
C22_4 C 0.6107(5) 0.2063(8) 0.0162(4)
H21_4 H 0.6059 0.1274 0.0209
C23_4 C 0.6580(5) 0.2704(8) 0.0582(3)
C24_4 C 0.6697(6) 0.3862(9) 0.0509(4)
H22_4 H 0.7016 0.4252 0.0804
C35_4 C 0.6987(5) 0.2138(8) 0.1129(3)
H29_4 H 0.4232 0.2682 0.0198
C39_4 C 0.3284(8) 0.1477(13) 0.0324(7)
H31_4 H 0.2963 0.1958 0.0597
H32_4 H 0.2932 0.1056 0.0043
H33_4 H 0.3593 0.0951 0.0579
C25_4 C 0.6347(6) 0.4473(9) 0.9999(5)
H23_4 H 0.6441 0.5250 0.9933
C26_4 C 0.5232(8) 0.5329(11) 0.8808(5)
H24_4 H 0.5532 0.5944 0.8965
C27_4 C 0.4657(8) 0.5453(15) 0.8319(6)
H25_4 H 0.4571 0.6174 0.8143
C28_4 C 0.4204(7) 0.4512(15) 0.8086(5)
C29_4 C 0.4330(6) 0.3419(14) 0.8326(5)
H26_4 H 0.4052 0.2795 0.8156
C30_4 C 0.5114(7) 0.2167(10) 0.9175(5)
C31_4 C 0.5708(5) 0.2634(8) 0.9670(4)
C32_4 C 0.5843(6) 0.3814(9) 0.9594(4)
C33_4 C 0.5327(6) 0.4198(11) 0.9047(4)
C34_4 C 0.4887(6) 0.3273(11) 0.8832(4)
C36_4 C 0.3579(7) 0.4719(12) 0.7527(7)
C37_4 C 0.4391(7) 0.1498(11) 0.9493(6)
H27_4 H 0.4609 0.0870 0.9743
H28_4 H 0.4050 0.1175 0.9161
C38_4 C 0.3883(8) 0.2243(12) 0.9915(7)
H30_4 H 0.3572 0.2776 0.9657
C40_4 C 0.5521(11) 0.1292(16) 0.8732(7)
H34_4 H 0.5122 0.1019 0.8426
H35_4 H 0.5699 0.0641 0.8983
C41_4 C 0.6223(11) 0.1763(17) 0.8384(7)
H36_4 H 0.6070 0.2454 0.8156
H37_4 H 0.6661 0.1947 0.8677
C42_4 C 0.6506(10) 0.0774(17) 0.7887(7)
H38_4 H 0.6954 0.1049 0.7636
H39_4 H 0.6671 0.0106 0.8121
H40_4 H 0.6060 0.0583 0.7611
O1_4 O 0.7947(5) 0.8932(8) 0.1094(3)
C1_4 C 0.8893(5) 0.7937(8) 0.0162(4)
H1_4 H 0.8941 0.8726 0.0209
C2_4 C 0.8420(5) 0.7296(8) 0.0582(3)
C3_4 C 0.8303(6) 0.6138(9) 0.0509(4)
H2_4 H 0.7984 0.5748 0.0804
C14_4 C 0.8013(5) 0.7862(8) 0.1129(3)
H3 H 0.1441 0.9750 0.4933
C5 C 0.0232(8) 0.9671(11) 0.3808(5)
H4 H 0.0532 0.9056 0.3965
C4_3 C 0.1347(6) 0.4473(9) 0.0001(5)
H3_2 H 0.1441 0.5250 0.0067
C5_2 C 0.0232(8) 0.5329(11) 0.1192(5)
H4_2 H 0.0532 0.5944 0.1035
C9_3 C 0.0114(7) 0.2167(10) 0.0825(5)
C10_3 C 0.0708(5) 0.2634(8) 0.0330(4)
C11_3 C 0.0843(6) 0.3814(9) 0.0406(4)
C12_3 C 0.0327(6) 0.4198(11) 0.0953(4)
C19_3 C 0.0521(11) 0.1292(16) 0.1268(7)
H14_3 H 0.0122 0.1019 0.1574
H15_3 H 0.0699 0.0641 0.1017
C20_3 C 0.1223(11) 0.1763(17) 0.1616(7)
H16_3 H 0.1070 0.2454 0.1844
H17_3 H 0.1661 0.1947 0.1323
C21_3 C 0.1506(10) 0.0774(17) 0.2113(7)
H18_3 H 0.1954 0.1049 0.2364
H19_3 H 0.1671 0.0106 0.1879
H20_3 H 0.1060 0.0583 0.2389
H9_3 H 0.9232 0.2682 0.9802
C18_3 C 0.8284(8) 0.1477(13) 0.9676(7)
H11_3 H 0.7963 0.1958 0.9403
H12_3 H 0.7932 0.1056 0.9957
H13_3 H 0.8593 0.0951 0.9421
H3_3 H 0.8559 0.0250 0.5067
C5_3 C 0.9768(8) 0.0329(11) 0.6192(5)
H4_3 H 0.9468 0.0944 0.6035
H9_4 H 0.0768 0.7318 0.0198
C18_4 C 0.1716(8) 0.8523(13) 0.0324(7)
H11_4 H 0.2037 0.8042 0.0597
H12_4 H 0.2068 0.8944 0.0043
H13_4 H 0.1407 0.9049 0.0579
C4_4 C 0.8653(6) 0.5527(9) 0.9999(5)
H3_4 H 0.8559 0.4750 0.9933
C5_4 C 0.9768(8) 0.4671(11) 0.8808(5)
H4_4 H 0.9468 0.4056 0.8965
C9_4 C 0.9886(7) 0.7833(10) 0.9175(5)
C10_4 C 0.9292(5) 0.7366(8) 0.9670(4)
C11_4 C 0.9157(6) 0.6186(9) 0.9594(4)
C12_4 C 0.9673(6) 0.5802(11) 0.9047(4)
C19_4 C 0.9479(11) 0.8708(16) 0.8732(7)
H14_4 H 0.9878 0.8981 0.8426
H15_4 H 0.9301 0.9359 0.8983
C20_4 C 0.8777(11) 0.8237(17) 0.8384(7)
H16_4 H 0.8930 0.7546 0.8156
H17_4 H 0.8339 0.8053 0.8677
C21_4 C 0.8494(10) 0.9226(17) 0.7887(7)
H18_4 H 0.8046 0.8951 0.7636
H19_4 H 0.8329 0.9894 0.8121
H20_4 H 0.8940 0.9417 0.7611
loop_
_geom_bond_atom_site_label_1
_geom_bond_atom_site_label_2
_geom_bond_site_symmetry_1
_geom_bond_site_symmetry_2
Zn9 O12 1_555 1_555
O12 Zn4 1_555 1_555
C26 H24 1_555 1_555
C27 C26 1_555 1_555
H25 C27 1_555 1_555
Zn1 O1 1_555 1_555
Zn2 O2 1_555 1_555
O1 C14 1_555 1_555
O2 C14 1_555 1_555
C1 H1 1_555 1_555
C2 C1 1_555 1_555
C3 C2 1_555 1_555
H2 C3 1_555 1_555
C4 C3 1_555 1_555
C9 C10 1_555 1_555
C10 C1 1_555 1_555
C11 C4 1_555 1_555
C14 C2 1_555 1_555
C19 C9 1_555 1_555
H14 C19 1_555 1_555
H15 C19 1_555 1_555
C20 C19 1_555 1_555
H16 C20 1_555 1_555
H17 C20 1_555 1_555
C21 C20 1_555 1_555
H18 C21 1_555 1_555
H19 C21 1_555 1_555
H20 C21 1_555 1_555
Zn4_2 O8 1_555 1_555
Zn7 O6 1_555 1_555
Zn8 O8 1_555 1_555
O5 Zn1 1_555 1_555
O6 C35 1_555 1_555
O7 Zn2 1_555 1_555
O8 C36 1_555 1_555
O9 Zn1 1_555 1_555
O10 Zn1 1_555 1_555
O11 Zn2 1_555 1_555
O13 Zn1 1_555 1_555
O14 Zn1 1_555 1_555
O15 Zn2 1_555 1_555
C22 H21 1_555 1_555
C23 C22 1_555 1_555
C24 C23 1_555 1_555
H22 C24 1_555 1_555
C25 C24 1_555 1_555
C29 C28 1_555 1_555
H26 C29 1_555 1_555
C30 C31 1_555 1_555
C31 C22 1_555 1_555
C32 C25 1_555 1_555
C34 C29 1_555 1_555
C35 O5 1_555 1_555
C37 C30 1_555 1_555
H27 C37 1_555 1_555
H28 C37 1_555 1_555
C38 C37 1_555 1_555
H29 C38 1_555 1_555
H30 C38 1_555 1_555
C39 C38 1_555 1_555
H31 C39 1_555 1_555
H32 C39 1_555 1_555
H33 C39 1_555 1_555
C40 C30 1_555 1_555
H34 C40 1_555 1_555
H35 C40 1_555 1_555
C41 C40 1_555 1_555
H36 C41 1_555 1_555
H37 C41 1_555 1_555
C42 C41 1_555 1_555
H38 C42 1_555 1_555
H39 C42 1_555 1_555
H40 C42 1_555 1_555
Zn2 O10 1_555 1_555
Zn2 O13 1_555 1_555
C10 C11 1_555 1_555
C11 C12 1_555 1_555
Zn7 O9 1_555 1_555
Zn7 O14 1_555 1_555
C23 C35 1_555 1_555
C28 C36 1_555 1_555
C30 C34 1_555 1_555
C31 C32 1_555 1_555
C32 C33 1_555 1_555
C33 C34 1_555 1_555
O3 C15 1_555 1_555
C8 C7 1_555 1_555
H6 C8 1_555 1_555
C13 C8 1_555 1_555
C15 C7 1_555 1_555
H7 C16 1_555 1_555
H8 C16 1_555 1_555
C17 C16 1_555 1_555
H9 C17 1_555 1_555
H10 C17 1_555 1_555
C18 C17 1_555 1_555
H11 C18 1_555 1_555
H12 C18 1_555 1_555
H13 C18 1_555 1_555
Zn4 O3 1_555 1_555
Zn9 O3 1_555 1_555
H5 C6 1_555 1_555
Zn8 O4 1_555 1_555
O4 Zn4_2 1_555 1_555
O7_2 Zn7 1_555 1_555
O11_2 Zn7 1_555 1_555
O15_2 Zn7 1_555 1_555
Zn1_2 O1_2 1_555 1_555
O1_2 C14_2 1_555 1_555
O7 C14_2 1_555 1_555
C1_2 H1_2 1_555 1_555
C2_2 C1_2 1_555 1_555
C3_2 C2_2 1_555 1_555
H2_2 C3_2 1_555 1_555
C14_2 C2_2 1_555 1_555
O11 Zn1_2 1_555 1_555
O15 Zn1_2 1_555 1_555
Zn4_3 O8_2 1_555 1_555
Zn8 O8_2 1_555 1_555
Zn9 O12_2 1_555 1_555
O8_2 C36_2 1_555 1_555
O12_2 Zn4_3 1_555 1_555
H23_2 C25_2 1_555 1_555
C26_2 H24_2 1_555 1_555
C27_2 C26_2 1_555 1_555
H25_2 C27_2 1_555 1_555
C28_2 C27_2 1_555 1_555
C29_2 C28_2 1_555 1_555
H26_2 C29_2 1_555 1_555
C30_2 C31_2 1_555 1_555
C32_2 C25_2 1_555 1_555
C33_2 C26_2 1_555 1_555
C34_2 C29_2 1_555 1_555
C36_2 O12_2 1_555 1_555
C37_2 C30_2 1_555 1_555
H27_2 C37_2 1_555 1_555
H28_2 C37_2 1_555 1_555
C38_2 C37_2 1_555 1_555
H30_2 C38_2 1_555 1_555
C40_2 C30_2 1_555 1_555
H34_2 C40_2 1_555 1_555
H35_2 C40_2 1_555 1_555
C41_2 C40_2 1_555 1_555
H36_2 C41_2 1_555 1_555
H37_2 C41_2 1_555 1_555
C42_2 C41_2 1_555 1_555
H38_2 C42_2 1_555 1_555
H39_2 C42_2 1_555 1_555
H40_2 C42_2 1_555 1_555
C28_2 C36_2 1_555 1_555
C30_2 C34_2 1_555 1_555
C31_2 C32_2 1_555 1_555
C32_2 C33_2 1_555 1_555
C33_2 C34_2 1_555 1_555
O5_2 Zn1_3 1_555 1_555
O7_2 C35_2 1_555 1_555
O11_2 Zn1_3 1_555 1_555
O15_2 Zn1_3 1_555 1_555
C22_2 H21_2 1_555 1_555
C23_2 C22_2 1_555 1_555
C24_2 C23_2 1_555 1_555
H22_2 C24_2 1_555 1_555
C35_2 O5_2 1_555 1_555
H31_2 C39_2 1_555 1_555
H32_2 C39_2 1_555 1_555
H33_2 C39_2 1_555 1_555
C23_2 C35_2 1_555 1_555
O3_2 C15_2 1_555 1_555
O4_2 C15_2 1_555 1_555
H5_2 C6_2 1_555 1_555
C7_2 C6_2 1_555 1_555
C8_2 C7_2 1_555 1_555
H6_2 C8_2 1_555 1_555
C13_2 C8_2 1_555 1_555
C15_2 C7_2 1_555 1_555
H7_2 C16_2 1_555 1_555
H8_2 C16_2 1_555 1_555
C17_2 C16_2 1_555 1_555
H10_2 C17_2 1_555 1_555
Zn4_3 O3_2 1_555 1_555
Zn9 O3_2 1_555 1_555
Zn8 O4_2 1_555 1_555
O4_2 Zn4_3 1_555 1_555
H5_3 C6_3 1_555 1_555
O11_2 C15_3 1_555 1_555
C8_3 C7_3 1_555 1_555
H6_3 C8_3 1_555 1_555
C13_3 C8_3 1_555 1_555
C15_3 C7_3 1_555 1_555
H7_3 C16_3 1_555 1_555
H8_3 C16_3 1_555 1_555
C17_3 C16_3 1_555 1_555
H9_2 C17_3 1_555 1_555
H10_3 C17_3 1_555 1_555
C18_2 C17_3 1_555 1_555
H11_2 C18_2 1_555 1_555
H12_2 C18_2 1_555 1_555
H13_2 C18_2 1_555 1_555
Zn4_3 O1_3 1_555 1_555
Zn8 O2_2 1_555 1_555
O1_3 C14_3 1_555 1_555
O2_2 C14_3 1_555 1_555
C1_3 H1_3 1_555 1_555
C2_3 C1_3 1_555 1_555
C3_3 C2_3 1_555 1_555
H2_3 C3_3 1_555 1_555
C4_2 C3_3 1_555 1_555
C9_2 C10_2 1_555 1_555
C10_2 C1_3 1_555 1_555
C11_2 C4_2 1_555 1_555
C14_3 C2_3 1_555 1_555
C19_2 C9_2 1_555 1_555
H14_2 C19_2 1_555 1_555
H15_2 C19_2 1_555 1_555
C20_2 C19_2 1_555 1_555
H16_2 C20_2 1_555 1_555
H17_2 C20_2 1_555 1_555
C21_2 C20_2 1_555 1_555
H18_2 C21_2 1_555 1_555
H19_2 C21_2 1_555 1_555
H20_2 C21_2 1_555 1_555
Zn9 O6_2 1_555 1_555
O5_3 Zn4_3 1_555 1_555
O6_2 C35_3 1_555 1_555
O7_3 Zn8 1_555 1_555
O11 C36_3 1_555 1_555
C22_3 H21_3 1_555 1_555
C23_3 C22_3 1_555 1_555
C24_3 C23_3 1_555 1_555
H22_3 C24_3 1_555 1_555
C25_3 C24_3 1_555 1_555
C29_3 C28_3 1_555 1_555
H26_3 C29_3 1_555 1_555
C30_3 C31_3 1_555 1_555
C31_3 C22_3 1_555 1_555
C32_3 C25_3 1_555 1_555
C34_3 C29_3 1_555 1_555
C35_3 O5_3 1_555 1_555
C37_3 C30_3 1_555 1_555
H27_3 C37_3 1_555 1_555
H28_3 C37_3 1_555 1_555
C38_3 C37_3 1_555 1_555
H29_3 C38_3 1_555 1_555
H30_3 C38_3 1_555 1_555
C39_3 C38_3 1_555 1_555
H31_3 C39_3 1_555 1_555
H32_3 C39_3 1_555 1_555
H33_3 C39_3 1_555 1_555
C40_3 C30_3 1_555 1_555
H34_3 C40_3 1_555 1_555
H35_3 C40_3 1_555 1_555
C41_3 C40_3 1_555 1_555
H36_3 C41_3 1_555 1_555
H37_3 C41_3 1_555 1_555
C42_3 C41_3 1_555 1_555
H38_3 C42_3 1_555 1_555
H39_3 C42_3 1_555 1_555
H40_3 C42_3 1_555 1_555
C10_2 C11_2 1_555 1_555
C11_2 C12_2 1_555 1_555
C23_3 C35_3 1_555 1_555
C28_3 C36_3 1_555 1_555
C30_3 C34_3 1_555 1_555
C31_3 C32_3 1_555 1_555
C32_3 C33_3 1_555 1_555
C33_3 C34_3 1_555 1_555
C26_3 H24_3 1_555 1_555
C27_3 C26_3 1_555 1_555
H25_3 C27_3 1_555 1_555
O7_4 Zn9 1_555 1_555
O9 C15_4 1_555 1_555
O13 C15_4 1_555 1_555
H5_4 C6_4 1_555 1_555
C7_4 C6_4 1_555 1_555
C8_4 C7_4 1_555 1_555
H6_4 C8_4 1_555 1_555
C13_4 C8_4 1_555 1_555
C15_4 C7_4 1_555 1_555
H7_4 C16_4 1_555 1_555
H8_4 C16_4 1_555 1_555
C17_4 C16_4 1_555 1_555
H10_4 C17_4 1_555 1_555
O5_4 Zn4 1_555 1_555
O7_4 C35_4 1_555 1_555
C22_4 H21_4 1_555 1_555
C23_4 C22_4 1_555 1_555
C24_4 C23_4 1_555 1_555
H22_4 C24_4 1_555 1_555
C35_4 O5_4 1_555 1_555
H31_4 C39_4 1_555 1_555
H32_4 C39_4 1_555 1_555
H33_4 C39_4 1_555 1_555
C23_4 C35_4 1_555 1_555
O10 C36_4 1_555 1_555
H23_4 C25_4 1_555 1_555
C26_4 H24_4 1_555 1_555
C27_4 C26_4 1_555 1_555
H25_4 C27_4 1_555 1_555
C28_4 C27_4 1_555 1_555
C29_4 C28_4 1_555 1_555
H26_4 C29_4 1_555 1_555
C30_4 C31_4 1_555 1_555
C32_4 C25_4 1_555 1_555
C33_4 C26_4 1_555 1_555
C34_4 C29_4 1_555 1_555
C36_4 O14 1_555 1_555
C37_4 C30_4 1_555 1_555
H27_4 C37_4 1_555 1_555
H28_4 C37_4 1_555 1_555
C38_4 C37_4 1_555 1_555
H30_4 C38_4 1_555 1_555
C40_4 C30_4 1_555 1_555
H34_4 C40_4 1_555 1_555
H35_4 C40_4 1_555 1_555
C41_4 C40_4 1_555 1_555
H36_4 C41_4 1_555 1_555
H37_4 C41_4 1_555 1_555
C42_4 C41_4 1_555 1_555
H38_4 C42_4 1_555 1_555
H39_4 C42_4 1_555 1_555
H40_4 C42_4 1_555 1_555
C28_4 C36_4 1_555 1_555
C30_4 C34_4 1_555 1_555
C31_4 C32_4 1_555 1_555
C32_4 C33_4 1_555 1_555
C33_4 C34_4 1_555 1_555
Zn4_2 O1_4 1_555 1_555
O1_4 C14_4 1_555 1_555
O7_3 C14_4 1_555 1_555
C1_4 H1_4 1_555 1_555
C2_4 C1_4 1_555 1_555
C3_4 C2_4 1_555 1_555
H2_4 C3_4 1_555 1_555
C14_4 C2_4 1_555 1_555
C5 H4 1_555 1_555
H3_2 C4_3 1_555 1_555
C5_2 H4_2 1_555 1_555
C9_3 C10_3 1_555 1_555
C11_3 C4_3 1_555 1_555
C12_3 C5_2 1_555 1_555
C19_3 C9_3 1_555 1_555
H14_3 C19_3 1_555 1_555
H15_3 C19_3 1_555 1_555
C20_3 C19_3 1_555 1_555
H16_3 C20_3 1_555 1_555
H17_3 C20_3 1_555 1_555
C21_3 C20_3 1_555 1_555
H18_3 C21_3 1_555 1_555
H19_3 C21_3 1_555 1_555
H20_3 C21_3 1_555 1_555
C10_3 C11_3 1_555 1_555
C11_3 C12_3 1_555 1_555
H11_3 C18_3 1_555 1_555
H12_3 C18_3 1_555 1_555
H13_3 C18_3 1_555 1_555
C5_3 H4_3 1_555 1_555
H11_4 C18_4 1_555 1_555
H12_4 C18_4 1_555 1_555
H13_4 C18_4 1_555 1_555
H3_4 C4_4 1_555 1_555
C5_4 H4_4 1_555 1_555
C9_4 C10_4 1_555 1_555
C11_4 C4_4 1_555 1_555
C12_4 C5_4 1_555 1_555
C19_4 C9_4 1_555 1_555
H14_4 C19_4 1_555 1_555
H15_4 C19_4 1_555 1_555
C20_4 C19_4 1_555 1_555
H16_4 C20_4 1_555 1_555
H17_4 C20_4 1_555 1_555
C21_4 C20_4 1_555 1_555
H18_4 C21_4 1_555 1_555
H19_4 C21_4 1_555 1_555
H20_4 C21_4 1_555 1_555
C10_4 C11_4 1_555 1_555
C11_4 C12_4 1_555 1_555

#END
