
###############################################################################
#
# This file contains modified crystal structure data generated from the
# MOF subset of the Cambridge Structural Database (CSD) v543 
# hosted by the Cambridge Crystallographic Data Centre (CCDC).
#
# This work is licensed under the Creative Commons
# Attribution-NonCommercial-ShareAlike 4.0 International License.
# To view a copy of this license, visit
# http://creativecommons.org/licenses/by-nc-sa/4.0/
# or send a letter to
# Creative Commons, PO Box 1866, Mountain View, CA 94042, USA.
#
# CIF created using the CSD Python API on 29 September 2022
# The structure has been converted into the P1 space group
# The structure has a 3D framework
# The original CSD entry MOYROK is in the monoclinic crystal system
# The framework has been calculated to contain at least 10.0% void space
# The void calculation uses a probe of radius 1.32A, grid spacing 0.4
#
###############################################################################

data_MOYROK
_chemical_formula_moiety         '(C136 H128 Co12 N24 O50)n'
_symmetry_cell_setting           triclinic
_symmetry_space_group_name_H-M   'P 1'
_symmetry_Int_Tables_number      1
_space_group_name_Hall           'P 1'
loop_
_symmetry_equiv_pos_site_id
_symmetry_equiv_pos_as_xyz
1 x,y,z
_cell_length_a                   31.351(6)
_cell_length_b                   9.5960(19)
_cell_length_c                   18.028(4)
_cell_angle_alpha                90
_cell_angle_beta                 118.68(3)
_cell_angle_gamma                90
_cell_volume                     4758.22
loop_
_atom_site_label
_atom_site_type_symbol
_atom_site_fract_x
_atom_site_fract_y
_atom_site_fract_z
O8 O 0.30345(12) 0.0984(4) 0.5211(2)
Co4 Co 0.37497(2) 0.17963(7) 0.60255(4)
Co8 Co 0.2500 0.2500 0.5000
O3 O 0.37195(13) 0.6563(4) 0.0283(2)
N6 N 0.6153(4) 0.0213(11) 0.1059(5)
C32 C 0.6254(3) 0.0732(9) 0.0509(5)
H26 H 0.6536 0.1300 0.0728
C33 C 0.6405(5) 0.0349(16) 0.1936(7)
H27 H 0.6725 0.0762 0.2107
H29 H 0.6221 0.0953 0.2119
H31 H 0.5388 0.0069 0.0405
Co6 Co 0.37497(2) 0.82037(7) 0.10255(4)
Co9 Co 0.7500 0.2500 0.0000
Co11 Co 0.2500 0.7500 0.0000
O1 O 0.36097(13) 0.2812(4) 0.6871(2)
O2 O 0.27961(13) 0.2896(4) 0.6270(2)
O4 O 0.29326(12) 0.6051(4) 0.9822(2)
O5 O 0.39599(14) 0.0603(4) 0.5254(2)
O6 O 0.19655(12) 0.4016(4) 0.4789(2)
O7 O 0.14528(13) 0.5244(4) 0.3696(2)
N1 N 0.45048(16) 0.1916(5) 0.6915(3)
N2 N 0.4708(5) 0.2956(19) 0.5895(9)
H1 H 0.4426 0.3388 0.5649
H2 H 0.4915 0.3063 0.5699
N3 N 0.3847(4) 0.0213(11) 0.3941(5)
C1 C 0.4666(3) 0.1968(14) 0.7716(5)
H3 H 0.4436 0.2003 0.7917
C2 C 0.4845(3) 0.1977(15) 0.6695(5)
C3 C 0.32136(18) 0.3118(5) 0.6857(3)
C4 C 0.32519(19) 0.3823(6) 0.7639(3)
C5 C 0.3683(2) 0.4389(10) 0.8240(5)
H4 H 0.3967 0.4300 0.8180
C6 C 0.3707(2) 0.5087(10) 0.8933(5)
H5 H 0.4005 0.5497 0.9334
C7 C 0.33050(18) 0.5192(6) 0.9045(3)
C8 C 0.2873(2) 0.4642(10) 0.8438(4)
H6 H 0.2590 0.4722 0.8499
C9 C 0.2847(2) 0.3975(10) 0.7739(4)
H7 H 0.2544 0.3614 0.7320
C10 C 0.33172(18) 0.5987(5) 0.9774(3)
C11 C 0.3746(3) 0.0732(9) 0.4491(5)
H8 H 0.3464 0.1300 0.4272
C12 C 0.3595(5) 0.0349(16) 0.3064(7)
H9 H 0.3275 0.0762 0.2893
H11 H 0.3779 0.0953 0.2881
H13 H 0.4612 0.0069 0.4595
C14 C 0.18505(17) 0.5151(5) 0.4361(3)
C15 C 0.21906(18) 0.6371(5) 0.4690(3)
C16 C 0.25713(19) 0.6352(6) 0.5517(3)
H15 H 0.2618 0.5565 0.5868
C17 C 0.2880(2) 0.7481(6) 0.5824(3)
H16 H 0.3140 0.7473 0.6388
O9 O 0.35472(13) 0.9756(4) 0.6304(2)
C18 C 0.31495(17) 0.9849(5) 0.5639(3)
C19 C 0.28094(18) 0.8629(5) 0.5310(3)
C20 C 0.24287(19) 0.8648(6) 0.4483(3)
H17 H 0.2382 0.9435 0.4132
C21 C 0.2120(2) 0.7519(6) 0.4176(3)
H18 H 0.1860 0.7527 0.3612
N4 N 0.54952(16) 0.1916(5) 0.8085(3)
N5 N 0.5292(5) 0.2956(19) 0.9105(9)
H19 H 0.5574 0.3388 0.9351
H20 H 0.5085 0.3063 0.9301
C22 C 0.5334(3) 0.1968(14) 0.7284(5)
H21 H 0.5564 0.2003 0.7083
C23 C 0.5155(3) 0.1977(15) 0.8305(5)
Co3 Co 0.62503(2) 0.17963(7) 0.89745(4)
O10 O 0.63903(13) 0.2812(4) 0.8129(2)
O11 O 0.72039(13) 0.2896(4) 0.8730(2)
O12 O 0.62805(13) 0.6563(4) 0.4717(2)
O13 O 0.70674(12) 0.6051(4) 0.5178(2)
O14 O 0.60401(14) 0.0603(4) 0.9746(2)
C24 C 0.67864(18) 0.3118(5) 0.8143(3)
C25 C 0.67481(19) 0.3823(6) 0.7361(3)
C26 C 0.6317(2) 0.4389(10) 0.6760(5)
H22 H 0.6033 0.4300 0.6820
C27 C 0.6293(2) 0.5087(10) 0.6067(5)
H23 H 0.5995 0.5497 0.5666
C28 C 0.66950(18) 0.5192(6) 0.5955(3)
C29 C 0.7127(2) 0.4642(10) 0.6562(4)
H24 H 0.7410 0.4722 0.6501
C30 C 0.7153(2) 0.3975(10) 0.7261(4)
H25 H 0.7456 0.3614 0.7680
C31 C 0.66828(18) 0.5987(5) 0.5226(3)
Co5 Co 0.62503(2) 0.82037(7) 0.39745(4)
Co7 Co 0.12503(2) 0.32037(7) 0.39745(4)
Co9_2 Co 0.7500 0.2500 1.0000
Co10 Co 0.7500 0.7500 0.5000
Co11_2 Co 0.2500 0.7500 1.0000
O15 O 0.22039(13) 0.2104(4) 0.3730(2)
O16 O 0.62805(13) 0.3437(4) 0.9717(2)
O17 O 0.37195(13) 0.3437(4) 0.5283(2)
O18 O 0.20674(12) 0.1051(4) 0.5178(2)
O19 O 0.29326(12) 0.3949(4) 0.4822(2)
O21 O 0.69655(12) 0.0984(4) 0.9789(2)
H10 H 0.3554 0.9429 0.2802
C13 C 0.4343(6) 0.9407(19) 0.4317(10)
H12 H 0.4357 0.8720 0.4730
H14 H 0.4369 0.8930 0.3860
O23 O 0.64528(13) 0.9756(4) 0.8696(2)
O6_2 O 0.80345(12) 0.4016(4) 0.0211(2)
O7_2 O 0.85472(13) 0.5244(4) 0.1304(2)
C14_2 C 0.81495(17) 0.5151(5) 0.0639(3)
C15_2 C 0.78094(18) 0.6371(5) 0.0310(3)
C20_2 C 0.75713(19) 0.8648(6) 0.0517(3)
H17_2 H 0.7618 0.9435 0.0868
C21_2 C 0.7880(2) 0.7519(6) 0.0824(3)
H18_2 H 0.8140 0.7527 0.1388
Co7_2 Co 0.87497(2) 0.32037(7) 0.10255(4)
O15_2 O 0.77961(13) 0.2104(4) 0.1270(2)
O19_2 O 0.70674(12) 0.3949(4) 0.0178(2)
C16_2 C 0.74287(19) 0.6352(6) 0.9483(3)
H15_2 H 0.7382 0.5565 0.9132
C17_2 C 0.7120(2) 0.7481(6) 0.9176(3)
H16_2 H 0.6860 0.7473 0.8612
C18_2 C 0.68505(17) 0.9849(5) 0.9361(3)
C19_2 C 0.71906(18) 0.8629(5) 0.9690(3)
O18_2 O 0.79326(12) 0.1051(4) 0.9822(2)
O12_2 O 0.12805(13) 0.1563(4) 0.4717(2)
C27_2 C 0.1293(2) 0.0087(10) 0.6067(5)
H23_2 H 0.0995 0.0497 0.5666
C28_2 C 0.16950(18) 0.0192(6) 0.5955(3)
C31_2 C 0.16828(18) 0.0987(5) 0.5226(3)
N6_2 N 0.1153(4) 0.5213(11) 0.1059(5)
C32_2 C 0.1254(3) 0.5732(9) 0.0509(5)
H26_2 H 0.1536 0.6300 0.0728
C33_2 C 0.1405(5) 0.5349(16) 0.1936(7)
H27_2 H 0.1725 0.5762 0.2107
H28 H 0.1446 0.4429 0.2198
H29_2 H 0.1221 0.5953 0.2119
C34 C 0.0657(6) 0.4407(19) 0.0683(10)
H30 H 0.0643 0.3720 0.0270
H31_2 H 0.0388 0.5069 0.0405
H32 H 0.0631 0.3930 0.1140
N4_2 N 0.04952(16) 0.6916(5) 0.8085(3)
N5_2 N 0.0292(5) 0.7956(19) 0.9105(9)
H19_2 H 0.0574 0.8388 0.9351
H20_2 H 0.0085 0.8063 0.9301
C22_2 C 0.0334(3) 0.6968(14) 0.7284(5)
H21_2 H 0.0564 0.7003 0.7083
C23_2 C 0.0155(3) 0.6977(15) 0.8305(5)
Co3_2 Co 0.12503(2) 0.67963(7) 0.89745(4)
O10_2 O 0.13903(13) 0.7812(4) 0.8129(2)
O11_2 O 0.22039(13) 0.7896(4) 0.8730(2)
O14_2 O 0.10401(14) 0.5603(4) 0.9746(2)
C24_2 C 0.17864(18) 0.8118(5) 0.8143(3)
C25_2 C 0.17481(19) 0.8823(6) 0.7361(3)
C26_2 C 0.1317(2) 0.9389(10) 0.6760(5)
H22_2 H 0.1033 0.9300 0.6820
C29_2 C 0.2127(2) 0.9642(10) 0.6562(4)
H24_2 H 0.2410 0.9722 0.6501
C30_2 C 0.2153(2) 0.8975(10) 0.7261(4)
H25_2 H 0.2456 0.8614 0.7680
O16_2 O 0.12805(13) 0.8437(4) 0.9717(2)
O21_2 O 0.19655(12) 0.5984(4) 0.9789(2)
O23_2 O 0.14528(13) 0.4756(4) 0.8696(2)
O3_2 O 0.87195(13) 0.1563(4) 0.0283(2)
O7_3 O 0.64528(13) 0.0244(4) 0.3696(2)
C6_2 C 0.8707(2) 0.0087(10) 0.8933(5)
H5_2 H 0.9005 0.0497 0.9334
C7_2 C 0.83050(18) 0.0192(6) 0.9045(3)
C10_2 C 0.83172(18) 0.0987(5) 0.9774(3)
C14_3 C 0.68505(17) 0.0151(5) 0.4361(3)
C15_3 C 0.71906(18) 0.1371(5) 0.4690(3)
C16_3 C 0.75713(19) 0.1352(6) 0.5517(3)
H15_3 H 0.7618 0.0565 0.5868
C17_3 C 0.7880(2) 0.2481(6) 0.5824(3)
H16_3 H 0.8140 0.2473 0.6388
O8_2 O 0.80345(12) 0.5984(4) 0.5211(2)
O9_2 O 0.85472(13) 0.4756(4) 0.6304(2)
C18_3 C 0.81495(17) 0.4849(5) 0.5639(3)
C19_3 C 0.78094(18) 0.3629(5) 0.5310(3)
C20_3 C 0.74287(19) 0.3648(6) 0.4483(3)
H17_3 H 0.7382 0.4435 0.4132
C21_3 C 0.7120(2) 0.2519(6) 0.4176(3)
H18_3 H 0.6860 0.2527 0.3612
Co4_2 Co 0.87497(2) 0.67963(7) 0.60255(4)
O1_2 O 0.86097(13) 0.7812(4) 0.6871(2)
O2_2 O 0.77961(13) 0.7896(4) 0.6270(2)
O5_2 O 0.89599(14) 0.5603(4) 0.5254(2)
O6_3 O 0.69655(12) 0.9016(4) 0.4789(2)
N1_2 N 0.95048(16) 0.6916(5) 0.6915(3)
N2_2 N 0.9708(5) 0.7956(19) 0.5895(9)
H1_2 H 0.9426 0.8388 0.5649
H2_2 H 0.9915 0.8063 0.5699
N3_2 N 0.8847(4) 0.5213(11) 0.3941(5)
C1_2 C 0.9666(3) 0.6968(14) 0.7716(5)
H3_2 H 0.9436 0.7003 0.7917
C2_2 C 0.9845(3) 0.6977(15) 0.6695(5)
C3_2 C 0.82136(18) 0.8118(5) 0.6857(3)
C4_2 C 0.82519(19) 0.8823(6) 0.7639(3)
C5_2 C 0.8683(2) 0.9389(10) 0.8240(5)
H4_2 H 0.8967 0.9300 0.8180
C8_2 C 0.7873(2) 0.9642(10) 0.8438(4)
H6_2 H 0.7590 0.9722 0.8499
C9_2 C 0.7847(2) 0.8975(10) 0.7739(4)
H7_2 H 0.7544 0.8614 0.7320
C11_2 C 0.8746(3) 0.5732(9) 0.4491(5)
H8_2 H 0.8464 0.6300 0.4272
C12_2 C 0.8595(5) 0.5349(16) 0.3064(7)
H9_2 H 0.8275 0.5762 0.2893
H10_2 H 0.8554 0.4429 0.2802
H11_2 H 0.8779 0.5953 0.2881
C13_2 C 0.9343(6) 0.4407(19) 0.4317(10)
H12_2 H 0.9357 0.3720 0.4730
H13_2 H 0.9612 0.5069 0.4595
H14_2 H 0.9369 0.3930 0.3860
O15_3 O 0.72039(13) 0.7104(4) 0.3730(2)
O17_2 O 0.87195(13) 0.8437(4) 0.5283(2)
O19_3 O 0.79326(12) 0.8949(4) 0.4822(2)
O7_4 O 0.35472(13) 0.0244(4) 0.1304(2)
C14_4 C 0.31495(17) 0.0151(5) 0.0639(3)
C15_4 C 0.28094(18) 0.1371(5) 0.0310(3)
C20_4 C 0.25713(19) 0.3648(6) 0.0517(3)
H17_4 H 0.2618 0.4435 0.0868
C21_4 C 0.2880(2) 0.2519(6) 0.0824(3)
H18_4 H 0.3140 0.2527 0.1388
C16_4 C 0.24287(19) 0.1352(6) 0.9483(3)
H15_4 H 0.2382 0.0565 0.9132
C17_4 C 0.2120(2) 0.2481(6) 0.9176(3)
H16_4 H 0.1860 0.2473 0.8612
C18_4 C 0.18505(17) 0.4849(5) 0.9361(3)
C19_4 C 0.21906(18) 0.3629(5) 0.9690(3)
O6_4 O 0.30345(12) 0.9016(4) 0.0211(2)
O15_4 O 0.27961(13) 0.7104(4) 0.1270(2)
O19_4 O 0.20674(12) 0.8949(4) 0.0178(2)
H10_3 H 0.6446 0.0571 0.7198
C13_3 C 0.5657(6) 0.0593(19) 0.5683(10)
H12_3 H 0.5643 0.1280 0.5270
H14_3 H 0.5631 0.1070 0.6140
O1_3 O 0.63903(13) 0.7188(4) 0.3129(2)
O5_3 O 0.60401(14) 0.9397(4) 0.4746(2)
N1_3 N 0.54952(16) 0.8084(5) 0.3085(3)
N2_3 N 0.5292(5) 0.7044(19) 0.4105(9)
H1_3 H 0.5574 0.6612 0.4351
H2_3 H 0.5085 0.6937 0.4301
N3_3 N 0.6153(4) 0.9787(11) 0.6059(5)
C1_3 C 0.5334(3) 0.8032(14) 0.2284(5)
H3_3 H 0.5564 0.7997 0.2083
C2_3 C 0.5155(3) 0.8023(15) 0.3305(5)
C3_3 C 0.67864(18) 0.6882(5) 0.3143(3)
C4_3 C 0.67481(19) 0.6177(6) 0.2361(3)
C5_3 C 0.6317(2) 0.5611(10) 0.1760(5)
H4_3 H 0.6033 0.5700 0.1820
C6_3 C 0.6293(2) 0.4913(10) 0.1067(5)
H5_3 H 0.5995 0.4503 0.0666
C7_3 C 0.66950(18) 0.4808(6) 0.0955(3)
C8_3 C 0.7127(2) 0.5358(10) 0.1562(4)
H6_3 H 0.7410 0.5278 0.1501
C9_3 C 0.7153(2) 0.6025(10) 0.2261(4)
H7_3 H 0.7456 0.6386 0.2680
C10_3 C 0.66828(18) 0.4013(5) 0.0226(3)
C11_3 C 0.6254(3) 0.9268(9) 0.5509(5)
H8_3 H 0.6536 0.8700 0.5728
C12_3 C 0.6405(5) 0.9651(16) 0.6936(7)
H9_3 H 0.6725 0.9238 0.7107
H11_3 H 0.6221 0.9047 0.7119
H13_3 H 0.5388 0.9931 0.5405
N4_3 N 0.45048(16) 0.8084(5) 0.1915(3)
N5_3 N 0.4708(5) 0.7044(19) 0.0895(9)
H19_3 H 0.4426 0.6612 0.0649
H20_3 H 0.4915 0.6937 0.0699
C22_3 C 0.4666(3) 0.8032(14) 0.2716(5)
H21_3 H 0.4436 0.7997 0.2917
C23_3 C 0.4845(3) 0.8023(15) 0.1695(5)
O10_3 O 0.36097(13) 0.7188(4) 0.1871(2)
O14_3 O 0.39599(14) 0.9397(4) 0.0254(2)
C24_3 C 0.32136(18) 0.6882(5) 0.1857(3)
C25_3 C 0.32519(19) 0.6177(6) 0.2639(3)
C26_3 C 0.3683(2) 0.5611(10) 0.3240(5)
H22_3 H 0.3967 0.5700 0.3180
C27_3 C 0.3707(2) 0.4913(10) 0.3933(5)
H23_3 H 0.4005 0.4503 0.4334
C28_3 C 0.33050(18) 0.4808(6) 0.4045(3)
C29_3 C 0.2873(2) 0.5358(10) 0.3438(4)
H24_3 H 0.2590 0.5278 0.3499
C30_3 C 0.2847(2) 0.6025(10) 0.2739(4)
H25_3 H 0.2544 0.6386 0.2320
C31_3 C 0.33172(18) 0.4013(5) 0.4774(3)
N6_3 N 0.3847(4) 0.9787(11) 0.8941(5)
C32_3 C 0.3746(3) 0.9268(9) 0.9491(5)
H26_3 H 0.3464 0.8700 0.9272
C33_3 C 0.3595(5) 0.9651(16) 0.8064(7)
H27_3 H 0.3275 0.9238 0.7893
H29_3 H 0.3779 0.9047 0.7881
H31_3 H 0.4612 0.9931 0.9595
O1_4 O 0.13903(13) 0.2188(4) 0.3129(2)
O5_4 O 0.10401(14) 0.4397(4) 0.4746(2)
N1_4 N 0.04952(16) 0.3084(5) 0.3085(3)
N2_4 N 0.0292(5) 0.2044(19) 0.4105(9)
H1_4 H 0.0574 0.1612 0.4351
H2_4 H 0.0085 0.1937 0.4301
N3_4 N 0.1153(4) 0.4787(11) 0.6059(5)
C1_4 C 0.0334(3) 0.3032(14) 0.2284(5)
H3_4 H 0.0564 0.2997 0.2083
C2_4 C 0.0155(3) 0.3023(15) 0.3305(5)
C3_4 C 0.17864(18) 0.1882(5) 0.3143(3)
C4_4 C 0.17481(19) 0.1177(6) 0.2361(3)
C5_4 C 0.1317(2) 0.0611(10) 0.1760(5)
H4_4 H 0.1033 0.0700 0.1820
C8_4 C 0.2127(2) 0.0358(10) 0.1562(4)
H6_4 H 0.2410 0.0278 0.1501
C9_4 C 0.2153(2) 0.1025(10) 0.2261(4)
H7_4 H 0.2456 0.1386 0.2680
C11_4 C 0.1254(3) 0.4268(9) 0.5509(5)
H8_4 H 0.1536 0.3700 0.5728
C12_4 C 0.1405(5) 0.4651(16) 0.6936(7)
H9_4 H 0.1725 0.4238 0.7107
H10_4 H 0.1446 0.5571 0.7198
H11_4 H 0.1221 0.4047 0.7119
C13_4 C 0.0657(6) 0.5593(19) 0.5683(10)
H12_4 H 0.0643 0.6280 0.5270
H13_4 H 0.0388 0.4931 0.5405
H14_4 H 0.0631 0.6070 0.6140
C6_4 C 0.1293(2) 0.9913(10) 0.1067(5)
H5_4 H 0.0995 0.9503 0.0666
C7_4 C 0.16950(18) 0.9808(6) 0.0955(3)
C10_4 C 0.16828(18) 0.9013(5) 0.0226(3)
N4_4 N 0.95048(16) 0.3084(5) 0.1915(3)
N5_4 N 0.9708(5) 0.2044(19) 0.0895(9)
H19_4 H 0.9426 0.1612 0.0649
H20_4 H 0.9915 0.1937 0.0699
C22_4 C 0.9666(3) 0.3032(14) 0.2716(5)
H21_4 H 0.9436 0.2997 0.2917
C23_4 C 0.9845(3) 0.3023(15) 0.1695(5)
O10_4 O 0.86097(13) 0.2188(4) 0.1871(2)
O14_4 O 0.89599(14) 0.4397(4) 0.0254(2)
C24_4 C 0.82136(18) 0.1882(5) 0.1857(3)
C25_4 C 0.82519(19) 0.1177(6) 0.2639(3)
C26_4 C 0.8683(2) 0.0611(10) 0.3240(5)
H22_4 H 0.8967 0.0700 0.3180
C29_4 C 0.7873(2) 0.0358(10) 0.3438(4)
H24_4 H 0.7590 0.0278 0.3499
C30_4 C 0.7847(2) 0.1025(10) 0.2739(4)
H25_4 H 0.7544 0.1386 0.2320
N6_4 N 0.8847(4) 0.4787(11) 0.8941(5)
C32_4 C 0.8746(3) 0.4268(9) 0.9491(5)
H26_4 H 0.8464 0.3700 0.9272
C33_4 C 0.8595(5) 0.4651(16) 0.8064(7)
H27_4 H 0.8275 0.4238 0.7893
H28_2 H 0.8554 0.5571 0.7802
H29_4 H 0.8779 0.4047 0.7881
C34_2 C 0.9343(6) 0.5593(19) 0.9317(10)
H30_2 H 0.9357 0.6280 0.9730
H31_4 H 0.9612 0.4931 0.9595
H32_2 H 0.9369 0.6070 0.8860
C27_4 C 0.8707(2) 0.9913(10) 0.3933(5)
H23_4 H 0.9005 0.9503 0.4334
C28_4 C 0.83050(18) 0.9808(6) 0.4045(3)
C31_4 C 0.83172(18) 0.9013(5) 0.4774(3)
H28_3 H 0.6446 0.9429 0.2198
C34_3 C 0.5657(6) 0.9407(19) 0.0683(10)
H30_3 H 0.5643 0.8720 0.0270
H32_3 H 0.5631 0.8930 0.1140
H28_4 H 0.3554 0.0571 0.7802
C34_4 C 0.4343(6) 0.0593(19) 0.9317(10)
H30_4 H 0.4357 0.1280 0.9730
H32_4 H 0.4369 0.1070 0.8860
loop_
_geom_bond_atom_site_label_1
_geom_bond_atom_site_label_2
_geom_bond_site_symmetry_1
_geom_bond_site_symmetry_2
Co4 O8 1_555 1_555
Co8 O8 1_555 1_555
N6 C32 1_555 1_555
H26 C32 1_555 1_555
C33 N6 1_555 1_555
H27 C33 1_555 1_555
H29 C33 1_555 1_555
Co6 O3 1_555 1_555
Co4 O1 1_555 1_555
Co8 O2 1_555 1_555
O1 C3 1_555 1_555
O2 C3 1_555 1_555
O4 C10 1_555 1_555
O5 Co4 1_555 1_555
O6 Co8 1_555 1_555
O7 C14 1_555 1_555
N1 Co4 1_555 1_555
N2 H1 1_555 1_555
H2 N2 1_555 1_555
N3 C11 1_555 1_555
C1 N1 1_555 1_555
H3 C1 1_555 1_555
C2 N1 1_555 1_555
C3 C4 1_555 1_555
C4 C5 1_555 1_555
C5 H4 1_555 1_555
C6 C5 1_555 1_555
H5 C6 1_555 1_555
C7 C6 1_555 1_555
C8 C7 1_555 1_555
H6 C8 1_555 1_555
C9 C4 1_555 1_555
H7 C9 1_555 1_555
C10 C7 1_555 1_555
C11 O5 1_555 1_555
H8 C11 1_555 1_555
C12 N3 1_555 1_555
H9 C12 1_555 1_555
H11 C12 1_555 1_555
C14 O6 1_555 1_555
C15 C14 1_555 1_555
C16 C15 1_555 1_555
H15 C16 1_555 1_555
C17 C16 1_555 1_555
H16 C17 1_555 1_555
O9 C18 1_555 1_555
C18 C19 1_555 1_555
C19 C17 1_555 1_555
C20 C19 1_555 1_555
H17 C20 1_555 1_555
C21 C15 1_555 1_555
H18 C21 1_555 1_555
N4 C22 1_555 1_555
N5 H19 1_555 1_555
H20 N5 1_555 1_555
C22 C2 1_555 1_555
H21 C22 1_555 1_555
C23 C1 1_555 1_555
Co3 N4 1_555 1_555
O10 Co3 1_555 1_555
O11 C24 1_555 1_555
O12 C31 1_555 1_555
O13 C31 1_555 1_555
O14 Co3 1_555 1_555
C24 O10 1_555 1_555
C25 C24 1_555 1_555
C26 C25 1_555 1_555
H22 C26 1_555 1_555
C27 C26 1_555 1_555
H23 C27 1_555 1_555
C28 C27 1_555 1_555
C29 C28 1_555 1_555
H24 C29 1_555 1_555
C30 C25 1_555 1_555
H25 C30 1_555 1_555
C31 C28 1_555 1_555
Co5 O12 1_555 1_555
Co7 O6 1_555 1_555
Co9_2 O11 1_555 1_555
Co10 O13 1_555 1_555
Co11_2 O4 1_555 1_555
O15 Co8 1_555 1_555
O16 Co3 1_555 1_555
O17 Co4 1_555 1_555
O18 Co8 1_555 1_555
O19 Co8 1_555 1_555
O21 Co3 1_555 1_555
O7 Co7 1_555 1_555
N2 C2 1_555 1_555
C8 C9 1_555 1_555
C20 C21 1_555 1_555
N4 C23 1_555 1_555
N5 C23 1_555 1_555
C29 C30 1_555 1_555
Co9_2 O21 1_555 1_555
H12 C13 1_555 1_555
H14 C13 1_555 1_555
O6_2 Co9 1_555 1_555
O7_2 C14_2 1_555 1_555
C14_2 O6_2 1_555 1_555
C15_2 C14_2 1_555 1_555
H17_2 C20_2 1_555 1_555
C21_2 C15_2 1_555 1_555
H18_2 C21_2 1_555 1_555
Co7_2 O6_2 1_555 1_555
O15_2 Co9 1_555 1_555
O19_2 Co9 1_555 1_555
O7_2 Co7_2 1_555 1_555
C20_2 C21_2 1_555 1_555
H15_2 C16_2 1_555 1_555
C17_2 C16_2 1_555 1_555
H16_2 C17_2 1_555 1_555
O23 C18_2 1_555 1_555
C18_2 C19_2 1_555 1_555
C19_2 C17_2 1_555 1_555
O18_2 Co9_2 1_555 1_555
O12_2 C31_2 1_555 1_555
O18 C31_2 1_555 1_555
H23_2 C27_2 1_555 1_555
C28_2 C27_2 1_555 1_555
C31_2 C28_2 1_555 1_555
Co7 O12_2 1_555 1_555
N6_2 C32_2 1_555 1_555
H26_2 C32_2 1_555 1_555
C33_2 N6_2 1_555 1_555
H27_2 C33_2 1_555 1_555
H28 C33_2 1_555 1_555
H29_2 C33_2 1_555 1_555
C34 N6_2 1_555 1_555
H30 C34 1_555 1_555
H31_2 C34 1_555 1_555
H32 C34 1_555 1_555
N4_2 C22_2 1_555 1_555
N5_2 H19_2 1_555 1_555
H20_2 N5_2 1_555 1_555
H21_2 C22_2 1_555 1_555
Co3_2 N4_2 1_555 1_555
O10_2 Co3_2 1_555 1_555
O11_2 C24_2 1_555 1_555
O14_2 Co3_2 1_555 1_555
C24_2 O10_2 1_555 1_555
C25_2 C24_2 1_555 1_555
C26_2 C25_2 1_555 1_555
H22_2 C26_2 1_555 1_555
H24_2 C29_2 1_555 1_555
C30_2 C25_2 1_555 1_555
H25_2 C30_2 1_555 1_555
Co11_2 O11_2 1_555 1_555
O16_2 Co3_2 1_555 1_555
O21_2 Co3_2 1_555 1_555
O23_2 Co3_2 1_555 1_555
N4_2 C23_2 1_555 1_555
N5_2 C23_2 1_555 1_555
C29_2 C30_2 1_555 1_555
Co11_2 O21_2 1_555 1_555
Co7_2 O3_2 1_555 1_555
O18_2 C10_2 1_555 1_555
O7_3 C14_3 1_555 1_555
H5_2 C6_2 1_555 1_555
C7_2 C6_2 1_555 1_555
C10_2 C7_2 1_555 1_555
C15_3 C14_3 1_555 1_555
C16_3 C15_3 1_555 1_555
H15_3 C16_3 1_555 1_555
C17_3 C16_3 1_555 1_555
H16_3 C17_3 1_555 1_555
O8_2 C18_3 1_555 1_555
O9_2 C18_3 1_555 1_555
C18_3 C19_3 1_555 1_555
C19_3 C17_3 1_555 1_555
C20_3 C19_3 1_555 1_555
H17_3 C20_3 1_555 1_555
C21_3 C15_3 1_555 1_555
H18_3 C21_3 1_555 1_555
Co4_2 O8_2 1_555 1_555
Co10 O8_2 1_555 1_555
O9_2 Co4_2 1_555 1_555
C20_3 C21_3 1_555 1_555
Co4_2 O1_2 1_555 1_555
Co10 O2_2 1_555 1_555
O1_2 C3_2 1_555 1_555
O2_2 C3_2 1_555 1_555
O5_2 Co4_2 1_555 1_555
O6_3 Co10 1_555 1_555
N1_2 Co4_2 1_555 1_555
N2_2 H1_2 1_555 1_555
H2_2 N2_2 1_555 1_555
N3_2 C11_2 1_555 1_555
C1_2 N1_2 1_555 1_555
H3_2 C1_2 1_555 1_555
C2_2 N1_2 1_555 1_555
C3_2 C4_2 1_555 1_555
C4_2 C5_2 1_555 1_555
C5_2 H4_2 1_555 1_555
H6_2 C8_2 1_555 1_555
C9_2 C4_2 1_555 1_555
H7_2 C9_2 1_555 1_555
C11_2 O5_2 1_555 1_555
H8_2 C11_2 1_555 1_555
C12_2 N3_2 1_555 1_555
H9_2 C12_2 1_555 1_555
H10_2 C12_2 1_555 1_555
H11_2 C12_2 1_555 1_555
C13_2 N3_2 1_555 1_555
H12_2 C13_2 1_555 1_555
H13_2 C13_2 1_555 1_555
H14_2 C13_2 1_555 1_555
Co5 O6_3 1_555 1_555
O15_3 Co10 1_555 1_555
O17_2 Co4_2 1_555 1_555
O19_3 Co10 1_555 1_555
N2_2 C2_2 1_555 1_555
C8_2 C9_2 1_555 1_555
O7_4 C14_4 1_555 1_555
C15_4 C14_4 1_555 1_555
H17_4 C20_4 1_555 1_555
C21_4 C15_4 1_555 1_555
H18_4 C21_4 1_555 1_555
C20_4 C21_4 1_555 1_555
H15_4 C16_4 1_555 1_555
C17_4 C16_4 1_555 1_555
H16_4 C17_4 1_555 1_555
O21_2 C18_4 1_555 1_555
O23_2 C18_4 1_555 1_555
C18_4 C19_4 1_555 1_555
C19_4 C17_4 1_555 1_555
O6_4 Co11 1_555 1_555
Co6 O6_4 1_555 1_555
O15_4 Co11 1_555 1_555
O19_4 Co11 1_555 1_555
H12_3 C13_3 1_555 1_555
H14_3 C13_3 1_555 1_555
Co5 O1_3 1_555 1_555
O1_3 C3_3 1_555 1_555
O15_3 C3_3 1_555 1_555
O19_2 C10_3 1_555 1_555
O5_3 Co5 1_555 1_555
N1_3 Co5 1_555 1_555
N2_3 H1_3 1_555 1_555
H2_3 N2_3 1_555 1_555
N3_3 C11_3 1_555 1_555
C1_3 N1_3 1_555 1_555
H3_3 C1_3 1_555 1_555
C2_3 N1_3 1_555 1_555
C3_3 C4_3 1_555 1_555
C4_3 C5_3 1_555 1_555
C5_3 H4_3 1_555 1_555
C6_3 C5_3 1_555 1_555
H5_3 C6_3 1_555 1_555
C7_3 C6_3 1_555 1_555
C8_3 C7_3 1_555 1_555
H6_3 C8_3 1_555 1_555
C9_3 C4_3 1_555 1_555
H7_3 C9_3 1_555 1_555
C10_3 C7_3 1_555 1_555
C11_3 O5_3 1_555 1_555
H8_3 C11_3 1_555 1_555
C12_3 N3_3 1_555 1_555
H9_3 C12_3 1_555 1_555
H11_3 C12_3 1_555 1_555
N4_3 C22_3 1_555 1_555
N5_3 H19_3 1_555 1_555
H20_3 N5_3 1_555 1_555
C22_3 C2_3 1_555 1_555
H21_3 C22_3 1_555 1_555
C23_3 C1_3 1_555 1_555
Co6 N4_3 1_555 1_555
O10_3 Co6 1_555 1_555
O15_4 C24_3 1_555 1_555
O17 C31_3 1_555 1_555
O19 C31_3 1_555 1_555
O14_3 Co6 1_555 1_555
C24_3 O10_3 1_555 1_555
C25_3 C24_3 1_555 1_555
C26_3 C25_3 1_555 1_555
H22_3 C26_3 1_555 1_555
C27_3 C26_3 1_555 1_555
H23_3 C27_3 1_555 1_555
C28_3 C27_3 1_555 1_555
C29_3 C28_3 1_555 1_555
H24_3 C29_3 1_555 1_555
C30_3 C25_3 1_555 1_555
H25_3 C30_3 1_555 1_555
C31_3 C28_3 1_555 1_555
N2_3 C2_3 1_555 1_555
C8_3 C9_3 1_555 1_555
N4_3 C23_3 1_555 1_555
N5_3 C23_3 1_555 1_555
C29_3 C30_3 1_555 1_555
N6_3 C32_3 1_555 1_555
H26_3 C32_3 1_555 1_555
C33_3 N6_3 1_555 1_555
H27_3 C33_3 1_555 1_555
H29_3 C33_3 1_555 1_555
Co7 O1_4 1_555 1_555
O1_4 C3_4 1_555 1_555
O15 C3_4 1_555 1_555
O5_4 Co7 1_555 1_555
N1_4 Co7 1_555 1_555
N2_4 H1_4 1_555 1_555
H2_4 N2_4 1_555 1_555
N3_4 C11_4 1_555 1_555
C1_4 N1_4 1_555 1_555
H3_4 C1_4 1_555 1_555
C2_4 N1_4 1_555 1_555
C3_4 C4_4 1_555 1_555
C4_4 C5_4 1_555 1_555
C5_4 H4_4 1_555 1_555
H6_4 C8_4 1_555 1_555
C9_4 C4_4 1_555 1_555
H7_4 C9_4 1_555 1_555
C11_4 O5_4 1_555 1_555
H8_4 C11_4 1_555 1_555
C12_4 N3_4 1_555 1_555
H9_4 C12_4 1_555 1_555
H10_4 C12_4 1_555 1_555
H11_4 C12_4 1_555 1_555
C13_4 N3_4 1_555 1_555
H12_4 C13_4 1_555 1_555
H13_4 C13_4 1_555 1_555
H14_4 C13_4 1_555 1_555
N2_4 C2_4 1_555 1_555
C8_4 C9_4 1_555 1_555
O19_4 C10_4 1_555 1_555
H5_4 C6_4 1_555 1_555
C7_4 C6_4 1_555 1_555
C10_4 C7_4 1_555 1_555
N4_4 C22_4 1_555 1_555
N5_4 H19_4 1_555 1_555
H20_4 N5_4 1_555 1_555
H21_4 C22_4 1_555 1_555
Co7_2 N4_4 1_555 1_555
O10_4 Co7_2 1_555 1_555
O15_2 C24_4 1_555 1_555
O14_4 Co7_2 1_555 1_555
C24_4 O10_4 1_555 1_555
C25_4 C24_4 1_555 1_555
C26_4 C25_4 1_555 1_555
H22_4 C26_4 1_555 1_555
H24_4 C29_4 1_555 1_555
C30_4 C25_4 1_555 1_555
H25_4 C30_4 1_555 1_555
N4_4 C23_4 1_555 1_555
N5_4 C23_4 1_555 1_555
C29_4 C30_4 1_555 1_555
N6_4 C32_4 1_555 1_555
H26_4 C32_4 1_555 1_555
C33_4 N6_4 1_555 1_555
H27_4 C33_4 1_555 1_555
H28_2 C33_4 1_555 1_555
H29_4 C33_4 1_555 1_555
C34_2 N6_4 1_555 1_555
H30_2 C34_2 1_555 1_555
H31_4 C34_2 1_555 1_555
H32_2 C34_2 1_555 1_555
O17_2 C31_4 1_555 1_555
O19_3 C31_4 1_555 1_555
H23_4 C27_4 1_555 1_555
C28_4 C27_4 1_555 1_555
C31_4 C28_4 1_555 1_555
H30_3 C34_3 1_555 1_555
H32_3 C34_3 1_555 1_555
H30_4 C34_4 1_555 1_555
H32_4 C34_4 1_555 1_555

#END
