
###############################################################################
#
# This file contains modified crystal structure data generated from the
# MOF subset of the Cambridge Structural Database (CSD) v543 
# hosted by the Cambridge Crystallographic Data Centre (CCDC).
#
# This work is licensed under the Creative Commons
# Attribution-NonCommercial-ShareAlike 4.0 International License.
# To view a copy of this license, visit
# http://creativecommons.org/licenses/by-nc-sa/4.0/
# or send a letter to
# Creative Commons, PO Box 1866, Mountain View, CA 94042, USA.
#
# CIF created using the CSD Python API on 29 September 2022
# The structure has been converted into the P1 space group
# The structure has a 3D framework
# The original CSD entry MOYRIE is in the orthorhombic crystal system
# The framework has been calculated to contain at least 10.0% void space
# The void calculation uses a probe of radius 1.32A, grid spacing 0.4
# H atom positions have been added when not included in the experimental data
# Generated hydrogen atom positions removed from atoms on special positions
#
###############################################################################

data_MOYRIE
_chemical_formula_moiety         '(C384 H360 N12 O124 Zr32)n'
_symmetry_cell_setting           triclinic
_symmetry_space_group_name_H-M   'P 1'
_symmetry_Int_Tables_number      1
_space_group_name_Hall           'P 1'
loop_
_symmetry_equiv_pos_site_id
_symmetry_equiv_pos_as_xyz
1 x,y,z
_cell_length_a                   22.266(4)
_cell_length_b                   37.2417(13)
_cell_length_c                   40.728(2)
_cell_angle_alpha                90
_cell_angle_beta                 90
_cell_angle_gamma                90
_cell_volume                     33772.6
loop_
_atom_site_label
_atom_site_type_symbol
_atom_site_fract_x
_atom_site_fract_y
_atom_site_fract_z
Zr3 Zr 0.42023(10) 0.74803(3) 0.000000
O1 O 0.500000 0.7474(2) 0.0257(2)
O3 O 0.4245(4) 0.79517(13) 0.03126(19)
O8 O 0.3252(8) 0.7501(3) 0.000000
O10 O 0.4235(7) 0.6867(2) 0.000000
Zr5 Zr 0.500000 0.79549(3) 0.06023(3)
Zr11 Zr 0.42035(10) 0.84292(3) 0.000000
Zr12 Zr 0.57965(10) 0.84292(3) 0.000000
Zr13 Zr 0.57977(10) 0.74803(3) 0.000000
Zr14 Zr 0.42023(10) 0.25197(3) 0.000000
O26 O 0.3901(5) 0.7284(2) 0.04954(17)
H32 H 0.311699 0.772657 0.0107012
H34 H 0.423582 0.677809 0.0229859
Zr1 Zr 0.500000 0.79549(3) 0.93977(3)
Zr2 Zr 0.07965(10) 0.65708(3) 0.500000
Zr3_2 Zr 0.42023(10) 0.74803(3) 1.000000
O2 O 0.0755(7) 0.5990(2) 0.500000
O4 O 0.000000 0.6569(3) 0.4746(3)
O5 O 0.0604(4) 0.66885(16) 0.58695(13)
O6 O 0.1117(5) 0.63831(18) 0.55066(17)
O7 O 0.3901(5) 0.7284(2) 0.95046(17)
O8_2 O 0.3252(8) 0.7501(3) 1.000000
O9 O 0.4404(5) 0.75964(18) 0.91255(15)
C1 C 0.0989(8) 0.6458(3) 0.5792(3)
O10_2 O 0.4235(7) 0.6867(2) 1.000000
N1 N 0.1951(9) 0.500000 0.7419(3)
H1 H 0.171491 0.500000 0.725214
C2 C 0.1122(8) 0.6312(3) 0.6361(3)
H2 H 0.080834 0.647202 0.639784
C3 C 0.3789(8) 0.7129(3) 0.8942(3)
H3 H 0.384304 0.719847 0.872461
C4 C 0.4035(8) 0.7358(3) 0.9211(3)
C5 C 0.1297(8) 0.6262(3) 0.6051(3)
H4 H 0.160857 0.610503 0.600183
C6 C 0.1857(5) 0.58199(19) 0.72233(15)
C7 C 0.2079(4) 0.57205(18) 0.6918(2)
H5 H 0.238289 0.555021 0.690246
C8 C 0.1846(4) 0.58757(19) 0.66344(15)
H6 H 0.199473 0.580926 0.642987
C9 C 0.1391(5) 0.61303(19) 0.66570(14)
C10 C 0.1169(4) 0.62296(18) 0.69628(19)
H7 H 0.086509 0.639992 0.697790
C11 C 0.1402(5) 0.60744(19) 0.72459(13)
H8 H 0.125324 0.614087 0.745049
C12 C 0.3491(8) 0.6824(3) 0.9008(3)
H9 H 0.343715 0.676127 0.922671
C13 C 0.2622(5) 0.58032(14) 0.80571(17)
C14 C 0.2699(5) 0.54382(16) 0.81149(16)
H10 H 0.288797 0.536083 0.830580
C15 C 0.2493(5) 0.51888(11) 0.78873(19)
C16 C 0.2210(6) 0.53045(14) 0.76019(18)
C17 C 0.2134(5) 0.56694(16) 0.75441(17)
C18 C 0.2340(5) 0.59188(11) 0.77717(18)
H11 H 0.228876 0.616302 0.773302
C19 C 0.3244(5) 0.65808(17) 0.87542(16)
C20 C 0.3042(5) 0.62480(19) 0.88623(13)
H12 H 0.305007 0.619268 0.908497
C21 C 0.2827(5) 0.59979(16) 0.86377(18)
H13 H 0.269235 0.577522 0.871011
C22 C 0.2815(5) 0.60805(17) 0.83050(16)
C23 C 0.3017(5) 0.64133(18) 0.81969(13)
H14 H 0.300857 0.646864 0.797423
C24 C 0.3231(5) 0.66635(15) 0.84214(17)
H15 H 0.336629 0.688611 0.834909
O11 O 0.1749(8) 0.6590(3) 0.500000
O12 O 0.0604(4) 0.33115(16) 0.58695(13)
O13 O 0.1117(5) 0.36169(18) 0.55066(17)
O14 O 0.3901(5) 0.2716(2) 0.95046(17)
O15 O 0.4404(5) 0.24036(18) 0.91255(15)
C25 C 0.0989(8) 0.3542(3) 0.5792(3)
C26 C 0.1122(8) 0.3688(3) 0.6361(3)
H16 H 0.080834 0.352798 0.639784
C27 C 0.3789(8) 0.2871(3) 0.8942(3)
H17 H 0.384304 0.280153 0.872461
C28 C 0.4035(8) 0.2642(3) 0.9211(3)
C29 C 0.1297(8) 0.3738(3) 0.6051(3)
H18 H 0.160857 0.389497 0.600183
C30 C 0.1857(5) 0.41801(19) 0.72233(15)
C31 C 0.2079(4) 0.42795(18) 0.6918(2)
H19 H 0.238289 0.444979 0.690246
C32 C 0.1846(4) 0.41243(19) 0.66344(15)
H20 H 0.199473 0.419074 0.642987
C33 C 0.1391(5) 0.38697(19) 0.66570(14)
C34 C 0.1169(4) 0.37704(18) 0.69628(19)
H21 H 0.086509 0.360008 0.697790
C35 C 0.1402(5) 0.39256(19) 0.72459(13)
H22 H 0.125324 0.385913 0.745049
C36 C 0.3491(8) 0.3176(3) 0.9008(3)
H23 H 0.343715 0.323873 0.922671
C37 C 0.2622(5) 0.41968(14) 0.80571(17)
C38 C 0.2699(5) 0.45618(16) 0.81149(16)
H24 H 0.288797 0.463917 0.830580
C39 C 0.2493(5) 0.48112(11) 0.78873(19)
C40 C 0.2210(6) 0.46955(14) 0.76019(18)
C41 C 0.2134(5) 0.43306(16) 0.75441(17)
C42 C 0.2340(5) 0.40812(11) 0.77717(18)
H25 H 0.228876 0.383698 0.773302
C43 C 0.3244(5) 0.34192(17) 0.87542(16)
C44 C 0.3042(5) 0.37520(19) 0.88623(13)
H26 H 0.305007 0.380732 0.908497
C45 C 0.2827(5) 0.40021(16) 0.86377(18)
H27 H 0.269235 0.422478 0.871011
C46 C 0.2815(5) 0.39195(17) 0.83050(16)
C47 C 0.3017(5) 0.35867(18) 0.81969(13)
H28 H 0.300857 0.353136 0.797423
C48 C 0.3231(5) 0.33365(15) 0.84214(17)
H29 H 0.336629 0.311389 0.834909
O16 O 0.5755(4) 0.79517(13) 0.96874(19)
Zr4 Zr 0.500000 0.20451(3) 0.93977(3)
Zr6 Zr -0.000000 0.70451(3) 0.43977(3)
Zr7 Zr 0.000000 0.29549(3) 0.56023(3)
Zr8 Zr 0.000000 0.70451(3) 0.56023(3)
Zr10 Zr 0.07965(10) 0.34292(3) 0.500000
Zr11_2 Zr 0.42035(10) 0.84292(3) 1.000000
Zr12_2 Zr 0.57965(10) 0.84292(3) 1.000000
Zr13_2 Zr 0.57977(10) 0.74803(3) 1.000000
Zr14_2 Zr 0.42023(10) 0.25197(3) 1.000000
O17 O 0.500000 0.7474(2) 0.9743(2)
O18 O 0.0755(4) 0.70483(13) 0.53126(19)
O19 O 0.4245(4) 0.79517(13) 0.96874(19)
O20 O 0.0755(4) 0.70483(13) 0.46874(19)
O21 O 0.000000 0.6569(3) 0.5254(3)
O22 O 0.500000 0.8431(3) 0.9746(3)
O23 O 0.5604(4) 0.83115(16) 0.91305(13)
O24 O 0.4396(4) 0.83115(16) 0.91305(13)
O25 O 0.1117(5) 0.63831(18) 0.44934(17)
O27 O 0.5596(5) 0.75964(18) 0.91255(15)
H33 H 0.310284 0.749435 0.977031
H35 H 0.387776 0.677127 0.988321
O4_2 O 1.000000 0.6569(3) 0.4746(3)
Zr6_2 Zr 1.000000 0.70451(3) 0.43977(3)
Zr7_2 Zr 1.000000 0.29549(3) 0.56023(3)
Zr8_2 Zr 1.000000 0.70451(3) 0.56023(3)
Zr9 Zr 0.92035(10) 0.65708(3) 0.500000
O21_2 O 1.000000 0.6569(3) 0.5254(3)
O4_3 O -0.000000 0.3431(3) 0.4746(3)
Zr6_3 Zr -0.000000 0.29549(3) 0.43977(3)
O21_3 O -0.000000 0.3431(3) 0.5254(3)
Zr3_3 Zr 0.57977(10) 0.25197(3) 0.000000
O1_2 O 0.500000 0.2526(2) 0.0257(2)
O3_2 O 0.5755(4) 0.20483(13) 0.03126(19)
O8_3 O 0.6748(8) 0.2499(3) 0.000000
O10_3 O 0.5765(7) 0.3133(2) 0.000000
Zr5_2 Zr 0.500000 0.20451(3) 0.06023(3)
Zr11_3 Zr 0.57965(10) 0.15708(3) 0.000000
Zr12_3 Zr 0.42035(10) 0.15708(3) 0.000000
O26_2 O 0.6099(5) 0.2716(2) 0.04954(17)
H32_2 H 0.688301 0.227343 0.0107012
H34_2 H 0.576418 0.322191 0.0229859
Zr2_2 Zr 0.92035(10) 0.34292(3) 0.500000
Zr3_4 Zr 0.57977(10) 0.25197(3) 1.000000
O2_2 O 0.9245(7) 0.4010(2) 0.500000
O4_4 O 1.000000 0.3431(3) 0.4746(3)
O5_2 O 0.9396(4) 0.33115(16) 0.58695(13)
O6_2 O 0.8883(5) 0.36169(18) 0.55066(17)
O7_2 O 0.6099(5) 0.2716(2) 0.95046(17)
O8_4 O 0.6748(8) 0.2499(3) 1.000000
O9_2 O 0.5596(5) 0.24036(18) 0.91255(15)
C1_2 C 0.9011(8) 0.3542(3) 0.5792(3)
O10_4 O 0.5765(7) 0.3133(2) 1.000000
N1_2 N 0.8049(9) 0.500000 0.7419(3)
H1_2 H 0.828509 0.500000 0.725214
C2_2 C 0.8878(8) 0.3688(3) 0.6361(3)
H2_2 H 0.919166 0.352798 0.639784
C3_2 C 0.6211(8) 0.2871(3) 0.8942(3)
H3_2 H 0.615696 0.280153 0.872461
C4_2 C 0.5965(8) 0.2642(3) 0.9211(3)
C5_2 C 0.8703(8) 0.3738(3) 0.6051(3)
H4_2 H 0.839143 0.389497 0.600183
C6_2 C 0.8143(5) 0.41801(19) 0.72233(15)
C7_2 C 0.7921(4) 0.42795(18) 0.6918(2)
H5_2 H 0.761711 0.444979 0.690246
C8_2 C 0.8154(4) 0.41243(19) 0.66344(15)
H6_2 H 0.800527 0.419074 0.642987
C9_2 C 0.8609(5) 0.38697(19) 0.66570(14)
C10_2 C 0.8831(4) 0.37704(18) 0.69628(19)
H7_2 H 0.913491 0.360008 0.697790
C11_2 C 0.8598(5) 0.39256(19) 0.72459(13)
H8_2 H 0.874676 0.385913 0.745049
C12_2 C 0.6509(8) 0.3176(3) 0.9008(3)
H9_2 H 0.656285 0.323873 0.922671
C13_2 C 0.7378(5) 0.41968(14) 0.80571(17)
C14_2 C 0.7301(5) 0.45618(16) 0.81149(16)
H10_2 H 0.711203 0.463917 0.830580
C15_2 C 0.7507(5) 0.48112(11) 0.78873(19)
C16_2 C 0.7790(6) 0.46955(14) 0.76019(18)
C17_2 C 0.7866(5) 0.43306(16) 0.75441(17)
C18_2 C 0.7660(5) 0.40812(11) 0.77717(18)
H11_2 H 0.771124 0.383698 0.773302
C19_2 C 0.6756(5) 0.34192(17) 0.87542(16)
C20_2 C 0.6958(5) 0.37520(19) 0.88623(13)
H12_2 H 0.694993 0.380732 0.908497
C21_2 C 0.7173(5) 0.40021(16) 0.86377(18)
H13_2 H 0.730765 0.422478 0.871011
C22_2 C 0.7185(5) 0.39195(17) 0.83050(16)
C23_2 C 0.6983(5) 0.35867(18) 0.81969(13)
H14_2 H 0.699143 0.353136 0.797423
C24_2 C 0.6769(5) 0.33365(15) 0.84214(17)
H15_2 H 0.663371 0.311389 0.834909
O11_2 O 0.8251(8) 0.3410(3) 0.500000
O12_2 O 0.9396(4) 0.66885(16) 0.58695(13)
O13_2 O 0.8883(5) 0.63831(18) 0.55066(17)
O14_2 O 0.6099(5) 0.7284(2) 0.95046(17)
C25_2 C 0.9011(8) 0.6458(3) 0.5792(3)
C26_2 C 0.8878(8) 0.6312(3) 0.6361(3)
H16_2 H 0.919166 0.647202 0.639784
C27_2 C 0.6211(8) 0.7129(3) 0.8942(3)
H17_2 H 0.615696 0.719847 0.872461
C28_2 C 0.5965(8) 0.7358(3) 0.9211(3)
C29_2 C 0.8703(8) 0.6262(3) 0.6051(3)
H18_2 H 0.839143 0.610503 0.600183
C30_2 C 0.8143(5) 0.58199(19) 0.72233(15)
C31_2 C 0.7921(4) 0.57205(18) 0.6918(2)
H19_2 H 0.761711 0.555021 0.690246
C32_2 C 0.8154(4) 0.58757(19) 0.66344(15)
H20_2 H 0.800527 0.580926 0.642987
C33_2 C 0.8609(5) 0.61303(19) 0.66570(14)
C34_2 C 0.8831(4) 0.62296(18) 0.69628(19)
H21_2 H 0.913491 0.639992 0.697790
C35_2 C 0.8598(5) 0.60744(19) 0.72459(13)
H22_2 H 0.874676 0.614087 0.745049
C36_2 C 0.6509(8) 0.6824(3) 0.9008(3)
H23_2 H 0.656285 0.676127 0.922671
C37_2 C 0.7378(5) 0.58032(14) 0.80571(17)
C38_2 C 0.7301(5) 0.54382(16) 0.81149(16)
H24_2 H 0.711203 0.536083 0.830580
C39_2 C 0.7507(5) 0.51888(11) 0.78873(19)
C40_2 C 0.7790(6) 0.53045(14) 0.76019(18)
C41_2 C 0.7866(5) 0.56694(16) 0.75441(17)
C42_2 C 0.7660(5) 0.59188(11) 0.77717(18)
H25_2 H 0.771124 0.616302 0.773302
C43_2 C 0.6756(5) 0.65808(17) 0.87542(16)
C44_2 C 0.6958(5) 0.62480(19) 0.88623(13)
H26_2 H 0.694993 0.619268 0.908497
C45_2 C 0.7173(5) 0.59979(16) 0.86377(18)
H27_2 H 0.730765 0.577522 0.871011
C46_2 C 0.7185(5) 0.60805(17) 0.83050(16)
C47_2 C 0.6983(5) 0.64133(18) 0.81969(13)
H28_2 H 0.699143 0.646864 0.797423
C48_2 C 0.6769(5) 0.66635(15) 0.84214(17)
H29_2 H 0.663371 0.688611 0.834909
O16_2 O 0.4245(4) 0.20483(13) 0.96874(19)
Zr6_4 Zr 1.000000 0.29549(3) 0.43977(3)
Zr11_4 Zr 0.57965(10) 0.15708(3) 1.000000
Zr12_4 Zr 0.42035(10) 0.15708(3) 1.000000
O17_2 O 0.500000 0.2526(2) 0.9743(2)
O18_2 O 0.9245(4) 0.29517(13) 0.53126(19)
O19_2 O 0.5755(4) 0.20483(13) 0.96874(19)
O20_2 O 0.9245(4) 0.29517(13) 0.46874(19)
O21_4 O 1.000000 0.3431(3) 0.5254(3)
O22_2 O 0.500000 0.1569(3) 0.9746(3)
O23_2 O 0.4396(4) 0.16885(16) 0.91305(13)
O24_2 O 0.5604(4) 0.16885(16) 0.91305(13)
O25_2 O 0.8883(5) 0.36169(18) 0.44934(17)
H33_2 H 0.689716 0.250565 0.977031
H35_2 H 0.612224 0.322873 0.988321
O2_3 O 0.9245(7) 0.5990(2) 0.500000
O5_3 O 0.9396(4) 0.66885(16) 0.41305(13)
O6_3 O 0.8883(5) 0.63831(18) 0.44934(17)
O7_3 O 0.6099(5) 0.7284(2) 0.04954(17)
O8_5 O 0.6748(8) 0.7501(3) 0.000000
O9_3 O 0.5596(5) 0.75964(18) 0.08745(15)
C1_3 C 0.9011(8) 0.6458(3) 0.4208(3)
O10_5 O 0.5765(7) 0.6867(2) 0.000000
N1_3 N 0.8049(9) 0.500000 0.2581(3)
H1_3 H 0.828509 0.500000 0.274786
C2_3 C 0.8878(8) 0.6312(3) 0.3639(3)
H2_3 H 0.919166 0.647202 0.360216
C3_3 C 0.6211(8) 0.7129(3) 0.1058(3)
H3_3 H 0.615696 0.719847 0.127539
C4_3 C 0.5965(8) 0.7358(3) 0.0789(3)
C5_3 C 0.8703(8) 0.6262(3) 0.3949(3)
H4_3 H 0.839143 0.610503 0.399817
C6_3 C 0.8143(5) 0.58199(19) 0.27767(15)
C7_3 C 0.7921(4) 0.57205(18) 0.3082(2)
H5_3 H 0.761711 0.555021 0.309754
C8_3 C 0.8154(4) 0.58757(19) 0.33656(15)
H6_3 H 0.800527 0.580926 0.357013
C9_3 C 0.8609(5) 0.61303(19) 0.33430(14)
C10_3 C 0.8831(4) 0.62296(18) 0.30372(19)
H7_3 H 0.913491 0.639992 0.302210
C11_3 C 0.8598(5) 0.60744(19) 0.27541(13)
H8_3 H 0.874676 0.614087 0.254951
C12_3 C 0.6509(8) 0.6824(3) 0.0992(3)
H9_3 H 0.656285 0.676127 0.077329
C13_3 C 0.7378(5) 0.58032(14) 0.19429(17)
C14_3 C 0.7301(5) 0.54382(16) 0.18851(16)
H10_3 H 0.711203 0.536083 0.169420
C15_3 C 0.7507(5) 0.51888(11) 0.21127(19)
C16_3 C 0.7790(6) 0.53045(14) 0.23981(18)
C17_3 C 0.7866(5) 0.56694(16) 0.24559(17)
C18_3 C 0.7660(5) 0.59188(11) 0.22283(18)
H11_3 H 0.771124 0.616302 0.226698
C19_3 C 0.6756(5) 0.65808(17) 0.12458(16)
C20_3 C 0.6958(5) 0.62480(19) 0.11377(13)
H12_3 H 0.694993 0.619268 0.091503
C21_3 C 0.7173(5) 0.59979(16) 0.13623(18)
H13_3 H 0.730765 0.577522 0.128989
C22_3 C 0.7185(5) 0.60805(17) 0.16950(16)
C23_3 C 0.6983(5) 0.64133(18) 0.18031(13)
H14_3 H 0.699143 0.646864 0.202577
C24_3 C 0.6769(5) 0.66635(15) 0.15786(17)
H15_3 H 0.663371 0.688611 0.165091
O11_3 O 0.8251(8) 0.6590(3) 0.500000
O12_3 O 0.9396(4) 0.33115(16) 0.41305(13)
O15_2 O 0.5596(5) 0.24036(18) 0.08745(15)
C25_3 C 0.9011(8) 0.3542(3) 0.4208(3)
C26_3 C 0.8878(8) 0.3688(3) 0.3639(3)
H16_3 H 0.919166 0.352798 0.360216
C27_3 C 0.6211(8) 0.2871(3) 0.1058(3)
H17_3 H 0.615696 0.280153 0.127539
C28_3 C 0.5965(8) 0.2642(3) 0.0789(3)
C29_3 C 0.8703(8) 0.3738(3) 0.3949(3)
H18_3 H 0.839143 0.389497 0.399817
C30_3 C 0.8143(5) 0.41801(19) 0.27767(15)
C31_3 C 0.7921(4) 0.42795(18) 0.3082(2)
H19_3 H 0.761711 0.444979 0.309754
C32_3 C 0.8154(4) 0.41243(19) 0.33656(15)
H20_3 H 0.800527 0.419074 0.357013
C33_3 C 0.8609(5) 0.38697(19) 0.33430(14)
C34_3 C 0.8831(4) 0.37704(18) 0.30372(19)
H21_3 H 0.913491 0.360008 0.302210
C35_3 C 0.8598(5) 0.39256(19) 0.27541(13)
H22_3 H 0.874676 0.385913 0.254951
C36_3 C 0.6509(8) 0.3176(3) 0.0992(3)
H23_3 H 0.656285 0.323873 0.077329
C37_3 C 0.7378(5) 0.41968(14) 0.19429(17)
C38_3 C 0.7301(5) 0.45618(16) 0.18851(16)
H24_3 H 0.711203 0.463917 0.169420
C39_3 C 0.7507(5) 0.48112(11) 0.21127(19)
C40_3 C 0.7790(6) 0.46955(14) 0.23981(18)
C41_3 C 0.7866(5) 0.43306(16) 0.24559(17)
C42_3 C 0.7660(5) 0.40812(11) 0.22283(18)
H25_3 H 0.771124 0.383698 0.226698
C43_3 C 0.6756(5) 0.34192(17) 0.12458(16)
C44_3 C 0.6958(5) 0.37520(19) 0.11377(13)
H26_3 H 0.694993 0.380732 0.091503
C45_3 C 0.7173(5) 0.40021(16) 0.13623(18)
H27_3 H 0.730765 0.422478 0.128989
C46_3 C 0.7185(5) 0.39195(17) 0.16950(16)
C47_3 C 0.6983(5) 0.35867(18) 0.18031(13)
H28_3 H 0.699143 0.353136 0.202577
C48_3 C 0.6769(5) 0.33365(15) 0.15786(17)
H29_3 H 0.663371 0.311389 0.165091
O18_3 O 0.9245(4) 0.70483(13) 0.46874(19)
O19_3 O 0.5755(4) 0.79517(13) 0.03126(19)
O20_3 O 0.9245(4) 0.70483(13) 0.53126(19)
O22_3 O 0.500000 0.8431(3) 0.0254(3)
O23_3 O 0.4396(4) 0.83115(16) 0.08695(13)
O24_3 O 0.5604(4) 0.83115(16) 0.08695(13)
O27_2 O 0.4404(5) 0.75964(18) 0.08745(15)
H33_3 H 0.689716 0.749435 0.0229691
H35_3 H 0.612224 0.677127 0.0116787
O8_6 O 0.6748(8) 0.7501(3) 1.000000
O10_6 O 0.5765(7) 0.6867(2) 1.000000
H32_3 H 0.688301 0.772657 0.989299
H34_3 H 0.576418 0.677809 0.977014
O2_4 O 0.0755(7) 0.4010(2) 0.500000
O5_4 O 0.0604(4) 0.33115(16) 0.41305(13)
O6_4 O 0.1117(5) 0.36169(18) 0.44934(17)
O7_4 O 0.3901(5) 0.2716(2) 0.04954(17)
O8_7 O 0.3252(8) 0.2499(3) 0.000000
O9_4 O 0.4404(5) 0.24036(18) 0.08745(15)
C1_4 C 0.0989(8) 0.3542(3) 0.4208(3)
O10_7 O 0.4235(7) 0.3133(2) 0.000000
N1_4 N 0.1951(9) 0.500000 0.2581(3)
H1_4 H 0.171491 0.500000 0.274786
C2_4 C 0.1122(8) 0.3688(3) 0.3639(3)
H2_4 H 0.080834 0.352798 0.360216
C3_4 C 0.3789(8) 0.2871(3) 0.1058(3)
H3_4 H 0.384304 0.280153 0.127539
C4_4 C 0.4035(8) 0.2642(3) 0.0789(3)
C5_4 C 0.1297(8) 0.3738(3) 0.3949(3)
H4_4 H 0.160857 0.389497 0.399817
C6_4 C 0.1857(5) 0.41801(19) 0.27767(15)
C7_4 C 0.2079(4) 0.42795(18) 0.3082(2)
H5_4 H 0.238289 0.444979 0.309754
C8_4 C 0.1846(4) 0.41243(19) 0.33656(15)
H6_4 H 0.199473 0.419074 0.357013
C9_4 C 0.1391(5) 0.38697(19) 0.33430(14)
C10_4 C 0.1169(4) 0.37704(18) 0.30372(19)
H7_4 H 0.086509 0.360008 0.302210
C11_4 C 0.1402(5) 0.39256(19) 0.27541(13)
H8_4 H 0.125324 0.385913 0.254951
C12_4 C 0.3491(8) 0.3176(3) 0.0992(3)
H9_4 H 0.343715 0.323873 0.077329
C13_4 C 0.2622(5) 0.41968(14) 0.19429(17)
C14_4 C 0.2699(5) 0.45618(16) 0.18851(16)
H10_4 H 0.288797 0.463917 0.169420
C15_4 C 0.2493(5) 0.48112(11) 0.21127(19)
C16_4 C 0.2210(6) 0.46955(14) 0.23981(18)
C17_4 C 0.2134(5) 0.43306(16) 0.24559(17)
C18_4 C 0.2340(5) 0.40812(11) 0.22283(18)
H11_4 H 0.228876 0.383698 0.226698
C19_4 C 0.3244(5) 0.34192(17) 0.12458(16)
C20_4 C 0.3042(5) 0.37520(19) 0.11377(13)
H12_4 H 0.305007 0.380732 0.091503
C21_4 C 0.2827(5) 0.40021(16) 0.13623(18)
H13_4 H 0.269235 0.422478 0.128989
C22_4 C 0.2815(5) 0.39195(17) 0.16950(16)
C23_4 C 0.3017(5) 0.35867(18) 0.18031(13)
H14_4 H 0.300857 0.353136 0.202577
C24_4 C 0.3231(5) 0.33365(15) 0.15786(17)
H15_4 H 0.336629 0.311389 0.165091
O11_4 O 0.1749(8) 0.3410(3) 0.500000
O12_4 O 0.0604(4) 0.66885(16) 0.41305(13)
C25_4 C 0.0989(8) 0.6458(3) 0.4208(3)
C26_4 C 0.1122(8) 0.6312(3) 0.3639(3)
H16_4 H 0.080834 0.647202 0.360216
C27_4 C 0.3789(8) 0.7129(3) 0.1058(3)
H17_4 H 0.384304 0.719847 0.127539
C28_4 C 0.4035(8) 0.7358(3) 0.0789(3)
C29_4 C 0.1297(8) 0.6262(3) 0.3949(3)
H18_4 H 0.160857 0.610503 0.399817
C30_4 C 0.1857(5) 0.58199(19) 0.27767(15)
C31_4 C 0.2079(4) 0.57205(18) 0.3082(2)
H19_4 H 0.238289 0.555021 0.309754
C32_4 C 0.1846(4) 0.58757(19) 0.33656(15)
H20_4 H 0.199473 0.580926 0.357013
C33_4 C 0.1391(5) 0.61303(19) 0.33430(14)
C34_4 C 0.1169(4) 0.62296(18) 0.30372(19)
H21_4 H 0.086509 0.639992 0.302210
C35_4 C 0.1402(5) 0.60744(19) 0.27541(13)
H22_4 H 0.125324 0.614087 0.254951
C36_4 C 0.3491(8) 0.6824(3) 0.0992(3)
H23_4 H 0.343715 0.676127 0.077329
C37_4 C 0.2622(5) 0.58032(14) 0.19429(17)
C38_4 C 0.2699(5) 0.54382(16) 0.18851(16)
H24_4 H 0.288797 0.536083 0.169420
C39_4 C 0.2493(5) 0.51888(11) 0.21127(19)
C40_4 C 0.2210(6) 0.53045(14) 0.23981(18)
C41_4 C 0.2134(5) 0.56694(16) 0.24559(17)
C42_4 C 0.2340(5) 0.59188(11) 0.22283(18)
H25_4 H 0.228876 0.616302 0.226698
C43_4 C 0.3244(5) 0.65808(17) 0.12458(16)
C44_4 C 0.3042(5) 0.62480(19) 0.11377(13)
H26_4 H 0.305007 0.619268 0.091503
C45_4 C 0.2827(5) 0.59979(16) 0.13623(18)
H27_4 H 0.269235 0.577522 0.128989
C46_4 C 0.2815(5) 0.60805(17) 0.16950(16)
C47_4 C 0.3017(5) 0.64133(18) 0.18031(13)
H28_4 H 0.300857 0.646864 0.202577
C48_4 C 0.3231(5) 0.66635(15) 0.15786(17)
H29_4 H 0.336629 0.688611 0.165091
O18_4 O 0.0755(4) 0.29517(13) 0.46874(19)
O19_4 O 0.4245(4) 0.20483(13) 0.03126(19)
O20_4 O 0.0755(4) 0.29517(13) 0.53126(19)
O22_4 O 0.500000 0.1569(3) 0.0254(3)
O23_4 O 0.5604(4) 0.16885(16) 0.08695(13)
O24_4 O 0.4396(4) 0.16885(16) 0.08695(13)
H33_4 H 0.310284 0.250565 0.0229691
H35_4 H 0.387776 0.322873 0.0116787
O8_8 O 0.3252(8) 0.2499(3) 1.000000
O10_8 O 0.4235(7) 0.3133(2) 1.000000
H32_4 H 0.311699 0.227343 0.989299
H34_4 H 0.423582 0.322191 0.977014
O1_3 O 0.000000 0.2474(2) 0.5257(2)
Zr13_3 Zr 0.07977(10) 0.24803(3) 0.500000
O17_3 O -0.000000 0.2474(2) 0.4743(2)
O27_3 O 0.0596(5) 0.25964(18) 0.41255(15)
Zr3_5 Zr 0.92023(10) 0.24803(3) 0.500000
O1_4 O 1.000000 0.2474(2) 0.5257(2)
O2_5 O 0.5755(7) 0.0990(2) 0.000000
O6_5 O 0.6117(5) 0.13831(18) 0.05066(17)
O7_5 O 0.8901(5) 0.2284(2) 0.45046(17)
O8_9 O 0.8252(8) 0.2501(3) 0.500000
O9_5 O 0.9404(5) 0.25964(18) 0.41255(15)
C1_5 C 0.5989(8) 0.1458(3) 0.0792(3)
O10_9 O 0.9235(7) 0.1867(2) 0.500000
N1_5 N 0.6951(9) 0.000000 0.2419(3)
H1_5 H 0.671491 0.000000 0.225214
C2_5 C 0.6122(8) 0.1312(3) 0.1361(3)
H2_5 H 0.580834 0.147202 0.139784
C3_5 C 0.8789(8) 0.2129(3) 0.3942(3)
H3_5 H 0.884304 0.219847 0.372461
C4_5 C 0.9035(8) 0.2358(3) 0.4211(3)
C5_5 C 0.6297(8) 0.1262(3) 0.1051(3)
H4_5 H 0.660857 0.110503 0.100183
C6_5 C 0.6857(5) 0.08199(19) 0.22233(15)
C7_5 C 0.7079(4) 0.07205(18) 0.1918(2)
H5_5 H 0.738289 0.055021 0.190246
C8_5 C 0.6846(4) 0.08757(19) 0.16344(15)
H6_5 H 0.699473 0.080926 0.142987
C9_5 C 0.6391(5) 0.11303(19) 0.16570(14)
C10_5 C 0.6169(4) 0.12296(18) 0.19628(19)
H7_5 H 0.586509 0.139992 0.197790
C11_5 C 0.6402(5) 0.10744(19) 0.22459(13)
H8_5 H 0.625324 0.114087 0.245049
C12_5 C 0.8491(8) 0.1824(3) 0.4008(3)
H9_5 H 0.843715 0.176127 0.422671
C13_5 C 0.7622(5) 0.08032(14) 0.30571(17)
C14_5 C 0.7699(5) 0.04382(16) 0.31149(16)
H10_5 H 0.788797 0.036083 0.330580
C15_5 C 0.7493(5) 0.01888(11) 0.28873(19)
C16_5 C 0.7210(6) 0.03045(14) 0.26019(18)
C17_5 C 0.7134(5) 0.06694(16) 0.25441(17)
C18_5 C 0.7340(5) 0.09188(11) 0.27717(18)
H11_5 H 0.728876 0.116302 0.273302
C19_5 C 0.8244(5) 0.15808(17) 0.37542(16)
C20_5 C 0.8042(5) 0.12480(19) 0.38623(13)
H12_5 H 0.805007 0.119268 0.408497
C21_5 C 0.7827(5) 0.09979(16) 0.36377(18)
H13_5 H 0.769235 0.077522 0.371011
C22_5 C 0.7815(5) 0.10805(17) 0.33050(16)
C23_5 C 0.8017(5) 0.14133(18) 0.31969(13)
H14_5 H 0.800857 0.146864 0.297423
C24_5 C 0.8231(5) 0.16635(15) 0.34214(17)
H15_5 H 0.836629 0.188611 0.334909
O11_5 O 0.6749(8) 0.1590(3) 0.000000
O17_4 O 1.000000 0.2474(2) 0.4743(2)
O26_3 O 0.8901(5) 0.2284(2) 0.54954(17)
H31 H 0.611142 0.0891937 0.0115913
H37 H 0.68834 0.184424 0
O2_6 O 0.5755(7) 0.0990(2) 1.000000
O11_6 O 0.6749(8) 0.1590(3) 1.000000
O25_3 O 0.6117(5) 0.13831(18) 0.94934(17)
H30 H 0.575072 0.0901149 0.977013
H36 H 0.690466 0.146737 0.980093
H37_2 H 0.68834 0.184424 1
N1_6 N 0.6951(9) 1.000000 0.2419(3)
H1_6 H 0.671491 1.000000 0.225214
O13_3 O 0.6117(5) 0.86169(18) 0.05066(17)
O14_3 O 0.8901(5) 0.7716(2) 0.45046(17)
O15_3 O 0.9404(5) 0.74036(18) 0.41255(15)
C25_5 C 0.5989(8) 0.8542(3) 0.0792(3)
C26_5 C 0.6122(8) 0.8688(3) 0.1361(3)
H16_5 H 0.580834 0.852798 0.139784
C27_5 C 0.8789(8) 0.7871(3) 0.3942(3)
H17_5 H 0.884304 0.780153 0.372461
C28_5 C 0.9035(8) 0.7642(3) 0.4211(3)
C29_5 C 0.6297(8) 0.8738(3) 0.1051(3)
H18_5 H 0.660857 0.889497 0.100183
C30_5 C 0.6857(5) 0.91801(19) 0.22233(15)
C31_5 C 0.7079(4) 0.92795(18) 0.1918(2)
H19_5 H 0.738289 0.944979 0.190246
C32_5 C 0.6846(4) 0.91243(19) 0.16344(15)
H20_5 H 0.699473 0.919074 0.142987
C33_5 C 0.6391(5) 0.88697(19) 0.16570(14)
C34_5 C 0.6169(4) 0.87704(18) 0.19628(19)
H21_5 H 0.586509 0.860008 0.197790
C35_5 C 0.6402(5) 0.89256(19) 0.22459(13)
H22_5 H 0.625324 0.885913 0.245049
C36_5 C 0.8491(8) 0.8176(3) 0.4008(3)
H23_5 H 0.843715 0.823873 0.422671
C37_5 C 0.7622(5) 0.91968(14) 0.30571(17)
C38_5 C 0.7699(5) 0.95618(16) 0.31149(16)
H24_5 H 0.788797 0.963917 0.330580
C39_5 C 0.7493(5) 0.98112(11) 0.28873(19)
C40_5 C 0.7210(6) 0.96955(14) 0.26019(18)
C41_5 C 0.7134(5) 0.93306(16) 0.25441(17)
C42_5 C 0.7340(5) 0.90812(11) 0.27717(18)
H25_5 H 0.728876 0.883698 0.273302
C43_5 C 0.8244(5) 0.84192(17) 0.37542(16)
C44_5 C 0.8042(5) 0.87520(19) 0.38623(13)
H26_5 H 0.805007 0.880732 0.408497
C45_5 C 0.7827(5) 0.90021(16) 0.36377(18)
H27_5 H 0.769235 0.922478 0.371011
C46_5 C 0.7815(5) 0.89195(17) 0.33050(16)
C47_5 C 0.8017(5) 0.85867(18) 0.31969(13)
H28_5 H 0.800857 0.853136 0.297423
C48_5 C 0.8231(5) 0.83365(15) 0.34214(17)
H29_5 H 0.836629 0.811389 0.334909
Zr14_3 Zr 0.92023(10) 0.75197(3) 0.500000
N1_7 N 0.3049(9) -0.000000 0.2419(3)
H1_7 H 0.328509 -0.000000 0.225214
O13_4 O 0.3883(5) 0.13831(18) 0.05066(17)
O14_4 O 0.1099(5) 0.2284(2) 0.45046(17)
C25_6 C 0.4011(8) 0.1458(3) 0.0792(3)
C26_6 C 0.3878(8) 0.1312(3) 0.1361(3)
H16_6 H 0.419166 0.147202 0.139784
C27_6 C 0.1211(8) 0.2129(3) 0.3942(3)
H17_6 H 0.115696 0.219847 0.372461
C28_6 C 0.0965(8) 0.2358(3) 0.4211(3)
C29_6 C 0.3703(8) 0.1262(3) 0.1051(3)
H18_6 H 0.339143 0.110503 0.100183
C30_6 C 0.3143(5) 0.08199(19) 0.22233(15)
C31_6 C 0.2921(4) 0.07205(18) 0.1918(2)
H19_6 H 0.261711 0.055021 0.190246
C32_6 C 0.3154(4) 0.08757(19) 0.16344(15)
H20_6 H 0.300527 0.080926 0.142987
C33_6 C 0.3609(5) 0.11303(19) 0.16570(14)
C34_6 C 0.3831(4) 0.12296(18) 0.19628(19)
H21_6 H 0.413491 0.139992 0.197790
C35_6 C 0.3598(5) 0.10744(19) 0.22459(13)
H22_6 H 0.374676 0.114087 0.245049
C36_6 C 0.1509(8) 0.1824(3) 0.4008(3)
H23_6 H 0.156285 0.176127 0.422671
C37_6 C 0.2378(5) 0.08032(14) 0.30571(17)
C38_6 C 0.2301(5) 0.04382(16) 0.31149(16)
H24_6 H 0.211203 0.036083 0.330580
C39_6 C 0.2507(5) 0.01888(11) 0.28873(19)
C40_6 C 0.2790(6) 0.03045(14) 0.26019(18)
C41_6 C 0.2866(5) 0.06694(16) 0.25441(17)
C42_6 C 0.2660(5) 0.09188(11) 0.27717(18)
H25_6 H 0.271124 0.116302 0.273302
C43_6 C 0.1756(5) 0.15808(17) 0.37542(16)
C44_6 C 0.1958(5) 0.12480(19) 0.38623(13)
H26_6 H 0.194993 0.119268 0.408497
C45_6 C 0.2173(5) 0.09979(16) 0.36377(18)
H27_6 H 0.230765 0.077522 0.371011
C46_6 C 0.2185(5) 0.10805(17) 0.33050(16)
C47_6 C 0.1983(5) 0.14133(18) 0.31969(13)
H28_6 H 0.199143 0.146864 0.297423
C48_6 C 0.1769(5) 0.16635(15) 0.34214(17)
H29_6 H 0.163371 0.188611 0.334909
Zr3_6 Zr 0.07977(10) 0.75197(3) 0.500000
O1_5 O 0.000000 0.7526(2) 0.5257(2)
O2_7 O 0.4245(7) 0.9010(2) 0.000000
O6_6 O 0.3883(5) 0.86169(18) 0.05066(17)
O7_6 O 0.1099(5) 0.7716(2) 0.45046(17)
O8_10 O 0.1748(8) 0.7499(3) 0.500000
O9_6 O 0.0596(5) 0.74036(18) 0.41255(15)
C1_6 C 0.4011(8) 0.8542(3) 0.0792(3)
O10_10 O 0.0765(7) 0.8133(2) 0.500000
N1_8 N 0.3049(9) 1.000000 0.2419(3)
H1_8 H 0.328509 1.000000 0.225214
C2_6 C 0.3878(8) 0.8688(3) 0.1361(3)
H2_6 H 0.419166 0.852798 0.139784
C3_6 C 0.1211(8) 0.7871(3) 0.3942(3)
H3_6 H 0.115696 0.780153 0.372461
C4_6 C 0.0965(8) 0.7642(3) 0.4211(3)
C5_6 C 0.3703(8) 0.8738(3) 0.1051(3)
H4_6 H 0.339143 0.889497 0.100183
C6_6 C 0.3143(5) 0.91801(19) 0.22233(15)
C7_6 C 0.2921(4) 0.92795(18) 0.1918(2)
H5_6 H 0.261711 0.944979 0.190246
C8_6 C 0.3154(4) 0.91243(19) 0.16344(15)
H6_6 H 0.300527 0.919074 0.142987
C9_6 C 0.3609(5) 0.88697(19) 0.16570(14)
C10_6 C 0.3831(4) 0.87704(18) 0.19628(19)
H7_6 H 0.413491 0.860008 0.197790
C11_6 C 0.3598(5) 0.89256(19) 0.22459(13)
H8_6 H 0.374676 0.885913 0.245049
C12_6 C 0.1509(8) 0.8176(3) 0.4008(3)
H9_6 H 0.156285 0.823873 0.422671
C13_6 C 0.2378(5) 0.91968(14) 0.30571(17)
C14_6 C 0.2301(5) 0.95618(16) 0.31149(16)
H10_6 H 0.211203 0.963917 0.330580
C15_6 C 0.2507(5) 0.98112(11) 0.28873(19)
C16_6 C 0.2790(6) 0.96955(14) 0.26019(18)
C17_6 C 0.2866(5) 0.93306(16) 0.25441(17)
C18_6 C 0.2660(5) 0.90812(11) 0.27717(18)
H11_6 H 0.271124 0.883698 0.273302
C19_6 C 0.1756(5) 0.84192(17) 0.37542(16)
C20_6 C 0.1958(5) 0.87520(19) 0.38623(13)
H12_6 H 0.194993 0.880732 0.408497
C21_6 C 0.2173(5) 0.90021(16) 0.36377(18)
H13_6 H 0.230765 0.922478 0.371011
C22_6 C 0.2185(5) 0.89195(17) 0.33050(16)
C23_6 C 0.1983(5) 0.85867(18) 0.31969(13)
H14_6 H 0.199143 0.853136 0.297423
C24_6 C 0.1769(5) 0.83365(15) 0.34214(17)
H15_6 H 0.163371 0.811389 0.334909
O11_7 O 0.3251(8) 0.8410(3) 0.000000
O17_5 O 0.000000 0.7526(2) 0.4743(2)
O26_4 O 0.1099(5) 0.7716(2) 0.54954(17)
H31_2 H 0.388858 0.910806 0.0115913
H37_3 H 0.31166 0.815576 0
O2_8 O 0.4245(7) 0.9010(2) 1.000000
O11_8 O 0.3251(8) 0.8410(3) 1.000000
O25_4 O 0.3883(5) 0.86169(18) 0.94934(17)
H30_2 H 0.424928 0.909885 0.977013
H36_2 H 0.309534 0.853263 0.980093
H37_4 H 0.31166 0.815576 1
O1_6 O 1.000000 0.7526(2) 0.5257(2)
O17_6 O 1.000000 0.7526(2) 0.4743(2)
O2_9 O 0.4245(7) 0.0990(2) 0.000000
O11_9 O 0.3251(8) 0.1590(3) 0.000000
H30_3 H 0.424928 0.0901149 0.0229866
H36_3 H 0.309534 0.146737 0.0199072
H37_5 H 0.31166 0.184424 0
O2_10 O 0.4245(7) 0.0990(2) 1.000000
O6_7 O 0.3883(5) 0.13831(18) 0.94934(17)
O7_7 O 0.1099(5) 0.2284(2) 0.54954(17)
O8_11 O 0.1748(8) 0.2501(3) 0.500000
O9_7 O 0.0596(5) 0.25964(18) 0.58745(15)
C1_7 C 0.4011(8) 0.1458(3) 0.9208(3)
O10_11 O 0.0765(7) 0.1867(2) 0.500000
N1_9 N 0.3049(9) 0.000000 0.7581(3)
H1_9 H 0.328509 0.000000 0.774786
C2_7 C 0.3878(8) 0.1312(3) 0.8639(3)
H2_7 H 0.419166 0.147202 0.860216
C3_7 C 0.1211(8) 0.2129(3) 0.6058(3)
H3_7 H 0.115696 0.219847 0.627539
C4_7 C 0.0965(8) 0.2358(3) 0.5789(3)
C5_7 C 0.3703(8) 0.1262(3) 0.8949(3)
H4_7 H 0.339143 0.110503 0.899817
C6_7 C 0.3143(5) 0.08199(19) 0.77767(15)
C7_7 C 0.2921(4) 0.07205(18) 0.8082(2)
H5_7 H 0.261711 0.055021 0.809754
C8_7 C 0.3154(4) 0.08757(19) 0.83656(15)
H6_7 H 0.300527 0.080926 0.857013
C9_7 C 0.3609(5) 0.11303(19) 0.83430(14)
C10_7 C 0.3831(4) 0.12296(18) 0.80372(19)
H7_7 H 0.413491 0.139992 0.802210
C11_7 C 0.3598(5) 0.10744(19) 0.77541(13)
H8_7 H 0.374676 0.114087 0.754951
C12_7 C 0.1509(8) 0.1824(3) 0.5992(3)
H9_7 H 0.156285 0.176127 0.577329
C13_7 C 0.2378(5) 0.08032(14) 0.69429(17)
C14_7 C 0.2301(5) 0.04382(16) 0.68851(16)
H10_7 H 0.211203 0.036083 0.669420
C15_7 C 0.2507(5) 0.01888(11) 0.71127(19)
C16_7 C 0.2790(6) 0.03045(14) 0.73981(18)
C17_7 C 0.2866(5) 0.06694(16) 0.74559(17)
C18_7 C 0.2660(5) 0.09188(11) 0.72283(18)
H11_7 H 0.271124 0.116302 0.726698
C19_7 C 0.1756(5) 0.15808(17) 0.62458(16)
C20_7 C 0.1958(5) 0.12480(19) 0.61377(13)
H12_7 H 0.194993 0.119268 0.591503
C21_7 C 0.2173(5) 0.09979(16) 0.63623(18)
H13_7 H 0.230765 0.077522 0.628989
C22_7 C 0.2185(5) 0.10805(17) 0.66950(16)
C23_7 C 0.1983(5) 0.14133(18) 0.68031(13)
H14_7 H 0.199143 0.146864 0.702577
C24_7 C 0.1769(5) 0.16635(15) 0.65786(17)
H15_7 H 0.163371 0.188611 0.665091
O11_10 O 0.3251(8) 0.1590(3) 1.000000
H31_3 H 0.388858 0.0891937 0.988409
H37_6 H 0.31166 0.184424 1
N1_10 N 0.3049(9) 1.000000 0.7581(3)
H1_10 H 0.328509 1.000000 0.774786
O15_4 O 0.0596(5) 0.74036(18) 0.58745(15)
C25_7 C 0.4011(8) 0.8542(3) 0.9208(3)
C26_7 C 0.3878(8) 0.8688(3) 0.8639(3)
H16_7 H 0.419166 0.852798 0.860216
C27_7 C 0.1211(8) 0.7871(3) 0.6058(3)
H17_7 H 0.115696 0.780153 0.627539
C28_7 C 0.0965(8) 0.7642(3) 0.5789(3)
C29_7 C 0.3703(8) 0.8738(3) 0.8949(3)
H18_7 H 0.339143 0.889497 0.899817
C30_7 C 0.3143(5) 0.91801(19) 0.77767(15)
C31_7 C 0.2921(4) 0.92795(18) 0.8082(2)
H19_7 H 0.261711 0.944979 0.809754
C32_7 C 0.3154(4) 0.91243(19) 0.83656(15)
H20_7 H 0.300527 0.919074 0.857013
C33_7 C 0.3609(5) 0.88697(19) 0.83430(14)
C34_7 C 0.3831(4) 0.87704(18) 0.80372(19)
H21_7 H 0.413491 0.860008 0.802210
C35_7 C 0.3598(5) 0.89256(19) 0.77541(13)
H22_7 H 0.374676 0.885913 0.754951
C36_7 C 0.1509(8) 0.8176(3) 0.5992(3)
H23_7 H 0.156285 0.823873 0.577329
C37_7 C 0.2378(5) 0.91968(14) 0.69429(17)
C38_7 C 0.2301(5) 0.95618(16) 0.68851(16)
H24_7 H 0.211203 0.963917 0.669420
C39_7 C 0.2507(5) 0.98112(11) 0.71127(19)
C40_7 C 0.2790(6) 0.96955(14) 0.73981(18)
C41_7 C 0.2866(5) 0.93306(16) 0.74559(17)
C42_7 C 0.2660(5) 0.90812(11) 0.72283(18)
H25_7 H 0.271124 0.883698 0.726698
C43_7 C 0.1756(5) 0.84192(17) 0.62458(16)
C44_7 C 0.1958(5) 0.87520(19) 0.61377(13)
H26_7 H 0.194993 0.880732 0.591503
C45_7 C 0.2173(5) 0.90021(16) 0.63623(18)
H27_7 H 0.230765 0.922478 0.628989
C46_7 C 0.2185(5) 0.89195(17) 0.66950(16)
C47_7 C 0.1983(5) 0.85867(18) 0.68031(13)
H28_7 H 0.199143 0.853136 0.702577
C48_7 C 0.1769(5) 0.83365(15) 0.65786(17)
H29_7 H 0.163371 0.811389 0.665091
O27_4 O 0.9404(5) 0.25964(18) 0.58745(15)
N1_11 N 0.6951(9) -0.000000 0.7581(3)
H1_11 H 0.671491 -0.000000 0.774786
C25_8 C 0.5989(8) 0.1458(3) 0.9208(3)
C26_8 C 0.6122(8) 0.1312(3) 0.8639(3)
H16_8 H 0.580834 0.147202 0.860216
C27_8 C 0.8789(8) 0.2129(3) 0.6058(3)
H17_8 H 0.884304 0.219847 0.627539
C28_8 C 0.9035(8) 0.2358(3) 0.5789(3)
C29_8 C 0.6297(8) 0.1262(3) 0.8949(3)
H18_8 H 0.660857 0.110503 0.899817
C30_8 C 0.6857(5) 0.08199(19) 0.77767(15)
C31_8 C 0.7079(4) 0.07205(18) 0.8082(2)
H19_8 H 0.738289 0.055021 0.809754
C32_8 C 0.6846(4) 0.08757(19) 0.83656(15)
H20_8 H 0.699473 0.080926 0.857013
C33_8 C 0.6391(5) 0.11303(19) 0.83430(14)
C34_8 C 0.6169(4) 0.12296(18) 0.80372(19)
H21_8 H 0.586509 0.139992 0.802210
C35_8 C 0.6402(5) 0.10744(19) 0.77541(13)
H22_8 H 0.625324 0.114087 0.754951
C36_8 C 0.8491(8) 0.1824(3) 0.5992(3)
H23_8 H 0.843715 0.176127 0.577329
C37_8 C 0.7622(5) 0.08032(14) 0.69429(17)
C38_8 C 0.7699(5) 0.04382(16) 0.68851(16)
H24_8 H 0.788797 0.036083 0.669420
C39_8 C 0.7493(5) 0.01888(11) 0.71127(19)
C40_8 C 0.7210(6) 0.03045(14) 0.73981(18)
C41_8 C 0.7134(5) 0.06694(16) 0.74559(17)
C42_8 C 0.7340(5) 0.09188(11) 0.72283(18)
H25_8 H 0.728876 0.116302 0.726698
C43_8 C 0.8244(5) 0.15808(17) 0.62458(16)
C44_8 C 0.8042(5) 0.12480(19) 0.61377(13)
H26_8 H 0.805007 0.119268 0.591503
C45_8 C 0.7827(5) 0.09979(16) 0.63623(18)
H27_8 H 0.769235 0.077522 0.628989
C46_8 C 0.7815(5) 0.10805(17) 0.66950(16)
C47_8 C 0.8017(5) 0.14133(18) 0.68031(13)
H28_8 H 0.800857 0.146864 0.702577
C48_8 C 0.8231(5) 0.16635(15) 0.65786(17)
H29_8 H 0.836629 0.188611 0.665091
O2_11 O 0.5755(7) 0.9010(2) 0.000000
O11_11 O 0.6749(8) 0.8410(3) 0.000000
H30_4 H 0.575072 0.909885 0.0229866
H36_4 H 0.690466 0.853263 0.0199072
H37_7 H 0.68834 0.815576 0
O2_12 O 0.5755(7) 0.9010(2) 1.000000
O6_8 O 0.6117(5) 0.86169(18) 0.94934(17)
O7_8 O 0.8901(5) 0.7716(2) 0.54954(17)
O8_12 O 0.8252(8) 0.7499(3) 0.500000
O9_8 O 0.9404(5) 0.74036(18) 0.58745(15)
C1_8 C 0.5989(8) 0.8542(3) 0.9208(3)
O10_12 O 0.9235(7) 0.8133(2) 0.500000
N1_12 N 0.6951(9) 1.000000 0.7581(3)
H1_12 H 0.671491 1.000000 0.774786
C2_8 C 0.6122(8) 0.8688(3) 0.8639(3)
H2_8 H 0.580834 0.852798 0.860216
C3_8 C 0.8789(8) 0.7871(3) 0.6058(3)
H3_8 H 0.884304 0.780153 0.627539
C4_8 C 0.9035(8) 0.7642(3) 0.5789(3)
C5_8 C 0.6297(8) 0.8738(3) 0.8949(3)
H4_8 H 0.660857 0.889497 0.899817
C6_8 C 0.6857(5) 0.91801(19) 0.77767(15)
C7_8 C 0.7079(4) 0.92795(18) 0.8082(2)
H5_8 H 0.738289 0.944979 0.809754
C8_8 C 0.6846(4) 0.91243(19) 0.83656(15)
H6_8 H 0.699473 0.919074 0.857013
C9_8 C 0.6391(5) 0.88697(19) 0.83430(14)
C10_8 C 0.6169(4) 0.87704(18) 0.80372(19)
H7_8 H 0.586509 0.860008 0.802210
C11_8 C 0.6402(5) 0.89256(19) 0.77541(13)
H8_8 H 0.625324 0.885913 0.754951
C12_8 C 0.8491(8) 0.8176(3) 0.5992(3)
H9_8 H 0.843715 0.823873 0.577329
C13_8 C 0.7622(5) 0.91968(14) 0.69429(17)
C14_8 C 0.7699(5) 0.95618(16) 0.68851(16)
H10_8 H 0.788797 0.963917 0.669420
C15_8 C 0.7493(5) 0.98112(11) 0.71127(19)
C16_8 C 0.7210(6) 0.96955(14) 0.73981(18)
C17_8 C 0.7134(5) 0.93306(16) 0.74559(17)
C18_8 C 0.7340(5) 0.90812(11) 0.72283(18)
H11_8 H 0.728876 0.883698 0.726698
C19_8 C 0.8244(5) 0.84192(17) 0.62458(16)
C20_8 C 0.8042(5) 0.87520(19) 0.61377(13)
H12_8 H 0.805007 0.880732 0.591503
C21_8 C 0.7827(5) 0.90021(16) 0.63623(18)
H13_8 H 0.769235 0.922478 0.628989
C22_8 C 0.7815(5) 0.89195(17) 0.66950(16)
C23_8 C 0.8017(5) 0.85867(18) 0.68031(13)
H14_8 H 0.800857 0.853136 0.702577
C24_8 C 0.8231(5) 0.83365(15) 0.65786(17)
H15_8 H 0.836629 0.811389 0.665091
O11_12 O 0.6749(8) 0.8410(3) 1.000000
H31_4 H 0.611142 0.910806 0.988409
H37_8 H 0.68834 0.815576 1
H33_5 H 0.689716 0.250565 0.0229691
H35_5 H 0.612224 0.322873 0.0116787
H32_5 H 0.688301 0.227343 0.989299
H34_5 H 0.576418 0.322191 0.977014
H33_6 H 0.310284 0.749435 0.0229691
H35_6 H 0.387776 0.677127 0.0116787
H32_6 H 0.311699 0.772657 0.989299
H34_6 H 0.423582 0.677809 0.977014
H32_7 H 0.311699 0.227343 0.0107012
H34_7 H 0.423582 0.322191 0.0229859
H33_7 H 0.310284 0.250565 0.977031
H35_7 H 0.387776 0.322873 0.988321
H32_8 H 0.688301 0.772657 0.0107012
H34_8 H 0.576418 0.677809 0.0229859
H33_8 H 0.689716 0.749435 0.977031
H35_8 H 0.612224 0.677127 0.988321
H30_5 H 0.424928 0.909885 0.0229866
H36_5 H 0.309534 0.853263 0.0199072
H31_5 H 0.388858 0.910806 0.988409
H30_6 H 0.575072 0.0901149 0.0229866
H36_6 H 0.690466 0.146737 0.0199072
H31_6 H 0.611142 0.0891937 0.988409
H31_7 H 0.611142 0.910806 0.0115913
H30_7 H 0.575072 0.909885 0.977013
H36_7 H 0.690466 0.853263 0.980093
H31_8 H 0.388858 0.0891937 0.0115913
H30_8 H 0.424928 0.0901149 0.977013
H36_8 H 0.309534 0.146737 0.980093
loop_
_geom_bond_atom_site_label_1
_geom_bond_atom_site_label_2
_geom_bond_site_symmetry_1
_geom_bond_site_symmetry_2
Zr3 O1 1_555 1_555
O1 Zr5 1_555 1_555
O3 Zr3 1_555 1_555
O8 Zr3 1_555 1_555
O10 Zr3 1_555 1_555
Zr5 O3 1_555 1_555
Zr11 O3 1_555 1_555
Zr13 O1 1_555 1_555
O26 Zr3 1_555 1_555
O8 H32 1_555 1_555
O10 H34 1_555 1_555
Zr1 O9 1_555 1_555
Zr2 O2 1_555 1_555
O4 Zr2 1_555 1_555
O5 C1 1_555 1_555
O6 Zr2 1_555 1_555
O7 Zr3_2 1_555 1_555
O8_2 Zr3_2 1_555 1_555
O9 C4 1_555 1_555
C1 O6 1_555 1_555
O10_2 Zr3_2 1_555 1_555
N1 H1 1_555 1_555
C2 H2 1_555 1_555
C3 H3 1_555 1_555
C4 O7 1_555 1_555
C5 C1 1_555 1_555
H4 C5 1_555 1_555
C6 C7 1_555 1_555
C7 H5 1_555 1_555
C8 C7 1_555 1_555
H6 C8 1_555 1_555
C9 C2 1_555 1_555
C10 C9 1_555 1_555
H7 C10 1_555 1_555
C11 C6 1_555 1_555
H8 C11 1_555 1_555
C12 C3 1_555 1_555
H9 C12 1_555 1_555
C13 C14 1_555 1_555
C14 H10 1_555 1_555
C15 C14 1_555 1_555
C16 N1 1_555 1_555
C17 C6 1_555 1_555
C18 C13 1_555 1_555
H11 C18 1_555 1_555
C19 C12 1_555 1_555
C20 C19 1_555 1_555
H12 C20 1_555 1_555
C21 C20 1_555 1_555
H13 C21 1_555 1_555
C22 C13 1_555 1_555
C23 C22 1_555 1_555
H14 C23 1_555 1_555
C24 C19 1_555 1_555
H15 C24 1_555 1_555
O11 Zr2 1_555 1_555
O12 C25 1_555 1_555
O13 C25 1_555 1_555
O14 C28 1_555 1_555
O15 C28 1_555 1_555
C25 C29 1_555 1_555
C26 H16 1_555 1_555
C27 H17 1_555 1_555
C28 C27 1_555 1_555
C29 C26 1_555 1_555
H18 C29 1_555 1_555
C30 C31 1_555 1_555
C31 H19 1_555 1_555
C32 C31 1_555 1_555
H20 C32 1_555 1_555
C33 C26 1_555 1_555
C34 C33 1_555 1_555
H21 C34 1_555 1_555
C35 C30 1_555 1_555
H22 C35 1_555 1_555
C36 C27 1_555 1_555
H23 C36 1_555 1_555
C37 C38 1_555 1_555
C38 H24 1_555 1_555
C39 C15 1_555 1_555
C40 N1 1_555 1_555
C41 C30 1_555 1_555
C42 C37 1_555 1_555
H25 C42 1_555 1_555
C43 C36 1_555 1_555
C44 C43 1_555 1_555
H26 C44 1_555 1_555
C45 C44 1_555 1_555
H27 C45 1_555 1_555
C46 C37 1_555 1_555
C47 C46 1_555 1_555
H28 C47 1_555 1_555
C48 C43 1_555 1_555
H29 C48 1_555 1_555
O16 Zr1 1_555 1_555
Zr4 O15 1_555 1_555
Zr6 O4 1_555 1_555
Zr7 O12 1_555 1_555
Zr8 O5 1_555 1_555
Zr10 O13 1_555 1_555
Zr12_2 O16 1_555 1_555
Zr14_2 O14 1_555 1_555
O17 Zr1 1_555 1_555
O18 Zr2 1_555 1_555
O19 Zr1 1_555 1_555
O20 Zr2 1_555 1_555
O21 Zr2 1_555 1_555
O22 Zr1 1_555 1_555
O23 Zr1 1_555 1_555
O24 Zr1 1_555 1_555
O25 Zr2 1_555 1_555
O27 Zr1 1_555 1_555
Zr3_2 O17 1_555 1_555
Zr3_2 O19 1_555 1_555
C2 C5 1_555 1_555
C3 C4 1_555 1_555
C8 C9 1_555 1_555
C10 C11 1_555 1_555
C15 C16 1_555 1_555
C16 C17 1_555 1_555
C17 C18 1_555 1_555
C21 C22 1_555 1_555
C23 C24 1_555 1_555
C32 C33 1_555 1_555
C34 C35 1_555 1_555
C38 C39 1_555 1_555
C39 C40 1_555 1_555
C40 C41 1_555 1_555
C41 C42 1_555 1_555
C45 C46 1_555 1_555
C47 C48 1_555 1_555
O16 Zr13_2 1_555 1_555
Zr6 O20 1_555 1_555
Zr8 O18 1_555 1_555
Zr8 O21 1_555 1_555
Zr11_2 O19 1_555 1_555
Zr11_2 O22 1_555 1_555
Zr12_2 O22 1_555 1_555
Zr13_2 O17 1_555 1_555
O8_2 H33 1_555 1_555
O10_2 H35 1_555 1_555
Zr6_2 O4_2 1_555 1_555
Zr9 O4_2 1_555 1_555
Zr8_2 O21_2 1_555 1_555
Zr9 O21_2 1_555 1_555
Zr6_3 O4_3 1_555 1_555
Zr10 O4_3 1_555 1_555
Zr7 O21_3 1_555 1_555
Zr10 O21_3 1_555 1_555
Zr3_3 O1_2 1_555 1_555
O1_2 Zr5_2 1_555 1_555
O3_2 Zr3_3 1_555 1_555
O8_3 Zr3_3 1_555 1_555
O10_3 Zr3_3 1_555 1_555
Zr5_2 O3_2 1_555 1_555
Zr11_3 O3_2 1_555 1_555
Zr14 O1_2 1_555 1_555
O26_2 Zr3_3 1_555 1_555
O8_3 H32_2 1_555 1_555
O10_3 H34_2 1_555 1_555
Zr4 O9_2 1_555 1_555
Zr2_2 O2_2 1_555 1_555
O4_4 Zr2_2 1_555 1_555
O5_2 C1_2 1_555 1_555
O6_2 Zr2_2 1_555 1_555
O7_2 Zr3_4 1_555 1_555
O8_4 Zr3_4 1_555 1_555
O9_2 C4_2 1_555 1_555
C1_2 O6_2 1_555 1_555
O10_4 Zr3_4 1_555 1_555
N1_2 H1_2 1_555 1_555
C2_2 H2_2 1_555 1_555
C3_2 H3_2 1_555 1_555
C4_2 O7_2 1_555 1_555
C5_2 C1_2 1_555 1_555
H4_2 C5_2 1_555 1_555
C6_2 C7_2 1_555 1_555
C7_2 H5_2 1_555 1_555
C8_2 C7_2 1_555 1_555
H6_2 C8_2 1_555 1_555
C9_2 C2_2 1_555 1_555
C10_2 C9_2 1_555 1_555
H7_2 C10_2 1_555 1_555
C11_2 C6_2 1_555 1_555
H8_2 C11_2 1_555 1_555
C12_2 C3_2 1_555 1_555
H9_2 C12_2 1_555 1_555
C13_2 C14_2 1_555 1_555
C14_2 H10_2 1_555 1_555
C15_2 C14_2 1_555 1_555
C16_2 N1_2 1_555 1_555
C17_2 C6_2 1_555 1_555
C18_2 C13_2 1_555 1_555
H11_2 C18_2 1_555 1_555
C19_2 C12_2 1_555 1_555
C20_2 C19_2 1_555 1_555
H12_2 C20_2 1_555 1_555
C21_2 C20_2 1_555 1_555
H13_2 C21_2 1_555 1_555
C22_2 C13_2 1_555 1_555
C23_2 C22_2 1_555 1_555
H14_2 C23_2 1_555 1_555
C24_2 C19_2 1_555 1_555
H15_2 C24_2 1_555 1_555
O11_2 Zr2_2 1_555 1_555
O12_2 C25_2 1_555 1_555
O13_2 C25_2 1_555 1_555
O14_2 C28_2 1_555 1_555
O27 C28_2 1_555 1_555
C25_2 C29_2 1_555 1_555
C26_2 H16_2 1_555 1_555
C27_2 H17_2 1_555 1_555
C28_2 C27_2 1_555 1_555
C29_2 C26_2 1_555 1_555
H18_2 C29_2 1_555 1_555
C30_2 C31_2 1_555 1_555
C31_2 H19_2 1_555 1_555
C32_2 C31_2 1_555 1_555
H20_2 C32_2 1_555 1_555
C33_2 C26_2 1_555 1_555
C34_2 C33_2 1_555 1_555
H21_2 C34_2 1_555 1_555
C35_2 C30_2 1_555 1_555
H22_2 C35_2 1_555 1_555
C36_2 C27_2 1_555 1_555
H23_2 C36_2 1_555 1_555
C37_2 C38_2 1_555 1_555
C38_2 H24_2 1_555 1_555
C39_2 C15_2 1_555 1_555
C40_2 N1_2 1_555 1_555
C41_2 C30_2 1_555 1_555
C42_2 C37_2 1_555 1_555
H25_2 C42_2 1_555 1_555
C43_2 C36_2 1_555 1_555
C44_2 C43_2 1_555 1_555
H26_2 C44_2 1_555 1_555
C45_2 C44_2 1_555 1_555
H27_2 C45_2 1_555 1_555
C46_2 C37_2 1_555 1_555
C47_2 C46_2 1_555 1_555
H28_2 C47_2 1_555 1_555
C48_2 C43_2 1_555 1_555
H29_2 C48_2 1_555 1_555
O16_2 Zr4 1_555 1_555
Zr6_4 O4_4 1_555 1_555
Zr8_2 O12_2 1_555 1_555
Zr7_2 O5_2 1_555 1_555
Zr9 O13_2 1_555 1_555
Zr12_4 O16_2 1_555 1_555
Zr13_2 O14_2 1_555 1_555
O17_2 Zr4 1_555 1_555
O18_2 Zr2_2 1_555 1_555
O19_2 Zr4 1_555 1_555
O20_2 Zr2_2 1_555 1_555
O21_4 Zr2_2 1_555 1_555
O22_2 Zr4 1_555 1_555
O23_2 Zr4 1_555 1_555
O24_2 Zr4 1_555 1_555
O25_2 Zr2_2 1_555 1_555
Zr3_4 O17_2 1_555 1_555
Zr3_4 O19_2 1_555 1_555
C2_2 C5_2 1_555 1_555
C3_2 C4_2 1_555 1_555
C8_2 C9_2 1_555 1_555
C10_2 C11_2 1_555 1_555
C15_2 C16_2 1_555 1_555
C16_2 C17_2 1_555 1_555
C17_2 C18_2 1_555 1_555
C21_2 C22_2 1_555 1_555
C23_2 C24_2 1_555 1_555
C32_2 C33_2 1_555 1_555
C34_2 C35_2 1_555 1_555
C38_2 C39_2 1_555 1_555
C39_2 C40_2 1_555 1_555
C40_2 C41_2 1_555 1_555
C41_2 C42_2 1_555 1_555
C45_2 C46_2 1_555 1_555
C47_2 C48_2 1_555 1_555
O16_2 Zr14_2 1_555 1_555
Zr6_4 O20_2 1_555 1_555
Zr7_2 O18_2 1_555 1_555
Zr7_2 O21_4 1_555 1_555
Zr11_4 O19_2 1_555 1_555
Zr11_4 O22_2 1_555 1_555
Zr12_4 O22_2 1_555 1_555
Zr14_2 O17_2 1_555 1_555
O8_4 H33_2 1_555 1_555
O10_4 H35_2 1_555 1_555
Zr5 O9_3 1_555 1_555
Zr9 O2_3 1_555 1_555
O5_3 C1_3 1_555 1_555
O6_3 Zr9 1_555 1_555
O7_3 Zr13 1_555 1_555
O8_5 Zr13 1_555 1_555
O9_3 C4_3 1_555 1_555
C1_3 O6_3 1_555 1_555
O10_5 Zr13 1_555 1_555
N1_3 H1_3 1_555 1_555
C2_3 H2_3 1_555 1_555
C3_3 H3_3 1_555 1_555
C4_3 O7_3 1_555 1_555
C5_3 C1_3 1_555 1_555
H4_3 C5_3 1_555 1_555
C6_3 C7_3 1_555 1_555
C7_3 H5_3 1_555 1_555
C8_3 C7_3 1_555 1_555
H6_3 C8_3 1_555 1_555
C9_3 C2_3 1_555 1_555
C10_3 C9_3 1_555 1_555
H7_3 C10_3 1_555 1_555
C11_3 C6_3 1_555 1_555
H8_3 C11_3 1_555 1_555
C12_3 C3_3 1_555 1_555
H9_3 C12_3 1_555 1_555
C13_3 C14_3 1_555 1_555
C14_3 H10_3 1_555 1_555
C15_3 C14_3 1_555 1_555
C16_3 N1_3 1_555 1_555
C17_3 C6_3 1_555 1_555
C18_3 C13_3 1_555 1_555
H11_3 C18_3 1_555 1_555
C19_3 C12_3 1_555 1_555
C20_3 C19_3 1_555 1_555
H12_3 C20_3 1_555 1_555
C21_3 C20_3 1_555 1_555
H13_3 C21_3 1_555 1_555
C22_3 C13_3 1_555 1_555
C23_3 C22_3 1_555 1_555
H14_3 C23_3 1_555 1_555
C24_3 C19_3 1_555 1_555
H15_3 C24_3 1_555 1_555
O11_3 Zr9 1_555 1_555
O12_3 C25_3 1_555 1_555
O25_2 C25_3 1_555 1_555
O26_2 C28_3 1_555 1_555
O15_2 C28_3 1_555 1_555
C25_3 C29_3 1_555 1_555
C26_3 H16_3 1_555 1_555
C27_3 H17_3 1_555 1_555
C28_3 C27_3 1_555 1_555
C29_3 C26_3 1_555 1_555
H18_3 C29_3 1_555 1_555
C30_3 C31_3 1_555 1_555
C31_3 H19_3 1_555 1_555
C32_3 C31_3 1_555 1_555
H20_3 C32_3 1_555 1_555
C33_3 C26_3 1_555 1_555
C34_3 C33_3 1_555 1_555
H21_3 C34_3 1_555 1_555
C35_3 C30_3 1_555 1_555
H22_3 C35_3 1_555 1_555
C36_3 C27_3 1_555 1_555
H23_3 C36_3 1_555 1_555
C37_3 C38_3 1_555 1_555
C38_3 H24_3 1_555 1_555
C39_3 C15_3 1_555 1_555
C40_3 N1_3 1_555 1_555
C41_3 C30_3 1_555 1_555
C42_3 C37_3 1_555 1_555
H25_3 C42_3 1_555 1_555
C43_3 C36_3 1_555 1_555
C44_3 C43_3 1_555 1_555
H26_3 C44_3 1_555 1_555
C45_3 C44_3 1_555 1_555
H27_3 C45_3 1_555 1_555
C46_3 C37_3 1_555 1_555
C47_3 C46_3 1_555 1_555
H28_3 C47_3 1_555 1_555
C48_3 C43_3 1_555 1_555
H29_3 C48_3 1_555 1_555
Zr5_2 O15_2 1_555 1_555
Zr6_4 O12_3 1_555 1_555
Zr6_2 O5_3 1_555 1_555
O18_3 Zr9 1_555 1_555
O19_3 Zr5 1_555 1_555
O20_3 Zr9 1_555 1_555
O22_3 Zr5 1_555 1_555
O23_3 Zr5 1_555 1_555
O24_3 Zr5 1_555 1_555
O27_2 Zr5 1_555 1_555
Zr13 O19_3 1_555 1_555
C2_3 C5_3 1_555 1_555
C3_3 C4_3 1_555 1_555
C8_3 C9_3 1_555 1_555
C10_3 C11_3 1_555 1_555
C15_3 C16_3 1_555 1_555
C16_3 C17_3 1_555 1_555
C17_3 C18_3 1_555 1_555
C21_3 C22_3 1_555 1_555
C23_3 C24_3 1_555 1_555
C32_3 C33_3 1_555 1_555
C34_3 C35_3 1_555 1_555
C38_3 C39_3 1_555 1_555
C39_3 C40_3 1_555 1_555
C40_3 C41_3 1_555 1_555
C41_3 C42_3 1_555 1_555
C45_3 C46_3 1_555 1_555
C47_3 C48_3 1_555 1_555
Zr8_2 O20_3 1_555 1_555
Zr6_2 O18_3 1_555 1_555
Zr12 O19_3 1_555 1_555
Zr12 O22_3 1_555 1_555
Zr11 O22_3 1_555 1_555
O8_5 H33_3 1_555 1_555
O10_5 H35_3 1_555 1_555
O8_6 Zr13_2 1_555 1_555
O10_6 Zr13_2 1_555 1_555
O8_6 H32_3 1_555 1_555
O10_6 H34_3 1_555 1_555
Zr5_2 O9_4 1_555 1_555
Zr10 O2_4 1_555 1_555
O5_4 C1_4 1_555 1_555
O6_4 Zr10 1_555 1_555
O7_4 Zr14 1_555 1_555
O8_7 Zr14 1_555 1_555
O9_4 C4_4 1_555 1_555
C1_4 O6_4 1_555 1_555
O10_7 Zr14 1_555 1_555
N1_4 H1_4 1_555 1_555
C2_4 H2_4 1_555 1_555
C3_4 H3_4 1_555 1_555
C4_4 O7_4 1_555 1_555
C5_4 C1_4 1_555 1_555
H4_4 C5_4 1_555 1_555
C6_4 C7_4 1_555 1_555
C7_4 H5_4 1_555 1_555
C8_4 C7_4 1_555 1_555
H6_4 C8_4 1_555 1_555
C9_4 C2_4 1_555 1_555
C10_4 C9_4 1_555 1_555
H7_4 C10_4 1_555 1_555
C11_4 C6_4 1_555 1_555
H8_4 C11_4 1_555 1_555
C12_4 C3_4 1_555 1_555
H9_4 C12_4 1_555 1_555
C13_4 C14_4 1_555 1_555
C14_4 H10_4 1_555 1_555
C15_4 C14_4 1_555 1_555
C16_4 N1_4 1_555 1_555
C17_4 C6_4 1_555 1_555
C18_4 C13_4 1_555 1_555
H11_4 C18_4 1_555 1_555
C19_4 C12_4 1_555 1_555
C20_4 C19_4 1_555 1_555
H12_4 C20_4 1_555 1_555
C21_4 C20_4 1_555 1_555
H13_4 C21_4 1_555 1_555
C22_4 C13_4 1_555 1_555
C23_4 C22_4 1_555 1_555
H14_4 C23_4 1_555 1_555
C24_4 C19_4 1_555 1_555
H15_4 C24_4 1_555 1_555
O11_4 Zr10 1_555 1_555
O12_4 C25_4 1_555 1_555
O25 C25_4 1_555 1_555
O26 C28_4 1_555 1_555
O27_2 C28_4 1_555 1_555
C25_4 C29_4 1_555 1_555
C26_4 H16_4 1_555 1_555
C27_4 H17_4 1_555 1_555
C28_4 C27_4 1_555 1_555
C29_4 C26_4 1_555 1_555
H18_4 C29_4 1_555 1_555
C30_4 C31_4 1_555 1_555
C31_4 H19_4 1_555 1_555
C32_4 C31_4 1_555 1_555
H20_4 C32_4 1_555 1_555
C33_4 C26_4 1_555 1_555
C34_4 C33_4 1_555 1_555
H21_4 C34_4 1_555 1_555
C35_4 C30_4 1_555 1_555
H22_4 C35_4 1_555 1_555
C36_4 C27_4 1_555 1_555
H23_4 C36_4 1_555 1_555
C37_4 C38_4 1_555 1_555
C38_4 H24_4 1_555 1_555
C39_4 C15_4 1_555 1_555
C40_4 N1_4 1_555 1_555
C41_4 C30_4 1_555 1_555
C42_4 C37_4 1_555 1_555
H25_4 C42_4 1_555 1_555
C43_4 C36_4 1_555 1_555
C44_4 C43_4 1_555 1_555
H26_4 C44_4 1_555 1_555
C45_4 C44_4 1_555 1_555
H27_4 C45_4 1_555 1_555
C46_4 C37_4 1_555 1_555
C47_4 C46_4 1_555 1_555
H28_4 C47_4 1_555 1_555
C48_4 C43_4 1_555 1_555
H29_4 C48_4 1_555 1_555
Zr6 O12_4 1_555 1_555
Zr6_3 O5_4 1_555 1_555
O18_4 Zr10 1_555 1_555
O19_4 Zr5_2 1_555 1_555
O20_4 Zr10 1_555 1_555
O22_4 Zr5_2 1_555 1_555
O23_4 Zr5_2 1_555 1_555
O24_4 Zr5_2 1_555 1_555
Zr14 O19_4 1_555 1_555
C2_4 C5_4 1_555 1_555
C3_4 C4_4 1_555 1_555
C8_4 C9_4 1_555 1_555
C10_4 C11_4 1_555 1_555
C15_4 C16_4 1_555 1_555
C16_4 C17_4 1_555 1_555
C17_4 C18_4 1_555 1_555
C21_4 C22_4 1_555 1_555
C23_4 C24_4 1_555 1_555
C32_4 C33_4 1_555 1_555
C34_4 C35_4 1_555 1_555
C38_4 C39_4 1_555 1_555
C39_4 C40_4 1_555 1_555
C40_4 C41_4 1_555 1_555
C41_4 C42_4 1_555 1_555
C45_4 C46_4 1_555 1_555
C47_4 C48_4 1_555 1_555
Zr7 O20_4 1_555 1_555
Zr6_3 O18_4 1_555 1_555
Zr12_3 O19_4 1_555 1_555
Zr12_3 O22_4 1_555 1_555
Zr11_3 O22_4 1_555 1_555
O8_7 H33_4 1_555 1_555
O10_7 H35_4 1_555 1_555
O8_8 Zr14_2 1_555 1_555
O10_8 Zr14_2 1_555 1_555
O8_8 H32_4 1_555 1_555
O10_8 H34_4 1_555 1_555
O1_3 Zr7 1_555 1_555
Zr13_3 O1_3 1_555 1_555
O17_3 Zr6_3 1_555 1_555
O27_3 Zr6_3 1_555 1_555
O18_4 Zr13_3 1_555 1_555
Zr13_3 O17_3 1_555 1_555
Zr6_4 O9_5 1_555 1_555
Zr11_3 O2_5 1_555 1_555
Zr3_5 O1_4 1_555 1_555
O1_4 Zr7_2 1_555 1_555
O18_2 Zr3_5 1_555 1_555
O23_4 C1_5 1_555 1_555
O6_5 Zr11_3 1_555 1_555
O7_5 Zr3_5 1_555 1_555
O8_9 Zr3_5 1_555 1_555
O9_5 C4_5 1_555 1_555
C1_5 O6_5 1_555 1_555
O10_9 Zr3_5 1_555 1_555
N1_5 H1_5 1_555 1_555
C2_5 H2_5 1_555 1_555
C3_5 H3_5 1_555 1_555
C4_5 O7_5 1_555 1_555
C5_5 C1_5 1_555 1_555
H4_5 C5_5 1_555 1_555
C6_5 C7_5 1_555 1_555
C7_5 H5_5 1_555 1_555
C8_5 C7_5 1_555 1_555
H6_5 C8_5 1_555 1_555
C9_5 C2_5 1_555 1_555
C10_5 C9_5 1_555 1_555
H7_5 C10_5 1_555 1_555
C11_5 C6_5 1_555 1_555
H8_5 C11_5 1_555 1_555
C12_5 C3_5 1_555 1_555
H9_5 C12_5 1_555 1_555
C13_5 C14_5 1_555 1_555
C14_5 H10_5 1_555 1_555
C15_5 C14_5 1_555 1_555
C16_5 N1_5 1_555 1_555
C17_5 C6_5 1_555 1_555
C18_5 C13_5 1_555 1_555
H11_5 C18_5 1_555 1_555
C19_5 C12_5 1_555 1_555
C20_5 C19_5 1_555 1_555
H12_5 C20_5 1_555 1_555
C21_5 C20_5 1_555 1_555
H13_5 C21_5 1_555 1_555
C22_5 C13_5 1_555 1_555
C23_5 C22_5 1_555 1_555
H14_5 C23_5 1_555 1_555
C24_5 C19_5 1_555 1_555
H15_5 C24_5 1_555 1_555
O11_5 Zr11_3 1_555 1_555
O17_4 Zr6_4 1_555 1_555
O26_3 Zr3_5 1_555 1_555
Zr3_5 O17_4 1_555 1_555
Zr3_5 O20_2 1_555 1_555
C2_5 C5_5 1_555 1_555
C3_5 C4_5 1_555 1_555
C8_5 C9_5 1_555 1_555
C10_5 C11_5 1_555 1_555
C15_5 C16_5 1_555 1_555
C16_5 C17_5 1_555 1_555
C17_5 C18_5 1_555 1_555
C21_5 C22_5 1_555 1_555
C23_5 C24_5 1_555 1_555
O2_5 H31 1_555 1_555
O11_5 H37 1_555 1_555
Zr11_4 O2_6 1_555 1_555
O11_6 Zr11_4 1_555 1_555
O25_3 Zr11_4 1_555 1_555
O2_6 H30 1_555 1_555
O11_6 H36 1_555 1_555
O11_6 H37_2 1_555 1_555
N1_6 H1_6 1_555 1_555
O24_3 C25_5 1_555 1_555
O13_3 C25_5 1_555 1_555
O14_3 C28_5 1_555 1_555
O15_3 C28_5 1_555 1_555
C25_5 C29_5 1_555 1_555
C26_5 H16_5 1_555 1_555
C27_5 H17_5 1_555 1_555
C28_5 C27_5 1_555 1_555
C29_5 C26_5 1_555 1_555
H18_5 C29_5 1_555 1_555
C30_5 C31_5 1_555 1_555
C31_5 H19_5 1_555 1_555
C32_5 C31_5 1_555 1_555
H20_5 C32_5 1_555 1_555
C33_5 C26_5 1_555 1_555
C34_5 C33_5 1_555 1_555
H21_5 C34_5 1_555 1_555
C35_5 C30_5 1_555 1_555
H22_5 C35_5 1_555 1_555
C36_5 C27_5 1_555 1_555
H23_5 C36_5 1_555 1_555
C37_5 C38_5 1_555 1_555
C38_5 H24_5 1_555 1_555
C40_5 N1_6 1_555 1_555
C41_5 C30_5 1_555 1_555
C42_5 C37_5 1_555 1_555
H25_5 C42_5 1_555 1_555
C43_5 C36_5 1_555 1_555
C44_5 C43_5 1_555 1_555
H26_5 C44_5 1_555 1_555
C45_5 C44_5 1_555 1_555
H27_5 C45_5 1_555 1_555
C46_5 C37_5 1_555 1_555
C47_5 C46_5 1_555 1_555
H28_5 C47_5 1_555 1_555
C48_5 C43_5 1_555 1_555
H29_5 C48_5 1_555 1_555
Zr6_2 O15_3 1_555 1_555
Zr12 O13_3 1_555 1_555
Zr14_3 O14_3 1_555 1_555
C32_5 C33_5 1_555 1_555
C34_5 C35_5 1_555 1_555
C38_5 C39_5 1_555 1_555
C39_5 C40_5 1_555 1_555
C40_5 C41_5 1_555 1_555
C41_5 C42_5 1_555 1_555
C45_5 C46_5 1_555 1_555
C47_5 C48_5 1_555 1_555
N1_7 H1_7 1_555 1_555
O24_4 C25_6 1_555 1_555
O13_4 C25_6 1_555 1_555
O14_4 C28_6 1_555 1_555
O27_3 C28_6 1_555 1_555
C25_6 C29_6 1_555 1_555
C26_6 H16_6 1_555 1_555
C27_6 H17_6 1_555 1_555
C28_6 C27_6 1_555 1_555
C29_6 C26_6 1_555 1_555
H18_6 C29_6 1_555 1_555
C30_6 C31_6 1_555 1_555
C31_6 H19_6 1_555 1_555
C32_6 C31_6 1_555 1_555
H20_6 C32_6 1_555 1_555
C33_6 C26_6 1_555 1_555
C34_6 C33_6 1_555 1_555
H21_6 C34_6 1_555 1_555
C35_6 C30_6 1_555 1_555
H22_6 C35_6 1_555 1_555
C36_6 C27_6 1_555 1_555
H23_6 C36_6 1_555 1_555
C37_6 C38_6 1_555 1_555
C38_6 H24_6 1_555 1_555
C40_6 N1_7 1_555 1_555
C41_6 C30_6 1_555 1_555
C42_6 C37_6 1_555 1_555
H25_6 C42_6 1_555 1_555
C43_6 C36_6 1_555 1_555
C44_6 C43_6 1_555 1_555
H26_6 C44_6 1_555 1_555
C45_6 C44_6 1_555 1_555
H27_6 C45_6 1_555 1_555
C46_6 C37_6 1_555 1_555
C47_6 C46_6 1_555 1_555
H28_6 C47_6 1_555 1_555
C48_6 C43_6 1_555 1_555
H29_6 C48_6 1_555 1_555
Zr12_3 O13_4 1_555 1_555
Zr13_3 O14_4 1_555 1_555
C32_6 C33_6 1_555 1_555
C34_6 C35_6 1_555 1_555
C38_6 C39_6 1_555 1_555
C39_6 C40_6 1_555 1_555
C40_6 C41_6 1_555 1_555
C41_6 C42_6 1_555 1_555
C45_6 C46_6 1_555 1_555
C47_6 C48_6 1_555 1_555
Zr6 O9_6 1_555 1_555
Zr11 O2_7 1_555 1_555
Zr3_6 O1_5 1_555 1_555
O1_5 Zr8 1_555 1_555
O18 Zr3_6 1_555 1_555
O23_3 C1_6 1_555 1_555
O6_6 Zr11 1_555 1_555
O7_6 Zr3_6 1_555 1_555
O8_10 Zr3_6 1_555 1_555
O9_6 C4_6 1_555 1_555
C1_6 O6_6 1_555 1_555
O10_10 Zr3_6 1_555 1_555
N1_8 H1_8 1_555 1_555
C2_6 H2_6 1_555 1_555
C3_6 H3_6 1_555 1_555
C4_6 O7_6 1_555 1_555
C5_6 C1_6 1_555 1_555
H4_6 C5_6 1_555 1_555
C6_6 C7_6 1_555 1_555
C7_6 H5_6 1_555 1_555
C8_6 C7_6 1_555 1_555
H6_6 C8_6 1_555 1_555
C9_6 C2_6 1_555 1_555
C10_6 C9_6 1_555 1_555
H7_6 C10_6 1_555 1_555
C11_6 C6_6 1_555 1_555
H8_6 C11_6 1_555 1_555
C12_6 C3_6 1_555 1_555
H9_6 C12_6 1_555 1_555
C13_6 C14_6 1_555 1_555
C14_6 H10_6 1_555 1_555
C15_6 C14_6 1_555 1_555
C16_6 N1_8 1_555 1_555
C17_6 C6_6 1_555 1_555
C18_6 C13_6 1_555 1_555
H11_6 C18_6 1_555 1_555
C19_6 C12_6 1_555 1_555
C20_6 C19_6 1_555 1_555
H12_6 C20_6 1_555 1_555
C21_6 C20_6 1_555 1_555
H13_6 C21_6 1_555 1_555
C22_6 C13_6 1_555 1_555
C23_6 C22_6 1_555 1_555
H14_6 C23_6 1_555 1_555
C24_6 C19_6 1_555 1_555
H15_6 C24_6 1_555 1_555
O11_7 Zr11 1_555 1_555
O17_5 Zr6 1_555 1_555
O26_4 Zr3_6 1_555 1_555
Zr3_6 O17_5 1_555 1_555
Zr3_6 O20 1_555 1_555
C2_6 C5_6 1_555 1_555
C3_6 C4_6 1_555 1_555
C8_6 C9_6 1_555 1_555
C10_6 C11_6 1_555 1_555
C15_6 C16_6 1_555 1_555
C16_6 C17_6 1_555 1_555
C17_6 C18_6 1_555 1_555
C21_6 C22_6 1_555 1_555
C23_6 C24_6 1_555 1_555
O2_7 H31_2 1_555 1_555
O11_7 H37_3 1_555 1_555
Zr11_2 O2_8 1_555 1_555
O11_8 Zr11_2 1_555 1_555
O25_4 Zr11_2 1_555 1_555
O2_8 H30_2 1_555 1_555
O11_8 H36_2 1_555 1_555
O11_8 H37_4 1_555 1_555
O1_6 Zr8_2 1_555 1_555
Zr14_3 O1_6 1_555 1_555
O17_6 Zr6_2 1_555 1_555
O18_3 Zr14_3 1_555 1_555
Zr14_3 O17_6 1_555 1_555
Zr12_3 O2_9 1_555 1_555
O11_9 Zr12_3 1_555 1_555
O2_9 H30_3 1_555 1_555
O11_9 H36_3 1_555 1_555
O11_9 H37_5 1_555 1_555
Zr7 O9_7 1_555 1_555
Zr12_4 O2_10 1_555 1_555
O23_2 C1_7 1_555 1_555
O6_7 Zr12_4 1_555 1_555
O7_7 Zr13_3 1_555 1_555
O8_11 Zr13_3 1_555 1_555
O9_7 C4_7 1_555 1_555
C1_7 O6_7 1_555 1_555
O10_11 Zr13_3 1_555 1_555
N1_9 H1_9 1_555 1_555
C2_7 H2_7 1_555 1_555
C3_7 H3_7 1_555 1_555
C4_7 O7_7 1_555 1_555
C5_7 C1_7 1_555 1_555
H4_7 C5_7 1_555 1_555
C6_7 C7_7 1_555 1_555
C7_7 H5_7 1_555 1_555
C8_7 C7_7 1_555 1_555
H6_7 C8_7 1_555 1_555
C9_7 C2_7 1_555 1_555
C10_7 C9_7 1_555 1_555
H7_7 C10_7 1_555 1_555
C11_7 C6_7 1_555 1_555
H8_7 C11_7 1_555 1_555
C12_7 C3_7 1_555 1_555
H9_7 C12_7 1_555 1_555
C13_7 C14_7 1_555 1_555
C14_7 H10_7 1_555 1_555
C15_7 C14_7 1_555 1_555
C16_7 N1_9 1_555 1_555
C17_7 C6_7 1_555 1_555
C18_7 C13_7 1_555 1_555
H11_7 C18_7 1_555 1_555
C19_7 C12_7 1_555 1_555
C20_7 C19_7 1_555 1_555
H12_7 C20_7 1_555 1_555
C21_7 C20_7 1_555 1_555
H13_7 C21_7 1_555 1_555
C22_7 C13_7 1_555 1_555
C23_7 C22_7 1_555 1_555
H14_7 C23_7 1_555 1_555
C24_7 C19_7 1_555 1_555
H15_7 C24_7 1_555 1_555
O11_10 Zr12_4 1_555 1_555
Zr13_3 O20_4 1_555 1_555
C2_7 C5_7 1_555 1_555
C3_7 C4_7 1_555 1_555
C8_7 C9_7 1_555 1_555
C10_7 C11_7 1_555 1_555
C15_7 C16_7 1_555 1_555
C16_7 C17_7 1_555 1_555
C17_7 C18_7 1_555 1_555
C21_7 C22_7 1_555 1_555
C23_7 C24_7 1_555 1_555
O2_10 H31_3 1_555 1_555
O11_10 H37_6 1_555 1_555
N1_10 H1_10 1_555 1_555
O24 C25_7 1_555 1_555
O25_4 C25_7 1_555 1_555
O26_4 C28_7 1_555 1_555
O15_4 C28_7 1_555 1_555
C25_7 C29_7 1_555 1_555
C26_7 H16_7 1_555 1_555
C27_7 H17_7 1_555 1_555
C28_7 C27_7 1_555 1_555
C29_7 C26_7 1_555 1_555
H18_7 C29_7 1_555 1_555
C30_7 C31_7 1_555 1_555
C31_7 H19_7 1_555 1_555
C32_7 C31_7 1_555 1_555
H20_7 C32_7 1_555 1_555
C33_7 C26_7 1_555 1_555
C34_7 C33_7 1_555 1_555
H21_7 C34_7 1_555 1_555
C35_7 C30_7 1_555 1_555
H22_7 C35_7 1_555 1_555
C36_7 C27_7 1_555 1_555
H23_7 C36_7 1_555 1_555
C37_7 C38_7 1_555 1_555
C38_7 H24_7 1_555 1_555
C40_7 N1_10 1_555 1_555
C41_7 C30_7 1_555 1_555
C42_7 C37_7 1_555 1_555
H25_7 C42_7 1_555 1_555
C43_7 C36_7 1_555 1_555
C44_7 C43_7 1_555 1_555
H26_7 C44_7 1_555 1_555
C45_7 C44_7 1_555 1_555
H27_7 C45_7 1_555 1_555
C46_7 C37_7 1_555 1_555
C47_7 C46_7 1_555 1_555
H28_7 C47_7 1_555 1_555
C48_7 C43_7 1_555 1_555
H29_7 C48_7 1_555 1_555
Zr8 O15_4 1_555 1_555
C32_7 C33_7 1_555 1_555
C34_7 C35_7 1_555 1_555
C38_7 C39_7 1_555 1_555
C39_7 C40_7 1_555 1_555
C40_7 C41_7 1_555 1_555
C41_7 C42_7 1_555 1_555
C45_7 C46_7 1_555 1_555
C47_7 C48_7 1_555 1_555
O27_4 Zr7_2 1_555 1_555
N1_11 H1_11 1_555 1_555
O24_2 C25_8 1_555 1_555
O25_3 C25_8 1_555 1_555
O26_3 C28_8 1_555 1_555
O27_4 C28_8 1_555 1_555
C25_8 C29_8 1_555 1_555
C26_8 H16_8 1_555 1_555
C27_8 H17_8 1_555 1_555
C28_8 C27_8 1_555 1_555
C29_8 C26_8 1_555 1_555
H18_8 C29_8 1_555 1_555
C30_8 C31_8 1_555 1_555
C31_8 H19_8 1_555 1_555
C32_8 C31_8 1_555 1_555
H20_8 C32_8 1_555 1_555
C33_8 C26_8 1_555 1_555
C34_8 C33_8 1_555 1_555
H21_8 C34_8 1_555 1_555
C35_8 C30_8 1_555 1_555
H22_8 C35_8 1_555 1_555
C36_8 C27_8 1_555 1_555
H23_8 C36_8 1_555 1_555
C37_8 C38_8 1_555 1_555
C38_8 H24_8 1_555 1_555
C40_8 N1_11 1_555 1_555
C41_8 C30_8 1_555 1_555
C42_8 C37_8 1_555 1_555
H25_8 C42_8 1_555 1_555
C43_8 C36_8 1_555 1_555
C44_8 C43_8 1_555 1_555
H26_8 C44_8 1_555 1_555
C45_8 C44_8 1_555 1_555
H27_8 C45_8 1_555 1_555
C46_8 C37_8 1_555 1_555
C47_8 C46_8 1_555 1_555
H28_8 C47_8 1_555 1_555
C48_8 C43_8 1_555 1_555
H29_8 C48_8 1_555 1_555
C32_8 C33_8 1_555 1_555
C34_8 C35_8 1_555 1_555
C38_8 C39_8 1_555 1_555
C39_8 C40_8 1_555 1_555
C40_8 C41_8 1_555 1_555
C41_8 C42_8 1_555 1_555
C45_8 C46_8 1_555 1_555
C47_8 C48_8 1_555 1_555
Zr12 O2_11 1_555 1_555
O11_11 Zr12 1_555 1_555
O2_11 H30_4 1_555 1_555
O11_11 H36_4 1_555 1_555
O11_11 H37_7 1_555 1_555
Zr8_2 O9_8 1_555 1_555
Zr12_2 O2_12 1_555 1_555
O23 C1_8 1_555 1_555
O6_8 Zr12_2 1_555 1_555
O7_8 Zr14_3 1_555 1_555
O8_12 Zr14_3 1_555 1_555
O9_8 C4_8 1_555 1_555
C1_8 O6_8 1_555 1_555
O10_12 Zr14_3 1_555 1_555
N1_12 H1_12 1_555 1_555
C2_8 H2_8 1_555 1_555
C3_8 H3_8 1_555 1_555
C4_8 O7_8 1_555 1_555
C5_8 C1_8 1_555 1_555
H4_8 C5_8 1_555 1_555
C6_8 C7_8 1_555 1_555
C7_8 H5_8 1_555 1_555
C8_8 C7_8 1_555 1_555
H6_8 C8_8 1_555 1_555
C9_8 C2_8 1_555 1_555
C10_8 C9_8 1_555 1_555
H7_8 C10_8 1_555 1_555
C11_8 C6_8 1_555 1_555
H8_8 C11_8 1_555 1_555
C12_8 C3_8 1_555 1_555
H9_8 C12_8 1_555 1_555
C13_8 C14_8 1_555 1_555
C14_8 H10_8 1_555 1_555
C15_8 C14_8 1_555 1_555
C16_8 N1_12 1_555 1_555
C17_8 C6_8 1_555 1_555
C18_8 C13_8 1_555 1_555
H11_8 C18_8 1_555 1_555
C19_8 C12_8 1_555 1_555
C20_8 C19_8 1_555 1_555
H12_8 C20_8 1_555 1_555
C21_8 C20_8 1_555 1_555
H13_8 C21_8 1_555 1_555
C22_8 C13_8 1_555 1_555
C23_8 C22_8 1_555 1_555
H14_8 C23_8 1_555 1_555
C24_8 C19_8 1_555 1_555
H15_8 C24_8 1_555 1_555
O11_12 Zr12_2 1_555 1_555
Zr14_3 O20_3 1_555 1_555
C2_8 C5_8 1_555 1_555
C3_8 C4_8 1_555 1_555
C8_8 C9_8 1_555 1_555
C10_8 C11_8 1_555 1_555
C15_8 C16_8 1_555 1_555
C16_8 C17_8 1_555 1_555
C17_8 C18_8 1_555 1_555
C21_8 C22_8 1_555 1_555
C23_8 C24_8 1_555 1_555
O2_12 H31_4 1_555 1_555
O11_12 H37_8 1_555 1_555
O8_3 H33_5 1_555 1_555
O10_3 H35_5 1_555 1_555
O8_4 H32_5 1_555 1_555
O10_4 H34_5 1_555 1_555
O8 H33_6 1_555 1_555
O10 H35_6 1_555 1_555
O8_2 H32_6 1_555 1_555
O10_2 H34_6 1_555 1_555
O8_7 H32_7 1_555 1_555
O10_7 H34_7 1_555 1_555
O8_8 H33_7 1_555 1_555
O10_8 H35_7 1_555 1_555
O8_5 H32_8 1_555 1_555
O10_5 H34_8 1_555 1_555
O8_6 H33_8 1_555 1_555
O10_6 H35_8 1_555 1_555
O2_7 H30_5 1_555 1_555
O11_7 H36_5 1_555 1_555
O2_8 H31_5 1_555 1_555
O2_5 H30_6 1_555 1_555
O11_5 H36_6 1_555 1_555
O2_6 H31_6 1_555 1_555
O2_11 H31_7 1_555 1_555
O2_12 H30_7 1_555 1_555
O11_12 H36_7 1_555 1_555
O2_9 H31_8 1_555 1_555
O2_10 H30_8 1_555 1_555
O11_10 H36_8 1_555 1_555

#END
