
###############################################################################
#
# This file contains modified crystal structure data generated from the
# MOF subset of the Cambridge Structural Database (CSD) v543 
# hosted by the Cambridge Crystallographic Data Centre (CCDC).
#
# This work is licensed under the Creative Commons
# Attribution-NonCommercial-ShareAlike 4.0 International License.
# To view a copy of this license, visit
# http://creativecommons.org/licenses/by-nc-sa/4.0/
# or send a letter to
# Creative Commons, PO Box 1866, Mountain View, CA 94042, USA.
#
# CIF created using the CSD Python API on 29 September 2022
# The structure has been converted into the P1 space group
# The structure has a 3D framework
# The original CSD entry MOYREA is in the tetragonal crystal system
# The framework has been calculated to contain at least 10.0% void space
# The void calculation uses a probe of radius 1.32A, grid spacing 0.4
# H atom positions have been added when not included in the experimental data
# Generated hydrogen atom positions removed from atoms on special positions
#
###############################################################################

data_MOYREA
_chemical_formula_moiety         '(C436 H506 O136 Zr28)n'
_symmetry_cell_setting           triclinic
_symmetry_space_group_name_H-M   'P 1'
_symmetry_Int_Tables_number      1
_space_group_name_Hall           'P 1'
loop_
_symmetry_equiv_pos_site_id
_symmetry_equiv_pos_as_xyz
1 x,y,z
_cell_length_a                   17.2687(2)
_cell_length_b                   17.2687(2)
_cell_length_c                   91.4766(12)
_cell_angle_alpha                90
_cell_angle_beta                 90
_cell_angle_gamma                90
_cell_volume                     27279.1
loop_
_atom_site_label
_atom_site_type_symbol
_atom_site_fract_x
_atom_site_fract_y
_atom_site_fract_z
O8 O 0.42226(12) 0.17446(14) 0.58592(2)
O9 O 0.34745(13) 0.11602(15) 0.60265(2)
C27 C 0.36689(19) 0.1318(2) 0.58966(3)
C28 C 0.3204(2) 0.0967(3) 0.57778(3)
H16 H 0.2808 0.0626 0.5802
C29 C 0.3339(2) 0.1126(3) 0.56388(3)
H17 H 0.3751 0.1459 0.5620
C30 C 0.2019(3) 0.0000 0.5000
H18 H 0.2557 0.0000 0.5000
C31 C 0.0832(2) 0.0217(3) 0.51279(3)
C32 C 0.1643(2) 0.0205(3) 0.51265(3)
C33 C 0.2100(2) 0.0417(3) 0.52601(3)
C34 C 0.2926(2) 0.0849(3) 0.55113(3)
C35 C 0.2357(2) 0.0278(3) 0.55174(4)
H19 H 0.2243 0.0044 0.5606
C36 C 0.0417(3) 0.0000 0.5000
C37 C 0.0383(2) 0.0473(3) 0.52507(3)
H20 H 0.0641 0.0647 0.5334
C38 C 0.2678(2) 0.0948(3) 0.52527(3)
H21 H 0.2800 0.1172 0.5163
C39 C 0.1958(2) 0.0054(3) 0.53937(4)
C40 C 0.3085(3) 0.1161(4) 0.53755(4)
H23 H 0.3479 0.1525 0.5367
H29 H 0.1594 0.0341 0.4601
Zr6 Zr 0.5000 0.2500 0.59834(2)
Zr11 Zr 0.39720(2) 0.14720(2) 0.6250
C30_2 C 0.2019(3) 1.0000 0.5000
H18_2 H 0.2557 1.0000 0.5000
C36_2 C 0.0417(3) 1.0000 0.5000
H22 H 0.1594 0.9659 0.5399
O10 O 0.42226(12) 0.82554(14) 0.41408(2)
O11 O 0.34745(13) 0.88398(15) 0.39735(2)
C41 C 0.36689(19) 0.8682(2) 0.41034(3)
C42 C 0.3204(2) 0.9033(3) 0.42222(3)
H24 H 0.2808 0.9374 0.4198
C43 C 0.3339(2) 0.8874(3) 0.43612(3)
H25 H 0.3751 0.8541 0.4380
C44 C 0.0832(2) 0.9783(3) 0.48721(3)
C45 C 0.1643(2) 0.9795(3) 0.48735(3)
C46 C 0.2100(2) 0.9583(3) 0.47399(3)
C47 C 0.2926(2) 0.9151(3) 0.44887(3)
C48 C 0.2357(2) 0.9722(3) 0.44826(4)
H26 H 0.2243 0.9956 0.4394
C49 C 0.0383(2) 0.9527(3) 0.47493(3)
H27 H 0.0641 0.9353 0.4666
C50 C 0.2678(2) 0.9052(3) 0.47473(3)
H28 H 0.2800 0.8828 0.4837
C51 C 0.1958(2) 0.9946(3) 0.46063(4)
C52 C 0.3085(3) 0.8839(4) 0.46245(4)
H30 H 0.3479 0.8475 0.4633
Zr4 Zr 0.5000 0.7500 0.40166(2)
Zr10 Zr 0.39720(2) 0.85280(2) 0.3750
C4 C 0.7981(3) 0.0000 0.5000
H3 H 0.7443 0.0000 0.5000
C10 C 0.9583(3) 0.0000 0.5000
H7 H 0.8406 0.0341 0.4601
O6 O 0.57774(12) 0.17446(14) 0.58592(2)
O7 O 0.65255(13) 0.11602(15) 0.60265(2)
C15 C 0.63311(19) 0.1318(2) 0.58966(3)
C16 C 0.6796(2) 0.0967(3) 0.57778(3)
H9 H 0.7192 0.0626 0.5802
C17 C 0.6661(2) 0.1126(3) 0.56388(3)
H10 H 0.6249 0.1459 0.5620
C18 C 0.9168(2) 0.0217(3) 0.51279(3)
C19 C 0.8357(2) 0.0205(3) 0.51265(3)
C20 C 0.7900(2) 0.0417(3) 0.52601(3)
C21 C 0.7074(2) 0.0849(3) 0.55113(3)
C22 C 0.7643(2) 0.0278(3) 0.55174(4)
H11 H 0.7757 0.0044 0.5606
C23 C 0.9617(2) 0.0473(3) 0.52507(3)
H12 H 0.9359 0.0647 0.5334
C24 C 0.7322(2) 0.0948(3) 0.52527(3)
H13 H 0.7200 0.1172 0.5163
C25 C 0.8042(2) 0.0054(3) 0.53937(4)
C26 C 0.6915(3) 0.1161(4) 0.53755(4)
H15 H 0.6521 0.1525 0.5367
Zr7 Zr 0.60280(2) 0.14720(2) 0.6250
Zr2 Zr 0.39720(2) 0.64720(2) 0.3750
O1 O 0.41166(16) 0.7500 0.38631(2)
O2 O 0.5000 0.63010(17) 0.38961(2)
O3 O 0.57774(12) 0.82554(14) 0.41408(2)
O4 O 0.65255(13) 0.88398(15) 0.39735(2)
O5 O 0.27139(15) 0.64959(18) 0.37358(2)
C1 C 0.63311(19) 0.8682(2) 0.41034(3)
C2 C 0.6796(2) 0.9033(3) 0.42222(3)
H1 H 0.7192 0.9374 0.4198
C3 C 0.6661(2) 0.8874(3) 0.43612(3)
H2 H 0.6249 0.8541 0.4380
C4_2 C 0.7981(3) 1.0000 0.5000
H3_2 H 0.7443 1.0000 0.5000
C5 C 0.9168(2) 0.9783(3) 0.48721(3)
C6 C 0.8357(2) 0.9795(3) 0.48735(3)
C7 C 0.7900(2) 0.9583(3) 0.47399(3)
C8 C 0.7074(2) 0.9151(3) 0.44887(3)
C9 C 0.7643(2) 0.9722(3) 0.44826(4)
H4 H 0.7757 0.9956 0.4394
C10_2 C 0.9583(3) 1.0000 0.5000
C11 C 0.9617(2) 0.9527(3) 0.47493(3)
H5 H 0.9359 0.9353 0.4666
C12 C 0.7322(2) 0.9052(3) 0.47473(3)
H6 H 0.7200 0.8828 0.4837
C13 C 0.8042(2) 0.9946(3) 0.46063(4)
C14 C 0.6915(3) 0.8839(4) 0.46245(4)
H8 H 0.6521 0.8475 0.4633
H14 H 0.8406 0.9659 0.5399
Zr3 Zr 0.60280(2) 0.64720(2) 0.3750
O12 O 0.58834(16) 0.7500 0.38631(2)
O13 O 0.72861(15) 0.64959(18) 0.37358(2)
O14 O 0.5000 0.86990(17) 0.38961(2)
O15 O 0.39959(18) 0.52139(15) 0.37642(2)
O16 O 0.60041(18) 0.52139(15) 0.37642(2)
Zr8 Zr 0.60280(2) 0.85280(2) 0.3750
O17 O 0.5000 0.66166(16) 0.36369(2)
O18 O 0.61990(17) 0.7500 0.36039(2)
O19 O 0.38010(17) 0.7500 0.36039(2)
O20 O 0.42226(12) 0.67446(14) 0.41408(2)
O22 O 0.57774(12) 0.67446(14) 0.41408(2)
O23 O 0.36602(15) 0.59745(13) 0.35265(2)
O24 O 0.34745(13) 0.61602(15) 0.39735(2)
O25 O 0.63398(15) 0.59745(13) 0.35265(2)
O26 O 0.65255(13) 0.61602(15) 0.39735(2)
Zr1 Zr -0.0000 0.2500 0.90166(2)
Zr2_2 Zr 0.10280(2) 0.35280(2) 0.8750
O1_2 O 0.08834(16) 0.2500 0.88631(2)
O2_2 O 0.0000 0.36990(17) 0.88961(2)
O5_2 O 0.22861(15) 0.35041(18) 0.87358(2)
O14_2 O -0.0000 0.13010(17) 0.88961(2)
O15_2 O 0.10041(18) 0.47861(15) 0.87642(2)
Zr9 Zr 0.10280(2) 0.14720(2) 0.8750
O17_2 O 0.0000 0.33834(16) 0.86369(2)
O19_2 O 0.11990(17) 0.2500 0.86039(2)
O20_2 O 0.07774(12) 0.32554(14) 0.91408(2)
O21 O 0.07774(12) 0.17446(14) 0.91408(2)
O23_2 O 0.13398(15) 0.40255(13) 0.85265(2)
O24_2 O 0.15255(13) 0.38398(15) 0.89735(2)
Zr5 Zr 0.0000 0.7500 0.09834(2)
Zr1_2 Zr 1.0000 0.2500 0.90166(2)
O2_3 O 1.0000 0.36990(17) 0.88961(2)
O3_2 O 0.92226(12) 0.17446(14) 0.91408(2)
O4_2 O 0.84745(13) 0.11602(15) 0.89735(2)
C1_2 C 0.86689(19) 0.1318(2) 0.91034(3)
C2_2 C 0.8204(2) 0.0967(3) 0.92222(3)
H1_2 H 0.7808 0.0626 0.9198
C3_2 C 0.8339(2) 0.1126(3) 0.93612(3)
H2_2 H 0.8751 0.1459 0.9380
C4_3 C 0.7019(3) 0.0000 1.0000
H3_3 H 0.7557 0.0000 1.0000
C5_2 C 0.5832(2) 0.0217(3) 0.98721(3)
C6_2 C 0.6643(2) 0.0205(3) 0.98735(3)
C7_2 C 0.7100(2) 0.0417(3) 0.97399(3)
C8_2 C 0.7926(2) 0.0849(3) 0.94887(3)
C9_2 C 0.7357(2) 0.0278(3) 0.94826(4)
H4_2 H 0.7243 0.0044 0.9394
C10_3 C 0.5417(3) 0.0000 1.0000
C11_2 C 0.5383(2) 0.0473(3) 0.97493(3)
H5_2 H 0.5641 0.0647 0.9666
C12_2 C 0.7678(2) 0.0948(3) 0.97473(3)
H6_2 H 0.7800 0.1172 0.9837
C13_2 C 0.6958(2) 0.0054(3) 0.96063(4)
C14_2 C 0.8085(3) 0.1161(4) 0.96245(4)
H8_2 H 0.8479 0.1525 0.9633
C30_3 C 0.2981(3) 0.0000 1.0000
H18_3 H 0.2443 0.0000 1.0000
C36_3 C 0.4583(3) 0.0000 1.0000
O11_2 O 0.15255(13) 0.11602(15) 0.89735(2)
C41_2 C 0.13311(19) 0.1318(2) 0.91034(3)
C42_2 C 0.1796(2) 0.0967(3) 0.92222(3)
H24_2 H 0.2192 0.0626 0.9198
C43_2 C 0.1661(2) 0.1126(3) 0.93612(3)
H25_2 H 0.1249 0.1459 0.9380
C44_2 C 0.4168(2) 0.0217(3) 0.98721(3)
C45_2 C 0.3357(2) 0.0205(3) 0.98735(3)
C46_2 C 0.2900(2) 0.0417(3) 0.97399(3)
C47_2 C 0.2074(2) 0.0849(3) 0.94887(3)
C48_2 C 0.2643(2) 0.0278(3) 0.94826(4)
H26_2 H 0.2757 0.0044 0.9394
C49_2 C 0.4617(2) 0.0473(3) 0.97493(3)
H27_2 H 0.4359 0.0647 0.9666
C50_2 C 0.2322(2) 0.0948(3) 0.97473(3)
H28_2 H 0.2200 0.1172 0.9837
C51_2 C 0.3042(2) 0.0054(3) 0.96063(4)
C52_2 C 0.1915(3) 0.1161(4) 0.96245(4)
H30_2 H 0.1521 0.1525 0.9633
Zr3_2 Zr 0.89720(2) 0.35280(2) 0.8750
O12_2 O 0.91166(16) 0.2500 0.88631(2)
O13_2 O 0.77139(15) 0.35041(18) 0.87358(2)
O14_3 O 1.0000 0.13010(17) 0.88961(2)
O16_2 O 0.89959(18) 0.47861(15) 0.87642(2)
Zr8_2 Zr 0.89720(2) 0.14720(2) 0.8750
O17_3 O 1.0000 0.33834(16) 0.86369(2)
O18_2 O 0.88010(17) 0.2500 0.86039(2)
O22_2 O 0.92226(12) 0.32554(14) 0.91408(2)
O25_2 O 0.86602(15) 0.40255(13) 0.85265(2)
O26_2 O 0.84745(13) 0.38398(15) 0.89735(2)
C4_4 C 0.7019(3) 1.0000 -0.0000
H3_4 H 0.7557 1.0000 -0.0000
C10_4 C 0.5417(3) 1.0000 -0.0000
O6_2 O 0.92226(12) 0.82554(14) 0.08592(2)
O7_2 O 0.84745(13) 0.88398(15) 0.10265(2)
C15_2 C 0.86689(19) 0.8682(2) 0.08966(3)
C16_2 C 0.8204(2) 0.9033(3) 0.07778(3)
H9_2 H 0.7808 0.9374 0.0802
C17_2 C 0.8339(2) 0.8874(3) 0.06388(3)
H10_2 H 0.8751 0.8541 0.0620
C18_2 C 0.5832(2) 0.9783(3) 0.01279(3)
C19_2 C 0.6643(2) 0.9795(3) 0.01265(3)
C20_2 C 0.7100(2) 0.9583(3) 0.02601(3)
C21_2 C 0.7926(2) 0.9151(3) 0.05113(3)
C22_2 C 0.7357(2) 0.9722(3) 0.05174(4)
H11_2 H 0.7243 0.9956 0.0606
C23_2 C 0.5383(2) 0.9527(3) 0.02507(3)
H12_2 H 0.5641 0.9353 0.0334
C24_2 C 0.7678(2) 0.9052(3) 0.02527(3)
H13_2 H 0.7800 0.8828 0.0163
C25_2 C 0.6958(2) 0.9946(3) 0.03937(4)
C26_2 C 0.8085(3) 0.8839(4) 0.03755(4)
H15_2 H 0.8479 0.8475 0.0367
O8_2 O 0.07774(12) 0.82554(14) 0.08592(2)
O9_2 O 0.15255(13) 0.88398(15) 0.10265(2)
C27_2 C 0.13311(19) 0.8682(2) 0.08966(3)
C28_2 C 0.1796(2) 0.9033(3) 0.07778(3)
H16_2 H 0.2192 0.9374 0.0802
C29_2 C 0.1661(2) 0.8874(3) 0.06388(3)
H17_2 H 0.1249 0.8541 0.0620
C30_4 C 0.2981(3) 1.0000 -0.0000
H18_4 H 0.2443 1.0000 -0.0000
C31_2 C 0.4168(2) 0.9783(3) 0.01279(3)
C32_2 C 0.3357(2) 0.9795(3) 0.01265(3)
C33_2 C 0.2900(2) 0.9583(3) 0.02601(3)
C34_2 C 0.2074(2) 0.9151(3) 0.05113(3)
C35_2 C 0.2643(2) 0.9722(3) 0.05174(4)
H19_2 H 0.2757 0.9956 0.0606
C36_4 C 0.4583(3) 1.0000 -0.0000
C37_2 C 0.4617(2) 0.9527(3) 0.02507(3)
H20_2 H 0.4359 0.9353 0.0334
C38_2 C 0.2322(2) 0.9052(3) 0.02527(3)
H21_2 H 0.2200 0.8828 0.0163
C39_2 C 0.3042(2) 0.9946(3) 0.03937(4)
C40_2 C 0.1915(3) 0.8839(4) 0.03755(4)
H23_2 H 0.1521 0.8475 0.0367
Zr5_2 Zr 1.0000 0.7500 0.09834(2)
Zr7_2 Zr 0.89720(2) 0.85280(2) 0.1250
Zr11_2 Zr 0.10280(2) 0.85280(2) 0.1250
O8_3 O 0.07554(14) 0.17226(12) 0.83592(2)
O9_3 O 0.13398(15) 0.09745(13) 0.85265(2)
C27_3 C 0.1182(2) 0.11689(19) 0.83966(3)
C28_3 C 0.1533(3) 0.0704(2) 0.82778(3)
H16_3 H 0.1874 0.0308 0.8302
C29_3 C 0.1374(3) 0.0839(2) 0.81388(3)
H17_3 H 0.1041 0.1251 0.8120
H18_5 H 0.2500 0.0057 0.7500
C34_3 C 0.1651(3) 0.0426(2) 0.80113(3)
C38_3 C 0.1552(3) 0.0178(2) 0.77527(3)
H21_3 H 0.1328 0.0300 0.7663
C40_3 C 0.1339(4) 0.0585(3) 0.78755(4)
H23_3 H 0.0975 0.0979 0.7867
O10_2 O 0.42446(14) 0.17226(12) 0.66408(2)
O11_3 O 0.36602(15) 0.09745(13) 0.64735(2)
C41_3 C 0.3818(2) 0.11689(19) 0.66034(3)
C42_3 C 0.3467(3) 0.0704(2) 0.67222(3)
H24_3 H 0.3126 0.0308 0.6698
C43_3 C 0.3626(3) 0.0839(2) 0.68612(3)
H25_3 H 0.3959 0.1251 0.6880
C47_3 C 0.3349(3) 0.0426(2) 0.69887(3)
C50_3 C 0.3448(3) 0.0178(2) 0.72473(3)
H28_3 H 0.3672 0.0300 0.7337
C52_3 C 0.3661(4) 0.0585(3) 0.71245(4)
H30_3 H 0.4025 0.0979 0.7133
Zr4_2 Zr 0.5000 0.2500 0.65166(2)
Zr6_2 Zr -0.0000 0.2500 0.84834(2)
O1_3 O 0.5000 0.16166(16) 0.63631(2)
O2_4 O 0.61990(17) 0.2500 0.63961(2)
O3_3 O 0.42446(14) 0.32774(12) 0.66408(2)
O4_3 O 0.36602(15) 0.40255(13) 0.64735(2)
O5_3 O 0.60041(18) 0.02139(15) 0.62358(2)
C1_3 C 0.3818(2) 0.38311(19) 0.66034(3)
C2_3 C 0.3467(3) 0.4296(2) 0.67222(3)
H1_3 H 0.3126 0.4692 0.6698
C3_3 C 0.3626(3) 0.4161(2) 0.68612(3)
H2_3 H 0.3959 0.3749 0.6880
C4_5 C 0.2500 0.5481(3) 0.7500
H3_5 H 0.2500 0.4943 0.7500
C5_3 C 0.2717(3) 0.6668(2) 0.73721(3)
C6_3 C 0.2705(3) 0.5857(2) 0.73735(3)
C7_3 C 0.2917(3) 0.5400(2) 0.72399(3)
C8_3 C 0.3349(3) 0.4574(2) 0.69887(3)
C9_3 C 0.2778(3) 0.5143(2) 0.69826(4)
H4_3 H 0.2544 0.5257 0.6894
C10_5 C 0.2500 0.7083(3) 0.7500
C11_3 C 0.2973(3) 0.7117(2) 0.72493(3)
H5_3 H 0.3147 0.6859 0.7166
C12_3 C 0.3448(3) 0.4822(2) 0.72473(3)
H6_3 H 0.3672 0.4700 0.7337
C13_3 C 0.2554(3) 0.5542(2) 0.71063(4)
H7_2 H 0.2159 0.5906 0.7101
C14_3 C 0.3661(4) 0.4415(3) 0.71245(4)
H8_3 H 0.4025 0.4021 0.7133
O6_3 O 0.07554(14) 0.32774(12) 0.83592(2)
C15_3 C 0.1182(2) 0.38311(19) 0.83966(3)
C16_3 C 0.1533(3) 0.4296(2) 0.82778(3)
H9_3 H 0.1874 0.4692 0.8302
C17_3 C 0.1374(3) 0.4161(2) 0.81388(3)
H10_3 H 0.1041 0.3749 0.8120
C18_3 C 0.2283(3) 0.6668(2) 0.76279(3)
C19_3 C 0.2295(3) 0.5857(2) 0.76265(3)
C20_3 C 0.2083(3) 0.5400(2) 0.77601(3)
C21_3 C 0.1651(3) 0.4574(2) 0.80113(3)
C22_3 C 0.2222(3) 0.5143(2) 0.80174(4)
H11_3 H 0.2456 0.5257 0.8106
C23_3 C 0.2027(3) 0.7117(2) 0.77507(3)
H12_3 H 0.1853 0.6859 0.7834
C24_3 C 0.1552(3) 0.4822(2) 0.77527(3)
H13_3 H 0.1328 0.4700 0.7663
C25_3 C 0.2446(3) 0.5542(2) 0.78937(4)
H14_2 H 0.2841 0.5906 0.7899
C26_3 C 0.1339(4) 0.4415(3) 0.78755(4)
H15_3 H 0.0975 0.4021 0.7867
C30_5 C 0.2500 0.9519(3) 0.7500
C31_3 C 0.2283(3) 0.8332(2) 0.76279(3)
C32_3 C 0.2295(3) 0.9143(2) 0.76265(3)
C33_3 C 0.2083(3) 0.9600(2) 0.77601(3)
C35_3 C 0.2222(3) 0.9857(2) 0.80174(4)
H19_3 H 0.2456 0.9743 0.8106
C36_5 C 0.2500 0.7917(3) 0.7500
C37_3 C 0.2027(3) 0.7883(2) 0.77507(3)
H20_3 H 0.1853 0.8141 0.7834
C39_3 C 0.2446(3) 0.9458(2) 0.78937(4)
H22_2 H 0.2841 0.9094 0.7899
C44_3 C 0.2717(3) 0.8332(2) 0.73721(3)
C45_3 C 0.2705(3) 0.9143(2) 0.73735(3)
C46_3 C 0.2917(3) 0.9600(2) 0.72399(3)
C48_3 C 0.2778(3) 0.9857(2) 0.69826(4)
H26_3 H 0.2544 0.9743 0.6894
C49_3 C 0.2973(3) 0.7883(2) 0.72493(3)
H27_3 H 0.3147 0.8141 0.7166
C51_3 C 0.2554(3) 0.9458(2) 0.71063(4)
H29_2 H 0.2159 0.9094 0.7101
Zr3_3 Zr 0.60280(2) 0.35280(2) 0.6250
O12_3 O 0.5000 0.33834(16) 0.63631(2)
O13_3 O 0.60041(18) 0.47861(15) 0.62358(2)
O14_4 O 0.38010(17) 0.2500 0.63961(2)
O15_3 O 0.72861(15) 0.14959(18) 0.62642(2)
O16_3 O 0.72861(15) 0.35041(18) 0.62642(2)
Zr8_3 Zr 0.39720(2) 0.35280(2) 0.6250
O17_4 O 0.58834(16) 0.2500 0.61369(2)
O18_3 O 0.5000 0.36990(17) 0.61039(2)
O19_3 O 0.5000 0.13010(17) 0.61039(2)
O20_3 O 0.57554(14) 0.17226(12) 0.66408(2)
O22_3 O 0.57554(14) 0.32774(12) 0.66408(2)
O24_3 O 0.63398(15) 0.09745(13) 0.64735(2)
O25_3 O 0.65255(13) 0.38398(15) 0.60265(2)
O26_3 O 0.63398(15) 0.40255(13) 0.64735(2)
Zr6_3 Zr 1.0000 0.2500 0.84834(2)
Zr1_3 Zr 0.0000 0.7500 0.15166(2)
O1_4 O -0.0000 0.83834(16) 0.13631(2)
O3_4 O 0.07554(14) 0.67226(12) 0.16408(2)
O4_4 O 0.13398(15) 0.59745(13) 0.14735(2)
C1_4 C 0.1182(2) 0.61689(19) 0.16034(3)
C2_4 C 0.1533(3) 0.5704(2) 0.17222(3)
H1_4 H 0.1874 0.5308 0.1698
C3_4 C 0.1374(3) 0.5839(2) 0.18612(3)
H2_4 H 0.1041 0.6251 0.1880
C4_6 C 0.2500 0.4519(3) 0.2500
H3_6 H 0.2500 0.5057 0.2500
C5_4 C 0.2283(3) 0.3332(2) 0.23721(3)
C6_4 C 0.2295(3) 0.4143(2) 0.23735(3)
C7_4 C 0.2083(3) 0.4600(2) 0.22399(3)
C8_4 C 0.1651(3) 0.5426(2) 0.19887(3)
C9_4 C 0.2222(3) 0.4857(2) 0.19826(4)
H4_4 H 0.2456 0.4743 0.1894
C10_6 C 0.2500 0.2917(3) 0.2500
C11_4 C 0.2027(3) 0.2883(2) 0.22493(3)
H5_4 H 0.1853 0.3141 0.2166
C12_4 C 0.1552(3) 0.5178(2) 0.22473(3)
H6_4 H 0.1328 0.5300 0.2337
C13_4 C 0.2446(3) 0.4458(2) 0.21063(4)
H7_3 H 0.2841 0.4094 0.2101
C14_4 C 0.1339(4) 0.5585(3) 0.21245(4)
H8_4 H 0.0975 0.5979 0.2133
O6_4 O 0.42446(14) 0.67226(12) 0.33592(2)
C15_4 C 0.3818(2) 0.61689(19) 0.33966(3)
C16_4 C 0.3467(3) 0.5704(2) 0.32778(3)
H9_4 H 0.3126 0.5308 0.3302
C17_4 C 0.3626(3) 0.5839(2) 0.31388(3)
H10_4 H 0.3959 0.6251 0.3120
C18_4 C 0.2717(3) 0.3332(2) 0.26279(3)
C19_4 C 0.2705(3) 0.4143(2) 0.26265(3)
C20_4 C 0.2917(3) 0.4600(2) 0.27601(3)
C21_4 C 0.3349(3) 0.5426(2) 0.30113(3)
C22_4 C 0.2778(3) 0.4857(2) 0.30174(4)
H11_4 H 0.2544 0.4743 0.3106
C23_4 C 0.2973(3) 0.2883(2) 0.27507(3)
H12_4 H 0.3147 0.3141 0.2834
C24_4 C 0.3448(3) 0.5178(2) 0.27527(3)
H13_4 H 0.3672 0.5300 0.2663
C25_4 C 0.2554(3) 0.4458(2) 0.28937(4)
H14_3 H 0.2159 0.4094 0.2899
C26_4 C 0.3661(4) 0.5585(3) 0.28755(4)
H15_4 H 0.4025 0.5979 0.2867
C30_6 C 0.2500 0.0481(3) 0.2500
C31_4 C 0.2717(3) 0.1668(2) 0.26279(3)
C32_4 C 0.2705(3) 0.0857(2) 0.26265(3)
C33_4 C 0.2917(3) 0.0400(2) 0.27601(3)
C35_4 C 0.2778(3) 0.0143(2) 0.30174(4)
H19_4 H 0.2544 0.0257 0.3106
C36_6 C 0.2500 0.2083(3) 0.2500
C37_4 C 0.2973(3) 0.2117(2) 0.27507(3)
H20_4 H 0.3147 0.1859 0.2834
C39_4 C 0.2554(3) 0.0542(2) 0.28937(4)
H22_3 H 0.2159 0.0906 0.2899
C44_4 C 0.2283(3) 0.1668(2) 0.23721(3)
C45_4 C 0.2295(3) 0.0857(2) 0.23735(3)
C46_4 C 0.2083(3) 0.0400(2) 0.22399(3)
C48_4 C 0.2222(3) 0.0143(2) 0.19826(4)
H26_4 H 0.2456 0.0257 0.1894
C49_4 C 0.2027(3) 0.2117(2) 0.22493(3)
H27_4 H 0.1853 0.1859 0.2166
C51_4 C 0.2446(3) 0.0542(2) 0.21063(4)
H29_3 H 0.2841 0.0906 0.2101
O12_4 O 0.0000 0.66166(16) 0.13631(2)
O14_5 O 0.11990(17) 0.7500 0.13961(2)
Zr5_3 Zr 0.5000 0.7500 0.34834(2)
Zr8_4 Zr 0.10280(2) 0.64720(2) 0.1250
O18_4 O -0.0000 0.63010(17) 0.11039(2)
O19_4 O 0.0000 0.86990(17) 0.11039(2)
O21_2 O 0.07554(14) 0.82774(12) 0.16408(2)
O8_4 O 0.42446(14) 0.82774(12) 0.33592(2)
O9_4 O 0.36602(15) 0.90255(13) 0.35265(2)
C27_4 C 0.3818(2) 0.88311(19) 0.33966(3)
C28_4 C 0.3467(3) 0.9296(2) 0.32778(3)
H16_4 H 0.3126 0.9692 0.3302
C29_4 C 0.3626(3) 0.9161(2) 0.31388(3)
H17_4 H 0.3959 0.8749 0.3120
H18_6 H 0.2500 0.9943 0.2500
C34_4 C 0.3349(3) 0.9574(2) 0.30113(3)
C38_4 C 0.3448(3) 0.9822(2) 0.27527(3)
H21_4 H 0.3672 0.9700 0.2663
C40_4 C 0.3661(4) 0.9415(3) 0.28755(4)
H23_4 H 0.4025 0.9021 0.2867
O11_4 O 0.13398(15) 0.90255(13) 0.14735(2)
C41_4 C 0.1182(2) 0.88311(19) 0.16034(3)
C42_4 C 0.1533(3) 0.9296(2) 0.17222(3)
H24_4 H 0.1874 0.9692 0.1698
C43_4 C 0.1374(3) 0.9161(2) 0.18612(3)
H25_4 H 0.1041 0.8749 0.1880
C47_4 C 0.1651(3) 0.9574(2) 0.19887(3)
C50_4 C 0.1552(3) 0.9822(2) 0.22473(3)
H28_4 H 0.1328 0.9700 0.2337
C52_4 C 0.1339(4) 0.9415(3) 0.21245(4)
H30_4 H 0.0975 0.9021 0.2133
Zr1_4 Zr 1.0000 0.7500 0.15166(2)
O1_5 O 1.0000 0.83834(16) 0.13631(2)
O2_5 O 0.88010(17) 0.7500 0.13961(2)
O5_4 O 0.89959(18) 0.97861(15) 0.12358(2)
Zr3_4 Zr 0.89720(2) 0.64720(2) 0.1250
O12_5 O 1.0000 0.66166(16) 0.13631(2)
O13_4 O 0.89959(18) 0.52139(15) 0.12358(2)
O15_4 O 0.77139(15) 0.85041(18) 0.12642(2)
O16_4 O 0.77139(15) 0.64959(18) 0.12642(2)
O17_5 O 0.91166(16) 0.7500 0.11369(2)
O18_5 O 1.0000 0.63010(17) 0.11039(2)
O19_5 O 1.0000 0.86990(17) 0.11039(2)
O20_4 O 0.92446(14) 0.82774(12) 0.16408(2)
O22_4 O 0.92446(14) 0.67226(12) 0.16408(2)
O24_4 O 0.86602(15) 0.90255(13) 0.14735(2)
O25_4 O 0.84745(13) 0.61602(15) 0.10265(2)
O26_4 O 0.86602(15) 0.59745(13) 0.14735(2)
O1_6 O 0.08834(16) 0.7500 0.11369(2)
O5_5 O 0.22861(15) 0.64959(18) 0.12642(2)
O15_5 O 0.10041(18) 0.52139(15) 0.12358(2)
O20_5 O 0.07774(12) 0.67446(14) 0.08592(2)
O24_5 O 0.15255(13) 0.61602(15) 0.10265(2)
O22_5 O 0.92226(12) 0.67446(14) 0.08592(2)
O1_7 O 0.41166(16) 0.2500 0.61369(2)
O5_6 O 0.27139(15) 0.35041(18) 0.62642(2)
O15_6 O 0.39959(18) 0.47861(15) 0.62358(2)
O20_6 O 0.42226(12) 0.32554(14) 0.58592(2)
O22_6 O 0.57774(12) 0.32554(14) 0.58592(2)
O24_6 O 0.34745(13) 0.38398(15) 0.60265(2)
O1_8 O -0.0000 0.16166(16) 0.86369(2)
O1_9 O 1.0000 0.16166(16) 0.86369(2)
O5_7 O 0.89959(18) 0.02139(15) 0.87642(2)
O15_7 O 0.77139(15) 0.14959(18) 0.87358(2)
O20_7 O 0.92446(14) 0.17226(12) 0.83592(2)
O22_7 O 0.92446(14) 0.32774(12) 0.83592(2)
O24_7 O 0.86602(15) 0.09745(13) 0.85265(2)
O1_10 O 0.5000 0.83834(16) 0.36369(2)
O5_8 O 0.60041(18) 0.97861(15) 0.37642(2)
O15_8 O 0.72861(15) 0.85041(18) 0.37358(2)
O20_8 O 0.57554(14) 0.82774(12) 0.33592(2)
O22_8 O 0.57554(14) 0.67226(12) 0.33592(2)
O24_8 O 0.63398(15) 0.90255(13) 0.35265(2)
C4_7 C 0.2981(3) 0.5000 -0.0000
H3_7 H 0.2443 0.5000 -0.0000
C10_7 C 0.4583(3) 0.5000 -0.0000
C15_5 C 0.13311(19) 0.6318(2) 0.08966(3)
C16_5 C 0.1796(2) 0.5967(3) 0.07778(3)
H9_5 H 0.2192 0.5626 0.0802
C17_5 C 0.1661(2) 0.6126(3) 0.06388(3)
H10_5 H 0.1249 0.6459 0.0620
C18_5 C 0.4168(2) 0.5217(3) 0.01279(3)
C19_5 C 0.3357(2) 0.5205(3) 0.01265(3)
C20_5 C 0.2900(2) 0.5417(3) 0.02601(3)
C21_5 C 0.2074(2) 0.5849(3) 0.05113(3)
C22_5 C 0.2643(2) 0.5278(3) 0.05174(4)
H11_5 H 0.2757 0.5044 0.0606
C23_5 C 0.4617(2) 0.5473(3) 0.02507(3)
H12_5 H 0.4359 0.5647 0.0334
C24_5 C 0.2322(2) 0.5948(3) 0.02527(3)
H13_5 H 0.2200 0.6172 0.0163
C25_5 C 0.3042(2) 0.5054(3) 0.03937(4)
H14_4 H 0.3406 0.4659 0.0399
C26_5 C 0.1915(3) 0.6161(4) 0.03755(4)
H15_5 H 0.1521 0.6525 0.0367
C27_5 C 0.86689(19) 0.6318(2) 0.08966(3)
C28_5 C 0.8204(2) 0.5967(3) 0.07778(3)
H16_5 H 0.7808 0.5626 0.0802
C29_5 C 0.8339(2) 0.6126(3) 0.06388(3)
H17_5 H 0.8751 0.6459 0.0620
C30_7 C 0.7019(3) 0.5000 -0.0000
H18_7 H 0.7557 0.5000 -0.0000
C31_5 C 0.5832(2) 0.5217(3) 0.01279(3)
C32_5 C 0.6643(2) 0.5205(3) 0.01265(3)
C33_5 C 0.7100(2) 0.5417(3) 0.02601(3)
C34_5 C 0.7926(2) 0.5849(3) 0.05113(3)
C35_5 C 0.7357(2) 0.5278(3) 0.05174(4)
H19_5 H 0.7243 0.5044 0.0606
C36_7 C 0.5417(3) 0.5000 -0.0000
C37_5 C 0.5383(2) 0.5473(3) 0.02507(3)
H20_5 H 0.5641 0.5647 0.0334
C38_5 C 0.7678(2) 0.5948(3) 0.02527(3)
H21_5 H 0.7800 0.6172 0.0163
C39_5 C 0.6958(2) 0.5054(3) 0.03937(4)
H22_4 H 0.6594 0.4659 0.0399
C40_5 C 0.8085(3) 0.6161(4) 0.03755(4)
H23_5 H 0.8479 0.6525 0.0367
C1_5 C 0.13311(19) 0.3682(2) 0.91034(3)
C2_5 C 0.1796(2) 0.4033(3) 0.92222(3)
H1_5 H 0.2192 0.4374 0.9198
C3_5 C 0.1661(2) 0.3874(3) 0.93612(3)
H2_5 H 0.1249 0.3541 0.9380
C4_8 C 0.2981(3) 0.5000 1.0000
H3_8 H 0.2443 0.5000 1.0000
C5_5 C 0.4168(2) 0.4783(3) 0.98721(3)
C6_5 C 0.3357(2) 0.4795(3) 0.98735(3)
C7_5 C 0.2900(2) 0.4583(3) 0.97399(3)
C8_5 C 0.2074(2) 0.4151(3) 0.94887(3)
C9_5 C 0.2643(2) 0.4722(3) 0.94826(4)
H4_5 H 0.2757 0.4956 0.9394
C10_8 C 0.4583(3) 0.5000 1.0000
C11_5 C 0.4617(2) 0.4527(3) 0.97493(3)
H5_5 H 0.4359 0.4353 0.9666
C12_5 C 0.2322(2) 0.4052(3) 0.97473(3)
H6_5 H 0.2200 0.3828 0.9837
C13_5 C 0.3042(2) 0.4946(3) 0.96063(4)
H7_4 H 0.3406 0.5341 0.9601
C14_5 C 0.1915(3) 0.3839(4) 0.96245(4)
H8_5 H 0.1521 0.3475 0.9633
C30_8 C 0.7019(3) 0.5000 1.0000
H18_8 H 0.7557 0.5000 1.0000
C36_8 C 0.5417(3) 0.5000 1.0000
C41_5 C 0.86689(19) 0.3682(2) 0.91034(3)
C42_5 C 0.8204(2) 0.4033(3) 0.92222(3)
H24_5 H 0.7808 0.4374 0.9198
C43_5 C 0.8339(2) 0.3874(3) 0.93612(3)
H25_5 H 0.8751 0.3541 0.9380
C44_5 C 0.5832(2) 0.4783(3) 0.98721(3)
C45_5 C 0.6643(2) 0.4795(3) 0.98735(3)
C46_5 C 0.7100(2) 0.4583(3) 0.97399(3)
C47_5 C 0.7926(2) 0.4151(3) 0.94887(3)
C48_5 C 0.7357(2) 0.4722(3) 0.94826(4)
H26_5 H 0.7243 0.4956 0.9394
C49_5 C 0.5383(2) 0.4527(3) 0.97493(3)
H27_5 H 0.5641 0.4353 0.9666
C50_5 C 0.7678(2) 0.4052(3) 0.97473(3)
H28_5 H 0.7800 0.3828 0.9837
C51_5 C 0.6958(2) 0.4946(3) 0.96063(4)
H29_4 H 0.6594 0.5341 0.9601
C52_5 C 0.8085(3) 0.3839(4) 0.96245(4)
H30_5 H 0.8479 0.3475 0.9633
O13_5 O 0.22861(15) 0.14959(18) 0.87358(2)
O16_5 O 0.10041(18) 0.02139(15) 0.87642(2)
C1_6 C 0.36689(19) 0.6318(2) 0.41034(3)
C2_6 C 0.3204(2) 0.5967(3) 0.42222(3)
H1_6 H 0.2808 0.5626 0.4198
C3_6 C 0.3339(2) 0.6126(3) 0.43612(3)
H2_6 H 0.3751 0.6459 0.4380
C4_9 C 0.2019(3) 0.5000 0.5000
H3_9 H 0.2557 0.5000 0.5000
C5_6 C 0.0832(2) 0.5217(3) 0.48721(3)
C6_6 C 0.1643(2) 0.5205(3) 0.48735(3)
C7_6 C 0.2100(2) 0.5417(3) 0.47399(3)
C8_6 C 0.2926(2) 0.5849(3) 0.44887(3)
C9_6 C 0.2357(2) 0.5278(3) 0.44826(4)
H4_6 H 0.2243 0.5044 0.4394
C10_9 C 0.0417(3) 0.5000 0.5000
C11_6 C 0.0383(2) 0.5473(3) 0.47493(3)
H5_6 H 0.0641 0.5647 0.4666
C12_6 C 0.2678(2) 0.5948(3) 0.47473(3)
H6_6 H 0.2800 0.6172 0.4837
C13_6 C 0.1958(2) 0.5054(3) 0.46063(4)
H7_5 H 0.1594 0.4659 0.4601
C14_6 C 0.3085(3) 0.6161(4) 0.46245(4)
H8_6 H 0.3479 0.6525 0.4633
C15_6 C 0.36689(19) 0.3682(2) 0.58966(3)
C16_6 C 0.3204(2) 0.4033(3) 0.57778(3)
H9_6 H 0.2808 0.4374 0.5802
C17_6 C 0.3339(2) 0.3874(3) 0.56388(3)
H10_6 H 0.3751 0.3541 0.5620
C18_6 C 0.0832(2) 0.4783(3) 0.51279(3)
C19_6 C 0.1643(2) 0.4795(3) 0.51265(3)
C20_6 C 0.2100(2) 0.4583(3) 0.52601(3)
C21_6 C 0.2926(2) 0.4151(3) 0.55113(3)
C22_6 C 0.2357(2) 0.4722(3) 0.55174(4)
H11_6 H 0.2243 0.4956 0.5606
C23_6 C 0.0383(2) 0.4527(3) 0.52507(3)
H12_6 H 0.0641 0.4353 0.5334
C24_6 C 0.2678(2) 0.4052(3) 0.52527(3)
H13_6 H 0.2800 0.3828 0.5163
C25_6 C 0.1958(2) 0.4946(3) 0.53937(4)
H14_5 H 0.1594 0.5341 0.5399
C26_6 C 0.3085(3) 0.3839(4) 0.53755(4)
H15_6 H 0.3479 0.3475 0.5367
O13_6 O 0.27139(15) 0.85041(18) 0.37358(2)
O16_6 O 0.39959(18) 0.97861(15) 0.37642(2)
C27_6 C 0.63311(19) 0.3682(2) 0.58966(3)
C28_6 C 0.6796(2) 0.4033(3) 0.57778(3)
H16_6 H 0.7192 0.4374 0.5802
C29_6 C 0.6661(2) 0.3874(3) 0.56388(3)
H17_6 H 0.6249 0.3541 0.5620
C30_9 C 0.7981(3) 0.5000 0.5000
H18_9 H 0.7443 0.5000 0.5000
C31_6 C 0.9168(2) 0.4783(3) 0.51279(3)
C32_6 C 0.8357(2) 0.4795(3) 0.51265(3)
C33_6 C 0.7900(2) 0.4583(3) 0.52601(3)
C34_6 C 0.7074(2) 0.4151(3) 0.55113(3)
C35_6 C 0.7643(2) 0.4722(3) 0.55174(4)
H19_6 H 0.7757 0.4956 0.5606
C36_9 C 0.9583(3) 0.5000 0.5000
C37_6 C 0.9617(2) 0.4527(3) 0.52507(3)
H20_6 H 0.9359 0.4353 0.5334
C38_6 C 0.7322(2) 0.4052(3) 0.52527(3)
H21_6 H 0.7200 0.3828 0.5163
C39_6 C 0.8042(2) 0.4946(3) 0.53937(4)
H22_5 H 0.8406 0.5341 0.5399
C40_6 C 0.6915(3) 0.3839(4) 0.53755(4)
H23_6 H 0.6521 0.3475 0.5367
C41_6 C 0.63311(19) 0.6318(2) 0.41034(3)
C42_6 C 0.6796(2) 0.5967(3) 0.42222(3)
H24_6 H 0.7192 0.5626 0.4198
C43_6 C 0.6661(2) 0.6126(3) 0.43612(3)
H25_6 H 0.6249 0.6459 0.4380
C44_6 C 0.9168(2) 0.5217(3) 0.48721(3)
C45_6 C 0.8357(2) 0.5205(3) 0.48735(3)
C46_6 C 0.7900(2) 0.5417(3) 0.47399(3)
C47_6 C 0.7074(2) 0.5849(3) 0.44887(3)
C48_6 C 0.7643(2) 0.5278(3) 0.44826(4)
H26_6 H 0.7757 0.5044 0.4394
C49_6 C 0.9617(2) 0.5473(3) 0.47493(3)
H27_6 H 0.9359 0.5647 0.4666
C50_6 C 0.7322(2) 0.5948(3) 0.47473(3)
H28_6 H 0.7200 0.6172 0.4837
C51_6 C 0.8042(2) 0.5054(3) 0.46063(4)
H29_5 H 0.8406 0.4659 0.4601
C52_6 C 0.6915(3) 0.6161(4) 0.46245(4)
H30_6 H 0.6521 0.6525 0.4633
O13_7 O 0.10041(18) 0.97861(15) 0.12358(2)
O16_7 O 0.22861(15) 0.85041(18) 0.12642(2)
C4_10 C 0.7500 0.0481(3) 0.2500
C5_7 C 0.7717(3) 0.1668(2) 0.23721(3)
C6_7 C 0.7705(3) 0.0857(2) 0.23735(3)
C7_7 C 0.7917(3) 0.0400(2) 0.22399(3)
C9_7 C 0.7778(3) 0.0143(2) 0.19826(4)
H4_7 H 0.7544 0.0257 0.1894
C10_10 C 0.7500 0.2083(3) 0.2500
C11_7 C 0.7973(3) 0.2117(2) 0.22493(3)
H5_7 H 0.8147 0.1859 0.2166
C13_7 C 0.7554(3) 0.0542(2) 0.21063(4)
H7_6 H 0.7159 0.0906 0.2101
C18_7 C 0.7283(3) 0.1668(2) 0.26279(3)
C19_7 C 0.7295(3) 0.0857(2) 0.26265(3)
C20_7 C 0.7083(3) 0.0400(2) 0.27601(3)
C22_7 C 0.7222(3) 0.0143(2) 0.30174(4)
H11_7 H 0.7456 0.0257 0.3106
C23_7 C 0.7027(3) 0.2117(2) 0.27507(3)
H12_7 H 0.6853 0.1859 0.2834
C25_7 C 0.7446(3) 0.0542(2) 0.28937(4)
H14_6 H 0.7841 0.0906 0.2899
C27_7 C 0.6182(2) 0.61689(19) 0.33966(3)
C28_7 C 0.6533(3) 0.5704(2) 0.32778(3)
H16_7 H 0.6874 0.5308 0.3302
C29_7 C 0.6374(3) 0.5839(2) 0.31388(3)
H17_7 H 0.6041 0.6251 0.3120
C30_10 C 0.7500 0.4519(3) 0.2500
H18_10 H 0.7500 0.5057 0.2500
C31_7 C 0.7283(3) 0.3332(2) 0.26279(3)
C32_7 C 0.7295(3) 0.4143(2) 0.26265(3)
C33_7 C 0.7083(3) 0.4600(2) 0.27601(3)
C34_7 C 0.6651(3) 0.5426(2) 0.30113(3)
C35_7 C 0.7222(3) 0.4857(2) 0.30174(4)
H19_7 H 0.7456 0.4743 0.3106
C36_10 C 0.7500 0.2917(3) 0.2500
C37_7 C 0.7027(3) 0.2883(2) 0.27507(3)
H20_7 H 0.6853 0.3141 0.2834
C38_7 C 0.6552(3) 0.5178(2) 0.27527(3)
H21_7 H 0.6328 0.5300 0.2663
C39_7 C 0.7446(3) 0.4458(2) 0.28937(4)
H22_6 H 0.7841 0.4094 0.2899
C40_7 C 0.6339(4) 0.5585(3) 0.28755(4)
H23_7 H 0.5975 0.5979 0.2867
C41_7 C 0.8818(2) 0.61689(19) 0.16034(3)
C42_7 C 0.8467(3) 0.5704(2) 0.17222(3)
H24_7 H 0.8126 0.5308 0.1698
C43_7 C 0.8626(3) 0.5839(2) 0.18612(3)
H25_7 H 0.8959 0.6251 0.1880
C44_7 C 0.7717(3) 0.3332(2) 0.23721(3)
C45_7 C 0.7705(3) 0.4143(2) 0.23735(3)
C46_7 C 0.7917(3) 0.4600(2) 0.22399(3)
C47_7 C 0.8349(3) 0.5426(2) 0.19887(3)
C48_7 C 0.7778(3) 0.4857(2) 0.19826(4)
H26_7 H 0.7544 0.4743 0.1894
C49_7 C 0.7973(3) 0.2883(2) 0.22493(3)
H27_7 H 0.8147 0.3141 0.2166
C50_7 C 0.8448(3) 0.5178(2) 0.22473(3)
H28_7 H 0.8672 0.5300 0.2337
C51_7 C 0.7554(3) 0.4458(2) 0.21063(4)
H29_6 H 0.7159 0.4094 0.2101
C52_7 C 0.8661(4) 0.5585(3) 0.21245(4)
H30_7 H 0.9025 0.5979 0.2133
C1_7 C 0.8818(2) 0.88311(19) 0.16034(3)
C2_7 C 0.8467(3) 0.9296(2) 0.17222(3)
H1_7 H 0.8126 0.9692 0.1698
C3_7 C 0.8626(3) 0.9161(2) 0.18612(3)
H2_7 H 0.8959 0.8749 0.1880
H3_10 H 0.7500 0.9943 0.2500
C8_7 C 0.8349(3) 0.9574(2) 0.19887(3)
C12_7 C 0.8448(3) 0.9822(2) 0.22473(3)
H6_7 H 0.8672 0.9700 0.2337
C14_7 C 0.8661(4) 0.9415(3) 0.21245(4)
H8_7 H 0.9025 0.9021 0.2133
C15_7 C 0.6182(2) 0.88311(19) 0.33966(3)
C16_7 C 0.6533(3) 0.9296(2) 0.32778(3)
H9_7 H 0.6874 0.9692 0.3302
C17_7 C 0.6374(3) 0.9161(2) 0.31388(3)
H10_7 H 0.6041 0.8749 0.3120
C21_7 C 0.6651(3) 0.9574(2) 0.30113(3)
C24_7 C 0.6552(3) 0.9822(2) 0.27527(3)
H13_7 H 0.6328 0.9700 0.2663
C26_7 C 0.6339(4) 0.9415(3) 0.28755(4)
H15_7 H 0.5975 0.9021 0.2867
C1_8 C 0.6182(2) 0.11689(19) 0.66034(3)
C2_8 C 0.6533(3) 0.0704(2) 0.67222(3)
H1_8 H 0.6874 0.0308 0.6698
C3_8 C 0.6374(3) 0.0839(2) 0.68612(3)
H2_8 H 0.6041 0.1251 0.6880
H3_11 H 0.7500 0.0057 0.7500
C8_8 C 0.6651(3) 0.0426(2) 0.69887(3)
C12_8 C 0.6552(3) 0.0178(2) 0.72473(3)
H6_8 H 0.6328 0.0300 0.7337
C14_8 C 0.6339(4) 0.0585(3) 0.71245(4)
H8_8 H 0.5975 0.0979 0.7133
C15_8 C 0.8818(2) 0.11689(19) 0.83966(3)
C16_8 C 0.8467(3) 0.0704(2) 0.82778(3)
H9_8 H 0.8126 0.0308 0.8302
C17_8 C 0.8626(3) 0.0839(2) 0.81388(3)
H10_8 H 0.8959 0.1251 0.8120
C21_8 C 0.8349(3) 0.0426(2) 0.80113(3)
C24_8 C 0.8448(3) 0.0178(2) 0.77527(3)
H13_8 H 0.8672 0.0300 0.7663
C26_8 C 0.8661(4) 0.0585(3) 0.78755(4)
H15_8 H 0.9025 0.0979 0.7867
O13_8 O 0.39959(18) 0.02139(15) 0.62358(2)
O16_8 O 0.27139(15) 0.14959(18) 0.62642(2)
C4_11 C 0.7500 0.9519(3) 0.7500
C5_8 C 0.7283(3) 0.8332(2) 0.73721(3)
C6_8 C 0.7295(3) 0.9143(2) 0.73735(3)
C7_8 C 0.7083(3) 0.9600(2) 0.72399(3)
C9_8 C 0.7222(3) 0.9857(2) 0.69826(4)
H4_8 H 0.7456 0.9743 0.6894
C10_11 C 0.7500 0.7917(3) 0.7500
C11_8 C 0.7027(3) 0.7883(2) 0.72493(3)
H5_8 H 0.6853 0.8141 0.7166
C13_8 C 0.7446(3) 0.9458(2) 0.71063(4)
H7_7 H 0.7841 0.9094 0.7101
C18_8 C 0.7717(3) 0.8332(2) 0.76279(3)
C19_8 C 0.7705(3) 0.9143(2) 0.76265(3)
C20_8 C 0.7917(3) 0.9600(2) 0.77601(3)
C22_8 C 0.7778(3) 0.9857(2) 0.80174(4)
H11_8 H 0.7544 0.9743 0.8106
C23_8 C 0.7973(3) 0.7883(2) 0.77507(3)
H12_8 H 0.8147 0.8141 0.7834
C25_8 C 0.7554(3) 0.9458(2) 0.78937(4)
H14_7 H 0.7159 0.9094 0.7899
C27_8 C 0.8818(2) 0.38311(19) 0.83966(3)
C28_8 C 0.8467(3) 0.4296(2) 0.82778(3)
H16_8 H 0.8126 0.4692 0.8302
C29_8 C 0.8626(3) 0.4161(2) 0.81388(3)
H17_8 H 0.8959 0.3749 0.8120
C30_11 C 0.7500 0.5481(3) 0.7500
H18_11 H 0.7500 0.4943 0.7500
C31_8 C 0.7717(3) 0.6668(2) 0.76279(3)
C32_8 C 0.7705(3) 0.5857(2) 0.76265(3)
C33_8 C 0.7917(3) 0.5400(2) 0.77601(3)
C34_8 C 0.8349(3) 0.4574(2) 0.80113(3)
C35_8 C 0.7778(3) 0.5143(2) 0.80174(4)
H19_8 H 0.7544 0.5257 0.8106
C36_11 C 0.7500 0.7083(3) 0.7500
C37_8 C 0.7973(3) 0.7117(2) 0.77507(3)
H20_8 H 0.8147 0.6859 0.7834
C38_8 C 0.8448(3) 0.4822(2) 0.77527(3)
H21_8 H 0.8672 0.4700 0.7663
C39_8 C 0.7554(3) 0.5542(2) 0.78937(4)
H22_7 H 0.7159 0.5906 0.7899
C40_8 C 0.8661(4) 0.4415(3) 0.78755(4)
H23_8 H 0.9025 0.4021 0.7867
C41_8 C 0.6182(2) 0.38311(19) 0.66034(3)
C42_8 C 0.6533(3) 0.4296(2) 0.67222(3)
H24_8 H 0.6874 0.4692 0.6698
C43_8 C 0.6374(3) 0.4161(2) 0.68612(3)
H25_8 H 0.6041 0.3749 0.6880
C44_8 C 0.7283(3) 0.6668(2) 0.73721(3)
C45_8 C 0.7295(3) 0.5857(2) 0.73735(3)
C46_8 C 0.7083(3) 0.5400(2) 0.72399(3)
C47_8 C 0.6651(3) 0.4574(2) 0.69887(3)
C48_8 C 0.7222(3) 0.5143(2) 0.69826(4)
H26_8 H 0.7456 0.5257 0.6894
C49_8 C 0.7027(3) 0.7117(2) 0.72493(3)
H27_8 H 0.6853 0.6859 0.7166
C50_8 C 0.6552(3) 0.4822(2) 0.72473(3)
H28_8 H 0.6328 0.4700 0.7337
C51_8 C 0.7446(3) 0.5542(2) 0.71063(4)
H29_7 H 0.7841 0.5906 0.7101
C52_8 C 0.6339(4) 0.4415(3) 0.71245(4)
H30_8 H 0.5975 0.4021 0.7133
C4_12 C 0.7019(3) 0.0000 -0.0000
H3_12 H 0.7557 0.0000 -0.0000
C10_12 C 0.5417(3) 0.0000 -0.0000
H14_8 H 0.6594 0.0341 0.0399
C30_12 C 0.2981(3) 0.0000 -0.0000
H18_12 H 0.2443 0.0000 -0.0000
C36_12 C 0.4583(3) 0.0000 -0.0000
H22_8 H 0.3406 0.0341 0.0399
C4_13 C 0.7019(3) 1.0000 1.0000
H3_13 H 0.7557 1.0000 1.0000
C10_13 C 0.5417(3) 1.0000 1.0000
H7_8 H 0.6594 0.9659 0.9601
C30_13 C 0.2981(3) 1.0000 1.0000
H18_13 H 0.2443 1.0000 1.0000
C36_13 C 0.4583(3) 1.0000 1.0000
H29_8 H 0.3406 0.9659 0.9601
H34 H 0.143521 0.999504 0.870543
H36 H 0.88692 0.998873 0.866722
H34_2 H 0.356479 0.000495515 0.370543
H36_2 H 0.61308 0.00112746 0.366722
H34_3 H 0.356479 0.999504 0.629457
H36_3 H 0.61308 0.998873 0.633278
H34_4 H 0.143521 0.000495515 0.129457
H36_4 H 0.88692 0.00112746 0.133278
H36_5 H 0.11308 0.00112746 0.133278
H34_5 H 0.856479 0.000495515 0.129457
H34_6 H 0.643521 0.999504 0.629457
H36_6 H 0.38692 0.998873 0.633278
H34_7 H 0.643521 0.000495515 0.370543
H36_7 H 0.38692 0.00112746 0.366722
H36_8 H 0.11308 0.998873 0.866722
H34_8 H 0.856479 0.999504 0.870543
loop_
_geom_bond_atom_site_label_1
_geom_bond_atom_site_label_2
_geom_bond_site_symmetry_1
_geom_bond_site_symmetry_2
O8 C27 1_555 1_555
O9 C27 1_555 1_555
C27 C28 1_555 1_555
C28 H16 1_555 1_555
C29 C28 1_555 1_555
H17 C29 1_555 1_555
C30 H18 1_555 1_555
C31 C32 1_555 1_555
C32 C30 1_555 1_555
C33 C32 1_555 1_555
C34 C29 1_555 1_555
C35 C34 1_555 1_555
H19 C35 1_555 1_555
H20 C37 1_555 1_555
C38 C33 1_555 1_555
H21 C38 1_555 1_555
C39 C33 1_555 1_555
C40 C34 1_555 1_555
H23 C40 1_555 1_555
Zr6 O8 1_555 1_555
Zr11 O9 1_555 1_555
C31 C36 1_555 1_555
C31 C37 1_555 1_555
C35 C39 1_555 1_555
C38 C40 1_555 1_555
C30_2 H18_2 1_555 1_555
O10 C41 1_555 1_555
O11 C41 1_555 1_555
C41 C42 1_555 1_555
C42 H24 1_555 1_555
C43 C42 1_555 1_555
H25 C43 1_555 1_555
C44 C36_2 1_555 1_555
C45 C30_2 1_555 1_555
C46 C45 1_555 1_555
C47 C43 1_555 1_555
C48 C47 1_555 1_555
H26 C48 1_555 1_555
H27 C49 1_555 1_555
C50 C46 1_555 1_555
H28 C50 1_555 1_555
C51 C46 1_555 1_555
C52 C47 1_555 1_555
H30 C52 1_555 1_555
Zr4 O10 1_555 1_555
Zr10 O11 1_555 1_555
C44 C45 1_555 1_555
C44 C49 1_555 1_555
C48 C51 1_555 1_555
C50 C52 1_555 1_555
C4 H3 1_555 1_555
O6 C15 1_555 1_555
O7 C15 1_555 1_555
C15 C16 1_555 1_555
C16 H9 1_555 1_555
C17 C16 1_555 1_555
H10 C17 1_555 1_555
C18 C10 1_555 1_555
C19 C4 1_555 1_555
C20 C19 1_555 1_555
C21 C17 1_555 1_555
C22 C21 1_555 1_555
H11 C22 1_555 1_555
C23 C18 1_555 1_555
H12 C23 1_555 1_555
C24 C20 1_555 1_555
H13 C24 1_555 1_555
C25 C20 1_555 1_555
C26 C21 1_555 1_555
H15 C26 1_555 1_555
Zr6 O6 1_555 1_555
Zr7 O7 1_555 1_555
C18 C19 1_555 1_555
C22 C25 1_555 1_555
C24 C26 1_555 1_555
Zr4 O1 1_555 1_555
Zr2 O1 1_555 1_555
O1 Zr10 1_555 1_555
O2 Zr4 1_555 1_555
O3 Zr4 1_555 1_555
O4 C1 1_555 1_555
O5 Zr2 1_555 1_555
C1 O3 1_555 1_555
C2 C1 1_555 1_555
H1 C2 1_555 1_555
C3 C2 1_555 1_555
H2 C3 1_555 1_555
C4_2 H3_2 1_555 1_555
C5 C6 1_555 1_555
C6 C4_2 1_555 1_555
C7 C6 1_555 1_555
C8 C3 1_555 1_555
C9 C8 1_555 1_555
H4 C9 1_555 1_555
C10_2 C5 1_555 1_555
C11 C5 1_555 1_555
H5 C11 1_555 1_555
C12 C7 1_555 1_555
H6 C12 1_555 1_555
C13 C7 1_555 1_555
C14 C8 1_555 1_555
H8 C14 1_555 1_555
Zr3 O2 1_555 1_555
O12 Zr4 1_555 1_555
O13 Zr3 1_555 1_555
O14 Zr4 1_555 1_555
O15 Zr2 1_555 1_555
O16 Zr3 1_555 1_555
Zr8 O4 1_555 1_555
Zr10 O14 1_555 1_555
O17 Zr2 1_555 1_555
O18 Zr3 1_555 1_555
O19 Zr2 1_555 1_555
O20 Zr4 1_555 1_555
O22 Zr4 1_555 1_555
O23 Zr2 1_555 1_555
O24 Zr2 1_555 1_555
O25 Zr3 1_555 1_555
O26 Zr3 1_555 1_555
Zr2 O2 1_555 1_555
C9 C13 1_555 1_555
C12 C14 1_555 1_555
Zr3 O12 1_555 1_555
Zr3 O17 1_555 1_555
O12 Zr8 1_555 1_555
O14 Zr8 1_555 1_555
Zr8 O18 1_555 1_555
Zr10 O19 1_555 1_555
Zr1 O1_2 1_555 1_555
Zr2_2 O1_2 1_555 1_555
O1_2 Zr9 1_555 1_555
O2_2 Zr1 1_555 1_555
O5_2 Zr2_2 1_555 1_555
O14_2 Zr1 1_555 1_555
O15_2 Zr2_2 1_555 1_555
Zr9 O14_2 1_555 1_555
O17_2 Zr2_2 1_555 1_555
O19_2 Zr2_2 1_555 1_555
O20_2 Zr1 1_555 1_555
O21 Zr1 1_555 1_555
O23_2 Zr2_2 1_555 1_555
O24_2 Zr2_2 1_555 1_555
Zr2_2 O2_2 1_555 1_555
Zr9 O19_2 1_555 1_555
O2_3 Zr1_2 1_555 1_555
O3_2 Zr1_2 1_555 1_555
O4_2 C1_2 1_555 1_555
C1_2 O3_2 1_555 1_555
C2_2 C1_2 1_555 1_555
H1_2 C2_2 1_555 1_555
C3_2 C2_2 1_555 1_555
H2_2 C3_2 1_555 1_555
C4_3 H3_3 1_555 1_555
C5_2 C6_2 1_555 1_555
C6_2 C4_3 1_555 1_555
C7_2 C6_2 1_555 1_555
C8_2 C3_2 1_555 1_555
C9_2 C8_2 1_555 1_555
H4_2 C9_2 1_555 1_555
C10_3 C5_2 1_555 1_555
C11_2 C5_2 1_555 1_555
H5_2 C11_2 1_555 1_555
C12_2 C7_2 1_555 1_555
H6_2 C12_2 1_555 1_555
C13_2 C7_2 1_555 1_555
C14_2 C8_2 1_555 1_555
H8_2 C14_2 1_555 1_555
C30_3 H18_3 1_555 1_555
C36_3 C10_3 1_555 1_555
O21 C41_2 1_555 1_555
O11_2 C41_2 1_555 1_555
C41_2 C42_2 1_555 1_555
C42_2 H24_2 1_555 1_555
C43_2 C42_2 1_555 1_555
H25_2 C43_2 1_555 1_555
C44_2 C36_3 1_555 1_555
C45_2 C30_3 1_555 1_555
C46_2 C45_2 1_555 1_555
C47_2 C43_2 1_555 1_555
C48_2 C47_2 1_555 1_555
H26_2 C48_2 1_555 1_555
C49_2 C11_2 1_555 1_555
H27_2 C49_2 1_555 1_555
C50_2 C46_2 1_555 1_555
H28_2 C50_2 1_555 1_555
C51_2 C46_2 1_555 1_555
C52_2 C47_2 1_555 1_555
H30_2 C52_2 1_555 1_555
Zr3_2 O2_3 1_555 1_555
O12_2 Zr1_2 1_555 1_555
O13_2 Zr3_2 1_555 1_555
O14_3 Zr1_2 1_555 1_555
O16_2 Zr3_2 1_555 1_555
Zr8_2 O4_2 1_555 1_555
Zr9 O11_2 1_555 1_555
O18_2 Zr3_2 1_555 1_555
O22_2 Zr1_2 1_555 1_555
O25_2 Zr3_2 1_555 1_555
O26_2 Zr3_2 1_555 1_555
C9_2 C13_2 1_555 1_555
C12_2 C14_2 1_555 1_555
C44_2 C45_2 1_555 1_555
C44_2 C49_2 1_555 1_555
C48_2 C51_2 1_555 1_555
C50_2 C52_2 1_555 1_555
Zr3_2 O12_2 1_555 1_555
Zr3_2 O17_3 1_555 1_555
O12_2 Zr8_2 1_555 1_555
O14_3 Zr8_2 1_555 1_555
Zr8_2 O18_2 1_555 1_555
C4_4 H3_4 1_555 1_555
O6_2 C15_2 1_555 1_555
O7_2 C15_2 1_555 1_555
C15_2 C16_2 1_555 1_555
C16_2 H9_2 1_555 1_555
C17_2 C16_2 1_555 1_555
H10_2 C17_2 1_555 1_555
C18_2 C10_4 1_555 1_555
C19_2 C4_4 1_555 1_555
C20_2 C19_2 1_555 1_555
C21_2 C17_2 1_555 1_555
C22_2 C21_2 1_555 1_555
H11_2 C22_2 1_555 1_555
C23_2 C18_2 1_555 1_555
H12_2 C23_2 1_555 1_555
C24_2 C20_2 1_555 1_555
H13_2 C24_2 1_555 1_555
C25_2 C20_2 1_555 1_555
C26_2 C21_2 1_555 1_555
H15_2 C26_2 1_555 1_555
O8_2 C27_2 1_555 1_555
O9_2 C27_2 1_555 1_555
C27_2 C28_2 1_555 1_555
C28_2 H16_2 1_555 1_555
C29_2 C28_2 1_555 1_555
H17_2 C29_2 1_555 1_555
C30_4 H18_4 1_555 1_555
C31_2 C32_2 1_555 1_555
C32_2 C30_4 1_555 1_555
C33_2 C32_2 1_555 1_555
C34_2 C29_2 1_555 1_555
C35_2 C34_2 1_555 1_555
H19_2 C35_2 1_555 1_555
C36_4 C10_4 1_555 1_555
C37_2 C23_2 1_555 1_555
H20_2 C37_2 1_555 1_555
C38_2 C33_2 1_555 1_555
H21_2 C38_2 1_555 1_555
C39_2 C33_2 1_555 1_555
C40_2 C34_2 1_555 1_555
H23_2 C40_2 1_555 1_555
Zr5_2 O6_2 1_555 1_555
Zr5 O8_2 1_555 1_555
Zr7_2 O7_2 1_555 1_555
Zr11_2 O9_2 1_555 1_555
C18_2 C19_2 1_555 1_555
C22_2 C25_2 1_555 1_555
C24_2 C26_2 1_555 1_555
C31_2 C36_4 1_555 1_555
C31_2 C37_2 1_555 1_555
C35_2 C39_2 1_555 1_555
C38_2 C40_2 1_555 1_555
O8_3 C27_3 1_555 1_555
O9_3 C27_3 1_555 1_555
C27_3 C28_3 1_555 1_555
C28_3 H16_3 1_555 1_555
C29_3 C28_3 1_555 1_555
H17_3 C29_3 1_555 1_555
C34_3 C29_3 1_555 1_555
H21_3 C38_3 1_555 1_555
C40_3 C34_3 1_555 1_555
H23_3 C40_3 1_555 1_555
O10_2 C41_3 1_555 1_555
O11_3 C41_3 1_555 1_555
C41_3 C42_3 1_555 1_555
C42_3 H24_3 1_555 1_555
C43_3 C42_3 1_555 1_555
H25_3 C43_3 1_555 1_555
C47_3 C43_3 1_555 1_555
H28_3 C50_3 1_555 1_555
C52_3 C47_3 1_555 1_555
H30_3 C52_3 1_555 1_555
Zr4_2 O10_2 1_555 1_555
Zr6_2 O8_3 1_555 1_555
Zr11 O11_3 1_555 1_555
Zr9 O9_3 1_555 1_555
C38_3 C40_3 1_555 1_555
C50_3 C52_3 1_555 1_555
Zr4_2 O1_3 1_555 1_555
Zr7 O1_3 1_555 1_555
O1_3 Zr11 1_555 1_555
O2_4 Zr4_2 1_555 1_555
O3_3 Zr4_2 1_555 1_555
O4_3 C1_3 1_555 1_555
O5_3 Zr7 1_555 1_555
C1_3 O3_3 1_555 1_555
C2_3 C1_3 1_555 1_555
H1_3 C2_3 1_555 1_555
C3_3 C2_3 1_555 1_555
H2_3 C3_3 1_555 1_555
C4_5 H3_5 1_555 1_555
C5_3 C6_3 1_555 1_555
C6_3 C4_5 1_555 1_555
C7_3 C6_3 1_555 1_555
C8_3 C3_3 1_555 1_555
C9_3 C8_3 1_555 1_555
H4_3 C9_3 1_555 1_555
C10_5 C5_3 1_555 1_555
C11_3 C5_3 1_555 1_555
H5_3 C11_3 1_555 1_555
C12_3 C7_3 1_555 1_555
H6_3 C12_3 1_555 1_555
C13_3 C7_3 1_555 1_555
H7_2 C13_3 1_555 1_555
C14_3 C8_3 1_555 1_555
H8_3 C14_3 1_555 1_555
O6_3 C15_3 1_555 1_555
O23_2 C15_3 1_555 1_555
C15_3 C16_3 1_555 1_555
C16_3 H9_3 1_555 1_555
C17_3 C16_3 1_555 1_555
H10_3 C17_3 1_555 1_555
C18_3 C10_5 1_555 1_555
C19_3 C4_5 1_555 1_555
C20_3 C19_3 1_555 1_555
C21_3 C17_3 1_555 1_555
C22_3 C21_3 1_555 1_555
H11_3 C22_3 1_555 1_555
C23_3 C18_3 1_555 1_555
H12_3 C23_3 1_555 1_555
C24_3 C20_3 1_555 1_555
H13_3 C24_3 1_555 1_555
C25_3 C20_3 1_555 1_555
H14_2 C25_3 1_555 1_555
C26_3 C21_3 1_555 1_555
H15_3 C26_3 1_555 1_555
C31_3 C32_3 1_555 1_555
C32_3 C30_5 1_555 1_555
C33_3 C32_3 1_555 1_555
H19_3 C35_3 1_555 1_555
C36_5 C10_5 1_555 1_555
C37_3 C23_3 1_555 1_555
H20_3 C37_3 1_555 1_555
C39_3 C33_3 1_555 1_555
H22_2 C39_3 1_555 1_555
C44_3 C36_5 1_555 1_555
C45_3 C30_5 1_555 1_555
C46_3 C45_3 1_555 1_555
H26_3 C48_3 1_555 1_555
C49_3 C11_3 1_555 1_555
H27_3 C49_3 1_555 1_555
C51_3 C46_3 1_555 1_555
H29_2 C51_3 1_555 1_555
Zr3_3 O2_4 1_555 1_555
O12_3 Zr4_2 1_555 1_555
O13_3 Zr3_3 1_555 1_555
O14_4 Zr4_2 1_555 1_555
O15_3 Zr7 1_555 1_555
O16_3 Zr3_3 1_555 1_555
Zr6_2 O6_3 1_555 1_555
Zr8_3 O4_3 1_555 1_555
Zr11 O14_4 1_555 1_555
O17_4 Zr7 1_555 1_555
O18_3 Zr3_3 1_555 1_555
O19_3 Zr7 1_555 1_555
O20_3 Zr4_2 1_555 1_555
O22_3 Zr4_2 1_555 1_555
O24_3 Zr7 1_555 1_555
O25_3 Zr3_3 1_555 1_555
O26_3 Zr3_3 1_555 1_555
Zr7 O2_4 1_555 1_555
C9_3 C13_3 1_555 1_555
C12_3 C14_3 1_555 1_555
C18_3 C19_3 1_555 1_555
C22_3 C25_3 1_555 1_555
C24_3 C26_3 1_555 1_555
C31_3 C36_5 1_555 1_555
C31_3 C37_3 1_555 1_555
C35_3 C39_3 1_555 1_555
C44_3 C45_3 1_555 1_555
C44_3 C49_3 1_555 1_555
C48_3 C51_3 1_555 1_555
Zr3_3 O12_3 1_555 1_555
Zr3_3 O17_4 1_555 1_555
O12_3 Zr8_3 1_555 1_555
O14_4 Zr8_3 1_555 1_555
Zr8_3 O18_3 1_555 1_555
Zr11 O19_3 1_555 1_555
Zr1_3 O1_4 1_555 1_555
O1_4 Zr11_2 1_555 1_555
O3_4 Zr1_3 1_555 1_555
O4_4 C1_4 1_555 1_555
C1_4 O3_4 1_555 1_555
C2_4 C1_4 1_555 1_555
H1_4 C2_4 1_555 1_555
C3_4 C2_4 1_555 1_555
H2_4 C3_4 1_555 1_555
C4_6 H3_6 1_555 1_555
C5_4 C6_4 1_555 1_555
C6_4 C4_6 1_555 1_555
C7_4 C6_4 1_555 1_555
C8_4 C3_4 1_555 1_555
C9_4 C8_4 1_555 1_555
H4_4 C9_4 1_555 1_555
C10_6 C5_4 1_555 1_555
C11_4 C5_4 1_555 1_555
H5_4 C11_4 1_555 1_555
C12_4 C7_4 1_555 1_555
H6_4 C12_4 1_555 1_555
C13_4 C7_4 1_555 1_555
H7_3 C13_4 1_555 1_555
C14_4 C8_4 1_555 1_555
H8_4 C14_4 1_555 1_555
O6_4 C15_4 1_555 1_555
O23 C15_4 1_555 1_555
C15_4 C16_4 1_555 1_555
C16_4 H9_4 1_555 1_555
C17_4 C16_4 1_555 1_555
H10_4 C17_4 1_555 1_555
C18_4 C10_6 1_555 1_555
C19_4 C4_6 1_555 1_555
C20_4 C19_4 1_555 1_555
C21_4 C17_4 1_555 1_555
C22_4 C21_4 1_555 1_555
H11_4 C22_4 1_555 1_555
C23_4 C18_4 1_555 1_555
H12_4 C23_4 1_555 1_555
C24_4 C20_4 1_555 1_555
H13_4 C24_4 1_555 1_555
C25_4 C20_4 1_555 1_555
H14_3 C25_4 1_555 1_555
C26_4 C21_4 1_555 1_555
H15_4 C26_4 1_555 1_555
C31_4 C32_4 1_555 1_555
C32_4 C30_6 1_555 1_555
C33_4 C32_4 1_555 1_555
H19_4 C35_4 1_555 1_555
C36_6 C10_6 1_555 1_555
C37_4 C23_4 1_555 1_555
H20_4 C37_4 1_555 1_555
C39_4 C33_4 1_555 1_555
H22_3 C39_4 1_555 1_555
C44_4 C36_6 1_555 1_555
C45_4 C30_6 1_555 1_555
C46_4 C45_4 1_555 1_555
H26_4 C48_4 1_555 1_555
C49_4 C11_4 1_555 1_555
H27_4 C49_4 1_555 1_555
C51_4 C46_4 1_555 1_555
H29_3 C51_4 1_555 1_555
O12_4 Zr1_3 1_555 1_555
O14_5 Zr1_3 1_555 1_555
Zr5_3 O6_4 1_555 1_555
Zr8_4 O4_4 1_555 1_555
Zr11_2 O14_5 1_555 1_555
O21_2 Zr1_3 1_555 1_555
C9_4 C13_4 1_555 1_555
C12_4 C14_4 1_555 1_555
C18_4 C19_4 1_555 1_555
C22_4 C25_4 1_555 1_555
C24_4 C26_4 1_555 1_555
C31_4 C36_6 1_555 1_555
C31_4 C37_4 1_555 1_555
C35_4 C39_4 1_555 1_555
C44_4 C45_4 1_555 1_555
C44_4 C49_4 1_555 1_555
C48_4 C51_4 1_555 1_555
O12_4 Zr8_4 1_555 1_555
O14_5 Zr8_4 1_555 1_555
Zr8_4 O18_4 1_555 1_555
Zr11_2 O19_4 1_555 1_555
O8_4 C27_4 1_555 1_555
O9_4 C27_4 1_555 1_555
C27_4 C28_4 1_555 1_555
C28_4 H16_4 1_555 1_555
C29_4 C28_4 1_555 1_555
H17_4 C29_4 1_555 1_555
C34_4 C29_4 1_555 1_555
H21_4 C38_4 1_555 1_555
C40_4 C34_4 1_555 1_555
H23_4 C40_4 1_555 1_555
O21_2 C41_4 1_555 1_555
O11_4 C41_4 1_555 1_555
C41_4 C42_4 1_555 1_555
C42_4 H24_4 1_555 1_555
C43_4 C42_4 1_555 1_555
H25_4 C43_4 1_555 1_555
C47_4 C43_4 1_555 1_555
H28_4 C50_4 1_555 1_555
C52_4 C47_4 1_555 1_555
H30_4 C52_4 1_555 1_555
Zr5_3 O8_4 1_555 1_555
Zr11_2 O11_4 1_555 1_555
Zr10 O9_4 1_555 1_555
C38_4 C40_4 1_555 1_555
C50_4 C52_4 1_555 1_555
Zr1_4 O1_5 1_555 1_555
Zr7_2 O1_5 1_555 1_555
O2_5 Zr1_4 1_555 1_555
O5_4 Zr7_2 1_555 1_555
Zr3_4 O2_5 1_555 1_555
O12_5 Zr1_4 1_555 1_555
O13_4 Zr3_4 1_555 1_555
O15_4 Zr7_2 1_555 1_555
O16_4 Zr3_4 1_555 1_555
O17_5 Zr7_2 1_555 1_555
O18_5 Zr3_4 1_555 1_555
O19_5 Zr7_2 1_555 1_555
O20_4 Zr1_4 1_555 1_555
O22_4 Zr1_4 1_555 1_555
O24_4 Zr7_2 1_555 1_555
O25_4 Zr3_4 1_555 1_555
O26_4 Zr3_4 1_555 1_555
Zr7_2 O2_5 1_555 1_555
Zr3_4 O12_5 1_555 1_555
Zr3_4 O17_5 1_555 1_555
Zr5 O1_6 1_555 1_555
Zr8_4 O1_6 1_555 1_555
O1_6 Zr11_2 1_555 1_555
O18_4 Zr5 1_555 1_555
O5_5 Zr8_4 1_555 1_555
O19_4 Zr5 1_555 1_555
O15_5 Zr8_4 1_555 1_555
O20_5 Zr5 1_555 1_555
O24_5 Zr8_4 1_555 1_555
O18_5 Zr5_2 1_555 1_555
O17_5 Zr5_2 1_555 1_555
O19_5 Zr5_2 1_555 1_555
O22_5 Zr5_2 1_555 1_555
Zr6 O1_7 1_555 1_555
Zr8_3 O1_7 1_555 1_555
O1_7 Zr11 1_555 1_555
O18_3 Zr6 1_555 1_555
O5_6 Zr8_3 1_555 1_555
O17_4 Zr6 1_555 1_555
O19_3 Zr6 1_555 1_555
O15_6 Zr8_3 1_555 1_555
O20_6 Zr6 1_555 1_555
O22_6 Zr6 1_555 1_555
O24_6 Zr8_3 1_555 1_555
Zr6_2 O1_8 1_555 1_555
O1_8 Zr9 1_555 1_555
O17_2 Zr6_2 1_555 1_555
O19_2 Zr6_2 1_555 1_555
Zr6_3 O1_9 1_555 1_555
Zr8_2 O1_9 1_555 1_555
O18_2 Zr6_3 1_555 1_555
O5_7 Zr8_2 1_555 1_555
O17_3 Zr6_3 1_555 1_555
O15_7 Zr8_2 1_555 1_555
O20_7 Zr6_3 1_555 1_555
O22_7 Zr6_3 1_555 1_555
O24_7 Zr8_2 1_555 1_555
Zr5_3 O1_10 1_555 1_555
Zr8 O1_10 1_555 1_555
O1_10 Zr10 1_555 1_555
O18 Zr5_3 1_555 1_555
O5_8 Zr8 1_555 1_555
O17 Zr5_3 1_555 1_555
O19 Zr5_3 1_555 1_555
O15_8 Zr8 1_555 1_555
O20_8 Zr5_3 1_555 1_555
O22_8 Zr5_3 1_555 1_555
O24_8 Zr8 1_555 1_555
C4_7 H3_7 1_555 1_555
O20_5 C15_5 1_555 1_555
O24_5 C15_5 1_555 1_555
C15_5 C16_5 1_555 1_555
C16_5 H9_5 1_555 1_555
C17_5 C16_5 1_555 1_555
H10_5 C17_5 1_555 1_555
C18_5 C10_7 1_555 1_555
C19_5 C4_7 1_555 1_555
C20_5 C19_5 1_555 1_555
C21_5 C17_5 1_555 1_555
C22_5 C21_5 1_555 1_555
H11_5 C22_5 1_555 1_555
C23_5 C18_5 1_555 1_555
H12_5 C23_5 1_555 1_555
C24_5 C20_5 1_555 1_555
H13_5 C24_5 1_555 1_555
C25_5 C20_5 1_555 1_555
H14_4 C25_5 1_555 1_555
C26_5 C21_5 1_555 1_555
H15_5 C26_5 1_555 1_555
O22_5 C27_5 1_555 1_555
O25_4 C27_5 1_555 1_555
C27_5 C28_5 1_555 1_555
C28_5 H16_5 1_555 1_555
C29_5 C28_5 1_555 1_555
H17_5 C29_5 1_555 1_555
C30_7 H18_7 1_555 1_555
C31_5 C32_5 1_555 1_555
C32_5 C30_7 1_555 1_555
C33_5 C32_5 1_555 1_555
C34_5 C29_5 1_555 1_555
C35_5 C34_5 1_555 1_555
H19_5 C35_5 1_555 1_555
C36_7 C10_7 1_555 1_555
C37_5 C23_5 1_555 1_555
H20_5 C37_5 1_555 1_555
C38_5 C33_5 1_555 1_555
H21_5 C38_5 1_555 1_555
C39_5 C33_5 1_555 1_555
H22_4 C39_5 1_555 1_555
C40_5 C34_5 1_555 1_555
H23_5 C40_5 1_555 1_555
C18_5 C19_5 1_555 1_555
C22_5 C25_5 1_555 1_555
C24_5 C26_5 1_555 1_555
C31_5 C36_7 1_555 1_555
C31_5 C37_5 1_555 1_555
C35_5 C39_5 1_555 1_555
C38_5 C40_5 1_555 1_555
O24_2 C1_5 1_555 1_555
C1_5 O20_2 1_555 1_555
C2_5 C1_5 1_555 1_555
H1_5 C2_5 1_555 1_555
C3_5 C2_5 1_555 1_555
H2_5 C3_5 1_555 1_555
C4_8 H3_8 1_555 1_555
C5_5 C6_5 1_555 1_555
C6_5 C4_8 1_555 1_555
C7_5 C6_5 1_555 1_555
C8_5 C3_5 1_555 1_555
C9_5 C8_5 1_555 1_555
H4_5 C9_5 1_555 1_555
C10_8 C5_5 1_555 1_555
C11_5 C5_5 1_555 1_555
H5_5 C11_5 1_555 1_555
C12_5 C7_5 1_555 1_555
H6_5 C12_5 1_555 1_555
C13_5 C7_5 1_555 1_555
H7_4 C13_5 1_555 1_555
C14_5 C8_5 1_555 1_555
H8_5 C14_5 1_555 1_555
C30_8 H18_8 1_555 1_555
C36_8 C10_8 1_555 1_555
O22_2 C41_5 1_555 1_555
O26_2 C41_5 1_555 1_555
C41_5 C42_5 1_555 1_555
C42_5 H24_5 1_555 1_555
C43_5 C42_5 1_555 1_555
H25_5 C43_5 1_555 1_555
C44_5 C36_8 1_555 1_555
C45_5 C30_8 1_555 1_555
C46_5 C45_5 1_555 1_555
C47_5 C43_5 1_555 1_555
C48_5 C47_5 1_555 1_555
H26_5 C48_5 1_555 1_555
C49_5 C11_5 1_555 1_555
H27_5 C49_5 1_555 1_555
C50_5 C46_5 1_555 1_555
H28_5 C50_5 1_555 1_555
C51_5 C46_5 1_555 1_555
H29_4 C51_5 1_555 1_555
C52_5 C47_5 1_555 1_555
H30_5 C52_5 1_555 1_555
O13_5 Zr9 1_555 1_555
O16_5 Zr9 1_555 1_555
C9_5 C13_5 1_555 1_555
C12_5 C14_5 1_555 1_555
C44_5 C45_5 1_555 1_555
C44_5 C49_5 1_555 1_555
C48_5 C51_5 1_555 1_555
C50_5 C52_5 1_555 1_555
O24 C1_6 1_555 1_555
C1_6 O20 1_555 1_555
C2_6 C1_6 1_555 1_555
H1_6 C2_6 1_555 1_555
C3_6 C2_6 1_555 1_555
H2_6 C3_6 1_555 1_555
C4_9 H3_9 1_555 1_555
C5_6 C6_6 1_555 1_555
C6_6 C4_9 1_555 1_555
C7_6 C6_6 1_555 1_555
C8_6 C3_6 1_555 1_555
C9_6 C8_6 1_555 1_555
H4_6 C9_6 1_555 1_555
C10_9 C5_6 1_555 1_555
C11_6 C5_6 1_555 1_555
H5_6 C11_6 1_555 1_555
C12_6 C7_6 1_555 1_555
H6_6 C12_6 1_555 1_555
C13_6 C7_6 1_555 1_555
H7_5 C13_6 1_555 1_555
C14_6 C8_6 1_555 1_555
H8_6 C14_6 1_555 1_555
O20_6 C15_6 1_555 1_555
O24_6 C15_6 1_555 1_555
C15_6 C16_6 1_555 1_555
C16_6 H9_6 1_555 1_555
C17_6 C16_6 1_555 1_555
H10_6 C17_6 1_555 1_555
C18_6 C10_9 1_555 1_555
C19_6 C4_9 1_555 1_555
C20_6 C19_6 1_555 1_555
C21_6 C17_6 1_555 1_555
C22_6 C21_6 1_555 1_555
H11_6 C22_6 1_555 1_555
C23_6 C18_6 1_555 1_555
H12_6 C23_6 1_555 1_555
C24_6 C20_6 1_555 1_555
H13_6 C24_6 1_555 1_555
C25_6 C20_6 1_555 1_555
H14_5 C25_6 1_555 1_555
C26_6 C21_6 1_555 1_555
H15_6 C26_6 1_555 1_555
O13_6 Zr10 1_555 1_555
O16_6 Zr10 1_555 1_555
C9_6 C13_6 1_555 1_555
C12_6 C14_6 1_555 1_555
C18_6 C19_6 1_555 1_555
C22_6 C25_6 1_555 1_555
C24_6 C26_6 1_555 1_555
O22_6 C27_6 1_555 1_555
O25_3 C27_6 1_555 1_555
C27_6 C28_6 1_555 1_555
C28_6 H16_6 1_555 1_555
C29_6 C28_6 1_555 1_555
H17_6 C29_6 1_555 1_555
C30_9 H18_9 1_555 1_555
C31_6 C32_6 1_555 1_555
C32_6 C30_9 1_555 1_555
C33_6 C32_6 1_555 1_555
C34_6 C29_6 1_555 1_555
C35_6 C34_6 1_555 1_555
H19_6 C35_6 1_555 1_555
H20_6 C37_6 1_555 1_555
C38_6 C33_6 1_555 1_555
H21_6 C38_6 1_555 1_555
C39_6 C33_6 1_555 1_555
H22_5 C39_6 1_555 1_555
C40_6 C34_6 1_555 1_555
H23_6 C40_6 1_555 1_555
O22 C41_6 1_555 1_555
O26 C41_6 1_555 1_555
C41_6 C42_6 1_555 1_555
C42_6 H24_6 1_555 1_555
C43_6 C42_6 1_555 1_555
H25_6 C43_6 1_555 1_555
C44_6 C36_9 1_555 1_555
C45_6 C30_9 1_555 1_555
C46_6 C45_6 1_555 1_555
C47_6 C43_6 1_555 1_555
C48_6 C47_6 1_555 1_555
H26_6 C48_6 1_555 1_555
H27_6 C49_6 1_555 1_555
C50_6 C46_6 1_555 1_555
H28_6 C50_6 1_555 1_555
C51_6 C46_6 1_555 1_555
H29_5 C51_6 1_555 1_555
C52_6 C47_6 1_555 1_555
H30_6 C52_6 1_555 1_555
C31_6 C36_9 1_555 1_555
C31_6 C37_6 1_555 1_555
C35_6 C39_6 1_555 1_555
C38_6 C40_6 1_555 1_555
C44_6 C45_6 1_555 1_555
C44_6 C49_6 1_555 1_555
C48_6 C51_6 1_555 1_555
C50_6 C52_6 1_555 1_555
O13_7 Zr11_2 1_555 1_555
O16_7 Zr11_2 1_555 1_555
C5_7 C6_7 1_555 1_555
C6_7 C4_10 1_555 1_555
C7_7 C6_7 1_555 1_555
H4_7 C9_7 1_555 1_555
C10_10 C5_7 1_555 1_555
C11_7 C5_7 1_555 1_555
H5_7 C11_7 1_555 1_555
C13_7 C7_7 1_555 1_555
H7_6 C13_7 1_555 1_555
C18_7 C10_10 1_555 1_555
C19_7 C4_10 1_555 1_555
C20_7 C19_7 1_555 1_555
H11_7 C22_7 1_555 1_555
C23_7 C18_7 1_555 1_555
H12_7 C23_7 1_555 1_555
C25_7 C20_7 1_555 1_555
H14_6 C25_7 1_555 1_555
O22_8 C27_7 1_555 1_555
O25 C27_7 1_555 1_555
C27_7 C28_7 1_555 1_555
C28_7 H16_7 1_555 1_555
C29_7 C28_7 1_555 1_555
H17_7 C29_7 1_555 1_555
C30_10 H18_10 1_555 1_555
C31_7 C32_7 1_555 1_555
C32_7 C30_10 1_555 1_555
C33_7 C32_7 1_555 1_555
C34_7 C29_7 1_555 1_555
C35_7 C34_7 1_555 1_555
H19_7 C35_7 1_555 1_555
C36_10 C10_10 1_555 1_555
C37_7 C23_7 1_555 1_555
H20_7 C37_7 1_555 1_555
C38_7 C33_7 1_555 1_555
H21_7 C38_7 1_555 1_555
C39_7 C33_7 1_555 1_555
H22_6 C39_7 1_555 1_555
C40_7 C34_7 1_555 1_555
H23_7 C40_7 1_555 1_555
O22_4 C41_7 1_555 1_555
O26_4 C41_7 1_555 1_555
C41_7 C42_7 1_555 1_555
C42_7 H24_7 1_555 1_555
C43_7 C42_7 1_555 1_555
H25_7 C43_7 1_555 1_555
C44_7 C36_10 1_555 1_555
C45_7 C30_10 1_555 1_555
C46_7 C45_7 1_555 1_555
C47_7 C43_7 1_555 1_555
C48_7 C47_7 1_555 1_555
H26_7 C48_7 1_555 1_555
C49_7 C11_7 1_555 1_555
H27_7 C49_7 1_555 1_555
C50_7 C46_7 1_555 1_555
H28_7 C50_7 1_555 1_555
C51_7 C46_7 1_555 1_555
H29_6 C51_7 1_555 1_555
C52_7 C47_7 1_555 1_555
H30_7 C52_7 1_555 1_555
C9_7 C13_7 1_555 1_555
C18_7 C19_7 1_555 1_555
C22_7 C25_7 1_555 1_555
C31_7 C36_10 1_555 1_555
C31_7 C37_7 1_555 1_555
C35_7 C39_7 1_555 1_555
C38_7 C40_7 1_555 1_555
C44_7 C45_7 1_555 1_555
C44_7 C49_7 1_555 1_555
C48_7 C51_7 1_555 1_555
C50_7 C52_7 1_555 1_555
O24_4 C1_7 1_555 1_555
C1_7 O20_4 1_555 1_555
C2_7 C1_7 1_555 1_555
H1_7 C2_7 1_555 1_555
C3_7 C2_7 1_555 1_555
H2_7 C3_7 1_555 1_555
C8_7 C3_7 1_555 1_555
H6_7 C12_7 1_555 1_555
C14_7 C8_7 1_555 1_555
H8_7 C14_7 1_555 1_555
O20_8 C15_7 1_555 1_555
O24_8 C15_7 1_555 1_555
C15_7 C16_7 1_555 1_555
C16_7 H9_7 1_555 1_555
C17_7 C16_7 1_555 1_555
H10_7 C17_7 1_555 1_555
C21_7 C17_7 1_555 1_555
H13_7 C24_7 1_555 1_555
C26_7 C21_7 1_555 1_555
H15_7 C26_7 1_555 1_555
C12_7 C14_7 1_555 1_555
C24_7 C26_7 1_555 1_555
O24_3 C1_8 1_555 1_555
C1_8 O20_3 1_555 1_555
C2_8 C1_8 1_555 1_555
H1_8 C2_8 1_555 1_555
C3_8 C2_8 1_555 1_555
H2_8 C3_8 1_555 1_555
C8_8 C3_8 1_555 1_555
H6_8 C12_8 1_555 1_555
C14_8 C8_8 1_555 1_555
H8_8 C14_8 1_555 1_555
O20_7 C15_8 1_555 1_555
O24_7 C15_8 1_555 1_555
C15_8 C16_8 1_555 1_555
C16_8 H9_8 1_555 1_555
C17_8 C16_8 1_555 1_555
H10_8 C17_8 1_555 1_555
C21_8 C17_8 1_555 1_555
H13_8 C24_8 1_555 1_555
C26_8 C21_8 1_555 1_555
H15_8 C26_8 1_555 1_555
O13_8 Zr11 1_555 1_555
O16_8 Zr11 1_555 1_555
C12_8 C14_8 1_555 1_555
C24_8 C26_8 1_555 1_555
C5_8 C6_8 1_555 1_555
C6_8 C4_11 1_555 1_555
C7_8 C6_8 1_555 1_555
H4_8 C9_8 1_555 1_555
C10_11 C5_8 1_555 1_555
C11_8 C5_8 1_555 1_555
H5_8 C11_8 1_555 1_555
C13_8 C7_8 1_555 1_555
H7_7 C13_8 1_555 1_555
C18_8 C10_11 1_555 1_555
C19_8 C4_11 1_555 1_555
C20_8 C19_8 1_555 1_555
H11_8 C22_8 1_555 1_555
C23_8 C18_8 1_555 1_555
H12_8 C23_8 1_555 1_555
C25_8 C20_8 1_555 1_555
H14_7 C25_8 1_555 1_555
O22_7 C27_8 1_555 1_555
O25_2 C27_8 1_555 1_555
C27_8 C28_8 1_555 1_555
C28_8 H16_8 1_555 1_555
C29_8 C28_8 1_555 1_555
H17_8 C29_8 1_555 1_555
C30_11 H18_11 1_555 1_555
C31_8 C32_8 1_555 1_555
C32_8 C30_11 1_555 1_555
C33_8 C32_8 1_555 1_555
C34_8 C29_8 1_555 1_555
C35_8 C34_8 1_555 1_555
H19_8 C35_8 1_555 1_555
C36_11 C10_11 1_555 1_555
C37_8 C23_8 1_555 1_555
H20_8 C37_8 1_555 1_555
C38_8 C33_8 1_555 1_555
H21_8 C38_8 1_555 1_555
C39_8 C33_8 1_555 1_555
H22_7 C39_8 1_555 1_555
C40_8 C34_8 1_555 1_555
H23_8 C40_8 1_555 1_555
O22_3 C41_8 1_555 1_555
O26_3 C41_8 1_555 1_555
C41_8 C42_8 1_555 1_555
C42_8 H24_8 1_555 1_555
C43_8 C42_8 1_555 1_555
H25_8 C43_8 1_555 1_555
C44_8 C36_11 1_555 1_555
C45_8 C30_11 1_555 1_555
C46_8 C45_8 1_555 1_555
C47_8 C43_8 1_555 1_555
C48_8 C47_8 1_555 1_555
H26_8 C48_8 1_555 1_555
C49_8 C11_8 1_555 1_555
H27_8 C49_8 1_555 1_555
C50_8 C46_8 1_555 1_555
H28_8 C50_8 1_555 1_555
C51_8 C46_8 1_555 1_555
H29_7 C51_8 1_555 1_555
C52_8 C47_8 1_555 1_555
H30_8 C52_8 1_555 1_555
C9_8 C13_8 1_555 1_555
C18_8 C19_8 1_555 1_555
C22_8 C25_8 1_555 1_555
C31_8 C36_11 1_555 1_555
C31_8 C37_8 1_555 1_555
C35_8 C39_8 1_555 1_555
C38_8 C40_8 1_555 1_555
C44_8 C45_8 1_555 1_555
C44_8 C49_8 1_555 1_555
C48_8 C51_8 1_555 1_555
C50_8 C52_8 1_555 1_555
C4_12 H3_12 1_555 1_555
C30_12 H18_12 1_555 1_555
C36_12 C10_12 1_555 1_555
C4_13 H3_13 1_555 1_555
C30_13 H18_13 1_555 1_555
C36_13 C10_13 1_555 1_555

#END
