
###############################################################################
#
# This file contains modified crystal structure data generated from the
# MOF subset of the Cambridge Structural Database (CSD) v543 
# hosted by the Cambridge Crystallographic Data Centre (CCDC).
#
# This work is licensed under the Creative Commons
# Attribution-NonCommercial-ShareAlike 4.0 International License.
# To view a copy of this license, visit
# http://creativecommons.org/licenses/by-nc-sa/4.0/
# or send a letter to
# Creative Commons, PO Box 1866, Mountain View, CA 94042, USA.
#
# CIF created using the CSD Python API on 29 September 2022
# The structure has been converted into the P1 space group
# The structure has a 3D framework
# The original CSD entry MOYTUR is in the orthorhombic crystal system
# The framework has been calculated to contain at least 10.0% void space
# The void calculation uses a probe of radius 1.32A, grid spacing 0.4
# The framework is charged, counterions have been retained in the structure
# H atom positions have been added when not included in the experimental data
# Generated hydrogen atom positions removed from atoms on special positions
#
###############################################################################

data_MOYTUR
_chemical_formula_moiety         '(C176 H168 Cl2 N16 O60 Zn16 2+)n'
_symmetry_cell_setting           triclinic
_symmetry_space_group_name_H-M   'P 1'
_symmetry_Int_Tables_number      1
_space_group_name_Hall           'P 1'
loop_
_symmetry_equiv_pos_site_id
_symmetry_equiv_pos_as_xyz
1 x,y,z
_cell_length_a                   24.673(3)
_cell_length_b                   24.911(3)
_cell_length_c                   9.3725(12)
_cell_angle_alpha                90
_cell_angle_beta                 90
_cell_angle_gamma                90
_cell_volume                     5760.61
loop_
_atom_site_label
_atom_site_type_symbol
_atom_site_fract_x
_atom_site_fract_y
_atom_site_fract_z
Cl1 Cl 0.2500 0.2500 0.5000
Cl1_2 Cl 0.7500 0.7500 0.5000
O24 O 0.1906(2) 0.2510(3) 0.6933(7)
O25 O 0.1301(3) 0.2852(3) 0.8306(7)
N8 N 0.0678(3) 0.0724(3) 0.3450(9)
C67 C 0.0961(4) 0.1088(4) 0.4085(11)
H52 H 0.1330 0.1099 0.3889
C68 C 0.0760(4) 0.1467(4) 0.5037(11)
C69 C 0.1138(4) 0.1815(3) 0.5699(9)
H53 H 0.1503 0.1781 0.5469
C70 C 0.0985(3) 0.2201(4) 0.6671(10)
C71 C 0.0447(4) 0.2235(4) 0.7082(12)
H54 H 0.0342 0.2483 0.7771
C72 C 0.0074(4) 0.1907(4) 0.6479(13)
C73 C 0.0194(4) 0.1505(4) 0.5456(11)
C74 C 0.1431(4) 0.2532(3) 0.7328(10)
C83 C 0.0918(3) 0.0387(3) 0.2330(14)
H59 H 0.0803 0.0531 0.1405
H60 H 0.1598 0.0105 0.0136
C87 C 0.1549(3) 0.0325(5) 0.2299(13)
H65 H 0.1716 0.0675 0.2189
H66 H 0.1673 0.0171 0.3192
Zn11 Zn 0.20826(4) 0.30232(3) 0.88880(10)
O3 O 0.7500 0.7500 0.0000
Zn5 Zn 0.79174(4) 0.69768(3) 0.11120(10)
Zn6 Zn 0.50932(5) 0.43896(5) 0.36728(14)
O14 O 0.5839(3) 0.4579(3) 0.3959(7)
O15 O 0.5178(2) 0.3808(3) 0.4987(8)
O16 O 0.7503(2) 0.6385(2) 0.2060(6)
O17 O 0.6816(2) 0.6512(2) 0.0514(7)
O18 O 0.3094(2) 0.2490(3) 0.6933(7)
O19 O 0.3699(3) 0.2148(3) 0.8306(7)
N5 N 0.4941(3) 0.5032(3) 0.2576(9)
N6 N 0.4322(3) 0.4276(3) 0.3450(9)
C45 C 0.4039(4) 0.3912(4) 0.4085(11)
H35 H 0.3670 0.3901 0.3889
C46 C 0.4240(4) 0.3533(4) 0.5037(11)
C47 C 0.3862(4) 0.3185(3) 0.5699(9)
H36 H 0.3497 0.3219 0.5469
C48 C 0.4015(3) 0.2799(4) 0.6671(10)
C49 C 0.4553(4) 0.2765(4) 0.7082(12)
H37 H 0.4658 0.2517 0.7771
C50 C 0.4926(4) 0.3093(4) 0.6479(13)
H38 H 0.5286 0.3051 0.6754
C51 C 0.4806(4) 0.3495(4) 0.5456(11)
C52 C 0.3569(4) 0.2468(3) 0.7328(10)
C53 C 0.5297(4) 0.5367(4) 0.2156(11)
H39 H 0.5174 0.5642 0.1568
C54 C 0.5857(4) 0.5372(3) 0.2479(9)
C55 C 0.6193(3) 0.5779(3) 0.1941(9)
H40 H 0.6038 0.6031 0.1333
C56 C 0.6727(3) 0.5831(3) 0.2245(9)
C57 C 0.6963(4) 0.5456(3) 0.3126(11)
H41 H 0.7330 0.5489 0.3339
C58 C 0.6669(4) 0.5021(4) 0.3724(11)
C59 C 0.6102(4) 0.4982(4) 0.3385(11)
C60 C 0.7040(4) 0.6273(3) 0.1545(9)
C61 C 0.4082(3) 0.4613(3) 0.2330(14)
H42 H 0.4197 0.4469 0.1405
C62 C 0.3283(5) 0.5044(3) 0.1039(11)
H43 H 0.3402 0.4895 0.0136
H44 H 0.2893 0.5091 0.1013
C63 C 0.3573(3) 0.5585(4) 0.1348(19)
H45 H 0.3474 0.5706 0.2297
H46 H 0.3446 0.5852 0.0672
C64 C 0.4351(5) 0.5173(3) 0.2523(11)
H47 H 0.4237 0.5335 0.3427
C65 C 0.3451(3) 0.4675(5) 0.2299(13)
H48 H 0.3284 0.4325 0.2189
H49 H 0.3327 0.4829 0.3192
C66 C 0.4201(3) 0.5547(5) 0.1250(12)
H50 H 0.4368 0.5897 0.1354
H51 H 0.4313 0.5391 0.0348
Zn7 Zn 0.70826(4) 0.80232(3) 0.11120(10)
O22 O 0.7497(2) 0.8615(2) 0.2060(6)
O23 O 0.8184(2) 0.8488(2) 0.0514(7)
C75 C 0.9703(4) 0.9633(4) 0.2156(11)
H56 H 0.9826 0.9358 0.1568
C76 C 0.9143(4) 0.9628(3) 0.2479(9)
C77 C 0.8807(3) 0.9221(3) 0.1941(9)
H57 H 0.8962 0.8969 0.1333
C78 C 0.8273(3) 0.9169(3) 0.2245(9)
C79 C 0.8037(4) 0.9544(3) 0.3126(11)
H58 H 0.7670 0.9511 0.3339
C80 C 0.8331(4) 0.9979(4) 0.3724(11)
C82 C 0.7960(4) 0.8727(3) 0.1545(9)
Zn12 Zn 0.29174(4) 0.19768(3) 0.88880(10)
O28 O 0.6906(2) 0.7510(3) 0.3067(7)
O29 O 0.8094(2) 0.7490(3) 0.3067(7)
O32 O 0.6301(3) 0.7852(3) 0.1694(7)
O33 O 0.8699(3) 0.7148(3) 0.1694(7)
H69 H 0.686545 0.472784 0.441355
O3_2 O 0.2500 0.2500 1.0000
Zn6_2 Zn 0.49068(5) 0.56104(5) 0.63272(14)
O14_2 O 0.4161(3) 0.5421(3) 0.6041(7)
O15_2 O 0.4822(2) 0.6192(3) 0.5013(8)
O16_2 O 0.2497(2) 0.3615(2) 0.7940(6)
O17_2 O 0.3184(2) 0.3488(2) 0.9486(7)
N5_2 N 0.5059(3) 0.4968(3) 0.7424(9)
N6_2 N 0.5678(3) 0.5724(3) 0.6550(9)
C45_2 C 0.5961(4) 0.6088(4) 0.5915(11)
H35_2 H 0.6330 0.6099 0.6111
C46_2 C 0.5760(4) 0.6467(4) 0.4963(11)
C47_2 C 0.6138(4) 0.6815(3) 0.4301(9)
H36_2 H 0.6503 0.6781 0.4531
C48_2 C 0.5985(3) 0.7201(4) 0.3329(10)
C49_2 C 0.5447(4) 0.7235(4) 0.2918(12)
H37_2 H 0.5342 0.7483 0.2229
C50_2 C 0.5074(4) 0.6907(4) 0.3521(13)
H38_2 H 0.4714 0.6949 0.3246
C51_2 C 0.5194(4) 0.6505(4) 0.4544(11)
C52_2 C 0.6431(4) 0.7532(3) 0.2672(10)
C53_2 C 0.4703(4) 0.4633(4) 0.7844(11)
H39_2 H 0.4826 0.4358 0.8432
C54_2 C 0.4143(4) 0.4628(3) 0.7521(9)
C55_2 C 0.3807(3) 0.4221(3) 0.8059(9)
H40_2 H 0.3962 0.3969 0.8667
C56_2 C 0.3273(3) 0.4169(3) 0.7755(9)
C57_2 C 0.3037(4) 0.4544(3) 0.6874(11)
H41_2 H 0.2670 0.4511 0.6661
C58_2 C 0.3331(4) 0.4979(4) 0.6276(11)
C59_2 C 0.3898(4) 0.5018(4) 0.6615(11)
C60_2 C 0.2960(4) 0.3727(3) 0.8455(9)
C61_2 C 0.5918(3) 0.5387(3) 0.7670(14)
H42_2 H 0.5803 0.5531 0.8595
C62_2 C 0.6717(5) 0.4956(3) 0.8961(11)
H43_2 H 0.6598 0.5105 0.9864
H44_2 H 0.7107 0.4909 0.8987
C63_2 C 0.6427(3) 0.4415(4) 0.8652(19)
H45_2 H 0.6526 0.4294 0.7703
H46_2 H 0.6554 0.4148 0.9328
C64_2 C 0.5649(5) 0.4827(3) 0.7477(11)
H47_2 H 0.5763 0.4665 0.6573
C65_2 C 0.6549(3) 0.5325(5) 0.7701(13)
H48_2 H 0.6716 0.5675 0.7811
H49_2 H 0.6673 0.5171 0.6808
C66_2 C 0.5799(3) 0.4453(5) 0.8750(12)
H50_2 H 0.5632 0.4103 0.8646
H51_2 H 0.5687 0.4609 0.9652
O22_2 O 0.2503(2) 0.1385(2) 0.7940(6)
O23_2 O 0.1816(2) 0.1512(2) 0.9486(7)
C75_2 C 0.0297(4) 0.0367(4) 0.7844(11)
H56_2 H 0.0174 0.0642 0.8432
C76_2 C 0.0857(4) 0.0372(3) 0.7521(9)
C77_2 C 0.1193(3) 0.0779(3) 0.8059(9)
H57_2 H 0.1038 0.1031 0.8667
C78_2 C 0.1727(3) 0.0831(3) 0.7755(9)
C79_2 C 0.1963(4) 0.0456(3) 0.6874(11)
H58_2 H 0.2330 0.0489 0.6661
C80_2 C 0.1669(4) 0.0021(4) 0.6276(11)
C82_2 C 0.2040(4) 0.1273(3) 0.8455(9)
H69_2 H 0.313455 0.527216 0.558645
N8_2 N 0.9322(3) 0.9276(3) 0.6550(9)
C67_2 C 0.9039(4) 0.8912(4) 0.5915(11)
H52_2 H 0.8670 0.8901 0.6111
C68_2 C 0.9240(4) 0.8533(4) 0.4963(11)
C69_2 C 0.8862(4) 0.8185(3) 0.4301(9)
H53_2 H 0.8497 0.8219 0.4531
C70_2 C 0.9015(3) 0.7799(4) 0.3329(10)
C71_2 C 0.9553(4) 0.7765(4) 0.2918(12)
H54_2 H 0.9658 0.7517 0.2229
C72_2 C 0.9926(4) 0.8093(4) 0.3521(13)
C73_2 C 0.9806(4) 0.8495(4) 0.4544(11)
C74_2 C 0.8569(4) 0.7468(3) 0.2672(10)
C83_2 C 0.9082(3) 0.9613(3) 0.7670(14)
H59_2 H 0.9197 0.9469 0.8595
H60_2 H 0.8402 0.9895 0.9864
C87_2 C 0.8451(3) 0.9675(5) 0.7701(13)
H65_2 H 0.8284 0.9325 0.7811
H66_2 H 0.8327 0.9829 0.6808
N7 N 0.0059(3) 0.9968(3) 0.2576(9)
C84 C 0.1717(5) 0.9956(3) 0.1039(11)
H61 H 0.2107 0.9909 0.1013
C85 C 0.1427(3) 0.9415(4) 0.1348(19)
H62 H 0.1526 0.9294 0.2297
H63 H 0.1554 0.9148 0.0672
C86 C 0.0649(5) 0.9827(3) 0.2523(11)
H64 H 0.0763 0.9665 0.3427
C88 C 0.0799(3) 0.9453(5) 0.1250(12)
H67 H 0.0632 0.9103 0.1354
H68 H 0.0687 0.9609 0.0348
O12 O 0.1906(2) 0.2490(3) 0.3067(7)
O13 O 0.1301(3) 0.2148(3) 0.1694(7)
N3 N 0.0059(3) 0.5032(3) 0.7424(9)
N4 N 0.0678(3) 0.4276(3) 0.6550(9)
C23 C 0.0961(4) 0.3912(4) 0.5915(11)
H18 H 0.1330 0.3901 0.6111
C24 C 0.0760(4) 0.3533(4) 0.4963(11)
C25 C 0.1138(4) 0.3185(3) 0.4301(9)
H19 H 0.1503 0.3219 0.4531
C26 C 0.0985(3) 0.2799(4) 0.3329(10)
C27 C 0.0447(4) 0.2765(4) 0.2918(12)
H20 H 0.0342 0.2517 0.2229
C28 C 0.0074(4) 0.3093(4) 0.3521(13)
C29 C 0.0194(4) 0.3495(4) 0.4544(11)
C30 C 0.1431(4) 0.2468(3) 0.2672(10)
C39 C 0.0918(3) 0.4613(3) 0.7670(14)
H25 H 0.0803 0.4469 0.8595
C40 C 0.1717(5) 0.5044(3) 0.8961(11)
H26 H 0.1598 0.4895 0.9864
H27 H 0.2107 0.5091 0.8987
C41 C 0.1427(3) 0.5585(4) 0.8652(19)
H28 H 0.1526 0.5706 0.7703
H29 H 0.1554 0.5852 0.9328
C42 C 0.0649(5) 0.5173(3) 0.7477(11)
H30 H 0.0763 0.5335 0.6573
C43 C 0.1549(3) 0.4675(5) 0.7701(13)
H31 H 0.1716 0.4325 0.7811
H32 H 0.1673 0.4829 0.6808
C44 C 0.0799(3) 0.5547(5) 0.8750(12)
H33 H 0.0632 0.5897 0.8646
H34 H 0.0687 0.5391 0.9652
Zn9 Zn 0.20826(4) 0.19768(3) 0.11120(10)
Zn2 Zn 0.50932(5) 0.06104(5) 0.63272(14)
O1 O 0.5839(3) 0.0421(3) 0.6041(7)
O2 O 0.5178(2) 0.1192(3) 0.5013(8)
O6 O 0.3094(2) 0.2510(3) 0.3067(7)
O7 O 0.3699(3) 0.2852(3) 0.1694(7)
N2 N 0.4322(3) 0.0724(3) 0.6550(9)
C1 C 0.4039(4) 0.1088(4) 0.5915(11)
H1 H 0.3670 0.1099 0.6111
C2 C 0.4240(4) 0.1467(4) 0.4963(11)
C3 C 0.3862(4) 0.1815(3) 0.4301(9)
H2 H 0.3497 0.1781 0.4531
C4 C 0.4015(3) 0.2201(4) 0.3329(10)
C5 C 0.4553(4) 0.2235(4) 0.2918(12)
H3 H 0.4658 0.2483 0.2229
C6 C 0.4926(4) 0.1907(4) 0.3521(13)
H4 H 0.5286 0.1949 0.3246
C7 C 0.4806(4) 0.1505(4) 0.4544(11)
C8 C 0.3569(4) 0.2532(3) 0.2672(10)
C15 C 0.6102(4) 0.0018(4) 0.6615(11)
C17 C 0.4082(3) 0.0387(3) 0.7670(14)
H8 H 0.4197 0.0531 0.8595
H9 H 0.3402 0.0105 0.9864
C21 C 0.3451(3) 0.0325(5) 0.7701(13)
H14 H 0.3284 0.0675 0.7811
H15 H 0.3327 0.0171 0.6808
Zn10 Zn 0.29174(4) 0.30232(3) 0.11120(10)
H74 H 0.686545 0.0272157 0.558645
O3_3 O 0.2500 0.2500 -0.0000
O4 O 0.2497(2) 0.1385(2) 0.2060(6)
O5 O 0.3184(2) 0.1512(2) 0.0514(7)
N1 N 0.5059(3) 0.0032(3) 0.2576(9)
C9 C 0.4703(4) 0.0367(4) 0.2156(11)
H5 H 0.4826 0.0642 0.1568
C10 C 0.4143(4) 0.0372(3) 0.2479(9)
C11 C 0.3807(3) 0.0779(3) 0.1941(9)
H6 H 0.3962 0.1031 0.1333
C12 C 0.3273(3) 0.0831(3) 0.2245(9)
C13 C 0.3037(4) 0.0456(3) 0.3126(11)
H7 H 0.2670 0.0489 0.3339
C14 C 0.3331(4) 0.0021(4) 0.3724(11)
C16 C 0.2960(4) 0.1273(3) 0.1545(9)
C18 C 0.6717(5) 0.0044(3) 0.1039(11)
H10 H 0.7107 0.0091 0.1013
C19 C 0.6427(3) 0.0585(4) 0.1348(19)
H11 H 0.6526 0.0706 0.2297
H12 H 0.6554 0.0852 0.0672
C20 C 0.5649(5) 0.0173(3) 0.2523(11)
H13 H 0.5763 0.0335 0.3427
C22 C 0.5799(3) 0.0547(5) 0.1250(12)
H16 H 0.5632 0.0897 0.1354
H17 H 0.5687 0.0391 0.0348
Zn4 Zn 0.00932(5) 0.56104(5) 0.36728(14)
O8 O 0.0839(3) 0.5421(3) 0.3959(7)
O9 O 0.0178(2) 0.6192(3) 0.4987(8)
O10 O 0.2503(2) 0.3615(2) 0.2060(6)
O11 O 0.1816(2) 0.3488(2) 0.0514(7)
H21 H 0.0286 0.6949 0.6754
C31 C 0.0297(4) 0.4633(4) 0.2156(11)
H22 H 0.0174 0.4358 0.1568
C32 C 0.0857(4) 0.4628(3) 0.2479(9)
C33 C 0.1193(3) 0.4221(3) 0.1941(9)
H23 H 0.1038 0.3969 0.1333
C34 C 0.1727(3) 0.4169(3) 0.2245(9)
C35 C 0.1963(4) 0.4544(3) 0.3126(11)
H24 H 0.2330 0.4511 0.3339
C36 C 0.1669(4) 0.4979(4) 0.3724(11)
C37 C 0.1102(4) 0.5018(4) 0.3385(11)
C38 C 0.2040(4) 0.3727(3) 0.1545(9)
H75 H 0.186545 0.527216 0.441355
Zn8 Zn 0.99068(5) 0.06104(5) 0.36728(14)
O20 O 0.9161(3) 0.0421(3) 0.3959(7)
O21 O 0.9822(2) 0.1192(3) 0.4987(8)
H55 H 0.9714 0.1949 0.6754
C81 C 0.8898(4) 0.0018(4) 0.3385(11)
H70 H 0.813455 0.0272157 0.441355
Zn1 Zn 0.79174(4) 0.80232(3) 0.88880(10)
O3_4 O 0.7500 0.7500 1.0000
O4_2 O 0.7503(2) 0.8615(2) 0.7940(6)
O5_2 O 0.6816(2) 0.8488(2) 0.9486(7)
N1_2 N 0.4941(3) 0.9968(3) 0.7424(9)
C9_2 C 0.5297(4) 0.9633(4) 0.7844(11)
H5_2 H 0.5174 0.9358 0.8432
C10_2 C 0.5857(4) 0.9628(3) 0.7521(9)
C11_2 C 0.6193(3) 0.9221(3) 0.8059(9)
H6_2 H 0.6038 0.8969 0.8667
C12_2 C 0.6727(3) 0.9169(3) 0.7755(9)
C13_2 C 0.6963(4) 0.9544(3) 0.6874(11)
H7_2 H 0.7330 0.9511 0.6661
C14_2 C 0.6669(4) 0.9979(4) 0.6276(11)
C16_2 C 0.7040(4) 0.8727(3) 0.8455(9)
C18_2 C 0.3283(5) 0.9956(3) 0.8961(11)
H10_2 H 0.2893 0.9909 0.8987
C19_2 C 0.3573(3) 0.9415(4) 0.8652(19)
H11_2 H 0.3474 0.9294 0.7703
H12_2 H 0.3446 0.9148 0.9328
C20_2 C 0.4351(5) 0.9827(3) 0.7477(11)
H13_2 H 0.4237 0.9665 0.6573
C22_2 C 0.4201(3) 0.9453(5) 0.8750(12)
H16_2 H 0.4368 0.9103 0.8646
H17_2 H 0.4313 0.9609 0.9652
Zn3 Zn 0.70826(4) 0.69768(3) 0.88880(10)
Zn4_2 Zn 0.99068(5) 0.43896(5) 0.63272(14)
O8_2 O 0.9161(3) 0.4579(3) 0.6041(7)
O9_2 O 0.9822(2) 0.3808(3) 0.5013(8)
O10_2 O 0.7497(2) 0.6385(2) 0.7940(6)
O11_2 O 0.8184(2) 0.6512(2) 0.9486(7)
H21_2 H 0.9714 0.3051 0.3246
C31_2 C 0.9703(4) 0.5367(4) 0.7844(11)
H22_2 H 0.9826 0.5642 0.8432
C32_2 C 0.9143(4) 0.5372(3) 0.7521(9)
C33_2 C 0.8807(3) 0.5779(3) 0.8059(9)
H23_2 H 0.8962 0.6031 0.8667
C34_2 C 0.8273(3) 0.5831(3) 0.7755(9)
C35_2 C 0.8037(4) 0.5456(3) 0.6874(11)
H24_2 H 0.7670 0.5489 0.6661
C36_2 C 0.8331(4) 0.5021(4) 0.6276(11)
C37_2 C 0.8898(4) 0.4982(4) 0.6615(11)
C38_2 C 0.7960(4) 0.6273(3) 0.8455(9)
O26 O 0.6906(2) 0.7490(3) 0.6933(7)
O27 O 0.8094(2) 0.7510(3) 0.6933(7)
O30 O 0.6301(3) 0.7148(3) 0.8306(7)
O31 O 0.8699(3) 0.7852(3) 0.8306(7)
H75_2 H 0.813455 0.472784 0.558645
Zn2_2 Zn 0.49068(5) 0.93896(5) 0.36728(14)
O1_2 O 0.4161(3) 0.9579(3) 0.3959(7)
O2_2 O 0.4822(2) 0.8808(3) 0.4987(8)
N2_2 N 0.5678(3) 0.9276(3) 0.3450(9)
C1_2 C 0.5961(4) 0.8912(4) 0.4085(11)
H1_2 H 0.6330 0.8901 0.3889
C2_2 C 0.5760(4) 0.8533(4) 0.5037(11)
C3_2 C 0.6138(4) 0.8185(3) 0.5699(9)
H2_2 H 0.6503 0.8219 0.5469
C4_2 C 0.5985(3) 0.7799(4) 0.6671(10)
C5_2 C 0.5447(4) 0.7765(4) 0.7082(12)
H3_2 H 0.5342 0.7517 0.7771
C6_2 C 0.5074(4) 0.8093(4) 0.6479(13)
H4_2 H 0.4714 0.8051 0.6754
C7_2 C 0.5194(4) 0.8495(4) 0.5456(11)
C8_2 C 0.6431(4) 0.7468(3) 0.7328(10)
C15_2 C 0.3898(4) 0.9982(4) 0.3385(11)
C17_2 C 0.5918(3) 0.9613(3) 0.2330(14)
H8_2 H 0.5803 0.9469 0.1405
H9_2 H 0.6598 0.9895 0.0136
C21_2 C 0.6549(3) 0.9675(5) 0.2299(13)
H14_2 H 0.6716 0.9325 0.2189
H15_2 H 0.6673 0.9829 0.3192
H74_2 H 0.313455 0.972784 0.441355
N3_2 N 0.9941(3) 0.4968(3) 0.2576(9)
N4_2 N 0.9322(3) 0.5724(3) 0.3450(9)
C23_2 C 0.9039(4) 0.6088(4) 0.4085(11)
H18_2 H 0.8670 0.6099 0.3889
C24_2 C 0.9240(4) 0.6467(4) 0.5037(11)
C25_2 C 0.8862(4) 0.6815(3) 0.5699(9)
H19_2 H 0.8497 0.6781 0.5469
C26_2 C 0.9015(3) 0.7201(4) 0.6671(10)
C27_2 C 0.9553(4) 0.7235(4) 0.7082(12)
H20_2 H 0.9658 0.7483 0.7771
C28_2 C 0.9926(4) 0.6907(4) 0.6479(13)
C29_2 C 0.9806(4) 0.6505(4) 0.5456(11)
C30_2 C 0.8569(4) 0.7532(3) 0.7328(10)
C39_2 C 0.9082(3) 0.5387(3) 0.2330(14)
H25_2 H 0.9197 0.5531 0.1405
C40_2 C 0.8283(5) 0.4956(3) 0.1039(11)
H26_2 H 0.8402 0.5105 0.0136
H27_2 H 0.7893 0.4909 0.1013
C41_2 C 0.8573(3) 0.4415(4) 0.1348(19)
H28_2 H 0.8474 0.4294 0.2297
H29_2 H 0.8446 0.4148 0.0672
C42_2 C 0.9351(5) 0.4827(3) 0.2523(11)
H30_2 H 0.9237 0.4665 0.3427
C43_2 C 0.8451(3) 0.5325(5) 0.2299(13)
H31_2 H 0.8284 0.5675 0.2189
H32_2 H 0.8327 0.5171 0.3192
C44_2 C 0.9201(3) 0.4453(5) 0.1250(12)
H33_2 H 0.9368 0.4103 0.1354
H34_2 H 0.9313 0.4609 0.0348
Zn8_2 Zn 0.00932(5) 0.93896(5) 0.63272(14)
O20_2 O 0.0839(3) 0.9579(3) 0.6041(7)
O21_2 O 0.0178(2) 0.8808(3) 0.5013(8)
H55_2 H 0.0286 0.8051 0.3246
C81_2 C 0.1102(4) 0.9982(4) 0.6615(11)
H70_2 H 0.186545 0.972784 0.558645
N7_2 N 0.9941(3) 0.0032(3) 0.7424(9)
C84_2 C 0.8283(5) 0.0044(3) 0.8961(11)
H61_2 H 0.7893 0.0091 0.8987
C85_2 C 0.8573(3) 0.0585(4) 0.8652(19)
H62_2 H 0.8474 0.0706 0.7703
H63_2 H 0.8446 0.0852 0.9328
C86_2 C 0.9351(5) 0.0173(3) 0.7477(11)
H64_2 H 0.9237 0.0335 0.6573
C88_2 C 0.9201(3) 0.0547(5) 0.8750(12)
H67_2 H 0.9368 0.0897 0.8646
H68_2 H 0.9313 0.0391 0.9652
O34 O 0.2707(14) 0.8630(16) 0.187(6)
O34_2 O 0.2293(14) 0.6370(16) 0.187(6)
O34_3 O 0.2707(14) 0.6370(16) 0.813(6)
O34_4 O 0.2293(14) 0.8630(16) 0.813(6)
O34_5 O 0.7293(14) 0.1370(16) 0.813(6)
O34_6 O 0.7707(14) 0.3630(16) 0.813(6)
O34_7 O 0.7293(14) 0.3630(16) 0.187(6)
O34_8 O 0.7707(14) 0.1370(16) 0.187(6)
loop_
_geom_bond_atom_site_label_1
_geom_bond_atom_site_label_2
_geom_bond_site_symmetry_1
_geom_bond_site_symmetry_2
O24 C74 1_555 1_555
O25 C74 1_555 1_555
C67 N8 1_555 1_555
H52 C67 1_555 1_555
C68 C67 1_555 1_555
C69 C68 1_555 1_555
H53 C69 1_555 1_555
C70 C69 1_555 1_555
C71 C70 1_555 1_555
H54 C71 1_555 1_555
C72 C71 1_555 1_555
C74 C70 1_555 1_555
C83 N8 1_555 1_555
H59 C83 1_555 1_555
C87 C83 1_555 1_555
H65 C87 1_555 1_555
H66 C87 1_555 1_555
Zn11 O24 1_555 1_555
O25 Zn11 1_555 1_555
C68 C73 1_555 1_555
C72 C73 1_555 1_555
Zn5 O3 1_555 1_555
Zn6 O14 1_555 1_555
O14 C59 1_555 1_555
O15 Zn6 1_555 1_555
O16 Zn5 1_555 1_555
O18 C52 1_555 1_555
O19 C52 1_555 1_555
N5 Zn6 1_555 1_555
N6 Zn6 1_555 1_555
C45 N6 1_555 1_555
H35 C45 1_555 1_555
C46 C45 1_555 1_555
C47 C46 1_555 1_555
H36 C47 1_555 1_555
C48 C47 1_555 1_555
C49 C48 1_555 1_555
H37 C49 1_555 1_555
C50 C49 1_555 1_555
H38 C50 1_555 1_555
C51 O15 1_555 1_555
C52 C48 1_555 1_555
C53 N5 1_555 1_555
H39 C53 1_555 1_555
C54 C53 1_555 1_555
C55 C54 1_555 1_555
H40 C55 1_555 1_555
C56 C55 1_555 1_555
C57 C56 1_555 1_555
H41 C57 1_555 1_555
C58 C57 1_555 1_555
C59 C54 1_555 1_555
C60 O16 1_555 1_555
C61 N6 1_555 1_555
H42 C61 1_555 1_555
C62 H43 1_555 1_555
H44 C62 1_555 1_555
C63 C62 1_555 1_555
H45 C63 1_555 1_555
H46 C63 1_555 1_555
C64 N5 1_555 1_555
H47 C64 1_555 1_555
C65 C61 1_555 1_555
H48 C65 1_555 1_555
H49 C65 1_555 1_555
C66 C63 1_555 1_555
H50 C66 1_555 1_555
H51 C66 1_555 1_555
Zn7 O3 1_555 1_555
O22 Zn7 1_555 1_555
H56 C75 1_555 1_555
C76 C75 1_555 1_555
C77 C76 1_555 1_555
H57 C77 1_555 1_555
C78 C77 1_555 1_555
C79 C78 1_555 1_555
H58 C79 1_555 1_555
C80 C79 1_555 1_555
C82 O22 1_555 1_555
Zn12 O18 1_555 1_555
O28 Zn7 1_555 1_555
O29 Zn5 1_555 1_555
O32 Zn7 1_555 1_555
O33 Zn5 1_555 1_555
O17 C60 1_555 1_555
O19 Zn12 1_555 1_555
C46 C51 1_555 1_555
C50 C51 1_555 1_555
C56 C60 1_555 1_555
C58 C59 1_555 1_555
C61 C64 1_555 1_555
C62 C65 1_555 1_555
C64 C66 1_555 1_555
O23 C82 1_555 1_555
C78 C82 1_555 1_555
C58 H69 1_555 1_555
Zn11 O3_2 1_555 1_555
Zn6_2 O14_2 1_555 1_555
O14_2 C59_2 1_555 1_555
O15_2 Zn6_2 1_555 1_555
O16_2 Zn11 1_555 1_555
O28 C52_2 1_555 1_555
O32 C52_2 1_555 1_555
N5_2 Zn6_2 1_555 1_555
N6_2 Zn6_2 1_555 1_555
C45_2 N6_2 1_555 1_555
H35_2 C45_2 1_555 1_555
C46_2 C45_2 1_555 1_555
C47_2 C46_2 1_555 1_555
H36_2 C47_2 1_555 1_555
C48_2 C47_2 1_555 1_555
C49_2 C48_2 1_555 1_555
H37_2 C49_2 1_555 1_555
C50_2 C49_2 1_555 1_555
H38_2 C50_2 1_555 1_555
C51_2 O15_2 1_555 1_555
C52_2 C48_2 1_555 1_555
C53_2 N5_2 1_555 1_555
H39_2 C53_2 1_555 1_555
C54_2 C53_2 1_555 1_555
C55_2 C54_2 1_555 1_555
H40_2 C55_2 1_555 1_555
C56_2 C55_2 1_555 1_555
C57_2 C56_2 1_555 1_555
H41_2 C57_2 1_555 1_555
C58_2 C57_2 1_555 1_555
C59_2 C54_2 1_555 1_555
C60_2 O16_2 1_555 1_555
C61_2 N6_2 1_555 1_555
H42_2 C61_2 1_555 1_555
C62_2 H43_2 1_555 1_555
H44_2 C62_2 1_555 1_555
C63_2 C62_2 1_555 1_555
H45_2 C63_2 1_555 1_555
H46_2 C63_2 1_555 1_555
C64_2 N5_2 1_555 1_555
H47_2 C64_2 1_555 1_555
C65_2 C61_2 1_555 1_555
H48_2 C65_2 1_555 1_555
H49_2 C65_2 1_555 1_555
C66_2 C63_2 1_555 1_555
H50_2 C66_2 1_555 1_555
H51_2 C66_2 1_555 1_555
Zn12 O3_2 1_555 1_555
O22_2 Zn12 1_555 1_555
H56_2 C75_2 1_555 1_555
C76_2 C75_2 1_555 1_555
C77_2 C76_2 1_555 1_555
H57_2 C77_2 1_555 1_555
C78_2 C77_2 1_555 1_555
C79_2 C78_2 1_555 1_555
H58_2 C79_2 1_555 1_555
C80_2 C79_2 1_555 1_555
C82_2 O22_2 1_555 1_555
O17_2 C60_2 1_555 1_555
C46_2 C51_2 1_555 1_555
C50_2 C51_2 1_555 1_555
C56_2 C60_2 1_555 1_555
C58_2 C59_2 1_555 1_555
C61_2 C64_2 1_555 1_555
C62_2 C65_2 1_555 1_555
C64_2 C66_2 1_555 1_555
O23_2 C82_2 1_555 1_555
C78_2 C82_2 1_555 1_555
C58_2 H69_2 1_555 1_555
O29 C74_2 1_555 1_555
O33 C74_2 1_555 1_555
C67_2 N8_2 1_555 1_555
H52_2 C67_2 1_555 1_555
C68_2 C67_2 1_555 1_555
C69_2 C68_2 1_555 1_555
H53_2 C69_2 1_555 1_555
C70_2 C69_2 1_555 1_555
C71_2 C70_2 1_555 1_555
H54_2 C71_2 1_555 1_555
C72_2 C71_2 1_555 1_555
C74_2 C70_2 1_555 1_555
C83_2 N8_2 1_555 1_555
H59_2 C83_2 1_555 1_555
C87_2 C83_2 1_555 1_555
H65_2 C87_2 1_555 1_555
H66_2 C87_2 1_555 1_555
C68_2 C73_2 1_555 1_555
C72_2 C73_2 1_555 1_555
H61 C84 1_555 1_555
C85 C84 1_555 1_555
H62 C85 1_555 1_555
H63 C85 1_555 1_555
C86 N7 1_555 1_555
H64 C86 1_555 1_555
C88 C85 1_555 1_555
H67 C88 1_555 1_555
H68 C88 1_555 1_555
C86 C88 1_555 1_555
O12 C30 1_555 1_555
O13 C30 1_555 1_555
C23 N4 1_555 1_555
H18 C23 1_555 1_555
C24 C23 1_555 1_555
C25 C24 1_555 1_555
H19 C25 1_555 1_555
C26 C25 1_555 1_555
C27 C26 1_555 1_555
H20 C27 1_555 1_555
C28 C27 1_555 1_555
C30 C26 1_555 1_555
C39 N4 1_555 1_555
H25 C39 1_555 1_555
C40 H26 1_555 1_555
H27 C40 1_555 1_555
C41 C40 1_555 1_555
H28 C41 1_555 1_555
H29 C41 1_555 1_555
C42 N3 1_555 1_555
H30 C42 1_555 1_555
C43 C39 1_555 1_555
H31 C43 1_555 1_555
H32 C43 1_555 1_555
C44 C41 1_555 1_555
H33 C44 1_555 1_555
H34 C44 1_555 1_555
Zn9 O12 1_555 1_555
O13 Zn9 1_555 1_555
C24 C29 1_555 1_555
C28 C29 1_555 1_555
C39 C42 1_555 1_555
C40 C43 1_555 1_555
C42 C44 1_555 1_555
Zn2 O1 1_555 1_555
O1 C15 1_555 1_555
O2 Zn2 1_555 1_555
O6 C8 1_555 1_555
O7 C8 1_555 1_555
N2 Zn2 1_555 1_555
C1 N2 1_555 1_555
H1 C1 1_555 1_555
C2 C1 1_555 1_555
C3 C2 1_555 1_555
H2 C3 1_555 1_555
C4 C3 1_555 1_555
C5 C4 1_555 1_555
H3 C5 1_555 1_555
C6 C5 1_555 1_555
H4 C6 1_555 1_555
C7 O2 1_555 1_555
C8 C4 1_555 1_555
C17 N2 1_555 1_555
H8 C17 1_555 1_555
C21 C17 1_555 1_555
H14 C21 1_555 1_555
H15 C21 1_555 1_555
Zn10 O6 1_555 1_555
O7 Zn10 1_555 1_555
C2 C7 1_555 1_555
C6 C7 1_555 1_555
Zn9 O3_3 1_555 1_555
O3_3 Zn10 1_555 1_555
O4 Zn9 1_555 1_555
O5 C16 1_555 1_555
C9 N1 1_555 1_555
H5 C9 1_555 1_555
C10 C9 1_555 1_555
C11 C10 1_555 1_555
H6 C11 1_555 1_555
C12 C11 1_555 1_555
C13 C12 1_555 1_555
H7 C13 1_555 1_555
C14 C13 1_555 1_555
C16 O4 1_555 1_555
H10 C18 1_555 1_555
C19 C18 1_555 1_555
H11 C19 1_555 1_555
H12 C19 1_555 1_555
C20 N1 1_555 1_555
H13 C20 1_555 1_555
C22 C19 1_555 1_555
H16 C22 1_555 1_555
H17 C22 1_555 1_555
Zn10 O10 1_555 1_555
Zn4 O8 1_555 1_555
O8 C37 1_555 1_555
O9 Zn4 1_555 1_555
O10 C38 1_555 1_555
O11 C38 1_555 1_555
H22 C31 1_555 1_555
C32 C31 1_555 1_555
C33 C32 1_555 1_555
H23 C33 1_555 1_555
C34 C33 1_555 1_555
C35 C34 1_555 1_555
H24 C35 1_555 1_555
C36 C35 1_555 1_555
C37 C32 1_555 1_555
C38 C34 1_555 1_555
C12 C16 1_555 1_555
C20 C22 1_555 1_555
C36 C37 1_555 1_555
C36 H75 1_555 1_555
Zn8 O20 1_555 1_555
O20 C81 1_555 1_555
O21 Zn8 1_555 1_555
Zn1 O3_4 1_555 1_555
O3_4 Zn3 1_555 1_555
O4_2 Zn1 1_555 1_555
O5_2 C16_2 1_555 1_555
C9_2 N1_2 1_555 1_555
H5_2 C9_2 1_555 1_555
C10_2 C9_2 1_555 1_555
C11_2 C10_2 1_555 1_555
H6_2 C11_2 1_555 1_555
C12_2 C11_2 1_555 1_555
C13_2 C12_2 1_555 1_555
H7_2 C13_2 1_555 1_555
C14_2 C13_2 1_555 1_555
C16_2 O4_2 1_555 1_555
H10_2 C18_2 1_555 1_555
C19_2 C18_2 1_555 1_555
H11_2 C19_2 1_555 1_555
H12_2 C19_2 1_555 1_555
C20_2 N1_2 1_555 1_555
H13_2 C20_2 1_555 1_555
C22_2 C19_2 1_555 1_555
H16_2 C22_2 1_555 1_555
H17_2 C22_2 1_555 1_555
Zn3 O10_2 1_555 1_555
Zn4_2 O8_2 1_555 1_555
O8_2 C37_2 1_555 1_555
O9_2 Zn4_2 1_555 1_555
O10_2 C38_2 1_555 1_555
O11_2 C38_2 1_555 1_555
H22_2 C31_2 1_555 1_555
C32_2 C31_2 1_555 1_555
C33_2 C32_2 1_555 1_555
H23_2 C33_2 1_555 1_555
C34_2 C33_2 1_555 1_555
C35_2 C34_2 1_555 1_555
H24_2 C35_2 1_555 1_555
C36_2 C35_2 1_555 1_555
C37_2 C32_2 1_555 1_555
C38_2 C34_2 1_555 1_555
O26 Zn3 1_555 1_555
O27 Zn1 1_555 1_555
O30 Zn3 1_555 1_555
O31 Zn1 1_555 1_555
C12_2 C16_2 1_555 1_555
C20_2 C22_2 1_555 1_555
C36_2 C37_2 1_555 1_555
C36_2 H75_2 1_555 1_555
Zn2_2 O1_2 1_555 1_555
O1_2 C15_2 1_555 1_555
O2_2 Zn2_2 1_555 1_555
O26 C8_2 1_555 1_555
O30 C8_2 1_555 1_555
N2_2 Zn2_2 1_555 1_555
C1_2 N2_2 1_555 1_555
H1_2 C1_2 1_555 1_555
C2_2 C1_2 1_555 1_555
C3_2 C2_2 1_555 1_555
H2_2 C3_2 1_555 1_555
C4_2 C3_2 1_555 1_555
C5_2 C4_2 1_555 1_555
H3_2 C5_2 1_555 1_555
C6_2 C5_2 1_555 1_555
H4_2 C6_2 1_555 1_555
C7_2 O2_2 1_555 1_555
C8_2 C4_2 1_555 1_555
C17_2 N2_2 1_555 1_555
H8_2 C17_2 1_555 1_555
C21_2 C17_2 1_555 1_555
H14_2 C21_2 1_555 1_555
H15_2 C21_2 1_555 1_555
C2_2 C7_2 1_555 1_555
C6_2 C7_2 1_555 1_555
O27 C30_2 1_555 1_555
O31 C30_2 1_555 1_555
C23_2 N4_2 1_555 1_555
H18_2 C23_2 1_555 1_555
C24_2 C23_2 1_555 1_555
C25_2 C24_2 1_555 1_555
H19_2 C25_2 1_555 1_555
C26_2 C25_2 1_555 1_555
C27_2 C26_2 1_555 1_555
H20_2 C27_2 1_555 1_555
C28_2 C27_2 1_555 1_555
C30_2 C26_2 1_555 1_555
C39_2 N4_2 1_555 1_555
H25_2 C39_2 1_555 1_555
C40_2 H26_2 1_555 1_555
H27_2 C40_2 1_555 1_555
C41_2 C40_2 1_555 1_555
H28_2 C41_2 1_555 1_555
H29_2 C41_2 1_555 1_555
C42_2 N3_2 1_555 1_555
H30_2 C42_2 1_555 1_555
C43_2 C39_2 1_555 1_555
H31_2 C43_2 1_555 1_555
H32_2 C43_2 1_555 1_555
C44_2 C41_2 1_555 1_555
H33_2 C44_2 1_555 1_555
H34_2 C44_2 1_555 1_555
C24_2 C29_2 1_555 1_555
C28_2 C29_2 1_555 1_555
C39_2 C42_2 1_555 1_555
C40_2 C43_2 1_555 1_555
C42_2 C44_2 1_555 1_555
Zn8_2 O20_2 1_555 1_555
O20_2 C81_2 1_555 1_555
O21_2 Zn8_2 1_555 1_555
H61_2 C84_2 1_555 1_555
C85_2 C84_2 1_555 1_555
H62_2 C85_2 1_555 1_555
H63_2 C85_2 1_555 1_555
C86_2 N7_2 1_555 1_555
H64_2 C86_2 1_555 1_555
C88_2 C85_2 1_555 1_555
H67_2 C88_2 1_555 1_555
H68_2 C88_2 1_555 1_555
C86_2 C88_2 1_555 1_555

#END
