
###############################################################################
#
# This file contains modified crystal structure data generated from the
# MOF subset of the Cambridge Structural Database (CSD) v543 
# hosted by the Cambridge Crystallographic Data Centre (CCDC).
#
# This work is licensed under the Creative Commons
# Attribution-NonCommercial-ShareAlike 4.0 International License.
# To view a copy of this license, visit
# http://creativecommons.org/licenses/by-nc-sa/4.0/
# or send a letter to
# Creative Commons, PO Box 1866, Mountain View, CA 94042, USA.
#
# CIF created using the CSD Python API on 29 September 2022
# The structure has been converted into the P1 space group
# The structure has a 3D framework
# The original CSD entry MOYWOP is in the monoclinic crystal system
# The framework has been calculated to contain at least 10.0% void space
# The void calculation uses a probe of radius 1.32A, grid spacing 0.4
#
###############################################################################

data_MOYWOP
_chemical_formula_moiety         '(C336 H432 I8 N96 O88 Pb30)n'
_symmetry_cell_setting           triclinic
_symmetry_space_group_name_H-M   'P 1'
_symmetry_Int_Tables_number      1
_space_group_name_Hall           'P 1'
loop_
_symmetry_equiv_pos_site_id
_symmetry_equiv_pos_as_xyz
1 x,y,z
_cell_length_a                   33.966(4)
_cell_length_b                   10.9603(12)
_cell_length_c                   31.796(4)
_cell_angle_alpha                90
_cell_angle_beta                 110.018(3)
_cell_angle_gamma                90
_cell_volume                     11121.8
loop_
_atom_site_label
_atom_site_type_symbol
_atom_site_fract_x
_atom_site_fract_y
_atom_site_fract_z
O36 O 0.0233(5) 0.2835(17) 0.2154(6)
C39 C 0.6436(8) 0.074(3) 0.0009(7)
H51 H 0.6727 0.0599 0.0191
H52 H 0.5556 0.0157 0.0151
N9 N 0.6157(8) 0.021(2) 0.0234(6)
H101 H 0.4700 0.0124 0.5640
C80 C 0.3657(9) 0.014(2) 0.5438(7)
H102 H 0.3478 0.0490 0.5588
C81 C 0.3564(8) 0.074(3) 0.4991(7)
H104 H 0.3610 0.1610 0.5028
H105 H 0.3273 0.0599 0.4809
C83 C 0.4271(10) 0.046(3) 0.5014(8)
H106 H 0.4444 0.0157 0.4849
H107 H 0.4310 0.1338 0.5044
O20 O 0.4456(5) 0.0183(15) 0.6516(5)
N21 N 0.3843(8) 0.021(2) 0.4766(6)
C84 C 0.4118(7) 0.033(2) 0.5729(6)
H108 H 0.4163 0.1209 0.5780
Pb25 Pb 0.43435(3) 0.23430(8) 0.68993(3)
O43 O 0.8676(5) 0.1417(15) 0.1684(5)
O44 O 0.1324(5) 0.1417(15) 0.3316(5)
H47 H 0.5300 0.0124 0.9360
C38 C 0.6343(9) 0.014(2) 0.9562(7)
H48 H 0.6522 0.0490 0.9412
H50 H 0.6390 0.1610 0.9972
C41 C 0.5729(10) 0.046(3) 0.9986(8)
H53 H 0.5690 0.1338 0.9956
O8 O 0.5544(5) 0.0183(15) 0.8484(5)
C42 C 0.5882(7) 0.033(2) 0.9271(6)
H54 H 0.5837 0.1209 0.9220
Pb23 Pb 0.56565(3) 0.23430(8) 0.81007(3)
I1 I 0.87876(6) 0.43308(16) 0.22527(7)
Pb1 Pb 0.5000 0.45134(10) 0.2500
Pb2 Pb 0.87169(2) 0.95779(8) 0.21349(2)
Pb3 Pb 0.92996(3) 0.65531(8) 0.19613(3)
Pb4 Pb 0.93435(3) 0.26570(8) 0.18993(3)
C1 C 0.8270(6) 0.778(2) 0.1516(7)
C2 C 0.8020(8) 0.680(3) 0.1196(9)
H1 H 0.8217 0.6167 0.1177
C3 C 0.7716(9) 0.622(4) 0.1390(11)
H2 H 0.7818 0.5413 0.1494
H3 H 0.7721 0.6696 0.1650
C4 C 0.7293(9) 0.612(5) 0.1100(11)
H4 H 0.7116 0.5929 0.1274
H5 H 0.7269 0.5465 0.0888
C5 C 0.7425(10) 0.796(5) 0.0667(12)
H6 H 0.7281 0.8110 0.0350
H7 H 0.7499 0.8739 0.0817
C6 C 0.7792(9) 0.726(4) 0.0728(10)
H8 H 0.7985 0.7754 0.0636
H9 H 0.7716 0.6563 0.0529
C7 C 0.6765(8) 0.773(3) 0.0787(8)
C8 C 0.6118(8) 0.761(2) 0.0843(7)
C9 C 0.6294(10) 0.913(2) 0.0470(7)
C10 C 0.5963(9) 0.591(2) 0.1272(9)
H10 H 0.6249 0.5683 0.1312
H11 H 0.5781 0.5240 0.1130
C11 C 0.5921(7) 0.619(2) 0.1736(7)
H12 H 0.5975 0.5453 0.1915
H13 H 0.6128 0.6797 0.1892
C12 C 0.5484(7) 0.666(2) 0.1676(6)
H14 H 0.5288 0.5995 0.1543
C13 C 0.5359(9) 0.773(3) 0.1354(8)
H15 H 0.5532 0.8432 0.1486
H16 H 0.5070 0.7944 0.1303
C14 C 0.5413(8) 0.742(3) 0.0896(8)
H17 H 0.5219 0.6777 0.0746
H18 H 0.5354 0.8131 0.0705
C15 C 0.5437(8) 0.6955(19) 0.2121(7)
C16 C 0.8052(7) 0.184(3) 0.1087(7)
H19 H 0.8010 0.1033 0.0942
C17 C 0.7803(9) 0.187(3) 0.1421(9)
H20 H 0.7886 0.1174 0.1622
H21 H 0.7876 0.2603 0.1601
C18 C 0.7372(8) 0.183(3) 0.1204(8)
H22 H 0.7234 0.1901 0.1425
H23 H 0.7296 0.1052 0.1056
C19 C 0.7427(9) 0.285(3) 0.0551(10)
H24 H 0.7322 0.2199 0.0336
H25 H 0.7359 0.3620 0.0390
C20 C 0.7871(8) 0.275(4) 0.0747(9)
H26 H 0.7979 0.3532 0.0875
H27 H 0.7979 0.2598 0.0505
C21 C 0.6820(8) 0.314(2) 0.0751(7)
C22 C 0.6185(8) 0.286(2) 0.0813(7)
C23 C 0.6264(7) 0.413(2) 0.0283(6)
C30 C 0.6094(9) 0.149(3) 0.1386(8)
H37 H 0.6397 0.1436 0.1470
H38 H 0.5977 0.0684 0.1312
C31 C 0.5980(7) 0.201(2) 0.1777(8)
H39 H 0.6103 0.2816 0.1855
H40 H 0.6091 0.1488 0.2036
C32 C 0.5499(7) 0.2102(18) 0.1644(6)
H41 H 0.5386 0.1272 0.1608
C33 C 0.5310(7) 0.277(2) 0.1194(6)
H42 H 0.5010 0.2645 0.1085
H43 H 0.5359 0.3640 0.1246
C34 C 0.5481(8) 0.238(3) 0.0827(7)
H44 H 0.5365 0.1596 0.0710
H45 H 0.5394 0.2970 0.0584
C35 C 0.5369(6) 0.2733(17) 0.1992(6)
C36 C 0.8502(7) 0.200(2) 0.1322(8)
O2 O 0.5599(5) 0.3298(18) 0.2300(5)
O3 O 0.4986(4) 0.2684(14) 0.1944(5)
O5 O 0.8563(5) 0.7421(15) 0.1872(6)
O6 O 0.8192(6) 0.8881(17) 0.1454(5)
O7 O 0.5233(5) 0.7835(17) 0.2154(6)
O11 O 0.8705(6) 0.2706(18) 0.1184(6)
O12 O 0.5584(5) 0.6212(16) 0.2440(5)
N1 N 0.7218(6) 0.280(2) 0.0875(7)
N2 N 0.6593(6) 0.2649(18) 0.0985(6)
N3 N 0.5992(5) 0.3609(17) 0.0453(5)
N4 N 0.6665(6) 0.3908(17) 0.0406(5)
N5 N 0.5926(6) 0.231(2) 0.0994(6)
N7 N 0.6665(7) 0.873(3) 0.0546(7)
N8 N 0.6504(6) 0.7121(18) 0.0951(5)
N10 N 0.5980(6) 0.858(2) 0.0595(6)
N11 N 0.5846(7) 0.701(2) 0.0985(7)
N12 N 0.7150(8) 0.727(3) 0.0855(8)
I2 I 0.12124(6) 0.43308(16) 0.27473(7)
Pb5 Pb 0.12831(2) 0.95779(8) 0.28651(2)
Pb6 Pb 0.07004(3) 0.65531(8) 0.30387(3)
Pb7 Pb 0.06565(3) 0.26570(8) 0.31007(3)
C43 C 0.1730(6) 0.778(2) 0.3484(7)
C44 C 0.1980(8) 0.680(3) 0.3804(9)
H55 H 0.1783 0.6167 0.3823
C45 C 0.2284(9) 0.622(4) 0.3610(11)
H56 H 0.2182 0.5413 0.3506
H57 H 0.2279 0.6696 0.3350
C46 C 0.2707(9) 0.612(5) 0.3900(11)
H58 H 0.2884 0.5929 0.3726
H59 H 0.2731 0.5465 0.4112
C47 C 0.2575(10) 0.796(5) 0.4333(12)
H60 H 0.2719 0.8110 0.4650
H61 H 0.2501 0.8739 0.4183
C48 C 0.2208(9) 0.726(4) 0.4272(10)
H62 H 0.2015 0.7754 0.4364
H63 H 0.2284 0.6563 0.4471
C49 C 0.3235(8) 0.773(3) 0.4213(8)
C50 C 0.3882(8) 0.761(2) 0.4157(7)
C51 C 0.3706(10) 0.913(2) 0.4530(7)
C52 C 0.4037(9) 0.591(2) 0.3728(9)
H64 H 0.3751 0.5683 0.3688
H65 H 0.4219 0.5240 0.3870
C53 C 0.4079(7) 0.619(2) 0.3264(7)
H66 H 0.4025 0.5453 0.3085
H67 H 0.3872 0.6797 0.3108
C54 C 0.4516(7) 0.666(2) 0.3324(6)
H68 H 0.4712 0.5995 0.3457
C55 C 0.4641(9) 0.773(3) 0.3646(8)
H69 H 0.4468 0.8432 0.3514
H70 H 0.4930 0.7944 0.3697
C56 C 0.4587(8) 0.742(3) 0.4104(8)
H71 H 0.4781 0.6777 0.4254
H72 H 0.4646 0.8131 0.4295
C57 C 0.4563(8) 0.6955(19) 0.2879(7)
C58 C 0.1948(7) 0.184(3) 0.3913(7)
H73 H 0.1990 0.1033 0.4058
C59 C 0.2197(9) 0.187(3) 0.3579(9)
H74 H 0.2114 0.1174 0.3378
H75 H 0.2124 0.2603 0.3399
C60 C 0.2628(8) 0.183(3) 0.3796(8)
H76 H 0.2766 0.1901 0.3575
H77 H 0.2704 0.1052 0.3944
C61 C 0.2573(9) 0.285(3) 0.4449(10)
H78 H 0.2678 0.2199 0.4664
H79 H 0.2641 0.3620 0.4610
C62 C 0.2129(8) 0.275(4) 0.4253(9)
H80 H 0.2021 0.3532 0.4125
H81 H 0.2021 0.2598 0.4495
C63 C 0.3180(8) 0.314(2) 0.4249(7)
C64 C 0.3815(8) 0.286(2) 0.4187(7)
C65 C 0.3736(7) 0.413(2) 0.4717(6)
C66 C 0.4349(7) 0.516(2) 0.5262(6)
H82 H 0.4420 0.6001 0.5220
H83 H 0.4497 0.4635 0.5122
C67 C 0.4485(7) 0.488(2) 0.5758(6)
H84 H 0.4780 0.5083 0.5899
H85 H 0.4452 0.4016 0.5800
C68 C 0.4224(6) 0.5617(19) 0.5983(6)
H86 H 0.4276 0.6486 0.5952
C69 C 0.3760(7) 0.538(2) 0.5741(6)
H87 H 0.3596 0.5888 0.5869
H88 H 0.3697 0.4535 0.5778
C70 C 0.3646(7) 0.567(2) 0.5242(6)
H89 H 0.3353 0.5480 0.5087
H90 H 0.3685 0.6536 0.5204
C71 C 0.4341(7) 0.5335(19) 0.6480(6)
C72 C 0.3906(9) 0.149(3) 0.3614(8)
H91 H 0.3603 0.1436 0.3530
H92 H 0.4023 0.0684 0.3688
C73 C 0.4020(7) 0.201(2) 0.3223(8)
H93 H 0.3897 0.2816 0.3145
H94 H 0.3909 0.1488 0.2964
C74 C 0.4501(7) 0.2102(18) 0.3356(6)
H95 H 0.4614 0.1272 0.3392
C75 C 0.4690(7) 0.277(2) 0.3806(6)
H96 H 0.4990 0.2645 0.3915
H97 H 0.4641 0.3640 0.3754
C76 C 0.4519(8) 0.238(3) 0.4173(7)
H98 H 0.4635 0.1596 0.4290
H99 H 0.4606 0.2970 0.4416
C77 C 0.4631(6) 0.2733(17) 0.3008(6)
C78 C 0.1498(7) 0.200(2) 0.3678(8)
C79 C 0.4414(8) 0.989(2) 0.5475(7)
H100 H 0.4403 0.9005 0.5449
H103 H 0.3597 0.9278 0.5397
C82 C 0.4219(8) 0.973(2) 0.6173(7)
O13 O 0.4604(5) 0.4530(16) 0.6663(5)
O14 O 0.4401(5) 0.3298(18) 0.2700(5)
O15 O 0.5014(4) 0.2684(14) 0.3056(5)
O16 O 0.4171(4) 0.6040(12) 0.6714(4)
O17 O 0.1437(5) 0.7421(15) 0.3128(6)
O18 O 0.1808(6) 0.8881(17) 0.3546(5)
O19 O 0.4767(5) 0.7835(17) 0.2846(6)
O21 O 0.4039(6) 0.8681(15) 0.6182(5)
O23 O 0.1295(6) 0.2706(18) 0.3816(6)
O24 O 0.4416(5) 0.6212(16) 0.2560(5)
N13 N 0.2782(6) 0.280(2) 0.4125(7)
N14 N 0.3407(6) 0.2649(18) 0.4015(6)
N15 N 0.4008(5) 0.3609(17) 0.4547(5)
N16 N 0.3335(6) 0.3908(17) 0.4594(5)
N17 N 0.4074(6) 0.231(2) 0.4006(6)
N18 N 0.3900(5) 0.4984(18) 0.5050(6)
N19 N 0.3335(7) 0.873(3) 0.4454(7)
N20 N 0.3496(6) 0.7121(18) 0.4049(5)
N22 N 0.4020(6) 0.858(2) 0.4405(6)
N23 N 0.4154(7) 0.701(2) 0.4015(7)
N24 N 0.2850(8) 0.727(3) 0.4145(8)
Pb9 Pb 0.5000 0.54866(10) 0.7500
Pb12 Pb 0.37169(2) 0.45779(8) 0.21349(2)
Pb13 Pb 0.62831(2) 0.45779(8) 0.28651(2)
Pb15 Pb 0.37169(2) 0.54221(8) 0.71349(2)
Pb16 Pb 0.42996(3) 0.15531(8) 0.19613(3)
Pb17 Pb 0.57004(3) 0.15531(8) 0.30387(3)
Pb19 Pb 0.42996(3) 0.84469(8) 0.69613(3)
Pb20 Pb 0.43435(3) 0.76570(8) 0.18993(3)
Pb21 Pb 0.56565(3) 0.76570(8) 0.31007(3)
O25 O 0.4604(5) 0.5470(16) 0.1663(5)
O26 O 0.5396(5) 0.5470(16) 0.3337(5)
O27 O 0.9604(5) 0.0470(16) 0.1663(5)
O28 O 0.0396(5) 0.0470(16) 0.3337(5)
O29 O 0.0599(5) 0.8298(18) 0.2300(5)
O30 O 0.9401(5) 0.8298(18) 0.2700(5)
O31 O 0.9986(4) 0.7684(14) 0.1944(5)
O32 O 0.0014(4) 0.7684(14) 0.3056(5)
O33 O 0.9171(4) 0.8960(12) 0.1714(4)
O34 O 0.0829(4) 0.8960(12) 0.3286(4)
O38 O 0.9767(5) 0.2835(17) 0.2846(6)
O39 O 0.9456(5) 0.4817(15) 0.1516(5)
O40 O 0.0544(5) 0.4817(15) 0.3484(5)
O41 O 0.9039(6) 0.6319(15) 0.1182(5)
O42 O 0.0961(6) 0.6319(15) 0.3818(5)
O45 O 0.0584(5) 0.1212(16) 0.2440(5)
O46 O 0.9416(5) 0.1212(16) 0.2560(5)
C24 C 0.5651(7) 0.516(2) 0.9738(6)
H28 H 0.5580 0.6001 0.9780
H29 H 0.5503 0.4635 0.9878
C25 C 0.5515(7) 0.488(2) 0.9242(6)
H30 H 0.5220 0.5083 0.9101
H31 H 0.5548 0.4016 0.9200
C26 C 0.5776(6) 0.5617(19) 0.9017(6)
H32 H 0.5724 0.6486 0.9048
C27 C 0.6240(7) 0.538(2) 0.9259(6)
H33 H 0.6404 0.5888 0.9131
H34 H 0.6303 0.4535 0.9222
C28 C 0.6354(7) 0.567(2) 0.9758(6)
H35 H 0.6647 0.5480 0.9913
H36 H 0.6315 0.6536 0.9796
C29 C 0.5659(7) 0.5335(19) 0.8520(6)
C37 C 0.5586(8) 0.989(2) 0.9525(7)
H46 H 0.5597 0.9005 0.9551
H49 H 0.6403 0.9278 0.9603
C40 C 0.5781(8) 0.973(2) 0.8827(7)
O1 O 0.5396(5) 0.4530(16) 0.8337(5)
O4 O 0.5829(4) 0.6040(12) 0.8286(4)
O9 O 0.5961(6) 0.8681(15) 0.8818(5)
N6 N 0.6100(5) 0.4984(18) 0.9950(6)
Pb14 Pb 0.62831(2) 0.54221(8) 0.78651(2)
Pb18 Pb 0.57004(3) 0.84469(8) 0.80387(3)
C1_2 C 0.3270(6) 0.278(2) 0.1516(7)
C2_2 C 0.3020(8) 0.180(3) 0.1196(9)
H1_2 H 0.3217 0.1167 0.1177
C3_2 C 0.2716(9) 0.122(4) 0.1390(11)
H2_2 H 0.2818 0.0413 0.1494
H3_2 H 0.2721 0.1696 0.1650
C4_2 C 0.2293(9) 0.112(5) 0.1100(11)
H4_2 H 0.2116 0.0929 0.1274
H5_2 H 0.2269 0.0465 0.0888
C5_2 C 0.2425(10) 0.296(5) 0.0667(12)
H6_2 H 0.2281 0.3110 0.0350
H7_2 H 0.2499 0.3739 0.0817
C6_2 C 0.2792(9) 0.226(4) 0.0728(10)
H8_2 H 0.2985 0.2754 0.0636
H9_2 H 0.2716 0.1563 0.0529
C7_2 C 0.1765(8) 0.273(3) 0.0787(8)
C8_2 C 0.1118(8) 0.261(2) 0.0843(7)
C9_2 C 0.1294(10) 0.413(2) 0.0470(7)
C10_2 C 0.0963(9) 0.091(2) 0.1272(9)
H10_2 H 0.1249 0.0683 0.1312
H11_2 H 0.0781 0.0240 0.1130
C11_2 C 0.0921(7) 0.119(2) 0.1736(7)
H12_2 H 0.0975 0.0453 0.1915
H13_2 H 0.1128 0.1797 0.1892
C12_2 C 0.0484(7) 0.166(2) 0.1676(6)
H14_2 H 0.0288 0.0995 0.1543
C13_2 C 0.0359(9) 0.273(3) 0.1354(8)
H15_2 H 0.0532 0.3432 0.1486
H16_2 H 0.0070 0.2944 0.1303
C14_2 C 0.0413(8) 0.242(3) 0.0896(8)
H17_2 H 0.0219 0.1777 0.0746
H18_2 H 0.0354 0.3131 0.0705
C15_2 C 0.0437(8) 0.1955(19) 0.2121(7)
C39_2 C 0.1436(8) 0.574(3) 0.0009(7)
H51_2 H 0.1727 0.5599 0.0191
H52_2 H 0.0556 0.5157 0.0151
O5_2 O 0.3563(5) 0.2421(15) 0.1872(6)
O6_2 O 0.3192(6) 0.3881(17) 0.1454(5)
N7_2 N 0.1665(7) 0.373(3) 0.0546(7)
N8_2 N 0.1504(6) 0.2121(18) 0.0951(5)
N9_2 N 0.1157(8) 0.521(2) 0.0234(6)
N10_2 N 0.0980(6) 0.358(2) 0.0595(6)
N11_2 N 0.0846(7) 0.201(2) 0.0985(7)
N12_2 N 0.2150(8) 0.227(3) 0.0855(8)
Pb9_2 Pb -0.0000 0.04866(10) 0.7500
O33_2 O 0.4171(4) 0.3960(12) 0.1714(4)
O41_2 O 0.4039(6) 0.1319(15) 0.1182(5)
O43_2 O 0.3676(5) 0.6417(15) 0.1684(5)
C24_2 C 0.0651(7) 0.016(2) 0.9738(6)
H28_2 H 0.0580 0.1001 0.9780
H30_2 H 0.0220 0.0083 0.9101
C26_2 C 0.0776(6) 0.0617(19) 0.9017(6)
H32_2 H 0.0724 0.1486 0.9048
C27_2 C 0.1240(7) 0.038(2) 0.9259(6)
H33_2 H 0.1404 0.0888 0.9131
C28_2 C 0.1354(7) 0.067(2) 0.9758(6)
H35_2 H 0.1647 0.0480 0.9913
H36_2 H 0.1315 0.1536 0.9796
C29_2 C 0.0659(7) 0.0335(19) 0.8520(6)
C37_2 C 0.0586(8) 0.489(2) 0.9525(7)
H46_2 H 0.0597 0.4005 0.9551
H47_2 H 0.0300 0.5124 0.9360
C38_2 C 0.1343(9) 0.514(2) 0.9562(7)
H48_2 H 0.1522 0.5490 0.9412
H49_2 H 0.1403 0.4278 0.9603
H50_2 H 0.1390 0.6610 0.9972
C40_2 C 0.0781(8) 0.473(2) 0.8827(7)
C41_2 C 0.0729(10) 0.546(3) 0.9986(8)
H53_2 H 0.0690 0.6338 0.9956
O4_2 O 0.0829(4) 0.1040(12) 0.8286(4)
O8_2 O 0.0544(5) 0.5183(15) 0.8484(5)
O9_2 O 0.0961(6) 0.3681(15) 0.8818(5)
C42_2 C 0.0882(7) 0.533(2) 0.9271(6)
H54_2 H 0.0837 0.6209 0.9220
Pb14_2 Pb 0.12831(2) 0.04221(8) 0.78651(2)
Pb18_2 Pb 0.07004(3) 0.34469(8) 0.80387(3)
Pb23_2 Pb 0.06565(3) 0.73430(8) 0.81007(3)
I1_2 I 0.37876(6) 0.93308(16) 0.22527(7)
Pb1_2 Pb 0.0000 0.95134(10) 0.2500
C16_2 C 0.3052(7) 0.684(3) 0.1087(7)
H19_2 H 0.3010 0.6033 0.0942
C17_2 C 0.2803(9) 0.687(3) 0.1421(9)
H20_2 H 0.2886 0.6174 0.1622
H21_2 H 0.2876 0.7603 0.1601
C18_2 C 0.2372(8) 0.683(3) 0.1204(8)
H22_2 H 0.2234 0.6901 0.1425
H23_2 H 0.2296 0.6052 0.1056
C19_2 C 0.2427(9) 0.785(3) 0.0551(10)
H24_2 H 0.2322 0.7199 0.0336
H25_2 H 0.2359 0.8620 0.0390
C20_2 C 0.2871(8) 0.775(4) 0.0747(9)
H26_2 H 0.2979 0.8532 0.0875
H27_2 H 0.2979 0.7598 0.0505
C21_2 C 0.1820(8) 0.814(2) 0.0751(7)
C22_2 C 0.1185(8) 0.786(2) 0.0813(7)
C23_2 C 0.1264(7) 0.913(2) 0.0283(6)
C30_2 C 0.1094(9) 0.649(3) 0.1386(8)
H37_2 H 0.1397 0.6436 0.1470
H38_2 H 0.0977 0.5684 0.1312
C31_2 C 0.0980(7) 0.701(2) 0.1777(8)
H39_2 H 0.1103 0.7816 0.1855
H40_2 H 0.1091 0.6488 0.2036
C32_2 C 0.0499(7) 0.7102(18) 0.1644(6)
H41_2 H 0.0386 0.6272 0.1608
C33_2 C 0.0310(7) 0.777(2) 0.1194(6)
H42_2 H 0.0010 0.7645 0.1085
H43_2 H 0.0359 0.8640 0.1246
C34_2 C 0.0481(8) 0.738(3) 0.0827(7)
H44_2 H 0.0365 0.6596 0.0710
H45_2 H 0.0394 0.7970 0.0584
C35_2 C 0.0369(6) 0.7733(17) 0.1992(6)
C36_2 C 0.3502(7) 0.700(2) 0.1322(8)
O11_2 O 0.3705(6) 0.7706(18) 0.1184(6)
N1_2 N 0.2218(6) 0.780(2) 0.0875(7)
N2_2 N 0.1593(6) 0.7649(18) 0.0985(6)
N3_2 N 0.0992(5) 0.8609(17) 0.0453(5)
N4_2 N 0.1665(6) 0.8908(17) 0.0406(5)
N5_2 N 0.0926(6) 0.731(2) 0.0994(6)
O39_2 O 0.4456(5) 0.9817(15) 0.1516(5)
H29_2 H 0.0503 0.9635 0.9878
C25_2 C 0.0515(7) 0.988(2) 0.9242(6)
H31_2 H 0.0548 0.9016 0.9200
H34_2 H 0.1303 0.9535 0.9222
O1_2 O 0.0396(5) 0.9530(16) 0.8337(5)
N6_2 N 0.1100(5) 0.9984(18) 0.9950(6)
C43_2 C 0.6730(6) 0.278(2) 0.3484(7)
C44_2 C 0.6980(8) 0.180(3) 0.3804(9)
H55_2 H 0.6783 0.1167 0.3823
C45_2 C 0.7284(9) 0.122(4) 0.3610(11)
H56_2 H 0.7182 0.0413 0.3506
H57_2 H 0.7279 0.1696 0.3350
C46_2 C 0.7707(9) 0.112(5) 0.3900(11)
H58_2 H 0.7884 0.0929 0.3726
H59_2 H 0.7731 0.0465 0.4112
C47_2 C 0.7575(10) 0.296(5) 0.4333(12)
H60_2 H 0.7719 0.3110 0.4650
H61_2 H 0.7501 0.3739 0.4183
C48_2 C 0.7208(9) 0.226(4) 0.4272(10)
H62_2 H 0.7015 0.2754 0.4364
H63_2 H 0.7284 0.1563 0.4471
C49_2 C 0.8235(8) 0.273(3) 0.4213(8)
C50_2 C 0.8882(8) 0.261(2) 0.4157(7)
C51_2 C 0.8706(10) 0.413(2) 0.4530(7)
C52_2 C 0.9037(9) 0.091(2) 0.3728(9)
H64_2 H 0.8751 0.0683 0.3688
H65_2 H 0.9219 0.0240 0.3870
C53_2 C 0.9079(7) 0.119(2) 0.3264(7)
H66_2 H 0.9025 0.0453 0.3085
H67_2 H 0.8872 0.1797 0.3108
C54_2 C 0.9516(7) 0.166(2) 0.3324(6)
H68_2 H 0.9712 0.0995 0.3457
C55_2 C 0.9641(9) 0.273(3) 0.3646(8)
H69_2 H 0.9468 0.3432 0.3514
H70_2 H 0.9930 0.2944 0.3697
C56_2 C 0.9587(8) 0.242(3) 0.4104(8)
H71_2 H 0.9781 0.1777 0.4254
H72_2 H 0.9646 0.3131 0.4295
C57_2 C 0.9563(8) 0.1955(19) 0.2879(7)
C66_2 C 0.9349(7) 0.016(2) 0.5262(6)
H82_2 H 0.9420 0.1001 0.5220
H84_2 H 0.9780 0.0083 0.5899
C68_2 C 0.9224(6) 0.0617(19) 0.5983(6)
H86_2 H 0.9276 0.1486 0.5952
C69_2 C 0.8760(7) 0.038(2) 0.5741(6)
H87_2 H 0.8596 0.0888 0.5869
C70_2 C 0.8646(7) 0.067(2) 0.5242(6)
H89_2 H 0.8353 0.0480 0.5087
H90_2 H 0.8685 0.1536 0.5204
C71_2 C 0.9341(7) 0.0335(19) 0.6480(6)
C79_2 C 0.9414(8) 0.489(2) 0.5475(7)
H100_2 H 0.9403 0.4005 0.5449
H101_2 H 0.9700 0.5124 0.5640
C80_2 C 0.8657(9) 0.514(2) 0.5438(7)
H102_2 H 0.8478 0.5490 0.5588
H103_2 H 0.8597 0.4278 0.5397
C81_2 C 0.8564(8) 0.574(3) 0.4991(7)
H104_2 H 0.8610 0.6610 0.5028
H105_2 H 0.8273 0.5599 0.4809
C82_2 C 0.9219(8) 0.473(2) 0.6173(7)
C83_2 C 0.9271(10) 0.546(3) 0.5014(8)
H106_2 H 0.9444 0.5157 0.4849
H107_2 H 0.9310 0.6338 0.5044
O16_2 O 0.9171(4) 0.1040(12) 0.6714(4)
O17_2 O 0.6437(5) 0.2421(15) 0.3128(6)
O18_2 O 0.6808(6) 0.3881(17) 0.3546(5)
O20_2 O 0.9456(5) 0.5183(15) 0.6516(5)
O21_2 O 0.9039(6) 0.3681(15) 0.6182(5)
N19_2 N 0.8335(7) 0.373(3) 0.4454(7)
N20_2 N 0.8496(6) 0.2121(18) 0.4049(5)
N21_2 N 0.8843(8) 0.521(2) 0.4766(6)
N22_2 N 0.9020(6) 0.358(2) 0.4405(6)
N23_2 N 0.9154(7) 0.201(2) 0.4015(7)
C84_2 C 0.9118(7) 0.533(2) 0.5729(6)
H108_2 H 0.9163 0.6209 0.5780
N24_2 N 0.7850(8) 0.227(3) 0.4145(8)
Pb9_3 Pb 1.0000 0.04866(10) 0.7500
Pb15_2 Pb 0.87169(2) 0.04221(8) 0.71349(2)
Pb19_2 Pb 0.92996(3) 0.34469(8) 0.69613(3)
Pb25_2 Pb 0.93435(3) 0.73430(8) 0.68993(3)
O34_2 O 0.5829(4) 0.3960(12) 0.3286(4)
O42_2 O 0.5961(6) 0.1319(15) 0.3818(5)
O44_2 O 0.6324(5) 0.6417(15) 0.3316(5)
Pb1_3 Pb 1.0000 0.95134(10) 0.2500
I2_2 I 0.62124(6) 0.93308(16) 0.27473(7)
C58_2 C 0.6948(7) 0.684(3) 0.3913(7)
H73_2 H 0.6990 0.6033 0.4058
C59_2 C 0.7197(9) 0.687(3) 0.3579(9)
H74_2 H 0.7114 0.6174 0.3378
H75_2 H 0.7124 0.7603 0.3399
C60_2 C 0.7628(8) 0.683(3) 0.3796(8)
H76_2 H 0.7766 0.6901 0.3575
H77_2 H 0.7704 0.6052 0.3944
C61_2 C 0.7573(9) 0.785(3) 0.4449(10)
H78_2 H 0.7678 0.7199 0.4664
H79_2 H 0.7641 0.8620 0.4610
C62_2 C 0.7129(8) 0.775(4) 0.4253(9)
H80_2 H 0.7021 0.8532 0.4125
H81_2 H 0.7021 0.7598 0.4495
C63_2 C 0.8180(8) 0.814(2) 0.4249(7)
C64_2 C 0.8815(8) 0.786(2) 0.4187(7)
C65_2 C 0.8736(7) 0.913(2) 0.4717(6)
H83_2 H 0.9497 0.9635 0.5122
C67_2 C 0.9485(7) 0.988(2) 0.5758(6)
H85_2 H 0.9452 0.9016 0.5800
H88_2 H 0.8697 0.9535 0.5778
C72_2 C 0.8906(9) 0.649(3) 0.3614(8)
H91_2 H 0.8603 0.6436 0.3530
H92_2 H 0.9023 0.5684 0.3688
C73_2 C 0.9020(7) 0.701(2) 0.3223(8)
H93_2 H 0.8897 0.7816 0.3145
H94_2 H 0.8909 0.6488 0.2964
C74_2 C 0.9501(7) 0.7102(18) 0.3356(6)
H95_2 H 0.9614 0.6272 0.3392
C75_2 C 0.9690(7) 0.777(2) 0.3806(6)
H96_2 H 0.9990 0.7645 0.3915
H97_2 H 0.9641 0.8640 0.3754
C76_2 C 0.9519(8) 0.738(3) 0.4173(7)
H98_2 H 0.9635 0.6596 0.4290
H99_2 H 0.9606 0.7970 0.4416
C77_2 C 0.9631(6) 0.7733(17) 0.3008(6)
C78_2 C 0.6498(7) 0.700(2) 0.3678(8)
O13_2 O 0.9604(5) 0.9530(16) 0.6663(5)
O23_2 O 0.6295(6) 0.7706(18) 0.3816(6)
N13_2 N 0.7782(6) 0.780(2) 0.4125(7)
N14_2 N 0.8407(6) 0.7649(18) 0.4015(6)
N15_2 N 0.9008(5) 0.8609(17) 0.4547(5)
N16_2 N 0.8335(6) 0.8908(17) 0.4594(5)
N17_2 N 0.9074(6) 0.731(2) 0.4006(6)
N18_2 N 0.8900(5) 0.9984(18) 0.5050(6)
O40_2 O 0.5544(5) 0.9817(15) 0.3484(5)
O37 O 0.0233(5) 0.7165(17) 0.7154(6)
C24_3 C 0.4349(7) 0.484(2) 0.0262(6)
H28_3 H 0.4420 0.3999 0.0220
H29_3 H 0.4497 0.5365 0.0122
C25_3 C 0.4485(7) 0.512(2) 0.0758(6)
H30_3 H 0.4780 0.4917 0.0899
H31_3 H 0.4452 0.5984 0.0800
C26_3 C 0.4224(6) 0.4383(19) 0.0983(6)
H32_3 H 0.4276 0.3514 0.0952
C27_3 C 0.3760(7) 0.462(2) 0.0741(6)
H33_3 H 0.3596 0.4112 0.0869
H34_3 H 0.3697 0.5465 0.0778
C28_3 C 0.3646(7) 0.433(2) 0.0242(6)
H35_3 H 0.3353 0.4520 0.0087
H36_3 H 0.3685 0.3464 0.0204
C29_3 C 0.4341(7) 0.4665(19) 0.1480(6)
C37_3 C 0.4414(8) 0.011(2) 0.0475(7)
H46_3 H 0.4403 0.0995 0.0449
H49_3 H 0.3597 0.0722 0.0397
C40_3 C 0.4219(8) 0.027(2) 0.1173(7)
N6_3 N 0.3900(5) 0.5016(18) 0.0050(6)
I1_3 I 0.12124(6) 0.56692(16) 0.77473(7)
C1_3 C 0.1730(6) 0.222(2) 0.8484(7)
C2_3 C 0.1980(8) 0.320(3) 0.8804(9)
H1_3 H 0.1783 0.3833 0.8823
C3_3 C 0.2284(9) 0.378(4) 0.8610(11)
H2_3 H 0.2182 0.4587 0.8506
H3_3 H 0.2279 0.3304 0.8350
C4_3 C 0.2707(9) 0.388(5) 0.8900(11)
H4_3 H 0.2884 0.4071 0.8726
H5_3 H 0.2731 0.4535 0.9112
C5_3 C 0.2575(10) 0.204(5) 0.9333(12)
H6_3 H 0.2719 0.1890 0.9650
H7_3 H 0.2501 0.1261 0.9183
C6_3 C 0.2208(9) 0.274(4) 0.9272(10)
H8_3 H 0.2015 0.2246 0.9364
H9_3 H 0.2284 0.3437 0.9471
C7_3 C 0.3235(8) 0.227(3) 0.9213(8)
C8_3 C 0.3882(8) 0.239(2) 0.9157(7)
C9_3 C 0.3706(10) 0.087(2) 0.9530(7)
C10_3 C 0.4037(9) 0.409(2) 0.8728(9)
H10_3 H 0.3751 0.4317 0.8688
H11_3 H 0.4219 0.4760 0.8870
C11_3 C 0.4079(7) 0.381(2) 0.8264(7)
H12_3 H 0.4025 0.4547 0.8085
H13_3 H 0.3872 0.3203 0.8108
C12_3 C 0.4516(7) 0.334(2) 0.8324(6)
H14_3 H 0.4712 0.4005 0.8457
C13_3 C 0.4641(9) 0.227(3) 0.8646(8)
H15_3 H 0.4468 0.1568 0.8514
H16_3 H 0.4930 0.2056 0.8697
C14_3 C 0.4587(8) 0.258(3) 0.9104(8)
H17_3 H 0.4781 0.3223 0.9254
H18_3 H 0.4646 0.1869 0.9295
C15_3 C 0.4563(8) 0.3045(19) 0.7879(7)
C16_3 C 0.1948(7) 0.816(3) 0.8913(7)
H19_3 H 0.1990 0.8967 0.9058
C17_3 C 0.2197(9) 0.813(3) 0.8579(9)
H20_3 H 0.2114 0.8826 0.8378
H21_3 H 0.2124 0.7397 0.8399
C18_3 C 0.2628(8) 0.817(3) 0.8796(8)
H22_3 H 0.2766 0.8099 0.8575
H23_3 H 0.2704 0.8948 0.8944
C19_3 C 0.2573(9) 0.715(3) 0.9449(10)
H24_3 H 0.2678 0.7801 0.9664
H25_3 H 0.2641 0.6380 0.9610
C20_3 C 0.2129(8) 0.725(4) 0.9253(9)
H26_3 H 0.2021 0.6468 0.9125
H27_3 H 0.2021 0.7402 0.9495
C21_3 C 0.3180(8) 0.686(2) 0.9249(7)
C22_3 C 0.3815(8) 0.714(2) 0.9187(7)
C23_3 C 0.3736(7) 0.587(2) 0.9717(6)
C30_3 C 0.3906(9) 0.851(3) 0.8614(8)
H37_3 H 0.3603 0.8564 0.8530
H38_3 H 0.4023 0.9316 0.8688
C31_3 C 0.4020(7) 0.799(2) 0.8223(8)
H39_3 H 0.3897 0.7184 0.8145
H40_3 H 0.3909 0.8512 0.7964
C32_3 C 0.4501(7) 0.7898(18) 0.8356(6)
H41_3 H 0.4614 0.8728 0.8392
C33_3 C 0.4690(7) 0.723(2) 0.8806(6)
H42_3 H 0.4990 0.7355 0.8915
H43_3 H 0.4641 0.6360 0.8754
C34_3 C 0.4519(8) 0.762(3) 0.9173(7)
H44_3 H 0.4635 0.8404 0.9290
H45_3 H 0.4606 0.7030 0.9416
C35_3 C 0.4631(6) 0.7267(17) 0.8008(6)
C36_3 C 0.1498(7) 0.800(2) 0.8678(8)
O2_2 O 0.4401(5) 0.6702(18) 0.7700(5)
O3_2 O 0.5014(4) 0.7316(14) 0.8056(5)
O5_3 O 0.1437(5) 0.2579(15) 0.8128(6)
O6_3 O 0.1808(6) 0.1119(17) 0.8546(5)
O7_2 O 0.4767(5) 0.2165(17) 0.7846(6)
O10 O 0.1324(5) 0.8583(15) 0.8316(5)
O11_3 O 0.1295(6) 0.7294(18) 0.8816(6)
O12_2 O 0.4416(5) 0.3788(16) 0.7560(5)
N1_3 N 0.2782(6) 0.720(2) 0.9125(7)
N2_3 N 0.3407(6) 0.7351(18) 0.9015(6)
N3_3 N 0.4008(5) 0.6391(17) 0.9547(5)
N4_3 N 0.3335(6) 0.6092(17) 0.9594(5)
N5_3 N 0.4074(6) 0.769(2) 0.9006(6)
N7_3 N 0.3335(7) 0.127(3) 0.9454(7)
N8_3 N 0.3496(6) 0.2879(18) 0.9049(5)
N10_3 N 0.4020(6) 0.142(2) 0.9405(6)
N11_3 N 0.4154(7) 0.299(2) 0.9015(7)
N12_3 N 0.2850(8) 0.273(3) 0.9145(8)
I2_3 I 0.87876(6) 0.56692(16) 0.72527(7)
C43_3 C 0.8270(6) 0.222(2) 0.6516(7)
C44_3 C 0.8020(8) 0.320(3) 0.6196(9)
H55_3 H 0.8217 0.3833 0.6177
C45_3 C 0.7716(9) 0.378(4) 0.6390(11)
H56_3 H 0.7818 0.4587 0.6494
H57_3 H 0.7721 0.3304 0.6650
C46_3 C 0.7293(9) 0.388(5) 0.6100(11)
H58_3 H 0.7116 0.4071 0.6274
H59_3 H 0.7269 0.4535 0.5888
C47_3 C 0.7425(10) 0.204(5) 0.5667(12)
H60_3 H 0.7281 0.1890 0.5350
H61_3 H 0.7499 0.1261 0.5817
C48_3 C 0.7792(9) 0.274(4) 0.5728(10)
H62_3 H 0.7985 0.2246 0.5636
H63_3 H 0.7716 0.3437 0.5529
C49_3 C 0.6765(8) 0.227(3) 0.5787(8)
C50_3 C 0.6118(8) 0.239(2) 0.5843(7)
C51_3 C 0.6294(10) 0.087(2) 0.5470(7)
C52_3 C 0.5963(9) 0.409(2) 0.6272(9)
H64_3 H 0.6249 0.4317 0.6312
H65_3 H 0.5781 0.4760 0.6130
C53_3 C 0.5921(7) 0.381(2) 0.6736(7)
H66_3 H 0.5975 0.4547 0.6915
H67_3 H 0.6128 0.3203 0.6892
C54_3 C 0.5484(7) 0.334(2) 0.6676(6)
H68_3 H 0.5288 0.4005 0.6543
C55_3 C 0.5359(9) 0.227(3) 0.6354(8)
H69_3 H 0.5532 0.1568 0.6486
H70_3 H 0.5070 0.2056 0.6303
C56_3 C 0.5413(8) 0.258(3) 0.5896(8)
H71_3 H 0.5219 0.3223 0.5746
H72_3 H 0.5354 0.1869 0.5705
C57_3 C 0.5437(8) 0.3045(19) 0.7121(7)
C58_3 C 0.8052(7) 0.816(3) 0.6087(7)
H73_3 H 0.8010 0.8967 0.5942
C59_3 C 0.7803(9) 0.813(3) 0.6421(9)
H74_3 H 0.7886 0.8826 0.6622
H75_3 H 0.7876 0.7397 0.6601
C60_3 C 0.7372(8) 0.817(3) 0.6204(8)
H76_3 H 0.7234 0.8099 0.6425
H77_3 H 0.7296 0.8948 0.6056
C61_3 C 0.7427(9) 0.715(3) 0.5551(10)
H78_3 H 0.7322 0.7801 0.5336
H79_3 H 0.7359 0.6380 0.5390
C62_3 C 0.7871(8) 0.725(4) 0.5747(9)
H80_3 H 0.7979 0.6468 0.5875
H81_3 H 0.7979 0.7402 0.5505
C63_3 C 0.6820(8) 0.686(2) 0.5751(7)
C64_3 C 0.6185(8) 0.714(2) 0.5813(7)
C65_3 C 0.6264(7) 0.587(2) 0.5283(6)
C66_3 C 0.5651(7) 0.484(2) 0.4738(6)
H82_3 H 0.5580 0.3999 0.4780
H83_3 H 0.5503 0.5365 0.4878
C67_3 C 0.5515(7) 0.512(2) 0.4242(6)
H84_3 H 0.5220 0.4917 0.4101
H85_3 H 0.5548 0.5984 0.4200
C68_3 C 0.5776(6) 0.4383(19) 0.4017(6)
H86_3 H 0.5724 0.3514 0.4048
C69_3 C 0.6240(7) 0.462(2) 0.4259(6)
H87_3 H 0.6404 0.4112 0.4131
H88_3 H 0.6303 0.5465 0.4222
C70_3 C 0.6354(7) 0.433(2) 0.4758(6)
H89_3 H 0.6647 0.4520 0.4913
H90_3 H 0.6315 0.3464 0.4796
C71_3 C 0.5659(7) 0.4665(19) 0.3520(6)
C72_3 C 0.6094(9) 0.851(3) 0.6386(8)
H91_3 H 0.6397 0.8564 0.6470
H92_3 H 0.5977 0.9316 0.6312
C73_3 C 0.5980(7) 0.799(2) 0.6777(8)
H93_3 H 0.6103 0.7184 0.6855
H94_3 H 0.6091 0.8512 0.7036
C74_3 C 0.5499(7) 0.7898(18) 0.6644(6)
H95_3 H 0.5386 0.8728 0.6608
C75_3 C 0.5310(7) 0.723(2) 0.6194(6)
H96_3 H 0.5010 0.7355 0.6085
H97_3 H 0.5359 0.6360 0.6246
C76_3 C 0.5481(8) 0.762(3) 0.5827(7)
H98_3 H 0.5365 0.8404 0.5710
H99_3 H 0.5394 0.7030 0.5584
C77_3 C 0.5369(6) 0.7267(17) 0.6992(6)
C78_3 C 0.8502(7) 0.800(2) 0.6322(8)
C79_3 C 0.5586(8) 0.011(2) 0.4525(7)
H100_3 H 0.5597 0.0995 0.4551
H103_3 H 0.6403 0.0722 0.4603
C82_3 C 0.5781(8) 0.027(2) 0.3827(7)
O14_2 O 0.5599(5) 0.6702(18) 0.7300(5)
O15_2 O 0.4986(4) 0.7316(14) 0.6944(5)
O17_3 O 0.8563(5) 0.2579(15) 0.6872(6)
O18_3 O 0.8192(6) 0.1119(17) 0.6454(5)
O19_2 O 0.5233(5) 0.2165(17) 0.7154(6)
O22 O 0.8676(5) 0.8583(15) 0.6684(5)
O23_3 O 0.8705(6) 0.7294(18) 0.6184(6)
O24_2 O 0.5584(5) 0.3788(16) 0.7440(5)
N13_3 N 0.7218(6) 0.720(2) 0.5875(7)
N14_3 N 0.6593(6) 0.7351(18) 0.5985(6)
N15_3 N 0.5992(5) 0.6391(17) 0.5453(5)
N16_3 N 0.6665(6) 0.6092(17) 0.5406(5)
N17_3 N 0.5926(6) 0.769(2) 0.5994(6)
N18_3 N 0.6100(5) 0.5016(18) 0.4950(6)
N19_3 N 0.6665(7) 0.127(3) 0.5546(7)
N20_3 N 0.6504(6) 0.2879(18) 0.5951(5)
N22_3 N 0.5980(6) 0.142(2) 0.5595(6)
N23_3 N 0.5846(7) 0.299(2) 0.5985(7)
N24_3 N 0.7150(8) 0.273(3) 0.5855(8)
O29_2 O 0.9401(5) 0.1702(18) 0.7700(5)
O30_2 O 0.0599(5) 0.1702(18) 0.7300(5)
O31_2 O 0.0014(4) 0.2316(14) 0.8056(5)
O32_2 O 0.9986(4) 0.2316(14) 0.6944(5)
O35 O 0.9767(5) 0.7165(17) 0.7846(6)
O45_2 O 0.9416(5) 0.8788(16) 0.7560(5)
O46_2 O 0.0584(5) 0.8788(16) 0.7440(5)
H47_3 H 0.4700 0.9876 0.0640
C38_3 C 0.3657(9) 0.986(2) 0.0438(7)
H48_3 H 0.3478 0.9510 0.0588
H50_3 H 0.3610 0.8390 0.0028
C41_3 C 0.4271(10) 0.954(3) 0.0014(8)
H53_3 H 0.4310 0.8662 0.0044
C42_3 C 0.4118(7) 0.967(2) 0.0729(6)
H54_3 H 0.4163 0.8791 0.0780
C39_3 C 0.3564(8) 0.926(3) 0.9991(7)
H51_3 H 0.3273 0.9401 0.9809
H52_3 H 0.4444 0.9843 0.9849
N9_3 N 0.3843(8) 0.979(2) 0.9766(6)
H101_3 H 0.5300 0.9876 0.4360
C80_3 C 0.6343(9) 0.986(2) 0.4562(7)
H102_3 H 0.6522 0.9510 0.4412
C81_3 C 0.6436(8) 0.926(3) 0.5009(7)
H104_3 H 0.6390 0.8390 0.4972
H105_3 H 0.6727 0.9401 0.5191
C83_3 C 0.5729(10) 0.954(3) 0.4986(8)
H106_3 H 0.5556 0.9843 0.5151
H107_3 H 0.5690 0.8662 0.4956
N21_3 N 0.6157(8) 0.979(2) 0.5234(6)
C84_3 C 0.5882(7) 0.967(2) 0.4271(6)
H108_3 H 0.5837 0.8791 0.4220
I2_4 I 0.37876(6) 0.06692(16) 0.72527(7)
C58_4 C 0.3052(7) 0.316(3) 0.6087(7)
H73_4 H 0.3010 0.3967 0.5942
C59_4 C 0.2803(9) 0.313(3) 0.6421(9)
H74_4 H 0.2886 0.3826 0.6622
H75_4 H 0.2876 0.2397 0.6601
C60_4 C 0.2372(8) 0.317(3) 0.6204(8)
H76_4 H 0.2234 0.3099 0.6425
H77_4 H 0.2296 0.3948 0.6056
C61_4 C 0.2427(9) 0.215(3) 0.5551(10)
H78_4 H 0.2322 0.2801 0.5336
H79_4 H 0.2359 0.1380 0.5390
C62_4 C 0.2871(8) 0.225(4) 0.5747(9)
H80_4 H 0.2979 0.1468 0.5875
H81_4 H 0.2979 0.2402 0.5505
C63_4 C 0.1820(8) 0.186(2) 0.5751(7)
C64_4 C 0.1185(8) 0.214(2) 0.5813(7)
C65_4 C 0.1264(7) 0.087(2) 0.5283(6)
H83_4 H 0.0503 0.0365 0.4878
C67_4 C 0.0515(7) 0.012(2) 0.4242(6)
H85_4 H 0.0548 0.0984 0.4200
H88_4 H 0.1303 0.0465 0.4222
C72_4 C 0.1094(9) 0.351(3) 0.6386(8)
H91_4 H 0.1397 0.3564 0.6470
H92_4 H 0.0977 0.4316 0.6312
C73_4 C 0.0980(7) 0.299(2) 0.6777(8)
H93_4 H 0.1103 0.2184 0.6855
H94_4 H 0.1091 0.3512 0.7036
C74_4 C 0.0499(7) 0.2898(18) 0.6644(6)
H95_4 H 0.0386 0.3728 0.6608
C75_4 C 0.0310(7) 0.223(2) 0.6194(6)
H96_4 H 0.0010 0.2355 0.6085
H97_4 H 0.0359 0.1360 0.6246
C76_4 C 0.0481(8) 0.262(3) 0.5827(7)
H98_4 H 0.0365 0.3404 0.5710
H99_4 H 0.0394 0.2030 0.5584
C77_4 C 0.0369(6) 0.2267(17) 0.6992(6)
C78_4 C 0.3502(7) 0.300(2) 0.6322(8)
O22_2 O 0.3676(5) 0.3583(15) 0.6684(5)
O23_4 O 0.3705(6) 0.2294(18) 0.6184(6)
N13_4 N 0.2218(6) 0.220(2) 0.5875(7)
N14_4 N 0.1593(6) 0.2351(18) 0.5985(6)
N15_4 N 0.0992(5) 0.1391(17) 0.5453(5)
N16_4 N 0.1665(6) 0.1092(17) 0.5406(5)
N17_4 N 0.0926(6) 0.269(2) 0.5994(6)
N18_4 N 0.1100(5) 0.0016(18) 0.4950(6)
C43_4 C 0.3270(6) 0.722(2) 0.6516(7)
C44_4 C 0.3020(8) 0.820(3) 0.6196(9)
H55_4 H 0.3217 0.8833 0.6177
C45_4 C 0.2716(9) 0.878(4) 0.6390(11)
H56_4 H 0.2818 0.9587 0.6494
H57_4 H 0.2721 0.8304 0.6650
C46_4 C 0.2293(9) 0.888(5) 0.6100(11)
H58_4 H 0.2116 0.9071 0.6274
H59_4 H 0.2269 0.9535 0.5888
C47_4 C 0.2425(10) 0.704(5) 0.5667(12)
H60_4 H 0.2281 0.6890 0.5350
H61_4 H 0.2499 0.6261 0.5817
C48_4 C 0.2792(9) 0.774(4) 0.5728(10)
H62_4 H 0.2985 0.7246 0.5636
H63_4 H 0.2716 0.8437 0.5529
C49_4 C 0.1765(8) 0.727(3) 0.5787(8)
C50_4 C 0.1118(8) 0.739(2) 0.5843(7)
C51_4 C 0.1294(10) 0.587(2) 0.5470(7)
C52_4 C 0.0963(9) 0.909(2) 0.6272(9)
H64_4 H 0.1249 0.9317 0.6312
H65_4 H 0.0781 0.9760 0.6130
C53_4 C 0.0921(7) 0.881(2) 0.6736(7)
H66_4 H 0.0975 0.9547 0.6915
H67_4 H 0.1128 0.8203 0.6892
C54_4 C 0.0484(7) 0.834(2) 0.6676(6)
H68_4 H 0.0288 0.9005 0.6543
C55_4 C 0.0359(9) 0.727(3) 0.6354(8)
H69_4 H 0.0532 0.6568 0.6486
H70_4 H 0.0070 0.7056 0.6303
C56_4 C 0.0413(8) 0.758(3) 0.5896(8)
H71_4 H 0.0219 0.8223 0.5746
H72_4 H 0.0354 0.6869 0.5705
C57_4 C 0.0437(8) 0.8045(19) 0.7121(7)
C66_4 C 0.0651(7) 0.984(2) 0.4738(6)
H82_4 H 0.0580 0.8999 0.4780
H84_4 H 0.0220 0.9917 0.4101
C68_4 C 0.0776(6) 0.9383(19) 0.4017(6)
H86_4 H 0.0724 0.8514 0.4048
C69_4 C 0.1240(7) 0.962(2) 0.4259(6)
H87_4 H 0.1404 0.9112 0.4131
C70_4 C 0.1354(7) 0.933(2) 0.4758(6)
H89_4 H 0.1647 0.9520 0.4913
H90_4 H 0.1315 0.8464 0.4796
C71_4 C 0.0659(7) 0.9665(19) 0.3520(6)
C79_4 C 0.0586(8) 0.511(2) 0.4525(7)
H100_4 H 0.0597 0.5995 0.4551
H101_4 H 0.0300 0.4876 0.4360
C80_4 C 0.1343(9) 0.486(2) 0.4562(7)
H102_4 H 0.1522 0.4510 0.4412
H103_4 H 0.1403 0.5722 0.4603
C81_4 C 0.1436(8) 0.426(3) 0.5009(7)
H104_4 H 0.1390 0.3390 0.4972
H105_4 H 0.1727 0.4401 0.5191
C82_4 C 0.0781(8) 0.527(2) 0.3827(7)
C83_4 C 0.0729(10) 0.454(3) 0.4986(8)
H106_4 H 0.0556 0.4843 0.5151
H107_4 H 0.0690 0.3662 0.4956
O17_4 O 0.3563(5) 0.7579(15) 0.6872(6)
O18_4 O 0.3192(6) 0.6119(17) 0.6454(5)
N19_4 N 0.1665(7) 0.627(3) 0.5546(7)
N20_4 N 0.1504(6) 0.7879(18) 0.5951(5)
N21_4 N 0.1157(8) 0.479(2) 0.5234(6)
N22_4 N 0.0980(6) 0.642(2) 0.5595(6)
N23_4 N 0.0846(7) 0.799(2) 0.5985(7)
C84_4 C 0.0882(7) 0.467(2) 0.4271(6)
H108_4 H 0.0837 0.3791 0.4220
N24_4 N 0.2150(8) 0.773(3) 0.5855(8)
H29_4 H 0.9497 0.0365 0.0122
C25_4 C 0.9485(7) 0.012(2) 0.0758(6)
H31_4 H 0.9452 0.0984 0.0800
H34_4 H 0.8697 0.0465 0.0778
N6_4 N 0.8900(5) 0.0016(18) 0.0050(6)
I1_4 I 0.62124(6) 0.06692(16) 0.77473(7)
C16_4 C 0.6948(7) 0.316(3) 0.8913(7)
H19_4 H 0.6990 0.3967 0.9058
C17_4 C 0.7197(9) 0.313(3) 0.8579(9)
H20_4 H 0.7114 0.3826 0.8378
H21_4 H 0.7124 0.2397 0.8399
C18_4 C 0.7628(8) 0.317(3) 0.8796(8)
H22_4 H 0.7766 0.3099 0.8575
H23_4 H 0.7704 0.3948 0.8944
C19_4 C 0.7573(9) 0.215(3) 0.9449(10)
H24_4 H 0.7678 0.2801 0.9664
H25_4 H 0.7641 0.1380 0.9610
C20_4 C 0.7129(8) 0.225(4) 0.9253(9)
H26_4 H 0.7021 0.1468 0.9125
H27_4 H 0.7021 0.2402 0.9495
C21_4 C 0.8180(8) 0.186(2) 0.9249(7)
C22_4 C 0.8815(8) 0.214(2) 0.9187(7)
C23_4 C 0.8736(7) 0.087(2) 0.9717(6)
C30_4 C 0.8906(9) 0.351(3) 0.8614(8)
H37_4 H 0.8603 0.3564 0.8530
H38_4 H 0.9023 0.4316 0.8688
C31_4 C 0.9020(7) 0.299(2) 0.8223(8)
H39_4 H 0.8897 0.2184 0.8145
H40_4 H 0.8909 0.3512 0.7964
C32_4 C 0.9501(7) 0.2898(18) 0.8356(6)
H41_4 H 0.9614 0.3728 0.8392
C33_4 C 0.9690(7) 0.223(2) 0.8806(6)
H42_4 H 0.9990 0.2355 0.8915
H43_4 H 0.9641 0.1360 0.8754
C34_4 C 0.9519(8) 0.262(3) 0.9173(7)
H44_4 H 0.9635 0.3404 0.9290
H45_4 H 0.9606 0.2030 0.9416
C35_4 C 0.9631(6) 0.2267(17) 0.8008(6)
C36_4 C 0.6498(7) 0.300(2) 0.8678(8)
O10_2 O 0.6324(5) 0.3583(15) 0.8316(5)
O11_4 O 0.6295(6) 0.2294(18) 0.8816(6)
N1_4 N 0.7782(6) 0.220(2) 0.9125(7)
N2_4 N 0.8407(6) 0.2351(18) 0.9015(6)
N3_4 N 0.9008(5) 0.1391(17) 0.9547(5)
N4_4 N 0.8335(6) 0.1092(17) 0.9594(5)
N5_4 N 0.9074(6) 0.269(2) 0.9006(6)
C24_4 C 0.9349(7) 0.984(2) 0.0262(6)
H28_4 H 0.9420 0.8999 0.0220
H30_4 H 0.9780 0.9917 0.0899
C26_4 C 0.9224(6) 0.9383(19) 0.0983(6)
H32_4 H 0.9276 0.8514 0.0952
C27_4 C 0.8760(7) 0.962(2) 0.0741(6)
H33_4 H 0.8596 0.9112 0.0869
C28_4 C 0.8646(7) 0.933(2) 0.0242(6)
H35_4 H 0.8353 0.9520 0.0087
H36_4 H 0.8685 0.8464 0.0204
C29_4 C 0.9341(7) 0.9665(19) 0.1480(6)
C37_4 C 0.9414(8) 0.511(2) 0.0475(7)
H46_4 H 0.9403 0.5995 0.0449
H47_4 H 0.9700 0.4876 0.0640
C38_4 C 0.8657(9) 0.486(2) 0.0438(7)
H48_4 H 0.8478 0.4510 0.0588
H49_4 H 0.8597 0.5722 0.0397
H50_4 H 0.8610 0.3390 0.0028
C40_4 C 0.9219(8) 0.527(2) 0.1173(7)
C41_4 C 0.9271(10) 0.454(3) 0.0014(8)
H53_4 H 0.9310 0.3662 0.0044
C42_4 C 0.9118(7) 0.467(2) 0.0729(6)
H54_4 H 0.9163 0.3791 0.0780
C1_4 C 0.6730(6) 0.722(2) 0.8484(7)
C2_4 C 0.6980(8) 0.820(3) 0.8804(9)
H1_4 H 0.6783 0.8833 0.8823
C3_4 C 0.7284(9) 0.878(4) 0.8610(11)
H2_4 H 0.7182 0.9587 0.8506
H3_4 H 0.7279 0.8304 0.8350
C4_4 C 0.7707(9) 0.888(5) 0.8900(11)
H4_4 H 0.7884 0.9071 0.8726
H5_4 H 0.7731 0.9535 0.9112
C5_4 C 0.7575(10) 0.704(5) 0.9333(12)
H6_4 H 0.7719 0.6890 0.9650
H7_4 H 0.7501 0.6261 0.9183
C6_4 C 0.7208(9) 0.774(4) 0.9272(10)
H8_4 H 0.7015 0.7246 0.9364
H9_4 H 0.7284 0.8437 0.9471
C7_4 C 0.8235(8) 0.727(3) 0.9213(8)
C8_4 C 0.8882(8) 0.739(2) 0.9157(7)
C9_4 C 0.8706(10) 0.587(2) 0.9530(7)
C10_4 C 0.9037(9) 0.909(2) 0.8728(9)
H10_4 H 0.8751 0.9317 0.8688
H11_4 H 0.9219 0.9760 0.8870
C11_4 C 0.9079(7) 0.881(2) 0.8264(7)
H12_4 H 0.9025 0.9547 0.8085
H13_4 H 0.8872 0.8203 0.8108
C12_4 C 0.9516(7) 0.834(2) 0.8324(6)
H14_4 H 0.9712 0.9005 0.8457
C13_4 C 0.9641(9) 0.727(3) 0.8646(8)
H15_4 H 0.9468 0.6568 0.8514
H16_4 H 0.9930 0.7056 0.8697
C14_4 C 0.9587(8) 0.758(3) 0.9104(8)
H17_4 H 0.9781 0.8223 0.9254
H18_4 H 0.9646 0.6869 0.9295
C15_4 C 0.9563(8) 0.8045(19) 0.7879(7)
C39_4 C 0.8564(8) 0.426(3) 0.9991(7)
H51_4 H 0.8273 0.4401 0.9809
H52_4 H 0.9444 0.4843 0.9849
O5_4 O 0.6437(5) 0.7579(15) 0.8128(6)
O6_4 O 0.6808(6) 0.6119(17) 0.8546(5)
N7_4 N 0.8335(7) 0.627(3) 0.9454(7)
N8_4 N 0.8496(6) 0.7879(18) 0.9049(5)
N9_4 N 0.8843(8) 0.479(2) 0.9766(6)
N10_4 N 0.9020(6) 0.642(2) 0.9405(6)
N11_4 N 0.9154(7) 0.799(2) 0.9015(7)
N12_4 N 0.7850(8) 0.773(3) 0.9145(8)
loop_
_geom_bond_atom_site_label_1
_geom_bond_atom_site_label_2
_geom_bond_site_symmetry_1
_geom_bond_site_symmetry_2
H51 C39 1_555 1_555
C80 H102 1_555 1_555
C81 C80 1_555 1_555
H104 C81 1_555 1_555
H105 C81 1_555 1_555
H106 C83 1_555 1_555
H107 C83 1_555 1_555
H108 C84 1_555 1_555
Pb25 O20 1_555 1_555
C39 N9 1_555 1_555
C80 C84 1_555 1_555
C81 N21 1_555 1_555
C83 N21 1_555 1_555
C38 H48 1_555 1_555
H53 C41 1_555 1_555
H54 C42 1_555 1_555
Pb23 O8 1_555 1_555
C38 C42 1_555 1_555
I1 Pb3 1_555 1_555
Pb1 O2 1_555 1_555
Pb2 O5 1_555 1_555
Pb3 O5 1_555 1_555
Pb4 I1 1_555 1_555
C1 C2 1_555 1_555
C2 H1 1_555 1_555
C3 C2 1_555 1_555
H2 C3 1_555 1_555
H3 C3 1_555 1_555
C4 C3 1_555 1_555
H4 C4 1_555 1_555
H5 C4 1_555 1_555
C5 H6 1_555 1_555
H7 C5 1_555 1_555
C6 C2 1_555 1_555
H8 C6 1_555 1_555
H9 C6 1_555 1_555
C7 N7 1_555 1_555
C8 N8 1_555 1_555
C9 N7 1_555 1_555
C10 H10 1_555 1_555
H11 C10 1_555 1_555
C11 C10 1_555 1_555
H12 C11 1_555 1_555
H13 C11 1_555 1_555
C12 C11 1_555 1_555
H14 C12 1_555 1_555
C13 C12 1_555 1_555
H15 C13 1_555 1_555
H16 C13 1_555 1_555
C14 C13 1_555 1_555
H17 C14 1_555 1_555
H18 C14 1_555 1_555
C15 C12 1_555 1_555
C16 H19 1_555 1_555
C17 C16 1_555 1_555
H20 C17 1_555 1_555
H21 C17 1_555 1_555
C18 C17 1_555 1_555
H22 C18 1_555 1_555
H23 C18 1_555 1_555
C19 H24 1_555 1_555
H25 C19 1_555 1_555
C20 C16 1_555 1_555
H26 C20 1_555 1_555
H27 C20 1_555 1_555
C21 N1 1_555 1_555
C22 N2 1_555 1_555
C23 N3 1_555 1_555
C30 H37 1_555 1_555
H38 C30 1_555 1_555
C31 C30 1_555 1_555
H39 C31 1_555 1_555
H40 C31 1_555 1_555
C32 C31 1_555 1_555
H41 C32 1_555 1_555
C33 C32 1_555 1_555
H42 C33 1_555 1_555
H43 C33 1_555 1_555
C34 C33 1_555 1_555
H44 C34 1_555 1_555
H45 C34 1_555 1_555
C35 C32 1_555 1_555
C36 C16 1_555 1_555
O2 C35 1_555 1_555
O3 Pb1 1_555 1_555
O5 C1 1_555 1_555
O6 Pb2 1_555 1_555
O7 C15 1_555 1_555
O43 Pb4 1_555 1_555
O11 Pb4 1_555 1_555
O12 Pb1 1_555 1_555
N1 C18 1_555 1_555
N2 C21 1_555 1_555
N3 C22 1_555 1_555
N4 C21 1_555 1_555
N5 C22 1_555 1_555
N8 C7 1_555 1_555
N10 C8 1_555 1_555
N11 C8 1_555 1_555
N12 C4 1_555 1_555
I2 Pb6 1_555 1_555
Pb5 O17 1_555 1_555
Pb6 O17 1_555 1_555
Pb7 I2 1_555 1_555
C43 C44 1_555 1_555
C44 H55 1_555 1_555
C45 C44 1_555 1_555
H56 C45 1_555 1_555
H57 C45 1_555 1_555
C46 C45 1_555 1_555
H58 C46 1_555 1_555
H59 C46 1_555 1_555
C47 H60 1_555 1_555
H61 C47 1_555 1_555
C48 C44 1_555 1_555
H62 C48 1_555 1_555
H63 C48 1_555 1_555
C49 N19 1_555 1_555
C50 N20 1_555 1_555
C51 N19 1_555 1_555
C52 H64 1_555 1_555
H65 C52 1_555 1_555
C53 C52 1_555 1_555
H66 C53 1_555 1_555
H67 C53 1_555 1_555
C54 C53 1_555 1_555
H68 C54 1_555 1_555
C55 C54 1_555 1_555
H69 C55 1_555 1_555
H70 C55 1_555 1_555
C56 C55 1_555 1_555
H71 C56 1_555 1_555
H72 C56 1_555 1_555
C57 C54 1_555 1_555
C58 H73 1_555 1_555
C59 C58 1_555 1_555
H74 C59 1_555 1_555
H75 C59 1_555 1_555
C60 C59 1_555 1_555
H76 C60 1_555 1_555
H77 C60 1_555 1_555
C61 H78 1_555 1_555
H79 C61 1_555 1_555
C62 C58 1_555 1_555
H80 C62 1_555 1_555
H81 C62 1_555 1_555
C63 N13 1_555 1_555
C64 N14 1_555 1_555
C65 N15 1_555 1_555
C66 H82 1_555 1_555
H83 C66 1_555 1_555
C67 C66 1_555 1_555
H84 C67 1_555 1_555
H85 C67 1_555 1_555
C68 C67 1_555 1_555
H86 C68 1_555 1_555
C69 C68 1_555 1_555
H87 C69 1_555 1_555
H88 C69 1_555 1_555
C70 C69 1_555 1_555
H89 C70 1_555 1_555
H90 C70 1_555 1_555
C71 C68 1_555 1_555
C72 H91 1_555 1_555
H92 C72 1_555 1_555
C73 C72 1_555 1_555
H93 C73 1_555 1_555
H94 C73 1_555 1_555
C74 C73 1_555 1_555
H95 C74 1_555 1_555
C75 C74 1_555 1_555
H96 C75 1_555 1_555
H97 C75 1_555 1_555
C76 C75 1_555 1_555
H98 C76 1_555 1_555
H99 C76 1_555 1_555
C77 C74 1_555 1_555
C78 C58 1_555 1_555
C79 H100 1_555 1_555
O13 C71 1_555 1_555
O14 Pb1 1_555 1_555
O15 Pb1 1_555 1_555
O16 C71 1_555 1_555
O17 C43 1_555 1_555
O18 Pb5 1_555 1_555
O19 C57 1_555 1_555
O21 C82 1_555 1_555
O44 Pb7 1_555 1_555
O23 Pb7 1_555 1_555
O24 Pb1 1_555 1_555
N13 C60 1_555 1_555
N14 C63 1_555 1_555
N15 C64 1_555 1_555
N16 C63 1_555 1_555
N17 C64 1_555 1_555
N18 C65 1_555 1_555
N20 C49 1_555 1_555
N22 C50 1_555 1_555
N23 C50 1_555 1_555
N24 C46 1_555 1_555
Pb9 O13 1_555 1_555
Pb12 O14 1_555 1_555
Pb13 O2 1_555 1_555
Pb15 O16 1_555 1_555
Pb16 O3 1_555 1_555
Pb17 O15 1_555 1_555
Pb19 O16 1_555 1_555
Pb20 O7 1_555 1_555
Pb21 O7 1_555 1_555
Pb25 O13 1_555 1_555
O25 Pb1 1_555 1_555
O26 Pb1 1_555 1_555
O27 Pb4 1_555 1_555
O28 Pb7 1_555 1_555
O29 Pb5 1_555 1_555
O30 Pb2 1_555 1_555
O31 Pb3 1_555 1_555
O32 Pb6 1_555 1_555
O33 Pb2 1_555 1_555
O34 Pb5 1_555 1_555
O36 Pb7 1_555 1_555
O38 Pb4 1_555 1_555
O39 Pb3 1_555 1_555
O40 Pb6 1_555 1_555
O41 Pb3 1_555 1_555
O42 Pb6 1_555 1_555
O45 Pb7 1_555 1_555
O46 Pb4 1_555 1_555
Pb3 O33 1_555 1_555
Pb4 O39 1_555 1_555
C1 O6 1_555 1_555
C5 C6 1_555 1_555
C5 N12 1_555 1_555
C7 N12 1_555 1_555
C9 N10 1_555 1_555
C10 N11 1_555 1_555
C14 N11 1_555 1_555
C15 O12 1_555 1_555
C19 C20 1_555 1_555
C19 N1 1_555 1_555
C23 N4 1_555 1_555
C30 N5 1_555 1_555
C34 N5 1_555 1_555
C35 O3 1_555 1_555
C36 O43 1_555 1_555
C36 O11 1_555 1_555
O12 Pb21 1_555 1_555
Pb6 O34 1_555 1_555
Pb7 O40 1_555 1_555
C43 O18 1_555 1_555
C47 C48 1_555 1_555
C47 N24 1_555 1_555
C49 N24 1_555 1_555
C51 N22 1_555 1_555
C52 N23 1_555 1_555
C56 N23 1_555 1_555
C57 O24 1_555 1_555
C61 C62 1_555 1_555
C61 N13 1_555 1_555
C65 N16 1_555 1_555
C66 N18 1_555 1_555
C70 N18 1_555 1_555
C72 N17 1_555 1_555
C76 N17 1_555 1_555
C77 O14 1_555 1_555
C77 O15 1_555 1_555
C78 O44 1_555 1_555
C78 O23 1_555 1_555
O19 Pb20 1_555 1_555
O19 Pb21 1_555 1_555
O21 Pb19 1_555 1_555
O24 Pb20 1_555 1_555
Pb20 O25 1_555 1_555
Pb21 O26 1_555 1_555
C24 H28 1_555 1_555
H29 C24 1_555 1_555
C25 C24 1_555 1_555
H30 C25 1_555 1_555
H31 C25 1_555 1_555
C26 C25 1_555 1_555
H32 C26 1_555 1_555
C27 C26 1_555 1_555
H33 C27 1_555 1_555
H34 C27 1_555 1_555
C28 C27 1_555 1_555
H35 C28 1_555 1_555
H36 C28 1_555 1_555
C29 C26 1_555 1_555
C37 H46 1_555 1_555
O1 C29 1_555 1_555
O4 C29 1_555 1_555
O9 C40 1_555 1_555
Pb9 O1 1_555 1_555
Pb14 O4 1_555 1_555
Pb18 O4 1_555 1_555
Pb23 O1 1_555 1_555
C24 N6 1_555 1_555
C28 N6 1_555 1_555
O9 Pb18 1_555 1_555
Pb12 O5_2 1_555 1_555
Pb16 O5_2 1_555 1_555
C1_2 C2_2 1_555 1_555
C2_2 H1_2 1_555 1_555
C3_2 C2_2 1_555 1_555
H2_2 C3_2 1_555 1_555
H3_2 C3_2 1_555 1_555
C4_2 C3_2 1_555 1_555
H4_2 C4_2 1_555 1_555
H5_2 C4_2 1_555 1_555
C5_2 H6_2 1_555 1_555
H7_2 C5_2 1_555 1_555
C6_2 C2_2 1_555 1_555
H8_2 C6_2 1_555 1_555
H9_2 C6_2 1_555 1_555
C7_2 N7_2 1_555 1_555
C8_2 N8_2 1_555 1_555
C9_2 N7_2 1_555 1_555
C10_2 H10_2 1_555 1_555
H11_2 C10_2 1_555 1_555
C11_2 C10_2 1_555 1_555
H12_2 C11_2 1_555 1_555
H13_2 C11_2 1_555 1_555
C12_2 C11_2 1_555 1_555
H14_2 C12_2 1_555 1_555
C13_2 C12_2 1_555 1_555
H15_2 C13_2 1_555 1_555
H16_2 C13_2 1_555 1_555
C14_2 C13_2 1_555 1_555
H17_2 C14_2 1_555 1_555
H18_2 C14_2 1_555 1_555
C15_2 C12_2 1_555 1_555
H51_2 C39_2 1_555 1_555
O5_2 C1_2 1_555 1_555
O6_2 Pb12 1_555 1_555
O36 C15_2 1_555 1_555
N8_2 C7_2 1_555 1_555
N9_2 C9_2 1_555 1_555
N10_2 C8_2 1_555 1_555
N11_2 C8_2 1_555 1_555
N12_2 C4_2 1_555 1_555
O33_2 Pb12 1_555 1_555
O41_2 Pb16 1_555 1_555
O43_2 Pb12 1_555 1_555
Pb16 O33_2 1_555 1_555
C1_2 O6_2 1_555 1_555
C5_2 C6_2 1_555 1_555
C5_2 N12_2 1_555 1_555
C7_2 N12_2 1_555 1_555
C9_2 N10_2 1_555 1_555
C10_2 N11_2 1_555 1_555
C14_2 N11_2 1_555 1_555
C15_2 O45 1_555 1_555
C39_2 N9_2 1_555 1_555
C24_2 H28_2 1_555 1_555
H32_2 C26_2 1_555 1_555
C27_2 C26_2 1_555 1_555
H33_2 C27_2 1_555 1_555
C28_2 C27_2 1_555 1_555
H35_2 C28_2 1_555 1_555
H36_2 C28_2 1_555 1_555
C29_2 C26_2 1_555 1_555
C37_2 H46_2 1_555 1_555
H47_2 C37_2 1_555 1_555
C38_2 H48_2 1_555 1_555
H49_2 C38_2 1_555 1_555
C40_2 O8_2 1_555 1_555
C41_2 C37_2 1_555 1_555
H53_2 C41_2 1_555 1_555
O4_2 C29_2 1_555 1_555
O8_2 Pb18_2 1_555 1_555
O9_2 C40_2 1_555 1_555
C42_2 C37_2 1_555 1_555
H54_2 C42_2 1_555 1_555
Pb14_2 O4_2 1_555 1_555
Pb18_2 O4_2 1_555 1_555
Pb23_2 O8_2 1_555 1_555
C38_2 C42_2 1_555 1_555
C40_2 C42_2 1_555 1_555
O9_2 Pb18_2 1_555 1_555
Pb1_2 O29 1_555 1_555
Pb20 I1_2 1_555 1_555
C16_2 H19_2 1_555 1_555
C17_2 C16_2 1_555 1_555
H20_2 C17_2 1_555 1_555
H21_2 C17_2 1_555 1_555
C18_2 C17_2 1_555 1_555
H22_2 C18_2 1_555 1_555
H23_2 C18_2 1_555 1_555
C19_2 H24_2 1_555 1_555
H25_2 C19_2 1_555 1_555
C20_2 C16_2 1_555 1_555
H26_2 C20_2 1_555 1_555
H27_2 C20_2 1_555 1_555
C21_2 N1_2 1_555 1_555
C22_2 N2_2 1_555 1_555
C23_2 N3_2 1_555 1_555
C30_2 H37_2 1_555 1_555
H38_2 C30_2 1_555 1_555
C31_2 C30_2 1_555 1_555
H39_2 C31_2 1_555 1_555
H40_2 C31_2 1_555 1_555
C32_2 C31_2 1_555 1_555
H41_2 C32_2 1_555 1_555
C33_2 C32_2 1_555 1_555
H42_2 C33_2 1_555 1_555
H43_2 C33_2 1_555 1_555
C34_2 C33_2 1_555 1_555
H44_2 C34_2 1_555 1_555
H45_2 C34_2 1_555 1_555
C35_2 C32_2 1_555 1_555
C36_2 C16_2 1_555 1_555
O29 C35_2 1_555 1_555
O43_2 Pb20 1_555 1_555
O11_2 Pb20 1_555 1_555
N1_2 C18_2 1_555 1_555
N2_2 C21_2 1_555 1_555
N3_2 C22_2 1_555 1_555
N4_2 C21_2 1_555 1_555
N5_2 C22_2 1_555 1_555
O32 Pb1_2 1_555 1_555
Pb20 O39_2 1_555 1_555
C19_2 C20_2 1_555 1_555
C19_2 N1_2 1_555 1_555
C23_2 N4_2 1_555 1_555
C30_2 N5_2 1_555 1_555
C34_2 N5_2 1_555 1_555
C36_2 O43_2 1_555 1_555
C36_2 O11_2 1_555 1_555
H31_2 C25_2 1_555 1_555
Pb23_2 O1_2 1_555 1_555
Pb13 O17_2 1_555 1_555
Pb17 O17_2 1_555 1_555
C43_2 C44_2 1_555 1_555
C44_2 H55_2 1_555 1_555
C45_2 C44_2 1_555 1_555
H56_2 C45_2 1_555 1_555
H57_2 C45_2 1_555 1_555
C46_2 C45_2 1_555 1_555
H58_2 C46_2 1_555 1_555
H59_2 C46_2 1_555 1_555
C47_2 H60_2 1_555 1_555
H61_2 C47_2 1_555 1_555
C48_2 C44_2 1_555 1_555
H62_2 C48_2 1_555 1_555
H63_2 C48_2 1_555 1_555
C49_2 N19_2 1_555 1_555
C50_2 N20_2 1_555 1_555
C51_2 N19_2 1_555 1_555
C52_2 H64_2 1_555 1_555
H65_2 C52_2 1_555 1_555
C53_2 C52_2 1_555 1_555
H66_2 C53_2 1_555 1_555
H67_2 C53_2 1_555 1_555
C54_2 C53_2 1_555 1_555
H68_2 C54_2 1_555 1_555
C55_2 C54_2 1_555 1_555
H69_2 C55_2 1_555 1_555
H70_2 C55_2 1_555 1_555
C56_2 C55_2 1_555 1_555
H71_2 C56_2 1_555 1_555
H72_2 C56_2 1_555 1_555
C57_2 C54_2 1_555 1_555
C66_2 H82_2 1_555 1_555
H86_2 C68_2 1_555 1_555
C69_2 C68_2 1_555 1_555
H87_2 C69_2 1_555 1_555
C70_2 C69_2 1_555 1_555
H89_2 C70_2 1_555 1_555
H90_2 C70_2 1_555 1_555
C71_2 C68_2 1_555 1_555
C79_2 H100_2 1_555 1_555
H101_2 C79_2 1_555 1_555
C80_2 H102_2 1_555 1_555
H103_2 C80_2 1_555 1_555
C81_2 C80_2 1_555 1_555
H104_2 C81_2 1_555 1_555
H105_2 C81_2 1_555 1_555
C82_2 O20_2 1_555 1_555
C83_2 C79_2 1_555 1_555
H106_2 C83_2 1_555 1_555
H107_2 C83_2 1_555 1_555
O16_2 C71_2 1_555 1_555
O17_2 C43_2 1_555 1_555
O18_2 Pb13 1_555 1_555
O38 C57_2 1_555 1_555
O20_2 Pb19_2 1_555 1_555
O21_2 C82_2 1_555 1_555
N20_2 C49_2 1_555 1_555
N21_2 C51_2 1_555 1_555
N22_2 C50_2 1_555 1_555
N23_2 C50_2 1_555 1_555
C84_2 C79_2 1_555 1_555
H108_2 C84_2 1_555 1_555
N24_2 C46_2 1_555 1_555
Pb15_2 O16_2 1_555 1_555
Pb19_2 O16_2 1_555 1_555
Pb25_2 O20_2 1_555 1_555
O34_2 Pb13 1_555 1_555
O42_2 Pb17 1_555 1_555
O44_2 Pb13 1_555 1_555
Pb17 O34_2 1_555 1_555
C43_2 O18_2 1_555 1_555
C47_2 C48_2 1_555 1_555
C47_2 N24_2 1_555 1_555
C49_2 N24_2 1_555 1_555
C51_2 N22_2 1_555 1_555
C52_2 N23_2 1_555 1_555
C56_2 N23_2 1_555 1_555
C57_2 O46 1_555 1_555
C80_2 C84_2 1_555 1_555
C81_2 N21_2 1_555 1_555
C82_2 C84_2 1_555 1_555
C83_2 N21_2 1_555 1_555
O21_2 Pb19_2 1_555 1_555
O31 Pb1_3 1_555 1_555
Pb21 I2_2 1_555 1_555
C58_2 H73_2 1_555 1_555
C59_2 C58_2 1_555 1_555
H74_2 C59_2 1_555 1_555
H75_2 C59_2 1_555 1_555
C60_2 C59_2 1_555 1_555
H76_2 C60_2 1_555 1_555
H77_2 C60_2 1_555 1_555
C61_2 H78_2 1_555 1_555
H79_2 C61_2 1_555 1_555
C62_2 C58_2 1_555 1_555
H80_2 C62_2 1_555 1_555
H81_2 C62_2 1_555 1_555
C63_2 N13_2 1_555 1_555
C64_2 N14_2 1_555 1_555
C65_2 N15_2 1_555 1_555
H85_2 C67_2 1_555 1_555
C72_2 H91_2 1_555 1_555
H92_2 C72_2 1_555 1_555
C73_2 C72_2 1_555 1_555
H93_2 C73_2 1_555 1_555
H94_2 C73_2 1_555 1_555
C74_2 C73_2 1_555 1_555
H95_2 C74_2 1_555 1_555
C75_2 C74_2 1_555 1_555
H96_2 C75_2 1_555 1_555
H97_2 C75_2 1_555 1_555
C76_2 C75_2 1_555 1_555
H98_2 C76_2 1_555 1_555
H99_2 C76_2 1_555 1_555
C77_2 C74_2 1_555 1_555
C78_2 C58_2 1_555 1_555
O30 Pb1_3 1_555 1_555
O44_2 Pb21 1_555 1_555
O23_2 Pb21 1_555 1_555
N13_2 C60_2 1_555 1_555
N14_2 C63_2 1_555 1_555
N15_2 C64_2 1_555 1_555
N16_2 C63_2 1_555 1_555
N17_2 C64_2 1_555 1_555
N18_2 C65_2 1_555 1_555
Pb25_2 O13_2 1_555 1_555
Pb21 O40_2 1_555 1_555
C61_2 C62_2 1_555 1_555
C61_2 N13_2 1_555 1_555
C65_2 N16_2 1_555 1_555
C72_2 N17_2 1_555 1_555
C76_2 N17_2 1_555 1_555
C77_2 O30 1_555 1_555
C78_2 O44_2 1_555 1_555
C78_2 O23_2 1_555 1_555
C24_3 H28_3 1_555 1_555
H29_3 C24_3 1_555 1_555
C25_3 C24_3 1_555 1_555
H30_3 C25_3 1_555 1_555
H31_3 C25_3 1_555 1_555
C26_3 C25_3 1_555 1_555
H32_3 C26_3 1_555 1_555
C27_3 C26_3 1_555 1_555
H33_3 C27_3 1_555 1_555
H34_3 C27_3 1_555 1_555
C28_3 C27_3 1_555 1_555
H35_3 C28_3 1_555 1_555
H36_3 C28_3 1_555 1_555
C29_3 C26_3 1_555 1_555
C37_3 H46_3 1_555 1_555
O25 C29_3 1_555 1_555
O33_2 C29_3 1_555 1_555
O41_2 C40_3 1_555 1_555
C24_3 N6_3 1_555 1_555
C28_3 N6_3 1_555 1_555
I1_3 Pb18_2 1_555 1_555
Pb9 O2_2 1_555 1_555
Pb14_2 O5_3 1_555 1_555
Pb18_2 O5_3 1_555 1_555
Pb23_2 I1_3 1_555 1_555
C1_3 C2_3 1_555 1_555
C2_3 H1_3 1_555 1_555
C3_3 C2_3 1_555 1_555
H2_3 C3_3 1_555 1_555
H3_3 C3_3 1_555 1_555
C4_3 C3_3 1_555 1_555
H4_3 C4_3 1_555 1_555
H5_3 C4_3 1_555 1_555
C5_3 H6_3 1_555 1_555
H7_3 C5_3 1_555 1_555
C6_3 C2_3 1_555 1_555
H8_3 C6_3 1_555 1_555
H9_3 C6_3 1_555 1_555
C7_3 N7_3 1_555 1_555
C8_3 N8_3 1_555 1_555
C9_3 N7_3 1_555 1_555
C10_3 H10_3 1_555 1_555
H11_3 C10_3 1_555 1_555
C11_3 C10_3 1_555 1_555
H12_3 C11_3 1_555 1_555
H13_3 C11_3 1_555 1_555
C12_3 C11_3 1_555 1_555
H14_3 C12_3 1_555 1_555
C13_3 C12_3 1_555 1_555
H15_3 C13_3 1_555 1_555
H16_3 C13_3 1_555 1_555
C14_3 C13_3 1_555 1_555
H17_3 C14_3 1_555 1_555
H18_3 C14_3 1_555 1_555
C15_3 C12_3 1_555 1_555
C16_3 H19_3 1_555 1_555
C17_3 C16_3 1_555 1_555
H20_3 C17_3 1_555 1_555
H21_3 C17_3 1_555 1_555
C18_3 C17_3 1_555 1_555
H22_3 C18_3 1_555 1_555
H23_3 C18_3 1_555 1_555
C19_3 H24_3 1_555 1_555
H25_3 C19_3 1_555 1_555
C20_3 C16_3 1_555 1_555
H26_3 C20_3 1_555 1_555
H27_3 C20_3 1_555 1_555
C21_3 N1_3 1_555 1_555
C22_3 N2_3 1_555 1_555
C23_3 N3_3 1_555 1_555
C30_3 H37_3 1_555 1_555
H38_3 C30_3 1_555 1_555
C31_3 C30_3 1_555 1_555
H39_3 C31_3 1_555 1_555
H40_3 C31_3 1_555 1_555
C32_3 C31_3 1_555 1_555
H41_3 C32_3 1_555 1_555
C33_3 C32_3 1_555 1_555
H42_3 C33_3 1_555 1_555
H43_3 C33_3 1_555 1_555
C34_3 C33_3 1_555 1_555
H44_3 C34_3 1_555 1_555
H45_3 C34_3 1_555 1_555
C35_3 C32_3 1_555 1_555
C36_3 C16_3 1_555 1_555
O2_2 C35_3 1_555 1_555
O3_2 Pb9 1_555 1_555
O5_3 C1_3 1_555 1_555
O6_3 Pb14_2 1_555 1_555
O7_2 C15_3 1_555 1_555
O10 Pb23_2 1_555 1_555
O11_3 Pb23_2 1_555 1_555
O12_2 Pb9 1_555 1_555
N1_3 C18_3 1_555 1_555
N2_3 C21_3 1_555 1_555
N3_3 C22_3 1_555 1_555
N4_3 C21_3 1_555 1_555
N5_3 C22_3 1_555 1_555
N8_3 C7_3 1_555 1_555
N10_3 C8_3 1_555 1_555
N11_3 C8_3 1_555 1_555
N12_3 C4_3 1_555 1_555
I2_3 Pb19_2 1_555 1_555
Pb15_2 O17_3 1_555 1_555
Pb19_2 O17_3 1_555 1_555
Pb25_2 I2_3 1_555 1_555
C43_3 C44_3 1_555 1_555
C44_3 H55_3 1_555 1_555
C45_3 C44_3 1_555 1_555
H56_3 C45_3 1_555 1_555
H57_3 C45_3 1_555 1_555
C46_3 C45_3 1_555 1_555
H58_3 C46_3 1_555 1_555
H59_3 C46_3 1_555 1_555
C47_3 H60_3 1_555 1_555
H61_3 C47_3 1_555 1_555
C48_3 C44_3 1_555 1_555
H62_3 C48_3 1_555 1_555
H63_3 C48_3 1_555 1_555
C49_3 N19_3 1_555 1_555
C50_3 N20_3 1_555 1_555
C51_3 N19_3 1_555 1_555
C52_3 H64_3 1_555 1_555
H65_3 C52_3 1_555 1_555
C53_3 C52_3 1_555 1_555
H66_3 C53_3 1_555 1_555
H67_3 C53_3 1_555 1_555
C54_3 C53_3 1_555 1_555
H68_3 C54_3 1_555 1_555
C55_3 C54_3 1_555 1_555
H69_3 C55_3 1_555 1_555
H70_3 C55_3 1_555 1_555
C56_3 C55_3 1_555 1_555
H71_3 C56_3 1_555 1_555
H72_3 C56_3 1_555 1_555
C57_3 C54_3 1_555 1_555
C58_3 H73_3 1_555 1_555
C59_3 C58_3 1_555 1_555
H74_3 C59_3 1_555 1_555
H75_3 C59_3 1_555 1_555
C60_3 C59_3 1_555 1_555
H76_3 C60_3 1_555 1_555
H77_3 C60_3 1_555 1_555
C61_3 H78_3 1_555 1_555
H79_3 C61_3 1_555 1_555
C62_3 C58_3 1_555 1_555
H80_3 C62_3 1_555 1_555
H81_3 C62_3 1_555 1_555
C63_3 N13_3 1_555 1_555
C64_3 N14_3 1_555 1_555
C65_3 N15_3 1_555 1_555
C66_3 H82_3 1_555 1_555
H83_3 C66_3 1_555 1_555
C67_3 C66_3 1_555 1_555
H84_3 C67_3 1_555 1_555
H85_3 C67_3 1_555 1_555
C68_3 C67_3 1_555 1_555
H86_3 C68_3 1_555 1_555
C69_3 C68_3 1_555 1_555
H87_3 C69_3 1_555 1_555
H88_3 C69_3 1_555 1_555
C70_3 C69_3 1_555 1_555
H89_3 C70_3 1_555 1_555
H90_3 C70_3 1_555 1_555
C71_3 C68_3 1_555 1_555
C72_3 H91_3 1_555 1_555
H92_3 C72_3 1_555 1_555
C73_3 C72_3 1_555 1_555
H93_3 C73_3 1_555 1_555
H94_3 C73_3 1_555 1_555
C74_3 C73_3 1_555 1_555
H95_3 C74_3 1_555 1_555
C75_3 C74_3 1_555 1_555
H96_3 C75_3 1_555 1_555
H97_3 C75_3 1_555 1_555
C76_3 C75_3 1_555 1_555
H98_3 C76_3 1_555 1_555
H99_3 C76_3 1_555 1_555
C77_3 C74_3 1_555 1_555
C78_3 C58_3 1_555 1_555
C79_3 H100_3 1_555 1_555
O26 C71_3 1_555 1_555
O14_2 Pb9 1_555 1_555
O15_2 Pb9 1_555 1_555
O34_2 C71_3 1_555 1_555
O17_3 C43_3 1_555 1_555
O18_3 Pb15_2 1_555 1_555
O19_2 C57_3 1_555 1_555
O42_2 C82_3 1_555 1_555
O22 Pb25_2 1_555 1_555
O23_3 Pb25_2 1_555 1_555
O24_2 Pb9 1_555 1_555
N13_3 C60_3 1_555 1_555
N14_3 C63_3 1_555 1_555
N15_3 C64_3 1_555 1_555
N16_3 C63_3 1_555 1_555
N17_3 C64_3 1_555 1_555
N18_3 C65_3 1_555 1_555
N20_3 C49_3 1_555 1_555
N22_3 C50_3 1_555 1_555
N23_3 C50_3 1_555 1_555
N24_3 C46_3 1_555 1_555
Pb14 O14_2 1_555 1_555
Pb15 O2_2 1_555 1_555
Pb18 O3_2 1_555 1_555
Pb19 O15_2 1_555 1_555
Pb23 O7_2 1_555 1_555
Pb25 O7_2 1_555 1_555
O29_2 Pb15_2 1_555 1_555
O30_2 Pb14_2 1_555 1_555
O31_2 Pb18_2 1_555 1_555
O32_2 Pb19_2 1_555 1_555
O35 Pb25_2 1_555 1_555
O37 Pb23_2 1_555 1_555
O45_2 Pb25_2 1_555 1_555
O46_2 Pb23_2 1_555 1_555
C1_3 O6_3 1_555 1_555
C5_3 C6_3 1_555 1_555
C5_3 N12_3 1_555 1_555
C7_3 N12_3 1_555 1_555
C9_3 N10_3 1_555 1_555
C10_3 N11_3 1_555 1_555
C14_3 N11_3 1_555 1_555
C15_3 O12_2 1_555 1_555
C19_3 C20_3 1_555 1_555
C19_3 N1_3 1_555 1_555
C23_3 N4_3 1_555 1_555
C30_3 N5_3 1_555 1_555
C34_3 N5_3 1_555 1_555
C35_3 O3_2 1_555 1_555
C36_3 O10 1_555 1_555
C36_3 O11_3 1_555 1_555
O12_2 Pb25 1_555 1_555
C43_3 O18_3 1_555 1_555
C47_3 C48_3 1_555 1_555
C47_3 N24_3 1_555 1_555
C49_3 N24_3 1_555 1_555
C51_3 N22_3 1_555 1_555
C52_3 N23_3 1_555 1_555
C56_3 N23_3 1_555 1_555
C57_3 O24_2 1_555 1_555
C61_3 C62_3 1_555 1_555
C61_3 N13_3 1_555 1_555
C65_3 N16_3 1_555 1_555
C66_3 N18_3 1_555 1_555
C70_3 N18_3 1_555 1_555
C72_3 N17_3 1_555 1_555
C76_3 N17_3 1_555 1_555
C77_3 O14_2 1_555 1_555
C77_3 O15_2 1_555 1_555
C78_3 O22 1_555 1_555
C78_3 O23_3 1_555 1_555
O19_2 Pb23 1_555 1_555
O19_2 Pb25 1_555 1_555
O24_2 Pb23 1_555 1_555
C38_3 H48_3 1_555 1_555
H53_3 C41_3 1_555 1_555
H54_3 C42_3 1_555 1_555
C38_3 C42_3 1_555 1_555
H51_3 C39_3 1_555 1_555
C80_3 H102_3 1_555 1_555
C81_3 C80_3 1_555 1_555
H104_3 C81_3 1_555 1_555
H105_3 C81_3 1_555 1_555
H106_3 C83_3 1_555 1_555
H107_3 C83_3 1_555 1_555
H108_3 C84_3 1_555 1_555
C39_3 N9_3 1_555 1_555
C80_3 C84_3 1_555 1_555
C81_3 N21_3 1_555 1_555
C83_3 N21_3 1_555 1_555
O31_2 Pb9_2 1_555 1_555
Pb25 I2_4 1_555 1_555
C58_4 H73_4 1_555 1_555
C59_4 C58_4 1_555 1_555
H74_4 C59_4 1_555 1_555
H75_4 C59_4 1_555 1_555
C60_4 C59_4 1_555 1_555
H76_4 C60_4 1_555 1_555
H77_4 C60_4 1_555 1_555
C61_4 H78_4 1_555 1_555
H79_4 C61_4 1_555 1_555
C62_4 C58_4 1_555 1_555
H80_4 C62_4 1_555 1_555
H81_4 C62_4 1_555 1_555
C63_4 N13_4 1_555 1_555
C64_4 N14_4 1_555 1_555
C65_4 N15_4 1_555 1_555
H85_4 C67_4 1_555 1_555
C72_4 H91_4 1_555 1_555
H92_4 C72_4 1_555 1_555
C73_4 C72_4 1_555 1_555
H93_4 C73_4 1_555 1_555
H94_4 C73_4 1_555 1_555
C74_4 C73_4 1_555 1_555
H95_4 C74_4 1_555 1_555
C75_4 C74_4 1_555 1_555
H96_4 C75_4 1_555 1_555
H97_4 C75_4 1_555 1_555
C76_4 C75_4 1_555 1_555
H98_4 C76_4 1_555 1_555
H99_4 C76_4 1_555 1_555
C77_4 C74_4 1_555 1_555
C78_4 C58_4 1_555 1_555
O30_2 Pb9_2 1_555 1_555
O22_2 Pb25 1_555 1_555
O23_4 Pb25 1_555 1_555
N13_4 C60_4 1_555 1_555
N14_4 C63_4 1_555 1_555
N15_4 C64_4 1_555 1_555
N16_4 C63_4 1_555 1_555
N17_4 C64_4 1_555 1_555
N18_4 C65_4 1_555 1_555
Pb15 O22_2 1_555 1_555
C61_4 C62_4 1_555 1_555
C61_4 N13_4 1_555 1_555
C65_4 N16_4 1_555 1_555
C72_4 N17_4 1_555 1_555
C76_4 N17_4 1_555 1_555
C77_4 O30_2 1_555 1_555
C78_4 O22_2 1_555 1_555
C78_4 O23_4 1_555 1_555
Pb15 O17_4 1_555 1_555
Pb19 O17_4 1_555 1_555
C43_4 C44_4 1_555 1_555
C44_4 H55_4 1_555 1_555
C45_4 C44_4 1_555 1_555
H56_4 C45_4 1_555 1_555
H57_4 C45_4 1_555 1_555
C46_4 C45_4 1_555 1_555
H58_4 C46_4 1_555 1_555
H59_4 C46_4 1_555 1_555
C47_4 H60_4 1_555 1_555
H61_4 C47_4 1_555 1_555
C48_4 C44_4 1_555 1_555
H62_4 C48_4 1_555 1_555
H63_4 C48_4 1_555 1_555
C49_4 N19_4 1_555 1_555
C50_4 N20_4 1_555 1_555
C51_4 N19_4 1_555 1_555
C52_4 H64_4 1_555 1_555
H65_4 C52_4 1_555 1_555
C53_4 C52_4 1_555 1_555
H66_4 C53_4 1_555 1_555
H67_4 C53_4 1_555 1_555
C54_4 C53_4 1_555 1_555
H68_4 C54_4 1_555 1_555
C55_4 C54_4 1_555 1_555
H69_4 C55_4 1_555 1_555
H70_4 C55_4 1_555 1_555
C56_4 C55_4 1_555 1_555
H71_4 C56_4 1_555 1_555
H72_4 C56_4 1_555 1_555
C57_4 C54_4 1_555 1_555
C66_4 H82_4 1_555 1_555
H86_4 C68_4 1_555 1_555
C69_4 C68_4 1_555 1_555
H87_4 C69_4 1_555 1_555
C70_4 C69_4 1_555 1_555
H89_4 C70_4 1_555 1_555
H90_4 C70_4 1_555 1_555
C71_4 C68_4 1_555 1_555
C79_4 H100_4 1_555 1_555
H101_4 C79_4 1_555 1_555
C80_4 H102_4 1_555 1_555
H103_4 C80_4 1_555 1_555
C81_4 C80_4 1_555 1_555
H104_4 C81_4 1_555 1_555
H105_4 C81_4 1_555 1_555
C82_4 O40 1_555 1_555
C83_4 C79_4 1_555 1_555
H106_4 C83_4 1_555 1_555
H107_4 C83_4 1_555 1_555
O34 C71_4 1_555 1_555
O17_4 C43_4 1_555 1_555
O18_4 Pb15 1_555 1_555
O37 C57_4 1_555 1_555
O42 C82_4 1_555 1_555
N20_4 C49_4 1_555 1_555
N21_4 C51_4 1_555 1_555
N22_4 C50_4 1_555 1_555
N23_4 C50_4 1_555 1_555
C84_4 C79_4 1_555 1_555
H108_4 C84_4 1_555 1_555
N24_4 C46_4 1_555 1_555
C43_4 O18_4 1_555 1_555
C47_4 C48_4 1_555 1_555
C47_4 N24_4 1_555 1_555
C49_4 N24_4 1_555 1_555
C51_4 N22_4 1_555 1_555
C52_4 N23_4 1_555 1_555
C56_4 N23_4 1_555 1_555
C57_4 O46_2 1_555 1_555
C80_4 C84_4 1_555 1_555
C81_4 N21_4 1_555 1_555
C82_4 C84_4 1_555 1_555
C83_4 N21_4 1_555 1_555
H31_4 C25_4 1_555 1_555
Pb9_3 O29_2 1_555 1_555
Pb23 I1_4 1_555 1_555
C16_4 H19_4 1_555 1_555
C17_4 C16_4 1_555 1_555
H20_4 C17_4 1_555 1_555
H21_4 C17_4 1_555 1_555
C18_4 C17_4 1_555 1_555
H22_4 C18_4 1_555 1_555
H23_4 C18_4 1_555 1_555
C19_4 H24_4 1_555 1_555
H25_4 C19_4 1_555 1_555
C20_4 C16_4 1_555 1_555
H26_4 C20_4 1_555 1_555
H27_4 C20_4 1_555 1_555
C21_4 N1_4 1_555 1_555
C22_4 N2_4 1_555 1_555
C23_4 N3_4 1_555 1_555
C30_4 H37_4 1_555 1_555
H38_4 C30_4 1_555 1_555
C31_4 C30_4 1_555 1_555
H39_4 C31_4 1_555 1_555
H40_4 C31_4 1_555 1_555
C32_4 C31_4 1_555 1_555
H41_4 C32_4 1_555 1_555
C33_4 C32_4 1_555 1_555
H42_4 C33_4 1_555 1_555
H43_4 C33_4 1_555 1_555
C34_4 C33_4 1_555 1_555
H44_4 C34_4 1_555 1_555
H45_4 C34_4 1_555 1_555
C35_4 C32_4 1_555 1_555
C36_4 C16_4 1_555 1_555
O29_2 C35_4 1_555 1_555
O10_2 Pb23 1_555 1_555
O11_4 Pb23 1_555 1_555
N1_4 C18_4 1_555 1_555
N2_4 C21_4 1_555 1_555
N3_4 C22_4 1_555 1_555
N4_4 C21_4 1_555 1_555
N5_4 C22_4 1_555 1_555
O32_2 Pb9_3 1_555 1_555
Pb14 O10_2 1_555 1_555
C19_4 C20_4 1_555 1_555
C19_4 N1_4 1_555 1_555
C23_4 N4_4 1_555 1_555
C30_4 N5_4 1_555 1_555
C34_4 N5_4 1_555 1_555
C36_4 O10_2 1_555 1_555
C36_4 O11_4 1_555 1_555
C24_4 H28_4 1_555 1_555
H32_4 C26_4 1_555 1_555
C27_4 C26_4 1_555 1_555
H33_4 C27_4 1_555 1_555
C28_4 C27_4 1_555 1_555
H35_4 C28_4 1_555 1_555
H36_4 C28_4 1_555 1_555
C29_4 C26_4 1_555 1_555
C37_4 H46_4 1_555 1_555
H47_4 C37_4 1_555 1_555
C38_4 H48_4 1_555 1_555
H49_4 C38_4 1_555 1_555
C40_4 O39 1_555 1_555
C41_4 C37_4 1_555 1_555
H53_4 C41_4 1_555 1_555
O33 C29_4 1_555 1_555
O41 C40_4 1_555 1_555
C42_4 C37_4 1_555 1_555
H54_4 C42_4 1_555 1_555
C38_4 C42_4 1_555 1_555
C40_4 C42_4 1_555 1_555
Pb14 O5_4 1_555 1_555
Pb18 O5_4 1_555 1_555
C1_4 C2_4 1_555 1_555
C2_4 H1_4 1_555 1_555
C3_4 C2_4 1_555 1_555
H2_4 C3_4 1_555 1_555
H3_4 C3_4 1_555 1_555
C4_4 C3_4 1_555 1_555
H4_4 C4_4 1_555 1_555
H5_4 C4_4 1_555 1_555
C5_4 H6_4 1_555 1_555
H7_4 C5_4 1_555 1_555
C6_4 C2_4 1_555 1_555
H8_4 C6_4 1_555 1_555
H9_4 C6_4 1_555 1_555
C7_4 N7_4 1_555 1_555
C8_4 N8_4 1_555 1_555
C9_4 N7_4 1_555 1_555
C10_4 H10_4 1_555 1_555
H11_4 C10_4 1_555 1_555
C11_4 C10_4 1_555 1_555
H12_4 C11_4 1_555 1_555
H13_4 C11_4 1_555 1_555
C12_4 C11_4 1_555 1_555
H14_4 C12_4 1_555 1_555
C13_4 C12_4 1_555 1_555
H15_4 C13_4 1_555 1_555
H16_4 C13_4 1_555 1_555
C14_4 C13_4 1_555 1_555
H17_4 C14_4 1_555 1_555
H18_4 C14_4 1_555 1_555
C15_4 C12_4 1_555 1_555
H51_4 C39_4 1_555 1_555
O5_4 C1_4 1_555 1_555
O6_4 Pb14 1_555 1_555
O35 C15_4 1_555 1_555
N8_4 C7_4 1_555 1_555
N9_4 C9_4 1_555 1_555
N10_4 C8_4 1_555 1_555
N11_4 C8_4 1_555 1_555
N12_4 C4_4 1_555 1_555
C1_4 O6_4 1_555 1_555
C5_4 C6_4 1_555 1_555
C5_4 N12_4 1_555 1_555
C7_4 N12_4 1_555 1_555
C9_4 N10_4 1_555 1_555
C10_4 N11_4 1_555 1_555
C14_4 N11_4 1_555 1_555
C15_4 O45_2 1_555 1_555
C39_4 N9_4 1_555 1_555

#END
