
###############################################################################
#
# This file contains modified crystal structure data generated from the
# MOF subset of the Cambridge Structural Database (CSD) v543 
# hosted by the Cambridge Crystallographic Data Centre (CCDC).
#
# This work is licensed under the Creative Commons
# Attribution-NonCommercial-ShareAlike 4.0 International License.
# To view a copy of this license, visit
# http://creativecommons.org/licenses/by-nc-sa/4.0/
# or send a letter to
# Creative Commons, PO Box 1866, Mountain View, CA 94042, USA.
#
# CIF created using the CSD Python API on 29 September 2022
# The structure has been converted into the P1 space group
# The structure has a 3D framework
# The original CSD entry MOYWIH is in the triclinic crystal system
# The framework has been calculated to contain at least 10.0% void space
# The void calculation uses a probe of radius 1.32A, grid spacing 0.4
#
###############################################################################

data_MOYWIH
_chemical_formula_moiety         '(C34 H22 Co4 N8 O8 S2)n'
_symmetry_cell_setting           triclinic
_symmetry_space_group_name_H-M   'P 1'
_symmetry_Int_Tables_number      1
_space_group_name_Hall           'P 1'
loop_
_symmetry_equiv_pos_site_id
_symmetry_equiv_pos_as_xyz
1 x,y,z
_cell_length_a                   8.807(4)
_cell_length_b                   11.139(6)
_cell_length_c                   11.291(5)
_cell_angle_alpha                75.337(7)
_cell_angle_beta                 73.584(5)
_cell_angle_gamma                66.795(5)
_cell_volume                     963.841
loop_
_atom_site_label
_atom_site_type_symbol
_atom_site_fract_x
_atom_site_fract_y
_atom_site_fract_z
Co4 Co 0.5000 -0.0000 0.0000
N4 N 0.3359(6) 0.1272(5) 0.8711(5)
C8 C 0.1058(8) 0.2617(6) 0.7140(6)
C9 C 0.0818(8) 0.3012(7) 0.8287(6)
C10 C 0.2005(7) 0.2319(6) 0.9028(6)
H8 H 0.1853 0.2595 0.9778
C11 C 0.2500(9) 0.1551(7) 0.6803(6)
H9 H 0.2719 0.1280 0.6038
C12 C 0.3599(8) 0.0900(7) 0.7598(6)
H10 H 0.4543 0.0177 0.7367
Co4_2 Co 0.5000 -0.0000 1.0000
Co4_3 Co 0.5000 1.0000 0.0000
Co4_4 Co 0.5000 1.0000 1.0000
O3 O 0.3046(5) 0.0129(5) 0.1582(4)
O9 O 0.5292(5) 0.1703(4) 0.0231(4)
Co1 Co 0.5000 0.5000 0.0000
S1 S 0.9996(2) 0.27890(17) 0.49720(17)
O1 O 0.3323(5) 0.6890(3) 0.0201(4)
O4 O 0.0873(6) 0.9877(5) 0.3032(4)
O5 O 0.3126(5) 0.4329(5) 0.1285(4)
H1 H 0.2747 0.4733 0.1880
H2 H 0.3570 0.3522 0.1502
N1 N 0.6202(6) 0.4980(5) 0.1461(4)
N2 N 0.7722(6) 0.4961(6) 0.5525(5)
N3 N 0.8606(6) 0.4463(6) 0.6483(5)
C1 C 0.5404(7) 0.5703(6) 0.2391(5)
H3 H 0.4372 0.6374 0.2325
C2 C 0.6054(7) 0.5493(6) 0.3454(5)
H4 H 0.5461 0.6005 0.4085
C3 C 0.7604(7) 0.4504(6) 0.3542(5)
C4 C 0.8477(8) 0.3812(6) 0.2556(6)
H5 H 0.9543 0.3173 0.2573
C5 C 0.7730(7) 0.4088(6) 0.1535(6)
H6 H 0.8330 0.3625 0.0870
C6 C 0.8313(8) 0.4204(6) 0.4678(6)
C7 C 0.9838(8) 0.3330(6) 0.6300(6)
H7 H 0.9878 0.3726 0.8544
C14 C 0.1661(6) 0.9119(5) 0.0003(5)
C15 C 0.0822(6) 0.9914(5) 0.0939(5)
C16 C 0.1648(7) 0.9951(6) 0.1944(5)
N10 N 0.6641(6) 0.8728(5) 0.1289(5)
Co1_2 Co 0.5000 0.5000 1.0000
O2 O 0.4708(5) 0.8297(4) 0.9769(4)
C13 C 0.3394(6) 0.8036(5) 0.9991(5)
C17 C 0.0830(6) 0.9232(5) 0.9070(5)
H11 H 0.1399 0.8721 0.8437
S2 S 0.0004(2) 0.72110(17) 0.50280(17)
O7 O 0.6677(5) 0.3110(3) 0.9799(4)
O11 O 0.6954(5) 0.9871(5) 0.8418(4)
O13 O 0.6874(5) 0.5671(5) 0.8715(4)
H12 H 0.7253 0.5267 0.8120
H13 H 0.6430 0.6478 0.8498
N5 N 0.3798(6) 0.5020(5) 0.8539(4)
N6 N 0.2278(6) 0.5039(6) 0.4475(5)
N7 N 0.1394(6) 0.5537(6) 0.3517(5)
C18 C 0.4596(7) 0.4297(6) 0.7609(5)
H14 H 0.5628 0.3626 0.7675
C19 C 0.3946(7) 0.4507(6) 0.6546(5)
H15 H 0.4539 0.3995 0.5915
C20 C 0.2396(7) 0.5496(6) 0.6458(5)
C21 C 0.1523(8) 0.6188(6) 0.7444(6)
H16 H 0.0457 0.6827 0.7427
C22 C 0.2270(7) 0.5912(6) 0.8465(6)
H17 H 0.1670 0.6375 0.9130
C23 C 0.1687(8) 0.5796(6) 0.5322(6)
C24 C 0.0162(8) 0.6670(6) 0.3700(6)
H18 H 0.0122 0.6274 0.1456
C30 C 0.6606(6) 0.1964(5) 0.0009(5)
C34 C 0.9170(6) 0.0768(5) 0.0930(5)
H22 H 0.8601 0.1279 0.1563
O12 O 0.9127(6) 0.0123(5) 0.6968(4)
C31 C 0.8339(6) 0.0881(5) 0.9997(5)
C32 C 0.9178(6) 0.0086(5) 0.9061(5)
C33 C 0.8352(7) 0.0049(6) 0.8056(5)
C25 C 0.8942(8) 0.7383(6) 0.2860(6)
C26 C 0.9182(8) 0.6988(7) 0.1713(6)
C27 C 0.7995(7) 0.7681(6) 0.0972(6)
H19 H 0.8147 0.7405 0.0222
C28 C 0.7500(9) 0.8449(7) 0.3197(6)
H20 H 0.7281 0.8720 0.3962
C29 C 0.6401(8) 0.9100(7) 0.2402(6)
H21 H 0.5457 0.9823 0.2633
loop_
_geom_bond_atom_site_label_1
_geom_bond_atom_site_label_2
_geom_bond_site_symmetry_1
_geom_bond_site_symmetry_2
N4 C10 1_555 1_555
C9 C8 1_555 1_555
C10 C9 1_555 1_555
H8 C10 1_555 1_555
C11 C8 1_555 1_555
H9 C11 1_555 1_555
C12 N4 1_555 1_555
H10 C12 1_555 1_555
Co4_2 N4 1_555 1_555
C11 C12 1_555 1_555
O3 Co4 1_555 1_555
O9 Co4 1_555 1_555
Co1 O1 1_555 1_555
S1 C6 1_555 1_555
O4 C16 1_555 1_555
O5 Co1 1_555 1_555
H1 O5 1_555 1_555
H2 O5 1_555 1_555
N1 Co1 1_555 1_555
N2 N3 1_555 1_555
N3 C7 1_555 1_555
C1 N1 1_555 1_555
H3 C1 1_555 1_555
C2 C1 1_555 1_555
H4 C2 1_555 1_555
C3 C2 1_555 1_555
C4 C3 1_555 1_555
H5 C4 1_555 1_555
C5 N1 1_555 1_555
H6 C5 1_555 1_555
C6 N2 1_555 1_555
C7 S1 1_555 1_555
C14 C15 1_555 1_555
C15 C16 1_555 1_555
N10 Co4_3 1_555 1_555
C3 C6 1_555 1_555
C4 C5 1_555 1_555
Co4_4 O2 1_555 1_555
O2 C13 1_555 1_555
H11 C17 1_555 1_555
S2 C23 1_555 1_555
O7 Co1_2 1_555 1_555
O11 Co4_4 1_555 1_555
O13 Co1_2 1_555 1_555
H12 O13 1_555 1_555
H13 O13 1_555 1_555
N5 Co1_2 1_555 1_555
N6 N7 1_555 1_555
N7 C24 1_555 1_555
C18 N5 1_555 1_555
H14 C18 1_555 1_555
C19 C18 1_555 1_555
H15 C19 1_555 1_555
C20 C19 1_555 1_555
C21 C20 1_555 1_555
H16 C21 1_555 1_555
C22 N5 1_555 1_555
H17 C22 1_555 1_555
C23 N6 1_555 1_555
C24 S2 1_555 1_555
C20 C23 1_555 1_555
C21 C22 1_555 1_555
O9 C30 1_555 1_555
H22 C34 1_555 1_555
O12 C33 1_555 1_555
C31 C32 1_555 1_555
C32 C33 1_555 1_555
N10 C27 1_555 1_555
C26 C25 1_555 1_555
C27 C26 1_555 1_555
H19 C27 1_555 1_555
C28 C25 1_555 1_555
H20 C28 1_555 1_555
C29 N10 1_555 1_555
H21 C29 1_555 1_555
C28 C29 1_555 1_555

#END
