
###############################################################################
#
# This file contains modified crystal structure data generated from the
# MOF subset of the Cambridge Structural Database (CSD) v543 
# hosted by the Cambridge Crystallographic Data Centre (CCDC).
#
# This work is licensed under the Creative Commons
# Attribution-NonCommercial-ShareAlike 4.0 International License.
# To view a copy of this license, visit
# http://creativecommons.org/licenses/by-nc-sa/4.0/
# or send a letter to
# Creative Commons, PO Box 1866, Mountain View, CA 94042, USA.
#
# CIF created using the CSD Python API on 29 September 2022
# The structure has been converted into the P1 space group
# The structure has a 3D framework
# The original CSD entry MOYWIJ is in the monoclinic crystal system
# The framework has been calculated to contain at least 10.0% void space
# The void calculation uses a probe of radius 1.32A, grid spacing 0.4
#
###############################################################################

data_MOYWIJ
_chemical_formula_moiety         '(C336 H436 Br8 N96 O92 Pb30)n'
_symmetry_cell_setting           triclinic
_symmetry_space_group_name_H-M   'P 1'
_symmetry_Int_Tables_number      1
_space_group_name_Hall           'P 1'
loop_
_symmetry_equiv_pos_site_id
_symmetry_equiv_pos_as_xyz
1 x,y,z
_cell_length_a                   33.9948(19)
_cell_length_b                   10.8846(6)
_cell_length_c                   31.8347(17)
_cell_angle_alpha                90
_cell_angle_beta                 109.4930(10)
_cell_angle_gamma                90
_cell_volume                     11104.3
loop_
_atom_site_label
_atom_site_type_symbol
_atom_site_fract_x
_atom_site_fract_y
_atom_site_fract_z
C51 C 0.1441(5) 0.0741(14) 0.5011(4)
H68 H 0.1730 0.0587 0.5184
H69 H 0.1397 0.1622 0.4984
C55 C 0.0880(4) 0.0310(10) 0.4272(4)
H74 H 0.0825 0.1188 0.4213
Pb6 Pb 0.06505(2) 0.23064(4) 0.30961(2)
Br2 Br 0.11665(6) 0.06319(14) 0.27918(7)
O17 O 0.0529(3) 0.0151(8) 0.3490(3)
H102 H 0.0302 0.0032 0.4352
N23 N 0.1163(4) 0.0181(11) 0.5230(4)
C83 C 0.0715(5) 0.0432(13) 0.4990(5)
H105 H 0.0667 0.1311 0.4962
H106 H 0.0547 0.0094 0.5156
C84 C 0.1333(5) 0.0156(12) 0.4554(4)
H107 H 0.1506 0.0518 0.4399
O25 O 0.0243(3) 0.2078(9) 0.2160(3)
O32 O 0.0404(3) 0.4515(7) 0.3339(3)
O36 O 0.1313(3) 0.3547(7) 0.3290(3)
O38 O 0.0590(3) 0.3792(8) 0.2436(3)
O42 O 0.1291(3) 0.2275(10) 0.3814(3)
Pb21 Pb 0.37138(2) 0.04040(4) 0.21395(2)
C12 C 0.1796(4) 0.6885(11) 0.0742(4)
C14 C 0.0301(4) 0.7182(11) 0.1200(3)
H21 H 0.0370 0.6320 0.1257
H22 H -0.0000 0.7255 0.1097
N2 N 0.1656(3) 0.6114(10) 0.0398(3)
Pb1 Pb 0.0000 0.54823(5) 0.2500
C15 C 0.2806(4) 0.8096(15) 0.1443(4)
H23 H 0.2864 0.7321 0.1602
H24 H 0.2900 0.8755 0.1658
C16 C 0.2881(4) 0.7166(12) 0.0747(4)
H25 H 0.3013 0.7267 0.0522
H26 H 0.2953 0.6359 0.0879
O2 O 0.0602(3) 0.6712(8) 0.2297(3)
C19 C 0.1074(4) 0.8552(14) 0.1378(5)
H27 H 0.0954 0.9363 0.1300
H28 H 0.1375 0.8626 0.1460
O8 O 0.3687(3) 0.8547(7) 0.1710(3)
N3 N 0.0978(3) 0.6406(9) 0.0446(3)
C20 C 0.0343(4) 0.7256(9) 0.1989(3)
C21 C 0.2346(4) 0.8217(15) 0.1202(5)
H29 H 0.2197 0.8187 0.1413
H30 H 0.2287 0.9000 0.1048
C22 C 0.0966(4) 0.8062(12) 0.1772(4)
H31 H 0.1065 0.8627 0.2021
H32 H 0.1101 0.7275 0.1864
N5 N 0.0917(3) 0.7734(11) 0.0995(3)
C24 C 0.3041(4) 0.8152(12) 0.1107(4)
H34 H 0.2996 0.8961 0.0964
N6 N 0.1569(3) 0.7399(9) 0.0972(3)
C26 C 0.0484(3) 0.7909(10) 0.1640(4)
H36 H 0.0359 0.8730 0.1594
O10 O 0.3709(3) 0.7275(10) 0.1186(3)
C29 C 0.1162(4) 0.7135(11) 0.0797(4)
N7 N 0.2209(3) 0.7216(11) 0.0882(3)
C31 C 0.3495(4) 0.7976(11) 0.1335(4)
C32 C 0.1260(4) 0.5882(11) 0.0287(4)
C33 C 0.0465(4) 0.7632(13) 0.0832(4)
H43 H 0.0380 0.7062 0.0584
H44 H 0.0344 0.8428 0.0726
C34 C 0.2419(4) 0.7259(15) 0.0534(4)
H45 H 0.2319 0.6586 0.0326
H46 H 0.2349 0.8023 0.0369
Pb4 Pb 0.12862(2) 0.54040(4) 0.28605(2)
C43 C 0.2812(5) 0.726(2) 0.5724(7)
H55 H 0.2758 0.6560 0.5524
H56 H 0.2997 0.7813 0.5639
C44 C 0.2295(7) 0.616(2) 0.6137(7)
H57 H 0.2249 0.5445 0.5947
H58 H 0.2133 0.6065 0.6334
C45 C 0.2433(6) 0.7872(19) 0.5669(7)
H59 H 0.2292 0.7996 0.5352
H60 H 0.2498 0.8679 0.5804
C46 C 0.0437(4) 0.6936(11) 0.7117(4)
O13 O 0.0243(3) 0.7922(9) 0.7160(3)
C47 C 0.2709(5) 0.6229(18) 0.6388(6)
H61 H 0.2728 0.6671 0.6658
H62 H 0.2802 0.5397 0.6475
C48 C 0.3030(5) 0.6822(15) 0.6196(6)
H63 H 0.3224 0.6173 0.6181
C49 C 0.0428(4) 0.7362(18) 0.5904(5)
H64 H 0.0234 0.6703 0.5770
H65 H 0.0366 0.8049 0.5698
C50 C 0.0372(4) 0.7760(14) 0.6347(4)
H66 H 0.0085 0.7997 0.6294
H67 H 0.0549 0.8463 0.6469
N13 N 0.2140(4) 0.7297(14) 0.5848(4)
C52 C 0.0929(4) 0.6213(13) 0.6728(4)
H70 H 0.0993 0.5491 0.6918
H71 H 0.1133 0.6842 0.6868
H76 H -0.0000 0.7255 0.3903
Pb5 Pb 0.07115(2) 0.84619(4) 0.30365(2)
O16 O 0.0964(3) 0.8679(9) 0.3818(3)
O18 O 0.0033(3) 0.7291(8) 0.3053(3)
C60 C 0.0785(4) 0.9666(11) 0.3840(4)
O21 O 0.0590(3) 0.6208(8) 0.7436(3)
C67 C 0.0491(4) 0.6677(11) 0.6682(4)
H89 H 0.0299 0.6006 0.6546
O23 O 0.3553(2) 0.7372(7) 0.6878(3)
O24 O 0.3194(3) 0.8900(9) 0.6461(3)
C77 C 0.3275(4) 0.7744(13) 0.6534(5)
N20 N 0.1513(3) 0.7066(10) 0.5946(3)
N21 N 0.1659(4) 0.8755(12) 0.5544(4)
N22 N 0.0984(3) 0.8547(11) 0.5591(3)
C78 C 0.1139(4) 0.7538(14) 0.5847(4)
C79 C 0.1268(5) 0.9140(12) 0.5459(4)
C80 C 0.0590(4) 0.9831(12) 0.4521(4)
H101 H 0.0613 0.8944 0.4550
C81 C 0.0956(5) 0.5885(14) 0.6258(5)
H103 H 0.1236 0.5613 0.6289
H104 H 0.0764 0.5224 0.6125
C82 C 0.1756(5) 0.7762(15) 0.5780(5)
N24 N 0.0853(4) 0.6945(12) 0.5981(4)
H108 H 0.1397 0.9286 0.4590
Pb9 Pb 0.0000 0.45177(5) 0.7500
Pb13 Pb 0.42885(2) 0.65381(4) 0.69635(2)
Pb14 Pb 0.43495(2) 0.73064(4) 0.19039(2)
Pb17 Pb 0.06505(2) 0.76936(4) 0.80961(2)
O28 O 0.0833(2) 0.5978(7) 0.3292(2)
O44 O 0.1447(2) 0.7628(7) 0.3122(3)
O46 O 0.1806(3) 0.6100(9) 0.3539(3)
Pb25 Pb 0.12862(2) 0.45960(4) 0.78605(2)
Pb26 Pb 0.37138(2) 0.95960(4) 0.71395(2)
C11 C 0.1366(4) 0.4358(13) 0.9752(4)
H18 H 0.1335 0.3483 0.9791
H19 H 0.1656 0.4576 0.9900
O3 O 0.0833(2) 0.4022(7) 0.8292(2)
C17 C 0.0661(3) 0.4674(10) 0.8519(3)
O7 O 0.0404(3) 0.5485(7) 0.8339(3)
N4 N 0.1102(3) 0.5040(10) 0.9949(3)
C23 C 0.0781(3) 0.4399(10) 0.9014(3)
H33 H 0.0731 0.3525 0.9049
C27 C 0.0648(4) 0.4831(13) 0.9725(4)
H37 H 0.0491 0.5334 0.9865
H38 H 0.0583 0.3977 0.9758
C28 C 0.0522(4) 0.5146(13) 0.9240(4)
H39 H 0.0565 0.6016 0.9207
H40 H 0.0228 0.4969 0.9097
C30 C 0.1240(3) 0.4660(12) 0.9258(4)
H41 H 0.1297 0.5521 0.9223
H42 H 0.1408 0.4177 0.9126
Pb10 Pb 0.07115(2) 0.15381(4) 0.80365(2)
H15 H 0.8603 0.1622 0.0016
C13 C 0.9120(4) 0.0310(10) 0.0728(4)
H20 H 0.9175 0.1188 0.0787
Pb3 Pb 0.93495(2) 0.23064(4) 0.19039(2)
Br1 Br 0.88335(6) 0.06319(14) 0.22082(7)
O5 O 0.9471(3) 0.0151(8) 0.1510(3)
H48 H 0.9698 0.0032 0.0648
C41 C 0.9285(5) 0.0432(13) 0.0010(5)
H51 H 0.9333 0.1311 0.0038
C42 C 0.8667(5) 0.0156(12) 0.0446(4)
H53 H 0.8494 0.0518 0.0601
O26 O 0.9757(3) 0.2078(9) 0.2840(3)
O30 O 0.9596(3) 0.4515(7) 0.1661(3)
O34 O 0.8687(3) 0.3547(7) 0.1710(3)
O40 O 0.9410(3) 0.3792(8) 0.2564(3)
O41 O 0.8709(3) 0.2275(10) 0.1186(3)
Pb20 Pb 0.62862(2) 0.04040(4) 0.28605(2)
H22_2 H 1.0000 0.7255 0.1097
Pb1_2 Pb 1.0000 0.54823(5) 0.2500
Pb2 Pb 0.92885(2) 0.84619(4) 0.19635(2)
O4 O 0.9036(3) 0.8679(9) 0.1182(3)
O6 O 0.9967(3) 0.7291(8) 0.1947(3)
C18 C 0.9215(4) 0.9666(11) 0.1160(4)
C38 C 0.9410(4) 0.9831(12) 0.0479(4)
H47 H 0.9387 0.8944 0.0450
H54 H 0.8603 0.9286 0.0410
C53 C 0.8634(4) 0.4358(13) 0.5248(4)
H72 H 0.8665 0.3483 0.5209
H73 H 0.8344 0.4576 0.5100
C54 C 0.8204(4) 0.6885(11) 0.4258(4)
C56 C 0.9699(4) 0.7182(11) 0.3800(3)
H75 H 0.9630 0.6320 0.3743
H76_2 H 1.0000 0.7255 0.3903
N14 N 0.8344(3) 0.6114(10) 0.4602(3)
C57 C 0.7194(4) 0.8096(15) 0.3557(4)
H77 H 0.7136 0.7321 0.3398
H78 H 0.7100 0.8755 0.3342
C58 C 0.7119(4) 0.7166(12) 0.4253(4)
H79 H 0.6987 0.7267 0.4478
H80 H 0.7047 0.6359 0.4121
O14 O 0.9398(3) 0.6712(8) 0.2703(3)
O15 O 0.9167(2) 0.4022(7) 0.6708(2)
C59 C 0.9339(3) 0.4674(10) 0.6481(3)
O19 O 0.9596(3) 0.5485(7) 0.6661(3)
C61 C 0.8926(4) 0.8552(14) 0.3622(5)
H81 H 0.9046 0.9363 0.3700
H82 H 0.8625 0.8626 0.3540
O20 O 0.6313(3) 0.8547(7) 0.3290(3)
N15 N 0.9022(3) 0.6406(9) 0.4554(3)
C62 C 0.9657(4) 0.7256(9) 0.3011(3)
C63 C 0.7654(4) 0.8217(15) 0.3798(5)
H83 H 0.7803 0.8187 0.3587
H84 H 0.7713 0.9000 0.3952
N16 N 0.8898(3) 0.5040(10) 0.5051(3)
C64 C 0.9034(4) 0.8062(12) 0.3228(4)
H85 H 0.8935 0.8627 0.2979
H86 H 0.8899 0.7275 0.3136
C65 C 0.9219(3) 0.4399(10) 0.5986(3)
H87 H 0.9269 0.3525 0.5951
N17 N 0.9083(3) 0.7734(11) 0.4005(3)
C66 C 0.6959(4) 0.8152(12) 0.3893(4)
H88 H 0.7004 0.8961 0.4036
N18 N 0.8431(3) 0.7399(9) 0.4028(3)
C68 C 0.9516(3) 0.7909(10) 0.3360(4)
H90 H 0.9641 0.8730 0.3406
O22 O 0.6291(3) 0.7275(10) 0.3814(3)
C69 C 0.9352(4) 0.4831(13) 0.5275(4)
H91 H 0.9509 0.5334 0.5135
H92 H 0.9417 0.3977 0.5242
C70 C 0.9478(4) 0.5146(13) 0.5760(4)
H93 H 0.9435 0.6016 0.5793
H94 H 0.9772 0.4969 0.5903
C71 C 0.8838(4) 0.7135(11) 0.4203(4)
N19 N 0.7791(3) 0.7216(11) 0.4118(3)
C72 C 0.8760(3) 0.4660(12) 0.5742(4)
H95 H 0.8703 0.5521 0.5777
H96 H 0.8592 0.4177 0.5874
C73 C 0.6505(4) 0.7976(11) 0.3665(4)
C74 C 0.8740(4) 0.5882(11) 0.4713(4)
C75 C 0.9535(4) 0.7632(13) 0.4168(4)
H97 H 0.9620 0.7062 0.4416
H98 H 0.9656 0.8428 0.4274
C76 C 0.7581(4) 0.7259(15) 0.4466(4)
H99 H 0.7681 0.6586 0.4674
H100 H 0.7651 0.8023 0.4631
Pb7 Pb 0.87138(2) 0.54040(4) 0.21395(2)
Pb9_2 Pb 1.0000 0.45177(5) 0.7500
Pb11 Pb 0.92885(2) 0.15381(4) 0.69635(2)
Pb15 Pb 0.56505(2) 0.73064(4) 0.30961(2)
Pb19 Pb 0.93495(2) 0.76936(4) 0.69039(2)
O27 O 0.9167(2) 0.5978(7) 0.1708(2)
O43 O 0.8553(2) 0.7628(7) 0.1878(3)
O45 O 0.8194(3) 0.6100(9) 0.1461(3)
Pb23 Pb 0.87138(2) 0.45960(4) 0.71395(2)
C1 C 0.7188(5) 0.726(2) 0.9276(7)
H1 H 0.7242 0.6560 0.9476
H2 H 0.7003 0.7813 0.9361
C2 C 0.7705(7) 0.616(2) 0.8863(7)
H3 H 0.7751 0.5445 0.9053
H4 H 0.7867 0.6065 0.8666
C3 C 0.7567(6) 0.7872(19) 0.9331(7)
H5 H 0.7708 0.7996 0.9648
H6 H 0.7502 0.8679 0.9196
C4 C 0.9563(4) 0.6936(11) 0.7883(4)
O1 O 0.9757(3) 0.7922(9) 0.7840(3)
C5 C 0.7291(5) 0.6229(18) 0.8612(6)
H7 H 0.7272 0.6671 0.8342
H8 H 0.7198 0.5397 0.8525
C6 C 0.6970(5) 0.6822(15) 0.8804(6)
H9 H 0.6776 0.6173 0.8819
C7 C 0.9572(4) 0.7362(18) 0.9096(5)
H10 H 0.9766 0.6703 0.9230
H11 H 0.9634 0.8049 0.9302
C8 C 0.9628(4) 0.7760(14) 0.8653(4)
H12 H 0.9915 0.7997 0.8706
H13 H 0.9451 0.8463 0.8531
N1 N 0.7860(4) 0.7297(14) 0.9152(4)
C10 C 0.9071(4) 0.6213(13) 0.8272(4)
H16 H 0.9007 0.5491 0.8082
H17 H 0.8867 0.6842 0.8132
O9 O 0.9410(3) 0.6208(8) 0.7564(3)
C25 C 0.9509(4) 0.6677(11) 0.8318(4)
H35 H 0.9701 0.6006 0.8454
O11 O 0.6447(2) 0.7372(7) 0.8122(3)
O12 O 0.6806(3) 0.8900(9) 0.8539(3)
C35 C 0.6725(4) 0.7744(13) 0.8466(5)
N8 N 0.8487(3) 0.7066(10) 0.9054(3)
N9 N 0.8341(4) 0.8755(12) 0.9456(4)
N10 N 0.9016(3) 0.8547(11) 0.9409(3)
C36 C 0.8861(4) 0.7538(14) 0.9153(4)
C37 C 0.8732(5) 0.9140(12) 0.9541(4)
C39 C 0.9044(5) 0.5885(14) 0.8742(5)
H49 H 0.8764 0.5613 0.8711
H50 H 0.9236 0.5224 0.8875
C40 C 0.8244(5) 0.7762(15) 0.9220(5)
N12 N 0.9147(4) 0.6945(12) 0.9019(4)
Pb12 Pb 0.57115(2) 0.65381(4) 0.80365(2)
Pb27 Pb 0.62862(2) 0.95960(4) 0.78605(2)
H15_2 H 0.3603 0.6622 0.0016
C12_2 C 0.6796(4) 0.1885(11) 0.0742(4)
C13_2 C 0.4120(4) 0.5310(10) 0.0728(4)
H20_2 H 0.4175 0.6188 0.0787
C14_2 C 0.5301(4) 0.2182(11) 0.1200(3)
H21_2 H 0.5370 0.1320 0.1257
H22_3 H 0.5000 0.2255 0.1097
N2_2 N 0.6656(3) 0.1114(10) 0.0398(3)
Pb1_3 Pb 0.5000 0.04823(5) 0.2500
Pb2_2 Pb 0.42885(2) 0.34619(4) 0.19635(2)
Br1_2 Br 0.38335(6) 0.56319(14) 0.22082(7)
C15_2 C 0.7806(4) 0.3096(15) 0.1443(4)
H23_2 H 0.7864 0.2321 0.1602
H24_2 H 0.7900 0.3755 0.1658
C16_2 C 0.7881(4) 0.2166(12) 0.0747(4)
H25_2 H 0.8013 0.2267 0.0522
H26_2 H 0.7953 0.1359 0.0879
O2_2 O 0.5602(3) 0.1712(8) 0.2297(3)
O4_2 O 0.4036(3) 0.3679(9) 0.1182(3)
O5_2 O 0.4471(3) 0.5151(8) 0.1510(3)
O6_2 O 0.4967(3) 0.2291(8) 0.1947(3)
C18_2 C 0.4215(4) 0.4666(11) 0.1160(4)
C19_2 C 0.6074(4) 0.3552(14) 0.1378(5)
H27_2 H 0.5954 0.4363 0.1300
H28_2 H 0.6375 0.3626 0.1460
N3_2 N 0.5978(3) 0.1406(9) 0.0446(3)
C20_2 C 0.5343(4) 0.2256(9) 0.1989(3)
C21_2 C 0.7346(4) 0.3217(15) 0.1202(5)
H29_2 H 0.7197 0.3187 0.1413
H30_2 H 0.7287 0.4000 0.1048
C22_2 C 0.5966(4) 0.3062(12) 0.1772(4)
H31_2 H 0.6065 0.3627 0.2021
H32_2 H 0.6101 0.2275 0.1864
N5_2 N 0.5917(3) 0.2734(11) 0.0995(3)
C24_2 C 0.8041(4) 0.3152(12) 0.1107(4)
H34_2 H 0.7996 0.3961 0.0964
N6_2 N 0.6569(3) 0.2399(9) 0.0972(3)
C26_2 C 0.5484(3) 0.2909(10) 0.1640(4)
H36_2 H 0.5359 0.3730 0.1594
C29_2 C 0.6162(4) 0.2135(11) 0.0797(4)
N7_2 N 0.7209(3) 0.2216(11) 0.0882(3)
C31_2 C 0.8495(4) 0.2976(11) 0.1335(4)
C32_2 C 0.6260(4) 0.0882(11) 0.0287(4)
C33_2 C 0.5465(4) 0.2632(13) 0.0832(4)
H43_2 H 0.5380 0.2062 0.0584
H44_2 H 0.5344 0.3428 0.0726
C34_2 C 0.7419(4) 0.2259(15) 0.0534(4)
H45_2 H 0.7319 0.1586 0.0326
H46_2 H 0.7349 0.3023 0.0369
C38_2 C 0.4410(4) 0.4831(12) 0.0479(4)
H47_2 H 0.4387 0.3944 0.0450
H48_2 H 0.4698 0.5032 0.0648
C41_2 C 0.4285(5) 0.5432(13) 0.0010(5)
H51_2 H 0.4333 0.6311 0.0038
C42_2 C 0.3667(5) 0.5156(12) 0.0446(4)
H53_2 H 0.3494 0.5518 0.0601
H54_2 H 0.3603 0.4286 0.0410
C43_2 C 0.7812(5) 0.226(2) 0.5724(7)
H55_2 H 0.7758 0.1560 0.5524
H56_2 H 0.7997 0.2813 0.5639
C44_2 C 0.7295(7) 0.116(2) 0.6137(7)
H57_2 H 0.7249 0.0445 0.5947
H58_2 H 0.7133 0.1065 0.6334
C45_2 C 0.7433(6) 0.2872(19) 0.5669(7)
H59_2 H 0.7292 0.2996 0.5352
H60_2 H 0.7498 0.3679 0.5804
C46_2 C 0.5437(4) 0.1936(11) 0.7117(4)
O13_2 O 0.5243(3) 0.2922(9) 0.7160(3)
C47_2 C 0.7709(5) 0.1229(18) 0.6388(6)
H61_2 H 0.7728 0.1671 0.6658
H62_2 H 0.7802 0.0397 0.6475
C48_2 C 0.8030(5) 0.1822(15) 0.6196(6)
H63_2 H 0.8224 0.1173 0.6181
C49_2 C 0.5428(4) 0.2362(18) 0.5904(5)
H64_2 H 0.5234 0.1703 0.5770
H65_2 H 0.5366 0.3049 0.5698
C50_2 C 0.5372(4) 0.2760(14) 0.6347(4)
H66_2 H 0.5085 0.2997 0.6294
H67_2 H 0.5549 0.3463 0.6469
N13_2 N 0.7140(4) 0.2297(14) 0.5848(4)
C51_2 C 0.6441(5) 0.5741(14) 0.5011(4)
H68_2 H 0.6730 0.5587 0.5184
H69_2 H 0.6397 0.6622 0.4984
C52_2 C 0.5929(4) 0.1213(13) 0.6728(4)
H70_2 H 0.5993 0.0491 0.6918
H71_2 H 0.6133 0.1842 0.6868
C54_2 C 0.3204(4) 0.1885(11) 0.4258(4)
C55_2 C 0.5880(4) 0.5310(10) 0.4272(4)
H74_2 H 0.5825 0.6188 0.4213
C56_2 C 0.4699(4) 0.2182(11) 0.3800(3)
H75_2 H 0.4630 0.1320 0.3743
H76_3 H 0.5000 0.2255 0.3903
N14_2 N 0.3344(3) 0.1114(10) 0.4602(3)
Pb5_2 Pb 0.57115(2) 0.34619(4) 0.30365(2)
Br2_2 Br 0.61665(6) 0.56319(14) 0.27918(7)
C57_2 C 0.2194(4) 0.3096(15) 0.3557(4)
H77_2 H 0.2136 0.2321 0.3398
H78_2 H 0.2100 0.3755 0.3342
C58_2 C 0.2119(4) 0.2166(12) 0.4253(4)
H79_2 H 0.1987 0.2267 0.4478
H80_2 H 0.2047 0.1359 0.4121
O14_2 O 0.4398(3) 0.1712(8) 0.2703(3)
O16_2 O 0.5964(3) 0.3679(9) 0.3818(3)
O17_2 O 0.5529(3) 0.5151(8) 0.3490(3)
O18_2 O 0.5033(3) 0.2291(8) 0.3053(3)
O19_2 O 0.4596(3) 0.0485(7) 0.6661(3)
C60_2 C 0.5785(4) 0.4666(11) 0.3840(4)
C61_2 C 0.3926(4) 0.3552(14) 0.3622(5)
H81_2 H 0.4046 0.4363 0.3700
H82_2 H 0.3625 0.3626 0.3540
N15_2 N 0.4022(3) 0.1406(9) 0.4554(3)
O21_2 O 0.5590(3) 0.1208(8) 0.7436(3)
C62_2 C 0.4657(4) 0.2256(9) 0.3011(3)
C63_2 C 0.2654(4) 0.3217(15) 0.3798(5)
H83_2 H 0.2803 0.3187 0.3587
H84_2 H 0.2713 0.4000 0.3952
N16_2 N 0.3898(3) 0.0040(10) 0.5051(3)
C64_2 C 0.4034(4) 0.3062(12) 0.3228(4)
H85_2 H 0.3935 0.3627 0.2979
H86_2 H 0.3899 0.2275 0.3136
N17_2 N 0.4083(3) 0.2734(11) 0.4005(3)
C66_2 C 0.1959(4) 0.3152(12) 0.3893(4)
H88_2 H 0.2004 0.3961 0.4036
N18_2 N 0.3431(3) 0.2399(9) 0.4028(3)
C67_2 C 0.5491(4) 0.1677(11) 0.6682(4)
H89_2 H 0.5299 0.1006 0.6546
C68_2 C 0.4516(3) 0.2909(10) 0.3360(4)
H90_2 H 0.4641 0.3730 0.3406
H91_2 H 0.4509 0.0334 0.5135
C70_2 C 0.4478(4) 0.0146(13) 0.5760(4)
H93_2 H 0.4435 0.1016 0.5793
C71_2 C 0.3838(4) 0.2135(11) 0.4203(4)
N19_2 N 0.2791(3) 0.2216(11) 0.4118(3)
O23_2 O 0.8553(2) 0.2372(7) 0.6878(3)
H95_2 H 0.3703 0.0521 0.5777
C73_2 C 0.1505(4) 0.2976(11) 0.3665(4)
C74_2 C 0.3740(4) 0.0882(11) 0.4713(4)
C75_2 C 0.4535(4) 0.2632(13) 0.4168(4)
H97_2 H 0.4620 0.2062 0.4416
H98_2 H 0.4656 0.3428 0.4274
O24_2 O 0.8194(3) 0.3900(9) 0.6461(3)
C76_2 C 0.2581(4) 0.2259(15) 0.4466(4)
H99_2 H 0.2681 0.1586 0.4674
H100_2 H 0.2651 0.3023 0.4631
C77_2 C 0.8275(4) 0.2744(13) 0.6534(5)
N20_2 N 0.6513(3) 0.2066(10) 0.5946(3)
N21_2 N 0.6659(4) 0.3755(12) 0.5544(4)
N22_2 N 0.5984(3) 0.3547(11) 0.5591(3)
C78_2 C 0.6139(4) 0.2538(14) 0.5847(4)
C79_2 C 0.6268(5) 0.4140(12) 0.5459(4)
C80_2 C 0.5590(4) 0.4831(12) 0.4521(4)
H101_2 H 0.5613 0.3944 0.4550
H102_2 H 0.5302 0.5032 0.4352
N23_2 N 0.6163(4) 0.5181(11) 0.5230(4)
C81_2 C 0.5956(5) 0.0885(14) 0.6258(5)
H103_2 H 0.6236 0.0613 0.6289
H104_2 H 0.5764 0.0224 0.6125
C82_2 C 0.6756(5) 0.2762(15) 0.5780(5)
N24_2 N 0.5853(4) 0.1945(12) 0.5981(4)
C83_2 C 0.5715(5) 0.5432(13) 0.4990(5)
H105_2 H 0.5667 0.6311 0.4962
H106_2 H 0.5547 0.5094 0.5156
C84_2 C 0.6333(5) 0.5156(12) 0.4554(4)
H107_2 H 0.6506 0.5518 0.4399
H108_2 H 0.6397 0.4286 0.4590
O25_2 O 0.5243(3) 0.7078(9) 0.2160(3)
O26_2 O 0.4757(3) 0.7078(9) 0.2840(3)
Pb17_2 Pb 0.56505(2) 0.26936(4) 0.80961(2)
Pb19_2 Pb 0.43495(2) 0.26936(4) 0.69039(2)
O27_2 O 0.4167(2) 0.0978(7) 0.1708(2)
O28_2 O 0.5833(2) 0.0978(7) 0.3292(2)
O30_2 O 0.4596(3) 0.9515(7) 0.1661(3)
O32_2 O 0.5404(3) 0.9515(7) 0.3339(3)
O38_2 O 0.5590(3) 0.8792(8) 0.2436(3)
O40_2 O 0.4410(3) 0.8792(8) 0.2564(3)
O43_2 O 0.3553(2) 0.2628(7) 0.1878(3)
O44_2 O 0.6447(2) 0.2628(7) 0.3122(3)
O45_2 O 0.3194(3) 0.1100(9) 0.1461(3)
O46_2 O 0.6806(3) 0.1100(9) 0.3539(3)
C1_2 C 0.2188(5) 0.226(2) 0.9276(7)
H1_2 H 0.2242 0.1560 0.9476
H2_2 H 0.2003 0.2813 0.9361
C2_2 C 0.2705(7) 0.116(2) 0.8863(7)
H3_2 H 0.2751 0.0445 0.9053
H4_2 H 0.2867 0.1065 0.8666
C3_2 C 0.2567(6) 0.2872(19) 0.9331(7)
H5_2 H 0.2708 0.2996 0.9648
H6_2 H 0.2502 0.3679 0.9196
C4_2 C 0.4563(4) 0.1936(11) 0.7883(4)
O1_2 O 0.4757(3) 0.2922(9) 0.7840(3)
C5_2 C 0.2291(5) 0.1229(18) 0.8612(6)
H7_2 H 0.2272 0.1671 0.8342
H8_2 H 0.2198 0.0397 0.8525
C6_2 C 0.1970(5) 0.1822(15) 0.8804(6)
H9_2 H 0.1776 0.1173 0.8819
C7_2 C 0.4572(4) 0.2362(18) 0.9096(5)
H10_2 H 0.4766 0.1703 0.9230
H11_2 H 0.4634 0.3049 0.9302
C8_2 C 0.4628(4) 0.2760(14) 0.8653(4)
H12_2 H 0.4915 0.2997 0.8706
H13_2 H 0.4451 0.3463 0.8531
N1_2 N 0.2860(4) 0.2297(14) 0.9152(4)
C9 C 0.3559(5) 0.5741(14) 0.9989(4)
H14 H 0.3270 0.5587 0.9816
C10_2 C 0.4071(4) 0.1213(13) 0.8272(4)
H16_2 H 0.4007 0.0491 0.8082
H17_2 H 0.3867 0.1842 0.8132
O7_2 O 0.5404(3) 0.0485(7) 0.8339(3)
O9_2 O 0.4410(3) 0.1208(8) 0.7564(3)
N4_2 N 0.6102(3) 0.0040(10) 0.9949(3)
C25_2 C 0.4509(4) 0.1677(11) 0.8318(4)
H35_2 H 0.4701 0.1006 0.8454
H37_2 H 0.5491 0.0334 0.9865
C28_2 C 0.5522(4) 0.0146(13) 0.9240(4)
H39_2 H 0.5565 0.1016 0.9207
O11_2 O 0.1447(2) 0.2372(7) 0.8122(3)
H41_2 H 0.6297 0.0521 0.9223
O12_2 O 0.1806(3) 0.3900(9) 0.8539(3)
C35_2 C 0.1725(4) 0.2744(13) 0.8466(5)
N8_2 N 0.3487(3) 0.2066(10) 0.9054(3)
N9_2 N 0.3341(4) 0.3755(12) 0.9456(4)
N10_2 N 0.4016(3) 0.3547(11) 0.9409(3)
C36_2 C 0.3861(4) 0.2538(14) 0.9153(4)
C37_2 C 0.3732(5) 0.4140(12) 0.9541(4)
N11 N 0.3837(4) 0.5181(11) 0.9770(4)
C39_2 C 0.4044(5) 0.0885(14) 0.8742(5)
H49_2 H 0.3764 0.0613 0.8711
H50_2 H 0.4236 0.0224 0.8875
C40_2 C 0.3244(5) 0.2762(15) 0.9220(5)
N12_2 N 0.4147(4) 0.1945(12) 0.9019(4)
H52 H 0.4453 0.5094 0.9844
C53_2 C 0.3634(4) 0.9358(13) 0.5248(4)
H72_2 H 0.3665 0.8483 0.5209
H73_2 H 0.3344 0.9576 0.5100
O15_2 O 0.4167(2) 0.9022(7) 0.6708(2)
C59_2 C 0.4339(3) 0.9674(10) 0.6481(3)
C65_2 C 0.4219(3) 0.9399(10) 0.5986(3)
H87_2 H 0.4269 0.8525 0.5951
C69_2 C 0.4352(4) 0.9831(13) 0.5275(4)
H92_2 H 0.4417 0.8977 0.5242
H94_2 H 0.4772 0.9969 0.5903
C72_2 C 0.3760(3) 0.9660(12) 0.5742(4)
H96_2 H 0.3592 0.9177 0.5874
Pb9_3 Pb 0.5000 0.95177(5) 0.7500
C11_2 C 0.6366(4) 0.9358(13) 0.9752(4)
H18_2 H 0.6335 0.8483 0.9791
H19_2 H 0.6656 0.9576 0.9900
O3_2 O 0.5833(2) 0.9022(7) 0.8292(2)
C17_2 C 0.5661(3) 0.9674(10) 0.8519(3)
C23_2 C 0.5781(3) 0.9399(10) 0.9014(3)
H33_2 H 0.5731 0.8525 0.9049
C27_2 C 0.5648(4) 0.9831(13) 0.9725(4)
H38_2 H 0.5583 0.8977 0.9758
H40_2 H 0.5228 0.9969 0.9097
C30_2 C 0.6240(3) 0.9660(12) 0.9258(4)
H42_2 H 0.6408 0.9177 0.9126
C1_3 C 0.2812(5) 0.274(2) 0.0724(7)
H1_3 H 0.2758 0.3440 0.0524
H2_3 H 0.2997 0.2187 0.0639
C2_3 C 0.2295(7) 0.384(2) 0.1137(7)
H3_3 H 0.2249 0.4555 0.0947
H4_3 H 0.2133 0.3935 0.1334
C3_3 C 0.2433(6) 0.2128(19) 0.0669(7)
H5_3 H 0.2292 0.2004 0.0352
H6_3 H 0.2498 0.1321 0.0804
C4_3 C 0.0437(4) 0.3064(11) 0.2117(4)
C5_3 C 0.2709(5) 0.3771(18) 0.1388(6)
H7_3 H 0.2728 0.3329 0.1658
H8_3 H 0.2802 0.4603 0.1475
C6_3 C 0.3030(5) 0.3178(15) 0.1196(6)
H9_3 H 0.3224 0.3827 0.1181
C7_3 C 0.0428(4) 0.2638(18) 0.0904(5)
H10_3 H 0.0234 0.3297 0.0770
H11_3 H 0.0366 0.1951 0.0698
C8_3 C 0.0372(4) 0.2240(14) 0.1347(4)
H12_3 H 0.0085 0.2003 0.1294
H13_3 H 0.0549 0.1537 0.1469
N1_3 N 0.2140(4) 0.2703(14) 0.0848(4)
C10_3 C 0.0929(4) 0.3787(13) 0.1728(4)
H16_3 H 0.0993 0.4509 0.1918
H17_3 H 0.1133 0.3158 0.1868
C25_3 C 0.0491(4) 0.3323(11) 0.1682(4)
H35_3 H 0.0299 0.3994 0.1546
C35_3 C 0.3275(4) 0.2256(13) 0.1534(5)
N8_3 N 0.1513(3) 0.2934(10) 0.0946(3)
N9_3 N 0.1659(4) 0.1245(12) 0.0544(4)
N10_3 N 0.0984(3) 0.1453(11) 0.0591(3)
C36_3 C 0.1139(4) 0.2462(14) 0.0847(4)
C37_3 C 0.1268(5) 0.0860(12) 0.0459(4)
C39_3 C 0.0956(5) 0.4115(14) 0.1258(5)
H49_3 H 0.1236 0.4387 0.1289
H50_3 H 0.0764 0.4776 0.1125
C40_3 C 0.1756(5) 0.2238(15) 0.0780(5)
N12_3 N 0.0853(4) 0.3055(12) 0.0981(4)
H22_4 H 0.0000 0.2745 0.8903
O4_3 O 0.0964(3) 0.1321(9) 0.8818(3)
O6_3 O 0.0033(3) 0.2709(8) 0.8053(3)
C18_3 C 0.0785(4) 0.0334(11) 0.8840(4)
C38_3 C 0.0590(4) 0.0169(12) 0.9521(4)
H47_3 H 0.0613 0.1056 0.9550
H54_3 H 0.1397 0.0714 0.9590
C53_3 C 0.1366(4) 0.5642(13) 0.4752(4)
H72_3 H 0.1335 0.6517 0.4791
H73_3 H 0.1656 0.5424 0.4900
C54_3 C 0.1796(4) 0.3115(11) 0.5742(4)
C56_3 C 0.0301(4) 0.2818(11) 0.6200(3)
H75_3 H 0.0370 0.3680 0.6257
H76_4 H 0.0000 0.2745 0.6097
N14_3 N 0.1656(3) 0.3886(10) 0.5398(3)
C57_3 C 0.2806(4) 0.1904(15) 0.6443(4)
H77_3 H 0.2864 0.2679 0.6602
H78_3 H 0.2900 0.1245 0.6658
C58_3 C 0.2881(4) 0.2834(12) 0.5747(4)
H79_3 H 0.3013 0.2733 0.5522
H80_3 H 0.2953 0.3641 0.5879
O14_3 O 0.0602(3) 0.3288(8) 0.7297(3)
C59_3 C 0.0661(3) 0.5326(10) 0.3519(3)
C61_3 C 0.1074(4) 0.1448(14) 0.6378(5)
H81_3 H 0.0954 0.0637 0.6300
H82_3 H 0.1375 0.1374 0.6460
O20_2 O 0.3687(3) 0.1453(7) 0.6710(3)
N15_3 N 0.0978(3) 0.3594(9) 0.5446(3)
C62_3 C 0.0343(4) 0.2744(9) 0.6989(3)
C63_3 C 0.2346(4) 0.1783(15) 0.6202(5)
H83_3 H 0.2197 0.1813 0.6413
H84_3 H 0.2287 0.1000 0.6048
N16_3 N 0.1102(3) 0.4960(10) 0.4949(3)
C64_3 C 0.0966(4) 0.1938(12) 0.6772(4)
H85_3 H 0.1065 0.1373 0.7021
H86_3 H 0.1101 0.2725 0.6864
C65_3 C 0.0781(3) 0.5601(10) 0.4014(3)
H87_3 H 0.0731 0.6475 0.4049
N17_3 N 0.0917(3) 0.2266(11) 0.5995(3)
C66_3 C 0.3041(4) 0.1848(12) 0.6107(4)
H88_3 H 0.2996 0.1039 0.5964
N18_3 N 0.1569(3) 0.2601(9) 0.5972(3)
C68_3 C 0.0484(3) 0.2091(10) 0.6640(4)
H90_3 H 0.0359 0.1270 0.6594
O22_2 O 0.3709(3) 0.2725(10) 0.6186(3)
C69_3 C 0.0648(4) 0.5169(13) 0.4725(4)
H91_3 H 0.0491 0.4666 0.4865
H92_3 H 0.0583 0.6023 0.4758
C70_3 C 0.0522(4) 0.4854(13) 0.4240(4)
H93_3 H 0.0565 0.3984 0.4207
H94_3 H 0.0228 0.5031 0.4097
C71_3 C 0.1162(4) 0.2865(11) 0.5797(4)
N19_3 N 0.2209(3) 0.2784(11) 0.5882(3)
C72_3 C 0.1240(3) 0.5340(12) 0.4258(4)
H95_3 H 0.1297 0.4479 0.4223
H96_3 H 0.1408 0.5823 0.4126
C73_3 C 0.3495(4) 0.2024(11) 0.6335(4)
C74_3 C 0.1260(4) 0.4118(11) 0.5287(4)
C75_3 C 0.0465(4) 0.2368(13) 0.5832(4)
H97_3 H 0.0380 0.2938 0.5584
H98_3 H 0.0344 0.1572 0.5726
C76_3 C 0.2419(4) 0.2741(15) 0.5534(4)
H99_3 H 0.2319 0.3414 0.5326
H100_3 H 0.2349 0.1977 0.5369
O33 O 0.1313(3) 0.6453(7) 0.8290(3)
H15_3 H 0.1397 0.8378 0.9984
C13_3 C 0.0880(4) 0.9690(10) 0.9272(4)
H20_3 H 0.0825 0.8812 0.9213
Br1_3 Br 0.11665(6) 0.93681(14) 0.77918(7)
O5_3 O 0.0529(3) 0.9849(8) 0.8490(3)
H48_3 H 0.0302 0.9968 0.9352
C41_3 C 0.0715(5) 0.9568(13) 0.9990(5)
H51_3 H 0.0667 0.8689 0.9962
C42_3 C 0.1333(5) 0.9844(12) 0.9554(4)
H53_3 H 0.1506 0.9482 0.9399
O41_2 O 0.1291(3) 0.7725(10) 0.8814(3)
C11_3 C 0.8634(4) 0.5642(13) 0.0248(4)
H18_3 H 0.8665 0.6517 0.0209
H19_3 H 0.8344 0.5424 0.0100
C17_3 C 0.9339(3) 0.5326(10) 0.1481(3)
N4_3 N 0.8898(3) 0.4960(10) 0.0051(3)
C23_3 C 0.9219(3) 0.5601(10) 0.0986(3)
H33_3 H 0.9269 0.6475 0.0951
C27_3 C 0.9352(4) 0.5169(13) 0.0275(4)
H37_3 H 0.9509 0.4666 0.0135
H38_3 H 0.9417 0.6023 0.0242
C28_3 C 0.9478(4) 0.4854(13) 0.0760(4)
H39_3 H 0.9435 0.3984 0.0793
H40_3 H 0.9772 0.5031 0.0903
C30_3 C 0.8760(3) 0.5340(12) 0.0742(4)
H41_3 H 0.8703 0.4479 0.0777
H42_3 H 0.8592 0.5823 0.0874
C12_3 C 0.8204(4) 0.3115(11) 0.9258(4)
C14_3 C 0.9699(4) 0.2818(11) 0.8800(3)
H21_3 H 0.9630 0.3680 0.8743
H22_5 H 1.0000 0.2745 0.8903
N2_3 N 0.8344(3) 0.3886(10) 0.9602(3)
C15_3 C 0.7194(4) 0.1904(15) 0.8557(4)
H23_3 H 0.7136 0.2679 0.8398
H24_3 H 0.7100 0.1245 0.8342
C16_3 C 0.7119(4) 0.2834(12) 0.9253(4)
H25_3 H 0.6987 0.2733 0.9478
H26_3 H 0.7047 0.3641 0.9121
O2_3 O 0.9398(3) 0.3288(8) 0.7703(3)
C19_3 C 0.8926(4) 0.1448(14) 0.8622(5)
H27_3 H 0.9046 0.0637 0.8700
H28_3 H 0.8625 0.1374 0.8540
O8_2 O 0.6313(3) 0.1453(7) 0.8290(3)
N3_3 N 0.9022(3) 0.3594(9) 0.9554(3)
C20_3 C 0.9657(4) 0.2744(9) 0.8011(3)
C21_3 C 0.7654(4) 0.1783(15) 0.8798(5)
H29_3 H 0.7803 0.1813 0.8587
H30_3 H 0.7713 0.1000 0.8952
C22_3 C 0.9034(4) 0.1938(12) 0.8228(4)
H31_3 H 0.8935 0.1373 0.7979
H32_3 H 0.8899 0.2725 0.8136
N5_3 N 0.9083(3) 0.2266(11) 0.9005(3)
C24_3 C 0.6959(4) 0.1848(12) 0.8893(4)
H34_3 H 0.7004 0.1039 0.9036
N6_3 N 0.8431(3) 0.2601(9) 0.9028(3)
C26_3 C 0.9516(3) 0.2091(10) 0.8360(4)
H36_3 H 0.9641 0.1270 0.8406
O10_2 O 0.6291(3) 0.2725(10) 0.8814(3)
C29_3 C 0.8838(4) 0.2865(11) 0.9203(4)
N7_3 N 0.7791(3) 0.2784(11) 0.9118(3)
C31_3 C 0.6505(4) 0.2024(11) 0.8665(4)
C32_3 C 0.8740(4) 0.4118(11) 0.9713(4)
C33_3 C 0.9535(4) 0.2368(13) 0.9168(4)
H43_3 H 0.9620 0.2938 0.9416
H44_3 H 0.9656 0.1572 0.9274
C34_3 C 0.7581(4) 0.2741(15) 0.9466(4)
H45_3 H 0.7681 0.3414 0.9674
H46_3 H 0.7651 0.1977 0.9631
C43_3 C 0.7188(5) 0.274(2) 0.4276(7)
H55_3 H 0.7242 0.3440 0.4476
H56_3 H 0.7003 0.2187 0.4361
C44_3 C 0.7705(7) 0.384(2) 0.3863(7)
H57_3 H 0.7751 0.4555 0.4053
H58_3 H 0.7867 0.3935 0.3666
C45_3 C 0.7567(6) 0.2128(19) 0.4331(7)
H59_3 H 0.7708 0.2004 0.4648
H60_3 H 0.7502 0.1321 0.4196
C46_3 C 0.9563(4) 0.3064(11) 0.2883(4)
C47_3 C 0.7291(5) 0.3771(18) 0.3612(6)
H61_3 H 0.7272 0.3329 0.3342
H62_3 H 0.7198 0.4603 0.3525
C48_3 C 0.6970(5) 0.3178(15) 0.3804(6)
H63_3 H 0.6776 0.3827 0.3819
C49_3 C 0.9572(4) 0.2638(18) 0.4096(5)
H64_3 H 0.9766 0.3297 0.4230
H65_3 H 0.9634 0.1951 0.4302
C50_3 C 0.9628(4) 0.2240(14) 0.3653(4)
H66_3 H 0.9915 0.2003 0.3706
H67_3 H 0.9451 0.1537 0.3531
N13_3 N 0.7860(4) 0.2703(14) 0.4152(4)
C52_3 C 0.9071(4) 0.3787(13) 0.3272(4)
H70_3 H 0.9007 0.4509 0.3082
H71_3 H 0.8867 0.3158 0.3132
H76_5 H 1.0000 0.2745 0.6097
O16_3 O 0.9036(3) 0.1321(9) 0.6182(3)
O18_3 O 0.9967(3) 0.2709(8) 0.6947(3)
C60_3 C 0.9215(4) 0.0334(11) 0.6160(4)
C67_3 C 0.9509(4) 0.3323(11) 0.3318(4)
H89_3 H 0.9701 0.3994 0.3454
C77_3 C 0.6725(4) 0.2256(13) 0.3466(5)
N20_3 N 0.8487(3) 0.2934(10) 0.4054(3)
N21_3 N 0.8341(4) 0.1245(12) 0.4456(4)
N22_3 N 0.9016(3) 0.1453(11) 0.4409(3)
C78_3 C 0.8861(4) 0.2462(14) 0.4153(4)
C79_3 C 0.8732(5) 0.0860(12) 0.4541(4)
C80_3 C 0.9410(4) 0.0169(12) 0.5479(4)
H101_3 H 0.9387 0.1056 0.5450
C81_3 C 0.9044(5) 0.4115(14) 0.3742(5)
H103_3 H 0.8764 0.4387 0.3711
H104_3 H 0.9236 0.4776 0.3875
C82_3 C 0.8244(5) 0.2238(15) 0.4220(5)
N24_3 N 0.9147(4) 0.3055(12) 0.4019(4)
H108_3 H 0.8603 0.0714 0.5410
O35 O 0.8687(3) 0.6453(7) 0.6710(3)
C51_3 C 0.8559(5) 0.9259(14) 0.4989(4)
H68_3 H 0.8270 0.9413 0.4816
H69_3 H 0.8603 0.8378 0.5016
C55_3 C 0.9120(4) 0.9690(10) 0.5728(4)
H74_3 H 0.9175 0.8812 0.5787
Br2_3 Br 0.88335(6) 0.93681(14) 0.72082(7)
O17_3 O 0.9471(3) 0.9849(8) 0.6510(3)
H102_3 H 0.9698 0.9968 0.5648
N23_3 N 0.8837(4) 0.9819(11) 0.4770(4)
C83_3 C 0.9285(5) 0.9568(13) 0.5010(5)
H105_3 H 0.9333 0.8689 0.5038
H106_3 H 0.9453 0.9906 0.4844
C84_3 C 0.8667(5) 0.9844(12) 0.5446(4)
H107_3 H 0.8494 0.9482 0.5601
O42_2 O 0.8709(3) 0.7725(10) 0.6186(3)
C11_4 C 0.3634(4) 0.0642(13) 0.0248(4)
H18_4 H 0.3665 0.1517 0.0209
H19_4 H 0.3344 0.0424 0.0100
C17_4 C 0.4339(3) 0.0326(10) 0.1481(3)
C23_4 C 0.4219(3) 0.0601(10) 0.0986(3)
H33_4 H 0.4269 0.1475 0.0951
C27_4 C 0.4352(4) 0.0169(13) 0.0275(4)
H38_4 H 0.4417 0.1023 0.0242
H40_4 H 0.4772 0.0031 0.0903
C30_4 C 0.3760(3) 0.0340(12) 0.0742(4)
H42_4 H 0.3592 0.0823 0.0874
C53_4 C 0.6366(4) 0.0642(13) 0.4752(4)
H72_4 H 0.6335 0.1517 0.4791
H73_4 H 0.6656 0.0424 0.4900
C59_4 C 0.5661(3) 0.0326(10) 0.3519(3)
C65_4 C 0.5781(3) 0.0601(10) 0.4014(3)
H87_4 H 0.5731 0.1475 0.4049
C69_4 C 0.5648(4) 0.0169(13) 0.4725(4)
H92_4 H 0.5583 0.1023 0.4758
H94_4 H 0.5228 0.0031 0.4097
C72_4 C 0.6240(3) 0.0340(12) 0.4258(4)
H96_4 H 0.6408 0.0823 0.4126
C1_4 C 0.7812(5) 0.774(2) 0.0724(7)
H1_4 H 0.7758 0.8440 0.0524
H2_4 H 0.7997 0.7187 0.0639
C2_4 C 0.7295(7) 0.884(2) 0.1137(7)
H3_4 H 0.7249 0.9555 0.0947
H4_4 H 0.7133 0.8935 0.1334
C3_4 C 0.7433(6) 0.7128(19) 0.0669(7)
H5_4 H 0.7292 0.7004 0.0352
H6_4 H 0.7498 0.6321 0.0804
C4_4 C 0.5437(4) 0.8064(11) 0.2117(4)
C5_4 C 0.7709(5) 0.8771(18) 0.1388(6)
H7_4 H 0.7728 0.8329 0.1658
H8_4 H 0.7802 0.9603 0.1475
C6_4 C 0.8030(5) 0.8178(15) 0.1196(6)
H9_4 H 0.8224 0.8827 0.1181
C7_4 C 0.5428(4) 0.7638(18) 0.0904(5)
H10_4 H 0.5234 0.8297 0.0770
H11_4 H 0.5366 0.6951 0.0698
C8_4 C 0.5372(4) 0.7240(14) 0.1347(4)
H12_4 H 0.5085 0.7003 0.1294
H13_4 H 0.5549 0.6537 0.1469
N1_4 N 0.7140(4) 0.7703(14) 0.0848(4)
C9_2 C 0.6441(5) 0.4259(14) 0.0011(4)
H14_2 H 0.6730 0.4413 0.0184
C10_4 C 0.5929(4) 0.8787(13) 0.1728(4)
H16_4 H 0.5993 0.9509 0.1918
H17_4 H 0.6133 0.8158 0.1868
N4_4 N 0.3898(3) 0.9960(10) 0.0051(3)
C25_4 C 0.5491(4) 0.8323(11) 0.1682(4)
H35_4 H 0.5299 0.8994 0.1546
H37_4 H 0.4509 0.9666 0.0135
C28_4 C 0.4478(4) 0.9854(13) 0.0760(4)
H39_4 H 0.4435 0.8984 0.0793
H41_4 H 0.3703 0.9479 0.0777
C35_4 C 0.8275(4) 0.7256(13) 0.1534(5)
N8_4 N 0.6513(3) 0.7934(10) 0.0946(3)
N9_4 N 0.6659(4) 0.6245(12) 0.0544(4)
N10_4 N 0.5984(3) 0.6453(11) 0.0591(3)
C36_4 C 0.6139(4) 0.7462(14) 0.0847(4)
C37_4 C 0.6268(5) 0.5860(12) 0.0459(4)
N11_2 N 0.6163(4) 0.4819(11) 0.0230(4)
C39_4 C 0.5956(5) 0.9115(14) 0.1258(5)
H49_4 H 0.6236 0.9387 0.1289
H50_4 H 0.5764 0.9776 0.1125
C40_4 C 0.6756(5) 0.7238(15) 0.0780(5)
N12_4 N 0.5853(4) 0.8055(12) 0.0981(4)
H52_2 H 0.5547 0.4906 0.0156
H15_4 H 0.6397 0.3378 0.9984
C12_4 C 0.3204(4) 0.8115(11) 0.9258(4)
C13_4 C 0.5880(4) 0.4690(10) 0.9272(4)
H20_4 H 0.5825 0.3812 0.9213
C14_4 C 0.4699(4) 0.7818(11) 0.8800(3)
H21_4 H 0.4630 0.8680 0.8743
H22_6 H 0.5000 0.7745 0.8903
N2_4 N 0.3344(3) 0.8886(10) 0.9602(3)
Br1_4 Br 0.61665(6) 0.43681(14) 0.77918(7)
C15_4 C 0.2194(4) 0.6904(15) 0.8557(4)
H23_4 H 0.2136 0.7679 0.8398
H24_4 H 0.2100 0.6245 0.8342
C16_4 C 0.2119(4) 0.7834(12) 0.9253(4)
H25_4 H 0.1987 0.7733 0.9478
H26_4 H 0.2047 0.8641 0.9121
O2_4 O 0.4398(3) 0.8288(8) 0.7703(3)
O4_4 O 0.5964(3) 0.6321(9) 0.8818(3)
O5_4 O 0.5529(3) 0.4849(8) 0.8490(3)
O6_4 O 0.5033(3) 0.7709(8) 0.8053(3)
C18_4 C 0.5785(4) 0.5334(11) 0.8840(4)
C19_4 C 0.3926(4) 0.6448(14) 0.8622(5)
H27_4 H 0.4046 0.5637 0.8700
H28_4 H 0.3625 0.6374 0.8540
N3_4 N 0.4022(3) 0.8594(9) 0.9554(3)
C20_4 C 0.4657(4) 0.7744(9) 0.8011(3)
C21_4 C 0.2654(4) 0.6783(15) 0.8798(5)
H29_4 H 0.2803 0.6813 0.8587
H30_4 H 0.2713 0.6000 0.8952
C22_4 C 0.4034(4) 0.6938(12) 0.8228(4)
H31_4 H 0.3935 0.6373 0.7979
H32_4 H 0.3899 0.7725 0.8136
N5_4 N 0.4083(3) 0.7266(11) 0.9005(3)
C24_4 C 0.1959(4) 0.6848(12) 0.8893(4)
H34_4 H 0.2004 0.6039 0.9036
N6_4 N 0.3431(3) 0.7601(9) 0.9028(3)
C26_4 C 0.4516(3) 0.7091(10) 0.8360(4)
H36_4 H 0.4641 0.6270 0.8406
C29_4 C 0.3838(4) 0.7865(11) 0.9203(4)
N7_4 N 0.2791(3) 0.7784(11) 0.9118(3)
C31_4 C 0.1505(4) 0.7024(11) 0.8665(4)
C32_4 C 0.3740(4) 0.9118(11) 0.9713(4)
C33_4 C 0.4535(4) 0.7368(13) 0.9168(4)
H43_4 H 0.4620 0.7938 0.9416
H44_4 H 0.4656 0.6572 0.9274
C34_4 C 0.2581(4) 0.7741(15) 0.9466(4)
H45_4 H 0.2681 0.8414 0.9674
H46_4 H 0.2651 0.6977 0.9631
C38_4 C 0.5590(4) 0.5169(12) 0.9521(4)
H47_4 H 0.5613 0.6056 0.9550
H48_4 H 0.5302 0.4968 0.9352
C41_4 C 0.5715(5) 0.4568(13) 0.9990(5)
H51_4 H 0.5667 0.3689 0.9962
C42_4 C 0.6333(5) 0.4844(12) 0.9554(4)
H53_4 H 0.6506 0.4482 0.9399
H54_4 H 0.6397 0.5714 0.9590
C43_4 C 0.2188(5) 0.774(2) 0.4276(7)
H55_4 H 0.2242 0.8440 0.4476
H56_4 H 0.2003 0.7187 0.4361
C44_4 C 0.2705(7) 0.884(2) 0.3863(7)
H57_4 H 0.2751 0.9555 0.4053
H58_4 H 0.2867 0.8935 0.3666
C45_4 C 0.2567(6) 0.7128(19) 0.4331(7)
H59_4 H 0.2708 0.7004 0.4648
H60_4 H 0.2502 0.6321 0.4196
C46_4 C 0.4563(4) 0.8064(11) 0.2883(4)
C47_4 C 0.2291(5) 0.8771(18) 0.3612(6)
H61_4 H 0.2272 0.8329 0.3342
H62_4 H 0.2198 0.9603 0.3525
C48_4 C 0.1970(5) 0.8178(15) 0.3804(6)
H63_4 H 0.1776 0.8827 0.3819
C49_4 C 0.4572(4) 0.7638(18) 0.4096(5)
H64_4 H 0.4766 0.8297 0.4230
H65_4 H 0.4634 0.6951 0.4302
C50_4 C 0.4628(4) 0.7240(14) 0.3653(4)
H66_4 H 0.4915 0.7003 0.3706
H67_4 H 0.4451 0.6537 0.3531
N13_4 N 0.2860(4) 0.7703(14) 0.4152(4)
C51_4 C 0.3559(5) 0.4259(14) 0.4989(4)
H68_4 H 0.3270 0.4413 0.4816
H69_4 H 0.3603 0.3378 0.5016
C52_4 C 0.4071(4) 0.8787(13) 0.3272(4)
H70_4 H 0.4007 0.9509 0.3082
H71_4 H 0.3867 0.8158 0.3132
C54_4 C 0.6796(4) 0.8115(11) 0.5742(4)
C55_4 C 0.4120(4) 0.4690(10) 0.5728(4)
H74_4 H 0.4175 0.3812 0.5787
C56_4 C 0.5301(4) 0.7818(11) 0.6200(3)
H75_4 H 0.5370 0.8680 0.6257
H76_6 H 0.5000 0.7745 0.6097
N14_4 N 0.6656(3) 0.8886(10) 0.5398(3)
Br2_4 Br 0.38335(6) 0.43681(14) 0.72082(7)
C57_4 C 0.7806(4) 0.6904(15) 0.6443(4)
H77_4 H 0.7864 0.7679 0.6602
H78_4 H 0.7900 0.6245 0.6658
C58_4 C 0.7881(4) 0.7834(12) 0.5747(4)
H79_4 H 0.8013 0.7733 0.5522
H80_4 H 0.7953 0.8641 0.5879
O14_4 O 0.5602(3) 0.8288(8) 0.7297(3)
O16_4 O 0.4036(3) 0.6321(9) 0.6182(3)
O17_4 O 0.4471(3) 0.4849(8) 0.6510(3)
O18_4 O 0.4967(3) 0.7709(8) 0.6947(3)
C60_4 C 0.4215(4) 0.5334(11) 0.6160(4)
C61_4 C 0.6074(4) 0.6448(14) 0.6378(5)
H81_4 H 0.5954 0.5637 0.6300
H82_4 H 0.6375 0.6374 0.6460
N15_4 N 0.5978(3) 0.8594(9) 0.5446(3)
C62_4 C 0.5343(4) 0.7744(9) 0.6989(3)
C63_4 C 0.7346(4) 0.6783(15) 0.6202(5)
H83_4 H 0.7197 0.6813 0.6413
H84_4 H 0.7287 0.6000 0.6048
N16_4 N 0.6102(3) 0.9960(10) 0.4949(3)
C64_4 C 0.5966(4) 0.6938(12) 0.6772(4)
H85_4 H 0.6065 0.6373 0.7021
H86_4 H 0.6101 0.7725 0.6864
N17_4 N 0.5917(3) 0.7266(11) 0.5995(3)
C66_4 C 0.8041(4) 0.6848(12) 0.6107(4)
H88_4 H 0.7996 0.6039 0.5964
N18_4 N 0.6569(3) 0.7601(9) 0.5972(3)
C67_4 C 0.4509(4) 0.8323(11) 0.3318(4)
H89_4 H 0.4701 0.8994 0.3454
C68_4 C 0.5484(3) 0.7091(10) 0.6640(4)
H90_4 H 0.5359 0.6270 0.6594
H91_4 H 0.5491 0.9666 0.4865
C70_4 C 0.5522(4) 0.9854(13) 0.4240(4)
H93_4 H 0.5565 0.8984 0.4207
C71_4 C 0.6162(4) 0.7865(11) 0.5797(4)
N19_4 N 0.7209(3) 0.7784(11) 0.5882(3)
H95_4 H 0.6297 0.9479 0.4223
C73_4 C 0.8495(4) 0.7024(11) 0.6335(4)
C74_4 C 0.6260(4) 0.9118(11) 0.5287(4)
C75_4 C 0.5465(4) 0.7368(13) 0.5832(4)
H97_4 H 0.5380 0.7938 0.5584
H98_4 H 0.5344 0.6572 0.5726
C76_4 C 0.7419(4) 0.7741(15) 0.5534(4)
H99_4 H 0.7319 0.8414 0.5326
H100_4 H 0.7349 0.6977 0.5369
C77_4 C 0.1725(4) 0.7256(13) 0.3466(5)
N20_4 N 0.3487(3) 0.7934(10) 0.4054(3)
N21_4 N 0.3341(4) 0.6245(12) 0.4456(4)
N22_4 N 0.4016(3) 0.6453(11) 0.4409(3)
C78_4 C 0.3861(4) 0.7462(14) 0.4153(4)
C79_4 C 0.3732(5) 0.5860(12) 0.4541(4)
C80_4 C 0.4410(4) 0.5169(12) 0.5479(4)
H101_4 H 0.4387 0.6056 0.5450
H102_4 H 0.4698 0.4968 0.5648
N23_4 N 0.3837(4) 0.4819(11) 0.4770(4)
C81_4 C 0.4044(5) 0.9115(14) 0.3742(5)
H103_4 H 0.3764 0.9387 0.3711
H104_4 H 0.4236 0.9776 0.3875
C82_4 C 0.3244(5) 0.7238(15) 0.4220(5)
N24_4 N 0.4147(4) 0.8055(12) 0.4019(4)
C83_4 C 0.4285(5) 0.4568(13) 0.5010(5)
H105_4 H 0.4333 0.3689 0.5038
H106_4 H 0.4453 0.4906 0.4844
C84_4 C 0.3667(5) 0.4844(12) 0.5446(4)
H107_4 H 0.3494 0.4482 0.5601
H108_4 H 0.3603 0.5714 0.5410
C9_3 C 0.8559(5) 0.0741(14) 0.9989(4)
H14_3 H 0.8270 0.0587 0.9816
N11_3 N 0.8837(4) 0.0181(11) 0.9770(4)
H52_3 H 0.9453 0.0094 0.9844
C9_4 C 0.1441(5) 0.9259(14) 0.0011(4)
H14_4 H 0.1730 0.9413 0.0184
N11_4 N 0.1163(4) 0.9819(11) 0.0230(4)
H52_4 H 0.0547 0.9906 0.0156
loop_
_geom_bond_atom_site_label_1
_geom_bond_atom_site_label_2
_geom_bond_site_symmetry_1
_geom_bond_site_symmetry_2
C51 H68 1_555 1_555
H69 C51 1_555 1_555
C55 H74 1_555 1_555
Pb6 Br2 1_555 1_555
N23 C51 1_555 1_555
H105 C83 1_555 1_555
H106 C83 1_555 1_555
C84 C51 1_555 1_555
H107 C84 1_555 1_555
O32 Pb6 1_555 1_555
O36 Pb6 1_555 1_555
O38 Pb6 1_555 1_555
O42 Pb6 1_555 1_555
C55 C84 1_555 1_555
Pb6 O17 1_555 1_555
Pb6 O25 1_555 1_555
N23 C83 1_555 1_555
C12 N2 1_555 1_555
C14 H21 1_555 1_555
H22 C14 1_555 1_555
N2 C32 1_555 1_555
Pb1 O2 1_555 1_555
C15 H23 1_555 1_555
H24 C15 1_555 1_555
C16 H25 1_555 1_555
H26 C16 1_555 1_555
O2 C20 1_555 1_555
C19 H27 1_555 1_555
H28 C19 1_555 1_555
O8 C31 1_555 1_555
N3 C29 1_555 1_555
C21 C15 1_555 1_555
H29 C21 1_555 1_555
H30 C21 1_555 1_555
C22 C19 1_555 1_555
H31 C22 1_555 1_555
H32 C22 1_555 1_555
N5 C19 1_555 1_555
C24 C15 1_555 1_555
H34 C24 1_555 1_555
N6 C12 1_555 1_555
C26 C14 1_555 1_555
H36 C26 1_555 1_555
O10 C31 1_555 1_555
C29 N5 1_555 1_555
N7 C12 1_555 1_555
C31 C24 1_555 1_555
C32 N3 1_555 1_555
C33 C14 1_555 1_555
H43 C33 1_555 1_555
H44 C33 1_555 1_555
C34 C16 1_555 1_555
H45 C34 1_555 1_555
H46 C34 1_555 1_555
Pb4 O2 1_555 1_555
C43 H55 1_555 1_555
H56 C43 1_555 1_555
C44 H57 1_555 1_555
H58 C44 1_555 1_555
C45 C43 1_555 1_555
H59 C45 1_555 1_555
H60 C45 1_555 1_555
C46 O13 1_555 1_555
O13 Pb17 1_555 1_555
C47 C44 1_555 1_555
H61 C47 1_555 1_555
H62 C47 1_555 1_555
C48 C43 1_555 1_555
H63 C48 1_555 1_555
C49 H64 1_555 1_555
H65 C49 1_555 1_555
C50 C49 1_555 1_555
H66 C50 1_555 1_555
H67 C50 1_555 1_555
N13 C44 1_555 1_555
C52 H70 1_555 1_555
H71 C52 1_555 1_555
O16 Pb5 1_555 1_555
O18 Pb1 1_555 1_555
O21 C46 1_555 1_555
C67 C46 1_555 1_555
H89 C67 1_555 1_555
O23 C77 1_555 1_555
O24 C77 1_555 1_555
C77 C48 1_555 1_555
N20 C78 1_555 1_555
N21 C79 1_555 1_555
N22 C78 1_555 1_555
C78 N24 1_555 1_555
C79 N22 1_555 1_555
H101 C80 1_555 1_555
C81 C52 1_555 1_555
H103 C81 1_555 1_555
H104 C81 1_555 1_555
C82 N13 1_555 1_555
N24 C49 1_555 1_555
Pb9 O21 1_555 1_555
Pb13 O23 1_555 1_555
Pb14 O8 1_555 1_555
Pb17 O21 1_555 1_555
O28 Pb4 1_555 1_555
O32 Pb1 1_555 1_555
O36 Pb4 1_555 1_555
O38 Pb1 1_555 1_555
O44 Pb4 1_555 1_555
O46 Pb4 1_555 1_555
Pb25 O21 1_555 1_555
Pb26 O23 1_555 1_555
C16 C24 1_555 1_555
C20 C26 1_555 1_555
C21 N7 1_555 1_555
C22 C26 1_555 1_555
N5 C33 1_555 1_555
N6 C29 1_555 1_555
O10 Pb14 1_555 1_555
N7 C34 1_555 1_555
Pb4 O38 1_555 1_555
C45 N13 1_555 1_555
C47 C48 1_555 1_555
C50 C67 1_555 1_555
C52 C67 1_555 1_555
Pb5 O18 1_555 1_555
Pb5 O28 1_555 1_555
Pb5 O44 1_555 1_555
O16 C60 1_555 1_555
O24 Pb26 1_555 1_555
N20 C82 1_555 1_555
N21 C82 1_555 1_555
C81 N24 1_555 1_555
C11 H18 1_555 1_555
H19 C11 1_555 1_555
O3 C17 1_555 1_555
C17 O7 1_555 1_555
O7 Pb9 1_555 1_555
N4 C11 1_555 1_555
C23 C17 1_555 1_555
H33 C23 1_555 1_555
C27 N4 1_555 1_555
H37 C27 1_555 1_555
H38 C27 1_555 1_555
C28 C23 1_555 1_555
H39 C28 1_555 1_555
H40 C28 1_555 1_555
C30 C11 1_555 1_555
H41 C30 1_555 1_555
H42 C30 1_555 1_555
Pb10 O3 1_555 1_555
Pb17 O7 1_555 1_555
Pb25 O3 1_555 1_555
C23 C30 1_555 1_555
C27 C28 1_555 1_555
C13 H20 1_555 1_555
Pb3 Br1 1_555 1_555
H51 C41 1_555 1_555
H53 C42 1_555 1_555
O26 Pb3 1_555 1_555
O30 Pb3 1_555 1_555
O34 Pb3 1_555 1_555
O40 Pb3 1_555 1_555
O41 Pb3 1_555 1_555
C13 C42 1_555 1_555
Pb3 O5 1_555 1_555
O4 Pb2 1_555 1_555
O6 Pb1_2 1_555 1_555
H47 C38 1_555 1_555
C53 H72 1_555 1_555
H73 C53 1_555 1_555
C54 N14 1_555 1_555
C56 H75 1_555 1_555
H76_2 C56 1_555 1_555
N14 C74 1_555 1_555
C57 H77 1_555 1_555
H78 C57 1_555 1_555
C58 H79 1_555 1_555
H80 C58 1_555 1_555
O14 Pb1_2 1_555 1_555
O15 C59 1_555 1_555
C59 O19 1_555 1_555
O19 Pb9_2 1_555 1_555
C61 H81 1_555 1_555
H82 C61 1_555 1_555
O20 C73 1_555 1_555
N15 C71 1_555 1_555
C62 O14 1_555 1_555
C63 C57 1_555 1_555
H83 C63 1_555 1_555
H84 C63 1_555 1_555
N16 C53 1_555 1_555
C64 C61 1_555 1_555
H85 C64 1_555 1_555
H86 C64 1_555 1_555
C65 C59 1_555 1_555
H87 C65 1_555 1_555
N17 C61 1_555 1_555
C66 C57 1_555 1_555
H88 C66 1_555 1_555
N18 C54 1_555 1_555
C68 C56 1_555 1_555
H90 C68 1_555 1_555
O22 C73 1_555 1_555
C69 N16 1_555 1_555
H91 C69 1_555 1_555
H92 C69 1_555 1_555
C70 C65 1_555 1_555
H93 C70 1_555 1_555
H94 C70 1_555 1_555
C71 N17 1_555 1_555
N19 C54 1_555 1_555
C72 C53 1_555 1_555
H95 C72 1_555 1_555
H96 C72 1_555 1_555
C73 C66 1_555 1_555
C74 N15 1_555 1_555
C75 C56 1_555 1_555
H97 C75 1_555 1_555
H98 C75 1_555 1_555
C76 C58 1_555 1_555
H99 C76 1_555 1_555
H100 C76 1_555 1_555
Pb7 O14 1_555 1_555
Pb11 O15 1_555 1_555
Pb15 O20 1_555 1_555
O27 Pb2 1_555 1_555
O30 Pb1_2 1_555 1_555
O34 Pb7 1_555 1_555
O40 Pb1_2 1_555 1_555
O43 Pb2 1_555 1_555
O45 Pb7 1_555 1_555
Pb23 O15 1_555 1_555
Pb2 O6 1_555 1_555
O4 C18 1_555 1_555
C58 C66 1_555 1_555
O19 Pb19 1_555 1_555
C62 C68 1_555 1_555
C63 N19 1_555 1_555
N16 C74 1_555 1_555
C64 C68 1_555 1_555
C65 C72 1_555 1_555
N17 C75 1_555 1_555
N18 C71 1_555 1_555
O22 Pb15 1_555 1_555
C69 C70 1_555 1_555
N19 C76 1_555 1_555
Pb7 O27 1_555 1_555
Pb7 O40 1_555 1_555
Pb7 O43 1_555 1_555
C1 H1 1_555 1_555
H2 C1 1_555 1_555
C2 H3 1_555 1_555
H4 C2 1_555 1_555
C3 C1 1_555 1_555
H5 C3 1_555 1_555
H6 C3 1_555 1_555
C4 O1 1_555 1_555
C5 C2 1_555 1_555
H7 C5 1_555 1_555
H8 C5 1_555 1_555
C6 C1 1_555 1_555
H9 C6 1_555 1_555
C7 H10 1_555 1_555
H11 C7 1_555 1_555
C8 C7 1_555 1_555
H12 C8 1_555 1_555
H13 C8 1_555 1_555
N1 C2 1_555 1_555
C10 H16 1_555 1_555
H17 C10 1_555 1_555
O9 C4 1_555 1_555
C25 C4 1_555 1_555
H35 C25 1_555 1_555
O11 C35 1_555 1_555
O12 C35 1_555 1_555
C35 C6 1_555 1_555
N8 C36 1_555 1_555
N9 C37 1_555 1_555
N10 C36 1_555 1_555
C36 N12 1_555 1_555
C37 N10 1_555 1_555
C39 C10 1_555 1_555
H49 C39 1_555 1_555
H50 C39 1_555 1_555
C40 N1 1_555 1_555
N12 C7 1_555 1_555
Pb9_2 O9 1_555 1_555
Pb12 O11 1_555 1_555
Pb19 O1 1_555 1_555
Pb23 O9 1_555 1_555
Pb27 O11 1_555 1_555
C3 N1 1_555 1_555
C5 C6 1_555 1_555
C8 C25 1_555 1_555
C10 C25 1_555 1_555
O9 Pb19 1_555 1_555
O12 Pb27 1_555 1_555
N8 C40 1_555 1_555
N9 C40 1_555 1_555
C39 N12 1_555 1_555
C12_2 N2_2 1_555 1_555
C13_2 H20_2 1_555 1_555
C14_2 H21_2 1_555 1_555
H22_3 C14_2 1_555 1_555
N2_2 C32_2 1_555 1_555
Pb1_3 O2_2 1_555 1_555
Pb2_2 Br1_2 1_555 1_555
Pb14 Br1_2 1_555 1_555
C15_2 H23_2 1_555 1_555
H24_2 C15_2 1_555 1_555
C16_2 H25_2 1_555 1_555
H26_2 C16_2 1_555 1_555
O2_2 C20_2 1_555 1_555
O4_2 Pb2_2 1_555 1_555
O5_2 Pb2_2 1_555 1_555
O6_2 Pb1_3 1_555 1_555
C18_2 C13_2 1_555 1_555
C19_2 H27_2 1_555 1_555
H28_2 C19_2 1_555 1_555
O34 C31_2 1_555 1_555
N3_2 C29_2 1_555 1_555
C20_2 O6_2 1_555 1_555
C21_2 C15_2 1_555 1_555
H29_2 C21_2 1_555 1_555
H30_2 C21_2 1_555 1_555
C22_2 C19_2 1_555 1_555
H31_2 C22_2 1_555 1_555
H32_2 C22_2 1_555 1_555
N5_2 C19_2 1_555 1_555
C24_2 C15_2 1_555 1_555
H34_2 C24_2 1_555 1_555
N6_2 C12_2 1_555 1_555
C26_2 C14_2 1_555 1_555
H36_2 C26_2 1_555 1_555
O41 C31_2 1_555 1_555
C29_2 N5_2 1_555 1_555
N7_2 C12_2 1_555 1_555
C31_2 C24_2 1_555 1_555
C32_2 N3_2 1_555 1_555
C33_2 C14_2 1_555 1_555
H43_2 C33_2 1_555 1_555
H44_2 C33_2 1_555 1_555
C34_2 C16_2 1_555 1_555
H45_2 C34_2 1_555 1_555
H46_2 C34_2 1_555 1_555
C38_2 C13_2 1_555 1_555
H47_2 C38_2 1_555 1_555
H48_2 C38_2 1_555 1_555
C41_2 C38_2 1_555 1_555
H51_2 C41_2 1_555 1_555
H53_2 C42_2 1_555 1_555
H54_2 C42_2 1_555 1_555
Pb20 O2_2 1_555 1_555
C43_2 H55_2 1_555 1_555
H56_2 C43_2 1_555 1_555
C44_2 H57_2 1_555 1_555
H58_2 C44_2 1_555 1_555
C45_2 C43_2 1_555 1_555
H59_2 C45_2 1_555 1_555
H60_2 C45_2 1_555 1_555
C46_2 O13_2 1_555 1_555
O13_2 Pb17_2 1_555 1_555
C47_2 C44_2 1_555 1_555
H61_2 C47_2 1_555 1_555
H62_2 C47_2 1_555 1_555
C48_2 C43_2 1_555 1_555
H63_2 C48_2 1_555 1_555
C49_2 H64_2 1_555 1_555
H65_2 C49_2 1_555 1_555
C50_2 C49_2 1_555 1_555
H66_2 C50_2 1_555 1_555
H67_2 C50_2 1_555 1_555
N13_2 C44_2 1_555 1_555
C51_2 H68_2 1_555 1_555
H69_2 C51_2 1_555 1_555
C52_2 H70_2 1_555 1_555
H71_2 C52_2 1_555 1_555
C54_2 N14_2 1_555 1_555
C55_2 H74_2 1_555 1_555
C56_2 H75_2 1_555 1_555
H76_3 C56_2 1_555 1_555
N14_2 C74_2 1_555 1_555
Pb5_2 Br2_2 1_555 1_555
Pb15 Br2_2 1_555 1_555
C57_2 H77_2 1_555 1_555
H78_2 C57_2 1_555 1_555
C58_2 H79_2 1_555 1_555
H80_2 C58_2 1_555 1_555
O14_2 Pb1_3 1_555 1_555
O16_2 Pb5_2 1_555 1_555
O17_2 Pb5_2 1_555 1_555
O18_2 Pb1_3 1_555 1_555
C60_2 C55_2 1_555 1_555
C61_2 H81_2 1_555 1_555
H82_2 C61_2 1_555 1_555
O36 C73_2 1_555 1_555
N15_2 C71_2 1_555 1_555
O21_2 C46_2 1_555 1_555
C62_2 O14_2 1_555 1_555
C63_2 C57_2 1_555 1_555
H83_2 C63_2 1_555 1_555
H84_2 C63_2 1_555 1_555
C64_2 C61_2 1_555 1_555
H85_2 C64_2 1_555 1_555
H86_2 C64_2 1_555 1_555
N17_2 C61_2 1_555 1_555
C66_2 C57_2 1_555 1_555
H88_2 C66_2 1_555 1_555
N18_2 C54_2 1_555 1_555
C67_2 C46_2 1_555 1_555
H89_2 C67_2 1_555 1_555
C68_2 C56_2 1_555 1_555
H90_2 C68_2 1_555 1_555
O42 C73_2 1_555 1_555
H93_2 C70_2 1_555 1_555
C71_2 N17_2 1_555 1_555
N19_2 C54_2 1_555 1_555
O23_2 C77_2 1_555 1_555
C73_2 C66_2 1_555 1_555
C74_2 N15_2 1_555 1_555
C75_2 C56_2 1_555 1_555
H97_2 C75_2 1_555 1_555
H98_2 C75_2 1_555 1_555
O24_2 C77_2 1_555 1_555
C76_2 C58_2 1_555 1_555
H99_2 C76_2 1_555 1_555
H100_2 C76_2 1_555 1_555
C77_2 C48_2 1_555 1_555
N20_2 C78_2 1_555 1_555
N21_2 C79_2 1_555 1_555
N22_2 C78_2 1_555 1_555
C78_2 N24_2 1_555 1_555
C79_2 N22_2 1_555 1_555
C80_2 C55_2 1_555 1_555
H101_2 C80_2 1_555 1_555
H102_2 C80_2 1_555 1_555
N23_2 C51_2 1_555 1_555
C81_2 C52_2 1_555 1_555
H103_2 C81_2 1_555 1_555
H104_2 C81_2 1_555 1_555
C82_2 N13_2 1_555 1_555
N24_2 C49_2 1_555 1_555
C83_2 C80_2 1_555 1_555
H105_2 C83_2 1_555 1_555
H106_2 C83_2 1_555 1_555
C84_2 C51_2 1_555 1_555
H107_2 C84_2 1_555 1_555
H108_2 C84_2 1_555 1_555
Pb21 O14_2 1_555 1_555
O25_2 Pb14 1_555 1_555
O26_2 Pb14 1_555 1_555
Pb11 O23_2 1_555 1_555
Pb17_2 O21_2 1_555 1_555
Pb19_2 O13_2 1_555 1_555
O27_2 Pb2_2 1_555 1_555
O28_2 Pb20 1_555 1_555
O30_2 Pb14 1_555 1_555
O32_2 Pb15 1_555 1_555
O38_2 Pb15 1_555 1_555
O40_2 Pb14 1_555 1_555
O43_2 Pb2_2 1_555 1_555
O44_2 Pb20 1_555 1_555
O45_2 Pb21 1_555 1_555
O46_2 Pb20 1_555 1_555
Pb23 O23_2 1_555 1_555
C13_2 C42_2 1_555 1_555
Pb2_2 O6_2 1_555 1_555
Pb14 O5_2 1_555 1_555
C16_2 C24_2 1_555 1_555
O4_2 C18_2 1_555 1_555
O5_2 C18_2 1_555 1_555
C20_2 C26_2 1_555 1_555
C21_2 N7_2 1_555 1_555
C22_2 C26_2 1_555 1_555
N5_2 C33_2 1_555 1_555
N6_2 C29_2 1_555 1_555
N7_2 C34_2 1_555 1_555
C45_2 N13_2 1_555 1_555
C47_2 C48_2 1_555 1_555
C50_2 C67_2 1_555 1_555
C52_2 C67_2 1_555 1_555
C55_2 C84_2 1_555 1_555
Pb5_2 O18_2 1_555 1_555
Pb5_2 O28_2 1_555 1_555
Pb5_2 O44_2 1_555 1_555
Pb15 O17_2 1_555 1_555
Pb15 O25_2 1_555 1_555
Pb15 O26_2 1_555 1_555
C58_2 C66_2 1_555 1_555
O16_2 C60_2 1_555 1_555
O17_2 C60_2 1_555 1_555
O18_2 C62_2 1_555 1_555
O19_2 Pb19_2 1_555 1_555
C62_2 C68_2 1_555 1_555
C63_2 N19_2 1_555 1_555
N16_2 C74_2 1_555 1_555
C64_2 C68_2 1_555 1_555
N17_2 C75_2 1_555 1_555
N18_2 C71_2 1_555 1_555
N19_2 C76_2 1_555 1_555
O24_2 Pb23 1_555 1_555
N20_2 C82_2 1_555 1_555
N21_2 C82_2 1_555 1_555
C79_2 N23_2 1_555 1_555
N23_2 C83_2 1_555 1_555
C81_2 N24_2 1_555 1_555
Pb21 O27_2 1_555 1_555
Pb21 O43_2 1_555 1_555
C1_2 H1_2 1_555 1_555
H2_2 C1_2 1_555 1_555
C2_2 H3_2 1_555 1_555
H4_2 C2_2 1_555 1_555
C3_2 C1_2 1_555 1_555
H5_2 C3_2 1_555 1_555
H6_2 C3_2 1_555 1_555
C4_2 O1_2 1_555 1_555
O1_2 Pb17_2 1_555 1_555
C5_2 C2_2 1_555 1_555
H7_2 C5_2 1_555 1_555
H8_2 C5_2 1_555 1_555
C6_2 C1_2 1_555 1_555
H9_2 C6_2 1_555 1_555
C7_2 H10_2 1_555 1_555
H11_2 C7_2 1_555 1_555
C8_2 C7_2 1_555 1_555
H12_2 C8_2 1_555 1_555
H13_2 C8_2 1_555 1_555
N1_2 C2_2 1_555 1_555
C9 H14 1_555 1_555
C10_2 H16_2 1_555 1_555
H17_2 C10_2 1_555 1_555
O9_2 C4_2 1_555 1_555
C25_2 C4_2 1_555 1_555
H35_2 C25_2 1_555 1_555
H39_2 C28_2 1_555 1_555
O11_2 C35_2 1_555 1_555
O12_2 C35_2 1_555 1_555
C35_2 C6_2 1_555 1_555
N8_2 C36_2 1_555 1_555
N9_2 C37_2 1_555 1_555
N10_2 C36_2 1_555 1_555
C36_2 N12_2 1_555 1_555
C37_2 N10_2 1_555 1_555
N11 C9 1_555 1_555
C39_2 C10_2 1_555 1_555
H49_2 C39_2 1_555 1_555
H50_2 C39_2 1_555 1_555
C40_2 N1_2 1_555 1_555
N12_2 C7_2 1_555 1_555
Pb10 O11_2 1_555 1_555
Pb17_2 O7_2 1_555 1_555
Pb19_2 O1_2 1_555 1_555
Pb25 O11_2 1_555 1_555
C3_2 N1_2 1_555 1_555
C5_2 C6_2 1_555 1_555
C8_2 C25_2 1_555 1_555
C10_2 C25_2 1_555 1_555
O9_2 Pb19_2 1_555 1_555
O12_2 Pb25 1_555 1_555
N8_2 C40_2 1_555 1_555
N9_2 C40_2 1_555 1_555
C37_2 N11 1_555 1_555
C39_2 N12_2 1_555 1_555
C53_2 H72_2 1_555 1_555
H73_2 C53_2 1_555 1_555
O15_2 C59_2 1_555 1_555
C65_2 C59_2 1_555 1_555
H87_2 C65_2 1_555 1_555
H92_2 C69_2 1_555 1_555
C72_2 C53_2 1_555 1_555
H96_2 C72_2 1_555 1_555
Pb13 O15_2 1_555 1_555
Pb26 O15_2 1_555 1_555
C65_2 C72_2 1_555 1_555
C11_2 H18_2 1_555 1_555
H19_2 C11_2 1_555 1_555
O3_2 C17_2 1_555 1_555
C23_2 C17_2 1_555 1_555
H33_2 C23_2 1_555 1_555
H38_2 C27_2 1_555 1_555
C30_2 C11_2 1_555 1_555
H42_2 C30_2 1_555 1_555
Pb12 O3_2 1_555 1_555
Pb27 O3_2 1_555 1_555
C23_2 C30_2 1_555 1_555
C1_3 H1_3 1_555 1_555
H2_3 C1_3 1_555 1_555
C2_3 H3_3 1_555 1_555
H4_3 C2_3 1_555 1_555
C3_3 C1_3 1_555 1_555
H5_3 C3_3 1_555 1_555
H6_3 C3_3 1_555 1_555
C4_3 O25 1_555 1_555
C5_3 C2_3 1_555 1_555
H7_3 C5_3 1_555 1_555
H8_3 C5_3 1_555 1_555
C6_3 C1_3 1_555 1_555
H9_3 C6_3 1_555 1_555
C7_3 H10_3 1_555 1_555
H11_3 C7_3 1_555 1_555
C8_3 C7_3 1_555 1_555
H12_3 C8_3 1_555 1_555
H13_3 C8_3 1_555 1_555
N1_3 C2_3 1_555 1_555
C10_3 H16_3 1_555 1_555
H17_3 C10_3 1_555 1_555
O38 C4_3 1_555 1_555
C25_3 C4_3 1_555 1_555
H35_3 C25_3 1_555 1_555
O43_2 C35_3 1_555 1_555
O45_2 C35_3 1_555 1_555
C35_3 C6_3 1_555 1_555
N8_3 C36_3 1_555 1_555
N9_3 C37_3 1_555 1_555
N10_3 C36_3 1_555 1_555
C36_3 N12_3 1_555 1_555
C37_3 N10_3 1_555 1_555
C39_3 C10_3 1_555 1_555
H49_3 C39_3 1_555 1_555
H50_3 C39_3 1_555 1_555
C40_3 N1_3 1_555 1_555
N12_3 C7_3 1_555 1_555
C3_3 N1_3 1_555 1_555
C5_3 C6_3 1_555 1_555
C8_3 C25_3 1_555 1_555
C10_3 C25_3 1_555 1_555
N8_3 C40_3 1_555 1_555
N9_3 C40_3 1_555 1_555
C39_3 N12_3 1_555 1_555
O4_3 Pb10 1_555 1_555
O6_3 Pb9 1_555 1_555
H47_3 C38_3 1_555 1_555
C53_3 H72_3 1_555 1_555
H73_3 C53_3 1_555 1_555
C54_3 N14_3 1_555 1_555
C56_3 H75_3 1_555 1_555
H76_4 C56_3 1_555 1_555
N14_3 C74_3 1_555 1_555
C57_3 H77_3 1_555 1_555
H78_3 C57_3 1_555 1_555
C58_3 H79_3 1_555 1_555
H80_3 C58_3 1_555 1_555
O14_3 Pb9 1_555 1_555
O28 C59_3 1_555 1_555
C59_3 O32 1_555 1_555
C61_3 H81_3 1_555 1_555
H82_3 C61_3 1_555 1_555
O20_2 C73_3 1_555 1_555
N15_3 C71_3 1_555 1_555
C62_3 O14_3 1_555 1_555
C63_3 C57_3 1_555 1_555
H83_3 C63_3 1_555 1_555
H84_3 C63_3 1_555 1_555
N16_3 C53_3 1_555 1_555
C64_3 C61_3 1_555 1_555
H85_3 C64_3 1_555 1_555
H86_3 C64_3 1_555 1_555
C65_3 C59_3 1_555 1_555
H87_3 C65_3 1_555 1_555
N17_3 C61_3 1_555 1_555
C66_3 C57_3 1_555 1_555
H88_3 C66_3 1_555 1_555
N18_3 C54_3 1_555 1_555
C68_3 C56_3 1_555 1_555
H90_3 C68_3 1_555 1_555
O22_2 C73_3 1_555 1_555
C69_3 N16_3 1_555 1_555
H91_3 C69_3 1_555 1_555
H92_3 C69_3 1_555 1_555
C70_3 C65_3 1_555 1_555
H93_3 C70_3 1_555 1_555
H94_3 C70_3 1_555 1_555
C71_3 N17_3 1_555 1_555
N19_3 C54_3 1_555 1_555
C72_3 C53_3 1_555 1_555
H95_3 C72_3 1_555 1_555
H96_3 C72_3 1_555 1_555
C73_3 C66_3 1_555 1_555
C74_3 N15_3 1_555 1_555
C75_3 C56_3 1_555 1_555
H97_3 C75_3 1_555 1_555
H98_3 C75_3 1_555 1_555
C76_3 C58_3 1_555 1_555
H99_3 C76_3 1_555 1_555
H100_3 C76_3 1_555 1_555
Pb25 O14_3 1_555 1_555
Pb19_2 O20_2 1_555 1_555
O33 Pb25 1_555 1_555
Pb10 O6_3 1_555 1_555
O4_3 C18_3 1_555 1_555
C58_3 C66_3 1_555 1_555
C62_3 C68_3 1_555 1_555
C63_3 N19_3 1_555 1_555
N16_3 C74_3 1_555 1_555
C64_3 C68_3 1_555 1_555
C65_3 C72_3 1_555 1_555
N17_3 C75_3 1_555 1_555
N18_3 C71_3 1_555 1_555
O22_2 Pb19_2 1_555 1_555
C69_3 C70_3 1_555 1_555
N19_3 C76_3 1_555 1_555
C13_3 H20_3 1_555 1_555
Pb17 Br1_3 1_555 1_555
H51_3 C41_3 1_555 1_555
H53_3 C42_3 1_555 1_555
O33 Pb17 1_555 1_555
O41_2 Pb17 1_555 1_555
C13_3 C42_3 1_555 1_555
Pb17 O5_3 1_555 1_555
C11_3 H18_3 1_555 1_555
H19_3 C11_3 1_555 1_555
O27 C17_3 1_555 1_555
C17_3 O30 1_555 1_555
N4_3 C11_3 1_555 1_555
C23_3 C17_3 1_555 1_555
H33_3 C23_3 1_555 1_555
C27_3 N4_3 1_555 1_555
H37_3 C27_3 1_555 1_555
H38_3 C27_3 1_555 1_555
C28_3 C23_3 1_555 1_555
H39_3 C28_3 1_555 1_555
H40_3 C28_3 1_555 1_555
C30_3 C11_3 1_555 1_555
H41_3 C30_3 1_555 1_555
H42_3 C30_3 1_555 1_555
C23_3 C30_3 1_555 1_555
C27_3 C28_3 1_555 1_555
C12_3 N2_3 1_555 1_555
C14_3 H21_3 1_555 1_555
H22_5 C14_3 1_555 1_555
N2_3 C32_3 1_555 1_555
Pb9_2 O2_3 1_555 1_555
C15_3 H23_3 1_555 1_555
H24_3 C15_3 1_555 1_555
C16_3 H25_3 1_555 1_555
H26_3 C16_3 1_555 1_555
O2_3 C20_3 1_555 1_555
C19_3 H27_3 1_555 1_555
H28_3 C19_3 1_555 1_555
O8_2 C31_3 1_555 1_555
N3_3 C29_3 1_555 1_555
C21_3 C15_3 1_555 1_555
H29_3 C21_3 1_555 1_555
H30_3 C21_3 1_555 1_555
C22_3 C19_3 1_555 1_555
H31_3 C22_3 1_555 1_555
H32_3 C22_3 1_555 1_555
N5_3 C19_3 1_555 1_555
C24_3 C15_3 1_555 1_555
H34_3 C24_3 1_555 1_555
N6_3 C12_3 1_555 1_555
C26_3 C14_3 1_555 1_555
H36_3 C26_3 1_555 1_555
O10_2 C31_3 1_555 1_555
C29_3 N5_3 1_555 1_555
N7_3 C12_3 1_555 1_555
C31_3 C24_3 1_555 1_555
C32_3 N3_3 1_555 1_555
C33_3 C14_3 1_555 1_555
H43_3 C33_3 1_555 1_555
H44_3 C33_3 1_555 1_555
C34_3 C16_3 1_555 1_555
H45_3 C34_3 1_555 1_555
H46_3 C34_3 1_555 1_555
Pb23 O2_3 1_555 1_555
C43_3 H55_3 1_555 1_555
H56_3 C43_3 1_555 1_555
C44_3 H57_3 1_555 1_555
H58_3 C44_3 1_555 1_555
C45_3 C43_3 1_555 1_555
H59_3 C45_3 1_555 1_555
H60_3 C45_3 1_555 1_555
C46_3 O26 1_555 1_555
C47_3 C44_3 1_555 1_555
H61_3 C47_3 1_555 1_555
H62_3 C47_3 1_555 1_555
C48_3 C43_3 1_555 1_555
H63_3 C48_3 1_555 1_555
C49_3 H64_3 1_555 1_555
H65_3 C49_3 1_555 1_555
C50_3 C49_3 1_555 1_555
H66_3 C50_3 1_555 1_555
H67_3 C50_3 1_555 1_555
N13_3 C44_3 1_555 1_555
C52_3 H70_3 1_555 1_555
H71_3 C52_3 1_555 1_555
O16_3 Pb11 1_555 1_555
O18_3 Pb9_2 1_555 1_555
O40 C46_3 1_555 1_555
C67_3 C46_3 1_555 1_555
H89_3 C67_3 1_555 1_555
O44_2 C77_3 1_555 1_555
O46_2 C77_3 1_555 1_555
C77_3 C48_3 1_555 1_555
N20_3 C78_3 1_555 1_555
N21_3 C79_3 1_555 1_555
N22_3 C78_3 1_555 1_555
C78_3 N24_3 1_555 1_555
C79_3 N22_3 1_555 1_555
H101_3 C80_3 1_555 1_555
C81_3 C52_3 1_555 1_555
H103_3 C81_3 1_555 1_555
H104_3 C81_3 1_555 1_555
C82_3 N13_3 1_555 1_555
N24_3 C49_3 1_555 1_555
Pb17_2 O8_2 1_555 1_555
O35 Pb23 1_555 1_555
C16_3 C24_3 1_555 1_555
C20_3 C26_3 1_555 1_555
C21_3 N7_3 1_555 1_555
C22_3 C26_3 1_555 1_555
N5_3 C33_3 1_555 1_555
N6_3 C29_3 1_555 1_555
O10_2 Pb17_2 1_555 1_555
N7_3 C34_3 1_555 1_555
C45_3 N13_3 1_555 1_555
C47_3 C48_3 1_555 1_555
C50_3 C67_3 1_555 1_555
C52_3 C67_3 1_555 1_555
Pb11 O18_3 1_555 1_555
O16_3 C60_3 1_555 1_555
N20_3 C82_3 1_555 1_555
N21_3 C82_3 1_555 1_555
C81_3 N24_3 1_555 1_555
C51_3 H68_3 1_555 1_555
H69_3 C51_3 1_555 1_555
C55_3 H74_3 1_555 1_555
Pb19 Br2_3 1_555 1_555
N23_3 C51_3 1_555 1_555
H105_3 C83_3 1_555 1_555
H106_3 C83_3 1_555 1_555
C84_3 C51_3 1_555 1_555
H107_3 C84_3 1_555 1_555
O35 Pb19 1_555 1_555
O42_2 Pb19 1_555 1_555
C55_3 C84_3 1_555 1_555
Pb19 O17_3 1_555 1_555
N23_3 C83_3 1_555 1_555
C11_4 H18_4 1_555 1_555
H19_4 C11_4 1_555 1_555
O27_2 C17_4 1_555 1_555
C23_4 C17_4 1_555 1_555
H33_4 C23_4 1_555 1_555
H38_4 C27_4 1_555 1_555
C30_4 C11_4 1_555 1_555
H42_4 C30_4 1_555 1_555
C23_4 C30_4 1_555 1_555
C53_4 H72_4 1_555 1_555
H73_4 C53_4 1_555 1_555
O28_2 C59_4 1_555 1_555
C65_4 C59_4 1_555 1_555
H87_4 C65_4 1_555 1_555
H92_4 C69_4 1_555 1_555
C72_4 C53_4 1_555 1_555
H96_4 C72_4 1_555 1_555
C65_4 C72_4 1_555 1_555
C1_4 H1_4 1_555 1_555
H2_4 C1_4 1_555 1_555
C2_4 H3_4 1_555 1_555
H4_4 C2_4 1_555 1_555
C3_4 C1_4 1_555 1_555
H5_4 C3_4 1_555 1_555
H6_4 C3_4 1_555 1_555
C4_4 O25_2 1_555 1_555
C5_4 C2_4 1_555 1_555
H7_4 C5_4 1_555 1_555
H8_4 C5_4 1_555 1_555
C6_4 C1_4 1_555 1_555
H9_4 C6_4 1_555 1_555
C7_4 H10_4 1_555 1_555
H11_4 C7_4 1_555 1_555
C8_4 C7_4 1_555 1_555
H12_4 C8_4 1_555 1_555
H13_4 C8_4 1_555 1_555
N1_4 C2_4 1_555 1_555
C9_2 H14_2 1_555 1_555
C10_4 H16_4 1_555 1_555
H17_4 C10_4 1_555 1_555
O38_2 C4_4 1_555 1_555
C25_4 C4_4 1_555 1_555
H35_4 C25_4 1_555 1_555
H39_4 C28_4 1_555 1_555
O43 C35_4 1_555 1_555
O45 C35_4 1_555 1_555
C35_4 C6_4 1_555 1_555
N8_4 C36_4 1_555 1_555
N9_4 C37_4 1_555 1_555
N10_4 C36_4 1_555 1_555
C36_4 N12_4 1_555 1_555
C37_4 N10_4 1_555 1_555
N11_2 C9_2 1_555 1_555
C39_4 C10_4 1_555 1_555
H49_4 C39_4 1_555 1_555
H50_4 C39_4 1_555 1_555
C40_4 N1_4 1_555 1_555
N12_4 C7_4 1_555 1_555
C3_4 N1_4 1_555 1_555
C5_4 C6_4 1_555 1_555
C8_4 C25_4 1_555 1_555
C10_4 C25_4 1_555 1_555
N8_4 C40_4 1_555 1_555
N9_4 C40_4 1_555 1_555
C37_4 N11_2 1_555 1_555
C39_4 N12_4 1_555 1_555
C12_4 N2_4 1_555 1_555
C13_4 H20_4 1_555 1_555
C14_4 H21_4 1_555 1_555
H22_6 C14_4 1_555 1_555
N2_4 C32_4 1_555 1_555
Pb9_3 O2_4 1_555 1_555
Pb12 Br1_4 1_555 1_555
Pb17_2 Br1_4 1_555 1_555
C15_4 H23_4 1_555 1_555
H24_4 C15_4 1_555 1_555
C16_4 H25_4 1_555 1_555
H26_4 C16_4 1_555 1_555
O2_4 C20_4 1_555 1_555
O4_4 Pb12 1_555 1_555
O5_4 Pb12 1_555 1_555
O6_4 Pb9_3 1_555 1_555
C18_4 C13_4 1_555 1_555
C19_4 H27_4 1_555 1_555
H28_4 C19_4 1_555 1_555
O33 C31_4 1_555 1_555
N3_4 C29_4 1_555 1_555
C20_4 O6_4 1_555 1_555
C21_4 C15_4 1_555 1_555
H29_4 C21_4 1_555 1_555
H30_4 C21_4 1_555 1_555
C22_4 C19_4 1_555 1_555
H31_4 C22_4 1_555 1_555
H32_4 C22_4 1_555 1_555
N5_4 C19_4 1_555 1_555
C24_4 C15_4 1_555 1_555
H34_4 C24_4 1_555 1_555
N6_4 C12_4 1_555 1_555
C26_4 C14_4 1_555 1_555
H36_4 C26_4 1_555 1_555
O41_2 C31_4 1_555 1_555
C29_4 N5_4 1_555 1_555
N7_4 C12_4 1_555 1_555
C31_4 C24_4 1_555 1_555
C32_4 N3_4 1_555 1_555
C33_4 C14_4 1_555 1_555
H43_4 C33_4 1_555 1_555
H44_4 C33_4 1_555 1_555
C34_4 C16_4 1_555 1_555
H45_4 C34_4 1_555 1_555
H46_4 C34_4 1_555 1_555
C38_4 C13_4 1_555 1_555
H47_4 C38_4 1_555 1_555
H48_4 C38_4 1_555 1_555
C41_4 C38_4 1_555 1_555
H51_4 C41_4 1_555 1_555
H53_4 C42_4 1_555 1_555
H54_4 C42_4 1_555 1_555
Pb26 O2_4 1_555 1_555
C43_4 H55_4 1_555 1_555
H56_4 C43_4 1_555 1_555
C44_4 H57_4 1_555 1_555
H58_4 C44_4 1_555 1_555
C45_4 C43_4 1_555 1_555
H59_4 C45_4 1_555 1_555
H60_4 C45_4 1_555 1_555
C46_4 O26_2 1_555 1_555
C47_4 C44_4 1_555 1_555
H61_4 C47_4 1_555 1_555
H62_4 C47_4 1_555 1_555
C48_4 C43_4 1_555 1_555
H63_4 C48_4 1_555 1_555
C49_4 H64_4 1_555 1_555
H65_4 C49_4 1_555 1_555
C50_4 C49_4 1_555 1_555
H66_4 C50_4 1_555 1_555
H67_4 C50_4 1_555 1_555
N13_4 C44_4 1_555 1_555
C51_4 H68_4 1_555 1_555
H69_4 C51_4 1_555 1_555
C52_4 H70_4 1_555 1_555
H71_4 C52_4 1_555 1_555
C54_4 N14_4 1_555 1_555
C55_4 H74_4 1_555 1_555
C56_4 H75_4 1_555 1_555
H76_6 C56_4 1_555 1_555
N14_4 C74_4 1_555 1_555
Pb13 Br2_4 1_555 1_555
Pb19_2 Br2_4 1_555 1_555
C57_4 H77_4 1_555 1_555
H78_4 C57_4 1_555 1_555
C58_4 H79_4 1_555 1_555
H80_4 C58_4 1_555 1_555
O14_4 Pb9_3 1_555 1_555
O16_4 Pb13 1_555 1_555
O17_4 Pb13 1_555 1_555
O18_4 Pb9_3 1_555 1_555
C60_4 C55_4 1_555 1_555
C61_4 H81_4 1_555 1_555
H82_4 C61_4 1_555 1_555
O35 C73_4 1_555 1_555
N15_4 C71_4 1_555 1_555
O40_2 C46_4 1_555 1_555
C62_4 O14_4 1_555 1_555
C63_4 C57_4 1_555 1_555
H83_4 C63_4 1_555 1_555
H84_4 C63_4 1_555 1_555
C64_4 C61_4 1_555 1_555
H85_4 C64_4 1_555 1_555
H86_4 C64_4 1_555 1_555
N17_4 C61_4 1_555 1_555
C66_4 C57_4 1_555 1_555
H88_4 C66_4 1_555 1_555
N18_4 C54_4 1_555 1_555
C67_4 C46_4 1_555 1_555
H89_4 C67_4 1_555 1_555
C68_4 C56_4 1_555 1_555
H90_4 C68_4 1_555 1_555
O42_2 C73_4 1_555 1_555
H93_4 C70_4 1_555 1_555
C71_4 N17_4 1_555 1_555
N19_4 C54_4 1_555 1_555
O44 C77_4 1_555 1_555
C73_4 C66_4 1_555 1_555
C74_4 N15_4 1_555 1_555
C75_4 C56_4 1_555 1_555
H97_4 C75_4 1_555 1_555
H98_4 C75_4 1_555 1_555
O46 C77_4 1_555 1_555
C76_4 C58_4 1_555 1_555
H99_4 C76_4 1_555 1_555
H100_4 C76_4 1_555 1_555
C77_4 C48_4 1_555 1_555
N20_4 C78_4 1_555 1_555
N21_4 C79_4 1_555 1_555
N22_4 C78_4 1_555 1_555
C78_4 N24_4 1_555 1_555
C79_4 N22_4 1_555 1_555
C80_4 C55_4 1_555 1_555
H101_4 C80_4 1_555 1_555
H102_4 C80_4 1_555 1_555
N23_4 C51_4 1_555 1_555
C81_4 C52_4 1_555 1_555
H103_4 C81_4 1_555 1_555
H104_4 C81_4 1_555 1_555
C82_4 N13_4 1_555 1_555
N24_4 C49_4 1_555 1_555
C83_4 C80_4 1_555 1_555
H105_4 C83_4 1_555 1_555
H106_4 C83_4 1_555 1_555
C84_4 C51_4 1_555 1_555
H107_4 C84_4 1_555 1_555
H108_4 C84_4 1_555 1_555
Pb27 O14_4 1_555 1_555
C13_4 C42_4 1_555 1_555
Pb12 O6_4 1_555 1_555
Pb17_2 O5_4 1_555 1_555
C16_4 C24_4 1_555 1_555
O4_4 C18_4 1_555 1_555
O5_4 C18_4 1_555 1_555
C20_4 C26_4 1_555 1_555
C21_4 N7_4 1_555 1_555
C22_4 C26_4 1_555 1_555
N5_4 C33_4 1_555 1_555
N6_4 C29_4 1_555 1_555
N7_4 C34_4 1_555 1_555
C45_4 N13_4 1_555 1_555
C47_4 C48_4 1_555 1_555
C50_4 C67_4 1_555 1_555
C52_4 C67_4 1_555 1_555
C55_4 C84_4 1_555 1_555
Pb13 O18_4 1_555 1_555
Pb19_2 O17_4 1_555 1_555
C58_4 C66_4 1_555 1_555
O16_4 C60_4 1_555 1_555
O17_4 C60_4 1_555 1_555
O18_4 C62_4 1_555 1_555
C62_4 C68_4 1_555 1_555
C63_4 N19_4 1_555 1_555
N16_4 C74_4 1_555 1_555
C64_4 C68_4 1_555 1_555
N17_4 C75_4 1_555 1_555
N18_4 C71_4 1_555 1_555
N19_4 C76_4 1_555 1_555
N20_4 C82_4 1_555 1_555
N21_4 C82_4 1_555 1_555
C79_4 N23_4 1_555 1_555
N23_4 C83_4 1_555 1_555
C81_4 N24_4 1_555 1_555
C9_3 H14_3 1_555 1_555
N11_3 C9_3 1_555 1_555
C9_4 H14_4 1_555 1_555
N11_4 C9_4 1_555 1_555

#END
