
###############################################################################
#
# This file contains modified crystal structure data generated from the
# MOF subset of the Cambridge Structural Database (CSD) v543 
# hosted by the Cambridge Crystallographic Data Centre (CCDC).
#
# This work is licensed under the Creative Commons
# Attribution-NonCommercial-ShareAlike 4.0 International License.
# To view a copy of this license, visit
# http://creativecommons.org/licenses/by-nc-sa/4.0/
# or send a letter to
# Creative Commons, PO Box 1866, Mountain View, CA 94042, USA.
#
# CIF created using the CSD Python API on 29 September 2022
# The structure has been converted into the P1 space group
# The structure has a 3D framework
# The original CSD entry MOYYIJ is in the rhombohedral crystal system
# The framework has been calculated to contain at least 10.0% void space
# The void calculation uses a probe of radius 1.32A, grid spacing 0.4
#
###############################################################################

data_MOYYIJ
_chemical_formula_moiety         '(C252 H180 Cu18 O86)n'
_symmetry_cell_setting           triclinic
_symmetry_space_group_name_H-M   'P 1'
_symmetry_Int_Tables_number      1
_space_group_name_Hall           'P 1'
loop_
_symmetry_equiv_pos_site_id
_symmetry_equiv_pos_as_xyz
1 x,y,z
_cell_length_a                   31.681(15)
_cell_length_b                   31.681(15)
_cell_length_c                   14.297(10)
_cell_angle_alpha                90
_cell_angle_beta                 90
_cell_angle_gamma                120
_cell_volume                     12427.2
loop_
_atom_site_label
_atom_site_type_symbol
_atom_site_fract_x
_atom_site_fract_y
_atom_site_fract_z
Cu4 Cu 0.534987(14) 0.490003(10) 0.016923(17)
Cu4_2 Cu 0.509997(10) 0.044983(17) 0.016923(17)
Cu4_3 Cu 0.955017(17) 0.465013(14) 0.016923(17)
Cu1 Cu 0.823337(10) 0.621683(10) 0.649743(17)
O1 O 0.80088(8) 0.54717(8) 0.61574(19)
O4 O 0.90021(6) 0.71548(6) 0.74709(11)
O5 O 0.88290(6) 0.63922(6) 0.71897(11)
C10 C 0.98372(9) 0.73612(9) 0.84522(17)
H6 H 0.9771 0.7613 0.8357
C11 C 0.95284(9) 0.69037(9) 0.80762(14)
C12 C 0.96372(9) 0.65405(9) 0.82262(17)
H7 H 0.9434 0.6232 0.7980
C14 C 0.90842(10) 0.68088(9) 0.75271(15)
H9 H 0.792(3) 0.530(2) 0.567(3)
H10 H 0.799(3) 0.529(2) 0.660(3)
Cu2 Cu 0.843330(10) 0.711650(10) 0.683590(17)
O6 O 0.86220(6) 0.64968(8) 0.53643(10)
O7 O 0.78822(6) 0.60742(8) 0.76932(10)
O8 O 0.76646(6) 0.61785(6) 0.58624(11)
Cu1_2 Cu 0.378317(10) 0.201653(14) 0.649743(17)
O1_2 O 0.45283(8) 0.25370(11) 0.61574(19)
O4_2 O 0.28452(6) 0.18472(8) 0.74709(11)
O5_2 O 0.36078(6) 0.24367(8) 0.71897(11)
C4 C 0.28283(9) 0.36183(13) 0.96487(15)
C5 C 0.30573(10) 0.41014(15) 0.94281(19)
H2 H 0.3268 0.4215 0.8919
C6 C 0.29796(10) 0.44238(16) 0.9956(2)
H3 H 0.3132 0.4750 0.9787
C8 C 0.29188(9) 0.32724(13) 0.91084(15)
C9 C 0.25568(10) 0.27927(14) 0.89604(18)
H5 H 0.2249 0.2683 0.9215
C10_2 C 0.26388(9) 0.24759(13) 0.84522(17)
H6_2 H 0.2387 0.2157 0.8357
C11_2 C 0.30963(9) 0.26246(13) 0.80762(14)
C12_2 C 0.34595(9) 0.30966(13) 0.82262(17)
H7_2 H 0.3768 0.3201 0.7980
C13 C 0.33765(9) 0.34184(13) 0.87341(17)
H8 H 0.3629 0.3735 0.8827
C14_2 C 0.31912(9) 0.22753(13) 0.75271(15)
H9_2 H 0.470(2) 0.261(4) 0.567(3)
H10_2 H 0.471(2) 0.269(4) 0.660(3)
Cu2_2 Cu 0.288350(10) 0.131680(14) 0.683590(17)
O6_2 O 0.35032(8) 0.21253(10) 0.53643(10)
O7_2 O 0.39258(8) 0.18081(10) 0.76932(10)
O8_2 O 0.38215(6) 0.14861(8) 0.58624(11)
Cu1_3 Cu 0.798347(14) 0.176663(10) 0.649743(17)
O1_3 O 0.74630(11) 0.19912(8) 0.61574(19)
O4_3 O 0.81528(8) 0.09979(6) 0.74709(11)
O5_3 O 0.75633(8) 0.11710(6) 0.71897(11)
C10_3 C 0.75241(13) 0.01628(9) 0.84522(17)
H6_3 H 0.7843 0.0229 0.8357
C11_3 C 0.73754(13) 0.04716(9) 0.80762(14)
C12_3 C 0.69034(13) 0.03628(9) 0.82262(17)
H7_3 H 0.6799 0.0566 0.7980
C14_3 C 0.77247(13) 0.09158(10) 0.75271(15)
H9_3 H 0.739(4) 0.208(3) 0.567(3)
H10_3 H 0.731(4) 0.201(3) 0.660(3)
Cu2_3 Cu 0.868320(14) 0.156670(10) 0.683590(17)
O6_3 O 0.78747(10) 0.13780(6) 0.53643(10)
O7_3 O 0.81919(10) 0.21178(6) 0.76932(10)
O8_3 O 0.85139(8) 0.23354(6) 0.58624(11)
O3 O 0.84747(6) 0.12156(6) 0.56402(10)
O4_4 O 0.56687(6) 0.04882(6) 0.08043(11)
C1 C 0.81243(9) 0.11877(10) 0.51679(15)
C2 C 0.79955(8) 0.08826(9) 0.42923(15)
C3 C 0.76059(8) 0.08173(8) 0.37570(14)
H1 H 0.7440 0.0982 0.3912
C4_2 C 0.74567(9) 0.05051(9) 0.29821(15)
C5_2 C 0.77108(11) 0.02761(10) 0.27615(19)
H2_2 H 0.7614 0.0066 0.2253
C6_2 C 0.81109(12) 0.03538(10) 0.3290(2)
H3_2 H 0.8285 0.0202 0.3121
C7 C 0.82499(10) 0.06506(10) 0.40505(19)
H4 H 0.8515 0.0698 0.4407
C8_2 C 0.70203(9) 0.04146(9) 0.24418(15)
C9_2 C 0.69026(10) 0.07766(10) 0.22938(18)
H5_2 H 0.7101 0.1085 0.2549
C10_4 C 0.65038(9) 0.06946(9) 0.17856(17)
H6_4 H 0.6437 0.0947 0.1691
C11_4 C 0.61950(9) 0.02371(9) 0.14096(14)
C14_4 C 0.57508(10) 0.01422(9) 0.08605(15)
O3_2 O 0.87844(6) 0.72592(8) 0.56402(10)
O4_5 O 0.95118(6) 0.51806(8) 0.08043(11)
C1_2 C 0.88123(10) 0.69367(13) 0.51679(15)
C2_2 C 0.91174(9) 0.71130(12) 0.42923(15)
C3_2 C 0.91827(8) 0.67887(11) 0.37570(14)
H1_2 H 0.9018 0.6459 0.3912
C4_3 C 0.94949(9) 0.69517(13) 0.29821(15)
C5_3 C 0.97239(10) 0.74348(15) 0.27615(19)
H2_3 H 0.9934 0.7549 0.2253
C6_3 C 0.96462(10) 0.77572(16) 0.3290(2)
H3_3 H 0.9798 0.8084 0.3121
C7_2 C 0.93494(10) 0.75994(14) 0.40505(19)
H4_2 H 0.9302 0.7818 0.4407
C8_3 C 0.95854(9) 0.66058(13) 0.24418(15)
C9_3 C 0.92234(10) 0.61261(14) 0.22938(18)
H5_3 H 0.8915 0.6017 0.2549
C10_5 C 0.93054(9) 0.58093(13) 0.17856(17)
H6_5 H 0.9053 0.5491 0.1691
C11_5 C 0.97629(9) 0.59580(13) 0.14096(14)
C14_5 C 0.98578(9) 0.56087(13) 0.08605(15)
O3_3 O 0.27408(8) 0.15253(6) 0.56402(10)
O4_6 O 0.48194(8) 0.43313(6) 0.08043(11)
O5_4 O 0.42299(8) 0.45044(6) 0.05231(11)
C1_3 C 0.30633(13) 0.18757(9) 0.51679(15)
C2_3 C 0.28870(12) 0.20045(8) 0.42923(15)
C3_3 C 0.32113(11) 0.23941(8) 0.37570(14)
H1_3 H 0.3541 0.2560 0.3912
C4_4 C 0.30483(13) 0.25433(9) 0.29821(15)
C5_4 C 0.25652(15) 0.22892(11) 0.27615(19)
H2_4 H 0.2451 0.2386 0.2253
C6_4 C 0.22428(16) 0.18891(12) 0.3290(2)
H3_4 H 0.1916 0.1715 0.3121
C7_3 C 0.24006(14) 0.17501(10) 0.40505(19)
H4_3 H 0.2182 0.1485 0.4407
C8_4 C 0.33942(13) 0.29797(9) 0.24418(15)
C9_4 C 0.38739(14) 0.30974(10) 0.22938(18)
H5_4 H 0.3983 0.2899 0.2549
C10_6 C 0.41907(13) 0.34962(9) 0.17856(17)
H6_6 H 0.4509 0.3563 0.1691
C11_6 C 0.40420(13) 0.38050(9) 0.14096(14)
C12_4 C 0.35700(13) 0.36962(9) 0.15596(17)
H7_4 H 0.3465 0.3900 0.1314
C13_2 C 0.32482(13) 0.32914(10) 0.20675(17)
H8_2 H 0.2931 0.3227 0.2161
C14_6 C 0.43913(13) 0.42492(10) 0.08605(15)
O7_4 O 0.48586(10) 0.54511(6) 0.10265(10)
O1_4 O 0.86579(8) 0.78616(8) 0.71759(19)
O2 O 0.54586(6) 0.52887(6) 0.13024(10)
O5_5 O 0.78377(6) 0.69411(6) 0.61436(11)
C1_4 C 0.52090(9) 0.54790(10) 0.14988(15)
C2_4 C 0.53378(8) 0.57841(9) 0.23744(15)
C3_4 C 0.57274(8) 0.58494(8) 0.29097(14)
H1_4 H 0.5893 0.5685 0.2755
C4_5 C 0.58766(9) 0.61616(9) 0.36846(15)
C5_5 C 0.56225(11) 0.63906(10) 0.39052(19)
H2_5 H 0.5719 0.6601 0.4414
C6_5 C 0.52224(12) 0.63129(10) 0.3377(2)
H3_5 H 0.5048 0.6465 0.3546
C7_4 C 0.50834(10) 0.60161(10) 0.26162(19)
H4_4 H 0.4818 0.5969 0.2260
C8_5 C 0.63130(9) 0.62521(9) 0.42249(15)
C9_5 C 0.64307(10) 0.58901(10) 0.43729(18)
H5_5 H 0.6232 0.5582 0.4118
C10_7 C 0.68295(9) 0.59721(9) 0.48811(17)
H6_7 H 0.6896 0.5720 0.4976
C11_7 C 0.71383(9) 0.64296(9) 0.52571(14)
C12_5 C 0.70295(9) 0.67928(9) 0.51071(17)
H7_5 H 0.7233 0.7101 0.5353
C13_3 C 0.66247(10) 0.67098(9) 0.45992(17)
H8_3 H 0.6560 0.6962 0.4506
C14_7 C 0.75825(10) 0.65245(9) 0.58062(15)
H9_4 H 0.875(3) 0.803(2) 0.766(3)
H10_4 H 0.868(3) 0.804(2) 0.673(3)
O6_4 O 0.80446(6) 0.68366(8) 0.79691(10)
O1_5 O 0.21384(8) 0.07963(11) 0.71759(19)
O2_2 O 0.47113(6) 0.01699(8) 0.13024(10)
O5_6 O 0.30589(6) 0.08966(8) 0.61436(11)
H1_5 H 0.4315 0.0208 0.2755
C8_6 C 0.37479(9) 0.00609(13) 0.42249(15)
C9_6 C 0.41099(10) 0.05406(14) 0.43729(18)
H5_6 H 0.4418 0.0650 0.4118
C10_8 C 0.40279(9) 0.08574(13) 0.48811(17)
H6_8 H 0.4280 0.1176 0.4976
C11_8 C 0.35704(9) 0.07087(13) 0.52571(14)
C12_6 C 0.32072(9) 0.02367(13) 0.51071(17)
H7_6 H 0.2899 0.0132 0.5353
C14_8 C 0.34755(9) 0.10580(13) 0.58062(15)
H9_5 H 0.197(2) 0.072(4) 0.766(3)
H10_5 H 0.196(2) 0.064(4) 0.673(3)
O6_5 O 0.31634(8) 0.12081(10) 0.79691(10)
O1_6 O 0.92037(11) 0.13421(8) 0.71759(19)
O2_3 O 0.98301(8) 0.45414(6) 0.13024(10)
O5_7 O 0.91034(8) 0.21623(6) 0.61436(11)
H1_6 H 0.9792 0.4107 0.2755
C8_7 C 0.99391(13) 0.36870(9) 0.42249(15)
C9_7 C 0.94594(14) 0.35693(10) 0.43729(18)
H5_7 H 0.9350 0.3768 0.4118
C10_9 C 0.91426(13) 0.31705(9) 0.48811(17)
H6_9 H 0.8824 0.3104 0.4976
C11_9 C 0.92913(13) 0.28617(9) 0.52571(14)
C12_7 C 0.97633(13) 0.29705(9) 0.51071(17)
H7_7 H 0.9868 0.2767 0.5353
C14_9 C 0.89420(13) 0.24175(10) 0.58062(15)
H9_6 H 0.928(4) 0.125(3) 0.766(3)
H10_6 H 0.936(4) 0.132(3) 0.673(3)
O6_6 O 0.87919(10) 0.19554(6) 0.79691(10)
C1_5 C 0.85423(9) 0.21457(10) 0.81655(15)
C2_5 C 0.86711(8) 0.24508(9) 0.90411(15)
C3_5 C 0.90607(8) 0.25161(8) 0.95764(14)
H1_7 H 0.9226 0.2352 0.9422
C7_5 C 0.84167(10) 0.26828(10) 0.92829(19)
H4_5 H 0.8151 0.2636 0.8927
C1_6 C 0.78543(10) 0.63967(13) 0.81655(15)
C2_6 C 0.75492(9) 0.62204(12) 0.90411(15)
C3_6 C 0.74839(8) 0.65447(11) 0.95764(14)
H1_8 H 0.7648 0.6875 0.9422
C7_6 C 0.73172(10) 0.57340(14) 0.92829(19)
H4_6 H 0.7364 0.5516 0.8927
C1_7 C 0.36033(13) 0.14577(9) 0.81655(15)
C2_7 C 0.37796(12) 0.13289(8) 0.90411(15)
C3_7 C 0.34553(11) 0.09393(8) 0.95764(14)
H1_9 H 0.3125 0.0774 0.9422
C7_7 C 0.42660(14) 0.15833(10) 0.92829(19)
H4_7 H 0.4484 0.1849 0.8927
O1_7 O 0.53246(8) 0.11949(8) 0.05092(19)
H9_7 H 0.542(3) 0.136(2) 0.099(3)
H10_7 H 0.535(3) 0.137(2) 0.006(3)
O1_8 O 0.88051(8) 0.41296(11) 0.05092(19)
H9_8 H 0.864(2) 0.405(4) 0.099(3)
H10_8 H 0.863(2) 0.397(4) 0.006(3)
O1_9 O 0.58704(11) 0.46754(8) 0.05092(19)
H9_9 H 0.595(4) 0.458(3) 0.099(3)
H10_9 H 0.603(4) 0.465(3) 0.006(3)
Cu1_4 Cu 0.156670(10) 0.288350(10) 0.316410(17)
O1_10 O 0.13421(8) 0.21384(8) 0.28241(19)
O2_4 O 0.45414(6) 0.47113(6) 0.86976(10)
O3_4 O 0.51414(6) 0.45489(6) 0.89735(10)
O4_7 O 0.23354(6) 0.38215(6) 0.41376(11)
O5_8 O 0.21623(6) 0.30589(6) 0.38564(11)
C1_8 C 0.47910(9) 0.45210(10) 0.85012(15)
C2_8 C 0.46622(8) 0.42159(9) 0.76256(15)
C3_8 C 0.42726(8) 0.41506(8) 0.70903(14)
H1_10 H 0.4107 0.4315 0.7245
C4_6 C 0.41234(9) 0.38384(9) 0.63154(15)
C5_6 C 0.43775(11) 0.36094(10) 0.60948(19)
H2_6 H 0.4281 0.3399 0.5586
C6_6 C 0.47776(12) 0.36871(10) 0.6623(2)
H3_6 H 0.4952 0.3535 0.6454
C7_8 C 0.49166(10) 0.39839(10) 0.73838(19)
H4_8 H 0.5182 0.4031 0.7740
C8_8 C 0.36870(9) 0.37479(9) 0.57751(15)
C9_8 C 0.35693(10) 0.41099(10) 0.56271(18)
H5_8 H 0.3768 0.4418 0.5882
C10_10 C 0.31705(9) 0.40279(9) 0.51189(17)
H6_10 H 0.3104 0.4280 0.5024
C11_10 C 0.28617(9) 0.35704(9) 0.47429(14)
C12_8 C 0.29705(9) 0.32072(9) 0.48929(17)
H7_8 H 0.2767 0.2899 0.4647
C13_4 C 0.33753(10) 0.32902(9) 0.54008(17)
H8_4 H 0.3440 0.3038 0.5494
C14_10 C 0.24175(10) 0.34755(9) 0.41938(15)
H9_10 H 0.125(3) 0.197(2) 0.234(3)
H10_10 H 0.132(3) 0.196(2) 0.327(3)
Cu2_4 Cu 0.176663(10) 0.378317(10) 0.350257(17)
Cu3 Cu 0.465013(14) 0.509997(10) 0.983077(17)
O6_7 O 0.19554(6) 0.31634(8) 0.20309(10)
O7_5 O 0.12156(6) 0.27408(8) 0.43598(10)
O8_4 O 0.09979(6) 0.28452(6) 0.25291(11)
Cu1_5 Cu 0.711650(10) 0.868320(14) 0.316410(17)
O1_11 O 0.78616(8) 0.92037(11) 0.28241(19)
O2_5 O 0.52887(6) 0.98301(8) 0.86976(10)
O4_8 O 0.61785(6) 0.85139(8) 0.41376(11)
O5_9 O 0.69411(6) 0.91034(8) 0.38564(11)
H1_11 H 0.5685 0.9792 0.7245
C8_9 C 0.62521(9) 0.99391(13) 0.57751(15)
C9_9 C 0.58901(10) 0.94594(14) 0.56271(18)
H5_9 H 0.5582 0.9350 0.5882
C10_11 C 0.59721(9) 0.91426(13) 0.51189(17)
H6_11 H 0.5720 0.8824 0.5024
C11_11 C 0.64296(9) 0.92913(13) 0.47429(14)
C12_9 C 0.67928(9) 0.97633(13) 0.48929(17)
H7_9 H 0.7101 0.9868 0.4647
C14_11 C 0.65245(9) 0.89420(13) 0.41938(15)
H9_11 H 0.803(2) 0.928(4) 0.234(3)
H10_11 H 0.804(2) 0.936(4) 0.327(3)
Cu2_5 Cu 0.621683(10) 0.798347(14) 0.350257(17)
Cu3_2 Cu 0.490003(10) 0.955017(17) 0.983077(17)
O6_8 O 0.68366(8) 0.87919(10) 0.20309(10)
O7_6 O 0.72592(8) 0.84747(10) 0.43598(10)
O8_5 O 0.71548(6) 0.81528(8) 0.25291(11)
Cu1_6 Cu 0.131680(14) 0.843330(10) 0.316410(17)
O1_12 O 0.07963(11) 0.86579(8) 0.28241(19)
O2_6 O 0.01699(8) 0.54586(6) 0.86976(10)
O4_9 O 0.14861(8) 0.76646(6) 0.41376(11)
O5_10 O 0.08966(8) 0.78377(6) 0.38564(11)
H1_12 H 0.0208 0.5893 0.7245
C8_10 C 0.00609(13) 0.63130(9) 0.57751(15)
C9_10 C 0.05406(14) 0.64307(10) 0.56271(18)
H5_10 H 0.0650 0.6232 0.5882
C10_12 C 0.08574(13) 0.68295(9) 0.51189(17)
H6_12 H 0.1176 0.6896 0.5024
C11_12 C 0.07087(13) 0.71383(9) 0.47429(14)
C12_10 C 0.02367(13) 0.70295(9) 0.48929(17)
H7_10 H 0.0132 0.7233 0.4647
C14_12 C 0.10580(13) 0.75825(10) 0.41938(15)
H9_12 H 0.072(4) 0.875(3) 0.234(3)
H10_12 H 0.064(4) 0.868(3) 0.327(3)
Cu2_6 Cu 0.201653(14) 0.823337(10) 0.350257(17)
Cu3_3 Cu 0.044983(17) 0.534987(14) 0.983077(17)
O6_9 O 0.12081(10) 0.80446(6) 0.20309(10)
O7_7 O 0.15253(10) 0.87844(6) 0.43598(10)
O8_6 O 0.18472(8) 0.90021(6) 0.25291(11)
O3_5 O 0.18081(6) 0.78822(6) 0.23068(10)
C1_9 C 0.14577(9) 0.78543(10) 0.18345(15)
C2_9 C 0.13289(8) 0.75492(9) 0.09589(15)
C3_9 C 0.09393(8) 0.74839(8) 0.04236(14)
H1_13 H 0.0774 0.7648 0.0578
C7_9 C 0.15833(10) 0.73172(10) 0.07171(19)
H4_9 H 0.1849 0.7364 0.1073
O3_6 O 0.21178(6) 0.39258(8) 0.23068(10)
C1_10 C 0.21457(10) 0.36033(13) 0.18345(15)
C2_10 C 0.24508(9) 0.37796(12) 0.09589(15)
C3_10 C 0.25161(8) 0.34553(11) 0.04236(14)
H1_14 H 0.2352 0.3125 0.0578
C7_10 C 0.26828(10) 0.42660(14) 0.07171(19)
H4_10 H 0.2636 0.4484 0.1073
O3_7 O 0.60742(8) 0.81919(6) 0.23068(10)
C1_11 C 0.63967(13) 0.85423(9) 0.18345(15)
C2_11 C 0.62204(12) 0.86711(8) 0.09589(15)
C3_11 C 0.65447(11) 0.90607(8) 0.04236(14)
H1_15 H 0.6875 0.9226 0.0578
C7_11 C 0.57340(14) 0.84167(10) 0.07171(19)
H4_11 H 0.5516 0.8151 0.1073
O1_13 O 0.46754(8) 0.88051(8) 0.94908(19)
H9_13 H 0.458(3) 0.864(2) 0.901(3)
H10_13 H 0.465(3) 0.863(2) 0.994(3)
O8_7 O 0.43313(6) 0.95118(6) 0.91957(11)
O1_14 O 0.11949(8) 0.58704(11) 0.94908(19)
H9_14 H 0.136(2) 0.595(4) 0.901(3)
H10_14 H 0.137(2) 0.603(4) 0.994(3)
O8_8 O 0.04882(6) 0.48194(8) 0.91957(11)
O1_15 O 0.41296(11) 0.53246(8) 0.94908(19)
H9_15 H 0.405(4) 0.542(3) 0.901(3)
H10_15 H 0.397(4) 0.535(3) 0.994(3)
O8_9 O 0.51806(8) 0.56687(6) 0.91957(11)
O1_16 O 0.19912(8) 0.45283(8) 0.38426(19)
O5_11 O 0.11710(6) 0.36078(6) 0.28103(11)
C10_13 C 0.01628(9) 0.26388(9) 0.15478(17)
H6_13 H 0.0229 0.2387 0.1643
C11_13 C 0.04716(9) 0.30963(9) 0.19238(14)
C12_11 C 0.03628(9) 0.34595(9) 0.17738(17)
H7_11 H 0.0566 0.3768 0.2020
C14_13 C 0.09158(10) 0.31912(9) 0.24729(15)
H9_16 H 0.208(3) 0.470(2) 0.433(3)
H10_16 H 0.201(3) 0.471(2) 0.340(3)
O6_10 O 0.13780(6) 0.35032(8) 0.46357(10)
O1_17 O 0.54717(8) 0.74630(11) 0.38426(19)
O5_12 O 0.63922(6) 0.75633(8) 0.28103(11)
C4_7 C 0.71717(9) 0.63817(13) 0.03513(15)
C5_7 C 0.69427(10) 0.58986(15) 0.05719(19)
H2_7 H 0.6732 0.5785 0.1081
C6_7 C 0.70204(10) 0.55762(16) 0.0044(2)
H3_7 H 0.6868 0.5250 0.0213
C8_11 C 0.70812(9) 0.67276(13) 0.08916(15)
C9_11 C 0.74432(10) 0.72073(14) 0.10396(18)
H5_11 H 0.7751 0.7317 0.0785
C10_14 C 0.73612(9) 0.75241(13) 0.15478(17)
H6_14 H 0.7613 0.7843 0.1643
C11_14 C 0.69037(9) 0.73754(13) 0.19238(14)
C12_12 C 0.65405(9) 0.69034(13) 0.17738(17)
H7_12 H 0.6232 0.6799 0.2020
C13_5 C 0.66235(9) 0.65816(13) 0.12659(17)
H8_5 H 0.6371 0.6265 0.1173
C14_14 C 0.68088(9) 0.77247(13) 0.24729(15)
H9_17 H 0.530(2) 0.739(4) 0.433(3)
H10_17 H 0.529(2) 0.731(4) 0.340(3)
O6_11 O 0.64968(8) 0.78747(10) 0.46357(10)
O1_18 O 0.25370(11) 0.80088(8) 0.38426(19)
O5_13 O 0.24367(8) 0.88290(6) 0.28103(11)
C10_15 C 0.24759(13) 0.98372(9) 0.15478(17)
H6_15 H 0.2157 0.9771 0.1643
C11_15 C 0.26246(13) 0.95284(9) 0.19238(14)
C12_13 C 0.30966(13) 0.96372(9) 0.17738(17)
H7_13 H 0.3201 0.9434 0.2020
C14_15 C 0.22753(13) 0.90842(10) 0.24729(15)
H9_18 H 0.261(4) 0.792(3) 0.433(3)
H10_18 H 0.269(4) 0.799(3) 0.340(3)
O6_12 O 0.21253(10) 0.86220(6) 0.46357(10)
C1_12 C 0.18757(9) 0.88123(10) 0.48321(15)
C2_12 C 0.20045(8) 0.91174(9) 0.57077(15)
C3_12 C 0.23941(8) 0.91827(8) 0.62430(14)
H1_16 H 0.2560 0.9018 0.6088
C4_8 C 0.25433(9) 0.94949(9) 0.70179(15)
C5_8 C 0.22892(11) 0.97239(10) 0.72385(19)
H2_8 H 0.2386 0.9934 0.7747
C6_8 C 0.18891(12) 0.96462(10) 0.6710(2)
H3_8 H 0.1715 0.9798 0.6879
C7_12 C 0.17501(10) 0.93494(10) 0.59495(19)
H4_12 H 0.1485 0.9302 0.5593
C8_12 C 0.29797(9) 0.95854(9) 0.75582(15)
C9_12 C 0.30974(10) 0.92234(10) 0.77062(18)
H5_12 H 0.2899 0.8915 0.7451
C10_16 C 0.34962(9) 0.93054(9) 0.82144(17)
H6_16 H 0.3563 0.9053 0.8309
C11_16 C 0.38050(9) 0.97629(9) 0.85904(14)
C14_16 C 0.42492(10) 0.98578(9) 0.91395(15)
C1_13 C 0.11877(10) 0.30633(13) 0.48321(15)
C2_13 C 0.08826(9) 0.28870(12) 0.57077(15)
C3_13 C 0.08173(8) 0.32113(11) 0.62430(14)
H1_17 H 0.0982 0.3541 0.6088
C4_9 C 0.05051(9) 0.30483(13) 0.70179(15)
C5_9 C 0.02761(10) 0.25652(15) 0.72385(19)
H2_9 H 0.0066 0.2451 0.7747
C6_9 C 0.03538(10) 0.22428(16) 0.6710(2)
H3_9 H 0.0202 0.1916 0.6879
C7_13 C 0.06506(10) 0.24006(14) 0.59495(19)
H4_13 H 0.0698 0.2182 0.5593
C8_13 C 0.04146(9) 0.33942(13) 0.75582(15)
C9_13 C 0.07766(10) 0.38739(14) 0.77062(18)
H5_13 H 0.1085 0.3983 0.7451
C10_17 C 0.06946(9) 0.41907(13) 0.82144(17)
H6_17 H 0.0947 0.4509 0.8309
C11_17 C 0.02371(9) 0.40420(13) 0.85904(14)
C14_17 C 0.01422(9) 0.43913(13) 0.91395(15)
O5_14 O 0.57701(8) 0.54956(6) 0.94769(11)
C1_14 C 0.69367(13) 0.81243(9) 0.48321(15)
C2_14 C 0.71130(12) 0.79955(8) 0.57077(15)
C3_14 C 0.67887(11) 0.76059(8) 0.62430(14)
H1_18 H 0.6459 0.7440 0.6088
C4_10 C 0.69517(13) 0.74567(9) 0.70179(15)
C5_10 C 0.74348(15) 0.77108(11) 0.72385(19)
H2_10 H 0.7549 0.7614 0.7747
C6_10 C 0.77572(16) 0.81109(12) 0.6710(2)
H3_10 H 0.8084 0.8285 0.6879
C7_14 C 0.75994(14) 0.82499(10) 0.59495(19)
H4_14 H 0.7818 0.8515 0.5593
C8_14 C 0.66058(13) 0.70203(9) 0.75582(15)
C9_14 C 0.61261(14) 0.69026(10) 0.77062(18)
H5_14 H 0.6017 0.7101 0.7451
C10_18 C 0.58093(13) 0.65038(9) 0.82144(17)
H6_18 H 0.5491 0.6437 0.8309
C11_18 C 0.59580(13) 0.61950(9) 0.85904(14)
C12_14 C 0.64300(13) 0.63038(9) 0.84404(17)
H7_14 H 0.6535 0.6100 0.8686
C13_6 C 0.67518(13) 0.67086(10) 0.79325(17)
H8_6 H 0.7069 0.6773 0.7839
C14_18 C 0.56087(13) 0.57508(10) 0.91395(15)
O3_8 O 0.54511(6) 0.05925(8) 0.89735(10)
C1_15 C 0.54790(10) 0.02700(13) 0.85012(15)
C2_15 C 0.57841(9) 0.04463(12) 0.76256(15)
C3_15 C 0.58494(8) 0.01220(11) 0.70903(14)
C4_11 C 0.61616(9) 0.02850(13) 0.63154(15)
C5_11 C 0.63906(10) 0.07681(15) 0.60948(19)
H2_11 H 0.6601 0.0882 0.5586
C6_11 C 0.63129(10) 0.10905(16) 0.6623(2)
H3_11 H 0.6465 0.1417 0.6454
C7_15 C 0.60161(10) 0.09327(14) 0.73838(19)
H4_15 H 0.5969 0.1151 0.7740
C13_7 C 0.67098(9) 0.00851(13) 0.54008(17)
H8_7 H 0.6962 0.0402 0.5494
O5_15 O 0.45044(6) 0.02744(6) 0.94769(11)
C12_15 C 0.36962(9) 0.01261(9) 0.84404(17)
H7_15 H 0.3900 0.0434 0.8686
C13_8 C 0.32914(10) 0.00431(9) 0.79325(17)
H8_8 H 0.3227 0.0295 0.7839
O3_9 O 0.94075(8) 0.48586(6) 0.89735(10)
C1_16 C 0.97300(13) 0.52090(9) 0.85012(15)
C2_16 C 0.95537(12) 0.53378(8) 0.76256(15)
C3_16 C 0.98780(11) 0.57274(8) 0.70903(14)
C4_12 C 0.97150(13) 0.58766(9) 0.63154(15)
C5_12 C 0.92319(15) 0.56225(11) 0.60948(19)
H2_12 H 0.9118 0.5719 0.5586
C6_12 C 0.89095(16) 0.52224(12) 0.6623(2)
H3_12 H 0.8583 0.5048 0.6454
C7_16 C 0.90673(14) 0.50834(10) 0.73838(19)
H4_16 H 0.8849 0.4818 0.7740
C13_9 C 0.99149(13) 0.66247(10) 0.54008(17)
H8_9 H 0.9598 0.6560 0.5494
O5_16 O 0.97256(6) 0.42299(8) 0.94769(11)
C12_16 C 0.98739(9) 0.35700(13) 0.84404(17)
H7_16 H 0.9566 0.3465 0.8686
C13_10 C 0.99569(9) 0.32482(13) 0.79325(17)
H8_10 H 0.9705 0.2931 0.7839
C4_13 C 0.07901(9) 0.71717(9) 0.96487(15)
C5_13 C 0.10442(11) 0.69427(10) 0.94281(19)
H2_13 H 0.0948 0.6732 0.8919
C6_13 C 0.14443(12) 0.70204(10) 0.9956(2)
H3_13 H 0.1619 0.6868 0.9787
C8_15 C 0.03537(9) 0.70812(9) 0.91084(15)
C9_15 C 0.02360(10) 0.74432(10) 0.89604(18)
H5_15 H 0.0435 0.7751 0.9215
C13_11 C 0.00420(10) 0.66235(9) 0.87341(17)
H8_11 H 0.0107 0.6371 0.8827
C4_14 C 0.63817(13) 0.92099(9) 0.96487(15)
C5_14 C 0.58986(15) 0.89558(11) 0.94281(19)
H2_14 H 0.5785 0.9052 0.8919
C6_14 C 0.55762(16) 0.85557(12) 0.9956(2)
H3_14 H 0.5250 0.8381 0.9787
C8_16 C 0.67276(13) 0.96463(9) 0.91084(15)
C9_16 C 0.72073(14) 0.97640(10) 0.89604(18)
H5_16 H 0.7317 0.9565 0.9215
C13_12 C 0.65816(13) 0.99580(10) 0.87341(17)
H8_12 H 0.6265 0.9893 0.8827
O5_17 O 0.54956(6) 0.97256(6) 0.05231(11)
C12_17 C 0.63038(9) 0.98739(9) 0.15596(17)
H7_17 H 0.6100 0.9566 0.1314
C13_13 C 0.67086(10) 0.99569(9) 0.20675(17)
H8_13 H 0.6773 0.9705 0.2161
O7_8 O 0.45489(6) 0.94075(8) 0.10265(10)
C1_17 C 0.45210(10) 0.97300(13) 0.14988(15)
C2_17 C 0.42159(9) 0.95537(12) 0.23744(15)
C3_17 C 0.41506(8) 0.98780(11) 0.29097(14)
C4_15 C 0.38384(9) 0.97150(13) 0.36846(15)
C5_15 C 0.36094(10) 0.92319(15) 0.39052(19)
H2_15 H 0.3399 0.9118 0.4414
C6_15 C 0.36871(10) 0.89095(16) 0.3377(2)
H3_15 H 0.3535 0.8583 0.3546
C7_17 C 0.39839(10) 0.90673(14) 0.26162(19)
H4_17 H 0.4031 0.8849 0.2260
C13_14 C 0.32902(9) 0.99149(13) 0.45992(17)
H8_14 H 0.3038 0.9598 0.4506
O5_18 O 0.02744(6) 0.57701(8) 0.05231(11)
C12_18 C 0.01261(9) 0.64300(13) 0.15596(17)
H7_18 H 0.0434 0.6535 0.1314
C13_15 C 0.00431(9) 0.67518(13) 0.20675(17)
H8_15 H 0.0295 0.7069 0.2161
O7_9 O 0.05925(8) 0.51414(10) 0.10265(10)
C1_18 C 0.02700(13) 0.47910(9) 0.14988(15)
C2_18 C 0.04463(12) 0.46622(8) 0.23744(15)
C3_18 C 0.01220(11) 0.42726(8) 0.29097(14)
C4_16 C 0.02850(13) 0.41234(9) 0.36846(15)
C5_16 C 0.07681(15) 0.43775(11) 0.39052(19)
H2_16 H 0.0882 0.4281 0.4414
C6_16 C 0.10905(16) 0.47776(12) 0.3377(2)
H3_16 H 0.1417 0.4952 0.3546
C7_18 C 0.09327(14) 0.49166(10) 0.26162(19)
H4_18 H 0.1151 0.5182 0.2260
C13_16 C 0.00851(13) 0.33753(10) 0.45992(17)
H8_16 H 0.0402 0.3440 0.4506
C4_17 C 0.92099(9) 0.28283(9) 0.03513(15)
C5_17 C 0.89558(11) 0.30573(10) 0.05719(19)
H2_17 H 0.9052 0.3268 0.1081
C6_17 C 0.85557(12) 0.29796(10) 0.0044(2)
H3_17 H 0.8381 0.3132 0.0213
C8_17 C 0.96463(9) 0.29188(9) 0.08916(15)
C9_17 C 0.97640(10) 0.25568(10) 0.10396(18)
H5_17 H 0.9565 0.2249 0.0785
C13_17 C 0.99580(10) 0.33765(9) 0.12659(17)
H8_17 H 0.9893 0.3629 0.1173
C4_18 C 0.36183(13) 0.07901(9) 0.03513(15)
C5_18 C 0.41014(15) 0.10442(11) 0.05719(19)
H2_18 H 0.4215 0.0948 0.1081
C6_18 C 0.44238(16) 0.14443(12) 0.0044(2)
H3_18 H 0.4750 0.1619 0.0213
C8_18 C 0.32724(13) 0.03537(9) 0.08916(15)
C9_18 C 0.27927(14) 0.02360(10) 0.10396(18)
H5_18 H 0.2683 0.0435 0.0785
C13_18 C 0.34184(13) 0.00420(10) 0.12659(17)
H8_18 H 0.3735 0.0107 0.1173
loop_
_geom_bond_atom_site_label_1
_geom_bond_atom_site_label_2
_geom_bond_site_symmetry_1
_geom_bond_site_symmetry_2
Cu1 O1 1_555 1_555
O1 H9 1_555 1_555
O4 C14 1_555 1_555
O5 Cu1 1_555 1_555
H6 C10 1_555 1_555
C11 C10 1_555 1_555
C12 C11 1_555 1_555
H7 C12 1_555 1_555
C14 O5 1_555 1_555
H10 O1 1_555 1_555
Cu2 O4 1_555 1_555
O6 Cu1 1_555 1_555
O7 Cu1 1_555 1_555
O8 Cu1 1_555 1_555
C11 C14 1_555 1_555
Cu1_2 O1_2 1_555 1_555
O1_2 H9_2 1_555 1_555
O4_2 C14_2 1_555 1_555
O5_2 Cu1_2 1_555 1_555
C5 C4 1_555 1_555
H2 C5 1_555 1_555
C6 C5 1_555 1_555
H3 C6 1_555 1_555
C8 C4 1_555 1_555
C9 C8 1_555 1_555
H5 C9 1_555 1_555
C10_2 C9 1_555 1_555
H6_2 C10_2 1_555 1_555
C11_2 C10_2 1_555 1_555
C12_2 C11_2 1_555 1_555
H7_2 C12_2 1_555 1_555
C13 C8 1_555 1_555
H8 C13 1_555 1_555
C14_2 O5_2 1_555 1_555
H10_2 O1_2 1_555 1_555
Cu2_2 O4_2 1_555 1_555
O6_2 Cu1_2 1_555 1_555
O7_2 Cu1_2 1_555 1_555
O8_2 Cu1_2 1_555 1_555
C11_2 C14_2 1_555 1_555
C12_2 C13 1_555 1_555
Cu1_3 O1_3 1_555 1_555
O1_3 H9_3 1_555 1_555
O4_3 C14_3 1_555 1_555
O5_3 Cu1_3 1_555 1_555
H6_3 C10_3 1_555 1_555
C11_3 C10_3 1_555 1_555
C12_3 C11_3 1_555 1_555
H7_3 C12_3 1_555 1_555
C14_3 O5_3 1_555 1_555
H10_3 O1_3 1_555 1_555
Cu2_3 O4_3 1_555 1_555
O6_3 Cu1_3 1_555 1_555
O7_3 Cu1_3 1_555 1_555
O8_3 Cu1_3 1_555 1_555
C11_3 C14_3 1_555 1_555
O6_3 C1 1_555 1_555
O3 C1 1_555 1_555
O4_4 C14_4 1_555 1_555
C1 C2 1_555 1_555
C2 C3 1_555 1_555
C3 H1 1_555 1_555
C4_2 C3 1_555 1_555
C5_2 C4_2 1_555 1_555
H2_2 C5_2 1_555 1_555
C6_2 C5_2 1_555 1_555
H3_2 C6_2 1_555 1_555
C7 C2 1_555 1_555
H4 C7 1_555 1_555
C8_2 C4_2 1_555 1_555
C9_2 C8_2 1_555 1_555
H5_2 C9_2 1_555 1_555
C10_4 C9_2 1_555 1_555
H6_4 C10_4 1_555 1_555
C11_4 C10_4 1_555 1_555
Cu4_2 O4_4 1_555 1_555
Cu2_3 O3 1_555 1_555
C6_2 C7 1_555 1_555
C11_4 C14_4 1_555 1_555
O6 C1_2 1_555 1_555
O3_2 C1_2 1_555 1_555
O4_5 C14_5 1_555 1_555
C1_2 C2_2 1_555 1_555
C2_2 C3_2 1_555 1_555
C3_2 H1_2 1_555 1_555
C4_3 C3_2 1_555 1_555
C5_3 C4_3 1_555 1_555
H2_3 C5_3 1_555 1_555
C6_3 C5_3 1_555 1_555
H3_3 C6_3 1_555 1_555
C7_2 C2_2 1_555 1_555
H4_2 C7_2 1_555 1_555
C8_3 C4_3 1_555 1_555
C9_3 C8_3 1_555 1_555
H5_3 C9_3 1_555 1_555
C10_5 C9_3 1_555 1_555
H6_5 C10_5 1_555 1_555
C11_5 C10_5 1_555 1_555
Cu4_3 O4_5 1_555 1_555
Cu2 O3_2 1_555 1_555
C6_3 C7_2 1_555 1_555
C11_5 C14_5 1_555 1_555
O6_2 C1_3 1_555 1_555
O3_3 C1_3 1_555 1_555
O4_6 C14_6 1_555 1_555
C1_3 C2_3 1_555 1_555
C2_3 C3_3 1_555 1_555
C3_3 H1_3 1_555 1_555
C4_4 C3_3 1_555 1_555
C5_4 C4_4 1_555 1_555
H2_4 C5_4 1_555 1_555
C6_4 C5_4 1_555 1_555
H3_4 C6_4 1_555 1_555
C7_3 C2_3 1_555 1_555
H4_3 C7_3 1_555 1_555
C8_4 C4_4 1_555 1_555
C9_4 C8_4 1_555 1_555
H5_4 C9_4 1_555 1_555
C10_6 C9_4 1_555 1_555
H6_6 C10_6 1_555 1_555
C11_6 C10_6 1_555 1_555
C12_4 C11_6 1_555 1_555
H7_4 C12_4 1_555 1_555
C13_2 C8_4 1_555 1_555
H8_2 C13_2 1_555 1_555
C14_6 O5_4 1_555 1_555
Cu4 O4_6 1_555 1_555
Cu2_2 O3_3 1_555 1_555
C6_4 C7_3 1_555 1_555
C11_6 C14_6 1_555 1_555
C12_4 C13_2 1_555 1_555
Cu2 O1_4 1_555 1_555
O1_4 H9_4 1_555 1_555
O2 C1_4 1_555 1_555
O7_4 C1_4 1_555 1_555
O8 C14_7 1_555 1_555
O5_5 Cu2 1_555 1_555
C1_4 C2_4 1_555 1_555
C2_4 C3_4 1_555 1_555
C3_4 H1_4 1_555 1_555
C4_5 C3_4 1_555 1_555
C5_5 C4_5 1_555 1_555
H2_5 C5_5 1_555 1_555
C6_5 C5_5 1_555 1_555
H3_5 C6_5 1_555 1_555
C7_4 C2_4 1_555 1_555
H4_4 C7_4 1_555 1_555
C8_5 C4_5 1_555 1_555
C9_5 C8_5 1_555 1_555
H5_5 C9_5 1_555 1_555
C10_7 C9_5 1_555 1_555
H6_7 C10_7 1_555 1_555
C11_7 C10_7 1_555 1_555
C12_5 C11_7 1_555 1_555
H7_5 C12_5 1_555 1_555
C13_3 C8_5 1_555 1_555
H8_3 C13_3 1_555 1_555
C14_7 O5_5 1_555 1_555
H10_4 O1_4 1_555 1_555
Cu4 O2 1_555 1_555
O6_4 Cu2 1_555 1_555
C6_5 C7_4 1_555 1_555
C11_7 C14_7 1_555 1_555
C12_5 C13_3 1_555 1_555
Cu2_2 O1_5 1_555 1_555
O1_5 H9_5 1_555 1_555
O8_2 C14_8 1_555 1_555
O5_6 Cu2_2 1_555 1_555
C9_6 C8_6 1_555 1_555
H5_6 C9_6 1_555 1_555
C10_8 C9_6 1_555 1_555
H6_8 C10_8 1_555 1_555
C11_8 C10_8 1_555 1_555
C12_6 C11_8 1_555 1_555
H7_6 C12_6 1_555 1_555
C14_8 O5_6 1_555 1_555
H10_5 O1_5 1_555 1_555
Cu4_2 O2_2 1_555 1_555
O6_5 Cu2_2 1_555 1_555
C11_8 C14_8 1_555 1_555
Cu2_3 O1_6 1_555 1_555
O1_6 H9_6 1_555 1_555
O8_3 C14_9 1_555 1_555
O5_7 Cu2_3 1_555 1_555
C9_7 C8_7 1_555 1_555
H5_7 C9_7 1_555 1_555
C10_9 C9_7 1_555 1_555
H6_9 C10_9 1_555 1_555
C11_9 C10_9 1_555 1_555
C12_7 C11_9 1_555 1_555
H7_7 C12_7 1_555 1_555
C14_9 O5_7 1_555 1_555
H10_6 O1_6 1_555 1_555
Cu4_3 O2_3 1_555 1_555
O6_6 Cu2_3 1_555 1_555
C11_9 C14_9 1_555 1_555
O6_6 C1_5 1_555 1_555
O7_3 C1_5 1_555 1_555
C1_5 C2_5 1_555 1_555
C2_5 C3_5 1_555 1_555
C3_5 H1_7 1_555 1_555
C7_5 C2_5 1_555 1_555
H4_5 C7_5 1_555 1_555
O6_4 C1_6 1_555 1_555
O7 C1_6 1_555 1_555
C1_6 C2_6 1_555 1_555
C2_6 C3_6 1_555 1_555
C3_6 H1_8 1_555 1_555
C7_6 C2_6 1_555 1_555
H4_6 C7_6 1_555 1_555
O6_5 C1_7 1_555 1_555
O7_2 C1_7 1_555 1_555
C1_7 C2_7 1_555 1_555
C2_7 C3_7 1_555 1_555
C3_7 H1_9 1_555 1_555
C7_7 C2_7 1_555 1_555
H4_7 C7_7 1_555 1_555
Cu4_2 O1_7 1_555 1_555
O1_7 H9_7 1_555 1_555
H10_7 O1_7 1_555 1_555
Cu4_3 O1_8 1_555 1_555
O1_8 H9_8 1_555 1_555
H10_8 O1_8 1_555 1_555
Cu4 O1_9 1_555 1_555
O1_9 H9_9 1_555 1_555
H10_9 O1_9 1_555 1_555
Cu1_4 O1_10 1_555 1_555
O1_10 H9_10 1_555 1_555
O2_4 C1_8 1_555 1_555
O3_4 C1_8 1_555 1_555
O4_7 C14_10 1_555 1_555
O5_8 Cu1_4 1_555 1_555
C1_8 C2_8 1_555 1_555
C2_8 C3_8 1_555 1_555
C3_8 H1_10 1_555 1_555
C4_6 C3_8 1_555 1_555
C5_6 C4_6 1_555 1_555
H2_6 C5_6 1_555 1_555
C6_6 C5_6 1_555 1_555
H3_6 C6_6 1_555 1_555
C7_8 C2_8 1_555 1_555
H4_8 C7_8 1_555 1_555
C8_8 C4_6 1_555 1_555
C9_8 C8_8 1_555 1_555
H5_8 C9_8 1_555 1_555
C10_10 C9_8 1_555 1_555
H6_10 C10_10 1_555 1_555
C11_10 C10_10 1_555 1_555
C12_8 C11_10 1_555 1_555
H7_8 C12_8 1_555 1_555
C13_4 C8_8 1_555 1_555
H8_4 C13_4 1_555 1_555
C14_10 O5_8 1_555 1_555
H10_10 O1_10 1_555 1_555
Cu2_4 O4_7 1_555 1_555
Cu3 O2_4 1_555 1_555
O6_7 Cu1_4 1_555 1_555
O7_5 Cu1_4 1_555 1_555
O8_4 Cu1_4 1_555 1_555
C6_6 C7_8 1_555 1_555
C11_10 C14_10 1_555 1_555
C12_8 C13_4 1_555 1_555
Cu1_5 O1_11 1_555 1_555
O1_11 H9_11 1_555 1_555
O4_8 C14_11 1_555 1_555
O5_9 Cu1_5 1_555 1_555
C9_9 C8_9 1_555 1_555
H5_9 C9_9 1_555 1_555
C10_11 C9_9 1_555 1_555
H6_11 C10_11 1_555 1_555
C11_11 C10_11 1_555 1_555
C12_9 C11_11 1_555 1_555
H7_9 C12_9 1_555 1_555
C14_11 O5_9 1_555 1_555
H10_11 O1_11 1_555 1_555
Cu2_5 O4_8 1_555 1_555
Cu3_2 O2_5 1_555 1_555
O6_8 Cu1_5 1_555 1_555
O7_6 Cu1_5 1_555 1_555
O8_5 Cu1_5 1_555 1_555
C11_11 C14_11 1_555 1_555
Cu1_6 O1_12 1_555 1_555
O1_12 H9_12 1_555 1_555
O4_9 C14_12 1_555 1_555
O5_10 Cu1_6 1_555 1_555
C9_10 C8_10 1_555 1_555
H5_10 C9_10 1_555 1_555
C10_12 C9_10 1_555 1_555
H6_12 C10_12 1_555 1_555
C11_12 C10_12 1_555 1_555
C12_10 C11_12 1_555 1_555
H7_10 C12_10 1_555 1_555
C14_12 O5_10 1_555 1_555
H10_12 O1_12 1_555 1_555
Cu2_6 O4_9 1_555 1_555
Cu3_3 O2_6 1_555 1_555
O6_9 Cu1_6 1_555 1_555
O7_7 Cu1_6 1_555 1_555
O8_6 Cu1_6 1_555 1_555
C11_12 C14_12 1_555 1_555
O6_9 C1_9 1_555 1_555
O3_5 C1_9 1_555 1_555
C1_9 C2_9 1_555 1_555
C2_9 C3_9 1_555 1_555
C3_9 H1_13 1_555 1_555
C7_9 C2_9 1_555 1_555
H4_9 C7_9 1_555 1_555
Cu2_6 O3_5 1_555 1_555
O6_7 C1_10 1_555 1_555
O3_6 C1_10 1_555 1_555
C1_10 C2_10 1_555 1_555
C2_10 C3_10 1_555 1_555
C3_10 H1_14 1_555 1_555
C7_10 C2_10 1_555 1_555
H4_10 C7_10 1_555 1_555
Cu2_4 O3_6 1_555 1_555
O6_8 C1_11 1_555 1_555
O3_7 C1_11 1_555 1_555
C1_11 C2_11 1_555 1_555
C2_11 C3_11 1_555 1_555
C3_11 H1_15 1_555 1_555
C7_11 C2_11 1_555 1_555
H4_11 C7_11 1_555 1_555
Cu2_5 O3_7 1_555 1_555
Cu3_2 O1_13 1_555 1_555
O1_13 H9_13 1_555 1_555
H10_13 O1_13 1_555 1_555
O8_7 Cu3_2 1_555 1_555
Cu3_3 O1_14 1_555 1_555
O1_14 H9_14 1_555 1_555
H10_14 O1_14 1_555 1_555
O8_8 Cu3_3 1_555 1_555
Cu3 O1_15 1_555 1_555
O1_15 H9_15 1_555 1_555
H10_15 O1_15 1_555 1_555
O8_9 Cu3 1_555 1_555
Cu2_4 O1_16 1_555 1_555
O1_16 H9_16 1_555 1_555
O8_4 C14_13 1_555 1_555
O5_11 Cu2_4 1_555 1_555
H6_13 C10_13 1_555 1_555
C11_13 C10_13 1_555 1_555
C12_11 C11_13 1_555 1_555
H7_11 C12_11 1_555 1_555
C14_13 O5_11 1_555 1_555
H10_16 O1_16 1_555 1_555
O6_10 Cu2_4 1_555 1_555
C11_13 C14_13 1_555 1_555
Cu2_5 O1_17 1_555 1_555
O1_17 H9_17 1_555 1_555
O8_5 C14_14 1_555 1_555
O5_12 Cu2_5 1_555 1_555
C5_7 C4_7 1_555 1_555
H2_7 C5_7 1_555 1_555
C6_7 C5_7 1_555 1_555
H3_7 C6_7 1_555 1_555
C8_11 C4_7 1_555 1_555
C9_11 C8_11 1_555 1_555
H5_11 C9_11 1_555 1_555
C10_14 C9_11 1_555 1_555
H6_14 C10_14 1_555 1_555
C11_14 C10_14 1_555 1_555
C12_12 C11_14 1_555 1_555
H7_12 C12_12 1_555 1_555
C13_5 C8_11 1_555 1_555
H8_5 C13_5 1_555 1_555
C14_14 O5_12 1_555 1_555
H10_17 O1_17 1_555 1_555
O6_11 Cu2_5 1_555 1_555
C11_14 C14_14 1_555 1_555
C12_12 C13_5 1_555 1_555
Cu2_6 O1_18 1_555 1_555
O1_18 H9_18 1_555 1_555
O8_6 C14_15 1_555 1_555
O5_13 Cu2_6 1_555 1_555
H6_15 C10_15 1_555 1_555
C11_15 C10_15 1_555 1_555
C12_13 C11_15 1_555 1_555
H7_13 C12_13 1_555 1_555
C14_15 O5_13 1_555 1_555
H10_18 O1_18 1_555 1_555
O6_12 Cu2_6 1_555 1_555
C11_15 C14_15 1_555 1_555
O6_12 C1_12 1_555 1_555
O7_7 C1_12 1_555 1_555
O8_7 C14_16 1_555 1_555
C1_12 C2_12 1_555 1_555
C2_12 C3_12 1_555 1_555
C3_12 H1_16 1_555 1_555
C4_8 C3_12 1_555 1_555
C5_8 C4_8 1_555 1_555
H2_8 C5_8 1_555 1_555
C6_8 C5_8 1_555 1_555
H3_8 C6_8 1_555 1_555
C7_12 C2_12 1_555 1_555
H4_12 C7_12 1_555 1_555
C8_12 C4_8 1_555 1_555
C9_12 C8_12 1_555 1_555
H5_12 C9_12 1_555 1_555
C10_16 C9_12 1_555 1_555
H6_16 C10_16 1_555 1_555
C11_16 C10_16 1_555 1_555
C6_8 C7_12 1_555 1_555
C11_16 C14_16 1_555 1_555
O6_10 C1_13 1_555 1_555
O7_5 C1_13 1_555 1_555
O8_8 C14_17 1_555 1_555
C1_13 C2_13 1_555 1_555
C2_13 C3_13 1_555 1_555
C3_13 H1_17 1_555 1_555
C4_9 C3_13 1_555 1_555
C5_9 C4_9 1_555 1_555
H2_9 C5_9 1_555 1_555
C6_9 C5_9 1_555 1_555
H3_9 C6_9 1_555 1_555
C7_13 C2_13 1_555 1_555
H4_13 C7_13 1_555 1_555
C8_13 C4_9 1_555 1_555
C9_13 C8_13 1_555 1_555
H5_13 C9_13 1_555 1_555
C10_17 C9_13 1_555 1_555
H6_17 C10_17 1_555 1_555
C11_17 C10_17 1_555 1_555
C6_9 C7_13 1_555 1_555
C11_17 C14_17 1_555 1_555
O6_11 C1_14 1_555 1_555
O7_6 C1_14 1_555 1_555
O8_9 C14_18 1_555 1_555
C1_14 C2_14 1_555 1_555
C2_14 C3_14 1_555 1_555
C3_14 H1_18 1_555 1_555
C4_10 C3_14 1_555 1_555
C5_10 C4_10 1_555 1_555
H2_10 C5_10 1_555 1_555
C6_10 C5_10 1_555 1_555
H3_10 C6_10 1_555 1_555
C7_14 C2_14 1_555 1_555
H4_14 C7_14 1_555 1_555
C8_14 C4_10 1_555 1_555
C9_14 C8_14 1_555 1_555
H5_14 C9_14 1_555 1_555
C10_18 C9_14 1_555 1_555
H6_18 C10_18 1_555 1_555
C11_18 C10_18 1_555 1_555
C12_14 C11_18 1_555 1_555
H7_14 C12_14 1_555 1_555
C13_6 C8_14 1_555 1_555
H8_6 C13_6 1_555 1_555
C14_18 O5_14 1_555 1_555
C6_10 C7_14 1_555 1_555
C11_18 C14_18 1_555 1_555
C12_14 C13_6 1_555 1_555
O3_8 C1_15 1_555 1_555
C1_15 C2_15 1_555 1_555
C2_15 C3_15 1_555 1_555
C4_11 C3_15 1_555 1_555
C5_11 C4_11 1_555 1_555
H2_11 C5_11 1_555 1_555
C6_11 C5_11 1_555 1_555
H3_11 C6_11 1_555 1_555
C7_15 C2_15 1_555 1_555
H4_15 C7_15 1_555 1_555
H8_7 C13_7 1_555 1_555
C6_11 C7_15 1_555 1_555
H7_15 C12_15 1_555 1_555
H8_8 C13_8 1_555 1_555
C12_15 C13_8 1_555 1_555
O3_9 C1_16 1_555 1_555
C1_16 C2_16 1_555 1_555
C2_16 C3_16 1_555 1_555
C4_12 C3_16 1_555 1_555
C5_12 C4_12 1_555 1_555
H2_12 C5_12 1_555 1_555
C6_12 C5_12 1_555 1_555
H3_12 C6_12 1_555 1_555
C7_16 C2_16 1_555 1_555
H4_16 C7_16 1_555 1_555
H8_9 C13_9 1_555 1_555
C6_12 C7_16 1_555 1_555
H7_16 C12_16 1_555 1_555
H8_10 C13_10 1_555 1_555
C12_16 C13_10 1_555 1_555
C5_13 C4_13 1_555 1_555
H2_13 C5_13 1_555 1_555
C6_13 C5_13 1_555 1_555
H3_13 C6_13 1_555 1_555
C8_15 C4_13 1_555 1_555
C9_15 C8_15 1_555 1_555
H5_15 C9_15 1_555 1_555
C13_11 C8_15 1_555 1_555
H8_11 C13_11 1_555 1_555
C5_14 C4_14 1_555 1_555
H2_14 C5_14 1_555 1_555
C6_14 C5_14 1_555 1_555
H3_14 C6_14 1_555 1_555
C8_16 C4_14 1_555 1_555
C9_16 C8_16 1_555 1_555
H5_16 C9_16 1_555 1_555
C13_12 C8_16 1_555 1_555
H8_12 C13_12 1_555 1_555
H7_17 C12_17 1_555 1_555
H8_13 C13_13 1_555 1_555
C12_17 C13_13 1_555 1_555
O7_8 C1_17 1_555 1_555
C1_17 C2_17 1_555 1_555
C2_17 C3_17 1_555 1_555
C4_15 C3_17 1_555 1_555
C5_15 C4_15 1_555 1_555
H2_15 C5_15 1_555 1_555
C6_15 C5_15 1_555 1_555
H3_15 C6_15 1_555 1_555
C7_17 C2_17 1_555 1_555
H4_17 C7_17 1_555 1_555
H8_14 C13_14 1_555 1_555
C6_15 C7_17 1_555 1_555
H7_18 C12_18 1_555 1_555
H8_15 C13_15 1_555 1_555
C12_18 C13_15 1_555 1_555
O7_9 C1_18 1_555 1_555
C1_18 C2_18 1_555 1_555
C2_18 C3_18 1_555 1_555
C4_16 C3_18 1_555 1_555
C5_16 C4_16 1_555 1_555
H2_16 C5_16 1_555 1_555
C6_16 C5_16 1_555 1_555
H3_16 C6_16 1_555 1_555
C7_18 C2_18 1_555 1_555
H4_18 C7_18 1_555 1_555
H8_16 C13_16 1_555 1_555
C6_16 C7_18 1_555 1_555
C5_17 C4_17 1_555 1_555
H2_17 C5_17 1_555 1_555
C6_17 C5_17 1_555 1_555
H3_17 C6_17 1_555 1_555
C8_17 C4_17 1_555 1_555
C9_17 C8_17 1_555 1_555
H5_17 C9_17 1_555 1_555
C13_17 C8_17 1_555 1_555
H8_17 C13_17 1_555 1_555
C5_18 C4_18 1_555 1_555
H2_18 C5_18 1_555 1_555
C6_18 C5_18 1_555 1_555
H3_18 C6_18 1_555 1_555
C8_18 C4_18 1_555 1_555
C9_18 C8_18 1_555 1_555
H5_18 C9_18 1_555 1_555
C13_18 C8_18 1_555 1_555
H8_18 C13_18 1_555 1_555

#END
