
###############################################################################
#
# This file contains modified crystal structure data generated from the
# MOF subset of the Cambridge Structural Database (CSD) v543 
# hosted by the Cambridge Crystallographic Data Centre (CCDC).
#
# This work is licensed under the Creative Commons
# Attribution-NonCommercial-ShareAlike 4.0 International License.
# To view a copy of this license, visit
# http://creativecommons.org/licenses/by-nc-sa/4.0/
# or send a letter to
# Creative Commons, PO Box 1866, Mountain View, CA 94042, USA.
#
# CIF created using the CSD Python API on 29 September 2022
# The structure has been converted into the P1 space group
# The structure has a 3D framework
# The original CSD entry MOZCUB is in the monoclinic crystal system
# The framework has been calculated to contain at least 10.0% void space
# The void calculation uses a probe of radius 1.32A, grid spacing 0.4
#
###############################################################################

data_MOZCUB
_chemical_formula_moiety         '(C256 H192 N16 O56 Zn8)n'
_symmetry_cell_setting           triclinic
_symmetry_space_group_name_H-M   'P 1'
_symmetry_Int_Tables_number      1
_space_group_name_Hall           'P 1'
loop_
_symmetry_equiv_pos_site_id
_symmetry_equiv_pos_as_xyz
1 x,y,z
_cell_length_a                   25.434(7)
_cell_length_b                   13.976(4)
_cell_length_c                   17.825(5)
_cell_angle_alpha                90
_cell_angle_beta                 99.875(5)
_cell_angle_gamma                90
_cell_volume                     6242.3
loop_
_atom_site_label
_atom_site_type_symbol
_atom_site_fract_x
_atom_site_fract_y
_atom_site_fract_z
O12 O 0.17079(7) 0.18595(14) 0.19730(9)
O13 O 0.15876(8) 0.33782(15) 0.17055(11)
C54 C 0.15370(10) 0.2529(2) 0.15273(14)
C55 C 0.12362(9) 0.22346(19) 0.07525(12)
C61 C 0.10130(11) 0.2935(2) 0.02540(15)
H45 H 0.1078 0.3578 0.0371
C64 C 0.11552(10) 0.1295(2) 0.05543(14)
H48 H 0.1319 0.0821 0.0880
Zn3 Zn 0.204129(9) 0.239652(15) 0.295835(12)
N3 N 0.65142(6) 0.18660(12) 0.84881(9)
C33 C 0.57538(9) 0.09304(15) 0.91923(12)
C34 C 0.66559(9) 0.13887(16) 0.91356(12)
H25 H 0.7015 0.1372 0.9355
C35 C 0.62939(9) 0.09178(17) 0.94960(13)
H26 H 0.6412 0.0589 0.9947
C36 C 0.53571(9) 0.04505(16) 0.95911(12)
C39 C 0.59939(9) 0.18713(19) 0.81872(14)
H28 H 0.5887 0.2197 0.7732
C40 C 0.56106(10) 0.14222(19) 0.85146(14)
H29 H 0.5255 0.1448 0.8281
Zn2 Zn 0.704129(9) 0.260348(15) 0.795835(12)
O10 O 0.77593(6) 0.21621(12) 0.78837(8)
C51 C 0.80291(8) 0.20499(15) 0.85549(12)
O11 O 0.78292(6) 0.21055(14) 0.91369(10)
C53 C 0.86173(8) 0.18737(16) 0.86063(12)
C56 C 0.89459(9) 0.18534(18) 0.93129(12)
H41 H 0.8798 0.1921 0.9752
C57 C 0.94933(9) 0.1733(2) 0.93727(13)
H42 H 0.9710 0.1722 0.9849
C59 C 0.97107(9) 0.1630(2) 0.87313(13)
C60 C 0.88444(9) 0.1762(2) 0.79690(13)
H44 H 0.8629 0.1776 0.7491
C63 C 0.93858(10) 0.1629(3) 0.80223(13)
H47 H 0.9533 0.1540 0.7585
N5 N 0.71176(7) 0.38912(11) 0.85302(9)
O15 O 0.67079(7) 0.31405(14) 0.69730(9)
O3 O 0.71443(8) 0.91209(11) 0.91789(9)
C11 C 0.73243(9) 0.83086(14) 0.95742(12)
C31 C 0.68765(14) 0.9027(2) 0.84267(14)
H21 H 0.7100 0.8693 0.8132
H22 H 0.6794 0.9651 0.8212
H23 H 0.6552 0.8675 0.8421
C42 C 0.73116(8) 0.56377(14) 0.92941(11)
C43 C 0.74136(9) 0.65804(14) 0.96758(11)
C44 C 0.70972(9) 0.39687(15) 0.92726(11)
H33 H 0.7018 0.3427 0.9535
C45 C 0.71887(9) 0.48211(14) 0.96663(11)
C47 C 0.72419(10) 0.74072(14) 0.92611(12)
H35 H 0.7067 0.7347 0.8760
C48 C 0.73313(11) 0.55550(15) 0.85201(12)
H36 H 0.7417 0.6082 0.8247
C49 C 0.72234(10) 0.46879(16) 0.81653(12)
H37 H 0.7224 0.4651 0.7644
O1 O 0.27593(6) 0.28379(12) 0.28837(8)
N1 N 0.15142(6) 0.31340(12) 0.34881(9)
C1 C 0.30291(8) 0.29501(15) 0.35549(12)
N2 N 0.21176(7) 0.11088(11) 0.35302(9)
C3 C 0.55970(10) 0.3264(3) 0.44095(13)
O2 O 0.28292(6) 0.28945(14) 0.41369(10)
C5 C 0.20972(9) 0.10313(15) 0.42726(11)
H1 H 0.2018 0.1573 0.4535
O5 O 0.65876(8) 0.16218(15) 0.67055(11)
C6 C 0.21887(9) 0.01789(14) 0.46663(11)
H2 H 0.2168 0.0155 0.5182
C7 C 0.36173(8) 0.31263(16) 0.36063(12)
C8 C 0.07538(9) 0.40696(15) 0.41923(12)
C9 C 0.16559(9) 0.36113(16) 0.41356(12)
H3 H 0.2015 0.3628 0.4355
C10 C 0.12939(9) 0.40822(17) 0.44960(13)
H4 H 0.1412 0.4411 0.4947
C14 C 0.03571(9) 0.45495(16) 0.45911(12)
C16 C 0.65370(10) 0.2471(2) 0.65273(14)
C17 C 0.62362(9) 0.27654(19) 0.57525(12)
C18 C 0.39459(9) 0.31466(18) 0.43129(12)
H7 H 0.3798 0.3079 0.4752
C19 C 0.22234(10) 0.03121(16) 0.31653(12)
H8 H 0.2224 0.0349 0.2644
C20 C 0.04389(9) 0.45252(17) 0.53809(12)
H9 H 0.0737 0.4209 0.5642
O7 O 0.52518(7) 0.35132(18) 0.37379(9)
C21 C 0.44933(9) 0.3267(2) 0.43727(13)
H10 H 0.4710 0.3278 0.4849
C22 C 0.56907(12) 0.2327(3) 0.45757(16)
H11 H 0.5539 0.1859 0.4235
C23 C 0.47107(9) 0.3370(2) 0.37313(13)
C24 C 0.38444(9) 0.3238(2) 0.29690(13)
H12 H 0.3629 0.3224 0.2491
C25 C 0.60130(11) 0.2065(2) 0.52540(15)
H13 H 0.6078 0.1422 0.5371
C26 C 0.09939(9) 0.31287(19) 0.31872(14)
H14 H 0.0887 0.2803 0.2732
C27 C 0.06106(10) 0.35778(19) 0.35146(14)
H15 H 0.0255 0.3552 0.3281
C28 C 0.58334(11) 0.3966(2) 0.48774(15)
H16 H 0.5780 0.4607 0.4746
C30 C 0.43858(10) 0.3371(3) 0.30223(13)
H20 H 0.4533 0.3460 0.2585
C32 C 0.61552(10) 0.3705(2) 0.55543(14)
H24 H 0.6319 0.4179 0.5880
O8 O 0.01452(8) 0.49036(15) 0.65668(9)
C37 C 0.00897(10) 0.49585(17) 0.57911(12)
C41 C 0.06376(14) 0.4531(3) 0.69777(15)
H30 H 0.0932 0.4867 0.6828
H31 H 0.0646 0.4613 0.7514
H32 H 0.0664 0.3862 0.6866
C52 C 0.05970(10) 0.1736(3) 0.94095(13)
O14 O 0.02518(7) 0.14868(18) 0.87379(9)
C58 C 0.06907(12) 0.2673(3) 0.95757(16)
H43 H 0.0539 0.3141 0.9235
C62 C 0.08334(11) 0.1034(2) 0.98774(15)
H46 H 0.0780 0.0393 0.9746
O6 O 0.51452(8) 0.00964(15) 0.15668(9)
C15 C 0.50897(10) 0.00415(17) 0.07911(12)
C29 C 0.56376(14) 0.0469(3) 0.19777(15)
H17 H 0.5932 0.0133 0.1828
H18 H 0.5646 0.0387 0.2514
H19 H 0.5664 0.1138 0.1866
C38 C 0.54389(9) 0.04748(17) 0.03809(12)
H27 H 0.5737 0.0791 0.0642
C2 C 0.76884(8) 0.93623(14) 0.07059(11)
C4 C 0.75864(9) 0.84196(14) 0.03242(11)
C12 C 0.77581(10) 0.75928(14) 0.07389(12)
H5 H 0.7933 0.7653 0.1240
C13 C 0.76687(11) 0.94450(15) 0.14799(12)
H6 H 0.7583 0.8918 0.1753
O9 O 0.78557(8) 0.58791(11) 0.08211(9)
H34 H 0.7168 0.4845 0.0182
C46 C 0.76757(9) 0.66914(14) 0.04258(12)
C50 C 0.81235(14) 0.5973(2) 0.15733(14)
H38 H 0.7900 0.6307 0.1868
H39 H 0.8206 0.5349 0.1788
H40 H 0.8448 0.6325 0.1579
Zn1 Zn 0.295871(9) 0.739652(15) 0.204165(12)
O1_2 O 0.22407(6) 0.78379(12) 0.21163(8)
N1_2 N 0.34858(6) 0.81340(12) 0.15119(9)
C1_2 C 0.19709(8) 0.79501(15) 0.14451(12)
N2_2 N 0.28824(7) 0.61088(11) 0.14698(9)
C2_2 C 0.26884(8) 0.43623(14) 0.07059(11)
O2_2 O 0.21708(6) 0.78945(14) 0.08631(10)
C4_2 C 0.25864(9) 0.34196(14) 0.03242(11)
C5_2 C 0.29028(9) 0.60313(15) 0.07274(11)
H1_2 H 0.2982 0.6573 0.0465
C6_2 C 0.28113(9) 0.51789(14) 0.03337(11)
C7_2 C 0.13827(8) 0.81263(16) 0.13937(12)
C8_2 C 0.42462(9) 0.90696(15) 0.08077(12)
C9_2 C 0.33441(9) 0.86113(16) 0.08644(12)
H3_2 H 0.2985 0.8628 0.0645
C10_2 C 0.37061(9) 0.90822(17) 0.05040(13)
H4_2 H 0.3588 0.9411 0.0053
C12_2 C 0.27581(10) 0.25928(14) 0.07389(12)
H5_2 H 0.2933 0.2653 0.1240
C13_2 C 0.26687(11) 0.44450(15) 0.14799(12)
H6_2 H 0.2583 0.3918 0.1753
C14_2 C 0.46429(9) 0.95495(16) 0.04089(12)
C18_2 C 0.10541(9) 0.81466(18) 0.06871(12)
H7_2 H 0.1202 0.8079 0.0248
C19_2 C 0.27766(10) 0.53121(16) 0.18347(12)
H8_2 H 0.2776 0.5349 0.2356
C21_2 C 0.05067(9) 0.8267(2) 0.06273(13)
H10_2 H 0.0290 0.8278 0.0151
C23_2 C 0.02893(9) 0.8370(2) 0.12687(13)
C24_2 C 0.11556(9) 0.8238(2) 0.20310(13)
H12_2 H 0.1371 0.8224 0.2509
C26_2 C 0.40061(9) 0.81287(19) 0.18128(14)
H14_2 H 0.4113 0.7803 0.2268
C27_2 C 0.43894(10) 0.85778(19) 0.14854(14)
H15_2 H 0.4745 0.8552 0.1719
C30_2 C 0.06142(10) 0.8371(3) 0.19777(13)
H20_2 H 0.0467 0.8460 0.2415
O9_2 O 0.28557(8) 0.08791(11) 0.08211(9)
C46_2 C 0.26757(9) 0.16914(14) 0.04258(12)
C50_2 C 0.31235(14) 0.0973(2) 0.15733(14)
H38_2 H 0.2900 0.1307 0.1868
H39_2 H 0.3206 0.0349 0.1788
H40_2 H 0.3448 0.1325 0.1579
O16 O 0.32921(7) 0.68595(14) 0.30270(9)
O4 O 0.82921(7) 0.81405(14) 0.80270(9)
O5_2 O 0.84124(8) 0.66218(15) 0.82945(11)
C16_2 C 0.84630(10) 0.7471(2) 0.84727(14)
C17_2 C 0.87638(9) 0.77654(19) 0.92475(12)
C25_2 C 0.89870(11) 0.7065(2) 0.97460(15)
H13_2 H 0.8922 0.6422 0.9629
C32_2 C 0.88448(10) 0.8705(2) 0.94457(14)
H24_2 H 0.8681 0.9179 0.9120
Zn5 Zn 0.795871(9) 0.760348(15) 0.704165(12)
N4 N 0.78824(7) 0.88912(11) 0.64698(9)
C44_2 C 0.79028(9) 0.89687(15) 0.57274(11)
H33_2 H 0.7982 0.8427 0.5465
C45_2 C 0.78113(9) 0.98211(14) 0.53337(11)
H34_2 H 0.7832 0.9845 0.4818
C49_2 C 0.77766(10) 0.96879(16) 0.68347(12)
H37_2 H 0.7776 0.9651 0.7356
O6_2 O 0.98548(8) 0.50964(15) 0.34332(9)
C15_2 C 0.99103(10) 0.50415(17) 0.42089(12)
C29_2 C 0.93624(14) 0.5469(3) 0.30223(15)
H17_2 H 0.9068 0.5133 0.3172
H18_2 H 0.9354 0.5387 0.2486
H19_2 H 0.9336 0.6138 0.3134
N3_2 N 0.84858(6) 0.68660(12) 0.65119(9)
C33_2 C 0.92462(9) 0.59304(15) 0.58077(12)
C34_2 C 0.83441(9) 0.63887(16) 0.58644(12)
H25_2 H 0.7985 0.6372 0.5645
C35_2 C 0.87061(9) 0.59178(17) 0.55040(13)
H26_2 H 0.8588 0.5589 0.5053
C36_2 C 0.96429(9) 0.54505(16) 0.54089(12)
C38_2 C 0.95611(9) 0.54748(17) 0.46191(12)
H27_2 H 0.9263 0.5791 0.4358
C39_2 C 0.90061(9) 0.68713(19) 0.68128(14)
H28_2 H 0.9113 0.7197 0.7268
C40_2 C 0.93894(10) 0.64222(19) 0.64854(14)
H29_2 H 0.9745 0.6448 0.6719
O10_2 O 0.72407(6) 0.71621(12) 0.71163(8)
C51_2 C 0.69709(8) 0.70499(15) 0.64451(12)
C52_2 C 0.44030(10) 0.6736(3) 0.55905(13)
O11_2 O 0.71708(6) 0.71055(14) 0.58631(10)
O13_2 O 0.34124(8) 0.83782(15) 0.32945(11)
C53_2 C 0.63827(8) 0.68737(16) 0.63937(12)
C54_2 C 0.34630(10) 0.7529(2) 0.34727(14)
C55_2 C 0.37638(9) 0.72346(19) 0.42475(12)
C56_2 C 0.60541(9) 0.68534(18) 0.56871(12)
H41_2 H 0.6202 0.6921 0.5248
O14_2 O 0.47482(7) 0.64868(18) 0.62621(9)
C57_2 C 0.55067(9) 0.6733(2) 0.56273(13)
H42_2 H 0.5290 0.6722 0.5151
C58_2 C 0.43093(12) 0.7673(3) 0.54243(16)
H43_2 H 0.4461 0.8141 0.5765
C59_2 C 0.52893(9) 0.6630(2) 0.62687(13)
C60_2 C 0.61556(9) 0.6762(2) 0.70310(13)
H44_2 H 0.6371 0.6776 0.7509
C61_2 C 0.39870(11) 0.7935(2) 0.47460(15)
H45_2 H 0.3922 0.8578 0.4629
C62_2 C 0.41666(11) 0.6034(2) 0.51226(15)
H46_2 H 0.4220 0.5393 0.5254
C63_2 C 0.56142(10) 0.6629(3) 0.69777(13)
H47_2 H 0.5467 0.6540 0.7415
C64_2 C 0.38448(10) 0.6295(2) 0.44457(14)
H48_2 H 0.3681 0.5821 0.4120
O3_2 O 0.21443(8) 0.41209(11) 0.91789(9)
H2_2 H 0.2832 0.5155 0.9818
C11_2 C 0.23243(9) 0.33086(14) 0.95742(12)
C20_2 C 0.45611(9) 0.95252(17) 0.96191(12)
H9_2 H 0.4263 0.9209 0.9358
C31_2 C 0.18765(14) 0.4027(2) 0.84267(14)
H21_2 H 0.2100 0.3693 0.8132
H22_2 H 0.1794 0.4651 0.8212
H23_2 H 0.1552 0.3675 0.8421
O8_2 O 0.48548(8) 0.99036(15) 0.84332(9)
C37_2 C 0.49103(10) 0.99585(17) 0.92089(12)
C41_2 C 0.43624(14) 0.9531(3) 0.80223(15)
H30_2 H 0.4068 0.9867 0.8172
H31_2 H 0.4354 0.9613 0.7486
H32_2 H 0.4336 0.8862 0.8134
C42_2 C 0.23116(8) 0.06377(14) 0.92941(11)
C43_2 C 0.24136(9) 0.15804(14) 0.96758(11)
C47_2 C 0.22419(10) 0.24072(14) 0.92611(12)
H35_2 H 0.2067 0.2347 0.8760
C48_2 C 0.23313(11) 0.05550(15) 0.85201(12)
H36_2 H 0.2417 0.1082 0.8247
H34_3 H 0.2168 0.9845 0.0182
Zn1_2 Zn 0.704129(9) 0.739652(15) 0.295835(12)
O1_3 O 0.77593(6) 0.78379(12) 0.28837(8)
N1_3 N 0.65142(6) 0.81340(12) 0.34881(9)
C1_3 C 0.80291(8) 0.79501(15) 0.35549(12)
N2_3 N 0.71176(7) 0.61088(11) 0.35302(9)
C2_3 C 0.73116(8) 0.43623(14) 0.42941(11)
O2_3 O 0.78292(6) 0.78945(14) 0.41369(10)
O3_3 O 0.78557(8) 0.41209(11) 0.58211(9)
C4_3 C 0.74136(9) 0.34196(14) 0.46758(11)
C5_3 C 0.70972(9) 0.60313(15) 0.42726(11)
H1_3 H 0.7018 0.6573 0.4535
C6_3 C 0.71887(9) 0.51789(14) 0.46663(11)
H2_3 H 0.7168 0.5155 0.5182
C7_3 C 0.86173(8) 0.81263(16) 0.36063(12)
C8_3 C 0.57538(9) 0.90696(15) 0.41923(12)
C9_3 C 0.66559(9) 0.86113(16) 0.41356(12)
H3_3 H 0.7015 0.8628 0.4355
C10_3 C 0.62939(9) 0.90822(17) 0.44960(13)
H4_3 H 0.6412 0.9411 0.4947
C11_3 C 0.76757(9) 0.33086(14) 0.54258(12)
C12_3 C 0.72419(10) 0.25928(14) 0.42611(12)
H5_3 H 0.7067 0.2653 0.3760
C13_3 C 0.73313(11) 0.44450(15) 0.35201(12)
H6_3 H 0.7417 0.3918 0.3247
C14_3 C 0.53571(9) 0.95495(16) 0.45911(12)
C18_3 C 0.89459(9) 0.81466(18) 0.43129(12)
H7_3 H 0.8798 0.8079 0.4752
C19_3 C 0.72234(10) 0.53121(16) 0.31653(12)
H8_3 H 0.7224 0.5349 0.2644
C20_3 C 0.54389(9) 0.95252(17) 0.53809(12)
H9_3 H 0.5737 0.9209 0.5642
C21_3 C 0.94933(9) 0.8267(2) 0.43727(13)
H10_3 H 0.9710 0.8278 0.4849
C23_3 C 0.97107(9) 0.8370(2) 0.37313(13)
C24_3 C 0.88444(9) 0.8238(2) 0.29690(13)
H12_3 H 0.8629 0.8224 0.2491
C26_3 C 0.59939(9) 0.81287(19) 0.31872(14)
H14_3 H 0.5887 0.7803 0.2732
C27_3 C 0.56106(10) 0.85778(19) 0.35146(14)
H15_3 H 0.5255 0.8552 0.3281
C30_3 C 0.93858(10) 0.8371(3) 0.30223(13)
H20_3 H 0.9533 0.8460 0.2585
C31_3 C 0.81235(14) 0.4027(2) 0.65733(14)
H21_3 H 0.7900 0.3693 0.6868
H22_3 H 0.8206 0.4651 0.6788
H23_3 H 0.8448 0.3675 0.6579
O8_3 O 0.51452(8) 0.99036(15) 0.65668(9)
C37_3 C 0.50897(10) 0.99585(17) 0.57911(12)
C41_3 C 0.56376(14) 0.9531(3) 0.69777(15)
H30_3 H 0.5932 0.9867 0.6828
H31_3 H 0.5646 0.9613 0.7514
H32_3 H 0.5664 0.8862 0.6866
C42_3 C 0.76884(8) 0.06377(14) 0.57059(11)
O9_3 O 0.71443(8) 0.08791(11) 0.41789(9)
C43_3 C 0.75864(9) 0.15804(14) 0.53242(11)
C46_3 C 0.73243(9) 0.16914(14) 0.45742(12)
C47_3 C 0.77581(10) 0.24072(14) 0.57389(12)
H35_3 H 0.7933 0.2347 0.6240
C48_3 C 0.76687(11) 0.05550(15) 0.64799(12)
H36_3 H 0.7583 0.1082 0.6753
C50_3 C 0.68765(14) 0.0973(2) 0.34267(14)
H38_3 H 0.7100 0.1307 0.3132
H39_3 H 0.6794 0.0349 0.3212
H40_3 H 0.6552 0.1325 0.3421
O16_2 O 0.67079(7) 0.68595(14) 0.19730(9)
O6_3 O 0.01452(8) 0.50964(15) 0.15668(9)
C15_3 C 0.00897(10) 0.50415(17) 0.07911(12)
C29_3 C 0.06376(14) 0.5469(3) 0.19777(15)
H17_3 H 0.0932 0.5133 0.1828
H18_3 H 0.0646 0.5387 0.2514
H19_3 H 0.0664 0.6138 0.1866
C38_3 C 0.04389(9) 0.54748(17) 0.03809(12)
H27_3 H 0.0737 0.5791 0.0642
O13_3 O 0.65876(8) 0.83782(15) 0.17055(11)
C54_3 C 0.65370(10) 0.7529(2) 0.15273(14)
C55_3 C 0.62362(9) 0.72346(19) 0.07525(12)
C61_3 C 0.60130(11) 0.7935(2) 0.02540(15)
H45_3 H 0.6078 0.8578 0.0371
C64_3 C 0.61552(10) 0.6295(2) 0.05543(14)
H48_3 H 0.6319 0.5821 0.0880
N4_2 N 0.21176(7) 0.88912(11) 0.85302(9)
C44_3 C 0.20972(9) 0.89687(15) 0.92726(11)
H33_3 H 0.2018 0.8427 0.9535
C45_3 C 0.21887(9) 0.98211(14) 0.96663(11)
C49_3 C 0.22234(10) 0.96879(16) 0.81653(12)
H37_3 H 0.2224 0.9651 0.7644
Zn4 Zn 0.204129(9) 0.760348(15) 0.795835(12)
C3_2 C 0.05970(10) 0.8264(3) 0.44095(13)
O4_2 O 0.17079(7) 0.81405(14) 0.69730(9)
O5_3 O 0.15876(8) 0.66218(15) 0.67055(11)
C16_3 C 0.15370(10) 0.7471(2) 0.65273(14)
C17_3 C 0.12362(9) 0.77654(19) 0.57525(12)
O7_2 O 0.02518(7) 0.85132(18) 0.37379(9)
C22_2 C 0.06907(12) 0.7327(3) 0.45757(16)
H11_2 H 0.0539 0.6859 0.4235
C25_3 C 0.10130(11) 0.7065(2) 0.52540(15)
H13_3 H 0.1078 0.6422 0.5371
C28_2 C 0.08334(11) 0.8966(2) 0.48774(15)
H16_2 H 0.0780 0.9607 0.4746
C32_3 C 0.11552(10) 0.8705(2) 0.55543(14)
H24_3 H 0.1319 0.9179 0.5880
N3_3 N 0.15142(6) 0.68660(12) 0.84881(9)
C33_3 C 0.07538(9) 0.59304(15) 0.91923(12)
C34_3 C 0.16559(9) 0.63887(16) 0.91356(12)
H25_3 H 0.2015 0.6372 0.9355
C35_3 C 0.12939(9) 0.59178(17) 0.94960(13)
H26_3 H 0.1412 0.5589 0.9947
C36_3 C 0.03571(9) 0.54505(16) 0.95911(12)
C39_3 C 0.09939(9) 0.68713(19) 0.81872(14)
H28_3 H 0.0887 0.7197 0.7732
C40_3 C 0.06106(10) 0.64222(19) 0.85146(14)
H29_3 H 0.0255 0.6448 0.8281
O10_3 O 0.27593(6) 0.71621(12) 0.78837(8)
C51_3 C 0.30291(8) 0.70499(15) 0.85549(12)
C52_3 C 0.55970(10) 0.6736(3) 0.94095(13)
O11_3 O 0.28292(6) 0.71055(14) 0.91369(10)
C53_3 C 0.36173(8) 0.68737(16) 0.86063(12)
C56_3 C 0.39459(9) 0.68534(18) 0.93129(12)
H41_3 H 0.3798 0.6921 0.9752
O14_3 O 0.52518(7) 0.64868(18) 0.87379(9)
C57_3 C 0.44933(9) 0.6733(2) 0.93727(13)
H42_3 H 0.4710 0.6722 0.9849
C58_3 C 0.56907(12) 0.7673(3) 0.95757(16)
H43_3 H 0.5539 0.8141 0.9235
C59_3 C 0.47107(9) 0.6630(2) 0.87313(13)
C60_3 C 0.38444(9) 0.6762(2) 0.79690(13)
H44_3 H 0.3629 0.6776 0.7491
C62_3 C 0.58334(11) 0.6034(2) 0.98774(15)
H46_3 H 0.5780 0.5393 0.9746
C63_3 C 0.43858(10) 0.6629(3) 0.80223(13)
H47_3 H 0.4533 0.6540 0.7585
C3_3 C 0.94030(10) 0.8264(3) 0.05905(13)
O7_3 O 0.97482(7) 0.85132(18) 0.12621(9)
C22_3 C 0.93093(12) 0.7327(3) 0.04243(16)
H11_3 H 0.9461 0.6859 0.0765
C28_3 C 0.91666(11) 0.8966(2) 0.01226(15)
H16_3 H 0.9220 0.9607 0.0254
O6_4 O 0.48548(8) 0.00964(15) 0.34332(9)
C15_4 C 0.49103(10) 0.00415(17) 0.42089(12)
C29_4 C 0.43624(14) 0.0469(3) 0.30223(15)
H17_4 H 0.4068 0.0133 0.3172
H18_4 H 0.4354 0.0387 0.2486
H19_4 H 0.4336 0.1138 0.3134
N3_4 N 0.34858(6) 0.18660(12) 0.65119(9)
C33_4 C 0.42462(9) 0.09304(15) 0.58077(12)
C34_4 C 0.33441(9) 0.13887(16) 0.58644(12)
H25_4 H 0.2985 0.1372 0.5645
C35_4 C 0.37061(9) 0.09178(17) 0.55040(13)
H26_4 H 0.3588 0.0589 0.5053
C36_4 C 0.46429(9) 0.04505(16) 0.54089(12)
C38_4 C 0.45611(9) 0.04748(17) 0.46191(12)
H27_4 H 0.4263 0.0791 0.4358
C39_4 C 0.40061(9) 0.18713(19) 0.68128(14)
H28_4 H 0.4113 0.2197 0.7268
C40_4 C 0.43894(10) 0.14222(19) 0.64854(14)
H29_4 H 0.4745 0.1448 0.6719
Zn2_2 Zn 0.295871(9) 0.260348(15) 0.704165(12)
O10_4 O 0.22407(6) 0.21621(12) 0.71163(8)
C51_4 C 0.19709(8) 0.20499(15) 0.64451(12)
O11_4 O 0.21708(6) 0.21055(14) 0.58631(10)
C53_4 C 0.13827(8) 0.18737(16) 0.63937(12)
C56_4 C 0.10541(9) 0.18534(18) 0.56871(12)
H41_4 H 0.1202 0.1921 0.5248
C57_4 C 0.05067(9) 0.1733(2) 0.56273(13)
H42_4 H 0.0290 0.1722 0.5151
C59_4 C 0.02893(9) 0.1630(2) 0.62687(13)
C60_4 C 0.11556(9) 0.1762(2) 0.70310(13)
H44_4 H 0.1371 0.1776 0.7509
C63_4 C 0.06142(10) 0.1629(3) 0.69777(13)
H47_4 H 0.0467 0.1540 0.7415
N5_2 N 0.28824(7) 0.38912(11) 0.64698(9)
O15_2 O 0.32921(7) 0.31405(14) 0.80270(9)
O5_4 O 0.34124(8) 0.16218(15) 0.82945(11)
H2_4 H 0.7832 0.0155 0.9818
C16_4 C 0.34630(10) 0.2471(2) 0.84727(14)
C17_4 C 0.37638(9) 0.27654(19) 0.92475(12)
C20_4 C 0.95611(9) 0.45252(17) 0.96191(12)
H9_4 H 0.9263 0.4209 0.9358
C25_4 C 0.39870(11) 0.2065(2) 0.97460(15)
H13_4 H 0.3922 0.1422 0.9629
C32_4 C 0.38448(10) 0.3705(2) 0.94457(14)
H24_4 H 0.3681 0.4179 0.9120
O8_4 O 0.98548(8) 0.49036(15) 0.84332(9)
C37_4 C 0.99103(10) 0.49585(17) 0.92089(12)
C41_4 C 0.93624(14) 0.4531(3) 0.80223(15)
H30_4 H 0.9068 0.4867 0.8172
H31_4 H 0.9354 0.4613 0.7486
H32_4 H 0.9336 0.3862 0.8134
C2_4 C 0.23116(8) 0.93623(14) 0.42941(11)
O3_4 O 0.28557(8) 0.91209(11) 0.58211(9)
C4_4 C 0.24136(9) 0.84196(14) 0.46758(11)
C11_4 C 0.26757(9) 0.83086(14) 0.54258(12)
C12_4 C 0.22419(10) 0.75928(14) 0.42611(12)
H5_4 H 0.2067 0.7653 0.3760
C13_4 C 0.23313(11) 0.94450(15) 0.35201(12)
H6_4 H 0.2417 0.8918 0.3247
C31_4 C 0.31235(14) 0.9027(2) 0.65733(14)
H21_4 H 0.2900 0.8693 0.6868
H22_4 H 0.3206 0.9651 0.6788
H23_4 H 0.3448 0.8675 0.6579
C42_4 C 0.26884(8) 0.56377(14) 0.57059(11)
O9_4 O 0.21443(8) 0.58791(11) 0.41789(9)
C43_4 C 0.25864(9) 0.65804(14) 0.53242(11)
C44_4 C 0.29028(9) 0.39687(15) 0.57274(11)
H33_4 H 0.2982 0.3427 0.5465
C45_4 C 0.28113(9) 0.48211(14) 0.53337(11)
H34_4 H 0.2832 0.4845 0.4818
C46_4 C 0.23243(9) 0.66914(14) 0.45742(12)
C47_4 C 0.27581(10) 0.74072(14) 0.57389(12)
H35_4 H 0.2933 0.7347 0.6240
C48_4 C 0.26687(11) 0.55550(15) 0.64799(12)
H36_4 H 0.2583 0.6082 0.6753
C49_4 C 0.27766(10) 0.46879(16) 0.68347(12)
H37_4 H 0.2776 0.4651 0.7356
C50_4 C 0.18765(14) 0.5973(2) 0.34267(14)
H38_4 H 0.2100 0.6307 0.3132
H39_4 H 0.1794 0.5349 0.3212
H40_4 H 0.1552 0.6325 0.3421
C52_4 C 0.94030(10) 0.1736(3) 0.55905(13)
O12_2 O 0.82921(7) 0.18595(14) 0.30270(9)
O13_4 O 0.84124(8) 0.33782(15) 0.32945(11)
C54_4 C 0.84630(10) 0.2529(2) 0.34727(14)
C55_4 C 0.87638(9) 0.22346(19) 0.42475(12)
O14_4 O 0.97482(7) 0.14868(18) 0.62621(9)
C58_4 C 0.93093(12) 0.2673(3) 0.54243(16)
H43_4 H 0.9461 0.3141 0.5765
C61_4 C 0.89870(11) 0.2935(2) 0.47460(15)
H45_4 H 0.8922 0.3578 0.4629
C62_4 C 0.91666(11) 0.1034(2) 0.51226(15)
H46_4 H 0.9220 0.0393 0.5254
C64_4 C 0.88448(10) 0.1295(2) 0.44457(14)
H48_4 H 0.8681 0.0821 0.4120
Zn3_2 Zn 0.795871(9) 0.239652(15) 0.204165(12)
O1_4 O 0.72407(6) 0.28379(12) 0.21163(8)
N1_4 N 0.84858(6) 0.31340(12) 0.15119(9)
C1_4 C 0.69709(8) 0.29501(15) 0.14451(12)
N2_4 N 0.78824(7) 0.11088(11) 0.14698(9)
C3_4 C 0.44030(10) 0.3264(3) 0.05905(13)
O2_4 O 0.71708(6) 0.28945(14) 0.08631(10)
C5_4 C 0.79028(9) 0.10313(15) 0.07274(11)
H1_4 H 0.7982 0.1573 0.0465
C6_4 C 0.78113(9) 0.01789(14) 0.03337(11)
C7_4 C 0.63827(8) 0.31263(16) 0.13937(12)
C8_4 C 0.92462(9) 0.40696(15) 0.08077(12)
C9_4 C 0.83441(9) 0.36113(16) 0.08644(12)
H3_4 H 0.7985 0.3628 0.0645
C10_4 C 0.87061(9) 0.40822(17) 0.05040(13)
H4_4 H 0.8588 0.4411 0.0053
C14_4 C 0.96429(9) 0.45495(16) 0.04089(12)
C18_4 C 0.60541(9) 0.31466(18) 0.06871(12)
H7_4 H 0.6202 0.3079 0.0248
C19_4 C 0.77766(10) 0.03121(16) 0.18347(12)
H8_4 H 0.7776 0.0349 0.2356
O7_4 O 0.47482(7) 0.35132(18) 0.12621(9)
C21_4 C 0.55067(9) 0.3267(2) 0.06273(13)
H10_4 H 0.5290 0.3278 0.0151
C22_4 C 0.43093(12) 0.2327(3) 0.04243(16)
H11_4 H 0.4461 0.1859 0.0765
C23_4 C 0.52893(9) 0.3370(2) 0.12687(13)
C24_4 C 0.61556(9) 0.3238(2) 0.20310(13)
H12_4 H 0.6371 0.3224 0.2509
C26_4 C 0.90061(9) 0.31287(19) 0.18128(14)
H14_4 H 0.9113 0.2803 0.2268
C27_4 C 0.93894(10) 0.35778(19) 0.14854(14)
H15_4 H 0.9745 0.3552 0.1719
C28_4 C 0.41666(11) 0.3966(2) 0.01226(15)
H16_4 H 0.4220 0.4607 0.0254
C30_4 C 0.56142(10) 0.3371(3) 0.19777(13)
H20_4 H 0.5467 0.3460 0.2415
loop_
_geom_bond_atom_site_label_1
_geom_bond_atom_site_label_2
_geom_bond_site_symmetry_1
_geom_bond_site_symmetry_2
O12 C54 1_555 1_555
O13 C54 1_555 1_555
C54 C55 1_555 1_555
C55 C61 1_555 1_555
H45 C61 1_555 1_555
C64 C55 1_555 1_555
H48 C64 1_555 1_555
Zn3 O12 1_555 1_555
N3 C34 1_555 1_555
C33 C35 1_555 1_555
C34 H25 1_555 1_555
C35 C34 1_555 1_555
H26 C35 1_555 1_555
C36 C33 1_555 1_555
C39 N3 1_555 1_555
H28 C39 1_555 1_555
C40 C33 1_555 1_555
H29 C40 1_555 1_555
Zn2 N3 1_555 1_555
O10 Zn2 1_555 1_555
C51 O10 1_555 1_555
O11 C51 1_555 1_555
C53 C51 1_555 1_555
C56 C53 1_555 1_555
H41 C56 1_555 1_555
C57 C56 1_555 1_555
H42 C57 1_555 1_555
C59 C57 1_555 1_555
C60 C53 1_555 1_555
H44 C60 1_555 1_555
C63 C59 1_555 1_555
H47 C63 1_555 1_555
N5 Zn2 1_555 1_555
O15 Zn2 1_555 1_555
C39 C40 1_555 1_555
C60 C63 1_555 1_555
O3 C11 1_555 1_555
C11 C47 1_555 1_555
C31 O3 1_555 1_555
H21 C31 1_555 1_555
H22 C31 1_555 1_555
H23 C31 1_555 1_555
N5 C44 1_555 1_555
C42 C43 1_555 1_555
C44 H33 1_555 1_555
C45 C42 1_555 1_555
C47 C43 1_555 1_555
H35 C47 1_555 1_555
C48 C42 1_555 1_555
H36 C48 1_555 1_555
C49 N5 1_555 1_555
H37 C49 1_555 1_555
C44 C45 1_555 1_555
C48 C49 1_555 1_555
Zn3 O1 1_555 1_555
O1 C1 1_555 1_555
N1 Zn3 1_555 1_555
C1 O2 1_555 1_555
N2 Zn3 1_555 1_555
C3 O7 1_555 1_555
O15 C16 1_555 1_555
C5 N2 1_555 1_555
H1 C5 1_555 1_555
O5 C16 1_555 1_555
H2 C6 1_555 1_555
C7 C1 1_555 1_555
C8 C10 1_555 1_555
C9 N1 1_555 1_555
H3 C9 1_555 1_555
C10 C9 1_555 1_555
H4 C10 1_555 1_555
C14 C8 1_555 1_555
C16 C17 1_555 1_555
C17 C25 1_555 1_555
C18 C7 1_555 1_555
H7 C18 1_555 1_555
C19 N2 1_555 1_555
H8 C19 1_555 1_555
C20 C14 1_555 1_555
H9 C20 1_555 1_555
O7 C23 1_555 1_555
C21 C18 1_555 1_555
H10 C21 1_555 1_555
C22 C3 1_555 1_555
H11 C22 1_555 1_555
C23 C21 1_555 1_555
C24 C7 1_555 1_555
H12 C24 1_555 1_555
C25 C22 1_555 1_555
H13 C25 1_555 1_555
C26 N1 1_555 1_555
H14 C26 1_555 1_555
C27 C8 1_555 1_555
H15 C27 1_555 1_555
C28 C3 1_555 1_555
H16 C28 1_555 1_555
C30 C23 1_555 1_555
H20 C30 1_555 1_555
C32 C17 1_555 1_555
H24 C32 1_555 1_555
O8 C37 1_555 1_555
C37 C20 1_555 1_555
C41 O8 1_555 1_555
H30 C41 1_555 1_555
H31 C41 1_555 1_555
H32 C41 1_555 1_555
C5 C6 1_555 1_555
C24 C30 1_555 1_555
C26 C27 1_555 1_555
C28 C32 1_555 1_555
C52 O14 1_555 1_555
C58 C52 1_555 1_555
H43 C58 1_555 1_555
C62 C52 1_555 1_555
H46 C62 1_555 1_555
O6 C15 1_555 1_555
C29 O6 1_555 1_555
H17 C29 1_555 1_555
H18 C29 1_555 1_555
H19 C29 1_555 1_555
C38 C15 1_555 1_555
H27 C38 1_555 1_555
C2 C4 1_555 1_555
C12 C4 1_555 1_555
H5 C12 1_555 1_555
C13 C2 1_555 1_555
H6 C13 1_555 1_555
O9 C46 1_555 1_555
C46 C12 1_555 1_555
C50 O9 1_555 1_555
H38 C50 1_555 1_555
H39 C50 1_555 1_555
H40 C50 1_555 1_555
Zn1 O1_2 1_555 1_555
O1_2 C1_2 1_555 1_555
N1_2 Zn1 1_555 1_555
C1_2 O2_2 1_555 1_555
N2_2 Zn1 1_555 1_555
C2_2 C4_2 1_555 1_555
C5_2 N2_2 1_555 1_555
H1_2 C5_2 1_555 1_555
C6_2 C2_2 1_555 1_555
C7_2 C1_2 1_555 1_555
C8_2 C10_2 1_555 1_555
C9_2 N1_2 1_555 1_555
H3_2 C9_2 1_555 1_555
C10_2 C9_2 1_555 1_555
H4_2 C10_2 1_555 1_555
C12_2 C4_2 1_555 1_555
H5_2 C12_2 1_555 1_555
C13_2 C2_2 1_555 1_555
H6_2 C13_2 1_555 1_555
C14_2 C8_2 1_555 1_555
C18_2 C7_2 1_555 1_555
H7_2 C18_2 1_555 1_555
C19_2 N2_2 1_555 1_555
H8_2 C19_2 1_555 1_555
C21_2 C18_2 1_555 1_555
H10_2 C21_2 1_555 1_555
C23_2 C21_2 1_555 1_555
C24_2 C7_2 1_555 1_555
H12_2 C24_2 1_555 1_555
C26_2 N1_2 1_555 1_555
H14_2 C26_2 1_555 1_555
C27_2 C8_2 1_555 1_555
H15_2 C27_2 1_555 1_555
C30_2 C23_2 1_555 1_555
H20_2 C30_2 1_555 1_555
O9_2 C46_2 1_555 1_555
C46_2 C12_2 1_555 1_555
C50_2 O9_2 1_555 1_555
H38_2 C50_2 1_555 1_555
H39_2 C50_2 1_555 1_555
H40_2 C50_2 1_555 1_555
O16 Zn1 1_555 1_555
C5_2 C6_2 1_555 1_555
C13_2 C19_2 1_555 1_555
C24_2 C30_2 1_555 1_555
C26_2 C27_2 1_555 1_555
O4 C16_2 1_555 1_555
O5_2 C16_2 1_555 1_555
C16_2 C17_2 1_555 1_555
C17_2 C25_2 1_555 1_555
H13_2 C25_2 1_555 1_555
C32_2 C17_2 1_555 1_555
H24_2 C32_2 1_555 1_555
Zn5 O4 1_555 1_555
N4 C44_2 1_555 1_555
C44_2 H33_2 1_555 1_555
H34_2 C45_2 1_555 1_555
C49_2 N4 1_555 1_555
H37_2 C49_2 1_555 1_555
Zn5 N4 1_555 1_555
C44_2 C45_2 1_555 1_555
O6_2 C15_2 1_555 1_555
C29_2 O6_2 1_555 1_555
H17_2 C29_2 1_555 1_555
H18_2 C29_2 1_555 1_555
H19_2 C29_2 1_555 1_555
N3_2 C34_2 1_555 1_555
C33_2 C35_2 1_555 1_555
C34_2 H25_2 1_555 1_555
C35_2 C34_2 1_555 1_555
H26_2 C35_2 1_555 1_555
C36_2 C33_2 1_555 1_555
C38_2 C15_2 1_555 1_555
H27_2 C38_2 1_555 1_555
C39_2 N3_2 1_555 1_555
H28_2 C39_2 1_555 1_555
C40_2 C33_2 1_555 1_555
H29_2 C40_2 1_555 1_555
Zn5 N3_2 1_555 1_555
O10_2 Zn5 1_555 1_555
C51_2 O10_2 1_555 1_555
C52_2 O14_2 1_555 1_555
O11_2 C51_2 1_555 1_555
O16 C54_2 1_555 1_555
O13_2 C54_2 1_555 1_555
C53_2 C51_2 1_555 1_555
C54_2 C55_2 1_555 1_555
C55_2 C61_2 1_555 1_555
C56_2 C53_2 1_555 1_555
H41_2 C56_2 1_555 1_555
O14_2 C59_2 1_555 1_555
C57_2 C56_2 1_555 1_555
H42_2 C57_2 1_555 1_555
C58_2 C52_2 1_555 1_555
H43_2 C58_2 1_555 1_555
C59_2 C57_2 1_555 1_555
C60_2 C53_2 1_555 1_555
H44_2 C60_2 1_555 1_555
C61_2 C58_2 1_555 1_555
H45_2 C61_2 1_555 1_555
C62_2 C52_2 1_555 1_555
H46_2 C62_2 1_555 1_555
C63_2 C59_2 1_555 1_555
H47_2 C63_2 1_555 1_555
C64_2 C55_2 1_555 1_555
H48_2 C64_2 1_555 1_555
C36_2 C38_2 1_555 1_555
C39_2 C40_2 1_555 1_555
C60_2 C63_2 1_555 1_555
C62_2 C64_2 1_555 1_555
O3_2 C11_2 1_555 1_555
C11_2 C47_2 1_555 1_555
H9_2 C20_2 1_555 1_555
C31_2 O3_2 1_555 1_555
H21_2 C31_2 1_555 1_555
H22_2 C31_2 1_555 1_555
H23_2 C31_2 1_555 1_555
O8_2 C37_2 1_555 1_555
C37_2 C20_2 1_555 1_555
C41_2 O8_2 1_555 1_555
H30_2 C41_2 1_555 1_555
H31_2 C41_2 1_555 1_555
H32_2 C41_2 1_555 1_555
C42_2 C43_2 1_555 1_555
C47_2 C43_2 1_555 1_555
H35_2 C47_2 1_555 1_555
C48_2 C42_2 1_555 1_555
H36_2 C48_2 1_555 1_555
Zn1_2 O1_3 1_555 1_555
O1_3 C1_3 1_555 1_555
N1_3 Zn1_2 1_555 1_555
C1_3 O2_3 1_555 1_555
N2_3 Zn1_2 1_555 1_555
C2_3 C4_3 1_555 1_555
O3_3 C11_3 1_555 1_555
C4_3 C11_3 1_555 1_555
C5_3 N2_3 1_555 1_555
H1_3 C5_3 1_555 1_555
C6_3 C2_3 1_555 1_555
H2_3 C6_3 1_555 1_555
C7_3 C1_3 1_555 1_555
C8_3 C10_3 1_555 1_555
C9_3 N1_3 1_555 1_555
H3_3 C9_3 1_555 1_555
C10_3 C9_3 1_555 1_555
H4_3 C10_3 1_555 1_555
C11_3 C47_3 1_555 1_555
C12_3 C4_3 1_555 1_555
H5_3 C12_3 1_555 1_555
C13_3 C2_3 1_555 1_555
H6_3 C13_3 1_555 1_555
C14_3 C8_3 1_555 1_555
C18_3 C7_3 1_555 1_555
H7_3 C18_3 1_555 1_555
C19_3 N2_3 1_555 1_555
H8_3 C19_3 1_555 1_555
C20_3 C14_3 1_555 1_555
H9_3 C20_3 1_555 1_555
C21_3 C18_3 1_555 1_555
H10_3 C21_3 1_555 1_555
C23_3 C21_3 1_555 1_555
C24_3 C7_3 1_555 1_555
H12_3 C24_3 1_555 1_555
C26_3 N1_3 1_555 1_555
H14_3 C26_3 1_555 1_555
C27_3 C8_3 1_555 1_555
H15_3 C27_3 1_555 1_555
C30_3 C23_3 1_555 1_555
H20_3 C30_3 1_555 1_555
C31_3 O3_3 1_555 1_555
H21_3 C31_3 1_555 1_555
H22_3 C31_3 1_555 1_555
H23_3 C31_3 1_555 1_555
O8_3 C37_3 1_555 1_555
C37_3 C20_3 1_555 1_555
C41_3 O8_3 1_555 1_555
H30_3 C41_3 1_555 1_555
H31_3 C41_3 1_555 1_555
H32_3 C41_3 1_555 1_555
C42_3 C43_3 1_555 1_555
O9_3 C46_3 1_555 1_555
C43_3 C46_3 1_555 1_555
C46_3 C12_3 1_555 1_555
C47_3 C43_3 1_555 1_555
H35_3 C47_3 1_555 1_555
C48_3 C42_3 1_555 1_555
H36_3 C48_3 1_555 1_555
C50_3 O9_3 1_555 1_555
H38_3 C50_3 1_555 1_555
H39_3 C50_3 1_555 1_555
H40_3 C50_3 1_555 1_555
O16_2 Zn1_2 1_555 1_555
C5_3 C6_3 1_555 1_555
C13_3 C19_3 1_555 1_555
C24_3 C30_3 1_555 1_555
C26_3 C27_3 1_555 1_555
O6_3 C15_3 1_555 1_555
C29_3 O6_3 1_555 1_555
H17_3 C29_3 1_555 1_555
H18_3 C29_3 1_555 1_555
H19_3 C29_3 1_555 1_555
C38_3 C15_3 1_555 1_555
H27_3 C38_3 1_555 1_555
O16_2 C54_3 1_555 1_555
O13_3 C54_3 1_555 1_555
C54_3 C55_3 1_555 1_555
C55_3 C61_3 1_555 1_555
H45_3 C61_3 1_555 1_555
C64_3 C55_3 1_555 1_555
H48_3 C64_3 1_555 1_555
N4_2 C44_3 1_555 1_555
C44_3 H33_3 1_555 1_555
C49_3 N4_2 1_555 1_555
H37_3 C49_3 1_555 1_555
Zn4 N4_2 1_555 1_555
C44_3 C45_3 1_555 1_555
C3_2 O7_2 1_555 1_555
O4_2 C16_3 1_555 1_555
O5_3 C16_3 1_555 1_555
C16_3 C17_3 1_555 1_555
C17_3 C25_3 1_555 1_555
C22_2 C3_2 1_555 1_555
H11_2 C22_2 1_555 1_555
C25_3 C22_2 1_555 1_555
H13_3 C25_3 1_555 1_555
C28_2 C3_2 1_555 1_555
H16_2 C28_2 1_555 1_555
C32_3 C17_3 1_555 1_555
H24_3 C32_3 1_555 1_555
Zn4 O4_2 1_555 1_555
C28_2 C32_3 1_555 1_555
N3_3 C34_3 1_555 1_555
C33_3 C35_3 1_555 1_555
C34_3 H25_3 1_555 1_555
C35_3 C34_3 1_555 1_555
H26_3 C35_3 1_555 1_555
C36_3 C33_3 1_555 1_555
C39_3 N3_3 1_555 1_555
H28_3 C39_3 1_555 1_555
C40_3 C33_3 1_555 1_555
H29_3 C40_3 1_555 1_555
Zn4 N3_3 1_555 1_555
O10_3 Zn4 1_555 1_555
C51_3 O10_3 1_555 1_555
C52_3 O14_3 1_555 1_555
O11_3 C51_3 1_555 1_555
C53_3 C51_3 1_555 1_555
C56_3 C53_3 1_555 1_555
H41_3 C56_3 1_555 1_555
O14_3 C59_3 1_555 1_555
C57_3 C56_3 1_555 1_555
H42_3 C57_3 1_555 1_555
C58_3 C52_3 1_555 1_555
H43_3 C58_3 1_555 1_555
C59_3 C57_3 1_555 1_555
C60_3 C53_3 1_555 1_555
H44_3 C60_3 1_555 1_555
C62_3 C52_3 1_555 1_555
H46_3 C62_3 1_555 1_555
C63_3 C59_3 1_555 1_555
H47_3 C63_3 1_555 1_555
C39_3 C40_3 1_555 1_555
C60_3 C63_3 1_555 1_555
C3_3 O7_3 1_555 1_555
C22_3 C3_3 1_555 1_555
H11_3 C22_3 1_555 1_555
C28_3 C3_3 1_555 1_555
H16_3 C28_3 1_555 1_555
O6_4 C15_4 1_555 1_555
C29_4 O6_4 1_555 1_555
H17_4 C29_4 1_555 1_555
H18_4 C29_4 1_555 1_555
H19_4 C29_4 1_555 1_555
N3_4 C34_4 1_555 1_555
C33_4 C35_4 1_555 1_555
C34_4 H25_4 1_555 1_555
C35_4 C34_4 1_555 1_555
H26_4 C35_4 1_555 1_555
C36_4 C33_4 1_555 1_555
C38_4 C15_4 1_555 1_555
H27_4 C38_4 1_555 1_555
C39_4 N3_4 1_555 1_555
H28_4 C39_4 1_555 1_555
C40_4 C33_4 1_555 1_555
H29_4 C40_4 1_555 1_555
Zn2_2 N3_4 1_555 1_555
O10_4 Zn2_2 1_555 1_555
C51_4 O10_4 1_555 1_555
O11_4 C51_4 1_555 1_555
C53_4 C51_4 1_555 1_555
C56_4 C53_4 1_555 1_555
H41_4 C56_4 1_555 1_555
C57_4 C56_4 1_555 1_555
H42_4 C57_4 1_555 1_555
C59_4 C57_4 1_555 1_555
C60_4 C53_4 1_555 1_555
H44_4 C60_4 1_555 1_555
C63_4 C59_4 1_555 1_555
H47_4 C63_4 1_555 1_555
N5_2 Zn2_2 1_555 1_555
O15_2 Zn2_2 1_555 1_555
C36_4 C38_4 1_555 1_555
C39_4 C40_4 1_555 1_555
C60_4 C63_4 1_555 1_555
O15_2 C16_4 1_555 1_555
O5_4 C16_4 1_555 1_555
C16_4 C17_4 1_555 1_555
C17_4 C25_4 1_555 1_555
H9_4 C20_4 1_555 1_555
H13_4 C25_4 1_555 1_555
C32_4 C17_4 1_555 1_555
H24_4 C32_4 1_555 1_555
O8_4 C37_4 1_555 1_555
C37_4 C20_4 1_555 1_555
C41_4 O8_4 1_555 1_555
H30_4 C41_4 1_555 1_555
H31_4 C41_4 1_555 1_555
H32_4 C41_4 1_555 1_555
C2_4 C4_4 1_555 1_555
O3_4 C11_4 1_555 1_555
C4_4 C11_4 1_555 1_555
C11_4 C47_4 1_555 1_555
C12_4 C4_4 1_555 1_555
H5_4 C12_4 1_555 1_555
C13_4 C2_4 1_555 1_555
H6_4 C13_4 1_555 1_555
C31_4 O3_4 1_555 1_555
H21_4 C31_4 1_555 1_555
H22_4 C31_4 1_555 1_555
H23_4 C31_4 1_555 1_555
N5_2 C44_4 1_555 1_555
C42_4 C43_4 1_555 1_555
O9_4 C46_4 1_555 1_555
C43_4 C46_4 1_555 1_555
C44_4 H33_4 1_555 1_555
C45_4 C42_4 1_555 1_555
H34_4 C45_4 1_555 1_555
C46_4 C12_4 1_555 1_555
C47_4 C43_4 1_555 1_555
H35_4 C47_4 1_555 1_555
C48_4 C42_4 1_555 1_555
H36_4 C48_4 1_555 1_555
C49_4 N5_2 1_555 1_555
H37_4 C49_4 1_555 1_555
C50_4 O9_4 1_555 1_555
H38_4 C50_4 1_555 1_555
H39_4 C50_4 1_555 1_555
H40_4 C50_4 1_555 1_555
C44_4 C45_4 1_555 1_555
C48_4 C49_4 1_555 1_555
C52_4 O14_4 1_555 1_555
O12_2 C54_4 1_555 1_555
O13_4 C54_4 1_555 1_555
C54_4 C55_4 1_555 1_555
C55_4 C61_4 1_555 1_555
C58_4 C52_4 1_555 1_555
H43_4 C58_4 1_555 1_555
C61_4 C58_4 1_555 1_555
H45_4 C61_4 1_555 1_555
C62_4 C52_4 1_555 1_555
H46_4 C62_4 1_555 1_555
C64_4 C55_4 1_555 1_555
H48_4 C64_4 1_555 1_555
Zn3_2 O12_2 1_555 1_555
C62_4 C64_4 1_555 1_555
Zn3_2 O1_4 1_555 1_555
O1_4 C1_4 1_555 1_555
N1_4 Zn3_2 1_555 1_555
C1_4 O2_4 1_555 1_555
N2_4 Zn3_2 1_555 1_555
C3_4 O7_4 1_555 1_555
C5_4 N2_4 1_555 1_555
H1_4 C5_4 1_555 1_555
C7_4 C1_4 1_555 1_555
C8_4 C10_4 1_555 1_555
C9_4 N1_4 1_555 1_555
H3_4 C9_4 1_555 1_555
C10_4 C9_4 1_555 1_555
H4_4 C10_4 1_555 1_555
C14_4 C8_4 1_555 1_555
C18_4 C7_4 1_555 1_555
H7_4 C18_4 1_555 1_555
C19_4 N2_4 1_555 1_555
H8_4 C19_4 1_555 1_555
O7_4 C23_4 1_555 1_555
C21_4 C18_4 1_555 1_555
H10_4 C21_4 1_555 1_555
C22_4 C3_4 1_555 1_555
H11_4 C22_4 1_555 1_555
C23_4 C21_4 1_555 1_555
C24_4 C7_4 1_555 1_555
H12_4 C24_4 1_555 1_555
C26_4 N1_4 1_555 1_555
H14_4 C26_4 1_555 1_555
C27_4 C8_4 1_555 1_555
H15_4 C27_4 1_555 1_555
C28_4 C3_4 1_555 1_555
H16_4 C28_4 1_555 1_555
C30_4 C23_4 1_555 1_555
H20_4 C30_4 1_555 1_555
C5_4 C6_4 1_555 1_555
C24_4 C30_4 1_555 1_555
C26_4 C27_4 1_555 1_555

#END
