
###############################################################################
#
# This file contains modified crystal structure data generated from the
# MOF subset of the Cambridge Structural Database (CSD) v543 
# hosted by the Cambridge Crystallographic Data Centre (CCDC).
#
# This work is licensed under the Creative Commons
# Attribution-NonCommercial-ShareAlike 4.0 International License.
# To view a copy of this license, visit
# http://creativecommons.org/licenses/by-nc-sa/4.0/
# or send a letter to
# Creative Commons, PO Box 1866, Mountain View, CA 94042, USA.
#
# CIF created using the CSD Python API on 29 September 2022
# The structure has been converted into the P1 space group
# The structure has a 3D framework
# The original CSD entry MOZDAI is in the monoclinic crystal system
# The framework has been calculated to contain at least 10.0% void space
# The void calculation uses a probe of radius 1.32A, grid spacing 0.4
#
###############################################################################

data_MOZDAI
_chemical_formula_moiety         '(C256 H192 Co8 N16 O56)n'
_symmetry_cell_setting           triclinic
_symmetry_space_group_name_H-M   'P 1'
_symmetry_Int_Tables_number      1
_space_group_name_Hall           'P 1'
loop_
_symmetry_equiv_pos_site_id
_symmetry_equiv_pos_as_xyz
1 x,y,z
_cell_length_a                   25.3160(17)
_cell_length_b                   13.9919(10)
_cell_length_c                   17.8674(12)
_cell_angle_alpha                90
_cell_angle_beta                 100.3550(10)
_cell_angle_gamma                90
_cell_volume                     6225.89
loop_
_atom_site_label
_atom_site_type_symbol
_atom_site_fract_x
_atom_site_fract_y
_atom_site_fract_z
O12 O 0.22384(6) 0.78016(12) 0.22014(8)
O13 O 0.22077(6) 0.79499(14) 0.09703(9)
C51 C 0.19799(8) 0.79564(15) 0.15272(12)
C52 C 0.13885(8) 0.81209(16) 0.14368(11)
C56 C 0.10718(9) 0.81379(19) 0.07289(12)
H41 H 0.1231 0.8076 0.0301
C57 C 0.11497(9) 0.8223(2) 0.20647(13)
H42 H 0.1360 0.8217 0.2548
C58 C 0.05220(9) 0.8245(2) 0.06361(12)
H43 H 0.0312 0.8261 0.0153
C59 C 0.02922(9) 0.8329(2) 0.12736(13)
C63 C 0.06043(9) 0.8333(3) 0.19849(13)
H47 H 0.0446 0.8410 0.2412
Co3 Co 0.295151(9) 0.740157(17) 0.201415(13)
O6 O 0.98417(7) 0.50409(16) 0.34316(9)
C11 C 0.99040(9) 0.50134(17) 0.42071(12)
C32 C 0.93527(13) 0.5404(3) 0.30161(16)
H22 H 0.9056 0.5082 0.3174
H23 H 0.9341 0.5297 0.2482
H24 H 0.9330 0.6077 0.3110
N4 N 0.84912(6) 0.68785(11) 0.64918(9)
C42 C 0.92507(8) 0.59449(15) 0.57908(12)
C43 C 0.87091(8) 0.58906(17) 0.55091(12)
H33 H 0.8587 0.5529 0.5076
C45 C 0.96454(8) 0.54583(16) 0.53996(12)
C46 C 0.83469(8) 0.63649(16) 0.58608(12)
H34 H 0.7984 0.6326 0.5649
C47 C 0.95548(8) 0.54585(17) 0.46142(12)
H35 H 0.9252 0.5765 0.4350
C48 C 0.94002(9) 0.6483(2) 0.64471(15)
H36 H 0.9761 0.6545 0.6664
C49 C 0.90146(9) 0.69264(19) 0.67777(14)
H37 H 0.9124 0.7276 0.7221
Co2 Co 0.795151(9) 0.759843(17) 0.701415(13)
O10 O 0.83925(7) 0.66731(13) 0.82213(10)
O11 O 0.83174(6) 0.82033(12) 0.79675(8)
C54 C 0.84710(8) 0.75079(17) 0.84162(12)
C55 C 0.87734(8) 0.77665(17) 0.91923(11)
C60 C 0.88612(10) 0.8701(2) 0.94042(14)
H44 H 0.8704 0.9184 0.9081
C62 C 0.89870(11) 0.7053(2) 0.96898(14)
H46 H 0.8917 0.6416 0.9562
O15 O 0.72384(6) 0.71984(12) 0.72014(8)
N5 N 0.78482(6) 0.88657(11) 0.64256(8)
C33 C 0.78055(8) 0.98183(14) 0.53093(10)
H25 H 0.7841 0.9854 0.4801
C36 C 0.78846(8) 0.89617(14) 0.56920(10)
H26 H 0.7967 0.8425 0.5428
C40 C 0.77350(10) 0.96546(15) 0.67914(11)
H29 H 0.7720 0.9607 0.7306
O1 O 0.33925(7) 0.83269(13) 0.32213(10)
O2 O 0.33174(6) 0.67967(12) 0.29675(8)
O4 O 0.72077(6) 0.70501(14) 0.59703(9)
O7 O 0.47458(6) 0.6550(2) 0.62451(9)
N1 N 0.28482(6) 0.61343(11) 0.14256(8)
N2 N 0.34912(6) 0.81215(11) 0.14918(9)
C1 C 0.69799(8) 0.70436(15) 0.65272(12)
C2 C 0.28055(8) 0.51817(14) 0.03093(10)
C3 C 0.26720(8) 0.43699(13) 0.06829(10)
C5 C 0.63885(8) 0.68791(16) 0.64368(11)
C6 C 0.28846(8) 0.60383(14) 0.06920(10)
H2 H 0.2967 0.6575 0.0428
C7 C 0.44105(9) 0.6776(3) 0.55543(13)
C8 C 0.25820(8) 0.34202(13) 0.03180(11)
C9 C 0.42507(8) 0.90551(15) 0.07908(12)
C10 C 0.37091(8) 0.91094(17) 0.05091(12)
H3 H 0.3587 0.9471 0.0076
C12 C 0.26400(9) 0.44717(14) 0.14471(11)
H4 H 0.2554 0.3949 0.1724
C13 C 0.27554(9) 0.26125(14) 0.07375(11)
H5 H 0.2930 0.2685 0.1238
C14 C 0.46454(8) 0.95417(16) 0.03996(12)
C15 C 0.33469(8) 0.86351(16) 0.08608(12)
H6 H 0.2984 0.8674 0.0649
C16 C 0.34710(8) 0.74921(17) 0.34162(12)
C17 C 0.27350(10) 0.53454(15) 0.17914(11)
H7 H 0.2720 0.5393 0.2306
C18 C 0.37734(8) 0.72335(17) 0.41923(11)
C19 C 0.60718(9) 0.68621(19) 0.57289(12)
H8 H 0.6231 0.6924 0.5301
C21 C 0.61497(9) 0.6777(2) 0.70647(13)
H10 H 0.6360 0.6783 0.7548
C22 C 0.55220(9) 0.6755(2) 0.56361(12)
H11 H 0.5312 0.6739 0.5153
C23 C 0.52922(9) 0.6671(2) 0.62736(13)
C24 C 0.44002(9) 0.8517(2) 0.14471(15)
H12 H 0.4761 0.8455 0.1664
C25 C 0.40146(9) 0.80736(19) 0.17777(14)
H13 H 0.4124 0.7724 0.2221
C26 C 0.38612(10) 0.6299(2) 0.44042(14)
H14 H 0.3704 0.5816 0.4081
C28 C 0.41822(11) 0.6060(2) 0.50968(15)
H18 H 0.4238 0.5425 0.5241
C29 C 0.39870(11) 0.7947(2) 0.46898(14)
H19 H 0.3917 0.8584 0.4562
C30 C 0.56043(9) 0.6667(3) 0.69849(13)
H20 H 0.5446 0.6590 0.7412
C31 C 0.43052(12) 0.7714(3) 0.53766(16)
H21 H 0.4447 0.8192 0.5716
O8 O 0.28593(8) 0.08958(10) 0.08351(8)
C35 C 0.26781(8) 0.17024(14) 0.04399(11)
C41 C 0.31338(14) 0.09967(19) 0.15903(13)
H30 H 0.2913 0.1342 0.1881
H31 H 0.3214 0.0376 0.1811
H32 H 0.3462 0.1341 0.1593
Co1 Co 0.204849(9) 0.240157(17) 0.298585(13)
O1_2 O 0.16075(7) 0.33269(13) 0.17787(10)
O2_2 O 0.16826(6) 0.17967(12) 0.20325(8)
N1_2 N 0.21518(6) 0.11343(11) 0.35744(8)
N2_2 N 0.15088(6) 0.31215(11) 0.35082(9)
C2_2 C 0.21945(8) 0.01817(14) 0.46907(10)
H1 H 0.2159 0.0146 0.5199
C6_2 C 0.21154(8) 0.10383(14) 0.43080(10)
H2_2 H 0.2033 0.1575 0.4572
C9_2 C 0.07493(8) 0.40551(15) 0.42092(12)
C10_2 C 0.12909(8) 0.41094(17) 0.44909(12)
H3_2 H 0.1413 0.4471 0.4924
C14_2 C 0.03546(8) 0.45417(16) 0.46004(12)
C15_2 C 0.16531(8) 0.36351(16) 0.41392(12)
H6_2 H 0.2016 0.3674 0.4351
C16_2 C 0.15290(8) 0.24921(17) 0.15838(12)
C17_2 C 0.22650(10) 0.03454(15) 0.32086(11)
H7_2 H 0.2280 0.0393 0.2694
C18_2 C 0.12266(8) 0.22335(17) 0.08077(11)
C20 C 0.04452(8) 0.45415(17) 0.53858(12)
H9 H 0.0748 0.4235 0.5650
C24_2 C 0.05998(9) 0.3517(2) 0.35529(15)
H12_2 H 0.0239 0.3455 0.3336
C25_2 C 0.09854(9) 0.30736(19) 0.32223(14)
H13_2 H 0.0876 0.2724 0.2779
C26_2 C 0.11388(10) 0.1299(2) 0.05958(14)
H14_2 H 0.1296 0.0816 0.0919
C29_2 C 0.10130(11) 0.2947(2) 0.03102(14)
H19_2 H 0.1083 0.3584 0.0438
O9 O 0.01583(7) 0.49591(16) 0.65684(9)
C44 C 0.00960(9) 0.49866(17) 0.57929(12)
C50 C 0.06473(13) 0.4596(3) 0.69839(16)
H38 H 0.0944 0.4918 0.6826
H39 H 0.0659 0.4703 0.7518
H40 H 0.0670 0.3923 0.6890
O16 O 0.27616(6) 0.28016(12) 0.27986(8)
O3 O 0.77616(6) 0.21984(12) 0.77986(8)
O4_2 O 0.77923(6) 0.20501(14) 0.90297(9)
C1_2 C 0.80201(8) 0.20436(15) 0.84728(12)
C5_2 C 0.86115(8) 0.18791(16) 0.85632(11)
C19_2 C 0.89282(9) 0.18621(19) 0.92711(12)
H8_2 H 0.8769 0.1924 0.9699
C21_2 C 0.88503(9) 0.1777(2) 0.79353(13)
H10_2 H 0.8640 0.1783 0.7452
C22_2 C 0.94780(9) 0.1755(2) 0.93639(12)
H11_2 H 0.9688 0.1739 0.9847
C23_2 C 0.97078(9) 0.1671(2) 0.87264(13)
C30_2 C 0.93957(9) 0.1667(3) 0.80151(13)
H20_2 H 0.9554 0.1590 0.7588
Co5 Co 0.704849(9) 0.259843(17) 0.798585(13)
O5 O 0.71407(8) 0.91042(10) 0.91649(8)
C4 C 0.73219(8) 0.82976(14) 0.95601(11)
C27 C 0.68662(14) 0.90033(19) 0.84097(13)
H15 H 0.7087 0.8658 0.8119
H16 H 0.6786 0.9624 0.8189
H17 H 0.6538 0.8659 0.8407
N3 N 0.71518(6) 0.38657(11) 0.85744(8)
C33_2 C 0.71945(8) 0.48183(14) 0.96907(10)
C34 C 0.73280(8) 0.56301(13) 0.93171(10)
C36_2 C 0.71154(8) 0.39617(14) 0.93080(10)
H26_2 H 0.7033 0.3425 0.9572
C37 C 0.74180(8) 0.65798(13) 0.96820(11)
C38 C 0.73600(9) 0.55283(14) 0.85529(11)
H27 H 0.7446 0.6051 0.8276
C39 C 0.72446(9) 0.73875(14) 0.92625(11)
H28 H 0.7070 0.7315 0.8762
C40_2 C 0.72650(10) 0.46546(15) 0.82086(11)
H29_2 H 0.7280 0.4607 0.7694
N4_2 N 0.65088(6) 0.18785(11) 0.85082(9)
C42_2 C 0.57493(8) 0.09449(15) 0.92092(12)
C43_2 C 0.62909(8) 0.08906(17) 0.94909(12)
H33_2 H 0.6413 0.0529 0.9924
C45_2 C 0.53546(8) 0.04583(16) 0.96004(12)
C46_2 C 0.66531(8) 0.13649(16) 0.91392(12)
H34_2 H 0.7016 0.1326 0.9351
C48_2 C 0.55998(9) 0.1483(2) 0.85529(15)
H36_2 H 0.5239 0.1545 0.8336
C49_2 C 0.59854(9) 0.19264(19) 0.82223(14)
H37_2 H 0.5876 0.2276 0.7779
O10_2 O 0.66075(7) 0.16731(13) 0.67787(10)
O11_2 O 0.66826(6) 0.32033(12) 0.70325(8)
O13_2 O 0.27923(6) 0.29499(14) 0.40297(9)
O14 O 0.52542(6) 0.3450(2) 0.37549(9)
C51_2 C 0.30201(8) 0.29564(15) 0.34728(12)
C52_2 C 0.36115(8) 0.31209(16) 0.35632(11)
C53 C 0.55895(9) 0.3224(3) 0.44457(13)
C54_2 C 0.65290(8) 0.25079(17) 0.65838(12)
C55_2 C 0.62266(8) 0.27665(17) 0.58077(11)
C56_2 C 0.39282(9) 0.31379(19) 0.42711(12)
H41_2 H 0.3769 0.3076 0.4699
C57_2 C 0.38503(9) 0.3223(2) 0.29353(13)
H42_2 H 0.3640 0.3217 0.2452
C58_2 C 0.44780(9) 0.3245(2) 0.43639(12)
H43_2 H 0.4688 0.3261 0.4847
C59_2 C 0.47078(9) 0.3329(2) 0.37264(13)
C60_2 C 0.61388(10) 0.3701(2) 0.55958(14)
H44_2 H 0.6296 0.4184 0.5919
C61 C 0.58178(11) 0.3940(2) 0.49032(15)
H45 H 0.5762 0.4575 0.4759
C62_2 C 0.60130(11) 0.2053(2) 0.53102(14)
H46_2 H 0.6083 0.1416 0.5438
C63_2 C 0.43957(9) 0.3333(3) 0.30151(13)
H47_2 H 0.4554 0.3410 0.2588
C64 C 0.56948(12) 0.2286(3) 0.46234(16)
H48 H 0.5553 0.1808 0.4284
O7_2 O 0.02542(6) 0.1550(2) 0.87549(9)
C7_2 C 0.05895(9) 0.1776(3) 0.94457(13)
C28_2 C 0.08178(11) 0.1060(2) 0.99032(15)
H18_2 H 0.0762 0.0425 0.9759
C31_2 C 0.06948(12) 0.2714(3) 0.96234(16)
H21_2 H 0.0553 0.3192 0.9284
O5_2 O 0.28593(8) 0.91042(10) 0.58351(8)
C3_2 C 0.23280(8) 0.93699(13) 0.43171(10)
C4_2 C 0.26781(8) 0.82976(14) 0.54399(11)
C8_2 C 0.24180(8) 0.84202(13) 0.46820(11)
C12_2 C 0.23600(9) 0.94717(14) 0.35529(11)
H4_2 H 0.2446 0.8949 0.3276
C13_2 C 0.22446(9) 0.76125(14) 0.42625(11)
H5_2 H 0.2070 0.7685 0.3762
C27_2 C 0.31338(14) 0.90033(19) 0.65903(13)
H15_2 H 0.2913 0.8658 0.6881
H16_2 H 0.3214 0.9624 0.6811
H17_2 H 0.3462 0.8659 0.6593
O8_2 O 0.21407(8) 0.58958(10) 0.41649(8)
N3_2 N 0.28482(6) 0.38657(11) 0.64256(8)
C33_3 C 0.28055(8) 0.48183(14) 0.53093(10)
H25_2 H 0.2841 0.4854 0.4801
C34_2 C 0.26720(8) 0.56301(13) 0.56829(10)
C35_2 C 0.23219(8) 0.67024(14) 0.45601(11)
C36_3 C 0.28846(8) 0.39617(14) 0.56920(10)
H26_3 H 0.2967 0.3425 0.5428
C37_2 C 0.25820(8) 0.65798(13) 0.53180(11)
C38_2 C 0.26400(9) 0.55283(14) 0.64471(11)
H27_2 H 0.2554 0.6051 0.6724
C39_2 C 0.27554(9) 0.73875(14) 0.57375(11)
H28_2 H 0.2930 0.7315 0.6238
C40_3 C 0.27350(10) 0.46546(15) 0.67914(11)
H29_3 H 0.2720 0.4607 0.7306
C41_2 C 0.18662(14) 0.59967(19) 0.34097(13)
H30_2 H 0.2087 0.6342 0.3119
H31_2 H 0.1786 0.5376 0.3189
H32_2 H 0.1538 0.6341 0.3407
Co4 Co 0.295151(9) 0.259843(17) 0.701415(13)
O3_2 O 0.22384(6) 0.21984(12) 0.72014(8)
O4_3 O 0.22077(6) 0.20501(14) 0.59703(9)
O6_2 O 0.01583(7) 0.50409(16) 0.15684(9)
C1_3 C 0.19799(8) 0.20436(15) 0.65272(12)
C5_3 C 0.13885(8) 0.18791(16) 0.64368(11)
C11_2 C 0.00960(9) 0.50134(17) 0.07929(12)
C19_3 C 0.10718(9) 0.18621(19) 0.57289(12)
H8_3 H 0.1231 0.1924 0.5301
C21_3 C 0.11497(9) 0.1777(2) 0.70647(13)
H10_3 H 0.1360 0.1783 0.7548
C22_3 C 0.05220(9) 0.1755(2) 0.56361(12)
H11_3 H 0.0312 0.1739 0.5153
C23_3 C 0.02922(9) 0.1671(2) 0.62736(13)
C30_3 C 0.06043(9) 0.1667(3) 0.69849(13)
H20_3 H 0.0446 0.1590 0.7412
C32_2 C 0.06473(13) 0.5404(3) 0.19839(16)
H22_2 H 0.0944 0.5082 0.1826
H23_2 H 0.0659 0.5297 0.2518
H24_2 H 0.0670 0.6077 0.1890
C47_2 C 0.04452(8) 0.54585(17) 0.03858(12)
H35_2 H 0.0748 0.5765 0.0650
O6_3 O 0.48417(7) 0.00409(16) 0.34316(9)
C11_3 C 0.49040(9) 0.00134(17) 0.42071(12)
C32_3 C 0.43527(13) 0.0404(3) 0.30161(16)
H22_3 H 0.4056 0.0082 0.3174
H23_3 H 0.4341 0.0297 0.2482
H24_3 H 0.4330 0.1077 0.3110
N4_3 N 0.34912(6) 0.18785(11) 0.64918(9)
C42_3 C 0.42507(8) 0.09449(15) 0.57908(12)
C43_3 C 0.37091(8) 0.08906(17) 0.55091(12)
H33_3 H 0.3587 0.0529 0.5076
C45_3 C 0.46454(8) 0.04583(16) 0.53996(12)
C46_3 C 0.33469(8) 0.13649(16) 0.58608(12)
H34_3 H 0.2984 0.1326 0.5649
C47_3 C 0.45548(8) 0.04585(17) 0.46142(12)
H35_3 H 0.4252 0.0765 0.4350
C48_3 C 0.44002(9) 0.1483(2) 0.64471(15)
H36_3 H 0.4761 0.1545 0.6664
C49_3 C 0.40146(9) 0.19264(19) 0.67777(14)
H37_3 H 0.4124 0.2276 0.7221
O10_3 O 0.33925(7) 0.16731(13) 0.82213(10)
O11_3 O 0.33174(6) 0.32033(12) 0.79675(8)
C54_3 C 0.34710(8) 0.25079(17) 0.84162(12)
C55_3 C 0.37734(8) 0.27665(17) 0.91923(11)
C60_3 C 0.38612(10) 0.3701(2) 0.94042(14)
H44_3 H 0.3704 0.4184 0.9081
C62_3 C 0.39870(11) 0.2053(2) 0.96898(14)
H46_3 H 0.3917 0.1416 0.9562
H25_3 H 0.2159 0.9854 0.0199
O14_2 O 0.97458(6) 0.8450(2) 0.12451(9)
C53_2 C 0.94105(9) 0.8224(3) 0.05543(13)
C61_2 C 0.91822(11) 0.8940(2) 0.00968(15)
H45_2 H 0.9238 0.9575 0.0241
C64_2 C 0.93052(12) 0.7286(3) 0.03766(16)
H48_2 H 0.9447 0.6808 0.0716
N4_4 N 0.15088(6) 0.68785(11) 0.85082(9)
C42_4 C 0.07493(8) 0.59449(15) 0.92092(12)
C43_4 C 0.12909(8) 0.58906(17) 0.94909(12)
H33_4 H 0.1413 0.5529 0.9924
C45_4 C 0.03546(8) 0.54583(16) 0.96004(12)
C46_4 C 0.16531(8) 0.63649(16) 0.91392(12)
H34_4 H 0.2016 0.6326 0.9351
C48_4 C 0.05998(9) 0.6483(2) 0.85529(15)
H36_4 H 0.0239 0.6545 0.8336
C49_4 C 0.09854(9) 0.69264(19) 0.82223(14)
H37_4 H 0.0876 0.7276 0.7779
Co2_2 Co 0.204849(9) 0.759843(17) 0.798585(13)
O10_4 O 0.16075(7) 0.66731(13) 0.67787(10)
O11_4 O 0.16826(6) 0.82033(12) 0.70325(8)
O14_3 O 0.02542(6) 0.8450(2) 0.37549(9)
C53_3 C 0.05895(9) 0.8224(3) 0.44457(13)
C54_4 C 0.15290(8) 0.75079(17) 0.65838(12)
C55_4 C 0.12266(8) 0.77665(17) 0.58077(11)
C60_4 C 0.11388(10) 0.8701(2) 0.55958(14)
H44_4 H 0.1296 0.9184 0.5919
C61_3 C 0.08178(11) 0.8940(2) 0.49032(15)
H45_3 H 0.0762 0.9575 0.4759
C62_4 C 0.10130(11) 0.7053(2) 0.53102(14)
H46_4 H 0.1083 0.6416 0.5438
C64_3 C 0.06948(12) 0.7286(3) 0.46234(16)
H48_3 H 0.0553 0.6808 0.4284
O15_2 O 0.27616(6) 0.71984(12) 0.77986(8)
N5_2 N 0.21518(6) 0.88657(11) 0.85744(8)
O4_4 O 0.27923(6) 0.70501(14) 0.90297(9)
O7_3 O 0.52542(6) 0.6550(2) 0.87549(9)
C1_4 C 0.30201(8) 0.70436(15) 0.84728(12)
C5_4 C 0.36115(8) 0.68791(16) 0.85632(11)
C7_3 C 0.55895(9) 0.6776(3) 0.94457(13)
C19_4 C 0.39282(9) 0.68621(19) 0.92711(12)
H8_4 H 0.3769 0.6924 0.9699
C21_4 C 0.38503(9) 0.6777(2) 0.79353(13)
H10_4 H 0.3640 0.6783 0.7452
C22_4 C 0.44780(9) 0.6755(2) 0.93639(12)
H11_4 H 0.4688 0.6739 0.9847
C23_4 C 0.47078(9) 0.6671(2) 0.87264(13)
C28_3 C 0.58178(11) 0.6060(2) 0.99032(15)
H18_3 H 0.5762 0.5425 0.9759
C30_4 C 0.43957(9) 0.6667(3) 0.80151(13)
H20_4 H 0.4554 0.6590 0.7588
C31_3 C 0.56948(12) 0.7714(3) 0.96234(16)
H21_3 H 0.5553 0.8192 0.9284
C33_4 C 0.21945(8) 0.98183(14) 0.96907(10)
C36_4 C 0.21154(8) 0.89617(14) 0.93080(10)
H26_4 H 0.2033 0.8425 0.9572
C40_4 C 0.22650(10) 0.96546(15) 0.82086(11)
H29_4 H 0.2280 0.9607 0.7694
Co1_2 Co 0.795151(9) 0.240157(17) 0.201415(13)
O1_3 O 0.83925(7) 0.33269(13) 0.32213(10)
O2_3 O 0.83174(6) 0.17967(12) 0.29675(8)
O7_4 O 0.97458(6) 0.1550(2) 0.62451(9)
N1_3 N 0.78482(6) 0.11343(11) 0.14256(8)
N2_3 N 0.84912(6) 0.31215(11) 0.14918(9)
C2_3 C 0.78055(8) 0.01817(14) 0.03093(10)
C6_3 C 0.78846(8) 0.10383(14) 0.06920(10)
H2_3 H 0.7967 0.1575 0.0428
C7_4 C 0.94105(9) 0.1776(3) 0.55543(13)
C9_3 C 0.92507(8) 0.40551(15) 0.07908(12)
C10_3 C 0.87091(8) 0.41094(17) 0.05091(12)
H3_3 H 0.8587 0.4471 0.0076
C14_3 C 0.96454(8) 0.45417(16) 0.03996(12)
C15_3 C 0.83469(8) 0.36351(16) 0.08608(12)
H6_3 H 0.7984 0.3674 0.0649
C16_3 C 0.84710(8) 0.24921(17) 0.34162(12)
C17_3 C 0.77350(10) 0.03454(15) 0.17914(11)
H7_3 H 0.7720 0.0393 0.2306
C18_3 C 0.87734(8) 0.22335(17) 0.41923(11)
C24_3 C 0.94002(9) 0.3517(2) 0.14471(15)
H12_3 H 0.9761 0.3455 0.1664
C25_3 C 0.90146(9) 0.30736(19) 0.17777(14)
H13_3 H 0.9124 0.2724 0.2221
C26_3 C 0.88612(10) 0.1299(2) 0.44042(14)
H14_3 H 0.8704 0.0816 0.4081
C28_4 C 0.91822(11) 0.1060(2) 0.50968(15)
H18_4 H 0.9238 0.0425 0.5241
C29_3 C 0.89870(11) 0.2947(2) 0.46898(14)
H19_3 H 0.8917 0.3584 0.4562
C31_4 C 0.93052(12) 0.2714(3) 0.53766(16)
H21_4 H 0.9447 0.3192 0.5716
O16_2 O 0.72384(6) 0.28016(12) 0.22014(8)
O13_3 O 0.72077(6) 0.29499(14) 0.09703(9)
O14_4 O 0.47458(6) 0.3450(2) 0.12451(9)
C51_3 C 0.69799(8) 0.29564(15) 0.15272(12)
C52_3 C 0.63885(8) 0.31209(16) 0.14368(11)
C53_4 C 0.44105(9) 0.3224(3) 0.05543(13)
C56_3 C 0.60718(9) 0.31379(19) 0.07289(12)
H41_3 H 0.6231 0.3076 0.0301
C57_3 C 0.61497(9) 0.3223(2) 0.20647(13)
H42_3 H 0.6360 0.3217 0.2548
C58_3 C 0.55220(9) 0.3245(2) 0.06361(12)
H43_3 H 0.5312 0.3261 0.0153
C59_3 C 0.52922(9) 0.3329(2) 0.12736(13)
C61_4 C 0.41822(11) 0.3940(2) 0.00968(15)
H45_4 H 0.4238 0.4575 0.0241
C63_3 C 0.56043(9) 0.3333(3) 0.19849(13)
H47_3 H 0.5446 0.3410 0.2412
C64_4 C 0.43052(12) 0.2286(3) 0.03766(16)
H48_4 H 0.4447 0.1808 0.0716
H1_2 H 0.7841 0.0146 0.9801
C20_2 C 0.95548(8) 0.45415(17) 0.96142(12)
H9_2 H 0.9252 0.4235 0.9350
O9_2 O 0.98417(7) 0.49591(16) 0.84316(9)
C44_2 C 0.99040(9) 0.49866(17) 0.92071(12)
C50_2 C 0.93527(13) 0.4596(3) 0.80161(16)
H38_2 H 0.9056 0.4918 0.8174
H39_2 H 0.9341 0.4703 0.7482
H40_2 H 0.9330 0.3923 0.8110
O12_2 O 0.77616(6) 0.78016(12) 0.27986(8)
O13_4 O 0.77923(6) 0.79499(14) 0.40297(9)
C51_4 C 0.80201(8) 0.79564(15) 0.34728(12)
C52_4 C 0.86115(8) 0.81209(16) 0.35632(11)
C56_4 C 0.89282(9) 0.81379(19) 0.42711(12)
H41_4 H 0.8769 0.8076 0.4699
C57_4 C 0.88503(9) 0.8223(2) 0.29353(13)
H42_4 H 0.8640 0.8217 0.2452
C58_4 C 0.94780(9) 0.8245(2) 0.43639(12)
H43_4 H 0.9688 0.8261 0.4847
C59_4 C 0.97078(9) 0.8329(2) 0.37264(13)
C63_4 C 0.93957(9) 0.8333(3) 0.30151(13)
H47_4 H 0.9554 0.8410 0.2588
Co3_2 Co 0.704849(9) 0.740157(17) 0.298585(13)
O1_4 O 0.66075(7) 0.83269(13) 0.17787(10)
O2_4 O 0.66826(6) 0.67967(12) 0.20325(8)
O5_3 O 0.78593(8) 0.41042(10) 0.58351(8)
N1_4 N 0.71518(6) 0.61343(11) 0.35744(8)
N2_4 N 0.65088(6) 0.81215(11) 0.35082(9)
C2_4 C 0.71945(8) 0.51817(14) 0.46907(10)
H1_3 H 0.7159 0.5146 0.5199
C3_3 C 0.73280(8) 0.43699(13) 0.43171(10)
C4_3 C 0.76781(8) 0.32976(14) 0.54399(11)
C6_4 C 0.71154(8) 0.60383(14) 0.43080(10)
H2_4 H 0.7033 0.6575 0.4572
C8_3 C 0.74180(8) 0.34202(13) 0.46820(11)
C9_4 C 0.57493(8) 0.90551(15) 0.42092(12)
C10_4 C 0.62909(8) 0.91094(17) 0.44909(12)
H3_4 H 0.6413 0.9471 0.4924
C12_3 C 0.73600(9) 0.44717(14) 0.35529(11)
H4_3 H 0.7446 0.3949 0.3276
C13_3 C 0.72446(9) 0.26125(14) 0.42625(11)
H5_3 H 0.7070 0.2685 0.3762
C14_4 C 0.53546(8) 0.95417(16) 0.46004(12)
C15_4 C 0.66531(8) 0.86351(16) 0.41392(12)
H6_4 H 0.7016 0.8674 0.4351
C16_4 C 0.65290(8) 0.74921(17) 0.15838(12)
C17_4 C 0.72650(10) 0.53454(15) 0.32086(11)
H7_4 H 0.7280 0.5393 0.2694
C18_4 C 0.62266(8) 0.72335(17) 0.08077(11)
C20_3 C 0.54452(8) 0.95415(17) 0.53858(12)
H9_3 H 0.5748 0.9235 0.5650
C24_4 C 0.55998(9) 0.8517(2) 0.35529(15)
H12_4 H 0.5239 0.8455 0.3336
C25_4 C 0.59854(9) 0.80736(19) 0.32223(14)
H13_4 H 0.5876 0.7724 0.2779
C26_4 C 0.61388(10) 0.6299(2) 0.05958(14)
H14_4 H 0.6296 0.5816 0.0919
C27_3 C 0.81338(14) 0.40033(19) 0.65903(13)
H15_3 H 0.7913 0.3658 0.6881
H16_3 H 0.8214 0.4624 0.6811
H17_3 H 0.8462 0.3659 0.6593
C29_4 C 0.60130(11) 0.7947(2) 0.03102(14)
H19_4 H 0.6083 0.8584 0.0438
O8_3 O 0.71407(8) 0.08958(10) 0.41649(8)
C34_3 C 0.76720(8) 0.06301(13) 0.56829(10)
C35_3 C 0.73219(8) 0.17024(14) 0.45601(11)
C37_3 C 0.75820(8) 0.15798(13) 0.53180(11)
C38_3 C 0.76400(9) 0.05283(14) 0.64471(11)
H27_3 H 0.7554 0.1051 0.6724
C39_3 C 0.77554(9) 0.23875(14) 0.57375(11)
H28_3 H 0.7930 0.2315 0.6238
C41_3 C 0.68662(14) 0.09967(19) 0.34097(13)
H30_3 H 0.7087 0.1342 0.3119
H31_3 H 0.6786 0.0376 0.3189
H32_3 H 0.6538 0.1341 0.3407
O9_3 O 0.51583(7) 0.99591(16) 0.65684(9)
C44_3 C 0.50960(9) 0.99866(17) 0.57929(12)
C50_3 C 0.56473(13) 0.9596(3) 0.69839(16)
H38_3 H 0.5944 0.9918 0.6826
H39_3 H 0.5659 0.9703 0.7518
H40_3 H 0.5670 0.8923 0.6890
C3_4 C 0.76720(8) 0.93699(13) 0.06829(10)
C8_4 C 0.75820(8) 0.84202(13) 0.03180(11)
C12_4 C 0.76400(9) 0.94717(14) 0.14471(11)
H4_4 H 0.7554 0.8949 0.1724
C13_4 C 0.77554(9) 0.76125(14) 0.07375(11)
H5_4 H 0.7930 0.7685 0.1238
O8_4 O 0.78593(8) 0.58958(10) 0.08351(8)
H25_4 H 0.7159 0.4854 0.0199
C35_4 C 0.76781(8) 0.67024(14) 0.04399(11)
C41_4 C 0.81338(14) 0.59967(19) 0.15903(13)
H30_4 H 0.7913 0.6342 0.1881
H31_4 H 0.8214 0.5376 0.1811
H32_4 H 0.8462 0.6341 0.1593
O6_4 O 0.51583(7) 0.00409(16) 0.15684(9)
C11_4 C 0.50960(9) 0.00134(17) 0.07929(12)
C32_4 C 0.56473(13) 0.0404(3) 0.19839(16)
H22_4 H 0.5944 0.0082 0.1826
H23_4 H 0.5659 0.0297 0.2518
H24_4 H 0.5670 0.1077 0.1890
C47_4 C 0.54452(8) 0.04585(17) 0.03858(12)
H35_4 H 0.5748 0.0765 0.0650
O5_4 O 0.21407(8) 0.41042(10) 0.91649(8)
H1_4 H 0.2841 0.5146 0.9801
C4_4 C 0.23219(8) 0.32976(14) 0.95601(11)
C20_4 C 0.45548(8) 0.95415(17) 0.96142(12)
H9_4 H 0.4252 0.9235 0.9350
C27_4 C 0.18662(14) 0.40033(19) 0.84097(13)
H15_4 H 0.2087 0.3658 0.8119
H16_4 H 0.1786 0.4624 0.8189
H17_4 H 0.1538 0.3659 0.8407
C34_4 C 0.23280(8) 0.06301(13) 0.93171(10)
C37_4 C 0.24180(8) 0.15798(13) 0.96820(11)
C38_4 C 0.23600(9) 0.05283(14) 0.85529(11)
H27_4 H 0.2446 0.1051 0.8276
C39_4 C 0.22446(9) 0.23875(14) 0.92625(11)
H28_4 H 0.2070 0.2315 0.8762
O9_4 O 0.48417(7) 0.99591(16) 0.84316(9)
C44_4 C 0.49040(9) 0.99866(17) 0.92071(12)
C50_4 C 0.43527(13) 0.9596(3) 0.80161(16)
H38_4 H 0.4056 0.9918 0.8174
H39_4 H 0.4341 0.9703 0.7482
H40_4 H 0.4330 0.8923 0.8110
loop_
_geom_bond_atom_site_label_1
_geom_bond_atom_site_label_2
_geom_bond_site_symmetry_1
_geom_bond_site_symmetry_2
O12 C51 1_555 1_555
O13 C51 1_555 1_555
C51 C52 1_555 1_555
C52 C56 1_555 1_555
C56 H41 1_555 1_555
C57 C52 1_555 1_555
H42 C57 1_555 1_555
C58 C56 1_555 1_555
H43 C58 1_555 1_555
C63 C57 1_555 1_555
H47 C63 1_555 1_555
Co3 O12 1_555 1_555
C58 C59 1_555 1_555
C59 C63 1_555 1_555
O6 C11 1_555 1_555
C32 O6 1_555 1_555
H22 C32 1_555 1_555
H23 C32 1_555 1_555
H24 C32 1_555 1_555
N4 C46 1_555 1_555
C42 C43 1_555 1_555
C43 H33 1_555 1_555
C45 C42 1_555 1_555
C46 C43 1_555 1_555
H34 C46 1_555 1_555
C47 C11 1_555 1_555
H35 C47 1_555 1_555
C48 C42 1_555 1_555
H36 C48 1_555 1_555
C49 N4 1_555 1_555
H37 C49 1_555 1_555
Co2 N4 1_555 1_555
O10 C54 1_555 1_555
O11 Co2 1_555 1_555
C54 O11 1_555 1_555
C55 C54 1_555 1_555
C60 C55 1_555 1_555
H44 C60 1_555 1_555
C62 C55 1_555 1_555
H46 C62 1_555 1_555
O15 Co2 1_555 1_555
N5 Co2 1_555 1_555
C45 C47 1_555 1_555
C48 C49 1_555 1_555
N5 C36 1_555 1_555
C33 H25 1_555 1_555
C36 C33 1_555 1_555
H26 C36 1_555 1_555
C40 N5 1_555 1_555
H29 C40 1_555 1_555
Co3 O2 1_555 1_555
O1 C16 1_555 1_555
O2 C16 1_555 1_555
O15 C1 1_555 1_555
O4 C1 1_555 1_555
O7 C7 1_555 1_555
N1 Co3 1_555 1_555
N2 Co3 1_555 1_555
C1 C5 1_555 1_555
C3 C2 1_555 1_555
C5 C19 1_555 1_555
C6 N1 1_555 1_555
H2 C6 1_555 1_555
C7 C28 1_555 1_555
C8 C3 1_555 1_555
C9 C10 1_555 1_555
C10 H3 1_555 1_555
C12 C3 1_555 1_555
H4 C12 1_555 1_555
C13 C8 1_555 1_555
H5 C13 1_555 1_555
C14 C9 1_555 1_555
C15 N2 1_555 1_555
H6 C15 1_555 1_555
C16 C18 1_555 1_555
C17 N1 1_555 1_555
H7 C17 1_555 1_555
C18 C26 1_555 1_555
C19 H8 1_555 1_555
C21 C5 1_555 1_555
H10 C21 1_555 1_555
C22 C19 1_555 1_555
H11 C22 1_555 1_555
C23 O7 1_555 1_555
C24 C9 1_555 1_555
H12 C24 1_555 1_555
C25 N2 1_555 1_555
H13 C25 1_555 1_555
C26 H14 1_555 1_555
C28 C26 1_555 1_555
H18 C28 1_555 1_555
C29 C18 1_555 1_555
H19 C29 1_555 1_555
C30 C21 1_555 1_555
H20 C30 1_555 1_555
C31 C7 1_555 1_555
H21 C31 1_555 1_555
O8 C35 1_555 1_555
C35 C13 1_555 1_555
C41 O8 1_555 1_555
H30 C41 1_555 1_555
H31 C41 1_555 1_555
H32 C41 1_555 1_555
C2 C6 1_555 1_555
C10 C15 1_555 1_555
C12 C17 1_555 1_555
C22 C23 1_555 1_555
C23 C30 1_555 1_555
C24 C25 1_555 1_555
C29 C31 1_555 1_555
Co1 O2_2 1_555 1_555
O1_2 C16_2 1_555 1_555
O2_2 C16_2 1_555 1_555
N1_2 Co1 1_555 1_555
N2_2 Co1 1_555 1_555
C2_2 H1 1_555 1_555
C6_2 N1_2 1_555 1_555
H2_2 C6_2 1_555 1_555
C9_2 C10_2 1_555 1_555
C10_2 H3_2 1_555 1_555
C14_2 C9_2 1_555 1_555
C15_2 N2_2 1_555 1_555
H6_2 C15_2 1_555 1_555
C16_2 C18_2 1_555 1_555
C17_2 N1_2 1_555 1_555
H7_2 C17_2 1_555 1_555
C18_2 C26_2 1_555 1_555
C20 C14_2 1_555 1_555
H9 C20 1_555 1_555
C24_2 C9_2 1_555 1_555
H12_2 C24_2 1_555 1_555
C25_2 N2_2 1_555 1_555
H13_2 C25_2 1_555 1_555
C26_2 H14_2 1_555 1_555
C29_2 C18_2 1_555 1_555
H19_2 C29_2 1_555 1_555
O9 C44 1_555 1_555
C44 C20 1_555 1_555
C50 O9 1_555 1_555
H38 C50 1_555 1_555
H39 C50 1_555 1_555
H40 C50 1_555 1_555
O16 Co1 1_555 1_555
C2_2 C6_2 1_555 1_555
C10_2 C15_2 1_555 1_555
C24_2 C25_2 1_555 1_555
O3 C1_2 1_555 1_555
O4_2 C1_2 1_555 1_555
C1_2 C5_2 1_555 1_555
C5_2 C19_2 1_555 1_555
C19_2 H8_2 1_555 1_555
C21_2 C5_2 1_555 1_555
H10_2 C21_2 1_555 1_555
C22_2 C19_2 1_555 1_555
H11_2 C22_2 1_555 1_555
C30_2 C21_2 1_555 1_555
H20_2 C30_2 1_555 1_555
Co5 O3 1_555 1_555
C22_2 C23_2 1_555 1_555
C23_2 C30_2 1_555 1_555
O5 C4 1_555 1_555
C27 O5 1_555 1_555
H15 C27 1_555 1_555
H16 C27 1_555 1_555
H17 C27 1_555 1_555
N3 C36_2 1_555 1_555
C34 C33_2 1_555 1_555
C36_2 C33_2 1_555 1_555
H26_2 C36_2 1_555 1_555
C37 C34 1_555 1_555
C38 C34 1_555 1_555
H27 C38 1_555 1_555
C39 C4 1_555 1_555
H28 C39 1_555 1_555
C40_2 N3 1_555 1_555
H29_2 C40_2 1_555 1_555
Co5 N3 1_555 1_555
C37 C39 1_555 1_555
C38 C40_2 1_555 1_555
N4_2 C46_2 1_555 1_555
C42_2 C43_2 1_555 1_555
C43_2 H33_2 1_555 1_555
C45_2 C42_2 1_555 1_555
C46_2 C43_2 1_555 1_555
H34_2 C46_2 1_555 1_555
C48_2 C42_2 1_555 1_555
H36_2 C48_2 1_555 1_555
C49_2 N4_2 1_555 1_555
H37_2 C49_2 1_555 1_555
Co5 N4_2 1_555 1_555
O10_2 C54_2 1_555 1_555
O11_2 Co5 1_555 1_555
O16 C51_2 1_555 1_555
O13_2 C51_2 1_555 1_555
O14 C53 1_555 1_555
C51_2 C52_2 1_555 1_555
C52_2 C56_2 1_555 1_555
C53 C61 1_555 1_555
C54_2 O11_2 1_555 1_555
C55_2 C54_2 1_555 1_555
C56_2 H41_2 1_555 1_555
C57_2 C52_2 1_555 1_555
H42_2 C57_2 1_555 1_555
C58_2 C56_2 1_555 1_555
H43_2 C58_2 1_555 1_555
C59_2 O14 1_555 1_555
C60_2 C55_2 1_555 1_555
H44_2 C60_2 1_555 1_555
C61 C60_2 1_555 1_555
H45 C61 1_555 1_555
C62_2 C55_2 1_555 1_555
H46_2 C62_2 1_555 1_555
C63_2 C57_2 1_555 1_555
H47_2 C63_2 1_555 1_555
C64 C53 1_555 1_555
H48 C64 1_555 1_555
C48_2 C49_2 1_555 1_555
C58_2 C59_2 1_555 1_555
C59_2 C63_2 1_555 1_555
C62_2 C64 1_555 1_555
O7_2 C7_2 1_555 1_555
C7_2 C28_2 1_555 1_555
H18_2 C28_2 1_555 1_555
C31_2 C7_2 1_555 1_555
H21_2 C31_2 1_555 1_555
O5_2 C4_2 1_555 1_555
C4_2 C8_2 1_555 1_555
C8_2 C3_2 1_555 1_555
C12_2 C3_2 1_555 1_555
H4_2 C12_2 1_555 1_555
C13_2 C8_2 1_555 1_555
H5_2 C13_2 1_555 1_555
C27_2 O5_2 1_555 1_555
H15_2 C27_2 1_555 1_555
H16_2 C27_2 1_555 1_555
H17_2 C27_2 1_555 1_555
O8_2 C35_2 1_555 1_555
N3_2 C36_3 1_555 1_555
C33_3 H25_2 1_555 1_555
C34_2 C33_3 1_555 1_555
C35_2 C13_2 1_555 1_555
C36_3 C33_3 1_555 1_555
H26_3 C36_3 1_555 1_555
C37_2 C34_2 1_555 1_555
C38_2 C34_2 1_555 1_555
H27_2 C38_2 1_555 1_555
C39_2 C4_2 1_555 1_555
H28_2 C39_2 1_555 1_555
C40_3 N3_2 1_555 1_555
H29_3 C40_3 1_555 1_555
C41_2 O8_2 1_555 1_555
H30_2 C41_2 1_555 1_555
H31_2 C41_2 1_555 1_555
H32_2 C41_2 1_555 1_555
Co4 N3_2 1_555 1_555
C35_2 C37_2 1_555 1_555
C37_2 C39_2 1_555 1_555
C38_2 C40_3 1_555 1_555
O3_2 C1_3 1_555 1_555
O4_3 C1_3 1_555 1_555
O6_2 C11_2 1_555 1_555
C1_3 C5_3 1_555 1_555
C5_3 C19_3 1_555 1_555
C19_3 H8_3 1_555 1_555
C21_3 C5_3 1_555 1_555
H10_3 C21_3 1_555 1_555
C22_3 C19_3 1_555 1_555
H11_3 C22_3 1_555 1_555
C30_3 C21_3 1_555 1_555
H20_3 C30_3 1_555 1_555
C32_2 O6_2 1_555 1_555
H22_2 C32_2 1_555 1_555
H23_2 C32_2 1_555 1_555
H24_2 C32_2 1_555 1_555
C47_2 C11_2 1_555 1_555
H35_2 C47_2 1_555 1_555
Co4 O3_2 1_555 1_555
C22_3 C23_3 1_555 1_555
C23_3 C30_3 1_555 1_555
O6_3 C11_3 1_555 1_555
C32_3 O6_3 1_555 1_555
H22_3 C32_3 1_555 1_555
H23_3 C32_3 1_555 1_555
H24_3 C32_3 1_555 1_555
N4_3 C46_3 1_555 1_555
C42_3 C43_3 1_555 1_555
C43_3 H33_3 1_555 1_555
C45_3 C42_3 1_555 1_555
C46_3 C43_3 1_555 1_555
H34_3 C46_3 1_555 1_555
C47_3 C11_3 1_555 1_555
H35_3 C47_3 1_555 1_555
C48_3 C42_3 1_555 1_555
H36_3 C48_3 1_555 1_555
C49_3 N4_3 1_555 1_555
H37_3 C49_3 1_555 1_555
Co4 N4_3 1_555 1_555
O10_3 C54_3 1_555 1_555
O11_3 Co4 1_555 1_555
C54_3 O11_3 1_555 1_555
C55_3 C54_3 1_555 1_555
C60_3 C55_3 1_555 1_555
H44_3 C60_3 1_555 1_555
C62_3 C55_3 1_555 1_555
H46_3 C62_3 1_555 1_555
C45_3 C47_3 1_555 1_555
C48_3 C49_3 1_555 1_555
O14_2 C53_2 1_555 1_555
C53_2 C61_2 1_555 1_555
H45_2 C61_2 1_555 1_555
C64_2 C53_2 1_555 1_555
H48_2 C64_2 1_555 1_555
N4_4 C46_4 1_555 1_555
C42_4 C43_4 1_555 1_555
C43_4 H33_4 1_555 1_555
C45_4 C42_4 1_555 1_555
C46_4 C43_4 1_555 1_555
H34_4 C46_4 1_555 1_555
C48_4 C42_4 1_555 1_555
H36_4 C48_4 1_555 1_555
C49_4 N4_4 1_555 1_555
H37_4 C49_4 1_555 1_555
Co2_2 N4_4 1_555 1_555
O10_4 C54_4 1_555 1_555
O11_4 Co2_2 1_555 1_555
O14_3 C53_3 1_555 1_555
C53_3 C61_3 1_555 1_555
C54_4 O11_4 1_555 1_555
C55_4 C54_4 1_555 1_555
C60_4 C55_4 1_555 1_555
H44_4 C60_4 1_555 1_555
C61_3 C60_4 1_555 1_555
H45_3 C61_3 1_555 1_555
C62_4 C55_4 1_555 1_555
H46_4 C62_4 1_555 1_555
C64_3 C53_3 1_555 1_555
H48_3 C64_3 1_555 1_555
O15_2 Co2_2 1_555 1_555
N5_2 Co2_2 1_555 1_555
C48_4 C49_4 1_555 1_555
C62_4 C64_3 1_555 1_555
O15_2 C1_4 1_555 1_555
O4_4 C1_4 1_555 1_555
O7_3 C7_3 1_555 1_555
C1_4 C5_4 1_555 1_555
C5_4 C19_4 1_555 1_555
C7_3 C28_3 1_555 1_555
C19_4 H8_4 1_555 1_555
C21_4 C5_4 1_555 1_555
H10_4 C21_4 1_555 1_555
C22_4 C19_4 1_555 1_555
H11_4 C22_4 1_555 1_555
C23_4 O7_3 1_555 1_555
H18_3 C28_3 1_555 1_555
C30_4 C21_4 1_555 1_555
H20_4 C30_4 1_555 1_555
C31_3 C7_3 1_555 1_555
H21_3 C31_3 1_555 1_555
C22_4 C23_4 1_555 1_555
C23_4 C30_4 1_555 1_555
N5_2 C36_4 1_555 1_555
C36_4 C33_4 1_555 1_555
H26_4 C36_4 1_555 1_555
C40_4 N5_2 1_555 1_555
H29_4 C40_4 1_555 1_555
Co1_2 O2_3 1_555 1_555
O1_3 C16_3 1_555 1_555
O2_3 C16_3 1_555 1_555
O7_4 C7_4 1_555 1_555
N1_3 Co1_2 1_555 1_555
N2_3 Co1_2 1_555 1_555
C6_3 N1_3 1_555 1_555
H2_3 C6_3 1_555 1_555
C7_4 C28_4 1_555 1_555
C9_3 C10_3 1_555 1_555
C10_3 H3_3 1_555 1_555
C14_3 C9_3 1_555 1_555
C15_3 N2_3 1_555 1_555
H6_3 C15_3 1_555 1_555
C16_3 C18_3 1_555 1_555
C17_3 N1_3 1_555 1_555
H7_3 C17_3 1_555 1_555
C18_3 C26_3 1_555 1_555
C24_3 C9_3 1_555 1_555
H12_3 C24_3 1_555 1_555
C25_3 N2_3 1_555 1_555
H13_3 C25_3 1_555 1_555
C26_3 H14_3 1_555 1_555
C28_4 C26_3 1_555 1_555
H18_4 C28_4 1_555 1_555
C29_3 C18_3 1_555 1_555
H19_3 C29_3 1_555 1_555
C31_4 C7_4 1_555 1_555
H21_4 C31_4 1_555 1_555
O16_2 Co1_2 1_555 1_555
C2_3 C6_3 1_555 1_555
C10_3 C15_3 1_555 1_555
C24_3 C25_3 1_555 1_555
C29_3 C31_4 1_555 1_555
O16_2 C51_3 1_555 1_555
O13_3 C51_3 1_555 1_555
O14_4 C53_4 1_555 1_555
C51_3 C52_3 1_555 1_555
C52_3 C56_3 1_555 1_555
C53_4 C61_4 1_555 1_555
C56_3 H41_3 1_555 1_555
C57_3 C52_3 1_555 1_555
H42_3 C57_3 1_555 1_555
C58_3 C56_3 1_555 1_555
H43_3 C58_3 1_555 1_555
C59_3 O14_4 1_555 1_555
H45_4 C61_4 1_555 1_555
C63_3 C57_3 1_555 1_555
H47_3 C63_3 1_555 1_555
C64_4 C53_4 1_555 1_555
H48_4 C64_4 1_555 1_555
C58_3 C59_3 1_555 1_555
C59_3 C63_3 1_555 1_555
H9_2 C20_2 1_555 1_555
O9_2 C44_2 1_555 1_555
C44_2 C20_2 1_555 1_555
C50_2 O9_2 1_555 1_555
H38_2 C50_2 1_555 1_555
H39_2 C50_2 1_555 1_555
H40_2 C50_2 1_555 1_555
O12_2 C51_4 1_555 1_555
O13_4 C51_4 1_555 1_555
C51_4 C52_4 1_555 1_555
C52_4 C56_4 1_555 1_555
C56_4 H41_4 1_555 1_555
C57_4 C52_4 1_555 1_555
H42_4 C57_4 1_555 1_555
C58_4 C56_4 1_555 1_555
H43_4 C58_4 1_555 1_555
C63_4 C57_4 1_555 1_555
H47_4 C63_4 1_555 1_555
Co3_2 O12_2 1_555 1_555
C58_4 C59_4 1_555 1_555
C59_4 C63_4 1_555 1_555
Co3_2 O2_4 1_555 1_555
O1_4 C16_4 1_555 1_555
O2_4 C16_4 1_555 1_555
O5_3 C4_3 1_555 1_555
N1_4 Co3_2 1_555 1_555
N2_4 Co3_2 1_555 1_555
C2_4 H1_3 1_555 1_555
C3_3 C2_4 1_555 1_555
C4_3 C8_3 1_555 1_555
C6_4 N1_4 1_555 1_555
H2_4 C6_4 1_555 1_555
C8_3 C3_3 1_555 1_555
C9_4 C10_4 1_555 1_555
C10_4 H3_4 1_555 1_555
C12_3 C3_3 1_555 1_555
H4_3 C12_3 1_555 1_555
C13_3 C8_3 1_555 1_555
H5_3 C13_3 1_555 1_555
C14_4 C9_4 1_555 1_555
C15_4 N2_4 1_555 1_555
H6_4 C15_4 1_555 1_555
C16_4 C18_4 1_555 1_555
C17_4 N1_4 1_555 1_555
H7_4 C17_4 1_555 1_555
C18_4 C26_4 1_555 1_555
C20_3 C14_4 1_555 1_555
H9_3 C20_3 1_555 1_555
C24_4 C9_4 1_555 1_555
H12_4 C24_4 1_555 1_555
C25_4 N2_4 1_555 1_555
H13_4 C25_4 1_555 1_555
C26_4 H14_4 1_555 1_555
C27_3 O5_3 1_555 1_555
H15_3 C27_3 1_555 1_555
H16_3 C27_3 1_555 1_555
H17_3 C27_3 1_555 1_555
C29_4 C18_4 1_555 1_555
H19_4 C29_4 1_555 1_555
O8_3 C35_3 1_555 1_555
C35_3 C13_3 1_555 1_555
C37_3 C34_3 1_555 1_555
C38_3 C34_3 1_555 1_555
H27_3 C38_3 1_555 1_555
C39_3 C4_3 1_555 1_555
H28_3 C39_3 1_555 1_555
C41_3 O8_3 1_555 1_555
H30_3 C41_3 1_555 1_555
H31_3 C41_3 1_555 1_555
H32_3 C41_3 1_555 1_555
O9_3 C44_3 1_555 1_555
C44_3 C20_3 1_555 1_555
C50_3 O9_3 1_555 1_555
H38_3 C50_3 1_555 1_555
H39_3 C50_3 1_555 1_555
H40_3 C50_3 1_555 1_555
C2_4 C6_4 1_555 1_555
C10_4 C15_4 1_555 1_555
C12_3 C17_4 1_555 1_555
C24_4 C25_4 1_555 1_555
C35_3 C37_3 1_555 1_555
C37_3 C39_3 1_555 1_555
C8_4 C3_4 1_555 1_555
C12_4 C3_4 1_555 1_555
H4_4 C12_4 1_555 1_555
C13_4 C8_4 1_555 1_555
H5_4 C13_4 1_555 1_555
O8_4 C35_4 1_555 1_555
C35_4 C13_4 1_555 1_555
C41_4 O8_4 1_555 1_555
H30_4 C41_4 1_555 1_555
H31_4 C41_4 1_555 1_555
H32_4 C41_4 1_555 1_555
O6_4 C11_4 1_555 1_555
C32_4 O6_4 1_555 1_555
H22_4 C32_4 1_555 1_555
H23_4 C32_4 1_555 1_555
H24_4 C32_4 1_555 1_555
C47_4 C11_4 1_555 1_555
H35_4 C47_4 1_555 1_555
O5_4 C4_4 1_555 1_555
H9_4 C20_4 1_555 1_555
C27_4 O5_4 1_555 1_555
H15_4 C27_4 1_555 1_555
H16_4 C27_4 1_555 1_555
H17_4 C27_4 1_555 1_555
C37_4 C34_4 1_555 1_555
C38_4 C34_4 1_555 1_555
H27_4 C38_4 1_555 1_555
C39_4 C4_4 1_555 1_555
H28_4 C39_4 1_555 1_555
O9_4 C44_4 1_555 1_555
C44_4 C20_4 1_555 1_555
C50_4 O9_4 1_555 1_555
H38_4 C50_4 1_555 1_555
H39_4 C50_4 1_555 1_555
H40_4 C50_4 1_555 1_555
C37_4 C39_4 1_555 1_555

#END
