
###############################################################################
#
# This file contains modified crystal structure data generated from the
# MOF subset of the Cambridge Structural Database (CSD) v543 
# hosted by the Cambridge Crystallographic Data Centre (CCDC).
#
# This work is licensed under the Creative Commons
# Attribution-NonCommercial-ShareAlike 4.0 International License.
# To view a copy of this license, visit
# http://creativecommons.org/licenses/by-nc-sa/4.0/
# or send a letter to
# Creative Commons, PO Box 1866, Mountain View, CA 94042, USA.
#
# CIF created using the CSD Python API on 29 September 2022
# The structure has been converted into the P1 space group
# The structure has a 3D framework
# The original CSD entry MOZFIR is in the triclinic crystal system
# The original CSD entry MOZFIR is in a Sohncke space group
# The framework has been calculated to contain at least 10.0% void space
# The void calculation uses a probe of radius 1.32A, grid spacing 0.4
#
###############################################################################

data_MOZFIR
_chemical_formula_moiety         '(C12 H12 O18 Tb2)n'
_symmetry_cell_setting           triclinic
_symmetry_space_group_name_H-M   'P 1'
_symmetry_Int_Tables_number      1
_space_group_name_Hall           'P 1'
loop_
_symmetry_equiv_pos_site_id
_symmetry_equiv_pos_as_xyz
1 x,y,z
_cell_length_a                   5.990(4)
_cell_length_b                   7.435(4)
_cell_length_c                   13.323(3)
_cell_angle_alpha                102.89(3)
_cell_angle_beta                 101.55(3)
_cell_angle_gamma                90.85(3)
_cell_volume                     565.583
loop_
_atom_site_label
_atom_site_type_symbol
_atom_site_fract_x
_atom_site_fract_y
_atom_site_fract_z
_atom_site_U_iso_or_equiv
_atom_site_thermal_displace_type
C6 C 0.131(2) 0.4316(17) 0.1292(9) 0.0110 Uani
H3 H 0.2734 0.4965 0.1280 0.0140 Uiso
C7 C 0.1613(18) 0.3619(14) 0.2292(8) 0.0114 Uani
H4 H 0.2476 0.4586 0.2871 0.0140 Uiso
C8 C 0.2936(19) 0.1834(14) 0.2241(8) 0.0120 Uani
O9 O 0.0662(13) 0.2863(10) 0.0334(6) 0.0145 Uani
O11 O 0.4961(14) 0.1963(11) 0.2178(6) 0.0194 Uani
O12 O 0.1901(14) 0.0421(12) 0.2309(6) 0.0180 Uani
Tb5 Tb 0.80047(5) 0.00015(4) 0.24053(3) 0.0098 Uani
O20 O 0.0184(14) 0.1472(12) 0.8092(8) 0.0283 Uani
H11 H 0.1375 0.1583 0.7850 0.0420 Uiso
H12 H 0.0528 0.1638 0.8758 0.0420 Uiso
O21 O 0.0710(14) 0.5707(11) 0.8934(9) 0.0238 Uani
O17 O 0.7987(14) 0.0360(10) 0.0683(6) 0.0175 Uani
C12 C 0.626(2) 0.0155(14) 0.9943(9) 0.0145 Uani
O18 O 0.6007(15) 0.0973(12) 0.9205(7) 0.0183 Uani
Tb7 Tb 0.76233(6) 0.36241(5) 0.88143(4) 0.0112 Uani
C5 C 0.9430(19) 0.5683(15) 0.1319(8) 0.0123 Uani
O7 O 0.9637(15) 0.7040(11) 0.2058(7) 0.0182 Uani
O8 O 0.7695(15) 0.5318(12) 0.0548(7) 0.0230 Uani
O10 O 0.9449(14) 0.3262(11) 0.2535(7) 0.0144 Uani
O16 O 0.4981(13) 0.8000(10) 0.0849(6) 0.0129 Uani
C2 C 0.154(3) 0.2108(19) 0.5640(11) 0.0147 Uani
H1 H 0.1369 0.1403 0.6163 0.0170 Uiso
C3 C 0.399(2) 0.208(2) 0.5495(9) 0.0132 Uani
H2 H 0.4278 0.0805 0.5186 0.0160 Uiso
C4 C 0.560(3) 0.268(2) 0.6565(13) 0.0170 Uani
C9 C 0.2756(18) 0.5534(14) 0.8914(8) 0.0114 Uani
C10 C 0.4079(19) 0.7259(15) 0.8881(9) 0.0130 Uani
H5 H 0.3281 0.7803 0.8314 0.0160 Uiso
C11 C 0.446(2) 0.8707(17) 0.9962(9) 0.0117 Uani
H6 H 0.3031 0.9327 0.9986 0.0140 Uiso
O3 O 0.1058(15) 0.3981(11) 0.6016(6) 0.0206 Uani
H7 H 0.0197 0.4331 0.5547 0.0310 Uiso
O4 O 0.4295(15) 0.3169(12) 0.4784(7) 0.0231 Uani
H8 H 0.5615 0.3129 0.4700 0.0350 Uiso
O5 O 0.7009(15) 0.3964(12) 0.6810(7) 0.0247 Uani
O6 O 0.5322(16) 0.1694(13) 0.7229(7) 0.0277 Uani
O13 O 0.3735(15) 0.4097(13) 0.8891(7) 0.0217 Uani
O15 O 0.6272(15) 0.6694(11) 0.8688(7) 0.0146 Uani
C1 C 0.998(3) 0.119(2) 0.4587(12) 0.0120 Uani
O1 O 0.8228(15) 0.2018(12) 0.4200(7) 0.0230 Uani
O19 O 0.5272(14) 0.8372(13) 0.3040(8) 0.0261 Uani
H9 H 0.4090 0.7837 0.2601 0.0390 Uiso
H10 H 0.5025 0.9500 0.3259 0.0390 Uiso
O2 O 0.0371(14) 0.9639(11) 0.4115(6) 0.0194 Uani
loop_
_atom_site_aniso_label
_atom_site_aniso_U_11
_atom_site_aniso_U_22
_atom_site_aniso_U_33
_atom_site_aniso_U_23
_atom_site_aniso_U_13
_atom_site_aniso_U_12
C6 0.011 0.011 0.011 0.0028 0.002 0.0008
C7 0.012 0.008 0.014 0.005 0 -0.005
C8 0.012 0.012 0.012 0.0026 0.0028 0.001
O9 0.016 0.013 0.014 0 0.005 0.006
O11 0.019 0.0194 0.02 0.0046 0.0042 0.0016
O12 0.017 0.018 0.019 0.0046 0.0034 0.0012
Tb5 0.0086 0.0089 0.0118 0.0032 0.001 0.0012
O20 0.012 0.023 0.044 -0.006 0.008 -0.002
O21 0.011 0.012 0.047 0.002 0.008 0.001
O17 0.014 0.016 0.021 0.004 0.001 -0.005
C12 0.016 0.007 0.019 0 0.004 -0.005
O18 0.021 0.015 0.019 0.011 -0.004 0.004
Tb7 0.0084 0.0113 0.0133 0.0032 0.0009 -0.001
C5 0.012 0.012 0.013 0.003 0.0027 0.001
O7 0.026 0.012 0.012 0.004 -0.008 0.002
O8 0.024 0.025 0.017 0.003 -0.001 0.007
O10 0.011 0.008 0.025 0.002 0.008 0
O16 0.016 0.013 0.014 0.011 0.004 0.003
C2 0.015 0.014 0.015 0.0033 0.0031 0.0007
C3 0.013 0.014 0.013 0.007 -0.001 0.005
C4 0.017 0.017 0.017 0.0041 0.0035 0.0006
C9 0.005 0.012 0.017 0.005 0 0.003
C10 0.013 0.013 0.013 0.0031 0.0025 0.0008
C11 0.012 0.011 0.012 0.003 0.0022 0.0007
O3 0.025 0.018 0.015 0.002 -0.002 -0.003
O4 0.021 0.035 0.018 0.014 0.006 0.006
O5 0.022 0.027 0.021 0.001 0 -0.001
O6 0.027 0.033 0.02 0.008 -0.004 -0.007
O13 0.021 0.021 0.023 0.0049 0.0046 0.001
O15 0.014 0.015 0.015 0.0032 0.0036 0.0009
C1 0.012 0.012 0.012 0.0028 0.0026 0.0002
O1 0.019 0.03 0.021 0.005 0.007 0.007
O19 0.008 0.03 0.041 0.009 0.006 0.001
O2 0.024 0.015 0.017 0.009 -0.007 0.005
loop_
_geom_bond_atom_site_label_1
_geom_bond_atom_site_label_2
_geom_bond_site_symmetry_1
_geom_bond_site_symmetry_2
C6 H3 1_555 1_555
C7 C6 1_555 1_555
H4 C7 1_555 1_555
C8 C7 1_555 1_555
O9 C6 1_555 1_555
O11 C8 1_555 1_555
O12 C8 1_555 1_555
Tb5 O11 1_555 1_555
O20 H11 1_555 1_555
H12 O20 1_555 1_555
O17 Tb5 1_555 1_555
O18 C12 1_555 1_555
Tb7 O18 1_555 1_555
O7 C5 1_555 1_555
O8 C5 1_555 1_555
Tb5 O10 1_555 1_555
C2 H1 1_555 1_555
C3 C2 1_555 1_555
H2 C3 1_555 1_555
C4 C3 1_555 1_555
C9 C10 1_555 1_555
C10 H5 1_555 1_555
C11 C10 1_555 1_555
H6 C11 1_555 1_555
O3 C2 1_555 1_555
H7 O3 1_555 1_555
O4 C3 1_555 1_555
H8 O4 1_555 1_555
O5 C4 1_555 1_555
O6 C4 1_555 1_555
O13 C9 1_555 1_555
O21 C9 1_555 1_555
O15 C10 1_555 1_555
Tb7 O5 1_555 1_555
O6 Tb7 1_555 1_555
O13 Tb7 1_555 1_555
O15 Tb7 1_555 1_555
O1 C1 1_555 1_555
Tb5 O1 1_555 1_555
O19 H9 1_555 1_555
H10 O19 1_555 1_555

#END
