
###############################################################################
#
# This file contains modified crystal structure data generated from the
# MOF subset of the Cambridge Structural Database (CSD) v543 
# hosted by the Cambridge Crystallographic Data Centre (CCDC).
#
# This work is licensed under the Creative Commons
# Attribution-NonCommercial-ShareAlike 4.0 International License.
# To view a copy of this license, visit
# http://creativecommons.org/licenses/by-nc-sa/4.0/
# or send a letter to
# Creative Commons, PO Box 1866, Mountain View, CA 94042, USA.
#
# CIF created using the CSD Python API on 29 September 2022
# The structure has been converted into the P1 space group
# The structure has a 3D framework
# The original CSD entry MUBBAP is in the tetragonal crystal system
# The original CSD entry MUBBAP is in a Sohncke space group
# The framework has been calculated to contain at least 10.0% void space
# The void calculation uses a probe of radius 1.32A, grid spacing 0.4
# The framework is charged, counterions have been retained in the structure
#
###############################################################################

data_MUBBAP
_chemical_formula_moiety         '(C64 H24 In4 N8 O32 5-)n'
_symmetry_cell_setting           triclinic
_symmetry_space_group_name_H-M   'P 1'
_symmetry_Int_Tables_number      1
_space_group_name_Hall           'P 1'
loop_
_symmetry_equiv_pos_site_id
_symmetry_equiv_pos_as_xyz
1 x,y,z
_cell_length_a                   9.9792(16)
_cell_length_b                   9.9792(16)
_cell_length_c                   43.855(14)
_cell_angle_alpha                90
_cell_angle_beta                 90
_cell_angle_gamma                90
_cell_volume                     4367.28
loop_
_atom_site_label
_atom_site_type_symbol
_atom_site_fract_x
_atom_site_fract_y
_atom_site_fract_z
O11 O 0.1901(7) 0.9460(11) 0.13031(15)
O13 O 0.0968(5) 0.9495(7) 0.08642(14)
In4 In 0.04701(6) 0.95299(6) 0.8750
O12 O 0.9460(11) 0.1901(7) 0.11969(15)
O14 O 0.9495(7) 0.0968(5) 0.16358(14)
In1 In 0.95299(6) 0.95299(6) 0.1250
O1 O 0.8084(6) 0.9584(10) 0.08782(14)
C1 C 0.5661(9) 0.9536(13) 0.0865(2)
C2 C 0.5723(7) 0.9552(13) 0.0544(2)
H1 H 0.6540 0.9562 0.0442
C3 C 0.4536(9) 0.9551(12) 0.03891(19)
O2 O 0.7057(6) 0.9601(11) 0.13124(15)
C4 C 0.4503(9) 0.9618(12) 0.1026(2)
H2 H 0.4511 0.9707 0.1237
N1 N 0.4424(7) 0.9525(11) 0.00619(18)
C5 C 0.3299(7) 0.9564(13) 0.08642(19)
C6 C 0.3302(9) 0.9507(14) 0.0555(2)
H3 H 0.2495 0.9439 0.0450
C7 C 0.7015(8) 0.9489(13) 0.1022(2)
C8 C 0.1972(9) 0.9617(14) 0.1042(3)
O9 O 0.9584(10) 0.8084(6) 0.16218(14)
O10 O 0.9601(11) 0.7057(6) 0.11876(15)
O5 O 0.1916(6) 0.9584(10) 0.91218(14)
C9 C 0.4339(9) 0.9536(13) 0.9135(2)
C10 C 0.4277(7) 0.9552(13) 0.9456(2)
H4 H 0.3460 0.9562 0.9558
C11 C 0.5464(9) 0.9551(12) 0.96109(19)
O6 O 0.2943(6) 0.9601(11) 0.86876(15)
C12 C 0.5497(9) 0.9618(12) 0.8974(2)
H5 H 0.5489 0.9707 0.8763
N2 N 0.5576(7) 0.9525(11) 0.99381(18)
C13 C 0.6701(7) 0.9564(13) 0.91358(19)
C14 C 0.6698(9) 0.9507(14) 0.9445(2)
H6 H 0.7505 0.9439 0.9550
C15 C 0.2985(8) 0.9489(13) 0.8978(2)
O7 O 0.8099(7) 0.9460(11) 0.86969(15)
C16 C 0.8028(9) 0.9617(14) 0.8958(3)
O8 O 0.9032(5) 0.9495(7) 0.91358(14)
In4_2 In 0.04701(6) 0.04701(6) 0.6250
O11_2 O 0.0540(11) 0.1901(7) 0.88031(15)
O13_2 O 0.0505(7) 0.0968(5) 0.83642(14)
O1_2 O 0.0416(10) 0.8084(6) 0.83782(14)
C1_2 C 0.0464(13) 0.5661(9) 0.8365(2)
C2_2 C 0.0448(13) 0.5723(7) 0.8044(2)
H1_2 H 0.0438 0.6540 0.7942
C3_2 C 0.0449(12) 0.4536(9) 0.78891(19)
O2_2 O 0.0399(11) 0.7057(6) 0.88124(15)
C4_2 C 0.0382(12) 0.4503(9) 0.8526(2)
H2_2 H 0.0293 0.4511 0.8737
N1_2 N 0.0475(11) 0.4424(7) 0.75619(18)
C5_2 C 0.0436(13) 0.3299(7) 0.83642(19)
C6_2 C 0.0493(14) 0.3302(9) 0.8055(2)
H3_2 H 0.0561 0.2495 0.7950
C7_2 C 0.0511(13) 0.7015(8) 0.8522(2)
C8_2 C 0.0383(14) 0.1972(9) 0.8542(3)
O5_2 O 0.0416(10) 0.1916(6) 0.66218(14)
C9_2 C 0.0464(13) 0.4339(9) 0.6635(2)
C10_2 C 0.0448(13) 0.4277(7) 0.6956(2)
H4_2 H 0.0438 0.3460 0.7058
C11_2 C 0.0449(12) 0.5464(9) 0.71109(19)
O6_2 O 0.0399(11) 0.2943(6) 0.61876(15)
C12_2 C 0.0382(12) 0.5497(9) 0.6474(2)
H5_2 H 0.0293 0.5489 0.6263
N2_2 N 0.0475(11) 0.5576(7) 0.74381(18)
C13_2 C 0.0436(13) 0.6701(7) 0.66358(19)
C14_2 C 0.0493(14) 0.6698(9) 0.6945(2)
H6_2 H 0.0561 0.7505 0.7050
C15_2 C 0.0511(13) 0.2985(8) 0.6478(2)
O7_2 O 0.0540(11) 0.8099(7) 0.61969(15)
C16_2 C 0.0383(14) 0.8028(9) 0.6458(3)
O8_2 O 0.0505(7) 0.9032(5) 0.66358(14)
O1_3 O 0.1916(6) 0.0416(10) 0.58782(14)
C1_3 C 0.4339(9) 0.0464(13) 0.5865(2)
C2_3 C 0.4277(7) 0.0448(13) 0.5544(2)
H1_3 H 0.3460 0.0438 0.5442
C3_3 C 0.5464(9) 0.0449(12) 0.53891(19)
O2_3 O 0.2943(6) 0.0399(11) 0.63124(15)
C4_3 C 0.5497(9) 0.0382(12) 0.6026(2)
H2_3 H 0.5489 0.0293 0.6237
N1_3 N 0.5576(7) 0.0475(11) 0.50619(18)
C5_3 C 0.6701(7) 0.0436(13) 0.58642(19)
C6_3 C 0.6698(9) 0.0493(14) 0.5555(2)
H3_3 H 0.7505 0.0561 0.5450
C7_3 C 0.2985(8) 0.0511(13) 0.6022(2)
O3 O 0.8099(7) 0.0540(11) 0.63031(15)
C8_3 C 0.8028(9) 0.0383(14) 0.6042(3)
O4 O 0.9032(5) 0.0505(7) 0.58642(14)
O5_3 O 0.8084(6) 0.0416(10) 0.41218(14)
C9_3 C 0.5661(9) 0.0464(13) 0.4135(2)
C10_3 C 0.5723(7) 0.0448(13) 0.4456(2)
H4_3 H 0.6540 0.0438 0.4558
C11_3 C 0.4536(9) 0.0449(12) 0.46109(19)
O6_3 O 0.7057(6) 0.0399(11) 0.36876(15)
C12_3 C 0.4503(9) 0.0382(12) 0.3974(2)
H5_3 H 0.4511 0.0293 0.3763
N2_3 N 0.4424(7) 0.0475(11) 0.49381(18)
C13_3 C 0.3299(7) 0.0436(13) 0.41358(19)
C14_3 C 0.3302(9) 0.0493(14) 0.4445(2)
H6_3 H 0.2495 0.0561 0.4550
C15_3 C 0.7015(8) 0.0511(13) 0.3978(2)
O7_3 O 0.1901(7) 0.0540(11) 0.36969(15)
C16_3 C 0.1972(9) 0.0383(14) 0.3958(3)
O8_3 O 0.0968(5) 0.0505(7) 0.41358(14)
In3 In 0.95299(6) 0.04701(6) 0.3750
O1_4 O 0.9584(10) 0.1916(6) 0.33782(14)
C1_4 C 0.9536(13) 0.4339(9) 0.3365(2)
C2_4 C 0.9552(13) 0.4277(7) 0.3044(2)
H1_4 H 0.9562 0.3460 0.2942
C3_4 C 0.9551(12) 0.5464(9) 0.28891(19)
O2_4 O 0.9601(11) 0.2943(6) 0.38124(15)
C4_4 C 0.9618(12) 0.5497(9) 0.3526(2)
H2_4 H 0.9707 0.5489 0.3737
N1_4 N 0.9525(11) 0.5576(7) 0.25619(18)
C5_4 C 0.9564(13) 0.6701(7) 0.33642(19)
C6_4 C 0.9507(14) 0.6698(9) 0.3055(2)
H3_4 H 0.9439 0.7505 0.2950
C7_4 C 0.9489(13) 0.2985(8) 0.3522(2)
O3_2 O 0.9460(11) 0.8099(7) 0.38031(15)
C8_4 C 0.9617(14) 0.8028(9) 0.3542(3)
O4_2 O 0.9495(7) 0.9032(5) 0.33642(14)
C9_4 C 0.9536(13) 0.5661(9) 0.1635(2)
C10_4 C 0.9552(13) 0.5723(7) 0.1956(2)
H4_4 H 0.9562 0.6540 0.2058
C11_4 C 0.9551(12) 0.4536(9) 0.21109(19)
C12_4 C 0.9618(12) 0.4503(9) 0.1474(2)
H5_4 H 0.9707 0.4511 0.1263
N2_4 N 0.9525(11) 0.4424(7) 0.24381(18)
C13_4 C 0.9564(13) 0.3299(7) 0.16358(19)
C14_4 C 0.9507(14) 0.3302(9) 0.1945(2)
H6_4 H 0.9439 0.2495 0.2050
C15_4 C 0.9489(13) 0.7015(8) 0.1478(2)
C16_4 C 0.9617(14) 0.1972(9) 0.1458(3)
loop_
_geom_bond_atom_site_label_1
_geom_bond_atom_site_label_2
_geom_bond_site_symmetry_1
_geom_bond_site_symmetry_2
In1 O1 1_555 1_555
O1 C7 1_555 1_555
C1 C2 1_555 1_555
C2 H1 1_555 1_555
C3 C2 1_555 1_555
O2 In1 1_555 1_555
C4 C1 1_555 1_555
H2 C4 1_555 1_555
N1 C3 1_555 1_555
C5 C4 1_555 1_555
C6 C3 1_555 1_555
H3 C6 1_555 1_555
C7 C1 1_555 1_555
O11 C8 1_555 1_555
C8 C5 1_555 1_555
O13 C8 1_555 1_555
O9 In1 1_555 1_555
O10 In1 1_555 1_555
O2 C7 1_555 1_555
C5 C6 1_555 1_555
O5 C15 1_555 1_555
C9 C10 1_555 1_555
C10 H4 1_555 1_555
C11 C10 1_555 1_555
O6 C15 1_555 1_555
C12 C9 1_555 1_555
H5 C12 1_555 1_555
C13 C12 1_555 1_555
C14 C11 1_555 1_555
H6 C14 1_555 1_555
C15 C9 1_555 1_555
O7 C16 1_555 1_555
C16 C13 1_555 1_555
O8 C16 1_555 1_555
In4 O5 1_555 1_555
C11 N2 1_555 1_555
O6 In4 1_555 1_555
C13 C14 1_555 1_555
In4 O1_2 1_555 1_555
O1_2 C7_2 1_555 1_555
C1_2 C2_2 1_555 1_555
C2_2 H1_2 1_555 1_555
C3_2 C2_2 1_555 1_555
O2_2 In4 1_555 1_555
C4_2 C1_2 1_555 1_555
H2_2 C4_2 1_555 1_555
N1_2 C3_2 1_555 1_555
C5_2 C4_2 1_555 1_555
C6_2 C3_2 1_555 1_555
H3_2 C6_2 1_555 1_555
C7_2 C1_2 1_555 1_555
O11_2 C8_2 1_555 1_555
C8_2 C5_2 1_555 1_555
O13_2 C8_2 1_555 1_555
O5_2 C15_2 1_555 1_555
C9_2 C10_2 1_555 1_555
C10_2 H4_2 1_555 1_555
C11_2 C10_2 1_555 1_555
O6_2 C15_2 1_555 1_555
C12_2 C9_2 1_555 1_555
H5_2 C12_2 1_555 1_555
N2_2 N1_2 1_555 1_555
C13_2 C12_2 1_555 1_555
C14_2 C11_2 1_555 1_555
H6_2 C14_2 1_555 1_555
C15_2 C9_2 1_555 1_555
O7_2 C16_2 1_555 1_555
C16_2 C13_2 1_555 1_555
O8_2 C16_2 1_555 1_555
In4_2 O5_2 1_555 1_555
O2_2 C7_2 1_555 1_555
C5_2 C6_2 1_555 1_555
C11_2 N2_2 1_555 1_555
O6_2 In4_2 1_555 1_555
C13_2 C14_2 1_555 1_555
In4_2 O1_3 1_555 1_555
O1_3 C7_3 1_555 1_555
C1_3 C2_3 1_555 1_555
C2_3 H1_3 1_555 1_555
C3_3 C2_3 1_555 1_555
O2_3 In4_2 1_555 1_555
C4_3 C1_3 1_555 1_555
H2_3 C4_3 1_555 1_555
N1_3 C3_3 1_555 1_555
C5_3 C4_3 1_555 1_555
C6_3 C3_3 1_555 1_555
H3_3 C6_3 1_555 1_555
C7_3 C1_3 1_555 1_555
O3 C8_3 1_555 1_555
C8_3 C5_3 1_555 1_555
O4 C8_3 1_555 1_555
O5_3 C15_3 1_555 1_555
C9_3 C10_3 1_555 1_555
C10_3 H4_3 1_555 1_555
C11_3 C10_3 1_555 1_555
O6_3 C15_3 1_555 1_555
C12_3 C9_3 1_555 1_555
H5_3 C12_3 1_555 1_555
N2_3 N1_3 1_555 1_555
C13_3 C12_3 1_555 1_555
C14_3 C11_3 1_555 1_555
H6_3 C14_3 1_555 1_555
C15_3 C9_3 1_555 1_555
O7_3 C16_3 1_555 1_555
C16_3 C13_3 1_555 1_555
O8_3 C16_3 1_555 1_555
In3 O5_3 1_555 1_555
O2_3 C7_3 1_555 1_555
C5_3 C6_3 1_555 1_555
C11_3 N2_3 1_555 1_555
O6_3 In3 1_555 1_555
C13_3 C14_3 1_555 1_555
In3 O1_4 1_555 1_555
O1_4 C7_4 1_555 1_555
C1_4 C2_4 1_555 1_555
C2_4 H1_4 1_555 1_555
C3_4 C2_4 1_555 1_555
O2_4 In3 1_555 1_555
C4_4 C1_4 1_555 1_555
H2_4 C4_4 1_555 1_555
N1_4 C3_4 1_555 1_555
C5_4 C4_4 1_555 1_555
C6_4 C3_4 1_555 1_555
H3_4 C6_4 1_555 1_555
C7_4 C1_4 1_555 1_555
O3_2 C8_4 1_555 1_555
C8_4 C5_4 1_555 1_555
O4_2 C8_4 1_555 1_555
O9 C15_4 1_555 1_555
C9_4 C10_4 1_555 1_555
C10_4 H4_4 1_555 1_555
C11_4 C10_4 1_555 1_555
O10 C15_4 1_555 1_555
C12_4 C9_4 1_555 1_555
H5_4 C12_4 1_555 1_555
N2_4 N1_4 1_555 1_555
C13_4 C12_4 1_555 1_555
C14_4 C11_4 1_555 1_555
H6_4 C14_4 1_555 1_555
C15_4 C9_4 1_555 1_555
O12 C16_4 1_555 1_555
C16_4 C13_4 1_555 1_555
O14 C16_4 1_555 1_555
O2_4 C7_4 1_555 1_555
C5_4 C6_4 1_555 1_555
C11_4 N2_4 1_555 1_555
C13_4 C14_4 1_555 1_555

#END
