
###############################################################################
#
# This file contains modified crystal structure data generated from the
# MOF subset of the Cambridge Structural Database (CSD) v543 
# hosted by the Cambridge Crystallographic Data Centre (CCDC).
#
# This work is licensed under the Creative Commons
# Attribution-NonCommercial-ShareAlike 4.0 International License.
# To view a copy of this license, visit
# http://creativecommons.org/licenses/by-nc-sa/4.0/
# or send a letter to
# Creative Commons, PO Box 1866, Mountain View, CA 94042, USA.
#
# CIF created using the CSD Python API on 29 September 2022
# The structure has been converted into the P1 space group
# The structure has a 3D framework
# The original CSD entry MUBQIJ is in the rhombohedral crystal system
# The framework has been calculated to contain at least 10.0% void space
# The void calculation uses a probe of radius 1.32A, grid spacing 0.4
# The framework is charged, counterions have been retained in the structure
#
###############################################################################

data_MUBQIJ
_chemical_formula_moiety         '(C576 H288 Ag32 N192 O126 10-)n'
_symmetry_cell_setting           triclinic
_symmetry_space_group_name_H-M   'P 1'
_symmetry_Int_Tables_number      1
_space_group_name_Hall           'P 1'
loop_
_symmetry_equiv_pos_site_id
_symmetry_equiv_pos_as_xyz
1 x,y,z
_cell_length_a                   32.2230(19)
_cell_length_b                   32.2230(19)
_cell_length_c                   20.8273(18)
_cell_angle_alpha                90
_cell_angle_beta                 90
_cell_angle_gamma                120.00
_cell_volume                     18728.2
loop_
_atom_site_label
_atom_site_type_symbol
_atom_site_fract_x
_atom_site_fract_y
_atom_site_fract_z
Ag1 Ag 0.14932(3) 0.04590(3) 0.23113(4)
Ag2 Ag 0.37039(3) 0.04775(3) 0.33030(4)
N1 N 0.3039(3) 0.0585(3) 0.3094(4)
N2 N 0.2205(3) 0.0574(3) 0.2686(4)
C1 C 0.2459(3) 0.0473(3) 0.2283(4)
C2 C 0.2876(3) 0.0474(3) 0.2493(4)
C3 C 0.2789(3) 0.0709(3) 0.3494(4)
C4 C 0.2955(4) 0.0842(4) 0.4142(5)
H1 H 0.3241 0.0853 0.4279
C5 C 0.2700(5) 0.0952(5) 0.4556(5)
H2 H 0.2803 0.1024 0.4990
C6 C 0.2284(5) 0.0961(5) 0.4358(5)
H3 H 0.2122 0.1057 0.4652
C7 C 0.2108(4) 0.0829(4) 0.3726(5)
H4 H 0.1825 0.0825 0.3591
C8 C 0.2370(3) 0.0702(4) 0.3303(4)
N3 N 0.1890(3) 0.0333(3) 0.1456(4)
N4 N 0.2421(3) 0.0126(3) 0.0576(3)
C9 C 0.2565(3) 0.0244(3) 0.1172(4)
C10 C 0.2292(3) 0.0352(3) 0.1632(4)
C11 C 0.1737(3) 0.0223(3) 0.0829(4)
C12 C 0.1320(3) 0.0204(4) 0.0642(5)
H5 H 0.1134 0.0264 0.0941
C13 C 0.1178(4) 0.0097(4) 0.0015(6)
C16 C 0.2016(3) 0.0125(3) 0.0386(4)
N5 N 0.3223(2) 0.0119(3) 0.0979(3)
N6 N 0.3522(2) 0.0320(3) 0.2259(3)
C17 C 0.3146(3) 0.0344(3) 0.2048(4)
C18 C 0.2996(3) 0.0232(3) 0.1390(4)
C19 C 0.3616(3) 0.0103(3) 0.1182(4)
C22 C 0.4414(4) 0.0059(4) 0.1606(6)
H11 H 0.4688 0.0046 0.1742
C23 C 0.4169(3) 0.0173(3) 0.2036(5)
H12 H 0.4269 0.0237 0.2472
C24 C 0.3764(3) 0.0195(3) 0.1830(4)
C41 C 0.0134(3) 0.0500(4) 0.2407(4)
N11 N 0.0234(2) 0.0949(3) 0.2369(4)
C42 C 0.0696(3) 0.1290(4) 0.2332(5)
C43 C 0.0828(4) 0.1784(6) 0.2267(6)
H21 H 0.0589 0.1875 0.2277
C44 C 0.1293(4) 0.2120(6) 0.2193(7)
H22 H 0.1375 0.2444 0.2128
C45 C 0.1654(4) 0.2006(6) 0.2210(7)
H23 H 0.1979 0.2255 0.2176
C46 C 0.1552(3) 0.1540(4) 0.2274(6)
H24 H 0.1802 0.1465 0.2283
C47 C 0.1064(3) 0.1172(4) 0.2326(5)
N12 N 0.0956(3) 0.0712(4) 0.2364(4)
C48 C 0.0495(3) 0.0372(4) 0.2400(4)
N13 N 0.4213(4) 0.0294(3) 0.6427(4)
N14 N 0.5036(4) 0.1128(3) 0.6019(4)
C49 C 0.4681(4) 0.0874(3) 0.5616(4)
C50 C 0.4265(4) 0.0457(3) 0.5826(4)
C51 C 0.4587(4) 0.0544(3) 0.6827(4)
C52 C 0.4554(6) 0.0378(4) 0.7475(5)
H25 H 0.4279 0.0092 0.7612
C53 C 0.4919(7) 0.0633(5) 0.7889(5)
H26 H 0.4888 0.0530 0.8323
C54 C 0.5344(7) 0.1049(5) 0.7691(5)
H27 H 0.5602 0.1211 0.7985
C55 C 0.5388(6) 0.1225(4) 0.7059(5)
H28 H 0.5667 0.1508 0.6924
C56 C 0.4999(5) 0.0963(3) 0.6636(4)
N15 N 0.5110(4) 0.1443(3) 0.4789(4)
N16 N 0.4372(4) 0.0912(3) 0.3909(3)
C57 C 0.4346(4) 0.0768(3) 0.4505(4)
C58 C 0.4727(4) 0.1041(3) 0.4965(4)
C59 C 0.5153(4) 0.1596(3) 0.4162(4)
C60 C 0.5551(5) 0.2013(3) 0.3975(5)
H29 H 0.5797 0.2199 0.4274
C61 C 0.5586(6) 0.2155(4) 0.3348(6)
H30 H 0.5863 0.2444 0.3217
C62 C 0.5241(7) 0.1900(5) 0.2908(5)
H31 H 0.5282 0.2011 0.2477
C63 C 0.4827(6) 0.1479(4) 0.3074(5)
H32 H 0.4585 0.1304 0.2765
C64 C 0.4776(4) 0.1317(3) 0.3719(4)
N17 N 0.3563(4) 0.0110(2) 0.4312(3)
C65 C 0.3865(4) 0.0187(3) 0.5381(4)
C66 C 0.3903(4) 0.0337(3) 0.4723(4)
Ag7 Ag 0.56325(4) 0.18401(3) 0.56446(4)
H6 H 0.0889 0.0085 0.9884
C14 C 0.1433(5) 0.0007(5) 0.9575(5)
C15 C 0.1854(4) 0.0014(4) 0.9741(5)
C20 C 0.3866(4) 0.9977(4) 0.0754(5)
H9 H 0.3765 0.9902 0.0320
C21 C 0.4268(4) 0.9962(4) 0.0971(6)
H10 H 0.4444 0.9885 0.0678
N7 N 0.0715(2) 0.9766(2) 0.2369(4)
C26 C 0.0366(3) 0.9866(3) 0.2407(4)
C27 C 0.0594(3) 0.9304(3) 0.2332(5)
C28 C 0.0956(4) 0.9172(4) 0.2267(6)
H13 H 0.1286 0.9411 0.2277
C29 C 0.0827(4) 0.8707(4) 0.2193(7)
H14 H 0.1069 0.8625 0.2128
C30 C 0.0352(4) 0.8346(4) 0.2210(7)
H15 H 0.0276 0.8021 0.2176
C32 C 0.0108(3) 0.8936(3) 0.2326(5)
N18 N 0.3465(4) 0.9811(2) 0.5592(3)
C67 C 0.3154(4) 0.9717(3) 0.4515(4)
C68 C 0.2778(6) 0.9467(4) 0.4087(5)
H33 H 0.2804 0.9568 0.3653
C69 C 0.2361(6) 0.9065(4) 0.4304(6)
H34 H 0.2108 0.8889 0.4011
C70 C 0.2312(6) 0.8919(4) 0.4939(6)
H35 H 0.2025 0.8645 0.5075
C71 C 0.2671(4) 0.9164(3) 0.5369(5)
H36 H 0.2635 0.9064 0.5805
C72 C 0.3098(4) 0.9569(3) 0.5163(4)
Ag6 Ag 0.34403(4) 0.96294(3) 0.66363(4)
N29 N 0.3207(3) 0.8962(4) 0.7243(3)
N30 N 0.3214(3) 0.9771(4) 0.7646(3)
H7 H 0.1322 0.9937 0.9144
H8 H 0.2029 0.9947 0.9432
Ag5 Ag 0.28558(3) 0.98931(4) 0.99697(4)
N27 N 0.2748(3) 0.9121(4) 0.9761(4)
N28 N 0.3013(3) 0.9869(4) 0.8926(3)
C38 C 0.8460(4) 0.0012(3) 0.2274(6)
H20 H 0.8535 0.0337 0.2283
N10 N 0.9288(4) 0.0244(2) 0.2364(4)
C40 C 0.9628(4) 0.0123(3) 0.2400(4)
Ag4 Ag 0.95410(3) 0.10342(4) 0.23113(4)
N25 N 0.9426(3) 0.1631(4) 0.2686(4)
N26 N 0.9667(3) 0.1557(4) 0.1456(4)
N8 N 0.9756(2) 0.9044(3) 0.2364(4)
C25 C 0.9877(3) 0.9505(3) 0.2400(4)
C31 C 0.9988(3) 0.8448(3) 0.2274(6)
H16 H 0.9663 0.8198 0.2283
C33 C 0.9500(4) 0.9634(3) 0.2407(4)
N9 N 0.9051(3) 0.9285(2) 0.2369(4)
C34 C 0.8710(4) 0.9406(3) 0.2332(5)
C35 C 0.8216(6) 0.9044(4) 0.2267(6)
H17 H 0.8125 0.8714 0.2277
C36 C 0.7880(6) 0.9173(4) 0.2193(7)
H18 H 0.7556 0.8931 0.2128
C37 C 0.7994(6) 0.9648(4) 0.2210(7)
H19 H 0.7745 0.9724 0.2176
C39 C 0.8828(4) 0.9892(3) 0.2326(5)
Ag3 Ag 0.89658(4) 0.85068(3) 0.23113(4)
N19 N 0.7546(4) 0.6961(3) 0.3094(4)
N20 N 0.8369(4) 0.7795(3) 0.2686(4)
C73 C 0.8014(4) 0.7541(3) 0.2283(4)
C74 C 0.7598(4) 0.7124(3) 0.2493(4)
C75 C 0.7920(4) 0.7211(3) 0.3494(4)
C76 C 0.7887(6) 0.7045(4) 0.4142(5)
H37 H 0.7612 0.6759 0.4279
C77 C 0.8252(7) 0.7300(5) 0.4556(5)
H38 H 0.8221 0.7197 0.4990
C78 C 0.8677(7) 0.7716(5) 0.4358(5)
H39 H 0.8935 0.7878 0.4652
C79 C 0.8721(6) 0.7892(4) 0.3726(5)
H40 H 0.9000 0.8175 0.3591
C80 C 0.8332(5) 0.7630(3) 0.3303(4)
N21 N 0.8443(4) 0.8110(3) 0.1456(4)
N22 N 0.7705(4) 0.7579(3) 0.0576(3)
C81 C 0.7679(4) 0.7435(3) 0.1172(4)
C82 C 0.8060(4) 0.7708(3) 0.1632(4)
C83 C 0.8486(4) 0.8263(3) 0.0829(4)
C84 C 0.8884(5) 0.8680(3) 0.0642(5)
H41 H 0.9130 0.8866 0.0941
C85 C 0.8919(6) 0.8822(4) 0.0015(6)
C88 C 0.8109(4) 0.7984(3) 0.0386(4)
N23 N 0.6896(4) 0.6777(2) 0.0979(3)
N24 N 0.6798(4) 0.6478(2) 0.2259(3)
C89 C 0.7198(4) 0.6854(3) 0.2048(4)
C90 C 0.7236(4) 0.7004(3) 0.1390(4)
C91 C 0.6487(4) 0.6384(3) 0.1182(4)
C92 C 0.6111(6) 0.6134(4) 0.0754(5)
H45 H 0.6137 0.6235 0.0320
C93 C 0.5694(6) 0.5732(4) 0.0971(6)
H46 H 0.5441 0.5556 0.0678
C94 C 0.5645(6) 0.5586(4) 0.1606(6)
H47 H 0.5358 0.5312 0.1742
C95 C 0.6004(4) 0.5831(3) 0.2036(5)
H48 H 0.5968 0.5731 0.2472
C96 C 0.6431(4) 0.6236(3) 0.1830(4)
Ag8 Ag 0.67736(4) 0.62961(3) 0.33030(4)
H42 H 0.9196 0.9111 0.9884
C86 C 0.8574(7) 0.8567(5) 0.9575(5)
H43 H 0.8615 0.8678 0.9144
C87 C 0.8160(6) 0.8146(4) 0.9741(5)
H44 H 0.7918 0.7971 0.9432
Ag9 Ag 0.70372(3) 0.71442(3) 0.99697(4)
C20_2 C 0.0023(4) 0.3889(6) 0.0754(5)
H9_2 H 0.0098 0.3863 0.0320
C21_2 C 0.0038(4) 0.4306(6) 0.0971(6)
H10_2 H 0.0115 0.4559 0.0678
N18_2 N 0.0189(2) 0.3653(4) 0.5592(3)
C67_2 C 0.0283(3) 0.3436(5) 0.4515(4)
C68_2 C 0.0533(4) 0.3310(7) 0.4087(5)
H33_2 H 0.0432 0.3235 0.3653
C69_2 C 0.0935(4) 0.3295(7) 0.4304(6)
H34_2 H 0.1111 0.3218 0.4011
C70_2 C 0.1081(4) 0.3392(7) 0.4939(6)
H35_2 H 0.1355 0.3379 0.5075
C71_2 C 0.0836(3) 0.3506(5) 0.5369(5)
H36_2 H 0.0936 0.3570 0.5805
C72_2 C 0.0431(3) 0.3528(5) 0.5163(4)
Ag6_2 Ag 0.03706(3) 0.38108(5) 0.66363(4)
N29_2 N 0.1038(4) 0.4246(5) 0.7243(3)
N30_2 N 0.0229(4) 0.3444(5) 0.7646(3)
H7_2 H 0.0063 0.1385 0.9144
H8_2 H 0.0053 0.2082 0.9432
Ag5_2 Ag 0.01069(4) 0.29628(5) 0.99697(4)
N27_2 N 0.0879(4) 0.3628(5) 0.9761(4)
N28_2 N 0.0131(4) 0.3145(5) 0.8926(3)
Ag2_2 Ag 0.95225(3) 0.32264(4) 0.33030(4)
N1_2 N 0.9415(3) 0.2454(4) 0.3094(4)
C1_2 C 0.9527(3) 0.1986(4) 0.2283(4)
C2_2 C 0.9526(3) 0.2402(4) 0.2493(4)
C3_2 C 0.9291(3) 0.2080(4) 0.3494(4)
C4_2 C 0.9158(4) 0.2113(6) 0.4142(5)
H1_2 H 0.9147 0.2388 0.4279
C5_2 C 0.9048(5) 0.1748(7) 0.4556(5)
H2_2 H 0.8976 0.1779 0.4990
C6_2 C 0.9039(5) 0.1323(7) 0.4358(5)
H3_2 H 0.8943 0.1065 0.4652
C7_2 C 0.9171(4) 0.1279(6) 0.3726(5)
H4_2 H 0.9175 0.1000 0.3591
C8_2 C 0.9298(4) 0.1668(5) 0.3303(4)
N4_2 N 0.9874(3) 0.2295(4) 0.0576(3)
C9_2 C 0.9756(3) 0.2321(4) 0.1172(4)
C10_2 C 0.9648(3) 0.1940(4) 0.1632(4)
C11_2 C 0.9777(3) 0.1514(4) 0.0829(4)
C12_2 C 0.9796(4) 0.1116(5) 0.0642(5)
H5_2 H 0.9736 0.0870 0.0941
C13_2 C 0.9903(4) 0.1081(6) 0.0015(6)
C16_2 C 0.9875(3) 0.1891(4) 0.0386(4)
N5_2 N 0.9881(3) 0.3104(4) 0.0979(3)
N6_2 N 0.9680(3) 0.3202(4) 0.2259(3)
C17_2 C 0.9656(3) 0.2802(4) 0.2048(4)
C18_2 C 0.9768(3) 0.2764(4) 0.1390(4)
C19_2 C 0.9897(3) 0.3513(4) 0.1182(4)
C22_2 C 0.9941(4) 0.4355(6) 0.1606(6)
H11_2 H 0.9954 0.4642 0.1742
C23_2 C 0.9827(3) 0.3996(4) 0.2036(5)
H12_2 H 0.9763 0.4032 0.2472
C24_2 C 0.9805(3) 0.3569(4) 0.1830(4)
N13_2 N 0.9706(3) 0.3918(5) 0.6427(4)
N14_2 N 0.8872(3) 0.3907(5) 0.6019(4)
C49_2 C 0.9126(3) 0.3806(5) 0.5616(4)
C50_2 C 0.9543(3) 0.3807(5) 0.5826(4)
C51_2 C 0.9456(3) 0.4042(5) 0.6827(4)
C52_2 C 0.9622(4) 0.4175(7) 0.7475(5)
H25_2 H 0.9908 0.4186 0.7612
C53_2 C 0.9367(5) 0.4285(9) 0.7889(5)
H26_2 H 0.9470 0.4357 0.8323
C54_2 C 0.8951(5) 0.4294(9) 0.7691(5)
H27_2 H 0.8789 0.4390 0.7985
C55_2 C 0.8775(4) 0.4162(7) 0.7059(5)
H28_2 H 0.8492 0.4158 0.6924
C56_2 C 0.9037(3) 0.4035(6) 0.6636(4)
N15_2 N 0.8557(3) 0.3666(5) 0.4789(4)
N16_2 N 0.9088(3) 0.3459(5) 0.3909(3)
C57_2 C 0.9232(3) 0.3577(5) 0.4505(4)
C58_2 C 0.8959(3) 0.3685(5) 0.4965(4)
C59_2 C 0.8404(3) 0.3556(5) 0.4162(4)
C60_2 C 0.7987(3) 0.3537(6) 0.3975(5)
H29_2 H 0.7801 0.3597 0.4274
C61_2 C 0.7845(4) 0.3430(7) 0.3348(6)
H30_2 H 0.7556 0.3418 0.3217
C62_2 C 0.8100(5) 0.3340(9) 0.2908(5)
H31_2 H 0.7989 0.3270 0.2477
C63_2 C 0.8521(4) 0.3347(7) 0.3074(5)
H32_2 H 0.8696 0.3280 0.2765
C64_2 C 0.8683(3) 0.3458(5) 0.3719(4)
N17_2 N 0.9890(2) 0.3452(4) 0.4312(3)
C65_2 C 0.9813(3) 0.3677(5) 0.5381(4)
C66_2 C 0.9663(3) 0.3565(5) 0.4723(4)
Ag7_2 Ag 0.81599(3) 0.37923(5) 0.56446(4)
H6_2 H 0.9915 0.0804 0.9884
C14_2 C 0.9993(5) 0.1426(7) 0.9575(5)
C15_2 C 0.9986(4) 0.1840(6) 0.9741(5)
N13_3 N 0.6082(5) 0.5787(4) 0.6427(4)
N14_3 N 0.6093(5) 0.4964(4) 0.6019(4)
C49_3 C 0.6194(5) 0.5319(4) 0.5616(4)
C50_3 C 0.6193(5) 0.5735(4) 0.5826(4)
C51_3 C 0.5958(5) 0.5413(4) 0.6827(4)
C52_3 C 0.5825(7) 0.5446(6) 0.7475(5)
H25_3 H 0.5814 0.5721 0.7612
C53_3 C 0.5715(9) 0.5081(7) 0.7889(5)
H26_3 H 0.5643 0.5112 0.8323
C54_3 C 0.5706(9) 0.4656(7) 0.7691(5)
H27_3 H 0.5610 0.4398 0.7985
C55_3 C 0.5838(7) 0.4612(6) 0.7059(5)
H28_3 H 0.5842 0.4333 0.6924
C56_3 C 0.5965(6) 0.5001(5) 0.6636(4)
N15_3 N 0.6334(5) 0.4890(4) 0.4789(4)
N16_3 N 0.6541(5) 0.5628(4) 0.3909(3)
C57_3 C 0.6423(5) 0.5654(4) 0.4505(4)
C58_3 C 0.6315(5) 0.5273(4) 0.4965(4)
C59_3 C 0.6444(5) 0.4847(4) 0.4162(4)
C60_3 C 0.6463(6) 0.4449(5) 0.3975(5)
H29_3 H 0.6403 0.4203 0.4274
C61_3 C 0.6570(7) 0.4414(6) 0.3348(6)
H30_3 H 0.6582 0.4137 0.3217
C62_3 C 0.6660(9) 0.4759(7) 0.2908(5)
H31_3 H 0.6730 0.4718 0.2477
C63_3 C 0.6653(7) 0.5173(6) 0.3074(5)
H32_3 H 0.6720 0.5415 0.2765
C64_3 C 0.6542(5) 0.5224(4) 0.3719(4)
N17_3 N 0.6548(4) 0.6437(4) 0.4312(3)
N18_3 N 0.6347(4) 0.6535(4) 0.5592(3)
C65_3 C 0.6323(5) 0.6135(4) 0.5381(4)
C66_3 C 0.6435(5) 0.6097(4) 0.4723(4)
C67_3 C 0.6564(5) 0.6846(4) 0.4515(4)
C68_3 C 0.6690(7) 0.7222(6) 0.4087(5)
H33_3 H 0.6765 0.7196 0.3653
C69_3 C 0.6705(7) 0.7639(6) 0.4304(6)
H34_3 H 0.6782 0.7892 0.4011
C70_3 C 0.6608(7) 0.7688(6) 0.4939(6)
H35_3 H 0.6621 0.7975 0.5075
C71_3 C 0.6494(5) 0.7329(4) 0.5369(5)
H36_3 H 0.6430 0.7365 0.5805
C72_3 C 0.6472(5) 0.6902(4) 0.5163(4)
Ag6_3 Ag 0.61892(5) 0.65597(4) 0.66363(4)
Ag7_3 Ag 0.62077(5) 0.43675(4) 0.56446(4)
N29_3 N 0.5754(5) 0.6793(3) 0.7243(3)
N30_3 N 0.6556(5) 0.6786(3) 0.7646(3)
N27_3 N 0.6372(5) 0.7252(3) 0.9761(4)
N28_3 N 0.6855(5) 0.6987(3) 0.8926(3)
C51_4 C 0.1253(4) 0.3878(3) 0.0161(4)
C52_4 C 0.1220(6) 0.3712(4) 0.0809(5)
H25_4 H 0.0945 0.3426 0.0946
C53_4 C 0.1585(7) 0.3967(5) 0.1223(5)
H26_4 H 0.1554 0.3864 0.1657
C54_4 C 0.2010(7) 0.4383(5) 0.1025(5)
H27_4 H 0.2268 0.4545 0.1319
C55_4 C 0.2054(6) 0.4559(4) 0.0393(5)
H28_4 H 0.2333 0.4842 0.0258
N14_4 N 0.1702(4) 0.4462(3) 0.9353(4)
C49_4 C 0.1347(4) 0.4208(3) 0.8950(4)
C50_4 C 0.0931(4) 0.3791(3) 0.9160(4)
C56_4 C 0.1665(5) 0.4297(3) 0.9970(4)
N15_4 N 0.1776(4) 0.4777(3) 0.8123(4)
C57_4 C 0.1012(4) 0.4102(3) 0.7839(4)
C58_4 C 0.1393(4) 0.4375(3) 0.8299(4)
C59_4 C 0.1819(4) 0.4930(3) 0.7496(4)
C60_4 C 0.2217(5) 0.5347(3) 0.7309(5)
H29_4 H 0.2463 0.5533 0.7608
C61_4 C 0.2252(6) 0.5489(4) 0.6682(6)
H30_4 H 0.2529 0.5778 0.6551
C62_4 C 0.1907(7) 0.5234(5) 0.6242(5)
H31_4 H 0.1948 0.5345 0.5811
C63_4 C 0.1493(6) 0.4813(4) 0.6408(5)
H32_4 H 0.1251 0.4638 0.6099
C64_4 C 0.1442(4) 0.4651(3) 0.7053(4)
C65_4 C 0.0531(4) 0.3521(3) 0.8715(4)
C66_4 C 0.0569(4) 0.3671(3) 0.8057(4)
Ag7_4 Ag 0.22991(4) 0.51735(3) 0.89780(4)
N7_2 N 0.7382(2) 0.3099(2) 0.5702(4)
N8_2 N 0.6423(2) 0.2377(3) 0.5697(4)
C25_2 C 0.6544(3) 0.2838(3) 0.5733(4)
C26_2 C 0.7033(3) 0.3199(3) 0.5740(4)
C27_2 C 0.7261(3) 0.2637(3) 0.5665(5)
C28_2 C 0.7623(4) 0.2505(4) 0.5600(6)
H13_2 H 0.7953 0.2744 0.5610
C29_2 C 0.7494(4) 0.2040(4) 0.5526(7)
H14_2 H 0.7736 0.1958 0.5461
C30_2 C 0.7019(4) 0.1679(4) 0.5543(7)
H15_2 H 0.6943 0.1354 0.5509
C31_2 C 0.6655(3) 0.1781(3) 0.5607(6)
H16_2 H 0.6330 0.1531 0.5616
C32_2 C 0.6775(3) 0.2269(3) 0.5659(5)
C33_2 C 0.6167(4) 0.2967(3) 0.5740(4)
N9_2 N 0.5718(3) 0.2618(2) 0.5702(4)
C34_2 C 0.5377(4) 0.2739(3) 0.5665(5)
C35_2 C 0.4883(6) 0.2377(4) 0.5600(6)
H17_2 H 0.4792 0.2047 0.5610
C36_2 C 0.4547(6) 0.2506(4) 0.5526(7)
H18_2 H 0.4223 0.2264 0.5461
C37_2 C 0.4661(6) 0.2981(4) 0.5543(7)
H19_2 H 0.4412 0.3057 0.5509
C38_2 C 0.5127(4) 0.3345(3) 0.5607(6)
H20_2 H 0.5202 0.3670 0.5616
C39_2 C 0.5495(4) 0.3225(3) 0.5659(5)
N10_2 N 0.5955(4) 0.3577(2) 0.5697(4)
C40_2 C 0.6295(4) 0.3456(3) 0.5733(4)
C41_2 C 0.6801(3) 0.3833(4) 0.5740(4)
N11_2 N 0.6901(2) 0.4282(3) 0.5702(4)
C42_2 C 0.7363(3) 0.4623(4) 0.5665(5)
C43_2 C 0.7495(4) 0.5117(6) 0.5600(6)
H21_2 H 0.7256 0.5208 0.5610
C44_2 C 0.7960(4) 0.5453(6) 0.5526(7)
H22_2 H 0.8042 0.5777 0.5461
C45_2 C 0.8321(4) 0.5339(6) 0.5543(7)
H23_2 H 0.8646 0.5588 0.5509
C46_2 C 0.8219(3) 0.4873(4) 0.5607(6)
H24_2 H 0.8469 0.4798 0.5616
C47_2 C 0.7731(3) 0.4505(4) 0.5659(5)
N12_2 N 0.7623(3) 0.4045(4) 0.5697(4)
C48_2 C 0.7162(3) 0.3705(4) 0.5733(4)
C67_4 C 0.9820(4) 0.3051(3) 0.7849(4)
C68_4 C 0.9444(6) 0.2801(4) 0.7421(5)
H33_4 H 0.9470 0.2902 0.6987
C69_4 C 0.9027(6) 0.2399(4) 0.7638(6)
H34_4 H 0.8774 0.2223 0.7345
C70_4 C 0.8978(6) 0.2253(4) 0.8273(6)
H35_4 H 0.8691 0.1979 0.8409
C71_4 C 0.9337(4) 0.2498(3) 0.8703(5)
H36_4 H 0.9301 0.2398 0.9139
C72_4 C 0.9764(4) 0.2903(3) 0.8497(4)
C51_5 C 0.6122(3) 0.7376(5) 0.0161(4)
C52_5 C 0.6288(4) 0.7509(7) 0.0809(5)
H25_5 H 0.6574 0.7520 0.0946
C53_5 C 0.6033(5) 0.7619(9) 0.1223(5)
H26_5 H 0.6136 0.7691 0.1657
C54_5 C 0.5617(5) 0.7628(9) 0.1025(5)
H27_5 H 0.5455 0.7724 0.1319
C55_5 C 0.5441(4) 0.7496(7) 0.0393(5)
H28_5 H 0.5158 0.7492 0.0258
N14_5 N 0.5538(3) 0.7241(5) 0.9353(4)
C49_5 C 0.5792(3) 0.7140(5) 0.8950(4)
C50_5 C 0.6209(3) 0.7141(5) 0.9160(4)
C56_5 C 0.5703(3) 0.7369(6) 0.9970(4)
N15_5 N 0.5223(3) 0.7000(5) 0.8123(4)
C57_5 C 0.5898(3) 0.6911(5) 0.7839(4)
C58_5 C 0.5625(3) 0.7019(5) 0.8299(4)
C59_5 C 0.5070(3) 0.6890(5) 0.7496(4)
C60_5 C 0.4653(3) 0.6871(6) 0.7309(5)
H29_5 H 0.4467 0.6931 0.7608
C61_5 C 0.4511(4) 0.6764(7) 0.6682(6)
H30_5 H 0.4222 0.6752 0.6551
C62_5 C 0.4766(5) 0.6674(9) 0.6242(5)
H31_5 H 0.4655 0.6604 0.5811
C63_5 C 0.5187(4) 0.6681(7) 0.6408(5)
H32_5 H 0.5362 0.6614 0.6099
C64_5 C 0.5349(3) 0.6792(5) 0.7053(4)
C65_5 C 0.6479(3) 0.7011(5) 0.8715(4)
C66_5 C 0.6329(3) 0.6899(5) 0.8057(4)
C67_5 C 0.6949(3) 0.6770(5) 0.7849(4)
C68_5 C 0.7199(4) 0.6644(7) 0.7421(5)
H33_5 H 0.7098 0.6569 0.6987
C69_5 C 0.7601(4) 0.6629(7) 0.7638(6)
H34_5 H 0.7777 0.6552 0.7345
C70_5 C 0.7747(4) 0.6726(7) 0.8273(6)
H35_5 H 0.8021 0.6713 0.8409
C71_5 C 0.7502(3) 0.6840(5) 0.8703(5)
H36_5 H 0.7602 0.6904 0.9139
C72_5 C 0.7097(3) 0.6862(5) 0.8497(4)
Ag7_5 Ag 0.48265(3) 0.71257(5) 0.89780(4)
C67_6 C 0.3230(5) 0.0180(4) 0.7849(4)
C68_6 C 0.3356(7) 0.0556(6) 0.7421(5)
H33_6 H 0.3431 0.0530 0.6987
C69_6 C 0.3371(7) 0.0973(6) 0.7638(6)
H34_6 H 0.3448 0.1226 0.7345
C70_6 C 0.3274(7) 0.1022(6) 0.8273(6)
H35_6 H 0.3287 0.1309 0.8409
C71_6 C 0.3160(5) 0.0663(4) 0.8703(5)
H36_6 H 0.3096 0.0699 0.9139
C72_6 C 0.3138(5) 0.0236(4) 0.8497(4)
C51_6 C 0.2624(5) 0.8747(4) 0.0161(4)
C52_6 C 0.2491(7) 0.8780(6) 0.0809(5)
H25_6 H 0.2480 0.9055 0.0946
C53_6 C 0.2381(9) 0.8415(7) 0.1223(5)
H26_6 H 0.2309 0.8446 0.1657
C54_6 C 0.2372(9) 0.7990(7) 0.1025(5)
H27_6 H 0.2276 0.7732 0.1319
C55_6 C 0.2504(7) 0.7946(6) 0.0393(5)
H28_6 H 0.2508 0.7667 0.0258
N14_6 N 0.2759(5) 0.8298(4) 0.9353(4)
C49_6 C 0.2860(5) 0.8653(4) 0.8950(4)
C50_6 C 0.2859(5) 0.9069(4) 0.9160(4)
C56_6 C 0.2631(6) 0.8335(5) 0.9970(4)
N15_6 N 0.3000(5) 0.8224(4) 0.8123(4)
C57_6 C 0.3089(5) 0.8988(4) 0.7839(4)
C58_6 C 0.2981(5) 0.8607(4) 0.8299(4)
C59_6 C 0.3110(5) 0.8181(4) 0.7496(4)
C60_6 C 0.3129(6) 0.7783(5) 0.7309(5)
H29_6 H 0.3069 0.7537 0.7608
C61_6 C 0.3236(7) 0.7748(6) 0.6682(6)
H30_6 H 0.3248 0.7471 0.6551
C62_6 C 0.3326(9) 0.8093(7) 0.6242(5)
H31_6 H 0.3396 0.8052 0.5811
C63_6 C 0.3319(7) 0.8507(6) 0.6408(5)
H32_6 H 0.3386 0.8749 0.6099
C64_6 C 0.3208(5) 0.8558(4) 0.7053(4)
C65_6 C 0.2989(5) 0.9469(4) 0.8715(4)
C66_6 C 0.3101(5) 0.9431(4) 0.8057(4)
Ag7_6 Ag 0.28743(5) 0.77009(4) 0.89780(4)
N7_3 N 0.4048(2) 0.6433(2) 0.9036(4)
N8_3 N 0.3089(2) 0.5711(3) 0.9031(4)
C25_3 C 0.3210(3) 0.6172(3) 0.9067(4)
C26_3 C 0.3699(3) 0.6533(3) 0.9074(4)
C27_3 C 0.3927(3) 0.5971(3) 0.8999(5)
C28_3 C 0.4289(4) 0.5839(4) 0.8934(6)
H13_3 H 0.4619 0.6078 0.8944
C29_3 C 0.4160(4) 0.5374(4) 0.8860(7)
H14_3 H 0.4402 0.5292 0.8795
C30_3 C 0.3685(4) 0.5013(4) 0.8877(7)
H15_3 H 0.3609 0.4688 0.8843
C31_3 C 0.3321(3) 0.5115(3) 0.8941(6)
H16_3 H 0.2996 0.4865 0.8950
C32_3 C 0.3441(3) 0.5603(3) 0.8993(5)
C33_3 C 0.2833(4) 0.6301(3) 0.9074(4)
N9_3 N 0.2384(3) 0.5952(2) 0.9036(4)
C34_3 C 0.2043(4) 0.6073(3) 0.8999(5)
C35_3 C 0.1549(6) 0.5711(4) 0.8934(6)
H17_3 H 0.1458 0.5381 0.8944
C36_3 C 0.1213(6) 0.5840(4) 0.8860(7)
H18_3 H 0.0889 0.5598 0.8795
C37_3 C 0.1327(6) 0.6315(4) 0.8877(7)
H19_3 H 0.1078 0.6391 0.8843
C38_3 C 0.1793(4) 0.6679(3) 0.8941(6)
H20_3 H 0.1868 0.7004 0.8950
C39_3 C 0.2161(4) 0.6559(3) 0.8993(5)
N10_3 N 0.2621(4) 0.6911(2) 0.9031(4)
C40_3 C 0.2961(4) 0.6790(3) 0.9067(4)
C41_3 C 0.3467(3) 0.7167(4) 0.9074(4)
N11_3 N 0.3567(2) 0.7616(3) 0.9036(4)
C42_3 C 0.4029(3) 0.7957(4) 0.8999(5)
C43_3 C 0.4161(4) 0.8451(6) 0.8934(6)
H21_3 H 0.3922 0.8542 0.8944
C44_3 C 0.4626(4) 0.8787(6) 0.8860(7)
H22_3 H 0.4708 0.9111 0.8795
C45_3 C 0.4987(4) 0.8673(6) 0.8877(7)
H23_3 H 0.5312 0.8922 0.8843
C46_3 C 0.4885(3) 0.8207(4) 0.8941(6)
H24_3 H 0.5135 0.8132 0.8950
C47_3 C 0.4397(3) 0.7839(4) 0.8993(5)
N12_3 N 0.4289(3) 0.7379(4) 0.9031(4)
C48_3 C 0.3828(3) 0.7039(4) 0.9067(4)
Ag1_2 Ag 0.71257(3) 0.22991(4) 0.10220(4)
Ag2_3 Ag 0.71442(3) 0.01069(4) 0.00303(4)
N1_3 N 0.7252(3) 0.0879(4) 0.0239(4)
N2_2 N 0.7241(3) 0.1702(4) 0.0647(4)
C1_3 C 0.7140(3) 0.1347(4) 0.1050(4)
C2_3 C 0.7141(3) 0.0931(4) 0.0840(4)
C8_3 C 0.7369(4) 0.1665(5) 0.0030(4)
N3_2 N 0.7000(3) 0.1776(4) 0.1877(4)
N4_3 N 0.6793(3) 0.1038(4) 0.2757(3)
C9_3 C 0.6911(3) 0.1012(4) 0.2161(4)
C10_3 C 0.7019(3) 0.1393(4) 0.1701(4)
C11_3 C 0.6890(3) 0.1819(4) 0.2504(4)
C12_3 C 0.6871(4) 0.2217(5) 0.2691(5)
H5_3 H 0.6931 0.2463 0.2392
C13_3 C 0.6764(4) 0.2252(6) 0.3318(6)
H6_3 H 0.6752 0.2529 0.3449
C14_3 C 0.6674(5) 0.1907(7) 0.3758(5)
H7_3 H 0.6604 0.1948 0.4189
C15_3 C 0.6681(4) 0.1493(6) 0.3592(5)
H8_3 H 0.6614 0.1251 0.3901
C16_3 C 0.6792(3) 0.1442(4) 0.2947(4)
N5_3 N 0.6786(3) 0.0229(4) 0.2354(3)
N6_3 N 0.6987(3) 0.0131(4) 0.1074(3)
C17_3 C 0.7011(3) 0.0531(4) 0.1285(4)
C18_3 C 0.6899(3) 0.0569(4) 0.1943(4)
N7_4 N 0.6433(2) 0.2384(3) 0.0964(4)
N8_4 N 0.5711(3) 0.2621(4) 0.0969(4)
C25_4 C 0.6172(3) 0.2961(4) 0.0933(4)
C26_4 C 0.6533(3) 0.2833(4) 0.0926(4)
C27_4 C 0.5971(3) 0.2043(4) 0.1001(5)
C28_4 C 0.5839(4) 0.1549(6) 0.1066(6)
H13_4 H 0.6078 0.1458 0.1056
C29_4 C 0.5374(4) 0.1213(6) 0.1140(7)
H14_4 H 0.5292 0.0889 0.1205
C30_4 C 0.5013(4) 0.1327(6) 0.1123(7)
H15_4 H 0.4688 0.1078 0.1157
C31_4 C 0.5115(3) 0.1793(4) 0.1059(6)
H16_4 H 0.4865 0.1868 0.1050
C32_4 C 0.5603(3) 0.2161(4) 0.1007(5)
C33_4 C 0.6301(3) 0.3467(5) 0.0926(4)
N9_4 N 0.5952(2) 0.3567(4) 0.0964(4)
C34_4 C 0.6073(3) 0.4029(5) 0.1001(5)
C35_4 C 0.5711(4) 0.4161(7) 0.1066(6)
H17_4 H 0.5381 0.3922 0.1056
C36_4 C 0.5840(4) 0.4626(7) 0.1140(7)
H18_4 H 0.5598 0.4708 0.1205
C37_4 C 0.6315(4) 0.4987(7) 0.1123(7)
H19_4 H 0.6391 0.5312 0.1157
C38_4 C 0.6679(3) 0.4885(5) 0.1059(6)
H20_4 H 0.7004 0.5135 0.1050
C39_4 C 0.6559(3) 0.4397(5) 0.1007(5)
N10_4 N 0.6911(2) 0.4289(4) 0.0969(4)
C40_4 C 0.6790(3) 0.3828(5) 0.0933(4)
C41_4 C 0.7167(4) 0.3699(5) 0.0926(4)
N11_4 N 0.7616(3) 0.4048(4) 0.0964(4)
C42_4 C 0.7957(4) 0.3927(5) 0.1001(5)
C43_4 C 0.8451(6) 0.4289(7) 0.1066(6)
H21_4 H 0.8542 0.4619 0.1056
C44_4 C 0.8787(6) 0.4160(7) 0.1140(7)
H22_4 H 0.9111 0.4402 0.1205
C45_4 C 0.8673(6) 0.3685(7) 0.1123(7)
H23_4 H 0.8922 0.3609 0.1157
C46_4 C 0.8207(4) 0.3321(5) 0.1059(6)
H24_4 H 0.8132 0.2996 0.1050
C47_4 C 0.7839(4) 0.3441(5) 0.1007(5)
N12_4 N 0.7379(4) 0.3089(5) 0.0969(4)
C48_4 C 0.7039(4) 0.3210(5) 0.0933(4)
Ag3_2 Ag 0.51735(3) 0.28743(5) 0.10220(4)
Ag4_2 Ag 0.77009(4) 0.48265(5) 0.10220(4)
Ag5_3 Ag 0.65597(4) 0.03706(5) 0.33637(4)
H31_7 H 0.8678 0.0063 0.0856
H32_7 H 0.7971 0.0053 0.0568
N19_2 N 0.3628(3) 0.2748(5) 0.0239(4)
N20_2 N 0.4462(3) 0.2759(5) 0.0647(4)
C73_2 C 0.4208(3) 0.2860(5) 0.1050(4)
C74_2 C 0.3791(3) 0.2859(5) 0.0840(4)
C80_2 C 0.4297(3) 0.2631(6) 0.0030(4)
N21_2 N 0.4777(3) 0.3000(5) 0.1877(4)
N22_2 N 0.4246(3) 0.3207(5) 0.2757(3)
C81_2 C 0.4102(3) 0.3089(5) 0.2161(4)
C82_2 C 0.4375(3) 0.2981(5) 0.1701(4)
C83_2 C 0.4930(3) 0.3110(5) 0.2504(4)
C84_2 C 0.5347(3) 0.3129(6) 0.2691(5)
H41_2 H 0.5533 0.3069 0.2392
C85_2 C 0.5489(4) 0.3236(7) 0.3318(6)
H42_2 H 0.5778 0.3248 0.3449
C86_2 C 0.5234(5) 0.3326(9) 0.3758(5)
H43_2 H 0.5345 0.3396 0.4189
C87_2 C 0.4813(4) 0.3319(7) 0.3592(5)
H44_2 H 0.4638 0.3386 0.3901
C88_2 C 0.4651(3) 0.3208(5) 0.2947(4)
N23_2 N 0.3444(2) 0.3214(4) 0.2354(3)
N24_2 N 0.3145(2) 0.3013(4) 0.1074(3)
C89_2 C 0.3521(3) 0.2989(5) 0.1285(4)
C90_2 C 0.3671(3) 0.3101(5) 0.1943(4)
C91_2 C 0.3051(3) 0.3230(5) 0.2151(4)
C92_2 C 0.2801(4) 0.3356(7) 0.2579(5)
H45_2 H 0.2902 0.3431 0.3013
C93_2 C 0.2399(4) 0.3371(7) 0.2362(6)
H46_2 H 0.2223 0.3448 0.2655
C94_2 C 0.2253(4) 0.3274(7) 0.1727(6)
H47_2 H 0.1979 0.3287 0.1591
C95_2 C 0.2498(3) 0.3160(5) 0.1297(5)
H48_2 H 0.2398 0.3096 0.0861
C96_2 C 0.2903(3) 0.3138(5) 0.1503(4)
N25_2 N 0.8298(4) 0.5538(5) 0.0647(4)
N26_2 N 0.8224(4) 0.5223(5) 0.1877(4)
N28_4 N 0.6535(4) 0.0189(5) 0.4408(3)
Ag8_2 Ag 0.29628(3) 0.28558(5) 0.00303(4)
Ag9_2 Ag 0.38108(3) 0.34403(4) 0.33637(4)
C3_3 C 0.7376(3) 0.1253(4) 0.9839(4)
C4_3 C 0.7509(4) 0.1220(6) 0.9191(5)
H1_3 H 0.7520 0.0945 0.9054
C5_3 C 0.7619(5) 0.1585(7) 0.8777(5)
H2_3 H 0.7691 0.1554 0.8343
C6_3 C 0.7628(5) 0.2010(7) 0.8975(5)
H3_3 H 0.7724 0.2268 0.8681
C7_3 C 0.7496(4) 0.2054(6) 0.9607(5)
H4_3 H 0.7492 0.2333 0.9742
C68_7 C 0.6134(4) 0.0023(7) 0.9246(5)
H33_7 H 0.6235 0.0098 0.9680
C69_7 C 0.5732(4) 0.0038(7) 0.9029(6)
H34_7 H 0.5556 0.0115 0.9322
C75_2 C 0.3878(3) 0.2624(5) 0.9839(4)
C76_2 C 0.3712(4) 0.2491(7) 0.9191(5)
H37_2 H 0.3426 0.2480 0.9054
C77_2 C 0.3967(5) 0.2381(9) 0.8777(5)
H38_2 H 0.3864 0.2309 0.8343
C78_2 C 0.4383(5) 0.2372(9) 0.8975(5)
H39_2 H 0.4545 0.2276 0.8681
C79_2 C 0.4559(4) 0.2504(7) 0.9607(5)
H40_2 H 0.4842 0.2508 0.9742
C19_3 C 0.6770(3) 0.9820(4) 0.2151(4)
C20_3 C 0.6644(4) 0.9444(6) 0.2579(5)
H9_3 H 0.6569 0.9470 0.3013
C21_3 C 0.6629(4) 0.9027(6) 0.2362(6)
H10_3 H 0.6552 0.8774 0.2655
C22_3 C 0.6726(4) 0.8978(6) 0.1727(6)
H11_3 H 0.6713 0.8691 0.1591
C23_3 C 0.6840(3) 0.9337(4) 0.1297(5)
H12_3 H 0.6904 0.9301 0.0861
C24_3 C 0.6862(3) 0.9764(4) 0.1503(4)
H30_7 H 0.9111 0.9915 0.0116
C62_7 C 0.8567(5) 0.9993(9) 0.0425(5)
C63_7 C 0.8146(4) 0.9986(7) 0.0259(5)
N27_4 N 0.5787(4) 0.9706(5) 0.3573(4)
N13_4 N 0.6961(3) 0.9415(5) 0.6906(4)
N14_7 N 0.7795(3) 0.9426(5) 0.7314(4)
C49_7 C 0.7541(3) 0.9527(5) 0.7717(4)
C50_7 C 0.7124(3) 0.9526(5) 0.7507(4)
C51_7 C 0.7211(3) 0.9291(5) 0.6506(4)
C52_7 C 0.7045(4) 0.9158(7) 0.5858(5)
H25_7 H 0.6759 0.9147 0.5721
C53_7 C 0.7300(5) 0.9048(9) 0.5444(5)
H26_7 H 0.7197 0.8976 0.5010
C54_7 C 0.7716(5) 0.9039(9) 0.5642(5)
H27_7 H 0.7878 0.8943 0.5348
C55_7 C 0.7892(4) 0.9171(7) 0.6274(5)
H28_7 H 0.8175 0.9175 0.6409
C56_7 C 0.7630(3) 0.9298(6) 0.6697(4)
N15_7 N 0.8110(3) 0.9667(5) 0.8544(4)
N16_4 N 0.7579(3) 0.9874(5) 0.9424(3)
C57_7 C 0.7435(3) 0.9756(5) 0.8828(4)
C58_7 C 0.7708(3) 0.9648(5) 0.8368(4)
C59_7 C 0.8263(3) 0.9777(5) 0.9171(4)
C60_7 C 0.8680(3) 0.9796(6) 0.9358(5)
H29_7 H 0.8866 0.9736 0.9059
C61_7 C 0.8822(4) 0.9903(7) 0.9985(6)
C64_7 C 0.7984(3) 0.9875(5) 0.9614(4)
N17_4 N 0.6777(2) 0.9881(4) 0.9021(3)
N18_4 N 0.6478(2) 0.9680(4) 0.7741(3)
C65_7 C 0.6854(3) 0.9656(5) 0.7952(4)
C66_7 C 0.7004(3) 0.9768(5) 0.8610(4)
C67_7 C 0.6384(3) 0.9897(5) 0.8818(4)
C70_7 C 0.5586(4) 0.9941(7) 0.8394(6)
H35_7 H 0.5312 0.9954 0.8258
C71_7 C 0.5831(3) 0.9827(5) 0.7964(5)
H36_7 H 0.5731 0.9763 0.7528
C72_7 C 0.6236(3) 0.9805(5) 0.8170(4)
Ag6_4 Ag 0.62961(3) 0.95225(5) 0.66970(4)
Ag7_7 Ag 0.85068(3) 0.95410(5) 0.76887(4)
N29_4 N 0.5628(4) 0.9088(5) 0.6091(3)
N30_4 N 0.6437(4) 0.9890(5) 0.5688(3)
C19_4 C 0.0180(4) 0.6949(3) 0.2151(4)
C20_4 C 0.0556(6) 0.7199(4) 0.2579(5)
H9_4 H 0.0530 0.7098 0.3013
C21_4 C 0.0973(6) 0.7601(4) 0.2362(6)
H10_4 H 0.1226 0.7777 0.2655
C22_4 C 0.1022(6) 0.7747(4) 0.1727(6)
H11_4 H 0.1309 0.8021 0.1591
C23_4 C 0.0663(4) 0.7502(3) 0.1297(5)
H12_4 H 0.0699 0.7602 0.0861
C24_4 C 0.0236(4) 0.7097(3) 0.1503(4)
H30_8 H 0.0085 0.9196 0.0116
C62_8 C 0.0007(9) 0.8574(7) 0.0425(5)
C63_8 C 0.0014(7) 0.8160(6) 0.0259(5)
N27_5 N 0.0294(5) 0.6082(3) 0.3573(4)
N13_5 N 0.0585(5) 0.7546(4) 0.6906(4)
N14_8 N 0.0574(5) 0.8369(4) 0.7314(4)
C49_8 C 0.0473(5) 0.8014(4) 0.7717(4)
C50_8 C 0.0474(5) 0.7598(4) 0.7507(4)
C51_8 C 0.0709(5) 0.7920(4) 0.6506(4)
C52_8 C 0.0842(7) 0.7887(6) 0.5858(5)
H25_8 H 0.0853 0.7612 0.5721
C53_8 C 0.0952(9) 0.8252(7) 0.5444(5)
H26_8 H 0.1024 0.8221 0.5010
C54_8 C 0.0961(9) 0.8677(7) 0.5642(5)
H27_8 H 0.1057 0.8935 0.5348
C55_8 C 0.0829(7) 0.8721(6) 0.6274(5)
H28_8 H 0.0825 0.9000 0.6409
C56_8 C 0.0702(6) 0.8332(5) 0.6697(4)
N15_8 N 0.0333(5) 0.8443(4) 0.8544(4)
N16_5 N 0.0126(5) 0.7705(4) 0.9424(3)
C57_8 C 0.0244(5) 0.7679(4) 0.8828(4)
C58_8 C 0.0352(5) 0.8060(4) 0.8368(4)
C59_8 C 0.0223(5) 0.8486(4) 0.9171(4)
C60_8 C 0.0204(6) 0.8884(5) 0.9358(5)
H29_8 H 0.0264 0.9130 0.9059
C61_8 C 0.0097(7) 0.8919(6) 0.9985(6)
C64_8 C 0.0125(5) 0.8109(4) 0.9614(4)
N17_5 N 0.0119(4) 0.6896(4) 0.9021(3)
N18_5 N 0.0320(4) 0.6798(4) 0.7741(3)
C65_8 C 0.0344(5) 0.7198(4) 0.7952(4)
C66_8 C 0.0232(5) 0.7236(4) 0.8610(4)
C67_8 C 0.0103(5) 0.6487(4) 0.8818(4)
C70_8 C 0.0059(7) 0.5645(6) 0.8394(6)
H35_8 H 0.0046 0.5358 0.8258
C71_8 C 0.0173(5) 0.6004(4) 0.7964(5)
H36_8 H 0.0237 0.5968 0.7528
C72_8 C 0.0195(5) 0.6431(4) 0.8170(4)
Ag6_5 Ag 0.04775(5) 0.67736(4) 0.66970(4)
Ag7_8 Ag 0.04590(5) 0.89658(4) 0.76887(4)
N29_5 N 0.0912(5) 0.6541(3) 0.6091(3)
N30_5 N 0.0110(5) 0.6548(3) 0.5688(3)
Ag2_4 Ag 0.98931(4) 0.70372(3) 0.00303(4)
N1_4 N 0.9121(4) 0.6372(3) 0.0239(4)
C1_4 C 0.8653(4) 0.5792(3) 0.1050(4)
C2_4 C 0.9069(4) 0.6209(3) 0.0840(4)
C8_4 C 0.8335(5) 0.5703(3) 0.0030(4)
N4_4 N 0.8962(4) 0.5754(3) 0.2757(3)
C9_4 C 0.8988(4) 0.5898(3) 0.2161(4)
C10_4 C 0.8607(4) 0.5625(3) 0.1701(4)
C11_4 C 0.8181(4) 0.5070(3) 0.2504(4)
C12_4 C 0.7783(5) 0.4653(3) 0.2691(5)
H5_4 H 0.7537 0.4467 0.2392
C13_4 C 0.7748(6) 0.4511(4) 0.3318(6)
H6_4 H 0.7471 0.4222 0.3449
C14_4 C 0.8093(7) 0.4766(5) 0.3758(5)
H7_4 H 0.8052 0.4655 0.4189
C15_4 C 0.8507(6) 0.5187(4) 0.3592(5)
H8_4 H 0.8749 0.5362 0.3901
C16_4 C 0.8558(4) 0.5349(3) 0.2947(4)
N5_4 N 0.9771(4) 0.6556(2) 0.2354(3)
N6_4 N 0.9869(4) 0.6855(2) 0.1074(3)
C17_4 C 0.9469(4) 0.6479(3) 0.1285(4)
C18_4 C 0.9431(4) 0.6329(3) 0.1943(4)
Ag5_4 Ag 0.96294(5) 0.61892(3) 0.33637(4)
H31_8 H 0.9937 0.8615 0.0856
H32_8 H 0.9947 0.7918 0.0568
N28_5 N 0.9811(5) 0.6347(3) 0.4408(3)
C3_4 C 0.8747(4) 0.6122(3) 0.9839(4)
C4_4 C 0.8780(6) 0.6288(4) 0.9191(5)
H1_4 H 0.9055 0.6574 0.9054
C5_4 C 0.8415(7) 0.6033(5) 0.8777(5)
H2_4 H 0.8446 0.6136 0.8343
C6_4 C 0.7990(7) 0.5617(5) 0.8975(5)
H3_4 H 0.7732 0.5455 0.8681
C7_4 C 0.7946(6) 0.5441(4) 0.9607(5)
H4_4 H 0.7667 0.5158 0.9742
C68_8 C 0.9977(7) 0.6111(6) 0.9246(5)
H33_8 H 0.9902 0.6137 0.9680
C69_8 C 0.9962(7) 0.5694(6) 0.9029(6)
H34_8 H 0.9885 0.5441 0.9322
H42_3 H 0.0804 0.0889 0.0116
C86_3 C 0.1426(7) 0.1433(5) 0.0425(5)
H43_3 H 0.1385 0.1322 0.0856
C87_3 C 0.1840(6) 0.1854(4) 0.0259(5)
H44_3 H 0.2082 0.2029 0.0568
N8_5 N 0.0244(2) 0.0956(3) 0.7636(4)
C25_5 C 0.0123(3) 0.0495(3) 0.7600(4)
C31_5 C 0.0012(3) 0.1552(3) 0.7726(6)
H16_5 H 0.0337 0.1802 0.7717
C33_5 C 0.0500(4) 0.0366(3) 0.7593(4)
N9_5 N 0.0949(3) 0.0715(2) 0.7631(4)
C34_5 C 0.1290(4) 0.0594(3) 0.7668(5)
C35_5 C 0.1784(6) 0.0956(4) 0.7733(6)
H17_5 H 0.1875 0.1286 0.7723
C36_5 C 0.2120(6) 0.0827(4) 0.7807(7)
H18_5 H 0.2444 0.1069 0.7872
C37_5 C 0.2006(6) 0.0352(4) 0.7790(7)
H19_5 H 0.2255 0.0276 0.7824
C39_5 C 0.1172(4) 0.0108(3) 0.7674(5)
Ag3_3 Ag 0.10342(4) 0.14932(3) 0.76887(4)
N19_3 N 0.2454(4) 0.3039(3) 0.6906(4)
N20_3 N 0.1631(4) 0.2205(3) 0.7314(4)
C73_3 C 0.1986(4) 0.2459(3) 0.7717(4)
C74_3 C 0.2402(4) 0.2876(3) 0.7507(4)
C75_3 C 0.2080(4) 0.2789(3) 0.6506(4)
C76_3 C 0.2113(6) 0.2955(4) 0.5858(5)
H37_3 H 0.2388 0.3241 0.5721
C77_3 C 0.1748(7) 0.2700(5) 0.5444(5)
H38_3 H 0.1779 0.2803 0.5010
C78_3 C 0.1323(7) 0.2284(5) 0.5642(5)
H39_3 H 0.1065 0.2122 0.5348
C79_3 C 0.1279(6) 0.2108(4) 0.6274(5)
H40_3 H 0.1000 0.1825 0.6409
C80_3 C 0.1668(5) 0.2370(3) 0.6697(4)
N21_3 N 0.1557(4) 0.1890(3) 0.8544(4)
N22_3 N 0.2295(4) 0.2421(3) 0.9424(3)
C81_3 C 0.2321(4) 0.2565(3) 0.8828(4)
C82_3 C 0.1940(4) 0.2292(3) 0.8368(4)
C83_3 C 0.1514(4) 0.1737(3) 0.9171(4)
C84_3 C 0.1116(5) 0.1320(3) 0.9358(5)
H41_3 H 0.0870 0.1134 0.9059
C85_3 C 0.1081(6) 0.1178(4) 0.9985(6)
C88_3 C 0.1891(4) 0.2016(3) 0.9614(4)
N23_3 N 0.3104(4) 0.3223(2) 0.9021(3)
N24_3 N 0.3202(4) 0.3522(2) 0.7741(3)
C89_3 C 0.2802(4) 0.3146(3) 0.7952(4)
C90_3 C 0.2764(4) 0.2996(3) 0.8610(4)
C91_3 C 0.3513(4) 0.3616(3) 0.8818(4)
C92_3 C 0.3889(6) 0.3866(4) 0.9246(5)
H45_3 H 0.3863 0.3765 0.9680
C93_3 C 0.4306(6) 0.4268(4) 0.9029(6)
H46_3 H 0.4559 0.4444 0.9322
C94_3 C 0.4355(6) 0.4414(4) 0.8394(6)
H47_3 H 0.4642 0.4688 0.8258
C95_3 C 0.3996(4) 0.4169(3) 0.7964(5)
H48_3 H 0.4032 0.4269 0.7528
C96_3 C 0.3569(4) 0.3764(3) 0.8170(4)
Ag8_3 Ag 0.32264(4) 0.37039(3) 0.66970(4)
C38_5 C 0.1540(4) 0.9988(3) 0.7726(6)
H20_5 H 0.1465 0.9663 0.7717
N10_5 N 0.0712(4) 0.9756(2) 0.7636(4)
C40_5 C 0.0372(4) 0.9877(3) 0.7600(4)
N7_5 N 0.9285(2) 0.0234(2) 0.7631(4)
C26_5 C 0.9634(3) 0.0134(3) 0.7593(4)
C27_5 C 0.9406(3) 0.0696(3) 0.7668(5)
C28_5 C 0.9044(4) 0.0828(4) 0.7733(6)
H13_5 H 0.8714 0.0589 0.7723
C29_5 C 0.9173(4) 0.1293(4) 0.7807(7)
H14_5 H 0.8931 0.1375 0.7872
C30_5 C 0.9648(4) 0.1654(4) 0.7790(7)
H15_5 H 0.9724 0.1979 0.7824
C32_5 C 0.9892(3) 0.1064(3) 0.7674(5)
C67_9 C 0.6846(4) 0.0283(3) 0.5485(4)
C68_9 C 0.7222(6) 0.0533(4) 0.5913(5)
H33_9 H 0.7196 0.0432 0.6347
C69_9 C 0.7639(6) 0.0935(4) 0.5696(6)
H34_9 H 0.7892 0.1111 0.5989
C70_9 C 0.7688(6) 0.1081(4) 0.5061(6)
H35_9 H 0.7975 0.1355 0.4925
C71_9 C 0.7329(4) 0.0836(3) 0.4631(5)
H36_9 H 0.7365 0.0936 0.4195
C72_9 C 0.6902(4) 0.0431(3) 0.4837(4)
C41_5 C 0.9866(3) 0.9500(4) 0.7593(4)
N11_5 N 0.9766(2) 0.9051(3) 0.7631(4)
C42_5 C 0.9304(3) 0.8710(4) 0.7668(5)
C43_5 C 0.9172(4) 0.8216(6) 0.7733(6)
H21_5 H 0.9411 0.8125 0.7723
C44_5 C 0.8707(4) 0.7880(6) 0.7807(7)
H22_5 H 0.8625 0.7556 0.7872
C45_5 C 0.8346(4) 0.7994(6) 0.7790(7)
H23_5 H 0.8021 0.7745 0.7824
C46_5 C 0.8448(3) 0.8460(4) 0.7726(6)
H24_5 H 0.8198 0.8535 0.7717
C47_5 C 0.8936(3) 0.8828(4) 0.7674(5)
N12_5 N 0.9044(3) 0.9288(4) 0.7636(4)
C48_5 C 0.9505(3) 0.9628(4) 0.7600(4)
N14_9 N 0.4964(4) 0.8872(3) 0.3981(4)
C49_9 C 0.5319(4) 0.9126(3) 0.4384(4)
C50_9 C 0.5735(4) 0.9543(3) 0.4174(4)
C51_9 C 0.5413(4) 0.9456(3) 0.3173(4)
C52_9 C 0.5446(6) 0.9622(4) 0.2525(5)
H25_9 H 0.5721 0.9908 0.2388
C53_9 C 0.5081(7) 0.9367(5) 0.2111(5)
H26_9 H 0.5112 0.9470 0.1677
C54_9 C 0.4656(7) 0.8951(5) 0.2309(5)
H27_9 H 0.4398 0.8789 0.2015
C55_9 C 0.4612(6) 0.8775(4) 0.2941(5)
H28_9 H 0.4333 0.8492 0.3076
C56_9 C 0.5001(5) 0.9037(3) 0.3364(4)
N15_9 N 0.4890(4) 0.8557(3) 0.5211(4)
C57_9 C 0.5654(4) 0.9232(3) 0.5495(4)
C58_9 C 0.5273(4) 0.8959(3) 0.5035(4)
C59_9 C 0.4847(4) 0.8404(3) 0.5838(4)
C60_9 C 0.4449(5) 0.7987(3) 0.6025(5)
H29_9 H 0.4203 0.7801 0.5726
C61_9 C 0.4414(6) 0.7845(4) 0.6652(6)
H30_9 H 0.4137 0.7556 0.6783
C62_9 C 0.4759(7) 0.8100(5) 0.7092(5)
H31_9 H 0.4718 0.7989 0.7523
C63_9 C 0.5173(6) 0.8521(4) 0.6926(5)
H32_9 H 0.5415 0.8696 0.7235
C64_9 C 0.5224(4) 0.8683(3) 0.6281(4)
C65_9 C 0.6135(4) 0.9813(3) 0.4619(4)
C66_9 C 0.6097(4) 0.9663(3) 0.5277(4)
Ag7_9 Ag 0.43675(4) 0.81599(3) 0.43554(4)
N14_10 N 0.1128(3) 0.6093(5) 0.3981(4)
C49_10 C 0.0874(3) 0.6194(5) 0.4384(4)
C50_10 C 0.0457(3) 0.6193(5) 0.4174(4)
C51_10 C 0.0544(3) 0.5958(5) 0.3173(4)
C52_10 C 0.0378(4) 0.5825(7) 0.2525(5)
H25_10 H 0.0092 0.5814 0.2388
C53_10 C 0.0633(5) 0.5715(9) 0.2111(5)
H26_10 H 0.0530 0.5643 0.1677
C54_10 C 0.1049(5) 0.5706(9) 0.2309(5)
H27_10 H 0.1211 0.5610 0.2015
C55_10 C 0.1225(4) 0.5838(7) 0.2941(5)
H28_10 H 0.1508 0.5842 0.3076
C56_10 C 0.0963(3) 0.5965(6) 0.3364(4)
N15_10 N 0.1443(3) 0.6334(5) 0.5211(4)
C57_10 C 0.0768(3) 0.6423(5) 0.5495(4)
C58_10 C 0.1041(3) 0.6315(5) 0.5035(4)
C59_10 C 0.1596(3) 0.6444(5) 0.5838(4)
C60_10 C 0.2013(3) 0.6463(6) 0.6025(5)
H29_10 H 0.2199 0.6403 0.5726
C61_10 C 0.2155(4) 0.6570(7) 0.6652(6)
H30_10 H 0.2444 0.6582 0.6783
C62_10 C 0.1900(5) 0.6660(9) 0.7092(5)
H31_10 H 0.2011 0.6730 0.7523
C63_10 C 0.1479(4) 0.6653(7) 0.6926(5)
H32_10 H 0.1304 0.6720 0.7235
C64_10 C 0.1317(3) 0.6542(5) 0.6281(4)
C65_10 C 0.0187(3) 0.6323(5) 0.4619(4)
C66_10 C 0.0337(3) 0.6435(5) 0.5277(4)
Ag7_10 Ag 0.18401(3) 0.62077(5) 0.43554(4)
C67_10 C 0.9717(3) 0.6564(5) 0.5485(4)
C68_10 C 0.9467(4) 0.6690(7) 0.5913(5)
H33_10 H 0.9568 0.6765 0.6347
C69_10 C 0.9065(4) 0.6705(7) 0.5696(6)
H34_10 H 0.8889 0.6782 0.5989
C70_10 C 0.8919(4) 0.6608(7) 0.5061(6)
H35_10 H 0.8645 0.6621 0.4925
C71_10 C 0.9164(3) 0.6494(5) 0.4631(5)
H36_10 H 0.9064 0.6430 0.4195
C72_10 C 0.9569(3) 0.6472(5) 0.4837(4)
N13_6 N 0.3918(5) 0.4213(4) 0.3573(4)
N14_11 N 0.3907(5) 0.5036(4) 0.3981(4)
C49_11 C 0.3806(5) 0.4681(4) 0.4384(4)
C50_11 C 0.3807(5) 0.4265(4) 0.4174(4)
C51_11 C 0.4042(5) 0.4587(4) 0.3173(4)
C52_11 C 0.4175(7) 0.4554(6) 0.2525(5)
H25_11 H 0.4186 0.4279 0.2388
C53_11 C 0.4285(9) 0.4919(7) 0.2111(5)
H26_11 H 0.4357 0.4888 0.1677
C54_11 C 0.4294(9) 0.5344(7) 0.2309(5)
H27_11 H 0.4390 0.5602 0.2015
C55_11 C 0.4162(7) 0.5388(6) 0.2941(5)
H28_11 H 0.4158 0.5667 0.3076
C56_11 C 0.4035(6) 0.4999(5) 0.3364(4)
N15_11 N 0.3666(5) 0.5110(4) 0.5211(4)
N16_6 N 0.3459(5) 0.4372(4) 0.6091(3)
C57_11 C 0.3577(5) 0.4346(4) 0.5495(4)
C58_11 C 0.3685(5) 0.4727(4) 0.5035(4)
C59_11 C 0.3556(5) 0.5153(4) 0.5838(4)
C60_11 C 0.3537(6) 0.5551(5) 0.6025(5)
H29_11 H 0.3597 0.5797 0.5726
C61_11 C 0.3430(7) 0.5586(6) 0.6652(6)
H30_11 H 0.3418 0.5863 0.6783
C62_11 C 0.3340(9) 0.5241(7) 0.7092(5)
H31_11 H 0.3270 0.5282 0.7523
C63_11 C 0.3347(7) 0.4827(6) 0.6926(5)
H32_11 H 0.3280 0.4585 0.7235
C64_11 C 0.3458(5) 0.4776(4) 0.6281(4)
N17_6 N 0.3452(4) 0.3563(4) 0.5688(3)
N18_6 N 0.3653(4) 0.3465(4) 0.4408(3)
C65_11 C 0.3677(5) 0.3865(4) 0.4619(4)
C66_11 C 0.3565(5) 0.3903(4) 0.5277(4)
C67_11 C 0.3436(5) 0.3154(4) 0.5485(4)
C68_11 C 0.3310(7) 0.2778(6) 0.5913(5)
H33_11 H 0.3235 0.2804 0.6347
C69_11 C 0.3295(7) 0.2361(6) 0.5696(6)
H34_11 H 0.3218 0.2108 0.5989
C70_11 C 0.3392(7) 0.2312(6) 0.5061(6)
H35_11 H 0.3379 0.2025 0.4925
C71_11 C 0.3506(5) 0.2671(4) 0.4631(5)
H36_11 H 0.3570 0.2635 0.4195
C72_11 C 0.3528(5) 0.3098(4) 0.4837(4)
Ag7_11 Ag 0.37923(5) 0.56325(4) 0.43554(4)
N7_6 N 0.2618(2) 0.6901(2) 0.4298(4)
N8_6 N 0.3577(2) 0.7623(3) 0.4303(4)
C25_6 C 0.3456(3) 0.7162(3) 0.4267(4)
C26_6 C 0.2967(3) 0.6801(3) 0.4260(4)
C27_6 C 0.2739(3) 0.7363(3) 0.4335(5)
C28_6 C 0.2377(4) 0.7495(4) 0.4400(6)
H13_6 H 0.2047 0.7256 0.4390
C29_6 C 0.2506(4) 0.7960(4) 0.4474(7)
H14_6 H 0.2264 0.8042 0.4539
C30_6 C 0.2981(4) 0.8321(4) 0.4457(7)
H15_6 H 0.3057 0.8646 0.4491
C31_6 C 0.3345(3) 0.8219(3) 0.4393(6)
H16_6 H 0.3670 0.8469 0.4384
C32_6 C 0.3225(3) 0.7731(3) 0.4341(5)
C33_6 C 0.3833(4) 0.7033(3) 0.4260(4)
N9_6 N 0.4282(3) 0.7382(2) 0.4298(4)
C34_6 C 0.4623(4) 0.7261(3) 0.4335(5)
C35_6 C 0.5117(6) 0.7623(4) 0.4400(6)
H17_6 H 0.5208 0.7953 0.4390
C36_6 C 0.5453(6) 0.7494(4) 0.4474(7)
H18_6 H 0.5777 0.7736 0.4539
C37_6 C 0.5339(6) 0.7019(4) 0.4457(7)
H19_6 H 0.5588 0.6943 0.4491
C38_6 C 0.4873(4) 0.6655(3) 0.4393(6)
H20_6 H 0.4798 0.6330 0.4384
C39_6 C 0.4505(4) 0.6775(3) 0.4341(5)
N10_6 N 0.4045(4) 0.6423(2) 0.4303(4)
C40_6 C 0.3705(4) 0.6544(3) 0.4267(4)
C41_6 C 0.3199(3) 0.6167(4) 0.4260(4)
N11_6 N 0.3099(2) 0.5718(3) 0.4298(4)
C42_6 C 0.2637(3) 0.5377(4) 0.4335(5)
C43_6 C 0.2505(4) 0.4883(6) 0.4400(6)
H21_6 H 0.2744 0.4792 0.4390
C44_6 C 0.2040(4) 0.4547(6) 0.4474(7)
H22_6 H 0.1958 0.4223 0.4539
C45_6 C 0.1679(4) 0.4661(6) 0.4457(7)
H23_6 H 0.1354 0.4412 0.4491
C46_6 C 0.1781(3) 0.5127(4) 0.4393(6)
H24_6 H 0.1531 0.5202 0.4384
C47_6 C 0.2269(3) 0.5495(4) 0.4341(5)
N12_6 N 0.2377(3) 0.5955(4) 0.4303(4)
C48_6 C 0.2838(3) 0.6295(4) 0.4267(4)
N31 N 0.4181(4) 0.9642(5) 0.9053(7)
O1 O 0.3946(5) 0.9396(8) 0.8629(9)
O2 O 0.3923(6) 0.9298(6) 0.9470(12)
O3 O 0.4600(3) 0.9815(4) 0.9174(5)
N31_2 N 0.0358(5) 0.4539(6) 0.9053(7)
O1_2 O 0.0604(8) 0.4550(9) 0.8629(9)
O2_2 O 0.0702(6) 0.4625(8) 0.9470(12)
O3_2 O 0.0185(4) 0.4785(5) 0.9174(5)
N31_3 N 0.5461(6) 0.5819(4) 0.9053(7)
O1_3 O 0.5450(9) 0.6054(5) 0.8629(9)
O2_3 O 0.5375(8) 0.6077(6) 0.9470(12)
O3_3 O 0.5215(5) 0.5400(3) 0.9174(5)
N31_4 N 0.0848(4) 0.2975(5) 0.2386(7)
O1_4 O 0.0613(5) 0.2729(8) 0.1962(9)
O2_4 O 0.0590(6) 0.2631(6) 0.2803(12)
O3_4 O 0.1267(3) 0.3148(4) 0.2507(5)
N31_5 N 0.7025(5) 0.7872(6) 0.2386(7)
O1_5 O 0.7271(8) 0.7883(9) 0.1962(9)
O2_5 O 0.7369(6) 0.7958(8) 0.2803(12)
O3_5 O 0.6852(4) 0.8118(5) 0.2507(5)
N31_6 N 0.2128(6) 0.9152(4) 0.2386(7)
O1_6 O 0.2117(9) 0.9387(5) 0.1962(9)
O2_6 O 0.2042(8) 0.9410(6) 0.2803(12)
O3_6 O 0.1882(5) 0.8733(3) 0.2507(5)
N31_7 N 0.7514(4) 0.6309(5) 0.5720(7)
O1_7 O 0.7279(5) 0.6063(8) 0.5296(9)
O2_7 O 0.7256(6) 0.5965(6) 0.6137(12)
O3_7 O 0.7933(3) 0.6482(4) 0.5841(5)
N31_8 N 0.6309(5) 0.8794(6) 0.4280(7)
O1_8 O 0.6063(8) 0.8783(9) 0.4704(9)
O2_8 O 0.5965(6) 0.8708(8) 0.3863(12)
O3_8 O 0.6482(4) 0.8548(5) 0.4159(5)
N31_9 N 0.1206(6) 0.7514(4) 0.4280(7)
O1_9 O 0.1217(9) 0.7279(5) 0.4704(9)
O2_9 O 0.1292(8) 0.7256(6) 0.3863(12)
O3_9 O 0.1452(5) 0.7933(3) 0.4159(5)
N31_10 N 0.5819(4) 0.0358(5) 0.0947(7)
O1_10 O 0.6054(5) 0.0604(8) 0.1371(9)
O2_10 O 0.6077(6) 0.0702(6) 0.0530(12)
O3_10 O 0.5400(3) 0.0185(4) 0.0826(5)
N31_11 N 0.9642(5) 0.5461(6) 0.0947(7)
O1_11 O 0.9396(8) 0.5450(9) 0.1371(9)
O2_11 O 0.9298(6) 0.5375(8) 0.0530(12)
O3_11 O 0.9815(4) 0.5215(5) 0.0826(5)
N31_12 N 0.4539(6) 0.4181(4) 0.0947(7)
O1_12 O 0.4550(9) 0.3946(5) 0.1371(9)
O2_12 O 0.4625(8) 0.3923(6) 0.0530(12)
O3_12 O 0.4785(5) 0.4600(3) 0.0826(5)
N31_13 N 0.9152(4) 0.7025(5) 0.7614(7)
O1_13 O 0.9387(5) 0.7271(8) 0.8038(9)
O2_13 O 0.9410(6) 0.7369(6) 0.7197(12)
O3_13 O 0.8733(3) 0.6852(4) 0.7493(5)
N31_14 N 0.2975(5) 0.2128(6) 0.7614(7)
O1_14 O 0.2729(8) 0.2117(9) 0.8038(9)
O2_14 O 0.2631(6) 0.2042(8) 0.7197(12)
O3_14 O 0.3148(4) 0.1882(5) 0.7493(5)
N31_15 N 0.7872(6) 0.0848(4) 0.7614(7)
O1_15 O 0.7883(9) 0.0613(5) 0.8038(9)
O2_15 O 0.7958(8) 0.0590(6) 0.7197(12)
O3_15 O 0.8118(5) 0.1267(3) 0.7493(5)
N31_16 N 0.2486(4) 0.3691(5) 0.4280(7)
O1_16 O 0.2721(5) 0.3937(8) 0.4704(9)
O2_16 O 0.2744(6) 0.4035(6) 0.3863(12)
O3_16 O 0.2067(3) 0.3518(4) 0.4159(5)
N31_17 N 0.3691(5) 0.1206(6) 0.5720(7)
O1_17 O 0.3937(8) 0.1217(9) 0.5296(9)
O2_17 O 0.4035(6) 0.1292(8) 0.6137(12)
O3_17 O 0.3518(4) 0.1452(5) 0.5841(5)
N31_18 N 0.8794(6) 0.2486(4) 0.5720(7)
O1_18 O 0.8783(9) 0.2721(5) 0.5296(9)
O2_18 O 0.8708(8) 0.2744(6) 0.6137(12)
O3_18 O 0.8548(5) 0.2067(3) 0.5841(5)
N32 N 0.0000 0.0000 0.0966(7)
O4 O 0.0374(3) 0.0398(3) 0.0992(4)
N32_2 N -0.0000 1.0000 0.0966(7)
O6 O 0.0024(4) 0.9626(3) 0.0992(4)
N32_3 N 1.0000 0.0000 0.0966(7)
N32_4 N 1.0000 1.0000 0.0966(7)
O5 O 0.9602(3) 0.9976(4) 0.0992(4)
N32_5 N 0.6667 0.3333 0.4299(7)
O4_2 O 0.7041(3) 0.3731(3) 0.4325(4)
O5_2 O 0.6269(3) 0.3309(4) 0.4325(4)
O6_2 O 0.6691(4) 0.2959(3) 0.4325(4)
N32_6 N 0.3333 0.6667 0.7633(7)
O4_3 O 0.3707(3) 0.7065(3) 0.7659(4)
O5_3 O 0.2935(3) 0.6643(4) 0.7659(4)
O6_3 O 0.3357(4) 0.6293(3) 0.7659(4)
N32_7 N 0.6667 0.3333 0.2367(7)
O4_4 O 0.7065(3) 0.3357(4) 0.2341(4)
O5_4 O 0.6643(4) 0.3707(5) 0.2341(4)
O6_4 O 0.6293(3) 0.2935(5) 0.2341(4)
N32_8 N 0.0000 0.0000 0.9034(7)
O5_5 O 0.0398(3) 0.0024(4) 0.9008(4)
N32_9 N -0.0000 1.0000 0.9034(7)
N32_10 N 1.0000 0.0000 0.9034(7)
O6_5 O 0.9976(4) 0.0374(3) 0.9008(4)
N32_11 N 1.0000 1.0000 0.9034(7)
O4_5 O 0.9626(3) 0.9602(3) 0.9008(4)
N32_12 N 0.3333 0.6667 0.5701(7)
O4_6 O 0.2959(3) 0.6269(3) 0.5675(4)
O5_6 O 0.3731(3) 0.6691(4) 0.5675(4)
O6_6 O 0.3309(4) 0.7041(3) 0.5675(4)
O7 O 0.3467(7) 0.1322(6) 0.1770(14)
N33 N 0.3893(7) 0.1527(6) 0.1650(9)
O8 O 0.4063(11) 0.1927(8) 0.1451(18)
O9 O 0.4064(9) 0.1292(15) 0.180(2)
O7_2 O 0.8678(6) 0.2145(9) 0.1770(14)
N33_2 N 0.8473(6) 0.2366(9) 0.1650(9)
O8_2 O 0.8073(8) 0.2136(14) 0.1451(18)
O9_2 O 0.8708(15) 0.2772(17) 0.180(2)
O7_3 O 0.7855(9) 0.6533(7) 0.1770(14)
N33_3 N 0.7634(9) 0.6107(7) 0.1650(9)
O8_3 O 0.7864(14) 0.5937(11) 0.1451(18)
O9_3 O 0.7228(17) 0.5936(9) 0.180(2)
O7_4 O 0.0134(7) 0.4655(6) 0.5103(14)
N33_4 N 0.0560(7) 0.4860(6) 0.4983(9)
O8_4 O 0.0730(11) 0.5260(8) 0.4784(18)
O9_4 O 0.0731(9) 0.4625(15) 0.513(2)
O7_5 O 0.5345(6) 0.5478(9) 0.5103(14)
N33_5 N 0.5140(6) 0.5699(9) 0.4983(9)
O8_5 O 0.4740(8) 0.5469(14) 0.4784(18)
O9_5 O 0.5375(15) 0.6105(17) 0.513(2)
O7_6 O 0.4522(9) 0.9866(7) 0.5103(14)
N33_6 N 0.4301(9) 0.9440(7) 0.4983(9)
O8_6 O 0.4531(14) 0.9270(11) 0.4784(18)
O9_6 O 0.3895(17) 0.9269(9) 0.513(2)
O7_7 O 0.6800(7) 0.7989(6) 0.8437(14)
N33_7 N 0.7226(7) 0.8194(6) 0.8317(9)
O8_7 O 0.7396(11) 0.8594(8) 0.8118(18)
O9_7 O 0.7397(9) 0.7959(15) 0.847(2)
O7_8 O 0.7989(6) 0.1188(9) 0.1563(14)
N33_8 N 0.8194(6) 0.0967(9) 0.1683(9)
O8_8 O 0.8594(8) 0.1197(14) 0.1882(18)
O9_8 O 0.7959(15) 0.0561(17) 0.153(2)
O7_9 O 0.8812(9) 0.6800(7) 0.1563(14)
N33_9 N 0.9033(9) 0.7226(7) 0.1683(9)
O8_9 O 0.8803(14) 0.7396(11) 0.1882(18)
O9_9 O 0.9439(17) 0.7397(9) 0.153(2)
O7_10 O 0.6533(7) 0.8678(6) 0.8230(14)
N33_10 N 0.6107(7) 0.8473(6) 0.8350(9)
O8_10 O 0.5937(11) 0.8073(8) 0.8549(18)
O9_10 O 0.5936(9) 0.8708(15) 0.820(2)
O7_11 O 0.1322(6) 0.7855(9) 0.8230(14)
N33_11 N 0.1527(6) 0.7634(9) 0.8350(9)
O8_11 O 0.1927(8) 0.7864(14) 0.8549(18)
O9_11 O 0.1292(15) 0.7228(17) 0.820(2)
O7_12 O 0.2145(9) 0.3467(7) 0.8230(14)
N33_12 N 0.2366(9) 0.3893(7) 0.8350(9)
O8_12 O 0.2136(14) 0.4063(11) 0.8549(18)
O9_12 O 0.2772(17) 0.4064(9) 0.820(2)
O7_13 O 0.9866(7) 0.5345(6) 0.4897(14)
N33_13 N 0.9440(7) 0.5140(6) 0.5017(9)
O8_13 O 0.9270(11) 0.4740(8) 0.5216(18)
O9_13 O 0.9269(9) 0.5375(15) 0.487(2)
O7_14 O 0.4655(6) 0.4522(9) 0.4897(14)
N33_14 N 0.4860(6) 0.4301(9) 0.5017(9)
O8_14 O 0.5260(8) 0.4531(14) 0.5216(18)
O9_14 O 0.4625(15) 0.3895(17) 0.487(2)
O7_15 O 0.5478(9) 0.0134(7) 0.4897(14)
N33_15 N 0.5699(9) 0.0560(7) 0.5017(9)
O8_15 O 0.5469(14) 0.0730(11) 0.5216(18)
O9_15 O 0.6105(17) 0.0731(9) 0.487(2)
O7_16 O 0.3200(7) 0.2011(6) 0.1563(14)
N33_16 N 0.2774(7) 0.1806(6) 0.1683(9)
O8_16 O 0.2604(11) 0.1406(8) 0.1882(18)
O9_16 O 0.2603(9) 0.2041(15) 0.153(2)
O7_17 O 0.2011(6) 0.8812(9) 0.8437(14)
N33_17 N 0.1806(6) 0.9033(9) 0.8317(9)
O8_17 O 0.1406(8) 0.8803(14) 0.8118(18)
O9_17 O 0.2041(15) 0.9439(17) 0.847(2)
O7_18 O 0.1188(9) 0.3200(7) 0.8437(14)
N33_18 N 0.0967(9) 0.2774(7) 0.8317(9)
O8_18 O 0.1197(14) 0.2604(11) 0.8118(18)
O9_18 O 0.0561(17) 0.2603(9) 0.847(2)
loop_
_geom_bond_atom_site_label_1
_geom_bond_atom_site_label_2
_geom_bond_site_symmetry_1
_geom_bond_site_symmetry_2
Ag1 N2 1_555 1_555
Ag2 N1 1_555 1_555
N1 C2 1_555 1_555
N2 C1 1_555 1_555
C1 C2 1_555 1_555
C2 C17 1_555 1_555
C3 N1 1_555 1_555
C4 C3 1_555 1_555
H1 C4 1_555 1_555
C5 C4 1_555 1_555
H2 C5 1_555 1_555
C6 C5 1_555 1_555
H3 C6 1_555 1_555
C7 C6 1_555 1_555
H4 C7 1_555 1_555
C8 N2 1_555 1_555
N3 Ag1 1_555 1_555
N4 C9 1_555 1_555
C9 C10 1_555 1_555
C10 C1 1_555 1_555
C11 N3 1_555 1_555
C12 C11 1_555 1_555
H5 C12 1_555 1_555
C13 C12 1_555 1_555
C16 N4 1_555 1_555
N5 C18 1_555 1_555
N6 Ag2 1_555 1_555
C17 N6 1_555 1_555
C18 C9 1_555 1_555
C19 N5 1_555 1_555
H11 C22 1_555 1_555
C23 C22 1_555 1_555
H12 C23 1_555 1_555
C24 N6 1_555 1_555
N11 C41 1_555 1_555
C42 N11 1_555 1_555
C43 C42 1_555 1_555
H21 C43 1_555 1_555
C44 C43 1_555 1_555
H22 C44 1_555 1_555
C45 C44 1_555 1_555
H23 C45 1_555 1_555
C46 C45 1_555 1_555
H24 C46 1_555 1_555
C47 C42 1_555 1_555
N12 Ag1 1_555 1_555
N13 C50 1_555 1_555
N14 C49 1_555 1_555
C49 C50 1_555 1_555
C50 C65 1_555 1_555
C51 N13 1_555 1_555
C52 C51 1_555 1_555
H25 C52 1_555 1_555
C53 C52 1_555 1_555
H26 C53 1_555 1_555
C54 C53 1_555 1_555
H27 C54 1_555 1_555
C55 C54 1_555 1_555
H28 C55 1_555 1_555
C56 N14 1_555 1_555
N15 C58 1_555 1_555
N16 Ag2 1_555 1_555
C57 N16 1_555 1_555
C58 C49 1_555 1_555
C59 N15 1_555 1_555
C60 C59 1_555 1_555
H29 C60 1_555 1_555
C61 C60 1_555 1_555
H30 C61 1_555 1_555
C62 C61 1_555 1_555
H31 C62 1_555 1_555
C63 C62 1_555 1_555
H32 C63 1_555 1_555
C64 N16 1_555 1_555
N17 Ag2 1_555 1_555
C65 C66 1_555 1_555
C66 C57 1_555 1_555
Ag7 N14 1_555 1_555
C3 C8 1_555 1_555
C7 C8 1_555 1_555
N3 C10 1_555 1_555
C11 C16 1_555 1_555
C17 C18 1_555 1_555
C19 C24 1_555 1_555
C23 C24 1_555 1_555
C41 C48 1_555 1_555
C46 C47 1_555 1_555
C47 N12 1_555 1_555
N12 C48 1_555 1_555
C51 C56 1_555 1_555
C55 C56 1_555 1_555
N15 Ag7 1_555 1_555
C57 C58 1_555 1_555
C59 C64 1_555 1_555
C63 C64 1_555 1_555
N17 C66 1_555 1_555
C15 C14 1_555 1_555
H9 C20 1_555 1_555
C21 C20 1_555 1_555
H10 C21 1_555 1_555
C26 N7 1_555 1_555
C27 N7 1_555 1_555
C28 C27 1_555 1_555
H13 C28 1_555 1_555
C29 C28 1_555 1_555
H14 C29 1_555 1_555
C30 C29 1_555 1_555
H15 C30 1_555 1_555
C68 C67 1_555 1_555
H33 C68 1_555 1_555
C69 C68 1_555 1_555
H34 C69 1_555 1_555
C70 C69 1_555 1_555
H35 C70 1_555 1_555
C71 C70 1_555 1_555
H36 C71 1_555 1_555
C72 N18 1_555 1_555
N29 Ag6 1_555 1_555
N30 Ag6 1_555 1_555
C27 C32 1_555 1_555
N18 Ag6 1_555 1_555
C67 C72 1_555 1_555
C71 C72 1_555 1_555
N27 Ag5 1_555 1_555
N28 Ag5 1_555 1_555
H20 C38 1_555 1_555
Ag4 N10 1_555 1_555
N25 Ag4 1_555 1_555
N26 Ag4 1_555 1_555
N10 C40 1_555 1_555
N8 C25 1_555 1_555
H16 C31 1_555 1_555
C33 C25 1_555 1_555
N9 C33 1_555 1_555
C34 N9 1_555 1_555
C35 C34 1_555 1_555
H17 C35 1_555 1_555
C36 C35 1_555 1_555
H18 C36 1_555 1_555
C37 C36 1_555 1_555
H19 C37 1_555 1_555
C39 C34 1_555 1_555
Ag3 N8 1_555 1_555
N19 C74 1_555 1_555
N20 Ag3 1_555 1_555
C73 N20 1_555 1_555
C74 C73 1_555 1_555
C75 N19 1_555 1_555
C76 C75 1_555 1_555
H37 C76 1_555 1_555
C77 C76 1_555 1_555
H38 C77 1_555 1_555
C78 C77 1_555 1_555
H39 C78 1_555 1_555
C79 C78 1_555 1_555
H40 C79 1_555 1_555
C80 N20 1_555 1_555
N21 Ag3 1_555 1_555
N22 C81 1_555 1_555
C81 C82 1_555 1_555
C82 C73 1_555 1_555
C83 N21 1_555 1_555
C84 C83 1_555 1_555
H41 C84 1_555 1_555
C85 C84 1_555 1_555
C88 N22 1_555 1_555
N23 C90 1_555 1_555
N24 C89 1_555 1_555
C89 C74 1_555 1_555
C90 C81 1_555 1_555
C91 N23 1_555 1_555
C92 C91 1_555 1_555
H45 C92 1_555 1_555
C93 C92 1_555 1_555
H46 C93 1_555 1_555
C94 C93 1_555 1_555
H47 C94 1_555 1_555
C95 C94 1_555 1_555
H48 C95 1_555 1_555
C96 N24 1_555 1_555
Ag8 N19 1_555 1_555
N9 Ag3 1_555 1_555
C75 C80 1_555 1_555
C79 C80 1_555 1_555
N21 C82 1_555 1_555
C83 C88 1_555 1_555
N24 Ag8 1_555 1_555
C89 C90 1_555 1_555
C91 C96 1_555 1_555
C95 C96 1_555 1_555
H43 C86 1_555 1_555
C87 C86 1_555 1_555
H44 C87 1_555 1_555
H9_2 C20_2 1_555 1_555
C21_2 C20_2 1_555 1_555
H10_2 C21_2 1_555 1_555
C68_2 C67_2 1_555 1_555
H33_2 C68_2 1_555 1_555
C69_2 C68_2 1_555 1_555
H34_2 C69_2 1_555 1_555
C70_2 C69_2 1_555 1_555
H35_2 C70_2 1_555 1_555
C71_2 C70_2 1_555 1_555
H36_2 C71_2 1_555 1_555
C72_2 N18_2 1_555 1_555
N29_2 Ag6_2 1_555 1_555
N30_2 Ag6_2 1_555 1_555
N18_2 Ag6_2 1_555 1_555
C67_2 C72_2 1_555 1_555
C71_2 C72_2 1_555 1_555
N27_2 Ag5_2 1_555 1_555
N28_2 Ag5_2 1_555 1_555
Ag2_2 N1_2 1_555 1_555
N1_2 C2_2 1_555 1_555
N25 C1_2 1_555 1_555
C1_2 C2_2 1_555 1_555
C2_2 C17_2 1_555 1_555
C3_2 N1_2 1_555 1_555
C4_2 C3_2 1_555 1_555
H1_2 C4_2 1_555 1_555
C5_2 C4_2 1_555 1_555
H2_2 C5_2 1_555 1_555
C6_2 C5_2 1_555 1_555
H3_2 C6_2 1_555 1_555
C7_2 C6_2 1_555 1_555
H4_2 C7_2 1_555 1_555
C8_2 N25 1_555 1_555
N4_2 C9_2 1_555 1_555
C9_2 C10_2 1_555 1_555
C10_2 C1_2 1_555 1_555
C11_2 N26 1_555 1_555
C12_2 C11_2 1_555 1_555
H5_2 C12_2 1_555 1_555
C13_2 C12_2 1_555 1_555
C16_2 N4_2 1_555 1_555
N5_2 C18_2 1_555 1_555
N6_2 Ag2_2 1_555 1_555
C17_2 N6_2 1_555 1_555
C18_2 C9_2 1_555 1_555
C19_2 N5_2 1_555 1_555
H11_2 C22_2 1_555 1_555
C23_2 C22_2 1_555 1_555
H12_2 C23_2 1_555 1_555
C24_2 N6_2 1_555 1_555
N13_2 C50_2 1_555 1_555
N14_2 C49_2 1_555 1_555
C49_2 C50_2 1_555 1_555
C50_2 C65_2 1_555 1_555
C51_2 N13_2 1_555 1_555
C52_2 C51_2 1_555 1_555
H25_2 C52_2 1_555 1_555
C53_2 C52_2 1_555 1_555
H26_2 C53_2 1_555 1_555
C54_2 C53_2 1_555 1_555
H27_2 C54_2 1_555 1_555
C55_2 C54_2 1_555 1_555
H28_2 C55_2 1_555 1_555
C56_2 N14_2 1_555 1_555
N15_2 C58_2 1_555 1_555
N16_2 Ag2_2 1_555 1_555
C57_2 N16_2 1_555 1_555
C58_2 C49_2 1_555 1_555
C59_2 N15_2 1_555 1_555
C60_2 C59_2 1_555 1_555
H29_2 C60_2 1_555 1_555
C61_2 C60_2 1_555 1_555
H30_2 C61_2 1_555 1_555
C62_2 C61_2 1_555 1_555
H31_2 C62_2 1_555 1_555
C63_2 C62_2 1_555 1_555
H32_2 C63_2 1_555 1_555
C64_2 N16_2 1_555 1_555
N17_2 Ag2_2 1_555 1_555
C65_2 C66_2 1_555 1_555
C66_2 C57_2 1_555 1_555
Ag7_2 N14_2 1_555 1_555
C3_2 C8_2 1_555 1_555
C7_2 C8_2 1_555 1_555
N26 C10_2 1_555 1_555
C11_2 C16_2 1_555 1_555
C17_2 C18_2 1_555 1_555
C19_2 C24_2 1_555 1_555
C23_2 C24_2 1_555 1_555
C51_2 C56_2 1_555 1_555
C55_2 C56_2 1_555 1_555
N15_2 Ag7_2 1_555 1_555
C57_2 C58_2 1_555 1_555
C59_2 C64_2 1_555 1_555
C63_2 C64_2 1_555 1_555
N17_2 C66_2 1_555 1_555
C15_2 C14_2 1_555 1_555
N13_3 C50_3 1_555 1_555
N14_3 C49_3 1_555 1_555
C49_3 C50_3 1_555 1_555
C50_3 C65_3 1_555 1_555
C51_3 N13_3 1_555 1_555
C52_3 C51_3 1_555 1_555
H25_3 C52_3 1_555 1_555
C53_3 C52_3 1_555 1_555
H26_3 C53_3 1_555 1_555
C54_3 C53_3 1_555 1_555
H27_3 C54_3 1_555 1_555
C55_3 C54_3 1_555 1_555
H28_3 C55_3 1_555 1_555
C56_3 N14_3 1_555 1_555
N15_3 C58_3 1_555 1_555
N16_3 Ag8 1_555 1_555
C57_3 N16_3 1_555 1_555
C58_3 C49_3 1_555 1_555
C59_3 N15_3 1_555 1_555
C60_3 C59_3 1_555 1_555
H29_3 C60_3 1_555 1_555
C61_3 C60_3 1_555 1_555
H30_3 C61_3 1_555 1_555
C62_3 C61_3 1_555 1_555
H31_3 C62_3 1_555 1_555
C63_3 C62_3 1_555 1_555
H32_3 C63_3 1_555 1_555
C64_3 N16_3 1_555 1_555
N17_3 Ag8 1_555 1_555
N18_3 C65_3 1_555 1_555
C65_3 C66_3 1_555 1_555
C66_3 C57_3 1_555 1_555
C67_3 N17_3 1_555 1_555
C68_3 C67_3 1_555 1_555
H33_3 C68_3 1_555 1_555
C69_3 C68_3 1_555 1_555
H34_3 C69_3 1_555 1_555
C70_3 C69_3 1_555 1_555
H35_3 C70_3 1_555 1_555
C71_3 C70_3 1_555 1_555
H36_3 C71_3 1_555 1_555
C72_3 N18_3 1_555 1_555
Ag6_3 N13_3 1_555 1_555
Ag7_3 N14_3 1_555 1_555
N29_3 Ag6_3 1_555 1_555
N30_3 Ag6_3 1_555 1_555
C51_3 C56_3 1_555 1_555
C55_3 C56_3 1_555 1_555
N15_3 Ag7_3 1_555 1_555
C57_3 C58_3 1_555 1_555
C59_3 C64_3 1_555 1_555
C63_3 C64_3 1_555 1_555
N17_3 C66_3 1_555 1_555
N18_3 Ag6_3 1_555 1_555
C67_3 C72_3 1_555 1_555
C71_3 C72_3 1_555 1_555
N27_3 Ag9 1_555 1_555
N28_3 Ag9 1_555 1_555
C52_4 C51_4 1_555 1_555
H25_4 C52_4 1_555 1_555
C53_4 C52_4 1_555 1_555
H26_4 C53_4 1_555 1_555
C54_4 C53_4 1_555 1_555
H27_4 C54_4 1_555 1_555
C55_4 C54_4 1_555 1_555
H28_4 C55_4 1_555 1_555
N27_2 C50_4 1_555 1_555
N14_4 C49_4 1_555 1_555
C49_4 C50_4 1_555 1_555
C50_4 C65_4 1_555 1_555
C56_4 N14_4 1_555 1_555
N15_4 C58_4 1_555 1_555
C57_4 N29_2 1_555 1_555
C58_4 C49_4 1_555 1_555
C59_4 N15_4 1_555 1_555
C60_4 C59_4 1_555 1_555
H29_4 C60_4 1_555 1_555
C61_4 C60_4 1_555 1_555
H30_4 C61_4 1_555 1_555
C62_4 C61_4 1_555 1_555
H31_4 C62_4 1_555 1_555
C63_4 C62_4 1_555 1_555
H32_4 C63_4 1_555 1_555
C64_4 N29_2 1_555 1_555
N28_2 C65_4 1_555 1_555
C65_4 C66_4 1_555 1_555
C66_4 C57_4 1_555 1_555
Ag7_4 N14_4 1_555 1_555
N15_4 Ag7_4 1_555 1_555
C57_4 C58_4 1_555 1_555
C59_4 C64_4 1_555 1_555
C63_4 C64_4 1_555 1_555
N30_2 C66_4 1_555 1_555
N7_2 Ag7_2 1_555 1_555
N8_2 C25_2 1_555 1_555
C25_2 C26_2 1_555 1_555
C26_2 N7_2 1_555 1_555
C27_2 N7_2 1_555 1_555
C28_2 C27_2 1_555 1_555
H13_2 C28_2 1_555 1_555
C29_2 C28_2 1_555 1_555
H14_2 C29_2 1_555 1_555
C30_2 C29_2 1_555 1_555
H15_2 C30_2 1_555 1_555
C31_2 C30_2 1_555 1_555
H16_2 C31_2 1_555 1_555
C32_2 N8_2 1_555 1_555
C33_2 C25_2 1_555 1_555
N9_2 C33_2 1_555 1_555
C34_2 N9_2 1_555 1_555
C35_2 C34_2 1_555 1_555
H17_2 C35_2 1_555 1_555
C36_2 C35_2 1_555 1_555
H18_2 C36_2 1_555 1_555
C37_2 C36_2 1_555 1_555
H19_2 C37_2 1_555 1_555
C38_2 C37_2 1_555 1_555
H20_2 C38_2 1_555 1_555
C39_2 C34_2 1_555 1_555
N10_2 C39_2 1_555 1_555
C40_2 C33_2 1_555 1_555
C41_2 C40_2 1_555 1_555
N11_2 C41_2 1_555 1_555
C42_2 N11_2 1_555 1_555
C43_2 C42_2 1_555 1_555
H21_2 C43_2 1_555 1_555
C44_2 C43_2 1_555 1_555
H22_2 C44_2 1_555 1_555
C45_2 C44_2 1_555 1_555
H23_2 C45_2 1_555 1_555
C46_2 C45_2 1_555 1_555
H24_2 C46_2 1_555 1_555
C47_2 C42_2 1_555 1_555
N12_2 Ag7_2 1_555 1_555
C48_2 C26_2 1_555 1_555
Ag7 N8_2 1_555 1_555
Ag7_3 N10_2 1_555 1_555
C68_4 C67_4 1_555 1_555
H33_4 C68_4 1_555 1_555
C69_4 C68_4 1_555 1_555
H34_4 C69_4 1_555 1_555
C70_4 C69_4 1_555 1_555
H35_4 C70_4 1_555 1_555
C71_4 C70_4 1_555 1_555
H36_4 C71_4 1_555 1_555
C27_2 C32_2 1_555 1_555
C31_2 C32_2 1_555 1_555
N9_2 Ag7 1_555 1_555
C38_2 C39_2 1_555 1_555
N10_2 C40_2 1_555 1_555
C41_2 C48_2 1_555 1_555
N11_2 Ag7_3 1_555 1_555
C46_2 C47_2 1_555 1_555
C47_2 N12_2 1_555 1_555
N12_2 C48_2 1_555 1_555
C67_4 C72_4 1_555 1_555
C71_4 C72_4 1_555 1_555
C52_5 C51_5 1_555 1_555
H25_5 C52_5 1_555 1_555
C53_5 C52_5 1_555 1_555
H26_5 C53_5 1_555 1_555
C54_5 C53_5 1_555 1_555
H27_5 C54_5 1_555 1_555
C55_5 C54_5 1_555 1_555
H28_5 C55_5 1_555 1_555
N27_3 C50_5 1_555 1_555
N14_5 C49_5 1_555 1_555
C49_5 C50_5 1_555 1_555
C50_5 C65_5 1_555 1_555
C56_5 N14_5 1_555 1_555
N15_5 C58_5 1_555 1_555
C57_5 N29_3 1_555 1_555
C58_5 C49_5 1_555 1_555
C59_5 N15_5 1_555 1_555
C60_5 C59_5 1_555 1_555
H29_5 C60_5 1_555 1_555
C61_5 C60_5 1_555 1_555
H30_5 C61_5 1_555 1_555
C62_5 C61_5 1_555 1_555
H31_5 C62_5 1_555 1_555
C63_5 C62_5 1_555 1_555
H32_5 C63_5 1_555 1_555
C64_5 N29_3 1_555 1_555
N28_3 C65_5 1_555 1_555
C65_5 C66_5 1_555 1_555
C66_5 C57_5 1_555 1_555
C67_5 N30_3 1_555 1_555
C68_5 C67_5 1_555 1_555
H33_5 C68_5 1_555 1_555
C69_5 C68_5 1_555 1_555
H34_5 C69_5 1_555 1_555
C70_5 C69_5 1_555 1_555
H35_5 C70_5 1_555 1_555
C71_5 C70_5 1_555 1_555
H36_5 C71_5 1_555 1_555
C72_5 N28_3 1_555 1_555
Ag7_5 N14_5 1_555 1_555
N15_5 Ag7_5 1_555 1_555
C57_5 C58_5 1_555 1_555
C59_5 C64_5 1_555 1_555
C63_5 C64_5 1_555 1_555
N30_3 C66_5 1_555 1_555
C67_5 C72_5 1_555 1_555
C71_5 C72_5 1_555 1_555
C68_6 C67_6 1_555 1_555
H33_6 C68_6 1_555 1_555
C69_6 C68_6 1_555 1_555
H34_6 C69_6 1_555 1_555
C70_6 C69_6 1_555 1_555
H35_6 C70_6 1_555 1_555
C71_6 C70_6 1_555 1_555
H36_6 C71_6 1_555 1_555
C67_6 C72_6 1_555 1_555
C71_6 C72_6 1_555 1_555
C52_6 C51_6 1_555 1_555
H25_6 C52_6 1_555 1_555
C53_6 C52_6 1_555 1_555
H26_6 C53_6 1_555 1_555
C54_6 C53_6 1_555 1_555
H27_6 C54_6 1_555 1_555
C55_6 C54_6 1_555 1_555
H28_6 C55_6 1_555 1_555
N27 C50_6 1_555 1_555
N14_6 C49_6 1_555 1_555
C49_6 C50_6 1_555 1_555
C50_6 C65_6 1_555 1_555
C56_6 N14_6 1_555 1_555
N15_6 C58_6 1_555 1_555
C57_6 N29 1_555 1_555
C58_6 C49_6 1_555 1_555
C59_6 N15_6 1_555 1_555
C60_6 C59_6 1_555 1_555
H29_6 C60_6 1_555 1_555
C61_6 C60_6 1_555 1_555
H30_6 C61_6 1_555 1_555
C62_6 C61_6 1_555 1_555
H31_6 C62_6 1_555 1_555
C63_6 C62_6 1_555 1_555
H32_6 C63_6 1_555 1_555
C64_6 N29 1_555 1_555
N28 C65_6 1_555 1_555
C65_6 C66_6 1_555 1_555
C66_6 C57_6 1_555 1_555
Ag7_6 N14_6 1_555 1_555
N15_6 Ag7_6 1_555 1_555
C57_6 C58_6 1_555 1_555
C59_6 C64_6 1_555 1_555
C63_6 C64_6 1_555 1_555
N30 C66_6 1_555 1_555
N7_3 Ag7_5 1_555 1_555
N8_3 C25_3 1_555 1_555
C25_3 C26_3 1_555 1_555
C26_3 N7_3 1_555 1_555
C27_3 N7_3 1_555 1_555
C28_3 C27_3 1_555 1_555
H13_3 C28_3 1_555 1_555
C29_3 C28_3 1_555 1_555
H14_3 C29_3 1_555 1_555
C30_3 C29_3 1_555 1_555
H15_3 C30_3 1_555 1_555
C31_3 C30_3 1_555 1_555
H16_3 C31_3 1_555 1_555
C32_3 N8_3 1_555 1_555
C33_3 C25_3 1_555 1_555
N9_3 C33_3 1_555 1_555
C34_3 N9_3 1_555 1_555
C35_3 C34_3 1_555 1_555
H17_3 C35_3 1_555 1_555
C36_3 C35_3 1_555 1_555
H18_3 C36_3 1_555 1_555
C37_3 C36_3 1_555 1_555
H19_3 C37_3 1_555 1_555
C38_3 C37_3 1_555 1_555
H20_3 C38_3 1_555 1_555
C39_3 C34_3 1_555 1_555
N10_3 C39_3 1_555 1_555
C40_3 C33_3 1_555 1_555
C41_3 C40_3 1_555 1_555
N11_3 C41_3 1_555 1_555
C42_3 N11_3 1_555 1_555
C43_3 C42_3 1_555 1_555
H21_3 C43_3 1_555 1_555
C44_3 C43_3 1_555 1_555
H22_3 C44_3 1_555 1_555
C45_3 C44_3 1_555 1_555
H23_3 C45_3 1_555 1_555
C46_3 C45_3 1_555 1_555
H24_3 C46_3 1_555 1_555
C47_3 C42_3 1_555 1_555
N12_3 Ag7_5 1_555 1_555
C48_3 C26_3 1_555 1_555
Ag7_4 N8_3 1_555 1_555
Ag7_6 N10_3 1_555 1_555
C27_3 C32_3 1_555 1_555
C31_3 C32_3 1_555 1_555
N9_3 Ag7_4 1_555 1_555
C38_3 C39_3 1_555 1_555
N10_3 C40_3 1_555 1_555
C41_3 C48_3 1_555 1_555
N11_3 Ag7_6 1_555 1_555
C46_3 C47_3 1_555 1_555
C47_3 N12_3 1_555 1_555
N12_3 C48_3 1_555 1_555
Ag1_2 N2_2 1_555 1_555
Ag2_3 N1_3 1_555 1_555
N1_3 C2_3 1_555 1_555
N2_2 C1_3 1_555 1_555
C1_3 C2_3 1_555 1_555
C2_3 C17_3 1_555 1_555
C8_3 N2_2 1_555 1_555
N3_2 Ag1_2 1_555 1_555
N4_3 C9_3 1_555 1_555
C9_3 C10_3 1_555 1_555
C10_3 C1_3 1_555 1_555
C11_3 N3_2 1_555 1_555
C12_3 C11_3 1_555 1_555
H5_3 C12_3 1_555 1_555
C13_3 C12_3 1_555 1_555
H6_3 C13_3 1_555 1_555
C14_3 C13_3 1_555 1_555
H7_3 C14_3 1_555 1_555
C15_3 C14_3 1_555 1_555
H8_3 C15_3 1_555 1_555
C16_3 N4_3 1_555 1_555
N5_3 C18_3 1_555 1_555
N6_3 Ag2_3 1_555 1_555
C17_3 N6_3 1_555 1_555
C18_3 C9_3 1_555 1_555
N7_4 Ag1_2 1_555 1_555
N8_4 C25_4 1_555 1_555
C25_4 C26_4 1_555 1_555
C26_4 N7_4 1_555 1_555
C27_4 N7_4 1_555 1_555
C28_4 C27_4 1_555 1_555
H13_4 C28_4 1_555 1_555
C29_4 C28_4 1_555 1_555
H14_4 C29_4 1_555 1_555
C30_4 C29_4 1_555 1_555
H15_4 C30_4 1_555 1_555
C31_4 C30_4 1_555 1_555
H16_4 C31_4 1_555 1_555
C32_4 N8_4 1_555 1_555
C33_4 C25_4 1_555 1_555
N9_4 C33_4 1_555 1_555
C34_4 N9_4 1_555 1_555
C35_4 C34_4 1_555 1_555
H17_4 C35_4 1_555 1_555
C36_4 C35_4 1_555 1_555
H18_4 C36_4 1_555 1_555
C37_4 C36_4 1_555 1_555
H19_4 C37_4 1_555 1_555
C38_4 C37_4 1_555 1_555
H20_4 C38_4 1_555 1_555
C39_4 C34_4 1_555 1_555
N10_4 C39_4 1_555 1_555
C40_4 C33_4 1_555 1_555
C41_4 C40_4 1_555 1_555
N11_4 C41_4 1_555 1_555
C42_4 N11_4 1_555 1_555
C43_4 C42_4 1_555 1_555
H21_4 C43_4 1_555 1_555
C44_4 C43_4 1_555 1_555
H22_4 C44_4 1_555 1_555
C45_4 C44_4 1_555 1_555
H23_4 C45_4 1_555 1_555
C46_4 C45_4 1_555 1_555
H24_4 C46_4 1_555 1_555
C47_4 C42_4 1_555 1_555
N12_4 Ag1_2 1_555 1_555
C48_4 C26_4 1_555 1_555
Ag3_2 N8_4 1_555 1_555
Ag4_2 N10_4 1_555 1_555
Ag5_3 N4_3 1_555 1_555
N19_2 C74_2 1_555 1_555
N20_2 Ag3_2 1_555 1_555
C73_2 N20_2 1_555 1_555
C74_2 C73_2 1_555 1_555
C80_2 N20_2 1_555 1_555
N21_2 Ag3_2 1_555 1_555
N22_2 C81_2 1_555 1_555
C81_2 C82_2 1_555 1_555
C82_2 C73_2 1_555 1_555
C83_2 N21_2 1_555 1_555
C84_2 C83_2 1_555 1_555
H41_2 C84_2 1_555 1_555
C85_2 C84_2 1_555 1_555
H42_2 C85_2 1_555 1_555
C86_2 C85_2 1_555 1_555
H43_2 C86_2 1_555 1_555
C87_2 C86_2 1_555 1_555
H44_2 C87_2 1_555 1_555
C88_2 N22_2 1_555 1_555
N23_2 C90_2 1_555 1_555
N24_2 C89_2 1_555 1_555
C89_2 C74_2 1_555 1_555
C90_2 C81_2 1_555 1_555
C91_2 N23_2 1_555 1_555
C92_2 C91_2 1_555 1_555
H45_2 C92_2 1_555 1_555
C93_2 C92_2 1_555 1_555
H46_2 C93_2 1_555 1_555
C94_2 C93_2 1_555 1_555
H47_2 C94_2 1_555 1_555
C95_2 C94_2 1_555 1_555
H48_2 C95_2 1_555 1_555
C96_2 N24_2 1_555 1_555
N25_2 Ag4_2 1_555 1_555
N26_2 Ag4_2 1_555 1_555
N28_4 Ag5_3 1_555 1_555
Ag8_2 N19_2 1_555 1_555
Ag9_2 N22_2 1_555 1_555
N3_2 C10_3 1_555 1_555
C11_3 C16_3 1_555 1_555
C15_3 C16_3 1_555 1_555
N5_3 Ag5_3 1_555 1_555
C17_3 C18_3 1_555 1_555
C27_4 C32_4 1_555 1_555
C31_4 C32_4 1_555 1_555
N9_4 Ag3_2 1_555 1_555
C38_4 C39_4 1_555 1_555
N10_4 C40_4 1_555 1_555
C41_4 C48_4 1_555 1_555
N11_4 Ag4_2 1_555 1_555
C46_4 C47_4 1_555 1_555
C47_4 N12_4 1_555 1_555
N12_4 C48_4 1_555 1_555
N21_2 C82_2 1_555 1_555
C83_2 C88_2 1_555 1_555
C87_2 C88_2 1_555 1_555
N23_2 Ag9_2 1_555 1_555
N24_2 Ag8_2 1_555 1_555
C89_2 C90_2 1_555 1_555
C91_2 C96_2 1_555 1_555
C95_2 C96_2 1_555 1_555
C4_3 C3_3 1_555 1_555
H1_3 C4_3 1_555 1_555
C5_3 C4_3 1_555 1_555
H2_3 C5_3 1_555 1_555
C6_3 C5_3 1_555 1_555
H3_3 C6_3 1_555 1_555
C7_3 C6_3 1_555 1_555
H4_3 C7_3 1_555 1_555
H33_7 C68_7 1_555 1_555
C69_7 C68_7 1_555 1_555
H34_7 C69_7 1_555 1_555
C76_2 C75_2 1_555 1_555
H37_2 C76_2 1_555 1_555
C77_2 C76_2 1_555 1_555
H38_2 C77_2 1_555 1_555
C78_2 C77_2 1_555 1_555
H39_2 C78_2 1_555 1_555
C79_2 C78_2 1_555 1_555
H40_2 C79_2 1_555 1_555
C20_3 C19_3 1_555 1_555
H9_3 C20_3 1_555 1_555
C21_3 C20_3 1_555 1_555
H10_3 C21_3 1_555 1_555
C22_3 C21_3 1_555 1_555
H11_3 C22_3 1_555 1_555
C23_3 C22_3 1_555 1_555
H12_3 C23_3 1_555 1_555
C63_7 C62_7 1_555 1_555
C19_3 C24_3 1_555 1_555
C23_3 C24_3 1_555 1_555
N13_4 C50_7 1_555 1_555
N14_7 C49_7 1_555 1_555
C49_7 C50_7 1_555 1_555
C50_7 C65_7 1_555 1_555
C51_7 N13_4 1_555 1_555
C52_7 C51_7 1_555 1_555
H25_7 C52_7 1_555 1_555
C53_7 C52_7 1_555 1_555
H26_7 C53_7 1_555 1_555
C54_7 C53_7 1_555 1_555
H27_7 C54_7 1_555 1_555
C55_7 C54_7 1_555 1_555
H28_7 C55_7 1_555 1_555
C56_7 N14_7 1_555 1_555
N15_7 C58_7 1_555 1_555
C57_7 N16_4 1_555 1_555
C58_7 C49_7 1_555 1_555
C59_7 N15_7 1_555 1_555
C60_7 C59_7 1_555 1_555
H29_7 C60_7 1_555 1_555
C61_7 C60_7 1_555 1_555
C64_7 N16_4 1_555 1_555
N18_4 C65_7 1_555 1_555
C65_7 C66_7 1_555 1_555
C66_7 C57_7 1_555 1_555
C67_7 N17_4 1_555 1_555
H35_7 C70_7 1_555 1_555
C71_7 C70_7 1_555 1_555
H36_7 C71_7 1_555 1_555
C72_7 N18_4 1_555 1_555
Ag6_4 N13_4 1_555 1_555
Ag7_7 N14_7 1_555 1_555
N29_4 Ag6_4 1_555 1_555
N30_4 Ag6_4 1_555 1_555
C51_7 C56_7 1_555 1_555
C55_7 C56_7 1_555 1_555
N15_7 Ag7_7 1_555 1_555
C57_7 C58_7 1_555 1_555
C59_7 C64_7 1_555 1_555
N17_4 C66_7 1_555 1_555
N18_4 Ag6_4 1_555 1_555
C67_7 C72_7 1_555 1_555
C71_7 C72_7 1_555 1_555
C20_4 C19_4 1_555 1_555
H9_4 C20_4 1_555 1_555
C21_4 C20_4 1_555 1_555
H10_4 C21_4 1_555 1_555
C22_4 C21_4 1_555 1_555
H11_4 C22_4 1_555 1_555
C23_4 C22_4 1_555 1_555
H12_4 C23_4 1_555 1_555
C63_8 C62_8 1_555 1_555
C19_4 C24_4 1_555 1_555
C23_4 C24_4 1_555 1_555
N13_5 C50_8 1_555 1_555
N14_8 C49_8 1_555 1_555
C49_8 C50_8 1_555 1_555
C50_8 C65_8 1_555 1_555
C51_8 N13_5 1_555 1_555
C52_8 C51_8 1_555 1_555
H25_8 C52_8 1_555 1_555
C53_8 C52_8 1_555 1_555
H26_8 C53_8 1_555 1_555
C54_8 C53_8 1_555 1_555
H27_8 C54_8 1_555 1_555
C55_8 C54_8 1_555 1_555
H28_8 C55_8 1_555 1_555
C56_8 N14_8 1_555 1_555
N15_8 C58_8 1_555 1_555
C57_8 N16_5 1_555 1_555
C58_8 C49_8 1_555 1_555
C59_8 N15_8 1_555 1_555
C60_8 C59_8 1_555 1_555
H29_8 C60_8 1_555 1_555
C61_8 C60_8 1_555 1_555
C64_8 N16_5 1_555 1_555
N18_5 C65_8 1_555 1_555
C65_8 C66_8 1_555 1_555
C66_8 C57_8 1_555 1_555
C67_8 N17_5 1_555 1_555
H35_8 C70_8 1_555 1_555
C71_8 C70_8 1_555 1_555
H36_8 C71_8 1_555 1_555
C72_8 N18_5 1_555 1_555
Ag6_5 N13_5 1_555 1_555
Ag7_8 N14_8 1_555 1_555
N29_5 Ag6_5 1_555 1_555
N30_5 Ag6_5 1_555 1_555
C51_8 C56_8 1_555 1_555
C55_8 C56_8 1_555 1_555
N15_8 Ag7_8 1_555 1_555
C57_8 C58_8 1_555 1_555
C59_8 C64_8 1_555 1_555
N17_5 C66_8 1_555 1_555
N18_5 Ag6_5 1_555 1_555
C67_8 C72_8 1_555 1_555
C71_8 C72_8 1_555 1_555
Ag2_4 N1_4 1_555 1_555
N1_4 C2_4 1_555 1_555
N25_2 C1_4 1_555 1_555
C1_4 C2_4 1_555 1_555
C2_4 C17_4 1_555 1_555
C8_4 N25_2 1_555 1_555
N4_4 C9_4 1_555 1_555
C9_4 C10_4 1_555 1_555
C10_4 C1_4 1_555 1_555
C11_4 N26_2 1_555 1_555
C12_4 C11_4 1_555 1_555
H5_4 C12_4 1_555 1_555
C13_4 C12_4 1_555 1_555
H6_4 C13_4 1_555 1_555
C14_4 C13_4 1_555 1_555
H7_4 C14_4 1_555 1_555
C15_4 C14_4 1_555 1_555
H8_4 C15_4 1_555 1_555
C16_4 N4_4 1_555 1_555
N5_4 C18_4 1_555 1_555
N6_4 Ag2_4 1_555 1_555
C17_4 N6_4 1_555 1_555
C18_4 C9_4 1_555 1_555
Ag5_4 N4_4 1_555 1_555
N28_5 Ag5_4 1_555 1_555
N26_2 C10_4 1_555 1_555
C11_4 C16_4 1_555 1_555
C15_4 C16_4 1_555 1_555
N5_4 Ag5_4 1_555 1_555
C17_4 C18_4 1_555 1_555
C4_4 C3_4 1_555 1_555
H1_4 C4_4 1_555 1_555
C5_4 C4_4 1_555 1_555
H2_4 C5_4 1_555 1_555
C6_4 C5_4 1_555 1_555
H3_4 C6_4 1_555 1_555
C7_4 C6_4 1_555 1_555
H4_4 C7_4 1_555 1_555
H33_8 C68_8 1_555 1_555
C69_8 C68_8 1_555 1_555
H34_8 C69_8 1_555 1_555
H43_3 C86_3 1_555 1_555
C87_3 C86_3 1_555 1_555
H44_3 C87_3 1_555 1_555
N8_5 C25_5 1_555 1_555
H16_5 C31_5 1_555 1_555
C33_5 C25_5 1_555 1_555
N9_5 C33_5 1_555 1_555
C34_5 N9_5 1_555 1_555
C35_5 C34_5 1_555 1_555
H17_5 C35_5 1_555 1_555
C36_5 C35_5 1_555 1_555
H18_5 C36_5 1_555 1_555
C37_5 C36_5 1_555 1_555
H19_5 C37_5 1_555 1_555
C39_5 C34_5 1_555 1_555
Ag3_3 N8_5 1_555 1_555
N19_3 C74_3 1_555 1_555
N20_3 Ag3_3 1_555 1_555
C73_3 N20_3 1_555 1_555
C74_3 C73_3 1_555 1_555
C75_3 N19_3 1_555 1_555
C76_3 C75_3 1_555 1_555
H37_3 C76_3 1_555 1_555
C77_3 C76_3 1_555 1_555
H38_3 C77_3 1_555 1_555
C78_3 C77_3 1_555 1_555
H39_3 C78_3 1_555 1_555
C79_3 C78_3 1_555 1_555
H40_3 C79_3 1_555 1_555
C80_3 N20_3 1_555 1_555
N21_3 Ag3_3 1_555 1_555
N22_3 C81_3 1_555 1_555
C81_3 C82_3 1_555 1_555
C82_3 C73_3 1_555 1_555
C83_3 N21_3 1_555 1_555
C84_3 C83_3 1_555 1_555
H41_3 C84_3 1_555 1_555
C85_3 C84_3 1_555 1_555
C88_3 N22_3 1_555 1_555
N23_3 C90_3 1_555 1_555
N24_3 C89_3 1_555 1_555
C89_3 C74_3 1_555 1_555
C90_3 C81_3 1_555 1_555
C91_3 N23_3 1_555 1_555
C92_3 C91_3 1_555 1_555
H45_3 C92_3 1_555 1_555
C93_3 C92_3 1_555 1_555
H46_3 C93_3 1_555 1_555
C94_3 C93_3 1_555 1_555
H47_3 C94_3 1_555 1_555
C95_3 C94_3 1_555 1_555
H48_3 C95_3 1_555 1_555
C96_3 N24_3 1_555 1_555
Ag8_3 N19_3 1_555 1_555
N9_5 Ag3_3 1_555 1_555
C75_3 C80_3 1_555 1_555
C79_3 C80_3 1_555 1_555
N21_3 C82_3 1_555 1_555
C83_3 C88_3 1_555 1_555
N24_3 Ag8_3 1_555 1_555
C89_3 C90_3 1_555 1_555
C91_3 C96_3 1_555 1_555
C95_3 C96_3 1_555 1_555
H20_5 C38_5 1_555 1_555
Ag7_8 N10_5 1_555 1_555
N10_5 C40_5 1_555 1_555
C26_5 N7_5 1_555 1_555
C27_5 N7_5 1_555 1_555
C28_5 C27_5 1_555 1_555
H13_5 C28_5 1_555 1_555
C29_5 C28_5 1_555 1_555
H14_5 C29_5 1_555 1_555
C30_5 C29_5 1_555 1_555
H15_5 C30_5 1_555 1_555
C68_9 C67_9 1_555 1_555
H33_9 C68_9 1_555 1_555
C69_9 C68_9 1_555 1_555
H34_9 C69_9 1_555 1_555
C70_9 C69_9 1_555 1_555
H35_9 C70_9 1_555 1_555
C71_9 C70_9 1_555 1_555
H36_9 C71_9 1_555 1_555
C72_9 N28_4 1_555 1_555
C27_5 C32_5 1_555 1_555
C67_9 C72_9 1_555 1_555
C71_9 C72_9 1_555 1_555
N11_5 C41_5 1_555 1_555
C42_5 N11_5 1_555 1_555
C43_5 C42_5 1_555 1_555
H21_5 C43_5 1_555 1_555
C44_5 C43_5 1_555 1_555
H22_5 C44_5 1_555 1_555
C45_5 C44_5 1_555 1_555
H23_5 C45_5 1_555 1_555
C46_5 C45_5 1_555 1_555
H24_5 C46_5 1_555 1_555
C47_5 C42_5 1_555 1_555
N12_5 Ag7_7 1_555 1_555
N27_4 C50_9 1_555 1_555
N14_9 C49_9 1_555 1_555
C49_9 C50_9 1_555 1_555
C50_9 C65_9 1_555 1_555
C51_9 N27_4 1_555 1_555
C52_9 C51_9 1_555 1_555
H25_9 C52_9 1_555 1_555
C53_9 C52_9 1_555 1_555
H26_9 C53_9 1_555 1_555
C54_9 C53_9 1_555 1_555
H27_9 C54_9 1_555 1_555
C55_9 C54_9 1_555 1_555
H28_9 C55_9 1_555 1_555
C56_9 N14_9 1_555 1_555
N15_9 C58_9 1_555 1_555
C57_9 N29_4 1_555 1_555
C58_9 C49_9 1_555 1_555
C59_9 N15_9 1_555 1_555
C60_9 C59_9 1_555 1_555
H29_9 C60_9 1_555 1_555
C61_9 C60_9 1_555 1_555
H30_9 C61_9 1_555 1_555
C62_9 C61_9 1_555 1_555
H31_9 C62_9 1_555 1_555
C63_9 C62_9 1_555 1_555
H32_9 C63_9 1_555 1_555
C64_9 N29_4 1_555 1_555
C65_9 C66_9 1_555 1_555
C66_9 C57_9 1_555 1_555
Ag7_9 N14_9 1_555 1_555
C41_5 C48_5 1_555 1_555
C46_5 C47_5 1_555 1_555
C47_5 N12_5 1_555 1_555
N12_5 C48_5 1_555 1_555
C51_9 C56_9 1_555 1_555
C55_9 C56_9 1_555 1_555
N15_9 Ag7_9 1_555 1_555
C57_9 C58_9 1_555 1_555
C59_9 C64_9 1_555 1_555
C63_9 C64_9 1_555 1_555
N30_4 C66_9 1_555 1_555
N27_5 C50_10 1_555 1_555
N14_10 C49_10 1_555 1_555
C49_10 C50_10 1_555 1_555
C50_10 C65_10 1_555 1_555
C51_10 N27_5 1_555 1_555
C52_10 C51_10 1_555 1_555
H25_10 C52_10 1_555 1_555
C53_10 C52_10 1_555 1_555
H26_10 C53_10 1_555 1_555
C54_10 C53_10 1_555 1_555
H27_10 C54_10 1_555 1_555
C55_10 C54_10 1_555 1_555
H28_10 C55_10 1_555 1_555
C56_10 N14_10 1_555 1_555
N15_10 C58_10 1_555 1_555
C57_10 N29_5 1_555 1_555
C58_10 C49_10 1_555 1_555
C59_10 N15_10 1_555 1_555
C60_10 C59_10 1_555 1_555
H29_10 C60_10 1_555 1_555
C61_10 C60_10 1_555 1_555
H30_10 C61_10 1_555 1_555
C62_10 C61_10 1_555 1_555
H31_10 C62_10 1_555 1_555
C63_10 C62_10 1_555 1_555
H32_10 C63_10 1_555 1_555
C64_10 N29_5 1_555 1_555
C65_10 C66_10 1_555 1_555
C66_10 C57_10 1_555 1_555
Ag7_10 N14_10 1_555 1_555
C51_10 C56_10 1_555 1_555
C55_10 C56_10 1_555 1_555
N15_10 Ag7_10 1_555 1_555
C57_10 C58_10 1_555 1_555
C59_10 C64_10 1_555 1_555
C63_10 C64_10 1_555 1_555
N30_5 C66_10 1_555 1_555
C68_10 C67_10 1_555 1_555
H33_10 C68_10 1_555 1_555
C69_10 C68_10 1_555 1_555
H34_10 C69_10 1_555 1_555
C70_10 C69_10 1_555 1_555
H35_10 C70_10 1_555 1_555
C71_10 C70_10 1_555 1_555
H36_10 C71_10 1_555 1_555
C72_10 N28_5 1_555 1_555
C67_10 C72_10 1_555 1_555
C71_10 C72_10 1_555 1_555
N13_6 C50_11 1_555 1_555
N14_11 C49_11 1_555 1_555
C49_11 C50_11 1_555 1_555
C50_11 C65_11 1_555 1_555
C51_11 N13_6 1_555 1_555
C52_11 C51_11 1_555 1_555
H25_11 C52_11 1_555 1_555
C53_11 C52_11 1_555 1_555
H26_11 C53_11 1_555 1_555
C54_11 C53_11 1_555 1_555
H27_11 C54_11 1_555 1_555
C55_11 C54_11 1_555 1_555
H28_11 C55_11 1_555 1_555
C56_11 N14_11 1_555 1_555
N15_11 C58_11 1_555 1_555
N16_6 Ag8_3 1_555 1_555
C57_11 N16_6 1_555 1_555
C58_11 C49_11 1_555 1_555
C59_11 N15_11 1_555 1_555
C60_11 C59_11 1_555 1_555
H29_11 C60_11 1_555 1_555
C61_11 C60_11 1_555 1_555
H30_11 C61_11 1_555 1_555
C62_11 C61_11 1_555 1_555
H31_11 C62_11 1_555 1_555
C63_11 C62_11 1_555 1_555
H32_11 C63_11 1_555 1_555
C64_11 N16_6 1_555 1_555
N17_6 Ag8_3 1_555 1_555
N18_6 C65_11 1_555 1_555
C65_11 C66_11 1_555 1_555
C66_11 C57_11 1_555 1_555
C67_11 N17_6 1_555 1_555
C68_11 C67_11 1_555 1_555
H33_11 C68_11 1_555 1_555
C69_11 C68_11 1_555 1_555
H34_11 C69_11 1_555 1_555
C70_11 C69_11 1_555 1_555
H35_11 C70_11 1_555 1_555
C71_11 C70_11 1_555 1_555
H36_11 C71_11 1_555 1_555
C72_11 N18_6 1_555 1_555
Ag9_2 N13_6 1_555 1_555
Ag7_11 N14_11 1_555 1_555
C51_11 C56_11 1_555 1_555
C55_11 C56_11 1_555 1_555
N15_11 Ag7_11 1_555 1_555
C57_11 C58_11 1_555 1_555
C59_11 C64_11 1_555 1_555
C63_11 C64_11 1_555 1_555
N17_6 C66_11 1_555 1_555
N18_6 Ag9_2 1_555 1_555
C67_11 C72_11 1_555 1_555
C71_11 C72_11 1_555 1_555
N7_6 Ag7_10 1_555 1_555
N8_6 C25_6 1_555 1_555
C25_6 C26_6 1_555 1_555
C26_6 N7_6 1_555 1_555
C27_6 N7_6 1_555 1_555
C28_6 C27_6 1_555 1_555
H13_6 C28_6 1_555 1_555
C29_6 C28_6 1_555 1_555
H14_6 C29_6 1_555 1_555
C30_6 C29_6 1_555 1_555
H15_6 C30_6 1_555 1_555
C31_6 C30_6 1_555 1_555
H16_6 C31_6 1_555 1_555
C32_6 N8_6 1_555 1_555
C33_6 C25_6 1_555 1_555
N9_6 C33_6 1_555 1_555
C34_6 N9_6 1_555 1_555
C35_6 C34_6 1_555 1_555
H17_6 C35_6 1_555 1_555
C36_6 C35_6 1_555 1_555
H18_6 C36_6 1_555 1_555
C37_6 C36_6 1_555 1_555
H19_6 C37_6 1_555 1_555
C38_6 C37_6 1_555 1_555
H20_6 C38_6 1_555 1_555
C39_6 C34_6 1_555 1_555
N10_6 C39_6 1_555 1_555
C40_6 C33_6 1_555 1_555
C41_6 C40_6 1_555 1_555
N11_6 C41_6 1_555 1_555
C42_6 N11_6 1_555 1_555
C43_6 C42_6 1_555 1_555
H21_6 C43_6 1_555 1_555
C44_6 C43_6 1_555 1_555
H22_6 C44_6 1_555 1_555
C45_6 C44_6 1_555 1_555
H23_6 C45_6 1_555 1_555
C46_6 C45_6 1_555 1_555
H24_6 C46_6 1_555 1_555
C47_6 C42_6 1_555 1_555
N12_6 Ag7_10 1_555 1_555
C48_6 C26_6 1_555 1_555
Ag7_9 N8_6 1_555 1_555
Ag7_11 N10_6 1_555 1_555
C27_6 C32_6 1_555 1_555
C31_6 C32_6 1_555 1_555
N9_6 Ag7_9 1_555 1_555
C38_6 C39_6 1_555 1_555
N10_6 C40_6 1_555 1_555
C41_6 C48_6 1_555 1_555
N11_6 Ag7_11 1_555 1_555
C46_6 C47_6 1_555 1_555
C47_6 N12_6 1_555 1_555
N12_6 C48_6 1_555 1_555
N31 O1 1_555 1_555
O2 N31 1_555 1_555
O3 N31 1_555 1_555
N31_2 O1_2 1_555 1_555
O2_2 N31_2 1_555 1_555
O3_2 N31_2 1_555 1_555
N31_3 O1_3 1_555 1_555
O2_3 N31_3 1_555 1_555
O3_3 N31_3 1_555 1_555
N31_4 O1_4 1_555 1_555
O2_4 N31_4 1_555 1_555
O3_4 N31_4 1_555 1_555
N31_5 O1_5 1_555 1_555
O2_5 N31_5 1_555 1_555
O3_5 N31_5 1_555 1_555
N31_6 O1_6 1_555 1_555
O2_6 N31_6 1_555 1_555
O3_6 N31_6 1_555 1_555
N31_7 O1_7 1_555 1_555
O2_7 N31_7 1_555 1_555
O3_7 N31_7 1_555 1_555
N31_8 O1_8 1_555 1_555
O2_8 N31_8 1_555 1_555
O3_8 N31_8 1_555 1_555
N31_9 O1_9 1_555 1_555
O2_9 N31_9 1_555 1_555
O3_9 N31_9 1_555 1_555
N31_10 O1_10 1_555 1_555
O2_10 N31_10 1_555 1_555
O3_10 N31_10 1_555 1_555
N31_11 O1_11 1_555 1_555
O2_11 N31_11 1_555 1_555
O3_11 N31_11 1_555 1_555
N31_12 O1_12 1_555 1_555
O2_12 N31_12 1_555 1_555
O3_12 N31_12 1_555 1_555
N31_13 O1_13 1_555 1_555
O2_13 N31_13 1_555 1_555
O3_13 N31_13 1_555 1_555
N31_14 O1_14 1_555 1_555
O2_14 N31_14 1_555 1_555
O3_14 N31_14 1_555 1_555
N31_15 O1_15 1_555 1_555
O2_15 N31_15 1_555 1_555
O3_15 N31_15 1_555 1_555
N31_16 O1_16 1_555 1_555
O2_16 N31_16 1_555 1_555
O3_16 N31_16 1_555 1_555
N31_17 O1_17 1_555 1_555
O2_17 N31_17 1_555 1_555
O3_17 N31_17 1_555 1_555
N31_18 O1_18 1_555 1_555
O2_18 N31_18 1_555 1_555
O3_18 N31_18 1_555 1_555
N32 O4 1_555 1_555
O6 N32_2 1_555 1_555
O5 N32_4 1_555 1_555
N32_5 O4_2 1_555 1_555
O5_2 N32_5 1_555 1_555
O6_2 N32_5 1_555 1_555
N32_6 O4_3 1_555 1_555
O5_3 N32_6 1_555 1_555
O6_3 N32_6 1_555 1_555
N32_7 O4_4 1_555 1_555
O5_4 N32_7 1_555 1_555
O6_4 N32_7 1_555 1_555
O5_5 N32_8 1_555 1_555
O6_5 N32_10 1_555 1_555
N32_11 O4_5 1_555 1_555
N32_12 O4_6 1_555 1_555
O5_6 N32_12 1_555 1_555
O6_6 N32_12 1_555 1_555
O7 N33 1_555 1_555
N33 O8 1_555 1_555
O9 N33 1_555 1_555
O7_2 N33_2 1_555 1_555
N33_2 O8_2 1_555 1_555
O9_2 N33_2 1_555 1_555
O7_3 N33_3 1_555 1_555
N33_3 O8_3 1_555 1_555
O9_3 N33_3 1_555 1_555
O7_4 N33_4 1_555 1_555
N33_4 O8_4 1_555 1_555
O9_4 N33_4 1_555 1_555
O7_5 N33_5 1_555 1_555
N33_5 O8_5 1_555 1_555
O9_5 N33_5 1_555 1_555
O7_6 N33_6 1_555 1_555
N33_6 O8_6 1_555 1_555
O9_6 N33_6 1_555 1_555
O7_7 N33_7 1_555 1_555
N33_7 O8_7 1_555 1_555
O9_7 N33_7 1_555 1_555
O7_8 N33_8 1_555 1_555
N33_8 O8_8 1_555 1_555
O9_8 N33_8 1_555 1_555
O7_9 N33_9 1_555 1_555
N33_9 O8_9 1_555 1_555
O9_9 N33_9 1_555 1_555
O7_10 N33_10 1_555 1_555
N33_10 O8_10 1_555 1_555
O9_10 N33_10 1_555 1_555
O7_11 N33_11 1_555 1_555
N33_11 O8_11 1_555 1_555
O9_11 N33_11 1_555 1_555
O7_12 N33_12 1_555 1_555
N33_12 O8_12 1_555 1_555
O9_12 N33_12 1_555 1_555
O7_13 N33_13 1_555 1_555
N33_13 O8_13 1_555 1_555
O9_13 N33_13 1_555 1_555
O7_14 N33_14 1_555 1_555
N33_14 O8_14 1_555 1_555
O9_14 N33_14 1_555 1_555
O7_15 N33_15 1_555 1_555
N33_15 O8_15 1_555 1_555
O9_15 N33_15 1_555 1_555
O7_16 N33_16 1_555 1_555
N33_16 O8_16 1_555 1_555
O9_16 N33_16 1_555 1_555
O7_17 N33_17 1_555 1_555
N33_17 O8_17 1_555 1_555
O9_17 N33_17 1_555 1_555
O7_18 N33_18 1_555 1_555
N33_18 O8_18 1_555 1_555
O9_18 N33_18 1_555 1_555

#END
