
###############################################################################
#
# This file contains modified crystal structure data generated from the
# MOF subset of the Cambridge Structural Database (CSD) v543 
# hosted by the Cambridge Crystallographic Data Centre (CCDC).
#
# This work is licensed under the Creative Commons
# Attribution-NonCommercial-ShareAlike 4.0 International License.
# To view a copy of this license, visit
# http://creativecommons.org/licenses/by-nc-sa/4.0/
# or send a letter to
# Creative Commons, PO Box 1866, Mountain View, CA 94042, USA.
#
# CIF created using the CSD Python API on 29 September 2022
# The structure has been converted into the P1 space group
# The structure has a 3D framework
# The original CSD entry MUBWEO is in the monoclinic crystal system
# The framework has been calculated to contain at least 10.0% void space
# The void calculation uses a probe of radius 1.32A, grid spacing 0.4
#
###############################################################################

data_MUBWEO
_chemical_formula_moiety         '(C212 H164 N40 O46 Zn12)n'
_symmetry_cell_setting           triclinic
_symmetry_space_group_name_H-M   'P 1'
_symmetry_Int_Tables_number      1
_space_group_name_Hall           'P 1'
loop_
_symmetry_equiv_pos_site_id
_symmetry_equiv_pos_as_xyz
1 x,y,z
_cell_length_a                   16.4889(15)
_cell_length_b                   12.2884(10)
_cell_length_c                   30.050(2)
_cell_angle_alpha                90
_cell_angle_beta                 114.431(4)
_cell_angle_gamma                90
_cell_volume                     5543.61
loop_
_atom_site_label
_atom_site_type_symbol
_atom_site_fract_x
_atom_site_fract_y
_atom_site_fract_z
Zn3 Zn 0.27495(5) 0.10041(6) 0.13251(3)
N5 N 0.2368(3) 0.1808(4) 0.06908(19)
N8 N 0.1528(4) 0.2707(4) 0.0035(2)
C24 C 0.1556(5) 0.1965(6) 0.0367(2)
H11 H 0.1049 0.1598 0.0367
C27 C 0.2888(5) 0.2513(6) 0.0564(3)
H14 H 0.3513 0.2602 0.0737
C38 C 0.2365(5) 0.3059(6) 0.0153(3)
C48 C 0.0699(5) 0.4420(6) 0.0336(3)
H36 H 0.1177 0.4018 0.0571
C56 C 0.0346(5) 0.5282(6) 0.0486(3)
H44 H 0.0592 0.5478 0.0821
N16 N 0.1729(4) 0.1165(4) 0.1514(2)
N20 N 0.0626(4) 0.0652(5) 0.1692(2)
C84 C 0.1347(4) 0.2084(6) 0.1614(3)
H59 H 0.1527 0.2814 0.1604
C88 C 0.0689(5) 0.1772(6) 0.1726(3)
H63 H 0.0322 0.2238 0.1816
C92 C 0.1262(5) 0.0327(6) 0.1564(3)
N22 N 0.3889(3) 0.1721(4) 0.17579(19)
N2 N 0.6111(3) 0.8279(4) 0.82421(19)
N3 N 0.2460(3) 0.0611(4) 0.77203(19)
N6 N 0.5107(4) 0.7161(4) 0.77541(19)
N9 N 0.3017(4) 0.2108(5) 0.8140(2)
C13 C 0.5959(4) 0.7412(5) 0.7960(2)
H6 H 0.6410 0.7016 0.7911
C21 C 0.5292(5) 0.8582(6) 0.8209(3)
H10 H 0.5181 0.9188 0.8373
C26 C 0.2288(5) 0.1621(5) 0.7814(2)
H13 H 0.1718 0.1955 0.7667
C28 C 0.3355(5) 0.5490(6) 0.7524(3)
H15 H 0.2996 0.6025 0.7301
C29 C 0.3346(5) 0.0450(6) 0.8001(3)
C31 C 0.3465(5) 0.3997(6) 0.8066(3)
C32 C 0.4250(5) 0.5449(6) 0.7638(3)
C35 C 0.4674(5) 0.6242(6) 0.7426(3)
H21 H 0.5125 0.5857 0.7346
H22 H 0.4215 0.6531 0.7116
H24 H 0.2552 0.3583 0.9982
C40 C 0.3069(6) 0.3228(6) 0.8315(3)
H26 H 0.3437 0.3244 0.8672
H27 H 0.2463 0.3480 0.8257
C41 C 0.0716(5) 0.3179(6) 0.9654(2)
H28 H 0.0250 0.2611 0.9530
H29 H 0.0848 0.3430 0.9378
C42 C 0.0368(5) 0.4125(6) 0.9846(3)
C43 C 0.4665(5) 0.7897(6) 0.7912(3)
H30 H 0.4043 0.7921 0.7829
C46 C 0.2966(5) 0.4753(6) 0.7731(3)
H34 H 0.2341 0.4778 0.7638
C47 C 0.3689(5) 0.1372(6) 0.8264(3)
H35 H 0.4287 0.1479 0.8493
C51 C 0.4377(6) 0.3957(7) 0.8167(3)
H39 H 0.4743 0.3427 0.8390
C52 C 0.4745(5) 0.4657(7) 0.7954(3)
H40 H 0.5361 0.4597 0.8026
Zn13 Zn 0.72505(5) 0.89959(6) 0.86749(3)
O25 O 0.0491(3) 0.0457(3) 0.70280(16)
Zn1 Zn 0.46286(4) 0.38950(5) 0.00099(3)
O2 O 0.4069(3) 0.4617(3) 0.04333(16)
O4 O 0.4686(3) 0.6227(4) 0.04222(18)
O5 O 0.1982(3) 0.5932(3) 0.17441(16)
O7 O 0.2480(3) 0.4362(3) 0.15764(17)
O9 O 0.2774(3) 0.9416(3) 0.12977(17)
O12 O 0.3822(4) 0.9512(4) 0.1035(2)
N1 N 0.4466(3) 0.2303(4) 0.00986(19)
N7 N 0.3992(4) 0.0625(4) 0.0053(2)
C1 C 0.4180(4) 0.5609(5) 0.0528(2)
C2 C 0.3268(4) 0.7769(5) 0.1088(2)
C4 C 0.3679(4) 0.6132(5) 0.0789(2)
C5 C 0.3692(4) 0.7257(5) 0.0834(2)
H2 H 0.3998 0.7682 0.0688
C8 C 0.3245(4) 0.5514(5) 0.1016(2)
H3 H 0.3235 0.4744 0.0990
C9 C 0.4988(5) 0.1755(5) 0.0525(3)
H4 H 0.5476 0.2062 0.0793
C11 C 0.3298(4) 0.9007(5) 0.1140(2)
C12 C 0.2829(4) 0.6018(5) 0.1278(2)
C14 C 0.2408(4) 0.5354(5) 0.1555(2)
C16 C 0.2838(4) 0.7146(5) 0.1308(2)
H8 H 0.2545 0.7495 0.1482
C45 C 0.4703(5) 0.0732(6) 0.0501(3)
H33 H 0.4943 0.0186 0.0745
O15 O 0.0491(3) 0.4543(3) 0.20280(16)
H66 H 0.1372 0.9589 0.1513
H73 H 0.0177 0.9187 0.1804
Zn10 Zn 0.15942(5) 0.54141(6) 0.22351(3)
O32 O 0.5847(3) 0.4008(4) 0.06031(16)
Zn2 Zn 0.15942(5) 0.95859(6) 0.72351(3)
O1 O 0.1278(3) 0.8299(3) 0.75450(15)
O6 O 0.3526(3) 0.4391(4) 0.94206(15)
O8 O 0.0226(3) 0.4196(4) 0.85282(17)
O10 O 0.4153(3) 0.5992(4) 0.93969(16)
O11 O 0.2719(3) 0.8109(4) 0.78604(19)
C3 C 0.1866(4) 0.5223(5) 0.8744(2)
H1 H 0.1848 0.4632 0.8944
C6 C 0.1925(4) 0.6910(5) 0.8142(2)
C7 C 0.1074(4) 0.5581(5) 0.8369(2)
C10 C 0.2693(4) 0.6556(5) 0.8523(2)
H5 H 0.3245 0.6893 0.8577
C15 C 0.1109(4) 0.6427(5) 0.8065(2)
H7 H 0.0577 0.6674 0.7806
C17 C 0.3518(4) 0.5334(5) 0.9248(2)
C18 C 0.3871(4) 0.1589(5) 0.9826(2)
H9 H 0.3417 0.1737 0.9511
C19 C 0.2677(4) 0.5707(5) 0.8833(2)
C22 C 0.1992(4) 0.7822(5) 0.7825(2)
C23 C 0.0213(4) 0.5032(5) 0.8294(2)
H16 H 0.3669 0.9804 0.8011
C44 C 0.0035(5) 0.0051(6) 0.8237(3)
C50 C 0.1850(6) 0.0099(7) 0.9519(3)
H38 H 0.1908 0.0244 0.9842
C53 C 0.1034(6) 0.0209(8) 0.9147(3)
H41 H 0.0536 0.0430 0.9207
Zn8 Zn 0.53714(4) 0.61050(5) 0.99901(3)
O28 O 0.5314(3) 0.3773(4) 0.95778(18)
O30 O 0.1982(3) 0.9068(3) 0.67441(16)
H18 H 0.3359 0.9296 0.0155
C20 C 0.2593(5) 0.9794(5) 0.9459(3)
C33 C 0.3466(5) 0.9616(6) 0.9882(3)
H19 H 0.3818 0.9085 0.9787
C37 C 0.0943(5) 0.9984(6) 0.8666(3)
C39 C 0.1681(5) 0.9695(6) 0.8604(3)
H25 H 0.1629 0.9549 0.8282
H32 H 0.0092 0.9831 0.7934
C49 C 0.2500(5) 0.9605(6) 0.8987(3)
H37 H 0.3006 0.9413 0.8929
H45 H 0.7448 0.6417 0.0018
C58 C 0.9284(5) 0.6821(6) 0.0346(2)
H46 H 0.9750 0.7389 0.0470
H47 H 0.9152 0.6570 0.0622
C59 C 0.9632(5) 0.5875(6) 0.0154(3)
C80 C 0.7407(5) 0.0206(5) 0.0541(3)
C91 C 0.6534(5) 0.0384(6) 0.0118(3)
H65 H 0.6182 0.0915 0.0213
C94 C 0.9057(5) 0.0016(6) 0.1334(3)
C95 C 0.8319(5) 0.0305(6) 0.1396(3)
H69 H 0.8371 0.0451 0.1718
H74 H 0.9908 0.0169 0.2066
C102 C 0.7500(5) 0.0395(6) 0.1013(3)
H78 H 0.6994 0.0587 0.1071
C36 C 0.9654(5) 0.4718(6) 0.9514(3)
H23 H 0.9408 0.4522 0.9179
N11 N 0.7632(3) 0.8192(4) 0.93092(19)
N12 N 0.8472(4) 0.7293(4) 0.9965(2)
C54 C 0.8444(5) 0.8035(6) 0.9633(2)
H42 H 0.8951 0.8402 0.9633
C55 C 0.7112(5) 0.7487(6) 0.9436(3)
H43 H 0.6487 0.7398 0.9263
C57 C 0.7635(5) 0.6941(6) 0.9847(3)
C60 C 0.9301(5) 0.5580(6) 0.9664(3)
H48 H 0.8823 0.5982 0.9429
H64 H 0.6641 0.0704 0.9845
Zn5 Zn 0.84058(5) 0.04141(6) 0.27649(3)
O13 O 0.8722(3) 0.1701(3) 0.24550(15)
O18 O 0.6474(3) 0.5609(4) 0.05794(15)
O20 O 0.9774(3) 0.5804(4) 0.14718(17)
O23 O 0.7281(3) 0.1891(4) 0.21396(19)
C63 C 0.8134(4) 0.4777(5) 0.1256(2)
H49 H 0.8152 0.5368 0.1056
C66 C 0.8075(4) 0.3090(5) 0.1858(2)
C67 C 0.8926(4) 0.4419(5) 0.1631(2)
C70 C 0.7307(4) 0.3444(5) 0.1477(2)
H53 H 0.6755 0.3107 0.1423
C75 C 0.8891(4) 0.3573(5) 0.1935(2)
H55 H 0.9423 0.3326 0.2194
C77 C 0.6482(4) 0.4666(5) 0.0752(2)
C78 C 0.6129(4) 0.8411(5) 0.0174(2)
H57 H 0.6583 0.8263 0.0489
C79 C 0.7323(4) 0.4293(5) 0.1167(2)
C82 C 0.8008(4) 0.2178(5) 0.2175(2)
C83 C 0.9787(4) 0.4968(5) 0.1706(2)
H62 H 0.6331 0.0196 0.1989
C98 C 0.9965(5) 0.9949(6) 0.1763(3)
C103 C 0.8150(6) 0.9901(7) 0.0481(3)
H79 H 0.8092 0.9756 0.0158
C106 C 0.8966(6) 0.9791(8) 0.0853(3)
H82 H 0.9464 0.9570 0.0793
O29 O 0.8018(3) 0.0932(3) 0.32559(16)
O3 O 0.9509(3) 0.5457(3) 0.79720(16)
H20 H 0.8628 0.0411 0.8487
H31 H 0.9823 0.0813 0.8196
O14 O 0.5931(3) 0.5383(3) 0.95667(16)
O17 O 0.8018(3) 0.4068(3) 0.82559(16)
O19 O 0.7520(3) 0.5638(3) 0.84236(17)
O21 O 0.7226(3) 0.0584(3) 0.87023(17)
O24 O 0.6178(4) 0.0488(4) 0.8965(2)
N13 N 0.5534(3) 0.7697(4) 0.99014(19)
N18 N 0.6008(4) 0.9375(4) 0.9947(2)
C61 C 0.5820(4) 0.4391(5) 0.9472(2)
C62 C 0.6732(4) 0.2231(5) 0.8912(2)
C64 C 0.6321(4) 0.3868(5) 0.9211(2)
C65 C 0.6308(4) 0.2743(5) 0.9166(2)
H50 H 0.6002 0.2318 0.9312
C68 C 0.6755(4) 0.4486(5) 0.8984(2)
H51 H 0.6765 0.5256 0.9010
C69 C 0.5012(5) 0.8245(5) 0.9475(3)
H52 H 0.4524 0.7938 0.9207
C71 C 0.6702(4) 0.0993(5) 0.8860(2)
C72 C 0.7171(4) 0.3982(5) 0.8722(2)
C74 C 0.7592(4) 0.4646(5) 0.8445(2)
C76 C 0.7162(4) 0.2854(5) 0.8692(2)
H56 H 0.7455 0.2505 0.8518
C99 C 0.5297(5) 0.9268(6) 0.9499(3)
H75 H 0.5057 0.9814 0.9255
Zn9 Zn 0.84058(5) 0.45859(6) 0.77649(3)
N15 N 0.7540(3) 0.9389(4) 0.22797(19)
N17 N 0.4893(4) 0.2839(4) 0.22459(19)
N19 N 0.6983(4) 0.7892(5) 0.1860(2)
C73 C 0.4041(4) 0.2588(5) 0.2040(2)
H54 H 0.3590 0.2984 0.2089
C81 C 0.4708(5) 0.1418(6) 0.1791(3)
H58 H 0.4819 0.0812 0.1627
C85 C 0.7712(5) 0.8379(5) 0.2186(2)
H60 H 0.8282 0.8045 0.2333
C86 C 0.6645(5) 0.4510(6) 0.2476(3)
H61 H 0.7004 0.3975 0.2699
C87 C 0.6654(5) 0.9550(6) 0.1999(3)
C89 C 0.6535(5) 0.6003(6) 0.1934(3)
C90 C 0.5750(5) 0.4551(6) 0.2362(3)
C93 C 0.5326(5) 0.3758(6) 0.2574(3)
H67 H 0.4875 0.4143 0.2654
H68 H 0.5785 0.3469 0.2884
C96 C 0.6931(6) 0.6772(6) 0.1685(3)
H70 H 0.6563 0.6756 0.1328
H71 H 0.7537 0.6520 0.1743
C97 C 0.5335(5) 0.2103(6) 0.2088(3)
H72 H 0.5957 0.2079 0.2171
C100 C 0.7034(5) 0.5247(6) 0.2269(3)
H76 H 0.7659 0.5222 0.2362
C101 C 0.6311(5) 0.8628(6) 0.1736(3)
H77 H 0.5713 0.8521 0.1507
C104 C 0.5623(6) 0.6043(7) 0.1833(3)
H80 H 0.5257 0.6573 0.1610
C105 C 0.5255(5) 0.5343(7) 0.2046(3)
H81 H 0.4639 0.5403 0.1974
O26 O 0.9509(3) 0.9543(3) 0.29720(16)
N4 N 0.8271(4) 0.8835(4) 0.8486(2)
N10 N 0.9374(4) 0.9348(5) 0.8308(2)
C25 C 0.8653(4) 0.7916(6) 0.8386(3)
H12 H 0.8473 0.7186 0.8396
C30 C 0.9311(5) 0.8228(6) 0.8274(3)
H17 H 0.9678 0.7762 0.8184
C34 C 0.8738(5) 0.9673(6) 0.8436(3)
N11_2 N 0.2368(3) 0.3192(4) 0.56908(19)
N12_2 N 0.1528(4) 0.2293(4) 0.5035(2)
C54_2 C 0.1556(5) 0.3035(6) 0.5367(2)
H42_2 H 0.1049 0.3402 0.5367
C55_2 C 0.2888(5) 0.2487(6) 0.5564(3)
H43_2 H 0.3513 0.2398 0.5737
C57_2 C 0.2365(5) 0.1941(6) 0.5153(3)
H45_2 H 0.2552 0.1417 0.4982
C58_2 C 0.0716(5) 0.1821(6) 0.4654(2)
H46_2 H 0.0250 0.2389 0.4530
H47_2 H 0.0848 0.1570 0.4378
C59_2 C 0.0368(5) 0.0875(6) 0.4846(3)
C60_2 C 0.0699(5) 0.0580(6) 0.5336(3)
H48_2 H 0.1177 0.0982 0.5571
Zn12 Zn 0.27495(5) 0.39959(6) 0.63251(3)
C36_2 C 0.0346(5) 0.9718(6) 0.5486(3)
H23_2 H 0.0592 0.9522 0.5821
Zn4 Zn 0.46286(4) 0.11050(5) 0.50099(3)
O14_2 O 0.4069(3) 0.0383(3) 0.54333(16)
O18_2 O 0.3526(3) 0.0609(4) 0.44206(15)
O19_2 O 0.2480(3) 0.0638(3) 0.65764(17)
O20_2 O 0.0226(3) 0.0804(4) 0.35282(17)
N13_2 N 0.4466(3) 0.2697(4) 0.50986(19)
N18_2 N 0.3992(4) 0.4375(4) 0.5053(2)
H49_2 H 0.1848 0.0368 0.3944
H51_2 H 0.3235 0.0256 0.5990
C69_2 C 0.4988(5) 0.3245(5) 0.5525(3)
H52_2 H 0.5476 0.2938 0.5793
C78_2 C 0.3871(4) 0.3411(5) 0.4826(2)
H57_2 H 0.3417 0.3263 0.4511
C80_2 C 0.2593(5) 0.5206(5) 0.4459(3)
C91_2 C 0.3466(5) 0.5384(6) 0.4882(3)
H64_2 H 0.3359 0.5704 0.5155
H65_2 H 0.3818 0.5915 0.4787
C94_2 C 0.0943(5) 0.5016(6) 0.3666(3)
C95_2 C 0.1681(5) 0.5305(6) 0.3604(3)
H69_2 H 0.1629 0.5451 0.3282
C98_2 C 0.0035(5) 0.4949(6) 0.3237(3)
H74_2 H 0.0092 0.5169 0.2934
C99_2 C 0.4703(5) 0.4268(6) 0.5501(3)
H75_2 H 0.4943 0.4814 0.5745
C102_2 C 0.2500(5) 0.5395(6) 0.3987(3)
H78_2 H 0.3006 0.5587 0.3929
C103_2 C 0.1850(6) 0.4901(7) 0.4519(3)
H79_2 H 0.1908 0.4756 0.4842
C106_2 C 0.1034(6) 0.4791(8) 0.4147(3)
H82_2 H 0.0536 0.4570 0.4207
O27 O 0.5314(3) 0.1227(4) 0.45778(18)
O31 O 0.5847(3) 0.0992(4) 0.56031(16)
N4_2 N 0.1729(4) 0.3835(4) 0.6514(2)
N10_2 N 0.0626(4) 0.4348(5) 0.6692(2)
C25_2 C 0.1347(4) 0.2916(6) 0.6614(3)
H12_2 H 0.1527 0.2186 0.6604
C30_2 C 0.0689(5) 0.3228(6) 0.6726(3)
H17_2 H 0.0322 0.2762 0.6816
C34_2 C 0.1262(5) 0.4673(6) 0.6564(3)
H20_2 H 0.1372 0.5411 0.6513
H31_2 H 0.0177 0.5813 0.6804
O13_2 O 0.1278(3) 0.6701(3) 0.25450(15)
O16 O 0.4686(3) 0.8773(4) 0.54222(18)
O21_2 O 0.2774(3) 0.5584(3) 0.62977(17)
O22 O 0.4153(3) 0.9008(4) 0.43969(16)
O23_2 O 0.2719(3) 0.6891(4) 0.28604(19)
O24_2 O 0.3822(4) 0.5488(4) 0.6035(2)
N15_2 N 0.2460(3) 0.4389(4) 0.27203(19)
N19_2 N 0.3017(4) 0.2892(5) 0.3140(2)
C61_2 C 0.4180(4) 0.9391(5) 0.5528(2)
C62_2 C 0.3268(4) 0.7231(5) 0.6088(2)
C63_2 C 0.1866(4) 0.9777(5) 0.3744(2)
C64_2 C 0.3679(4) 0.8868(5) 0.5789(2)
C65_2 C 0.3692(4) 0.7743(5) 0.5834(2)
H50_2 H 0.3998 0.7318 0.5688
C66_2 C 0.1925(4) 0.8090(5) 0.3142(2)
C67_2 C 0.1074(4) 0.9419(5) 0.3369(2)
C68_2 C 0.3245(4) 0.9486(5) 0.6016(2)
C70_2 C 0.2693(4) 0.8444(5) 0.3523(2)
H53_2 H 0.3245 0.8107 0.3577
C71_2 C 0.3298(4) 0.5993(5) 0.6140(2)
C72_2 C 0.2829(4) 0.8982(5) 0.6278(2)
C74_2 C 0.2408(4) 0.9646(5) 0.6555(2)
C75_2 C 0.1109(4) 0.8573(5) 0.3065(2)
H55_2 H 0.0577 0.8326 0.2806
C76_2 C 0.2838(4) 0.7854(5) 0.6308(2)
H56_2 H 0.2545 0.7505 0.6482
C77_2 C 0.3518(4) 0.9666(5) 0.4248(2)
C79_2 C 0.2677(4) 0.9293(5) 0.3833(2)
C82_2 C 0.1992(4) 0.7178(5) 0.2825(2)
C83_2 C 0.0213(4) 0.9968(5) 0.3294(2)
C85_2 C 0.2288(5) 0.3379(5) 0.2814(2)
H60_2 H 0.1718 0.3045 0.2667
C87_2 C 0.3346(5) 0.4550(6) 0.3001(3)
H62_2 H 0.3669 0.5196 0.3011
C89_2 C 0.3465(5) 0.1003(6) 0.3066(3)
C96_2 C 0.3069(6) 0.1772(6) 0.3315(3)
H70_2 H 0.3437 0.1756 0.3672
H71_2 H 0.2463 0.1520 0.3257
C100_2 C 0.2966(5) 0.0247(6) 0.2731(3)
H76_2 H 0.2341 0.0222 0.2638
C101_2 C 0.3689(5) 0.3628(6) 0.3264(3)
H77_2 H 0.4287 0.3521 0.3493
C104_2 C 0.4377(6) 0.1043(7) 0.3167(3)
H80_2 H 0.4743 0.1573 0.3390
C105_2 C 0.4745(5) 0.0343(7) 0.2954(3)
H81_2 H 0.5361 0.0403 0.3026
Zn7 Zn 0.53714(4) 0.88950(5) 0.49901(3)
N21 N 0.3889(3) 0.3279(4) 0.67579(19)
N14 N 0.6111(3) 0.6721(4) 0.32421(19)
N17_2 N 0.5107(4) 0.7839(4) 0.27541(19)
C73_2 C 0.5959(4) 0.7588(5) 0.2960(2)
H54_2 H 0.6410 0.7984 0.2911
C81_2 C 0.5292(5) 0.6418(6) 0.3209(3)
H58_2 H 0.5181 0.5812 0.3373
C86_2 C 0.3355(5) 0.9510(6) 0.2524(3)
H61_2 H 0.2996 0.8975 0.2301
C90_2 C 0.4250(5) 0.9551(6) 0.2638(3)
C93_2 C 0.4674(5) 0.8758(6) 0.2426(3)
H67_2 H 0.5125 0.9143 0.2346
H68_2 H 0.4215 0.8469 0.2116
C97_2 C 0.4665(5) 0.7103(6) 0.2912(3)
H72_2 H 0.4043 0.7079 0.2829
Zn11 Zn 0.72505(5) 0.60041(6) 0.36749(3)
N6_2 N 0.4893(4) 0.2161(4) 0.72459(19)
C13_2 C 0.4041(4) 0.2412(5) 0.7040(2)
H6_2 H 0.3590 0.2016 0.7089
C21_2 C 0.4708(5) 0.3582(6) 0.6791(3)
H10_2 H 0.4819 0.4188 0.6627
C28_2 C 0.6645(5) 0.0490(6) 0.7476(3)
H15_2 H 0.7004 0.1025 0.7699
C32_2 C 0.5750(5) 0.0449(6) 0.7362(3)
C35_2 C 0.5326(5) 0.1242(6) 0.7574(3)
H21_2 H 0.4875 0.0857 0.7654
H22_2 H 0.5785 0.1531 0.7884
C43_2 C 0.5335(5) 0.2897(6) 0.7088(3)
H30_2 H 0.5957 0.2921 0.7171
C56_2 C 0.9654(5) 0.0282(6) 0.4514(3)
H44_2 H 0.9408 0.0478 0.4179
O1_2 O 0.8722(3) 0.3299(3) 0.74550(15)
O9_2 O 0.7226(3) 0.4416(3) 0.37023(17)
O11_2 O 0.7281(3) 0.3109(4) 0.71396(19)
O12_2 O 0.6178(4) 0.4512(4) 0.3965(2)
N3_2 N 0.7540(3) 0.5611(4) 0.72797(19)
N5_2 N 0.7632(3) 0.6808(4) 0.43092(19)
N8_2 N 0.8472(4) 0.7707(4) 0.4965(2)
N9_2 N 0.6983(4) 0.7108(5) 0.6860(2)
C1_2 C 0.5820(4) 0.0609(5) 0.4472(2)
C2_2 C 0.6732(4) 0.2769(5) 0.3912(2)
C3_2 C 0.8134(4) 0.0223(5) 0.6256(2)
C4_2 C 0.6321(4) 0.1132(5) 0.4211(2)
C5_2 C 0.6308(4) 0.2257(5) 0.4166(2)
H2_2 H 0.6002 0.2682 0.4312
C6_2 C 0.8075(4) 0.1910(5) 0.6858(2)
C7_2 C 0.8926(4) 0.0581(5) 0.6631(2)
C8_2 C 0.6755(4) 0.0514(5) 0.3984(2)
C10_2 C 0.7307(4) 0.1556(5) 0.6477(2)
H5_2 H 0.6755 0.1893 0.6423
C11_2 C 0.6702(4) 0.4007(5) 0.3860(2)
C12_2 C 0.7171(4) 0.1018(5) 0.3722(2)
C14_2 C 0.7592(4) 0.0354(5) 0.3445(2)
C15_2 C 0.8891(4) 0.1427(5) 0.6935(2)
H7_2 H 0.9423 0.1674 0.7194
C16_2 C 0.7162(4) 0.2146(5) 0.3692(2)
H8_2 H 0.7455 0.2495 0.3518
C17_2 C 0.6482(4) 0.0334(5) 0.5752(2)
C19_2 C 0.7323(4) 0.0707(5) 0.6167(2)
C22_2 C 0.8008(4) 0.2822(5) 0.7175(2)
C23_2 C 0.9787(4) 0.0032(5) 0.6706(2)
C24_2 C 0.8444(5) 0.6965(6) 0.4633(2)
H11_2 H 0.8951 0.6598 0.4633
C26_2 C 0.7712(5) 0.6621(5) 0.7186(2)
H13_2 H 0.8282 0.6955 0.7333
C27_2 C 0.7112(5) 0.7513(6) 0.4436(3)
H14_2 H 0.6487 0.7602 0.4263
C29_2 C 0.6654(5) 0.5450(6) 0.6999(3)
H16_2 H 0.6331 0.4804 0.6989
C31_2 C 0.6535(5) 0.8997(6) 0.6934(3)
C38_2 C 0.7635(5) 0.8059(6) 0.4847(3)
H24_2 H 0.7448 0.8583 0.5018
C40_2 C 0.6931(6) 0.8228(6) 0.6685(3)
H26_2 H 0.6563 0.8244 0.6328
H27_2 H 0.7537 0.8480 0.6743
C41_2 C 0.9284(5) 0.8179(6) 0.5346(2)
H28_2 H 0.9750 0.7611 0.5470
H29_2 H 0.9152 0.8430 0.5622
C42_2 C 0.9632(5) 0.9125(6) 0.5154(3)
C46_2 C 0.7034(5) 0.9753(6) 0.7269(3)
H34_2 H 0.7659 0.9778 0.7362
C47_2 C 0.6311(5) 0.6372(6) 0.6736(3)
H35_2 H 0.5713 0.6479 0.6507
C48_2 C 0.9301(5) 0.9420(6) 0.4664(3)
H36_2 H 0.8823 0.9018 0.4429
C51_2 C 0.5623(6) 0.8957(7) 0.6833(3)
H39_2 H 0.5257 0.8427 0.6610
C52_2 C 0.5255(5) 0.9657(7) 0.7046(3)
H40_2 H 0.4639 0.9597 0.6974
N16_2 N 0.8271(4) 0.6165(4) 0.3486(2)
N20_2 N 0.9374(4) 0.5652(5) 0.3308(2)
C84_2 C 0.8653(4) 0.7084(6) 0.3386(3)
H59_2 H 0.8473 0.7814 0.3396
C88_2 C 0.9311(5) 0.6772(6) 0.3274(3)
H63_2 H 0.9678 0.7238 0.3184
C92_2 C 0.8738(5) 0.5327(6) 0.3436(3)
H66_2 H 0.8628 0.4589 0.3487
H73_2 H 0.9823 0.4187 0.3196
O2_2 O 0.5931(3) 0.9617(3) 0.45667(16)
O6_2 O 0.6474(3) 0.9391(4) 0.55794(15)
O7_2 O 0.7520(3) 0.9362(3) 0.34236(17)
O8_2 O 0.9774(3) 0.9196(4) 0.64718(17)
N1_2 N 0.5534(3) 0.7303(4) 0.49014(19)
N7_2 N 0.6008(4) 0.5625(4) 0.4947(2)
H1_2 H 0.8152 0.9632 0.6056
H3_2 H 0.6765 0.9744 0.4010
C9_2 C 0.5012(5) 0.6755(5) 0.4475(3)
H4_2 H 0.4524 0.7062 0.4207
C18_2 C 0.6129(4) 0.6589(5) 0.5174(2)
H9_2 H 0.6583 0.6737 0.5489
C20_2 C 0.7407(5) 0.4794(5) 0.5541(3)
C33_2 C 0.6534(5) 0.4616(6) 0.5118(3)
H18_2 H 0.6641 0.4296 0.4845
H19_2 H 0.6182 0.4085 0.5213
C37_2 C 0.9057(5) 0.4984(6) 0.6334(3)
C39_2 C 0.8319(5) 0.4695(6) 0.6396(3)
H25_2 H 0.8371 0.4549 0.6718
C44_2 C 0.9965(5) 0.5051(6) 0.6763(3)
H32_2 H 0.9908 0.4831 0.7066
C45_2 C 0.5297(5) 0.5732(6) 0.4499(3)
H33_2 H 0.5057 0.5186 0.4255
C49_2 C 0.7500(5) 0.4605(6) 0.6013(3)
H37_2 H 0.6994 0.4413 0.6071
C50_2 C 0.8150(6) 0.5099(7) 0.5481(3)
H38_2 H 0.8092 0.5244 0.5158
C53_2 C 0.8966(6) 0.5209(8) 0.5853(3)
H41_2 H 0.9464 0.5430 0.5793
loop_
_geom_bond_atom_site_label_1
_geom_bond_atom_site_label_2
_geom_bond_site_symmetry_1
_geom_bond_site_symmetry_2
N5 Zn3 1_555 1_555
N8 C24 1_555 1_555
C24 N5 1_555 1_555
H11 C24 1_555 1_555
C27 N5 1_555 1_555
H14 C27 1_555 1_555
C38 N8 1_555 1_555
H36 C48 1_555 1_555
C56 C48 1_555 1_555
H44 C56 1_555 1_555
N16 Zn3 1_555 1_555
N20 C88 1_555 1_555
C84 N16 1_555 1_555
H59 C84 1_555 1_555
C88 C84 1_555 1_555
H63 C88 1_555 1_555
C92 N16 1_555 1_555
N22 Zn3 1_555 1_555
C27 C38 1_555 1_555
N20 C92 1_555 1_555
N2 C13 1_555 1_555
N6 C13 1_555 1_555
N9 C26 1_555 1_555
C13 H6 1_555 1_555
C21 N2 1_555 1_555
H10 C21 1_555 1_555
C26 N3 1_555 1_555
H13 C26 1_555 1_555
C28 H15 1_555 1_555
C29 N3 1_555 1_555
C31 C40 1_555 1_555
C32 C28 1_555 1_555
C35 N6 1_555 1_555
H21 C35 1_555 1_555
H22 C35 1_555 1_555
C40 N9 1_555 1_555
H26 C40 1_555 1_555
H27 C40 1_555 1_555
H28 C41 1_555 1_555
H29 C41 1_555 1_555
C43 N6 1_555 1_555
H30 C43 1_555 1_555
C46 C28 1_555 1_555
H34 C46 1_555 1_555
C47 N9 1_555 1_555
H35 C47 1_555 1_555
C51 C31 1_555 1_555
H39 C51 1_555 1_555
C52 C32 1_555 1_555
H40 C52 1_555 1_555
Zn13 N2 1_555 1_555
C21 C43 1_555 1_555
C29 C47 1_555 1_555
C31 C46 1_555 1_555
C32 C35 1_555 1_555
C41 C42 1_555 1_555
C51 C52 1_555 1_555
Zn1 O2 1_555 1_555
O2 C1 1_555 1_555
O4 C1 1_555 1_555
O5 C14 1_555 1_555
O7 C14 1_555 1_555
O9 C11 1_555 1_555
O12 C11 1_555 1_555
N1 Zn1 1_555 1_555
C1 C4 1_555 1_555
C2 C5 1_555 1_555
C4 C5 1_555 1_555
C5 H2 1_555 1_555
C8 C4 1_555 1_555
H3 C8 1_555 1_555
C9 N1 1_555 1_555
H4 C9 1_555 1_555
C11 C2 1_555 1_555
C12 C8 1_555 1_555
C14 C12 1_555 1_555
C16 C2 1_555 1_555
H8 C16 1_555 1_555
C45 N7 1_555 1_555
H33 C45 1_555 1_555
Zn10 O5 1_555 1_555
O32 Zn1 1_555 1_555
C9 C45 1_555 1_555
C12 C16 1_555 1_555
O15 Zn10 1_555 1_555
Zn2 O1 1_555 1_555
O1 C22 1_555 1_555
O8 C23 1_555 1_555
O10 C17 1_555 1_555
O11 C22 1_555 1_555
C3 H1 1_555 1_555
C6 C10 1_555 1_555
C7 C3 1_555 1_555
C10 H5 1_555 1_555
C15 C6 1_555 1_555
H7 C15 1_555 1_555
C17 O6 1_555 1_555
H9 C18 1_555 1_555
C19 C3 1_555 1_555
C22 C6 1_555 1_555
C23 C7 1_555 1_555
H38 C50 1_555 1_555
H41 C53 1_555 1_555
O30 Zn2 1_555 1_555
O10 Zn8 1_555 1_555
C7 C15 1_555 1_555
C10 C19 1_555 1_555
C17 C19 1_555 1_555
C50 C53 1_555 1_555
C20 C33 1_555 1_555
H19 C33 1_555 1_555
C37 C39 1_555 1_555
C39 H25 1_555 1_555
C49 C20 1_555 1_555
H37 C49 1_555 1_555
C39 C49 1_555 1_555
H46 C58 1_555 1_555
H47 C58 1_555 1_555
C80 C91 1_555 1_555
H65 C91 1_555 1_555
C94 C95 1_555 1_555
C95 H69 1_555 1_555
C102 C80 1_555 1_555
H78 C102 1_555 1_555
C58 C59 1_555 1_555
C95 C102 1_555 1_555
C36 H23 1_555 1_555
N11 C54 1_555 1_555
N12 C54 1_555 1_555
C54 H42 1_555 1_555
C55 N11 1_555 1_555
H43 C55 1_555 1_555
C57 N12 1_555 1_555
C60 C36 1_555 1_555
H48 C60 1_555 1_555
Zn13 N11 1_555 1_555
C55 C57 1_555 1_555
Zn5 O13 1_555 1_555
O13 C82 1_555 1_555
O20 C83 1_555 1_555
O32 C77 1_555 1_555
O23 C82 1_555 1_555
C63 H49 1_555 1_555
C66 C70 1_555 1_555
C67 C63 1_555 1_555
C70 H53 1_555 1_555
C75 C66 1_555 1_555
H55 C75 1_555 1_555
C77 O18 1_555 1_555
H57 C78 1_555 1_555
C79 C63 1_555 1_555
C82 C66 1_555 1_555
C83 C67 1_555 1_555
H79 C103 1_555 1_555
H82 C106 1_555 1_555
O29 Zn5 1_555 1_555
C67 C75 1_555 1_555
C70 C79 1_555 1_555
C77 C79 1_555 1_555
C103 C106 1_555 1_555
Zn8 O14 1_555 1_555
O14 C61 1_555 1_555
O28 C61 1_555 1_555
O17 C74 1_555 1_555
O19 C74 1_555 1_555
O24 C71 1_555 1_555
N13 Zn8 1_555 1_555
C61 C64 1_555 1_555
C62 C65 1_555 1_555
C64 C65 1_555 1_555
C65 H50 1_555 1_555
C68 C64 1_555 1_555
H51 C68 1_555 1_555
C69 N13 1_555 1_555
H52 C69 1_555 1_555
C71 O21 1_555 1_555
C72 C68 1_555 1_555
C74 C72 1_555 1_555
C76 C62 1_555 1_555
H56 C76 1_555 1_555
C99 N18 1_555 1_555
H75 C99 1_555 1_555
Zn9 O3 1_555 1_555
O17 Zn9 1_555 1_555
C62 C71 1_555 1_555
C69 C99 1_555 1_555
C72 C76 1_555 1_555
N22 C73 1_555 1_555
N17 C73 1_555 1_555
N19 C85 1_555 1_555
C73 H54 1_555 1_555
C81 N22 1_555 1_555
H58 C81 1_555 1_555
C85 N15 1_555 1_555
H60 C85 1_555 1_555
C86 H61 1_555 1_555
C87 N15 1_555 1_555
C89 C96 1_555 1_555
C90 C86 1_555 1_555
C93 N17 1_555 1_555
H67 C93 1_555 1_555
H68 C93 1_555 1_555
C96 N19 1_555 1_555
H70 C96 1_555 1_555
H71 C96 1_555 1_555
C97 N17 1_555 1_555
H72 C97 1_555 1_555
C100 C86 1_555 1_555
H76 C100 1_555 1_555
C101 N19 1_555 1_555
H77 C101 1_555 1_555
C104 C89 1_555 1_555
H80 C104 1_555 1_555
C105 C90 1_555 1_555
H81 C105 1_555 1_555
C81 C97 1_555 1_555
C87 C101 1_555 1_555
C89 C100 1_555 1_555
C90 C93 1_555 1_555
C104 C105 1_555 1_555
N4 C25 1_555 1_555
N10 C30 1_555 1_555
C25 H12 1_555 1_555
C30 C25 1_555 1_555
H17 C30 1_555 1_555
C34 N4 1_555 1_555
Zn13 N4 1_555 1_555
N10 C34 1_555 1_555
N11_2 C54_2 1_555 1_555
N12_2 C54_2 1_555 1_555
C54_2 H42_2 1_555 1_555
C55_2 N11_2 1_555 1_555
H43_2 C55_2 1_555 1_555
C57_2 N12_2 1_555 1_555
H45_2 C57_2 1_555 1_555
C58_2 N12_2 1_555 1_555
H46_2 C58_2 1_555 1_555
H47_2 C58_2 1_555 1_555
H48_2 C60_2 1_555 1_555
Zn12 N11_2 1_555 1_555
C55_2 C57_2 1_555 1_555
C58_2 C59_2 1_555 1_555
C59_2 C60_2 1_555 1_555
C36_2 H23_2 1_555 1_555
Zn4 O14_2 1_555 1_555
O18_2 Zn4 1_555 1_555
N13_2 Zn4 1_555 1_555
N18_2 C78_2 1_555 1_555
C69_2 N13_2 1_555 1_555
H52_2 C69_2 1_555 1_555
C78_2 N13_2 1_555 1_555
H57_2 C78_2 1_555 1_555
C80_2 C91_2 1_555 1_555
C91_2 N18_2 1_555 1_555
H64_2 C91_2 1_555 1_555
H65_2 C91_2 1_555 1_555
C94_2 C95_2 1_555 1_555
C95_2 H69_2 1_555 1_555
H74_2 C98_2 1_555 1_555
C99_2 N18_2 1_555 1_555
H75_2 C99_2 1_555 1_555
C102_2 C80_2 1_555 1_555
H78_2 C102_2 1_555 1_555
C103_2 C80_2 1_555 1_555
H79_2 C103_2 1_555 1_555
C106_2 C94_2 1_555 1_555
H82_2 C106_2 1_555 1_555
O27 Zn4 1_555 1_555
O31 Zn4 1_555 1_555
C69_2 C99_2 1_555 1_555
C94_2 C98_2 1_555 1_555
C95_2 C102_2 1_555 1_555
C103_2 C106_2 1_555 1_555
N4_2 C25_2 1_555 1_555
N10_2 C30_2 1_555 1_555
C25_2 H12_2 1_555 1_555
C30_2 C25_2 1_555 1_555
H17_2 C30_2 1_555 1_555
C34_2 N4_2 1_555 1_555
H20_2 C34_2 1_555 1_555
Zn10 O13_2 1_555 1_555
Zn12 N4_2 1_555 1_555
O13_2 C82_2 1_555 1_555
O16 C61_2 1_555 1_555
O30 C74_2 1_555 1_555
O21_2 Zn12 1_555 1_555
O22 C77_2 1_555 1_555
O23_2 C82_2 1_555 1_555
O24_2 C71_2 1_555 1_555
N15_2 Zn10 1_555 1_555
N19_2 C85_2 1_555 1_555
C61_2 C64_2 1_555 1_555
C62_2 C65_2 1_555 1_555
C64_2 C65_2 1_555 1_555
C65_2 H50_2 1_555 1_555
C66_2 C70_2 1_555 1_555
C67_2 C63_2 1_555 1_555
C68_2 C64_2 1_555 1_555
C70_2 H53_2 1_555 1_555
C71_2 O21_2 1_555 1_555
C72_2 C68_2 1_555 1_555
C74_2 C72_2 1_555 1_555
C75_2 C66_2 1_555 1_555
H55_2 C75_2 1_555 1_555
C76_2 C62_2 1_555 1_555
H56_2 C76_2 1_555 1_555
C79_2 C63_2 1_555 1_555
C82_2 C66_2 1_555 1_555
C83_2 C67_2 1_555 1_555
C85_2 N15_2 1_555 1_555
H60_2 C85_2 1_555 1_555
C87_2 N15_2 1_555 1_555
H62_2 C87_2 1_555 1_555
C89_2 C96_2 1_555 1_555
C96_2 N19_2 1_555 1_555
H70_2 C96_2 1_555 1_555
H71_2 C96_2 1_555 1_555
H76_2 C100_2 1_555 1_555
C101_2 N19_2 1_555 1_555
H77_2 C101_2 1_555 1_555
C104_2 C89_2 1_555 1_555
H80_2 C104_2 1_555 1_555
H81_2 C105_2 1_555 1_555
Zn7 O16 1_555 1_555
N21 Zn12 1_555 1_555
N10_2 C34_2 1_555 1_555
O22 Zn7 1_555 1_555
C62_2 C71_2 1_555 1_555
C67_2 C75_2 1_555 1_555
C70_2 C79_2 1_555 1_555
C72_2 C76_2 1_555 1_555
C77_2 C79_2 1_555 1_555
C87_2 C101_2 1_555 1_555
C89_2 C100_2 1_555 1_555
C104_2 C105_2 1_555 1_555
N14 C73_2 1_555 1_555
N17_2 C73_2 1_555 1_555
C73_2 H54_2 1_555 1_555
C81_2 N14 1_555 1_555
H58_2 C81_2 1_555 1_555
C86_2 H61_2 1_555 1_555
C90_2 C86_2 1_555 1_555
C93_2 N17_2 1_555 1_555
H67_2 C93_2 1_555 1_555
H68_2 C93_2 1_555 1_555
C97_2 N17_2 1_555 1_555
H72_2 C97_2 1_555 1_555
Zn11 N14 1_555 1_555
C81_2 C97_2 1_555 1_555
C90_2 C93_2 1_555 1_555
N21 C13_2 1_555 1_555
N6_2 C13_2 1_555 1_555
C13_2 H6_2 1_555 1_555
C21_2 N21 1_555 1_555
H10_2 C21_2 1_555 1_555
C28_2 H15_2 1_555 1_555
C32_2 C28_2 1_555 1_555
C35_2 N6_2 1_555 1_555
H21_2 C35_2 1_555 1_555
H22_2 C35_2 1_555 1_555
C43_2 N6_2 1_555 1_555
H30_2 C43_2 1_555 1_555
H44_2 C56_2 1_555 1_555
C21_2 C43_2 1_555 1_555
C32_2 C35_2 1_555 1_555
Zn9 O1_2 1_555 1_555
Zn11 O9_2 1_555 1_555
O1_2 C22_2 1_555 1_555
O27 C1_2 1_555 1_555
O29 C14_2 1_555 1_555
O9_2 C11_2 1_555 1_555
O31 C17_2 1_555 1_555
O11_2 C22_2 1_555 1_555
O12_2 C11_2 1_555 1_555
N3_2 Zn9 1_555 1_555
N5_2 Zn11 1_555 1_555
N8_2 C24_2 1_555 1_555
N9_2 C26_2 1_555 1_555
C1_2 C4_2 1_555 1_555
C2_2 C5_2 1_555 1_555
C4_2 C5_2 1_555 1_555
C5_2 H2_2 1_555 1_555
C6_2 C10_2 1_555 1_555
C7_2 C3_2 1_555 1_555
C8_2 C4_2 1_555 1_555
C10_2 H5_2 1_555 1_555
C11_2 C2_2 1_555 1_555
C12_2 C8_2 1_555 1_555
C14_2 C12_2 1_555 1_555
C15_2 C6_2 1_555 1_555
H7_2 C15_2 1_555 1_555
C16_2 C2_2 1_555 1_555
H8_2 C16_2 1_555 1_555
C19_2 C3_2 1_555 1_555
C22_2 C6_2 1_555 1_555
C23_2 C7_2 1_555 1_555
C24_2 N5_2 1_555 1_555
H11_2 C24_2 1_555 1_555
C26_2 N3_2 1_555 1_555
H13_2 C26_2 1_555 1_555
C27_2 N5_2 1_555 1_555
H14_2 C27_2 1_555 1_555
C29_2 N3_2 1_555 1_555
H16_2 C29_2 1_555 1_555
C31_2 C40_2 1_555 1_555
C38_2 N8_2 1_555 1_555
H24_2 C38_2 1_555 1_555
C40_2 N9_2 1_555 1_555
H26_2 C40_2 1_555 1_555
H27_2 C40_2 1_555 1_555
C41_2 N8_2 1_555 1_555
H28_2 C41_2 1_555 1_555
H29_2 C41_2 1_555 1_555
H34_2 C46_2 1_555 1_555
C47_2 N9_2 1_555 1_555
H35_2 C47_2 1_555 1_555
C48_2 C42_2 1_555 1_555
H36_2 C48_2 1_555 1_555
C51_2 C31_2 1_555 1_555
H39_2 C51_2 1_555 1_555
H40_2 C52_2 1_555 1_555
N16_2 Zn11 1_555 1_555
N20_2 C88_2 1_555 1_555
C84_2 N16_2 1_555 1_555
H59_2 C84_2 1_555 1_555
C88_2 C84_2 1_555 1_555
H63_2 C88_2 1_555 1_555
C92_2 N16_2 1_555 1_555
H66_2 C92_2 1_555 1_555
C7_2 C15_2 1_555 1_555
C10_2 C19_2 1_555 1_555
C12_2 C16_2 1_555 1_555
C17_2 C19_2 1_555 1_555
C27_2 C38_2 1_555 1_555
C29_2 C47_2 1_555 1_555
C31_2 C46_2 1_555 1_555
C41_2 C42_2 1_555 1_555
C51_2 C52_2 1_555 1_555
N20_2 C92_2 1_555 1_555
Zn7 O2_2 1_555 1_555
O6_2 Zn7 1_555 1_555
N1_2 Zn7 1_555 1_555
N7_2 C18_2 1_555 1_555
C9_2 N1_2 1_555 1_555
H4_2 C9_2 1_555 1_555
C18_2 N1_2 1_555 1_555
H9_2 C18_2 1_555 1_555
C20_2 C33_2 1_555 1_555
C33_2 N7_2 1_555 1_555
H18_2 C33_2 1_555 1_555
H19_2 C33_2 1_555 1_555
C37_2 C39_2 1_555 1_555
C39_2 H25_2 1_555 1_555
H32_2 C44_2 1_555 1_555
C45_2 N7_2 1_555 1_555
H33_2 C45_2 1_555 1_555
C49_2 C20_2 1_555 1_555
H37_2 C49_2 1_555 1_555
C50_2 C20_2 1_555 1_555
H38_2 C50_2 1_555 1_555
C53_2 C37_2 1_555 1_555
H41_2 C53_2 1_555 1_555
C9_2 C45_2 1_555 1_555
C37_2 C44_2 1_555 1_555
C39_2 C49_2 1_555 1_555
C50_2 C53_2 1_555 1_555

#END
