
###############################################################################
#
# This file contains modified crystal structure data generated from the
# MOF subset of the Cambridge Structural Database (CSD) v543 
# hosted by the Cambridge Crystallographic Data Centre (CCDC).
#
# This work is licensed under the Creative Commons
# Attribution-NonCommercial-ShareAlike 4.0 International License.
# To view a copy of this license, visit
# http://creativecommons.org/licenses/by-nc-sa/4.0/
# or send a letter to
# Creative Commons, PO Box 1866, Mountain View, CA 94042, USA.
#
# CIF created using the CSD Python API on 29 September 2022
# The structure has been converted into the P1 space group
# The structure has a 3D framework
# The original CSD entry MUBYUF is in the orthorhombic crystal system
# The framework has been calculated to contain at least 10.0% void space
# The void calculation uses a probe of radius 1.32A, grid spacing 0.4
#
###############################################################################

data_MUBYUF
_chemical_formula_moiety         '(C248 H208 N48 O56 Zn12)n'
_symmetry_cell_setting           triclinic
_symmetry_space_group_name_H-M   'P 1'
_symmetry_Int_Tables_number      1
_space_group_name_Hall           'P 1'
loop_
_symmetry_equiv_pos_site_id
_symmetry_equiv_pos_as_xyz
1 x,y,z
_cell_length_a                   14.5062(10)
_cell_length_b                   20.7297(13)
_cell_length_c                   22.0330(15)
_cell_angle_alpha                90
_cell_angle_beta                 90
_cell_angle_gamma                90
_cell_volume                     6625.53
loop_
_atom_site_label
_atom_site_type_symbol
_atom_site_fract_x
_atom_site_fract_y
_atom_site_fract_z
Zn1 Zn 0.2500 0.2500 0.25509(2)
Zn2 Zn 0.49462(3) 0.49118(2) 0.31619(2)
O1 O 0.43571(18) 0.28518(13) 0.28018(12)
O2 O 0.35355(16) 0.26721(12) 0.19676(11)
O3 O 0.61153(19) 0.37713(14) 0.30285(12)
O4 O 0.50448(18) 0.42896(12) 0.24883(12)
O5 O 0.72347(18) 0.39242(13) 0.18399(12)
O6 O 0.8875(2) 0.45163(15) 0.18872(15)
O7 O 0.9340(3) 0.3916(2) 0.26445(19)
N1 N 0.2776(2) 0.16684(16) 0.29775(13)
N2 N 0.3541(2) 0.08742(17) 0.33929(14)
N3 N 0.2587(2) 0.05129(16) 0.64691(13)
N4 N 0.1135(2) 0.03671(14) 0.67008(14)
N5 N 0.4559(2) 0.44744(17) 0.39311(14)
N6 N 0.4306(3) 0.3722(2) 0.46058(17)
C1 C 0.4278(2) 0.28230(16) 0.22419(17)
C2 C 0.5646(3) 0.38472(17) 0.25682(17)
C3 C 0.5105(2) 0.29603(18) 0.18489(15)
C4 C 0.5228(3) 0.2615(2) 0.13219(17)
H1 H 0.4783 0.2319 0.1202
C5 C 0.6007(3) 0.2703(2) 0.09682(18)
H2 H 0.6082 0.2465 0.0614
C6 C 0.6665(3) 0.3139(2) 0.11390(18)
H3 H 0.7184 0.3204 0.0898
C7 C 0.6556(2) 0.34824(18) 0.16712(17)
C8 C 0.5773(2) 0.34103(17) 0.20284(16)
C9 C 0.7960(3) 0.3624(2) 0.2180(2)
H4 H 0.8147 0.3230 0.1977
H5 H 0.7730 0.3508 0.2579
C10 C 0.8789(3) 0.4061(2) 0.2251(2)
C11 C 0.3564(3) 0.1494(2) 0.32259(17)
H6 H 0.4069 0.1765 0.3278
C12 C 0.2229(3) 0.1131(2) 0.29909(17)
H7 H 0.1628 0.1110 0.2845
C13 C 0.2689(3) 0.0636(2) 0.32465(18)
H8 H 0.2473 0.0219 0.3310
C14 C 0.4262(3) 0.0521(2) 0.37241(19)
H9 H 0.4850 0.0733 0.3661
H10 H 0.4308 0.0087 0.3563
C15 C 0.4062(3) 0.0488(2) 0.43935(18)
C18 C 0.3722(3) 0.0415(2) 0.56410(19)
C19 C 0.4086(4) 0.0961(2) 0.5391(2)
H13 H 0.4221 0.1314 0.5636
C20 C 0.4256(4) 0.0992(2) 0.4766(2)
H14 H 0.4509 0.1365 0.4602
C21 C 0.3549(3) 0.0365(3) 0.63162(19)
H16 H 0.3952 0.0662 0.6528
C22 C 0.1926(3) 0.00850(19) 0.65808(18)
C23 C 0.1306(3) 0.10132(19) 0.66667(17)
H18 H 0.0875 0.1338 0.6734
C24 C 0.2199(3) 0.1107(2) 0.65192(18)
H19 H 0.2492 0.1502 0.6463
C25 C 0.4698(3) 0.3874(2) 0.4079(2)
H20 H 0.5032 0.3585 0.3843
C26 C 0.4032(4) 0.4728(3) 0.4385(2)
H21 H 0.3817 0.5150 0.4407
C27 C 0.3876(5) 0.4260(3) 0.4796(3)
H22 H 0.3531 0.4302 0.5149
C28 C 0.4307(4) 0.3084(3) 0.4888(2)
H23 H 0.4523 0.3123 0.5303
H24 H 0.4734 0.2807 0.4672
C29 C 0.3369(4) 0.2775(2) 0.4888(2)
C30 C 0.2929(4) 0.2635(3) 0.4348(2)
H25 H 0.3220 0.2726 0.3982
C31 C 0.2938(3) 0.2638(2) 0.54221(18)
H26 H 0.3230 0.2728 0.5788
N7 N 0.0441(2) 0.05256(17) 0.39311(14)
N8 N 0.0694(3) 0.1278(2) 0.46058(17)
C32 C 0.0302(3) 0.1126(2) 0.4079(2)
C33 C 0.0968(4) 0.0272(3) 0.4385(2)
C34 C 0.1124(5) 0.0740(3) 0.4796(3)
H29 H 0.1469 0.0698 0.5149
C35 C 0.0693(4) 0.1916(3) 0.4888(2)
H30 H 0.0477 0.1877 0.5303
H31 H 0.0266 0.2193 0.4672
C36 C 0.1631(4) 0.2225(2) 0.4888(2)
C37 C 0.2071(4) 0.2365(3) 0.4348(2)
H32 H 0.1780 0.2274 0.3982
C38 C 0.2062(3) 0.2362(2) 0.54221(18)
H33 H 0.1770 0.2272 0.5788
Zn3 Zn 0.00538(3) 0.00882(2) 0.31619(2)
O8 O 0.06429(18) 0.21482(13) 0.28018(12)
O9 O 0.14645(16) 0.23279(12) 0.19676(11)
N9 N 0.2224(2) 0.33316(16) 0.29775(13)
N10 N 0.1459(2) 0.41258(17) 0.33929(14)
N11 N 0.2413(2) 0.44871(16) 0.64691(13)
N12 N 0.3865(2) 0.46329(14) 0.67008(14)
C39 C 0.0722(2) 0.21770(16) 0.22419(17)
H34 H 0.0217 0.2681 0.1202
C49 C 0.1436(3) 0.3506(2) 0.32259(17)
H39 H 0.0931 0.3235 0.3278
C50 C 0.2771(3) 0.3869(2) 0.29909(17)
H40 H 0.3372 0.3890 0.2845
C51 C 0.2311(3) 0.4364(2) 0.32465(18)
H41 H 0.2527 0.4781 0.3310
C52 C 0.0738(3) 0.4479(2) 0.37241(19)
H42 H 0.0150 0.4267 0.3661
H43 H 0.0692 0.4913 0.3563
C53 C 0.0938(3) 0.4512(2) 0.43935(18)
C54 C 0.1302(4) 0.5058(2) 0.4645(2)
H44 H 0.1439 0.5409 0.4399
C55 C 0.1471(4) 0.5092(2) 0.5265(2)
H45 H 0.1720 0.5467 0.5427
C56 C 0.1278(3) 0.4585(2) 0.56410(19)
C57 C 0.0914(4) 0.4039(2) 0.5391(2)
H46 H 0.0779 0.3686 0.5636
C58 C 0.0744(4) 0.4008(2) 0.4766(2)
H47 H 0.0491 0.3635 0.4602
C59 C 0.1451(3) 0.4635(3) 0.63162(19)
H48 H 0.1305 0.5068 0.6452
H49 H 0.1048 0.4338 0.6528
C60 C 0.3074(3) 0.49150(19) 0.65808(18)
H50 H 0.2987 0.5359 0.6575
C61 C 0.3694(3) 0.39868(19) 0.66667(17)
H51 H 0.4125 0.3662 0.6734
C62 C 0.2801(3) 0.3893(2) 0.65192(18)
H52 H 0.2508 0.3498 0.6463
Zn4 Zn 0.99462(3) 0.50882(2) 0.18381(2)
Zn6 Zn 0.50538(3) 0.50882(2) 0.68381(2)
O15 O 0.3875(2) 0.54837(15) 0.31128(15)
N14 N 0.6135(2) 0.53671(14) 0.32992(14)
C16 C 0.3698(4) 0.9942(2) 0.4645(2)
H11 H 0.3561 0.9591 0.4399
C17 C 0.3529(4) 0.9908(2) 0.5265(2)
H12 H 0.3280 0.9533 0.5427
H15 H 0.3695 0.9932 0.6452
H17 H 0.2013 0.9641 0.6575
H28 H 0.1183 0.9850 0.4407
O16 O 0.1125(2) 0.95163(15) 0.31128(15)
H27 H 0.9968 0.1415 0.3843
O10 O 0.88847(19) 0.12287(14) 0.30285(12)
O11 O 0.99552(18) 0.07104(12) 0.24883(12)
O12 O 0.77653(18) 0.10758(13) 0.18399(12)
O13 O 0.6125(2) 0.04837(15) 0.18872(15)
O14 O 0.5660(3) 0.1084(2) 0.26445(19)
C40 C 0.9354(3) 0.11528(17) 0.25682(17)
C41 C 0.9895(2) 0.20397(18) 0.18489(15)
C42 C 0.9772(3) 0.2385(2) 0.13219(17)
C43 C 0.8993(3) 0.2297(2) 0.09682(18)
H35 H 0.8918 0.2535 0.0614
C44 C 0.8335(3) 0.1861(2) 0.11390(18)
H36 H 0.7816 0.1796 0.0898
C45 C 0.8444(2) 0.15176(18) 0.16712(17)
C46 C 0.9227(2) 0.15897(17) 0.20284(16)
C47 C 0.7040(3) 0.1376(2) 0.2180(2)
H37 H 0.6853 0.1770 0.1977
H38 H 0.7270 0.1492 0.2579
C48 C 0.6211(3) 0.0939(2) 0.2251(2)
Zn5 Zn 0.50538(3) 0.99118(2) 0.18381(2)
Zn7 Zn 0.99462(3) 0.99118(2) 0.68381(2)
N13 N 0.8865(2) 0.96329(14) 0.32992(14)
O3_2 O 0.11153(19) 0.62287(14) 0.19715(12)
O4_2 O 0.00448(18) 0.57104(12) 0.25117(12)
O5_2 O 0.22347(18) 0.60758(13) 0.31601(12)
O7_2 O 0.4340(3) 0.6084(2) 0.23555(19)
C2_2 C 0.0646(3) 0.61528(17) 0.24318(17)
C3_2 C 0.0105(2) 0.70397(18) 0.31511(15)
C4_2 C 0.0228(3) 0.7385(2) 0.36781(17)
C5_2 C 0.1007(3) 0.7297(2) 0.40318(18)
H2_2 H 0.1082 0.7535 0.4386
C6_2 C 0.1665(3) 0.6861(2) 0.38610(18)
H3_2 H 0.2184 0.6796 0.4102
C7_2 C 0.1556(2) 0.65176(18) 0.33288(17)
C8_2 C 0.0773(2) 0.65897(17) 0.29716(16)
C9_2 C 0.2960(3) 0.6376(2) 0.2820(2)
H4_2 H 0.3147 0.6770 0.3023
H5_2 H 0.2730 0.6492 0.2421
C10_2 C 0.3789(3) 0.5939(2) 0.2749(2)
H20_2 H 0.0032 0.6415 0.1157
N14_2 N 0.1135(2) 0.46329(14) 0.17008(14)
Zn6_2 Zn 0.00538(3) 0.49118(2) 0.81619(2)
C16_2 C 0.8698(4) 0.0058(2) 0.0355(2)
H11_2 H 0.8561 0.0409 0.0601
H28_2 H 0.6183 0.0150 0.0593
N13_2 N 0.3865(2) 0.03671(14) 0.17008(14)
C17_2 C 0.8529(4) 0.0092(2) 0.9735(2)
H12_2 H 0.8280 0.0467 0.9573
H15_2 H 0.8695 0.0068 0.8548
H17_2 H 0.7013 0.0359 0.8425
Zn7_2 Zn 0.49462(3) 0.00882(2) 0.81619(2)
Zn1_2 Zn 0.7500 0.7500 0.24491(2)
O1_2 O 0.93571(18) 0.71482(13) 0.21982(12)
O2_2 O 0.85355(16) 0.73279(12) 0.30324(11)
N1_2 N 0.7776(2) 0.83316(16) 0.20225(13)
N2_2 N 0.8541(2) 0.91258(17) 0.16071(14)
N5_2 N 0.9559(2) 0.55256(17) 0.10689(14)
N6_2 N 0.9306(3) 0.6278(2) 0.03942(17)
C1_2 C 0.9278(2) 0.71770(16) 0.27581(17)
H1_2 H 0.9783 0.7681 0.3798
C11_2 C 0.8564(3) 0.8506(2) 0.17741(17)
H6_2 H 0.9069 0.8235 0.1722
C12_2 C 0.7229(3) 0.8869(2) 0.20091(17)
H7_2 H 0.6628 0.8890 0.2155
C13_2 C 0.7689(3) 0.9364(2) 0.17535(18)
H8_2 H 0.7473 0.9781 0.1690
C14_2 C 0.9262(3) 0.9479(2) 0.12759(19)
H9_2 H 0.9850 0.9267 0.1339
H10_2 H 0.9308 0.9913 0.1437
C15_2 C 0.9062(3) 0.9512(2) 0.06065(18)
C20_2 C 0.9256(4) 0.9008(2) 0.0234(2)
H14_2 H 0.9509 0.8635 0.0398
C25_2 C 0.9698(3) 0.6126(2) 0.0921(2)
C26_2 C 0.9032(4) 0.5272(3) 0.0615(2)
H21_2 H 0.8817 0.4850 0.0593
C27_2 C 0.8876(5) 0.5740(3) 0.0204(3)
C28_2 C 0.9307(4) 0.6916(3) 0.0112(2)
H24_2 H 0.9734 0.7193 0.0328
C29_2 C 0.8369(4) 0.7225(2) 0.0112(2)
C30_2 C 0.7929(4) 0.7365(3) 0.0652(2)
H25_2 H 0.8220 0.7274 0.1018
N7_2 N 0.5441(2) 0.94744(17) 0.10689(14)
N8_2 N 0.5694(3) 0.8722(2) 0.03942(17)
C32_2 C 0.5302(3) 0.8874(2) 0.0921(2)
H27_2 H 0.4968 0.8585 0.1157
C33_2 C 0.5968(4) 0.9728(3) 0.0615(2)
C34_2 C 0.6124(5) 0.9260(3) 0.0204(3)
C35_2 C 0.5693(4) 0.8084(3) 0.0112(2)
H31_2 H 0.5266 0.7807 0.0328
C36_2 C 0.6631(4) 0.7775(2) 0.0112(2)
C37_2 C 0.7071(4) 0.7635(3) 0.0652(2)
H32_2 H 0.6780 0.7726 0.1018
O8_2 O 0.56429(18) 0.78518(13) 0.21982(12)
O9_2 O 0.64645(16) 0.76721(12) 0.30324(11)
O10_2 O 0.38847(19) 0.87713(14) 0.19715(12)
O11_2 O 0.49552(18) 0.92896(12) 0.25117(12)
O12_2 O 0.27653(18) 0.89242(13) 0.31601(12)
O14_2 O 0.0660(3) 0.8916(2) 0.23555(19)
N9_2 N 0.7224(2) 0.66684(16) 0.20225(13)
N10_2 N 0.6459(2) 0.58742(17) 0.16071(14)
C39_2 C 0.5722(2) 0.78230(16) 0.27581(17)
C40_2 C 0.4354(3) 0.88472(17) 0.24318(17)
C41_2 C 0.4895(2) 0.79603(18) 0.31511(15)
C42_2 C 0.4772(3) 0.7615(2) 0.36781(17)
H34_2 H 0.5217 0.7319 0.3798
C43_2 C 0.3993(3) 0.7703(2) 0.40318(18)
H35_2 H 0.3918 0.7465 0.4386
C44_2 C 0.3335(3) 0.8139(2) 0.38610(18)
H36_2 H 0.2816 0.8204 0.4102
C45_2 C 0.3444(2) 0.84824(18) 0.33288(17)
C46_2 C 0.4227(2) 0.84103(17) 0.29716(16)
C47_2 C 0.2040(3) 0.8624(2) 0.2820(2)
H37_2 H 0.1853 0.8230 0.3023
H38_2 H 0.2270 0.8508 0.2421
C48_2 C 0.1211(3) 0.9061(2) 0.2749(2)
C49_2 C 0.6436(3) 0.6494(2) 0.17741(17)
H39_2 H 0.5931 0.6765 0.1722
C50_2 C 0.7771(3) 0.6131(2) 0.20091(17)
H40_2 H 0.8372 0.6110 0.2155
C51_2 C 0.7311(3) 0.5636(2) 0.17535(18)
H41_2 H 0.7527 0.5219 0.1690
C52_2 C 0.5738(3) 0.5521(2) 0.12759(19)
H42_2 H 0.5150 0.5733 0.1339
H43_2 H 0.5692 0.5087 0.1437
C53_2 C 0.5938(3) 0.5488(2) 0.06065(18)
C54_2 C 0.6302(4) 0.4942(2) 0.0355(2)
H44_2 H 0.6439 0.4591 0.0601
C58_2 C 0.5744(4) 0.5992(2) 0.0234(2)
H47_2 H 0.5491 0.6365 0.0398
N3_2 N 0.7587(2) 0.94871(16) 0.85309(13)
N4_2 N 0.6135(2) 0.96329(14) 0.82992(14)
C18_2 C 0.8722(3) 0.9585(2) 0.93590(19)
C19_2 C 0.9086(4) 0.9039(2) 0.9609(2)
H13_2 H 0.9221 0.8686 0.9364
C21_2 C 0.8549(3) 0.9635(3) 0.86838(19)
H16_2 H 0.8952 0.9338 0.8472
C22_2 C 0.6926(3) 0.99150(19) 0.84192(18)
C23_2 C 0.6306(3) 0.89868(19) 0.83333(17)
H18_2 H 0.5875 0.8662 0.8266
C24_2 C 0.7199(3) 0.8893(2) 0.84808(18)
H19_2 H 0.7492 0.8498 0.8537
H22_2 H 0.8531 0.5698 0.9851
H23_2 H 0.9523 0.6877 0.9697
C31_2 C 0.7938(3) 0.7362(2) 0.95779(18)
H26_2 H 0.8230 0.7272 0.9212
H29_2 H 0.6469 0.9302 0.9851
H30_2 H 0.5477 0.8123 0.9697
C38_2 C 0.7062(3) 0.7638(2) 0.95779(18)
H33_2 H 0.6770 0.7728 0.9212
N11_2 N 0.7413(2) 0.55129(16) 0.85309(13)
N12_2 N 0.8865(2) 0.53671(14) 0.82992(14)
C55_2 C 0.6471(4) 0.4908(2) 0.9735(2)
H45_2 H 0.6720 0.4533 0.9573
C56_2 C 0.6278(3) 0.5415(2) 0.93590(19)
C57_2 C 0.5914(4) 0.5961(2) 0.9609(2)
H46_2 H 0.5779 0.6314 0.9364
C59_2 C 0.6451(3) 0.5365(3) 0.86838(19)
H48_2 H 0.6305 0.4932 0.8548
H49_2 H 0.6048 0.5662 0.8472
C60_2 C 0.8074(3) 0.50850(19) 0.84192(18)
H50_2 H 0.7987 0.4641 0.8425
C61_2 C 0.8694(3) 0.60132(19) 0.83333(17)
H51_2 H 0.9125 0.6338 0.8266
C62_2 C 0.7801(3) 0.6107(2) 0.84808(18)
H52_2 H 0.7508 0.6502 0.8537
H27_3 H 0.0032 0.8585 0.6157
O10_3 O 0.11153(19) 0.87713(14) 0.69715(12)
O11_3 O 0.00448(18) 0.92896(12) 0.75117(12)
O12_3 O 0.22347(18) 0.89242(13) 0.81601(12)
O13_2 O 0.3875(2) 0.95163(15) 0.81128(15)
O14_3 O 0.4340(3) 0.8916(2) 0.73555(19)
C40_3 C 0.0646(3) 0.88472(17) 0.74318(17)
C41_3 C 0.0105(2) 0.79603(18) 0.81511(15)
C42_3 C 0.0228(3) 0.7615(2) 0.86781(17)
C43_3 C 0.1007(3) 0.7703(2) 0.90318(18)
H35_3 H 0.1082 0.7465 0.9386
C44_3 C 0.1665(3) 0.8139(2) 0.88610(18)
H36_3 H 0.2184 0.8204 0.9102
C45_3 C 0.1556(2) 0.84824(18) 0.83288(17)
C46_3 C 0.0773(2) 0.84103(17) 0.79716(16)
C47_3 C 0.2960(3) 0.8624(2) 0.7820(2)
H37_3 H 0.3147 0.8230 0.8023
H38_3 H 0.2730 0.8508 0.7421
C48_3 C 0.3789(3) 0.9061(2) 0.7749(2)
C16_3 C 0.6302(4) 0.0058(2) 0.5355(2)
H11_3 H 0.6439 0.0409 0.5601
C17_3 C 0.6471(4) 0.0092(2) 0.4735(2)
H12_3 H 0.6720 0.0467 0.4573
H15_3 H 0.6305 0.0068 0.3548
H17_3 H 0.7987 0.0359 0.3425
H28_3 H 0.8817 0.0150 0.5593
O16_2 O 0.8875(2) 0.04837(15) 0.68872(15)
Zn1_3 Zn 0.7500 0.7500 0.74491(2)
O1_3 O 0.56429(18) 0.71482(13) 0.71982(12)
O2_3 O 0.64645(16) 0.73279(12) 0.80324(11)
O3_3 O 0.38847(19) 0.62287(14) 0.69715(12)
O4_3 O 0.49552(18) 0.57104(12) 0.75117(12)
O5_3 O 0.27653(18) 0.60758(13) 0.81601(12)
O6_2 O 0.1125(2) 0.54837(15) 0.81128(15)
O7_3 O 0.0660(3) 0.6084(2) 0.73555(19)
N1_3 N 0.7224(2) 0.83316(16) 0.70225(13)
N2_3 N 0.6459(2) 0.91258(17) 0.66071(14)
N3_3 N 0.7413(2) 0.94871(16) 0.35309(13)
N5_3 N 0.5441(2) 0.55256(17) 0.60689(14)
N6_3 N 0.5694(3) 0.6278(2) 0.53942(17)
C1_3 C 0.5722(2) 0.71770(16) 0.77581(17)
C2_3 C 0.4354(3) 0.61528(17) 0.74318(17)
C3_3 C 0.4895(2) 0.70397(18) 0.81511(15)
C4_3 C 0.4772(3) 0.7385(2) 0.86781(17)
H1_3 H 0.5217 0.7681 0.8798
C5_3 C 0.3993(3) 0.7297(2) 0.90318(18)
H2_3 H 0.3918 0.7535 0.9386
C6_3 C 0.3335(3) 0.6861(2) 0.88610(18)
H3_3 H 0.2816 0.6796 0.9102
C7_3 C 0.3444(2) 0.65176(18) 0.83288(17)
C8_3 C 0.4227(2) 0.65897(17) 0.79716(16)
C9_3 C 0.2040(3) 0.6376(2) 0.7820(2)
H4_3 H 0.1853 0.6770 0.8023
H5_3 H 0.2270 0.6492 0.7421
C10_3 C 0.1211(3) 0.5939(2) 0.7749(2)
C11_3 C 0.6436(3) 0.8506(2) 0.67741(17)
H6_3 H 0.5931 0.8235 0.6722
C12_3 C 0.7771(3) 0.8869(2) 0.70091(17)
H7_3 H 0.8372 0.8890 0.7155
C13_3 C 0.7311(3) 0.9364(2) 0.67535(18)
H8_3 H 0.7527 0.9781 0.6690
C14_3 C 0.5738(3) 0.9479(2) 0.62759(19)
H9_3 H 0.5150 0.9267 0.6339
H10_3 H 0.5692 0.9913 0.6437
C15_3 C 0.5938(3) 0.9512(2) 0.56065(18)
C18_3 C 0.6278(3) 0.9585(2) 0.43590(19)
C19_3 C 0.5914(4) 0.9039(2) 0.4609(2)
H13_3 H 0.5779 0.8686 0.4364
C20_3 C 0.5744(4) 0.9008(2) 0.5234(2)
H14_3 H 0.5491 0.8635 0.5398
C21_3 C 0.6451(3) 0.9635(3) 0.36838(19)
H16_3 H 0.6048 0.9338 0.3472
C22_3 C 0.8074(3) 0.99150(19) 0.34192(18)
C23_3 C 0.8694(3) 0.89868(19) 0.33333(17)
H18_3 H 0.9125 0.8662 0.3266
C24_3 C 0.7801(3) 0.8893(2) 0.34808(18)
H19_3 H 0.7508 0.8498 0.3537
C25_3 C 0.5302(3) 0.6126(2) 0.5921(2)
H20_3 H 0.4968 0.6415 0.6157
C26_3 C 0.5968(4) 0.5272(3) 0.5615(2)
H21_3 H 0.6183 0.4850 0.5593
C27_3 C 0.6124(5) 0.5740(3) 0.5204(3)
H22_3 H 0.6469 0.5698 0.4851
C28_3 C 0.5693(4) 0.6916(3) 0.5112(2)
H23_3 H 0.5477 0.6877 0.4697
H24_3 H 0.5266 0.7193 0.5328
C29_3 C 0.6631(4) 0.7225(2) 0.5112(2)
C30_3 C 0.7071(4) 0.7365(3) 0.5652(2)
H25_3 H 0.6780 0.7274 0.6018
C31_3 C 0.7062(3) 0.7362(2) 0.45779(18)
H26_3 H 0.6770 0.7272 0.4212
N7_3 N 0.9559(2) 0.94744(17) 0.60689(14)
N8_3 N 0.9306(3) 0.8722(2) 0.53942(17)
C32_3 C 0.9698(3) 0.8874(2) 0.5921(2)
C33_3 C 0.9032(4) 0.9728(3) 0.5615(2)
C34_3 C 0.8876(5) 0.9260(3) 0.5204(3)
H29_3 H 0.8531 0.9302 0.4851
C35_3 C 0.9307(4) 0.8084(3) 0.5112(2)
H30_3 H 0.9523 0.8123 0.4697
H31_3 H 0.9734 0.7807 0.5328
C36_3 C 0.8369(4) 0.7775(2) 0.5112(2)
C37_3 C 0.7929(4) 0.7635(3) 0.5652(2)
H32_3 H 0.8220 0.7726 0.6018
C38_3 C 0.7938(3) 0.7638(2) 0.45779(18)
H33_3 H 0.8230 0.7728 0.4212
O8_3 O 0.93571(18) 0.78518(13) 0.71982(12)
O9_3 O 0.85355(16) 0.76721(12) 0.80324(11)
N9_3 N 0.7776(2) 0.66684(16) 0.70225(13)
N10_3 N 0.8541(2) 0.58742(17) 0.66071(14)
N11_3 N 0.7587(2) 0.55129(16) 0.35309(13)
C39_3 C 0.9278(2) 0.78230(16) 0.77581(17)
H34_3 H 0.9783 0.7319 0.8798
C49_3 C 0.8564(3) 0.6494(2) 0.67741(17)
H39_3 H 0.9069 0.6765 0.6722
C50_3 C 0.7229(3) 0.6131(2) 0.70091(17)
H40_3 H 0.6628 0.6110 0.7155
C51_3 C 0.7689(3) 0.5636(2) 0.67535(18)
H41_3 H 0.7473 0.5219 0.6690
C52_3 C 0.9262(3) 0.5521(2) 0.62759(19)
H42_3 H 0.9850 0.5733 0.6339
H43_3 H 0.9308 0.5087 0.6437
C53_3 C 0.9062(3) 0.5488(2) 0.56065(18)
C54_3 C 0.8698(4) 0.4942(2) 0.5355(2)
H44_3 H 0.8561 0.4591 0.5601
C55_3 C 0.8529(4) 0.4908(2) 0.4735(2)
H45_3 H 0.8280 0.4533 0.4573
C56_3 C 0.8722(3) 0.5415(2) 0.43590(19)
C57_3 C 0.9086(4) 0.5961(2) 0.4609(2)
H46_3 H 0.9221 0.6314 0.4364
C58_3 C 0.9256(4) 0.5992(2) 0.5234(2)
H47_3 H 0.9509 0.6365 0.5398
C59_3 C 0.8549(3) 0.5365(3) 0.36838(19)
H48_3 H 0.8695 0.4932 0.3548
H49_3 H 0.8952 0.5662 0.3472
C60_3 C 0.6926(3) 0.50850(19) 0.34192(18)
H50_3 H 0.7013 0.4641 0.3425
C61_3 C 0.6306(3) 0.60132(19) 0.33333(17)
H51_3 H 0.5875 0.6338 0.3266
C62_3 C 0.7199(3) 0.6107(2) 0.34808(18)
H52_3 H 0.7492 0.6502 0.3537
O15_2 O 0.6125(2) 0.45163(15) 0.68872(15)
N3_4 N 0.2413(2) 0.05129(16) 0.14691(13)
C18_4 C 0.1278(3) 0.0415(2) 0.06410(19)
C19_4 C 0.0914(4) 0.0961(2) 0.0391(2)
H13_4 H 0.0779 0.1314 0.0636
C21_4 C 0.1451(3) 0.0365(3) 0.13162(19)
H16_4 H 0.1048 0.0662 0.1528
C22_4 C 0.3074(3) 0.00850(19) 0.15808(18)
C23_4 C 0.3694(3) 0.10132(19) 0.16667(17)
H18_4 H 0.4125 0.1338 0.1734
C24_4 C 0.2801(3) 0.1107(2) 0.15192(18)
H19_4 H 0.2508 0.1502 0.1463
H22_4 H 0.1469 0.4302 0.0149
H23_4 H 0.0477 0.3123 0.0303
C31_4 C 0.2062(3) 0.2638(2) 0.04221(18)
H26_4 H 0.1770 0.2728 0.0788
H29_4 H 0.3531 0.0698 0.0149
H30_4 H 0.4523 0.1877 0.0303
C38_4 C 0.2938(3) 0.2362(2) 0.04221(18)
H33_4 H 0.3230 0.2272 0.0788
N11_4 N 0.2587(2) 0.44871(16) 0.14691(13)
C55_4 C 0.3529(4) 0.5092(2) 0.0265(2)
H45_4 H 0.3280 0.5467 0.0427
C56_4 C 0.3722(3) 0.4585(2) 0.06410(19)
C57_4 C 0.4086(4) 0.4039(2) 0.0391(2)
H46_4 H 0.4221 0.3686 0.0636
C59_4 C 0.3549(3) 0.4635(3) 0.13162(19)
H48_4 H 0.3695 0.5068 0.1452
H49_4 H 0.3952 0.4338 0.1528
C60_4 C 0.1926(3) 0.49150(19) 0.15808(18)
H50_4 H 0.2013 0.5359 0.1575
C61_4 C 0.1306(3) 0.39868(19) 0.16667(17)
H51_4 H 0.0875 0.3662 0.1734
C62_4 C 0.2199(3) 0.3893(2) 0.15192(18)
H52_4 H 0.2492 0.3498 0.1463
Zn1_4 Zn 0.2500 0.2500 0.75509(2)
O1_4 O 0.06429(18) 0.28518(13) 0.78018(12)
O2_4 O 0.14645(16) 0.26721(12) 0.69676(11)
N1_4 N 0.2224(2) 0.16684(16) 0.79775(13)
N2_4 N 0.1459(2) 0.08742(17) 0.83929(14)
N5_4 N 0.0441(2) 0.44744(17) 0.89311(14)
N6_4 N 0.0694(3) 0.3722(2) 0.96058(17)
C1_4 C 0.0722(2) 0.28230(16) 0.72419(17)
H1_4 H 0.0217 0.2319 0.6202
C11_4 C 0.1436(3) 0.1494(2) 0.82259(17)
H6_4 H 0.0931 0.1765 0.8278
C12_4 C 0.2771(3) 0.1131(2) 0.79909(17)
H7_4 H 0.3372 0.1110 0.7845
C13_4 C 0.2311(3) 0.0636(2) 0.82465(18)
H8_4 H 0.2527 0.0219 0.8310
C14_4 C 0.0738(3) 0.0521(2) 0.87241(19)
H9_4 H 0.0150 0.0733 0.8661
H10_4 H 0.0692 0.0087 0.8563
C15_4 C 0.0938(3) 0.0488(2) 0.93935(18)
C20_4 C 0.0744(4) 0.0992(2) 0.9766(2)
H14_4 H 0.0491 0.1365 0.9602
C25_4 C 0.0302(3) 0.3874(2) 0.9079(2)
C26_4 C 0.0968(4) 0.4728(3) 0.9385(2)
H21_4 H 0.1183 0.5150 0.9407
C27_4 C 0.1124(5) 0.4260(3) 0.9796(3)
C28_4 C 0.0693(4) 0.3084(3) 0.9888(2)
H24_4 H 0.0266 0.2807 0.9672
C29_4 C 0.1631(4) 0.2775(2) 0.9888(2)
C30_4 C 0.2071(4) 0.2635(3) 0.9348(2)
H25_4 H 0.1780 0.2726 0.8982
N7_4 N 0.4559(2) 0.05256(17) 0.89311(14)
N8_4 N 0.4306(3) 0.1278(2) 0.96058(17)
C32_4 C 0.4698(3) 0.1126(2) 0.9079(2)
H27_4 H 0.5032 0.1415 0.8843
C33_4 C 0.4032(4) 0.0272(3) 0.9385(2)
C34_4 C 0.3876(5) 0.0740(3) 0.9796(3)
C35_4 C 0.4307(4) 0.1916(3) 0.9888(2)
H31_4 H 0.4734 0.2193 0.9672
C36_4 C 0.3369(4) 0.2225(2) 0.9888(2)
C37_4 C 0.2929(4) 0.2365(3) 0.9348(2)
H32_4 H 0.3220 0.2274 0.8982
O8_4 O 0.43571(18) 0.21482(13) 0.78018(12)
O9_4 O 0.35355(16) 0.23279(12) 0.69676(11)
O10_4 O 0.61153(19) 0.12287(14) 0.80285(12)
O11_4 O 0.50448(18) 0.07104(12) 0.74883(12)
O12_4 O 0.72347(18) 0.10758(13) 0.68399(12)
O14_4 O 0.9340(3) 0.1084(2) 0.76445(19)
N9_4 N 0.2776(2) 0.33316(16) 0.79775(13)
N10_4 N 0.3541(2) 0.41258(17) 0.83929(14)
C39_4 C 0.4278(2) 0.21770(16) 0.72419(17)
C40_4 C 0.5646(3) 0.11528(17) 0.75682(17)
C41_4 C 0.5105(2) 0.20397(18) 0.68489(15)
C42_4 C 0.5228(3) 0.2385(2) 0.63219(17)
H34_4 H 0.4783 0.2681 0.6202
C43_4 C 0.6007(3) 0.2297(2) 0.59682(18)
H35_4 H 0.6082 0.2535 0.5614
C44_4 C 0.6665(3) 0.1861(2) 0.61390(18)
H36_4 H 0.7184 0.1796 0.5898
C45_4 C 0.6556(2) 0.15176(18) 0.66712(17)
C46_4 C 0.5773(2) 0.15897(17) 0.70284(16)
C47_4 C 0.7960(3) 0.1376(2) 0.7180(2)
H37_4 H 0.8147 0.1770 0.6977
H38_4 H 0.7730 0.1492 0.7579
C48_4 C 0.8789(3) 0.0939(2) 0.7251(2)
C49_4 C 0.3564(3) 0.3506(2) 0.82259(17)
H39_4 H 0.4069 0.3235 0.8278
C50_4 C 0.2229(3) 0.3869(2) 0.79909(17)
H40_4 H 0.1628 0.3890 0.7845
C51_4 C 0.2689(3) 0.4364(2) 0.82465(18)
H41_4 H 0.2473 0.4781 0.8310
C52_4 C 0.4262(3) 0.4479(2) 0.87241(19)
H42_4 H 0.4850 0.4267 0.8661
H43_4 H 0.4308 0.4913 0.8563
C53_4 C 0.4062(3) 0.4512(2) 0.93935(18)
C54_4 C 0.3698(4) 0.5058(2) 0.9645(2)
H44_4 H 0.3561 0.5409 0.9399
C58_4 C 0.4256(4) 0.4008(2) 0.9766(2)
H47_4 H 0.4509 0.3635 0.9602
C17_4 C 0.1471(4) 0.9908(2) 0.0265(2)
H12_4 H 0.1720 0.9533 0.0427
H15_4 H 0.1305 0.9932 0.1452
H17_4 H 0.2987 0.9641 0.1575
C16_4 C 0.1302(4) 0.9942(2) 0.9645(2)
H11_4 H 0.1439 0.9591 0.9399
H28_4 H 0.3817 0.9850 0.9407
O3_4 O 0.88847(19) 0.37713(14) 0.80285(12)
O4_4 O 0.99552(18) 0.42896(12) 0.74883(12)
O5_4 O 0.77653(18) 0.39242(13) 0.68399(12)
O7_4 O 0.5660(3) 0.3916(2) 0.76445(19)
C2_4 C 0.9354(3) 0.38472(17) 0.75682(17)
C3_4 C 0.9895(2) 0.29603(18) 0.68489(15)
C4_4 C 0.9772(3) 0.2615(2) 0.63219(17)
C5_4 C 0.8993(3) 0.2703(2) 0.59682(18)
H2_4 H 0.8918 0.2465 0.5614
C6_4 C 0.8335(3) 0.3139(2) 0.61390(18)
H3_4 H 0.7816 0.3204 0.5898
C7_4 C 0.8444(2) 0.34824(18) 0.66712(17)
C8_4 C 0.9227(2) 0.34103(17) 0.70284(16)
C9_4 C 0.7040(3) 0.3624(2) 0.7180(2)
H4_4 H 0.6853 0.3230 0.6977
H5_4 H 0.7270 0.3508 0.7579
C10_4 C 0.6211(3) 0.4061(2) 0.7251(2)
H20_4 H 0.9968 0.3585 0.8843
loop_
_geom_bond_atom_site_label_1
_geom_bond_atom_site_label_2
_geom_bond_site_symmetry_1
_geom_bond_site_symmetry_2
Zn1 O2 1_555 1_555
Zn2 O4 1_555 1_555
O1 C1 1_555 1_555
O2 C1 1_555 1_555
O3 C2 1_555 1_555
O4 C2 1_555 1_555
O5 C7 1_555 1_555
O6 C10 1_555 1_555
O7 C10 1_555 1_555
N1 Zn1 1_555 1_555
N2 C11 1_555 1_555
N3 C21 1_555 1_555
N4 C22 1_555 1_555
N5 Zn2 1_555 1_555
N6 C25 1_555 1_555
C1 C3 1_555 1_555
C2 C8 1_555 1_555
C3 C4 1_555 1_555
C4 H1 1_555 1_555
C5 C4 1_555 1_555
H2 C5 1_555 1_555
C6 C5 1_555 1_555
H3 C6 1_555 1_555
C7 C6 1_555 1_555
C8 C3 1_555 1_555
C9 O5 1_555 1_555
H4 C9 1_555 1_555
H5 C9 1_555 1_555
C10 C9 1_555 1_555
C11 N1 1_555 1_555
H6 C11 1_555 1_555
C12 N1 1_555 1_555
H7 C12 1_555 1_555
C13 N2 1_555 1_555
H8 C13 1_555 1_555
C14 N2 1_555 1_555
H9 C14 1_555 1_555
H10 C14 1_555 1_555
C15 C14 1_555 1_555
C19 C18 1_555 1_555
H13 C19 1_555 1_555
C20 C15 1_555 1_555
H14 C20 1_555 1_555
C21 C18 1_555 1_555
H16 C21 1_555 1_555
C22 N3 1_555 1_555
C23 N4 1_555 1_555
H18 C23 1_555 1_555
C24 N3 1_555 1_555
H19 C24 1_555 1_555
C25 N5 1_555 1_555
H20 C25 1_555 1_555
C26 N5 1_555 1_555
H21 C26 1_555 1_555
C27 N6 1_555 1_555
H22 C27 1_555 1_555
C28 N6 1_555 1_555
H23 C28 1_555 1_555
H24 C28 1_555 1_555
C29 C28 1_555 1_555
C30 C29 1_555 1_555
H25 C30 1_555 1_555
C31 C29 1_555 1_555
H26 C31 1_555 1_555
N7 C32 1_555 1_555
N8 C32 1_555 1_555
C33 N7 1_555 1_555
C34 N8 1_555 1_555
H29 C34 1_555 1_555
C35 N8 1_555 1_555
H30 C35 1_555 1_555
H31 C35 1_555 1_555
C36 C35 1_555 1_555
C37 C30 1_555 1_555
H32 C37 1_555 1_555
C38 C31 1_555 1_555
H33 C38 1_555 1_555
Zn3 N7 1_555 1_555
O8 C39 1_555 1_555
O9 Zn1 1_555 1_555
N9 Zn1 1_555 1_555
N10 C49 1_555 1_555
N11 C59 1_555 1_555
N12 C60 1_555 1_555
C39 O9 1_555 1_555
C49 N9 1_555 1_555
H39 C49 1_555 1_555
C50 N9 1_555 1_555
H40 C50 1_555 1_555
C51 N10 1_555 1_555
H41 C51 1_555 1_555
C52 N10 1_555 1_555
H42 C52 1_555 1_555
H43 C52 1_555 1_555
C53 C52 1_555 1_555
C54 C53 1_555 1_555
H44 C54 1_555 1_555
C55 C54 1_555 1_555
H45 C55 1_555 1_555
C56 C55 1_555 1_555
C57 C56 1_555 1_555
H46 C57 1_555 1_555
C58 C53 1_555 1_555
H47 C58 1_555 1_555
C59 C56 1_555 1_555
H48 C59 1_555 1_555
H49 C59 1_555 1_555
C60 N11 1_555 1_555
H50 C60 1_555 1_555
C61 N12 1_555 1_555
H51 C61 1_555 1_555
C62 N11 1_555 1_555
H52 C62 1_555 1_555
Zn4 O6 1_555 1_555
Zn6 N12 1_555 1_555
O15 Zn2 1_555 1_555
N14 Zn2 1_555 1_555
C7 C8 1_555 1_555
C12 C13 1_555 1_555
C19 C20 1_555 1_555
C23 C24 1_555 1_555
C26 C27 1_555 1_555
C33 C34 1_555 1_555
C36 C37 1_555 1_555
C36 C38 1_555 1_555
C50 C51 1_555 1_555
C57 C58 1_555 1_555
C61 C62 1_555 1_555
H11 C16 1_555 1_555
C17 C16 1_555 1_555
H12 C17 1_555 1_555
O10 C40 1_555 1_555
O12 C45 1_555 1_555
O13 C48 1_555 1_555
O14 C48 1_555 1_555
C40 O11 1_555 1_555
C42 C41 1_555 1_555
C43 C42 1_555 1_555
H35 C43 1_555 1_555
C44 C43 1_555 1_555
H36 C44 1_555 1_555
C45 C44 1_555 1_555
C46 C40 1_555 1_555
C47 O12 1_555 1_555
H37 C47 1_555 1_555
H38 C47 1_555 1_555
C48 C47 1_555 1_555
C41 C46 1_555 1_555
C45 C46 1_555 1_555
O3_2 C2_2 1_555 1_555
O4_2 C2_2 1_555 1_555
O5_2 C7_2 1_555 1_555
O15 C10_2 1_555 1_555
O7_2 C10_2 1_555 1_555
C2_2 C8_2 1_555 1_555
C3_2 C4_2 1_555 1_555
C5_2 C4_2 1_555 1_555
H2_2 C5_2 1_555 1_555
C6_2 C5_2 1_555 1_555
H3_2 C6_2 1_555 1_555
C7_2 C6_2 1_555 1_555
C8_2 C3_2 1_555 1_555
C9_2 O5_2 1_555 1_555
H4_2 C9_2 1_555 1_555
H5_2 C9_2 1_555 1_555
C10_2 C9_2 1_555 1_555
C7_2 C8_2 1_555 1_555
H11_2 C16_2 1_555 1_555
H12_2 C17_2 1_555 1_555
Zn1_2 O2_2 1_555 1_555
O1_2 C1_2 1_555 1_555
O2_2 C1_2 1_555 1_555
N1_2 Zn1_2 1_555 1_555
N2_2 C11_2 1_555 1_555
N5_2 Zn4 1_555 1_555
N6_2 C25_2 1_555 1_555
C11_2 N1_2 1_555 1_555
H6_2 C11_2 1_555 1_555
C12_2 N1_2 1_555 1_555
H7_2 C12_2 1_555 1_555
C13_2 N2_2 1_555 1_555
H8_2 C13_2 1_555 1_555
C14_2 N2_2 1_555 1_555
H9_2 C14_2 1_555 1_555
H10_2 C14_2 1_555 1_555
C15_2 C14_2 1_555 1_555
C20_2 C15_2 1_555 1_555
H14_2 C20_2 1_555 1_555
C25_2 N5_2 1_555 1_555
C26_2 N5_2 1_555 1_555
H21_2 C26_2 1_555 1_555
C27_2 N6_2 1_555 1_555
C28_2 N6_2 1_555 1_555
H24_2 C28_2 1_555 1_555
C29_2 C28_2 1_555 1_555
C30_2 C29_2 1_555 1_555
H25_2 C30_2 1_555 1_555
N7_2 C32_2 1_555 1_555
N8_2 C32_2 1_555 1_555
C32_2 H27_2 1_555 1_555
C33_2 N7_2 1_555 1_555
C34_2 N8_2 1_555 1_555
C35_2 N8_2 1_555 1_555
H31_2 C35_2 1_555 1_555
C36_2 C35_2 1_555 1_555
C37_2 C30_2 1_555 1_555
H32_2 C37_2 1_555 1_555
Zn5 N7_2 1_555 1_555
O8_2 C39_2 1_555 1_555
O9_2 Zn1_2 1_555 1_555
O10_2 C40_2 1_555 1_555
O11_2 Zn5 1_555 1_555
O12_2 C45_2 1_555 1_555
O16 C48_2 1_555 1_555
O14_2 C48_2 1_555 1_555
N9_2 Zn1_2 1_555 1_555
N10_2 C49_2 1_555 1_555
C39_2 O9_2 1_555 1_555
C40_2 O11_2 1_555 1_555
C41_2 C39_2 1_555 1_555
C42_2 C41_2 1_555 1_555
H34_2 C42_2 1_555 1_555
C43_2 C42_2 1_555 1_555
H35_2 C43_2 1_555 1_555
C44_2 C43_2 1_555 1_555
H36_2 C44_2 1_555 1_555
C45_2 C44_2 1_555 1_555
C46_2 C40_2 1_555 1_555
C47_2 O12_2 1_555 1_555
H37_2 C47_2 1_555 1_555
H38_2 C47_2 1_555 1_555
C48_2 C47_2 1_555 1_555
C49_2 N9_2 1_555 1_555
H39_2 C49_2 1_555 1_555
C50_2 N9_2 1_555 1_555
H40_2 C50_2 1_555 1_555
C51_2 N10_2 1_555 1_555
H41_2 C51_2 1_555 1_555
C52_2 N10_2 1_555 1_555
H42_2 C52_2 1_555 1_555
H43_2 C52_2 1_555 1_555
C53_2 C52_2 1_555 1_555
C54_2 C53_2 1_555 1_555
H44_2 C54_2 1_555 1_555
C58_2 C53_2 1_555 1_555
H47_2 C58_2 1_555 1_555
C12_2 C13_2 1_555 1_555
C26_2 C27_2 1_555 1_555
C33_2 C34_2 1_555 1_555
C36_2 C37_2 1_555 1_555
C41_2 C46_2 1_555 1_555
C45_2 C46_2 1_555 1_555
C50_2 C51_2 1_555 1_555
N3_2 C21_2 1_555 1_555
N4_2 C22_2 1_555 1_555
C19_2 C18_2 1_555 1_555
H13_2 C19_2 1_555 1_555
C21_2 C18_2 1_555 1_555
H16_2 C21_2 1_555 1_555
C22_2 N3_2 1_555 1_555
C23_2 N4_2 1_555 1_555
H18_2 C23_2 1_555 1_555
C24_2 N3_2 1_555 1_555
H19_2 C24_2 1_555 1_555
H26_2 C31_2 1_555 1_555
C38_2 C31_2 1_555 1_555
H33_2 C38_2 1_555 1_555
N11_2 C59_2 1_555 1_555
N12_2 C60_2 1_555 1_555
H45_2 C55_2 1_555 1_555
C56_2 C55_2 1_555 1_555
C57_2 C56_2 1_555 1_555
H46_2 C57_2 1_555 1_555
C59_2 C56_2 1_555 1_555
H48_2 C59_2 1_555 1_555
H49_2 C59_2 1_555 1_555
C60_2 N11_2 1_555 1_555
H50_2 C60_2 1_555 1_555
C61_2 N12_2 1_555 1_555
H51_2 C61_2 1_555 1_555
C62_2 N11_2 1_555 1_555
H52_2 C62_2 1_555 1_555
C23_2 C24_2 1_555 1_555
C61_2 C62_2 1_555 1_555
O10_3 C40_3 1_555 1_555
O12_3 C45_3 1_555 1_555
O13_2 C48_3 1_555 1_555
O14_3 C48_3 1_555 1_555
C40_3 O11_3 1_555 1_555
C42_3 C41_3 1_555 1_555
C43_3 C42_3 1_555 1_555
H35_3 C43_3 1_555 1_555
C44_3 C43_3 1_555 1_555
H36_3 C44_3 1_555 1_555
C45_3 C44_3 1_555 1_555
C46_3 C40_3 1_555 1_555
C47_3 O12_3 1_555 1_555
H37_3 C47_3 1_555 1_555
H38_3 C47_3 1_555 1_555
C48_3 C47_3 1_555 1_555
C41_3 C46_3 1_555 1_555
C45_3 C46_3 1_555 1_555
H11_3 C16_3 1_555 1_555
C17_3 C16_3 1_555 1_555
H12_3 C17_3 1_555 1_555
Zn1_3 O2_3 1_555 1_555
Zn6 O4_3 1_555 1_555
O1_3 C1_3 1_555 1_555
O2_3 C1_3 1_555 1_555
O3_3 C2_3 1_555 1_555
O4_3 C2_3 1_555 1_555
O5_3 C7_3 1_555 1_555
O6_2 C10_3 1_555 1_555
O7_3 C10_3 1_555 1_555
N1_3 Zn1_3 1_555 1_555
N2_3 C11_3 1_555 1_555
N3_3 C21_3 1_555 1_555
N13 C22_3 1_555 1_555
N5_3 Zn6 1_555 1_555
N6_3 C25_3 1_555 1_555
C1_3 C3_3 1_555 1_555
C2_3 C8_3 1_555 1_555
C3_3 C4_3 1_555 1_555
C4_3 H1_3 1_555 1_555
C5_3 C4_3 1_555 1_555
H2_3 C5_3 1_555 1_555
C6_3 C5_3 1_555 1_555
H3_3 C6_3 1_555 1_555
C7_3 C6_3 1_555 1_555
C8_3 C3_3 1_555 1_555
C9_3 O5_3 1_555 1_555
H4_3 C9_3 1_555 1_555
H5_3 C9_3 1_555 1_555
C10_3 C9_3 1_555 1_555
C11_3 N1_3 1_555 1_555
H6_3 C11_3 1_555 1_555
C12_3 N1_3 1_555 1_555
H7_3 C12_3 1_555 1_555
C13_3 N2_3 1_555 1_555
H8_3 C13_3 1_555 1_555
C14_3 N2_3 1_555 1_555
H9_3 C14_3 1_555 1_555
H10_3 C14_3 1_555 1_555
C15_3 C14_3 1_555 1_555
C19_3 C18_3 1_555 1_555
H13_3 C19_3 1_555 1_555
C20_3 C15_3 1_555 1_555
H14_3 C20_3 1_555 1_555
C21_3 C18_3 1_555 1_555
H16_3 C21_3 1_555 1_555
C22_3 N3_3 1_555 1_555
C23_3 N13 1_555 1_555
H18_3 C23_3 1_555 1_555
C24_3 N3_3 1_555 1_555
H19_3 C24_3 1_555 1_555
C25_3 N5_3 1_555 1_555
H20_3 C25_3 1_555 1_555
C26_3 N5_3 1_555 1_555
H21_3 C26_3 1_555 1_555
C27_3 N6_3 1_555 1_555
H22_3 C27_3 1_555 1_555
C28_3 N6_3 1_555 1_555
H23_3 C28_3 1_555 1_555
H24_3 C28_3 1_555 1_555
C29_3 C28_3 1_555 1_555
C30_3 C29_3 1_555 1_555
H25_3 C30_3 1_555 1_555
C31_3 C29_3 1_555 1_555
H26_3 C31_3 1_555 1_555
N7_3 C32_3 1_555 1_555
N8_3 C32_3 1_555 1_555
C33_3 N7_3 1_555 1_555
C34_3 N8_3 1_555 1_555
H29_3 C34_3 1_555 1_555
C35_3 N8_3 1_555 1_555
H30_3 C35_3 1_555 1_555
H31_3 C35_3 1_555 1_555
C36_3 C35_3 1_555 1_555
C37_3 C30_3 1_555 1_555
H32_3 C37_3 1_555 1_555
C38_3 C31_3 1_555 1_555
H33_3 C38_3 1_555 1_555
Zn7 N7_3 1_555 1_555
O8_3 C39_3 1_555 1_555
O9_3 Zn1_3 1_555 1_555
N9_3 Zn1_3 1_555 1_555
N10_3 C49_3 1_555 1_555
N11_3 C59_3 1_555 1_555
N14 C60_3 1_555 1_555
C39_3 O9_3 1_555 1_555
C49_3 N9_3 1_555 1_555
H39_3 C49_3 1_555 1_555
C50_3 N9_3 1_555 1_555
H40_3 C50_3 1_555 1_555
C51_3 N10_3 1_555 1_555
H41_3 C51_3 1_555 1_555
C52_3 N10_3 1_555 1_555
H42_3 C52_3 1_555 1_555
H43_3 C52_3 1_555 1_555
C53_3 C52_3 1_555 1_555
C54_3 C53_3 1_555 1_555
H44_3 C54_3 1_555 1_555
C55_3 C54_3 1_555 1_555
H45_3 C55_3 1_555 1_555
C56_3 C55_3 1_555 1_555
C57_3 C56_3 1_555 1_555
H46_3 C57_3 1_555 1_555
C58_3 C53_3 1_555 1_555
H47_3 C58_3 1_555 1_555
C59_3 C56_3 1_555 1_555
H48_3 C59_3 1_555 1_555
H49_3 C59_3 1_555 1_555
C60_3 N11_3 1_555 1_555
H50_3 C60_3 1_555 1_555
C61_3 N14 1_555 1_555
H51_3 C61_3 1_555 1_555
C62_3 N11_3 1_555 1_555
H52_3 C62_3 1_555 1_555
Zn6_2 O6_2 1_555 1_555
O15_2 Zn6 1_555 1_555
C7_3 C8_3 1_555 1_555
C12_3 C13_3 1_555 1_555
C19_3 C20_3 1_555 1_555
C23_3 C24_3 1_555 1_555
C26_3 C27_3 1_555 1_555
C33_3 C34_3 1_555 1_555
C36_3 C37_3 1_555 1_555
C36_3 C38_3 1_555 1_555
C50_3 C51_3 1_555 1_555
C57_3 C58_3 1_555 1_555
C61_3 C62_3 1_555 1_555
N3_4 C21_4 1_555 1_555
N13_2 C22_4 1_555 1_555
C19_4 C18_4 1_555 1_555
H13_4 C19_4 1_555 1_555
C21_4 C18_4 1_555 1_555
H16_4 C21_4 1_555 1_555
C22_4 N3_4 1_555 1_555
C23_4 N13_2 1_555 1_555
H18_4 C23_4 1_555 1_555
C24_4 N3_4 1_555 1_555
H19_4 C24_4 1_555 1_555
H26_4 C31_4 1_555 1_555
C38_4 C31_4 1_555 1_555
H33_4 C38_4 1_555 1_555
N11_4 C59_4 1_555 1_555
N14_2 C60_4 1_555 1_555
H45_4 C55_4 1_555 1_555
C56_4 C55_4 1_555 1_555
C57_4 C56_4 1_555 1_555
H46_4 C57_4 1_555 1_555
C59_4 C56_4 1_555 1_555
H48_4 C59_4 1_555 1_555
H49_4 C59_4 1_555 1_555
C60_4 N11_4 1_555 1_555
H50_4 C60_4 1_555 1_555
C61_4 N14_2 1_555 1_555
H51_4 C61_4 1_555 1_555
C62_4 N11_4 1_555 1_555
H52_4 C62_4 1_555 1_555
C23_4 C24_4 1_555 1_555
C61_4 C62_4 1_555 1_555
Zn1_4 O2_4 1_555 1_555
O1_4 C1_4 1_555 1_555
O2_4 C1_4 1_555 1_555
N1_4 Zn1_4 1_555 1_555
N2_4 C11_4 1_555 1_555
N5_4 Zn6_2 1_555 1_555
N6_4 C25_4 1_555 1_555
C11_4 N1_4 1_555 1_555
H6_4 C11_4 1_555 1_555
C12_4 N1_4 1_555 1_555
H7_4 C12_4 1_555 1_555
C13_4 N2_4 1_555 1_555
H8_4 C13_4 1_555 1_555
C14_4 N2_4 1_555 1_555
H9_4 C14_4 1_555 1_555
H10_4 C14_4 1_555 1_555
C15_4 C14_4 1_555 1_555
C20_4 C15_4 1_555 1_555
H14_4 C20_4 1_555 1_555
C25_4 N5_4 1_555 1_555
C26_4 N5_4 1_555 1_555
H21_4 C26_4 1_555 1_555
C27_4 N6_4 1_555 1_555
C28_4 N6_4 1_555 1_555
H24_4 C28_4 1_555 1_555
C29_4 C28_4 1_555 1_555
C30_4 C29_4 1_555 1_555
H25_4 C30_4 1_555 1_555
N7_4 C32_4 1_555 1_555
N8_4 C32_4 1_555 1_555
C32_4 H27_4 1_555 1_555
C33_4 N7_4 1_555 1_555
C34_4 N8_4 1_555 1_555
C35_4 N8_4 1_555 1_555
H31_4 C35_4 1_555 1_555
C36_4 C35_4 1_555 1_555
C37_4 C30_4 1_555 1_555
H32_4 C37_4 1_555 1_555
Zn7_2 N7_4 1_555 1_555
O8_4 C39_4 1_555 1_555
O9_4 Zn1_4 1_555 1_555
O10_4 C40_4 1_555 1_555
O11_4 Zn7_2 1_555 1_555
O12_4 C45_4 1_555 1_555
O16_2 C48_4 1_555 1_555
O14_4 C48_4 1_555 1_555
N9_4 Zn1_4 1_555 1_555
N10_4 C49_4 1_555 1_555
C39_4 O9_4 1_555 1_555
C40_4 O11_4 1_555 1_555
C41_4 C39_4 1_555 1_555
C42_4 C41_4 1_555 1_555
H34_4 C42_4 1_555 1_555
C43_4 C42_4 1_555 1_555
H35_4 C43_4 1_555 1_555
C44_4 C43_4 1_555 1_555
H36_4 C44_4 1_555 1_555
C45_4 C44_4 1_555 1_555
C46_4 C40_4 1_555 1_555
C47_4 O12_4 1_555 1_555
H37_4 C47_4 1_555 1_555
H38_4 C47_4 1_555 1_555
C48_4 C47_4 1_555 1_555
C49_4 N9_4 1_555 1_555
H39_4 C49_4 1_555 1_555
C50_4 N9_4 1_555 1_555
H40_4 C50_4 1_555 1_555
C51_4 N10_4 1_555 1_555
H41_4 C51_4 1_555 1_555
C52_4 N10_4 1_555 1_555
H42_4 C52_4 1_555 1_555
H43_4 C52_4 1_555 1_555
C53_4 C52_4 1_555 1_555
C54_4 C53_4 1_555 1_555
H44_4 C54_4 1_555 1_555
C58_4 C53_4 1_555 1_555
H47_4 C58_4 1_555 1_555
C12_4 C13_4 1_555 1_555
C26_4 C27_4 1_555 1_555
C33_4 C34_4 1_555 1_555
C36_4 C37_4 1_555 1_555
C41_4 C46_4 1_555 1_555
C45_4 C46_4 1_555 1_555
C50_4 C51_4 1_555 1_555
H12_4 C17_4 1_555 1_555
H11_4 C16_4 1_555 1_555
O3_4 C2_4 1_555 1_555
O4_4 C2_4 1_555 1_555
O5_4 C7_4 1_555 1_555
O15_2 C10_4 1_555 1_555
O7_4 C10_4 1_555 1_555
C2_4 C8_4 1_555 1_555
C3_4 C4_4 1_555 1_555
C5_4 C4_4 1_555 1_555
H2_4 C5_4 1_555 1_555
C6_4 C5_4 1_555 1_555
H3_4 C6_4 1_555 1_555
C7_4 C6_4 1_555 1_555
C8_4 C3_4 1_555 1_555
C9_4 O5_4 1_555 1_555
H4_4 C9_4 1_555 1_555
H5_4 C9_4 1_555 1_555
C10_4 C9_4 1_555 1_555
C7_4 C8_4 1_555 1_555

#END
