
###############################################################################
#
# This file contains modified crystal structure data generated from the
# MOF subset of the Cambridge Structural Database (CSD) v543 
# hosted by the Cambridge Crystallographic Data Centre (CCDC).
#
# This work is licensed under the Creative Commons
# Attribution-NonCommercial-ShareAlike 4.0 International License.
# To view a copy of this license, visit
# http://creativecommons.org/licenses/by-nc-sa/4.0/
# or send a letter to
# Creative Commons, PO Box 1866, Mountain View, CA 94042, USA.
#
# CIF created using the CSD Python API on 29 September 2022
# The structure has been converted into the P1 space group
# The structure has a 3D framework
# The original CSD entry MUCLOM is in the cubic crystal system
# The framework has been calculated to contain at least 10.0% void space
# The void calculation uses a probe of radius 1.32A, grid spacing 0.4
#
###############################################################################

data_MUCLOM
_chemical_formula_moiety         '(C96 H120 B12 Li6 N48)n'
_symmetry_cell_setting           triclinic
_symmetry_space_group_name_H-M   'P 1'
_symmetry_Int_Tables_number      1
_space_group_name_Hall           'P 1'
loop_
_symmetry_equiv_pos_site_id
_symmetry_equiv_pos_as_xyz
1 x,y,z
_cell_length_a                   16.0311(1)
_cell_length_b                   16.0311(1)
_cell_length_c                   16.0311(1)
_cell_angle_alpha                90
_cell_angle_beta                 90
_cell_angle_gamma                90
_cell_volume                     4119.93
loop_
_atom_site_label
_atom_site_type_symbol
_atom_site_fract_x
_atom_site_fract_y
_atom_site_fract_z
Li1 Li 0.5000 0.2500 0.0000
B1 B 0.2500 0.5000 0.0000
N1 N 0.30612(8) 0.42758(8) 0.03026(8)
N2 N 0.40334(9) 0.32712(9) 0.03154(9)
C2 C 0.35971(11) 0.32587(12) 0.10594(12)
H1 H 0.3689 0.2886 0.1494
C3 C 0.30205(11) 0.38656(11) 0.10593(11)
H2 H 0.2656 0.3989 0.1494
Li2 Li 0.5000 0.7500 0.0000
Li3 Li 0.0000 0.5000 0.2500
N4 N 0.19388(8) 0.53026(8) 0.07242(8)
N7 N 0.09666(9) 0.53154(9) 0.17288(9)
N10 N 0.53154(9) 0.17288(9) 0.09666(9)
C5 C 0.37008(10) 0.61071(10) 0.01140(10)
C6 C 0.12992(10) 0.48860(10) 0.11071(10)
C9 C 0.14029(11) 0.60594(12) 0.17413(12)
H7 H 0.1311 0.6494 0.2114
C12 C 0.19795(11) 0.60593(11) 0.11344(11)
H10 H 0.2344 0.6494 0.1011
C14 C 0.40306(12) 0.58460(13) 0.09506(12)
C15 C 0.09694(12) 0.40494(12) 0.08460(13)
H12 H 0.4469 0.6218 0.1117
H13 H 0.0531 0.3883 0.1218
H15 H 0.4245 0.5288 0.0915
H16 H 0.0755 0.4085 0.0288
H18 H 0.3589 0.5865 0.1354
H19 H 0.1411 0.3646 0.0865
Li1_2 Li 0.5000 0.2500 1.0000
B1_2 B 0.2500 0.5000 1.0000
C1 C 0.37008(10) 0.38929(10) 0.98860(10)
C4 C 0.40306(12) 0.41540(13) 0.90494(12)
H3 H 0.4469 0.3782 0.8883
H4 H 0.4245 0.4712 0.9085
H5 H 0.3589 0.4135 0.8646
Li2_2 Li 0.5000 0.7500 1.0000
Li4 Li 0.0000 0.5000 0.7500
N3 N 0.30612(8) 0.57242(8) 0.96974(8)
N5 N 0.19388(8) 0.46974(8) 0.92758(8)
N6 N 0.40334(9) 0.67288(9) 0.96846(9)
N8 N 0.09666(9) 0.46846(9) 0.82712(9)
N9 N 0.59666(9) 0.32712(9) 0.96846(9)
N11 N 0.46846(9) 0.17288(9) 0.90334(9)
C7 C 0.12992(10) 0.51140(10) 0.88929(10)
C8 C 0.35971(11) 0.67413(12) 0.89406(12)
C10 C 0.14029(11) 0.39406(12) 0.82587(12)
H6 H 0.3689 0.7114 0.8506
H8 H 0.1311 0.3506 0.7886
C11 C 0.30205(11) 0.61344(11) 0.89407(11)
C13 C 0.19795(11) 0.39407(11) 0.88656(11)
H9 H 0.2656 0.6011 0.8506
H11 H 0.2344 0.3506 0.8989
C16 C 0.09694(12) 0.59506(12) 0.91540(13)
H14 H 0.0531 0.6117 0.8782
H17 H 0.0755 0.5915 0.9712
H20 H 0.1411 0.6354 0.9135
Li3_2 Li 1.0000 0.5000 0.2500
Li4_2 Li 1.0000 0.5000 0.7500
B1_3 B 0.7500 0.5000 0.0000
N1_2 N 0.69388(8) 0.57242(8) 0.03026(8)
N2_2 N 0.59666(9) 0.67288(9) 0.03154(9)
C2_2 C 0.64029(11) 0.67413(12) 0.10594(12)
H1_2 H 0.6311 0.7114 0.1494
C3_2 C 0.69795(11) 0.61344(11) 0.10593(11)
H2_2 H 0.7344 0.6011 0.1494
N4_2 N 0.80612(8) 0.46974(8) 0.07242(8)
N7_2 N 0.90334(9) 0.46846(9) 0.17288(9)
N10_2 N 0.46846(9) 0.82712(9) 0.09666(9)
C5_2 C 0.62992(10) 0.38929(10) 0.01140(10)
C6_2 C 0.87008(10) 0.51140(10) 0.11071(10)
C9_2 C 0.85971(11) 0.39406(12) 0.17413(12)
H7_2 H 0.8689 0.3506 0.2114
C12_2 C 0.80205(11) 0.39407(11) 0.11344(11)
H10_2 H 0.7656 0.3506 0.1011
C14_2 C 0.59694(12) 0.41540(13) 0.09506(12)
C15_2 C 0.90306(12) 0.59506(12) 0.08460(13)
H12_2 H 0.5531 0.3782 0.1117
H13_2 H 0.9469 0.6117 0.1218
H15_2 H 0.5755 0.4712 0.0915
H16_2 H 0.9245 0.5915 0.0288
H18_2 H 0.6411 0.4135 0.1354
H19_2 H 0.8589 0.6354 0.0865
B1_4 B 0.7500 0.5000 1.0000
C1_2 C 0.62992(10) 0.61071(10) 0.98860(10)
C4_2 C 0.59694(12) 0.58460(13) 0.90494(12)
H3_2 H 0.5531 0.6218 0.8883
H4_2 H 0.5755 0.5288 0.9085
H5_2 H 0.6411 0.5865 0.8646
N3_2 N 0.69388(8) 0.42758(8) 0.96974(8)
N5_2 N 0.80612(8) 0.53026(8) 0.92758(8)
N8_2 N 0.90334(9) 0.53154(9) 0.82712(9)
N11_2 N 0.53154(9) 0.82712(9) 0.90334(9)
C7_2 C 0.87008(10) 0.48860(10) 0.88929(10)
C8_2 C 0.64029(11) 0.32587(12) 0.89406(12)
C10_2 C 0.85971(11) 0.60594(12) 0.82587(12)
H6_2 H 0.6311 0.2886 0.8506
H8_2 H 0.8689 0.6494 0.7886
C11_2 C 0.69795(11) 0.38656(11) 0.89407(11)
C13_2 C 0.80205(11) 0.60593(11) 0.88656(11)
H9_2 H 0.7344 0.3989 0.8506
H11_2 H 0.7656 0.6494 0.8989
C16_2 C 0.90306(12) 0.40494(12) 0.91540(13)
H14_2 H 0.9469 0.3883 0.8782
H17_2 H 0.9245 0.4085 0.9712
H20_2 H 0.8589 0.3646 0.9135
B1_5 B -0.0000 0.2500 0.5000
N1_3 N 0.03026(8) 0.30612(8) 0.42758(8)
N2_3 N 0.03154(9) 0.40334(9) 0.32712(9)
C2_3 C 0.10594(12) 0.35971(11) 0.32587(12)
H1_3 H 0.1494 0.3689 0.2886
C3_3 C 0.10593(11) 0.30205(11) 0.38656(11)
H2_3 H 0.1494 0.2656 0.3989
Li3_3 Li 0.2500 0.0000 0.5000
N4_3 N 0.07242(8) 0.19388(8) 0.53026(8)
N7_3 N 0.17288(9) 0.09666(9) 0.53154(9)
C5_3 C 0.01140(10) 0.37008(10) 0.61071(10)
C6_3 C 0.11071(10) 0.12992(10) 0.48860(10)
C9_3 C 0.17413(12) 0.14029(11) 0.60594(12)
H7_3 H 0.2114 0.1311 0.6494
C12_3 C 0.11344(11) 0.19795(11) 0.60593(11)
H10_3 H 0.1011 0.2344 0.6494
C14_3 C 0.09506(12) 0.40306(12) 0.58460(13)
C15_3 C 0.08460(13) 0.09694(12) 0.40494(12)
H12_3 H 0.1117 0.4469 0.6218
H13_3 H 0.1218 0.0531 0.3883
H15_3 H 0.0915 0.4245 0.5288
H16_3 H 0.0288 0.0755 0.4085
H18_3 H 0.1354 0.3589 0.5865
H19_3 H 0.0865 0.1411 0.3646
Li3_4 Li 0.2500 1.0000 0.5000
B1_6 B 1.0000 0.2500 0.5000
C1_3 C 0.98860(10) 0.37008(10) 0.38929(10)
C4_3 C 0.90494(12) 0.40306(12) 0.41540(13)
H3_3 H 0.8883 0.4469 0.3782
H4_3 H 0.9085 0.4245 0.4712
H5_3 H 0.8646 0.3589 0.4135
Li4_3 Li 0.7500 0.0000 0.5000
N3_3 N 0.96974(8) 0.30612(8) 0.57242(8)
N5_3 N 0.92758(8) 0.19388(8) 0.46974(8)
N6_2 N 0.96846(9) 0.40334(9) 0.67288(9)
N8_3 N 0.82712(9) 0.09666(9) 0.46846(9)
N9_2 N 0.96846(9) 0.59666(9) 0.32712(9)
C7_3 C 0.88929(10) 0.12992(10) 0.51140(10)
C8_3 C 0.89406(12) 0.35971(11) 0.67413(12)
C10_3 C 0.82587(12) 0.14029(11) 0.39406(12)
H6_3 H 0.8506 0.3689 0.7114
H8_3 H 0.7886 0.1311 0.3506
C11_3 C 0.89407(11) 0.30205(11) 0.61344(11)
C13_3 C 0.88656(11) 0.19795(11) 0.39407(11)
H9_3 H 0.8506 0.2656 0.6011
H11_3 H 0.8989 0.2344 0.3506
C16_3 C 0.91540(13) 0.09694(12) 0.59506(12)
H14_3 H 0.8782 0.0531 0.6117
H17_3 H 0.9712 0.0755 0.5915
H20_3 H 0.9135 0.1411 0.6354
Li4_4 Li 0.7500 1.0000 0.5000
B1_7 B 0.0000 0.7500 0.5000
N1_4 N 0.03026(8) 0.69388(8) 0.57242(8)
N2_4 N 0.03154(9) 0.59666(9) 0.67288(9)
C2_4 C 0.10594(12) 0.64029(11) 0.67413(12)
H1_4 H 0.1494 0.6311 0.7114
C3_4 C 0.10593(11) 0.69795(11) 0.61344(11)
H2_4 H 0.1494 0.7344 0.6011
N4_4 N 0.07242(8) 0.80612(8) 0.46974(8)
N7_4 N 0.17288(9) 0.90334(9) 0.46846(9)
C5_4 C 0.01140(10) 0.62992(10) 0.38929(10)
C6_4 C 0.11071(10) 0.87008(10) 0.51140(10)
C9_4 C 0.17413(12) 0.85971(11) 0.39406(12)
H7_4 H 0.2114 0.8689 0.3506
C12_4 C 0.11344(11) 0.80205(11) 0.39407(11)
H10_4 H 0.1011 0.7656 0.3506
C14_4 C 0.09506(12) 0.59694(12) 0.41540(13)
C15_4 C 0.08460(13) 0.90306(12) 0.59506(12)
H12_4 H 0.1117 0.5531 0.3782
H13_4 H 0.1218 0.9469 0.6117
H15_4 H 0.0915 0.5755 0.4712
H16_4 H 0.0288 0.9245 0.5915
H18_4 H 0.1354 0.6411 0.4135
H19_4 H 0.0865 0.8589 0.6354
B1_8 B 1.0000 0.7500 0.5000
C1_4 C 0.98860(10) 0.62992(10) 0.61071(10)
C4_4 C 0.90494(12) 0.59694(12) 0.58460(13)
H3_4 H 0.8883 0.5531 0.6218
H4_4 H 0.9085 0.5755 0.5288
H5_4 H 0.8646 0.6411 0.5865
N3_4 N 0.96974(8) 0.69388(8) 0.42758(8)
N5_4 N 0.92758(8) 0.80612(8) 0.53026(8)
N8_4 N 0.82712(9) 0.90334(9) 0.53154(9)
C7_4 C 0.88929(10) 0.87008(10) 0.48860(10)
C8_4 C 0.89406(12) 0.64029(11) 0.32587(12)
C10_4 C 0.82587(12) 0.85971(11) 0.60594(12)
H6_4 H 0.8506 0.6311 0.2886
H8_4 H 0.7886 0.8689 0.6494
C11_4 C 0.89407(11) 0.69795(11) 0.38656(11)
C13_4 C 0.88656(11) 0.80205(11) 0.60593(11)
H9_4 H 0.8506 0.7344 0.3989
H11_4 H 0.8989 0.7656 0.6494
C16_4 C 0.91540(13) 0.90306(12) 0.40494(12)
H14_4 H 0.8782 0.9469 0.3883
H17_4 H 0.9712 0.9245 0.4085
H20_4 H 0.9135 0.8589 0.3646
B1_9 B 0.5000 0.0000 0.2500
N1_5 N 0.42758(8) 0.03026(8) 0.30612(8)
N2_5 N 0.32712(9) 0.03154(9) 0.40334(9)
C2_5 C 0.32587(12) 0.10594(12) 0.35971(11)
H1_5 H 0.2886 0.1494 0.3689
C3_5 C 0.38656(11) 0.10593(11) 0.30205(11)
H2_5 H 0.3989 0.1494 0.2656
N4_5 N 0.53026(8) 0.07242(8) 0.19388(8)
C5_5 C 0.61071(10) 0.01140(10) 0.37008(10)
C6_5 C 0.48860(10) 0.11071(10) 0.12992(10)
C9_5 C 0.60594(12) 0.17413(12) 0.14029(11)
H7_5 H 0.6494 0.2114 0.1311
C12_5 C 0.60593(11) 0.11344(11) 0.19795(11)
H10_5 H 0.6494 0.1011 0.2344
C14_5 C 0.58460(13) 0.09506(12) 0.40306(12)
C15_5 C 0.40494(12) 0.08460(13) 0.09694(12)
H12_5 H 0.6218 0.1117 0.4469
H13_5 H 0.3883 0.1218 0.0531
H15_5 H 0.5288 0.0915 0.4245
H16_5 H 0.4085 0.0288 0.0755
H18_5 H 0.5865 0.1354 0.3589
H19_5 H 0.3646 0.0865 0.1411
B1_10 B 0.5000 1.0000 0.2500
C1_5 C 0.38929(10) 0.98860(10) 0.37008(10)
C4_5 C 0.41540(13) 0.90494(12) 0.40306(12)
H3_5 H 0.3782 0.8883 0.4469
H4_5 H 0.4712 0.9085 0.4245
H5_5 H 0.4135 0.8646 0.3589
N3_5 N 0.57242(8) 0.96974(8) 0.30612(8)
N5_5 N 0.46974(8) 0.92758(8) 0.19388(8)
N6_3 N 0.67288(9) 0.96846(9) 0.40334(9)
N9_3 N 0.32712(9) 0.96846(9) 0.59666(9)
C7_5 C 0.51140(10) 0.88929(10) 0.12992(10)
C8_5 C 0.67413(12) 0.89406(12) 0.35971(11)
C10_5 C 0.39406(12) 0.82587(12) 0.14029(11)
H6_5 H 0.7114 0.8506 0.3689
H8_5 H 0.3506 0.7886 0.1311
C11_5 C 0.61344(11) 0.89407(11) 0.30205(11)
C13_5 C 0.39407(11) 0.88656(11) 0.19795(11)
H9_5 H 0.6011 0.8506 0.2656
H11_5 H 0.3506 0.8989 0.2344
C16_5 C 0.59506(12) 0.91540(13) 0.09694(12)
H14_5 H 0.6117 0.8782 0.0531
H17_5 H 0.5915 0.9712 0.0755
H20_5 H 0.6354 0.9135 0.1411
B1_11 B 0.5000 0.0000 0.7500
N1_6 N 0.57242(8) 0.03026(8) 0.69388(8)
N2_6 N 0.67288(9) 0.03154(9) 0.59666(9)
C2_6 C 0.67413(12) 0.10594(12) 0.64029(11)
H1_6 H 0.7114 0.1494 0.6311
C3_6 C 0.61344(11) 0.10593(11) 0.69795(11)
H2_6 H 0.6011 0.1494 0.7344
N4_6 N 0.46974(8) 0.07242(8) 0.80612(8)
C5_6 C 0.38929(10) 0.01140(10) 0.62992(10)
C6_6 C 0.51140(10) 0.11071(10) 0.87008(10)
C9_6 C 0.39406(12) 0.17413(12) 0.85971(11)
H7_6 H 0.3506 0.2114 0.8689
C12_6 C 0.39407(11) 0.11344(11) 0.80205(11)
H10_6 H 0.3506 0.1011 0.7656
C14_6 C 0.41540(13) 0.09506(12) 0.59694(12)
C15_6 C 0.59506(12) 0.08460(13) 0.90306(12)
H12_6 H 0.3782 0.1117 0.5531
H13_6 H 0.6117 0.1218 0.9469
H15_6 H 0.4712 0.0915 0.5755
H16_6 H 0.5915 0.0288 0.9245
H18_6 H 0.4135 0.1354 0.6411
H19_6 H 0.6354 0.0865 0.8589
B1_12 B 0.5000 1.0000 0.7500
C1_6 C 0.61071(10) 0.98860(10) 0.62992(10)
C4_6 C 0.58460(13) 0.90494(12) 0.59694(12)
H3_6 H 0.6218 0.8883 0.5531
H4_6 H 0.5288 0.9085 0.5755
H5_6 H 0.5865 0.8646 0.6411
N3_6 N 0.42758(8) 0.96974(8) 0.69388(8)
N5_6 N 0.53026(8) 0.92758(8) 0.80612(8)
C7_6 C 0.48860(10) 0.88929(10) 0.87008(10)
C8_6 C 0.32587(12) 0.89406(12) 0.64029(11)
C10_6 C 0.60594(12) 0.82587(12) 0.85971(11)
H6_6 H 0.2886 0.8506 0.6311
H8_6 H 0.6494 0.7886 0.8689
C11_6 C 0.38656(11) 0.89407(11) 0.69795(11)
C13_6 C 0.60593(11) 0.88656(11) 0.80205(11)
H9_6 H 0.3989 0.8506 0.7344
H11_6 H 0.6494 0.8989 0.7656
C16_6 C 0.40494(12) 0.91540(13) 0.90306(12)
H14_6 H 0.3883 0.8782 0.9469
H17_6 H 0.4085 0.9712 0.9245
H20_6 H 0.3646 0.9135 0.8589
loop_
_geom_bond_atom_site_label_1
_geom_bond_atom_site_label_2
_geom_bond_site_symmetry_1
_geom_bond_site_symmetry_2
Li1 N2 1_555 1_555
B1 N1 1_555 1_555
C2 N2 1_555 1_555
H1 C2 1_555 1_555
C3 N1 1_555 1_555
H2 C3 1_555 1_555
Li3 N7 1_555 1_555
N4 B1 1_555 1_555
N7 C6 1_555 1_555
N10 Li1 1_555 1_555
C6 N4 1_555 1_555
C9 N7 1_555 1_555
H7 C9 1_555 1_555
C12 N4 1_555 1_555
H10 C12 1_555 1_555
C14 C5 1_555 1_555
C15 C6 1_555 1_555
H12 C14 1_555 1_555
H13 C15 1_555 1_555
H15 C14 1_555 1_555
H16 C15 1_555 1_555
H18 C14 1_555 1_555
H19 C15 1_555 1_555
C2 C3 1_555 1_555
C9 C12 1_555 1_555
C1 C4 1_555 1_555
C4 H3 1_555 1_555
H4 C4 1_555 1_555
H5 C4 1_555 1_555
Li2_2 N6 1_555 1_555
Li4 N8 1_555 1_555
N3 B1_2 1_555 1_555
N5 B1_2 1_555 1_555
N8 C7 1_555 1_555
N9 Li1_2 1_555 1_555
N11 Li1_2 1_555 1_555
C7 N5 1_555 1_555
C8 N6 1_555 1_555
C10 N8 1_555 1_555
H6 C8 1_555 1_555
H8 C10 1_555 1_555
C11 N3 1_555 1_555
C13 N5 1_555 1_555
H9 C11 1_555 1_555
H11 C13 1_555 1_555
C16 C7 1_555 1_555
H14 C16 1_555 1_555
H17 C16 1_555 1_555
H20 C16 1_555 1_555
C8 C11 1_555 1_555
C10 C13 1_555 1_555
Li2 N2_2 1_555 1_555
B1_3 N1_2 1_555 1_555
C2_2 N2_2 1_555 1_555
H1_2 C2_2 1_555 1_555
C3_2 N1_2 1_555 1_555
H2_2 C3_2 1_555 1_555
Li3_2 N7_2 1_555 1_555
N4_2 B1_3 1_555 1_555
N7_2 C6_2 1_555 1_555
N10_2 Li2 1_555 1_555
C6_2 N4_2 1_555 1_555
C9_2 N7_2 1_555 1_555
H7_2 C9_2 1_555 1_555
C12_2 N4_2 1_555 1_555
H10_2 C12_2 1_555 1_555
C14_2 C5_2 1_555 1_555
C15_2 C6_2 1_555 1_555
H12_2 C14_2 1_555 1_555
H13_2 C15_2 1_555 1_555
H15_2 C14_2 1_555 1_555
H16_2 C15_2 1_555 1_555
H18_2 C14_2 1_555 1_555
H19_2 C15_2 1_555 1_555
C2_2 C3_2 1_555 1_555
C9_2 C12_2 1_555 1_555
C1_2 C4_2 1_555 1_555
C4_2 H3_2 1_555 1_555
H4_2 C4_2 1_555 1_555
H5_2 C4_2 1_555 1_555
Li4_2 N8_2 1_555 1_555
N3_2 B1_4 1_555 1_555
N5_2 B1_4 1_555 1_555
N8_2 C7_2 1_555 1_555
N11_2 Li2_2 1_555 1_555
C7_2 N5_2 1_555 1_555
C8_2 N9 1_555 1_555
C10_2 N8_2 1_555 1_555
H6_2 C8_2 1_555 1_555
H8_2 C10_2 1_555 1_555
C11_2 N3_2 1_555 1_555
C13_2 N5_2 1_555 1_555
H9_2 C11_2 1_555 1_555
H11_2 C13_2 1_555 1_555
C16_2 C7_2 1_555 1_555
H14_2 C16_2 1_555 1_555
H17_2 C16_2 1_555 1_555
H20_2 C16_2 1_555 1_555
C8_2 C11_2 1_555 1_555
C10_2 C13_2 1_555 1_555
Li3 N2_3 1_555 1_555
B1_5 N1_3 1_555 1_555
C2_3 N2_3 1_555 1_555
H1_3 C2_3 1_555 1_555
C3_3 N1_3 1_555 1_555
H2_3 C3_3 1_555 1_555
Li3_3 N7_3 1_555 1_555
N4_3 B1_5 1_555 1_555
N7_3 C6_3 1_555 1_555
C6_3 N4_3 1_555 1_555
C9_3 N7_3 1_555 1_555
H7_3 C9_3 1_555 1_555
C12_3 N4_3 1_555 1_555
H10_3 C12_3 1_555 1_555
C14_3 C5_3 1_555 1_555
C15_3 C6_3 1_555 1_555
H12_3 C14_3 1_555 1_555
H13_3 C15_3 1_555 1_555
H15_3 C14_3 1_555 1_555
H16_3 C15_3 1_555 1_555
H18_3 C14_3 1_555 1_555
H19_3 C15_3 1_555 1_555
C2_3 C3_3 1_555 1_555
C9_3 C12_3 1_555 1_555
C1_3 C4_3 1_555 1_555
C4_3 H3_3 1_555 1_555
H4_3 C4_3 1_555 1_555
H5_3 C4_3 1_555 1_555
Li4_2 N6_2 1_555 1_555
Li4_3 N8_3 1_555 1_555
N3_3 B1_6 1_555 1_555
N5_3 B1_6 1_555 1_555
N8_3 C7_3 1_555 1_555
N9_2 Li3_2 1_555 1_555
C7_3 N5_3 1_555 1_555
C8_3 N6_2 1_555 1_555
C10_3 N8_3 1_555 1_555
H6_3 C8_3 1_555 1_555
H8_3 C10_3 1_555 1_555
C11_3 N3_3 1_555 1_555
C13_3 N5_3 1_555 1_555
H9_3 C11_3 1_555 1_555
H11_3 C13_3 1_555 1_555
C16_3 C7_3 1_555 1_555
H14_3 C16_3 1_555 1_555
H17_3 C16_3 1_555 1_555
H20_3 C16_3 1_555 1_555
C8_3 C11_3 1_555 1_555
C10_3 C13_3 1_555 1_555
Li4 N2_4 1_555 1_555
B1_7 N1_4 1_555 1_555
C2_4 N2_4 1_555 1_555
H1_4 C2_4 1_555 1_555
C3_4 N1_4 1_555 1_555
H2_4 C3_4 1_555 1_555
Li3_4 N7_4 1_555 1_555
N4_4 B1_7 1_555 1_555
N7_4 C6_4 1_555 1_555
C6_4 N4_4 1_555 1_555
C9_4 N7_4 1_555 1_555
H7_4 C9_4 1_555 1_555
C12_4 N4_4 1_555 1_555
H10_4 C12_4 1_555 1_555
C14_4 C5_4 1_555 1_555
C15_4 C6_4 1_555 1_555
H12_4 C14_4 1_555 1_555
H13_4 C15_4 1_555 1_555
H15_4 C14_4 1_555 1_555
H16_4 C15_4 1_555 1_555
H18_4 C14_4 1_555 1_555
H19_4 C15_4 1_555 1_555
C2_4 C3_4 1_555 1_555
C9_4 C12_4 1_555 1_555
C1_4 C4_4 1_555 1_555
C4_4 H3_4 1_555 1_555
H4_4 C4_4 1_555 1_555
H5_4 C4_4 1_555 1_555
Li4_4 N8_4 1_555 1_555
N3_4 B1_8 1_555 1_555
N5_4 B1_8 1_555 1_555
N8_4 C7_4 1_555 1_555
C7_4 N5_4 1_555 1_555
C8_4 N9_2 1_555 1_555
C10_4 N8_4 1_555 1_555
H6_4 C8_4 1_555 1_555
H8_4 C10_4 1_555 1_555
C11_4 N3_4 1_555 1_555
C13_4 N5_4 1_555 1_555
H9_4 C11_4 1_555 1_555
H11_4 C13_4 1_555 1_555
C16_4 C7_4 1_555 1_555
H14_4 C16_4 1_555 1_555
H17_4 C16_4 1_555 1_555
H20_4 C16_4 1_555 1_555
C8_4 C11_4 1_555 1_555
C10_4 C13_4 1_555 1_555
Li3_3 N2_5 1_555 1_555
B1_9 N1_5 1_555 1_555
C2_5 N2_5 1_555 1_555
H1_5 C2_5 1_555 1_555
C3_5 N1_5 1_555 1_555
H2_5 C3_5 1_555 1_555
N4_5 B1_9 1_555 1_555
N10 C6_5 1_555 1_555
C6_5 N4_5 1_555 1_555
C9_5 N10 1_555 1_555
H7_5 C9_5 1_555 1_555
C12_5 N4_5 1_555 1_555
H10_5 C12_5 1_555 1_555
C14_5 C5_5 1_555 1_555
C15_5 C6_5 1_555 1_555
H12_5 C14_5 1_555 1_555
H13_5 C15_5 1_555 1_555
H15_5 C14_5 1_555 1_555
H16_5 C15_5 1_555 1_555
H18_5 C14_5 1_555 1_555
H19_5 C15_5 1_555 1_555
C2_5 C3_5 1_555 1_555
C9_5 C12_5 1_555 1_555
C1_5 C4_5 1_555 1_555
C4_5 H3_5 1_555 1_555
H4_5 C4_5 1_555 1_555
H5_5 C4_5 1_555 1_555
Li4_4 N6_3 1_555 1_555
N3_5 B1_10 1_555 1_555
N5_5 B1_10 1_555 1_555
N10_2 C7_5 1_555 1_555
N9_3 Li3_4 1_555 1_555
C7_5 N5_5 1_555 1_555
C8_5 N6_3 1_555 1_555
C10_5 N10_2 1_555 1_555
H6_5 C8_5 1_555 1_555
H8_5 C10_5 1_555 1_555
C11_5 N3_5 1_555 1_555
C13_5 N5_5 1_555 1_555
H9_5 C11_5 1_555 1_555
H11_5 C13_5 1_555 1_555
C16_5 C7_5 1_555 1_555
H14_5 C16_5 1_555 1_555
H17_5 C16_5 1_555 1_555
H20_5 C16_5 1_555 1_555
C8_5 C11_5 1_555 1_555
C10_5 C13_5 1_555 1_555
Li4_3 N2_6 1_555 1_555
B1_11 N1_6 1_555 1_555
C2_6 N2_6 1_555 1_555
H1_6 C2_6 1_555 1_555
C3_6 N1_6 1_555 1_555
H2_6 C3_6 1_555 1_555
N4_6 B1_11 1_555 1_555
N11 C6_6 1_555 1_555
C6_6 N4_6 1_555 1_555
C9_6 N11 1_555 1_555
H7_6 C9_6 1_555 1_555
C12_6 N4_6 1_555 1_555
H10_6 C12_6 1_555 1_555
C14_6 C5_6 1_555 1_555
C15_6 C6_6 1_555 1_555
H12_6 C14_6 1_555 1_555
H13_6 C15_6 1_555 1_555
H15_6 C14_6 1_555 1_555
H16_6 C15_6 1_555 1_555
H18_6 C14_6 1_555 1_555
H19_6 C15_6 1_555 1_555
C2_6 C3_6 1_555 1_555
C9_6 C12_6 1_555 1_555
C1_6 C4_6 1_555 1_555
C4_6 H3_6 1_555 1_555
H4_6 C4_6 1_555 1_555
H5_6 C4_6 1_555 1_555
N3_6 B1_12 1_555 1_555
N5_6 B1_12 1_555 1_555
N11_2 C7_6 1_555 1_555
C7_6 N5_6 1_555 1_555
C8_6 N9_3 1_555 1_555
C10_6 N11_2 1_555 1_555
H6_6 C8_6 1_555 1_555
H8_6 C10_6 1_555 1_555
C11_6 N3_6 1_555 1_555
C13_6 N5_6 1_555 1_555
H9_6 C11_6 1_555 1_555
H11_6 C13_6 1_555 1_555
C16_6 C7_6 1_555 1_555
H14_6 C16_6 1_555 1_555
H17_6 C16_6 1_555 1_555
H20_6 C16_6 1_555 1_555
C8_6 C11_6 1_555 1_555
C10_6 C13_6 1_555 1_555

#END
