
###############################################################################
#
# This file contains modified crystal structure data generated from the
# MOF subset of the Cambridge Structural Database (CSD) v543 
# hosted by the Cambridge Crystallographic Data Centre (CCDC).
#
# This work is licensed under the Creative Commons
# Attribution-NonCommercial-ShareAlike 4.0 International License.
# To view a copy of this license, visit
# http://creativecommons.org/licenses/by-nc-sa/4.0/
# or send a letter to
# Creative Commons, PO Box 1866, Mountain View, CA 94042, USA.
#
# CIF created using the CSD Python API on 29 September 2022
# The structure has been converted into the P1 space group
# The structure has a 3D framework
# The original CSD entry MUDLON is in the orthorhombic crystal system
# The framework has been calculated to contain at least 10.0% void space
# The void calculation uses a probe of radius 1.32A, grid spacing 0.4
# H atom positions have been added when not included in the experimental data
# Generated hydrogen atom positions removed from atoms on special positions
#
###############################################################################

data_MUDLON
_chemical_formula_moiety         '(C320 H256 Mg12 N16 O88)n'
_symmetry_cell_setting           triclinic
_symmetry_space_group_name_H-M   'P 1'
_symmetry_Int_Tables_number      1
_space_group_name_Hall           'P 1'
loop_
_symmetry_equiv_pos_site_id
_symmetry_equiv_pos_as_xyz
1 x,y,z
_cell_length_a                   25.16(2)
_cell_length_b                   36.592(18)
_cell_length_c                   15.7272(18)
_cell_angle_alpha                90
_cell_angle_beta                 90
_cell_angle_gamma                90
_cell_volume                     14479.3
loop_
_atom_site_label
_atom_site_type_symbol
_atom_site_fract_x
_atom_site_fract_y
_atom_site_fract_z
C1 C 0.28885(19) 0.10066(15) 0.0468(4)
C2 C 0.31264(19) 0.06817(14) 0.0656(3)
H1 H 0.3014 0.0548 0.1125
C3 C 0.35343(19) 0.05500(15) 0.0150(4)
H2 H 0.3690 0.0327 0.0286
C8 C 0.2046(2) 0.09049(16) 0.1257(5)
C9 C 0.1870(2) 0.06516(18) 0.0692(4)
H5 H 0.2010 0.0643 0.0145
C10 C 0.1475(2) 0.04025(16) 0.0943(4)
H6 H 0.1379 0.0212 0.0581
C11 C 0.12276(19) 0.04383(17) 0.1724(4)
C12 C 0.13999(19) 0.07154(16) 0.2265(4)
H7 H 0.1241 0.0742 0.2796
C13 C 0.1802(2) 0.09520(16) 0.2029(4)
H8 H 0.1906 0.1140 0.2389
C14 C 0.0783(2) 0.01977(17) 0.2039(6)
C15 C 0.2452(2) 0.15275(16) 0.1138(4)
C16 C 0.2900(2) 0.17219(16) 0.1317(5)
H9 H 0.3222 0.1600 0.1372
C17 C 0.2883(2) 0.20953(19) 0.1419(4)
H10 H 0.3193 0.2217 0.1575
C18 C 0.2420(3) 0.22988(15) 0.1297(4)
C19 C 0.1973(3) 0.21040(18) 0.1165(5)
H11 H 0.1650 0.2227 0.1149
C20 C 0.1974(3) 0.17130(17) 0.1047(5)
H12 H 0.1662 0.1588 0.0915
N1 N 0.24640(16) 0.11443(12) 0.0984(3)
O1 O 0.05951(13) 0.02194(11) 0.2735(3)
C21 C 0.28885(19) 0.39934(15) 0.0468(4)
C22 C 0.31264(19) 0.43183(14) 0.0656(3)
H13 H 0.3014 0.4452 0.1125
C23 C 0.35343(19) 0.44500(15) 0.0150(4)
H14 H 0.3690 0.4673 0.0286
C28 C 0.2046(2) 0.40951(16) 0.1257(5)
C29 C 0.1870(2) 0.43484(18) 0.0692(4)
H17 H 0.2010 0.4357 0.0145
C30 C 0.1475(2) 0.45975(16) 0.0943(4)
H18 H 0.1379 0.4788 0.0581
C31 C 0.12276(19) 0.45617(17) 0.1724(4)
C32 C 0.13999(19) 0.42846(16) 0.2265(4)
H19 H 0.1241 0.4258 0.2796
C33 C 0.1802(2) 0.40480(16) 0.2029(4)
H20 H 0.1906 0.3860 0.2389
C34 C 0.0783(2) 0.48023(17) 0.2039(6)
C35 C 0.2452(2) 0.34725(16) 0.1138(4)
C36 C 0.2900(2) 0.32781(16) 0.1317(5)
H21 H 0.3222 0.3400 0.1372
C37 C 0.2883(2) 0.29047(19) 0.1419(4)
H22 H 0.3193 0.2783 0.1575
C38 C 0.2420(3) 0.27012(15) 0.1297(4)
C39 C 0.1973(3) 0.28960(18) 0.1165(5)
H23 H 0.1650 0.2773 0.1149
C40 C 0.1974(3) 0.32870(17) 0.1047(5)
H24 H 0.1662 0.3412 0.0915
Mg4 Mg 0.0000 0.50513(7) 0.33612(15)
N2 N 0.24640(16) 0.38557(12) 0.0984(3)
O7 O 0.05951(13) 0.47806(11) 0.2735(3)
O10 O 0.06352(17) 0.50272(16) 0.1433(3)
C4 C 0.3713(2) 0.07368(18) 0.9462(4)
C5 C 0.3460(2) 0.10687(16) 0.9263(4)
H3 H 0.3567 0.1200 0.8787
C6 C 0.3052(2) 0.12023(18) 0.9773(4)
H4 H 0.2890 0.1424 0.9642
C7 C 0.4140(2) 0.06179(19) 0.8877(5)
Mg1 Mg 0.5000 0.00513(7) 0.83612(15)
O3 O 0.44082(12) 0.03320(11) 0.9090(2)
O4 O 0.4209(2) 0.07906(15) 0.8204(4)
O5 O 0.5000 0.04776(13) 0.7464(3)
C24 C 0.3713(2) 0.42632(18) 0.9462(4)
C25 C 0.3460(2) 0.39313(16) 0.9263(4)
H15 H 0.3567 0.3800 0.8787
C26 C 0.3052(2) 0.37977(18) 0.9773(4)
H16 H 0.2890 0.3576 0.9642
C27 C 0.4140(2) 0.43821(19) 0.8877(5)
Mg3 Mg 0.5000 0.49487(7) 0.83612(15)
O11 O 0.44082(12) 0.46680(11) 0.9090(2)
O12 O 0.55918(12) 0.03320(11) 0.9090(2)
O13 O 0.4209(2) 0.42094(15) 0.8204(4)
O2 O 0.06352(17) 0.99728(16) 0.1433(3)
Mg2 Mg 0.0000 0.99487(7) 0.33612(15)
O6 O 0.5000 0.96679(12) 0.9347(3)
O8 O 0.44049(13) 0.97806(11) 0.7735(3)
O9 O 0.55951(13) 0.97806(11) 0.7735(3)
Mg4_2 Mg 1.0000 0.50513(7) 0.33612(15)
Mg2_2 Mg 1.0000 0.99487(7) 0.33612(15)
C1_2 C 0.71115(19) 0.39934(15) 0.0468(4)
C2_2 C 0.68736(19) 0.43183(14) 0.0656(3)
H1_2 H 0.6986 0.4452 0.1125
C3_2 C 0.64657(19) 0.44500(15) 0.0150(4)
H2_2 H 0.6310 0.4673 0.0286
C8_2 C 0.7954(2) 0.40951(16) 0.1257(5)
C9_2 C 0.8130(2) 0.43484(18) 0.0692(4)
H5_2 H 0.7990 0.4357 0.0145
C10_2 C 0.8525(2) 0.45975(16) 0.0943(4)
H6_2 H 0.8621 0.4788 0.0581
C11_2 C 0.87724(19) 0.45617(17) 0.1724(4)
C12_2 C 0.86001(19) 0.42846(16) 0.2265(4)
H7_2 H 0.8759 0.4258 0.2796
C13_2 C 0.8198(2) 0.40480(16) 0.2029(4)
H8_2 H 0.8094 0.3860 0.2389
C14_2 C 0.9217(2) 0.48023(17) 0.2039(6)
C15_2 C 0.7548(2) 0.34725(16) 0.1138(4)
C16_2 C 0.7100(2) 0.32781(16) 0.1317(5)
H9_2 H 0.6778 0.3400 0.1372
C17_2 C 0.7117(2) 0.29047(19) 0.1419(4)
H10_2 H 0.6807 0.2783 0.1575
C18_2 C 0.7580(3) 0.27012(15) 0.1297(4)
C19_2 C 0.8027(3) 0.28960(18) 0.1165(5)
H11_2 H 0.8350 0.2773 0.1149
C20_2 C 0.8026(3) 0.32870(17) 0.1047(5)
H12_2 H 0.8338 0.3412 0.0915
N1_2 N 0.75360(16) 0.38557(12) 0.0984(3)
O1_2 O 0.94049(13) 0.47806(11) 0.2735(3)
O2_2 O 0.93648(17) 0.50272(16) 0.1433(3)
C21_2 C 0.71115(19) 0.10066(15) 0.0468(4)
C22_2 C 0.68736(19) 0.06817(14) 0.0656(3)
H13_2 H 0.6986 0.0548 0.1125
C23_2 C 0.64657(19) 0.05500(15) 0.0150(4)
H14_2 H 0.6310 0.0327 0.0286
C28_2 C 0.7954(2) 0.09049(16) 0.1257(5)
C29_2 C 0.8130(2) 0.06516(18) 0.0692(4)
H17_2 H 0.7990 0.0643 0.0145
C30_2 C 0.8525(2) 0.04025(16) 0.0943(4)
H18_2 H 0.8621 0.0212 0.0581
C31_2 C 0.87724(19) 0.04383(17) 0.1724(4)
C32_2 C 0.86001(19) 0.07154(16) 0.2265(4)
H19_2 H 0.8759 0.0742 0.2796
C33_2 C 0.8198(2) 0.09520(16) 0.2029(4)
H20_2 H 0.8094 0.1140 0.2389
C34_2 C 0.9217(2) 0.01977(17) 0.2039(6)
C35_2 C 0.7548(2) 0.15275(16) 0.1138(4)
C36_2 C 0.7100(2) 0.17219(16) 0.1317(5)
H21_2 H 0.6778 0.1600 0.1372
C37_2 C 0.7117(2) 0.20953(19) 0.1419(4)
H22_2 H 0.6807 0.2217 0.1575
C38_2 C 0.7580(3) 0.22988(15) 0.1297(4)
C39_2 C 0.8027(3) 0.21040(18) 0.1165(5)
H23_2 H 0.8350 0.2227 0.1149
C40_2 C 0.8026(3) 0.17130(17) 0.1047(5)
H24_2 H 0.8338 0.1588 0.0915
N2_2 N 0.75360(16) 0.11443(12) 0.0984(3)
O7_2 O 0.94049(13) 0.02194(11) 0.2735(3)
C4_2 C 0.6287(2) 0.42632(18) 0.9462(4)
C5_2 C 0.6540(2) 0.39313(16) 0.9263(4)
H3_2 H 0.6433 0.3800 0.8787
C6_2 C 0.6948(2) 0.37977(18) 0.9773(4)
H4_2 H 0.7110 0.3576 0.9642
C7_2 C 0.5860(2) 0.43821(19) 0.8877(5)
O3_2 O 0.55918(12) 0.46680(11) 0.9090(2)
O4_2 O 0.5791(2) 0.42094(15) 0.8204(4)
O5_2 O 0.5000 0.45224(13) 0.7464(3)
O6_2 O 0.5000 0.53321(12) 0.9347(3)
C24_2 C 0.6287(2) 0.07368(18) 0.9462(4)
C25_2 C 0.6540(2) 0.10687(16) 0.9263(4)
H15_2 H 0.6433 0.1200 0.8787
C26_2 C 0.6948(2) 0.12023(18) 0.9773(4)
H16_2 H 0.7110 0.1424 0.9642
C27_2 C 0.5860(2) 0.06179(19) 0.8877(5)
O8_2 O 0.55951(13) 0.52194(11) 0.7735(3)
O9_2 O 0.44049(13) 0.52194(11) 0.7735(3)
O13_2 O 0.5791(2) 0.07906(15) 0.8204(4)
O10_2 O 0.93648(17) 0.99728(16) 0.1433(3)
O5_3 O 0.0000 0.54776(13) 0.2464(3)
O6_3 O 0.0000 0.46679(12) 0.4347(3)
O12_2 O 0.05918(12) 0.53320(11) 0.4090(2)
H26 H 0.0259458 0.447122 0.421675
H27 H 0.010224 0.570971 0.274729
H28 H 0.0258727 0.542133 0.200553
O10_3 O 0.56352(17) 0.00272(16) 0.6433(3)
C1_3 C 0.78885(19) 0.60066(15) 0.5468(4)
C2_3 C 0.81264(19) 0.56817(14) 0.5656(3)
H1_3 H 0.8014 0.5548 0.6125
C3_3 C 0.85343(19) 0.55500(15) 0.5150(4)
H2_3 H 0.8690 0.5327 0.5286
C4_3 C 0.8713(2) 0.57368(18) 0.4462(4)
C5_3 C 0.8460(2) 0.60687(16) 0.4263(4)
H3_3 H 0.8567 0.6200 0.3787
C6_3 C 0.8052(2) 0.62023(18) 0.4773(4)
H4_3 H 0.7890 0.6424 0.4642
C7_3 C 0.9140(2) 0.56179(19) 0.3877(5)
C8_3 C 0.7046(2) 0.59049(16) 0.6257(5)
C9_3 C 0.6870(2) 0.56516(18) 0.5692(4)
H5_3 H 0.7010 0.5643 0.5145
C10_3 C 0.6475(2) 0.54025(16) 0.5943(4)
H6_3 H 0.6379 0.5212 0.5581
C11_3 C 0.62276(19) 0.54383(17) 0.6724(4)
C12_3 C 0.63999(19) 0.57154(16) 0.7265(4)
H7_3 H 0.6241 0.5742 0.7796
C13_3 C 0.6802(2) 0.59520(16) 0.7029(4)
H8_3 H 0.6906 0.6140 0.7389
C14_3 C 0.5783(2) 0.51977(17) 0.7039(6)
C15_3 C 0.7452(2) 0.65275(16) 0.6138(4)
C16_3 C 0.7900(2) 0.67219(16) 0.6317(5)
H9_3 H 0.8222 0.6600 0.6372
C17_3 C 0.7883(2) 0.70953(19) 0.6419(4)
H10_3 H 0.8193 0.7217 0.6575
C18_3 C 0.7420(3) 0.72988(15) 0.6297(4)
C19_3 C 0.6973(3) 0.71040(18) 0.6165(5)
H11_3 H 0.6650 0.7227 0.6149
C20_3 C 0.6974(3) 0.67130(17) 0.6047(5)
H12_3 H 0.6662 0.6588 0.5915
N1_3 N 0.74640(16) 0.61443(12) 0.5984(3)
O2_3 O 0.56352(17) 0.49728(16) 0.6433(3)
O3_3 O 0.94082(12) 0.53320(11) 0.4090(2)
O4_3 O 0.9209(2) 0.57906(15) 0.3204(4)
O5_4 O 1.0000 0.54776(13) 0.2464(3)
O6_4 O 1.0000 0.46679(12) 0.4347(3)
C21_3 C 0.78885(19) 0.89934(15) 0.5468(4)
C22_3 C 0.81264(19) 0.93183(14) 0.5656(3)
H13_3 H 0.8014 0.9452 0.6125
C23_3 C 0.85343(19) 0.94500(15) 0.5150(4)
H14_3 H 0.8690 0.9673 0.5286
C24_3 C 0.8713(2) 0.92632(18) 0.4462(4)
C25_3 C 0.8460(2) 0.89313(16) 0.4263(4)
H15_3 H 0.8567 0.8800 0.3787
C26_3 C 0.8052(2) 0.87977(18) 0.4773(4)
H16_3 H 0.7890 0.8576 0.4642
C27_3 C 0.9140(2) 0.93821(19) 0.3877(5)
C28_3 C 0.7046(2) 0.90951(16) 0.6257(5)
C29_3 C 0.6870(2) 0.93484(18) 0.5692(4)
H17_3 H 0.7010 0.9357 0.5145
C30_3 C 0.6475(2) 0.95975(16) 0.5943(4)
H18_3 H 0.6379 0.9788 0.5581
C31_3 C 0.62276(19) 0.95617(17) 0.6724(4)
C32_3 C 0.63999(19) 0.92846(16) 0.7265(4)
H19_3 H 0.6241 0.9258 0.7796
C33_3 C 0.6802(2) 0.90480(16) 0.7029(4)
H20_3 H 0.6906 0.8860 0.7389
C34_3 C 0.5783(2) 0.98023(17) 0.7039(6)
C35_3 C 0.7452(2) 0.84725(16) 0.6138(4)
C36_3 C 0.7900(2) 0.82781(16) 0.6317(5)
H21_3 H 0.8222 0.8400 0.6372
C37_3 C 0.7883(2) 0.79047(19) 0.6419(4)
H22_3 H 0.8193 0.7783 0.6575
C38_3 C 0.7420(3) 0.77012(15) 0.6297(4)
C39_3 C 0.6973(3) 0.78960(18) 0.6165(5)
H23_3 H 0.6650 0.7773 0.6149
C40_3 C 0.6974(3) 0.82870(17) 0.6047(5)
H24_3 H 0.6662 0.8412 0.5915
N2_3 N 0.74640(16) 0.88557(12) 0.5984(3)
O11_2 O 0.94082(12) 0.96680(11) 0.4090(2)
O13_3 O 0.9209(2) 0.92094(15) 0.3204(4)
H25 H 0.963928 0.456064 0.440502
O2_4 O 0.43648(17) 0.00272(16) 0.6433(3)
O6_5 O 0.0000 0.03321(12) 0.4347(3)
H25_2 H 0.0360719 0.0439359 0.440502
C1_4 C 0.21115(19) 0.89934(15) 0.5468(4)
C2_4 C 0.18736(19) 0.93183(14) 0.5656(3)
H1_4 H 0.1986 0.9452 0.6125
C3_4 C 0.14657(19) 0.94500(15) 0.5150(4)
H2_4 H 0.1310 0.9673 0.5286
C4_4 C 0.1287(2) 0.92632(18) 0.4462(4)
C5_4 C 0.1540(2) 0.89313(16) 0.4263(4)
H3_4 H 0.1433 0.8800 0.3787
C6_4 C 0.1948(2) 0.87977(18) 0.4773(4)
H4_4 H 0.2110 0.8576 0.4642
C7_4 C 0.0860(2) 0.93821(19) 0.3877(5)
C8_4 C 0.2954(2) 0.90951(16) 0.6257(5)
C9_4 C 0.3130(2) 0.93484(18) 0.5692(4)
H5_4 H 0.2990 0.9357 0.5145
C10_4 C 0.3525(2) 0.95975(16) 0.5943(4)
H6_4 H 0.3621 0.9788 0.5581
C11_4 C 0.37724(19) 0.95617(17) 0.6724(4)
C12_4 C 0.36001(19) 0.92846(16) 0.7265(4)
H7_4 H 0.3759 0.9258 0.7796
C13_4 C 0.3198(2) 0.90480(16) 0.7029(4)
H8_4 H 0.3094 0.8860 0.7389
C14_4 C 0.4217(2) 0.98023(17) 0.7039(6)
C15_4 C 0.2548(2) 0.84725(16) 0.6138(4)
C16_4 C 0.2100(2) 0.82781(16) 0.6317(5)
H9_4 H 0.1778 0.8400 0.6372
C17_4 C 0.2117(2) 0.79047(19) 0.6419(4)
H10_4 H 0.1807 0.7783 0.6575
C18_4 C 0.2580(3) 0.77012(15) 0.6297(4)
C19_4 C 0.3027(3) 0.78960(18) 0.6165(5)
H11_4 H 0.3350 0.7773 0.6149
C20_4 C 0.3026(3) 0.82870(17) 0.6047(5)
H12_4 H 0.3338 0.8412 0.5915
N1_4 N 0.25360(16) 0.88557(12) 0.5984(3)
O3_4 O 0.05918(12) 0.96680(11) 0.4090(2)
O4_4 O 0.0791(2) 0.92094(15) 0.3204(4)
O5_5 O -0.0000 0.95224(13) 0.2464(3)
C21_4 C 0.21115(19) 0.60066(15) 0.5468(4)
C22_4 C 0.18736(19) 0.56817(14) 0.5656(3)
H13_4 H 0.1986 0.5548 0.6125
C23_4 C 0.14657(19) 0.55500(15) 0.5150(4)
H14_4 H 0.1310 0.5327 0.5286
C24_4 C 0.1287(2) 0.57368(18) 0.4462(4)
C25_4 C 0.1540(2) 0.60687(16) 0.4263(4)
H15_4 H 0.1433 0.6200 0.3787
C26_4 C 0.1948(2) 0.62023(18) 0.4773(4)
H16_4 H 0.2110 0.6424 0.4642
C27_4 C 0.0860(2) 0.56179(19) 0.3877(5)
C28_4 C 0.2954(2) 0.59049(16) 0.6257(5)
C29_4 C 0.3130(2) 0.56516(18) 0.5692(4)
H17_4 H 0.2990 0.5643 0.5145
C30_4 C 0.3525(2) 0.54025(16) 0.5943(4)
H18_4 H 0.3621 0.5212 0.5581
C31_4 C 0.37724(19) 0.54383(17) 0.6724(4)
C32_4 C 0.36001(19) 0.57154(16) 0.7265(4)
H19_4 H 0.3759 0.5742 0.7796
C33_4 C 0.3198(2) 0.59520(16) 0.7029(4)
H20_4 H 0.3094 0.6140 0.7389
C34_4 C 0.4217(2) 0.51977(17) 0.7039(6)
C35_4 C 0.2548(2) 0.65275(16) 0.6138(4)
C36_4 C 0.2100(2) 0.67219(16) 0.6317(5)
H21_4 H 0.1778 0.6600 0.6372
C37_4 C 0.2117(2) 0.70953(19) 0.6419(4)
H22_4 H 0.1807 0.7217 0.6575
C38_4 C 0.2580(3) 0.72988(15) 0.6297(4)
C39_4 C 0.3027(3) 0.71040(18) 0.6165(5)
H23_4 H 0.3350 0.7227 0.6149
C40_4 C 0.3026(3) 0.67130(17) 0.6047(5)
H24_4 H 0.3338 0.6588 0.5915
N2_4 N 0.25360(16) 0.61443(12) 0.5984(3)
O10_4 O 0.43648(17) 0.49728(16) 0.6433(3)
O13_4 O 0.0791(2) 0.57906(15) 0.3204(4)
O6_6 O 1.0000 0.03321(12) 0.4347(3)
H26_2 H 0.974054 0.0528779 0.421675
O5_6 O 1.0000 0.95224(13) 0.2464(3)
H27_2 H 0.989776 0.929029 0.274729
H28_2 H 0.974127 0.957867 0.200553
H25_3 H 0.0360719 0.456064 0.440502
H26_3 H 0.974054 0.447122 0.421675
H27_3 H 0.989776 0.570971 0.274729
H28_3 H 0.974127 0.542133 0.200553
H26_4 H 0.0259458 0.0528779 0.421675
H27_4 H 0.010224 0.929029 0.274729
H28_4 H 0.0258727 0.957867 0.200553
H25_4 H 0.963928 0.0439359 0.440502
O6_7 O 0.5000 0.03321(12) 0.0653(3)
O8_3 O 0.44049(13) 0.02194(11) 0.2265(3)
O9_3 O 0.55951(13) 0.02194(11) 0.2265(3)
O2_5 O 0.06352(17) 0.00272(16) 0.8567(3)
Mg2_3 Mg 0.0000 0.00513(7) 0.66388(15)
C4_5 C 0.3713(2) 0.92632(18) 0.0538(4)
C5_5 C 0.3460(2) 0.89313(16) 0.0737(4)
H3_5 H 0.3567 0.8800 0.1213
C6_5 C 0.3052(2) 0.87977(18) 0.0227(4)
H4_5 H 0.2890 0.8576 0.0358
C7_5 C 0.4140(2) 0.93821(19) 0.1123(5)
Mg1_2 Mg 0.5000 0.99487(7) 0.16388(15)
O3_5 O 0.44082(12) 0.96680(11) 0.0910(2)
O4_5 O 0.4209(2) 0.92094(15) 0.1796(4)
O5_7 O 0.5000 0.95224(13) 0.2536(3)
C24_5 C 0.3713(2) 0.57368(18) 0.0538(4)
C25_5 C 0.3460(2) 0.60687(16) 0.0737(4)
H15_5 H 0.3567 0.6200 0.1213
C26_5 C 0.3052(2) 0.62023(18) 0.0227(4)
H16_5 H 0.2890 0.6424 0.0358
C27_5 C 0.4140(2) 0.56179(19) 0.1123(5)
Mg3_2 Mg 0.5000 0.50513(7) 0.16388(15)
O11_3 O 0.44082(12) 0.53320(11) 0.0910(2)
O12_3 O 0.55918(12) 0.96680(11) 0.0910(2)
O13_5 O 0.4209(2) 0.57906(15) 0.1796(4)
C1_5 C 0.28885(19) 0.89934(15) 0.9532(4)
C2_5 C 0.31264(19) 0.93183(14) 0.9344(3)
H1_5 H 0.3014 0.9452 0.8875
C3_5 C 0.35343(19) 0.94500(15) 0.9850(4)
H2_5 H 0.3690 0.9673 0.9714
C8_5 C 0.2046(2) 0.90951(16) 0.8743(5)
C9_5 C 0.1870(2) 0.93484(18) 0.9308(4)
H5_5 H 0.2010 0.9357 0.9855
C10_5 C 0.1475(2) 0.95975(16) 0.9057(4)
H6_5 H 0.1379 0.9788 0.9419
C11_5 C 0.12276(19) 0.95617(17) 0.8276(4)
C12_5 C 0.13999(19) 0.92846(16) 0.7735(4)
H7_5 H 0.1241 0.9258 0.7204
C13_5 C 0.1802(2) 0.90480(16) 0.7971(4)
H8_5 H 0.1906 0.8860 0.7611
C14_5 C 0.0783(2) 0.98023(17) 0.7961(6)
C15_5 C 0.2452(2) 0.84725(16) 0.8862(4)
C16_5 C 0.2900(2) 0.82781(16) 0.8683(5)
H9_5 H 0.3222 0.8400 0.8628
C17_5 C 0.2883(2) 0.79047(19) 0.8581(4)
H10_5 H 0.3193 0.7783 0.8425
C18_5 C 0.2420(3) 0.77012(15) 0.8703(4)
C19_5 C 0.1973(3) 0.78960(18) 0.8835(5)
H11_5 H 0.1650 0.7773 0.8851
C20_5 C 0.1974(3) 0.82870(17) 0.8953(5)
H12_5 H 0.1662 0.8412 0.9085
N1_5 N 0.24640(16) 0.88557(12) 0.9016(3)
O1_3 O 0.05951(13) 0.97806(11) 0.7265(3)
C21_5 C 0.28885(19) 0.60066(15) 0.9532(4)
C22_5 C 0.31264(19) 0.56817(14) 0.9344(3)
H13_5 H 0.3014 0.5548 0.8875
C23_5 C 0.35343(19) 0.55500(15) 0.9850(4)
H14_5 H 0.3690 0.5327 0.9714
C28_5 C 0.2046(2) 0.59049(16) 0.8743(5)
C29_5 C 0.1870(2) 0.56516(18) 0.9308(4)
H17_5 H 0.2010 0.5643 0.9855
C30_5 C 0.1475(2) 0.54025(16) 0.9057(4)
H18_5 H 0.1379 0.5212 0.9419
C31_5 C 0.12276(19) 0.54383(17) 0.8276(4)
C32_5 C 0.13999(19) 0.57154(16) 0.7735(4)
H19_5 H 0.1241 0.5742 0.7204
C33_5 C 0.1802(2) 0.59520(16) 0.7971(4)
H20_5 H 0.1906 0.6140 0.7611
C34_5 C 0.0783(2) 0.51977(17) 0.7961(6)
C35_5 C 0.2452(2) 0.65275(16) 0.8862(4)
C36_5 C 0.2900(2) 0.67219(16) 0.8683(5)
H21_5 H 0.3222 0.6600 0.8628
C37_5 C 0.2883(2) 0.70953(19) 0.8581(4)
H22_5 H 0.3193 0.7217 0.8425
C38_5 C 0.2420(3) 0.72988(15) 0.8703(4)
C39_5 C 0.1973(3) 0.71040(18) 0.8835(5)
H23_5 H 0.1650 0.7227 0.8851
C40_5 C 0.1974(3) 0.67130(17) 0.8953(5)
H24_5 H 0.1662 0.6588 0.9085
Mg4_3 Mg 0.0000 0.49487(7) 0.66388(15)
N2_5 N 0.24640(16) 0.61443(12) 0.9016(3)
O7_3 O 0.05951(13) 0.52194(11) 0.7265(3)
O10_5 O 0.06352(17) 0.49728(16) 0.8567(3)
Mg2_4 Mg 1.0000 0.00513(7) 0.66388(15)
Mg4_4 Mg 1.0000 0.49487(7) 0.66388(15)
O10_6 O 0.93648(17) 0.00272(16) 0.8567(3)
C4_6 C 0.6287(2) 0.57368(18) 0.0538(4)
C5_6 C 0.6540(2) 0.60687(16) 0.0737(4)
H3_6 H 0.6433 0.6200 0.1213
C6_6 C 0.6948(2) 0.62023(18) 0.0227(4)
H4_6 H 0.7110 0.6424 0.0358
C7_6 C 0.5860(2) 0.56179(19) 0.1123(5)
O3_6 O 0.55918(12) 0.53320(11) 0.0910(2)
O4_6 O 0.5791(2) 0.57906(15) 0.1796(4)
O5_8 O 0.5000 0.54776(13) 0.2536(3)
O6_8 O 0.5000 0.46679(12) 0.0653(3)
C24_6 C 0.6287(2) 0.92632(18) 0.0538(4)
C25_6 C 0.6540(2) 0.89313(16) 0.0737(4)
H15_6 H 0.6433 0.8800 0.1213
C26_6 C 0.6948(2) 0.87977(18) 0.0227(4)
H16_6 H 0.7110 0.8576 0.0358
C27_6 C 0.5860(2) 0.93821(19) 0.1123(5)
O8_4 O 0.55951(13) 0.47806(11) 0.2265(3)
O9_4 O 0.44049(13) 0.47806(11) 0.2265(3)
O13_6 O 0.5791(2) 0.92094(15) 0.1796(4)
C1_6 C 0.71115(19) 0.60066(15) 0.9532(4)
C2_6 C 0.68736(19) 0.56817(14) 0.9344(3)
H1_6 H 0.6986 0.5548 0.8875
C3_6 C 0.64657(19) 0.55500(15) 0.9850(4)
H2_6 H 0.6310 0.5327 0.9714
C8_6 C 0.7954(2) 0.59049(16) 0.8743(5)
C9_6 C 0.8130(2) 0.56516(18) 0.9308(4)
H5_6 H 0.7990 0.5643 0.9855
C10_6 C 0.8525(2) 0.54025(16) 0.9057(4)
H6_6 H 0.8621 0.5212 0.9419
C11_6 C 0.87724(19) 0.54383(17) 0.8276(4)
C12_6 C 0.86001(19) 0.57154(16) 0.7735(4)
H7_6 H 0.8759 0.5742 0.7204
C13_6 C 0.8198(2) 0.59520(16) 0.7971(4)
H8_6 H 0.8094 0.6140 0.7611
C14_6 C 0.9217(2) 0.51977(17) 0.7961(6)
C15_6 C 0.7548(2) 0.65275(16) 0.8862(4)
C16_6 C 0.7100(2) 0.67219(16) 0.8683(5)
H9_6 H 0.6778 0.6600 0.8628
C17_6 C 0.7117(2) 0.70953(19) 0.8581(4)
H10_6 H 0.6807 0.7217 0.8425
C18_6 C 0.7580(3) 0.72988(15) 0.8703(4)
C19_6 C 0.8027(3) 0.71040(18) 0.8835(5)
H11_6 H 0.8350 0.7227 0.8851
C20_6 C 0.8026(3) 0.67130(17) 0.8953(5)
H12_6 H 0.8338 0.6588 0.9085
N1_6 N 0.75360(16) 0.61443(12) 0.9016(3)
O1_4 O 0.94049(13) 0.52194(11) 0.7265(3)
O2_6 O 0.93648(17) 0.49728(16) 0.8567(3)
C21_6 C 0.71115(19) 0.89934(15) 0.9532(4)
C22_6 C 0.68736(19) 0.93183(14) 0.9344(3)
H13_6 H 0.6986 0.9452 0.8875
C23_6 C 0.64657(19) 0.94500(15) 0.9850(4)
H14_6 H 0.6310 0.9673 0.9714
C28_6 C 0.7954(2) 0.90951(16) 0.8743(5)
C29_6 C 0.8130(2) 0.93484(18) 0.9308(4)
H17_6 H 0.7990 0.9357 0.9855
C30_6 C 0.8525(2) 0.95975(16) 0.9057(4)
H18_6 H 0.8621 0.9788 0.9419
C31_6 C 0.87724(19) 0.95617(17) 0.8276(4)
C32_6 C 0.86001(19) 0.92846(16) 0.7735(4)
H19_6 H 0.8759 0.9258 0.7204
C33_6 C 0.8198(2) 0.90480(16) 0.7971(4)
H20_6 H 0.8094 0.8860 0.7611
C34_6 C 0.9217(2) 0.98023(17) 0.7961(6)
C35_6 C 0.7548(2) 0.84725(16) 0.8862(4)
C36_6 C 0.7100(2) 0.82781(16) 0.8683(5)
H21_6 H 0.6778 0.8400 0.8628
C37_6 C 0.7117(2) 0.79047(19) 0.8581(4)
H22_6 H 0.6807 0.7783 0.8425
C38_6 C 0.7580(3) 0.77012(15) 0.8703(4)
C39_6 C 0.8027(3) 0.78960(18) 0.8835(5)
H23_6 H 0.8350 0.7773 0.8851
C40_6 C 0.8026(3) 0.82870(17) 0.8953(5)
H24_6 H 0.8338 0.8412 0.9085
N2_6 N 0.75360(16) 0.88557(12) 0.9016(3)
O7_4 O 0.94049(13) 0.97806(11) 0.7265(3)
O5_9 O 0.0000 0.45224(13) 0.7536(3)
O6_9 O -0.0000 0.53321(12) 0.5653(3)
O12_4 O 0.05918(12) 0.46680(11) 0.5910(2)
H26_5 H 0.0259458 0.552878 0.578325
H27_5 H 0.010224 0.429029 0.725271
H28_5 H 0.0258727 0.457867 0.799447
C1_7 C 0.78885(19) 0.39934(15) 0.4532(4)
C2_7 C 0.81264(19) 0.43183(14) 0.4344(3)
H1_7 H 0.8014 0.4452 0.3875
C3_7 C 0.85343(19) 0.44500(15) 0.4850(4)
H2_7 H 0.8690 0.4673 0.4714
C4_7 C 0.8713(2) 0.42632(18) 0.5538(4)
C5_7 C 0.8460(2) 0.39313(16) 0.5737(4)
H3_7 H 0.8567 0.3800 0.6213
C6_7 C 0.8052(2) 0.37977(18) 0.5227(4)
H4_7 H 0.7890 0.3576 0.5358
C7_7 C 0.9140(2) 0.43821(19) 0.6123(5)
C8_7 C 0.7046(2) 0.40951(16) 0.3743(5)
C9_7 C 0.6870(2) 0.43484(18) 0.4308(4)
H5_7 H 0.7010 0.4357 0.4855
C10_7 C 0.6475(2) 0.45975(16) 0.4057(4)
H6_7 H 0.6379 0.4788 0.4419
C11_7 C 0.62276(19) 0.45617(17) 0.3276(4)
C12_7 C 0.63999(19) 0.42846(16) 0.2735(4)
H7_7 H 0.6241 0.4258 0.2204
C13_7 C 0.6802(2) 0.40480(16) 0.2971(4)
H8_7 H 0.6906 0.3860 0.2611
C14_7 C 0.5783(2) 0.48023(17) 0.2961(6)
C15_7 C 0.7452(2) 0.34725(16) 0.3862(4)
C16_7 C 0.7900(2) 0.32781(16) 0.3683(5)
H9_7 H 0.8222 0.3400 0.3628
C17_7 C 0.7883(2) 0.29047(19) 0.3581(4)
H10_7 H 0.8193 0.2783 0.3425
C18_7 C 0.7420(3) 0.27012(15) 0.3703(4)
C19_7 C 0.6973(3) 0.28960(18) 0.3835(5)
H11_7 H 0.6650 0.2773 0.3851
C20_7 C 0.6974(3) 0.32870(17) 0.3953(5)
H12_7 H 0.6662 0.3412 0.4085
N1_7 N 0.74640(16) 0.38557(12) 0.4016(3)
O2_7 O 0.56352(17) 0.50272(16) 0.3567(3)
O3_7 O 0.94082(12) 0.46680(11) 0.5910(2)
O4_7 O 0.9209(2) 0.42094(15) 0.6796(4)
O5_10 O 1.0000 0.45224(13) 0.7536(3)
O6_10 O 1.0000 0.53321(12) 0.5653(3)
C21_7 C 0.78885(19) 0.10066(15) 0.4532(4)
C22_7 C 0.81264(19) 0.06817(14) 0.4344(3)
H13_7 H 0.8014 0.0548 0.3875
C23_7 C 0.85343(19) 0.05500(15) 0.4850(4)
H14_7 H 0.8690 0.0327 0.4714
C24_7 C 0.8713(2) 0.07368(18) 0.5538(4)
C25_7 C 0.8460(2) 0.10687(16) 0.5737(4)
H15_7 H 0.8567 0.1200 0.6213
C26_7 C 0.8052(2) 0.12023(18) 0.5227(4)
H16_7 H 0.7890 0.1424 0.5358
C27_7 C 0.9140(2) 0.06179(19) 0.6123(5)
C28_7 C 0.7046(2) 0.09049(16) 0.3743(5)
C29_7 C 0.6870(2) 0.06516(18) 0.4308(4)
H17_7 H 0.7010 0.0643 0.4855
C30_7 C 0.6475(2) 0.04025(16) 0.4057(4)
H18_7 H 0.6379 0.0212 0.4419
C31_7 C 0.62276(19) 0.04383(17) 0.3276(4)
C32_7 C 0.63999(19) 0.07154(16) 0.2735(4)
H19_7 H 0.6241 0.0742 0.2204
C33_7 C 0.6802(2) 0.09520(16) 0.2971(4)
H20_7 H 0.6906 0.1140 0.2611
C34_7 C 0.5783(2) 0.01977(17) 0.2961(6)
C35_7 C 0.7452(2) 0.15275(16) 0.3862(4)
C36_7 C 0.7900(2) 0.17219(16) 0.3683(5)
H21_7 H 0.8222 0.1600 0.3628
C37_7 C 0.7883(2) 0.20953(19) 0.3581(4)
H22_7 H 0.8193 0.2217 0.3425
C38_7 C 0.7420(3) 0.22988(15) 0.3703(4)
C39_7 C 0.6973(3) 0.21040(18) 0.3835(5)
H23_7 H 0.6650 0.2227 0.3851
C40_7 C 0.6974(3) 0.17130(17) 0.3953(5)
H24_7 H 0.6662 0.1588 0.4085
N2_7 N 0.74640(16) 0.11443(12) 0.4016(3)
O11_4 O 0.94082(12) 0.03320(11) 0.5910(2)
O13_7 O 0.9209(2) 0.07906(15) 0.6796(4)
H25_5 H 0.963928 0.543936 0.559498
O10_7 O 0.56352(17) 0.99728(16) 0.3567(3)
C1_8 C 0.21115(19) 0.10066(15) 0.4532(4)
C2_8 C 0.18736(19) 0.06817(14) 0.4344(3)
H1_8 H 0.1986 0.0548 0.3875
C3_8 C 0.14657(19) 0.05500(15) 0.4850(4)
H2_8 H 0.1310 0.0327 0.4714
C4_8 C 0.1287(2) 0.07368(18) 0.5538(4)
C5_8 C 0.1540(2) 0.10687(16) 0.5737(4)
H3_8 H 0.1433 0.1200 0.6213
C6_8 C 0.1948(2) 0.12023(18) 0.5227(4)
H4_8 H 0.2110 0.1424 0.5358
C7_8 C 0.0860(2) 0.06179(19) 0.6123(5)
C8_8 C 0.2954(2) 0.09049(16) 0.3743(5)
C9_8 C 0.3130(2) 0.06516(18) 0.4308(4)
H5_8 H 0.2990 0.0643 0.4855
C10_8 C 0.3525(2) 0.04025(16) 0.4057(4)
H6_8 H 0.3621 0.0212 0.4419
C11_8 C 0.37724(19) 0.04383(17) 0.3276(4)
C12_8 C 0.36001(19) 0.07154(16) 0.2735(4)
H7_8 H 0.3759 0.0742 0.2204
C13_8 C 0.3198(2) 0.09520(16) 0.2971(4)
H8_8 H 0.3094 0.1140 0.2611
C14_8 C 0.4217(2) 0.01977(17) 0.2961(6)
C15_8 C 0.2548(2) 0.15275(16) 0.3862(4)
C16_8 C 0.2100(2) 0.17219(16) 0.3683(5)
H9_8 H 0.1778 0.1600 0.3628
C17_8 C 0.2117(2) 0.20953(19) 0.3581(4)
H10_8 H 0.1807 0.2217 0.3425
C18_8 C 0.2580(3) 0.22988(15) 0.3703(4)
C19_8 C 0.3027(3) 0.21040(18) 0.3835(5)
H11_8 H 0.3350 0.2227 0.3851
C20_8 C 0.3026(3) 0.17130(17) 0.3953(5)
H12_8 H 0.3338 0.1588 0.4085
N1_8 N 0.25360(16) 0.11443(12) 0.4016(3)
O3_8 O 0.05918(12) 0.03320(11) 0.5910(2)
O4_8 O 0.0791(2) 0.07906(15) 0.6796(4)
O5_11 O 0.0000 0.04776(13) 0.7536(3)
C21_8 C 0.21115(19) 0.39934(15) 0.4532(4)
C22_8 C 0.18736(19) 0.43183(14) 0.4344(3)
H13_8 H 0.1986 0.4452 0.3875
C23_8 C 0.14657(19) 0.44500(15) 0.4850(4)
H14_8 H 0.1310 0.4673 0.4714
C24_8 C 0.1287(2) 0.42632(18) 0.5538(4)
C25_8 C 0.1540(2) 0.39313(16) 0.5737(4)
H15_8 H 0.1433 0.3800 0.6213
C26_8 C 0.1948(2) 0.37977(18) 0.5227(4)
H16_8 H 0.2110 0.3576 0.5358
C27_8 C 0.0860(2) 0.43821(19) 0.6123(5)
C28_8 C 0.2954(2) 0.40951(16) 0.3743(5)
C29_8 C 0.3130(2) 0.43484(18) 0.4308(4)
H17_8 H 0.2990 0.4357 0.4855
C30_8 C 0.3525(2) 0.45975(16) 0.4057(4)
H18_8 H 0.3621 0.4788 0.4419
C31_8 C 0.37724(19) 0.45617(17) 0.3276(4)
C32_8 C 0.36001(19) 0.42846(16) 0.2735(4)
H19_8 H 0.3759 0.4258 0.2204
C33_8 C 0.3198(2) 0.40480(16) 0.2971(4)
H20_8 H 0.3094 0.3860 0.2611
C34_8 C 0.4217(2) 0.48023(17) 0.2961(6)
C35_8 C 0.2548(2) 0.34725(16) 0.3862(4)
C36_8 C 0.2100(2) 0.32781(16) 0.3683(5)
H21_8 H 0.1778 0.3400 0.3628
C37_8 C 0.2117(2) 0.29047(19) 0.3581(4)
H22_8 H 0.1807 0.2783 0.3425
C38_8 C 0.2580(3) 0.27012(15) 0.3703(4)
C39_8 C 0.3027(3) 0.28960(18) 0.3835(5)
H23_8 H 0.3350 0.2773 0.3851
C40_8 C 0.3026(3) 0.32870(17) 0.3953(5)
H24_8 H 0.3338 0.3412 0.4085
N2_8 N 0.25360(16) 0.38557(12) 0.4016(3)
O10_8 O 0.43648(17) 0.50272(16) 0.3567(3)
O13_8 O 0.0791(2) 0.42094(15) 0.6796(4)
O2_8 O 0.43648(17) 0.99728(16) 0.3567(3)
O6_11 O 0.0000 0.96679(12) 0.5653(3)
H25_6 H 0.0360719 0.956064 0.559498
O5_12 O 1.0000 0.04776(13) 0.7536(3)
H27_6 H 0.989776 0.0709711 0.725271
H28_6 H 0.974127 0.042133 0.799447
O6_12 O 1.0000 0.96679(12) 0.5653(3)
H26_6 H 0.974054 0.947122 0.578325
H25_7 H 0.0360719 0.543936 0.559498
H26_7 H 0.974054 0.552878 0.578325
H27_7 H 0.989776 0.429029 0.725271
H28_7 H 0.974127 0.457867 0.799447
H27_8 H 0.010224 0.0709711 0.725271
H28_8 H 0.0258727 0.042133 0.799447
H26_8 H 0.0259458 0.947122 0.578325
H25_8 H 0.963928 0.956064 0.559498
loop_
_geom_bond_atom_site_label_1
_geom_bond_atom_site_label_2
_geom_bond_site_symmetry_1
_geom_bond_site_symmetry_2
C1 C2 1_555 1_555
C2 H1 1_555 1_555
C3 C2 1_555 1_555
H2 C3 1_555 1_555
C8 C9 1_555 1_555
C9 H5 1_555 1_555
C10 C9 1_555 1_555
H6 C10 1_555 1_555
C11 C10 1_555 1_555
C12 C11 1_555 1_555
H7 C12 1_555 1_555
C13 C8 1_555 1_555
H8 C13 1_555 1_555
C14 C11 1_555 1_555
C15 C16 1_555 1_555
C16 H9 1_555 1_555
C17 C16 1_555 1_555
H10 C17 1_555 1_555
C18 C17 1_555 1_555
C19 C18 1_555 1_555
H11 C19 1_555 1_555
C20 C15 1_555 1_555
H12 C20 1_555 1_555
N1 C1 1_555 1_555
O1 C14 1_555 1_555
C21 C22 1_555 1_555
C22 H13 1_555 1_555
C23 C22 1_555 1_555
H14 C23 1_555 1_555
C28 C29 1_555 1_555
C29 H17 1_555 1_555
C30 C29 1_555 1_555
H18 C30 1_555 1_555
C31 C30 1_555 1_555
C32 C31 1_555 1_555
H19 C32 1_555 1_555
C33 C28 1_555 1_555
H20 C33 1_555 1_555
C34 C31 1_555 1_555
C35 C36 1_555 1_555
C36 H21 1_555 1_555
C37 C36 1_555 1_555
H22 C37 1_555 1_555
C38 C18 1_555 1_555
C39 C38 1_555 1_555
H23 C39 1_555 1_555
C40 C35 1_555 1_555
H24 C40 1_555 1_555
Mg4 O7 1_555 1_555
N2 C21 1_555 1_555
O7 C34 1_555 1_555
O10 C34 1_555 1_555
C8 N1 1_555 1_555
C12 C13 1_555 1_555
C15 N1 1_555 1_555
C19 C20 1_555 1_555
C28 N2 1_555 1_555
C32 C33 1_555 1_555
C35 N2 1_555 1_555
C37 C38 1_555 1_555
C39 C40 1_555 1_555
C5 C4 1_555 1_555
H3 C5 1_555 1_555
H4 C6 1_555 1_555
C7 C4 1_555 1_555
Mg1 O3 1_555 1_555
O3 C7 1_555 1_555
O4 C7 1_555 1_555
O5 Mg1 1_555 1_555
C25 C24 1_555 1_555
H15 C25 1_555 1_555
H16 C26 1_555 1_555
C27 C24 1_555 1_555
Mg3 O11 1_555 1_555
O11 C27 1_555 1_555
O12 Mg1 1_555 1_555
O13 C27 1_555 1_555
C5 C6 1_555 1_555
C25 C26 1_555 1_555
C1_2 C2_2 1_555 1_555
C2_2 H1_2 1_555 1_555
C3_2 C2_2 1_555 1_555
H2_2 C3_2 1_555 1_555
C8_2 C9_2 1_555 1_555
C9_2 H5_2 1_555 1_555
C10_2 C9_2 1_555 1_555
H6_2 C10_2 1_555 1_555
C11_2 C10_2 1_555 1_555
C12_2 C11_2 1_555 1_555
H7_2 C12_2 1_555 1_555
C13_2 C8_2 1_555 1_555
H8_2 C13_2 1_555 1_555
C14_2 C11_2 1_555 1_555
C15_2 C16_2 1_555 1_555
C16_2 H9_2 1_555 1_555
C17_2 C16_2 1_555 1_555
H10_2 C17_2 1_555 1_555
C18_2 C17_2 1_555 1_555
C19_2 C18_2 1_555 1_555
H11_2 C19_2 1_555 1_555
C20_2 C15_2 1_555 1_555
H12_2 C20_2 1_555 1_555
N1_2 C1_2 1_555 1_555
O1_2 C14_2 1_555 1_555
O2_2 C14_2 1_555 1_555
C21_2 C22_2 1_555 1_555
C22_2 H13_2 1_555 1_555
C23_2 C22_2 1_555 1_555
H14_2 C23_2 1_555 1_555
C28_2 C29_2 1_555 1_555
C29_2 H17_2 1_555 1_555
C30_2 C29_2 1_555 1_555
H18_2 C30_2 1_555 1_555
C31_2 C30_2 1_555 1_555
C32_2 C31_2 1_555 1_555
H19_2 C32_2 1_555 1_555
C33_2 C28_2 1_555 1_555
H20_2 C33_2 1_555 1_555
C34_2 C31_2 1_555 1_555
C35_2 C36_2 1_555 1_555
C36_2 H21_2 1_555 1_555
C37_2 C36_2 1_555 1_555
H22_2 C37_2 1_555 1_555
C38_2 C18_2 1_555 1_555
C39_2 C38_2 1_555 1_555
H23_2 C39_2 1_555 1_555
C40_2 C35_2 1_555 1_555
H24_2 C40_2 1_555 1_555
Mg4_2 O1_2 1_555 1_555
N2_2 C21_2 1_555 1_555
O7_2 C34_2 1_555 1_555
C8_2 N1_2 1_555 1_555
C12_2 C13_2 1_555 1_555
C15_2 N1_2 1_555 1_555
C19_2 C20_2 1_555 1_555
C28_2 N2_2 1_555 1_555
C32_2 C33_2 1_555 1_555
C35_2 N2_2 1_555 1_555
C37_2 C38_2 1_555 1_555
C39_2 C40_2 1_555 1_555
C5_2 C4_2 1_555 1_555
H3_2 C5_2 1_555 1_555
H4_2 C6_2 1_555 1_555
C7_2 C4_2 1_555 1_555
Mg3 O3_2 1_555 1_555
O3_2 C7_2 1_555 1_555
O4_2 C7_2 1_555 1_555
O5_2 Mg3 1_555 1_555
O6_2 Mg3 1_555 1_555
C25_2 C24_2 1_555 1_555
H15_2 C25_2 1_555 1_555
H16_2 C26_2 1_555 1_555
C27_2 C24_2 1_555 1_555
O8_2 Mg3 1_555 1_555
O9_2 Mg3 1_555 1_555
O12 C27_2 1_555 1_555
O13_2 C27_2 1_555 1_555
C5_2 C6_2 1_555 1_555
C25_2 C26_2 1_555 1_555
O5_3 Mg4 1_555 1_555
O6_3 Mg4 1_555 1_555
O12_2 Mg4 1_555 1_555
O6_3 H26 1_555 1_555
O5_3 H27 1_555 1_555
O5_3 H28 1_555 1_555
C1_3 C2_3 1_555 1_555
C2_3 H1_3 1_555 1_555
C3_3 C2_3 1_555 1_555
H2_3 C3_3 1_555 1_555
C4_3 C3_3 1_555 1_555
C5_3 C4_3 1_555 1_555
H3_3 C5_3 1_555 1_555
C6_3 C1_3 1_555 1_555
H4_3 C6_3 1_555 1_555
C7_3 C4_3 1_555 1_555
C8_3 C9_3 1_555 1_555
C9_3 H5_3 1_555 1_555
C10_3 C9_3 1_555 1_555
H6_3 C10_3 1_555 1_555
C11_3 C10_3 1_555 1_555
C12_3 C11_3 1_555 1_555
H7_3 C12_3 1_555 1_555
C13_3 C8_3 1_555 1_555
H8_3 C13_3 1_555 1_555
C14_3 C11_3 1_555 1_555
C15_3 C16_3 1_555 1_555
C16_3 H9_3 1_555 1_555
C17_3 C16_3 1_555 1_555
H10_3 C17_3 1_555 1_555
C18_3 C17_3 1_555 1_555
C19_3 C18_3 1_555 1_555
H11_3 C19_3 1_555 1_555
C20_3 C15_3 1_555 1_555
H12_3 C20_3 1_555 1_555
Mg4_2 O3_3 1_555 1_555
N1_3 C1_3 1_555 1_555
O8_2 C14_3 1_555 1_555
O2_3 C14_3 1_555 1_555
O3_3 C7_3 1_555 1_555
O4_3 C7_3 1_555 1_555
O5_4 Mg4_2 1_555 1_555
O6_4 Mg4_2 1_555 1_555
C21_3 C22_3 1_555 1_555
C22_3 H13_3 1_555 1_555
C23_3 C22_3 1_555 1_555
H14_3 C23_3 1_555 1_555
C24_3 C23_3 1_555 1_555
C25_3 C24_3 1_555 1_555
H15_3 C25_3 1_555 1_555
C26_3 C21_3 1_555 1_555
H16_3 C26_3 1_555 1_555
C27_3 C24_3 1_555 1_555
C28_3 C29_3 1_555 1_555
C29_3 H17_3 1_555 1_555
C30_3 C29_3 1_555 1_555
H18_3 C30_3 1_555 1_555
C31_3 C30_3 1_555 1_555
C32_3 C31_3 1_555 1_555
H19_3 C32_3 1_555 1_555
C33_3 C28_3 1_555 1_555
H20_3 C33_3 1_555 1_555
C34_3 C31_3 1_555 1_555
C35_3 C36_3 1_555 1_555
C36_3 H21_3 1_555 1_555
C37_3 C36_3 1_555 1_555
H22_3 C37_3 1_555 1_555
C38_3 C18_3 1_555 1_555
C39_3 C38_3 1_555 1_555
H23_3 C39_3 1_555 1_555
C40_3 C35_3 1_555 1_555
H24_3 C40_3 1_555 1_555
Mg2_2 O11_2 1_555 1_555
N2_3 C21_3 1_555 1_555
O9 C34_3 1_555 1_555
O11_2 C27_3 1_555 1_555
O13_3 C27_3 1_555 1_555
C5_3 C6_3 1_555 1_555
C8_3 N1_3 1_555 1_555
C12_3 C13_3 1_555 1_555
C15_3 N1_3 1_555 1_555
C19_3 C20_3 1_555 1_555
C25_3 C26_3 1_555 1_555
C28_3 N2_3 1_555 1_555
C32_3 C33_3 1_555 1_555
C35_3 N2_3 1_555 1_555
C37_3 C38_3 1_555 1_555
C39_3 C40_3 1_555 1_555
O6_4 H25 1_555 1_555
O6_5 H25_2 1_555 1_555
C1_4 C2_4 1_555 1_555
C2_4 H1_4 1_555 1_555
C3_4 C2_4 1_555 1_555
H2_4 C3_4 1_555 1_555
C4_4 C3_4 1_555 1_555
C5_4 C4_4 1_555 1_555
H3_4 C5_4 1_555 1_555
C6_4 C1_4 1_555 1_555
H4_4 C6_4 1_555 1_555
C7_4 C4_4 1_555 1_555
C8_4 C9_4 1_555 1_555
C9_4 H5_4 1_555 1_555
C10_4 C9_4 1_555 1_555
H6_4 C10_4 1_555 1_555
C11_4 C10_4 1_555 1_555
C12_4 C11_4 1_555 1_555
H7_4 C12_4 1_555 1_555
C13_4 C8_4 1_555 1_555
H8_4 C13_4 1_555 1_555
C14_4 C11_4 1_555 1_555
C15_4 C16_4 1_555 1_555
C16_4 H9_4 1_555 1_555
C17_4 C16_4 1_555 1_555
H10_4 C17_4 1_555 1_555
C18_4 C17_4 1_555 1_555
C19_4 C18_4 1_555 1_555
H11_4 C19_4 1_555 1_555
C20_4 C15_4 1_555 1_555
H12_4 C20_4 1_555 1_555
Mg2 O3_4 1_555 1_555
N1_4 C1_4 1_555 1_555
O8 C14_4 1_555 1_555
O3_4 C7_4 1_555 1_555
O4_4 C7_4 1_555 1_555
O5_5 Mg2 1_555 1_555
C21_4 C22_4 1_555 1_555
C22_4 H13_4 1_555 1_555
C23_4 C22_4 1_555 1_555
H14_4 C23_4 1_555 1_555
C24_4 C23_4 1_555 1_555
C25_4 C24_4 1_555 1_555
H15_4 C25_4 1_555 1_555
C26_4 C21_4 1_555 1_555
H16_4 C26_4 1_555 1_555
C27_4 C24_4 1_555 1_555
C28_4 C29_4 1_555 1_555
C29_4 H17_4 1_555 1_555
C30_4 C29_4 1_555 1_555
H18_4 C30_4 1_555 1_555
C31_4 C30_4 1_555 1_555
C32_4 C31_4 1_555 1_555
H19_4 C32_4 1_555 1_555
C33_4 C28_4 1_555 1_555
H20_4 C33_4 1_555 1_555
C34_4 C31_4 1_555 1_555
C35_4 C36_4 1_555 1_555
C36_4 H21_4 1_555 1_555
C37_4 C36_4 1_555 1_555
H22_4 C37_4 1_555 1_555
C38_4 C18_4 1_555 1_555
C39_4 C38_4 1_555 1_555
H23_4 C39_4 1_555 1_555
C40_4 C35_4 1_555 1_555
H24_4 C40_4 1_555 1_555
N2_4 C21_4 1_555 1_555
O9_2 C34_4 1_555 1_555
O10_4 C34_4 1_555 1_555
O12_2 C27_4 1_555 1_555
O13_4 C27_4 1_555 1_555
C5_4 C6_4 1_555 1_555
C8_4 N1_4 1_555 1_555
C12_4 C13_4 1_555 1_555
C15_4 N1_4 1_555 1_555
C19_4 C20_4 1_555 1_555
C25_4 C26_4 1_555 1_555
C28_4 N2_4 1_555 1_555
C32_4 C33_4 1_555 1_555
C35_4 N2_4 1_555 1_555
C37_4 C38_4 1_555 1_555
C39_4 C40_4 1_555 1_555
O6_6 H26_2 1_555 1_555
O5_6 Mg2_2 1_555 1_555
O5_6 H27_2 1_555 1_555
O5_6 H28_2 1_555 1_555
O6_3 H25_3 1_555 1_555
O6_4 H26_3 1_555 1_555
O5_4 H27_3 1_555 1_555
O5_4 H28_3 1_555 1_555
O6_5 H26_4 1_555 1_555
O5_5 H27_4 1_555 1_555
O5_5 H28_4 1_555 1_555
O6_6 H25_4 1_555 1_555
C5_5 C4_5 1_555 1_555
H3_5 C5_5 1_555 1_555
H4_5 C6_5 1_555 1_555
C7_5 C4_5 1_555 1_555
Mg1_2 O3_5 1_555 1_555
O3_5 C7_5 1_555 1_555
O4_5 C7_5 1_555 1_555
O5_7 Mg1_2 1_555 1_555
C25_5 C24_5 1_555 1_555
H15_5 C25_5 1_555 1_555
H16_5 C26_5 1_555 1_555
C27_5 C24_5 1_555 1_555
Mg3_2 O11_3 1_555 1_555
O11_3 C27_5 1_555 1_555
O12_3 Mg1_2 1_555 1_555
O13_5 C27_5 1_555 1_555
C5_5 C6_5 1_555 1_555
C25_5 C26_5 1_555 1_555
C1_5 C2_5 1_555 1_555
C2_5 H1_5 1_555 1_555
C3_5 C2_5 1_555 1_555
H2_5 C3_5 1_555 1_555
C8_5 C9_5 1_555 1_555
C9_5 H5_5 1_555 1_555
C10_5 C9_5 1_555 1_555
H6_5 C10_5 1_555 1_555
C11_5 C10_5 1_555 1_555
C12_5 C11_5 1_555 1_555
H7_5 C12_5 1_555 1_555
C13_5 C8_5 1_555 1_555
H8_5 C13_5 1_555 1_555
C14_5 C11_5 1_555 1_555
C15_5 C16_5 1_555 1_555
C16_5 H9_5 1_555 1_555
C17_5 C16_5 1_555 1_555
H10_5 C17_5 1_555 1_555
C18_5 C17_5 1_555 1_555
C19_5 C18_5 1_555 1_555
H11_5 C19_5 1_555 1_555
C20_5 C15_5 1_555 1_555
H12_5 C20_5 1_555 1_555
N1_5 C1_5 1_555 1_555
O1_3 C14_5 1_555 1_555
C21_5 C22_5 1_555 1_555
C22_5 H13_5 1_555 1_555
C23_5 C22_5 1_555 1_555
H14_5 C23_5 1_555 1_555
C28_5 C29_5 1_555 1_555
C29_5 H17_5 1_555 1_555
C30_5 C29_5 1_555 1_555
H18_5 C30_5 1_555 1_555
C31_5 C30_5 1_555 1_555
C32_5 C31_5 1_555 1_555
H19_5 C32_5 1_555 1_555
C33_5 C28_5 1_555 1_555
H20_5 C33_5 1_555 1_555
C34_5 C31_5 1_555 1_555
C35_5 C36_5 1_555 1_555
C36_5 H21_5 1_555 1_555
C37_5 C36_5 1_555 1_555
H22_5 C37_5 1_555 1_555
C38_5 C18_5 1_555 1_555
C39_5 C38_5 1_555 1_555
H23_5 C39_5 1_555 1_555
C40_5 C35_5 1_555 1_555
H24_5 C40_5 1_555 1_555
Mg4_3 O7_3 1_555 1_555
N2_5 C21_5 1_555 1_555
O7_3 C34_5 1_555 1_555
O10_5 C34_5 1_555 1_555
C8_5 N1_5 1_555 1_555
C12_5 C13_5 1_555 1_555
C15_5 N1_5 1_555 1_555
C19_5 C20_5 1_555 1_555
C28_5 N2_5 1_555 1_555
C32_5 C33_5 1_555 1_555
C35_5 N2_5 1_555 1_555
C37_5 C38_5 1_555 1_555
C39_5 C40_5 1_555 1_555
C5_6 C4_6 1_555 1_555
H3_6 C5_6 1_555 1_555
H4_6 C6_6 1_555 1_555
C7_6 C4_6 1_555 1_555
Mg3_2 O3_6 1_555 1_555
O3_6 C7_6 1_555 1_555
O4_6 C7_6 1_555 1_555
O5_8 Mg3_2 1_555 1_555
O6_8 Mg3_2 1_555 1_555
C25_6 C24_6 1_555 1_555
H15_6 C25_6 1_555 1_555
H16_6 C26_6 1_555 1_555
C27_6 C24_6 1_555 1_555
O8_4 Mg3_2 1_555 1_555
O9_4 Mg3_2 1_555 1_555
O12_3 C27_6 1_555 1_555
O13_6 C27_6 1_555 1_555
C5_6 C6_6 1_555 1_555
C25_6 C26_6 1_555 1_555
C1_6 C2_6 1_555 1_555
C2_6 H1_6 1_555 1_555
C3_6 C2_6 1_555 1_555
H2_6 C3_6 1_555 1_555
C8_6 C9_6 1_555 1_555
C9_6 H5_6 1_555 1_555
C10_6 C9_6 1_555 1_555
H6_6 C10_6 1_555 1_555
C11_6 C10_6 1_555 1_555
C12_6 C11_6 1_555 1_555
H7_6 C12_6 1_555 1_555
C13_6 C8_6 1_555 1_555
H8_6 C13_6 1_555 1_555
C14_6 C11_6 1_555 1_555
C15_6 C16_6 1_555 1_555
C16_6 H9_6 1_555 1_555
C17_6 C16_6 1_555 1_555
H10_6 C17_6 1_555 1_555
C18_6 C17_6 1_555 1_555
C19_6 C18_6 1_555 1_555
H11_6 C19_6 1_555 1_555
C20_6 C15_6 1_555 1_555
H12_6 C20_6 1_555 1_555
N1_6 C1_6 1_555 1_555
O1_4 C14_6 1_555 1_555
O2_6 C14_6 1_555 1_555
C21_6 C22_6 1_555 1_555
C22_6 H13_6 1_555 1_555
C23_6 C22_6 1_555 1_555
H14_6 C23_6 1_555 1_555
C28_6 C29_6 1_555 1_555
C29_6 H17_6 1_555 1_555
C30_6 C29_6 1_555 1_555
H18_6 C30_6 1_555 1_555
C31_6 C30_6 1_555 1_555
C32_6 C31_6 1_555 1_555
H19_6 C32_6 1_555 1_555
C33_6 C28_6 1_555 1_555
H20_6 C33_6 1_555 1_555
C34_6 C31_6 1_555 1_555
C35_6 C36_6 1_555 1_555
C36_6 H21_6 1_555 1_555
C37_6 C36_6 1_555 1_555
H22_6 C37_6 1_555 1_555
C38_6 C18_6 1_555 1_555
C39_6 C38_6 1_555 1_555
H23_6 C39_6 1_555 1_555
C40_6 C35_6 1_555 1_555
H24_6 C40_6 1_555 1_555
Mg4_4 O1_4 1_555 1_555
N2_6 C21_6 1_555 1_555
O7_4 C34_6 1_555 1_555
C8_6 N1_6 1_555 1_555
C12_6 C13_6 1_555 1_555
C15_6 N1_6 1_555 1_555
C19_6 C20_6 1_555 1_555
C28_6 N2_6 1_555 1_555
C32_6 C33_6 1_555 1_555
C35_6 N2_6 1_555 1_555
C37_6 C38_6 1_555 1_555
C39_6 C40_6 1_555 1_555
O5_9 Mg4_3 1_555 1_555
O6_9 Mg4_3 1_555 1_555
O12_4 Mg4_3 1_555 1_555
O6_9 H26_5 1_555 1_555
O5_9 H27_5 1_555 1_555
O5_9 H28_5 1_555 1_555
C1_7 C2_7 1_555 1_555
C2_7 H1_7 1_555 1_555
C3_7 C2_7 1_555 1_555
H2_7 C3_7 1_555 1_555
C4_7 C3_7 1_555 1_555
C5_7 C4_7 1_555 1_555
H3_7 C5_7 1_555 1_555
C6_7 C1_7 1_555 1_555
H4_7 C6_7 1_555 1_555
C7_7 C4_7 1_555 1_555
C8_7 C9_7 1_555 1_555
C9_7 H5_7 1_555 1_555
C10_7 C9_7 1_555 1_555
H6_7 C10_7 1_555 1_555
C11_7 C10_7 1_555 1_555
C12_7 C11_7 1_555 1_555
H7_7 C12_7 1_555 1_555
C13_7 C8_7 1_555 1_555
H8_7 C13_7 1_555 1_555
C14_7 C11_7 1_555 1_555
C15_7 C16_7 1_555 1_555
C16_7 H9_7 1_555 1_555
C17_7 C16_7 1_555 1_555
H10_7 C17_7 1_555 1_555
C18_7 C17_7 1_555 1_555
C19_7 C18_7 1_555 1_555
H11_7 C19_7 1_555 1_555
C20_7 C15_7 1_555 1_555
H12_7 C20_7 1_555 1_555
Mg4_4 O3_7 1_555 1_555
N1_7 C1_7 1_555 1_555
O8_4 C14_7 1_555 1_555
O2_7 C14_7 1_555 1_555
O3_7 C7_7 1_555 1_555
O4_7 C7_7 1_555 1_555
O5_10 Mg4_4 1_555 1_555
O6_10 Mg4_4 1_555 1_555
C21_7 C22_7 1_555 1_555
C22_7 H13_7 1_555 1_555
C23_7 C22_7 1_555 1_555
H14_7 C23_7 1_555 1_555
C24_7 C23_7 1_555 1_555
C25_7 C24_7 1_555 1_555
H15_7 C25_7 1_555 1_555
C26_7 C21_7 1_555 1_555
H16_7 C26_7 1_555 1_555
C27_7 C24_7 1_555 1_555
C28_7 C29_7 1_555 1_555
C29_7 H17_7 1_555 1_555
C30_7 C29_7 1_555 1_555
H18_7 C30_7 1_555 1_555
C31_7 C30_7 1_555 1_555
C32_7 C31_7 1_555 1_555
H19_7 C32_7 1_555 1_555
C33_7 C28_7 1_555 1_555
H20_7 C33_7 1_555 1_555
C34_7 C31_7 1_555 1_555
C35_7 C36_7 1_555 1_555
C36_7 H21_7 1_555 1_555
C37_7 C36_7 1_555 1_555
H22_7 C37_7 1_555 1_555
C38_7 C18_7 1_555 1_555
C39_7 C38_7 1_555 1_555
H23_7 C39_7 1_555 1_555
C40_7 C35_7 1_555 1_555
H24_7 C40_7 1_555 1_555
Mg2_4 O11_4 1_555 1_555
N2_7 C21_7 1_555 1_555
O9_3 C34_7 1_555 1_555
O11_4 C27_7 1_555 1_555
O13_7 C27_7 1_555 1_555
C5_7 C6_7 1_555 1_555
C8_7 N1_7 1_555 1_555
C12_7 C13_7 1_555 1_555
C15_7 N1_7 1_555 1_555
C19_7 C20_7 1_555 1_555
C25_7 C26_7 1_555 1_555
C28_7 N2_7 1_555 1_555
C32_7 C33_7 1_555 1_555
C35_7 N2_7 1_555 1_555
C37_7 C38_7 1_555 1_555
C39_7 C40_7 1_555 1_555
O6_10 H25_5 1_555 1_555
C1_8 C2_8 1_555 1_555
C2_8 H1_8 1_555 1_555
C3_8 C2_8 1_555 1_555
H2_8 C3_8 1_555 1_555
C4_8 C3_8 1_555 1_555
C5_8 C4_8 1_555 1_555
H3_8 C5_8 1_555 1_555
C6_8 C1_8 1_555 1_555
H4_8 C6_8 1_555 1_555
C7_8 C4_8 1_555 1_555
C8_8 C9_8 1_555 1_555
C9_8 H5_8 1_555 1_555
C10_8 C9_8 1_555 1_555
H6_8 C10_8 1_555 1_555
C11_8 C10_8 1_555 1_555
C12_8 C11_8 1_555 1_555
H7_8 C12_8 1_555 1_555
C13_8 C8_8 1_555 1_555
H8_8 C13_8 1_555 1_555
C14_8 C11_8 1_555 1_555
C15_8 C16_8 1_555 1_555
C16_8 H9_8 1_555 1_555
C17_8 C16_8 1_555 1_555
H10_8 C17_8 1_555 1_555
C18_8 C17_8 1_555 1_555
C19_8 C18_8 1_555 1_555
H11_8 C19_8 1_555 1_555
C20_8 C15_8 1_555 1_555
H12_8 C20_8 1_555 1_555
Mg2_3 O3_8 1_555 1_555
N1_8 C1_8 1_555 1_555
O8_3 C14_8 1_555 1_555
O3_8 C7_8 1_555 1_555
O4_8 C7_8 1_555 1_555
O5_11 Mg2_3 1_555 1_555
C21_8 C22_8 1_555 1_555
C22_8 H13_8 1_555 1_555
C23_8 C22_8 1_555 1_555
H14_8 C23_8 1_555 1_555
C24_8 C23_8 1_555 1_555
C25_8 C24_8 1_555 1_555
H15_8 C25_8 1_555 1_555
C26_8 C21_8 1_555 1_555
H16_8 C26_8 1_555 1_555
C27_8 C24_8 1_555 1_555
C28_8 C29_8 1_555 1_555
C29_8 H17_8 1_555 1_555
C30_8 C29_8 1_555 1_555
H18_8 C30_8 1_555 1_555
C31_8 C30_8 1_555 1_555
C32_8 C31_8 1_555 1_555
H19_8 C32_8 1_555 1_555
C33_8 C28_8 1_555 1_555
H20_8 C33_8 1_555 1_555
C34_8 C31_8 1_555 1_555
C35_8 C36_8 1_555 1_555
C36_8 H21_8 1_555 1_555
C37_8 C36_8 1_555 1_555
H22_8 C37_8 1_555 1_555
C38_8 C18_8 1_555 1_555
C39_8 C38_8 1_555 1_555
H23_8 C39_8 1_555 1_555
C40_8 C35_8 1_555 1_555
H24_8 C40_8 1_555 1_555
N2_8 C21_8 1_555 1_555
O9_4 C34_8 1_555 1_555
O10_8 C34_8 1_555 1_555
O12_4 C27_8 1_555 1_555
O13_8 C27_8 1_555 1_555
C5_8 C6_8 1_555 1_555
C8_8 N1_8 1_555 1_555
C12_8 C13_8 1_555 1_555
C15_8 N1_8 1_555 1_555
C19_8 C20_8 1_555 1_555
C25_8 C26_8 1_555 1_555
C28_8 N2_8 1_555 1_555
C32_8 C33_8 1_555 1_555
C35_8 N2_8 1_555 1_555
C37_8 C38_8 1_555 1_555
C39_8 C40_8 1_555 1_555
O6_11 H25_6 1_555 1_555
O5_12 Mg2_4 1_555 1_555
O5_12 H27_6 1_555 1_555
O5_12 H28_6 1_555 1_555
O6_12 H26_6 1_555 1_555
O6_9 H25_7 1_555 1_555
O6_10 H26_7 1_555 1_555
O5_10 H27_7 1_555 1_555
O5_10 H28_7 1_555 1_555
O5_11 H27_8 1_555 1_555
O5_11 H28_8 1_555 1_555
O6_11 H26_8 1_555 1_555
O6_12 H25_8 1_555 1_555

#END
