
###############################################################################
#
# This file contains modified crystal structure data generated from the
# MOF subset of the Cambridge Structural Database (CSD) v543 
# hosted by the Cambridge Crystallographic Data Centre (CCDC).
#
# This work is licensed under the Creative Commons
# Attribution-NonCommercial-ShareAlike 4.0 International License.
# To view a copy of this license, visit
# http://creativecommons.org/licenses/by-nc-sa/4.0/
# or send a letter to
# Creative Commons, PO Box 1866, Mountain View, CA 94042, USA.
#
# CIF created using the CSD Python API on 29 September 2022
# The structure has been converted into the P1 space group
# The structure has a 3D framework
# The original CSD entry MUDTAH is in the cubic crystal system
# The framework has been calculated to contain at least 10.0% void space
# The void calculation uses a probe of radius 1.32A, grid spacing 0.4
# H atom positions have been added when not included in the experimental data
# Generated hydrogen atom positions removed from atoms on special positions
#
###############################################################################

data_MUDTAH
_chemical_formula_moiety         '(C1152 H1344 O528 Zn144)n'
_symmetry_cell_setting           triclinic
_symmetry_space_group_name_H-M   'P 1'
_symmetry_Int_Tables_number      1
_space_group_name_Hall           'P 1'
loop_
_symmetry_equiv_pos_site_id
_symmetry_equiv_pos_as_xyz
1 x,y,z
_cell_length_a                   42.854(5)
_cell_length_b                   42.854(5)
_cell_length_c                   42.854(5)
_cell_angle_alpha                90
_cell_angle_beta                 90
_cell_angle_gamma                90
_cell_volume                     78699.9
loop_
_atom_site_label
_atom_site_type_symbol
_atom_site_fract_x
_atom_site_fract_y
_atom_site_fract_z
Zn1 Zn 0.0000 0.871098(8) 0.371098(8)
Zn2 Zn 0.0000 0.821355(8) 0.321355(8)
O1 O 0.0000 0.90408(8) 0.40408(8)
O2 O 0.0000 0.78863(7) 0.28863(7)
O3 O 0.03258(6) 0.84197(6) 0.38774(7)
O4 O 0.03265(6) 0.80531(7) 0.35079(6)
C1 C 0.04216(8) 0.81728(9) 0.37565(9)
C2 C 0.06824(9) 0.80116(9) 0.39227(9)
C3 C 0.08249(8) 0.81536(12) 0.41751(8)
H1 H 0.0750 0.8348 0.4250
C4 C 0.07824(10) 0.77210(11) 0.38198(11)
H2 H 0.0677 0.7618 0.3655
C5 C 0.10382(13) 0.75846(16) 0.39618(13)
C6 C 0.1137(2) 0.7279(2) 0.3863(2)
C7 C 0.1218(2) 0.7023(3) 0.3782(2)
C8 C 0.1358(2) 0.6754(2) 0.3642(2)
C9 C 0.1232(2) 0.6620(2) 0.3380(2)
H3 H 0.1052 0.6711 0.3289
Zn3 Zn 0.128902(8) 0.871098(8) 0.5000
Zn4 Zn 0.128902(8) 0.5000 0.128902(8)
Zn5 Zn 0.0000 0.628902(8) 0.128902(8)
Zn6 Zn 0.371098(8) 0.628902(8) 0.5000
Zn7 Zn 0.371098(8) 0.5000 0.371098(8)
Zn8 Zn 0.178645(8) 0.821355(8) 0.5000
Zn9 Zn 0.178645(8) 0.5000 0.178645(8)
Zn10 Zn -0.0000 0.678645(8) 0.178645(8)
Zn11 Zn 0.321355(8) 0.678645(8) 0.5000
Zn12 Zn 0.321355(8) 0.5000 0.321355(8)
O5 O 0.09592(8) 0.90408(8) 0.5000
O8 O 0.03258(6) 0.88774(7) 0.34197(6)
O9 O 0.11226(7) 0.84197(6) 0.46742(6)
O10 O 0.11226(7) 0.53258(6) 0.15803(6)
O11 O 0.03258(6) 0.61226(7) 0.15803(6)
O12 O 0.34197(6) 0.61226(7) 0.46742(6)
O13 O 0.34197(6) 0.53258(6) 0.38774(7)
O14 O 0.15803(6) 0.88774(7) 0.46742(6)
O15 O 0.11226(7) 0.84197(6) 0.53258(6)
O16 O 0.15803(6) 0.88774(7) 0.53258(6)
O19 O 0.03265(6) 0.85079(6) 0.30531(7)
O20 O 0.14921(6) 0.80531(7) 0.46735(6)
O21 O 0.14921(6) 0.53265(6) 0.19469(7)
O22 O 0.03265(6) 0.64921(6) 0.19469(7)
O23 O 0.30531(7) 0.64921(6) 0.46735(6)
O24 O 0.30531(7) 0.53265(6) 0.35079(6)
C10 C 0.12435(9) 0.81728(9) 0.45784(8)
C11 C 0.12435(9) 0.54216(8) 0.18272(9)
C12 C 0.04216(8) 0.62435(9) 0.18272(9)
C13 C 0.31728(9) 0.62435(9) 0.45784(8)
C14 C 0.31728(9) 0.54216(8) 0.37565(9)
C15 C 0.10773(9) 0.80116(9) 0.43176(9)
C16 C 0.10773(9) 0.56824(9) 0.19884(9)
C17 C 0.06824(9) 0.60773(9) 0.19884(9)
C18 C 0.30116(9) 0.60773(9) 0.43176(9)
C19 C 0.30116(9) 0.56824(9) 0.39227(9)
C20 C 0.08249(8) 0.58249(8) 0.18464(12)
C21 C 0.31536(12) 0.58249(8) 0.41751(8)
H4 H 0.0750 0.5750 0.1652
H5 H 0.3348 0.5750 0.4250
C22 C 0.11802(11) 0.77210(11) 0.42176(10)
C23 C 0.11802(11) 0.57824(10) 0.22790(11)
C24 C 0.07824(10) 0.61802(11) 0.22790(11)
C25 C 0.27210(11) 0.61802(11) 0.42176(10)
C26 C 0.27210(11) 0.57824(10) 0.38198(11)
H6 H 0.1345 0.7618 0.4323
H7 H 0.1345 0.5677 0.2382
H8 H 0.0677 0.6345 0.2382
H9 H 0.2618 0.6345 0.4323
H10 H 0.2618 0.5677 0.3655
C27 C 0.10382(13) 0.60382(13) 0.24154(16)
C28 C 0.25846(16) 0.60382(13) 0.39618(13)
C29 C 0.1137(2) 0.6137(2) 0.2721(2)
C30 C 0.2279(2) 0.6137(2) 0.3863(2)
C31 C 0.1218(2) 0.6218(2) 0.2977(3)
C32 C 0.2023(3) 0.6218(2) 0.3782(2)
C33 C 0.1358(2) 0.6358(2) 0.3246(2)
C34 C 0.1754(2) 0.6358(2) 0.3642(2)
C35 C 0.1620(2) 0.6620(2) 0.3768(2)
C36 C 0.1620(2) 0.6232(2) 0.3380(2)
H11 H 0.1711 0.6711 0.3948
H12 H 0.1711 0.6052 0.3289
Zn1_2 Zn 1.0000 0.871098(8) 0.371098(8)
Zn2_2 Zn 1.0000 0.821355(8) 0.321355(8)
O1_2 O 1.0000 0.90408(8) 0.40408(8)
O2_2 O 1.0000 0.78863(7) 0.28863(7)
Zn5_2 Zn 1.0000 0.628902(8) 0.128902(8)
Zn10_2 Zn 1.0000 0.678645(8) 0.178645(8)
O6 O 0.96742(6) 0.88774(7) 0.34197(6)
O7 O 0.96742(6) 0.84197(6) 0.38774(7)
O17 O 0.96735(6) 0.85079(6) 0.30531(7)
O18 O 0.96735(6) 0.80531(7) 0.35079(6)
Zn1_3 Zn 0.0000 0.128902(8) 0.371098(8)
Zn2_3 Zn -0.0000 0.178645(8) 0.321355(8)
O1_3 O -0.0000 0.09592(8) 0.40408(8)
O2_3 O 0.0000 0.21137(7) 0.28863(7)
Zn5_3 Zn -0.0000 0.371098(8) 0.128902(8)
Zn10_3 Zn 0.0000 0.321355(8) 0.178645(8)
O6_2 O 0.03258(6) 0.11226(7) 0.34197(6)
O7_2 O 0.03258(6) 0.15803(6) 0.38774(7)
O17_2 O 0.03265(6) 0.14921(6) 0.30531(7)
O18_2 O 0.03265(6) 0.19469(7) 0.35079(6)
Zn1_4 Zn 1.0000 0.128902(8) 0.371098(8)
Zn2_4 Zn 1.0000 0.178645(8) 0.321355(8)
O1_4 O 1.0000 0.09592(8) 0.40408(8)
O2_4 O 1.0000 0.21137(7) 0.28863(7)
O3_2 O 0.96742(6) 0.15803(6) 0.38774(7)
O4_2 O 0.96735(6) 0.19469(7) 0.35079(6)
C1_2 C 0.95784(8) 0.18272(9) 0.37565(9)
C2_2 C 0.93176(9) 0.19884(9) 0.39227(9)
C3_2 C 0.91751(8) 0.18464(12) 0.41751(8)
H1_2 H 0.9250 0.1652 0.4250
C4_2 C 0.92176(10) 0.22790(11) 0.38198(11)
H2_2 H 0.9323 0.2382 0.3655
C5_2 C 0.89618(13) 0.24154(16) 0.39618(13)
C6_2 C 0.8863(2) 0.2721(2) 0.3863(2)
C7_2 C 0.8782(2) 0.2977(3) 0.3782(2)
C8_2 C 0.8642(2) 0.3246(2) 0.3642(2)
C9_2 C 0.8768(2) 0.3380(2) 0.3380(2)
H3_2 H 0.8948 0.3289 0.3289
Zn3_2 Zn 0.871098(8) 0.128902(8) 0.5000
Zn4_2 Zn 0.871098(8) 0.5000 0.128902(8)
Zn5_4 Zn 1.0000 0.371098(8) 0.128902(8)
Zn6_2 Zn 0.628902(8) 0.371098(8) 0.5000
Zn7_2 Zn 0.628902(8) 0.5000 0.371098(8)
Zn8_2 Zn 0.821355(8) 0.178645(8) 0.5000
Zn9_2 Zn 0.821355(8) 0.5000 0.178645(8)
Zn10_4 Zn 1.0000 0.321355(8) 0.178645(8)
Zn11_2 Zn 0.678645(8) 0.321355(8) 0.5000
Zn12_2 Zn 0.678645(8) 0.5000 0.321355(8)
O5_2 O 0.90408(8) 0.09592(8) 0.5000
O8_2 O 0.96742(6) 0.11226(7) 0.34197(6)
O9_2 O 0.88774(7) 0.15803(6) 0.46742(6)
O10_2 O 0.88774(7) 0.46742(6) 0.15803(6)
O11_2 O 0.96742(6) 0.38774(7) 0.15803(6)
O12_2 O 0.65803(6) 0.38774(7) 0.46742(6)
O13_2 O 0.65803(6) 0.46742(6) 0.38774(7)
O14_2 O 0.84197(6) 0.11226(7) 0.46742(6)
O15_2 O 0.88774(7) 0.15803(6) 0.53258(6)
O16_2 O 0.84197(6) 0.11226(7) 0.53258(6)
O19_2 O 0.96735(6) 0.14921(6) 0.30531(7)
O20_2 O 0.85079(6) 0.19469(7) 0.46735(6)
O21_2 O 0.85079(6) 0.46735(6) 0.19469(7)
O22_2 O 0.96735(6) 0.35079(6) 0.19469(7)
O23_2 O 0.69469(7) 0.35079(6) 0.46735(6)
O24_2 O 0.69469(7) 0.46735(6) 0.35079(6)
C10_2 C 0.87565(9) 0.18272(9) 0.45784(8)
C11_2 C 0.87565(9) 0.45784(8) 0.18272(9)
C12_2 C 0.95784(8) 0.37565(9) 0.18272(9)
C13_2 C 0.68272(9) 0.37565(9) 0.45784(8)
C14_2 C 0.68272(9) 0.45784(8) 0.37565(9)
C15_2 C 0.89227(9) 0.19884(9) 0.43176(9)
C16_2 C 0.89227(9) 0.43176(9) 0.19884(9)
C17_2 C 0.93176(9) 0.39227(9) 0.19884(9)
C18_2 C 0.69884(9) 0.39227(9) 0.43176(9)
C19_2 C 0.69884(9) 0.43176(9) 0.39227(9)
C20_2 C 0.91751(8) 0.41751(8) 0.18464(12)
C21_2 C 0.68464(12) 0.41751(8) 0.41751(8)
H4_2 H 0.9250 0.4250 0.1652
H5_2 H 0.6652 0.4250 0.4250
C22_2 C 0.88198(11) 0.22790(11) 0.42176(10)
C23_2 C 0.88198(11) 0.42176(10) 0.22790(11)
C24_2 C 0.92176(10) 0.38198(11) 0.22790(11)
C25_2 C 0.72790(11) 0.38198(11) 0.42176(10)
C26_2 C 0.72790(11) 0.42176(10) 0.38198(11)
H6_2 H 0.8655 0.2382 0.4323
H7_2 H 0.8655 0.4323 0.2382
H8_2 H 0.9323 0.3655 0.2382
H9_2 H 0.7382 0.3655 0.4323
H10_2 H 0.7382 0.4323 0.3655
C27_2 C 0.89618(13) 0.39618(13) 0.24154(16)
C28_2 C 0.74154(16) 0.39618(13) 0.39618(13)
C29_2 C 0.8863(2) 0.3863(2) 0.2721(2)
C30_2 C 0.7721(2) 0.3863(2) 0.3863(2)
C31_2 C 0.8782(2) 0.3782(2) 0.2977(3)
C32_2 C 0.7977(3) 0.3782(2) 0.3782(2)
C33_2 C 0.8642(2) 0.3642(2) 0.3246(2)
C34_2 C 0.8246(2) 0.3642(2) 0.3642(2)
C35_2 C 0.8380(2) 0.3380(2) 0.3768(2)
C36_2 C 0.8380(2) 0.3768(2) 0.3380(2)
H11_2 H 0.8289 0.3289 0.3948
H12_2 H 0.8289 0.3948 0.3289
Zn1_5 Zn 0.0000 0.871098(8) 0.628902(8)
Zn2_5 Zn -0.0000 0.821355(8) 0.678645(8)
O1_5 O -0.0000 0.90408(8) 0.59592(8)
O2_5 O -0.0000 0.78863(7) 0.71137(7)
Zn5_5 Zn -0.0000 0.628902(8) 0.871098(8)
Zn10_5 Zn 0.0000 0.678645(8) 0.821355(8)
O6_3 O 0.03258(6) 0.88774(7) 0.65803(6)
O7_3 O 0.03258(6) 0.84197(6) 0.61226(7)
O17_3 O 0.03265(6) 0.85079(6) 0.69469(7)
O18_3 O 0.03265(6) 0.80531(7) 0.64921(6)
Zn1_6 Zn 1.0000 0.871098(8) 0.628902(8)
Zn2_6 Zn 1.0000 0.821355(8) 0.678645(8)
O1_6 O 1.0000 0.90408(8) 0.59592(8)
O2_6 O 1.0000 0.78863(7) 0.71137(7)
O3_3 O 0.96742(6) 0.84197(6) 0.61226(7)
O4_3 O 0.96735(6) 0.80531(7) 0.64921(6)
C1_3 C 0.95784(8) 0.81728(9) 0.62435(9)
C2_3 C 0.93176(9) 0.80116(9) 0.60773(9)
C3_3 C 0.91751(8) 0.81536(12) 0.58249(8)
H1_3 H 0.9250 0.8348 0.5750
C4_3 C 0.92176(10) 0.77210(11) 0.61802(11)
H2_3 H 0.9323 0.7618 0.6345
C5_3 C 0.89618(13) 0.75846(16) 0.60382(13)
C6_3 C 0.8863(2) 0.7279(2) 0.6137(2)
C7_3 C 0.8782(2) 0.7023(3) 0.6218(2)
C8_3 C 0.8642(2) 0.6754(2) 0.6358(2)
C9_3 C 0.8768(2) 0.6620(2) 0.6620(2)
H3_3 H 0.8948 0.6711 0.6711
Zn3_3 Zn 0.871098(8) 0.871098(8) 0.5000
Zn4_3 Zn 0.871098(8) 0.5000 0.871098(8)
Zn5_6 Zn 1.0000 0.628902(8) 0.871098(8)
Zn6_3 Zn 0.628902(8) 0.628902(8) 0.5000
Zn7_3 Zn 0.628902(8) 0.5000 0.628902(8)
Zn8_3 Zn 0.821355(8) 0.821355(8) 0.5000
Zn9_3 Zn 0.821355(8) 0.5000 0.821355(8)
Zn10_6 Zn 1.0000 0.678645(8) 0.821355(8)
Zn11_3 Zn 0.678645(8) 0.678645(8) 0.5000
Zn12_3 Zn 0.678645(8) 0.5000 0.678645(8)
O5_3 O 0.90408(8) 0.90408(8) 0.5000
O8_3 O 0.96742(6) 0.88774(7) 0.65803(6)
O9_3 O 0.88774(7) 0.84197(6) 0.53258(6)
O10_3 O 0.88774(7) 0.53258(6) 0.84197(6)
O11_3 O 0.96742(6) 0.61226(7) 0.84197(6)
O12_3 O 0.65803(6) 0.61226(7) 0.53258(6)
O13_3 O 0.65803(6) 0.53258(6) 0.61226(7)
O14_3 O 0.84197(6) 0.88774(7) 0.53258(6)
O15_3 O 0.88774(7) 0.84197(6) 0.46742(6)
O16_3 O 0.84197(6) 0.88774(7) 0.46742(6)
O19_3 O 0.96735(6) 0.85079(6) 0.69469(7)
O20_3 O 0.85079(6) 0.80531(7) 0.53265(6)
O21_3 O 0.85079(6) 0.53265(6) 0.80531(7)
O22_3 O 0.96735(6) 0.64921(6) 0.80531(7)
O23_3 O 0.69469(7) 0.64921(6) 0.53265(6)
O24_3 O 0.69469(7) 0.53265(6) 0.64921(6)
C10_3 C 0.87565(9) 0.81728(9) 0.54216(8)
C11_3 C 0.87565(9) 0.54216(8) 0.81728(9)
C12_3 C 0.95784(8) 0.62435(9) 0.81728(9)
C13_3 C 0.68272(9) 0.62435(9) 0.54216(8)
C14_3 C 0.68272(9) 0.54216(8) 0.62435(9)
C15_3 C 0.89227(9) 0.80116(9) 0.56824(9)
C16_3 C 0.89227(9) 0.56824(9) 0.80116(9)
C17_3 C 0.93176(9) 0.60773(9) 0.80116(9)
C18_3 C 0.69884(9) 0.60773(9) 0.56824(9)
C19_3 C 0.69884(9) 0.56824(9) 0.60773(9)
C20_3 C 0.91751(8) 0.58249(8) 0.81536(12)
C21_3 C 0.68464(12) 0.58249(8) 0.58249(8)
H4_3 H 0.9250 0.5750 0.8348
H5_3 H 0.6652 0.5750 0.5750
C22_3 C 0.88198(11) 0.77210(11) 0.57824(10)
C23_3 C 0.88198(11) 0.57824(10) 0.77210(11)
C24_3 C 0.92176(10) 0.61802(11) 0.77210(11)
C25_3 C 0.72790(11) 0.61802(11) 0.57824(10)
C26_3 C 0.72790(11) 0.57824(10) 0.61802(11)
H6_3 H 0.8655 0.7618 0.5677
H7_3 H 0.8655 0.5677 0.7618
H8_3 H 0.9323 0.6345 0.7618
H9_3 H 0.7382 0.6345 0.5677
H10_3 H 0.7382 0.5677 0.6345
C27_3 C 0.89618(13) 0.60382(13) 0.75846(16)
C28_3 C 0.74154(16) 0.60382(13) 0.60382(13)
C29_3 C 0.8863(2) 0.6137(2) 0.7279(2)
C30_3 C 0.7721(2) 0.6137(2) 0.6137(2)
C31_3 C 0.8782(2) 0.6218(2) 0.7023(3)
C32_3 C 0.7977(3) 0.6218(2) 0.6218(2)
C33_3 C 0.8642(2) 0.6358(2) 0.6754(2)
C34_3 C 0.8246(2) 0.6358(2) 0.6358(2)
C35_3 C 0.8380(2) 0.6620(2) 0.6232(2)
C36_3 C 0.8380(2) 0.6232(2) 0.6620(2)
H11_3 H 0.8289 0.6711 0.6052
H12_3 H 0.8289 0.6052 0.6711
Zn1_7 Zn -0.0000 0.128902(8) 0.628902(8)
Zn2_7 Zn 0.0000 0.178645(8) 0.678645(8)
O1_7 O 0.0000 0.09592(8) 0.59592(8)
O2_7 O 0.0000 0.21137(7) 0.71137(7)
O3_4 O 0.03258(6) 0.15803(6) 0.61226(7)
O4_4 O 0.03265(6) 0.19469(7) 0.64921(6)
C1_4 C 0.04216(8) 0.18272(9) 0.62435(9)
C2_4 C 0.06824(9) 0.19884(9) 0.60773(9)
C3_4 C 0.08249(8) 0.18464(12) 0.58249(8)
H1_4 H 0.0750 0.1652 0.5750
C4_4 C 0.07824(10) 0.22790(11) 0.61802(11)
H2_4 H 0.0677 0.2382 0.6345
C5_4 C 0.10382(13) 0.24154(16) 0.60382(13)
C6_4 C 0.1137(2) 0.2721(2) 0.6137(2)
C7_4 C 0.1218(2) 0.2977(3) 0.6218(2)
C8_4 C 0.1358(2) 0.3246(2) 0.6358(2)
C9_4 C 0.1232(2) 0.3380(2) 0.6620(2)
H3_4 H 0.1052 0.3289 0.6711
Zn3_4 Zn 0.128902(8) 0.128902(8) 0.5000
Zn4_4 Zn 0.128902(8) 0.5000 0.871098(8)
Zn5_7 Zn 0.0000 0.371098(8) 0.871098(8)
Zn6_4 Zn 0.371098(8) 0.371098(8) 0.5000
Zn7_4 Zn 0.371098(8) 0.5000 0.628902(8)
Zn8_4 Zn 0.178645(8) 0.178645(8) 0.5000
Zn9_4 Zn 0.178645(8) 0.5000 0.821355(8)
Zn10_7 Zn -0.0000 0.321355(8) 0.821355(8)
Zn11_4 Zn 0.321355(8) 0.321355(8) 0.5000
Zn12_4 Zn 0.321355(8) 0.5000 0.678645(8)
O5_4 O 0.09592(8) 0.09592(8) 0.5000
O8_4 O 0.03258(6) 0.11226(7) 0.65803(6)
O9_4 O 0.11226(7) 0.15803(6) 0.53258(6)
O10_4 O 0.11226(7) 0.46742(6) 0.84197(6)
O11_4 O 0.03258(6) 0.38774(7) 0.84197(6)
O12_4 O 0.34197(6) 0.38774(7) 0.53258(6)
O13_4 O 0.34197(6) 0.46742(6) 0.61226(7)
O14_4 O 0.15803(6) 0.11226(7) 0.53258(6)
O15_4 O 0.11226(7) 0.15803(6) 0.46742(6)
O16_4 O 0.15803(6) 0.11226(7) 0.46742(6)
O19_4 O 0.03265(6) 0.14921(6) 0.69469(7)
O20_4 O 0.14921(6) 0.19469(7) 0.53265(6)
O21_4 O 0.14921(6) 0.46735(6) 0.80531(7)
O22_4 O 0.03265(6) 0.35079(6) 0.80531(7)
O23_4 O 0.30531(7) 0.35079(6) 0.53265(6)
O24_4 O 0.30531(7) 0.46735(6) 0.64921(6)
C10_4 C 0.12435(9) 0.18272(9) 0.54216(8)
C11_4 C 0.12435(9) 0.45784(8) 0.81728(9)
C12_4 C 0.04216(8) 0.37565(9) 0.81728(9)
C13_4 C 0.31728(9) 0.37565(9) 0.54216(8)
C14_4 C 0.31728(9) 0.45784(8) 0.62435(9)
C15_4 C 0.10773(9) 0.19884(9) 0.56824(9)
C16_4 C 0.10773(9) 0.43176(9) 0.80116(9)
C17_4 C 0.06824(9) 0.39227(9) 0.80116(9)
C18_4 C 0.30116(9) 0.39227(9) 0.56824(9)
C19_4 C 0.30116(9) 0.43176(9) 0.60773(9)
C20_4 C 0.08249(8) 0.41751(8) 0.81536(12)
C21_4 C 0.31536(12) 0.41751(8) 0.58249(8)
H4_4 H 0.0750 0.4250 0.8348
H5_4 H 0.3348 0.4250 0.5750
C22_4 C 0.11802(11) 0.22790(11) 0.57824(10)
C23_4 C 0.11802(11) 0.42176(10) 0.77210(11)
C24_4 C 0.07824(10) 0.38198(11) 0.77210(11)
C25_4 C 0.27210(11) 0.38198(11) 0.57824(10)
C26_4 C 0.27210(11) 0.42176(10) 0.61802(11)
H6_4 H 0.1345 0.2382 0.5677
H7_4 H 0.1345 0.4323 0.7618
H8_4 H 0.0677 0.3655 0.7618
H9_4 H 0.2618 0.3655 0.5677
H10_4 H 0.2618 0.4323 0.6345
C27_4 C 0.10382(13) 0.39618(13) 0.75846(16)
C28_4 C 0.25846(16) 0.39618(13) 0.60382(13)
C29_4 C 0.1137(2) 0.3863(2) 0.7279(2)
C30_4 C 0.2279(2) 0.3863(2) 0.6137(2)
C31_4 C 0.1218(2) 0.3782(2) 0.7023(3)
C32_4 C 0.2023(3) 0.3782(2) 0.6218(2)
C33_4 C 0.1358(2) 0.3642(2) 0.6754(2)
C34_4 C 0.1754(2) 0.3642(2) 0.6358(2)
C35_4 C 0.1620(2) 0.3380(2) 0.6232(2)
C36_4 C 0.1620(2) 0.3768(2) 0.6620(2)
H11_4 H 0.1711 0.3289 0.6052
H12_4 H 0.1711 0.3948 0.6711
Zn1_8 Zn 1.0000 0.128902(8) 0.628902(8)
Zn2_8 Zn 1.0000 0.178645(8) 0.678645(8)
O1_8 O 1.0000 0.09592(8) 0.59592(8)
O2_8 O 1.0000 0.21137(7) 0.71137(7)
Zn5_8 Zn 1.0000 0.371098(8) 0.871098(8)
Zn10_8 Zn 1.0000 0.321355(8) 0.821355(8)
O6_4 O 0.96742(6) 0.11226(7) 0.65803(6)
O7_4 O 0.96742(6) 0.15803(6) 0.61226(7)
O17_4 O 0.96735(6) 0.14921(6) 0.69469(7)
O18_4 O 0.96735(6) 0.19469(7) 0.64921(6)
Zn1_9 Zn 0.371098(8) 0.0000 0.871098(8)
Zn2_9 Zn 0.321355(8) 0.0000 0.821355(8)
O1_9 O 0.40408(8) 0.0000 0.90408(8)
O2_9 O 0.28863(7) -0.0000 0.78863(7)
O3_5 O 0.38774(7) 0.03258(6) 0.84197(6)
O4_5 O 0.35079(6) 0.03265(6) 0.80531(7)
C1_5 C 0.37565(9) 0.04216(8) 0.81728(9)
C2_5 C 0.39227(9) 0.06824(9) 0.80116(9)
C3_5 C 0.41751(8) 0.08249(8) 0.81536(12)
H1_5 H 0.4250 0.0750 0.8348
C4_5 C 0.38198(11) 0.07824(10) 0.77210(11)
H2_5 H 0.3655 0.0677 0.7618
C5_5 C 0.39618(13) 0.10382(13) 0.75846(16)
C6_5 C 0.3863(2) 0.1137(2) 0.7279(2)
C7_5 C 0.3782(2) 0.1218(2) 0.7023(3)
C8_5 C 0.3642(2) 0.1358(2) 0.6754(2)
C9_5 C 0.3380(2) 0.1232(2) 0.6620(2)
H3_5 H 0.3289 0.1052 0.6711
Zn3_5 Zn 0.5000 0.128902(8) 0.871098(8)
Zn5_9 Zn 0.128902(8) 0.0000 0.628902(8)
Zn6_5 Zn 0.5000 0.371098(8) 0.628902(8)
Zn8_5 Zn 0.5000 0.178645(8) 0.821355(8)
Zn10_9 Zn 0.178645(8) -0.0000 0.678645(8)
Zn11_5 Zn 0.5000 0.321355(8) 0.678645(8)
O5_5 O 0.5000 0.09592(8) 0.90408(8)
O8_5 O 0.34197(6) 0.03258(6) 0.88774(7)
O9_5 O 0.46742(6) 0.11226(7) 0.84197(6)
O11_5 O 0.15803(6) 0.03258(6) 0.61226(7)
O12_5 O 0.46742(6) 0.34197(6) 0.61226(7)
O13_5 O 0.38774(7) 0.34197(6) 0.53258(6)
O14_5 O 0.46742(6) 0.15803(6) 0.88774(7)
O15_5 O 0.53258(6) 0.11226(7) 0.84197(6)
O16_5 O 0.53258(6) 0.15803(6) 0.88774(7)
O19_5 O 0.30531(7) 0.03265(6) 0.85079(6)
O20_5 O 0.46735(6) 0.14921(6) 0.80531(7)
O21_5 O 0.19469(7) 0.14921(6) 0.53265(6)
O22_5 O 0.19469(7) 0.03265(6) 0.64921(6)
O23_5 O 0.46735(6) 0.30531(7) 0.64921(6)
O24_5 O 0.35079(6) 0.30531(7) 0.53265(6)
C10_5 C 0.45784(8) 0.12435(9) 0.81728(9)
C11_5 C 0.18272(9) 0.12435(9) 0.54216(8)
C12_5 C 0.18272(9) 0.04216(8) 0.62435(9)
C13_5 C 0.45784(8) 0.31728(9) 0.62435(9)
C14_5 C 0.37565(9) 0.31728(9) 0.54216(8)
C15_5 C 0.43176(9) 0.10773(9) 0.80116(9)
C16_5 C 0.19884(9) 0.10773(9) 0.56824(9)
C17_5 C 0.19884(9) 0.06824(9) 0.60773(9)
C18_5 C 0.43176(9) 0.30116(9) 0.60773(9)
C19_5 C 0.39227(9) 0.30116(9) 0.56824(9)
C20_5 C 0.18464(12) 0.08249(8) 0.58249(8)
C21_5 C 0.41751(8) 0.31536(12) 0.58249(8)
H4_5 H 0.1652 0.0750 0.5750
H5_5 H 0.4250 0.3348 0.5750
C22_5 C 0.42176(10) 0.11802(11) 0.77210(11)
C23_5 C 0.22790(11) 0.11802(11) 0.57824(10)
C24_5 C 0.22790(11) 0.07824(10) 0.61802(11)
C25_5 C 0.42176(10) 0.27210(11) 0.61802(11)
C26_5 C 0.38198(11) 0.27210(11) 0.57824(10)
H6_5 H 0.4323 0.1345 0.7618
H7_5 H 0.2382 0.1345 0.5677
H8_5 H 0.2382 0.0677 0.6345
H9_5 H 0.4323 0.2618 0.6345
H10_5 H 0.3655 0.2618 0.5677
C27_5 C 0.24154(16) 0.10382(13) 0.60382(13)
C28_5 C 0.39618(13) 0.25846(16) 0.60382(13)
C29_5 C 0.2721(2) 0.1137(2) 0.6137(2)
C30_5 C 0.3863(2) 0.2279(2) 0.6137(2)
C31_5 C 0.2977(3) 0.1218(2) 0.6218(2)
C32_5 C 0.3782(2) 0.2023(3) 0.6218(2)
C33_5 C 0.3246(2) 0.1358(2) 0.6358(2)
C34_5 C 0.3642(2) 0.1754(2) 0.6358(2)
C35_5 C 0.3768(2) 0.1620(2) 0.6620(2)
C36_5 C 0.3380(2) 0.1620(2) 0.6232(2)
H11_5 H 0.3948 0.1711 0.6711
H12_5 H 0.3289 0.1711 0.6052
Zn1_10 Zn 0.371098(8) 1.0000 0.871098(8)
Zn2_10 Zn 0.321355(8) 1.0000 0.821355(8)
O1_10 O 0.40408(8) 1.0000 0.90408(8)
O2_10 O 0.28863(7) 1.0000 0.78863(7)
Zn5_10 Zn 0.128902(8) 1.0000 0.628902(8)
Zn10_10 Zn 0.178645(8) 1.0000 0.678645(8)
O6_5 O 0.34197(6) 0.96742(6) 0.88774(7)
O7_5 O 0.38774(7) 0.96742(6) 0.84197(6)
O17_5 O 0.30531(7) 0.96735(6) 0.85079(6)
O18_5 O 0.35079(6) 0.96735(6) 0.80531(7)
Zn1_11 Zn 0.371098(8) -0.0000 0.128902(8)
Zn2_11 Zn 0.321355(8) -0.0000 0.178645(8)
O1_11 O 0.40408(8) -0.0000 0.09592(8)
O2_11 O 0.28863(7) 0.0000 0.21137(7)
Zn5_11 Zn 0.128902(8) -0.0000 0.371098(8)
Zn10_11 Zn 0.178645(8) 0.0000 0.321355(8)
O6_6 O 0.34197(6) 0.03258(6) 0.11226(7)
O7_6 O 0.38774(7) 0.03258(6) 0.15803(6)
O17_6 O 0.30531(7) 0.03265(6) 0.14921(6)
O18_6 O 0.35079(6) 0.03265(6) 0.19469(7)
Zn1_12 Zn 0.371098(8) 1.0000 0.128902(8)
Zn2_12 Zn 0.321355(8) 1.0000 0.178645(8)
O1_12 O 0.40408(8) 1.0000 0.09592(8)
O2_12 O 0.28863(7) 1.0000 0.21137(7)
O3_6 O 0.38774(7) 0.96742(6) 0.15803(6)
O4_6 O 0.35079(6) 0.96735(6) 0.19469(7)
C1_6 C 0.37565(9) 0.95784(8) 0.18272(9)
C2_6 C 0.39227(9) 0.93176(9) 0.19884(9)
C3_6 C 0.41751(8) 0.91751(8) 0.18464(12)
H1_6 H 0.4250 0.9250 0.1652
C4_6 C 0.38198(11) 0.92176(10) 0.22790(11)
H2_6 H 0.3655 0.9323 0.2382
C5_6 C 0.39618(13) 0.89618(13) 0.24154(16)
C6_6 C 0.3863(2) 0.8863(2) 0.2721(2)
C7_6 C 0.3782(2) 0.8782(2) 0.2977(3)
C8_6 C 0.3642(2) 0.8642(2) 0.3246(2)
C9_6 C 0.3380(2) 0.8768(2) 0.3380(2)
H3_6 H 0.3289 0.8948 0.3289
Zn3_6 Zn 0.5000 0.871098(8) 0.128902(8)
Zn5_12 Zn 0.128902(8) 1.0000 0.371098(8)
Zn6_6 Zn 0.5000 0.628902(8) 0.371098(8)
Zn8_6 Zn 0.5000 0.821355(8) 0.178645(8)
Zn10_12 Zn 0.178645(8) 1.0000 0.321355(8)
Zn11_6 Zn 0.5000 0.678645(8) 0.321355(8)
O5_6 O 0.5000 0.90408(8) 0.09592(8)
O8_6 O 0.34197(6) 0.96742(6) 0.11226(7)
O9_6 O 0.46742(6) 0.88774(7) 0.15803(6)
O11_6 O 0.15803(6) 0.96742(6) 0.38774(7)
O12_6 O 0.46742(6) 0.65803(6) 0.38774(7)
O13_6 O 0.38774(7) 0.65803(6) 0.46742(6)
O14_6 O 0.46742(6) 0.84197(6) 0.11226(7)
O15_6 O 0.53258(6) 0.88774(7) 0.15803(6)
O16_6 O 0.53258(6) 0.84197(6) 0.11226(7)
O19_6 O 0.30531(7) 0.96735(6) 0.14921(6)
O20_6 O 0.46735(6) 0.85079(6) 0.19469(7)
O21_6 O 0.19469(7) 0.85079(6) 0.46735(6)
O22_6 O 0.19469(7) 0.96735(6) 0.35079(6)
O23_6 O 0.46735(6) 0.69469(7) 0.35079(6)
O24_6 O 0.35079(6) 0.69469(7) 0.46735(6)
C10_6 C 0.45784(8) 0.87565(9) 0.18272(9)
C11_6 C 0.18272(9) 0.87565(9) 0.45784(8)
C12_6 C 0.18272(9) 0.95784(8) 0.37565(9)
C13_6 C 0.45784(8) 0.68272(9) 0.37565(9)
C14_6 C 0.37565(9) 0.68272(9) 0.45784(8)
C15_6 C 0.43176(9) 0.89227(9) 0.19884(9)
C16_6 C 0.19884(9) 0.89227(9) 0.43176(9)
C17_6 C 0.19884(9) 0.93176(9) 0.39227(9)
C18_6 C 0.43176(9) 0.69884(9) 0.39227(9)
C19_6 C 0.39227(9) 0.69884(9) 0.43176(9)
C20_6 C 0.18464(12) 0.91751(8) 0.41751(8)
C21_6 C 0.41751(8) 0.68464(12) 0.41751(8)
H4_6 H 0.1652 0.9250 0.4250
H5_6 H 0.4250 0.6652 0.4250
C22_6 C 0.42176(10) 0.88198(11) 0.22790(11)
C23_6 C 0.22790(11) 0.88198(11) 0.42176(10)
C24_6 C 0.22790(11) 0.92176(10) 0.38198(11)
C25_6 C 0.42176(10) 0.72790(11) 0.38198(11)
C26_6 C 0.38198(11) 0.72790(11) 0.42176(10)
H6_6 H 0.4323 0.8655 0.2382
H7_6 H 0.2382 0.8655 0.4323
H8_6 H 0.2382 0.9323 0.3655
H9_6 H 0.4323 0.7382 0.3655
H10_6 H 0.3655 0.7382 0.4323
C27_6 C 0.24154(16) 0.89618(13) 0.39618(13)
C28_6 C 0.39618(13) 0.74154(16) 0.39618(13)
C29_6 C 0.2721(2) 0.8863(2) 0.3863(2)
C30_6 C 0.3863(2) 0.7721(2) 0.3863(2)
C31_6 C 0.2977(3) 0.8782(2) 0.3782(2)
C32_6 C 0.3782(2) 0.7977(3) 0.3782(2)
C33_6 C 0.3246(2) 0.8642(2) 0.3642(2)
C34_6 C 0.3642(2) 0.8246(2) 0.3642(2)
C35_6 C 0.3768(2) 0.8380(2) 0.3380(2)
C36_6 C 0.3380(2) 0.8380(2) 0.3768(2)
H11_6 H 0.3948 0.8289 0.3289
H12_6 H 0.3289 0.8289 0.3948
Zn1_13 Zn 0.628902(8) 0.0000 0.871098(8)
Zn2_13 Zn 0.678645(8) -0.0000 0.821355(8)
O1_13 O 0.59592(8) -0.0000 0.90408(8)
O2_13 O 0.71137(7) -0.0000 0.78863(7)
Zn5_13 Zn 0.871098(8) 0.0000 0.628902(8)
Zn10_13 Zn 0.821355(8) 0.0000 0.678645(8)
O6_7 O 0.65803(6) 0.03258(6) 0.88774(7)
O7_7 O 0.61226(7) 0.03258(6) 0.84197(6)
O17_7 O 0.69469(7) 0.03265(6) 0.85079(6)
O18_7 O 0.64921(6) 0.03265(6) 0.80531(7)
Zn1_14 Zn 0.628902(8) 1.0000 0.871098(8)
Zn2_14 Zn 0.678645(8) 1.0000 0.821355(8)
O1_14 O 0.59592(8) 1.0000 0.90408(8)
O2_14 O 0.71137(7) 1.0000 0.78863(7)
O3_7 O 0.61226(7) 0.96742(6) 0.84197(6)
O4_7 O 0.64921(6) 0.96735(6) 0.80531(7)
C1_7 C 0.62435(9) 0.95784(8) 0.81728(9)
C2_7 C 0.60773(9) 0.93176(9) 0.80116(9)
C3_7 C 0.58249(8) 0.91751(8) 0.81536(12)
H1_7 H 0.5750 0.9250 0.8348
C4_7 C 0.61802(11) 0.92176(10) 0.77210(11)
H2_7 H 0.6345 0.9323 0.7618
C5_7 C 0.60382(13) 0.89618(13) 0.75846(16)
C6_7 C 0.6137(2) 0.8863(2) 0.7279(2)
C7_7 C 0.6218(2) 0.8782(2) 0.7023(3)
C8_7 C 0.6358(2) 0.8642(2) 0.6754(2)
C9_7 C 0.6620(2) 0.8768(2) 0.6620(2)
H3_7 H 0.6711 0.8948 0.6711
Zn3_7 Zn 0.5000 0.871098(8) 0.871098(8)
Zn5_14 Zn 0.871098(8) 1.0000 0.628902(8)
Zn6_7 Zn 0.5000 0.628902(8) 0.628902(8)
Zn8_7 Zn 0.5000 0.821355(8) 0.821355(8)
Zn10_14 Zn 0.821355(8) 1.0000 0.678645(8)
Zn11_7 Zn 0.5000 0.678645(8) 0.678645(8)
O5_7 O 0.5000 0.90408(8) 0.90408(8)
O8_7 O 0.65803(6) 0.96742(6) 0.88774(7)
O9_7 O 0.53258(6) 0.88774(7) 0.84197(6)
O11_7 O 0.84197(6) 0.96742(6) 0.61226(7)
O12_7 O 0.53258(6) 0.65803(6) 0.61226(7)
O13_7 O 0.61226(7) 0.65803(6) 0.53258(6)
O14_7 O 0.53258(6) 0.84197(6) 0.88774(7)
O15_7 O 0.46742(6) 0.88774(7) 0.84197(6)
O16_7 O 0.46742(6) 0.84197(6) 0.88774(7)
O19_7 O 0.69469(7) 0.96735(6) 0.85079(6)
O20_7 O 0.53265(6) 0.85079(6) 0.80531(7)
O21_7 O 0.80531(7) 0.85079(6) 0.53265(6)
O22_7 O 0.80531(7) 0.96735(6) 0.64921(6)
O23_7 O 0.53265(6) 0.69469(7) 0.64921(6)
O24_7 O 0.64921(6) 0.69469(7) 0.53265(6)
C10_7 C 0.54216(8) 0.87565(9) 0.81728(9)
C11_7 C 0.81728(9) 0.87565(9) 0.54216(8)
C12_7 C 0.81728(9) 0.95784(8) 0.62435(9)
C13_7 C 0.54216(8) 0.68272(9) 0.62435(9)
C14_7 C 0.62435(9) 0.68272(9) 0.54216(8)
C15_7 C 0.56824(9) 0.89227(9) 0.80116(9)
C16_7 C 0.80116(9) 0.89227(9) 0.56824(9)
C17_7 C 0.80116(9) 0.93176(9) 0.60773(9)
C18_7 C 0.56824(9) 0.69884(9) 0.60773(9)
C19_7 C 0.60773(9) 0.69884(9) 0.56824(9)
C20_7 C 0.81536(12) 0.91751(8) 0.58249(8)
C21_7 C 0.58249(8) 0.68464(12) 0.58249(8)
H4_7 H 0.8348 0.9250 0.5750
H5_7 H 0.5750 0.6652 0.5750
C22_7 C 0.57824(10) 0.88198(11) 0.77210(11)
C23_7 C 0.77210(11) 0.88198(11) 0.57824(10)
C24_7 C 0.77210(11) 0.92176(10) 0.61802(11)
C25_7 C 0.57824(10) 0.72790(11) 0.61802(11)
C26_7 C 0.61802(11) 0.72790(11) 0.57824(10)
H6_7 H 0.5677 0.8655 0.7618
H7_7 H 0.7618 0.8655 0.5677
H8_7 H 0.7618 0.9323 0.6345
H9_7 H 0.5677 0.7382 0.6345
H10_7 H 0.6345 0.7382 0.5677
C27_7 C 0.75846(16) 0.89618(13) 0.60382(13)
C28_7 C 0.60382(13) 0.74154(16) 0.60382(13)
C29_7 C 0.7279(2) 0.8863(2) 0.6137(2)
C30_7 C 0.6137(2) 0.7721(2) 0.6137(2)
C31_7 C 0.7023(3) 0.8782(2) 0.6218(2)
C32_7 C 0.6218(2) 0.7977(3) 0.6218(2)
C33_7 C 0.6754(2) 0.8642(2) 0.6358(2)
C34_7 C 0.6358(2) 0.8246(2) 0.6358(2)
C35_7 C 0.6232(2) 0.8380(2) 0.6620(2)
C36_7 C 0.6620(2) 0.8380(2) 0.6232(2)
H11_7 H 0.6052 0.8289 0.6711
H12_7 H 0.6711 0.8289 0.6052
Zn1_15 Zn 0.628902(8) 0.0000 0.128902(8)
Zn2_15 Zn 0.678645(8) 0.0000 0.178645(8)
O1_15 O 0.59592(8) 0.0000 0.09592(8)
O2_15 O 0.71137(7) 0.0000 0.21137(7)
O3_8 O 0.61226(7) 0.03258(6) 0.15803(6)
O4_8 O 0.64921(6) 0.03265(6) 0.19469(7)
C1_8 C 0.62435(9) 0.04216(8) 0.18272(9)
C2_8 C 0.60773(9) 0.06824(9) 0.19884(9)
C3_8 C 0.58249(8) 0.08249(8) 0.18464(12)
H1_8 H 0.5750 0.0750 0.1652
C4_8 C 0.61802(11) 0.07824(10) 0.22790(11)
H2_8 H 0.6345 0.0677 0.2382
C5_8 C 0.60382(13) 0.10382(13) 0.24154(16)
C6_8 C 0.6137(2) 0.1137(2) 0.2721(2)
C7_8 C 0.6218(2) 0.1218(2) 0.2977(3)
C8_8 C 0.6358(2) 0.1358(2) 0.3246(2)
C9_8 C 0.6620(2) 0.1232(2) 0.3380(2)
H3_8 H 0.6711 0.1052 0.3289
Zn3_8 Zn 0.5000 0.128902(8) 0.128902(8)
Zn5_15 Zn 0.871098(8) 0.0000 0.371098(8)
Zn6_8 Zn 0.5000 0.371098(8) 0.371098(8)
Zn8_8 Zn 0.5000 0.178645(8) 0.178645(8)
Zn10_15 Zn 0.821355(8) -0.0000 0.321355(8)
Zn11_8 Zn 0.5000 0.321355(8) 0.321355(8)
O5_8 O 0.5000 0.09592(8) 0.09592(8)
O8_8 O 0.65803(6) 0.03258(6) 0.11226(7)
O9_8 O 0.53258(6) 0.11226(7) 0.15803(6)
O11_8 O 0.84197(6) 0.03258(6) 0.38774(7)
O12_8 O 0.53258(6) 0.34197(6) 0.38774(7)
O13_8 O 0.61226(7) 0.34197(6) 0.46742(6)
O14_8 O 0.53258(6) 0.15803(6) 0.11226(7)
O15_8 O 0.46742(6) 0.11226(7) 0.15803(6)
O16_8 O 0.46742(6) 0.15803(6) 0.11226(7)
O19_8 O 0.69469(7) 0.03265(6) 0.14921(6)
O20_8 O 0.53265(6) 0.14921(6) 0.19469(7)
O21_8 O 0.80531(7) 0.14921(6) 0.46735(6)
O22_8 O 0.80531(7) 0.03265(6) 0.35079(6)
O23_8 O 0.53265(6) 0.30531(7) 0.35079(6)
O24_8 O 0.64921(6) 0.30531(7) 0.46735(6)
C10_8 C 0.54216(8) 0.12435(9) 0.18272(9)
C11_8 C 0.81728(9) 0.12435(9) 0.45784(8)
C12_8 C 0.81728(9) 0.04216(8) 0.37565(9)
C13_8 C 0.54216(8) 0.31728(9) 0.37565(9)
C14_8 C 0.62435(9) 0.31728(9) 0.45784(8)
C15_8 C 0.56824(9) 0.10773(9) 0.19884(9)
C16_8 C 0.80116(9) 0.10773(9) 0.43176(9)
C17_8 C 0.80116(9) 0.06824(9) 0.39227(9)
C18_8 C 0.56824(9) 0.30116(9) 0.39227(9)
C19_8 C 0.60773(9) 0.30116(9) 0.43176(9)
C20_8 C 0.81536(12) 0.08249(8) 0.41751(8)
C21_8 C 0.58249(8) 0.31536(12) 0.41751(8)
H4_8 H 0.8348 0.0750 0.4250
H5_8 H 0.5750 0.3348 0.4250
C22_8 C 0.57824(10) 0.11802(11) 0.22790(11)
C23_8 C 0.77210(11) 0.11802(11) 0.42176(10)
C24_8 C 0.77210(11) 0.07824(10) 0.38198(11)
C25_8 C 0.57824(10) 0.27210(11) 0.38198(11)
C26_8 C 0.61802(11) 0.27210(11) 0.42176(10)
H6_8 H 0.5677 0.1345 0.2382
H7_8 H 0.7618 0.1345 0.4323
H8_8 H 0.7618 0.0677 0.3655
H9_8 H 0.5677 0.2618 0.3655
H10_8 H 0.6345 0.2618 0.4323
C27_8 C 0.75846(16) 0.10382(13) 0.39618(13)
C28_8 C 0.60382(13) 0.25846(16) 0.39618(13)
C29_8 C 0.7279(2) 0.1137(2) 0.3863(2)
C30_8 C 0.6137(2) 0.2279(2) 0.3863(2)
C31_8 C 0.7023(3) 0.1218(2) 0.3782(2)
C32_8 C 0.6218(2) 0.2023(3) 0.3782(2)
C33_8 C 0.6754(2) 0.1358(2) 0.3642(2)
C34_8 C 0.6358(2) 0.1754(2) 0.3642(2)
C35_8 C 0.6232(2) 0.1620(2) 0.3380(2)
C36_8 C 0.6620(2) 0.1620(2) 0.3768(2)
H11_8 H 0.6052 0.1711 0.3289
H12_8 H 0.6711 0.1711 0.3948
Zn1_16 Zn 0.628902(8) 1.0000 0.128902(8)
Zn2_16 Zn 0.678645(8) 1.0000 0.178645(8)
O1_16 O 0.59592(8) 1.0000 0.09592(8)
O2_16 O 0.71137(7) 1.0000 0.21137(7)
Zn5_16 Zn 0.871098(8) 1.0000 0.371098(8)
Zn10_16 Zn 0.821355(8) 1.0000 0.321355(8)
O6_8 O 0.65803(6) 0.96742(6) 0.11226(7)
O7_8 O 0.61226(7) 0.96742(6) 0.15803(6)
O17_8 O 0.69469(7) 0.96735(6) 0.14921(6)
O18_8 O 0.64921(6) 0.96735(6) 0.19469(7)
Zn1_17 Zn 0.871098(8) 0.371098(8) 0.0000
Zn2_17 Zn 0.821355(8) 0.321355(8) 0.0000
O1_17 O 0.90408(8) 0.40408(8) 0.0000
O2_17 O 0.78863(7) 0.28863(7) 0.0000
O3_9 O 0.84197(6) 0.38774(7) 0.03258(6)
O4_9 O 0.80531(7) 0.35079(6) 0.03265(6)
C1_9 C 0.81728(9) 0.37565(9) 0.04216(8)
C2_9 C 0.80116(9) 0.39227(9) 0.06824(9)
C3_9 C 0.81536(12) 0.41751(8) 0.08249(8)
H1_9 H 0.8348 0.4250 0.0750
C4_9 C 0.77210(11) 0.38198(11) 0.07824(10)
H2_9 H 0.7618 0.3655 0.0677
C5_9 C 0.75846(16) 0.39618(13) 0.10382(13)
C6_9 C 0.7279(2) 0.3863(2) 0.1137(2)
C7_9 C 0.7023(3) 0.3782(2) 0.1218(2)
C8_9 C 0.6754(2) 0.3642(2) 0.1358(2)
C9_9 C 0.6620(2) 0.3380(2) 0.1232(2)
H3_9 H 0.6711 0.3289 0.1052
Zn5_17 Zn 0.628902(8) 0.128902(8) 0.0000
Zn10_17 Zn 0.678645(8) 0.178645(8) -0.0000
O5_9 O 0.90408(8) 0.5000 0.09592(8)
O8_9 O 0.88774(7) 0.34197(6) 0.03258(6)
O9_9 O 0.84197(6) 0.46742(6) 0.11226(7)
O11_9 O 0.61226(7) 0.15803(6) 0.03258(6)
O12_9 O 0.61226(7) 0.46742(6) 0.34197(6)
O13_9 O 0.53258(6) 0.38774(7) 0.34197(6)
O15_9 O 0.84197(6) 0.53258(6) 0.11226(7)
O16_9 O 0.88774(7) 0.53258(6) 0.15803(6)
O19_9 O 0.85079(6) 0.30531(7) 0.03265(6)
O20_9 O 0.80531(7) 0.46735(6) 0.14921(6)
O21_9 O 0.53265(6) 0.19469(7) 0.14921(6)
O22_9 O 0.64921(6) 0.19469(7) 0.03265(6)
O23_9 O 0.64921(6) 0.46735(6) 0.30531(7)
O24_9 O 0.53265(6) 0.35079(6) 0.30531(7)
C10_9 C 0.81728(9) 0.45784(8) 0.12435(9)
C11_9 C 0.54216(8) 0.18272(9) 0.12435(9)
C12_9 C 0.62435(9) 0.18272(9) 0.04216(8)
C13_9 C 0.62435(9) 0.45784(8) 0.31728(9)
C14_9 C 0.54216(8) 0.37565(9) 0.31728(9)
C15_9 C 0.80116(9) 0.43176(9) 0.10773(9)
C16_9 C 0.56824(9) 0.19884(9) 0.10773(9)
C17_9 C 0.60773(9) 0.19884(9) 0.06824(9)
C18_9 C 0.60773(9) 0.43176(9) 0.30116(9)
C19_9 C 0.56824(9) 0.39227(9) 0.30116(9)
C20_9 C 0.58249(8) 0.18464(12) 0.08249(8)
C21_9 C 0.58249(8) 0.41751(8) 0.31536(12)
H4_9 H 0.5750 0.1652 0.0750
H5_9 H 0.5750 0.4250 0.3348
C22_9 C 0.77210(11) 0.42176(10) 0.11802(11)
C23_9 C 0.57824(10) 0.22790(11) 0.11802(11)
C24_9 C 0.61802(11) 0.22790(11) 0.07824(10)
C25_9 C 0.61802(11) 0.42176(10) 0.27210(11)
C26_9 C 0.57824(10) 0.38198(11) 0.27210(11)
H6_9 H 0.7618 0.4323 0.1345
H7_9 H 0.5677 0.2382 0.1345
H8_9 H 0.6345 0.2382 0.0677
H9_9 H 0.6345 0.4323 0.2618
H10_9 H 0.5677 0.3655 0.2618
C27_9 C 0.60382(13) 0.24154(16) 0.10382(13)
C28_9 C 0.60382(13) 0.39618(13) 0.25846(16)
C29_9 C 0.6137(2) 0.2721(2) 0.1137(2)
C30_9 C 0.6137(2) 0.3863(2) 0.2279(2)
C31_9 C 0.6218(2) 0.2977(3) 0.1218(2)
C32_9 C 0.6218(2) 0.3782(2) 0.2023(3)
C33_9 C 0.6358(2) 0.3246(2) 0.1358(2)
C34_9 C 0.6358(2) 0.3642(2) 0.1754(2)
C35_9 C 0.6620(2) 0.3768(2) 0.1620(2)
C36_9 C 0.6232(2) 0.3380(2) 0.1620(2)
H11_9 H 0.6711 0.3948 0.1711
H12_9 H 0.6052 0.3289 0.1711
Zn1_18 Zn 0.871098(8) 0.371098(8) 1.0000
Zn2_18 Zn 0.821355(8) 0.321355(8) 1.0000
O1_18 O 0.90408(8) 0.40408(8) 1.0000
O2_18 O 0.78863(7) 0.28863(7) 1.0000
Zn5_18 Zn 0.628902(8) 0.128902(8) 1.0000
Zn10_18 Zn 0.678645(8) 0.178645(8) 1.0000
O6_9 O 0.88774(7) 0.34197(6) 0.96742(6)
O7_9 O 0.84197(6) 0.38774(7) 0.96742(6)
O17_9 O 0.85079(6) 0.30531(7) 0.96735(6)
O18_9 O 0.80531(7) 0.35079(6) 0.96735(6)
Zn1_19 Zn 0.128902(8) 0.371098(8) -0.0000
Zn2_19 Zn 0.178645(8) 0.321355(8) -0.0000
O1_19 O 0.09592(8) 0.40408(8) -0.0000
O2_19 O 0.21137(7) 0.28863(7) 0.0000
Zn5_19 Zn 0.371098(8) 0.128902(8) -0.0000
Zn10_19 Zn 0.321355(8) 0.178645(8) 0.0000
O6_10 O 0.11226(7) 0.34197(6) 0.03258(6)
O7_10 O 0.15803(6) 0.38774(7) 0.03258(6)
O17_10 O 0.14921(6) 0.30531(7) 0.03265(6)
O18_10 O 0.19469(7) 0.35079(6) 0.03265(6)
Zn1_20 Zn 0.128902(8) 0.371098(8) 1.0000
Zn2_20 Zn 0.178645(8) 0.321355(8) 1.0000
O1_20 O 0.09592(8) 0.40408(8) 1.0000
O2_20 O 0.21137(7) 0.28863(7) 1.0000
O3_10 O 0.15803(6) 0.38774(7) 0.96742(6)
O4_10 O 0.19469(7) 0.35079(6) 0.96735(6)
C1_10 C 0.18272(9) 0.37565(9) 0.95784(8)
C2_10 C 0.19884(9) 0.39227(9) 0.93176(9)
C3_10 C 0.18464(12) 0.41751(8) 0.91751(8)
H1_10 H 0.1652 0.4250 0.9250
C4_10 C 0.22790(11) 0.38198(11) 0.92176(10)
H2_10 H 0.2382 0.3655 0.9323
C5_10 C 0.24154(16) 0.39618(13) 0.89618(13)
C6_10 C 0.2721(2) 0.3863(2) 0.8863(2)
C7_10 C 0.2977(3) 0.3782(2) 0.8782(2)
C8_10 C 0.3246(2) 0.3642(2) 0.8642(2)
C9_10 C 0.3380(2) 0.3380(2) 0.8768(2)
H3_10 H 0.3289 0.3289 0.8948
Zn5_20 Zn 0.371098(8) 0.128902(8) 1.0000
Zn10_20 Zn 0.321355(8) 0.178645(8) 1.0000
O5_10 O 0.09592(8) 0.5000 0.90408(8)
O8_10 O 0.11226(7) 0.34197(6) 0.96742(6)
O9_10 O 0.15803(6) 0.46742(6) 0.88774(7)
O11_10 O 0.38774(7) 0.15803(6) 0.96742(6)
O12_10 O 0.38774(7) 0.46742(6) 0.65803(6)
O13_10 O 0.46742(6) 0.38774(7) 0.65803(6)
O15_10 O 0.15803(6) 0.53258(6) 0.88774(7)
O16_10 O 0.11226(7) 0.53258(6) 0.84197(6)
O19_10 O 0.14921(6) 0.30531(7) 0.96735(6)
O20_10 O 0.19469(7) 0.46735(6) 0.85079(6)
O21_10 O 0.46735(6) 0.19469(7) 0.85079(6)
O22_10 O 0.35079(6) 0.19469(7) 0.96735(6)
O23_10 O 0.35079(6) 0.46735(6) 0.69469(7)
O24_10 O 0.46735(6) 0.35079(6) 0.69469(7)
C10_10 C 0.18272(9) 0.45784(8) 0.87565(9)
C11_10 C 0.45784(8) 0.18272(9) 0.87565(9)
C12_10 C 0.37565(9) 0.18272(9) 0.95784(8)
C13_10 C 0.37565(9) 0.45784(8) 0.68272(9)
C14_10 C 0.45784(8) 0.37565(9) 0.68272(9)
C15_10 C 0.19884(9) 0.43176(9) 0.89227(9)
C16_10 C 0.43176(9) 0.19884(9) 0.89227(9)
C17_10 C 0.39227(9) 0.19884(9) 0.93176(9)
C18_10 C 0.39227(9) 0.43176(9) 0.69884(9)
C19_10 C 0.43176(9) 0.39227(9) 0.69884(9)
C20_10 C 0.41751(8) 0.18464(12) 0.91751(8)
C21_10 C 0.41751(8) 0.41751(8) 0.68464(12)
H4_10 H 0.4250 0.1652 0.9250
H5_10 H 0.4250 0.4250 0.6652
C22_10 C 0.22790(11) 0.42176(10) 0.88198(11)
C23_10 C 0.42176(10) 0.22790(11) 0.88198(11)
C24_10 C 0.38198(11) 0.22790(11) 0.92176(10)
C25_10 C 0.38198(11) 0.42176(10) 0.72790(11)
C26_10 C 0.42176(10) 0.38198(11) 0.72790(11)
H6_10 H 0.2382 0.4323 0.8655
H7_10 H 0.4323 0.2382 0.8655
H8_10 H 0.3655 0.2382 0.9323
H9_10 H 0.3655 0.4323 0.7382
H10_10 H 0.4323 0.3655 0.7382
C27_10 C 0.39618(13) 0.24154(16) 0.89618(13)
C28_10 C 0.39618(13) 0.39618(13) 0.74154(16)
C29_10 C 0.3863(2) 0.2721(2) 0.8863(2)
C30_10 C 0.3863(2) 0.3863(2) 0.7721(2)
C31_10 C 0.3782(2) 0.2977(3) 0.8782(2)
C32_10 C 0.3782(2) 0.3782(2) 0.7977(3)
C33_10 C 0.3642(2) 0.3246(2) 0.8642(2)
C34_10 C 0.3642(2) 0.3642(2) 0.8246(2)
C35_10 C 0.3380(2) 0.3768(2) 0.8380(2)
C36_10 C 0.3768(2) 0.3380(2) 0.8380(2)
H11_10 H 0.3289 0.3948 0.8289
H12_10 H 0.3948 0.3289 0.8289
Zn1_21 Zn 0.871098(8) 0.628902(8) -0.0000
Zn2_21 Zn 0.821355(8) 0.678645(8) -0.0000
O1_21 O 0.90408(8) 0.59592(8) -0.0000
O2_21 O 0.78863(7) 0.71137(7) 0.0000
Zn5_21 Zn 0.628902(8) 0.871098(8) -0.0000
Zn10_21 Zn 0.678645(8) 0.821355(8) 0.0000
O6_11 O 0.88774(7) 0.65803(6) 0.03258(6)
O7_11 O 0.84197(6) 0.61226(7) 0.03258(6)
O17_11 O 0.85079(6) 0.69469(7) 0.03265(6)
O18_11 O 0.80531(7) 0.64921(6) 0.03265(6)
Zn1_22 Zn 0.871098(8) 0.628902(8) 1.0000
Zn2_22 Zn 0.821355(8) 0.678645(8) 1.0000
O1_22 O 0.90408(8) 0.59592(8) 1.0000
O2_22 O 0.78863(7) 0.71137(7) 1.0000
O3_11 O 0.84197(6) 0.61226(7) 0.96742(6)
O4_11 O 0.80531(7) 0.64921(6) 0.96735(6)
C1_11 C 0.81728(9) 0.62435(9) 0.95784(8)
C2_11 C 0.80116(9) 0.60773(9) 0.93176(9)
C3_11 C 0.81536(12) 0.58249(8) 0.91751(8)
H1_11 H 0.8348 0.5750 0.9250
C4_11 C 0.77210(11) 0.61802(11) 0.92176(10)
H2_11 H 0.7618 0.6345 0.9323
C5_11 C 0.75846(16) 0.60382(13) 0.89618(13)
C6_11 C 0.7279(2) 0.6137(2) 0.8863(2)
C7_11 C 0.7023(3) 0.6218(2) 0.8782(2)
C8_11 C 0.6754(2) 0.6358(2) 0.8642(2)
C9_11 C 0.6620(2) 0.6620(2) 0.8768(2)
H3_11 H 0.6711 0.6711 0.8948
Zn5_22 Zn 0.628902(8) 0.871098(8) 1.0000
Zn10_22 Zn 0.678645(8) 0.821355(8) 1.0000
O5_11 O 0.90408(8) 0.5000 0.90408(8)
O8_11 O 0.88774(7) 0.65803(6) 0.96742(6)
O9_11 O 0.84197(6) 0.53258(6) 0.88774(7)
O11_11 O 0.61226(7) 0.84197(6) 0.96742(6)
O12_11 O 0.61226(7) 0.53258(6) 0.65803(6)
O13_11 O 0.53258(6) 0.61226(7) 0.65803(6)
O15_11 O 0.84197(6) 0.46742(6) 0.88774(7)
O16_11 O 0.88774(7) 0.46742(6) 0.84197(6)
O19_11 O 0.85079(6) 0.69469(7) 0.96735(6)
O20_11 O 0.80531(7) 0.53265(6) 0.85079(6)
O21_11 O 0.53265(6) 0.80531(7) 0.85079(6)
O22_11 O 0.64921(6) 0.80531(7) 0.96735(6)
O23_11 O 0.64921(6) 0.53265(6) 0.69469(7)
O24_11 O 0.53265(6) 0.64921(6) 0.69469(7)
C10_11 C 0.81728(9) 0.54216(8) 0.87565(9)
C11_11 C 0.54216(8) 0.81728(9) 0.87565(9)
C12_11 C 0.62435(9) 0.81728(9) 0.95784(8)
C13_11 C 0.62435(9) 0.54216(8) 0.68272(9)
C14_11 C 0.54216(8) 0.62435(9) 0.68272(9)
C15_11 C 0.80116(9) 0.56824(9) 0.89227(9)
C16_11 C 0.56824(9) 0.80116(9) 0.89227(9)
C17_11 C 0.60773(9) 0.80116(9) 0.93176(9)
C18_11 C 0.60773(9) 0.56824(9) 0.69884(9)
C19_11 C 0.56824(9) 0.60773(9) 0.69884(9)
C20_11 C 0.58249(8) 0.81536(12) 0.91751(8)
C21_11 C 0.58249(8) 0.58249(8) 0.68464(12)
H4_11 H 0.5750 0.8348 0.9250
H5_11 H 0.5750 0.5750 0.6652
C22_11 C 0.77210(11) 0.57824(10) 0.88198(11)
C23_11 C 0.57824(10) 0.77210(11) 0.88198(11)
C24_11 C 0.61802(11) 0.77210(11) 0.92176(10)
C25_11 C 0.61802(11) 0.57824(10) 0.72790(11)
C26_11 C 0.57824(10) 0.61802(11) 0.72790(11)
H6_11 H 0.7618 0.5677 0.8655
H7_11 H 0.5677 0.7618 0.8655
H8_11 H 0.6345 0.7618 0.9323
H9_11 H 0.6345 0.5677 0.7382
H10_11 H 0.5677 0.6345 0.7382
C27_11 C 0.60382(13) 0.75846(16) 0.89618(13)
C28_11 C 0.60382(13) 0.60382(13) 0.74154(16)
C29_11 C 0.6137(2) 0.7279(2) 0.8863(2)
C30_11 C 0.6137(2) 0.6137(2) 0.7721(2)
C31_11 C 0.6218(2) 0.7023(3) 0.8782(2)
C32_11 C 0.6218(2) 0.6218(2) 0.7977(3)
C33_11 C 0.6358(2) 0.6754(2) 0.8642(2)
C34_11 C 0.6358(2) 0.6358(2) 0.8246(2)
C35_11 C 0.6620(2) 0.6232(2) 0.8380(2)
C36_11 C 0.6232(2) 0.6620(2) 0.8380(2)
H11_11 H 0.6711 0.6052 0.8289
H12_11 H 0.6052 0.6711 0.8289
Zn1_23 Zn 0.128902(8) 0.628902(8) 0.0000
Zn2_23 Zn 0.178645(8) 0.678645(8) 0.0000
O1_23 O 0.09592(8) 0.59592(8) 0.0000
O2_23 O 0.21137(7) 0.71137(7) 0.0000
O3_12 O 0.15803(6) 0.61226(7) 0.03258(6)
O4_12 O 0.19469(7) 0.64921(6) 0.03265(6)
C1_12 C 0.18272(9) 0.62435(9) 0.04216(8)
C2_12 C 0.19884(9) 0.60773(9) 0.06824(9)
C3_12 C 0.18464(12) 0.58249(8) 0.08249(8)
H1_12 H 0.1652 0.5750 0.0750
C4_12 C 0.22790(11) 0.61802(11) 0.07824(10)
H2_12 H 0.2382 0.6345 0.0677
C5_12 C 0.24154(16) 0.60382(13) 0.10382(13)
C6_12 C 0.2721(2) 0.6137(2) 0.1137(2)
C7_12 C 0.2977(3) 0.6218(2) 0.1218(2)
C8_12 C 0.3246(2) 0.6358(2) 0.1358(2)
C9_12 C 0.3380(2) 0.6620(2) 0.1232(2)
H3_12 H 0.3289 0.6711 0.1052
Zn5_23 Zn 0.371098(8) 0.871098(8) 0.0000
Zn10_23 Zn 0.321355(8) 0.821355(8) -0.0000
O5_12 O 0.09592(8) 0.5000 0.09592(8)
O8_12 O 0.11226(7) 0.65803(6) 0.03258(6)
O9_12 O 0.15803(6) 0.53258(6) 0.11226(7)
O11_12 O 0.38774(7) 0.84197(6) 0.03258(6)
O12_12 O 0.38774(7) 0.53258(6) 0.34197(6)
O13_12 O 0.46742(6) 0.61226(7) 0.34197(6)
O15_12 O 0.15803(6) 0.46742(6) 0.11226(7)
O16_12 O 0.11226(7) 0.46742(6) 0.15803(6)
O19_12 O 0.14921(6) 0.69469(7) 0.03265(6)
O20_12 O 0.19469(7) 0.53265(6) 0.14921(6)
O21_12 O 0.46735(6) 0.80531(7) 0.14921(6)
O22_12 O 0.35079(6) 0.80531(7) 0.03265(6)
O23_12 O 0.35079(6) 0.53265(6) 0.30531(7)
O24_12 O 0.46735(6) 0.64921(6) 0.30531(7)
C10_12 C 0.18272(9) 0.54216(8) 0.12435(9)
C11_12 C 0.45784(8) 0.81728(9) 0.12435(9)
C12_12 C 0.37565(9) 0.81728(9) 0.04216(8)
C13_12 C 0.37565(9) 0.54216(8) 0.31728(9)
C14_12 C 0.45784(8) 0.62435(9) 0.31728(9)
C15_12 C 0.19884(9) 0.56824(9) 0.10773(9)
C16_12 C 0.43176(9) 0.80116(9) 0.10773(9)
C17_12 C 0.39227(9) 0.80116(9) 0.06824(9)
C18_12 C 0.39227(9) 0.56824(9) 0.30116(9)
C19_12 C 0.43176(9) 0.60773(9) 0.30116(9)
C20_12 C 0.41751(8) 0.81536(12) 0.08249(8)
C21_12 C 0.41751(8) 0.58249(8) 0.31536(12)
H4_12 H 0.4250 0.8348 0.0750
H5_12 H 0.4250 0.5750 0.3348
C22_12 C 0.22790(11) 0.57824(10) 0.11802(11)
C23_12 C 0.42176(10) 0.77210(11) 0.11802(11)
C24_12 C 0.38198(11) 0.77210(11) 0.07824(10)
C25_12 C 0.38198(11) 0.57824(10) 0.27210(11)
C26_12 C 0.42176(10) 0.61802(11) 0.27210(11)
H6_12 H 0.2382 0.5677 0.1345
H7_12 H 0.4323 0.7618 0.1345
H8_12 H 0.3655 0.7618 0.0677
H9_12 H 0.3655 0.5677 0.2618
H10_12 H 0.4323 0.6345 0.2618
C27_12 C 0.39618(13) 0.75846(16) 0.10382(13)
C28_12 C 0.39618(13) 0.60382(13) 0.25846(16)
C29_12 C 0.3863(2) 0.7279(2) 0.1137(2)
C30_12 C 0.3863(2) 0.6137(2) 0.2279(2)
C31_12 C 0.3782(2) 0.7023(3) 0.1218(2)
C32_12 C 0.3782(2) 0.6218(2) 0.2023(3)
C33_12 C 0.3642(2) 0.6754(2) 0.1358(2)
C34_12 C 0.3642(2) 0.6358(2) 0.1754(2)
C35_12 C 0.3380(2) 0.6232(2) 0.1620(2)
C36_12 C 0.3768(2) 0.6620(2) 0.1620(2)
H11_12 H 0.3289 0.6052 0.1711
H12_12 H 0.3948 0.6711 0.1711
Zn1_24 Zn 0.128902(8) 0.628902(8) 1.0000
Zn2_24 Zn 0.178645(8) 0.678645(8) 1.0000
O1_24 O 0.09592(8) 0.59592(8) 1.0000
O2_24 O 0.21137(7) 0.71137(7) 1.0000
Zn5_24 Zn 0.371098(8) 0.871098(8) 1.0000
Zn10_24 Zn 0.321355(8) 0.821355(8) 1.0000
O6_12 O 0.11226(7) 0.65803(6) 0.96742(6)
O7_12 O 0.15803(6) 0.61226(7) 0.96742(6)
O17_12 O 0.14921(6) 0.69469(7) 0.96735(6)
O18_12 O 0.19469(7) 0.64921(6) 0.96735(6)
O1_25 O 0.90408(8) 0.0000 0.59592(8)
O2_25 O 0.78863(7) 0.0000 0.71137(7)
O3_13 O 0.84197(6) 0.03258(6) 0.61226(7)
O4_13 O 0.80531(7) 0.03265(6) 0.64921(6)
C1_13 C 0.81728(9) 0.04216(8) 0.62435(9)
C2_13 C 0.80116(9) 0.06824(9) 0.60773(9)
C3_13 C 0.81536(12) 0.08249(8) 0.58249(8)
H1_13 H 0.8348 0.0750 0.5750
C4_13 C 0.77210(11) 0.07824(10) 0.61802(11)
H2_13 H 0.7618 0.0677 0.6345
C5_13 C 0.75846(16) 0.10382(13) 0.60382(13)
C6_13 C 0.7279(2) 0.1137(2) 0.6137(2)
C7_13 C 0.7023(3) 0.1218(2) 0.6218(2)
C8_13 C 0.6754(2) 0.1358(2) 0.6358(2)
C9_13 C 0.6620(2) 0.1232(2) 0.6620(2)
H3_13 H 0.6711 0.1052 0.6711
O8_13 O 0.88774(7) 0.03258(6) 0.65803(6)
O12_13 O 0.61226(7) 0.34197(6) 0.53258(6)
O13_13 O 0.53258(6) 0.34197(6) 0.61226(7)
O19_13 O 0.85079(6) 0.03265(6) 0.69469(7)
O20_13 O 0.80531(7) 0.14921(6) 0.53265(6)
O21_13 O 0.53265(6) 0.14921(6) 0.80531(7)
O23_13 O 0.64921(6) 0.30531(7) 0.53265(6)
O24_13 O 0.53265(6) 0.30531(7) 0.64921(6)
C10_13 C 0.81728(9) 0.12435(9) 0.54216(8)
C11_13 C 0.54216(8) 0.12435(9) 0.81728(9)
C12_13 C 0.62435(9) 0.04216(8) 0.81728(9)
C13_13 C 0.62435(9) 0.31728(9) 0.54216(8)
C14_13 C 0.54216(8) 0.31728(9) 0.62435(9)
C15_13 C 0.80116(9) 0.10773(9) 0.56824(9)
C16_13 C 0.56824(9) 0.10773(9) 0.80116(9)
C17_13 C 0.60773(9) 0.06824(9) 0.80116(9)
C18_13 C 0.60773(9) 0.30116(9) 0.56824(9)
C19_13 C 0.56824(9) 0.30116(9) 0.60773(9)
C20_13 C 0.58249(8) 0.08249(8) 0.81536(12)
C21_13 C 0.58249(8) 0.31536(12) 0.58249(8)
H4_13 H 0.5750 0.0750 0.8348
H5_13 H 0.5750 0.3348 0.5750
C22_13 C 0.77210(11) 0.11802(11) 0.57824(10)
C23_13 C 0.57824(10) 0.11802(11) 0.77210(11)
C24_13 C 0.61802(11) 0.07824(10) 0.77210(11)
C25_13 C 0.61802(11) 0.27210(11) 0.57824(10)
C26_13 C 0.57824(10) 0.27210(11) 0.61802(11)
H6_13 H 0.7618 0.1345 0.5677
H7_13 H 0.5677 0.1345 0.7618
H8_13 H 0.6345 0.0677 0.7618
H9_13 H 0.6345 0.2618 0.5677
H10_13 H 0.5677 0.2618 0.6345
C27_13 C 0.60382(13) 0.10382(13) 0.75846(16)
C28_13 C 0.60382(13) 0.25846(16) 0.60382(13)
C29_13 C 0.6137(2) 0.1137(2) 0.7279(2)
C30_13 C 0.6137(2) 0.2279(2) 0.6137(2)
C31_13 C 0.6218(2) 0.1218(2) 0.7023(3)
C32_13 C 0.6218(2) 0.2023(3) 0.6218(2)
C33_13 C 0.6358(2) 0.1358(2) 0.6754(2)
C34_13 C 0.6358(2) 0.1754(2) 0.6358(2)
C35_13 C 0.6620(2) 0.1620(2) 0.6232(2)
C36_13 C 0.6232(2) 0.1620(2) 0.6620(2)
H11_13 H 0.6711 0.1711 0.6052
H12_13 H 0.6052 0.1711 0.6711
O1_26 O 0.90408(8) 1.0000 0.59592(8)
O2_26 O 0.78863(7) 1.0000 0.71137(7)
O6_13 O 0.88774(7) 0.96742(6) 0.65803(6)
O17_13 O 0.85079(6) 0.96735(6) 0.69469(7)
O1_27 O 0.09592(8) -0.0000 0.59592(8)
O2_27 O 0.21137(7) 0.0000 0.71137(7)
O6_14 O 0.11226(7) 0.03258(6) 0.65803(6)
O17_14 O 0.14921(6) 0.03265(6) 0.69469(7)
O1_28 O 0.09592(8) 1.0000 0.59592(8)
O2_28 O 0.21137(7) 1.0000 0.71137(7)
O3_14 O 0.15803(6) 0.96742(6) 0.61226(7)
O4_14 O 0.19469(7) 0.96735(6) 0.64921(6)
C1_14 C 0.18272(9) 0.95784(8) 0.62435(9)
C2_14 C 0.19884(9) 0.93176(9) 0.60773(9)
C3_14 C 0.18464(12) 0.91751(8) 0.58249(8)
H1_14 H 0.1652 0.9250 0.5750
C4_14 C 0.22790(11) 0.92176(10) 0.61802(11)
H2_14 H 0.2382 0.9323 0.6345
C5_14 C 0.24154(16) 0.89618(13) 0.60382(13)
C6_14 C 0.2721(2) 0.8863(2) 0.6137(2)
C7_14 C 0.2977(3) 0.8782(2) 0.6218(2)
C8_14 C 0.3246(2) 0.8642(2) 0.6358(2)
C9_14 C 0.3380(2) 0.8768(2) 0.6620(2)
H3_14 H 0.3289 0.8948 0.6711
O8_14 O 0.11226(7) 0.96742(6) 0.65803(6)
O12_14 O 0.38774(7) 0.65803(6) 0.53258(6)
O13_14 O 0.46742(6) 0.65803(6) 0.61226(7)
O19_14 O 0.14921(6) 0.96735(6) 0.69469(7)
O20_14 O 0.19469(7) 0.85079(6) 0.53265(6)
O21_14 O 0.46735(6) 0.85079(6) 0.80531(7)
O23_14 O 0.35079(6) 0.69469(7) 0.53265(6)
O24_14 O 0.46735(6) 0.69469(7) 0.64921(6)
C10_14 C 0.18272(9) 0.87565(9) 0.54216(8)
C11_14 C 0.45784(8) 0.87565(9) 0.81728(9)
C12_14 C 0.37565(9) 0.95784(8) 0.81728(9)
C13_14 C 0.37565(9) 0.68272(9) 0.54216(8)
C14_14 C 0.45784(8) 0.68272(9) 0.62435(9)
C15_14 C 0.19884(9) 0.89227(9) 0.56824(9)
C16_14 C 0.43176(9) 0.89227(9) 0.80116(9)
C17_14 C 0.39227(9) 0.93176(9) 0.80116(9)
C18_14 C 0.39227(9) 0.69884(9) 0.56824(9)
C19_14 C 0.43176(9) 0.69884(9) 0.60773(9)
C20_14 C 0.41751(8) 0.91751(8) 0.81536(12)
C21_14 C 0.41751(8) 0.68464(12) 0.58249(8)
H4_14 H 0.4250 0.9250 0.8348
H5_14 H 0.4250 0.6652 0.5750
C22_14 C 0.22790(11) 0.88198(11) 0.57824(10)
C23_14 C 0.42176(10) 0.88198(11) 0.77210(11)
C24_14 C 0.38198(11) 0.92176(10) 0.77210(11)
C25_14 C 0.38198(11) 0.72790(11) 0.57824(10)
C26_14 C 0.42176(10) 0.72790(11) 0.61802(11)
H6_14 H 0.2382 0.8655 0.5677
H7_14 H 0.4323 0.8655 0.7618
H8_14 H 0.3655 0.9323 0.7618
H9_14 H 0.3655 0.7382 0.5677
H10_14 H 0.4323 0.7382 0.6345
C27_14 C 0.39618(13) 0.89618(13) 0.75846(16)
C28_14 C 0.39618(13) 0.74154(16) 0.60382(13)
C29_14 C 0.3863(2) 0.8863(2) 0.7279(2)
C30_14 C 0.3863(2) 0.7721(2) 0.6137(2)
C31_14 C 0.3782(2) 0.8782(2) 0.7023(3)
C32_14 C 0.3782(2) 0.7977(3) 0.6218(2)
C33_14 C 0.3642(2) 0.8642(2) 0.6754(2)
C34_14 C 0.3642(2) 0.8246(2) 0.6358(2)
C35_14 C 0.3380(2) 0.8380(2) 0.6232(2)
C36_14 C 0.3768(2) 0.8380(2) 0.6620(2)
H11_14 H 0.3289 0.8289 0.6052
H12_14 H 0.3948 0.8289 0.6711
O1_29 O 0.90408(8) -0.0000 0.40408(8)
O2_29 O 0.78863(7) 0.0000 0.28863(7)
O6_15 O 0.88774(7) 0.03258(6) 0.34197(6)
O17_15 O 0.85079(6) 0.03265(6) 0.30531(7)
O1_30 O 0.90408(8) 1.0000 0.40408(8)
O2_30 O 0.78863(7) 1.0000 0.28863(7)
O3_15 O 0.84197(6) 0.96742(6) 0.38774(7)
O4_15 O 0.80531(7) 0.96735(6) 0.35079(6)
C1_15 C 0.81728(9) 0.95784(8) 0.37565(9)
C2_15 C 0.80116(9) 0.93176(9) 0.39227(9)
C3_15 C 0.81536(12) 0.91751(8) 0.41751(8)
H1_15 H 0.8348 0.9250 0.4250
C4_15 C 0.77210(11) 0.92176(10) 0.38198(11)
H2_15 H 0.7618 0.9323 0.3655
C5_15 C 0.75846(16) 0.89618(13) 0.39618(13)
C6_15 C 0.7279(2) 0.8863(2) 0.3863(2)
C7_15 C 0.7023(3) 0.8782(2) 0.3782(2)
C8_15 C 0.6754(2) 0.8642(2) 0.3642(2)
C9_15 C 0.6620(2) 0.8768(2) 0.3380(2)
H3_15 H 0.6711 0.8948 0.3289
O8_15 O 0.88774(7) 0.96742(6) 0.34197(6)
O12_15 O 0.61226(7) 0.65803(6) 0.46742(6)
O13_15 O 0.53258(6) 0.65803(6) 0.38774(7)
O19_15 O 0.85079(6) 0.96735(6) 0.30531(7)
O20_15 O 0.80531(7) 0.85079(6) 0.46735(6)
O21_15 O 0.53265(6) 0.85079(6) 0.19469(7)
O23_15 O 0.64921(6) 0.69469(7) 0.46735(6)
O24_15 O 0.53265(6) 0.69469(7) 0.35079(6)
C10_15 C 0.81728(9) 0.87565(9) 0.45784(8)
C11_15 C 0.54216(8) 0.87565(9) 0.18272(9)
C12_15 C 0.62435(9) 0.95784(8) 0.18272(9)
C13_15 C 0.62435(9) 0.68272(9) 0.45784(8)
C14_15 C 0.54216(8) 0.68272(9) 0.37565(9)
C15_15 C 0.80116(9) 0.89227(9) 0.43176(9)
C16_15 C 0.56824(9) 0.89227(9) 0.19884(9)
C17_15 C 0.60773(9) 0.93176(9) 0.19884(9)
C18_15 C 0.60773(9) 0.69884(9) 0.43176(9)
C19_15 C 0.56824(9) 0.69884(9) 0.39227(9)
C20_15 C 0.58249(8) 0.91751(8) 0.18464(12)
C21_15 C 0.58249(8) 0.68464(12) 0.41751(8)
H4_15 H 0.5750 0.9250 0.1652
H5_15 H 0.5750 0.6652 0.4250
C22_15 C 0.77210(11) 0.88198(11) 0.42176(10)
C23_15 C 0.57824(10) 0.88198(11) 0.22790(11)
C24_15 C 0.61802(11) 0.92176(10) 0.22790(11)
C25_15 C 0.61802(11) 0.72790(11) 0.42176(10)
C26_15 C 0.57824(10) 0.72790(11) 0.38198(11)
H6_15 H 0.7618 0.8655 0.4323
H7_15 H 0.5677 0.8655 0.2382
H8_15 H 0.6345 0.9323 0.2382
H9_15 H 0.6345 0.7382 0.4323
H10_15 H 0.5677 0.7382 0.3655
C27_15 C 0.60382(13) 0.89618(13) 0.24154(16)
C28_15 C 0.60382(13) 0.74154(16) 0.39618(13)
C29_15 C 0.6137(2) 0.8863(2) 0.2721(2)
C30_15 C 0.6137(2) 0.7721(2) 0.3863(2)
C31_15 C 0.6218(2) 0.8782(2) 0.2977(3)
C32_15 C 0.6218(2) 0.7977(3) 0.3782(2)
C33_15 C 0.6358(2) 0.8642(2) 0.3246(2)
C34_15 C 0.6358(2) 0.8246(2) 0.3642(2)
C35_15 C 0.6620(2) 0.8380(2) 0.3768(2)
C36_15 C 0.6232(2) 0.8380(2) 0.3380(2)
H11_15 H 0.6711 0.8289 0.3948
H12_15 H 0.6052 0.8289 0.3289
O1_31 O 0.09592(8) 0.0000 0.40408(8)
O2_31 O 0.21137(7) 0.0000 0.28863(7)
O3_16 O 0.15803(6) 0.03258(6) 0.38774(7)
O4_16 O 0.19469(7) 0.03265(6) 0.35079(6)
C1_16 C 0.18272(9) 0.04216(8) 0.37565(9)
C2_16 C 0.19884(9) 0.06824(9) 0.39227(9)
C3_16 C 0.18464(12) 0.08249(8) 0.41751(8)
H1_16 H 0.1652 0.0750 0.4250
C4_16 C 0.22790(11) 0.07824(10) 0.38198(11)
H2_16 H 0.2382 0.0677 0.3655
C5_16 C 0.24154(16) 0.10382(13) 0.39618(13)
C6_16 C 0.2721(2) 0.1137(2) 0.3863(2)
C7_16 C 0.2977(3) 0.1218(2) 0.3782(2)
C8_16 C 0.3246(2) 0.1358(2) 0.3642(2)
C9_16 C 0.3380(2) 0.1232(2) 0.3380(2)
H3_16 H 0.3289 0.1052 0.3289
O8_16 O 0.11226(7) 0.03258(6) 0.34197(6)
O12_16 O 0.38774(7) 0.34197(6) 0.46742(6)
O13_16 O 0.46742(6) 0.34197(6) 0.38774(7)
O19_16 O 0.14921(6) 0.03265(6) 0.30531(7)
O20_16 O 0.19469(7) 0.14921(6) 0.46735(6)
O21_16 O 0.46735(6) 0.14921(6) 0.19469(7)
O23_16 O 0.35079(6) 0.30531(7) 0.46735(6)
O24_16 O 0.46735(6) 0.30531(7) 0.35079(6)
C10_16 C 0.18272(9) 0.12435(9) 0.45784(8)
C11_16 C 0.45784(8) 0.12435(9) 0.18272(9)
C12_16 C 0.37565(9) 0.04216(8) 0.18272(9)
C13_16 C 0.37565(9) 0.31728(9) 0.45784(8)
C14_16 C 0.45784(8) 0.31728(9) 0.37565(9)
C15_16 C 0.19884(9) 0.10773(9) 0.43176(9)
C16_16 C 0.43176(9) 0.10773(9) 0.19884(9)
C17_16 C 0.39227(9) 0.06824(9) 0.19884(9)
C18_16 C 0.39227(9) 0.30116(9) 0.43176(9)
C19_16 C 0.43176(9) 0.30116(9) 0.39227(9)
C20_16 C 0.41751(8) 0.08249(8) 0.18464(12)
C21_16 C 0.41751(8) 0.31536(12) 0.41751(8)
H4_16 H 0.4250 0.0750 0.1652
H5_16 H 0.4250 0.3348 0.4250
C22_16 C 0.22790(11) 0.11802(11) 0.42176(10)
C23_16 C 0.42176(10) 0.11802(11) 0.22790(11)
C24_16 C 0.38198(11) 0.07824(10) 0.22790(11)
C25_16 C 0.38198(11) 0.27210(11) 0.42176(10)
C26_16 C 0.42176(10) 0.27210(11) 0.38198(11)
H6_16 H 0.2382 0.1345 0.4323
H7_16 H 0.4323 0.1345 0.2382
H8_16 H 0.3655 0.0677 0.2382
H9_16 H 0.3655 0.2618 0.4323
H10_16 H 0.4323 0.2618 0.3655
C27_16 C 0.39618(13) 0.10382(13) 0.24154(16)
C28_16 C 0.39618(13) 0.25846(16) 0.39618(13)
C29_16 C 0.3863(2) 0.1137(2) 0.2721(2)
C30_16 C 0.3863(2) 0.2279(2) 0.3863(2)
C31_16 C 0.3782(2) 0.1218(2) 0.2977(3)
C32_16 C 0.3782(2) 0.2023(3) 0.3782(2)
C33_16 C 0.3642(2) 0.1358(2) 0.3246(2)
C34_16 C 0.3642(2) 0.1754(2) 0.3642(2)
C35_16 C 0.3380(2) 0.1620(2) 0.3768(2)
C36_16 C 0.3768(2) 0.1620(2) 0.3380(2)
H11_16 H 0.3289 0.1711 0.3948
H12_16 H 0.3948 0.1711 0.3289
O1_32 O 0.09592(8) 1.0000 0.40408(8)
O2_32 O 0.21137(7) 1.0000 0.28863(7)
O6_16 O 0.11226(7) 0.96742(6) 0.34197(6)
O17_16 O 0.14921(6) 0.96735(6) 0.30531(7)
O1_33 O 0.0000 0.40408(8) 0.09592(8)
O2_33 O 0.0000 0.28863(7) 0.21137(7)
O3_17 O 0.03258(6) 0.38774(7) 0.15803(6)
O4_17 O 0.03265(6) 0.35079(6) 0.19469(7)
C1_17 C 0.04216(8) 0.37565(9) 0.18272(9)
C2_17 C 0.06824(9) 0.39227(9) 0.19884(9)
C3_17 C 0.08249(8) 0.41751(8) 0.18464(12)
H1_17 H 0.0750 0.4250 0.1652
C4_17 C 0.07824(10) 0.38198(11) 0.22790(11)
H2_17 H 0.0677 0.3655 0.2382
C5_17 C 0.10382(13) 0.39618(13) 0.24154(16)
C6_17 C 0.1137(2) 0.3863(2) 0.2721(2)
C7_17 C 0.1218(2) 0.3782(2) 0.2977(3)
C8_17 C 0.1358(2) 0.3642(2) 0.3246(2)
C9_17 C 0.1232(2) 0.3380(2) 0.3380(2)
H3_17 H 0.1052 0.3289 0.3289
O8_17 O 0.03258(6) 0.34197(6) 0.11226(7)
O12_17 O 0.34197(6) 0.46742(6) 0.38774(7)
O13_17 O 0.34197(6) 0.38774(7) 0.46742(6)
O19_17 O 0.03265(6) 0.30531(7) 0.14921(6)
O20_17 O 0.14921(6) 0.46735(6) 0.19469(7)
O21_17 O 0.14921(6) 0.19469(7) 0.46735(6)
O23_17 O 0.30531(7) 0.46735(6) 0.35079(6)
O24_17 O 0.30531(7) 0.35079(6) 0.46735(6)
C10_17 C 0.12435(9) 0.45784(8) 0.18272(9)
C11_17 C 0.12435(9) 0.18272(9) 0.45784(8)
C12_17 C 0.04216(8) 0.18272(9) 0.37565(9)
C13_17 C 0.31728(9) 0.45784(8) 0.37565(9)
C14_17 C 0.31728(9) 0.37565(9) 0.45784(8)
C15_17 C 0.10773(9) 0.43176(9) 0.19884(9)
C16_17 C 0.10773(9) 0.19884(9) 0.43176(9)
C17_17 C 0.06824(9) 0.19884(9) 0.39227(9)
C18_17 C 0.30116(9) 0.43176(9) 0.39227(9)
C19_17 C 0.30116(9) 0.39227(9) 0.43176(9)
C20_17 C 0.08249(8) 0.18464(12) 0.41751(8)
C21_17 C 0.31536(12) 0.41751(8) 0.41751(8)
H4_17 H 0.0750 0.1652 0.4250
H5_17 H 0.3348 0.4250 0.4250
C22_17 C 0.11802(11) 0.42176(10) 0.22790(11)
C23_17 C 0.11802(11) 0.22790(11) 0.42176(10)
C24_17 C 0.07824(10) 0.22790(11) 0.38198(11)
C25_17 C 0.27210(11) 0.42176(10) 0.38198(11)
C26_17 C 0.27210(11) 0.38198(11) 0.42176(10)
H6_17 H 0.1345 0.4323 0.2382
H7_17 H 0.1345 0.2382 0.4323
H8_17 H 0.0677 0.2382 0.3655
H9_17 H 0.2618 0.4323 0.3655
H10_17 H 0.2618 0.3655 0.4323
C27_17 C 0.10382(13) 0.24154(16) 0.39618(13)
C28_17 C 0.25846(16) 0.39618(13) 0.39618(13)
C29_17 C 0.1137(2) 0.2721(2) 0.3863(2)
C30_17 C 0.2279(2) 0.3863(2) 0.3863(2)
C31_17 C 0.1218(2) 0.2977(3) 0.3782(2)
C32_17 C 0.2023(3) 0.3782(2) 0.3782(2)
C33_17 C 0.1358(2) 0.3246(2) 0.3642(2)
C34_17 C 0.1754(2) 0.3642(2) 0.3642(2)
C35_17 C 0.1620(2) 0.3768(2) 0.3380(2)
C36_17 C 0.1620(2) 0.3380(2) 0.3768(2)
H11_17 H 0.1711 0.3948 0.3289
H12_17 H 0.1711 0.3289 0.3948
O1_34 O 1.0000 0.40408(8) 0.09592(8)
O2_34 O 1.0000 0.28863(7) 0.21137(7)
O6_17 O 0.96742(6) 0.34197(6) 0.11226(7)
O17_17 O 0.96735(6) 0.30531(7) 0.14921(6)
O1_35 O -0.0000 0.40408(8) 0.90408(8)
O2_35 O 0.0000 0.28863(7) 0.78863(7)
O6_18 O 0.03258(6) 0.34197(6) 0.88774(7)
O17_18 O 0.03265(6) 0.30531(7) 0.85079(6)
O1_36 O 1.0000 0.40408(8) 0.90408(8)
O2_36 O 1.0000 0.28863(7) 0.78863(7)
O3_18 O 0.96742(6) 0.38774(7) 0.84197(6)
O4_18 O 0.96735(6) 0.35079(6) 0.80531(7)
C1_18 C 0.95784(8) 0.37565(9) 0.81728(9)
C2_18 C 0.93176(9) 0.39227(9) 0.80116(9)
C3_18 C 0.91751(8) 0.41751(8) 0.81536(12)
H1_18 H 0.9250 0.4250 0.8348
C4_18 C 0.92176(10) 0.38198(11) 0.77210(11)
H2_18 H 0.9323 0.3655 0.7618
C5_18 C 0.89618(13) 0.39618(13) 0.75846(16)
C6_18 C 0.8863(2) 0.3863(2) 0.7279(2)
C7_18 C 0.8782(2) 0.3782(2) 0.7023(3)
C8_18 C 0.8642(2) 0.3642(2) 0.6754(2)
C9_18 C 0.8768(2) 0.3380(2) 0.6620(2)
H3_18 H 0.8948 0.3289 0.6711
O8_18 O 0.96742(6) 0.34197(6) 0.88774(7)
O12_18 O 0.65803(6) 0.46742(6) 0.61226(7)
O13_18 O 0.65803(6) 0.38774(7) 0.53258(6)
O19_18 O 0.96735(6) 0.30531(7) 0.85079(6)
O20_18 O 0.85079(6) 0.46735(6) 0.80531(7)
O21_18 O 0.85079(6) 0.19469(7) 0.53265(6)
O23_18 O 0.69469(7) 0.46735(6) 0.64921(6)
O24_18 O 0.69469(7) 0.35079(6) 0.53265(6)
C10_18 C 0.87565(9) 0.45784(8) 0.81728(9)
C11_18 C 0.87565(9) 0.18272(9) 0.54216(8)
C12_18 C 0.95784(8) 0.18272(9) 0.62435(9)
C13_18 C 0.68272(9) 0.45784(8) 0.62435(9)
C14_18 C 0.68272(9) 0.37565(9) 0.54216(8)
C15_18 C 0.89227(9) 0.43176(9) 0.80116(9)
C16_18 C 0.89227(9) 0.19884(9) 0.56824(9)
C17_18 C 0.93176(9) 0.19884(9) 0.60773(9)
C18_18 C 0.69884(9) 0.43176(9) 0.60773(9)
C19_18 C 0.69884(9) 0.39227(9) 0.56824(9)
C20_18 C 0.91751(8) 0.18464(12) 0.58249(8)
C21_18 C 0.68464(12) 0.41751(8) 0.58249(8)
H4_18 H 0.9250 0.1652 0.5750
H5_18 H 0.6652 0.4250 0.5750
C22_18 C 0.88198(11) 0.42176(10) 0.77210(11)
C23_18 C 0.88198(11) 0.22790(11) 0.57824(10)
C24_18 C 0.92176(10) 0.22790(11) 0.61802(11)
C25_18 C 0.72790(11) 0.42176(10) 0.61802(11)
C26_18 C 0.72790(11) 0.38198(11) 0.57824(10)
H6_18 H 0.8655 0.4323 0.7618
H7_18 H 0.8655 0.2382 0.5677
H8_18 H 0.9323 0.2382 0.6345
H9_18 H 0.7382 0.4323 0.6345
H10_18 H 0.7382 0.3655 0.5677
C27_18 C 0.89618(13) 0.24154(16) 0.60382(13)
C28_18 C 0.74154(16) 0.39618(13) 0.60382(13)
C29_18 C 0.8863(2) 0.2721(2) 0.6137(2)
C30_18 C 0.7721(2) 0.3863(2) 0.6137(2)
C31_18 C 0.8782(2) 0.2977(3) 0.6218(2)
C32_18 C 0.7977(3) 0.3782(2) 0.6218(2)
C33_18 C 0.8642(2) 0.3246(2) 0.6358(2)
C34_18 C 0.8246(2) 0.3642(2) 0.6358(2)
C35_18 C 0.8380(2) 0.3768(2) 0.6620(2)
C36_18 C 0.8380(2) 0.3380(2) 0.6232(2)
H11_18 H 0.8289 0.3948 0.6711
H12_18 H 0.8289 0.3289 0.6052
O1_37 O -0.0000 0.59592(8) 0.09592(8)
O2_37 O 0.0000 0.71137(7) 0.21137(7)
O6_19 O 0.03258(6) 0.65803(6) 0.11226(7)
O17_19 O 0.03265(6) 0.69469(7) 0.14921(6)
O1_38 O 1.0000 0.59592(8) 0.09592(8)
O2_38 O 1.0000 0.71137(7) 0.21137(7)
O3_19 O 0.96742(6) 0.61226(7) 0.15803(6)
O4_19 O 0.96735(6) 0.64921(6) 0.19469(7)
C1_19 C 0.95784(8) 0.62435(9) 0.18272(9)
C2_19 C 0.93176(9) 0.60773(9) 0.19884(9)
C3_19 C 0.91751(8) 0.58249(8) 0.18464(12)
H1_19 H 0.9250 0.5750 0.1652
C4_19 C 0.92176(10) 0.61802(11) 0.22790(11)
H2_19 H 0.9323 0.6345 0.2382
C5_19 C 0.89618(13) 0.60382(13) 0.24154(16)
C6_19 C 0.8863(2) 0.6137(2) 0.2721(2)
C7_19 C 0.8782(2) 0.6218(2) 0.2977(3)
C8_19 C 0.8642(2) 0.6358(2) 0.3246(2)
C9_19 C 0.8768(2) 0.6620(2) 0.3380(2)
H3_19 H 0.8948 0.6711 0.3289
O8_19 O 0.96742(6) 0.65803(6) 0.11226(7)
O12_19 O 0.65803(6) 0.53258(6) 0.38774(7)
O13_19 O 0.65803(6) 0.61226(7) 0.46742(6)
O19_19 O 0.96735(6) 0.69469(7) 0.14921(6)
O20_19 O 0.85079(6) 0.53265(6) 0.19469(7)
O21_19 O 0.85079(6) 0.80531(7) 0.46735(6)
O23_19 O 0.69469(7) 0.53265(6) 0.35079(6)
O24_19 O 0.69469(7) 0.64921(6) 0.46735(6)
C10_19 C 0.87565(9) 0.54216(8) 0.18272(9)
C11_19 C 0.87565(9) 0.81728(9) 0.45784(8)
C12_19 C 0.95784(8) 0.81728(9) 0.37565(9)
C13_19 C 0.68272(9) 0.54216(8) 0.37565(9)
C14_19 C 0.68272(9) 0.62435(9) 0.45784(8)
C15_19 C 0.89227(9) 0.56824(9) 0.19884(9)
C16_19 C 0.89227(9) 0.80116(9) 0.43176(9)
C17_19 C 0.93176(9) 0.80116(9) 0.39227(9)
C18_19 C 0.69884(9) 0.56824(9) 0.39227(9)
C19_19 C 0.69884(9) 0.60773(9) 0.43176(9)
C20_19 C 0.91751(8) 0.81536(12) 0.41751(8)
C21_19 C 0.68464(12) 0.58249(8) 0.41751(8)
H4_19 H 0.9250 0.8348 0.4250
H5_19 H 0.6652 0.5750 0.4250
C22_19 C 0.88198(11) 0.57824(10) 0.22790(11)
C23_19 C 0.88198(11) 0.77210(11) 0.42176(10)
C24_19 C 0.92176(10) 0.77210(11) 0.38198(11)
C25_19 C 0.72790(11) 0.57824(10) 0.38198(11)
C26_19 C 0.72790(11) 0.61802(11) 0.42176(10)
H6_19 H 0.8655 0.5677 0.2382
H7_19 H 0.8655 0.7618 0.4323
H8_19 H 0.9323 0.7618 0.3655
H9_19 H 0.7382 0.5677 0.3655
H10_19 H 0.7382 0.6345 0.4323
C27_19 C 0.89618(13) 0.75846(16) 0.39618(13)
C28_19 C 0.74154(16) 0.60382(13) 0.39618(13)
C29_19 C 0.8863(2) 0.7279(2) 0.3863(2)
C30_19 C 0.7721(2) 0.6137(2) 0.3863(2)
C31_19 C 0.8782(2) 0.7023(3) 0.3782(2)
C32_19 C 0.7977(3) 0.6218(2) 0.3782(2)
C33_19 C 0.8642(2) 0.6754(2) 0.3642(2)
C34_19 C 0.8246(2) 0.6358(2) 0.3642(2)
C35_19 C 0.8380(2) 0.6232(2) 0.3380(2)
C36_19 C 0.8380(2) 0.6620(2) 0.3768(2)
H11_19 H 0.8289 0.6052 0.3289
H12_19 H 0.8289 0.6711 0.3948
O1_39 O 0.0000 0.59592(8) 0.90408(8)
O2_39 O -0.0000 0.71137(7) 0.78863(7)
O3_20 O 0.03258(6) 0.61226(7) 0.84197(6)
O4_20 O 0.03265(6) 0.64921(6) 0.80531(7)
C1_20 C 0.04216(8) 0.62435(9) 0.81728(9)
C2_20 C 0.06824(9) 0.60773(9) 0.80116(9)
C3_20 C 0.08249(8) 0.58249(8) 0.81536(12)
H1_20 H 0.0750 0.5750 0.8348
C4_20 C 0.07824(10) 0.61802(11) 0.77210(11)
H2_20 H 0.0677 0.6345 0.7618
C5_20 C 0.10382(13) 0.60382(13) 0.75846(16)
C6_20 C 0.1137(2) 0.6137(2) 0.7279(2)
C7_20 C 0.1218(2) 0.6218(2) 0.7023(3)
C8_20 C 0.1358(2) 0.6358(2) 0.6754(2)
C9_20 C 0.1232(2) 0.6620(2) 0.6620(2)
H3_20 H 0.1052 0.6711 0.6711
O8_20 O 0.03258(6) 0.65803(6) 0.88774(7)
O12_20 O 0.34197(6) 0.53258(6) 0.61226(7)
O13_20 O 0.34197(6) 0.61226(7) 0.53258(6)
O19_20 O 0.03265(6) 0.69469(7) 0.85079(6)
O20_20 O 0.14921(6) 0.53265(6) 0.80531(7)
O21_20 O 0.14921(6) 0.80531(7) 0.53265(6)
O23_20 O 0.30531(7) 0.53265(6) 0.64921(6)
O24_20 O 0.30531(7) 0.64921(6) 0.53265(6)
C10_20 C 0.12435(9) 0.54216(8) 0.81728(9)
C11_20 C 0.12435(9) 0.81728(9) 0.54216(8)
C12_20 C 0.04216(8) 0.81728(9) 0.62435(9)
C13_20 C 0.31728(9) 0.54216(8) 0.62435(9)
C14_20 C 0.31728(9) 0.62435(9) 0.54216(8)
C15_20 C 0.10773(9) 0.56824(9) 0.80116(9)
C16_20 C 0.10773(9) 0.80116(9) 0.56824(9)
C17_20 C 0.06824(9) 0.80116(9) 0.60773(9)
C18_20 C 0.30116(9) 0.56824(9) 0.60773(9)
C19_20 C 0.30116(9) 0.60773(9) 0.56824(9)
C20_20 C 0.08249(8) 0.81536(12) 0.58249(8)
C21_20 C 0.31536(12) 0.58249(8) 0.58249(8)
H4_20 H 0.0750 0.8348 0.5750
H5_20 H 0.3348 0.5750 0.5750
C22_20 C 0.11802(11) 0.57824(10) 0.77210(11)
C23_20 C 0.11802(11) 0.77210(11) 0.57824(10)
C24_20 C 0.07824(10) 0.77210(11) 0.61802(11)
C25_20 C 0.27210(11) 0.57824(10) 0.61802(11)
C26_20 C 0.27210(11) 0.61802(11) 0.57824(10)
H6_20 H 0.1345 0.5677 0.7618
H7_20 H 0.1345 0.7618 0.5677
H8_20 H 0.0677 0.7618 0.6345
H9_20 H 0.2618 0.5677 0.6345
H10_20 H 0.2618 0.6345 0.5677
C27_20 C 0.10382(13) 0.75846(16) 0.60382(13)
C28_20 C 0.25846(16) 0.60382(13) 0.60382(13)
C29_20 C 0.1137(2) 0.7279(2) 0.6137(2)
C30_20 C 0.2279(2) 0.6137(2) 0.6137(2)
C31_20 C 0.1218(2) 0.7023(3) 0.6218(2)
C32_20 C 0.2023(3) 0.6218(2) 0.6218(2)
C33_20 C 0.1358(2) 0.6754(2) 0.6358(2)
C34_20 C 0.1754(2) 0.6358(2) 0.6358(2)
C35_20 C 0.1620(2) 0.6232(2) 0.6620(2)
C36_20 C 0.1620(2) 0.6620(2) 0.6232(2)
H11_20 H 0.1711 0.6052 0.6711
H12_20 H 0.1711 0.6711 0.6052
O1_40 O 1.0000 0.59592(8) 0.90408(8)
O2_40 O 1.0000 0.71137(7) 0.78863(7)
O6_20 O 0.96742(6) 0.65803(6) 0.88774(7)
O17_20 O 0.96735(6) 0.69469(7) 0.85079(6)
O1_41 O 0.40408(8) 0.90408(8) -0.0000
O2_41 O 0.28863(7) 0.78863(7) 0.0000
O6_21 O 0.34197(6) 0.88774(7) 0.03258(6)
O17_21 O 0.30531(7) 0.85079(6) 0.03265(6)
O1_42 O 0.40408(8) 0.90408(8) 1.0000
O2_42 O 0.28863(7) 0.78863(7) 1.0000
O3_21 O 0.38774(7) 0.84197(6) 0.96742(6)
O4_21 O 0.35079(6) 0.80531(7) 0.96735(6)
C1_21 C 0.37565(9) 0.81728(9) 0.95784(8)
C2_21 C 0.39227(9) 0.80116(9) 0.93176(9)
C3_21 C 0.41751(8) 0.81536(12) 0.91751(8)
H1_21 H 0.4250 0.8348 0.9250
C4_21 C 0.38198(11) 0.77210(11) 0.92176(10)
H2_21 H 0.3655 0.7618 0.9323
C5_21 C 0.39618(13) 0.75846(16) 0.89618(13)
C6_21 C 0.3863(2) 0.7279(2) 0.8863(2)
C7_21 C 0.3782(2) 0.7023(3) 0.8782(2)
C8_21 C 0.3642(2) 0.6754(2) 0.8642(2)
C9_21 C 0.3380(2) 0.6620(2) 0.8768(2)
H3_21 H 0.3289 0.6711 0.8948
O8_21 O 0.34197(6) 0.88774(7) 0.96742(6)
O12_21 O 0.46742(6) 0.61226(7) 0.65803(6)
O13_21 O 0.38774(7) 0.53258(6) 0.65803(6)
O19_21 O 0.30531(7) 0.85079(6) 0.96735(6)
O20_21 O 0.46735(6) 0.80531(7) 0.85079(6)
O21_21 O 0.19469(7) 0.53265(6) 0.85079(6)
O23_21 O 0.46735(6) 0.64921(6) 0.69469(7)
O24_21 O 0.35079(6) 0.53265(6) 0.69469(7)
C10_21 C 0.45784(8) 0.81728(9) 0.87565(9)
C11_21 C 0.18272(9) 0.54216(8) 0.87565(9)
C12_21 C 0.18272(9) 0.62435(9) 0.95784(8)
C13_21 C 0.45784(8) 0.62435(9) 0.68272(9)
C14_21 C 0.37565(9) 0.54216(8) 0.68272(9)
C15_21 C 0.43176(9) 0.80116(9) 0.89227(9)
C16_21 C 0.19884(9) 0.56824(9) 0.89227(9)
C17_21 C 0.19884(9) 0.60773(9) 0.93176(9)
C18_21 C 0.43176(9) 0.60773(9) 0.69884(9)
C19_21 C 0.39227(9) 0.56824(9) 0.69884(9)
C20_21 C 0.18464(12) 0.58249(8) 0.91751(8)
C21_21 C 0.41751(8) 0.58249(8) 0.68464(12)
H4_21 H 0.1652 0.5750 0.9250
H5_21 H 0.4250 0.5750 0.6652
C22_21 C 0.42176(10) 0.77210(11) 0.88198(11)
C23_21 C 0.22790(11) 0.57824(10) 0.88198(11)
C24_21 C 0.22790(11) 0.61802(11) 0.92176(10)
C25_21 C 0.42176(10) 0.61802(11) 0.72790(11)
C26_21 C 0.38198(11) 0.57824(10) 0.72790(11)
H6_21 H 0.4323 0.7618 0.8655
H7_21 H 0.2382 0.5677 0.8655
H8_21 H 0.2382 0.6345 0.9323
H9_21 H 0.4323 0.6345 0.7382
H10_21 H 0.3655 0.5677 0.7382
C27_21 C 0.24154(16) 0.60382(13) 0.89618(13)
C28_21 C 0.39618(13) 0.60382(13) 0.74154(16)
C29_21 C 0.2721(2) 0.6137(2) 0.8863(2)
C30_21 C 0.3863(2) 0.6137(2) 0.7721(2)
C31_21 C 0.2977(3) 0.6218(2) 0.8782(2)
C32_21 C 0.3782(2) 0.6218(2) 0.7977(3)
C33_21 C 0.3246(2) 0.6358(2) 0.8642(2)
C34_21 C 0.3642(2) 0.6358(2) 0.8246(2)
C35_21 C 0.3768(2) 0.6620(2) 0.8380(2)
C36_21 C 0.3380(2) 0.6232(2) 0.8380(2)
H11_21 H 0.3948 0.6711 0.8289
H12_21 H 0.3289 0.6052 0.8289
O1_43 O 0.40408(8) 0.09592(8) 0.0000
O2_43 O 0.28863(7) 0.21137(7) 0.0000
O3_22 O 0.38774(7) 0.15803(6) 0.03258(6)
O4_22 O 0.35079(6) 0.19469(7) 0.03265(6)
C1_22 C 0.37565(9) 0.18272(9) 0.04216(8)
C2_22 C 0.39227(9) 0.19884(9) 0.06824(9)
C3_22 C 0.41751(8) 0.18464(12) 0.08249(8)
H1_22 H 0.4250 0.1652 0.0750
C4_22 C 0.38198(11) 0.22790(11) 0.07824(10)
H2_22 H 0.3655 0.2382 0.0677
C5_22 C 0.39618(13) 0.24154(16) 0.10382(13)
C6_22 C 0.3863(2) 0.2721(2) 0.1137(2)
C7_22 C 0.3782(2) 0.2977(3) 0.1218(2)
C8_22 C 0.3642(2) 0.3246(2) 0.1358(2)
C9_22 C 0.3380(2) 0.3380(2) 0.1232(2)
H3_22 H 0.3289 0.3289 0.1052
O8_22 O 0.34197(6) 0.11226(7) 0.03258(6)
O12_22 O 0.46742(6) 0.38774(7) 0.34197(6)
O13_22 O 0.38774(7) 0.46742(6) 0.34197(6)
O19_22 O 0.30531(7) 0.14921(6) 0.03265(6)
O20_22 O 0.46735(6) 0.19469(7) 0.14921(6)
O21_22 O 0.19469(7) 0.46735(6) 0.14921(6)
O23_22 O 0.46735(6) 0.35079(6) 0.30531(7)
O24_22 O 0.35079(6) 0.46735(6) 0.30531(7)
C10_22 C 0.45784(8) 0.18272(9) 0.12435(9)
C11_22 C 0.18272(9) 0.45784(8) 0.12435(9)
C12_22 C 0.18272(9) 0.37565(9) 0.04216(8)
C13_22 C 0.45784(8) 0.37565(9) 0.31728(9)
C14_22 C 0.37565(9) 0.45784(8) 0.31728(9)
C15_22 C 0.43176(9) 0.19884(9) 0.10773(9)
C16_22 C 0.19884(9) 0.43176(9) 0.10773(9)
C17_22 C 0.19884(9) 0.39227(9) 0.06824(9)
C18_22 C 0.43176(9) 0.39227(9) 0.30116(9)
C19_22 C 0.39227(9) 0.43176(9) 0.30116(9)
C20_22 C 0.18464(12) 0.41751(8) 0.08249(8)
C21_22 C 0.41751(8) 0.41751(8) 0.31536(12)
H4_22 H 0.1652 0.4250 0.0750
H5_22 H 0.4250 0.4250 0.3348
C22_22 C 0.42176(10) 0.22790(11) 0.11802(11)
C23_22 C 0.22790(11) 0.42176(10) 0.11802(11)
C24_22 C 0.22790(11) 0.38198(11) 0.07824(10)
C25_22 C 0.42176(10) 0.38198(11) 0.27210(11)
C26_22 C 0.38198(11) 0.42176(10) 0.27210(11)
H6_22 H 0.4323 0.2382 0.1345
H7_22 H 0.2382 0.4323 0.1345
H8_22 H 0.2382 0.3655 0.0677
H9_22 H 0.4323 0.3655 0.2618
H10_22 H 0.3655 0.4323 0.2618
C27_22 C 0.24154(16) 0.39618(13) 0.10382(13)
C28_22 C 0.39618(13) 0.39618(13) 0.25846(16)
C29_22 C 0.2721(2) 0.3863(2) 0.1137(2)
C30_22 C 0.3863(2) 0.3863(2) 0.2279(2)
C31_22 C 0.2977(3) 0.3782(2) 0.1218(2)
C32_22 C 0.3782(2) 0.3782(2) 0.2023(3)
C33_22 C 0.3246(2) 0.3642(2) 0.1358(2)
C34_22 C 0.3642(2) 0.3642(2) 0.1754(2)
C35_22 C 0.3768(2) 0.3380(2) 0.1620(2)
C36_22 C 0.3380(2) 0.3768(2) 0.1620(2)
H11_22 H 0.3948 0.3289 0.1711
H12_22 H 0.3289 0.3948 0.1711
O1_44 O 0.40408(8) 0.09592(8) 1.0000
O2_44 O 0.28863(7) 0.21137(7) 1.0000
O6_22 O 0.34197(6) 0.11226(7) 0.96742(6)
O17_22 O 0.30531(7) 0.14921(6) 0.96735(6)
O1_45 O 0.59592(8) 0.90408(8) 0.0000
O2_45 O 0.71137(7) 0.78863(7) 0.0000
O3_23 O 0.61226(7) 0.84197(6) 0.03258(6)
O4_23 O 0.64921(6) 0.80531(7) 0.03265(6)
C1_23 C 0.62435(9) 0.81728(9) 0.04216(8)
C2_23 C 0.60773(9) 0.80116(9) 0.06824(9)
C3_23 C 0.58249(8) 0.81536(12) 0.08249(8)
H1_23 H 0.5750 0.8348 0.0750
C4_23 C 0.61802(11) 0.77210(11) 0.07824(10)
H2_23 H 0.6345 0.7618 0.0677
C5_23 C 0.60382(13) 0.75846(16) 0.10382(13)
C6_23 C 0.6137(2) 0.7279(2) 0.1137(2)
C7_23 C 0.6218(2) 0.7023(3) 0.1218(2)
C8_23 C 0.6358(2) 0.6754(2) 0.1358(2)
C9_23 C 0.6620(2) 0.6620(2) 0.1232(2)
H3_23 H 0.6711 0.6711 0.1052
O8_23 O 0.65803(6) 0.88774(7) 0.03258(6)
O12_23 O 0.53258(6) 0.61226(7) 0.34197(6)
O13_23 O 0.61226(7) 0.53258(6) 0.34197(6)
O19_23 O 0.69469(7) 0.85079(6) 0.03265(6)
O20_23 O 0.53265(6) 0.80531(7) 0.14921(6)
O21_23 O 0.80531(7) 0.53265(6) 0.14921(6)
O23_23 O 0.53265(6) 0.64921(6) 0.30531(7)
O24_23 O 0.64921(6) 0.53265(6) 0.30531(7)
C10_23 C 0.54216(8) 0.81728(9) 0.12435(9)
C11_23 C 0.81728(9) 0.54216(8) 0.12435(9)
C12_23 C 0.81728(9) 0.62435(9) 0.04216(8)
C13_23 C 0.54216(8) 0.62435(9) 0.31728(9)
C14_23 C 0.62435(9) 0.54216(8) 0.31728(9)
C15_23 C 0.56824(9) 0.80116(9) 0.10773(9)
C16_23 C 0.80116(9) 0.56824(9) 0.10773(9)
C17_23 C 0.80116(9) 0.60773(9) 0.06824(9)
C18_23 C 0.56824(9) 0.60773(9) 0.30116(9)
C19_23 C 0.60773(9) 0.56824(9) 0.30116(9)
C20_23 C 0.81536(12) 0.58249(8) 0.08249(8)
C21_23 C 0.58249(8) 0.58249(8) 0.31536(12)
H4_23 H 0.8348 0.5750 0.0750
H5_23 H 0.5750 0.5750 0.3348
C22_23 C 0.57824(10) 0.77210(11) 0.11802(11)
C23_23 C 0.77210(11) 0.57824(10) 0.11802(11)
C24_23 C 0.77210(11) 0.61802(11) 0.07824(10)
C25_23 C 0.57824(10) 0.61802(11) 0.27210(11)
C26_23 C 0.61802(11) 0.57824(10) 0.27210(11)
H6_23 H 0.5677 0.7618 0.1345
H7_23 H 0.7618 0.5677 0.1345
H8_23 H 0.7618 0.6345 0.0677
H9_23 H 0.5677 0.6345 0.2618
H10_23 H 0.6345 0.5677 0.2618
C27_23 C 0.75846(16) 0.60382(13) 0.10382(13)
C28_23 C 0.60382(13) 0.60382(13) 0.25846(16)
C29_23 C 0.7279(2) 0.6137(2) 0.1137(2)
C30_23 C 0.6137(2) 0.6137(2) 0.2279(2)
C31_23 C 0.7023(3) 0.6218(2) 0.1218(2)
C32_23 C 0.6218(2) 0.6218(2) 0.2023(3)
C33_23 C 0.6754(2) 0.6358(2) 0.1358(2)
C34_23 C 0.6358(2) 0.6358(2) 0.1754(2)
C35_23 C 0.6232(2) 0.6620(2) 0.1620(2)
C36_23 C 0.6620(2) 0.6232(2) 0.1620(2)
H11_23 H 0.6052 0.6711 0.1711
H12_23 H 0.6711 0.6052 0.1711
O1_46 O 0.59592(8) 0.90408(8) 1.0000
O2_46 O 0.71137(7) 0.78863(7) 1.0000
O6_23 O 0.65803(6) 0.88774(7) 0.96742(6)
O17_23 O 0.69469(7) 0.85079(6) 0.96735(6)
O1_47 O 0.59592(8) 0.09592(8) -0.0000
O2_47 O 0.71137(7) 0.21137(7) 0.0000
O6_24 O 0.65803(6) 0.11226(7) 0.03258(6)
O17_24 O 0.69469(7) 0.14921(6) 0.03265(6)
O1_48 O 0.59592(8) 0.09592(8) 1.0000
O2_48 O 0.71137(7) 0.21137(7) 1.0000
O3_24 O 0.61226(7) 0.15803(6) 0.96742(6)
O4_24 O 0.64921(6) 0.19469(7) 0.96735(6)
C1_24 C 0.62435(9) 0.18272(9) 0.95784(8)
C2_24 C 0.60773(9) 0.19884(9) 0.93176(9)
C3_24 C 0.58249(8) 0.18464(12) 0.91751(8)
H1_24 H 0.5750 0.1652 0.9250
C4_24 C 0.61802(11) 0.22790(11) 0.92176(10)
H2_24 H 0.6345 0.2382 0.9323
C5_24 C 0.60382(13) 0.24154(16) 0.89618(13)
C6_24 C 0.6137(2) 0.2721(2) 0.8863(2)
C7_24 C 0.6218(2) 0.2977(3) 0.8782(2)
C8_24 C 0.6358(2) 0.3246(2) 0.8642(2)
C9_24 C 0.6620(2) 0.3380(2) 0.8768(2)
H3_24 H 0.6711 0.3289 0.8948
O8_24 O 0.65803(6) 0.11226(7) 0.96742(6)
O12_24 O 0.53258(6) 0.38774(7) 0.65803(6)
O13_24 O 0.61226(7) 0.46742(6) 0.65803(6)
O19_24 O 0.69469(7) 0.14921(6) 0.96735(6)
O20_24 O 0.53265(6) 0.19469(7) 0.85079(6)
O21_24 O 0.80531(7) 0.46735(6) 0.85079(6)
O23_24 O 0.53265(6) 0.35079(6) 0.69469(7)
O24_24 O 0.64921(6) 0.46735(6) 0.69469(7)
C10_24 C 0.54216(8) 0.18272(9) 0.87565(9)
C11_24 C 0.81728(9) 0.45784(8) 0.87565(9)
C12_24 C 0.81728(9) 0.37565(9) 0.95784(8)
C13_24 C 0.54216(8) 0.37565(9) 0.68272(9)
C14_24 C 0.62435(9) 0.45784(8) 0.68272(9)
C15_24 C 0.56824(9) 0.19884(9) 0.89227(9)
C16_24 C 0.80116(9) 0.43176(9) 0.89227(9)
C17_24 C 0.80116(9) 0.39227(9) 0.93176(9)
C18_24 C 0.56824(9) 0.39227(9) 0.69884(9)
C19_24 C 0.60773(9) 0.43176(9) 0.69884(9)
C20_24 C 0.81536(12) 0.41751(8) 0.91751(8)
C21_24 C 0.58249(8) 0.41751(8) 0.68464(12)
H4_24 H 0.8348 0.4250 0.9250
H5_24 H 0.5750 0.4250 0.6652
C22_24 C 0.57824(10) 0.22790(11) 0.88198(11)
C23_24 C 0.77210(11) 0.42176(10) 0.88198(11)
C24_24 C 0.77210(11) 0.38198(11) 0.92176(10)
C25_24 C 0.57824(10) 0.38198(11) 0.72790(11)
C26_24 C 0.61802(11) 0.42176(10) 0.72790(11)
H6_24 H 0.5677 0.2382 0.8655
H7_24 H 0.7618 0.4323 0.8655
H8_24 H 0.7618 0.3655 0.9323
H9_24 H 0.5677 0.3655 0.7382
H10_24 H 0.6345 0.4323 0.7382
C27_24 C 0.75846(16) 0.39618(13) 0.89618(13)
C28_24 C 0.60382(13) 0.39618(13) 0.74154(16)
C29_24 C 0.7279(2) 0.3863(2) 0.8863(2)
C30_24 C 0.6137(2) 0.3863(2) 0.7721(2)
C31_24 C 0.7023(3) 0.3782(2) 0.8782(2)
C32_24 C 0.6218(2) 0.3782(2) 0.7977(3)
C33_24 C 0.6754(2) 0.3642(2) 0.8642(2)
C34_24 C 0.6358(2) 0.3642(2) 0.8246(2)
C35_24 C 0.6232(2) 0.3380(2) 0.8380(2)
C36_24 C 0.6620(2) 0.3768(2) 0.8380(2)
H11_24 H 0.6052 0.3289 0.8289
H12_24 H 0.6711 0.3948 0.8289
C1_25 C 0.04216(8) 0.31728(9) 0.87565(9)
C2_25 C 0.06824(9) 0.30116(9) 0.89227(9)
C3_25 C 0.08249(8) 0.31536(12) 0.91751(8)
H1_25 H 0.0750 0.3348 0.9250
C4_25 C 0.07824(10) 0.27210(11) 0.88198(11)
H2_25 H 0.0677 0.2618 0.8655
C5_25 C 0.10382(13) 0.25846(16) 0.89618(13)
C6_25 C 0.1137(2) 0.2279(2) 0.8863(2)
C7_25 C 0.1218(2) 0.2023(3) 0.8782(2)
C8_25 C 0.1358(2) 0.1754(2) 0.8642(2)
C9_25 C 0.1232(2) 0.1620(2) 0.8380(2)
H3_25 H 0.1052 0.1711 0.8289
C10_25 C 0.12435(9) 0.31728(9) 0.95784(8)
C11_25 C 0.12435(9) 0.04216(8) 0.68272(9)
C12_25 C 0.04216(8) 0.12435(9) 0.68272(9)
C13_25 C 0.31728(9) 0.12435(9) 0.95784(8)
C14_25 C 0.31728(9) 0.04216(8) 0.87565(9)
C15_25 C 0.10773(9) 0.30116(9) 0.93176(9)
C16_25 C 0.10773(9) 0.06824(9) 0.69884(9)
C17_25 C 0.06824(9) 0.10773(9) 0.69884(9)
C18_25 C 0.30116(9) 0.10773(9) 0.93176(9)
C19_25 C 0.30116(9) 0.06824(9) 0.89227(9)
C20_25 C 0.08249(8) 0.08249(8) 0.68464(12)
C21_25 C 0.31536(12) 0.08249(8) 0.91751(8)
H4_25 H 0.0750 0.0750 0.6652
H5_25 H 0.3348 0.0750 0.9250
C22_25 C 0.11802(11) 0.27210(11) 0.92176(10)
C23_25 C 0.11802(11) 0.07824(10) 0.72790(11)
C24_25 C 0.07824(10) 0.11802(11) 0.72790(11)
C25_25 C 0.27210(11) 0.11802(11) 0.92176(10)
C26_25 C 0.27210(11) 0.07824(10) 0.88198(11)
H6_25 H 0.1345 0.2618 0.9323
H7_25 H 0.1345 0.0677 0.7382
H8_25 H 0.0677 0.1345 0.7382
H9_25 H 0.2618 0.1345 0.9323
H10_25 H 0.2618 0.0677 0.8655
C27_25 C 0.10382(13) 0.10382(13) 0.74154(16)
C28_25 C 0.25846(16) 0.10382(13) 0.89618(13)
C29_25 C 0.1137(2) 0.1137(2) 0.7721(2)
C30_25 C 0.2279(2) 0.1137(2) 0.8863(2)
C31_25 C 0.1218(2) 0.1218(2) 0.7977(3)
C32_25 C 0.2023(3) 0.1218(2) 0.8782(2)
C33_25 C 0.1358(2) 0.1358(2) 0.8246(2)
C34_25 C 0.1754(2) 0.1358(2) 0.8642(2)
C35_25 C 0.1620(2) 0.1620(2) 0.8768(2)
C36_25 C 0.1620(2) 0.1232(2) 0.8380(2)
H11_25 H 0.1711 0.1711 0.8948
H12_25 H 0.1711 0.1052 0.8289
C1_26 C 0.95784(8) 0.68272(9) 0.87565(9)
C2_26 C 0.93176(9) 0.69884(9) 0.89227(9)
C3_26 C 0.91751(8) 0.68464(12) 0.91751(8)
H1_26 H 0.9250 0.6652 0.9250
C4_26 C 0.92176(10) 0.72790(11) 0.88198(11)
H2_26 H 0.9323 0.7382 0.8655
C5_26 C 0.89618(13) 0.74154(16) 0.89618(13)
C6_26 C 0.8863(2) 0.7721(2) 0.8863(2)
C7_26 C 0.8782(2) 0.7977(3) 0.8782(2)
C8_26 C 0.8642(2) 0.8246(2) 0.8642(2)
C9_26 C 0.8768(2) 0.8380(2) 0.8380(2)
H3_26 H 0.8948 0.8289 0.8289
C10_26 C 0.87565(9) 0.68272(9) 0.95784(8)
C11_26 C 0.87565(9) 0.95784(8) 0.68272(9)
C12_26 C 0.95784(8) 0.87565(9) 0.68272(9)
C13_26 C 0.68272(9) 0.87565(9) 0.95784(8)
C14_26 C 0.68272(9) 0.95784(8) 0.87565(9)
C15_26 C 0.89227(9) 0.69884(9) 0.93176(9)
C16_26 C 0.89227(9) 0.93176(9) 0.69884(9)
C17_26 C 0.93176(9) 0.89227(9) 0.69884(9)
C18_26 C 0.69884(9) 0.89227(9) 0.93176(9)
C19_26 C 0.69884(9) 0.93176(9) 0.89227(9)
C20_26 C 0.91751(8) 0.91751(8) 0.68464(12)
C21_26 C 0.68464(12) 0.91751(8) 0.91751(8)
H4_26 H 0.9250 0.9250 0.6652
H5_26 H 0.6652 0.9250 0.9250
C22_26 C 0.88198(11) 0.72790(11) 0.92176(10)
C23_26 C 0.88198(11) 0.92176(10) 0.72790(11)
C24_26 C 0.92176(10) 0.88198(11) 0.72790(11)
C25_26 C 0.72790(11) 0.88198(11) 0.92176(10)
C26_26 C 0.72790(11) 0.92176(10) 0.88198(11)
H6_26 H 0.8655 0.7382 0.9323
H7_26 H 0.8655 0.9323 0.7382
H8_26 H 0.9323 0.8655 0.7382
H9_26 H 0.7382 0.8655 0.9323
H10_26 H 0.7382 0.9323 0.8655
C27_26 C 0.89618(13) 0.89618(13) 0.74154(16)
C28_26 C 0.74154(16) 0.89618(13) 0.89618(13)
C29_26 C 0.8863(2) 0.8863(2) 0.7721(2)
C30_26 C 0.7721(2) 0.8863(2) 0.8863(2)
C31_26 C 0.8782(2) 0.8782(2) 0.7977(3)
C32_26 C 0.7977(3) 0.8782(2) 0.8782(2)
C33_26 C 0.8642(2) 0.8642(2) 0.8246(2)
C34_26 C 0.8246(2) 0.8642(2) 0.8642(2)
C35_26 C 0.8380(2) 0.8380(2) 0.8768(2)
C36_26 C 0.8380(2) 0.8768(2) 0.8380(2)
H11_26 H 0.8289 0.8289 0.8948
H12_26 H 0.8289 0.8948 0.8289
C1_27 C 0.95784(8) 0.31728(9) 0.12435(9)
C2_27 C 0.93176(9) 0.30116(9) 0.10773(9)
C3_27 C 0.91751(8) 0.31536(12) 0.08249(8)
H1_27 H 0.9250 0.3348 0.0750
C4_27 C 0.92176(10) 0.27210(11) 0.11802(11)
H2_27 H 0.9323 0.2618 0.1345
C5_27 C 0.89618(13) 0.25846(16) 0.10382(13)
C6_27 C 0.8863(2) 0.2279(2) 0.1137(2)
C7_27 C 0.8782(2) 0.2023(3) 0.1218(2)
C8_27 C 0.8642(2) 0.1754(2) 0.1358(2)
C9_27 C 0.8768(2) 0.1620(2) 0.1620(2)
H3_27 H 0.8948 0.1711 0.1711
C10_27 C 0.87565(9) 0.31728(9) 0.04216(8)
C11_27 C 0.87565(9) 0.04216(8) 0.31728(9)
C12_27 C 0.95784(8) 0.12435(9) 0.31728(9)
C13_27 C 0.68272(9) 0.12435(9) 0.04216(8)
C14_27 C 0.68272(9) 0.04216(8) 0.12435(9)
C15_27 C 0.89227(9) 0.30116(9) 0.06824(9)
C16_27 C 0.89227(9) 0.06824(9) 0.30116(9)
C17_27 C 0.93176(9) 0.10773(9) 0.30116(9)
C18_27 C 0.69884(9) 0.10773(9) 0.06824(9)
C19_27 C 0.69884(9) 0.06824(9) 0.10773(9)
C20_27 C 0.91751(8) 0.08249(8) 0.31536(12)
C21_27 C 0.68464(12) 0.08249(8) 0.08249(8)
H4_27 H 0.9250 0.0750 0.3348
H5_27 H 0.6652 0.0750 0.0750
C22_27 C 0.88198(11) 0.27210(11) 0.07824(10)
C23_27 C 0.88198(11) 0.07824(10) 0.27210(11)
C24_27 C 0.92176(10) 0.11802(11) 0.27210(11)
C25_27 C 0.72790(11) 0.11802(11) 0.07824(10)
C26_27 C 0.72790(11) 0.07824(10) 0.11802(11)
H6_27 H 0.8655 0.2618 0.0677
H7_27 H 0.8655 0.0677 0.2618
H8_27 H 0.9323 0.1345 0.2618
H9_27 H 0.7382 0.1345 0.0677
H10_27 H 0.7382 0.0677 0.1345
C27_27 C 0.89618(13) 0.10382(13) 0.25846(16)
C28_27 C 0.74154(16) 0.10382(13) 0.10382(13)
C29_27 C 0.8863(2) 0.1137(2) 0.2279(2)
C30_27 C 0.7721(2) 0.1137(2) 0.1137(2)
C31_27 C 0.8782(2) 0.1218(2) 0.2023(3)
C32_27 C 0.7977(3) 0.1218(2) 0.1218(2)
C33_27 C 0.8642(2) 0.1358(2) 0.1754(2)
C34_27 C 0.8246(2) 0.1358(2) 0.1358(2)
C35_27 C 0.8380(2) 0.1620(2) 0.1232(2)
C36_27 C 0.8380(2) 0.1232(2) 0.1620(2)
H11_27 H 0.8289 0.1711 0.1052
H12_27 H 0.8289 0.1052 0.1711
C1_28 C 0.04216(8) 0.68272(9) 0.12435(9)
C2_28 C 0.06824(9) 0.69884(9) 0.10773(9)
C3_28 C 0.08249(8) 0.68464(12) 0.08249(8)
H1_28 H 0.0750 0.6652 0.0750
C4_28 C 0.07824(10) 0.72790(11) 0.11802(11)
H2_28 H 0.0677 0.7382 0.1345
C5_28 C 0.10382(13) 0.74154(16) 0.10382(13)
C6_28 C 0.1137(2) 0.7721(2) 0.1137(2)
C7_28 C 0.1218(2) 0.7977(3) 0.1218(2)
C8_28 C 0.1358(2) 0.8246(2) 0.1358(2)
C9_28 C 0.1232(2) 0.8380(2) 0.1620(2)
H3_28 H 0.1052 0.8289 0.1711
C10_28 C 0.12435(9) 0.68272(9) 0.04216(8)
C11_28 C 0.12435(9) 0.95784(8) 0.31728(9)
C12_28 C 0.04216(8) 0.87565(9) 0.31728(9)
C13_28 C 0.31728(9) 0.87565(9) 0.04216(8)
C14_28 C 0.31728(9) 0.95784(8) 0.12435(9)
C15_28 C 0.10773(9) 0.69884(9) 0.06824(9)
C16_28 C 0.10773(9) 0.93176(9) 0.30116(9)
C17_28 C 0.06824(9) 0.89227(9) 0.30116(9)
C18_28 C 0.30116(9) 0.89227(9) 0.06824(9)
C19_28 C 0.30116(9) 0.93176(9) 0.10773(9)
C20_28 C 0.08249(8) 0.91751(8) 0.31536(12)
C21_28 C 0.31536(12) 0.91751(8) 0.08249(8)
H4_28 H 0.0750 0.9250 0.3348
H5_28 H 0.3348 0.9250 0.0750
C22_28 C 0.11802(11) 0.72790(11) 0.07824(10)
C23_28 C 0.11802(11) 0.92176(10) 0.27210(11)
C24_28 C 0.07824(10) 0.88198(11) 0.27210(11)
C25_28 C 0.27210(11) 0.88198(11) 0.07824(10)
C26_28 C 0.27210(11) 0.92176(10) 0.11802(11)
H6_28 H 0.1345 0.7382 0.0677
H7_28 H 0.1345 0.9323 0.2618
H8_28 H 0.0677 0.8655 0.2618
H9_28 H 0.2618 0.8655 0.0677
H10_28 H 0.2618 0.9323 0.1345
C27_28 C 0.10382(13) 0.89618(13) 0.25846(16)
C28_28 C 0.25846(16) 0.89618(13) 0.10382(13)
C29_28 C 0.1137(2) 0.8863(2) 0.2279(2)
C30_28 C 0.2279(2) 0.8863(2) 0.1137(2)
C31_28 C 0.1218(2) 0.8782(2) 0.2023(3)
C32_28 C 0.2023(3) 0.8782(2) 0.1218(2)
C33_28 C 0.1358(2) 0.8642(2) 0.1754(2)
C34_28 C 0.1754(2) 0.8642(2) 0.1358(2)
C35_28 C 0.1620(2) 0.8380(2) 0.1232(2)
C36_28 C 0.1620(2) 0.8768(2) 0.1620(2)
H11_28 H 0.1711 0.8289 0.1052
H12_28 H 0.1711 0.8948 0.1711
O1_49 O 0.40408(8) 0.5000 0.40408(8)
O2_49 O 0.28863(7) 0.5000 0.28863(7)
O5_13 O 0.5000 0.59592(8) 0.40408(8)
O1_50 O 0.40408(8) 0.5000 0.59592(8)
O2_50 O 0.28863(7) 0.5000 0.71137(7)
O5_14 O 0.5000 0.40408(8) 0.59592(8)
O1_51 O 0.59592(8) 0.5000 0.40408(8)
O2_51 O 0.71137(7) 0.5000 0.28863(7)
O5_15 O 0.5000 0.40408(8) 0.40408(8)
O1_52 O 0.59592(8) 0.5000 0.59592(8)
O2_52 O 0.71137(7) 0.5000 0.71137(7)
O5_16 O 0.5000 0.59592(8) 0.59592(8)
O2_53 O 0.78863(7) 0.78863(7) 0.5000
O2_54 O 0.21137(7) 0.78863(7) 0.5000
O2_55 O 0.78863(7) 0.21137(7) 0.5000
O2_56 O 0.21137(7) 0.21137(7) 0.5000
O2_57 O 0.78863(7) 0.5000 0.21137(7)
O2_58 O 0.21137(7) 0.5000 0.21137(7)
O2_59 O 0.78863(7) 0.5000 0.78863(7)
O2_60 O 0.21137(7) 0.5000 0.78863(7)
C1_29 C 0.04216(8) 0.87565(9) 0.68272(9)
C2_29 C 0.06824(9) 0.89227(9) 0.69884(9)
C3_29 C 0.08249(8) 0.91751(8) 0.68464(12)
H1_29 H 0.0750 0.9250 0.6652
C4_29 C 0.07824(10) 0.88198(11) 0.72790(11)
H2_29 H 0.0677 0.8655 0.7382
C5_29 C 0.10382(13) 0.89618(13) 0.74154(16)
C6_29 C 0.1137(2) 0.8863(2) 0.7721(2)
C7_29 C 0.1218(2) 0.8782(2) 0.7977(3)
C8_29 C 0.1358(2) 0.8642(2) 0.8246(2)
C9_29 C 0.1232(2) 0.8380(2) 0.8380(2)
H3_29 H 0.1052 0.8289 0.8289
C10_29 C 0.12435(9) 0.95784(8) 0.68272(9)
C11_29 C 0.12435(9) 0.68272(9) 0.95784(8)
C12_29 C 0.04216(8) 0.68272(9) 0.87565(9)
C13_29 C 0.31728(9) 0.95784(8) 0.87565(9)
C14_29 C 0.31728(9) 0.87565(9) 0.95784(8)
C15_29 C 0.10773(9) 0.93176(9) 0.69884(9)
C16_29 C 0.10773(9) 0.69884(9) 0.93176(9)
C17_29 C 0.06824(9) 0.69884(9) 0.89227(9)
C18_29 C 0.30116(9) 0.93176(9) 0.89227(9)
C19_29 C 0.30116(9) 0.89227(9) 0.93176(9)
C20_29 C 0.08249(8) 0.68464(12) 0.91751(8)
C21_29 C 0.31536(12) 0.91751(8) 0.91751(8)
H4_29 H 0.0750 0.6652 0.9250
H5_29 H 0.3348 0.9250 0.9250
C22_29 C 0.11802(11) 0.92176(10) 0.72790(11)
C23_29 C 0.11802(11) 0.72790(11) 0.92176(10)
C24_29 C 0.07824(10) 0.72790(11) 0.88198(11)
C25_29 C 0.27210(11) 0.92176(10) 0.88198(11)
C26_29 C 0.27210(11) 0.88198(11) 0.92176(10)
H6_29 H 0.1345 0.9323 0.7382
H7_29 H 0.1345 0.7382 0.9323
H8_29 H 0.0677 0.7382 0.8655
H9_29 H 0.2618 0.9323 0.8655
H10_29 H 0.2618 0.8655 0.9323
C27_29 C 0.10382(13) 0.74154(16) 0.89618(13)
C28_29 C 0.25846(16) 0.89618(13) 0.89618(13)
C29_29 C 0.1137(2) 0.7721(2) 0.8863(2)
C30_29 C 0.2279(2) 0.8863(2) 0.8863(2)
C31_29 C 0.1218(2) 0.7977(3) 0.8782(2)
C32_29 C 0.2023(3) 0.8782(2) 0.8782(2)
C33_29 C 0.1358(2) 0.8246(2) 0.8642(2)
C34_29 C 0.1754(2) 0.8642(2) 0.8642(2)
C35_29 C 0.1620(2) 0.8768(2) 0.8380(2)
C36_29 C 0.1620(2) 0.8380(2) 0.8768(2)
H11_29 H 0.1711 0.8948 0.8289
H12_29 H 0.1711 0.8289 0.8948
C1_30 C 0.95784(8) 0.87565(9) 0.31728(9)
C2_30 C 0.93176(9) 0.89227(9) 0.30116(9)
C3_30 C 0.91751(8) 0.91751(8) 0.31536(12)
H1_30 H 0.9250 0.9250 0.3348
C4_30 C 0.92176(10) 0.88198(11) 0.27210(11)
H2_30 H 0.9323 0.8655 0.2618
C5_30 C 0.89618(13) 0.89618(13) 0.25846(16)
C6_30 C 0.8863(2) 0.8863(2) 0.2279(2)
C7_30 C 0.8782(2) 0.8782(2) 0.2023(3)
C8_30 C 0.8642(2) 0.8642(2) 0.1754(2)
C9_30 C 0.8768(2) 0.8380(2) 0.1620(2)
H3_30 H 0.8948 0.8289 0.1711
C10_30 C 0.87565(9) 0.95784(8) 0.31728(9)
C11_30 C 0.87565(9) 0.68272(9) 0.04216(8)
C12_30 C 0.95784(8) 0.68272(9) 0.12435(9)
C13_30 C 0.68272(9) 0.95784(8) 0.12435(9)
C14_30 C 0.68272(9) 0.87565(9) 0.04216(8)
C15_30 C 0.89227(9) 0.93176(9) 0.30116(9)
C16_30 C 0.89227(9) 0.69884(9) 0.06824(9)
C17_30 C 0.93176(9) 0.69884(9) 0.10773(9)
C18_30 C 0.69884(9) 0.93176(9) 0.10773(9)
C19_30 C 0.69884(9) 0.89227(9) 0.06824(9)
C20_30 C 0.91751(8) 0.68464(12) 0.08249(8)
C21_30 C 0.68464(12) 0.91751(8) 0.08249(8)
H4_30 H 0.9250 0.6652 0.0750
H5_30 H 0.6652 0.9250 0.0750
C22_30 C 0.88198(11) 0.92176(10) 0.27210(11)
C23_30 C 0.88198(11) 0.72790(11) 0.07824(10)
C24_30 C 0.92176(10) 0.72790(11) 0.11802(11)
C25_30 C 0.72790(11) 0.92176(10) 0.11802(11)
C26_30 C 0.72790(11) 0.88198(11) 0.07824(10)
H6_30 H 0.8655 0.9323 0.2618
H7_30 H 0.8655 0.7382 0.0677
H8_30 H 0.9323 0.7382 0.1345
H9_30 H 0.7382 0.9323 0.1345
H10_30 H 0.7382 0.8655 0.0677
C27_30 C 0.89618(13) 0.74154(16) 0.10382(13)
C28_30 C 0.74154(16) 0.89618(13) 0.10382(13)
C29_30 C 0.8863(2) 0.7721(2) 0.1137(2)
C30_30 C 0.7721(2) 0.8863(2) 0.1137(2)
C31_30 C 0.8782(2) 0.7977(3) 0.1218(2)
C32_30 C 0.7977(3) 0.8782(2) 0.1218(2)
C33_30 C 0.8642(2) 0.8246(2) 0.1358(2)
C34_30 C 0.8246(2) 0.8642(2) 0.1358(2)
C35_30 C 0.8380(2) 0.8768(2) 0.1620(2)
C36_30 C 0.8380(2) 0.8380(2) 0.1232(2)
H11_30 H 0.8289 0.8948 0.1711
H12_30 H 0.8289 0.8289 0.1052
C1_31 C 0.95784(8) 0.12435(9) 0.68272(9)
C2_31 C 0.93176(9) 0.10773(9) 0.69884(9)
C3_31 C 0.91751(8) 0.08249(8) 0.68464(12)
H1_31 H 0.9250 0.0750 0.6652
C4_31 C 0.92176(10) 0.11802(11) 0.72790(11)
H2_31 H 0.9323 0.1345 0.7382
C5_31 C 0.89618(13) 0.10382(13) 0.74154(16)
C6_31 C 0.8863(2) 0.1137(2) 0.7721(2)
C7_31 C 0.8782(2) 0.1218(2) 0.7977(3)
C8_31 C 0.8642(2) 0.1358(2) 0.8246(2)
C9_31 C 0.8768(2) 0.1620(2) 0.8380(2)
H3_31 H 0.8948 0.1711 0.8289
C10_31 C 0.87565(9) 0.04216(8) 0.68272(9)
C11_31 C 0.87565(9) 0.31728(9) 0.95784(8)
C12_31 C 0.95784(8) 0.31728(9) 0.87565(9)
C13_31 C 0.68272(9) 0.04216(8) 0.87565(9)
C14_31 C 0.68272(9) 0.12435(9) 0.95784(8)
C15_31 C 0.89227(9) 0.06824(9) 0.69884(9)
C16_31 C 0.89227(9) 0.30116(9) 0.93176(9)
C17_31 C 0.93176(9) 0.30116(9) 0.89227(9)
C18_31 C 0.69884(9) 0.06824(9) 0.89227(9)
C19_31 C 0.69884(9) 0.10773(9) 0.93176(9)
C20_31 C 0.91751(8) 0.31536(12) 0.91751(8)
C21_31 C 0.68464(12) 0.08249(8) 0.91751(8)
H4_31 H 0.9250 0.3348 0.9250
H5_31 H 0.6652 0.0750 0.9250
C22_31 C 0.88198(11) 0.07824(10) 0.72790(11)
C23_31 C 0.88198(11) 0.27210(11) 0.92176(10)
C24_31 C 0.92176(10) 0.27210(11) 0.88198(11)
C25_31 C 0.72790(11) 0.07824(10) 0.88198(11)
C26_31 C 0.72790(11) 0.11802(11) 0.92176(10)
H6_31 H 0.8655 0.0677 0.7382
H7_31 H 0.8655 0.2618 0.9323
H8_31 H 0.9323 0.2618 0.8655
H9_31 H 0.7382 0.0677 0.8655
H10_31 H 0.7382 0.1345 0.9323
C27_31 C 0.89618(13) 0.25846(16) 0.89618(13)
C28_31 C 0.74154(16) 0.10382(13) 0.89618(13)
C29_31 C 0.8863(2) 0.2279(2) 0.8863(2)
C30_31 C 0.7721(2) 0.1137(2) 0.8863(2)
C31_31 C 0.8782(2) 0.2023(3) 0.8782(2)
C32_31 C 0.7977(3) 0.1218(2) 0.8782(2)
C33_31 C 0.8642(2) 0.1754(2) 0.8642(2)
C34_31 C 0.8246(2) 0.1358(2) 0.8642(2)
C35_31 C 0.8380(2) 0.1232(2) 0.8380(2)
C36_31 C 0.8380(2) 0.1620(2) 0.8768(2)
H11_31 H 0.8289 0.1052 0.8289
H12_31 H 0.8289 0.1711 0.8948
C1_32 C 0.04216(8) 0.12435(9) 0.31728(9)
C2_32 C 0.06824(9) 0.10773(9) 0.30116(9)
C3_32 C 0.08249(8) 0.08249(8) 0.31536(12)
H1_32 H 0.0750 0.0750 0.3348
C4_32 C 0.07824(10) 0.11802(11) 0.27210(11)
H2_32 H 0.0677 0.1345 0.2618
C5_32 C 0.10382(13) 0.10382(13) 0.25846(16)
C6_32 C 0.1137(2) 0.1137(2) 0.2279(2)
C7_32 C 0.1218(2) 0.1218(2) 0.2023(3)
C8_32 C 0.1358(2) 0.1358(2) 0.1754(2)
C9_32 C 0.1232(2) 0.1620(2) 0.1620(2)
H3_32 H 0.1052 0.1711 0.1711
C10_32 C 0.12435(9) 0.04216(8) 0.31728(9)
C11_32 C 0.12435(9) 0.31728(9) 0.04216(8)
C12_32 C 0.04216(8) 0.31728(9) 0.12435(9)
C13_32 C 0.31728(9) 0.04216(8) 0.12435(9)
C14_32 C 0.31728(9) 0.12435(9) 0.04216(8)
C15_32 C 0.10773(9) 0.06824(9) 0.30116(9)
C16_32 C 0.10773(9) 0.30116(9) 0.06824(9)
C17_32 C 0.06824(9) 0.30116(9) 0.10773(9)
C18_32 C 0.30116(9) 0.06824(9) 0.10773(9)
C19_32 C 0.30116(9) 0.10773(9) 0.06824(9)
C20_32 C 0.08249(8) 0.31536(12) 0.08249(8)
C21_32 C 0.31536(12) 0.08249(8) 0.08249(8)
H4_32 H 0.0750 0.3348 0.0750
H5_32 H 0.3348 0.0750 0.0750
C22_32 C 0.11802(11) 0.07824(10) 0.27210(11)
C23_32 C 0.11802(11) 0.27210(11) 0.07824(10)
C24_32 C 0.07824(10) 0.27210(11) 0.11802(11)
C25_32 C 0.27210(11) 0.07824(10) 0.11802(11)
C26_32 C 0.27210(11) 0.11802(11) 0.07824(10)
H6_32 H 0.1345 0.0677 0.2618
H7_32 H 0.1345 0.2618 0.0677
H8_32 H 0.0677 0.2618 0.1345
H9_32 H 0.2618 0.0677 0.1345
H10_32 H 0.2618 0.1345 0.0677
C27_32 C 0.10382(13) 0.25846(16) 0.10382(13)
C28_32 C 0.25846(16) 0.10382(13) 0.10382(13)
C29_32 C 0.1137(2) 0.2279(2) 0.1137(2)
C30_32 C 0.2279(2) 0.1137(2) 0.1137(2)
C31_32 C 0.1218(2) 0.2023(3) 0.1218(2)
C32_32 C 0.2023(3) 0.1218(2) 0.1218(2)
C33_32 C 0.1358(2) 0.1754(2) 0.1358(2)
C34_32 C 0.1754(2) 0.1358(2) 0.1358(2)
C35_32 C 0.1620(2) 0.1232(2) 0.1620(2)
C36_32 C 0.1620(2) 0.1620(2) 0.1232(2)
H11_32 H 0.1711 0.1052 0.1711
H12_32 H 0.1711 0.1711 0.1052
O1_53 O 0.40408(8) 0.40408(8) 0.5000
O2_61 O 0.28863(7) 0.28863(7) 0.5000
O1_54 O 0.40408(8) 0.59592(8) 0.5000
O2_62 O 0.28863(7) 0.71137(7) 0.5000
O1_55 O 0.59592(8) 0.40408(8) 0.5000
O2_63 O 0.71137(7) 0.28863(7) 0.5000
O1_56 O 0.59592(8) 0.59592(8) 0.5000
O2_64 O 0.71137(7) 0.71137(7) 0.5000
O2_65 O 0.5000 0.78863(7) 0.78863(7)
O2_66 O 0.5000 0.21137(7) 0.78863(7)
O2_67 O 0.5000 0.78863(7) 0.21137(7)
O2_68 O 0.5000 0.21137(7) 0.21137(7)
O2_69 O 0.5000 0.28863(7) 0.71137(7)
O2_70 O 0.5000 0.28863(7) 0.28863(7)
O2_71 O 0.5000 0.71137(7) 0.71137(7)
O2_72 O 0.5000 0.71137(7) 0.28863(7)
loop_
_geom_bond_atom_site_label_1
_geom_bond_atom_site_label_2
_geom_bond_site_symmetry_1
_geom_bond_site_symmetry_2
Zn1 O1 1_555 1_555
Zn2 O2 1_555 1_555
O3 Zn1 1_555 1_555
O4 Zn2 1_555 1_555
C1 O3 1_555 1_555
C2 C1 1_555 1_555
C3 C2 1_555 1_555
H1 C3 1_555 1_555
C4 C2 1_555 1_555
H2 C4 1_555 1_555
C5 C4 1_555 1_555
C6 C5 1_555 1_555
C7 C6 1_555 1_555
C8 C7 1_555 1_555
C9 C8 1_555 1_555
H3 C9 1_555 1_555
Zn3 O5 1_555 1_555
Zn4 O10 1_555 1_555
Zn5 O11 1_555 1_555
Zn6 O12 1_555 1_555
Zn7 O13 1_555 1_555
Zn8 O20 1_555 1_555
Zn9 O21 1_555 1_555
Zn10 O22 1_555 1_555
Zn11 O23 1_555 1_555
Zn12 O24 1_555 1_555
O8 Zn1 1_555 1_555
O9 Zn3 1_555 1_555
O10 C11 1_555 1_555
O11 C12 1_555 1_555
O12 C13 1_555 1_555
O13 C14 1_555 1_555
O14 Zn3 1_555 1_555
O15 Zn3 1_555 1_555
O16 Zn3 1_555 1_555
O19 Zn2 1_555 1_555
O20 C10 1_555 1_555
O21 C11 1_555 1_555
O22 C12 1_555 1_555
O23 C13 1_555 1_555
O24 C14 1_555 1_555
C10 O9 1_555 1_555
C11 C16 1_555 1_555
C12 C17 1_555 1_555
C13 C18 1_555 1_555
C14 C19 1_555 1_555
C15 C3 1_555 1_555
C16 C20 1_555 1_555
C17 C20 1_555 1_555
C18 C21 1_555 1_555
C19 C21 1_555 1_555
C20 H4 1_555 1_555
C21 H5 1_555 1_555
C22 C5 1_555 1_555
C23 C16 1_555 1_555
C24 C17 1_555 1_555
C25 C18 1_555 1_555
C26 C19 1_555 1_555
H6 C22 1_555 1_555
H7 C23 1_555 1_555
H8 C24 1_555 1_555
H9 C25 1_555 1_555
H10 C26 1_555 1_555
C27 C23 1_555 1_555
C28 C25 1_555 1_555
C29 C27 1_555 1_555
C30 C28 1_555 1_555
C31 C29 1_555 1_555
C32 C30 1_555 1_555
C33 C9 1_555 1_555
C34 C32 1_555 1_555
C35 C8 1_555 1_555
C36 C33 1_555 1_555
H11 C35 1_555 1_555
H12 C36 1_555 1_555
O4 C1 1_555 1_555
C10 C15 1_555 1_555
C15 C22 1_555 1_555
C24 C27 1_555 1_555
C26 C28 1_555 1_555
C31 C33 1_555 1_555
C34 C35 1_555 1_555
C34 C36 1_555 1_555
Zn1_2 O1_2 1_555 1_555
Zn2_2 O2_2 1_555 1_555
O6 Zn1_2 1_555 1_555
O7 Zn1_2 1_555 1_555
O17 Zn2_2 1_555 1_555
O18 Zn2_2 1_555 1_555
Zn1_3 O1_3 1_555 1_555
Zn2_3 O2_3 1_555 1_555
O6_2 Zn1_3 1_555 1_555
O7_2 Zn1_3 1_555 1_555
O17_2 Zn2_3 1_555 1_555
O18_2 Zn2_3 1_555 1_555
Zn1_4 O1_4 1_555 1_555
Zn2_4 O2_4 1_555 1_555
O3_2 Zn1_4 1_555 1_555
O4_2 Zn2_4 1_555 1_555
C1_2 O3_2 1_555 1_555
C2_2 C1_2 1_555 1_555
C3_2 C2_2 1_555 1_555
H1_2 C3_2 1_555 1_555
C4_2 C2_2 1_555 1_555
H2_2 C4_2 1_555 1_555
C5_2 C4_2 1_555 1_555
C6_2 C5_2 1_555 1_555
C7_2 C6_2 1_555 1_555
C8_2 C7_2 1_555 1_555
C9_2 C8_2 1_555 1_555
H3_2 C9_2 1_555 1_555
Zn3_2 O5_2 1_555 1_555
Zn4_2 O10_2 1_555 1_555
Zn5_4 O11_2 1_555 1_555
Zn6_2 O12_2 1_555 1_555
Zn7_2 O13_2 1_555 1_555
Zn8_2 O20_2 1_555 1_555
Zn9_2 O21_2 1_555 1_555
Zn10_4 O22_2 1_555 1_555
Zn11_2 O23_2 1_555 1_555
Zn12_2 O24_2 1_555 1_555
O8_2 Zn1_4 1_555 1_555
O9_2 Zn3_2 1_555 1_555
O10_2 C11_2 1_555 1_555
O11_2 C12_2 1_555 1_555
O12_2 C13_2 1_555 1_555
O13_2 C14_2 1_555 1_555
O14_2 Zn3_2 1_555 1_555
O15_2 Zn3_2 1_555 1_555
O16_2 Zn3_2 1_555 1_555
O19_2 Zn2_4 1_555 1_555
O20_2 C10_2 1_555 1_555
O21_2 C11_2 1_555 1_555
O22_2 C12_2 1_555 1_555
O23_2 C13_2 1_555 1_555
O24_2 C14_2 1_555 1_555
C10_2 O9_2 1_555 1_555
C11_2 C16_2 1_555 1_555
C12_2 C17_2 1_555 1_555
C13_2 C18_2 1_555 1_555
C14_2 C19_2 1_555 1_555
C15_2 C3_2 1_555 1_555
C16_2 C20_2 1_555 1_555
C17_2 C20_2 1_555 1_555
C18_2 C21_2 1_555 1_555
C19_2 C21_2 1_555 1_555
C20_2 H4_2 1_555 1_555
C21_2 H5_2 1_555 1_555
C22_2 C5_2 1_555 1_555
C23_2 C16_2 1_555 1_555
C24_2 C17_2 1_555 1_555
C25_2 C18_2 1_555 1_555
C26_2 C19_2 1_555 1_555
H6_2 C22_2 1_555 1_555
H7_2 C23_2 1_555 1_555
H8_2 C24_2 1_555 1_555
H9_2 C25_2 1_555 1_555
H10_2 C26_2 1_555 1_555
C27_2 C23_2 1_555 1_555
C28_2 C25_2 1_555 1_555
C29_2 C27_2 1_555 1_555
C30_2 C28_2 1_555 1_555
C31_2 C29_2 1_555 1_555
C32_2 C30_2 1_555 1_555
C33_2 C9_2 1_555 1_555
C34_2 C32_2 1_555 1_555
C35_2 C8_2 1_555 1_555
C36_2 C33_2 1_555 1_555
H11_2 C35_2 1_555 1_555
H12_2 C36_2 1_555 1_555
O4_2 C1_2 1_555 1_555
C10_2 C15_2 1_555 1_555
C15_2 C22_2 1_555 1_555
C24_2 C27_2 1_555 1_555
C26_2 C28_2 1_555 1_555
C31_2 C33_2 1_555 1_555
C34_2 C35_2 1_555 1_555
C34_2 C36_2 1_555 1_555
Zn1_5 O1_5 1_555 1_555
Zn2_5 O2_5 1_555 1_555
O6_3 Zn1_5 1_555 1_555
O7_3 Zn1_5 1_555 1_555
O17_3 Zn2_5 1_555 1_555
O18_3 Zn2_5 1_555 1_555
Zn1_6 O1_6 1_555 1_555
Zn2_6 O2_6 1_555 1_555
O3_3 Zn1_6 1_555 1_555
O4_3 Zn2_6 1_555 1_555
C1_3 O3_3 1_555 1_555
C2_3 C1_3 1_555 1_555
C3_3 C2_3 1_555 1_555
H1_3 C3_3 1_555 1_555
C4_3 C2_3 1_555 1_555
H2_3 C4_3 1_555 1_555
C5_3 C4_3 1_555 1_555
C6_3 C5_3 1_555 1_555
C7_3 C6_3 1_555 1_555
C8_3 C7_3 1_555 1_555
C9_3 C8_3 1_555 1_555
H3_3 C9_3 1_555 1_555
Zn3_3 O5_3 1_555 1_555
Zn4_3 O10_3 1_555 1_555
Zn5_6 O11_3 1_555 1_555
Zn6_3 O12_3 1_555 1_555
Zn7_3 O13_3 1_555 1_555
Zn8_3 O20_3 1_555 1_555
Zn9_3 O21_3 1_555 1_555
Zn10_6 O22_3 1_555 1_555
Zn11_3 O23_3 1_555 1_555
Zn12_3 O24_3 1_555 1_555
O8_3 Zn1_6 1_555 1_555
O9_3 Zn3_3 1_555 1_555
O10_3 C11_3 1_555 1_555
O11_3 C12_3 1_555 1_555
O12_3 C13_3 1_555 1_555
O13_3 C14_3 1_555 1_555
O14_3 Zn3_3 1_555 1_555
O15_3 Zn3_3 1_555 1_555
O16_3 Zn3_3 1_555 1_555
O19_3 Zn2_6 1_555 1_555
O20_3 C10_3 1_555 1_555
O21_3 C11_3 1_555 1_555
O22_3 C12_3 1_555 1_555
O23_3 C13_3 1_555 1_555
O24_3 C14_3 1_555 1_555
C10_3 O9_3 1_555 1_555
C11_3 C16_3 1_555 1_555
C12_3 C17_3 1_555 1_555
C13_3 C18_3 1_555 1_555
C14_3 C19_3 1_555 1_555
C15_3 C3_3 1_555 1_555
C16_3 C20_3 1_555 1_555
C17_3 C20_3 1_555 1_555
C18_3 C21_3 1_555 1_555
C19_3 C21_3 1_555 1_555
C20_3 H4_3 1_555 1_555
C21_3 H5_3 1_555 1_555
C22_3 C5_3 1_555 1_555
C23_3 C16_3 1_555 1_555
C24_3 C17_3 1_555 1_555
C25_3 C18_3 1_555 1_555
C26_3 C19_3 1_555 1_555
H6_3 C22_3 1_555 1_555
H7_3 C23_3 1_555 1_555
H8_3 C24_3 1_555 1_555
H9_3 C25_3 1_555 1_555
H10_3 C26_3 1_555 1_555
C27_3 C23_3 1_555 1_555
C28_3 C25_3 1_555 1_555
C29_3 C27_3 1_555 1_555
C30_3 C28_3 1_555 1_555
C31_3 C29_3 1_555 1_555
C32_3 C30_3 1_555 1_555
C33_3 C9_3 1_555 1_555
C34_3 C32_3 1_555 1_555
C35_3 C8_3 1_555 1_555
C36_3 C33_3 1_555 1_555
H11_3 C35_3 1_555 1_555
H12_3 C36_3 1_555 1_555
O4_3 C1_3 1_555 1_555
C10_3 C15_3 1_555 1_555
C15_3 C22_3 1_555 1_555
C24_3 C27_3 1_555 1_555
C26_3 C28_3 1_555 1_555
C31_3 C33_3 1_555 1_555
C34_3 C35_3 1_555 1_555
C34_3 C36_3 1_555 1_555
Zn1_7 O1_7 1_555 1_555
Zn2_7 O2_7 1_555 1_555
O3_4 Zn1_7 1_555 1_555
O4_4 Zn2_7 1_555 1_555
C1_4 O3_4 1_555 1_555
C2_4 C1_4 1_555 1_555
C3_4 C2_4 1_555 1_555
H1_4 C3_4 1_555 1_555
C4_4 C2_4 1_555 1_555
H2_4 C4_4 1_555 1_555
C5_4 C4_4 1_555 1_555
C6_4 C5_4 1_555 1_555
C7_4 C6_4 1_555 1_555
C8_4 C7_4 1_555 1_555
C9_4 C8_4 1_555 1_555
H3_4 C9_4 1_555 1_555
Zn3_4 O5_4 1_555 1_555
Zn4_4 O10_4 1_555 1_555
Zn5_7 O11_4 1_555 1_555
Zn6_4 O12_4 1_555 1_555
Zn7_4 O13_4 1_555 1_555
Zn8_4 O20_4 1_555 1_555
Zn9_4 O21_4 1_555 1_555
Zn10_7 O22_4 1_555 1_555
Zn11_4 O23_4 1_555 1_555
Zn12_4 O24_4 1_555 1_555
O8_4 Zn1_7 1_555 1_555
O9_4 Zn3_4 1_555 1_555
O10_4 C11_4 1_555 1_555
O11_4 C12_4 1_555 1_555
O12_4 C13_4 1_555 1_555
O13_4 C14_4 1_555 1_555
O14_4 Zn3_4 1_555 1_555
O15_4 Zn3_4 1_555 1_555
O16_4 Zn3_4 1_555 1_555
O19_4 Zn2_7 1_555 1_555
O20_4 C10_4 1_555 1_555
O21_4 C11_4 1_555 1_555
O22_4 C12_4 1_555 1_555
O23_4 C13_4 1_555 1_555
O24_4 C14_4 1_555 1_555
C10_4 O9_4 1_555 1_555
C11_4 C16_4 1_555 1_555
C12_4 C17_4 1_555 1_555
C13_4 C18_4 1_555 1_555
C14_4 C19_4 1_555 1_555
C15_4 C3_4 1_555 1_555
C16_4 C20_4 1_555 1_555
C17_4 C20_4 1_555 1_555
C18_4 C21_4 1_555 1_555
C19_4 C21_4 1_555 1_555
C20_4 H4_4 1_555 1_555
C21_4 H5_4 1_555 1_555
C22_4 C5_4 1_555 1_555
C23_4 C16_4 1_555 1_555
C24_4 C17_4 1_555 1_555
C25_4 C18_4 1_555 1_555
C26_4 C19_4 1_555 1_555
H6_4 C22_4 1_555 1_555
H7_4 C23_4 1_555 1_555
H8_4 C24_4 1_555 1_555
H9_4 C25_4 1_555 1_555
H10_4 C26_4 1_555 1_555
C27_4 C23_4 1_555 1_555
C28_4 C25_4 1_555 1_555
C29_4 C27_4 1_555 1_555
C30_4 C28_4 1_555 1_555
C31_4 C29_4 1_555 1_555
C32_4 C30_4 1_555 1_555
C33_4 C9_4 1_555 1_555
C34_4 C32_4 1_555 1_555
C35_4 C8_4 1_555 1_555
C36_4 C33_4 1_555 1_555
H11_4 C35_4 1_555 1_555
H12_4 C36_4 1_555 1_555
O4_4 C1_4 1_555 1_555
C10_4 C15_4 1_555 1_555
C15_4 C22_4 1_555 1_555
C24_4 C27_4 1_555 1_555
C26_4 C28_4 1_555 1_555
C31_4 C33_4 1_555 1_555
C34_4 C35_4 1_555 1_555
C34_4 C36_4 1_555 1_555
Zn1_8 O1_8 1_555 1_555
Zn2_8 O2_8 1_555 1_555
O6_4 Zn1_8 1_555 1_555
O7_4 Zn1_8 1_555 1_555
O17_4 Zn2_8 1_555 1_555
O18_4 Zn2_8 1_555 1_555
Zn1_9 O1_9 1_555 1_555
Zn2_9 O2_9 1_555 1_555
O3_5 Zn1_9 1_555 1_555
O4_5 Zn2_9 1_555 1_555
C1_5 O3_5 1_555 1_555
C2_5 C1_5 1_555 1_555
C3_5 C2_5 1_555 1_555
H1_5 C3_5 1_555 1_555
C4_5 C2_5 1_555 1_555
H2_5 C4_5 1_555 1_555
C5_5 C4_5 1_555 1_555
C6_5 C5_5 1_555 1_555
C7_5 C6_5 1_555 1_555
C8_5 C7_5 1_555 1_555
C9_5 C8_5 1_555 1_555
H3_5 C9_5 1_555 1_555
Zn3_5 O5_5 1_555 1_555
Zn5_9 O11_5 1_555 1_555
Zn6_5 O12_5 1_555 1_555
Zn6_4 O13_5 1_555 1_555
Zn8_5 O20_5 1_555 1_555
Zn8_4 O21_5 1_555 1_555
Zn10_9 O22_5 1_555 1_555
Zn11_5 O23_5 1_555 1_555
Zn11_4 O24_5 1_555 1_555
O8_5 Zn1_9 1_555 1_555
O9_5 Zn3_5 1_555 1_555
O14_4 C11_5 1_555 1_555
O11_5 C12_5 1_555 1_555
O12_5 C13_5 1_555 1_555
O13_5 C14_5 1_555 1_555
O14_5 Zn3_5 1_555 1_555
O15_5 Zn3_5 1_555 1_555
O16_5 Zn3_5 1_555 1_555
O19_5 Zn2_9 1_555 1_555
O20_5 C10_5 1_555 1_555
O21_5 C11_5 1_555 1_555
O22_5 C12_5 1_555 1_555
O23_5 C13_5 1_555 1_555
O24_5 C14_5 1_555 1_555
C10_5 O9_5 1_555 1_555
C11_5 C16_5 1_555 1_555
C12_5 C17_5 1_555 1_555
C13_5 C18_5 1_555 1_555
C14_5 C19_5 1_555 1_555
C15_5 C3_5 1_555 1_555
C16_5 C20_5 1_555 1_555
C17_5 C20_5 1_555 1_555
C18_5 C21_5 1_555 1_555
C19_5 C21_5 1_555 1_555
C20_5 H4_5 1_555 1_555
C21_5 H5_5 1_555 1_555
C22_5 C5_5 1_555 1_555
C23_5 C16_5 1_555 1_555
C24_5 C17_5 1_555 1_555
C25_5 C18_5 1_555 1_555
C26_5 C19_5 1_555 1_555
H6_5 C22_5 1_555 1_555
H7_5 C23_5 1_555 1_555
H8_5 C24_5 1_555 1_555
H9_5 C25_5 1_555 1_555
H10_5 C26_5 1_555 1_555
C27_5 C23_5 1_555 1_555
C28_5 C25_5 1_555 1_555
C29_5 C27_5 1_555 1_555
C30_5 C28_5 1_555 1_555
C31_5 C29_5 1_555 1_555
C32_5 C30_5 1_555 1_555
C33_5 C9_5 1_555 1_555
C34_5 C32_5 1_555 1_555
C35_5 C8_5 1_555 1_555
C36_5 C33_5 1_555 1_555
H11_5 C35_5 1_555 1_555
H12_5 C36_5 1_555 1_555
O4_5 C1_5 1_555 1_555
C10_5 C15_5 1_555 1_555
C15_5 C22_5 1_555 1_555
C24_5 C27_5 1_555 1_555
C26_5 C28_5 1_555 1_555
C31_5 C33_5 1_555 1_555
C34_5 C35_5 1_555 1_555
C34_5 C36_5 1_555 1_555
Zn1_10 O1_10 1_555 1_555
Zn2_10 O2_10 1_555 1_555
O6_5 Zn1_10 1_555 1_555
O7_5 Zn1_10 1_555 1_555
O17_5 Zn2_10 1_555 1_555
O18_5 Zn2_10 1_555 1_555
Zn1_11 O1_11 1_555 1_555
Zn2_11 O2_11 1_555 1_555
O6_6 Zn1_11 1_555 1_555
O7_6 Zn1_11 1_555 1_555
O17_6 Zn2_11 1_555 1_555
O18_6 Zn2_11 1_555 1_555
Zn1_12 O1_12 1_555 1_555
Zn2_12 O2_12 1_555 1_555
O3_6 Zn1_12 1_555 1_555
O4_6 Zn2_12 1_555 1_555
C1_6 O3_6 1_555 1_555
C2_6 C1_6 1_555 1_555
C3_6 C2_6 1_555 1_555
H1_6 C3_6 1_555 1_555
C4_6 C2_6 1_555 1_555
H2_6 C4_6 1_555 1_555
C5_6 C4_6 1_555 1_555
C6_6 C5_6 1_555 1_555
C7_6 C6_6 1_555 1_555
C8_6 C7_6 1_555 1_555
C9_6 C8_6 1_555 1_555
H3_6 C9_6 1_555 1_555
Zn3_6 O5_6 1_555 1_555
Zn5_12 O11_6 1_555 1_555
Zn6_6 O12_6 1_555 1_555
Zn6 O13_6 1_555 1_555
Zn8_6 O20_6 1_555 1_555
Zn8 O21_6 1_555 1_555
Zn10_12 O22_6 1_555 1_555
Zn11_6 O23_6 1_555 1_555
Zn11 O24_6 1_555 1_555
O8_6 Zn1_12 1_555 1_555
O9_6 Zn3_6 1_555 1_555
O14 C11_6 1_555 1_555
O11_6 C12_6 1_555 1_555
O12_6 C13_6 1_555 1_555
O13_6 C14_6 1_555 1_555
O14_6 Zn3_6 1_555 1_555
O15_6 Zn3_6 1_555 1_555
O16_6 Zn3_6 1_555 1_555
O19_6 Zn2_12 1_555 1_555
O20_6 C10_6 1_555 1_555
O21_6 C11_6 1_555 1_555
O22_6 C12_6 1_555 1_555
O23_6 C13_6 1_555 1_555
O24_6 C14_6 1_555 1_555
C10_6 O9_6 1_555 1_555
C11_6 C16_6 1_555 1_555
C12_6 C17_6 1_555 1_555
C13_6 C18_6 1_555 1_555
C14_6 C19_6 1_555 1_555
C15_6 C3_6 1_555 1_555
C16_6 C20_6 1_555 1_555
C17_6 C20_6 1_555 1_555
C18_6 C21_6 1_555 1_555
C19_6 C21_6 1_555 1_555
C20_6 H4_6 1_555 1_555
C21_6 H5_6 1_555 1_555
C22_6 C5_6 1_555 1_555
C23_6 C16_6 1_555 1_555
C24_6 C17_6 1_555 1_555
C25_6 C18_6 1_555 1_555
C26_6 C19_6 1_555 1_555
H6_6 C22_6 1_555 1_555
H7_6 C23_6 1_555 1_555
H8_6 C24_6 1_555 1_555
H9_6 C25_6 1_555 1_555
H10_6 C26_6 1_555 1_555
C27_6 C23_6 1_555 1_555
C28_6 C25_6 1_555 1_555
C29_6 C27_6 1_555 1_555
C30_6 C28_6 1_555 1_555
C31_6 C29_6 1_555 1_555
C32_6 C30_6 1_555 1_555
C33_6 C9_6 1_555 1_555
C34_6 C32_6 1_555 1_555
C35_6 C8_6 1_555 1_555
C36_6 C33_6 1_555 1_555
H11_6 C35_6 1_555 1_555
H12_6 C36_6 1_555 1_555
O4_6 C1_6 1_555 1_555
C10_6 C15_6 1_555 1_555
C15_6 C22_6 1_555 1_555
C24_6 C27_6 1_555 1_555
C26_6 C28_6 1_555 1_555
C31_6 C33_6 1_555 1_555
C34_6 C35_6 1_555 1_555
C34_6 C36_6 1_555 1_555
Zn1_13 O1_13 1_555 1_555
Zn2_13 O2_13 1_555 1_555
O6_7 Zn1_13 1_555 1_555
O7_7 Zn1_13 1_555 1_555
O17_7 Zn2_13 1_555 1_555
O18_7 Zn2_13 1_555 1_555
Zn1_14 O1_14 1_555 1_555
Zn2_14 O2_14 1_555 1_555
O3_7 Zn1_14 1_555 1_555
O4_7 Zn2_14 1_555 1_555
C1_7 O3_7 1_555 1_555
C2_7 C1_7 1_555 1_555
C3_7 C2_7 1_555 1_555
H1_7 C3_7 1_555 1_555
C4_7 C2_7 1_555 1_555
H2_7 C4_7 1_555 1_555
C5_7 C4_7 1_555 1_555
C6_7 C5_7 1_555 1_555
C7_7 C6_7 1_555 1_555
C8_7 C7_7 1_555 1_555
C9_7 C8_7 1_555 1_555
H3_7 C9_7 1_555 1_555
Zn3_7 O5_7 1_555 1_555
Zn5_14 O11_7 1_555 1_555
Zn6_7 O12_7 1_555 1_555
Zn6_3 O13_7 1_555 1_555
Zn8_7 O20_7 1_555 1_555
Zn8_3 O21_7 1_555 1_555
Zn10_14 O22_7 1_555 1_555
Zn11_7 O23_7 1_555 1_555
Zn11_3 O24_7 1_555 1_555
O8_7 Zn1_14 1_555 1_555
O9_7 Zn3_7 1_555 1_555
O14_3 C11_7 1_555 1_555
O11_7 C12_7 1_555 1_555
O12_7 C13_7 1_555 1_555
O13_7 C14_7 1_555 1_555
O14_7 Zn3_7 1_555 1_555
O15_7 Zn3_7 1_555 1_555
O16_7 Zn3_7 1_555 1_555
O19_7 Zn2_14 1_555 1_555
O20_7 C10_7 1_555 1_555
O21_7 C11_7 1_555 1_555
O22_7 C12_7 1_555 1_555
O23_7 C13_7 1_555 1_555
O24_7 C14_7 1_555 1_555
C10_7 O9_7 1_555 1_555
C11_7 C16_7 1_555 1_555
C12_7 C17_7 1_555 1_555
C13_7 C18_7 1_555 1_555
C14_7 C19_7 1_555 1_555
C15_7 C3_7 1_555 1_555
C16_7 C20_7 1_555 1_555
C17_7 C20_7 1_555 1_555
C18_7 C21_7 1_555 1_555
C19_7 C21_7 1_555 1_555
C20_7 H4_7 1_555 1_555
C21_7 H5_7 1_555 1_555
C22_7 C5_7 1_555 1_555
C23_7 C16_7 1_555 1_555
C24_7 C17_7 1_555 1_555
C25_7 C18_7 1_555 1_555
C26_7 C19_7 1_555 1_555
H6_7 C22_7 1_555 1_555
H7_7 C23_7 1_555 1_555
H8_7 C24_7 1_555 1_555
H9_7 C25_7 1_555 1_555
H10_7 C26_7 1_555 1_555
C27_7 C23_7 1_555 1_555
C28_7 C25_7 1_555 1_555
C29_7 C27_7 1_555 1_555
C30_7 C28_7 1_555 1_555
C31_7 C29_7 1_555 1_555
C32_7 C30_7 1_555 1_555
C33_7 C9_7 1_555 1_555
C34_7 C32_7 1_555 1_555
C35_7 C8_7 1_555 1_555
C36_7 C33_7 1_555 1_555
H11_7 C35_7 1_555 1_555
H12_7 C36_7 1_555 1_555
O4_7 C1_7 1_555 1_555
C10_7 C15_7 1_555 1_555
C15_7 C22_7 1_555 1_555
C24_7 C27_7 1_555 1_555
C26_7 C28_7 1_555 1_555
C31_7 C33_7 1_555 1_555
C34_7 C35_7 1_555 1_555
C34_7 C36_7 1_555 1_555
Zn1_15 O1_15 1_555 1_555
Zn2_15 O2_15 1_555 1_555
O3_8 Zn1_15 1_555 1_555
O4_8 Zn2_15 1_555 1_555
C1_8 O3_8 1_555 1_555
C2_8 C1_8 1_555 1_555
C3_8 C2_8 1_555 1_555
H1_8 C3_8 1_555 1_555
C4_8 C2_8 1_555 1_555
H2_8 C4_8 1_555 1_555
C5_8 C4_8 1_555 1_555
C6_8 C5_8 1_555 1_555
C7_8 C6_8 1_555 1_555
C8_8 C7_8 1_555 1_555
C9_8 C8_8 1_555 1_555
H3_8 C9_8 1_555 1_555
Zn3_8 O5_8 1_555 1_555
Zn5_15 O11_8 1_555 1_555
Zn6_8 O12_8 1_555 1_555
Zn6_2 O13_8 1_555 1_555
Zn8_8 O20_8 1_555 1_555
Zn8_2 O21_8 1_555 1_555
Zn10_15 O22_8 1_555 1_555
Zn11_8 O23_8 1_555 1_555
Zn11_2 O24_8 1_555 1_555
O8_8 Zn1_15 1_555 1_555
O9_8 Zn3_8 1_555 1_555
O14_2 C11_8 1_555 1_555
O11_8 C12_8 1_555 1_555
O12_8 C13_8 1_555 1_555
O13_8 C14_8 1_555 1_555
O14_8 Zn3_8 1_555 1_555
O15_8 Zn3_8 1_555 1_555
O16_8 Zn3_8 1_555 1_555
O19_8 Zn2_15 1_555 1_555
O20_8 C10_8 1_555 1_555
O21_8 C11_8 1_555 1_555
O22_8 C12_8 1_555 1_555
O23_8 C13_8 1_555 1_555
O24_8 C14_8 1_555 1_555
C10_8 O9_8 1_555 1_555
C11_8 C16_8 1_555 1_555
C12_8 C17_8 1_555 1_555
C13_8 C18_8 1_555 1_555
C14_8 C19_8 1_555 1_555
C15_8 C3_8 1_555 1_555
C16_8 C20_8 1_555 1_555
C17_8 C20_8 1_555 1_555
C18_8 C21_8 1_555 1_555
C19_8 C21_8 1_555 1_555
C20_8 H4_8 1_555 1_555
C21_8 H5_8 1_555 1_555
C22_8 C5_8 1_555 1_555
C23_8 C16_8 1_555 1_555
C24_8 C17_8 1_555 1_555
C25_8 C18_8 1_555 1_555
C26_8 C19_8 1_555 1_555
H6_8 C22_8 1_555 1_555
H7_8 C23_8 1_555 1_555
H8_8 C24_8 1_555 1_555
H9_8 C25_8 1_555 1_555
H10_8 C26_8 1_555 1_555
C27_8 C23_8 1_555 1_555
C28_8 C25_8 1_555 1_555
C29_8 C27_8 1_555 1_555
C30_8 C28_8 1_555 1_555
C31_8 C29_8 1_555 1_555
C32_8 C30_8 1_555 1_555
C33_8 C9_8 1_555 1_555
C34_8 C32_8 1_555 1_555
C35_8 C8_8 1_555 1_555
C36_8 C33_8 1_555 1_555
H11_8 C35_8 1_555 1_555
H12_8 C36_8 1_555 1_555
O4_8 C1_8 1_555 1_555
C10_8 C15_8 1_555 1_555
C15_8 C22_8 1_555 1_555
C24_8 C27_8 1_555 1_555
C26_8 C28_8 1_555 1_555
C31_8 C33_8 1_555 1_555
C34_8 C35_8 1_555 1_555
C34_8 C36_8 1_555 1_555
Zn1_16 O1_16 1_555 1_555
Zn2_16 O2_16 1_555 1_555
O6_8 Zn1_16 1_555 1_555
O7_8 Zn1_16 1_555 1_555
O17_8 Zn2_16 1_555 1_555
O18_8 Zn2_16 1_555 1_555
Zn1_17 O1_17 1_555 1_555
Zn2_17 O2_17 1_555 1_555
O3_9 Zn1_17 1_555 1_555
O4_9 Zn2_17 1_555 1_555
C1_9 O3_9 1_555 1_555
C2_9 C1_9 1_555 1_555
C3_9 C2_9 1_555 1_555
H1_9 C3_9 1_555 1_555
C4_9 C2_9 1_555 1_555
H2_9 C4_9 1_555 1_555
C5_9 C4_9 1_555 1_555
C6_9 C5_9 1_555 1_555
C7_9 C6_9 1_555 1_555
C8_9 C7_9 1_555 1_555
C9_9 C8_9 1_555 1_555
H3_9 C9_9 1_555 1_555
Zn4_2 O5_9 1_555 1_555
Zn5_17 O11_9 1_555 1_555
Zn7_2 O12_9 1_555 1_555
Zn6_8 O13_9 1_555 1_555
Zn9_2 O20_9 1_555 1_555
Zn8_8 O21_9 1_555 1_555
Zn10_17 O22_9 1_555 1_555
Zn12_2 O23_9 1_555 1_555
Zn11_8 O24_9 1_555 1_555
O8_9 Zn1_17 1_555 1_555
O9_9 Zn4_2 1_555 1_555
O14_8 C11_9 1_555 1_555
O11_9 C12_9 1_555 1_555
O12_9 C13_9 1_555 1_555
O13_9 C14_9 1_555 1_555
O15_9 Zn4_2 1_555 1_555
O16_9 Zn4_2 1_555 1_555
O19_9 Zn2_17 1_555 1_555
O20_9 C10_9 1_555 1_555
O21_9 C11_9 1_555 1_555
O22_9 C12_9 1_555 1_555
O23_9 C13_9 1_555 1_555
O24_9 C14_9 1_555 1_555
C10_9 O9_9 1_555 1_555
C11_9 C16_9 1_555 1_555
C12_9 C17_9 1_555 1_555
C13_9 C18_9 1_555 1_555
C14_9 C19_9 1_555 1_555
C15_9 C3_9 1_555 1_555
C16_9 C20_9 1_555 1_555
C17_9 C20_9 1_555 1_555
C18_9 C21_9 1_555 1_555
C19_9 C21_9 1_555 1_555
C20_9 H4_9 1_555 1_555
C21_9 H5_9 1_555 1_555
C22_9 C5_9 1_555 1_555
C23_9 C16_9 1_555 1_555
C24_9 C17_9 1_555 1_555
C25_9 C18_9 1_555 1_555
C26_9 C19_9 1_555 1_555
H6_9 C22_9 1_555 1_555
H7_9 C23_9 1_555 1_555
H8_9 C24_9 1_555 1_555
H9_9 C25_9 1_555 1_555
H10_9 C26_9 1_555 1_555
C27_9 C23_9 1_555 1_555
C28_9 C25_9 1_555 1_555
C29_9 C27_9 1_555 1_555
C30_9 C28_9 1_555 1_555
C31_9 C29_9 1_555 1_555
C32_9 C30_9 1_555 1_555
C33_9 C9_9 1_555 1_555
C34_9 C32_9 1_555 1_555
C35_9 C8_9 1_555 1_555
C36_9 C33_9 1_555 1_555
H11_9 C35_9 1_555 1_555
H12_9 C36_9 1_555 1_555
O4_9 C1_9 1_555 1_555
C10_9 C15_9 1_555 1_555
C15_9 C22_9 1_555 1_555
C24_9 C27_9 1_555 1_555
C26_9 C28_9 1_555 1_555
C31_9 C33_9 1_555 1_555
C34_9 C35_9 1_555 1_555
C34_9 C36_9 1_555 1_555
Zn1_18 O1_18 1_555 1_555
Zn2_18 O2_18 1_555 1_555
O6_9 Zn1_18 1_555 1_555
O7_9 Zn1_18 1_555 1_555
O17_9 Zn2_18 1_555 1_555
O18_9 Zn2_18 1_555 1_555
Zn1_19 O1_19 1_555 1_555
Zn2_19 O2_19 1_555 1_555
O6_10 Zn1_19 1_555 1_555
O7_10 Zn1_19 1_555 1_555
O17_10 Zn2_19 1_555 1_555
O18_10 Zn2_19 1_555 1_555
Zn1_20 O1_20 1_555 1_555
Zn2_20 O2_20 1_555 1_555
O3_10 Zn1_20 1_555 1_555
O4_10 Zn2_20 1_555 1_555
C1_10 O3_10 1_555 1_555
C2_10 C1_10 1_555 1_555
C3_10 C2_10 1_555 1_555
H1_10 C3_10 1_555 1_555
C4_10 C2_10 1_555 1_555
H2_10 C4_10 1_555 1_555
C5_10 C4_10 1_555 1_555
C6_10 C5_10 1_555 1_555
C7_10 C6_10 1_555 1_555
C8_10 C7_10 1_555 1_555
C9_10 C8_10 1_555 1_555
H3_10 C9_10 1_555 1_555
Zn4_4 O5_10 1_555 1_555
Zn5_20 O11_10 1_555 1_555
Zn7_4 O12_10 1_555 1_555
Zn6_5 O13_10 1_555 1_555
Zn9_4 O20_10 1_555 1_555
Zn8_5 O21_10 1_555 1_555
Zn10_20 O22_10 1_555 1_555
Zn12_4 O23_10 1_555 1_555
Zn11_5 O24_10 1_555 1_555
O8_10 Zn1_20 1_555 1_555
O9_10 Zn4_4 1_555 1_555
O14_5 C11_10 1_555 1_555
O11_10 C12_10 1_555 1_555
O12_10 C13_10 1_555 1_555
O13_10 C14_10 1_555 1_555
O15_10 Zn4_4 1_555 1_555
O16_10 Zn4_4 1_555 1_555
O19_10 Zn2_20 1_555 1_555
O20_10 C10_10 1_555 1_555
O21_10 C11_10 1_555 1_555
O22_10 C12_10 1_555 1_555
O23_10 C13_10 1_555 1_555
O24_10 C14_10 1_555 1_555
C10_10 O9_10 1_555 1_555
C11_10 C16_10 1_555 1_555
C12_10 C17_10 1_555 1_555
C13_10 C18_10 1_555 1_555
C14_10 C19_10 1_555 1_555
C15_10 C3_10 1_555 1_555
C16_10 C20_10 1_555 1_555
C17_10 C20_10 1_555 1_555
C18_10 C21_10 1_555 1_555
C19_10 C21_10 1_555 1_555
C20_10 H4_10 1_555 1_555
C21_10 H5_10 1_555 1_555
C22_10 C5_10 1_555 1_555
C23_10 C16_10 1_555 1_555
C24_10 C17_10 1_555 1_555
C25_10 C18_10 1_555 1_555
C26_10 C19_10 1_555 1_555
H6_10 C22_10 1_555 1_555
H7_10 C23_10 1_555 1_555
H8_10 C24_10 1_555 1_555
H9_10 C25_10 1_555 1_555
H10_10 C26_10 1_555 1_555
C27_10 C23_10 1_555 1_555
C28_10 C25_10 1_555 1_555
C29_10 C27_10 1_555 1_555
C30_10 C28_10 1_555 1_555
C31_10 C29_10 1_555 1_555
C32_10 C30_10 1_555 1_555
C33_10 C9_10 1_555 1_555
C34_10 C32_10 1_555 1_555
C35_10 C8_10 1_555 1_555
C36_10 C33_10 1_555 1_555
H11_10 C35_10 1_555 1_555
H12_10 C36_10 1_555 1_555
O4_10 C1_10 1_555 1_555
C10_10 C15_10 1_555 1_555
C15_10 C22_10 1_555 1_555
C24_10 C27_10 1_555 1_555
C26_10 C28_10 1_555 1_555
C31_10 C33_10 1_555 1_555
C34_10 C35_10 1_555 1_555
C34_10 C36_10 1_555 1_555
Zn1_21 O1_21 1_555 1_555
Zn2_21 O2_21 1_555 1_555
O6_11 Zn1_21 1_555 1_555
O7_11 Zn1_21 1_555 1_555
O17_11 Zn2_21 1_555 1_555
O18_11 Zn2_21 1_555 1_555
Zn1_22 O1_22 1_555 1_555
Zn2_22 O2_22 1_555 1_555
O3_11 Zn1_22 1_555 1_555
O4_11 Zn2_22 1_555 1_555
C1_11 O3_11 1_555 1_555
C2_11 C1_11 1_555 1_555
C3_11 C2_11 1_555 1_555
H1_11 C3_11 1_555 1_555
C4_11 C2_11 1_555 1_555
H2_11 C4_11 1_555 1_555
C5_11 C4_11 1_555 1_555
C6_11 C5_11 1_555 1_555
C7_11 C6_11 1_555 1_555
C8_11 C7_11 1_555 1_555
C9_11 C8_11 1_555 1_555
H3_11 C9_11 1_555 1_555
Zn4_3 O5_11 1_555 1_555
Zn5_22 O11_11 1_555 1_555
Zn7_3 O12_11 1_555 1_555
Zn6_7 O13_11 1_555 1_555
Zn9_3 O20_11 1_555 1_555
Zn8_7 O21_11 1_555 1_555
Zn10_22 O22_11 1_555 1_555
Zn12_3 O23_11 1_555 1_555
Zn11_7 O24_11 1_555 1_555
O8_11 Zn1_22 1_555 1_555
O9_11 Zn4_3 1_555 1_555
O14_7 C11_11 1_555 1_555
O11_11 C12_11 1_555 1_555
O12_11 C13_11 1_555 1_555
O13_11 C14_11 1_555 1_555
O15_11 Zn4_3 1_555 1_555
O16_11 Zn4_3 1_555 1_555
O19_11 Zn2_22 1_555 1_555
O20_11 C10_11 1_555 1_555
O21_11 C11_11 1_555 1_555
O22_11 C12_11 1_555 1_555
O23_11 C13_11 1_555 1_555
O24_11 C14_11 1_555 1_555
C10_11 O9_11 1_555 1_555
C11_11 C16_11 1_555 1_555
C12_11 C17_11 1_555 1_555
C13_11 C18_11 1_555 1_555
C14_11 C19_11 1_555 1_555
C15_11 C3_11 1_555 1_555
C16_11 C20_11 1_555 1_555
C17_11 C20_11 1_555 1_555
C18_11 C21_11 1_555 1_555
C19_11 C21_11 1_555 1_555
C20_11 H4_11 1_555 1_555
C21_11 H5_11 1_555 1_555
C22_11 C5_11 1_555 1_555
C23_11 C16_11 1_555 1_555
C24_11 C17_11 1_555 1_555
C25_11 C18_11 1_555 1_555
C26_11 C19_11 1_555 1_555
H6_11 C22_11 1_555 1_555
H7_11 C23_11 1_555 1_555
H8_11 C24_11 1_555 1_555
H9_11 C25_11 1_555 1_555
H10_11 C26_11 1_555 1_555
C27_11 C23_11 1_555 1_555
C28_11 C25_11 1_555 1_555
C29_11 C27_11 1_555 1_555
C30_11 C28_11 1_555 1_555
C31_11 C29_11 1_555 1_555
C32_11 C30_11 1_555 1_555
C33_11 C9_11 1_555 1_555
C34_11 C32_11 1_555 1_555
C35_11 C8_11 1_555 1_555
C36_11 C33_11 1_555 1_555
H11_11 C35_11 1_555 1_555
H12_11 C36_11 1_555 1_555
O4_11 C1_11 1_555 1_555
C10_11 C15_11 1_555 1_555
C15_11 C22_11 1_555 1_555
C24_11 C27_11 1_555 1_555
C26_11 C28_11 1_555 1_555
C31_11 C33_11 1_555 1_555
C34_11 C35_11 1_555 1_555
C34_11 C36_11 1_555 1_555
Zn1_23 O1_23 1_555 1_555
Zn2_23 O2_23 1_555 1_555
O3_12 Zn1_23 1_555 1_555
O4_12 Zn2_23 1_555 1_555
C1_12 O3_12 1_555 1_555
C2_12 C1_12 1_555 1_555
C3_12 C2_12 1_555 1_555
H1_12 C3_12 1_555 1_555
C4_12 C2_12 1_555 1_555
H2_12 C4_12 1_555 1_555
C5_12 C4_12 1_555 1_555
C6_12 C5_12 1_555 1_555
C7_12 C6_12 1_555 1_555
C8_12 C7_12 1_555 1_555
C9_12 C8_12 1_555 1_555
H3_12 C9_12 1_555 1_555
Zn4 O5_12 1_555 1_555
Zn5_23 O11_12 1_555 1_555
Zn7 O12_12 1_555 1_555
Zn6_6 O13_12 1_555 1_555
Zn9 O20_12 1_555 1_555
Zn8_6 O21_12 1_555 1_555
Zn10_23 O22_12 1_555 1_555
Zn12 O23_12 1_555 1_555
Zn11_6 O24_12 1_555 1_555
O8_12 Zn1_23 1_555 1_555
O9_12 Zn4 1_555 1_555
O14_6 C11_12 1_555 1_555
O11_12 C12_12 1_555 1_555
O12_12 C13_12 1_555 1_555
O13_12 C14_12 1_555 1_555
O15_12 Zn4 1_555 1_555
O16_12 Zn4 1_555 1_555
O19_12 Zn2_23 1_555 1_555
O20_12 C10_12 1_555 1_555
O21_12 C11_12 1_555 1_555
O22_12 C12_12 1_555 1_555
O23_12 C13_12 1_555 1_555
O24_12 C14_12 1_555 1_555
C10_12 O9_12 1_555 1_555
C11_12 C16_12 1_555 1_555
C12_12 C17_12 1_555 1_555
C13_12 C18_12 1_555 1_555
C14_12 C19_12 1_555 1_555
C15_12 C3_12 1_555 1_555
C16_12 C20_12 1_555 1_555
C17_12 C20_12 1_555 1_555
C18_12 C21_12 1_555 1_555
C19_12 C21_12 1_555 1_555
C20_12 H4_12 1_555 1_555
C21_12 H5_12 1_555 1_555
C22_12 C5_12 1_555 1_555
C23_12 C16_12 1_555 1_555
C24_12 C17_12 1_555 1_555
C25_12 C18_12 1_555 1_555
C26_12 C19_12 1_555 1_555
H6_12 C22_12 1_555 1_555
H7_12 C23_12 1_555 1_555
H8_12 C24_12 1_555 1_555
H9_12 C25_12 1_555 1_555
H10_12 C26_12 1_555 1_555
C27_12 C23_12 1_555 1_555
C28_12 C25_12 1_555 1_555
C29_12 C27_12 1_555 1_555
C30_12 C28_12 1_555 1_555
C31_12 C29_12 1_555 1_555
C32_12 C30_12 1_555 1_555
C33_12 C9_12 1_555 1_555
C34_12 C32_12 1_555 1_555
C35_12 C8_12 1_555 1_555
C36_12 C33_12 1_555 1_555
H11_12 C35_12 1_555 1_555
H12_12 C36_12 1_555 1_555
O4_12 C1_12 1_555 1_555
C10_12 C15_12 1_555 1_555
C15_12 C22_12 1_555 1_555
C24_12 C27_12 1_555 1_555
C26_12 C28_12 1_555 1_555
C31_12 C33_12 1_555 1_555
C34_12 C35_12 1_555 1_555
C34_12 C36_12 1_555 1_555
Zn1_24 O1_24 1_555 1_555
Zn2_24 O2_24 1_555 1_555
O6_12 Zn1_24 1_555 1_555
O7_12 Zn1_24 1_555 1_555
O17_12 Zn2_24 1_555 1_555
O18_12 Zn2_24 1_555 1_555
Zn5_13 O1_25 1_555 1_555
Zn10_13 O2_25 1_555 1_555
O3_13 Zn5_13 1_555 1_555
O4_13 Zn10_13 1_555 1_555
C1_13 O3_13 1_555 1_555
C2_13 C1_13 1_555 1_555
C3_13 C2_13 1_555 1_555
H1_13 C3_13 1_555 1_555
C4_13 C2_13 1_555 1_555
H2_13 C4_13 1_555 1_555
C5_13 C4_13 1_555 1_555
C6_13 C5_13 1_555 1_555
C7_13 C6_13 1_555 1_555
C8_13 C7_13 1_555 1_555
C9_13 C8_13 1_555 1_555
H3_13 C9_13 1_555 1_555
Zn6_2 O12_13 1_555 1_555
Zn6_5 O13_13 1_555 1_555
Zn8_2 O20_13 1_555 1_555
Zn8_5 O21_13 1_555 1_555
Zn11_2 O23_13 1_555 1_555
Zn11_5 O24_13 1_555 1_555
O8_13 Zn5_13 1_555 1_555
O15_5 C11_13 1_555 1_555
O7_7 C12_13 1_555 1_555
O12_13 C13_13 1_555 1_555
O13_13 C14_13 1_555 1_555
O19_13 Zn10_13 1_555 1_555
O20_13 C10_13 1_555 1_555
O21_13 C11_13 1_555 1_555
O18_7 C12_13 1_555 1_555
O23_13 C13_13 1_555 1_555
O24_13 C14_13 1_555 1_555
C10_13 O16_2 1_555 1_555
C11_13 C16_13 1_555 1_555
C12_13 C17_13 1_555 1_555
C13_13 C18_13 1_555 1_555
C14_13 C19_13 1_555 1_555
C15_13 C3_13 1_555 1_555
C16_13 C20_13 1_555 1_555
C17_13 C20_13 1_555 1_555
C18_13 C21_13 1_555 1_555
C19_13 C21_13 1_555 1_555
C20_13 H4_13 1_555 1_555
C21_13 H5_13 1_555 1_555
C22_13 C5_13 1_555 1_555
C23_13 C16_13 1_555 1_555
C24_13 C17_13 1_555 1_555
C25_13 C18_13 1_555 1_555
C26_13 C19_13 1_555 1_555
H6_13 C22_13 1_555 1_555
H7_13 C23_13 1_555 1_555
H8_13 C24_13 1_555 1_555
H9_13 C25_13 1_555 1_555
H10_13 C26_13 1_555 1_555
C27_13 C23_13 1_555 1_555
C28_13 C25_13 1_555 1_555
C29_13 C27_13 1_555 1_555
C30_13 C28_13 1_555 1_555
C31_13 C29_13 1_555 1_555
C32_13 C30_13 1_555 1_555
C33_13 C9_13 1_555 1_555
C34_13 C32_13 1_555 1_555
C35_13 C8_13 1_555 1_555
C36_13 C33_13 1_555 1_555
H11_13 C35_13 1_555 1_555
H12_13 C36_13 1_555 1_555
O4_13 C1_13 1_555 1_555
C10_13 C15_13 1_555 1_555
C15_13 C22_13 1_555 1_555
C24_13 C27_13 1_555 1_555
C26_13 C28_13 1_555 1_555
C31_13 C33_13 1_555 1_555
C34_13 C35_13 1_555 1_555
C34_13 C36_13 1_555 1_555
Zn5_14 O1_26 1_555 1_555
Zn10_14 O2_26 1_555 1_555
O6_13 Zn5_14 1_555 1_555
O17_13 Zn10_14 1_555 1_555
Zn5_9 O1_27 1_555 1_555
Zn10_9 O2_27 1_555 1_555
O6_14 Zn5_9 1_555 1_555
O17_14 Zn10_9 1_555 1_555
Zn5_10 O1_28 1_555 1_555
Zn10_10 O2_28 1_555 1_555
O3_14 Zn5_10 1_555 1_555
O4_14 Zn10_10 1_555 1_555
C1_14 O3_14 1_555 1_555
C2_14 C1_14 1_555 1_555
C3_14 C2_14 1_555 1_555
H1_14 C3_14 1_555 1_555
C4_14 C2_14 1_555 1_555
H2_14 C4_14 1_555 1_555
C5_14 C4_14 1_555 1_555
C6_14 C5_14 1_555 1_555
C7_14 C6_14 1_555 1_555
C8_14 C7_14 1_555 1_555
C9_14 C8_14 1_555 1_555
H3_14 C9_14 1_555 1_555
Zn6 O12_14 1_555 1_555
Zn6_7 O13_14 1_555 1_555
Zn8 O20_14 1_555 1_555
Zn8_7 O21_14 1_555 1_555
Zn11 O23_14 1_555 1_555
Zn11_7 O24_14 1_555 1_555
O8_14 Zn5_10 1_555 1_555
O15_7 C11_14 1_555 1_555
O7_5 C12_14 1_555 1_555
O12_14 C13_14 1_555 1_555
O13_14 C14_14 1_555 1_555
O19_14 Zn10_10 1_555 1_555
O20_14 C10_14 1_555 1_555
O21_14 C11_14 1_555 1_555
O18_5 C12_14 1_555 1_555
O23_14 C13_14 1_555 1_555
O24_14 C14_14 1_555 1_555
C10_14 O16 1_555 1_555
C11_14 C16_14 1_555 1_555
C12_14 C17_14 1_555 1_555
C13_14 C18_14 1_555 1_555
C14_14 C19_14 1_555 1_555
C15_14 C3_14 1_555 1_555
C16_14 C20_14 1_555 1_555
C17_14 C20_14 1_555 1_555
C18_14 C21_14 1_555 1_555
C19_14 C21_14 1_555 1_555
C20_14 H4_14 1_555 1_555
C21_14 H5_14 1_555 1_555
C22_14 C5_14 1_555 1_555
C23_14 C16_14 1_555 1_555
C24_14 C17_14 1_555 1_555
C25_14 C18_14 1_555 1_555
C26_14 C19_14 1_555 1_555
H6_14 C22_14 1_555 1_555
H7_14 C23_14 1_555 1_555
H8_14 C24_14 1_555 1_555
H9_14 C25_14 1_555 1_555
H10_14 C26_14 1_555 1_555
C27_14 C23_14 1_555 1_555
C28_14 C25_14 1_555 1_555
C29_14 C27_14 1_555 1_555
C30_14 C28_14 1_555 1_555
C31_14 C29_14 1_555 1_555
C32_14 C30_14 1_555 1_555
C33_14 C9_14 1_555 1_555
C34_14 C32_14 1_555 1_555
C35_14 C8_14 1_555 1_555
C36_14 C33_14 1_555 1_555
H11_14 C35_14 1_555 1_555
H12_14 C36_14 1_555 1_555
O4_14 C1_14 1_555 1_555
C10_14 C15_14 1_555 1_555
C15_14 C22_14 1_555 1_555
C24_14 C27_14 1_555 1_555
C26_14 C28_14 1_555 1_555
C31_14 C33_14 1_555 1_555
C34_14 C35_14 1_555 1_555
C34_14 C36_14 1_555 1_555
Zn5_15 O1_29 1_555 1_555
Zn10_15 O2_29 1_555 1_555
O6_15 Zn5_15 1_555 1_555
O17_15 Zn10_15 1_555 1_555
Zn5_16 O1_30 1_555 1_555
Zn10_16 O2_30 1_555 1_555
O3_15 Zn5_16 1_555 1_555
O4_15 Zn10_16 1_555 1_555
C1_15 O3_15 1_555 1_555
C2_15 C1_15 1_555 1_555
C3_15 C2_15 1_555 1_555
H1_15 C3_15 1_555 1_555
C4_15 C2_15 1_555 1_555
H2_15 C4_15 1_555 1_555
C5_15 C4_15 1_555 1_555
C6_15 C5_15 1_555 1_555
C7_15 C6_15 1_555 1_555
C8_15 C7_15 1_555 1_555
C9_15 C8_15 1_555 1_555
H3_15 C9_15 1_555 1_555
Zn6_3 O12_15 1_555 1_555
Zn6_6 O13_15 1_555 1_555
Zn8_3 O20_15 1_555 1_555
Zn8_6 O21_15 1_555 1_555
Zn11_3 O23_15 1_555 1_555
Zn11_6 O24_15 1_555 1_555
O8_15 Zn5_16 1_555 1_555
O15_6 C11_15 1_555 1_555
O7_8 C12_15 1_555 1_555
O12_15 C13_15 1_555 1_555
O13_15 C14_15 1_555 1_555
O19_15 Zn10_16 1_555 1_555
O20_15 C10_15 1_555 1_555
O21_15 C11_15 1_555 1_555
O18_8 C12_15 1_555 1_555
O23_15 C13_15 1_555 1_555
O24_15 C14_15 1_555 1_555
C10_15 O16_3 1_555 1_555
C11_15 C16_15 1_555 1_555
C12_15 C17_15 1_555 1_555
C13_15 C18_15 1_555 1_555
C14_15 C19_15 1_555 1_555
C15_15 C3_15 1_555 1_555
C16_15 C20_15 1_555 1_555
C17_15 C20_15 1_555 1_555
C18_15 C21_15 1_555 1_555
C19_15 C21_15 1_555 1_555
C20_15 H4_15 1_555 1_555
C21_15 H5_15 1_555 1_555
C22_15 C5_15 1_555 1_555
C23_15 C16_15 1_555 1_555
C24_15 C17_15 1_555 1_555
C25_15 C18_15 1_555 1_555
C26_15 C19_15 1_555 1_555
H6_15 C22_15 1_555 1_555
H7_15 C23_15 1_555 1_555
H8_15 C24_15 1_555 1_555
H9_15 C25_15 1_555 1_555
H10_15 C26_15 1_555 1_555
C27_15 C23_15 1_555 1_555
C28_15 C25_15 1_555 1_555
C29_15 C27_15 1_555 1_555
C30_15 C28_15 1_555 1_555
C31_15 C29_15 1_555 1_555
C32_15 C30_15 1_555 1_555
C33_15 C9_15 1_555 1_555
C34_15 C32_15 1_555 1_555
C35_15 C8_15 1_555 1_555
C36_15 C33_15 1_555 1_555
H11_15 C35_15 1_555 1_555
H12_15 C36_15 1_555 1_555
O4_15 C1_15 1_555 1_555
C10_15 C15_15 1_555 1_555
C15_15 C22_15 1_555 1_555
C24_15 C27_15 1_555 1_555
C26_15 C28_15 1_555 1_555
C31_15 C33_15 1_555 1_555
C34_15 C35_15 1_555 1_555
C34_15 C36_15 1_555 1_555
Zn5_11 O1_31 1_555 1_555
Zn10_11 O2_31 1_555 1_555
O3_16 Zn5_11 1_555 1_555
O4_16 Zn10_11 1_555 1_555
C1_16 O3_16 1_555 1_555
C2_16 C1_16 1_555 1_555
C3_16 C2_16 1_555 1_555
H1_16 C3_16 1_555 1_555
C4_16 C2_16 1_555 1_555
H2_16 C4_16 1_555 1_555
C5_16 C4_16 1_555 1_555
C6_16 C5_16 1_555 1_555
C7_16 C6_16 1_555 1_555
C8_16 C7_16 1_555 1_555
C9_16 C8_16 1_555 1_555
H3_16 C9_16 1_555 1_555
Zn6_4 O12_16 1_555 1_555
Zn6_8 O13_16 1_555 1_555
Zn8_4 O20_16 1_555 1_555
Zn8_8 O21_16 1_555 1_555
Zn11_4 O23_16 1_555 1_555
Zn11_8 O24_16 1_555 1_555
O8_16 Zn5_11 1_555 1_555
O15_8 C11_16 1_555 1_555
O7_6 C12_16 1_555 1_555
O12_16 C13_16 1_555 1_555
O13_16 C14_16 1_555 1_555
O19_16 Zn10_11 1_555 1_555
O20_16 C10_16 1_555 1_555
O21_16 C11_16 1_555 1_555
O18_6 C12_16 1_555 1_555
O23_16 C13_16 1_555 1_555
O24_16 C14_16 1_555 1_555
C10_16 O16_4 1_555 1_555
C11_16 C16_16 1_555 1_555
C12_16 C17_16 1_555 1_555
C13_16 C18_16 1_555 1_555
C14_16 C19_16 1_555 1_555
C15_16 C3_16 1_555 1_555
C16_16 C20_16 1_555 1_555
C17_16 C20_16 1_555 1_555
C18_16 C21_16 1_555 1_555
C19_16 C21_16 1_555 1_555
C20_16 H4_16 1_555 1_555
C21_16 H5_16 1_555 1_555
C22_16 C5_16 1_555 1_555
C23_16 C16_16 1_555 1_555
C24_16 C17_16 1_555 1_555
C25_16 C18_16 1_555 1_555
C26_16 C19_16 1_555 1_555
H6_16 C22_16 1_555 1_555
H7_16 C23_16 1_555 1_555
H8_16 C24_16 1_555 1_555
H9_16 C25_16 1_555 1_555
H10_16 C26_16 1_555 1_555
C27_16 C23_16 1_555 1_555
C28_16 C25_16 1_555 1_555
C29_16 C27_16 1_555 1_555
C30_16 C28_16 1_555 1_555
C31_16 C29_16 1_555 1_555
C32_16 C30_16 1_555 1_555
C33_16 C9_16 1_555 1_555
C34_16 C32_16 1_555 1_555
C35_16 C8_16 1_555 1_555
C36_16 C33_16 1_555 1_555
H11_16 C35_16 1_555 1_555
H12_16 C36_16 1_555 1_555
O4_16 C1_16 1_555 1_555
C10_16 C15_16 1_555 1_555
C15_16 C22_16 1_555 1_555
C24_16 C27_16 1_555 1_555
C26_16 C28_16 1_555 1_555
C31_16 C33_16 1_555 1_555
C34_16 C35_16 1_555 1_555
C34_16 C36_16 1_555 1_555
Zn5_12 O1_32 1_555 1_555
Zn10_12 O2_32 1_555 1_555
O6_16 Zn5_12 1_555 1_555
O17_16 Zn10_12 1_555 1_555
Zn5_3 O1_33 1_555 1_555
Zn10_3 O2_33 1_555 1_555
O3_17 Zn5_3 1_555 1_555
O4_17 Zn10_3 1_555 1_555
C1_17 O3_17 1_555 1_555
C2_17 C1_17 1_555 1_555
C3_17 C2_17 1_555 1_555
H1_17 C3_17 1_555 1_555
C4_17 C2_17 1_555 1_555
H2_17 C4_17 1_555 1_555
C5_17 C4_17 1_555 1_555
C6_17 C5_17 1_555 1_555
C7_17 C6_17 1_555 1_555
C8_17 C7_17 1_555 1_555
C9_17 C8_17 1_555 1_555
H3_17 C9_17 1_555 1_555
Zn7 O12_17 1_555 1_555
Zn6_4 O13_17 1_555 1_555
Zn9 O20_17 1_555 1_555
Zn8_4 O21_17 1_555 1_555
Zn12 O23_17 1_555 1_555
Zn11_4 O24_17 1_555 1_555
O8_17 Zn5_3 1_555 1_555
O15_4 C11_17 1_555 1_555
O7_2 C12_17 1_555 1_555
O12_17 C13_17 1_555 1_555
O13_17 C14_17 1_555 1_555
O19_17 Zn10_3 1_555 1_555
O20_17 C10_17 1_555 1_555
O21_17 C11_17 1_555 1_555
O18_2 C12_17 1_555 1_555
O23_17 C13_17 1_555 1_555
O24_17 C14_17 1_555 1_555
C10_17 O16_12 1_555 1_555
C11_17 C16_17 1_555 1_555
C12_17 C17_17 1_555 1_555
C13_17 C18_17 1_555 1_555
C14_17 C19_17 1_555 1_555
C15_17 C3_17 1_555 1_555
C16_17 C20_17 1_555 1_555
C17_17 C20_17 1_555 1_555
C18_17 C21_17 1_555 1_555
C19_17 C21_17 1_555 1_555
C20_17 H4_17 1_555 1_555
C21_17 H5_17 1_555 1_555
C22_17 C5_17 1_555 1_555
C23_17 C16_17 1_555 1_555
C24_17 C17_17 1_555 1_555
C25_17 C18_17 1_555 1_555
C26_17 C19_17 1_555 1_555
H6_17 C22_17 1_555 1_555
H7_17 C23_17 1_555 1_555
H8_17 C24_17 1_555 1_555
H9_17 C25_17 1_555 1_555
H10_17 C26_17 1_555 1_555
C27_17 C23_17 1_555 1_555
C28_17 C25_17 1_555 1_555
C29_17 C27_17 1_555 1_555
C30_17 C28_17 1_555 1_555
C31_17 C29_17 1_555 1_555
C32_17 C30_17 1_555 1_555
C33_17 C9_17 1_555 1_555
C34_17 C32_17 1_555 1_555
C35_17 C8_17 1_555 1_555
C36_17 C33_17 1_555 1_555
H11_17 C35_17 1_555 1_555
H12_17 C36_17 1_555 1_555
O4_17 C1_17 1_555 1_555
C10_17 C15_17 1_555 1_555
C15_17 C22_17 1_555 1_555
C24_17 C27_17 1_555 1_555
C26_17 C28_17 1_555 1_555
C31_17 C33_17 1_555 1_555
C34_17 C35_17 1_555 1_555
C34_17 C36_17 1_555 1_555
Zn5_4 O1_34 1_555 1_555
Zn10_4 O2_34 1_555 1_555
O6_17 Zn5_4 1_555 1_555
O17_17 Zn10_4 1_555 1_555
Zn5_7 O1_35 1_555 1_555
Zn10_7 O2_35 1_555 1_555
O6_18 Zn5_7 1_555 1_555
O17_18 Zn10_7 1_555 1_555
Zn5_8 O1_36 1_555 1_555
Zn10_8 O2_36 1_555 1_555
O3_18 Zn5_8 1_555 1_555
O4_18 Zn10_8 1_555 1_555
C1_18 O3_18 1_555 1_555
C2_18 C1_18 1_555 1_555
C3_18 C2_18 1_555 1_555
H1_18 C3_18 1_555 1_555
C4_18 C2_18 1_555 1_555
H2_18 C4_18 1_555 1_555
C5_18 C4_18 1_555 1_555
C6_18 C5_18 1_555 1_555
C7_18 C6_18 1_555 1_555
C8_18 C7_18 1_555 1_555
C9_18 C8_18 1_555 1_555
H3_18 C9_18 1_555 1_555
Zn7_3 O12_18 1_555 1_555
Zn6_2 O13_18 1_555 1_555
Zn9_3 O20_18 1_555 1_555
Zn8_2 O21_18 1_555 1_555
Zn12_3 O23_18 1_555 1_555
Zn11_2 O24_18 1_555 1_555
O8_18 Zn5_8 1_555 1_555
O15_2 C11_18 1_555 1_555
O7_4 C12_18 1_555 1_555
O12_18 C13_18 1_555 1_555
O13_18 C14_18 1_555 1_555
O19_18 Zn10_8 1_555 1_555
O20_18 C10_18 1_555 1_555
O21_18 C11_18 1_555 1_555
O18_4 C12_18 1_555 1_555
O23_18 C13_18 1_555 1_555
O24_18 C14_18 1_555 1_555
C10_18 O16_11 1_555 1_555
C11_18 C16_18 1_555 1_555
C12_18 C17_18 1_555 1_555
C13_18 C18_18 1_555 1_555
C14_18 C19_18 1_555 1_555
C15_18 C3_18 1_555 1_555
C16_18 C20_18 1_555 1_555
C17_18 C20_18 1_555 1_555
C18_18 C21_18 1_555 1_555
C19_18 C21_18 1_555 1_555
C20_18 H4_18 1_555 1_555
C21_18 H5_18 1_555 1_555
C22_18 C5_18 1_555 1_555
C23_18 C16_18 1_555 1_555
C24_18 C17_18 1_555 1_555
C25_18 C18_18 1_555 1_555
C26_18 C19_18 1_555 1_555
H6_18 C22_18 1_555 1_555
H7_18 C23_18 1_555 1_555
H8_18 C24_18 1_555 1_555
H9_18 C25_18 1_555 1_555
H10_18 C26_18 1_555 1_555
C27_18 C23_18 1_555 1_555
C28_18 C25_18 1_555 1_555
C29_18 C27_18 1_555 1_555
C30_18 C28_18 1_555 1_555
C31_18 C29_18 1_555 1_555
C32_18 C30_18 1_555 1_555
C33_18 C9_18 1_555 1_555
C34_18 C32_18 1_555 1_555
C35_18 C8_18 1_555 1_555
C36_18 C33_18 1_555 1_555
H11_18 C35_18 1_555 1_555
H12_18 C36_18 1_555 1_555
O4_18 C1_18 1_555 1_555
C10_18 C15_18 1_555 1_555
C15_18 C22_18 1_555 1_555
C24_18 C27_18 1_555 1_555
C26_18 C28_18 1_555 1_555
C31_18 C33_18 1_555 1_555
C34_18 C35_18 1_555 1_555
C34_18 C36_18 1_555 1_555
Zn5 O1_37 1_555 1_555
Zn10 O2_37 1_555 1_555
O6_19 Zn5 1_555 1_555
O17_19 Zn10 1_555 1_555
Zn5_2 O1_38 1_555 1_555
Zn10_2 O2_38 1_555 1_555
O3_19 Zn5_2 1_555 1_555
O4_19 Zn10_2 1_555 1_555
C1_19 O3_19 1_555 1_555
C2_19 C1_19 1_555 1_555
C3_19 C2_19 1_555 1_555
H1_19 C3_19 1_555 1_555
C4_19 C2_19 1_555 1_555
H2_19 C4_19 1_555 1_555
C5_19 C4_19 1_555 1_555
C6_19 C5_19 1_555 1_555
C7_19 C6_19 1_555 1_555
C8_19 C7_19 1_555 1_555
C9_19 C8_19 1_555 1_555
H3_19 C9_19 1_555 1_555
Zn7_2 O12_19 1_555 1_555
Zn6_3 O13_19 1_555 1_555
Zn9_2 O20_19 1_555 1_555
Zn8_3 O21_19 1_555 1_555
Zn12_2 O23_19 1_555 1_555
Zn11_3 O24_19 1_555 1_555
O8_19 Zn5_2 1_555 1_555
O15_3 C11_19 1_555 1_555
O7 C12_19 1_555 1_555
O12_19 C13_19 1_555 1_555
O13_19 C14_19 1_555 1_555
O19_19 Zn10_2 1_555 1_555
O20_19 C10_19 1_555 1_555
O21_19 C11_19 1_555 1_555
O18 C12_19 1_555 1_555
O23_19 C13_19 1_555 1_555
O24_19 C14_19 1_555 1_555
C10_19 O16_9 1_555 1_555
C11_19 C16_19 1_555 1_555
C12_19 C17_19 1_555 1_555
C13_19 C18_19 1_555 1_555
C14_19 C19_19 1_555 1_555
C15_19 C3_19 1_555 1_555
C16_19 C20_19 1_555 1_555
C17_19 C20_19 1_555 1_555
C18_19 C21_19 1_555 1_555
C19_19 C21_19 1_555 1_555
C20_19 H4_19 1_555 1_555
C21_19 H5_19 1_555 1_555
C22_19 C5_19 1_555 1_555
C23_19 C16_19 1_555 1_555
C24_19 C17_19 1_555 1_555
C25_19 C18_19 1_555 1_555
C26_19 C19_19 1_555 1_555
H6_19 C22_19 1_555 1_555
H7_19 C23_19 1_555 1_555
H8_19 C24_19 1_555 1_555
H9_19 C25_19 1_555 1_555
H10_19 C26_19 1_555 1_555
C27_19 C23_19 1_555 1_555
C28_19 C25_19 1_555 1_555
C29_19 C27_19 1_555 1_555
C30_19 C28_19 1_555 1_555
C31_19 C29_19 1_555 1_555
C32_19 C30_19 1_555 1_555
C33_19 C9_19 1_555 1_555
C34_19 C32_19 1_555 1_555
C35_19 C8_19 1_555 1_555
C36_19 C33_19 1_555 1_555
H11_19 C35_19 1_555 1_555
H12_19 C36_19 1_555 1_555
O4_19 C1_19 1_555 1_555
C10_19 C15_19 1_555 1_555
C15_19 C22_19 1_555 1_555
C24_19 C27_19 1_555 1_555
C26_19 C28_19 1_555 1_555
C31_19 C33_19 1_555 1_555
C34_19 C35_19 1_555 1_555
C34_19 C36_19 1_555 1_555
Zn5_5 O1_39 1_555 1_555
Zn10_5 O2_39 1_555 1_555
O3_20 Zn5_5 1_555 1_555
O4_20 Zn10_5 1_555 1_555
C1_20 O3_20 1_555 1_555
C2_20 C1_20 1_555 1_555
C3_20 C2_20 1_555 1_555
H1_20 C3_20 1_555 1_555
C4_20 C2_20 1_555 1_555
H2_20 C4_20 1_555 1_555
C5_20 C4_20 1_555 1_555
C6_20 C5_20 1_555 1_555
C7_20 C6_20 1_555 1_555
C8_20 C7_20 1_555 1_555
C9_20 C8_20 1_555 1_555
H3_20 C9_20 1_555 1_555
Zn7_4 O12_20 1_555 1_555
Zn6 O13_20 1_555 1_555
Zn9_4 O20_20 1_555 1_555
Zn8 O21_20 1_555 1_555
Zn12_4 O23_20 1_555 1_555
Zn11 O24_20 1_555 1_555
O8_20 Zn5_5 1_555 1_555
O15 C11_20 1_555 1_555
O7_3 C12_20 1_555 1_555
O12_20 C13_20 1_555 1_555
O13_20 C14_20 1_555 1_555
O19_20 Zn10_5 1_555 1_555
O20_20 C10_20 1_555 1_555
O21_20 C11_20 1_555 1_555
O18_3 C12_20 1_555 1_555
O23_20 C13_20 1_555 1_555
O24_20 C14_20 1_555 1_555
C10_20 O16_10 1_555 1_555
C11_20 C16_20 1_555 1_555
C12_20 C17_20 1_555 1_555
C13_20 C18_20 1_555 1_555
C14_20 C19_20 1_555 1_555
C15_20 C3_20 1_555 1_555
C16_20 C20_20 1_555 1_555
C17_20 C20_20 1_555 1_555
C18_20 C21_20 1_555 1_555
C19_20 C21_20 1_555 1_555
C20_20 H4_20 1_555 1_555
C21_20 H5_20 1_555 1_555
C22_20 C5_20 1_555 1_555
C23_20 C16_20 1_555 1_555
C24_20 C17_20 1_555 1_555
C25_20 C18_20 1_555 1_555
C26_20 C19_20 1_555 1_555
H6_20 C22_20 1_555 1_555
H7_20 C23_20 1_555 1_555
H8_20 C24_20 1_555 1_555
H9_20 C25_20 1_555 1_555
H10_20 C26_20 1_555 1_555
C27_20 C23_20 1_555 1_555
C28_20 C25_20 1_555 1_555
C29_20 C27_20 1_555 1_555
C30_20 C28_20 1_555 1_555
C31_20 C29_20 1_555 1_555
C32_20 C30_20 1_555 1_555
C33_20 C9_20 1_555 1_555
C34_20 C32_20 1_555 1_555
C35_20 C8_20 1_555 1_555
C36_20 C33_20 1_555 1_555
H11_20 C35_20 1_555 1_555
H12_20 C36_20 1_555 1_555
O4_20 C1_20 1_555 1_555
C10_20 C15_20 1_555 1_555
C15_20 C22_20 1_555 1_555
C24_20 C27_20 1_555 1_555
C26_20 C28_20 1_555 1_555
C31_20 C33_20 1_555 1_555
C34_20 C35_20 1_555 1_555
C34_20 C36_20 1_555 1_555
Zn5_6 O1_40 1_555 1_555
Zn10_6 O2_40 1_555 1_555
O6_20 Zn5_6 1_555 1_555
O17_20 Zn10_6 1_555 1_555
Zn5_23 O1_41 1_555 1_555
Zn10_23 O2_41 1_555 1_555
O6_21 Zn5_23 1_555 1_555
O17_21 Zn10_23 1_555 1_555
Zn5_24 O1_42 1_555 1_555
Zn10_24 O2_42 1_555 1_555
O3_21 Zn5_24 1_555 1_555
O4_21 Zn10_24 1_555 1_555
C1_21 O3_21 1_555 1_555
C2_21 C1_21 1_555 1_555
C3_21 C2_21 1_555 1_555
H1_21 C3_21 1_555 1_555
C4_21 C2_21 1_555 1_555
H2_21 C4_21 1_555 1_555
C5_21 C4_21 1_555 1_555
C6_21 C5_21 1_555 1_555
C7_21 C6_21 1_555 1_555
C8_21 C7_21 1_555 1_555
C9_21 C8_21 1_555 1_555
H3_21 C9_21 1_555 1_555
Zn6_7 O12_21 1_555 1_555
Zn7_4 O13_21 1_555 1_555
Zn8_7 O20_21 1_555 1_555
Zn9_4 O21_21 1_555 1_555
Zn11_7 O23_21 1_555 1_555
Zn12_4 O24_21 1_555 1_555
O8_21 Zn5_24 1_555 1_555
O15_10 C11_21 1_555 1_555
O7_12 C12_21 1_555 1_555
O12_21 C13_21 1_555 1_555
O13_21 C14_21 1_555 1_555
O19_21 Zn10_24 1_555 1_555
O20_21 C10_21 1_555 1_555
O21_21 C11_21 1_555 1_555
O18_12 C12_21 1_555 1_555
O23_21 C13_21 1_555 1_555
O24_21 C14_21 1_555 1_555
C10_21 O16_7 1_555 1_555
C11_21 C16_21 1_555 1_555
C12_21 C17_21 1_555 1_555
C13_21 C18_21 1_555 1_555
C14_21 C19_21 1_555 1_555
C15_21 C3_21 1_555 1_555
C16_21 C20_21 1_555 1_555
C17_21 C20_21 1_555 1_555
C18_21 C21_21 1_555 1_555
C19_21 C21_21 1_555 1_555
C20_21 H4_21 1_555 1_555
C21_21 H5_21 1_555 1_555
C22_21 C5_21 1_555 1_555
C23_21 C16_21 1_555 1_555
C24_21 C17_21 1_555 1_555
C25_21 C18_21 1_555 1_555
C26_21 C19_21 1_555 1_555
H6_21 C22_21 1_555 1_555
H7_21 C23_21 1_555 1_555
H8_21 C24_21 1_555 1_555
H9_21 C25_21 1_555 1_555
H10_21 C26_21 1_555 1_555
C27_21 C23_21 1_555 1_555
C28_21 C25_21 1_555 1_555
C29_21 C27_21 1_555 1_555
C30_21 C28_21 1_555 1_555
C31_21 C29_21 1_555 1_555
C32_21 C30_21 1_555 1_555
C33_21 C9_21 1_555 1_555
C34_21 C32_21 1_555 1_555
C35_21 C8_21 1_555 1_555
C36_21 C33_21 1_555 1_555
H11_21 C35_21 1_555 1_555
H12_21 C36_21 1_555 1_555
O4_21 C1_21 1_555 1_555
C10_21 C15_21 1_555 1_555
C15_21 C22_21 1_555 1_555
C24_21 C27_21 1_555 1_555
C26_21 C28_21 1_555 1_555
C31_21 C33_21 1_555 1_555
C34_21 C35_21 1_555 1_555
C34_21 C36_21 1_555 1_555
Zn5_19 O1_43 1_555 1_555
Zn10_19 O2_43 1_555 1_555
O3_22 Zn5_19 1_555 1_555
O4_22 Zn10_19 1_555 1_555
C1_22 O3_22 1_555 1_555
C2_22 C1_22 1_555 1_555
C3_22 C2_22 1_555 1_555
H1_22 C3_22 1_555 1_555
C4_22 C2_22 1_555 1_555
H2_22 C4_22 1_555 1_555
C5_22 C4_22 1_555 1_555
C6_22 C5_22 1_555 1_555
C7_22 C6_22 1_555 1_555
C8_22 C7_22 1_555 1_555
C9_22 C8_22 1_555 1_555
H3_22 C9_22 1_555 1_555
Zn6_8 O12_22 1_555 1_555
Zn7 O13_22 1_555 1_555
Zn8_8 O20_22 1_555 1_555
Zn9 O21_22 1_555 1_555
Zn11_8 O23_22 1_555 1_555
Zn12 O24_22 1_555 1_555
O8_22 Zn5_19 1_555 1_555
O15_12 C11_22 1_555 1_555
O7_10 C12_22 1_555 1_555
O12_22 C13_22 1_555 1_555
O13_22 C14_22 1_555 1_555
O19_22 Zn10_19 1_555 1_555
O20_22 C10_22 1_555 1_555
O21_22 C11_22 1_555 1_555
O18_10 C12_22 1_555 1_555
O23_22 C13_22 1_555 1_555
O24_22 C14_22 1_555 1_555
C10_22 O16_8 1_555 1_555
C11_22 C16_22 1_555 1_555
C12_22 C17_22 1_555 1_555
C13_22 C18_22 1_555 1_555
C14_22 C19_22 1_555 1_555
C15_22 C3_22 1_555 1_555
C16_22 C20_22 1_555 1_555
C17_22 C20_22 1_555 1_555
C18_22 C21_22 1_555 1_555
C19_22 C21_22 1_555 1_555
C20_22 H4_22 1_555 1_555
C21_22 H5_22 1_555 1_555
C22_22 C5_22 1_555 1_555
C23_22 C16_22 1_555 1_555
C24_22 C17_22 1_555 1_555
C25_22 C18_22 1_555 1_555
C26_22 C19_22 1_555 1_555
H6_22 C22_22 1_555 1_555
H7_22 C23_22 1_555 1_555
H8_22 C24_22 1_555 1_555
H9_22 C25_22 1_555 1_555
H10_22 C26_22 1_555 1_555
C27_22 C23_22 1_555 1_555
C28_22 C25_22 1_555 1_555
C29_22 C27_22 1_555 1_555
C30_22 C28_22 1_555 1_555
C31_22 C29_22 1_555 1_555
C32_22 C30_22 1_555 1_555
C33_22 C9_22 1_555 1_555
C34_22 C32_22 1_555 1_555
C35_22 C8_22 1_555 1_555
C36_22 C33_22 1_555 1_555
H11_22 C35_22 1_555 1_555
H12_22 C36_22 1_555 1_555
O4_22 C1_22 1_555 1_555
C10_22 C15_22 1_555 1_555
C15_22 C22_22 1_555 1_555
C24_22 C27_22 1_555 1_555
C26_22 C28_22 1_555 1_555
C31_22 C33_22 1_555 1_555
C34_22 C35_22 1_555 1_555
C34_22 C36_22 1_555 1_555
Zn5_20 O1_44 1_555 1_555
Zn10_20 O2_44 1_555 1_555
O6_22 Zn5_20 1_555 1_555
O17_22 Zn10_20 1_555 1_555
Zn5_21 O1_45 1_555 1_555
Zn10_21 O2_45 1_555 1_555
O3_23 Zn5_21 1_555 1_555
O4_23 Zn10_21 1_555 1_555
C1_23 O3_23 1_555 1_555
C2_23 C1_23 1_555 1_555
C3_23 C2_23 1_555 1_555
H1_23 C3_23 1_555 1_555
C4_23 C2_23 1_555 1_555
H2_23 C4_23 1_555 1_555
C5_23 C4_23 1_555 1_555
C6_23 C5_23 1_555 1_555
C7_23 C6_23 1_555 1_555
C8_23 C7_23 1_555 1_555
C9_23 C8_23 1_555 1_555
H3_23 C9_23 1_555 1_555
Zn6_6 O12_23 1_555 1_555
Zn7_2 O13_23 1_555 1_555
Zn8_6 O20_23 1_555 1_555
Zn9_2 O21_23 1_555 1_555
Zn11_6 O23_23 1_555 1_555
Zn12_2 O24_23 1_555 1_555
O8_23 Zn5_21 1_555 1_555
O15_9 C11_23 1_555 1_555
O7_11 C12_23 1_555 1_555
O12_23 C13_23 1_555 1_555
O13_23 C14_23 1_555 1_555
O19_23 Zn10_21 1_555 1_555
O20_23 C10_23 1_555 1_555
O21_23 C11_23 1_555 1_555
O18_11 C12_23 1_555 1_555
O23_23 C13_23 1_555 1_555
O24_23 C14_23 1_555 1_555
C10_23 O16_6 1_555 1_555
C11_23 C16_23 1_555 1_555
C12_23 C17_23 1_555 1_555
C13_23 C18_23 1_555 1_555
C14_23 C19_23 1_555 1_555
C15_23 C3_23 1_555 1_555
C16_23 C20_23 1_555 1_555
C17_23 C20_23 1_555 1_555
C18_23 C21_23 1_555 1_555
C19_23 C21_23 1_555 1_555
C20_23 H4_23 1_555 1_555
C21_23 H5_23 1_555 1_555
C22_23 C5_23 1_555 1_555
C23_23 C16_23 1_555 1_555
C24_23 C17_23 1_555 1_555
C25_23 C18_23 1_555 1_555
C26_23 C19_23 1_555 1_555
H6_23 C22_23 1_555 1_555
H7_23 C23_23 1_555 1_555
H8_23 C24_23 1_555 1_555
H9_23 C25_23 1_555 1_555
H10_23 C26_23 1_555 1_555
C27_23 C23_23 1_555 1_555
C28_23 C25_23 1_555 1_555
C29_23 C27_23 1_555 1_555
C30_23 C28_23 1_555 1_555
C31_23 C29_23 1_555 1_555
C32_23 C30_23 1_555 1_555
C33_23 C9_23 1_555 1_555
C34_23 C32_23 1_555 1_555
C35_23 C8_23 1_555 1_555
C36_23 C33_23 1_555 1_555
H11_23 C35_23 1_555 1_555
H12_23 C36_23 1_555 1_555
O4_23 C1_23 1_555 1_555
C10_23 C15_23 1_555 1_555
C15_23 C22_23 1_555 1_555
C24_23 C27_23 1_555 1_555
C26_23 C28_23 1_555 1_555
C31_23 C33_23 1_555 1_555
C34_23 C35_23 1_555 1_555
C34_23 C36_23 1_555 1_555
Zn5_22 O1_46 1_555 1_555
Zn10_22 O2_46 1_555 1_555
O6_23 Zn5_22 1_555 1_555
O17_23 Zn10_22 1_555 1_555
Zn5_17 O1_47 1_555 1_555
Zn10_17 O2_47 1_555 1_555
O6_24 Zn5_17 1_555 1_555
O17_24 Zn10_17 1_555 1_555
Zn5_18 O1_48 1_555 1_555
Zn10_18 O2_48 1_555 1_555
O3_24 Zn5_18 1_555 1_555
O4_24 Zn10_18 1_555 1_555
C1_24 O3_24 1_555 1_555
C2_24 C1_24 1_555 1_555
C3_24 C2_24 1_555 1_555
H1_24 C3_24 1_555 1_555
C4_24 C2_24 1_555 1_555
H2_24 C4_24 1_555 1_555
C5_24 C4_24 1_555 1_555
C6_24 C5_24 1_555 1_555
C7_24 C6_24 1_555 1_555
C8_24 C7_24 1_555 1_555
C9_24 C8_24 1_555 1_555
H3_24 C9_24 1_555 1_555
Zn6_5 O12_24 1_555 1_555
Zn7_3 O13_24 1_555 1_555
Zn8_5 O20_24 1_555 1_555
Zn9_3 O21_24 1_555 1_555
Zn11_5 O23_24 1_555 1_555
Zn12_3 O24_24 1_555 1_555
O8_24 Zn5_18 1_555 1_555
O15_11 C11_24 1_555 1_555
O7_9 C12_24 1_555 1_555
O12_24 C13_24 1_555 1_555
O13_24 C14_24 1_555 1_555
O19_24 Zn10_18 1_555 1_555
O20_24 C10_24 1_555 1_555
O21_24 C11_24 1_555 1_555
O18_9 C12_24 1_555 1_555
O23_24 C13_24 1_555 1_555
O24_24 C14_24 1_555 1_555
C10_24 O16_5 1_555 1_555
C11_24 C16_24 1_555 1_555
C12_24 C17_24 1_555 1_555
C13_24 C18_24 1_555 1_555
C14_24 C19_24 1_555 1_555
C15_24 C3_24 1_555 1_555
C16_24 C20_24 1_555 1_555
C17_24 C20_24 1_555 1_555
C18_24 C21_24 1_555 1_555
C19_24 C21_24 1_555 1_555
C20_24 H4_24 1_555 1_555
C21_24 H5_24 1_555 1_555
C22_24 C5_24 1_555 1_555
C23_24 C16_24 1_555 1_555
C24_24 C17_24 1_555 1_555
C25_24 C18_24 1_555 1_555
C26_24 C19_24 1_555 1_555
H6_24 C22_24 1_555 1_555
H7_24 C23_24 1_555 1_555
H8_24 C24_24 1_555 1_555
H9_24 C25_24 1_555 1_555
H10_24 C26_24 1_555 1_555
C27_24 C23_24 1_555 1_555
C28_24 C25_24 1_555 1_555
C29_24 C27_24 1_555 1_555
C30_24 C28_24 1_555 1_555
C31_24 C29_24 1_555 1_555
C32_24 C30_24 1_555 1_555
C33_24 C9_24 1_555 1_555
C34_24 C32_24 1_555 1_555
C35_24 C8_24 1_555 1_555
C36_24 C33_24 1_555 1_555
H11_24 C35_24 1_555 1_555
H12_24 C36_24 1_555 1_555
O4_24 C1_24 1_555 1_555
C10_24 C15_24 1_555 1_555
C15_24 C22_24 1_555 1_555
C24_24 C27_24 1_555 1_555
C26_24 C28_24 1_555 1_555
C31_24 C33_24 1_555 1_555
C34_24 C35_24 1_555 1_555
C34_24 C36_24 1_555 1_555
C1_25 O6_18 1_555 1_555
C2_25 C1_25 1_555 1_555
C3_25 C2_25 1_555 1_555
H1_25 C3_25 1_555 1_555
C4_25 C2_25 1_555 1_555
H2_25 C4_25 1_555 1_555
C5_25 C4_25 1_555 1_555
C6_25 C5_25 1_555 1_555
C7_25 C6_25 1_555 1_555
C8_25 C7_25 1_555 1_555
C9_25 C8_25 1_555 1_555
H3_25 C9_25 1_555 1_555
O6_14 C11_25 1_555 1_555
O8_4 C12_25 1_555 1_555
O6_22 C13_25 1_555 1_555
O8_5 C14_25 1_555 1_555
O19_10 C10_25 1_555 1_555
O17_14 C11_25 1_555 1_555
O19_4 C12_25 1_555 1_555
O17_22 C13_25 1_555 1_555
O19_5 C14_25 1_555 1_555
C10_25 O8_10 1_555 1_555
C11_25 C16_25 1_555 1_555
C12_25 C17_25 1_555 1_555
C13_25 C18_25 1_555 1_555
C14_25 C19_25 1_555 1_555
C15_25 C3_25 1_555 1_555
C16_25 C20_25 1_555 1_555
C17_25 C20_25 1_555 1_555
C18_25 C21_25 1_555 1_555
C19_25 C21_25 1_555 1_555
C20_25 H4_25 1_555 1_555
C21_25 H5_25 1_555 1_555
C22_25 C5_25 1_555 1_555
C23_25 C16_25 1_555 1_555
C24_25 C17_25 1_555 1_555
C25_25 C18_25 1_555 1_555
C26_25 C19_25 1_555 1_555
H6_25 C22_25 1_555 1_555
H7_25 C23_25 1_555 1_555
H8_25 C24_25 1_555 1_555
H9_25 C25_25 1_555 1_555
H10_25 C26_25 1_555 1_555
C27_25 C23_25 1_555 1_555
C28_25 C25_25 1_555 1_555
C29_25 C27_25 1_555 1_555
C30_25 C28_25 1_555 1_555
C31_25 C29_25 1_555 1_555
C32_25 C30_25 1_555 1_555
C33_25 C9_25 1_555 1_555
C34_25 C32_25 1_555 1_555
C35_25 C8_25 1_555 1_555
C36_25 C33_25 1_555 1_555
H11_25 C35_25 1_555 1_555
H12_25 C36_25 1_555 1_555
O17_18 C1_25 1_555 1_555
C10_25 C15_25 1_555 1_555
C15_25 C22_25 1_555 1_555
C24_25 C27_25 1_555 1_555
C26_25 C28_25 1_555 1_555
C31_25 C33_25 1_555 1_555
C34_25 C35_25 1_555 1_555
C34_25 C36_25 1_555 1_555
C1_26 O6_20 1_555 1_555
C2_26 C1_26 1_555 1_555
C3_26 C2_26 1_555 1_555
H1_26 C3_26 1_555 1_555
C4_26 C2_26 1_555 1_555
H2_26 C4_26 1_555 1_555
C5_26 C4_26 1_555 1_555
C6_26 C5_26 1_555 1_555
C7_26 C6_26 1_555 1_555
C8_26 C7_26 1_555 1_555
C9_26 C8_26 1_555 1_555
H3_26 C9_26 1_555 1_555
O6_13 C11_26 1_555 1_555
O8_3 C12_26 1_555 1_555
O6_23 C13_26 1_555 1_555
O8_7 C14_26 1_555 1_555
O19_11 C10_26 1_555 1_555
O17_13 C11_26 1_555 1_555
O19_3 C12_26 1_555 1_555
O17_23 C13_26 1_555 1_555
O19_7 C14_26 1_555 1_555
C10_26 O8_11 1_555 1_555
C11_26 C16_26 1_555 1_555
C12_26 C17_26 1_555 1_555
C13_26 C18_26 1_555 1_555
C14_26 C19_26 1_555 1_555
C15_26 C3_26 1_555 1_555
C16_26 C20_26 1_555 1_555
C17_26 C20_26 1_555 1_555
C18_26 C21_26 1_555 1_555
C19_26 C21_26 1_555 1_555
C20_26 H4_26 1_555 1_555
C21_26 H5_26 1_555 1_555
C22_26 C5_26 1_555 1_555
C23_26 C16_26 1_555 1_555
C24_26 C17_26 1_555 1_555
C25_26 C18_26 1_555 1_555
C26_26 C19_26 1_555 1_555
H6_26 C22_26 1_555 1_555
H7_26 C23_26 1_555 1_555
H8_26 C24_26 1_555 1_555
H9_26 C25_26 1_555 1_555
H10_26 C26_26 1_555 1_555
C27_26 C23_26 1_555 1_555
C28_26 C25_26 1_555 1_555
C29_26 C27_26 1_555 1_555
C30_26 C28_26 1_555 1_555
C31_26 C29_26 1_555 1_555
C32_26 C30_26 1_555 1_555
C33_26 C9_26 1_555 1_555
C34_26 C32_26 1_555 1_555
C35_26 C8_26 1_555 1_555
C36_26 C33_26 1_555 1_555
H11_26 C35_26 1_555 1_555
H12_26 C36_26 1_555 1_555
O17_20 C1_26 1_555 1_555
C10_26 C15_26 1_555 1_555
C15_26 C22_26 1_555 1_555
C24_26 C27_26 1_555 1_555
C26_26 C28_26 1_555 1_555
C31_26 C33_26 1_555 1_555
C34_26 C35_26 1_555 1_555
C34_26 C36_26 1_555 1_555
C1_27 O6_17 1_555 1_555
C2_27 C1_27 1_555 1_555
C3_27 C2_27 1_555 1_555
H1_27 C3_27 1_555 1_555
C4_27 C2_27 1_555 1_555
H2_27 C4_27 1_555 1_555
C5_27 C4_27 1_555 1_555
C6_27 C5_27 1_555 1_555
C7_27 C6_27 1_555 1_555
C8_27 C7_27 1_555 1_555
C9_27 C8_27 1_555 1_555
H3_27 C9_27 1_555 1_555
O6_15 C11_27 1_555 1_555
O8_2 C12_27 1_555 1_555
O6_24 C13_27 1_555 1_555
O8_8 C14_27 1_555 1_555
O19_9 C10_27 1_555 1_555
O17_15 C11_27 1_555 1_555
O19_2 C12_27 1_555 1_555
O17_24 C13_27 1_555 1_555
O19_8 C14_27 1_555 1_555
C10_27 O8_9 1_555 1_555
C11_27 C16_27 1_555 1_555
C12_27 C17_27 1_555 1_555
C13_27 C18_27 1_555 1_555
C14_27 C19_27 1_555 1_555
C15_27 C3_27 1_555 1_555
C16_27 C20_27 1_555 1_555
C17_27 C20_27 1_555 1_555
C18_27 C21_27 1_555 1_555
C19_27 C21_27 1_555 1_555
C20_27 H4_27 1_555 1_555
C21_27 H5_27 1_555 1_555
C22_27 C5_27 1_555 1_555
C23_27 C16_27 1_555 1_555
C24_27 C17_27 1_555 1_555
C25_27 C18_27 1_555 1_555
C26_27 C19_27 1_555 1_555
H6_27 C22_27 1_555 1_555
H7_27 C23_27 1_555 1_555
H8_27 C24_27 1_555 1_555
H9_27 C25_27 1_555 1_555
H10_27 C26_27 1_555 1_555
C27_27 C23_27 1_555 1_555
C28_27 C25_27 1_555 1_555
C29_27 C27_27 1_555 1_555
C30_27 C28_27 1_555 1_555
C31_27 C29_27 1_555 1_555
C32_27 C30_27 1_555 1_555
C33_27 C9_27 1_555 1_555
C34_27 C32_27 1_555 1_555
C35_27 C8_27 1_555 1_555
C36_27 C33_27 1_555 1_555
H11_27 C35_27 1_555 1_555
H12_27 C36_27 1_555 1_555
O17_17 C1_27 1_555 1_555
C10_27 C15_27 1_555 1_555
C15_27 C22_27 1_555 1_555
C24_27 C27_27 1_555 1_555
C26_27 C28_27 1_555 1_555
C31_27 C33_27 1_555 1_555
C34_27 C35_27 1_555 1_555
C34_27 C36_27 1_555 1_555
C1_28 O6_19 1_555 1_555
C2_28 C1_28 1_555 1_555
C3_28 C2_28 1_555 1_555
H1_28 C3_28 1_555 1_555
C4_28 C2_28 1_555 1_555
H2_28 C4_28 1_555 1_555
C5_28 C4_28 1_555 1_555
C6_28 C5_28 1_555 1_555
C7_28 C6_28 1_555 1_555
C8_28 C7_28 1_555 1_555
C9_28 C8_28 1_555 1_555
H3_28 C9_28 1_555 1_555
O6_16 C11_28 1_555 1_555
O8 C12_28 1_555 1_555
O6_21 C13_28 1_555 1_555
O8_6 C14_28 1_555 1_555
O19_12 C10_28 1_555 1_555
O17_16 C11_28 1_555 1_555
O19 C12_28 1_555 1_555
O17_21 C13_28 1_555 1_555
O19_6 C14_28 1_555 1_555
C10_28 O8_12 1_555 1_555
C11_28 C16_28 1_555 1_555
C12_28 C17_28 1_555 1_555
C13_28 C18_28 1_555 1_555
C14_28 C19_28 1_555 1_555
C15_28 C3_28 1_555 1_555
C16_28 C20_28 1_555 1_555
C17_28 C20_28 1_555 1_555
C18_28 C21_28 1_555 1_555
C19_28 C21_28 1_555 1_555
C20_28 H4_28 1_555 1_555
C21_28 H5_28 1_555 1_555
C22_28 C5_28 1_555 1_555
C23_28 C16_28 1_555 1_555
C24_28 C17_28 1_555 1_555
C25_28 C18_28 1_555 1_555
C26_28 C19_28 1_555 1_555
H6_28 C22_28 1_555 1_555
H7_28 C23_28 1_555 1_555
H8_28 C24_28 1_555 1_555
H9_28 C25_28 1_555 1_555
H10_28 C26_28 1_555 1_555
C27_28 C23_28 1_555 1_555
C28_28 C25_28 1_555 1_555
C29_28 C27_28 1_555 1_555
C30_28 C28_28 1_555 1_555
C31_28 C29_28 1_555 1_555
C32_28 C30_28 1_555 1_555
C33_28 C9_28 1_555 1_555
C34_28 C32_28 1_555 1_555
C35_28 C8_28 1_555 1_555
C36_28 C33_28 1_555 1_555
H11_28 C35_28 1_555 1_555
H12_28 C36_28 1_555 1_555
O17_19 C1_28 1_555 1_555
C10_28 C15_28 1_555 1_555
C15_28 C22_28 1_555 1_555
C24_28 C27_28 1_555 1_555
C26_28 C28_28 1_555 1_555
C31_28 C33_28 1_555 1_555
C34_28 C35_28 1_555 1_555
C34_28 C36_28 1_555 1_555
Zn7 O1_49 1_555 1_555
Zn12 O2_49 1_555 1_555
Zn6_6 O5_13 1_555 1_555
Zn7_4 O1_50 1_555 1_555
Zn12_4 O2_50 1_555 1_555
Zn6_5 O5_14 1_555 1_555
Zn7_2 O1_51 1_555 1_555
Zn12_2 O2_51 1_555 1_555
Zn6_8 O5_15 1_555 1_555
Zn7_3 O1_52 1_555 1_555
Zn12_3 O2_52 1_555 1_555
Zn6_7 O5_16 1_555 1_555
Zn8_3 O2_53 1_555 1_555
Zn8 O2_54 1_555 1_555
Zn8_2 O2_55 1_555 1_555
Zn8_4 O2_56 1_555 1_555
Zn9_2 O2_57 1_555 1_555
Zn9 O2_58 1_555 1_555
Zn9_3 O2_59 1_555 1_555
Zn9_4 O2_60 1_555 1_555
C1_29 O6_3 1_555 1_555
C2_29 C1_29 1_555 1_555
C3_29 C2_29 1_555 1_555
H1_29 C3_29 1_555 1_555
C4_29 C2_29 1_555 1_555
H2_29 C4_29 1_555 1_555
C5_29 C4_29 1_555 1_555
C6_29 C5_29 1_555 1_555
C7_29 C6_29 1_555 1_555
C8_29 C7_29 1_555 1_555
C9_29 C8_29 1_555 1_555
H3_29 C9_29 1_555 1_555
O6_12 C11_29 1_555 1_555
O8_20 C12_29 1_555 1_555
O6_5 C13_29 1_555 1_555
O8_21 C14_29 1_555 1_555
O19_14 C10_29 1_555 1_555
O17_12 C11_29 1_555 1_555
O19_20 C12_29 1_555 1_555
O17_5 C13_29 1_555 1_555
O19_21 C14_29 1_555 1_555
C10_29 O8_14 1_555 1_555
C11_29 C16_29 1_555 1_555
C12_29 C17_29 1_555 1_555
C13_29 C18_29 1_555 1_555
C14_29 C19_29 1_555 1_555
C15_29 C3_29 1_555 1_555
C16_29 C20_29 1_555 1_555
C17_29 C20_29 1_555 1_555
C18_29 C21_29 1_555 1_555
C19_29 C21_29 1_555 1_555
C20_29 H4_29 1_555 1_555
C21_29 H5_29 1_555 1_555
C22_29 C5_29 1_555 1_555
C23_29 C16_29 1_555 1_555
C24_29 C17_29 1_555 1_555
C25_29 C18_29 1_555 1_555
C26_29 C19_29 1_555 1_555
H6_29 C22_29 1_555 1_555
H7_29 C23_29 1_555 1_555
H8_29 C24_29 1_555 1_555
H9_29 C25_29 1_555 1_555
H10_29 C26_29 1_555 1_555
C27_29 C23_29 1_555 1_555
C28_29 C25_29 1_555 1_555
C29_29 C27_29 1_555 1_555
C30_29 C28_29 1_555 1_555
C31_29 C29_29 1_555 1_555
C32_29 C30_29 1_555 1_555
C33_29 C9_29 1_555 1_555
C34_29 C32_29 1_555 1_555
C35_29 C8_29 1_555 1_555
C36_29 C33_29 1_555 1_555
H11_29 C35_29 1_555 1_555
H12_29 C36_29 1_555 1_555
O17_3 C1_29 1_555 1_555
C10_29 C15_29 1_555 1_555
C15_29 C22_29 1_555 1_555
C24_29 C27_29 1_555 1_555
C26_29 C28_29 1_555 1_555
C31_29 C33_29 1_555 1_555
C34_29 C35_29 1_555 1_555
C34_29 C36_29 1_555 1_555
C1_30 O6 1_555 1_555
C2_30 C1_30 1_555 1_555
C3_30 C2_30 1_555 1_555
H1_30 C3_30 1_555 1_555
C4_30 C2_30 1_555 1_555
H2_30 C4_30 1_555 1_555
C5_30 C4_30 1_555 1_555
C6_30 C5_30 1_555 1_555
C7_30 C6_30 1_555 1_555
C8_30 C7_30 1_555 1_555
C9_30 C8_30 1_555 1_555
H3_30 C9_30 1_555 1_555
O6_11 C11_30 1_555 1_555
O8_19 C12_30 1_555 1_555
O6_8 C13_30 1_555 1_555
O8_23 C14_30 1_555 1_555
O19_15 C10_30 1_555 1_555
O17_11 C11_30 1_555 1_555
O19_19 C12_30 1_555 1_555
O17_8 C13_30 1_555 1_555
O19_23 C14_30 1_555 1_555
C10_30 O8_15 1_555 1_555
C11_30 C16_30 1_555 1_555
C12_30 C17_30 1_555 1_555
C13_30 C18_30 1_555 1_555
C14_30 C19_30 1_555 1_555
C15_30 C3_30 1_555 1_555
C16_30 C20_30 1_555 1_555
C17_30 C20_30 1_555 1_555
C18_30 C21_30 1_555 1_555
C19_30 C21_30 1_555 1_555
C20_30 H4_30 1_555 1_555
C21_30 H5_30 1_555 1_555
C22_30 C5_30 1_555 1_555
C23_30 C16_30 1_555 1_555
C24_30 C17_30 1_555 1_555
C25_30 C18_30 1_555 1_555
C26_30 C19_30 1_555 1_555
H6_30 C22_30 1_555 1_555
H7_30 C23_30 1_555 1_555
H8_30 C24_30 1_555 1_555
H9_30 C25_30 1_555 1_555
H10_30 C26_30 1_555 1_555
C27_30 C23_30 1_555 1_555
C28_30 C25_30 1_555 1_555
C29_30 C27_30 1_555 1_555
C30_30 C28_30 1_555 1_555
C31_30 C29_30 1_555 1_555
C32_30 C30_30 1_555 1_555
C33_30 C9_30 1_555 1_555
C34_30 C32_30 1_555 1_555
C35_30 C8_30 1_555 1_555
C36_30 C33_30 1_555 1_555
H11_30 C35_30 1_555 1_555
H12_30 C36_30 1_555 1_555
O17 C1_30 1_555 1_555
C10_30 C15_30 1_555 1_555
C15_30 C22_30 1_555 1_555
C24_30 C27_30 1_555 1_555
C26_30 C28_30 1_555 1_555
C31_30 C33_30 1_555 1_555
C34_30 C35_30 1_555 1_555
C34_30 C36_30 1_555 1_555
C1_31 O6_4 1_555 1_555
C2_31 C1_31 1_555 1_555
C3_31 C2_31 1_555 1_555
H1_31 C3_31 1_555 1_555
C4_31 C2_31 1_555 1_555
H2_31 C4_31 1_555 1_555
C5_31 C4_31 1_555 1_555
C6_31 C5_31 1_555 1_555
C7_31 C6_31 1_555 1_555
C8_31 C7_31 1_555 1_555
C9_31 C8_31 1_555 1_555
H3_31 C9_31 1_555 1_555
O6_9 C11_31 1_555 1_555
O8_18 C12_31 1_555 1_555
O6_7 C13_31 1_555 1_555
O8_24 C14_31 1_555 1_555
O19_13 C10_31 1_555 1_555
O17_9 C11_31 1_555 1_555
O19_18 C12_31 1_555 1_555
O17_7 C13_31 1_555 1_555
O19_24 C14_31 1_555 1_555
C10_31 O8_13 1_555 1_555
C11_31 C16_31 1_555 1_555
C12_31 C17_31 1_555 1_555
C13_31 C18_31 1_555 1_555
C14_31 C19_31 1_555 1_555
C15_31 C3_31 1_555 1_555
C16_31 C20_31 1_555 1_555
C17_31 C20_31 1_555 1_555
C18_31 C21_31 1_555 1_555
C19_31 C21_31 1_555 1_555
C20_31 H4_31 1_555 1_555
C21_31 H5_31 1_555 1_555
C22_31 C5_31 1_555 1_555
C23_31 C16_31 1_555 1_555
C24_31 C17_31 1_555 1_555
C25_31 C18_31 1_555 1_555
C26_31 C19_31 1_555 1_555
H6_31 C22_31 1_555 1_555
H7_31 C23_31 1_555 1_555
H8_31 C24_31 1_555 1_555
H9_31 C25_31 1_555 1_555
H10_31 C26_31 1_555 1_555
C27_31 C23_31 1_555 1_555
C28_31 C25_31 1_555 1_555
C29_31 C27_31 1_555 1_555
C30_31 C28_31 1_555 1_555
C31_31 C29_31 1_555 1_555
C32_31 C30_31 1_555 1_555
C33_31 C9_31 1_555 1_555
C34_31 C32_31 1_555 1_555
C35_31 C8_31 1_555 1_555
C36_31 C33_31 1_555 1_555
H11_31 C35_31 1_555 1_555
H12_31 C36_31 1_555 1_555
O17_4 C1_31 1_555 1_555
C10_31 C15_31 1_555 1_555
C15_31 C22_31 1_555 1_555
C24_31 C27_31 1_555 1_555
C26_31 C28_31 1_555 1_555
C31_31 C33_31 1_555 1_555
C34_31 C35_31 1_555 1_555
C34_31 C36_31 1_555 1_555
C1_32 O6_2 1_555 1_555
C2_32 C1_32 1_555 1_555
C3_32 C2_32 1_555 1_555
H1_32 C3_32 1_555 1_555
C4_32 C2_32 1_555 1_555
H2_32 C4_32 1_555 1_555
C5_32 C4_32 1_555 1_555
C6_32 C5_32 1_555 1_555
C7_32 C6_32 1_555 1_555
C8_32 C7_32 1_555 1_555
C9_32 C8_32 1_555 1_555
H3_32 C9_32 1_555 1_555
O6_10 C11_32 1_555 1_555
O8_17 C12_32 1_555 1_555
O6_6 C13_32 1_555 1_555
O8_22 C14_32 1_555 1_555
O19_16 C10_32 1_555 1_555
O17_10 C11_32 1_555 1_555
O19_17 C12_32 1_555 1_555
O17_6 C13_32 1_555 1_555
O19_22 C14_32 1_555 1_555
C10_32 O8_16 1_555 1_555
C11_32 C16_32 1_555 1_555
C12_32 C17_32 1_555 1_555
C13_32 C18_32 1_555 1_555
C14_32 C19_32 1_555 1_555
C15_32 C3_32 1_555 1_555
C16_32 C20_32 1_555 1_555
C17_32 C20_32 1_555 1_555
C18_32 C21_32 1_555 1_555
C19_32 C21_32 1_555 1_555
C20_32 H4_32 1_555 1_555
C21_32 H5_32 1_555 1_555
C22_32 C5_32 1_555 1_555
C23_32 C16_32 1_555 1_555
C24_32 C17_32 1_555 1_555
C25_32 C18_32 1_555 1_555
C26_32 C19_32 1_555 1_555
H6_32 C22_32 1_555 1_555
H7_32 C23_32 1_555 1_555
H8_32 C24_32 1_555 1_555
H9_32 C25_32 1_555 1_555
H10_32 C26_32 1_555 1_555
C27_32 C23_32 1_555 1_555
C28_32 C25_32 1_555 1_555
C29_32 C27_32 1_555 1_555
C30_32 C28_32 1_555 1_555
C31_32 C29_32 1_555 1_555
C32_32 C30_32 1_555 1_555
C33_32 C9_32 1_555 1_555
C34_32 C32_32 1_555 1_555
C35_32 C8_32 1_555 1_555
C36_32 C33_32 1_555 1_555
H11_32 C35_32 1_555 1_555
H12_32 C36_32 1_555 1_555
O17_2 C1_32 1_555 1_555
C10_32 C15_32 1_555 1_555
C15_32 C22_32 1_555 1_555
C24_32 C27_32 1_555 1_555
C26_32 C28_32 1_555 1_555
C31_32 C33_32 1_555 1_555
C34_32 C35_32 1_555 1_555
C34_32 C36_32 1_555 1_555
Zn6_4 O1_53 1_555 1_555
Zn11_4 O2_61 1_555 1_555
Zn6 O1_54 1_555 1_555
Zn11 O2_62 1_555 1_555
Zn6_2 O1_55 1_555 1_555
Zn11_2 O2_63 1_555 1_555
Zn6_3 O1_56 1_555 1_555
Zn11_3 O2_64 1_555 1_555
Zn8_7 O2_65 1_555 1_555
Zn8_5 O2_66 1_555 1_555
Zn8_6 O2_67 1_555 1_555
Zn8_8 O2_68 1_555 1_555
Zn11_5 O2_69 1_555 1_555
Zn11_8 O2_70 1_555 1_555
Zn11_7 O2_71 1_555 1_555
Zn11_6 O2_72 1_555 1_555

#END
