
###############################################################################
#
# This file contains modified crystal structure data generated from the
# MOF subset of the Cambridge Structural Database (CSD) v543 
# hosted by the Cambridge Crystallographic Data Centre (CCDC).
#
# This work is licensed under the Creative Commons
# Attribution-NonCommercial-ShareAlike 4.0 International License.
# To view a copy of this license, visit
# http://creativecommons.org/licenses/by-nc-sa/4.0/
# or send a letter to
# Creative Commons, PO Box 1866, Mountain View, CA 94042, USA.
#
# CIF created using the CSD Python API on 29 September 2022
# The structure has been converted into the P1 space group
# The structure has a 3D framework
# The original CSD entry MUDTOV is in the monoclinic crystal system
# The framework has been calculated to contain at least 10.0% void space
# The void calculation uses a probe of radius 1.32A, grid spacing 0.4
#
###############################################################################

data_MUDTOV
_chemical_formula_moiety         '(C144 H144 O48 Pb11 S48)n'
_symmetry_cell_setting           triclinic
_symmetry_space_group_name_H-M   'P 1'
_symmetry_Int_Tables_number      1
_space_group_name_Hall           'P 1'
loop_
_symmetry_equiv_pos_site_id
_symmetry_equiv_pos_as_xyz
1 x,y,z
_cell_length_a                   19.8996(12)
_cell_length_b                   27.0362(17)
_cell_length_c                   12.2604(8)
_cell_angle_alpha                90
_cell_angle_beta                 110.8960(10)
_cell_angle_gamma                90
_cell_volume                     6162.38
loop_
_atom_site_label
_atom_site_type_symbol
_atom_site_fract_x
_atom_site_fract_y
_atom_site_fract_z
C25 C 0.0130(2) 0.10679(19) 0.5016(4)
C26 C 0.0074(2) 0.05100(18) 0.5041(4)
C28 C 0.0582(2) 0.02227(19) 0.4789(4)
C30 C 0.1082(3) 0.0502(3) 0.3047(5)
H28 H 0.0983 0.0160 0.2778
H29 H 0.1474 0.0634 0.2827
H30 H 0.0649 0.0703 0.2685
O10 O 0.07514(17) 0.19705(14) 0.3037(3)
O14 O 0.05240(17) 0.13035(13) 0.5881(3)
Pb8 Pb -0.0000 0.148557(10) 0.7500
S10 S 0.13367(6) 0.05224(5) 0.46172(10)
C19 C 0.3693(2) 0.71608(18) 0.2029(4)
C20 C 0.3079(2) 0.73270(19) 0.0937(4)
C21 C 0.2450(2) 0.70440(18) 0.0526(4)
C22 C 0.3142(2) 0.77800(19) 0.0429(4)
C23 C 0.1979(3) 0.6672(3) 0.2207(5)
H19 H 0.1530 0.6844 0.1765
H20 H 0.1871 0.6383 0.2599
H21 H 0.2296 0.6897 0.2792
C24 C 0.3756(3) 0.8632(2) 0.1727(5)
H22 H 0.3618 0.8509 0.2369
H23 H 0.4178 0.8846 0.2039
H24 H 0.3356 0.8820 0.1182
O7 O 0.42486(17) 0.69705(14) 0.1963(3)
O11 O 0.36120(17) 0.72470(15) 0.2988(3)
Pb5 Pb 0.485917(8) 0.710586(7) 0.420305(14)
Pb6 Pb 0.514083(8) 0.710586(7) 0.079695(14)
S7 S 0.24185(6) 0.64738(5) 0.12222(11)
S8 S 0.39678(6) 0.81151(5) 0.09696(11)
C1 C 0.1307(2) 0.78392(18) 0.7971(4)
C2 C 0.1921(2) 0.76730(19) 0.9063(4)
C3 C 0.2550(2) 0.79560(18) 0.9474(4)
C4 C 0.1858(2) 0.72200(19) 0.9571(4)
C5 C 0.3021(3) 0.8328(3) 0.7793(5)
H1 H 0.3470 0.8156 0.8235
H2 H 0.3129 0.8617 0.7401
H3 H 0.2704 0.8103 0.7208
C6 C 0.1244(3) 0.6368(2) 0.8273(5)
H4 H 0.1382 0.6491 0.7631
H5 H 0.0822 0.6154 0.7961
H6 H 0.1644 0.6180 0.8818
C9 C 0.0509(2) 0.97085(18) 0.4741(4)
C11 C 0.1741(3) 0.9113(2) 0.5680(4)
H7 H 0.1976 0.9398 0.6160
H8 H 0.2104 0.8906 0.5533
H9 H 0.1490 0.8919 0.6091
C13 C 0.1057(2) 0.78411(18) 0.3782(4)
C14 C 0.1803(2) 0.76500(18) 0.4418(4)
C15 C 0.2369(2) 0.79284(18) 0.4294(4)
C16 C 0.1918(2) 0.72275(19) 0.5103(4)
C17 C 0.2093(3) 0.8227(2) 0.2035(4)
H13 H 0.2538 0.8054 0.2099
H14 H 0.2008 0.8496 0.1466
H15 H 0.1689 0.7994 0.1778
C18 C 0.0905(4) 0.6524(3) 0.3967(7)
H16 H 0.1271 0.6269 0.4060
H17 H 0.0443 0.6366 0.3865
H18 H 0.0856 0.6726 0.3280
O1 O 0.07514(17) 0.80295(14) 0.8037(3)
O2 O 0.13880(17) 0.77530(15) 0.7012(3)
O3 O 0.02522(17) 0.87294(13) 0.5959(3)
O5 O 0.07467(16) 0.80810(13) 0.4358(3)
O6 O 0.07919(18) 0.77868(14) 0.2702(3)
Pb1 Pb 0.014083(8) 0.789414(7) 0.579695(14)
Pb2 Pb -0.0000 0.851443(10) 0.2500
S1 S 0.25815(6) 0.85262(5) 0.87778(11)
S2 S 0.10322(6) 0.68849(5) 0.90304(11)
S3 S 0.11014(6) 0.93291(5) 0.43048(10)
S5 S 0.21743(7) 0.84796(5) 0.34438(11)
S6 S 0.11670(6) 0.69080(5) 0.52358(11)
C31 C 0.3943(2) 0.71589(18) 0.6218(4)
C32 C 0.3197(2) 0.73500(18) 0.5582(4)
C33 C 0.2631(2) 0.70716(18) 0.5706(4)
C34 C 0.3082(2) 0.77725(19) 0.4897(4)
C35 C 0.2907(3) 0.6773(2) 0.7965(4)
H31 H 0.2462 0.6946 0.7901
H32 H 0.2992 0.6504 0.8534
H33 H 0.3311 0.7006 0.8222
C36 C 0.4095(4) 0.8476(3) 0.6033(7)
H34 H 0.3729 0.8731 0.5940
H35 H 0.4557 0.8634 0.6135
H36 H 0.4144 0.8274 0.6720
O15 O 0.05240(17) 0.86965(13) 0.0881(3)
O16 O 0.42533(16) 0.69190(13) 0.5642(3)
O19 O 0.42081(18) 0.72132(14) 0.7298(3)
Pb9 Pb 0.5000 0.648557(10) 0.7500
S11 S 0.28257(7) 0.65204(5) 0.65562(11)
S12 S 0.38330(6) 0.80920(5) 0.47642(11)
C27 C 0.9491(2) 0.02915(18) 0.5259(4)
C29 C 0.8259(3) 0.0887(2) 0.4320(4)
H25 H 0.8024 0.0602 0.3840
H26 H 0.7896 0.1094 0.4467
H27 H 0.8510 0.1081 0.3909
O9 O 0.92486(17) 0.19705(14) 0.1963(3)
O12 O 0.86120(17) 0.22470(15) 0.2988(3)
O13 O 0.97478(17) 0.12706(13) 0.4041(3)
O18 O 0.92533(16) 0.19190(13) 0.5642(3)
Pb3 Pb 0.985917(8) 0.210586(7) 0.420305(14)
Pb8_2 Pb 1.0000 0.148557(10) 0.7500
S9 S 0.88986(6) 0.06709(5) 0.56952(10)
C7 C 0.9870(2) 0.89321(19) 0.4984(4)
C8 C 0.9926(2) 0.94900(18) 0.4959(4)
C10 C 0.9418(2) 0.97773(19) 0.5211(4)
C12 C 0.8918(3) 0.9498(3) 0.6953(5)
H10 H 0.9017 0.9840 0.7222
H11 H 0.8526 0.9366 0.7173
H12 H 0.9351 0.9297 0.7315
O4 O 0.94760(17) 0.86965(13) 0.4119(3)
Pb2_2 Pb 1.0000 0.851443(10) 0.2500
S4 S 0.86633(6) 0.94776(5) 0.53828(10)
O8 O 0.92486(17) 0.80295(14) 0.6963(3)
O17 O 0.92533(16) 0.80810(13) 0.0642(3)
O20 O 0.92081(18) 0.77868(14) 0.2298(3)
Pb4 Pb 0.985917(8) 0.789414(7) 0.920305(14)
C29_2 C 0.1741(3) 0.0887(2) 0.0680(4)
H25_2 H 0.1976 0.0602 0.1160
H26_2 H 0.2104 0.1094 0.0533
H27_2 H 0.1490 0.1081 0.1091
O12_2 O 0.13880(17) 0.22470(15) 0.2012(3)
O13_2 O 0.02522(17) 0.12706(13) 0.0959(3)
Pb3_2 Pb 0.014083(8) 0.210586(7) 0.079695(14)
C27_2 C 0.0509(2) 0.02915(18) 0.9741(4)
O18_2 O 0.07467(16) 0.19190(13) 0.9358(3)
S9_2 S 0.11014(6) 0.06709(5) 0.93048(10)
C7_2 C 0.0130(2) 0.89321(19) 0.0016(4)
C8_2 C 0.0074(2) 0.94900(18) 0.0041(4)
C10_2 C 0.0582(2) 0.97773(19) 0.9789(4)
C12_2 C 0.1082(3) 0.9498(3) 0.8047(5)
H10_2 H 0.0983 0.9840 0.7778
H11_2 H 0.1474 0.9366 0.7827
H12_2 H 0.0649 0.9297 0.7685
S4_2 S 0.13367(6) 0.94776(5) 0.96172(10)
C28_2 C 0.9418(2) 0.02227(19) 0.0211(4)
C30_2 C 0.8918(3) 0.0502(3) 0.1953(5)
H28_2 H 0.9017 0.0160 0.2222
H29_2 H 0.8526 0.0634 0.2173
H30_2 H 0.9351 0.0703 0.2315
S10_2 S 0.86633(6) 0.05224(5) 0.03828(10)
C25_2 C 0.9870(2) 0.10679(19) 0.9984(4)
C26_2 C 0.9926(2) 0.05100(18) 0.9959(4)
O14_2 O 0.94760(17) 0.13035(13) 0.9119(3)
C9_2 C 0.9491(2) 0.97085(18) 0.0259(4)
C13_2 C 0.8943(2) 0.78411(18) 0.1218(4)
C14_2 C 0.8197(2) 0.76500(18) 0.0582(4)
C15_2 C 0.7631(2) 0.79284(18) 0.0706(4)
C17_2 C 0.7907(3) 0.8227(2) 0.2965(4)
H13_2 H 0.7462 0.8054 0.2901
H14_2 H 0.7992 0.8496 0.3534
H15_2 H 0.8311 0.7994 0.3222
C18_2 C 0.9095(4) 0.6524(3) 0.1033(7)
H16_2 H 0.8729 0.6269 0.0940
H17_2 H 0.9557 0.6366 0.1135
H18_2 H 0.9144 0.6726 0.1720
S3_2 S 0.88986(6) 0.93291(5) 0.06952(10)
S5_2 S 0.78257(7) 0.84796(5) 0.15562(11)
C34_2 C 0.6918(2) 0.77725(19) 0.0103(4)
S12_2 S 0.61670(6) 0.80920(5) 0.02358(11)
C1_2 C 0.8693(2) 0.78392(18) 0.7029(4)
C2_2 C 0.8079(2) 0.76730(19) 0.5937(4)
C3_2 C 0.7450(2) 0.79560(18) 0.5526(4)
C4_2 C 0.8142(2) 0.72200(19) 0.5429(4)
C5_2 C 0.6979(3) 0.8328(3) 0.7207(5)
H1_2 H 0.6530 0.8156 0.6765
H2_2 H 0.6871 0.8617 0.7599
H3_2 H 0.7296 0.8103 0.7792
C6_2 C 0.8756(3) 0.6368(2) 0.6727(5)
H4_2 H 0.8618 0.6491 0.7369
H5_2 H 0.9178 0.6154 0.7039
H6_2 H 0.8356 0.6180 0.6182
C11_2 C 0.8259(3) 0.9113(2) 0.9320(4)
H7_2 H 0.8024 0.9398 0.8840
H8_2 H 0.7896 0.8906 0.9467
H9_2 H 0.8510 0.8919 0.8909
C16_2 C 0.8082(2) 0.72275(19) 0.9897(4)
O2_2 O 0.86120(17) 0.77530(15) 0.7988(3)
O3_2 O 0.97478(17) 0.87294(13) 0.9041(3)
S1_2 S 0.74185(6) 0.85262(5) 0.62222(11)
S2_2 S 0.89678(6) 0.68849(5) 0.59696(11)
S6_2 S 0.88330(6) 0.69080(5) 0.97642(11)
C19_2 C 0.6307(2) 0.71608(18) 0.2971(4)
C20_2 C 0.6921(2) 0.73270(19) 0.4063(4)
C21_2 C 0.7550(2) 0.70440(18) 0.4474(4)
C22_2 C 0.6858(2) 0.77800(19) 0.4571(4)
C23_2 C 0.8021(3) 0.6672(3) 0.2793(5)
H19_2 H 0.8470 0.6844 0.3235
H20_2 H 0.8129 0.6383 0.2401
H21_2 H 0.7704 0.6897 0.2208
C24_2 C 0.6244(3) 0.8632(2) 0.3273(5)
H22_2 H 0.6382 0.8509 0.2631
H23_2 H 0.5822 0.8846 0.2961
H24_2 H 0.6644 0.8820 0.3818
C31_2 C 0.6057(2) 0.71589(18) 0.8782(4)
C32_2 C 0.6803(2) 0.73500(18) 0.9418(4)
C33_2 C 0.7369(2) 0.70716(18) 0.9294(4)
C35_2 C 0.7093(3) 0.6773(2) 0.7035(4)
H31_2 H 0.7538 0.6946 0.7099
H32_2 H 0.7008 0.6504 0.6466
H33_2 H 0.6689 0.7006 0.6778
C36_2 C 0.5905(4) 0.8476(3) 0.8967(7)
H34_2 H 0.6271 0.8731 0.9060
H35_2 H 0.5443 0.8634 0.8865
H36_2 H 0.5856 0.8274 0.8280
O7_2 O 0.57514(17) 0.69705(14) 0.3037(3)
O11_2 O 0.63880(17) 0.72470(15) 0.2012(3)
O16_2 O 0.57467(16) 0.69190(13) 0.9358(3)
O19_2 O 0.57919(18) 0.72132(14) 0.7702(3)
S7_2 S 0.75815(6) 0.64738(5) 0.37778(11)
S8_2 S 0.60322(6) 0.81151(5) 0.40304(11)
S11_2 S 0.71743(7) 0.65204(5) 0.84438(11)
C19_3 C 0.8693(2) 0.21608(18) 0.2029(4)
C20_3 C 0.8079(2) 0.23270(19) 0.0937(4)
C21_3 C 0.7450(2) 0.20440(18) 0.0526(4)
C22_3 C 0.8142(2) 0.27800(19) 0.0429(4)
C23_3 C 0.6979(3) 0.1672(3) 0.2207(5)
H19_3 H 0.6530 0.1844 0.1765
H20_3 H 0.6871 0.1383 0.2599
H21_3 H 0.7296 0.1897 0.2792
C24_3 C 0.8756(3) 0.3632(2) 0.1727(5)
H22_3 H 0.8618 0.3509 0.2369
H23_3 H 0.9178 0.3846 0.2039
H24_3 H 0.8356 0.3820 0.1182
S7_3 S 0.74185(6) 0.14738(5) 0.12222(11)
S8_3 S 0.89678(6) 0.31151(5) 0.09696(11)
C1_3 C 0.6307(2) 0.28392(18) 0.7971(4)
C2_3 C 0.6921(2) 0.26730(19) 0.9063(4)
C3_3 C 0.7550(2) 0.29560(18) 0.9474(4)
C4_3 C 0.6858(2) 0.22200(19) 0.9571(4)
C5_3 C 0.8021(3) 0.3328(3) 0.7793(5)
H1_3 H 0.8470 0.3156 0.8235
H2_3 H 0.8129 0.3617 0.7401
H3_3 H 0.7704 0.3103 0.7208
C6_3 C 0.6244(3) 0.1368(2) 0.8273(5)
H4_3 H 0.6382 0.1491 0.7631
H5_3 H 0.5822 0.1154 0.7961
H6_3 H 0.6644 0.1180 0.8818
C7_3 C 0.4870(2) 0.39321(19) 0.4984(4)
C8_3 C 0.4926(2) 0.44900(18) 0.4959(4)
C9_3 C 0.5509(2) 0.47085(18) 0.4741(4)
C10_3 C 0.4418(2) 0.47773(19) 0.5211(4)
C11_3 C 0.6741(3) 0.4113(2) 0.5680(4)
H7_3 H 0.6976 0.4398 0.6160
H8_3 H 0.7104 0.3906 0.5533
H9_3 H 0.6490 0.3919 0.6091
C12_3 C 0.3918(3) 0.4498(3) 0.6953(5)
H10_3 H 0.4017 0.4840 0.7222
H11_3 H 0.3526 0.4366 0.7173
H12_3 H 0.4351 0.4297 0.7315
C13_3 C 0.6057(2) 0.28411(18) 0.3782(4)
C14_3 C 0.6803(2) 0.26500(18) 0.4418(4)
C15_3 C 0.7369(2) 0.29284(18) 0.4294(4)
C16_3 C 0.6918(2) 0.22275(19) 0.5103(4)
C17_3 C 0.7093(3) 0.3227(2) 0.2035(4)
H13_3 H 0.7538 0.3054 0.2099
H14_3 H 0.7008 0.3496 0.1466
H15_3 H 0.6689 0.2994 0.1778
C18_3 C 0.5905(4) 0.1524(3) 0.3967(7)
H16_3 H 0.6271 0.1269 0.4060
H17_3 H 0.5443 0.1366 0.3865
H18_3 H 0.5856 0.1726 0.3280
O1_2 O 0.57514(17) 0.30295(14) 0.8037(3)
O2_3 O 0.63880(17) 0.27530(15) 0.7012(3)
O3_3 O 0.52522(17) 0.37294(13) 0.5959(3)
O4_2 O 0.44760(17) 0.36965(13) 0.4119(3)
O5_2 O 0.57467(16) 0.30810(13) 0.4358(3)
O6_2 O 0.57919(18) 0.27868(14) 0.2702(3)
Pb1_2 Pb 0.514083(8) 0.289414(7) 0.579695(14)
Pb2_3 Pb 0.5000 0.351443(10) 0.2500
S1_3 S 0.75815(6) 0.35262(5) 0.87778(11)
S2_3 S 0.60322(6) 0.18849(5) 0.90304(11)
S3_3 S 0.61014(6) 0.43291(5) 0.43048(10)
S4_3 S 0.36633(6) 0.44776(5) 0.53828(10)
S5_3 S 0.71743(7) 0.34796(5) 0.34438(11)
S6_3 S 0.61670(6) 0.19080(5) 0.52358(11)
C25_3 C 0.5130(2) 0.60679(19) 0.5016(4)
C26_3 C 0.5074(2) 0.55100(18) 0.5041(4)
C27_3 C 0.4491(2) 0.52915(18) 0.5259(4)
C28_3 C 0.5582(2) 0.52227(19) 0.4789(4)
C29_3 C 0.3259(3) 0.5887(2) 0.4320(4)
H25_3 H 0.3024 0.5602 0.3840
H26_3 H 0.2896 0.6094 0.4467
H27_3 H 0.3510 0.6081 0.3909
C30_3 C 0.6082(3) 0.5502(3) 0.3047(5)
H28_3 H 0.5983 0.5160 0.2778
H29_3 H 0.6474 0.5634 0.2827
H30_3 H 0.5649 0.5703 0.2685
C31_3 C 0.8943(2) 0.21589(18) 0.6218(4)
C32_3 C 0.8197(2) 0.23500(18) 0.5582(4)
C33_3 C 0.7631(2) 0.20716(18) 0.5706(4)
C34_3 C 0.8082(2) 0.27725(19) 0.4897(4)
C35_3 C 0.7907(3) 0.1773(2) 0.7965(4)
H31_3 H 0.7462 0.1946 0.7901
H32_3 H 0.7992 0.1504 0.8534
H33_3 H 0.8311 0.2006 0.8222
C36_3 C 0.9095(4) 0.3476(3) 0.6033(7)
H34_3 H 0.8729 0.3731 0.5940
H35_3 H 0.9557 0.3634 0.6135
H36_3 H 0.9144 0.3274 0.6720
O8_2 O 0.42486(17) 0.30295(14) 0.6963(3)
O13_3 O 0.47478(17) 0.62706(13) 0.4041(3)
O14_3 O 0.55240(17) 0.63035(13) 0.5881(3)
O15_2 O 0.55240(17) 0.36965(13) 0.0881(3)
O17_2 O 0.42533(16) 0.30810(13) 0.0642(3)
O19_3 O 0.92081(18) 0.22132(14) 0.7298(3)
O20_2 O 0.42081(18) 0.27868(14) 0.2298(3)
Pb4_2 Pb 0.485917(8) 0.289414(7) 0.920305(14)
S9_3 S 0.38986(6) 0.56709(5) 0.56952(10)
S10_3 S 0.63367(6) 0.55224(5) 0.46172(10)
S11_3 S 0.78257(7) 0.15204(5) 0.65562(11)
S12_3 S 0.88330(6) 0.30920(5) 0.47642(11)
C7_4 C 0.5130(2) 0.39321(19) 0.0016(4)
C8_4 C 0.5074(2) 0.44900(18) 0.0041(4)
C9_4 C 0.4491(2) 0.47085(18) 0.0259(4)
C13_4 C 0.3943(2) 0.28411(18) 0.1218(4)
C14_4 C 0.3197(2) 0.26500(18) 0.0582(4)
C15_4 C 0.2631(2) 0.29284(18) 0.0706(4)
C17_4 C 0.2907(3) 0.3227(2) 0.2965(4)
H13_4 H 0.2462 0.3054 0.2901
H14_4 H 0.2992 0.3496 0.3534
H15_4 H 0.3311 0.2994 0.3222
C18_4 C 0.4095(4) 0.1524(3) 0.1033(7)
H16_4 H 0.3729 0.1269 0.0940
H17_4 H 0.4557 0.1366 0.1135
H18_4 H 0.4144 0.1726 0.1720
S3_4 S 0.38986(6) 0.43291(5) 0.06952(10)
S5_4 S 0.28257(7) 0.34796(5) 0.15562(11)
C28_4 C 0.4418(2) 0.52227(19) 0.0211(4)
C29_4 C 0.6741(3) 0.5887(2) 0.0680(4)
H25_4 H 0.6976 0.5602 0.1160
H26_4 H 0.7104 0.6094 0.0533
H27_4 H 0.6490 0.6081 0.1091
C30_4 C 0.3918(3) 0.5502(3) 0.1953(5)
H28_4 H 0.4017 0.5160 0.2222
H29_4 H 0.3526 0.5634 0.2173
H30_4 H 0.4351 0.5703 0.2315
C34_4 C 0.1918(2) 0.27725(19) 0.0103(4)
O13_4 O 0.52522(17) 0.62706(13) 0.0959(3)
S10_4 S 0.36633(6) 0.55224(5) 0.03828(10)
S12_4 S 0.11670(6) 0.30920(5) 0.02358(11)
C1_4 C 0.3693(2) 0.28392(18) 0.7029(4)
C2_4 C 0.3079(2) 0.26730(19) 0.5937(4)
C3_4 C 0.2450(2) 0.29560(18) 0.5526(4)
C4_4 C 0.3142(2) 0.22200(19) 0.5429(4)
C5_4 C 0.1979(3) 0.3328(3) 0.7207(5)
H1_4 H 0.1530 0.3156 0.6765
H2_4 H 0.1871 0.3617 0.7599
H3_4 H 0.2296 0.3103 0.7792
C6_4 C 0.3756(3) 0.1368(2) 0.6727(5)
H4_4 H 0.3618 0.1491 0.7369
H5_4 H 0.4178 0.1154 0.7039
H6_4 H 0.3356 0.1180 0.6182
C10_4 C 0.5582(2) 0.47773(19) 0.9789(4)
C11_4 C 0.3259(3) 0.4113(2) 0.9320(4)
H7_4 H 0.3024 0.4398 0.8840
H8_4 H 0.2896 0.3906 0.9467
H9_4 H 0.3510 0.3919 0.8909
C12_4 C 0.6082(3) 0.4498(3) 0.8047(5)
H10_4 H 0.5983 0.4840 0.7778
H11_4 H 0.6474 0.4366 0.7827
H12_4 H 0.5649 0.4297 0.7685
C16_4 C 0.3082(2) 0.22275(19) 0.9897(4)
O2_4 O 0.36120(17) 0.27530(15) 0.7988(3)
O3_4 O 0.47478(17) 0.37294(13) 0.9041(3)
S1_4 S 0.24185(6) 0.35262(5) 0.62222(11)
S2_4 S 0.39678(6) 0.18849(5) 0.59696(11)
S4_4 S 0.63367(6) 0.44776(5) 0.96172(10)
S6_4 S 0.38330(6) 0.19080(5) 0.97642(11)
C19_4 C 0.1307(2) 0.21608(18) 0.2971(4)
C20_4 C 0.1921(2) 0.23270(19) 0.4063(4)
C21_4 C 0.2550(2) 0.20440(18) 0.4474(4)
C22_4 C 0.1858(2) 0.27800(19) 0.4571(4)
C23_4 C 0.3021(3) 0.1672(3) 0.2793(5)
H19_4 H 0.3470 0.1844 0.3235
H20_4 H 0.3129 0.1383 0.2401
H21_4 H 0.2704 0.1897 0.2208
C24_4 C 0.1244(3) 0.3632(2) 0.3273(5)
H22_4 H 0.1382 0.3509 0.2631
H23_4 H 0.0822 0.3846 0.2961
H24_4 H 0.1644 0.3820 0.3818
C25_4 C 0.4870(2) 0.60679(19) 0.9984(4)
C26_4 C 0.4926(2) 0.55100(18) 0.9959(4)
C27_4 C 0.5509(2) 0.52915(18) 0.9741(4)
C31_4 C 0.1057(2) 0.21589(18) 0.8782(4)
C32_4 C 0.1803(2) 0.23500(18) 0.9418(4)
C33_4 C 0.2369(2) 0.20716(18) 0.9294(4)
C35_4 C 0.2093(3) 0.1773(2) 0.7035(4)
H31_4 H 0.2538 0.1946 0.7099
H32_4 H 0.2008 0.1504 0.6466
H33_4 H 0.1689 0.2006 0.6778
C36_4 C 0.0905(4) 0.3476(3) 0.8967(7)
H34_4 H 0.1271 0.3731 0.9060
H35_4 H 0.0443 0.3634 0.8865
H36_4 H 0.0856 0.3274 0.8280
O14_4 O 0.44760(17) 0.63035(13) 0.9119(3)
O19_4 O 0.07919(18) 0.22132(14) 0.7702(3)
S7_4 S 0.25815(6) 0.14738(5) 0.37778(11)
S8_4 S 0.10322(6) 0.31151(5) 0.40304(11)
S9_4 S 0.61014(6) 0.56709(5) 0.93048(10)
S11_4 S 0.21743(7) 0.15204(5) 0.84438(11)
loop_
_geom_bond_atom_site_label_1
_geom_bond_atom_site_label_2
_geom_bond_site_symmetry_1
_geom_bond_site_symmetry_2
C25 C26 1_555 1_555
C30 H28 1_555 1_555
H29 C30 1_555 1_555
H30 C30 1_555 1_555
O14 C25 1_555 1_555
Pb8 O14 1_555 1_555
S10 C28 1_555 1_555
C26 C28 1_555 1_555
C30 S10 1_555 1_555
C19 C20 1_555 1_555
C20 C21 1_555 1_555
C23 H19 1_555 1_555
H20 C23 1_555 1_555
H21 C23 1_555 1_555
C24 H22 1_555 1_555
H23 C24 1_555 1_555
H24 C24 1_555 1_555
O7 C19 1_555 1_555
O11 C19 1_555 1_555
Pb5 O7 1_555 1_555
Pb6 O7 1_555 1_555
S7 C21 1_555 1_555
S8 C22 1_555 1_555
C20 C22 1_555 1_555
C23 S7 1_555 1_555
C24 S8 1_555 1_555
O11 Pb5 1_555 1_555
C1 C2 1_555 1_555
C2 C3 1_555 1_555
C3 S1 1_555 1_555
C4 C2 1_555 1_555
C5 H1 1_555 1_555
H2 C5 1_555 1_555
H3 C5 1_555 1_555
C6 H4 1_555 1_555
H5 C6 1_555 1_555
H6 C6 1_555 1_555
C9 S3 1_555 1_555
C11 H7 1_555 1_555
H8 C11 1_555 1_555
H9 C11 1_555 1_555
C13 C14 1_555 1_555
C14 C15 1_555 1_555
C15 S5 1_555 1_555
C16 C14 1_555 1_555
C17 H13 1_555 1_555
H14 C17 1_555 1_555
H15 C17 1_555 1_555
C18 H16 1_555 1_555
H17 C18 1_555 1_555
H18 C18 1_555 1_555
O1 C1 1_555 1_555
O2 C1 1_555 1_555
O5 C13 1_555 1_555
O6 C13 1_555 1_555
Pb1 O1 1_555 1_555
S1 C5 1_555 1_555
S2 C4 1_555 1_555
S3 C11 1_555 1_555
S5 C17 1_555 1_555
S6 C16 1_555 1_555
C31 C32 1_555 1_555
C32 C33 1_555 1_555
C33 C16 1_555 1_555
C34 C15 1_555 1_555
C35 H31 1_555 1_555
H32 C35 1_555 1_555
H33 C35 1_555 1_555
C36 H34 1_555 1_555
H35 C36 1_555 1_555
H36 C36 1_555 1_555
O15 Pb2 1_555 1_555
O16 C31 1_555 1_555
O19 C31 1_555 1_555
Pb5 O16 1_555 1_555
Pb9 O16 1_555 1_555
S11 C33 1_555 1_555
S12 C34 1_555 1_555
C6 S2 1_555 1_555
C18 S6 1_555 1_555
O2 Pb1 1_555 1_555
O3 Pb1 1_555 1_555
O5 Pb1 1_555 1_555
O5 Pb2 1_555 1_555
O6 Pb2 1_555 1_555
C32 C34 1_555 1_555
C35 S11 1_555 1_555
C36 S12 1_555 1_555
O19 Pb9 1_555 1_555
C29 H25 1_555 1_555
H26 C29 1_555 1_555
H27 C29 1_555 1_555
O9 Pb3 1_555 1_555
O12 Pb3 1_555 1_555
O18 Pb3 1_555 1_555
Pb3 O13 1_555 1_555
S9 C27 1_555 1_555
C29 S9 1_555 1_555
O18 Pb8_2 1_555 1_555
C7 C8 1_555 1_555
C10 C8 1_555 1_555
C12 H10 1_555 1_555
H11 C12 1_555 1_555
H12 C12 1_555 1_555
O4 C7 1_555 1_555
Pb2_2 O4 1_555 1_555
S4 C10 1_555 1_555
O17 Pb2_2 1_555 1_555
O20 Pb2_2 1_555 1_555
C12 S4 1_555 1_555
O8 Pb4 1_555 1_555
C29_2 H25_2 1_555 1_555
H26_2 C29_2 1_555 1_555
H27_2 C29_2 1_555 1_555
O10 Pb3_2 1_555 1_555
O12_2 Pb3_2 1_555 1_555
Pb3_2 O13_2 1_555 1_555
S9_2 C27_2 1_555 1_555
O18_2 Pb8 1_555 1_555
C7_2 C8_2 1_555 1_555
O15 C7_2 1_555 1_555
C12_2 H10_2 1_555 1_555
H11_2 C12_2 1_555 1_555
H12_2 C12_2 1_555 1_555
S4_2 C10_2 1_555 1_555
C12_2 S4_2 1_555 1_555
C30_2 H28_2 1_555 1_555
H29_2 C30_2 1_555 1_555
H30_2 C30_2 1_555 1_555
S10_2 C28_2 1_555 1_555
C30_2 S10_2 1_555 1_555
C25_2 C26_2 1_555 1_555
O14_2 C25_2 1_555 1_555
Pb8_2 O14_2 1_555 1_555
C9_2 S3_2 1_555 1_555
C13_2 C14_2 1_555 1_555
C14_2 C15_2 1_555 1_555
C15_2 S5_2 1_555 1_555
C17_2 H13_2 1_555 1_555
H14_2 C17_2 1_555 1_555
H15_2 C17_2 1_555 1_555
C18_2 H16_2 1_555 1_555
H17_2 C18_2 1_555 1_555
H18_2 C18_2 1_555 1_555
O17 C13_2 1_555 1_555
O20 C13_2 1_555 1_555
S5_2 C17_2 1_555 1_555
C34_2 C15_2 1_555 1_555
S12_2 C34_2 1_555 1_555
C1_2 C2_2 1_555 1_555
C2_2 C3_2 1_555 1_555
C3_2 S1_2 1_555 1_555
C4_2 C2_2 1_555 1_555
C5_2 H1_2 1_555 1_555
H2_2 C5_2 1_555 1_555
H3_2 C5_2 1_555 1_555
C6_2 H4_2 1_555 1_555
H5_2 C6_2 1_555 1_555
H6_2 C6_2 1_555 1_555
C11_2 H7_2 1_555 1_555
H8_2 C11_2 1_555 1_555
H9_2 C11_2 1_555 1_555
O8 C1_2 1_555 1_555
O2_2 C1_2 1_555 1_555
S1_2 C5_2 1_555 1_555
S2_2 C4_2 1_555 1_555
S6_2 C16_2 1_555 1_555
C19_2 C20_2 1_555 1_555
C20_2 C21_2 1_555 1_555
C21_2 C4_2 1_555 1_555
C22_2 C3_2 1_555 1_555
C23_2 H19_2 1_555 1_555
H20_2 C23_2 1_555 1_555
H21_2 C23_2 1_555 1_555
C24_2 H22_2 1_555 1_555
H23_2 C24_2 1_555 1_555
H24_2 C24_2 1_555 1_555
C31_2 C32_2 1_555 1_555
C32_2 C33_2 1_555 1_555
C33_2 C16_2 1_555 1_555
C35_2 H31_2 1_555 1_555
H32_2 C35_2 1_555 1_555
H33_2 C35_2 1_555 1_555
C36_2 H34_2 1_555 1_555
H35_2 C36_2 1_555 1_555
H36_2 C36_2 1_555 1_555
O7_2 C19_2 1_555 1_555
O11_2 C19_2 1_555 1_555
O16_2 C31_2 1_555 1_555
O19_2 C31_2 1_555 1_555
Pb6 O7_2 1_555 1_555
Pb5 O7_2 1_555 1_555
Pb9 O16_2 1_555 1_555
S7_2 C21_2 1_555 1_555
S8_2 C22_2 1_555 1_555
S11_2 C33_2 1_555 1_555
C6_2 S2_2 1_555 1_555
O2_2 Pb4 1_555 1_555
O3_2 Pb4 1_555 1_555
C20_2 C22_2 1_555 1_555
C23_2 S7_2 1_555 1_555
C24_2 S8_2 1_555 1_555
C35_2 S11_2 1_555 1_555
O11_2 Pb6 1_555 1_555
O19_2 Pb9 1_555 1_555
C19_3 C20_3 1_555 1_555
C20_3 C21_3 1_555 1_555
C23_3 H19_3 1_555 1_555
H20_3 C23_3 1_555 1_555
H21_3 C23_3 1_555 1_555
C24_3 H22_3 1_555 1_555
H23_3 C24_3 1_555 1_555
H24_3 C24_3 1_555 1_555
O9 C19_3 1_555 1_555
O12 C19_3 1_555 1_555
S7_3 C21_3 1_555 1_555
S8_3 C22_3 1_555 1_555
C20_3 C22_3 1_555 1_555
C23_3 S7_3 1_555 1_555
C24_3 S8_3 1_555 1_555
C1_3 C2_3 1_555 1_555
C2_3 C3_3 1_555 1_555
C3_3 S1_3 1_555 1_555
C4_3 C2_3 1_555 1_555
C5_3 H1_3 1_555 1_555
H2_3 C5_3 1_555 1_555
H3_3 C5_3 1_555 1_555
C6_3 H4_3 1_555 1_555
H5_3 C6_3 1_555 1_555
H6_3 C6_3 1_555 1_555
C7_3 C8_3 1_555 1_555
C8_3 C9_3 1_555 1_555
C9_3 S3_3 1_555 1_555
C10_3 C8_3 1_555 1_555
C11_3 H7_3 1_555 1_555
H8_3 C11_3 1_555 1_555
H9_3 C11_3 1_555 1_555
C12_3 H10_3 1_555 1_555
H11_3 C12_3 1_555 1_555
H12_3 C12_3 1_555 1_555
C13_3 C14_3 1_555 1_555
C14_3 C15_3 1_555 1_555
C15_3 S5_3 1_555 1_555
C16_3 C14_3 1_555 1_555
C17_3 H13_3 1_555 1_555
H14_3 C17_3 1_555 1_555
H15_3 C17_3 1_555 1_555
C18_3 H16_3 1_555 1_555
H17_3 C18_3 1_555 1_555
H18_3 C18_3 1_555 1_555
O1_2 C1_3 1_555 1_555
O2_3 C1_3 1_555 1_555
O3_3 C7_3 1_555 1_555
O4_2 C7_3 1_555 1_555
O5_2 C13_3 1_555 1_555
O6_2 C13_3 1_555 1_555
Pb1_2 O1_2 1_555 1_555
Pb2_3 O4_2 1_555 1_555
S1_3 C5_3 1_555 1_555
S2_3 C4_3 1_555 1_555
S3_3 C11_3 1_555 1_555
S4_3 C10_3 1_555 1_555
S5_3 C17_3 1_555 1_555
S6_3 C16_3 1_555 1_555
C25_3 C26_3 1_555 1_555
C26_3 C27_3 1_555 1_555
C27_3 C10_3 1_555 1_555
C28_3 C9_3 1_555 1_555
C29_3 H25_3 1_555 1_555
H26_3 C29_3 1_555 1_555
H27_3 C29_3 1_555 1_555
C30_3 H28_3 1_555 1_555
H29_3 C30_3 1_555 1_555
H30_3 C30_3 1_555 1_555
C31_3 C32_3 1_555 1_555
C32_3 C33_3 1_555 1_555
C33_3 C16_3 1_555 1_555
C34_3 C15_3 1_555 1_555
C35_3 H31_3 1_555 1_555
H32_3 C35_3 1_555 1_555
H33_3 C35_3 1_555 1_555
C36_3 H34_3 1_555 1_555
H35_3 C36_3 1_555 1_555
H36_3 C36_3 1_555 1_555
O8_2 Pb1_2 1_555 1_555
O13_3 C25_3 1_555 1_555
O14_3 C25_3 1_555 1_555
O15_2 Pb2_3 1_555 1_555
O18 C31_3 1_555 1_555
O17_2 Pb2_3 1_555 1_555
O19_3 C31_3 1_555 1_555
O20_2 Pb2_3 1_555 1_555
Pb5 O13_3 1_555 1_555
Pb4_2 O1_2 1_555 1_555
Pb9 O14_3 1_555 1_555
S9_3 C27_3 1_555 1_555
S10_3 C28_3 1_555 1_555
S11_3 C33_3 1_555 1_555
S12_3 C34_3 1_555 1_555
C6_3 S2_3 1_555 1_555
C12_3 S4_3 1_555 1_555
C18_3 S6_3 1_555 1_555
O2_3 Pb1_2 1_555 1_555
O3_3 Pb1_2 1_555 1_555
O4_2 Pb1_2 1_555 1_555
O5_2 Pb1_2 1_555 1_555
O5_2 Pb2_3 1_555 1_555
O6_2 Pb2_3 1_555 1_555
C26_3 C28_3 1_555 1_555
C29_3 S9_3 1_555 1_555
C30_3 S10_3 1_555 1_555
C32_3 C34_3 1_555 1_555
C35_3 S11_3 1_555 1_555
C36_3 S12_3 1_555 1_555
O8_2 Pb4_2 1_555 1_555
O14_3 Pb5 1_555 1_555
O19_3 Pb8_2 1_555 1_555
C7_4 C8_4 1_555 1_555
C8_4 C9_4 1_555 1_555
C9_4 S3_4 1_555 1_555
C13_4 C14_4 1_555 1_555
C14_4 C15_4 1_555 1_555
C15_4 S5_4 1_555 1_555
C17_4 H13_4 1_555 1_555
H14_4 C17_4 1_555 1_555
H15_4 C17_4 1_555 1_555
C18_4 H16_4 1_555 1_555
H17_4 C18_4 1_555 1_555
H18_4 C18_4 1_555 1_555
O15_2 C7_4 1_555 1_555
O17_2 C13_4 1_555 1_555
O20_2 C13_4 1_555 1_555
S5_4 C17_4 1_555 1_555
C28_4 C9_4 1_555 1_555
C29_4 H25_4 1_555 1_555
H26_4 C29_4 1_555 1_555
H27_4 C29_4 1_555 1_555
C30_4 H28_4 1_555 1_555
H29_4 C30_4 1_555 1_555
H30_4 C30_4 1_555 1_555
C34_4 C15_4 1_555 1_555
Pb6 O13_4 1_555 1_555
S10_4 C28_4 1_555 1_555
S12_4 C34_4 1_555 1_555
C30_4 S10_4 1_555 1_555
C1_4 C2_4 1_555 1_555
C2_4 C3_4 1_555 1_555
C3_4 S1_4 1_555 1_555
C4_4 C2_4 1_555 1_555
C5_4 H1_4 1_555 1_555
H2_4 C5_4 1_555 1_555
H3_4 C5_4 1_555 1_555
C6_4 H4_4 1_555 1_555
H5_4 C6_4 1_555 1_555
H6_4 C6_4 1_555 1_555
C11_4 H7_4 1_555 1_555
H8_4 C11_4 1_555 1_555
H9_4 C11_4 1_555 1_555
C12_4 H10_4 1_555 1_555
H11_4 C12_4 1_555 1_555
H12_4 C12_4 1_555 1_555
O8_2 C1_4 1_555 1_555
O2_4 C1_4 1_555 1_555
S1_4 C5_4 1_555 1_555
S2_4 C4_4 1_555 1_555
S4_4 C10_4 1_555 1_555
S6_4 C16_4 1_555 1_555
C19_4 C20_4 1_555 1_555
C20_4 C21_4 1_555 1_555
C21_4 C4_4 1_555 1_555
C22_4 C3_4 1_555 1_555
C23_4 H19_4 1_555 1_555
H20_4 C23_4 1_555 1_555
H21_4 C23_4 1_555 1_555
C24_4 H22_4 1_555 1_555
H23_4 C24_4 1_555 1_555
H24_4 C24_4 1_555 1_555
C25_4 C26_4 1_555 1_555
C26_4 C27_4 1_555 1_555
C27_4 C10_4 1_555 1_555
C31_4 C32_4 1_555 1_555
C32_4 C33_4 1_555 1_555
C33_4 C16_4 1_555 1_555
C35_4 H31_4 1_555 1_555
H32_4 C35_4 1_555 1_555
H33_4 C35_4 1_555 1_555
C36_4 H34_4 1_555 1_555
H35_4 C36_4 1_555 1_555
H36_4 C36_4 1_555 1_555
O10 C19_4 1_555 1_555
O12_2 C19_4 1_555 1_555
O14_4 C25_4 1_555 1_555
O18_2 C31_4 1_555 1_555
O19_4 C31_4 1_555 1_555
Pb9 O14_4 1_555 1_555
S7_4 C21_4 1_555 1_555
S8_4 C22_4 1_555 1_555
S9_4 C27_4 1_555 1_555
S11_4 C33_4 1_555 1_555
C6_4 S2_4 1_555 1_555
C12_4 S4_4 1_555 1_555
O2_4 Pb4_2 1_555 1_555
O3_4 Pb4_2 1_555 1_555
C20_4 C22_4 1_555 1_555
C23_4 S7_4 1_555 1_555
C24_4 S8_4 1_555 1_555
C35_4 S11_4 1_555 1_555
O19_4 Pb8 1_555 1_555

#END
