
###############################################################################
#
# This file contains modified crystal structure data generated from the
# MOF subset of the Cambridge Structural Database (CSD) v543 
# hosted by the Cambridge Crystallographic Data Centre (CCDC).
#
# This work is licensed under the Creative Commons
# Attribution-NonCommercial-ShareAlike 4.0 International License.
# To view a copy of this license, visit
# http://creativecommons.org/licenses/by-nc-sa/4.0/
# or send a letter to
# Creative Commons, PO Box 1866, Mountain View, CA 94042, USA.
#
# CIF created using the CSD Python API on 29 September 2022
# The structure has been converted into the P1 space group
# The structure has a 3D framework
# The original CSD entry MUDTIP is in the monoclinic crystal system
# The framework has been calculated to contain at least 10.0% void space
# The void calculation uses a probe of radius 1.32A, grid spacing 0.4
#
###############################################################################

data_MUDTIP
_chemical_formula_moiety         '(C144 H144 O48 Pb11 S48)n'
_symmetry_cell_setting           triclinic
_symmetry_space_group_name_H-M   'P 1'
_symmetry_Int_Tables_number      1
_space_group_name_Hall           'P 1'
loop_
_symmetry_equiv_pos_site_id
_symmetry_equiv_pos_as_xyz
1 x,y,z
_cell_length_a                   19.0345(19)
_cell_length_b                   27.688(3)
_cell_length_c                   12.1273(12)
_cell_angle_alpha                90
_cell_angle_beta                 105.293(2)
_cell_angle_gamma                90
_cell_volume                     6165.1
loop_
_atom_site_label
_atom_site_type_symbol
_atom_site_fract_x
_atom_site_fract_y
_atom_site_fract_z
C11 C 0.1062(14) 0.0697(10) 0.0470(17)
H7 H 0.0754 0.0987 0.0336
H8 H 0.1459 0.0741 0.1165
H9 H 0.0768 0.0417 0.0562
O8 O 0.0767(6) 0.1916(4) 0.0120(9)
Pb5 Pb 0.01020(3) 0.206480(15) 0.18998(3)
C7 C 0.0174(7) 0.1050(4) 0.7651(9)
C8 C 0.0720(6) 0.0243(4) 0.8401(8)
C9 C 0.0189(7) 0.0497(4) 0.7621(9)
O2 O 0.0556(4) 0.1279(3) 0.7152(6)
Pb1 Pb 0.0000 0.14418(2) 0.5000
S3 S 0.1417(2) 0.06061(11) 0.9334(3)
O14 O 0.0813(5) 0.2149(4) 0.5636(7)
O17 O 0.0788(5) 0.1858(3) 0.3899(6)
C29 C 0.1062(14) 0.9303(10) 0.0470(17)
H25 H 0.0754 0.9013 0.0336
H26 H 0.1459 0.9259 0.1165
H27 H 0.0768 0.9583 0.0562
O10 O 0.0767(6) 0.8084(4) 0.0120(9)
C25 C 0.0174(7) 0.8950(4) 0.7651(9)
C26 C 0.0720(6) 0.9757(4) 0.8401(8)
C27 C 0.0189(7) 0.9503(4) 0.7621(9)
O11 O 0.0556(4) 0.8721(3) 0.7152(6)
Pb4 Pb 0.0000 0.85582(2) 0.5000
S9 S 0.1417(2) 0.93939(11) 0.9334(3)
C2 C 0.8159(7) 0.2756(4) 0.0304(9)
H3 H 0.8801 0.3851 0.0201
S1 S 0.9031(2) 0.30473(13) 0.0670(4)
C19 C 0.6264(8) 0.2864(5) 0.0766(13)
C21 C 0.6916(7) 0.2688(4) 0.0339(8)
C22 C 0.7563(7) 0.2940(4) 0.0604(8)
C23 C 0.6147(12) 0.1436(8) 0.025(2)
H19 H 0.6598 0.1487 0.0849
H20 H 0.5741 0.1388 0.0592
C24 C 0.7925(15) 0.3285(8) 0.2805(14)
H22 H 0.8371 0.3095 0.2895
H23 H 0.8026 0.3563 0.3324
H24 H 0.7548 0.3084 0.2988
O7 O 0.5767(6) 0.3084(4) 0.0120(9)
O19 O 0.6320(6) 0.2786(4) 0.1787(9)
Pb7 Pb 0.51020(3) 0.293520(15) 0.18998(3)
S8 S 0.7608(2) 0.34982(13) 0.1325(3)
C1 C 0.8736(8) 0.2136(5) 0.9234(13)
C3 C 0.8084(7) 0.2312(4) 0.9661(8)
C4 C 0.7437(7) 0.2060(4) 0.9396(8)
C5 C 0.8853(12) 0.3564(8) 0.975(2)
H1 H 0.8402 0.3513 0.9151
H2 H 0.9259 0.3612 0.9408
C6 C 0.7075(15) 0.1715(8) 0.7195(14)
H4 H 0.6629 0.1905 0.7105
H5 H 0.6974 0.1437 0.6676
H6 H 0.7452 0.1916 0.7012
C10 C 0.9632(6) 0.0249(4) 0.6819(9)
C12 C 0.8326(10) 0.0797(8) 0.6468(18)
H10 H 0.8021 0.0525 0.6577
H11 H 0.8018 0.1046 0.6003
H12 H 0.8577 0.0933 0.7214
C13 C 0.8910(7) 0.2111(4) 0.5191(9)
C14 C 0.8101(7) 0.2748(4) 0.5661(9)
C15 C 0.8179(7) 0.2317(4) 0.5092(10)
C16 C 0.7582(7) 0.2065(4) 0.4437(9)
C17 C 0.9219(17) 0.3360(13) 0.555(2)
H13 H 0.8904 0.3641 0.5295
H14 H 0.9210 0.3154 0.4886
H15 H 0.9718 0.3469 0.5891
C18 C 0.7781(10) 0.1751(6) 0.2419(11)
H16 H 0.7328 0.1921 0.2049
H17 H 0.7855 0.1485 0.1930
H18 H 0.8191 0.1977 0.2539
O1 O 0.9233(6) 0.1916(4) 0.9880(9)
O3 O 0.9775(5) 0.1227(3) 0.8220(7)
O4 O 0.9187(5) 0.2149(4) 0.4364(7)
O5 O 0.9212(5) 0.1858(3) 0.6101(6)
O6 O 0.8680(6) 0.2214(4) 0.8213(9)
Pb1_2 Pb 1.0000 0.14418(2) 0.5000
Pb2 Pb 0.98980(3) 0.206480(15) 0.81002(3)
S2 S 0.7392(2) 0.15018(13) 0.8675(3)
S4 S 0.8986(2) 0.05904(12) 0.5754(3)
S5 S 0.8899(2) 0.30284(12) 0.6567(3)
S6 S 0.7723(2) 0.15144(11) 0.3783(3)
C20 C 0.6841(7) 0.2244(4) 0.9696(9)
H21 H 0.6199 0.1149 0.9799
C31 C 0.6090(7) 0.2889(4) 0.4809(9)
C32 C 0.6899(7) 0.2252(4) 0.4339(9)
C33 C 0.6821(7) 0.2683(4) 0.4908(10)
C34 C 0.7418(7) 0.2935(4) 0.5563(9)
C35 C 0.5781(17) 0.1640(13) 0.445(2)
H31 H 0.6096 0.1359 0.4705
H32 H 0.5790 0.1846 0.5114
H33 H 0.5282 0.1531 0.4109
C36 C 0.7219(10) 0.3249(6) 0.7581(11)
H34 H 0.7672 0.3079 0.7951
H35 H 0.7145 0.3515 0.8070
H36 H 0.6809 0.3023 0.7461
O12 O 0.9444(4) 0.1279(3) 0.2848(6)
O15 O 0.5813(5) 0.2851(4) 0.5636(7)
O18 O 0.5788(5) 0.3142(3) 0.3899(6)
Pb3 Pb 0.5000 0.35582(2) 0.5000
Pb6 Pb 0.48980(3) 0.293520(15) 0.81002(3)
S7 S 0.5969(2) 0.19527(13) 0.9330(4)
S11 S 0.6101(2) 0.19716(12) 0.3433(3)
S12 S 0.7277(2) 0.34856(11) 0.6217(3)
C28 C 0.9632(6) 0.9751(4) 0.6819(9)
C30 C 0.8326(10) 0.9203(8) 0.6468(18)
H28 H 0.8021 0.9475 0.6577
H29 H 0.8018 0.8954 0.6003
H30 H 0.8577 0.9067 0.7214
O9 O 0.9233(6) 0.8084(4) 0.9880(9)
O13 O 0.9775(5) 0.8773(3) 0.8220(7)
O16 O 0.9212(5) 0.8142(3) 0.6101(6)
O20 O 0.8680(6) 0.7786(4) 0.8213(9)
Pb4_2 Pb 1.0000 0.85582(2) 0.5000
Pb8 Pb 0.98980(3) 0.793520(15) 0.81002(3)
S10 S 0.8986(2) 0.94096(12) 0.5754(3)
C1_2 C 0.1264(8) 0.2136(5) 0.0766(13)
C3_2 C 0.1916(7) 0.2312(4) 0.0339(8)
C4_2 C 0.2563(7) 0.2060(4) 0.0604(8)
C5_2 C 0.1147(12) 0.3564(8) 0.025(2)
H1_2 H 0.1598 0.3513 0.0849
H2_2 H 0.0741 0.3612 0.0592
C6_2 C 0.2925(15) 0.1715(8) 0.2805(14)
H4_2 H 0.3371 0.1905 0.2895
H5_2 H 0.3026 0.1437 0.3324
H6_2 H 0.2548 0.1916 0.2988
C10_2 C 0.0368(6) 0.0249(4) 0.3181(9)
C12_2 C 0.1674(10) 0.0797(8) 0.3532(18)
H10_2 H 0.1979 0.0525 0.3423
H11_2 H 0.1982 0.1046 0.3997
H12_2 H 0.1423 0.0933 0.2786
C13_2 C 0.1090(7) 0.2111(4) 0.4809(9)
C14_2 C 0.1899(7) 0.2748(4) 0.4339(9)
C15_2 C 0.1821(7) 0.2317(4) 0.4908(10)
C16_2 C 0.2418(7) 0.2065(4) 0.5563(9)
C17_2 C 0.0781(17) 0.3360(13) 0.445(2)
H13_2 H 0.1096 0.3641 0.4705
H14_2 H 0.0790 0.3154 0.5114
H15_2 H 0.0282 0.3469 0.4109
C18_2 C 0.2219(10) 0.1751(6) 0.7581(11)
H16_2 H 0.2672 0.1921 0.7951
H17_2 H 0.2145 0.1485 0.8070
H18_2 H 0.1809 0.1977 0.7461
O3_2 O 0.0225(5) 0.1227(3) 0.1780(7)
O6_2 O 0.1320(6) 0.2214(4) 0.1787(9)
S2_2 S 0.2608(2) 0.15018(13) 0.1325(3)
S4_2 S 0.1014(2) 0.05904(12) 0.4246(3)
S5_2 S 0.1101(2) 0.30284(12) 0.3433(3)
S6_2 S 0.2277(2) 0.15144(11) 0.6217(3)
C20_2 C 0.3159(7) 0.2244(4) 0.0304(9)
H21_2 H 0.3801 0.1149 0.0201
C31_2 C 0.3910(7) 0.2889(4) 0.5191(9)
C32_2 C 0.3101(7) 0.2252(4) 0.5661(9)
C33_2 C 0.3179(7) 0.2683(4) 0.5092(10)
C34_2 C 0.2582(7) 0.2935(4) 0.4437(9)
C35_2 C 0.4219(17) 0.1640(13) 0.555(2)
H31_2 H 0.3904 0.1359 0.5295
H32_2 H 0.4210 0.1846 0.4886
H33_2 H 0.4718 0.1531 0.5891
C36_2 C 0.2781(10) 0.3249(6) 0.2419(11)
H34_2 H 0.2328 0.3079 0.2049
H35_2 H 0.2855 0.3515 0.1930
H36_2 H 0.3191 0.3023 0.2539
O15_2 O 0.4187(5) 0.2851(4) 0.4364(7)
O18_2 O 0.4212(5) 0.3142(3) 0.6101(6)
S7_2 S 0.4031(2) 0.19527(13) 0.0670(4)
S11_2 S 0.3899(2) 0.19716(12) 0.6567(3)
S12_2 S 0.2723(2) 0.34856(11) 0.3783(3)
C2_2 C 0.1841(7) 0.2756(4) 0.9696(9)
H3_2 H 0.1199 0.3851 0.9799
S1_2 S 0.0969(2) 0.30473(13) 0.9330(4)
C19_2 C 0.3736(8) 0.2864(5) 0.9234(13)
C21_2 C 0.3084(7) 0.2688(4) 0.9661(8)
C22_2 C 0.2437(7) 0.2940(4) 0.9396(8)
C23_2 C 0.3853(12) 0.1436(8) 0.975(2)
H19_2 H 0.3402 0.1487 0.9151
H20_2 H 0.4259 0.1388 0.9408
C24_2 C 0.2075(15) 0.3285(8) 0.7195(14)
H22_2 H 0.1629 0.3095 0.7105
H23_2 H 0.1974 0.3563 0.6676
H24_2 H 0.2452 0.3084 0.7012
O7_2 O 0.4233(6) 0.3084(4) 0.9880(9)
O19_2 O 0.3680(6) 0.2786(4) 0.8213(9)
S8_2 S 0.2392(2) 0.34982(13) 0.8675(3)
C28_2 C 0.0368(6) 0.9751(4) 0.3181(9)
C30_2 C 0.1674(10) 0.9203(8) 0.3532(18)
H28_2 H 0.1979 0.9475 0.3423
H29_2 H 0.1982 0.8954 0.3997
H30_2 H 0.1423 0.9067 0.2786
O13_2 O 0.0225(5) 0.8773(3) 0.1780(7)
O16_2 O 0.0788(5) 0.8142(3) 0.3899(6)
O20_2 O 0.1320(6) 0.7786(4) 0.1787(9)
Pb8_2 Pb 0.01020(3) 0.793520(15) 0.18998(3)
S10_2 S 0.1014(2) 0.94096(12) 0.4246(3)
C7_2 C 0.9826(7) 0.1050(4) 0.2349(9)
C8_2 C 0.9280(6) 0.0243(4) 0.1599(8)
C9_2 C 0.9811(7) 0.0497(4) 0.2379(9)
S3_2 S 0.8583(2) 0.06061(11) 0.0666(3)
C11_2 C 0.8938(14) 0.0697(10) 0.9530(17)
H7_2 H 0.9246 0.0987 0.9664
H8_2 H 0.8541 0.0741 0.8835
H9_2 H 0.9232 0.0417 0.9438
C25_2 C 0.9826(7) 0.8950(4) 0.2349(9)
C26_2 C 0.9280(6) 0.9757(4) 0.1599(8)
C27_2 C 0.9811(7) 0.9503(4) 0.2379(9)
O11_2 O 0.9444(4) 0.8721(3) 0.2848(6)
S9_2 S 0.8583(2) 0.93939(11) 0.0666(3)
C29_2 C 0.8938(14) 0.9303(10) 0.9530(17)
H25_2 H 0.9246 0.9013 0.9664
H26_2 H 0.8541 0.9259 0.8835
H27_2 H 0.9232 0.9583 0.9438
C2_3 C 0.3159(7) 0.7756(4) 0.0304(9)
H3_3 H 0.3801 0.8851 0.0201
C11_3 C 0.6062(14) 0.5697(10) 0.0470(17)
H7_3 H 0.5754 0.5987 0.0336
H8_3 H 0.6459 0.5741 0.1165
H9_3 H 0.5768 0.5417 0.0562
S1_3 S 0.4031(2) 0.80473(13) 0.0670(4)
C19_3 C 0.1264(8) 0.7864(5) 0.0766(13)
C21_3 C 0.1916(7) 0.7688(4) 0.0339(8)
C22_3 C 0.2563(7) 0.7940(4) 0.0604(8)
C23_3 C 0.1147(12) 0.6436(8) 0.025(2)
H19_3 H 0.1598 0.6487 0.0849
H20_3 H 0.0741 0.6388 0.0592
C24_3 C 0.2925(15) 0.8285(8) 0.2805(14)
H22_3 H 0.3371 0.8095 0.2895
H23_3 H 0.3026 0.8563 0.3324
H24_3 H 0.2548 0.8084 0.2988
C29_3 C 0.6062(14) 0.4303(10) 0.0470(17)
H25_3 H 0.5754 0.4013 0.0336
H26_3 H 0.6459 0.4259 0.1165
H27_3 H 0.5768 0.4583 0.0562
O8_2 O 0.5767(6) 0.6916(4) 0.0120(9)
Pb5_2 Pb 0.51020(3) 0.706480(15) 0.18998(3)
S8_3 S 0.2608(2) 0.84982(13) 0.1325(3)
C1_3 C 0.3736(8) 0.7136(5) 0.9234(13)
C3_3 C 0.3084(7) 0.7312(4) 0.9661(8)
C4_3 C 0.2437(7) 0.7060(4) 0.9396(8)
C5_3 C 0.3853(12) 0.8564(8) 0.975(2)
H1_3 H 0.3402 0.8513 0.9151
H2_3 H 0.4259 0.8612 0.9408
C6_3 C 0.2075(15) 0.6715(8) 0.7195(14)
H4_3 H 0.1629 0.6905 0.7105
H5_3 H 0.1974 0.6437 0.6676
H6_3 H 0.2452 0.6916 0.7012
C7_3 C 0.5174(7) 0.6050(4) 0.7651(9)
C8_3 C 0.5720(6) 0.5243(4) 0.8401(8)
C9_3 C 0.5189(7) 0.5497(4) 0.7621(9)
C10_3 C 0.4632(6) 0.5249(4) 0.6819(9)
C12_3 C 0.3326(10) 0.5797(8) 0.6468(18)
H10_3 H 0.3021 0.5525 0.6577
H11_3 H 0.3018 0.6046 0.6003
H12_3 H 0.3577 0.5933 0.7214
C13_3 C 0.3910(7) 0.7111(4) 0.5191(9)
C14_3 C 0.3101(7) 0.7748(4) 0.5661(9)
C15_3 C 0.3179(7) 0.7317(4) 0.5092(10)
C16_3 C 0.2582(7) 0.7065(4) 0.4437(9)
C17_3 C 0.4219(17) 0.8360(13) 0.555(2)
H13_3 H 0.3904 0.8641 0.5295
H14_3 H 0.4210 0.8154 0.4886
H15_3 H 0.4718 0.8469 0.5891
C18_3 C 0.2781(10) 0.6751(6) 0.2419(11)
H16_3 H 0.2328 0.6921 0.2049
H17_3 H 0.2855 0.6485 0.1930
H18_3 H 0.3191 0.6977 0.2539
O1_2 O 0.4233(6) 0.6916(4) 0.9880(9)
O2_2 O 0.5556(4) 0.6279(3) 0.7152(6)
O3_3 O 0.4775(5) 0.6227(3) 0.8220(7)
O4_2 O 0.4187(5) 0.7149(4) 0.4364(7)
O5_2 O 0.4212(5) 0.6858(3) 0.6101(6)
O6_3 O 0.3680(6) 0.7214(4) 0.8213(9)
Pb1_3 Pb 0.5000 0.64418(2) 0.5000
Pb2_2 Pb 0.48980(3) 0.706480(15) 0.81002(3)
S2_3 S 0.2392(2) 0.65018(13) 0.8675(3)
S3_3 S 0.6417(2) 0.56061(11) 0.9334(3)
S4_3 S 0.3986(2) 0.55904(12) 0.5754(3)
S5_3 S 0.3899(2) 0.80284(12) 0.6567(3)
S6_3 S 0.2723(2) 0.65144(11) 0.3783(3)
C20_3 C 0.1841(7) 0.7244(4) 0.9696(9)
H21_3 H 0.1199 0.6149 0.9799
C25_3 C 0.5174(7) 0.3950(4) 0.7651(9)
C26_3 C 0.5720(6) 0.4757(4) 0.8401(8)
C27_3 C 0.5189(7) 0.4503(4) 0.7621(9)
C28_3 C 0.4632(6) 0.4751(4) 0.6819(9)
C30_3 C 0.3326(10) 0.4203(8) 0.6468(18)
H28_3 H 0.3021 0.4475 0.6577
H29_3 H 0.3018 0.3954 0.6003
H30_3 H 0.3577 0.4067 0.7214
C31_3 C 0.1090(7) 0.7889(4) 0.4809(9)
C32_3 C 0.1899(7) 0.7252(4) 0.4339(9)
C33_3 C 0.1821(7) 0.7683(4) 0.4908(10)
C34_3 C 0.2418(7) 0.7935(4) 0.5563(9)
C35_3 C 0.0781(17) 0.6640(13) 0.445(2)
H31_3 H 0.1096 0.6359 0.4705
H32_3 H 0.0790 0.6846 0.5114
H33_3 H 0.0282 0.6531 0.4109
C36_3 C 0.2219(10) 0.8249(6) 0.7581(11)
H34_3 H 0.2672 0.8079 0.7951
H35_3 H 0.2145 0.8515 0.8070
H36_3 H 0.1809 0.8023 0.7461
O11_3 O 0.5556(4) 0.3721(3) 0.7152(6)
O12_2 O 0.4444(4) 0.6279(3) 0.2848(6)
O13_3 O 0.4775(5) 0.3773(3) 0.8220(7)
O14_2 O 0.5813(5) 0.7149(4) 0.5636(7)
O15_3 O 0.0813(5) 0.7851(4) 0.5636(7)
O17_2 O 0.5788(5) 0.6858(3) 0.3899(6)
S7_3 S 0.0969(2) 0.69527(13) 0.9330(4)
S9_3 S 0.6417(2) 0.43939(11) 0.9334(3)
S10_3 S 0.3986(2) 0.44096(12) 0.5754(3)
S11_3 S 0.1101(2) 0.69716(12) 0.3433(3)
S12_3 S 0.2277(2) 0.84856(11) 0.6217(3)
C1_4 C 0.6264(8) 0.7136(5) 0.0766(13)
C3_4 C 0.6916(7) 0.7312(4) 0.0339(8)
C4_4 C 0.7563(7) 0.7060(4) 0.0604(8)
C5_4 C 0.6147(12) 0.8564(8) 0.025(2)
H1_4 H 0.6598 0.8513 0.0849
H2_4 H 0.5741 0.8612 0.0592
C6_4 C 0.7925(15) 0.6715(8) 0.2805(14)
H4_4 H 0.8371 0.6905 0.2895
H5_4 H 0.8026 0.6437 0.3324
H6_4 H 0.7548 0.6916 0.2988
C7_4 C 0.4826(7) 0.6050(4) 0.2349(9)
C8_4 C 0.4280(6) 0.5243(4) 0.1599(8)
C9_4 C 0.4811(7) 0.5497(4) 0.2379(9)
C10_4 C 0.5368(6) 0.5249(4) 0.3181(9)
C12_4 C 0.6674(10) 0.5797(8) 0.3532(18)
H10_4 H 0.6979 0.5525 0.3423
H11_4 H 0.6982 0.6046 0.3997
H12_4 H 0.6423 0.5933 0.2786
C13_4 C 0.6090(7) 0.7111(4) 0.4809(9)
C14_4 C 0.6899(7) 0.7748(4) 0.4339(9)
C15_4 C 0.6821(7) 0.7317(4) 0.4908(10)
C16_4 C 0.7418(7) 0.7065(4) 0.5563(9)
C17_4 C 0.5781(17) 0.8360(13) 0.445(2)
H13_4 H 0.6096 0.8641 0.4705
H14_4 H 0.5790 0.8154 0.5114
H15_4 H 0.5282 0.8469 0.4109
C18_4 C 0.7219(10) 0.6751(6) 0.7581(11)
H16_4 H 0.7672 0.6921 0.7951
H17_4 H 0.7145 0.6485 0.8070
H18_4 H 0.6809 0.6977 0.7461
O3_4 O 0.5225(5) 0.6227(3) 0.1780(7)
O6_4 O 0.6320(6) 0.7214(4) 0.1787(9)
S2_4 S 0.7608(2) 0.65018(13) 0.1325(3)
S3_4 S 0.3583(2) 0.56061(11) 0.0666(3)
S4_4 S 0.6014(2) 0.55904(12) 0.4246(3)
S5_4 S 0.6101(2) 0.80284(12) 0.3433(3)
S6_4 S 0.7277(2) 0.65144(11) 0.6217(3)
C20_4 C 0.8159(7) 0.7244(4) 0.0304(9)
H21_4 H 0.8801 0.6149 0.0201
C25_4 C 0.4826(7) 0.3950(4) 0.2349(9)
C26_4 C 0.4280(6) 0.4757(4) 0.1599(8)
C27_4 C 0.4811(7) 0.4503(4) 0.2379(9)
C28_4 C 0.5368(6) 0.4751(4) 0.3181(9)
C30_4 C 0.6674(10) 0.4203(8) 0.3532(18)
H28_4 H 0.6979 0.4475 0.3423
H29_4 H 0.6982 0.3954 0.3997
H30_4 H 0.6423 0.4067 0.2786
C31_4 C 0.8910(7) 0.7889(4) 0.5191(9)
C32_4 C 0.8101(7) 0.7252(4) 0.5661(9)
C33_4 C 0.8179(7) 0.7683(4) 0.5092(10)
C34_4 C 0.7582(7) 0.7935(4) 0.4437(9)
C35_4 C 0.9219(17) 0.6640(13) 0.555(2)
H31_4 H 0.8904 0.6359 0.5295
H32_4 H 0.9210 0.6846 0.4886
H33_4 H 0.9718 0.6531 0.5891
C36_4 C 0.7781(10) 0.8249(6) 0.2419(11)
H34_4 H 0.7328 0.8079 0.2049
H35_4 H 0.7855 0.8515 0.1930
H36_4 H 0.8191 0.8023 0.2539
O11_4 O 0.4444(4) 0.3721(3) 0.2848(6)
O13_4 O 0.5225(5) 0.3773(3) 0.1780(7)
O15_4 O 0.9187(5) 0.7851(4) 0.4364(7)
S7_4 S 0.9031(2) 0.69527(13) 0.0670(4)
S9_4 S 0.3583(2) 0.43939(11) 0.0666(3)
S10_4 S 0.6014(2) 0.44096(12) 0.4246(3)
S11_4 S 0.8899(2) 0.69716(12) 0.6567(3)
S12_4 S 0.7723(2) 0.84856(11) 0.3783(3)
C2_4 C 0.6841(7) 0.7756(4) 0.9696(9)
H3_4 H 0.6199 0.8851 0.9799
C11_4 C 0.3938(14) 0.5697(10) 0.9530(17)
H7_4 H 0.4246 0.5987 0.9664
H8_4 H 0.3541 0.5741 0.8835
H9_4 H 0.4232 0.5417 0.9438
S1_4 S 0.5969(2) 0.80473(13) 0.9330(4)
C19_4 C 0.8736(8) 0.7864(5) 0.9234(13)
C21_4 C 0.8084(7) 0.7688(4) 0.9661(8)
C22_4 C 0.7437(7) 0.7940(4) 0.9396(8)
C23_4 C 0.8853(12) 0.6436(8) 0.975(2)
H19_4 H 0.8402 0.6487 0.9151
H20_4 H 0.9259 0.6388 0.9408
C24_4 C 0.7075(15) 0.8285(8) 0.7195(14)
H22_4 H 0.6629 0.8095 0.7105
H23_4 H 0.6974 0.8563 0.6676
H24_4 H 0.7452 0.8084 0.7012
C29_4 C 0.3938(14) 0.4303(10) 0.9530(17)
H25_4 H 0.4246 0.4013 0.9664
H26_4 H 0.3541 0.4259 0.8835
H27_4 H 0.4232 0.4583 0.9438
S8_4 S 0.7392(2) 0.84982(13) 0.8675(3)
loop_
_geom_bond_atom_site_label_1
_geom_bond_atom_site_label_2
_geom_bond_site_symmetry_1
_geom_bond_site_symmetry_2
C11 H7 1_555 1_555
H8 C11 1_555 1_555
H9 C11 1_555 1_555
O8 Pb5 1_555 1_555
C7 C9 1_555 1_555
C8 C9 1_555 1_555
O2 C7 1_555 1_555
Pb1 O2 1_555 1_555
S3 C8 1_555 1_555
O14 Pb1 1_555 1_555
O17 Pb1 1_555 1_555
C29 H25 1_555 1_555
H26 C29 1_555 1_555
H27 C29 1_555 1_555
C25 C27 1_555 1_555
C27 C26 1_555 1_555
O11 C25 1_555 1_555
Pb4 O11 1_555 1_555
S9 C26 1_555 1_555
S1 C2 1_555 1_555
C19 C21 1_555 1_555
C22 C2 1_555 1_555
C23 H19 1_555 1_555
H20 C23 1_555 1_555
C24 H22 1_555 1_555
H23 C24 1_555 1_555
H24 C24 1_555 1_555
O7 C19 1_555 1_555
O19 C19 1_555 1_555
Pb7 O7 1_555 1_555
S8 C22 1_555 1_555
C21 C22 1_555 1_555
C24 S8 1_555 1_555
O19 Pb7 1_555 1_555
C1 C3 1_555 1_555
C3 C4 1_555 1_555
C4 S2 1_555 1_555
C5 H1 1_555 1_555
H2 C5 1_555 1_555
C6 H4 1_555 1_555
H5 C6 1_555 1_555
H6 C6 1_555 1_555
C10 S4 1_555 1_555
C12 H10 1_555 1_555
H11 C12 1_555 1_555
H12 C12 1_555 1_555
C13 C15 1_555 1_555
C14 C15 1_555 1_555
C15 C16 1_555 1_555
C16 S6 1_555 1_555
C17 H13 1_555 1_555
H14 C17 1_555 1_555
H15 C17 1_555 1_555
C18 H16 1_555 1_555
H17 C18 1_555 1_555
H18 C18 1_555 1_555
O1 C1 1_555 1_555
O4 C13 1_555 1_555
O5 C13 1_555 1_555
O6 C1 1_555 1_555
Pb2 O1 1_555 1_555
S2 C6 1_555 1_555
S4 C12 1_555 1_555
S5 C14 1_555 1_555
S6 C18 1_555 1_555
C20 C4 1_555 1_555
C31 C33 1_555 1_555
C32 C16 1_555 1_555
C33 C32 1_555 1_555
C34 C14 1_555 1_555
C35 H31 1_555 1_555
H32 C35 1_555 1_555
H33 C35 1_555 1_555
C36 H34 1_555 1_555
H35 C36 1_555 1_555
H36 C36 1_555 1_555
O12 Pb1_2 1_555 1_555
O15 C31 1_555 1_555
O18 C31 1_555 1_555
Pb3 O15 1_555 1_555
Pb7 O18 1_555 1_555
S7 C20 1_555 1_555
S11 C32 1_555 1_555
S12 C34 1_555 1_555
C17 S5 1_555 1_555
O3 Pb2 1_555 1_555
O4 Pb1_2 1_555 1_555
O5 Pb1_2 1_555 1_555
O5 Pb2 1_555 1_555
O6 Pb2 1_555 1_555
C33 C34 1_555 1_555
C35 S11 1_555 1_555
C36 S12 1_555 1_555
O18 Pb3 1_555 1_555
C30 H28 1_555 1_555
H29 C30 1_555 1_555
H30 C30 1_555 1_555
O9 Pb8 1_555 1_555
O16 Pb4_2 1_555 1_555
O20 Pb8 1_555 1_555
S10 C28 1_555 1_555
C30 S10 1_555 1_555
O13 Pb8 1_555 1_555
O16 Pb8 1_555 1_555
C1_2 C3_2 1_555 1_555
C3_2 C4_2 1_555 1_555
C4_2 S2_2 1_555 1_555
C5_2 H1_2 1_555 1_555
H2_2 C5_2 1_555 1_555
C6_2 H4_2 1_555 1_555
H5_2 C6_2 1_555 1_555
H6_2 C6_2 1_555 1_555
C10_2 S4_2 1_555 1_555
C12_2 H10_2 1_555 1_555
H11_2 C12_2 1_555 1_555
H12_2 C12_2 1_555 1_555
C13_2 C15_2 1_555 1_555
C14_2 C15_2 1_555 1_555
C15_2 C16_2 1_555 1_555
C16_2 S6_2 1_555 1_555
C17_2 H13_2 1_555 1_555
H14_2 C17_2 1_555 1_555
H15_2 C17_2 1_555 1_555
C18_2 H16_2 1_555 1_555
H17_2 C18_2 1_555 1_555
H18_2 C18_2 1_555 1_555
O8 C1_2 1_555 1_555
O14 C13_2 1_555 1_555
O17 C13_2 1_555 1_555
O6_2 C1_2 1_555 1_555
S2_2 C6_2 1_555 1_555
S4_2 C12_2 1_555 1_555
S5_2 C14_2 1_555 1_555
S6_2 C18_2 1_555 1_555
C20_2 C4_2 1_555 1_555
C31_2 C33_2 1_555 1_555
C32_2 C16_2 1_555 1_555
C33_2 C32_2 1_555 1_555
C34_2 C14_2 1_555 1_555
C35_2 H31_2 1_555 1_555
H32_2 C35_2 1_555 1_555
H33_2 C35_2 1_555 1_555
C36_2 H34_2 1_555 1_555
H35_2 C36_2 1_555 1_555
H36_2 C36_2 1_555 1_555
O15_2 C31_2 1_555 1_555
O18_2 C31_2 1_555 1_555
Pb3 O15_2 1_555 1_555
Pb6 O18_2 1_555 1_555
S7_2 C20_2 1_555 1_555
S11_2 C32_2 1_555 1_555
S12_2 C34_2 1_555 1_555
C17_2 S5_2 1_555 1_555
O3_2 Pb5 1_555 1_555
O17 Pb5 1_555 1_555
O6_2 Pb5 1_555 1_555
C33_2 C34_2 1_555 1_555
C35_2 S11_2 1_555 1_555
C36_2 S12_2 1_555 1_555
O18_2 Pb3 1_555 1_555
S1_2 C2_2 1_555 1_555
C19_2 C21_2 1_555 1_555
C22_2 C2_2 1_555 1_555
C23_2 H19_2 1_555 1_555
H20_2 C23_2 1_555 1_555
C24_2 H22_2 1_555 1_555
H23_2 C24_2 1_555 1_555
H24_2 C24_2 1_555 1_555
O7_2 C19_2 1_555 1_555
O19_2 C19_2 1_555 1_555
Pb6 O7_2 1_555 1_555
S8_2 C22_2 1_555 1_555
C21_2 C22_2 1_555 1_555
C24_2 S8_2 1_555 1_555
O19_2 Pb6 1_555 1_555
C30_2 H28_2 1_555 1_555
H29_2 C30_2 1_555 1_555
H30_2 C30_2 1_555 1_555
O10 Pb8_2 1_555 1_555
O16_2 Pb4 1_555 1_555
O20_2 Pb8_2 1_555 1_555
S10_2 C28_2 1_555 1_555
C30_2 S10_2 1_555 1_555
O13_2 Pb8_2 1_555 1_555
O16_2 Pb8_2 1_555 1_555
C7_2 C9_2 1_555 1_555
C8_2 C9_2 1_555 1_555
O12 C7_2 1_555 1_555
S3_2 C8_2 1_555 1_555
C11_2 H7_2 1_555 1_555
H8_2 C11_2 1_555 1_555
H9_2 C11_2 1_555 1_555
C25_2 C27_2 1_555 1_555
C27_2 C26_2 1_555 1_555
O11_2 C25_2 1_555 1_555
Pb4_2 O11_2 1_555 1_555
S9_2 C26_2 1_555 1_555
C29_2 H25_2 1_555 1_555
H26_2 C29_2 1_555 1_555
H27_2 C29_2 1_555 1_555
C11_3 H7_3 1_555 1_555
H8_3 C11_3 1_555 1_555
H9_3 C11_3 1_555 1_555
S1_3 C2_3 1_555 1_555
C19_3 C21_3 1_555 1_555
C22_3 C2_3 1_555 1_555
C23_3 H19_3 1_555 1_555
H20_3 C23_3 1_555 1_555
C24_3 H22_3 1_555 1_555
H23_3 C24_3 1_555 1_555
H24_3 C24_3 1_555 1_555
C29_3 H25_3 1_555 1_555
H26_3 C29_3 1_555 1_555
H27_3 C29_3 1_555 1_555
O10 C19_3 1_555 1_555
O20_2 C19_3 1_555 1_555
S8_3 C22_3 1_555 1_555
C21_3 C22_3 1_555 1_555
C24_3 S8_3 1_555 1_555
O8_2 Pb5_2 1_555 1_555
C1_3 C3_3 1_555 1_555
C3_3 C4_3 1_555 1_555
C4_3 S2_3 1_555 1_555
C5_3 H1_3 1_555 1_555
H2_3 C5_3 1_555 1_555
C6_3 H4_3 1_555 1_555
H5_3 C6_3 1_555 1_555
H6_3 C6_3 1_555 1_555
C7_3 C9_3 1_555 1_555
C8_3 C9_3 1_555 1_555
C9_3 C10_3 1_555 1_555
C10_3 S4_3 1_555 1_555
C12_3 H10_3 1_555 1_555
H11_3 C12_3 1_555 1_555
H12_3 C12_3 1_555 1_555
C13_3 C15_3 1_555 1_555
C14_3 C15_3 1_555 1_555
C15_3 C16_3 1_555 1_555
C16_3 S6_3 1_555 1_555
C17_3 H13_3 1_555 1_555
H14_3 C17_3 1_555 1_555
H15_3 C17_3 1_555 1_555
C18_3 H16_3 1_555 1_555
H17_3 C18_3 1_555 1_555
H18_3 C18_3 1_555 1_555
O1_2 C1_3 1_555 1_555
O2_2 C7_3 1_555 1_555
O3_3 C7_3 1_555 1_555
O4_2 C13_3 1_555 1_555
O5_2 C13_3 1_555 1_555
O6_3 C1_3 1_555 1_555
Pb1_3 O2_2 1_555 1_555
Pb2_2 O1_2 1_555 1_555
S2_3 C6_3 1_555 1_555
S3_3 C8_3 1_555 1_555
S4_3 C12_3 1_555 1_555
S5_3 C14_3 1_555 1_555
S6_3 C18_3 1_555 1_555
C20_3 C4_3 1_555 1_555
C25_3 C27_3 1_555 1_555
C26_3 C8_3 1_555 1_555
C27_3 C26_3 1_555 1_555
C28_3 C10_3 1_555 1_555
C30_3 H28_3 1_555 1_555
H29_3 C30_3 1_555 1_555
H30_3 C30_3 1_555 1_555
C31_3 C33_3 1_555 1_555
C32_3 C16_3 1_555 1_555
C33_3 C32_3 1_555 1_555
C34_3 C14_3 1_555 1_555
C35_3 H31_3 1_555 1_555
H32_3 C35_3 1_555 1_555
H33_3 C35_3 1_555 1_555
C36_3 H34_3 1_555 1_555
H35_3 C36_3 1_555 1_555
H36_3 C36_3 1_555 1_555
O11_3 C25_3 1_555 1_555
O12_2 Pb1_3 1_555 1_555
O13_3 C25_3 1_555 1_555
O14_2 Pb1_3 1_555 1_555
O15_3 C31_3 1_555 1_555
O17_2 Pb1_3 1_555 1_555
O16_2 C31_3 1_555 1_555
Pb4 O15_3 1_555 1_555
Pb3 O11_3 1_555 1_555
Pb6 O11_3 1_555 1_555
S7_3 C20_3 1_555 1_555
S9_3 C26_3 1_555 1_555
S10_3 C28_3 1_555 1_555
S11_3 C32_3 1_555 1_555
S12_3 C34_3 1_555 1_555
C17_3 S5_3 1_555 1_555
O2_2 Pb2_2 1_555 1_555
O3_3 Pb2_2 1_555 1_555
O4_2 Pb1_3 1_555 1_555
O5_2 Pb1_3 1_555 1_555
O5_2 Pb2_2 1_555 1_555
O6_3 Pb2_2 1_555 1_555
C27_3 C28_3 1_555 1_555
C30_3 S10_3 1_555 1_555
C33_3 C34_3 1_555 1_555
C35_3 S11_3 1_555 1_555
C36_3 S12_3 1_555 1_555
O13_3 Pb6 1_555 1_555
C1_4 C3_4 1_555 1_555
C3_4 C4_4 1_555 1_555
C4_4 S2_4 1_555 1_555
C5_4 H1_4 1_555 1_555
H2_4 C5_4 1_555 1_555
C6_4 H4_4 1_555 1_555
H5_4 C6_4 1_555 1_555
H6_4 C6_4 1_555 1_555
C7_4 C9_4 1_555 1_555
C8_4 C9_4 1_555 1_555
C9_4 C10_4 1_555 1_555
C10_4 S4_4 1_555 1_555
C12_4 H10_4 1_555 1_555
H11_4 C12_4 1_555 1_555
H12_4 C12_4 1_555 1_555
C13_4 C15_4 1_555 1_555
C14_4 C15_4 1_555 1_555
C15_4 C16_4 1_555 1_555
C16_4 S6_4 1_555 1_555
C17_4 H13_4 1_555 1_555
H14_4 C17_4 1_555 1_555
H15_4 C17_4 1_555 1_555
C18_4 H16_4 1_555 1_555
H17_4 C18_4 1_555 1_555
H18_4 C18_4 1_555 1_555
O8_2 C1_4 1_555 1_555
O12_2 C7_4 1_555 1_555
O3_4 C7_4 1_555 1_555
O14_2 C13_4 1_555 1_555
O17_2 C13_4 1_555 1_555
O6_4 C1_4 1_555 1_555
S2_4 C6_4 1_555 1_555
S3_4 C8_4 1_555 1_555
S4_4 C12_4 1_555 1_555
S5_4 C14_4 1_555 1_555
S6_4 C18_4 1_555 1_555
C20_4 C4_4 1_555 1_555
C25_4 C27_4 1_555 1_555
C26_4 C8_4 1_555 1_555
C27_4 C26_4 1_555 1_555
C28_4 C10_4 1_555 1_555
C30_4 H28_4 1_555 1_555
H29_4 C30_4 1_555 1_555
H30_4 C30_4 1_555 1_555
C31_4 C33_4 1_555 1_555
C32_4 C16_4 1_555 1_555
C33_4 C32_4 1_555 1_555
C34_4 C14_4 1_555 1_555
C35_4 H31_4 1_555 1_555
H32_4 C35_4 1_555 1_555
H33_4 C35_4 1_555 1_555
C36_4 H34_4 1_555 1_555
H35_4 C36_4 1_555 1_555
H36_4 C36_4 1_555 1_555
O11_4 C25_4 1_555 1_555
O13_4 C25_4 1_555 1_555
O15_4 C31_4 1_555 1_555
O16 C31_4 1_555 1_555
Pb4_2 O15_4 1_555 1_555
Pb3 O11_4 1_555 1_555
Pb7 O11_4 1_555 1_555
S7_4 C20_4 1_555 1_555
S9_4 C26_4 1_555 1_555
S10_4 C28_4 1_555 1_555
S11_4 C32_4 1_555 1_555
S12_4 C34_4 1_555 1_555
C17_4 S5_4 1_555 1_555
O12_2 Pb5_2 1_555 1_555
O3_4 Pb5_2 1_555 1_555
O17_2 Pb5_2 1_555 1_555
O6_4 Pb5_2 1_555 1_555
C27_4 C28_4 1_555 1_555
C30_4 S10_4 1_555 1_555
C33_4 C34_4 1_555 1_555
C35_4 S11_4 1_555 1_555
C36_4 S12_4 1_555 1_555
O13_4 Pb7 1_555 1_555
C11_4 H7_4 1_555 1_555
H8_4 C11_4 1_555 1_555
H9_4 C11_4 1_555 1_555
S1_4 C2_4 1_555 1_555
C19_4 C21_4 1_555 1_555
C22_4 C2_4 1_555 1_555
C23_4 H19_4 1_555 1_555
H20_4 C23_4 1_555 1_555
C24_4 H22_4 1_555 1_555
H23_4 C24_4 1_555 1_555
H24_4 C24_4 1_555 1_555
C29_4 H25_4 1_555 1_555
H26_4 C29_4 1_555 1_555
H27_4 C29_4 1_555 1_555
O9 C19_4 1_555 1_555
O20 C19_4 1_555 1_555
S8_4 C22_4 1_555 1_555
C21_4 C22_4 1_555 1_555
C24_4 S8_4 1_555 1_555

#END
