
###############################################################################
#
# This file contains modified crystal structure data generated from the
# MOF subset of the Cambridge Structural Database (CSD) v543 
# hosted by the Cambridge Crystallographic Data Centre (CCDC).
#
# This work is licensed under the Creative Commons
# Attribution-NonCommercial-ShareAlike 4.0 International License.
# To view a copy of this license, visit
# http://creativecommons.org/licenses/by-nc-sa/4.0/
# or send a letter to
# Creative Commons, PO Box 1866, Mountain View, CA 94042, USA.
#
# CIF created using the CSD Python API on 29 September 2022
# The structure has been converted into the P1 space group
# The structure has a 3D framework
# The original CSD entry MUDTAJ is in the rhombohedral crystal system
# The framework has been calculated to contain at least 10.0% void space
# The void calculation uses a probe of radius 1.32A, grid spacing 0.4
#
###############################################################################

data_MUDTAJ
_chemical_formula_moiety         '(C162 H90 N90 Zn15)n'
_symmetry_cell_setting           triclinic
_symmetry_space_group_name_H-M   'P 1'
_symmetry_Int_Tables_number      1
_space_group_name_Hall           'P 1'
loop_
_symmetry_equiv_pos_site_id
_symmetry_equiv_pos_as_xyz
1 x,y,z
_cell_length_a                   23.1729(5)
_cell_length_b                   23.1729(5)
_cell_length_c                   10.7328(2)
_cell_angle_alpha                90
_cell_angle_beta                 90
_cell_angle_gamma                120
_cell_volume                     4991.19
loop_
_atom_site_label
_atom_site_type_symbol
_atom_site_fract_x
_atom_site_fract_y
_atom_site_fract_z
Zn1 Zn 0.52604(3) 0.72218(3) 0.27351(7)
N1 N 0.4728(2) 0.7726(2) 0.6061(5)
N2 N 0.4828(2) 0.7447(2) 0.4089(5)
N3 N 0.7755(2) 0.8028(2) 0.6362(5)
N4 N 0.5957(2) 0.7950(2) 0.6791(5)
C1 C 0.5097(3) 0.7614(3) 0.5240(6)
N5 N 0.6160(2) 0.7633(2) 0.4875(5)
C2 C 0.7050(3) 0.8208(3) 0.7778(6)
H1 H 0.698111 0.833623 0.856008
C3 C 0.6571(3) 0.8006(3) 0.6832(6)
C4 C 0.4183(3) 0.7631(3) 0.5395(6)
H2 H 0.383254 0.767562 0.570447
C5 C 0.5749(3) 0.7724(3) 0.5593(5)
C6 C 0.6698(3) 0.7809(3) 0.5654(6)
C7 C 0.7628(3) 0.8207(3) 0.7486(6)
H3 H 0.795260 0.833864 0.810068
C8 C 0.4241(3) 0.7460(3) 0.4192(6)
H4 H 0.393534 0.736825 0.355497
C9 C 0.7299(3) 0.7829(3) 0.5445(6)
H5 H 0.738575 0.770549 0.467452
Zn2 Zn 0.52604(3) 0.80386(4) 0.77351(7)
Zn3 Zn 0.86281(4) 0.80729(3) 0.60684(7)
N6 N 0.4728(2) 0.7002(3) 0.1061(5)
N7 N 0.5305(2) 0.6394(3) 0.3029(5)
N8 N 0.5957(2) 0.8007(3) 0.1791(5)
Zn3_2 Zn 0.19271(3) 0.05551(5) 0.60684(7)
Zn1_2 Zn 0.19614(4) 0.47396(3) 0.27351(7)
N1_2 N 0.2998(3) 0.5272(2) 0.6061(5)
N2_2 N 0.2619(3) 0.5172(2) 0.4089(5)
N3_2 N 0.0273(3) 0.2245(2) 0.6362(5)
N4_2 N 0.1993(3) 0.4043(2) 0.6791(5)
C1_2 C 0.2517(4) 0.4903(3) 0.5240(6)
N5_2 N 0.1473(3) 0.3840(2) 0.4875(5)
C2_2 C 0.1158(4) 0.2950(3) 0.7778(6)
H1_2 H 0.135512 0.301889 0.856008
C3_2 C 0.1435(4) 0.3429(3) 0.6832(6)
C4_2 C 0.3448(4) 0.5817(3) 0.5395(6)
H2_2 H 0.384308 0.616746 0.570447
C5_2 C 0.1975(4) 0.4251(3) 0.5593(5)
C6_2 C 0.1111(4) 0.3302(3) 0.5654(6)
C7_2 C 0.0579(4) 0.2372(3) 0.7486(6)
H3_2 H 0.038604 0.204740 0.810068
C8_2 C 0.3219(4) 0.5759(3) 0.4192(6)
H4_2 H 0.343291 0.606466 0.355497
C9_2 C 0.0530(4) 0.2701(3) 0.5445(6)
H5_2 H 0.031974 0.261425 0.467452
Zn2_2 Zn 0.27782(5) 0.47396(3) 0.77351(7)
N6_2 N 0.2274(4) 0.5272(2) 0.1061(5)
N7_2 N 0.1088(4) 0.4695(2) 0.3029(5)
N8_2 N 0.2050(4) 0.4043(2) 0.1791(5)
Zn3_3 Zn 0.94449(5) 0.13719(4) 0.60684(7)
N3_3 N 0.1972(2) 0.2245(2) 0.1362(5)
C1_3 C 0.2386(3) 0.4903(3) 0.0240(6)
C2_3 C 0.1792(3) 0.2950(3) 0.2778(6)
H1_3 H 0.166377 0.301889 0.356008
C3_3 C 0.1994(3) 0.3429(3) 0.1832(6)
C4_3 C 0.2369(3) 0.5817(3) 0.0395(6)
H2_3 H 0.232438 0.616746 0.070447
C5_3 C 0.2276(3) 0.4251(3) 0.0593(5)
C6_3 C 0.2191(3) 0.3302(3) 0.0654(6)
C7_3 C 0.1793(3) 0.2372(3) 0.2486(6)
H3_3 H 0.166136 0.204740 0.310068
C9_3 C 0.2171(3) 0.2701(3) 0.0445(6)
Zn3_4 Zn 0.19271(3) 0.13719(4) 0.10684(7)
N2_3 N 0.2553(2) 0.5172(2) 0.9089(5)
N5_3 N 0.2367(2) 0.3840(2) 0.9875(5)
C8_3 C 0.2540(3) 0.5759(3) 0.9192(6)
H4_3 H 0.263175 0.606466 0.855497
H5_3 H 0.229451 0.261425 0.967452
N7_3 N 0.3606(3) 0.4695(2) 0.8029(5)
Zn3_5 Zn 0.94449(5) 0.80729(3) 0.10684(7)
Zn3_6 Zn 0.86281(4) 0.05551(5) 0.10684(7)
N3_4 N 0.7755(2) 0.9727(3) 0.1362(5)
C1_4 C 0.5097(3) 0.7483(4) 0.0240(6)
C2_4 C 0.7050(3) 0.8842(4) 0.2778(6)
H1_4 H 0.698111 0.864488 0.356008
C3_4 C 0.6571(3) 0.8565(4) 0.1832(6)
C4_4 C 0.4183(3) 0.6552(4) 0.0395(6)
H2_4 H 0.383254 0.615692 0.070447
C5_4 C 0.5749(3) 0.8025(4) 0.0593(5)
C6_4 C 0.6698(3) 0.8889(4) 0.0654(6)
C7_4 C 0.7628(3) 0.9421(4) 0.2486(6)
H3_4 H 0.795260 0.961396 0.310068
C9_4 C 0.7299(3) 0.9470(4) 0.0445(6)
N2_4 N 0.4828(2) 0.7381(3) 0.9089(5)
N5_4 N 0.6160(2) 0.8527(3) 0.9875(5)
C8_4 C 0.4241(3) 0.6781(4) 0.9192(6)
H4_4 H 0.393534 0.656709 0.855497
H5_4 H 0.738575 0.968026 0.967452
N7_4 N 0.5305(2) 0.8912(4) 0.8029(5)
N4_3 N 0.2624(2) 0.1283(2) 0.0124(5)
C2_5 C 0.3717(3) 0.1541(3) 0.1111(6)
H1_5 H 0.364778 0.166956 0.189341
C3_5 C 0.3238(3) 0.1339(3) 0.0165(6)
C7_5 C 0.4295(3) 0.1540(3) 0.0819(6)
H3_5 H 0.461927 0.167197 0.143401
N1_3 N 0.1395(2) 0.1059(2) 0.9394(5)
N2_5 N 0.1495(2) 0.0780(2) 0.7422(5)
N3_5 N 0.4422(2) 0.1361(2) 0.9695(5)
C1_5 C 0.1764(3) 0.0947(3) 0.8573(6)
N5_5 N 0.2827(2) 0.0966(2) 0.8208(5)
C4_5 C 0.0850(3) 0.0964(3) 0.8728(6)
H2_5 H 0.049921 0.100895 0.903780
C5_5 C 0.2416(3) 0.1057(3) 0.8926(5)
C6_5 C 0.3365(3) 0.1142(3) 0.8987(6)
C8_5 C 0.0908(3) 0.0793(3) 0.7525(6)
H4_5 H 0.060201 0.070158 0.688830
C9_5 C 0.3966(3) 0.1162(3) 0.8778(6)
H5_5 H 0.405242 0.103882 0.800785
Zn3_7 Zn 0.52947(4) 0.14063(3) 0.94018(7)
N6_3 N 0.1395(2) 0.0335(3) 0.4394(5)
N8_3 N 0.2624(2) 0.1340(3) 0.5124(5)
N4_4 N 0.8717(2) 0.1340(3) 0.0124(5)
C2_6 C 0.8459(3) 0.2175(4) 0.1111(6)
H1_6 H 0.833044 0.197821 0.189341
C3_6 C 0.8661(3) 0.1898(4) 0.0165(6)
C7_6 C 0.8460(3) 0.2754(4) 0.0819(6)
H3_6 H 0.832803 0.294729 0.143401
N1_4 N 0.8941(2) 0.0335(3) 0.9394(5)
N2_6 N 0.9220(2) 0.0714(3) 0.7422(5)
N3_6 N 0.8639(2) 0.3060(3) 0.9695(5)
C1_6 C 0.9053(3) 0.0816(4) 0.8573(6)
N5_6 N 0.9034(2) 0.1860(3) 0.8208(5)
C5_6 C 0.8943(3) 0.1358(4) 0.8926(5)
C6_6 C 0.8858(3) 0.2222(4) 0.8987(6)
C8_6 C 0.9207(3) 0.0114(4) 0.7525(6)
C9_6 C 0.8838(3) 0.2803(4) 0.8778(6)
H5_6 H 0.896118 0.301359 0.800785
Zn3_8 Zn 0.85937(3) 0.38885(5) 0.94018(7)
N6_4 N 0.9665(3) 0.1059(4) 0.4394(5)
N8_4 N 0.8660(3) 0.1283(4) 0.5124(5)
N4_5 N 0.8660(3) 0.7376(2) 0.0124(5)
C2_7 C 0.7825(4) 0.6283(3) 0.1111(6)
H1_7 H 0.802179 0.635222 0.189341
C3_7 C 0.8102(4) 0.6762(3) 0.0165(6)
C7_7 C 0.7246(4) 0.5705(3) 0.0819(6)
H3_7 H 0.705271 0.538073 0.143401
N1_5 N 0.9665(3) 0.8605(2) 0.9394(5)
N2_7 N 0.9286(3) 0.8505(2) 0.7422(5)
N3_7 N 0.6940(3) 0.5578(2) 0.9695(5)
C1_7 C 0.9184(4) 0.8236(3) 0.8573(6)
N5_7 N 0.8140(3) 0.7173(2) 0.8208(5)
C5_7 C 0.8642(4) 0.7584(3) 0.8926(5)
C6_7 C 0.7778(4) 0.6635(3) 0.8987(6)
C8_7 C 0.9886(4) 0.9092(3) 0.7525(6)
C9_7 C 0.7197(4) 0.6034(3) 0.8778(6)
H5_7 H 0.698641 0.594758 0.800785
Zn3_9 Zn 0.61115(5) 0.47053(4) 0.94018(7)
N6_5 N 0.8941(4) 0.8605(2) 0.4394(5)
N8_5 N 0.8717(4) 0.7376(2) 0.5124(5)
N2_8 N 0.9220(2) 0.8505(2) 0.2422(5)
N3_8 N 0.8639(2) 0.5578(2) 0.4695(5)
C1_8 C 0.9053(3) 0.8236(3) 0.3573(6)
N5_8 N 0.9034(2) 0.7173(2) 0.3208(5)
C2_8 C 0.8459(3) 0.6283(3) 0.6111(6)
H1_8 H 0.833044 0.635222 0.689341
C3_8 C 0.8661(3) 0.6762(3) 0.5165(6)
C4_6 C 0.9036(3) 0.9150(3) 0.3728(6)
H2_6 H 0.899105 0.950079 0.403780
C5_8 C 0.8943(3) 0.7584(3) 0.3926(5)
C6_8 C 0.8858(3) 0.6635(3) 0.3987(6)
C7_8 C 0.8460(3) 0.5705(3) 0.5819(6)
H3_8 H 0.832803 0.538073 0.643401
C8_8 C 0.9207(3) 0.9092(3) 0.2525(6)
H4_6 H 0.929842 0.939799 0.188830
C9_8 C 0.8838(3) 0.6034(3) 0.3778(6)
H5_8 H 0.896118 0.594758 0.300785
Zn3_10 Zn 0.85937(3) 0.47053(4) 0.44018(7)
N2_9 N 0.9286(3) 0.0780(2) 0.2422(5)
N3_9 N 0.6940(3) 0.1361(2) 0.4695(5)
C1_9 C 0.9184(4) 0.0947(3) 0.3573(6)
N5_9 N 0.8140(3) 0.0966(2) 0.3208(5)
C2_9 C 0.7825(4) 0.1541(3) 0.6111(6)
H1_9 H 0.802179 0.166956 0.689341
C3_9 C 0.8102(4) 0.1339(3) 0.5165(6)
C5_9 C 0.8642(4) 0.1057(3) 0.3926(5)
C6_9 C 0.7778(4) 0.1142(3) 0.3987(6)
C7_9 C 0.7246(4) 0.1540(3) 0.5819(6)
H3_9 H 0.705271 0.167197 0.643401
C8_9 C 0.9886(4) 0.0793(3) 0.2525(6)
C9_9 C 0.7197(4) 0.1162(3) 0.3778(6)
H5_9 H 0.698641 0.103882 0.300785
Zn3_11 Zn 0.61115(5) 0.14063(3) 0.44018(7)
N2_10 N 0.1495(2) 0.0714(3) 0.2422(5)
N3_10 N 0.4422(2) 0.3060(3) 0.4695(5)
C1_10 C 0.1764(3) 0.0816(4) 0.3573(6)
N5_10 N 0.2827(2) 0.1860(3) 0.3208(5)
C2_10 C 0.3717(3) 0.2175(4) 0.6111(6)
H1_10 H 0.364778 0.197821 0.689341
C3_10 C 0.3238(3) 0.1898(4) 0.5165(6)
C5_10 C 0.2416(3) 0.1358(4) 0.3926(5)
C6_10 C 0.3365(3) 0.2222(4) 0.3987(6)
C7_10 C 0.4295(3) 0.2754(4) 0.5819(6)
H3_10 H 0.461927 0.294729 0.643401
C8_10 C 0.0908(3) 0.0114(4) 0.2525(6)
C9_10 C 0.3966(3) 0.2803(4) 0.3778(6)
H5_10 H 0.405242 0.301359 0.300785
Zn3_12 Zn 0.52947(4) 0.38885(5) 0.44018(7)
C2_11 C 0.0383(3) 0.4875(3) 0.4445(6)
H1_11 H 0.031444 0.500290 0.522675
C6_11 C 0.0031(3) 0.4476(3) 0.2321(6)
C7_11 C 0.0961(3) 0.4874(3) 0.4153(6)
H3_11 H 0.128593 0.500531 0.476735
C9_11 C 0.0632(3) 0.4496(3) 0.2112(6)
H5_11 H 0.071908 0.437216 0.134119
N1_6 N 0.8061(2) 0.4393(2) 0.2728(5)
N2_11 N 0.8161(2) 0.4114(2) 0.0756(5)
N4_6 N 0.9290(2) 0.4617(2) 0.3458(5)
C1_11 C 0.8430(3) 0.4281(3) 0.1907(6)
N5_11 N 0.9493(2) 0.4300(2) 0.1542(5)
C3_11 C 0.9904(3) 0.4673(3) 0.3499(6)
C4_7 C 0.7516(3) 0.4298(3) 0.2062(6)
H2_7 H 0.716587 0.434229 0.237114
C5_11 C 0.9082(3) 0.4391(3) 0.2260(5)
C8_11 C 0.7574(3) 0.4127(3) 0.0859(6)
H4_7 H 0.726867 0.403492 0.022164
N6_6 N 0.8061(2) 0.3669(3) 0.7728(5)
N8_6 N 0.9290(2) 0.4674(3) 0.8458(5)
N1_7 N 0.5607(2) 0.3669(3) 0.2728(5)
N2_12 N 0.5886(2) 0.4048(3) 0.0756(5)
N4_7 N 0.5383(2) 0.4674(3) 0.3458(5)
C1_12 C 0.5719(3) 0.4150(4) 0.1907(6)
N5_12 N 0.5700(2) 0.5194(3) 0.1542(5)
C2_12 C 0.5125(3) 0.5509(4) 0.4445(6)
H1_12 H 0.499710 0.531155 0.522675
C3_12 C 0.5327(3) 0.5232(4) 0.3499(6)
C4_8 C 0.5702(3) 0.3219(4) 0.2062(6)
H2_8 H 0.565771 0.282359 0.237114
C5_12 C 0.5609(3) 0.4692(4) 0.2260(5)
C6_12 C 0.5524(3) 0.5556(4) 0.2321(6)
C7_12 C 0.5126(3) 0.6088(4) 0.4153(6)
H3_12 H 0.499469 0.628063 0.476735
C8_12 C 0.5873(3) 0.3448(4) 0.0859(6)
H4_8 H 0.596508 0.323376 0.022164
C9_12 C 0.5504(3) 0.6137(4) 0.2112(6)
H5_12 H 0.562784 0.634693 0.134119
N6_7 N 0.6331(3) 0.4393(4) 0.7728(5)
N8_7 N 0.5326(3) 0.4617(4) 0.8458(5)
N1_8 N 0.6331(3) 0.1939(2) 0.2728(5)
N2_13 N 0.5952(3) 0.1839(2) 0.0756(5)
N4_8 N 0.5326(3) 0.0710(2) 0.3458(5)
C1_13 C 0.5850(4) 0.1570(3) 0.1907(6)
N5_13 N 0.4806(3) 0.0507(2) 0.1542(5)
C3_13 C 0.4768(4) 0.0096(3) 0.3499(6)
C4_9 C 0.6781(4) 0.2484(3) 0.2062(6)
H2_9 H 0.717641 0.283413 0.237114
C5_13 C 0.5308(4) 0.0918(3) 0.2260(5)
C8_13 C 0.6552(4) 0.2426(3) 0.0859(6)
H4_9 H 0.676624 0.273133 0.022164
N6_8 N 0.5607(4) 0.1939(2) 0.7728(5)
N8_8 N 0.5383(4) 0.0710(2) 0.8458(5)
N2_14 N 0.5886(2) 0.1839(2) 0.5756(5)
C1_14 C 0.5719(3) 0.1570(3) 0.6907(6)
N5_14 N 0.5700(2) 0.0507(2) 0.6542(5)
C3_14 C 0.5327(3) 0.0096(3) 0.8499(6)
C4_10 C 0.5702(3) 0.2484(3) 0.7062(6)
H2_10 H 0.565771 0.283413 0.737114
C5_14 C 0.5609(3) 0.0918(3) 0.7260(5)
C8_14 C 0.5873(3) 0.2426(3) 0.5859(6)
H4_10 H 0.596508 0.273133 0.522164
C2_13 C 0.5125(3) 0.9617(3) 0.9445(6)
C6_13 C 0.5524(3) 0.9969(3) 0.7321(6)
C7_13 C 0.5126(3) 0.9039(3) 0.9153(6)
H3_13 H 0.499469 0.871407 0.976735
C9_13 C 0.5504(3) 0.9368(3) 0.7112(6)
H5_13 H 0.562784 0.928092 0.634119
N2_15 N 0.5952(3) 0.4114(2) 0.5756(5)
C1_15 C 0.5850(4) 0.4281(3) 0.6907(6)
N5_15 N 0.4806(3) 0.4300(2) 0.6542(5)
C2_14 C 0.4491(4) 0.4875(3) 0.9445(6)
C3_15 C 0.4768(4) 0.4673(3) 0.8499(6)
C4_11 C 0.6781(4) 0.4298(3) 0.7062(6)
H2_11 H 0.717641 0.434229 0.737114
C5_15 C 0.5308(4) 0.4391(3) 0.7260(5)
C6_14 C 0.4444(4) 0.4476(3) 0.7321(6)
C7_14 C 0.3912(4) 0.4874(3) 0.9153(6)
H3_14 H 0.371937 0.500531 0.976735
C8_15 C 0.6552(4) 0.4127(3) 0.5859(6)
H4_11 H 0.676624 0.403492 0.522164
C9_14 C 0.3863(4) 0.4496(3) 0.7112(6)
H5_14 H 0.365307 0.437216 0.634119
N2_16 N 0.8161(2) 0.4048(3) 0.5756(5)
C1_16 C 0.8430(3) 0.4150(4) 0.6907(6)
N5_16 N 0.9493(2) 0.5194(3) 0.6542(5)
C3_16 C 0.9904(3) 0.5232(4) 0.8499(6)
C4_12 C 0.7516(3) 0.3219(4) 0.7062(6)
H2_12 H 0.716587 0.282359 0.737114
C5_16 C 0.9082(3) 0.4692(4) 0.7260(5)
C8_16 C 0.7574(3) 0.3448(4) 0.5859(6)
H4_12 H 0.726867 0.323376 0.522164
Zn1_3 Zn 0.27782(3) 0.80386(4) 0.27351(7)
N1_9 N 0.2274(2) 0.7002(3) 0.6061(5)
N2_17 N 0.2553(2) 0.7381(3) 0.4089(5)
N3_11 N 0.1972(2) 0.9727(3) 0.6362(5)
N4_9 N 0.2050(2) 0.8007(3) 0.6791(5)
C1_17 C 0.2386(3) 0.7483(4) 0.5240(6)
N5_17 N 0.2367(2) 0.8527(3) 0.4875(5)
C2_15 C 0.1792(3) 0.8842(4) 0.7778(6)
H1_13 H 0.166377 0.864488 0.856008
C3_17 C 0.1994(3) 0.8565(4) 0.6832(6)
C4_13 C 0.2369(3) 0.6552(4) 0.5395(6)
H2_13 H 0.232438 0.615692 0.570447
C5_17 C 0.2276(3) 0.8025(4) 0.5593(5)
C6_15 C 0.2191(3) 0.8889(4) 0.5654(6)
C7_15 C 0.1793(3) 0.9421(4) 0.7486(6)
H3_15 H 0.166136 0.961396 0.810068
C8_17 C 0.2540(3) 0.6781(4) 0.4192(6)
H4_13 H 0.263175 0.656709 0.355497
C9_15 C 0.2171(3) 0.9470(4) 0.5445(6)
H5_15 H 0.229451 0.968026 0.467452
Zn2_3 Zn 0.19614(4) 0.72218(5) 0.77351(7)
N6_9 N 0.2998(3) 0.7726(4) 0.1061(5)
N7_5 N 0.3606(3) 0.8912(4) 0.3029(5)
N8_9 N 0.1993(3) 0.7950(4) 0.1791(5)
N3_12 N 0.0273(3) 0.8028(2) 0.1362(5)
C1_18 C 0.2517(4) 0.7614(3) 0.0240(6)
C2_16 C 0.1158(4) 0.8208(3) 0.2778(6)
H1_14 H 0.135512 0.833623 0.356008
C3_18 C 0.1435(4) 0.8006(3) 0.1832(6)
C4_14 C 0.3448(4) 0.7631(3) 0.0395(6)
H2_14 H 0.384308 0.767562 0.070447
C5_18 C 0.1975(4) 0.7724(3) 0.0593(5)
C6_16 C 0.1111(4) 0.7809(3) 0.0654(6)
C7_16 C 0.0579(4) 0.8207(3) 0.2486(6)
H3_16 H 0.038604 0.833864 0.310068
C9_16 C 0.0530(4) 0.7829(3) 0.0445(6)
N2_18 N 0.2619(3) 0.7447(2) 0.9089(5)
N5_18 N 0.1473(3) 0.7633(2) 0.9875(5)
C8_18 C 0.3219(4) 0.7460(3) 0.9192(6)
H4_14 H 0.343291 0.736825 0.855497
H5_16 H 0.031974 0.770549 0.967452
N7_6 N 0.1088(4) 0.6394(3) 0.8029(5)
C2_17 C 0.4491(4) 0.9617(3) 0.4445(6)
H1_15 H 0.468845 0.968556 0.522675
C6_17 C 0.4444(4) 0.9969(3) 0.2321(6)
C7_17 C 0.3912(4) 0.9039(3) 0.4153(6)
H3_17 H 0.371937 0.871407 0.476735
C9_17 C 0.3863(4) 0.9368(3) 0.2112(6)
H5_17 H 0.365307 0.928092 0.134119
C2_18 C 0.0383(3) 0.5509(4) 0.9445(6)
C6_18 C 0.0031(3) 0.5556(4) 0.7321(6)
C7_18 C 0.0961(3) 0.6088(4) 0.9153(6)
H3_18 H 0.128593 0.628063 0.976735
C9_18 C 0.0632(3) 0.6137(4) 0.7112(6)
H5_18 H 0.071908 0.634693 0.634119
C4_15 C 0.9036(3) 0.9885(4) 0.8728(6)
H2_15 H 0.899105 0.949025 0.903780
H4_15 H 0.929842 0.990042 0.688830
C4_16 C 0.0115(4) 0.9150(3) 0.8728(6)
H2_16 H 0.050975 0.950079 0.903780
H4_16 H 0.009958 0.939799 0.688830
C4_17 C 0.0115(4) 0.0964(3) 0.3728(6)
H2_17 H 0.050975 0.100895 0.403780
H4_17 H 0.009958 0.070158 0.188830
C4_18 C 0.0850(3) 0.9885(4) 0.3728(6)
H2_18 H 0.049921 0.949025 0.403780
H4_18 H 0.060201 0.990042 0.188830
H1_16 H 0.499710 0.968556 0.022675
H1_17 H 0.468845 0.500290 0.022675
H1_18 H 0.031444 0.531155 0.022675
loop_
_geom_bond_atom_site_label_1
_geom_bond_atom_site_label_2
_geom_bond_site_symmetry_1
_geom_bond_site_symmetry_2
Zn1 N2 1_555 1_555
N1 C1 1_555 1_555
N2 C1 1_555 1_555
N3 C7 1_555 1_555
N4 C3 1_555 1_555
C1 C5 1_555 1_555
N5 C5 1_555 1_555
C2 H1 1_555 1_555
C3 C2 1_555 1_555
C4 N1 1_555 1_555
H2 C4 1_555 1_555
C5 N4 1_555 1_555
C6 N5 1_555 1_555
C7 C2 1_555 1_555
H3 C7 1_555 1_555
C8 N2 1_555 1_555
H4 C8 1_555 1_555
C9 N3 1_555 1_555
H5 C9 1_555 1_555
Zn2 N1 1_555 1_555
Zn3 N3 1_555 1_555
N6 Zn1 1_555 1_555
N7 Zn1 1_555 1_555
N8 Zn1 1_555 1_555
N4 Zn2 1_555 1_555
C3 C6 1_555 1_555
C4 C8 1_555 1_555
C6 C9 1_555 1_555
Zn1_2 N2_2 1_555 1_555
N1_2 C1_2 1_555 1_555
N2_2 C1_2 1_555 1_555
N3_2 C7_2 1_555 1_555
N4_2 C3_2 1_555 1_555
C1_2 C5_2 1_555 1_555
N5_2 C5_2 1_555 1_555
C2_2 H1_2 1_555 1_555
C3_2 C2_2 1_555 1_555
C4_2 N1_2 1_555 1_555
H2_2 C4_2 1_555 1_555
C5_2 N4_2 1_555 1_555
C6_2 N5_2 1_555 1_555
C7_2 C2_2 1_555 1_555
H3_2 C7_2 1_555 1_555
C8_2 N2_2 1_555 1_555
H4_2 C8_2 1_555 1_555
C9_2 N3_2 1_555 1_555
H5_2 C9_2 1_555 1_555
Zn2_2 N1_2 1_555 1_555
N6_2 Zn1_2 1_555 1_555
N7_2 Zn1_2 1_555 1_555
N8_2 Zn1_2 1_555 1_555
N4_2 Zn2_2 1_555 1_555
C3_2 C6_2 1_555 1_555
C4_2 C8_2 1_555 1_555
C6_2 C9_2 1_555 1_555
N6_2 C1_3 1_555 1_555
N3_3 C7_3 1_555 1_555
N8_2 C3_3 1_555 1_555
C1_3 C5_3 1_555 1_555
C2_3 H1_3 1_555 1_555
C3_3 C2_3 1_555 1_555
C4_3 N6_2 1_555 1_555
H2_3 C4_3 1_555 1_555
C5_3 N8_2 1_555 1_555
C7_3 C2_3 1_555 1_555
H3_3 C7_3 1_555 1_555
C9_3 N3_3 1_555 1_555
Zn3_4 N3_3 1_555 1_555
C3_3 C6_3 1_555 1_555
C6_3 C9_3 1_555 1_555
Zn2_2 N2_3 1_555 1_555
C8_3 N2_3 1_555 1_555
H4_3 C8_3 1_555 1_555
N7_3 Zn2_2 1_555 1_555
N6 C1_4 1_555 1_555
N3_4 C7_4 1_555 1_555
N8 C3_4 1_555 1_555
C1_4 C5_4 1_555 1_555
C2_4 H1_4 1_555 1_555
C3_4 C2_4 1_555 1_555
C4_4 N6 1_555 1_555
H2_4 C4_4 1_555 1_555
C5_4 N8 1_555 1_555
C7_4 C2_4 1_555 1_555
H3_4 C7_4 1_555 1_555
C9_4 N3_4 1_555 1_555
C3_4 C6_4 1_555 1_555
C6_4 C9_4 1_555 1_555
Zn2 N2_4 1_555 1_555
C8_4 N2_4 1_555 1_555
H4_4 C8_4 1_555 1_555
N7_4 Zn2 1_555 1_555
N4_3 C3_5 1_555 1_555
C2_5 H1_5 1_555 1_555
C3_5 C2_5 1_555 1_555
C7_5 C2_5 1_555 1_555
H3_5 C7_5 1_555 1_555
N4_3 Zn3_4 1_555 1_555
Zn3_2 N2_5 1_555 1_555
N1_3 C1_5 1_555 1_555
N2_5 C1_5 1_555 1_555
C1_5 C5_5 1_555 1_555
N5_5 C5_5 1_555 1_555
C4_5 N1_3 1_555 1_555
H2_5 C4_5 1_555 1_555
C6_5 N5_5 1_555 1_555
C8_5 N2_5 1_555 1_555
H4_5 C8_5 1_555 1_555
C9_5 N3_5 1_555 1_555
H5_5 C9_5 1_555 1_555
Zn3_7 N3_5 1_555 1_555
N6_3 Zn3_2 1_555 1_555
N8_3 Zn3_2 1_555 1_555
C4_5 C8_5 1_555 1_555
C6_5 C9_5 1_555 1_555
N4_4 C3_6 1_555 1_555
C2_6 H1_6 1_555 1_555
C3_6 C2_6 1_555 1_555
C7_6 C2_6 1_555 1_555
H3_6 C7_6 1_555 1_555
N4_4 Zn3_6 1_555 1_555
Zn3_3 N2_6 1_555 1_555
N1_4 C1_6 1_555 1_555
N2_6 C1_6 1_555 1_555
C1_6 C5_6 1_555 1_555
N5_6 C5_6 1_555 1_555
C6_6 N5_6 1_555 1_555
C8_6 N2_6 1_555 1_555
C9_6 N3_6 1_555 1_555
H5_6 C9_6 1_555 1_555
Zn3_8 N3_6 1_555 1_555
N6_4 Zn3_3 1_555 1_555
N8_4 Zn3_3 1_555 1_555
C6_6 C9_6 1_555 1_555
N4_5 C3_7 1_555 1_555
C2_7 H1_7 1_555 1_555
C3_7 C2_7 1_555 1_555
C7_7 C2_7 1_555 1_555
H3_7 C7_7 1_555 1_555
N4_5 Zn3_5 1_555 1_555
Zn3 N2_7 1_555 1_555
N1_5 C1_7 1_555 1_555
N2_7 C1_7 1_555 1_555
C1_7 C5_7 1_555 1_555
N5_7 C5_7 1_555 1_555
C6_7 N5_7 1_555 1_555
C8_7 N2_7 1_555 1_555
C9_7 N3_7 1_555 1_555
H5_7 C9_7 1_555 1_555
Zn3_9 N3_7 1_555 1_555
N6_5 Zn3 1_555 1_555
N8_5 Zn3 1_555 1_555
C6_7 C9_7 1_555 1_555
Zn3_5 N2_8 1_555 1_555
N6_5 C1_8 1_555 1_555
N2_8 C1_8 1_555 1_555
N3_8 C7_8 1_555 1_555
N8_5 C3_8 1_555 1_555
C1_8 C5_8 1_555 1_555
N5_8 C5_8 1_555 1_555
C2_8 H1_8 1_555 1_555
C3_8 C2_8 1_555 1_555
C4_6 N6_5 1_555 1_555
H2_6 C4_6 1_555 1_555
C5_8 N8_5 1_555 1_555
C6_8 N5_8 1_555 1_555
C7_8 C2_8 1_555 1_555
H3_8 C7_8 1_555 1_555
C8_8 N2_8 1_555 1_555
H4_6 C8_8 1_555 1_555
C9_8 N3_8 1_555 1_555
H5_8 C9_8 1_555 1_555
Zn3_10 N3_8 1_555 1_555
C3_8 C6_8 1_555 1_555
C4_6 C8_8 1_555 1_555
C6_8 C9_8 1_555 1_555
Zn3_6 N2_9 1_555 1_555
N6_4 C1_9 1_555 1_555
N2_9 C1_9 1_555 1_555
N3_9 C7_9 1_555 1_555
N8_4 C3_9 1_555 1_555
C1_9 C5_9 1_555 1_555
N5_9 C5_9 1_555 1_555
C2_9 H1_9 1_555 1_555
C3_9 C2_9 1_555 1_555
C5_9 N8_4 1_555 1_555
C6_9 N5_9 1_555 1_555
C7_9 C2_9 1_555 1_555
H3_9 C7_9 1_555 1_555
C8_9 N2_9 1_555 1_555
C9_9 N3_9 1_555 1_555
H5_9 C9_9 1_555 1_555
Zn3_11 N3_9 1_555 1_555
C3_9 C6_9 1_555 1_555
C6_9 C9_9 1_555 1_555
Zn3_4 N2_10 1_555 1_555
N6_3 C1_10 1_555 1_555
N2_10 C1_10 1_555 1_555
N3_10 C7_10 1_555 1_555
N8_3 C3_10 1_555 1_555
C1_10 C5_10 1_555 1_555
N5_10 C5_10 1_555 1_555
C2_10 H1_10 1_555 1_555
C3_10 C2_10 1_555 1_555
C5_10 N8_3 1_555 1_555
C6_10 N5_10 1_555 1_555
C7_10 C2_10 1_555 1_555
H3_10 C7_10 1_555 1_555
C8_10 N2_10 1_555 1_555
C9_10 N3_10 1_555 1_555
H5_10 C9_10 1_555 1_555
Zn3_12 N3_10 1_555 1_555
C3_10 C6_10 1_555 1_555
C6_10 C9_10 1_555 1_555
N7_2 C7_11 1_555 1_555
C2_11 H1_11 1_555 1_555
C7_11 C2_11 1_555 1_555
H3_11 C7_11 1_555 1_555
C9_11 N7_2 1_555 1_555
H5_11 C9_11 1_555 1_555
C6_11 C9_11 1_555 1_555
N1_6 C1_11 1_555 1_555
N2_11 C1_11 1_555 1_555
N4_6 C3_11 1_555 1_555
C1_11 C5_11 1_555 1_555
N5_11 C5_11 1_555 1_555
C4_7 N1_6 1_555 1_555
H2_7 C4_7 1_555 1_555
C5_11 N4_6 1_555 1_555
C8_11 N2_11 1_555 1_555
H4_7 C8_11 1_555 1_555
Zn3_10 N1_6 1_555 1_555
N4_6 Zn3_10 1_555 1_555
C4_7 C8_11 1_555 1_555
N6_6 Zn3_8 1_555 1_555
N8_6 Zn3_8 1_555 1_555
N1_7 C1_12 1_555 1_555
N2_12 C1_12 1_555 1_555
N7 C7_12 1_555 1_555
N4_7 C3_12 1_555 1_555
C1_12 C5_12 1_555 1_555
N5_12 C5_12 1_555 1_555
C2_12 H1_12 1_555 1_555
C3_12 C2_12 1_555 1_555
C4_8 N1_7 1_555 1_555
H2_8 C4_8 1_555 1_555
C5_12 N4_7 1_555 1_555
C6_12 N5_12 1_555 1_555
C7_12 C2_12 1_555 1_555
H3_12 C7_12 1_555 1_555
C8_12 N2_12 1_555 1_555
H4_8 C8_12 1_555 1_555
C9_12 N7 1_555 1_555
H5_12 C9_12 1_555 1_555
Zn3_12 N1_7 1_555 1_555
N4_7 Zn3_12 1_555 1_555
C3_12 C6_12 1_555 1_555
C4_8 C8_12 1_555 1_555
C6_12 C9_12 1_555 1_555
N6_7 Zn3_9 1_555 1_555
N8_7 Zn3_9 1_555 1_555
N1_8 C1_13 1_555 1_555
N2_13 C1_13 1_555 1_555
N4_8 C3_13 1_555 1_555
C1_13 C5_13 1_555 1_555
N5_13 C5_13 1_555 1_555
C4_9 N1_8 1_555 1_555
H2_9 C4_9 1_555 1_555
C5_13 N4_8 1_555 1_555
C8_13 N2_13 1_555 1_555
H4_9 C8_13 1_555 1_555
Zn3_11 N1_8 1_555 1_555
N4_8 Zn3_11 1_555 1_555
C4_9 C8_13 1_555 1_555
N6_8 Zn3_7 1_555 1_555
N8_8 Zn3_7 1_555 1_555
Zn3_11 N2_14 1_555 1_555
N6_8 C1_14 1_555 1_555
N2_14 C1_14 1_555 1_555
N8_8 C3_14 1_555 1_555
C1_14 C5_14 1_555 1_555
N5_14 C5_14 1_555 1_555
C4_10 N6_8 1_555 1_555
H2_10 C4_10 1_555 1_555
C5_14 N8_8 1_555 1_555
C8_14 N2_14 1_555 1_555
H4_10 C8_14 1_555 1_555
C4_10 C8_14 1_555 1_555
N7_4 C7_13 1_555 1_555
C7_13 C2_13 1_555 1_555
H3_13 C7_13 1_555 1_555
C9_13 N7_4 1_555 1_555
H5_13 C9_13 1_555 1_555
C6_13 C9_13 1_555 1_555
Zn3_12 N2_15 1_555 1_555
N6_7 C1_15 1_555 1_555
N2_15 C1_15 1_555 1_555
N7_3 C7_14 1_555 1_555
N8_7 C3_15 1_555 1_555
C1_15 C5_15 1_555 1_555
N5_15 C5_15 1_555 1_555
C3_15 C2_14 1_555 1_555
C4_11 N6_7 1_555 1_555
H2_11 C4_11 1_555 1_555
C5_15 N8_7 1_555 1_555
C6_14 N5_15 1_555 1_555
C7_14 C2_14 1_555 1_555
H3_14 C7_14 1_555 1_555
C8_15 N2_15 1_555 1_555
H4_11 C8_15 1_555 1_555
C9_14 N7_3 1_555 1_555
H5_14 C9_14 1_555 1_555
C3_15 C6_14 1_555 1_555
C4_11 C8_15 1_555 1_555
C6_14 C9_14 1_555 1_555
Zn3_10 N2_16 1_555 1_555
N6_6 C1_16 1_555 1_555
N2_16 C1_16 1_555 1_555
N8_6 C3_16 1_555 1_555
C1_16 C5_16 1_555 1_555
N5_16 C5_16 1_555 1_555
C4_12 N6_6 1_555 1_555
H2_12 C4_12 1_555 1_555
C5_16 N8_6 1_555 1_555
C8_16 N2_16 1_555 1_555
H4_12 C8_16 1_555 1_555
C4_12 C8_16 1_555 1_555
Zn1_3 N2_17 1_555 1_555
N1_9 C1_17 1_555 1_555
N2_17 C1_17 1_555 1_555
N3_11 C7_15 1_555 1_555
N4_9 C3_17 1_555 1_555
C1_17 C5_17 1_555 1_555
N5_17 C5_17 1_555 1_555
C2_15 H1_13 1_555 1_555
C3_17 C2_15 1_555 1_555
C4_13 N1_9 1_555 1_555
H2_13 C4_13 1_555 1_555
C5_17 N4_9 1_555 1_555
C6_15 N5_17 1_555 1_555
C7_15 C2_15 1_555 1_555
H3_15 C7_15 1_555 1_555
C8_17 N2_17 1_555 1_555
H4_13 C8_17 1_555 1_555
C9_15 N3_11 1_555 1_555
H5_15 C9_15 1_555 1_555
Zn2_3 N1_9 1_555 1_555
N6_9 Zn1_3 1_555 1_555
N7_5 Zn1_3 1_555 1_555
N8_9 Zn1_3 1_555 1_555
N4_9 Zn2_3 1_555 1_555
C3_17 C6_15 1_555 1_555
C4_13 C8_17 1_555 1_555
C6_15 C9_15 1_555 1_555
N6_9 C1_18 1_555 1_555
N3_12 C7_16 1_555 1_555
N8_9 C3_18 1_555 1_555
C1_18 C5_18 1_555 1_555
C2_16 H1_14 1_555 1_555
C3_18 C2_16 1_555 1_555
C4_14 N6_9 1_555 1_555
H2_14 C4_14 1_555 1_555
C5_18 N8_9 1_555 1_555
C7_16 C2_16 1_555 1_555
H3_16 C7_16 1_555 1_555
C9_16 N3_12 1_555 1_555
C3_18 C6_16 1_555 1_555
C6_16 C9_16 1_555 1_555
Zn2_3 N2_18 1_555 1_555
C8_18 N2_18 1_555 1_555
H4_14 C8_18 1_555 1_555
N7_6 Zn2_3 1_555 1_555
N7_5 C7_17 1_555 1_555
C2_17 H1_15 1_555 1_555
C7_17 C2_17 1_555 1_555
H3_17 C7_17 1_555 1_555
C9_17 N7_5 1_555 1_555
H5_17 C9_17 1_555 1_555
C6_17 C9_17 1_555 1_555
N7_6 C7_18 1_555 1_555
C7_18 C2_18 1_555 1_555
H3_18 C7_18 1_555 1_555
C9_18 N7_6 1_555 1_555
H5_18 C9_18 1_555 1_555
C6_18 C9_18 1_555 1_555
H2_15 C4_15 1_555 1_555
H2_16 C4_16 1_555 1_555
H2_17 C4_17 1_555 1_555
H2_18 C4_18 1_555 1_555

#END
