
###############################################################################
#
# This file contains modified crystal structure data generated from the
# MOF subset of the Cambridge Structural Database (CSD) v543 
# hosted by the Cambridge Crystallographic Data Centre (CCDC).
#
# This work is licensed under the Creative Commons
# Attribution-NonCommercial-ShareAlike 4.0 International License.
# To view a copy of this license, visit
# http://creativecommons.org/licenses/by-nc-sa/4.0/
# or send a letter to
# Creative Commons, PO Box 1866, Mountain View, CA 94042, USA.
#
# CIF created using the CSD Python API on 29 September 2022
# The structure has been converted into the P1 space group
# The structure has a 3D framework
# The original CSD entry MUFXUI is in the triclinic crystal system
# The framework has been calculated to contain at least 10.0% void space
# The void calculation uses a probe of radius 1.32A, grid spacing 0.4
#
###############################################################################

data_MUFXUI
_chemical_formula_moiety         '(C48 H44 N12 O70 Tb8)n'
_symmetry_cell_setting           triclinic
_symmetry_space_group_name_H-M   'P 1'
_symmetry_Int_Tables_number      1
_space_group_name_Hall           'P 1'
loop_
_symmetry_equiv_pos_site_id
_symmetry_equiv_pos_as_xyz
1 x,y,z
_cell_length_a                   8.5627(15)
_cell_length_b                   14.078(3)
_cell_length_c                   20.297(4)
_cell_angle_alpha                88.568(3)
_cell_angle_beta                 86.325(4)
_cell_angle_gamma                81.382(3)
_cell_volume                     2413.82
loop_
_atom_site_label
_atom_site_type_symbol
_atom_site_fract_x
_atom_site_fract_y
_atom_site_fract_z
_atom_site_U_iso_or_equiv
_atom_site_thermal_displace_type
Tb15 Tb 0.11784(10) 0.76033(6) 0.51433(4) 0.0100 Uani
O49 O 0.1921(12) 0.3002(6) 0.0799(3) 0.0182 Uani
O53 O 0.5000(13) 0.1443(8) 0.0507(5) 0.0119 Uani
C37 C 0.135(2) 0.1975(13) 0.0031(9) 0.0137 Uani
C38 C 0.079(2) 0.2809(13) 0.0480(10) 0.0152 Uani
C40 C 0.426(2) 0.1862(12) 0.0027(9) 0.0130 Uani
Tb13 Tb 0.72635(10) 0.23728(6) 0.01904(4) 0.0094 Uani
Tb2 Tb 0.23516(11) 0.48561(6) 0.24797(5) 0.0131 Uani
O1 O 0.2127(12) 0.6751(8) 0.0792(6) 0.0087 Uani
O2 O 0.0180(5) 0.6144(3) 0.2640(2) 0.0199 Uani
O3 O 0.1900(13) 0.5422(8) 0.1358(6) 0.0087 Uani
O4 O 0.1058(5) 0.3738(7) 0.1967(5) 0.0303 Uani
O5 O 0.4401(14) 0.4175(8) 0.1752(6) 0.0140 Uani
O6 O 0.4023(5) 0.6017(3) 0.23428(19) 0.0246 Uani
O7 O 0.5895(13) 0.3113(8) 0.1140(6) 0.0108 Uani
O8 O 0.3632(5) 0.3452(5) 0.30550(16) 0.0469 Uani
O11 O 0.2552(12) 0.8911(8) 0.0647(5) 0.0113 Uani
O12 O 0.1114(13) 0.9897(8) 0.1364(6) 0.0136 Uani
O17 O 0.2739(13) 0.5362(8) 0.3557(6) 0.0158 Uani
O18 O 0.2240(11) 0.6641(8) 0.4177(5) 0.0140 Uani
O19 O 0.0281(13) 0.6816(8) 0.6137(6) 0.0097 Uani
N2 N 0.0721(16) 0.5743(10) 0.5083(7) 0.0107 Uani
C1 C 0.2521(19) 0.5866(12) 0.0915(9) 0.0094 Uani
C2 C 0.390(2) 0.5374(12) 0.0464(9) 0.0116 Uani
C3 C 0.4921(19) 0.4539(12) 0.0608(9) 0.0093 Uani
C4 C 0.507(2) 0.3886(12) 0.1216(9) 0.0107 Uani
C5 C 0.130(2) 0.9327(12) 0.0909(9) 0.0122 Uani
C13 C 0.204(2) 0.5812(13) 0.4019(9) 0.0139 Uani
C14 C 0.088(2) 0.5383(12) 0.4530(9) 0.0111 Uani
H1 H 0.4202(12) 0.6481(3) 0.2668(2) 0.0300 Uiso
H3 H 0.0219(13) 0.6770(3) 0.2429(3) 0.0300 Uiso
H4 H 0.0015(4) 0.3615(9) 0.2138(3) 0.0450 Uiso
H5 H 0.1167(12) 0.3538(15) 0.1516(3) 0.0450 Uiso
H6 H 0.4959(5) 0.5957(10) 0.2038(2) 0.0370 Uiso
H7 H 0.4544(6) 0.3088(6) 0.2817(3) 0.0700 Uiso
H8 H 0.3926(12) 0.3459(12) 0.35109(16) 0.0700 Uiso
O24 O 0.4340(5) 0.9470(4) 0.1698(2) 0.0219 Uani
O25 O 0.1446(4) 0.8831(4) 0.5906(3) 0.0210 Uani
O28 O 0.0769(13) 0.8857(8) 0.4325(6) 0.0126 Uani
O29 O 0.1486(4) 0.9997(4) 0.3633(4) 0.0136 Uani
O30 O 0.2184(14) 0.8613(9) 0.2567(7) 0.0251 Uani
O31 O 0.3649(13) 0.6933(8) 0.5571(6) 0.0159 Uani
O33 O 0.6205(13) 0.6827(8) 0.5668(5) 0.0147 Uani
O34 O 0.8458(14) 0.8422(9) 0.5458(5) 0.0188 Uani
O35 O 0.8731(13) 0.7403(8) 0.4592(6) 0.0157 Uani
N5 N 0.3568(16) 0.8329(10) 0.4723(7) 0.0114 Uani
N6 N 0.6228(17) 0.9157(10) 0.4311(8) 0.0161 Uani
C18 C 0.478(2) 0.9440(13) 0.4065(10) 0.0159 Uani
C19 C 0.346(2) 0.9022(12) 0.4272(9) 0.0123 Uani
C20 C 0.498(2) 0.8001(12) 0.4949(9) 0.0122 Uani
C21 C 0.626(2) 0.8395(13) 0.4747(10) 0.0144 Uani
C22 C 0.788(2) 0.8068(13) 0.4976(10) 0.0156 Uani
C23 C 0.497(2) 0.7170(12) 0.5439(9) 0.0122 Uani
C24 C 0.177(2) 0.9332(12) 0.4023(9) 0.0126 Uani
H9 H 0.2344(5) 0.9074(7) 0.6091(5) 0.0320 Uiso
H10 H 0.0514(3) 0.9271(4) 0.6083(4) 0.0320 Uiso
H17 H 0.3774(6) 0.9356(6) 0.1312(2) 0.0330 Uiso
H18 H 0.5130(5) 0.9865(4) 0.1535(5) 0.0330 Uiso
H19 H 0.28510 0.84150 0.28510 0.0380 Uiso
H20 H 0.24660 0.83370 0.22030 0.0380 Uiso
N7 N 0.5996(16) 0.4144(10) 0.0120(7) 0.0097 Uani
O43 O 0.0447(13) 0.4377(8) 0.3248(6) 0.0143 Uani
C31 C 0.0199(19) 0.4523(12) 0.4420(9) 0.0097 Uani
C32 C 0.0140(19) 0.3984(12) 0.3777(9) 0.0093 Uani
O52 O 0.4744(13) 0.2534(8) 0.9708(6) 0.0123 Uani
N9 N 0.0004(16) 0.1640(10) 0.9771(8) 0.0132 Uani
N10 N 0.3054(16) 0.0759(10) 0.9435(7) 0.0118 Uani
C34 C 0.024(2) 0.0876(12) 0.9371(9) 0.0125 Uani
C35 C 0.178(2) 0.0453(12) 0.9240(9) 0.0120 Uani
C36 C 0.279(2) 0.1508(12) 0.9837(9) 0.0133 Uani
H24 H 0.0699(5) 0.3747(8) 0.7025(2) 0.0300 Uiso
O75 O 0.5256(13) 0.7466(8) 0.0292(6) 0.0123 Uani
O82 O 0.1542(14) 0.1578(9) 0.4542(5) 0.0188 Uani
O84 O 0.1269(13) 0.2597(8) 0.5408(6) 0.0157 Uani
Tb1 Tb 0.27365(10) 0.76272(6) 0.98096(4) 0.0094 Uani
O9 O 0.0642(13) 0.6884(8) 0.9433(6) 0.0154 Uani
N1 N 0.4004(16) 0.5856(10) 0.9880(7) 0.0097 Uani
O36 O 0.7873(12) 0.3249(8) 0.9208(6) 0.0087 Uani
O37 O 0.8100(13) 0.4578(8) 0.8642(6) 0.0087 Uani
O38 O 0.5599(14) 0.5825(8) 0.8248(6) 0.0140 Uani
O39 O 0.4105(13) 0.6887(8) 0.8860(6) 0.0108 Uani
C25 C 0.7479(19) 0.4134(12) 0.9085(9) 0.0094 Uani
C26 C 0.610(2) 0.4626(12) 0.9536(9) 0.0116 Uani
C27 C 0.5079(19) 0.5461(12) 0.9392(9) 0.0093 Uani
C28 C 0.493(2) 0.6114(12) 0.8784(9) 0.0107 Uani
Tb14 Tb 0.76484(11) 0.51439(6) 0.75203(5) 0.0131 Uani
O77 O 0.5000(13) 0.8557(8) 0.9493(5) 0.0119 Uani
O80 O 0.1713(12) 0.8807(8) 0.9053(5) 0.0119 Uani
O55 O 0.3016(11) 0.9635(8) 0.8257(6) 0.0144 Uani
C39 C 0.221(2) 0.9557(12) 0.8797(9) 0.0129 Uani
O67 O 0.0564(16) 0.9932(10) 0.7377(7) 0.0345 Uani
H35 H 0.0504(7) 0.8479(7) 0.8406(2) 0.0450 Uiso
H36 H 0.0404(11) 0.7976(5) 0.7743(2) 0.0450 Uiso
H43 H 0.14760 0.98420 0.75300 0.0520 Uiso
H44 H 0.06310 0.97370 0.69820 0.0520 Uiso
O15 O 0.8287(12) 0.1193(8) 0.0947(5) 0.0119 Uani
O16 O 0.6984(11) 0.0365(8) 0.1743(6) 0.0144 Uani
C11 C 0.779(2) 0.0443(12) 0.1203(9) 0.0129 Uani
O32 O 0.9436(16) 0.0068(10) 0.2623(7) 0.0345 Uani
H13 H 0.9496(7) 0.1521(7) 0.1594(2) 0.0450 Uiso
H14 H 0.9596(11) 0.2024(5) 0.2257(2) 0.0450 Uiso
H21 H 0.85240 0.01580 0.24700 0.0520 Uiso
H22 H 0.93690 0.02630 0.30180 0.0520 Uiso
O48 O 0.9358(13) 0.3116(8) 0.0567(6) 0.0154 Uani
O20 O 0.9553(13) 0.5623(8) 0.6752(6) 0.0143 Uani
N3 N 0.9996(16) 0.8360(10) 0.0229(8) 0.0132 Uani
N4 N 0.6946(16) 0.9241(10) 0.0565(7) 0.0118 Uani
C6 C 0.976(2) 0.9124(12) 0.0629(9) 0.0125 Uani
C7 C 0.822(2) 0.9547(12) 0.0760(9) 0.0120 Uani
C8 C 0.721(2) 0.8492(12) 0.0163(9) 0.0133 Uani
C15 C 0.9801(19) 0.5477(12) 0.5580(9) 0.0097 Uani
C16 C 0.9860(19) 0.6016(12) 0.6223(9) 0.0093 Uani
H2 H 0.9301(5) 0.6253(8) 0.2975(2) 0.0300 Uiso
O40 O 0.7261(13) 0.4638(8) 0.6443(6) 0.0158 Uani
O41 O 0.7760(11) 0.3359(8) 0.5823(5) 0.0140 Uani
O42 O 0.9719(13) 0.3184(8) 0.3863(6) 0.0097 Uani
N8 N 0.9279(16) 0.4257(10) 0.4917(7) 0.0107 Uani
C29 C 0.796(2) 0.4188(13) 0.5981(9) 0.0139 Uani
C30 C 0.912(2) 0.4617(12) 0.5470(9) 0.0111 Uani
O44 O 0.9820(5) 0.3856(3) 0.7360(2) 0.0199 Uani
O45 O 0.8942(5) 0.6262(7) 0.8033(5) 0.0303 Uani
O46 O 0.5977(5) 0.3983(3) 0.76572(19) 0.0246 Uani
O47 O 0.6368(5) 0.6548(5) 0.69450(16) 0.0469 Uani
O50 O 0.7448(12) 0.1089(8) 0.9353(5) 0.0113 Uani
O51 O 0.8886(13) 0.0103(8) 0.8636(6) 0.0136 Uani
C33 C 0.870(2) 0.0673(12) 0.9091(9) 0.0122 Uani
H23 H 0.5798(12) 0.3519(3) 0.7332(2) 0.0300 Uiso
H25 H 0.9781(13) 0.3230(3) 0.7571(3) 0.0300 Uiso
H26 H 0.9985(4) 0.6385(9) 0.7862(3) 0.0450 Uiso
H27 H 0.8833(12) 0.6462(15) 0.8484(3) 0.0450 Uiso
H28 H 0.5041(5) 0.4043(10) 0.7962(2) 0.0370 Uiso
H29 H 0.5456(6) 0.6912(6) 0.7183(3) 0.0700 Uiso
H30 H 0.6074(12) 0.6541(12) 0.64891(16) 0.0700 Uiso
Tb7 Tb 0.88216(10) 0.23967(6) 0.48567(4) 0.0100 Uani
O59 O 0.5660(5) 0.0530(4) 0.8302(2) 0.0219 Uani
O60 O 0.8554(4) 0.1169(4) 0.4094(3) 0.0210 Uani
O63 O 0.9231(13) 0.1143(8) 0.5675(6) 0.0126 Uani
O64 O 0.8514(4) 0.0003(4) 0.6367(4) 0.0136 Uani
O65 O 0.7816(14) 0.1387(9) 0.7433(7) 0.0251 Uani
O66 O 0.6351(13) 0.3067(8) 0.4429(6) 0.0159 Uani
O68 O 0.3795(13) 0.3173(8) 0.4332(5) 0.0147 Uani
N11 N 0.6432(16) 0.1671(10) 0.5277(7) 0.0114 Uani
N12 N 0.3772(17) 0.0843(10) 0.5689(8) 0.0161 Uani
C42 C 0.522(2) 0.0560(13) 0.5935(10) 0.0159 Uani
C43 C 0.654(2) 0.0978(12) 0.5728(9) 0.0123 Uani
C44 C 0.502(2) 0.1999(12) 0.5051(9) 0.0122 Uani
C45 C 0.374(2) 0.1605(13) 0.5253(10) 0.0144 Uani
C46 C 0.212(2) 0.1932(13) 0.5024(10) 0.0156 Uani
C47 C 0.503(2) 0.2830(12) 0.4561(9) 0.0122 Uani
C48 C 0.823(2) 0.0668(12) 0.5977(9) 0.0126 Uani
H31 H 0.7656(5) 0.0926(7) 0.3909(5) 0.0320 Uiso
H32 H 0.9486(3) 0.0729(4) 0.3917(4) 0.0320 Uiso
H39 H 0.6226(6) 0.0644(6) 0.8688(2) 0.0330 Uiso
H40 H 0.4870(5) 0.0135(4) 0.8465(5) 0.0330 Uiso
H41 H 0.71490 0.15850 0.71490 0.0380 Uiso
H42 H 0.75340 0.16630 0.77970 0.0380 Uiso
O10 O 0.8079(12) 0.6998(6) 0.9201(3) 0.0182 Uani
C9 C 0.865(2) 0.8025(13) 0.9969(9) 0.0137 Uani
C10 C 0.921(2) 0.7191(13) 0.9520(10) 0.0152 Uani
C12 C 0.574(2) 0.8138(12) 0.9973(9) 0.0130 Uani
Tb4 Tb 0.21131(11) 0.02985(7) 0.24113(5) 0.0181 Uani
O21 O 0.3417(5) 0.1520(3) 0.1720(2) 0.0308 Uani
O22 O 0.0233(6) 0.1622(5) 0.1925(2) 0.0302 Uani
O23 O 0.1990(7) 0.1754(3) 0.3102(2) 0.0176 Uani
O26 O 0.4573(15) 0.0075(9) 0.2913(7) 0.0216 Uani
O27 O 0.5598(11) 0.0918(9) 0.3667(6) 0.0192 Uani
C17 C 0.491(2) 0.0231(13) 0.3533(10) 0.0169 Uani
H11 H 0.4293(6) 0.1261(6) 0.1413(3) 0.0470 Uiso
H12 H 0.2812(6) 0.2038(3) 0.1463(3) 0.0470 Uiso
H15 H 0.2540(8) 0.2318(3) 0.3069(5) 0.0270 Uiso
H16 H 0.1797(15) 0.1651(7) 0.3577(2) 0.0270 Uiso
Tb8 Tb 0.78869(11) 0.97015(7) 0.75887(5) 0.0181 Uani
O56 O 0.6583(5) 0.8480(3) 0.8280(2) 0.0308 Uani
O57 O 0.9767(6) 0.8378(5) 0.8075(2) 0.0302 Uani
O58 O 0.8010(7) 0.8246(3) 0.6898(2) 0.0176 Uani
O61 O 0.5427(15) 0.9925(9) 0.7087(7) 0.0216 Uani
O62 O 0.4402(11) 0.9082(9) 0.6333(6) 0.0192 Uani
C41 C 0.509(2) 0.9769(13) 0.6467(10) 0.0169 Uani
H33 H 0.5707(6) 0.8739(6) 0.8587(3) 0.0470 Uiso
H34 H 0.7188(6) 0.7962(3) 0.8537(3) 0.0470 Uiso
H37 H 0.7460(8) 0.7682(3) 0.6931(5) 0.0270 Uiso
H38 H 0.8203(15) 0.8349(7) 0.6423(2) 0.0270 Uiso
loop_
_atom_site_aniso_label
_atom_site_aniso_U_11
_atom_site_aniso_U_22
_atom_site_aniso_U_33
_atom_site_aniso_U_23
_atom_site_aniso_U_13
_atom_site_aniso_U_12
Tb15 0.0079 0.0158 0.007 0.0009 -0.0015 -0.0037
O49 0.0171 0.02 0.0181 -0.0018 -0.0019 -0.0037
O53 0.0117 0.0118 0.0121 -0.0011 -0.0001 -0.0013
C37 0.0134 0.0143 0.0136 0.0003 -0.0009 -0.0027
C38 0.0153 0.0153 0.0149 -0.0007 -0.0005 -0.0025
C40 0.0129 0.0129 0.0134 -0.0002 -0.0013 -0.0022
Tb13 0.0075 0.0145 0.0059 0.0003 -0.0003 -0.001
Tb2 0.0186 0.0145 0.006 0.0013 0.0026 -0.0039
O1 0.008 0.0098 0.009 0.0006 -0.0018 -0.0029
O2 0.02 0.018 0.019 0.007 -0.003 0.006
O3 0.0096 0.0092 0.0079 -0.0002 -0.0018 -0.0026
O4 0.036 0.037 0.021 -0.006 0 -0.015
O5 0.016 0.0144 0.0103 0.0009 0.0003 0.0011
O6 0.026 0.032 0.02 -0.006 0.001 -0.018
O7 0.0104 0.0114 0.011 0.0006 -0.0008 -0.0028
O8 0.049 0.05 0.039 -0.006 -0.003 0.002
O11 0.0116 0.0111 0.0115 0.0003 -0.0013 -0.0027
O12 0.0135 0.0135 0.0137 -0.0005 -0.0012 -0.0016
O17 0.016 0.0166 0.0152 -0.0009 0.0028 -0.0052
O18 0.016 0.0144 0.012 0.002 0.0003 -0.004
O19 0.0097 0.0096 0.01 0.0006 -0.0004 -0.0027
N2 0.0099 0.0106 0.0114 0.0014 -0.0007 -0.0011
C1 0.0102 0.0098 0.0086 0.0004 -0.0016 -0.0026
C2 0.0123 0.0119 0.0101 0.001 0 -0.0011
C3 0.0097 0.0099 0.0091 -0.0007 -0.0021 -0.0036
C4 0.0108 0.0115 0.01 0.0005 -0.001 -0.0024
C5 0.0122 0.0121 0.0124 0.0007 -0.0007 -0.0021
C13 0.0144 0.0144 0.0129 0.0013 0.001 -0.0036
C14 0.0108 0.0109 0.0113 0.0014 -0.0008 -0.0006
O24 0.018 0.024 0.025 -0.008 0.004 -0.008
O25 0.021 0.018 0.024 0.007 -0.004 -0.003
O28 0.0128 0.0145 0.011 -0.0003 -0.0022 -0.0031
O29 0.013 0.0146 0.0131 0 -0.0003 -0.0022
O30 0.024 0.026 0.025 -0.007 -0.002 -0.001
O31 0.0135 0.0188 0.016 0.0026 -0.0026 -0.0045
O33 0.0131 0.016 0.0155 0.0015 -0.0021 -0.0037
O34 0.0164 0.0225 0.0183 -0.0017 -0.0027 -0.0045
O35 0.0159 0.0167 0.0144 0.0023 -0.0018 -0.0025
N5 0.013 0.0107 0.011 -0.0044 -0.0013 -0.0022
N6 0.0137 0.0173 0.0178 0.002 -0.002 -0.0041
C18 0.0138 0.0165 0.018 0.0004 -0.0023 -0.0035
C19 0.0131 0.0119 0.0123 -0.0031 -0.0013 -0.002
C20 0.0129 0.0125 0.0115 -0.0024 -0.0011 -0.0028
C21 0.0137 0.015 0.0151 -0.0003 -0.0014 -0.0038
C22 0.0139 0.0172 0.0161 0.001 -0.0015 -0.0038
C23 0.0129 0.0125 0.0115 -0.0024 -0.0011 -0.0028
C24 0.0129 0.0132 0.0119 -0.0013 -0.0009 -0.0026
N7 0.01 0.0107 0.0091 0 -0.0013 -0.0032
O43 0.021 0.0129 0.0109 0.001 -0.0011 -0.0086
C31 0.0088 0.0096 0.0109 0.0009 -0.0017 -0.0014
C32 0.0076 0.0095 0.011 0.001 -0.0011 -0.002
O52 0.0123 0.0123 0.0124 -0.0008 -0.001 -0.0018
N9 0.0128 0.0132 0.0135 0 -0.0008 -0.002
N10 0.012 0.0122 0.0115 0.0011 -0.0008 -0.0025
C34 0.0122 0.0127 0.0128 0.0004 -0.0009 -0.0021
C35 0.0121 0.012 0.0121 0.0006 -0.0009 -0.0022
C36 0.0132 0.0135 0.0135 -0.0002 -0.0012 -0.0027
O75 0.0123 0.0123 0.0124 -0.0008 -0.001 -0.0018
O82 0.0164 0.0225 0.0183 -0.0017 -0.0027 -0.0045
O84 0.0159 0.0167 0.0144 0.0023 -0.0018 -0.0025
Tb1 0.0075 0.0145 0.0059 0.0003 -0.0003 -0.001
O9 0.0153 0.0156 0.0154 -0.0007 -0.0007 -0.0026
N1 0.01 0.0107 0.0091 0 -0.0013 -0.0032
O36 0.008 0.0098 0.009 0.0006 -0.0018 -0.0029
O37 0.0096 0.0092 0.0079 -0.0002 -0.0018 -0.0026
O38 0.016 0.0144 0.0103 0.0009 0.0003 0.0011
O39 0.0104 0.0114 0.011 0.0006 -0.0008 -0.0028
C25 0.0102 0.0098 0.0086 0.0004 -0.0016 -0.0026
C26 0.0123 0.0119 0.0101 0.001 0 -0.0011
C27 0.0097 0.0099 0.0091 -0.0007 -0.0021 -0.0036
C28 0.0108 0.0115 0.01 0.0005 -0.001 -0.0024
Tb14 0.0186 0.0145 0.006 0.0013 0.0026 -0.0039
O77 0.0117 0.0118 0.0121 -0.0011 -0.0001 -0.0013
O80 0.0118 0.0121 0.0118 -0.0003 -0.0012 -0.0015
O55 0.0147 0.015 0.0137 -0.0005 -0.0002 -0.0032
C39 0.013 0.0127 0.0132 -0.0001 -0.0009 -0.0021
O67 0.039 0.037 0.025 -0.001 -0.011 0.006
O15 0.0118 0.0121 0.0118 -0.0003 -0.0012 -0.0015
O16 0.0147 0.015 0.0137 -0.0005 -0.0002 -0.0032
C11 0.013 0.0127 0.0132 -0.0001 -0.0009 -0.0021
O32 0.039 0.037 0.025 -0.001 -0.011 0.006
O48 0.0153 0.0156 0.0154 -0.0007 -0.0007 -0.0026
O20 0.021 0.0129 0.0109 0.001 -0.0011 -0.0086
N3 0.0128 0.0132 0.0135 0 -0.0008 -0.002
N4 0.012 0.0122 0.0115 0.0011 -0.0008 -0.0025
C6 0.0122 0.0127 0.0128 0.0004 -0.0009 -0.0021
C7 0.0121 0.012 0.0121 0.0006 -0.0009 -0.0022
C8 0.0132 0.0135 0.0135 -0.0002 -0.0012 -0.0027
C15 0.0088 0.0096 0.0109 0.0009 -0.0017 -0.0014
C16 0.0076 0.0095 0.011 0.001 -0.0011 -0.002
O40 0.016 0.0166 0.0152 -0.0009 0.0028 -0.0052
O41 0.016 0.0144 0.012 0.002 0.0003 -0.004
O42 0.0097 0.0096 0.01 0.0006 -0.0004 -0.0027
N8 0.0099 0.0106 0.0114 0.0014 -0.0007 -0.0011
C29 0.0144 0.0144 0.0129 0.0013 0.001 -0.0036
C30 0.0108 0.0109 0.0113 0.0014 -0.0008 -0.0006
O44 0.02 0.018 0.019 0.007 -0.003 0.006
O45 0.036 0.037 0.021 -0.006 0 -0.015
O46 0.026 0.032 0.02 -0.006 0.001 -0.018
O47 0.049 0.05 0.039 -0.006 -0.003 0.002
O50 0.0116 0.0111 0.0115 0.0003 -0.0013 -0.0027
O51 0.0135 0.0135 0.0137 -0.0005 -0.0012 -0.0016
C33 0.0122 0.0121 0.0124 0.0007 -0.0007 -0.0021
Tb7 0.0079 0.0158 0.007 0.0009 -0.0015 -0.0037
O59 0.018 0.024 0.025 -0.008 0.004 -0.008
O60 0.021 0.018 0.024 0.007 -0.004 -0.003
O63 0.0128 0.0145 0.011 -0.0003 -0.0022 -0.0031
O64 0.013 0.0146 0.0131 0 -0.0003 -0.0022
O65 0.024 0.026 0.025 -0.007 -0.002 -0.001
O66 0.0135 0.0188 0.016 0.0026 -0.0026 -0.0045
O68 0.0131 0.016 0.0155 0.0015 -0.0021 -0.0037
N11 0.013 0.0107 0.011 -0.0044 -0.0013 -0.0022
N12 0.0137 0.0173 0.0178 0.002 -0.002 -0.0041
C42 0.0138 0.0165 0.018 0.0004 -0.0023 -0.0035
C43 0.0131 0.0119 0.0123 -0.0031 -0.0013 -0.002
C44 0.0129 0.0125 0.0115 -0.0024 -0.0011 -0.0028
C45 0.0137 0.015 0.0151 -0.0003 -0.0014 -0.0038
C46 0.0139 0.0172 0.0161 0.001 -0.0015 -0.0038
C47 0.0129 0.0125 0.0115 -0.0024 -0.0011 -0.0028
C48 0.0129 0.0132 0.0119 -0.0013 -0.0009 -0.0026
O10 0.0171 0.02 0.0181 -0.0018 -0.0019 -0.0037
C9 0.0134 0.0143 0.0136 0.0003 -0.0009 -0.0027
C10 0.0153 0.0153 0.0149 -0.0007 -0.0005 -0.0025
C12 0.0129 0.0129 0.0134 -0.0002 -0.0013 -0.0022
Tb4 0.0178 0.0203 0.0169 0.0014 -0.0028 -0.0047
O21 0.033 0.031 0.027 -0.001 0 -0.001
O22 0.031 0.028 0.03 -0.005 0 0.001
O23 0.022 0.016 0.014 0.005 0.002 -0.002
O26 0.023 0.021 0.0208 -0.0001 -0.0045 -0.0022
O27 0.0198 0.0193 0.0194 0.0003 -0.0007 -0.006
C17 0.0152 0.0168 0.0188 0.0012 -0.0015 -0.003
Tb8 0.0178 0.0203 0.0169 0.0014 -0.0028 -0.0047
O56 0.033 0.031 0.027 -0.001 0 -0.001
O57 0.031 0.028 0.03 -0.005 0 0.001
O58 0.022 0.016 0.014 0.005 0.002 -0.002
O61 0.023 0.021 0.0208 -0.0001 -0.0045 -0.0022
O62 0.0198 0.0193 0.0194 0.0003 -0.0007 -0.006
C41 0.0152 0.0168 0.0188 0.0012 -0.0015 -0.003
loop_
_geom_bond_atom_site_label_1
_geom_bond_atom_site_label_2
_geom_bond_site_symmetry_1
_geom_bond_site_symmetry_2
O49 C38 1_555 1_555
O53 C40 1_555 1_555
C38 C37 1_555 1_555
O53 Tb13 1_555 1_555
Tb2 O2 1_555 1_555
O1 C1 1_555 1_555
O3 Tb2 1_555 1_555
O4 Tb2 1_555 1_555
O5 Tb2 1_555 1_555
O6 Tb2 1_555 1_555
O7 C4 1_555 1_555
O8 Tb2 1_555 1_555
O12 C5 1_555 1_555
O17 Tb2 1_555 1_555
O18 C13 1_555 1_555
N2 C14 1_555 1_555
C1 O3 1_555 1_555
C3 C2 1_555 1_555
C4 O5 1_555 1_555
C5 O11 1_555 1_555
C13 O17 1_555 1_555
C14 C13 1_555 1_555
H1 O6 1_555 1_555
H3 O2 1_555 1_555
H4 O4 1_555 1_555
H5 O4 1_555 1_555
H6 O6 1_555 1_555
H7 O8 1_555 1_555
H8 O8 1_555 1_555
Tb15 O18 1_555 1_555
O25 Tb15 1_555 1_555
O28 Tb15 1_555 1_555
O31 Tb15 1_555 1_555
O33 C23 1_555 1_555
O34 C22 1_555 1_555
O35 C22 1_555 1_555
N5 Tb15 1_555 1_555
N6 C18 1_555 1_555
C19 N5 1_555 1_555
C20 N5 1_555 1_555
C21 N6 1_555 1_555
C22 C21 1_555 1_555
C23 O31 1_555 1_555
C24 O28 1_555 1_555
H9 O25 1_555 1_555
H10 O25 1_555 1_555
H17 O24 1_555 1_555
H18 O24 1_555 1_555
H19 O30 1_555 1_555
H20 O30 1_555 1_555
N7 C3 1_555 1_555
O43 Tb2 1_555 1_555
C31 C14 1_555 1_555
C32 O43 1_555 1_555
N10 C35 1_555 1_555
C34 N9 1_555 1_555
C35 C34 1_555 1_555
C36 N10 1_555 1_555
Tb13 O7 1_555 1_555
O19 Tb15 1_555 1_555
N2 Tb15 1_555 1_555
C1 C2 1_555 1_555
C3 C4 1_555 1_555
O29 C24 1_555 1_555
C18 C19 1_555 1_555
C19 C24 1_555 1_555
C20 C21 1_555 1_555
C20 C23 1_555 1_555
N7 Tb13 1_555 1_555
C31 C32 1_555 1_555
O9 Tb1 1_555 1_555
N1 Tb1 1_555 1_555
O36 C25 1_555 1_555
O37 C25 1_555 1_555
O38 C28 1_555 1_555
O39 Tb1 1_555 1_555
C25 C26 1_555 1_555
C27 N1 1_555 1_555
C28 O39 1_555 1_555
Tb14 O37 1_555 1_555
O77 Tb1 1_555 1_555
O80 Tb1 1_555 1_555
O38 Tb14 1_555 1_555
C26 C27 1_555 1_555
C27 C28 1_555 1_555
O80 C39 1_555 1_555
O55 C39 1_555 1_555
H43 O67 1_555 1_555
H44 O67 1_555 1_555
O15 C11 1_555 1_555
O16 C11 1_555 1_555
H21 O32 1_555 1_555
H22 O32 1_555 1_555
Tb13 O15 1_555 1_555
Tb13 O48 1_555 1_555
O20 C16 1_555 1_555
N4 C7 1_555 1_555
C6 N3 1_555 1_555
C7 C6 1_555 1_555
C8 N4 1_555 1_555
C16 C15 1_555 1_555
O40 C29 1_555 1_555
O41 C29 1_555 1_555
N8 C30 1_555 1_555
C29 C30 1_555 1_555
C30 C15 1_555 1_555
Tb14 O20 1_555 1_555
O44 Tb14 1_555 1_555
O45 Tb14 1_555 1_555
O46 Tb14 1_555 1_555
O47 Tb14 1_555 1_555
O51 C33 1_555 1_555
C33 O50 1_555 1_555
H23 O46 1_555 1_555
H25 O44 1_555 1_555
H26 O45 1_555 1_555
H27 O45 1_555 1_555
H28 O46 1_555 1_555
H29 O47 1_555 1_555
H30 O47 1_555 1_555
Tb7 O41 1_555 1_555
O60 Tb7 1_555 1_555
O63 Tb7 1_555 1_555
O66 Tb7 1_555 1_555
O68 C47 1_555 1_555
O82 C46 1_555 1_555
O84 C46 1_555 1_555
N11 Tb7 1_555 1_555
N12 C42 1_555 1_555
C43 N11 1_555 1_555
C44 N11 1_555 1_555
C45 N12 1_555 1_555
C46 C45 1_555 1_555
C47 O66 1_555 1_555
C48 O63 1_555 1_555
H31 O60 1_555 1_555
H32 O60 1_555 1_555
H39 O59 1_555 1_555
H40 O59 1_555 1_555
H41 O65 1_555 1_555
H42 O65 1_555 1_555
O40 Tb14 1_555 1_555
O42 Tb7 1_555 1_555
N8 Tb7 1_555 1_555
O64 C48 1_555 1_555
C42 C43 1_555 1_555
C43 C48 1_555 1_555
C44 C45 1_555 1_555
C44 C47 1_555 1_555
O10 C10 1_555 1_555
O77 C12 1_555 1_555
C9 C10 1_555 1_555
O21 Tb4 1_555 1_555
O22 Tb4 1_555 1_555
O23 Tb4 1_555 1_555
O26 Tb4 1_555 1_555
O27 C17 1_555 1_555
C17 O26 1_555 1_555
H11 O21 1_555 1_555
H12 O21 1_555 1_555
H15 O23 1_555 1_555
H16 O23 1_555 1_555
O56 Tb8 1_555 1_555
O57 Tb8 1_555 1_555
O58 Tb8 1_555 1_555
O61 Tb8 1_555 1_555
O62 C41 1_555 1_555
C41 O61 1_555 1_555
H33 O56 1_555 1_555
H34 O56 1_555 1_555
H37 O58 1_555 1_555
H38 O58 1_555 1_555

#END
