
###############################################################################
#
# This file contains modified crystal structure data generated from the
# MOF subset of the Cambridge Structural Database (CSD) v543 
# hosted by the Cambridge Crystallographic Data Centre (CCDC).
#
# This work is licensed under the Creative Commons
# Attribution-NonCommercial-ShareAlike 4.0 International License.
# To view a copy of this license, visit
# http://creativecommons.org/licenses/by-nc-sa/4.0/
# or send a letter to
# Creative Commons, PO Box 1866, Mountain View, CA 94042, USA.
#
# CIF created using the CSD Python API on 29 September 2022
# The structure has been converted into the P1 space group
# The structure has a 3D framework
# The original CSD entry MUGHED is in the monoclinic crystal system
# The framework has been calculated to contain at least 10.0% void space
# The void calculation uses a probe of radius 1.32A, grid spacing 0.4
# H atom positions have been added when not included in the experimental data
#
###############################################################################

data_MUGHED
_chemical_formula_moiety         '(C56 H24 N24 O24 Zn14)n'
_symmetry_cell_setting           triclinic
_symmetry_space_group_name_H-M   'P 1'
_symmetry_Int_Tables_number      1
_space_group_name_Hall           'P 1'
loop_
_symmetry_equiv_pos_site_id
_symmetry_equiv_pos_as_xyz
1 x,y,z
_cell_length_a                   17.927(4)
_cell_length_b                   12.869(3)
_cell_length_c                   11.055(2)
_cell_angle_alpha                90
_cell_angle_beta                 93.14(3)
_cell_angle_gamma                90
_cell_volume                     2546.59
loop_
_atom_site_label
_atom_site_type_symbol
_atom_site_fract_x
_atom_site_fract_y
_atom_site_fract_z
Zn11 Zn 0.0000 0.60186(5) 0.7500
Zn8 Zn 0.08077(2) 0.44815(4) 0.00106(4)
N7 N 0.37272(18) 0.0648(3) 0.1611(3)
Zn1 Zn 0.41923(2) 0.05185(4) 0.99894(4)
O1 O 0.35978(15) 0.1870(2) 0.9331(2)
O2 O 0.51720(14) 0.0854(2) 0.9349(2)
N1 N 0.12728(18) 0.4352(3) 0.8389(3)
N2 N 0.12593(17) 0.4687(3) 0.6444(3)
C1 C 0.3651(2) 0.2256(3) 0.8297(3)
Zn2 Zn 0.5000 0.10186(5) 0.7500
N3 N 0.09047(17) 0.4824(3) 0.7461(3)
C2 C 0.3012(2) 0.2930(3) 0.7790(3)
O3 O 0.41789(15) 0.2123(2) 0.7610(3)
C3 C 0.2472(2) 0.3292(3) 0.8522(3)
C4 C 0.2988(2) 0.3169(4) 0.6530(4)
C5 C 0.1889(2) 0.3884(3) 0.7953(3)
C6 C 0.2431(2) 0.3747(4) 0.5990(4)
C7 C 0.1875(2) 0.4101(3) 0.6715(3)
Zn3 Zn 0.58077(2) 0.05185(4) 0.50106(4)
O4 O 0.64022(15) 0.1870(2) 0.5669(2)
O5 O 0.48280(14) 0.0854(2) 0.5651(2)
N4 N 0.87272(18) 0.4352(3) 0.6611(3)
N5 N 0.87407(17) 0.4687(3) 0.8556(3)
C8 C 0.6349(2) 0.2256(3) 0.6703(3)
N6 N 0.90953(17) 0.4824(3) 0.7539(3)
C9 C 0.6988(2) 0.2930(3) 0.7210(3)
O6 O 0.58211(15) 0.2123(2) 0.7390(3)
C10 C 0.7528(2) 0.3292(3) 0.6478(3)
C11 C 0.7012(2) 0.3169(4) 0.8470(4)
C12 C 0.8111(2) 0.3884(3) 0.7047(3)
C13 C 0.7569(2) 0.3747(4) 0.9010(4)
C14 C 0.8125(2) 0.4101(3) 0.8285(3)
Zn4 Zn 0.91923(2) 0.55185(4) 0.99894(4)
Zn5 Zn 0.08077(2) 0.55185(4) 0.50106(4)
Zn9 Zn 0.91923(2) 0.44815(4) 0.49894(4)
N8 N 0.62728(18) 0.0648(3) 0.3389(3)
Zn11_2 Zn 1.0000 0.60186(5) 0.7500
H1 H 0.656965 0.287883 0.901659
H2 H 0.343035 0.287883 0.598341
H3 H 0.242016 0.392635 0.50265
H4 H 0.750694 0.313036 0.550979
H5 H 0.249306 0.313036 0.949021
H6 H 0.757984 0.392635 0.99735
Zn6 Zn 0.58077(2) 0.94815(4) 0.00106(4)
O7 O 0.48280(14) 0.9146(2) 0.0651(2)
Zn7 Zn 0.41923(2) 0.94815(4) 0.49894(4)
O8 O 0.51720(14) 0.9146(2) 0.4349(2)
N9 N 0.62593(17) 0.9687(3) 0.6444(3)
N10 N 0.37407(17) 0.9687(3) 0.8556(3)
N11 N 0.59047(17) 0.9824(3) 0.7461(3)
N12 N 0.40953(17) 0.9824(3) 0.7539(3)
O2_2 O 0.01720(14) 0.5854(2) 0.9349(2)
O4_2 O 0.14022(15) 0.6870(2) 0.5669(2)
N4_2 N 0.37272(18) 0.9352(3) 0.6611(3)
C8_2 C 0.1349(2) 0.7256(3) 0.6703(3)
C9_2 C 0.1988(2) 0.7930(3) 0.7210(3)
O6_2 O 0.08211(15) 0.7123(2) 0.7390(3)
C10_2 C 0.2528(2) 0.8292(3) 0.6478(3)
C11_2 C 0.2012(2) 0.8169(4) 0.8470(4)
C12_2 C 0.3111(2) 0.8884(3) 0.7047(3)
C13_2 C 0.2569(2) 0.8747(4) 0.9010(4)
C14_2 C 0.3125(2) 0.9101(3) 0.8285(3)
O8_2 O 0.01720(14) 0.4146(2) 0.4349(2)
N8_2 N 0.12728(18) 0.5648(3) 0.3389(3)
H1_2 H 0.156965 0.787883 0.901659
H4_2 H 0.250694 0.813036 0.550979
H6_2 H 0.257984 0.892635 0.99735
O7_2 O 0.98280(14) 0.4146(2) 0.0651(2)
N7_2 N 0.87272(18) 0.5648(3) 0.1611(3)
O1_2 O 0.85978(15) 0.6870(2) 0.9331(2)
N1_2 N 0.62728(18) 0.9352(3) 0.8389(3)
C1_2 C 0.8651(2) 0.7256(3) 0.8297(3)
C2_2 C 0.8012(2) 0.7930(3) 0.7790(3)
O3_2 O 0.91789(15) 0.7123(2) 0.7610(3)
C3_2 C 0.7472(2) 0.8292(3) 0.8522(3)
C4_2 C 0.7988(2) 0.8169(4) 0.6530(4)
C5_2 C 0.6889(2) 0.8884(3) 0.7953(3)
C6_2 C 0.7431(2) 0.8747(4) 0.5990(4)
C7_2 C 0.6875(2) 0.9101(3) 0.6715(3)
O5_2 O 0.98280(14) 0.5854(2) 0.5651(2)
H2_2 H 0.843035 0.787883 0.598341
H3_2 H 0.742016 0.892635 0.50265
H5_2 H 0.749306 0.813036 0.949021
Zn10 Zn 0.0000 0.39814(5) 0.2500
N9_2 N 0.37407(17) 0.0313(3) 0.3556(3)
N10_2 N 0.62593(17) 0.0313(3) 0.1444(3)
N11_2 N 0.40953(17) 0.0176(3) 0.2539(3)
N12_2 N 0.59047(17) 0.0176(3) 0.2461(3)
O1_3 O 0.64022(15) 0.8130(2) 0.0669(2)
N2_2 N 0.87407(17) 0.5313(3) 0.3556(3)
C1_3 C 0.6349(2) 0.7744(3) 0.1703(3)
Zn2_2 Zn 0.5000 0.89814(5) 0.2500
N3_2 N 0.90953(17) 0.5176(3) 0.2539(3)
C2_3 C 0.6988(2) 0.7070(3) 0.2210(3)
O3_3 O 0.58211(15) 0.7877(2) 0.2390(3)
C3_3 C 0.7528(2) 0.6708(3) 0.1478(3)
C4_3 C 0.7012(2) 0.6831(4) 0.3470(4)
C5_3 C 0.8111(2) 0.6116(3) 0.2047(3)
C6_3 C 0.7569(2) 0.6253(4) 0.4010(4)
C7_3 C 0.8125(2) 0.5899(3) 0.3285(3)
O4_3 O 0.35978(15) 0.8130(2) 0.4331(2)
N5_2 N 0.12593(17) 0.5313(3) 0.1444(3)
C8_3 C 0.3651(2) 0.7744(3) 0.3297(3)
N6_2 N 0.09047(17) 0.5176(3) 0.2461(3)
C9_3 C 0.3012(2) 0.7070(3) 0.2790(3)
O6_3 O 0.41789(15) 0.7877(2) 0.2610(3)
C10_3 C 0.2472(2) 0.6708(3) 0.3522(3)
C11_3 C 0.2988(2) 0.6831(4) 0.1530(4)
C12_3 C 0.1889(2) 0.6116(3) 0.2953(3)
C13_3 C 0.2431(2) 0.6253(4) 0.0990(4)
C14_3 C 0.1875(2) 0.5899(3) 0.1715(3)
Zn10_2 Zn 1.0000 0.39814(5) 0.2500
H1_3 H 0.343035 0.712117 0.098341
H2_3 H 0.656965 0.712117 0.401659
H3_3 H 0.757984 0.607365 0.49735
H4_3 H 0.249306 0.686964 0.449021
H5_3 H 0.750694 0.686964 0.0509793
H6_3 H 0.242016 0.607365 0.00265004
O1_4 O 0.14022(15) 0.3130(2) 0.0669(2)
C1_4 C 0.1349(2) 0.2744(3) 0.1703(3)
C2_4 C 0.1988(2) 0.2070(3) 0.2210(3)
O3_4 O 0.08211(15) 0.2877(2) 0.2390(3)
C3_4 C 0.2528(2) 0.1708(3) 0.1478(3)
C4_4 C 0.2012(2) 0.1831(4) 0.3470(4)
C5_4 C 0.3111(2) 0.1116(3) 0.2047(3)
C6_4 C 0.2569(2) 0.1253(4) 0.4010(4)
C7_4 C 0.3125(2) 0.0899(3) 0.3285(3)
H2_4 H 0.156965 0.212117 0.401659
H3_4 H 0.257984 0.107365 0.49735
H5_4 H 0.250694 0.186964 0.0509793
O4_4 O 0.85978(15) 0.3130(2) 0.4331(2)
C8_4 C 0.8651(2) 0.2744(3) 0.3297(3)
C9_4 C 0.8012(2) 0.2070(3) 0.2790(3)
O6_4 O 0.91789(15) 0.2877(2) 0.2610(3)
C10_4 C 0.7472(2) 0.1708(3) 0.3522(3)
C11_4 C 0.7988(2) 0.1831(4) 0.1530(4)
C12_4 C 0.6889(2) 0.1116(3) 0.2953(3)
C13_4 C 0.7431(2) 0.1253(4) 0.0990(4)
C14_4 C 0.6875(2) 0.0899(3) 0.1715(3)
H1_4 H 0.843035 0.212117 0.098341
H4_4 H 0.749306 0.186964 0.449021
H6_4 H 0.742016 0.107365 0.00265004
loop_
_geom_bond_atom_site_label_1
_geom_bond_atom_site_label_2
_geom_bond_site_symmetry_1
_geom_bond_site_symmetry_2
Zn1 O1 1_555 1_555
O1 C1 1_555 1_555
O2 Zn1 1_555 1_555
N1 N3 1_555 1_555
N2 N3 1_555 1_555
C1 C2 1_555 1_555
Zn2 O2 1_555 1_555
N3 Zn11 1_555 1_555
C2 C3 1_555 1_555
O3 C1 1_555 1_555
C3 C5 1_555 1_555
C4 C2 1_555 1_555
C5 N1 1_555 1_555
C6 C4 1_555 1_555
C7 N2 1_555 1_555
Zn3 O4 1_555 1_555
O4 C8 1_555 1_555
O5 Zn2 1_555 1_555
N4 N6 1_555 1_555
N5 N6 1_555 1_555
C8 C9 1_555 1_555
N6 Zn11_2 1_555 1_555
C9 C10 1_555 1_555
O6 Zn2 1_555 1_555
C10 C12 1_555 1_555
C11 C9 1_555 1_555
C12 N4 1_555 1_555
C13 C11 1_555 1_555
C14 N5 1_555 1_555
Zn4 N5 1_555 1_555
Zn5 N2 1_555 1_555
Zn9 N4 1_555 1_555
N8 Zn3 1_555 1_555
Zn2 O3 1_555 1_555
C5 C7 1_555 1_555
C6 C7 1_555 1_555
Zn3 O5 1_555 1_555
C8 O6 1_555 1_555
C12 C14 1_555 1_555
C13 C14 1_555 1_555
C11 H1 1_555 1_555
C4 H2 1_555 1_555
C6 H3 1_555 1_555
C10 H4 1_555 1_555
C3 H5 1_555 1_555
C13 H6 1_555 1_555
Zn6 O7 1_555 1_555
Zn7 O8 1_555 1_555
N9 N11 1_555 1_555
N10 N12 1_555 1_555
Zn11 O2_2 1_555 1_555
Zn5 O4_2 1_555 1_555
O4_2 C8_2 1_555 1_555
N4_2 N12 1_555 1_555
C8_2 C9_2 1_555 1_555
C9_2 C10_2 1_555 1_555
O6_2 Zn11 1_555 1_555
C10_2 C12_2 1_555 1_555
C11_2 C9_2 1_555 1_555
C12_2 N4_2 1_555 1_555
C13_2 C11_2 1_555 1_555
C14_2 N10 1_555 1_555
Zn7 N4_2 1_555 1_555
O8_2 Zn5 1_555 1_555
N8_2 Zn5 1_555 1_555
C8_2 O6_2 1_555 1_555
C12_2 C14_2 1_555 1_555
C13_2 C14_2 1_555 1_555
C11_2 H1_2 1_555 1_555
C10_2 H4_2 1_555 1_555
C13_2 H6_2 1_555 1_555
Zn4 O1_2 1_555 1_555
O1_2 C1_2 1_555 1_555
N1_2 N11 1_555 1_555
C1_2 C2_2 1_555 1_555
C2_2 C3_2 1_555 1_555
O3_2 C1_2 1_555 1_555
C3_2 C5_2 1_555 1_555
C4_2 C2_2 1_555 1_555
C5_2 N1_2 1_555 1_555
C6_2 C4_2 1_555 1_555
C7_2 N9 1_555 1_555
O5_2 Zn11_2 1_555 1_555
Zn9 O5_2 1_555 1_555
Zn11_2 O3_2 1_555 1_555
C5_2 C7_2 1_555 1_555
C6_2 C7_2 1_555 1_555
C4_2 H2_2 1_555 1_555
C6_2 H3_2 1_555 1_555
C3_2 H5_2 1_555 1_555
N9_2 N11_2 1_555 1_555
N10_2 N12_2 1_555 1_555
Zn6 O1_3 1_555 1_555
O1_3 C1_3 1_555 1_555
N7_2 N3_2 1_555 1_555
N2_2 N3_2 1_555 1_555
C1_3 C2_3 1_555 1_555
Zn2_2 O7 1_555 1_555
N3_2 Zn10_2 1_555 1_555
C2_3 C3_3 1_555 1_555
O3_3 C1_3 1_555 1_555
C3_3 C5_3 1_555 1_555
C4_3 C2_3 1_555 1_555
C5_3 N7_2 1_555 1_555
C6_3 C4_3 1_555 1_555
C7_3 N2_2 1_555 1_555
Zn7 O4_3 1_555 1_555
O4_3 C8_3 1_555 1_555
O8 Zn2_2 1_555 1_555
N8_2 N6_2 1_555 1_555
N5_2 N6_2 1_555 1_555
C8_3 C9_3 1_555 1_555
N6_2 Zn10 1_555 1_555
C9_3 C10_3 1_555 1_555
O6_3 Zn2_2 1_555 1_555
C10_3 C12_3 1_555 1_555
C11_3 C9_3 1_555 1_555
C12_3 N8_2 1_555 1_555
C13_3 C11_3 1_555 1_555
C14_3 N5_2 1_555 1_555
Zn8 N5_2 1_555 1_555
Zn9 N2_2 1_555 1_555
Zn2_2 O3_3 1_555 1_555
C5_3 C7_3 1_555 1_555
C6_3 C7_3 1_555 1_555
C8_3 O6_3 1_555 1_555
C12_3 C14_3 1_555 1_555
C13_3 C14_3 1_555 1_555
C11_3 H1_3 1_555 1_555
C4_3 H2_3 1_555 1_555
C6_3 H3_3 1_555 1_555
C10_3 H4_3 1_555 1_555
C3_3 H5_3 1_555 1_555
C13_3 H6_3 1_555 1_555
Zn8 O1_4 1_555 1_555
O1_4 C1_4 1_555 1_555
N7 N11_2 1_555 1_555
C1_4 C2_4 1_555 1_555
C2_4 C3_4 1_555 1_555
O3_4 C1_4 1_555 1_555
C3_4 C5_4 1_555 1_555
C4_4 C2_4 1_555 1_555
C5_4 N7 1_555 1_555
C6_4 C4_4 1_555 1_555
C7_4 N9_2 1_555 1_555
O8_2 Zn10 1_555 1_555
Zn10 O3_4 1_555 1_555
C5_4 C7_4 1_555 1_555
C6_4 C7_4 1_555 1_555
C4_4 H2_4 1_555 1_555
C6_4 H3_4 1_555 1_555
C3_4 H5_4 1_555 1_555
Zn10_2 O7_2 1_555 1_555
Zn9 O4_4 1_555 1_555
O4_4 C8_4 1_555 1_555
N8 N12_2 1_555 1_555
C8_4 C9_4 1_555 1_555
C9_4 C10_4 1_555 1_555
O6_4 Zn10_2 1_555 1_555
C10_4 C12_4 1_555 1_555
C11_4 C9_4 1_555 1_555
C12_4 N8 1_555 1_555
C13_4 C11_4 1_555 1_555
C14_4 N10_2 1_555 1_555
C8_4 O6_4 1_555 1_555
C12_4 C14_4 1_555 1_555
C13_4 C14_4 1_555 1_555
C11_4 H1_4 1_555 1_555
C10_4 H4_4 1_555 1_555
C13_4 H6_4 1_555 1_555

#END
