
###############################################################################
#
# This file contains modified crystal structure data generated from the
# MOF subset of the Cambridge Structural Database (CSD) v543 
# hosted by the Cambridge Crystallographic Data Centre (CCDC).
#
# This work is licensed under the Creative Commons
# Attribution-NonCommercial-ShareAlike 4.0 International License.
# To view a copy of this license, visit
# http://creativecommons.org/licenses/by-nc-sa/4.0/
# or send a letter to
# Creative Commons, PO Box 1866, Mountain View, CA 94042, USA.
#
# CIF created using the CSD Python API on 29 September 2022
# The structure has been converted into the P1 space group
# The structure has a 3D framework
# The original CSD entry MUHNAG is in the triclinic crystal system
# The framework has been calculated to contain at least 10.0% void space
# The void calculation uses a probe of radius 1.32A, grid spacing 0.4
#
###############################################################################

data_MUHNAG
_chemical_formula_moiety         '(C30 H16 Co3 N8 O8)n'
_symmetry_cell_setting           triclinic
_symmetry_space_group_name_H-M   'P 1'
_symmetry_Int_Tables_number      1
_space_group_name_Hall           'P 1'
loop_
_symmetry_equiv_pos_site_id
_symmetry_equiv_pos_as_xyz
1 x,y,z
_cell_length_a                   9.2529(12)
_cell_length_b                   10.6355(11)
_cell_length_c                   11.0493(13)
_cell_angle_alpha                63.622(11)
_cell_angle_beta                 86.489(10)
_cell_angle_gamma                74.907(10)
_cell_volume                     938.672
loop_
_atom_site_label
_atom_site_type_symbol
_atom_site_fract_x
_atom_site_fract_y
_atom_site_fract_z
_atom_site_U_iso_or_equiv
_atom_site_thermal_displace_type
N8 N 0.2251(5) 0.0714(5) 0.4916(5) 0.0234 Uani
C29 C 0.2623(7) 0.0374(7) 0.3888(6) 0.0349 Uani
H15 H 0.3000 0.1016 0.3134 0.0420 Uiso
Co7 Co 0.22196(7) 0.27529(7) 0.48166(6) 0.0175 Uani
C4 C 0.5969(8) 0.0221(7) 0.0753(6) 0.0413 Uani
H2 H 0.6624 0.0369 0.1252 0.0490 Uiso
Co1 Co 0.5000 0.5000 0.5000 0.0147 Uani
O1 O 0.4734(4) 0.3090(4) 0.6677(4) 0.0278 Uani
O2 O 0.3242(5) 0.1765(4) 0.6608(4) 0.0381 Uani
O3 O 0.4904(4) 0.4171(5) 0.3592(4) 0.0317 Uani
O4 O 0.3163(5) 0.3339(5) 0.3089(4) 0.0358 Uani
C1 C 0.4166(6) 0.2056(6) 0.7180(5) 0.0248 Uani
C2 C 0.4608(6) 0.0985(6) 0.8648(5) 0.0268 Uani
C3 C 0.5565(8) 0.1209(7) 0.9404(6) 0.0403 Uani
H1 H 0.5940 0.2024 0.9008 0.0480 Uiso
C5 C 0.4212(6) 0.3974(6) 0.2799(5) 0.0251 Uani
C6 C 0.4629(6) 0.4492(6) 0.1343(5) 0.0274 Uani
C7 C 0.5759(8) 0.5187(8) 0.0933(6) 0.0382 Uani
H3 H 0.6270 0.5318 0.1549 0.0470 Uiso
C23 C 0.3866(8) 0.4306(8) 0.0417(6) 0.0420 Uani
H12 H 0.3098 0.3841 0.0697 0.0500 Uiso
N5 N 0.0221(4) 0.6615(4) 0.5095(4) 0.0208 Uani
N6 N 0.1945(4) 0.4875(5) 0.4787(4) 0.0207 Uani
N7 N 0.2656(4) 0.5859(4) 0.4787(4) 0.0182 Uani
C24 C 0.0546(5) 0.5368(5) 0.4982(5) 0.0210 Uani
C25 C 0.1608(5) 0.6876(5) 0.4976(5) 0.0183 Uani
C26 C 0.1897(5) 0.8172(5) 0.4983(6) 0.0225 Uani
C27 C 0.1524(7) 0.8496(6) 0.6075(6) 0.0297 Uani
H13 H 0.1148 0.7866 0.6838 0.0350 Uiso
C28 C 0.1725(7) 0.9770(6) 0.5996(5) 0.0295 Uani
H14 H 0.1485 0.9982 0.6727 0.0360 Uiso
C30 C 0.2470(7) 0.9112(7) 0.3897(6) 0.0344 Uani
H16 H 0.2755 0.8907 0.3169 0.0410 Uiso
O9 O 0.5266(4) 0.6910(4) 0.3323(4) 0.0278 Uani
O11 O 0.5096(4) 0.5829(5) 0.6408(4) 0.0317 Uani
N11 N 0.7344(4) 0.4141(4) 0.5213(4) 0.0182 Uani
C8 C 0.6134(8) 0.5694(8) 0.9583(6) 0.0420 Uani
H4 H 0.6902 0.6159 0.9303 0.0500 Uiso
O8 O 0.6837(5) 0.6661(5) 0.6911(4) 0.0358 Uani
C20 C 0.5788(6) 0.6026(6) 0.7201(5) 0.0251 Uani
C21 C 0.5371(6) 0.5508(6) 0.8657(5) 0.0274 Uani
C22 C 0.4241(8) 0.4813(8) 0.9067(6) 0.0382 Uani
H11 H 0.3730 0.4682 0.8451 0.0470 Uiso
Co10 Co 0.77804(7) 0.72471(7) 0.51834(6) 0.0175 Uani
O6 O 0.6758(5) 0.8235(4) 0.3392(4) 0.0381 Uani
C16 C 0.5834(6) 0.7944(6) 0.2820(5) 0.0248 Uani
C17 C 0.5392(6) 0.9015(6) 0.1352(5) 0.0268 Uani
C18 C 0.4435(8) 0.8791(7) 0.0596(6) 0.0403 Uani
H9 H 0.4060 0.7976 0.0992 0.0480 Uiso
C19 C 0.4031(8) 0.9779(7) 0.9247(6) 0.0413 Uani
H10 H 0.3376 0.9631 0.8748 0.0490 Uiso
N1 N 0.9779(4) 0.3385(4) 0.4905(4) 0.0208 Uani
N2 N 0.8055(4) 0.5125(5) 0.5213(4) 0.0207 Uani
C9 C 0.9454(5) 0.4632(5) 0.5018(5) 0.0210 Uani
C10 C 0.8392(5) 0.3124(5) 0.5024(5) 0.0183 Uani
C11 C 0.8103(5) 0.1828(5) 0.5017(6) 0.0225 Uani
C12 C 0.8476(7) 0.1504(6) 0.3925(6) 0.0297 Uani
H5 H 0.8852 0.2134 0.3162 0.0350 Uiso
C13 C 0.8275(7) 0.0230(6) 0.4004(5) 0.0295 Uani
H6 H 0.8515 0.0018 0.3273 0.0360 Uiso
C15 C 0.7530(7) 0.0888(7) 0.6103(6) 0.0344 Uani
H8 H 0.7245 0.1093 0.6831 0.0410 Uiso
N4 N 0.7749(5) 0.9286(5) 0.5084(5) 0.0234 Uani
C14 C 0.7377(7) 0.9626(7) 0.6112(6) 0.0349 Uani
H7 H 0.7000 0.8984 0.6866 0.0420 Uiso
loop_
_atom_site_aniso_label
_atom_site_aniso_U_11
_atom_site_aniso_U_22
_atom_site_aniso_U_33
_atom_site_aniso_U_23
_atom_site_aniso_U_13
_atom_site_aniso_U_12
N8 0.024 0.018 0.034 -0.0146 0.0037 -0.0098
C29 0.052 0.031 0.037 -0.023 0.025 -0.026
Co7 0.0188 0.0156 0.0203 -0.0094 0.0027 -0.0056
C4 0.059 0.036 0.026 -0.001 -0.012 -0.028
Co1 0.0137 0.0149 0.0167 -0.0072 0.0017 -0.0056
O1 0.031 0.0243 0.0198 0.0008 0.001 -0.0131
O2 0.061 0.029 0.0219 -0.0024 -0.0122 -0.021
O3 0.036 0.043 0.0234 -0.0201 0.003 -0.0123
O4 0.055 0.043 0.03 -0.0237 0.0204 -0.036
C1 0.033 0.019 0.022 -0.008 0 -0.008
C2 0.034 0.022 0.022 -0.006 0 -0.01
C3 0.058 0.033 0.027 0 -0.005 -0.03
C5 0.037 0.021 0.022 -0.012 0.008 -0.012
C6 0.039 0.032 0.019 -0.015 0.011 -0.017
C7 0.051 0.059 0.024 -0.023 0.011 -0.039
C23 0.052 0.063 0.028 -0.022 0.016 -0.042
N5 0.0166 0.016 0.034 -0.0145 0.0016 -0.0046
N6 0.0164 0.019 0.034 -0.0159 0.0035 -0.0092
N7 0.0164 0.0152 0.028 -0.0124 0 -0.0065
C24 0.017 0.016 0.034 -0.014 -0.001 -0.005
C25 0.019 0.017 0.023 -0.0097 0.0005 -0.0095
C26 0.014 0.019 0.039 -0.017 -0.001 -0.0035
C27 0.04 0.029 0.026 -0.012 0.003 -0.019
C28 0.048 0.028 0.02 -0.014 0.008 -0.017
C30 0.043 0.032 0.045 -0.028 0.021 -0.021
O9 0.031 0.0243 0.0198 0.0008 0.001 -0.0131
O11 0.036 0.043 0.0234 -0.0201 0.003 -0.0123
N11 0.0164 0.0152 0.028 -0.0124 0 -0.0065
C8 0.052 0.063 0.028 -0.022 0.016 -0.042
O8 0.055 0.043 0.03 -0.0237 0.0204 -0.036
C20 0.037 0.021 0.022 -0.012 0.008 -0.012
C21 0.039 0.032 0.019 -0.015 0.011 -0.017
C22 0.051 0.059 0.024 -0.023 0.011 -0.039
Co10 0.0188 0.0156 0.0203 -0.0094 0.0027 -0.0056
O6 0.061 0.029 0.0219 -0.0024 -0.0122 -0.021
C16 0.033 0.019 0.022 -0.008 0 -0.008
C17 0.034 0.022 0.022 -0.006 0 -0.01
C18 0.058 0.033 0.027 0 -0.005 -0.03
C19 0.059 0.036 0.026 -0.001 -0.012 -0.028
N1 0.0166 0.016 0.034 -0.0145 0.0016 -0.0046
N2 0.0164 0.019 0.034 -0.0159 0.0035 -0.0092
C9 0.017 0.016 0.034 -0.014 -0.001 -0.005
C10 0.019 0.017 0.023 -0.0097 0.0005 -0.0095
C11 0.014 0.019 0.039 -0.017 -0.001 -0.0035
C12 0.04 0.029 0.026 -0.012 0.003 -0.019
C13 0.048 0.028 0.02 -0.014 0.008 -0.017
C15 0.043 0.032 0.045 -0.028 0.021 -0.021
N4 0.024 0.018 0.034 -0.0146 0.0037 -0.0098
C14 0.052 0.031 0.037 -0.023 0.025 -0.026
loop_
_geom_bond_atom_site_label_1
_geom_bond_atom_site_label_2
_geom_bond_site_symmetry_1
_geom_bond_site_symmetry_2
C29 N8 1_555 1_555
H15 C29 1_555 1_555
Co7 N8 1_555 1_555
H2 C4 1_555 1_555
Co1 O1 1_555 1_555
Co7 O2 1_555 1_555
O1 C1 1_555 1_555
O2 C1 1_555 1_555
O3 Co1 1_555 1_555
O4 Co7 1_555 1_555
C1 C2 1_555 1_555
C2 C3 1_555 1_555
C3 H1 1_555 1_555
C5 O3 1_555 1_555
C6 C5 1_555 1_555
C7 C6 1_555 1_555
H3 C7 1_555 1_555
C23 C6 1_555 1_555
H12 C23 1_555 1_555
N5 C24 1_555 1_555
N6 Co7 1_555 1_555
N7 Co1 1_555 1_555
C25 N5 1_555 1_555
C26 C25 1_555 1_555
C27 C26 1_555 1_555
H13 C27 1_555 1_555
C28 C27 1_555 1_555
H14 C28 1_555 1_555
C30 C26 1_555 1_555
H16 C30 1_555 1_555
O9 Co1 1_555 1_555
O11 Co1 1_555 1_555
N11 Co1 1_555 1_555
O4 C5 1_555 1_555
N6 N7 1_555 1_555
N6 C24 1_555 1_555
N7 C25 1_555 1_555
H4 C8 1_555 1_555
O11 C20 1_555 1_555
O8 C20 1_555 1_555
C20 C21 1_555 1_555
C21 C8 1_555 1_555
C22 C21 1_555 1_555
H11 C22 1_555 1_555
Co10 O8 1_555 1_555
O9 C16 1_555 1_555
O6 C16 1_555 1_555
C16 C17 1_555 1_555
C18 C17 1_555 1_555
H9 C18 1_555 1_555
Co10 O6 1_555 1_555
H10 C19 1_555 1_555
N2 N11 1_555 1_555
N11 C10 1_555 1_555
C9 N1 1_555 1_555
C10 N1 1_555 1_555
C11 C10 1_555 1_555
C12 C11 1_555 1_555
H5 C12 1_555 1_555
C13 C12 1_555 1_555
H6 C13 1_555 1_555
C15 C11 1_555 1_555
H8 C15 1_555 1_555
Co10 N2 1_555 1_555
N2 C9 1_555 1_555
C14 N4 1_555 1_555
H7 C14 1_555 1_555
Co10 N4 1_555 1_555

#END
