
###############################################################################
#
# This file contains modified crystal structure data generated from the
# MOF subset of the Cambridge Structural Database (CSD) v543 
# hosted by the Cambridge Crystallographic Data Centre (CCDC).
#
# This work is licensed under the Creative Commons
# Attribution-NonCommercial-ShareAlike 4.0 International License.
# To view a copy of this license, visit
# http://creativecommons.org/licenses/by-nc-sa/4.0/
# or send a letter to
# Creative Commons, PO Box 1866, Mountain View, CA 94042, USA.
#
# CIF created using the CSD Python API on 29 September 2022
# The structure has been converted into the P1 space group
# The structure has a 3D framework
# The original CSD entry MUHPAI is in the orthorhombic crystal system
# The framework has been calculated to contain at least 10.0% void space
# The void calculation uses a probe of radius 1.32A, grid spacing 0.4
#
###############################################################################

data_MUHPAI
_chemical_formula_moiety         '(C84 H112 Cu6 I4 N36)n'
_symmetry_cell_setting           triclinic
_symmetry_space_group_name_H-M   'P 1'
_symmetry_Int_Tables_number      1
_space_group_name_Hall           'P 1'
loop_
_symmetry_equiv_pos_site_id
_symmetry_equiv_pos_as_xyz
1 x,y,z
_cell_length_a                   11.406(5)
_cell_length_b                   14.981(7)
_cell_length_c                   16.867(8)
_cell_angle_alpha                90
_cell_angle_beta                 90
_cell_angle_gamma                90
_cell_volume                     2882.12
loop_
_atom_site_label
_atom_site_type_symbol
_atom_site_fract_x
_atom_site_fract_y
_atom_site_fract_z
N8 N 0.1792(3) 0.3083(2) 0.15412(19)
N9 N 0.2402(3) 0.2339(2) 0.13485(19)
H16 H 0.2373 0.1852 0.1618
H21 H 0.5426 0.3619 0.0525
C17 C 0.3813(4) 0.1708(3) 0.0374(3)
H23 H 0.3447 0.1142 0.0475
H25 H 0.4565 0.1725 0.0629
C18 C 0.3056(3) 0.2440(3) 0.0694(2)
C19 C 0.2859(3) 0.3298(3) 0.0426(2)
C20 C 0.2075(3) 0.3683(3) 0.0987(2)
C21 C 0.1627(4) 0.4616(3) 0.1024(3)
H26 H 0.2252 0.5010 0.1175
H27 H 0.1332 0.4787 0.0513
H28 H 0.1008 0.4651 0.1408
Cu5 Cu 0.06940(6) 0.31664(5) 0.2500
I1 I 0.50293(3) 0.62500(3) 0.7500
Cu1 Cu 0.31122(6) 0.51716(5) 0.7500
Cu2 Cu 0.43060(6) 0.81664(5) 0.7500
N1 N 0.3403(3) 0.4432(2) 0.64912(19)
N2 N 0.4508(3) 0.4323(3) 0.61869(19)
H1 H 0.5134 0.4497 0.6425
N3 N 0.1792(3) 0.3083(2) 0.34588(19)
N4 N 0.2402(3) 0.2339(2) 0.36515(19)
H2 H 0.2373 0.1852 0.3382
N5 N 0.1590(4) 0.5788(3) 0.7500
C1 C 0.1399(3) 0.3997(3) 0.6101(3)
H3 H 0.1262 0.3928 0.6659
H4 H 0.1088 0.3490 0.5823
H5 H 0.1021 0.4530 0.5917
C2 C 0.2698(3) 0.4062(3) 0.5951(2)
C3 C 0.3339(3) 0.3730(3) 0.5299(2)
C4 C 0.4513(4) 0.3910(3) 0.5470(2)
C5 C 0.5611(4) 0.3719(3) 0.5023(3)
H6 H 0.6135 0.4218 0.5068
H7 H 0.5426 0.3619 0.4475
H8 H 0.5979 0.3196 0.5238
C6 C 0.3813(4) 0.1708(3) 0.4626(3)
H9 H 0.3447 0.1142 0.4525
H10 H 0.3911 0.1786 0.5187
H11 H 0.4565 0.1725 0.4371
C7 C 0.3056(3) 0.2440(3) 0.4306(2)
C8 C 0.2859(3) 0.3298(3) 0.4574(2)
C9 C 0.2075(3) 0.3683(3) 0.4013(2)
C10 C 0.1627(4) 0.4616(3) 0.3976(3)
H12 H 0.2252 0.5010 0.3825
H13 H 0.1332 0.4787 0.4487
H14 H 0.1008 0.4651 0.3592
C11 C 0.0718(5) 0.6138(4) 0.7500
N6 N 0.3403(3) 0.4432(2) 0.85088(19)
N7 N 0.4508(3) 0.4323(3) 0.88131(19)
H15 H 0.5134 0.4497 0.8575
C12 C 0.1399(3) 0.3997(3) 0.8899(3)
H17 H 0.1262 0.3928 0.8341
H18 H 0.1088 0.3490 0.9177
H19 H 0.1021 0.4530 0.9083
C13 C 0.2698(3) 0.4062(3) 0.9049(2)
C14 C 0.3339(3) 0.3730(3) 0.9701(2)
C15 C 0.4513(4) 0.3910(3) 0.9530(2)
C16 C 0.5611(4) 0.3719(3) 0.9977(3)
H20 H 0.6135 0.4218 0.9932
H22 H 0.5979 0.3196 0.9762
H24 H 0.3911 0.1786 0.9813
N10 N 0.3208(3) 0.8083(2) 0.65412(19)
N11 N 0.3208(3) 0.8083(2) 0.84588(19)
C22 C 0.5718(5) 0.8862(4) 0.7500
Cu3 Cu 0.93060(6) 0.68336(5) 0.7500
I1_2 I 0.49707(3) 0.37500(3) 0.2500
Cu1_2 Cu 0.68878(6) 0.48284(5) 0.2500
Cu2_2 Cu 0.56940(6) 0.18336(5) 0.2500
N1_2 N 0.6597(3) 0.5568(2) 0.14912(19)
N2_2 N 0.5492(3) 0.5677(3) 0.11869(19)
H1_2 H 0.4866 0.5503 0.1425
N5_2 N 0.8410(4) 0.4212(3) 0.2500
C1_2 C 0.8601(3) 0.6003(3) 0.1101(3)
H3_2 H 0.8738 0.6072 0.1659
H4_2 H 0.8912 0.6510 0.0823
H5_2 H 0.8979 0.5470 0.0917
C2_2 C 0.7302(3) 0.5938(3) 0.0951(2)
C3_2 C 0.6661(3) 0.6270(3) 0.0299(2)
C4_2 C 0.5487(4) 0.6090(3) 0.0470(2)
C5_2 C 0.4389(4) 0.6281(3) 0.0023(3)
H6_2 H 0.3865 0.5782 0.0068
H8_2 H 0.4021 0.6804 0.0238
H10_2 H 0.6089 0.8214 0.0187
C11_2 C 0.9282(5) 0.3862(4) 0.2500
N6_2 N 0.6597(3) 0.5568(2) 0.35088(19)
N7_2 N 0.5492(3) 0.5677(3) 0.38131(19)
H15_2 H 0.4866 0.5503 0.3575
N8_2 N 0.8208(3) 0.6917(2) 0.65412(19)
N9_2 N 0.7598(3) 0.7661(2) 0.63485(19)
H16_2 H 0.7627 0.8148 0.6618
C12_2 C 0.8601(3) 0.6003(3) 0.3899(3)
H17_2 H 0.8738 0.6072 0.3341
H18_2 H 0.8912 0.6510 0.4177
H19_2 H 0.8979 0.5470 0.4083
C13_2 C 0.7302(3) 0.5938(3) 0.4049(2)
C14_2 C 0.6661(3) 0.6270(3) 0.4701(2)
C15_2 C 0.5487(4) 0.6090(3) 0.4530(2)
C16_2 C 0.4389(4) 0.6281(3) 0.4977(3)
H20_2 H 0.3865 0.5782 0.4932
H21_2 H 0.4574 0.6381 0.5525
H22_2 H 0.4021 0.6804 0.4762
C17_2 C 0.6187(4) 0.8292(3) 0.5374(3)
H23_2 H 0.6553 0.8858 0.5475
H24_2 H 0.6089 0.8214 0.4813
H25_2 H 0.5435 0.8275 0.5629
C18_2 C 0.6944(3) 0.7560(3) 0.5694(2)
C19_2 C 0.7141(3) 0.6702(3) 0.5426(2)
C20_2 C 0.7925(3) 0.6317(3) 0.5987(2)
C21_2 C 0.8373(4) 0.5384(3) 0.6024(3)
H26_2 H 0.7748 0.4990 0.6175
H27_2 H 0.8668 0.5213 0.5513
H28_2 H 0.8992 0.5349 0.6408
N10_2 N 0.6792(3) 0.1917(2) 0.15412(19)
N11_2 N 0.6792(3) 0.1917(2) 0.34588(19)
C22_2 C 0.4282(5) 0.1138(4) 0.2500
N3_2 N 0.8208(3) 0.6917(2) 0.84588(19)
N4_2 N 0.7598(3) 0.7661(2) 0.86515(19)
H2_2 H 0.7627 0.8148 0.8382
H7_2 H 0.4574 0.6381 0.9475
C6_2 C 0.6187(4) 0.8292(3) 0.9626(3)
H9_2 H 0.6553 0.8858 0.9525
H11_2 H 0.5435 0.8275 0.9371
C7_2 C 0.6944(3) 0.7560(3) 0.9306(2)
C8_2 C 0.7141(3) 0.6702(3) 0.9574(2)
C9_2 C 0.7925(3) 0.6317(3) 0.9013(2)
C10_2 C 0.8373(4) 0.5384(3) 0.8976(3)
H12_2 H 0.7748 0.4990 0.8825
H13_2 H 0.8668 0.5213 0.9487
H14_2 H 0.8992 0.5349 0.8592
I1_3 I 0.00293(3) 0.87500(3) 0.7500
N4_3 N 0.7402(3) 0.2661(2) 0.13485(19)
H2_3 H 0.7373 0.3148 0.1618
C6_3 C 0.8813(4) 0.3292(3) 0.0374(3)
H9_3 H 0.8447 0.3858 0.0475
H11_3 H 0.9565 0.3275 0.0629
C7_3 C 0.8056(3) 0.2560(3) 0.0694(2)
C8_3 C 0.7859(3) 0.1702(3) 0.0426(2)
C9_3 C 0.7075(3) 0.1317(3) 0.0987(2)
C10_3 C 0.6627(4) 0.0384(3) 0.1024(3)
H13_3 H 0.6332 0.0213 0.0513
H14_3 H 0.6008 0.0349 0.1408
N1_3 N 0.8403(3) 0.0568(2) 0.85088(19)
N2_3 N 0.9508(3) 0.0677(3) 0.88131(19)
C1_3 C 0.6399(3) 0.1003(3) 0.8899(3)
H3_3 H 0.6262 0.1072 0.8341
H4_3 H 0.6088 0.1510 0.9177
H5_3 H 0.6021 0.0470 0.9083
C2_3 C 0.7698(3) 0.0938(3) 0.9049(2)
C3_3 C 0.8339(3) 0.1270(3) 0.9701(2)
C4_3 C 0.9513(4) 0.1090(3) 0.9530(2)
H10_3 H 0.8911 0.3214 0.9813
N6_3 N 0.8403(3) 0.0568(2) 0.64912(19)
N7_3 N 0.9508(3) 0.0677(3) 0.61869(19)
N9_3 N 0.7402(3) 0.2661(2) 0.36515(19)
H16_3 H 0.7373 0.3148 0.3382
C12_3 C 0.6399(3) 0.1003(3) 0.6101(3)
H17_3 H 0.6262 0.1072 0.6659
H18_3 H 0.6088 0.1510 0.5823
H19_3 H 0.6021 0.0470 0.5917
C13_3 C 0.7698(3) 0.0938(3) 0.5951(2)
C14_3 C 0.8339(3) 0.1270(3) 0.5299(2)
C15_3 C 0.9513(4) 0.1090(3) 0.5470(2)
C17_3 C 0.8813(4) 0.3292(3) 0.4626(3)
H23_3 H 0.8447 0.3858 0.4525
H24_3 H 0.8911 0.3214 0.5187
H25_3 H 0.9565 0.3275 0.4371
C18_3 C 0.8056(3) 0.2560(3) 0.4306(2)
C19_3 C 0.7859(3) 0.1702(3) 0.4574(2)
C20_3 C 0.7075(3) 0.1317(3) 0.4013(2)
C21_3 C 0.6627(4) 0.0384(3) 0.3976(3)
H27_3 H 0.6332 0.0213 0.4487
H28_3 H 0.6008 0.0349 0.3592
Cu1_3 Cu 0.81122(6) 0.98284(5) 0.7500
N5_3 N 0.6590(4) 0.9212(3) 0.7500
H26_3 H 0.7252 0.9990 0.3825
Cu1_4 Cu 0.18878(6) 0.01716(5) 0.2500
N5_4 N 0.3410(4) 0.0788(3) 0.2500
H12_3 H 0.2748 0.0010 0.6175
N1_4 N 0.1597(3) 0.9432(2) 0.35088(19)
N2_4 N 0.0492(3) 0.9323(3) 0.38131(19)
N4_4 N 0.2598(3) 0.7339(2) 0.63485(19)
H2_4 H 0.2627 0.6852 0.6618
C1_4 C 0.3601(3) 0.8997(3) 0.3899(3)
H3_4 H 0.3738 0.8928 0.3341
H4_4 H 0.3912 0.8490 0.4177
H5_4 H 0.3979 0.9530 0.4083
C2_4 C 0.2302(3) 0.9062(3) 0.4049(2)
C3_4 C 0.1661(3) 0.8730(3) 0.4701(2)
C4_4 C 0.0487(4) 0.8910(3) 0.4530(2)
C6_4 C 0.1187(4) 0.6708(3) 0.5374(3)
H9_4 H 0.1553 0.6142 0.5475
H10_4 H 0.1089 0.6786 0.4813
H11_4 H 0.0435 0.6725 0.5629
C7_4 C 0.1944(3) 0.7440(3) 0.5694(2)
C8_4 C 0.2141(3) 0.8298(3) 0.5426(2)
C9_4 C 0.2925(3) 0.8683(3) 0.5987(2)
C10_4 C 0.3373(4) 0.9616(3) 0.6024(3)
H13_4 H 0.3668 0.9787 0.5513
H14_4 H 0.3992 0.9651 0.6408
N6_4 N 0.1597(3) 0.9432(2) 0.14912(19)
N7_4 N 0.0492(3) 0.9323(3) 0.11869(19)
C12_4 C 0.3601(3) 0.8997(3) 0.1101(3)
H17_4 H 0.3738 0.8928 0.1659
H18_4 H 0.3912 0.8490 0.0823
H19_4 H 0.3979 0.9530 0.0917
C13_4 C 0.2302(3) 0.9062(3) 0.0951(2)
C14_4 C 0.1661(3) 0.8730(3) 0.0299(2)
C15_4 C 0.0487(4) 0.8910(3) 0.0470(2)
H24_4 H 0.1089 0.6786 0.0187
N9_4 N 0.2598(3) 0.7339(2) 0.86515(19)
H16_4 H 0.2627 0.6852 0.8382
C17_4 C 0.1187(4) 0.6708(3) 0.9626(3)
H23_4 H 0.1553 0.6142 0.9525
H25_4 H 0.0435 0.6725 0.9371
C18_4 C 0.1944(3) 0.7440(3) 0.9306(2)
C19_4 C 0.2141(3) 0.8298(3) 0.9574(2)
C20_4 C 0.2925(3) 0.8683(3) 0.9013(2)
C21_4 C 0.3373(4) 0.9616(3) 0.8976(3)
H27_4 H 0.3668 0.9787 0.9487
H28_4 H 0.3992 0.9651 0.8592
I1_4 I 0.99707(3) 0.12500(3) 0.2500
H7_3 H 0.0426 0.1381 0.0525
H1_3 H 0.0134 0.0503 0.8575
C5_3 C 0.0611(4) 0.1281(3) 0.9977(3)
H6_3 H 0.1135 0.0782 0.9932
H8_3 H 0.0979 0.1804 0.9762
H15_3 H 0.0134 0.0503 0.6425
C16_3 C 0.0611(4) 0.1281(3) 0.5023(3)
H20_3 H 0.1135 0.0782 0.5068
H21_3 H 0.0426 0.1381 0.4475
H22_3 H 0.0979 0.1804 0.5238
H12_4 H 0.7252 0.9990 0.1175
H26_4 H 0.2748 0.0010 0.8825
H1_4 H 0.9866 0.9497 0.3575
C5_4 C 0.9389(4) 0.8719(3) 0.4977(3)
H6_4 H 0.8865 0.9218 0.4932
H7_4 H 0.9574 0.8619 0.5525
H8_4 H 0.9021 0.8196 0.4762
H15_4 H 0.9866 0.9497 0.1425
C16_4 C 0.9389(4) 0.8719(3) 0.0023(3)
H20_4 H 0.8865 0.9218 0.0068
H22_4 H 0.9021 0.8196 0.0238
H21_4 H 0.9574 0.8619 0.9475
loop_
_geom_bond_atom_site_label_1
_geom_bond_atom_site_label_2
_geom_bond_site_symmetry_1
_geom_bond_site_symmetry_2
N8 N9 1_555 1_555
N9 H16 1_555 1_555
C17 H23 1_555 1_555
H25 C17 1_555 1_555
C18 N9 1_555 1_555
C20 N8 1_555 1_555
C21 C20 1_555 1_555
H26 C21 1_555 1_555
H27 C21 1_555 1_555
H28 C21 1_555 1_555
Cu5 N8 1_555 1_555
C17 C18 1_555 1_555
C18 C19 1_555 1_555
C19 C20 1_555 1_555
I1 Cu1 1_555 1_555
Cu1 N1 1_555 1_555
Cu2 I1 1_555 1_555
N1 N2 1_555 1_555
N2 H1 1_555 1_555
N3 N4 1_555 1_555
N4 H2 1_555 1_555
N5 Cu1 1_555 1_555
C1 H3 1_555 1_555
H4 C1 1_555 1_555
H5 C1 1_555 1_555
C2 N1 1_555 1_555
C3 C2 1_555 1_555
C4 N2 1_555 1_555
C5 C4 1_555 1_555
H6 C5 1_555 1_555
H7 C5 1_555 1_555
H8 C5 1_555 1_555
C6 H9 1_555 1_555
H10 C6 1_555 1_555
H11 C6 1_555 1_555
C7 N4 1_555 1_555
C8 C3 1_555 1_555
C9 N3 1_555 1_555
C10 C9 1_555 1_555
H12 C10 1_555 1_555
H13 C10 1_555 1_555
H14 C10 1_555 1_555
C11 N5 1_555 1_555
N6 Cu1 1_555 1_555
N7 N6 1_555 1_555
H15 N7 1_555 1_555
C12 H17 1_555 1_555
H18 C12 1_555 1_555
H19 C12 1_555 1_555
C13 N6 1_555 1_555
C14 C13 1_555 1_555
C15 N7 1_555 1_555
C16 C15 1_555 1_555
H20 C16 1_555 1_555
H22 C16 1_555 1_555
Cu5 N3 1_555 1_555
N10 Cu2 1_555 1_555
N11 Cu2 1_555 1_555
C22 Cu2 1_555 1_555
C1 C2 1_555 1_555
C3 C4 1_555 1_555
C6 C7 1_555 1_555
C7 C8 1_555 1_555
C8 C9 1_555 1_555
C12 C13 1_555 1_555
C14 C15 1_555 1_555
I1_2 Cu1_2 1_555 1_555
Cu1_2 N1_2 1_555 1_555
Cu2_2 I1_2 1_555 1_555
N1_2 N2_2 1_555 1_555
N2_2 H1_2 1_555 1_555
N5_2 Cu1_2 1_555 1_555
C1_2 H3_2 1_555 1_555
H4_2 C1_2 1_555 1_555
H5_2 C1_2 1_555 1_555
C2_2 N1_2 1_555 1_555
C3_2 C2_2 1_555 1_555
C4_2 N2_2 1_555 1_555
C5_2 C4_2 1_555 1_555
H6_2 C5_2 1_555 1_555
H8_2 C5_2 1_555 1_555
C11_2 N5_2 1_555 1_555
N6_2 Cu1_2 1_555 1_555
N7_2 N6_2 1_555 1_555
H15_2 N7_2 1_555 1_555
N8_2 N9_2 1_555 1_555
N9_2 H16_2 1_555 1_555
C12_2 H17_2 1_555 1_555
H18_2 C12_2 1_555 1_555
H19_2 C12_2 1_555 1_555
C13_2 N6_2 1_555 1_555
C14_2 C13_2 1_555 1_555
C15_2 N7_2 1_555 1_555
C16_2 C15_2 1_555 1_555
H20_2 C16_2 1_555 1_555
H21_2 C16_2 1_555 1_555
H22_2 C16_2 1_555 1_555
C17_2 H23_2 1_555 1_555
H24_2 C17_2 1_555 1_555
H25_2 C17_2 1_555 1_555
C18_2 N9_2 1_555 1_555
C19_2 C14_2 1_555 1_555
C20_2 N8_2 1_555 1_555
C21_2 C20_2 1_555 1_555
H26_2 C21_2 1_555 1_555
H27_2 C21_2 1_555 1_555
H28_2 C21_2 1_555 1_555
Cu3 N8_2 1_555 1_555
N10_2 Cu2_2 1_555 1_555
N11_2 Cu2_2 1_555 1_555
C22_2 Cu2_2 1_555 1_555
C1_2 C2_2 1_555 1_555
C3_2 C4_2 1_555 1_555
C12_2 C13_2 1_555 1_555
C14_2 C15_2 1_555 1_555
C17_2 C18_2 1_555 1_555
C18_2 C19_2 1_555 1_555
C19_2 C20_2 1_555 1_555
N3_2 N4_2 1_555 1_555
N4_2 H2_2 1_555 1_555
C6_2 H9_2 1_555 1_555
H11_2 C6_2 1_555 1_555
C7_2 N4_2 1_555 1_555
C9_2 N3_2 1_555 1_555
C10_2 C9_2 1_555 1_555
H12_2 C10_2 1_555 1_555
H13_2 C10_2 1_555 1_555
H14_2 C10_2 1_555 1_555
Cu3 N3_2 1_555 1_555
C6_2 C7_2 1_555 1_555
C7_2 C8_2 1_555 1_555
C8_2 C9_2 1_555 1_555
N10_2 N4_3 1_555 1_555
N4_3 H2_3 1_555 1_555
C6_3 H9_3 1_555 1_555
H11_3 C6_3 1_555 1_555
C7_3 N4_3 1_555 1_555
C9_3 N10_2 1_555 1_555
C10_3 C9_3 1_555 1_555
H13_3 C10_3 1_555 1_555
H14_3 C10_3 1_555 1_555
C6_3 C7_3 1_555 1_555
C7_3 C8_3 1_555 1_555
C8_3 C9_3 1_555 1_555
N1_3 N2_3 1_555 1_555
C1_3 H3_3 1_555 1_555
H4_3 C1_3 1_555 1_555
H5_3 C1_3 1_555 1_555
C2_3 N1_3 1_555 1_555
C3_3 C2_3 1_555 1_555
C4_3 N2_3 1_555 1_555
N7_3 N6_3 1_555 1_555
N11_2 N9_3 1_555 1_555
N9_3 H16_3 1_555 1_555
C12_3 H17_3 1_555 1_555
H18_3 C12_3 1_555 1_555
H19_3 C12_3 1_555 1_555
C13_3 N6_3 1_555 1_555
C14_3 C13_3 1_555 1_555
C15_3 N7_3 1_555 1_555
C17_3 H23_3 1_555 1_555
H24_3 C17_3 1_555 1_555
H25_3 C17_3 1_555 1_555
C18_3 N9_3 1_555 1_555
C19_3 C14_3 1_555 1_555
C20_3 N11_2 1_555 1_555
C21_3 C20_3 1_555 1_555
H27_3 C21_3 1_555 1_555
H28_3 C21_3 1_555 1_555
C1_3 C2_3 1_555 1_555
C3_3 C4_3 1_555 1_555
C12_3 C13_3 1_555 1_555
C14_3 C15_3 1_555 1_555
C17_3 C18_3 1_555 1_555
C18_3 C19_3 1_555 1_555
C19_3 C20_3 1_555 1_555
N5_3 Cu1_3 1_555 1_555
C22 N5_3 1_555 1_555
N5_4 Cu1_4 1_555 1_555
C22_2 N5_4 1_555 1_555
N1_4 N2_4 1_555 1_555
N10 N4_4 1_555 1_555
N4_4 H2_4 1_555 1_555
C1_4 H3_4 1_555 1_555
H4_4 C1_4 1_555 1_555
H5_4 C1_4 1_555 1_555
C2_4 N1_4 1_555 1_555
C3_4 C2_4 1_555 1_555
C4_4 N2_4 1_555 1_555
C6_4 H9_4 1_555 1_555
H10_4 C6_4 1_555 1_555
H11_4 C6_4 1_555 1_555
C7_4 N4_4 1_555 1_555
C8_4 C3_4 1_555 1_555
C9_4 N10 1_555 1_555
C10_4 C9_4 1_555 1_555
H13_4 C10_4 1_555 1_555
H14_4 C10_4 1_555 1_555
N7_4 N6_4 1_555 1_555
C12_4 H17_4 1_555 1_555
H18_4 C12_4 1_555 1_555
H19_4 C12_4 1_555 1_555
C13_4 N6_4 1_555 1_555
C14_4 C13_4 1_555 1_555
C15_4 N7_4 1_555 1_555
C1_4 C2_4 1_555 1_555
C3_4 C4_4 1_555 1_555
C6_4 C7_4 1_555 1_555
C7_4 C8_4 1_555 1_555
C8_4 C9_4 1_555 1_555
C12_4 C13_4 1_555 1_555
C14_4 C15_4 1_555 1_555
N11 N9_4 1_555 1_555
N9_4 H16_4 1_555 1_555
C17_4 H23_4 1_555 1_555
H25_4 C17_4 1_555 1_555
C18_4 N9_4 1_555 1_555
C20_4 N11 1_555 1_555
C21_4 C20_4 1_555 1_555
H27_4 C21_4 1_555 1_555
H28_4 C21_4 1_555 1_555
C17_4 C18_4 1_555 1_555
C18_4 C19_4 1_555 1_555
C19_4 C20_4 1_555 1_555
H6_3 C5_3 1_555 1_555
H8_3 C5_3 1_555 1_555
H20_3 C16_3 1_555 1_555
H21_3 C16_3 1_555 1_555
H22_3 C16_3 1_555 1_555
H6_4 C5_4 1_555 1_555
H7_4 C5_4 1_555 1_555
H8_4 C5_4 1_555 1_555
H20_4 C16_4 1_555 1_555
H22_4 C16_4 1_555 1_555

#END
