
###############################################################################
#
# This file contains modified crystal structure data generated from the
# MOF subset of the Cambridge Structural Database (CSD) v543 
# hosted by the Cambridge Crystallographic Data Centre (CCDC).
#
# This work is licensed under the Creative Commons
# Attribution-NonCommercial-ShareAlike 4.0 International License.
# To view a copy of this license, visit
# http://creativecommons.org/licenses/by-nc-sa/4.0/
# or send a letter to
# Creative Commons, PO Box 1866, Mountain View, CA 94042, USA.
#
# CIF created using the CSD Python API on 29 September 2022
# The structure has been converted into the P1 space group
# The structure has a 3D framework
# The original CSD entry MUJKAF is in the monoclinic crystal system
# The framework has been calculated to contain at least 10.0% void space
# The void calculation uses a probe of radius 1.32A, grid spacing 0.4
#
###############################################################################

data_MUJKAF
_chemical_formula_moiety         '(C80 H60 Cd2 N28 O14)n'
_symmetry_cell_setting           triclinic
_symmetry_space_group_name_H-M   'P 1'
_symmetry_Int_Tables_number      1
_space_group_name_Hall           'P 1'
loop_
_symmetry_equiv_pos_site_id
_symmetry_equiv_pos_as_xyz
1 x,y,z
_cell_length_a                   15.136(5)
_cell_length_b                   17.265(5)
_cell_length_c                   14.239(5)
_cell_angle_alpha                90
_cell_angle_beta                 95.717(5)
_cell_angle_gamma                90
_cell_volume                     3702.47
loop_
_atom_site_label
_atom_site_type_symbol
_atom_site_fract_x
_atom_site_fract_y
_atom_site_fract_z
N1 N 0.14140(17) 0.02754(15) 0.37266(18)
N2 N 0.48806(19) 0.02819(17) 0.3689(2)
N4 N 0.5436(2) 0.1164(2) 0.4691(3)
C8 C 0.3245(2) 0.0493(2) 0.3896(3)
C11 C 0.2671(2) 0.1117(2) 0.3972(3)
H7 H 0.2893 0.1615 0.4082
C12 C 0.4205(2) 0.0651(2) 0.4083(3)
C14 C 0.5627(2) 0.0640(2) 0.4071(3)
N5 N 0.4521(2) 0.1174(2) 0.4677(3)
C15 C 0.1771(2) 0.0981(2) 0.3882(3)
H11 H 0.1390 0.1399 0.3930
C16 C 0.6552(2) 0.0482(2) 0.3885(3)
C18 C 0.7157(2) 0.1078(2) 0.3990(3)
H13 H 0.6969 0.1577 0.4115
C20 C 0.8038(2) 0.0937(2) 0.3912(3)
H15 H 0.8436 0.1348 0.3992
N7 N 0.83478(17) 0.02417(15) 0.37260(19)
Cd2 Cd 0.987318(14) 0.014910(11) 0.362382(13)
O1 O 0.00061(15) 0.90935(12) 0.49876(13)
O2 O 0.02149(15) 0.62925(11) 0.22259(13)
O3 O 0.01845(17) 0.52532(11) 0.31139(14)
C1 C 0.0195(2) 0.59697(17) 0.3020(2)
C2 C 0.0053(2) 0.77696(15) 0.44943(18)
C4 C 0.0176(2) 0.64917(16) 0.38637(19)
C5 C 0.0215(3) 0.66695(17) 0.5547(2)
C6 C 0.00822(19) 0.72779(16) 0.37355(18)
H1 H 0.0038 0.7481 0.3128
C7 C 0.0122(2) 0.74611(17) 0.5399(2)
H2 H 0.0105 0.7790 0.5914
N3 N 0.4846(2) 0.9742(2) 0.2964(3)
H3 H 0.5323 0.9613 0.2724
H4 H 0.4346 0.9538 0.2756
C9 C 0.1966(2) 0.9691(2) 0.3639(3)
H5 H 0.1728 0.9201 0.3514
C10 C 0.0253(2) 0.61886(17) 0.4766(2)
H6 H 0.0332 0.5658 0.4854
C13 C 0.2880(2) 0.9773(2) 0.3725(3)
H8 H 0.3243 0.9345 0.3668
N6 N 0.0310(3) 0.63531(17) 0.64526(18)
H9 H 0.0312 0.6651 0.6937
H10 H 0.0367 0.5861 0.6526
C17 C 0.6874(2) 0.9767(2) 0.3683(3)
H12 H 0.6489 0.9348 0.3590
C19 C 0.7766(2) 0.9669(2) 0.3618(3)
H14 H 0.7972 0.9175 0.3493
Cd3 Cd 0.012682(14) 0.514910(11) 0.137618(13)
Cd4 Cd 0.012682(14) 0.985090(11) 0.637618(13)
O5 O 0.99939(15) 0.09065(12) 0.50124(13)
O6 O 0.97851(15) 0.12925(11) 0.27741(13)
O7 O 0.98155(17) 0.02532(11) 0.18861(14)
O4 O 0.01230(16) 0.38475(11) 0.15222(13)
C3 C 0.00305(19) 0.36229(15) 0.0669(2)
N8 N 0.16522(17) 0.52417(15) 0.12740(19)
O5_2 O 0.00061(15) 0.59065(12) 0.99876(13)
O1_2 O 0.99939(15) 0.40935(12) 0.00124(13)
C1_2 C 0.9805(2) 0.09697(17) 0.1980(2)
C2_2 C 0.9947(2) 0.27696(15) 0.05057(18)
N1_2 N 0.85860(17) 0.52754(15) 0.12734(18)
N2_2 N 0.51194(19) 0.52819(17) 0.1311(2)
C4_2 C 0.9824(2) 0.14917(16) 0.11363(19)
C6_2 C 0.99178(19) 0.22779(16) 0.12645(18)
H1_2 H 0.9962 0.2481 0.1872
N3_2 N 0.5154(2) 0.4742(2) 0.2036(3)
H3_2 H 0.4677 0.4613 0.2276
H4_2 H 0.5654 0.4538 0.2244
N4_2 N 0.4564(2) 0.6164(2) 0.0309(3)
C8_2 C 0.6755(2) 0.5493(2) 0.1104(3)
C9_2 C 0.8034(2) 0.4691(2) 0.1361(3)
H5_2 H 0.8272 0.4201 0.1486
C10_2 C 0.9747(2) 0.11886(17) 0.0234(2)
H6_2 H 0.9668 0.0658 0.0146
C11_2 C 0.7329(2) 0.6117(2) 0.1028(3)
H7_2 H 0.7107 0.6615 0.0918
C12_2 C 0.5795(2) 0.5651(2) 0.0917(3)
C13_2 C 0.7120(2) 0.4773(2) 0.1275(3)
H8_2 H 0.6757 0.4345 0.1332
C14_2 C 0.4373(2) 0.5640(2) 0.0929(3)
N5_2 N 0.5479(2) 0.6174(2) 0.0323(3)
C15_2 C 0.8229(2) 0.5981(2) 0.1118(3)
H11_2 H 0.8610 0.6399 0.1070
C16_2 C 0.3448(2) 0.5482(2) 0.1115(3)
C17_2 C 0.3126(2) 0.4767(2) 0.1317(3)
H12_2 H 0.3511 0.4348 0.1410
C18_2 C 0.2843(2) 0.6078(2) 0.1010(3)
H13_2 H 0.3031 0.6577 0.0885
C19_2 C 0.2234(2) 0.4669(2) 0.1382(3)
H14_2 H 0.2028 0.4175 0.1507
C20_2 C 0.1962(2) 0.5937(2) 0.1088(3)
H15_2 H 0.1564 0.6348 0.1008
C5_2 C 0.9785(3) 0.16695(17) 0.9453(2)
C7_2 C 0.9878(2) 0.24611(17) 0.9601(2)
H2_2 H 0.9895 0.2790 0.9086
N6_2 N 0.9690(3) 0.13531(17) 0.85474(18)
H9_2 H 0.9688 0.1651 0.8063
H10_2 H 0.9633 0.0861 0.8474
Cd4_2 Cd 0.987318(14) 0.485090(11) 0.862382(13)
O6_2 O 0.02149(15) 0.87075(11) 0.72259(13)
O7_2 O 0.01845(17) 0.97468(11) 0.81139(14)
N8_2 N 0.16522(17) 0.97583(15) 0.62740(19)
O2_2 O 0.97851(15) 0.37075(11) 0.77741(13)
O3_2 O 0.98155(17) 0.47468(11) 0.68861(14)
C1_3 C 0.9805(2) 0.40303(17) 0.6980(2)
C2_3 C 0.9947(2) 0.22304(15) 0.55057(18)
C4_3 C 0.9824(2) 0.35083(16) 0.61363(19)
C5_3 C 0.9785(3) 0.33305(17) 0.4453(2)
C6_3 C 0.99178(19) 0.27221(16) 0.62645(18)
H1_3 H 0.9962 0.2519 0.6872
C7_3 C 0.9878(2) 0.25389(17) 0.4601(2)
H2_3 H 0.9895 0.2210 0.4086
N3_3 N 0.5154(2) 0.0258(2) 0.7036(3)
H3_3 H 0.4677 0.0387 0.7276
H4_3 H 0.5654 0.0462 0.7244
C9_3 C 0.8034(2) 0.0309(2) 0.6361(3)
H5_3 H 0.8272 0.0799 0.6486
C10_3 C 0.9747(2) 0.38114(17) 0.5234(2)
H6_3 H 0.9668 0.4342 0.5146
C13_3 C 0.7120(2) 0.0227(2) 0.6275(3)
H8_3 H 0.6757 0.0655 0.6332
N6_3 N 0.9690(3) 0.36469(17) 0.35474(18)
H9_3 H 0.9688 0.3349 0.3063
H10_3 H 0.9633 0.4139 0.3474
C17_3 C 0.3126(2) 0.0233(2) 0.6317(3)
H12_3 H 0.3511 0.0652 0.6410
C19_3 C 0.2234(2) 0.0331(2) 0.6382(3)
H14_3 H 0.2028 0.0825 0.6507
N1_3 N 0.85860(17) 0.97246(15) 0.62734(18)
N2_3 N 0.51194(19) 0.97181(17) 0.6311(2)
N4_3 N 0.4564(2) 0.8836(2) 0.5309(3)
C8_3 C 0.6755(2) 0.9507(2) 0.6104(3)
C11_3 C 0.7329(2) 0.8883(2) 0.6028(3)
H7_3 H 0.7107 0.8385 0.5918
C12_3 C 0.5795(2) 0.9349(2) 0.5917(3)
C14_3 C 0.4373(2) 0.9360(2) 0.5929(3)
N5_3 N 0.5479(2) 0.8826(2) 0.5323(3)
C15_3 C 0.8229(2) 0.9019(2) 0.6118(3)
H11_3 H 0.8610 0.8601 0.6070
C16_3 C 0.3448(2) 0.9518(2) 0.6115(3)
C18_3 C 0.2843(2) 0.8922(2) 0.6010(3)
H13_3 H 0.3031 0.8423 0.5885
C20_3 C 0.1962(2) 0.9063(2) 0.6088(3)
H15_3 H 0.1564 0.8652 0.6008
C5_4 C 0.0215(3) 0.83305(17) 0.0547(2)
C7_4 C 0.0122(2) 0.75389(17) 0.0399(2)
H2_4 H 0.0105 0.7210 0.0914
N6_4 N 0.0310(3) 0.86469(17) 0.14526(18)
H9_4 H 0.0312 0.8349 0.1937
H10_4 H 0.0367 0.9139 0.1526
C1_4 C 0.0195(2) 0.90303(17) 0.8020(2)
C2_4 C 0.0053(2) 0.72304(15) 0.94943(18)
N1_4 N 0.14140(17) 0.47246(15) 0.87266(18)
N2_4 N 0.48806(19) 0.47181(17) 0.8689(2)
C4_4 C 0.0176(2) 0.85083(16) 0.88637(19)
C6_4 C 0.00822(19) 0.77221(16) 0.87355(18)
H1_4 H 0.0038 0.7519 0.8128
N3_4 N 0.4846(2) 0.5258(2) 0.7964(3)
H3_4 H 0.5323 0.5387 0.7724
H4_4 H 0.4346 0.5462 0.7756
N4_4 N 0.5436(2) 0.3836(2) 0.9691(3)
C8_4 C 0.3245(2) 0.4507(2) 0.8896(3)
C9_4 C 0.1966(2) 0.5309(2) 0.8639(3)
H5_4 H 0.1728 0.5799 0.8514
C10_4 C 0.0253(2) 0.88114(17) 0.9766(2)
H6_4 H 0.0332 0.9342 0.9854
C11_4 C 0.2671(2) 0.3883(2) 0.8972(3)
H7_4 H 0.2893 0.3385 0.9082
C12_4 C 0.4205(2) 0.4349(2) 0.9083(3)
C13_4 C 0.2880(2) 0.5227(2) 0.8725(3)
H8_4 H 0.3243 0.5655 0.8668
C14_4 C 0.5627(2) 0.4360(2) 0.9071(3)
N5_4 N 0.4521(2) 0.3826(2) 0.9677(3)
C15_4 C 0.1771(2) 0.4019(2) 0.8882(3)
H11_4 H 0.1390 0.3601 0.8930
C16_4 C 0.6552(2) 0.4518(2) 0.8885(3)
C17_4 C 0.6874(2) 0.5233(2) 0.8683(3)
H12_4 H 0.6489 0.5652 0.8590
C18_4 C 0.7157(2) 0.3922(2) 0.8990(3)
H13_4 H 0.6969 0.3423 0.9115
C19_4 C 0.7766(2) 0.5331(2) 0.8618(3)
H14_4 H 0.7972 0.5825 0.8493
C20_4 C 0.8038(2) 0.4063(2) 0.8912(3)
H15_4 H 0.8436 0.3652 0.8992
N7_2 N 0.83478(17) 0.47583(15) 0.87260(19)
O4_2 O 0.98770(16) 0.61525(11) 0.84778(13)
C3_2 C 0.99695(19) 0.63771(15) 0.9331(2)
O4_3 O 0.98770(16) 0.88475(11) 0.34778(13)
C3_3 C 0.99695(19) 0.86229(15) 0.4331(2)
O4_4 O 0.01230(16) 0.11525(11) 0.65222(13)
C3_4 C 0.00305(19) 0.13771(15) 0.5669(2)
loop_
_geom_bond_atom_site_label_1
_geom_bond_atom_site_label_2
_geom_bond_site_symmetry_1
_geom_bond_site_symmetry_2
N4 C14 1_555 1_555
C8 C11 1_555 1_555
C11 H7 1_555 1_555
C12 N2 1_555 1_555
C14 N2 1_555 1_555
N5 N4 1_555 1_555
C15 N1 1_555 1_555
H11 C15 1_555 1_555
C16 C14 1_555 1_555
C18 C16 1_555 1_555
H13 C18 1_555 1_555
C20 C18 1_555 1_555
H15 C20 1_555 1_555
Cd2 N7 1_555 1_555
C8 C12 1_555 1_555
C11 C15 1_555 1_555
C12 N5 1_555 1_555
C20 N7 1_555 1_555
O2 C1 1_555 1_555
O3 C1 1_555 1_555
C1 C4 1_555 1_555
C4 C6 1_555 1_555
C5 C7 1_555 1_555
C6 C2 1_555 1_555
H1 C6 1_555 1_555
C7 C2 1_555 1_555
H2 C7 1_555 1_555
N3 H3 1_555 1_555
H4 N3 1_555 1_555
H5 C9 1_555 1_555
C10 C4 1_555 1_555
H6 C10 1_555 1_555
H8 C13 1_555 1_555
N6 C5 1_555 1_555
H9 N6 1_555 1_555
H10 N6 1_555 1_555
H12 C17 1_555 1_555
C19 C17 1_555 1_555
H14 C19 1_555 1_555
Cd3 O2 1_555 1_555
Cd4 O1 1_555 1_555
O3 Cd3 1_555 1_555
C5 C10 1_555 1_555
C9 C13 1_555 1_555
O5 Cd2 1_555 1_555
O6 Cd2 1_555 1_555
O7 Cd2 1_555 1_555
O4 Cd3 1_555 1_555
C3 O4 1_555 1_555
N8 Cd3 1_555 1_555
O6 C1_2 1_555 1_555
O7 C1_2 1_555 1_555
C1_2 C4_2 1_555 1_555
N2_2 N3_2 1_555 1_555
C4_2 C6_2 1_555 1_555
C6_2 C2_2 1_555 1_555
H1_2 C6_2 1_555 1_555
N3_2 H3_2 1_555 1_555
H4_2 N3_2 1_555 1_555
N4_2 C14_2 1_555 1_555
C8_2 C11_2 1_555 1_555
C9_2 N1_2 1_555 1_555
H5_2 C9_2 1_555 1_555
C10_2 C4_2 1_555 1_555
H6_2 C10_2 1_555 1_555
C11_2 H7_2 1_555 1_555
C12_2 N2_2 1_555 1_555
C13_2 C8_2 1_555 1_555
H8_2 C13_2 1_555 1_555
C14_2 N2_2 1_555 1_555
N5_2 N4_2 1_555 1_555
C15_2 N1_2 1_555 1_555
H11_2 C15_2 1_555 1_555
C16_2 C14_2 1_555 1_555
C17_2 C16_2 1_555 1_555
H12_2 C17_2 1_555 1_555
C18_2 C16_2 1_555 1_555
H13_2 C18_2 1_555 1_555
C19_2 C17_2 1_555 1_555
H14_2 C19_2 1_555 1_555
C20_2 C18_2 1_555 1_555
H15_2 C20_2 1_555 1_555
N8 C19_2 1_555 1_555
C8_2 C12_2 1_555 1_555
C9_2 C13_2 1_555 1_555
C11_2 C15_2 1_555 1_555
C12_2 N5_2 1_555 1_555
C20_2 N8 1_555 1_555
C5_2 C7_2 1_555 1_555
H2_2 C7_2 1_555 1_555
N6_2 C5_2 1_555 1_555
H9_2 N6_2 1_555 1_555
H10_2 N6_2 1_555 1_555
O6_2 Cd4 1_555 1_555
O7_2 Cd4 1_555 1_555
N8_2 Cd4 1_555 1_555
O2_2 C1_3 1_555 1_555
O3_2 C1_3 1_555 1_555
C1_3 C4_3 1_555 1_555
C4_3 C6_3 1_555 1_555
C5_3 C7_3 1_555 1_555
C6_3 C2_3 1_555 1_555
H1_3 C6_3 1_555 1_555
C7_3 C2_3 1_555 1_555
H2_3 C7_3 1_555 1_555
N3_3 H3_3 1_555 1_555
H4_3 N3_3 1_555 1_555
H5_3 C9_3 1_555 1_555
C10_3 C4_3 1_555 1_555
H6_3 C10_3 1_555 1_555
H8_3 C13_3 1_555 1_555
N6_3 C5_3 1_555 1_555
H9_3 N6_3 1_555 1_555
H10_3 N6_3 1_555 1_555
H12_3 C17_3 1_555 1_555
C19_3 C17_3 1_555 1_555
H14_3 C19_3 1_555 1_555
Cd4_2 O2_2 1_555 1_555
O3_2 Cd4_2 1_555 1_555
C5_3 C10_3 1_555 1_555
C9_3 C13_3 1_555 1_555
N4_3 C14_3 1_555 1_555
C8_3 C11_3 1_555 1_555
C11_3 H7_3 1_555 1_555
C12_3 N2_3 1_555 1_555
C14_3 N2_3 1_555 1_555
N5_3 N4_3 1_555 1_555
C15_3 N1_3 1_555 1_555
H11_3 C15_3 1_555 1_555
C16_3 C14_3 1_555 1_555
C18_3 C16_3 1_555 1_555
H13_3 C18_3 1_555 1_555
C20_3 C18_3 1_555 1_555
H15_3 C20_3 1_555 1_555
C8_3 C12_3 1_555 1_555
C11_3 C15_3 1_555 1_555
C12_3 N5_3 1_555 1_555
C20_3 N8_2 1_555 1_555
C5_4 C7_4 1_555 1_555
H2_4 C7_4 1_555 1_555
N6_4 C5_4 1_555 1_555
H9_4 N6_4 1_555 1_555
H10_4 N6_4 1_555 1_555
O6_2 C1_4 1_555 1_555
O7_2 C1_4 1_555 1_555
C1_4 C4_4 1_555 1_555
N2_4 N3_4 1_555 1_555
C4_4 C6_4 1_555 1_555
C6_4 C2_4 1_555 1_555
H1_4 C6_4 1_555 1_555
N3_4 H3_4 1_555 1_555
H4_4 N3_4 1_555 1_555
N4_4 C14_4 1_555 1_555
C8_4 C11_4 1_555 1_555
C9_4 N1_4 1_555 1_555
H5_4 C9_4 1_555 1_555
C10_4 C4_4 1_555 1_555
H6_4 C10_4 1_555 1_555
C11_4 H7_4 1_555 1_555
C12_4 N2_4 1_555 1_555
C13_4 C8_4 1_555 1_555
H8_4 C13_4 1_555 1_555
C14_4 N2_4 1_555 1_555
N5_4 N4_4 1_555 1_555
C15_4 N1_4 1_555 1_555
H11_4 C15_4 1_555 1_555
C16_4 C14_4 1_555 1_555
C17_4 C16_4 1_555 1_555
H12_4 C17_4 1_555 1_555
C18_4 C16_4 1_555 1_555
H13_4 C18_4 1_555 1_555
C19_4 C17_4 1_555 1_555
H14_4 C19_4 1_555 1_555
C20_4 C18_4 1_555 1_555
H15_4 C20_4 1_555 1_555
N7_2 C19_4 1_555 1_555
Cd4_2 N7_2 1_555 1_555
C8_4 C12_4 1_555 1_555
C9_4 C13_4 1_555 1_555
C11_4 C15_4 1_555 1_555
C12_4 N5_4 1_555 1_555
C20_4 N7_2 1_555 1_555
O4_2 Cd4_2 1_555 1_555
C3_2 O4_2 1_555 1_555
C3_3 O4_3 1_555 1_555
C3_4 O4_4 1_555 1_555

#END
