
###############################################################################
#
# This file contains modified crystal structure data generated from the
# MOF subset of the Cambridge Structural Database (CSD) v543 
# hosted by the Cambridge Crystallographic Data Centre (CCDC).
#
# This work is licensed under the Creative Commons
# Attribution-NonCommercial-ShareAlike 4.0 International License.
# To view a copy of this license, visit
# http://creativecommons.org/licenses/by-nc-sa/4.0/
# or send a letter to
# Creative Commons, PO Box 1866, Mountain View, CA 94042, USA.
#
# CIF created using the CSD Python API on 29 September 2022
# The structure has been converted into the P1 space group
# The structure has a 3D framework
# The original CSD entry MUJMUC is in the monoclinic crystal system
# The framework has been calculated to contain at least 10.0% void space
# The void calculation uses a probe of radius 1.32A, grid spacing 0.4
#
###############################################################################

data_MUJMUC
_chemical_formula_moiety         '(C168 H120 N16 O40 Zn7)n'
_symmetry_cell_setting           triclinic
_symmetry_space_group_name_H-M   'P 1'
_symmetry_Int_Tables_number      1
_space_group_name_Hall           'P 1'
loop_
_symmetry_equiv_pos_site_id
_symmetry_equiv_pos_as_xyz
1 x,y,z
_cell_length_a                   26.7043(8)
_cell_length_b                   8.1959(3)
_cell_length_c                   23.2327(7)
_cell_angle_alpha                90
_cell_angle_beta                 99.2700(10)
_cell_angle_gamma                90
_cell_volume                     5018.44
loop_
_atom_site_label
_atom_site_type_symbol
_atom_site_fract_x
_atom_site_fract_y
_atom_site_fract_z
Zn6 Zn 0.54051(2) 0.62170(4) 0.00182(2)
O1 O 0.51506(8) 0.2669(3) 0.96106(10)
O4 O 0.57687(9) 0.4504(3) 0.96031(10)
C1 C 0.56403(12) 0.0417(4) 0.90090(15)
H1 H 0.535342 0.006303 0.916969
C4 C 0.55655(12) 0.3136(4) 0.94762(13)
C5 C 0.58312(12) 0.1977(4) 0.91294(14)
C15 C 0.62659(13) 0.2455(5) 0.89086(16)
H9 H 0.640970 0.350002 0.900420
C19 C 0.64884(14) 0.1423(6) 0.85528(17)
H11 H 0.678186 0.175404 0.840027
Zn4 Zn 0.45949(2) 0.37830(4) 0.99818(2)
Zn1 Zn 0.54051(2) 0.37830(4) 0.50182(2)
O2 O 0.56051(9) 0.5067(3) 0.57752(10)
O3 O 0.49861(9) 0.6894(3) 0.57782(10)
N1 N 0.59549(9) 0.2056(3) 0.51763(11)
O5 O 0.65087(10) 0.8882(4) 0.80651(13)
C2 C 0.54003(12) 0.6241(4) 0.59928(14)
C6 C 0.56795(12) 0.6925(4) 0.65530(14)
C8 C 0.58952(13) 0.0753(5) 0.55042(16)
H3 H 0.560772 0.070835 0.569717
C9 C 0.55074(13) 0.8324(4) 0.67960(15)
H4 H 0.520358 0.883043 0.661119
C11 C 0.63719(12) 0.2124(4) 0.49216(16)
H5 H 0.642762 0.306373 0.470095
C12 C 0.58630(13) 0.9376(5) 0.86586(16)
H6 H 0.573304 0.830645 0.857976
C13 C 0.57732(13) 0.9000(5) 0.73073(16)
H7 H 0.565341 0.995946 0.746978
C14 C 0.67218(12) 0.0872(4) 0.49708(17)
H8 H 0.701152 0.095644 0.478300
C16 C 0.61192(14) 0.6201(5) 0.68282(16)
H10 H 0.623893 0.523956 0.666652
C17 C 0.62782(13) 0.9909(5) 0.84231(16)
C18 C 0.62122(13) 0.8249(6) 0.75722(17)
C21 C 0.63921(14) 0.6850(6) 0.73394(18)
H15 H 0.669567 0.634270 0.752454
Zn2 Zn 0.45949(2) 0.62170(4) 0.49818(2)
O7 O 0.43949(9) 0.4933(3) 0.42248(10)
O8 O 0.50139(9) 0.3106(3) 0.42218(10)
O10 O 0.34913(10) 0.1118(4) 0.19349(13)
C30 C 0.45997(12) 0.3759(4) 0.40072(14)
C33 C 0.43205(12) 0.3075(4) 0.34470(14)
C34 C 0.44926(13) 0.1676(4) 0.32040(15)
H24 H 0.479642 0.116957 0.338881
C35 C 0.41370(13) 0.0624(5) 0.13414(16)
H25 H 0.426696 0.169355 0.142024
C36 C 0.42268(13) 0.1000(5) 0.26927(16)
H26 H 0.434659 0.004054 0.253022
C38 C 0.38808(14) 0.3799(5) 0.31718(16)
H28 H 0.376107 0.476044 0.333348
C39 C 0.37218(13) 0.0091(5) 0.15769(16)
C40 C 0.37878(13) 0.1751(6) 0.24278(17)
C42 C 0.36079(14) 0.3150(6) 0.26606(18)
H30 H 0.330433 0.365730 0.247546
O11 O 0.48494(8) 0.2669(3) 0.53894(10)
O12 O 0.51506(8) 0.7331(3) 0.46106(10)
O13 O 0.42313(9) 0.4504(3) 0.53969(10)
O14 O 0.57687(9) 0.5496(3) 0.46031(10)
N5 N 0.40451(9) 0.7944(3) 0.48237(11)
C3 C 0.62336(13) 0.9470(4) 0.55743(16)
H2 H 0.617915 0.857236 0.581553
N2 N 0.73434(11) 0.8186(4) 0.49924(14)
C7 C 0.66515(12) 0.9490(4) 0.52937(15)
C10 C 0.69996(12) 0.8059(4) 0.53143(16)
C20 C 0.69118(15) 0.6628(5) 0.5685(2)
H12 H 0.716655 0.578615 0.565317
H13 H 0.657211 0.618362 0.555253
H14 H 0.693932 0.697653 0.609244
N3 N 0.90451(9) 0.2944(3) 0.48237(11)
C22 C 0.87664(13) 0.5530(4) 0.44257(16)
H16 H 0.882085 0.642764 0.418447
N4 N 0.76566(11) 0.6814(4) 0.50076(14)
C23 C 0.83485(12) 0.5510(4) 0.47063(15)
C24 C 0.91048(13) 0.4247(5) 0.44958(16)
H17 H 0.939228 0.429165 0.430283
C25 C 0.80004(12) 0.6941(4) 0.46857(16)
C26 C 0.86281(12) 0.2876(4) 0.50784(16)
H18 H 0.857238 0.193627 0.529905
C27 C 0.82782(12) 0.4128(4) 0.50292(17)
H19 H 0.798848 0.404356 0.521700
C28 C 0.80882(15) 0.8372(5) 0.4315(2)
H20 H 0.783345 0.921385 0.434683
H21 H 0.842789 0.881638 0.444747
H22 H 0.806068 0.802347 0.390756
O6 O 0.48494(8) 0.7331(3) 0.03894(10)
O9 O 0.42313(9) 0.5496(3) 0.03969(10)
C29 C 0.43597(12) 0.9583(4) 0.09910(15)
H23 H 0.464658 0.993697 0.083031
C31 C 0.44345(12) 0.6864(4) 0.05238(13)
C32 C 0.41688(12) 0.8023(4) 0.08706(14)
C37 C 0.37341(13) 0.7545(5) 0.10914(16)
H27 H 0.359030 0.649998 0.099580
C41 C 0.35116(14) 0.8577(6) 0.14472(17)
H29 H 0.321814 0.824596 0.159973
Zn7 Zn 0.95949(2) 0.12170(4) 0.49818(2)
C1_2 C 0.43597(12) 0.0417(4) 0.59910(15)
H1_2 H 0.464658 0.006303 0.583031
C4_2 C 0.44345(12) 0.3136(4) 0.55238(13)
C5_2 C 0.41688(12) 0.1977(4) 0.58706(14)
C15_2 C 0.37341(13) 0.2455(5) 0.60914(16)
H9_2 H 0.359030 0.350002 0.599580
C19_2 C 0.35116(14) 0.1423(6) 0.64472(17)
H11_2 H 0.321814 0.175404 0.659973
C11_2 C 0.36281(12) 0.2124(4) 0.00784(16)
H5_2 H 0.357238 0.306373 0.029905
C14_2 C 0.32782(12) 0.0872(4) 0.00292(17)
H8_2 H 0.298848 0.095644 0.021700
O7_2 O 0.56051(9) 0.4933(3) 0.07752(10)
O8_2 O 0.49861(9) 0.3106(3) 0.07782(10)
O10_2 O 0.65087(10) 0.1118(4) 0.30651(13)
C30_2 C 0.54003(12) 0.3759(4) 0.09928(14)
C33_2 C 0.56795(12) 0.3075(4) 0.15530(14)
C34_2 C 0.55074(13) 0.1676(4) 0.17960(15)
H24_2 H 0.520358 0.116957 0.161119
C35_2 C 0.58630(13) 0.0624(5) 0.36586(16)
H25_2 H 0.573304 0.169355 0.357976
C36_2 C 0.57732(13) 0.1000(5) 0.23073(16)
H26_2 H 0.565341 0.004054 0.246978
C38_2 C 0.61192(14) 0.3799(5) 0.18282(16)
H28_2 H 0.623893 0.476044 0.166652
C39_2 C 0.62782(13) 0.0091(5) 0.34231(16)
C40_2 C 0.62122(13) 0.1751(6) 0.25722(17)
C42_2 C 0.63921(14) 0.3150(6) 0.23394(18)
H30_2 H 0.669567 0.365730 0.252454
N5_2 N 0.59549(9) 0.7944(3) 0.01763(11)
O2_2 O 0.43949(9) 0.5067(3) 0.92248(10)
O3_2 O 0.50139(9) 0.6894(3) 0.92218(10)
N1_2 N 0.40451(9) 0.2056(3) 0.98237(11)
O5_2 O 0.34913(10) 0.8882(4) 0.69349(13)
C2_2 C 0.45997(12) 0.6241(4) 0.90072(14)
C6_2 C 0.43205(12) 0.6925(4) 0.84470(14)
C8_2 C 0.41048(13) 0.0753(5) 0.94958(16)
H3_2 H 0.439228 0.070835 0.930283
C9_2 C 0.44926(13) 0.8324(4) 0.82040(15)
H4_2 H 0.479642 0.883043 0.838881
C12_2 C 0.41370(13) 0.9376(5) 0.63414(16)
H6_2 H 0.426696 0.830645 0.642024
C13_2 C 0.42268(13) 0.9000(5) 0.76927(16)
H7_2 H 0.434659 0.995946 0.753022
C16_2 C 0.38808(14) 0.6201(5) 0.81718(16)
H10_2 H 0.376107 0.523956 0.833348
C17_2 C 0.37218(13) 0.9909(5) 0.65769(16)
C18_2 C 0.37878(13) 0.8249(6) 0.74278(17)
C21_2 C 0.36079(14) 0.6850(6) 0.76606(18)
H15_2 H 0.330433 0.634270 0.747546
N2_2 N 0.26566(11) 0.8186(4) 0.00076(14)
N3_2 N 0.09549(9) 0.2944(3) 0.01763(11)
C22_2 C 0.12336(13) 0.5530(4) 0.05743(16)
H16_2 H 0.117915 0.642764 0.081553
C23_2 C 0.16515(12) 0.5510(4) 0.02937(15)
C24_2 C 0.08952(13) 0.4247(5) 0.05042(16)
H17_2 H 0.060772 0.429165 0.069717
C25_2 C 0.19996(12) 0.6941(4) 0.03143(16)
C28_2 C 0.19118(15) 0.8372(5) 0.0685(2)
H20_2 H 0.216655 0.921385 0.065317
H21_2 H 0.157211 0.881638 0.055253
H22_2 H 0.193932 0.802347 0.109244
C29_2 C 0.56403(12) 0.9583(4) 0.40090(15)
H23_2 H 0.535342 0.993697 0.416969
C31_2 C 0.55655(12) 0.6864(4) 0.44762(13)
C32_2 C 0.58312(12) 0.8023(4) 0.41294(14)
C37_2 C 0.62659(13) 0.7545(5) 0.39086(16)
H27_2 H 0.640970 0.649998 0.400420
C41_2 C 0.64884(14) 0.8577(6) 0.35528(17)
H29_2 H 0.678186 0.824596 0.340027
Zn7_2 Zn 0.04051(2) 0.12170(4) 0.00182(2)
C3_2 C 0.37664(13) 0.9470(4) 0.94257(16)
H2_2 H 0.382085 0.857236 0.918447
C7_2 C 0.33485(12) 0.9490(4) 0.97063(15)
C10_2 C 0.30004(12) 0.8059(4) 0.96857(16)
C20_2 C 0.30882(15) 0.6628(5) 0.9315(2)
H12_2 H 0.283345 0.578615 0.934683
H13_2 H 0.342789 0.618362 0.944747
H14_2 H 0.306068 0.697653 0.890756
N4_2 N 0.23434(11) 0.6814(4) 0.99924(14)
C26_2 C 0.13719(12) 0.2876(4) 0.99216(16)
H18_2 H 0.142762 0.193627 0.970095
C27_2 C 0.17218(12) 0.4128(4) 0.99708(17)
H19_2 H 0.201152 0.404356 0.978300
Zn1_2 Zn 0.04051(2) 0.87830(4) 0.50182(2)
N1_3 N 0.09549(9) 0.7056(3) 0.51763(11)
C3_3 C 0.12336(13) 0.4470(4) 0.55743(16)
H2_3 H 0.117915 0.357236 0.581553
N2_3 N 0.23434(11) 0.3186(4) 0.49924(14)
C7_3 C 0.16515(12) 0.4490(4) 0.52937(15)
C8_3 C 0.08952(13) 0.5753(5) 0.55042(16)
H3_3 H 0.060772 0.570835 0.569717
C10_3 C 0.19996(12) 0.3059(4) 0.53143(16)
C11_3 C 0.13719(12) 0.7124(4) 0.49216(16)
H5_3 H 0.142762 0.806373 0.470095
C14_3 C 0.17218(12) 0.5872(4) 0.49708(17)
H8_3 H 0.201152 0.595644 0.478300
C20_3 C 0.19118(15) 0.1628(5) 0.5685(2)
H12_3 H 0.216655 0.078615 0.565317
H13_3 H 0.157211 0.118362 0.555253
H14_3 H 0.193932 0.197653 0.609244
C22_3 C 0.37664(13) 0.0530(4) 0.44257(16)
H16_3 H 0.382085 0.142764 0.418447
N4_3 N 0.26566(11) 0.1814(4) 0.50076(14)
C23_3 C 0.33485(12) 0.0510(4) 0.47063(15)
C25_3 C 0.30004(12) 0.1941(4) 0.46857(16)
C28_3 C 0.30882(15) 0.3372(5) 0.4315(2)
H20_3 H 0.283345 0.421385 0.434683
H21_3 H 0.342789 0.381638 0.444747
H22_3 H 0.306068 0.302347 0.390756
O8_3 O 0.00139(9) 0.8106(3) 0.42218(10)
C24_3 C 0.41048(13) 0.9247(5) 0.44958(16)
H17_3 H 0.439228 0.929165 0.430283
C26_3 C 0.36281(12) 0.7876(4) 0.50784(16)
H18_3 H 0.357238 0.693627 0.529905
C27_3 C 0.32782(12) 0.9128(4) 0.50292(17)
H19_3 H 0.298848 0.904356 0.521700
O3_3 O 0.99861(9) 0.1894(3) 0.57782(10)
Zn4_2 Zn 0.95949(2) 0.87830(4) 0.99818(2)
O3_4 O 0.00139(9) 0.1894(3) 0.92218(10)
N2_4 N 0.76566(11) 0.3186(4) 0.00076(14)
C11_4 C 0.86281(12) 0.7124(4) 0.00784(16)
H5_4 H 0.857238 0.806373 0.029905
C14_4 C 0.82782(12) 0.5872(4) 0.00292(17)
H8_4 H 0.798848 0.595644 0.021700
C22_4 C 0.62336(13) 0.0530(4) 0.05743(16)
H16_4 H 0.617915 0.142764 0.081553
C23_4 C 0.66515(12) 0.0510(4) 0.02937(15)
C25_4 C 0.69996(12) 0.1941(4) 0.03143(16)
C28_4 C 0.69118(15) 0.3372(5) 0.0685(2)
H20_4 H 0.716655 0.421385 0.065317
H21_4 H 0.657211 0.381638 0.055253
H22_4 H 0.693932 0.302347 0.109244
O8_4 O 0.99861(9) 0.8106(3) 0.07782(10)
N1_4 N 0.90451(9) 0.7056(3) 0.98237(11)
C3_4 C 0.87664(13) 0.4470(4) 0.94257(16)
H2_4 H 0.882085 0.357236 0.918447
C7_4 C 0.83485(12) 0.4490(4) 0.97063(15)
C8_4 C 0.91048(13) 0.5753(5) 0.94958(16)
H3_4 H 0.939228 0.570835 0.930283
C10_4 C 0.80004(12) 0.3059(4) 0.96857(16)
C20_4 C 0.80882(15) 0.1628(5) 0.9315(2)
H12_4 H 0.783345 0.078615 0.934683
H13_4 H 0.842789 0.118362 0.944747
H14_4 H 0.806068 0.197653 0.890756
N4_4 N 0.73434(11) 0.1814(4) 0.99924(14)
C24_4 C 0.58952(13) 0.9247(5) 0.05042(16)
H17_4 H 0.560772 0.929165 0.069717
C26_4 C 0.63719(12) 0.7876(4) 0.99216(16)
H18_4 H 0.642762 0.693627 0.970095
C27_4 C 0.67218(12) 0.9128(4) 0.99708(17)
H19_4 H 0.701152 0.904356 0.978300
O1_2 O 0.01506(8) 0.7669(3) 0.96106(10)
O2_3 O 0.06051(9) 0.0067(3) 0.57752(10)
O4_2 O 0.07687(9) 0.9504(3) 0.96031(10)
O5_3 O 0.15087(10) 0.3882(4) 0.80651(13)
C1_3 C 0.06403(12) 0.5417(4) 0.90090(15)
H1_3 H 0.035342 0.506303 0.916969
C2_3 C 0.04003(12) 0.1241(4) 0.59928(14)
C4_3 C 0.05655(12) 0.8136(4) 0.94762(13)
C5_3 C 0.08312(12) 0.6977(4) 0.91294(14)
C6_3 C 0.06795(12) 0.1925(4) 0.65530(14)
C9_3 C 0.05074(13) 0.3324(4) 0.67960(15)
H4_3 H 0.020358 0.383043 0.661119
C12_3 C 0.08630(13) 0.4376(5) 0.86586(16)
H6_3 H 0.073304 0.330645 0.857976
C13_3 C 0.07732(13) 0.4000(5) 0.73073(16)
H7_3 H 0.065341 0.495946 0.746978
C15_3 C 0.12659(13) 0.7455(5) 0.89086(16)
H9_3 H 0.140970 0.850002 0.900420
C16_3 C 0.11192(14) 0.1201(5) 0.68282(16)
H10_3 H 0.123893 0.023956 0.666652
C17_3 C 0.12782(13) 0.4909(5) 0.84231(16)
C18_3 C 0.12122(13) 0.3249(6) 0.75722(17)
C19_3 C 0.14884(14) 0.6423(6) 0.85528(17)
H11_3 H 0.178186 0.675404 0.840027
C21_3 C 0.13921(14) 0.1850(6) 0.73394(18)
H15_3 H 0.169567 0.134270 0.752454
O12_2 O 0.01506(8) 0.2331(3) 0.46106(10)
O14_2 O 0.07687(9) 0.0496(3) 0.46031(10)
O7_3 O 0.06051(9) 0.9933(3) 0.07752(10)
O10_3 O 0.15087(10) 0.6118(4) 0.30651(13)
C29_3 C 0.06403(12) 0.4583(4) 0.40090(15)
H23_3 H 0.035342 0.493697 0.416969
C30_3 C 0.04003(12) 0.8759(4) 0.09928(14)
C31_3 C 0.05655(12) 0.1864(4) 0.44762(13)
C32_3 C 0.08312(12) 0.3023(4) 0.41294(14)
C33_3 C 0.06795(12) 0.8075(4) 0.15530(14)
C34_3 C 0.05074(13) 0.6676(4) 0.17960(15)
H24_3 H 0.020358 0.616957 0.161119
C35_3 C 0.08630(13) 0.5624(5) 0.36586(16)
H25_3 H 0.073304 0.669355 0.357976
C36_3 C 0.07732(13) 0.6000(5) 0.23073(16)
H26_3 H 0.065341 0.504054 0.246978
C37_3 C 0.12659(13) 0.2545(5) 0.39086(16)
H27_3 H 0.140970 0.149998 0.400420
C38_3 C 0.11192(14) 0.8799(5) 0.18282(16)
H28_3 H 0.123893 0.976044 0.166652
C39_3 C 0.12782(13) 0.5091(5) 0.34231(16)
C40_3 C 0.12122(13) 0.6751(6) 0.25722(17)
C41_3 C 0.14884(14) 0.3577(6) 0.35528(17)
H29_3 H 0.178186 0.324596 0.340027
C42_3 C 0.13921(14) 0.8150(6) 0.23394(18)
H30_3 H 0.169567 0.865730 0.252454
O6_2 O 0.98494(8) 0.2331(3) 0.03894(10)
O7_4 O 0.93949(9) 0.9933(3) 0.42248(10)
O9_2 O 0.92313(9) 0.0496(3) 0.03969(10)
O10_4 O 0.84913(10) 0.6118(4) 0.19349(13)
C29_4 C 0.93597(12) 0.4583(4) 0.09910(15)
H23_4 H 0.964658 0.493697 0.083031
C30_4 C 0.95997(12) 0.8759(4) 0.40072(14)
C31_4 C 0.94345(12) 0.1864(4) 0.05238(13)
C32_4 C 0.91688(12) 0.3023(4) 0.08706(14)
C33_4 C 0.93205(12) 0.8075(4) 0.34470(14)
C34_4 C 0.94926(13) 0.6676(4) 0.32040(15)
H24_4 H 0.979642 0.616957 0.338881
C35_4 C 0.91370(13) 0.5624(5) 0.13414(16)
H25_4 H 0.926696 0.669355 0.142024
C36_4 C 0.92268(13) 0.6000(5) 0.26927(16)
H26_4 H 0.934659 0.504054 0.253022
C37_4 C 0.87341(13) 0.2545(5) 0.10914(16)
H27_4 H 0.859030 0.149998 0.099580
C38_4 C 0.88808(14) 0.8799(5) 0.31718(16)
H28_4 H 0.876107 0.976044 0.333348
C39_4 C 0.87218(13) 0.5091(5) 0.15769(16)
C40_4 C 0.87878(13) 0.6751(6) 0.24278(17)
C41_4 C 0.85116(14) 0.3577(6) 0.14472(17)
H29_4 H 0.821814 0.324596 0.159973
C42_4 C 0.86079(14) 0.8150(6) 0.26606(18)
H30_4 H 0.830433 0.865730 0.247546
O11_2 O 0.98494(8) 0.7669(3) 0.53894(10)
O13_2 O 0.92313(9) 0.9504(3) 0.53969(10)
O2_4 O 0.93949(9) 0.0067(3) 0.92248(10)
O5_4 O 0.84913(10) 0.3882(4) 0.69349(13)
C1_4 C 0.93597(12) 0.5417(4) 0.59910(15)
H1_4 H 0.964658 0.506303 0.583031
C2_4 C 0.95997(12) 0.1241(4) 0.90072(14)
C4_4 C 0.94345(12) 0.8136(4) 0.55238(13)
C5_4 C 0.91688(12) 0.6977(4) 0.58706(14)
C6_4 C 0.93205(12) 0.1925(4) 0.84470(14)
C9_4 C 0.94926(13) 0.3324(4) 0.82040(15)
H4_4 H 0.979642 0.383043 0.838881
C12_4 C 0.91370(13) 0.4376(5) 0.63414(16)
H6_4 H 0.926696 0.330645 0.642024
C13_4 C 0.92268(13) 0.4000(5) 0.76927(16)
H7_4 H 0.934659 0.495946 0.753022
C15_4 C 0.87341(13) 0.7455(5) 0.60914(16)
H9_4 H 0.859030 0.850002 0.599580
C16_4 C 0.88808(14) 0.1201(5) 0.81718(16)
H10_4 H 0.876107 0.023956 0.833348
C17_4 C 0.87218(13) 0.4909(5) 0.65769(16)
C18_4 C 0.87878(13) 0.3249(6) 0.74278(17)
C19_4 C 0.85116(14) 0.6423(6) 0.64472(17)
H11_4 H 0.821814 0.675404 0.659973
C21_4 C 0.86079(14) 0.1850(6) 0.76606(18)
H15_4 H 0.830433 0.134270 0.747546
loop_
_geom_bond_atom_site_label_1
_geom_bond_atom_site_label_2
_geom_bond_site_symmetry_1
_geom_bond_site_symmetry_2
O1 C4 1_555 1_555
O4 C4 1_555 1_555
C1 H1 1_555 1_555
C4 C5 1_555 1_555
C5 C1 1_555 1_555
C15 C5 1_555 1_555
H9 C15 1_555 1_555
C19 C15 1_555 1_555
H11 C19 1_555 1_555
Zn4 O1 1_555 1_555
Zn1 O2 1_555 1_555
O2 C2 1_555 1_555
O3 C2 1_555 1_555
N1 Zn1 1_555 1_555
O5 C17 1_555 1_555
C2 C6 1_555 1_555
C6 C9 1_555 1_555
C8 N1 1_555 1_555
H3 C8 1_555 1_555
C9 H4 1_555 1_555
C11 N1 1_555 1_555
H5 C11 1_555 1_555
H6 C12 1_555 1_555
C13 C9 1_555 1_555
H7 C13 1_555 1_555
H8 C14 1_555 1_555
C16 C6 1_555 1_555
H10 C16 1_555 1_555
C17 C12 1_555 1_555
C18 O5 1_555 1_555
C21 C16 1_555 1_555
H15 C21 1_555 1_555
Zn2 O3 1_555 1_555
O7 Zn2 1_555 1_555
O8 Zn1 1_555 1_555
O10 C39 1_555 1_555
C30 O7 1_555 1_555
C33 C30 1_555 1_555
C34 C33 1_555 1_555
H24 C34 1_555 1_555
H25 C35 1_555 1_555
C36 C34 1_555 1_555
H26 C36 1_555 1_555
C38 C33 1_555 1_555
H28 C38 1_555 1_555
C39 C35 1_555 1_555
C40 O10 1_555 1_555
C42 C38 1_555 1_555
H30 C42 1_555 1_555
O11 Zn1 1_555 1_555
O12 Zn2 1_555 1_555
O13 Zn2 1_555 1_555
O14 Zn1 1_555 1_555
N5 Zn2 1_555 1_555
C11 C14 1_555 1_555
C13 C18 1_555 1_555
C18 C21 1_555 1_555
O8 C30 1_555 1_555
C36 C40 1_555 1_555
C40 C42 1_555 1_555
C3 H2 1_555 1_555
N2 C10 1_555 1_555
C7 C3 1_555 1_555
C10 C7 1_555 1_555
C20 C10 1_555 1_555
H12 C20 1_555 1_555
H13 C20 1_555 1_555
H14 C20 1_555 1_555
N3 C24 1_555 1_555
C22 H16 1_555 1_555
N4 N2 1_555 1_555
C23 C22 1_555 1_555
C24 C22 1_555 1_555
H17 C24 1_555 1_555
C25 N4 1_555 1_555
C26 N3 1_555 1_555
H18 C26 1_555 1_555
C27 C23 1_555 1_555
H19 C27 1_555 1_555
C28 C25 1_555 1_555
H20 C28 1_555 1_555
H21 C28 1_555 1_555
H22 C28 1_555 1_555
O6 C31 1_555 1_555
O9 C31 1_555 1_555
C29 H23 1_555 1_555
C31 C32 1_555 1_555
C32 C29 1_555 1_555
C37 C32 1_555 1_555
H27 C37 1_555 1_555
C41 C37 1_555 1_555
H29 C41 1_555 1_555
Zn6 O6 1_555 1_555
Zn7 N3 1_555 1_555
C23 C25 1_555 1_555
C26 C27 1_555 1_555
O11 C4_2 1_555 1_555
O13 C4_2 1_555 1_555
C1_2 H1_2 1_555 1_555
C4_2 C5_2 1_555 1_555
C5_2 C1_2 1_555 1_555
C15_2 C5_2 1_555 1_555
H9_2 C15_2 1_555 1_555
C19_2 C15_2 1_555 1_555
H11_2 C19_2 1_555 1_555
H5_2 C11_2 1_555 1_555
H8_2 C14_2 1_555 1_555
O7_2 Zn6 1_555 1_555
O10_2 C39_2 1_555 1_555
C30_2 O7_2 1_555 1_555
C33_2 C30_2 1_555 1_555
C34_2 C33_2 1_555 1_555
H24_2 C34_2 1_555 1_555
H25_2 C35_2 1_555 1_555
C36_2 C34_2 1_555 1_555
H26_2 C36_2 1_555 1_555
C38_2 C33_2 1_555 1_555
H28_2 C38_2 1_555 1_555
C39_2 C35_2 1_555 1_555
C40_2 O10_2 1_555 1_555
C42_2 C38_2 1_555 1_555
H30_2 C42_2 1_555 1_555
N5_2 Zn6 1_555 1_555
C11_2 C14_2 1_555 1_555
O8_2 C30_2 1_555 1_555
C36_2 C40_2 1_555 1_555
C40_2 C42_2 1_555 1_555
Zn4 O2_2 1_555 1_555
O2_2 C2_2 1_555 1_555
O3_2 C2_2 1_555 1_555
N1_2 Zn4 1_555 1_555
O5_2 C17_2 1_555 1_555
C2_2 C6_2 1_555 1_555
C6_2 C9_2 1_555 1_555
C8_2 N1_2 1_555 1_555
H3_2 C8_2 1_555 1_555
C9_2 H4_2 1_555 1_555
H6_2 C12_2 1_555 1_555
C13_2 C9_2 1_555 1_555
H7_2 C13_2 1_555 1_555
C16_2 C6_2 1_555 1_555
H10_2 C16_2 1_555 1_555
C17_2 C12_2 1_555 1_555
C18_2 O5_2 1_555 1_555
C21_2 C16_2 1_555 1_555
H15_2 C21_2 1_555 1_555
C13_2 C18_2 1_555 1_555
C18_2 C21_2 1_555 1_555
N3_2 C24_2 1_555 1_555
C22_2 H16_2 1_555 1_555
C23_2 C22_2 1_555 1_555
C24_2 C22_2 1_555 1_555
H17_2 C24_2 1_555 1_555
C28_2 C25_2 1_555 1_555
H20_2 C28_2 1_555 1_555
H21_2 C28_2 1_555 1_555
H22_2 C28_2 1_555 1_555
O12 C31_2 1_555 1_555
O14 C31_2 1_555 1_555
C29_2 H23_2 1_555 1_555
C31_2 C32_2 1_555 1_555
C32_2 C29_2 1_555 1_555
C37_2 C32_2 1_555 1_555
H27_2 C37_2 1_555 1_555
C41_2 C37_2 1_555 1_555
H29_2 C41_2 1_555 1_555
Zn7_2 N3_2 1_555 1_555
C23_2 C25_2 1_555 1_555
C3_2 H2_2 1_555 1_555
C7_2 C3_2 1_555 1_555
C10_2 C7_2 1_555 1_555
C20_2 C10_2 1_555 1_555
H12_2 C20_2 1_555 1_555
H13_2 C20_2 1_555 1_555
H14_2 C20_2 1_555 1_555
H18_2 C26_2 1_555 1_555
H19_2 C27_2 1_555 1_555
C26_2 C27_2 1_555 1_555
N1_3 Zn1_2 1_555 1_555
C3_3 H2_3 1_555 1_555
N2_3 C10_3 1_555 1_555
C7_3 C3_3 1_555 1_555
C8_3 N1_3 1_555 1_555
H3_3 C8_3 1_555 1_555
C10_3 C7_3 1_555 1_555
C11_3 N1_3 1_555 1_555
H5_3 C11_3 1_555 1_555
C14_3 C7_3 1_555 1_555
H8_3 C14_3 1_555 1_555
C20_3 C10_3 1_555 1_555
H12_3 C20_3 1_555 1_555
H13_3 C20_3 1_555 1_555
H14_3 C20_3 1_555 1_555
C22_3 H16_3 1_555 1_555
N4_3 N2_3 1_555 1_555
C23_3 C22_3 1_555 1_555
C25_3 N4_3 1_555 1_555
C28_3 C25_3 1_555 1_555
H20_3 C28_3 1_555 1_555
H21_3 C28_3 1_555 1_555
H22_3 C28_3 1_555 1_555
O8_3 Zn1_2 1_555 1_555
C3_3 C8_3 1_555 1_555
C11_3 C14_3 1_555 1_555
C23_3 C25_3 1_555 1_555
N5 C24_3 1_555 1_555
H17_3 C24_3 1_555 1_555
C26_3 N5 1_555 1_555
H18_3 C26_3 1_555 1_555
H19_3 C27_3 1_555 1_555
C26_3 C27_3 1_555 1_555
Zn7 O3_3 1_555 1_555
H5_4 C11_4 1_555 1_555
H8_4 C14_4 1_555 1_555
C22_4 H16_4 1_555 1_555
C23_4 C22_4 1_555 1_555
C28_4 C25_4 1_555 1_555
H20_4 C28_4 1_555 1_555
H21_4 C28_4 1_555 1_555
H22_4 C28_4 1_555 1_555
C11_4 C14_4 1_555 1_555
C23_4 C25_4 1_555 1_555
N1_4 Zn4_2 1_555 1_555
C3_4 H2_4 1_555 1_555
C7_4 C3_4 1_555 1_555
C8_4 N1_4 1_555 1_555
H3_4 C8_4 1_555 1_555
C10_4 C7_4 1_555 1_555
C20_4 C10_4 1_555 1_555
H12_4 C20_4 1_555 1_555
H13_4 C20_4 1_555 1_555
H14_4 C20_4 1_555 1_555
C3_4 C8_4 1_555 1_555
N5_2 C24_4 1_555 1_555
H17_4 C24_4 1_555 1_555
H18_4 C26_4 1_555 1_555
H19_4 C27_4 1_555 1_555
C26_4 C27_4 1_555 1_555
O1_2 C4_3 1_555 1_555
O2_3 C2_3 1_555 1_555
O4_2 C4_3 1_555 1_555
O5_3 C17_3 1_555 1_555
C1_3 H1_3 1_555 1_555
C2_3 C6_3 1_555 1_555
C4_3 C5_3 1_555 1_555
C5_3 C1_3 1_555 1_555
C6_3 C9_3 1_555 1_555
C9_3 H4_3 1_555 1_555
C12_3 C1_3 1_555 1_555
H6_3 C12_3 1_555 1_555
C13_3 C9_3 1_555 1_555
H7_3 C13_3 1_555 1_555
C15_3 C5_3 1_555 1_555
H9_3 C15_3 1_555 1_555
C16_3 C6_3 1_555 1_555
H10_3 C16_3 1_555 1_555
C17_3 C12_3 1_555 1_555
C18_3 O5_3 1_555 1_555
C19_3 C15_3 1_555 1_555
H11_3 C19_3 1_555 1_555
C21_3 C16_3 1_555 1_555
H15_3 C21_3 1_555 1_555
C13_3 C18_3 1_555 1_555
C17_3 C19_3 1_555 1_555
C18_3 C21_3 1_555 1_555
O12_2 C31_3 1_555 1_555
O14_2 C31_3 1_555 1_555
O10_3 C39_3 1_555 1_555
C29_3 H23_3 1_555 1_555
C30_3 O7_3 1_555 1_555
C31_3 C32_3 1_555 1_555
C32_3 C29_3 1_555 1_555
C33_3 C30_3 1_555 1_555
C34_3 C33_3 1_555 1_555
H24_3 C34_3 1_555 1_555
C35_3 C29_3 1_555 1_555
H25_3 C35_3 1_555 1_555
C36_3 C34_3 1_555 1_555
H26_3 C36_3 1_555 1_555
C37_3 C32_3 1_555 1_555
H27_3 C37_3 1_555 1_555
C38_3 C33_3 1_555 1_555
H28_3 C38_3 1_555 1_555
C39_3 C35_3 1_555 1_555
C40_3 O10_3 1_555 1_555
C41_3 C37_3 1_555 1_555
H29_3 C41_3 1_555 1_555
C42_3 C38_3 1_555 1_555
H30_3 C42_3 1_555 1_555
C36_3 C40_3 1_555 1_555
C39_3 C41_3 1_555 1_555
C40_3 C42_3 1_555 1_555
O6_2 C31_4 1_555 1_555
O9_2 C31_4 1_555 1_555
O10_4 C39_4 1_555 1_555
C29_4 H23_4 1_555 1_555
C30_4 O7_4 1_555 1_555
C31_4 C32_4 1_555 1_555
C32_4 C29_4 1_555 1_555
C33_4 C30_4 1_555 1_555
C34_4 C33_4 1_555 1_555
H24_4 C34_4 1_555 1_555
C35_4 C29_4 1_555 1_555
H25_4 C35_4 1_555 1_555
C36_4 C34_4 1_555 1_555
H26_4 C36_4 1_555 1_555
C37_4 C32_4 1_555 1_555
H27_4 C37_4 1_555 1_555
C38_4 C33_4 1_555 1_555
H28_4 C38_4 1_555 1_555
C39_4 C35_4 1_555 1_555
C40_4 O10_4 1_555 1_555
C41_4 C37_4 1_555 1_555
H29_4 C41_4 1_555 1_555
C42_4 C38_4 1_555 1_555
H30_4 C42_4 1_555 1_555
C36_4 C40_4 1_555 1_555
C39_4 C41_4 1_555 1_555
C40_4 C42_4 1_555 1_555
O11_2 C4_4 1_555 1_555
O2_4 C2_4 1_555 1_555
O13_2 C4_4 1_555 1_555
O5_4 C17_4 1_555 1_555
C1_4 H1_4 1_555 1_555
C2_4 C6_4 1_555 1_555
C4_4 C5_4 1_555 1_555
C5_4 C1_4 1_555 1_555
C6_4 C9_4 1_555 1_555
C9_4 H4_4 1_555 1_555
C12_4 C1_4 1_555 1_555
H6_4 C12_4 1_555 1_555
C13_4 C9_4 1_555 1_555
H7_4 C13_4 1_555 1_555
C15_4 C5_4 1_555 1_555
H9_4 C15_4 1_555 1_555
C16_4 C6_4 1_555 1_555
H10_4 C16_4 1_555 1_555
C17_4 C12_4 1_555 1_555
C18_4 O5_4 1_555 1_555
C19_4 C15_4 1_555 1_555
H11_4 C19_4 1_555 1_555
C21_4 C16_4 1_555 1_555
H15_4 C21_4 1_555 1_555
C13_4 C18_4 1_555 1_555
C17_4 C19_4 1_555 1_555
C18_4 C21_4 1_555 1_555

#END
