
###############################################################################
#
# This file contains modified crystal structure data generated from the
# MOF subset of the Cambridge Structural Database (CSD) v543 
# hosted by the Cambridge Crystallographic Data Centre (CCDC).
#
# This work is licensed under the Creative Commons
# Attribution-NonCommercial-ShareAlike 4.0 International License.
# To view a copy of this license, visit
# http://creativecommons.org/licenses/by-nc-sa/4.0/
# or send a letter to
# Creative Commons, PO Box 1866, Mountain View, CA 94042, USA.
#
# CIF created using the CSD Python API on 29 September 2022
# The structure has been converted into the P1 space group
# The structure has a 3D framework
# The original CSD entry MUJNAJ is in the monoclinic crystal system
# The framework has been calculated to contain at least 10.0% void space
# The void calculation uses a probe of radius 1.32A, grid spacing 0.4
#
###############################################################################

data_MUJNAJ
_chemical_formula_moiety         '(C168 H120 N16 O40 Zn8)n'
_symmetry_cell_setting           triclinic
_symmetry_space_group_name_H-M   'P 1'
_symmetry_Int_Tables_number      1
_space_group_name_Hall           'P 1'
loop_
_symmetry_equiv_pos_site_id
_symmetry_equiv_pos_as_xyz
1 x,y,z
_cell_length_a                   13.6658(7)
_cell_length_b                   24.8585(15)
_cell_length_c                   16.4224(9)
_cell_angle_alpha                90
_cell_angle_beta                 105.467(2)
_cell_angle_gamma                90
_cell_volume                     5376.83
loop_
_atom_site_label
_atom_site_type_symbol
_atom_site_fract_x
_atom_site_fract_y
_atom_site_fract_z
N2 N 0.1368(3) 0.24669(18) 0.1259(3)
C1 C 0.1635(4) 0.2191(2) 0.0655(3)
H1 H 0.231508 0.206686 0.076102
C15 C 0.0402(4) 0.2647(2) 0.1097(4)
H5 H 0.020340 0.284229 0.152342
Zn4 Zn 0.24515(4) 0.26993(2) 0.23741(4)
Zn1 Zn 0.38538(4) 0.23957(2) 0.42398(4)
O1 O 0.1717(3) 0.23206(15) 0.3131(2)
O3 O 0.6513(3) 0.71467(15) 0.2711(2)
O4 O 0.2718(3) 0.19370(16) 0.4288(2)
O6 O 0.3102(3) 0.31815(16) 0.4648(2)
O7 O 0.5430(3) 0.69769(17) 0.1455(2)
O8 O 0.3818(3) 0.30900(16) 0.3616(3)
N1 N 0.4823(3) 0.23273(18) 0.5399(3)
O10 O 0.3343(4) 0.56431(17) 0.3800(4)
N3 N 0.7713(3) 0.2375(2) 0.7963(3)
C3 C 0.1873(4) 0.19988(19) 0.3746(3)
C4 C 0.4519(4) 0.2079(2) 0.6006(3)
H2 H 0.385348 0.193241 0.587818
N4 N 0.8364(3) 0.2388(2) 0.8775(3)
C5 C 0.5145(4) 0.2027(2) 0.6824(3)
H3 H 0.490591 0.184548 0.724291
C7 C 0.1002(4) 0.16719(19) 0.3849(3)
C9 C 0.5744(4) 0.6923(2) 0.2248(3)
C10 C 0.3406(4) 0.3979(2) 0.3970(4)
C11 C 0.6114(4) 0.2239(2) 0.7023(3)
C13 C 0.9967(4) 0.2266(2) 0.9702(3)
C14 C 0.5130(4) 0.6567(2) 0.2657(3)
C16 C 0.3430(4) 0.3387(2) 0.4090(3)
C17 C 0.6813(4) 0.2198(3) 0.7888(3)
C20 C 0.5457(4) 0.6441(2) 0.3506(4)
H7 H 0.609019 0.657627 0.383361
C21 C 0.9242(4) 0.2181(2) 0.8862(3)
C25 C 0.0289(4) 0.1044(2) 0.4653(4)
H11 H 0.035948 0.081731 0.513077
C27 C 0.3990(4) 0.4231(2) 0.3513(4)
H13 H 0.438739 0.401920 0.323920
C28 C 0.4006(4) 0.4791(2) 0.3446(4)
H14 H 0.442388 0.496252 0.314599
C29 C 0.4204(4) 0.6364(2) 0.2180(4)
H15 H 0.397096 0.644792 0.159543
C30 C 0.1095(4) 0.1353(2) 0.4561(4)
H16 H 0.171880 0.134674 0.498983
C31 C 0.3398(5) 0.5087(2) 0.3827(4)
C32 C 0.9566(5) 0.1887(3) 0.8193(4)
H17 H 0.955010 0.149949 0.829489
H19 H 0.910468 0.197276 0.764036
C33 C 0.5762(4) 0.2542(3) 0.5591(4)
H20 H 0.598109 0.272400 0.516181
C34 C 0.6407(4) 0.2506(3) 0.6378(4)
H21 H 0.706280 0.266429 0.648945
C35 C 0.0078(4) 0.1693(2) 0.3239(4)
H22 H 0.000224 0.191691 0.275796
C37 C 0.4873(5) 0.6120(3) 0.3890(4)
H24 H 0.510169 0.603385 0.447396
C38 C 0.3965(5) 0.5930(2) 0.3408(5)
C39 C 0.3619(4) 0.6041(2) 0.2555(5)
H25 H 0.299164 0.589748 0.223049
C40 C 0.2809(5) 0.4285(3) 0.4346(5)
H26 H 0.239981 0.411365 0.465446
C41 C 0.6447(5) 0.1961(4) 0.8579(4)
H27 H 0.634158 0.157346 0.848313
H28 H 0.580408 0.213075 0.859222
H29 H 0.695201 0.202094 0.911973
C42 C 0.2797(6) 0.4843(3) 0.4280(6)
H30 H 0.238417 0.505263 0.454131
Zn3 Zn 0.61462(4) 0.73957(2) 0.07602(4)
O11 O 0.1709(3) 0.34386(14) 0.2445(2)
O12 O 0.3487(3) 0.21467(15) 0.2289(2)
O13 O 0.2886(3) 0.33869(14) 0.1764(2)
O14 O 0.4570(3) 0.19769(17) 0.3545(2)
Zn6 Zn 0.75485(4) 0.76993(2) 0.26259(4)
O2 O 0.8291(3) 0.84386(14) 0.2555(2)
O5 O 0.7114(3) 0.83869(14) 0.3236(2)
C2 C 0.7784(4) 0.8651(2) 0.3003(3)
C6 C 0.7982(4) 0.9222(2) 0.3291(3)
C22 C 0.7636(4) 0.9982(2) 0.4075(4)
C23 C 0.7436(4) 0.9462(2) 0.3791(3)
H9 H 0.691472 0.926472 0.394084
C24 C 0.8738(4) 0.9512(2) 0.3053(4)
H10 H 0.910450 0.935116 0.269971
O9 O 0.1457(3) 0.57898(15) 0.0843(3)
C2_2 C 0.2216(4) 0.3651(2) 0.1997(3)
C6_2 C 0.2018(4) 0.4222(2) 0.1709(3)
C12 C 0.0621(4) 0.6073(2) 0.0966(4)
C18 C 0.1595(4) 0.5268(2) 0.1149(4)
C19 C 0.1045(4) 0.5044(2) 0.1658(4)
H6 H 0.053030 0.524524 0.181074
C22_2 C 0.2364(4) 0.4982(2) 0.0925(4)
H8 H 0.274326 0.514320 0.058233
C23_2 C 0.2564(4) 0.4462(2) 0.1209(3)
H9_2 H 0.308528 0.426472 0.105916
C24_2 C 0.1262(4) 0.4512(2) 0.1947(4)
H10_2 H 0.089550 0.435116 0.230029
C36 C 0.0739(4) 0.6386(2) 0.1670(4)
H23 H 0.136873 0.639481 0.209156
O10_2 O 0.6657(4) 0.06431(17) 0.1200(4)
C9_2 C 0.4256(4) 0.1923(2) 0.2752(3)
C14_2 C 0.4870(4) 0.1567(2) 0.2343(3)
C20_2 C 0.4543(4) 0.1441(2) 0.1494(4)
H7_2 H 0.390981 0.157627 0.116639
C29_2 C 0.5796(4) 0.1364(2) 0.2820(4)
H15_2 H 0.602904 0.144792 0.340457
C31_2 C 0.6602(5) 0.0087(2) 0.1173(4)
C37_2 C 0.5127(5) 0.1120(3) 0.1110(4)
H24_2 H 0.489831 0.103385 0.052604
C38_2 C 0.6035(5) 0.0930(2) 0.1592(5)
C39_2 C 0.6381(4) 0.1041(2) 0.2445(5)
H25_2 H 0.700836 0.089748 0.276951
H30_2 H 0.761583 0.005263 0.045869
O1_2 O 0.8283(3) 0.73206(15) 0.1869(2)
O4_2 O 0.7282(3) 0.69370(16) 0.0712(2)
O6_2 O 0.6898(3) 0.81815(16) 0.0352(2)
O8_2 O 0.6182(3) 0.80900(16) 0.1384(3)
C3_2 C 0.8127(4) 0.69988(19) 0.1254(3)
C7_2 C 0.8998(4) 0.66719(19) 0.1151(3)
C10_2 C 0.6594(4) 0.8979(2) 0.1030(4)
C16_2 C 0.6570(4) 0.8387(2) 0.0910(3)
C25_2 C 0.9711(4) 0.6044(2) 0.0347(4)
C27_2 C 0.6010(4) 0.9231(2) 0.1487(4)
H13_2 H 0.561261 0.901920 0.176080
C28_2 C 0.5994(4) 0.9791(2) 0.1554(4)
H14_2 H 0.557612 0.996252 0.185401
C30_2 C 0.8905(4) 0.6353(2) 0.0439(4)
H16_2 H 0.828120 0.634674 0.001017
C35_2 C 0.9922(4) 0.6693(2) 0.1761(4)
H22_2 H 0.999776 0.691691 0.224204
C40_2 C 0.7191(5) 0.9285(3) 0.0654(5)
H26_2 H 0.760019 0.911365 0.034554
C42_2 C 0.7203(6) 0.9843(3) 0.0720(6)
N5 N 0.8632(3) 0.74669(18) 0.3741(3)
C1_2 C 0.8365(4) 0.7191(2) 0.4345(3)
H1_2 H 0.768492 0.706686 0.423898
C8 C 0.9037(4) 0.7076(2) 0.5123(3)
H4 H 0.882167 0.687109 0.553083
C15_2 C 0.9598(4) 0.7647(2) 0.3903(4)
H5_2 H 0.979660 0.784229 0.347658
H18 H 0.974170 0.699548 0.679963
C8_2 C 0.0963(4) 0.2076(2) 0.9877(3)
H4_2 H 0.117833 0.187109 0.946917
H18_2 H 0.025830 0.199548 0.820037
C26 C 0.9697(4) 0.2558(2) 0.0340(4)
H12 H 0.902629 0.269437 0.024818
O9_2 O 0.8543(3) 0.07898(15) 0.4157(3)
C12_2 C 0.9379(4) 0.1073(2) 0.4034(4)
C18_2 C 0.8405(4) 0.0268(2) 0.3851(4)
C19_2 C 0.8955(4) 0.0044(2) 0.3342(4)
H6_2 H 0.946970 0.024524 0.318926
H8_2 H 0.725674 0.014320 0.441767
C36_2 C 0.9261(4) 0.1386(2) 0.3330(4)
H23_2 H 0.863127 0.139481 0.290844
N1_2 N 0.5177(3) 0.73273(18) 0.9601(3)
N3_2 N 0.2287(3) 0.7375(2) 0.7037(3)
C4_2 C 0.5481(4) 0.7079(2) 0.8994(3)
H2_2 H 0.614652 0.693241 0.912182
N4_2 N 0.1636(3) 0.7388(2) 0.6225(3)
C5_2 C 0.4855(4) 0.7027(2) 0.8176(3)
H3_2 H 0.509409 0.684548 0.775709
C11_2 C 0.3886(4) 0.7239(2) 0.7977(3)
C13_2 C 0.0033(4) 0.7266(2) 0.5298(3)
C17_2 C 0.3187(4) 0.7198(3) 0.7112(3)
C21_2 C 0.0758(4) 0.7181(2) 0.6138(3)
H11_2 H 0.964052 0.581731 0.986923
C26_2 C 0.0303(4) 0.7558(2) 0.4660(4)
H12_2 H 0.097371 0.769437 0.475182
C32_2 C 0.0434(5) 0.6887(3) 0.6807(4)
H17_2 H 0.044990 0.649949 0.670511
H19_2 H 0.089532 0.697276 0.735964
C33_2 C 0.4238(4) 0.7542(3) 0.9409(4)
H20_2 H 0.401891 0.772400 0.983819
C34_2 C 0.3593(4) 0.7506(3) 0.8622(4)
H21_2 H 0.293720 0.766429 0.851055
C41_2 C 0.3553(5) 0.6961(4) 0.6421(4)
H27_2 H 0.365842 0.657346 0.651687
H28_2 H 0.419592 0.713075 0.640778
H29_2 H 0.304799 0.702094 0.588027
O2_2 O 0.1709(3) 0.15614(14) 0.7445(2)
O5_2 O 0.2886(3) 0.16131(14) 0.6764(2)
C2_3 C 0.2216(4) 0.1349(2) 0.6997(3)
C6_3 C 0.2018(4) 0.0778(2) 0.6709(3)
C22_3 C 0.2364(4) 0.0018(2) 0.5925(4)
C23_3 C 0.2564(4) 0.0538(2) 0.6209(3)
H9_3 H 0.308528 0.073528 0.605916
C24_3 C 0.1262(4) 0.0488(2) 0.6947(4)
H10_3 H 0.089550 0.064884 0.730029
Zn5 Zn 0.24515(4) 0.23007(2) 0.73741(4)
Zn1_2 Zn 0.61462(4) 0.76043(2) 0.57602(4)
O1_3 O 0.8283(3) 0.76794(15) 0.6869(2)
O3_2 O 0.3487(3) 0.28533(15) 0.7289(2)
O4_3 O 0.7282(3) 0.80630(16) 0.5712(2)
O6_3 O 0.6898(3) 0.68185(16) 0.5352(2)
O7_2 O 0.4570(3) 0.30231(17) 0.8545(2)
O8_3 O 0.6182(3) 0.69100(16) 0.6384(3)
N1_3 N 0.5177(3) 0.76727(18) 0.4601(3)
O10_3 O 0.6657(4) 0.43569(17) 0.6200(4)
N3_3 N 0.2287(3) 0.7625(2) 0.2037(3)
C3_3 C 0.8127(4) 0.80012(19) 0.6254(3)
C4_3 C 0.5481(4) 0.7921(2) 0.3994(3)
H2_3 H 0.614652 0.806759 0.412182
N4_3 N 0.1636(3) 0.7612(2) 0.1225(3)
C5_3 C 0.4855(4) 0.7973(2) 0.3176(3)
H3_3 H 0.509409 0.815452 0.275709
C7_3 C 0.8998(4) 0.83281(19) 0.6151(3)
C9_3 C 0.4256(4) 0.3077(2) 0.7752(3)
C10_3 C 0.6594(4) 0.6021(2) 0.6030(4)
C11_3 C 0.3886(4) 0.7761(2) 0.2977(3)
C13_3 C 0.0033(4) 0.7734(2) 0.0298(3)
C14_3 C 0.4870(4) 0.3433(2) 0.7343(3)
C16_3 C 0.6570(4) 0.6613(2) 0.5910(3)
C17_3 C 0.3187(4) 0.7802(3) 0.2112(3)
C20_3 C 0.4543(4) 0.3559(2) 0.6494(4)
H7_3 H 0.390981 0.342373 0.616639
C21_3 C 0.0758(4) 0.7819(2) 0.1138(3)
C25_3 C 0.9711(4) 0.8956(2) 0.5347(4)
H11_3 H 0.964052 0.918269 0.486923
C27_3 C 0.6010(4) 0.5769(2) 0.6487(4)
H13_3 H 0.561261 0.598080 0.676080
C28_3 C 0.5994(4) 0.5209(2) 0.6554(4)
H14_3 H 0.557612 0.503748 0.685401
C29_3 C 0.5796(4) 0.3636(2) 0.7820(4)
H15_3 H 0.602904 0.355208 0.840457
C30_3 C 0.8905(4) 0.8647(2) 0.5439(4)
H16_3 H 0.828120 0.865326 0.501017
C31_3 C 0.6602(5) 0.4913(2) 0.6173(4)
C32_3 C 0.0434(5) 0.8113(3) 0.1807(4)
H17_3 H 0.044990 0.850051 0.170511
H19_3 H 0.089532 0.802724 0.235964
C33_3 C 0.4238(4) 0.7458(3) 0.4409(4)
H20_3 H 0.401891 0.727600 0.483819
C34_3 C 0.3593(4) 0.7494(3) 0.3622(4)
H21_3 H 0.293720 0.733571 0.351055
C35_3 C 0.9922(4) 0.8307(2) 0.6761(4)
H22_3 H 0.999776 0.808309 0.724204
C37_3 C 0.5127(5) 0.3880(3) 0.6110(4)
H24_3 H 0.489831 0.396615 0.552604
C38_3 C 0.6035(5) 0.4070(2) 0.6592(5)
C39_3 C 0.6381(4) 0.3959(2) 0.7445(5)
H25_3 H 0.700836 0.410252 0.776951
C40_3 C 0.7191(5) 0.5715(3) 0.5654(5)
H26_3 H 0.760019 0.588635 0.534554
C41_3 C 0.3553(5) 0.8039(4) 0.1421(4)
H27_3 H 0.365842 0.842654 0.151687
H28_3 H 0.419592 0.786925 0.140778
H29_3 H 0.304799 0.797906 0.088027
C42_3 C 0.7203(6) 0.5157(3) 0.5720(6)
H30_3 H 0.761583 0.494737 0.545869
Zn2 Zn 0.75485(4) 0.73007(2) 0.76259(4)
Zn3_2 Zn 0.38538(4) 0.26043(2) 0.92398(4)
O11_2 O 0.8291(3) 0.65614(14) 0.7555(2)
O12_2 O 0.6513(3) 0.78533(15) 0.7711(2)
O13_2 O 0.7114(3) 0.66131(14) 0.8236(2)
O14_2 O 0.5430(3) 0.80231(17) 0.6455(2)
N5_2 N 0.8632(3) 0.75331(18) 0.8741(3)
C1_3 C 0.8365(4) 0.7809(2) 0.9345(3)
H1_3 H 0.768492 0.793314 0.923898
C15_3 C 0.9598(4) 0.7353(2) 0.8903(4)
H5_3 H 0.979660 0.715771 0.847658
N2_2 N 0.1368(3) 0.25331(18) 0.6259(3)
C1_4 C 0.1635(4) 0.2809(2) 0.5655(3)
H1_4 H 0.231508 0.293314 0.576102
C8_3 C 0.0963(4) 0.2924(2) 0.4877(3)
H4_3 H 0.117833 0.312891 0.446917
C15_4 C 0.0402(4) 0.2353(2) 0.6097(4)
H5_4 H 0.020340 0.215771 0.652342
H18_3 H 0.025830 0.300452 0.320037
O1_4 O 0.1717(3) 0.26794(15) 0.8131(2)
O4_4 O 0.2718(3) 0.30630(16) 0.9288(2)
O6_4 O 0.3102(3) 0.18185(16) 0.9648(2)
O8_4 O 0.3818(3) 0.19100(16) 0.8616(3)
C3_4 C 0.1873(4) 0.30012(19) 0.8746(3)
C7_4 C 0.1002(4) 0.33281(19) 0.8849(3)
C10_4 C 0.3406(4) 0.1021(2) 0.8970(4)
C16_4 C 0.3430(4) 0.1613(2) 0.9090(3)
C25_4 C 0.0289(4) 0.3956(2) 0.9653(4)
C27_4 C 0.3990(4) 0.0769(2) 0.8513(4)
H13_4 H 0.438739 0.098080 0.823920
C28_4 C 0.4006(4) 0.0209(2) 0.8446(4)
H14_4 H 0.442388 0.003748 0.814599
C30_4 C 0.1095(4) 0.3647(2) 0.9561(4)
H16_4 H 0.171880 0.365326 0.998983
C35_4 C 0.0078(4) 0.3307(2) 0.8239(4)
H22_4 H 0.000224 0.308309 0.775796
C40_4 C 0.2809(5) 0.0715(3) 0.9346(5)
H26_4 H 0.239981 0.088635 0.965446
C42_4 C 0.2797(6) 0.0157(3) 0.9280(6)
O10_4 O 0.3343(4) 0.93569(17) 0.8800(4)
C9_4 C 0.5744(4) 0.8077(2) 0.7248(3)
C14_4 C 0.5130(4) 0.8433(2) 0.7657(3)
C20_4 C 0.5457(4) 0.8559(2) 0.8506(4)
H7_4 H 0.609019 0.842373 0.883361
C29_4 C 0.4204(4) 0.8636(2) 0.7180(4)
H15_4 H 0.397096 0.855208 0.659543
C31_4 C 0.3398(5) 0.9913(2) 0.8827(4)
C37_4 C 0.4873(5) 0.8880(3) 0.8890(4)
H24_4 H 0.510169 0.896615 0.947396
C38_4 C 0.3965(5) 0.9070(2) 0.8408(5)
C39_4 C 0.3619(4) 0.8959(2) 0.7555(5)
H25_4 H 0.299164 0.910252 0.723049
H30_4 H 0.238417 0.994737 0.954131
O9_3 O 0.8543(3) 0.42102(15) 0.9157(3)
C2_4 C 0.7784(4) 0.6349(2) 0.8003(3)
C6_4 C 0.7982(4) 0.5778(2) 0.8291(3)
C12_3 C 0.9379(4) 0.3927(2) 0.9034(4)
C18_3 C 0.8405(4) 0.4732(2) 0.8851(4)
C19_3 C 0.8955(4) 0.4956(2) 0.8342(4)
H6_3 H 0.946970 0.475476 0.818926
C22_4 C 0.7636(4) 0.5018(2) 0.9075(4)
H8_3 H 0.725674 0.485680 0.941767
C23_4 C 0.7436(4) 0.5538(2) 0.8791(3)
H9_4 H 0.691472 0.573528 0.894084
C24_4 C 0.8738(4) 0.5488(2) 0.8053(4)
H10_4 H 0.910450 0.564884 0.769971
C36_3 C 0.9261(4) 0.3614(2) 0.8330(4)
H23_3 H 0.863127 0.360519 0.790844
O9_4 O 0.1457(3) 0.92102(15) 0.5843(3)
C12_4 C 0.0621(4) 0.8927(2) 0.5966(4)
C18_4 C 0.1595(4) 0.9732(2) 0.6149(4)
C19_4 C 0.1045(4) 0.9956(2) 0.6658(4)
H6_4 H 0.053030 0.975476 0.681074
H8_4 H 0.274326 0.985680 0.558233
C36_4 C 0.0739(4) 0.8614(2) 0.6670(4)
H23_4 H 0.136873 0.860519 0.709156
C26_3 C 0.0303(4) 0.7442(2) 0.9660(4)
H12_3 H 0.097371 0.730563 0.975182
C8_4 C 0.9037(4) 0.7924(2) 0.0123(3)
H4_4 H 0.882167 0.812891 0.053083
H18_4 H 0.974170 0.800452 0.179963
N1_4 N 0.4823(3) 0.26727(18) 0.0399(3)
N3_4 N 0.7713(3) 0.2625(2) 0.2963(3)
C4_4 C 0.4519(4) 0.2921(2) 0.1006(3)
H2_4 H 0.385348 0.306759 0.087818
N4_4 N 0.8364(3) 0.2612(2) 0.3775(3)
C5_4 C 0.5145(4) 0.2973(2) 0.1824(3)
H3_4 H 0.490591 0.315452 0.224291
C11_4 C 0.6114(4) 0.2761(2) 0.2023(3)
C13_4 C 0.9967(4) 0.2734(2) 0.4702(3)
C17_4 C 0.6813(4) 0.2802(3) 0.2888(3)
C21_4 C 0.9242(4) 0.2819(2) 0.3862(3)
H11_4 H 0.035948 0.418269 0.013077
C26_4 C 0.9697(4) 0.2442(2) 0.5340(4)
H12_4 H 0.902629 0.230563 0.524818
C32_4 C 0.9566(5) 0.3113(3) 0.3193(4)
H17_4 H 0.955010 0.350051 0.329489
H19_4 H 0.910468 0.302724 0.264036
C33_4 C 0.5762(4) 0.2458(3) 0.0591(4)
H20_4 H 0.598109 0.227600 0.016181
C34_4 C 0.6407(4) 0.2494(3) 0.1378(4)
H21_4 H 0.706280 0.233571 0.148945
C41_4 C 0.6447(5) 0.3039(4) 0.3579(4)
H27_4 H 0.634158 0.342654 0.348313
H28_4 H 0.580408 0.286925 0.359222
H29_4 H 0.695201 0.297906 0.411973
loop_
_geom_bond_atom_site_label_1
_geom_bond_atom_site_label_2
_geom_bond_site_symmetry_1
_geom_bond_site_symmetry_2
N2 C1 1_555 1_555
C1 H1 1_555 1_555
C15 N2 1_555 1_555
H5 C15 1_555 1_555
Zn4 N2 1_555 1_555
Zn1 O4 1_555 1_555
O1 C3 1_555 1_555
O3 C9 1_555 1_555
O4 C3 1_555 1_555
O6 Zn1 1_555 1_555
O7 C9 1_555 1_555
O8 Zn1 1_555 1_555
N1 Zn1 1_555 1_555
O10 C31 1_555 1_555
N3 N4 1_555 1_555
C3 C7 1_555 1_555
C4 N1 1_555 1_555
H2 C4 1_555 1_555
N4 C21 1_555 1_555
C5 C4 1_555 1_555
H3 C5 1_555 1_555
C7 C30 1_555 1_555
C9 C14 1_555 1_555
C10 C16 1_555 1_555
C11 C5 1_555 1_555
C14 C20 1_555 1_555
C16 O6 1_555 1_555
C17 N3 1_555 1_555
C20 H7 1_555 1_555
C21 C13 1_555 1_555
C25 H11 1_555 1_555
C27 C10 1_555 1_555
H13 C27 1_555 1_555
C28 C27 1_555 1_555
H14 C28 1_555 1_555
C29 C14 1_555 1_555
H15 C29 1_555 1_555
C30 C25 1_555 1_555
H16 C30 1_555 1_555
C31 C28 1_555 1_555
C32 C21 1_555 1_555
H17 C32 1_555 1_555
H19 C32 1_555 1_555
C33 N1 1_555 1_555
H20 C33 1_555 1_555
C34 C11 1_555 1_555
H21 C34 1_555 1_555
C35 C7 1_555 1_555
H22 C35 1_555 1_555
C37 C20 1_555 1_555
H24 C37 1_555 1_555
C38 O10 1_555 1_555
C39 C29 1_555 1_555
H25 C39 1_555 1_555
C40 C10 1_555 1_555
H26 C40 1_555 1_555
C41 C17 1_555 1_555
H27 C41 1_555 1_555
H28 C41 1_555 1_555
H29 C41 1_555 1_555
C42 C31 1_555 1_555
H30 C42 1_555 1_555
Zn4 O1 1_555 1_555
Zn3 O7 1_555 1_555
O11 Zn4 1_555 1_555
O12 Zn4 1_555 1_555
O13 Zn4 1_555 1_555
O14 Zn1 1_555 1_555
Zn6 O3 1_555 1_555
O8 C16 1_555 1_555
O8 Zn4 1_555 1_555
C11 C17 1_555 1_555
C33 C34 1_555 1_555
C37 C38 1_555 1_555
C38 C39 1_555 1_555
C40 C42 1_555 1_555
O2 C2 1_555 1_555
O5 C2 1_555 1_555
C2 C6 1_555 1_555
C6 C23 1_555 1_555
C23 C22 1_555 1_555
H9 C23 1_555 1_555
C24 C6 1_555 1_555
H10 C24 1_555 1_555
Zn6 O2 1_555 1_555
O5 Zn6 1_555 1_555
O11 C2_2 1_555 1_555
O13 C2_2 1_555 1_555
O9 C12 1_555 1_555
C2_2 C6_2 1_555 1_555
C6_2 C23_2 1_555 1_555
C18 O9 1_555 1_555
C19 C18 1_555 1_555
H6 C19 1_555 1_555
C22_2 C18 1_555 1_555
H8 C22_2 1_555 1_555
C23_2 C22_2 1_555 1_555
H9_2 C23_2 1_555 1_555
C24_2 C6_2 1_555 1_555
H10_2 C24_2 1_555 1_555
C36 C12 1_555 1_555
H23 C36 1_555 1_555
C19 C24_2 1_555 1_555
O12 C9_2 1_555 1_555
O14 C9_2 1_555 1_555
O10_2 C31_2 1_555 1_555
C9_2 C14_2 1_555 1_555
C14_2 C20_2 1_555 1_555
C20_2 H7_2 1_555 1_555
C29_2 C14_2 1_555 1_555
H15_2 C29_2 1_555 1_555
C37_2 C20_2 1_555 1_555
H24_2 C37_2 1_555 1_555
C38_2 O10_2 1_555 1_555
C39_2 C29_2 1_555 1_555
H25_2 C39_2 1_555 1_555
C37_2 C38_2 1_555 1_555
C38_2 C39_2 1_555 1_555
Zn3 O4_2 1_555 1_555
O1_2 C3_2 1_555 1_555
O4_2 C3_2 1_555 1_555
O6_2 Zn3 1_555 1_555
O8_2 Zn3 1_555 1_555
C3_2 C7_2 1_555 1_555
C7_2 C30_2 1_555 1_555
C10_2 C16_2 1_555 1_555
C16_2 O6_2 1_555 1_555
C27_2 C10_2 1_555 1_555
H13_2 C27_2 1_555 1_555
C28_2 C27_2 1_555 1_555
H14_2 C28_2 1_555 1_555
C30_2 C25_2 1_555 1_555
H16_2 C30_2 1_555 1_555
C35_2 C7_2 1_555 1_555
H22_2 C35_2 1_555 1_555
C40_2 C10_2 1_555 1_555
H26_2 C40_2 1_555 1_555
Zn6 O1_2 1_555 1_555
N5 Zn6 1_555 1_555
O8_2 C16_2 1_555 1_555
O8_2 Zn6 1_555 1_555
C40_2 C42_2 1_555 1_555
N5 C1_2 1_555 1_555
C1_2 H1_2 1_555 1_555
C8 C1_2 1_555 1_555
H4 C8 1_555 1_555
C15_2 N5 1_555 1_555
H5_2 C15_2 1_555 1_555
H4_2 C8_2 1_555 1_555
H12 C26 1_555 1_555
O9_2 C12_2 1_555 1_555
C18_2 O9_2 1_555 1_555
C19_2 C18_2 1_555 1_555
H6_2 C19_2 1_555 1_555
C36_2 C12_2 1_555 1_555
H23_2 C36_2 1_555 1_555
N3_2 N4_2 1_555 1_555
C4_2 N1_2 1_555 1_555
H2_2 C4_2 1_555 1_555
N4_2 C21_2 1_555 1_555
C5_2 C4_2 1_555 1_555
H3_2 C5_2 1_555 1_555
C11_2 C5_2 1_555 1_555
C17_2 N3_2 1_555 1_555
C21_2 C13_2 1_555 1_555
C26_2 C13_2 1_555 1_555
H12_2 C26_2 1_555 1_555
C32_2 C21_2 1_555 1_555
H17_2 C32_2 1_555 1_555
H19_2 C32_2 1_555 1_555
C33_2 N1_2 1_555 1_555
H20_2 C33_2 1_555 1_555
C34_2 C11_2 1_555 1_555
H21_2 C34_2 1_555 1_555
C41_2 C17_2 1_555 1_555
H27_2 C41_2 1_555 1_555
H28_2 C41_2 1_555 1_555
H29_2 C41_2 1_555 1_555
C11_2 C17_2 1_555 1_555
C33_2 C34_2 1_555 1_555
O2_2 C2_3 1_555 1_555
O5_2 C2_3 1_555 1_555
C2_3 C6_3 1_555 1_555
C6_3 C23_3 1_555 1_555
C23_3 C22_3 1_555 1_555
H9_3 C23_3 1_555 1_555
C24_3 C6_3 1_555 1_555
H10_3 C24_3 1_555 1_555
Zn5 O2_2 1_555 1_555
O5_2 Zn5 1_555 1_555
Zn1_2 O4_3 1_555 1_555
O1_3 C3_3 1_555 1_555
O3_2 C9_3 1_555 1_555
O4_3 C3_3 1_555 1_555
O6_3 Zn1_2 1_555 1_555
O7_2 C9_3 1_555 1_555
O8_3 Zn1_2 1_555 1_555
N1_3 Zn1_2 1_555 1_555
O10_3 C31_3 1_555 1_555
N3_3 N4_3 1_555 1_555
C3_3 C7_3 1_555 1_555
C4_3 N1_3 1_555 1_555
H2_3 C4_3 1_555 1_555
N4_3 C21_3 1_555 1_555
C5_3 C4_3 1_555 1_555
H3_3 C5_3 1_555 1_555
C7_3 C30_3 1_555 1_555
C9_3 C14_3 1_555 1_555
C10_3 C16_3 1_555 1_555
C11_3 C5_3 1_555 1_555
C14_3 C20_3 1_555 1_555
C16_3 O6_3 1_555 1_555
C17_3 N3_3 1_555 1_555
C20_3 H7_3 1_555 1_555
C21_3 C13_3 1_555 1_555
C25_3 H11_3 1_555 1_555
C27_3 C10_3 1_555 1_555
H13_3 C27_3 1_555 1_555
C28_3 C27_3 1_555 1_555
H14_3 C28_3 1_555 1_555
C29_3 C14_3 1_555 1_555
H15_3 C29_3 1_555 1_555
C30_3 C25_3 1_555 1_555
H16_3 C30_3 1_555 1_555
C31_3 C28_3 1_555 1_555
C32_3 C21_3 1_555 1_555
H17_3 C32_3 1_555 1_555
H19_3 C32_3 1_555 1_555
C33_3 N1_3 1_555 1_555
H20_3 C33_3 1_555 1_555
C34_3 C11_3 1_555 1_555
H21_3 C34_3 1_555 1_555
C35_3 C7_3 1_555 1_555
H22_3 C35_3 1_555 1_555
C37_3 C20_3 1_555 1_555
H24_3 C37_3 1_555 1_555
C38_3 O10_3 1_555 1_555
C39_3 C29_3 1_555 1_555
H25_3 C39_3 1_555 1_555
C40_3 C10_3 1_555 1_555
H26_3 C40_3 1_555 1_555
C41_3 C17_3 1_555 1_555
H27_3 C41_3 1_555 1_555
H28_3 C41_3 1_555 1_555
H29_3 C41_3 1_555 1_555
C42_3 C31_3 1_555 1_555
H30_3 C42_3 1_555 1_555
Zn2 O1_3 1_555 1_555
Zn3_2 O7_2 1_555 1_555
O11_2 Zn2 1_555 1_555
O12_2 Zn2 1_555 1_555
O13_2 Zn2 1_555 1_555
O14_2 Zn1_2 1_555 1_555
N5_2 Zn2 1_555 1_555
Zn5 O3_2 1_555 1_555
O8_3 C16_3 1_555 1_555
O8_3 Zn2 1_555 1_555
C11_3 C17_3 1_555 1_555
C33_3 C34_3 1_555 1_555
C37_3 C38_3 1_555 1_555
C38_3 C39_3 1_555 1_555
C40_3 C42_3 1_555 1_555
N5_2 C1_3 1_555 1_555
C1_3 H1_3 1_555 1_555
C15_3 N5_2 1_555 1_555
H5_3 C15_3 1_555 1_555
N2_2 C1_4 1_555 1_555
C1_4 H1_4 1_555 1_555
C8_3 C1_4 1_555 1_555
H4_3 C8_3 1_555 1_555
C15_4 N2_2 1_555 1_555
H5_4 C15_4 1_555 1_555
Zn5 N2_2 1_555 1_555
Zn3_2 O4_4 1_555 1_555
O1_4 C3_4 1_555 1_555
O4_4 C3_4 1_555 1_555
O6_4 Zn3_2 1_555 1_555
O8_4 Zn3_2 1_555 1_555
C3_4 C7_4 1_555 1_555
C7_4 C30_4 1_555 1_555
C10_4 C16_4 1_555 1_555
C16_4 O6_4 1_555 1_555
C27_4 C10_4 1_555 1_555
H13_4 C27_4 1_555 1_555
C28_4 C27_4 1_555 1_555
H14_4 C28_4 1_555 1_555
C30_4 C25_4 1_555 1_555
H16_4 C30_4 1_555 1_555
C35_4 C7_4 1_555 1_555
H22_4 C35_4 1_555 1_555
C40_4 C10_4 1_555 1_555
H26_4 C40_4 1_555 1_555
Zn5 O1_4 1_555 1_555
O8_4 C16_4 1_555 1_555
O8_4 Zn5 1_555 1_555
C40_4 C42_4 1_555 1_555
O12_2 C9_4 1_555 1_555
O14_2 C9_4 1_555 1_555
O10_4 C31_4 1_555 1_555
C9_4 C14_4 1_555 1_555
C14_4 C20_4 1_555 1_555
C20_4 H7_4 1_555 1_555
C29_4 C14_4 1_555 1_555
H15_4 C29_4 1_555 1_555
C37_4 C20_4 1_555 1_555
H24_4 C37_4 1_555 1_555
C38_4 O10_4 1_555 1_555
C39_4 C29_4 1_555 1_555
H25_4 C39_4 1_555 1_555
C37_4 C38_4 1_555 1_555
C38_4 C39_4 1_555 1_555
O11_2 C2_4 1_555 1_555
O13_2 C2_4 1_555 1_555
O9_3 C12_3 1_555 1_555
C2_4 C6_4 1_555 1_555
C6_4 C23_4 1_555 1_555
C18_3 O9_3 1_555 1_555
C19_3 C18_3 1_555 1_555
H6_3 C19_3 1_555 1_555
C22_4 C18_3 1_555 1_555
H8_3 C22_4 1_555 1_555
C23_4 C22_4 1_555 1_555
H9_4 C23_4 1_555 1_555
C24_4 C6_4 1_555 1_555
H10_4 C24_4 1_555 1_555
C36_3 C12_3 1_555 1_555
H23_3 C36_3 1_555 1_555
C19_3 C24_4 1_555 1_555
O9_4 C12_4 1_555 1_555
C18_4 O9_4 1_555 1_555
C19_4 C18_4 1_555 1_555
H6_4 C19_4 1_555 1_555
C36_4 C12_4 1_555 1_555
H23_4 C36_4 1_555 1_555
H12_3 C26_3 1_555 1_555
H4_4 C8_4 1_555 1_555
N3_4 N4_4 1_555 1_555
C4_4 N1_4 1_555 1_555
H2_4 C4_4 1_555 1_555
N4_4 C21_4 1_555 1_555
C5_4 C4_4 1_555 1_555
H3_4 C5_4 1_555 1_555
C11_4 C5_4 1_555 1_555
C17_4 N3_4 1_555 1_555
C21_4 C13_4 1_555 1_555
C26_4 C13_4 1_555 1_555
H12_4 C26_4 1_555 1_555
C32_4 C21_4 1_555 1_555
H17_4 C32_4 1_555 1_555
H19_4 C32_4 1_555 1_555
C33_4 N1_4 1_555 1_555
H20_4 C33_4 1_555 1_555
C34_4 C11_4 1_555 1_555
H21_4 C34_4 1_555 1_555
C41_4 C17_4 1_555 1_555
H27_4 C41_4 1_555 1_555
H28_4 C41_4 1_555 1_555
H29_4 C41_4 1_555 1_555
C11_4 C17_4 1_555 1_555
C33_4 C34_4 1_555 1_555

#END
