
###############################################################################
#
# This file contains modified crystal structure data generated from the
# MOF subset of the Cambridge Structural Database (CSD) v543 
# hosted by the Cambridge Crystallographic Data Centre (CCDC).
#
# This work is licensed under the Creative Commons
# Attribution-NonCommercial-ShareAlike 4.0 International License.
# To view a copy of this license, visit
# http://creativecommons.org/licenses/by-nc-sa/4.0/
# or send a letter to
# Creative Commons, PO Box 1866, Mountain View, CA 94042, USA.
#
# CIF created using the CSD Python API on 29 September 2022
# The structure has been converted into the P1 space group
# The structure has a 3D framework
# The original CSD entry MUKRIU is in the monoclinic crystal system
# The framework has been calculated to contain at least 10.0% void space
# The void calculation uses a probe of radius 1.32A, grid spacing 0.4
# The framework is charged, counterions have been retained in the structure
#
###############################################################################

data_MUKRIU
_chemical_formula_moiety         '(C96 H48 Ag8 N84 O40)n'
_symmetry_cell_setting           triclinic
_symmetry_space_group_name_H-M   'P 1'
_symmetry_Int_Tables_number      1
_space_group_name_Hall           'P 1'
loop_
_symmetry_equiv_pos_site_id
_symmetry_equiv_pos_as_xyz
1 x,y,z
_cell_length_a                   20.041(3)
_cell_length_b                   8.2412(8)
_cell_length_c                   24.046(3)
_cell_angle_alpha                90
_cell_angle_beta                 111.131(9)
_cell_angle_gamma                90
_cell_volume                     3704.43
loop_
_atom_site_label
_atom_site_type_symbol
_atom_site_fract_x
_atom_site_fract_y
_atom_site_fract_z
Ag6 Ag 0.634799(14) 0.22463(4) 0.152972(11)
O6 O 0.31619(13) 0.0791(3) 0.07598(11)
C13 C 0.30214(19) 0.0745(4) 0.02051(15)
N22 N 0.41228(16) 0.2194(4) 0.03300(13)
N23 N 0.43268(16) 0.3711(4) 0.02146(13)
C23 C 0.49387(18) 0.3906(4) 0.06551(16)
H11 H 0.5217 0.4865 0.0702
N24 N 0.51482(16) 0.2627(4) 0.10425(14)
C24 C 0.46218(18) 0.1582(5) 0.08240(15)
H12 H 0.4598 0.0549 0.0991
Ag5 Ag 0.134799(14) 0.27537(4) 0.652972(11)
O7 O 0.10434(13) 0.0065(3) 0.86030(12)
C15 C 0.22445(18) 0.0014(4) 0.91824(15)
O9 O 0.44206(14) 0.1642(4) 0.92353(12)
C16 C 0.26935(18) 0.0808(4) 0.89407(15)
C17 C 0.33172(18) 0.1493(4) 0.93328(15)
O10 O 0.35996(14) 0.3361(3) 0.87338(11)
C18 C 0.34848(18) 0.1461(4) 0.99427(15)
N16 N 0.25335(16) 0.0858(4) 0.83156(13)
N17 N 0.29965(17) 0.0208(4) 0.80717(13)
C21 C 0.2708(2) 0.0651(5) 0.75094(16)
H9 H 0.2913 0.0386 0.7221
N18 N 0.20955(17) 0.1515(4) 0.73761(14)
C22 C 0.2006(2) 0.1640(5) 0.78918(16)
H10 H 0.1624 0.2201 0.7953
N21 N 0.38178(15) 0.2230(4) 0.90812(13)
O2 O 0.39566(13) 0.4935(3) 0.13970(12)
C2 C 0.26036(18) 0.5064(4) 0.02090(16)
O3 O 0.33231(14) 0.7009(3) 0.14874(12)
C3 C 0.27555(18) 0.4986(4) 0.08176(15)
O4 O 0.05794(14) 0.3358(4) 0.07647(12)
C4 C 0.23065(18) 0.4192(4) 0.10593(15)
C5 C 0.16828(18) 0.3507(4) 0.06672(15)
O5 O 0.14004(14) 0.1639(3) 0.12662(11)
C6 C 0.15152(18) 0.3539(4) 0.00573(15)
N2 N 0.35874(15) 0.6921(4) 0.03167(13)
H1 H 0.4243 0.8237 0.0047
N4 N 0.34025(16) 0.5716(4) 0.12641(13)
N5 N 0.24665(16) 0.4142(4) 0.16844(13)
N6 N 0.20035(17) 0.4792(4) 0.19283(13)
C9 C 0.2292(2) 0.4349(5) 0.24906(16)
H3 H 0.2087 0.4614 0.2779
N7 N 0.29045(17) 0.3485(4) 0.26239(14)
C10 C 0.2994(2) 0.3360(5) 0.21082(16)
H4 H 0.3376 0.2799 0.2047
N8 N 0.11822(15) 0.2770(4) 0.09188(13)
Ag2 Ag 0.134799(14) 0.72463(4) 0.152972(11)
Ag3 Ag 0.365201(14) 0.22463(4) 0.347028(11)
N12 N 0.19628(15) 0.9041(4) 0.00361(13)
C19 C 0.11558(19) 0.7478(4) 0.00670(16)
N14 N 0.15009(16) 0.7952(4) 0.06456(13)
C20 C 0.20000(19) 0.8933(5) 0.06080(16)
H8 H 0.2338 0.9486 0.0935
N20 N 0.20955(17) 0.8485(4) 0.23761(14)
N26 N 0.01482(16) 0.7627(4) 0.10425(14)
Ag1 Ag 0.365201(14) 0.77537(4) 0.847028(11)
O1 O 0.18381(13) 0.4209(3) 0.92402(11)
C1 C 0.19786(19) 0.4255(4) 0.97949(15)
N1 N 0.30372(15) 0.5959(4) 0.99639(13)
C7 C 0.38442(19) 0.7522(4) 0.99330(16)
N3 N 0.34991(16) 0.7048(4) 0.93544(13)
C8 C 0.30000(19) 0.6067(5) 0.93920(16)
H2 H 0.2662 0.5514 0.9065
N9 N 0.08772(16) 0.2806(4) 0.96700(13)
N10 N 0.06732(16) 0.1289(4) 0.97854(13)
C11 C 0.00613(18) 0.1094(4) 0.93449(16)
C12 C 0.03782(18) 0.3418(5) 0.91760(15)
H6 H 0.0402 0.4451 0.9009
C14 C 0.23964(18) 0.9936(4) 0.97910(16)
O8 O 0.16769(14) 0.7991(3) 0.85126(12)
N13 N 0.14126(15) 0.8079(4) 0.96833(13)
H7 H 0.0757 0.6763 0.9953
N15 N 0.15975(16) 0.9284(4) 0.87359(13)
N19 N 0.29045(17) 0.6515(4) 0.76239(14)
N25 N 0.48518(16) 0.7373(4) 0.89575(14)
H5 H 0.9783 0.0135 0.9298
N11 N 0.98518(16) 0.2373(4) 0.89575(14)
Ag4 Ag 0.865201(14) 0.27537(4) 0.847028(11)
H5_2 H 0.0217 0.0135 0.5702
N11_2 N 0.01482(16) 0.2373(4) 0.60425(14)
O6_2 O 0.68381(13) 0.0791(3) 0.42402(11)
C13_2 C 0.69786(19) 0.0745(4) 0.47949(15)
O7_2 O 0.89566(13) 0.0065(3) 0.63970(12)
C15_2 C 0.77555(18) 0.0014(4) 0.58176(15)
O9_2 O 0.55794(14) 0.1642(4) 0.57647(12)
C16_2 C 0.73065(18) 0.0808(4) 0.60593(15)
C17_2 C 0.66828(18) 0.1493(4) 0.56672(15)
O10_2 O 0.64004(14) 0.3361(3) 0.62662(11)
C18_2 C 0.65152(18) 0.1461(4) 0.50573(15)
N16_2 N 0.74665(16) 0.0858(4) 0.66844(13)
N17_2 N 0.70035(17) 0.0208(4) 0.69283(13)
C21_2 C 0.7292(2) 0.0651(5) 0.74906(16)
H9_2 H 0.7087 0.0386 0.7779
N18_2 N 0.79045(17) 0.1515(4) 0.76239(14)
C22_2 C 0.7994(2) 0.1640(5) 0.71082(16)
H10_2 H 0.8376 0.2201 0.7047
N21_2 N 0.61822(15) 0.2230(4) 0.59188(13)
N22_2 N 0.58772(16) 0.2194(4) 0.46700(13)
N23_2 N 0.56732(16) 0.3711(4) 0.47854(13)
C23_2 C 0.50613(18) 0.3906(4) 0.43449(16)
H11_2 H 0.4783 0.4865 0.4298
N24_2 N 0.48518(16) 0.2627(4) 0.39575(14)
C24_2 C 0.53782(18) 0.1582(5) 0.41760(15)
H12_2 H 0.5402 0.0549 0.4009
Ag1_2 Ag 0.634799(14) 0.77537(4) 0.652972(11)
O1_2 O 0.81619(13) 0.4209(3) 0.57598(11)
C1_2 C 0.80214(19) 0.4255(4) 0.52051(15)
O2_2 O 0.60434(13) 0.4935(3) 0.36030(12)
C2_2 C 0.73964(18) 0.5064(4) 0.47910(16)
O3_2 O 0.66769(14) 0.7009(3) 0.35126(12)
C3_2 C 0.72445(18) 0.4986(4) 0.41824(15)
O4_2 O 0.94206(14) 0.3358(4) 0.42353(12)
C4_2 C 0.76935(18) 0.4192(4) 0.39407(15)
C5_2 C 0.83172(18) 0.3507(4) 0.43328(15)
O5_2 O 0.85996(14) 0.1639(3) 0.37338(11)
C6_2 C 0.84848(18) 0.3539(4) 0.49427(15)
N1_2 N 0.69628(15) 0.5959(4) 0.50361(13)
N2_2 N 0.64126(15) 0.6921(4) 0.46833(13)
C7_2 C 0.61558(19) 0.7522(4) 0.50670(16)
H1_2 H 0.5757 0.8237 0.4953
N3_2 N 0.65009(16) 0.7048(4) 0.56456(13)
C8_2 C 0.70000(19) 0.6067(5) 0.56080(16)
H2_2 H 0.7338 0.5514 0.5935
N4_2 N 0.65975(16) 0.5716(4) 0.37359(13)
N5_2 N 0.75335(16) 0.4142(4) 0.33156(13)
N6_2 N 0.79965(17) 0.4792(4) 0.30717(13)
C9_2 C 0.7708(2) 0.4349(5) 0.25094(16)
H3_2 H 0.7913 0.4614 0.2221
N7_2 N 0.70955(17) 0.3485(4) 0.23761(14)
C10_2 C 0.7006(2) 0.3360(5) 0.28918(16)
H4_2 H 0.6624 0.2799 0.2953
N8_2 N 0.88178(15) 0.2770(4) 0.40812(13)
N9_2 N 0.91228(16) 0.2806(4) 0.53300(13)
N10_2 N 0.93268(16) 0.1289(4) 0.52146(13)
C11_2 C 0.99387(18) 0.1094(4) 0.56551(16)
C12_2 C 0.96218(18) 0.3418(5) 0.58240(15)
H6_2 H 0.9598 0.4451 0.5991
Ag2_2 Ag 0.865201(14) 0.72463(4) 0.347028(11)
C14_2 C 0.76036(18) 0.9936(4) 0.52090(16)
O8_2 O 0.83231(14) 0.7991(3) 0.64874(12)
N12_2 N 0.80372(15) 0.9041(4) 0.49639(13)
N13_2 N 0.85874(15) 0.8079(4) 0.53167(13)
C19_2 C 0.88442(19) 0.7478(4) 0.49330(16)
H7_2 H 0.9243 0.6763 0.5047
N14_2 N 0.84991(16) 0.7952(4) 0.43544(13)
C20_2 C 0.80000(19) 0.8933(5) 0.43920(16)
H8_2 H 0.7662 0.9486 0.4065
N15_2 N 0.84025(16) 0.9284(4) 0.62641(13)
N19_2 N 0.70955(17) 0.6515(4) 0.73761(14)
N20_2 N 0.79045(17) 0.8485(4) 0.26239(14)
N25_2 N 0.51482(16) 0.7373(4) 0.60425(14)
N26_2 N 0.98518(16) 0.7627(4) 0.39575(14)
H11_3 H 0.0217 0.9865 0.0702
C2_3 C 0.76036(18) 0.0064(4) 0.02090(16)
O3_3 O 0.83231(14) 0.2009(3) 0.14874(12)
N2_3 N 0.85874(15) 0.1921(4) 0.03167(13)
H1_3 H 0.9243 0.3237 0.0047
N4_3 N 0.84025(16) 0.0716(4) 0.12641(13)
O6_3 O 0.81619(13) 0.5791(3) 0.07598(11)
C13_3 C 0.80214(19) 0.5745(4) 0.02051(15)
N12_3 N 0.69628(15) 0.4041(4) 0.00361(13)
C19_3 C 0.61558(19) 0.2478(4) 0.00670(16)
N14_3 N 0.65009(16) 0.2952(4) 0.06456(13)
C20_3 C 0.70000(19) 0.3933(5) 0.06080(16)
H8_3 H 0.7338 0.4486 0.0935
N22_3 N 0.91228(16) 0.7194(4) 0.03300(13)
N23_3 N 0.93268(16) 0.8711(4) 0.02146(13)
C23_3 C 0.99387(18) 0.8906(4) 0.06551(16)
C24_3 C 0.96218(18) 0.6582(5) 0.08240(15)
H12_3 H 0.9598 0.5549 0.0991
N1_3 N 0.80372(15) 0.0959(4) 0.99639(13)
C7_3 C 0.88442(19) 0.2522(4) 0.99330(16)
N3_3 N 0.84991(16) 0.2048(4) 0.93544(13)
C8_3 C 0.80000(19) 0.1067(5) 0.93920(16)
H2_3 H 0.7662 0.0514 0.9065
O7_3 O 0.60434(13) 0.5065(3) 0.86030(12)
C14_3 C 0.73964(18) 0.4936(4) 0.97910(16)
O8_3 O 0.66769(14) 0.2991(3) 0.85126(12)
C15_3 C 0.72445(18) 0.5014(4) 0.91824(15)
O9_3 O 0.94206(14) 0.6642(4) 0.92353(12)
C16_3 C 0.76935(18) 0.5808(4) 0.89407(15)
C17_3 C 0.83172(18) 0.6493(4) 0.93328(15)
O10_3 O 0.85996(14) 0.8361(3) 0.87338(11)
C18_3 C 0.84848(18) 0.6461(4) 0.99427(15)
N13_3 N 0.64126(15) 0.3079(4) 0.96833(13)
H7_3 H 0.5757 0.1763 0.9953
N15_3 N 0.65975(16) 0.4284(4) 0.87359(13)
N16_3 N 0.75335(16) 0.5858(4) 0.83156(13)
N17_3 N 0.79965(17) 0.5208(4) 0.80717(13)
C21_3 C 0.7708(2) 0.5651(5) 0.75094(16)
H9_3 H 0.7913 0.5386 0.7221
C22_3 C 0.7006(2) 0.6640(5) 0.78918(16)
H10_3 H 0.6624 0.7201 0.7953
N21_3 N 0.88178(15) 0.7230(4) 0.90812(13)
O2_3 O 0.89566(13) 0.9935(3) 0.13970(12)
C3_3 C 0.77555(18) 0.9986(4) 0.08176(15)
O4_3 O 0.55794(14) 0.8358(4) 0.07647(12)
C4_3 C 0.73065(18) 0.9192(4) 0.10593(15)
C5_3 C 0.66828(18) 0.8507(4) 0.06672(15)
O5_3 O 0.64004(14) 0.6639(3) 0.12662(11)
C6_3 C 0.65152(18) 0.8539(4) 0.00573(15)
N5_3 N 0.74665(16) 0.9142(4) 0.16844(13)
N6_3 N 0.70035(17) 0.9792(4) 0.19283(13)
C9_3 C 0.7292(2) 0.9349(5) 0.24906(16)
H3_3 H 0.7087 0.9614 0.2779
C10_3 C 0.7994(2) 0.8360(5) 0.21082(16)
H4_3 H 0.8376 0.7799 0.2047
N8_3 N 0.61822(15) 0.7770(4) 0.09188(13)
O1_3 O 0.68381(13) 0.9209(3) 0.92402(11)
C1_3 C 0.69786(19) 0.9255(4) 0.97949(15)
N9_3 N 0.58772(16) 0.7806(4) 0.96700(13)
N10_3 N 0.56732(16) 0.6289(4) 0.97854(13)
C11_3 C 0.50613(18) 0.6094(4) 0.93449(16)
H5_3 H 0.4783 0.5135 0.9298
C12_3 C 0.53782(18) 0.8418(5) 0.91760(15)
H6_3 H 0.5402 0.9451 0.9009
C2_4 C 0.23964(18) 0.0064(4) 0.47910(16)
O3_4 O 0.16769(14) 0.2009(3) 0.35126(12)
N1_4 N 0.19628(15) 0.0959(4) 0.50361(13)
N2_4 N 0.14126(15) 0.1921(4) 0.46833(13)
C7_4 C 0.11558(19) 0.2522(4) 0.50670(16)
H1_4 H 0.0757 0.3237 0.4953
N3_4 N 0.15009(16) 0.2048(4) 0.56456(13)
C8_4 C 0.20000(19) 0.1067(5) 0.56080(16)
H2_4 H 0.2338 0.0514 0.5935
N4_4 N 0.15975(16) 0.0716(4) 0.37359(13)
O6_4 O 0.18381(13) 0.5791(3) 0.42402(11)
C13_4 C 0.19786(19) 0.5745(4) 0.47949(15)
O7_4 O 0.39566(13) 0.5065(3) 0.63970(12)
C14_4 C 0.26036(18) 0.4936(4) 0.52090(16)
O8_4 O 0.33231(14) 0.2991(3) 0.64874(12)
C15_4 C 0.27555(18) 0.5014(4) 0.58176(15)
O9_4 O 0.05794(14) 0.6642(4) 0.57647(12)
C16_4 C 0.23065(18) 0.5808(4) 0.60593(15)
C17_4 C 0.16828(18) 0.6493(4) 0.56672(15)
O10_4 O 0.14004(14) 0.8361(3) 0.62662(11)
C18_4 C 0.15152(18) 0.6461(4) 0.50573(15)
N12_4 N 0.30372(15) 0.4041(4) 0.49639(13)
N13_4 N 0.35874(15) 0.3079(4) 0.53167(13)
C19_4 C 0.38442(19) 0.2478(4) 0.49330(16)
H7_4 H 0.4243 0.1763 0.5047
N14_4 N 0.34991(16) 0.2952(4) 0.43544(13)
C20_4 C 0.30000(19) 0.3933(5) 0.43920(16)
H8_4 H 0.2662 0.4486 0.4065
N15_4 N 0.34025(16) 0.4284(4) 0.62641(13)
N16_4 N 0.24665(16) 0.5858(4) 0.66844(13)
N17_4 N 0.20035(17) 0.5208(4) 0.69283(13)
C21_4 C 0.2292(2) 0.5651(5) 0.74906(16)
H9_4 H 0.2087 0.5386 0.7779
C22_4 C 0.2994(2) 0.6640(5) 0.71082(16)
H10_4 H 0.3376 0.7201 0.7047
N21_4 N 0.11822(15) 0.7230(4) 0.59188(13)
N22_4 N 0.08772(16) 0.7194(4) 0.46700(13)
N23_4 N 0.06732(16) 0.8711(4) 0.47854(13)
C23_4 C 0.00613(18) 0.8906(4) 0.43449(16)
C24_4 C 0.03782(18) 0.6582(5) 0.41760(15)
H12_4 H 0.0402 0.5549 0.4009
O1_4 O 0.31619(13) 0.9209(3) 0.57598(11)
C1_4 C 0.30214(19) 0.9255(4) 0.52051(15)
O2_4 O 0.10434(13) 0.9935(3) 0.36030(12)
C3_4 C 0.22445(18) 0.9986(4) 0.41824(15)
O4_4 O 0.44206(14) 0.8358(4) 0.42353(12)
C4_4 C 0.26935(18) 0.9192(4) 0.39407(15)
C5_4 C 0.33172(18) 0.8507(4) 0.43328(15)
O5_4 O 0.35996(14) 0.6639(3) 0.37338(11)
C6_4 C 0.34848(18) 0.8539(4) 0.49427(15)
N5_4 N 0.25335(16) 0.9142(4) 0.33156(13)
N6_4 N 0.29965(17) 0.9792(4) 0.30717(13)
C9_4 C 0.2708(2) 0.9349(5) 0.25094(16)
H3_4 H 0.2913 0.9614 0.2221
C10_4 C 0.2006(2) 0.8360(5) 0.28918(16)
H4_4 H 0.1624 0.7799 0.2953
N8_4 N 0.38178(15) 0.7770(4) 0.40812(13)
N9_4 N 0.41228(16) 0.7806(4) 0.53300(13)
N10_4 N 0.43268(16) 0.6289(4) 0.52146(13)
C11_4 C 0.49387(18) 0.6094(4) 0.56551(16)
H5_4 H 0.5217 0.5135 0.5702
C12_4 C 0.46218(18) 0.8418(5) 0.58240(15)
H6_4 H 0.4598 0.9451 0.5991
H11_4 H 0.9783 0.9865 0.4298
loop_
_geom_bond_atom_site_label_1
_geom_bond_atom_site_label_2
_geom_bond_site_symmetry_1
_geom_bond_site_symmetry_2
Ag6 N24 1_555 1_555
O6 C13 1_555 1_555
N23 N22 1_555 1_555
C23 N23 1_555 1_555
H11 C23 1_555 1_555
N24 C23 1_555 1_555
C24 N22 1_555 1_555
H12 C24 1_555 1_555
N24 C24 1_555 1_555
Ag5 N18 1_555 1_555
C15 C16 1_555 1_555
O9 N21 1_555 1_555
C16 C17 1_555 1_555
C17 C18 1_555 1_555
O10 N21 1_555 1_555
N16 C16 1_555 1_555
C21 N17 1_555 1_555
H9 C21 1_555 1_555
N18 C21 1_555 1_555
C22 N16 1_555 1_555
H10 C22 1_555 1_555
N21 C17 1_555 1_555
N16 N17 1_555 1_555
N18 C22 1_555 1_555
O2 N4 1_555 1_555
C2 C3 1_555 1_555
O3 N4 1_555 1_555
C3 C4 1_555 1_555
O4 N8 1_555 1_555
C4 C5 1_555 1_555
C5 C6 1_555 1_555
O5 N8 1_555 1_555
N4 C3 1_555 1_555
N5 C4 1_555 1_555
N6 N5 1_555 1_555
C9 N6 1_555 1_555
H3 C9 1_555 1_555
N7 C9 1_555 1_555
C10 N5 1_555 1_555
H4 C10 1_555 1_555
N8 C5 1_555 1_555
Ag2 N6 1_555 1_555
Ag3 N7 1_555 1_555
N14 Ag2 1_555 1_555
C20 N12 1_555 1_555
H8 C20 1_555 1_555
N20 Ag2 1_555 1_555
N26 Ag2 1_555 1_555
N7 C10 1_555 1_555
C19 N14 1_555 1_555
N14 C20 1_555 1_555
Ag1 N3 1_555 1_555
O1 C1 1_555 1_555
N3 C7 1_555 1_555
C8 N1 1_555 1_555
H2 C8 1_555 1_555
N10 N9 1_555 1_555
C11 N10 1_555 1_555
C12 N9 1_555 1_555
H6 C12 1_555 1_555
O8 N15 1_555 1_555
N19 Ag1 1_555 1_555
N25 Ag1 1_555 1_555
N3 C8 1_555 1_555
Ag4 N11 1_555 1_555
Ag5 N11_2 1_555 1_555
Ag4 N18_2 1_555 1_555
Ag3 N24_2 1_555 1_555
O6_2 C13_2 1_555 1_555
C15_2 C16_2 1_555 1_555
O9_2 N21_2 1_555 1_555
C16_2 C17_2 1_555 1_555
C17_2 C18_2 1_555 1_555
O10_2 N21_2 1_555 1_555
C18_2 C13_2 1_555 1_555
N16_2 C16_2 1_555 1_555
C21_2 N17_2 1_555 1_555
H9_2 C21_2 1_555 1_555
N18_2 C21_2 1_555 1_555
C22_2 N16_2 1_555 1_555
H10_2 C22_2 1_555 1_555
N21_2 C17_2 1_555 1_555
N22_2 C18_2 1_555 1_555
N23_2 N22_2 1_555 1_555
C23_2 N23_2 1_555 1_555
H11_2 C23_2 1_555 1_555
N24_2 C23_2 1_555 1_555
C24_2 N22_2 1_555 1_555
H12_2 C24_2 1_555 1_555
N16_2 N17_2 1_555 1_555
N18_2 C22_2 1_555 1_555
N24_2 C24_2 1_555 1_555
Ag1_2 N3_2 1_555 1_555
O1_2 C1_2 1_555 1_555
C1_2 C2_2 1_555 1_555
O2_2 N4_2 1_555 1_555
C2_2 C3_2 1_555 1_555
O3_2 N4_2 1_555 1_555
C3_2 C4_2 1_555 1_555
O4_2 N8_2 1_555 1_555
C4_2 C5_2 1_555 1_555
C5_2 C6_2 1_555 1_555
O5_2 N8_2 1_555 1_555
C6_2 C1_2 1_555 1_555
N1_2 C2_2 1_555 1_555
N2_2 N1_2 1_555 1_555
C7_2 N2_2 1_555 1_555
H1_2 C7_2 1_555 1_555
N3_2 C7_2 1_555 1_555
C8_2 N1_2 1_555 1_555
H2_2 C8_2 1_555 1_555
N4_2 C3_2 1_555 1_555
N5_2 C4_2 1_555 1_555
N6_2 N5_2 1_555 1_555
C9_2 N6_2 1_555 1_555
H3_2 C9_2 1_555 1_555
N7_2 C9_2 1_555 1_555
C10_2 N5_2 1_555 1_555
H4_2 C10_2 1_555 1_555
N8_2 C5_2 1_555 1_555
N9_2 C6_2 1_555 1_555
N10_2 N9_2 1_555 1_555
C11_2 N10_2 1_555 1_555
C12_2 N9_2 1_555 1_555
H6_2 C12_2 1_555 1_555
Ag2_2 N6_2 1_555 1_555
Ag6 N7_2 1_555 1_555
O8_2 N15_2 1_555 1_555
N12_2 C14_2 1_555 1_555
N13_2 N12_2 1_555 1_555
C19_2 N13_2 1_555 1_555
H7_2 C19_2 1_555 1_555
N14_2 Ag2_2 1_555 1_555
C20_2 N12_2 1_555 1_555
H8_2 C20_2 1_555 1_555
N19_2 Ag1_2 1_555 1_555
N20_2 Ag2_2 1_555 1_555
N25_2 Ag1_2 1_555 1_555
N26_2 Ag2_2 1_555 1_555
N3_2 C8_2 1_555 1_555
N7_2 C10_2 1_555 1_555
C19_2 N14_2 1_555 1_555
N14_2 C20_2 1_555 1_555
O3_3 N4_3 1_555 1_555
O6_3 C13_3 1_555 1_555
N14_3 Ag6 1_555 1_555
C20_3 N12_3 1_555 1_555
H8_3 C20_3 1_555 1_555
N23_3 N22_3 1_555 1_555
C23_3 N23_3 1_555 1_555
C24_3 N22_3 1_555 1_555
H12_3 C24_3 1_555 1_555
C19_3 N14_3 1_555 1_555
N14_3 C20_3 1_555 1_555
Ag4 N3_3 1_555 1_555
N3_3 C7_3 1_555 1_555
C8_3 N1_3 1_555 1_555
H2_3 C8_3 1_555 1_555
O7_3 N15_3 1_555 1_555
C14_3 C15_3 1_555 1_555
O8_3 N15_3 1_555 1_555
C15_3 C16_3 1_555 1_555
O9_3 N21_3 1_555 1_555
C16_3 C17_3 1_555 1_555
C17_3 C18_3 1_555 1_555
O10_3 N21_3 1_555 1_555
N15_3 C15_3 1_555 1_555
N16_3 C16_3 1_555 1_555
N17_3 Ag4 1_555 1_555
C21_3 N17_3 1_555 1_555
H9_3 C21_3 1_555 1_555
N19_2 C21_3 1_555 1_555
C22_3 N16_3 1_555 1_555
H10_3 C22_3 1_555 1_555
N21_3 C17_3 1_555 1_555
N3_3 C8_3 1_555 1_555
N16_3 N17_3 1_555 1_555
N19_2 C22_3 1_555 1_555
C3_3 C4_3 1_555 1_555
O4_3 N8_3 1_555 1_555
C4_3 C5_3 1_555 1_555
C5_3 C6_3 1_555 1_555
O5_3 N8_3 1_555 1_555
N5_3 C4_3 1_555 1_555
N6_3 N5_3 1_555 1_555
C9_3 N6_3 1_555 1_555
H3_3 C9_3 1_555 1_555
N20_2 C9_3 1_555 1_555
C10_3 N5_3 1_555 1_555
H4_3 C10_3 1_555 1_555
N8_3 C5_3 1_555 1_555
N20_2 C10_3 1_555 1_555
O1_3 C1_3 1_555 1_555
N10_3 N9_3 1_555 1_555
C11_3 N10_3 1_555 1_555
H5_3 C11_3 1_555 1_555
N25 C11_3 1_555 1_555
C12_3 N9_3 1_555 1_555
H6_3 C12_3 1_555 1_555
N25 C12_3 1_555 1_555
Ag5 N3_4 1_555 1_555
O3_4 N4_4 1_555 1_555
N1_4 C2_4 1_555 1_555
N2_4 N1_4 1_555 1_555
C7_4 N2_4 1_555 1_555
H1_4 C7_4 1_555 1_555
N3_4 C7_4 1_555 1_555
C8_4 N1_4 1_555 1_555
H2_4 C8_4 1_555 1_555
O6_4 C13_4 1_555 1_555
C13_4 C14_4 1_555 1_555
O7_4 N15_4 1_555 1_555
C14_4 C15_4 1_555 1_555
O8_4 N15_4 1_555 1_555
C15_4 C16_4 1_555 1_555
O9_4 N21_4 1_555 1_555
C16_4 C17_4 1_555 1_555
C17_4 C18_4 1_555 1_555
O10_4 N21_4 1_555 1_555
C18_4 C13_4 1_555 1_555
N12_4 C14_4 1_555 1_555
N13_4 N12_4 1_555 1_555
C19_4 N13_4 1_555 1_555
H7_4 C19_4 1_555 1_555
N14_4 Ag3 1_555 1_555
C20_4 N12_4 1_555 1_555
H8_4 C20_4 1_555 1_555
N15_4 C15_4 1_555 1_555
N16_4 C16_4 1_555 1_555
N17_4 Ag5 1_555 1_555
C21_4 N17_4 1_555 1_555
H9_4 C21_4 1_555 1_555
N19 C21_4 1_555 1_555
C22_4 N16_4 1_555 1_555
H10_4 C22_4 1_555 1_555
N21_4 C17_4 1_555 1_555
N22_4 C18_4 1_555 1_555
N23_4 N22_4 1_555 1_555
C23_4 N23_4 1_555 1_555
C24_4 N22_4 1_555 1_555
H12_4 C24_4 1_555 1_555
N3_4 C8_4 1_555 1_555
C19_4 N14_4 1_555 1_555
N14_4 C20_4 1_555 1_555
N16_4 N17_4 1_555 1_555
N19 C22_4 1_555 1_555
O1_4 C1_4 1_555 1_555
C3_4 C4_4 1_555 1_555
O4_4 N8_4 1_555 1_555
C4_4 C5_4 1_555 1_555
C5_4 C6_4 1_555 1_555
O5_4 N8_4 1_555 1_555
C6_4 C1_4 1_555 1_555
N5_4 C4_4 1_555 1_555
N6_4 N5_4 1_555 1_555
C9_4 N6_4 1_555 1_555
H3_4 C9_4 1_555 1_555
N20 C9_4 1_555 1_555
C10_4 N5_4 1_555 1_555
H4_4 C10_4 1_555 1_555
N8_4 C5_4 1_555 1_555
N9_4 C6_4 1_555 1_555
N10_4 N9_4 1_555 1_555
C11_4 N10_4 1_555 1_555
H5_4 C11_4 1_555 1_555
N25_2 C11_4 1_555 1_555
C12_4 N9_4 1_555 1_555
H6_4 C12_4 1_555 1_555
N20 C10_4 1_555 1_555
N25_2 C12_4 1_555 1_555

#END
