
###############################################################################
#
# This file contains modified crystal structure data generated from the
# MOF subset of the Cambridge Structural Database (CSD) v543 
# hosted by the Cambridge Crystallographic Data Centre (CCDC).
#
# This work is licensed under the Creative Commons
# Attribution-NonCommercial-ShareAlike 4.0 International License.
# To view a copy of this license, visit
# http://creativecommons.org/licenses/by-nc-sa/4.0/
# or send a letter to
# Creative Commons, PO Box 1866, Mountain View, CA 94042, USA.
#
# CIF created using the CSD Python API on 29 September 2022
# The structure has been converted into the P1 space group
# The structure has a 3D framework
# The original CSD entry MUKRIW is in the cubic crystal system
# The framework has been calculated to contain at least 10.0% void space
# The void calculation uses a probe of radius 1.32A, grid spacing 0.4
# The framework is charged, counterions have been retained in the structure
#
###############################################################################

data_MUKRIW
_chemical_formula_moiety         '(C168 H72 N24 O48 Ti8 8-)n'
_symmetry_cell_setting           triclinic
_symmetry_space_group_name_H-M   'P 1'
_symmetry_Int_Tables_number      1
_space_group_name_Hall           'P 1'
loop_
_symmetry_equiv_pos_site_id
_symmetry_equiv_pos_as_xyz
1 x,y,z
_cell_length_a                   20.9953(3)
_cell_length_b                   20.9953(3)
_cell_length_c                   20.9953(3)
_cell_angle_alpha                90
_cell_angle_beta                 90
_cell_angle_gamma                90
_cell_volume                     9254.78
loop_
_atom_site_label
_atom_site_type_symbol
_atom_site_fract_x
_atom_site_fract_y
_atom_site_fract_z
Ti1 Ti 0.19443(6) 0.30557(6) 0.69443(6)
O1 O 0.2244(2) 0.36258(18) 0.6273(2)
O2 O 0.2703(2) 0.2595(2) 0.6666(2)
N1 N 0.3543(2) 0.4306(3) 0.4346(3)
C1 C 0.3824(3) 0.3783(3) 0.4575(3)
C2 C 0.3029(3) 0.3733(3) 0.5428(3)
H1 H 0.285832 0.411382 0.527868
C3 C 0.2755(3) 0.3422(3) 0.5945(3)
C4 C 0.3547(3) 0.3473(3) 0.5145(3)
C5 C 0.3022(4) 0.2855(3) 0.6163(3)
C6 C 0.3571(4) 0.2613(3) 0.5891(4)
H2 H 0.376212 0.224875 0.605593
C7 C 0.3834(3) 0.2923(3) 0.5369(3)
H3 H 0.419664 0.276276 0.517189
O3 O 0.6273(2) 0.2244(2) 0.36258(18)
O4 O 0.6666(2) 0.2703(2) 0.2595(2)
N2 N 0.4346(3) 0.3543(2) 0.4306(3)
C8 C 0.4575(3) 0.3824(3) 0.3783(3)
C9 C 0.5428(3) 0.3029(3) 0.3733(3)
H4 H 0.527868 0.285832 0.411382
C10 C 0.5945(3) 0.2755(3) 0.3422(3)
C11 C 0.5145(3) 0.3547(3) 0.3473(3)
C12 C 0.6163(3) 0.3022(4) 0.2855(3)
C13 C 0.5891(4) 0.3571(4) 0.2613(3)
H5 H 0.605593 0.376212 0.224875
C14 C 0.5369(3) 0.3834(3) 0.2923(3)
H6 H 0.517189 0.419664 0.276276
O5 O 0.36258(18) 0.6273(2) 0.2244(2)
O6 O 0.2595(2) 0.6666(2) 0.2703(2)
N3 N 0.4306(3) 0.4346(3) 0.3543(2)
C15 C 0.3783(3) 0.4575(3) 0.3824(3)
C16 C 0.3733(3) 0.5428(3) 0.3029(3)
H7 H 0.411382 0.527868 0.285832
C17 C 0.3422(3) 0.5945(3) 0.2755(3)
C18 C 0.3473(3) 0.5145(3) 0.3547(3)
C19 C 0.2855(3) 0.6163(3) 0.3022(4)
C20 C 0.2613(3) 0.5891(4) 0.3571(4)
H8 H 0.224875 0.605593 0.376212
C21 C 0.2923(3) 0.5369(3) 0.3834(3)
H9 H 0.276276 0.517189 0.419664
Ti2 Ti 0.30557(6) 0.69443(6) 0.19443(6)
Ti3 Ti 0.69443(6) 0.19443(6) 0.30557(6)
O7 O 0.1273(2) 0.2756(2) 0.63742(18)
O8 O 0.13742(18) 0.3727(2) 0.7244(2)
O9 O 0.1666(2) 0.2297(2) 0.7405(2)
O10 O 0.2405(2) 0.3334(2) 0.7703(2)
O1_2 O 0.2756(2) 0.63742(18) 0.1273(2)
O2_2 O 0.2297(2) 0.7405(2) 0.1666(2)
C2_2 C 0.1971(3) 0.6267(3) 0.0428(3)
H1_2 H 0.214168 0.588618 0.027868
C3_2 C 0.2245(3) 0.6578(3) 0.0945(3)
C4_2 C 0.1453(3) 0.6527(3) 0.0145(3)
C5_2 C 0.1978(4) 0.7145(3) 0.1163(3)
C6_2 C 0.1429(4) 0.7387(3) 0.0891(4)
H2_2 H 0.123788 0.775125 0.105593
C7_2 C 0.1166(3) 0.7077(3) 0.0369(3)
H3_2 H 0.080336 0.723724 0.017189
O7_2 O 0.3727(2) 0.7244(2) 0.13742(18)
O9_2 O 0.3334(2) 0.7703(2) 0.2405(2)
N1_2 N 0.1457(2) 0.5694(3) 0.9346(3)
C1_2 C 0.1176(3) 0.6217(3) 0.9575(3)
N2_2 N 0.0654(3) 0.6457(2) 0.9306(3)
C8_2 C 0.0425(3) 0.6176(3) 0.8783(3)
N3_2 N 0.0694(3) 0.5654(3) 0.8543(2)
C15_2 C 0.1217(3) 0.5425(3) 0.8824(3)
C16_2 C 0.1267(3) 0.4572(3) 0.8029(3)
H7_2 H 0.088618 0.472132 0.785832
C17_2 C 0.1578(3) 0.4055(3) 0.7755(3)
C18_2 C 0.1527(3) 0.4855(3) 0.8547(3)
C19_2 C 0.2145(3) 0.3837(3) 0.8022(4)
C20_2 C 0.2387(3) 0.4109(4) 0.8571(4)
H8_2 H 0.275125 0.394407 0.876212
C21_2 C 0.2077(3) 0.4631(3) 0.8834(3)
H9_2 H 0.223724 0.482811 0.919664
O5_2 O 0.63742(18) 0.1273(2) 0.2756(2)
O6_2 O 0.7405(2) 0.1666(2) 0.2297(2)
C16_3 C 0.6267(3) 0.0428(3) 0.1971(3)
H7_3 H 0.588618 0.027868 0.214168
C17_3 C 0.6578(3) 0.0945(3) 0.2245(3)
C18_3 C 0.6527(3) 0.0145(3) 0.1453(3)
C19_3 C 0.7145(3) 0.1163(3) 0.1978(4)
C20_3 C 0.7387(3) 0.0891(4) 0.1429(4)
H8_3 H 0.775125 0.105593 0.123788
C21_3 C 0.7077(3) 0.0369(3) 0.1166(3)
H9_3 H 0.723724 0.017189 0.080336
N1_3 N 0.6457(2) 0.9306(3) 0.0654(3)
C1_3 C 0.6176(3) 0.8783(3) 0.0425(3)
N2_3 N 0.5654(3) 0.8543(2) 0.0694(3)
C8_3 C 0.5425(3) 0.8824(3) 0.1217(3)
C9_2 C 0.4572(3) 0.8029(3) 0.1267(3)
H4_2 H 0.472132 0.785832 0.088618
C10_2 C 0.4055(3) 0.7755(3) 0.1578(3)
C11_2 C 0.4855(3) 0.8547(3) 0.1527(3)
C12_2 C 0.3837(3) 0.8022(4) 0.2145(3)
C13_2 C 0.4109(4) 0.8571(4) 0.2387(3)
H5_2 H 0.394407 0.876212 0.275125
C14_2 C 0.4631(3) 0.8834(3) 0.2077(3)
H6_2 H 0.482811 0.919664 0.223724
N3_3 N 0.5694(3) 0.9346(3) 0.1457(2)
C15_3 C 0.6217(3) 0.9575(3) 0.1176(3)
C9_3 C 0.0428(3) 0.1971(3) 0.6267(3)
H4_3 H 0.027868 0.214168 0.588618
C10_3 C 0.0945(3) 0.2245(3) 0.6578(3)
C11_3 C 0.0145(3) 0.1453(3) 0.6527(3)
C12_3 C 0.1163(3) 0.1978(4) 0.7145(3)
C13_3 C 0.0891(4) 0.1429(4) 0.7387(3)
H5_3 H 0.105593 0.123788 0.775125
C14_3 C 0.0369(3) 0.1166(3) 0.7077(3)
H6_3 H 0.017189 0.080336 0.723724
O1_3 O 0.7244(2) 0.13742(18) 0.3727(2)
O2_3 O 0.7703(2) 0.2405(2) 0.3334(2)
N1_4 N 0.8543(2) 0.0694(3) 0.5654(3)
C1_4 C 0.8824(3) 0.1217(3) 0.5425(3)
C2_3 C 0.8029(3) 0.1267(3) 0.4572(3)
H1_3 H 0.785832 0.088618 0.472132
C3_3 C 0.7755(3) 0.1578(3) 0.4055(3)
C4_3 C 0.8547(3) 0.1527(3) 0.4855(3)
C5_3 C 0.8022(4) 0.2145(3) 0.3837(3)
C6_3 C 0.8571(4) 0.2387(3) 0.4109(4)
H2_3 H 0.876212 0.275125 0.394407
C7_3 C 0.8834(3) 0.2077(3) 0.4631(3)
H3_3 H 0.919664 0.223724 0.482811
N2_4 N 0.9346(3) 0.1457(2) 0.5694(3)
C8_4 C 0.9575(3) 0.1176(3) 0.6217(3)
N3_4 N 0.9306(3) 0.0654(3) 0.6457(2)
C15_4 C 0.8783(3) 0.0425(3) 0.6176(3)
O3_2 O 0.8727(2) 0.7756(2) 0.86258(18)
O4_2 O 0.8334(2) 0.7297(2) 0.7595(2)
C9_4 C 0.9572(3) 0.6971(3) 0.8733(3)
H4_4 H 0.972132 0.714168 0.911382
C10_4 C 0.9055(3) 0.7245(3) 0.8422(3)
C11_4 C 0.9855(3) 0.6453(3) 0.8473(3)
C12_4 C 0.8837(3) 0.6978(4) 0.7855(3)
C13_4 C 0.9109(4) 0.6429(4) 0.7613(3)
H5_4 H 0.894407 0.623788 0.724875
C14_4 C 0.9631(3) 0.6166(3) 0.7923(3)
H6_4 H 0.982811 0.580336 0.776276
Ti3_2 Ti 0.80557(6) 0.80557(6) 0.80557(6)
O1_4 O 0.7756(2) 0.86258(18) 0.8727(2)
O2_4 O 0.7297(2) 0.7595(2) 0.8334(2)
C2_4 C 0.6971(3) 0.8733(3) 0.9572(3)
H1_4 H 0.714168 0.911382 0.972132
C3_4 C 0.7245(3) 0.8422(3) 0.9055(3)
C4_4 C 0.6453(3) 0.8473(3) 0.9855(3)
C5_4 C 0.6978(4) 0.7855(3) 0.8837(3)
C6_4 C 0.6429(4) 0.7613(3) 0.9109(4)
H2_4 H 0.623788 0.724875 0.894407
C7_4 C 0.6166(3) 0.7923(3) 0.9631(3)
H3_4 H 0.580336 0.776276 0.982811
O8_2 O 0.86258(18) 0.8727(2) 0.7756(2)
O10_2 O 0.7595(2) 0.8334(2) 0.7297(2)
C16_4 C 0.8733(3) 0.9572(3) 0.6971(3)
H7_4 H 0.911382 0.972132 0.714168
C17_4 C 0.8422(3) 0.9055(3) 0.7245(3)
C18_4 C 0.8473(3) 0.9855(3) 0.6453(3)
C19_4 C 0.7855(3) 0.8837(3) 0.6978(4)
C20_4 C 0.7613(3) 0.9109(4) 0.6429(4)
H8_4 H 0.724875 0.894407 0.623788
C21_4 C 0.7923(3) 0.9631(3) 0.6166(3)
H9_4 H 0.776276 0.982811 0.580336
Ti1_2 Ti 0.80557(6) 0.69443(6) 0.30557(6)
O1_5 O 0.7756(2) 0.63742(18) 0.3727(2)
O2_5 O 0.7297(2) 0.7405(2) 0.3334(2)
N1_5 N 0.6457(2) 0.5694(3) 0.5654(3)
C1_5 C 0.6176(3) 0.6217(3) 0.5425(3)
C2_5 C 0.6971(3) 0.6267(3) 0.4572(3)
H1_5 H 0.714168 0.588618 0.472132
C3_5 C 0.7245(3) 0.6578(3) 0.4055(3)
C4_5 C 0.6453(3) 0.6527(3) 0.4855(3)
C5_5 C 0.6978(4) 0.7145(3) 0.3837(3)
C6_5 C 0.6429(4) 0.7387(3) 0.4109(4)
H2_5 H 0.623788 0.775125 0.394407
C7_5 C 0.6166(3) 0.7077(3) 0.4631(3)
H3_5 H 0.580336 0.723724 0.482811
O3_3 O 0.3727(2) 0.7756(2) 0.63742(18)
O4_3 O 0.3334(2) 0.7297(2) 0.7405(2)
N2_5 N 0.5654(3) 0.6457(2) 0.5694(3)
C8_5 C 0.5425(3) 0.6176(3) 0.6217(3)
C9_5 C 0.4572(3) 0.6971(3) 0.6267(3)
H4_5 H 0.472132 0.714168 0.588618
C10_5 C 0.4055(3) 0.7245(3) 0.6578(3)
C11_5 C 0.4855(3) 0.6453(3) 0.6527(3)
C12_5 C 0.3837(3) 0.6978(4) 0.7145(3)
C13_5 C 0.4109(4) 0.6429(4) 0.7387(3)
H5_5 H 0.394407 0.623788 0.775125
C14_5 C 0.4631(3) 0.6166(3) 0.7077(3)
H6_5 H 0.482811 0.580336 0.723724
O5_3 O 0.63742(18) 0.3727(2) 0.7756(2)
O6_3 O 0.7405(2) 0.3334(2) 0.7297(2)
N3_5 N 0.5694(3) 0.5654(3) 0.6457(2)
C15_5 C 0.6217(3) 0.5425(3) 0.6176(3)
C16_5 C 0.6267(3) 0.4572(3) 0.6971(3)
H7_5 H 0.588618 0.472132 0.714168
C17_5 C 0.6578(3) 0.4055(3) 0.7245(3)
C18_5 C 0.6527(3) 0.4855(3) 0.6453(3)
C19_5 C 0.7145(3) 0.3837(3) 0.6978(4)
C20_5 C 0.7387(3) 0.4109(4) 0.6429(4)
H8_5 H 0.775125 0.394407 0.623788
C21_5 C 0.7077(3) 0.4631(3) 0.6166(3)
H9_5 H 0.723724 0.482811 0.580336
Ti2_2 Ti 0.69443(6) 0.30557(6) 0.80557(6)
Ti3_3 Ti 0.30557(6) 0.80557(6) 0.69443(6)
O7_3 O 0.8727(2) 0.7244(2) 0.36258(18)
O8_3 O 0.86258(18) 0.6273(2) 0.2756(2)
O9_3 O 0.8334(2) 0.7703(2) 0.2595(2)
O10_3 O 0.7595(2) 0.6666(2) 0.2297(2)
N1_6 N 0.8543(2) 0.4306(3) 0.0654(3)
C1_6 C 0.8824(3) 0.3783(3) 0.0425(3)
N2_6 N 0.9346(3) 0.3543(2) 0.0694(3)
C8_6 C 0.9575(3) 0.3824(3) 0.1217(3)
N3_6 N 0.9306(3) 0.4346(3) 0.1457(2)
C15_6 C 0.8783(3) 0.4575(3) 0.1176(3)
C16_6 C 0.8733(3) 0.5428(3) 0.1971(3)
H7_6 H 0.911382 0.527868 0.214168
C17_6 C 0.8422(3) 0.5945(3) 0.2245(3)
C18_6 C 0.8473(3) 0.5145(3) 0.1453(3)
C19_6 C 0.7855(3) 0.6163(3) 0.1978(4)
C20_6 C 0.7613(3) 0.5891(4) 0.1429(4)
H8_6 H 0.724875 0.605593 0.123788
C21_6 C 0.7923(3) 0.5369(3) 0.1166(3)
H9_6 H 0.776276 0.517189 0.080336
O1_6 O 0.7244(2) 0.36258(18) 0.8727(2)
O2_6 O 0.7703(2) 0.2595(2) 0.8334(2)
C2_6 C 0.8029(3) 0.3733(3) 0.9572(3)
H1_6 H 0.785832 0.411382 0.972132
C3_6 C 0.7755(3) 0.3422(3) 0.9055(3)
C4_6 C 0.8547(3) 0.3473(3) 0.9855(3)
C5_6 C 0.8022(4) 0.2855(3) 0.8837(3)
C6_6 C 0.8571(4) 0.2613(3) 0.9109(4)
H2_6 H 0.876212 0.224875 0.894407
C7_6 C 0.8834(3) 0.2923(3) 0.9631(3)
H3_6 H 0.919664 0.276276 0.982811
O7_4 O 0.6273(2) 0.2756(2) 0.86258(18)
O9_4 O 0.6666(2) 0.2297(2) 0.7595(2)
N1_7 N 0.3543(2) 0.0694(3) 0.9346(3)
C1_7 C 0.3824(3) 0.1217(3) 0.9575(3)
N2_7 N 0.4346(3) 0.1457(2) 0.9306(3)
C8_7 C 0.4575(3) 0.1176(3) 0.8783(3)
C9_6 C 0.5428(3) 0.1971(3) 0.8733(3)
H4_6 H 0.527868 0.214168 0.911382
C10_6 C 0.5945(3) 0.2245(3) 0.8422(3)
C11_6 C 0.5145(3) 0.1453(3) 0.8473(3)
C12_6 C 0.6163(3) 0.1978(4) 0.7855(3)
C13_6 C 0.5891(4) 0.1429(4) 0.7613(3)
H5_6 H 0.605593 0.123788 0.724875
C14_6 C 0.5369(3) 0.1166(3) 0.7923(3)
H6_6 H 0.517189 0.080336 0.776276
N3_7 N 0.4306(3) 0.0654(3) 0.8543(2)
C15_7 C 0.3783(3) 0.0425(3) 0.8824(3)
O5_4 O 0.36258(18) 0.8727(2) 0.7244(2)
O6_4 O 0.2595(2) 0.8334(2) 0.7703(2)
C16_7 C 0.3733(3) 0.9572(3) 0.8029(3)
H7_7 H 0.411382 0.972132 0.785832
C17_7 C 0.3422(3) 0.9055(3) 0.7755(3)
C18_7 C 0.3473(3) 0.9855(3) 0.8547(3)
C19_7 C 0.2855(3) 0.8837(3) 0.8022(4)
C20_7 C 0.2613(3) 0.9109(4) 0.8571(4)
H8_7 H 0.224875 0.894407 0.876212
C21_7 C 0.2923(3) 0.9631(3) 0.8834(3)
H9_7 H 0.276276 0.982811 0.919664
O1_7 O 0.2756(2) 0.86258(18) 0.6273(2)
O2_7 O 0.2297(2) 0.7595(2) 0.6666(2)
N1_8 N 0.1457(2) 0.9306(3) 0.4346(3)
C1_8 C 0.1176(3) 0.8783(3) 0.4575(3)
C2_7 C 0.1971(3) 0.8733(3) 0.5428(3)
H1_7 H 0.214168 0.911382 0.527868
C3_7 C 0.2245(3) 0.8422(3) 0.5945(3)
C4_7 C 0.1453(3) 0.8473(3) 0.5145(3)
C5_7 C 0.1978(4) 0.7855(3) 0.6163(3)
C6_7 C 0.1429(4) 0.7613(3) 0.5891(4)
H2_7 H 0.123788 0.724875 0.605593
C7_7 C 0.1166(3) 0.7923(3) 0.5369(3)
H3_7 H 0.080336 0.776276 0.517189
N2_8 N 0.0654(3) 0.8543(2) 0.4306(3)
C8_8 C 0.0425(3) 0.8824(3) 0.3783(3)
N3_8 N 0.0694(3) 0.9346(3) 0.3543(2)
C15_8 C 0.1217(3) 0.9575(3) 0.3824(3)
C9_7 C 0.9572(3) 0.8029(3) 0.3733(3)
H4_7 H 0.972132 0.785832 0.411382
C10_7 C 0.9055(3) 0.7755(3) 0.3422(3)
C11_7 C 0.9855(3) 0.8547(3) 0.3473(3)
C12_7 C 0.8837(3) 0.8022(4) 0.2855(3)
C13_7 C 0.9109(4) 0.8571(4) 0.2613(3)
H5_7 H 0.894407 0.876212 0.224875
C14_7 C 0.9631(3) 0.8834(3) 0.2923(3)
H6_7 H 0.982811 0.919664 0.276276
O3_4 O 0.1273(2) 0.2244(2) 0.13742(18)
O4_4 O 0.1666(2) 0.2703(2) 0.2405(2)
C9_8 C 0.0428(3) 0.3029(3) 0.1267(3)
H4_8 H 0.027868 0.285832 0.088618
C10_8 C 0.0945(3) 0.2755(3) 0.1578(3)
C11_8 C 0.0145(3) 0.3547(3) 0.1527(3)
C12_8 C 0.1163(3) 0.3022(4) 0.2145(3)
C13_8 C 0.0891(4) 0.3571(4) 0.2387(3)
H5_8 H 0.105593 0.376212 0.275125
C14_8 C 0.0369(3) 0.3834(3) 0.2077(3)
H6_8 H 0.017189 0.419664 0.223724
Ti3_4 Ti 0.19443(6) 0.19443(6) 0.19443(6)
O1_8 O 0.2244(2) 0.13742(18) 0.1273(2)
O2_8 O 0.2703(2) 0.2405(2) 0.1666(2)
C2_8 C 0.3029(3) 0.1267(3) 0.0428(3)
H1_8 H 0.285832 0.088618 0.027868
C3_8 C 0.2755(3) 0.1578(3) 0.0945(3)
C4_8 C 0.3547(3) 0.1527(3) 0.0145(3)
C5_8 C 0.3022(4) 0.2145(3) 0.1163(3)
C6_8 C 0.3571(4) 0.2387(3) 0.0891(4)
H2_8 H 0.376212 0.275125 0.105593
C7_8 C 0.3834(3) 0.2077(3) 0.0369(3)
H3_8 H 0.419664 0.223724 0.017189
O8_4 O 0.13742(18) 0.1273(2) 0.2244(2)
O10_4 O 0.2405(2) 0.1666(2) 0.2703(2)
C16_8 C 0.1267(3) 0.0428(3) 0.3029(3)
H7_8 H 0.088618 0.027868 0.285832
C17_8 C 0.1578(3) 0.0945(3) 0.2755(3)
C18_8 C 0.1527(3) 0.0145(3) 0.3547(3)
C19_8 C 0.2145(3) 0.1163(3) 0.3022(4)
C20_8 C 0.2387(3) 0.0891(4) 0.3571(4)
H8_8 H 0.275125 0.105593 0.376212
C21_8 C 0.2077(3) 0.0369(3) 0.3834(3)
H9_8 H 0.223724 0.017189 0.419664
loop_
_geom_bond_atom_site_label_1
_geom_bond_atom_site_label_2
_geom_bond_site_symmetry_1
_geom_bond_site_symmetry_2
Ti1 O1 1_555 1_555
O1 C3 1_555 1_555
O2 Ti1 1_555 1_555
N1 C1 1_555 1_555
C1 C4 1_555 1_555
C2 H1 1_555 1_555
C3 C2 1_555 1_555
C4 C2 1_555 1_555
C5 O2 1_555 1_555
C6 C5 1_555 1_555
H2 C6 1_555 1_555
C7 C4 1_555 1_555
H3 C7 1_555 1_555
O3 C10 1_555 1_555
O4 C12 1_555 1_555
N2 C1 1_555 1_555
C8 N2 1_555 1_555
C9 H4 1_555 1_555
C10 C9 1_555 1_555
C11 C8 1_555 1_555
C12 C10 1_555 1_555
C13 C12 1_555 1_555
H5 C13 1_555 1_555
C14 C11 1_555 1_555
H6 C14 1_555 1_555
O5 C17 1_555 1_555
O6 C19 1_555 1_555
N3 C8 1_555 1_555
C15 N1 1_555 1_555
C16 H7 1_555 1_555
C17 C16 1_555 1_555
C18 C15 1_555 1_555
C19 C17 1_555 1_555
C20 C19 1_555 1_555
H8 C20 1_555 1_555
C21 C18 1_555 1_555
H9 C21 1_555 1_555
Ti2 O5 1_555 1_555
Ti3 O3 1_555 1_555
O7 Ti1 1_555 1_555
O8 Ti1 1_555 1_555
O9 Ti1 1_555 1_555
O10 Ti1 1_555 1_555
C3 C5 1_555 1_555
C6 C7 1_555 1_555
O4 Ti3 1_555 1_555
C9 C11 1_555 1_555
C13 C14 1_555 1_555
O6 Ti2 1_555 1_555
N3 C15 1_555 1_555
C16 C18 1_555 1_555
C20 C21 1_555 1_555
Ti2 O1_2 1_555 1_555
O1_2 C3_2 1_555 1_555
O2_2 Ti2 1_555 1_555
C2_2 H1_2 1_555 1_555
C3_2 C2_2 1_555 1_555
C4_2 C2_2 1_555 1_555
C5_2 O2_2 1_555 1_555
C6_2 C5_2 1_555 1_555
H2_2 C6_2 1_555 1_555
C7_2 C4_2 1_555 1_555
H3_2 C7_2 1_555 1_555
O7_2 Ti2 1_555 1_555
O9_2 Ti2 1_555 1_555
C3_2 C5_2 1_555 1_555
C6_2 C7_2 1_555 1_555
N1_2 C1_2 1_555 1_555
N2_2 C1_2 1_555 1_555
C8_2 N2_2 1_555 1_555
O8 C17_2 1_555 1_555
O10 C19_2 1_555 1_555
N3_2 C8_2 1_555 1_555
C15_2 N1_2 1_555 1_555
C16_2 H7_2 1_555 1_555
C17_2 C16_2 1_555 1_555
C18_2 C15_2 1_555 1_555
C19_2 C17_2 1_555 1_555
C20_2 C19_2 1_555 1_555
H8_2 C20_2 1_555 1_555
C21_2 C18_2 1_555 1_555
H9_2 C21_2 1_555 1_555
N3_2 C15_2 1_555 1_555
C16_2 C18_2 1_555 1_555
C20_2 C21_2 1_555 1_555
O5_2 C17_3 1_555 1_555
O6_2 C19_3 1_555 1_555
C16_3 H7_3 1_555 1_555
C17_3 C16_3 1_555 1_555
C19_3 C17_3 1_555 1_555
C20_3 C19_3 1_555 1_555
H8_3 C20_3 1_555 1_555
C21_3 C18_3 1_555 1_555
H9_3 C21_3 1_555 1_555
Ti3 O5_2 1_555 1_555
O6_2 Ti3 1_555 1_555
C16_3 C18_3 1_555 1_555
C20_3 C21_3 1_555 1_555
N1_3 C1_3 1_555 1_555
O7_2 C10_2 1_555 1_555
O9_2 C12_2 1_555 1_555
N2_3 C1_3 1_555 1_555
C8_3 N2_3 1_555 1_555
C9_2 H4_2 1_555 1_555
C10_2 C9_2 1_555 1_555
C11_2 C8_3 1_555 1_555
C12_2 C10_2 1_555 1_555
C13_2 C12_2 1_555 1_555
H5_2 C13_2 1_555 1_555
C14_2 C11_2 1_555 1_555
H6_2 C14_2 1_555 1_555
N3_3 C8_3 1_555 1_555
C15_3 N1_3 1_555 1_555
C9_2 C11_2 1_555 1_555
C13_2 C14_2 1_555 1_555
N3_3 C15_3 1_555 1_555
O7 C10_3 1_555 1_555
O9 C12_3 1_555 1_555
C9_3 H4_3 1_555 1_555
C10_3 C9_3 1_555 1_555
C12_3 C10_3 1_555 1_555
C13_3 C12_3 1_555 1_555
H5_3 C13_3 1_555 1_555
C14_3 C11_3 1_555 1_555
H6_3 C14_3 1_555 1_555
C9_3 C11_3 1_555 1_555
C13_3 C14_3 1_555 1_555
Ti3 O1_3 1_555 1_555
O1_3 C3_3 1_555 1_555
O2_3 Ti3 1_555 1_555
N1_4 C1_4 1_555 1_555
C1_4 C4_3 1_555 1_555
C2_3 H1_3 1_555 1_555
C3_3 C2_3 1_555 1_555
C4_3 C2_3 1_555 1_555
C5_3 O2_3 1_555 1_555
C6_3 C5_3 1_555 1_555
H2_3 C6_3 1_555 1_555
C7_3 C4_3 1_555 1_555
H3_3 C7_3 1_555 1_555
N2_4 C1_4 1_555 1_555
C8_4 N2_4 1_555 1_555
N3_4 C8_4 1_555 1_555
C15_4 N1_4 1_555 1_555
C3_3 C5_3 1_555 1_555
C6_3 C7_3 1_555 1_555
N3_4 C15_4 1_555 1_555
O3_2 C10_4 1_555 1_555
O4_2 C12_4 1_555 1_555
C9_4 H4_4 1_555 1_555
C10_4 C9_4 1_555 1_555
C12_4 C10_4 1_555 1_555
C13_4 C12_4 1_555 1_555
H5_4 C13_4 1_555 1_555
C14_4 C11_4 1_555 1_555
H6_4 C14_4 1_555 1_555
Ti3_2 O3_2 1_555 1_555
O4_2 Ti3_2 1_555 1_555
C9_4 C11_4 1_555 1_555
C13_4 C14_4 1_555 1_555
Ti3_2 O1_4 1_555 1_555
O1_4 C3_4 1_555 1_555
O2_4 Ti3_2 1_555 1_555
C2_4 H1_4 1_555 1_555
C3_4 C2_4 1_555 1_555
C4_4 C2_4 1_555 1_555
C5_4 O2_4 1_555 1_555
C6_4 C5_4 1_555 1_555
H2_4 C6_4 1_555 1_555
C7_4 C4_4 1_555 1_555
H3_4 C7_4 1_555 1_555
O8_2 Ti3_2 1_555 1_555
O10_2 Ti3_2 1_555 1_555
C3_4 C5_4 1_555 1_555
C6_4 C7_4 1_555 1_555
O8_2 C17_4 1_555 1_555
O10_2 C19_4 1_555 1_555
C16_4 H7_4 1_555 1_555
C17_4 C16_4 1_555 1_555
C19_4 C17_4 1_555 1_555
C20_4 C19_4 1_555 1_555
H8_4 C20_4 1_555 1_555
C21_4 C18_4 1_555 1_555
H9_4 C21_4 1_555 1_555
C16_4 C18_4 1_555 1_555
C20_4 C21_4 1_555 1_555
Ti1_2 O1_5 1_555 1_555
O1_5 C3_5 1_555 1_555
O2_5 Ti1_2 1_555 1_555
N1_5 C1_5 1_555 1_555
C1_5 C4_5 1_555 1_555
C2_5 H1_5 1_555 1_555
C3_5 C2_5 1_555 1_555
C4_5 C2_5 1_555 1_555
C5_5 O2_5 1_555 1_555
C6_5 C5_5 1_555 1_555
H2_5 C6_5 1_555 1_555
C7_5 C4_5 1_555 1_555
H3_5 C7_5 1_555 1_555
O3_3 C10_5 1_555 1_555
O4_3 C12_5 1_555 1_555
N2_5 C1_5 1_555 1_555
C8_5 N2_5 1_555 1_555
C9_5 H4_5 1_555 1_555
C10_5 C9_5 1_555 1_555
C11_5 C8_5 1_555 1_555
C12_5 C10_5 1_555 1_555
C13_5 C12_5 1_555 1_555
H5_5 C13_5 1_555 1_555
C14_5 C11_5 1_555 1_555
H6_5 C14_5 1_555 1_555
O5_3 C17_5 1_555 1_555
O6_3 C19_5 1_555 1_555
N3_5 C8_5 1_555 1_555
C15_5 N1_5 1_555 1_555
C16_5 H7_5 1_555 1_555
C17_5 C16_5 1_555 1_555
C18_5 C15_5 1_555 1_555
C19_5 C17_5 1_555 1_555
C20_5 C19_5 1_555 1_555
H8_5 C20_5 1_555 1_555
C21_5 C18_5 1_555 1_555
H9_5 C21_5 1_555 1_555
Ti2_2 O5_3 1_555 1_555
Ti3_3 O3_3 1_555 1_555
O7_3 Ti1_2 1_555 1_555
O8_3 Ti1_2 1_555 1_555
O9_3 Ti1_2 1_555 1_555
O10_3 Ti1_2 1_555 1_555
C3_5 C5_5 1_555 1_555
C6_5 C7_5 1_555 1_555
O4_3 Ti3_3 1_555 1_555
C9_5 C11_5 1_555 1_555
C13_5 C14_5 1_555 1_555
O6_3 Ti2_2 1_555 1_555
N3_5 C15_5 1_555 1_555
C16_5 C18_5 1_555 1_555
C20_5 C21_5 1_555 1_555
N1_6 C1_6 1_555 1_555
N2_6 C1_6 1_555 1_555
C8_6 N2_6 1_555 1_555
O8_3 C17_6 1_555 1_555
O10_3 C19_6 1_555 1_555
N3_6 C8_6 1_555 1_555
C15_6 N1_6 1_555 1_555
C16_6 H7_6 1_555 1_555
C17_6 C16_6 1_555 1_555
C18_6 C15_6 1_555 1_555
C19_6 C17_6 1_555 1_555
C20_6 C19_6 1_555 1_555
H8_6 C20_6 1_555 1_555
C21_6 C18_6 1_555 1_555
H9_6 C21_6 1_555 1_555
N3_6 C15_6 1_555 1_555
C16_6 C18_6 1_555 1_555
C20_6 C21_6 1_555 1_555
Ti2_2 O1_6 1_555 1_555
O1_6 C3_6 1_555 1_555
O2_6 Ti2_2 1_555 1_555
C2_6 H1_6 1_555 1_555
C3_6 C2_6 1_555 1_555
C4_6 C2_6 1_555 1_555
C5_6 O2_6 1_555 1_555
C6_6 C5_6 1_555 1_555
H2_6 C6_6 1_555 1_555
C7_6 C4_6 1_555 1_555
H3_6 C7_6 1_555 1_555
O7_4 Ti2_2 1_555 1_555
O9_4 Ti2_2 1_555 1_555
C3_6 C5_6 1_555 1_555
C6_6 C7_6 1_555 1_555
N1_7 C1_7 1_555 1_555
O7_4 C10_6 1_555 1_555
O9_4 C12_6 1_555 1_555
N2_7 C1_7 1_555 1_555
C8_7 N2_7 1_555 1_555
C9_6 H4_6 1_555 1_555
C10_6 C9_6 1_555 1_555
C11_6 C8_7 1_555 1_555
C12_6 C10_6 1_555 1_555
C13_6 C12_6 1_555 1_555
H5_6 C13_6 1_555 1_555
C14_6 C11_6 1_555 1_555
H6_6 C14_6 1_555 1_555
N3_7 C8_7 1_555 1_555
C15_7 N1_7 1_555 1_555
C9_6 C11_6 1_555 1_555
C13_6 C14_6 1_555 1_555
N3_7 C15_7 1_555 1_555
O5_4 C17_7 1_555 1_555
O6_4 C19_7 1_555 1_555
C16_7 H7_7 1_555 1_555
C17_7 C16_7 1_555 1_555
C19_7 C17_7 1_555 1_555
C20_7 C19_7 1_555 1_555
H8_7 C20_7 1_555 1_555
C21_7 C18_7 1_555 1_555
H9_7 C21_7 1_555 1_555
Ti3_3 O5_4 1_555 1_555
O6_4 Ti3_3 1_555 1_555
C16_7 C18_7 1_555 1_555
C20_7 C21_7 1_555 1_555
Ti3_3 O1_7 1_555 1_555
O1_7 C3_7 1_555 1_555
O2_7 Ti3_3 1_555 1_555
N1_8 C1_8 1_555 1_555
C1_8 C4_7 1_555 1_555
C2_7 H1_7 1_555 1_555
C3_7 C2_7 1_555 1_555
C4_7 C2_7 1_555 1_555
C5_7 O2_7 1_555 1_555
C6_7 C5_7 1_555 1_555
H2_7 C6_7 1_555 1_555
C7_7 C4_7 1_555 1_555
H3_7 C7_7 1_555 1_555
N2_8 C1_8 1_555 1_555
C8_8 N2_8 1_555 1_555
N3_8 C8_8 1_555 1_555
C15_8 N1_8 1_555 1_555
C3_7 C5_7 1_555 1_555
C6_7 C7_7 1_555 1_555
N3_8 C15_8 1_555 1_555
O7_3 C10_7 1_555 1_555
O9_3 C12_7 1_555 1_555
C9_7 H4_7 1_555 1_555
C10_7 C9_7 1_555 1_555
C12_7 C10_7 1_555 1_555
C13_7 C12_7 1_555 1_555
H5_7 C13_7 1_555 1_555
C14_7 C11_7 1_555 1_555
H6_7 C14_7 1_555 1_555
C9_7 C11_7 1_555 1_555
C13_7 C14_7 1_555 1_555
O3_4 C10_8 1_555 1_555
O4_4 C12_8 1_555 1_555
C9_8 H4_8 1_555 1_555
C10_8 C9_8 1_555 1_555
C12_8 C10_8 1_555 1_555
C13_8 C12_8 1_555 1_555
H5_8 C13_8 1_555 1_555
C14_8 C11_8 1_555 1_555
H6_8 C14_8 1_555 1_555
Ti3_4 O3_4 1_555 1_555
O4_4 Ti3_4 1_555 1_555
C9_8 C11_8 1_555 1_555
C13_8 C14_8 1_555 1_555
Ti3_4 O1_8 1_555 1_555
O1_8 C3_8 1_555 1_555
O2_8 Ti3_4 1_555 1_555
C2_8 H1_8 1_555 1_555
C3_8 C2_8 1_555 1_555
C4_8 C2_8 1_555 1_555
C5_8 O2_8 1_555 1_555
C6_8 C5_8 1_555 1_555
H2_8 C6_8 1_555 1_555
C7_8 C4_8 1_555 1_555
H3_8 C7_8 1_555 1_555
O8_4 Ti3_4 1_555 1_555
O10_4 Ti3_4 1_555 1_555
C3_8 C5_8 1_555 1_555
C6_8 C7_8 1_555 1_555
O8_4 C17_8 1_555 1_555
O10_4 C19_8 1_555 1_555
C16_8 H7_8 1_555 1_555
C17_8 C16_8 1_555 1_555
C19_8 C17_8 1_555 1_555
C20_8 C19_8 1_555 1_555
H8_8 C20_8 1_555 1_555
C21_8 C18_8 1_555 1_555
H9_8 C21_8 1_555 1_555
C16_8 C18_8 1_555 1_555
C20_8 C21_8 1_555 1_555

#END
