
###############################################################################
#
# This file contains modified crystal structure data generated from the
# MOF subset of the Cambridge Structural Database (CSD) v543 
# hosted by the Cambridge Crystallographic Data Centre (CCDC).
#
# This work is licensed under the Creative Commons
# Attribution-NonCommercial-ShareAlike 4.0 International License.
# To view a copy of this license, visit
# http://creativecommons.org/licenses/by-nc-sa/4.0/
# or send a letter to
# Creative Commons, PO Box 1866, Mountain View, CA 94042, USA.
#
# CIF created using the CSD Python API on 29 September 2022
# The structure has been converted into the P1 space group
# The structure has a 3D framework
# The original CSD entry MUKRIW02 is in the cubic crystal system
# The framework has been calculated to contain at least 10.0% void space
# The void calculation uses a probe of radius 1.32A, grid spacing 0.4
# The framework is charged, counterions have been retained in the structure
#
###############################################################################

data_MUKRIW02
_chemical_formula_moiety         '(C168 H72 N24 O48 Ti8 8-)n'
_symmetry_cell_setting           triclinic
_symmetry_space_group_name_H-M   'P 1'
_symmetry_Int_Tables_number      1
_space_group_name_Hall           'P 1'
loop_
_symmetry_equiv_pos_site_id
_symmetry_equiv_pos_as_xyz
1 x,y,z
_cell_length_a                   21.1222(4)
_cell_length_b                   21.1222(4)
_cell_length_c                   21.1222(4)
_cell_angle_alpha                90
_cell_angle_beta                 90
_cell_angle_gamma                90
_cell_volume                     9423.61
loop_
_atom_site_label
_atom_site_type_symbol
_atom_site_fract_x
_atom_site_fract_y
_atom_site_fract_z
Ti1 Ti 0.68997(7) 0.81003(7) 0.18997(7)
O1 O 0.6232(2) 0.7800(3) 0.1358(2)
O2 O 0.6625(3) 0.7357(3) 0.2385(2)
N1 N 0.4284(4) 0.5686(4) 0.1479(3)
C1 C 0.4557(4) 0.6197(4) 0.1220(5)
C2 C 0.5114(4) 0.6472(4) 0.1534(4)
C3 C 0.5393(4) 0.7029(4) 0.1263(4)
H1 H 0.522943 0.720884 0.089654
C4 C 0.5912(4) 0.7288(4) 0.1564(4)
C5 C 0.6138(4) 0.7035(4) 0.2125(4)
C6 C 0.5854(4) 0.6485(5) 0.2377(4)
H2 H 0.600708 0.631071 0.275142
C7 C 0.5373(4) 0.6217(4) 0.2084(4)
H3 H 0.520122 0.584728 0.224976
O3 O 0.3642(2) 0.3768(2) 0.2800(3)
O4 O 0.2615(2) 0.3375(3) 0.2357(3)
N2 N 0.3521(3) 0.5716(4) 0.0686(4)
C8 C 0.3780(5) 0.5443(4) 0.1197(4)
C9 C 0.3466(4) 0.4886(4) 0.1472(4)
C10 C 0.3737(4) 0.4607(4) 0.2029(4)
H4 H 0.410346 0.477057 0.220884
C11 C 0.3436(4) 0.4088(4) 0.2288(4)
C12 C 0.2875(4) 0.3862(4) 0.2035(4)
C13 C 0.2623(4) 0.4146(4) 0.1485(5)
H5 H 0.224858 0.399292 0.131071
C14 C 0.2916(4) 0.4627(4) 0.1217(4)
H6 H 0.275024 0.479878 0.084728
N3 N 0.4314(4) 0.6479(3) 0.0716(4)
C15 C 0.3803(4) 0.6220(5) 0.0443(4)
Ti2 Ti 0.31003(7) 0.31003(7) 0.31003(7)
O7 O 0.6358(2) 0.8768(2) 0.2200(3)
O8 O 0.7200(3) 0.8642(2) 0.1232(2)
O9 O 0.7385(2) 0.8375(3) 0.2643(3)
O10 O 0.7643(3) 0.7615(2) 0.1625(3)
O5 O 0.2200(3) 0.6358(2) 0.8768(2)
O6 O 0.2643(3) 0.7385(2) 0.8375(3)
C16 C 0.3528(4) 0.6534(4) 0.9886(4)
C17 C 0.2971(4) 0.6263(4) 0.9607(4)
H7 H 0.279116 0.589654 0.977057
C18 C 0.2712(4) 0.6564(4) 0.9088(4)
C19 C 0.2965(4) 0.7125(4) 0.8862(4)
C20 C 0.3515(5) 0.7377(4) 0.9146(4)
H8 H 0.368929 0.775142 0.899292
C21 C 0.3783(4) 0.7084(4) 0.9627(4)
H9 H 0.415272 0.724976 0.979878
Ti3 Ti 0.18997(7) 0.68997(7) 0.81003(7)
N1_2 N 0.0716(4) 0.4314(4) 0.6479(3)
C1_2 C 0.0443(4) 0.3803(4) 0.6220(5)
O3_2 O 0.1358(2) 0.6232(2) 0.7800(3)
O4_2 O 0.2385(2) 0.6625(3) 0.7357(3)
N2_2 N 0.1479(3) 0.4284(4) 0.5686(4)
C8_2 C 0.1220(5) 0.4557(4) 0.6197(4)
C9_2 C 0.1534(4) 0.5114(4) 0.6472(4)
C10_2 C 0.1263(4) 0.5393(4) 0.7029(4)
H4_2 H 0.089654 0.522943 0.720884
C11_2 C 0.1564(4) 0.5912(4) 0.7288(4)
C12_2 C 0.2125(4) 0.6138(4) 0.7035(4)
C13_2 C 0.2377(4) 0.5854(4) 0.6485(5)
H5_2 H 0.275142 0.600708 0.631071
C14_2 C 0.2084(4) 0.5373(4) 0.6217(4)
H6_2 H 0.224976 0.520122 0.584728
O5_2 O 0.2800(3) 0.3642(2) 0.3768(2)
O6_2 O 0.2357(3) 0.2615(2) 0.3375(3)
N3_2 N 0.0686(4) 0.3521(3) 0.5716(4)
C15_2 C 0.1197(4) 0.3780(5) 0.5443(4)
C16_2 C 0.1472(4) 0.3466(4) 0.4886(4)
C17_2 C 0.2029(4) 0.3737(4) 0.4607(4)
H7_2 H 0.220884 0.410346 0.477057
C18_2 C 0.2288(4) 0.3436(4) 0.4088(4)
C19_2 C 0.2035(4) 0.2875(4) 0.3862(4)
C20_2 C 0.1485(5) 0.2623(4) 0.4146(4)
H8_2 H 0.131071 0.224858 0.399292
C21_2 C 0.1217(4) 0.2916(4) 0.4627(4)
H9_2 H 0.084728 0.275024 0.479878
Ti1_2 Ti 0.81003(7) 0.18997(7) 0.68997(7)
O1_2 O 0.8768(2) 0.2200(3) 0.6358(2)
O2_2 O 0.8375(3) 0.2643(3) 0.7385(2)
C2_2 C 0.9886(4) 0.3528(4) 0.6534(4)
C3_2 C 0.9607(4) 0.2971(4) 0.6263(4)
H1_2 H 0.977057 0.279116 0.589654
C4_2 C 0.9088(4) 0.2712(4) 0.6564(4)
C5_2 C 0.8862(4) 0.2965(4) 0.7125(4)
C6_2 C 0.9146(4) 0.3515(5) 0.7377(4)
H2_2 H 0.899292 0.368929 0.775142
C7_2 C 0.9627(4) 0.3783(4) 0.7084(4)
H3_2 H 0.979878 0.415272 0.724976
O7_2 O 0.8642(2) 0.1232(2) 0.7200(3)
O8_2 O 0.7800(3) 0.1358(2) 0.6232(2)
O9_2 O 0.7615(2) 0.1625(3) 0.7643(3)
O10_2 O 0.7357(3) 0.2385(2) 0.6625(3)
O1_3 O 0.3768(2) 0.2800(3) 0.3642(2)
O2_3 O 0.3375(3) 0.2357(3) 0.2615(2)
N1_3 N 0.5716(4) 0.0686(4) 0.3521(3)
C1_3 C 0.5443(4) 0.1197(4) 0.3780(5)
C2_3 C 0.4886(4) 0.1472(4) 0.3466(4)
C3_3 C 0.4607(4) 0.2029(4) 0.3737(4)
H1_3 H 0.477057 0.220884 0.410346
C4_3 C 0.4088(4) 0.2288(4) 0.3436(4)
C5_3 C 0.3862(4) 0.2035(4) 0.2875(4)
C6_3 C 0.4146(4) 0.1485(5) 0.2623(4)
H2_3 H 0.399292 0.131071 0.224858
C7_3 C 0.4627(4) 0.1217(4) 0.2916(4)
H3_3 H 0.479878 0.084728 0.275024
N2_3 N 0.6479(3) 0.0716(4) 0.4314(4)
C8_3 C 0.6220(5) 0.0443(4) 0.3803(4)
N3_3 N 0.5686(4) 0.1479(3) 0.4284(4)
C15_3 C 0.6197(4) 0.1220(5) 0.4557(4)
C16_3 C 0.6472(4) 0.1534(4) 0.5114(4)
C17_3 C 0.7029(4) 0.1263(4) 0.5393(4)
H7_3 H 0.720884 0.089654 0.522943
C18_3 C 0.7288(4) 0.1564(4) 0.5912(4)
C19_3 C 0.7035(4) 0.2125(4) 0.6138(4)
C20_3 C 0.6485(5) 0.2377(4) 0.5854(4)
H8_3 H 0.631071 0.275142 0.600708
C21_3 C 0.6217(4) 0.2084(4) 0.5373(4)
H9_3 H 0.584728 0.224976 0.520122
C9_3 C 0.6534(4) 0.9886(4) 0.3528(4)
C10_3 C 0.6263(4) 0.9607(4) 0.2971(4)
H4_3 H 0.589654 0.977057 0.279116
C11_3 C 0.6564(4) 0.9088(4) 0.2712(4)
C12_3 C 0.7125(4) 0.8862(4) 0.2965(4)
C13_3 C 0.7377(4) 0.9146(4) 0.3515(5)
H5_3 H 0.775142 0.899292 0.368929
C14_3 C 0.7084(4) 0.9627(4) 0.3783(4)
H6_3 H 0.724976 0.979878 0.415272
O1_4 O 0.1232(2) 0.7200(3) 0.8642(2)
O2_4 O 0.1625(3) 0.7643(3) 0.7615(2)
C2_4 C 0.0114(4) 0.8528(4) 0.8466(4)
C3_4 C 0.0393(4) 0.7971(4) 0.8737(4)
H1_4 H 0.022943 0.779116 0.910346
C4_4 C 0.0912(4) 0.7712(4) 0.8436(4)
C5_4 C 0.1138(4) 0.7965(4) 0.7875(4)
C6_4 C 0.0854(4) 0.8515(5) 0.7623(4)
H2_4 H 0.100708 0.868929 0.724858
C7_4 C 0.0373(4) 0.8783(4) 0.7916(4)
H3_4 H 0.020122 0.915272 0.775024
C9_4 C 0.8466(4) 0.0114(4) 0.8528(4)
C10_4 C 0.8737(4) 0.0393(4) 0.7971(4)
H4_4 H 0.910346 0.022943 0.779116
C11_4 C 0.8436(4) 0.0912(4) 0.7712(4)
C12_4 C 0.7875(4) 0.1138(4) 0.7965(4)
C13_4 C 0.7623(4) 0.0854(4) 0.8515(5)
H5_4 H 0.724858 0.100708 0.868929
C14_4 C 0.7916(4) 0.0373(4) 0.8783(4)
H6_4 H 0.775024 0.020122 0.915272
C16_4 C 0.8528(4) 0.8466(4) 0.0114(4)
C17_4 C 0.7971(4) 0.8737(4) 0.0393(4)
H7_4 H 0.779116 0.910346 0.022943
C18_4 C 0.7712(4) 0.8436(4) 0.0912(4)
C19_4 C 0.7965(4) 0.7875(4) 0.1138(4)
C20_4 C 0.8515(5) 0.7623(4) 0.0854(4)
H8_4 H 0.868929 0.724858 0.100708
C21_4 C 0.8783(4) 0.7916(4) 0.0373(4)
H9_4 H 0.915272 0.775024 0.020122
N1_4 N 0.9284(4) 0.9314(4) 0.8521(3)
C1_4 C 0.9557(4) 0.8803(4) 0.8780(5)
N2_4 N 0.8521(3) 0.9284(4) 0.9314(4)
C8_4 C 0.8780(5) 0.9557(4) 0.8803(4)
N3_4 N 0.9314(4) 0.8521(3) 0.9284(4)
C15_4 C 0.8803(4) 0.8780(5) 0.9557(4)
O5_3 O 0.7800(3) 0.3642(2) 0.1232(2)
O6_3 O 0.7357(3) 0.2615(2) 0.1625(3)
C16_5 C 0.6472(4) 0.3466(4) 0.0114(4)
C17_5 C 0.7029(4) 0.3737(4) 0.0393(4)
H7_5 H 0.720884 0.410346 0.022943
C18_5 C 0.7288(4) 0.3436(4) 0.0912(4)
C19_5 C 0.7035(4) 0.2875(4) 0.1138(4)
C20_5 C 0.6485(5) 0.2623(4) 0.0854(4)
H8_5 H 0.631071 0.224858 0.100708
C21_5 C 0.6217(4) 0.2916(4) 0.0373(4)
H9_5 H 0.584728 0.275024 0.020122
Ti3_2 Ti 0.81003(7) 0.31003(7) 0.18997(7)
Ti1_3 Ti 0.31003(7) 0.18997(7) 0.81003(7)
O1_5 O 0.3768(2) 0.2200(3) 0.8642(2)
O2_5 O 0.3375(3) 0.2643(3) 0.7615(2)
N1_5 N 0.5716(4) 0.4314(4) 0.8521(3)
C1_5 C 0.5443(4) 0.3803(4) 0.8780(5)
C2_5 C 0.4886(4) 0.3528(4) 0.8466(4)
C3_5 C 0.4607(4) 0.2971(4) 0.8737(4)
H1_5 H 0.477057 0.279116 0.910346
C4_5 C 0.4088(4) 0.2712(4) 0.8436(4)
C5_5 C 0.3862(4) 0.2965(4) 0.7875(4)
C6_5 C 0.4146(4) 0.3515(5) 0.7623(4)
H2_5 H 0.399292 0.368929 0.724858
C7_5 C 0.4627(4) 0.3783(4) 0.7916(4)
H3_5 H 0.479878 0.415272 0.775024
O3_3 O 0.6358(2) 0.6232(2) 0.7200(3)
O4_3 O 0.7385(2) 0.6625(3) 0.7643(3)
N2_5 N 0.6479(3) 0.4284(4) 0.9314(4)
C8_5 C 0.6220(5) 0.4557(4) 0.8803(4)
C9_5 C 0.6534(4) 0.5114(4) 0.8528(4)
C10_5 C 0.6263(4) 0.5393(4) 0.7971(4)
H4_5 H 0.589654 0.522943 0.779116
C11_5 C 0.6564(4) 0.5912(4) 0.7712(4)
C12_5 C 0.7125(4) 0.6138(4) 0.7965(4)
C13_5 C 0.7377(4) 0.5854(4) 0.8515(5)
H5_5 H 0.775142 0.600708 0.868929
C14_5 C 0.7084(4) 0.5373(4) 0.8783(4)
H6_5 H 0.724976 0.520122 0.915272
N3_5 N 0.5686(4) 0.3521(3) 0.9284(4)
C15_5 C 0.6197(4) 0.3780(5) 0.9557(4)
Ti2_2 Ti 0.68997(7) 0.68997(7) 0.68997(7)
O7_3 O 0.3642(2) 0.1232(2) 0.7800(3)
O8_3 O 0.2800(3) 0.1358(2) 0.8768(2)
O9_3 O 0.2615(2) 0.1625(3) 0.7357(3)
O10_3 O 0.2357(3) 0.2385(2) 0.8375(3)
Ti1_4 Ti 0.18997(7) 0.81003(7) 0.31003(7)
O1_6 O 0.1232(2) 0.7800(3) 0.3642(2)
O2_6 O 0.1625(3) 0.7357(3) 0.2615(2)
C2_6 C 0.0114(4) 0.6472(4) 0.3466(4)
C3_6 C 0.0393(4) 0.7029(4) 0.3737(4)
H1_6 H 0.022943 0.720884 0.410346
C4_6 C 0.0912(4) 0.7288(4) 0.3436(4)
C5_6 C 0.1138(4) 0.7035(4) 0.2875(4)
C6_6 C 0.0854(4) 0.6485(5) 0.2623(4)
H2_6 H 0.100708 0.631071 0.224858
C7_6 C 0.0373(4) 0.6217(4) 0.2916(4)
H3_6 H 0.020122 0.584728 0.275024
O7_4 O 0.1358(2) 0.8768(2) 0.2800(3)
O8_4 O 0.2200(3) 0.8642(2) 0.3768(2)
O9_4 O 0.2385(2) 0.8375(3) 0.2357(3)
O10_4 O 0.2643(3) 0.7615(2) 0.3375(3)
N1_6 N 0.9284(4) 0.5686(4) 0.3521(3)
C1_6 C 0.9557(4) 0.6197(4) 0.3780(5)
O3_4 O 0.8642(2) 0.3768(2) 0.2200(3)
O4_4 O 0.7615(2) 0.3375(3) 0.2643(3)
N2_6 N 0.8521(3) 0.5716(4) 0.4314(4)
C8_6 C 0.8780(5) 0.5443(4) 0.3803(4)
C9_6 C 0.8466(4) 0.4886(4) 0.3528(4)
C10_6 C 0.8737(4) 0.4607(4) 0.2971(4)
H4_6 H 0.910346 0.477057 0.279116
C11_6 C 0.8436(4) 0.4088(4) 0.2712(4)
C12_6 C 0.7875(4) 0.3862(4) 0.2965(4)
C13_6 C 0.7623(4) 0.4146(4) 0.3515(5)
H5_6 H 0.724858 0.399292 0.368929
C14_6 C 0.7916(4) 0.4627(4) 0.3783(4)
H6_6 H 0.775024 0.479878 0.415272
O5_4 O 0.7200(3) 0.6358(2) 0.6232(2)
O6_4 O 0.7643(3) 0.7385(2) 0.6625(3)
N3_6 N 0.9314(4) 0.6479(3) 0.4284(4)
C15_6 C 0.8803(4) 0.6220(5) 0.4557(4)
C16_6 C 0.8528(4) 0.6534(4) 0.5114(4)
C17_6 C 0.7971(4) 0.6263(4) 0.5393(4)
H7_6 H 0.779116 0.589654 0.522943
C18_6 C 0.7712(4) 0.6564(4) 0.5912(4)
C19_6 C 0.7965(4) 0.7125(4) 0.6138(4)
C20_6 C 0.8515(5) 0.7377(4) 0.5854(4)
H8_6 H 0.868929 0.775142 0.600708
C21_6 C 0.8783(4) 0.7084(4) 0.5373(4)
H9_6 H 0.915272 0.724976 0.520122
C9_7 C 0.3466(4) 0.0114(4) 0.6472(4)
C10_7 C 0.3737(4) 0.0393(4) 0.7029(4)
H4_7 H 0.410346 0.022943 0.720884
C11_7 C 0.3436(4) 0.0912(4) 0.7288(4)
C12_7 C 0.2875(4) 0.1138(4) 0.7035(4)
C13_7 C 0.2623(4) 0.0854(4) 0.6485(5)
H5_7 H 0.224858 0.100708 0.631071
C14_7 C 0.2916(4) 0.0373(4) 0.6217(4)
H6_7 H 0.275024 0.020122 0.584728
O1_7 O 0.6232(2) 0.7200(3) 0.6358(2)
O2_7 O 0.6625(3) 0.7643(3) 0.7385(2)
N1_7 N 0.4284(4) 0.9314(4) 0.6479(3)
C1_7 C 0.4557(4) 0.8803(4) 0.6220(5)
C2_7 C 0.5114(4) 0.8528(4) 0.6534(4)
C3_7 C 0.5393(4) 0.7971(4) 0.6263(4)
H1_7 H 0.522943 0.779116 0.589654
C4_7 C 0.5912(4) 0.7712(4) 0.6564(4)
C5_7 C 0.6138(4) 0.7965(4) 0.7125(4)
C6_7 C 0.5854(4) 0.8515(5) 0.7377(4)
H2_7 H 0.600708 0.868929 0.775142
C7_7 C 0.5373(4) 0.8783(4) 0.7084(4)
H3_7 H 0.520122 0.915272 0.724976
N2_7 N 0.3521(3) 0.9284(4) 0.5686(4)
C8_7 C 0.3780(5) 0.9557(4) 0.6197(4)
N3_7 N 0.4314(4) 0.8521(3) 0.5716(4)
C15_7 C 0.3803(4) 0.8780(5) 0.5443(4)
C16_7 C 0.3528(4) 0.8466(4) 0.4886(4)
C17_7 C 0.2971(4) 0.8737(4) 0.4607(4)
H7_7 H 0.279116 0.910346 0.477057
C18_7 C 0.2712(4) 0.8436(4) 0.4088(4)
C19_7 C 0.2965(4) 0.7875(4) 0.3862(4)
C20_7 C 0.3515(5) 0.7623(4) 0.4146(4)
H8_7 H 0.368929 0.724858 0.399292
C21_7 C 0.3783(4) 0.7916(4) 0.4627(4)
H9_7 H 0.415272 0.775024 0.479878
C16_8 C 0.1472(4) 0.1534(4) 0.9886(4)
C17_8 C 0.2029(4) 0.1263(4) 0.9607(4)
H7_8 H 0.220884 0.089654 0.977057
C18_8 C 0.2288(4) 0.1564(4) 0.9088(4)
C19_8 C 0.2035(4) 0.2125(4) 0.8862(4)
C20_8 C 0.1485(5) 0.2377(4) 0.9146(4)
H8_8 H 0.131071 0.275142 0.899292
C21_8 C 0.1217(4) 0.2084(4) 0.9627(4)
H9_8 H 0.084728 0.224976 0.979878
C9_8 C 0.1534(4) 0.9886(4) 0.1472(4)
C10_8 C 0.1263(4) 0.9607(4) 0.2029(4)
H4_8 H 0.089654 0.977057 0.220884
C11_8 C 0.1564(4) 0.9088(4) 0.2288(4)
C12_8 C 0.2125(4) 0.8862(4) 0.2035(4)
C13_8 C 0.2377(4) 0.9146(4) 0.1485(5)
H5_8 H 0.275142 0.899292 0.131071
C14_8 C 0.2084(4) 0.9627(4) 0.1217(4)
H6_8 H 0.224976 0.979878 0.084728
O1_8 O 0.8768(2) 0.2800(3) 0.1358(2)
O2_8 O 0.8375(3) 0.2357(3) 0.2385(2)
C2_8 C 0.9886(4) 0.1472(4) 0.1534(4)
C3_8 C 0.9607(4) 0.2029(4) 0.1263(4)
H1_8 H 0.977057 0.220884 0.089654
C4_8 C 0.9088(4) 0.2288(4) 0.1564(4)
C5_8 C 0.8862(4) 0.2035(4) 0.2125(4)
C6_8 C 0.9146(4) 0.1485(5) 0.2377(4)
H2_8 H 0.899292 0.131071 0.275142
C7_8 C 0.9627(4) 0.1217(4) 0.2084(4)
H3_8 H 0.979878 0.084728 0.224976
N1_8 N 0.0716(4) 0.0686(4) 0.1479(3)
C1_8 C 0.0443(4) 0.1197(4) 0.1220(5)
N2_8 N 0.1479(3) 0.0716(4) 0.0686(4)
C8_8 C 0.1220(5) 0.0443(4) 0.1197(4)
N3_8 N 0.0686(4) 0.1479(3) 0.0716(4)
C15_8 C 0.1197(4) 0.1220(5) 0.0443(4)
loop_
_geom_bond_atom_site_label_1
_geom_bond_atom_site_label_2
_geom_bond_site_symmetry_1
_geom_bond_site_symmetry_2
Ti1 O1 1_555 1_555
O1 C4 1_555 1_555
O2 Ti1 1_555 1_555
N1 C1 1_555 1_555
C1 C2 1_555 1_555
C2 C3 1_555 1_555
C3 H1 1_555 1_555
C4 C3 1_555 1_555
C5 O2 1_555 1_555
C6 C5 1_555 1_555
H2 C6 1_555 1_555
C7 C2 1_555 1_555
H3 C7 1_555 1_555
O3 C11 1_555 1_555
O4 C12 1_555 1_555
N2 C8 1_555 1_555
C8 N1 1_555 1_555
C9 C8 1_555 1_555
C10 C9 1_555 1_555
H4 C10 1_555 1_555
C11 C10 1_555 1_555
C12 C11 1_555 1_555
C13 C12 1_555 1_555
H5 C13 1_555 1_555
C14 C9 1_555 1_555
H6 C14 1_555 1_555
N3 C1 1_555 1_555
C15 N2 1_555 1_555
Ti2 O3 1_555 1_555
O7 Ti1 1_555 1_555
O8 Ti1 1_555 1_555
O9 Ti1 1_555 1_555
O10 Ti1 1_555 1_555
C4 C5 1_555 1_555
C6 C7 1_555 1_555
O4 Ti2 1_555 1_555
C13 C14 1_555 1_555
N3 C15 1_555 1_555
O5 C18 1_555 1_555
O6 C19 1_555 1_555
C17 C16 1_555 1_555
H7 C17 1_555 1_555
C18 C17 1_555 1_555
C19 C18 1_555 1_555
C20 C19 1_555 1_555
H8 C20 1_555 1_555
C21 C16 1_555 1_555
H9 C21 1_555 1_555
Ti3 O5 1_555 1_555
O6 Ti3 1_555 1_555
C20 C21 1_555 1_555
N1_2 C1_2 1_555 1_555
O3_2 C11_2 1_555 1_555
O4_2 C12_2 1_555 1_555
N2_2 C8_2 1_555 1_555
C8_2 N1_2 1_555 1_555
C9_2 C8_2 1_555 1_555
C10_2 C9_2 1_555 1_555
H4_2 C10_2 1_555 1_555
C11_2 C10_2 1_555 1_555
C12_2 C11_2 1_555 1_555
C13_2 C12_2 1_555 1_555
H5_2 C13_2 1_555 1_555
C14_2 C9_2 1_555 1_555
H6_2 C14_2 1_555 1_555
O5_2 C18_2 1_555 1_555
O6_2 C19_2 1_555 1_555
N3_2 C1_2 1_555 1_555
C15_2 N2_2 1_555 1_555
C16_2 C15_2 1_555 1_555
C17_2 C16_2 1_555 1_555
H7_2 C17_2 1_555 1_555
C18_2 C17_2 1_555 1_555
C19_2 C18_2 1_555 1_555
C20_2 C19_2 1_555 1_555
H8_2 C20_2 1_555 1_555
C21_2 C16_2 1_555 1_555
H9_2 C21_2 1_555 1_555
Ti3 O3_2 1_555 1_555
Ti2 O5_2 1_555 1_555
O4_2 Ti3 1_555 1_555
C13_2 C14_2 1_555 1_555
O6_2 Ti2 1_555 1_555
N3_2 C15_2 1_555 1_555
C20_2 C21_2 1_555 1_555
Ti1_2 O1_2 1_555 1_555
O1_2 C4_2 1_555 1_555
O2_2 Ti1_2 1_555 1_555
C2_2 C3_2 1_555 1_555
C3_2 H1_2 1_555 1_555
C4_2 C3_2 1_555 1_555
C5_2 O2_2 1_555 1_555
C6_2 C5_2 1_555 1_555
H2_2 C6_2 1_555 1_555
C7_2 C2_2 1_555 1_555
H3_2 C7_2 1_555 1_555
O7_2 Ti1_2 1_555 1_555
O8_2 Ti1_2 1_555 1_555
O9_2 Ti1_2 1_555 1_555
O10_2 Ti1_2 1_555 1_555
C4_2 C5_2 1_555 1_555
C6_2 C7_2 1_555 1_555
Ti2 O1_3 1_555 1_555
O1_3 C4_3 1_555 1_555
O2_3 Ti2 1_555 1_555
N1_3 C1_3 1_555 1_555
C1_3 C2_3 1_555 1_555
C2_3 C3_3 1_555 1_555
C3_3 H1_3 1_555 1_555
C4_3 C3_3 1_555 1_555
C5_3 O2_3 1_555 1_555
C6_3 C5_3 1_555 1_555
H2_3 C6_3 1_555 1_555
C7_3 C2_3 1_555 1_555
H3_3 C7_3 1_555 1_555
N2_3 C8_3 1_555 1_555
C8_3 N1_3 1_555 1_555
O8_2 C18_3 1_555 1_555
O10_2 C19_3 1_555 1_555
N3_3 C1_3 1_555 1_555
C15_3 N2_3 1_555 1_555
C16_3 C15_3 1_555 1_555
C17_3 C16_3 1_555 1_555
H7_3 C17_3 1_555 1_555
C18_3 C17_3 1_555 1_555
C19_3 C18_3 1_555 1_555
C20_3 C19_3 1_555 1_555
H8_3 C20_3 1_555 1_555
C21_3 C16_3 1_555 1_555
H9_3 C21_3 1_555 1_555
C4_3 C5_3 1_555 1_555
C6_3 C7_3 1_555 1_555
N3_3 C15_3 1_555 1_555
C20_3 C21_3 1_555 1_555
O7 C11_3 1_555 1_555
O9 C12_3 1_555 1_555
C10_3 C9_3 1_555 1_555
H4_3 C10_3 1_555 1_555
C11_3 C10_3 1_555 1_555
C12_3 C11_3 1_555 1_555
C13_3 C12_3 1_555 1_555
H5_3 C13_3 1_555 1_555
C14_3 C9_3 1_555 1_555
H6_3 C14_3 1_555 1_555
C13_3 C14_3 1_555 1_555
Ti3 O1_4 1_555 1_555
O1_4 C4_4 1_555 1_555
O2_4 Ti3 1_555 1_555
C2_4 C3_4 1_555 1_555
C3_4 H1_4 1_555 1_555
C4_4 C3_4 1_555 1_555
C5_4 O2_4 1_555 1_555
C6_4 C5_4 1_555 1_555
H2_4 C6_4 1_555 1_555
C7_4 C2_4 1_555 1_555
H3_4 C7_4 1_555 1_555
C4_4 C5_4 1_555 1_555
C6_4 C7_4 1_555 1_555
O7_2 C11_4 1_555 1_555
O9_2 C12_4 1_555 1_555
C10_4 C9_4 1_555 1_555
H4_4 C10_4 1_555 1_555
C11_4 C10_4 1_555 1_555
C12_4 C11_4 1_555 1_555
C13_4 C12_4 1_555 1_555
H5_4 C13_4 1_555 1_555
C14_4 C9_4 1_555 1_555
H6_4 C14_4 1_555 1_555
C13_4 C14_4 1_555 1_555
O8 C18_4 1_555 1_555
O10 C19_4 1_555 1_555
C17_4 C16_4 1_555 1_555
H7_4 C17_4 1_555 1_555
C18_4 C17_4 1_555 1_555
C19_4 C18_4 1_555 1_555
C20_4 C19_4 1_555 1_555
H8_4 C20_4 1_555 1_555
C21_4 C16_4 1_555 1_555
H9_4 C21_4 1_555 1_555
C20_4 C21_4 1_555 1_555
N1_4 C1_4 1_555 1_555
N2_4 C8_4 1_555 1_555
C8_4 N1_4 1_555 1_555
N3_4 C1_4 1_555 1_555
C15_4 N2_4 1_555 1_555
N3_4 C15_4 1_555 1_555
O5_3 C18_5 1_555 1_555
O6_3 C19_5 1_555 1_555
C17_5 C16_5 1_555 1_555
H7_5 C17_5 1_555 1_555
C18_5 C17_5 1_555 1_555
C19_5 C18_5 1_555 1_555
C20_5 C19_5 1_555 1_555
H8_5 C20_5 1_555 1_555
C21_5 C16_5 1_555 1_555
H9_5 C21_5 1_555 1_555
Ti3_2 O5_3 1_555 1_555
O6_3 Ti3_2 1_555 1_555
C20_5 C21_5 1_555 1_555
Ti1_3 O1_5 1_555 1_555
O1_5 C4_5 1_555 1_555
O2_5 Ti1_3 1_555 1_555
N1_5 C1_5 1_555 1_555
C1_5 C2_5 1_555 1_555
C2_5 C3_5 1_555 1_555
C3_5 H1_5 1_555 1_555
C4_5 C3_5 1_555 1_555
C5_5 O2_5 1_555 1_555
C6_5 C5_5 1_555 1_555
H2_5 C6_5 1_555 1_555
C7_5 C2_5 1_555 1_555
H3_5 C7_5 1_555 1_555
O3_3 C11_5 1_555 1_555
O4_3 C12_5 1_555 1_555
N2_5 C8_5 1_555 1_555
C8_5 N1_5 1_555 1_555
C9_5 C8_5 1_555 1_555
C10_5 C9_5 1_555 1_555
H4_5 C10_5 1_555 1_555
C11_5 C10_5 1_555 1_555
C12_5 C11_5 1_555 1_555
C13_5 C12_5 1_555 1_555
H5_5 C13_5 1_555 1_555
C14_5 C9_5 1_555 1_555
H6_5 C14_5 1_555 1_555
N3_5 C1_5 1_555 1_555
C15_5 N2_5 1_555 1_555
Ti2_2 O3_3 1_555 1_555
O7_3 Ti1_3 1_555 1_555
O8_3 Ti1_3 1_555 1_555
O9_3 Ti1_3 1_555 1_555
O10_3 Ti1_3 1_555 1_555
C4_5 C5_5 1_555 1_555
C6_5 C7_5 1_555 1_555
O4_3 Ti2_2 1_555 1_555
C13_5 C14_5 1_555 1_555
N3_5 C15_5 1_555 1_555
Ti1_4 O1_6 1_555 1_555
O1_6 C4_6 1_555 1_555
O2_6 Ti1_4 1_555 1_555
C2_6 C3_6 1_555 1_555
C3_6 H1_6 1_555 1_555
C4_6 C3_6 1_555 1_555
C5_6 O2_6 1_555 1_555
C6_6 C5_6 1_555 1_555
H2_6 C6_6 1_555 1_555
C7_6 C2_6 1_555 1_555
H3_6 C7_6 1_555 1_555
O7_4 Ti1_4 1_555 1_555
O8_4 Ti1_4 1_555 1_555
O9_4 Ti1_4 1_555 1_555
O10_4 Ti1_4 1_555 1_555
C4_6 C5_6 1_555 1_555
C6_6 C7_6 1_555 1_555
N1_6 C1_6 1_555 1_555
O3_4 C11_6 1_555 1_555
O4_4 C12_6 1_555 1_555
N2_6 C8_6 1_555 1_555
C8_6 N1_6 1_555 1_555
C9_6 C8_6 1_555 1_555
C10_6 C9_6 1_555 1_555
H4_6 C10_6 1_555 1_555
C11_6 C10_6 1_555 1_555
C12_6 C11_6 1_555 1_555
C13_6 C12_6 1_555 1_555
H5_6 C13_6 1_555 1_555
C14_6 C9_6 1_555 1_555
H6_6 C14_6 1_555 1_555
O5_4 C18_6 1_555 1_555
O6_4 C19_6 1_555 1_555
N3_6 C1_6 1_555 1_555
C15_6 N2_6 1_555 1_555
C16_6 C15_6 1_555 1_555
C17_6 C16_6 1_555 1_555
H7_6 C17_6 1_555 1_555
C18_6 C17_6 1_555 1_555
C19_6 C18_6 1_555 1_555
C20_6 C19_6 1_555 1_555
H8_6 C20_6 1_555 1_555
C21_6 C16_6 1_555 1_555
H9_6 C21_6 1_555 1_555
Ti3_2 O3_4 1_555 1_555
Ti2_2 O5_4 1_555 1_555
O4_4 Ti3_2 1_555 1_555
C13_6 C14_6 1_555 1_555
O6_4 Ti2_2 1_555 1_555
N3_6 C15_6 1_555 1_555
C20_6 C21_6 1_555 1_555
O7_3 C11_7 1_555 1_555
O9_3 C12_7 1_555 1_555
C10_7 C9_7 1_555 1_555
H4_7 C10_7 1_555 1_555
C11_7 C10_7 1_555 1_555
C12_7 C11_7 1_555 1_555
C13_7 C12_7 1_555 1_555
H5_7 C13_7 1_555 1_555
C14_7 C9_7 1_555 1_555
H6_7 C14_7 1_555 1_555
C13_7 C14_7 1_555 1_555
Ti2_2 O1_7 1_555 1_555
O1_7 C4_7 1_555 1_555
O2_7 Ti2_2 1_555 1_555
N1_7 C1_7 1_555 1_555
C1_7 C2_7 1_555 1_555
C2_7 C3_7 1_555 1_555
C3_7 H1_7 1_555 1_555
C4_7 C3_7 1_555 1_555
C5_7 O2_7 1_555 1_555
C6_7 C5_7 1_555 1_555
H2_7 C6_7 1_555 1_555
C7_7 C2_7 1_555 1_555
H3_7 C7_7 1_555 1_555
N2_7 C8_7 1_555 1_555
C8_7 N1_7 1_555 1_555
O8_4 C18_7 1_555 1_555
O10_4 C19_7 1_555 1_555
N3_7 C1_7 1_555 1_555
C15_7 N2_7 1_555 1_555
C16_7 C15_7 1_555 1_555
C17_7 C16_7 1_555 1_555
H7_7 C17_7 1_555 1_555
C18_7 C17_7 1_555 1_555
C19_7 C18_7 1_555 1_555
C20_7 C19_7 1_555 1_555
H8_7 C20_7 1_555 1_555
C21_7 C16_7 1_555 1_555
H9_7 C21_7 1_555 1_555
C4_7 C5_7 1_555 1_555
C6_7 C7_7 1_555 1_555
N3_7 C15_7 1_555 1_555
C20_7 C21_7 1_555 1_555
O8_3 C18_8 1_555 1_555
O10_3 C19_8 1_555 1_555
C17_8 C16_8 1_555 1_555
H7_8 C17_8 1_555 1_555
C18_8 C17_8 1_555 1_555
C19_8 C18_8 1_555 1_555
C20_8 C19_8 1_555 1_555
H8_8 C20_8 1_555 1_555
C21_8 C16_8 1_555 1_555
H9_8 C21_8 1_555 1_555
C20_8 C21_8 1_555 1_555
O7_4 C11_8 1_555 1_555
O9_4 C12_8 1_555 1_555
C10_8 C9_8 1_555 1_555
H4_8 C10_8 1_555 1_555
C11_8 C10_8 1_555 1_555
C12_8 C11_8 1_555 1_555
C13_8 C12_8 1_555 1_555
H5_8 C13_8 1_555 1_555
C14_8 C9_8 1_555 1_555
H6_8 C14_8 1_555 1_555
C13_8 C14_8 1_555 1_555
Ti3_2 O1_8 1_555 1_555
O1_8 C4_8 1_555 1_555
O2_8 Ti3_2 1_555 1_555
C2_8 C3_8 1_555 1_555
C3_8 H1_8 1_555 1_555
C4_8 C3_8 1_555 1_555
C5_8 O2_8 1_555 1_555
C6_8 C5_8 1_555 1_555
H2_8 C6_8 1_555 1_555
C7_8 C2_8 1_555 1_555
H3_8 C7_8 1_555 1_555
C4_8 C5_8 1_555 1_555
C6_8 C7_8 1_555 1_555
N1_8 C1_8 1_555 1_555
N2_8 C8_8 1_555 1_555
C8_8 N1_8 1_555 1_555
N3_8 C1_8 1_555 1_555
C15_8 N2_8 1_555 1_555
N3_8 C15_8 1_555 1_555

#END
