
###############################################################################
#
# This file contains modified crystal structure data generated from the
# MOF subset of the Cambridge Structural Database (CSD) v543 
# hosted by the Cambridge Crystallographic Data Centre (CCDC).
#
# This work is licensed under the Creative Commons
# Attribution-NonCommercial-ShareAlike 4.0 International License.
# To view a copy of this license, visit
# http://creativecommons.org/licenses/by-nc-sa/4.0/
# or send a letter to
# Creative Commons, PO Box 1866, Mountain View, CA 94042, USA.
#
# CIF created using the CSD Python API on 29 September 2022
# The structure has been converted into the P1 space group
# The structure has a 3D framework
# The original CSD entry MUKRIW01 is in the cubic crystal system
# The framework has been calculated to contain at least 10.0% void space
# The void calculation uses a probe of radius 1.32A, grid spacing 0.4
# The framework is charged, counterions have been retained in the structure
#
###############################################################################

data_MUKRIW01
_chemical_formula_moiety         '(C168 H72 N24 O48 Ti8 8-)n'
_symmetry_cell_setting           triclinic
_symmetry_space_group_name_H-M   'P 1'
_symmetry_Int_Tables_number      1
_space_group_name_Hall           'P 1'
loop_
_symmetry_equiv_pos_site_id
_symmetry_equiv_pos_as_xyz
1 x,y,z
_cell_length_a                   21.1205(3)
_cell_length_b                   21.1205(3)
_cell_length_c                   21.1205(3)
_cell_angle_alpha                90
_cell_angle_beta                 90
_cell_angle_gamma                90
_cell_volume                     9421.34
loop_
_atom_site_label
_atom_site_type_symbol
_atom_site_fract_x
_atom_site_fract_y
_atom_site_fract_z
Ti1 Ti 0.80841(5) 0.19159(5) 0.69159(5)
O1 O 0.7785(2) 0.13611(17) 0.6243(2)
O2 O 0.7335(2) 0.23846(19) 0.6640(2)
N1 N 0.6466(2) 0.0712(3) 0.4328(3)
C1 C 0.6191(3) 0.1214(3) 0.4565(3)
C2 C 0.7000(3) 0.1257(3) 0.5412(3)
H1 H 0.717582 0.088003 0.526658
C3 C 0.6471(3) 0.1520(3) 0.5114(3)
C4 C 0.7256(3) 0.1569(3) 0.5928(3)
C5 C 0.7007(3) 0.2125(3) 0.6148(3)
C6 C 0.6474(3) 0.2367(3) 0.5878(3)
H2 H 0.628777 0.273074 0.604326
C7 C 0.6213(3) 0.2074(3) 0.5365(3)
H3 H 0.585457 0.224754 0.517817
O3 O 0.3757(2) 0.2785(2) 0.36389(17)
O4 O 0.3360(2) 0.2335(2) 0.26154(19)
N2 N 0.5672(3) 0.1466(2) 0.4288(3)
C8 C 0.5435(3) 0.1191(3) 0.3786(3)
C9 C 0.4588(3) 0.2000(3) 0.3743(3)
H4 H 0.473342 0.217582 0.411997
C10 C 0.4886(3) 0.1471(3) 0.3480(3)
C11 C 0.4072(3) 0.2256(3) 0.3431(3)
C12 C 0.3852(3) 0.2007(3) 0.2875(3)
C13 C 0.4122(3) 0.1474(3) 0.2633(3)
H5 H 0.395674 0.128777 0.226926
C14 C 0.4635(3) 0.1213(3) 0.2926(3)
H6 H 0.482183 0.085457 0.275246
N3 N 0.5712(3) 0.0672(3) 0.3534(2)
C15 C 0.6214(3) 0.0435(3) 0.3809(3)
Ti3 Ti 0.30841(5) 0.30841(5) 0.30841(5)
O7 O 0.8757(2) 0.2215(2) 0.63611(17)
O8 O 0.86389(17) 0.1243(2) 0.7215(2)
O9 O 0.8360(2) 0.2665(2) 0.73846(19)
O10 O 0.76154(19) 0.1640(2) 0.7665(2)
O5 O 0.63611(17) 0.8757(2) 0.2215(2)
O6 O 0.73846(19) 0.8360(2) 0.2665(2)
C16 C 0.6257(3) 0.9588(3) 0.3000(3)
H7 H 0.588003 0.973342 0.282418
C17 C 0.6520(3) 0.9886(3) 0.3529(3)
C18 C 0.6569(3) 0.9072(3) 0.2744(3)
C19 C 0.7125(3) 0.8852(3) 0.2993(3)
C20 C 0.7367(3) 0.9122(3) 0.3526(3)
H8 H 0.773074 0.895674 0.371223
C21 C 0.7074(3) 0.9635(3) 0.3787(3)
H9 H 0.724754 0.982183 0.414543
Ti2 Ti 0.69159(5) 0.80841(5) 0.19159(5)
O3_2 O 0.1243(2) 0.7215(2) 0.86389(17)
O4_2 O 0.1640(2) 0.7665(2) 0.76154(19)
C9_2 C 0.0412(3) 0.8000(3) 0.8743(3)
H4_2 H 0.026658 0.782418 0.911997
C10_2 C 0.0114(3) 0.8529(3) 0.8480(3)
C11_2 C 0.0928(3) 0.7744(3) 0.8431(3)
C12_2 C 0.1148(3) 0.7993(3) 0.7875(3)
C13_2 C 0.0878(3) 0.8526(3) 0.7633(3)
H5_2 H 0.104326 0.871223 0.726926
C14_2 C 0.0365(3) 0.8787(3) 0.7926(3)
H6_2 H 0.017817 0.914543 0.775246
Ti3_2 Ti 0.19159(5) 0.69159(5) 0.80841(5)
C16_2 C 0.8743(3) 0.0412(3) 0.8000(3)
H7_2 H 0.911997 0.026658 0.782418
C17_2 C 0.8480(3) 0.0114(3) 0.8529(3)
C18_2 C 0.8431(3) 0.0928(3) 0.7744(3)
C19_2 C 0.7875(3) 0.1148(3) 0.7993(3)
C20_2 C 0.7633(3) 0.0878(3) 0.8526(3)
H8_2 H 0.726926 0.104326 0.871223
C21_2 C 0.7926(3) 0.0365(3) 0.8787(3)
H9_2 H 0.775246 0.017817 0.914543
O1_2 O 0.7215(2) 0.86389(17) 0.1243(2)
O2_2 O 0.7665(2) 0.76154(19) 0.1640(2)
C2_2 C 0.8000(3) 0.8743(3) 0.0412(3)
H1_2 H 0.782418 0.911997 0.026658
C3_2 C 0.8529(3) 0.8480(3) 0.0114(3)
C4_2 C 0.7744(3) 0.8431(3) 0.0928(3)
C5_2 C 0.7993(3) 0.7875(3) 0.1148(3)
C6_2 C 0.8526(3) 0.7633(3) 0.0878(3)
H2_2 H 0.871223 0.726926 0.104326
C7_2 C 0.8787(3) 0.7926(3) 0.0365(3)
H3_2 H 0.914543 0.775246 0.017817
O7_2 O 0.6243(2) 0.7785(2) 0.13611(17)
O9_2 O 0.6640(2) 0.7335(2) 0.23846(19)
N1_2 N 0.3534(2) 0.5712(3) 0.0672(3)
C1_2 C 0.3809(3) 0.6214(3) 0.0435(3)
N2_2 N 0.4328(3) 0.6466(2) 0.0712(3)
C8_2 C 0.4565(3) 0.6191(3) 0.1214(3)
C9_3 C 0.5412(3) 0.7000(3) 0.1257(3)
H4_3 H 0.526658 0.717582 0.088003
C10_3 C 0.5114(3) 0.6471(3) 0.1520(3)
C11_3 C 0.5928(3) 0.7256(3) 0.1569(3)
C12_3 C 0.6148(3) 0.7007(3) 0.2125(3)
C13_3 C 0.5878(3) 0.6474(3) 0.2367(3)
H5_3 H 0.604326 0.628777 0.273074
C14_3 C 0.5365(3) 0.6213(3) 0.2074(3)
H6_3 H 0.517817 0.585457 0.224754
O5_2 O 0.36389(17) 0.3757(2) 0.2785(2)
O6_2 O 0.26154(19) 0.3360(2) 0.2335(2)
N3_2 N 0.4288(3) 0.5672(3) 0.1466(2)
C15_2 C 0.3786(3) 0.5435(3) 0.1191(3)
C16_3 C 0.3743(3) 0.4588(3) 0.2000(3)
H7_3 H 0.411997 0.473342 0.217582
C17_3 C 0.3480(3) 0.4886(3) 0.1471(3)
C18_3 C 0.3431(3) 0.4072(3) 0.2256(3)
C19_3 C 0.2875(3) 0.3852(3) 0.2007(3)
C20_3 C 0.2633(3) 0.4122(3) 0.1474(3)
H8_3 H 0.226926 0.395674 0.128777
C21_3 C 0.2926(3) 0.4635(3) 0.1213(3)
H9_3 H 0.275246 0.482183 0.085457
O1_3 O 0.2215(2) 0.63611(17) 0.8757(2)
O2_3 O 0.2665(2) 0.73846(19) 0.8360(2)
C2_3 C 0.3000(3) 0.6257(3) 0.9588(3)
H1_3 H 0.282418 0.588003 0.973342
C3_3 C 0.3529(3) 0.6520(3) 0.9886(3)
C4_3 C 0.2744(3) 0.6569(3) 0.9072(3)
C5_3 C 0.2993(3) 0.7125(3) 0.8852(3)
C6_3 C 0.3526(3) 0.7367(3) 0.9122(3)
H2_3 H 0.371223 0.773074 0.895674
C7_3 C 0.3787(3) 0.7074(3) 0.9635(3)
H3_3 H 0.414543 0.724754 0.982183
O8_2 O 0.13611(17) 0.6243(2) 0.7785(2)
O10_2 O 0.23846(19) 0.6640(2) 0.7335(2)
O1_4 O 0.2785(2) 0.36389(17) 0.3757(2)
O2_4 O 0.2335(2) 0.26154(19) 0.3360(2)
N1_3 N 0.1466(2) 0.4288(3) 0.5672(3)
C1_3 C 0.1191(3) 0.3786(3) 0.5435(3)
C2_4 C 0.2000(3) 0.3743(3) 0.4588(3)
H1_4 H 0.217582 0.411997 0.473342
C3_4 C 0.1471(3) 0.3480(3) 0.4886(3)
C4_4 C 0.2256(3) 0.3431(3) 0.4072(3)
C5_4 C 0.2007(3) 0.2875(3) 0.3852(3)
C6_4 C 0.1474(3) 0.2633(3) 0.4122(3)
H2_4 H 0.128777 0.226926 0.395674
C7_4 C 0.1213(3) 0.2926(3) 0.4635(3)
H3_4 H 0.085457 0.275246 0.482183
N2_3 N 0.0672(3) 0.3534(2) 0.5712(3)
C8_3 C 0.0435(3) 0.3809(3) 0.6214(3)
N3_3 N 0.0712(3) 0.4328(3) 0.6466(2)
C15_3 C 0.1214(3) 0.4565(3) 0.6191(3)
C16_4 C 0.1257(3) 0.5412(3) 0.7000(3)
H7_4 H 0.088003 0.526658 0.717582
C17_4 C 0.1520(3) 0.5114(3) 0.6471(3)
C18_4 C 0.1569(3) 0.5928(3) 0.7256(3)
C19_4 C 0.2125(3) 0.6148(3) 0.7007(3)
C20_4 C 0.2367(3) 0.5878(3) 0.6474(3)
H8_4 H 0.273074 0.604326 0.628777
C21_4 C 0.2074(3) 0.5365(3) 0.6213(3)
H9_4 H 0.224754 0.517817 0.585457
C9_4 C 0.9588(3) 0.3000(3) 0.6257(3)
H4_4 H 0.973342 0.282418 0.588003
C10_4 C 0.9886(3) 0.3529(3) 0.6520(3)
C11_4 C 0.9072(3) 0.2744(3) 0.6569(3)
C12_4 C 0.8852(3) 0.2993(3) 0.7125(3)
C13_4 C 0.9122(3) 0.3526(3) 0.7367(3)
H5_4 H 0.895674 0.371223 0.773074
C14_4 C 0.9635(3) 0.3787(3) 0.7074(3)
H6_4 H 0.982183 0.414543 0.724754
N1_4 N 0.8534(2) 0.9288(3) 0.9328(3)
C1_4 C 0.8809(3) 0.8786(3) 0.9565(3)
N2_4 N 0.9328(3) 0.8534(2) 0.9288(3)
C8_4 C 0.9565(3) 0.8809(3) 0.8786(3)
N3_4 N 0.9288(3) 0.9328(3) 0.8534(2)
C15_4 C 0.8786(3) 0.9565(3) 0.8809(3)
O5_3 O 0.36389(17) 0.1243(2) 0.7785(2)
O6_3 O 0.26154(19) 0.1640(2) 0.7335(2)
C16_5 C 0.3743(3) 0.0412(3) 0.7000(3)
H7_5 H 0.411997 0.026658 0.717582
C17_5 C 0.3480(3) 0.0114(3) 0.6471(3)
C18_5 C 0.3431(3) 0.0928(3) 0.7256(3)
C19_5 C 0.2875(3) 0.1148(3) 0.7007(3)
C20_5 C 0.2633(3) 0.0878(3) 0.6474(3)
H8_5 H 0.226926 0.104326 0.628777
C21_5 C 0.2926(3) 0.0365(3) 0.6213(3)
H9_5 H 0.275246 0.017817 0.585457
Ti2_2 Ti 0.30841(5) 0.19159(5) 0.80841(5)
Ti1_2 Ti 0.19159(5) 0.80841(5) 0.30841(5)
O1_5 O 0.2215(2) 0.86389(17) 0.3757(2)
O2_5 O 0.2665(2) 0.76154(19) 0.3360(2)
N1_5 N 0.3534(2) 0.9288(3) 0.5672(3)
C1_5 C 0.3809(3) 0.8786(3) 0.5435(3)
C2_5 C 0.3000(3) 0.8743(3) 0.4588(3)
H1_5 H 0.282418 0.911997 0.473342
C3_5 C 0.3529(3) 0.8480(3) 0.4886(3)
C4_5 C 0.2744(3) 0.8431(3) 0.4072(3)
C5_5 C 0.2993(3) 0.7875(3) 0.3852(3)
C6_5 C 0.3526(3) 0.7633(3) 0.4122(3)
H2_5 H 0.371223 0.726926 0.395674
C7_5 C 0.3787(3) 0.7926(3) 0.4635(3)
H3_5 H 0.414543 0.775246 0.482183
O3_3 O 0.6243(2) 0.7215(2) 0.63611(17)
O4_3 O 0.6640(2) 0.7665(2) 0.73846(19)
N2_5 N 0.4328(3) 0.8534(2) 0.5712(3)
C8_5 C 0.4565(3) 0.8809(3) 0.6214(3)
C9_5 C 0.5412(3) 0.8000(3) 0.6257(3)
H4_5 H 0.526658 0.782418 0.588003
C10_5 C 0.5114(3) 0.8529(3) 0.6520(3)
C11_5 C 0.5928(3) 0.7744(3) 0.6569(3)
C12_5 C 0.6148(3) 0.7993(3) 0.7125(3)
C13_5 C 0.5878(3) 0.8526(3) 0.7367(3)
H5_5 H 0.604326 0.871223 0.773074
C14_5 C 0.5365(3) 0.8787(3) 0.7074(3)
H6_5 H 0.517817 0.914543 0.724754
N3_5 N 0.4288(3) 0.9328(3) 0.6466(2)
C15_5 C 0.3786(3) 0.9565(3) 0.6191(3)
Ti3_3 Ti 0.69159(5) 0.69159(5) 0.69159(5)
O7_3 O 0.1243(2) 0.7785(2) 0.36389(17)
O8_3 O 0.13611(17) 0.8757(2) 0.2785(2)
O9_3 O 0.1640(2) 0.7335(2) 0.26154(19)
O10_3 O 0.23846(19) 0.8360(2) 0.2335(2)
O1_6 O 0.2785(2) 0.13611(17) 0.8757(2)
O2_6 O 0.2335(2) 0.23846(19) 0.8360(2)
C2_6 C 0.2000(3) 0.1257(3) 0.9588(3)
H1_6 H 0.217582 0.088003 0.973342
C3_6 C 0.1471(3) 0.1520(3) 0.9886(3)
C4_6 C 0.2256(3) 0.1569(3) 0.9072(3)
C5_6 C 0.2007(3) 0.2125(3) 0.8852(3)
C6_6 C 0.1474(3) 0.2367(3) 0.9122(3)
H2_6 H 0.128777 0.273074 0.895674
C7_6 C 0.1213(3) 0.2074(3) 0.9635(3)
H3_6 H 0.085457 0.224754 0.982183
O7_4 O 0.3757(2) 0.2215(2) 0.86389(17)
O9_4 O 0.3360(2) 0.2665(2) 0.76154(19)
C16_6 C 0.1257(3) 0.9588(3) 0.2000(3)
H7_6 H 0.088003 0.973342 0.217582
C17_6 C 0.1520(3) 0.9886(3) 0.1471(3)
C18_6 C 0.1569(3) 0.9072(3) 0.2256(3)
C19_6 C 0.2125(3) 0.8852(3) 0.2007(3)
C20_6 C 0.2367(3) 0.9122(3) 0.1474(3)
H8_6 H 0.273074 0.895674 0.128777
C21_6 C 0.2074(3) 0.9635(3) 0.1213(3)
H9_6 H 0.224754 0.982183 0.085457
O3_4 O 0.8757(2) 0.2785(2) 0.13611(17)
O4_4 O 0.8360(2) 0.2335(2) 0.23846(19)
C9_6 C 0.9588(3) 0.2000(3) 0.1257(3)
H4_6 H 0.973342 0.217582 0.088003
C10_6 C 0.9886(3) 0.1471(3) 0.1520(3)
C11_6 C 0.9072(3) 0.2256(3) 0.1569(3)
C12_6 C 0.8852(3) 0.2007(3) 0.2125(3)
C13_6 C 0.9122(3) 0.1474(3) 0.2367(3)
H5_6 H 0.895674 0.128777 0.273074
C14_6 C 0.9635(3) 0.1213(3) 0.2074(3)
H6_6 H 0.982183 0.085457 0.224754
Ti3_4 Ti 0.80841(5) 0.30841(5) 0.19159(5)
O1_7 O 0.7785(2) 0.36389(17) 0.1243(2)
O2_7 O 0.7335(2) 0.26154(19) 0.1640(2)
C2_7 C 0.7000(3) 0.3743(3) 0.0412(3)
H1_7 H 0.717582 0.411997 0.026658
C3_7 C 0.6471(3) 0.3480(3) 0.0114(3)
C4_7 C 0.7256(3) 0.3431(3) 0.0928(3)
C5_7 C 0.7007(3) 0.2875(3) 0.1148(3)
C6_7 C 0.6474(3) 0.2633(3) 0.0878(3)
H2_7 H 0.628777 0.226926 0.104326
C7_7 C 0.6213(3) 0.2926(3) 0.0365(3)
H3_7 H 0.585457 0.275246 0.017817
O8_4 O 0.86389(17) 0.3757(2) 0.2215(2)
O10_4 O 0.76154(19) 0.3360(2) 0.2665(2)
N1_6 N 0.6466(2) 0.4288(3) 0.9328(3)
C1_6 C 0.6191(3) 0.3786(3) 0.9565(3)
N2_6 N 0.5672(3) 0.3534(2) 0.9288(3)
C8_6 C 0.5435(3) 0.3809(3) 0.8786(3)
C9_7 C 0.4588(3) 0.3000(3) 0.8743(3)
H4_7 H 0.473342 0.282418 0.911997
C10_7 C 0.4886(3) 0.3529(3) 0.8480(3)
C11_7 C 0.4072(3) 0.2744(3) 0.8431(3)
C12_7 C 0.3852(3) 0.2993(3) 0.7875(3)
C13_7 C 0.4122(3) 0.3526(3) 0.7633(3)
H5_7 H 0.395674 0.371223 0.726926
C14_7 C 0.4635(3) 0.3787(3) 0.7926(3)
H6_7 H 0.482183 0.414543 0.775246
O5_4 O 0.63611(17) 0.6243(2) 0.7215(2)
O6_4 O 0.73846(19) 0.6640(2) 0.7665(2)
N3_6 N 0.5712(3) 0.4328(3) 0.8534(2)
C15_6 C 0.6214(3) 0.4565(3) 0.8809(3)
C16_7 C 0.6257(3) 0.5412(3) 0.8000(3)
H7_7 H 0.588003 0.526658 0.782418
C17_7 C 0.6520(3) 0.5114(3) 0.8529(3)
C18_7 C 0.6569(3) 0.5928(3) 0.7744(3)
C19_7 C 0.7125(3) 0.6148(3) 0.7993(3)
C20_7 C 0.7367(3) 0.5878(3) 0.8526(3)
H8_7 H 0.773074 0.604326 0.871223
C21_7 C 0.7074(3) 0.5365(3) 0.8787(3)
H9_7 H 0.724754 0.517817 0.914543
C9_8 C 0.0412(3) 0.7000(3) 0.3743(3)
H4_8 H 0.026658 0.717582 0.411997
C10_8 C 0.0114(3) 0.6471(3) 0.3480(3)
C11_8 C 0.0928(3) 0.7256(3) 0.3431(3)
C12_8 C 0.1148(3) 0.7007(3) 0.2875(3)
C13_8 C 0.0878(3) 0.6474(3) 0.2633(3)
H5_8 H 0.104326 0.628777 0.226926
C14_8 C 0.0365(3) 0.6213(3) 0.2926(3)
H6_8 H 0.017817 0.585457 0.275246
O1_8 O 0.7215(2) 0.63611(17) 0.6243(2)
O2_8 O 0.7665(2) 0.73846(19) 0.6640(2)
N1_7 N 0.8534(2) 0.5712(3) 0.4328(3)
C1_7 C 0.8809(3) 0.6214(3) 0.4565(3)
C2_8 C 0.8000(3) 0.6257(3) 0.5412(3)
H1_8 H 0.782418 0.588003 0.526658
C3_8 C 0.8529(3) 0.6520(3) 0.5114(3)
C4_8 C 0.7744(3) 0.6569(3) 0.5928(3)
C5_8 C 0.7993(3) 0.7125(3) 0.6148(3)
C6_8 C 0.8526(3) 0.7367(3) 0.5878(3)
H2_8 H 0.871223 0.773074 0.604326
C7_8 C 0.8787(3) 0.7074(3) 0.5365(3)
H3_8 H 0.914543 0.724754 0.517817
N2_7 N 0.9328(3) 0.6466(2) 0.4288(3)
C8_7 C 0.9565(3) 0.6191(3) 0.3786(3)
N3_7 N 0.9288(3) 0.5672(3) 0.3534(2)
C15_7 C 0.8786(3) 0.5435(3) 0.3809(3)
C16_8 C 0.8743(3) 0.4588(3) 0.3000(3)
H7_8 H 0.911997 0.473342 0.282418
C17_8 C 0.8480(3) 0.4886(3) 0.3529(3)
C18_8 C 0.8431(3) 0.4072(3) 0.2744(3)
C19_8 C 0.7875(3) 0.3852(3) 0.2993(3)
C20_8 C 0.7633(3) 0.4122(3) 0.3526(3)
H8_8 H 0.726926 0.395674 0.371223
C21_8 C 0.7926(3) 0.4635(3) 0.3787(3)
H9_8 H 0.775246 0.482183 0.414543
N1_8 N 0.1466(2) 0.0712(3) 0.0672(3)
C1_8 C 0.1191(3) 0.1214(3) 0.0435(3)
N2_8 N 0.0672(3) 0.1466(2) 0.0712(3)
C8_8 C 0.0435(3) 0.1191(3) 0.1214(3)
N3_8 N 0.0712(3) 0.0672(3) 0.1466(2)
C15_8 C 0.1214(3) 0.0435(3) 0.1191(3)
loop_
_geom_bond_atom_site_label_1
_geom_bond_atom_site_label_2
_geom_bond_site_symmetry_1
_geom_bond_site_symmetry_2
Ti1 O1 1_555 1_555
O1 C4 1_555 1_555
O2 Ti1 1_555 1_555
N1 C1 1_555 1_555
C1 C3 1_555 1_555
C2 H1 1_555 1_555
C3 C2 1_555 1_555
C4 C2 1_555 1_555
C5 O2 1_555 1_555
C6 C5 1_555 1_555
H2 C6 1_555 1_555
C7 C3 1_555 1_555
H3 C7 1_555 1_555
O3 C11 1_555 1_555
O4 C12 1_555 1_555
N2 C1 1_555 1_555
C8 N2 1_555 1_555
C9 H4 1_555 1_555
C10 C8 1_555 1_555
C11 C9 1_555 1_555
C12 C11 1_555 1_555
C13 C12 1_555 1_555
H5 C13 1_555 1_555
C14 C10 1_555 1_555
H6 C14 1_555 1_555
N3 C8 1_555 1_555
C15 N1 1_555 1_555
Ti3 O3 1_555 1_555
O7 Ti1 1_555 1_555
O8 Ti1 1_555 1_555
O9 Ti1 1_555 1_555
O10 Ti1 1_555 1_555
C4 C5 1_555 1_555
C6 C7 1_555 1_555
O4 Ti3 1_555 1_555
C9 C10 1_555 1_555
C13 C14 1_555 1_555
N3 C15 1_555 1_555
O5 C18 1_555 1_555
O6 C19 1_555 1_555
C16 H7 1_555 1_555
C18 C16 1_555 1_555
C19 C18 1_555 1_555
C20 C19 1_555 1_555
H8 C20 1_555 1_555
C21 C17 1_555 1_555
H9 C21 1_555 1_555
Ti2 O5 1_555 1_555
O6 Ti2 1_555 1_555
C16 C17 1_555 1_555
C20 C21 1_555 1_555
O3_2 C11_2 1_555 1_555
O4_2 C12_2 1_555 1_555
C9_2 H4_2 1_555 1_555
C11_2 C9_2 1_555 1_555
C12_2 C11_2 1_555 1_555
C13_2 C12_2 1_555 1_555
H5_2 C13_2 1_555 1_555
C14_2 C10_2 1_555 1_555
H6_2 C14_2 1_555 1_555
Ti3_2 O3_2 1_555 1_555
O4_2 Ti3_2 1_555 1_555
C9_2 C10_2 1_555 1_555
C13_2 C14_2 1_555 1_555
O8 C18_2 1_555 1_555
O10 C19_2 1_555 1_555
C16_2 H7_2 1_555 1_555
C18_2 C16_2 1_555 1_555
C19_2 C18_2 1_555 1_555
C20_2 C19_2 1_555 1_555
H8_2 C20_2 1_555 1_555
C21_2 C17_2 1_555 1_555
H9_2 C21_2 1_555 1_555
C16_2 C17_2 1_555 1_555
C20_2 C21_2 1_555 1_555
Ti2 O1_2 1_555 1_555
O1_2 C4_2 1_555 1_555
O2_2 Ti2 1_555 1_555
C2_2 H1_2 1_555 1_555
C3_2 C2_2 1_555 1_555
C4_2 C2_2 1_555 1_555
C5_2 O2_2 1_555 1_555
C6_2 C5_2 1_555 1_555
H2_2 C6_2 1_555 1_555
C7_2 C3_2 1_555 1_555
H3_2 C7_2 1_555 1_555
O7_2 Ti2 1_555 1_555
O9_2 Ti2 1_555 1_555
C4_2 C5_2 1_555 1_555
C6_2 C7_2 1_555 1_555
N1_2 C1_2 1_555 1_555
O7_2 C11_3 1_555 1_555
O9_2 C12_3 1_555 1_555
N2_2 C1_2 1_555 1_555
C8_2 N2_2 1_555 1_555
C9_3 H4_3 1_555 1_555
C10_3 C8_2 1_555 1_555
C11_3 C9_3 1_555 1_555
C12_3 C11_3 1_555 1_555
C13_3 C12_3 1_555 1_555
H5_3 C13_3 1_555 1_555
C14_3 C10_3 1_555 1_555
H6_3 C14_3 1_555 1_555
O5_2 C18_3 1_555 1_555
O6_2 C19_3 1_555 1_555
N3_2 C8_2 1_555 1_555
C15_2 N1_2 1_555 1_555
C16_3 H7_3 1_555 1_555
C17_3 C15_2 1_555 1_555
C18_3 C16_3 1_555 1_555
C19_3 C18_3 1_555 1_555
C20_3 C19_3 1_555 1_555
H8_3 C20_3 1_555 1_555
C21_3 C17_3 1_555 1_555
H9_3 C21_3 1_555 1_555
Ti3 O5_2 1_555 1_555
C9_3 C10_3 1_555 1_555
C13_3 C14_3 1_555 1_555
O6_2 Ti3 1_555 1_555
N3_2 C15_2 1_555 1_555
C16_3 C17_3 1_555 1_555
C20_3 C21_3 1_555 1_555
Ti3_2 O1_3 1_555 1_555
O1_3 C4_3 1_555 1_555
O2_3 Ti3_2 1_555 1_555
C2_3 H1_3 1_555 1_555
C3_3 C2_3 1_555 1_555
C4_3 C2_3 1_555 1_555
C5_3 O2_3 1_555 1_555
C6_3 C5_3 1_555 1_555
H2_3 C6_3 1_555 1_555
C7_3 C3_3 1_555 1_555
H3_3 C7_3 1_555 1_555
O8_2 Ti3_2 1_555 1_555
O10_2 Ti3_2 1_555 1_555
C4_3 C5_3 1_555 1_555
C6_3 C7_3 1_555 1_555
Ti3 O1_4 1_555 1_555
O1_4 C4_4 1_555 1_555
O2_4 Ti3 1_555 1_555
N1_3 C1_3 1_555 1_555
C1_3 C3_4 1_555 1_555
C2_4 H1_4 1_555 1_555
C3_4 C2_4 1_555 1_555
C4_4 C2_4 1_555 1_555
C5_4 O2_4 1_555 1_555
C6_4 C5_4 1_555 1_555
H2_4 C6_4 1_555 1_555
C7_4 C3_4 1_555 1_555
H3_4 C7_4 1_555 1_555
N2_3 C1_3 1_555 1_555
C8_3 N2_3 1_555 1_555
O8_2 C18_4 1_555 1_555
O10_2 C19_4 1_555 1_555
N3_3 C8_3 1_555 1_555
C15_3 N1_3 1_555 1_555
C16_4 H7_4 1_555 1_555
C17_4 C15_3 1_555 1_555
C18_4 C16_4 1_555 1_555
C19_4 C18_4 1_555 1_555
C20_4 C19_4 1_555 1_555
H8_4 C20_4 1_555 1_555
C21_4 C17_4 1_555 1_555
H9_4 C21_4 1_555 1_555
C4_4 C5_4 1_555 1_555
C6_4 C7_4 1_555 1_555
N3_3 C15_3 1_555 1_555
C16_4 C17_4 1_555 1_555
C20_4 C21_4 1_555 1_555
O7 C11_4 1_555 1_555
O9 C12_4 1_555 1_555
C9_4 H4_4 1_555 1_555
C11_4 C9_4 1_555 1_555
C12_4 C11_4 1_555 1_555
C13_4 C12_4 1_555 1_555
H5_4 C13_4 1_555 1_555
C14_4 C10_4 1_555 1_555
H6_4 C14_4 1_555 1_555
C9_4 C10_4 1_555 1_555
C13_4 C14_4 1_555 1_555
N1_4 C1_4 1_555 1_555
N2_4 C1_4 1_555 1_555
C8_4 N2_4 1_555 1_555
N3_4 C8_4 1_555 1_555
C15_4 N1_4 1_555 1_555
N3_4 C15_4 1_555 1_555
O5_3 C18_5 1_555 1_555
O6_3 C19_5 1_555 1_555
C16_5 H7_5 1_555 1_555
C18_5 C16_5 1_555 1_555
C19_5 C18_5 1_555 1_555
C20_5 C19_5 1_555 1_555
H8_5 C20_5 1_555 1_555
C21_5 C17_5 1_555 1_555
H9_5 C21_5 1_555 1_555
Ti2_2 O5_3 1_555 1_555
O6_3 Ti2_2 1_555 1_555
C16_5 C17_5 1_555 1_555
C20_5 C21_5 1_555 1_555
Ti1_2 O1_5 1_555 1_555
O1_5 C4_5 1_555 1_555
O2_5 Ti1_2 1_555 1_555
N1_5 C1_5 1_555 1_555
C1_5 C3_5 1_555 1_555
C2_5 H1_5 1_555 1_555
C3_5 C2_5 1_555 1_555
C4_5 C2_5 1_555 1_555
C5_5 O2_5 1_555 1_555
C6_5 C5_5 1_555 1_555
H2_5 C6_5 1_555 1_555
C7_5 C3_5 1_555 1_555
H3_5 C7_5 1_555 1_555
O3_3 C11_5 1_555 1_555
O4_3 C12_5 1_555 1_555
N2_5 C1_5 1_555 1_555
C8_5 N2_5 1_555 1_555
C9_5 H4_5 1_555 1_555
C10_5 C8_5 1_555 1_555
C11_5 C9_5 1_555 1_555
C12_5 C11_5 1_555 1_555
C13_5 C12_5 1_555 1_555
H5_5 C13_5 1_555 1_555
C14_5 C10_5 1_555 1_555
H6_5 C14_5 1_555 1_555
N3_5 C8_5 1_555 1_555
C15_5 N1_5 1_555 1_555
Ti3_3 O3_3 1_555 1_555
O7_3 Ti1_2 1_555 1_555
O8_3 Ti1_2 1_555 1_555
O9_3 Ti1_2 1_555 1_555
O10_3 Ti1_2 1_555 1_555
C4_5 C5_5 1_555 1_555
C6_5 C7_5 1_555 1_555
O4_3 Ti3_3 1_555 1_555
C9_5 C10_5 1_555 1_555
C13_5 C14_5 1_555 1_555
N3_5 C15_5 1_555 1_555
Ti2_2 O1_6 1_555 1_555
O1_6 C4_6 1_555 1_555
O2_6 Ti2_2 1_555 1_555
C2_6 H1_6 1_555 1_555
C3_6 C2_6 1_555 1_555
C4_6 C2_6 1_555 1_555
C5_6 O2_6 1_555 1_555
C6_6 C5_6 1_555 1_555
H2_6 C6_6 1_555 1_555
C7_6 C3_6 1_555 1_555
H3_6 C7_6 1_555 1_555
O7_4 Ti2_2 1_555 1_555
O9_4 Ti2_2 1_555 1_555
C4_6 C5_6 1_555 1_555
C6_6 C7_6 1_555 1_555
O8_3 C18_6 1_555 1_555
O10_3 C19_6 1_555 1_555
C16_6 H7_6 1_555 1_555
C18_6 C16_6 1_555 1_555
C19_6 C18_6 1_555 1_555
C20_6 C19_6 1_555 1_555
H8_6 C20_6 1_555 1_555
C21_6 C17_6 1_555 1_555
H9_6 C21_6 1_555 1_555
C16_6 C17_6 1_555 1_555
C20_6 C21_6 1_555 1_555
O3_4 C11_6 1_555 1_555
O4_4 C12_6 1_555 1_555
C9_6 H4_6 1_555 1_555
C11_6 C9_6 1_555 1_555
C12_6 C11_6 1_555 1_555
C13_6 C12_6 1_555 1_555
H5_6 C13_6 1_555 1_555
C14_6 C10_6 1_555 1_555
H6_6 C14_6 1_555 1_555
Ti3_4 O3_4 1_555 1_555
O4_4 Ti3_4 1_555 1_555
C9_6 C10_6 1_555 1_555
C13_6 C14_6 1_555 1_555
Ti3_4 O1_7 1_555 1_555
O1_7 C4_7 1_555 1_555
O2_7 Ti3_4 1_555 1_555
C2_7 H1_7 1_555 1_555
C3_7 C2_7 1_555 1_555
C4_7 C2_7 1_555 1_555
C5_7 O2_7 1_555 1_555
C6_7 C5_7 1_555 1_555
H2_7 C6_7 1_555 1_555
C7_7 C3_7 1_555 1_555
H3_7 C7_7 1_555 1_555
O8_4 Ti3_4 1_555 1_555
O10_4 Ti3_4 1_555 1_555
C4_7 C5_7 1_555 1_555
C6_7 C7_7 1_555 1_555
N1_6 C1_6 1_555 1_555
O7_4 C11_7 1_555 1_555
O9_4 C12_7 1_555 1_555
N2_6 C1_6 1_555 1_555
C8_6 N2_6 1_555 1_555
C9_7 H4_7 1_555 1_555
C10_7 C8_6 1_555 1_555
C11_7 C9_7 1_555 1_555
C12_7 C11_7 1_555 1_555
C13_7 C12_7 1_555 1_555
H5_7 C13_7 1_555 1_555
C14_7 C10_7 1_555 1_555
H6_7 C14_7 1_555 1_555
O5_4 C18_7 1_555 1_555
O6_4 C19_7 1_555 1_555
N3_6 C8_6 1_555 1_555
C15_6 N1_6 1_555 1_555
C16_7 H7_7 1_555 1_555
C17_7 C15_6 1_555 1_555
C18_7 C16_7 1_555 1_555
C19_7 C18_7 1_555 1_555
C20_7 C19_7 1_555 1_555
H8_7 C20_7 1_555 1_555
C21_7 C17_7 1_555 1_555
H9_7 C21_7 1_555 1_555
Ti3_3 O5_4 1_555 1_555
C9_7 C10_7 1_555 1_555
C13_7 C14_7 1_555 1_555
O6_4 Ti3_3 1_555 1_555
N3_6 C15_6 1_555 1_555
C16_7 C17_7 1_555 1_555
C20_7 C21_7 1_555 1_555
O7_3 C11_8 1_555 1_555
O9_3 C12_8 1_555 1_555
C9_8 H4_8 1_555 1_555
C11_8 C9_8 1_555 1_555
C12_8 C11_8 1_555 1_555
C13_8 C12_8 1_555 1_555
H5_8 C13_8 1_555 1_555
C14_8 C10_8 1_555 1_555
H6_8 C14_8 1_555 1_555
C9_8 C10_8 1_555 1_555
C13_8 C14_8 1_555 1_555
Ti3_3 O1_8 1_555 1_555
O1_8 C4_8 1_555 1_555
O2_8 Ti3_3 1_555 1_555
N1_7 C1_7 1_555 1_555
C1_7 C3_8 1_555 1_555
C2_8 H1_8 1_555 1_555
C3_8 C2_8 1_555 1_555
C4_8 C2_8 1_555 1_555
C5_8 O2_8 1_555 1_555
C6_8 C5_8 1_555 1_555
H2_8 C6_8 1_555 1_555
C7_8 C3_8 1_555 1_555
H3_8 C7_8 1_555 1_555
N2_7 C1_7 1_555 1_555
C8_7 N2_7 1_555 1_555
O8_4 C18_8 1_555 1_555
O10_4 C19_8 1_555 1_555
N3_7 C8_7 1_555 1_555
C15_7 N1_7 1_555 1_555
C16_8 H7_8 1_555 1_555
C17_8 C15_7 1_555 1_555
C18_8 C16_8 1_555 1_555
C19_8 C18_8 1_555 1_555
C20_8 C19_8 1_555 1_555
H8_8 C20_8 1_555 1_555
C21_8 C17_8 1_555 1_555
H9_8 C21_8 1_555 1_555
C4_8 C5_8 1_555 1_555
C6_8 C7_8 1_555 1_555
N3_7 C15_7 1_555 1_555
C16_8 C17_8 1_555 1_555
C20_8 C21_8 1_555 1_555
N1_8 C1_8 1_555 1_555
N2_8 C1_8 1_555 1_555
C8_8 N2_8 1_555 1_555
N3_8 C8_8 1_555 1_555
C15_8 N1_8 1_555 1_555
N3_8 C15_8 1_555 1_555

#END
