
###############################################################################
#
# This file contains modified crystal structure data generated from the
# MOF subset of the Cambridge Structural Database (CSD) v543 
# hosted by the Cambridge Crystallographic Data Centre (CCDC).
#
# This work is licensed under the Creative Commons
# Attribution-NonCommercial-ShareAlike 4.0 International License.
# To view a copy of this license, visit
# http://creativecommons.org/licenses/by-nc-sa/4.0/
# or send a letter to
# Creative Commons, PO Box 1866, Mountain View, CA 94042, USA.
#
# CIF created using the CSD Python API on 29 September 2022
# The structure has been converted into the P1 space group
# The structure has a 3D framework
# The original CSD entry MULJIO is in the monoclinic crystal system
# The framework has been calculated to contain at least 10.0% void space
# The void calculation uses a probe of radius 1.32A, grid spacing 0.4
#
###############################################################################

data_MULJIO
_chemical_formula_moiety         '(C184 H160 Co8 N32 O32)n'
_symmetry_cell_setting           triclinic
_symmetry_space_group_name_H-M   'P 1'
_symmetry_Int_Tables_number      1
_space_group_name_Hall           'P 1'
loop_
_symmetry_equiv_pos_site_id
_symmetry_equiv_pos_as_xyz
1 x,y,z
_cell_length_a                   22.5566(7)
_cell_length_b                   17.2801(6)
_cell_length_c                   13.6112(4)
_cell_angle_alpha                90
_cell_angle_beta                 93.828(3)
_cell_angle_gamma                90
_cell_volume                     5293.54
loop_
_atom_site_label
_atom_site_type_symbol
_atom_site_fract_x
_atom_site_fract_y
_atom_site_fract_z
Co1 Co 0.296519(16) 0.17892(2) 0.17065(3)
C1 C 0.27213(14) 0.18566(18) 0.7494(2)
H1 H 0.2843 0.2138 0.6960
C2 C 0.2347(2) 0.1566(2) 0.8808(3)
H2 H 0.2149 0.1599 0.9384
C3 C 0.2610(2) 0.0933(2) 0.8493(3)
H3 H 0.2627 0.0453 0.8803
C4 C 0.3198(2) 0.0583(2) 0.7079(3)
H4 H 0.3614 0.0632 0.7303
H5 H 0.3076 0.0056 0.7207
C5 C 0.31268(18) 0.0742(2) 0.5898(3)
H6 H 0.3204 0.0271 0.5540
H7 H 0.2726 0.0914 0.5706
C6 C 0.3542(3) 0.1320(4) 0.5681(4)
H8 H 0.3928 0.1205 0.6006
H9 H 0.3412 0.1821 0.5906
C7 C 0.31540(17) 0.1475(2) 0.3867(2)
H10 H 0.2755 0.1554 0.3971
C8 C 0.4096(2) 0.1238(2) 0.4148(3)
H11 H 0.4465 0.1124 0.4458
C9 C 0.39713(15) 0.1346(2) 0.3194(3)
H12 H 0.4248 0.1324 0.2717
C10 C 0.37735(14) 0.1454(2) 0.0461(2)
C17 C 0.18780(12) 0.10736(17) 0.1701(2)
C18 C 0.13294(12) 0.07261(16) 0.12207(19)
C19 C 0.13179(13) 0.0459(2) 0.0267(2)
C21 C 0.02774(11) 0.01466(15) 0.02562(19)
C22 C 0.02999(13) 0.0393(2) 0.1219(2)
C23 C 0.08136(14) 0.0679(2) 0.1691(2)
H20 H 0.0809 0.0843 0.2341
N1 N 0.24090(10) 0.21497(14) 0.81732(16)
N2 N 0.28484(11) 0.11142(14) 0.76422(18)
N3 N 0.35778(18) 0.1323(2) 0.4580(2)
N4 N 0.33774(11) 0.14969(14) 0.30076(17)
O1 O 0.34931(9) 0.20667(14) 0.06552(16)
O2 O 0.37562(13) 0.08614(15) 0.09622(17)
O3 O 0.23329(8) 0.10821(13) 0.11943(14)
O4 O 0.18864(9) 0.13597(14) 0.25396(14)
Co4 Co 0.203481(16) 0.32108(2) 0.82935(3)
N9 N 0.25910(10) 0.28503(14) 0.18268(16)
C11 C 0.91351(13) 0.64610(18) 0.9576(2)
C12 C 0.91483(13) 0.71044(19) 0.8969(2)
H13 H 0.8928 0.7542 0.9108
C13 C 0.94858(14) 0.70992(18) 0.8161(2)
H14 H 0.9491 0.7535 0.7762
C14 C 0.98172(12) 0.64562(17) 0.79335(19)
C15 C 0.97934(14) 0.58079(19) 0.8532(2)
C16 C 0.94576(14) 0.58150(18) 0.9345(2)
H16 H 0.9449 0.5378 0.9742
H17 H 0.6665 0.5466 0.9935
C20 C 0.58043(13) 0.5182(2) 0.9795(2)
H18 H 0.5811 0.5013 0.9147
H23 H 0.9995 0.5366 0.6615
C31 C 0.31220(12) 0.39264(17) 0.8299(2)
C32 C 0.36706(12) 0.42739(16) 0.87793(19)
C33 C 0.36821(13) 0.4541(2) 0.9733(2)
C35 C 0.47226(11) 0.48534(15) 0.97438(19)
C36 C 0.47001(13) 0.4607(2) 0.8781(2)
H27 H 0.5042 0.4635 0.8438
C37 C 0.41864(14) 0.4321(2) 0.8309(2)
H28 H 0.4191 0.4157 0.7659
O7 O 0.26671(8) 0.39179(13) 0.88057(14)
O8 O 0.31136(9) 0.36403(14) 0.74604(14)
C1_2 C 0.22787(14) 0.31434(18) 0.2506(2)
H1_2 H 0.2157 0.2862 0.3040
C2_2 C 0.2653(2) 0.3434(2) 0.1192(3)
H2_2 H 0.2851 0.3401 0.0616
C3_2 C 0.2390(2) 0.4067(2) 0.1507(3)
H3_2 H 0.2373 0.4547 0.1197
C4_2 C 0.1802(2) 0.4417(2) 0.2921(3)
H4_2 H 0.1386 0.4368 0.2697
H5_2 H 0.1924 0.4944 0.2793
C5_2 C 0.18732(18) 0.4258(2) 0.4102(3)
H6_2 H 0.1796 0.4729 0.4460
H7_2 H 0.2274 0.4086 0.4294
C6_2 C 0.1458(3) 0.3680(4) 0.4319(4)
H8_2 H 0.1072 0.3795 0.3994
H9_2 H 0.1588 0.3179 0.4094
C7_2 C 0.18460(17) 0.3525(2) 0.6133(2)
H10_2 H 0.2245 0.3446 0.6029
C8_2 C 0.0904(2) 0.3762(2) 0.5852(3)
H11_2 H 0.0535 0.3876 0.5542
C9_2 C 0.10287(15) 0.3654(2) 0.6806(3)
H12_2 H 0.0752 0.3676 0.7283
C10_2 C 0.12265(14) 0.3546(2) 0.9539(2)
N2_2 N 0.21516(11) 0.38858(14) 0.23578(18)
N3_2 N 0.14222(18) 0.3677(2) 0.5420(2)
N4_2 N 0.16226(11) 0.35031(14) 0.69924(17)
O1_2 O 0.15069(9) 0.29333(14) 0.93448(16)
O2_2 O 0.12438(13) 0.41386(15) 0.90378(17)
C11_2 C 0.41351(13) 0.14610(18) 0.9576(2)
C12_2 C 0.41483(13) 0.21044(19) 0.8969(2)
H13_2 H 0.3928 0.2542 0.9108
C13_2 C 0.44858(14) 0.20992(18) 0.8161(2)
H14_2 H 0.4491 0.2535 0.7762
C14_2 C 0.48172(12) 0.14562(17) 0.79335(19)
C15_2 C 0.47934(14) 0.08079(19) 0.8532(2)
H15 H 0.5005 0.0366 0.8385
C16_2 C 0.44576(14) 0.08150(18) 0.9345(2)
H16_2 H 0.4449 0.0378 0.9742
H17_2 H 0.1665 0.0466 0.9935
C20_2 C 0.08043(13) 0.0182(2) 0.9795(2)
H18_2 H 0.0811 0.0013 0.9147
C24 C 0.62265(14) 0.1454(2) 0.4539(2)
C25 C 0.58649(13) 0.14610(18) 0.5424(2)
C26 C 0.58517(13) 0.21044(19) 0.6031(2)
H21 H 0.6072 0.2542 0.5892
C27 C 0.55142(14) 0.20992(18) 0.6839(2)
H22 H 0.5509 0.2535 0.7238
C28 C 0.51828(12) 0.14562(17) 0.70665(19)
C29 C 0.52066(14) 0.08079(19) 0.6468(2)
H23_2 H 0.4995 0.0366 0.6615
C30 C 0.55424(14) 0.08150(18) 0.5655(2)
H24 H 0.5551 0.0378 0.5258
O5 O 0.65069(9) 0.20667(14) 0.43448(16)
O6 O 0.62438(13) 0.08614(15) 0.40378(17)
Co2 Co 0.703481(16) 0.17892(2) 0.32935(3)
C44 C 0.68460(17) 0.1475(2) 0.1133(2)
H38 H 0.7245 0.1554 0.1029
C45 C 0.5904(2) 0.1238(2) 0.0852(3)
H39 H 0.5535 0.1124 0.0542
C46 C 0.60287(15) 0.1346(2) 0.1806(3)
H40 H 0.5752 0.1324 0.2283
N7 N 0.64222(18) 0.1323(2) 0.0420(2)
N8 N 0.66226(11) 0.14969(14) 0.19924(17)
N10 N 0.74090(10) 0.28503(14) 0.31732(16)
O9 O 0.76671(8) 0.10821(13) 0.38057(14)
C17_2 C 0.81220(12) 0.10736(17) 0.3299(2)
C18_2 C 0.86706(12) 0.07261(16) 0.37793(19)
C19_2 C 0.86821(13) 0.0459(2) 0.4733(2)
H17_3 H 0.8335 0.0466 0.5065
C20_3 C 0.91957(13) 0.0182(2) 0.5205(2)
H18_3 H 0.9189 0.0013 0.5853
C21_2 C 0.97226(11) 0.01466(15) 0.47438(19)
C22_2 C 0.97001(13) 0.0393(2) 0.3781(2)
C23_2 C 0.91864(14) 0.0679(2) 0.3309(2)
H20_2 H 0.9191 0.0843 0.2659
O4_2 O 0.81136(9) 0.13597(14) 0.24604(14)
C38 C 0.77213(14) 0.31434(18) 0.2494(2)
H29 H 0.7843 0.2862 0.1960
C39 C 0.7347(2) 0.3434(2) 0.3808(3)
H30 H 0.7149 0.3401 0.4384
C40 C 0.7610(2) 0.4067(2) 0.3493(3)
H31 H 0.7627 0.4547 0.3803
C41 C 0.8198(2) 0.4417(2) 0.2079(3)
H32 H 0.8614 0.4368 0.2303
H33 H 0.8076 0.4944 0.2207
C42 C 0.81268(18) 0.4258(2) 0.0898(3)
H34 H 0.8204 0.4729 0.0540
H35 H 0.7726 0.4086 0.0706
C43 C 0.8542(3) 0.3680(4) 0.0681(4)
H36 H 0.8928 0.3795 0.1006
H37 H 0.8412 0.3179 0.0906
N6 N 0.78484(11) 0.38858(14) 0.26422(18)
C38_2 C 0.72787(14) 0.18566(18) 0.7506(2)
H29_2 H 0.7157 0.2138 0.8040
C39_2 C 0.7653(2) 0.1566(2) 0.6192(3)
H30_2 H 0.7851 0.1599 0.5616
C40_2 C 0.7390(2) 0.0933(2) 0.6507(3)
H31_2 H 0.7373 0.0453 0.6197
C41_2 C 0.6802(2) 0.0583(2) 0.7921(3)
H32_2 H 0.6386 0.0632 0.7697
H33_2 H 0.6924 0.0056 0.7793
C42_2 C 0.68732(18) 0.0742(2) 0.9102(3)
H34_2 H 0.6796 0.0271 0.9460
H35_2 H 0.7274 0.0914 0.9294
C43_2 C 0.6458(3) 0.1320(4) 0.9319(4)
H36_2 H 0.6072 0.1205 0.8994
H37_2 H 0.6588 0.1821 0.9094
N5 N 0.75910(10) 0.21497(14) 0.68268(16)
N6_2 N 0.71516(11) 0.11142(14) 0.73578(18)
Co5 Co 0.796519(16) 0.32108(2) 0.67065(3)
H15_2 H 0.0005 0.5366 0.8385
C24_2 C 0.12265(14) 0.6454(2) 0.4539(2)
C25_2 C 0.08649(13) 0.64610(18) 0.5424(2)
C26_2 C 0.08517(13) 0.71044(19) 0.6031(2)
H21_2 H 0.1072 0.7542 0.5892
C27_2 C 0.05142(14) 0.70992(18) 0.6839(2)
H22_2 H 0.0509 0.7535 0.7238
C28_2 C 0.01828(12) 0.64562(17) 0.70665(19)
C29_2 C 0.02066(14) 0.58079(19) 0.6468(2)
C30_2 C 0.05424(14) 0.58150(18) 0.5655(2)
H24_2 H 0.0551 0.5378 0.5258
O5_2 O 0.15069(9) 0.70667(14) 0.43448(16)
O6_2 O 0.12438(13) 0.58614(15) 0.40378(17)
Co2_2 Co 0.203481(16) 0.67892(2) 0.32935(3)
C44_2 C 0.18460(17) 0.6475(2) 0.1133(2)
H38_2 H 0.2245 0.6554 0.1029
C45_2 C 0.0904(2) 0.6238(2) 0.0852(3)
H39_2 H 0.0535 0.6124 0.0542
C46_2 C 0.10287(15) 0.6346(2) 0.1806(3)
H40_2 H 0.0752 0.6324 0.2283
N7_2 N 0.14222(18) 0.6323(2) 0.0420(2)
N8_2 N 0.16226(11) 0.64969(14) 0.19924(17)
N10_2 N 0.24090(10) 0.78503(14) 0.31732(16)
O9_2 O 0.26671(8) 0.60821(13) 0.38057(14)
C17_3 C 0.31220(12) 0.60736(17) 0.3299(2)
C18_3 C 0.36706(12) 0.57261(16) 0.37793(19)
C19_3 C 0.36821(13) 0.5459(2) 0.4733(2)
H17_4 H 0.3335 0.5466 0.5065
C20_4 C 0.41957(13) 0.5182(2) 0.5205(2)
H18_4 H 0.4189 0.5013 0.5853
C21_3 C 0.47226(11) 0.51466(15) 0.47438(19)
C22_3 C 0.47001(13) 0.5393(2) 0.3781(2)
H19 H 0.5042 0.5365 0.3438
C23_3 C 0.41864(14) 0.5679(2) 0.3309(2)
H20_3 H 0.4191 0.5843 0.2659
O4_3 O 0.31136(9) 0.63597(14) 0.24604(14)
C31_2 C 0.68780(12) 0.39264(17) 0.6701(2)
C32_2 C 0.63294(12) 0.42739(16) 0.62207(19)
C33_2 C 0.63179(13) 0.4541(2) 0.5267(2)
H25 H 0.6665 0.4534 0.4935
C34 C 0.58043(13) 0.4818(2) 0.4795(2)
H26 H 0.5811 0.4987 0.4147
C35_2 C 0.52774(11) 0.48534(15) 0.52562(19)
C36_2 C 0.52999(13) 0.4607(2) 0.6219(2)
H27_2 H 0.4958 0.4635 0.6562
C37_2 C 0.58136(14) 0.4321(2) 0.6691(2)
H28_2 H 0.5809 0.4157 0.7341
O7_2 O 0.73329(8) 0.39179(13) 0.61943(14)
O8_2 O 0.68864(9) 0.36403(14) 0.75396(14)
C38_3 C 0.27213(14) 0.81434(18) 0.2494(2)
H29_3 H 0.2843 0.7862 0.1960
C39_3 C 0.2347(2) 0.8434(2) 0.3808(3)
H30_3 H 0.2149 0.8401 0.4384
C40_3 C 0.2610(2) 0.9067(2) 0.3493(3)
H31_3 H 0.2627 0.9547 0.3803
C41_3 C 0.3198(2) 0.9417(2) 0.2079(3)
H32_3 H 0.3614 0.9368 0.2303
H33_3 H 0.3076 0.9944 0.2207
C42_3 C 0.31268(18) 0.9258(2) 0.0898(3)
H34_3 H 0.3204 0.9729 0.0540
H35_3 H 0.2726 0.9086 0.0706
C43_3 C 0.3542(3) 0.8680(4) 0.0681(4)
H36_3 H 0.3928 0.8795 0.1006
H37_3 H 0.3412 0.8179 0.0906
N6_3 N 0.28484(11) 0.88858(14) 0.26422(18)
H15_3 H 0.9995 0.4634 0.1615
C24_3 C 0.87735(14) 0.3546(2) 0.5461(2)
C25_3 C 0.91351(13) 0.35390(18) 0.4576(2)
C26_3 C 0.91483(13) 0.28956(19) 0.3969(2)
H21_3 H 0.8928 0.2458 0.4108
C27_3 C 0.94858(14) 0.29008(18) 0.3161(2)
H22_3 H 0.9491 0.2465 0.2762
C28_3 C 0.98172(12) 0.35438(17) 0.29335(19)
C29_3 C 0.97934(14) 0.41921(19) 0.3532(2)
C30_3 C 0.94576(14) 0.41850(18) 0.4345(2)
H24_3 H 0.9449 0.4622 0.4742
O5_3 O 0.84931(9) 0.29333(14) 0.56552(16)
O6_3 O 0.87562(13) 0.41386(15) 0.59622(17)
C44_3 C 0.81540(17) 0.3525(2) 0.8867(2)
H38_3 H 0.7755 0.3446 0.8971
C45_3 C 0.9096(2) 0.3762(2) 0.9148(3)
H39_3 H 0.9465 0.3876 0.9458
C46_3 C 0.89713(15) 0.3654(2) 0.8194(3)
H40_3 H 0.9248 0.3676 0.7717
N7_3 N 0.85778(18) 0.3677(2) 0.9580(2)
N8_3 N 0.83774(11) 0.35031(14) 0.80076(17)
H27_3 H 0.0042 0.9635 0.8438
H19_2 H 0.9958 0.0365 0.1562
H25_2 H 0.8335 0.9534 0.0065
C34_2 C 0.91957(13) 0.9818(2) 0.0205(2)
H26_2 H 0.9189 0.9987 0.0853
C31_3 C 0.18780(12) 0.89264(17) 0.6701(2)
C32_3 C 0.13294(12) 0.92739(16) 0.62207(19)
C33_3 C 0.13179(13) 0.9541(2) 0.5267(2)
H25_3 H 0.1665 0.9534 0.4935
C34_3 C 0.08043(13) 0.9818(2) 0.4795(2)
H26_3 H 0.0811 0.9987 0.4147
C35_3 C 0.02774(11) 0.98534(15) 0.52562(19)
C36_3 C 0.02999(13) 0.9607(2) 0.6219(2)
C37_3 C 0.08136(14) 0.9321(2) 0.6691(2)
H28_3 H 0.0809 0.9157 0.7341
O7_3 O 0.23329(8) 0.89179(13) 0.61943(14)
O8_3 O 0.18864(9) 0.86403(14) 0.75396(14)
Co3 Co 0.296519(16) 0.82108(2) 0.67065(3)
C38_4 C 0.22787(14) 0.68566(18) 0.7506(2)
H29_4 H 0.2157 0.7138 0.8040
C39_4 C 0.2653(2) 0.6566(2) 0.6192(3)
H30_4 H 0.2851 0.6599 0.5616
C40_4 C 0.2390(2) 0.5933(2) 0.6507(3)
H31_4 H 0.2373 0.5453 0.6197
C41_4 C 0.1802(2) 0.5583(2) 0.7921(3)
H32_4 H 0.1386 0.5632 0.7697
H33_4 H 0.1924 0.5056 0.7793
C42_4 C 0.18732(18) 0.5742(2) 0.9102(3)
H34_4 H 0.1796 0.5271 0.9460
H35_4 H 0.2274 0.5914 0.9294
C43_4 C 0.1458(3) 0.6320(4) 0.9319(4)
H36_4 H 0.1072 0.6205 0.8994
H37_4 H 0.1588 0.6821 0.9094
N5_2 N 0.25910(10) 0.71497(14) 0.68268(16)
N6_4 N 0.21516(11) 0.61142(14) 0.73578(18)
C11_3 C 0.58649(13) 0.85390(18) 0.0424(2)
C12_3 C 0.58517(13) 0.78956(19) 0.1031(2)
H13_3 H 0.6072 0.7458 0.0892
C13_3 C 0.55142(14) 0.79008(18) 0.1839(2)
H14_3 H 0.5509 0.7465 0.2238
C14_3 C 0.51828(12) 0.85438(17) 0.20665(19)
C15_3 C 0.52066(14) 0.91921(19) 0.1468(2)
H15_4 H 0.4995 0.9634 0.1615
C16_3 C 0.55424(14) 0.91850(18) 0.0655(2)
H16_3 H 0.5551 0.9622 0.0258
C24_4 C 0.37735(14) 0.8546(2) 0.5461(2)
C25_4 C 0.41351(13) 0.85390(18) 0.4576(2)
C26_4 C 0.41483(13) 0.78956(19) 0.3969(2)
H21_4 H 0.3928 0.7458 0.4108
C27_4 C 0.44858(14) 0.79008(18) 0.3161(2)
H22_4 H 0.4491 0.7465 0.2762
C28_4 C 0.48172(12) 0.85438(17) 0.29335(19)
C29_4 C 0.47934(14) 0.91921(19) 0.3532(2)
H23_3 H 0.5005 0.9634 0.3385
C30_4 C 0.44576(14) 0.91850(18) 0.4345(2)
H24_4 H 0.4449 0.9622 0.4742
O5_4 O 0.34931(9) 0.79333(14) 0.56552(16)
O6_4 O 0.37562(13) 0.91386(15) 0.59622(17)
C44_4 C 0.31540(17) 0.8525(2) 0.8867(2)
H38_4 H 0.2755 0.8446 0.8971
C45_4 C 0.4096(2) 0.8762(2) 0.9148(3)
H39_4 H 0.4465 0.8876 0.9458
C46_4 C 0.39713(15) 0.8654(2) 0.8194(3)
H40_4 H 0.4248 0.8676 0.7717
N7_4 N 0.35778(18) 0.8677(2) 0.9580(2)
N8_4 N 0.33774(11) 0.85031(14) 0.80076(17)
C31_4 C 0.81220(12) 0.89264(17) 0.8299(2)
C32_4 C 0.86706(12) 0.92739(16) 0.87793(19)
C33_4 C 0.86821(13) 0.9541(2) 0.9733(2)
C35_4 C 0.97226(11) 0.98534(15) 0.97438(19)
C36_4 C 0.97001(13) 0.9607(2) 0.8781(2)
C37_4 C 0.91864(14) 0.9321(2) 0.8309(2)
H28_4 H 0.9191 0.9157 0.7659
O7_4 O 0.76671(8) 0.89179(13) 0.88057(14)
O8_4 O 0.81136(9) 0.86403(14) 0.74604(14)
Co3_2 Co 0.703481(16) 0.82108(2) 0.82935(3)
Co1_2 Co 0.796519(16) 0.67892(2) 0.17065(3)
C1_3 C 0.77213(14) 0.68566(18) 0.7494(2)
H1_3 H 0.7843 0.7138 0.6960
C2_3 C 0.7347(2) 0.6566(2) 0.8808(3)
H2_3 H 0.7149 0.6599 0.9384
C3_3 C 0.7610(2) 0.5933(2) 0.8493(3)
H3_3 H 0.7627 0.5453 0.8803
C4_3 C 0.8198(2) 0.5583(2) 0.7079(3)
H4_3 H 0.8614 0.5632 0.7303
H5_3 H 0.8076 0.5056 0.7207
C5_3 C 0.81268(18) 0.5742(2) 0.5898(3)
H6_3 H 0.8204 0.5271 0.5540
H7_3 H 0.7726 0.5914 0.5706
C6_3 C 0.8542(3) 0.6320(4) 0.5681(4)
H8_3 H 0.8928 0.6205 0.6006
H9_3 H 0.8412 0.6821 0.5906
C7_3 C 0.81540(17) 0.6475(2) 0.3867(2)
H10_3 H 0.7755 0.6554 0.3971
C8_3 C 0.9096(2) 0.6238(2) 0.4148(3)
H11_3 H 0.9465 0.6124 0.4458
C9_3 C 0.89713(15) 0.6346(2) 0.3194(3)
H12_3 H 0.9248 0.6324 0.2717
C10_3 C 0.87735(14) 0.6454(2) 0.0461(2)
C17_4 C 0.68780(12) 0.60736(17) 0.1701(2)
C18_4 C 0.63294(12) 0.57261(16) 0.12207(19)
C19_4 C 0.63179(13) 0.5459(2) 0.0267(2)
C21_4 C 0.52774(11) 0.51466(15) 0.02562(19)
C22_4 C 0.52999(13) 0.5393(2) 0.1219(2)
H19_3 H 0.4958 0.5365 0.1562
C23_4 C 0.58136(14) 0.5679(2) 0.1691(2)
H20_4 H 0.5809 0.5843 0.2341
N1_2 N 0.74090(10) 0.71497(14) 0.81732(16)
N2_3 N 0.78484(11) 0.61142(14) 0.76422(18)
N3_3 N 0.85778(18) 0.6323(2) 0.4580(2)
N4_3 N 0.83774(11) 0.64969(14) 0.30076(17)
O1_3 O 0.84931(9) 0.70667(14) 0.06552(16)
O2_3 O 0.87562(13) 0.58614(15) 0.09622(17)
O3_2 O 0.73329(8) 0.60821(13) 0.11943(14)
O4_4 O 0.68864(9) 0.63597(14) 0.25396(14)
H25_4 H 0.3335 0.4534 0.0065
C34_4 C 0.41957(13) 0.4818(2) 0.0205(2)
H26_4 H 0.4189 0.4987 0.0853
N9_2 N 0.75910(10) 0.78503(14) 0.18268(16)
C1_4 C 0.72787(14) 0.81434(18) 0.2506(2)
H1_4 H 0.7157 0.7862 0.3040
C2_4 C 0.7653(2) 0.8434(2) 0.1192(3)
H2_4 H 0.7851 0.8401 0.0616
C3_4 C 0.7390(2) 0.9067(2) 0.1507(3)
H3_4 H 0.7373 0.9547 0.1197
C4_4 C 0.6802(2) 0.9417(2) 0.2921(3)
H4_4 H 0.6386 0.9368 0.2697
H5_4 H 0.6924 0.9944 0.2793
C5_4 C 0.68732(18) 0.9258(2) 0.4102(3)
H6_4 H 0.6796 0.9729 0.4460
H7_4 H 0.7274 0.9086 0.4294
C6_4 C 0.6458(3) 0.8680(4) 0.4319(4)
H8_4 H 0.6072 0.8795 0.3994
H9_4 H 0.6588 0.8179 0.4094
C7_4 C 0.68460(17) 0.8525(2) 0.6133(2)
H10_4 H 0.7245 0.8446 0.6029
C8_4 C 0.5904(2) 0.8762(2) 0.5852(3)
H11_4 H 0.5535 0.8876 0.5542
C9_4 C 0.60287(15) 0.8654(2) 0.6806(3)
H12_4 H 0.5752 0.8676 0.7283
C10_4 C 0.62265(14) 0.8546(2) 0.9539(2)
N2_4 N 0.71516(11) 0.88858(14) 0.23578(18)
N3_4 N 0.64222(18) 0.8677(2) 0.5420(2)
N4_4 N 0.66226(11) 0.85031(14) 0.69924(17)
O1_4 O 0.65069(9) 0.79333(14) 0.93448(16)
O2_4 O 0.62438(13) 0.91386(15) 0.90378(17)
C11_4 C 0.08649(13) 0.35390(18) 0.0424(2)
C12_4 C 0.08517(13) 0.28956(19) 0.1031(2)
H13_4 H 0.1072 0.2458 0.0892
C13_4 C 0.05142(14) 0.29008(18) 0.1839(2)
H14_4 H 0.0509 0.2465 0.2238
C14_4 C 0.01828(12) 0.35438(17) 0.20665(19)
C15_4 C 0.02066(14) 0.41921(19) 0.1468(2)
C16_4 C 0.05424(14) 0.41850(18) 0.0655(2)
H16_4 H 0.0551 0.4622 0.0258
H23_4 H 0.0005 0.4634 0.3385
H19_4 H 0.0042 0.0365 0.3438
H27_4 H 0.9958 0.9635 0.6562
loop_
_geom_bond_atom_site_label_1
_geom_bond_atom_site_label_2
_geom_bond_site_symmetry_1
_geom_bond_site_symmetry_2
Co1 N4 1_555 1_555
C1 H1 1_555 1_555
C2 H2 1_555 1_555
C3 C2 1_555 1_555
H3 C3 1_555 1_555
C4 H4 1_555 1_555
H5 C4 1_555 1_555
C5 C4 1_555 1_555
H6 C5 1_555 1_555
H7 C5 1_555 1_555
C6 C5 1_555 1_555
H8 C6 1_555 1_555
H9 C6 1_555 1_555
C7 H10 1_555 1_555
C8 H11 1_555 1_555
C9 C8 1_555 1_555
H12 C9 1_555 1_555
C17 C18 1_555 1_555
C18 C19 1_555 1_555
C22 C21 1_555 1_555
C23 C18 1_555 1_555
H20 C23 1_555 1_555
N1 C1 1_555 1_555
N2 C1 1_555 1_555
N3 C6 1_555 1_555
N4 C7 1_555 1_555
O1 Co1 1_555 1_555
O2 C10 1_555 1_555
O3 Co1 1_555 1_555
O4 C17 1_555 1_555
Co4 N1 1_555 1_555
N9 Co1 1_555 1_555
C2 N1 1_555 1_555
C3 N2 1_555 1_555
C4 N2 1_555 1_555
C7 N3 1_555 1_555
C8 N3 1_555 1_555
C9 N4 1_555 1_555
C10 O1 1_555 1_555
C17 O3 1_555 1_555
C22 C23 1_555 1_555
C11 C12 1_555 1_555
C12 H13 1_555 1_555
C13 C12 1_555 1_555
H14 C13 1_555 1_555
C14 C13 1_555 1_555
C15 C14 1_555 1_555
C16 C11 1_555 1_555
H16 C16 1_555 1_555
H18 C20 1_555 1_555
C31 C32 1_555 1_555
C32 C33 1_555 1_555
C36 C35 1_555 1_555
H27 C36 1_555 1_555
C37 C32 1_555 1_555
H28 C37 1_555 1_555
O7 C31 1_555 1_555
O8 C31 1_555 1_555
Co4 O7 1_555 1_555
C15 C16 1_555 1_555
C36 C37 1_555 1_555
Co4 N4_2 1_555 1_555
C1_2 H1_2 1_555 1_555
C2_2 H2_2 1_555 1_555
C3_2 C2_2 1_555 1_555
H3_2 C3_2 1_555 1_555
C4_2 H4_2 1_555 1_555
H5_2 C4_2 1_555 1_555
C5_2 C4_2 1_555 1_555
H6_2 C5_2 1_555 1_555
H7_2 C5_2 1_555 1_555
C6_2 C5_2 1_555 1_555
H8_2 C6_2 1_555 1_555
H9_2 C6_2 1_555 1_555
C7_2 H10_2 1_555 1_555
C8_2 H11_2 1_555 1_555
C9_2 C8_2 1_555 1_555
H12_2 C9_2 1_555 1_555
N9 C1_2 1_555 1_555
N2_2 C1_2 1_555 1_555
N3_2 C6_2 1_555 1_555
N4_2 C7_2 1_555 1_555
O1_2 Co4 1_555 1_555
O2_2 C10_2 1_555 1_555
C2_2 N9 1_555 1_555
C3_2 N2_2 1_555 1_555
C4_2 N2_2 1_555 1_555
C7_2 N3_2 1_555 1_555
C8_2 N3_2 1_555 1_555
C9_2 N4_2 1_555 1_555
C10_2 O1_2 1_555 1_555
C11_2 C12_2 1_555 1_555
C12_2 H13_2 1_555 1_555
C13_2 C12_2 1_555 1_555
H14_2 C13_2 1_555 1_555
C14_2 C13_2 1_555 1_555
C15_2 C14_2 1_555 1_555
H15 C15_2 1_555 1_555
C16_2 C11_2 1_555 1_555
H16_2 C16_2 1_555 1_555
H18_2 C20_2 1_555 1_555
C24 C25 1_555 1_555
C25 C26 1_555 1_555
C26 H21 1_555 1_555
C27 C26 1_555 1_555
H22 C27 1_555 1_555
C28 C14_2 1_555 1_555
C29 C28 1_555 1_555
H23_2 C29 1_555 1_555
C30 C25 1_555 1_555
H24 C30 1_555 1_555
O5 C24 1_555 1_555
O6 C24 1_555 1_555
Co2 O5 1_555 1_555
C44 H38 1_555 1_555
C45 H39 1_555 1_555
C46 C45 1_555 1_555
H40 C46 1_555 1_555
N8 Co2 1_555 1_555
N10 Co2 1_555 1_555
O9 Co2 1_555 1_555
C15_2 C16_2 1_555 1_555
C27 C28 1_555 1_555
C29 C30 1_555 1_555
C44 N7 1_555 1_555
C44 N8 1_555 1_555
C45 N7 1_555 1_555
C46 N8 1_555 1_555
C17_2 C18_2 1_555 1_555
C18_2 C19_2 1_555 1_555
C19_2 H17_3 1_555 1_555
C20_3 C19_2 1_555 1_555
H18_3 C20_3 1_555 1_555
C21_2 C20_3 1_555 1_555
C22_2 C21_2 1_555 1_555
C23_2 C18_2 1_555 1_555
H20_2 C23_2 1_555 1_555
O4_2 C17_2 1_555 1_555
C17_2 O9 1_555 1_555
C22_2 C23_2 1_555 1_555
C38 H29 1_555 1_555
C39 H30 1_555 1_555
C40 C39 1_555 1_555
H31 C40 1_555 1_555
C41 H32 1_555 1_555
H33 C41 1_555 1_555
C42 C41 1_555 1_555
H34 C42 1_555 1_555
H35 C42 1_555 1_555
C43 C42 1_555 1_555
H36 C43 1_555 1_555
H37 C43 1_555 1_555
N10 C38 1_555 1_555
N6 C38 1_555 1_555
C39 N10 1_555 1_555
C40 N6 1_555 1_555
C41 N6 1_555 1_555
C38_2 H29_2 1_555 1_555
C39_2 H30_2 1_555 1_555
C40_2 C39_2 1_555 1_555
H31_2 C40_2 1_555 1_555
C41_2 H32_2 1_555 1_555
H33_2 C41_2 1_555 1_555
C42_2 C41_2 1_555 1_555
H34_2 C42_2 1_555 1_555
H35_2 C42_2 1_555 1_555
C43_2 C42_2 1_555 1_555
H36_2 C43_2 1_555 1_555
H37_2 C43_2 1_555 1_555
N5 C38_2 1_555 1_555
N6_2 C38_2 1_555 1_555
Co5 N5 1_555 1_555
C39_2 N5 1_555 1_555
C40_2 N6_2 1_555 1_555
C41_2 N6_2 1_555 1_555
C24_2 C25_2 1_555 1_555
C25_2 C26_2 1_555 1_555
C26_2 H21_2 1_555 1_555
C27_2 C26_2 1_555 1_555
H22_2 C27_2 1_555 1_555
C29_2 C28_2 1_555 1_555
C30_2 C25_2 1_555 1_555
H24_2 C30_2 1_555 1_555
O5_2 C24_2 1_555 1_555
O6_2 C24_2 1_555 1_555
Co2_2 O5_2 1_555 1_555
C44_2 H38_2 1_555 1_555
C45_2 H39_2 1_555 1_555
C46_2 C45_2 1_555 1_555
H40_2 C46_2 1_555 1_555
N8_2 Co2_2 1_555 1_555
N10_2 Co2_2 1_555 1_555
O9_2 Co2_2 1_555 1_555
C27_2 C28_2 1_555 1_555
C29_2 C30_2 1_555 1_555
C44_2 N7_2 1_555 1_555
C44_2 N8_2 1_555 1_555
C45_2 N7_2 1_555 1_555
C46_2 N8_2 1_555 1_555
C17_3 C18_3 1_555 1_555
C18_3 C19_3 1_555 1_555
C19_3 H17_4 1_555 1_555
C20_4 C19_3 1_555 1_555
H18_4 C20_4 1_555 1_555
C21_3 C20_4 1_555 1_555
C22_3 C21_3 1_555 1_555
H19 C22_3 1_555 1_555
C23_3 C18_3 1_555 1_555
H20_3 C23_3 1_555 1_555
O4_3 C17_3 1_555 1_555
C31_2 C32_2 1_555 1_555
C32_2 C33_2 1_555 1_555
C33_2 H25 1_555 1_555
C34 C33_2 1_555 1_555
H26 C34 1_555 1_555
C35_2 C21_3 1_555 1_555
C36_2 C35_2 1_555 1_555
H27_2 C36_2 1_555 1_555
C37_2 C32_2 1_555 1_555
H28_2 C37_2 1_555 1_555
O7_2 C31_2 1_555 1_555
O8_2 C31_2 1_555 1_555
Co5 O7_2 1_555 1_555
C17_3 O9_2 1_555 1_555
C22_3 C23_3 1_555 1_555
C34 C35_2 1_555 1_555
C36_2 C37_2 1_555 1_555
C38_3 H29_3 1_555 1_555
C39_3 H30_3 1_555 1_555
C40_3 C39_3 1_555 1_555
H31_3 C40_3 1_555 1_555
C41_3 H32_3 1_555 1_555
H33_3 C41_3 1_555 1_555
C42_3 C41_3 1_555 1_555
H34_3 C42_3 1_555 1_555
H35_3 C42_3 1_555 1_555
C43_3 C42_3 1_555 1_555
H36_3 C43_3 1_555 1_555
H37_3 C43_3 1_555 1_555
N10_2 C38_3 1_555 1_555
N6_3 C38_3 1_555 1_555
C39_3 N10_2 1_555 1_555
C40_3 N6_3 1_555 1_555
C41_3 N6_3 1_555 1_555
C24_3 C25_3 1_555 1_555
C25_3 C26_3 1_555 1_555
C26_3 H21_3 1_555 1_555
C27_3 C26_3 1_555 1_555
H22_3 C27_3 1_555 1_555
C29_3 C28_3 1_555 1_555
C30_3 C25_3 1_555 1_555
H24_3 C30_3 1_555 1_555
O5_3 C24_3 1_555 1_555
O6_3 C24_3 1_555 1_555
Co5 O5_3 1_555 1_555
C44_3 H38_3 1_555 1_555
C45_3 H39_3 1_555 1_555
C46_3 C45_3 1_555 1_555
H40_3 C46_3 1_555 1_555
N8_3 Co5 1_555 1_555
C27_3 C28_3 1_555 1_555
C29_3 C30_3 1_555 1_555
C44_3 N7_3 1_555 1_555
C44_3 N8_3 1_555 1_555
C45_3 N7_3 1_555 1_555
C46_3 N8_3 1_555 1_555
H26_2 C34_2 1_555 1_555
C31_3 C32_3 1_555 1_555
C32_3 C33_3 1_555 1_555
C33_3 H25_3 1_555 1_555
C34_3 C33_3 1_555 1_555
H26_3 C34_3 1_555 1_555
C36_3 C35_3 1_555 1_555
C37_3 C32_3 1_555 1_555
H28_3 C37_3 1_555 1_555
O7_3 C31_3 1_555 1_555
O8_3 C31_3 1_555 1_555
Co3 O7_3 1_555 1_555
C34_3 C35_3 1_555 1_555
C36_3 C37_3 1_555 1_555
C38_4 H29_4 1_555 1_555
C39_4 H30_4 1_555 1_555
C40_4 C39_4 1_555 1_555
H31_4 C40_4 1_555 1_555
C41_4 H32_4 1_555 1_555
H33_4 C41_4 1_555 1_555
C42_4 C41_4 1_555 1_555
H34_4 C42_4 1_555 1_555
H35_4 C42_4 1_555 1_555
C43_4 C42_4 1_555 1_555
H36_4 C43_4 1_555 1_555
H37_4 C43_4 1_555 1_555
N5_2 C38_4 1_555 1_555
N6_4 C38_4 1_555 1_555
Co3 N5_2 1_555 1_555
C39_4 N5_2 1_555 1_555
C40_4 N6_4 1_555 1_555
C41_4 N6_4 1_555 1_555
C11_3 C12_3 1_555 1_555
C12_3 H13_3 1_555 1_555
C13_3 C12_3 1_555 1_555
H14_3 C13_3 1_555 1_555
C14_3 C13_3 1_555 1_555
C15_3 C14_3 1_555 1_555
H15_4 C15_3 1_555 1_555
C16_3 C11_3 1_555 1_555
H16_3 C16_3 1_555 1_555
C24_4 C25_4 1_555 1_555
C25_4 C26_4 1_555 1_555
C26_4 H21_4 1_555 1_555
C27_4 C26_4 1_555 1_555
H22_4 C27_4 1_555 1_555
C28_4 C14_3 1_555 1_555
C29_4 C28_4 1_555 1_555
H23_3 C29_4 1_555 1_555
C30_4 C25_4 1_555 1_555
H24_4 C30_4 1_555 1_555
O5_4 C24_4 1_555 1_555
O6_4 C24_4 1_555 1_555
Co3 O5_4 1_555 1_555
C44_4 H38_4 1_555 1_555
C45_4 H39_4 1_555 1_555
C46_4 C45_4 1_555 1_555
H40_4 C46_4 1_555 1_555
N8_4 Co3 1_555 1_555
C15_3 C16_3 1_555 1_555
C27_4 C28_4 1_555 1_555
C29_4 C30_4 1_555 1_555
C44_4 N7_4 1_555 1_555
C44_4 N8_4 1_555 1_555
C45_4 N7_4 1_555 1_555
C46_4 N8_4 1_555 1_555
C31_4 C32_4 1_555 1_555
C32_4 C33_4 1_555 1_555
C36_4 C35_4 1_555 1_555
C37_4 C32_4 1_555 1_555
H28_4 C37_4 1_555 1_555
O7_4 C31_4 1_555 1_555
O8_4 C31_4 1_555 1_555
Co3_2 O7_4 1_555 1_555
C36_4 C37_4 1_555 1_555
Co1_2 N4_3 1_555 1_555
C1_3 H1_3 1_555 1_555
C2_3 H2_3 1_555 1_555
C3_3 C2_3 1_555 1_555
H3_3 C3_3 1_555 1_555
C4_3 H4_3 1_555 1_555
H5_3 C4_3 1_555 1_555
C5_3 C4_3 1_555 1_555
H6_3 C5_3 1_555 1_555
H7_3 C5_3 1_555 1_555
C6_3 C5_3 1_555 1_555
H8_3 C6_3 1_555 1_555
H9_3 C6_3 1_555 1_555
C7_3 H10_3 1_555 1_555
C8_3 H11_3 1_555 1_555
C9_3 C8_3 1_555 1_555
H12_3 C9_3 1_555 1_555
C17_4 C18_4 1_555 1_555
C18_4 C19_4 1_555 1_555
C22_4 C21_4 1_555 1_555
H19_3 C22_4 1_555 1_555
C23_4 C18_4 1_555 1_555
H20_4 C23_4 1_555 1_555
N1_2 C1_3 1_555 1_555
N2_3 C1_3 1_555 1_555
N3_3 C6_3 1_555 1_555
N4_3 C7_3 1_555 1_555
O1_3 Co1_2 1_555 1_555
O2_3 C10_3 1_555 1_555
O3_2 Co1_2 1_555 1_555
O4_4 C17_4 1_555 1_555
H26_4 C34_4 1_555 1_555
Co3_2 N1_2 1_555 1_555
N9_2 Co1_2 1_555 1_555
C2_3 N1_2 1_555 1_555
C3_3 N2_3 1_555 1_555
C4_3 N2_3 1_555 1_555
C7_3 N3_3 1_555 1_555
C8_3 N3_3 1_555 1_555
C9_3 N4_3 1_555 1_555
C10_3 O1_3 1_555 1_555
C17_4 O3_2 1_555 1_555
C22_4 C23_4 1_555 1_555
Co3_2 N4_4 1_555 1_555
C1_4 H1_4 1_555 1_555
C2_4 H2_4 1_555 1_555
C3_4 C2_4 1_555 1_555
H3_4 C3_4 1_555 1_555
C4_4 H4_4 1_555 1_555
H5_4 C4_4 1_555 1_555
C5_4 C4_4 1_555 1_555
H6_4 C5_4 1_555 1_555
H7_4 C5_4 1_555 1_555
C6_4 C5_4 1_555 1_555
H8_4 C6_4 1_555 1_555
H9_4 C6_4 1_555 1_555
C7_4 H10_4 1_555 1_555
C8_4 H11_4 1_555 1_555
C9_4 C8_4 1_555 1_555
H12_4 C9_4 1_555 1_555
N9_2 C1_4 1_555 1_555
N2_4 C1_4 1_555 1_555
N3_4 C6_4 1_555 1_555
N4_4 C7_4 1_555 1_555
O1_4 Co3_2 1_555 1_555
O2_4 C10_4 1_555 1_555
C2_4 N9_2 1_555 1_555
C3_4 N2_4 1_555 1_555
C4_4 N2_4 1_555 1_555
C7_4 N3_4 1_555 1_555
C8_4 N3_4 1_555 1_555
C9_4 N4_4 1_555 1_555
C10_4 O1_4 1_555 1_555
C11_4 C12_4 1_555 1_555
C12_4 H13_4 1_555 1_555
C13_4 C12_4 1_555 1_555
H14_4 C13_4 1_555 1_555
C14_4 C13_4 1_555 1_555
C15_4 C14_4 1_555 1_555
C16_4 C11_4 1_555 1_555
H16_4 C16_4 1_555 1_555
C15_4 C16_4 1_555 1_555

#END
