
###############################################################################
#
# This file contains modified crystal structure data generated from the
# MOF subset of the Cambridge Structural Database (CSD) v543 
# hosted by the Cambridge Crystallographic Data Centre (CCDC).
#
# This work is licensed under the Creative Commons
# Attribution-NonCommercial-ShareAlike 4.0 International License.
# To view a copy of this license, visit
# http://creativecommons.org/licenses/by-nc-sa/4.0/
# or send a letter to
# Creative Commons, PO Box 1866, Mountain View, CA 94042, USA.
#
# CIF created using the CSD Python API on 29 September 2022
# The structure has been converted into the P1 space group
# The structure has a 3D framework
# The original CSD entry MULXOI is in the hexagonal crystal system
# The original CSD entry MULXOI is in a Sohncke space group
# The framework has been calculated to contain at least 10.0% void space
# The void calculation uses a probe of radius 1.32A, grid spacing 0.4
#
###############################################################################

data_MULXOI
_chemical_formula_moiety         '(C138 H60 O60 Zn12)n'
_symmetry_cell_setting           triclinic
_symmetry_space_group_name_H-M   'P 1'
_symmetry_Int_Tables_number      1
_space_group_name_Hall           'P 1'
loop_
_symmetry_equiv_pos_site_id
_symmetry_equiv_pos_as_xyz
1 x,y,z
_cell_length_a                   12.399(4)
_cell_length_b                   12.399(4)
_cell_length_c                   51.391(15)
_cell_angle_alpha                90
_cell_angle_beta                 90
_cell_angle_gamma                120
_cell_volume                     6842.13
loop_
_atom_site_label
_atom_site_type_symbol
_atom_site_fract_x
_atom_site_fract_y
_atom_site_fract_z
Zn1 Zn 0.37443(12) 0.56027(12) 0.23028(3)
Zn2 Zn 0.81908(12) 0.53413(12) 0.11911(3)
O1 O 0.3234(10) 0.4784(11) 0.1981(2)
O3 O 0.6473(7) 0.3209(7) 0.07556(15)
O4 O 0.6552(7) 0.4441(7) 0.10696(15)
O9 O 0.1398(15) 0.4619(19) 0.2037(3)
H1 H 0.1675 0.4909 0.2181
C2 C 0.5987(12) 0.3536(12) 0.0914(3)
C3 C 0.4566(10) 0.2835(11) 0.0914(2)
C4 C 0.3951(10) 0.1833(10) 0.0771(2)
H2 H 0.4393 0.1582 0.0666
C5 C 0.2564(12) 0.1083(12) 0.0773(2)
C6 C 0.2009(10) 0.1567(10) 0.0917(2)
H3 H 0.1146 0.1179 0.0908
C7 C 0.2610(9) 0.2590(8) 0.10765(19)
C8 C 0.3895(13) 0.3212(11) 0.1073(3)
H4 H 0.4331 0.3905 0.1179
C9 C 0.1867(10) 0.3013(9) 0.1233(2)
C10 C 0.2294(10) 0.3527(10) 0.1491(2)
H5 H 0.2979 0.3516 0.1561
C11 C 0.0712(10) 0.4060(11) 0.1509(2)
H6 H 0.0293 0.4393 0.1598
C12 C 0.1703(11) 0.4041(10) 0.1638(3)
C13 C 0.0327(12) 0.3630(11) 0.1266(3)
C14 C 0.0948(10) 0.3078(9) 0.1148(2)
H7 H 0.0644 0.2714 0.0986
H8 H 0.2897 0.0739 0.0286
C23 C 0.228(3) 0.4537(17) 0.1897(4)
Zn5 Zn 0.81416(17) 0.37443(12) 0.06361(3)
O11 O 0.7816(8) 0.5969(11) 0.15000(17)
O12 O 0.3209(7) 0.6736(10) 0.24223(15)
O13 O 0.9206(8) 0.6656(8) 0.09250(16)
O14 O 0.5524(8) 0.6472(11) 0.22444(15)
O15 O 0.8806(8) 0.4182(11) 0.12578(17)
O16 O 0.3526(10) 0.4322(13) 0.2559(3)
O8 O 0.9204(8) 0.3526(10) 0.0892(3)
C1 C 0.9429(14) 0.3758(11) 0.1139(3)
O6 O 0.9052(8) 0.5524(8) 0.05777(15)
C21 C 0.9469(11) 0.6492(13) 0.0706(3)
O1_2 O 0.8450(15) 0.3234(10) 0.0314(2)
O9_2 O 0.6779(24) 0.1398(15) 0.0370(3)
H1_2 H 0.6766 0.1675 0.0514
C23_2 C 0.7743(34) 0.228(3) 0.0230(4)
O2 O 0.8153(8) 0.2184(8) 0.48333(17)
O10 O 0.6933(10) 0.0126(9) 0.48684(18)
C15 C 0.8056(9) 0.0183(9) 0.5637(2)
C16 C 0.7648(11) 0.0018(11) 0.5364(2)
C17 C 0.8243(11) 0.1248(11) 0.5233(2)
C18 C 0.9010(10) 0.1148(9) 0.5723(2)
H9 H 0.9344 0.1110 0.5883
C19 C 0.9576(10) 0.2278(10) 0.5582(2)
C20 C 0.9137(10) 0.2309(11) 0.53346(19)
H10 H 0.9459 0.3052 0.5242
C22 C 0.7602(11) 0.1007(12) 0.4945(2)
Zn8 Zn 0.71505(17) 0.18092(12) 0.45244(3)
O7 O 0.5376(14) 0.1194(8) 0.45911(17)
O8_2 O 0.4322(13) 0.0796(8) 0.4225(3)
C1_2 C 0.4329(18) 0.0571(14) 0.4472(3)
Zn4 Zn 0.56027(21) 0.18584(17) 0.39695(3)
O5 O 0.7450(11) 0.0794(8) 0.42583(16)
O6_2 O 0.6472(11) 0.0948(8) 0.39110(15)
C21_2 C 0.7023(17) 0.0531(11) 0.4039(3)
O2_2 O 0.5969(11) 0.8153(8) 0.31666(17)
O3_2 O 0.6736(10) 0.3527(7) 0.40889(15)
O4_2 O 0.7889(10) 0.3448(7) 0.44029(15)
O10_2 O 0.6807(13) 0.6933(10) 0.32017(18)
C2_2 C 0.7549(17) 0.4013(12) 0.4247(3)
C3_2 C 0.8269(15) 0.5434(10) 0.4247(2)
C4_2 C 0.7882(14) 0.6049(10) 0.4104(2)
H2_2 H 0.7189 0.5607 0.3999
C5_2 C 0.8519(17) 0.7436(12) 0.4106(2)
C6_2 C 0.9558(14) 0.7991(10) 0.4250(2)
C7_2 C 0.9980(12) 0.7390(9) 0.44098(19)
C8_2 C 0.9317(17) 0.6105(13) 0.4406(3)
H4_2 H 0.9574 0.5669 0.4512
C15_2 C 0.7873(13) 0.8056(9) 0.3970(2)
C16_2 C 0.7630(16) 0.7648(11) 0.3697(2)
H8_2 H 0.7842 0.7103 0.3619
C17_2 C 0.6995(16) 0.8243(11) 0.3566(2)
C18_2 C 0.7862(13) 0.9010(10) 0.4056(2)
H9_2 H 0.8234 0.9344 0.4216
C19_2 C 0.7298(14) 0.9576(10) 0.3915(2)
C20_2 C 0.6828(15) 0.9137(10) 0.36679(19)
H10_2 H 0.6407 0.9459 0.3575
C22_2 C 0.6595(16) 0.7602(11) 0.3278(2)
Zn8_2 Zn 0.53413(21) 0.71505(17) 0.28578(3)
O1_3 O 0.4784(11) 0.1550(15) 0.3648(2)
O7_2 O 0.4182(11) 0.5376(14) 0.29245(17)
O9_3 O 0.4619(19) 0.3221(24) 0.3704(3)
H1_3 H 0.4909 0.3234 0.3848
C1_3 C 0.3758(11) 0.4329(18) 0.2806(3)
H3_2 H 0.1179 0.0033 0.2575
C9_2 C 0.3013(9) 0.1146(13) 0.2900(2)
C10_2 C 0.3527(10) 0.1233(14) 0.3158(2)
H5_2 H 0.3516 0.0537 0.3228
C11_2 C 0.4060(11) 0.3348(15) 0.3176(2)
H6_2 H 0.4393 0.4100 0.3265
C12_2 C 0.4041(10) 0.2338(15) 0.3305(3)
C13_2 C 0.3630(11) 0.3303(16) 0.2933(3)
C14_2 C 0.3078(9) 0.2130(13) 0.2815(2)
H7_2 H 0.2714 0.2070 0.2653
C23_3 C 0.4537(17) 0.2257(34) 0.3564(4)
O4_3 O 0.4441(7) 0.7889(10) 0.27363(15)
C2_3 C 0.3536(12) 0.7549(17) 0.2581(3)
C3_3 C 0.2835(11) 0.8269(15) 0.2581(2)
C4_3 C 0.1833(10) 0.7882(14) 0.2438(2)
H2_3 H 0.1582 0.7189 0.2333
C5_3 C 0.1083(12) 0.8519(17) 0.2440(2)
C6_3 C 0.1567(10) 0.9558(14) 0.2584(2)
C7_3 C 0.2590(8) 0.9980(12) 0.27432(19)
C8_3 C 0.3212(11) 0.9317(17) 0.2740(3)
H4_3 H 0.3905 0.9574 0.2846
H8_3 H 0.0739 0.7842 0.1953
O13_2 O 0.6656(8) 0.7450(11) 0.25917(16)
O10_3 O 0.9874(9) 0.6807(13) 0.15351(18)
C15_3 C 0.9817(9) 0.7873(13) 0.2304(2)
C16_3 C 0.9982(11) 0.7630(16) 0.2031(2)
C17_3 C 0.8752(11) 0.6995(16) 0.1900(2)
C18_3 C 0.8852(9) 0.7862(13) 0.2390(2)
H9_3 H 0.8890 0.8234 0.2550
C19_3 C 0.7722(10) 0.7298(14) 0.2249(2)
C20_3 C 0.7691(11) 0.6828(15) 0.20013(19)
H10_3 H 0.6948 0.6407 0.1909
C21_3 C 0.6492(13) 0.7023(17) 0.2373(3)
C22_3 C 0.8993(12) 0.6595(16) 0.1612(2)
C15_4 C 0.1944(9) 0.9817(9) 0.0637(2)
C16_4 C 0.2352(11) 0.9982(11) 0.0364(2)
C17_4 C 0.1757(11) 0.8752(11) 0.0233(2)
C18_4 C 0.0990(10) 0.8852(9) 0.0723(2)
H9_4 H 0.0656 0.8890 0.0883
C19_4 C 0.0424(10) 0.7722(10) 0.0582(2)
C20_4 C 0.0863(10) 0.7691(11) 0.03346(19)
H10_4 H 0.0541 0.6948 0.0242
O2_3 O 0.1847(8) 0.7816(8) 0.98333(17)
O10_4 O 0.3067(10) 0.9874(9) 0.98684(18)
C22_4 C 0.2398(11) 0.8993(12) 0.9945(2)
Zn8_3 Zn 0.28495(17) 0.81908(12) 0.95244(3)
O2_4 O 0.4031(11) 0.1847(8) 0.81666(17)
O3_3 O 0.3264(10) 0.6473(7) 0.90889(15)
O4_4 O 0.2111(10) 0.6552(7) 0.94029(15)
O10_5 O 0.3193(13) 0.3067(10) 0.82017(18)
C2_4 C 0.2451(17) 0.5987(12) 0.9247(3)
C3_4 C 0.1731(15) 0.4566(10) 0.9247(2)
C4_4 C 0.2118(14) 0.3951(10) 0.9104(2)
H2_4 H 0.2811 0.4393 0.8999
C5_4 C 0.1481(17) 0.2564(12) 0.9106(2)
C6_4 C 0.0442(14) 0.2009(10) 0.9250(2)
C7_4 C 0.0020(12) 0.2610(9) 0.94098(19)
C8_4 C 0.0683(17) 0.3895(13) 0.9406(3)
H4_4 H 0.0426 0.4331 0.9512
C15_5 C 0.2127(13) 0.1944(9) 0.8970(2)
C16_5 C 0.2370(16) 0.2352(11) 0.8697(2)
H8_4 H 0.2158 0.2897 0.8619
C17_5 C 0.3005(16) 0.1757(11) 0.8566(2)
C18_5 C 0.2138(13) 0.0990(10) 0.9056(2)
H9_5 H 0.1766 0.0656 0.9216
C19_5 C 0.2702(14) 0.0424(10) 0.8915(2)
C20_5 C 0.3172(15) 0.0863(10) 0.86679(19)
H10_5 H 0.3593 0.0541 0.8575
C22_5 C 0.3405(16) 0.2398(11) 0.8278(2)
Zn5_2 Zn 0.43973(21) 0.81416(17) 0.89695(3)
Zn8_4 Zn 0.46587(21) 0.28495(17) 0.78578(3)
O13_3 O 0.2550(11) 0.9206(8) 0.92583(16)
O15_2 O 0.4624(14) 0.8806(8) 0.95911(17)
O6_3 O 0.3528(11) 0.9052(8) 0.89110(15)
C21_4 C 0.2977(17) 0.9469(11) 0.9039(3)
O8_3 O 0.5678(13) 0.9204(8) 0.9225(3)
C1_4 C 0.5671(18) 0.9429(14) 0.9472(3)
O2_5 O 0.2184(8) 0.4031(11) 0.65000(17)
O5_2 O 0.3344(8) 0.2550(11) 0.75917(16)
O6_4 O 0.4476(8) 0.3528(11) 0.72444(15)
O10_6 O 0.0126(9) 0.3193(13) 0.65351(18)
C15_6 C 0.0183(9) 0.2127(13) 0.7304(2)
C16_6 C 0.0018(11) 0.2370(16) 0.7031(2)
C17_6 C 0.1248(11) 0.3005(16) 0.6900(2)
C18_6 C 0.1148(9) 0.2138(13) 0.7390(2)
H9_6 H 0.1110 0.1766 0.7550
C19_6 C 0.2278(10) 0.2702(14) 0.7249(2)
C20_6 C 0.2309(11) 0.3172(15) 0.70013(19)
H10_6 H 0.3052 0.3593 0.6909
C21_5 C 0.3508(13) 0.2977(17) 0.7373(3)
C22_6 C 0.1007(12) 0.3405(16) 0.6612(2)
Zn3 Zn 0.62557(12) 0.43973(21) 0.73028(3)
Zn8_5 Zn 0.18092(12) 0.46587(21) 0.61911(3)
O3_4 O 0.6791(7) 0.3264(10) 0.74223(15)
O4_5 O 0.5559(7) 0.2111(10) 0.77363(15)
C2_5 C 0.6464(12) 0.2451(17) 0.7581(3)
C3_5 C 0.7165(11) 0.1731(15) 0.7581(2)
C4_5 C 0.8167(10) 0.2118(14) 0.7438(2)
H2_5 H 0.8418 0.2811 0.7333
C5_5 C 0.8917(12) 0.1481(17) 0.7440(2)
C6_5 C 0.8433(10) 0.0442(14) 0.7584(2)
C7_5 C 0.7410(8) 0.0020(12) 0.77432(19)
C8_5 C 0.6788(11) 0.0683(17) 0.7740(3)
H4_5 H 0.6095 0.0426 0.7846
H8_5 H 0.9261 0.2158 0.6953
O15_3 O 0.5818(11) 0.4624(14) 0.79245(17)
O1_4 O 0.5216(11) 0.8450(15) 0.8648(2)
O8_4 O 0.6474(10) 0.5678(13) 0.7559(3)
O9_4 O 0.5381(19) 0.6779(24) 0.8704(3)
H1_4 H 0.5091 0.6766 0.8848
C1_5 C 0.6242(11) 0.5671(18) 0.7806(3)
H3_3 H 0.8821 0.9967 0.7575
C9_3 C 0.6987(9) 0.8854(13) 0.7900(2)
C10_3 C 0.6473(10) 0.8767(14) 0.8158(2)
H5_3 H 0.6484 0.9463 0.8228
C11_3 C 0.5940(11) 0.6652(15) 0.8176(2)
H6_3 H 0.5607 0.5900 0.8265
C12_3 C 0.5959(10) 0.7662(15) 0.8305(3)
C13_3 C 0.6370(11) 0.6697(16) 0.7933(3)
C14_3 C 0.6922(9) 0.7870(13) 0.7815(2)
H7_3 H 0.7286 0.7930 0.7653
C23_4 C 0.5463(17) 0.7743(34) 0.8564(4)
O5_3 O 0.0794(8) 0.3344(8) 0.59250(16)
O6_5 O 0.0948(8) 0.4476(8) 0.55777(15)
C21_6 C 0.0531(11) 0.3508(13) 0.5706(3)
Zn3_2 Zn 0.18584(17) 0.62557(12) 0.56361(3)
O7_3 O 0.1194(8) 0.5818(11) 0.62578(17)
O8_5 O 0.0796(8) 0.6474(10) 0.5892(3)
C1_6 C 0.0571(14) 0.6242(11) 0.6139(3)
O1_5 O 0.6766(10) 0.5216(11) 0.6981(2)
O3_5 O 0.3527(7) 0.6791(7) 0.57556(15)
O4_6 O 0.3448(7) 0.5559(7) 0.60696(15)
O9_5 O 0.8602(15) 0.5381(19) 0.7037(3)
H1_5 H 0.8325 0.5091 0.7181
C2_6 C 0.4013(12) 0.6464(12) 0.5914(3)
C3_6 C 0.5434(10) 0.7165(11) 0.5914(2)
C4_6 C 0.6049(10) 0.8167(10) 0.5771(2)
H2_6 H 0.5607 0.8418 0.5666
C5_6 C 0.7436(12) 0.8917(12) 0.5773(2)
C6_6 C 0.7991(10) 0.8433(10) 0.5917(2)
H3_4 H 0.8854 0.8821 0.5908
C7_6 C 0.7390(9) 0.7410(8) 0.60765(19)
C8_6 C 0.6105(13) 0.6788(11) 0.6073(3)
H4_6 H 0.5669 0.6095 0.6179
C9_4 C 0.8133(10) 0.6987(9) 0.6233(2)
C10_4 C 0.7706(10) 0.6473(10) 0.6491(2)
H5_4 H 0.7021 0.6484 0.6561
C11_4 C 0.9288(10) 0.5940(11) 0.6509(2)
H6_4 H 0.9707 0.5607 0.6598
C12_4 C 0.8297(11) 0.5959(10) 0.6638(3)
C13_4 C 0.9673(12) 0.6370(11) 0.6266(3)
C14_4 C 0.9052(10) 0.6922(9) 0.6148(2)
H7_4 H 0.9356 0.7286 0.5986
H8_6 H 0.7103 0.9261 0.5286
C23_5 C 0.772(3) 0.5463(17) 0.6897(4)
O1_6 O 0.1550(15) 0.6766(10) 0.5314(2)
O9_6 O 0.3221(24) 0.8602(15) 0.5370(3)
H1_6 H 0.3234 0.8325 0.5514
H3_5 H 0.0033 0.8854 0.4241
C9_5 C 0.1146(13) 0.8133(10) 0.4566(2)
C10_5 C 0.1233(14) 0.7706(10) 0.4824(2)
H5_5 H 0.0537 0.7021 0.4894
C11_5 C 0.3348(15) 0.9288(10) 0.4842(2)
H6_5 H 0.4100 0.9707 0.4931
C12_5 C 0.2338(15) 0.8297(11) 0.4971(3)
C13_5 C 0.3303(16) 0.9673(12) 0.4599(3)
C14_5 C 0.2130(13) 0.9052(10) 0.4481(2)
H7_5 H 0.2070 0.9356 0.4319
C23_6 C 0.2257(34) 0.772(3) 0.5230(4)
H3_6 H 0.9967 0.1146 0.9241
C9_6 C 0.8854(13) 0.1867(10) 0.9566(2)
C10_6 C 0.8767(14) 0.2294(10) 0.9824(2)
H5_6 H 0.9463 0.2979 0.9894
C11_6 C 0.6652(15) 0.0712(10) 0.9842(2)
H6_6 H 0.5900 0.0293 0.9931
C12_6 C 0.7662(15) 0.1703(11) 0.9971(3)
C13_6 C 0.6697(16) 0.0327(12) 0.9599(3)
C14_6 C 0.7870(13) 0.0948(10) 0.9481(2)
H7_6 H 0.7930 0.0644 0.9319
loop_
_geom_bond_atom_site_label_1
_geom_bond_atom_site_label_2
_geom_bond_site_symmetry_1
_geom_bond_site_symmetry_2
Zn1 O1 1_555 1_555
Zn2 O4 1_555 1_555
O1 C23 1_555 1_555
O3 C2 1_555 1_555
O4 C2 1_555 1_555
O9 H1 1_555 1_555
C2 C3 1_555 1_555
C3 C4 1_555 1_555
C4 H2 1_555 1_555
C5 C4 1_555 1_555
C6 C5 1_555 1_555
H3 C6 1_555 1_555
C7 C6 1_555 1_555
C8 C3 1_555 1_555
H4 C8 1_555 1_555
C9 C7 1_555 1_555
C10 C9 1_555 1_555
H5 C10 1_555 1_555
C11 H6 1_555 1_555
C12 C10 1_555 1_555
C13 C11 1_555 1_555
C14 C9 1_555 1_555
H7 C14 1_555 1_555
C23 O9 1_555 1_555
Zn5 O3 1_555 1_555
O11 Zn2 1_555 1_555
O12 Zn1 1_555 1_555
O13 Zn2 1_555 1_555
O14 Zn1 1_555 1_555
O15 Zn2 1_555 1_555
O16 Zn1 1_555 1_555
C7 C8 1_555 1_555
C11 C12 1_555 1_555
C12 C23 1_555 1_555
C13 C14 1_555 1_555
O15 C1 1_555 1_555
O8 C1 1_555 1_555
Zn5 O8 1_555 1_555
O13 C21 1_555 1_555
O6 C21 1_555 1_555
Zn5 O6 1_555 1_555
Zn5 O1_2 1_555 1_555
O1_2 C23_2 1_555 1_555
O9_2 H1_2 1_555 1_555
C23_2 O9_2 1_555 1_555
O2 C22 1_555 1_555
O10 C22 1_555 1_555
C16 C15 1_555 1_555
C17 C16 1_555 1_555
C18 C15 1_555 1_555
H9 C18 1_555 1_555
C19 C18 1_555 1_555
C20 C17 1_555 1_555
H10 C20 1_555 1_555
C22 C17 1_555 1_555
Zn8 O2 1_555 1_555
C19 C20 1_555 1_555
O7 C1_2 1_555 1_555
O8_2 C1_2 1_555 1_555
Zn4 O8_2 1_555 1_555
Zn8 O7 1_555 1_555
O5 C21_2 1_555 1_555
O6_2 C21_2 1_555 1_555
Zn4 O6_2 1_555 1_555
Zn8 O5 1_555 1_555
Zn8 O4_2 1_555 1_555
O2_2 C22_2 1_555 1_555
O3_2 C2_2 1_555 1_555
O4_2 C2_2 1_555 1_555
O10_2 C22_2 1_555 1_555
C2_2 C3_2 1_555 1_555
C3_2 C4_2 1_555 1_555
C4_2 H2_2 1_555 1_555
C5_2 C4_2 1_555 1_555
C6_2 C5_2 1_555 1_555
C7_2 C6_2 1_555 1_555
C8_2 C3_2 1_555 1_555
H4_2 C8_2 1_555 1_555
C15_2 C5_2 1_555 1_555
C16_2 C15_2 1_555 1_555
H8_2 C16_2 1_555 1_555
C17_2 C16_2 1_555 1_555
C18_2 C15_2 1_555 1_555
H9_2 C18_2 1_555 1_555
C19_2 C18_2 1_555 1_555
C20_2 C17_2 1_555 1_555
H10_2 C20_2 1_555 1_555
C22_2 C17_2 1_555 1_555
Zn4 O3_2 1_555 1_555
Zn8_2 O2_2 1_555 1_555
C7_2 C8_2 1_555 1_555
C19_2 C20_2 1_555 1_555
Zn4 O1_3 1_555 1_555
O1_3 C23_3 1_555 1_555
O7_2 C1_3 1_555 1_555
O16 C1_3 1_555 1_555
O9_3 H1_3 1_555 1_555
C1_3 C13_2 1_555 1_555
C10_2 C9_2 1_555 1_555
H5_2 C10_2 1_555 1_555
C11_2 H6_2 1_555 1_555
C12_2 C10_2 1_555 1_555
C13_2 C11_2 1_555 1_555
C14_2 C9_2 1_555 1_555
H7_2 C14_2 1_555 1_555
C23_3 O9_3 1_555 1_555
Zn8_2 O7_2 1_555 1_555
C11_2 C12_2 1_555 1_555
C12_2 C23_3 1_555 1_555
C13_2 C14_2 1_555 1_555
Zn8_2 O4_3 1_555 1_555
O12 C2_3 1_555 1_555
O4_3 C2_3 1_555 1_555
C2_3 C3_3 1_555 1_555
C3_3 C4_3 1_555 1_555
C4_3 H2_3 1_555 1_555
C5_3 C4_3 1_555 1_555
C6_3 C5_3 1_555 1_555
C7_3 C6_3 1_555 1_555
C8_3 C3_3 1_555 1_555
H4_3 C8_3 1_555 1_555
O13_2 Zn8_2 1_555 1_555
C7_3 C8_3 1_555 1_555
O11 C22_3 1_555 1_555
O13_2 C21_3 1_555 1_555
O14 C21_3 1_555 1_555
O10_3 C22_3 1_555 1_555
C16_3 C15_3 1_555 1_555
C17_3 C16_3 1_555 1_555
C18_3 C15_3 1_555 1_555
H9_3 C18_3 1_555 1_555
C19_3 C18_3 1_555 1_555
C20_3 C17_3 1_555 1_555
H10_3 C20_3 1_555 1_555
C21_3 C19_3 1_555 1_555
C22_3 C17_3 1_555 1_555
C19_3 C20_3 1_555 1_555
C16_4 C15_4 1_555 1_555
C17_4 C16_4 1_555 1_555
C18_4 C15_4 1_555 1_555
H9_4 C18_4 1_555 1_555
C19_4 C18_4 1_555 1_555
C20_4 C17_4 1_555 1_555
H10_4 C20_4 1_555 1_555
C19_4 C20_4 1_555 1_555
O2_3 C22_4 1_555 1_555
O10_4 C22_4 1_555 1_555
Zn8_3 O2_3 1_555 1_555
Zn8_3 O4_4 1_555 1_555
O2_4 C22_5 1_555 1_555
O3_3 C2_4 1_555 1_555
O4_4 C2_4 1_555 1_555
O10_5 C22_5 1_555 1_555
C2_4 C3_4 1_555 1_555
C3_4 C4_4 1_555 1_555
C4_4 H2_4 1_555 1_555
C5_4 C4_4 1_555 1_555
C6_4 C5_4 1_555 1_555
C7_4 C6_4 1_555 1_555
C8_4 C3_4 1_555 1_555
H4_4 C8_4 1_555 1_555
C15_5 C5_4 1_555 1_555
C16_5 C15_5 1_555 1_555
H8_4 C16_5 1_555 1_555
C17_5 C16_5 1_555 1_555
C18_5 C15_5 1_555 1_555
H9_5 C18_5 1_555 1_555
C19_5 C18_5 1_555 1_555
C20_5 C17_5 1_555 1_555
H10_5 C20_5 1_555 1_555
C22_5 C17_5 1_555 1_555
Zn5_2 O3_3 1_555 1_555
Zn8_4 O2_4 1_555 1_555
O13_3 Zn8_3 1_555 1_555
O15_2 Zn8_3 1_555 1_555
C7_4 C8_4 1_555 1_555
C19_5 C20_5 1_555 1_555
O13_3 C21_4 1_555 1_555
O6_3 C21_4 1_555 1_555
Zn5_2 O6_3 1_555 1_555
O15_2 C1_4 1_555 1_555
O8_3 C1_4 1_555 1_555
Zn5_2 O8_3 1_555 1_555
O2_5 C22_6 1_555 1_555
O5_2 C21_5 1_555 1_555
O6_4 C21_5 1_555 1_555
O10_6 C22_6 1_555 1_555
C16_6 C15_6 1_555 1_555
C17_6 C16_6 1_555 1_555
C18_6 C15_6 1_555 1_555
H9_6 C18_6 1_555 1_555
C19_6 C18_6 1_555 1_555
C20_6 C17_6 1_555 1_555
H10_6 C20_6 1_555 1_555
C21_5 C19_6 1_555 1_555
C22_6 C17_6 1_555 1_555
Zn3 O6_4 1_555 1_555
Zn8_4 O5_2 1_555 1_555
Zn8_5 O2_5 1_555 1_555
C19_6 C20_6 1_555 1_555
Zn8_4 O4_5 1_555 1_555
O3_4 C2_5 1_555 1_555
O4_5 C2_5 1_555 1_555
C2_5 C3_5 1_555 1_555
C3_5 C4_5 1_555 1_555
C4_5 H2_5 1_555 1_555
C5_5 C4_5 1_555 1_555
C6_5 C5_5 1_555 1_555
C7_5 C6_5 1_555 1_555
C8_5 C3_5 1_555 1_555
H4_5 C8_5 1_555 1_555
Zn3 O3_4 1_555 1_555
O15_3 Zn8_4 1_555 1_555
C7_5 C8_5 1_555 1_555
Zn5_2 O1_4 1_555 1_555
O1_4 C23_4 1_555 1_555
O15_3 C1_5 1_555 1_555
O8_4 C1_5 1_555 1_555
O9_4 H1_4 1_555 1_555
C1_5 C13_3 1_555 1_555
C10_3 C9_3 1_555 1_555
H5_3 C10_3 1_555 1_555
C11_3 H6_3 1_555 1_555
C12_3 C10_3 1_555 1_555
C13_3 C11_3 1_555 1_555
C14_3 C9_3 1_555 1_555
H7_3 C14_3 1_555 1_555
C23_4 O9_4 1_555 1_555
Zn3 O8_4 1_555 1_555
C11_3 C12_3 1_555 1_555
C12_3 C23_4 1_555 1_555
C13_3 C14_3 1_555 1_555
O5_3 C21_6 1_555 1_555
O6_5 C21_6 1_555 1_555
Zn3_2 O6_5 1_555 1_555
Zn8_5 O5_3 1_555 1_555
O7_3 C1_6 1_555 1_555
O8_5 C1_6 1_555 1_555
Zn3_2 O8_5 1_555 1_555
Zn8_5 O7_3 1_555 1_555
Zn3 O1_5 1_555 1_555
Zn8_5 O4_6 1_555 1_555
O1_5 C23_5 1_555 1_555
O3_5 C2_6 1_555 1_555
O4_6 C2_6 1_555 1_555
O9_5 H1_5 1_555 1_555
C2_6 C3_6 1_555 1_555
C3_6 C4_6 1_555 1_555
C4_6 H2_6 1_555 1_555
C5_6 C4_6 1_555 1_555
C6_6 C5_6 1_555 1_555
H3_4 C6_6 1_555 1_555
C7_6 C6_6 1_555 1_555
C8_6 C3_6 1_555 1_555
H4_6 C8_6 1_555 1_555
C9_4 C7_6 1_555 1_555
C10_4 C9_4 1_555 1_555
H5_4 C10_4 1_555 1_555
C11_4 H6_4 1_555 1_555
C12_4 C10_4 1_555 1_555
C13_4 C11_4 1_555 1_555
C14_4 C9_4 1_555 1_555
H7_4 C14_4 1_555 1_555
C23_5 O9_5 1_555 1_555
Zn3_2 O3_5 1_555 1_555
C7_6 C8_6 1_555 1_555
C11_4 C12_4 1_555 1_555
C12_4 C23_5 1_555 1_555
C13_4 C14_4 1_555 1_555
Zn3_2 O1_6 1_555 1_555
O1_6 C23_6 1_555 1_555
O9_6 H1_6 1_555 1_555
C10_5 C9_5 1_555 1_555
H5_5 C10_5 1_555 1_555
C11_5 H6_5 1_555 1_555
C12_5 C10_5 1_555 1_555
C13_5 C11_5 1_555 1_555
C14_5 C9_5 1_555 1_555
H7_5 C14_5 1_555 1_555
C23_6 O9_6 1_555 1_555
C11_5 C12_5 1_555 1_555
C12_5 C23_6 1_555 1_555
C13_5 C14_5 1_555 1_555
C10_6 C9_6 1_555 1_555
H5_6 C10_6 1_555 1_555
C11_6 H6_6 1_555 1_555
C12_6 C10_6 1_555 1_555
C13_6 C11_6 1_555 1_555
C14_6 C9_6 1_555 1_555
H7_6 C14_6 1_555 1_555
C11_6 C12_6 1_555 1_555
C13_6 C14_6 1_555 1_555

#END
