
###############################################################################
#
# This file contains modified crystal structure data generated from the
# MOF subset of the Cambridge Structural Database (CSD) v543 
# hosted by the Cambridge Crystallographic Data Centre (CCDC).
#
# This work is licensed under the Creative Commons
# Attribution-NonCommercial-ShareAlike 4.0 International License.
# To view a copy of this license, visit
# http://creativecommons.org/licenses/by-nc-sa/4.0/
# or send a letter to
# Creative Commons, PO Box 1866, Mountain View, CA 94042, USA.
#
# CIF created using the CSD Python API on 29 September 2022
# The structure has been converted into the P1 space group
# The structure has a 3D framework
# The original CSD entry MUMFUY is in the monoclinic crystal system
# The framework has been calculated to contain at least 10.0% void space
# The void calculation uses a probe of radius 1.32A, grid spacing 0.4
#
###############################################################################

data_MUMFUY
_chemical_formula_moiety         '(C152 H112 Dy16 N24 O100)n'
_symmetry_cell_setting           triclinic
_symmetry_space_group_name_H-M   'P 1'
_symmetry_Int_Tables_number      1
_space_group_name_Hall           'P 1'
loop_
_symmetry_equiv_pos_site_id
_symmetry_equiv_pos_as_xyz
1 x,y,z
_cell_length_a                   17.449(4)
_cell_length_b                   14.847(3)
_cell_length_c                   22.040(4)
_cell_angle_alpha                90
_cell_angle_beta                 102.43(3)
_cell_angle_gamma                90
_cell_volume                     5575.96
loop_
_atom_site_label
_atom_site_type_symbol
_atom_site_fract_x
_atom_site_fract_y
_atom_site_fract_z
Dy1 Dy 0.160475(12) 0.569739(16) 0.298653(10)
Dy2 Dy 0.213276(12) 0.344181(16) 0.363005(10)
Dy3 Dy 0.165190(12) 0.531193(16) 0.471512(10)
Dy4 Dy 0.352651(12) 0.541345(16) 0.415013(11)
O1 O 0.26847(17) 0.4745(2) 0.33001(15)
O2 O 0.12913(18) 0.4635(2) 0.37402(15)
O3 O 0.22557(18) 0.6066(2) 0.40157(15)
O4 O 0.26963(17) 0.4404(2) 0.45124(15)
O5 O 0.28832(19) 0.6853(2) 0.16396(16)
O6 O 0.2413(2) 0.5844(2) 0.22253(17)
O8 O 0.1637(2) 0.2782(3) 0.44189(18)
O9 O 0.2065(2) 0.7168(3) 0.29364(17)
O10 O 0.2473(2) 0.8173(2) 0.23308(17)
O11 O 0.57500(19) 0.5969(3) 0.57943(18)
O12 O 0.1082(2) 0.4440(3) 0.24366(17)
O13 O 0.65890(19) 0.7121(3) 0.60109(19)
O14 O 0.1319(2) 0.3863(3) 0.50197(17)
O15 O 0.4897(2) 0.5781(3) 0.45446(19)
O16 O 0.0985(2) 0.0790(3) 0.17101(19)
O17 O 0.3572(2) 0.7069(3) 0.42102(19)
O18 O 0.2687(2) 0.5590(3) 0.55955(17)
O19 O 0.08543(19) 0.3211(2) 0.29446(17)
O20 O 0.0775(2) 0.6296(3) 0.20288(18)
O21 O 0.3729(2) 0.5873(3) 0.51960(17)
O23 O 0.1588(3) 0.6898(3) 0.5001(2)
C1 C 0.2579(3) 0.6629(4) 0.2082(2)
O24 O 0.0844(3) 0.5336(3) 0.5471(2)
C2 C 0.4556(3) 0.7435(3) 0.5788(2)
C3 C 0.2353(3) 0.7388(4) 0.2485(2)
C4 C 0.5918(3) 0.6787(4) 0.5827(2)
C5 C 0.5269(3) 0.7453(4) 0.5601(2)
C6 C 0.0742(3) 0.3637(4) 0.6521(2)
C8 C 0.0664(3) 0.3765(4) 0.2513(2)
N1 N 0.3972(2) 0.8029(3) 0.5567(2)
N2 N 0.4822(3) 0.7150(3) 0.6864(2)
C9 C 0.0813(3) 0.2403(4) 0.5099(3)
C10 C 0.3807(3) 0.6232(4) 0.6248(2)
N3 N 0.0158(3) 0.1924(3) 0.5895(2)
C11 C 0.0676(3) 0.2457(4) 0.5699(2)
C12 C 0.4406(3) 0.6873(4) 0.6311(2)
C13 C 0.1119(3) 0.3058(4) 0.6190(2)
C14 C 0.3379(3) 0.5880(4) 0.5632(2)
C15 C 0.5377(3) 0.8114(4) 0.5187(3)
H1 H 0.5854 0.8156 0.5067
C16 C 0.1306(3) 0.3067(4) 0.4837(2)
N4 N 0.1903(3) 0.2928(4) 0.6331(2)
C17 C 0.1178(3) 0.4096(5) 0.7026(3)
H2 H 0.0935 0.4475 0.7262
C21 C 0.4051(4) 0.6202(5) 0.7362(3)
H4 H 0.3931 0.5999 0.7730
C22 C 0.0408(4) 0.1751(4) 0.4708(3)
H5 H 0.0497 0.1684 0.4309
C23 C 0.3626(3) 0.5898(4) 0.6790(3)
H6 H 0.3227 0.5477 0.6771
C24 C 0.4646(4) 0.6801(5) 0.7373(3)
H7 H 0.4944 0.6975 0.7757
C26 C 0.4095(3) 0.8642(4) 0.5154(3)
H8 H 0.3691 0.9041 0.4995
C29 C 0.4782(3) 0.8715(4) 0.4950(3)
H11 H 0.4846 0.9153 0.4663
C30 C 0.0196(3) 0.1404(4) 0.2345(3)
O25 O 0.0833(4) 0.2258(4) 0.1706(3)
C32 C 0.0273(4) 0.0671(4) 0.2735(3)
H13 H 0.0625 0.0211 0.2704
C33 C 0.2316(3) 0.3397(5) 0.6810(3)
H14 H 0.2858 0.3327 0.6905
C35 C 0.1985(4) 0.3979(6) 0.7173(3)
H16 H 0.2296 0.4283 0.7506
C37 C 0.0700(4) 0.1483(5) 0.1876(3)
H19 H 0.066(6) 0.684(3) 0.208(2)
H20 H 0.099(4) 0.623(8) 0.1726(14)
H21 H 0.085(6) 0.483(3) 0.565(4)
H22 H 0.098(5) 0.576(5) 0.573(4)
H23 H 0.382(6) 0.7270(17) 0.395(4)
H24 H 0.3109(9) 0.7276(16) 0.414(6)
H25 H 0.507(2) 0.607(7) 0.427(2)
H26 H 0.4956(19) 0.607(7) 0.488(3)
H27 H 0.1116(11) 0.705(3) 0.499(6)
H28 H 0.188(5) 0.700(3) 0.535(3)
Dy6 Dy 0.286724(12) 0.844181(16) 0.136995(10)
Dy7 Dy 0.786724(12) 0.655819(16) 0.636995(10)
Dy9 Dy 0.147349(12) 0.041345(16) 0.084987(11)
Dy10 Dy 0.647349(12) 0.458655(16) 0.584987(11)
O26 O 0.21168(19) 0.1853(2) 0.33604(16)
O27 O 0.0396(2) 0.5945(3) 0.42048(17)
O28 O 0.2527(2) 0.3173(2) 0.26692(17)
O29 O 0.42500(19) 0.4031(3) 0.42057(18)
O30 O 0.34110(19) 0.2879(3) 0.39891(19)
O31 O 0.4015(2) 0.5790(3) 0.32899(19)
O32 O 0.0509(2) 0.6296(3) 0.32441(18)
O7 O 0.9604(2) 0.4055(3) 0.57952(17)
O22 O 0.9491(2) 0.3704(3) 0.67559(18)
C7 C 0.9874(3) 0.3796(4) 0.6337(3)
N5 N 0.9189(3) 0.2003(4) 0.2807(2)
C18 C 0.9615(3) 0.4382(4) 0.1668(3)
H3 H 0.9879 0.4930 0.1717
C19 C 0.9653(3) 0.2059(4) 0.2396(2)
C20 C 0.9895(3) 0.3669(4) 0.2058(2)
C25 C 0.9474(3) 0.2869(4) 0.1977(3)
C27 C 0.9881(4) 0.1207(4) 0.4903(3)
H9 H 0.9605 0.0770 0.4642
C28 C 0.9769(4) 0.1322(4) 0.5492(3)
H10 H 0.9399 0.0959 0.5621
N6 N 0.8845(3) 0.2751(4) 0.1506(2)
C31 C 0.9809(4) 0.0633(5) 0.3179(3)
H12 H 0.9867 0.0163 0.3464
C34 C 0.8592(4) 0.3452(5) 0.1141(3)
H15 H 0.8151 0.3374 0.0823
C36 C 0.8947(4) 0.4284(5) 0.1207(3)
H17 H 0.8744 0.4763 0.0950
C38 C 0.9278(4) 0.1285(5) 0.3186(3)
H18 H 0.8955 0.1237 0.3470
Dy5 Dy 0.839525(12) 0.430261(16) 0.701347(10)
Dy8 Dy 0.834810(12) 0.468807(16) 0.528488(10)
Dy1_2 Dy 0.339525(12) 0.069739(16) 0.201347(10)
Dy3_2 Dy 0.334810(12) 0.031193(16) 0.028488(10)
O3_2 O 0.27443(18) 0.1066(2) 0.09843(15)
O6_2 O 0.2587(2) 0.0844(2) 0.27747(17)
O9_2 O 0.2935(2) 0.2168(3) 0.20636(17)
O15_2 O 0.0103(2) 0.0781(3) 0.04554(19)
O17_2 O 0.1428(2) 0.2069(3) 0.07898(19)
O20_2 O 0.4225(2) 0.1296(3) 0.29712(18)
C1_2 C 0.2421(3) 0.1629(4) 0.2918(2)
C3_2 C 0.2647(3) 0.2388(4) 0.2515(2)
H8_2 H 0.1309 0.4041 0.0005
C29_2 C 0.0218(3) 0.3715(4) 0.0050(3)
H11_2 H 0.0154 0.4153 0.0337
H19_2 H 0.434(6) 0.184(3) 0.292(2)
H20_2 H 0.401(4) 0.123(8) 0.3274(14)
H23_2 H 0.118(6) 0.2270(17) 0.105(4)
H24_2 H 0.1891(9) 0.2276(16) 0.086(6)
H26_2 H 0.0044(19) 0.107(7) 0.012(3)
H27_2 H 0.3884(11) 0.205(3) 0.001(6)
O27_2 O 0.4604(2) 0.0945(3) 0.07952(17)
O32_2 O 0.4491(2) 0.1296(3) 0.17559(18)
O1_2 O 0.23153(17) 0.9745(2) 0.16999(15)
O2_2 O 0.37087(18) 0.9635(2) 0.12598(15)
O4_2 O 0.23037(17) 0.9404(2) 0.04876(15)
O8_2 O 0.3363(2) 0.7782(3) 0.05811(18)
O12_2 O 0.3918(2) 0.9440(3) 0.25634(17)
O19_2 O 0.41457(19) 0.8211(2) 0.20554(17)
C8_2 C 0.4336(3) 0.8765(4) 0.2487(2)
C16_2 C 0.3694(3) 0.8067(4) 0.0163(2)
N5_2 N 0.5811(3) 0.7003(4) 0.2193(2)
C18_2 C 0.5385(3) 0.9382(4) 0.3332(3)
H3_2 H 0.5121 0.9930 0.3283
C19_2 C 0.5347(3) 0.7059(4) 0.2604(2)
C20_2 C 0.5105(3) 0.8669(4) 0.2942(2)
C22_2 C 0.4592(4) 0.6751(4) 0.0292(3)
H5_2 H 0.4503 0.6684 0.0691
C25_2 C 0.5526(3) 0.7869(4) 0.3023(3)
C27_2 C 0.5119(4) 0.6207(4) 0.0097(3)
H9_2 H 0.5395 0.5770 0.0358
N6_2 N 0.6155(3) 0.7751(4) 0.3494(2)
C30_2 C 0.4804(3) 0.6404(4) 0.2655(3)
C31_2 C 0.5191(4) 0.5633(5) 0.1821(3)
H12_2 H 0.5133 0.5163 0.1536
O25_2 O 0.4167(4) 0.7258(4) 0.3294(3)
C32_2 C 0.4727(4) 0.5671(4) 0.2265(3)
H13_2 H 0.4375 0.5211 0.2296
C34_2 C 0.6408(4) 0.8452(5) 0.3859(3)
H15_2 H 0.6849 0.8374 0.4177
C36_2 C 0.6053(4) 0.9284(5) 0.3793(3)
H17_2 H 0.6256 0.9763 0.4050
C37_2 C 0.4300(4) 0.6483(5) 0.3124(3)
C38_2 C 0.5722(4) 0.6285(5) 0.1814(3)
H18_2 H 0.6045 0.6237 0.1530
O29_2 O 0.07500(19) 0.9031(3) 0.07943(18)
O30_2 O 0.15890(19) 0.7879(3) 0.10109(19)
O7_2 O 0.5396(2) 0.9055(3) 0.92048(17)
O14_2 O 0.3681(2) 0.8863(3) 0.99803(17)
O22_2 O 0.5509(2) 0.8704(3) 0.82441(18)
C6_2 C 0.4258(3) 0.8637(4) 0.8479(2)
C7_2 C 0.5126(3) 0.8796(4) 0.8663(3)
C9_2 C 0.4187(3) 0.7403(4) 0.9901(3)
N3_2 N 0.4842(3) 0.6924(3) 0.9105(2)
C11_2 C 0.4324(3) 0.7457(4) 0.9301(2)
C13_2 C 0.3881(3) 0.8058(4) 0.8810(2)
N4_2 N 0.3097(3) 0.7928(4) 0.8669(2)
C17_2 C 0.3822(3) 0.9096(5) 0.7974(3)
H2_2 H 0.4065 0.9475 0.7738
C28_2 C 0.5231(4) 0.6322(4) 0.9508(3)
H10_2 H 0.5601 0.5959 0.9379
C33_2 C 0.2684(3) 0.8397(5) 0.8190(3)
H14_2 H 0.2142 0.8327 0.8095
C35_2 C 0.3015(4) 0.8979(6) 0.7827(3)
H16_2 H 0.2704 0.9283 0.7494
H21_2 H 0.415(6) 0.983(3) 0.935(4)
Dy5_2 Dy 0.660475(12) 0.930261(16) 0.798653(10)
Dy8_2 Dy 0.665190(12) 0.968807(16) 0.971512(10)
O11_2 O 0.92500(19) 0.0969(3) 0.92057(18)
O13_2 O 0.84110(19) 0.2121(3) 0.89891(19)
C4_2 C 0.9082(3) 0.1787(4) 0.9173(2)
C5_2 C 0.9731(3) 0.2453(4) 0.9399(2)
C15_2 C 0.9623(3) 0.3114(4) 0.9813(3)
H1_2 H 0.9146 0.3156 0.9933
Dy7_2 Dy 0.713276(12) 0.155819(16) 0.863005(10)
Dy10_2 Dy 0.852651(12) 0.958655(16) 0.915013(11)
C7_3 C 0.0126(3) 0.6204(4) 0.3663(3)
N5_3 N 0.0811(3) 0.7997(4) 0.7193(2)
C18_3 C 0.0385(3) 0.5618(4) 0.8332(3)
H3_3 H 0.0121 0.5070 0.8283
C19_3 C 0.0347(3) 0.7941(4) 0.7604(2)
C20_3 C 0.0105(3) 0.6331(4) 0.7942(2)
C25_3 C 0.0526(3) 0.7131(4) 0.8023(3)
C27_3 C 0.0119(4) 0.8793(4) 0.5097(3)
H9_3 H 0.0395 0.9230 0.5358
C28_3 C 0.0231(4) 0.8678(4) 0.4508(3)
H10_3 H 0.0601 0.9041 0.4379
N6_3 N 0.1155(3) 0.7249(4) 0.8494(2)
C31_3 C 0.0191(4) 0.9367(5) 0.6821(3)
H12_3 H 0.0133 0.9837 0.6536
C34_3 C 0.1408(4) 0.6548(5) 0.8859(3)
H15_3 H 0.1849 0.6626 0.9177
C36_3 C 0.1053(4) 0.5716(5) 0.8793(3)
H17_3 H 0.1256 0.5237 0.9050
C38_3 C 0.0722(4) 0.8715(5) 0.6814(3)
H18_3 H 0.1045 0.8763 0.6530
O1_3 O 0.73153(17) 0.5255(2) 0.66999(15)
O2_3 O 0.87087(18) 0.5365(2) 0.62598(15)
O3_3 O 0.77443(18) 0.3934(2) 0.59843(15)
O4_3 O 0.73037(17) 0.5596(2) 0.54876(15)
O5_2 O 0.71168(19) 0.3147(2) 0.83604(16)
O6_3 O 0.7587(2) 0.4156(2) 0.77747(17)
O8_3 O 0.8363(2) 0.7218(3) 0.55811(18)
O9_3 O 0.7935(2) 0.2832(3) 0.70636(17)
O10_2 O 0.7527(2) 0.1827(2) 0.76692(17)
O12_3 O 0.8918(2) 0.5560(3) 0.75634(17)
O14_3 O 0.8681(2) 0.6137(3) 0.49803(17)
O15_3 O 0.5103(2) 0.4219(3) 0.54554(19)
O16_2 O 0.9015(2) 0.9210(3) 0.82899(19)
O17_3 O 0.6428(2) 0.2931(3) 0.57898(19)
O18_2 O 0.7313(2) 0.4410(3) 0.44045(17)
O19_3 O 0.91457(19) 0.6789(2) 0.70554(17)
O20_3 O 0.9225(2) 0.3704(3) 0.79712(18)
O21_2 O 0.6271(2) 0.4127(3) 0.48040(17)
O23_2 O 0.8412(3) 0.3102(3) 0.4999(2)
C1_3 C 0.7421(3) 0.3371(4) 0.7918(2)
O24_2 O 0.9156(3) 0.4664(3) 0.4529(2)
C2_2 C 0.5444(3) 0.2565(3) 0.4212(2)
C3_3 C 0.7647(3) 0.2612(4) 0.7515(2)
C4_3 C 0.4082(3) 0.3213(4) 0.4173(2)
C5_3 C 0.4731(3) 0.2547(4) 0.4399(2)
C6_3 C 0.9258(3) 0.6363(4) 0.3479(2)
C8_3 C 0.9336(3) 0.6235(4) 0.7487(2)
N1_2 N 0.6028(2) 0.1971(3) 0.4433(2)
N2_2 N 0.5178(3) 0.2850(3) 0.3136(2)
C9_3 C 0.9187(3) 0.7597(4) 0.4901(3)
C10_2 C 0.6193(3) 0.3768(4) 0.3752(2)
N3_3 N 0.9842(3) 0.8076(3) 0.4105(2)
C11_3 C 0.9324(3) 0.7543(4) 0.4301(2)
C12_2 C 0.5594(3) 0.3127(4) 0.3689(2)
C13_3 C 0.8881(3) 0.6942(4) 0.3810(2)
C14_2 C 0.6621(3) 0.4120(4) 0.4368(2)
C15_3 C 0.4623(3) 0.1886(4) 0.4813(3)
H1_3 H 0.4146 0.1844 0.4933
C16_3 C 0.8694(3) 0.6933(4) 0.5163(2)
N4_3 N 0.8097(3) 0.7072(4) 0.3669(2)
C17_3 C 0.8822(3) 0.5904(5) 0.2974(3)
H2_3 H 0.9065 0.5525 0.2738
C21_2 C 0.5949(4) 0.3798(5) 0.2638(3)
H4_2 H 0.6069 0.4001 0.2270
C22_3 C 0.9592(4) 0.8249(4) 0.5292(3)
H5_3 H 0.9503 0.8316 0.5691
C23_2 C 0.6374(3) 0.4102(4) 0.3210(3)
H6_2 H 0.6773 0.4523 0.3229
C24_2 C 0.5354(4) 0.3199(5) 0.2627(3)
H7_2 H 0.5056 0.3025 0.2243
C26_2 C 0.5905(3) 0.1358(4) 0.4846(3)
H8_3 H 0.6309 0.0959 0.5005
C29_3 C 0.5218(3) 0.1285(4) 0.5050(3)
H11_3 H 0.5154 0.0847 0.5337
C30_3 C 0.9804(3) 0.8596(4) 0.7655(3)
O25_3 O 0.9167(4) 0.7742(4) 0.8294(3)
C32_3 C 0.9727(4) 0.9329(4) 0.7265(3)
H13_3 H 0.9375 0.9789 0.7296
C33_3 C 0.7684(3) 0.6603(5) 0.3190(3)
H14_3 H 0.7142 0.6673 0.3095
C35_3 C 0.8015(4) 0.6021(6) 0.2827(3)
H16_3 H 0.7704 0.5717 0.2494
C37_3 C 0.9300(4) 0.8517(5) 0.8124(3)
H19_3 H 0.934(6) 0.316(3) 0.792(2)
H20_3 H 0.901(4) 0.377(8) 0.8274(14)
H21_3 H 0.915(6) 0.517(3) 0.435(4)
H22_2 H 0.902(5) 0.424(5) 0.427(4)
H23_3 H 0.618(6) 0.2730(17) 0.605(4)
H24_3 H 0.6891(9) 0.2724(16) 0.586(6)
H25_2 H 0.493(2) 0.393(7) 0.573(2)
H26_3 H 0.5044(19) 0.393(7) 0.512(3)
H27_3 H 0.8884(11) 0.295(3) 0.501(6)
H28_2 H 0.812(5) 0.300(3) 0.465(3)
O26_2 O 0.78832(19) 0.8147(2) 0.66396(16)
O28_2 O 0.7473(2) 0.6827(2) 0.73308(17)
O31_2 O 0.5985(2) 0.4210(3) 0.67101(19)
C4_4 C 0.0918(3) 0.8213(4) 0.0827(2)
C5_4 C 0.0269(3) 0.7547(4) 0.0601(2)
C15_4 C 0.0377(3) 0.6886(4) 0.0187(3)
H1_4 H 0.0854 0.6844 0.0067
O14_4 O 0.6319(2) 0.1137(3) 0.00197(17)
C6_4 C 0.5742(3) 0.1363(4) 0.1521(2)
C7_4 C 0.4874(3) 0.1204(4) 0.1337(3)
C9_4 C 0.5813(3) 0.2597(4) 0.0099(3)
N3_4 N 0.5158(3) 0.3076(3) 0.0895(2)
C11_4 C 0.5676(3) 0.2543(4) 0.0699(2)
C13_4 C 0.6119(3) 0.1942(4) 0.1190(2)
N4_4 N 0.6903(3) 0.2072(4) 0.1331(2)
C17_4 C 0.6178(3) 0.0904(5) 0.2026(3)
H2_4 H 0.5935 0.0525 0.2262
C28_4 C 0.4769(4) 0.3678(4) 0.0492(3)
H10_4 H 0.4399 0.4041 0.0621
C33_4 C 0.7316(3) 0.1603(5) 0.1810(3)
H14_4 H 0.7858 0.1673 0.1905
C35_4 C 0.6985(4) 0.1021(6) 0.2173(3)
H16_4 H 0.7296 0.0717 0.2506
H21_4 H 0.585(6) 0.017(3) 0.065(4)
O1_4 O 0.76847(17) 0.0255(2) 0.83001(15)
O2_4 O 0.62913(18) 0.0365(2) 0.87402(15)
O4_4 O 0.76963(17) 0.0596(2) 0.95124(15)
O8_4 O 0.6637(2) 0.2218(3) 0.94189(18)
O12_4 O 0.6082(2) 0.0560(3) 0.74366(17)
O19_4 O 0.58543(19) 0.1789(2) 0.79446(17)
C8_4 C 0.5664(3) 0.1235(4) 0.7513(2)
C16_4 C 0.6306(3) 0.1933(4) 0.9837(2)
N5_4 N 0.4189(3) 0.2997(4) 0.7807(2)
C18_4 C 0.4615(3) 0.0618(4) 0.6668(3)
H3_4 H 0.4879 0.0070 0.6717
C19_4 C 0.4653(3) 0.2941(4) 0.7396(2)
C20_4 C 0.4895(3) 0.1331(4) 0.7058(2)
C22_4 C 0.5408(4) 0.3249(4) 0.9708(3)
H5_4 H 0.5497 0.3316 0.9309
C25_4 C 0.4474(3) 0.2131(4) 0.6977(3)
C27_4 C 0.4881(4) 0.3793(4) 0.9903(3)
H9_4 H 0.4605 0.4230 0.9642
N6_4 N 0.3845(3) 0.2249(4) 0.6506(2)
C30_4 C 0.5196(3) 0.3596(4) 0.7345(3)
C31_4 C 0.4809(4) 0.4367(5) 0.8179(3)
H12_4 H 0.4867 0.4837 0.8464
O25_4 O 0.5833(4) 0.2742(4) 0.6706(3)
C32_4 C 0.5273(4) 0.4329(4) 0.7735(3)
H13_4 H 0.5625 0.4789 0.7704
C34_4 C 0.3592(4) 0.1548(5) 0.6141(3)
H15_4 H 0.3151 0.1626 0.5823
C36_4 C 0.3947(4) 0.0716(5) 0.6207(3)
H17_4 H 0.3744 0.0237 0.5950
C37_4 C 0.5700(4) 0.3517(5) 0.6876(3)
C38_4 C 0.4278(4) 0.3715(5) 0.8186(3)
H18_4 H 0.3955 0.3763 0.8470
O3_4 O 0.72557(18) 0.8934(2) 0.90157(15)
O6_4 O 0.7413(2) 0.9156(2) 0.72253(17)
O9_4 O 0.7065(2) 0.7832(3) 0.79364(17)
O15_4 O 0.9897(2) 0.9219(3) 0.95446(19)
O17_4 O 0.8572(2) 0.7931(3) 0.92102(19)
O20_4 O 0.5775(2) 0.8704(3) 0.70288(18)
C1_4 C 0.7579(3) 0.8371(4) 0.7082(2)
C3_4 C 0.7353(3) 0.7612(4) 0.7485(2)
H8_4 H 0.8691 0.5959 0.9995
C29_4 C 0.9782(3) 0.6285(4) 0.9950(3)
H11_4 H 0.9846 0.5847 0.9663
H19_4 H 0.566(6) 0.816(3) 0.708(2)
H20_4 H 0.599(4) 0.877(8) 0.6726(14)
H23_4 H 0.882(6) 0.7730(17) 0.895(4)
H24_4 H 0.8109(9) 0.7724(16) 0.914(6)
H26_4 H 0.9956(19) 0.893(7) 0.988(3)
H27_4 H 0.6116(11) 0.795(3) 0.999(6)
O18_3 O 0.2313(2) 0.0590(3) 0.94045(17)
O21_3 O 0.1271(2) 0.0873(3) 0.98040(17)
O23_3 O 0.3412(3) 0.1898(3) 0.9999(2)
O24_3 O 0.4156(3) 0.0336(3) 0.9529(2)
C2_3 C 0.0444(3) 0.2435(3) 0.9212(2)
N1_3 N 0.1028(2) 0.3029(3) 0.9433(2)
N2_3 N 0.0178(3) 0.2150(3) 0.8136(2)
C10_3 C 0.1193(3) 0.1232(4) 0.8752(2)
C12_3 C 0.0594(3) 0.1873(4) 0.8689(2)
C14_3 C 0.1621(3) 0.0880(4) 0.9368(2)
C21_3 C 0.0949(4) 0.1202(5) 0.7638(3)
H4_3 H 0.1069 0.0999 0.7270
C23_3 C 0.1374(3) 0.0898(4) 0.8210(3)
H6_3 H 0.1773 0.0477 0.8229
C24_3 C 0.0354(4) 0.1801(5) 0.7627(3)
H7_3 H 0.0056 0.1975 0.7243
C26_3 C 0.0905(3) 0.3642(4) 0.9846(3)
H22_3 H 0.402(5) 0.076(5) 0.927(4)
H28_3 H 0.312(5) 0.200(3) 0.965(3)
H25_3 H 0.993(2) 0.107(7) 0.073(2)
H25_4 H 0.007(2) 0.893(7) 0.927(2)
O18_4 O 0.7687(2) 0.9410(3) 0.05955(17)
O21_4 O 0.8729(2) 0.9127(3) 0.01960(17)
O23_4 O 0.6588(3) 0.8102(3) 0.0001(2)
O24_4 O 0.5844(3) 0.9664(3) 0.0471(2)
C2_4 C 0.9556(3) 0.7565(3) 0.0788(2)
N1_4 N 0.8972(2) 0.6971(3) 0.0567(2)
N2_4 N 0.9822(3) 0.7850(3) 0.1864(2)
C10_4 C 0.8807(3) 0.8768(4) 0.1248(2)
C12_4 C 0.9406(3) 0.8127(4) 0.1311(2)
C14_4 C 0.8379(3) 0.9120(4) 0.0632(2)
C21_4 C 0.9051(4) 0.8798(5) 0.2362(3)
H4_4 H 0.8931 0.9001 0.2730
C23_4 C 0.8626(3) 0.9102(4) 0.1790(3)
H6_4 H 0.8227 0.9523 0.1771
C24_4 C 0.9646(4) 0.8199(5) 0.2373(3)
H7_4 H 0.9944 0.8025 0.2757
C26_4 C 0.9095(3) 0.6358(4) 0.0154(3)
H22_4 H 0.598(5) 0.924(5) 0.073(4)
H28_4 H 0.688(5) 0.800(3) 0.035(3)
loop_
_geom_bond_atom_site_label_1
_geom_bond_atom_site_label_2
_geom_bond_site_symmetry_1
_geom_bond_site_symmetry_2
Dy1 O1 1_555 1_555
Dy2 O1 1_555 1_555
Dy3 O2 1_555 1_555
Dy4 O1 1_555 1_555
O2 Dy1 1_555 1_555
O3 Dy1 1_555 1_555
O4 Dy2 1_555 1_555
O5 C1 1_555 1_555
O6 Dy1 1_555 1_555
O8 Dy2 1_555 1_555
O9 Dy1 1_555 1_555
O10 C3 1_555 1_555
O11 C4 1_555 1_555
O12 Dy1 1_555 1_555
O13 C4 1_555 1_555
O14 Dy3 1_555 1_555
O15 Dy4 1_555 1_555
O16 C37 1_555 1_555
O17 Dy4 1_555 1_555
O18 Dy3 1_555 1_555
O19 Dy2 1_555 1_555
O20 Dy1 1_555 1_555
O21 Dy4 1_555 1_555
O23 Dy3 1_555 1_555
C1 O6 1_555 1_555
O24 Dy3 1_555 1_555
C2 C5 1_555 1_555
C3 O9 1_555 1_555
C4 C5 1_555 1_555
C5 C15 1_555 1_555
C8 O12 1_555 1_555
N1 C2 1_555 1_555
N2 C12 1_555 1_555
C9 C11 1_555 1_555
C10 C12 1_555 1_555
N3 C11 1_555 1_555
C11 C13 1_555 1_555
C12 C2 1_555 1_555
C13 C6 1_555 1_555
C14 O18 1_555 1_555
C15 H1 1_555 1_555
C16 O8 1_555 1_555
N4 C13 1_555 1_555
C17 C6 1_555 1_555
H2 C17 1_555 1_555
C21 H4 1_555 1_555
C22 C9 1_555 1_555
H5 C22 1_555 1_555
C23 C10 1_555 1_555
H6 C23 1_555 1_555
C24 N2 1_555 1_555
H7 C24 1_555 1_555
C26 N1 1_555 1_555
H8 C26 1_555 1_555
C29 C15 1_555 1_555
H11 C29 1_555 1_555
O25 C37 1_555 1_555
C32 C30 1_555 1_555
H13 C32 1_555 1_555
C33 N4 1_555 1_555
H14 C33 1_555 1_555
C35 C17 1_555 1_555
H16 C35 1_555 1_555
C37 C30 1_555 1_555
H19 O20 1_555 1_555
H20 O20 1_555 1_555
H21 O24 1_555 1_555
H22 O24 1_555 1_555
H23 O17 1_555 1_555
H24 O17 1_555 1_555
H25 O15 1_555 1_555
H26 O15 1_555 1_555
H27 O23 1_555 1_555
H28 O23 1_555 1_555
Dy6 O5 1_555 1_555
Dy7 O13 1_555 1_555
Dy9 O16 1_555 1_555
Dy10 O11 1_555 1_555
O26 Dy2 1_555 1_555
O27 Dy3 1_555 1_555
O28 Dy2 1_555 1_555
O29 Dy4 1_555 1_555
O30 Dy2 1_555 1_555
O31 Dy4 1_555 1_555
O32 Dy1 1_555 1_555
Dy2 O2 1_555 1_555
Dy3 O3 1_555 1_555
Dy3 O4 1_555 1_555
Dy4 O3 1_555 1_555
Dy4 O4 1_555 1_555
O10 Dy6 1_555 1_555
O14 C16 1_555 1_555
O19 C8 1_555 1_555
O21 C14 1_555 1_555
C1 C3 1_555 1_555
C9 C16 1_555 1_555
C10 C14 1_555 1_555
C21 C23 1_555 1_555
C21 C24 1_555 1_555
C26 C29 1_555 1_555
C33 C35 1_555 1_555
O7 C7 1_555 1_555
O22 C7 1_555 1_555
N5 C19 1_555 1_555
C18 H3 1_555 1_555
C19 C25 1_555 1_555
C25 C20 1_555 1_555
H9 C27 1_555 1_555
H10 C28 1_555 1_555
N6 C25 1_555 1_555
C31 H12 1_555 1_555
C34 N6 1_555 1_555
H15 C34 1_555 1_555
C36 C18 1_555 1_555
H17 C36 1_555 1_555
C38 N5 1_555 1_555
H18 C38 1_555 1_555
Dy5 O22 1_555 1_555
Dy8 O7 1_555 1_555
C18 C20 1_555 1_555
C27 C28 1_555 1_555
C31 C38 1_555 1_555
C34 C36 1_555 1_555
O3_2 Dy1_2 1_555 1_555
O26 C1_2 1_555 1_555
O6_2 Dy1_2 1_555 1_555
O9_2 Dy1_2 1_555 1_555
O28 C3_2 1_555 1_555
O15_2 Dy9 1_555 1_555
O17_2 Dy9 1_555 1_555
O20_2 Dy1_2 1_555 1_555
C1_2 O6_2 1_555 1_555
C3_2 O9_2 1_555 1_555
H11_2 C29_2 1_555 1_555
H19_2 O20_2 1_555 1_555
H20_2 O20_2 1_555 1_555
H23_2 O17_2 1_555 1_555
H24_2 O17_2 1_555 1_555
H26_2 O15_2 1_555 1_555
O27_2 Dy3_2 1_555 1_555
O32_2 Dy1_2 1_555 1_555
Dy3_2 O3_2 1_555 1_555
Dy9 O3_2 1_555 1_555
C1_2 C3_2 1_555 1_555
Dy6 O1_2 1_555 1_555
O4_2 Dy6 1_555 1_555
O8_2 Dy6 1_555 1_555
O31 C37_2 1_555 1_555
O19_2 Dy6 1_555 1_555
C8_2 O12_2 1_555 1_555
C16_2 O8_2 1_555 1_555
N5_2 C19_2 1_555 1_555
C18_2 H3_2 1_555 1_555
C19_2 C25_2 1_555 1_555
C20_2 C8_2 1_555 1_555
H5_2 C22_2 1_555 1_555
C25_2 C20_2 1_555 1_555
C27_2 C22_2 1_555 1_555
H9_2 C27_2 1_555 1_555
N6_2 C25_2 1_555 1_555
C30_2 C19_2 1_555 1_555
C31_2 H12_2 1_555 1_555
O25_2 C37_2 1_555 1_555
C32_2 C30_2 1_555 1_555
H13_2 C32_2 1_555 1_555
C34_2 N6_2 1_555 1_555
H15_2 C34_2 1_555 1_555
C36_2 C18_2 1_555 1_555
H17_2 C36_2 1_555 1_555
C37_2 C30_2 1_555 1_555
C38_2 N5_2 1_555 1_555
H18_2 C38_2 1_555 1_555
O30_2 Dy6 1_555 1_555
Dy6 O2_2 1_555 1_555
O19_2 C8_2 1_555 1_555
C18_2 C20_2 1_555 1_555
C31_2 C32_2 1_555 1_555
C31_2 C38_2 1_555 1_555
C34_2 C36_2 1_555 1_555
O7_2 C7_2 1_555 1_555
O22_2 C7_2 1_555 1_555
C6_2 C7_2 1_555 1_555
C9_2 C11_2 1_555 1_555
N3_2 C11_2 1_555 1_555
C11_2 C13_2 1_555 1_555
C13_2 C6_2 1_555 1_555
N4_2 C13_2 1_555 1_555
C17_2 C6_2 1_555 1_555
H2_2 C17_2 1_555 1_555
C28_2 N3_2 1_555 1_555
H10_2 C28_2 1_555 1_555
C33_2 N4_2 1_555 1_555
H14_2 C33_2 1_555 1_555
C35_2 C17_2 1_555 1_555
H16_2 C35_2 1_555 1_555
Dy5_2 O22_2 1_555 1_555
Dy8_2 O7_2 1_555 1_555
C33_2 C35_2 1_555 1_555
O11_2 C4_2 1_555 1_555
O13_2 C4_2 1_555 1_555
C4_2 C5_2 1_555 1_555
C5_2 C15_2 1_555 1_555
C15_2 H1_2 1_555 1_555
Dy7_2 O13_2 1_555 1_555
O27 C7_3 1_555 1_555
O32 C7_3 1_555 1_555
N5_3 C19_3 1_555 1_555
C18_3 H3_3 1_555 1_555
C19_3 C25_3 1_555 1_555
C25_3 C20_3 1_555 1_555
H9_3 C27_3 1_555 1_555
H10_3 C28_3 1_555 1_555
N6_3 C25_3 1_555 1_555
C31_3 H12_3 1_555 1_555
C34_3 N6_3 1_555 1_555
H15_3 C34_3 1_555 1_555
C36_3 C18_3 1_555 1_555
H17_3 C36_3 1_555 1_555
C38_3 N5_3 1_555 1_555
H18_3 C38_3 1_555 1_555
C18_3 C20_3 1_555 1_555
C27_3 C28_3 1_555 1_555
C31_3 C38_3 1_555 1_555
C34_3 C36_3 1_555 1_555
Dy5 O1_3 1_555 1_555
Dy7 O1_3 1_555 1_555
Dy8 O2_3 1_555 1_555
Dy10 O1_3 1_555 1_555
O2_3 Dy5 1_555 1_555
O3_3 Dy5 1_555 1_555
O4_3 Dy7 1_555 1_555
O5_2 C1_3 1_555 1_555
O6_3 Dy5 1_555 1_555
O8_3 Dy7 1_555 1_555
O9_3 Dy5 1_555 1_555
O10_2 C3_3 1_555 1_555
O29 C4_3 1_555 1_555
O12_3 Dy5 1_555 1_555
O30 C4_3 1_555 1_555
O14_3 Dy8 1_555 1_555
O15_3 Dy10 1_555 1_555
O16_2 C37_3 1_555 1_555
O17_3 Dy10 1_555 1_555
O18_2 Dy8 1_555 1_555
O19_3 Dy7 1_555 1_555
O20_3 Dy5 1_555 1_555
O21_2 Dy10 1_555 1_555
O23_2 Dy8 1_555 1_555
C1_3 O6_3 1_555 1_555
O24_2 Dy8 1_555 1_555
C2_2 C5_3 1_555 1_555
C3_3 O9_3 1_555 1_555
C4_3 C5_3 1_555 1_555
C5_3 C15_3 1_555 1_555
C8_3 O12_3 1_555 1_555
N1_2 C2_2 1_555 1_555
N2_2 C12_2 1_555 1_555
C9_3 C11_3 1_555 1_555
C10_2 C12_2 1_555 1_555
N3_3 C11_3 1_555 1_555
C11_3 C13_3 1_555 1_555
C12_2 C2_2 1_555 1_555
C13_3 C6_3 1_555 1_555
C14_2 O18_2 1_555 1_555
C15_3 H1_3 1_555 1_555
C16_3 O8_3 1_555 1_555
N4_3 C13_3 1_555 1_555
C17_3 C6_3 1_555 1_555
H2_3 C17_3 1_555 1_555
C21_2 H4_2 1_555 1_555
C22_3 C9_3 1_555 1_555
H5_3 C22_3 1_555 1_555
C23_2 C10_2 1_555 1_555
H6_2 C23_2 1_555 1_555
C24_2 N2_2 1_555 1_555
H7_2 C24_2 1_555 1_555
C26_2 N1_2 1_555 1_555
H8_3 C26_2 1_555 1_555
C29_3 C15_3 1_555 1_555
H11_3 C29_3 1_555 1_555
O25_3 C37_3 1_555 1_555
C32_3 C30_3 1_555 1_555
H13_3 C32_3 1_555 1_555
C33_3 N4_3 1_555 1_555
H14_3 C33_3 1_555 1_555
C35_3 C17_3 1_555 1_555
H16_3 C35_3 1_555 1_555
C37_3 C30_3 1_555 1_555
H19_3 O20_3 1_555 1_555
H20_3 O20_3 1_555 1_555
H21_3 O24_2 1_555 1_555
H22_2 O24_2 1_555 1_555
H23_3 O17_3 1_555 1_555
H24_3 O17_3 1_555 1_555
H25_2 O15_3 1_555 1_555
H26_3 O15_3 1_555 1_555
H27_3 O23_2 1_555 1_555
H28_2 O23_2 1_555 1_555
Dy7_2 O5_2 1_555 1_555
Dy10_2 O16_2 1_555 1_555
O26_2 Dy7 1_555 1_555
O28_2 Dy7 1_555 1_555
O31_2 Dy10 1_555 1_555
Dy7 O2_3 1_555 1_555
Dy8 O3_3 1_555 1_555
Dy8 O4_3 1_555 1_555
Dy10 O3_3 1_555 1_555
Dy10 O4_3 1_555 1_555
O10_2 Dy7_2 1_555 1_555
O14_3 C16_3 1_555 1_555
O19_3 C8_3 1_555 1_555
O21_2 C14_2 1_555 1_555
C1_3 C3_3 1_555 1_555
C9_3 C16_3 1_555 1_555
C10_2 C14_2 1_555 1_555
C21_2 C23_2 1_555 1_555
C21_2 C24_2 1_555 1_555
C26_2 C29_3 1_555 1_555
C33_3 C35_3 1_555 1_555
O29_2 C4_4 1_555 1_555
O30_2 C4_4 1_555 1_555
C4_4 C5_4 1_555 1_555
C5_4 C15_4 1_555 1_555
C15_4 H1_4 1_555 1_555
O27_2 C7_4 1_555 1_555
O32_2 C7_4 1_555 1_555
C6_4 C7_4 1_555 1_555
C9_4 C11_4 1_555 1_555
N3_4 C11_4 1_555 1_555
C11_4 C13_4 1_555 1_555
C13_4 C6_4 1_555 1_555
N4_4 C13_4 1_555 1_555
C17_4 C6_4 1_555 1_555
H2_4 C17_4 1_555 1_555
C28_4 N3_4 1_555 1_555
H10_4 C28_4 1_555 1_555
C33_4 N4_4 1_555 1_555
H14_4 C33_4 1_555 1_555
C35_4 C17_4 1_555 1_555
H16_4 C35_4 1_555 1_555
C33_4 C35_4 1_555 1_555
Dy7_2 O1_4 1_555 1_555
O4_4 Dy7_2 1_555 1_555
O8_4 Dy7_2 1_555 1_555
O31_2 C37_4 1_555 1_555
O19_4 Dy7_2 1_555 1_555
C8_4 O12_4 1_555 1_555
C16_4 O8_4 1_555 1_555
N5_4 C19_4 1_555 1_555
C18_4 H3_4 1_555 1_555
C19_4 C25_4 1_555 1_555
C20_4 C8_4 1_555 1_555
H5_4 C22_4 1_555 1_555
C25_4 C20_4 1_555 1_555
C27_4 C22_4 1_555 1_555
H9_4 C27_4 1_555 1_555
N6_4 C25_4 1_555 1_555
C30_4 C19_4 1_555 1_555
C31_4 H12_4 1_555 1_555
O25_4 C37_4 1_555 1_555
C32_4 C30_4 1_555 1_555
H13_4 C32_4 1_555 1_555
C34_4 N6_4 1_555 1_555
H15_4 C34_4 1_555 1_555
C36_4 C18_4 1_555 1_555
H17_4 C36_4 1_555 1_555
C37_4 C30_4 1_555 1_555
C38_4 N5_4 1_555 1_555
H18_4 C38_4 1_555 1_555
Dy7_2 O2_4 1_555 1_555
O19_4 C8_4 1_555 1_555
C18_4 C20_4 1_555 1_555
C31_4 C32_4 1_555 1_555
C31_4 C38_4 1_555 1_555
C34_4 C36_4 1_555 1_555
O3_4 Dy5_2 1_555 1_555
O26_2 C1_4 1_555 1_555
O6_4 Dy5_2 1_555 1_555
O9_4 Dy5_2 1_555 1_555
O28_2 C3_4 1_555 1_555
O15_4 Dy10_2 1_555 1_555
O17_4 Dy10_2 1_555 1_555
O20_4 Dy5_2 1_555 1_555
C1_4 O6_4 1_555 1_555
C3_4 O9_4 1_555 1_555
H11_4 C29_4 1_555 1_555
H19_4 O20_4 1_555 1_555
H20_4 O20_4 1_555 1_555
H23_4 O17_4 1_555 1_555
H24_4 O17_4 1_555 1_555
H26_4 O15_4 1_555 1_555
Dy8_2 O3_4 1_555 1_555
Dy10_2 O3_4 1_555 1_555
C1_4 C3_4 1_555 1_555
N1_3 C2_3 1_555 1_555
N2_3 C12_3 1_555 1_555
C10_3 C12_3 1_555 1_555
C12_3 C2_3 1_555 1_555
C14_3 O18_3 1_555 1_555
C21_3 H4_3 1_555 1_555
C23_3 C10_3 1_555 1_555
H6_3 C23_3 1_555 1_555
C24_3 N2_3 1_555 1_555
H7_3 C24_3 1_555 1_555
C26_3 N1_3 1_555 1_555
H22_3 O24_3 1_555 1_555
H28_3 O23_3 1_555 1_555
O21_3 C14_3 1_555 1_555
C10_3 C14_3 1_555 1_555
C21_3 C23_3 1_555 1_555
C21_3 C24_3 1_555 1_555
N1_4 C2_4 1_555 1_555
N2_4 C12_4 1_555 1_555
C10_4 C12_4 1_555 1_555
C12_4 C2_4 1_555 1_555
C14_4 O18_4 1_555 1_555
C21_4 H4_4 1_555 1_555
C23_4 C10_4 1_555 1_555
H6_4 C23_4 1_555 1_555
C24_4 N2_4 1_555 1_555
H7_4 C24_4 1_555 1_555
C26_4 N1_4 1_555 1_555
H22_4 O24_4 1_555 1_555
H28_4 O23_4 1_555 1_555
O21_4 C14_4 1_555 1_555
C10_4 C14_4 1_555 1_555
C21_4 C23_4 1_555 1_555
C21_4 C24_4 1_555 1_555

#END
