
###############################################################################
#
# This file contains modified crystal structure data generated from the
# MOF subset of the Cambridge Structural Database (CSD) v543 
# hosted by the Cambridge Crystallographic Data Centre (CCDC).
#
# This work is licensed under the Creative Commons
# Attribution-NonCommercial-ShareAlike 4.0 International License.
# To view a copy of this license, visit
# http://creativecommons.org/licenses/by-nc-sa/4.0/
# or send a letter to
# Creative Commons, PO Box 1866, Mountain View, CA 94042, USA.
#
# CIF created using the CSD Python API on 29 September 2022
# The structure has been converted into the P1 space group
# The structure has a 3D framework
# The original CSD entry MUMZAX is in the rhombohedral crystal system
# The framework has been calculated to contain at least 10.0% void space
# The void calculation uses a probe of radius 1.32A, grid spacing 0.4
#
###############################################################################

data_MUMZAX
_chemical_formula_moiety         '(C378 H216 Cl18 Co12 N54)n'
_symmetry_cell_setting           triclinic
_symmetry_space_group_name_H-M   'P 1'
_symmetry_Int_Tables_number      1
_space_group_name_Hall           'P 1'
loop_
_symmetry_equiv_pos_site_id
_symmetry_equiv_pos_as_xyz
1 x,y,z
_cell_length_a                   32.872(5)
_cell_length_b                   32.872(5)
_cell_length_c                   9.3160(19)
_cell_angle_alpha                90
_cell_angle_beta                 90
_cell_angle_gamma                120
_cell_volume                     8717.91
loop_
_atom_site_label
_atom_site_type_symbol
_atom_site_fract_x
_atom_site_fract_y
_atom_site_fract_z
Co1 Co 0.5000 0.0000 0.0000
N1 N 0.53564(8) 0.00223(8) 0.1757(3)
N2 N 0.49846(8) 0.05643(8) 0.0697(3)
C2 C 0.55123(10) 0.03490(11) 0.2853(3)
C3 C 0.51669(10) 0.08075(10) 0.1972(3)
C4 C 0.47430(10) 0.07616(10) 0.0088(3)
C7 C 0.58107(12) 0.02724(13) 0.3825(4)
C8 C 0.54188(11) 0.07154(11) 0.2979(3)
C9 C 0.50435(12) 0.11688(12) 0.2112(4)
C10 C 0.47821(12) 0.11394(12) 0.0969(4)
H2 H 0.5954 0.0444 0.4650
C12 C 0.56005(11) 0.10305(11) 0.4272(4)
H3 H 0.5130 0.1384 0.2859
H4 H 0.4651 0.1327 0.0781
C15 C 0.59467(14) 0.14958(13) 0.4133(5)
C16 C 0.54237(13) 0.08663(14) 0.5625(4)
H7 H 0.6071 0.1612 0.3229
C19 C 0.61128(16) 0.17922(15) 0.5307(6)
C20 C 0.55838(15) 0.11593(17) 0.6812(5)
H8 H 0.5193 0.0553 0.5742
H11 H 0.6349 0.2103 0.5199
C21 C 0.59262(17) 0.16219(17) 0.6613(5)
H12 H 0.5463 0.1047 0.7721
Cl1 Cl 0.61266(6) 0.19834(6) 0.81372(18)
H22 H 0.4306 0.0007 0.2442
C7_2 C 0.77950(18) 0.08560(12) 0.0492(4)
H1 H 0.7101 0.0654 0.0383
H2_2 H 0.7823 0.0713 0.1317
C12_2 C 0.87633(16) 0.10662(11) 0.0939(4)
C15_2 C 0.88824(19) 0.07200(14) 0.0800(5)
C16_2 C 0.87759(19) 0.12430(13) 0.2292(4)
C19_2 C 0.90127(22) 0.05539(16) 0.1974(6)
C20_2 C 0.89088(23) 0.10829(15) 0.3479(5)
H8_2 H 0.8693 0.1474 0.2409
H9 H 0.5952 0.0964 0.0347
H11_2 H 0.9087 0.0318 0.1866
C21_2 C 0.90290(24) 0.07405(17) 0.3280(5)
H12_2 H 0.8917 0.1204 0.4388
Cl1_2 Cl 0.91901(8) 0.05401(6) 0.48039(18)
Co1_2 Co 0.5000 0.0000 1.0000
C22 C 0.44389(11) 0.02516(11) 0.7972(3)
C26 C 0.41583(13) 0.00922(13) 0.6685(4)
C27 C 0.44850(11) 0.06148(11) 0.8827(3)
H13 H 0.3987 0.0219 0.6284
C32 C 0.42349(11) 0.08717(11) 0.8390(3)
C34 C 0.44111(13) 0.12158(13) 0.7359(4)
C35 C 0.38185(12) 0.07750(13) 0.9040(4)
H17 H 0.4690 0.1292 0.6889
C38 C 0.41719(12) 0.14477(12) 0.7026(4)
C39 C 0.36035(12) 0.10306(12) 0.8649(4)
H18 H 0.3683 0.0541 0.9734
H21 H 0.4297 0.1678 0.6320
N6 N 0.37739(10) 0.13631(9) 0.7650(3)
H22_2 H 0.3326 0.0965 0.9109
Co3 Co 0.3333 0.1667 0.6667
N7 N 0.57441(13) 0.04406(10) 0.9017(3)
Co1_3 Co 0.5000 1.0000 0.0000
C1 C 0.55611(11) 0.97484(11) 0.2028(3)
C5 C 0.58417(13) 0.99078(13) 0.3315(4)
C6 C 0.55150(11) 0.93852(11) 0.1173(3)
H1_2 H 0.6013 0.9781 0.3716
C11 C 0.57651(11) 0.91283(11) 0.1610(3)
C13 C 0.55889(13) 0.87842(13) 0.2641(4)
C14 C 0.61815(12) 0.92250(13) 0.0960(4)
H5 H 0.5310 0.8708 0.3111
C17 C 0.58281(12) 0.85523(12) 0.2974(4)
C18 C 0.63965(12) 0.89694(12) 0.1351(4)
H6 H 0.6317 0.9459 0.0266
H9_2 H 0.5703 0.8322 0.3680
N3 N 0.62261(10) 0.86369(9) 0.2350(3)
H10 H 0.6674 0.9035 0.0891
Co2 Co 0.6667 0.8333 0.3333
N8 N 0.42559(13) 0.95594(10) 0.0983(3)
Co1_4 Co -0.0000 0.5000 0.0000
C1_2 C 0.02516(11) 0.58127(16) 0.2028(3)
C5_2 C 0.00922(13) 0.59339(18) 0.3315(4)
C6_2 C 0.06148(11) 0.61298(16) 0.1173(3)
H1_3 H 0.0219 0.6232 0.3716
C11_2 C 0.08717(11) 0.66368(16) 0.1610(3)
C13_2 C 0.12158(13) 0.68047(18) 0.2641(4)
C14_2 C 0.07750(13) 0.69565(18) 0.0960(4)
H5_2 H 0.1292 0.6602 0.3111
C17_2 C 0.14477(12) 0.72758(17) 0.2974(4)
C18_2 C 0.10306(12) 0.74271(17) 0.1351(4)
H6_2 H 0.0541 0.6858 0.0266
H9_3 H 0.1678 0.7381 0.3680
N3_2 N 0.13631(9) 0.75892(13) 0.2350(3)
H10_2 H 0.0965 0.7639 0.0891
Co2_2 Co 0.1667 0.8333 0.3333
N8_2 N 0.04406(10) 0.46964(16) 0.0983(3)
Co1_5 Co 1.0000 0.5000 1.0000
C22_2 C 0.97484(11) 0.41873(16) 0.7972(3)
C26_2 C 0.99078(13) 0.40661(18) 0.6685(4)
C27_2 C 0.93852(11) 0.38702(16) 0.8827(3)
H13_2 H 0.9781 0.3768 0.6284
C32_2 C 0.91283(11) 0.33632(16) 0.8390(3)
C34_2 C 0.87842(13) 0.31953(18) 0.7359(4)
C35_2 C 0.92250(13) 0.30435(18) 0.9040(4)
H17_2 H 0.8708 0.3398 0.6889
C38_2 C 0.85523(12) 0.27242(17) 0.7026(4)
C39_2 C 0.89694(12) 0.25729(17) 0.8649(4)
H18_2 H 0.9459 0.3142 0.9734
H21_2 H 0.8322 0.2619 0.6320
N6_2 N 0.86369(9) 0.24108(13) 0.7650(3)
H22_3 H 0.9035 0.2361 0.9109
Co3_2 Co 0.8333 0.1667 0.6667
N7_2 N 0.95594(10) 0.53036(16) 0.9017(3)
Co1_6 Co 0.5000 0.5000 0.0000
N1_2 N 0.46659(11) 0.46436(8) 0.1757(3)
N2_2 N 0.55797(11) 0.50154(8) 0.0697(3)
C1_3 C 0.41873(16) 0.44389(11) 0.2028(3)
C2_2 C 0.48367(15) 0.44877(10) 0.2853(3)
C3_2 C 0.56406(14) 0.48331(10) 0.1972(3)
C4_2 C 0.60186(14) 0.52570(10) 0.0088(3)
C5_3 C 0.40661(18) 0.41583(13) 0.3315(4)
C6_3 C 0.38702(16) 0.44850(11) 0.1173(3)
C7_3 C 0.44617(18) 0.41893(12) 0.3825(4)
C8_2 C 0.52966(16) 0.45812(11) 0.2979(3)
C9_2 C 0.61253(17) 0.49565(12) 0.2112(4)
C10_2 C 0.63573(17) 0.52179(12) 0.0969(4)
H1_4 H 0.3768 0.3987 0.3716
C11_3 C 0.33632(16) 0.42349(11) 0.1610(3)
H2_3 H 0.4490 0.4046 0.4650
C12_3 C 0.54300(16) 0.43995(11) 0.4272(4)
H3_2 H 0.6254 0.4870 0.2859
H4_2 H 0.6676 0.5349 0.0781
C13_3 C 0.31953(18) 0.44111(13) 0.2641(4)
C14_3 C 0.30435(18) 0.38185(12) 0.0960(4)
C15_3 C 0.55491(19) 0.40533(14) 0.4133(5)
C16_3 C 0.54426(19) 0.45763(13) 0.5625(4)
H5_3 H 0.3398 0.4690 0.3111
C17_3 C 0.27242(17) 0.41719(12) 0.2974(4)
C18_3 C 0.25729(17) 0.36035(12) 0.1351(4)
H6_3 H 0.3142 0.3683 0.0266
H7_2 H 0.5541 0.3929 0.3229
C19_3 C 0.56794(22) 0.38872(16) 0.5307(6)
C20_3 C 0.55755(23) 0.44162(15) 0.6812(5)
H8_3 H 0.5360 0.4807 0.5742
H9_4 H 0.2619 0.4297 0.3680
N3_3 N 0.24108(13) 0.37739(10) 0.2350(3)
H10_3 H 0.2361 0.3326 0.0891
H11_3 H 0.5754 0.3651 0.5199
C21_3 C 0.56957(24) 0.40738(17) 0.6613(5)
H12_3 H 0.5584 0.4537 0.7721
Cl1_3 Cl 0.58568(8) 0.38734(6) 0.81372(18)
Co2_3 Co 0.1667 0.3333 0.3333
N8_3 N 0.53036(16) 0.57441(13) 0.0983(3)
Co1_7 Co 0.5000 0.5000 1.0000
N4 N 0.53341(11) 0.53564(8) 0.8243(3)
N5 N 0.44203(11) 0.49846(8) 0.9303(3)
C22_3 C 0.58127(16) 0.55611(11) 0.7972(3)
C23 C 0.51633(15) 0.55123(10) 0.7147(3)
C24 C 0.43594(14) 0.51669(10) 0.8028(3)
C25 C 0.39814(14) 0.47430(10) 0.9912(3)
C26_3 C 0.59339(18) 0.58417(13) 0.6685(4)
C27_3 C 0.61298(16) 0.55150(11) 0.8827(3)
C28 C 0.55383(18) 0.58107(12) 0.6175(4)
C29 C 0.47034(16) 0.54188(11) 0.7021(3)
C30 C 0.38747(17) 0.50435(12) 0.7888(4)
C31 C 0.36427(17) 0.47821(12) 0.9031(4)
H13_3 H 0.6232 0.6013 0.6284
C32_3 C 0.66368(16) 0.57651(11) 0.8390(3)
H14 H 0.5510 0.5954 0.5350
C33 C 0.45700(16) 0.56005(11) 0.5728(4)
H15 H 0.3746 0.5130 0.7141
H16 H 0.3324 0.4651 0.9219
C34_3 C 0.68047(18) 0.55889(13) 0.7359(4)
C35_3 C 0.69565(18) 0.61815(12) 0.9040(4)
C36 C 0.44509(19) 0.59467(14) 0.5867(5)
C37 C 0.45574(19) 0.54237(13) 0.4375(4)
H17_3 H 0.6602 0.5310 0.6889
C38_3 C 0.72758(17) 0.58281(12) 0.7026(4)
C39_3 C 0.74271(17) 0.63965(12) 0.8649(4)
H18_3 H 0.6858 0.6317 0.9734
H19 H 0.4459 0.6071 0.6771
C40 C 0.43206(22) 0.61128(16) 0.4693(6)
C41 C 0.44245(23) 0.55838(15) 0.3188(5)
H20 H 0.4640 0.5193 0.4258
H21_3 H 0.7381 0.5703 0.6320
N6_3 N 0.75892(13) 0.62261(10) 0.7650(3)
H22_4 H 0.7639 0.6674 0.9109
H23 H 0.4246 0.6349 0.4801
C42 C 0.43043(24) 0.59262(17) 0.3387(5)
H24 H 0.4416 0.5463 0.2279
Cl2 Cl 0.41432(8) 0.61266(6) 0.18628(18)
Co3_3 Co 0.8333 0.6667 0.6667
N7_3 N 0.46964(16) 0.42559(13) 0.9017(3)
N1_3 N 0.20231(8) 0.33556(8) 0.5090(3)
N2_3 N 0.16513(8) 0.38976(8) 0.4030(3)
C1_4 C 0.22278(11) 0.30817(11) 0.5361(3)
C2_3 C 0.21790(10) 0.36823(11) 0.6186(3)
C3_3 C 0.18336(10) 0.41408(10) 0.5305(3)
C4_3 C 0.14097(10) 0.40949(10) 0.3421(3)
C5_4 C 0.25084(13) 0.32411(13) 0.6648(4)
C6_4 C 0.21817(11) 0.27185(11) 0.4506(3)
C7_4 C 0.24774(12) 0.36057(13) 0.7158(4)
C8_3 C 0.20855(11) 0.40487(11) 0.6312(3)
C9_3 C 0.17102(12) 0.45021(12) 0.5445(4)
C10_3 C 0.14488(12) 0.44727(12) 0.4302(4)
H1_5 H 0.2680 0.3114 0.7049
C11_4 C 0.24318(11) 0.24616(11) 0.4943(3)
H2_4 H 0.2621 0.3777 0.7983
C12_4 C 0.22672(11) 0.43638(11) 0.7605(4)
H3_3 H 0.1797 0.4717 0.6192
H4_3 H 0.1318 0.4660 0.4114
C13_4 C 0.22556(13) 0.21175(13) 0.5974(4)
C14_4 C 0.28482(12) 0.25583(13) 0.4293(4)
C15_4 C 0.26134(14) 0.48291(13) 0.7466(5)
C16_4 C 0.20904(13) 0.41996(14) 0.8958(4)
H5_4 H 0.1977 0.2041 0.6444
C17_4 C 0.24948(12) 0.18856(12) 0.6307(4)
C18_4 C 0.30632(12) 0.23027(12) 0.4684(4)
H6_4 H 0.2984 0.2792 0.3599
H7_3 H 0.2738 0.4945 0.6562
C19_4 C 0.27795(16) 0.51255(15) 0.8640(6)
H8_4 H 0.1860 0.3886 0.9075
H9_5 H 0.2370 0.1655 0.7013
N3_4 N 0.28928(10) 0.19702(9) 0.5683(3)
H10_4 H 0.3341 0.2368 0.4224
H11_4 H 0.3016 0.5436 0.8532
C21_4 C 0.25929(17) 0.49552(17) 0.9946(5)
N4_2 N 0.13103(8) 0.33110(8) 0.1576(3)
N5_2 N 0.16821(8) 0.27690(8) 0.2636(3)
C22_4 C 0.11056(11) 0.35849(11) 0.1305(3)
C23_2 C 0.11544(10) 0.29843(11) 0.0480(3)
C24_2 C 0.14998(10) 0.25258(10) 0.1361(3)
C25_2 C 0.19237(10) 0.25717(10) 0.3245(3)
C26_4 C 0.08250(13) 0.34255(13) 0.0018(4)
C27_4 C 0.11517(11) 0.39481(11) 0.2160(3)
C29_2 C 0.12479(11) 0.26179(11) 0.0354(3)
C30_2 C 0.16232(12) 0.21645(12) 0.1221(4)
C31_2 C 0.18846(12) 0.21939(12) 0.2364(4)
C32_4 C 0.09016(11) 0.42050(11) 0.1723(3)
H15_2 H 0.1537 0.1949 0.0474
H16_2 H 0.2016 0.2006 0.2552
C34_4 C 0.10778(13) 0.45491(13) 0.0692(4)
C35_4 C 0.04852(12) 0.41083(13) 0.2373(4)
H17_4 H 0.1357 0.4625 0.0222
C38_4 C 0.08386(12) 0.47810(12) 0.0359(4)
C39_4 C 0.02702(12) 0.43639(12) 0.1982(4)
H18_4 H 0.0350 0.3874 0.3067
H19_2 H 0.0596 0.1721 0.0104
N8_4 N 0.09225(13) 0.28928(10) 0.4317(3)
C13_5 C 0.78825(13) 0.01380(18) 0.5974(4)
C14_5 C 0.74417(13) 0.02898(18) 0.4293(4)
C17_5 C 0.81144(12) 0.06091(17) 0.6307(4)
C18_5 C 0.76973(12) 0.07604(17) 0.4684(4)
H6_5 H 0.7208 0.0191 0.3599
H9_6 H 0.8345 0.0714 0.7013
N3_5 N 0.80298(9) 0.09225(13) 0.5683(3)
H10_5 H 0.7632 0.0972 0.4224
H16_3 H 0.7994 0.0009 0.2552
N1_4 N 0.66444(8) 0.86674(11) 0.5090(3)
N2_4 N 0.61024(8) 0.77536(11) 0.4030(3)
C1_5 C 0.69183(11) 0.91460(16) 0.5361(3)
C2_4 C 0.63177(11) 0.84966(15) 0.6186(3)
C3_4 C 0.58592(10) 0.76927(14) 0.5305(3)
C4_4 C 0.59051(10) 0.73147(14) 0.3421(3)
C5_5 C 0.67589(13) 0.92672(18) 0.6648(4)
C6_5 C 0.72815(11) 0.94631(16) 0.4506(3)
C7_5 C 0.63943(13) 0.88716(18) 0.7158(4)
C8_4 C 0.59513(11) 0.80367(16) 0.6312(3)
C9_4 C 0.54979(12) 0.72080(17) 0.5445(4)
C10_4 C 0.55273(12) 0.69760(17) 0.4302(4)
H1_6 H 0.6886 0.9565 0.7049
C11_5 C 0.75384(11) 0.99701(16) 0.4943(3)
H2_5 H 0.6223 0.8843 0.7983
C12_5 C 0.56362(11) 0.79033(16) 0.7605(4)
H3_4 H 0.5283 0.7079 0.6192
H4_4 H 0.5340 0.6657 0.4114
C15_5 C 0.51709(13) 0.77842(19) 0.7466(5)
C16_5 C 0.58004(14) 0.78907(19) 0.8958(4)
H5_5 H 0.7959 0.9935 0.6444
H7_4 H 0.5055 0.7792 0.6562
C19_5 C 0.48745(15) 0.76539(22) 0.8640(6)
H8_5 H 0.6114 0.7973 0.9075
H11_5 H 0.4564 0.7579 0.8532
C21_5 C 0.50448(17) 0.76376(24) 0.9946(5)
N4_3 N 0.66890(8) 0.79992(11) 0.1576(3)
N5_3 N 0.72310(8) 0.89130(11) 0.2636(3)
C22_5 C 0.64151(11) 0.75206(16) 0.1305(3)
C23_3 C 0.70157(11) 0.81700(15) 0.0480(3)
C24_3 C 0.74742(10) 0.89739(14) 0.1361(3)
C25_3 C 0.74283(10) 0.93519(14) 0.3245(3)
C26_5 C 0.65745(13) 0.73994(18) 0.0018(4)
C27_5 C 0.60519(11) 0.72035(16) 0.2160(3)
C29_3 C 0.73821(11) 0.86299(16) 0.0354(3)
C30_3 C 0.78355(12) 0.94586(17) 0.1221(4)
C31_3 C 0.78061(12) 0.96906(17) 0.2364(4)
C32_5 C 0.57950(11) 0.66965(16) 0.1723(3)
H15_3 H 0.8051 0.9587 0.0474
C34_5 C 0.54509(13) 0.65286(18) 0.0692(4)
C35_5 C 0.58917(13) 0.63768(18) 0.2373(4)
H17_5 H 0.5375 0.6731 0.0222
C38_5 C 0.52190(12) 0.60575(17) 0.0359(4)
C39_5 C 0.56361(12) 0.59062(17) 0.1982(4)
H18_5 H 0.6126 0.6475 0.3067
H19_3 H 0.8279 0.8874 0.0104
H22_5 H 0.5702 0.5694 0.2442
N8_5 N 0.71072(10) 0.80298(16) 0.4317(3)
C28_2 C 0.69391(13) 0.77950(18) 0.9508(4)
H13_4 H 0.6448 0.7101 0.9617
H14_2 H 0.7111 0.7823 0.8683
C33_2 C 0.76972(11) 0.87633(16) 0.9061(4)
C36_2 C 0.81625(13) 0.88824(19) 0.9200(5)
C37_2 C 0.75330(14) 0.87759(19) 0.7708(4)
C40_2 C 0.84589(15) 0.90127(22) 0.8026(6)
C41_2 C 0.78260(17) 0.89088(23) 0.6521(5)
H20_2 H 0.7220 0.8693 0.7591
H21_4 H 0.4989 0.5952 0.9653
H23_2 H 0.8770 0.9087 0.8134
C42_2 C 0.82886(17) 0.90290(24) 0.6720(5)
H24_2 H 0.7714 0.8917 0.5612
Cl2_2 Cl 0.86501(6) 0.91901(8) 0.51961(18)
N1_5 N 0.13326(11) 0.79769(8) 0.5090(3)
N2_5 N 0.22464(11) 0.83487(8) 0.4030(3)
C1_6 C 0.08540(16) 0.77722(11) 0.5361(3)
C2_5 C 0.15034(15) 0.78210(10) 0.6186(3)
C3_5 C 0.23073(14) 0.81664(10) 0.5305(3)
C4_5 C 0.26853(14) 0.85903(10) 0.3421(3)
C5_6 C 0.07328(18) 0.74916(13) 0.6648(4)
C6_6 C 0.05369(16) 0.78183(11) 0.4506(3)
C7_6 C 0.11284(18) 0.75226(12) 0.7158(4)
C8_5 C 0.19633(16) 0.79145(11) 0.6312(3)
C9_5 C 0.27920(17) 0.82898(12) 0.5445(4)
C10_5 C 0.30240(17) 0.85512(12) 0.4302(4)
H1_7 H 0.0435 0.7320 0.7049
C11_6 C 0.00299(16) 0.75682(11) 0.4943(3)
H2_6 H 0.1157 0.7379 0.7983
C12_6 C 0.20967(16) 0.77328(11) 0.7605(4)
H3_5 H 0.2921 0.8203 0.6192
H4_5 H 0.3343 0.8682 0.4114
C15_6 C 0.22158(19) 0.73866(14) 0.7466(5)
C16_6 C 0.21093(19) 0.79096(13) 0.8958(4)
H5_6 H 0.0065 0.8023 0.6444
H7_5 H 0.2208 0.7262 0.6562
C19_6 C 0.23461(22) 0.72205(16) 0.8640(6)
H8_6 H 0.2027 0.8140 0.9075
H11_6 H 0.2421 0.6984 0.8532
C21_6 C 0.23624(24) 0.74071(17) 0.9946(5)
N4_4 N 0.20008(11) 0.86897(8) 0.1576(3)
N5_4 N 0.10870(11) 0.83179(8) 0.2636(3)
C22_6 C 0.24794(16) 0.88944(11) 0.1305(3)
C23_4 C 0.18300(15) 0.88456(10) 0.0480(3)
C24_4 C 0.10261(14) 0.85002(10) 0.1361(3)
C25_4 C 0.06481(14) 0.80763(10) 0.3245(3)
C26_6 C 0.26006(18) 0.91750(13) 0.0018(4)
C27_6 C 0.27965(16) 0.88483(11) 0.2160(3)
C29_4 C 0.13701(16) 0.87521(11) 0.0354(3)
C30_4 C 0.05414(17) 0.83768(12) 0.1221(4)
C31_4 C 0.03094(17) 0.81154(12) 0.2364(4)
C32_6 C 0.33035(16) 0.90984(11) 0.1723(3)
H15_4 H 0.0413 0.8463 0.0474
C34_6 C 0.34714(18) 0.89222(13) 0.0692(4)
C35_6 C 0.36232(18) 0.95148(12) 0.2373(4)
H17_6 H 0.3269 0.8643 0.0222
C38_6 C 0.39425(17) 0.91614(12) 0.0359(4)
C39_6 C 0.40938(17) 0.97298(12) 0.1982(4)
H18_6 H 0.3525 0.9650 0.3067
H19_4 H 0.1126 0.9404 0.0104
N8_6 N 0.19702(16) 0.90775(13) 0.4317(3)
C13_6 C 0.98620(18) 0.77444(13) 0.5974(4)
C14_6 C 0.97102(18) 0.71518(12) 0.4293(4)
C17_6 C 0.93909(17) 0.75052(12) 0.6307(4)
C18_6 C 0.92396(17) 0.69368(12) 0.4684(4)
H6_6 H 0.9809 0.7016 0.3599
H9_7 H 0.9286 0.7630 0.7013
N3_6 N 0.90775(13) 0.71072(10) 0.5683(3)
H10_6 H 0.9028 0.6659 0.4224
H16_4 H 0.9991 0.7984 0.2552
N1_6 N 0.86897(8) 0.66890(8) 0.8424(3)
N2_6 N 0.83179(8) 0.72310(8) 0.7364(3)
C1_7 C 0.88944(11) 0.64151(11) 0.8695(3)
C2_6 C 0.88456(10) 0.70157(11) 0.9520(3)
C3_6 C 0.85002(10) 0.74742(10) 0.8639(3)
C4_6 C 0.80763(10) 0.74283(10) 0.6755(3)
C5_7 C 0.91750(13) 0.65745(13) 0.9982(4)
C6_7 C 0.88483(11) 0.60519(11) 0.7840(3)
C8_6 C 0.87521(11) 0.73821(11) 0.9646(3)
C9_6 C 0.83768(12) 0.78355(12) 0.8779(4)
C10_6 C 0.81154(12) 0.78061(12) 0.7636(4)
C11_7 C 0.90984(11) 0.57950(11) 0.8277(3)
H3_6 H 0.8463 0.8051 0.9526
H4_6 H 0.7984 0.7994 0.7448
C13_7 C 0.89222(13) 0.54509(13) 0.9308(4)
C14_7 C 0.95148(12) 0.58917(13) 0.7627(4)
H5_7 H 0.8643 0.5375 0.9778
C17_7 C 0.91614(12) 0.52190(12) 0.9641(4)
C18_7 C 0.97298(12) 0.56361(12) 0.8018(4)
H6_7 H 0.9650 0.6126 0.6933
H7_6 H 0.9404 0.8279 0.9896
N4_5 N 0.79769(8) 0.66444(8) 0.4910(3)
N5_5 N 0.83487(8) 0.61024(8) 0.5970(3)
C22_7 C 0.77722(11) 0.69183(11) 0.4639(3)
C23_5 C 0.78210(10) 0.63177(11) 0.3814(3)
C24_5 C 0.81664(10) 0.58592(10) 0.4695(3)
C25_5 C 0.85903(10) 0.59051(10) 0.6579(3)
C26_7 C 0.74916(13) 0.67589(13) 0.3352(4)
C27_7 C 0.78183(11) 0.72815(11) 0.5494(3)
C28_3 C 0.75226(12) 0.63943(13) 0.2842(4)
C29_5 C 0.79145(11) 0.59513(11) 0.3688(3)
C30_5 C 0.82898(12) 0.54979(12) 0.4555(4)
C31_5 C 0.85512(12) 0.55273(12) 0.5698(4)
H13_5 H 0.7320 0.6886 0.2951
C32_7 C 0.75682(11) 0.75384(11) 0.5057(3)
H14_3 H 0.7379 0.6223 0.2017
C33_3 C 0.77328(11) 0.56362(11) 0.2395(4)
H15_5 H 0.8203 0.5283 0.3808
H16_5 H 0.8682 0.5340 0.5886
C34_7 C 0.77444(13) 0.78825(13) 0.4026(4)
C35_7 C 0.71518(12) 0.74417(13) 0.5707(4)
C36_3 C 0.73866(14) 0.51709(13) 0.2534(5)
C37_3 C 0.79096(13) 0.58004(14) 0.1042(4)
H17_7 H 0.8023 0.7959 0.3556
C38_7 C 0.75052(12) 0.81144(12) 0.3693(4)
C39_7 C 0.69368(12) 0.76973(12) 0.5316(4)
H18_7 H 0.7016 0.7208 0.6401
H19_5 H 0.7262 0.5055 0.3438
C40_3 C 0.72205(16) 0.48745(15) 0.1360(6)
H20_3 H 0.8140 0.6114 0.0925
H21_5 H 0.7630 0.8345 0.2987
H22_6 H 0.6659 0.7632 0.5776
H23_3 H 0.6984 0.4564 0.1468
C42_3 C 0.74071(17) 0.50448(17) 0.0054(5)
C7_7 C 0.30609(13) 0.22050(18) 0.0492(4)
H1_8 H 0.3552 0.2899 0.0383
H2_7 H 0.2889 0.2177 0.1317
C12_7 C 0.23028(11) 0.12367(16) 0.0939(4)
C15_7 C 0.18375(13) 0.11176(19) 0.0800(5)
C16_7 C 0.24670(14) 0.12241(19) 0.2292(4)
C19_7 C 0.15411(15) 0.09873(22) 0.1974(6)
C20_4 C 0.21740(17) 0.10912(23) 0.3479(5)
H8_7 H 0.2780 0.1307 0.2409
H9_8 H 0.5011 0.4048 0.0347
H11_7 H 0.1230 0.0913 0.1866
C21_7 C 0.17114(17) 0.09710(24) 0.3280(5)
H12_4 H 0.2286 0.1083 0.4388
Cl1_4 Cl 0.13499(6) 0.08099(8) 0.48039(18)
N1_7 N 0.33110(8) 0.20008(11) 0.8424(3)
N2_7 N 0.27690(8) 0.10870(11) 0.7364(3)
C1_8 C 0.35849(11) 0.24794(16) 0.8695(3)
C2_7 C 0.29843(11) 0.18300(15) 0.9520(3)
C3_7 C 0.25258(10) 0.10261(14) 0.8639(3)
C4_7 C 0.25717(10) 0.06481(14) 0.6755(3)
C5_8 C 0.34255(13) 0.26006(18) 0.9982(4)
C6_8 C 0.39481(11) 0.27965(16) 0.7840(3)
C8_7 C 0.26179(11) 0.13701(16) 0.9646(3)
C9_7 C 0.21645(12) 0.05414(17) 0.8779(4)
C10_7 C 0.21939(12) 0.03094(17) 0.7636(4)
C11_8 C 0.42050(11) 0.33035(16) 0.8277(3)
H3_7 H 0.1949 0.0413 0.9526
C13_8 C 0.45491(13) 0.34714(18) 0.9308(4)
C14_8 C 0.41083(13) 0.36232(18) 0.7627(4)
H5_8 H 0.4625 0.3269 0.9778
C17_8 C 0.47810(12) 0.39425(17) 0.9641(4)
C18_8 C 0.43639(12) 0.40938(17) 0.8018(4)
H6_8 H 0.3874 0.3525 0.6933
H7_7 H 0.1721 0.1126 0.9896
H10_7 H 0.4298 0.4306 0.7558
N4_6 N 0.33556(8) 0.13326(11) 0.4910(3)
N5_6 N 0.38976(8) 0.22464(11) 0.5970(3)
C22_8 C 0.30817(11) 0.08540(16) 0.4639(3)
C23_6 C 0.36823(11) 0.15034(15) 0.3814(3)
C24_6 C 0.41408(10) 0.23073(14) 0.4695(3)
C25_6 C 0.40949(10) 0.26853(14) 0.6579(3)
C26_8 C 0.32411(13) 0.07328(18) 0.3352(4)
C27_8 C 0.27185(11) 0.05369(16) 0.5494(3)
C28_4 C 0.36057(13) 0.11284(18) 0.2842(4)
C29_6 C 0.40487(11) 0.19633(16) 0.3688(3)
C30_6 C 0.45021(12) 0.27920(17) 0.4555(4)
C31_6 C 0.44727(12) 0.30240(17) 0.5698(4)
H13_6 H 0.3114 0.0435 0.2951
C32_8 C 0.24616(11) 0.00299(16) 0.5057(3)
H14_4 H 0.3777 0.1157 0.2017
C33_4 C 0.43638(11) 0.20967(16) 0.2395(4)
H15_6 H 0.4717 0.2921 0.3808
H16_6 H 0.4660 0.3343 0.5886
C36_4 C 0.48291(13) 0.22158(19) 0.2534(5)
C37_4 C 0.41996(14) 0.21093(19) 0.1042(4)
H17_8 H 0.2041 0.0065 0.3556
H19_6 H 0.4945 0.2208 0.3438
C40_4 C 0.51255(15) 0.23461(22) 0.1360(6)
H20_4 H 0.3886 0.2027 0.0925
H23_4 H 0.5436 0.2421 0.1468
C42_4 C 0.49552(17) 0.23624(24) 0.0054(5)
H4_7 H 0.2006 0.9991 0.7448
C34_8 C 0.21175(13) 0.98620(18) 0.4026(4)
C35_8 C 0.25583(13) 0.97102(18) 0.5707(4)
C38_8 C 0.18856(12) 0.93909(17) 0.3693(4)
C39_8 C 0.23027(12) 0.92396(17) 0.5316(4)
H18_8 H 0.2792 0.9809 0.6401
H21_6 H 0.1655 0.9286 0.2987
H22_7 H 0.2368 0.9028 0.5776
H4_8 H 0.0009 0.2016 0.7448
C34_9 C 0.01380(18) 0.22556(13) 0.4026(4)
C35_9 C 0.02898(18) 0.28482(12) 0.5707(4)
C38_9 C 0.06091(17) 0.24948(12) 0.3693(4)
C39_9 C 0.07604(17) 0.30632(12) 0.5316(4)
H18_9 H 0.0191 0.2984 0.6401
H21_7 H 0.0714 0.2370 0.2987
H22_8 H 0.0972 0.3341 0.5776
N1_8 N 0.79992(11) 0.13103(8) 0.8424(3)
N2_8 N 0.89130(11) 0.16821(8) 0.7364(3)
C1_9 C 0.75206(16) 0.11056(11) 0.8695(3)
C2_8 C 0.81700(15) 0.11544(10) 0.9520(3)
C3_8 C 0.89739(14) 0.14998(10) 0.8639(3)
C4_8 C 0.93519(14) 0.19237(10) 0.6755(3)
C5_9 C 0.73994(18) 0.08250(13) 0.9982(4)
C6_9 C 0.72035(16) 0.11517(11) 0.7840(3)
C8_8 C 0.86299(16) 0.12479(11) 0.9646(3)
C9_8 C 0.94586(17) 0.16232(12) 0.8779(4)
C10_8 C 0.96906(17) 0.18846(12) 0.7636(4)
C11_9 C 0.66965(16) 0.09016(11) 0.8277(3)
H3_8 H 0.9587 0.1537 0.9526
C13_9 C 0.65286(18) 0.10778(13) 0.9308(4)
C14_9 C 0.63768(18) 0.04852(12) 0.7627(4)
H5_9 H 0.6731 0.1357 0.9778
C17_9 C 0.60575(17) 0.08386(12) 0.9641(4)
C18_9 C 0.59062(17) 0.02702(12) 0.8018(4)
H6_9 H 0.6475 0.0350 0.6933
H7_8 H 0.8874 0.0596 0.9896
N4_7 N 0.86674(11) 0.20231(8) 0.4910(3)
N5_7 N 0.77536(11) 0.16513(8) 0.5970(3)
C22_9 C 0.91460(16) 0.22278(11) 0.4639(3)
C23_7 C 0.84966(15) 0.21790(10) 0.3814(3)
C24_7 C 0.76927(14) 0.18336(10) 0.4695(3)
C25_7 C 0.73147(14) 0.14097(10) 0.6579(3)
C26_9 C 0.92672(18) 0.25084(13) 0.3352(4)
C27_9 C 0.94631(16) 0.21817(11) 0.5494(3)
C28_5 C 0.88716(18) 0.24774(12) 0.2842(4)
C29_7 C 0.80367(16) 0.20855(11) 0.3688(3)
C30_7 C 0.72080(17) 0.17102(12) 0.4555(4)
C31_7 C 0.69760(17) 0.14488(12) 0.5698(4)
H13_7 H 0.9565 0.2680 0.2951
C32_9 C 0.99701(16) 0.24318(11) 0.5057(3)
H14_5 H 0.8843 0.2621 0.2017
C33_5 C 0.79033(16) 0.22672(11) 0.2395(4)
H15_7 H 0.7079 0.1797 0.3808
H16_7 H 0.6657 0.1318 0.5886
C36_5 C 0.77842(19) 0.26134(14) 0.2534(5)
C37_5 C 0.78907(19) 0.20904(13) 0.1042(4)
H17_9 H 0.9935 0.1977 0.3556
H19_7 H 0.7792 0.2738 0.3438
C40_5 C 0.76539(22) 0.27795(16) 0.1360(6)
H20_5 H 0.7973 0.1860 0.0925
H23_5 H 0.7579 0.3016 0.1468
C42_5 C 0.76376(24) 0.25929(17) 0.0054(5)
Co1_8 Co 0.5000 1.0000 1.0000
N4_8 N 0.46436(8) 0.99777(8) 0.8243(3)
N5_8 N 0.50154(8) 0.94357(8) 0.9303(3)
C23_8 C 0.44877(10) 0.96510(11) 0.7147(3)
C24_8 C 0.48331(10) 0.91925(10) 0.8028(3)
C25_8 C 0.52570(10) 0.92384(10) 0.9912(3)
C28_6 C 0.41893(12) 0.97276(13) 0.6175(4)
C29_8 C 0.45812(11) 0.92846(11) 0.7021(3)
C30_8 C 0.49565(12) 0.88312(12) 0.7888(4)
C31_8 C 0.52179(12) 0.88606(12) 0.9031(4)
H14_6 H 0.4046 0.9556 0.5350
C33_6 C 0.43995(11) 0.89695(11) 0.5728(4)
H15_8 H 0.4870 0.8616 0.7141
H16_8 H 0.5349 0.8673 0.9219
C36_6 C 0.40533(14) 0.85042(13) 0.5867(5)
C37_6 C 0.45763(13) 0.91337(14) 0.4375(4)
H19_8 H 0.3929 0.8388 0.6771
C40_6 C 0.38872(16) 0.82078(15) 0.4693(6)
C41_3 C 0.44162(15) 0.88407(17) 0.3188(5)
H20_6 H 0.4807 0.9447 0.4258
H23_6 H 0.3651 0.7897 0.4801
C42_6 C 0.40738(17) 0.83781(17) 0.3387(5)
H24_3 H 0.4537 0.8953 0.2279
Cl2_3 Cl 0.38734(6) 0.80166(6) 0.18628(18)
C28_7 C 0.22050(18) 0.91440(12) 0.9508(4)
H13_8 H 0.2899 0.9346 0.9617
H14_7 H 0.2177 0.9287 0.8683
C33_7 C 0.12367(16) 0.89338(11) 0.9061(4)
C36_7 C 0.11176(19) 0.92800(14) 0.9200(5)
C37_7 C 0.12241(19) 0.87570(13) 0.7708(4)
C40_7 C 0.09873(22) 0.94461(16) 0.8026(6)
C41_4 C 0.10912(23) 0.89171(15) 0.6521(5)
H20_7 H 0.1307 0.8526 0.7591
H21_8 H 0.4048 0.9036 0.9653
H23_7 H 0.0913 0.9682 0.8134
C42_7 C 0.09710(24) 0.92595(17) 0.6720(5)
H24_4 H 0.1083 0.8796 0.5612
Cl2_4 Cl 0.08099(8) 0.94599(6) 0.51961(18)
H10_8 H 0.5694 0.9993 0.7558
Co1_9 Co -0.0000 0.5000 1.0000
N4_9 N 0.00223(8) 0.46659(11) 0.8243(3)
N5_9 N 0.05643(8) 0.55797(11) 0.9303(3)
C23_9 C 0.03490(11) 0.48367(15) 0.7147(3)
C24_9 C 0.08075(10) 0.56406(14) 0.8028(3)
C25_9 C 0.07616(10) 0.60186(14) 0.9912(3)
C28_8 C 0.02724(13) 0.44617(18) 0.6175(4)
C29_9 C 0.07154(11) 0.52966(16) 0.7021(3)
C30_9 C 0.11688(12) 0.61253(17) 0.7888(4)
C31_9 C 0.11394(12) 0.63573(17) 0.9031(4)
H14_8 H 0.0444 0.4490 0.5350
C33_8 C 0.10305(11) 0.54300(16) 0.5728(4)
H15_9 H 0.1384 0.6254 0.7141
H16_9 H 0.1327 0.6676 0.9219
C36_8 C 0.14958(13) 0.55491(19) 0.5867(5)
C37_8 C 0.08663(14) 0.54426(19) 0.4375(4)
H19_9 H 0.1612 0.5541 0.6771
C40_8 C 0.17922(15) 0.56794(22) 0.4693(6)
C41_5 C 0.11593(17) 0.55755(23) 0.3188(5)
H20_8 H 0.0553 0.5360 0.4258
H23_8 H 0.2103 0.5754 0.4801
C42_8 C 0.16219(17) 0.56957(24) 0.3387(5)
H24_5 H 0.1047 0.5584 0.2279
Cl2_5 Cl 0.19834(6) 0.58568(8) 0.18628(18)
C28_9 C 0.08560(12) 0.30609(13) 0.9508(4)
H13_9 H 0.0654 0.3552 0.9617
H14_9 H 0.0713 0.2889 0.8683
C33_9 C 0.10662(11) 0.23028(11) 0.9061(4)
C36_9 C 0.07200(14) 0.18375(13) 0.9200(5)
C37_9 C 0.12430(13) 0.24670(14) 0.7708(4)
C40_9 C 0.05539(16) 0.15411(15) 0.8026(6)
C41_6 C 0.10829(15) 0.21740(17) 0.6521(5)
H20_9 H 0.1474 0.2780 0.7591
H21_9 H 0.0964 0.5011 0.9653
H23_9 H 0.0318 0.1230 0.8134
C42_9 C 0.07405(17) 0.17114(17) 0.6720(5)
H24_6 H 0.1204 0.2286 0.5612
Cl2_6 Cl 0.05401(6) 0.13499(6) 0.51961(18)
H10_9 H 0.0007 0.5702 0.7558
Co1_10 Co 1.0000 0.5000 0.0000
N1_9 N 0.99777(8) 0.53341(11) 0.1757(3)
N2_9 N 0.94357(8) 0.44203(11) 0.0697(3)
C2_9 C 0.96510(11) 0.51633(15) 0.2853(3)
C3_9 C 0.91925(10) 0.43594(14) 0.1972(3)
C4_9 C 0.92384(10) 0.39814(14) 0.0088(3)
C7_8 C 0.97276(13) 0.55383(18) 0.3825(4)
C8_9 C 0.92846(11) 0.47034(16) 0.2979(3)
C9_9 C 0.88312(12) 0.38747(17) 0.2112(4)
C10_9 C 0.88606(12) 0.36427(17) 0.0969(4)
H2_8 H 0.9556 0.5510 0.4650
C12_8 C 0.89695(11) 0.45700(16) 0.4272(4)
H3_9 H 0.8616 0.3746 0.2859
H4_9 H 0.8673 0.3324 0.0781
C15_8 C 0.85042(13) 0.44509(19) 0.4133(5)
C16_8 C 0.91337(14) 0.45574(19) 0.5625(4)
H7_9 H 0.8388 0.4459 0.3229
C19_8 C 0.82078(15) 0.43206(22) 0.5307(6)
C20_5 C 0.88407(17) 0.44245(23) 0.6812(5)
H8_8 H 0.9447 0.4640 0.5742
H11_8 H 0.7897 0.4246 0.5199
C21_8 C 0.83781(17) 0.43043(24) 0.6613(5)
H12_5 H 0.8953 0.4416 0.7721
Cl1_5 Cl 0.80166(6) 0.41432(8) 0.81372(18)
H22_9 H 0.9993 0.4298 0.2442
C7_9 C 0.91440(12) 0.69391(13) 0.0492(4)
H1_9 H 0.9346 0.6448 0.0383
H2_9 H 0.9287 0.7111 0.1317
C12_9 C 0.89338(11) 0.76972(11) 0.0939(4)
C15_9 C 0.92800(14) 0.81625(13) 0.0800(5)
C16_9 C 0.87570(13) 0.75330(14) 0.2292(4)
C19_9 C 0.94461(16) 0.84589(15) 0.1974(6)
C20_6 C 0.89171(15) 0.78260(17) 0.3479(5)
H8_9 H 0.8526 0.7220 0.2409
H9_9 H 0.9036 0.4989 0.0347
H11_9 H 0.9682 0.8770 0.1866
C21_9 C 0.92595(17) 0.82886(17) 0.3280(5)
H12_6 H 0.8796 0.7714 0.4388
Cl1_6 Cl 0.94599(6) 0.86501(6) 0.48039(18)
C20_7 C 0.22505(15) 0.44926(17) 0.0145(5)
H12_7 H 0.2130 0.4380 0.1054
Cl1_7 Cl 0.27933(6) 0.53167(6) 0.14705(18)
C20_8 C 0.55074(17) 0.77578(23) 0.0145(5)
H12_8 H 0.5620 0.7749 0.1054
Cl1_8 Cl 0.46833(6) 0.74765(8) 0.14705(18)
C20_9 C 0.22422(23) 0.77495(15) 0.0145(5)
H12_9 H 0.2251 0.7870 0.1054
Cl1_9 Cl 0.25235(8) 0.72067(6) 0.14705(18)
C41_7 C 0.77495(15) 0.55074(17) 0.9855(5)
H24_7 H 0.7870 0.5620 0.8946
Cl2_7 Cl 0.72067(6) 0.46833(6) 0.85295(18)
C41_8 C 0.44926(17) 0.22422(23) 0.9855(5)
H24_8 H 0.4380 0.2251 0.8946
Cl2_8 Cl 0.53167(6) 0.25235(8) 0.85295(18)
C41_9 C 0.77578(23) 0.22505(15) 0.9855(5)
H24_9 H 0.7749 0.2130 0.8946
Cl2_9 Cl 0.74765(8) 0.27933(6) 0.85295(18)
loop_
_geom_bond_atom_site_label_1
_geom_bond_atom_site_label_2
_geom_bond_site_symmetry_1
_geom_bond_site_symmetry_2
Co1 N1 1_555 1_555
N2 Co1 1_555 1_555
C2 N1 1_555 1_555
C3 N2 1_555 1_555
C4 N2 1_555 1_555
C7 C2 1_555 1_555
C8 C2 1_555 1_555
C9 C3 1_555 1_555
C10 C4 1_555 1_555
H2 C7 1_555 1_555
C12 C8 1_555 1_555
H3 C9 1_555 1_555
H4 C10 1_555 1_555
C15 C12 1_555 1_555
C16 C12 1_555 1_555
H7 C15 1_555 1_555
C19 C15 1_555 1_555
C20 C16 1_555 1_555
H8 C16 1_555 1_555
H11 C19 1_555 1_555
C21 C19 1_555 1_555
H12 C20 1_555 1_555
Cl1 C21 1_555 1_555
C3 C8 1_555 1_555
C9 C10 1_555 1_555
C20 C21 1_555 1_555
H2_2 C7_2 1_555 1_555
C15_2 C12_2 1_555 1_555
C16_2 C12_2 1_555 1_555
C19_2 C15_2 1_555 1_555
C20_2 C16_2 1_555 1_555
H8_2 C16_2 1_555 1_555
H11_2 C19_2 1_555 1_555
C21_2 C19_2 1_555 1_555
H12_2 C20_2 1_555 1_555
Cl1_2 C21_2 1_555 1_555
C20_2 C21_2 1_555 1_555
C26 C22 1_555 1_555
H13 C26 1_555 1_555
C32 C27 1_555 1_555
C34 C32 1_555 1_555
C35 C32 1_555 1_555
H17 C34 1_555 1_555
C38 C34 1_555 1_555
C39 C35 1_555 1_555
H18 C35 1_555 1_555
H21 C38 1_555 1_555
N6 C38 1_555 1_555
H22_2 C39 1_555 1_555
Co3 N6 1_555 1_555
N7 Co1_2 1_555 1_555
C22 C27 1_555 1_555
C39 N6 1_555 1_555
C1 C5 1_555 1_555
C6 C1 1_555 1_555
H1_2 C5 1_555 1_555
C11 C6 1_555 1_555
C13 C11 1_555 1_555
C14 C11 1_555 1_555
H5 C13 1_555 1_555
C17 C13 1_555 1_555
C18 C14 1_555 1_555
H6 C14 1_555 1_555
H9_2 C17 1_555 1_555
N3 C17 1_555 1_555
H10 C18 1_555 1_555
Co2 N3 1_555 1_555
N8 Co1_3 1_555 1_555
C18 N3 1_555 1_555
C1_2 C5_2 1_555 1_555
C6_2 C1_2 1_555 1_555
H1_3 C5_2 1_555 1_555
C11_2 C6_2 1_555 1_555
C13_2 C11_2 1_555 1_555
C14_2 C11_2 1_555 1_555
H5_2 C13_2 1_555 1_555
C17_2 C13_2 1_555 1_555
C18_2 C14_2 1_555 1_555
H6_2 C14_2 1_555 1_555
H9_3 C17_2 1_555 1_555
N3_2 C17_2 1_555 1_555
H10_2 C18_2 1_555 1_555
Co2_2 N3_2 1_555 1_555
N8_2 Co1_4 1_555 1_555
C18_2 N3_2 1_555 1_555
C26_2 C22_2 1_555 1_555
H13_2 C26_2 1_555 1_555
C32_2 C27_2 1_555 1_555
C34_2 C32_2 1_555 1_555
C35_2 C32_2 1_555 1_555
H17_2 C34_2 1_555 1_555
C38_2 C34_2 1_555 1_555
C39_2 C35_2 1_555 1_555
H18_2 C35_2 1_555 1_555
H21_2 C38_2 1_555 1_555
N6_2 C38_2 1_555 1_555
H22_3 C39_2 1_555 1_555
Co3_2 N6_2 1_555 1_555
N7_2 Co1_5 1_555 1_555
C22_2 C27_2 1_555 1_555
C39_2 N6_2 1_555 1_555
Co1_6 N1_2 1_555 1_555
N1_2 C1_3 1_555 1_555
N2_2 Co1_6 1_555 1_555
C1_3 C5_3 1_555 1_555
C2_2 N1_2 1_555 1_555
C3_2 N2_2 1_555 1_555
C4_2 N2_2 1_555 1_555
C5_3 C7_3 1_555 1_555
C6_3 C1_3 1_555 1_555
C7_3 C2_2 1_555 1_555
C8_2 C2_2 1_555 1_555
C9_2 C3_2 1_555 1_555
C10_2 C4_2 1_555 1_555
H1_4 C5_3 1_555 1_555
C11_3 C6_3 1_555 1_555
H2_3 C7_3 1_555 1_555
C12_3 C8_2 1_555 1_555
H3_2 C9_2 1_555 1_555
H4_2 C10_2 1_555 1_555
C13_3 C11_3 1_555 1_555
C14_3 C11_3 1_555 1_555
C15_3 C12_3 1_555 1_555
C16_3 C12_3 1_555 1_555
H5_3 C13_3 1_555 1_555
C17_3 C13_3 1_555 1_555
C18_3 C14_3 1_555 1_555
H6_3 C14_3 1_555 1_555
H7_2 C15_3 1_555 1_555
C19_3 C15_3 1_555 1_555
C20_3 C16_3 1_555 1_555
H8_3 C16_3 1_555 1_555
H9_4 C17_3 1_555 1_555
N3_3 C17_3 1_555 1_555
H10_3 C18_3 1_555 1_555
H11_3 C19_3 1_555 1_555
C21_3 C19_3 1_555 1_555
H12_3 C20_3 1_555 1_555
Cl1_3 C21_3 1_555 1_555
Co2_3 N3_3 1_555 1_555
N8_3 Co1_6 1_555 1_555
C3_2 C8_2 1_555 1_555
C9_2 C10_2 1_555 1_555
C18_3 N3_3 1_555 1_555
C20_3 C21_3 1_555 1_555
N4 Co1_7 1_555 1_555
N5 Co1_7 1_555 1_555
C22_3 N4 1_555 1_555
C23 N4 1_555 1_555
C24 N5 1_555 1_555
C26_3 C22_3 1_555 1_555
C28 C23 1_555 1_555
C29 C23 1_555 1_555
C30 C24 1_555 1_555
C31 C25 1_555 1_555
H13_3 C26_3 1_555 1_555
C32_3 C27_3 1_555 1_555
H14 C28 1_555 1_555
C33 C29 1_555 1_555
H15 C30 1_555 1_555
H16 C31 1_555 1_555
C34_3 C32_3 1_555 1_555
C35_3 C32_3 1_555 1_555
C36 C33 1_555 1_555
C37 C33 1_555 1_555
H17_3 C34_3 1_555 1_555
C38_3 C34_3 1_555 1_555
C39_3 C35_3 1_555 1_555
H18_3 C35_3 1_555 1_555
H19 C36 1_555 1_555
C40 C36 1_555 1_555
C41 C37 1_555 1_555
H20 C37 1_555 1_555
H21_3 C38_3 1_555 1_555
N6_3 C38_3 1_555 1_555
H22_4 C39_3 1_555 1_555
H23 C40 1_555 1_555
C42 C40 1_555 1_555
H24 C41 1_555 1_555
Cl2 C42 1_555 1_555
Co3_3 N6_3 1_555 1_555
N7_3 Co1_7 1_555 1_555
N5 C25 1_555 1_555
C22_3 C27_3 1_555 1_555
C24 C29 1_555 1_555
C26_3 C28 1_555 1_555
C30 C31 1_555 1_555
C39_3 N6_3 1_555 1_555
C41 C42 1_555 1_555
Co2_3 N1_3 1_555 1_555
N1_3 C1_4 1_555 1_555
N2_3 Co2_3 1_555 1_555
C1_4 C5_4 1_555 1_555
C2_3 N1_3 1_555 1_555
C3_3 N2_3 1_555 1_555
C4_3 N2_3 1_555 1_555
C5_4 C7_4 1_555 1_555
C6_4 C1_4 1_555 1_555
C7_4 C2_3 1_555 1_555
C8_3 C2_3 1_555 1_555
C9_3 C3_3 1_555 1_555
C10_3 C4_3 1_555 1_555
H1_5 C5_4 1_555 1_555
C11_4 C6_4 1_555 1_555
H2_4 C7_4 1_555 1_555
C12_4 C8_3 1_555 1_555
H3_3 C9_3 1_555 1_555
H4_3 C10_3 1_555 1_555
C13_4 C11_4 1_555 1_555
C14_4 C11_4 1_555 1_555
C15_4 C12_4 1_555 1_555
C16_4 C12_4 1_555 1_555
H5_4 C13_4 1_555 1_555
C17_4 C13_4 1_555 1_555
C18_4 C14_4 1_555 1_555
H6_4 C14_4 1_555 1_555
H7_3 C15_4 1_555 1_555
C19_4 C15_4 1_555 1_555
H8_4 C16_4 1_555 1_555
H9_5 C17_4 1_555 1_555
N3_4 C17_4 1_555 1_555
H10_4 C18_4 1_555 1_555
H11_4 C19_4 1_555 1_555
C21_4 C19_4 1_555 1_555
N4_2 Co2_3 1_555 1_555
N5_2 Co2_3 1_555 1_555
C22_4 N4_2 1_555 1_555
C23_2 N4_2 1_555 1_555
C24_2 N5_2 1_555 1_555
C25_2 C6_4 1_555 1_555
C26_4 C22_4 1_555 1_555
C27_4 C4_3 1_555 1_555
C29_2 C23_2 1_555 1_555
C30_2 C24_2 1_555 1_555
C31_2 C25_2 1_555 1_555
C32_4 C27_4 1_555 1_555
H15_2 C30_2 1_555 1_555
H16_2 C31_2 1_555 1_555
C34_4 C32_4 1_555 1_555
C35_4 C32_4 1_555 1_555
H17_4 C34_4 1_555 1_555
C38_4 C34_4 1_555 1_555
C39_4 C35_4 1_555 1_555
H18_4 C35_4 1_555 1_555
N8_2 C38_4 1_555 1_555
Co3 N3_4 1_555 1_555
N8_4 Co2_3 1_555 1_555
C3_3 C8_3 1_555 1_555
C9_3 C10_3 1_555 1_555
C18_4 N3_4 1_555 1_555
N5_2 C25_2 1_555 1_555
C22_4 C27_4 1_555 1_555
C24_2 C29_2 1_555 1_555
C30_2 C31_2 1_555 1_555
C39_4 N8_2 1_555 1_555
C17_5 C13_5 1_555 1_555
C18_5 C14_5 1_555 1_555
H6_5 C14_5 1_555 1_555
H9_6 C17_5 1_555 1_555
N3_5 C17_5 1_555 1_555
H10_5 C18_5 1_555 1_555
Co3_2 N3_5 1_555 1_555
C18_5 N3_5 1_555 1_555
Co2 N1_4 1_555 1_555
N1_4 C1_5 1_555 1_555
N2_4 Co2 1_555 1_555
C1_5 C5_5 1_555 1_555
C2_4 N1_4 1_555 1_555
C3_4 N2_4 1_555 1_555
C4_4 N2_4 1_555 1_555
C5_5 C7_5 1_555 1_555
C6_5 C1_5 1_555 1_555
C7_5 C2_4 1_555 1_555
C8_4 C2_4 1_555 1_555
C9_4 C3_4 1_555 1_555
C10_4 C4_4 1_555 1_555
H1_6 C5_5 1_555 1_555
C11_5 C6_5 1_555 1_555
H2_5 C7_5 1_555 1_555
C12_5 C8_4 1_555 1_555
H3_4 C9_4 1_555 1_555
H4_4 C10_4 1_555 1_555
C15_5 C12_5 1_555 1_555
C16_5 C12_5 1_555 1_555
H7_4 C15_5 1_555 1_555
C19_5 C15_5 1_555 1_555
H8_5 C16_5 1_555 1_555
H11_5 C19_5 1_555 1_555
C21_5 C19_5 1_555 1_555
N4_3 Co2 1_555 1_555
N5_3 Co2 1_555 1_555
C22_5 N4_3 1_555 1_555
C23_3 N4_3 1_555 1_555
C24_3 N5_3 1_555 1_555
C25_3 C6_5 1_555 1_555
C26_5 C22_5 1_555 1_555
C27_5 C4_4 1_555 1_555
C29_3 C23_3 1_555 1_555
C30_3 C24_3 1_555 1_555
C31_3 C25_3 1_555 1_555
C32_5 C27_5 1_555 1_555
H15_3 C30_3 1_555 1_555
C34_5 C32_5 1_555 1_555
C35_5 C32_5 1_555 1_555
H17_5 C34_5 1_555 1_555
C38_5 C34_5 1_555 1_555
C39_5 C35_5 1_555 1_555
H18_5 C35_5 1_555 1_555
N8_3 C38_5 1_555 1_555
H22_5 C39_5 1_555 1_555
N8_5 Co2 1_555 1_555
C3_4 C8_4 1_555 1_555
C9_4 C10_4 1_555 1_555
N5_3 C25_3 1_555 1_555
C22_5 C27_5 1_555 1_555
C24_3 C29_3 1_555 1_555
C30_3 C31_3 1_555 1_555
C39_5 N8_3 1_555 1_555
H14_2 C28_2 1_555 1_555
C36_2 C33_2 1_555 1_555
C37_2 C33_2 1_555 1_555
C40_2 C36_2 1_555 1_555
C41_2 C37_2 1_555 1_555
H20_2 C37_2 1_555 1_555
H23_2 C40_2 1_555 1_555
C42_2 C40_2 1_555 1_555
H24_2 C41_2 1_555 1_555
Cl2_2 C42_2 1_555 1_555
C41_2 C42_2 1_555 1_555
Co2_2 N1_5 1_555 1_555
N1_5 C1_6 1_555 1_555
N2_5 Co2_2 1_555 1_555
C1_6 C5_6 1_555 1_555
C2_5 N1_5 1_555 1_555
C3_5 N2_5 1_555 1_555
C4_5 N2_5 1_555 1_555
C5_6 C7_6 1_555 1_555
C6_6 C1_6 1_555 1_555
C7_6 C2_5 1_555 1_555
C8_5 C2_5 1_555 1_555
C9_5 C3_5 1_555 1_555
C10_5 C4_5 1_555 1_555
H1_7 C5_6 1_555 1_555
C11_6 C6_6 1_555 1_555
H2_6 C7_6 1_555 1_555
C12_6 C8_5 1_555 1_555
H3_5 C9_5 1_555 1_555
H4_5 C10_5 1_555 1_555
C15_6 C12_6 1_555 1_555
C16_6 C12_6 1_555 1_555
H7_5 C15_6 1_555 1_555
C19_6 C15_6 1_555 1_555
H8_6 C16_6 1_555 1_555
H11_6 C19_6 1_555 1_555
C21_6 C19_6 1_555 1_555
N4_4 Co2_2 1_555 1_555
N5_4 Co2_2 1_555 1_555
C22_6 N4_4 1_555 1_555
C23_4 N4_4 1_555 1_555
C24_4 N5_4 1_555 1_555
C25_4 C6_6 1_555 1_555
C26_6 C22_6 1_555 1_555
C27_6 C4_5 1_555 1_555
C29_4 C23_4 1_555 1_555
C30_4 C24_4 1_555 1_555
C31_4 C25_4 1_555 1_555
C32_6 C27_6 1_555 1_555
H15_4 C30_4 1_555 1_555
C34_6 C32_6 1_555 1_555
C35_6 C32_6 1_555 1_555
H17_6 C34_6 1_555 1_555
C38_6 C34_6 1_555 1_555
C39_6 C35_6 1_555 1_555
H18_6 C35_6 1_555 1_555
N8 C38_6 1_555 1_555
N8_6 Co2_2 1_555 1_555
C3_5 C8_5 1_555 1_555
C9_5 C10_5 1_555 1_555
N5_4 C25_4 1_555 1_555
C22_6 C27_6 1_555 1_555
C24_4 C29_4 1_555 1_555
C30_4 C31_4 1_555 1_555
C39_6 N8 1_555 1_555
C17_6 C13_6 1_555 1_555
C18_6 C14_6 1_555 1_555
H6_6 C14_6 1_555 1_555
H9_7 C17_6 1_555 1_555
N3_6 C17_6 1_555 1_555
H10_6 C18_6 1_555 1_555
Co3_3 N3_6 1_555 1_555
C18_6 N3_6 1_555 1_555
Co3_3 N1_6 1_555 1_555
N1_6 C1_7 1_555 1_555
N2_6 Co3_3 1_555 1_555
C1_7 C5_7 1_555 1_555
C2_6 N1_6 1_555 1_555
C3_6 N2_6 1_555 1_555
C4_6 N2_6 1_555 1_555
C6_7 C1_7 1_555 1_555
C8_6 C2_6 1_555 1_555
C9_6 C3_6 1_555 1_555
C10_6 C4_6 1_555 1_555
C11_7 C6_7 1_555 1_555
H3_6 C9_6 1_555 1_555
H4_6 C10_6 1_555 1_555
C13_7 C11_7 1_555 1_555
C14_7 C11_7 1_555 1_555
H5_7 C13_7 1_555 1_555
C17_7 C13_7 1_555 1_555
C18_7 C14_7 1_555 1_555
H6_7 C14_7 1_555 1_555
N7_2 C17_7 1_555 1_555
N4_5 Co3_3 1_555 1_555
N5_5 Co3_3 1_555 1_555
C22_7 N4_5 1_555 1_555
C23_5 N4_5 1_555 1_555
C24_5 N5_5 1_555 1_555
C25_5 C6_7 1_555 1_555
C26_7 C22_7 1_555 1_555
C27_7 C4_6 1_555 1_555
C28_3 C23_5 1_555 1_555
C29_5 C23_5 1_555 1_555
C30_5 C24_5 1_555 1_555
C31_5 C25_5 1_555 1_555
H13_5 C26_7 1_555 1_555
C32_7 C27_7 1_555 1_555
H14_3 C28_3 1_555 1_555
C33_3 C29_5 1_555 1_555
H15_5 C30_5 1_555 1_555
H16_5 C31_5 1_555 1_555
C34_7 C32_7 1_555 1_555
C35_7 C32_7 1_555 1_555
C36_3 C33_3 1_555 1_555
C37_3 C33_3 1_555 1_555
H17_7 C34_7 1_555 1_555
C38_7 C34_7 1_555 1_555
C39_7 C35_7 1_555 1_555
H18_7 C35_7 1_555 1_555
H19_5 C36_3 1_555 1_555
C40_3 C36_3 1_555 1_555
H20_3 C37_3 1_555 1_555
H21_5 C38_7 1_555 1_555
N8_5 C38_7 1_555 1_555
H22_6 C39_7 1_555 1_555
H23_3 C40_3 1_555 1_555
C42_3 C40_3 1_555 1_555
C3_6 C8_6 1_555 1_555
C9_6 C10_6 1_555 1_555
C18_7 N7_2 1_555 1_555
N5_5 C25_5 1_555 1_555
C22_7 C27_7 1_555 1_555
C24_5 C29_5 1_555 1_555
C26_7 C28_3 1_555 1_555
C30_5 C31_5 1_555 1_555
C39_7 N8_5 1_555 1_555
H2_7 C7_7 1_555 1_555
C15_7 C12_7 1_555 1_555
C16_7 C12_7 1_555 1_555
C19_7 C15_7 1_555 1_555
C20_4 C16_7 1_555 1_555
H8_7 C16_7 1_555 1_555
H11_7 C19_7 1_555 1_555
C21_7 C19_7 1_555 1_555
H12_4 C20_4 1_555 1_555
Cl1_4 C21_7 1_555 1_555
C20_4 C21_7 1_555 1_555
Co3 N1_7 1_555 1_555
N1_7 C1_8 1_555 1_555
N2_7 Co3 1_555 1_555
C1_8 C5_8 1_555 1_555
C2_7 N1_7 1_555 1_555
C3_7 N2_7 1_555 1_555
C4_7 N2_7 1_555 1_555
C6_8 C1_8 1_555 1_555
C8_7 C2_7 1_555 1_555
C9_7 C3_7 1_555 1_555
C10_7 C4_7 1_555 1_555
C11_8 C6_8 1_555 1_555
H3_7 C9_7 1_555 1_555
C13_8 C11_8 1_555 1_555
C14_8 C11_8 1_555 1_555
H5_8 C13_8 1_555 1_555
C17_8 C13_8 1_555 1_555
C18_8 C14_8 1_555 1_555
H6_8 C14_8 1_555 1_555
N7_3 C17_8 1_555 1_555
H10_7 C18_8 1_555 1_555
N4_6 Co3 1_555 1_555
N5_6 Co3 1_555 1_555
C22_8 N4_6 1_555 1_555
C23_6 N4_6 1_555 1_555
C24_6 N5_6 1_555 1_555
C25_6 C6_8 1_555 1_555
C26_8 C22_8 1_555 1_555
C27_8 C4_7 1_555 1_555
C28_4 C23_6 1_555 1_555
C29_6 C23_6 1_555 1_555
C30_6 C24_6 1_555 1_555
C31_6 C25_6 1_555 1_555
H13_6 C26_8 1_555 1_555
C32_8 C27_8 1_555 1_555
H14_4 C28_4 1_555 1_555
C33_4 C29_6 1_555 1_555
H15_6 C30_6 1_555 1_555
H16_6 C31_6 1_555 1_555
C36_4 C33_4 1_555 1_555
C37_4 C33_4 1_555 1_555
H19_6 C36_4 1_555 1_555
C40_4 C36_4 1_555 1_555
H20_4 C37_4 1_555 1_555
H23_4 C40_4 1_555 1_555
C42_4 C40_4 1_555 1_555
C3_7 C8_7 1_555 1_555
C9_7 C10_7 1_555 1_555
C18_8 N7_3 1_555 1_555
N5_6 C25_6 1_555 1_555
C22_8 C27_8 1_555 1_555
C24_6 C29_6 1_555 1_555
C26_8 C28_4 1_555 1_555
C30_6 C31_6 1_555 1_555
C38_8 C34_8 1_555 1_555
C39_8 C35_8 1_555 1_555
H18_8 C35_8 1_555 1_555
H21_6 C38_8 1_555 1_555
N8_6 C38_8 1_555 1_555
H22_7 C39_8 1_555 1_555
C39_8 N8_6 1_555 1_555
C38_9 C34_9 1_555 1_555
C39_9 C35_9 1_555 1_555
H18_9 C35_9 1_555 1_555
H21_7 C38_9 1_555 1_555
N8_4 C38_9 1_555 1_555
H22_8 C39_9 1_555 1_555
C39_9 N8_4 1_555 1_555
Co3_2 N1_8 1_555 1_555
N1_8 C1_9 1_555 1_555
N2_8 Co3_2 1_555 1_555
C1_9 C5_9 1_555 1_555
C2_8 N1_8 1_555 1_555
C3_8 N2_8 1_555 1_555
C4_8 N2_8 1_555 1_555
C6_9 C1_9 1_555 1_555
C8_8 C2_8 1_555 1_555
C9_8 C3_8 1_555 1_555
C10_8 C4_8 1_555 1_555
C11_9 C6_9 1_555 1_555
H3_8 C9_8 1_555 1_555
C13_9 C11_9 1_555 1_555
C14_9 C11_9 1_555 1_555
H5_9 C13_9 1_555 1_555
C17_9 C13_9 1_555 1_555
C18_9 C14_9 1_555 1_555
H6_9 C14_9 1_555 1_555
N7 C17_9 1_555 1_555
N4_7 Co3_2 1_555 1_555
N5_7 Co3_2 1_555 1_555
C22_9 N4_7 1_555 1_555
C23_7 N4_7 1_555 1_555
C24_7 N5_7 1_555 1_555
C25_7 C6_9 1_555 1_555
C26_9 C22_9 1_555 1_555
C27_9 C4_8 1_555 1_555
C28_5 C23_7 1_555 1_555
C29_7 C23_7 1_555 1_555
C30_7 C24_7 1_555 1_555
C31_7 C25_7 1_555 1_555
H13_7 C26_9 1_555 1_555
C32_9 C27_9 1_555 1_555
H14_5 C28_5 1_555 1_555
C33_5 C29_7 1_555 1_555
H15_7 C30_7 1_555 1_555
H16_7 C31_7 1_555 1_555
C36_5 C33_5 1_555 1_555
C37_5 C33_5 1_555 1_555
H19_7 C36_5 1_555 1_555
C40_5 C36_5 1_555 1_555
H20_5 C37_5 1_555 1_555
H23_5 C40_5 1_555 1_555
C42_5 C40_5 1_555 1_555
C3_8 C8_8 1_555 1_555
C9_8 C10_8 1_555 1_555
C18_9 N7 1_555 1_555
N5_7 C25_7 1_555 1_555
C22_9 C27_9 1_555 1_555
C24_7 C29_7 1_555 1_555
C26_9 C28_5 1_555 1_555
C30_7 C31_7 1_555 1_555
N4_8 Co1_8 1_555 1_555
N5_8 Co1_8 1_555 1_555
C23_8 N4_8 1_555 1_555
C24_8 N5_8 1_555 1_555
C28_6 C23_8 1_555 1_555
C29_8 C23_8 1_555 1_555
C30_8 C24_8 1_555 1_555
C31_8 C25_8 1_555 1_555
H14_6 C28_6 1_555 1_555
C33_6 C29_8 1_555 1_555
H15_8 C30_8 1_555 1_555
H16_8 C31_8 1_555 1_555
C36_6 C33_6 1_555 1_555
C37_6 C33_6 1_555 1_555
H19_8 C36_6 1_555 1_555
C40_6 C36_6 1_555 1_555
C41_3 C37_6 1_555 1_555
H20_6 C37_6 1_555 1_555
H23_6 C40_6 1_555 1_555
C42_6 C40_6 1_555 1_555
H24_3 C41_3 1_555 1_555
Cl2_3 C42_6 1_555 1_555
N5_8 C25_8 1_555 1_555
C24_8 C29_8 1_555 1_555
C30_8 C31_8 1_555 1_555
C41_3 C42_6 1_555 1_555
H14_7 C28_7 1_555 1_555
C36_7 C33_7 1_555 1_555
C37_7 C33_7 1_555 1_555
C40_7 C36_7 1_555 1_555
C41_4 C37_7 1_555 1_555
H20_7 C37_7 1_555 1_555
H23_7 C40_7 1_555 1_555
C42_7 C40_7 1_555 1_555
H24_4 C41_4 1_555 1_555
Cl2_4 C42_7 1_555 1_555
C41_4 C42_7 1_555 1_555
N4_9 Co1_9 1_555 1_555
N5_9 Co1_9 1_555 1_555
C23_9 N4_9 1_555 1_555
C24_9 N5_9 1_555 1_555
C28_8 C23_9 1_555 1_555
C29_9 C23_9 1_555 1_555
C30_9 C24_9 1_555 1_555
C31_9 C25_9 1_555 1_555
H14_8 C28_8 1_555 1_555
C33_8 C29_9 1_555 1_555
H15_9 C30_9 1_555 1_555
H16_9 C31_9 1_555 1_555
C36_8 C33_8 1_555 1_555
C37_8 C33_8 1_555 1_555
H19_9 C36_8 1_555 1_555
C40_8 C36_8 1_555 1_555
C41_5 C37_8 1_555 1_555
H20_8 C37_8 1_555 1_555
H23_8 C40_8 1_555 1_555
C42_8 C40_8 1_555 1_555
H24_5 C41_5 1_555 1_555
Cl2_5 C42_8 1_555 1_555
N5_9 C25_9 1_555 1_555
C24_9 C29_9 1_555 1_555
C30_9 C31_9 1_555 1_555
C41_5 C42_8 1_555 1_555
H14_9 C28_9 1_555 1_555
C36_9 C33_9 1_555 1_555
C37_9 C33_9 1_555 1_555
C40_9 C36_9 1_555 1_555
C41_6 C37_9 1_555 1_555
H20_9 C37_9 1_555 1_555
H23_9 C40_9 1_555 1_555
C42_9 C40_9 1_555 1_555
H24_6 C41_6 1_555 1_555
Cl2_6 C42_9 1_555 1_555
C41_6 C42_9 1_555 1_555
Co1_10 N1_9 1_555 1_555
N2_9 Co1_10 1_555 1_555
C2_9 N1_9 1_555 1_555
C3_9 N2_9 1_555 1_555
C4_9 N2_9 1_555 1_555
C7_8 C2_9 1_555 1_555
C8_9 C2_9 1_555 1_555
C9_9 C3_9 1_555 1_555
C10_9 C4_9 1_555 1_555
H2_8 C7_8 1_555 1_555
C12_8 C8_9 1_555 1_555
H3_9 C9_9 1_555 1_555
H4_9 C10_9 1_555 1_555
C15_8 C12_8 1_555 1_555
C16_8 C12_8 1_555 1_555
H7_9 C15_8 1_555 1_555
C19_8 C15_8 1_555 1_555
C20_5 C16_8 1_555 1_555
H8_8 C16_8 1_555 1_555
H11_8 C19_8 1_555 1_555
C21_8 C19_8 1_555 1_555
H12_5 C20_5 1_555 1_555
Cl1_5 C21_8 1_555 1_555
C3_9 C8_9 1_555 1_555
C9_9 C10_9 1_555 1_555
C20_5 C21_8 1_555 1_555
H2_9 C7_9 1_555 1_555
C15_9 C12_9 1_555 1_555
C16_9 C12_9 1_555 1_555
C19_9 C15_9 1_555 1_555
C20_6 C16_9 1_555 1_555
H8_9 C16_9 1_555 1_555
H11_9 C19_9 1_555 1_555
C21_9 C19_9 1_555 1_555
H12_6 C20_6 1_555 1_555
Cl1_6 C21_9 1_555 1_555
C20_6 C21_9 1_555 1_555
H12_7 C20_7 1_555 1_555
H12_8 C20_8 1_555 1_555
H12_9 C20_9 1_555 1_555
H24_7 C41_7 1_555 1_555
H24_8 C41_8 1_555 1_555
H24_9 C41_9 1_555 1_555

#END
