
###############################################################################
#
# This file contains modified crystal structure data generated from the
# MOF subset of the Cambridge Structural Database (CSD) v543 
# hosted by the Cambridge Crystallographic Data Centre (CCDC).
#
# This work is licensed under the Creative Commons
# Attribution-NonCommercial-ShareAlike 4.0 International License.
# To view a copy of this license, visit
# http://creativecommons.org/licenses/by-nc-sa/4.0/
# or send a letter to
# Creative Commons, PO Box 1866, Mountain View, CA 94042, USA.
#
# CIF created using the CSD Python API on 29 September 2022
# The structure has been converted into the P1 space group
# The structure has a 3D framework
# The original CSD entry MUNDEG is in the hexagonal crystal system
# The framework has been calculated to contain at least 10.0% void space
# The void calculation uses a probe of radius 1.32A, grid spacing 0.4
# H atom positions have been added when not included in the experimental data
# Generated hydrogen atom positions removed from atoms on special positions
#
###############################################################################

data_MUNDEG
_chemical_formula_moiety         '(C168 H156 Cu28 I15 N16 O60)n'
_symmetry_cell_setting           triclinic
_symmetry_space_group_name_H-M   'P 1'
_symmetry_Int_Tables_number      1
_space_group_name_Hall           'P 1'
loop_
_symmetry_equiv_pos_site_id
_symmetry_equiv_pos_as_xyz
1 x,y,z
_cell_length_a                   27.538(4)
_cell_length_b                   27.538(4)
_cell_length_c                   20.139(4)
_cell_angle_alpha                90
_cell_angle_beta                 90
_cell_angle_gamma                120
_cell_volume                     13226.1
loop_
_atom_site_label
_atom_site_type_symbol
_atom_site_fract_x
_atom_site_fract_y
_atom_site_fract_z
O15 O 0.31321(21) 0.04092(14) 0.68097(17)
O16 O 0.39667(21) 0.04542(15) 0.68229(19)
C45 C 0.3478(4) 0.0264(2) 0.6624(3)
Cu23 Cu 0.33287(3) 0.09844(4) 0.7500
Cu29 Cu 0.43117(3) 0.10236(4) 0.7500
I1 I 0.22672(2) 0.63420(2) 0.54931(2)
I2 I 0.3333 0.6667 0.36496(3)
Cu1 Cu 0.28777(3) 0.60524(3) 0.47476(4)
Cu2 Cu 0.3333 0.6667 0.58258(6)
Cu3 Cu 0.23443(3) 0.33287(3) 0.2500
Cu4 Cu 0.32881(3) 0.43117(3) 0.2500
O1 O 0.21137(14) 0.36887(14) 0.31983(16)
O2 O 0.29103(15) 0.45132(14) 0.31759(17)
O5 O 0.1582(2) 0.2548(2) 0.2500
O6 O 0.4049(2) 0.5157(3) 0.2500
N1 N 0.23769(19) 0.52387(18) 0.4501(2)
N2 N 0.3333 0.6667 0.6854(4)
C1 C 0.2515(2) 0.4981(2) 0.4032(2)
H1 H 0.2836 0.5199 0.3781
C2 C 0.2208(2) 0.4410(2) 0.3900(2)
C3 C 0.1737(2) 0.4080(2) 0.4275(2)
H2 H 0.1525 0.3696 0.4200
C4 C 0.1585(2) 0.4333(2) 0.4770(3)
C5 C 0.1917(2) 0.4905(3) 0.4857(3)
H3 H 0.1815 0.5072 0.5188
C6 C 0.2423(2) 0.4178(2) 0.3384(2)
C7 C 0.1079(2) 0.4023(2) 0.5203(3)
C8 C 0.0929(2) 0.3493(3) 0.5420(3)
H4 H 0.1120 0.3315 0.5271
C9 C 0.0479(2) 0.3223(2) 0.5871(3)
H5 H 0.0371 0.2861 0.6014
C10 C 0.0196(2) 0.3488(2) 0.6108(3)
C11 C 0.0336(3) 0.4008(3) 0.5858(3)
H6 H 0.0136 0.4182 0.5989
C12 C 0.0776(3) 0.4271(3) 0.5410(3)
H7 H 0.0868 0.4622 0.5245
C14 C 0.3901(2) 0.6864(3) 0.7115(3)
H8 H 0.4152 0.7241 0.6955
H9 H 0.4038 0.6622 0.6955
C15 C 0.3136(3) 0.7037(4) 0.7115(3)
H10 H 0.2759 0.6911 0.6955
H11 H 0.3378 0.7416 0.6955
C16 C 0.2963(4) 0.6099(2) 0.7115(3)
H12 H 0.3089 0.5848 0.6955
H13 H 0.2584 0.5962 0.6955
N3 N 0.3333 0.6667 0.8146(4)
C17 C 0.3901(2) 0.6864(3) 0.7885(3)
H14 H 0.4152 0.7241 0.8045
H15 H 0.4038 0.6622 0.8045
C18 C 0.3136(3) 0.7037(4) 0.7885(3)
H16 H 0.2759 0.6911 0.8045
H17 H 0.3378 0.7416 0.8045
C19 C 0.2963(4) 0.6099(2) 0.7885(3)
H18 H 0.3089 0.5848 0.8045
H19 H 0.2584 0.5962 0.8045
I3 I 0.36580(2) 0.59252(3) 0.54931(2)
Cu5 Cu 0.39476(3) 0.68253(4) 0.47476(4)
Cu6 Cu 0.66713(3) 0.90156(4) 0.2500
Cu7 Cu 0.56883(3) 0.89764(4) 0.2500
O7 O 0.63113(14) 0.84250(20) 0.31983(16)
O8 O 0.54868(14) 0.83971(21) 0.31759(17)
O9 O 0.72771(15) 0.68679(21) 0.68097(17)
O10 O 0.64875(15) 0.60333(21) 0.68229(19)
O11 O 0.7452(2) 0.9034(3) 0.2500
O12 O 0.4843(3) 0.8892(4) 0.2500
N4 N 0.47613(18) 0.71382(26) 0.4501(2)
C20 C 0.5019(2) 0.7534(3) 0.4032(2)
H20 H 0.4801 0.7637 0.3781
C21 C 0.5590(2) 0.7798(3) 0.3900(2)
C22 C 0.5920(2) 0.7657(3) 0.4275(2)
H21 H 0.6304 0.7829 0.4200
C23 C 0.5667(2) 0.7252(3) 0.4770(3)
C24 C 0.5095(3) 0.7012(4) 0.4857(3)
H22 H 0.4928 0.6743 0.5188
C25 C 0.5822(2) 0.8245(3) 0.3384(2)
C26 C 0.5977(2) 0.7056(3) 0.5203(3)
C27 C 0.6507(3) 0.7436(4) 0.5420(3)
H23 H 0.6685 0.7805 0.5271
C28 C 0.6777(2) 0.7256(3) 0.5871(3)
H24 H 0.7139 0.7510 0.6014
C29 C 0.6512(2) 0.6708(3) 0.6108(3)
C30 C 0.5992(3) 0.6328(4) 0.5858(3)
H25 H 0.5818 0.5954 0.5989
C31 C 0.5729(3) 0.6505(4) 0.5410(3)
H26 H 0.5378 0.6246 0.5245
C32 C 0.6786(3) 0.6522(4) 0.6624(3)
I4 I 0.40748(3) 0.77328(2) 0.54931(2)
Cu8 Cu 0.31747(4) 0.71223(3) 0.47476(4)
Cu9 Cu 0.09844(4) 0.76557(3) 0.2500
Cu10 Cu 0.10236(4) 0.67119(3) 0.2500
O13 O 0.15750(20) 0.78863(14) 0.31983(16)
O14 O 0.16029(21) 0.70897(15) 0.31759(17)
O17 O 0.0966(3) 0.8418(2) 0.2500
O18 O 0.1108(4) 0.5951(2) 0.2500
N5 N 0.28618(26) 0.76231(19) 0.4501(2)
C33 C 0.2466(3) 0.7485(2) 0.4032(2)
H27 H 0.2363 0.7164 0.3781
C34 C 0.2202(3) 0.7792(2) 0.3900(2)
C35 C 0.2343(3) 0.8263(2) 0.4275(2)
H28 H 0.2171 0.8475 0.4200
C36 C 0.2748(3) 0.8415(2) 0.4770(3)
C37 C 0.2988(4) 0.8083(2) 0.4857(3)
H29 H 0.3257 0.8185 0.5188
C38 C 0.1755(3) 0.7577(2) 0.3384(2)
C39 C 0.2944(3) 0.8921(2) 0.5203(3)
C40 C 0.2564(4) 0.9071(2) 0.5420(3)
H30 H 0.2195 0.8880 0.5271
C41 C 0.2744(3) 0.9521(2) 0.5871(3)
H31 H 0.2490 0.9629 0.6014
C42 C 0.3292(3) 0.9804(2) 0.6108(3)
C43 C 0.3672(4) 0.9664(3) 0.5858(3)
H32 H 0.4046 0.9864 0.5989
C44 C 0.3495(4) 0.9224(3) 0.5410(3)
H33 H 0.3754 0.9132 0.5245
O21 O 0.04092(14) 0.72771(15) 0.31903(17)
O22 O 0.04542(15) 0.64875(15) 0.31771(19)
C58 C 0.0264(2) 0.6786(3) 0.3376(3)
I7 I 0.63420(2) 0.40748(3) 0.45069(2)
Cu13 Cu 0.60524(3) 0.31747(4) 0.52524(4)
O23 O 0.36887(14) 0.15750(20) 0.68017(16)
O24 O 0.45132(14) 0.16029(21) 0.68241(17)
O25 O 0.27229(15) 0.31321(21) 0.31903(17)
O26 O 0.35125(15) 0.39667(21) 0.31771(19)
N7 N 0.52387(18) 0.28618(26) 0.5499(2)
C59 C 0.4981(2) 0.2466(3) 0.5968(2)
H41 H 0.5199 0.2363 0.6219
C60 C 0.4410(2) 0.2202(3) 0.6100(2)
C61 C 0.4080(2) 0.2343(3) 0.5725(2)
H42 H 0.3696 0.2171 0.5800
C62 C 0.4333(2) 0.2748(3) 0.5230(3)
C63 C 0.4905(3) 0.2988(4) 0.5143(3)
H43 H 0.5072 0.3257 0.4812
C64 C 0.4178(2) 0.1755(3) 0.6616(2)
C65 C 0.4023(2) 0.2944(3) 0.4797(3)
C66 C 0.3493(3) 0.2564(4) 0.4580(3)
H44 H 0.3315 0.2195 0.4729
C67 C 0.3223(2) 0.2744(3) 0.4129(3)
H45 H 0.2861 0.2490 0.3986
C68 C 0.3488(2) 0.3292(3) 0.3892(3)
C69 C 0.4008(3) 0.3672(4) 0.4142(3)
H46 H 0.4182 0.4046 0.4011
C70 C 0.4271(3) 0.3495(4) 0.4590(3)
H47 H 0.4622 0.3754 0.4755
C71 C 0.3214(3) 0.3478(4) 0.3376(3)
I10 I 0.59252(3) 0.22672(2) 0.45069(2)
I11 I 0.6667 0.3333 0.63504(3)
Cu15 Cu 0.71223(3) 0.39476(3) 0.52524(4)
Cu17 Cu 0.6667 0.3333 0.41742(6)
Cu18 Cu 0.3333 0.6667 0.91742(6)
Cu21 Cu 0.76557(3) 0.66713(3) 0.7500
Cu27 Cu 0.67119(3) 0.56883(3) 0.7500
O31 O 0.21137(14) 0.36887(14) 0.18017(16)
O32 O 0.63113(14) 0.84250(20) 0.18017(16)
O33 O 0.15750(20) 0.78863(14) 0.18017(16)
O34 O 0.29103(15) 0.45132(14) 0.18241(17)
O35 O 0.54868(14) 0.83971(21) 0.18241(17)
O36 O 0.16029(21) 0.70897(15) 0.18241(17)
O37 O 0.04092(14) 0.72771(15) 0.18097(17)
O38 O 0.27229(15) 0.31321(21) 0.18097(17)
O39 O 0.68679(21) 0.95908(14) 0.18097(17)
O40 O 0.68679(21) 0.95908(14) 0.31903(17)
O41 O 0.04542(15) 0.64875(15) 0.18229(19)
O42 O 0.35125(15) 0.39667(21) 0.18229(19)
O43 O 0.60333(21) 0.95458(15) 0.18229(19)
O44 O 0.60333(21) 0.95458(15) 0.31771(19)
O3 O 0.95908(14) 0.27229(15) 0.68097(17)
O4 O 0.95458(15) 0.35125(15) 0.68229(19)
C13 C 0.9736(2) 0.3214(3) 0.6624(3)
I5 I 0.77328(2) 0.36580(2) 0.45069(2)
O19 O 0.78863(14) 0.63113(14) 0.68017(16)
O20 O 0.70897(15) 0.54868(14) 0.68241(17)
N6 N 0.76231(19) 0.47613(18) 0.5499(2)
C46 C 0.7485(2) 0.5019(2) 0.5968(2)
H34 H 0.7164 0.4801 0.6219
C47 C 0.7792(2) 0.5590(2) 0.6100(2)
C48 C 0.8263(2) 0.5920(2) 0.5725(2)
H35 H 0.8475 0.6304 0.5800
C49 C 0.8415(2) 0.5667(2) 0.5230(3)
C50 C 0.8083(2) 0.5095(3) 0.5143(3)
H36 H 0.8185 0.4928 0.4812
C51 C 0.7577(2) 0.5822(2) 0.6616(2)
C52 C 0.8921(2) 0.5977(2) 0.4797(3)
C53 C 0.9071(2) 0.6507(3) 0.4580(3)
H37 H 0.8880 0.6685 0.4729
C54 C 0.9521(2) 0.6777(2) 0.4129(3)
H38 H 0.9629 0.7139 0.3986
C55 C 0.9804(2) 0.6512(2) 0.3892(3)
C56 C 0.9664(3) 0.5992(3) 0.4142(3)
H39 H 0.9864 0.5818 0.4011
C57 C 0.9224(3) 0.5729(3) 0.4590(3)
H40 H 0.9132 0.5378 0.4755
Cu14 Cu 0.68253(4) 0.28777(3) 0.52524(4)
O27 O 0.84250(20) 0.21137(14) 0.68017(16)
O28 O 0.83971(21) 0.29103(15) 0.68241(17)
N8 N 0.71382(26) 0.23769(19) 0.5499(2)
C72 C 0.7534(3) 0.2515(2) 0.5968(2)
H48 H 0.7637 0.2836 0.6219
C73 C 0.7798(3) 0.2208(2) 0.6100(2)
C74 C 0.7657(3) 0.1737(2) 0.5725(2)
H49 H 0.7829 0.1525 0.5800
C75 C 0.7252(3) 0.1585(2) 0.5230(3)
C76 C 0.7012(4) 0.1917(2) 0.5143(3)
H50 H 0.6743 0.1815 0.4812
C77 C 0.8245(3) 0.2423(2) 0.6616(2)
C78 C 0.7056(3) 0.1079(2) 0.4797(3)
C79 C 0.7436(4) 0.0929(2) 0.4580(3)
H51 H 0.7805 0.1120 0.4729
C80 C 0.7256(3) 0.0479(2) 0.4129(3)
H52 H 0.7510 0.0371 0.3986
C81 C 0.6708(3) 0.0196(2) 0.3892(3)
C82 C 0.6328(4) 0.0336(3) 0.4142(3)
H53 H 0.5954 0.0136 0.4011
C83 C 0.6505(4) 0.0776(3) 0.4590(3)
H54 H 0.6246 0.0868 0.4755
Cu24 Cu 0.90156(4) 0.23443(3) 0.7500
Cu30 Cu 0.89764(4) 0.32881(3) 0.7500
N9 N 0.6667 0.3333 0.3146(4)
C84 C 0.6522(4) 0.9736(2) 0.3376(3)
O29 O 0.31321(21) 0.04092(14) 0.81903(17)
O30 O 0.39667(21) 0.04542(15) 0.81771(19)
C84_2 C 0.3478(4) 0.0264(2) 0.8376(3)
C13_2 C 0.0264(2) 0.6786(3) 0.1624(3)
I6 I 0.3333 0.6667 0.13504(3)
Cu11 Cu 0.28777(3) 0.60524(3) 0.02524(4)
N6_2 N 0.23769(19) 0.52387(18) 0.0499(2)
C46_2 C 0.2515(2) 0.4981(2) 0.0968(2)
H34_2 H 0.2836 0.5199 0.1219
C47_2 C 0.2208(2) 0.4410(2) 0.1100(2)
C48_2 C 0.1737(2) 0.4080(2) 0.0725(2)
H35_2 H 0.1525 0.3696 0.0800
C49_2 C 0.1585(2) 0.4333(2) 0.0230(3)
C50_2 C 0.1917(2) 0.4905(3) 0.0143(3)
C51_2 C 0.2423(2) 0.4178(2) 0.1616(2)
Cu14_2 Cu 0.31747(4) 0.71223(3) 0.02524(4)
N8_2 N 0.28618(26) 0.76231(19) 0.0499(2)
C72_2 C 0.2466(3) 0.7485(2) 0.0968(2)
H48_2 H 0.2363 0.7164 0.1219
C73_2 C 0.2202(3) 0.7792(2) 0.1100(2)
C74_2 C 0.2343(3) 0.8263(2) 0.0725(2)
H49_2 H 0.2171 0.8475 0.0800
C75_2 C 0.2748(3) 0.8415(2) 0.0230(3)
C76_2 C 0.2988(4) 0.8083(2) 0.0143(3)
C77_2 C 0.1755(3) 0.7577(2) 0.1616(2)
Cu16 Cu 0.39476(3) 0.68253(4) 0.02524(4)
I5_2 I 0.22672(2) 0.63420(2) 0.95069(2)
H36_2 H 0.1815 0.5072 0.9812
C52_2 C 0.1079(2) 0.4023(2) 0.9797(3)
C53_2 C 0.0929(2) 0.3493(3) 0.9580(3)
H37_2 H 0.1120 0.3315 0.9729
C54_2 C 0.0479(2) 0.3223(2) 0.9129(3)
H38_2 H 0.0371 0.2861 0.8986
C55_2 C 0.0196(2) 0.3488(2) 0.8892(3)
C56_2 C 0.0336(3) 0.4008(3) 0.9142(3)
H39_2 H 0.0136 0.4182 0.9011
C57_2 C 0.0776(3) 0.4271(3) 0.9590(3)
H40_2 H 0.0868 0.4622 0.9755
I8 I 0.40748(3) 0.77328(2) 0.95069(2)
H50_2 H 0.3257 0.8185 0.9812
C78_2 C 0.2944(3) 0.8921(2) 0.9797(3)
C79_2 C 0.2564(4) 0.9071(2) 0.9580(3)
H51_2 H 0.2195 0.8880 0.9729
C80_2 C 0.2744(3) 0.9521(2) 0.9129(3)
H52_2 H 0.2490 0.9629 0.8986
C81_2 C 0.3292(3) 0.9804(2) 0.8892(3)
C82_2 C 0.3672(4) 0.9664(3) 0.9142(3)
H53_2 H 0.4046 0.9864 0.9011
C83_2 C 0.3495(4) 0.9224(3) 0.9590(3)
H54_2 H 0.3754 0.9132 0.9755
I9 I 0.36580(2) 0.59252(3) 0.95069(2)
I1_2 I 0.77328(2) 0.36580(2) 0.04931(2)
Cu2_2 Cu 0.6667 0.3333 0.08258(6)
N2_2 N 0.6667 0.3333 0.1854(4)
H3_2 H 0.8185 0.4928 0.0188
C7_2 C 0.8921(2) 0.5977(2) 0.0203(3)
C8_2 C 0.9071(2) 0.6507(3) 0.0420(3)
H4_2 H 0.8880 0.6685 0.0271
C9_2 C 0.9521(2) 0.6777(2) 0.0871(3)
H5_2 H 0.9629 0.7139 0.1014
C10_2 C 0.9804(2) 0.6512(2) 0.1108(3)
C11_2 C 0.9664(3) 0.5992(3) 0.0858(3)
H6_2 H 0.9864 0.5818 0.0989
C12_2 C 0.9224(3) 0.5729(3) 0.0410(3)
H7_2 H 0.9132 0.5378 0.0245
C14_2 C 0.6099(2) 0.3136(3) 0.2115(3)
H8_2 H 0.5848 0.2759 0.1955
H9_2 H 0.5962 0.3378 0.1955
C15_2 C 0.6864(3) 0.2963(4) 0.2115(3)
H10_2 H 0.7241 0.3089 0.1955
H11_2 H 0.6622 0.2584 0.1955
C16_2 C 0.7037(4) 0.3901(2) 0.2115(3)
H12_2 H 0.6911 0.4152 0.1955
H13_2 H 0.7416 0.4038 0.1955
C17_2 C 0.6099(2) 0.3136(3) 0.2885(3)
H14_2 H 0.5848 0.2759 0.3045
H15_2 H 0.5962 0.3378 0.3045
C18_2 C 0.6864(3) 0.2963(4) 0.2885(3)
H16_2 H 0.7241 0.3089 0.3045
H17_2 H 0.6622 0.2584 0.3045
C19_2 C 0.7037(4) 0.3901(2) 0.2885(3)
H18_2 H 0.6911 0.4152 0.3045
H19_2 H 0.7416 0.4038 0.3045
I3_2 I 0.63420(2) 0.40748(3) 0.04931(2)
H22_2 H 0.5072 0.3257 0.0188
C26_2 C 0.4023(2) 0.2944(3) 0.0203(3)
C27_2 C 0.3493(3) 0.2564(4) 0.0420(3)
H23_2 H 0.3315 0.2195 0.0271
C28_2 C 0.3223(2) 0.2744(3) 0.0871(3)
H24_2 H 0.2861 0.2490 0.1014
C29_2 C 0.3488(2) 0.3292(3) 0.1108(3)
C30_2 C 0.4008(3) 0.3672(4) 0.0858(3)
H25_2 H 0.4182 0.4046 0.0989
C31_2 C 0.4271(3) 0.3495(4) 0.0410(3)
H26_2 H 0.4622 0.3754 0.0245
C32_2 C 0.3214(3) 0.3478(4) 0.1624(3)
I4_2 I 0.59252(3) 0.22672(2) 0.04931(2)
H29_2 H 0.6743 0.1815 0.0188
C39_2 C 0.7056(3) 0.1079(2) 0.0203(3)
C40_2 C 0.7436(4) 0.0929(2) 0.0420(3)
H30_2 H 0.7805 0.1120 0.0271
C41_2 C 0.7256(3) 0.0479(2) 0.0871(3)
H31_2 H 0.7510 0.0371 0.1014
C42_2 C 0.6708(3) 0.0196(2) 0.1108(3)
C43_2 C 0.6328(4) 0.0336(3) 0.0858(3)
H32_2 H 0.5954 0.0136 0.0989
C44_2 C 0.6505(4) 0.0776(3) 0.0410(3)
H33_2 H 0.6246 0.0868 0.0245
N7_2 N 0.47613(18) 0.71382(26) 0.0499(2)
C59_2 C 0.5019(2) 0.7534(3) 0.0968(2)
H41_2 H 0.4801 0.7637 0.1219
C60_2 C 0.5590(2) 0.7798(3) 0.1100(2)
C61_2 C 0.5920(2) 0.7657(3) 0.0725(2)
H42_2 H 0.6304 0.7829 0.0800
C62_2 C 0.5667(2) 0.7252(3) 0.0230(3)
C63_2 C 0.5095(3) 0.7012(4) 0.0143(3)
C64_2 C 0.5822(2) 0.8245(3) 0.1616(2)
I2_2 I 0.6667 0.3333 0.86496(3)
Cu1_2 Cu 0.71223(3) 0.39476(3) 0.97476(4)
O1_2 O 0.78863(14) 0.63113(14) 0.81983(16)
O2_2 O 0.70897(15) 0.54868(14) 0.81759(17)
O5_2 O 0.8418(2) 0.7452(2) 0.7500
O6_2 O 0.5951(2) 0.4843(3) 0.7500
N1_2 N 0.76231(19) 0.47613(18) 0.9501(2)
C1_2 C 0.7485(2) 0.5019(2) 0.9032(2)
H1_2 H 0.7164 0.4801 0.8781
C2_2 C 0.7792(2) 0.5590(2) 0.8900(2)
C3_2 C 0.8263(2) 0.5920(2) 0.9275(2)
H2_2 H 0.8475 0.6304 0.9200
C4_2 C 0.8415(2) 0.5667(2) 0.9770(3)
C5_2 C 0.8083(2) 0.5095(3) 0.9857(3)
C6_2 C 0.7577(2) 0.5822(2) 0.8384(2)
Cu5_2 Cu 0.60524(3) 0.31747(4) 0.97476(4)
O7_2 O 0.36887(14) 0.15750(20) 0.81983(16)
O8_2 O 0.45132(14) 0.16029(21) 0.81759(17)
O11_2 O 0.2548(2) 0.0966(3) 0.7500
O12_2 O 0.5157(3) 0.1108(4) 0.7500
N4_2 N 0.52387(18) 0.28618(26) 0.9501(2)
C20_2 C 0.4981(2) 0.2466(3) 0.9032(2)
H20_2 H 0.5199 0.2363 0.8781
C21_2 C 0.4410(2) 0.2202(3) 0.8900(2)
C22_2 C 0.4080(2) 0.2343(3) 0.9275(2)
H21_2 H 0.3696 0.2171 0.9200
C23_2 C 0.4333(2) 0.2748(3) 0.9770(3)
C24_2 C 0.4905(3) 0.2988(4) 0.9857(3)
C25_2 C 0.4178(2) 0.1755(3) 0.8384(2)
Cu8_2 Cu 0.68253(4) 0.28777(3) 0.97476(4)
O13_2 O 0.84250(20) 0.21137(14) 0.81983(16)
O14_2 O 0.83971(21) 0.29103(15) 0.81759(17)
O17_2 O 0.9034(3) 0.1582(2) 0.7500
O18_2 O 0.8892(4) 0.4049(2) 0.7500
N5_2 N 0.71382(26) 0.23769(19) 0.9501(2)
C33_2 C 0.7534(3) 0.2515(2) 0.9032(2)
H27_2 H 0.7637 0.2836 0.8781
C34_2 C 0.7798(3) 0.2208(2) 0.8900(2)
C35_2 C 0.7657(3) 0.1737(2) 0.9275(2)
H28_2 H 0.7829 0.1525 0.9200
C36_2 C 0.7252(3) 0.1585(2) 0.9770(3)
C37_2 C 0.7012(4) 0.1917(2) 0.9857(3)
C38_2 C 0.8245(3) 0.2423(2) 0.8384(2)
O21_2 O 0.95908(14) 0.27229(15) 0.81903(17)
O22_2 O 0.95458(15) 0.35125(15) 0.81771(19)
C58_2 C 0.9736(2) 0.3214(3) 0.8376(3)
O25_2 O 0.72771(15) 0.68679(21) 0.81903(17)
O26_2 O 0.64875(15) 0.60333(21) 0.81771(19)
H43_2 H 0.4928 0.6743 0.9812
C65_2 C 0.5977(2) 0.7056(3) 0.9797(3)
C66_2 C 0.6507(3) 0.7436(4) 0.9580(3)
H44_2 H 0.6685 0.7805 0.9729
C67_2 C 0.6777(2) 0.7256(3) 0.9129(3)
H45_2 H 0.7139 0.7510 0.8986
C68_2 C 0.6512(2) 0.6708(3) 0.8892(3)
C69_2 C 0.5992(3) 0.6328(4) 0.9142(3)
H46_2 H 0.5818 0.5954 0.9011
C70_2 C 0.5729(3) 0.6505(4) 0.9590(3)
H47_2 H 0.5378 0.6246 0.9755
C71_2 C 0.6786(3) 0.6522(4) 0.8376(3)
C45_2 C 0.6522(4) 0.9736(2) 0.1624(3)
loop_
_geom_bond_atom_site_label_1
_geom_bond_atom_site_label_2
_geom_bond_site_symmetry_1
_geom_bond_site_symmetry_2
O15 C45 1_555 1_555
O16 C45 1_555 1_555
Cu23 O15 1_555 1_555
Cu29 O16 1_555 1_555
I1 Cu1 1_555 1_555
I2 Cu1 1_555 1_555
Cu1 N1 1_555 1_555
Cu2 I1 1_555 1_555
Cu3 O1 1_555 1_555
Cu4 O2 1_555 1_555
O1 C6 1_555 1_555
O2 C6 1_555 1_555
O5 Cu3 1_555 1_555
O6 Cu4 1_555 1_555
N1 C1 1_555 1_555
N2 Cu2 1_555 1_555
C1 H1 1_555 1_555
C2 C1 1_555 1_555
C3 C2 1_555 1_555
H2 C3 1_555 1_555
C4 C3 1_555 1_555
C5 N1 1_555 1_555
H3 C5 1_555 1_555
C6 C2 1_555 1_555
C7 C4 1_555 1_555
C8 C7 1_555 1_555
H4 C8 1_555 1_555
C9 C8 1_555 1_555
H5 C9 1_555 1_555
C10 C9 1_555 1_555
C11 C10 1_555 1_555
H6 C11 1_555 1_555
C12 C7 1_555 1_555
H7 C12 1_555 1_555
C14 N2 1_555 1_555
H8 C14 1_555 1_555
H9 C14 1_555 1_555
C15 N2 1_555 1_555
H10 C15 1_555 1_555
H11 C15 1_555 1_555
C16 N2 1_555 1_555
H12 C16 1_555 1_555
H13 C16 1_555 1_555
N3 C17 1_555 1_555
C17 C14 1_555 1_555
H14 C17 1_555 1_555
H15 C17 1_555 1_555
C18 C15 1_555 1_555
H16 C18 1_555 1_555
H17 C18 1_555 1_555
C19 C16 1_555 1_555
H18 C19 1_555 1_555
H19 C19 1_555 1_555
I3 Cu1 1_555 1_555
Cu5 I2 1_555 1_555
Cu6 O7 1_555 1_555
Cu7 O8 1_555 1_555
O7 C25 1_555 1_555
O8 C25 1_555 1_555
O9 C32 1_555 1_555
O10 C32 1_555 1_555
O11 Cu6 1_555 1_555
O12 Cu7 1_555 1_555
N4 Cu5 1_555 1_555
C20 N4 1_555 1_555
H20 C20 1_555 1_555
C21 C20 1_555 1_555
C22 C21 1_555 1_555
H21 C22 1_555 1_555
C23 C22 1_555 1_555
C24 N4 1_555 1_555
H22 C24 1_555 1_555
C25 C21 1_555 1_555
C26 C23 1_555 1_555
C27 C26 1_555 1_555
H23 C27 1_555 1_555
C28 C27 1_555 1_555
H24 C28 1_555 1_555
C29 C28 1_555 1_555
C30 C29 1_555 1_555
H25 C30 1_555 1_555
C31 C26 1_555 1_555
H26 C31 1_555 1_555
C32 C29 1_555 1_555
I4 Cu2 1_555 1_555
Cu8 I1 1_555 1_555
Cu9 O13 1_555 1_555
Cu10 O14 1_555 1_555
O13 C38 1_555 1_555
O14 C38 1_555 1_555
O17 Cu9 1_555 1_555
O18 Cu10 1_555 1_555
N5 Cu8 1_555 1_555
C33 N5 1_555 1_555
H27 C33 1_555 1_555
C34 C33 1_555 1_555
C35 C34 1_555 1_555
H28 C35 1_555 1_555
C36 C35 1_555 1_555
C37 N5 1_555 1_555
H29 C37 1_555 1_555
C38 C34 1_555 1_555
C39 C36 1_555 1_555
C40 C39 1_555 1_555
H30 C40 1_555 1_555
C41 C40 1_555 1_555
H31 C41 1_555 1_555
C42 C41 1_555 1_555
C43 C42 1_555 1_555
H32 C43 1_555 1_555
C44 C39 1_555 1_555
H33 C44 1_555 1_555
O21 Cu9 1_555 1_555
O22 Cu10 1_555 1_555
C58 O21 1_555 1_555
I7 Cu13 1_555 1_555
Cu13 N7 1_555 1_555
O23 C64 1_555 1_555
O24 C64 1_555 1_555
O25 Cu3 1_555 1_555
O26 Cu4 1_555 1_555
N7 C59 1_555 1_555
C59 H41 1_555 1_555
C60 C59 1_555 1_555
C61 C60 1_555 1_555
H42 C61 1_555 1_555
C62 C61 1_555 1_555
C63 N7 1_555 1_555
H43 C63 1_555 1_555
C64 C60 1_555 1_555
C65 C62 1_555 1_555
C66 C65 1_555 1_555
H44 C66 1_555 1_555
C67 C66 1_555 1_555
H45 C67 1_555 1_555
C68 C67 1_555 1_555
C69 C68 1_555 1_555
H46 C69 1_555 1_555
C70 C65 1_555 1_555
H47 C70 1_555 1_555
C71 O25 1_555 1_555
I10 Cu13 1_555 1_555
I11 Cu13 1_555 1_555
Cu15 I7 1_555 1_555
Cu17 I7 1_555 1_555
Cu18 N3 1_555 1_555
Cu21 O9 1_555 1_555
Cu23 O23 1_555 1_555
Cu27 O10 1_555 1_555
Cu29 O24 1_555 1_555
O31 Cu3 1_555 1_555
O32 Cu6 1_555 1_555
O33 Cu9 1_555 1_555
O34 Cu4 1_555 1_555
O35 Cu7 1_555 1_555
O36 Cu10 1_555 1_555
O37 Cu9 1_555 1_555
O38 Cu3 1_555 1_555
O39 Cu6 1_555 1_555
O40 Cu6 1_555 1_555
O41 Cu10 1_555 1_555
O42 Cu4 1_555 1_555
O43 Cu7 1_555 1_555
O44 Cu7 1_555 1_555
I2 Cu8 1_555 1_555
Cu2 I3 1_555 1_555
C4 C5 1_555 1_555
C11 C12 1_555 1_555
N3 C18 1_555 1_555
N3 C19 1_555 1_555
I3 Cu5 1_555 1_555
Cu5 I4 1_555 1_555
C23 C24 1_555 1_555
C30 C31 1_555 1_555
I4 Cu8 1_555 1_555
C36 C37 1_555 1_555
C43 C44 1_555 1_555
O22 C58 1_555 1_555
O26 C71 1_555 1_555
C62 C63 1_555 1_555
C68 C71 1_555 1_555
C69 C70 1_555 1_555
I10 Cu17 1_555 1_555
I11 Cu15 1_555 1_555
O3 C13 1_555 1_555
O4 C13 1_555 1_555
I5 Cu15 1_555 1_555
Cu15 N6 1_555 1_555
Cu17 I5 1_555 1_555
O19 C51 1_555 1_555
O20 C51 1_555 1_555
N6 C46 1_555 1_555
C46 H34 1_555 1_555
C47 C46 1_555 1_555
C48 C47 1_555 1_555
H35 C48 1_555 1_555
C49 C48 1_555 1_555
C50 N6 1_555 1_555
H36 C50 1_555 1_555
C51 C47 1_555 1_555
C52 C49 1_555 1_555
C53 C52 1_555 1_555
H37 C53 1_555 1_555
C54 C53 1_555 1_555
H38 C54 1_555 1_555
C55 C54 1_555 1_555
C56 C55 1_555 1_555
H39 C56 1_555 1_555
C57 C52 1_555 1_555
H40 C57 1_555 1_555
Cu14 I5 1_555 1_555
O27 C77 1_555 1_555
O28 C77 1_555 1_555
N8 Cu14 1_555 1_555
C72 N8 1_555 1_555
H48 C72 1_555 1_555
C73 C72 1_555 1_555
C74 C73 1_555 1_555
H49 C74 1_555 1_555
C75 C74 1_555 1_555
C76 N8 1_555 1_555
H50 C76 1_555 1_555
C77 C73 1_555 1_555
C78 C75 1_555 1_555
C79 C78 1_555 1_555
H51 C79 1_555 1_555
C80 C79 1_555 1_555
H52 C80 1_555 1_555
C81 C80 1_555 1_555
C82 C81 1_555 1_555
H53 C82 1_555 1_555
C83 C78 1_555 1_555
H54 C83 1_555 1_555
Cu21 O19 1_555 1_555
Cu24 O3 1_555 1_555
Cu27 O20 1_555 1_555
Cu30 O4 1_555 1_555
N9 Cu17 1_555 1_555
I11 Cu14 1_555 1_555
C49 C50 1_555 1_555
C56 C57 1_555 1_555
I10 Cu14 1_555 1_555
O27 Cu24 1_555 1_555
O28 Cu30 1_555 1_555
C75 C76 1_555 1_555
C82 C83 1_555 1_555
O40 C84 1_555 1_555
O44 C84 1_555 1_555
O29 C84_2 1_555 1_555
O30 C84_2 1_555 1_555
Cu23 O29 1_555 1_555
Cu29 O30 1_555 1_555
O37 C13_2 1_555 1_555
O41 C13_2 1_555 1_555
I6 Cu11 1_555 1_555
Cu11 N6_2 1_555 1_555
O31 C51_2 1_555 1_555
O34 C51_2 1_555 1_555
N6_2 C46_2 1_555 1_555
C46_2 H34_2 1_555 1_555
C47_2 C46_2 1_555 1_555
C48_2 C47_2 1_555 1_555
H35_2 C48_2 1_555 1_555
C49_2 C48_2 1_555 1_555
C50_2 N6_2 1_555 1_555
C51_2 C47_2 1_555 1_555
O33 C77_2 1_555 1_555
O36 C77_2 1_555 1_555
N8_2 Cu14_2 1_555 1_555
C72_2 N8_2 1_555 1_555
H48_2 C72_2 1_555 1_555
C73_2 C72_2 1_555 1_555
C74_2 C73_2 1_555 1_555
H49_2 C74_2 1_555 1_555
C75_2 C74_2 1_555 1_555
C76_2 N8_2 1_555 1_555
C77_2 C73_2 1_555 1_555
Cu16 I6 1_555 1_555
I6 Cu14_2 1_555 1_555
C49_2 C50_2 1_555 1_555
C75_2 C76_2 1_555 1_555
Cu18 I5_2 1_555 1_555
C53_2 C52_2 1_555 1_555
H37_2 C53_2 1_555 1_555
C54_2 C53_2 1_555 1_555
H38_2 C54_2 1_555 1_555
C55_2 C54_2 1_555 1_555
C56_2 C55_2 1_555 1_555
H39_2 C56_2 1_555 1_555
C57_2 C52_2 1_555 1_555
H40_2 C57_2 1_555 1_555
I8 Cu18 1_555 1_555
C79_2 C78_2 1_555 1_555
H51_2 C79_2 1_555 1_555
C80_2 C79_2 1_555 1_555
H52_2 C80_2 1_555 1_555
C81_2 C80_2 1_555 1_555
C82_2 C81_2 1_555 1_555
H53_2 C82_2 1_555 1_555
C83_2 C78_2 1_555 1_555
H54_2 C83_2 1_555 1_555
Cu18 I9 1_555 1_555
C56_2 C57_2 1_555 1_555
C82_2 C83_2 1_555 1_555
Cu2_2 I1_2 1_555 1_555
N2_2 Cu2_2 1_555 1_555
C8_2 C7_2 1_555 1_555
H4_2 C8_2 1_555 1_555
C9_2 C8_2 1_555 1_555
H5_2 C9_2 1_555 1_555
C10_2 C9_2 1_555 1_555
C11_2 C10_2 1_555 1_555
H6_2 C11_2 1_555 1_555
C12_2 C7_2 1_555 1_555
H7_2 C12_2 1_555 1_555
C14_2 N2_2 1_555 1_555
H8_2 C14_2 1_555 1_555
H9_2 C14_2 1_555 1_555
C15_2 N2_2 1_555 1_555
H10_2 C15_2 1_555 1_555
H11_2 C15_2 1_555 1_555
C16_2 N2_2 1_555 1_555
H12_2 C16_2 1_555 1_555
H13_2 C16_2 1_555 1_555
N9 C17_2 1_555 1_555
C17_2 C14_2 1_555 1_555
H14_2 C17_2 1_555 1_555
H15_2 C17_2 1_555 1_555
C18_2 C15_2 1_555 1_555
H16_2 C18_2 1_555 1_555
H17_2 C18_2 1_555 1_555
C19_2 C16_2 1_555 1_555
H18_2 C19_2 1_555 1_555
H19_2 C19_2 1_555 1_555
O38 C32_2 1_555 1_555
O42 C32_2 1_555 1_555
C27_2 C26_2 1_555 1_555
H23_2 C27_2 1_555 1_555
C28_2 C27_2 1_555 1_555
H24_2 C28_2 1_555 1_555
C29_2 C28_2 1_555 1_555
C30_2 C29_2 1_555 1_555
H25_2 C30_2 1_555 1_555
C31_2 C26_2 1_555 1_555
H26_2 C31_2 1_555 1_555
C32_2 C29_2 1_555 1_555
I4_2 Cu2_2 1_555 1_555
C40_2 C39_2 1_555 1_555
H30_2 C40_2 1_555 1_555
C41_2 C40_2 1_555 1_555
H31_2 C41_2 1_555 1_555
C42_2 C41_2 1_555 1_555
C43_2 C42_2 1_555 1_555
H32_2 C43_2 1_555 1_555
C44_2 C39_2 1_555 1_555
H33_2 C44_2 1_555 1_555
Cu16 N7_2 1_555 1_555
O32 C64_2 1_555 1_555
O35 C64_2 1_555 1_555
N7_2 C59_2 1_555 1_555
C59_2 H41_2 1_555 1_555
C60_2 C59_2 1_555 1_555
C61_2 C60_2 1_555 1_555
H42_2 C61_2 1_555 1_555
C62_2 C61_2 1_555 1_555
C63_2 N7_2 1_555 1_555
C64_2 C60_2 1_555 1_555
Cu2_2 I3_2 1_555 1_555
C11_2 C12_2 1_555 1_555
N9 C18_2 1_555 1_555
N9 C19_2 1_555 1_555
C30_2 C31_2 1_555 1_555
C43_2 C44_2 1_555 1_555
C62_2 C63_2 1_555 1_555
I2_2 Cu1_2 1_555 1_555
Cu1_2 N1_2 1_555 1_555
Cu21 O1_2 1_555 1_555
Cu27 O2_2 1_555 1_555
O1_2 C6_2 1_555 1_555
O2_2 C6_2 1_555 1_555
O5_2 Cu21 1_555 1_555
O6_2 Cu27 1_555 1_555
N1_2 C1_2 1_555 1_555
C1_2 H1_2 1_555 1_555
C2_2 C1_2 1_555 1_555
C3_2 C2_2 1_555 1_555
H2_2 C3_2 1_555 1_555
C4_2 C3_2 1_555 1_555
C5_2 N1_2 1_555 1_555
C6_2 C2_2 1_555 1_555
Cu5_2 I2_2 1_555 1_555
Cu23 O7_2 1_555 1_555
Cu29 O8_2 1_555 1_555
O7_2 C25_2 1_555 1_555
O8_2 C25_2 1_555 1_555
O11_2 Cu23 1_555 1_555
O12_2 Cu29 1_555 1_555
N4_2 Cu5_2 1_555 1_555
C20_2 N4_2 1_555 1_555
H20_2 C20_2 1_555 1_555
C21_2 C20_2 1_555 1_555
C22_2 C21_2 1_555 1_555
H21_2 C22_2 1_555 1_555
C23_2 C22_2 1_555 1_555
C24_2 N4_2 1_555 1_555
C25_2 C21_2 1_555 1_555
Cu24 O13_2 1_555 1_555
Cu30 O14_2 1_555 1_555
O13_2 C38_2 1_555 1_555
O14_2 C38_2 1_555 1_555
O17_2 Cu24 1_555 1_555
O18_2 Cu30 1_555 1_555
N5_2 Cu8_2 1_555 1_555
C33_2 N5_2 1_555 1_555
H27_2 C33_2 1_555 1_555
C34_2 C33_2 1_555 1_555
C35_2 C34_2 1_555 1_555
H28_2 C35_2 1_555 1_555
C36_2 C35_2 1_555 1_555
C37_2 N5_2 1_555 1_555
C38_2 C34_2 1_555 1_555
O21_2 Cu24 1_555 1_555
O22_2 Cu30 1_555 1_555
C58_2 O21_2 1_555 1_555
O25_2 Cu21 1_555 1_555
O26_2 Cu27 1_555 1_555
C66_2 C65_2 1_555 1_555
H44_2 C66_2 1_555 1_555
C67_2 C66_2 1_555 1_555
H45_2 C67_2 1_555 1_555
C68_2 C67_2 1_555 1_555
C69_2 C68_2 1_555 1_555
H46_2 C69_2 1_555 1_555
C70_2 C65_2 1_555 1_555
H47_2 C70_2 1_555 1_555
C71_2 O25_2 1_555 1_555
I2_2 Cu8_2 1_555 1_555
C4_2 C5_2 1_555 1_555
C23_2 C24_2 1_555 1_555
C36_2 C37_2 1_555 1_555
O22_2 C58_2 1_555 1_555
O26_2 C71_2 1_555 1_555
C68_2 C71_2 1_555 1_555
C69_2 C70_2 1_555 1_555
O39 C45_2 1_555 1_555
O43 C45_2 1_555 1_555

#END
