
###############################################################################
#
# This file contains modified crystal structure data generated from the
# MOF subset of the Cambridge Structural Database (CSD) v543 
# hosted by the Cambridge Crystallographic Data Centre (CCDC).
#
# This work is licensed under the Creative Commons
# Attribution-NonCommercial-ShareAlike 4.0 International License.
# To view a copy of this license, visit
# http://creativecommons.org/licenses/by-nc-sa/4.0/
# or send a letter to
# Creative Commons, PO Box 1866, Mountain View, CA 94042, USA.
#
# CIF created using the CSD Python API on 29 September 2022
# The structure has been converted into the P1 space group
# The structure has a 3D framework
# The original CSD entry MUNDOQ is in the hexagonal crystal system
# The framework has been calculated to contain at least 10.0% void space
# The void calculation uses a probe of radius 1.32A, grid spacing 0.4
# H atom positions have been added when not included in the experimental data
# Generated hydrogen atom positions removed from atoms on special positions
#
###############################################################################

data_MUNDOQ
_chemical_formula_moiety         '(C156 H132 Cu27 I15 N12 O62)n'
_symmetry_cell_setting           triclinic
_symmetry_space_group_name_H-M   'P 1'
_symmetry_Int_Tables_number      1
_space_group_name_Hall           'P 1'
loop_
_symmetry_equiv_pos_site_id
_symmetry_equiv_pos_as_xyz
1 x,y,z
_cell_length_a                   28.135(4)
_cell_length_b                   28.135(4)
_cell_length_c                   19.200(4)
_cell_angle_alpha                90
_cell_angle_beta                 90
_cell_angle_gamma                120
_cell_volume                     13162.1
loop_
_atom_site_label
_atom_site_type_symbol
_atom_site_fract_x
_atom_site_fract_y
_atom_site_fract_z
O16 O 0.7252(4) 0.0482(3) 0.3204(4)
O17 O 0.6475(4) 0.0531(3) 0.3197(4)
C39 C 0.6769(7) 0.0343(4) 0.3384(5)
I7 I 0.63105(5) 0.22853(3) 0.57619(5)
Cu13 Cu 0.60453(8) 0.29146(6) 0.50191(7)
O24 O 0.3786(4) 0.2151(3) 0.3240(3)
O25 O 0.4600(4) 0.2942(3) 0.3209(3)
N5 N 0.5263(5) 0.2423(4) 0.4710(5)
C53 C 0.5037(6) 0.2567(4) 0.4183(5)
H29 H 0.5263 0.2884 0.3930
C54 C 0.4486(6) 0.2264(4) 0.4005(5)
C55 C 0.4153(6) 0.1765(4) 0.4362(5)
H30 H 0.3781 0.1552 0.4258
C56 C 0.4378(6) 0.1608(4) 0.4842(6)
C57 C 0.4918(7) 0.1946(5) 0.5052(6)
H31 H 0.5049 0.1845 0.5436
C58 C 0.4254(6) 0.2456(5) 0.3442(5)
C59 C 0.4070(7) 0.1090(5) 0.5284(6)
C60 C 0.3530(7) 0.0892(5) 0.5478(7)
H32 H 0.3344 0.1068 0.5324
C61 C 0.3262(7) 0.0429(5) 0.5903(6)
H33 H 0.2901 0.0305 0.6039
C62 C 0.3520(7) 0.0153(5) 0.6123(6)
C63 C 0.4032(7) 0.0325(5) 0.5918(6)
H34 H 0.4201 0.0127 0.6047
C64 C 0.4321(7) 0.0796(5) 0.5512(6)
H35 H 0.4684 0.0916 0.5391
I9 I 0.59748(4) 0.36895(5) 0.57619(5)
I11 I 0.6667 0.3333 0.38741(7)
Cu15 Cu 0.70854(6) 0.31307(6) 0.50191(7)
Cu17 Cu 0.6667 0.3333 0.62045(17)
Cu21 Cu 0.76203(6) 0.10568(6) 0.2500
Cu24 Cu 0.34365(8) 0.23797(6) 0.2500
Cu27 Cu 0.67005(6) 0.10996(6) 0.2500
Cu30 Cu 0.43991(8) 0.32995(6) 0.2500
I1 I 0.22853(3) 0.59748(4) 0.42381(5)
I2 I 0.3333 0.6667 0.61259(7)
Cu1 Cu 0.29146(6) 0.68693(6) 0.49809(7)
Cu2 Cu 0.3333 0.6667 0.37955(17)
Cu3 Cu 0.23797(6) 0.89432(6) 0.7500
Cu4 Cu 0.32995(6) 0.89004(6) 0.7500
O1 O 0.2151(3) 0.8365(3) 0.6760(3)
O2 O 0.2942(3) 0.8342(3) 0.6791(3)
O5 O 0.3333 0.6667 0.2500
O6 O 0.1619(5) 0.8948(5) 0.7500
O7 O 0.4051(4) 0.8859(5) 0.7500
N1 N 0.2423(4) 0.7160(3) 0.5290(5)
C1 C 0.2567(4) 0.7530(4) 0.5817(5)
H1 H 0.2884 0.7621 0.6070
C2 C 0.2264(4) 0.7778(4) 0.5995(5)
C3 C 0.1765(4) 0.7612(4) 0.5638(5)
H2 H 0.1552 0.7771 0.5742
C4 C 0.1608(4) 0.7230(4) 0.5158(6)
C5 C 0.1946(5) 0.7028(5) 0.4948(6)
H3 H 0.1845 0.6796 0.4564
C6 C 0.2456(5) 0.8202(4) 0.6558(5)
C7 C 0.1090(5) 0.7020(5) 0.4716(6)
C8 C 0.0892(5) 0.7362(5) 0.4522(7)
H4 H 0.1068 0.7724 0.4676
C9 C 0.0429(5) 0.7167(5) 0.4097(6)
H5 H 0.0305 0.7404 0.3961
C10 C 0.0153(5) 0.6633(5) 0.3877(6)
C11 C 0.0325(5) 0.6293(5) 0.4082(6)
H6 H 0.0127 0.5926 0.3953
C12 C 0.0796(5) 0.6475(5) 0.4488(6)
H7 H 0.0916 0.6232 0.4609
I3 I 0.40252(4) 0.63105(5) 0.42381(5)
Cu5 Cu 0.31307(6) 0.60453(8) 0.49809(7)
Cu6 Cu 0.10568(6) 0.34365(8) 0.7500
Cu7 Cu 0.10996(6) 0.43991(8) 0.7500
O8 O 0.1635(3) 0.3786(4) 0.6760(3)
O9 O 0.1658(3) 0.4600(4) 0.6791(3)
O10 O 0.3230(3) 0.2748(4) 0.3204(4)
O11 O 0.4056(3) 0.3525(4) 0.3197(4)
O12 O 0.1052(5) 0.2671(7) 0.7500
O13 O 0.1141(5) 0.5192(6) 0.7500
N2 N 0.2840(3) 0.5263(5) 0.5290(5)
C14 C 0.2470(4) 0.5037(6) 0.5817(5)
H8 H 0.2379 0.5263 0.6070
C15 C 0.2222(4) 0.4486(6) 0.5995(5)
C16 C 0.2388(4) 0.4153(6) 0.5638(5)
H9 H 0.2229 0.3781 0.5742
C17 C 0.2770(4) 0.4378(6) 0.5158(6)
C18 C 0.2972(5) 0.4918(7) 0.4948(6)
H10 H 0.3204 0.5049 0.4564
C19 C 0.1798(4) 0.4254(6) 0.6558(5)
C20 C 0.2980(5) 0.4070(7) 0.4716(6)
C21 C 0.2638(5) 0.3530(7) 0.4522(7)
H11 H 0.2276 0.3344 0.4676
C22 C 0.2833(5) 0.3262(7) 0.4097(6)
H12 H 0.2596 0.2901 0.3961
C23 C 0.3367(5) 0.3520(7) 0.3877(6)
C24 C 0.3707(5) 0.4032(7) 0.4082(6)
H13 H 0.4074 0.4201 0.3953
C25 C 0.3525(5) 0.4321(7) 0.4488(6)
H14 H 0.3768 0.4684 0.4609
C26 C 0.3574(6) 0.3231(7) 0.3384(5)
I4 I 0.36895(5) 0.77147(3) 0.42381(5)
Cu8 Cu 0.39547(8) 0.70854(6) 0.49809(7)
Cu9 Cu 0.65635(8) 0.76203(6) 0.7500
Cu10 Cu 0.56009(8) 0.67005(6) 0.7500
O14 O 0.6214(4) 0.7849(3) 0.6760(3)
O15 O 0.5400(4) 0.7058(3) 0.6791(3)
O18 O 0.7329(7) 0.8381(5) 0.7500
O19 O 0.4808(6) 0.5949(4) 0.7500
N3 N 0.4737(5) 0.7577(4) 0.5290(5)
C27 C 0.4963(6) 0.7433(4) 0.5817(5)
H15 H 0.4737 0.7116 0.6070
C28 C 0.5514(6) 0.7736(4) 0.5995(5)
C29 C 0.5847(6) 0.8235(4) 0.5638(5)
H16 H 0.6219 0.8448 0.5742
C30 C 0.5622(6) 0.8392(4) 0.5158(6)
C31 C 0.5082(7) 0.8054(5) 0.4948(6)
H17 H 0.4951 0.8155 0.4564
C32 C 0.5746(6) 0.7544(5) 0.6558(5)
C33 C 0.5930(7) 0.8910(5) 0.4716(6)
C34 C 0.6470(7) 0.9108(5) 0.4522(7)
H18 H 0.6656 0.8932 0.4676
C35 C 0.6738(7) 0.9571(5) 0.4097(6)
H19 H 0.7099 0.9695 0.3961
C36 C 0.6480(7) 0.9847(5) 0.3877(6)
C37 C 0.5968(7) 0.9675(5) 0.4082(6)
H20 H 0.5799 0.9873 0.3953
C38 C 0.5679(7) 0.9204(5) 0.4488(6)
H21 H 0.5316 0.9084 0.4609
O26 O 0.2748(4) 0.9518(3) 0.6796(4)
O27 O 0.3525(4) 0.9469(3) 0.6803(4)
C65 C 0.3231(7) 0.9657(4) 0.6616(5)
O30 O 0.0482(3) 0.3230(3) 0.6796(4)
O31 O 0.0531(3) 0.4056(3) 0.6803(4)
C78 C 0.0343(4) 0.3574(6) 0.6616(5)
Cu18 Cu 0.3333 0.6667 0.12045(17)
O32 O 0.2151(3) 0.8365(3) 0.8240(3)
O33 O 0.1635(3) 0.3786(4) 0.8240(3)
O34 O 0.6214(4) 0.7849(3) 0.8240(3)
O35 O 0.2942(3) 0.8342(3) 0.8209(3)
O36 O 0.1658(3) 0.4600(4) 0.8209(3)
O37 O 0.5400(4) 0.7058(3) 0.8209(3)
O38 O 0.0482(3) 0.3230(3) 0.8204(4)
O39 O 0.6770(3) 0.7252(4) 0.8204(4)
O40 O 0.2748(4) 0.9518(3) 0.8204(4)
O41 O 0.6770(3) 0.7252(4) 0.6796(4)
O42 O 0.0531(3) 0.4056(3) 0.8197(4)
O43 O 0.5944(3) 0.6475(4) 0.8197(4)
O44 O 0.3525(4) 0.9469(3) 0.8197(4)
O45 O 0.5944(3) 0.6475(4) 0.6803(4)
O3 O 0.9518(3) 0.6770(3) 0.3204(4)
O4 O 0.9469(3) 0.5944(3) 0.3197(4)
C13 C 0.9657(4) 0.6426(6) 0.3384(5)
Cu11 Cu 0.68693(6) 0.39547(8) 0.50191(7)
O20 O 0.8365(3) 0.6214(4) 0.3240(3)
O21 O 0.8342(3) 0.5400(4) 0.3209(3)
N4 N 0.7160(3) 0.4737(5) 0.4710(5)
C40 C 0.7530(4) 0.4963(6) 0.4183(5)
H22 H 0.7621 0.4737 0.3930
C41 C 0.7778(4) 0.5514(6) 0.4005(5)
C42 C 0.7612(4) 0.5847(6) 0.4362(5)
H23 H 0.7771 0.6219 0.4258
C43 C 0.7230(4) 0.5622(6) 0.4842(6)
C44 C 0.7028(5) 0.5082(7) 0.5052(6)
H24 H 0.6796 0.4951 0.5436
C45 C 0.8202(4) 0.5746(6) 0.3442(5)
C46 C 0.7020(5) 0.5930(7) 0.5284(6)
C47 C 0.7362(5) 0.6470(7) 0.5478(7)
H25 H 0.7724 0.6656 0.5324
C48 C 0.7167(5) 0.6738(7) 0.5903(6)
H26 H 0.7404 0.7099 0.6039
C49 C 0.6633(5) 0.6480(7) 0.6123(6)
C50 C 0.6293(5) 0.5968(7) 0.5918(6)
H27 H 0.5926 0.5799 0.6047
C51 C 0.6475(5) 0.5679(7) 0.5512(6)
H28 H 0.6232 0.5316 0.5391
C52 C 0.6426(6) 0.6769(7) 0.6616(5)
I8 I 0.77147(3) 0.40252(4) 0.57619(5)
O28 O 0.7849(3) 0.1635(3) 0.3240(3)
O29 O 0.7058(3) 0.1658(3) 0.3209(3)
N6 N 0.7577(4) 0.2840(3) 0.4710(5)
C66 C 0.7433(4) 0.2470(4) 0.4183(5)
H36 H 0.7116 0.2379 0.3930
C67 C 0.7736(4) 0.2222(4) 0.4005(5)
C68 C 0.8235(4) 0.2388(4) 0.4362(5)
H37 H 0.8448 0.2229 0.4258
C69 C 0.8392(4) 0.2770(4) 0.4842(6)
C70 C 0.8054(5) 0.2972(5) 0.5052(6)
H38 H 0.8155 0.3204 0.5436
C71 C 0.7544(5) 0.1798(4) 0.3442(5)
C72 C 0.8910(5) 0.2980(5) 0.5284(6)
C73 C 0.9108(5) 0.2638(5) 0.5478(7)
H39 H 0.8932 0.2276 0.5324
C74 C 0.9571(5) 0.2833(5) 0.5903(6)
H40 H 0.9695 0.2596 0.6039
C75 C 0.9847(5) 0.3367(5) 0.6123(6)
C76 C 0.9675(5) 0.3707(5) 0.5918(6)
H41 H 0.9873 0.4074 0.6047
C77 C 0.9204(5) 0.3525(5) 0.5512(6)
H42 H 0.9084 0.3768 0.5391
Cu22 Cu 0.89432(6) 0.65635(8) 0.2500
Cu28 Cu 0.89004(6) 0.56009(8) 0.2500
O46 O 0.6667 0.3333 0.7500
I5 I 0.40252(4) 0.63105(5) 0.07619(5)
Cu11_2 Cu 0.31307(6) 0.60453(8) 0.00191(7)
O22 O 0.3230(3) 0.2748(4) 0.1796(4)
O23 O 0.4056(3) 0.3525(4) 0.1803(4)
C44_2 C 0.2972(5) 0.4918(7) 0.0052(6)
H24_2 H 0.3204 0.5049 0.0436
C46_2 C 0.2980(5) 0.4070(7) 0.0284(6)
C47_2 C 0.2638(5) 0.3530(7) 0.0478(7)
H25_2 H 0.2276 0.3344 0.0324
C48_2 C 0.2833(5) 0.3262(7) 0.0903(6)
H26_2 H 0.2596 0.2901 0.1039
C49_2 C 0.3367(5) 0.3520(7) 0.1123(6)
C50_2 C 0.3707(5) 0.4032(7) 0.0918(6)
H27_2 H 0.4074 0.4201 0.1047
C51_2 C 0.3525(5) 0.4321(7) 0.0512(6)
H28_2 H 0.3768 0.4684 0.0391
C52_2 C 0.3574(6) 0.3231(7) 0.1616(5)
I8_2 I 0.22853(3) 0.59748(4) 0.07619(5)
Cu14 Cu 0.29146(6) 0.68693(6) 0.00191(7)
C70_2 C 0.1946(5) 0.7028(5) 0.0052(6)
H38_2 H 0.1845 0.6796 0.0436
C72_2 C 0.1090(5) 0.7020(5) 0.0284(6)
C73_2 C 0.0892(5) 0.7362(5) 0.0478(7)
H39_2 H 0.1068 0.7724 0.0324
C74_2 C 0.0429(5) 0.7167(5) 0.0903(6)
H40_2 H 0.0305 0.7404 0.1039
C75_2 C 0.0153(5) 0.6633(5) 0.1123(6)
C76_2 C 0.0325(5) 0.6293(5) 0.0918(6)
H41_2 H 0.0127 0.5926 0.1047
C77_2 C 0.0796(5) 0.6475(5) 0.0512(6)
H42_2 H 0.0916 0.6232 0.0391
I10 I 0.36895(5) 0.77147(3) 0.07619(5)
Cu16 Cu 0.39547(8) 0.70854(6) 0.00191(7)
C13_2 C 0.0343(4) 0.3574(6) 0.8384(5)
I6 I 0.3333 0.6667 0.88741(7)
N4_2 N 0.2840(3) 0.5263(5) 0.9710(5)
C40_2 C 0.2470(4) 0.5037(6) 0.9183(5)
H22_2 H 0.2379 0.5263 0.8930
C41_2 C 0.2222(4) 0.4486(6) 0.9005(5)
C42_2 C 0.2388(4) 0.4153(6) 0.9362(5)
H23_2 H 0.2229 0.3781 0.9258
C43_2 C 0.2770(4) 0.4378(6) 0.9842(6)
C45_2 C 0.1798(4) 0.4254(6) 0.8442(5)
N6_2 N 0.2423(4) 0.7160(3) 0.9710(5)
C66_2 C 0.2567(4) 0.7530(4) 0.9183(5)
H36_2 H 0.2884 0.7621 0.8930
C67_2 C 0.2264(4) 0.7778(4) 0.9005(5)
C68_2 C 0.1765(4) 0.7612(4) 0.9362(5)
H37_2 H 0.1552 0.7771 0.9258
C69_2 C 0.1608(4) 0.7230(4) 0.9842(6)
C71_2 C 0.2456(5) 0.8202(4) 0.8442(5)
I2_2 I 0.6667 0.3333 0.11259(7)
O1_2 O 0.7849(3) 0.1635(3) 0.1760(3)
O2_2 O 0.7058(3) 0.1658(3) 0.1791(3)
O6_2 O 0.8381(5) 0.1052(5) 0.2500
O7_2 O 0.5949(4) 0.1141(5) 0.2500
N1_2 N 0.7577(4) 0.2840(3) 0.0290(5)
C1_2 C 0.7433(4) 0.2470(4) 0.0817(5)
H1_2 H 0.7116 0.2379 0.1070
C2_2 C 0.7736(4) 0.2222(4) 0.0995(5)
C3_2 C 0.8235(4) 0.2388(4) 0.0638(5)
H2_2 H 0.8448 0.2229 0.0742
C4_2 C 0.8392(4) 0.2770(4) 0.0158(6)
C6_2 C 0.7544(5) 0.1798(4) 0.1558(5)
O8_2 O 0.8365(3) 0.6214(4) 0.1760(3)
O9_2 O 0.8342(3) 0.5400(4) 0.1791(3)
O12_2 O 0.8948(5) 0.7329(7) 0.2500
O13_2 O 0.8859(5) 0.4808(6) 0.2500
N2_2 N 0.7160(3) 0.4737(5) 0.0290(5)
C14_2 C 0.7530(4) 0.4963(6) 0.0817(5)
H8_2 H 0.7621 0.4737 0.1070
C15_2 C 0.7778(4) 0.5514(6) 0.0995(5)
C16_2 C 0.7612(4) 0.5847(6) 0.0638(5)
H9_2 H 0.7771 0.6219 0.0742
C17_2 C 0.7230(4) 0.5622(6) 0.0158(6)
C19_2 C 0.8202(4) 0.5746(6) 0.1558(5)
O14_2 O 0.3786(4) 0.2151(3) 0.1760(3)
O15_2 O 0.4600(4) 0.2942(3) 0.1791(3)
O18_2 O 0.2671(7) 0.1619(5) 0.2500
O19_2 O 0.5192(6) 0.4051(4) 0.2500
N3_2 N 0.5263(5) 0.2423(4) 0.0290(5)
C27_2 C 0.5037(6) 0.2567(4) 0.0817(5)
H15_2 H 0.5263 0.2884 0.1070
C28_2 C 0.4486(6) 0.2264(4) 0.0995(5)
C29_2 C 0.4153(6) 0.1765(4) 0.0638(5)
H16_2 H 0.3781 0.1552 0.0742
C30_2 C 0.4378(6) 0.1608(4) 0.0158(6)
C32_2 C 0.4254(6) 0.2456(5) 0.1558(5)
O26_2 O 0.7252(4) 0.0482(3) 0.1796(4)
O27_2 O 0.6475(4) 0.0531(3) 0.1803(4)
C65_2 C 0.6769(7) 0.0343(4) 0.1616(5)
O30_2 O 0.9518(3) 0.6770(3) 0.1796(4)
O31_2 O 0.9469(3) 0.5944(3) 0.1803(4)
C78_2 C 0.9657(4) 0.6426(6) 0.1616(5)
I1_2 I 0.77147(3) 0.40252(4) 0.92381(5)
Cu1_2 Cu 0.70854(6) 0.31307(6) 0.99809(7)
Cu2_2 Cu 0.6667 0.3333 0.87955(17)
C5_2 C 0.8054(5) 0.2972(5) 0.9948(6)
H3_2 H 0.8155 0.3204 0.9564
C7_2 C 0.8910(5) 0.2980(5) 0.9716(6)
C8_2 C 0.9108(5) 0.2638(5) 0.9522(7)
H4_2 H 0.8932 0.2276 0.9676
C9_2 C 0.9571(5) 0.2833(5) 0.9097(6)
H5_2 H 0.9695 0.2596 0.8961
C10_2 C 0.9847(5) 0.3367(5) 0.8877(6)
C11_2 C 0.9675(5) 0.3707(5) 0.9082(6)
H6_2 H 0.9873 0.4074 0.8953
C12_2 C 0.9204(5) 0.3525(5) 0.9488(6)
H7_2 H 0.9084 0.3768 0.9609
I3_2 I 0.59748(4) 0.36895(5) 0.92381(5)
Cu5_2 Cu 0.68693(6) 0.39547(8) 0.99809(7)
C18_2 C 0.7028(5) 0.5082(7) 0.9948(6)
H10_2 H 0.6796 0.4951 0.9564
C20_2 C 0.7020(5) 0.5930(7) 0.9716(6)
C21_2 C 0.7362(5) 0.6470(7) 0.9522(7)
H11_2 H 0.7724 0.6656 0.9676
C22_2 C 0.7167(5) 0.6738(7) 0.9097(6)
H12_2 H 0.7404 0.7099 0.8961
C23_2 C 0.6633(5) 0.6480(7) 0.8877(6)
C24_2 C 0.6293(5) 0.5968(7) 0.9082(6)
H13_2 H 0.5926 0.5799 0.8953
C25_2 C 0.6475(5) 0.5679(7) 0.9488(6)
H14_2 H 0.6232 0.5316 0.9609
C26_2 C 0.6426(6) 0.6769(7) 0.8384(5)
I4_2 I 0.63105(5) 0.22853(3) 0.92381(5)
Cu8_2 Cu 0.60453(8) 0.29146(6) 0.99809(7)
C31_2 C 0.4918(7) 0.1946(5) 0.9948(6)
H17_2 H 0.5049 0.1845 0.9564
C33_2 C 0.4070(7) 0.1090(5) 0.9716(6)
C34_2 C 0.3530(7) 0.0892(5) 0.9522(7)
H18_2 H 0.3344 0.1068 0.9676
C35_2 C 0.3262(7) 0.0429(5) 0.9097(6)
H19_2 H 0.2901 0.0305 0.8961
C36_2 C 0.3520(7) 0.0153(5) 0.8877(6)
C37_2 C 0.4032(7) 0.0325(5) 0.9082(6)
H20_2 H 0.4201 0.0127 0.8953
C38_2 C 0.4321(7) 0.0796(5) 0.9488(6)
H21_2 H 0.4684 0.0916 0.9609
C57_2 C 0.5082(7) 0.8054(5) 0.0052(6)
H31_2 H 0.4951 0.8155 0.0436
C59_2 C 0.5930(7) 0.8910(5) 0.0284(6)
C60_2 C 0.6470(7) 0.9108(5) 0.0478(7)
H32_2 H 0.6656 0.8932 0.0324
C61_2 C 0.6738(7) 0.9571(5) 0.0903(6)
H33_2 H 0.7099 0.9695 0.1039
C62_2 C 0.6480(7) 0.9847(5) 0.1123(6)
C63_2 C 0.5968(7) 0.9675(5) 0.0918(6)
H34_2 H 0.5799 0.9873 0.1047
C64_2 C 0.5679(7) 0.9204(5) 0.0512(6)
H35_2 H 0.5316 0.9084 0.0391
C39_2 C 0.3231(7) 0.9657(4) 0.8384(5)
N5_2 N 0.4737(5) 0.7577(4) 0.9710(5)
C53_2 C 0.4963(6) 0.7433(4) 0.9183(5)
H29_2 H 0.4737 0.7116 0.8930
C54_2 C 0.5514(6) 0.7736(4) 0.9005(5)
C55_2 C 0.5847(6) 0.8235(4) 0.9362(5)
H30_2 H 0.6219 0.8448 0.9258
C56_2 C 0.5622(6) 0.8392(4) 0.9842(6)
C58_2 C 0.5746(6) 0.7544(5) 0.8442(5)
loop_
_geom_bond_atom_site_label_1
_geom_bond_atom_site_label_2
_geom_bond_site_symmetry_1
_geom_bond_site_symmetry_2
O16 C39 1_555 1_555
O17 C39 1_555 1_555
I7 Cu13 1_555 1_555
Cu13 N5 1_555 1_555
O24 C58 1_555 1_555
O25 C58 1_555 1_555
N5 C53 1_555 1_555
C53 H29 1_555 1_555
C54 C53 1_555 1_555
C55 C54 1_555 1_555
H30 C55 1_555 1_555
C56 C55 1_555 1_555
C57 N5 1_555 1_555
H31 C57 1_555 1_555
C58 C54 1_555 1_555
C59 C56 1_555 1_555
C60 C59 1_555 1_555
H32 C60 1_555 1_555
C61 C60 1_555 1_555
H33 C61 1_555 1_555
C62 C61 1_555 1_555
C63 C62 1_555 1_555
H34 C63 1_555 1_555
C64 C59 1_555 1_555
H35 C64 1_555 1_555
I9 Cu13 1_555 1_555
I11 Cu13 1_555 1_555
Cu15 I7 1_555 1_555
Cu17 I7 1_555 1_555
Cu21 O16 1_555 1_555
Cu24 O24 1_555 1_555
Cu27 O17 1_555 1_555
Cu30 O25 1_555 1_555
C56 C57 1_555 1_555
C63 C64 1_555 1_555
I9 Cu17 1_555 1_555
I11 Cu15 1_555 1_555
I1 Cu1 1_555 1_555
I2 Cu1 1_555 1_555
Cu1 N1 1_555 1_555
Cu2 I1 1_555 1_555
Cu3 O1 1_555 1_555
Cu4 O2 1_555 1_555
O1 C6 1_555 1_555
O2 C6 1_555 1_555
O5 Cu2 1_555 1_555
O6 Cu3 1_555 1_555
O7 Cu4 1_555 1_555
N1 C1 1_555 1_555
C1 H1 1_555 1_555
C2 C1 1_555 1_555
C3 C2 1_555 1_555
H2 C3 1_555 1_555
C4 C3 1_555 1_555
C5 N1 1_555 1_555
H3 C5 1_555 1_555
C6 C2 1_555 1_555
C7 C4 1_555 1_555
C8 C7 1_555 1_555
H4 C8 1_555 1_555
C9 C8 1_555 1_555
H5 C9 1_555 1_555
C10 C9 1_555 1_555
C11 C10 1_555 1_555
H6 C11 1_555 1_555
C12 C7 1_555 1_555
H7 C12 1_555 1_555
I3 Cu2 1_555 1_555
Cu5 I1 1_555 1_555
Cu6 O8 1_555 1_555
Cu7 O9 1_555 1_555
O8 C19 1_555 1_555
O9 C19 1_555 1_555
O10 C26 1_555 1_555
O11 C26 1_555 1_555
O12 Cu6 1_555 1_555
O13 Cu7 1_555 1_555
N2 Cu5 1_555 1_555
C14 N2 1_555 1_555
H8 C14 1_555 1_555
C15 C14 1_555 1_555
C16 C15 1_555 1_555
H9 C16 1_555 1_555
C17 C16 1_555 1_555
C18 N2 1_555 1_555
H10 C18 1_555 1_555
C19 C15 1_555 1_555
C20 C17 1_555 1_555
C21 C20 1_555 1_555
H11 C21 1_555 1_555
C22 C21 1_555 1_555
H12 C22 1_555 1_555
C23 C22 1_555 1_555
C24 C23 1_555 1_555
H13 C24 1_555 1_555
C25 C20 1_555 1_555
H14 C25 1_555 1_555
C26 C23 1_555 1_555
I4 Cu1 1_555 1_555
Cu8 I2 1_555 1_555
Cu9 O14 1_555 1_555
Cu10 O15 1_555 1_555
O14 C32 1_555 1_555
O15 C32 1_555 1_555
O18 Cu9 1_555 1_555
O19 Cu10 1_555 1_555
N3 Cu8 1_555 1_555
C27 N3 1_555 1_555
H15 C27 1_555 1_555
C28 C27 1_555 1_555
C29 C28 1_555 1_555
H16 C29 1_555 1_555
C30 C29 1_555 1_555
C31 N3 1_555 1_555
H17 C31 1_555 1_555
C32 C28 1_555 1_555
C33 C30 1_555 1_555
C34 C33 1_555 1_555
H18 C34 1_555 1_555
C35 C34 1_555 1_555
H19 C35 1_555 1_555
C36 C35 1_555 1_555
C37 C36 1_555 1_555
H20 C37 1_555 1_555
C38 C33 1_555 1_555
H21 C38 1_555 1_555
O26 Cu3 1_555 1_555
O27 Cu4 1_555 1_555
C65 O26 1_555 1_555
O30 Cu6 1_555 1_555
O31 Cu7 1_555 1_555
C78 O30 1_555 1_555
Cu18 O5 1_555 1_555
Cu24 O10 1_555 1_555
Cu30 O11 1_555 1_555
O32 Cu3 1_555 1_555
O33 Cu6 1_555 1_555
O34 Cu9 1_555 1_555
O35 Cu4 1_555 1_555
O36 Cu7 1_555 1_555
O37 Cu10 1_555 1_555
O38 Cu6 1_555 1_555
O39 Cu9 1_555 1_555
O40 Cu3 1_555 1_555
O41 Cu9 1_555 1_555
O42 Cu7 1_555 1_555
O43 Cu10 1_555 1_555
O44 Cu4 1_555 1_555
O45 Cu10 1_555 1_555
I2 Cu5 1_555 1_555
Cu2 I4 1_555 1_555
C4 C5 1_555 1_555
C11 C12 1_555 1_555
I3 Cu5 1_555 1_555
I3 Cu8 1_555 1_555
C17 C18 1_555 1_555
C24 C25 1_555 1_555
I4 Cu8 1_555 1_555
C30 C31 1_555 1_555
C37 C38 1_555 1_555
O27 C65 1_555 1_555
O31 C78 1_555 1_555
O3 C13 1_555 1_555
O4 C13 1_555 1_555
I9 Cu11 1_555 1_555
I11 Cu11 1_555 1_555
Cu11 N4 1_555 1_555
O20 C45 1_555 1_555
O21 C45 1_555 1_555
O41 C52 1_555 1_555
O45 C52 1_555 1_555
N4 C40 1_555 1_555
C40 H22 1_555 1_555
C41 C40 1_555 1_555
C42 C41 1_555 1_555
H23 C42 1_555 1_555
C43 C42 1_555 1_555
C44 N4 1_555 1_555
H24 C44 1_555 1_555
C45 C41 1_555 1_555
C46 C43 1_555 1_555
C47 C46 1_555 1_555
H25 C47 1_555 1_555
C48 C47 1_555 1_555
H26 C48 1_555 1_555
C49 C48 1_555 1_555
C50 C49 1_555 1_555
H27 C50 1_555 1_555
C51 C46 1_555 1_555
H28 C51 1_555 1_555
C52 C49 1_555 1_555
I8 Cu11 1_555 1_555
O28 C71 1_555 1_555
O29 C71 1_555 1_555
N6 Cu15 1_555 1_555
C66 N6 1_555 1_555
H36 C66 1_555 1_555
C67 C66 1_555 1_555
C68 C67 1_555 1_555
H37 C68 1_555 1_555
C69 C68 1_555 1_555
C70 N6 1_555 1_555
H38 C70 1_555 1_555
C71 C67 1_555 1_555
C72 C69 1_555 1_555
C73 C72 1_555 1_555
H39 C73 1_555 1_555
C74 C73 1_555 1_555
H40 C74 1_555 1_555
C75 C74 1_555 1_555
C76 C75 1_555 1_555
H41 C76 1_555 1_555
C77 C72 1_555 1_555
H42 C77 1_555 1_555
Cu21 O28 1_555 1_555
Cu22 O3 1_555 1_555
Cu27 O29 1_555 1_555
Cu28 O4 1_555 1_555
O46 Cu17 1_555 1_555
Cu17 I8 1_555 1_555
O20 Cu22 1_555 1_555
O21 Cu28 1_555 1_555
C43 C44 1_555 1_555
C50 C51 1_555 1_555
I8 Cu15 1_555 1_555
C69 C70 1_555 1_555
C76 C77 1_555 1_555
I5 Cu11_2 1_555 1_555
Cu18 I5 1_555 1_555
O22 C52_2 1_555 1_555
O23 C52_2 1_555 1_555
H24_2 C44_2 1_555 1_555
C47_2 C46_2 1_555 1_555
H25_2 C47_2 1_555 1_555
C48_2 C47_2 1_555 1_555
H26_2 C48_2 1_555 1_555
C49_2 C48_2 1_555 1_555
C50_2 C49_2 1_555 1_555
H27_2 C50_2 1_555 1_555
C51_2 C46_2 1_555 1_555
H28_2 C51_2 1_555 1_555
C52_2 C49_2 1_555 1_555
I8_2 Cu11_2 1_555 1_555
H38_2 C70_2 1_555 1_555
C73_2 C72_2 1_555 1_555
H39_2 C73_2 1_555 1_555
C74_2 C73_2 1_555 1_555
H40_2 C74_2 1_555 1_555
C75_2 C74_2 1_555 1_555
C76_2 C75_2 1_555 1_555
H41_2 C76_2 1_555 1_555
C77_2 C72_2 1_555 1_555
H42_2 C77_2 1_555 1_555
I10 Cu18 1_555 1_555
Cu16 I5 1_555 1_555
Cu24 O22 1_555 1_555
Cu30 O23 1_555 1_555
Cu18 I8_2 1_555 1_555
C50_2 C51_2 1_555 1_555
I8_2 Cu14 1_555 1_555
Cu14 I10 1_555 1_555
C76_2 C77_2 1_555 1_555
I10 Cu16 1_555 1_555
O38 C13_2 1_555 1_555
O42 C13_2 1_555 1_555
O33 C45_2 1_555 1_555
O36 C45_2 1_555 1_555
N4_2 C40_2 1_555 1_555
C40_2 H22_2 1_555 1_555
C41_2 C40_2 1_555 1_555
C42_2 C41_2 1_555 1_555
H23_2 C42_2 1_555 1_555
C43_2 C42_2 1_555 1_555
C45_2 C41_2 1_555 1_555
O32 C71_2 1_555 1_555
O35 C71_2 1_555 1_555
C66_2 N6_2 1_555 1_555
H36_2 C66_2 1_555 1_555
C67_2 C66_2 1_555 1_555
C68_2 C67_2 1_555 1_555
H37_2 C68_2 1_555 1_555
C69_2 C68_2 1_555 1_555
C71_2 C67_2 1_555 1_555
Cu21 O1_2 1_555 1_555
Cu27 O2_2 1_555 1_555
O1_2 C6_2 1_555 1_555
O2_2 C6_2 1_555 1_555
O6_2 Cu21 1_555 1_555
O7_2 Cu27 1_555 1_555
N1_2 C1_2 1_555 1_555
C1_2 H1_2 1_555 1_555
C2_2 C1_2 1_555 1_555
C3_2 C2_2 1_555 1_555
H2_2 C3_2 1_555 1_555
C4_2 C3_2 1_555 1_555
C6_2 C2_2 1_555 1_555
Cu22 O8_2 1_555 1_555
Cu28 O9_2 1_555 1_555
O8_2 C19_2 1_555 1_555
O9_2 C19_2 1_555 1_555
O12_2 Cu22 1_555 1_555
O13_2 Cu28 1_555 1_555
C14_2 N2_2 1_555 1_555
H8_2 C14_2 1_555 1_555
C15_2 C14_2 1_555 1_555
C16_2 C15_2 1_555 1_555
H9_2 C16_2 1_555 1_555
C17_2 C16_2 1_555 1_555
C19_2 C15_2 1_555 1_555
Cu24 O14_2 1_555 1_555
Cu30 O15_2 1_555 1_555
O14_2 C32_2 1_555 1_555
O15_2 C32_2 1_555 1_555
O18_2 Cu24 1_555 1_555
O19_2 Cu30 1_555 1_555
C27_2 N3_2 1_555 1_555
H15_2 C27_2 1_555 1_555
C28_2 C27_2 1_555 1_555
C29_2 C28_2 1_555 1_555
H16_2 C29_2 1_555 1_555
C30_2 C29_2 1_555 1_555
C32_2 C28_2 1_555 1_555
O26_2 Cu21 1_555 1_555
O27_2 Cu27 1_555 1_555
C65_2 O26_2 1_555 1_555
O30_2 Cu22 1_555 1_555
O31_2 Cu28 1_555 1_555
C78_2 O30_2 1_555 1_555
O27_2 C65_2 1_555 1_555
O31_2 C78_2 1_555 1_555
I1_2 Cu1_2 1_555 1_555
Cu2_2 I1_2 1_555 1_555
O46 Cu2_2 1_555 1_555
H3_2 C5_2 1_555 1_555
C8_2 C7_2 1_555 1_555
H4_2 C8_2 1_555 1_555
C9_2 C8_2 1_555 1_555
H5_2 C9_2 1_555 1_555
C10_2 C9_2 1_555 1_555
C11_2 C10_2 1_555 1_555
H6_2 C11_2 1_555 1_555
C12_2 C7_2 1_555 1_555
H7_2 C12_2 1_555 1_555
I3_2 Cu2_2 1_555 1_555
Cu5_2 I1_2 1_555 1_555
O39 C26_2 1_555 1_555
O43 C26_2 1_555 1_555
H10_2 C18_2 1_555 1_555
C21_2 C20_2 1_555 1_555
H11_2 C21_2 1_555 1_555
C22_2 C21_2 1_555 1_555
H12_2 C22_2 1_555 1_555
C23_2 C22_2 1_555 1_555
C24_2 C23_2 1_555 1_555
H13_2 C24_2 1_555 1_555
C25_2 C20_2 1_555 1_555
H14_2 C25_2 1_555 1_555
C26_2 C23_2 1_555 1_555
I4_2 Cu1_2 1_555 1_555
H17_2 C31_2 1_555 1_555
C34_2 C33_2 1_555 1_555
H18_2 C34_2 1_555 1_555
C35_2 C34_2 1_555 1_555
H19_2 C35_2 1_555 1_555
C36_2 C35_2 1_555 1_555
C37_2 C36_2 1_555 1_555
H20_2 C37_2 1_555 1_555
C38_2 C33_2 1_555 1_555
H21_2 C38_2 1_555 1_555
Cu2_2 I4_2 1_555 1_555
C11_2 C12_2 1_555 1_555
I3_2 Cu5_2 1_555 1_555
I3_2 Cu8_2 1_555 1_555
C24_2 C25_2 1_555 1_555
I4_2 Cu8_2 1_555 1_555
C37_2 C38_2 1_555 1_555
H31_2 C57_2 1_555 1_555
C60_2 C59_2 1_555 1_555
H32_2 C60_2 1_555 1_555
C61_2 C60_2 1_555 1_555
H33_2 C61_2 1_555 1_555
C62_2 C61_2 1_555 1_555
C63_2 C62_2 1_555 1_555
H34_2 C63_2 1_555 1_555
C64_2 C59_2 1_555 1_555
H35_2 C64_2 1_555 1_555
C63_2 C64_2 1_555 1_555
O40 C39_2 1_555 1_555
O44 C39_2 1_555 1_555
O34 C58_2 1_555 1_555
O37 C58_2 1_555 1_555
N5_2 C53_2 1_555 1_555
C53_2 H29_2 1_555 1_555
C54_2 C53_2 1_555 1_555
C55_2 C54_2 1_555 1_555
H30_2 C55_2 1_555 1_555
C56_2 C55_2 1_555 1_555
C58_2 C54_2 1_555 1_555

#END
