
###############################################################################
#
# This file contains modified crystal structure data generated from the
# MOF subset of the Cambridge Structural Database (CSD) v543 
# hosted by the Cambridge Crystallographic Data Centre (CCDC).
#
# This work is licensed under the Creative Commons
# Attribution-NonCommercial-ShareAlike 4.0 International License.
# To view a copy of this license, visit
# http://creativecommons.org/licenses/by-nc-sa/4.0/
# or send a letter to
# Creative Commons, PO Box 1866, Mountain View, CA 94042, USA.
#
# CIF created using the CSD Python API on 29 September 2022
# The structure has been converted into the P1 space group
# The structure has a 3D framework
# The original CSD entry MUNLUE is in the triclinic crystal system
# The framework has been calculated to contain at least 10.0% void space
# The void calculation uses a probe of radius 1.32A, grid spacing 0.4
# H atom positions have been added when not included in the experimental data
#
###############################################################################

data_MUNLUE
_chemical_formula_moiety         '(C108 H66 N20 O32 Tb6)n'
_symmetry_cell_setting           triclinic
_symmetry_space_group_name_H-M   'P 1'
_symmetry_Int_Tables_number      1
_space_group_name_Hall           'P 1'
loop_
_symmetry_equiv_pos_site_id
_symmetry_equiv_pos_as_xyz
1 x,y,z
_cell_length_a                   15.1173(4)
_cell_length_b                   16.7483(8)
_cell_length_c                   16.9101(6)
_cell_angle_alpha                110.566(4)
_cell_angle_beta                 90.030(3)
_cell_angle_gamma                100.933(3)
_cell_volume                     3925.32
loop_
_atom_site_label
_atom_site_type_symbol
_atom_site_fract_x
_atom_site_fract_y
_atom_site_fract_z
N1 N 0.151(2) 0.480(2) 0.819(2)
C1 C 0.1231(16) 0.4428(16) 0.7407(16)
C2 C 0.0888(16) 0.5069(16) 0.8818(16)
H26 H 0.19752 0.534159 0.823793
H27 H 0.181442 0.437883 0.834457
H28 H 0.0913697 0.486374 0.720559
H29 H 0.18008 0.427307 0.702944
H30 H 0.0741201 0.383079 0.732001
H31 H 0.0383277 0.450464 0.880312
H32 H 0.125076 0.536984 0.944093
H33 H 0.0555773 0.553759 0.868871
N1_2 N 0.849(2) 0.520(2) 0.181(2)
C1_2 C 0.8769(16) 0.5572(16) 0.2593(16)
C2_2 C 0.9112(16) 0.4931(16) 0.1182(16)
H26_2 H 0.80248 0.465841 0.176207
H27_2 H 0.818558 0.562117 0.165543
H28_2 H 0.90863 0.513626 0.279441
H29_2 H 0.81992 0.572693 0.297056
H30_2 H 0.92588 0.616921 0.267999
H31_2 H 0.961672 0.549536 0.119688
H32_2 H 0.874924 0.463016 0.0559067
H33_2 H 0.944423 0.446241 0.131129
O16 O 0.4226(4) 0.5347(4) 0.0389(3)
O17 O 0.4123(4) 0.7437(3) 0.3364(4)
O18 O 0.2932(4) 0.8038(4) 0.3733(4)
N8 N 0.0310(6) 0.6227(6) 0.0225(5)
N9 N 0.0185(7) 0.7116(9) 0.1497(7)
C45 C 0.0755(7) 0.6694(8) 0.1005(7)
C46 C 0.1668(7) 0.6673(6) 0.1251(6)
C47 C 0.2169(6) 0.6193(6) 0.0639(5)
H22 H 0.1908 0.5876 0.0079
C48 C 0.3058(6) 0.6181(6) 0.0854(5)
C49 C 0.3526(6) 0.5605(6) 0.0182(5)
C50 C 0.3444(5) 0.6637(5) 0.1662(5)
H23 H 0.4056 0.6641 0.1795
C51 C 0.2930(6) 0.7101(5) 0.2294(5)
C52 C 0.3336(6) 0.7563(5) 0.3173(5)
C53 C 0.2048(7) 0.7130(6) 0.2075(6)
H24 H 0.1707 0.7462 0.2490
Tb8 Tb 0.43801(3) 0.87643(3) 0.47188(3)
Tb11 Tb 0.47800(3) 0.63426(3) 0.35257(3)
Tb15 Tb 0.54649(3) 0.52882(3) 0.11767(3)
O15 O 0.3278(4) 0.5380(4) 0.9413(4)
H3 H 0.0518 0.5865 0.9785
Tb12 Tb 0.45351(3) 0.47118(3) 0.88233(3)
O20 O 0.4820(4) 0.3799(4) 0.0604(4)
N10 N 0.9384(8) 0.6969(9) 0.1038(7)
H20 H 0.7819 0.6627 0.0297
C44 C 0.9522(9) 0.6429(8) 0.0268(7)
Tb1 Tb 0.56199(3) 0.12357(3) 0.52812(3)
Tb2 Tb 0.52200(3) 0.36574(3) 0.64743(3)
O4 O 0.4213(4) 0.0361(4) 0.5322(4)
O5 O 0.4336(4) 0.3360(4) 0.7528(4)
O6 O 0.3098(5) 0.3677(4) 0.8130(4)
O7 O 0.6330(4) 0.2278(4) 0.4737(4)
O8 O 0.5897(4) 0.3549(4) 0.5259(3)
O9 O 0.5226(5) 0.5086(4) 0.3441(4)
O10 O 0.5895(4) 0.4820(4) 0.2224(4)
O13 O 0.6757(5) 0.4467(4) 0.6913(4)
O14 O 0.5802(4) 0.4738(4) 0.7911(4)
O19 O 0.4238(5) 0.3468(5) 0.9272(5)
N2 N 0.0131(5) 0.0155(5) 0.6205(5)
N4 N 0.0034(6) 0.1461(7) 0.7029(9)
N5 N 0.5989(8) 0.1669(6) 0.0743(5)
H2 H 0.5798 0.2086 0.0631
N6 N 0.6409(9) 0.0447(7) 0.0591(7)
N7 N 0.6490(9) 0.0937(7) 0.1441(6)
C11 C 0.0596(8) 0.0945(7) 0.6651(8)
C12 C 0.1600(6) 0.1214(6) 0.6668(6)
C13 C 0.2064(6) 0.0588(6) 0.6173(6)
H8 H 0.1740 0.0024 0.5839
C14 C 0.2986(7) 0.0786(6) 0.6168(5)
C15 C 0.3463(6) 0.0116(5) 0.5601(5)
C16 C 0.3476(6) 0.1617(5) 0.6646(6)
H9 H 0.4116 0.1753 0.6650
C17 C 0.2988(6) 0.2256(6) 0.7129(6)
C18 C 0.3509(6) 0.3151(5) 0.7621(5)
C19 C 0.2068(6) 0.2052(6) 0.7138(6)
H10 H 0.1750 0.2481 0.7462
C20 C 0.6109(6) 0.2931(5) 0.4655(4)
C21 C 0.6109(6) 0.3020(5) 0.3808(5)
C22 C 0.6225(7) 0.2318(6) 0.3084(5)
H11 H 0.6341 0.1799 0.3133
C23 C 0.6165(7) 0.2396(6) 0.2293(5)
C24 C 0.6241(9) 0.1661(7) 0.1511(6)
C25 C 0.6008(7) 0.3162(6) 0.2226(5)
H12 H 0.5999 0.3219 0.1687
C26 C 0.5863(7) 0.3844(6) 0.2936(5)
C27 C 0.5635(6) 0.4643(5) 0.2864(5)
C28 C 0.5907(6) 0.3754(5) 0.3731(5)
H13 H 0.5794 0.4209 0.4221
C29 C 0.6099(9) 0.0891(7) 0.0188(6)
C37 C 0.6619(6) 0.4837(6) 0.7662(5)
C38 C 0.7408(6) 0.5348(6) 0.8312(5)
C39 C 0.8274(7) 0.5216(7) 0.8125(6)
H18 H 0.8391 0.4879 0.7568
C40 C 0.8964(8) 0.5581(7) 0.8762(7)
H19 H 0.9558 0.5488 0.8640
C41 C 0.8798(7) 0.6087(7) 0.9582(6)
C42 C 0.7930(7) 0.6258(6) 0.9751(6)
C43 C 0.7231(7) 0.5883(6) 0.9113(6)
H21 H 0.6641 0.5991 0.9223
C54 C 0.4482(7) 0.3272(6) 0.9870(6)
H25 H 0.4411 0.2668 0.9772
O21 O 0.4566(4) 0.2171(4) 0.5356(4)
O22 O 0.3740(5) 0.3202(4) 0.5741(4)
O23 O 0.6891(4) 0.0670(4) 0.4600(4)
O25 O 0.4774(5) 0.4914(4) 0.6559(4)
O26 O 0.4105(4) 0.5180(4) 0.7776(4)
O27 O 0.5095(4) 0.0616(4) 0.3836(3)
O28 O 0.5611(5) 0.0767(4) 0.6421(4)
O31 O 0.5774(4) 0.4653(4) 0.9611(3)
O32 O 0.5877(4) 0.2563(3) 0.6636(4)
O33 O 0.7068(4) 0.1962(4) 0.6267(4)
O34 O 0.5180(4) 0.6201(4) 0.9396(4)
C30 C 0.5891(8) 0.0668(8) 0.9283(6)
C33 C 0.5517(7) 0.0297(7) 0.7559(6)
C34 C 0.5323(7) 0.0138(5) 0.6648(5)
C35 C 0.5644(11) 0.1136(8) 0.8130(8)
H16 H 0.5623 0.1599 0.7933
C36 C 0.5800(13) 0.1319(8) 0.8984(8)
H17 H 0.5845 0.1898 0.9371
O3 O 0.3109(4) 0.9330(4) 0.5400(4)
H1 H 0.0340 0.9699 0.5886
O24 O 0.5787(4) 0.9639(4) 0.4678(4)
O11 O 0.4905(4) 0.9384(4) 0.6164(3)
C31 C 0.5786(10) 0.9826(7) 0.8711(7)
H14 H 0.5871 0.9374 0.8903
C32 C 0.5561(9) 0.9632(6) 0.7866(6)
H15 H 0.5435 0.9043 0.7489
O1 O 0.5434(4) 0.7829(4) 0.4644(4)
O2 O 0.6260(5) 0.6798(4) 0.4259(4)
C3 C 0.6204(6) 0.7564(6) 0.4691(5)
C4 C 0.6983(7) 0.8197(6) 0.5196(6)
C5 C 0.7865(6) 0.8052(7) 0.5047(7)
H4 H 0.7949 0.7504 0.4667
C6 C 0.8605(7) 0.8689(7) 0.5441(7)
H5 H 0.9196 0.8580 0.5333
C7 C 0.8492(7) 0.9488(7) 0.5995(7)
C8 C 0.7636(7) 0.9642(7) 0.6196(7)
C9 C 0.6886(7) 0.8988(6) 0.5793(6)
H7 H 0.6297 0.9087 0.5930
C3_2 C 0.3796(6) 0.2436(6) 0.5309(5)
C4_2 C 0.3017(7) 0.1803(6) 0.4804(6)
C5_2 C 0.2135(6) 0.1948(7) 0.4953(7)
H4_2 H 0.2051 0.2496 0.5333
C6_2 C 0.1395(7) 0.1311(7) 0.4559(7)
H5_2 H 0.0804 0.1420 0.4667
C7_2 C 0.1508(7) 0.0512(7) 0.4005(7)
C8_2 C 0.2364(7) 0.0358(7) 0.3804(7)
C9_2 C 0.3114(7) 0.1012(6) 0.4207(6)
H7_2 H 0.3703 0.0913 0.4070
C31_2 C 0.4214(10) 0.0174(7) 0.1289(7)
H14_2 H 0.4129 0.0626 0.1097
C32_2 C 0.4439(9) 0.0368(6) 0.2134(6)
H15_2 H 0.4565 0.0957 0.2511
H1_2 H 0.9660 0.0301 0.4114
O12 O 0.4389(5) 0.9233(4) 0.3579(4)
C30_2 C 0.4109(8) 0.9332(8) 0.0717(6)
C33_2 C 0.4483(7) 0.9703(7) 0.2441(6)
C34_2 C 0.4677(7) 0.9862(5) 0.3352(5)
C35_2 C 0.4356(11) 0.8864(8) 0.1870(8)
H16_2 H 0.4377 0.8401 0.2067
C36_2 C 0.4200(13) 0.8681(8) 0.1016(8)
H17_2 H 0.4155 0.8102 0.0629
O5_2 O 0.5664(4) 0.6640(4) 0.2472(4)
O6_2 O 0.6902(5) 0.6323(4) 0.1870(4)
O7_2 O 0.3670(4) 0.7722(4) 0.5263(4)
O8_2 O 0.4103(4) 0.6451(4) 0.4741(3)
O13_2 O 0.3243(5) 0.5533(4) 0.3087(4)
O14_2 O 0.4198(4) 0.5262(4) 0.2089(4)
O19_2 O 0.5762(5) 0.6532(5) 0.0728(5)
N2_2 N 0.9869(5) 0.9845(5) 0.3795(5)
N4_2 N 0.9966(6) 0.8539(7) 0.2971(9)
N5_2 N 0.4011(8) 0.8331(6) 0.9257(5)
H2_2 H 0.4202 0.7914 0.9369
N6_2 N 0.3591(9) 0.9553(7) 0.9409(7)
N7_2 N 0.3510(9) 0.9063(7) 0.8559(6)
C11_2 C 0.9404(8) 0.9055(7) 0.3349(8)
C12_2 C 0.8400(6) 0.8786(6) 0.3332(6)
C13_2 C 0.7936(6) 0.9412(6) 0.3827(6)
H8_2 H 0.8260 0.9976 0.4161
C14_2 C 0.7014(7) 0.9214(6) 0.3832(5)
C15_2 C 0.6537(6) 0.9884(5) 0.4399(5)
C16_2 C 0.6524(6) 0.8383(5) 0.3354(6)
H9_2 H 0.5884 0.8247 0.3350
C17_2 C 0.7012(6) 0.7744(6) 0.2871(6)
C18_2 C 0.6491(6) 0.6849(5) 0.2379(5)
C19_2 C 0.7932(6) 0.7948(6) 0.2862(6)
H10_2 H 0.8250 0.7519 0.2538
C20_2 C 0.3891(6) 0.7069(5) 0.5345(4)
C21_2 C 0.3891(6) 0.6980(5) 0.6192(5)
C22_2 C 0.3775(7) 0.7682(6) 0.6916(5)
H11_2 H 0.3659 0.8201 0.6867
C23_2 C 0.3835(7) 0.7604(6) 0.7707(5)
C24_2 C 0.3759(9) 0.8339(7) 0.8489(6)
C25_2 C 0.3992(7) 0.6838(6) 0.7774(5)
H12_2 H 0.4001 0.6781 0.8313
C26_2 C 0.4137(7) 0.6156(6) 0.7064(5)
C27_2 C 0.4365(6) 0.5357(5) 0.7136(5)
C28_2 C 0.4093(6) 0.6246(5) 0.6269(5)
H13_2 H 0.4206 0.5791 0.5779
C29_2 C 0.3901(9) 0.9109(7) 0.9812(6)
C37_2 C 0.3381(6) 0.5163(6) 0.2338(5)
C38_2 C 0.2592(6) 0.4652(6) 0.1688(5)
C39_2 C 0.1726(7) 0.4784(7) 0.1875(6)
H18_2 H 0.1609 0.5121 0.2432
C40_2 C 0.1036(8) 0.4419(7) 0.1238(7)
H19_2 H 0.0442 0.4512 0.1360
C41_2 C 0.1202(7) 0.3913(7) 0.0418(6)
C42_2 C 0.2070(7) 0.3742(6) 0.0249(6)
C43_2 C 0.2769(7) 0.4117(6) 0.0887(6)
H21_2 H 0.3359 0.4009 0.0777
C54_2 C 0.5518(7) 0.6728(6) 0.0130(6)
H25_2 H 0.5589 0.7332 0.0228
O29 O 0.6722(4) 0.4620(4) 0.0587(4)
N10_2 N 0.0616(8) 0.3031(9) 0.8962(7)
H20_2 H 0.2181 0.3373 0.9703
C44_2 C 0.0478(9) 0.3571(8) 0.9732(7)
H3_2 H 0.9482 0.4135 0.0215
N8_2 N 0.9690(6) 0.3773(6) 0.9775(5)
N9_2 N 0.9815(7) 0.2884(9) 0.8503(7)
C45_2 C 0.9245(7) 0.3306(8) 0.8995(7)
C46_2 C 0.8332(7) 0.3327(6) 0.8749(6)
C47_2 C 0.7831(6) 0.3807(6) 0.9361(5)
H22_2 H 0.8092 0.4124 0.9921
C48_2 C 0.6942(6) 0.3819(6) 0.9146(5)
C49_2 C 0.6474(6) 0.4395(6) 0.9818(5)
C50_2 C 0.6556(5) 0.3363(5) 0.8338(5)
H23_2 H 0.5944 0.3359 0.8205
C51_2 C 0.7070(6) 0.2899(5) 0.7706(5)
C52_2 C 0.6664(6) 0.2437(5) 0.6827(5)
C53_2 C 0.7952(7) 0.2870(6) 0.7925(6)
H24_2 H 0.8293 0.2538 0.7510
N3 N 0.9179(7) 0.0996(8) 0.6860(8)
H6 H 0.7560 0.0182 0.6600
C10 C 0.9261(7) 0.0214(7) 0.6354(7)
N3_2 N 0.0821(7) 0.9004(8) 0.3140(8)
H6_2 H 0.2440 0.9818 0.3400
C10_2 C 0.0739(7) 0.9786(7) 0.3646(7)
loop_
_geom_bond_atom_site_label_1
_geom_bond_atom_site_label_2
_geom_bond_site_symmetry_1
_geom_bond_site_symmetry_2
N1 C1 1_555 1_555
C2 N1 1_555 1_555
N1 H26 1_555 1_555
N1 H27 1_555 1_555
C1 H28 1_555 1_555
C1 H29 1_555 1_555
C1 H30 1_555 1_555
C2 H31 1_555 1_555
C2 H32 1_555 1_555
C2 H33 1_555 1_555
N1_2 C1_2 1_555 1_555
C2_2 N1_2 1_555 1_555
N1_2 H26_2 1_555 1_555
N1_2 H27_2 1_555 1_555
C1_2 H28_2 1_555 1_555
C1_2 H29_2 1_555 1_555
C1_2 H30_2 1_555 1_555
C2_2 H31_2 1_555 1_555
C2_2 H32_2 1_555 1_555
C2_2 H33_2 1_555 1_555
O16 C49 1_555 1_555
O17 C52 1_555 1_555
O18 C52 1_555 1_555
C45 N8 1_555 1_555
C46 C45 1_555 1_555
C47 C46 1_555 1_555
H22 C47 1_555 1_555
C48 C47 1_555 1_555
C49 C48 1_555 1_555
C50 C48 1_555 1_555
H23 C50 1_555 1_555
C51 C50 1_555 1_555
C52 C51 1_555 1_555
C53 C46 1_555 1_555
H24 C53 1_555 1_555
Tb8 O17 1_555 1_555
Tb11 O17 1_555 1_555
Tb15 O16 1_555 1_555
O18 Tb8 1_555 1_555
N9 C45 1_555 1_555
C51 C53 1_555 1_555
Tb12 O15 1_555 1_555
N10 C44 1_555 1_555
Tb15 O20 1_555 1_555
Tb1 O4 1_555 1_555
Tb2 O5 1_555 1_555
Tb12 O5 1_555 1_555
O4 C15 1_555 1_555
O5 C18 1_555 1_555
O6 Tb12 1_555 1_555
O7 Tb1 1_555 1_555
O8 Tb2 1_555 1_555
O9 C27 1_555 1_555
O10 C27 1_555 1_555
O13 Tb2 1_555 1_555
O14 Tb2 1_555 1_555
O19 Tb12 1_555 1_555
N4 C11 1_555 1_555
N5 H2 1_555 1_555
N6 N7 1_555 1_555
N7 C24 1_555 1_555
C11 N2 1_555 1_555
C12 C11 1_555 1_555
C13 C12 1_555 1_555
H8 C13 1_555 1_555
C14 C13 1_555 1_555
C15 C14 1_555 1_555
C16 C14 1_555 1_555
H9 C16 1_555 1_555
C17 C16 1_555 1_555
C18 O6 1_555 1_555
C19 C12 1_555 1_555
H10 C19 1_555 1_555
C20 O7 1_555 1_555
C21 C20 1_555 1_555
C22 C21 1_555 1_555
H11 C22 1_555 1_555
C23 C22 1_555 1_555
C24 N5 1_555 1_555
C25 C23 1_555 1_555
H12 C25 1_555 1_555
C26 C25 1_555 1_555
C27 C26 1_555 1_555
C28 C21 1_555 1_555
H13 C28 1_555 1_555
C29 N5 1_555 1_555
C37 O13 1_555 1_555
C38 C37 1_555 1_555
C39 C38 1_555 1_555
H18 C39 1_555 1_555
C40 C39 1_555 1_555
H19 C40 1_555 1_555
C41 C40 1_555 1_555
C42 C41 1_555 1_555
C43 C38 1_555 1_555
H21 C43 1_555 1_555
C54 O19 1_555 1_555
H25 C54 1_555 1_555
Tb11 O9 1_555 1_555
Tb15 O10 1_555 1_555
O21 Tb1 1_555 1_555
O22 Tb2 1_555 1_555
O23 Tb1 1_555 1_555
O25 Tb2 1_555 1_555
O26 Tb12 1_555 1_555
O27 Tb1 1_555 1_555
O28 Tb1 1_555 1_555
O31 Tb12 1_555 1_555
O32 Tb1 1_555 1_555
O33 Tb1 1_555 1_555
O34 Tb12 1_555 1_555
Tb2 O21 1_555 1_555
Tb2 O32 1_555 1_555
Tb12 O14 1_555 1_555
O8 C20 1_555 1_555
O14 C37 1_555 1_555
N6 C29 1_555 1_555
C17 C18 1_555 1_555
C17 C19 1_555 1_555
C23 C24 1_555 1_555
C26 C28 1_555 1_555
C42 C43 1_555 1_555
O28 C34 1_555 1_555
C34 C33 1_555 1_555
C35 C33 1_555 1_555
H16 C35 1_555 1_555
C36 C30 1_555 1_555
H17 C36 1_555 1_555
C35 C36 1_555 1_555
Tb8 O3 1_555 1_555
Tb8 O24 1_555 1_555
H14 C31 1_555 1_555
C32 C31 1_555 1_555
H15 C32 1_555 1_555
Tb8 O11 1_555 1_555
O1 C3 1_555 1_555
O2 C3 1_555 1_555
C3 C4 1_555 1_555
C4 C5 1_555 1_555
C5 H4 1_555 1_555
C6 C5 1_555 1_555
H5 C6 1_555 1_555
C7 C6 1_555 1_555
C8 C7 1_555 1_555
C9 C4 1_555 1_555
H7 C9 1_555 1_555
Tb8 O1 1_555 1_555
Tb11 O1 1_555 1_555
O2 Tb11 1_555 1_555
C8 C9 1_555 1_555
O21 C3_2 1_555 1_555
O22 C3_2 1_555 1_555
C3_2 C4_2 1_555 1_555
C4_2 C5_2 1_555 1_555
C5_2 H4_2 1_555 1_555
C6_2 C5_2 1_555 1_555
H5_2 C6_2 1_555 1_555
C7_2 C6_2 1_555 1_555
C8_2 C7_2 1_555 1_555
C9_2 C4_2 1_555 1_555
H7_2 C9_2 1_555 1_555
C8_2 C9_2 1_555 1_555
H14_2 C31_2 1_555 1_555
C32_2 C31_2 1_555 1_555
H15_2 C32_2 1_555 1_555
O12 C34_2 1_555 1_555
C34_2 C33_2 1_555 1_555
C35_2 C33_2 1_555 1_555
H16_2 C35_2 1_555 1_555
C36_2 C30_2 1_555 1_555
H17_2 C36_2 1_555 1_555
Tb8 O12 1_555 1_555
C35_2 C36_2 1_555 1_555
Tb11 O5_2 1_555 1_555
Tb15 O5_2 1_555 1_555
O24 C15_2 1_555 1_555
O5_2 C18_2 1_555 1_555
O6_2 Tb15 1_555 1_555
O7_2 Tb8 1_555 1_555
O8_2 Tb11 1_555 1_555
O25 C27_2 1_555 1_555
O26 C27_2 1_555 1_555
O13_2 Tb11 1_555 1_555
O14_2 Tb11 1_555 1_555
O19_2 Tb15 1_555 1_555
N4_2 C11_2 1_555 1_555
N5_2 H2_2 1_555 1_555
N6_2 N7_2 1_555 1_555
N7_2 C24_2 1_555 1_555
C11_2 N2_2 1_555 1_555
C12_2 C11_2 1_555 1_555
C13_2 C12_2 1_555 1_555
H8_2 C13_2 1_555 1_555
C14_2 C13_2 1_555 1_555
C15_2 C14_2 1_555 1_555
C16_2 C14_2 1_555 1_555
H9_2 C16_2 1_555 1_555
C17_2 C16_2 1_555 1_555
C18_2 O6_2 1_555 1_555
C19_2 C12_2 1_555 1_555
H10_2 C19_2 1_555 1_555
C20_2 O7_2 1_555 1_555
C21_2 C20_2 1_555 1_555
C22_2 C21_2 1_555 1_555
H11_2 C22_2 1_555 1_555
C23_2 C22_2 1_555 1_555
C24_2 N5_2 1_555 1_555
C25_2 C23_2 1_555 1_555
H12_2 C25_2 1_555 1_555
C26_2 C25_2 1_555 1_555
C27_2 C26_2 1_555 1_555
C28_2 C21_2 1_555 1_555
H13_2 C28_2 1_555 1_555
C29_2 N5_2 1_555 1_555
C37_2 O13_2 1_555 1_555
C38_2 C37_2 1_555 1_555
C39_2 C38_2 1_555 1_555
H18_2 C39_2 1_555 1_555
C40_2 C39_2 1_555 1_555
H19_2 C40_2 1_555 1_555
C41_2 C40_2 1_555 1_555
C42_2 C41_2 1_555 1_555
C43_2 C38_2 1_555 1_555
H21_2 C43_2 1_555 1_555
C54_2 O19_2 1_555 1_555
H25_2 C54_2 1_555 1_555
O29 Tb15 1_555 1_555
Tb15 O14_2 1_555 1_555
O8_2 C20_2 1_555 1_555
O14_2 C37_2 1_555 1_555
N6_2 C29_2 1_555 1_555
C17_2 C18_2 1_555 1_555
C17_2 C19_2 1_555 1_555
C23_2 C24_2 1_555 1_555
C26_2 C28_2 1_555 1_555
C42_2 C43_2 1_555 1_555
N10_2 C44_2 1_555 1_555
O31 C49_2 1_555 1_555
O32 C52_2 1_555 1_555
O33 C52_2 1_555 1_555
C45_2 N8_2 1_555 1_555
C46_2 C45_2 1_555 1_555
C47_2 C46_2 1_555 1_555
H22_2 C47_2 1_555 1_555
C48_2 C47_2 1_555 1_555
C49_2 C48_2 1_555 1_555
C50_2 C48_2 1_555 1_555
H23_2 C50_2 1_555 1_555
C51_2 C50_2 1_555 1_555
C52_2 C51_2 1_555 1_555
C53_2 C46_2 1_555 1_555
H24_2 C53_2 1_555 1_555
N9_2 C45_2 1_555 1_555
C51_2 C53_2 1_555 1_555
N3 C10 1_555 1_555
N3_2 C10_2 1_555 1_555

#END
