
###############################################################################
#
# This file contains modified crystal structure data generated from the
# MOF subset of the Cambridge Structural Database (CSD) v543 
# hosted by the Cambridge Crystallographic Data Centre (CCDC).
#
# This work is licensed under the Creative Commons
# Attribution-NonCommercial-ShareAlike 4.0 International License.
# To view a copy of this license, visit
# http://creativecommons.org/licenses/by-nc-sa/4.0/
# or send a letter to
# Creative Commons, PO Box 1866, Mountain View, CA 94042, USA.
#
# CIF created using the CSD Python API on 29 September 2022
# The structure has been converted into the P1 space group
# The structure has a 3D framework
# The original CSD entry MUNPAN is in the monoclinic crystal system
# The original CSD entry MUNPAN is in a Sohncke space group
# The framework has been calculated to contain at least 10.0% void space
# The void calculation uses a probe of radius 1.32A, grid spacing 0.4
# H atom positions have been added when not included in the experimental data
#
###############################################################################

data_MUNPAN
_chemical_formula_moiety         '(C98 H50 N6 O24 Zn4)n'
_symmetry_cell_setting           triclinic
_symmetry_space_group_name_H-M   'P 1'
_symmetry_Int_Tables_number      1
_space_group_name_Hall           'P 1'
loop_
_symmetry_equiv_pos_site_id
_symmetry_equiv_pos_as_xyz
1 x,y,z
_cell_length_a                   13.063(2)
_cell_length_b                   22.324(4)
_cell_length_c                   13.129(2)
_cell_angle_alpha                90
_cell_angle_beta                 95.149(3)
_cell_angle_gamma                90
_cell_volume                     3813.21
loop_
_atom_site_label
_atom_site_type_symbol
_atom_site_fract_x
_atom_site_fract_y
_atom_site_fract_z
O7 O 0.6109(4) 0.8143(2) 0.3615(4)
C4 C 0.5779(5) 0.8659(3) 0.3682(5)
O8 O 0.6297(3) 0.9129(2) 0.3693(4)
H7 H 0.0351 0.3078 0.3574
H8 H 0.0322 0.4136 0.3522
C25 C 0.0840(5) 0.8415(3) 0.3939(5)
C26 C 0.1271(5) 0.7839(3) 0.3876(5)
H9 H 0.0842 0.7496 0.3878
C27 C 0.2293(5) 0.7773(3) 0.3813(5)
H10 H 0.2572 0.7383 0.3757
C28 C 0.2962(5) 0.8284(3) 0.3831(5)
C29 C 0.4030(5) 0.8232(3) 0.3757(5)
H11 H 0.4328 0.7846 0.3711
C30 C 0.4642(5) 0.8729(3) 0.3750(5)
C31 C 0.4205(5) 0.9313(3) 0.3803(5)
H12 H 0.4629 0.9657 0.3784
C32 C 0.3174(5) 0.9374(3) 0.3883(6)
H13 H 0.2889 0.9763 0.3934
C33 C 0.2528(5) 0.8872(3) 0.3890(5)
C34 C 0.1444(5) 0.8920(3) 0.3958(5)
H14 H 0.1139 0.9303 0.4017
Zn4 Zn 0.76169(5) 0.79328(2) 0.36931(4)
Zn6 Zn 0.78590(4) 0.92300(2) 0.39130(4)
N4 N 0.7918(4) 0.0136(2) 0.3866(4)
O5 O 0.7572(4) 0.8120(2) 0.2168(3)
C3 C 0.7720(5) 0.8639(3) 0.1841(4)
O6 O 0.7886(4) 0.9097(2) 0.2379(3)
C39 C 0.7382(5) 0.8260(3) 0.0049(5)
H17 H 0.7158 0.7893 0.0318
C40 C 0.7690(5) 0.8718(3) 0.0703(4)
C41 C 0.7974(5) 0.9284(3) 0.0313(4)
H18 H 0.8166 0.9603 0.0769
O1 O 0.7625(4) 0.8071(2) 0.5231(3)
C1 C 0.7630(4) 0.8549(3) 0.5751(4)
O2 O 0.7740(4) 0.9065(2) 0.5404(3)
O3 O 0.9157(3) 0.8028(2) 0.3799(4)
C2 C 0.9695(5) 0.8497(3) 0.3942(5)
O4 O 0.9367(3) 0.9011(2) 0.4077(4)
N1 N 0.7664(4) 0.7023(3) 0.3670(4)
C5 C 0.8057(6) 0.6716(3) 0.4486(5)
H1 H 0.8302 0.6930 0.5083
C6 C 0.8121(6) 0.6093(3) 0.4494(6)
H2 H 0.8385 0.5881 0.5087
C7 C 0.7783(5) 0.5798(3) 0.3603(5)
C8 C 0.7369(6) 0.6105(3) 0.2752(6)
H3 H 0.7113 0.5900 0.2147
C9 C 0.7341(5) 0.6726(3) 0.2816(5)
H4 H 0.7083 0.6948 0.2231
N2 N 0.7809(4) 0.5143(2) 0.3585(5)
C10 C 0.6861(5) 0.4856(3) 0.3486(5)
C11 C 0.6886(5) 0.4189(3) 0.3532(5)
C12 C 0.5992(5) 0.3878(3) 0.3550(6)
H5 H 0.5356 0.4085 0.3534
C13 C 0.6016(5) 0.3242(3) 0.3591(6)
H6 H 0.5398 0.3020 0.3618
C14 C 0.6940(4) 0.2950(3) 0.3591(5)
C15 C 0.6950(5) 0.2288(3) 0.3657(6)
C16 C 0.7913(5) 0.2006(3) 0.3680(5)
C17 C 0.8872(5) 0.2307(3) 0.3670(6)
C18 C 0.8822(5) 0.2969(3) 0.3583(4)
C19 C 0.9715(5) 0.3285(3) 0.3568(5)
C20 C 0.9701(5) 0.3917(3) 0.3542(5)
C21 C 0.8783(4) 0.4212(3) 0.3546(4)
C22 C 0.8785(5) 0.4878(3) 0.3596(5)
C23 C 0.7849(5) 0.3897(3) 0.3533(5)
C24 C 0.7863(5) 0.3262(3) 0.3578(5)
O9 O 0.6057(4) 0.5138(2) 0.3430(5)
O10 O 0.6173(4) 0.1988(2) 0.3672(5)
O11 O 0.9672(4) 0.2026(2) 0.3705(6)
O12 O 0.9554(4) 0.5179(2) 0.3635(4)
C35 C 0.7496(5) 0.8480(2) 0.6874(4)
C36 C 0.7169(5) 0.7922(3) 0.7246(5)
H15 H 0.6999 0.7600 0.6789
C37 C 0.7103(6) 0.7855(3) 0.8280(5)
H16 H 0.6860 0.7488 0.8534
C38 C 0.7392(5) 0.8329(3) 0.8973(5)
C42 C 0.7968(6) 0.9366(3) 0.9281(5)
H19 H 0.8142 0.9747 0.9022
C43 C 0.7703(5) 0.8886(3) 0.8586(5)
C44 C 0.7737(5) 0.8951(3) 0.7521(5)
H20 H 0.7930 0.9325 0.7250
C45 C 0.8436(5) 0.0461(3) 0.4599(5)
H21 H 0.8798 0.0259 0.5158
C46 C 0.8463(5) 0.1079(3) 0.4572(5)
H22 H 0.8840 0.1303 0.5095
C47 C 0.7920(5) 0.1363(3) 0.3749(6)
C48 C 0.7396(5) 0.1035(3) 0.2985(6)
H23 H 0.7036 0.1228 0.2416
C49 C 0.74046(13) 0.04144(8) 0.30644(13)
H24 H 0.7042 0.0182 0.2544
H25 H 0.571885 0.206 0.303603
Zn1 Zn 0.23831(5) 0.29328(2) 0.63069(4)
Zn2 Zn 0.21410(4) 0.42300(2) 0.60870(4)
O1_2 O 0.2375(4) 0.3071(2) 0.4769(3)
C1_2 C 0.2370(4) 0.3549(3) 0.4249(4)
O2_2 O 0.2260(4) 0.4065(2) 0.4596(3)
O3_2 O 0.0843(3) 0.3028(2) 0.6201(4)
C2_2 C 0.0305(5) 0.3497(3) 0.6058(5)
O4_2 O 0.0633(3) 0.4011(2) 0.5923(4)
N1_2 N 0.2336(4) 0.2023(3) 0.6330(4)
C5_2 C 0.1943(6) 0.1716(3) 0.5514(5)
H1_2 H 0.1698 0.1930 0.4917
C6_2 C 0.1879(6) 0.1093(3) 0.5506(6)
H2_2 H 0.1615 0.0881 0.4913
C7_2 C 0.2217(5) 0.0798(3) 0.6397(5)
C8_2 C 0.2631(6) 0.1105(3) 0.7248(6)
H3_2 H 0.2887 0.0900 0.7853
C9_2 C 0.2659(5) 0.1726(3) 0.7184(5)
H4_2 H 0.2917 0.1948 0.7769
N2_2 N 0.2191(4) 0.0143(2) 0.6415(5)
O9_2 O 0.3943(4) 0.0138(2) 0.6570(5)
O12_2 O 0.0446(4) 0.0179(2) 0.6365(4)
C35_2 C 0.2504(5) 0.3480(2) 0.3126(4)
C36_2 C 0.2831(5) 0.2922(3) 0.2754(5)
H15_2 H 0.3001 0.2600 0.3211
C37_2 C 0.2897(6) 0.2855(3) 0.1720(5)
H16_2 H 0.3140 0.2488 0.1466
C38_2 C 0.2608(5) 0.3329(3) 0.1027(5)
C42_2 C 0.2032(6) 0.4366(3) 0.0719(5)
H19_2 H 0.1858 0.4747 0.0978
C43_2 C 0.2297(5) 0.3886(3) 0.1414(5)
C44_2 C 0.2263(5) 0.3951(3) 0.2479(5)
H20_2 H 0.2070 0.4325 0.2750
O13 O 0.2428(4) 0.3120(2) 0.7832(3)
O14 O 0.2114(4) 0.4097(2) 0.7621(3)
O15 O 0.3891(4) 0.3143(2) 0.6385(4)
O16 O 0.3703(3) 0.4129(2) 0.6307(4)
N4_2 N 0.2082(4) 0.5136(2) 0.6134(4)
C3_2 C 0.2280(5) 0.3639(3) 0.8159(4)
C39_2 C 0.2618(5) 0.3260(3) 0.9951(5)
H17_2 H 0.2842 0.2893 0.9682
C40_2 C 0.2310(5) 0.3718(3) 0.9297(4)
C41_2 C 0.2026(5) 0.4284(3) 0.9687(4)
H18_2 H 0.1834 0.4603 0.9231
C10_2 C 0.3139(5) 0.9856(3) 0.6514(5)
C11_2 C 0.3114(5) 0.9189(3) 0.6468(5)
C12_2 C 0.4008(5) 0.8878(3) 0.6450(6)
H5_2 H 0.4644 0.9085 0.6466
C13_2 C 0.3984(5) 0.8242(3) 0.6409(6)
H6_2 H 0.4602 0.8020 0.6382
C14_2 C 0.3060(4) 0.7950(3) 0.6409(5)
C15_2 C 0.3050(5) 0.7288(3) 0.6343(6)
C16_2 C 0.2087(5) 0.7006(3) 0.6320(5)
C17_2 C 0.1128(5) 0.7307(3) 0.6330(6)
C18_2 C 0.1178(5) 0.7969(3) 0.6417(4)
C19_2 C 0.0285(5) 0.8285(3) 0.6432(5)
C20_2 C 0.0299(5) 0.8917(3) 0.6458(5)
C21_2 C 0.1217(4) 0.9212(3) 0.6454(4)
C22_2 C 0.1215(5) 0.9878(3) 0.6404(5)
C23_2 C 0.2151(5) 0.8897(3) 0.6467(5)
C24_2 C 0.2137(5) 0.8262(3) 0.6422(5)
O10_2 O 0.3827(4) 0.6988(2) 0.6328(5)
O11_2 O 0.0328(4) 0.7026(2) 0.6295(6)
C45_2 C 0.1564(5) 0.5461(3) 0.5401(5)
H21_2 H 0.1202 0.5259 0.4842
C46_2 C 0.1537(5) 0.6079(3) 0.5428(5)
H22_2 H 0.1160 0.6303 0.4905
C47_2 C 0.2080(5) 0.6363(3) 0.6251(6)
C48_2 C 0.2604(5) 0.6035(3) 0.7015(6)
H23_2 H 0.2964 0.6228 0.7584
C49_2 C 0.25954(13) 0.54144(8) 0.69356(13)
H24_2 H 0.2958 0.5182 0.7456
H25_2 H 0.428115 0.706 0.696397
C4_2 C 0.4221(5) 0.3659(3) 0.6318(5)
C25_2 C 0.9160(5) 0.3415(3) 0.6061(5)
C26_2 C 0.8729(5) 0.2839(3) 0.6124(5)
H9_2 H 0.9158 0.2496 0.6122
C27_2 C 0.7707(5) 0.2773(3) 0.6187(5)
H10_2 H 0.7428 0.2383 0.6243
C28_2 C 0.7038(5) 0.3284(3) 0.6169(5)
C29_2 C 0.5970(5) 0.3232(3) 0.6243(5)
H11_2 H 0.5672 0.2846 0.6289
C30_2 C 0.5358(5) 0.3729(3) 0.6250(5)
C31_2 C 0.5795(5) 0.4313(3) 0.6197(5)
H12_2 H 0.5371 0.4657 0.6216
C32_2 C 0.6826(5) 0.4374(3) 0.6117(6)
H13_2 H 0.7111 0.4763 0.6066
C33_2 C 0.7472(5) 0.3872(3) 0.6110(5)
C34_2 C 0.8556(5) 0.3920(3) 0.6042(5)
H14_2 H 0.8861 0.4303 0.5983
H7_2 H 0.9649 0.8078 0.6426
H8_2 H 0.9678 0.9136 0.6478
loop_
_geom_bond_atom_site_label_1
_geom_bond_atom_site_label_2
_geom_bond_site_symmetry_1
_geom_bond_site_symmetry_2
O7 C4 1_555 1_555
C4 O8 1_555 1_555
O8 Zn6 1_555 1_555
C26 C25 1_555 1_555
H9 C26 1_555 1_555
C27 C26 1_555 1_555
H10 C27 1_555 1_555
C28 C27 1_555 1_555
C29 C28 1_555 1_555
H11 C29 1_555 1_555
C30 C4 1_555 1_555
C31 C30 1_555 1_555
H12 C31 1_555 1_555
C32 C31 1_555 1_555
H13 C32 1_555 1_555
C33 C28 1_555 1_555
C34 C25 1_555 1_555
H14 C34 1_555 1_555
Zn4 O7 1_555 1_555
C29 C30 1_555 1_555
C32 C33 1_555 1_555
C33 C34 1_555 1_555
O5 C3 1_555 1_555
C3 O6 1_555 1_555
O6 Zn6 1_555 1_555
H17 C39 1_555 1_555
C40 C3 1_555 1_555
C41 C40 1_555 1_555
H18 C41 1_555 1_555
Zn4 O5 1_555 1_555
C39 C40 1_555 1_555
Zn4 O1 1_555 1_555
Zn6 O2 1_555 1_555
O1 C1 1_555 1_555
C1 O2 1_555 1_555
O3 Zn4 1_555 1_555
C2 O3 1_555 1_555
O4 Zn6 1_555 1_555
N1 Zn4 1_555 1_555
C5 N1 1_555 1_555
H1 C5 1_555 1_555
C6 C5 1_555 1_555
H2 C6 1_555 1_555
C7 C6 1_555 1_555
C8 C7 1_555 1_555
H3 C8 1_555 1_555
C9 N1 1_555 1_555
H4 C9 1_555 1_555
N2 C7 1_555 1_555
C10 N2 1_555 1_555
C11 C10 1_555 1_555
C12 C11 1_555 1_555
H5 C12 1_555 1_555
C13 C12 1_555 1_555
H6 C13 1_555 1_555
C14 C13 1_555 1_555
C15 C14 1_555 1_555
C16 C15 1_555 1_555
C17 C16 1_555 1_555
C18 C17 1_555 1_555
C19 C18 1_555 1_555
C20 C19 1_555 1_555
C21 C20 1_555 1_555
C22 N2 1_555 1_555
C23 C11 1_555 1_555
C24 C14 1_555 1_555
O9 C10 1_555 1_555
O10 C15 1_555 1_555
O11 C17 1_555 1_555
O12 C22 1_555 1_555
C35 C1 1_555 1_555
C36 C35 1_555 1_555
H15 C36 1_555 1_555
C37 C36 1_555 1_555
H16 C37 1_555 1_555
C38 C37 1_555 1_555
H19 C42 1_555 1_555
C43 C38 1_555 1_555
C44 C35 1_555 1_555
H20 C44 1_555 1_555
N4 C45 1_555 1_555
C45 H21 1_555 1_555
C46 C45 1_555 1_555
H22 C46 1_555 1_555
C47 C16 1_555 1_555
C48 C47 1_555 1_555
H23 C48 1_555 1_555
C49 N4 1_555 1_555
H24 C49 1_555 1_555
C2 O4 1_555 1_555
C8 C9 1_555 1_555
C18 C24 1_555 1_555
C21 C22 1_555 1_555
C21 C23 1_555 1_555
C23 C24 1_555 1_555
C42 C43 1_555 1_555
C43 C44 1_555 1_555
C46 C47 1_555 1_555
C48 C49 1_555 1_555
O10 H25 1_555 1_555
Zn1 O1_2 1_555 1_555
Zn2 O2_2 1_555 1_555
O1_2 C1_2 1_555 1_555
C1_2 O2_2 1_555 1_555
O3_2 Zn1 1_555 1_555
C2_2 O3_2 1_555 1_555
O4_2 Zn2 1_555 1_555
N1_2 Zn1 1_555 1_555
C5_2 N1_2 1_555 1_555
H1_2 C5_2 1_555 1_555
C6_2 C5_2 1_555 1_555
H2_2 C6_2 1_555 1_555
C7_2 C6_2 1_555 1_555
C8_2 C7_2 1_555 1_555
H3_2 C8_2 1_555 1_555
C9_2 N1_2 1_555 1_555
H4_2 C9_2 1_555 1_555
N2_2 C7_2 1_555 1_555
C35_2 C1_2 1_555 1_555
C36_2 C35_2 1_555 1_555
H15_2 C36_2 1_555 1_555
C37_2 C36_2 1_555 1_555
H16_2 C37_2 1_555 1_555
C38_2 C37_2 1_555 1_555
H19_2 C42_2 1_555 1_555
C43_2 C38_2 1_555 1_555
C44_2 C35_2 1_555 1_555
H20_2 C44_2 1_555 1_555
O13 Zn1 1_555 1_555
O14 Zn2 1_555 1_555
O15 Zn1 1_555 1_555
O16 Zn2 1_555 1_555
N4_2 Zn2 1_555 1_555
C2_2 O4_2 1_555 1_555
C8_2 C9_2 1_555 1_555
C42_2 C43_2 1_555 1_555
C43_2 C44_2 1_555 1_555
O13 C3_2 1_555 1_555
C3_2 O14 1_555 1_555
H17_2 C39_2 1_555 1_555
C40_2 C3_2 1_555 1_555
C41_2 C40_2 1_555 1_555
H18_2 C41_2 1_555 1_555
C39_2 C40_2 1_555 1_555
C11_2 C10_2 1_555 1_555
C12_2 C11_2 1_555 1_555
H5_2 C12_2 1_555 1_555
C13_2 C12_2 1_555 1_555
H6_2 C13_2 1_555 1_555
C14_2 C13_2 1_555 1_555
C15_2 C14_2 1_555 1_555
C16_2 C15_2 1_555 1_555
C17_2 C16_2 1_555 1_555
C18_2 C17_2 1_555 1_555
C19_2 C18_2 1_555 1_555
C20_2 C19_2 1_555 1_555
C21_2 C20_2 1_555 1_555
C23_2 C11_2 1_555 1_555
C24_2 C14_2 1_555 1_555
O10_2 C15_2 1_555 1_555
O11_2 C17_2 1_555 1_555
N4_2 C45_2 1_555 1_555
C45_2 H21_2 1_555 1_555
C46_2 C45_2 1_555 1_555
H22_2 C46_2 1_555 1_555
C47_2 C16_2 1_555 1_555
C48_2 C47_2 1_555 1_555
H23_2 C48_2 1_555 1_555
C49_2 N4_2 1_555 1_555
H24_2 C49_2 1_555 1_555
C18_2 C24_2 1_555 1_555
C21_2 C22_2 1_555 1_555
C21_2 C23_2 1_555 1_555
C23_2 C24_2 1_555 1_555
C46_2 C47_2 1_555 1_555
C48_2 C49_2 1_555 1_555
O10_2 H25_2 1_555 1_555
O15 C4_2 1_555 1_555
C4_2 O16 1_555 1_555
C26_2 C25_2 1_555 1_555
H9_2 C26_2 1_555 1_555
C27_2 C26_2 1_555 1_555
H10_2 C27_2 1_555 1_555
C28_2 C27_2 1_555 1_555
C29_2 C28_2 1_555 1_555
H11_2 C29_2 1_555 1_555
C30_2 C4_2 1_555 1_555
C31_2 C30_2 1_555 1_555
H12_2 C31_2 1_555 1_555
C32_2 C31_2 1_555 1_555
H13_2 C32_2 1_555 1_555
C33_2 C28_2 1_555 1_555
C34_2 C25_2 1_555 1_555
H14_2 C34_2 1_555 1_555
C29_2 C30_2 1_555 1_555
C32_2 C33_2 1_555 1_555
C33_2 C34_2 1_555 1_555

#END
