
###############################################################################
#
# This file contains modified crystal structure data generated from the
# MOF subset of the Cambridge Structural Database (CSD) v543 
# hosted by the Cambridge Crystallographic Data Centre (CCDC).
#
# This work is licensed under the Creative Commons
# Attribution-NonCommercial-ShareAlike 4.0 International License.
# To view a copy of this license, visit
# http://creativecommons.org/licenses/by-nc-sa/4.0/
# or send a letter to
# Creative Commons, PO Box 1866, Mountain View, CA 94042, USA.
#
# CIF created using the CSD Python API on 29 September 2022
# The structure has been converted into the P1 space group
# The structure has a 3D framework
# The original CSD entry MUNQAP is in the monoclinic crystal system
# The framework has been calculated to contain at least 10.0% void space
# The void calculation uses a probe of radius 1.32A, grid spacing 0.4
#
###############################################################################

data_MUNQAP
_chemical_formula_moiety         '(C360 H256 Co20 N72 O72)n'
_symmetry_cell_setting           triclinic
_symmetry_space_group_name_H-M   'P 1'
_symmetry_Int_Tables_number      1
_space_group_name_Hall           'P 1'
loop_
_symmetry_equiv_pos_site_id
_symmetry_equiv_pos_as_xyz
1 x,y,z
_cell_length_a                   24.5299(12)
_cell_length_b                   12.3443(6)
_cell_length_c                   31.5597(15)
_cell_angle_alpha                90
_cell_angle_beta                 100.3370(10)
_cell_angle_gamma                90
_cell_volume                     9401.31
loop_
_atom_site_label
_atom_site_type_symbol
_atom_site_fract_x
_atom_site_fract_y
_atom_site_fract_z
C85 C 0.05582(14) 0.1859(3) 0.67785(12)
H57 H 0.0677 0.1191 0.6694
C86 C 0.05382(17) 0.3521(4) 0.69536(15)
H58 H 0.0649 0.4233 0.7013
C87 C 0.00282(17) 0.3131(4) 0.69655(15)
N17 N 0.00389(12) 0.2057(3) 0.68525(10)
N18 N 0.08695(12) 0.2716(2) 0.68409(10)
Co6 Co 0.17049(2) 0.28797(4) 0.67738(2)
C1 C 0.23915(16) 0.7838(3) 0.41013(11)
C2 C 0.19380(17) 0.8519(4) 0.40631(13)
H1 H 0.1656 0.8484 0.3824
C3 C 0.1914(2) 0.9259(4) 0.43915(15)
H2 H 0.1613 0.9725 0.4375
C4 C 0.23356(19) 0.9299(4) 0.47394(14)
H3 H 0.2324 0.9793 0.4960
C5 C 0.27819(16) 0.8594(3) 0.47603(12)
C6 C 0.32588(16) 0.8573(3) 0.51232(12)
C7 C 0.33109(17) 0.9293(3) 0.54691(13)
H4 H 0.3042 0.9821 0.5474
C8 C 0.3757(2) 0.9230(4) 0.58046(14)
C9 C 0.41656(18) 0.8447(3) 0.58001(14)
H5 H 0.4461 0.8395 0.6030
C10 C 0.41319(16) 0.7749(3) 0.54547(12)
C11 C 0.36777(16) 0.7805(3) 0.51234(12)
H6 H 0.3651 0.7319 0.4895
C12 C 0.45781(15) 0.6914(3) 0.54443(12)
C13 C 0.3774(3) 0.9987(5) 0.61722(17)
C14 C 0.24555(15) 0.7024(3) 0.37684(11)
C15 C 0.22007(16) 0.7165(3) 0.33402(12)
H7 H 0.1990 0.7784 0.3262
C16 C 0.22547(15) 0.6404(3) 0.30290(11)
C17 C 0.20010(15) 0.6618(3) 0.25699(11)
C18 C 0.25799(15) 0.5481(3) 0.31428(11)
H8 H 0.2614 0.4963 0.2935
C19 C 0.28511(14) 0.5336(3) 0.35651(11)
C20 C 0.27858(15) 0.6113(3) 0.38749(11)
H9 H 0.2967 0.6018 0.4158
C21 C 0.32174(13) 0.4360(3) 0.36838(11)
C22 C 0.21574(14) 0.0943(3) 0.31676(12)
H10 H 0.2303 0.0296 0.3086
C23 C 0.20767(16) 0.2590(3) 0.33506(14)
H11 H 0.2162 0.3310 0.3420
C24 C 0.15771(17) 0.2137(3) 0.33349(15)
H12 H 0.1259 0.2474 0.3393
C25 C 0.12107(14) 0.0261(3) 0.31897(12)
C26 C 0.08345(16) 0.0335(4) 0.34687(14)
H13 H 0.0856 0.0906 0.3663
C28 C 0.40224(15) 0.1227(3) 0.40541(11)
H15 H 0.4243 0.1845 0.4084
C29 C 0.3385(2) 0.0086(4) 0.38217(18)
C31 C 0.45732(16) 0.0170(3) 0.46618(12)
C33 C 0.4745(2) 0.0991(4) 0.49429(14)
H19 H 0.4573 0.1664 0.4906
C34 C 0.38878(15) 0.3800(3) 0.50148(12)
H20 H 0.3725 0.4146 0.4762
C35 C 0.44698(16) 0.3295(4) 0.55643(13)
H21 H 0.4795 0.3233 0.5765
C36 C 0.39969(17) 0.2756(4) 0.55840(13)
H22 H 0.3936 0.2264 0.5794
C37 C 0.30497(15) 0.2775(3) 0.51101(13)
C38 C 0.28035(17) 0.2741(4) 0.46851(13)
H23 H 0.3008 0.2906 0.4472
C39 C 0.27477(17) 0.2537(4) 0.54279(13)
H24 H 0.2915 0.2564 0.5716
Co1 Co 0.32951(2) 0.21203(4) 0.32262(2)
Co2 Co 0.5000 0.5000 0.5000
N1 N 0.28040(13) 0.7882(2) 0.44448(9)
N2 N 0.24441(12) 0.1840(3) 0.32505(10)
N3 N 0.16288(12) 0.1074(3) 0.32157(10)
N4 N 0.35751(12) 0.1101(3) 0.37576(10)
N5 N 0.41210(13) 0.0351(3) 0.43082(10)
N7 N 0.44050(12) 0.3950(3) 0.52063(10)
N8 N 0.36225(12) 0.3086(3) 0.52286(10)
O1 O 0.32385(11) 0.3694(2) 0.33868(8)
O2 O 0.34734(12) 0.4278(2) 0.40592(9)
O3 O 0.19407(12) 0.7589(2) 0.24471(8)
O4 O 0.18654(11) 0.5848(2) 0.23078(8)
O5 O 0.45221(10) 0.6310(2) 0.51204(8)
O6 O 0.49719(12) 0.6881(3) 0.57593(9)
O7 O 0.4096(4) 0.9669(7) 0.6523(2)
O9 O 0.54362(12) 0.5032(3) 0.56628(9)
H31 H 0.5299(18) 0.574(4) 0.5728(14)
H32 H 0.573(2) 0.514(4) 0.5733(16)
H34 H 0.6926 0.0233 0.6343
C48 C 0.6283(2) 0.0386(4) 0.58398(17)
H35 H 0.6323 0.1075 0.5730
C50 C 0.5178(2) 0.0817(4) 0.52834(14)
H36 H 0.5298 0.1376 0.5475
C52 C 0.11122(15) 0.1200(3) 0.49852(12)
H38 H 0.1275 0.0854 0.5238
C53 C 0.05302(16) 0.1705(4) 0.44357(13)
H39 H 0.0205 0.1767 0.4235
C54 C 0.10031(17) 0.2244(4) 0.44160(13)
H40 H 0.1064 0.2736 0.4206
C55 C 0.19503(15) 0.2225(3) 0.48899(13)
C56 C 0.21965(17) 0.2259(4) 0.53149(13)
H41 H 0.1992 0.2094 0.5528
C57 C 0.22523(17) 0.2463(4) 0.45721(13)
H42 H 0.2085 0.2436 0.4284
N12 N 0.05950(12) 0.1050(3) 0.47937(10)
N13 N 0.13775(12) 0.1914(3) 0.47714(10)
C84 C 0.88108(14) 0.0595(3) 0.70919(12)
H56 H 0.8552 0.0651 0.7273
H59 H 0.9730 0.3512 0.7036
C88 C 0.96070(14) 0.1289(3) 0.68330(12)
C89 C 0.92211(14) 0.1376(3) 0.71039(12)
H60 H 0.9237 0.1957 0.7293
C90 C 0.95731(16) 0.0445(4) 0.65442(14)
H61 H 0.9825 0.0399 0.6357
O18 O 0.45638(12) 0.4968(3) 0.43372(9)
H63 H 0.4701(18) 0.426(4) 0.4272(14)
H64 H 0.427(2) 0.486(4) 0.4267(16)
Co5 Co 0.17049(2) 0.71203(4) 0.17738(2)
Co9 Co -0.0000 0.0000 0.5000
N19 N 0.55950(12) 0.6050(3) 0.47937(10)
O19 O 0.30593(12) 0.2589(2) 0.25529(8)
O21 O 0.31346(11) 0.0848(2) 0.26922(8)
O23 O 0.54779(10) 0.3690(2) 0.48796(8)
N20 N 0.41305(12) 0.2284(2) 0.31591(10)
C27 C 0.11892(14) 0.9405(3) 0.29081(12)
H14 H 0.1448 0.9349 0.2727
H16 H 0.3074 0.9767 0.3657
C30 C 0.3717(2) 0.9614(4) 0.41602(17)
H17 H 0.3677 0.8925 0.4270
C32 C 0.4822(2) 0.9183(4) 0.47166(14)
H18 H 0.4702 0.8624 0.4525
H27 H 0.0270 0.6488 0.2964
C43 C 0.03930(14) 0.8711(3) 0.31670(12)
C44 C 0.07789(14) 0.8624(3) 0.28961(12)
H28 H 0.0763 0.8043 0.2707
C45 C 0.04269(16) 0.9555(4) 0.34558(14)
H29 H 0.0175 0.9601 0.3643
C46 C 0.59776(15) 0.8773(3) 0.59459(11)
H33 H 0.5757 0.8155 0.5916
C47 C 0.6615(2) 0.9914(4) 0.61783(18)
C49 C 0.54268(16) 0.9830(3) 0.53382(12)
C51 C 0.5255(2) 0.9009(4) 0.50571(14)
H37 H 0.5427 0.8336 0.5094
N10 N 0.64249(12) 0.8899(3) 0.62424(10)
N11 N 0.58790(13) 0.9649(3) 0.56918(10)
C58 C 0.76085(16) 0.2162(3) 0.58987(11)
C59 C 0.80620(17) 0.1481(4) 0.59369(13)
H43 H 0.8344 0.1516 0.6176
C60 C 0.8086(2) 0.0741(4) 0.56085(15)
H44 H 0.8387 0.0275 0.5625
C61 C 0.76644(19) 0.0701(4) 0.52606(14)
H45 H 0.7676 0.0207 0.5040
C62 C 0.72181(16) 0.1406(3) 0.52397(12)
C63 C 0.67412(16) 0.1427(3) 0.48768(12)
C64 C 0.66891(17) 0.0707(3) 0.45309(13)
H46 H 0.6958 0.0179 0.4526
C65 C 0.6243(2) 0.0770(4) 0.41954(14)
C66 C 0.58344(18) 0.1553(3) 0.41999(14)
H47 H 0.5539 0.1605 0.3970
C67 C 0.58681(16) 0.2251(3) 0.45453(12)
C68 C 0.63223(16) 0.2195(3) 0.48766(12)
H48 H 0.6349 0.2681 0.5105
C69 C 0.54219(15) 0.3086(3) 0.45557(12)
C70 C 0.6226(3) 0.0013(5) 0.38278(17)
C71 C 0.75445(15) 0.2976(3) 0.62316(11)
C72 C 0.77993(16) 0.2835(3) 0.66598(12)
H49 H 0.8010 0.2216 0.6738
C73 C 0.77453(15) 0.3596(3) 0.69710(11)
C74 C 0.79990(15) 0.3382(3) 0.74301(11)
C75 C 0.74201(15) 0.4519(3) 0.68572(11)
H50 H 0.7386 0.5037 0.7065
C76 C 0.71489(14) 0.4664(3) 0.64349(11)
C77 C 0.72142(15) 0.3887(3) 0.61251(11)
H51 H 0.7033 0.3982 0.5842
C78 C 0.67826(13) 0.5640(3) 0.63162(11)
C79 C 0.78426(14) 0.9057(3) 0.68324(12)
H52 H 0.7697 0.9704 0.6914
C80 C 0.79233(16) 0.7410(3) 0.66494(14)
H53 H 0.7838 0.6690 0.6580
C81 C 0.84229(17) 0.7863(3) 0.66651(15)
H54 H 0.8741 0.7526 0.6607
C82 C 0.87893(14) 0.9739(3) 0.68103(12)
C83 C 0.91655(16) 0.9665(4) 0.65313(14)
H55 H 0.9144 0.9094 0.6337
Co3 Co 0.67049(2) 0.78797(4) 0.67738(2)
N14 N 0.71960(13) 0.2118(2) 0.55552(9)
N15 N 0.75559(12) 0.8160(3) 0.67495(10)
N16 N 0.83712(12) 0.8926(3) 0.67843(10)
O10 O 0.67615(11) 0.6306(2) 0.66132(8)
O11 O 0.65266(12) 0.5722(2) 0.59408(9)
O12 O 0.80593(12) 0.2411(2) 0.75529(8)
O13 O 0.81346(11) 0.4152(2) 0.76922(8)
O15 O 0.50281(12) 0.3119(3) 0.42407(9)
O16 O 0.5904(4) 0.0331(7) 0.3477(2)
Co7 Co 0.82951(2) 0.28797(4) 0.82262(2)
Co9_2 Co -0.0000 1.0000 0.5000
O20 O 0.69407(12) 0.7411(2) 0.74471(8)
O22 O 0.68654(11) 0.9152(2) 0.73078(8)
N21 N 0.58695(12) 0.7716(2) 0.68409(10)
Co9_3 Co 1.0000 0.0000 0.5000
C40 C 0.94418(14) 0.8141(3) 0.32215(12)
H25 H 0.9323 0.8809 0.3306
C41 C 0.94618(17) 0.6479(4) 0.30464(15)
H26 H 0.9351 0.5767 0.2987
C42 C 0.99718(17) 0.6869(4) 0.30345(15)
N6 N 0.99611(12) 0.7943(3) 0.31475(10)
N9 N 0.91305(12) 0.7284(2) 0.31591(10)
Co4 Co 0.82951(2) 0.71203(4) 0.32262(2)
Co9_4 Co 1.0000 1.0000 0.5000
Co9_5 Co 0.0000 0.0000 0.0000
Co9_6 Co -0.0000 0.0000 1.0000
C40_2 C 0.05582(14) 0.8141(3) 0.17785(12)
H25_2 H 0.0677 0.8809 0.1694
C41_2 C 0.05382(17) 0.6479(4) 0.19536(15)
H26_2 H 0.0649 0.5767 0.2013
C42_2 C 0.00282(17) 0.6869(4) 0.19655(15)
N6_2 N 0.00389(12) 0.7943(3) 0.18525(10)
N9_2 N 0.08695(12) 0.7284(2) 0.18409(10)
Co9_7 Co 0.0000 1.0000 0.0000
Co9_8 Co -0.0000 1.0000 1.0000
C1_2 C 0.76085(16) 0.7838(3) 0.08987(11)
C2_2 C 0.80620(17) 0.8519(4) 0.09369(13)
H1_2 H 0.8344 0.8484 0.1176
C3_2 C 0.8086(2) 0.9259(4) 0.06085(15)
H2_2 H 0.8387 0.9725 0.0625
C4_2 C 0.76644(19) 0.9299(4) 0.02606(14)
H3_2 H 0.7676 0.9793 0.0040
C5_2 C 0.72181(16) 0.8594(3) 0.02397(12)
H6_2 H 0.6349 0.7319 0.0105
C14_2 C 0.75445(15) 0.7024(3) 0.12316(11)
C15_2 C 0.77993(16) 0.7165(3) 0.16598(12)
H7_2 H 0.8010 0.7784 0.1738
C16_2 C 0.77453(15) 0.6404(3) 0.19710(11)
C17_2 C 0.79990(15) 0.6618(3) 0.24301(11)
C18_2 C 0.74201(15) 0.5481(3) 0.18572(11)
H8_2 H 0.7386 0.4963 0.2065
C19_2 C 0.71489(14) 0.5336(3) 0.14349(11)
C20_2 C 0.72142(15) 0.6113(3) 0.11251(11)
H9_2 H 0.7033 0.6018 0.0842
C21_2 C 0.67826(13) 0.4360(3) 0.13162(11)
C22_2 C 0.78426(14) 0.0943(3) 0.18324(12)
H10_2 H 0.7697 0.0296 0.1914
C23_2 C 0.79233(16) 0.2590(3) 0.16494(14)
H11_2 H 0.7838 0.3310 0.1580
C24_2 C 0.84229(17) 0.2137(3) 0.16651(15)
H12_2 H 0.8741 0.2474 0.1607
C25_2 C 0.87893(14) 0.0261(3) 0.18103(12)
C26_2 C 0.91655(16) 0.0335(4) 0.15313(14)
H13_2 H 0.9144 0.0906 0.1337
C28_2 C 0.59776(15) 0.1227(3) 0.09459(11)
H15_2 H 0.5757 0.1845 0.0916
C29_2 C 0.6615(2) 0.0086(4) 0.11783(18)
C31_2 C 0.54268(16) 0.0170(3) 0.03382(12)
C33_2 C 0.5255(2) 0.0991(4) 0.00571(14)
H19_2 H 0.5427 0.1664 0.0094
H20_2 H 0.6275 0.4146 0.0238
C38_2 C 0.71965(17) 0.2741(4) 0.03149(13)
H23_2 H 0.6992 0.2906 0.0528
Co1_2 Co 0.67049(2) 0.21203(4) 0.17738(2)
Co2_2 Co 0.5000 0.5000 0.0000
N1_2 N 0.71960(13) 0.7882(2) 0.05552(9)
N2_2 N 0.75559(12) 0.1840(3) 0.17495(10)
N3_2 N 0.83712(12) 0.1074(3) 0.17843(10)
N4_2 N 0.64249(12) 0.1101(3) 0.12424(10)
N5_2 N 0.58790(13) 0.0351(3) 0.06918(10)
O1_2 O 0.67615(11) 0.3694(2) 0.16132(8)
O2_2 O 0.65266(12) 0.4278(2) 0.09408(9)
O3_2 O 0.80593(12) 0.7589(2) 0.25529(8)
O4_2 O 0.81346(11) 0.5848(2) 0.26922(8)
C52_2 C 0.88878(15) 0.1200(3) 0.00148(12)
C53_2 C 0.94698(16) 0.1705(4) 0.05643(13)
H39_2 H 0.9795 0.1767 0.0765
C54_2 C 0.89969(17) 0.2244(4) 0.05840(13)
H40_2 H 0.8936 0.2736 0.0794
C55_2 C 0.80497(15) 0.2225(3) 0.01101(13)
C57_2 C 0.77477(17) 0.2463(4) 0.04279(13)
H42_2 H 0.7915 0.2436 0.0716
N12_2 N 0.94050(12) 0.1050(3) 0.02063(10)
N13_2 N 0.86225(12) 0.1914(3) 0.02286(10)
O18_2 O 0.54362(12) 0.4968(3) 0.06628(9)
H63_2 H 0.5299(18) 0.426(4) 0.0728(14)
H64_2 H 0.573(2) 0.486(4) 0.0733(16)
Co9_9 Co 1.0000 0.0000 0.0000
N19_2 N 0.44050(12) 0.6050(3) 0.02063(10)
O19_2 O 0.69407(12) 0.2589(2) 0.24471(8)
O21_2 O 0.68654(11) 0.0848(2) 0.23078(8)
O23_2 O 0.45221(10) 0.3690(2) 0.01204(8)
N20_2 N 0.58695(12) 0.2284(2) 0.18409(10)
C6_2 C 0.67412(16) 0.8573(3) 0.98768(12)
C7_2 C 0.66891(17) 0.9293(3) 0.95309(13)
H4_2 H 0.6958 0.9821 0.9526
C8_2 C 0.6243(2) 0.9230(4) 0.91954(14)
C9_2 C 0.58344(18) 0.8447(3) 0.91999(14)
H5_2 H 0.5539 0.8395 0.8970
C10_2 C 0.58681(16) 0.7749(3) 0.95453(12)
C11_2 C 0.63223(16) 0.7805(3) 0.98766(12)
C12_2 C 0.54219(15) 0.6914(3) 0.95557(12)
C13_2 C 0.6226(3) 0.9987(5) 0.88278(17)
C34_2 C 0.61122(15) 0.3800(3) 0.99852(12)
C35_2 C 0.55302(16) 0.3295(4) 0.94357(13)
H21_2 H 0.5205 0.3233 0.9235
C36_2 C 0.60031(17) 0.2756(4) 0.94160(13)
H22_2 H 0.6064 0.2264 0.9206
C37_2 C 0.69503(15) 0.2775(3) 0.98899(13)
C39_2 C 0.72523(17) 0.2537(4) 0.95721(13)
H24_2 H 0.7085 0.2564 0.9284
Co2_3 Co 0.5000 0.5000 1.0000
N7_2 N 0.55950(12) 0.3950(3) 0.97937(10)
N8_2 N 0.63775(12) 0.3086(3) 0.97714(10)
O5_2 O 0.54779(10) 0.6310(2) 0.98796(8)
O6_2 O 0.50281(12) 0.6881(3) 0.92407(9)
O7_2 O 0.5904(4) 0.9669(7) 0.8477(2)
O9_2 O 0.45638(12) 0.5032(3) 0.93372(9)
H31_2 H 0.4701(18) 0.574(4) 0.9272(14)
H32_2 H 0.427(2) 0.514(4) 0.9267(16)
H34_2 H 0.3074 0.0233 0.8657
C48_2 C 0.3717(2) 0.0386(4) 0.91602(17)
H35_2 H 0.3677 0.1075 0.9270
C50_2 C 0.4822(2) 0.0817(4) 0.97166(14)
H36_2 H 0.4702 0.1376 0.9525
H38_2 H 0.8725 0.0854 0.9762
C56_2 C 0.78035(17) 0.2259(4) 0.96851(13)
H41_2 H 0.8008 0.2094 0.9472
C84_2 C 0.11892(14) 0.0595(3) 0.79081(12)
H56_2 H 0.1448 0.0651 0.7727
H59_2 H 0.0270 0.3512 0.7964
C88_2 C 0.03930(14) 0.1289(3) 0.81670(12)
C89_2 C 0.07789(14) 0.1376(3) 0.78961(12)
H60_2 H 0.0763 0.1957 0.7707
C90_2 C 0.04269(16) 0.0445(4) 0.84558(14)
H61_2 H 0.0175 0.0399 0.8643
Co9_10 Co 1.0000 0.0000 1.0000
C27_2 C 0.88108(14) 0.9405(3) 0.20919(12)
H14_2 H 0.8552 0.9349 0.2273
H16_2 H 0.6926 0.9767 0.1343
C30_2 C 0.6283(2) 0.9614(4) 0.08398(17)
H17_2 H 0.6323 0.8925 0.0730
C32_2 C 0.5178(2) 0.9183(4) 0.02834(14)
H18_2 H 0.5298 0.8624 0.0475
H27_2 H 0.9730 0.6488 0.2036
C43_2 C 0.96070(14) 0.8711(3) 0.18330(12)
C44_2 C 0.92211(14) 0.8624(3) 0.21039(12)
H28_2 H 0.9237 0.8043 0.2293
C45_2 C 0.95731(16) 0.9555(4) 0.15442(14)
H29_2 H 0.9825 0.9601 0.1357
C63_2 C 0.32588(16) 0.1427(3) 0.01232(12)
C64_2 C 0.33109(17) 0.0707(3) 0.04691(13)
H46_2 H 0.3042 0.0179 0.0474
C65_2 C 0.3757(2) 0.0770(4) 0.08046(14)
C66_2 C 0.41656(18) 0.1553(3) 0.08001(14)
H47_2 H 0.4461 0.1605 0.1030
C67_2 C 0.41319(16) 0.2251(3) 0.04547(12)
C68_2 C 0.36777(16) 0.2195(3) 0.01234(12)
C69_2 C 0.45781(15) 0.3086(3) 0.04443(12)
C70_2 C 0.3774(3) 0.0013(5) 0.11722(17)
O15_2 O 0.49719(12) 0.3119(3) 0.07593(9)
O16_2 O 0.4096(4) 0.0331(7) 0.1523(2)
Co9_11 Co 1.0000 1.0000 0.0000
C46_2 C 0.40224(15) 0.8773(3) 0.90541(11)
H33_2 H 0.4243 0.8155 0.9084
C47_2 C 0.3385(2) 0.9914(4) 0.88217(18)
C49_2 C 0.45732(16) 0.9830(3) 0.96618(12)
C51_2 C 0.4745(2) 0.9009(4) 0.99429(14)
H37_2 H 0.4573 0.8336 0.9906
N10_2 N 0.35751(12) 0.8899(3) 0.87576(10)
N11_2 N 0.41210(13) 0.9649(3) 0.93082(10)
C58_2 C 0.23915(16) 0.2162(3) 0.91013(11)
C59_2 C 0.19380(17) 0.1481(4) 0.90631(13)
H43_2 H 0.1656 0.1516 0.8824
C60_2 C 0.1914(2) 0.0741(4) 0.93915(15)
H44_2 H 0.1613 0.0275 0.9375
C61_2 C 0.23356(19) 0.0701(4) 0.97394(14)
H45_2 H 0.2324 0.0207 0.9960
C62_2 C 0.27819(16) 0.1406(3) 0.97603(12)
H48_2 H 0.3651 0.2681 0.9895
C71_2 C 0.24555(15) 0.2976(3) 0.87684(11)
C72_2 C 0.22007(16) 0.2835(3) 0.83402(12)
H49_2 H 0.1990 0.2216 0.8262
C73_2 C 0.22547(15) 0.3596(3) 0.80290(11)
C74_2 C 0.20010(15) 0.3382(3) 0.75699(11)
C75_2 C 0.25799(15) 0.4519(3) 0.81428(11)
H50_2 H 0.2614 0.5037 0.7935
C76_2 C 0.28511(14) 0.4664(3) 0.85651(11)
C77_2 C 0.27858(15) 0.3887(3) 0.88749(11)
H51_2 H 0.2967 0.3982 0.9158
C78_2 C 0.32174(13) 0.5640(3) 0.86838(11)
C79_2 C 0.21574(14) 0.9057(3) 0.81676(12)
H52_2 H 0.2303 0.9704 0.8086
C80_2 C 0.20767(16) 0.7410(3) 0.83506(14)
H53_2 H 0.2162 0.6690 0.8420
C81_2 C 0.15771(17) 0.7863(3) 0.83349(15)
H54_2 H 0.1259 0.7526 0.8393
C82_2 C 0.12107(14) 0.9739(3) 0.81897(12)
C83_2 C 0.08345(16) 0.9665(4) 0.84687(14)
H55_2 H 0.0856 0.9094 0.8663
Co3_2 Co 0.32951(2) 0.78797(4) 0.82262(2)
N14_2 N 0.28040(13) 0.2118(2) 0.94448(9)
N15_2 N 0.24441(12) 0.8160(3) 0.82505(10)
N16_2 N 0.16288(12) 0.8926(3) 0.82157(10)
O10_2 O 0.32385(11) 0.6306(2) 0.83868(8)
O11_2 O 0.34734(12) 0.5722(2) 0.90592(9)
O12_2 O 0.19407(12) 0.2411(2) 0.74471(8)
O13_2 O 0.18654(11) 0.4152(2) 0.73078(8)
Co9_12 Co 1.0000 1.0000 1.0000
O20_2 O 0.30593(12) 0.7411(2) 0.75529(8)
O22_2 O 0.31346(11) 0.9152(2) 0.76922(8)
N21_2 N 0.41305(12) 0.7716(2) 0.81591(10)
C85_2 C 0.94418(14) 0.1859(3) 0.82215(12)
H57_2 H 0.9323 0.1191 0.8306
C86_2 C 0.94618(17) 0.3521(4) 0.80464(15)
H58_2 H 0.9351 0.4233 0.7987
C87_2 C 0.99718(17) 0.3131(4) 0.80345(15)
N17_2 N 0.99611(12) 0.2057(3) 0.81475(10)
N18_2 N 0.91305(12) 0.2716(2) 0.81591(10)
O9_3 O 0.04362(12) 0.0032(3) 0.56628(9)
H31_3 H 0.0299(18) 0.074(4) 0.5728(14)
H32_3 H 0.073(2) 0.014(4) 0.5733(16)
C46_3 C 0.09776(15) 0.3773(3) 0.59459(11)
H33_3 H 0.0757 0.3155 0.5916
C47_3 C 0.1615(2) 0.4914(4) 0.61783(18)
H34_3 H 0.1926 0.5233 0.6343
C48_3 C 0.1283(2) 0.5386(4) 0.58398(17)
H35_3 H 0.1323 0.6075 0.5730
C49_3 C 0.04268(16) 0.4830(3) 0.53382(12)
C50_3 C 0.0178(2) 0.5817(4) 0.52834(14)
H36_3 H 0.0298 0.6376 0.5475
C51_3 C 0.0255(2) 0.4009(4) 0.50571(14)
H37_3 H 0.0427 0.3336 0.5094
N10_3 N 0.14249(12) 0.3899(3) 0.62424(10)
N11_3 N 0.08790(13) 0.4649(3) 0.56918(10)
H50_3 H 0.2386 0.0037 0.7065
C78_3 C 0.17826(13) 0.0640(3) 0.63162(11)
C79_3 C 0.28426(14) 0.4057(3) 0.68324(12)
H52_3 H 0.2697 0.4704 0.6914
C80_3 C 0.29233(16) 0.2410(3) 0.66494(14)
H53_3 H 0.2838 0.1690 0.6580
C81_3 C 0.34229(17) 0.2863(3) 0.66651(15)
H54_3 H 0.3741 0.2526 0.6607
C82_3 C 0.37893(14) 0.4739(3) 0.68103(12)
C83_3 C 0.41655(16) 0.4665(4) 0.65313(14)
H55_3 H 0.4144 0.4094 0.6337
C84_3 C 0.38108(14) 0.5595(3) 0.70919(12)
H56_3 H 0.3552 0.5651 0.7273
C85_3 C 0.55582(14) 0.6859(3) 0.67785(12)
H57_3 H 0.5677 0.6191 0.6694
C86_3 C 0.55382(17) 0.8521(4) 0.69536(15)
H58_3 H 0.5649 0.9233 0.7013
C87_3 C 0.50282(17) 0.8131(4) 0.69655(15)
H59_3 H 0.4730 0.8512 0.7036
C88_3 C 0.46070(14) 0.6289(3) 0.68330(12)
C89_3 C 0.42211(14) 0.6376(3) 0.71039(12)
H60_3 H 0.4237 0.6957 0.7293
C90_3 C 0.45731(16) 0.5445(4) 0.65442(14)
H61_3 H 0.4825 0.5399 0.6357
N15_3 N 0.25559(12) 0.3160(3) 0.67495(10)
N16_3 N 0.33712(12) 0.3926(3) 0.67843(10)
N17_3 N 0.50389(12) 0.7057(3) 0.68525(10)
O10_3 O 0.17615(11) 0.1306(2) 0.66132(8)
O11_3 O 0.15266(12) 0.0722(2) 0.59408(9)
O23_3 O 0.04779(10) 0.8690(2) 0.48796(8)
C58_3 C 0.26085(16) 0.7162(3) 0.58987(11)
C59_3 C 0.30620(17) 0.6481(4) 0.59369(13)
H43_3 H 0.3344 0.6516 0.6176
C60_3 C 0.3086(2) 0.5741(4) 0.56085(15)
H44_3 H 0.3387 0.5275 0.5625
C61_3 C 0.26644(19) 0.5701(4) 0.52606(14)
H45_3 H 0.2676 0.5207 0.5040
C62_3 C 0.22181(16) 0.6406(3) 0.52397(12)
C63_3 C 0.17412(16) 0.6427(3) 0.48768(12)
C64_3 C 0.16891(17) 0.5707(3) 0.45309(13)
H46_3 H 0.1958 0.5179 0.4526
C65_3 C 0.1243(2) 0.5770(4) 0.41954(14)
C66_3 C 0.08344(18) 0.6553(3) 0.41999(14)
H47_3 H 0.0539 0.6605 0.3970
C67_3 C 0.08681(16) 0.7251(3) 0.45453(12)
C68_3 C 0.13223(16) 0.7195(3) 0.48766(12)
H48_3 H 0.1349 0.7681 0.5105
C69_3 C 0.04219(15) 0.8086(3) 0.45557(12)
C70_3 C 0.1226(3) 0.5013(5) 0.38278(17)
C71_3 C 0.25445(15) 0.7976(3) 0.62316(11)
C72_3 C 0.27993(16) 0.7835(3) 0.66598(12)
H49_3 H 0.3010 0.7216 0.6738
C73_3 C 0.27453(15) 0.8596(3) 0.69710(11)
C74_3 C 0.29990(15) 0.8382(3) 0.74301(11)
C75_3 C 0.24201(15) 0.9519(3) 0.68572(11)
C76_3 C 0.21489(14) 0.9664(3) 0.64349(11)
C77_3 C 0.22142(15) 0.8887(3) 0.61251(11)
H51_3 H 0.2033 0.8982 0.5842
N14_3 N 0.21960(13) 0.7118(2) 0.55552(9)
O15_3 O 0.00281(12) 0.8119(3) 0.42407(9)
O16_3 O 0.0904(4) 0.5331(7) 0.3477(2)
H62 H 0.0959 0.4955 0.3274
O17 O 0.14793(17) 0.4215(3) 0.38359(11)
C1_3 C 0.73915(16) 0.2838(3) 0.41013(11)
C2_3 C 0.69380(17) 0.3519(4) 0.40631(13)
H1_3 H 0.6656 0.3484 0.3824
C3_3 C 0.6914(2) 0.4259(4) 0.43915(15)
H2_3 H 0.6613 0.4725 0.4375
C4_3 C 0.73356(19) 0.4299(4) 0.47394(14)
H3_3 H 0.7324 0.4793 0.4960
C5_3 C 0.77819(16) 0.3594(3) 0.47603(12)
C6_3 C 0.82588(16) 0.3573(3) 0.51232(12)
C7_3 C 0.83109(17) 0.4293(3) 0.54691(13)
H4_3 H 0.8042 0.4821 0.5474
C8_3 C 0.8757(2) 0.4230(4) 0.58046(14)
C9_3 C 0.91656(18) 0.3447(3) 0.58001(14)
H5_3 H 0.9461 0.3395 0.6030
C10_3 C 0.91319(16) 0.2749(3) 0.54547(12)
C11_3 C 0.86777(16) 0.2805(3) 0.51234(12)
H6_3 H 0.8651 0.2319 0.4895
C12_3 C 0.95781(15) 0.1914(3) 0.54443(12)
C13_3 C 0.8774(3) 0.4987(5) 0.61722(17)
C14_3 C 0.74555(15) 0.2024(3) 0.37684(11)
C15_3 C 0.72007(16) 0.2165(3) 0.33402(12)
H7_3 H 0.6990 0.2784 0.3262
C16_3 C 0.72547(15) 0.1404(3) 0.30290(11)
C17_3 C 0.70010(15) 0.1618(3) 0.25699(11)
C18_3 C 0.75799(15) 0.0481(3) 0.31428(11)
C19_3 C 0.78511(14) 0.0336(3) 0.35651(11)
C20_3 C 0.77858(15) 0.1113(3) 0.38749(11)
H9_3 H 0.7967 0.1018 0.4158
N1_3 N 0.78040(13) 0.2882(2) 0.44448(9)
O5_3 O 0.95221(10) 0.1310(2) 0.51204(8)
O6_3 O 0.99719(12) 0.1881(3) 0.57593(9)
O7_3 O 0.9096(4) 0.4669(7) 0.6523(2)
H30 H 0.9041 0.5045 0.6726
O8 O 0.85207(17) 0.5785(3) 0.61641(11)
H8_3 H 0.7614 0.9963 0.2935
C21_3 C 0.82174(13) 0.9360(3) 0.36838(11)
C22_3 C 0.71574(14) 0.5943(3) 0.31676(12)
H10_3 H 0.7303 0.5296 0.3086
C23_3 C 0.70767(16) 0.7590(3) 0.33506(14)
H11_3 H 0.7162 0.8310 0.3420
C24_3 C 0.65771(17) 0.7137(3) 0.33349(15)
H12_3 H 0.6259 0.7474 0.3393
C25_3 C 0.62107(14) 0.5261(3) 0.31897(12)
C26_3 C 0.58345(16) 0.5335(4) 0.34687(14)
H13_3 H 0.5856 0.5906 0.3663
C27_3 C 0.61892(14) 0.4405(3) 0.29081(12)
H14_3 H 0.6448 0.4349 0.2727
C28_3 C 0.90224(15) 0.6227(3) 0.40541(11)
H15_3 H 0.9243 0.6845 0.4084
C29_3 C 0.8385(2) 0.5086(4) 0.38217(18)
H16_3 H 0.8074 0.4767 0.3657
C30_3 C 0.8717(2) 0.4614(4) 0.41602(17)
H17_3 H 0.8677 0.3925 0.4270
C31_3 C 0.95732(16) 0.5170(3) 0.46618(12)
C32_3 C 0.9822(2) 0.4183(4) 0.47166(14)
H18_3 H 0.9702 0.3624 0.4525
C33_3 C 0.9745(2) 0.5991(4) 0.49429(14)
H19_3 H 0.9573 0.6664 0.4906
C34_3 C 0.88878(15) 0.8800(3) 0.50148(12)
H20_3 H 0.8725 0.9146 0.4762
C35_3 C 0.94698(16) 0.8295(4) 0.55643(13)
H21_3 H 0.9795 0.8233 0.5765
C36_3 C 0.89969(17) 0.7756(4) 0.55840(13)
H22_3 H 0.8936 0.7264 0.5794
C37_3 C 0.80497(15) 0.7775(3) 0.51101(13)
C38_3 C 0.78035(17) 0.7741(4) 0.46851(13)
H23_3 H 0.8008 0.7906 0.4472
C39_3 C 0.77477(17) 0.7537(4) 0.54279(13)
H24_3 H 0.7915 0.7564 0.5716
C40_3 C 0.44418(14) 0.3141(3) 0.32215(12)
H25_3 H 0.4323 0.3809 0.3306
C41_3 C 0.44618(17) 0.1479(4) 0.30464(15)
H26_3 H 0.4351 0.0767 0.2987
C42_3 C 0.49718(17) 0.1869(4) 0.30345(15)
H27_3 H 0.5270 0.1488 0.2964
C43_3 C 0.53930(14) 0.3711(3) 0.31670(12)
C44_3 C 0.57789(14) 0.3624(3) 0.28961(12)
H28_3 H 0.5763 0.3043 0.2707
C45_3 C 0.54269(16) 0.4555(4) 0.34558(14)
H29_3 H 0.5175 0.4601 0.3643
N2_3 N 0.74441(12) 0.6840(3) 0.32505(10)
N3_3 N 0.66288(12) 0.6074(3) 0.32157(10)
N4_3 N 0.85751(12) 0.6101(3) 0.37576(10)
N5_3 N 0.91210(13) 0.5351(3) 0.43082(10)
N6_3 N 0.49611(12) 0.2943(3) 0.31475(10)
N7_3 N 0.94050(12) 0.8950(3) 0.52063(10)
N8_3 N 0.86225(12) 0.8086(3) 0.52286(10)
O1_3 O 0.82385(11) 0.8694(2) 0.33868(8)
O2_3 O 0.84734(12) 0.9278(2) 0.40592(9)
C52_3 C 0.61122(15) 0.6200(3) 0.49852(12)
H38_3 H 0.6275 0.5854 0.5238
C53_3 C 0.55302(16) 0.6705(4) 0.44357(13)
H39_3 H 0.5205 0.6767 0.4235
C54_3 C 0.60031(17) 0.7244(4) 0.44160(13)
H40_3 H 0.6064 0.7736 0.4206
C55_3 C 0.69503(15) 0.7225(3) 0.48899(13)
C56_3 C 0.71965(17) 0.7259(4) 0.53149(13)
H41_3 H 0.6992 0.7094 0.5528
C57_3 C 0.72523(17) 0.7463(4) 0.45721(13)
H42_3 H 0.7085 0.7436 0.4284
N13_3 N 0.63775(12) 0.6914(3) 0.47714(10)
O18_3 O 0.95638(12) 0.9968(3) 0.43372(9)
H63_3 H 0.9701(18) 0.926(4) 0.4272(14)
H64_3 H 0.927(2) 0.986(4) 0.4267(16)
C1_4 C 0.26085(16) 0.2838(3) 0.08987(11)
C2_4 C 0.30620(17) 0.3519(4) 0.09369(13)
H1_4 H 0.3344 0.3484 0.1176
C3_4 C 0.3086(2) 0.4259(4) 0.06085(15)
H2_4 H 0.3387 0.4725 0.0625
C4_4 C 0.26644(19) 0.4299(4) 0.02606(14)
H3_4 H 0.2676 0.4793 0.0040
C5_4 C 0.22181(16) 0.3594(3) 0.02397(12)
H6_4 H 0.1349 0.2319 0.0105
C14_4 C 0.25445(15) 0.2024(3) 0.12316(11)
C15_4 C 0.27993(16) 0.2165(3) 0.16598(12)
H7_4 H 0.3010 0.2784 0.1738
C16_4 C 0.27453(15) 0.1404(3) 0.19710(11)
C17_4 C 0.29990(15) 0.1618(3) 0.24301(11)
C18_4 C 0.24201(15) 0.0481(3) 0.18572(11)
C19_4 C 0.21489(14) 0.0336(3) 0.14349(11)
C20_4 C 0.22142(15) 0.1113(3) 0.11251(11)
H9_4 H 0.2033 0.1018 0.0842
N1_4 N 0.21960(13) 0.2882(2) 0.05552(9)
C6_4 C 0.17412(16) 0.3573(3) 0.98768(12)
C7_4 C 0.16891(17) 0.4293(3) 0.95309(13)
H4_4 H 0.1958 0.4821 0.9526
C8_4 C 0.1243(2) 0.4230(4) 0.91954(14)
C9_4 C 0.08344(18) 0.3447(3) 0.91999(14)
H5_4 H 0.0539 0.3395 0.8970
C10_4 C 0.08681(16) 0.2749(3) 0.95453(12)
C11_4 C 0.13223(16) 0.2805(3) 0.98766(12)
C12_4 C 0.04219(15) 0.1914(3) 0.95557(12)
C13_4 C 0.1226(3) 0.4987(5) 0.88278(17)
O5_4 O 0.04779(10) 0.1310(2) 0.98796(8)
O6_4 O 0.00281(12) 0.1881(3) 0.92407(9)
O7_4 O 0.0904(4) 0.4669(7) 0.8477(2)
H30_2 H 0.0959 0.5045 0.8274
O8_2 O 0.14793(17) 0.5785(3) 0.88359(11)
H8_4 H 0.2386 0.9963 0.2065
C21_4 C 0.17826(13) 0.9360(3) 0.13162(11)
C22_4 C 0.28426(14) 0.5943(3) 0.18324(12)
H10_4 H 0.2697 0.5296 0.1914
C23_4 C 0.29233(16) 0.7590(3) 0.16494(14)
H11_4 H 0.2838 0.8310 0.1580
C24_4 C 0.34229(17) 0.7137(3) 0.16651(15)
H12_4 H 0.3741 0.7474 0.1607
C25_4 C 0.37893(14) 0.5261(3) 0.18103(12)
C26_4 C 0.41655(16) 0.5335(4) 0.15313(14)
H13_4 H 0.4144 0.5906 0.1337
C27_4 C 0.38108(14) 0.4405(3) 0.20919(12)
H14_4 H 0.3552 0.4349 0.2273
C28_4 C 0.09776(15) 0.6227(3) 0.09459(11)
H15_4 H 0.0757 0.6845 0.0916
C29_4 C 0.1615(2) 0.5086(4) 0.11783(18)
H16_4 H 0.1926 0.4767 0.1343
C30_4 C 0.1283(2) 0.4614(4) 0.08398(17)
H17_4 H 0.1323 0.3925 0.0730
C31_4 C 0.04268(16) 0.5170(3) 0.03382(12)
C32_4 C 0.0178(2) 0.4183(4) 0.02834(14)
H18_4 H 0.0298 0.3624 0.0475
C33_4 C 0.0255(2) 0.5991(4) 0.00571(14)
H19_4 H 0.0427 0.6664 0.0094
H20_4 H 0.1275 0.9146 0.0238
C38_4 C 0.21965(17) 0.7741(4) 0.03149(13)
H23_4 H 0.1992 0.7906 0.0528
C40_4 C 0.55582(14) 0.3141(3) 0.17785(12)
H25_4 H 0.5677 0.3809 0.1694
C41_4 C 0.55382(17) 0.1479(4) 0.19536(15)
H26_4 H 0.5649 0.0767 0.2013
C42_4 C 0.50282(17) 0.1869(4) 0.19655(15)
H27_4 H 0.4730 0.1488 0.2036
C43_4 C 0.46070(14) 0.3711(3) 0.18330(12)
C44_4 C 0.42211(14) 0.3624(3) 0.21039(12)
H28_4 H 0.4237 0.3043 0.2293
C45_4 C 0.45731(16) 0.4555(4) 0.15442(14)
H29_4 H 0.4825 0.4601 0.1357
N2_4 N 0.25559(12) 0.6840(3) 0.17495(10)
N3_4 N 0.33712(12) 0.6074(3) 0.17843(10)
N4_4 N 0.14249(12) 0.6101(3) 0.12424(10)
N5_4 N 0.08790(13) 0.5351(3) 0.06918(10)
N6_4 N 0.50389(12) 0.2943(3) 0.18525(10)
O1_4 O 0.17615(11) 0.8694(2) 0.16132(8)
O2_4 O 0.15266(12) 0.9278(2) 0.09408(9)
C52_4 C 0.38878(15) 0.6200(3) 0.00148(12)
C53_4 C 0.44698(16) 0.6705(4) 0.05643(13)
H39_4 H 0.4795 0.6767 0.0765
C54_4 C 0.39969(17) 0.7244(4) 0.05840(13)
H40_4 H 0.3936 0.7736 0.0794
C55_4 C 0.30497(15) 0.7225(3) 0.01101(13)
C57_4 C 0.27477(17) 0.7463(4) 0.04279(13)
H42_4 H 0.2915 0.7436 0.0716
N13_4 N 0.36225(12) 0.6914(3) 0.02286(10)
O18_4 O 0.04362(12) 0.9968(3) 0.06628(9)
H63_4 H 0.0299(18) 0.926(4) 0.0728(14)
H64_4 H 0.073(2) 0.986(4) 0.0733(16)
C34_4 C 0.11122(15) 0.8800(3) 0.99852(12)
C35_4 C 0.05302(16) 0.8295(4) 0.94357(13)
H21_4 H 0.0205 0.8233 0.9235
C36_4 C 0.10031(17) 0.7756(4) 0.94160(13)
H22_4 H 0.1064 0.7264 0.9206
C37_4 C 0.19503(15) 0.7775(3) 0.98899(13)
C39_4 C 0.22523(17) 0.7537(4) 0.95721(13)
H24_4 H 0.2085 0.7564 0.9284
N7_4 N 0.05950(12) 0.8950(3) 0.97937(10)
N8_4 N 0.13775(12) 0.8086(3) 0.97714(10)
H38_4 H 0.3725 0.5854 0.9762
C56_4 C 0.28035(17) 0.7259(4) 0.96851(13)
H41_4 H 0.3008 0.7094 0.9472
O9_4 O 0.95638(12) 0.0032(3) 0.93372(9)
H31_4 H 0.9701(18) 0.074(4) 0.9272(14)
H32_4 H 0.927(2) 0.014(4) 0.9267(16)
O23_4 O 0.95221(10) 0.8690(2) 0.01204(8)
C46_4 C 0.90224(15) 0.3773(3) 0.90541(11)
H33_4 H 0.9243 0.3155 0.9084
C47_4 C 0.8385(2) 0.4914(4) 0.88217(18)
H34_4 H 0.8074 0.5233 0.8657
C48_4 C 0.8717(2) 0.5386(4) 0.91602(17)
H35_4 H 0.8677 0.6075 0.9270
C49_4 C 0.95732(16) 0.4830(3) 0.96618(12)
C50_4 C 0.9822(2) 0.5817(4) 0.97166(14)
H36_4 H 0.9702 0.6376 0.9525
C51_4 C 0.9745(2) 0.4009(4) 0.99429(14)
H37_4 H 0.9573 0.3336 0.9906
N10_4 N 0.85751(12) 0.3899(3) 0.87576(10)
N11_4 N 0.91210(13) 0.4649(3) 0.93082(10)
H50_4 H 0.7614 0.0037 0.7935
C78_4 C 0.82174(13) 0.0640(3) 0.86838(11)
C79_4 C 0.71574(14) 0.4057(3) 0.81676(12)
H52_4 H 0.7303 0.4704 0.8086
C80_4 C 0.70767(16) 0.2410(3) 0.83506(14)
H53_4 H 0.7162 0.1690 0.8420
C81_4 C 0.65771(17) 0.2863(3) 0.83349(15)
H54_4 H 0.6259 0.2526 0.8393
C82_4 C 0.62107(14) 0.4739(3) 0.81897(12)
C83_4 C 0.58345(16) 0.4665(4) 0.84687(14)
H55_4 H 0.5856 0.4094 0.8663
C84_4 C 0.61892(14) 0.5595(3) 0.79081(12)
H56_4 H 0.6448 0.5651 0.7727
C85_4 C 0.44418(14) 0.6859(3) 0.82215(12)
H57_4 H 0.4323 0.6191 0.8306
C86_4 C 0.44618(17) 0.8521(4) 0.80464(15)
H58_4 H 0.4351 0.9233 0.7987
C87_4 C 0.49718(17) 0.8131(4) 0.80345(15)
H59_4 H 0.5270 0.8512 0.7964
C88_4 C 0.53930(14) 0.6289(3) 0.81670(12)
C89_4 C 0.57789(14) 0.6376(3) 0.78961(12)
H60_4 H 0.5763 0.6957 0.7707
C90_4 C 0.54269(16) 0.5445(4) 0.84558(14)
H61_4 H 0.5175 0.5399 0.8643
N15_4 N 0.74441(12) 0.3160(3) 0.82505(10)
N16_4 N 0.66288(12) 0.3926(3) 0.82157(10)
N17_4 N 0.49611(12) 0.7057(3) 0.81475(10)
O10_4 O 0.82385(11) 0.1306(2) 0.83868(8)
O11_4 O 0.84734(12) 0.0722(2) 0.90592(9)
C63_4 C 0.82588(16) 0.6427(3) 0.01232(12)
C64_4 C 0.83109(17) 0.5707(3) 0.04691(13)
H46_4 H 0.8042 0.5179 0.0474
C65_4 C 0.8757(2) 0.5770(4) 0.08046(14)
C66_4 C 0.91656(18) 0.6553(3) 0.08001(14)
H47_4 H 0.9461 0.6605 0.1030
C67_4 C 0.91319(16) 0.7251(3) 0.04547(12)
C68_4 C 0.86777(16) 0.7195(3) 0.01234(12)
C69_4 C 0.95781(15) 0.8086(3) 0.04443(12)
C70_4 C 0.8774(3) 0.5013(5) 0.11722(17)
O15_4 O 0.99719(12) 0.8119(3) 0.07593(9)
O16_4 O 0.9096(4) 0.5331(7) 0.1523(2)
H62_2 H 0.9041 0.4955 0.1726
O17_2 O 0.85207(17) 0.4215(3) 0.11641(11)
C58_4 C 0.73915(16) 0.7162(3) 0.91013(11)
C59_4 C 0.69380(17) 0.6481(4) 0.90631(13)
H43_4 H 0.6656 0.6516 0.8824
C60_4 C 0.6914(2) 0.5741(4) 0.93915(15)
H44_4 H 0.6613 0.5275 0.9375
C61_4 C 0.73356(19) 0.5701(4) 0.97394(14)
H45_4 H 0.7324 0.5207 0.9960
C62_4 C 0.77819(16) 0.6406(3) 0.97603(12)
H48_4 H 0.8651 0.7681 0.9895
C71_4 C 0.74555(15) 0.7976(3) 0.87684(11)
C72_4 C 0.72007(16) 0.7835(3) 0.83402(12)
H49_4 H 0.6990 0.7216 0.8262
C73_4 C 0.72547(15) 0.8596(3) 0.80290(11)
C74_4 C 0.70010(15) 0.8382(3) 0.75699(11)
C75_4 C 0.75799(15) 0.9519(3) 0.81428(11)
C76_4 C 0.78511(14) 0.9664(3) 0.85651(11)
C77_4 C 0.77858(15) 0.8887(3) 0.88749(11)
H51_4 H 0.7967 0.8982 0.9158
N14_4 N 0.78040(13) 0.7118(2) 0.94448(9)
H30_3 H 0.4041 0.0045 0.6726
O8_3 O 0.35207(17) 0.0785(3) 0.61641(11)
H62_3 H 0.5959 0.9955 0.3274
O17_3 O 0.64793(17) 0.9215(3) 0.38359(11)
H30_4 H 0.5959 0.0045 0.8274
O8_4 O 0.64793(17) 0.0785(3) 0.88359(11)
H62_4 H 0.4041 0.9955 0.1726
O17_4 O 0.35207(17) 0.9215(3) 0.11641(11)
loop_
_geom_bond_atom_site_label_1
_geom_bond_atom_site_label_2
_geom_bond_site_symmetry_1
_geom_bond_site_symmetry_2
C85 H57 1_555 1_555
C86 H58 1_555 1_555
C87 C86 1_555 1_555
N17 C85 1_555 1_555
N18 C85 1_555 1_555
Co6 N18 1_555 1_555
C86 N18 1_555 1_555
C87 N17 1_555 1_555
C1 C2 1_555 1_555
C2 H1 1_555 1_555
C3 C2 1_555 1_555
H2 C3 1_555 1_555
C4 C3 1_555 1_555
H3 C4 1_555 1_555
C5 C4 1_555 1_555
C6 C5 1_555 1_555
C7 C6 1_555 1_555
H4 C7 1_555 1_555
C8 C7 1_555 1_555
C9 C8 1_555 1_555
H5 C9 1_555 1_555
C10 C9 1_555 1_555
C11 C6 1_555 1_555
H6 C11 1_555 1_555
C12 C10 1_555 1_555
C13 C8 1_555 1_555
C14 C1 1_555 1_555
C15 C14 1_555 1_555
H7 C15 1_555 1_555
C16 C15 1_555 1_555
C17 C16 1_555 1_555
C18 C16 1_555 1_555
H8 C18 1_555 1_555
C19 C18 1_555 1_555
C20 C14 1_555 1_555
H9 C20 1_555 1_555
C21 C19 1_555 1_555
C22 H10 1_555 1_555
C23 H11 1_555 1_555
C24 C23 1_555 1_555
H12 C24 1_555 1_555
C25 C26 1_555 1_555
C26 H13 1_555 1_555
C28 H15 1_555 1_555
C33 C31 1_555 1_555
H19 C33 1_555 1_555
C34 H20 1_555 1_555
C35 H21 1_555 1_555
C36 C35 1_555 1_555
H22 C36 1_555 1_555
C37 C38 1_555 1_555
C38 H23 1_555 1_555
C39 C37 1_555 1_555
H24 C39 1_555 1_555
Co1 N2 1_555 1_555
Co2 N7 1_555 1_555
N1 C1 1_555 1_555
N2 C22 1_555 1_555
N3 C22 1_555 1_555
N4 C28 1_555 1_555
N5 C28 1_555 1_555
N7 C34 1_555 1_555
N8 C34 1_555 1_555
O1 C21 1_555 1_555
O2 C21 1_555 1_555
O3 C17 1_555 1_555
O4 C17 1_555 1_555
O5 C12 1_555 1_555
O6 C12 1_555 1_555
O7 C13 1_555 1_555
O9 Co2 1_555 1_555
H31 O9 1_555 1_555
H32 O9 1_555 1_555
H35 C48 1_555 1_555
C50 C33 1_555 1_555
H36 C50 1_555 1_555
C52 H38 1_555 1_555
C53 H39 1_555 1_555
C54 C53 1_555 1_555
H40 C54 1_555 1_555
C55 C56 1_555 1_555
C56 C39 1_555 1_555
H41 C56 1_555 1_555
C57 C38 1_555 1_555
H42 C57 1_555 1_555
N12 C52 1_555 1_555
N13 C52 1_555 1_555
H56 C84 1_555 1_555
C88 C89 1_555 1_555
C89 C84 1_555 1_555
H60 C89 1_555 1_555
H61 C90 1_555 1_555
O18 Co2 1_555 1_555
H63 O18 1_555 1_555
H64 O18 1_555 1_555
Co5 O3 1_555 1_555
Co9 N12 1_555 1_555
N19 Co2 1_555 1_555
O19 Co1 1_555 1_555
O21 Co1 1_555 1_555
O23 Co2 1_555 1_555
N20 Co1 1_555 1_555
C5 N1 1_555 1_555
C10 C11 1_555 1_555
C19 C20 1_555 1_555
C23 N2 1_555 1_555
C24 N3 1_555 1_555
C25 N3 1_555 1_555
C29 N4 1_555 1_555
C31 N5 1_555 1_555
C35 N7 1_555 1_555
C36 N8 1_555 1_555
C37 N8 1_555 1_555
Co1 N4 1_555 1_555
Co1 O1 1_555 1_555
Co2 O5 1_555 1_555
O4 Co5 1_555 1_555
C53 N12 1_555 1_555
C54 N13 1_555 1_555
C55 C57 1_555 1_555
C55 N13 1_555 1_555
C88 C90 1_555 1_555
H14 C27 1_555 1_555
H17 C30 1_555 1_555
C32 H18 1_555 1_555
C43 C44 1_555 1_555
C44 C27 1_555 1_555
H28 C44 1_555 1_555
H29 C45 1_555 1_555
C46 H33 1_555 1_555
C51 C32 1_555 1_555
H37 C51 1_555 1_555
N10 C46 1_555 1_555
N11 C46 1_555 1_555
C58 C59 1_555 1_555
C59 H43 1_555 1_555
C60 C59 1_555 1_555
H44 C60 1_555 1_555
C61 C60 1_555 1_555
H45 C61 1_555 1_555
C62 C61 1_555 1_555
C63 C62 1_555 1_555
C64 C63 1_555 1_555
H46 C64 1_555 1_555
C65 C64 1_555 1_555
C66 C65 1_555 1_555
H47 C66 1_555 1_555
C67 C66 1_555 1_555
C68 C63 1_555 1_555
H48 C68 1_555 1_555
C69 C67 1_555 1_555
C70 C65 1_555 1_555
C71 C58 1_555 1_555
C72 C71 1_555 1_555
H49 C72 1_555 1_555
C73 C72 1_555 1_555
C74 C73 1_555 1_555
C75 C73 1_555 1_555
H50 C75 1_555 1_555
C76 C75 1_555 1_555
C77 C71 1_555 1_555
H51 C77 1_555 1_555
C78 C76 1_555 1_555
C79 H52 1_555 1_555
C80 H53 1_555 1_555
C81 C80 1_555 1_555
H54 C81 1_555 1_555
C82 C83 1_555 1_555
C83 H55 1_555 1_555
Co3 N10 1_555 1_555
N14 C58 1_555 1_555
N15 C79 1_555 1_555
N16 C79 1_555 1_555
O10 C78 1_555 1_555
O11 C78 1_555 1_555
O12 C74 1_555 1_555
O13 C74 1_555 1_555
O23 C69 1_555 1_555
O15 C69 1_555 1_555
O16 C70 1_555 1_555
Co7 O12 1_555 1_555
O20 Co3 1_555 1_555
O22 Co3 1_555 1_555
N21 Co3 1_555 1_555
C43 C45 1_555 1_555
C47 N10 1_555 1_555
C49 C51 1_555 1_555
C49 N11 1_555 1_555
C62 N14 1_555 1_555
C67 C68 1_555 1_555
C76 C77 1_555 1_555
C80 N15 1_555 1_555
C81 N16 1_555 1_555
C82 N16 1_555 1_555
Co3 N15 1_555 1_555
Co3 O10 1_555 1_555
O13 Co7 1_555 1_555
C40 H25 1_555 1_555
C41 H26 1_555 1_555
C42 C41 1_555 1_555
N6 C40 1_555 1_555
N9 C40 1_555 1_555
Co4 N9 1_555 1_555
C41 N9 1_555 1_555
C42 N6 1_555 1_555
C40_2 H25_2 1_555 1_555
C41_2 H26_2 1_555 1_555
C42_2 C41_2 1_555 1_555
N6_2 C40_2 1_555 1_555
N9_2 C40_2 1_555 1_555
Co5 N9_2 1_555 1_555
C41_2 N9_2 1_555 1_555
C42_2 N6_2 1_555 1_555
C1_2 C2_2 1_555 1_555
C2_2 H1_2 1_555 1_555
C3_2 C2_2 1_555 1_555
H2_2 C3_2 1_555 1_555
C4_2 C3_2 1_555 1_555
H3_2 C4_2 1_555 1_555
C5_2 C4_2 1_555 1_555
C14_2 C1_2 1_555 1_555
C15_2 C14_2 1_555 1_555
H7_2 C15_2 1_555 1_555
C16_2 C15_2 1_555 1_555
C17_2 C16_2 1_555 1_555
C18_2 C16_2 1_555 1_555
H8_2 C18_2 1_555 1_555
C19_2 C18_2 1_555 1_555
C20_2 C14_2 1_555 1_555
H9_2 C20_2 1_555 1_555
C21_2 C19_2 1_555 1_555
C22_2 H10_2 1_555 1_555
C23_2 H11_2 1_555 1_555
C24_2 C23_2 1_555 1_555
H12_2 C24_2 1_555 1_555
C25_2 C26_2 1_555 1_555
C26_2 H13_2 1_555 1_555
C28_2 H15_2 1_555 1_555
C33_2 C31_2 1_555 1_555
H19_2 C33_2 1_555 1_555
C38_2 H23_2 1_555 1_555
Co1_2 N2_2 1_555 1_555
N1_2 C1_2 1_555 1_555
N2_2 C22_2 1_555 1_555
N3_2 C22_2 1_555 1_555
N4_2 C28_2 1_555 1_555
N5_2 C28_2 1_555 1_555
O1_2 C21_2 1_555 1_555
O2_2 C21_2 1_555 1_555
O3_2 C17_2 1_555 1_555
O4_2 C17_2 1_555 1_555
C53_2 H39_2 1_555 1_555
C54_2 C53_2 1_555 1_555
H40_2 C54_2 1_555 1_555
C57_2 C38_2 1_555 1_555
H42_2 C57_2 1_555 1_555
N12_2 C52_2 1_555 1_555
N13_2 C52_2 1_555 1_555
O18_2 Co2_2 1_555 1_555
H63_2 O18_2 1_555 1_555
H64_2 O18_2 1_555 1_555
Co4 O3_2 1_555 1_555
Co9_9 N12_2 1_555 1_555
N19_2 Co2_2 1_555 1_555
O19_2 Co1_2 1_555 1_555
O21_2 Co1_2 1_555 1_555
O23_2 Co2_2 1_555 1_555
N20_2 Co1_2 1_555 1_555
C5_2 N1_2 1_555 1_555
C19_2 C20_2 1_555 1_555
C23_2 N2_2 1_555 1_555
C24_2 N3_2 1_555 1_555
C25_2 N3_2 1_555 1_555
C29_2 N4_2 1_555 1_555
C31_2 N5_2 1_555 1_555
Co1_2 N4_2 1_555 1_555
Co1_2 O1_2 1_555 1_555
O4_2 Co4 1_555 1_555
C53_2 N12_2 1_555 1_555
C54_2 N13_2 1_555 1_555
C55_2 C57_2 1_555 1_555
C55_2 N13_2 1_555 1_555
C7_2 C6_2 1_555 1_555
H4_2 C7_2 1_555 1_555
C8_2 C7_2 1_555 1_555
C9_2 C8_2 1_555 1_555
H5_2 C9_2 1_555 1_555
C10_2 C9_2 1_555 1_555
C11_2 C6_2 1_555 1_555
C12_2 C10_2 1_555 1_555
C13_2 C8_2 1_555 1_555
C35_2 H21_2 1_555 1_555
C36_2 C35_2 1_555 1_555
H22_2 C36_2 1_555 1_555
C39_2 C37_2 1_555 1_555
H24_2 C39_2 1_555 1_555
Co2_3 N7_2 1_555 1_555
N7_2 C34_2 1_555 1_555
N8_2 C34_2 1_555 1_555
O5_2 C12_2 1_555 1_555
O6_2 C12_2 1_555 1_555
O7_2 C13_2 1_555 1_555
O9_2 Co2_3 1_555 1_555
H31_2 O9_2 1_555 1_555
H32_2 O9_2 1_555 1_555
H35_2 C48_2 1_555 1_555
H36_2 C50_2 1_555 1_555
C56_2 C39_2 1_555 1_555
H41_2 C56_2 1_555 1_555
H56_2 C84_2 1_555 1_555
C88_2 C89_2 1_555 1_555
C89_2 C84_2 1_555 1_555
H60_2 C89_2 1_555 1_555
H61_2 C90_2 1_555 1_555
C10_2 C11_2 1_555 1_555
C35_2 N7_2 1_555 1_555
C36_2 N8_2 1_555 1_555
C37_2 N8_2 1_555 1_555
Co2_3 O5_2 1_555 1_555
C88_2 C90_2 1_555 1_555
H14_2 C27_2 1_555 1_555
H17_2 C30_2 1_555 1_555
C32_2 H18_2 1_555 1_555
C43_2 C44_2 1_555 1_555
C44_2 C27_2 1_555 1_555
H28_2 C44_2 1_555 1_555
H29_2 C45_2 1_555 1_555
C64_2 C63_2 1_555 1_555
H46_2 C64_2 1_555 1_555
C65_2 C64_2 1_555 1_555
C66_2 C65_2 1_555 1_555
H47_2 C66_2 1_555 1_555
C67_2 C66_2 1_555 1_555
C68_2 C63_2 1_555 1_555
C69_2 C67_2 1_555 1_555
C70_2 C65_2 1_555 1_555
O23_2 C69_2 1_555 1_555
O15_2 C69_2 1_555 1_555
O16_2 C70_2 1_555 1_555
C43_2 C45_2 1_555 1_555
C67_2 C68_2 1_555 1_555
C46_2 H33_2 1_555 1_555
H37_2 C51_2 1_555 1_555
N10_2 C46_2 1_555 1_555
N11_2 C46_2 1_555 1_555
C58_2 C59_2 1_555 1_555
C59_2 H43_2 1_555 1_555
C60_2 C59_2 1_555 1_555
H44_2 C60_2 1_555 1_555
C61_2 C60_2 1_555 1_555
H45_2 C61_2 1_555 1_555
C62_2 C61_2 1_555 1_555
C71_2 C58_2 1_555 1_555
C72_2 C71_2 1_555 1_555
H49_2 C72_2 1_555 1_555
C73_2 C72_2 1_555 1_555
C74_2 C73_2 1_555 1_555
C75_2 C73_2 1_555 1_555
H50_2 C75_2 1_555 1_555
C76_2 C75_2 1_555 1_555
C77_2 C71_2 1_555 1_555
H51_2 C77_2 1_555 1_555
C78_2 C76_2 1_555 1_555
C79_2 H52_2 1_555 1_555
C80_2 H53_2 1_555 1_555
C81_2 C80_2 1_555 1_555
H54_2 C81_2 1_555 1_555
C82_2 C83_2 1_555 1_555
C83_2 H55_2 1_555 1_555
Co3_2 N10_2 1_555 1_555
N14_2 C58_2 1_555 1_555
N15_2 C79_2 1_555 1_555
N16_2 C79_2 1_555 1_555
O10_2 C78_2 1_555 1_555
O11_2 C78_2 1_555 1_555
O12_2 C74_2 1_555 1_555
O13_2 C74_2 1_555 1_555
Co6 O12_2 1_555 1_555
O20_2 Co3_2 1_555 1_555
O22_2 Co3_2 1_555 1_555
N21_2 Co3_2 1_555 1_555
C47_2 N10_2 1_555 1_555
C49_2 C51_2 1_555 1_555
C49_2 N11_2 1_555 1_555
C62_2 N14_2 1_555 1_555
C76_2 C77_2 1_555 1_555
C80_2 N15_2 1_555 1_555
C81_2 N16_2 1_555 1_555
C82_2 N16_2 1_555 1_555
Co3_2 N15_2 1_555 1_555
Co3_2 O10_2 1_555 1_555
O13_2 Co6 1_555 1_555
C85_2 H57_2 1_555 1_555
C86_2 H58_2 1_555 1_555
C87_2 C86_2 1_555 1_555
N17_2 C85_2 1_555 1_555
N18_2 C85_2 1_555 1_555
Co7 N18_2 1_555 1_555
C86_2 N18_2 1_555 1_555
C87_2 N17_2 1_555 1_555
O9_3 Co9 1_555 1_555
H31_3 O9_3 1_555 1_555
H32_3 O9_3 1_555 1_555
C46_3 H33_3 1_555 1_555
C47_3 H34_3 1_555 1_555
C48_3 C47_3 1_555 1_555
H35_3 C48_3 1_555 1_555
C49_3 C50_3 1_555 1_555
H36_3 C50_3 1_555 1_555
H37_3 C51_3 1_555 1_555
N10_3 C46_3 1_555 1_555
N11_3 C46_3 1_555 1_555
C79_3 H52_3 1_555 1_555
C80_3 H53_3 1_555 1_555
C81_3 C80_3 1_555 1_555
H54_3 C81_3 1_555 1_555
C82_3 C83_3 1_555 1_555
C83_3 H55_3 1_555 1_555
C84_3 C82_3 1_555 1_555
H56_3 C84_3 1_555 1_555
C85_3 H57_3 1_555 1_555
C86_3 H58_3 1_555 1_555
C87_3 C86_3 1_555 1_555
H59_3 C87_3 1_555 1_555
C88_3 C89_3 1_555 1_555
C89_3 C84_3 1_555 1_555
H60_3 C89_3 1_555 1_555
C90_3 C83_3 1_555 1_555
H61_3 C90_3 1_555 1_555
Co6 N10_3 1_555 1_555
N15_3 C79_3 1_555 1_555
N16_3 C79_3 1_555 1_555
N17_3 C85_3 1_555 1_555
O10_3 C78_3 1_555 1_555
O11_3 C78_3 1_555 1_555
N21 C85_3 1_555 1_555
O23_3 Co9_2 1_555 1_555
C47_3 N10_3 1_555 1_555
C48_3 N11_3 1_555 1_555
C49_3 C51_3 1_555 1_555
C49_3 N11_3 1_555 1_555
C80_3 N15_3 1_555 1_555
C81_3 N16_3 1_555 1_555
C82_3 N16_3 1_555 1_555
C86_3 N21 1_555 1_555
C87_3 N17_3 1_555 1_555
C88_3 C90_3 1_555 1_555
C88_3 N17_3 1_555 1_555
Co6 N15_3 1_555 1_555
Co6 O10_3 1_555 1_555
C58_3 C59_3 1_555 1_555
C59_3 H43_3 1_555 1_555
C60_3 C59_3 1_555 1_555
H44_3 C60_3 1_555 1_555
C61_3 C60_3 1_555 1_555
H45_3 C61_3 1_555 1_555
C62_3 C61_3 1_555 1_555
C63_3 C62_3 1_555 1_555
C64_3 C63_3 1_555 1_555
H46_3 C64_3 1_555 1_555
C65_3 C64_3 1_555 1_555
C66_3 C65_3 1_555 1_555
H47_3 C66_3 1_555 1_555
C67_3 C66_3 1_555 1_555
C68_3 C63_3 1_555 1_555
H48_3 C68_3 1_555 1_555
C69_3 C67_3 1_555 1_555
C70_3 C65_3 1_555 1_555
C71_3 C58_3 1_555 1_555
C72_3 C71_3 1_555 1_555
H49_3 C72_3 1_555 1_555
C73_3 C72_3 1_555 1_555
C74_3 C73_3 1_555 1_555
C75_3 C73_3 1_555 1_555
C76_3 C75_3 1_555 1_555
C77_3 C71_3 1_555 1_555
H51_3 C77_3 1_555 1_555
N14_3 C58_3 1_555 1_555
O20_2 C74_3 1_555 1_555
O22_2 C74_3 1_555 1_555
O23_3 C69_3 1_555 1_555
O15_3 C69_3 1_555 1_555
O16_3 C70_3 1_555 1_555
H62 O16_3 1_555 1_555
O17 C70_3 1_555 1_555
C62_3 N14_3 1_555 1_555
C67_3 C68_3 1_555 1_555
C76_3 C77_3 1_555 1_555
C1_3 C2_3 1_555 1_555
C2_3 H1_3 1_555 1_555
C3_3 C2_3 1_555 1_555
H2_3 C3_3 1_555 1_555
C4_3 C3_3 1_555 1_555
H3_3 C4_3 1_555 1_555
C5_3 C4_3 1_555 1_555
C6_3 C5_3 1_555 1_555
C7_3 C6_3 1_555 1_555
H4_3 C7_3 1_555 1_555
C8_3 C7_3 1_555 1_555
C9_3 C8_3 1_555 1_555
H5_3 C9_3 1_555 1_555
C10_3 C9_3 1_555 1_555
C11_3 C6_3 1_555 1_555
H6_3 C11_3 1_555 1_555
C12_3 C10_3 1_555 1_555
C13_3 C8_3 1_555 1_555
C14_3 C1_3 1_555 1_555
C15_3 C14_3 1_555 1_555
H7_3 C15_3 1_555 1_555
C16_3 C15_3 1_555 1_555
C17_3 C16_3 1_555 1_555
C18_3 C16_3 1_555 1_555
C19_3 C18_3 1_555 1_555
C20_3 C14_3 1_555 1_555
H9_3 C20_3 1_555 1_555
N1_3 C1_3 1_555 1_555
O19_2 C17_3 1_555 1_555
O21_2 C17_3 1_555 1_555
O5_3 C12_3 1_555 1_555
O6_3 C12_3 1_555 1_555
O7_3 C13_3 1_555 1_555
H30 O7_3 1_555 1_555
O8 C13_3 1_555 1_555
C5_3 N1_3 1_555 1_555
C10_3 C11_3 1_555 1_555
C19_3 C20_3 1_555 1_555
Co9_3 O5_3 1_555 1_555
C22_3 H10_3 1_555 1_555
C23_3 H11_3 1_555 1_555
C24_3 C23_3 1_555 1_555
H12_3 C24_3 1_555 1_555
C25_3 C26_3 1_555 1_555
C26_3 H13_3 1_555 1_555
C27_3 C25_3 1_555 1_555
H14_3 C27_3 1_555 1_555
C28_3 H15_3 1_555 1_555
C29_3 H16_3 1_555 1_555
C30_3 C29_3 1_555 1_555
H17_3 C30_3 1_555 1_555
C31_3 C32_3 1_555 1_555
C32_3 H18_3 1_555 1_555
C33_3 C31_3 1_555 1_555
H19_3 C33_3 1_555 1_555
C34_3 H20_3 1_555 1_555
C35_3 H21_3 1_555 1_555
C36_3 C35_3 1_555 1_555
H22_3 C36_3 1_555 1_555
C37_3 C38_3 1_555 1_555
C38_3 H23_3 1_555 1_555
C39_3 C37_3 1_555 1_555
H24_3 C39_3 1_555 1_555
C40_3 H25_3 1_555 1_555
C41_3 H26_3 1_555 1_555
C42_3 C41_3 1_555 1_555
H27_3 C42_3 1_555 1_555
C43_3 C44_3 1_555 1_555
C44_3 C27_3 1_555 1_555
H28_3 C44_3 1_555 1_555
C45_3 C26_3 1_555 1_555
H29_3 C45_3 1_555 1_555
Co4 N2_3 1_555 1_555
Co9_4 N7_3 1_555 1_555
N2_3 C22_3 1_555 1_555
N3_3 C22_3 1_555 1_555
N4_3 C28_3 1_555 1_555
N5_3 C28_3 1_555 1_555
N6_3 C40_3 1_555 1_555
N7_3 C34_3 1_555 1_555
N8_3 C34_3 1_555 1_555
O1_3 C21_3 1_555 1_555
O2_3 C21_3 1_555 1_555
N20 C40_3 1_555 1_555
C52_3 H38_3 1_555 1_555
C53_3 H39_3 1_555 1_555
C54_3 C53_3 1_555 1_555
H40_3 C54_3 1_555 1_555
C55_3 C56_3 1_555 1_555
C56_3 C39_3 1_555 1_555
H41_3 C56_3 1_555 1_555
C57_3 C38_3 1_555 1_555
H42_3 C57_3 1_555 1_555
N19 C52_3 1_555 1_555
N13_3 C52_3 1_555 1_555
O18_3 Co9_4 1_555 1_555
H63_3 O18_3 1_555 1_555
H64_3 O18_3 1_555 1_555
C23_3 N2_3 1_555 1_555
C24_3 N3_3 1_555 1_555
C25_3 N3_3 1_555 1_555
C29_3 N4_3 1_555 1_555
C30_3 N5_3 1_555 1_555
C31_3 N5_3 1_555 1_555
C35_3 N7_3 1_555 1_555
C36_3 N8_3 1_555 1_555
C37_3 N8_3 1_555 1_555
C41_3 N20 1_555 1_555
C42_3 N6_3 1_555 1_555
C43_3 C45_3 1_555 1_555
C43_3 N6_3 1_555 1_555
Co4 N4_3 1_555 1_555
Co4 O1_3 1_555 1_555
C53_3 N19 1_555 1_555
C54_3 N13_3 1_555 1_555
C55_3 C57_3 1_555 1_555
C55_3 N13_3 1_555 1_555
C1_4 C2_4 1_555 1_555
C2_4 H1_4 1_555 1_555
C3_4 C2_4 1_555 1_555
H2_4 C3_4 1_555 1_555
C4_4 C3_4 1_555 1_555
H3_4 C4_4 1_555 1_555
C5_4 C4_4 1_555 1_555
C14_4 C1_4 1_555 1_555
C15_4 C14_4 1_555 1_555
H7_4 C15_4 1_555 1_555
C16_4 C15_4 1_555 1_555
C17_4 C16_4 1_555 1_555
C18_4 C16_4 1_555 1_555
C19_4 C18_4 1_555 1_555
C20_4 C14_4 1_555 1_555
H9_4 C20_4 1_555 1_555
N1_4 C1_4 1_555 1_555
O19 C17_4 1_555 1_555
O21 C17_4 1_555 1_555
C5_4 N1_4 1_555 1_555
C19_4 C20_4 1_555 1_555
C7_4 C6_4 1_555 1_555
H4_4 C7_4 1_555 1_555
C8_4 C7_4 1_555 1_555
C9_4 C8_4 1_555 1_555
H5_4 C9_4 1_555 1_555
C10_4 C9_4 1_555 1_555
C11_4 C6_4 1_555 1_555
C12_4 C10_4 1_555 1_555
C13_4 C8_4 1_555 1_555
O5_4 C12_4 1_555 1_555
O6_4 C12_4 1_555 1_555
O7_4 C13_4 1_555 1_555
H30_2 O7_4 1_555 1_555
O8_2 C13_4 1_555 1_555
C10_4 C11_4 1_555 1_555
Co9_6 O5_4 1_555 1_555
C22_4 H10_4 1_555 1_555
C23_4 H11_4 1_555 1_555
C24_4 C23_4 1_555 1_555
H12_4 C24_4 1_555 1_555
C25_4 C26_4 1_555 1_555
C26_4 H13_4 1_555 1_555
C27_4 C25_4 1_555 1_555
H14_4 C27_4 1_555 1_555
C28_4 H15_4 1_555 1_555
C29_4 H16_4 1_555 1_555
C30_4 C29_4 1_555 1_555
H17_4 C30_4 1_555 1_555
C31_4 C32_4 1_555 1_555
C32_4 H18_4 1_555 1_555
C33_4 C31_4 1_555 1_555
H19_4 C33_4 1_555 1_555
C38_4 H23_4 1_555 1_555
C40_4 H25_4 1_555 1_555
C41_4 H26_4 1_555 1_555
C42_4 C41_4 1_555 1_555
H27_4 C42_4 1_555 1_555
C43_4 C44_4 1_555 1_555
C44_4 C27_4 1_555 1_555
H28_4 C44_4 1_555 1_555
C45_4 C26_4 1_555 1_555
H29_4 C45_4 1_555 1_555
Co5 N2_4 1_555 1_555
N2_4 C22_4 1_555 1_555
N3_4 C22_4 1_555 1_555
N4_4 C28_4 1_555 1_555
N5_4 C28_4 1_555 1_555
N6_4 C40_4 1_555 1_555
O1_4 C21_4 1_555 1_555
O2_4 C21_4 1_555 1_555
N20_2 C40_4 1_555 1_555
C53_4 H39_4 1_555 1_555
C54_4 C53_4 1_555 1_555
H40_4 C54_4 1_555 1_555
C57_4 C38_4 1_555 1_555
H42_4 C57_4 1_555 1_555
N19_2 C52_4 1_555 1_555
N13_4 C52_4 1_555 1_555
O18_4 Co9_7 1_555 1_555
H63_4 O18_4 1_555 1_555
H64_4 O18_4 1_555 1_555
C23_4 N2_4 1_555 1_555
C24_4 N3_4 1_555 1_555
C25_4 N3_4 1_555 1_555
C29_4 N4_4 1_555 1_555
C30_4 N5_4 1_555 1_555
C31_4 N5_4 1_555 1_555
C41_4 N20_2 1_555 1_555
C42_4 N6_4 1_555 1_555
C43_4 C45_4 1_555 1_555
C43_4 N6_4 1_555 1_555
Co5 N4_4 1_555 1_555
Co5 O1_4 1_555 1_555
C53_4 N19_2 1_555 1_555
C54_4 N13_4 1_555 1_555
C55_4 C57_4 1_555 1_555
C55_4 N13_4 1_555 1_555
C35_4 H21_4 1_555 1_555
C36_4 C35_4 1_555 1_555
H22_4 C36_4 1_555 1_555
C39_4 C37_4 1_555 1_555
H24_4 C39_4 1_555 1_555
Co9_8 N7_4 1_555 1_555
N7_4 C34_4 1_555 1_555
N8_4 C34_4 1_555 1_555
C56_4 C39_4 1_555 1_555
H41_4 C56_4 1_555 1_555
C35_4 N7_4 1_555 1_555
C36_4 N8_4 1_555 1_555
C37_4 N8_4 1_555 1_555
O9_4 Co9_10 1_555 1_555
H31_4 O9_4 1_555 1_555
H32_4 O9_4 1_555 1_555
O23_4 Co9_11 1_555 1_555
C46_4 H33_4 1_555 1_555
C47_4 H34_4 1_555 1_555
C48_4 C47_4 1_555 1_555
H35_4 C48_4 1_555 1_555
C49_4 C50_4 1_555 1_555
H36_4 C50_4 1_555 1_555
H37_4 C51_4 1_555 1_555
N10_4 C46_4 1_555 1_555
N11_4 C46_4 1_555 1_555
C79_4 H52_4 1_555 1_555
C80_4 H53_4 1_555 1_555
C81_4 C80_4 1_555 1_555
H54_4 C81_4 1_555 1_555
C82_4 C83_4 1_555 1_555
C83_4 H55_4 1_555 1_555
C84_4 C82_4 1_555 1_555
H56_4 C84_4 1_555 1_555
C85_4 H57_4 1_555 1_555
C86_4 H58_4 1_555 1_555
C87_4 C86_4 1_555 1_555
H59_4 C87_4 1_555 1_555
C88_4 C89_4 1_555 1_555
C89_4 C84_4 1_555 1_555
H60_4 C89_4 1_555 1_555
C90_4 C83_4 1_555 1_555
H61_4 C90_4 1_555 1_555
Co7 N10_4 1_555 1_555
N15_4 C79_4 1_555 1_555
N16_4 C79_4 1_555 1_555
N17_4 C85_4 1_555 1_555
O10_4 C78_4 1_555 1_555
O11_4 C78_4 1_555 1_555
N21_2 C85_4 1_555 1_555
C47_4 N10_4 1_555 1_555
C48_4 N11_4 1_555 1_555
C49_4 C51_4 1_555 1_555
C49_4 N11_4 1_555 1_555
C80_4 N15_4 1_555 1_555
C81_4 N16_4 1_555 1_555
C82_4 N16_4 1_555 1_555
C86_4 N21_2 1_555 1_555
C87_4 N17_4 1_555 1_555
C88_4 C90_4 1_555 1_555
C88_4 N17_4 1_555 1_555
Co7 N15_4 1_555 1_555
Co7 O10_4 1_555 1_555
C64_4 C63_4 1_555 1_555
H46_4 C64_4 1_555 1_555
C65_4 C64_4 1_555 1_555
C66_4 C65_4 1_555 1_555
H47_4 C66_4 1_555 1_555
C67_4 C66_4 1_555 1_555
C68_4 C63_4 1_555 1_555
C69_4 C67_4 1_555 1_555
C70_4 C65_4 1_555 1_555
O23_4 C69_4 1_555 1_555
O15_4 C69_4 1_555 1_555
O16_4 C70_4 1_555 1_555
H62_2 O16_4 1_555 1_555
O17_2 C70_4 1_555 1_555
C67_4 C68_4 1_555 1_555
C58_4 C59_4 1_555 1_555
C59_4 H43_4 1_555 1_555
C60_4 C59_4 1_555 1_555
H44_4 C60_4 1_555 1_555
C61_4 C60_4 1_555 1_555
H45_4 C61_4 1_555 1_555
C62_4 C61_4 1_555 1_555
C71_4 C58_4 1_555 1_555
C72_4 C71_4 1_555 1_555
H49_4 C72_4 1_555 1_555
C73_4 C72_4 1_555 1_555
C74_4 C73_4 1_555 1_555
C75_4 C73_4 1_555 1_555
C76_4 C75_4 1_555 1_555
C77_4 C71_4 1_555 1_555
H51_4 C77_4 1_555 1_555
N14_4 C58_4 1_555 1_555
O20 C74_4 1_555 1_555
O22 C74_4 1_555 1_555
C62_4 N14_4 1_555 1_555
C76_4 C77_4 1_555 1_555

#END
