
###############################################################################
#
# This file contains modified crystal structure data generated from the
# MOF subset of the Cambridge Structural Database (CSD) v543 
# hosted by the Cambridge Crystallographic Data Centre (CCDC).
#
# This work is licensed under the Creative Commons
# Attribution-NonCommercial-ShareAlike 4.0 International License.
# To view a copy of this license, visit
# http://creativecommons.org/licenses/by-nc-sa/4.0/
# or send a letter to
# Creative Commons, PO Box 1866, Mountain View, CA 94042, USA.
#
# CIF created using the CSD Python API on 29 September 2022
# The structure has been converted into the P1 space group
# The structure has a 3D framework
# The original CSD entry MUQMOD is in the orthorhombic crystal system
# The framework has been calculated to contain at least 10.0% void space
# The void calculation uses a probe of radius 1.32A, grid spacing 0.4
#
###############################################################################

data_MUQMOD
_chemical_formula_moiety         '(C160 H92 Co24 F20 O104)n'
_symmetry_cell_setting           triclinic
_symmetry_space_group_name_H-M   'P 1'
_symmetry_Int_Tables_number      1
_space_group_name_Hall           'P 1'
loop_
_symmetry_equiv_pos_site_id
_symmetry_equiv_pos_as_xyz
1 x,y,z
_cell_length_a                   28.668(6)
_cell_length_b                   10.875(2)
_cell_length_c                   20.623(4)
_cell_angle_alpha                90
_cell_angle_beta                 90
_cell_angle_gamma                90
_cell_volume                     6429.52
loop_
_atom_site_label
_atom_site_type_symbol
_atom_site_fract_x
_atom_site_fract_y
_atom_site_fract_z
O5 O 0.22330(14) 0.1791(3) 0.7475(2)
O13 O 0.16790(15) 0.0842(4) 0.8050(2)
C4 C 0.1973(2) 0.0884(5) 0.7593(3)
H4 H 0.2315 0.0679 0.6369
Co8 Co 0.29143(2) 0.21421(6) 0.79302(4)
Co11 Co 0.15993(3) 0.23392(8) 0.86028(4)
Co15 Co 0.20101(3) 0.36125(7) 0.72244(4)
Co2 Co 0.33855(3) 0.35126(7) 0.66517(4)
Co4 Co 0.37572(3) 0.06469(7) 0.70393(4)
Co5 Co 0.10667(3) 0.49234(7) 0.80011(5)
O2 O 0.19767(15) 0.5434(4) 0.6967(2)
O3 O 0.35301(13) 0.2858(4) 0.8237(2)
O4 O 0.64309(14) 0.2236(4) 0.6856(2)
O6 O 0.16806(13) 0.3888(4) 0.8108(2)
O7 O 0.32139(13) 0.1917(4) 0.70133(18)
O9 O 0.25850(15) 0.2584(4) 0.87858(19)
O10 O 0.59655(15) 0.3027(5) 0.8903(3)
O11 O 0.39902(15) 0.1298(4) 0.7940(3)
F2 F 0.2443(2) 0.9023(4) 0.5543(2)
O14 O 0.58879(17) 0.0840(4) 0.7084(3)
O15 O 0.29234(14) 0.0373(3) 0.8197(2)
F4 F 0.45887(15) 0.5635(5) 0.9488(3)
O17 O 0.14460(19) 0.6354(4) 0.7610(2)
F5 F 0.55839(16) 0.5594(5) 0.5723(3)
O18 O 0.40437(15) 0.3747(5) 0.6423(3)
O19 O 0.42425(17) 0.1778(5) 0.6604(3)
O21 O 0.19754(15) 0.2127(5) 0.9384(2)
O22 O 0.56526(19) 0.1428(6) 0.8372(4)
C1 C 0.4766(2) 0.2426(6) 0.8469(3)
H1 H 0.4808 0.1716 0.8225
C2 C 0.6021(2) 0.1836(6) 0.6863(3)
C3 C 0.2013(2) 0.9800(5) 0.7149(3)
C5 C 0.4323(2) 0.2926(6) 0.8536(3)
C6 C 0.5186(2) 0.2398(6) 0.6631(4)
H2 H 0.5096 0.1665 0.6827
C7 C 0.5658(2) 0.2678(7) 0.6565(4)
C9 C 0.5624(2) 0.2419(7) 0.8673(4)
C10 C 0.3916(2) 0.2305(5) 0.8195(3)
C11 C 0.2216(2) 0.9919(6) 0.6523(3)
C12 C 0.24097(19) 0.2038(5) 0.9256(3)
C13 C 0.1775(2) 0.6366(5) 0.7198(3)
C14 C 0.2695(2) 0.1246(6) 0.9681(3)
C15 C 0.48472(19) 0.3221(6) 0.6403(3)
C16 C 0.1860(2) 0.8633(5) 0.7343(3)
H5 H 0.1711 0.8540 0.7741
C17 C 0.1927(2) 0.7630(5) 0.6955(3)
C18 C 0.4975(3) 0.4307(6) 0.6080(3)
H6 H 0.4754 0.4833 0.5900
C20 C 0.4335(2) 0.2867(6) 0.6492(3)
C21 C 0.5150(2) 0.2987(7) 0.8769(3)
C28 C 0.5445(2) 0.4543(6) 0.6047(4)
C29 C 0.3171(2) 0.1244(5) 0.9644(3)
H9 H 0.3329 0.1786 0.9374
C30 C 0.4260(2) 0.4000(7) 0.8907(4)
H10 H 0.3962 0.4313 0.8975
C33 C 0.2134(3) 0.7720(6) 0.6352(3)
H13 H 0.2184 0.7030 0.6095
C35 C 0.5085(3) 0.4087(7) 0.9109(4)
H14 H 0.5339 0.4486 0.9296
C36 C 0.4640(2) 0.4579(7) 0.9167(4)
C37 C 0.5791(2) 0.3795(6) 0.6273(4)
H15 H 0.6104 0.4015 0.6236
C40 C 0.2260(3) 0.8870(5) 0.6152(3)
O23 O 0.1204(4) 0.5697(8) 0.8917(4)
H16 H 0.0991 0.5904 0.9248
H17 H 0.1495 0.5918 0.9094
O25 O 0.3533(3) 0.0116(6) 0.6092(3)
H21 H 0.3521 0.0621 0.5686
O26 O 0.0493(3) 0.6010(6) 0.7927(4)
H22 H 0.0290 0.6170 0.8222
H23 H 0.0398 0.6415 0.7593
Co12 Co 0.65993(3) 0.26608(8) 0.86028(4)
Co13 Co 0.60667(3) 0.00766(7) 0.80011(5)
O27 O 0.26893(13) 0.3957(4) 0.76720(19)
O28 O 0.14309(14) 0.2764(4) 0.6856(2)
O30 O 0.23709(17) 0.3218(4) 0.6371(2)
O31 O 0.09655(15) 0.1973(5) 0.8903(3)
O32 O 0.32865(16) 0.4952(4) 0.7202(3)
O34 O 0.08879(17) 0.4160(4) 0.7084(3)
O35 O 0.30162(15) 0.3820(5) 0.5859(2)
O36 O 0.06526(19) 0.3572(6) 0.8372(4)
Co16 Co 0.70101(3) 0.13875(7) 0.72244(4)
O8 O 0.26291(17) 0.8218(4) 0.1371(2)
O20 O 0.19838(15) 0.8820(5) 0.0859(2)
C23 C 0.2699(2) 0.9631(5) 0.0483(3)
C25 C 0.3187(2) 0.9599(6) 0.0467(3)
H8 H 0.3354 0.9072 0.0736
C34 C 0.2427(2) 0.8813(6) 0.0931(3)
Co10 Co 0.16145(3) 0.85126(7) 0.16517(4)
Co17 Co 0.29899(3) 0.86125(7) 0.22244(4)
O16 O 0.33313(19) 0.9358(4) 0.7442(2)
F3 F 0.2381(2) 0.6800(4) 0.9575(2)
C19 C 0.2952(2) 0.4905(6) 0.7616(3)
C22 C 0.3014(2) 0.7112(5) 0.7806(3)
H7 H 0.3167 0.7164 0.7409
C24 C 0.3083(2) 0.9418(5) 0.7913(3)
C26 C 0.2874(2) 0.5989(5) 0.8039(3)
C27 C 0.2924(2) 0.8208(6) 0.8174(3)
C31 C 0.2649(2) 0.5846(5) 0.8636(3)
H11 H 0.2549 0.5079 0.8780
C32 C 0.2706(3) 0.8080(5) 0.8783(3)
H12 H 0.2643 0.8768 0.9036
C38 C 0.2583(3) 0.6895(7) 0.9004(3)
O24 O 0.4281(2) 0.9295(5) 0.7000(3)
H18 H 0.4285 0.8544 0.7196
H19 H 0.4558 0.9325 0.6783
H20 H 0.3412 0.9301 0.5942
O1 O 0.73107(13) 0.6043(4) 0.26720(19)
O8_2 O 0.73709(17) 0.1782(4) 0.6371(2)
O12 O 0.67135(16) 0.5048(4) 0.2202(3)
O16_2 O 0.66687(19) 0.0642(4) 0.2442(2)
F3_2 F 0.7619(2) 0.3200(4) 0.4575(2)
O20_2 O 0.80162(15) 0.1180(5) 0.5859(2)
C19_2 C 0.7048(2) 0.5095(6) 0.2616(3)
C22_2 C 0.6986(2) 0.2888(5) 0.2806(3)
H7_2 H 0.6833 0.2836 0.2409
C23_2 C 0.7301(2) 0.0369(5) 0.5483(3)
C24_2 C 0.6917(2) 0.0582(5) 0.2913(3)
C25_2 C 0.6813(2) 0.0401(6) 0.5467(3)
H8_2 H 0.6646 0.0928 0.5736
C26_2 C 0.7126(2) 0.4011(5) 0.3039(3)
C27_2 C 0.7076(2) 0.1792(6) 0.3174(3)
C31_2 C 0.7351(2) 0.4154(5) 0.3636(3)
H11_2 H 0.7451 0.4921 0.3780
C32_2 C 0.7294(3) 0.1920(5) 0.3783(3)
H12_2 H 0.7357 0.1232 0.4036
C34_2 C 0.7573(2) 0.1187(6) 0.5931(3)
C38_2 C 0.7417(3) 0.3105(7) 0.4004(3)
O24_2 O 0.5719(2) 0.0705(5) 0.2000(3)
H18_2 H 0.5715 0.1456 0.2196
H19_2 H 0.5442 0.0675 0.1783
H20_2 H 0.6588 0.0699 0.0942
Co7 Co 0.70857(2) 0.78579(6) 0.29302(4)
Co9 Co 0.66145(3) 0.64874(7) 0.16517(4)
Co10_2 Co 0.83855(3) 0.14874(7) 0.66517(4)
Co14 Co 0.79899(3) 0.63875(7) 0.22244(4)
Co3 Co 0.84007(3) 0.76608(8) 0.36028(4)
Co4_2 Co 0.62428(3) 0.93531(7) 0.20393(4)
Co5_2 Co 0.89333(3) 0.50766(7) 0.30011(5)
O2_2 O 0.80233(15) 0.4566(4) 0.1967(2)
O3_2 O 0.64699(13) 0.7142(4) 0.3237(2)
O4_2 O 0.35691(14) 0.7764(4) 0.1856(2)
O6_2 O 0.83194(13) 0.6112(4) 0.3108(2)
O7_2 O 0.67861(13) 0.8083(4) 0.20133(18)
O9_2 O 0.74150(15) 0.7416(4) 0.37858(19)
O10_2 O 0.40345(15) 0.6973(5) 0.3903(3)
O11_2 O 0.60098(15) 0.8702(4) 0.2940(3)
F1 F 0.61204(12) 0.9611(5) 0.5022(2)
F2_2 F 0.7557(2) 0.0977(4) 0.0543(2)
O14_2 O 0.41121(17) 0.9160(4) 0.2084(3)
O15_2 O 0.70766(14) 0.9627(3) 0.3197(2)
F4_2 F 0.54113(15) 0.4365(5) 0.4488(3)
O17_2 O 0.85540(19) 0.3646(4) 0.2610(2)
F5_2 F 0.44161(16) 0.4406(5) 0.0723(3)
O18_2 O 0.59563(15) 0.6253(5) 0.1423(3)
O19_2 O 0.57575(17) 0.8222(5) 0.1604(3)
O21_2 O 0.80246(15) 0.7873(5) 0.4384(2)
O22_2 O 0.43474(19) 0.8572(6) 0.3372(4)
C1_2 C 0.5234(2) 0.7574(6) 0.3469(3)
H1_2 H 0.5192 0.8284 0.3225
C2_2 C 0.3979(2) 0.8164(6) 0.1863(3)
C3_2 C 0.7987(2) 0.0200(5) 0.2149(3)
C5_2 C 0.5677(2) 0.7074(6) 0.3536(3)
C6_2 C 0.4814(2) 0.7602(6) 0.1631(4)
H2_2 H 0.4904 0.8335 0.1827
C7_2 C 0.4342(2) 0.7322(7) 0.1565(4)
C8 C 0.7539(2) 0.9573(5) 0.5090(3)
H3 H 0.7863 0.9577 0.5096
C9_2 C 0.4376(2) 0.7581(7) 0.3673(4)
C10_2 C 0.6084(2) 0.7695(5) 0.3195(3)
C11_2 C 0.7784(2) 0.0081(6) 0.1523(3)
C12_2 C 0.75903(19) 0.7962(5) 0.4256(3)
C13_2 C 0.8225(2) 0.3634(5) 0.2198(3)
C14_2 C 0.7305(2) 0.8754(6) 0.4681(3)
C15_2 C 0.51528(19) 0.6779(6) 0.1403(3)
C16_2 C 0.8140(2) 0.1367(5) 0.2343(3)
H5_2 H 0.8289 0.1460 0.2741
C17_2 C 0.8073(2) 0.2370(5) 0.1955(3)
C18_2 C 0.5025(3) 0.5693(6) 0.1080(3)
H6_2 H 0.5246 0.5167 0.0900
C20_2 C 0.5665(2) 0.7133(6) 0.1492(3)
C21_2 C 0.4850(2) 0.7013(7) 0.3769(3)
C28_2 C 0.4555(2) 0.5457(6) 0.1047(4)
C29_2 C 0.6829(2) 0.8756(5) 0.4644(3)
H9_2 H 0.6671 0.8214 0.4374
C30_2 C 0.5740(2) 0.6000(7) 0.3907(4)
H10_2 H 0.6038 0.5687 0.3975
C33_2 C 0.7866(3) 0.2280(6) 0.1352(3)
H13_2 H 0.7816 0.2970 0.1095
C35_2 C 0.4915(3) 0.5913(7) 0.4109(4)
H14_2 H 0.4661 0.5514 0.4296
C36_2 C 0.5360(2) 0.5421(7) 0.4167(4)
C37_2 C 0.4209(2) 0.6205(6) 0.1273(4)
H15_2 H 0.3896 0.5985 0.1236
C39 C 0.6585(2) 0.9616(8) 0.5035(3)
C40_2 C 0.7740(3) 0.1130(5) 0.1152(3)
O23_2 O 0.8796(4) 0.4303(8) 0.3917(4)
H16_2 H 0.9009 0.4096 0.4248
H17_2 H 0.8505 0.4082 0.4094
O25_2 O 0.6467(3) 0.9884(6) 0.1092(3)
H21_2 H 0.6479 0.9379 0.0686
O26_2 O 0.9507(3) 0.3990(6) 0.2927(4)
H22_2 H 0.9710 0.3830 0.3222
H23_2 H 0.9602 0.3585 0.2593
Co12_2 Co 0.34007(3) 0.73392(8) 0.36028(4)
Co13_2 Co 0.39333(3) 0.99234(7) 0.30011(5)
O28_2 O 0.85691(14) 0.7236(4) 0.1856(2)
O29 O 0.77670(14) 0.8209(3) 0.2475(2)
O30_2 O 0.76291(17) 0.6782(4) 0.1371(2)
O31_2 O 0.90345(15) 0.8027(5) 0.3903(3)
O33 O 0.83210(15) 0.9158(4) 0.3050(2)
O34_2 O 0.91121(17) 0.5840(4) 0.2084(3)
O35_2 O 0.69838(15) 0.6180(5) 0.0859(2)
O36_2 O 0.93474(19) 0.6428(6) 0.3372(4)
C4_2 C 0.8027(2) 0.9116(5) 0.2593(3)
H4_2 H 0.7685 0.9321 0.1369
C2_3 C 0.1021(2) 0.3164(6) 0.6863(3)
C6_3 C 0.0186(2) 0.2602(6) 0.6631(4)
H2_3 H 0.0096 0.3335 0.6827
C7_3 C 0.0658(2) 0.2322(7) 0.6565(4)
C9_3 C 0.0624(2) 0.2581(7) 0.8673(4)
C21_3 C 0.0150(2) 0.2013(7) 0.8769(3)
C28_3 C 0.0445(2) 0.0457(6) 0.6047(4)
C35_3 C 0.0085(3) 0.0913(7) 0.9109(4)
H14_3 H 0.0339 0.0514 0.9296
C37_3 C 0.0791(2) 0.1205(6) 0.6273(4)
H15_3 H 0.1104 0.0985 0.6236
O1_2 O 0.76893(13) 0.1043(4) 0.76720(19)
O12_2 O 0.82865(16) 0.0048(4) 0.7202(3)
C19_3 C 0.7952(2) 0.0095(6) 0.7616(3)
Co7_2 Co 0.79143(2) 0.28579(6) 0.79302(4)
F1_2 F 0.88796(12) 0.4611(5) 0.0022(2)
C8_2 C 0.7461(2) 0.4573(5) 0.0090(3)
H3_2 H 0.7137 0.4577 0.0096
C23_3 C 0.7699(2) 0.5369(5) 0.0483(3)
C25_3 C 0.8187(2) 0.5401(6) 0.0467(3)
H8_3 H 0.8354 0.5928 0.0736
C34_3 C 0.7427(2) 0.6187(6) 0.0931(3)
C39_2 C 0.8415(2) 0.4616(8) 0.0035(3)
Co4_3 Co 0.87572(3) 0.43531(7) 0.70393(4)
O3_3 O 0.85301(13) 0.2142(4) 0.8237(2)
O6_3 O 0.66806(13) 0.1112(4) 0.8108(2)
O7_3 O 0.82139(13) 0.3083(4) 0.70133(18)
O9_3 O 0.75850(15) 0.2416(4) 0.87858(19)
O11_3 O 0.89902(15) 0.3702(4) 0.7940(3)
O15_3 O 0.79234(14) 0.4627(3) 0.8197(2)
O16_3 O 0.83313(19) 0.5642(4) 0.7442(2)
F3_3 F 0.7381(2) 0.8200(4) 0.9575(2)
O18_3 O 0.90437(15) 0.1253(5) 0.6423(3)
O19_3 O 0.92425(17) 0.3222(5) 0.6604(3)
O21_3 O 0.69754(15) 0.2873(5) 0.9384(2)
C1_3 C 0.9766(2) 0.2574(6) 0.8469(3)
H1_3 H 0.9808 0.3284 0.8225
C5_3 C 0.9323(2) 0.2074(6) 0.8536(3)
C10_3 C 0.8916(2) 0.2695(5) 0.8195(3)
C12_3 C 0.74097(19) 0.2962(5) 0.9256(3)
C14_3 C 0.7695(2) 0.3754(6) 0.9681(3)
C15_3 C 0.98472(19) 0.1779(6) 0.6403(3)
C18_3 C 0.9975(3) 0.0693(6) 0.6080(3)
H6_3 H 0.9754 0.0167 0.5900
C20_3 C 0.9335(2) 0.2133(6) 0.6492(3)
C22_3 C 0.8014(2) 0.7888(5) 0.7806(3)
H7_3 H 0.8167 0.7836 0.7409
C24_3 C 0.8083(2) 0.5582(5) 0.7913(3)
C26_3 C 0.7874(2) 0.9011(5) 0.8039(3)
C27_3 C 0.7924(2) 0.6792(6) 0.8174(3)
C29_3 C 0.8171(2) 0.3756(5) 0.9644(3)
H9_3 H 0.8329 0.3214 0.9374
C30_3 C 0.9260(2) 0.1000(7) 0.8907(4)
H10_3 H 0.8962 0.0687 0.8975
C31_3 C 0.7649(2) 0.9154(5) 0.8636(3)
H11_3 H 0.7549 0.9921 0.8780
C32_3 C 0.7706(3) 0.6920(5) 0.8783(3)
H12_3 H 0.7643 0.6232 0.9036
C36_3 C 0.9640(2) 0.0421(7) 0.9167(4)
C38_3 C 0.7583(3) 0.8105(7) 0.9004(3)
O24_3 O 0.9281(2) 0.5705(5) 0.7000(3)
H18_3 H 0.9285 0.6456 0.7196
H19_3 H 0.9558 0.5675 0.6783
O25_3 O 0.8533(3) 0.4884(6) 0.6092(3)
H20_3 H 0.8412 0.5699 0.5942
H21_3 H 0.8521 0.4379 0.5686
O29_2 O 0.72330(14) 0.3209(3) 0.7475(2)
O33_2 O 0.66790(15) 0.4158(4) 0.8050(2)
O2_3 O 0.69767(15) 0.9566(4) 0.6967(2)
F2_3 F 0.7443(2) 0.5977(4) 0.5543(2)
F4_3 F 0.95887(15) 0.9365(5) 0.9488(3)
O17_3 O 0.64460(19) 0.8646(4) 0.7610(2)
C3_3 C 0.7013(2) 0.5200(5) 0.7149(3)
C4_3 C 0.6973(2) 0.4116(5) 0.7593(3)
C11_3 C 0.7216(2) 0.5081(6) 0.6523(3)
H4_3 H 0.7315 0.4321 0.6369
C13_3 C 0.6775(2) 0.8634(5) 0.7198(3)
C16_3 C 0.6860(2) 0.6367(5) 0.7343(3)
H5_3 H 0.6711 0.6460 0.7741
C17_3 C 0.6927(2) 0.7370(5) 0.6955(3)
C33_3 C 0.7134(3) 0.7280(6) 0.6352(3)
H13_3 H 0.7184 0.7970 0.6095
C40_3 C 0.7260(3) 0.6130(5) 0.6152(3)
O23_3 O 0.6204(4) 0.9303(8) 0.8917(4)
H16_3 H 0.5991 0.9096 0.9248
H17_3 H 0.6495 0.9082 0.9094
O26_3 O 0.5493(3) 0.8990(6) 0.7927(4)
H22_3 H 0.5290 0.8830 0.8222
H23_3 H 0.5398 0.8585 0.7593
O2_4 O 0.30233(15) 0.0434(4) 0.1967(2)
O5_2 O 0.27670(14) 0.6791(3) 0.2475(2)
O13_2 O 0.33210(15) 0.5842(4) 0.3050(2)
F2_4 F 0.2557(2) 0.4023(4) 0.0543(2)
F4_4 F 0.04113(15) 0.0635(5) 0.4488(3)
O17_4 O 0.35540(19) 0.1354(4) 0.2610(2)
C3_4 C 0.2987(2) 0.4800(5) 0.2149(3)
C4_4 C 0.3027(2) 0.5884(5) 0.2593(3)
C11_4 C 0.2784(2) 0.4919(6) 0.1523(3)
H4_4 H 0.2685 0.5679 0.1369
C13_4 C 0.3225(2) 0.1366(5) 0.2198(3)
C16_4 C 0.3140(2) 0.3633(5) 0.2343(3)
H5_4 H 0.3289 0.3540 0.2741
C17_4 C 0.3073(2) 0.2630(5) 0.1955(3)
C33_4 C 0.2866(3) 0.2720(6) 0.1352(3)
H13_4 H 0.2816 0.2030 0.1095
C40_4 C 0.2740(3) 0.3870(5) 0.1152(3)
O23_4 O 0.3796(4) 0.0697(8) 0.3917(4)
H16_4 H 0.4009 0.0904 0.4248
H17_4 H 0.3505 0.0918 0.4094
O26_4 O 0.4507(3) 0.1010(6) 0.2927(4)
H22_4 H 0.4710 0.1170 0.3222
H23_4 H 0.4602 0.1415 0.2593
Co8_2 Co 0.20857(2) 0.71421(6) 0.29302(4)
Co4_4 Co 0.12428(3) 0.56469(7) 0.20393(4)
O3_4 O 0.14699(13) 0.7858(4) 0.3237(2)
O6_4 O 0.33194(13) 0.8888(4) 0.3108(2)
O7_4 O 0.17861(13) 0.6917(4) 0.20133(18)
O9_4 O 0.24150(15) 0.7584(4) 0.37858(19)
O11_4 O 0.10098(15) 0.6298(4) 0.2940(3)
F1_3 F 0.11204(12) 0.5389(5) 0.5022(2)
O15_4 O 0.20766(14) 0.5373(3) 0.3197(2)
O16_4 O 0.16687(19) 0.4358(4) 0.2442(2)
F3_4 F 0.2619(2) 0.1800(4) 0.4575(2)
O18_4 O 0.09563(15) 0.8747(5) 0.1423(3)
O19_4 O 0.07575(17) 0.6778(5) 0.1604(3)
O21_4 O 0.30246(15) 0.7127(5) 0.4384(2)
C1_4 C 0.0234(2) 0.7426(6) 0.3469(3)
H1_4 H 0.0192 0.6716 0.3225
C5_4 C 0.0677(2) 0.7926(6) 0.3536(3)
C8_3 C 0.2539(2) 0.5427(5) 0.5090(3)
H3_3 H 0.2863 0.5423 0.5096
C10_4 C 0.1084(2) 0.7305(5) 0.3195(3)
C12_4 C 0.25903(19) 0.7038(5) 0.4256(3)
C14_4 C 0.2305(2) 0.6246(6) 0.4681(3)
C15_4 C 0.01528(19) 0.8221(6) 0.1403(3)
C18_4 C 0.0025(3) 0.9307(6) 0.1080(3)
H6_4 H 0.0246 0.9833 0.0900
C20_4 C 0.0665(2) 0.7867(6) 0.1492(3)
C22_4 C 0.1986(2) 0.2112(5) 0.2806(3)
H7_4 H 0.1833 0.2164 0.2409
C23_4 C 0.2301(2) 0.4631(5) 0.5483(3)
C24_4 C 0.1917(2) 0.4418(5) 0.2913(3)
C25_4 C 0.1813(2) 0.4599(6) 0.5467(3)
H8_4 H 0.1646 0.4072 0.5736
C26_4 C 0.2126(2) 0.0989(5) 0.3039(3)
C27_4 C 0.2076(2) 0.3208(6) 0.3174(3)
C29_4 C 0.1829(2) 0.6244(5) 0.4644(3)
H9_4 H 0.1671 0.6786 0.4374
C30_4 C 0.0740(2) 0.9000(7) 0.3907(4)
H10_4 H 0.1038 0.9313 0.3975
C31_4 C 0.2351(2) 0.0846(5) 0.3636(3)
H11_4 H 0.2451 0.0079 0.3780
C32_4 C 0.2294(3) 0.3080(5) 0.3783(3)
H12_4 H 0.2357 0.3768 0.4036
C34_4 C 0.2573(2) 0.3813(6) 0.5931(3)
C36_4 C 0.0360(2) 0.9579(7) 0.4167(4)
C38_4 C 0.2417(3) 0.1895(7) 0.4004(3)
C39_3 C 0.1585(2) 0.5384(8) 0.5035(3)
O24_4 O 0.0719(2) 0.4295(5) 0.2000(3)
H18_4 H 0.0715 0.3544 0.2196
H19_4 H 0.0442 0.4325 0.1783
O25_4 O 0.1467(3) 0.5116(6) 0.1092(3)
H20_4 H 0.1588 0.4301 0.0942
H21_4 H 0.1479 0.5621 0.0686
O27_2 O 0.23107(13) 0.8957(4) 0.26720(19)
O32_2 O 0.17135(16) 0.9952(4) 0.2202(3)
C19_4 C 0.2048(2) 0.9905(6) 0.2616(3)
C2_4 C 0.8979(2) 0.6836(6) 0.1863(3)
C6_4 C 0.9814(2) 0.7398(6) 0.1631(4)
H2_4 H 0.9904 0.6665 0.1827
C7_4 C 0.9342(2) 0.7678(7) 0.1565(4)
C9_4 C 0.9376(2) 0.7419(7) 0.3673(4)
C21_4 C 0.9850(2) 0.7987(7) 0.3769(3)
C28_4 C 0.9555(2) 0.9543(6) 0.1047(4)
C35_4 C 0.9915(3) 0.9087(7) 0.4109(4)
H14_4 H 0.9661 0.9486 0.4296
C37_4 C 0.9209(2) 0.8795(6) 0.1273(4)
H15_4 H 0.8896 0.9015 0.1236
F1_4 F 0.38796(12) 0.0389(5) 0.0022(2)
C8_4 C 0.2461(2) 0.0427(5) 0.0090(3)
H3_4 H 0.2137 0.0423 0.0096
C39_4 C 0.3415(2) 0.0384(8) 0.0035(3)
F5_3 F 0.05839(16) 0.9406(5) 0.5723(3)
F5_4 F 0.94161(16) 0.0594(5) 0.0723(3)
loop_
_geom_bond_atom_site_label_1
_geom_bond_atom_site_label_2
_geom_bond_site_symmetry_1
_geom_bond_site_symmetry_2
O5 C4 1_555 1_555
O13 C4 1_555 1_555
Co8 O5 1_555 1_555
Co11 O13 1_555 1_555
Co15 O5 1_555 1_555
Co8 O3 1_555 1_555
Co2 O7 1_555 1_555
Co11 O6 1_555 1_555
Co4 O7 1_555 1_555
Co5 O6 1_555 1_555
O2 C13 1_555 1_555
O3 C10 1_555 1_555
O4 C2 1_555 1_555
O6 Co15 1_555 1_555
O7 Co8 1_555 1_555
O9 Co8 1_555 1_555
O10 C9 1_555 1_555
O11 Co4 1_555 1_555
F2 C40 1_555 1_555
O14 C2 1_555 1_555
O15 Co8 1_555 1_555
F4 C36 1_555 1_555
O17 Co5 1_555 1_555
F5 C28 1_555 1_555
O18 Co2 1_555 1_555
O19 Co4 1_555 1_555
O21 Co11 1_555 1_555
O22 C9 1_555 1_555
C1 H1 1_555 1_555
C2 C7 1_555 1_555
C5 C1 1_555 1_555
C6 H2 1_555 1_555
C7 C6 1_555 1_555
C9 C21 1_555 1_555
C10 O11 1_555 1_555
C11 C3 1_555 1_555
C12 O9 1_555 1_555
C13 O17 1_555 1_555
C15 C6 1_555 1_555
C16 C3 1_555 1_555
H5 C16 1_555 1_555
C17 C13 1_555 1_555
C18 C15 1_555 1_555
H6 C18 1_555 1_555
C20 O18 1_555 1_555
C21 C1 1_555 1_555
C28 C18 1_555 1_555
C29 C14 1_555 1_555
H9 C29 1_555 1_555
C30 C5 1_555 1_555
H10 C30 1_555 1_555
C33 C17 1_555 1_555
H13 C33 1_555 1_555
C35 C21 1_555 1_555
H14 C35 1_555 1_555
C36 C30 1_555 1_555
C37 C7 1_555 1_555
H15 C37 1_555 1_555
C40 C11 1_555 1_555
O23 Co5 1_555 1_555
H16 O23 1_555 1_555
H17 O23 1_555 1_555
O25 Co4 1_555 1_555
H21 O25 1_555 1_555
Co15 O2 1_555 1_555
O26 Co5 1_555 1_555
H22 O26 1_555 1_555
H23 O26 1_555 1_555
Co12 O10 1_555 1_555
Co13 O14 1_555 1_555
O27 Co8 1_555 1_555
O28 Co15 1_555 1_555
O30 Co15 1_555 1_555
O31 Co11 1_555 1_555
O32 Co2 1_555 1_555
O34 Co5 1_555 1_555
O35 Co2 1_555 1_555
O36 Co5 1_555 1_555
Co16 O4 1_555 1_555
O19 C20 1_555 1_555
O21 C12 1_555 1_555
O22 Co13 1_555 1_555
C5 C10 1_555 1_555
C12 C14 1_555 1_555
C15 C20 1_555 1_555
C16 C17 1_555 1_555
C28 C37 1_555 1_555
C33 C40 1_555 1_555
C35 C36 1_555 1_555
Co15 O27 1_555 1_555
O8 C34 1_555 1_555
O20 C34 1_555 1_555
C25 C23 1_555 1_555
H8 C25 1_555 1_555
C34 C23 1_555 1_555
Co10 O20 1_555 1_555
Co17 O8 1_555 1_555
O27 C19 1_555 1_555
O32 C19 1_555 1_555
F3 C38 1_555 1_555
C19 C26 1_555 1_555
C22 H7 1_555 1_555
C26 C22 1_555 1_555
C27 C22 1_555 1_555
C31 C26 1_555 1_555
H11 C31 1_555 1_555
C32 C27 1_555 1_555
H12 C32 1_555 1_555
C38 C31 1_555 1_555
H18 O24 1_555 1_555
H19 O24 1_555 1_555
O16 C24 1_555 1_555
C24 C27 1_555 1_555
C32 C38 1_555 1_555
O1 C19_2 1_555 1_555
O8_2 C34_2 1_555 1_555
O12 C19_2 1_555 1_555
F3_2 C38_2 1_555 1_555
O20_2 C34_2 1_555 1_555
C19_2 C26_2 1_555 1_555
C22_2 H7_2 1_555 1_555
C25_2 C23_2 1_555 1_555
H8_2 C25_2 1_555 1_555
C26_2 C22_2 1_555 1_555
C27_2 C22_2 1_555 1_555
C31_2 C26_2 1_555 1_555
H11_2 C31_2 1_555 1_555
C32_2 C27_2 1_555 1_555
H12_2 C32_2 1_555 1_555
C34_2 C23_2 1_555 1_555
C38_2 C31_2 1_555 1_555
H18_2 O24_2 1_555 1_555
H19_2 O24_2 1_555 1_555
Co7 O1 1_555 1_555
Co9 O12 1_555 1_555
Co10_2 O20_2 1_555 1_555
Co14 O1 1_555 1_555
Co16 O8_2 1_555 1_555
O16_2 C24_2 1_555 1_555
C24_2 C27_2 1_555 1_555
C32_2 C38_2 1_555 1_555
Co7 O3_2 1_555 1_555
Co9 O7_2 1_555 1_555
Co3 O6_2 1_555 1_555
Co4_2 O7_2 1_555 1_555
Co5_2 O6_2 1_555 1_555
O2_2 C13_2 1_555 1_555
O3_2 C10_2 1_555 1_555
O4_2 C2_2 1_555 1_555
O6_2 Co14 1_555 1_555
O7_2 Co7 1_555 1_555
O9_2 Co7 1_555 1_555
O10_2 C9_2 1_555 1_555
O11_2 Co4_2 1_555 1_555
F1 C39 1_555 1_555
F2_2 C40_2 1_555 1_555
O14_2 C2_2 1_555 1_555
O15_2 Co7 1_555 1_555
F4_2 C36_2 1_555 1_555
O17_2 Co5_2 1_555 1_555
F5_2 C28_2 1_555 1_555
O18_2 Co9 1_555 1_555
O19_2 Co4_2 1_555 1_555
O21_2 Co3 1_555 1_555
O22_2 C9_2 1_555 1_555
C1_2 H1_2 1_555 1_555
C2_2 C7_2 1_555 1_555
C5_2 C1_2 1_555 1_555
C6_2 H2_2 1_555 1_555
C7_2 C6_2 1_555 1_555
C8 H3 1_555 1_555
C9_2 C21_2 1_555 1_555
C10_2 O11_2 1_555 1_555
C11_2 C3_2 1_555 1_555
C12_2 O9_2 1_555 1_555
C13_2 O17_2 1_555 1_555
C14_2 C8 1_555 1_555
C15_2 C6_2 1_555 1_555
C16_2 C3_2 1_555 1_555
H5_2 C16_2 1_555 1_555
C17_2 C13_2 1_555 1_555
C18_2 C15_2 1_555 1_555
H6_2 C18_2 1_555 1_555
C20_2 O18_2 1_555 1_555
C21_2 C1_2 1_555 1_555
C28_2 C18_2 1_555 1_555
C29_2 C14_2 1_555 1_555
H9_2 C29_2 1_555 1_555
C30_2 C5_2 1_555 1_555
H10_2 C30_2 1_555 1_555
C33_2 C17_2 1_555 1_555
H13_2 C33_2 1_555 1_555
C35_2 C21_2 1_555 1_555
H14_2 C35_2 1_555 1_555
C36_2 C30_2 1_555 1_555
C37_2 C7_2 1_555 1_555
H15_2 C37_2 1_555 1_555
C40_2 C11_2 1_555 1_555
O23_2 Co5_2 1_555 1_555
H16_2 O23_2 1_555 1_555
H17_2 O23_2 1_555 1_555
O25_2 Co4_2 1_555 1_555
H21_2 O25_2 1_555 1_555
Co14 O2_2 1_555 1_555
O26_2 Co5_2 1_555 1_555
H22_2 O26_2 1_555 1_555
H23_2 O26_2 1_555 1_555
Co12_2 O10_2 1_555 1_555
Co13_2 O14_2 1_555 1_555
O28_2 Co14 1_555 1_555
O29 Co7 1_555 1_555
O30_2 Co14 1_555 1_555
O31_2 Co3 1_555 1_555
O33 Co3 1_555 1_555
O34_2 Co5_2 1_555 1_555
O35_2 Co9 1_555 1_555
O36_2 Co5_2 1_555 1_555
Co17 O4_2 1_555 1_555
O19_2 C20_2 1_555 1_555
O21_2 C12_2 1_555 1_555
O22_2 Co13_2 1_555 1_555
C5_2 C10_2 1_555 1_555
C12_2 C14_2 1_555 1_555
C15_2 C20_2 1_555 1_555
C16_2 C17_2 1_555 1_555
C28_2 C37_2 1_555 1_555
C29_2 C39 1_555 1_555
C33_2 C40_2 1_555 1_555
C35_2 C36_2 1_555 1_555
Co14 O29 1_555 1_555
O29 C4_2 1_555 1_555
O33 C4_2 1_555 1_555
O28 C2_3 1_555 1_555
O31 C9_3 1_555 1_555
O34 C2_3 1_555 1_555
O36 C9_3 1_555 1_555
C2_3 C7_3 1_555 1_555
C6_3 H2_3 1_555 1_555
C7_3 C6_3 1_555 1_555
C9_3 C21_3 1_555 1_555
C35_3 C21_3 1_555 1_555
H14_3 C35_3 1_555 1_555
C37_3 C7_3 1_555 1_555
H15_3 C37_3 1_555 1_555
C28_3 C37_3 1_555 1_555
O1_2 C19_3 1_555 1_555
O12_2 C19_3 1_555 1_555
Co7_2 O1_2 1_555 1_555
Co10_2 O12_2 1_555 1_555
Co16 O1_2 1_555 1_555
O30_2 C34_3 1_555 1_555
F1_2 C39_2 1_555 1_555
O35_2 C34_3 1_555 1_555
C8_2 H3_2 1_555 1_555
C23_3 C8_2 1_555 1_555
C25_3 C23_3 1_555 1_555
H8_3 C25_3 1_555 1_555
C34_3 C23_3 1_555 1_555
C39_2 C25_3 1_555 1_555
Co7_2 O3_3 1_555 1_555
Co10_2 O7_3 1_555 1_555
Co12 O6_3 1_555 1_555
Co4_3 O7_3 1_555 1_555
Co13 O6_3 1_555 1_555
O3_3 C10_3 1_555 1_555
O6_3 Co16 1_555 1_555
O7_3 Co7_2 1_555 1_555
O9_3 Co7_2 1_555 1_555
O11_3 Co4_3 1_555 1_555
O15_3 Co7_2 1_555 1_555
O16_3 Co4_3 1_555 1_555
F3_3 C38_3 1_555 1_555
O18_3 Co10_2 1_555 1_555
O19_3 Co4_3 1_555 1_555
O21_3 Co12 1_555 1_555
C1_3 H1_3 1_555 1_555
C5_3 C1_3 1_555 1_555
C10_3 O11_3 1_555 1_555
C12_3 O9_3 1_555 1_555
C18_3 C15_3 1_555 1_555
H6_3 C18_3 1_555 1_555
C20_3 O18_3 1_555 1_555
C22_3 H7_3 1_555 1_555
C24_3 O15_3 1_555 1_555
C26_3 C22_3 1_555 1_555
C27_3 C22_3 1_555 1_555
C29_3 C14_3 1_555 1_555
H9_3 C29_3 1_555 1_555
C30_3 C5_3 1_555 1_555
H10_3 C30_3 1_555 1_555
C31_3 C26_3 1_555 1_555
H11_3 C31_3 1_555 1_555
C32_3 C27_3 1_555 1_555
H12_3 C32_3 1_555 1_555
C36_3 C30_3 1_555 1_555
C38_3 C31_3 1_555 1_555
O24_3 Co4_3 1_555 1_555
H18_3 O24_3 1_555 1_555
H19_3 O24_3 1_555 1_555
O25_3 Co4_3 1_555 1_555
H20_3 O25_3 1_555 1_555
H21_3 O25_3 1_555 1_555
O29_2 Co7_2 1_555 1_555
O33_2 Co12 1_555 1_555
O16_3 C24_3 1_555 1_555
O19_3 C20_3 1_555 1_555
O21_3 C12_3 1_555 1_555
C5_3 C10_3 1_555 1_555
C12_3 C14_3 1_555 1_555
C15_3 C20_3 1_555 1_555
C24_3 C27_3 1_555 1_555
C32_3 C38_3 1_555 1_555
Co16 O29_2 1_555 1_555
O2_3 C13_3 1_555 1_555
O29_2 C4_3 1_555 1_555
O33_2 C4_3 1_555 1_555
F2_3 C40_3 1_555 1_555
C3_3 C4_3 1_555 1_555
C11_3 C3_3 1_555 1_555
H4_3 C11_3 1_555 1_555
C13_3 O17_3 1_555 1_555
C16_3 C3_3 1_555 1_555
H5_3 C16_3 1_555 1_555
C17_3 C13_3 1_555 1_555
C33_3 C17_3 1_555 1_555
H13_3 C33_3 1_555 1_555
C40_3 C11_3 1_555 1_555
H16_3 O23_3 1_555 1_555
H17_3 O23_3 1_555 1_555
H22_3 O26_3 1_555 1_555
H23_3 O26_3 1_555 1_555
C16_3 C17_3 1_555 1_555
C33_3 C40_3 1_555 1_555
O2_4 C13_4 1_555 1_555
O5_2 C4_4 1_555 1_555
O13_2 C4_4 1_555 1_555
F2_4 C40_4 1_555 1_555
C3_4 C4_4 1_555 1_555
C11_4 C3_4 1_555 1_555
H4_4 C11_4 1_555 1_555
C13_4 O17_4 1_555 1_555
C16_4 C3_4 1_555 1_555
H5_4 C16_4 1_555 1_555
C17_4 C13_4 1_555 1_555
C33_4 C17_4 1_555 1_555
H13_4 C33_4 1_555 1_555
C40_4 C11_4 1_555 1_555
H16_4 O23_4 1_555 1_555
H17_4 O23_4 1_555 1_555
H22_4 O26_4 1_555 1_555
H23_4 O26_4 1_555 1_555
Co8_2 O5_2 1_555 1_555
Co12_2 O13_2 1_555 1_555
Co17 O5_2 1_555 1_555
C16_4 C17_4 1_555 1_555
C33_4 C40_4 1_555 1_555
Co8_2 O3_4 1_555 1_555
Co10 O7_4 1_555 1_555
Co12_2 O6_4 1_555 1_555
Co4_4 O7_4 1_555 1_555
Co13_2 O6_4 1_555 1_555
O3_4 C10_4 1_555 1_555
O6_4 Co17 1_555 1_555
O7_4 Co8_2 1_555 1_555
O30 C34_4 1_555 1_555
O9_4 Co8_2 1_555 1_555
O11_4 Co4_4 1_555 1_555
F1_3 C39_3 1_555 1_555
O15_4 Co8_2 1_555 1_555
O16_4 Co4_4 1_555 1_555
F3_4 C38_4 1_555 1_555
O18_4 Co10 1_555 1_555
O19_4 Co4_4 1_555 1_555
O35 C34_4 1_555 1_555
O21_4 Co12_2 1_555 1_555
C1_4 H1_4 1_555 1_555
C5_4 C1_4 1_555 1_555
C8_3 H3_3 1_555 1_555
C10_4 O11_4 1_555 1_555
C12_4 O9_4 1_555 1_555
C14_4 C8_3 1_555 1_555
C18_4 C15_4 1_555 1_555
H6_4 C18_4 1_555 1_555
C20_4 O18_4 1_555 1_555
C22_4 H7_4 1_555 1_555
C23_4 C8_3 1_555 1_555
C24_4 O15_4 1_555 1_555
C25_4 C23_4 1_555 1_555
H8_4 C25_4 1_555 1_555
C26_4 C22_4 1_555 1_555
C27_4 C22_4 1_555 1_555
C29_4 C14_4 1_555 1_555
H9_4 C29_4 1_555 1_555
C30_4 C5_4 1_555 1_555
H10_4 C30_4 1_555 1_555
C31_4 C26_4 1_555 1_555
H11_4 C31_4 1_555 1_555
C32_4 C27_4 1_555 1_555
H12_4 C32_4 1_555 1_555
C34_4 C23_4 1_555 1_555
C36_4 C30_4 1_555 1_555
C38_4 C31_4 1_555 1_555
C39_3 C25_4 1_555 1_555
O24_4 Co4_4 1_555 1_555
H18_4 O24_4 1_555 1_555
H19_4 O24_4 1_555 1_555
O25_4 Co4_4 1_555 1_555
H20_4 O25_4 1_555 1_555
H21_4 O25_4 1_555 1_555
O27_2 Co8_2 1_555 1_555
O32_2 Co10 1_555 1_555
O16_4 C24_4 1_555 1_555
O19_4 C20_4 1_555 1_555
O21_4 C12_4 1_555 1_555
C5_4 C10_4 1_555 1_555
C12_4 C14_4 1_555 1_555
C15_4 C20_4 1_555 1_555
C24_4 C27_4 1_555 1_555
C29_4 C39_3 1_555 1_555
C32_4 C38_4 1_555 1_555
Co17 O27_2 1_555 1_555
O27_2 C19_4 1_555 1_555
O32_2 C19_4 1_555 1_555
O28_2 C2_4 1_555 1_555
O31_2 C9_4 1_555 1_555
O34_2 C2_4 1_555 1_555
O36_2 C9_4 1_555 1_555
C2_4 C7_4 1_555 1_555
C6_4 H2_4 1_555 1_555
C7_4 C6_4 1_555 1_555
C9_4 C21_4 1_555 1_555
C35_4 C21_4 1_555 1_555
H14_4 C35_4 1_555 1_555
C37_4 C7_4 1_555 1_555
H15_4 C37_4 1_555 1_555
C28_4 C37_4 1_555 1_555
F1_4 C39_4 1_555 1_555
C8_4 H3_4 1_555 1_555

#END
