
###############################################################################
#
# This file contains modified crystal structure data generated from the
# MOF subset of the Cambridge Structural Database (CSD) v543 
# hosted by the Cambridge Crystallographic Data Centre (CCDC).
#
# This work is licensed under the Creative Commons
# Attribution-NonCommercial-ShareAlike 4.0 International License.
# To view a copy of this license, visit
# http://creativecommons.org/licenses/by-nc-sa/4.0/
# or send a letter to
# Creative Commons, PO Box 1866, Mountain View, CA 94042, USA.
#
# CIF created using the CSD Python API on 29 September 2022
# The structure has been converted into the P1 space group
# The structure has a 3D framework
# The original CSD entry MUQMUJ is in the monoclinic crystal system
# The framework has been calculated to contain at least 10.0% void space
# The void calculation uses a probe of radius 1.32A, grid spacing 0.4
#
###############################################################################

data_MUQMUJ
_chemical_formula_moiety         '(C180 H152 Co24 O102)n'
_symmetry_cell_setting           triclinic
_symmetry_space_group_name_H-M   'P 1'
_symmetry_Int_Tables_number      1
_space_group_name_Hall           'P 1'
loop_
_symmetry_equiv_pos_site_id
_symmetry_equiv_pos_as_xyz
1 x,y,z
_cell_length_a                   10.909(2)
_cell_length_b                   28.582(6)
_cell_length_c                   21.999(4)
_cell_angle_alpha                90
_cell_angle_beta                 98.74(3)
_cell_angle_gamma                90
_cell_volume                     6779.66
loop_
_atom_site_label
_atom_site_type_symbol
_atom_site_fract_x
_atom_site_fract_y
_atom_site_fract_z
Co12 Co 0.29819(16) 0.13504(5) 0.04061(11)
O36 O 0.0999(7) 0.4790(2) 0.4819(5)
O24 O 0.1465(7) 0.0992(3) 0.9973(5)
O26 O 0.2290(8) 0.0445(3) 0.9413(5)
C41 C 0.0169(11) 0.0473(4) 0.9420(7)
C43 C 0.1387(10) 0.0625(4) 0.9610(7)
H35 H 0.0435 0.0201 0.8560
Co15 Co 0.41298(14) 0.04361(5) 0.96262(10)
Co1 Co 0.44239(14) 0.45485(5) 0.03509(10)
O1 O 0.2694(8) 0.4494(3) 0.0562(5)
O3 O 0.5348(9) 0.3976(2) 0.0692(5)
O4 O 0.4688(8) 0.4983(3) 0.1129(5)
C1 C 0.1677(11) 0.4320(4) 0.0356(8)
C2 C 0.4928(11) 0.3542(4) 0.0621(8)
C3 C 0.5172(11) 0.5157(4) 0.1629(8)
C4 C 0.0510(10) 0.4511(3) 0.0536(8)
O8 O 0.3804(8) 0.3451(3) 0.0370(5)
O13 O 0.5027(9) 0.5602(3) 0.1720(5)
C5 C 0.5801(12) 0.3160(4) 0.0900(8)
C6 C 0.5946(7) 0.4891(2) 0.2110(4)
C8 C 0.0700(11) 0.4767(4) 0.1129(7)
C10 C 0.5315(12) 0.2704(4) 0.0838(7)
C11 C 0.6976(11) 0.3271(4) 0.1212(8)
C12 C 0.6802(7) 0.51310(19) 0.2530(4)
C13 C 0.5873(8) 0.4406(2) 0.2138(4)
H6 H 0.1486 0.4813 0.1351
H7 H 0.4519 0.2656 0.0628
C17 C 0.5984(11) 0.2337(4) 0.1078(8)
H8 H 0.7261 0.3578 0.1259
C18 C 0.7724(12) 0.2872(4) 0.1458(9)
H9 H 0.6852 0.5455 0.2512
C19 C 0.7584(7) 0.4886(3) 0.2978(4)
C20 C 0.6654(8) 0.41613(19) 0.2586(4)
H10 H 0.5300 0.4246 0.1857
C26 C 0.5570(13) 0.1840(5) 0.0993(9)
C27 C 0.7220(12) 0.2419(4) 0.1389(9)
C28 C 0.8966(13) 0.2958(6) 0.1831(11)
C29 C 0.8466(13) 0.5146(5) 0.3401(7)
C30 C 0.7510(8) 0.4401(3) 0.3006(4)
C31 C 0.6438(17) 0.3622(5) 0.2715(8)
H13 H 0.0572 0.5091 0.2194
O14 O 0.6267(9) 0.1539(3) 0.0974(6)
O15 O 0.4363(8) 0.1779(3) 0.0963(6)
H17 H 0.7699 0.2166 0.1549
H18 H 0.8864 0.3034 0.2245
H19 H 0.9466 0.2681 0.1832
H20 H 0.9366 0.3213 0.1655
O16 O 0.8500(10) 0.5618(3) 0.3314(5)
O17 O 0.9125(8) 0.4992(3) 0.3843(5)
H21 H 0.8033 0.4237 0.3305
H22 H 0.5957 0.3593 0.3044
H23 H 0.6003 0.3478 0.2351
H24 H 0.7225 0.3471 0.2829
Co4 Co 0.58572(16) 0.08748(5) 0.08657(11)
Co6 Co 0.91298(14) 0.45639(5) 0.46262(10)
O20 O 0.4161(7) 0.0771(3) 0.0474(4)
O21 O 0.7202(8) 0.0757(3) 0.0377(5)
O22 O 0.1892(8) 0.1940(3) 0.0396(6)
O23 O 0.2254(9) 0.1114(3) 0.1210(6)
H29 H 0.0975 0.1965 0.0423
H30 H 0.2130 0.2280 0.0362
H31 H 0.2559 0.1170 0.1592
H32 H 0.1603 0.0942 0.1231
H33 H 0.9272 0.0742 0.0066
O27 O 0.6202(7) 0.4808(2) 0.0199(5)
Co10 Co 0.45134(15) 0.58793(5) 0.08889(10)
O31 O 0.6500(10) 0.0618(3) 0.1686(5)
Co11 Co 0.91428(16) 0.58748(5) 0.41343(11)
O32 O 0.9794(7) 0.3957(3) 0.4263(5)
O33 O 0.9161(7) 0.4229(3) 0.5474(4)
O35 O 0.9001(7) 0.5210(2) 0.5181(5)
O37 O 0.7290(8) 0.4555(3) 0.4413(5)
O2 O 0.3991(7) 0.4223(2) 0.9510(4)
Co2 Co 0.28231(15) 0.36506(5) 0.95312(10)
Co3 Co 0.54866(15) 0.41207(5) 0.91111(10)
O6 O 0.1509(7) 0.4000(3) 0.9952(5)
O7 O 0.1800(7) 0.3868(3) 0.8668(5)
O9 O 0.1666(8) 0.3062(3) 0.9534(5)
O10 O 0.3850(7) 0.3218(3) 0.9029(4)
O11 O 0.5782(7) 0.3449(3) 0.8968(5)
H1 H 0.0974 0.3787 0.8495
H2 H 0.2063 0.4064 0.8365
H3 H 0.1394 0.2942 0.9866
H4 H 0.1323 0.2877 0.9223
C9 C 0.4986(11) 0.3131(4) 0.8976(7)
C16 C 0.5308(12) 0.2642(4) 0.8843(8)
C24 C 0.4730(11) 0.2277(4) 0.9077(8)
C25 C 0.6171(14) 0.2528(4) 0.8457(8)
H15 H 0.4089 0.2340 0.9299
C32 C 0.5044(12) 0.1827(4) 0.9002(7)
C33 C 0.6556(16) 0.2057(5) 0.8407(10)
H16 H 0.6493 0.2762 0.8233
C34 C 0.4403(11) 0.1437(4) 0.9304(7)
C35 C 0.5899(13) 0.1722(4) 0.8619(8)
C36 C 0.7606(19) 0.1949(5) 0.7988(12)
O18 O 0.4794(7) 0.1043(3) 0.9263(5)
O19 O 0.3528(9) 0.1563(3) 0.9578(6)
H25 H 0.6013 0.1413 0.8508
H26 H 0.7368 0.2083 0.7587
H27 H 0.7698 0.1617 0.7950
H28 H 0.8379 0.2082 0.8175
O25 O 0.5999(7) 0.0210(2) 0.9819(5)
C37 C 0.7035(12) 0.0460(4) 0.9930(8)
C38 C 0.7961(10) 0.0399(3) 0.9548(6)
C39 C 0.9135(10) 0.0557(4) 0.9715(7)
C40 C 0.7658(11) 0.0175(4) 0.8963(7)
H34 H 0.6853 0.0074 0.8825
C42 C 0.8602(11) 0.0112(5) 0.8603(7)
C44 C 0.9830(11) 0.0250(4) 0.8809(7)
H36 H 0.7960 0.0107 0.7646
O28 O 0.3798(7) 0.5192(2) 0.9801(5)
O29 O 0.7030(7) 0.4245(3) 0.9672(5)
O30 O 0.4973(9) 0.4398(3) 0.8280(5)
Co13 Co 0.58702(14) 0.95639(5) 0.03738(10)
C7 C 0.9424(10) 0.4431(4) 0.0264(7)
C14 C 0.8327(10) 0.4604(3) 0.0451(6)
C15 C 0.9655(12) 0.4931(5) 0.1329(7)
C21 C 0.7142(10) 0.4554(4) 0.0125(6)
C22 C 0.8487(11) 0.4874(4) 0.1036(6)
C23 C 0.9833(13) 0.5199(5) 0.1940(7)
H11 H 0.7811 0.4997 0.1193
H12 H 0.9908 0.5527 0.1861
H14 H 0.9131 0.5146 0.2146
H5 H 0.9341 0.4243 0.9915
Co8 Co 0.55761(14) 0.54515(5) 0.96491(10)
Co7 Co 0.05761(14) 0.95485(5) 0.46491(10)
C23_2 C 0.5167(13) 0.0199(5) 0.3060(7)
H12_2 H 0.5092 0.0527 0.3139
H13_2 H 0.4428 0.0091 0.2806
H14_2 H 0.5869 0.0146 0.2854
Co8_2 Co 0.94239(14) 0.04515(5) 0.53509(10)
O28_2 O 0.1202(7) 0.0192(2) 0.5199(5)
Co10_2 Co 0.04866(15) 0.08793(5) 0.41111(10)
O1_2 O 0.2306(8) 0.9494(3) 0.4438(5)
O2_2 O 0.1009(7) 0.9223(2) 0.5490(4)
O4_2 O 0.0312(8) 0.9983(3) 0.3871(5)
O5 O 0.8798(7) 0.9808(2) 0.4801(5)
C1_2 C 0.3323(11) 0.9320(4) 0.4644(8)
Co2_2 Co 0.21769(15) 0.86506(5) 0.54688(10)
C2_2 C 0.0072(11) 0.8542(4) 0.4379(8)
O6_2 O 0.3491(7) 0.9000(3) 0.5048(5)
C4_2 C 0.4490(10) 0.9511(3) 0.4464(8)
O7_2 O 0.3200(7) 0.8868(3) 0.6332(5)
O8_2 O 0.1196(8) 0.8451(3) 0.4630(5)
O9_2 O 0.3334(8) 0.8062(3) 0.5466(5)
O10_2 O 0.1150(7) 0.8218(3) 0.5971(4)
O12 O 0.7970(7) 0.9245(3) 0.5328(5)
C7_2 C 0.5576(10) 0.9431(4) 0.4736(7)
C8_2 C 0.4300(11) 0.9767(4) 0.3871(7)
H1_2 H 0.4026 0.8787 0.6505
H2_2 H 0.2937 0.9064 0.6635
H3_2 H 0.3606 0.7942 0.5134
H4_2 H 0.3677 0.7877 0.5777
C9_2 C 0.0014(11) 0.8131(4) 0.6024(7)
C14_2 C 0.6673(10) 0.9604(3) 0.4549(6)
H5_2 H 0.5659 0.9243 0.5085
C15_2 C 0.5345(12) 0.9931(5) 0.3671(7)
H6_2 H 0.3514 0.9813 0.3649
H7_2 H 0.0481 0.7656 0.4372
C21_2 C 0.7858(10) 0.9554(4) 0.4875(6)
C22_2 C 0.6513(11) 0.9874(4) 0.3964(6)
C24_2 C 0.0270(11) 0.7277(4) 0.5923(8)
H11_2 H 0.7189 0.9997 0.3807
H15_2 H 0.0911 0.7340 0.5701
O15_2 O 0.0637(8) 0.6779(3) 0.4037(6)
C34_2 C 0.0597(11) 0.6437(4) 0.5696(7)
Co5 Co 0.20181(16) 0.63504(5) 0.45939(11)
O18_2 O 0.0206(7) 0.6043(3) 0.5737(5)
O19_2 O 0.1472(9) 0.6563(3) 0.5422(6)
O20_2 O 0.0839(7) 0.5771(3) 0.4526(4)
O22_2 O 0.3108(8) 0.6940(3) 0.4604(6)
O23_2 O 0.2746(9) 0.6114(3) 0.3790(6)
H29_2 H 0.4025 0.6965 0.4577
H30_2 H 0.2870 0.7280 0.4638
H31_2 H 0.2441 0.6170 0.3408
H32_2 H 0.3397 0.5942 0.3769
Co9 Co 0.95134(15) 0.91207(5) 0.58889(10)
O30_2 O 0.0027(9) 0.9398(3) 0.6720(5)
Co14 Co 0.08702(14) 0.54361(5) 0.53738(10)
O34 O 0.3535(7) 0.5992(3) 0.5027(5)
C3_2 C 0.9828(11) 0.0157(4) 0.3371(8)
O13_2 O 0.9973(9) 0.0602(3) 0.3280(5)
C12_2 C 0.8198(7) 0.01310(19) 0.2470(4)
H9_2 H 0.8148 0.0455 0.2488
C29_2 C 0.6534(13) 0.0146(5) 0.1599(7)
O3_2 O 0.9652(9) 0.8976(2) 0.4308(5)
O11_2 O 0.9218(7) 0.8449(3) 0.6032(5)
C5_2 C 0.9199(12) 0.8160(4) 0.4100(8)
C6_2 C 0.9054(7) 0.9891(2) 0.2890(4)
C10_2 C 0.9685(12) 0.7704(4) 0.4162(7)
C11_2 C 0.8024(11) 0.8271(4) 0.3788(8)
C13_2 C 0.9127(8) 0.9406(2) 0.2862(4)
C16_2 C 0.9692(12) 0.7642(4) 0.6157(8)
C17_2 C 0.9016(11) 0.7337(4) 0.3922(8)
H8_2 H 0.7739 0.8578 0.3741
C18_2 C 0.7276(12) 0.7872(4) 0.3542(9)
C19_2 C 0.7416(7) 0.9886(3) 0.2022(4)
C20_2 C 0.8346(8) 0.91613(19) 0.2414(4)
H10_2 H 0.9700 0.9246 0.3143
C25_2 C 0.8829(14) 0.7528(4) 0.6543(8)
C26_2 C 0.9430(13) 0.6840(5) 0.4007(9)
C27_2 C 0.7780(12) 0.7419(4) 0.3611(9)
C28_2 C 0.6034(13) 0.7958(6) 0.3169(11)
C30_2 C 0.7490(8) 0.9401(3) 0.1994(4)
C31_2 C 0.8562(17) 0.8622(5) 0.2285(8)
C32_2 C 0.9956(12) 0.6827(4) 0.5998(7)
C33_2 C 0.8444(16) 0.7057(5) 0.6593(10)
H16_2 H 0.8507 0.7762 0.6767
O14_2 O 0.8733(9) 0.6539(3) 0.4026(6)
H17_2 H 0.7301 0.7166 0.3451
H18_2 H 0.6136 0.8034 0.2755
H19_2 H 0.5534 0.7681 0.3168
H20_2 H 0.5634 0.8213 0.3345
O17_2 O 0.5875(8) 0.9992(3) 0.1157(5)
H21_2 H 0.6967 0.9237 0.1695
H22_2 H 0.9043 0.8593 0.1956
H23_2 H 0.8997 0.8478 0.2649
H24_2 H 0.7775 0.8471 0.2171
C35_2 C 0.9101(13) 0.6722(4) 0.6381(8)
C36_2 C 0.7394(19) 0.6949(5) 0.7012(12)
H25_2 H 0.8987 0.6413 0.6492
H26_2 H 0.7632 0.7083 0.7413
H27_2 H 0.7302 0.6617 0.7050
H28_2 H 0.6621 0.7082 0.6825
O21_2 O 0.7798(8) 0.5757(3) 0.4623(5)
O26_2 O 0.2710(8) 0.5445(3) 0.5587(5)
C37_2 C 0.7965(12) 0.5460(4) 0.5070(8)
C38_2 C 0.7039(10) 0.5399(3) 0.5452(6)
C39_2 C 0.5865(10) 0.5557(4) 0.5285(7)
C40_2 C 0.7342(11) 0.5175(4) 0.6037(7)
C41_2 C 0.4831(11) 0.5473(4) 0.5580(7)
H33_2 H 0.5728 0.5742 0.4934
H34_2 H 0.8147 0.5074 0.6175
C42_2 C 0.6398(11) 0.5112(5) 0.6397(7)
C43_2 C 0.3613(10) 0.5625(4) 0.5390(7)
C44_2 C 0.5170(11) 0.5250(4) 0.6191(7)
C45 C 0.6752(14) 0.4872(5) 0.7054(8)
H35_2 H 0.4565 0.5201 0.6440
H36_2 H 0.7040 0.5107 0.7354
H37 H 0.6035 0.4720 0.7166
H38 H 0.7395 0.4645 0.7037
O32_2 O 0.5206(7) 0.8957(3) 0.0737(5)
O36_2 O 0.4001(7) 0.9790(2) 0.0181(5)
O37_2 O 0.7710(8) 0.9555(3) 0.0587(5)
O33_2 O 0.5839(7) 0.9229(3) 0.9526(4)
O12_2 O 0.2970(7) 0.5755(3) 0.0328(5)
H5_3 H 0.0659 0.5757 0.0085
C7_3 C 0.0576(10) 0.5569(4) 0.9736(7)
C14_3 C 0.1673(10) 0.5396(3) 0.9549(6)
C15_3 C 0.0345(12) 0.5069(5) 0.8671(7)
C21_3 C 0.2858(10) 0.5446(4) 0.9875(6)
C22_3 C 0.1513(11) 0.5126(4) 0.8964(6)
C23_3 C 0.0167(13) 0.4801(5) 0.8060(7)
H11_3 H 0.2189 0.5003 0.8807
H12_3 H 0.0092 0.4473 0.8139
H14_3 H 0.0869 0.4854 0.7854
O2_3 O 0.6009(7) 0.5777(2) 0.0490(4)
Co2_3 Co 0.71769(15) 0.63494(5) 0.04688(10)
O6_3 O 0.8491(7) 0.6000(3) 0.0048(5)
O7_3 O 0.8200(7) 0.6132(3) 0.1332(5)
O9_3 O 0.8334(8) 0.6938(3) 0.0466(5)
O10_3 O 0.6150(7) 0.6782(3) 0.0971(4)
O11_3 O 0.4218(7) 0.6551(3) 0.1032(5)
H1_3 H 0.9026 0.6213 0.1505
H2_3 H 0.7937 0.5936 0.1635
H3_3 H 0.8606 0.7058 0.0134
H4_3 H 0.8677 0.7123 0.0777
C9_3 C 0.5014(11) 0.6869(4) 0.1024(7)
C16_3 C 0.4692(12) 0.7358(4) 0.1157(8)
C24_3 C 0.5270(11) 0.7723(4) 0.0923(8)
C25_3 C 0.3829(14) 0.7472(4) 0.1543(8)
H15_3 H 0.5911 0.7660 0.0701
C32_3 C 0.4956(12) 0.8173(4) 0.0998(7)
C33_3 C 0.3444(16) 0.7943(5) 0.1593(10)
H16_3 H 0.3507 0.7238 0.1767
C34_3 C 0.5597(11) 0.8563(4) 0.0696(7)
C35_3 C 0.4101(13) 0.8278(4) 0.1381(8)
C36_3 C 0.2394(19) 0.8051(5) 0.2012(12)
O19_3 O 0.6472(9) 0.8437(3) 0.0422(6)
H25_3 H 0.3987 0.8587 0.1492
H26_3 H 0.2632 0.7917 0.2413
H27_3 H 0.2302 0.8383 0.2050
H28_3 H 0.1621 0.7918 0.1825
C37_3 C 0.2965(12) 0.9540(4) 0.0070(8)
C38_3 C 0.2039(10) 0.9601(3) 0.0452(6)
C39_3 C 0.0865(10) 0.9443(4) 0.0285(7)
C40_3 C 0.2342(11) 0.9825(4) 0.1037(7)
H34_3 H 0.3147 0.9926 0.1175
C42_3 C 0.1398(11) 0.9888(5) 0.1397(7)
C44_3 C 0.0170(11) 0.9750(4) 0.1191(7)
H36_3 H 0.2040 0.9893 0.2354
O34_2 O 0.8535(7) 0.9008(3) 0.0027(5)
O1_3 O 0.7306(8) 0.5506(3) 0.9438(5)
O3_3 O 0.4652(9) 0.6024(2) 0.9308(5)
O4_3 O 0.5312(8) 0.5017(3) 0.8871(5)
C1_3 C 0.8323(11) 0.5680(4) 0.9644(8)
C2_3 C 0.5072(11) 0.6458(4) 0.9379(8)
C3_3 C 0.4828(11) 0.4843(4) 0.8371(8)
C4_3 C 0.9490(10) 0.5489(3) 0.9464(8)
O8_3 O 0.6196(8) 0.6549(3) 0.9630(5)
C5_3 C 0.4199(12) 0.6840(4) 0.9100(8)
C6_3 C 0.4054(7) 0.5109(2) 0.7890(4)
C8_3 C 0.9300(11) 0.5233(4) 0.8871(7)
C10_3 C 0.4685(12) 0.7296(4) 0.9162(7)
C11_3 C 0.3024(11) 0.6729(4) 0.8788(8)
C12_3 C 0.3198(7) 0.48690(19) 0.7470(4)
C13_3 C 0.4127(8) 0.5594(2) 0.7862(4)
H6_3 H 0.8514 0.5187 0.8649
H7_3 H 0.5481 0.7344 0.9372
C17_3 C 0.4016(11) 0.7663(4) 0.8922(8)
H8_3 H 0.2739 0.6422 0.8741
C18_3 C 0.2276(12) 0.7128(4) 0.8542(9)
H9_3 H 0.3148 0.4545 0.7488
C19_3 C 0.2416(7) 0.5114(3) 0.7022(4)
C20_3 C 0.3346(8) 0.58387(19) 0.7414(4)
H10_3 H 0.4700 0.5754 0.8143
C26_3 C 0.4430(13) 0.8160(5) 0.9007(9)
C27_3 C 0.2780(12) 0.7581(4) 0.8611(9)
C28_3 C 0.1034(13) 0.7042(6) 0.8169(11)
C29_3 C 0.1534(13) 0.4854(5) 0.6599(7)
C30_3 C 0.2490(8) 0.5599(3) 0.6994(4)
C31_3 C 0.3562(17) 0.6378(5) 0.7285(8)
H13_3 H 0.9428 0.4909 0.7806
O14_3 O 0.3733(9) 0.8461(3) 0.9026(6)
O15_3 O 0.5637(8) 0.8221(3) 0.9037(6)
H17_3 H 0.2301 0.7834 0.8451
H18_3 H 0.1136 0.6966 0.7755
H19_3 H 0.0534 0.7319 0.8168
H20_3 H 0.0634 0.6787 0.8345
O16_2 O 0.1500(10) 0.4382(3) 0.6686(5)
O17_3 O 0.0875(8) 0.5008(3) 0.6157(5)
H21_3 H 0.1967 0.5763 0.6695
H22_3 H 0.4043 0.6407 0.6956
H23_3 H 0.3997 0.6522 0.7649
H24_3 H 0.2775 0.6529 0.7171
Co4_2 Co 0.41428(16) 0.91252(5) 0.91343(11)
Co5_2 Co 0.70181(16) 0.86496(5) 0.95939(11)
O21_3 O 0.2798(8) 0.9243(3) 0.9623(5)
O22_3 O 0.8108(8) 0.8060(3) 0.9604(6)
O23_3 O 0.7746(9) 0.8886(3) 0.8790(6)
H29_3 H 0.9025 0.8035 0.9577
H30_3 H 0.7870 0.7720 0.9638
H31_3 H 0.7441 0.8830 0.8408
H32_3 H 0.8397 0.9058 0.8769
H33_3 H 0.0728 0.9258 0.9934
O31_2 O 0.3500(10) 0.9382(3) 0.8314(5)
Co11_2 Co 0.08572(16) 0.41252(5) 0.58657(11)
C41_3 C 0.9831(11) 0.9527(4) 0.0580(7)
C43_3 C 0.8613(10) 0.9375(4) 0.0390(7)
H35_3 H 0.9565 0.9799 0.1440
O3_4 O 0.0348(9) 0.1024(2) 0.5692(5)
O11_4 O 0.0782(7) 0.1551(3) 0.3968(5)
C5_4 C 0.0801(12) 0.1840(4) 0.5900(8)
C6_4 C 0.0946(7) 0.0109(2) 0.7110(4)
C10_4 C 0.0315(12) 0.2296(4) 0.5838(7)
C11_4 C 0.1976(11) 0.1729(4) 0.6212(8)
C13_4 C 0.0873(8) 0.0594(2) 0.7138(4)
C16_4 C 0.0308(12) 0.2358(4) 0.3843(8)
C17_4 C 0.0984(11) 0.2663(4) 0.6078(8)
H8_4 H 0.2261 0.1422 0.6259
C18_4 C 0.2724(12) 0.2128(4) 0.6458(9)
C19_4 C 0.2584(7) 0.0114(3) 0.7978(4)
C20_4 C 0.1654(8) 0.08387(19) 0.7586(4)
H10_4 H 0.0300 0.0754 0.6857
C25_4 C 0.1171(14) 0.2472(4) 0.3457(8)
C26_4 C 0.0570(13) 0.3160(5) 0.5993(9)
C27_4 C 0.2220(12) 0.2581(4) 0.6389(9)
C28_4 C 0.3966(13) 0.2042(6) 0.6831(11)
C30_4 C 0.2510(8) 0.0599(3) 0.8006(4)
C31_4 C 0.1438(17) 0.1378(5) 0.7715(8)
C32_4 C 0.0044(12) 0.3173(4) 0.4002(7)
C33_4 C 0.1556(16) 0.2943(5) 0.3407(10)
H16_4 H 0.1493 0.2238 0.3233
O14_4 O 0.1267(9) 0.3461(3) 0.5974(6)
H17_4 H 0.2699 0.2834 0.6549
H18_4 H 0.3864 0.1966 0.7245
H19_4 H 0.4466 0.2319 0.6832
H20_4 H 0.4366 0.1787 0.6655
O17_4 O 0.4125(8) 0.0008(3) 0.8843(5)
H21_4 H 0.3033 0.0763 0.8305
H22_4 H 0.0957 0.1407 0.8044
H23_4 H 0.1003 0.1522 0.7351
H24_4 H 0.2225 0.1529 0.7829
C35_4 C 0.0899(13) 0.3278(4) 0.3619(8)
C36_4 C 0.2606(19) 0.3051(5) 0.2988(12)
H25_4 H 0.1013 0.3587 0.3508
H26_4 H 0.2368 0.2917 0.2587
H27_4 H 0.2698 0.3383 0.2950
H28_4 H 0.3379 0.2918 0.3175
O21_4 O 0.2202(8) 0.4243(3) 0.5377(5)
O24_2 O 0.6465(7) 0.4008(3) 0.4973(5)
C37_4 C 0.2035(12) 0.4540(4) 0.4930(8)
C38_4 C 0.2961(10) 0.4601(3) 0.4548(6)
C39_4 C 0.4135(10) 0.4443(4) 0.4715(7)
C40_4 C 0.2658(11) 0.4825(4) 0.3963(7)
C41_4 C 0.5169(11) 0.4527(4) 0.4420(7)
H33_4 H 0.4272 0.4258 0.5066
H34_4 H 0.1853 0.4926 0.3825
C42_4 C 0.3602(11) 0.4888(5) 0.3603(7)
C43_4 C 0.6387(10) 0.4375(4) 0.4610(7)
C44_4 C 0.4830(11) 0.4750(4) 0.3809(7)
C45_2 C 0.3248(14) 0.5128(5) 0.2946(8)
H35_4 H 0.5435 0.4799 0.3560
H36_4 H 0.2960 0.4893 0.2646
H37_2 H 0.3965 0.5280 0.2834
H38_2 H 0.2605 0.5355 0.2963
O29_2 O 0.2030(7) 0.0755(3) 0.4672(5)
Co12_2 Co 0.79819(16) 0.36496(5) 0.54061(11)
C3_4 C 0.0172(11) 0.9843(4) 0.6629(8)
C12_4 C 0.1802(7) 0.98690(19) 0.7530(4)
H9_4 H 0.1852 0.9545 0.7512
C29_4 C 0.3466(13) 0.9854(5) 0.8401(7)
O1_4 O 0.7694(8) 0.0506(3) 0.5562(5)
O2_4 O 0.8991(7) 0.0777(2) 0.4510(4)
O4_4 O 0.9688(8) 0.0017(3) 0.6129(5)
C1_4 C 0.6677(11) 0.0680(4) 0.5356(8)
Co2_4 Co 0.78231(15) 0.13494(5) 0.45312(10)
C2_4 C 0.9928(11) 0.1458(4) 0.5621(8)
O6_4 O 0.6509(7) 0.1000(3) 0.4952(5)
C4_4 C 0.5510(10) 0.0489(3) 0.5536(8)
O7_4 O 0.6800(7) 0.1132(3) 0.3668(5)
O8_4 O 0.8804(8) 0.1549(3) 0.5370(5)
O9_4 O 0.6666(8) 0.1938(3) 0.4534(5)
O10_4 O 0.8850(7) 0.1782(3) 0.4029(4)
C7_4 C 0.4424(10) 0.0569(4) 0.5264(7)
C8_4 C 0.5700(11) 0.0233(4) 0.6129(7)
H1_4 H 0.5974 0.1213 0.3495
H2_4 H 0.7063 0.0936 0.3365
H3_4 H 0.6394 0.2058 0.4866
H4_4 H 0.6323 0.2123 0.4223
C9_4 C 0.9986(11) 0.1869(4) 0.3976(7)
C14_4 C 0.3327(10) 0.0396(3) 0.5451(6)
H5_4 H 0.4341 0.0757 0.4915
C15_4 C 0.4655(12) 0.0069(5) 0.6329(7)
H6_4 H 0.6486 0.0187 0.6351
H7_4 H 0.9519 0.2344 0.5628
C21_4 C 0.2142(10) 0.0446(4) 0.5125(6)
C22_4 C 0.3487(11) 0.0126(4) 0.6036(6)
C24_4 C 0.9730(11) 0.2723(4) 0.4077(8)
H11_4 H 0.2811 0.0003 0.6193
H15_4 H 0.9089 0.2660 0.4299
O15_4 O 0.9363(8) 0.3221(3) 0.5963(6)
C34_4 C 0.9403(11) 0.3563(4) 0.4304(7)
O19_4 O 0.8528(9) 0.3437(3) 0.4578(6)
O22_4 O 0.6892(8) 0.3060(3) 0.5396(6)
O23_4 O 0.7254(9) 0.3886(3) 0.6210(6)
H29_4 H 0.5975 0.3035 0.5423
H30_4 H 0.7130 0.2720 0.5362
H31_4 H 0.7559 0.3830 0.6592
H32_4 H 0.6603 0.4058 0.6231
C23_4 C 0.4833(13) 0.9801(5) 0.6940(7)
H12_4 H 0.4908 0.9473 0.6861
H13_4 H 0.5572 0.9909 0.7194
H14_4 H 0.4131 0.9854 0.7146
C45_3 C 0.8248(14) 0.9872(5) 0.7946(8)
H37_3 H 0.8965 0.9720 0.7834
H38_3 H 0.7605 0.9645 0.7963
C45_4 C 0.1752(14) 0.0128(5) 0.2054(8)
H37_4 H 0.1035 0.0280 0.2166
H38_4 H 0.2395 0.0355 0.2037
loop_
_geom_bond_atom_site_label_1
_geom_bond_atom_site_label_2
_geom_bond_site_symmetry_1
_geom_bond_site_symmetry_2
O24 C43 1_555 1_555
O26 C43 1_555 1_555
C43 C41 1_555 1_555
Co15 O26 1_555 1_555
Co1 O1 1_555 1_555
O1 C1 1_555 1_555
O3 Co1 1_555 1_555
O4 Co1 1_555 1_555
C2 O3 1_555 1_555
C3 O4 1_555 1_555
C4 C1 1_555 1_555
O13 C3 1_555 1_555
C5 C2 1_555 1_555
C6 C3 1_555 1_555
C8 C4 1_555 1_555
C10 C5 1_555 1_555
C11 C5 1_555 1_555
C12 C6 1_555 1_555
C13 C6 1_555 1_555
H6 C8 1_555 1_555
H7 C10 1_555 1_555
C17 C10 1_555 1_555
H8 C11 1_555 1_555
C18 C11 1_555 1_555
H9 C12 1_555 1_555
C19 C12 1_555 1_555
C20 C13 1_555 1_555
H10 C13 1_555 1_555
C26 C17 1_555 1_555
C27 C17 1_555 1_555
C28 C18 1_555 1_555
C29 C19 1_555 1_555
C30 C19 1_555 1_555
C31 C20 1_555 1_555
O14 C26 1_555 1_555
O15 C26 1_555 1_555
H17 C27 1_555 1_555
H18 C28 1_555 1_555
H19 C28 1_555 1_555
H20 C28 1_555 1_555
O16 C29 1_555 1_555
O17 C29 1_555 1_555
H21 C30 1_555 1_555
H22 C31 1_555 1_555
H23 C31 1_555 1_555
H24 C31 1_555 1_555
Co4 O14 1_555 1_555
Co12 O15 1_555 1_555
Co6 O17 1_555 1_555
O20 Co4 1_555 1_555
O21 Co4 1_555 1_555
O22 Co12 1_555 1_555
O23 Co12 1_555 1_555
H29 O22 1_555 1_555
H30 O22 1_555 1_555
H31 O23 1_555 1_555
H32 O23 1_555 1_555
O27 Co1 1_555 1_555
Co10 O13 1_555 1_555
O31 Co4 1_555 1_555
Co11 O16 1_555 1_555
O32 Co6 1_555 1_555
O33 Co6 1_555 1_555
O35 Co6 1_555 1_555
O37 Co6 1_555 1_555
C2 O8 1_555 1_555
C18 C27 1_555 1_555
C20 C30 1_555 1_555
Co12 O20 1_555 1_555
Co2 O2 1_555 1_555
Co3 O2 1_555 1_555
O6 Co2 1_555 1_555
O7 Co2 1_555 1_555
O9 Co2 1_555 1_555
O10 Co2 1_555 1_555
O11 Co3 1_555 1_555
H1 O7 1_555 1_555
H2 O7 1_555 1_555
H3 O9 1_555 1_555
H4 O9 1_555 1_555
C9 O10 1_555 1_555
C16 C9 1_555 1_555
C24 C16 1_555 1_555
C25 C16 1_555 1_555
H15 C24 1_555 1_555
C32 C24 1_555 1_555
C33 C25 1_555 1_555
H16 C25 1_555 1_555
C34 C32 1_555 1_555
C35 C32 1_555 1_555
C36 C33 1_555 1_555
O18 C34 1_555 1_555
O19 C34 1_555 1_555
H25 C35 1_555 1_555
H26 C36 1_555 1_555
H27 C36 1_555 1_555
H28 C36 1_555 1_555
O25 C37 1_555 1_555
C38 C37 1_555 1_555
C39 C38 1_555 1_555
C40 C38 1_555 1_555
H34 C40 1_555 1_555
C42 C40 1_555 1_555
O29 Co3 1_555 1_555
O30 Co3 1_555 1_555
Co15 O18 1_555 1_555
O11 C9 1_555 1_555
C33 C35 1_555 1_555
O25 Co15 1_555 1_555
C42 C44 1_555 1_555
O27 C21 1_555 1_555
C14 C7 1_555 1_555
C21 C14 1_555 1_555
C22 C14 1_555 1_555
C23 C15 1_555 1_555
H11 C22 1_555 1_555
H12 C23 1_555 1_555
H14 C23 1_555 1_555
C15 C22 1_555 1_555
H12_2 C23_2 1_555 1_555
H13_2 C23_2 1_555 1_555
H14_2 C23_2 1_555 1_555
Co7 O1_2 1_555 1_555
O1_2 C1_2 1_555 1_555
O2_2 Co7 1_555 1_555
O4_2 Co7 1_555 1_555
O5 C21_2 1_555 1_555
C1_2 O6_2 1_555 1_555
Co2_2 O2_2 1_555 1_555
O6_2 Co2_2 1_555 1_555
C4_2 C1_2 1_555 1_555
O7_2 Co2_2 1_555 1_555
O8_2 Co2_2 1_555 1_555
O9_2 Co2_2 1_555 1_555
O10_2 Co2_2 1_555 1_555
O12 C21_2 1_555 1_555
C7_2 C4_2 1_555 1_555
C8_2 C4_2 1_555 1_555
H1_2 O7_2 1_555 1_555
H2_2 O7_2 1_555 1_555
H3_2 O9_2 1_555 1_555
H4_2 O9_2 1_555 1_555
C9_2 O10_2 1_555 1_555
C14_2 C7_2 1_555 1_555
H5_2 C7_2 1_555 1_555
C15_2 C8_2 1_555 1_555
H6_2 C8_2 1_555 1_555
C21_2 C14_2 1_555 1_555
C22_2 C14_2 1_555 1_555
H11_2 C22_2 1_555 1_555
H15_2 C24_2 1_555 1_555
Co5 O15_2 1_555 1_555
O18_2 C34_2 1_555 1_555
O19_2 C34_2 1_555 1_555
O22_2 Co5 1_555 1_555
O23_2 Co5 1_555 1_555
H29_2 O22_2 1_555 1_555
H30_2 O22_2 1_555 1_555
H31_2 O23_2 1_555 1_555
H32_2 O23_2 1_555 1_555
Co9 O12 1_555 1_555
Co14 O18_2 1_555 1_555
O34 Co5 1_555 1_555
C2_2 O8_2 1_555 1_555
C15_2 C22_2 1_555 1_555
Co5 O19_2 1_555 1_555
Co5 O20_2 1_555 1_555
O20_2 Co14 1_555 1_555
O13_2 C3_2 1_555 1_555
H9_2 C12_2 1_555 1_555
O31 C29_2 1_555 1_555
O11_2 Co9 1_555 1_555
C10_2 C5_2 1_555 1_555
C11_2 C5_2 1_555 1_555
C13_2 C6_2 1_555 1_555
C17_2 C10_2 1_555 1_555
H8_2 C11_2 1_555 1_555
C18_2 C11_2 1_555 1_555
C20_2 C13_2 1_555 1_555
H10_2 C13_2 1_555 1_555
C25_2 C16_2 1_555 1_555
C26_2 C17_2 1_555 1_555
C27_2 C17_2 1_555 1_555
C28_2 C18_2 1_555 1_555
C30_2 C19_2 1_555 1_555
C31_2 C20_2 1_555 1_555
C33_2 C25_2 1_555 1_555
H16_2 C25_2 1_555 1_555
O14_2 C26_2 1_555 1_555
H17_2 C27_2 1_555 1_555
H18_2 C28_2 1_555 1_555
H19_2 C28_2 1_555 1_555
H20_2 C28_2 1_555 1_555
H21_2 C30_2 1_555 1_555
H22_2 C31_2 1_555 1_555
H23_2 C31_2 1_555 1_555
H24_2 C31_2 1_555 1_555
C35_2 C32_2 1_555 1_555
C36_2 C33_2 1_555 1_555
Co11 O14_2 1_555 1_555
Co13 O17_2 1_555 1_555
H25_2 C35_2 1_555 1_555
H26_2 C36_2 1_555 1_555
H27_2 C36_2 1_555 1_555
H28_2 C36_2 1_555 1_555
O21_2 Co11 1_555 1_555
O34 C43_2 1_555 1_555
O35 C37_2 1_555 1_555
O26_2 C43_2 1_555 1_555
C37_2 O21_2 1_555 1_555
C38_2 C37_2 1_555 1_555
C39_2 C38_2 1_555 1_555
C40_2 C38_2 1_555 1_555
C41_2 C39_2 1_555 1_555
H33_2 C39_2 1_555 1_555
H34_2 C40_2 1_555 1_555
C42_2 C40_2 1_555 1_555
C43_2 C41_2 1_555 1_555
C44_2 C41_2 1_555 1_555
C45 C42_2 1_555 1_555
H35_2 C44_2 1_555 1_555
H36_2 C45 1_555 1_555
H37 C45 1_555 1_555
H38 C45 1_555 1_555
Co14 O26_2 1_555 1_555
O32_2 Co13 1_555 1_555
O36_2 Co13 1_555 1_555
O37_2 Co13 1_555 1_555
C18_2 C27_2 1_555 1_555
C20_2 C30_2 1_555 1_555
C33_2 C35_2 1_555 1_555
C42_2 C44_2 1_555 1_555
Co10 O12_2 1_555 1_555
O28 C21_3 1_555 1_555
C14_3 C7_3 1_555 1_555
C21_3 C14_3 1_555 1_555
C22_3 C14_3 1_555 1_555
C23_3 C15_3 1_555 1_555
H11_3 C22_3 1_555 1_555
H12_3 C23_3 1_555 1_555
H14_3 C23_3 1_555 1_555
Co8 O28 1_555 1_555
C15_3 C22_3 1_555 1_555
Co2_3 O2_3 1_555 1_555
Co10 O2_3 1_555 1_555
O6_3 Co2_3 1_555 1_555
O7_3 Co2_3 1_555 1_555
O9_3 Co2_3 1_555 1_555
O10_3 Co2_3 1_555 1_555
O11_3 Co10 1_555 1_555
H1_3 O7_3 1_555 1_555
H2_3 O7_3 1_555 1_555
H3_3 O9_3 1_555 1_555
H4_3 O9_3 1_555 1_555
C9_3 O10_3 1_555 1_555
C16_3 C9_3 1_555 1_555
C24_3 C16_3 1_555 1_555
C25_3 C16_3 1_555 1_555
H15_3 C24_3 1_555 1_555
C32_3 C24_3 1_555 1_555
C33_3 C25_3 1_555 1_555
H16_3 C25_3 1_555 1_555
C34_3 C32_3 1_555 1_555
C35_3 C32_3 1_555 1_555
C36_3 C33_3 1_555 1_555
O32_2 C34_3 1_555 1_555
O19_3 C34_3 1_555 1_555
H25_3 C35_3 1_555 1_555
H26_3 C36_3 1_555 1_555
H27_3 C36_3 1_555 1_555
H28_3 C36_3 1_555 1_555
O36_2 C37_3 1_555 1_555
C38_3 C37_3 1_555 1_555
C39_3 C38_3 1_555 1_555
C40_3 C38_3 1_555 1_555
H34_3 C40_3 1_555 1_555
C42_3 C40_3 1_555 1_555
O11_3 C9_3 1_555 1_555
C33_3 C35_3 1_555 1_555
C42_3 C44_3 1_555 1_555
Co8 O1_3 1_555 1_555
O1_3 C1_3 1_555 1_555
O3_3 Co8 1_555 1_555
O4_3 Co8 1_555 1_555
C2_3 O3_3 1_555 1_555
C3_3 O4_3 1_555 1_555
C4_3 C1_3 1_555 1_555
O30 C3_3 1_555 1_555
C5_3 C2_3 1_555 1_555
C6_3 C3_3 1_555 1_555
C8_3 C4_3 1_555 1_555
C10_3 C5_3 1_555 1_555
C11_3 C5_3 1_555 1_555
C12_3 C6_3 1_555 1_555
C13_3 C6_3 1_555 1_555
H6_3 C8_3 1_555 1_555
H7_3 C10_3 1_555 1_555
C17_3 C10_3 1_555 1_555
H8_3 C11_3 1_555 1_555
C18_3 C11_3 1_555 1_555
H9_3 C12_3 1_555 1_555
C19_3 C12_3 1_555 1_555
C20_3 C13_3 1_555 1_555
H10_3 C13_3 1_555 1_555
C26_3 C17_3 1_555 1_555
C27_3 C17_3 1_555 1_555
C28_3 C18_3 1_555 1_555
C29_3 C19_3 1_555 1_555
C30_3 C19_3 1_555 1_555
C31_3 C20_3 1_555 1_555
O14_3 C26_3 1_555 1_555
O15_3 C26_3 1_555 1_555
H17_3 C27_3 1_555 1_555
H18_3 C28_3 1_555 1_555
H19_3 C28_3 1_555 1_555
H20_3 C28_3 1_555 1_555
O16_2 C29_3 1_555 1_555
O17_3 C29_3 1_555 1_555
H21_3 C30_3 1_555 1_555
H22_3 C31_3 1_555 1_555
H23_3 C31_3 1_555 1_555
H24_3 C31_3 1_555 1_555
Co4_2 O14_3 1_555 1_555
Co5_2 O15_3 1_555 1_555
Co14 O17_3 1_555 1_555
O33_2 Co4_2 1_555 1_555
O21_3 Co4_2 1_555 1_555
O22_3 Co5_2 1_555 1_555
O23_3 Co5_2 1_555 1_555
H29_3 O22_3 1_555 1_555
H30_3 O22_3 1_555 1_555
H31_3 O23_3 1_555 1_555
H32_3 O23_3 1_555 1_555
O31_2 Co4_2 1_555 1_555
Co11_2 O16_2 1_555 1_555
O36 Co14 1_555 1_555
C2_3 O8_3 1_555 1_555
C18_3 C27_3 1_555 1_555
C20_3 C30_3 1_555 1_555
Co5_2 O33_2 1_555 1_555
O34_2 C43_3 1_555 1_555
O37_2 C43_3 1_555 1_555
C43_3 C41_3 1_555 1_555
O11_4 Co10_2 1_555 1_555
C10_4 C5_4 1_555 1_555
C11_4 C5_4 1_555 1_555
C13_4 C6_4 1_555 1_555
C17_4 C10_4 1_555 1_555
H8_4 C11_4 1_555 1_555
C18_4 C11_4 1_555 1_555
C20_4 C13_4 1_555 1_555
H10_4 C13_4 1_555 1_555
C25_4 C16_4 1_555 1_555
C26_4 C17_4 1_555 1_555
C27_4 C17_4 1_555 1_555
C28_4 C18_4 1_555 1_555
C30_4 C19_4 1_555 1_555
C31_4 C20_4 1_555 1_555
C33_4 C25_4 1_555 1_555
H16_4 C25_4 1_555 1_555
O14_4 C26_4 1_555 1_555
H17_4 C27_4 1_555 1_555
H18_4 C28_4 1_555 1_555
H19_4 C28_4 1_555 1_555
H20_4 C28_4 1_555 1_555
H21_4 C30_4 1_555 1_555
H22_4 C31_4 1_555 1_555
H23_4 C31_4 1_555 1_555
H24_4 C31_4 1_555 1_555
C35_4 C32_4 1_555 1_555
C36_4 C33_4 1_555 1_555
Co11_2 O14_4 1_555 1_555
Co15 O17_4 1_555 1_555
H25_4 C35_4 1_555 1_555
H26_4 C36_4 1_555 1_555
H27_4 C36_4 1_555 1_555
H28_4 C36_4 1_555 1_555
O21_4 Co11_2 1_555 1_555
O24_2 C43_4 1_555 1_555
O36 C37_4 1_555 1_555
O37 C43_4 1_555 1_555
C37_4 O21_4 1_555 1_555
C38_4 C37_4 1_555 1_555
C39_4 C38_4 1_555 1_555
C40_4 C38_4 1_555 1_555
C41_4 C39_4 1_555 1_555
H33_4 C39_4 1_555 1_555
H34_4 C40_4 1_555 1_555
C42_4 C40_4 1_555 1_555
C43_4 C41_4 1_555 1_555
C44_4 C41_4 1_555 1_555
C45_2 C42_4 1_555 1_555
H35_4 C44_4 1_555 1_555
H36_4 C45_2 1_555 1_555
H37_2 C45_2 1_555 1_555
H38_2 C45_2 1_555 1_555
O29_2 Co10_2 1_555 1_555
Co12_2 O24_2 1_555 1_555
C18_4 C27_4 1_555 1_555
C20_4 C30_4 1_555 1_555
C33_4 C35_4 1_555 1_555
C42_4 C44_4 1_555 1_555
O30_2 C3_4 1_555 1_555
H9_4 C12_4 1_555 1_555
O31_2 C29_4 1_555 1_555
Co8_2 O1_4 1_555 1_555
O1_4 C1_4 1_555 1_555
O2_4 Co8_2 1_555 1_555
O4_4 Co8_2 1_555 1_555
O28_2 C21_4 1_555 1_555
C1_4 O6_4 1_555 1_555
Co2_4 O2_4 1_555 1_555
O6_4 Co2_4 1_555 1_555
C4_4 C1_4 1_555 1_555
O7_4 Co2_4 1_555 1_555
O8_4 Co2_4 1_555 1_555
O9_4 Co2_4 1_555 1_555
O10_4 Co2_4 1_555 1_555
O29_2 C21_4 1_555 1_555
C7_4 C4_4 1_555 1_555
C8_4 C4_4 1_555 1_555
H1_4 O7_4 1_555 1_555
H2_4 O7_4 1_555 1_555
H3_4 O9_4 1_555 1_555
H4_4 O9_4 1_555 1_555
C9_4 O10_4 1_555 1_555
C14_4 C7_4 1_555 1_555
H5_4 C7_4 1_555 1_555
C15_4 C8_4 1_555 1_555
H6_4 C8_4 1_555 1_555
C21_4 C14_4 1_555 1_555
C22_4 C14_4 1_555 1_555
H11_4 C22_4 1_555 1_555
H15_4 C24_4 1_555 1_555
Co12_2 O15_4 1_555 1_555
O32 C34_4 1_555 1_555
O19_4 C34_4 1_555 1_555
O22_4 Co12_2 1_555 1_555
O23_4 Co12_2 1_555 1_555
H29_4 O22_4 1_555 1_555
H30_4 O22_4 1_555 1_555
H31_4 O23_4 1_555 1_555
H32_4 O23_4 1_555 1_555
C2_4 O8_4 1_555 1_555
C15_4 C22_4 1_555 1_555
Co12_2 O19_4 1_555 1_555
Co12_2 O33 1_555 1_555
H12_4 C23_4 1_555 1_555
H13_4 C23_4 1_555 1_555
H14_4 C23_4 1_555 1_555
H37_3 C45_3 1_555 1_555
H38_3 C45_3 1_555 1_555
H37_4 C45_4 1_555 1_555
H38_4 C45_4 1_555 1_555

#END
