
###############################################################################
#
# This file contains modified crystal structure data generated from the
# MOF subset of the Cambridge Structural Database (CSD) v543 
# hosted by the Cambridge Crystallographic Data Centre (CCDC).
#
# This work is licensed under the Creative Commons
# Attribution-NonCommercial-ShareAlike 4.0 International License.
# To view a copy of this license, visit
# http://creativecommons.org/licenses/by-nc-sa/4.0/
# or send a letter to
# Creative Commons, PO Box 1866, Mountain View, CA 94042, USA.
#
# CIF created using the CSD Python API on 29 September 2022
# The structure has been converted into the P1 space group
# The structure has a 3D framework
# The original CSD entry MUQNAQ is in the monoclinic crystal system
# The framework has been calculated to contain at least 10.0% void space
# The void calculation uses a probe of radius 1.32A, grid spacing 0.4
#
###############################################################################

data_MUQNAQ
_chemical_formula_moiety         '(C160 H92 Br20 Co24 O93)n'
_symmetry_cell_setting           triclinic
_symmetry_space_group_name_H-M   'P 1'
_symmetry_Int_Tables_number      1
_space_group_name_Hall           'P 1'
loop_
_symmetry_equiv_pos_site_id
_symmetry_equiv_pos_as_xyz
1 x,y,z
_cell_length_a                   10.891(2)
_cell_length_b                   28.578(6)
_cell_length_c                   22.065(4)
_cell_angle_alpha                90
_cell_angle_beta                 98.81(3)
_cell_angle_gamma                90
_cell_volume                     6786.55
loop_
_atom_site_label
_atom_site_type_symbol
_atom_site_fract_x
_atom_site_fract_y
_atom_site_fract_z
Co3 Co 0.21469(14) 0.13467(5) 0.54482(7)
Co6 Co 0.19686(15) 0.36310(5) 0.45896(8)
O2 O 0.0840(6) 0.4230(2) 0.4495(3)
O11 O 0.1160(8) 0.1540(2) 0.4605(4)
O21 O 0.3318(7) 0.1920(2) 0.5389(4)
H1 H 0.3441 0.2237 0.5649
H2 H 0.3955 0.1973 0.5077
O23 O 0.3141(8) 0.1146(3) 0.6310(4)
H3 H 0.3052 0.1264 0.6758
H4 H 0.3868 0.0896 0.6409
O24 O 0.3099(9) 0.3048(3) 0.4593(5)
H5 H 0.4054 0.2997 0.4783
H6 H 0.2877 0.2710 0.4400
C2 C 0.0104(12) 0.1432(4) 0.4343(5)
O25 O 0.0476(11) 0.3187(3) 0.4308(6)
H10 H 0.0433 0.2338 0.4399
O26 O 0.2201(14) 0.3742(5) 0.3670(5)
H20 H 0.306(3) 0.379(6) 0.357(4)
H21 H 0.162(6) 0.392(2) 0.336(2)
Co9 Co 0.05713(13) 0.04477(4) 0.46496(6)
Co10 Co 0.08831(13) 0.45598(4) 0.53359(6)
O33 O 0.0984(6) 0.0776(2) 0.5495(3)
O36 O 0.3497(7) 0.4022(3) 0.4907(4)
O39 O 0.1669(9) 0.3462(2) 0.5477(4)
O40 O 0.1095(10) 0.1798(2) 0.5884(4)
O41 O 0.3487(7) 0.0978(3) 0.5095(4)
Co4 Co 0.45162(14) 0.41213(4) 0.09150(7)
Co5 Co 0.91617(14) 0.41066(5) 0.40735(7)
Br1 Br 0.6096(2) 0.64897(5) 0.27803(9)
Br3 Br 0.59718(18) 0.19797(6) 0.28668(12)
Br4 Br 0.2002(2) 0.19223(6) 0.18880(12)
Br5 Br 0.6764(2) 0.51403(11) 0.71138(10)
O3 O 0.8997(6) 0.4772(2) 0.5134(3)
O5 O 0.5984(6) 0.4224(2) 0.0495(3)
O6 O 0.2983(7) 0.4258(2) 0.0353(4)
O7 O 0.9675(7) 0.1029(2) 0.4292(3)
O8 O 0.5263(7) 0.1034(3) 0.0706(3)
O9 O 0.2777(8) 0.4536(2) 0.5546(3)
O10 O 0.7915(7) 0.4185(2) 0.4631(4)
O13 O 0.4257(7) 0.3449(2) 0.1054(4)
O14 O 0.4720(7) 0.5031(3) 0.1124(4)
O15 O 0.9128(8) 0.5077(3) 0.3856(4)
O16 O 0.6669(9) 0.1538(2) 0.0477(4)
O17 O 0.6095(10) 0.3202(2) 0.0884(4)
O19 O 0.8493(9) 0.4447(3) 0.3332(4)
O20 O 0.8756(8) 0.3466(3) 0.3809(5)
O22 O 0.5072(8) 0.4415(3) 0.1710(3)
C1 C 0.5028(11) 0.1817(4) 0.0970(5)
C4 C 0.7367(11) 0.5633(4) 0.3056(5)
H7 H 0.7872 0.5801 0.3358
C5 C 0.5323(11) 0.2281(4) 0.0893(5)
H8 H 0.5993 0.2351 0.0692
C6 C 0.4670(11) 0.2644(3) 0.1100(5)
C8 C 0.7069(10) 0.4554(3) 0.5419(5)
C9 C 0.9269(11) 0.1819(3) 0.4056(5)
C10 C 0.5938(10) 0.5138(4) 0.2120(5)
C12 C 0.5858(10) 0.4408(3) 0.5209(5)
H9 H 0.5677 0.4256 0.4833
C13 C 0.3636(11) 0.4330(4) 0.5299(6)
C14 C 0.7524(11) 0.5150(4) 0.2989(5)
C15 C 0.9674(11) 0.2280(3) 0.4155(5)
C16 C 0.5758(12) 0.5615(4) 0.2168(5)
H11 H 0.5197 0.5771 0.1877
C17 C 0.5695(13) 0.1435(4) 0.0691(6)
C18 C 0.4923(10) 0.4489(4) 0.5557(6)
C19 C 0.5030(14) 0.3133(3) 0.0995(5)
C20 C 0.8969(11) 0.2648(3) 0.3897(6)
H12 H 0.0699 0.4259 0.0119
C23 C 0.5176(11) 0.4853(4) 0.1608(6)
C24 C 0.8458(14) 0.4881(5) 0.3419(6)
C25 C 0.3666(13) 0.2541(4) 0.1417(7)
H13 H 0.3210 0.2779 0.1565
C26 C 0.9461(14) 0.3139(4) 0.3997(6)
C27 C 0.4040(13) 0.1706(4) 0.1280(6)
H14 H 0.3825 0.1396 0.1339
C28 C 0.6772(11) 0.4913(4) 0.2534(5)
H15 H 0.6840 0.4589 0.2511
C29 C 0.8139(12) 0.1735(4) 0.3682(6)
H16 H 0.7846 0.1431 0.3612
C30 C 0.6416(12) 0.5855(4) 0.2650(6)
C31 C 0.7333(11) 0.4772(4) 0.5994(6)
H17 H 0.8143 0.4861 0.6146
C35 C 0.7477(12) 0.2103(4) 0.3425(7)
C36 C 0.7852(12) 0.2552(4) 0.3514(6)
H22 H 0.7371 0.2795 0.3323
C37 C 0.5190(11) 0.4720(4) 0.6123(6)
H23 H 0.4558 0.4783 0.6351
C38 C 0.6386(12) 0.4853(5) 0.6338(6)
C39 C 0.3381(12) 0.2074(4) 0.1500(6)
C40 C 0.8050(11) 0.4502(4) 0.5035(6)
Co8 Co 0.44287(13) 0.54477(4) 0.03504(6)
Co11 Co 0.91169(13) 0.54402(4) 0.46641(6)
Co12 Co 0.58831(13) 0.04402(4) 0.03359(6)
Co14 Co 0.71469(14) 0.36533(5) 0.04482(7)
O31 O 0.1003(6) 0.5228(2) 0.4866(3)
O35 O 0.0263(7) 0.3966(3) 0.5706(3)
O38 O 0.0872(8) 0.4923(3) 0.6144(4)
Br2 Br 0.01579(18) 0.52422(8) 0.79136(8)
O1 O 0.3795(7) 0.4809(2) 0.9818(3)
C3 C 0.2881(11) 0.4548(4) 0.9926(6)
C11 C 0.1647(10) 0.4612(3) 0.9551(5)
C22 C 0.0601(10) 0.4430(3) 0.9756(5)
C32 C 0.1540(11) 0.4851(4) 0.8994(6)
H18 H 0.2234 0.4963 0.8841
C34 C 0.0323(14) 0.4915(5) 0.8673(6)
Co7 Co 0.55713(13) 0.45523(4) 0.96496(6)
Co16 Co 0.69686(15) 0.13690(5) 0.95896(8)
O18 O 0.8487(7) 0.4022(3) 0.0095(4)
O28 O 0.6205(7) 0.5191(2) 0.0182(3)
O4 O 0.7292(7) 0.4482(2) 0.9426(3)
C7 C 0.9422(10) 0.4493(3) 0.9438(5)
C21 C 0.8330(10) 0.4315(4) 0.9674(6)
C33 C 0.9301(11) 0.4746(4) 0.8875(6)
H19 H 0.8519 0.4795 0.8648
O34 O 0.4675(7) 0.3971(2) 0.9292(3)
O37 O 0.5280(7) 0.4969(3) 0.8876(4)
O27 O 0.1205(7) 0.9809(2) 0.5182(3)
O34_2 O 0.0325(7) 0.8971(2) 0.5708(3)
Br2_2 Br 0.48421(18) 0.02422(8) 0.70864(8)
O14_2 O 0.0280(7) 0.0031(3) 0.3876(4)
O28_2 O 0.8795(7) 0.0191(2) 0.4818(3)
O31_2 O 0.3997(6) 0.0228(2) 0.0134(3)
Co1 Co 0.94287(13) 0.95523(4) 0.53504(6)
Co4_2 Co 0.04838(14) 0.91213(4) 0.40850(7)
Br4_2 Br 0.2998(2) 0.69223(6) 0.31120(12)
O4_2 O 0.7708(7) 0.9482(2) 0.5574(3)
O6_2 O 0.2017(7) 0.9258(2) 0.4647(4)
O12 O 0.1503(7) 0.9022(3) 0.0093(4)
O13_2 O 0.0743(7) 0.8449(2) 0.3946(4)
O18_2 O 0.6513(7) 0.9022(3) 0.4905(4)
C3_2 C 0.2119(11) 0.9548(4) 0.5074(6)
C6_2 C 0.0330(11) 0.7644(3) 0.3900(5)
C7_2 C 0.5578(10) 0.9493(3) 0.5562(5)
C11_2 C 0.3353(10) 0.9612(3) 0.5449(5)
C21_2 C 0.6670(10) 0.9315(4) 0.5326(6)
C22_2 C 0.4399(10) 0.9430(3) 0.5244(5)
H12_2 H 0.4301 0.9259 0.4881
C25_2 C 0.1334(13) 0.7541(4) 0.3583(7)
H13_2 H 0.1790 0.7779 0.3435
C27_2 C 0.0960(13) 0.6706(4) 0.3720(6)
H14_2 H 0.1175 0.6396 0.3661
C32_2 C 0.3460(11) 0.9851(4) 0.6006(6)
H18_2 H 0.2766 0.9963 0.6159
C33_2 C 0.5699(11) 0.9746(4) 0.6125(6)
H19_2 H 0.6481 0.9795 0.6352
C34_2 C 0.4677(14) 0.9915(5) 0.6327(6)
C39_2 C 0.1619(12) 0.7074(4) 0.3500(6)
Co13 Co 0.78531(14) 0.86533(5) 0.45518(7)
Co15 Co 0.30314(15) 0.86310(5) 0.04104(8)
O29 O 0.4160(6) 0.9230(2) 0.0505(3)
O32 O 0.9016(6) 0.9224(2) 0.4505(3)
O37_2 O 0.9720(7) 0.9969(3) 0.6124(4)
Co2 Co 0.41169(13) 0.95598(4) 0.96641(6)
O9_2 O 0.2223(8) 0.9536(2) 0.9454(3)
C13_2 C 0.1364(11) 0.9330(4) 0.9701(6)
C18_2 C 0.0077(10) 0.9489(4) 0.9443(6)
H23_2 H 0.0442 0.9783 0.8649
O30 O 0.6003(6) 0.9772(2) 0.9866(3)
O35_2 O 0.4737(7) 0.8966(3) 0.9294(3)
O38_2 O 0.4128(8) 0.9923(3) 0.8856(4)
Br1_2 Br 0.8904(2) 0.14897(5) 0.22197(9)
O15_2 O 0.5872(8) 0.0077(3) 0.1144(4)
C4_2 C 0.7633(11) 0.0633(4) 0.1944(5)
H7_2 H 0.7128 0.0801 0.1642
C10_2 C 0.9062(10) 0.0138(4) 0.2880(5)
C14_2 C 0.7476(11) 0.0150(4) 0.2011(5)
C16_2 C 0.9242(12) 0.0615(4) 0.2832(5)
H11_2 H 0.9803 0.0771 0.3123
C30_2 C 0.8584(12) 0.0855(4) 0.2350(6)
Co5_2 Co 0.58383(14) 0.91066(5) 0.09265(7)
Br3_2 Br 0.90282(18) 0.69797(6) 0.21332(12)
O7_2 O 0.5325(7) 0.6029(2) 0.0708(3)
O8_2 O 0.9737(7) 0.6034(3) 0.4294(3)
O10_2 O 0.7085(7) 0.9185(2) 0.0369(4)
O11_2 O 0.3840(8) 0.6540(2) 0.0395(4)
O16_2 O 0.8331(9) 0.6538(2) 0.4523(4)
O17_2 O 0.8905(10) 0.8202(2) 0.4116(4)
O19_2 O 0.6507(9) 0.9447(3) 0.1668(4)
O20_2 O 0.6244(8) 0.8466(3) 0.1191(5)
O22_2 O 0.9928(8) 0.9415(3) 0.3290(3)
O24_2 O 0.1901(9) 0.8048(3) 0.0407(5)
H5_2 H 0.0946 0.7997 0.0217
H6_2 H 0.2123 0.7710 0.0600
C1_2 C 0.9972(11) 0.6817(4) 0.4030(5)
C2_2 C 0.4896(12) 0.6432(4) 0.0657(5)
C5_2 C 0.9677(11) 0.7281(4) 0.4107(5)
H8_2 H 0.9007 0.7351 0.4308
O25_2 O 0.4524(11) 0.8187(3) 0.0692(6)
C9_2 C 0.5731(11) 0.6819(3) 0.0944(5)
H9_2 H 0.9323 0.9256 0.0167
C15_2 C 0.5326(11) 0.7280(3) 0.0845(5)
H10_2 H 0.4567 0.7338 0.0601
C17_2 C 0.9305(13) 0.6435(4) 0.4309(6)
C19_2 C 0.9970(14) 0.8133(3) 0.4005(5)
C20_2 C 0.6031(11) 0.7648(3) 0.1103(6)
C23_2 C 0.9824(11) 0.9853(4) 0.3392(6)
C24_2 C 0.6542(14) 0.9881(5) 0.1581(6)
C26_2 C 0.5539(14) 0.8139(4) 0.1003(6)
C28_2 C 0.8228(11) 0.9913(4) 0.2466(5)
H15_2 H 0.8160 0.9589 0.2489
C29_2 C 0.6861(12) 0.6735(4) 0.1318(6)
H16_2 H 0.7154 0.6431 0.1388
C35_2 C 0.7523(12) 0.7103(4) 0.1575(7)
O26_2 O 0.2799(14) 0.8742(5) 0.1330(5)
H20_2 H 0.194(3) 0.879(6) 0.143(4)
H21_2 H 0.338(6) 0.892(2) 0.164(2)
C36_2 C 0.7148(12) 0.7552(4) 0.1486(6)
H22_2 H 0.7629 0.7795 0.1677
Co16_2 Co 0.80314(15) 0.63690(5) 0.54104(8)
Co3_2 Co 0.28531(14) 0.63467(5) 0.95518(7)
O21_2 O 0.1682(7) 0.6920(2) 0.9611(4)
H1_2 H 0.1559 0.7237 0.9351
H2_2 H 0.1045 0.6973 0.9923
O23_2 O 0.1859(8) 0.6146(3) 0.8690(4)
H3_2 H 0.1948 0.6264 0.8242
H4_2 H 0.1132 0.5896 0.8591
C8_2 C 0.7931(10) 0.9554(3) 0.9581(5)
C12_2 C 0.9142(10) 0.9408(3) 0.9791(5)
C31_2 C 0.7667(11) 0.9772(4) 0.9006(6)
H17_2 H 0.6857 0.9861 0.8854
C37_2 C 0.9810(11) 0.9720(4) 0.8877(6)
C38_2 C 0.8614(12) 0.9853(5) 0.8662(6)
C40_2 C 0.6950(11) 0.9502(4) 0.9965(6)
O33_2 O 0.4016(6) 0.5776(2) 0.9505(3)
O39_2 O 0.3331(9) 0.8462(2) 0.9523(4)
O40_2 O 0.3905(10) 0.6798(2) 0.9116(4)
O41_2 O 0.1513(7) 0.5978(3) 0.9905(4)
O4_3 O 0.2708(7) 0.5518(2) 0.0574(3)
C7_3 C 0.0578(10) 0.5507(3) 0.0562(5)
C21_3 C 0.1670(10) 0.5685(4) 0.0326(6)
C33_3 C 0.0699(11) 0.5254(4) 0.1125(6)
H19_3 H 0.1481 0.5205 0.1352
Br2_3 Br 0.98421(18) 0.47578(8) 0.20864(8)
C3_3 C 0.7119(11) 0.5452(4) 0.0074(6)
C11_3 C 0.8353(10) 0.5388(3) 0.0449(5)
C22_3 C 0.9399(10) 0.5570(3) 0.0244(5)
C32_3 C 0.8460(11) 0.5149(4) 0.1006(6)
H18_3 H 0.7766 0.5037 0.1159
C34_3 C 0.9677(14) 0.5085(5) 0.1327(6)
Co4_3 Co 0.54838(14) 0.58787(4) 0.90850(7)
Co5_3 Co 0.08383(14) 0.58934(5) 0.59265(7)
Br1_3 Br 0.3904(2) 0.35103(5) 0.72197(9)
Br3_3 Br 0.40282(18) 0.80203(6) 0.71332(12)
Br4_3 Br 0.7998(2) 0.80777(6) 0.81120(12)
Br5_2 Br 0.3236(2) 0.48597(11) 0.28862(10)
O6_3 O 0.7017(7) 0.5742(2) 0.9647(4)
O9_3 O 0.7223(8) 0.5464(2) 0.4454(3)
O10_3 O 0.2085(7) 0.5815(2) 0.5369(4)
O12_2 O 0.6503(7) 0.5978(3) 0.5093(4)
O13_3 O 0.5743(7) 0.6551(2) 0.8946(4)
O19_3 O 0.1507(9) 0.5553(3) 0.6668(4)
O20_3 O 0.1244(8) 0.6534(3) 0.6191(5)
O22_3 O 0.4928(8) 0.5585(3) 0.8290(3)
C1_3 C 0.4972(11) 0.8183(4) 0.9030(5)
C4_3 C 0.2633(11) 0.4367(4) 0.6944(5)
H7_3 H 0.2128 0.4199 0.6642
C5_3 C 0.4677(11) 0.7719(4) 0.9107(5)
H8_3 H 0.4007 0.7649 0.9308
C6_3 C 0.5330(11) 0.7356(3) 0.8900(5)
C8_3 C 0.2931(10) 0.5446(3) 0.4581(5)
C9_3 C 0.0731(11) 0.8181(3) 0.5944(5)
C10_3 C 0.4062(10) 0.4862(4) 0.7880(5)
C12_3 C 0.4142(10) 0.5592(3) 0.4791(5)
H9_3 H 0.4323 0.5744 0.5167
C13_3 C 0.6364(11) 0.5670(4) 0.4701(6)
C14_3 C 0.2476(11) 0.4850(4) 0.7011(5)
C15_3 C 0.0326(11) 0.7720(3) 0.5845(5)
C16_3 C 0.4242(12) 0.4385(4) 0.7832(5)
H11_3 H 0.4803 0.4229 0.8123
C17_3 C 0.4305(13) 0.8565(4) 0.9309(6)
C18_3 C 0.5077(10) 0.5511(4) 0.4443(6)
C19_3 C 0.4970(14) 0.6867(3) 0.9005(5)
C20_3 C 0.1031(11) 0.7352(3) 0.6103(6)
H12_3 H 0.9301 0.5741 0.9881
C23_3 C 0.4824(11) 0.5147(4) 0.8392(6)
C24_3 C 0.1542(14) 0.5119(5) 0.6581(6)
C25_3 C 0.6334(13) 0.7459(4) 0.8583(7)
H13_3 H 0.6790 0.7221 0.8435
C26_3 C 0.0539(14) 0.6861(4) 0.6003(6)
C27_3 C 0.5960(13) 0.8294(4) 0.8720(6)
H14_3 H 0.6175 0.8604 0.8661
C28_3 C 0.3228(11) 0.5087(4) 0.7466(5)
H15_3 H 0.3160 0.5411 0.7489
C29_3 C 0.1861(12) 0.8265(4) 0.6318(6)
H16_3 H 0.2154 0.8569 0.6388
C30_3 C 0.3584(12) 0.4145(4) 0.7350(6)
C31_3 C 0.2667(11) 0.5228(4) 0.4006(6)
H17_3 H 0.1857 0.5139 0.3854
C35_3 C 0.2523(12) 0.7897(4) 0.6575(7)
C36_3 C 0.2148(12) 0.7448(4) 0.6486(6)
H22_3 H 0.2629 0.7205 0.6677
C37_3 C 0.4810(11) 0.5280(4) 0.3877(6)
H23_3 H 0.5442 0.5217 0.3649
C38_3 C 0.3614(12) 0.5147(5) 0.3662(6)
C39_3 C 0.6619(12) 0.7926(4) 0.8500(6)
C40_3 C 0.1950(11) 0.5498(4) 0.4965(6)
O29_2 O 0.9160(6) 0.5770(2) 0.5505(3)
O11_3 O 0.8840(8) 0.8460(2) 0.5395(4)
O21_3 O 0.6682(7) 0.8080(2) 0.4611(4)
H1_3 H 0.6559 0.7763 0.4351
H2_3 H 0.6045 0.8027 0.4923
O23_3 O 0.6859(8) 0.8854(3) 0.3690(4)
H3_3 H 0.6948 0.8736 0.3242
H4_3 H 0.6132 0.9104 0.3591
O24_3 O 0.6901(9) 0.6952(3) 0.5407(5)
H5_3 H 0.5946 0.7003 0.5217
H6_3 H 0.7123 0.7290 0.5600
C2_3 C 0.9896(12) 0.8568(4) 0.5657(5)
O25_3 O 0.9524(11) 0.6813(3) 0.5692(6)
H10_3 H 0.9567 0.7662 0.5601
O26_3 O 0.7799(14) 0.6258(5) 0.6330(5)
H20_3 H 0.694(3) 0.621(6) 0.643(4)
H21_3 H 0.838(6) 0.608(2) 0.664(2)
O21_4 O 0.8318(7) 0.3080(2) 0.0389(4)
H1_4 H 0.8441 0.2763 0.0649
H2_4 H 0.8955 0.3027 0.0077
O23_4 O 0.8141(8) 0.3854(3) 0.1310(4)
H3_4 H 0.8052 0.3736 0.1758
H4_4 H 0.8868 0.4104 0.1409
C8_4 C 0.2069(10) 0.0446(3) 0.0419(5)
C12_4 C 0.0858(10) 0.0592(3) 0.0209(5)
C31_4 C 0.2333(11) 0.0228(4) 0.0994(6)
H17_4 H 0.3143 0.0139 0.1146
C37_4 C 0.0190(11) 0.0280(4) 0.1123(6)
C38_4 C 0.1386(12) 0.0147(5) 0.1338(6)
C40_4 C 0.3050(11) 0.0498(4) 0.0035(6)
Co5_4 Co 0.41617(14) 0.08934(5) 0.90735(7)
Br3_4 Br 0.09718(18) 0.30203(6) 0.78668(12)
O2_2 O 0.5840(6) 0.0770(2) 0.9495(3)
O10_4 O 0.2915(7) 0.0815(2) 0.9631(4)
O11_4 O 0.6160(8) 0.3460(2) 0.9605(4)
O19_4 O 0.3493(9) 0.0553(3) 0.8332(4)
O20_4 O 0.3756(8) 0.1534(3) 0.8809(5)
O22_4 O 0.0072(8) 0.0585(3) 0.6710(3)
O24_4 O 0.8099(9) 0.1952(3) 0.9593(5)
H5_4 H 0.9054 0.2003 0.9783
H6_4 H 0.7877 0.2290 0.9400
C1_4 C 0.0028(11) 0.3183(4) 0.5970(5)
C2_4 C 0.5104(12) 0.3568(4) 0.9343(5)
C5_4 C 0.0323(11) 0.2719(4) 0.5893(5)
H8_4 H 0.0993 0.2649 0.5692
O25_4 O 0.5476(11) 0.1813(3) 0.9308(6)
C9_4 C 0.4269(11) 0.3181(3) 0.9056(5)
H9_4 H 0.0677 0.0744 0.9833
C15_4 C 0.4674(11) 0.2720(3) 0.9155(5)
H10_4 H 0.5433 0.2662 0.9399
C17_4 C 0.0695(13) 0.3565(4) 0.5691(6)
C19_4 C 0.0030(14) 0.1867(3) 0.5995(5)
C20_4 C 0.3969(11) 0.2352(3) 0.8897(6)
C23_4 C 0.0176(11) 0.0147(4) 0.6608(6)
C24_4 C 0.3458(14) 0.0119(5) 0.8419(6)
C26_4 C 0.4461(14) 0.1861(4) 0.8997(6)
C28_4 C 0.1772(11) 0.0087(4) 0.7534(5)
H15_4 H 0.1840 0.0411 0.7511
C29_4 C 0.3139(12) 0.3265(4) 0.8682(6)
H16_4 H 0.2846 0.3569 0.8612
C35_4 C 0.2477(12) 0.2897(4) 0.8425(7)
O26_4 O 0.7201(14) 0.1258(5) 0.8670(5)
H20_4 H 0.806(3) 0.121(6) 0.857(4)
H21_4 H 0.662(6) 0.108(2) 0.836(2)
C36_4 C 0.2852(12) 0.2448(4) 0.8514(6)
H22_4 H 0.2371 0.2205 0.8323
O36_2 O 0.8497(7) 0.0978(3) 0.9907(4)
Br1_4 Br 0.1096(2) 0.85103(5) 0.77803(9)
C4_4 C 0.2367(11) 0.9367(4) 0.8056(5)
H7_4 H 0.2872 0.9199 0.8358
C10_4 C 0.0938(10) 0.9862(4) 0.7120(5)
C14_4 C 0.2524(11) 0.9850(4) 0.7989(5)
C16_4 C 0.0758(12) 0.9385(4) 0.7168(5)
H11_4 H 0.0197 0.9229 0.6877
C30_4 C 0.1416(12) 0.9145(4) 0.7650(6)
O9_4 O 0.7777(8) 0.0464(2) 0.0546(3)
C13_4 C 0.8636(11) 0.0670(4) 0.0299(6)
C18_4 C 0.9923(10) 0.0511(4) 0.0557(6)
H23_4 H 0.9558 0.0217 0.1351
Co4_4 Co 0.95162(14) 0.08787(4) 0.59150(7)
Br4_4 Br 0.7002(2) 0.30777(6) 0.68880(12)
O4_4 O 0.2292(7) 0.0518(2) 0.4426(3)
O6_4 O 0.7983(7) 0.0742(2) 0.5353(4)
O13_4 O 0.9257(7) 0.1551(2) 0.6054(4)
C3_4 C 0.7881(11) 0.0452(4) 0.4926(6)
C6_4 C 0.9670(11) 0.2356(3) 0.6100(5)
C7_4 C 0.4422(10) 0.0507(3) 0.4438(5)
C11_4 C 0.6647(10) 0.0388(3) 0.4551(5)
C21_4 C 0.3330(10) 0.0685(4) 0.4674(6)
C22_4 C 0.5601(10) 0.0570(3) 0.4756(5)
H12_4 H 0.5699 0.0741 0.5119
C25_4 C 0.8666(13) 0.2459(4) 0.6417(7)
H13_4 H 0.8210 0.2221 0.6565
C27_4 C 0.9040(13) 0.3294(4) 0.6280(6)
H14_4 H 0.8825 0.3604 0.6339
C32_4 C 0.6540(11) 0.0149(4) 0.3994(6)
H18_4 H 0.7234 0.0037 0.3841
C33_4 C 0.4301(11) 0.0254(4) 0.3875(6)
H19_4 H 0.3519 0.0205 0.3648
C34_4 C 0.5323(14) 0.0085(5) 0.3673(6)
C39_4 C 0.8381(12) 0.2926(4) 0.6500(6)
Br2_4 Br 0.51579(18) 0.97578(8) 0.29136(8)
Br5_3 Br 0.8236(2) 0.01403(11) 0.78862(10)
Br5_4 Br 0.1764(2) 0.98597(11) 0.21138(10)
loop_
_geom_bond_atom_site_label_1
_geom_bond_atom_site_label_2
_geom_bond_site_symmetry_1
_geom_bond_site_symmetry_2
Co3 O11 1_555 1_555
Co6 O2 1_555 1_555
O2 Co10 1_555 1_555
O11 C2 1_555 1_555
O21 Co3 1_555 1_555
H1 O21 1_555 1_555
H2 O21 1_555 1_555
O23 Co3 1_555 1_555
H3 O23 1_555 1_555
H4 O23 1_555 1_555
O24 Co6 1_555 1_555
H5 O24 1_555 1_555
H6 O24 1_555 1_555
O25 Co6 1_555 1_555
O26 Co6 1_555 1_555
H20 O26 1_555 1_555
H21 O26 1_555 1_555
O33 Co3 1_555 1_555
O36 Co6 1_555 1_555
O39 Co6 1_555 1_555
O40 Co3 1_555 1_555
O41 Co3 1_555 1_555
Co9 O33 1_555 1_555
Co10 O9 1_555 1_555
Co4 O5 1_555 1_555
Br1 C30 1_555 1_555
Br3 C35 1_555 1_555
Br4 C39 1_555 1_555
Br5 C38 1_555 1_555
O3 C40 1_555 1_555
O6 Co4 1_555 1_555
O8 C17 1_555 1_555
O9 C13 1_555 1_555
O10 Co5 1_555 1_555
O36 C13 1_555 1_555
O13 Co4 1_555 1_555
O14 C23 1_555 1_555
O15 C24 1_555 1_555
O16 C17 1_555 1_555
O17 C19 1_555 1_555
O19 Co5 1_555 1_555
O20 Co5 1_555 1_555
O22 Co4 1_555 1_555
C1 C5 1_555 1_555
C4 H7 1_555 1_555
C5 H8 1_555 1_555
C6 C5 1_555 1_555
C8 C12 1_555 1_555
C9 C15 1_555 1_555
C10 C16 1_555 1_555
C12 H9 1_555 1_555
C13 C18 1_555 1_555
C14 C4 1_555 1_555
C16 H11 1_555 1_555
C17 C1 1_555 1_555
C18 C12 1_555 1_555
C19 O13 1_555 1_555
C20 C15 1_555 1_555
C23 O22 1_555 1_555
C24 O19 1_555 1_555
C25 C6 1_555 1_555
H13 C25 1_555 1_555
C26 O20 1_555 1_555
C27 C1 1_555 1_555
H14 C27 1_555 1_555
C28 C10 1_555 1_555
H15 C28 1_555 1_555
C29 C9 1_555 1_555
H16 C29 1_555 1_555
C30 C4 1_555 1_555
C31 C8 1_555 1_555
H17 C31 1_555 1_555
C35 C29 1_555 1_555
C36 C20 1_555 1_555
H22 C36 1_555 1_555
C37 C18 1_555 1_555
H23 C37 1_555 1_555
C38 C31 1_555 1_555
C39 C25 1_555 1_555
C40 O10 1_555 1_555
Co11 O3 1_555 1_555
Co12 O8 1_555 1_555
Co14 O5 1_555 1_555
O31 Co10 1_555 1_555
O35 Co10 1_555 1_555
O38 Co10 1_555 1_555
O14 Co8 1_555 1_555
O15 Co11 1_555 1_555
O17 Co14 1_555 1_555
C6 C19 1_555 1_555
C8 C40 1_555 1_555
C10 C23 1_555 1_555
C14 C24 1_555 1_555
C14 C28 1_555 1_555
C16 C30 1_555 1_555
C20 C26 1_555 1_555
C27 C39 1_555 1_555
C35 C36 1_555 1_555
C37 C38 1_555 1_555
Br2 C34 1_555 1_555
O1 C3 1_555 1_555
C11 C3 1_555 1_555
C32 C11 1_555 1_555
H18 C32 1_555 1_555
C34 C32 1_555 1_555
Co7 O1 1_555 1_555
C11 C22 1_555 1_555
Co14 O18 1_555 1_555
Co7 O4 1_555 1_555
O4 C21 1_555 1_555
C7 C21 1_555 1_555
C33 C7 1_555 1_555
H19 C33 1_555 1_555
O34 Co7 1_555 1_555
O37 Co7 1_555 1_555
O14_2 Co9 1_555 1_555
Co1 O4_2 1_555 1_555
Br4_2 C39_2 1_555 1_555
O27 C3_2 1_555 1_555
O4_2 C21_2 1_555 1_555
O6_2 Co4_2 1_555 1_555
O13_2 Co4_2 1_555 1_555
O18_2 C21_2 1_555 1_555
C3_2 O6_2 1_555 1_555
C7_2 C21_2 1_555 1_555
C11_2 C3_2 1_555 1_555
C22_2 C7_2 1_555 1_555
H12_2 C22_2 1_555 1_555
C25_2 C6_2 1_555 1_555
H13_2 C25_2 1_555 1_555
H14_2 C27_2 1_555 1_555
C32_2 C11_2 1_555 1_555
H18_2 C32_2 1_555 1_555
C33_2 C7_2 1_555 1_555
H19_2 C33_2 1_555 1_555
C34_2 C32_2 1_555 1_555
C39_2 C25_2 1_555 1_555
Co13 O18_2 1_555 1_555
Co15 O12 1_555 1_555
O32 Co1 1_555 1_555
O37_2 Co1 1_555 1_555
C11_2 C22_2 1_555 1_555
C27_2 C39_2 1_555 1_555
C33_2 C34_2 1_555 1_555
Co13 O32 1_555 1_555
Co15 O29 1_555 1_555
Co2 O9_2 1_555 1_555
O9_2 C13_2 1_555 1_555
C13_2 C18_2 1_555 1_555
O30 Co2 1_555 1_555
O35_2 Co2 1_555 1_555
O38_2 Co2 1_555 1_555
Br1_2 C30_2 1_555 1_555
C4_2 H7_2 1_555 1_555
C10_2 C16_2 1_555 1_555
C14_2 C4_2 1_555 1_555
C16_2 H11_2 1_555 1_555
C30_2 C4_2 1_555 1_555
O15_2 Co12 1_555 1_555
C16_2 C30_2 1_555 1_555
Co5_2 O29 1_555 1_555
Br3_2 C35_2 1_555 1_555
O7_2 C2_2 1_555 1_555
O8_2 C17_2 1_555 1_555
O10_2 Co5_2 1_555 1_555
O11_2 C2_2 1_555 1_555
O16_2 C17_2 1_555 1_555
O17_2 C19_2 1_555 1_555
O19_2 Co5_2 1_555 1_555
O20_2 Co5_2 1_555 1_555
O24_2 Co15 1_555 1_555
H5_2 O24_2 1_555 1_555
H6_2 O24_2 1_555 1_555
C1_2 C5_2 1_555 1_555
C2_2 C9_2 1_555 1_555
C5_2 H8_2 1_555 1_555
O25_2 Co15 1_555 1_555
C9_2 C15_2 1_555 1_555
C15_2 H10_2 1_555 1_555
C17_2 C1_2 1_555 1_555
C20_2 C15_2 1_555 1_555
C23_2 O22_2 1_555 1_555
C24_2 O19_2 1_555 1_555
C26_2 O20_2 1_555 1_555
H15_2 C28_2 1_555 1_555
C29_2 C9_2 1_555 1_555
H16_2 C29_2 1_555 1_555
C35_2 C29_2 1_555 1_555
O26_2 Co15 1_555 1_555
H20_2 O26_2 1_555 1_555
H21_2 O26_2 1_555 1_555
C36_2 C20_2 1_555 1_555
H22_2 C36_2 1_555 1_555
Co8 O7_2 1_555 1_555
Co11 O8_2 1_555 1_555
Co16_2 O16_2 1_555 1_555
O17_2 Co13 1_555 1_555
O25_2 C26_2 1_555 1_555
C20_2 C26_2 1_555 1_555
C35_2 C36_2 1_555 1_555
O30 C40_2 1_555 1_555
O21_2 Co3_2 1_555 1_555
H1_2 O21_2 1_555 1_555
H2_2 O21_2 1_555 1_555
O23_2 Co3_2 1_555 1_555
H3_2 O23_2 1_555 1_555
H4_2 O23_2 1_555 1_555
C8_2 C12_2 1_555 1_555
C31_2 C8_2 1_555 1_555
H17_2 C31_2 1_555 1_555
C38_2 C31_2 1_555 1_555
O33_2 Co3_2 1_555 1_555
O40_2 Co3_2 1_555 1_555
O41_2 Co3_2 1_555 1_555
C8_2 C40_2 1_555 1_555
C37_2 C38_2 1_555 1_555
Co8 O4_3 1_555 1_555
O4_3 C21_3 1_555 1_555
C7_3 C21_3 1_555 1_555
C33_3 C7_3 1_555 1_555
H19_3 C33_3 1_555 1_555
O28 Co8 1_555 1_555
Br2_3 C34_3 1_555 1_555
O28 C3_3 1_555 1_555
C11_3 C3_3 1_555 1_555
C32_3 C11_3 1_555 1_555
H18_3 C32_3 1_555 1_555
C34_3 C32_3 1_555 1_555
C11_3 C22_3 1_555 1_555
Co11 O9_3 1_555 1_555
Co4_3 O33_2 1_555 1_555
Br1_3 C30_3 1_555 1_555
Br3_3 C35_3 1_555 1_555
Br4_3 C39_3 1_555 1_555
Br5_2 C38_3 1_555 1_555
O31 C40_3 1_555 1_555
O6_3 Co4_3 1_555 1_555
O35_2 C17_3 1_555 1_555
O9_3 C13_3 1_555 1_555
O10_3 Co5_3 1_555 1_555
O12_2 C13_3 1_555 1_555
O13_3 Co4_3 1_555 1_555
O37 C23_3 1_555 1_555
O38 C24_3 1_555 1_555
O39_2 C17_3 1_555 1_555
O40_2 C19_3 1_555 1_555
O19_3 Co5_3 1_555 1_555
O20_3 Co5_3 1_555 1_555
O22_3 Co4_3 1_555 1_555
C1_3 C5_3 1_555 1_555
C4_3 H7_3 1_555 1_555
C5_3 H8_3 1_555 1_555
C6_3 C5_3 1_555 1_555
C8_3 C12_3 1_555 1_555
C9_3 C15_3 1_555 1_555
C10_3 C16_3 1_555 1_555
C12_3 H9_3 1_555 1_555
C13_3 C18_3 1_555 1_555
C14_3 C4_3 1_555 1_555
C16_3 H11_3 1_555 1_555
C17_3 C1_3 1_555 1_555
C18_3 C12_3 1_555 1_555
C19_3 O13_3 1_555 1_555
C20_3 C15_3 1_555 1_555
C23_3 O22_3 1_555 1_555
C24_3 O19_3 1_555 1_555
C25_3 C6_3 1_555 1_555
H13_3 C25_3 1_555 1_555
C26_3 O20_3 1_555 1_555
C27_3 C1_3 1_555 1_555
H14_3 C27_3 1_555 1_555
C28_3 C10_3 1_555 1_555
H15_3 C28_3 1_555 1_555
C29_3 C9_3 1_555 1_555
H16_3 C29_3 1_555 1_555
C30_3 C4_3 1_555 1_555
C31_3 C8_3 1_555 1_555
H17_3 C31_3 1_555 1_555
C35_3 C29_3 1_555 1_555
C36_3 C20_3 1_555 1_555
H22_3 C36_3 1_555 1_555
C37_3 C18_3 1_555 1_555
H23_3 C37_3 1_555 1_555
C38_3 C31_3 1_555 1_555
C39_3 C25_3 1_555 1_555
C40_3 O10_3 1_555 1_555
Co16_2 O12_2 1_555 1_555
O29_2 Co11 1_555 1_555
C6_3 C19_3 1_555 1_555
C8_3 C40_3 1_555 1_555
C10_3 C23_3 1_555 1_555
C14_3 C24_3 1_555 1_555
C14_3 C28_3 1_555 1_555
C16_3 C30_3 1_555 1_555
C20_3 C26_3 1_555 1_555
C27_3 C39_3 1_555 1_555
C35_3 C36_3 1_555 1_555
C37_3 C38_3 1_555 1_555
Co16_2 O29_2 1_555 1_555
Co13 O11_3 1_555 1_555
O11_3 C2_3 1_555 1_555
O21_3 Co13 1_555 1_555
H1_3 O21_3 1_555 1_555
H2_3 O21_3 1_555 1_555
O23_3 Co13 1_555 1_555
H3_3 O23_3 1_555 1_555
H4_3 O23_3 1_555 1_555
O24_3 Co16_2 1_555 1_555
H5_3 O24_3 1_555 1_555
H6_3 O24_3 1_555 1_555
O25_3 Co16_2 1_555 1_555
O26_3 Co16_2 1_555 1_555
H20_3 O26_3 1_555 1_555
H21_3 O26_3 1_555 1_555
O31_2 C40_4 1_555 1_555
O21_4 Co14 1_555 1_555
H1_4 O21_4 1_555 1_555
H2_4 O21_4 1_555 1_555
O23_4 Co14 1_555 1_555
H3_4 O23_4 1_555 1_555
H4_4 O23_4 1_555 1_555
C8_4 C12_4 1_555 1_555
C31_4 C8_4 1_555 1_555
H17_4 C31_4 1_555 1_555
C38_4 C31_4 1_555 1_555
Co12 O31_2 1_555 1_555
C8_4 C40_4 1_555 1_555
C37_4 C38_4 1_555 1_555
Co5_4 O2_2 1_555 1_555
Co16 O2_2 1_555 1_555
Br3_4 C35_4 1_555 1_555
O34 C2_4 1_555 1_555
O35 C17_4 1_555 1_555
O10_4 Co5_4 1_555 1_555
O11_4 C2_4 1_555 1_555
O39 C17_4 1_555 1_555
O40 C19_4 1_555 1_555
O19_4 Co5_4 1_555 1_555
O20_4 Co5_4 1_555 1_555
O24_4 Co16 1_555 1_555
H5_4 O24_4 1_555 1_555
H6_4 O24_4 1_555 1_555
C1_4 C5_4 1_555 1_555
C2_4 C9_4 1_555 1_555
C5_4 H8_4 1_555 1_555
O25_4 Co16 1_555 1_555
C9_4 C15_4 1_555 1_555
C15_4 H10_4 1_555 1_555
C17_4 C1_4 1_555 1_555
C20_4 C15_4 1_555 1_555
C23_4 O22_4 1_555 1_555
C24_4 O19_4 1_555 1_555
C26_4 O20_4 1_555 1_555
H15_4 C28_4 1_555 1_555
C29_4 C9_4 1_555 1_555
H16_4 C29_4 1_555 1_555
C35_4 C29_4 1_555 1_555
O26_4 Co16 1_555 1_555
H20_4 O26_4 1_555 1_555
H21_4 O26_4 1_555 1_555
C36_4 C20_4 1_555 1_555
H22_4 C36_4 1_555 1_555
O36_2 Co16 1_555 1_555
O25_4 C26_4 1_555 1_555
C20_4 C26_4 1_555 1_555
C35_4 C36_4 1_555 1_555
Br1_4 C30_4 1_555 1_555
C4_4 H7_4 1_555 1_555
C10_4 C16_4 1_555 1_555
C14_4 C4_4 1_555 1_555
C16_4 H11_4 1_555 1_555
C30_4 C4_4 1_555 1_555
C16_4 C30_4 1_555 1_555
Co12 O9_4 1_555 1_555
O9_4 C13_4 1_555 1_555
C13_4 C18_4 1_555 1_555
Co9 O4_4 1_555 1_555
Br4_4 C39_4 1_555 1_555
O28_2 C3_4 1_555 1_555
O4_4 C21_4 1_555 1_555
O6_4 Co4_4 1_555 1_555
O13_4 Co4_4 1_555 1_555
O41 C21_4 1_555 1_555
C3_4 O6_4 1_555 1_555
C7_4 C21_4 1_555 1_555
C11_4 C3_4 1_555 1_555
C22_4 C7_4 1_555 1_555
H12_4 C22_4 1_555 1_555
C25_4 C6_4 1_555 1_555
H13_4 C25_4 1_555 1_555
H14_4 C27_4 1_555 1_555
C32_4 C11_4 1_555 1_555
H18_4 C32_4 1_555 1_555
C33_4 C7_4 1_555 1_555
H19_4 C33_4 1_555 1_555
C34_4 C32_4 1_555 1_555
C39_4 C25_4 1_555 1_555
C11_4 C22_4 1_555 1_555
C27_4 C39_4 1_555 1_555
C33_4 C34_4 1_555 1_555

#END
