
###############################################################################
#
# This file contains modified crystal structure data generated from the
# MOF subset of the Cambridge Structural Database (CSD) v543 
# hosted by the Cambridge Crystallographic Data Centre (CCDC).
#
# This work is licensed under the Creative Commons
# Attribution-NonCommercial-ShareAlike 4.0 International License.
# To view a copy of this license, visit
# http://creativecommons.org/licenses/by-nc-sa/4.0/
# or send a letter to
# Creative Commons, PO Box 1866, Mountain View, CA 94042, USA.
#
# CIF created using the CSD Python API on 29 September 2022
# The structure has been converted into the P1 space group
# The structure has a 3D framework
# The original CSD entry MUQSAU is in the orthorhombic crystal system
# The framework has been calculated to contain at least 10.0% void space
# The void calculation uses a probe of radius 1.32A, grid spacing 0.4
# H atom positions have been added when not included in the experimental data
#
###############################################################################

data_MUQSAU
_chemical_formula_moiety         '(C224 H160 N16 O80 Zn16)n'
_symmetry_cell_setting           triclinic
_symmetry_space_group_name_H-M   'P 1'
_symmetry_Int_Tables_number      1
_space_group_name_Hall           'P 1'
loop_
_symmetry_equiv_pos_site_id
_symmetry_equiv_pos_as_xyz
1 x,y,z
_cell_length_a                   29.647(6)
_cell_length_b                   24.669(5)
_cell_length_c                   9.7421(19)
_cell_angle_alpha                90
_cell_angle_beta                 90
_cell_angle_gamma                90
_cell_volume                     7125
loop_
_atom_site_label
_atom_site_type_symbol
_atom_site_fract_x
_atom_site_fract_y
_atom_site_fract_z
O3 O 0.66737(9) 0.25530(12) 0.2807(3)
O4 O 0.69947(8) 0.20015(12) 0.1343(3)
O7 O 0.79878(10) 0.21635(18) 0.0556(4)
O10 O 0.55102(9) 0.23509(12) 0.0783(3)
C9 C 0.67547(11) 0.24082(15) 0.1576(4)
C10 C 0.65542(11) 0.27478(15) 0.0446(4)
C11 C 0.65581(12) 0.33162(16) 0.0640(4)
H4 H 0.6679 0.3466 0.1435
C20 C 0.50862(16) 0.39239(19) 0.0959(5)
H9 H 0.5146 0.4091 0.1795
C21 C 0.48664(16) 0.34292(18) 0.0921(5)
H10 H 0.4786 0.3265 0.1745
H13 H 0.5987 0.5534 0.0767
H14 H 0.6476 0.6260 0.0673
H16 H 0.5542 0.4821 0.0666
Zn4 Zn 0.703469(13) 0.189141(18) 0.36100(5)
O13 O 0.43714(9) 0.20930(12) 0.1514(3)
H19 H 0.774712 0.198512 0.110231
H20 H 0.828665 0.207763 0.0961625
Zn1 Zn 0.458118(12) 0.239262(16) 0.97830(5)
Zn2 Zn 0.796531(13) 0.189141(18) 0.86100(5)
O1 O 0.72317(8) 0.22102(11) 0.8357(3)
O2 O 0.74316(8) 0.13711(11) 0.8755(4)
O5 O 0.56286(9) 0.29070(12) 0.6514(3)
O6 O 0.61675(9) 0.22966(12) 0.6275(3)
O8 O 0.41948(9) 0.22240(12) 0.8152(3)
N1 N 0.65256(9) 0.63056(13) 0.8652(4)
N2 N 0.47645(10) 0.31768(12) 0.9736(4)
O9 O 0.50976(8) 0.19522(11) 0.9141(3)
C1 C 0.54704(10) 0.20375(14) 0.9787(5)
C2 C 0.58608(11) 0.17020(15) 0.9296(4)
C3 C 0.57710(12) 0.11442(16) 0.9081(4)
H1 H 0.5478 0.1013 0.9165
C4 C 0.61180(12) 0.07968(15) 0.8747(5)
H2 H 0.6061 0.0430 0.8614
C5 C 0.65578(12) 0.09977(15) 0.8608(5)
H3 H 0.6792 0.0761 0.8397
C6 C 0.66481(11) 0.15516(14) 0.8783(4)
C7 C 0.71332(11) 0.17271(15) 0.8629(5)
C8 C 0.62978(11) 0.19152(14) 0.9113(4)
C12 C 0.63795(12) 0.36455(16) 0.9630(5)
H5 H 0.6388 0.4020 0.9740
C13 C 0.61898(11) 0.34294(16) 0.8467(5)
H6 H 0.6066 0.3658 0.7807
C14 C 0.61823(11) 0.28747(16) 0.8271(4)
C15 C 0.59874(12) 0.26636(15) 0.6934(4)
C16 C 0.63644(12) 0.25184(15) 0.9257(4)
C17 C 0.48771(12) 0.34237(17) 0.8555(5)
H7 H 0.4805 0.3255 0.7729
C18 C 0.50946(13) 0.39163(17) 0.8522(5)
H8 H 0.5159 0.4079 0.7683
C19 C 0.52176(12) 0.41709(16) 0.9733(5)
C22 C 0.63740(17) 0.6074(2) 0.7536(5)
H11 H 0.6461 0.6222 0.6698
C23 C 0.60941(19) 0.5626(2) 0.7511(6)
H12 H 0.6005 0.5474 0.6682
C24 C 0.59489(12) 0.54099(16) 0.8741(5)
C25 C 0.60874(15) 0.56593(17) 0.9921(6)
C26 C 0.63789(16) 0.61010(17) 0.9860(6)
C27 C 0.56582(13) 0.49247(18) 0.8714(5)
H15 H 0.5588 0.4782 0.7856
C28 C 0.54877(13) 0.46720(15) 0.9805(6)
Zn3 Zn 0.541882(12) 0.260738(16) 0.47830(5)
Zn5 Zn 0.703469(13) 0.689141(18) 0.86100(5)
O11 O 0.83263(9) 0.25530(12) 0.7807(3)
O12 O 0.80053(8) 0.20015(12) 0.6343(3)
N3 N 0.84744(9) 0.13056(13) 0.8652(4)
H17 H 0.436716 0.229655 0.729757
H18 H 0.410481 0.183641 0.817817
O3_2 O 0.33263(9) 0.74470(12) 0.2807(3)
O4_2 O 0.30053(8) 0.79985(12) 0.1343(3)
O7_2 O 0.20122(10) 0.78365(18) 0.0556(4)
O10_2 O 0.44898(9) 0.76491(12) 0.0783(3)
C9_2 C 0.32453(11) 0.75918(15) 0.1576(4)
C10_2 C 0.34458(11) 0.72522(15) 0.0446(4)
C11_2 C 0.34419(12) 0.66838(16) 0.0640(4)
H4_2 H 0.3321 0.6534 0.1435
C20_2 C 0.49138(16) 0.60761(19) 0.0959(5)
H9_2 H 0.4854 0.5909 0.1795
C21_2 C 0.51336(16) 0.65708(18) 0.0921(5)
H10_2 H 0.5214 0.6735 0.1745
H13_2 H 0.4013 0.4466 0.0767
H14_2 H 0.3524 0.3740 0.0673
H16_2 H 0.4458 0.5179 0.0666
Zn4_2 Zn 0.296531(13) 0.810859(18) 0.36100(5)
O13_2 O 0.56286(9) 0.79070(12) 0.1514(3)
H19_2 H 0.225288 0.801488 0.110231
H20_2 H 0.171335 0.792237 0.0961625
Zn1_2 Zn 0.541882(12) 0.760738(16) 0.97830(5)
Zn2_2 Zn 0.203469(13) 0.810859(18) 0.86100(5)
O1_2 O 0.27683(8) 0.77898(11) 0.8357(3)
O2_2 O 0.25684(8) 0.86289(11) 0.8755(4)
O5_2 O 0.43714(9) 0.70930(12) 0.6514(3)
O6_2 O 0.38325(9) 0.77034(12) 0.6275(3)
O8_2 O 0.58052(9) 0.77760(12) 0.8152(3)
N1_2 N 0.34744(9) 0.36944(13) 0.8652(4)
N2_2 N 0.52355(10) 0.68232(12) 0.9736(4)
O9_2 O 0.49024(8) 0.80478(11) 0.9141(3)
C1_2 C 0.45296(10) 0.79625(14) 0.9787(5)
C2_2 C 0.41392(11) 0.82980(15) 0.9296(4)
C3_2 C 0.42290(12) 0.88558(16) 0.9081(4)
H1_2 H 0.4522 0.8987 0.9165
C4_2 C 0.38820(12) 0.92032(15) 0.8747(5)
H2_2 H 0.3939 0.9570 0.8614
C5_2 C 0.34422(12) 0.90023(15) 0.8608(5)
H3_2 H 0.3208 0.9239 0.8397
C6_2 C 0.33519(11) 0.84484(14) 0.8783(4)
C7_2 C 0.28668(11) 0.82729(15) 0.8629(5)
C8_2 C 0.37022(11) 0.80848(14) 0.9113(4)
C12_2 C 0.36205(12) 0.63545(16) 0.9630(5)
H5_2 H 0.3612 0.5980 0.9740
C13_2 C 0.38102(11) 0.65706(16) 0.8467(5)
H6_2 H 0.3934 0.6342 0.7807
C14_2 C 0.38177(11) 0.71253(16) 0.8271(4)
C15_2 C 0.40126(12) 0.73364(15) 0.6934(4)
C16_2 C 0.36356(12) 0.74816(15) 0.9257(4)
C17_2 C 0.51229(12) 0.65763(17) 0.8555(5)
H7_2 H 0.5195 0.6745 0.7729
C18_2 C 0.49054(13) 0.60837(17) 0.8522(5)
H8_2 H 0.4841 0.5921 0.7683
C19_2 C 0.47824(12) 0.58291(16) 0.9733(5)
C22_2 C 0.36260(17) 0.3926(2) 0.7536(5)
H11_2 H 0.3539 0.3778 0.6698
C23_2 C 0.39059(19) 0.4374(2) 0.7511(6)
H12_2 H 0.3995 0.4526 0.6682
C24_2 C 0.40511(12) 0.45901(16) 0.8741(5)
C25_2 C 0.39126(15) 0.43407(17) 0.9921(6)
C26_2 C 0.36211(16) 0.38990(17) 0.9860(6)
C27_2 C 0.43418(13) 0.50753(18) 0.8714(5)
H15_2 H 0.4412 0.5218 0.7856
C28_2 C 0.45123(13) 0.53280(15) 0.9805(6)
Zn3_2 Zn 0.458118(12) 0.739262(16) 0.47830(5)
Zn5_2 Zn 0.296531(13) 0.310859(18) 0.86100(5)
O11_2 O 0.16737(9) 0.74470(12) 0.7807(3)
O12_2 O 0.19947(8) 0.79985(12) 0.6343(3)
N3_2 N 0.15256(9) 0.86944(13) 0.8652(4)
H17_2 H 0.563284 0.770345 0.729757
H18_2 H 0.589519 0.816359 0.817817
Zn1_3 Zn 0.041882(12) 0.239262(16) 0.47830(5)
O8_3 O 0.08052(9) 0.22240(12) 0.3152(3)
N2_3 N 0.02355(10) 0.31768(12) 0.4736(4)
C17_3 C 0.01229(12) 0.34237(17) 0.3555(5)
H7_3 H 0.0195 0.3255 0.2729
C21_3 C 0.01336(16) 0.34292(18) 0.5921(5)
H10_3 H 0.0214 0.3265 0.6745
O13_3 O 0.06286(9) 0.20930(12) 0.6514(3)
H17_3 H 0.0632836 0.229655 0.229757
H18_3 H 0.0895187 0.183641 0.317817
O1_3 O 0.77683(8) 0.22102(11) 0.3357(3)
O2_3 O 0.75684(8) 0.13711(11) 0.3755(4)
O5_3 O 0.93714(9) 0.29070(12) 0.1514(3)
O6_3 O 0.88325(9) 0.22966(12) 0.1275(3)
O7_3 O 0.70122(10) 0.21635(18) 0.5556(4)
N1_3 N 0.84744(9) 0.63056(13) 0.3652(4)
O9_3 O 0.99024(8) 0.19522(11) 0.4141(3)
O10_3 O 0.94898(9) 0.23509(12) 0.5783(3)
C1_3 C 0.95296(10) 0.20375(14) 0.4787(5)
C2_3 C 0.91392(11) 0.17020(15) 0.4296(4)
C3_3 C 0.92290(12) 0.11442(16) 0.4081(4)
H1_3 H 0.9522 0.1013 0.4165
C4_3 C 0.88820(12) 0.07968(15) 0.3747(5)
H2_3 H 0.8939 0.0430 0.3614
C5_3 C 0.84422(12) 0.09977(15) 0.3608(5)
H3_3 H 0.8208 0.0761 0.3397
C6_3 C 0.83519(11) 0.15516(14) 0.3783(4)
C7_3 C 0.78668(11) 0.17271(15) 0.3629(5)
C8_3 C 0.87022(11) 0.19152(14) 0.4113(4)
C9_3 C 0.82453(11) 0.24082(15) 0.6576(4)
C10_3 C 0.84458(11) 0.27478(15) 0.5446(4)
C11_3 C 0.84419(12) 0.33162(16) 0.5640(4)
H4_3 H 0.8321 0.3466 0.6435
C12_3 C 0.86205(12) 0.36455(16) 0.4630(5)
H5_3 H 0.8612 0.4020 0.4740
C13_3 C 0.88102(11) 0.34294(16) 0.3467(5)
H6_3 H 0.8934 0.3658 0.2807
C14_3 C 0.88177(11) 0.28747(16) 0.3271(4)
C15_3 C 0.90126(12) 0.26636(15) 0.1934(4)
C16_3 C 0.86356(12) 0.25184(15) 0.4257(4)
C18_3 C 0.99054(13) 0.39163(17) 0.3522(5)
H8_3 H 0.9841 0.4079 0.2683
C19_3 C 0.97824(12) 0.41709(16) 0.4733(5)
C20_3 C 0.99138(16) 0.39239(19) 0.5959(5)
H9_3 H 0.9854 0.4091 0.6795
C22_3 C 0.86260(17) 0.6074(2) 0.2536(5)
H11_3 H 0.8539 0.6222 0.1698
C23_3 C 0.89059(19) 0.5626(2) 0.2511(6)
H12_3 H 0.8995 0.5474 0.1682
C24_3 C 0.90511(12) 0.54099(16) 0.3741(5)
C25_3 C 0.89126(15) 0.56593(17) 0.4921(6)
H13_3 H 0.9013 0.5534 0.5767
C26_3 C 0.86211(16) 0.61010(17) 0.4860(6)
H14_3 H 0.8524 0.6260 0.5673
C27_3 C 0.93418(13) 0.49247(18) 0.3714(5)
H15_3 H 0.9412 0.4782 0.2856
C28_3 C 0.95123(13) 0.46720(15) 0.4805(6)
H16_3 H 0.9458 0.4821 0.5666
Zn5_3 Zn 0.796531(13) 0.689141(18) 0.36100(5)
N3_3 N 0.65256(9) 0.13056(13) 0.3652(4)
H19_3 H 0.725288 0.198512 0.610231
H20_3 H 0.671335 0.207763 0.596163
O1_4 O 0.22317(8) 0.77898(11) 0.3357(3)
O2_4 O 0.24316(8) 0.86289(11) 0.3755(4)
O5_4 O 0.06286(9) 0.70930(12) 0.1514(3)
O6_4 O 0.11675(9) 0.77034(12) 0.1275(3)
O7_4 O 0.29878(10) 0.78365(18) 0.5556(4)
N1_4 N 0.15256(9) 0.36944(13) 0.3652(4)
O9_4 O 0.00976(8) 0.80478(11) 0.4141(3)
O10_4 O 0.05102(9) 0.76491(12) 0.5783(3)
C1_4 C 0.04704(10) 0.79625(14) 0.4787(5)
C2_4 C 0.08608(11) 0.82980(15) 0.4296(4)
C3_4 C 0.07710(12) 0.88558(16) 0.4081(4)
H1_4 H 0.0478 0.8987 0.4165
C4_4 C 0.11180(12) 0.92032(15) 0.3747(5)
H2_4 H 0.1061 0.9570 0.3614
C5_4 C 0.15578(12) 0.90023(15) 0.3608(5)
H3_4 H 0.1792 0.9239 0.3397
C6_4 C 0.16481(11) 0.84484(14) 0.3783(4)
C7_4 C 0.21332(11) 0.82729(15) 0.3629(5)
C8_4 C 0.12978(11) 0.80848(14) 0.4113(4)
C9_4 C 0.17547(11) 0.75918(15) 0.6576(4)
C10_4 C 0.15542(11) 0.72522(15) 0.5446(4)
C11_4 C 0.15581(12) 0.66838(16) 0.5640(4)
H4_4 H 0.1679 0.6534 0.6435
C12_4 C 0.13795(12) 0.63545(16) 0.4630(5)
H5_4 H 0.1388 0.5980 0.4740
C13_4 C 0.11898(11) 0.65706(16) 0.3467(5)
H6_4 H 0.1066 0.6342 0.2807
C14_4 C 0.11823(11) 0.71253(16) 0.3271(4)
C15_4 C 0.09874(12) 0.73364(15) 0.1934(4)
C16_4 C 0.13644(12) 0.74816(15) 0.4257(4)
C18_4 C 0.00946(13) 0.60837(17) 0.3522(5)
H8_4 H 0.0159 0.5921 0.2683
C19_4 C 0.02176(12) 0.58291(16) 0.4733(5)
C20_4 C 0.00862(16) 0.60761(19) 0.5959(5)
H9_4 H 0.0146 0.5909 0.6795
C22_4 C 0.13740(17) 0.3926(2) 0.2536(5)
H11_4 H 0.1461 0.3778 0.1698
C23_4 C 0.10941(19) 0.4374(2) 0.2511(6)
H12_4 H 0.1005 0.4526 0.1682
C24_4 C 0.09489(12) 0.45901(16) 0.3741(5)
C25_4 C 0.10874(15) 0.43407(17) 0.4921(6)
H13_4 H 0.0987 0.4466 0.5767
C26_4 C 0.13789(16) 0.38990(17) 0.4860(6)
H14_4 H 0.1476 0.3740 0.5673
C27_4 C 0.06582(13) 0.50753(18) 0.3714(5)
H15_4 H 0.0588 0.5218 0.2856
C28_4 C 0.04877(13) 0.53280(15) 0.4805(6)
H16_4 H 0.0542 0.5179 0.5666
Zn5_4 Zn 0.203469(13) 0.310859(18) 0.36100(5)
N3_4 N 0.34744(9) 0.86944(13) 0.3652(4)
H19_4 H 0.274712 0.801488 0.610231
H20_4 H 0.328665 0.792237 0.596163
Zn1_4 Zn 0.958118(12) 0.760738(16) 0.47830(5)
O8_4 O 0.91948(9) 0.77760(12) 0.3152(3)
N2_4 N 0.97645(10) 0.68232(12) 0.4736(4)
C17_4 C 0.98771(12) 0.65763(17) 0.3555(5)
H7_4 H 0.9805 0.6745 0.2729
C21_4 C 0.98664(16) 0.65708(18) 0.5921(5)
H10_4 H 0.9786 0.6735 0.6745
O13_4 O 0.93714(9) 0.79070(12) 0.6514(3)
H17_4 H 0.936716 0.770345 0.229757
H18_4 H 0.910481 0.816359 0.317817
C22_5 C 0.63740(17) 0.1074(2) 0.2536(5)
H11_5 H 0.6461 0.1222 0.1698
C23_5 C 0.60941(19) 0.0626(2) 0.2511(6)
H12_5 H 0.6005 0.0474 0.1682
C24_5 C 0.59489(12) 0.04099(16) 0.3741(5)
C25_5 C 0.60874(15) 0.06593(17) 0.4921(6)
H13_5 H 0.5987 0.0534 0.5767
C26_5 C 0.63789(16) 0.11010(17) 0.4860(6)
H14_5 H 0.6476 0.1260 0.5673
O1_5 O 0.72317(8) 0.72102(11) 0.3357(3)
O2_5 O 0.74316(8) 0.63711(11) 0.3755(4)
O3_3 O 0.66737(9) 0.75530(12) 0.7807(3)
O4_3 O 0.69947(8) 0.70015(12) 0.6343(3)
O6_5 O 0.61675(9) 0.72966(12) 0.1275(3)
O7_5 O 0.79878(10) 0.71635(18) 0.5556(4)
O8_5 O 0.41948(9) 0.72240(12) 0.3152(3)
N2_5 N 0.47645(10) 0.81768(12) 0.4736(4)
O9_5 O 0.50976(8) 0.69522(11) 0.4141(3)
O10_5 O 0.55102(9) 0.73509(12) 0.5783(3)
C1_5 C 0.54704(10) 0.70375(14) 0.4787(5)
C2_5 C 0.58608(11) 0.67020(15) 0.4296(4)
C3_5 C 0.57710(12) 0.61442(16) 0.4081(4)
H1_5 H 0.5478 0.6013 0.4165
C4_5 C 0.61180(12) 0.57968(15) 0.3747(5)
H2_5 H 0.6061 0.5430 0.3614
C5_5 C 0.65578(12) 0.59977(15) 0.3608(5)
H3_5 H 0.6792 0.5761 0.3397
C6_5 C 0.66481(11) 0.65516(14) 0.3783(4)
C7_5 C 0.71332(11) 0.67271(15) 0.3629(5)
C8_5 C 0.62978(11) 0.69152(14) 0.4113(4)
C9_5 C 0.67547(11) 0.74082(15) 0.6576(4)
C10_5 C 0.65542(11) 0.77478(15) 0.5446(4)
C11_5 C 0.65581(12) 0.83162(16) 0.5640(4)
H4_5 H 0.6679 0.8466 0.6435
C12_5 C 0.63795(12) 0.86455(16) 0.4630(5)
H5_5 H 0.6388 0.9020 0.4740
C13_5 C 0.61898(11) 0.84294(16) 0.3467(5)
H6_5 H 0.6066 0.8658 0.2807
C14_5 C 0.61823(11) 0.78747(16) 0.3271(4)
C15_5 C 0.59874(12) 0.76636(15) 0.1934(4)
C16_5 C 0.63644(12) 0.75184(15) 0.4257(4)
C17_5 C 0.48771(12) 0.84237(17) 0.3555(5)
H7_5 H 0.4805 0.8255 0.2729
C18_5 C 0.50946(13) 0.89163(17) 0.3522(5)
H8_5 H 0.5159 0.9079 0.2683
C19_5 C 0.52176(12) 0.91709(16) 0.4733(5)
C20_5 C 0.50862(16) 0.89239(19) 0.5959(5)
H9_5 H 0.5146 0.9091 0.6795
C21_5 C 0.48664(16) 0.84292(18) 0.5921(5)
H10_5 H 0.4786 0.8265 0.6745
C27_5 C 0.56582(13) 0.99247(18) 0.3714(5)
H15_5 H 0.5588 0.9782 0.2856
C28_5 C 0.54877(13) 0.96720(15) 0.4805(6)
H16_5 H 0.5542 0.9821 0.5666
O11_3 O 0.83263(9) 0.75530(12) 0.2807(3)
O12_3 O 0.80053(8) 0.70015(12) 0.1343(3)
H17_5 H 0.436716 0.729655 0.229757
H18_5 H 0.410481 0.683641 0.317817
H19_5 H 0.774712 0.698512 0.610231
H20_5 H 0.828665 0.707763 0.596163
O1_6 O 0.27683(8) 0.27898(11) 0.3357(3)
O2_6 O 0.25684(8) 0.36289(11) 0.3755(4)
O3_4 O 0.33263(9) 0.24470(12) 0.7807(3)
O4_4 O 0.30053(8) 0.29985(12) 0.6343(3)
O6_6 O 0.38325(9) 0.27034(12) 0.1275(3)
O7_6 O 0.20122(10) 0.28365(18) 0.5556(4)
O8_6 O 0.58052(9) 0.27760(12) 0.3152(3)
N2_6 N 0.52355(10) 0.18232(12) 0.4736(4)
O9_6 O 0.49024(8) 0.30478(11) 0.4141(3)
O10_6 O 0.44898(9) 0.26491(12) 0.5783(3)
C1_6 C 0.45296(10) 0.29625(14) 0.4787(5)
C2_6 C 0.41392(11) 0.32980(15) 0.4296(4)
C3_6 C 0.42290(12) 0.38558(16) 0.4081(4)
H1_6 H 0.4522 0.3987 0.4165
C4_6 C 0.38820(12) 0.42032(15) 0.3747(5)
H2_6 H 0.3939 0.4570 0.3614
C5_6 C 0.34422(12) 0.40023(15) 0.3608(5)
H3_6 H 0.3208 0.4239 0.3397
C6_6 C 0.33519(11) 0.34484(14) 0.3783(4)
C7_6 C 0.28668(11) 0.32729(15) 0.3629(5)
C8_6 C 0.37022(11) 0.30848(14) 0.4113(4)
C9_6 C 0.32453(11) 0.25918(15) 0.6576(4)
C10_6 C 0.34458(11) 0.22522(15) 0.5446(4)
C11_6 C 0.34419(12) 0.16838(16) 0.5640(4)
H4_6 H 0.3321 0.1534 0.6435
C12_6 C 0.36205(12) 0.13545(16) 0.4630(5)
H5_6 H 0.3612 0.0980 0.4740
C13_6 C 0.38102(11) 0.15706(16) 0.3467(5)
H6_6 H 0.3934 0.1342 0.2807
C14_6 C 0.38177(11) 0.21253(16) 0.3271(4)
C15_6 C 0.40126(12) 0.23364(15) 0.1934(4)
C16_6 C 0.36356(12) 0.24816(15) 0.4257(4)
C17_6 C 0.51229(12) 0.15763(17) 0.3555(5)
H7_6 H 0.5195 0.1745 0.2729
C18_6 C 0.49054(13) 0.10837(17) 0.3522(5)
H8_6 H 0.4841 0.0921 0.2683
C19_6 C 0.47824(12) 0.08291(16) 0.4733(5)
C20_6 C 0.49138(16) 0.10761(19) 0.5959(5)
H9_6 H 0.4854 0.0909 0.6795
C21_6 C 0.51336(16) 0.15708(18) 0.5921(5)
H10_6 H 0.5214 0.1735 0.6745
C27_6 C 0.43418(13) 0.00753(18) 0.3714(5)
H15_6 H 0.4412 0.0218 0.2856
C28_6 C 0.45123(13) 0.03280(15) 0.4805(6)
H16_6 H 0.4458 0.0179 0.5666
O11_4 O 0.16737(9) 0.24470(12) 0.2807(3)
O12_4 O 0.19947(8) 0.29985(12) 0.1343(3)
H17_6 H 0.563284 0.270345 0.229757
H18_6 H 0.589519 0.316359 0.317817
H19_6 H 0.225288 0.301488 0.610231
H20_6 H 0.171335 0.292237 0.596163
C22_6 C 0.36260(17) 0.8926(2) 0.2536(5)
H11_6 H 0.3539 0.8778 0.1698
C23_6 C 0.39059(19) 0.9374(2) 0.2511(6)
H12_6 H 0.3995 0.9526 0.1682
C24_6 C 0.40511(12) 0.95901(16) 0.3741(5)
C25_6 C 0.39126(15) 0.93407(17) 0.4921(6)
H13_6 H 0.4013 0.9466 0.5767
C26_6 C 0.36211(16) 0.88990(17) 0.4860(6)
H14_6 H 0.3524 0.8740 0.5673
C21_7 C 0.01336(16) 0.84292(18) 0.0921(5)
H10_7 H 0.0214 0.8265 0.1745
C22_7 C 0.86260(17) 0.1074(2) 0.7536(5)
H11_7 H 0.8539 0.1222 0.6698
C23_7 C 0.89059(19) 0.0626(2) 0.7511(6)
H12_7 H 0.8995 0.0474 0.6682
C24_7 C 0.90511(12) 0.04099(16) 0.8741(5)
C25_7 C 0.89126(15) 0.06593(17) 0.9921(6)
C26_7 C 0.86211(16) 0.11010(17) 0.9860(6)
O7_7 O 0.70122(10) 0.71635(18) 0.0556(4)
O10_7 O 0.94898(9) 0.73509(12) 0.0783(3)
C9_7 C 0.82453(11) 0.74082(15) 0.1576(4)
C10_7 C 0.84458(11) 0.77478(15) 0.0446(4)
C11_7 C 0.84419(12) 0.83162(16) 0.0640(4)
H4_7 H 0.8321 0.8466 0.1435
C20_7 C 0.99138(16) 0.89239(19) 0.0959(5)
H9_7 H 0.9854 0.9091 0.1795
H16_7 H 0.9458 0.9821 0.0666
H19_7 H 0.725288 0.698512 0.110231
H20_7 H 0.671335 0.707763 0.0961625
O1_7 O 0.77683(8) 0.72102(11) 0.8357(3)
O2_7 O 0.75684(8) 0.63711(11) 0.8755(4)
O6_7 O 0.88325(9) 0.72966(12) 0.6275(3)
O9_7 O 0.99024(8) 0.69522(11) 0.9141(3)
C1_7 C 0.95296(10) 0.70375(14) 0.9787(5)
C2_7 C 0.91392(11) 0.67020(15) 0.9296(4)
C3_7 C 0.92290(12) 0.61442(16) 0.9081(4)
H1_7 H 0.9522 0.6013 0.9165
C4_7 C 0.88820(12) 0.57968(15) 0.8747(5)
H2_7 H 0.8939 0.5430 0.8614
C5_7 C 0.84422(12) 0.59977(15) 0.8608(5)
H3_7 H 0.8208 0.5761 0.8397
C6_7 C 0.83519(11) 0.65516(14) 0.8783(4)
C7_7 C 0.78668(11) 0.67271(15) 0.8629(5)
C8_7 C 0.87022(11) 0.69152(14) 0.9113(4)
C12_7 C 0.86205(12) 0.86455(16) 0.9630(5)
H5_7 H 0.8612 0.9020 0.9740
C13_7 C 0.88102(11) 0.84294(16) 0.8467(5)
H6_7 H 0.8934 0.8658 0.7807
C14_7 C 0.88177(11) 0.78747(16) 0.8271(4)
C15_7 C 0.90126(12) 0.76636(15) 0.6934(4)
C16_7 C 0.86356(12) 0.75184(15) 0.9257(4)
C18_7 C 0.99054(13) 0.89163(17) 0.8522(5)
H8_7 H 0.9841 0.9079 0.7683
C19_7 C 0.97824(12) 0.91709(16) 0.9733(5)
C27_7 C 0.93418(13) 0.99247(18) 0.8714(5)
H15_7 H 0.9412 0.9782 0.7856
C28_7 C 0.95123(13) 0.96720(15) 0.9805(6)
O7_8 O 0.29878(10) 0.28365(18) 0.0556(4)
O10_8 O 0.05102(9) 0.26491(12) 0.0783(3)
C9_8 C 0.17547(11) 0.25918(15) 0.1576(4)
C10_8 C 0.15542(11) 0.22522(15) 0.0446(4)
C11_8 C 0.15581(12) 0.16838(16) 0.0640(4)
H4_8 H 0.1679 0.1534 0.1435
C20_8 C 0.00862(16) 0.10761(19) 0.0959(5)
H9_8 H 0.0146 0.0909 0.1795
H16_8 H 0.0542 0.0179 0.0666
H19_8 H 0.274712 0.301488 0.110231
H20_8 H 0.328665 0.292237 0.0961625
O1_8 O 0.22317(8) 0.27898(11) 0.8357(3)
O2_8 O 0.24316(8) 0.36289(11) 0.8755(4)
O6_8 O 0.11675(9) 0.27034(12) 0.6275(3)
O9_8 O 0.00976(8) 0.30478(11) 0.9141(3)
C1_8 C 0.04704(10) 0.29625(14) 0.9787(5)
C2_8 C 0.08608(11) 0.32980(15) 0.9296(4)
C3_8 C 0.07710(12) 0.38558(16) 0.9081(4)
H1_8 H 0.0478 0.3987 0.9165
C4_8 C 0.11180(12) 0.42032(15) 0.8747(5)
H2_8 H 0.1061 0.4570 0.8614
C5_8 C 0.15578(12) 0.40023(15) 0.8608(5)
H3_8 H 0.1792 0.4239 0.8397
C6_8 C 0.16481(11) 0.34484(14) 0.8783(4)
C7_8 C 0.21332(11) 0.32729(15) 0.8629(5)
C8_8 C 0.12978(11) 0.30848(14) 0.9113(4)
C12_8 C 0.13795(12) 0.13545(16) 0.9630(5)
H5_8 H 0.1388 0.0980 0.9740
C13_8 C 0.11898(11) 0.15706(16) 0.8467(5)
H6_8 H 0.1066 0.1342 0.7807
C14_8 C 0.11823(11) 0.21253(16) 0.8271(4)
C15_8 C 0.09874(12) 0.23364(15) 0.6934(4)
C16_8 C 0.13644(12) 0.24816(15) 0.9257(4)
C18_8 C 0.00946(13) 0.10837(17) 0.8522(5)
H8_8 H 0.0159 0.0921 0.7683
C19_8 C 0.02176(12) 0.08291(16) 0.9733(5)
C27_8 C 0.06582(13) 0.00753(18) 0.8714(5)
H15_8 H 0.0588 0.0218 0.7856
C28_8 C 0.04877(13) 0.03280(15) 0.9805(6)
C22_8 C 0.13740(17) 0.8926(2) 0.7536(5)
H11_8 H 0.1461 0.8778 0.6698
C23_8 C 0.10941(19) 0.9374(2) 0.7511(6)
H12_8 H 0.1005 0.9526 0.6682
C24_8 C 0.09489(12) 0.95901(16) 0.8741(5)
C25_8 C 0.10874(15) 0.93407(17) 0.9921(6)
C26_8 C 0.13789(16) 0.88990(17) 0.9860(6)
C21_8 C 0.98664(16) 0.15708(18) 0.0921(5)
H10_8 H 0.9786 0.1735 0.1745
Zn3_3 Zn 0.958118(12) 0.260738(16) 0.97830(5)
O8_7 O 0.91948(9) 0.27760(12) 0.8152(3)
N2_7 N 0.97645(10) 0.18232(12) 0.9736(4)
C17_7 C 0.98771(12) 0.15763(17) 0.8555(5)
H7_7 H 0.9805 0.1745 0.7729
H17_7 H 0.936716 0.270345 0.729757
H18_7 H 0.910481 0.316359 0.817817
Zn3_4 Zn 0.041882(12) 0.739262(16) 0.97830(5)
O8_8 O 0.08052(9) 0.72240(12) 0.8152(3)
N2_8 N 0.02355(10) 0.81768(12) 0.9736(4)
C17_8 C 0.01229(12) 0.84237(17) 0.8555(5)
H7_8 H 0.0195 0.8255 0.7729
H17_8 H 0.0632836 0.729655 0.729757
H18_8 H 0.0895187 0.683641 0.817817
H13_7 H 0.9013 0.0534 0.0767
H14_7 H 0.8524 0.1260 0.0673
H13_8 H 0.0987 0.9466 0.0767
H14_8 H 0.1476 0.8740 0.0673
loop_
_geom_bond_atom_site_label_1
_geom_bond_atom_site_label_2
_geom_bond_site_symmetry_1
_geom_bond_site_symmetry_2
O3 C9 1_555 1_555
O4 C9 1_555 1_555
C9 C10 1_555 1_555
C10 C11 1_555 1_555
C11 H4 1_555 1_555
H9 C20 1_555 1_555
H10 C21 1_555 1_555
Zn4 O3 1_555 1_555
O4 Zn4 1_555 1_555
C20 C21 1_555 1_555
O7 H19 1_555 1_555
O7 H20 1_555 1_555
Zn1 O8 1_555 1_555
Zn2 O1 1_555 1_555
O1 C7 1_555 1_555
O2 Zn2 1_555 1_555
O5 C15 1_555 1_555
O6 C15 1_555 1_555
N1 C22 1_555 1_555
N2 Zn1 1_555 1_555
O9 Zn1 1_555 1_555
C1 O9 1_555 1_555
C2 C1 1_555 1_555
C3 C2 1_555 1_555
H1 C3 1_555 1_555
C4 C3 1_555 1_555
H2 C4 1_555 1_555
C5 C4 1_555 1_555
H3 C5 1_555 1_555
C6 C5 1_555 1_555
C7 O2 1_555 1_555
C8 C2 1_555 1_555
H5 C12 1_555 1_555
C13 C12 1_555 1_555
H6 C13 1_555 1_555
C14 C13 1_555 1_555
C15 C14 1_555 1_555
C16 C8 1_555 1_555
C17 N2 1_555 1_555
H7 C17 1_555 1_555
C18 C17 1_555 1_555
H8 C18 1_555 1_555
C19 C18 1_555 1_555
C22 H11 1_555 1_555
C23 C22 1_555 1_555
H12 C23 1_555 1_555
C24 C23 1_555 1_555
C25 C24 1_555 1_555
C26 N1 1_555 1_555
C27 C24 1_555 1_555
H15 C27 1_555 1_555
C28 C19 1_555 1_555
Zn3 O5 1_555 1_555
Zn5 N1 1_555 1_555
O11 Zn2 1_555 1_555
O12 Zn2 1_555 1_555
N3 Zn2 1_555 1_555
C6 C7 1_555 1_555
C6 C8 1_555 1_555
C14 C16 1_555 1_555
C25 C26 1_555 1_555
C27 C28 1_555 1_555
O8 H17 1_555 1_555
O8 H18 1_555 1_555
O3_2 C9_2 1_555 1_555
O4_2 C9_2 1_555 1_555
C9_2 C10_2 1_555 1_555
C10_2 C11_2 1_555 1_555
C11_2 H4_2 1_555 1_555
H9_2 C20_2 1_555 1_555
H10_2 C21_2 1_555 1_555
Zn4_2 O3_2 1_555 1_555
O4_2 Zn4_2 1_555 1_555
C20_2 C21_2 1_555 1_555
O7_2 H19_2 1_555 1_555
O7_2 H20_2 1_555 1_555
Zn1_2 O8_2 1_555 1_555
Zn2_2 O1_2 1_555 1_555
O1_2 C7_2 1_555 1_555
O2_2 Zn2_2 1_555 1_555
O5_2 C15_2 1_555 1_555
O6_2 C15_2 1_555 1_555
N1_2 C22_2 1_555 1_555
N2_2 Zn1_2 1_555 1_555
O9_2 Zn1_2 1_555 1_555
C1_2 O9_2 1_555 1_555
C2_2 C1_2 1_555 1_555
C3_2 C2_2 1_555 1_555
H1_2 C3_2 1_555 1_555
C4_2 C3_2 1_555 1_555
H2_2 C4_2 1_555 1_555
C5_2 C4_2 1_555 1_555
H3_2 C5_2 1_555 1_555
C6_2 C5_2 1_555 1_555
C7_2 O2_2 1_555 1_555
C8_2 C2_2 1_555 1_555
H5_2 C12_2 1_555 1_555
C13_2 C12_2 1_555 1_555
H6_2 C13_2 1_555 1_555
C14_2 C13_2 1_555 1_555
C15_2 C14_2 1_555 1_555
C16_2 C8_2 1_555 1_555
C17_2 N2_2 1_555 1_555
H7_2 C17_2 1_555 1_555
C18_2 C17_2 1_555 1_555
H8_2 C18_2 1_555 1_555
C19_2 C18_2 1_555 1_555
C22_2 H11_2 1_555 1_555
C23_2 C22_2 1_555 1_555
H12_2 C23_2 1_555 1_555
C24_2 C23_2 1_555 1_555
C25_2 C24_2 1_555 1_555
C26_2 N1_2 1_555 1_555
C27_2 C24_2 1_555 1_555
H15_2 C27_2 1_555 1_555
C28_2 C19_2 1_555 1_555
Zn3_2 O5_2 1_555 1_555
Zn5_2 N1_2 1_555 1_555
O11_2 Zn2_2 1_555 1_555
O12_2 Zn2_2 1_555 1_555
N3_2 Zn2_2 1_555 1_555
C6_2 C7_2 1_555 1_555
C6_2 C8_2 1_555 1_555
C14_2 C16_2 1_555 1_555
C25_2 C26_2 1_555 1_555
C27_2 C28_2 1_555 1_555
O8_2 H17_2 1_555 1_555
O8_2 H18_2 1_555 1_555
Zn1_3 O8_3 1_555 1_555
N2_3 Zn1_3 1_555 1_555
C17_3 N2_3 1_555 1_555
H7_3 C17_3 1_555 1_555
C21_3 N2_3 1_555 1_555
H10_3 C21_3 1_555 1_555
O13_3 Zn1_3 1_555 1_555
O8_3 H17_3 1_555 1_555
O8_3 H18_3 1_555 1_555
Zn4 O1_3 1_555 1_555
O1_3 C7_3 1_555 1_555
O2_3 Zn4 1_555 1_555
O11 C9_3 1_555 1_555
O12 C9_3 1_555 1_555
O5_3 C15_3 1_555 1_555
O6_3 C15_3 1_555 1_555
O7_3 Zn4 1_555 1_555
N1_3 C22_3 1_555 1_555
O10_3 C1_3 1_555 1_555
C1_3 O9_3 1_555 1_555
C2_3 C1_3 1_555 1_555
C3_3 C2_3 1_555 1_555
H1_3 C3_3 1_555 1_555
C4_3 C3_3 1_555 1_555
H2_3 C4_3 1_555 1_555
C5_3 C4_3 1_555 1_555
H3_3 C5_3 1_555 1_555
C6_3 C5_3 1_555 1_555
C7_3 O2_3 1_555 1_555
C8_3 C2_3 1_555 1_555
C9_3 C10_3 1_555 1_555
C10_3 C11_3 1_555 1_555
C11_3 H4_3 1_555 1_555
C12_3 C11_3 1_555 1_555
H5_3 C12_3 1_555 1_555
C13_3 C12_3 1_555 1_555
H6_3 C13_3 1_555 1_555
C14_3 C13_3 1_555 1_555
C15_3 C14_3 1_555 1_555
C16_3 C8_3 1_555 1_555
H8_3 C18_3 1_555 1_555
C19_3 C18_3 1_555 1_555
C20_3 C19_3 1_555 1_555
H9_3 C20_3 1_555 1_555
C22_3 H11_3 1_555 1_555
C23_3 C22_3 1_555 1_555
H12_3 C23_3 1_555 1_555
C24_3 C23_3 1_555 1_555
C25_3 C24_3 1_555 1_555
H13_3 C25_3 1_555 1_555
C26_3 N1_3 1_555 1_555
H14_3 C26_3 1_555 1_555
C27_3 C24_3 1_555 1_555
H15_3 C27_3 1_555 1_555
C28_3 C19_3 1_555 1_555
H16_3 C28_3 1_555 1_555
Zn5_3 N1_3 1_555 1_555
N3_3 Zn4 1_555 1_555
C6_3 C7_3 1_555 1_555
C6_3 C8_3 1_555 1_555
C10_3 C16_3 1_555 1_555
C14_3 C16_3 1_555 1_555
C25_3 C26_3 1_555 1_555
C27_3 C28_3 1_555 1_555
O7_3 H19_3 1_555 1_555
O7_3 H20_3 1_555 1_555
Zn4_2 O1_4 1_555 1_555
O1_4 C7_4 1_555 1_555
O2_4 Zn4_2 1_555 1_555
O11_2 C9_4 1_555 1_555
O12_2 C9_4 1_555 1_555
O5_4 C15_4 1_555 1_555
O6_4 C15_4 1_555 1_555
O7_4 Zn4_2 1_555 1_555
N1_4 C22_4 1_555 1_555
O10_4 C1_4 1_555 1_555
C1_4 O9_4 1_555 1_555
C2_4 C1_4 1_555 1_555
C3_4 C2_4 1_555 1_555
H1_4 C3_4 1_555 1_555
C4_4 C3_4 1_555 1_555
H2_4 C4_4 1_555 1_555
C5_4 C4_4 1_555 1_555
H3_4 C5_4 1_555 1_555
C6_4 C5_4 1_555 1_555
C7_4 O2_4 1_555 1_555
C8_4 C2_4 1_555 1_555
C9_4 C10_4 1_555 1_555
C10_4 C11_4 1_555 1_555
C11_4 H4_4 1_555 1_555
C12_4 C11_4 1_555 1_555
H5_4 C12_4 1_555 1_555
C13_4 C12_4 1_555 1_555
H6_4 C13_4 1_555 1_555
C14_4 C13_4 1_555 1_555
C15_4 C14_4 1_555 1_555
C16_4 C8_4 1_555 1_555
H8_4 C18_4 1_555 1_555
C19_4 C18_4 1_555 1_555
C20_4 C19_4 1_555 1_555
H9_4 C20_4 1_555 1_555
C22_4 H11_4 1_555 1_555
C23_4 C22_4 1_555 1_555
H12_4 C23_4 1_555 1_555
C24_4 C23_4 1_555 1_555
C25_4 C24_4 1_555 1_555
H13_4 C25_4 1_555 1_555
C26_4 N1_4 1_555 1_555
H14_4 C26_4 1_555 1_555
C27_4 C24_4 1_555 1_555
H15_4 C27_4 1_555 1_555
C28_4 C19_4 1_555 1_555
H16_4 C28_4 1_555 1_555
Zn5_4 N1_4 1_555 1_555
N3_4 Zn4_2 1_555 1_555
C6_4 C7_4 1_555 1_555
C6_4 C8_4 1_555 1_555
C10_4 C16_4 1_555 1_555
C14_4 C16_4 1_555 1_555
C25_4 C26_4 1_555 1_555
C27_4 C28_4 1_555 1_555
O7_4 H19_4 1_555 1_555
O7_4 H20_4 1_555 1_555
Zn1_4 O8_4 1_555 1_555
N2_4 Zn1_4 1_555 1_555
C17_4 N2_4 1_555 1_555
H7_4 C17_4 1_555 1_555
C21_4 N2_4 1_555 1_555
H10_4 C21_4 1_555 1_555
O13_4 Zn1_4 1_555 1_555
O8_4 H17_4 1_555 1_555
O8_4 H18_4 1_555 1_555
N3_3 C22_5 1_555 1_555
C22_5 H11_5 1_555 1_555
C23_5 C22_5 1_555 1_555
H12_5 C23_5 1_555 1_555
C24_5 C23_5 1_555 1_555
C25_5 C24_5 1_555 1_555
H13_5 C25_5 1_555 1_555
C26_5 N3_3 1_555 1_555
H14_5 C26_5 1_555 1_555
C25_5 C26_5 1_555 1_555
Zn3_2 O8_5 1_555 1_555
Zn5_3 O1_5 1_555 1_555
O1_5 C7_5 1_555 1_555
O2_5 Zn5_3 1_555 1_555
O3_3 C9_5 1_555 1_555
O4_3 C9_5 1_555 1_555
O13_2 C15_5 1_555 1_555
O6_5 C15_5 1_555 1_555
O7_5 Zn5_3 1_555 1_555
N2_5 Zn3_2 1_555 1_555
O9_5 Zn3_2 1_555 1_555
O10_5 C1_5 1_555 1_555
C1_5 O9_5 1_555 1_555
C2_5 C1_5 1_555 1_555
C3_5 C2_5 1_555 1_555
H1_5 C3_5 1_555 1_555
C4_5 C3_5 1_555 1_555
H2_5 C4_5 1_555 1_555
C5_5 C4_5 1_555 1_555
H3_5 C5_5 1_555 1_555
C6_5 C5_5 1_555 1_555
C7_5 O2_5 1_555 1_555
C8_5 C2_5 1_555 1_555
C9_5 C10_5 1_555 1_555
C10_5 C11_5 1_555 1_555
C11_5 H4_5 1_555 1_555
C12_5 C11_5 1_555 1_555
H5_5 C12_5 1_555 1_555
C13_5 C12_5 1_555 1_555
H6_5 C13_5 1_555 1_555
C14_5 C13_5 1_555 1_555
C15_5 C14_5 1_555 1_555
C16_5 C8_5 1_555 1_555
C17_5 N2_5 1_555 1_555
H7_5 C17_5 1_555 1_555
C18_5 C17_5 1_555 1_555
H8_5 C18_5 1_555 1_555
C19_5 C18_5 1_555 1_555
C20_5 C19_5 1_555 1_555
H9_5 C20_5 1_555 1_555
C21_5 N2_5 1_555 1_555
H10_5 C21_5 1_555 1_555
H15_5 C27_5 1_555 1_555
C28_5 C19_5 1_555 1_555
H16_5 C28_5 1_555 1_555
Zn5 O3_3 1_555 1_555
O11_3 Zn5_3 1_555 1_555
O12_3 Zn5_3 1_555 1_555
O4_3 Zn5 1_555 1_555
C6_5 C7_5 1_555 1_555
C6_5 C8_5 1_555 1_555
C10_5 C16_5 1_555 1_555
C14_5 C16_5 1_555 1_555
C20_5 C21_5 1_555 1_555
C27_5 C28_5 1_555 1_555
O8_5 H17_5 1_555 1_555
O8_5 H18_5 1_555 1_555
O7_5 H19_5 1_555 1_555
O7_5 H20_5 1_555 1_555
Zn3 O8_6 1_555 1_555
Zn5_4 O1_6 1_555 1_555
O1_6 C7_6 1_555 1_555
O2_6 Zn5_4 1_555 1_555
O3_4 C9_6 1_555 1_555
O4_4 C9_6 1_555 1_555
O13 C15_6 1_555 1_555
O6_6 C15_6 1_555 1_555
O7_6 Zn5_4 1_555 1_555
N2_6 Zn3 1_555 1_555
O9_6 Zn3 1_555 1_555
O10_6 C1_6 1_555 1_555
C1_6 O9_6 1_555 1_555
C2_6 C1_6 1_555 1_555
C3_6 C2_6 1_555 1_555
H1_6 C3_6 1_555 1_555
C4_6 C3_6 1_555 1_555
H2_6 C4_6 1_555 1_555
C5_6 C4_6 1_555 1_555
H3_6 C5_6 1_555 1_555
C6_6 C5_6 1_555 1_555
C7_6 O2_6 1_555 1_555
C8_6 C2_6 1_555 1_555
C9_6 C10_6 1_555 1_555
C10_6 C11_6 1_555 1_555
C11_6 H4_6 1_555 1_555
C12_6 C11_6 1_555 1_555
H5_6 C12_6 1_555 1_555
C13_6 C12_6 1_555 1_555
H6_6 C13_6 1_555 1_555
C14_6 C13_6 1_555 1_555
C15_6 C14_6 1_555 1_555
C16_6 C8_6 1_555 1_555
C17_6 N2_6 1_555 1_555
H7_6 C17_6 1_555 1_555
C18_6 C17_6 1_555 1_555
H8_6 C18_6 1_555 1_555
C19_6 C18_6 1_555 1_555
C20_6 C19_6 1_555 1_555
H9_6 C20_6 1_555 1_555
C21_6 N2_6 1_555 1_555
H10_6 C21_6 1_555 1_555
H15_6 C27_6 1_555 1_555
C28_6 C19_6 1_555 1_555
H16_6 C28_6 1_555 1_555
Zn5_2 O3_4 1_555 1_555
O11_4 Zn5_4 1_555 1_555
O12_4 Zn5_4 1_555 1_555
O4_4 Zn5_2 1_555 1_555
C6_6 C7_6 1_555 1_555
C6_6 C8_6 1_555 1_555
C10_6 C16_6 1_555 1_555
C14_6 C16_6 1_555 1_555
C20_6 C21_6 1_555 1_555
C27_6 C28_6 1_555 1_555
O8_6 H17_6 1_555 1_555
O8_6 H18_6 1_555 1_555
O7_6 H19_6 1_555 1_555
O7_6 H20_6 1_555 1_555
N3_4 C22_6 1_555 1_555
C22_6 H11_6 1_555 1_555
C23_6 C22_6 1_555 1_555
H12_6 C23_6 1_555 1_555
C24_6 C23_6 1_555 1_555
C25_6 C24_6 1_555 1_555
H13_6 C25_6 1_555 1_555
C26_6 N3_4 1_555 1_555
H14_6 C26_6 1_555 1_555
C25_6 C26_6 1_555 1_555
H10_7 C21_7 1_555 1_555
N3 C22_7 1_555 1_555
C22_7 H11_7 1_555 1_555
C23_7 C22_7 1_555 1_555
H12_7 C23_7 1_555 1_555
C24_7 C23_7 1_555 1_555
C25_7 C24_7 1_555 1_555
C26_7 N3 1_555 1_555
C25_7 C26_7 1_555 1_555
O11_3 C9_7 1_555 1_555
O12_3 C9_7 1_555 1_555
C9_7 C10_7 1_555 1_555
C10_7 C11_7 1_555 1_555
C11_7 H4_7 1_555 1_555
H9_7 C20_7 1_555 1_555
O7_7 H19_7 1_555 1_555
O7_7 H20_7 1_555 1_555
Zn5 O1_7 1_555 1_555
O1_7 C7_7 1_555 1_555
O2_7 Zn5 1_555 1_555
O13_4 C15_7 1_555 1_555
O6_7 C15_7 1_555 1_555
C1_7 O9_7 1_555 1_555
C2_7 C1_7 1_555 1_555
C3_7 C2_7 1_555 1_555
H1_7 C3_7 1_555 1_555
C4_7 C3_7 1_555 1_555
H2_7 C4_7 1_555 1_555
C5_7 C4_7 1_555 1_555
H3_7 C5_7 1_555 1_555
C6_7 C5_7 1_555 1_555
C7_7 O2_7 1_555 1_555
C8_7 C2_7 1_555 1_555
H5_7 C12_7 1_555 1_555
C13_7 C12_7 1_555 1_555
H6_7 C13_7 1_555 1_555
C14_7 C13_7 1_555 1_555
C15_7 C14_7 1_555 1_555
C16_7 C8_7 1_555 1_555
H8_7 C18_7 1_555 1_555
C19_7 C18_7 1_555 1_555
H15_7 C27_7 1_555 1_555
C28_7 C19_7 1_555 1_555
C6_7 C7_7 1_555 1_555
C6_7 C8_7 1_555 1_555
C14_7 C16_7 1_555 1_555
C27_7 C28_7 1_555 1_555
O11_4 C9_8 1_555 1_555
O12_4 C9_8 1_555 1_555
C9_8 C10_8 1_555 1_555
C10_8 C11_8 1_555 1_555
C11_8 H4_8 1_555 1_555
H9_8 C20_8 1_555 1_555
O7_8 H19_8 1_555 1_555
O7_8 H20_8 1_555 1_555
Zn5_2 O1_8 1_555 1_555
O1_8 C7_8 1_555 1_555
O2_8 Zn5_2 1_555 1_555
O13_3 C15_8 1_555 1_555
O6_8 C15_8 1_555 1_555
C1_8 O9_8 1_555 1_555
C2_8 C1_8 1_555 1_555
C3_8 C2_8 1_555 1_555
H1_8 C3_8 1_555 1_555
C4_8 C3_8 1_555 1_555
H2_8 C4_8 1_555 1_555
C5_8 C4_8 1_555 1_555
H3_8 C5_8 1_555 1_555
C6_8 C5_8 1_555 1_555
C7_8 O2_8 1_555 1_555
C8_8 C2_8 1_555 1_555
H5_8 C12_8 1_555 1_555
C13_8 C12_8 1_555 1_555
H6_8 C13_8 1_555 1_555
C14_8 C13_8 1_555 1_555
C15_8 C14_8 1_555 1_555
C16_8 C8_8 1_555 1_555
H8_8 C18_8 1_555 1_555
C19_8 C18_8 1_555 1_555
H15_8 C27_8 1_555 1_555
C28_8 C19_8 1_555 1_555
C6_8 C7_8 1_555 1_555
C6_8 C8_8 1_555 1_555
C14_8 C16_8 1_555 1_555
C27_8 C28_8 1_555 1_555
N3_2 C22_8 1_555 1_555
C22_8 H11_8 1_555 1_555
C23_8 C22_8 1_555 1_555
H12_8 C23_8 1_555 1_555
C24_8 C23_8 1_555 1_555
C25_8 C24_8 1_555 1_555
C26_8 N3_2 1_555 1_555
C25_8 C26_8 1_555 1_555
H10_8 C21_8 1_555 1_555
Zn3_3 O8_7 1_555 1_555
N2_7 Zn3_3 1_555 1_555
C17_7 N2_7 1_555 1_555
H7_7 C17_7 1_555 1_555
O8_7 H17_7 1_555 1_555
O8_7 H18_7 1_555 1_555
Zn3_4 O8_8 1_555 1_555
N2_8 Zn3_4 1_555 1_555
C17_8 N2_8 1_555 1_555
H7_8 C17_8 1_555 1_555
O8_8 H17_8 1_555 1_555
O8_8 H18_8 1_555 1_555

#END
