
###############################################################################
#
# This file contains modified crystal structure data generated from the
# MOF subset of the Cambridge Structural Database (CSD) v543 
# hosted by the Cambridge Crystallographic Data Centre (CCDC).
#
# This work is licensed under the Creative Commons
# Attribution-NonCommercial-ShareAlike 4.0 International License.
# To view a copy of this license, visit
# http://creativecommons.org/licenses/by-nc-sa/4.0/
# or send a letter to
# Creative Commons, PO Box 1866, Mountain View, CA 94042, USA.
#
# CIF created using the CSD Python API on 29 September 2022
# The structure has been converted into the P1 space group
# The structure has a 3D framework
# The original CSD entry MUQYEE is in the tetragonal crystal system
# The framework has been calculated to contain at least 10.0% void space
# The void calculation uses a probe of radius 1.32A, grid spacing 0.4
# The framework is charged, counterions have been retained in the structure
#
###############################################################################

data_MUQYEE
_chemical_formula_moiety         '(C40 H16 In2 O16)n'
_symmetry_cell_setting           triclinic
_symmetry_space_group_name_H-M   'P 1'
_symmetry_Int_Tables_number      1
_space_group_name_Hall           'P 1'
loop_
_symmetry_equiv_pos_site_id
_symmetry_equiv_pos_as_xyz
1 x,y,z
_cell_length_a                   9.9843(6)
_cell_length_b                   9.9843(6)
_cell_length_c                   18.2816(18)
_cell_angle_alpha                90
_cell_angle_beta                 90
_cell_angle_gamma                90
_cell_volume                     1822.42
loop_
_atom_site_label
_atom_site_type_symbol
_atom_site_fract_x
_atom_site_fract_y
_atom_site_fract_z
In1 In 0.5000 0.5000 0.2500
O1 O 0.3578(3) 0.5000 0.15746(19)
C1 C 0.0000 0.5000 0.1934(3)
H1 H 0.0000 0.5000 0.2454
C2 C 0.1200(4) 0.5000 0.1571(2)
C3 C -0.0000 0.5000 0.0408(3)
C4 C 0.2511(6) 0.5000 0.1965(4)
C5 C 0.1203(4) 0.5000 0.0794(3)
H2 H 0.2030 0.5000 0.0536
O2 O 0.2597(7) 0.5000 0.2631(3)
O9 O 0.6422(3) 0.5000 0.15746(19)
O10 O 0.5000 0.3578(3) 0.34254(19)
O11 O 0.5000 0.6422(3) 0.34254(19)
O12 O 0.7403(7) 0.5000 0.2631(3)
O13 O 0.5000 0.2597(7) 0.2369(3)
O14 O 0.5000 0.7403(7) 0.2369(3)
O5 O 0.3578(3) 0.5000 0.84254(19)
C9 C -0.0000 0.5000 0.8066(3)
H4 H -0.0000 0.5000 0.7546
C10 C 0.1200(4) 0.5000 0.8429(2)
C11 C 0.0000 0.5000 0.9592(3)
C12 C 0.2511(6) 0.5000 0.8035(4)
C13 C 0.1203(4) 0.5000 0.9206(3)
H5 H 0.2030 0.5000 0.9464
O6 O 0.2597(7) 0.5000 0.7369(3)
In4 In 0.5000 0.5000 0.7500
C1_2 C 1.0000 0.5000 0.1934(3)
H1_2 H 1.0000 0.5000 0.2454
C3_2 C 1.0000 0.5000 0.0408(3)
C6 C 0.8800(4) 0.5000 0.1571(2)
C7 C 0.7489(6) 0.5000 0.1965(4)
C8 C 0.8797(4) 0.5000 0.0794(3)
H3 H 0.7970 0.5000 0.0536
C9_2 C 1.0000 0.5000 0.8066(3)
H4_2 H 1.0000 0.5000 0.7546
C11_2 C 1.0000 0.5000 0.9592(3)
O7 O 0.6422(3) 0.5000 0.84254(19)
C14 C 0.8800(4) 0.5000 0.8429(2)
C15 C 0.7489(6) 0.5000 0.8035(4)
C16 C 0.8797(4) 0.5000 0.9206(3)
H6 H 0.7970 0.5000 0.9464
O8 O 0.7403(7) 0.5000 0.7369(3)
O1_2 O 0.5000 0.3578(3) 0.65746(19)
C1_3 C 0.5000 0.0000 0.6934(3)
H1_3 H 0.5000 0.0000 0.7454
C2_2 C 0.5000 0.1200(4) 0.6571(2)
C3_3 C 0.5000 0.0000 0.5408(3)
C4_2 C 0.5000 0.2511(6) 0.6965(4)
C5_2 C 0.5000 0.1203(4) 0.5794(3)
H2_2 H 0.5000 0.2030 0.5536
O2_2 O 0.5000 0.2597(7) 0.7631(3)
C9_3 C 0.5000 -0.0000 0.3066(3)
H4_3 H 0.5000 -0.0000 0.2546
C10_2 C 0.5000 0.1200(4) 0.3429(2)
C11_3 C 0.5000 0.0000 0.4592(3)
C12_2 C 0.5000 0.2511(6) 0.3035(4)
C13_2 C 0.5000 0.1203(4) 0.4206(3)
H5_2 H 0.5000 0.2030 0.4464
O9_2 O 0.5000 0.6422(3) 0.65746(19)
O12_2 O 0.5000 0.7403(7) 0.7631(3)
C1_4 C 0.5000 1.0000 0.6934(3)
H1_4 H 0.5000 1.0000 0.7454
C3_4 C 0.5000 1.0000 0.5408(3)
C6_2 C 0.5000 0.8800(4) 0.6571(2)
C7_2 C 0.5000 0.7489(6) 0.6965(4)
C8_2 C 0.5000 0.8797(4) 0.5794(3)
H3_2 H 0.5000 0.7970 0.5536
C9_4 C 0.5000 1.0000 0.3066(3)
H4_4 H 0.5000 1.0000 0.2546
C11_4 C 0.5000 1.0000 0.4592(3)
C14_2 C 0.5000 0.8800(4) 0.3429(2)
C15_2 C 0.5000 0.7489(6) 0.3035(4)
C16_2 C 0.5000 0.8797(4) 0.4206(3)
H6_2 H 0.5000 0.7970 0.4464
loop_
_geom_bond_atom_site_label_1
_geom_bond_atom_site_label_2
_geom_bond_site_symmetry_1
_geom_bond_site_symmetry_2
In1 O1 1_555 1_555
O1 C4 1_555 1_555
C1 H1 1_555 1_555
C2 C1 1_555 1_555
C3 C5 1_555 1_555
C4 C2 1_555 1_555
C5 C2 1_555 1_555
H2 C5 1_555 1_555
O2 In1 1_555 1_555
O9 In1 1_555 1_555
O10 In1 1_555 1_555
O11 In1 1_555 1_555
O12 In1 1_555 1_555
O13 In1 1_555 1_555
O14 In1 1_555 1_555
C4 O2 1_555 1_555
O5 C12 1_555 1_555
C9 H4 1_555 1_555
C10 C9 1_555 1_555
C12 C10 1_555 1_555
C13 C10 1_555 1_555
H5 C13 1_555 1_555
O6 C12 1_555 1_555
In4 O5 1_555 1_555
C11 C13 1_555 1_555
O6 In4 1_555 1_555
C1_2 H1_2 1_555 1_555
O9 C7 1_555 1_555
C6 C1_2 1_555 1_555
C7 C6 1_555 1_555
C8 C3_2 1_555 1_555
H3 C8 1_555 1_555
O12 C7 1_555 1_555
C6 C8 1_555 1_555
C9_2 H4_2 1_555 1_555
O7 C15 1_555 1_555
C14 C9_2 1_555 1_555
C15 C14 1_555 1_555
C16 C11_2 1_555 1_555
H6 C16 1_555 1_555
O8 C15 1_555 1_555
In4 O7 1_555 1_555
C14 C16 1_555 1_555
O8 In4 1_555 1_555
In4 O1_2 1_555 1_555
O1_2 C4_2 1_555 1_555
C1_3 H1_3 1_555 1_555
C2_2 C1_3 1_555 1_555
C3_3 C5_2 1_555 1_555
C4_2 C2_2 1_555 1_555
C5_2 C2_2 1_555 1_555
H2_2 C5_2 1_555 1_555
O2_2 In4 1_555 1_555
O10 C12_2 1_555 1_555
C9_3 H4_3 1_555 1_555
C10_2 C9_3 1_555 1_555
C11_3 C3_3 1_555 1_555
C12_2 C10_2 1_555 1_555
C13_2 C10_2 1_555 1_555
H5_2 C13_2 1_555 1_555
O13 C12_2 1_555 1_555
O9_2 In4 1_555 1_555
O12_2 In4 1_555 1_555
C4_2 O2_2 1_555 1_555
C11_3 C13_2 1_555 1_555
C1_4 H1_4 1_555 1_555
O9_2 C7_2 1_555 1_555
C6_2 C1_4 1_555 1_555
C7_2 C6_2 1_555 1_555
C8_2 C3_4 1_555 1_555
H3_2 C8_2 1_555 1_555
O12_2 C7_2 1_555 1_555
C9_4 H4_4 1_555 1_555
C11_4 C3_4 1_555 1_555
O11 C15_2 1_555 1_555
C14_2 C9_4 1_555 1_555
C15_2 C14_2 1_555 1_555
C16_2 C11_4 1_555 1_555
H6_2 C16_2 1_555 1_555
O14 C15_2 1_555 1_555
C6_2 C8_2 1_555 1_555
C14_2 C16_2 1_555 1_555

#END
