
###############################################################################
#
# This file contains modified crystal structure data generated from the
# MOF subset of the Cambridge Structural Database (CSD) v543 
# hosted by the Cambridge Crystallographic Data Centre (CCDC).
#
# This work is licensed under the Creative Commons
# Attribution-NonCommercial-ShareAlike 4.0 International License.
# To view a copy of this license, visit
# http://creativecommons.org/licenses/by-nc-sa/4.0/
# or send a letter to
# Creative Commons, PO Box 1866, Mountain View, CA 94042, USA.
#
# CIF created using the CSD Python API on 29 September 2022
# The structure has been converted into the P1 space group
# The structure has a 3D framework
# The original CSD entry MURDAH is in the monoclinic crystal system
# The framework has been calculated to contain at least 10.0% void space
# The void calculation uses a probe of radius 1.32A, grid spacing 0.4
#
###############################################################################

data_MURDAH
_chemical_formula_moiety         '(C288 H192 I48 N92 Zn24)n'
_symmetry_cell_setting           triclinic
_symmetry_space_group_name_H-M   'P 1'
_symmetry_Int_Tables_number      1
_space_group_name_Hall           'P 1'
loop_
_symmetry_equiv_pos_site_id
_symmetry_equiv_pos_as_xyz
1 x,y,z
_cell_length_a                   35.4273(5)
_cell_length_b                   14.7790(2)
_cell_length_c                   31.6523(5)
_cell_angle_alpha                90
_cell_angle_beta                 102.0530(10)
_cell_angle_gamma                90
_cell_volume                     16207.2
loop_
_atom_site_label
_atom_site_type_symbol
_atom_site_fract_x
_atom_site_fract_y
_atom_site_fract_z
N5 N 0.57398(13) 0.0145(3) 0.54920(13)
H7 H 0.622070 0.023602 0.528003
Zn5 Zn 0.58679(2) 0.12158(4) 0.59223(2)
N11 N 0.83353(10) 0.0314(2) 0.89084(12)
N12 N 0.62526(13) 0.0557(2) 0.64068(14)
C30 C 0.81422(13) 0.0740(3) 0.85475(16)
H19 H 0.821288 0.132729 0.849159
C31 C 0.78463(13) 0.0332(3) 0.82628(16)
H20 H 0.771363 0.064738 0.802301
C33 C 0.67694(13) 0.0531(3) 0.70248(15)
H21 H 0.696736 0.083810 0.720809
C34 C 0.65401(14) 0.0967(3) 0.66761(15)
H22 H 0.658921 0.157286 0.662831
I4 I 0.61973(3) 0.23908(6) 0.55745(3)
I6 I 0.52748(4) 0.14826(8) 0.62603(4)
Zn4 Zn 0.87613(2) 0.09472(4) 0.93508(2)
N1 N 0.92180(10) 0.0061(3) 0.93847(13)
H4 H 0.922626 0.018357 0.877910
I5 I 0.89796(4) 0.23378(8) 0.89774(5)
I1 I 0.35566(2) 0.40412(4) 0.50674(2)
Zn1 Zn 0.37613(2) 0.40528(4) 0.43508(2)
Zn2 Zn 0.67046(2) 0.64284(4) 0.27160(2)
N1_2 N 0.42180(10) 0.4939(3) 0.43847(13)
N2 N 0.52597(10) 0.7277(2) 0.47052(12)
N3 N 0.57681(10) 0.7766(2) 0.43734(12)
N4 N 0.53938(11) 0.6476(3) 0.41063(13)
N6 N 0.63817(12) 0.6617(3) 0.31857(15)
N7 N 0.68335(11) 0.5056(2) 0.27771(13)
N8 N 0.73557(10) 0.1879(2) 0.30924(11)
N9 N 0.72283(10) 0.0487(2) 0.27117(11)
N10 N 0.68317(10) 0.1759(2) 0.24924(12)
C1 C 0.43780(15) 0.5375(4) 0.47444(18)
H1 H 0.427308 0.530693 0.498843
C2 C 0.46982(15) 0.5931(4) 0.47660(16)
H2 H 0.480482 0.623076 0.502131
C3 C 0.48561(12) 0.6034(3) 0.44067(14)
C4 C 0.4672(2) 0.5619(6) 0.4033(2)
H3 H 0.476175 0.569660 0.377975
C5 C 0.4352(2) 0.5084(6) 0.4036(2)
H4_2 H 0.422626 0.481643 0.377910
C6 C 0.51903(12) 0.6630(3) 0.44091(14)
C7 C 0.55454(12) 0.7843(3) 0.46623(13)
C8 C 0.56847(12) 0.7044(3) 0.41068(14)
C9 C 0.56149(13) 0.8644(3) 0.49491(14)
C10 C 0.53447(14) 0.8910(3) 0.51834(16)
H5 H 0.511652 0.858590 0.516224
C11 C 0.54162(14) 0.9663(4) 0.54494(16)
H6 H 0.523186 0.983692 0.560377
C12 C 0.5999(2) 0.9890(5) 0.5261(2)
C13 C 0.59508(17) 0.9133(4) 0.4996(2)
H8 H 0.614272 0.896046 0.485146
C14 C 0.59298(13) 0.6902(3) 0.37892(15)
C15 C 0.62762(18) 0.7308(5) 0.3828(2)
H9 H 0.636753 0.768970 0.406057
C16 C 0.64945(18) 0.7157(5) 0.3522(2)
H10 H 0.673153 0.744745 0.355261
C17 C 0.6051(2) 0.6208(6) 0.3158(3)
H11 H 0.596886 0.581819 0.292611
C18 C 0.5819(2) 0.6314(6) 0.3444(3)
H12 H 0.558791 0.599637 0.340957
C19 C 0.71493(15) 0.4718(3) 0.30331(17)
H13 H 0.732171 0.511463 0.320143
C20 C 0.72307(14) 0.3807(3) 0.30585(17)
H14 H 0.745503 0.359717 0.323943
C21 C 0.69780(12) 0.3207(3) 0.28145(14)
C22 C 0.66475(15) 0.3553(3) 0.25583(19)
H15 H 0.646792 0.316968 0.239159
C23 C 0.65857(15) 0.4466(3) 0.2551(2)
H16 H 0.635897 0.468794 0.237983
C24 C 0.70611(12) 0.2220(3) 0.28060(14)
C25 C 0.74254(12) 0.1003(3) 0.30309(13)
C26 C 0.69328(11) 0.0899(3) 0.24588(14)
C27 C 0.77458(11) 0.0554(3) 0.33346(13)
C28 C 0.79504(15) 0.0985(3) 0.36971(17)
H17 H 0.789429 0.158205 0.375335
C29 C 0.82367(16) 0.0531(3) 0.39747(17)
H18 H 0.836762 0.082911 0.422069
C32 C 0.66985(12) 0.0370(3) 0.20949(14)
C35 C 0.6182(2) 0.0301(4) 0.1489(2)
H23 H 0.597153 0.058283 0.131233
C36 C 0.6400(2) 0.0796(3) 0.1817(2)
H24 H 0.634743 0.140540 0.185181
I2 I 0.62606(3) 0.65980(10) 0.19636(5)
I3 I 0.73088(4) 0.73826(9) 0.29312(5)
I5_2 I 0.39796(4) 0.26622(8) 0.39774(5)
N14 N 0.33353(10) 0.4686(2) 0.39084(12)
Zn3 Zn 0.08679(2) 0.37842(4) 0.09223(2)
N8_2 N 0.23557(10) 0.6879(2) 0.30924(11)
N9_2 N 0.22283(10) 0.5487(2) 0.27117(11)
N10_2 N 0.18317(10) 0.6759(2) 0.24924(12)
N12_2 N 0.12526(13) 0.4443(2) 0.14068(14)
C19_2 C 0.21493(15) 0.9718(3) 0.30331(17)
C20_2 C 0.22307(14) 0.8807(3) 0.30585(17)
H14_2 H 0.245503 0.859717 0.323943
C21_2 C 0.19780(12) 0.8207(3) 0.28145(14)
C22_2 C 0.16475(15) 0.8553(3) 0.25583(19)
H15_2 H 0.146792 0.816968 0.239159
C23_2 C 0.15857(15) 0.9466(3) 0.2551(2)
H16_2 H 0.135897 0.968794 0.237983
C24_2 C 0.20611(12) 0.7220(3) 0.28060(14)
C25_2 C 0.24254(12) 0.6003(3) 0.30309(13)
C26_2 C 0.19328(11) 0.5899(3) 0.24588(14)
C27_2 C 0.27458(11) 0.5554(3) 0.33346(13)
C28_2 C 0.29504(15) 0.5985(3) 0.36971(17)
H17_2 H 0.289429 0.658205 0.375335
C29_2 C 0.32367(16) 0.5531(3) 0.39747(17)
H18_2 H 0.336762 0.582911 0.422069
C30_2 C 0.31422(13) 0.4260(3) 0.35475(16)
H19_2 H 0.321288 0.367271 0.349159
C31_2 C 0.28463(13) 0.4668(3) 0.32628(16)
H20_2 H 0.271363 0.435262 0.302301
C32_2 C 0.16985(12) 0.5370(3) 0.20949(14)
C33_2 C 0.17694(13) 0.4469(3) 0.20248(15)
H21_2 H 0.196736 0.416190 0.220809
C34_2 C 0.15401(14) 0.4033(3) 0.16761(15)
H22_2 H 0.158921 0.342714 0.162831
C35_2 C 0.1182(2) 0.5301(4) 0.1489(2)
H23_2 H 0.097153 0.558283 0.131233
C36_2 C 0.1400(2) 0.5796(3) 0.1817(2)
H24_2 H 0.134743 0.640540 0.185181
I4_2 I 0.11973(3) 0.26092(6) 0.05745(3)
I6_2 I 0.02748(4) 0.35174(8) 0.12603(4)
N13 N 0.07398(13) 0.4855(3) 0.04920(13)
C10_2 C 0.03447(14) 0.6090(3) 0.01834(16)
H5_2 H 0.011652 0.641410 0.016224
C11_2 C 0.04162(14) 0.5337(4) 0.04494(16)
H6_2 H 0.023186 0.516308 0.060377
C12_2 C 0.0999(2) 0.5110(5) 0.0261(2)
H7_2 H 0.122070 0.476398 0.028003
Zn3_2 Zn 0.58679(2) 0.87842(4) 0.09223(2)
N11_2 N 0.83353(10) 0.9686(2) 0.39084(12)
N12_3 N 0.62526(13) 0.9443(2) 0.14068(14)
C30_3 C 0.81422(13) 0.9260(3) 0.35475(16)
H19_3 H 0.821288 0.867271 0.349159
C31_3 C 0.78463(13) 0.9668(3) 0.32628(16)
H20_3 H 0.771363 0.935262 0.302301
C33_3 C 0.67694(13) 0.9469(3) 0.20248(15)
H21_3 H 0.696736 0.916190 0.220809
C34_3 C 0.65401(14) 0.9033(3) 0.16761(15)
H22_3 H 0.658921 0.842714 0.162831
I4_3 I 0.61973(3) 0.76092(6) 0.05745(3)
I6_3 I 0.52748(4) 0.85174(8) 0.12603(4)
Zn4_2 Zn 0.87613(2) 0.90528(4) 0.43508(2)
N13_2 N 0.57398(13) 0.9855(3) 0.04920(13)
I1_2 I 0.85566(2) 0.90412(4) 0.50674(2)
N1_3 N 0.92180(10) 0.9939(3) 0.43847(13)
H4_3 H 0.922626 0.981643 0.377910
I5_3 I 0.89796(4) 0.76622(8) 0.39774(5)
H7_3 H 0.622070 0.976398 0.028003
N5_2 N 0.42602(13) 0.0145(3) 0.95080(13)
H7_4 H 0.377930 0.023602 0.971997
Zn5_2 Zn 0.41321(2) 0.12158(4) 0.90777(2)
N11_3 N 0.16647(10) 0.0314(2) 0.60916(12)
N12_4 N 0.37474(13) 0.0557(2) 0.85932(14)
C30_4 C 0.18578(13) 0.0740(3) 0.64525(16)
H19_4 H 0.178712 0.132729 0.650841
C31_4 C 0.21537(13) 0.0332(3) 0.67372(16)
H20_4 H 0.228637 0.064738 0.697699
C33_4 C 0.32306(13) 0.0531(3) 0.79752(15)
H21_4 H 0.303264 0.083810 0.779191
C34_4 C 0.34599(14) 0.0967(3) 0.83239(15)
H22_4 H 0.341079 0.157286 0.837169
I4_4 I 0.38027(3) 0.23908(6) 0.94255(3)
I6_4 I 0.47252(4) 0.14826(8) 0.87397(4)
Zn4_3 Zn 0.12387(2) 0.09472(4) 0.56492(2)
I1_3 I 0.14434(2) 0.09588(4) 0.49326(2)
N1_4 N 0.07820(10) 0.0061(3) 0.56153(13)
H4_4 H 0.077374 0.018357 0.622090
I5_4 I 0.10204(4) 0.23378(8) 0.60226(5)
Zn1_2 Zn 0.62387(2) 0.40528(4) 0.06492(2)
Zn2_2 Zn 0.32954(2) 0.64284(4) 0.22840(2)
N1_5 N 0.57820(10) 0.4939(3) 0.06153(13)
N2_2 N 0.47403(10) 0.7277(2) 0.02948(12)
N3_2 N 0.42319(10) 0.7766(2) 0.06266(12)
N4_2 N 0.46062(11) 0.6476(3) 0.08937(13)
N6_2 N 0.36183(12) 0.6617(3) 0.18143(15)
N7_2 N 0.31665(11) 0.5056(2) 0.22229(13)
N8_3 N 0.26443(10) 0.1879(2) 0.19076(11)
N9_3 N 0.27717(10) 0.0487(2) 0.22883(11)
N10_3 N 0.31683(10) 0.1759(2) 0.25076(12)
C1_2 C 0.56220(15) 0.5375(4) 0.02556(18)
H1_2 H 0.572692 0.530693 0.001157
C2_2 C 0.53018(15) 0.5931(4) 0.02340(16)
C3_2 C 0.51439(12) 0.6034(3) 0.05933(14)
C4_2 C 0.5328(2) 0.5619(6) 0.0967(2)
H3_2 H 0.523825 0.569660 0.122025
C5_2 C 0.5648(2) 0.5084(6) 0.0964(2)
H4_5 H 0.577374 0.481643 0.122090
C6_2 C 0.48097(12) 0.6630(3) 0.05909(14)
C7_2 C 0.44546(12) 0.7843(3) 0.03377(13)
C8_2 C 0.43153(12) 0.7044(3) 0.08932(14)
C9_2 C 0.43851(13) 0.8644(3) 0.00509(14)
C13_2 C 0.40492(17) 0.9133(4) 0.0004(2)
H8_2 H 0.385728 0.896046 0.014854
C14_2 C 0.40702(13) 0.6902(3) 0.12108(15)
C15_2 C 0.37238(18) 0.7308(5) 0.1172(2)
H9_2 H 0.363247 0.768970 0.093943
C16_2 C 0.35055(18) 0.7157(5) 0.1478(2)
H10_2 H 0.326847 0.744745 0.144739
C17_2 C 0.3949(2) 0.6208(6) 0.1842(3)
H11_2 H 0.403114 0.581819 0.207389
C18_2 C 0.4181(2) 0.6314(6) 0.1556(3)
H12_2 H 0.441209 0.599637 0.159043
C19_3 C 0.28507(15) 0.4718(3) 0.19669(17)
H13_2 H 0.267829 0.511463 0.179857
C20_3 C 0.27693(14) 0.3807(3) 0.19415(17)
H14_3 H 0.254497 0.359717 0.176057
C21_3 C 0.30220(12) 0.3207(3) 0.21855(14)
C22_3 C 0.33525(15) 0.3553(3) 0.24417(19)
H15_3 H 0.353208 0.316968 0.260841
C23_3 C 0.34143(15) 0.4466(3) 0.2449(2)
H16_3 H 0.364103 0.468794 0.262017
C24_3 C 0.29389(12) 0.2220(3) 0.21940(14)
C25_3 C 0.25746(12) 0.1003(3) 0.19691(13)
C26_3 C 0.30672(11) 0.0899(3) 0.25412(14)
C27_3 C 0.22542(11) 0.0554(3) 0.16654(13)
C28_3 C 0.20496(15) 0.0985(3) 0.13029(17)
H17_3 H 0.210571 0.158205 0.124665
C29_3 C 0.17633(16) 0.0531(3) 0.10253(17)
H18_3 H 0.163238 0.082911 0.077931
C32_3 C 0.33015(12) 0.0370(3) 0.29051(14)
C35_3 C 0.3818(2) 0.0301(4) 0.3511(2)
H23_3 H 0.402847 0.058283 0.368767
C36_3 C 0.3600(2) 0.0796(3) 0.3183(2)
H24_3 H 0.365257 0.140540 0.314819
I2_2 I 0.37394(3) 0.65980(10) 0.30364(5)
I3_2 I 0.26912(4) 0.73826(9) 0.20688(5)
I5_5 I 0.60204(4) 0.26622(8) 0.10226(5)
N14_2 N 0.66647(10) 0.4686(2) 0.10916(12)
Zn3_3 Zn 0.91321(2) 0.37842(4) 0.40777(2)
N8_4 N 0.76443(10) 0.6879(2) 0.19076(11)
N9_4 N 0.77717(10) 0.5487(2) 0.22883(11)
N10_4 N 0.81683(10) 0.6759(2) 0.25076(12)
N12_5 N 0.87474(13) 0.4443(2) 0.35932(14)
C19_4 C 0.78507(15) 0.9718(3) 0.19669(17)
C20_4 C 0.77693(14) 0.8807(3) 0.19415(17)
H14_4 H 0.754497 0.859717 0.176057
C21_4 C 0.80220(12) 0.8207(3) 0.21855(14)
C22_4 C 0.83525(15) 0.8553(3) 0.24417(19)
H15_4 H 0.853208 0.816968 0.260841
C23_4 C 0.84143(15) 0.9466(3) 0.2449(2)
H16_4 H 0.864103 0.968794 0.262017
C24_4 C 0.79389(12) 0.7220(3) 0.21940(14)
C25_4 C 0.75746(12) 0.6003(3) 0.19691(13)
C26_4 C 0.80672(11) 0.5899(3) 0.25412(14)
C27_4 C 0.72542(11) 0.5554(3) 0.16654(13)
C28_4 C 0.70496(15) 0.5985(3) 0.13029(17)
H17_4 H 0.710571 0.658205 0.124665
C29_4 C 0.67633(16) 0.5531(3) 0.10253(17)
H18_4 H 0.663238 0.582911 0.077931
C30_5 C 0.68578(13) 0.4260(3) 0.14525(16)
H19_5 H 0.678712 0.367271 0.150841
C31_5 C 0.71537(13) 0.4668(3) 0.17372(16)
H20_5 H 0.728637 0.435262 0.197699
C32_4 C 0.83015(12) 0.5370(3) 0.29051(14)
C33_5 C 0.82306(13) 0.4469(3) 0.29752(15)
H21_5 H 0.803264 0.416190 0.279191
C34_5 C 0.84599(14) 0.4033(3) 0.33239(15)
H22_5 H 0.841079 0.342714 0.337169
C35_4 C 0.8818(2) 0.5301(4) 0.3511(2)
H23_4 H 0.902847 0.558283 0.368767
C36_4 C 0.8600(2) 0.5796(3) 0.3183(2)
H24_4 H 0.865257 0.640540 0.314819
I4_5 I 0.88027(3) 0.26092(6) 0.44255(3)
I6_5 I 0.97252(4) 0.35174(8) 0.37397(4)
N13_3 N 0.92602(13) 0.4855(3) 0.45080(13)
Zn2_3 Zn 0.82954(2) 0.85716(4) 0.72840(2)
N2_3 N 0.97403(10) 0.7723(2) 0.52948(12)
N3_3 N 0.92319(10) 0.7234(2) 0.56266(12)
N4_3 N 0.96062(11) 0.8524(3) 0.58937(13)
N6_3 N 0.86183(12) 0.8383(3) 0.68143(15)
N7_3 N 0.81665(11) 0.9944(2) 0.72229(13)
C6_3 C 0.98097(12) 0.8370(3) 0.55909(14)
C7_3 C 0.94546(12) 0.7157(3) 0.53377(13)
C8_3 C 0.93153(12) 0.7956(3) 0.58932(14)
C9_3 C 0.93851(13) 0.6356(3) 0.50509(14)
C10_3 C 0.96553(14) 0.6090(3) 0.48166(16)
H5_3 H 0.988348 0.641410 0.483776
C11_3 C 0.95838(14) 0.5337(4) 0.45506(16)
H6_3 H 0.976814 0.516308 0.439623
C12_3 C 0.9001(2) 0.5110(5) 0.4739(2)
H7_5 H 0.877930 0.476398 0.471997
C13_3 C 0.90492(17) 0.5867(4) 0.5004(2)
H8_3 H 0.885728 0.603954 0.514854
C14_3 C 0.90702(13) 0.8098(3) 0.62108(15)
C15_3 C 0.87238(18) 0.7692(5) 0.6172(2)
H9_3 H 0.863247 0.731030 0.593943
C16_3 C 0.85055(18) 0.7843(5) 0.6478(2)
H10_3 H 0.826847 0.755255 0.644739
C17_3 C 0.8949(2) 0.8792(6) 0.6842(3)
H11_3 H 0.903114 0.918181 0.707389
C18_3 C 0.9181(2) 0.8686(6) 0.6556(3)
H12_3 H 0.941209 0.900363 0.659043
H13_3 H 0.767829 0.988537 0.679857
I2_3 I 0.87394(3) 0.84020(10) 0.80364(5)
I3_3 I 0.76912(4) 0.76174(9) 0.70688(5)
I1_4 I 0.64434(2) 0.40412(4) 0.99326(2)
H2_2 H 0.519518 0.623076 0.997869
C10_4 C 0.46553(14) 0.8910(3) 0.98166(16)
H5_4 H 0.488348 0.858590 0.983776
C11_4 C 0.45838(14) 0.9663(4) 0.95506(16)
H6_4 H 0.476814 0.983692 0.939623
C12_4 C 0.4001(2) 0.9890(5) 0.9739(2)
Zn3_4 Zn 0.41321(2) 0.87842(4) 0.40777(2)
N11_4 N 0.16647(10) 0.9686(2) 0.10916(12)
N12_6 N 0.37474(13) 0.9443(2) 0.35932(14)
C30_6 C 0.18578(13) 0.9260(3) 0.14525(16)
H19_6 H 0.178712 0.867271 0.150841
C31_6 C 0.21537(13) 0.9668(3) 0.17372(16)
H20_6 H 0.228637 0.935262 0.197699
C33_6 C 0.32306(13) 0.9469(3) 0.29752(15)
H21_6 H 0.303264 0.916190 0.279191
C34_6 C 0.34599(14) 0.9033(3) 0.33239(15)
H22_6 H 0.341079 0.842714 0.337169
I4_6 I 0.38027(3) 0.76092(6) 0.44255(3)
I6_6 I 0.47252(4) 0.85174(8) 0.37397(4)
Zn4_4 Zn 0.12387(2) 0.90528(4) 0.06492(2)
N13_4 N 0.42602(13) 0.9855(3) 0.45080(13)
N1_6 N 0.07820(10) 0.9939(3) 0.06153(13)
H4_6 H 0.077374 0.981643 0.122090
I5_6 I 0.10204(4) 0.76622(8) 0.10226(5)
H7_6 H 0.377930 0.976398 0.471997
Zn2_4 Zn 0.17046(2) 0.14284(4) 0.27160(2)
N2_4 N 0.02597(10) 0.2277(2) 0.47052(12)
N3_4 N 0.07681(10) 0.2766(2) 0.43734(12)
N4_4 N 0.03938(11) 0.1476(3) 0.41063(13)
N5_3 N 0.07398(13) 0.5145(3) 0.54920(13)
N6_4 N 0.13817(12) 0.1617(3) 0.31857(15)
N7_4 N 0.18335(11) 0.0056(2) 0.27771(13)
C6_4 C 0.01903(12) 0.1630(3) 0.44091(14)
C7_4 C 0.05454(12) 0.2843(3) 0.46623(13)
C8_4 C 0.06847(12) 0.2044(3) 0.41068(14)
C9_4 C 0.06149(13) 0.3644(3) 0.49491(14)
C10_5 C 0.03447(14) 0.3910(3) 0.51834(16)
H5_5 H 0.011652 0.358590 0.516224
C11_5 C 0.04162(14) 0.4663(4) 0.54494(16)
H6_5 H 0.023186 0.483692 0.560377
C12_5 C 0.0999(2) 0.4890(5) 0.5261(2)
H7_7 H 0.122070 0.523602 0.528003
C13_4 C 0.09508(17) 0.4133(4) 0.4996(2)
H8_4 H 0.114272 0.396046 0.485146
C14_4 C 0.09298(13) 0.1902(3) 0.37892(15)
C15_4 C 0.12762(18) 0.2308(5) 0.3828(2)
H9_4 H 0.136753 0.268970 0.406057
C16_4 C 0.14945(18) 0.2157(5) 0.3522(2)
H10_4 H 0.173153 0.244745 0.355261
C17_4 C 0.1051(2) 0.1208(6) 0.3158(3)
H11_4 H 0.096886 0.081819 0.292611
C18_4 C 0.0819(2) 0.1314(6) 0.3444(3)
H12_4 H 0.058791 0.099637 0.340957
H13_4 H 0.232171 0.011463 0.320143
I2_4 I 0.12606(3) 0.15980(10) 0.19636(5)
I3_4 I 0.23088(4) 0.23826(9) 0.29312(5)
Zn5_3 Zn 0.08679(2) 0.62158(4) 0.59223(2)
Zn1_3 Zn 0.37613(2) 0.59472(4) 0.93508(2)
Zn2_5 Zn 0.67046(2) 0.35716(4) 0.77160(2)
N1_7 N 0.42180(10) 0.5061(3) 0.93847(13)
N2_5 N 0.52597(10) 0.2723(2) 0.97052(12)
N3_5 N 0.57681(10) 0.2234(2) 0.93734(12)
N4_5 N 0.53938(11) 0.3524(3) 0.91063(13)
N6_5 N 0.63817(12) 0.3383(3) 0.81857(15)
N7_5 N 0.68335(11) 0.4944(2) 0.77771(13)
N8_5 N 0.73557(10) 0.8121(2) 0.80924(11)
N9_5 N 0.72283(10) 0.9513(2) 0.77117(11)
N10_5 N 0.68317(10) 0.8241(2) 0.74924(12)
C1_3 C 0.43780(15) 0.4625(4) 0.97444(18)
H1_3 H 0.427308 0.469307 0.998843
C2_3 C 0.46982(15) 0.4069(4) 0.97660(16)
C3_3 C 0.48561(12) 0.3966(3) 0.94067(14)
C4_3 C 0.4672(2) 0.4381(6) 0.9033(2)
H3_3 H 0.476175 0.430340 0.877975
C5_3 C 0.4352(2) 0.4916(6) 0.9036(2)
H4_7 H 0.422626 0.518357 0.877910
C6_5 C 0.51903(12) 0.3370(3) 0.94091(14)
C7_5 C 0.55454(12) 0.2157(3) 0.96623(13)
C8_5 C 0.56847(12) 0.2956(3) 0.91068(14)
C9_5 C 0.56149(13) 0.1356(3) 0.99491(14)
C13_5 C 0.59508(17) 0.0867(4) 0.9996(2)
H8_5 H 0.614272 0.103954 0.985146
C14_5 C 0.59298(13) 0.3098(3) 0.87892(15)
C15_5 C 0.62762(18) 0.2692(5) 0.8828(2)
H9_5 H 0.636753 0.231030 0.906057
C16_5 C 0.64945(18) 0.2843(5) 0.8522(2)
H10_5 H 0.673153 0.255255 0.855261
C17_5 C 0.6051(2) 0.3792(6) 0.8158(3)
H11_5 H 0.596886 0.418181 0.792611
C18_5 C 0.5819(2) 0.3686(6) 0.8444(3)
H12_5 H 0.558791 0.400363 0.840957
C19_5 C 0.71493(15) 0.5282(3) 0.80331(17)
H13_5 H 0.732171 0.488537 0.820143
C20_5 C 0.72307(14) 0.6193(3) 0.80585(17)
H14_5 H 0.745503 0.640283 0.823943
C21_5 C 0.69780(12) 0.6793(3) 0.78145(14)
C22_5 C 0.66475(15) 0.6447(3) 0.75583(19)
H15_5 H 0.646792 0.683032 0.739159
C23_5 C 0.65857(15) 0.5534(3) 0.7551(2)
H16_5 H 0.635897 0.531206 0.737983
C24_5 C 0.70611(12) 0.7780(3) 0.78060(14)
C25_5 C 0.74254(12) 0.8997(3) 0.80309(13)
C26_5 C 0.69328(11) 0.9101(3) 0.74588(14)
C27_5 C 0.77458(11) 0.9446(3) 0.83346(13)
C28_5 C 0.79504(15) 0.9015(3) 0.86971(17)
H17_5 H 0.789429 0.841795 0.875335
C29_5 C 0.82367(16) 0.9469(3) 0.89747(17)
H18_5 H 0.836762 0.917089 0.922069
C32_5 C 0.66985(12) 0.9630(3) 0.70949(14)
C35_5 C 0.6182(2) 0.9699(4) 0.6489(2)
H23_5 H 0.597153 0.941717 0.631233
C36_5 C 0.6400(2) 0.9204(3) 0.6817(2)
H24_5 H 0.634743 0.859460 0.685181
I2_5 I 0.62606(3) 0.34020(10) 0.69636(5)
I3_5 I 0.73088(4) 0.26174(9) 0.79312(5)
I5_7 I 0.39796(4) 0.73378(8) 0.89774(5)
N14_3 N 0.33353(10) 0.5314(2) 0.89084(12)
N8_6 N 0.23557(10) 0.3121(2) 0.80924(11)
N9_6 N 0.22283(10) 0.4513(2) 0.77117(11)
N10_6 N 0.18317(10) 0.3241(2) 0.74924(12)
N12_7 N 0.12526(13) 0.5557(2) 0.64068(14)
C19_6 C 0.21493(15) 0.0282(3) 0.80331(17)
C20_6 C 0.22307(14) 0.1193(3) 0.80585(17)
H14_6 H 0.245503 0.140283 0.823943
C21_6 C 0.19780(12) 0.1793(3) 0.78145(14)
C22_6 C 0.16475(15) 0.1447(3) 0.75583(19)
H15_6 H 0.146792 0.183032 0.739159
C23_6 C 0.15857(15) 0.0534(3) 0.7551(2)
H16_6 H 0.135897 0.031206 0.737983
C24_6 C 0.20611(12) 0.2780(3) 0.78060(14)
C25_6 C 0.24254(12) 0.3997(3) 0.80309(13)
C26_6 C 0.19328(11) 0.4101(3) 0.74588(14)
C27_6 C 0.27458(11) 0.4446(3) 0.83346(13)
C28_6 C 0.29504(15) 0.4015(3) 0.86971(17)
H17_6 H 0.289429 0.341795 0.875335
C29_6 C 0.32367(16) 0.4469(3) 0.89747(17)
H18_6 H 0.336762 0.417089 0.922069
C30_7 C 0.31422(13) 0.5740(3) 0.85475(16)
H19_7 H 0.321288 0.632729 0.849159
C31_7 C 0.28463(13) 0.5332(3) 0.82628(16)
H20_7 H 0.271363 0.564738 0.802301
C32_6 C 0.16985(12) 0.4630(3) 0.70949(14)
C33_7 C 0.17694(13) 0.5531(3) 0.70248(15)
H21_7 H 0.196736 0.583810 0.720809
C34_7 C 0.15401(14) 0.5967(3) 0.66761(15)
H22_7 H 0.158921 0.657286 0.662831
C35_6 C 0.1182(2) 0.4699(4) 0.6489(2)
H23_6 H 0.097153 0.441717 0.631233
C36_6 C 0.1400(2) 0.4204(3) 0.6817(2)
H24_6 H 0.134743 0.359460 0.685181
I4_7 I 0.11973(3) 0.73908(6) 0.55745(3)
I6_7 I 0.02748(4) 0.64826(8) 0.62603(4)
C1_4 C 0.93780(15) 0.0375(4) 0.47444(18)
H1_4 H 0.927308 0.030693 0.498843
C2_4 C 0.96982(15) 0.0931(4) 0.47660(16)
H2_3 H 0.980482 0.123076 0.502131
C3_4 C 0.98561(12) 0.1034(3) 0.44067(14)
C4_4 C 0.9672(2) 0.0619(6) 0.4033(2)
H3_4 H 0.976175 0.069660 0.377975
C5_4 C 0.9352(2) 0.0084(6) 0.4036(2)
C1_5 C 0.06220(15) 0.0375(4) 0.02556(18)
H1_5 H 0.072692 0.030693 0.001157
C2_5 C 0.03018(15) 0.0931(4) 0.02340(16)
C3_5 C 0.01439(12) 0.1034(3) 0.05933(14)
C4_5 C 0.0328(2) 0.0619(6) 0.0967(2)
H3_5 H 0.023825 0.069660 0.122025
C5_5 C 0.0648(2) 0.0084(6) 0.0964(2)
H2_4 H 0.019518 0.123076 0.997869
I1_5 I 0.14434(2) 0.90412(4) 0.99326(2)
Zn2_6 Zn 0.82954(2) 0.14284(4) 0.22840(2)
N2_6 N 0.97403(10) 0.2277(2) 0.02948(12)
N3_6 N 0.92319(10) 0.2766(2) 0.06266(12)
N4_6 N 0.96062(11) 0.1476(3) 0.08937(13)
N6_6 N 0.86183(12) 0.1617(3) 0.18143(15)
N7_6 N 0.81665(11) 0.0056(2) 0.22229(13)
C6_6 C 0.98097(12) 0.1630(3) 0.05909(14)
C7_6 C 0.94546(12) 0.2843(3) 0.03377(13)
C8_6 C 0.93153(12) 0.2044(3) 0.08932(14)
C9_6 C 0.93851(13) 0.3644(3) 0.00509(14)
C13_6 C 0.90492(17) 0.4133(4) 0.0004(2)
H8_6 H 0.885728 0.396046 0.014854
C14_6 C 0.90702(13) 0.1902(3) 0.12108(15)
C15_6 C 0.87238(18) 0.2308(5) 0.1172(2)
H9_6 H 0.863247 0.268970 0.093943
C16_6 C 0.85055(18) 0.2157(5) 0.1478(2)
H10_6 H 0.826847 0.244745 0.144739
C17_6 C 0.8949(2) 0.1208(6) 0.1842(3)
H11_6 H 0.903114 0.081819 0.207389
C18_6 C 0.9181(2) 0.1314(6) 0.1556(3)
H12_6 H 0.941209 0.099637 0.159043
H13_6 H 0.767829 0.011463 0.179857
I2_6 I 0.87394(3) 0.15980(10) 0.30364(5)
I3_6 I 0.76912(4) 0.23826(9) 0.20688(5)
N5_4 N 0.92602(13) 0.5145(3) 0.95080(13)
C10_6 C 0.96553(14) 0.3910(3) 0.98166(16)
H5_6 H 0.988348 0.358590 0.983776
C11_6 C 0.95838(14) 0.4663(4) 0.95506(16)
H6_6 H 0.976814 0.483692 0.939623
C12_6 C 0.9001(2) 0.4890(5) 0.9739(2)
H7_8 H 0.877930 0.523602 0.971997
Zn5_4 Zn 0.91321(2) 0.62158(4) 0.90777(2)
I1_6 I 0.64434(2) 0.59588(4) 0.49326(2)
Zn1_4 Zn 0.62387(2) 0.59472(4) 0.56492(2)
Zn2_7 Zn 0.32954(2) 0.35716(4) 0.72840(2)
N1_8 N 0.57820(10) 0.5061(3) 0.56153(13)
N2_7 N 0.47403(10) 0.2723(2) 0.52948(12)
N3_7 N 0.42319(10) 0.2234(2) 0.56266(12)
N4_7 N 0.46062(11) 0.3524(3) 0.58937(13)
N6_7 N 0.36183(12) 0.3383(3) 0.68143(15)
N7_7 N 0.31665(11) 0.4944(2) 0.72229(13)
N8_7 N 0.26443(10) 0.8121(2) 0.69076(11)
N9_7 N 0.27717(10) 0.9513(2) 0.72883(11)
N10_7 N 0.31683(10) 0.8241(2) 0.75076(12)
C1_6 C 0.56220(15) 0.4625(4) 0.52556(18)
H1_6 H 0.572692 0.469307 0.501157
C2_6 C 0.53018(15) 0.4069(4) 0.52340(16)
H2_5 H 0.519518 0.376924 0.497869
C3_6 C 0.51439(12) 0.3966(3) 0.55933(14)
C4_6 C 0.5328(2) 0.4381(6) 0.5967(2)
H3_6 H 0.523825 0.430340 0.622025
C5_6 C 0.5648(2) 0.4916(6) 0.5964(2)
H4_8 H 0.577374 0.518357 0.622090
C6_7 C 0.48097(12) 0.3370(3) 0.55909(14)
C7_7 C 0.44546(12) 0.2157(3) 0.53377(13)
C8_7 C 0.43153(12) 0.2956(3) 0.58932(14)
C9_7 C 0.43851(13) 0.1356(3) 0.50509(14)
C10_7 C 0.46553(14) 0.1090(3) 0.48166(16)
H5_7 H 0.488348 0.141410 0.483776
C11_7 C 0.45838(14) 0.0337(4) 0.45506(16)
H6_7 H 0.476814 0.016308 0.439623
C12_7 C 0.4001(2) 0.0110(5) 0.4739(2)
C13_7 C 0.40492(17) 0.0867(4) 0.5004(2)
H8_7 H 0.385728 0.103954 0.514854
C14_7 C 0.40702(13) 0.3098(3) 0.62108(15)
C15_7 C 0.37238(18) 0.2692(5) 0.6172(2)
H9_7 H 0.363247 0.231030 0.593943
C16_7 C 0.35055(18) 0.2843(5) 0.6478(2)
H10_7 H 0.326847 0.255255 0.644739
C17_7 C 0.3949(2) 0.3792(6) 0.6842(3)
H11_7 H 0.403114 0.418181 0.707389
C18_7 C 0.4181(2) 0.3686(6) 0.6556(3)
H12_7 H 0.441209 0.400363 0.659043
C19_7 C 0.28507(15) 0.5282(3) 0.69669(17)
H13_7 H 0.267829 0.488537 0.679857
C20_7 C 0.27693(14) 0.6193(3) 0.69415(17)
H14_7 H 0.254497 0.640283 0.676057
C21_7 C 0.30220(12) 0.6793(3) 0.71855(14)
C22_7 C 0.33525(15) 0.6447(3) 0.74417(19)
H15_7 H 0.353208 0.683032 0.760841
C23_7 C 0.34143(15) 0.5534(3) 0.7449(2)
H16_7 H 0.364103 0.531206 0.762017
C24_7 C 0.29389(12) 0.7780(3) 0.71940(14)
C25_7 C 0.25746(12) 0.8997(3) 0.69691(13)
C26_7 C 0.30672(11) 0.9101(3) 0.75412(14)
C27_7 C 0.22542(11) 0.9446(3) 0.66654(13)
C28_7 C 0.20496(15) 0.9015(3) 0.63029(17)
H17_7 H 0.210571 0.841795 0.624665
C29_7 C 0.17633(16) 0.9469(3) 0.60253(17)
H18_7 H 0.163238 0.917089 0.577931
C32_7 C 0.33015(12) 0.9630(3) 0.79051(14)
C35_7 C 0.3818(2) 0.9699(4) 0.8511(2)
H23_7 H 0.402847 0.941717 0.868767
C36_7 C 0.3600(2) 0.9204(3) 0.8183(2)
H24_7 H 0.365257 0.859460 0.814819
I2_7 I 0.37394(3) 0.34020(10) 0.80364(5)
I3_7 I 0.26912(4) 0.26174(9) 0.70688(5)
I5_8 I 0.60204(4) 0.73378(8) 0.60226(5)
N14_4 N 0.66647(10) 0.5314(2) 0.60916(12)
N8_8 N 0.76443(10) 0.3121(2) 0.69076(11)
N9_8 N 0.77717(10) 0.4513(2) 0.72883(11)
N10_8 N 0.81683(10) 0.3241(2) 0.75076(12)
N12_8 N 0.87474(13) 0.5557(2) 0.85932(14)
C19_8 C 0.78507(15) 0.0282(3) 0.69669(17)
C20_8 C 0.77693(14) 0.1193(3) 0.69415(17)
H14_8 H 0.754497 0.140283 0.676057
C21_8 C 0.80220(12) 0.1793(3) 0.71855(14)
C22_8 C 0.83525(15) 0.1447(3) 0.74417(19)
H15_8 H 0.853208 0.183032 0.760841
C23_8 C 0.84143(15) 0.0534(3) 0.7449(2)
H16_8 H 0.864103 0.031206 0.762017
C24_8 C 0.79389(12) 0.2780(3) 0.71940(14)
C25_8 C 0.75746(12) 0.3997(3) 0.69691(13)
C26_8 C 0.80672(11) 0.4101(3) 0.75412(14)
C27_8 C 0.72542(11) 0.4446(3) 0.66654(13)
C28_8 C 0.70496(15) 0.4015(3) 0.63029(17)
H17_8 H 0.710571 0.341795 0.624665
C29_8 C 0.67633(16) 0.4469(3) 0.60253(17)
H18_8 H 0.663238 0.417089 0.577931
C30_8 C 0.68578(13) 0.5740(3) 0.64525(16)
H19_8 H 0.678712 0.632729 0.650841
C31_8 C 0.71537(13) 0.5332(3) 0.67372(16)
H20_8 H 0.728637 0.564738 0.697699
C32_8 C 0.83015(12) 0.4630(3) 0.79051(14)
C33_8 C 0.82306(13) 0.5531(3) 0.79752(15)
H21_8 H 0.803264 0.583810 0.779191
C34_8 C 0.84599(14) 0.5967(3) 0.83239(15)
H22_8 H 0.841079 0.657286 0.837169
C35_8 C 0.8818(2) 0.4699(4) 0.8511(2)
H23_8 H 0.902847 0.441717 0.868767
C36_8 C 0.8600(2) 0.4204(3) 0.8183(2)
H24_8 H 0.865257 0.359460 0.814819
I4_8 I 0.88027(3) 0.73908(6) 0.94255(3)
I6_8 I 0.97252(4) 0.64826(8) 0.87397(4)
I1_7 I 0.35566(2) 0.59588(4) 0.00674(2)
H2_6 H 0.480482 0.376924 0.002131
C10_8 C 0.53447(14) 0.1090(3) 0.01834(16)
H5_8 H 0.511652 0.141410 0.016224
C11_8 C 0.54162(14) 0.0337(4) 0.04494(16)
H6_8 H 0.523186 0.016308 0.060377
C12_8 C 0.5999(2) 0.0110(5) 0.0261(2)
C1_7 C 0.06220(15) 0.9625(4) 0.52556(18)
H1_7 H 0.072692 0.969307 0.501157
C2_7 C 0.03018(15) 0.9069(4) 0.52340(16)
H2_7 H 0.019518 0.876924 0.497869
C3_7 C 0.01439(12) 0.8966(3) 0.55933(14)
C4_7 C 0.0328(2) 0.9381(6) 0.5967(2)
H3_7 H 0.023825 0.930340 0.622025
C5_7 C 0.0648(2) 0.9916(6) 0.5964(2)
Zn2_8 Zn 0.17046(2) 0.85716(4) 0.77160(2)
N2_8 N 0.02597(10) 0.7723(2) 0.97052(12)
N3_8 N 0.07681(10) 0.7234(2) 0.93734(12)
N4_8 N 0.03938(11) 0.8524(3) 0.91063(13)
N6_8 N 0.13817(12) 0.8383(3) 0.81857(15)
N7_8 N 0.18335(11) 0.9944(2) 0.77771(13)
C6_8 C 0.01903(12) 0.8370(3) 0.94091(14)
C7_8 C 0.05454(12) 0.7157(3) 0.96623(13)
C8_8 C 0.06847(12) 0.7956(3) 0.91068(14)
C9_8 C 0.06149(13) 0.6356(3) 0.99491(14)
C13_8 C 0.09508(17) 0.5867(4) 0.9996(2)
H8_8 H 0.114272 0.603954 0.985146
C14_8 C 0.09298(13) 0.8098(3) 0.87892(15)
C15_8 C 0.12762(18) 0.7692(5) 0.8828(2)
H9_8 H 0.136753 0.731030 0.906057
C16_8 C 0.14945(18) 0.7843(5) 0.8522(2)
H10_8 H 0.173153 0.755255 0.855261
C17_8 C 0.1051(2) 0.8792(6) 0.8158(3)
H11_8 H 0.096886 0.918181 0.792611
C18_8 C 0.0819(2) 0.8686(6) 0.8444(3)
H12_8 H 0.058791 0.900363 0.840957
H13_8 H 0.232171 0.988537 0.820143
I2_8 I 0.12606(3) 0.84020(10) 0.69636(5)
I3_8 I 0.23088(4) 0.76174(9) 0.79312(5)
I1_8 I 0.85566(2) 0.09588(4) 0.00674(2)
H2_8 H 0.980482 0.876924 0.002131
C1_8 C 0.93780(15) 0.9625(4) 0.97444(18)
H1_8 H 0.927308 0.969307 0.998843
C2_8 C 0.96982(15) 0.9069(4) 0.97660(16)
C3_8 C 0.98561(12) 0.8966(3) 0.94067(14)
C4_8 C 0.9672(2) 0.9381(6) 0.9033(2)
H3_8 H 0.976175 0.930340 0.877975
C5_8 C 0.9352(2) 0.9916(6) 0.9036(2)
loop_
_geom_bond_atom_site_label_1
_geom_bond_atom_site_label_2
_geom_bond_site_symmetry_1
_geom_bond_site_symmetry_2
Zn5 N5 1_555 1_555
Zn5 N12 1_555 1_555
N12 C34 1_555 1_555
C30 N11 1_555 1_555
H19 C30 1_555 1_555
H20 C31 1_555 1_555
H21 C33 1_555 1_555
C34 C33 1_555 1_555
H22 C34 1_555 1_555
I4 Zn5 1_555 1_555
I6 Zn5 1_555 1_555
Zn4 N11 1_555 1_555
C30 C31 1_555 1_555
Zn4 N1 1_555 1_555
I5 Zn4 1_555 1_555
I1 Zn1 1_555 1_555
Zn1 N1_2 1_555 1_555
Zn2 N6 1_555 1_555
N1_2 C1 1_555 1_555
N2 C6 1_555 1_555
N3 C7 1_555 1_555
N4 C6 1_555 1_555
N6 C16 1_555 1_555
N7 Zn2 1_555 1_555
N8 C24 1_555 1_555
N9 C25 1_555 1_555
N10 C24 1_555 1_555
C1 H1 1_555 1_555
C2 C1 1_555 1_555
H2 C2 1_555 1_555
C3 C2 1_555 1_555
C4 C3 1_555 1_555
H3 C4 1_555 1_555
C5 N1_2 1_555 1_555
H4_2 C5 1_555 1_555
C6 C3 1_555 1_555
C7 N2 1_555 1_555
C8 N3 1_555 1_555
C9 C7 1_555 1_555
C10 C9 1_555 1_555
H5 C10 1_555 1_555
C11 C10 1_555 1_555
H6 C11 1_555 1_555
C13 C9 1_555 1_555
H8 C13 1_555 1_555
C14 C8 1_555 1_555
C15 C14 1_555 1_555
H9 C15 1_555 1_555
C16 C15 1_555 1_555
H10 C16 1_555 1_555
C17 N6 1_555 1_555
H11 C17 1_555 1_555
C18 C14 1_555 1_555
H12 C18 1_555 1_555
C19 N7 1_555 1_555
H13 C19 1_555 1_555
C20 C19 1_555 1_555
H14 C20 1_555 1_555
C21 C20 1_555 1_555
C22 C21 1_555 1_555
H15 C22 1_555 1_555
C23 N7 1_555 1_555
H16 C23 1_555 1_555
C24 C21 1_555 1_555
C25 N8 1_555 1_555
C26 N9 1_555 1_555
C27 C25 1_555 1_555
C28 C27 1_555 1_555
H17 C28 1_555 1_555
C29 C28 1_555 1_555
H18 C29 1_555 1_555
C32 C26 1_555 1_555
H23 C35 1_555 1_555
C36 C32 1_555 1_555
H24 C36 1_555 1_555
I2 Zn2 1_555 1_555
I3 Zn2 1_555 1_555
I5_2 Zn1 1_555 1_555
N14 Zn1 1_555 1_555
N4 C8 1_555 1_555
N10 C26 1_555 1_555
C4 C5 1_555 1_555
C12 C13 1_555 1_555
C17 C18 1_555 1_555
C22 C23 1_555 1_555
C35 C36 1_555 1_555
Zn3 N12_2 1_555 1_555
N8_2 C24_2 1_555 1_555
N9_2 C25_2 1_555 1_555
N10_2 C24_2 1_555 1_555
N14 C29_2 1_555 1_555
N12_2 C34_2 1_555 1_555
C20_2 C19_2 1_555 1_555
H14_2 C20_2 1_555 1_555
C21_2 C20_2 1_555 1_555
C22_2 C21_2 1_555 1_555
H15_2 C22_2 1_555 1_555
H16_2 C23_2 1_555 1_555
C24_2 C21_2 1_555 1_555
C25_2 N8_2 1_555 1_555
C26_2 N9_2 1_555 1_555
C27_2 C25_2 1_555 1_555
C28_2 C27_2 1_555 1_555
H17_2 C28_2 1_555 1_555
C29_2 C28_2 1_555 1_555
H18_2 C29_2 1_555 1_555
C30_2 N14 1_555 1_555
H19_2 C30_2 1_555 1_555
C31_2 C27_2 1_555 1_555
H20_2 C31_2 1_555 1_555
C32_2 C26_2 1_555 1_555
C33_2 C32_2 1_555 1_555
H21_2 C33_2 1_555 1_555
C34_2 C33_2 1_555 1_555
H22_2 C34_2 1_555 1_555
C35_2 N12_2 1_555 1_555
H23_2 C35_2 1_555 1_555
C36_2 C32_2 1_555 1_555
H24_2 C36_2 1_555 1_555
I4_2 Zn3 1_555 1_555
I6_2 Zn3 1_555 1_555
N13 Zn3 1_555 1_555
N10_2 C26_2 1_555 1_555
C22_2 C23_2 1_555 1_555
C30_2 C31_2 1_555 1_555
C35_2 C36_2 1_555 1_555
N13 C11_2 1_555 1_555
H5_2 C10_2 1_555 1_555
C11_2 C10_2 1_555 1_555
H6_2 C11_2 1_555 1_555
C12_2 N13 1_555 1_555
H7_2 C12_2 1_555 1_555
Zn3_2 N12_3 1_555 1_555
N12_3 C34_3 1_555 1_555
C30_3 N11_2 1_555 1_555
H19_3 C30_3 1_555 1_555
H20_3 C31_3 1_555 1_555
H21_3 C33_3 1_555 1_555
C34_3 C33_3 1_555 1_555
H22_3 C34_3 1_555 1_555
I4_3 Zn3_2 1_555 1_555
I6_3 Zn3_2 1_555 1_555
Zn4_2 N11_2 1_555 1_555
N13_2 Zn3_2 1_555 1_555
C30_3 C31_3 1_555 1_555
I1_2 Zn4_2 1_555 1_555
Zn4_2 N1_3 1_555 1_555
I5_3 Zn4_2 1_555 1_555
Zn5_2 N5_2 1_555 1_555
Zn5_2 N12_4 1_555 1_555
N12_4 C34_4 1_555 1_555
C30_4 N11_3 1_555 1_555
H19_4 C30_4 1_555 1_555
H20_4 C31_4 1_555 1_555
H21_4 C33_4 1_555 1_555
C34_4 C33_4 1_555 1_555
H22_4 C34_4 1_555 1_555
I4_4 Zn5_2 1_555 1_555
I6_4 Zn5_2 1_555 1_555
Zn4_3 N11_3 1_555 1_555
C30_4 C31_4 1_555 1_555
I1_3 Zn4_3 1_555 1_555
Zn4_3 N1_4 1_555 1_555
I5_4 Zn4_3 1_555 1_555
Zn1_2 N1_5 1_555 1_555
Zn2_2 N6_2 1_555 1_555
N1_5 C1_2 1_555 1_555
N2_2 C6_2 1_555 1_555
N3_2 C7_2 1_555 1_555
N4_2 C6_2 1_555 1_555
N6_2 C16_2 1_555 1_555
N7_2 Zn2_2 1_555 1_555
N8_3 C24_3 1_555 1_555
N9_3 C25_3 1_555 1_555
N10_3 C24_3 1_555 1_555
C1_2 H1_2 1_555 1_555
C2_2 C1_2 1_555 1_555
C3_2 C2_2 1_555 1_555
C4_2 C3_2 1_555 1_555
H3_2 C4_2 1_555 1_555
C5_2 N1_5 1_555 1_555
H4_5 C5_2 1_555 1_555
C6_2 C3_2 1_555 1_555
C7_2 N2_2 1_555 1_555
C8_2 N3_2 1_555 1_555
C9_2 C7_2 1_555 1_555
C13_2 C9_2 1_555 1_555
H8_2 C13_2 1_555 1_555
C14_2 C8_2 1_555 1_555
C15_2 C14_2 1_555 1_555
H9_2 C15_2 1_555 1_555
C16_2 C15_2 1_555 1_555
H10_2 C16_2 1_555 1_555
C17_2 N6_2 1_555 1_555
H11_2 C17_2 1_555 1_555
C18_2 C14_2 1_555 1_555
H12_2 C18_2 1_555 1_555
C19_3 N7_2 1_555 1_555
H13_2 C19_3 1_555 1_555
C20_3 C19_3 1_555 1_555
H14_3 C20_3 1_555 1_555
C21_3 C20_3 1_555 1_555
C22_3 C21_3 1_555 1_555
H15_3 C22_3 1_555 1_555
C23_3 N7_2 1_555 1_555
H16_3 C23_3 1_555 1_555
C24_3 C21_3 1_555 1_555
C25_3 N8_3 1_555 1_555
C26_3 N9_3 1_555 1_555
C27_3 C25_3 1_555 1_555
C28_3 C27_3 1_555 1_555
H17_3 C28_3 1_555 1_555
C29_3 C28_3 1_555 1_555
H18_3 C29_3 1_555 1_555
C32_3 C26_3 1_555 1_555
H23_3 C35_3 1_555 1_555
C36_3 C32_3 1_555 1_555
H24_3 C36_3 1_555 1_555
I2_2 Zn2_2 1_555 1_555
I3_2 Zn2_2 1_555 1_555
I5_5 Zn1_2 1_555 1_555
N14_2 Zn1_2 1_555 1_555
N4_2 C8_2 1_555 1_555
N10_3 C26_3 1_555 1_555
C4_2 C5_2 1_555 1_555
C17_2 C18_2 1_555 1_555
C22_3 C23_3 1_555 1_555
C35_3 C36_3 1_555 1_555
Zn3_3 N12_5 1_555 1_555
N8_4 C24_4 1_555 1_555
N9_4 C25_4 1_555 1_555
N10_4 C24_4 1_555 1_555
N14_2 C29_4 1_555 1_555
N12_5 C34_5 1_555 1_555
C20_4 C19_4 1_555 1_555
H14_4 C20_4 1_555 1_555
C21_4 C20_4 1_555 1_555
C22_4 C21_4 1_555 1_555
H15_4 C22_4 1_555 1_555
H16_4 C23_4 1_555 1_555
C24_4 C21_4 1_555 1_555
C25_4 N8_4 1_555 1_555
C26_4 N9_4 1_555 1_555
C27_4 C25_4 1_555 1_555
C28_4 C27_4 1_555 1_555
H17_4 C28_4 1_555 1_555
C29_4 C28_4 1_555 1_555
H18_4 C29_4 1_555 1_555
C30_5 N14_2 1_555 1_555
H19_5 C30_5 1_555 1_555
C31_5 C27_4 1_555 1_555
H20_5 C31_5 1_555 1_555
C32_4 C26_4 1_555 1_555
C33_5 C32_4 1_555 1_555
H21_5 C33_5 1_555 1_555
C34_5 C33_5 1_555 1_555
H22_5 C34_5 1_555 1_555
C35_4 N12_5 1_555 1_555
H23_4 C35_4 1_555 1_555
C36_4 C32_4 1_555 1_555
H24_4 C36_4 1_555 1_555
I4_5 Zn3_3 1_555 1_555
I6_5 Zn3_3 1_555 1_555
N13_3 Zn3_3 1_555 1_555
N10_4 C26_4 1_555 1_555
C22_4 C23_4 1_555 1_555
C30_5 C31_5 1_555 1_555
C35_4 C36_4 1_555 1_555
Zn2_3 N6_3 1_555 1_555
N2_3 C6_3 1_555 1_555
N3_3 C7_3 1_555 1_555
N4_3 C6_3 1_555 1_555
N13_3 C11_3 1_555 1_555
N6_3 C16_3 1_555 1_555
N7_3 Zn2_3 1_555 1_555
C7_3 N2_3 1_555 1_555
C8_3 N3_3 1_555 1_555
C9_3 C7_3 1_555 1_555
C10_3 C9_3 1_555 1_555
H5_3 C10_3 1_555 1_555
C11_3 C10_3 1_555 1_555
H6_3 C11_3 1_555 1_555
C12_3 N13_3 1_555 1_555
H7_5 C12_3 1_555 1_555
C13_3 C9_3 1_555 1_555
H8_3 C13_3 1_555 1_555
C14_3 C8_3 1_555 1_555
C15_3 C14_3 1_555 1_555
H9_3 C15_3 1_555 1_555
C16_3 C15_3 1_555 1_555
H10_3 C16_3 1_555 1_555
C17_3 N6_3 1_555 1_555
H11_3 C17_3 1_555 1_555
C18_3 C14_3 1_555 1_555
H12_3 C18_3 1_555 1_555
I2_3 Zn2_3 1_555 1_555
I3_3 Zn2_3 1_555 1_555
N4_3 C8_3 1_555 1_555
C12_3 C13_3 1_555 1_555
C17_3 C18_3 1_555 1_555
H5_4 C10_4 1_555 1_555
C11_4 C10_4 1_555 1_555
H6_4 C11_4 1_555 1_555
Zn3_4 N12_6 1_555 1_555
N12_6 C34_6 1_555 1_555
C30_6 N11_4 1_555 1_555
H19_6 C30_6 1_555 1_555
H20_6 C31_6 1_555 1_555
H21_6 C33_6 1_555 1_555
C34_6 C33_6 1_555 1_555
H22_6 C34_6 1_555 1_555
I4_6 Zn3_4 1_555 1_555
I6_6 Zn3_4 1_555 1_555
Zn4_4 N11_4 1_555 1_555
N13_4 Zn3_4 1_555 1_555
C30_6 C31_6 1_555 1_555
Zn4_4 N1_6 1_555 1_555
I5_6 Zn4_4 1_555 1_555
Zn2_4 N6_4 1_555 1_555
N2_4 C6_4 1_555 1_555
N3_4 C7_4 1_555 1_555
N4_4 C6_4 1_555 1_555
N5_3 C11_5 1_555 1_555
N6_4 C16_4 1_555 1_555
N7_4 Zn2_4 1_555 1_555
C7_4 N2_4 1_555 1_555
C8_4 N3_4 1_555 1_555
C9_4 C7_4 1_555 1_555
C10_5 C9_4 1_555 1_555
H5_5 C10_5 1_555 1_555
C11_5 C10_5 1_555 1_555
H6_5 C11_5 1_555 1_555
C12_5 N5_3 1_555 1_555
H7_7 C12_5 1_555 1_555
C13_4 C9_4 1_555 1_555
H8_4 C13_4 1_555 1_555
C14_4 C8_4 1_555 1_555
C15_4 C14_4 1_555 1_555
H9_4 C15_4 1_555 1_555
C16_4 C15_4 1_555 1_555
H10_4 C16_4 1_555 1_555
C17_4 N6_4 1_555 1_555
H11_4 C17_4 1_555 1_555
C18_4 C14_4 1_555 1_555
H12_4 C18_4 1_555 1_555
I2_4 Zn2_4 1_555 1_555
I3_4 Zn2_4 1_555 1_555
Zn5_3 N5_3 1_555 1_555
N4_4 C8_4 1_555 1_555
C12_5 C13_4 1_555 1_555
C17_4 C18_4 1_555 1_555
Zn1_3 N1_7 1_555 1_555
Zn2_5 N6_5 1_555 1_555
N1_7 C1_3 1_555 1_555
N2_5 C6_5 1_555 1_555
N3_5 C7_5 1_555 1_555
N4_5 C6_5 1_555 1_555
N6_5 C16_5 1_555 1_555
N7_5 Zn2_5 1_555 1_555
N8_5 C24_5 1_555 1_555
N9_5 C25_5 1_555 1_555
N10_5 C24_5 1_555 1_555
C1_3 H1_3 1_555 1_555
C2_3 C1_3 1_555 1_555
C3_3 C2_3 1_555 1_555
C4_3 C3_3 1_555 1_555
H3_3 C4_3 1_555 1_555
C5_3 N1_7 1_555 1_555
H4_7 C5_3 1_555 1_555
C6_5 C3_3 1_555 1_555
C7_5 N2_5 1_555 1_555
C8_5 N3_5 1_555 1_555
C9_5 C7_5 1_555 1_555
C13_5 C9_5 1_555 1_555
H8_5 C13_5 1_555 1_555
C14_5 C8_5 1_555 1_555
C15_5 C14_5 1_555 1_555
H9_5 C15_5 1_555 1_555
C16_5 C15_5 1_555 1_555
H10_5 C16_5 1_555 1_555
C17_5 N6_5 1_555 1_555
H11_5 C17_5 1_555 1_555
C18_5 C14_5 1_555 1_555
H12_5 C18_5 1_555 1_555
C19_5 N7_5 1_555 1_555
H13_5 C19_5 1_555 1_555
C20_5 C19_5 1_555 1_555
H14_5 C20_5 1_555 1_555
C21_5 C20_5 1_555 1_555
C22_5 C21_5 1_555 1_555
H15_5 C22_5 1_555 1_555
C23_5 N7_5 1_555 1_555
H16_5 C23_5 1_555 1_555
C24_5 C21_5 1_555 1_555
C25_5 N8_5 1_555 1_555
C26_5 N9_5 1_555 1_555
C27_5 C25_5 1_555 1_555
C28_5 C27_5 1_555 1_555
H17_5 C28_5 1_555 1_555
C29_5 C28_5 1_555 1_555
H18_5 C29_5 1_555 1_555
C32_5 C26_5 1_555 1_555
H23_5 C35_5 1_555 1_555
C36_5 C32_5 1_555 1_555
H24_5 C36_5 1_555 1_555
I2_5 Zn2_5 1_555 1_555
I3_5 Zn2_5 1_555 1_555
I5_7 Zn1_3 1_555 1_555
N14_3 Zn1_3 1_555 1_555
N4_5 C8_5 1_555 1_555
N10_5 C26_5 1_555 1_555
C4_3 C5_3 1_555 1_555
C17_5 C18_5 1_555 1_555
C22_5 C23_5 1_555 1_555
C35_5 C36_5 1_555 1_555
Zn5_3 N12_7 1_555 1_555
N8_6 C24_6 1_555 1_555
N9_6 C25_6 1_555 1_555
N10_6 C24_6 1_555 1_555
N14_3 C29_6 1_555 1_555
N12_7 C34_7 1_555 1_555
C20_6 C19_6 1_555 1_555
H14_6 C20_6 1_555 1_555
C21_6 C20_6 1_555 1_555
C22_6 C21_6 1_555 1_555
H15_6 C22_6 1_555 1_555
H16_6 C23_6 1_555 1_555
C24_6 C21_6 1_555 1_555
C25_6 N8_6 1_555 1_555
C26_6 N9_6 1_555 1_555
C27_6 C25_6 1_555 1_555
C28_6 C27_6 1_555 1_555
H17_6 C28_6 1_555 1_555
C29_6 C28_6 1_555 1_555
H18_6 C29_6 1_555 1_555
C30_7 N14_3 1_555 1_555
H19_7 C30_7 1_555 1_555
C31_7 C27_6 1_555 1_555
H20_7 C31_7 1_555 1_555
C32_6 C26_6 1_555 1_555
C33_7 C32_6 1_555 1_555
H21_7 C33_7 1_555 1_555
C34_7 C33_7 1_555 1_555
H22_7 C34_7 1_555 1_555
C35_6 N12_7 1_555 1_555
H23_6 C35_6 1_555 1_555
C36_6 C32_6 1_555 1_555
H24_6 C36_6 1_555 1_555
I4_7 Zn5_3 1_555 1_555
I6_7 Zn5_3 1_555 1_555
N10_6 C26_6 1_555 1_555
C22_6 C23_6 1_555 1_555
C30_7 C31_7 1_555 1_555
C35_6 C36_6 1_555 1_555
C1_4 H1_4 1_555 1_555
C2_4 C1_4 1_555 1_555
H2_3 C2_4 1_555 1_555
C3_4 C2_4 1_555 1_555
C4_4 C3_4 1_555 1_555
H3_4 C4_4 1_555 1_555
C4_4 C5_4 1_555 1_555
C1_5 H1_5 1_555 1_555
C2_5 C1_5 1_555 1_555
C3_5 C2_5 1_555 1_555
C4_5 C3_5 1_555 1_555
H3_5 C4_5 1_555 1_555
C4_5 C5_5 1_555 1_555
Zn2_6 N6_6 1_555 1_555
N2_6 C6_6 1_555 1_555
N3_6 C7_6 1_555 1_555
N4_6 C6_6 1_555 1_555
N6_6 C16_6 1_555 1_555
N7_6 Zn2_6 1_555 1_555
C7_6 N2_6 1_555 1_555
C8_6 N3_6 1_555 1_555
C9_6 C7_6 1_555 1_555
C13_6 C9_6 1_555 1_555
H8_6 C13_6 1_555 1_555
C14_6 C8_6 1_555 1_555
C15_6 C14_6 1_555 1_555
H9_6 C15_6 1_555 1_555
C16_6 C15_6 1_555 1_555
H10_6 C16_6 1_555 1_555
C17_6 N6_6 1_555 1_555
H11_6 C17_6 1_555 1_555
C18_6 C14_6 1_555 1_555
H12_6 C18_6 1_555 1_555
I2_6 Zn2_6 1_555 1_555
I3_6 Zn2_6 1_555 1_555
N4_6 C8_6 1_555 1_555
C17_6 C18_6 1_555 1_555
N5_4 C11_6 1_555 1_555
H5_6 C10_6 1_555 1_555
C11_6 C10_6 1_555 1_555
H6_6 C11_6 1_555 1_555
C12_6 N5_4 1_555 1_555
H7_8 C12_6 1_555 1_555
Zn5_4 N5_4 1_555 1_555
I1_6 Zn1_4 1_555 1_555
Zn1_4 N1_8 1_555 1_555
Zn2_7 N6_7 1_555 1_555
N1_8 C1_6 1_555 1_555
N2_7 C6_7 1_555 1_555
N3_7 C7_7 1_555 1_555
N4_7 C6_7 1_555 1_555
N6_7 C16_7 1_555 1_555
N7_7 Zn2_7 1_555 1_555
N8_7 C24_7 1_555 1_555
N9_7 C25_7 1_555 1_555
N10_7 C24_7 1_555 1_555
C1_6 H1_6 1_555 1_555
C2_6 C1_6 1_555 1_555
H2_5 C2_6 1_555 1_555
C3_6 C2_6 1_555 1_555
C4_6 C3_6 1_555 1_555
H3_6 C4_6 1_555 1_555
C5_6 N1_8 1_555 1_555
H4_8 C5_6 1_555 1_555
C6_7 C3_6 1_555 1_555
C7_7 N2_7 1_555 1_555
C8_7 N3_7 1_555 1_555
C9_7 C7_7 1_555 1_555
C10_7 C9_7 1_555 1_555
H5_7 C10_7 1_555 1_555
C11_7 C10_7 1_555 1_555
H6_7 C11_7 1_555 1_555
C13_7 C9_7 1_555 1_555
H8_7 C13_7 1_555 1_555
C14_7 C8_7 1_555 1_555
C15_7 C14_7 1_555 1_555
H9_7 C15_7 1_555 1_555
C16_7 C15_7 1_555 1_555
H10_7 C16_7 1_555 1_555
C17_7 N6_7 1_555 1_555
H11_7 C17_7 1_555 1_555
C18_7 C14_7 1_555 1_555
H12_7 C18_7 1_555 1_555
C19_7 N7_7 1_555 1_555
H13_7 C19_7 1_555 1_555
C20_7 C19_7 1_555 1_555
H14_7 C20_7 1_555 1_555
C21_7 C20_7 1_555 1_555
C22_7 C21_7 1_555 1_555
H15_7 C22_7 1_555 1_555
C23_7 N7_7 1_555 1_555
H16_7 C23_7 1_555 1_555
C24_7 C21_7 1_555 1_555
C25_7 N8_7 1_555 1_555
C26_7 N9_7 1_555 1_555
C27_7 C25_7 1_555 1_555
C28_7 C27_7 1_555 1_555
H17_7 C28_7 1_555 1_555
C29_7 C28_7 1_555 1_555
H18_7 C29_7 1_555 1_555
C32_7 C26_7 1_555 1_555
H23_7 C35_7 1_555 1_555
C36_7 C32_7 1_555 1_555
H24_7 C36_7 1_555 1_555
I2_7 Zn2_7 1_555 1_555
I3_7 Zn2_7 1_555 1_555
I5_8 Zn1_4 1_555 1_555
N14_4 Zn1_4 1_555 1_555
N4_7 C8_7 1_555 1_555
N10_7 C26_7 1_555 1_555
C4_6 C5_6 1_555 1_555
C12_7 C13_7 1_555 1_555
C17_7 C18_7 1_555 1_555
C22_7 C23_7 1_555 1_555
C35_7 C36_7 1_555 1_555
Zn5_4 N12_8 1_555 1_555
N8_8 C24_8 1_555 1_555
N9_8 C25_8 1_555 1_555
N10_8 C24_8 1_555 1_555
N14_4 C29_8 1_555 1_555
N12_8 C34_8 1_555 1_555
C20_8 C19_8 1_555 1_555
H14_8 C20_8 1_555 1_555
C21_8 C20_8 1_555 1_555
C22_8 C21_8 1_555 1_555
H15_8 C22_8 1_555 1_555
H16_8 C23_8 1_555 1_555
C24_8 C21_8 1_555 1_555
C25_8 N8_8 1_555 1_555
C26_8 N9_8 1_555 1_555
C27_8 C25_8 1_555 1_555
C28_8 C27_8 1_555 1_555
H17_8 C28_8 1_555 1_555
C29_8 C28_8 1_555 1_555
H18_8 C29_8 1_555 1_555
C30_8 N14_4 1_555 1_555
H19_8 C30_8 1_555 1_555
C31_8 C27_8 1_555 1_555
H20_8 C31_8 1_555 1_555
C32_8 C26_8 1_555 1_555
C33_8 C32_8 1_555 1_555
H21_8 C33_8 1_555 1_555
C34_8 C33_8 1_555 1_555
H22_8 C34_8 1_555 1_555
C35_8 N12_8 1_555 1_555
H23_8 C35_8 1_555 1_555
C36_8 C32_8 1_555 1_555
H24_8 C36_8 1_555 1_555
I4_8 Zn5_4 1_555 1_555
I6_8 Zn5_4 1_555 1_555
N10_8 C26_8 1_555 1_555
C22_8 C23_8 1_555 1_555
C30_8 C31_8 1_555 1_555
C35_8 C36_8 1_555 1_555
H5_8 C10_8 1_555 1_555
C11_8 C10_8 1_555 1_555
H6_8 C11_8 1_555 1_555
C1_7 H1_7 1_555 1_555
C2_7 C1_7 1_555 1_555
H2_7 C2_7 1_555 1_555
C3_7 C2_7 1_555 1_555
C4_7 C3_7 1_555 1_555
H3_7 C4_7 1_555 1_555
C4_7 C5_7 1_555 1_555
Zn2_8 N6_8 1_555 1_555
N2_8 C6_8 1_555 1_555
N3_8 C7_8 1_555 1_555
N4_8 C6_8 1_555 1_555
N6_8 C16_8 1_555 1_555
N7_8 Zn2_8 1_555 1_555
C7_8 N2_8 1_555 1_555
C8_8 N3_8 1_555 1_555
C9_8 C7_8 1_555 1_555
C13_8 C9_8 1_555 1_555
H8_8 C13_8 1_555 1_555
C14_8 C8_8 1_555 1_555
C15_8 C14_8 1_555 1_555
H9_8 C15_8 1_555 1_555
C16_8 C15_8 1_555 1_555
H10_8 C16_8 1_555 1_555
C17_8 N6_8 1_555 1_555
H11_8 C17_8 1_555 1_555
C18_8 C14_8 1_555 1_555
H12_8 C18_8 1_555 1_555
I2_8 Zn2_8 1_555 1_555
I3_8 Zn2_8 1_555 1_555
N4_8 C8_8 1_555 1_555
C17_8 C18_8 1_555 1_555
C1_8 H1_8 1_555 1_555
C2_8 C1_8 1_555 1_555
C3_8 C2_8 1_555 1_555
C4_8 C3_8 1_555 1_555
H3_8 C4_8 1_555 1_555
C4_8 C5_8 1_555 1_555

#END
