
###############################################################################
#
# This file contains modified crystal structure data generated from the
# MOF subset of the Cambridge Structural Database (CSD) v543 
# hosted by the Cambridge Crystallographic Data Centre (CCDC).
#
# This work is licensed under the Creative Commons
# Attribution-NonCommercial-ShareAlike 4.0 International License.
# To view a copy of this license, visit
# http://creativecommons.org/licenses/by-nc-sa/4.0/
# or send a letter to
# Creative Commons, PO Box 1866, Mountain View, CA 94042, USA.
#
# CIF created using the CSD Python API on 29 September 2022
# The structure has been converted into the P1 space group
# The structure has a 3D framework
# The original CSD entry MURFIQ is in the rhombohedral crystal system
# The framework has been calculated to contain at least 10.0% void space
# The void calculation uses a probe of radius 1.32A, grid spacing 0.4
#
###############################################################################

data_MURFIQ
_chemical_formula_moiety         '(C360 H216 Mn11 N72)n'
_symmetry_cell_setting           triclinic
_symmetry_space_group_name_H-M   'P 1'
_symmetry_Int_Tables_number      1
_space_group_name_Hall           'P 1'
loop_
_symmetry_equiv_pos_site_id
_symmetry_equiv_pos_as_xyz
1 x,y,z
_cell_length_a                   33.320(3)
_cell_length_b                   33.320(3)
_cell_length_c                   9.2856(18)
_cell_angle_alpha                90
_cell_angle_beta                 90
_cell_angle_gamma                120
_cell_volume                     8927.93
loop_
_atom_site_label
_atom_site_type_symbol
_atom_site_fract_x
_atom_site_fract_y
_atom_site_fract_z
C31 C 0.54238(11) 0.08747(12) 0.0683(3)
H16 H 0.5329 0.0565 0.0854
C34 C 0.56918(17) 0.17747(14) 0.0313(5)
H19 H 0.5781 0.2085 0.0179
C35 C 0.55558(13) 0.11784(15) 0.1798(4)
H20 H 0.5555 0.1068 0.2719
N8 N 0.56875(13) 0.16275(14) 0.1648(4)
Mn1 Mn 0.5000 0.0000 0.5000
C7 C 0.58041(9) 0.02628(10) 0.2874(3)
C12 C 0.59282(11) 0.00934(12) 0.1629(4)
H5 H 0.6224 0.0216 0.1243
C21 C 0.53041(9) 0.07113(10) 0.8030(3)
C22 C 0.56561(9) 0.08161(10) 0.7007(3)
C23 C 0.60225(8) 0.07752(9) 0.5084(3)
C24 C 0.61119(9) 0.06233(10) 0.3774(3)
C25 C 0.61409(10) 0.11624(11) 0.7164(4)
H13 H 0.6274 0.1364 0.7937
C26 C 0.48394(9) 0.03400(10) 0.7951(3)
C28 C 0.54306(10) 0.10276(11) 0.9294(3)
C29 C 0.63645(10) 0.11391(11) 0.5985(3)
H14 H 0.6679 0.1323 0.5789
C30 C 0.44654(11) 0.02799(12) 0.8887(4)
H15 H 0.4489 0.0460 0.9683
C33 C 0.55709(13) 0.14930(12) 0.9124(4)
H18 H 0.5583 0.1613 0.8211
C36 C 0.66181(9) 0.08693(10) 0.3341(3)
C37 C 0.69274(10) 0.07615(12) 0.3971(4)
H21 H 0.6827 0.0529 0.4663
C38 C 0.67864(10) 0.12130(12) 0.2307(4)
H22 H 0.6591 0.1295 0.1839
C39 C 0.73862(10) 0.10008(12) 0.3568(4)
H23 H 0.7590 0.0925 0.4010
C40 C 0.72537(11) 0.14321(13) 0.1989(4)
H24 H 0.7366 0.1667 0.1302
N5 N 0.55971(7) 0.05923(8) 0.5734(2)
N6 N 0.46659(7) 0.00035(8) 0.6919(2)
N7 N 0.75521(8) 0.13330(9) 0.2586(3)
Mn3 Mn 0.8333 0.1667 0.1667
N9 N 0.46663(9) 0.04476(12) 0.4081(3)
Mn1_2 Mn 0.5000 1.0000 0.5000
C1 C 0.46959(9) 0.92887(10) 0.1970(3)
C2 C 0.43439(9) 0.91839(10) 0.2993(3)
C3 C 0.39775(8) 0.92248(9) 0.4916(3)
C4 C 0.38881(9) 0.93767(10) 0.6226(3)
C5 C 0.38591(10) 0.88376(11) 0.2836(4)
H1 H 0.3726 0.8636 0.2063
C6 C 0.51606(9) 0.96600(10) 0.2049(3)
C8 C 0.45694(10) 0.89724(11) 0.0706(3)
C9 C 0.36355(10) 0.88609(11) 0.4015(3)
H2 H 0.3321 0.8677 0.4211
C10 C 0.55346(11) 0.97201(12) 0.1113(4)
H3 H 0.5511 0.9540 0.0317
C13 C 0.44291(13) 0.85070(12) 0.0876(4)
H6 H 0.4417 0.8387 0.1789
C16 C 0.33819(9) 0.91307(10) 0.6659(3)
C17 C 0.30726(10) 0.92385(12) 0.6029(4)
H9 H 0.3173 0.9471 0.5337
C18 C 0.32136(10) 0.87870(12) 0.7693(4)
H10 H 0.3409 0.8705 0.8161
C19 C 0.26138(10) 0.89992(12) 0.6432(4)
H11 H 0.2410 0.9075 0.5990
C20 C 0.27463(11) 0.85679(13) 0.8011(4)
H12 H 0.2634 0.8333 0.8698
N1 N 0.44029(7) 0.94077(8) 0.4266(2)
N2 N 0.53341(7) 0.99965(8) 0.3081(2)
N3 N 0.24479(8) 0.86670(9) 0.7414(3)
C27 C 0.41959(9) 0.97372(10) 0.7126(3)
C32 C 0.40718(11) 0.99066(12) 0.8371(4)
H17 H 0.3776 0.9784 0.8757
Mn2 Mn 0.1667 0.8333 0.8333
N10 N 0.53337(9) 0.95524(12) 0.5919(3)
Mn1_3 Mn -0.0000 0.5000 0.5000
C1_2 C 0.07113(10) 0.54072(13) 0.1970(3)
C2_2 C 0.08161(10) 0.51600(13) 0.2993(3)
C3_2 C 0.07752(9) 0.47527(12) 0.4916(3)
C4_2 C 0.06233(10) 0.45114(13) 0.6226(3)
C5_2 C 0.11624(11) 0.50215(15) 0.2836(4)
H1_2 H 0.1364 0.5090 0.2063
C6_2 C 0.03400(10) 0.55006(13) 0.2049(3)
C8_2 C 0.10276(11) 0.55970(15) 0.0706(3)
C9_2 C 0.11391(11) 0.47746(15) 0.4015(3)
H2_2 H 0.1323 0.4644 0.4211
C10_2 C 0.02799(12) 0.58145(16) 0.1113(4)
H3_2 H 0.0460 0.5971 0.0317
C13_2 C 0.14930(12) 0.59221(18) 0.0876(4)
H6_2 H 0.1613 0.6030 0.1789
C16_2 C 0.08693(10) 0.42512(13) 0.6659(3)
C17_2 C 0.07615(12) 0.38341(16) 0.6029(4)
H9_2 H 0.0529 0.3702 0.5337
C18_2 C 0.12130(12) 0.44266(16) 0.7693(4)
H10_2 H 0.1295 0.4704 0.8161
C19_2 C 0.10008(12) 0.36146(16) 0.6432(4)
H11_2 H 0.0925 0.3335 0.5990
C20_2 C 0.14321(13) 0.41784(17) 0.8011(4)
H12_2 H 0.1667 0.4301 0.8698
N1_2 N 0.05923(8) 0.49952(11) 0.4266(2)
N2_2 N 0.00035(8) 0.53376(11) 0.3081(2)
N3_2 N 0.13330(9) 0.37809(12) 0.7414(3)
C27_2 C 0.02628(10) 0.44587(13) 0.7126(3)
C32_2 C 0.00934(12) 0.41652(16) 0.8371(4)
H17_2 H 0.0216 0.3992 0.8757
Mn2_2 Mn 0.1667 0.3333 0.8333
N10_2 N 0.04476(12) 0.57812(15) 0.5919(3)
Mn1_4 Mn 1.0000 0.5000 0.5000
C7_2 C 0.97372(10) 0.55413(13) 0.2874(3)
C12_2 C 0.99066(12) 0.58348(16) 0.1629(4)
H5_2 H 0.9784 0.6008 0.1243
C21_2 C 0.92887(10) 0.45928(13) 0.8030(3)
C22_2 C 0.91839(10) 0.48400(13) 0.7007(3)
C23_2 C 0.92248(9) 0.52473(12) 0.5084(3)
C24_2 C 0.93767(10) 0.54886(13) 0.3774(3)
C25_2 C 0.88376(11) 0.49785(15) 0.7164(4)
H13_2 H 0.8636 0.4910 0.7937
C26_2 C 0.96600(10) 0.44994(13) 0.7951(3)
C28_2 C 0.89724(11) 0.44030(15) 0.9294(3)
C29_2 C 0.88609(11) 0.52254(15) 0.5985(3)
H14_2 H 0.8677 0.5356 0.5789
C30_2 C 0.97201(12) 0.41855(16) 0.8887(4)
H15_2 H 0.9540 0.4029 0.9683
C33_2 C 0.85070(12) 0.40779(18) 0.9124(4)
H18_2 H 0.8387 0.3970 0.8211
C36_2 C 0.91307(10) 0.57488(13) 0.3341(3)
C37_2 C 0.92385(12) 0.61659(16) 0.3971(4)
H21_2 H 0.9471 0.6298 0.4663
C38_2 C 0.87870(12) 0.55734(16) 0.2307(4)
H22_2 H 0.8705 0.5296 0.1839
C39_2 C 0.89992(12) 0.63854(16) 0.3568(4)
H23_2 H 0.9075 0.6665 0.4010
C40_2 C 0.85679(13) 0.58216(17) 0.1989(4)
H24_2 H 0.8333 0.5699 0.1302
N5_2 N 0.94077(8) 0.50048(11) 0.5734(2)
N6_2 N 0.99965(8) 0.46624(11) 0.6919(2)
N7_2 N 0.86670(9) 0.62191(12) 0.2586(3)
Mn3_2 Mn 0.8333 0.6667 0.1667
N9_2 N 0.95524(12) 0.42188(15) 0.4081(3)
Mn1_5 Mn 0.5000 0.5000 0.5000
C1_3 C 0.45928(13) 0.53041(9) 0.1970(3)
C2_3 C 0.48400(13) 0.56561(9) 0.2993(3)
C3_3 C 0.52473(12) 0.60225(8) 0.4916(3)
C4_3 C 0.54886(13) 0.61119(9) 0.6226(3)
C5_3 C 0.49785(15) 0.61409(10) 0.2836(4)
H1_3 H 0.4910 0.6274 0.2063
C6_3 C 0.44994(13) 0.48394(9) 0.2049(3)
C7_3 C 0.44587(13) 0.41959(9) 0.2874(3)
C8_3 C 0.44030(15) 0.54306(10) 0.0706(3)
C9_3 C 0.52254(15) 0.63645(10) 0.4015(3)
H2_3 H 0.5356 0.6679 0.4211
C10_3 C 0.41855(16) 0.44654(11) 0.1113(4)
H3_3 H 0.4029 0.4489 0.0317
C12_3 C 0.41652(16) 0.40718(11) 0.1629(4)
H5_3 H 0.3992 0.3776 0.1243
C13_3 C 0.40779(18) 0.55709(13) 0.0876(4)
H6_3 H 0.3970 0.5583 0.1789
C16_3 C 0.57488(13) 0.66181(9) 0.6659(3)
C17_3 C 0.61659(16) 0.69274(10) 0.6029(4)
H9_3 H 0.6298 0.6827 0.5337
C18_3 C 0.55734(16) 0.67864(10) 0.7693(4)
H10_3 H 0.5296 0.6591 0.8161
C19_3 C 0.63854(16) 0.73862(10) 0.6432(4)
H11_3 H 0.6665 0.7590 0.5990
C20_3 C 0.58216(17) 0.72537(11) 0.8011(4)
H12_3 H 0.5699 0.7366 0.8698
N1_3 N 0.50048(11) 0.55971(7) 0.4266(2)
N2_3 N 0.46624(11) 0.46659(7) 0.3081(2)
N3_3 N 0.62191(12) 0.75521(8) 0.7414(3)
C21_3 C 0.54072(13) 0.46959(9) 0.8030(3)
C22_3 C 0.51600(13) 0.43439(9) 0.7007(3)
C23_3 C 0.47527(12) 0.39775(8) 0.5084(3)
C24_3 C 0.45114(13) 0.38881(9) 0.3774(3)
C25_3 C 0.50215(15) 0.38591(10) 0.7164(4)
H13_3 H 0.5090 0.3726 0.7937
C26_3 C 0.55006(13) 0.51606(9) 0.7951(3)
C27_3 C 0.55413(13) 0.58041(9) 0.7126(3)
C28_3 C 0.55970(15) 0.45694(10) 0.9294(3)
C29_3 C 0.47746(15) 0.36355(10) 0.5985(3)
H14_3 H 0.4644 0.3321 0.5789
C30_3 C 0.58145(16) 0.55346(11) 0.8887(4)
H15_3 H 0.5971 0.5511 0.9683
C32_3 C 0.58348(16) 0.59282(11) 0.8371(4)
H17_3 H 0.6008 0.6224 0.8757
C33_3 C 0.59221(18) 0.44291(13) 0.9124(4)
H18_3 H 0.6030 0.4417 0.8211
C36_3 C 0.42512(13) 0.33819(9) 0.3341(3)
C37_3 C 0.38341(16) 0.30726(10) 0.3971(4)
H21_3 H 0.3702 0.3173 0.4663
C38_3 C 0.44266(16) 0.32136(10) 0.2307(4)
H22_3 H 0.4704 0.3409 0.1839
C39_3 C 0.36146(16) 0.26138(10) 0.3568(4)
H23_3 H 0.3335 0.2410 0.4010
C40_3 C 0.41784(17) 0.27463(11) 0.1989(4)
H24_3 H 0.4301 0.2634 0.1302
N5_3 N 0.49952(11) 0.44029(7) 0.5734(2)
N6_3 N 0.53376(11) 0.53341(7) 0.6919(2)
N7_3 N 0.37809(12) 0.24479(8) 0.2586(3)
Mn2_3 Mn 0.6667 0.8333 0.8333
Mn3_3 Mn 0.3333 0.1667 0.1667
N9_3 N 0.57812(15) 0.53337(9) 0.4081(3)
N10_3 N 0.42188(15) 0.46663(9) 0.5919(3)
C1_4 C 0.13626(9) 0.26220(10) 0.5303(3)
C2_4 C 0.10106(9) 0.25172(10) 0.6326(3)
C3_4 C 0.06442(8) 0.25581(9) 0.8249(3)
C4_4 C 0.05548(9) 0.27100(10) 0.9559(3)
C5_4 C 0.05258(10) 0.21709(11) 0.6169(4)
H1_4 H 0.0393 0.1969 0.5396
C6_4 C 0.18273(9) 0.29933(10) 0.5382(3)
C7_4 C 0.24708(9) 0.35961(10) 0.6207(3)
C8_4 C 0.12361(10) 0.23057(11) 0.4039(3)
C9_4 C 0.03022(10) 0.21942(11) 0.7348(3)
C10_4 C 0.22013(11) 0.30534(12) 0.4446(4)
H3_4 H 0.2178 0.2873 0.3650
C11 C 0.12429(11) 0.24586(12) 0.2650(3)
H4 H 0.1338 0.2768 0.2479
C12_4 C 0.25949(11) 0.34267(12) 0.4962(4)
H5_4 H 0.2891 0.3549 0.4576
C13_4 C 0.10958(13) 0.18403(12) 0.4209(4)
H6_4 H 0.1084 0.1720 0.5122
C14 C 0.09749(17) 0.15586(14) 0.3020(5)
H7 H 0.0886 0.1248 0.3154
C15 C 0.11109(13) 0.21549(15) 0.1535(4)
H8 H 0.1112 0.2265 0.0614
C16_4 C 0.00486(9) 0.24640(10) 0.9992(3)
N1_4 N 0.10696(7) 0.27410(8) 0.7599(2)
N2_4 N 0.20008(7) 0.33298(8) 0.6414(2)
N4 N 0.09792(13) 0.17058(14) 0.1685(4)
C23_4 C 0.26892(8) 0.41085(9) 0.8417(3)
C24_4 C 0.27786(9) 0.39566(10) 0.7107(3)
C29_4 C 0.30312(10) 0.44724(11) 0.9318(3)
H14_4 H 0.3346 0.4656 0.9122
C36_4 C 0.32848(9) 0.42026(10) 0.6674(3)
C37_4 C 0.35941(10) 0.40948(12) 0.7304(4)
H21_4 H 0.3494 0.3862 0.7996
C38_4 C 0.34531(10) 0.45463(12) 0.5640(4)
H22_4 H 0.3258 0.4628 0.5172
C39_4 C 0.40529(10) 0.43341(12) 0.6901(4)
H23_4 H 0.4257 0.4258 0.7343
C40_4 C 0.39204(11) 0.47654(13) 0.5322(4)
H24_4 H 0.4033 0.5000 0.4635
N5_4 N 0.22638(7) 0.39256(8) 0.9067(2)
N10_4 N 0.20003(9) 0.28858(12) 0.9253(3)
C18_4 C 0.98803(10) 0.21203(12) 0.1026(4)
C20_4 C 0.94130(11) 0.19012(13) 0.1344(4)
H12_4 H 0.9301 0.1666 0.2031
N3_4 N 0.91146(8) 0.20003(9) 0.0747(3)
C18_5 C 0.78797(12) 0.77599(16) 0.1026(4)
H10_4 H 0.7962 0.8037 0.1494
C20_5 C 0.80988(13) 0.75117(17) 0.1344(4)
H12_5 H 0.8334 0.7634 0.2031
N3_5 N 0.79997(9) 0.71142(12) 0.0747(3)
C21_4 C 0.59554(10) 0.79261(13) 0.1363(3)
C22_4 C 0.58506(10) 0.81733(13) 0.0340(3)
C25_4 C 0.55043(11) 0.83118(15) 0.0497(4)
H13_4 H 0.5303 0.8243 0.1270
C26_4 C 0.63267(10) 0.78327(13) 0.1284(3)
C27_4 C 0.69295(10) 0.77920(13) 0.0459(3)
C28_4 C 0.56391(11) 0.77363(15) 0.2627(3)
C30_4 C 0.63868(12) 0.75188(16) 0.2220(4)
H15_4 H 0.6207 0.7362 0.3016
C31_2 C 0.57920(12) 0.78824(16) 0.4016(3)
H16_2 H 0.6102 0.8097 0.4187
C32_4 C 0.67601(12) 0.74985(16) 0.1704(4)
H17_4 H 0.6883 0.7325 0.2090
C33_4 C 0.51737(12) 0.74112(18) 0.2457(4)
H18_4 H 0.5054 0.7303 0.1544
C34_2 C 0.48920(14) 0.72504(22) 0.3646(5)
H19_2 H 0.4582 0.7029 0.3512
C35_2 C 0.54883(15) 0.77107(20) 0.5131(4)
H20_2 H 0.5599 0.7820 0.6052
N6_4 N 0.66632(8) 0.79957(11) 0.0252(2)
N8_2 N 0.50392(14) 0.73933(19) 0.4981(4)
C1_5 C 0.73780(10) 0.87405(13) 0.5303(3)
C2_5 C 0.74828(10) 0.84933(13) 0.6326(3)
C3_5 C 0.74419(9) 0.80860(12) 0.8249(3)
C4_5 C 0.72900(10) 0.78447(13) 0.9559(3)
C5_5 C 0.78291(11) 0.83548(15) 0.6169(4)
H1_5 H 0.8031 0.8423 0.5396
C6_5 C 0.70067(10) 0.88339(13) 0.5382(3)
C7_5 C 0.64039(10) 0.88746(13) 0.6207(3)
C8_5 C 0.76943(11) 0.89303(15) 0.4039(3)
C9_5 C 0.78058(11) 0.81079(15) 0.7348(3)
H2_4 H 0.7990 0.7977 0.7544
C10_5 C 0.69466(12) 0.91478(16) 0.4446(4)
H3_5 H 0.7127 0.9304 0.3650
C11_2 C 0.75414(12) 0.87842(16) 0.2650(3)
H4_2 H 0.7232 0.8569 0.2479
C12_5 C 0.65733(12) 0.91681(16) 0.4962(4)
H5_5 H 0.6451 0.9341 0.4576
C13_5 C 0.81597(12) 0.92554(18) 0.4209(4)
H6_5 H 0.8280 0.9363 0.5122
C14_2 C 0.84414(14) 0.94162(22) 0.3020(5)
H7_2 H 0.8752 0.9637 0.3154
C15_2 C 0.78451(15) 0.89559(20) 0.1535(4)
H8_2 H 0.7735 0.8846 0.0614
C16_5 C 0.75360(10) 0.75845(13) 0.9992(3)
C17_4 C 0.74282(12) 0.71674(16) 0.9362(4)
H9_4 H 0.7196 0.7035 0.8670
C19_4 C 0.76675(12) 0.69479(16) 0.9765(4)
H11_4 H 0.7592 0.6668 0.9323
N1_5 N 0.72590(8) 0.83285(11) 0.7599(2)
N2_5 N 0.66702(8) 0.86709(11) 0.6414(2)
N4_2 N 0.82942(14) 0.92733(19) 0.1685(4)
C23_5 C 0.58915(9) 0.85806(12) 0.8417(3)
C24_5 C 0.60434(10) 0.88219(13) 0.7107(3)
C29_5 C 0.55276(11) 0.85587(15) 0.9318(3)
H14_5 H 0.5344 0.8689 0.9122
C36_5 C 0.57974(10) 0.90821(13) 0.6674(3)
C37_5 C 0.59052(12) 0.94992(16) 0.7304(4)
H21_5 H 0.6138 0.9631 0.7996
C38_5 C 0.54537(12) 0.89067(16) 0.5640(4)
H22_5 H 0.5372 0.8629 0.5172
C39_5 C 0.56659(12) 0.97187(16) 0.6901(4)
H23_5 H 0.5742 0.9998 0.7343
C40_5 C 0.52346(13) 0.91549(17) 0.5322(4)
H24_5 H 0.5000 0.9032 0.4635
N5_5 N 0.60744(8) 0.83381(11) 0.9067(2)
N10_5 N 0.71142(12) 0.91146(15) 0.9253(3)
C18_6 C 0.22401(16) 0.01197(10) 0.1026(4)
C20_6 C 0.24883(17) 0.05870(11) 0.1344(4)
H12_6 H 0.2366 0.0699 0.2031
N3_6 N 0.28858(12) 0.08854(8) 0.0747(3)
C1_6 C 0.12595(13) 0.86374(9) 0.5303(3)
C2_6 C 0.15067(13) 0.89894(9) 0.6326(3)
C3_6 C 0.19140(12) 0.93558(8) 0.8249(3)
C4_6 C 0.21553(13) 0.94452(9) 0.9559(3)
C5_6 C 0.16452(15) 0.94742(10) 0.6169(4)
H1_6 H 0.1577 0.9607 0.5396
C6_6 C 0.11661(13) 0.81727(9) 0.5382(3)
C7_6 C 0.11254(13) 0.75292(9) 0.6207(3)
C8_6 C 0.10697(15) 0.87639(10) 0.4039(3)
C9_6 C 0.18921(15) 0.96978(10) 0.7348(3)
C10_6 C 0.08522(16) 0.77987(11) 0.4446(4)
H3_6 H 0.0696 0.7822 0.3650
C11_3 C 0.12158(16) 0.87571(11) 0.2650(3)
H4_3 H 0.1431 0.8662 0.2479
C12_6 C 0.08319(16) 0.74051(11) 0.4962(4)
H5_6 H 0.0659 0.7109 0.4576
C13_6 C 0.07446(18) 0.89042(13) 0.4209(4)
H6_6 H 0.0637 0.8916 0.5122
C14_3 C 0.05838(22) 0.90251(17) 0.3020(5)
H7_3 H 0.0363 0.9114 0.3154
C15_3 C 0.10441(20) 0.88891(13) 0.1535(4)
H8_3 H 0.1154 0.8888 0.0614
C16_6 C 0.24155(13) 0.99514(9) 0.9992(3)
N1_6 N 0.16715(11) 0.89304(7) 0.7599(2)
N2_6 N 0.13291(11) 0.79992(7) 0.6414(2)
N4_3 N 0.07267(19) 0.90208(13) 0.1685(4)
C23_6 C 0.14194(12) 0.73108(8) 0.8417(3)
C24_6 C 0.11781(13) 0.72214(9) 0.7107(3)
C29_6 C 0.14413(15) 0.69688(10) 0.9318(3)
H14_6 H 0.1311 0.6654 0.9122
C36_6 C 0.09179(13) 0.67152(9) 0.6674(3)
C37_6 C 0.05008(16) 0.64059(10) 0.7304(4)
H21_6 H 0.0369 0.6506 0.7996
C38_6 C 0.10933(16) 0.65469(10) 0.5640(4)
H22_6 H 0.1371 0.6742 0.5172
C39_6 C 0.02813(16) 0.59471(10) 0.6901(4)
H23_6 H 0.0002 0.5743 0.7343
C40_6 C 0.08451(17) 0.60796(11) 0.5322(4)
H24_6 H 0.0968 0.5967 0.4635
N5_6 N 0.16619(11) 0.77362(7) 0.9067(2)
N10_6 N 0.08854(15) 0.79997(9) 0.9253(3)
C38_7 C 0.01197(10) 0.78797(12) 0.8974(4)
C40_7 C 0.05870(11) 0.80988(13) 0.8656(4)
H24_7 H 0.0699 0.8334 0.7969
C3_7 C 0.73108(8) 0.58915(9) 0.1583(3)
C4_7 C 0.72214(9) 0.60434(10) 0.2893(3)
C9_7 C 0.69688(10) 0.55276(11) 0.0682(3)
H2_5 H 0.6654 0.5344 0.0878
C16_7 C 0.67152(9) 0.57974(10) 0.3326(3)
C17_5 C 0.64059(10) 0.59052(12) 0.2696(4)
H9_5 H 0.6506 0.6138 0.2004
C18_7 C 0.65469(10) 0.54537(12) 0.4360(4)
H10_5 H 0.6742 0.5372 0.4828
C19_5 C 0.59471(10) 0.56659(12) 0.3099(4)
H11_5 H 0.5743 0.5742 0.2657
C20_7 C 0.60796(11) 0.52346(13) 0.4678(4)
H12_7 H 0.5967 0.5000 0.5365
N1_7 N 0.77362(7) 0.60744(8) 0.0933(2)
C21_5 C 0.86374(9) 0.73780(10) 0.4697(3)
C22_5 C 0.89894(9) 0.74828(10) 0.3674(3)
C23_7 C 0.93558(8) 0.74419(9) 0.1751(3)
C24_7 C 0.94452(9) 0.72900(10) 0.0441(3)
C25_5 C 0.94742(10) 0.78291(11) 0.3831(4)
H13_5 H 0.9607 0.8031 0.4604
C26_5 C 0.81727(9) 0.70067(10) 0.4618(3)
C27_5 C 0.75292(9) 0.64039(10) 0.3793(3)
C28_5 C 0.87639(10) 0.76943(11) 0.5961(3)
C29_7 C 0.96978(10) 0.78058(11) 0.2652(3)
C30_5 C 0.77987(11) 0.69466(12) 0.5554(4)
H15_5 H 0.7822 0.7127 0.6350
C31_3 C 0.87571(11) 0.75414(12) 0.7350(3)
H16_3 H 0.8662 0.7232 0.7521
C32_5 C 0.74051(11) 0.65733(12) 0.5038(4)
H17_5 H 0.7109 0.6451 0.5424
C33_5 C 0.89042(13) 0.81597(12) 0.5791(4)
H18_5 H 0.8916 0.8280 0.4878
C34_3 C 0.90251(17) 0.84414(14) 0.6980(5)
H19_3 H 0.9114 0.8752 0.6846
C35_3 C 0.88891(13) 0.78451(15) 0.8465(4)
H20_3 H 0.8888 0.7735 0.9386
C36_7 C 0.99514(9) 0.75360(10) 0.0008(3)
N5_7 N 0.89304(7) 0.72590(8) 0.2401(2)
N6_5 N 0.79992(7) 0.66702(8) 0.3586(2)
N8_3 N 0.90208(13) 0.82942(14) 0.8315(4)
C3_8 C 0.41085(9) 0.14194(12) 0.1583(3)
C4_8 C 0.39566(10) 0.11781(13) 0.2893(3)
C9_8 C 0.44724(11) 0.14413(15) 0.0682(3)
H2_6 H 0.4656 0.1311 0.0878
C16_8 C 0.42026(10) 0.09179(13) 0.3326(3)
C17_6 C 0.40948(12) 0.05008(16) 0.2696(4)
H9_6 H 0.3862 0.0369 0.2004
C18_8 C 0.45463(12) 0.10933(16) 0.4360(4)
H10_6 H 0.4628 0.1371 0.4828
C19_6 C 0.43341(12) 0.02813(16) 0.3099(4)
H11_6 H 0.4258 0.0002 0.2657
C20_8 C 0.47654(13) 0.08451(17) 0.4678(4)
H12_8 H 0.5000 0.0968 0.5365
N1_8 N 0.39256(8) 0.16619(11) 0.0933(2)
C21_6 C 0.26220(10) 0.12595(13) 0.4697(3)
C22_6 C 0.25172(10) 0.15067(13) 0.3674(3)
C23_8 C 0.25581(9) 0.19140(12) 0.1751(3)
C24_8 C 0.27100(10) 0.21553(13) 0.0441(3)
C25_6 C 0.21709(11) 0.16452(15) 0.3831(4)
H13_6 H 0.1969 0.1577 0.4604
C26_6 C 0.29933(10) 0.11661(13) 0.4618(3)
C27_6 C 0.35961(10) 0.11254(13) 0.3793(3)
C28_6 C 0.23057(11) 0.10697(15) 0.5961(3)
C29_8 C 0.21942(11) 0.18921(15) 0.2652(3)
H14_7 H 0.2010 0.2023 0.2456
C30_6 C 0.30534(12) 0.08522(16) 0.5554(4)
H15_6 H 0.2873 0.0696 0.6350
C31_4 C 0.24586(12) 0.12158(16) 0.7350(3)
H16_4 H 0.2768 0.1431 0.7521
C32_6 C 0.34267(12) 0.08319(16) 0.5038(4)
H17_6 H 0.3549 0.0659 0.5424
C33_6 C 0.18403(12) 0.07446(18) 0.5791(4)
H18_6 H 0.1720 0.0637 0.4878
C34_4 C 0.15586(14) 0.05838(22) 0.6980(5)
H19_4 H 0.1248 0.0363 0.6846
C35_4 C 0.21549(15) 0.10441(20) 0.8465(4)
H20_4 H 0.2265 0.1154 0.9386
C36_8 C 0.24640(10) 0.24155(13) 0.0008(3)
C37_7 C 0.25718(12) 0.28326(16) 0.0638(4)
H21_7 H 0.2804 0.2965 0.1330
C39_7 C 0.23325(12) 0.30521(16) 0.0235(4)
H23_7 H 0.2408 0.3332 0.0677
N5_8 N 0.27410(8) 0.16715(11) 0.2401(2)
N6_6 N 0.33298(8) 0.13291(11) 0.3586(2)
N8_4 N 0.17058(14) 0.07267(19) 0.8315(4)
C1_7 C 0.40446(10) 0.20739(13) 0.8637(3)
C2_7 C 0.41494(10) 0.18267(13) 0.9660(3)
C5_7 C 0.44957(11) 0.16882(15) 0.9503(4)
H1_7 H 0.4697 0.1757 0.8730
C6_7 C 0.36733(10) 0.21673(13) 0.8716(3)
C7_7 C 0.30705(10) 0.22080(13) 0.9541(3)
C8_7 C 0.43609(11) 0.22637(15) 0.7373(3)
C10_7 C 0.36132(12) 0.24812(16) 0.7780(4)
H3_7 H 0.3793 0.2638 0.6984
C11_4 C 0.42080(12) 0.21176(16) 0.5984(3)
H4_4 H 0.3898 0.1903 0.5813
C12_7 C 0.32399(12) 0.25015(16) 0.8296(4)
H5_7 H 0.3117 0.2675 0.7910
C13_7 C 0.48263(12) 0.25888(18) 0.7543(4)
H6_7 H 0.4946 0.2697 0.8456
C14_4 C 0.51080(14) 0.27496(22) 0.6354(5)
H7_4 H 0.5418 0.2971 0.6488
C15_4 C 0.45117(15) 0.22893(20) 0.4869(4)
H8_4 H 0.4401 0.2180 0.3948
N2_7 N 0.33368(8) 0.20043(11) 0.9748(2)
N4_4 N 0.49608(14) 0.26067(19) 0.5019(4)
C38_8 C 0.21203(12) 0.22401(16) 0.8974(4)
H22_7 H 0.2038 0.1963 0.8506
C40_8 C 0.19012(13) 0.24883(17) 0.8656(4)
H24_8 H 0.1666 0.2366 0.7969
C3_9 C 0.85806(12) 0.26892(8) 0.1583(3)
C4_9 C 0.88219(13) 0.27786(9) 0.2893(3)
C9_9 C 0.85587(15) 0.30312(10) 0.0682(3)
H2_7 H 0.8689 0.3346 0.0878
C16_9 C 0.90821(13) 0.32848(9) 0.3326(3)
C17_7 C 0.94992(16) 0.35941(10) 0.2696(4)
H9_7 H 0.9631 0.3494 0.2004
C18_9 C 0.89067(16) 0.34531(10) 0.4360(4)
H10_7 H 0.8629 0.3258 0.4828
C19_7 C 0.97187(16) 0.40529(10) 0.3099(4)
H11_7 H 0.9998 0.4257 0.2657
C20_9 C 0.91549(17) 0.39204(11) 0.4678(4)
H12_9 H 0.9032 0.4033 0.5365
N1_9 N 0.83381(11) 0.22638(7) 0.0933(2)
C21_7 C 0.87405(13) 0.13626(9) 0.4697(3)
C22_7 C 0.84933(13) 0.10106(9) 0.3674(3)
C23_9 C 0.80860(12) 0.06442(8) 0.1751(3)
C24_9 C 0.78447(13) 0.05548(9) 0.0441(3)
C25_7 C 0.83548(15) 0.05258(10) 0.3831(4)
H13_7 H 0.8423 0.0393 0.4604
C26_7 C 0.88339(13) 0.18273(9) 0.4618(3)
C27_7 C 0.88746(13) 0.24708(9) 0.3793(3)
C28_7 C 0.89303(15) 0.12361(10) 0.5961(3)
C29_9 C 0.81079(15) 0.03022(10) 0.2652(3)
C30_7 C 0.91478(16) 0.22013(11) 0.5554(4)
H15_7 H 0.9304 0.2178 0.6350
C31_5 C 0.87842(16) 0.12429(11) 0.7350(3)
H16_5 H 0.8569 0.1338 0.7521
C32_7 C 0.91681(16) 0.25949(11) 0.5038(4)
H17_7 H 0.9341 0.2891 0.5424
C33_7 C 0.92554(18) 0.10958(13) 0.5791(4)
H18_7 H 0.9363 0.1084 0.4878
C34_5 C 0.94162(22) 0.09749(17) 0.6980(5)
H19_5 H 0.9637 0.0886 0.6846
C35_5 C 0.89559(20) 0.11109(13) 0.8465(4)
H20_5 H 0.8846 0.1112 0.9386
C36_9 C 0.75845(13) 0.00486(9) 0.0008(3)
N5_9 N 0.83285(11) 0.10696(7) 0.2401(2)
N6_7 N 0.86709(11) 0.20008(7) 0.3586(2)
N8_5 N 0.92733(19) 0.09792(13) 0.8315(4)
C38_9 C 0.77599(16) 0.98803(10) 0.8974(4)
C40_9 C 0.75117(17) 0.94130(11) 0.8656(4)
H24_9 H 0.7634 0.9301 0.7969
C11_5 C 0.45762(11) 0.91253(12) 0.9317(3)
H4_5 H 0.4671 0.9435 0.9146
C14_5 C 0.43082(17) 0.82253(14) 0.9687(5)
H7_5 H 0.4219 0.7915 0.9821
C15_5 C 0.44442(13) 0.88216(15) 0.8202(4)
H8_5 H 0.4445 0.8932 0.7281
N4_5 N 0.43125(13) 0.83725(14) 0.8352(4)
C11_6 C 0.08747(12) 0.54509(16) 0.9317(3)
H4_6 H 0.0565 0.5236 0.9146
C14_6 C 0.17747(14) 0.60829(22) 0.9687(5)
H7_6 H 0.2085 0.6304 0.9821
C15_6 C 0.11784(15) 0.56226(20) 0.8202(4)
H8_6 H 0.1068 0.5513 0.7281
N4_6 N 0.16275(14) 0.59400(19) 0.8352(4)
C31_6 C 0.91253(12) 0.45491(16) 0.0683(3)
H16_6 H 0.9435 0.4764 0.0854
C34_6 C 0.82253(14) 0.39171(22) 0.0313(5)
H19_6 H 0.7915 0.3696 0.0179
C35_6 C 0.88216(15) 0.43774(20) 0.1798(4)
H20_6 H 0.8932 0.4487 0.2719
N8_6 N 0.83725(14) 0.40600(19) 0.1648(4)
C31_7 C 0.54509(16) 0.45762(11) 0.0683(3)
H16_7 H 0.5236 0.4671 0.0854
C34_7 C 0.60829(22) 0.43082(17) 0.0313(5)
H19_7 H 0.6304 0.4219 0.0179
C35_7 C 0.56226(20) 0.44442(13) 0.1798(4)
H20_7 H 0.5513 0.4445 0.2719
N8_7 N 0.59400(19) 0.43125(13) 0.1648(4)
C11_7 C 0.45491(16) 0.54238(11) 0.9317(3)
H4_7 H 0.4764 0.5329 0.9146
C14_7 C 0.39171(22) 0.56918(17) 0.9687(5)
H7_7 H 0.3696 0.5781 0.9821
C15_7 C 0.43774(20) 0.55558(13) 0.8202(4)
H8_7 H 0.4487 0.5555 0.7281
N4_7 N 0.40600(19) 0.56875(13) 0.8352(4)
H10_8 H 0.0076 0.2038 0.1494
C21_8 C 0.19708(9) 0.40446(10) 0.1363(3)
C22_8 C 0.23228(9) 0.41494(10) 0.0340(3)
C25_8 C 0.28076(10) 0.44957(11) 0.0497(4)
H13_8 H 0.2941 0.4697 0.1270
C26_8 C 0.15061(9) 0.36733(10) 0.1284(3)
C27_8 C 0.08626(9) 0.30705(10) 0.0459(3)
C28_8 C 0.20973(10) 0.43609(11) 0.2627(3)
C30_8 C 0.11321(11) 0.36132(12) 0.2220(4)
H15_8 H 0.1156 0.3793 0.3016
C31_8 C 0.20905(11) 0.42080(12) 0.4016(3)
H16_8 H 0.1996 0.3898 0.4187
C32_8 C 0.07385(11) 0.32399(12) 0.1704(4)
H17_8 H 0.0443 0.3117 0.2090
C33_8 C 0.22376(13) 0.48263(12) 0.2457(4)
H18_8 H 0.2250 0.4946 0.1544
C34_8 C 0.23585(17) 0.51080(14) 0.3646(5)
H19_8 H 0.2448 0.5418 0.3512
C35_8 C 0.22225(13) 0.45117(15) 0.5131(4)
H20_8 H 0.2222 0.4401 0.6052
N6_8 N 0.13326(7) 0.33368(8) 0.0252(2)
N8_8 N 0.23542(13) 0.49608(14) 0.4981(4)
H2_8 H 0.9988 0.2010 0.7544
C17_8 C 0.97393(10) 0.25718(12) 0.9362(4)
H9_8 H 0.9840 0.2804 0.8670
C19_8 C 0.92805(10) 0.23325(12) 0.9765(4)
H11_8 H 0.9077 0.2408 0.9323
H2_9 H 0.2023 0.0012 0.7544
C17_9 C 0.28326(16) 0.02607(10) 0.9362(4)
H9_9 H 0.2965 0.0160 0.8670
C19_9 C 0.30521(16) 0.07195(10) 0.9765(4)
H11_9 H 0.3332 0.0923 0.9323
H10_9 H 0.1963 0.9924 0.1494
C21_9 C 0.20739(13) 0.80292(9) 0.1363(3)
C22_9 C 0.18267(13) 0.76772(9) 0.0340(3)
C25_9 C 0.16882(15) 0.71924(10) 0.0497(4)
H13_9 H 0.1757 0.7059 0.1270
C26_9 C 0.21673(13) 0.84939(9) 0.1284(3)
C27_9 C 0.22080(13) 0.91374(9) 0.0459(3)
C28_9 C 0.22637(15) 0.79027(10) 0.2627(3)
C30_9 C 0.24812(16) 0.88679(11) 0.2220(4)
H15_9 H 0.2638 0.8844 0.3016
C31_9 C 0.21176(16) 0.79095(11) 0.4016(3)
H16_9 H 0.1903 0.8004 0.4187
C32_9 C 0.25015(16) 0.92615(11) 0.1704(4)
H17_9 H 0.2675 0.9557 0.2090
C33_9 C 0.25888(18) 0.77624(13) 0.2457(4)
H18_9 H 0.2697 0.7750 0.1544
C34_9 C 0.27496(22) 0.76415(17) 0.3646(5)
H19_9 H 0.2971 0.7552 0.3512
C35_9 C 0.22893(20) 0.77775(13) 0.5131(4)
H20_9 H 0.2180 0.7778 0.6052
N6_9 N 0.20043(11) 0.86674(7) 0.0252(2)
N8_9 N 0.26067(19) 0.76458(13) 0.4981(4)
H14_8 H 0.0012 0.7990 0.2456
C37_8 C 0.02607(10) 0.74282(12) 0.0638(4)
H21_8 H 0.0160 0.7196 0.1330
C39_8 C 0.07195(10) 0.76675(12) 0.0235(4)
H23_8 H 0.0923 0.7592 0.0677
C1_8 C 0.80292(9) 0.59554(10) 0.8637(3)
C2_8 C 0.76772(9) 0.58506(10) 0.9660(3)
C5_8 C 0.71924(10) 0.55043(11) 0.9503(4)
H1_8 H 0.7059 0.5303 0.8730
C6_8 C 0.84939(9) 0.63267(10) 0.8716(3)
C7_8 C 0.91374(9) 0.69295(10) 0.9541(3)
C8_8 C 0.79027(10) 0.56391(11) 0.7373(3)
C10_8 C 0.88679(11) 0.63868(12) 0.7780(4)
H3_8 H 0.8844 0.6207 0.6984
C11_8 C 0.79095(11) 0.57920(12) 0.5984(3)
H4_8 H 0.8004 0.6102 0.5813
C12_8 C 0.92615(11) 0.67601(12) 0.8296(4)
H5_8 H 0.9557 0.6883 0.7910
C13_8 C 0.77624(13) 0.51737(12) 0.7543(4)
H6_8 H 0.7750 0.5054 0.8456
C14_8 C 0.76415(17) 0.48920(14) 0.6354(5)
H7_8 H 0.7552 0.4582 0.6488
C15_8 C 0.77775(13) 0.54883(15) 0.4869(4)
H8_8 H 0.7778 0.5599 0.3948
N2_8 N 0.86674(7) 0.66632(8) 0.9748(2)
N4_8 N 0.76458(13) 0.50392(14) 0.5019(4)
H22_8 H 0.9924 0.7962 0.8506
C1_9 C 0.79261(13) 0.19708(9) 0.8637(3)
C2_9 C 0.81733(13) 0.23228(9) 0.9660(3)
C5_9 C 0.83118(15) 0.28076(10) 0.9503(4)
H1_9 H 0.8243 0.2941 0.8730
C6_9 C 0.78327(13) 0.15061(9) 0.8716(3)
C7_9 C 0.77920(13) 0.08626(9) 0.9541(3)
C8_9 C 0.77363(15) 0.20973(10) 0.7373(3)
C10_9 C 0.75188(16) 0.11321(11) 0.7780(4)
H3_9 H 0.7362 0.1156 0.6984
C11_9 C 0.78824(16) 0.20905(11) 0.5984(3)
H4_9 H 0.8097 0.1996 0.5813
C12_9 C 0.74985(16) 0.07385(11) 0.8296(4)
H5_9 H 0.7325 0.0443 0.7910
C13_9 C 0.74112(18) 0.22376(13) 0.7543(4)
H6_9 H 0.7303 0.2250 0.8456
C14_9 C 0.72504(22) 0.23585(17) 0.6354(5)
H7_9 H 0.7029 0.2448 0.6488
C15_9 C 0.77107(20) 0.22225(13) 0.4869(4)
H8_9 H 0.7820 0.2222 0.3948
N2_9 N 0.79957(11) 0.13326(7) 0.9748(2)
N4_9 N 0.73933(19) 0.23542(13) 0.5019(4)
H22_9 H 0.8037 0.0076 0.8506
H14_9 H 0.7977 0.9988 0.2456
C37_9 C 0.71674(16) 0.97393(10) 0.0638(4)
H21_9 H 0.7035 0.9840 0.1330
C39_9 C 0.69479(16) 0.92805(10) 0.0235(4)
H23_9 H 0.6668 0.9077 0.0677
loop_
_geom_bond_atom_site_label_1
_geom_bond_atom_site_label_2
_geom_bond_site_symmetry_1
_geom_bond_site_symmetry_2
H16 C31 1_555 1_555
H19 C34 1_555 1_555
C35 C31 1_555 1_555
H20 C35 1_555 1_555
N8 C34 1_555 1_555
C35 N8 1_555 1_555
C7 C12 1_555 1_555
H5 C12 1_555 1_555
C21 C22 1_555 1_555
C22 C25 1_555 1_555
C23 C24 1_555 1_555
C24 C7 1_555 1_555
C25 H13 1_555 1_555
C26 C21 1_555 1_555
C28 C21 1_555 1_555
C29 C23 1_555 1_555
H14 C29 1_555 1_555
C30 C26 1_555 1_555
H15 C30 1_555 1_555
C33 C28 1_555 1_555
H18 C33 1_555 1_555
C36 C24 1_555 1_555
C37 C36 1_555 1_555
H21 C37 1_555 1_555
C38 C36 1_555 1_555
H22 C38 1_555 1_555
C39 C37 1_555 1_555
H23 C39 1_555 1_555
C40 C38 1_555 1_555
H24 C40 1_555 1_555
N5 Mn1 1_555 1_555
N6 Mn1 1_555 1_555
N7 C39 1_555 1_555
Mn3 N7 1_555 1_555
N9 Mn1 1_555 1_555
C22 N5 1_555 1_555
C23 N5 1_555 1_555
C25 C29 1_555 1_555
C26 N6 1_555 1_555
C40 N7 1_555 1_555
Mn1_2 N1 1_555 1_555
C1 C2 1_555 1_555
C2 C5 1_555 1_555
C3 C4 1_555 1_555
C4 C16 1_555 1_555
C5 H1 1_555 1_555
C6 C1 1_555 1_555
C8 C1 1_555 1_555
C9 C3 1_555 1_555
H2 C9 1_555 1_555
C10 C6 1_555 1_555
H3 C10 1_555 1_555
C13 C8 1_555 1_555
H6 C13 1_555 1_555
C16 C17 1_555 1_555
C17 H9 1_555 1_555
C18 C16 1_555 1_555
H10 C18 1_555 1_555
C19 C17 1_555 1_555
H11 C19 1_555 1_555
C20 C18 1_555 1_555
H12 C20 1_555 1_555
N1 C2 1_555 1_555
N2 Mn1_2 1_555 1_555
N3 C19 1_555 1_555
C27 C4 1_555 1_555
C32 C27 1_555 1_555
H17 C32 1_555 1_555
Mn2 N3 1_555 1_555
N10 Mn1_2 1_555 1_555
C3 N1 1_555 1_555
C5 C9 1_555 1_555
C6 N2 1_555 1_555
C20 N3 1_555 1_555
Mn1_3 N1_2 1_555 1_555
C1_2 C2_2 1_555 1_555
C2_2 C5_2 1_555 1_555
C3_2 C4_2 1_555 1_555
C4_2 C16_2 1_555 1_555
C5_2 H1_2 1_555 1_555
C6_2 C1_2 1_555 1_555
C8_2 C1_2 1_555 1_555
C9_2 C3_2 1_555 1_555
H2_2 C9_2 1_555 1_555
C10_2 C6_2 1_555 1_555
H3_2 C10_2 1_555 1_555
C13_2 C8_2 1_555 1_555
H6_2 C13_2 1_555 1_555
C16_2 C17_2 1_555 1_555
C17_2 H9_2 1_555 1_555
C18_2 C16_2 1_555 1_555
H10_2 C18_2 1_555 1_555
C19_2 C17_2 1_555 1_555
H11_2 C19_2 1_555 1_555
C20_2 C18_2 1_555 1_555
H12_2 C20_2 1_555 1_555
N1_2 C2_2 1_555 1_555
N2_2 Mn1_3 1_555 1_555
N3_2 C19_2 1_555 1_555
C27_2 C4_2 1_555 1_555
C32_2 C27_2 1_555 1_555
H17_2 C32_2 1_555 1_555
Mn2_2 N3_2 1_555 1_555
N10_2 Mn1_3 1_555 1_555
C3_2 N1_2 1_555 1_555
C5_2 C9_2 1_555 1_555
C6_2 N2_2 1_555 1_555
C20_2 N3_2 1_555 1_555
C7_2 C12_2 1_555 1_555
H5_2 C12_2 1_555 1_555
C21_2 C22_2 1_555 1_555
C22_2 C25_2 1_555 1_555
C23_2 C24_2 1_555 1_555
C24_2 C7_2 1_555 1_555
C25_2 H13_2 1_555 1_555
C26_2 C21_2 1_555 1_555
C28_2 C21_2 1_555 1_555
C29_2 C23_2 1_555 1_555
H14_2 C29_2 1_555 1_555
C30_2 C26_2 1_555 1_555
H15_2 C30_2 1_555 1_555
C33_2 C28_2 1_555 1_555
H18_2 C33_2 1_555 1_555
C36_2 C24_2 1_555 1_555
C37_2 C36_2 1_555 1_555
H21_2 C37_2 1_555 1_555
C38_2 C36_2 1_555 1_555
H22_2 C38_2 1_555 1_555
C39_2 C37_2 1_555 1_555
H23_2 C39_2 1_555 1_555
C40_2 C38_2 1_555 1_555
H24_2 C40_2 1_555 1_555
N5_2 Mn1_4 1_555 1_555
N6_2 Mn1_4 1_555 1_555
N7_2 C39_2 1_555 1_555
Mn3_2 N7_2 1_555 1_555
N9_2 Mn1_4 1_555 1_555
C22_2 N5_2 1_555 1_555
C23_2 N5_2 1_555 1_555
C25_2 C29_2 1_555 1_555
C26_2 N6_2 1_555 1_555
C40_2 N7_2 1_555 1_555
Mn1_5 N1_3 1_555 1_555
C1_3 C2_3 1_555 1_555
C2_3 C5_3 1_555 1_555
C3_3 C4_3 1_555 1_555
C4_3 C16_3 1_555 1_555
C5_3 H1_3 1_555 1_555
C6_3 C1_3 1_555 1_555
C7_3 C12_3 1_555 1_555
C8_3 C1_3 1_555 1_555
C9_3 C3_3 1_555 1_555
H2_3 C9_3 1_555 1_555
C10_3 C6_3 1_555 1_555
H3_3 C10_3 1_555 1_555
C12_3 C10_3 1_555 1_555
H5_3 C12_3 1_555 1_555
C13_3 C8_3 1_555 1_555
H6_3 C13_3 1_555 1_555
C16_3 C17_3 1_555 1_555
C17_3 H9_3 1_555 1_555
C18_3 C16_3 1_555 1_555
H10_3 C18_3 1_555 1_555
C19_3 C17_3 1_555 1_555
H11_3 C19_3 1_555 1_555
C20_3 C18_3 1_555 1_555
H12_3 C20_3 1_555 1_555
N1_3 C2_3 1_555 1_555
N2_3 Mn1_5 1_555 1_555
N3_3 C19_3 1_555 1_555
C21_3 C22_3 1_555 1_555
C22_3 C25_3 1_555 1_555
C23_3 C24_3 1_555 1_555
C24_3 C7_3 1_555 1_555
C25_3 H13_3 1_555 1_555
C26_3 C21_3 1_555 1_555
C27_3 C4_3 1_555 1_555
C28_3 C21_3 1_555 1_555
C29_3 C23_3 1_555 1_555
H14_3 C29_3 1_555 1_555
C30_3 C26_3 1_555 1_555
H15_3 C30_3 1_555 1_555
C32_3 C27_3 1_555 1_555
H17_3 C32_3 1_555 1_555
C33_3 C28_3 1_555 1_555
H18_3 C33_3 1_555 1_555
C36_3 C24_3 1_555 1_555
C37_3 C36_3 1_555 1_555
H21_3 C37_3 1_555 1_555
C38_3 C36_3 1_555 1_555
H22_3 C38_3 1_555 1_555
C39_3 C37_3 1_555 1_555
H23_3 C39_3 1_555 1_555
C40_3 C38_3 1_555 1_555
H24_3 C40_3 1_555 1_555
N5_3 Mn1_5 1_555 1_555
N6_3 Mn1_5 1_555 1_555
N7_3 C39_3 1_555 1_555
Mn2_3 N3_3 1_555 1_555
Mn3_3 N7_3 1_555 1_555
N9_3 Mn1_5 1_555 1_555
N10_3 Mn1_5 1_555 1_555
C3_3 N1_3 1_555 1_555
C5_3 C9_3 1_555 1_555
C6_3 N2_3 1_555 1_555
C7_3 N2_3 1_555 1_555
C20_3 N3_3 1_555 1_555
C22_3 N5_3 1_555 1_555
C23_3 N5_3 1_555 1_555
C25_3 C29_3 1_555 1_555
C26_3 N6_3 1_555 1_555
C27_3 N6_3 1_555 1_555
C30_3 C32_3 1_555 1_555
C40_3 N7_3 1_555 1_555
Mn2_2 N1_4 1_555 1_555
C1_4 C2_4 1_555 1_555
C2_4 C5_4 1_555 1_555
C3_4 C4_4 1_555 1_555
C4_4 C16_4 1_555 1_555
C5_4 H1_4 1_555 1_555
C6_4 C1_4 1_555 1_555
C7_4 C12_4 1_555 1_555
C8_4 C1_4 1_555 1_555
C9_4 C3_4 1_555 1_555
C10_4 C6_4 1_555 1_555
H3_4 C10_4 1_555 1_555
C11 C8_4 1_555 1_555
H4 C11 1_555 1_555
C12_4 C10_4 1_555 1_555
H5_4 C12_4 1_555 1_555
C13_4 C8_4 1_555 1_555
H6_4 C13_4 1_555 1_555
C14 C13_4 1_555 1_555
H7 C14 1_555 1_555
C15 C11 1_555 1_555
H8 C15 1_555 1_555
N1_4 C2_4 1_555 1_555
N2_4 Mn2_2 1_555 1_555
N4 C14 1_555 1_555
C23_4 C24_4 1_555 1_555
C24_4 C7_4 1_555 1_555
C29_4 C23_4 1_555 1_555
H14_4 C29_4 1_555 1_555
C36_4 C24_4 1_555 1_555
C37_4 C36_4 1_555 1_555
H21_4 C37_4 1_555 1_555
C38_4 C36_4 1_555 1_555
H22_4 C38_4 1_555 1_555
C39_4 C37_4 1_555 1_555
H23_4 C39_4 1_555 1_555
C40_4 C38_4 1_555 1_555
H24_4 C40_4 1_555 1_555
N5_4 Mn2_2 1_555 1_555
N10_3 C39_4 1_555 1_555
N10_4 Mn2_2 1_555 1_555
C3_4 N1_4 1_555 1_555
C5_4 C9_4 1_555 1_555
C6_4 N2_4 1_555 1_555
C7_4 N2_4 1_555 1_555
C15 N4 1_555 1_555
C23_4 N5_4 1_555 1_555
C40_4 N10_3 1_555 1_555
C20_4 C18_4 1_555 1_555
H12_4 C20_4 1_555 1_555
Mn3 N3_4 1_555 1_555
C20_4 N3_4 1_555 1_555
H10_4 C18_5 1_555 1_555
C20_5 C18_5 1_555 1_555
H12_5 C20_5 1_555 1_555
C21_4 C22_4 1_555 1_555
C22_4 C25_4 1_555 1_555
C25_4 H13_4 1_555 1_555
C26_4 C21_4 1_555 1_555
C28_4 C21_4 1_555 1_555
C30_4 C26_4 1_555 1_555
H15_4 C30_4 1_555 1_555
C31_2 C28_4 1_555 1_555
H16_2 C31_2 1_555 1_555
C32_4 C27_4 1_555 1_555
H17_4 C32_4 1_555 1_555
C33_4 C28_4 1_555 1_555
H18_4 C33_4 1_555 1_555
C34_2 C33_4 1_555 1_555
H19_2 C34_2 1_555 1_555
C35_2 C31_2 1_555 1_555
H20_2 C35_2 1_555 1_555
N8_2 C34_2 1_555 1_555
Mn3_2 N3_5 1_555 1_555
C20_5 N3_5 1_555 1_555
C26_4 N6_4 1_555 1_555
C27_4 N6_4 1_555 1_555
C30_4 C32_4 1_555 1_555
C35_2 N8_2 1_555 1_555
Mn2_3 N1_5 1_555 1_555
C1_5 C2_5 1_555 1_555
C2_5 C5_5 1_555 1_555
C3_5 C4_5 1_555 1_555
C4_5 C16_5 1_555 1_555
C5_5 H1_5 1_555 1_555
C6_5 C1_5 1_555 1_555
C7_5 C12_5 1_555 1_555
C8_5 C1_5 1_555 1_555
C9_5 C3_5 1_555 1_555
H2_4 C9_5 1_555 1_555
C10_5 C6_5 1_555 1_555
H3_5 C10_5 1_555 1_555
C11_2 C8_5 1_555 1_555
H4_2 C11_2 1_555 1_555
C12_5 C10_5 1_555 1_555
H5_5 C12_5 1_555 1_555
C13_5 C8_5 1_555 1_555
H6_5 C13_5 1_555 1_555
C14_2 C13_5 1_555 1_555
H7_2 C14_2 1_555 1_555
C15_2 C11_2 1_555 1_555
H8_2 C15_2 1_555 1_555
C16_5 C17_4 1_555 1_555
C17_4 H9_4 1_555 1_555
C19_4 C17_4 1_555 1_555
H11_4 C19_4 1_555 1_555
N1_5 C2_5 1_555 1_555
N2_5 Mn2_3 1_555 1_555
N4_2 C14_2 1_555 1_555
C23_5 C24_5 1_555 1_555
C24_5 C7_5 1_555 1_555
C29_5 C23_5 1_555 1_555
H14_5 C29_5 1_555 1_555
C36_5 C24_5 1_555 1_555
C37_5 C36_5 1_555 1_555
H21_5 C37_5 1_555 1_555
C38_5 C36_5 1_555 1_555
H22_5 C38_5 1_555 1_555
C39_5 C37_5 1_555 1_555
H23_5 C39_5 1_555 1_555
C40_5 C38_5 1_555 1_555
H24_5 C40_5 1_555 1_555
N5_5 Mn2_3 1_555 1_555
N10 C39_5 1_555 1_555
N10_5 Mn2_3 1_555 1_555
C3_5 N1_5 1_555 1_555
C5_5 C9_5 1_555 1_555
C6_5 N2_5 1_555 1_555
C7_5 N2_5 1_555 1_555
C15_2 N4_2 1_555 1_555
C23_5 N5_5 1_555 1_555
C40_5 N10 1_555 1_555
C20_6 C18_6 1_555 1_555
H12_6 C20_6 1_555 1_555
Mn3_3 N3_6 1_555 1_555
C20_6 N3_6 1_555 1_555
Mn2 N1_6 1_555 1_555
C1_6 C2_6 1_555 1_555
C2_6 C5_6 1_555 1_555
C3_6 C4_6 1_555 1_555
C4_6 C16_6 1_555 1_555
C5_6 H1_6 1_555 1_555
C6_6 C1_6 1_555 1_555
C7_6 C12_6 1_555 1_555
C8_6 C1_6 1_555 1_555
C9_6 C3_6 1_555 1_555
C10_6 C6_6 1_555 1_555
H3_6 C10_6 1_555 1_555
C11_3 C8_6 1_555 1_555
H4_3 C11_3 1_555 1_555
C12_6 C10_6 1_555 1_555
H5_6 C12_6 1_555 1_555
C13_6 C8_6 1_555 1_555
H6_6 C13_6 1_555 1_555
C14_3 C13_6 1_555 1_555
H7_3 C14_3 1_555 1_555
C15_3 C11_3 1_555 1_555
H8_3 C15_3 1_555 1_555
N1_6 C2_6 1_555 1_555
N2_6 Mn2 1_555 1_555
N4_3 C14_3 1_555 1_555
C23_6 C24_6 1_555 1_555
C24_6 C7_6 1_555 1_555
C29_6 C23_6 1_555 1_555
H14_6 C29_6 1_555 1_555
C36_6 C24_6 1_555 1_555
C37_6 C36_6 1_555 1_555
H21_6 C37_6 1_555 1_555
C38_6 C36_6 1_555 1_555
H22_6 C38_6 1_555 1_555
C39_6 C37_6 1_555 1_555
H23_6 C39_6 1_555 1_555
C40_6 C38_6 1_555 1_555
H24_6 C40_6 1_555 1_555
N5_6 Mn2 1_555 1_555
N10_2 C39_6 1_555 1_555
N10_6 Mn2 1_555 1_555
C3_6 N1_6 1_555 1_555
C5_6 C9_6 1_555 1_555
C6_6 N2_6 1_555 1_555
C7_6 N2_6 1_555 1_555
C15_3 N4_3 1_555 1_555
C23_6 N5_6 1_555 1_555
C40_6 N10_2 1_555 1_555
C40_7 C38_7 1_555 1_555
H24_7 C40_7 1_555 1_555
C40_7 N10_6 1_555 1_555
Mn3_2 N1_7 1_555 1_555
C3_7 C4_7 1_555 1_555
C4_7 C16_7 1_555 1_555
C9_7 C3_7 1_555 1_555
H2_5 C9_7 1_555 1_555
C16_7 C17_5 1_555 1_555
C17_5 H9_5 1_555 1_555
C18_7 C16_7 1_555 1_555
H10_5 C18_7 1_555 1_555
C19_5 C17_5 1_555 1_555
H11_5 C19_5 1_555 1_555
C20_7 C18_7 1_555 1_555
H12_7 C20_7 1_555 1_555
N9_3 C19_5 1_555 1_555
C21_5 C22_5 1_555 1_555
C22_5 C25_5 1_555 1_555
C23_7 C24_7 1_555 1_555
C25_5 H13_5 1_555 1_555
C26_5 C21_5 1_555 1_555
C27_5 C4_7 1_555 1_555
C28_5 C21_5 1_555 1_555
C29_7 C23_7 1_555 1_555
C30_5 C26_5 1_555 1_555
H15_5 C30_5 1_555 1_555
C31_3 C28_5 1_555 1_555
H16_3 C31_3 1_555 1_555
C32_5 C27_5 1_555 1_555
H17_5 C32_5 1_555 1_555
C33_5 C28_5 1_555 1_555
H18_5 C33_5 1_555 1_555
C34_3 C33_5 1_555 1_555
H19_3 C34_3 1_555 1_555
C35_3 C31_3 1_555 1_555
H20_3 C35_3 1_555 1_555
C36_7 C24_7 1_555 1_555
N5_7 Mn3_2 1_555 1_555
N6_5 Mn3_2 1_555 1_555
N8_3 C34_3 1_555 1_555
C3_7 N1_7 1_555 1_555
C20_7 N9_3 1_555 1_555
C22_5 N5_7 1_555 1_555
C23_7 N5_7 1_555 1_555
C25_5 C29_7 1_555 1_555
C26_5 N6_5 1_555 1_555
C27_5 N6_5 1_555 1_555
C30_5 C32_5 1_555 1_555
C35_3 N8_3 1_555 1_555
Mn3_3 N1_8 1_555 1_555
C3_8 C4_8 1_555 1_555
C4_8 C16_8 1_555 1_555
C9_8 C3_8 1_555 1_555
H2_6 C9_8 1_555 1_555
C16_8 C17_6 1_555 1_555
C17_6 H9_6 1_555 1_555
C18_8 C16_8 1_555 1_555
H10_6 C18_8 1_555 1_555
C19_6 C17_6 1_555 1_555
H11_6 C19_6 1_555 1_555
C20_8 C18_8 1_555 1_555
H12_8 C20_8 1_555 1_555
N9 C19_6 1_555 1_555
C21_6 C22_6 1_555 1_555
C22_6 C25_6 1_555 1_555
C23_8 C24_8 1_555 1_555
C25_6 H13_6 1_555 1_555
C26_6 C21_6 1_555 1_555
C27_6 C4_8 1_555 1_555
C28_6 C21_6 1_555 1_555
C29_8 C23_8 1_555 1_555
H14_7 C29_8 1_555 1_555
C30_6 C26_6 1_555 1_555
H15_6 C30_6 1_555 1_555
C31_4 C28_6 1_555 1_555
H16_4 C31_4 1_555 1_555
C32_6 C27_6 1_555 1_555
H17_6 C32_6 1_555 1_555
C33_6 C28_6 1_555 1_555
H18_6 C33_6 1_555 1_555
C34_4 C33_6 1_555 1_555
H19_4 C34_4 1_555 1_555
C35_4 C31_4 1_555 1_555
H20_4 C35_4 1_555 1_555
C36_8 C24_8 1_555 1_555
C37_7 C36_8 1_555 1_555
H21_7 C37_7 1_555 1_555
C39_7 C37_7 1_555 1_555
H23_7 C39_7 1_555 1_555
N5_8 Mn3_3 1_555 1_555
N6_6 Mn3_3 1_555 1_555
N8_4 C34_4 1_555 1_555
C3_8 N1_8 1_555 1_555
C20_8 N9 1_555 1_555
C22_6 N5_8 1_555 1_555
C23_8 N5_8 1_555 1_555
C25_6 C29_8 1_555 1_555
C26_6 N6_6 1_555 1_555
C27_6 N6_6 1_555 1_555
C30_6 C32_6 1_555 1_555
C35_4 N8_4 1_555 1_555
C1_7 C2_7 1_555 1_555
C2_7 C5_7 1_555 1_555
C5_7 H1_7 1_555 1_555
C6_7 C1_7 1_555 1_555
C7_7 C12_7 1_555 1_555
C8_7 C1_7 1_555 1_555
C10_7 C6_7 1_555 1_555
H3_7 C10_7 1_555 1_555
C11_4 C8_7 1_555 1_555
H4_4 C11_4 1_555 1_555
C12_7 C10_7 1_555 1_555
H5_7 C12_7 1_555 1_555
C13_7 C8_7 1_555 1_555
H6_7 C13_7 1_555 1_555
C14_4 C13_7 1_555 1_555
H7_4 C14_4 1_555 1_555
C15_4 C11_4 1_555 1_555
H8_4 C15_4 1_555 1_555
N4_4 C14_4 1_555 1_555
H22_7 C38_8 1_555 1_555
C40_8 C38_8 1_555 1_555
H24_8 C40_8 1_555 1_555
C6_7 N2_7 1_555 1_555
C7_7 N2_7 1_555 1_555
C15_4 N4_4 1_555 1_555
C40_8 N10_4 1_555 1_555
Mn3 N1_9 1_555 1_555
C3_9 C4_9 1_555 1_555
C4_9 C16_9 1_555 1_555
C9_9 C3_9 1_555 1_555
H2_7 C9_9 1_555 1_555
C16_9 C17_7 1_555 1_555
C17_7 H9_7 1_555 1_555
C18_9 C16_9 1_555 1_555
H10_7 C18_9 1_555 1_555
C19_7 C17_7 1_555 1_555
H11_7 C19_7 1_555 1_555
C20_9 C18_9 1_555 1_555
H12_9 C20_9 1_555 1_555
N9_2 C19_7 1_555 1_555
C21_7 C22_7 1_555 1_555
C22_7 C25_7 1_555 1_555
C23_9 C24_9 1_555 1_555
C25_7 H13_7 1_555 1_555
C26_7 C21_7 1_555 1_555
C27_7 C4_9 1_555 1_555
C28_7 C21_7 1_555 1_555
C29_9 C23_9 1_555 1_555
C30_7 C26_7 1_555 1_555
H15_7 C30_7 1_555 1_555
C31_5 C28_7 1_555 1_555
H16_5 C31_5 1_555 1_555
C32_7 C27_7 1_555 1_555
H17_7 C32_7 1_555 1_555
C33_7 C28_7 1_555 1_555
H18_7 C33_7 1_555 1_555
C34_5 C33_7 1_555 1_555
H19_5 C34_5 1_555 1_555
C35_5 C31_5 1_555 1_555
H20_5 C35_5 1_555 1_555
C36_9 C24_9 1_555 1_555
N5_9 Mn3 1_555 1_555
N6_7 Mn3 1_555 1_555
N8_5 C34_5 1_555 1_555
C3_9 N1_9 1_555 1_555
C20_9 N9_2 1_555 1_555
C22_7 N5_9 1_555 1_555
C23_9 N5_9 1_555 1_555
C25_7 C29_9 1_555 1_555
C26_7 N6_7 1_555 1_555
C27_7 N6_7 1_555 1_555
C30_7 C32_7 1_555 1_555
C35_5 N8_5 1_555 1_555
C40_9 C38_9 1_555 1_555
H24_9 C40_9 1_555 1_555
C40_9 N10_5 1_555 1_555
H4_5 C11_5 1_555 1_555
H7_5 C14_5 1_555 1_555
C15_5 C11_5 1_555 1_555
H8_5 C15_5 1_555 1_555
N4_5 C14_5 1_555 1_555
C15_5 N4_5 1_555 1_555
H4_6 C11_6 1_555 1_555
H7_6 C14_6 1_555 1_555
C15_6 C11_6 1_555 1_555
H8_6 C15_6 1_555 1_555
N4_6 C14_6 1_555 1_555
C15_6 N4_6 1_555 1_555
H16_6 C31_6 1_555 1_555
H19_6 C34_6 1_555 1_555
C35_6 C31_6 1_555 1_555
H20_6 C35_6 1_555 1_555
N8_6 C34_6 1_555 1_555
C35_6 N8_6 1_555 1_555
H16_7 C31_7 1_555 1_555
H19_7 C34_7 1_555 1_555
C35_7 C31_7 1_555 1_555
H20_7 C35_7 1_555 1_555
N8_7 C34_7 1_555 1_555
C35_7 N8_7 1_555 1_555
H4_7 C11_7 1_555 1_555
H7_7 C14_7 1_555 1_555
C15_7 C11_7 1_555 1_555
H8_7 C15_7 1_555 1_555
N4_7 C14_7 1_555 1_555
C15_7 N4_7 1_555 1_555
C21_8 C22_8 1_555 1_555
C22_8 C25_8 1_555 1_555
C25_8 H13_8 1_555 1_555
C26_8 C21_8 1_555 1_555
C28_8 C21_8 1_555 1_555
C30_8 C26_8 1_555 1_555
H15_8 C30_8 1_555 1_555
C31_8 C28_8 1_555 1_555
H16_8 C31_8 1_555 1_555
C32_8 C27_8 1_555 1_555
H17_8 C32_8 1_555 1_555
C33_8 C28_8 1_555 1_555
H18_8 C33_8 1_555 1_555
C34_8 C33_8 1_555 1_555
H19_8 C34_8 1_555 1_555
C35_8 C31_8 1_555 1_555
H20_8 C35_8 1_555 1_555
N8_8 C34_8 1_555 1_555
C26_8 N6_8 1_555 1_555
C27_8 N6_8 1_555 1_555
C30_8 C32_8 1_555 1_555
C35_8 N8_8 1_555 1_555
C17_8 H9_8 1_555 1_555
C19_8 C17_8 1_555 1_555
H11_8 C19_8 1_555 1_555
C17_9 H9_9 1_555 1_555
C19_9 C17_9 1_555 1_555
H11_9 C19_9 1_555 1_555
C21_9 C22_9 1_555 1_555
C22_9 C25_9 1_555 1_555
C25_9 H13_9 1_555 1_555
C26_9 C21_9 1_555 1_555
C28_9 C21_9 1_555 1_555
C30_9 C26_9 1_555 1_555
H15_9 C30_9 1_555 1_555
C31_9 C28_9 1_555 1_555
H16_9 C31_9 1_555 1_555
C32_9 C27_9 1_555 1_555
H17_9 C32_9 1_555 1_555
C33_9 C28_9 1_555 1_555
H18_9 C33_9 1_555 1_555
C34_9 C33_9 1_555 1_555
H19_9 C34_9 1_555 1_555
C35_9 C31_9 1_555 1_555
H20_9 C35_9 1_555 1_555
N8_9 C34_9 1_555 1_555
C26_9 N6_9 1_555 1_555
C27_9 N6_9 1_555 1_555
C30_9 C32_9 1_555 1_555
C35_9 N8_9 1_555 1_555
H21_8 C37_8 1_555 1_555
C39_8 C37_8 1_555 1_555
H23_8 C39_8 1_555 1_555
C1_8 C2_8 1_555 1_555
C2_8 C5_8 1_555 1_555
C5_8 H1_8 1_555 1_555
C6_8 C1_8 1_555 1_555
C7_8 C12_8 1_555 1_555
C8_8 C1_8 1_555 1_555
C10_8 C6_8 1_555 1_555
H3_8 C10_8 1_555 1_555
C11_8 C8_8 1_555 1_555
H4_8 C11_8 1_555 1_555
C12_8 C10_8 1_555 1_555
H5_8 C12_8 1_555 1_555
C13_8 C8_8 1_555 1_555
H6_8 C13_8 1_555 1_555
C14_8 C13_8 1_555 1_555
H7_8 C14_8 1_555 1_555
C15_8 C11_8 1_555 1_555
H8_8 C15_8 1_555 1_555
N4_8 C14_8 1_555 1_555
C6_8 N2_8 1_555 1_555
C7_8 N2_8 1_555 1_555
C15_8 N4_8 1_555 1_555
C1_9 C2_9 1_555 1_555
C2_9 C5_9 1_555 1_555
C5_9 H1_9 1_555 1_555
C6_9 C1_9 1_555 1_555
C7_9 C12_9 1_555 1_555
C8_9 C1_9 1_555 1_555
C10_9 C6_9 1_555 1_555
H3_9 C10_9 1_555 1_555
C11_9 C8_9 1_555 1_555
H4_9 C11_9 1_555 1_555
C12_9 C10_9 1_555 1_555
H5_9 C12_9 1_555 1_555
C13_9 C8_9 1_555 1_555
H6_9 C13_9 1_555 1_555
C14_9 C13_9 1_555 1_555
H7_9 C14_9 1_555 1_555
C15_9 C11_9 1_555 1_555
H8_9 C15_9 1_555 1_555
N4_9 C14_9 1_555 1_555
C6_9 N2_9 1_555 1_555
C7_9 N2_9 1_555 1_555
C15_9 N4_9 1_555 1_555
H21_9 C37_9 1_555 1_555
C39_9 C37_9 1_555 1_555
H23_9 C39_9 1_555 1_555

#END
