
###############################################################################
#
# This file contains modified crystal structure data generated from the
# MOF subset of the Cambridge Structural Database (CSD) v543 
# hosted by the Cambridge Crystallographic Data Centre (CCDC).
#
# This work is licensed under the Creative Commons
# Attribution-NonCommercial-ShareAlike 4.0 International License.
# To view a copy of this license, visit
# http://creativecommons.org/licenses/by-nc-sa/4.0/
# or send a letter to
# Creative Commons, PO Box 1866, Mountain View, CA 94042, USA.
#
# CIF created using the CSD Python API on 29 September 2022
# The structure has been converted into the P1 space group
# The structure has a 3D framework
# The original CSD entry MURTUO is in the monoclinic crystal system
# The framework has been calculated to contain at least 10.0% void space
# The void calculation uses a probe of radius 1.32A, grid spacing 0.4
#
###############################################################################

data_MURTUO
_chemical_formula_moiety         '(C24 H40 Lu4 O28)n'
_symmetry_cell_setting           triclinic
_symmetry_space_group_name_H-M   'P 1'
_symmetry_Int_Tables_number      1
_space_group_name_Hall           'P 1'
loop_
_symmetry_equiv_pos_site_id
_symmetry_equiv_pos_as_xyz
1 x,y,z
_cell_length_a                   5.2240(10)
_cell_length_b                   26.055(5)
_cell_length_c                   8.800(2)
_cell_angle_alpha                90
_cell_angle_beta                 97.38(3)
_cell_angle_gamma                90
_cell_volume                     1187.86
loop_
_atom_site_label
_atom_site_type_symbol
_atom_site_fract_x
_atom_site_fract_y
_atom_site_fract_z
O2 O 0.0041(4) 0.33613(10) 0.4103(3)
H1 H 0.005(7) 0.3558(15) 0.120(4)
H2 H 0.056(9) 0.2984(19) 0.149(5)
Lu3 Lu 0.40348(2) 0.340833(4) 0.521439(12)
O1 O 0.6000(4) 0.33354(9) 0.3076(2)
C1 C 0.8350(5) 0.33150(10) 0.2954(3)
C2 C 0.9236(6) 0.32403(12) 0.1417(3)
C3 C 0.7100(7) 0.31015(12) 0.0159(3)
H3 H 0.586(8) 0.3353(16) 0.013(5)
C4 C 0.5868(5) 0.25860(10) 0.0330(3)
O4 O 0.6977(4) 0.22414(7) 0.1198(2)
O5 O 0.1887(4) 0.41599(8) 0.6099(3)
O6 O 0.3578(5) 0.42179(9) 0.3963(3)
C5 C 0.2197(6) 0.44039(12) 0.4895(4)
C6 C 0.0903(10) 0.49114(17) 0.4508(6)
H5 H 0.2238 0.5170 0.4500
H6 H 0.0005 0.4889 0.3474
O7 O 0.7134(4) 0.38393(9) 0.6794(3)
H7 H 0.696(9) 0.4022(18) 0.747(5)
H8 H 0.845(10) 0.3877(19) 0.660(5)
O8 O 0.1987(4) 0.30923(8) 0.7173(2)
H9 H 0.065(8) 0.2985(15) 0.690(4)
H10 H 0.255(8) 0.2896(17) 0.787(5)
O17 O 0.3731(4) 0.25162(8) 0.4539(2)
O18 O 0.6977(4) 0.27586(7) 0.6198(2)
Lu4 Lu 0.40348(2) 0.159167(4) 0.021439(12)
H4 H 0.769(9) 0.3057(18) 0.921(5)
O3 O 0.3731(4) 0.24838(8) 0.9539(2)
C7 C 0.9097(10) 0.50886(17) 0.5492(6)
C8 C 0.7803(6) 0.55961(12) 0.5105(4)
O9 O 0.8113(4) 0.58401(8) 0.3901(3)
O10 O 0.6422(5) 0.57821(9) 0.6037(3)
H11 H 0.7762 0.4830 0.5500
H12 H 0.9995 0.5111 0.6526
Lu5 Lu 0.59652(2) 0.659167(4) 0.478561(12)
O9_2 O 0.1887(4) 0.08401(8) 0.1099(3)
C7_2 C 0.0903(10) 0.00886(17) 0.9508(6)
C8_2 C 0.2197(6) 0.05961(12) 0.9895(4)
O10_2 O 0.3578(5) 0.07821(9) 0.8963(3)
H12_2 H 0.0005 0.0111 0.8474
O11 O 0.4000(4) 0.83354(9) 0.1924(2)
C9 C 0.1650(5) 0.83150(10) 0.2046(3)
C10 C 0.0764(6) 0.82403(12) 0.3583(3)
C11 C 0.2900(7) 0.81015(12) 0.4841(3)
H15 H 0.414(8) 0.8353(16) 0.487(5)
H16 H 0.231(9) 0.8057(18) 0.579(5)
C12 C 0.4132(5) 0.75860(10) 0.4670(3)
O13 O 0.6269(4) 0.74838(8) 0.5461(2)
O14 O 0.3023(4) 0.72414(7) 0.3802(2)
O19 O 0.9959(4) 0.83613(10) 0.0897(3)
O20 O 0.6269(4) 0.75162(8) 0.0461(2)
O23 O 0.6422(5) 0.92179(9) 0.1037(3)
H11_2 H 0.2238 0.9830 0.9500
Lu2 Lu 0.59652(2) 0.840833(4) 0.978561(12)
O15 O 0.2866(4) 0.88393(9) 0.8206(3)
H17 H 0.304(9) 0.9022(18) 0.753(5)
H18 H 0.155(10) 0.8877(19) 0.840(5)
O16 O 0.8013(4) 0.80923(8) 0.7827(2)
H19 H 0.935(8) 0.7985(15) 0.810(4)
H20 H 0.745(8) 0.7896(17) 0.713(5)
O21 O 0.3023(4) 0.77586(7) 0.8802(2)
O22 O 0.8113(4) 0.91599(8) 0.8901(3)
H5_2 H 0.7762 0.0170 0.0500
C5_2 C 0.7803(6) 0.94039(12) 0.0105(4)
C6_2 C 0.9097(10) 0.99114(17) 0.0492(6)
H6_2 H 0.9995 0.9889 0.1526
H13 H 0.995(7) 0.8558(15) 0.380(4)
H14 H 0.944(9) 0.7984(19) 0.351(5)
H16_2 H 0.231(9) 0.6943(18) 0.079(5)
O11_2 O 0.4000(4) 0.66646(9) 0.6924(2)
C9_2 C 0.1650(5) 0.66850(10) 0.7046(3)
C10_2 C 0.0764(6) 0.67597(12) 0.8583(3)
C11_2 C 0.2900(7) 0.68985(12) 0.9841(3)
H15_2 H 0.414(8) 0.6647(16) 0.987(5)
C12_2 C 0.4132(5) 0.74140(10) 0.9670(3)
O15_2 O 0.2866(4) 0.61607(9) 0.3206(3)
H17_2 H 0.304(9) 0.5978(18) 0.253(5)
H18_2 H 0.155(10) 0.6123(19) 0.340(5)
O16_2 O 0.8013(4) 0.69077(8) 0.2827(2)
H19_2 H 0.935(8) 0.7015(15) 0.310(4)
H20_2 H 0.745(8) 0.7104(17) 0.213(5)
O19_2 O 0.9959(4) 0.66387(10) 0.5897(3)
H13_2 H 0.995(7) 0.6442(15) 0.880(4)
H14_2 H 0.944(9) 0.7016(19) 0.851(5)
O2_2 O 0.0041(4) 0.16387(10) 0.9103(3)
H1_2 H 0.005(7) 0.1442(15) 0.620(4)
H2_2 H 0.056(9) 0.2016(19) 0.649(5)
O7_2 O 0.7134(4) 0.11607(9) 0.1794(3)
H7_2 H 0.696(9) 0.0978(18) 0.247(5)
H8_2 H 0.845(10) 0.1123(19) 0.160(5)
O8_2 O 0.1987(4) 0.19077(8) 0.2173(2)
H9_2 H 0.065(8) 0.2015(15) 0.190(4)
H10_2 H 0.255(8) 0.2104(17) 0.287(5)
O1_2 O 0.6000(4) 0.16646(9) 0.8076(2)
C1_2 C 0.8350(5) 0.16850(10) 0.7954(3)
C2_2 C 0.9236(6) 0.17597(12) 0.6417(3)
C3_2 C 0.7100(7) 0.18985(12) 0.5159(3)
H3_2 H 0.586(8) 0.1647(16) 0.513(5)
H4_2 H 0.769(9) 0.1943(18) 0.421(5)
C4_2 C 0.5868(5) 0.24140(10) 0.5330(3)
loop_
_geom_bond_atom_site_label_1
_geom_bond_atom_site_label_2
_geom_bond_site_symmetry_1
_geom_bond_site_symmetry_2
Lu3 O2 1_555 1_555
Lu3 O1 1_555 1_555
O1 C1 1_555 1_555
C1 C2 1_555 1_555
C3 C2 1_555 1_555
H3 C3 1_555 1_555
C4 C3 1_555 1_555
O4 C4 1_555 1_555
O5 Lu3 1_555 1_555
O6 Lu3 1_555 1_555
C5 O5 1_555 1_555
C6 C5 1_555 1_555
H5 C6 1_555 1_555
H6 C6 1_555 1_555
O7 Lu3 1_555 1_555
H7 O7 1_555 1_555
H8 O7 1_555 1_555
O8 Lu3 1_555 1_555
H9 O8 1_555 1_555
H10 O8 1_555 1_555
O17 Lu3 1_555 1_555
O18 Lu3 1_555 1_555
O4 Lu4 1_555 1_555
O6 C5 1_555 1_555
C8 C7 1_555 1_555
O9 C8 1_555 1_555
O10 C8 1_555 1_555
H11 C7 1_555 1_555
H12 C7 1_555 1_555
Lu5 O9 1_555 1_555
O10 Lu5 1_555 1_555
Lu4 O9_2 1_555 1_555
C8_2 C7_2 1_555 1_555
O10_2 C8_2 1_555 1_555
H12_2 C7_2 1_555 1_555
O11 C9 1_555 1_555
C10 C9 1_555 1_555
C11 C10 1_555 1_555
H15 C11 1_555 1_555
H16 C11 1_555 1_555
C12 C11 1_555 1_555
O13 C12 1_555 1_555
O14 C12 1_555 1_555
Lu5 O13 1_555 1_555
O14 Lu5 1_555 1_555
O15 Lu2 1_555 1_555
H17 O15 1_555 1_555
H18 O15 1_555 1_555
O16 Lu2 1_555 1_555
H19 O16 1_555 1_555
H20 O16 1_555 1_555
O21 Lu2 1_555 1_555
O22 Lu2 1_555 1_555
C6_2 C5_2 1_555 1_555
H6_2 C6_2 1_555 1_555
O23 C5_2 1_555 1_555
O11_2 C9_2 1_555 1_555
C10_2 C9_2 1_555 1_555
C11_2 C10_2 1_555 1_555
H15_2 C11_2 1_555 1_555
C12_2 C11_2 1_555 1_555
O21 C12_2 1_555 1_555
Lu5 O11_2 1_555 1_555
O15_2 Lu5 1_555 1_555
H17_2 O15_2 1_555 1_555
H18_2 O15_2 1_555 1_555
O16_2 Lu5 1_555 1_555
H19_2 O16_2 1_555 1_555
H20_2 O16_2 1_555 1_555
O19_2 Lu5 1_555 1_555
O7_2 Lu4 1_555 1_555
H7_2 O7_2 1_555 1_555
H8_2 O7_2 1_555 1_555
O8_2 Lu4 1_555 1_555
H9_2 O8_2 1_555 1_555
H10_2 O8_2 1_555 1_555
O1_2 C1_2 1_555 1_555
C1_2 C2_2 1_555 1_555
C3_2 C2_2 1_555 1_555
H3_2 C3_2 1_555 1_555
H4_2 C3_2 1_555 1_555
C4_2 C3_2 1_555 1_555
O17 C4_2 1_555 1_555
O18 C4_2 1_555 1_555

#END
