
###############################################################################
#
# This file contains modified crystal structure data generated from the
# MOF subset of the Cambridge Structural Database (CSD) v543 
# hosted by the Cambridge Crystallographic Data Centre (CCDC).
#
# This work is licensed under the Creative Commons
# Attribution-NonCommercial-ShareAlike 4.0 International License.
# To view a copy of this license, visit
# http://creativecommons.org/licenses/by-nc-sa/4.0/
# or send a letter to
# Creative Commons, PO Box 1866, Mountain View, CA 94042, USA.
#
# CIF created using the CSD Python API on 29 September 2022
# The structure has been converted into the P1 space group
# The structure has a 3D framework
# The original CSD entry MUSCIN is in the monoclinic crystal system
# The framework has been calculated to contain at least 10.0% void space
# The void calculation uses a probe of radius 1.32A, grid spacing 0.4
#
###############################################################################

data_MUSCIN
_chemical_formula_moiety         '(C216 H184 Ce8 N16 O84 S12)n'
_symmetry_cell_setting           triclinic
_symmetry_space_group_name_H-M   'P 1'
_symmetry_Int_Tables_number      1
_space_group_name_Hall           'P 1'
loop_
_symmetry_equiv_pos_site_id
_symmetry_equiv_pos_as_xyz
1 x,y,z
_cell_length_a                   19.711(4)
_cell_length_b                   18.928(4)
_cell_length_c                   23.826(5)
_cell_angle_alpha                90
_cell_angle_beta                 116.74(3)
_cell_angle_gamma                90
_cell_volume                     7938.6
loop_
_atom_site_label
_atom_site_type_symbol
_atom_site_fract_x
_atom_site_fract_y
_atom_site_fract_z
O2 O 0.3298(2) 0.0479(3) 0.06731(19)
C1 C 0.2836(3) 0.0416(4) 0.0905(3)
C2 C 0.2981(3) 0.0861(4) 0.1475(3)
C3 C 0.2627(4) 0.0707(3) 0.1853(3)
H1 H 0.2294 0.0326 0.1749
C4 C 0.3464(4) 0.1440(4) 0.1609(3)
H2 H 0.3701 0.1552 0.1361
C5 C 0.2758(4) 0.1108(3) 0.2379(3)
H3 H 0.2529 0.0991 0.2633
C6 C 0.3576(4) 0.1843(4) 0.2131(3)
C7 C 0.3236(4) 0.1684(3) 0.2518(3)
C8 C 0.3438(4) 0.2204(3) 0.3037(3)
C9 C 0.3951(4) 0.2725(3) 0.3040(3)
C10 C 0.3176(4) 0.2240(3) 0.3488(3)
H4 H 0.2838 0.1905 0.3500
C11 C 0.4219(4) 0.3257(4) 0.3474(3)
H5 H 0.4571 0.3583 0.3471
C12 C 0.3434(4) 0.2792(3) 0.3923(3)
H6 H 0.3256 0.2823 0.4224
C13 C 0.3942(4) 0.3292(3) 0.3924(3)
C14 C 0.4171(5) 0.3884(4) 0.4395(3)
O3 O 0.4731(4) 0.4254(4) 0.4449(3)
O4 O 0.3811(3) 0.3980(2) 0.4696(2)
S1 S 0.41444(11) 0.26127(11) 0.23875(9)
O5 O 0.3821(3) 0.3183(3) 0.1940(2)
O6 O 0.4929(3) 0.2449(3) 0.2585(2)
H36 H 0.2687 0.2960 0.0250
H40 H 0.4841 0.0431 0.1784
C54 C 0.4965(6) 0.0419(5) 0.2895(3)
H44 H 0.4963 0.0232 0.3269
H45 H 0.4610 0.0803 0.2739
H46 H 0.5465 0.0585 0.2991
Ce3 Ce 0.59626(2) 0.486238(18) 0.475842(14)
Ce4 Ce 0.40374(2) 0.513762(18) 0.524158(14)
O25 O 0.4981(2) 0.0755(2) 0.09258(18)
O27 O 0.0868(2) 0.1006(2) 0.05044(17)
Ce2 Ce 0.097502(19) 0.003948(18) 0.983586(14)
O12 O 0.0868(2) 0.3994(2) 0.55044(17)
O13 O 0.0016(2) 0.4178(2) 0.58727(18)
C29 C 0.0547(4) 0.3837(3) 0.5835(3)
C30 C 0.0822(3) 0.3182(3) 0.6244(3)
C31 C 0.1462(3) 0.2816(3) 0.6286(3)
H13 H 0.1692 0.2963 0.6040
C32 C 0.0461(3) 0.2948(3) 0.6592(3)
H14 H 0.0030 0.3178 0.6565
C33 C 0.0749(4) 0.2365(3) 0.6979(3)
C34 C 0.1762(3) 0.2243(3) 0.6683(3)
H15 H 0.2189 0.2012 0.6705
C35 C 0.1421(3) 0.2016(3) 0.7049(3)
C36 C 0.1662(3) 0.1453(3) 0.7530(3)
C37 C 0.2310(4) 0.1032(3) 0.7764(3)
H16 H 0.2654 0.1071 0.7597
C38 C 0.1161(4) 0.1373(3) 0.7802(3)
C39 C 0.1270(4) 0.0898(3) 0.8273(3)
H17 H 0.0917 0.0854 0.8431
C40 C 0.2446(3) 0.0547(3) 0.8253(3)
H18 H 0.2880 0.0267 0.8408
C41 C 0.1928(4) 0.0486(3) 0.8506(3)
O14 O 0.0353(3) 0.2446(2) 0.7906(2)
S3 S 0.03828(10) 0.19598(9) 0.74555(8)
O21 O 0.1698(3) 0.1129(2) 0.97687(19)
C49 C 0.2063(5) 0.1668(5) 0.9837(3)
H33 H 0.2577 0.1607 0.9953
N3 N 0.1821(4) 0.2330(3) 0.9768(3)
C50 C 0.2284(7) 0.2936(5) 0.9829(6)
H34 H 0.1979 0.3355 0.9739
H35 H 0.2497 0.2899 0.9538
C51 C 0.1018(4) 0.2460(5) 0.9557(4)
H37 H 0.0923 0.2959 0.9516
H38 H 0.0868 0.2270 0.9858
H39 H 0.0731 0.2235 0.9158
Ce5 Ce 0.59626(2) 0.013762(18) 0.975842(14)
Ce7 Ce 0.097502(19) 0.496052(18) 0.483586(14)
O24 O 0.3811(3) 0.1020(2) 0.9696(2)
O26 O 0.0118(2) 0.0860(2) 0.89373(18)
Ce1 Ce 0.40374(2) 0.986238(18) 0.024158(14)
O1 O 0.2281(2) 0.9995(2) 0.07096(17)
O19 O 0.1424(3) 0.8762(3) 0.00459(19)
C45 C 0.1048(6) 0.7396(5) 0.0077(5)
H23 H 0.1001 0.6893 0.0021
H25 H 0.1334 0.7503 0.0515
O20 O 0.3631(4) 0.8626(3) 0.0287(4)
C46 C 0.3868(7) 0.8043(6) 0.0280(6)
H26 H 0.4093 0.7948 0.0019
N2 N 0.3812(6) 0.7527(4) 0.0643(4)
C47 C 0.3420(7) 0.7607(7) 0.0988(5)
H27 H 0.3453 0.7180 0.1216
H28 H 0.2896 0.7707 0.0711
H29 H 0.3633 0.7991 0.1278
C48 C 0.4244(8) 0.6879(6) 0.0727(6)
H30 H 0.4489 0.6889 0.0458
H31 H 0.3907 0.6481 0.0620
H32 H 0.4620 0.6841 0.1157
O22 O 0.4509(4) 0.9536(3) 0.1430(2)
C52 C 0.4709(6) 0.9983(4) 0.1862(3)
N4 N 0.4747(4) 0.9867(3) 0.2421(2)
C53 C 0.4521(5) 0.9196(5) 0.2574(4)
H41 H 0.4592 0.9206 0.2999
H42 H 0.4826 0.8826 0.2528
H43 H 0.3996 0.9110 0.2295
O23 O 0.5269(4) 0.9254(4) 0.0551(3)
O29 O 0.0535(2) 0.9519(2) 0.05644(17)
O7 O 0.5019(2) 0.9245(2) 0.90742(18)
O8 O 0.4102(4) 0.9392(5) 0.9344(3)
C15 C 0.4376(4) 0.9108(4) 0.9024(3)
C16 C 0.3867(4) 0.8614(4) 0.8514(3)
C17 C 0.4163(4) 0.8173(4) 0.8210(3)
H7 H 0.4674 0.8211 0.8304
C18 C 0.3092(4) 0.8589(4) 0.8355(3)
H8 H 0.2885 0.8879 0.8553
C19 C 0.2647(3) 0.8121(3) 0.7896(3)
C20 C 0.2929(4) 0.7656(3) 0.7599(3)
C21 C 0.3708(4) 0.7675(4) 0.7767(3)
H9 H 0.3919 0.7363 0.7587
C22 C 0.2358(3) 0.7169(3) 0.7161(3)
C23 C 0.1629(3) 0.7275(3) 0.7118(3)
C24 C 0.2463(4) 0.6618(3) 0.6823(3)
H10 H 0.2942 0.6532 0.6850
C25 C 0.1023(3) 0.6863(3) 0.6750(3)
H11 H 0.0548 0.6944 0.6730
C26 C 0.1856(3) 0.6199(3) 0.6447(3)
H12 H 0.1930 0.5833 0.6220
C27 C 0.1132(3) 0.6314(3) 0.6401(3)
C28 C 0.0469(4) 0.5859(3) 0.5983(3)
S2 S 0.16448(9) 0.80209(9) 0.75846(7)
O10 O 0.1261(3) 0.8615(2) 0.7179(2)
O11 O 0.1433(3) 0.7842(3) 0.80674(19)
C42 C 0.2065(4) 0.9979(3) 0.9038(3)
O16 O 0.2734(3) 0.9767(2) 0.93622(19)
O17 O 0.1500(2) 0.9793(2) 0.91122(17)
O18 O 0.0535(2) 0.5481(2) 0.55644(17)
C43 C 0.1552(5) 0.8334(4) 0.9745(3)
H19 H 0.1761 0.8493 0.9488
N1 N 0.1427(5) 0.7674(4) 0.9743(3)
C44 C 0.1658(9) 0.7192(8) 0.9389(6)
H20 H 0.1528 0.6717 0.9445
H21 H 0.2198 0.7225 0.9535
H22 H 0.1403 0.7313 0.8951
H24 H 0.0551 0.7603 0.9920
O15 O 0.9699(3) 0.1563(3) 0.7072(2)
Ce8 Ce 0.902498(19) 0.503948(18) 0.516414(14)
O30 O 0.9465(2) 0.0481(2) 0.94356(17)
O9 O 0.9882(2) 0.5860(2) 0.60627(18)
O28 O 0.9984(2) 0.9178(2) 0.91273(18)
O15_2 O 0.0301(3) 0.6563(3) 0.7928(2)
Ce7_2 Ce 0.902498(19) 0.996052(18) 0.016414(14)
O1_2 O 0.7719(2) 0.4995(2) 0.42904(17)
O2_2 O 0.6702(2) 0.5479(3) 0.43269(19)
C1_2 C 0.7164(3) 0.5416(4) 0.4095(3)
C2_2 C 0.7019(3) 0.5861(4) 0.3525(3)
C3_2 C 0.7373(4) 0.5707(3) 0.3147(3)
H1_2 H 0.7706 0.5326 0.3251
C4_2 C 0.6536(4) 0.6440(4) 0.3391(3)
H2_2 H 0.6299 0.6552 0.3639
C5_2 C 0.7242(4) 0.6108(3) 0.2621(3)
H3_2 H 0.7471 0.5991 0.2367
C6_2 C 0.6424(4) 0.6843(4) 0.2869(3)
C7_2 C 0.6764(4) 0.6684(3) 0.2482(3)
C8_2 C 0.6562(4) 0.7204(3) 0.1963(3)
C9_2 C 0.6049(4) 0.7725(3) 0.1960(3)
C10_2 C 0.6824(4) 0.7240(3) 0.1512(3)
H4_2 H 0.7162 0.6905 0.1500
C11_2 C 0.5781(4) 0.8257(4) 0.1526(3)
H5_2 H 0.5429 0.8583 0.1529
C12_2 C 0.6566(4) 0.7792(3) 0.1077(3)
H6_2 H 0.6744 0.7823 0.0776
C13_2 C 0.6058(4) 0.8292(3) 0.1076(3)
C14_2 C 0.5829(5) 0.8884(4) 0.0605(3)
O4_2 O 0.6189(3) 0.8980(2) 0.0304(2)
S1_2 S 0.58556(11) 0.76127(11) 0.26125(9)
O5_2 O 0.6179(3) 0.8183(3) 0.3060(2)
O6_2 O 0.5071(3) 0.7449(3) 0.2415(2)
O7_2 O 0.4981(2) 0.4245(2) 0.59258(18)
O8_2 O 0.5898(4) 0.4392(5) 0.5656(3)
C15_2 C 0.5624(4) 0.4108(4) 0.5976(3)
C16_2 C 0.6133(4) 0.3614(4) 0.6486(3)
C17_2 C 0.5837(4) 0.3173(4) 0.6790(3)
H7_2 H 0.5326 0.3211 0.6696
C18_2 C 0.6908(4) 0.3589(4) 0.6645(3)
H8_2 H 0.7115 0.3879 0.6447
C19_2 C 0.7353(3) 0.3121(3) 0.7104(3)
C20_2 C 0.7071(4) 0.2656(3) 0.7401(3)
C21_2 C 0.6292(4) 0.2675(4) 0.7233(3)
H9_2 H 0.6081 0.2363 0.7413
C22_2 C 0.7642(3) 0.2169(3) 0.7839(3)
C23_2 C 0.8371(3) 0.2275(3) 0.7882(3)
C24_2 C 0.7537(4) 0.1618(3) 0.8177(3)
H10_2 H 0.7058 0.1532 0.8150
C25_2 C 0.8977(3) 0.1863(3) 0.8250(3)
H11_2 H 0.9452 0.1944 0.8270
C26_2 C 0.8144(3) 0.1199(3) 0.8553(3)
H12_2 H 0.8070 0.0833 0.8780
C27_2 C 0.8868(3) 0.1314(3) 0.8599(3)
C28_2 C 0.9531(4) 0.0859(3) 0.9017(3)
S2_2 S 0.83552(9) 0.30209(9) 0.74154(7)
O10_2 O 0.8739(3) 0.3615(2) 0.7821(2)
O11_2 O 0.8567(3) 0.2842(3) 0.69326(19)
O12_2 O 0.9132(2) 0.8994(2) 0.94956(17)
C29_2 C 0.9453(4) 0.8837(3) 0.9165(3)
C30_2 C 0.9178(3) 0.8182(3) 0.8756(3)
C31_2 C 0.8538(3) 0.7816(3) 0.8714(3)
H13_2 H 0.8308 0.7963 0.8960
C32_2 C 0.9539(3) 0.7948(3) 0.8408(3)
H14_2 H 0.9970 0.8178 0.8435
C33_2 C 0.9251(4) 0.7365(3) 0.8021(3)
C34_2 C 0.8238(3) 0.7243(3) 0.8317(3)
H15_2 H 0.7811 0.7012 0.8295
C35_2 C 0.8579(3) 0.7016(3) 0.7951(3)
C36_2 C 0.8338(3) 0.6453(3) 0.7470(3)
C37_2 C 0.7690(4) 0.6032(3) 0.7236(3)
H16_2 H 0.7346 0.6071 0.7403
C38_2 C 0.8839(4) 0.6373(3) 0.7198(3)
C39_2 C 0.8730(4) 0.5898(3) 0.6727(3)
H17_2 H 0.9083 0.5854 0.6569
C40_2 C 0.7554(3) 0.5547(3) 0.6747(3)
H18_2 H 0.7120 0.5267 0.6592
C41_2 C 0.8072(4) 0.5486(3) 0.6494(3)
C42_2 C 0.7935(4) 0.4979(3) 0.5962(3)
O14_2 O 0.9647(3) 0.7446(2) 0.7094(2)
S3_2 S 0.96172(10) 0.69598(9) 0.75445(8)
O16_2 O 0.7266(3) 0.4767(2) 0.56378(19)
O17_2 O 0.8500(2) 0.4793(2) 0.58878(17)
O19_2 O 0.8576(3) 0.3762(3) 0.49541(19)
C43_2 C 0.8448(5) 0.3334(4) 0.5255(3)
H19_2 H 0.8239 0.3493 0.5512
N1_2 N 0.8573(5) 0.2674(4) 0.5257(3)
C44_2 C 0.8342(9) 0.2192(8) 0.5611(6)
H20_2 H 0.8472 0.1717 0.5555
H21_2 H 0.7802 0.2225 0.5465
H22_2 H 0.8597 0.2313 0.6049
C45_2 C 0.8952(6) 0.2396(5) 0.4923(5)
H23_2 H 0.8999 0.1893 0.4979
H24_2 H 0.9449 0.2603 0.5080
H25_2 H 0.8666 0.2503 0.4485
O20_2 O 0.6369(4) 0.3626(3) 0.4713(4)
C46_2 C 0.6132(7) 0.3043(6) 0.4720(6)
H26_2 H 0.5907 0.2948 0.4981
N2_2 N 0.6188(6) 0.2527(4) 0.4357(4)
C47_2 C 0.6580(7) 0.2607(7) 0.4012(5)
H27_2 H 0.6547 0.2180 0.3784
H28_2 H 0.7104 0.2707 0.4289
H29_2 H 0.6367 0.2991 0.3722
C48_2 C 0.5756(8) 0.1879(6) 0.4273(6)
H30_2 H 0.5511 0.1889 0.4542
H31_2 H 0.6093 0.1481 0.4380
H32_2 H 0.5380 0.1841 0.3843
O21_2 O 0.8302(3) 0.6129(2) 0.52313(19)
C49_2 C 0.7937(5) 0.6668(5) 0.5163(3)
H33_2 H 0.7423 0.6607 0.5047
N3_2 N 0.8179(4) 0.7330(3) 0.5232(3)
C50_2 C 0.7716(7) 0.7936(5) 0.5171(6)
H34_2 H 0.8021 0.8355 0.5261
H35_2 H 0.7503 0.7899 0.5462
H36_2 H 0.7313 0.7960 0.4750
C51_2 C 0.8982(4) 0.7460(5) 0.5443(4)
H37_2 H 0.9077 0.7959 0.5484
H38_2 H 0.9132 0.7270 0.5142
H39_2 H 0.9269 0.7235 0.5842
O22_2 O 0.5491(4) 0.4536(3) 0.3570(2)
C52_2 C 0.5291(6) 0.4983(4) 0.3138(3)
H40_2 H 0.5159 0.5431 0.3216
N4_2 N 0.5253(4) 0.4867(3) 0.2579(2)
C53_2 C 0.5479(5) 0.4196(5) 0.2426(4)
H41_2 H 0.5408 0.4206 0.2001
H42_2 H 0.5174 0.3826 0.2472
H43_2 H 0.6004 0.4110 0.2705
C54_2 C 0.5035(6) 0.5419(5) 0.2105(3)
H44_2 H 0.5037 0.5232 0.1731
H45_2 H 0.5390 0.5803 0.2261
H46_2 H 0.4535 0.5585 0.2009
O24_2 O 0.6189(3) 0.6020(2) 0.5304(2)
O25_2 O 0.5019(2) 0.5755(2) 0.40742(18)
O27_2 O 0.9132(2) 0.6006(2) 0.44956(17)
O29_2 O 0.9465(2) 0.4519(2) 0.44356(17)
O9_2 O 0.0118(2) 0.4140(2) 0.39373(18)
O28_2 O 0.0016(2) 0.0822(2) 0.08727(18)
O15_3 O 0.0301(3) 0.8437(3) 0.2928(2)
O8_3 O 0.5898(4) 0.0608(5) 0.0656(3)
C15_3 C 0.5624(4) 0.0892(4) 0.0976(3)
C16_3 C 0.6133(4) 0.1386(4) 0.1486(3)
C17_3 C 0.5837(4) 0.1827(4) 0.1790(3)
H7_3 H 0.5326 0.1789 0.1696
C18_3 C 0.6908(4) 0.1411(4) 0.1645(3)
H8_3 H 0.7115 0.1121 0.1447
C19_3 C 0.7353(3) 0.1879(3) 0.2104(3)
C20_3 C 0.7071(4) 0.2344(3) 0.2401(3)
C21_3 C 0.6292(4) 0.2325(4) 0.2233(3)
H9_3 H 0.6081 0.2637 0.2413
C22_3 C 0.7642(3) 0.2831(3) 0.2839(3)
C23_3 C 0.8371(3) 0.2725(3) 0.2882(3)
C24_3 C 0.7537(4) 0.3382(3) 0.3177(3)
H10_3 H 0.7058 0.3468 0.3150
C25_3 C 0.8977(3) 0.3137(3) 0.3250(3)
H11_3 H 0.9452 0.3056 0.3270
C26_3 C 0.8144(3) 0.3801(3) 0.3553(3)
H12_3 H 0.8070 0.4167 0.3780
C27_3 C 0.8868(3) 0.3686(3) 0.3599(3)
C28_3 C 0.9531(4) 0.4141(3) 0.4017(3)
S2_3 S 0.83552(9) 0.19791(9) 0.24154(7)
O10_3 O 0.8739(3) 0.1385(2) 0.2821(2)
O11_3 O 0.8567(3) 0.2158(3) 0.19326(19)
C42_3 C 0.7935(4) 0.0021(3) 0.0962(3)
O16_3 O 0.7266(3) 0.0233(2) 0.06378(19)
O17_3 O 0.8500(2) 0.0207(2) 0.08878(17)
C43_3 C 0.8448(5) 0.1666(4) 0.0255(3)
H19_3 H 0.8239 0.1507 0.0512
N1_3 N 0.8573(5) 0.2326(4) 0.0257(3)
C44_3 C 0.8342(9) 0.2808(8) 0.0611(6)
H20_3 H 0.8472 0.3283 0.0555
H21_3 H 0.7802 0.2775 0.0465
H22_3 H 0.8597 0.2687 0.1049
H24_3 H 0.9449 0.2397 0.0080
O1_3 O 0.7719(2) 0.0005(2) 0.92904(17)
O19_3 O 0.8576(3) 0.1238(3) 0.99541(19)
C45_3 C 0.8952(6) 0.2604(5) 0.9923(5)
H23_3 H 0.8999 0.3107 0.9979
H25_3 H 0.8666 0.2497 0.9485
O20_3 O 0.6369(4) 0.1374(3) 0.9713(4)
C46_3 C 0.6132(7) 0.1957(6) 0.9720(6)
H26_3 H 0.5907 0.2052 0.9981
N2_3 N 0.6188(6) 0.2473(4) 0.9357(4)
C47_3 C 0.6580(7) 0.2393(7) 0.9012(5)
H27_3 H 0.6547 0.2820 0.8784
H28_3 H 0.7104 0.2293 0.9289
H29_3 H 0.6367 0.2009 0.8722
C48_3 C 0.5756(8) 0.3121(6) 0.9273(6)
H30_3 H 0.5511 0.3111 0.9542
H31_3 H 0.6093 0.3519 0.9380
H32_3 H 0.5380 0.3159 0.8843
O22_3 O 0.5491(4) 0.0464(3) 0.8570(2)
C52_3 C 0.5291(6) 0.0017(4) 0.8138(3)
N4_3 N 0.5253(4) 0.0133(3) 0.7579(2)
C53_3 C 0.5479(5) 0.0804(5) 0.7426(4)
H41_3 H 0.5408 0.0794 0.7001
H42_3 H 0.5174 0.1174 0.7472
H43_3 H 0.6004 0.0890 0.7705
O23_2 O 0.4731(4) 0.0746(4) 0.9449(3)
O13_2 O 0.9984(2) 0.5822(2) 0.41273(18)
C29_3 C 0.9453(4) 0.6163(3) 0.4165(3)
C30_3 C 0.9178(3) 0.6818(3) 0.3756(3)
C31_3 C 0.8538(3) 0.7184(3) 0.3714(3)
H13_3 H 0.8308 0.7037 0.3960
C32_3 C 0.9539(3) 0.7052(3) 0.3408(3)
H14_3 H 0.9970 0.6822 0.3435
C33_3 C 0.9251(4) 0.7635(3) 0.3021(3)
C34_3 C 0.8238(3) 0.7757(3) 0.3317(3)
H15_3 H 0.7811 0.7988 0.3295
C35_3 C 0.8579(3) 0.7984(3) 0.2951(3)
C36_3 C 0.8338(3) 0.8547(3) 0.2470(3)
C37_3 C 0.7690(4) 0.8968(3) 0.2236(3)
H16_3 H 0.7346 0.8929 0.2403
C38_3 C 0.8839(4) 0.8627(3) 0.2198(3)
C39_3 C 0.8730(4) 0.9102(3) 0.1727(3)
H17_3 H 0.9083 0.9146 0.1569
C40_3 C 0.7554(3) 0.9453(3) 0.1747(3)
H18_3 H 0.7120 0.9733 0.1592
C41_3 C 0.8072(4) 0.9514(3) 0.1494(3)
O14_3 O 0.9647(3) 0.7554(2) 0.2094(2)
S3_3 S 0.96172(10) 0.80402(9) 0.25445(8)
O21_3 O 0.8302(3) 0.8871(2) 0.02313(19)
C49_3 C 0.7937(5) 0.8332(5) 0.0163(3)
H33_3 H 0.7423 0.8393 0.0047
N3_3 N 0.8179(4) 0.7670(3) 0.0232(3)
C50_3 C 0.7716(7) 0.7064(5) 0.0171(6)
H34_3 H 0.8021 0.6645 0.0261
H35_3 H 0.7503 0.7101 0.0462
C51_3 C 0.8982(4) 0.7540(5) 0.0443(4)
H37_3 H 0.9077 0.7041 0.0484
H38_3 H 0.9132 0.7730 0.0142
H39_3 H 0.9269 0.7765 0.0842
O26_2 O 0.9882(2) 0.9140(2) 0.10627(18)
O2_3 O 0.6702(2) 0.9521(3) 0.93269(19)
C1_3 C 0.7164(3) 0.9584(4) 0.9095(3)
C2_3 C 0.7019(3) 0.9139(4) 0.8525(3)
C3_3 C 0.7373(4) 0.9293(3) 0.8147(3)
H1_3 H 0.7706 0.9674 0.8251
C4_3 C 0.6536(4) 0.8560(4) 0.8391(3)
H2_3 H 0.6299 0.8448 0.8639
C5_3 C 0.7242(4) 0.8892(3) 0.7621(3)
H3_3 H 0.7471 0.9009 0.7367
C6_3 C 0.6424(4) 0.8157(4) 0.7869(3)
C7_3 C 0.6764(4) 0.8316(3) 0.7482(3)
C8_3 C 0.6562(4) 0.7796(3) 0.6963(3)
C9_3 C 0.6049(4) 0.7275(3) 0.6960(3)
C10_3 C 0.6824(4) 0.7760(3) 0.6512(3)
H4_3 H 0.7162 0.8095 0.6500
C11_3 C 0.5781(4) 0.6743(4) 0.6526(3)
H5_3 H 0.5429 0.6417 0.6529
C12_3 C 0.6566(4) 0.7208(3) 0.6077(3)
H6_3 H 0.6744 0.7177 0.5776
C13_3 C 0.6058(4) 0.6708(3) 0.6076(3)
C14_3 C 0.5829(5) 0.6116(4) 0.5605(3)
O3_2 O 0.5269(4) 0.5746(4) 0.5551(3)
S1_3 S 0.58556(11) 0.73873(11) 0.76125(9)
O5_3 O 0.6179(3) 0.6817(3) 0.8060(2)
O6_3 O 0.5071(3) 0.7551(3) 0.7415(2)
H36_3 H 0.7313 0.7040 0.9750
H40_3 H 0.5159 0.9569 0.8216
C54_3 C 0.5035(6) 0.9581(5) 0.7105(3)
H44_3 H 0.5037 0.9768 0.6731
H45_3 H 0.5390 0.9197 0.7261
H46_3 H 0.4535 0.9415 0.7009
O1_4 O 0.2281(2) 0.5005(2) 0.57096(17)
O2_4 O 0.3298(2) 0.4521(3) 0.56731(19)
C1_4 C 0.2836(3) 0.4584(4) 0.5905(3)
C2_4 C 0.2981(3) 0.4139(4) 0.6475(3)
C3_4 C 0.2627(4) 0.4293(3) 0.6853(3)
H1_4 H 0.2294 0.4674 0.6749
C4_4 C 0.3464(4) 0.3560(4) 0.6609(3)
H2_4 H 0.3701 0.3448 0.6361
C5_4 C 0.2758(4) 0.3892(3) 0.7379(3)
H3_4 H 0.2529 0.4009 0.7633
C6_4 C 0.3576(4) 0.3157(4) 0.7131(3)
C7_4 C 0.3236(4) 0.3316(3) 0.7518(3)
C8_4 C 0.3438(4) 0.2796(3) 0.8037(3)
C9_4 C 0.3951(4) 0.2275(3) 0.8040(3)
C10_4 C 0.3176(4) 0.2760(3) 0.8488(3)
H4_4 H 0.2838 0.3095 0.8500
C11_4 C 0.4219(4) 0.1743(4) 0.8474(3)
H5_4 H 0.4571 0.1417 0.8471
C12_4 C 0.3434(4) 0.2208(3) 0.8923(3)
H6_4 H 0.3256 0.2177 0.9224
C13_4 C 0.3942(4) 0.1708(3) 0.8924(3)
C14_4 C 0.4171(5) 0.1116(4) 0.9395(3)
S1_4 S 0.41444(11) 0.23873(11) 0.73875(9)
O5_4 O 0.3821(3) 0.1817(3) 0.6940(2)
O6_4 O 0.4929(3) 0.2551(3) 0.7585(2)
O8_4 O 0.4102(4) 0.5608(5) 0.4344(3)
C15_4 C 0.4376(4) 0.5892(4) 0.4024(3)
C16_4 C 0.3867(4) 0.6386(4) 0.3514(3)
C17_4 C 0.4163(4) 0.6827(4) 0.3210(3)
H7_4 H 0.4674 0.6789 0.3304
C18_4 C 0.3092(4) 0.6411(4) 0.3355(3)
H8_4 H 0.2885 0.6121 0.3553
C19_4 C 0.2647(3) 0.6879(3) 0.2896(3)
C20_4 C 0.2929(4) 0.7344(3) 0.2599(3)
C21_4 C 0.3708(4) 0.7325(4) 0.2767(3)
H9_4 H 0.3919 0.7637 0.2587
C22_4 C 0.2358(3) 0.7831(3) 0.2161(3)
C23_4 C 0.1629(3) 0.7725(3) 0.2118(3)
C24_4 C 0.2463(4) 0.8382(3) 0.1823(3)
H10_4 H 0.2942 0.8468 0.1850
C25_4 C 0.1023(3) 0.8137(3) 0.1750(3)
H11_4 H 0.0548 0.8056 0.1730
C26_4 C 0.1856(3) 0.8801(3) 0.1447(3)
H12_4 H 0.1930 0.9167 0.1220
C27_4 C 0.1132(3) 0.8686(3) 0.1401(3)
C28_4 C 0.0469(4) 0.9141(3) 0.0983(3)
S2_4 S 0.16448(9) 0.69791(9) 0.25846(7)
O10_4 O 0.1261(3) 0.6385(2) 0.2179(2)
O11_4 O 0.1433(3) 0.7158(3) 0.30674(19)
C29_4 C 0.0547(4) 0.1163(3) 0.0835(3)
C30_4 C 0.0822(3) 0.1818(3) 0.1244(3)
C31_4 C 0.1462(3) 0.2184(3) 0.1286(3)
H13_4 H 0.1692 0.2037 0.1040
C32_4 C 0.0461(3) 0.2052(3) 0.1592(3)
H14_4 H 0.0030 0.1822 0.1565
C33_4 C 0.0749(4) 0.2635(3) 0.1979(3)
C34_4 C 0.1762(3) 0.2757(3) 0.1683(3)
H15_4 H 0.2189 0.2988 0.1705
C35_4 C 0.1421(3) 0.2984(3) 0.2049(3)
C36_4 C 0.1662(3) 0.3547(3) 0.2530(3)
C37_4 C 0.2310(4) 0.3968(3) 0.2764(3)
H16_4 H 0.2654 0.3929 0.2597
C38_4 C 0.1161(4) 0.3627(3) 0.2802(3)
C39_4 C 0.1270(4) 0.4102(3) 0.3273(3)
H17_4 H 0.0917 0.4146 0.3431
C40_4 C 0.2446(3) 0.4453(3) 0.3253(3)
H18_4 H 0.2880 0.4733 0.3408
C41_4 C 0.1928(4) 0.4514(3) 0.3506(3)
C42_4 C 0.2065(4) 0.5021(3) 0.4038(3)
O14_4 O 0.0353(3) 0.2554(2) 0.2906(2)
S3_4 S 0.03828(10) 0.30402(9) 0.24555(8)
O16_4 O 0.2734(3) 0.5233(2) 0.43622(19)
O17_4 O 0.1500(2) 0.5207(2) 0.41122(17)
O19_4 O 0.1424(3) 0.6238(3) 0.50459(19)
C43_4 C 0.1552(5) 0.6666(4) 0.4745(3)
H19_4 H 0.1761 0.6507 0.4488
N1_4 N 0.1427(5) 0.7326(4) 0.4743(3)
C44_4 C 0.1658(9) 0.7808(8) 0.4389(6)
H20_4 H 0.1528 0.8283 0.4445
H21_4 H 0.2198 0.7775 0.4535
H22_4 H 0.1403 0.7687 0.3951
C45_4 C 0.1048(6) 0.7604(5) 0.5077(5)
H23_4 H 0.1001 0.8107 0.5021
H24_4 H 0.0551 0.7397 0.4920
H25_4 H 0.1334 0.7497 0.5515
O20_4 O 0.3631(4) 0.6374(3) 0.5287(4)
C46_4 C 0.3868(7) 0.6957(6) 0.5280(6)
H26_4 H 0.4093 0.7052 0.5019
N2_4 N 0.3812(6) 0.7473(4) 0.5643(4)
C47_4 C 0.3420(7) 0.7393(7) 0.5988(5)
H27_4 H 0.3453 0.7820 0.6216
H28_4 H 0.2896 0.7293 0.5711
H29_4 H 0.3633 0.7009 0.6278
C48_4 C 0.4244(8) 0.8121(6) 0.5727(6)
H30_4 H 0.4489 0.8111 0.5458
H31_4 H 0.3907 0.8519 0.5620
H32_4 H 0.4620 0.8159 0.6157
O21_4 O 0.1698(3) 0.3871(2) 0.47687(19)
C49_4 C 0.2063(5) 0.3332(5) 0.4837(3)
H33_4 H 0.2577 0.3393 0.4953
N3_4 N 0.1821(4) 0.2670(3) 0.4768(3)
C50_4 C 0.2284(7) 0.2064(5) 0.4829(6)
H34_4 H 0.1979 0.1645 0.4739
H35_4 H 0.2497 0.2101 0.4538
H36_4 H 0.2687 0.2040 0.5250
C51_4 C 0.1018(4) 0.2540(5) 0.4557(4)
H37_4 H 0.0923 0.2041 0.4516
H38_4 H 0.0868 0.2730 0.4858
H39_4 H 0.0731 0.2765 0.4158
O22_4 O 0.4509(4) 0.5464(3) 0.6430(2)
C52_4 C 0.4709(6) 0.5017(4) 0.6862(3)
H40_4 H 0.4841 0.4569 0.6784
N4_4 N 0.4747(4) 0.5133(3) 0.7421(2)
C53_4 C 0.4521(5) 0.5804(5) 0.7574(4)
H41_4 H 0.4592 0.5794 0.7999
H42_4 H 0.4826 0.6174 0.7528
H43_4 H 0.3996 0.5890 0.7295
C54_4 C 0.4965(6) 0.4581(5) 0.7895(3)
H44_4 H 0.4963 0.4768 0.8269
H45_4 H 0.4610 0.4197 0.7739
H46_4 H 0.5465 0.4415 0.7991
O15_4 O 0.9699(3) 0.3437(3) 0.2072(2)
loop_
_geom_bond_atom_site_label_1
_geom_bond_atom_site_label_2
_geom_bond_site_symmetry_1
_geom_bond_site_symmetry_2
O2 C1 1_555 1_555
C1 C2 1_555 1_555
C2 C3 1_555 1_555
C3 H1 1_555 1_555
C4 C2 1_555 1_555
H2 C4 1_555 1_555
C5 C3 1_555 1_555
H3 C5 1_555 1_555
C6 C4 1_555 1_555
C7 C5 1_555 1_555
C8 C7 1_555 1_555
C9 C8 1_555 1_555
C10 C8 1_555 1_555
H4 C10 1_555 1_555
C11 C9 1_555 1_555
H5 C11 1_555 1_555
C12 C10 1_555 1_555
H6 C12 1_555 1_555
C13 C11 1_555 1_555
C14 C13 1_555 1_555
O3 C14 1_555 1_555
O4 C14 1_555 1_555
S1 C6 1_555 1_555
O5 S1 1_555 1_555
O6 S1 1_555 1_555
H44 C54 1_555 1_555
H45 C54 1_555 1_555
H46 C54 1_555 1_555
Ce3 O3 1_555 1_555
Ce4 O4 1_555 1_555
C6 C7 1_555 1_555
C9 S1 1_555 1_555
C12 C13 1_555 1_555
O12 C29 1_555 1_555
O13 C29 1_555 1_555
C29 C30 1_555 1_555
C30 C31 1_555 1_555
C31 H13 1_555 1_555
C32 C30 1_555 1_555
H14 C32 1_555 1_555
C33 C32 1_555 1_555
C34 C31 1_555 1_555
H15 C34 1_555 1_555
C35 C33 1_555 1_555
C36 C35 1_555 1_555
C37 C36 1_555 1_555
H16 C37 1_555 1_555
C38 C36 1_555 1_555
C39 C38 1_555 1_555
H17 C39 1_555 1_555
C40 C37 1_555 1_555
H18 C40 1_555 1_555
C41 C39 1_555 1_555
O14 S3 1_555 1_555
S3 C33 1_555 1_555
O21 Ce2 1_555 1_555
C49 O21 1_555 1_555
H33 C49 1_555 1_555
N3 C49 1_555 1_555
C50 N3 1_555 1_555
H34 C50 1_555 1_555
H35 C50 1_555 1_555
C51 N3 1_555 1_555
H37 C51 1_555 1_555
H38 C51 1_555 1_555
H39 C51 1_555 1_555
Ce7 O12 1_555 1_555
O26 Ce2 1_555 1_555
C34 C35 1_555 1_555
C38 S3 1_555 1_555
C40 C41 1_555 1_555
H23 C45 1_555 1_555
H25 C45 1_555 1_555
O20 Ce1 1_555 1_555
C46 O20 1_555 1_555
H26 C46 1_555 1_555
N2 C46 1_555 1_555
C47 N2 1_555 1_555
H27 C47 1_555 1_555
H28 C47 1_555 1_555
H29 C47 1_555 1_555
C48 N2 1_555 1_555
H30 C48 1_555 1_555
H31 C48 1_555 1_555
H32 C48 1_555 1_555
O22 Ce1 1_555 1_555
C52 O22 1_555 1_555
N4 C52 1_555 1_555
C53 N4 1_555 1_555
H41 C53 1_555 1_555
H42 C53 1_555 1_555
H43 C53 1_555 1_555
O23 Ce1 1_555 1_555
O7 C15 1_555 1_555
C15 O8 1_555 1_555
C16 C15 1_555 1_555
C17 C16 1_555 1_555
H7 C17 1_555 1_555
C18 C16 1_555 1_555
H8 C18 1_555 1_555
C19 C18 1_555 1_555
C20 C19 1_555 1_555
C21 C17 1_555 1_555
H9 C21 1_555 1_555
C22 C20 1_555 1_555
C23 C22 1_555 1_555
C24 C22 1_555 1_555
H10 C24 1_555 1_555
C25 C23 1_555 1_555
H11 C25 1_555 1_555
C26 C24 1_555 1_555
H12 C26 1_555 1_555
C27 C25 1_555 1_555
C28 C27 1_555 1_555
S2 C19 1_555 1_555
O10 S2 1_555 1_555
O11 S2 1_555 1_555
O18 C28 1_555 1_555
H19 C43 1_555 1_555
N1 C43 1_555 1_555
C44 N1 1_555 1_555
H20 C44 1_555 1_555
H21 C44 1_555 1_555
H22 C44 1_555 1_555
Ce7 O18 1_555 1_555
C20 C21 1_555 1_555
C23 S2 1_555 1_555
C26 C27 1_555 1_555
C42 O16 1_555 1_555
C42 O17 1_555 1_555
Ce8 O9 1_555 1_555
Ce3 O2_2 1_555 1_555
Ce8 O1_2 1_555 1_555
O1_2 C1_2 1_555 1_555
O2_2 C1_2 1_555 1_555
C1_2 C2_2 1_555 1_555
C2_2 C3_2 1_555 1_555
C3_2 H1_2 1_555 1_555
C4_2 C2_2 1_555 1_555
H2_2 C4_2 1_555 1_555
C5_2 C3_2 1_555 1_555
H3_2 C5_2 1_555 1_555
C6_2 C4_2 1_555 1_555
C7_2 C5_2 1_555 1_555
C8_2 C7_2 1_555 1_555
C9_2 C8_2 1_555 1_555
C10_2 C8_2 1_555 1_555
H4_2 C10_2 1_555 1_555
C11_2 C9_2 1_555 1_555
H5_2 C11_2 1_555 1_555
C12_2 C10_2 1_555 1_555
H6_2 C12_2 1_555 1_555
C13_2 C11_2 1_555 1_555
C14_2 C13_2 1_555 1_555
O23 C14_2 1_555 1_555
O4_2 C14_2 1_555 1_555
S1_2 C6_2 1_555 1_555
O5_2 S1_2 1_555 1_555
O6_2 S1_2 1_555 1_555
O7_2 C15_2 1_555 1_555
O8_2 Ce3 1_555 1_555
C15_2 O8_2 1_555 1_555
C16_2 C15_2 1_555 1_555
C17_2 C16_2 1_555 1_555
H7_2 C17_2 1_555 1_555
C18_2 C16_2 1_555 1_555
H8_2 C18_2 1_555 1_555
C19_2 C18_2 1_555 1_555
C20_2 C19_2 1_555 1_555
C21_2 C17_2 1_555 1_555
H9_2 C21_2 1_555 1_555
C22_2 C20_2 1_555 1_555
C23_2 C22_2 1_555 1_555
C24_2 C22_2 1_555 1_555
H10_2 C24_2 1_555 1_555
C25_2 C23_2 1_555 1_555
H11_2 C25_2 1_555 1_555
C26_2 C24_2 1_555 1_555
H12_2 C26_2 1_555 1_555
C27_2 C25_2 1_555 1_555
C28_2 C27_2 1_555 1_555
S2_2 C19_2 1_555 1_555
O10_2 S2_2 1_555 1_555
O11_2 S2_2 1_555 1_555
O12_2 C29_2 1_555 1_555
O28 C29_2 1_555 1_555
C29_2 C30_2 1_555 1_555
C30_2 C31_2 1_555 1_555
C31_2 H13_2 1_555 1_555
C32_2 C30_2 1_555 1_555
H14_2 C32_2 1_555 1_555
C33_2 C32_2 1_555 1_555
C34_2 C31_2 1_555 1_555
H15_2 C34_2 1_555 1_555
C35_2 C33_2 1_555 1_555
C36_2 C35_2 1_555 1_555
C37_2 C36_2 1_555 1_555
H16_2 C37_2 1_555 1_555
C38_2 C36_2 1_555 1_555
C39_2 C38_2 1_555 1_555
H17_2 C39_2 1_555 1_555
C40_2 C37_2 1_555 1_555
H18_2 C40_2 1_555 1_555
C41_2 C39_2 1_555 1_555
C42_2 C41_2 1_555 1_555
O14_2 S3_2 1_555 1_555
S3_2 C33_2 1_555 1_555
O16_2 Ce3 1_555 1_555
O17_2 Ce8 1_555 1_555
O30 C28_2 1_555 1_555
O19_2 Ce8 1_555 1_555
C43_2 O19_2 1_555 1_555
H19_2 C43_2 1_555 1_555
N1_2 C43_2 1_555 1_555
C44_2 N1_2 1_555 1_555
H20_2 C44_2 1_555 1_555
H21_2 C44_2 1_555 1_555
H22_2 C44_2 1_555 1_555
C45_2 N1_2 1_555 1_555
H23_2 C45_2 1_555 1_555
H24_2 C45_2 1_555 1_555
H25_2 C45_2 1_555 1_555
O20_2 Ce3 1_555 1_555
C46_2 O20_2 1_555 1_555
H26_2 C46_2 1_555 1_555
N2_2 C46_2 1_555 1_555
C47_2 N2_2 1_555 1_555
H27_2 C47_2 1_555 1_555
H28_2 C47_2 1_555 1_555
H29_2 C47_2 1_555 1_555
C48_2 N2_2 1_555 1_555
H30_2 C48_2 1_555 1_555
H31_2 C48_2 1_555 1_555
H32_2 C48_2 1_555 1_555
O21_2 Ce8 1_555 1_555
C49_2 O21_2 1_555 1_555
H33_2 C49_2 1_555 1_555
N3_2 C49_2 1_555 1_555
C50_2 N3_2 1_555 1_555
H34_2 C50_2 1_555 1_555
H35_2 C50_2 1_555 1_555
H36_2 C50_2 1_555 1_555
C51_2 N3_2 1_555 1_555
H37_2 C51_2 1_555 1_555
H38_2 C51_2 1_555 1_555
H39_2 C51_2 1_555 1_555
O22_2 Ce3 1_555 1_555
C52_2 O22_2 1_555 1_555
H40_2 C52_2 1_555 1_555
N4_2 C52_2 1_555 1_555
C53_2 N4_2 1_555 1_555
H41_2 C53_2 1_555 1_555
H42_2 C53_2 1_555 1_555
H43_2 C53_2 1_555 1_555
C54_2 N4_2 1_555 1_555
H44_2 C54_2 1_555 1_555
H45_2 C54_2 1_555 1_555
H46_2 C54_2 1_555 1_555
Ce4 O7_2 1_555 1_555
O24_2 Ce3 1_555 1_555
O25_2 Ce3 1_555 1_555
O27_2 Ce8 1_555 1_555
O29_2 Ce8 1_555 1_555
C6_2 C7_2 1_555 1_555
C9_2 S1_2 1_555 1_555
C12_2 C13_2 1_555 1_555
C20_2 C21_2 1_555 1_555
C23_2 S2_2 1_555 1_555
C26_2 C27_2 1_555 1_555
C34_2 C35_2 1_555 1_555
C38_2 S3_2 1_555 1_555
C40_2 C41_2 1_555 1_555
C42_2 O16_2 1_555 1_555
C42_2 O17_2 1_555 1_555
Ce7 O9_2 1_555 1_555
O25 C15_3 1_555 1_555
C15_3 O8_3 1_555 1_555
C16_3 C15_3 1_555 1_555
C17_3 C16_3 1_555 1_555
H7_3 C17_3 1_555 1_555
C18_3 C16_3 1_555 1_555
H8_3 C18_3 1_555 1_555
C19_3 C18_3 1_555 1_555
C20_3 C19_3 1_555 1_555
C21_3 C17_3 1_555 1_555
H9_3 C21_3 1_555 1_555
C22_3 C20_3 1_555 1_555
C23_3 C22_3 1_555 1_555
C24_3 C22_3 1_555 1_555
H10_3 C24_3 1_555 1_555
C25_3 C23_3 1_555 1_555
H11_3 C25_3 1_555 1_555
C26_3 C24_3 1_555 1_555
H12_3 C26_3 1_555 1_555
C27_3 C25_3 1_555 1_555
C28_3 C27_3 1_555 1_555
S2_3 C19_3 1_555 1_555
O10_3 S2_3 1_555 1_555
O11_3 S2_3 1_555 1_555
O29_2 C28_3 1_555 1_555
H19_3 C43_3 1_555 1_555
N1_3 C43_3 1_555 1_555
C44_3 N1_3 1_555 1_555
H20_3 C44_3 1_555 1_555
H21_3 C44_3 1_555 1_555
H22_3 C44_3 1_555 1_555
C20_3 C21_3 1_555 1_555
C23_3 S2_3 1_555 1_555
C26_3 C27_3 1_555 1_555
C42_3 O16_3 1_555 1_555
C42_3 O17_3 1_555 1_555
H23_3 C45_3 1_555 1_555
H25_3 C45_3 1_555 1_555
O20_3 Ce5 1_555 1_555
C46_3 O20_3 1_555 1_555
H26_3 C46_3 1_555 1_555
N2_3 C46_3 1_555 1_555
C47_3 N2_3 1_555 1_555
H27_3 C47_3 1_555 1_555
H28_3 C47_3 1_555 1_555
H29_3 C47_3 1_555 1_555
C48_3 N2_3 1_555 1_555
H30_3 C48_3 1_555 1_555
H31_3 C48_3 1_555 1_555
H32_3 C48_3 1_555 1_555
O22_3 Ce5 1_555 1_555
C52_3 O22_3 1_555 1_555
N4_3 C52_3 1_555 1_555
C53_3 N4_3 1_555 1_555
H41_3 C53_3 1_555 1_555
H42_3 C53_3 1_555 1_555
H43_3 C53_3 1_555 1_555
O23_2 Ce5 1_555 1_555
O27_2 C29_3 1_555 1_555
O13_2 C29_3 1_555 1_555
C29_3 C30_3 1_555 1_555
C30_3 C31_3 1_555 1_555
C31_3 H13_3 1_555 1_555
C32_3 C30_3 1_555 1_555
H14_3 C32_3 1_555 1_555
C33_3 C32_3 1_555 1_555
C34_3 C31_3 1_555 1_555
H15_3 C34_3 1_555 1_555
C35_3 C33_3 1_555 1_555
C36_3 C35_3 1_555 1_555
C37_3 C36_3 1_555 1_555
H16_3 C37_3 1_555 1_555
C38_3 C36_3 1_555 1_555
C39_3 C38_3 1_555 1_555
H17_3 C39_3 1_555 1_555
C40_3 C37_3 1_555 1_555
H18_3 C40_3 1_555 1_555
C41_3 C39_3 1_555 1_555
O14_3 S3_3 1_555 1_555
S3_3 C33_3 1_555 1_555
O21_3 Ce7_2 1_555 1_555
C49_3 O21_3 1_555 1_555
H33_3 C49_3 1_555 1_555
N3_3 C49_3 1_555 1_555
C50_3 N3_3 1_555 1_555
H34_3 C50_3 1_555 1_555
H35_3 C50_3 1_555 1_555
C51_3 N3_3 1_555 1_555
H37_3 C51_3 1_555 1_555
H38_3 C51_3 1_555 1_555
H39_3 C51_3 1_555 1_555
O26_2 Ce7_2 1_555 1_555
C34_3 C35_3 1_555 1_555
C38_3 S3_3 1_555 1_555
C40_3 C41_3 1_555 1_555
O2_3 C1_3 1_555 1_555
C1_3 C2_3 1_555 1_555
C2_3 C3_3 1_555 1_555
C3_3 H1_3 1_555 1_555
C4_3 C2_3 1_555 1_555
H2_3 C4_3 1_555 1_555
C5_3 C3_3 1_555 1_555
H3_3 C5_3 1_555 1_555
C6_3 C4_3 1_555 1_555
C7_3 C5_3 1_555 1_555
C8_3 C7_3 1_555 1_555
C9_3 C8_3 1_555 1_555
C10_3 C8_3 1_555 1_555
H4_3 C10_3 1_555 1_555
C11_3 C9_3 1_555 1_555
H5_3 C11_3 1_555 1_555
C12_3 C10_3 1_555 1_555
H6_3 C12_3 1_555 1_555
C13_3 C11_3 1_555 1_555
C14_3 C13_3 1_555 1_555
O3_2 C14_3 1_555 1_555
O24_2 C14_3 1_555 1_555
S1_3 C6_3 1_555 1_555
O5_3 S1_3 1_555 1_555
O6_3 S1_3 1_555 1_555
H44_3 C54_3 1_555 1_555
H45_3 C54_3 1_555 1_555
H46_3 C54_3 1_555 1_555
Ce4 O3_2 1_555 1_555
C6_3 C7_3 1_555 1_555
C9_3 S1_3 1_555 1_555
C12_3 C13_3 1_555 1_555
Ce4 O2_4 1_555 1_555
Ce7 O1_4 1_555 1_555
O1_4 C1_4 1_555 1_555
O2_4 C1_4 1_555 1_555
C1_4 C2_4 1_555 1_555
C2_4 C3_4 1_555 1_555
C3_4 H1_4 1_555 1_555
C4_4 C2_4 1_555 1_555
H2_4 C4_4 1_555 1_555
C5_4 C3_4 1_555 1_555
H3_4 C5_4 1_555 1_555
C6_4 C4_4 1_555 1_555
C7_4 C5_4 1_555 1_555
C8_4 C7_4 1_555 1_555
C9_4 C8_4 1_555 1_555
C10_4 C8_4 1_555 1_555
H4_4 C10_4 1_555 1_555
C11_4 C9_4 1_555 1_555
H5_4 C11_4 1_555 1_555
C12_4 C10_4 1_555 1_555
H6_4 C12_4 1_555 1_555
C13_4 C11_4 1_555 1_555
C14_4 C13_4 1_555 1_555
O23_2 C14_4 1_555 1_555
O24 C14_4 1_555 1_555
S1_4 C6_4 1_555 1_555
O5_4 S1_4 1_555 1_555
O6_4 S1_4 1_555 1_555
O25_2 C15_4 1_555 1_555
O8_4 Ce4 1_555 1_555
C15_4 O8_4 1_555 1_555
C16_4 C15_4 1_555 1_555
C17_4 C16_4 1_555 1_555
H7_4 C17_4 1_555 1_555
C18_4 C16_4 1_555 1_555
H8_4 C18_4 1_555 1_555
C19_4 C18_4 1_555 1_555
C20_4 C19_4 1_555 1_555
C21_4 C17_4 1_555 1_555
H9_4 C21_4 1_555 1_555
C22_4 C20_4 1_555 1_555
C23_4 C22_4 1_555 1_555
C24_4 C22_4 1_555 1_555
H10_4 C24_4 1_555 1_555
C25_4 C23_4 1_555 1_555
H11_4 C25_4 1_555 1_555
C26_4 C24_4 1_555 1_555
H12_4 C26_4 1_555 1_555
C27_4 C25_4 1_555 1_555
C28_4 C27_4 1_555 1_555
S2_4 C19_4 1_555 1_555
O10_4 S2_4 1_555 1_555
O11_4 S2_4 1_555 1_555
O27 C29_4 1_555 1_555
O28_2 C29_4 1_555 1_555
C29_4 C30_4 1_555 1_555
C30_4 C31_4 1_555 1_555
C31_4 H13_4 1_555 1_555
C32_4 C30_4 1_555 1_555
H14_4 C32_4 1_555 1_555
C33_4 C32_4 1_555 1_555
C34_4 C31_4 1_555 1_555
H15_4 C34_4 1_555 1_555
C35_4 C33_4 1_555 1_555
C36_4 C35_4 1_555 1_555
C37_4 C36_4 1_555 1_555
H16_4 C37_4 1_555 1_555
C38_4 C36_4 1_555 1_555
C39_4 C38_4 1_555 1_555
H17_4 C39_4 1_555 1_555
C40_4 C37_4 1_555 1_555
H18_4 C40_4 1_555 1_555
C41_4 C39_4 1_555 1_555
C42_4 C41_4 1_555 1_555
O14_4 S3_4 1_555 1_555
S3_4 C33_4 1_555 1_555
O16_4 Ce4 1_555 1_555
O17_4 Ce7 1_555 1_555
O29 C28_4 1_555 1_555
O19_4 Ce7 1_555 1_555
C43_4 O19_4 1_555 1_555
H19_4 C43_4 1_555 1_555
N1_4 C43_4 1_555 1_555
C44_4 N1_4 1_555 1_555
H20_4 C44_4 1_555 1_555
H21_4 C44_4 1_555 1_555
H22_4 C44_4 1_555 1_555
C45_4 N1_4 1_555 1_555
H23_4 C45_4 1_555 1_555
H24_4 C45_4 1_555 1_555
H25_4 C45_4 1_555 1_555
O20_4 Ce4 1_555 1_555
C46_4 O20_4 1_555 1_555
H26_4 C46_4 1_555 1_555
N2_4 C46_4 1_555 1_555
C47_4 N2_4 1_555 1_555
H27_4 C47_4 1_555 1_555
H28_4 C47_4 1_555 1_555
H29_4 C47_4 1_555 1_555
C48_4 N2_4 1_555 1_555
H30_4 C48_4 1_555 1_555
H31_4 C48_4 1_555 1_555
H32_4 C48_4 1_555 1_555
O21_4 Ce7 1_555 1_555
C49_4 O21_4 1_555 1_555
H33_4 C49_4 1_555 1_555
N3_4 C49_4 1_555 1_555
C50_4 N3_4 1_555 1_555
H34_4 C50_4 1_555 1_555
H35_4 C50_4 1_555 1_555
H36_4 C50_4 1_555 1_555
C51_4 N3_4 1_555 1_555
H37_4 C51_4 1_555 1_555
H38_4 C51_4 1_555 1_555
H39_4 C51_4 1_555 1_555
O22_4 Ce4 1_555 1_555
C52_4 O22_4 1_555 1_555
H40_4 C52_4 1_555 1_555
N4_4 C52_4 1_555 1_555
C53_4 N4_4 1_555 1_555
H41_4 C53_4 1_555 1_555
H42_4 C53_4 1_555 1_555
H43_4 C53_4 1_555 1_555
C54_4 N4_4 1_555 1_555
H44_4 C54_4 1_555 1_555
H45_4 C54_4 1_555 1_555
H46_4 C54_4 1_555 1_555
C6_4 C7_4 1_555 1_555
C9_4 S1_4 1_555 1_555
C12_4 C13_4 1_555 1_555
C20_4 C21_4 1_555 1_555
C23_4 S2_4 1_555 1_555
C26_4 C27_4 1_555 1_555
C34_4 C35_4 1_555 1_555
C38_4 S3_4 1_555 1_555
C40_4 C41_4 1_555 1_555
C42_4 O16_4 1_555 1_555
C42_4 O17_4 1_555 1_555

#END
