
###############################################################################
#
# This file contains modified crystal structure data generated from the
# MOF subset of the Cambridge Structural Database (CSD) v543 
# hosted by the Cambridge Crystallographic Data Centre (CCDC).
#
# This work is licensed under the Creative Commons
# Attribution-NonCommercial-ShareAlike 4.0 International License.
# To view a copy of this license, visit
# http://creativecommons.org/licenses/by-nc-sa/4.0/
# or send a letter to
# Creative Commons, PO Box 1866, Mountain View, CA 94042, USA.
#
# CIF created using the CSD Python API on 29 September 2022
# The structure has been converted into the P1 space group
# The structure has a 3D framework
# The original CSD entry MUSTAY is in the orthorhombic crystal system
# The original CSD entry MUSTAY is in a Sohncke space group
# The framework has been calculated to contain at least 10.0% void space
# The void calculation uses a probe of radius 1.32A, grid spacing 0.4
# H atom positions have been added when not included in the experimental data
#
###############################################################################

data_MUSTAY
_chemical_formula_moiety         '(C192 H344 N102 O32 Zn16)n'
_symmetry_cell_setting           triclinic
_symmetry_space_group_name_H-M   'P 1'
_symmetry_Int_Tables_number      1
_space_group_name_Hall           'P 1'
loop_
_symmetry_equiv_pos_site_id
_symmetry_equiv_pos_as_xyz
1 x,y,z
_cell_length_a                   16.6854(4)
_cell_length_b                   16.7316(4)
_cell_length_c                   27.9805(5)
_cell_angle_alpha                90
_cell_angle_beta                 90
_cell_angle_gamma                90
_cell_volume                     7811.41
loop_
_atom_site_label
_atom_site_type_symbol
_atom_site_fract_x
_atom_site_fract_y
_atom_site_fract_z
H3 H 0.0124 0.5657 0.1001
C3 C 0.0242(8) 0.8248(7) 0.0756(5)
H6 H 0.0755 0.8206 0.0917
H7 H 0.0347 0.8254 0.0415
H9 H 0.0155 0.9465 0.0755
C5 C 0.0187(8) 0.6806(7) 0.0729(5)
H11 H 0.0694 0.6806 0.0899
H12 H 0.0307 0.6858 0.0391
C6 C 0.0228(7) 0.7467(10) 0.1741(4)
H13 H 0.0514 0.6974 0.1700
H14 H 0.0035 0.7503 0.2063
H15 H 0.0581 0.7908 0.1676
N1 N 0.9743(4) 0.7498(7) 0.0875(2)
C1 C 0.9782(9) 0.5988(6) 0.0809(4)
H1 H 0.9691 0.5735 0.0506
H2 H 0.9279 0.6064 0.0969
C2 C 0.9537(5) 0.7493(8) 0.1404(3)
H4 H 0.9224 0.7967 0.1473
H5 H 0.9199 0.7034 0.1467
C4 C 0.9858(8) 0.9032(7) 0.0893(5)
H8 H 0.9316 0.9045 0.0777
H10 H 0.9857 0.9084 0.1235
C7 C 0.8930(7) 0.7539(11) 0.0629(4)
H16 H 0.8644 0.8006 0.0742
H17 H 0.8619 0.7071 0.0715
C8 C 0.9003(10) 0.7581(13) 0.0076(5)
H18 H 0.8542 0.7334 0.9933
H19 H 0.9479 0.7306 0.9975
H20 H 0.9032 0.8130 0.9977
N1_2 N 0.5257(4) 0.2502(7) 0.5875(2)
C1_2 C 0.5218(9) 0.4012(6) 0.5809(4)
H1_2 H 0.5309 0.4265 0.5506
H2_2 H 0.5721 0.3936 0.5969
H3_2 H 0.4876 0.4343 0.6001
C2_2 C 0.5463(5) 0.2507(8) 0.6404(3)
H4_2 H 0.5776 0.2033 0.6473
H5_2 H 0.5801 0.2966 0.6467
C3_2 C 0.4758(8) 0.1752(7) 0.5756(5)
H6_2 H 0.4245 0.1794 0.5917
H7_2 H 0.4653 0.1746 0.5415
C4_2 C 0.5142(8) 0.0968(7) 0.5893(5)
H8_2 H 0.5684 0.0955 0.5777
H9_2 H 0.4845 0.0535 0.5755
H10_2 H 0.5143 0.0916 0.6235
C5_2 C 0.4813(8) 0.3194(7) 0.5729(5)
H11_2 H 0.4306 0.3194 0.5899
H12_2 H 0.4693 0.3142 0.5391
C6_2 C 0.4772(7) 0.2533(10) 0.6741(4)
H13_2 H 0.4486 0.3026 0.6700
H14_2 H 0.4965 0.2497 0.7063
H15_2 H 0.4419 0.2092 0.6676
C7_2 C 0.6070(7) 0.2461(11) 0.5629(4)
H16_2 H 0.6356 0.1994 0.5742
H17_2 H 0.6381 0.2929 0.5715
C8_2 C 0.5997(10) 0.2419(13) 0.5076(5)
H18_2 H 0.6458 0.2666 0.4933
H19_2 H 0.5521 0.2694 0.4975
H20_2 H 0.5968 0.1870 0.4977
H18_3 H 0.3542 0.7666 0.0067
H19_3 H 0.4479 0.7694 0.0025
H20_3 H 0.4032 0.6870 0.0023
N1_3 N 0.4743(4) 0.7502(7) 0.9125(2)
C1_3 C 0.4782(9) 0.9012(6) 0.9191(4)
H1_3 H 0.4691 0.9265 0.9494
H2_3 H 0.4279 0.8936 0.9031
H3_3 H 0.5124 0.9343 0.8999
C2_3 C 0.4537(5) 0.7507(8) 0.8596(3)
H4_3 H 0.4224 0.7033 0.8527
H5_3 H 0.4199 0.7966 0.8533
C3_3 C 0.5242(8) 0.6752(7) 0.9244(5)
H6_3 H 0.5755 0.6794 0.9083
H7_3 H 0.5347 0.6746 0.9585
C4_3 C 0.4858(8) 0.5968(7) 0.9107(5)
H8_3 H 0.4316 0.5955 0.9223
H9_3 H 0.5155 0.5535 0.9245
H10_3 H 0.4857 0.5916 0.8765
C5_3 C 0.5187(8) 0.8194(7) 0.9271(5)
H11_3 H 0.5694 0.8194 0.9101
H12_3 H 0.5307 0.8142 0.9609
C6_3 C 0.5228(7) 0.7533(10) 0.8259(4)
H13_3 H 0.5514 0.8026 0.8300
H14_3 H 0.5035 0.7497 0.7937
H15_3 H 0.5581 0.7092 0.8324
C7_3 C 0.3930(7) 0.7461(11) 0.9371(4)
H16_3 H 0.3644 0.6994 0.9258
H17_3 H 0.3619 0.7929 0.9285
C8_3 C 0.4003(10) 0.7419(13) 0.9924(5)
N1_4 N 0.0257(4) 0.2498(7) 0.4125(2)
C1_4 C 0.0218(9) 0.0988(6) 0.4191(4)
H1_4 H 0.0309 0.0735 0.4494
H2_4 H 0.0721 0.1064 0.4031
C2_4 C 0.0463(5) 0.2493(8) 0.3596(3)
H4_4 H 0.0776 0.2967 0.3527
H5_4 H 0.0801 0.2034 0.3533
C4_4 C 0.0142(8) 0.4032(7) 0.4107(5)
H8_4 H 0.0684 0.4045 0.4223
H10_4 H 0.0143 0.4084 0.3765
C7_4 C 0.1070(7) 0.2539(11) 0.4371(4)
H16_4 H 0.1356 0.3006 0.4258
H17_4 H 0.1381 0.2071 0.4285
C8_4 C 0.0997(10) 0.2581(13) 0.4924(5)
H18_4 H 0.1458 0.2334 0.5067
H19_4 H 0.0521 0.2306 0.5025
H20_4 H 0.0968 0.3130 0.5023
H3_4 H 0.9876 0.0657 0.3999
C3_4 C 0.9758(8) 0.3248(7) 0.4244(5)
H6_4 H 0.9245 0.3206 0.4083
H7_4 H 0.9653 0.3254 0.4585
H9_4 H 0.9845 0.4465 0.4245
C5_4 C 0.9813(8) 0.1806(7) 0.4271(5)
H11_4 H 0.9306 0.1806 0.4101
H12_4 H 0.9693 0.1858 0.4609
C6_4 C 0.9772(7) 0.2467(10) 0.3259(4)
H13_4 H 0.9486 0.1974 0.3300
H14_4 H 0.9965 0.2503 0.2937
H15_4 H 0.9419 0.2908 0.3324
C10 C 0.0412(7) 0.2604(9) 0.1373(4)
H23 H 0.0709 0.3091 0.1311
H24 H 0.0793 0.2166 0.1372
H28 H 0.0039 0.4141 0.1239
C13 C 0.0243(9) 0.2357(12) 0.0528(5)
H30 H 0.0371 0.1795 0.0492
H31 H 0.0743 0.2653 0.0534
C14 C 0.0043(12) 0.2661(11) 0.1867(6)
H34 H 0.0441 0.2539 0.2103
H38 H 0.0037 0.1050 0.0694
H35 H 0.0073 0.2799 0.9831
N2 N 0.9826(4) 0.2476(7) 0.0970(3)
C9 C 0.9256(11) 0.1836(8) 0.1036(7)
H21 H 0.8821 0.1892 0.0808
H22 H 0.9032 0.1862 0.1355
C11 C 0.9256(8) 0.3239(7) 0.1016(5)
H25 H 0.8851 0.3205 0.0768
H26 H 0.8983 0.3209 0.1321
C12 C 0.9670(14) 0.4076(11) 0.0979(8)
H27 H 0.9954 0.4114 0.0681
H29 H 0.9270 0.4488 0.0993
H32 H 0.9608 0.2288 0.1892
H33 H 0.9846 0.3194 0.1918
C15 C 0.9724(11) 0.2641(15) 0.0087(5)
H36 H 0.9397 0.3087 0.0180
C16 C 0.9679(12) 0.1016(9) 0.0962(7)
H39 H 0.9284 0.0611 0.0902
H40 H 0.9977 0.0881 0.1244
H37 H 0.9388 0.2210 0.9982
N2_2 N 0.5174(4) 0.7524(7) 0.5970(3)
C9_2 C 0.5744(11) 0.8164(8) 0.6036(7)
H21_2 H 0.6179 0.8108 0.5808
H22_2 H 0.5968 0.8138 0.6355
C10_2 C 0.4588(7) 0.7396(9) 0.6373(4)
H23_2 H 0.4291 0.6909 0.6311
H24_2 H 0.4207 0.7834 0.6372
C11_2 C 0.5744(8) 0.6761(7) 0.6016(5)
H25_2 H 0.6149 0.6795 0.5768
H26_2 H 0.6017 0.6791 0.6321
C12_2 C 0.5330(14) 0.5924(11) 0.5979(8)
H27_2 H 0.5046 0.5886 0.5681
H28_2 H 0.4961 0.5859 0.6239
H29_2 H 0.5730 0.5512 0.5993
C13_2 C 0.4757(9) 0.7643(12) 0.5528(5)
H30_2 H 0.4629 0.8205 0.5492
H31_2 H 0.4257 0.7347 0.5534
C14_2 C 0.4957(12) 0.7339(11) 0.6867(6)
H32_2 H 0.5392 0.7712 0.6892
H33_2 H 0.5154 0.6806 0.6918
H34_2 H 0.4559 0.7461 0.7103
C15_2 C 0.5276(11) 0.7359(15) 0.5087(5)
H35_2 H 0.4927 0.7201 0.4831
H36_2 H 0.5603 0.6913 0.5180
H37_2 H 0.5612 0.7790 0.4982
C16_2 C 0.5321(12) 0.8984(9) 0.5962(7)
H38_2 H 0.4963 0.8950 0.5694
H39_2 H 0.5716 0.9389 0.5902
H40_2 H 0.5023 0.9119 0.6244
H35_3 H 0.5073 0.2201 0.0169
H37_3 H 0.4388 0.2790 0.0018
N2_3 N 0.4826(4) 0.2524(7) 0.9030(3)
C9_3 C 0.4256(11) 0.3164(8) 0.8964(7)
H21_3 H 0.3821 0.3108 0.9192
H22_3 H 0.4032 0.3138 0.8645
C10_3 C 0.5412(7) 0.2396(9) 0.8627(4)
H23_3 H 0.5709 0.1909 0.8689
H24_3 H 0.5793 0.2834 0.8628
C11_3 C 0.4256(8) 0.1761(7) 0.8984(5)
H25_3 H 0.3851 0.1795 0.9232
H26_3 H 0.3983 0.1791 0.8679
C12_3 C 0.4670(14) 0.0924(11) 0.9021(8)
H27_3 H 0.4954 0.0886 0.9319
H28_3 H 0.5039 0.0859 0.8761
H29_3 H 0.4270 0.0512 0.9007
C13_3 C 0.5243(9) 0.2643(12) 0.9472(5)
H30_3 H 0.5371 0.3205 0.9508
H31_3 H 0.5743 0.2347 0.9466
C14_3 C 0.5043(12) 0.2339(11) 0.8133(6)
H32_3 H 0.4608 0.2712 0.8108
H33_3 H 0.4846 0.1806 0.8082
H34_3 H 0.5441 0.2461 0.7897
C15_3 C 0.4724(11) 0.2359(15) 0.9913(5)
H36_3 H 0.4397 0.1913 0.9820
C16_3 C 0.4679(12) 0.3984(9) 0.9038(7)
H38_3 H 0.5037 0.3950 0.9306
H39_3 H 0.4284 0.4389 0.9098
H40_3 H 0.4977 0.4119 0.8756
N2_4 N 0.0174(4) 0.7476(7) 0.4030(3)
C9_4 C 0.0744(11) 0.6836(8) 0.3964(7)
H21_4 H 0.1179 0.6892 0.4192
H22_4 H 0.0968 0.6862 0.3645
C11_4 C 0.0744(8) 0.8239(7) 0.3984(5)
H25_4 H 0.1149 0.8205 0.4232
H26_4 H 0.1017 0.8209 0.3679
C12_4 C 0.0330(14) 0.9076(11) 0.4021(8)
H27_4 H 0.0046 0.9114 0.4319
H29_4 H 0.0730 0.9488 0.4007
H32_4 H 0.0392 0.7288 0.3108
H33_4 H 0.0154 0.8194 0.3082
C15_4 C 0.0276(11) 0.7641(15) 0.4913(5)
H36_4 H 0.0603 0.8087 0.4820
H37_4 H 0.0612 0.7210 0.5018
C16_4 C 0.0321(12) 0.6016(9) 0.4038(7)
H39_4 H 0.0716 0.5611 0.4098
H40_4 H 0.0023 0.5881 0.3756
C10_4 C 0.9588(7) 0.7604(9) 0.3627(4)
H23_4 H 0.9291 0.8091 0.3689
H24_4 H 0.9207 0.7166 0.3628
H28_4 H 0.9961 0.9141 0.3761
C13_4 C 0.9757(9) 0.7357(12) 0.4472(5)
H30_4 H 0.9629 0.6795 0.4508
H31_4 H 0.9257 0.7653 0.4466
C14_4 C 0.9957(12) 0.7661(11) 0.3133(6)
H34_4 H 0.9559 0.7539 0.2897
H35_4 H 0.9927 0.7799 0.5169
H38_4 H 0.9963 0.6050 0.4306
Zn2 Zn 0.33779(7) 0.06970(7) 0.08598(3)
Zn4 Zn 0.33979(6) 0.43085(7) 0.08348(3)
O1 O 0.2892(4) 0.0164(3) 0.14006(18)
N3 N 0.3628(5) 0.1857(4) 0.0947(2)
N4 N 0.3641(4) 0.3148(4) 0.0931(3)
N5 N 0.2887(4) 0.0494(4) 0.0221(2)
N6 N 0.2904(4) 0.4479(4) 0.0191(2)
O4 O 0.2937(4) 0.0250(3) 0.34633(19)
O6 O 0.1861(5) 0.0985(4) 0.1302(2)
O7 O 0.1894(4) 0.1009(4) 0.3551(2)
C18 C 0.2261(5) 0.0497(5) 0.3327(3)
C20 C 0.2225(5) 0.0468(5) 0.1524(3)
C22 C 0.3234(4) 0.2484(6) 0.0800(2)
C23 C 0.2399(5) 0.5066(5) 0.0046(3)
C26 C 0.1940(7) 0.5553(7) 0.0359(3)
H44 H 0.1741 0.5235 0.0618
H45 H 0.1498 0.5781 0.0186
H46 H 0.2272 0.5974 0.0482
C29 C 0.1946(5) 0.0126(5) 0.2866(3)
N19 N 0.4291(5) 0.2100(5) 0.1166(3)
C31 C 0.1900(5) 0.0135(5) 0.1991(3)
N22 N 0.4306(5) 0.2883(4) 0.1162(3)
C33 C 0.2870(7) 0.1053(6) 0.2408(3)
H49 H 0.2459 0.1450 0.2374
H50 H 0.3222 0.1073 0.2137
H51 H 0.3170 0.1154 0.2694
C37 C 0.2478(6) 0.0210(6) 0.2439(4)
C38 C 0.2460(4) 0.2510(7) 0.0543(3)
H58 H 0.2544 0.2372 0.0214
H59 H 0.2239 0.3038 0.0563
H60 H 0.2095 0.2135 0.0685
C41 C 0.1107(7) 0.0371(9) 0.2766(4)
H67 H 0.0957 0.0837 0.2952
C42 C 0.1137(6) 0.0581(7) 0.2183(4)
H69 H 0.0658 0.0389 0.2023
H70 H 0.1183 0.1152 0.2132
Zn7 Zn 0.31829(6) 0.06914(6) 0.40862(3)
O9 O 0.2953(4) 0.4882(3) 0.1370(2)
N28 N 0.4465(5) 0.0153(5) 0.0777(3)
N29 N 0.4447(4) 0.4868(4) 0.0756(2)
Zn1 Zn 0.17981(7) 0.56759(6) 0.90698(3)
O2 O 0.2047(4) 0.5118(3) 0.6370(2)
O3 O 0.2033(4) 0.5270(4) 0.8438(2)
N7 N 0.1776(5) 0.8151(4) 0.9219(3)
N8 N 0.1822(6) 0.6864(4) 0.9225(3)
N10 N 0.3183(6) 0.0881(5) 0.9828(2)
O5 O 0.3057(4) 0.5951(4) 0.6289(2)
N11 N 0.0624(5) 0.5362(5) 0.9181(3)
N13 N 0.3197(5) 0.4149(4) 0.9801(2)
N14 N 0.2400(4) 0.5058(4) 0.9571(2)
N15 N 0.2890(5) 0.4471(5) 0.9426(2)
O8 O 0.3137(5) 0.6000(5) 0.8530(2)
C17 C 0.2740(6) 0.5524(6) 0.8300(3)
C19 C 0.2720(5) 0.5413(5) 0.6516(3)
N16 N 0.2907(5) 0.0517(4) 0.9448(2)
C25 C 0.1766(3) 0.7494(5) 0.8961(2)
C27 C 0.0072(5) 0.4971(4) 0.8947(3)
C28 C 0.0098(5) 0.0012(4) 0.8960(3)
C30 C 0.3084(6) 0.5166(6) 0.7834(3)
N20 N 0.0307(6) 0.5558(7) 0.9602(3)
C32 C 0.3067(6) 0.5083(6) 0.6980(3)
H48 H 0.3024 0.4501 0.6948
C34 C 0.2053(7) 0.5983(6) 0.7391(3)
C35 C 0.0149(7) 0.4681(6) 0.8441(3)
H52 H 0.0035 0.5112 0.8225
H54 H 0.0685 0.4492 0.8388
C36 C 0.0139(6) 0.0274(7) 0.8457(3)
H55 H 0.0668 0.0178 0.8334
H56 H 0.0020 0.0834 0.8437
N25 N 0.1593(7) 0.7853(5) 0.9648(3)
N26 N 0.2011(7) 0.7108(5) 0.9670(3)
C39 C 0.1703(9) 0.7478(7) 0.8438(3)
H61 H 0.1322 0.7872 0.8335
H62 H 0.1529 0.6958 0.8337
H63 H 0.2217 0.7593 0.8300
C44 C 0.3832(6) 0.5618(9) 0.7644(4)
H74 H 0.4310 0.5486 0.7825
H75 H 0.3753 0.6193 0.7646
C45 C 0.3366(12) 0.4311(9) 0.7924(6)
H76 H 0.3493 0.4246 0.8256
H77 H 0.3834 0.4205 0.7735
H78 H 0.2948 0.3944 0.7837
C46 C 0.3868(9) 0.5224(10) 0.7045(6)
H79 H 0.4301 0.5142 0.6842
C47 C 0.1963(11) 0.4508(8) 0.7395(7)
H80 H 0.2288 0.4102 0.7249
H81 H 0.1475 0.4569 0.7217
H82 H 0.1840 0.4355 0.7718
C48 C 0.2430(6) 0.5316(8) 0.7398(4)
Zn6 Zn 0.18171(6) 0.93086(6) 0.90862(3)
Zn8 Zn 0.16021(6) 0.56915(7) 0.58348(3)
H83 H 0.248101 0.647177 0.736086
H84 H 0.164713 0.599499 0.708629
H85 H 0.171042 0.604916 0.77199
H86 H 0.394184 0.462307 0.718787
N9 N 0.2415(5) 0.9916(4) 0.9588(2)
N12 N 0.0661(4) 0.9610(4) 0.9192(2)
N17 N 0.0345(6) 0.9475(7) 0.9642(3)
O10 O 0.2063(4) 0.9750(3) 0.84633(19)
N18 N 0.9465(5) 0.4847(5) 0.9223(3)
N21 N 0.9607(6) 0.5283(6) 0.9629(3)
N23 N 0.9447(4) 0.0132(4) 0.9244(2)
H53 H 0.9777 0.4253 0.8387
Zn5 Zn 0.83779(7) 0.43030(7) 0.91402(3)
Zn9 Zn 0.83979(6) 0.06915(7) 0.91652(3)
N9_2 N 0.2585(5) 0.0084(4) 0.4588(2)
N12_2 N 0.4339(4) 0.0390(4) 0.4192(2)
C21 C 0.3033(6) 0.0643(6) 0.5386(3)
H41 H 0.2848 0.1179 0.5335
H42 H 0.3593 0.0609 0.5310
H43 H 0.2954 0.0499 0.5715
C24 C 0.2560(6) 0.0068(5) 0.5065(2)
N17_2 N 0.4655(6) 0.0525(7) 0.4642(3)
H47 H 0.3080 0.0450 0.7929
N24 N 0.5357(6) 0.0187(7) 0.4674(4)
H57 H 0.5244 0.0020 0.3271
C40 C 0.1837(6) 0.0422(7) 0.7425(4)
H64 H 0.1672 0.0544 0.7746
H65 H 0.1391 0.0212 0.7249
H66 H 0.2028 0.0900 0.7273
H68 H 0.4266 0.0060 0.7832
C43 C 0.3326(8) 0.0735(7) 0.6944(4)
H71 H 0.3814 0.0780 0.6764
H72 H 0.3403 0.0961 0.7256
H73 H 0.2906 0.1018 0.6782
N27 N 0.3224(5) 0.1849(4) 0.4219(3)
Zn1_2 Zn 0.32019(7) 0.43241(6) 0.40698(3)
Zn2_2 Zn 0.16221(7) 0.93030(7) 0.58598(3)
O1_2 O 0.2108(4) 0.9836(3) 0.64006(18)
N3_2 N 0.1372(5) 0.8143(4) 0.5947(2)
N4_2 N 0.1359(4) 0.6852(4) 0.5931(3)
N5_2 N 0.2113(4) 0.9506(4) 0.5221(2)
O3_2 O 0.2967(4) 0.4730(4) 0.3438(2)
N6_2 N 0.2096(4) 0.5521(4) 0.5191(2)
N8_2 N 0.3178(6) 0.3136(4) 0.4225(3)
N10_2 N 0.1817(6) 0.9119(5) 0.4828(2)
O5_2 O 0.1943(4) 0.4049(4) 0.1289(2)
N11_2 N 0.4376(5) 0.4638(5) 0.4181(3)
O6_2 O 0.3139(5) 0.9015(4) 0.6302(2)
N13_2 N 0.1803(5) 0.5851(4) 0.4801(2)
N14_2 N 0.2600(4) 0.4942(4) 0.4571(2)
N15_2 N 0.2110(5) 0.5529(5) 0.4426(2)
O7_2 O 0.3106(4) 0.8991(4) 0.8551(2)
O8_2 O 0.1863(5) 0.4000(5) 0.3530(2)
C17_2 C 0.2260(6) 0.4476(6) 0.3300(3)
C18_2 C 0.2739(5) 0.9503(5) 0.8327(3)
C19_2 C 0.2280(5) 0.4587(5) 0.1516(3)
C20_2 C 0.2775(5) 0.9532(5) 0.6524(3)
N16_2 N 0.2093(5) 0.9483(4) 0.4448(2)
C22_2 C 0.1766(4) 0.7516(6) 0.5800(2)
C23_2 C 0.2601(5) 0.4934(5) 0.5046(3)
C25_2 C 0.3234(3) 0.2506(5) 0.3961(2)
C26_2 C 0.3060(7) 0.4447(7) 0.5359(3)
H44_2 H 0.3259 0.4765 0.5618
H45_2 H 0.3502 0.4219 0.5186
H46_2 H 0.2728 0.4026 0.5482
C27_2 C 0.4928(5) 0.5029(4) 0.3947(3)
C28_2 C 0.4902(5) 0.9988(4) 0.3960(3)
N18_2 N 0.5535(5) 0.5153(5) 0.4223(3)
C29_2 C 0.3054(5) 0.9874(5) 0.7866(3)
C30_2 C 0.1916(6) 0.4834(6) 0.2834(3)
N19_2 N 0.0709(5) 0.7900(5) 0.6166(3)
C31_2 C 0.3100(5) 0.9865(5) 0.6991(3)
N20_2 N 0.4693(6) 0.4442(7) 0.4602(3)
N21_2 N 0.5393(6) 0.4717(6) 0.4629(3)
N22_2 N 0.0694(5) 0.7117(4) 0.6162(3)
N23_2 N 0.5553(4) 0.9868(4) 0.4244(2)
C32_2 C 0.1933(6) 0.4917(6) 0.1980(3)
H48_2 H 0.1976 0.5499 0.1948
C33_2 C 0.2130(7) 0.8947(6) 0.7408(3)
H49_2 H 0.2541 0.8550 0.7374
H50_2 H 0.1778 0.8927 0.7137
H51_2 H 0.1830 0.8846 0.7694
C34_2 C 0.2947(7) 0.4017(6) 0.2391(3)
C35_2 C 0.4851(7) 0.5319(6) 0.3441(3)
H52_2 H 0.4965 0.4888 0.3225
H53_2 H 0.5223 0.5747 0.3387
H54_2 H 0.4315 0.5508 0.3388
C36_2 C 0.4861(6) 0.9726(7) 0.3457(3)
H55_2 H 0.4332 0.9822 0.3334
H56_2 H 0.4980 0.9166 0.3437
C37_2 C 0.2522(6) 0.9790(6) 0.7439(4)
C38_2 C 0.2540(4) 0.7490(7) 0.5543(3)
H58_2 H 0.2456 0.7628 0.5214
H59_2 H 0.2761 0.6962 0.5563
H60_2 H 0.2905 0.7865 0.5685
N25_2 N 0.3407(7) 0.2147(5) 0.4648(3)
N26_2 N 0.2989(7) 0.2892(5) 0.4670(3)
C39_2 C 0.3297(9) 0.2522(7) 0.3438(3)
H61_2 H 0.3678 0.2128 0.3335
H62_2 H 0.3471 0.3042 0.3337
H63_2 H 0.2783 0.2407 0.3300
C41_2 C 0.3893(7) 0.9629(9) 0.7766(4)
H67_2 H 0.4043 0.9163 0.7952
C42_2 C 0.3863(6) 0.9419(7) 0.7183(4)
H69_2 H 0.4342 0.9611 0.7023
H70_2 H 0.3817 0.8848 0.7132
C44_2 C 0.1168(6) 0.4382(9) 0.2644(4)
H74_2 H 0.0690 0.4514 0.2825
H75_2 H 0.1247 0.3807 0.2646
C45_2 C 0.1634(12) 0.5689(9) 0.2924(6)
H76_2 H 0.1507 0.5754 0.3256
H77_2 H 0.1166 0.5795 0.2735
H78_2 H 0.2052 0.6056 0.2837
C46_2 C 0.1132(9) 0.4776(10) 0.2045(6)
H79_2 H 0.0699 0.4858 0.1842
C47_2 C 0.3037(11) 0.5492(8) 0.2395(7)
H80_2 H 0.2712 0.5898 0.2249
H81_2 H 0.3525 0.5431 0.2217
H82_2 H 0.3160 0.5645 0.2718
C48_2 C 0.2570(6) 0.4684(8) 0.2398(4)
Zn5_2 Zn 0.66221(7) 0.56970(7) 0.41402(3)
Zn9_2 Zn 0.66021(6) 0.93085(7) 0.41652(3)
N28_2 N 0.0535(5) 0.9847(5) 0.5777(3)
N29_2 N 0.0553(4) 0.5132(4) 0.5756(2)
H83_2 H 0.251899 0.352823 0.236086
H84_2 H 0.335287 0.400501 0.208629
H85_2 H 0.328958 0.395084 0.27199
H86_2 H 0.105816 0.537693 0.218787
Zn3 Zn 0.68171(6) 0.56914(6) 0.09138(3)
N9_3 N 0.7415(5) 0.5084(4) 0.0412(2)
N10_3 N 0.8183(6) 0.4119(5) 0.0172(2)
N12_3 N 0.5661(4) 0.5390(4) 0.0808(2)
N13_3 N 0.8197(5) 0.0851(4) 0.0199(2)
N15_3 N 0.7890(5) 0.0529(5) 0.0574(2)
N16_3 N 0.7907(5) 0.4483(4) 0.0552(2)
C27_3 C 0.5072(5) 0.0029(4) 0.1053(3)
C28_3 C 0.5098(5) 0.4988(4) 0.1040(3)
N17_3 N 0.5345(6) 0.5525(7) 0.0358(3)
H48_3 H 0.8024 0.0499 0.3052
N24_2 N 0.4643(6) 0.5187(7) 0.0326(4)
C35_3 C 0.5149(7) 0.0319(6) 0.1559(3)
H53_3 H 0.4777 0.0747 0.1613
H54_3 H 0.5685 0.0508 0.1612
C36_3 C 0.5139(6) 0.4726(7) 0.1543(3)
H55_3 H 0.5668 0.4822 0.1666
H56_3 H 0.5020 0.4166 0.1563
H57_2 H 0.4756 0.5020 0.1729
C45_3 C 0.8366(12) 0.0689(9) 0.2076(6)
H76_3 H 0.8493 0.0754 0.1744
H77_3 H 0.8834 0.0795 0.2265
H78_3 H 0.7948 0.1056 0.2163
C47_3 C 0.6963(11) 0.0492(8) 0.2605(7)
H80_3 H 0.7288 0.0898 0.2751
H81_3 H 0.6475 0.0431 0.2783
H82_3 H 0.6840 0.0645 0.2282
N27_2 N 0.6776(5) 0.6849(4) 0.0781(3)
O10_2 O 0.7063(4) 0.5250(3) 0.15367(19)
H86_3 H 0.894184 0.037693 0.281213
O1_3 O 0.7892(4) 0.4836(3) 0.85994(18)
N3_3 N 0.8628(5) 0.3143(4) 0.9053(2)
N4_3 N 0.8641(4) 0.1852(4) 0.9069(3)
N5_3 N 0.7887(4) 0.4506(4) 0.9779(2)
N6_3 N 0.7904(4) 0.0521(4) 0.9809(2)
O4_2 O 0.7937(4) 0.4750(3) 0.65367(19)
O6_3 O 0.6861(5) 0.4015(4) 0.8698(2)
O7_3 O 0.6894(4) 0.3991(4) 0.6449(2)
C18_3 C 0.7261(5) 0.4503(5) 0.6673(3)
C20_3 C 0.7225(5) 0.4532(5) 0.8476(3)
C21_2 C 0.6967(6) 0.5643(6) 0.9614(3)
H41_2 H 0.7152 0.6179 0.9665
H42_2 H 0.6407 0.5609 0.9690
H43_2 H 0.7046 0.5499 0.9285
C22_3 C 0.8234(4) 0.2516(6) 0.9200(2)
C24_2 C 0.7440(6) 0.5068(5) 0.9935(2)
C29_3 C 0.6946(5) 0.4874(5) 0.7134(3)
H47_2 H 0.6920 0.5450 0.7071
N19_3 N 0.9291(5) 0.2900(5) 0.8834(3)
C31_3 C 0.6900(5) 0.4865(5) 0.8009(3)
N22_3 N 0.9306(5) 0.2117(4) 0.8838(3)
C33_3 C 0.7870(7) 0.3947(6) 0.7592(3)
H49_3 H 0.7459 0.3550 0.7626
H50_3 H 0.8222 0.3927 0.7863
H51_3 H 0.8170 0.3846 0.7306
C37_3 C 0.7478(6) 0.4790(6) 0.7561(4)
C38_3 C 0.7460(4) 0.2490(7) 0.9457(3)
H58_3 H 0.7544 0.2628 0.9786
H59_3 H 0.7239 0.1962 0.9437
H60_3 H 0.7095 0.2865 0.9315
C40_2 C 0.8163(6) 0.5422(7) 0.7575(4)
H64_2 H 0.8328 0.5544 0.7254
H65_2 H 0.8609 0.5212 0.7751
H66_2 H 0.7972 0.5900 0.7727
C41_3 C 0.6107(7) 0.4629(9) 0.7234(4)
H67_3 H 0.5957 0.4163 0.7048
H68_2 H 0.5734 0.5060 0.7168
C42_3 C 0.6137(6) 0.4419(7) 0.7817(4)
H69_3 H 0.5658 0.4611 0.7977
H70_3 H 0.6183 0.3848 0.7868
C43_2 C 0.6674(8) 0.5735(7) 0.8056(4)
H71_2 H 0.6186 0.5780 0.8236
H72_2 H 0.6597 0.5961 0.7744
H73_2 H 0.7094 0.6018 0.8218
Zn7_2 Zn 0.81829(6) 0.43086(6) 0.59138(3)
O9_2 O 0.7953(4) 0.0118(3) 0.8630(2)
Zn1_3 Zn 0.67981(7) 0.93241(6) 0.09302(3)
O2_2 O 0.7047(4) 0.9882(3) 0.3630(2)
O3_3 O 0.7033(4) 0.9730(4) 0.1562(2)
N8_3 N 0.6822(6) 0.8136(4) 0.0775(3)
O5_3 O 0.8057(4) 0.9049(4) 0.3711(2)
N11_3 N 0.5624(5) 0.9638(5) 0.0819(3)
N14_3 N 0.7400(4) 0.9942(4) 0.0429(2)
O8_3 O 0.8137(5) 0.9000(5) 0.1470(2)
C17_3 C 0.7740(6) 0.9476(6) 0.1700(3)
C19_3 C 0.7720(5) 0.9587(5) 0.3484(3)
C25_3 C 0.6766(3) 0.7506(5) 0.1039(2)
C30_3 C 0.8084(6) 0.9834(6) 0.2166(3)
N20_3 N 0.5307(6) 0.9442(7) 0.0398(3)
N21_3 N 0.4607(6) 0.9717(6) 0.0371(3)
C32_3 C 0.8067(6) 0.9917(6) 0.3020(3)
C34_3 C 0.7053(7) 0.9017(6) 0.2609(3)
H52_3 H 0.5035 0.9888 0.1775
N25_3 N 0.6593(7) 0.7147(5) 0.0352(3)
N26_3 N 0.7011(7) 0.7892(5) 0.0330(3)
C39_3 C 0.6703(9) 0.7522(7) 0.1562(3)
H61_3 H 0.6322 0.7128 0.1665
H62_3 H 0.6529 0.8042 0.1663
H63_3 H 0.7217 0.7407 0.1700
C44_3 C 0.8832(6) 0.9382(9) 0.2356(4)
H74_3 H 0.9310 0.9514 0.2175
H75_3 H 0.8753 0.8807 0.2354
C46_3 C 0.8868(9) 0.9776(10) 0.2955(6)
H79_3 H 0.9301 0.9858 0.3158
C48_3 C 0.7430(6) 0.9684(8) 0.2602(4)
H83_3 H 0.748101 0.852823 0.263914
H84_3 H 0.664713 0.900501 0.291371
H85_3 H 0.671042 0.895084 0.22801
N24_3 N 0.0357(6) 0.4813(7) 0.5326(4)
H53_4 H 0.0223 0.9253 0.6613
H57_3 H 0.0244 0.4980 0.6729
Zn1_4 Zn 0.82019(7) 0.06759(6) 0.59302(3)
O3_4 O 0.7967(4) 0.0270(4) 0.6562(2)
N7_2 N 0.8224(5) 0.3151(4) 0.5781(3)
N8_4 N 0.8178(6) 0.1864(4) 0.5775(3)
O5_4 O 0.6943(4) 0.0951(4) 0.8711(2)
N11_4 N 0.9376(5) 0.0362(5) 0.5819(3)
N14_4 N 0.7600(4) 0.0058(4) 0.5429(2)
O8_4 O 0.6863(5) 0.1000(5) 0.6470(2)
C17_4 C 0.7260(6) 0.0524(6) 0.6700(3)
C19_4 C 0.7280(5) 0.0413(5) 0.8484(3)
C23_3 C 0.7601(5) 0.0066(5) 0.4954(3)
C25_4 C 0.8234(3) 0.2494(5) 0.6039(2)
C26_3 C 0.8060(7) 0.0553(7) 0.4641(3)
H44_3 H 0.8259 0.0235 0.4382
H45_3 H 0.8502 0.0781 0.4814
H46_3 H 0.7728 0.0974 0.4518
C30_4 C 0.6916(6) 0.0166(6) 0.7166(3)
N20_4 N 0.9693(6) 0.0558(7) 0.5398(3)
C32_4 C 0.6933(6) 0.0083(6) 0.8020(3)
C34_4 C 0.7947(7) 0.0983(6) 0.7609(3)
H52_4 H 0.9965 0.0112 0.6775
N25_4 N 0.8407(7) 0.2853(5) 0.5352(3)
N26_4 N 0.7989(7) 0.2108(5) 0.5330(3)
C39_4 C 0.8297(9) 0.2478(7) 0.6562(3)
H61_4 H 0.8678 0.2872 0.6665
H62_4 H 0.8471 0.1958 0.6663
H63_4 H 0.7783 0.2593 0.6700
C44_4 C 0.6168(6) 0.0618(9) 0.7356(4)
H74_4 H 0.5690 0.0486 0.7175
H75_4 H 0.6247 0.1193 0.7354
C46_4 C 0.6132(9) 0.0224(10) 0.7955(6)
H79_4 H 0.5699 0.0142 0.8158
C48_4 C 0.7570(6) 0.0316(8) 0.7602(4)
H83_4 H 0.751899 0.147177 0.763914
H84_4 H 0.835287 0.0994994 0.791371
H85_4 H 0.828958 0.104916 0.72801
O1_4 O 0.7108(4) 0.5164(3) 0.35994(18)
N3_4 N 0.6372(5) 0.6857(4) 0.4053(2)
N4_4 N 0.6359(4) 0.8148(4) 0.4069(3)
N5_4 N 0.7113(4) 0.5494(4) 0.4779(2)
N6_4 N 0.7096(4) 0.9479(4) 0.4809(2)
N9_4 N 0.7585(5) 0.4916(4) 0.5412(2)
N10_4 N 0.6817(6) 0.5881(5) 0.5172(2)
O6_4 O 0.8139(5) 0.5985(4) 0.3698(2)
N12_4 N 0.9339(4) 0.4610(4) 0.5808(2)
N13_4 N 0.6803(5) 0.9149(4) 0.5199(2)
N15_4 N 0.7110(5) 0.9471(5) 0.5574(2)
O7_4 O 0.8106(4) 0.6009(4) 0.1449(2)
C18_4 C 0.7739(5) 0.5497(5) 0.1673(3)
C20_4 C 0.7775(5) 0.5468(5) 0.3476(3)
C21_3 C 0.8033(6) 0.4357(6) 0.4614(3)
H41_3 H 0.7848 0.3821 0.4665
H42_3 H 0.8593 0.4391 0.4690
H43_3 H 0.7954 0.4501 0.4285
N16_4 N 0.7093(5) 0.5517(4) 0.5552(2)
C22_4 C 0.6766(4) 0.7484(6) 0.4200(2)
C24_3 C 0.7560(6) 0.4932(5) 0.4935(2)
C27_4 C 0.9928(5) 0.9971(4) 0.6053(3)
C28_4 C 0.9902(5) 0.5012(4) 0.6040(3)
N17_4 N 0.9655(6) 0.4475(7) 0.5358(3)
C29_4 C 0.8054(5) 0.5126(5) 0.2134(3)
H47_3 H 0.8080 0.4550 0.2071
N19_4 N 0.5709(5) 0.7100(5) 0.3834(3)
C31_4 C 0.8100(5) 0.5135(5) 0.3009(3)
N22_4 N 0.5694(5) 0.7883(4) 0.3838(3)
H48_4 H 0.6976 0.9501 0.8052
C33_4 C 0.7130(7) 0.6053(6) 0.2592(3)
H49_4 H 0.7541 0.6450 0.2626
H50_4 H 0.6778 0.6073 0.2863
H51_4 H 0.6830 0.6154 0.2306
C35_4 C 0.9851(7) 0.9681(6) 0.6559(3)
H54_4 H 0.9315 0.9492 0.6612
C36_4 C 0.9861(6) 0.5274(7) 0.6543(3)
H55_4 H 0.9332 0.5178 0.6666
H56_4 H 0.9980 0.5834 0.6563
C37_4 C 0.7522(6) 0.5210(6) 0.2561(4)
C38_4 C 0.7540(4) 0.7510(7) 0.4457(3)
H58_4 H 0.7456 0.7372 0.4786
H59_4 H 0.7761 0.8038 0.4437
H60_4 H 0.7905 0.7135 0.4315
C40_3 C 0.6837(6) 0.4578(7) 0.2575(4)
H64_3 H 0.6672 0.4456 0.2254
H65_3 H 0.6391 0.4788 0.2751
H66_3 H 0.7028 0.4100 0.2727
C41_4 C 0.8893(7) 0.5371(9) 0.2234(4)
H67_4 H 0.9043 0.5837 0.2048
H68_3 H 0.9266 0.4940 0.2168
C42_4 C 0.8863(6) 0.5581(7) 0.2817(4)
H69_4 H 0.9342 0.5389 0.2977
H70_4 H 0.8817 0.6152 0.2868
C43_3 C 0.8326(8) 0.4265(7) 0.3056(4)
H71_3 H 0.8814 0.4220 0.3236
H72_3 H 0.8403 0.4039 0.2744
H73_3 H 0.7906 0.3982 0.3218
C45_4 C 0.6634(12) 0.9311(9) 0.7076(6)
H76_4 H 0.6507 0.9246 0.6744
H77_4 H 0.6166 0.9205 0.7265
H78_4 H 0.7052 0.8944 0.7163
C47_4 C 0.8037(11) 0.9508(8) 0.7605(7)
H80_4 H 0.7712 0.9102 0.7751
H81_4 H 0.8525 0.9569 0.7783
H82_4 H 0.8160 0.9355 0.7282
H86_4 H 0.605816 0.962307 0.781213
C21_4 C 0.1967(6) 0.9357(6) 0.0386(3)
H41_4 H 0.2152 0.8821 0.0335
H42_4 H 0.1407 0.9391 0.0310
H43_4 H 0.2046 0.9501 0.0715
C24_4 C 0.2440(6) 0.9932(5) 0.0065(2)
H47_4 H 0.1920 0.9550 0.2929
C40_4 C 0.3163(6) 0.9578(7) 0.2425(4)
H64_4 H 0.3328 0.9456 0.2746
H65_4 H 0.3609 0.9788 0.2249
H66_4 H 0.2972 0.9100 0.2273
H68_4 H 0.0734 0.9940 0.2832
C43_4 C 0.1674(8) 0.9265(7) 0.1944(4)
H71_4 H 0.1186 0.9220 0.1764
H72_4 H 0.1597 0.9039 0.2256
H73_4 H 0.2094 0.8982 0.1782
N24_4 N 0.9643(6) 0.9813(7) 0.9674(4)
H57_4 H 0.9756 0.9980 0.8271
C23_4 C 0.7399(5) 0.9934(5) 0.9954(3)
C26_4 C 0.6940(7) 0.9447(7) 0.9641(3)
H44_4 H 0.6741 0.9765 0.9382
H45_4 H 0.6498 0.9219 0.9814
H46_4 H 0.7272 0.9026 0.9518
N21_4 N 0.0393(6) 0.0283(6) 0.5371(3)
loop_
_geom_bond_atom_site_label_1
_geom_bond_atom_site_label_2
_geom_bond_site_symmetry_1
_geom_bond_site_symmetry_2
H6 C3 1_555 1_555
H7 C3 1_555 1_555
H11 C5 1_555 1_555
H12 C5 1_555 1_555
H13 C6 1_555 1_555
H14 C6 1_555 1_555
H15 C6 1_555 1_555
N1 C2 1_555 1_555
C1 H1 1_555 1_555
H2 C1 1_555 1_555
C2 H4 1_555 1_555
H5 C2 1_555 1_555
H8 C4 1_555 1_555
H10 C4 1_555 1_555
C7 N1 1_555 1_555
H16 C7 1_555 1_555
H17 C7 1_555 1_555
C8 C7 1_555 1_555
N1_2 C2_2 1_555 1_555
C1_2 H1_2 1_555 1_555
H2_2 C1_2 1_555 1_555
H3_2 C1_2 1_555 1_555
C2_2 H4_2 1_555 1_555
H5_2 C2_2 1_555 1_555
C3_2 N1_2 1_555 1_555
H6_2 C3_2 1_555 1_555
H7_2 C3_2 1_555 1_555
C4_2 C3_2 1_555 1_555
H8_2 C4_2 1_555 1_555
H9_2 C4_2 1_555 1_555
H10_2 C4_2 1_555 1_555
C5_2 N1_2 1_555 1_555
H11_2 C5_2 1_555 1_555
H12_2 C5_2 1_555 1_555
C6_2 C2_2 1_555 1_555
H13_2 C6_2 1_555 1_555
H14_2 C6_2 1_555 1_555
H15_2 C6_2 1_555 1_555
C7_2 N1_2 1_555 1_555
H16_2 C7_2 1_555 1_555
H17_2 C7_2 1_555 1_555
C8_2 C7_2 1_555 1_555
H18_2 C8_2 1_555 1_555
H19_2 C8_2 1_555 1_555
H20_2 C8_2 1_555 1_555
C1_2 C5_2 1_555 1_555
N1_3 C2_3 1_555 1_555
C1_3 H1_3 1_555 1_555
H2_3 C1_3 1_555 1_555
H3_3 C1_3 1_555 1_555
C2_3 H4_3 1_555 1_555
H5_3 C2_3 1_555 1_555
C3_3 N1_3 1_555 1_555
H6_3 C3_3 1_555 1_555
H7_3 C3_3 1_555 1_555
C4_3 C3_3 1_555 1_555
H8_3 C4_3 1_555 1_555
H9_3 C4_3 1_555 1_555
H10_3 C4_3 1_555 1_555
C5_3 N1_3 1_555 1_555
H11_3 C5_3 1_555 1_555
H12_3 C5_3 1_555 1_555
C6_3 C2_3 1_555 1_555
H13_3 C6_3 1_555 1_555
H14_3 C6_3 1_555 1_555
H15_3 C6_3 1_555 1_555
C7_3 N1_3 1_555 1_555
H16_3 C7_3 1_555 1_555
H17_3 C7_3 1_555 1_555
C8_3 C7_3 1_555 1_555
C1_3 C5_3 1_555 1_555
N1_4 C2_4 1_555 1_555
C1_4 H1_4 1_555 1_555
H2_4 C1_4 1_555 1_555
C2_4 H4_4 1_555 1_555
H5_4 C2_4 1_555 1_555
H8_4 C4_4 1_555 1_555
H10_4 C4_4 1_555 1_555
C7_4 N1_4 1_555 1_555
H16_4 C7_4 1_555 1_555
H17_4 C7_4 1_555 1_555
C8_4 C7_4 1_555 1_555
H18_4 C8_4 1_555 1_555
H19_4 C8_4 1_555 1_555
H20_4 C8_4 1_555 1_555
H6_4 C3_4 1_555 1_555
H7_4 C3_4 1_555 1_555
H11_4 C5_4 1_555 1_555
H12_4 C5_4 1_555 1_555
H13_4 C6_4 1_555 1_555
H14_4 C6_4 1_555 1_555
H15_4 C6_4 1_555 1_555
H23 C10 1_555 1_555
H24 C10 1_555 1_555
H30 C13 1_555 1_555
H31 C13 1_555 1_555
C14 C10 1_555 1_555
H34 C14 1_555 1_555
N2 C9 1_555 1_555
C9 H21 1_555 1_555
H22 C9 1_555 1_555
C11 N2 1_555 1_555
H25 C11 1_555 1_555
H26 C11 1_555 1_555
C12 C11 1_555 1_555
H27 C12 1_555 1_555
H29 C12 1_555 1_555
H36 C15 1_555 1_555
C16 C9 1_555 1_555
H39 C16 1_555 1_555
H40 C16 1_555 1_555
N2_2 C9_2 1_555 1_555
C9_2 H21_2 1_555 1_555
H22_2 C9_2 1_555 1_555
C10_2 N2_2 1_555 1_555
H23_2 C10_2 1_555 1_555
H24_2 C10_2 1_555 1_555
C11_2 N2_2 1_555 1_555
H25_2 C11_2 1_555 1_555
H26_2 C11_2 1_555 1_555
C12_2 C11_2 1_555 1_555
H27_2 C12_2 1_555 1_555
H28_2 C12_2 1_555 1_555
H29_2 C12_2 1_555 1_555
C13_2 N2_2 1_555 1_555
H30_2 C13_2 1_555 1_555
H31_2 C13_2 1_555 1_555
C14_2 C10_2 1_555 1_555
H32_2 C14_2 1_555 1_555
H33_2 C14_2 1_555 1_555
H34_2 C14_2 1_555 1_555
C15_2 C13_2 1_555 1_555
H35_2 C15_2 1_555 1_555
H36_2 C15_2 1_555 1_555
H37_2 C15_2 1_555 1_555
C16_2 C9_2 1_555 1_555
H38_2 C16_2 1_555 1_555
H39_2 C16_2 1_555 1_555
H40_2 C16_2 1_555 1_555
N2_3 C9_3 1_555 1_555
C9_3 H21_3 1_555 1_555
H22_3 C9_3 1_555 1_555
C10_3 N2_3 1_555 1_555
H23_3 C10_3 1_555 1_555
H24_3 C10_3 1_555 1_555
C11_3 N2_3 1_555 1_555
H25_3 C11_3 1_555 1_555
H26_3 C11_3 1_555 1_555
C12_3 C11_3 1_555 1_555
H27_3 C12_3 1_555 1_555
H28_3 C12_3 1_555 1_555
H29_3 C12_3 1_555 1_555
C13_3 N2_3 1_555 1_555
H30_3 C13_3 1_555 1_555
H31_3 C13_3 1_555 1_555
C14_3 C10_3 1_555 1_555
H32_3 C14_3 1_555 1_555
H33_3 C14_3 1_555 1_555
H34_3 C14_3 1_555 1_555
C15_3 C13_3 1_555 1_555
H36_3 C15_3 1_555 1_555
C16_3 C9_3 1_555 1_555
H38_3 C16_3 1_555 1_555
H39_3 C16_3 1_555 1_555
H40_3 C16_3 1_555 1_555
N2_4 C9_4 1_555 1_555
C9_4 H21_4 1_555 1_555
H22_4 C9_4 1_555 1_555
C11_4 N2_4 1_555 1_555
H25_4 C11_4 1_555 1_555
H26_4 C11_4 1_555 1_555
C12_4 C11_4 1_555 1_555
H27_4 C12_4 1_555 1_555
H29_4 C12_4 1_555 1_555
H36_4 C15_4 1_555 1_555
H37_4 C15_4 1_555 1_555
C16_4 C9_4 1_555 1_555
H39_4 C16_4 1_555 1_555
H40_4 C16_4 1_555 1_555
H23_4 C10_4 1_555 1_555
H24_4 C10_4 1_555 1_555
H30_4 C13_4 1_555 1_555
H31_4 C13_4 1_555 1_555
C14_4 C10_4 1_555 1_555
H34_4 C14_4 1_555 1_555
Zn2 O1 1_555 1_555
Zn4 N4 1_555 1_555
O1 C20 1_555 1_555
N3 Zn2 1_555 1_555
N4 C22 1_555 1_555
N5 Zn2 1_555 1_555
N6 Zn4 1_555 1_555
O4 C18 1_555 1_555
O6 C20 1_555 1_555
O7 C18 1_555 1_555
C18 C29 1_555 1_555
C20 C31 1_555 1_555
C22 N3 1_555 1_555
C23 N6 1_555 1_555
C26 C23 1_555 1_555
H44 C26 1_555 1_555
H45 C26 1_555 1_555
H46 C26 1_555 1_555
N19 N3 1_555 1_555
C31 C37 1_555 1_555
N22 N4 1_555 1_555
C33 H49 1_555 1_555
H50 C33 1_555 1_555
H51 C33 1_555 1_555
C37 C29 1_555 1_555
C38 C22 1_555 1_555
H58 C38 1_555 1_555
H59 C38 1_555 1_555
H60 C38 1_555 1_555
C41 C29 1_555 1_555
H67 C41 1_555 1_555
C42 C31 1_555 1_555
H69 C42 1_555 1_555
H70 C42 1_555 1_555
Zn7 O4 1_555 1_555
O9 Zn4 1_555 1_555
N28 Zn2 1_555 1_555
N29 Zn4 1_555 1_555
N19 N22 1_555 1_555
C33 C37 1_555 1_555
C41 C42 1_555 1_555
Zn1 O3 1_555 1_555
O2 C19 1_555 1_555
O3 C17 1_555 1_555
N7 C25 1_555 1_555
N8 Zn1 1_555 1_555
O5 C19 1_555 1_555
N11 Zn1 1_555 1_555
N14 Zn1 1_555 1_555
N15 N13 1_555 1_555
O8 C17 1_555 1_555
C17 C30 1_555 1_555
C19 C32 1_555 1_555
N16 N10 1_555 1_555
C25 N8 1_555 1_555
C27 N11 1_555 1_555
C30 C44 1_555 1_555
N20 N11 1_555 1_555
C32 H48 1_555 1_555
C34 C48 1_555 1_555
C35 C27 1_555 1_555
H52 C35 1_555 1_555
H54 C35 1_555 1_555
C36 C28 1_555 1_555
H55 C36 1_555 1_555
H56 C36 1_555 1_555
N25 N7 1_555 1_555
N26 N8 1_555 1_555
C39 C25 1_555 1_555
H61 C39 1_555 1_555
H62 C39 1_555 1_555
H63 C39 1_555 1_555
C44 H74 1_555 1_555
H75 C44 1_555 1_555
C45 C30 1_555 1_555
H76 C45 1_555 1_555
H77 C45 1_555 1_555
H78 C45 1_555 1_555
C46 C32 1_555 1_555
H79 C46 1_555 1_555
C47 H80 1_555 1_555
H81 C47 1_555 1_555
H82 C47 1_555 1_555
C48 C30 1_555 1_555
Zn6 N7 1_555 1_555
Zn8 O2 1_555 1_555
N14 N15 1_555 1_555
C32 C48 1_555 1_555
N25 N26 1_555 1_555
C44 C46 1_555 1_555
C47 C48 1_555 1_555
C34 H83 1_555 1_555
C34 H84 1_555 1_555
C34 H85 1_555 1_555
C46 H86 1_555 1_555
Zn6 N9 1_555 1_555
N12 Zn6 1_555 1_555
N17 N12 1_555 1_555
O10 Zn6 1_555 1_555
N21 N18 1_555 1_555
Zn5 N18 1_555 1_555
Zn9 N23 1_555 1_555
Zn7 N9_2 1_555 1_555
N12_2 Zn7 1_555 1_555
C21 H41 1_555 1_555
H42 C21 1_555 1_555
H43 C21 1_555 1_555
N17_2 N12_2 1_555 1_555
N24 N17_2 1_555 1_555
H64 C40 1_555 1_555
H65 C40 1_555 1_555
H66 C40 1_555 1_555
H71 C43 1_555 1_555
H72 C43 1_555 1_555
H73 C43 1_555 1_555
N27 Zn7 1_555 1_555
N9_2 C24 1_555 1_555
C21 C24 1_555 1_555
Zn1_2 O3_2 1_555 1_555
Zn2_2 O1_2 1_555 1_555
Zn8 N4_2 1_555 1_555
O1_2 C20_2 1_555 1_555
N3_2 Zn2_2 1_555 1_555
N4_2 C22_2 1_555 1_555
N5_2 Zn2_2 1_555 1_555
O9 C19_2 1_555 1_555
O3_2 C17_2 1_555 1_555
N6_2 Zn8 1_555 1_555
N27 C25_2 1_555 1_555
N8_2 Zn1_2 1_555 1_555
O10 C18_2 1_555 1_555
N10_2 N5_2 1_555 1_555
O5_2 C19_2 1_555 1_555
N11_2 Zn1_2 1_555 1_555
O6_2 C20_2 1_555 1_555
N13_2 N6_2 1_555 1_555
N14_2 Zn1_2 1_555 1_555
N15_2 N13_2 1_555 1_555
O7_2 C18_2 1_555 1_555
O8_2 C17_2 1_555 1_555
C17_2 C30_2 1_555 1_555
C18_2 C29_2 1_555 1_555
C19_2 C32_2 1_555 1_555
C20_2 C31_2 1_555 1_555
N16_2 N10_2 1_555 1_555
C22_2 N3_2 1_555 1_555
C23_2 N6_2 1_555 1_555
C25_2 N8_2 1_555 1_555
C26_2 C23_2 1_555 1_555
H44_2 C26_2 1_555 1_555
H45_2 C26_2 1_555 1_555
H46_2 C26_2 1_555 1_555
C27_2 N11_2 1_555 1_555
N18_2 C27_2 1_555 1_555
C30_2 C44_2 1_555 1_555
N19_2 N3_2 1_555 1_555
C31_2 C37_2 1_555 1_555
N20_2 N11_2 1_555 1_555
N21_2 N18_2 1_555 1_555
N22_2 N4_2 1_555 1_555
N23_2 C28_2 1_555 1_555
C32_2 H48_2 1_555 1_555
C33_2 H49_2 1_555 1_555
H50_2 C33_2 1_555 1_555
H51_2 C33_2 1_555 1_555
C34_2 C48_2 1_555 1_555
C35_2 C27_2 1_555 1_555
H52_2 C35_2 1_555 1_555
H53_2 C35_2 1_555 1_555
H54_2 C35_2 1_555 1_555
C36_2 C28_2 1_555 1_555
H55_2 C36_2 1_555 1_555
H56_2 C36_2 1_555 1_555
C37_2 C29_2 1_555 1_555
C38_2 C22_2 1_555 1_555
H58_2 C38_2 1_555 1_555
H59_2 C38_2 1_555 1_555
H60_2 C38_2 1_555 1_555
N25_2 N27 1_555 1_555
N26_2 N8_2 1_555 1_555
C39_2 C25_2 1_555 1_555
H61_2 C39_2 1_555 1_555
H62_2 C39_2 1_555 1_555
H63_2 C39_2 1_555 1_555
C41_2 C29_2 1_555 1_555
H67_2 C41_2 1_555 1_555
C42_2 C31_2 1_555 1_555
H69_2 C42_2 1_555 1_555
H70_2 C42_2 1_555 1_555
C44_2 H74_2 1_555 1_555
H75_2 C44_2 1_555 1_555
C45_2 C30_2 1_555 1_555
H76_2 C45_2 1_555 1_555
H77_2 C45_2 1_555 1_555
H78_2 C45_2 1_555 1_555
C46_2 C32_2 1_555 1_555
H79_2 C46_2 1_555 1_555
C47_2 H80_2 1_555 1_555
H81_2 C47_2 1_555 1_555
H82_2 C47_2 1_555 1_555
C48_2 C30_2 1_555 1_555
Zn5_2 N18_2 1_555 1_555
Zn9_2 N23_2 1_555 1_555
N28_2 Zn2_2 1_555 1_555
N29_2 Zn8 1_555 1_555
N14_2 N15_2 1_555 1_555
N14_2 C23_2 1_555 1_555
N19_2 N22_2 1_555 1_555
N20_2 N21_2 1_555 1_555
C32_2 C48_2 1_555 1_555
C33_2 C37_2 1_555 1_555
N25_2 N26_2 1_555 1_555
C41_2 C42_2 1_555 1_555
C44_2 C46_2 1_555 1_555
C47_2 C48_2 1_555 1_555
C34_2 H83_2 1_555 1_555
C34_2 H84_2 1_555 1_555
C34_2 H85_2 1_555 1_555
C46_2 H86_2 1_555 1_555
Zn3 N9_3 1_555 1_555
N9_3 N16_3 1_555 1_555
N12_3 Zn3 1_555 1_555
N15_3 N13_3 1_555 1_555
N16_3 N10_3 1_555 1_555
C28_3 N12_3 1_555 1_555
N17_3 N12_3 1_555 1_555
N28 C27_3 1_555 1_555
N29 C28_3 1_555 1_555
N24_2 N17_3 1_555 1_555
C35_3 C27_3 1_555 1_555
H53_3 C35_3 1_555 1_555
H54_3 C35_3 1_555 1_555
C36_3 C28_3 1_555 1_555
H55_3 C36_3 1_555 1_555
H56_3 C36_3 1_555 1_555
H57_2 C36_3 1_555 1_555
H76_3 C45_3 1_555 1_555
H77_3 C45_3 1_555 1_555
H78_3 C45_3 1_555 1_555
C47_3 H80_3 1_555 1_555
H81_3 C47_3 1_555 1_555
H82_3 C47_3 1_555 1_555
N27_2 Zn3 1_555 1_555
O10_2 Zn3 1_555 1_555
N29 N24_2 1_555 1_555
Zn5 O1_3 1_555 1_555
Zn9 N4_3 1_555 1_555
O1_3 C20_3 1_555 1_555
N3_3 Zn5 1_555 1_555
N4_3 C22_3 1_555 1_555
N5_3 Zn5 1_555 1_555
N6_3 Zn9 1_555 1_555
O4_2 C18_3 1_555 1_555
O6_3 C20_3 1_555 1_555
O7_3 C18_3 1_555 1_555
C18_3 C29_3 1_555 1_555
C20_3 C31_3 1_555 1_555
C21_2 H41_2 1_555 1_555
H42_2 C21_2 1_555 1_555
H43_2 C21_2 1_555 1_555
C22_3 N3_3 1_555 1_555
C24_2 N5_3 1_555 1_555
C29_3 H47_2 1_555 1_555
N19_3 N3_3 1_555 1_555
C31_3 C37_3 1_555 1_555
N22_3 N4_3 1_555 1_555
C33_3 H49_3 1_555 1_555
H50_3 C33_3 1_555 1_555
H51_3 C33_3 1_555 1_555
C37_3 C29_3 1_555 1_555
C38_3 C22_3 1_555 1_555
H58_3 C38_3 1_555 1_555
H59_3 C38_3 1_555 1_555
H60_3 C38_3 1_555 1_555
C40_2 C37_3 1_555 1_555
H64_2 C40_2 1_555 1_555
H65_2 C40_2 1_555 1_555
H66_2 C40_2 1_555 1_555
C41_3 C29_3 1_555 1_555
H67_3 C41_3 1_555 1_555
H68_2 C41_3 1_555 1_555
C42_3 C31_3 1_555 1_555
H69_3 C42_3 1_555 1_555
H70_3 C42_3 1_555 1_555
C43_2 C31_3 1_555 1_555
H71_2 C43_2 1_555 1_555
H72_2 C43_2 1_555 1_555
H73_2 C43_2 1_555 1_555
Zn7_2 O4_2 1_555 1_555
O9_2 Zn9 1_555 1_555
C21_2 C24_2 1_555 1_555
N19_3 N22_3 1_555 1_555
C33_3 C37_3 1_555 1_555
C41_3 C42_3 1_555 1_555
Zn1_3 O3_3 1_555 1_555
O2_2 C19_3 1_555 1_555
O3_3 C17_3 1_555 1_555
N27_2 C25_3 1_555 1_555
N8_3 Zn1_3 1_555 1_555
O5_3 C19_3 1_555 1_555
N11_3 Zn1_3 1_555 1_555
N14_3 Zn1_3 1_555 1_555
O8_3 C17_3 1_555 1_555
C17_3 C30_3 1_555 1_555
C19_3 C32_3 1_555 1_555
C25_3 N8_3 1_555 1_555
C30_3 C44_3 1_555 1_555
N20_3 N11_3 1_555 1_555
C34_3 C48_3 1_555 1_555
N25_3 N27_2 1_555 1_555
N26_3 N8_3 1_555 1_555
C39_3 C25_3 1_555 1_555
H61_3 C39_3 1_555 1_555
H62_3 C39_3 1_555 1_555
H63_3 C39_3 1_555 1_555
C44_3 H74_3 1_555 1_555
H75_3 C44_3 1_555 1_555
C46_3 C32_3 1_555 1_555
H79_3 C46_3 1_555 1_555
C48_3 C30_3 1_555 1_555
Zn9_2 O2_2 1_555 1_555
N20_3 N21_3 1_555 1_555
C32_3 C48_3 1_555 1_555
N25_3 N26_3 1_555 1_555
C44_3 C46_3 1_555 1_555
C34_3 H83_3 1_555 1_555
C34_3 H84_3 1_555 1_555
C34_3 H85_3 1_555 1_555
N29_2 N24_3 1_555 1_555
Zn1_4 O3_4 1_555 1_555
O9_2 C19_4 1_555 1_555
O3_4 C17_4 1_555 1_555
N7_2 C25_4 1_555 1_555
N8_4 Zn1_4 1_555 1_555
O5_4 C19_4 1_555 1_555
N11_4 Zn1_4 1_555 1_555
N14_4 Zn1_4 1_555 1_555
O8_4 C17_4 1_555 1_555
C17_4 C30_4 1_555 1_555
C19_4 C32_4 1_555 1_555
C25_4 N8_4 1_555 1_555
C26_3 C23_3 1_555 1_555
H44_3 C26_3 1_555 1_555
H45_3 C26_3 1_555 1_555
H46_3 C26_3 1_555 1_555
C30_4 C44_4 1_555 1_555
N20_4 N11_4 1_555 1_555
C34_4 C48_4 1_555 1_555
N25_4 N7_2 1_555 1_555
N26_4 N8_4 1_555 1_555
C39_4 C25_4 1_555 1_555
H61_4 C39_4 1_555 1_555
H62_4 C39_4 1_555 1_555
H63_4 C39_4 1_555 1_555
C44_4 H74_4 1_555 1_555
H75_4 C44_4 1_555 1_555
C46_4 C32_4 1_555 1_555
H79_4 C46_4 1_555 1_555
C48_4 C30_4 1_555 1_555
Zn7_2 N7_2 1_555 1_555
N14_4 C23_3 1_555 1_555
C32_4 C48_4 1_555 1_555
N25_4 N26_4 1_555 1_555
C44_4 C46_4 1_555 1_555
C34_4 H83_4 1_555 1_555
C34_4 H84_4 1_555 1_555
C34_4 H85_4 1_555 1_555
Zn5_2 O1_4 1_555 1_555
Zn7_2 N9_4 1_555 1_555
Zn9_2 N4_4 1_555 1_555
O1_4 C20_4 1_555 1_555
N3_4 Zn5_2 1_555 1_555
N4_4 C22_4 1_555 1_555
N5_4 Zn5_2 1_555 1_555
N6_4 Zn9_2 1_555 1_555
O10_2 C18_4 1_555 1_555
N9_4 N16_4 1_555 1_555
N10_4 N5_4 1_555 1_555
O6_4 C20_4 1_555 1_555
N12_4 Zn7_2 1_555 1_555
N13_4 N6_4 1_555 1_555
N15_4 N13_4 1_555 1_555
O7_4 C18_4 1_555 1_555
C18_4 C29_4 1_555 1_555
C20_4 C31_4 1_555 1_555
C21_3 H41_3 1_555 1_555
H42_3 C21_3 1_555 1_555
H43_3 C21_3 1_555 1_555
N16_4 N10_4 1_555 1_555
C22_4 N3_4 1_555 1_555
C24_3 N5_4 1_555 1_555
C28_4 N12_4 1_555 1_555
N17_4 N12_4 1_555 1_555
C29_4 H47_3 1_555 1_555
N19_4 N3_4 1_555 1_555
C31_4 C37_4 1_555 1_555
N22_4 N4_4 1_555 1_555
C33_4 H49_4 1_555 1_555
H50_4 C33_4 1_555 1_555
H51_4 C33_4 1_555 1_555
C35_4 C27_4 1_555 1_555
H54_4 C35_4 1_555 1_555
C36_4 C28_4 1_555 1_555
H55_4 C36_4 1_555 1_555
H56_4 C36_4 1_555 1_555
C37_4 C29_4 1_555 1_555
C38_4 C22_4 1_555 1_555
H58_4 C38_4 1_555 1_555
H59_4 C38_4 1_555 1_555
H60_4 C38_4 1_555 1_555
C40_3 C37_4 1_555 1_555
H64_3 C40_3 1_555 1_555
H65_3 C40_3 1_555 1_555
H66_3 C40_3 1_555 1_555
C41_4 C29_4 1_555 1_555
H67_4 C41_4 1_555 1_555
H68_3 C41_4 1_555 1_555
C42_4 C31_4 1_555 1_555
H69_4 C42_4 1_555 1_555
H70_4 C42_4 1_555 1_555
C43_3 C31_4 1_555 1_555
H71_3 C43_3 1_555 1_555
H72_3 C43_3 1_555 1_555
H73_3 C43_3 1_555 1_555
H76_4 C45_4 1_555 1_555
H77_4 C45_4 1_555 1_555
H78_4 C45_4 1_555 1_555
C47_4 H80_4 1_555 1_555
H81_4 C47_4 1_555 1_555
H82_4 C47_4 1_555 1_555
N9_4 C24_3 1_555 1_555
C21_3 C24_3 1_555 1_555
N19_4 N22_4 1_555 1_555
C33_4 C37_4 1_555 1_555
C41_4 C42_4 1_555 1_555
C21_4 H41_4 1_555 1_555
H42_4 C21_4 1_555 1_555
H43_4 C21_4 1_555 1_555
H64_4 C40_4 1_555 1_555
H65_4 C40_4 1_555 1_555
H66_4 C40_4 1_555 1_555
H71_4 C43_4 1_555 1_555
H72_4 C43_4 1_555 1_555
H73_4 C43_4 1_555 1_555
C21_4 C24_4 1_555 1_555
C26_4 C23_4 1_555 1_555
H44_4 C26_4 1_555 1_555
H45_4 C26_4 1_555 1_555
H46_4 C26_4 1_555 1_555

#END
