
###############################################################################
#
# This file contains modified crystal structure data generated from the
# MOF subset of the Cambridge Structural Database (CSD) v543 
# hosted by the Cambridge Crystallographic Data Centre (CCDC).
#
# This work is licensed under the Creative Commons
# Attribution-NonCommercial-ShareAlike 4.0 International License.
# To view a copy of this license, visit
# http://creativecommons.org/licenses/by-nc-sa/4.0/
# or send a letter to
# Creative Commons, PO Box 1866, Mountain View, CA 94042, USA.
#
# CIF created using the CSD Python API on 29 September 2022
# The structure has been converted into the P1 space group
# The structure has a 3D framework
# The original CSD entry MUSVEE is in the trigonal crystal system
# The original CSD entry MUSVEE is in a Sohncke space group
# The framework has been calculated to contain at least 10.0% void space
# The void calculation uses a probe of radius 1.32A, grid spacing 0.4
# The framework is charged, counterions have been retained in the structure
# H atom positions have been added when not included in the experimental data
#
###############################################################################

data_MUSVEE
_chemical_formula_moiety         '(C132 H72 N30 O42 Zn12 6-)n'
_symmetry_cell_setting           triclinic
_symmetry_space_group_name_H-M   'P 1'
_symmetry_Int_Tables_number      1
_space_group_name_Hall           'P 1'
loop_
_symmetry_equiv_pos_site_id
_symmetry_equiv_pos_as_xyz
1 x,y,z
_cell_length_a                   20.5369(12)
_cell_length_b                   20.5369(12)
_cell_length_c                   34.603(2)
_cell_angle_alpha                90
_cell_angle_beta                 90
_cell_angle_gamma                120
_cell_volume                     12639
loop_
_atom_site_label
_atom_site_type_symbol
_atom_site_fract_x
_atom_site_fract_y
_atom_site_fract_z
C1 C 0.4495(5) 0.2270(4) 0.2824(2)
H1 H 0.4522 0.2357 0.3089
C2 C 0.4199(6) 0.1507(4) 0.2659(2)
C3 C 0.4204(6) 0.1684(5) 0.22613(19)
H2 H 0.4024 0.1329 0.2064
C4 C 0.3997(6) 0.0843(6) 0.2863(3)
N1 N 0.4728(4) 0.2842(4) 0.25555(14)
N2 N 0.4499(4) 0.2426(4) 0.22044(13)
N3 N 0.3697(4) 0.0222(4) 0.26530(18)
O1 O 0.4043(4) 0.0827(3) 0.32272(16)
Zn4 Zn 0.47707(7) 0.30110(5) 0.17097(2)
Zn7 Zn 0.52255(5) 0.38954(7) 0.25314(2)
H12 H 0.358981 0.0277145 0.237221
C5 C 0.3521(5) 0.9541(4) 0.2765(2)
C6 C 0.3019(5) 0.8869(5) 0.2514(2)
H3 H 0.2819 0.8953 0.2291
C7 C 0.2856(5) 0.8199(5) 0.25899(19)
C8 C 0.3160(6) 0.8033(5) 0.29238(19)
H4 H 0.3027 0.7538 0.2978
C9 C 0.3654(5) 0.8610(5) 0.3168(2)
C10 C 0.3826(6) 0.9345(5) 0.3084(2)
H5 H 0.4160 0.9728 0.3246
C11 C 0.2383(5) 0.7565(5) 0.2318(2)
C12 C 0.3945(5) 0.8417(6) 0.35086(19)
C13 C 0.3517(6) 0.7608(4) 0.5072(2)
H6 H 0.3470 0.7418 0.5321
C14 C 0.2956(5) 0.7536(5) 0.4884(2)
C15 C 0.3235(5) 0.7881(5) 0.4540(2)
H7 H 0.2953 0.7929 0.4343
C16 C 0.2163(5) 0.7148(6) 0.4987(2)
C17 C 0.1865(6) 0.6715(6) 0.5328(3)
H8 H 0.2205 0.6690 0.5496
C18 C 0.1133(5) 0.6336(6) 0.5428(2)
H9 H 0.0996 0.6097 0.5667
C19 C 0.0614(5) 0.6297(5) 0.5199(2)
C20 C 0.0857(6) 0.6707(7) 0.4846(2)
H10 H 0.0497 0.6692 0.4678
C21 C 0.1602(5) 0.7124(6) 0.4745(3)
H11 H 0.1736 0.7393 0.4514
N4 N 0.3959(4) 0.8136(4) 0.45257(17)
N5 N 0.4189(4) 0.7975(3) 0.48899(14)
O2 O 0.2199(3) 0.7773(3) 0.20052(12)
O3 O 0.2186(4) 0.6909(3) 0.24006(13)
O4 O 0.4452(3) 0.9036(3) 0.37066(12)
O5 O 0.3858(4) 0.7797(4) 0.35878(14)
Zn1 Zn 0.17597(5) 0.69890(5) 0.16236(2)
Zn2 Zn 0.47745(5) 0.86699(5) 0.41353(2)
N6 N 0.5272(4) 0.8114(6) 0.41112(14)
N7 N 0.2073(6) 0.7574(4) 0.11289(13)
N8 N 0.2025(3) 0.6214(5) 0.15566(14)
O8 O 0.0690(3) 0.6505(4) 0.16325(13)
O9 O 0.5516(3) 0.9615(3) 0.44042(13)
Zn3 Zn 0.52293(7) 0.82403(5) 0.49569(2)
C22 C 0.9786(6) 0.5839(6) 0.5288(2)
O6 O 0.9310(3) 0.5815(3) 0.50342(13)
O7 O 0.9615(3) 0.5516(3) 0.55958(13)
Zn5 Zn 0.82403(5) 0.52293(7) 0.50431(2)
Zn6 Zn 0.86699(5) 0.47745(5) 0.58647(2)
C12_2 C 0.1583(6) 0.5528(8) 0.01753(19)
C13_2 C 0.2392(4) 0.5909(7) 0.1739(2)
H6_2 H 0.2582 0.6052 0.1988
C14_2 C 0.2464(5) 0.5420(7) 0.1551(2)
C15_2 C 0.2119(5) 0.5354(7) 0.1207(2)
H7_2 H 0.2071 0.5024 0.1010
C16_2 C 0.2852(6) 0.5015(8) 0.1654(2)
C17_2 C 0.3285(6) 0.5150(8) 0.1995(3)
H8_2 H 0.3310 0.5515 0.2163
C18_2 C 0.3664(6) 0.4797(8) 0.2095(2)
H9_2 H 0.3903 0.4899 0.2334
C19_2 C 0.3703(5) 0.4317(7) 0.1866(2)
C20_2 C 0.3293(7) 0.4150(9) 0.1513(2)
H10_2 H 0.3308 0.3805 0.1345
C21_2 C 0.2876(6) 0.4478(8) 0.1412(3)
H11_2 H 0.2607 0.4343 0.1181
C22_2 C 0.4161(6) 0.3947(8) 0.1955(2)
N4_2 N 0.1864(4) 0.5823(6) 0.11924(17)
O4_2 O 0.0964(3) 0.5416(4) 0.03733(12)
O5_2 O 0.2203(4) 0.6061(6) 0.02545(14)
O6_2 O 0.4185(3) 0.3495(4) 0.17009(13)
O7_2 O 0.4484(3) 0.4099(4) 0.22625(13)
Zn2_2 Zn 0.13301(5) 0.61046(7) 0.08020(2)
N6_2 N 0.1886(6) 0.7158(7) 0.07778(14)
O9_2 O 0.0385(3) 0.5901(4) 0.10709(13)
C5_2 C 0.0459(4) 0.3980(6) 0.9432(2)
C6_2 C 0.1131(5) 0.4150(7) 0.9181(2)
H3_2 H 0.1047 0.3866 0.8958
C7_2 C 0.1801(5) 0.4657(7) 0.92566(19)
C8_2 C 0.1967(5) 0.5127(8) 0.95905(19)
H4_2 H 0.2462 0.5489 0.9645
C9_2 C 0.1390(5) 0.5044(7) 0.9835(2)
C10_2 C 0.0655(5) 0.4481(8) 0.9751(2)
H5_2 H 0.0272 0.4432 0.9913
C11_2 C 0.2435(5) 0.4818(7) 0.8985(2)
O2_2 O 0.2227(3) 0.4426(4) 0.86719(12)
O3_2 O 0.3091(3) 0.5277(5) 0.90673(13)
Zn1_2 Zn 0.30110(5) 0.47707(7) 0.82903(2)
N7_2 N 0.2426(4) 0.4499(7) 0.77956(13)
N8_2 N 0.3786(5) 0.5811(6) 0.82232(14)
O8_2 O 0.3495(4) 0.4185(5) 0.82991(13)
C1_2 C 0.7730(4) 0.2225(6) 0.9491(2)
H1_2 H 0.7643 0.2165 0.9756
C2_2 C 0.8493(4) 0.2692(7) 0.9326(2)
C3_2 C 0.8316(5) 0.2520(8) 0.89280(19)
H2_2 H 0.8671 0.2695 0.8731
C4_2 C 0.9157(6) 0.3154(8) 0.9530(3)
N1_2 N 0.7158(4) 0.1886(6) 0.92222(14)
N2_2 N 0.7574(4) 0.2073(6) 0.88711(13)
N3_2 N 0.9778(4) 0.3475(6) 0.93197(18)
O1_2 O 0.9173(3) 0.3216(5) 0.98939(16)
Zn4_2 Zn 0.69890(5) 0.17597(9) 0.83764(2)
Zn7_2 Zn 0.61046(7) 0.13301(9) 0.91980(2)
H12_2 H 0.972285 0.331266 0.903888
C22_3 C 0.6053(8) 0.0214(6) 0.8621(2)
O6_3 O 0.6505(4) 0.0690(3) 0.83675(13)
O7_3 O 0.5901(4) 0.0385(3) 0.89291(13)
C1_3 C 0.7775(6) 0.5505(5) 0.6157(2)
H1_3 H 0.7835 0.5478 0.6422
C2_3 C 0.7308(7) 0.5801(6) 0.5992(2)
C3_3 C 0.7480(8) 0.5796(6) 0.55946(19)
H2_3 H 0.7305 0.5976 0.5397
C4_3 C 0.6846(8) 0.6003(6) 0.6196(3)
C5_3 C 0.6020(6) 0.6479(5) 0.6098(2)
C6_3 C 0.5850(7) 0.6981(5) 0.5847(2)
H3_3 H 0.6134 0.7181 0.5624
C7_3 C 0.5343(7) 0.7144(5) 0.59232(19)
C8_3 C 0.4873(8) 0.6840(6) 0.62571(19)
H4_3 H 0.4511 0.6973 0.6311
C9_3 C 0.4956(7) 0.6346(5) 0.6501(2)
C10_3 C 0.5519(8) 0.6174(6) 0.6417(2)
H5_3 H 0.5568 0.5840 0.6579
C11_3 C 0.5182(7) 0.7617(5) 0.5651(2)
C12_3 C 0.4472(8) 0.6055(5) 0.68419(19)
C13_3 C 0.4091(7) 0.6483(6) 0.8405(2)
H6_3 H 0.3948 0.6530 0.8654
C14_3 C 0.4580(7) 0.7044(5) 0.8217(2)
C15_3 C 0.4646(7) 0.6765(5) 0.7873(2)
H7_3 H 0.4976 0.7047 0.7676
C16_3 C 0.4985(8) 0.7837(5) 0.8320(2)
C17_3 C 0.4850(8) 0.8135(6) 0.8661(3)
H8_3 H 0.4485 0.7795 0.8829
C18_3 C 0.5203(8) 0.8867(5) 0.8761(2)
H9_3 H 0.5101 0.9004 0.9000
C19_3 C 0.5683(7) 0.9386(5) 0.8532(2)
C20_3 C 0.5850(9) 0.9143(6) 0.8179(2)
H10_3 H 0.6195 0.9503 0.8011
C21_3 C 0.5522(8) 0.8398(5) 0.8078(3)
H11_3 H 0.5657 0.8264 0.7847
N1_3 N 0.8114(6) 0.5272(4) 0.58888(14)
N2_3 N 0.7927(6) 0.5501(4) 0.55377(13)
N3_3 N 0.6525(6) 0.6303(4) 0.59863(18)
N4_3 N 0.4177(6) 0.6041(4) 0.78590(17)
O1_3 O 0.6784(5) 0.5957(4) 0.65605(16)
O2_3 O 0.5574(4) 0.7801(3) 0.53385(12)
O3_3 O 0.4723(5) 0.7814(4) 0.57339(13)
O4_3 O 0.4584(4) 0.5548(3) 0.70399(12)
O5_3 O 0.3939(6) 0.6142(4) 0.69211(14)
Zn2_3 Zn 0.38954(7) 0.52255(5) 0.74686(2)
N6_3 N 0.2842(7) 0.4728(4) 0.74445(14)
N7_3 N 0.5501(7) 0.7927(6) 0.44623(13)
O8_3 O 0.5815(5) 0.9310(3) 0.49658(13)
O9_3 O 0.4099(4) 0.4484(3) 0.77375(13)
H12_3 H 0.668734 0.641019 0.570555
C1_4 C 0.2270(4) 0.4495(5) 0.7176(2)
H1_4 H 0.2357 0.4522 0.6911
C2_4 C 0.1507(4) 0.4199(6) 0.7341(2)
C3_4 C 0.1684(5) 0.4204(6) 0.77387(19)
H2_4 H 0.1329 0.4024 0.7936
C4_4 C 0.0843(6) 0.3997(6) 0.7137(3)
N3_4 N 0.0222(4) 0.3697(4) 0.73470(18)
O1_4 O 0.0827(3) 0.4043(4) 0.67728(16)
H12_4 H 0.0277145 0.358981 0.762779
C5_4 C 0.9541(4) 0.3521(5) 0.7235(2)
C6_4 C 0.8869(5) 0.3019(5) 0.7486(2)
H3_4 H 0.8953 0.2819 0.7709
C7_4 C 0.8199(5) 0.2856(5) 0.74101(19)
C8_4 C 0.8033(5) 0.3160(6) 0.70762(19)
H4_4 H 0.7538 0.3027 0.7022
C9_4 C 0.8610(5) 0.3654(5) 0.6832(2)
C10_4 C 0.9345(5) 0.3826(6) 0.6916(2)
H5_4 H 0.9728 0.4160 0.6754
C11_4 C 0.7565(5) 0.2383(5) 0.7682(2)
C12_4 C 0.8417(6) 0.3945(5) 0.64914(19)
C13_4 C 0.7608(4) 0.3517(6) 0.4928(2)
H6_4 H 0.7418 0.3470 0.4679
C14_4 C 0.7536(5) 0.2956(5) 0.5116(2)
C15_4 C 0.7881(5) 0.3235(5) 0.5460(2)
H7_4 H 0.7929 0.2953 0.5657
C16_4 C 0.7148(6) 0.2163(5) 0.5013(2)
C17_4 C 0.6715(6) 0.1865(6) 0.4672(3)
H8_4 H 0.6690 0.2205 0.4504
C18_4 C 0.6336(6) 0.1133(5) 0.4572(2)
H9_4 H 0.6097 0.0996 0.4333
C19_4 C 0.6297(5) 0.0614(5) 0.4801(2)
C20_4 C 0.6707(7) 0.0857(6) 0.5154(2)
H10_4 H 0.6692 0.0497 0.5322
C21_4 C 0.7124(6) 0.1602(5) 0.5255(3)
H11_4 H 0.7393 0.1736 0.5486
N4_4 N 0.8136(4) 0.3959(4) 0.54743(17)
N5_2 N 0.7975(3) 0.4189(4) 0.51101(14)
O2_4 O 0.7773(3) 0.2199(3) 0.79948(12)
O3_4 O 0.6909(3) 0.2186(4) 0.75994(13)
O4_4 O 0.9036(3) 0.4452(3) 0.62934(12)
O5_4 O 0.7797(4) 0.3858(4) 0.64122(14)
N8_3 N 0.6214(5) 0.2025(3) 0.84434(14)
C22_4 C 0.5839(6) 0.9786(6) 0.4712(2)
C5_5 C 0.3980(6) 0.0459(4) 0.0568(2)
C6_5 C 0.4150(7) 0.1131(5) 0.0819(2)
H3_5 H 0.3866 0.1047 0.1042
C7_5 C 0.4657(7) 0.1801(5) 0.07434(19)
C8_5 C 0.5127(8) 0.1967(5) 0.04095(19)
H4_5 H 0.5489 0.2462 0.0355
C9_5 C 0.5044(7) 0.1390(5) 0.0165(2)
C10_5 C 0.4481(8) 0.0655(5) 0.0249(2)
H5_5 H 0.4432 0.0272 0.0087
C11_5 C 0.4818(7) 0.2435(5) 0.1015(2)
O2_5 O 0.4426(4) 0.2227(3) 0.13281(12)
O3_5 O 0.5277(5) 0.3091(3) 0.09327(13)
N8_4 N 0.5811(6) 0.3786(5) 0.17768(14)
C12_5 C 0.5528(8) 0.1583(6) 0.98247(19)
C13_5 C 0.5909(7) 0.2392(4) 0.8261(2)
H6_5 H 0.6052 0.2582 0.8012
C14_5 C 0.5420(7) 0.2464(5) 0.8449(2)
C15_5 C 0.5354(7) 0.2119(5) 0.8793(2)
H7_5 H 0.5024 0.2071 0.8990
C16_5 C 0.5015(8) 0.2852(6) 0.8346(2)
C17_5 C 0.5150(8) 0.3285(6) 0.8005(3)
H8_5 H 0.5515 0.3310 0.7837
C18_5 C 0.4797(8) 0.3664(6) 0.7905(2)
H9_5 H 0.4899 0.3903 0.7666
C19_5 C 0.4317(7) 0.3703(5) 0.8134(2)
C20_5 C 0.4150(9) 0.3293(7) 0.8487(2)
H10_5 H 0.3805 0.3308 0.8655
C21_5 C 0.4478(8) 0.2876(6) 0.8588(3)
H11_5 H 0.4343 0.2607 0.8819
C22_5 C 0.3947(8) 0.4161(6) 0.8045(2)
N4_5 N 0.5823(6) 0.1864(4) 0.88076(17)
O4_5 O 0.5416(4) 0.0964(3) 0.96267(12)
O5_5 O 0.6061(6) 0.2203(4) 0.97455(14)
C1_5 C 0.2225(6) 0.7730(4) 0.0509(2)
H1_5 H 0.2165 0.7643 0.0244
C2_5 C 0.2692(7) 0.8493(4) 0.0674(2)
C3_5 C 0.2520(8) 0.8316(5) 0.10720(19)
H2_5 H 0.2695 0.8671 0.1269
C4_5 C 0.3154(8) 0.9157(6) 0.0470(3)
N3_5 N 0.3475(6) 0.9778(4) 0.06803(18)
O1_5 O 0.3216(5) 0.9173(3) 0.01061(16)
H12_5 H 0.331266 0.972285 0.0961119
C22_6 C 0.0214(6) 0.6053(8) 0.1379(2)
C1_6 C 0.5505(5) 0.7775(6) 0.3843(2)
H1_6 H 0.5478 0.7835 0.3578
C2_6 C 0.5801(6) 0.7308(7) 0.4008(2)
C3_6 C 0.5796(6) 0.7480(8) 0.44054(19)
H2_6 H 0.5976 0.7305 0.4603
C4_6 C 0.6003(6) 0.6846(8) 0.3804(3)
C5_6 C 0.6479(5) 0.6020(6) 0.3902(2)
C6_6 C 0.6981(5) 0.5850(7) 0.4153(2)
H3_6 H 0.7181 0.6134 0.4376
C7_6 C 0.7144(5) 0.5343(7) 0.40768(19)
C8_6 C 0.6840(6) 0.4873(8) 0.37429(19)
H4_6 H 0.6973 0.4511 0.3689
C9_6 C 0.6346(5) 0.4956(7) 0.3499(2)
C10_6 C 0.6174(6) 0.5519(8) 0.3583(2)
H5_6 H 0.5840 0.5568 0.3421
C11_6 C 0.7617(5) 0.5182(7) 0.4349(2)
C12_6 C 0.6055(5) 0.4472(8) 0.31581(19)
C13_6 C 0.6483(6) 0.4091(7) 0.1595(2)
H6_6 H 0.6530 0.3948 0.1346
C14_6 C 0.7044(5) 0.4580(7) 0.1783(2)
C15_6 C 0.6765(5) 0.4646(7) 0.2127(2)
H7_6 H 0.7047 0.4976 0.2324
C16_6 C 0.7837(5) 0.4985(8) 0.1680(2)
C17_6 C 0.8135(6) 0.4850(8) 0.1339(3)
H8_6 H 0.7795 0.4485 0.1171
C18_6 C 0.8867(5) 0.5203(8) 0.1239(2)
H9_6 H 0.9004 0.5101 0.1000
C19_6 C 0.9386(5) 0.5683(7) 0.1468(2)
C20_6 C 0.9143(6) 0.5850(9) 0.1821(2)
H10_6 H 0.9503 0.6195 0.1989
C21_6 C 0.8398(5) 0.5522(8) 0.1922(3)
H11_6 H 0.8264 0.5657 0.2153
N3_6 N 0.6303(4) 0.6525(6) 0.40137(18)
N4_6 N 0.6041(4) 0.4177(6) 0.21410(17)
O1_6 O 0.5957(4) 0.6784(5) 0.34395(16)
O2_6 O 0.7801(3) 0.5574(4) 0.46615(12)
O3_6 O 0.7814(4) 0.4723(5) 0.42661(13)
O4_6 O 0.5548(3) 0.4584(4) 0.29601(12)
O5_6 O 0.6142(4) 0.3939(6) 0.30789(14)
H12_6 H 0.641019 0.668734 0.429445
loop_
_geom_bond_atom_site_label_1
_geom_bond_atom_site_label_2
_geom_bond_site_symmetry_1
_geom_bond_site_symmetry_2
C1 H1 1_555 1_555
C2 C1 1_555 1_555
C3 C2 1_555 1_555
H2 C3 1_555 1_555
C4 C2 1_555 1_555
N1 C1 1_555 1_555
N2 C3 1_555 1_555
N3 C4 1_555 1_555
O1 C4 1_555 1_555
Zn4 N2 1_555 1_555
Zn7 N1 1_555 1_555
N1 N2 1_555 1_555
N3 H12 1_555 1_555
C5 C6 1_555 1_555
C6 H3 1_555 1_555
C7 C6 1_555 1_555
C8 C7 1_555 1_555
H4 C8 1_555 1_555
C9 C8 1_555 1_555
C10 C5 1_555 1_555
H5 C10 1_555 1_555
C11 C7 1_555 1_555
C12 C9 1_555 1_555
C13 H6 1_555 1_555
C14 C13 1_555 1_555
C15 C14 1_555 1_555
H7 C15 1_555 1_555
C16 C14 1_555 1_555
C17 C16 1_555 1_555
H8 C17 1_555 1_555
C18 C17 1_555 1_555
H9 C18 1_555 1_555
C19 C18 1_555 1_555
C20 C19 1_555 1_555
H10 C20 1_555 1_555
C21 C16 1_555 1_555
H11 C21 1_555 1_555
N4 C15 1_555 1_555
N5 C13 1_555 1_555
O2 C11 1_555 1_555
O3 C11 1_555 1_555
O4 C12 1_555 1_555
O5 C12 1_555 1_555
Zn1 O2 1_555 1_555
Zn2 N4 1_555 1_555
N6 Zn2 1_555 1_555
N7 Zn1 1_555 1_555
N8 Zn1 1_555 1_555
O8 Zn1 1_555 1_555
O9 Zn2 1_555 1_555
Zn3 N5 1_555 1_555
C9 C10 1_555 1_555
C20 C21 1_555 1_555
N4 N5 1_555 1_555
O4 Zn2 1_555 1_555
O6 C22 1_555 1_555
O7 C22 1_555 1_555
Zn5 O6 1_555 1_555
Zn6 O7 1_555 1_555
C13_2 H6_2 1_555 1_555
C14_2 C13_2 1_555 1_555
C15_2 C14_2 1_555 1_555
H7_2 C15_2 1_555 1_555
C16_2 C14_2 1_555 1_555
C17_2 C16_2 1_555 1_555
H8_2 C17_2 1_555 1_555
C18_2 C17_2 1_555 1_555
H9_2 C18_2 1_555 1_555
C19_2 C18_2 1_555 1_555
C20_2 C19_2 1_555 1_555
H10_2 C20_2 1_555 1_555
C21_2 C16_2 1_555 1_555
H11_2 C21_2 1_555 1_555
C22_2 C19_2 1_555 1_555
N4_2 C15_2 1_555 1_555
N8 C13_2 1_555 1_555
O4_2 C12_2 1_555 1_555
O5_2 C12_2 1_555 1_555
O6_2 C22_2 1_555 1_555
O7_2 C22_2 1_555 1_555
Zn2_2 N4_2 1_555 1_555
N6_2 Zn2_2 1_555 1_555
O9_2 Zn2_2 1_555 1_555
Zn4 O6_2 1_555 1_555
Zn7 O7_2 1_555 1_555
C20_2 C21_2 1_555 1_555
N4_2 N8 1_555 1_555
O4_2 Zn2_2 1_555 1_555
C5_2 C6_2 1_555 1_555
C6_2 H3_2 1_555 1_555
C7_2 C6_2 1_555 1_555
C8_2 C7_2 1_555 1_555
H4_2 C8_2 1_555 1_555
C9_2 C8_2 1_555 1_555
C10_2 C5_2 1_555 1_555
H5_2 C10_2 1_555 1_555
C11_2 C7_2 1_555 1_555
O2_2 C11_2 1_555 1_555
O3_2 C11_2 1_555 1_555
Zn1_2 O2_2 1_555 1_555
N7_2 Zn1_2 1_555 1_555
N8_2 Zn1_2 1_555 1_555
O8_2 Zn1_2 1_555 1_555
C9_2 C10_2 1_555 1_555
C1_2 H1_2 1_555 1_555
C2_2 C1_2 1_555 1_555
C3_2 C2_2 1_555 1_555
H2_2 C3_2 1_555 1_555
C4_2 C2_2 1_555 1_555
N1_2 C1_2 1_555 1_555
N2_2 C3_2 1_555 1_555
N3_2 C4_2 1_555 1_555
O1_2 C4_2 1_555 1_555
Zn4_2 N2_2 1_555 1_555
Zn7_2 N1_2 1_555 1_555
N1_2 N2_2 1_555 1_555
N3_2 H12_2 1_555 1_555
O6_3 C22_3 1_555 1_555
O7_3 C22_3 1_555 1_555
Zn4_2 O6_3 1_555 1_555
Zn7_2 O7_3 1_555 1_555
C1_3 H1_3 1_555 1_555
C2_3 C1_3 1_555 1_555
C3_3 C2_3 1_555 1_555
H2_3 C3_3 1_555 1_555
C4_3 C2_3 1_555 1_555
C5_3 C6_3 1_555 1_555
C6_3 H3_3 1_555 1_555
C7_3 C6_3 1_555 1_555
C8_3 C7_3 1_555 1_555
H4_3 C8_3 1_555 1_555
C9_3 C8_3 1_555 1_555
C10_3 C5_3 1_555 1_555
H5_3 C10_3 1_555 1_555
C11_3 C7_3 1_555 1_555
C12_3 C9_3 1_555 1_555
C13_3 H6_3 1_555 1_555
C14_3 C13_3 1_555 1_555
C15_3 C14_3 1_555 1_555
H7_3 C15_3 1_555 1_555
C16_3 C14_3 1_555 1_555
C17_3 C16_3 1_555 1_555
H8_3 C17_3 1_555 1_555
C18_3 C17_3 1_555 1_555
H9_3 C18_3 1_555 1_555
C19_3 C18_3 1_555 1_555
C20_3 C19_3 1_555 1_555
H10_3 C20_3 1_555 1_555
C21_3 C16_3 1_555 1_555
H11_3 C21_3 1_555 1_555
N1_3 C1_3 1_555 1_555
N2_3 C3_3 1_555 1_555
N3_3 C4_3 1_555 1_555
N4_3 C15_3 1_555 1_555
N8_2 C13_3 1_555 1_555
O1_3 C4_3 1_555 1_555
O2_3 C11_3 1_555 1_555
O3_3 C11_3 1_555 1_555
O4_3 C12_3 1_555 1_555
O5_3 C12_3 1_555 1_555
Zn3 O2_3 1_555 1_555
Zn2_3 N4_3 1_555 1_555
N6_3 Zn2_3 1_555 1_555
N7_3 Zn3 1_555 1_555
O8_3 Zn3 1_555 1_555
O9_3 Zn2_3 1_555 1_555
Zn5 N2_3 1_555 1_555
Zn6 N1_3 1_555 1_555
C5_3 N3_3 1_555 1_555
C9_3 C10_3 1_555 1_555
C20_3 C21_3 1_555 1_555
N1_3 N2_3 1_555 1_555
N4_3 N8_2 1_555 1_555
O4_3 Zn2_3 1_555 1_555
N3_3 H12_3 1_555 1_555
C1_4 H1_4 1_555 1_555
C2_4 C1_4 1_555 1_555
C3_4 C2_4 1_555 1_555
H2_4 C3_4 1_555 1_555
C4_4 C2_4 1_555 1_555
N6_3 C1_4 1_555 1_555
N7_2 C3_4 1_555 1_555
N3_4 C4_4 1_555 1_555
O1_4 C4_4 1_555 1_555
N6_3 N7_2 1_555 1_555
N3_4 H12_4 1_555 1_555
C5_4 C6_4 1_555 1_555
C6_4 H3_4 1_555 1_555
C7_4 C6_4 1_555 1_555
C8_4 C7_4 1_555 1_555
H4_4 C8_4 1_555 1_555
C9_4 C8_4 1_555 1_555
C10_4 C5_4 1_555 1_555
H5_4 C10_4 1_555 1_555
C11_4 C7_4 1_555 1_555
C12_4 C9_4 1_555 1_555
C13_4 H6_4 1_555 1_555
C14_4 C13_4 1_555 1_555
C15_4 C14_4 1_555 1_555
H7_4 C15_4 1_555 1_555
C16_4 C14_4 1_555 1_555
C17_4 C16_4 1_555 1_555
H8_4 C17_4 1_555 1_555
C18_4 C17_4 1_555 1_555
H9_4 C18_4 1_555 1_555
C19_4 C18_4 1_555 1_555
C20_4 C19_4 1_555 1_555
H10_4 C20_4 1_555 1_555
C21_4 C16_4 1_555 1_555
H11_4 C21_4 1_555 1_555
N4_4 C15_4 1_555 1_555
N5_2 C13_4 1_555 1_555
O2_4 C11_4 1_555 1_555
O3_4 C11_4 1_555 1_555
O4_4 C12_4 1_555 1_555
O5_4 C12_4 1_555 1_555
Zn4_2 O2_4 1_555 1_555
Zn6 N4_4 1_555 1_555
N8_3 Zn4_2 1_555 1_555
Zn5 N5_2 1_555 1_555
C9_4 C10_4 1_555 1_555
C20_4 C21_4 1_555 1_555
N4_4 N5_2 1_555 1_555
O4_4 Zn6 1_555 1_555
O8_3 C22_4 1_555 1_555
O9 C22_4 1_555 1_555
C5_5 C6_5 1_555 1_555
C6_5 H3_5 1_555 1_555
C7_5 C6_5 1_555 1_555
C8_5 C7_5 1_555 1_555
H4_5 C8_5 1_555 1_555
C9_5 C8_5 1_555 1_555
C10_5 C5_5 1_555 1_555
H5_5 C10_5 1_555 1_555
C11_5 C7_5 1_555 1_555
O2_5 C11_5 1_555 1_555
O3_5 C11_5 1_555 1_555
Zn4 O2_5 1_555 1_555
N8_4 Zn4 1_555 1_555
C9_5 C10_5 1_555 1_555
C13_5 H6_5 1_555 1_555
C14_5 C13_5 1_555 1_555
C15_5 C14_5 1_555 1_555
H7_5 C15_5 1_555 1_555
C16_5 C14_5 1_555 1_555
C17_5 C16_5 1_555 1_555
H8_5 C17_5 1_555 1_555
C18_5 C17_5 1_555 1_555
H9_5 C18_5 1_555 1_555
C19_5 C18_5 1_555 1_555
C20_5 C19_5 1_555 1_555
H10_5 C20_5 1_555 1_555
C21_5 C16_5 1_555 1_555
H11_5 C21_5 1_555 1_555
C22_5 C19_5 1_555 1_555
N4_5 C15_5 1_555 1_555
N8_3 C13_5 1_555 1_555
O4_5 C12_5 1_555 1_555
O5_5 C12_5 1_555 1_555
O8_2 C22_5 1_555 1_555
O9_3 C22_5 1_555 1_555
Zn7_2 N4_5 1_555 1_555
C20_5 C21_5 1_555 1_555
N4_5 N8_3 1_555 1_555
O4_5 Zn7_2 1_555 1_555
C1_5 H1_5 1_555 1_555
C2_5 C1_5 1_555 1_555
C3_5 C2_5 1_555 1_555
H2_5 C3_5 1_555 1_555
C4_5 C2_5 1_555 1_555
N6_2 C1_5 1_555 1_555
N7 C3_5 1_555 1_555
N3_5 C4_5 1_555 1_555
O1_5 C4_5 1_555 1_555
N6_2 N7 1_555 1_555
N3_5 H12_5 1_555 1_555
O8 C22_6 1_555 1_555
O9_2 C22_6 1_555 1_555
C1_6 H1_6 1_555 1_555
C2_6 C1_6 1_555 1_555
C3_6 C2_6 1_555 1_555
H2_6 C3_6 1_555 1_555
C4_6 C2_6 1_555 1_555
C5_6 C6_6 1_555 1_555
C6_6 H3_6 1_555 1_555
C7_6 C6_6 1_555 1_555
C8_6 C7_6 1_555 1_555
H4_6 C8_6 1_555 1_555
C9_6 C8_6 1_555 1_555
C10_6 C5_6 1_555 1_555
H5_6 C10_6 1_555 1_555
C11_6 C7_6 1_555 1_555
C12_6 C9_6 1_555 1_555
C13_6 H6_6 1_555 1_555
C14_6 C13_6 1_555 1_555
C15_6 C14_6 1_555 1_555
H7_6 C15_6 1_555 1_555
C16_6 C14_6 1_555 1_555
C17_6 C16_6 1_555 1_555
H8_6 C17_6 1_555 1_555
C18_6 C17_6 1_555 1_555
H9_6 C18_6 1_555 1_555
C19_6 C18_6 1_555 1_555
C20_6 C19_6 1_555 1_555
H10_6 C20_6 1_555 1_555
C21_6 C16_6 1_555 1_555
H11_6 C21_6 1_555 1_555
N6 C1_6 1_555 1_555
N7_3 C3_6 1_555 1_555
N3_6 C4_6 1_555 1_555
N4_6 C15_6 1_555 1_555
N8_4 C13_6 1_555 1_555
O1_6 C4_6 1_555 1_555
O2_6 C11_6 1_555 1_555
O3_6 C11_6 1_555 1_555
O4_6 C12_6 1_555 1_555
O5_6 C12_6 1_555 1_555
Zn5 O2_6 1_555 1_555
Zn7 N4_6 1_555 1_555
C5_6 N3_6 1_555 1_555
C9_6 C10_6 1_555 1_555
C20_6 C21_6 1_555 1_555
N6 N7_3 1_555 1_555
N4_6 N8_4 1_555 1_555
O4_6 Zn7 1_555 1_555
N3_6 H12_6 1_555 1_555

#END
