
###############################################################################
#
# This file contains modified crystal structure data generated from the
# MOF subset of the Cambridge Structural Database (CSD) v543 
# hosted by the Cambridge Crystallographic Data Centre (CCDC).
#
# This work is licensed under the Creative Commons
# Attribution-NonCommercial-ShareAlike 4.0 International License.
# To view a copy of this license, visit
# http://creativecommons.org/licenses/by-nc-sa/4.0/
# or send a letter to
# Creative Commons, PO Box 1866, Mountain View, CA 94042, USA.
#
# CIF created using the CSD Python API on 29 September 2022
# The structure has been converted into the P1 space group
# The structure has a 3D framework
# The original CSD entry MUSVAA is in the orthorhombic crystal system
# The framework has been calculated to contain at least 10.0% void space
# The void calculation uses a probe of radius 1.32A, grid spacing 0.4
# The framework is charged, counterions have been retained in the structure
#
###############################################################################

data_MUSVAA
_chemical_formula_moiety         '(C96 H48 N24 O40 Zn12 8-)n'
_symmetry_cell_setting           triclinic
_symmetry_space_group_name_H-M   'P 1'
_symmetry_Int_Tables_number      1
_space_group_name_Hall           'P 1'
loop_
_symmetry_equiv_pos_site_id
_symmetry_equiv_pos_as_xyz
1 x,y,z
_cell_length_a                   13.338(3)
_cell_length_b                   23.519(5)
_cell_length_c                   19.056(4)
_cell_angle_alpha                90
_cell_angle_beta                 90
_cell_angle_gamma                90
_cell_volume                     5977.8
loop_
_atom_site_label
_atom_site_type_symbol
_atom_site_fract_x
_atom_site_fract_y
_atom_site_fract_z
Zn4 Zn 0.000000 0.24770(2) 0.250000
C4 C 0.3597(4) 0.32956(17) 0.0055(2)
C5 C 0.3212(4) 0.39041(19) 0.1091(2)
C6 C 0.2553(4) 0.35392(18) 0.1426(2)
H3 H 0.233817 0.320827 0.120497
C7 C 0.2213(4) 0.36736(18) 0.2099(2)
C8 C 0.2556(5) 0.41599(18) 0.2435(2)
H4 H 0.235871 0.423828 0.289297
C9 C 0.3201(5) 0.4531(2) 0.2081(3)
C10 C 0.3528(5) 0.4390(2) 0.1416(2)
H5 H 0.397194 0.463022 0.118407
C11 C 0.3581(6) 0.5054(2) 0.2425(3)
C12 C 0.1469(4) 0.32888(17) 0.2455(2)
N3 N 0.3580(4) 0.37931(16) 0.04041(19)
H6 H 0.382375 0.408073 0.018355
O1 O 0.1098(2) 0.29000(11) 0.20708(14)
O2 O 0.1246(3) 0.33621(14) 0.30744(16)
O3 O 0.3466(4) 0.5113(2) 0.3072(2)
O4 O 0.4030(4) 0.54035(15) 0.20497(18)
O5 O 0.3339(3) 0.28503(16) 0.0325(2)
Zn6 Zn 0.500000 0.59187(2) 0.250000
C1 C 0.4168(3) 0.28455(16) 0.8911(2)
H1 H 0.406922 0.246865 0.904117
C2 C 0.3987(3) 0.33113(15) 0.9336(2)
C3 C 0.4238(3) 0.37829(15) 0.89181(19)
H2 H 0.419480 0.416169 0.905481
N1 N 0.4507(2) 0.30170(12) 0.82836(14)
N2 N 0.4548(2) 0.35974(12) 0.82937(15)
Zn1 Zn 0.500000 0.25230(2) 0.750000
Zn2 Zn 0.500000 0.40813(2) 0.750000
C13 C 0.5832(3) 0.28455(16) 0.6089(2)
H7 H 0.593078 0.246865 0.595883
C14 C 0.6013(3) 0.33113(15) 0.5664(2)
C15 C 0.5762(3) 0.37829(15) 0.60819(19)
H8 H 0.580520 0.416169 0.594519
C16 C 0.6403(4) 0.32956(17) 0.4945(2)
C17 C 0.6788(4) 0.39041(19) 0.3909(2)
C18 C 0.7447(4) 0.35392(18) 0.3574(2)
H9 H 0.766183 0.320827 0.379503
C19 C 0.7787(4) 0.36736(18) 0.2901(2)
C20 C 0.7444(5) 0.41599(18) 0.2565(2)
H10 H 0.764129 0.423828 0.210703
C21 C 0.6799(5) 0.4531(2) 0.2919(3)
C22 C 0.6472(5) 0.4390(2) 0.3584(2)
H11 H 0.602806 0.463022 0.381593
C23 C 0.6419(6) 0.5054(2) 0.2575(3)
C24 C 0.8531(4) 0.32888(17) 0.2545(2)
N4 N 0.5493(2) 0.30170(12) 0.67164(14)
N5 N 0.5452(2) 0.35974(12) 0.67063(15)
N6 N 0.6420(4) 0.37931(16) 0.45959(19)
H12 H 0.617625 0.408073 0.481645
O6 O 0.8902(2) 0.29000(11) 0.29292(14)
O7 O 0.8754(3) 0.33621(14) 0.19256(16)
O8 O 0.6534(4) 0.5113(2) 0.1928(2)
O9 O 0.5970(4) 0.54035(15) 0.29503(18)
O10 O 0.6661(3) 0.28503(16) 0.4675(2)
O11 O 0.3902(2) 0.21000(11) 0.70708(14)
O12 O 0.6098(2) 0.21000(11) 0.79292(14)
O13 O 0.5970(4) 0.45965(15) 0.79503(18)
O14 O 0.4030(4) 0.45965(15) 0.70497(18)
Zn4_2 Zn 1.000000 0.24770(2) 0.250000
C1_2 C 0.0832(3) 0.21545(16) 0.3911(2)
H1_2 H 0.093078 0.253135 0.404117
C2_2 C 0.1013(3) 0.16887(15) 0.4336(2)
C3_2 C 0.0762(3) 0.12171(15) 0.39181(19)
H2_2 H 0.080520 0.083831 0.405481
C4_2 C 0.1403(4) 0.17044(17) 0.5055(2)
C5_2 C 0.1788(4) 0.10959(19) 0.6091(2)
C6_2 C 0.2447(4) 0.14608(18) 0.6426(2)
H3_2 H 0.266183 0.179173 0.620497
C7_2 C 0.2787(4) 0.13264(18) 0.7099(2)
C8_2 C 0.2444(5) 0.08401(18) 0.7435(2)
H4_2 H 0.264129 0.076172 0.789297
C9_2 C 0.1799(5) 0.0469(2) 0.7081(3)
C10_2 C 0.1472(5) 0.0610(2) 0.6416(2)
H5_2 H 0.102806 0.036978 0.618407
C12_2 C 0.3531(4) 0.17112(17) 0.7455(2)
N1_2 N 0.0493(2) 0.19830(12) 0.32836(14)
N2_2 N 0.0452(2) 0.14026(12) 0.32937(15)
N3_2 N 0.1420(4) 0.12069(16) 0.54041(19)
H6_2 H 0.117625 0.091927 0.518355
O2_2 O 0.3754(3) 0.16379(14) 0.80744(16)
O5_2 O 0.1661(3) 0.21497(16) 0.5325(2)
Zn2_2 Zn -0.000000 0.09187(2) 0.250000
O14_2 O 0.0970(4) 0.04035(15) 0.20497(18)
C11_2 C 0.1419(6) 0.9946(2) 0.7425(3)
O3_2 O 0.1534(4) 0.9887(2) 0.8072(2)
O4_2 O 0.0970(4) 0.95965(15) 0.70497(18)
Zn6_2 Zn 0.000000 0.90813(2) 0.750000
Zn2_3 Zn 1.000000 0.09187(2) 0.250000
C13_2 C 0.9168(3) 0.21545(16) 0.1089(2)
H7_2 H 0.906922 0.253135 0.095883
C14_2 C 0.8987(3) 0.16887(15) 0.0664(2)
C15_2 C 0.9238(3) 0.12171(15) 0.10819(19)
H8_2 H 0.919480 0.083831 0.094519
N4_2 N 0.9507(2) 0.19830(12) 0.17164(14)
N5_2 N 0.9548(2) 0.14026(12) 0.17063(15)
O13_2 O 0.9030(4) 0.04035(15) 0.29503(18)
C16_2 C 0.8597(4) 0.17044(17) 0.9945(2)
C17_2 C 0.8212(4) 0.10959(19) 0.8909(2)
C18_2 C 0.7553(4) 0.14608(18) 0.8574(2)
H9_2 H 0.733817 0.179173 0.879503
C19_2 C 0.7213(4) 0.13264(18) 0.7901(2)
C20_2 C 0.7556(5) 0.08401(18) 0.7565(2)
H10_2 H 0.735871 0.076172 0.710703
C21_2 C 0.8201(5) 0.0469(2) 0.7919(3)
C22_2 C 0.8528(5) 0.0610(2) 0.8584(2)
H11_2 H 0.897194 0.036978 0.881593
C24_2 C 0.6469(4) 0.17112(17) 0.7545(2)
N6_2 N 0.8580(4) 0.12069(16) 0.95959(19)
H12_2 H 0.882375 0.091927 0.981645
O7_2 O 0.6246(3) 0.16379(14) 0.69256(16)
O10_2 O 0.8339(3) 0.21497(16) 0.9675(2)
Zn6_3 Zn 1.000000 0.90813(2) 0.750000
C23_2 C 0.8581(6) 0.9946(2) 0.7575(3)
O8_2 O 0.8466(4) 0.9887(2) 0.6928(2)
O9_2 O 0.9030(4) 0.95965(15) 0.79503(18)
Zn3 Zn 0.000000 0.75230(2) 0.750000
C1_3 C 0.5832(3) 0.71545(16) 0.1089(2)
H1_3 H 0.593078 0.753135 0.095883
C2_3 C 0.6013(3) 0.66887(15) 0.0664(2)
C3_3 C 0.5762(3) 0.62171(15) 0.10819(19)
H2_3 H 0.580520 0.583831 0.094519
N1_3 N 0.5493(2) 0.69830(12) 0.17164(14)
N2_3 N 0.5452(2) 0.64026(12) 0.17063(15)
Zn1_2 Zn 0.500000 0.74770(2) 0.250000
C13_3 C 0.4168(3) 0.71545(16) 0.3911(2)
H7_3 H 0.406922 0.753135 0.404117
C14_3 C 0.3987(3) 0.66887(15) 0.4336(2)
C15_3 C 0.4238(3) 0.62171(15) 0.39181(19)
H8_3 H 0.419480 0.583831 0.405481
C16_3 C 0.3597(4) 0.67044(17) 0.5055(2)
C17_3 C 0.3212(4) 0.60959(19) 0.6091(2)
C18_3 C 0.2553(4) 0.64608(18) 0.6426(2)
H9_3 H 0.233817 0.679173 0.620497
C19_3 C 0.2213(4) 0.63264(18) 0.7099(2)
C20_3 C 0.2556(5) 0.58401(18) 0.7435(2)
H10_3 H 0.235871 0.576172 0.789297
C21_3 C 0.3201(5) 0.5469(2) 0.7081(3)
C22_3 C 0.3528(5) 0.5610(2) 0.6416(2)
H11_3 H 0.397194 0.536978 0.618407
C23_3 C 0.3581(6) 0.4946(2) 0.7425(3)
C24_3 C 0.1469(4) 0.67112(17) 0.7455(2)
N4_3 N 0.4507(2) 0.69830(12) 0.32836(14)
N5_3 N 0.4548(2) 0.64026(12) 0.32937(15)
N6_3 N 0.3580(4) 0.62069(16) 0.54041(19)
H12_3 H 0.382375 0.591927 0.518355
O6_2 O 0.1098(2) 0.71000(11) 0.70708(14)
O7_3 O 0.1246(3) 0.66379(14) 0.80744(16)
O8_3 O 0.3466(4) 0.4887(2) 0.8072(2)
O10_3 O 0.3339(3) 0.71497(16) 0.5325(2)
O11_2 O 0.6098(2) 0.79000(11) 0.29292(14)
O12_2 O 0.3902(2) 0.79000(11) 0.20708(14)
C4_3 C 0.6403(4) 0.67044(17) 0.9945(2)
C5_3 C 0.6788(4) 0.60959(19) 0.8909(2)
C6_3 C 0.7447(4) 0.64608(18) 0.8574(2)
H3_3 H 0.766183 0.679173 0.879503
C7_3 C 0.7787(4) 0.63264(18) 0.7901(2)
C8_3 C 0.7444(5) 0.58401(18) 0.7565(2)
H4_3 H 0.764129 0.576172 0.710703
C9_3 C 0.6799(5) 0.5469(2) 0.7919(3)
C10_3 C 0.6472(5) 0.5610(2) 0.8584(2)
H5_3 H 0.602806 0.536978 0.881593
C11_3 C 0.6419(6) 0.4946(2) 0.7575(3)
C12_3 C 0.8531(4) 0.67112(17) 0.7545(2)
N3_3 N 0.6420(4) 0.62069(16) 0.95959(19)
H6_3 H 0.617625 0.591927 0.981645
O1_2 O 0.8902(2) 0.71000(11) 0.79292(14)
O2_3 O 0.8754(3) 0.66379(14) 0.69256(16)
O3_3 O 0.6534(4) 0.4887(2) 0.6928(2)
O5_3 O 0.6661(3) 0.71497(16) 0.9675(2)
Zn3_2 Zn 1.000000 0.75230(2) 0.750000
C23_4 C 0.1419(6) 0.0054(2) 0.2425(3)
O8_4 O 0.1534(4) 0.0113(2) 0.3072(2)
C16_4 C 0.1403(4) 0.82956(17) 0.0055(2)
C17_4 C 0.1788(4) 0.89041(19) 0.1091(2)
C18_4 C 0.2447(4) 0.85392(18) 0.1426(2)
H9_4 H 0.266183 0.820827 0.120497
C19_4 C 0.2787(4) 0.86736(18) 0.2099(2)
C20_4 C 0.2444(5) 0.91599(18) 0.2435(2)
H10_4 H 0.264129 0.923828 0.289297
C21_4 C 0.1799(5) 0.9531(2) 0.2081(3)
C22_4 C 0.1472(5) 0.9390(2) 0.1416(2)
H11_4 H 0.102806 0.963022 0.118407
C24_4 C 0.3531(4) 0.82888(17) 0.2455(2)
N6_4 N 0.1420(4) 0.87931(16) 0.04041(19)
H12_4 H 0.117625 0.908073 0.018355
O7_4 O 0.3754(3) 0.83621(14) 0.30744(16)
O10_4 O 0.1661(3) 0.78503(16) 0.0325(2)
C13_4 C 0.0832(3) 0.78455(16) 0.8911(2)
H7_4 H 0.093078 0.746865 0.904117
C14_4 C 0.1013(3) 0.83113(15) 0.9336(2)
C15_4 C 0.0762(3) 0.87829(15) 0.89181(19)
H8_4 H 0.080520 0.916169 0.905481
N4_4 N 0.0493(2) 0.80170(12) 0.82836(14)
N5_4 N 0.0452(2) 0.85974(12) 0.82937(15)
C11_4 C 0.8581(6) 0.0054(2) 0.2575(3)
O3_4 O 0.8466(4) 0.0113(2) 0.1928(2)
C1_4 C 0.9168(3) 0.78455(16) 0.6089(2)
H1_4 H 0.906922 0.746865 0.595883
C2_4 C 0.8987(3) 0.83113(15) 0.5664(2)
C3_4 C 0.9238(3) 0.87829(15) 0.60819(19)
H2_4 H 0.919480 0.916169 0.594519
C4_4 C 0.8597(4) 0.82956(17) 0.4945(2)
C5_4 C 0.8212(4) 0.89041(19) 0.3909(2)
C6_4 C 0.7553(4) 0.85392(18) 0.3574(2)
H3_4 H 0.733817 0.820827 0.379503
C7_4 C 0.7213(4) 0.86736(18) 0.2901(2)
C8_4 C 0.7556(5) 0.91599(18) 0.2565(2)
H4_4 H 0.735871 0.923828 0.210703
C9_4 C 0.8201(5) 0.9531(2) 0.2919(3)
C10_4 C 0.8528(5) 0.9390(2) 0.3584(2)
H5_4 H 0.897194 0.963022 0.381593
C12_4 C 0.6469(4) 0.82888(17) 0.2545(2)
N1_4 N 0.9507(2) 0.80170(12) 0.67164(14)
N2_4 N 0.9548(2) 0.85974(12) 0.67063(15)
N3_4 N 0.8580(4) 0.87931(16) 0.45959(19)
H6_4 H 0.882375 0.908073 0.481645
O2_4 O 0.6246(3) 0.83621(14) 0.19256(16)
O5_4 O 0.8339(3) 0.78503(16) 0.4675(2)
loop_
_geom_bond_atom_site_label_1
_geom_bond_atom_site_label_2
_geom_bond_site_symmetry_1
_geom_bond_site_symmetry_2
C5 C6 1_555 1_555
C6 H3 1_555 1_555
C7 C6 1_555 1_555
C8 C7 1_555 1_555
H4 C8 1_555 1_555
C9 C8 1_555 1_555
C10 C5 1_555 1_555
H5 C10 1_555 1_555
C11 C9 1_555 1_555
C12 C7 1_555 1_555
N3 C4 1_555 1_555
H6 N3 1_555 1_555
O1 C12 1_555 1_555
O2 C12 1_555 1_555
O3 C11 1_555 1_555
O4 C11 1_555 1_555
O5 C4 1_555 1_555
Zn4 O1 1_555 1_555
Zn6 O4 1_555 1_555
C5 N3 1_555 1_555
C9 C10 1_555 1_555
C1 H1 1_555 1_555
C2 C1 1_555 1_555
C3 C2 1_555 1_555
H2 C3 1_555 1_555
N1 C1 1_555 1_555
N2 C3 1_555 1_555
Zn1 N1 1_555 1_555
Zn2 N2 1_555 1_555
C13 H7 1_555 1_555
C14 C13 1_555 1_555
C15 C14 1_555 1_555
H8 C15 1_555 1_555
C16 C14 1_555 1_555
C17 C18 1_555 1_555
C18 H9 1_555 1_555
C19 C18 1_555 1_555
C20 C19 1_555 1_555
H10 C20 1_555 1_555
C21 C20 1_555 1_555
C22 C17 1_555 1_555
H11 C22 1_555 1_555
C23 C21 1_555 1_555
C24 C19 1_555 1_555
N4 Zn1 1_555 1_555
N5 Zn2 1_555 1_555
N6 C16 1_555 1_555
H12 N6 1_555 1_555
O6 C24 1_555 1_555
O7 C24 1_555 1_555
O8 C23 1_555 1_555
O9 C23 1_555 1_555
O10 C16 1_555 1_555
O11 Zn1 1_555 1_555
O12 Zn1 1_555 1_555
O13 Zn2 1_555 1_555
O14 Zn2 1_555 1_555
Zn4_2 O6 1_555 1_555
Zn6 O9 1_555 1_555
N1 N2 1_555 1_555
C13 N4 1_555 1_555
C15 N5 1_555 1_555
C17 N6 1_555 1_555
C21 C22 1_555 1_555
N4 N5 1_555 1_555
C1_2 H1_2 1_555 1_555
C2_2 C1_2 1_555 1_555
C3_2 C2_2 1_555 1_555
H2_2 C3_2 1_555 1_555
C4_2 C2_2 1_555 1_555
C5_2 C6_2 1_555 1_555
C6_2 H3_2 1_555 1_555
C7_2 C6_2 1_555 1_555
C8_2 C7_2 1_555 1_555
H4_2 C8_2 1_555 1_555
C9_2 C8_2 1_555 1_555
C10_2 C5_2 1_555 1_555
H5_2 C10_2 1_555 1_555
C12_2 C7_2 1_555 1_555
N1_2 C1_2 1_555 1_555
N2_2 C3_2 1_555 1_555
N3_2 C4_2 1_555 1_555
H6_2 N3_2 1_555 1_555
O11 C12_2 1_555 1_555
O2_2 C12_2 1_555 1_555
O5_2 C4_2 1_555 1_555
Zn4 N1_2 1_555 1_555
Zn2_2 N2_2 1_555 1_555
O14_2 Zn2_2 1_555 1_555
C5_2 N3_2 1_555 1_555
C9_2 C10_2 1_555 1_555
N1_2 N2_2 1_555 1_555
O3_2 C11_2 1_555 1_555
O4_2 C11_2 1_555 1_555
Zn6_2 O4_2 1_555 1_555
C13_2 H7_2 1_555 1_555
C14_2 C13_2 1_555 1_555
C15_2 C14_2 1_555 1_555
H8_2 C15_2 1_555 1_555
N4_2 Zn4_2 1_555 1_555
N5_2 Zn2_3 1_555 1_555
O13_2 Zn2_3 1_555 1_555
C13_2 N4_2 1_555 1_555
C15_2 N5_2 1_555 1_555
N4_2 N5_2 1_555 1_555
C17_2 C18_2 1_555 1_555
C18_2 H9_2 1_555 1_555
C19_2 C18_2 1_555 1_555
C20_2 C19_2 1_555 1_555
H10_2 C20_2 1_555 1_555
C21_2 C20_2 1_555 1_555
C22_2 C17_2 1_555 1_555
H11_2 C22_2 1_555 1_555
C24_2 C19_2 1_555 1_555
N6_2 C16_2 1_555 1_555
H12_2 N6_2 1_555 1_555
O12 C24_2 1_555 1_555
O7_2 C24_2 1_555 1_555
O10_2 C16_2 1_555 1_555
C17_2 N6_2 1_555 1_555
C21_2 C22_2 1_555 1_555
O8_2 C23_2 1_555 1_555
O9_2 C23_2 1_555 1_555
Zn6_3 O9_2 1_555 1_555
C1_3 H1_3 1_555 1_555
C2_3 C1_3 1_555 1_555
C3_3 C2_3 1_555 1_555
H2_3 C3_3 1_555 1_555
N1_3 C1_3 1_555 1_555
N2_3 C3_3 1_555 1_555
Zn1_2 N1_3 1_555 1_555
Zn6 N2_3 1_555 1_555
C13_3 H7_3 1_555 1_555
C14_3 C13_3 1_555 1_555
C15_3 C14_3 1_555 1_555
H8_3 C15_3 1_555 1_555
C16_3 C14_3 1_555 1_555
C17_3 C18_3 1_555 1_555
C18_3 H9_3 1_555 1_555
C19_3 C18_3 1_555 1_555
C20_3 C19_3 1_555 1_555
H10_3 C20_3 1_555 1_555
C21_3 C20_3 1_555 1_555
C22_3 C17_3 1_555 1_555
H11_3 C22_3 1_555 1_555
C23_3 C21_3 1_555 1_555
C24_3 C19_3 1_555 1_555
N4_3 Zn1_2 1_555 1_555
N5_3 Zn6 1_555 1_555
N6_3 C16_3 1_555 1_555
H12_3 N6_3 1_555 1_555
O6_2 C24_3 1_555 1_555
O7_3 C24_3 1_555 1_555
O8_3 C23_3 1_555 1_555
O14 C23_3 1_555 1_555
O10_3 C16_3 1_555 1_555
O11_2 Zn1_2 1_555 1_555
O12_2 Zn1_2 1_555 1_555
Zn3 O6_2 1_555 1_555
N1_3 N2_3 1_555 1_555
C13_3 N4_3 1_555 1_555
C15_3 N5_3 1_555 1_555
C17_3 N6_3 1_555 1_555
C21_3 C22_3 1_555 1_555
N4_3 N5_3 1_555 1_555
C5_3 C6_3 1_555 1_555
C6_3 H3_3 1_555 1_555
C7_3 C6_3 1_555 1_555
C8_3 C7_3 1_555 1_555
H4_3 C8_3 1_555 1_555
C9_3 C8_3 1_555 1_555
C10_3 C5_3 1_555 1_555
H5_3 C10_3 1_555 1_555
C11_3 C9_3 1_555 1_555
C12_3 C7_3 1_555 1_555
N3_3 C4_3 1_555 1_555
H6_3 N3_3 1_555 1_555
O1_2 C12_3 1_555 1_555
O2_3 C12_3 1_555 1_555
O3_3 C11_3 1_555 1_555
O13 C11_3 1_555 1_555
O5_3 C4_3 1_555 1_555
Zn3_2 O1_2 1_555 1_555
C5_3 N3_3 1_555 1_555
C9_3 C10_3 1_555 1_555
O8_4 C23_4 1_555 1_555
O14_2 C23_4 1_555 1_555
C17_4 C18_4 1_555 1_555
C18_4 H9_4 1_555 1_555
C19_4 C18_4 1_555 1_555
C20_4 C19_4 1_555 1_555
H10_4 C20_4 1_555 1_555
C21_4 C20_4 1_555 1_555
C22_4 C17_4 1_555 1_555
H11_4 C22_4 1_555 1_555
C24_4 C19_4 1_555 1_555
N6_4 C16_4 1_555 1_555
H12_4 N6_4 1_555 1_555
O12_2 C24_4 1_555 1_555
O7_4 C24_4 1_555 1_555
O10_4 C16_4 1_555 1_555
C17_4 N6_4 1_555 1_555
C21_4 C22_4 1_555 1_555
C13_4 H7_4 1_555 1_555
C14_4 C13_4 1_555 1_555
C15_4 C14_4 1_555 1_555
H8_4 C15_4 1_555 1_555
N4_4 Zn3 1_555 1_555
N5_4 Zn6_2 1_555 1_555
C13_4 N4_4 1_555 1_555
C15_4 N5_4 1_555 1_555
N4_4 N5_4 1_555 1_555
O3_4 C11_4 1_555 1_555
O13_2 C11_4 1_555 1_555
C1_4 H1_4 1_555 1_555
C2_4 C1_4 1_555 1_555
C3_4 C2_4 1_555 1_555
H2_4 C3_4 1_555 1_555
C4_4 C2_4 1_555 1_555
C5_4 C6_4 1_555 1_555
C6_4 H3_4 1_555 1_555
C7_4 C6_4 1_555 1_555
C8_4 C7_4 1_555 1_555
H4_4 C8_4 1_555 1_555
C9_4 C8_4 1_555 1_555
C10_4 C5_4 1_555 1_555
H5_4 C10_4 1_555 1_555
C12_4 C7_4 1_555 1_555
N1_4 C1_4 1_555 1_555
N2_4 C3_4 1_555 1_555
N3_4 C4_4 1_555 1_555
H6_4 N3_4 1_555 1_555
O11_2 C12_4 1_555 1_555
O2_4 C12_4 1_555 1_555
O5_4 C4_4 1_555 1_555
Zn3_2 N1_4 1_555 1_555
Zn6_3 N2_4 1_555 1_555
C5_4 N3_4 1_555 1_555
C9_4 C10_4 1_555 1_555
N1_4 N2_4 1_555 1_555

#END
