
###############################################################################
#
# This file contains modified crystal structure data generated from the
# MOF subset of the Cambridge Structural Database (CSD) v543 
# hosted by the Cambridge Crystallographic Data Centre (CCDC).
#
# This work is licensed under the Creative Commons
# Attribution-NonCommercial-ShareAlike 4.0 International License.
# To view a copy of this license, visit
# http://creativecommons.org/licenses/by-nc-sa/4.0/
# or send a letter to
# Creative Commons, PO Box 1866, Mountain View, CA 94042, USA.
#
# CIF created using the CSD Python API on 29 September 2022
# The structure has been converted into the P1 space group
# The structure has a 3D framework
# The original CSD entry MUTDIQ is in the tetragonal crystal system
# The framework has been calculated to contain at least 10.0% void space
# The void calculation uses a probe of radius 1.32A, grid spacing 0.4
#
###############################################################################

data_MUTDIQ
_chemical_formula_moiety         '(C144 H112 Mn12 N112 O16)n'
_symmetry_cell_setting           triclinic
_symmetry_space_group_name_H-M   'P 1'
_symmetry_Int_Tables_number      1
_space_group_name_Hall           'P 1'
loop_
_symmetry_equiv_pos_site_id
_symmetry_equiv_pos_as_xyz
1 x,y,z
_cell_length_a                   19.692(9)
_cell_length_b                   19.692(9)
_cell_length_c                   20.101(20)
_cell_angle_alpha                90
_cell_angle_beta                 90
_cell_angle_gamma                90
_cell_volume                     7794.66
loop_
_atom_site_label
_atom_site_type_symbol
_atom_site_fract_x
_atom_site_fract_y
_atom_site_fract_z
H3 H 0.0004 0.4240 0.9031
Mn1 Mn 0.60456(3) 0.51543(4) 0.02730(3)
H7 H 0.6362 0.6465 0.0138
N8 N 0.6195(2) 0.4115(2) 0.07764(19)
N9 N 0.67061(18) 0.53478(18) 0.11507(17)
N10 N 0.5121(2) 0.5362(2) 0.08633(18)
N1 N 0.8385(2) 0.3695(2) 0.82764(19)
N2 N 0.6898(2) 0.4785(2) 0.95706(17)
N3 N 0.7588(2) 0.4693(2) 0.95652(19)
N4 N 0.71522(18) 0.42061(18) 0.86507(17)
N5 N 0.55269(18) 0.47066(18) 0.93824(17)
N6 N 0.4879(2) 0.4638(2) 0.91367(18)
N7 N 0.5607(2) 0.4267(2) 0.83578(18)
C1 C 0.8983(3) 0.3460(3) 0.8060(3)
H1 H 0.8986 0.3152 0.7709
C2 C 0.9591(3) 0.3652(4) 0.8330(4)
H2 H 0.9996 0.3478 0.8163
C3 C 0.9596(3) 0.4099(4) 0.8843(4)
C4 C 0.8981(3) 0.4342(4) 0.9084(3)
H4 H 0.8971 0.4650 0.9435
C5 C 0.8387(2) 0.4120(3) 0.8795(3)
C6 C 0.7715(2) 0.4350(2) 0.9006(2)
C7 C 0.6659(2) 0.4490(2) 0.9023(2)
C8 C 0.5935(2) 0.4482(2) 0.8903(2)
C9 C 0.4953(3) 0.4382(3) 0.8534(2)
H5 H 0.4588 0.4289 0.8255
O1 O 0.60862(18) 0.61773(16) 0.98903(16)
H6 H 0.6254 0.6203 0.9459
Mn2 Mn 0.73457(4) 0.35456(3) 0.77730(3)
Mn3 Mn 0.39544(3) 0.48457(4) 0.97270(3)
N6_2 N 0.0121(2) 0.5362(2) 0.41367(18)
C9_2 C 0.0047(3) 0.5618(3) 0.3534(2)
H5_2 H 0.0412 0.5711 0.3255
Mn3_2 Mn 0.10456(3) 0.51543(4) 0.47270(3)
Mn1_2 Mn 0.89544(3) 0.48457(4) 0.52730(3)
N1_2 N 0.6615(2) 0.6305(2) 0.32764(19)
N2_2 N 0.8102(2) 0.5215(2) 0.45706(17)
N3_2 N 0.7412(2) 0.5307(2) 0.45652(19)
N4_2 N 0.78478(18) 0.57939(18) 0.36507(17)
N5_2 N 0.94731(18) 0.52934(18) 0.43824(17)
N7_2 N 0.9393(2) 0.5733(2) 0.33578(18)
C1_2 C 0.6017(3) 0.6540(3) 0.3060(3)
H1_2 H 0.6014 0.6848 0.2709
C2_2 C 0.5409(3) 0.6348(4) 0.3330(4)
H2_2 H 0.5004 0.6522 0.3163
C3_2 C 0.5404(3) 0.5901(4) 0.3843(4)
H3_2 H 0.4996 0.5760 0.4031
C4_2 C 0.6019(3) 0.5658(4) 0.4084(3)
H4_2 H 0.6029 0.5350 0.4435
C5_2 C 0.6613(2) 0.5880(3) 0.3795(3)
C6_2 C 0.7285(2) 0.5650(2) 0.4006(2)
C7_2 C 0.8341(2) 0.5510(2) 0.4023(2)
C8_2 C 0.9065(2) 0.5518(2) 0.3903(2)
O1_2 O 0.89138(18) 0.38227(16) 0.48903(16)
H6_2 H 0.8746 0.3797 0.4459
H7_2 H 0.8638 0.3535 0.5138
Mn2_2 Mn 0.76543(4) 0.64544(3) 0.27730(3)
N8_2 N 0.8805(2) 0.5885(2) 0.57764(19)
N9_2 N 0.82939(18) 0.46522(18) 0.61507(17)
N10_2 N 0.9879(2) 0.4638(2) 0.58633(18)
Mn1_3 Mn 0.23457(4) 0.85456(3) 0.27730(3)
N2_3 N 0.2715(2) 0.9398(2) 0.20706(17)
N4_3 N 0.32939(18) 0.96522(18) 0.11507(17)
N5_3 N 0.27934(18) 0.80269(18) 0.18824(17)
N6_3 N 0.2862(2) 0.7379(2) 0.16367(18)
N7_3 N 0.3233(2) 0.8107(2) 0.08578(18)
C7_3 C 0.3010(2) 0.9159(2) 0.1523(2)
C8_3 C 0.3018(2) 0.8435(2) 0.1403(2)
C9_3 C 0.3118(3) 0.7453(3) 0.1034(2)
H5_3 H 0.3211 0.7088 0.0755
O1_3 O 0.13227(16) 0.85862(18) 0.23903(16)
H6_3 H 0.1297 0.8754 0.1959
H7_3 H 0.1035 0.8862 0.2638
Mn2_3 Mn 0.39544(3) 0.98457(4) 0.02730(3)
Mn3_3 Mn 0.26543(4) 0.64544(3) 0.22270(3)
N8_3 N 0.3385(2) 0.8695(2) 0.32764(19)
N9_3 N 0.21522(18) 0.92061(18) 0.36507(17)
N10_3 N 0.2138(2) 0.7621(2) 0.33633(18)
Mn1_4 Mn 0.26543(4) 0.14544(3) 0.77730(3)
N2_4 N 0.2285(2) 0.0602(2) 0.70706(17)
N4_4 N 0.17061(18) 0.03478(18) 0.61507(17)
N5_4 N 0.22066(18) 0.19731(18) 0.68824(17)
N6_4 N 0.2138(2) 0.2621(2) 0.66367(18)
N7_4 N 0.1767(2) 0.1893(2) 0.58578(18)
C7_4 C 0.1990(2) 0.0841(2) 0.6523(2)
C8_4 C 0.1982(2) 0.1565(2) 0.6403(2)
C9_4 C 0.1882(3) 0.2547(3) 0.6034(2)
H5_4 H 0.1789 0.2912 0.5755
O1_4 O 0.36773(16) 0.14138(18) 0.73903(16)
H6_4 H 0.3703 0.1246 0.6959
H7_4 H 0.3965 0.1138 0.7638
Mn2_4 Mn 0.10456(3) 0.01543(4) 0.52730(3)
Mn3_4 Mn 0.23457(4) 0.35456(3) 0.72270(3)
N8_4 N 0.1615(2) 0.1305(2) 0.82764(19)
N9_4 N 0.28478(18) 0.07939(18) 0.86507(17)
N10_4 N 0.2862(2) 0.2379(2) 0.83633(18)
N1_3 N 0.1195(2) 0.9115(2) 0.57764(19)
N3_3 N 0.2193(2) 0.9912(2) 0.70652(19)
C1_3 C 0.0960(3) 0.8517(3) 0.5560(3)
H1_3 H 0.0652 0.8514 0.5209
C2_3 C 0.1152(4) 0.7909(3) 0.5830(4)
H2_3 H 0.0978 0.7504 0.5663
C3_3 C 0.1599(4) 0.7904(3) 0.6343(4)
H3_3 H 0.1740 0.7496 0.6531
C4_3 C 0.1842(4) 0.8519(3) 0.6584(3)
H4_3 H 0.2150 0.8529 0.6935
C5_3 C 0.1620(3) 0.9113(2) 0.6295(3)
C6_3 C 0.1850(2) 0.9785(2) 0.6506(2)
O1_5 O 0.10862(18) 0.11773(16) 0.48903(16)
H6_5 H 0.1254 0.1203 0.4459
H7_5 H 0.1362 0.1465 0.5138
N10_5 N 0.0121(2) 0.0362(2) 0.58633(18)
N2_5 N 0.1898(2) 0.9785(2) 0.45706(17)
N3_4 N 0.2588(2) 0.9693(2) 0.45652(19)
N5_5 N 0.05269(18) 0.97066(18) 0.43824(17)
N7_5 N 0.0607(2) 0.9267(2) 0.33578(18)
C1_4 C 0.3983(3) 0.8460(3) 0.3060(3)
H1_4 H 0.3986 0.8152 0.2709
C2_4 C 0.4591(3) 0.8652(4) 0.3330(4)
H2_4 H 0.4996 0.8478 0.3163
C3_4 C 0.4596(3) 0.9099(4) 0.3843(4)
H3_4 H 0.5004 0.9240 0.4031
C4_4 C 0.3981(3) 0.9342(4) 0.4084(3)
H4_4 H 0.3971 0.9650 0.4435
C5_4 C 0.3387(2) 0.9120(3) 0.3795(3)
C6_4 C 0.2715(2) 0.9350(2) 0.4006(2)
C7_5 C 0.1659(2) 0.9490(2) 0.4023(2)
C8_5 C 0.0935(2) 0.9482(2) 0.3903(2)
N6_5 N 0.9879(2) 0.9638(2) 0.41367(18)
C9_5 C 0.9953(3) 0.9382(3) 0.3534(2)
H5_5 H 0.9588 0.9289 0.3255
Mn3_5 Mn 0.89544(3) 0.98457(4) 0.47270(3)
N2_6 N 0.3102(2) 0.0215(2) 0.95706(17)
N3_5 N 0.2412(2) 0.0307(2) 0.95652(19)
N5_6 N 0.44731(18) 0.02934(18) 0.93824(17)
N6_6 N 0.5121(2) 0.0362(2) 0.91367(18)
N7_6 N 0.4393(2) 0.0733(2) 0.83578(18)
C1_5 C 0.1017(3) 0.1540(3) 0.8060(3)
H1_5 H 0.1014 0.1848 0.7709
C2_5 C 0.0409(3) 0.1348(4) 0.8330(4)
H2_5 H 0.0004 0.1522 0.8163
C3_5 C 0.0404(3) 0.0901(4) 0.8843(4)
C4_5 C 0.1019(3) 0.0658(4) 0.9084(3)
H4_5 H 0.1029 0.0350 0.9435
C5_5 C 0.1613(2) 0.0880(3) 0.8795(3)
C6_5 C 0.2285(2) 0.0650(2) 0.9006(2)
C7_6 C 0.3341(2) 0.0510(2) 0.9023(2)
C8_6 C 0.4065(2) 0.0518(2) 0.8903(2)
C9_6 C 0.5047(3) 0.0618(3) 0.8534(2)
H5_6 H 0.5412 0.0711 0.8255
Mn3_6 Mn 0.60456(3) 0.01543(4) 0.97270(3)
H7_6 H 0.3638 0.8535 0.0138
N10_6 N 0.4879(2) 0.9638(2) 0.08633(18)
N2_7 N 0.7715(2) 0.4398(2) 0.70706(17)
N3_6 N 0.7807(2) 0.5088(2) 0.70652(19)
N5_7 N 0.77934(18) 0.30269(18) 0.68824(17)
N6_7 N 0.7862(2) 0.2379(2) 0.66367(18)
N7_7 N 0.8233(2) 0.3107(2) 0.58578(18)
C1_6 C 0.9040(3) 0.6483(3) 0.5560(3)
H1_6 H 0.9348 0.6486 0.5209
C2_6 C 0.8848(4) 0.7091(3) 0.5830(4)
H2_6 H 0.9022 0.7496 0.5663
C3_6 C 0.8401(4) 0.7096(3) 0.6343(4)
H3_5 H 0.8260 0.7504 0.6531
C4_6 C 0.8158(4) 0.6481(3) 0.6584(3)
H4_6 H 0.7850 0.6471 0.6935
C5_6 C 0.8380(3) 0.5887(2) 0.6295(3)
C6_6 C 0.8150(2) 0.5215(2) 0.6506(2)
C7_7 C 0.8010(2) 0.4159(2) 0.6523(2)
C8_7 C 0.8018(2) 0.3435(2) 0.6403(2)
C9_7 C 0.8118(3) 0.2453(3) 0.6034(2)
H5_7 H 0.8211 0.2088 0.5755
O1_6 O 0.63227(16) 0.35862(18) 0.73903(16)
H6_6 H 0.6297 0.3754 0.6959
H7_7 H 0.6035 0.3862 0.7638
Mn3_7 Mn 0.76543(4) 0.14544(3) 0.72270(3)
N10_7 N 0.7138(2) 0.2621(2) 0.83633(18)
N2_8 N 0.7285(2) 0.5602(2) 0.20706(17)
N3_7 N 0.7193(2) 0.4912(2) 0.20652(19)
N5_8 N 0.72066(18) 0.69731(18) 0.18824(17)
N6_8 N 0.7138(2) 0.7621(2) 0.16367(18)
N7_8 N 0.6767(2) 0.6893(2) 0.08578(18)
C1_7 C 0.5960(3) 0.3517(3) 0.0560(3)
H1_7 H 0.5652 0.3514 0.0209
C2_7 C 0.6152(4) 0.2909(3) 0.0830(4)
H2_7 H 0.5978 0.2504 0.0663
C3_7 C 0.6599(4) 0.2904(3) 0.1343(4)
H3_6 H 0.6740 0.2496 0.1531
C4_7 C 0.6842(4) 0.3519(3) 0.1584(3)
H4_7 H 0.7150 0.3529 0.1935
C5_7 C 0.6620(3) 0.4113(2) 0.1295(3)
C6_7 C 0.6850(2) 0.4785(2) 0.1506(2)
C7_8 C 0.6990(2) 0.5841(2) 0.1523(2)
C8_8 C 0.6982(2) 0.6565(2) 0.1403(2)
C9_8 C 0.6882(3) 0.7547(3) 0.1034(2)
H5_8 H 0.6789 0.7912 0.0755
O1_7 O 0.86773(16) 0.64138(18) 0.23903(16)
H6_7 H 0.8703 0.6246 0.1959
H7_8 H 0.8965 0.6138 0.2638
Mn3_8 Mn 0.73457(4) 0.85456(3) 0.22270(3)
N10_8 N 0.7862(2) 0.7379(2) 0.33633(18)
N1_4 N 0.1615(2) 0.6305(2) 0.17236(19)
N2_9 N 0.3102(2) 0.5215(2) 0.04294(17)
N3_8 N 0.2412(2) 0.5307(2) 0.04348(19)
N4_5 N 0.28478(18) 0.57939(18) 0.13493(17)
N5_9 N 0.44731(18) 0.52934(18) 0.06176(17)
N7_9 N 0.4393(2) 0.5733(2) 0.16422(18)
C1_8 C 0.1017(3) 0.6540(3) 0.1940(3)
H1_8 H 0.1014 0.6848 0.2291
C2_8 C 0.0409(3) 0.6348(4) 0.1670(4)
H2_8 H 0.0004 0.6522 0.1837
C3_8 C 0.0404(3) 0.5901(4) 0.1157(4)
C4_8 C 0.1019(3) 0.5658(4) 0.0916(3)
H4_8 H 0.1029 0.5350 0.0565
C5_8 C 0.1613(2) 0.5880(3) 0.1205(3)
C6_8 C 0.2285(2) 0.5650(2) 0.0994(2)
C7_9 C 0.3341(2) 0.5510(2) 0.0977(2)
C8_9 C 0.4065(2) 0.5518(2) 0.1097(2)
C9_9 C 0.5047(3) 0.5618(3) 0.1466(2)
H5_9 H 0.5412 0.5711 0.1745
O1_8 O 0.39138(18) 0.38227(16) 0.01097(16)
H6_8 H 0.3746 0.3797 0.0541
H7_9 H 0.3638 0.3535 0.9862
N8_5 N 0.3805(2) 0.5885(2) 0.92236(19)
N9_5 N 0.32939(18) 0.46522(18) 0.88493(17)
N1_5 N 0.3385(2) 0.3695(2) 0.67236(19)
N2_10 N 0.1898(2) 0.4785(2) 0.54294(17)
N3_9 N 0.2588(2) 0.4693(2) 0.54348(19)
N4_6 N 0.21522(18) 0.42061(18) 0.63493(17)
N5_10 N 0.05269(18) 0.47066(18) 0.56176(17)
N7_10 N 0.0607(2) 0.4267(2) 0.66422(18)
C1_9 C 0.3983(3) 0.3460(3) 0.6940(3)
H1_9 H 0.3986 0.3152 0.7291
C2_9 C 0.4591(3) 0.3652(4) 0.6670(4)
H2_9 H 0.4996 0.3478 0.6837
C3_9 C 0.4596(3) 0.4099(4) 0.6157(4)
H3_7 H 0.5004 0.4240 0.5969
C4_9 C 0.3981(3) 0.4342(4) 0.5916(3)
H4_9 H 0.3971 0.4650 0.5565
C5_9 C 0.3387(2) 0.4120(3) 0.6205(3)
C6_9 C 0.2715(2) 0.4350(2) 0.5994(2)
C7_10 C 0.1659(2) 0.4490(2) 0.5977(2)
C8_10 C 0.0935(2) 0.4482(2) 0.6097(2)
O1_9 O 0.10862(18) 0.61773(16) 0.51097(16)
H6_9 H 0.1254 0.6203 0.5541
H7_10 H 0.1362 0.6465 0.4862
N8_6 N 0.1195(2) 0.4115(2) 0.42236(19)
N9_6 N 0.17061(18) 0.53478(18) 0.38493(17)
C9_10 C 0.9953(3) 0.4382(3) 0.6466(2)
H5_10 H 0.9588 0.4289 0.6745
N2_11 N 0.7285(2) 0.0602(2) 0.79294(17)
N4_7 N 0.67061(18) 0.03478(18) 0.88493(17)
N5_11 N 0.72066(18) 0.19731(18) 0.81176(17)
N7_11 N 0.6767(2) 0.1893(2) 0.91422(18)
C7_11 C 0.6990(2) 0.0841(2) 0.8477(2)
C8_11 C 0.6982(2) 0.1565(2) 0.8597(2)
C9_11 C 0.6882(3) 0.2547(3) 0.8966(2)
H5_11 H 0.6789 0.2912 0.9245
O1_10 O 0.86773(16) 0.14138(18) 0.76097(16)
H6_10 H 0.8703 0.1246 0.8041
H7_11 H 0.8965 0.1138 0.7362
N8_7 N 0.6615(2) 0.1305(2) 0.67236(19)
N9_7 N 0.78478(18) 0.07939(18) 0.63493(17)
N1_6 N 0.8805(2) 0.0885(2) 0.42236(19)
N3_10 N 0.7807(2) 0.0088(2) 0.29348(19)
C1_10 C 0.9040(3) 0.1483(3) 0.4440(3)
H1_10 H 0.9348 0.1486 0.4791
C2_10 C 0.8848(4) 0.2091(3) 0.4170(4)
H2_10 H 0.9022 0.2496 0.4337
C3_10 C 0.8401(4) 0.2096(3) 0.3657(4)
H3_8 H 0.8260 0.2504 0.3469
C4_10 C 0.8158(4) 0.1481(3) 0.3416(3)
H4_10 H 0.7850 0.1471 0.3065
C5_10 C 0.8380(3) 0.0887(2) 0.3705(3)
C6_10 C 0.8150(2) 0.0215(2) 0.3494(2)
N2_12 N 0.7715(2) 0.9398(2) 0.29294(17)
N4_8 N 0.82939(18) 0.96522(18) 0.38493(17)
N5_12 N 0.77934(18) 0.80269(18) 0.31176(17)
N7_12 N 0.8233(2) 0.8107(2) 0.41422(18)
C7_12 C 0.8010(2) 0.9159(2) 0.3477(2)
C8_12 C 0.8018(2) 0.8435(2) 0.3597(2)
C9_12 C 0.8118(3) 0.7453(3) 0.3966(2)
H5_12 H 0.8211 0.7088 0.4245
O1_11 O 0.63227(16) 0.85862(18) 0.26097(16)
H6_11 H 0.6297 0.8754 0.3041
H7_12 H 0.6035 0.8862 0.2362
N8_8 N 0.8385(2) 0.8695(2) 0.17236(19)
N9_8 N 0.71522(18) 0.92061(18) 0.13493(17)
C9_13 C 0.0047(3) 0.0618(3) 0.6466(2)
H5_13 H 0.0412 0.0711 0.6745
N2_13 N 0.8102(2) 0.0215(2) 0.54294(17)
N3_11 N 0.7412(2) 0.0307(2) 0.54348(19)
N5_13 N 0.94731(18) 0.02934(18) 0.56176(17)
N7_13 N 0.9393(2) 0.0733(2) 0.66422(18)
C1_11 C 0.6017(3) 0.1540(3) 0.6940(3)
H1_11 H 0.6014 0.1848 0.7291
C2_11 C 0.5409(3) 0.1348(4) 0.6670(4)
H2_11 H 0.5004 0.1522 0.6837
C3_11 C 0.5404(3) 0.0901(4) 0.6157(4)
H3_9 H 0.4996 0.0760 0.5969
C4_11 C 0.6019(3) 0.0658(4) 0.5916(3)
H4_11 H 0.6029 0.0350 0.5565
C5_11 C 0.6613(2) 0.0880(3) 0.6205(3)
C6_11 C 0.7285(2) 0.0650(2) 0.5994(2)
C7_13 C 0.8341(2) 0.0510(2) 0.5977(2)
C8_13 C 0.9065(2) 0.0518(2) 0.6097(2)
O1_12 O 0.89138(18) 0.88227(16) 0.51097(16)
H6_12 H 0.8746 0.8797 0.5541
H7_13 H 0.8638 0.8535 0.4862
H7_14 H 0.6362 0.1465 0.9862
N2_14 N 0.6898(2) 0.9785(2) 0.04294(17)
N3_12 N 0.7588(2) 0.9693(2) 0.04348(19)
N5_14 N 0.55269(18) 0.97066(18) 0.06176(17)
N7_14 N 0.5607(2) 0.9267(2) 0.16422(18)
C1_12 C 0.8983(3) 0.8460(3) 0.1940(3)
H1_12 H 0.8986 0.8152 0.2291
C2_12 C 0.9591(3) 0.8652(4) 0.1670(4)
H2_12 H 0.9996 0.8478 0.1837
C3_12 C 0.9596(3) 0.9099(4) 0.1157(4)
C4_12 C 0.8981(3) 0.9342(4) 0.0916(3)
H4_12 H 0.8971 0.9650 0.0565
C5_12 C 0.8387(2) 0.9120(3) 0.1205(3)
C6_12 C 0.7715(2) 0.9350(2) 0.0994(2)
C7_14 C 0.6659(2) 0.9490(2) 0.0977(2)
C8_14 C 0.5935(2) 0.9482(2) 0.1097(2)
C9_14 C 0.4953(3) 0.9382(3) 0.1466(2)
H5_14 H 0.4588 0.9289 0.1745
N2_15 N 0.2285(2) 0.5602(2) 0.29294(17)
N3_13 N 0.2193(2) 0.4912(2) 0.29348(19)
N5_15 N 0.22066(18) 0.69731(18) 0.31176(17)
N7_15 N 0.1767(2) 0.6893(2) 0.41422(18)
C1_13 C 0.0960(3) 0.3517(3) 0.4440(3)
H1_13 H 0.0652 0.3514 0.4791
C2_13 C 0.1152(4) 0.2909(3) 0.4170(4)
H2_13 H 0.0978 0.2504 0.4337
C3_13 C 0.1599(4) 0.2904(3) 0.3657(4)
H3_10 H 0.1740 0.2496 0.3469
C4_13 C 0.1842(4) 0.3519(3) 0.3416(3)
H4_13 H 0.2150 0.3529 0.3065
C5_13 C 0.1620(3) 0.4113(2) 0.3705(3)
C6_13 C 0.1850(2) 0.4785(2) 0.3494(2)
C7_15 C 0.1990(2) 0.5841(2) 0.3477(2)
C8_15 C 0.1982(2) 0.6565(2) 0.3597(2)
C9_15 C 0.1882(3) 0.7547(3) 0.3966(2)
H5_15 H 0.1789 0.7912 0.4245
O1_13 O 0.36773(16) 0.64138(18) 0.26097(16)
H6_13 H 0.3703 0.6246 0.3041
H7_15 H 0.3965 0.6138 0.2362
N2_16 N 0.2715(2) 0.4398(2) 0.79294(17)
N3_14 N 0.2807(2) 0.5088(2) 0.79348(19)
N5_16 N 0.27934(18) 0.30269(18) 0.81176(17)
N7_16 N 0.3233(2) 0.3107(2) 0.91422(18)
C1_14 C 0.4040(3) 0.6483(3) 0.9440(3)
H1_14 H 0.4348 0.6486 0.9791
C2_14 C 0.3848(4) 0.7091(3) 0.9170(4)
H2_14 H 0.4022 0.7496 0.9337
C3_14 C 0.3401(4) 0.7096(3) 0.8657(4)
H3_11 H 0.3260 0.7504 0.8469
C4_14 C 0.3158(4) 0.6481(3) 0.8416(3)
H4_14 H 0.2850 0.6471 0.8065
C5_14 C 0.3380(3) 0.5887(2) 0.8705(3)
C6_14 C 0.3150(2) 0.5215(2) 0.8494(2)
C7_16 C 0.3010(2) 0.4159(2) 0.8477(2)
C8_16 C 0.3018(2) 0.3435(2) 0.8597(2)
C9_16 C 0.3118(3) 0.2453(3) 0.8966(2)
H5_16 H 0.3211 0.2088 0.9245
O1_14 O 0.13227(16) 0.35862(18) 0.76097(16)
H6_14 H 0.1297 0.3754 0.8041
H7_16 H 0.1035 0.3862 0.7362
N1_7 N 0.3805(2) 0.0885(2) 0.07764(19)
N3_15 N 0.2807(2) 0.0088(2) 0.20652(19)
C1_15 C 0.4040(3) 0.1483(3) 0.0560(3)
H1_15 H 0.4348 0.1486 0.0209
C2_15 C 0.3848(4) 0.2091(3) 0.0830(4)
H2_15 H 0.4022 0.2496 0.0663
C3_15 C 0.3401(4) 0.2096(3) 0.1343(4)
H3_12 H 0.3260 0.2504 0.1531
C4_15 C 0.3158(4) 0.1481(3) 0.1584(3)
H4_15 H 0.2850 0.1471 0.1935
C5_15 C 0.3380(3) 0.0887(2) 0.1295(3)
C6_15 C 0.3150(2) 0.0215(2) 0.1506(2)
O1_15 O 0.39138(18) 0.88227(16) 0.98903(16)
H6_15 H 0.3746 0.8797 0.9459
H3_13 H 0.9996 0.0760 0.9031
H3_14 H 0.9996 0.5760 0.0969
N1_8 N 0.6195(2) 0.9115(2) 0.92236(19)
N3_16 N 0.7193(2) 0.9912(2) 0.79348(19)
C1_16 C 0.5960(3) 0.8517(3) 0.9440(3)
H1_16 H 0.5652 0.8514 0.9791
C2_16 C 0.6152(4) 0.7909(3) 0.9170(4)
H2_16 H 0.5978 0.7504 0.9337
C3_16 C 0.6599(4) 0.7904(3) 0.8657(4)
H3_15 H 0.6740 0.7496 0.8469
C4_16 C 0.6842(4) 0.8519(3) 0.8416(3)
H4_16 H 0.7150 0.8529 0.8065
C5_16 C 0.6620(3) 0.9113(2) 0.8705(3)
C6_16 C 0.6850(2) 0.9785(2) 0.8494(2)
H3_16 H 0.0004 0.9240 0.0969
O1_16 O 0.60862(18) 0.11773(16) 0.01097(16)
H6_16 H 0.6254 0.1203 0.0541
loop_
_geom_bond_atom_site_label_1
_geom_bond_atom_site_label_2
_geom_bond_site_symmetry_1
_geom_bond_site_symmetry_2
N8 Mn1 1_555 1_555
N9 Mn1 1_555 1_555
N10 Mn1 1_555 1_555
N1 C1 1_555 1_555
N2 N3 1_555 1_555
N3 C6 1_555 1_555
N4 C6 1_555 1_555
N6 N5 1_555 1_555
N7 C8 1_555 1_555
C1 H1 1_555 1_555
C2 C1 1_555 1_555
H2 C2 1_555 1_555
C3 C2 1_555 1_555
C4 C3 1_555 1_555
H4 C4 1_555 1_555
C5 N1 1_555 1_555
C6 C5 1_555 1_555
C7 N2 1_555 1_555
C8 N5 1_555 1_555
C9 N6 1_555 1_555
H5 C9 1_555 1_555
H6 O1 1_555 1_555
Mn2 N1 1_555 1_555
Mn3 N6 1_555 1_555
N4 C7 1_555 1_555
N4 Mn2 1_555 1_555
N7 C9 1_555 1_555
C4 C5 1_555 1_555
C7 C8 1_555 1_555
C9_2 N6_2 1_555 1_555
H5_2 C9_2 1_555 1_555
Mn3_2 N6_2 1_555 1_555
Mn1_2 N2_2 1_555 1_555
N1_2 C1_2 1_555 1_555
N2_2 N3_2 1_555 1_555
N3_2 C6_2 1_555 1_555
N4_2 C6_2 1_555 1_555
N5_2 Mn1_2 1_555 1_555
N7_2 C8_2 1_555 1_555
C1_2 H1_2 1_555 1_555
C2_2 C1_2 1_555 1_555
H2_2 C2_2 1_555 1_555
C3_2 C2_2 1_555 1_555
H3_2 C3_2 1_555 1_555
C4_2 C3_2 1_555 1_555
H4_2 C4_2 1_555 1_555
C5_2 N1_2 1_555 1_555
C6_2 C5_2 1_555 1_555
C7_2 N2_2 1_555 1_555
C8_2 N5_2 1_555 1_555
O1_2 Mn1_2 1_555 1_555
H6_2 O1_2 1_555 1_555
H7_2 O1_2 1_555 1_555
Mn2_2 N1_2 1_555 1_555
N8_2 Mn1_2 1_555 1_555
N9_2 Mn1_2 1_555 1_555
N10_2 Mn1_2 1_555 1_555
N4_2 C7_2 1_555 1_555
N4_2 Mn2_2 1_555 1_555
C4_2 C5_2 1_555 1_555
C7_2 C8_2 1_555 1_555
Mn1_3 N2_3 1_555 1_555
N5_3 Mn1_3 1_555 1_555
N6_3 N5_3 1_555 1_555
N7_3 C8_3 1_555 1_555
C7_3 N2_3 1_555 1_555
C8_3 N5_3 1_555 1_555
C9_3 N6_3 1_555 1_555
H5_3 C9_3 1_555 1_555
O1_3 Mn1_3 1_555 1_555
H6_3 O1_3 1_555 1_555
H7_3 O1_3 1_555 1_555
Mn3_3 N6_3 1_555 1_555
N8_3 Mn1_3 1_555 1_555
N9_3 Mn1_3 1_555 1_555
N10_3 Mn1_3 1_555 1_555
N4_3 C7_3 1_555 1_555
N4_3 Mn2_3 1_555 1_555
N7_3 C9_3 1_555 1_555
C7_3 C8_3 1_555 1_555
Mn1_4 N2_4 1_555 1_555
N5_4 Mn1_4 1_555 1_555
N6_4 N5_4 1_555 1_555
N7_4 C8_4 1_555 1_555
C7_4 N2_4 1_555 1_555
C8_4 N5_4 1_555 1_555
C9_4 N6_4 1_555 1_555
H5_4 C9_4 1_555 1_555
O1_4 Mn1_4 1_555 1_555
H6_4 O1_4 1_555 1_555
H7_4 O1_4 1_555 1_555
Mn3_4 N6_4 1_555 1_555
N8_4 Mn1_4 1_555 1_555
N9_4 Mn1_4 1_555 1_555
N10_4 Mn1_4 1_555 1_555
N4_4 C7_4 1_555 1_555
N4_4 Mn2_4 1_555 1_555
N7_4 C9_4 1_555 1_555
C7_4 C8_4 1_555 1_555
N1_3 C1_3 1_555 1_555
N3_3 C6_3 1_555 1_555
C1_3 H1_3 1_555 1_555
C2_3 C1_3 1_555 1_555
H2_3 C2_3 1_555 1_555
C3_3 C2_3 1_555 1_555
H3_3 C3_3 1_555 1_555
C4_3 C3_3 1_555 1_555
H4_3 C4_3 1_555 1_555
C5_3 N1_3 1_555 1_555
C6_3 C5_3 1_555 1_555
C4_3 C5_3 1_555 1_555
O1_5 Mn2_4 1_555 1_555
H6_5 O1_5 1_555 1_555
H7_5 O1_5 1_555 1_555
N10_5 Mn2_4 1_555 1_555
N8_3 C1_4 1_555 1_555
N2_5 N3_4 1_555 1_555
N3_4 C6_4 1_555 1_555
N9_3 C6_4 1_555 1_555
N7_5 C8_5 1_555 1_555
C1_4 H1_4 1_555 1_555
C2_4 C1_4 1_555 1_555
H2_4 C2_4 1_555 1_555
C3_4 C2_4 1_555 1_555
H3_4 C3_4 1_555 1_555
C4_4 C3_4 1_555 1_555
H4_4 C4_4 1_555 1_555
C5_4 N8_3 1_555 1_555
C6_4 C5_4 1_555 1_555
C7_5 N2_5 1_555 1_555
C8_5 N5_5 1_555 1_555
N9_3 C7_5 1_555 1_555
C4_4 C5_4 1_555 1_555
C7_5 C8_5 1_555 1_555
C9_5 N6_5 1_555 1_555
H5_5 C9_5 1_555 1_555
Mn3_5 N6_5 1_555 1_555
N8_4 C1_5 1_555 1_555
N2_6 N3_5 1_555 1_555
N3_5 C6_5 1_555 1_555
N9_4 C6_5 1_555 1_555
N6_6 N5_6 1_555 1_555
N7_6 C8_6 1_555 1_555
C1_5 H1_5 1_555 1_555
C2_5 C1_5 1_555 1_555
H2_5 C2_5 1_555 1_555
C3_5 C2_5 1_555 1_555
C4_5 C3_5 1_555 1_555
H4_5 C4_5 1_555 1_555
C5_5 N8_4 1_555 1_555
C6_5 C5_5 1_555 1_555
C7_6 N2_6 1_555 1_555
C8_6 N5_6 1_555 1_555
C9_6 N6_6 1_555 1_555
H5_6 C9_6 1_555 1_555
Mn3_6 N6_6 1_555 1_555
N9_4 C7_6 1_555 1_555
N7_6 C9_6 1_555 1_555
C4_5 C5_5 1_555 1_555
C7_6 C8_6 1_555 1_555
N10_6 Mn2_3 1_555 1_555
Mn2 N2_7 1_555 1_555
N8_2 C1_6 1_555 1_555
N2_7 N3_6 1_555 1_555
N3_6 C6_6 1_555 1_555
N9_2 C6_6 1_555 1_555
N5_7 Mn2 1_555 1_555
N6_7 N5_7 1_555 1_555
N7_7 C8_7 1_555 1_555
C1_6 H1_6 1_555 1_555
C2_6 C1_6 1_555 1_555
H2_6 C2_6 1_555 1_555
C3_6 C2_6 1_555 1_555
H3_5 C3_6 1_555 1_555
C4_6 C3_6 1_555 1_555
H4_6 C4_6 1_555 1_555
C5_6 N8_2 1_555 1_555
C6_6 C5_6 1_555 1_555
C7_7 N2_7 1_555 1_555
C8_7 N5_7 1_555 1_555
C9_7 N6_7 1_555 1_555
H5_7 C9_7 1_555 1_555
O1_6 Mn2 1_555 1_555
H6_6 O1_6 1_555 1_555
H7_7 O1_6 1_555 1_555
Mn3_7 N6_7 1_555 1_555
N10_7 Mn2 1_555 1_555
N9_2 C7_7 1_555 1_555
N7_7 C9_7 1_555 1_555
C4_6 C5_6 1_555 1_555
C7_7 C8_7 1_555 1_555
Mn2_2 N2_8 1_555 1_555
N8 C1_7 1_555 1_555
N2_8 N3_7 1_555 1_555
N3_7 C6_7 1_555 1_555
N9 C6_7 1_555 1_555
N5_8 Mn2_2 1_555 1_555
N6_8 N5_8 1_555 1_555
N7_8 C8_8 1_555 1_555
C1_7 H1_7 1_555 1_555
C2_7 C1_7 1_555 1_555
H2_7 C2_7 1_555 1_555
C3_7 C2_7 1_555 1_555
H3_6 C3_7 1_555 1_555
C4_7 C3_7 1_555 1_555
H4_7 C4_7 1_555 1_555
C5_7 N8 1_555 1_555
C6_7 C5_7 1_555 1_555
C7_8 N2_8 1_555 1_555
C8_8 N5_8 1_555 1_555
C9_8 N6_8 1_555 1_555
H5_8 C9_8 1_555 1_555
O1_7 Mn2_2 1_555 1_555
H6_7 O1_7 1_555 1_555
H7_8 O1_7 1_555 1_555
Mn3_8 N6_8 1_555 1_555
N10_8 Mn2_2 1_555 1_555
N9 C7_8 1_555 1_555
N7_8 C9_8 1_555 1_555
C4_7 C5_7 1_555 1_555
C7_8 C8_8 1_555 1_555
N1_4 C1_8 1_555 1_555
N2_9 N3_8 1_555 1_555
N3_8 C6_8 1_555 1_555
N4_5 C6_8 1_555 1_555
N10 N5_9 1_555 1_555
N7_9 C8_9 1_555 1_555
C1_8 H1_8 1_555 1_555
C2_8 C1_8 1_555 1_555
H2_8 C2_8 1_555 1_555
C3_8 C2_8 1_555 1_555
C4_8 C3_8 1_555 1_555
H4_8 C4_8 1_555 1_555
C5_8 N1_4 1_555 1_555
C6_8 C5_8 1_555 1_555
C7_9 N2_9 1_555 1_555
C8_9 N5_9 1_555 1_555
C9_9 N10 1_555 1_555
H5_9 C9_9 1_555 1_555
H6_8 O1_8 1_555 1_555
Mn3_3 N1_4 1_555 1_555
N4_5 C7_9 1_555 1_555
N4_5 Mn3_3 1_555 1_555
N7_9 C9_9 1_555 1_555
C4_8 C5_8 1_555 1_555
C7_9 C8_9 1_555 1_555
N8_5 Mn3 1_555 1_555
N9_5 Mn3 1_555 1_555
Mn3_2 N2_10 1_555 1_555
N1_5 C1_9 1_555 1_555
N2_10 N3_9 1_555 1_555
N3_9 C6_9 1_555 1_555
N4_6 C6_9 1_555 1_555
N5_10 Mn3_2 1_555 1_555
N7_10 C8_10 1_555 1_555
C1_9 H1_9 1_555 1_555
C2_9 C1_9 1_555 1_555
H2_9 C2_9 1_555 1_555
C3_9 C2_9 1_555 1_555
H3_7 C3_9 1_555 1_555
C4_9 C3_9 1_555 1_555
H4_9 C4_9 1_555 1_555
C5_9 N1_5 1_555 1_555
C6_9 C5_9 1_555 1_555
C7_10 N2_10 1_555 1_555
C8_10 N5_10 1_555 1_555
O1_9 Mn3_2 1_555 1_555
H6_9 O1_9 1_555 1_555
H7_10 O1_9 1_555 1_555
Mn3_4 N1_5 1_555 1_555
N8_6 Mn3_2 1_555 1_555
N9_6 Mn3_2 1_555 1_555
N4_6 C7_10 1_555 1_555
N4_6 Mn3_4 1_555 1_555
C4_9 C5_9 1_555 1_555
C7_10 C8_10 1_555 1_555
C9_10 N10_2 1_555 1_555
H5_10 C9_10 1_555 1_555
Mn3_7 N2_11 1_555 1_555
N5_11 Mn3_7 1_555 1_555
N10_7 N5_11 1_555 1_555
N7_11 C8_11 1_555 1_555
C7_11 N2_11 1_555 1_555
C8_11 N5_11 1_555 1_555
C9_11 N10_7 1_555 1_555
H5_11 C9_11 1_555 1_555
O1_10 Mn3_7 1_555 1_555
H6_10 O1_10 1_555 1_555
H7_11 O1_10 1_555 1_555
N8_7 Mn3_7 1_555 1_555
N9_7 Mn3_7 1_555 1_555
N4_7 C7_11 1_555 1_555
N4_7 Mn3_6 1_555 1_555
N7_11 C9_11 1_555 1_555
C7_11 C8_11 1_555 1_555
N1_6 C1_10 1_555 1_555
N3_10 C6_10 1_555 1_555
C1_10 H1_10 1_555 1_555
C2_10 C1_10 1_555 1_555
H2_10 C2_10 1_555 1_555
C3_10 C2_10 1_555 1_555
H3_8 C3_10 1_555 1_555
C4_10 C3_10 1_555 1_555
H4_10 C4_10 1_555 1_555
C5_10 N1_6 1_555 1_555
C6_10 C5_10 1_555 1_555
C4_10 C5_10 1_555 1_555
Mn3_8 N2_12 1_555 1_555
N5_12 Mn3_8 1_555 1_555
N10_8 N5_12 1_555 1_555
N7_12 C8_12 1_555 1_555
C7_12 N2_12 1_555 1_555
C8_12 N5_12 1_555 1_555
C9_12 N10_8 1_555 1_555
H5_12 C9_12 1_555 1_555
O1_11 Mn3_8 1_555 1_555
H6_11 O1_11 1_555 1_555
H7_12 O1_11 1_555 1_555
N8_8 Mn3_8 1_555 1_555
N9_8 Mn3_8 1_555 1_555
N4_8 C7_12 1_555 1_555
N4_8 Mn3_5 1_555 1_555
N7_12 C9_12 1_555 1_555
C7_12 C8_12 1_555 1_555
C9_13 N10_5 1_555 1_555
H5_13 C9_13 1_555 1_555
N8_7 C1_11 1_555 1_555
N2_13 N3_11 1_555 1_555
N3_11 C6_11 1_555 1_555
N9_7 C6_11 1_555 1_555
N7_13 C8_13 1_555 1_555
C1_11 H1_11 1_555 1_555
C2_11 C1_11 1_555 1_555
H2_11 C2_11 1_555 1_555
C3_11 C2_11 1_555 1_555
H3_9 C3_11 1_555 1_555
C4_11 C3_11 1_555 1_555
H4_11 C4_11 1_555 1_555
C5_11 N8_7 1_555 1_555
C6_11 C5_11 1_555 1_555
C7_13 N2_13 1_555 1_555
C8_13 N5_13 1_555 1_555
N9_7 C7_13 1_555 1_555
C4_11 C5_11 1_555 1_555
C7_13 C8_13 1_555 1_555
O1_12 Mn3_5 1_555 1_555
H6_12 O1_12 1_555 1_555
H7_13 O1_12 1_555 1_555
N8_8 C1_12 1_555 1_555
N2_14 N3_12 1_555 1_555
N3_12 C6_12 1_555 1_555
N9_8 C6_12 1_555 1_555
N10_6 N5_14 1_555 1_555
N7_14 C8_14 1_555 1_555
C1_12 H1_12 1_555 1_555
C2_12 C1_12 1_555 1_555
H2_12 C2_12 1_555 1_555
C3_12 C2_12 1_555 1_555
C4_12 C3_12 1_555 1_555
H4_12 C4_12 1_555 1_555
C5_12 N8_8 1_555 1_555
C6_12 C5_12 1_555 1_555
C7_14 N2_14 1_555 1_555
C8_14 N5_14 1_555 1_555
C9_14 N10_6 1_555 1_555
H5_14 C9_14 1_555 1_555
N9_8 C7_14 1_555 1_555
N7_14 C9_14 1_555 1_555
C4_12 C5_12 1_555 1_555
C7_14 C8_14 1_555 1_555
Mn3_3 N2_15 1_555 1_555
N8_6 C1_13 1_555 1_555
N2_15 N3_13 1_555 1_555
N3_13 C6_13 1_555 1_555
N9_6 C6_13 1_555 1_555
N5_15 Mn3_3 1_555 1_555
N10_3 N5_15 1_555 1_555
N7_15 C8_15 1_555 1_555
C1_13 H1_13 1_555 1_555
C2_13 C1_13 1_555 1_555
H2_13 C2_13 1_555 1_555
C3_13 C2_13 1_555 1_555
H3_10 C3_13 1_555 1_555
C4_13 C3_13 1_555 1_555
H4_13 C4_13 1_555 1_555
C5_13 N8_6 1_555 1_555
C6_13 C5_13 1_555 1_555
C7_15 N2_15 1_555 1_555
C8_15 N5_15 1_555 1_555
C9_15 N10_3 1_555 1_555
H5_15 C9_15 1_555 1_555
O1_13 Mn3_3 1_555 1_555
H6_13 O1_13 1_555 1_555
H7_15 O1_13 1_555 1_555
N9_6 C7_15 1_555 1_555
N7_15 C9_15 1_555 1_555
C4_13 C5_13 1_555 1_555
C7_15 C8_15 1_555 1_555
Mn3_4 N2_16 1_555 1_555
N8_5 C1_14 1_555 1_555
N2_16 N3_14 1_555 1_555
N3_14 C6_14 1_555 1_555
N9_5 C6_14 1_555 1_555
N5_16 Mn3_4 1_555 1_555
N10_4 N5_16 1_555 1_555
N7_16 C8_16 1_555 1_555
C1_14 H1_14 1_555 1_555
C2_14 C1_14 1_555 1_555
H2_14 C2_14 1_555 1_555
C3_14 C2_14 1_555 1_555
H3_11 C3_14 1_555 1_555
C4_14 C3_14 1_555 1_555
H4_14 C4_14 1_555 1_555
C5_14 N8_5 1_555 1_555
C6_14 C5_14 1_555 1_555
C7_16 N2_16 1_555 1_555
C8_16 N5_16 1_555 1_555
C9_16 N10_4 1_555 1_555
H5_16 C9_16 1_555 1_555
O1_14 Mn3_4 1_555 1_555
H6_14 O1_14 1_555 1_555
H7_16 O1_14 1_555 1_555
N9_5 C7_16 1_555 1_555
N7_16 C9_16 1_555 1_555
C4_14 C5_14 1_555 1_555
C7_16 C8_16 1_555 1_555
N1_7 C1_15 1_555 1_555
N3_15 C6_15 1_555 1_555
C1_15 H1_15 1_555 1_555
C2_15 C1_15 1_555 1_555
H2_15 C2_15 1_555 1_555
C3_15 C2_15 1_555 1_555
H3_12 C3_15 1_555 1_555
C4_15 C3_15 1_555 1_555
H4_15 C4_15 1_555 1_555
C5_15 N1_7 1_555 1_555
C6_15 C5_15 1_555 1_555
C4_15 C5_15 1_555 1_555
H6_15 O1_15 1_555 1_555
N1_8 C1_16 1_555 1_555
N3_16 C6_16 1_555 1_555
C1_16 H1_16 1_555 1_555
C2_16 C1_16 1_555 1_555
H2_16 C2_16 1_555 1_555
C3_16 C2_16 1_555 1_555
H3_15 C3_16 1_555 1_555
C4_16 C3_16 1_555 1_555
H4_16 C4_16 1_555 1_555
C5_16 N1_8 1_555 1_555
C6_16 C5_16 1_555 1_555
C4_16 C5_16 1_555 1_555
H6_16 O1_16 1_555 1_555

#END
