
###############################################################################
#
# This file contains modified crystal structure data generated from the
# MOF subset of the Cambridge Structural Database (CSD) v543 
# hosted by the Cambridge Crystallographic Data Centre (CCDC).
#
# This work is licensed under the Creative Commons
# Attribution-NonCommercial-ShareAlike 4.0 International License.
# To view a copy of this license, visit
# http://creativecommons.org/licenses/by-nc-sa/4.0/
# or send a letter to
# Creative Commons, PO Box 1866, Mountain View, CA 94042, USA.
#
# CIF created using the CSD Python API on 29 September 2022
# The structure has been converted into the P1 space group
# The structure has a 3D framework
# The original CSD entry MUTDEM is in the tetragonal crystal system
# The framework has been calculated to contain at least 10.0% void space
# The void calculation uses a probe of radius 1.32A, grid spacing 0.4
#
###############################################################################

data_MUTDEM
_chemical_formula_moiety         '(C144 H128 Fe16 N112 O16)n'
_symmetry_cell_setting           triclinic
_symmetry_space_group_name_H-M   'P 1'
_symmetry_Int_Tables_number      1
_space_group_name_Hall           'P 1'
loop_
_symmetry_equiv_pos_site_id
_symmetry_equiv_pos_as_xyz
1 x,y,z
_cell_length_a                   19.623(3)
_cell_length_b                   19.623(3)
_cell_length_c                   19.147(4)
_cell_angle_alpha                90
_cell_angle_beta                 90
_cell_angle_gamma                90
_cell_volume                     7372.78
loop_
_atom_site_label
_atom_site_type_symbol
_atom_site_fract_x
_atom_site_fract_y
_atom_site_fract_z
Fe1 Fe 0.39624(3) 0.52176(3) 0.02003(3)
N1 N 0.38293(19) 0.41754(17) 0.07140(19)
N2 N 0.32919(15) 0.53958(15) 0.10716(16)
N3 N 0.2705(2) 0.49598(18) 0.1984(2)
H1 H 0.2539 0.4671 0.2276
N4 N 0.26240(18) 0.56483(16) 0.19883(18)
N5 N 0.3350(2) 0.69682(18) 0.08489(19)
N6 N 0.27632(17) 0.70140(15) 0.18493(16)
N7 N 0.29098(19) 0.76686(16) 0.16637(18)
C1 C 0.4122(3) 0.3580(2) 0.0532(3)
H2 H 0.4456 0.3569 0.0187
C2 C 0.3925(4) 0.2995(3) 0.0855(4)
H3 H 0.4124 0.2588 0.0712
C3 C 0.3473(4) 0.2971(2) 0.1354(4)
H4 H 0.3363 0.2563 0.1575
C4 C 0.3176(4) 0.3555(3) 0.1535(4)
H5 H 0.2835 0.3554 0.1871
C5 C 0.3369(3) 0.4168(2) 0.1228(2)
C6 C 0.3099(2) 0.4827(2) 0.1429(2)
C7 C 0.29816(19) 0.58853(19) 0.14440(19)
C8 C 0.30315(19) 0.66218(19) 0.13532(19)
C9 C 0.3249(3) 0.7612(2) 0.1068(2)
H6 H 0.3404 0.7989 0.0820
H8 H 0.3813 0.6485 0.0136
Fe2 Fe 0.22824(3) 0.64624(3) 0.27003(3)
Fe3 Fe 0.27176(3) 0.85376(3) 0.22997(3)
N10 N 0.48314(16) 0.54098(19) 0.08363(18)
O1 O 0.39412(18) 0.62168(15) 0.98127(15)
H7 H 0.4338 0.6330 0.9676
N8 N 0.31483(16) 0.48760(18) 0.94883(18)
N9 N 0.45140(15) 0.47368(17) 0.93493(16)
Fe1_2 Fe 0.10376(3) 0.47824(3) 0.52003(3)
N1_2 N 0.11707(19) 0.58246(17) 0.57140(19)
N2_2 N 0.17081(15) 0.46042(15) 0.60716(16)
N3_2 N 0.2295(2) 0.50402(18) 0.6984(2)
H1_2 H 0.2461 0.5329 0.7276
N4_2 N 0.23760(18) 0.43517(16) 0.69883(18)
N5_2 N 0.1650(2) 0.30318(18) 0.58489(19)
N6_2 N 0.22368(17) 0.29860(15) 0.68493(16)
N7_2 N 0.20902(19) 0.23314(16) 0.66637(18)
C1_2 C 0.0878(3) 0.6420(2) 0.5532(3)
H2_2 H 0.0544 0.6431 0.5187
C2_2 C 0.1075(4) 0.7005(3) 0.5855(4)
H3_2 H 0.0876 0.7412 0.5712
C3_2 C 0.1527(4) 0.7029(2) 0.6354(4)
H4_2 H 0.1637 0.7437 0.6575
C4_2 C 0.1824(4) 0.6445(3) 0.6535(4)
H5_2 H 0.2165 0.6446 0.6871
C5_2 C 0.1631(3) 0.5832(2) 0.6228(2)
C6_2 C 0.1901(2) 0.5173(2) 0.6429(2)
C7_2 C 0.20184(19) 0.41147(19) 0.64440(19)
C8_2 C 0.19685(19) 0.33782(19) 0.63532(19)
C9_2 C 0.1751(3) 0.2388(2) 0.6068(2)
H6_2 H 0.1596 0.2011 0.5820
O1_2 O 0.10588(18) 0.37832(15) 0.48127(15)
H7_2 H 0.0662 0.3670 0.4676
H8_2 H 0.1187 0.3515 0.5136
Fe2_2 Fe 0.27176(3) 0.35376(3) 0.77003(3)
Fe3_2 Fe 0.22824(3) 0.14624(3) 0.72997(3)
N8_2 N 0.18517(16) 0.51240(18) 0.44883(18)
N9_2 N 0.04860(15) 0.52632(17) 0.43493(16)
N10_2 N 0.01686(16) 0.45902(19) 0.58363(18)
N1_3 N 0.33246(17) 0.63293(19) 0.32140(19)
N2_3 N 0.21042(15) 0.57919(15) 0.35716(16)
N3_3 N 0.25402(18) 0.5205(2) 0.4484(2)
H1_3 H 0.2829 0.5039 0.4776
N5_3 N 0.05318(18) 0.5850(2) 0.33489(19)
C1_3 C 0.3920(2) 0.6622(3) 0.3032(3)
H2_3 H 0.3931 0.6956 0.2687
C2_3 C 0.4505(3) 0.6425(4) 0.3355(4)
H3_3 H 0.4912 0.6624 0.3212
C3_3 C 0.4529(2) 0.5973(4) 0.3854(4)
H4_3 H 0.4937 0.5863 0.4075
C4_3 C 0.3945(3) 0.5676(4) 0.4035(4)
H5_3 H 0.3946 0.5335 0.4371
C5_3 C 0.3332(2) 0.5869(3) 0.3728(2)
C6_3 C 0.2673(2) 0.5599(2) 0.3929(2)
C7_3 C 0.16147(19) 0.54816(19) 0.39440(19)
C8_3 C 0.08782(19) 0.55315(19) 0.38532(19)
O1_3 O 0.12832(15) 0.64412(18) 0.23127(15)
H7_3 H 0.1170 0.6838 0.2176
H8_3 H 0.1015 0.6313 0.2636
N10_3 N 0.20902(19) 0.73314(16) 0.33363(18)
N7_3 N 0.98314(16) 0.54098(19) 0.41637(18)
C9_3 C 0.9888(2) 0.5749(3) 0.3568(2)
H6_3 H 0.9511 0.5904 0.3320
Fe3_3 Fe 0.89624(3) 0.52176(3) 0.47997(3)
N1_4 N 0.16754(17) 0.36707(19) 0.82140(19)
N2_4 N 0.28958(15) 0.42081(15) 0.85716(16)
N3_4 N 0.24598(18) 0.4795(2) 0.9484(2)
H1_4 H 0.2171 0.4961 0.9776
N5_4 N 0.44682(18) 0.4150(2) 0.83489(19)
N7_4 N 0.51686(16) 0.45902(19) 0.91637(18)
C1_4 C 0.1080(2) 0.3378(3) 0.8032(3)
H2_4 H 0.1069 0.3044 0.7687
C2_4 C 0.0495(3) 0.3575(4) 0.8355(4)
H3_4 H 0.0088 0.3376 0.8212
C3_4 C 0.0471(2) 0.4027(4) 0.8854(4)
H4_4 H 0.0063 0.4137 0.9075
C4_4 C 0.1055(3) 0.4324(4) 0.9035(4)
H5_4 H 0.1054 0.4665 0.9371
C5_4 C 0.1668(2) 0.4131(3) 0.8728(2)
C6_4 C 0.2327(2) 0.4401(2) 0.8929(2)
C7_4 C 0.33853(19) 0.45184(19) 0.89440(19)
C8_4 C 0.41218(19) 0.44685(19) 0.88532(19)
C9_4 C 0.5112(2) 0.4251(3) 0.8568(2)
H6_4 H 0.5489 0.4096 0.8320
O1_4 O 0.37168(15) 0.35588(18) 0.73127(15)
H7_4 H 0.3830 0.3162 0.7176
H8_4 H 0.3985 0.3687 0.7636
Fe3_4 Fe 0.60376(3) 0.47824(3) 0.97997(3)
N10_4 N 0.29098(19) 0.26686(16) 0.83363(18)
Fe1_3 Fe 0.89624(3) 0.02176(3) 0.52003(3)
N2_5 N 0.82919(15) 0.03958(15) 0.60716(16)
N4_3 N 0.76240(18) 0.06483(16) 0.69883(18)
N5_5 N 0.8350(2) 0.19682(18) 0.58489(19)
N6_3 N 0.77632(17) 0.20140(15) 0.68493(16)
N7_5 N 0.79098(19) 0.26686(16) 0.66637(18)
C7_5 C 0.79816(19) 0.08853(19) 0.64440(19)
C8_5 C 0.80315(19) 0.16218(19) 0.63532(19)
C9_5 C 0.8249(3) 0.2612(2) 0.6068(2)
H6_5 H 0.8404 0.2989 0.5820
O1_5 O 0.89412(18) 0.12168(15) 0.48127(15)
H7_5 H 0.9338 0.1330 0.4676
H8_5 H 0.8813 0.1485 0.5136
Fe2_3 Fe 0.72824(3) 0.14624(3) 0.77003(3)
Fe3_5 Fe 0.77176(3) 0.35376(3) 0.72997(3)
N10_5 N 0.98314(16) 0.04098(19) 0.58363(18)
N1_5 N 0.88293(19) 0.91754(17) 0.57140(19)
N3_5 N 0.7705(2) 0.99598(18) 0.6984(2)
H1_5 H 0.7539 0.9671 0.7276
C1_5 C 0.9122(3) 0.8580(2) 0.5532(3)
H2_5 H 0.9456 0.8569 0.5187
C2_5 C 0.8925(4) 0.7995(3) 0.5855(4)
H3_5 H 0.9124 0.7588 0.5712
C3_5 C 0.8473(4) 0.7971(2) 0.6354(4)
H4_5 H 0.8363 0.7563 0.6575
C4_5 C 0.8176(4) 0.8555(3) 0.6535(4)
H5_5 H 0.7835 0.8554 0.6871
C5_5 C 0.8369(3) 0.9168(2) 0.6228(2)
C6_5 C 0.8099(2) 0.9827(2) 0.6429(2)
N8_3 N 0.81483(16) 0.98760(18) 0.44883(18)
N9_3 N 0.95140(15) 0.97368(17) 0.43493(16)
N8_4 N 0.68517(16) 0.01240(18) 0.94883(18)
N9_4 N 0.54860(15) 0.02632(17) 0.93493(16)
Fe1_4 Fe 0.60376(3) 0.97824(3) 0.02003(3)
N2_6 N 0.67081(15) 0.96042(15) 0.10716(16)
N4_4 N 0.73760(18) 0.93517(16) 0.19883(18)
N5_6 N 0.6650(2) 0.80318(18) 0.08489(19)
N6_4 N 0.72368(17) 0.79860(15) 0.18493(16)
N7_6 N 0.70902(19) 0.73314(16) 0.16637(18)
C7_6 C 0.70184(19) 0.91147(19) 0.14440(19)
C8_6 C 0.69685(19) 0.83782(19) 0.13532(19)
C9_6 C 0.6751(3) 0.7388(2) 0.1068(2)
H6_6 H 0.6596 0.7011 0.0820
H8_6 H 0.6187 0.8515 0.0136
Fe2_4 Fe 0.77176(3) 0.85376(3) 0.27003(3)
Fe3_6 Fe 0.72824(3) 0.64624(3) 0.22997(3)
N10_6 N 0.51686(16) 0.95902(19) 0.08363(18)
N1_6 N 0.83246(17) 0.13293(19) 0.82140(19)
N2_7 N 0.71042(15) 0.07919(15) 0.85716(16)
N3_6 N 0.75402(18) 0.0205(2) 0.9484(2)
H1_6 H 0.7829 0.0039 0.9776
N5_7 N 0.55318(18) 0.0850(2) 0.83489(19)
N7_7 N 0.48314(16) 0.04098(19) 0.91637(18)
C1_6 C 0.8920(2) 0.1622(3) 0.8032(3)
H2_6 H 0.8931 0.1956 0.7687
C2_6 C 0.9505(3) 0.1425(4) 0.8355(4)
H3_6 H 0.9912 0.1624 0.8212
C3_6 C 0.9529(2) 0.0973(4) 0.8854(4)
H4_6 H 0.9937 0.0863 0.9075
C4_6 C 0.8945(3) 0.0676(4) 0.9035(4)
H5_6 H 0.8946 0.0335 0.9371
C5_6 C 0.8332(2) 0.0869(3) 0.8728(2)
C6_6 C 0.7673(2) 0.0599(2) 0.8929(2)
C7_7 C 0.66147(19) 0.04816(19) 0.89440(19)
C8_7 C 0.58782(19) 0.05315(19) 0.88532(19)
C9_7 C 0.4888(2) 0.0749(3) 0.8568(2)
H6_7 H 0.4511 0.0904 0.8320
O1_6 O 0.62832(15) 0.14412(18) 0.73127(15)
H7_6 H 0.6170 0.1838 0.7176
H8_7 H 0.6015 0.1313 0.7636
Fe3_7 Fe 0.39624(3) 0.02176(3) 0.97997(3)
N10_7 N 0.70902(19) 0.23314(16) 0.83363(18)
N7_8 N 0.01686(16) 0.95902(19) 0.41637(18)
C9_8 C 0.0112(2) 0.9251(3) 0.3568(2)
H6_8 H 0.0489 0.9096 0.3320
Fe3_8 Fe 0.10376(3) 0.97824(3) 0.47997(3)
N1_7 N 0.66754(17) 0.86707(19) 0.32140(19)
N2_8 N 0.78958(15) 0.92081(15) 0.35716(16)
N3_7 N 0.74598(18) 0.9795(2) 0.4484(2)
H1_7 H 0.7171 0.9961 0.4776
N5_8 N 0.94682(18) 0.9150(2) 0.33489(19)
C1_7 C 0.6080(2) 0.8378(3) 0.3032(3)
H2_7 H 0.6069 0.8044 0.2687
C2_7 C 0.5495(3) 0.8575(4) 0.3355(4)
H3_7 H 0.5088 0.8376 0.3212
C3_7 C 0.5471(2) 0.9027(4) 0.3854(4)
H4_7 H 0.5063 0.9137 0.4075
C4_7 C 0.6055(3) 0.9324(4) 0.4035(4)
H5_7 H 0.6054 0.9665 0.4371
C5_7 C 0.6668(2) 0.9131(3) 0.3728(2)
C6_7 C 0.7327(2) 0.9401(2) 0.3929(2)
C7_8 C 0.83853(19) 0.95184(19) 0.39440(19)
C8_8 C 0.91218(19) 0.94685(19) 0.38532(19)
O1_7 O 0.87168(15) 0.85588(18) 0.23127(15)
H7_7 H 0.8830 0.8162 0.2176
H8_8 H 0.8985 0.8687 0.2636
N10_8 N 0.79098(19) 0.76686(16) 0.33363(18)
O1_8 O 0.60588(18) 0.37832(15) 0.01873(15)
H7_8 H 0.5662 0.3670 0.0324
N8_5 N 0.68517(16) 0.51240(18) 0.05117(18)
N9_5 N 0.54860(15) 0.52632(17) 0.06507(16)
N1_8 N 0.61707(19) 0.58246(17) 0.92860(19)
N2_9 N 0.67081(15) 0.46042(15) 0.89284(16)
N3_8 N 0.7295(2) 0.50402(18) 0.8016(2)
H1_8 H 0.7461 0.5329 0.7724
N4_5 N 0.73760(18) 0.43517(16) 0.80117(18)
N5_9 N 0.6650(2) 0.30318(18) 0.91511(19)
N6_5 N 0.72368(17) 0.29860(15) 0.81507(16)
C1_8 C 0.5878(3) 0.6420(2) 0.9468(3)
H2_8 H 0.5544 0.6431 0.9813
C2_8 C 0.6075(4) 0.7005(3) 0.9145(4)
H3_8 H 0.5876 0.7412 0.9288
C3_8 C 0.6527(4) 0.7029(2) 0.8646(4)
H4_8 H 0.6637 0.7437 0.8425
C4_8 C 0.6824(4) 0.6445(3) 0.8465(4)
H5_8 H 0.7165 0.6446 0.8129
C5_8 C 0.6631(3) 0.5832(2) 0.8772(2)
C6_8 C 0.6901(2) 0.5173(2) 0.8571(2)
C7_9 C 0.70184(19) 0.41147(19) 0.85560(19)
C8_9 C 0.69685(19) 0.33782(19) 0.86468(19)
C9_9 C 0.6751(3) 0.2388(2) 0.8932(2)
H6_9 H 0.6596 0.2011 0.9180
H8_9 H 0.6187 0.3515 0.9864
N1_9 N 0.88293(19) 0.41754(17) 0.42860(19)
N2_10 N 0.82919(15) 0.53958(15) 0.39284(16)
N3_9 N 0.7705(2) 0.49598(18) 0.3016(2)
H1_9 H 0.7539 0.4671 0.2724
N4_6 N 0.76240(18) 0.56483(16) 0.30117(18)
N5_10 N 0.8350(2) 0.69682(18) 0.41511(19)
N6_6 N 0.77632(17) 0.70140(15) 0.31507(16)
C1_9 C 0.9122(3) 0.3580(2) 0.4468(3)
H2_9 H 0.9456 0.3569 0.4813
C2_9 C 0.8925(4) 0.2995(3) 0.4145(4)
H3_9 H 0.9124 0.2588 0.4288
C3_9 C 0.8473(4) 0.2971(2) 0.3646(4)
H4_9 H 0.8363 0.2563 0.3425
C4_9 C 0.8176(4) 0.3555(3) 0.3465(4)
H5_9 H 0.7835 0.3554 0.3129
C5_9 C 0.8369(3) 0.4168(2) 0.3772(2)
C6_9 C 0.8099(2) 0.4827(2) 0.3571(2)
C7_10 C 0.79816(19) 0.58853(19) 0.35560(19)
C8_10 C 0.80315(19) 0.66218(19) 0.36468(19)
C9_10 C 0.8249(3) 0.7612(2) 0.3932(2)
H6_10 H 0.8404 0.7989 0.4180
O1_9 O 0.89412(18) 0.62168(15) 0.51873(15)
H7_9 H 0.9338 0.6330 0.5324
H8_10 H 0.8813 0.6485 0.4864
N8_6 N 0.81483(16) 0.48760(18) 0.55117(18)
N9_6 N 0.95140(15) 0.47368(17) 0.56507(16)
C9_11 C 0.0112(2) 0.4251(3) 0.6432(2)
H6_11 H 0.0489 0.4096 0.6680
N1_10 N 0.66754(17) 0.36707(19) 0.67860(19)
N2_11 N 0.78958(15) 0.42081(15) 0.64284(16)
N3_10 N 0.74598(18) 0.4795(2) 0.5516(2)
H1_10 H 0.7171 0.4961 0.5224
N5_11 N 0.94682(18) 0.4150(2) 0.66511(19)
C1_10 C 0.6080(2) 0.3378(3) 0.6968(3)
H2_10 H 0.6069 0.3044 0.7313
C2_10 C 0.5495(3) 0.3575(4) 0.6645(4)
H3_10 H 0.5088 0.3376 0.6788
C3_10 C 0.5471(2) 0.4027(4) 0.6146(4)
H4_10 H 0.5063 0.4137 0.5925
C4_10 C 0.6055(3) 0.4324(4) 0.5965(4)
H5_10 H 0.6054 0.4665 0.5629
C5_10 C 0.6668(2) 0.4131(3) 0.6272(2)
C6_10 C 0.7327(2) 0.4401(2) 0.6071(2)
C7_11 C 0.83853(19) 0.45184(19) 0.60560(19)
C8_11 C 0.91218(19) 0.44685(19) 0.61468(19)
O1_10 O 0.87168(15) 0.35588(18) 0.76873(15)
H7_10 H 0.8830 0.3162 0.7824
H8_11 H 0.8985 0.3687 0.7364
N1_11 N 0.83246(17) 0.63293(19) 0.17860(19)
N2_12 N 0.71042(15) 0.57919(15) 0.14284(16)
N3_11 N 0.75402(18) 0.5205(2) 0.0516(2)
H1_11 H 0.7829 0.5039 0.0224
N5_12 N 0.55318(18) 0.5850(2) 0.16511(19)
C1_11 C 0.8920(2) 0.6622(3) 0.1968(3)
H2_11 H 0.8931 0.6956 0.2313
C2_11 C 0.9505(3) 0.6425(4) 0.1645(4)
H3_11 H 0.9912 0.6624 0.1788
C3_11 C 0.9529(2) 0.5973(4) 0.1146(4)
H4_11 H 0.9937 0.5863 0.0925
C4_11 C 0.8945(3) 0.5676(4) 0.0965(4)
H5_11 H 0.8946 0.5335 0.0629
C5_11 C 0.8332(2) 0.5869(3) 0.1272(2)
C6_11 C 0.7673(2) 0.5599(2) 0.1071(2)
C7_12 C 0.66147(19) 0.54816(19) 0.10560(19)
C8_12 C 0.58782(19) 0.55315(19) 0.11468(19)
C9_12 C 0.4888(2) 0.5749(3) 0.1432(2)
H6_12 H 0.4511 0.5904 0.1680
O1_11 O 0.62832(15) 0.64412(18) 0.26873(15)
H7_11 H 0.6170 0.6838 0.2824
H8_12 H 0.6015 0.6313 0.2364
N1_12 N 0.11707(19) 0.08246(17) 0.42860(19)
N3_12 N 0.2295(2) 0.00402(18) 0.3016(2)
H1_12 H 0.2461 0.0329 0.2724
C1_12 C 0.0878(3) 0.1420(2) 0.4468(3)
H2_12 H 0.0544 0.1431 0.4813
C2_12 C 0.1075(4) 0.2005(3) 0.4145(4)
H3_12 H 0.0876 0.2412 0.4288
C3_12 C 0.1527(4) 0.2029(2) 0.3646(4)
H4_12 H 0.1637 0.2437 0.3425
C4_12 C 0.1824(4) 0.1445(3) 0.3465(4)
H5_12 H 0.2165 0.1446 0.3129
C5_12 C 0.1631(3) 0.0832(2) 0.3772(2)
C6_12 C 0.1901(2) 0.0173(2) 0.3571(2)
N8_7 N 0.18517(16) 0.01240(18) 0.55117(18)
N9_7 N 0.04860(15) 0.02632(17) 0.56507(16)
N2_13 N 0.17081(15) 0.96042(15) 0.39284(16)
N4_7 N 0.23760(18) 0.93517(16) 0.30117(18)
N5_13 N 0.1650(2) 0.80318(18) 0.41511(19)
N6_7 N 0.22368(17) 0.79860(15) 0.31507(16)
C7_13 C 0.20184(19) 0.91147(19) 0.35560(19)
C8_13 C 0.19685(19) 0.83782(19) 0.36468(19)
C9_13 C 0.1751(3) 0.7388(2) 0.3932(2)
H6_13 H 0.1596 0.7011 0.4180
O1_12 O 0.10588(18) 0.87832(15) 0.51873(15)
H7_12 H 0.0662 0.8670 0.5324
H8_13 H 0.1187 0.8515 0.4864
N2_14 N 0.32919(15) 0.03958(15) 0.89284(16)
N4_8 N 0.26240(18) 0.06483(16) 0.80117(18)
N5_14 N 0.3350(2) 0.19682(18) 0.91511(19)
N6_8 N 0.27632(17) 0.20140(15) 0.81507(16)
C7_14 C 0.29816(19) 0.08853(19) 0.85560(19)
C8_14 C 0.30315(19) 0.16218(19) 0.86468(19)
C9_14 C 0.3249(3) 0.2612(2) 0.8932(2)
H6_14 H 0.3404 0.2989 0.9180
H8_14 H 0.3813 0.1485 0.9864
N8_8 N 0.31483(16) 0.98760(18) 0.05117(18)
N9_8 N 0.45140(15) 0.97368(17) 0.06507(16)
N1_13 N 0.16754(17) 0.86707(19) 0.17860(19)
N2_15 N 0.28958(15) 0.92081(15) 0.14284(16)
N3_13 N 0.24598(18) 0.9795(2) 0.0516(2)
H1_13 H 0.2171 0.9961 0.0224
N5_15 N 0.44682(18) 0.9150(2) 0.16511(19)
C1_13 C 0.1080(2) 0.8378(3) 0.1968(3)
H2_13 H 0.1069 0.8044 0.2313
C2_13 C 0.0495(3) 0.8575(4) 0.1645(4)
H3_13 H 0.0088 0.8376 0.1788
C3_13 C 0.0471(2) 0.9027(4) 0.1146(4)
H4_13 H 0.0063 0.9137 0.0925
C4_13 C 0.1055(3) 0.9324(4) 0.0965(4)
H5_13 H 0.1054 0.9665 0.0629
C5_13 C 0.1668(2) 0.9131(3) 0.1272(2)
C6_13 C 0.2327(2) 0.9401(2) 0.1071(2)
C7_15 C 0.33853(19) 0.95184(19) 0.10560(19)
C8_15 C 0.41218(19) 0.94685(19) 0.11468(19)
C9_15 C 0.5112(2) 0.9251(3) 0.1432(2)
H6_15 H 0.5489 0.9096 0.1680
O1_13 O 0.37168(15) 0.85588(18) 0.26873(15)
H7_13 H 0.3830 0.8162 0.2824
H8_15 H 0.3985 0.8687 0.2364
N1_14 N 0.33246(17) 0.13293(19) 0.67860(19)
N2_16 N 0.21042(15) 0.07919(15) 0.64284(16)
N3_14 N 0.25402(18) 0.0205(2) 0.5516(2)
H1_14 H 0.2829 0.0039 0.5224
N5_16 N 0.05318(18) 0.0850(2) 0.66511(19)
C1_14 C 0.3920(2) 0.1622(3) 0.6968(3)
H2_14 H 0.3931 0.1956 0.7313
C2_14 C 0.4505(3) 0.1425(4) 0.6645(4)
H3_14 H 0.4912 0.1624 0.6788
C3_14 C 0.4529(2) 0.0973(4) 0.6146(4)
H4_14 H 0.4937 0.0863 0.5925
C4_14 C 0.3945(3) 0.0676(4) 0.5965(4)
H5_14 H 0.3946 0.0335 0.5629
C5_14 C 0.3332(2) 0.0869(3) 0.6272(2)
C6_14 C 0.2673(2) 0.0599(2) 0.6071(2)
C7_16 C 0.16147(19) 0.04816(19) 0.60560(19)
C8_16 C 0.08782(19) 0.05315(19) 0.61468(19)
O1_14 O 0.12832(15) 0.14412(18) 0.76873(15)
H7_14 H 0.1170 0.1838 0.7824
H8_16 H 0.1015 0.1313 0.7364
C9_16 C 0.9888(2) 0.0749(3) 0.6432(2)
H6_16 H 0.9511 0.0904 0.6680
N1_15 N 0.61707(19) 0.08246(17) 0.07140(19)
N3_15 N 0.7295(2) 0.00402(18) 0.1984(2)
H1_15 H 0.7461 0.0329 0.2276
C1_15 C 0.5878(3) 0.1420(2) 0.0532(3)
H2_15 H 0.5544 0.1431 0.0187
C2_15 C 0.6075(4) 0.2005(3) 0.0855(4)
H3_15 H 0.5876 0.2412 0.0712
C3_15 C 0.6527(4) 0.2029(2) 0.1354(4)
H4_15 H 0.6637 0.2437 0.1575
C4_15 C 0.6824(4) 0.1445(3) 0.1535(4)
H5_15 H 0.7165 0.1446 0.1871
C5_15 C 0.6631(3) 0.0832(2) 0.1228(2)
C6_15 C 0.6901(2) 0.0173(2) 0.1429(2)
O1_15 O 0.60588(18) 0.87832(15) 0.98127(15)
H7_15 H 0.5662 0.8670 0.9676
O1_16 O 0.39412(18) 0.12168(15) 0.01873(15)
H7_16 H 0.4338 0.1330 0.0324
N1_16 N 0.38293(19) 0.91754(17) 0.92860(19)
N3_16 N 0.2705(2) 0.99598(18) 0.8016(2)
H1_16 H 0.2539 0.9671 0.7724
C1_16 C 0.4122(3) 0.8580(2) 0.9468(3)
H2_16 H 0.4456 0.8569 0.9813
C2_16 C 0.3925(4) 0.7995(3) 0.9145(4)
H3_16 H 0.4124 0.7588 0.9288
C3_16 C 0.3473(4) 0.7971(2) 0.8646(4)
H4_16 H 0.3363 0.7563 0.8425
C4_16 C 0.3176(4) 0.8555(3) 0.8465(4)
H5_16 H 0.2835 0.8554 0.8129
C5_16 C 0.3369(3) 0.9168(2) 0.8772(2)
C6_16 C 0.3099(2) 0.9827(2) 0.8571(2)
loop_
_geom_bond_atom_site_label_1
_geom_bond_atom_site_label_2
_geom_bond_site_symmetry_1
_geom_bond_site_symmetry_2
Fe1 N1 1_555 1_555
N1 C1 1_555 1_555
N2 Fe1 1_555 1_555
N3 H1 1_555 1_555
N4 N3 1_555 1_555
N5 C8 1_555 1_555
N6 N7 1_555 1_555
N7 C9 1_555 1_555
C1 H2 1_555 1_555
C2 C1 1_555 1_555
H3 C2 1_555 1_555
C3 C2 1_555 1_555
H4 C3 1_555 1_555
C4 C3 1_555 1_555
H5 C4 1_555 1_555
C5 N1 1_555 1_555
C6 N2 1_555 1_555
C7 N2 1_555 1_555
C8 N6 1_555 1_555
C9 N5 1_555 1_555
H6 C9 1_555 1_555
Fe2 N4 1_555 1_555
Fe3 N7 1_555 1_555
N10 Fe1 1_555 1_555
N3 C6 1_555 1_555
N4 C7 1_555 1_555
N6 Fe2 1_555 1_555
C4 C5 1_555 1_555
C5 C6 1_555 1_555
C7 C8 1_555 1_555
H7 O1 1_555 1_555
Fe1_2 N1_2 1_555 1_555
N1_2 C1_2 1_555 1_555
N2_2 Fe1_2 1_555 1_555
N3_2 H1_2 1_555 1_555
N4_2 N3_2 1_555 1_555
N5_2 C8_2 1_555 1_555
N6_2 N7_2 1_555 1_555
N7_2 C9_2 1_555 1_555
C1_2 H2_2 1_555 1_555
C2_2 C1_2 1_555 1_555
H3_2 C2_2 1_555 1_555
C3_2 C2_2 1_555 1_555
H4_2 C3_2 1_555 1_555
C4_2 C3_2 1_555 1_555
H5_2 C4_2 1_555 1_555
C5_2 N1_2 1_555 1_555
C6_2 N2_2 1_555 1_555
C7_2 N2_2 1_555 1_555
C8_2 N6_2 1_555 1_555
C9_2 N5_2 1_555 1_555
H6_2 C9_2 1_555 1_555
O1_2 Fe1_2 1_555 1_555
H7_2 O1_2 1_555 1_555
H8_2 O1_2 1_555 1_555
Fe2_2 N4_2 1_555 1_555
Fe3_2 N7_2 1_555 1_555
N8_2 Fe1_2 1_555 1_555
N9_2 Fe1_2 1_555 1_555
N10_2 Fe1_2 1_555 1_555
N3_2 C6_2 1_555 1_555
N4_2 C7_2 1_555 1_555
N6_2 Fe2_2 1_555 1_555
C4_2 C5_2 1_555 1_555
C5_2 C6_2 1_555 1_555
C7_2 C8_2 1_555 1_555
Fe2 N1_3 1_555 1_555
N1_3 C1_3 1_555 1_555
N2_3 Fe2 1_555 1_555
N3_3 H1_3 1_555 1_555
N8_2 N3_3 1_555 1_555
N5_3 C8_3 1_555 1_555
C1_3 H2_3 1_555 1_555
C2_3 C1_3 1_555 1_555
H3_3 C2_3 1_555 1_555
C3_3 C2_3 1_555 1_555
H4_3 C3_3 1_555 1_555
C4_3 C3_3 1_555 1_555
H5_3 C4_3 1_555 1_555
C5_3 N1_3 1_555 1_555
C6_3 N2_3 1_555 1_555
C7_3 N2_3 1_555 1_555
C8_3 N9_2 1_555 1_555
O1_3 Fe2 1_555 1_555
H7_3 O1_3 1_555 1_555
H8_3 O1_3 1_555 1_555
N10_3 Fe2 1_555 1_555
N3_3 C6_3 1_555 1_555
N8_2 C7_3 1_555 1_555
C4_3 C5_3 1_555 1_555
C5_3 C6_3 1_555 1_555
C7_3 C8_3 1_555 1_555
N7_3 C9_3 1_555 1_555
H6_3 C9_3 1_555 1_555
Fe3_3 N7_3 1_555 1_555
Fe2_2 N1_4 1_555 1_555
N1_4 C1_4 1_555 1_555
N2_4 Fe2_2 1_555 1_555
N3_4 H1_4 1_555 1_555
N8 N3_4 1_555 1_555
N5_4 C8_4 1_555 1_555
N9 N7_4 1_555 1_555
N7_4 C9_4 1_555 1_555
C1_4 H2_4 1_555 1_555
C2_4 C1_4 1_555 1_555
H3_4 C2_4 1_555 1_555
C3_4 C2_4 1_555 1_555
H4_4 C3_4 1_555 1_555
C4_4 C3_4 1_555 1_555
H5_4 C4_4 1_555 1_555
C5_4 N1_4 1_555 1_555
C6_4 N2_4 1_555 1_555
C7_4 N2_4 1_555 1_555
C8_4 N9 1_555 1_555
C9_4 N5_4 1_555 1_555
H6_4 C9_4 1_555 1_555
O1_4 Fe2_2 1_555 1_555
H7_4 O1_4 1_555 1_555
H8_4 O1_4 1_555 1_555
Fe3_4 N7_4 1_555 1_555
N10_4 Fe2_2 1_555 1_555
N3_4 C6_4 1_555 1_555
N8 C7_4 1_555 1_555
C4_4 C5_4 1_555 1_555
C5_4 C6_4 1_555 1_555
C7_4 C8_4 1_555 1_555
N2_5 Fe1_3 1_555 1_555
N5_5 C8_5 1_555 1_555
N6_3 N7_5 1_555 1_555
N7_5 C9_5 1_555 1_555
C7_5 N2_5 1_555 1_555
C8_5 N6_3 1_555 1_555
C9_5 N5_5 1_555 1_555
H6_5 C9_5 1_555 1_555
O1_5 Fe1_3 1_555 1_555
H7_5 O1_5 1_555 1_555
H8_5 O1_5 1_555 1_555
Fe2_3 N4_3 1_555 1_555
Fe3_5 N7_5 1_555 1_555
N10_5 Fe1_3 1_555 1_555
N4_3 C7_5 1_555 1_555
N6_3 Fe2_3 1_555 1_555
C7_5 C8_5 1_555 1_555
N1_5 C1_5 1_555 1_555
N3_5 H1_5 1_555 1_555
C1_5 H2_5 1_555 1_555
C2_5 C1_5 1_555 1_555
H3_5 C2_5 1_555 1_555
C3_5 C2_5 1_555 1_555
H4_5 C3_5 1_555 1_555
C4_5 C3_5 1_555 1_555
H5_5 C4_5 1_555 1_555
C5_5 N1_5 1_555 1_555
N3_5 C6_5 1_555 1_555
C4_5 C5_5 1_555 1_555
C5_5 C6_5 1_555 1_555
N2_6 Fe1_4 1_555 1_555
N5_6 C8_6 1_555 1_555
N6_4 N7_6 1_555 1_555
N7_6 C9_6 1_555 1_555
C7_6 N2_6 1_555 1_555
C8_6 N6_4 1_555 1_555
C9_6 N5_6 1_555 1_555
H6_6 C9_6 1_555 1_555
Fe2_4 N4_4 1_555 1_555
Fe3_6 N7_6 1_555 1_555
N10_6 Fe1_4 1_555 1_555
N4_4 C7_6 1_555 1_555
N6_4 Fe2_4 1_555 1_555
C7_6 C8_6 1_555 1_555
Fe2_3 N1_6 1_555 1_555
N1_6 C1_6 1_555 1_555
N2_7 Fe2_3 1_555 1_555
N3_6 H1_6 1_555 1_555
N8_4 N3_6 1_555 1_555
N5_7 C8_7 1_555 1_555
N9_4 N7_7 1_555 1_555
N7_7 C9_7 1_555 1_555
C1_6 H2_6 1_555 1_555
C2_6 C1_6 1_555 1_555
H3_6 C2_6 1_555 1_555
C3_6 C2_6 1_555 1_555
H4_6 C3_6 1_555 1_555
C4_6 C3_6 1_555 1_555
H5_6 C4_6 1_555 1_555
C5_6 N1_6 1_555 1_555
C6_6 N2_7 1_555 1_555
C7_7 N2_7 1_555 1_555
C8_7 N9_4 1_555 1_555
C9_7 N5_7 1_555 1_555
H6_7 C9_7 1_555 1_555
O1_6 Fe2_3 1_555 1_555
H7_6 O1_6 1_555 1_555
H8_7 O1_6 1_555 1_555
Fe3_7 N7_7 1_555 1_555
N10_7 Fe2_3 1_555 1_555
N3_6 C6_6 1_555 1_555
N8_4 C7_7 1_555 1_555
C4_6 C5_6 1_555 1_555
C5_6 C6_6 1_555 1_555
C7_7 C8_7 1_555 1_555
N7_8 C9_8 1_555 1_555
H6_8 C9_8 1_555 1_555
Fe3_8 N7_8 1_555 1_555
Fe2_4 N1_7 1_555 1_555
N1_7 C1_7 1_555 1_555
N2_8 Fe2_4 1_555 1_555
N3_7 H1_7 1_555 1_555
N8_3 N3_7 1_555 1_555
N5_8 C8_8 1_555 1_555
C1_7 H2_7 1_555 1_555
C2_7 C1_7 1_555 1_555
H3_7 C2_7 1_555 1_555
C3_7 C2_7 1_555 1_555
H4_7 C3_7 1_555 1_555
C4_7 C3_7 1_555 1_555
H5_7 C4_7 1_555 1_555
C5_7 N1_7 1_555 1_555
C6_7 N2_8 1_555 1_555
C7_8 N2_8 1_555 1_555
C8_8 N9_3 1_555 1_555
O1_7 Fe2_4 1_555 1_555
H7_7 O1_7 1_555 1_555
H8_8 O1_7 1_555 1_555
N10_8 Fe2_4 1_555 1_555
N3_7 C6_7 1_555 1_555
N8_3 C7_8 1_555 1_555
C4_7 C5_7 1_555 1_555
C5_7 C6_7 1_555 1_555
C7_8 C8_8 1_555 1_555
H7_8 O1_8 1_555 1_555
Fe3_4 N1_8 1_555 1_555
N1_8 C1_8 1_555 1_555
N2_9 Fe3_4 1_555 1_555
N3_8 H1_8 1_555 1_555
N4_5 N3_8 1_555 1_555
N5_9 C8_9 1_555 1_555
N6_5 N10_7 1_555 1_555
N10_7 C9_9 1_555 1_555
C1_8 H2_8 1_555 1_555
C2_8 C1_8 1_555 1_555
H3_8 C2_8 1_555 1_555
C3_8 C2_8 1_555 1_555
H4_8 C3_8 1_555 1_555
C4_8 C3_8 1_555 1_555
H5_8 C4_8 1_555 1_555
C5_8 N1_8 1_555 1_555
C6_8 N2_9 1_555 1_555
C7_9 N2_9 1_555 1_555
C8_9 N6_5 1_555 1_555
C9_9 N5_9 1_555 1_555
H6_9 C9_9 1_555 1_555
Fe3_5 N4_5 1_555 1_555
N3_8 C6_8 1_555 1_555
N4_5 C7_9 1_555 1_555
N6_5 Fe3_5 1_555 1_555
C4_8 C5_8 1_555 1_555
C5_8 C6_8 1_555 1_555
C7_9 C8_9 1_555 1_555
Fe3_3 N1_9 1_555 1_555
N1_9 C1_9 1_555 1_555
N2_10 Fe3_3 1_555 1_555
N3_9 H1_9 1_555 1_555
N4_6 N3_9 1_555 1_555
N5_10 C8_10 1_555 1_555
N6_6 N10_8 1_555 1_555
N10_8 C9_10 1_555 1_555
C1_9 H2_9 1_555 1_555
C2_9 C1_9 1_555 1_555
H3_9 C2_9 1_555 1_555
C3_9 C2_9 1_555 1_555
H4_9 C3_9 1_555 1_555
C4_9 C3_9 1_555 1_555
H5_9 C4_9 1_555 1_555
C5_9 N1_9 1_555 1_555
C6_9 N2_10 1_555 1_555
C7_10 N2_10 1_555 1_555
C8_10 N6_6 1_555 1_555
C9_10 N5_10 1_555 1_555
H6_10 C9_10 1_555 1_555
O1_9 Fe3_3 1_555 1_555
H7_9 O1_9 1_555 1_555
H8_10 O1_9 1_555 1_555
Fe3_6 N4_6 1_555 1_555
N8_6 Fe3_3 1_555 1_555
N9_6 Fe3_3 1_555 1_555
N3_9 C6_9 1_555 1_555
N4_6 C7_10 1_555 1_555
N6_6 Fe3_6 1_555 1_555
C4_9 C5_9 1_555 1_555
C5_9 C6_9 1_555 1_555
C7_10 C8_10 1_555 1_555
N10_2 C9_11 1_555 1_555
H6_11 C9_11 1_555 1_555
Fe3_5 N1_10 1_555 1_555
N1_10 C1_10 1_555 1_555
N2_11 Fe3_5 1_555 1_555
N3_10 H1_10 1_555 1_555
N8_6 N3_10 1_555 1_555
N5_11 C8_11 1_555 1_555
C1_10 H2_10 1_555 1_555
C2_10 C1_10 1_555 1_555
H3_10 C2_10 1_555 1_555
C3_10 C2_10 1_555 1_555
H4_10 C3_10 1_555 1_555
C4_10 C3_10 1_555 1_555
H5_10 C4_10 1_555 1_555
C5_10 N1_10 1_555 1_555
C6_10 N2_11 1_555 1_555
C7_11 N2_11 1_555 1_555
C8_11 N9_6 1_555 1_555
O1_10 Fe3_5 1_555 1_555
H7_10 O1_10 1_555 1_555
H8_11 O1_10 1_555 1_555
N3_10 C6_10 1_555 1_555
N8_6 C7_11 1_555 1_555
C4_10 C5_10 1_555 1_555
C5_10 C6_10 1_555 1_555
C7_11 C8_11 1_555 1_555
Fe3_6 N1_11 1_555 1_555
N1_11 C1_11 1_555 1_555
N2_12 Fe3_6 1_555 1_555
N3_11 H1_11 1_555 1_555
N8_5 N3_11 1_555 1_555
N5_12 C8_12 1_555 1_555
N9_5 N10 1_555 1_555
N10 C9_12 1_555 1_555
C1_11 H2_11 1_555 1_555
C2_11 C1_11 1_555 1_555
H3_11 C2_11 1_555 1_555
C3_11 C2_11 1_555 1_555
H4_11 C3_11 1_555 1_555
C4_11 C3_11 1_555 1_555
H5_11 C4_11 1_555 1_555
C5_11 N1_11 1_555 1_555
C6_11 N2_12 1_555 1_555
C7_12 N2_12 1_555 1_555
C8_12 N9_5 1_555 1_555
C9_12 N5_12 1_555 1_555
H6_12 C9_12 1_555 1_555
O1_11 Fe3_6 1_555 1_555
H7_11 O1_11 1_555 1_555
H8_12 O1_11 1_555 1_555
N3_11 C6_11 1_555 1_555
N8_5 C7_12 1_555 1_555
C4_11 C5_11 1_555 1_555
C5_11 C6_11 1_555 1_555
C7_12 C8_12 1_555 1_555
N1_12 C1_12 1_555 1_555
N3_12 H1_12 1_555 1_555
C1_12 H2_12 1_555 1_555
C2_12 C1_12 1_555 1_555
H3_12 C2_12 1_555 1_555
C3_12 C2_12 1_555 1_555
H4_12 C3_12 1_555 1_555
C4_12 C3_12 1_555 1_555
H5_12 C4_12 1_555 1_555
C5_12 N1_12 1_555 1_555
N3_12 C6_12 1_555 1_555
C4_12 C5_12 1_555 1_555
C5_12 C6_12 1_555 1_555
N2_13 Fe3_8 1_555 1_555
N5_13 C8_13 1_555 1_555
N6_7 N10_3 1_555 1_555
N10_3 C9_13 1_555 1_555
C7_13 N2_13 1_555 1_555
C8_13 N6_7 1_555 1_555
C9_13 N5_13 1_555 1_555
H6_13 C9_13 1_555 1_555
O1_12 Fe3_8 1_555 1_555
H7_12 O1_12 1_555 1_555
H8_13 O1_12 1_555 1_555
Fe3 N4_7 1_555 1_555
N4_7 C7_13 1_555 1_555
N6_7 Fe3 1_555 1_555
C7_13 C8_13 1_555 1_555
N2_14 Fe3_7 1_555 1_555
N5_14 C8_14 1_555 1_555
N6_8 N10_4 1_555 1_555
N10_4 C9_14 1_555 1_555
C7_14 N2_14 1_555 1_555
C8_14 N6_8 1_555 1_555
C9_14 N5_14 1_555 1_555
H6_14 C9_14 1_555 1_555
Fe3_2 N4_8 1_555 1_555
N4_8 C7_14 1_555 1_555
N6_8 Fe3_2 1_555 1_555
C7_14 C8_14 1_555 1_555
Fe3 N1_13 1_555 1_555
N1_13 C1_13 1_555 1_555
N2_15 Fe3 1_555 1_555
N3_13 H1_13 1_555 1_555
N8_8 N3_13 1_555 1_555
N5_15 C8_15 1_555 1_555
N9_8 N10_6 1_555 1_555
N10_6 C9_15 1_555 1_555
C1_13 H2_13 1_555 1_555
C2_13 C1_13 1_555 1_555
H3_13 C2_13 1_555 1_555
C3_13 C2_13 1_555 1_555
H4_13 C3_13 1_555 1_555
C4_13 C3_13 1_555 1_555
H5_13 C4_13 1_555 1_555
C5_13 N1_13 1_555 1_555
C6_13 N2_15 1_555 1_555
C7_15 N2_15 1_555 1_555
C8_15 N9_8 1_555 1_555
C9_15 N5_15 1_555 1_555
H6_15 C9_15 1_555 1_555
O1_13 Fe3 1_555 1_555
H7_13 O1_13 1_555 1_555
H8_15 O1_13 1_555 1_555
N3_13 C6_13 1_555 1_555
N8_8 C7_15 1_555 1_555
C4_13 C5_13 1_555 1_555
C5_13 C6_13 1_555 1_555
C7_15 C8_15 1_555 1_555
Fe3_2 N1_14 1_555 1_555
N1_14 C1_14 1_555 1_555
N2_16 Fe3_2 1_555 1_555
N3_14 H1_14 1_555 1_555
N8_7 N3_14 1_555 1_555
N5_16 C8_16 1_555 1_555
C1_14 H2_14 1_555 1_555
C2_14 C1_14 1_555 1_555
H3_14 C2_14 1_555 1_555
C3_14 C2_14 1_555 1_555
H4_14 C3_14 1_555 1_555
C4_14 C3_14 1_555 1_555
H5_14 C4_14 1_555 1_555
C5_14 N1_14 1_555 1_555
C6_14 N2_16 1_555 1_555
C7_16 N2_16 1_555 1_555
C8_16 N9_7 1_555 1_555
O1_14 Fe3_2 1_555 1_555
H7_14 O1_14 1_555 1_555
H8_16 O1_14 1_555 1_555
N3_14 C6_14 1_555 1_555
N8_7 C7_16 1_555 1_555
C4_14 C5_14 1_555 1_555
C5_14 C6_14 1_555 1_555
C7_16 C8_16 1_555 1_555
N10_5 C9_16 1_555 1_555
H6_16 C9_16 1_555 1_555
N1_15 C1_15 1_555 1_555
N3_15 H1_15 1_555 1_555
C1_15 H2_15 1_555 1_555
C2_15 C1_15 1_555 1_555
H3_15 C2_15 1_555 1_555
C3_15 C2_15 1_555 1_555
H4_15 C3_15 1_555 1_555
C4_15 C3_15 1_555 1_555
H5_15 C4_15 1_555 1_555
C5_15 N1_15 1_555 1_555
N3_15 C6_15 1_555 1_555
C4_15 C5_15 1_555 1_555
C5_15 C6_15 1_555 1_555
H7_15 O1_15 1_555 1_555
H7_16 O1_16 1_555 1_555
N1_16 C1_16 1_555 1_555
N3_16 H1_16 1_555 1_555
C1_16 H2_16 1_555 1_555
C2_16 C1_16 1_555 1_555
H3_16 C2_16 1_555 1_555
C3_16 C2_16 1_555 1_555
H4_16 C3_16 1_555 1_555
C4_16 C3_16 1_555 1_555
H5_16 C4_16 1_555 1_555
C5_16 N1_16 1_555 1_555
N3_16 C6_16 1_555 1_555
C4_16 C5_16 1_555 1_555
C5_16 C6_16 1_555 1_555

#END
