
###############################################################################
#
# This file contains modified crystal structure data generated from the
# MOF subset of the Cambridge Structural Database (CSD) v543 
# hosted by the Cambridge Crystallographic Data Centre (CCDC).
#
# This work is licensed under the Creative Commons
# Attribution-NonCommercial-ShareAlike 4.0 International License.
# To view a copy of this license, visit
# http://creativecommons.org/licenses/by-nc-sa/4.0/
# or send a letter to
# Creative Commons, PO Box 1866, Mountain View, CA 94042, USA.
#
# CIF created using the CSD Python API on 29 September 2022
# The structure has been converted into the P1 space group
# The structure has a 3D framework
# The original CSD entry MUTFOZ is in the orthorhombic crystal system
# The framework has been calculated to contain at least 10.0% void space
# The void calculation uses a probe of radius 1.32A, grid spacing 0.4
#
###############################################################################

data_MUTFOZ
_chemical_formula_moiety         '(C200 H184 Co8 N32 O40)n'
_symmetry_cell_setting           triclinic
_symmetry_space_group_name_H-M   'P 1'
_symmetry_Int_Tables_number      1
_space_group_name_Hall           'P 1'
loop_
_symmetry_equiv_pos_site_id
_symmetry_equiv_pos_as_xyz
1 x,y,z
_cell_length_a                   32.927(4)
_cell_length_b                   11.5996(13)
_cell_length_c                   15.2130(17)
_cell_angle_alpha                90
_cell_angle_beta                 90
_cell_angle_gamma                90
_cell_volume                     5810.45
loop_
_atom_site_label
_atom_site_type_symbol
_atom_site_fract_x
_atom_site_fract_y
_atom_site_fract_z
C18 C 0.00145(19) 0.3879(5) 0.0879(4)
H9 H 0.0272 0.4017 0.1107
C39 C 0.05024(18) 0.5710(6) 0.0096(4)
H32 H 0.0609 0.5280 0.0557
N5 N 0.08816(11) 0.2060(3) 0.7550(2)
N6 N 0.08166(11) 0.1391(3) 0.6829(2)
H33 H 0.1005 0.1142 0.6486
C41 C 0.05210(14) 0.2230(5) 0.7895(3)
C42 C 0.02232(12) 0.1682(4) 0.7416(3)
C43 C 0.04223(13) 0.1174(4) 0.6725(3)
C44 C 0.04614(17) 0.2970(7) 0.8690(4)
H34 H 0.0666 0.3559 0.8703
H35 H 0.0482 0.2504 0.9209
H36 H 0.0198 0.3321 0.8667
C45 C 0.02648(18) 0.0504(6) 0.5951(4)
H37 H 0.0488 0.0272 0.5586
H38 H 0.0083 0.0980 0.5616
Co4 Co 0.14199(2) 0.26451(5) 0.79573(4)
O6 O 0.14558(10) 0.7187(3) 0.4207(2)
O7 O 0.11946(12) 0.8860(3) 0.4602(2)
O8 O 0.08065(11) 0.8314(3) 0.7728(2)
C26 C 0.13053(14) 0.7869(4) 0.4771(3)
C27 C 0.12464(14) 0.7387(4) 0.5675(3)
C28 C 0.10057(16) 0.7607(4) 0.7160(3)
C29 C 0.13941(13) 0.6296(4) 0.5885(3)
H24 H 0.1521 0.5854 0.5456
C30 C 0.10560(14) 0.8030(4) 0.6311(3)
H25 H 0.0959 0.8760 0.6173
C31 C 0.11589(15) 0.6518(4) 0.7372(3)
H26 H 0.1132 0.6228 0.7939
C32 C 0.13533(14) 0.5869(4) 0.6720(3)
C33 C 0.01220(14) 0.5466(4) 0.9806(3)
C34 C 0.06082(18) 0.7222(4) 0.9038(3)
C35 C 0.08677(18) 0.8154(5) 0.8649(3)
H27 H 0.1151 0.7967 0.8751
H28 H 0.0810 0.8874 0.8949
C36 C 0.07387(19) 0.6581(6) 0.9728(4)
H29 H 0.0994 0.6728 0.9963
C38 C 0.0225(2) 0.6994(6) 0.8755(4)
H31 H 0.0118 0.7434 0.8299
C40 C 0.15106(18) 0.4692(5) 0.6922(3)
O9 O 0.14298(11) 0.4285(3) 0.7654(2)
O10 O 0.1730(2) 0.4211(5) 0.6370(3)
Co5 Co 0.14199(2) 0.73549(5) 0.29573(4)
Co1 Co 0.85801(2) 0.26451(5) 0.70427(4)
O1 O 0.85442(10) 0.2813(3) 0.5793(2)
O2 O 0.88054(12) 0.1140(3) 0.5398(2)
O3 O 0.91935(11) 0.1686(3) 0.2272(2)
N1 N 0.91184(11) 0.2060(3) 0.7450(2)
N2 N 0.91834(11) 0.1391(3) 0.8171(2)
H1 H 0.8995 0.1142 0.8514
N3 N 0.81296(10) 0.1746(3) 0.7588(2)
N4 N 0.78881(13) 0.2214(3) 0.8208(3)
H2 H 0.7922 0.2889 0.8430
C1 C 0.86947(14) 0.2131(4) 0.5229(3)
C2 C 0.87536(14) 0.2613(4) 0.4325(3)
C3 C 0.94790(14) 0.2230(5) 0.7105(3)
C4 C 0.89943(16) 0.2393(4) 0.2840(3)
C5 C 0.76290(12) 0.0510(4) 0.7935(3)
C6 C 0.86059(13) 0.3704(4) 0.4115(3)
H3 H 0.8479 0.4146 0.4544
C7 C 0.89440(14) 0.1970(4) 0.3689(3)
H4 H 0.9041 0.1240 0.3827
C8 C 0.97768(12) 0.1682(4) 0.7584(3)
C9 C 0.88411(15) 0.3482(4) 0.2628(3)
H5 H 0.8868 0.3772 0.2061
C10 C 0.86467(14) 0.4131(4) 0.3280(3)
C11 C 0.95777(13) 0.1174(4) 0.8275(3)
C12 C 0.98780(14) 0.4534(4) 0.0194(3)
C13 C 0.79738(14) 0.0695(4) 0.7429(3)
C14 C 0.75877(15) 0.1487(5) 0.8433(4)
C15 C 0.93918(18) 0.2778(4) 0.0962(3)
C16 C 0.91323(18) 0.1846(5) 0.1351(3)
H6 H 0.8849 0.2033 0.1249
H7 H 0.9190 0.1126 0.1051
C17 C 0.92613(19) 0.3419(6) 0.0272(4)
H8 H 0.9006 0.3272 0.0037
C19 C 0.9775(2) 0.3006(6) 0.1245(4)
H10 H 0.9882 0.2566 0.1701
C21 C 0.95386(17) 0.2970(7) 0.6310(4)
H12 H 0.9334 0.3559 0.6297
H13 H 0.9518 0.2504 0.5791
H14 H 0.9802 0.3321 0.6333
C22 C 0.97352(18) 0.0504(6) 0.9049(4)
H15 H 0.9512 0.0272 0.9414
H16 H 0.9917 0.0980 0.9384
H18 H 0.8283 0.0326 0.6323
C24 C 0.7273(3) 0.1769(8) 0.9109(7)
H21 H 0.7018 0.1437 0.8940
H22 H 0.7245 0.2591 0.9155
H23 H 0.7355 0.1460 0.9668
C25 C 0.84894(18) 0.5308(5) 0.3078(3)
O4 O 0.85702(11) 0.5715(3) 0.2346(2)
O5 O 0.8270(2) 0.5789(5) 0.3630(3)
C49 C 0.6828(2) 0.0104(6) 0.6805(5)
H42 H 0.7025 0.0644 0.6588
H43 H 0.6614 0.0512 0.7100
Co6 Co 0.85801(2) 0.73549(5) 0.20427(4)
O13 O 0.85702(11) 0.4285(3) 0.7346(2)
C20 C 0.94976(18) 0.4290(6) 0.9904(4)
H11 H 0.9391 0.4720 0.9443
C37 C 0.99855(19) 0.6121(5) 0.9121(4)
H30 H 0.9728 0.5983 0.8893
H17 H 0.5122 0.0166 0.8845
H39 H 0.4878 0.0166 0.6155
C23 C 0.3172(2) 0.0104(6) 0.8195(5)
H19 H 0.2975 0.0644 0.8412
H20 H 0.3386 0.0512 0.7900
N7 N 0.18704(10) 0.1746(3) 0.7412(2)
N8 N 0.21119(13) 0.2214(3) 0.6792(3)
H40 H 0.2078 0.2889 0.6570
C46 C 0.23710(12) 0.0510(4) 0.7065(3)
C47 C 0.20262(14) 0.0695(4) 0.7571(3)
C48 C 0.24123(15) 0.1487(5) 0.6567(4)
H41 H 0.1717 0.0326 0.8677
C50 C 0.2727(3) 0.1769(8) 0.5891(7)
H44 H 0.2982 0.1437 0.6060
H45 H 0.2755 0.2591 0.5845
H46 H 0.2645 0.1460 0.5332
O11 O 0.14558(10) 0.2813(3) 0.9207(2)
O3_2 O 0.08065(11) 0.1686(3) 0.2728(2)
C2_2 C 0.12464(14) 0.2613(4) 0.0675(3)
C4_2 C 0.10057(16) 0.2393(4) 0.2160(3)
C6_2 C 0.13941(13) 0.3704(4) 0.0885(3)
H3_2 H 0.1521 0.4146 0.0456
C7_2 C 0.10560(14) 0.1970(4) 0.1311(3)
H4_2 H 0.0959 0.1240 0.1173
C9_2 C 0.11589(15) 0.3482(4) 0.2372(3)
H5_2 H 0.1132 0.3772 0.2939
C10_2 C 0.13533(14) 0.4131(4) 0.1720(3)
C12_2 C 0.01220(14) 0.4534(4) 0.4806(3)
C15_2 C 0.06082(18) 0.2778(4) 0.4038(3)
C16_2 C 0.08677(18) 0.1846(5) 0.3649(3)
H6_2 H 0.1151 0.2033 0.3751
H7_2 H 0.0810 0.1126 0.3949
C17_2 C 0.07387(19) 0.3419(6) 0.4728(4)
H8_2 H 0.0994 0.3272 0.4963
C19_2 C 0.0225(2) 0.3006(6) 0.3755(4)
H10_2 H 0.0118 0.2566 0.3299
C20_2 C 0.05024(18) 0.4290(6) 0.5096(4)
H11_2 H 0.0609 0.4720 0.5557
C25_2 C 0.15106(18) 0.5308(5) 0.1922(3)
O4_2 O 0.14298(11) 0.5715(3) 0.2654(2)
O5_2 O 0.1730(2) 0.5789(5) 0.1370(3)
C37_2 C 0.00145(19) 0.6121(5) 0.5879(4)
H30_2 H 0.0272 0.5983 0.6107
O2_2 O 0.11946(12) 0.1140(3) 0.9602(2)
C1_2 C 0.13053(14) 0.2131(4) 0.9771(3)
O6_2 O 0.85442(10) 0.7187(3) 0.0793(2)
O7_2 O 0.88054(12) 0.8860(3) 0.0398(2)
C26_2 C 0.86947(14) 0.7869(4) 0.0229(3)
C18_2 C 0.99855(19) 0.3879(5) 0.4121(4)
H9_2 H 0.9728 0.4017 0.3893
O8_2 O 0.91935(11) 0.8314(3) 0.7272(2)
C27_2 C 0.87536(14) 0.7387(4) 0.9325(3)
C28_2 C 0.89943(16) 0.7607(4) 0.7840(3)
C29_2 C 0.86059(13) 0.6296(4) 0.9115(3)
H24_2 H 0.8479 0.5854 0.9544
C30_2 C 0.89440(14) 0.8030(4) 0.8689(3)
H25_2 H 0.9041 0.8760 0.8827
C31_2 C 0.88411(15) 0.6518(4) 0.7628(3)
H26_2 H 0.8868 0.6228 0.7061
C32_2 C 0.86467(14) 0.5869(4) 0.8280(3)
C33_2 C 0.98780(14) 0.5466(4) 0.5194(3)
C34_2 C 0.93918(18) 0.7222(4) 0.5962(3)
C35_2 C 0.91323(18) 0.8154(5) 0.6351(3)
H27_2 H 0.8849 0.7967 0.6249
H28_2 H 0.9190 0.8874 0.6051
C36_2 C 0.92613(19) 0.6581(6) 0.5272(4)
H29_2 H 0.9006 0.6728 0.5037
C38_2 C 0.9775(2) 0.6994(6) 0.6245(4)
H31_2 H 0.9882 0.7434 0.6701
C39_2 C 0.94976(18) 0.5710(6) 0.4904(4)
H32_2 H 0.9391 0.5280 0.4443
C40_2 C 0.84894(18) 0.4692(5) 0.8078(3)
O10_2 O 0.8270(2) 0.4211(5) 0.8630(3)
N1_2 N 0.08816(11) 0.7940(3) 0.2550(2)
N2_2 N 0.08166(11) 0.8609(3) 0.1829(2)
H1_2 H 0.1005 0.8858 0.1486
N3_2 N 0.18704(10) 0.8254(3) 0.2412(2)
N4_2 N 0.21119(13) 0.7786(3) 0.1792(3)
H2_2 H 0.2078 0.7111 0.1570
C3_2 C 0.05210(14) 0.7770(5) 0.2895(3)
C5_2 C 0.23710(12) 0.9490(4) 0.2065(3)
C8_2 C 0.02232(12) 0.8318(4) 0.2416(3)
C11_2 C 0.04223(13) 0.8826(4) 0.1725(3)
C13_2 C 0.20262(14) 0.9305(4) 0.2571(3)
C14_2 C 0.24123(15) 0.8513(5) 0.1567(4)
C21_2 C 0.04614(17) 0.7030(7) 0.3690(4)
H12_2 H 0.0666 0.6441 0.3703
H13_2 H 0.0482 0.7496 0.4209
H14_2 H 0.0198 0.6679 0.3667
C22_2 C 0.02648(18) 0.9496(6) 0.0951(4)
H15_2 H 0.0488 0.9728 0.0586
H16_2 H 0.0083 0.9020 0.0616
H18_2 H 0.1717 0.9674 0.3677
C24_2 C 0.2727(3) 0.8231(8) 0.0891(7)
H21_2 H 0.2982 0.8563 0.1060
H22_2 H 0.2755 0.7409 0.0845
H23_2 H 0.2645 0.8540 0.0332
C49_2 C 0.3172(2) 0.9896(6) 0.3195(5)
H42_2 H 0.2975 0.9356 0.3412
H43_2 H 0.3386 0.9488 0.2900
N5_2 N 0.91184(11) 0.7940(3) 0.2450(2)
N6_2 N 0.91834(11) 0.8609(3) 0.3171(2)
H33_2 H 0.8995 0.8858 0.3514
C41_2 C 0.94790(14) 0.7770(5) 0.2105(3)
C42_2 C 0.97768(12) 0.8318(4) 0.2584(3)
C43_2 C 0.95777(13) 0.8826(4) 0.3275(3)
C44_2 C 0.95386(17) 0.7030(7) 0.1310(4)
H34_2 H 0.9334 0.6441 0.1297
H35_2 H 0.9518 0.7496 0.0791
H36_2 H 0.9802 0.6679 0.1333
C45_2 C 0.97352(18) 0.9496(6) 0.4049(4)
H37_2 H 0.9512 0.9728 0.4414
H38_2 H 0.9917 0.9020 0.4384
H17_2 H 0.4878 0.9834 0.1155
H39_2 H 0.5122 0.9834 0.3845
C23_2 C 0.6828(2) 0.9896(6) 0.1805(5)
H19_2 H 0.7025 0.9356 0.1588
H20_2 H 0.6614 0.9488 0.2100
N7_2 N 0.81296(10) 0.8254(3) 0.2588(2)
N8_2 N 0.78881(13) 0.7786(3) 0.3208(3)
H40_2 H 0.7922 0.7111 0.3430
C46_2 C 0.76290(12) 0.9490(4) 0.2935(3)
C47_2 C 0.79738(14) 0.9305(4) 0.2429(3)
C48_2 C 0.75877(15) 0.8513(5) 0.3433(4)
H41_2 H 0.8283 0.9674 0.1323
C50_2 C 0.7273(3) 0.8231(8) 0.4109(7)
H44_2 H 0.7018 0.8563 0.3940
H45_2 H 0.7245 0.7409 0.4155
H46_2 H 0.7355 0.8540 0.4668
H39_3 H 0.0122 0.9834 0.6155
H17_3 H 0.9878 0.9834 0.8845
C23_3 C 0.8172(2) 0.9896(6) 0.6805(5)
H19_3 H 0.7975 0.9356 0.6588
H20_3 H 0.8386 0.9488 0.7100
N7_3 N 0.68704(10) 0.8254(3) 0.7588(2)
N8_3 N 0.71119(13) 0.7786(3) 0.8208(3)
H40_3 H 0.7078 0.7111 0.8430
C46_3 C 0.73710(12) 0.9490(4) 0.7935(3)
C47_3 C 0.70262(14) 0.9305(4) 0.7429(3)
C48_3 C 0.74123(15) 0.8513(5) 0.8433(4)
H41_3 H 0.6717 0.9674 0.6323
C50_3 C 0.7727(3) 0.8231(8) 0.9109(7)
H44_3 H 0.7982 0.8563 0.8940
H45_3 H 0.7755 0.7409 0.9155
H46_3 H 0.7645 0.8540 0.9668
Co2 Co 0.64199(2) 0.73549(5) 0.70427(4)
O11_2 O 0.64558(10) 0.7187(3) 0.5793(2)
N9 N 0.58816(11) 0.7940(3) 0.7450(2)
O12 O 0.64298(11) 0.5715(3) 0.7346(2)
O2_3 O 0.61946(12) 0.8860(3) 0.5398(2)
O3_3 O 0.58065(11) 0.8314(3) 0.2272(2)
N2_3 N 0.58166(11) 0.8609(3) 0.8171(2)
H1_3 H 0.6005 0.8858 0.8514
C1_3 C 0.63053(14) 0.7869(4) 0.5229(3)
C2_3 C 0.62464(14) 0.7387(4) 0.4325(3)
C3_3 C 0.55210(14) 0.7770(5) 0.7105(3)
C4_3 C 0.60057(16) 0.7607(4) 0.2840(3)
C6_3 C 0.63941(13) 0.6296(4) 0.4115(3)
H3_3 H 0.6521 0.5854 0.4544
C7_3 C 0.60560(14) 0.8030(4) 0.3689(3)
H4_3 H 0.5959 0.8760 0.3827
C8_3 C 0.52232(12) 0.8318(4) 0.7584(3)
C9_3 C 0.61589(15) 0.6518(4) 0.2628(3)
H5_3 H 0.6132 0.6228 0.2061
C10_3 C 0.63533(14) 0.5869(4) 0.3280(3)
C11_3 C 0.54223(13) 0.8826(4) 0.8275(3)
C12_3 C 0.51220(14) 0.5466(4) 0.0194(3)
C15_3 C 0.56082(18) 0.7222(4) 0.0962(3)
C16_3 C 0.58677(18) 0.8154(5) 0.1351(3)
H6_3 H 0.6151 0.7967 0.1249
H7_3 H 0.5810 0.8874 0.1051
C17_3 C 0.57387(19) 0.6581(6) 0.0272(4)
H8_3 H 0.5994 0.6728 0.0037
C18_3 C 0.49855(19) 0.6121(5) 0.0879(4)
H9_3 H 0.4728 0.5983 0.1107
C19_3 C 0.5225(2) 0.6994(6) 0.1245(4)
H10_3 H 0.5118 0.7434 0.1701
C21_3 C 0.54614(17) 0.7030(7) 0.6310(4)
H12_3 H 0.5666 0.6441 0.6297
H13_3 H 0.5482 0.7496 0.5791
H14_3 H 0.5198 0.6679 0.6333
C22_3 C 0.52648(18) 0.9496(6) 0.9049(4)
H15_3 H 0.5488 0.9728 0.9414
H16_3 H 0.5083 0.9020 0.9384
C25_3 C 0.65106(18) 0.4692(5) 0.3078(3)
O4_3 O 0.64298(11) 0.4285(3) 0.2346(2)
O5_3 O 0.6730(2) 0.4211(5) 0.3630(3)
C39_3 C 0.44976(18) 0.4290(6) 0.0096(4)
H32_3 H 0.4391 0.4720 0.0557
N5_3 N 0.41184(11) 0.7940(3) 0.7550(2)
N6_3 N 0.41834(11) 0.8609(3) 0.6829(2)
H33_3 H 0.3995 0.8858 0.6486
C41_3 C 0.44790(14) 0.7770(5) 0.7895(3)
C42_3 C 0.47768(12) 0.8318(4) 0.7416(3)
C43_3 C 0.45777(13) 0.8826(4) 0.6725(3)
C44_3 C 0.45386(17) 0.7030(7) 0.8690(4)
H34_3 H 0.4334 0.6441 0.8703
H35_3 H 0.4518 0.7496 0.9209
H36_3 H 0.4802 0.6679 0.8667
C45_3 C 0.47352(18) 0.9496(6) 0.5951(4)
H37_3 H 0.4512 0.9728 0.5586
H38_3 H 0.4917 0.9020 0.5616
Co4_2 Co 0.35801(2) 0.73549(5) 0.79573(4)
Co6_2 Co 0.64199(2) 0.26451(5) 0.20427(4)
C20_3 C 0.55024(18) 0.5710(6) 0.9904(4)
H11_3 H 0.5609 0.5280 0.9443
O6_3 O 0.35442(10) 0.2813(3) 0.4207(2)
O7_3 O 0.38054(12) 0.1140(3) 0.4602(2)
O8_3 O 0.41935(11) 0.1686(3) 0.7728(2)
C26_3 C 0.36947(14) 0.2131(4) 0.4771(3)
C27_3 C 0.37536(14) 0.2613(4) 0.5675(3)
C28_3 C 0.39943(16) 0.2393(4) 0.7160(3)
C29_3 C 0.36059(13) 0.3704(4) 0.5885(3)
H24_3 H 0.3479 0.4146 0.5456
C30_3 C 0.39440(14) 0.1970(4) 0.6311(3)
H25_3 H 0.4041 0.1240 0.6173
C31_3 C 0.38411(15) 0.3482(4) 0.7372(3)
H26_3 H 0.3868 0.3772 0.7939
C32_3 C 0.36467(14) 0.4131(4) 0.6720(3)
C33_3 C 0.48780(14) 0.4534(4) 0.9806(3)
C34_3 C 0.43918(18) 0.2778(4) 0.9038(3)
C35_3 C 0.41323(18) 0.1846(5) 0.8649(3)
H27_3 H 0.3849 0.2033 0.8751
H28_3 H 0.4190 0.1126 0.8949
C36_3 C 0.42613(19) 0.3419(6) 0.9728(4)
H29_3 H 0.4006 0.3272 0.9963
C37_3 C 0.50145(19) 0.3879(5) 0.9121(4)
H30_3 H 0.5272 0.4017 0.8893
C38_3 C 0.4775(2) 0.3006(6) 0.8755(4)
H31_3 H 0.4882 0.2566 0.8299
C40_3 C 0.34894(18) 0.5308(5) 0.6922(3)
O9_2 O 0.35702(11) 0.5715(3) 0.7654(2)
O10_3 O 0.3270(2) 0.5789(5) 0.6370(3)
Co5_2 Co 0.35801(2) 0.26451(5) 0.29573(4)
O6_4 O 0.64558(10) 0.2813(3) 0.0793(2)
O7_4 O 0.61946(12) 0.1140(3) 0.0398(2)
C26_4 C 0.63053(14) 0.2131(4) 0.0229(3)
O3_4 O 0.41935(11) 0.8314(3) 0.2728(2)
C2_4 C 0.37536(14) 0.7387(4) 0.0675(3)
C4_4 C 0.39943(16) 0.7607(4) 0.2160(3)
C6_4 C 0.36059(13) 0.6296(4) 0.0885(3)
H3_4 H 0.3479 0.5854 0.0456
C7_4 C 0.39440(14) 0.8030(4) 0.1311(3)
H4_4 H 0.4041 0.8760 0.1173
C9_4 C 0.38411(15) 0.6518(4) 0.2372(3)
H5_4 H 0.3868 0.6228 0.2939
C10_4 C 0.36467(14) 0.5869(4) 0.1720(3)
C12_4 C 0.48780(14) 0.5466(4) 0.4806(3)
C15_4 C 0.43918(18) 0.7222(4) 0.4038(3)
C16_4 C 0.41323(18) 0.8154(5) 0.3649(3)
H6_4 H 0.3849 0.7967 0.3751
H7_4 H 0.4190 0.8874 0.3949
C17_4 C 0.42613(19) 0.6581(6) 0.4728(4)
H8_4 H 0.4006 0.6728 0.4963
C18_4 C 0.50145(19) 0.6121(5) 0.4121(4)
H9_4 H 0.5272 0.5983 0.3893
C19_4 C 0.4775(2) 0.6994(6) 0.3755(4)
H10_4 H 0.4882 0.7434 0.3299
C20_4 C 0.44976(18) 0.5710(6) 0.5096(4)
H11_4 H 0.4391 0.5280 0.5557
C25_4 C 0.34894(18) 0.4692(5) 0.1922(3)
O4_4 O 0.35702(11) 0.4285(3) 0.2654(2)
O5_4 O 0.3270(2) 0.4211(5) 0.1370(3)
O8_4 O 0.58065(11) 0.1686(3) 0.7272(2)
C27_4 C 0.62464(14) 0.2613(4) 0.9325(3)
C28_4 C 0.60057(16) 0.2393(4) 0.7840(3)
C29_4 C 0.63941(13) 0.3704(4) 0.9115(3)
H24_4 H 0.6521 0.4146 0.9544
C30_4 C 0.60560(14) 0.1970(4) 0.8689(3)
H25_4 H 0.5959 0.1240 0.8827
C31_4 C 0.61589(15) 0.3482(4) 0.7628(3)
H26_4 H 0.6132 0.3772 0.7061
C32_4 C 0.63533(14) 0.4131(4) 0.8280(3)
C33_4 C 0.51220(14) 0.4534(4) 0.5194(3)
C34_4 C 0.56082(18) 0.2778(4) 0.5962(3)
C35_4 C 0.58677(18) 0.1846(5) 0.6351(3)
H27_4 H 0.6151 0.2033 0.6249
H28_4 H 0.5810 0.1126 0.6051
C36_4 C 0.57387(19) 0.3419(6) 0.5272(4)
H29_4 H 0.5994 0.3272 0.5037
C37_4 C 0.49855(19) 0.3879(5) 0.5879(4)
H30_4 H 0.4728 0.4017 0.6107
C38_4 C 0.5225(2) 0.3006(6) 0.6245(4)
H31_4 H 0.5118 0.2566 0.6701
C39_4 C 0.55024(18) 0.4290(6) 0.4904(4)
H32_4 H 0.5609 0.4720 0.4443
C40_4 C 0.65106(18) 0.5308(5) 0.8078(3)
O10_4 O 0.6730(2) 0.5789(5) 0.8630(3)
O1_2 O 0.35442(10) 0.7187(3) 0.9207(2)
O2_4 O 0.38054(12) 0.8860(3) 0.9602(2)
N3_3 N 0.31296(10) 0.8254(3) 0.7412(2)
N4_3 N 0.28881(13) 0.7786(3) 0.6792(3)
H2_3 H 0.2922 0.7111 0.6570
C1_4 C 0.36947(14) 0.7869(4) 0.9771(3)
C5_3 C 0.26290(12) 0.9490(4) 0.7065(3)
C13_3 C 0.29738(14) 0.9305(4) 0.7571(3)
C14_3 C 0.25877(15) 0.8513(5) 0.6567(4)
H18_3 H 0.3283 0.9674 0.8677
C24_3 C 0.2273(3) 0.8231(8) 0.5891(7)
H21_3 H 0.2018 0.8563 0.6060
H22_3 H 0.2245 0.7409 0.5845
H23_3 H 0.2355 0.8540 0.5332
C49_3 C 0.1828(2) 0.9896(6) 0.8195(5)
H42_3 H 0.2025 0.9356 0.8412
H43_3 H 0.1614 0.9488 0.7900
H17_4 H 0.0122 0.0166 0.1155
C23_4 C 0.1828(2) 0.0104(6) 0.3195(5)
H19_4 H 0.2025 0.0644 0.3412
H20_4 H 0.1614 0.0512 0.2900
N7_4 N 0.31296(10) 0.1746(3) 0.2412(2)
N8_4 N 0.28881(13) 0.2214(3) 0.1792(3)
H40_4 H 0.2922 0.2889 0.1570
C46_4 C 0.26290(12) 0.0510(4) 0.2065(3)
C47_4 C 0.29738(14) 0.0695(4) 0.2571(3)
C48_4 C 0.25877(15) 0.1487(5) 0.1567(4)
H41_4 H 0.3283 0.0326 0.3677
C50_4 C 0.2273(3) 0.1769(8) 0.0891(7)
H44_4 H 0.2018 0.1437 0.1060
H45_4 H 0.2245 0.2591 0.0845
H46_4 H 0.2355 0.1460 0.0332
N9_2 N 0.41184(11) 0.2060(3) 0.2550(2)
H39_4 H 0.9878 0.0166 0.3845
N2_4 N 0.41834(11) 0.1391(3) 0.1829(2)
H1_4 H 0.3995 0.1142 0.1486
C3_4 C 0.44790(14) 0.2230(5) 0.2895(3)
C8_4 C 0.47768(12) 0.1682(4) 0.2416(3)
C11_4 C 0.45777(13) 0.1174(4) 0.1725(3)
C21_4 C 0.45386(17) 0.2970(7) 0.3690(4)
H12_4 H 0.4334 0.3559 0.3703
H13_4 H 0.4518 0.2504 0.4209
H14_4 H 0.4802 0.3321 0.3667
C22_4 C 0.47352(18) 0.0504(6) 0.0951(4)
H15_4 H 0.4512 0.0272 0.0586
H16_4 H 0.4917 0.0980 0.0616
N5_4 N 0.58816(11) 0.2060(3) 0.2450(2)
N6_4 N 0.58166(11) 0.1391(3) 0.3171(2)
H33_4 H 0.6005 0.1142 0.3514
C41_4 C 0.55210(14) 0.2230(5) 0.2105(3)
C42_4 C 0.52232(12) 0.1682(4) 0.2584(3)
C43_4 C 0.54223(13) 0.1174(4) 0.3275(3)
C44_4 C 0.54614(17) 0.2970(7) 0.1310(4)
H34_4 H 0.5666 0.3559 0.1297
H35_4 H 0.5482 0.2504 0.0791
H36_4 H 0.5198 0.3321 0.1333
C45_4 C 0.52648(18) 0.0504(6) 0.4049(4)
H37_4 H 0.5488 0.0272 0.4414
H38_4 H 0.5083 0.0980 0.4384
N3_4 N 0.68704(10) 0.1746(3) 0.2588(2)
N4_4 N 0.71119(13) 0.2214(3) 0.3208(3)
H2_4 H 0.7078 0.2889 0.3430
C5_4 C 0.73710(12) 0.0510(4) 0.2935(3)
C13_4 C 0.70262(14) 0.0695(4) 0.2429(3)
C14_4 C 0.74123(15) 0.1487(5) 0.3433(4)
H18_4 H 0.6717 0.0326 0.1323
C24_4 C 0.7727(3) 0.1769(8) 0.4109(7)
H21_4 H 0.7982 0.1437 0.3940
H22_4 H 0.7755 0.2591 0.4155
H23_4 H 0.7645 0.1460 0.4668
C49_4 C 0.8172(2) 0.0104(6) 0.1805(5)
H42_4 H 0.7975 0.0644 0.1588
H43_4 H 0.8386 0.0512 0.2100
loop_
_geom_bond_atom_site_label_1
_geom_bond_atom_site_label_2
_geom_bond_site_symmetry_1
_geom_bond_site_symmetry_2
C18 H9 1_555 1_555
H32 C39 1_555 1_555
N5 N6 1_555 1_555
N6 H33 1_555 1_555
C41 N5 1_555 1_555
C43 N6 1_555 1_555
C44 C41 1_555 1_555
H34 C44 1_555 1_555
H35 C44 1_555 1_555
H36 C44 1_555 1_555
C45 C43 1_555 1_555
H37 C45 1_555 1_555
H38 C45 1_555 1_555
Co4 N5 1_555 1_555
C41 C42 1_555 1_555
C42 C43 1_555 1_555
O6 C26 1_555 1_555
O7 C26 1_555 1_555
O8 C28 1_555 1_555
C26 C27 1_555 1_555
C27 C29 1_555 1_555
C28 C30 1_555 1_555
C29 H24 1_555 1_555
C30 C27 1_555 1_555
H25 C30 1_555 1_555
C31 C28 1_555 1_555
H26 C31 1_555 1_555
C32 C29 1_555 1_555
C34 C35 1_555 1_555
C35 O8 1_555 1_555
H27 C35 1_555 1_555
H28 C35 1_555 1_555
C36 C34 1_555 1_555
H29 C36 1_555 1_555
C38 C34 1_555 1_555
H31 C38 1_555 1_555
C40 C32 1_555 1_555
O9 C40 1_555 1_555
O10 C40 1_555 1_555
Co4 O9 1_555 1_555
Co5 O6 1_555 1_555
C31 C32 1_555 1_555
Co1 O1 1_555 1_555
O1 C1 1_555 1_555
O2 C1 1_555 1_555
O3 C4 1_555 1_555
N1 Co1 1_555 1_555
N2 N1 1_555 1_555
H1 N2 1_555 1_555
N3 Co1 1_555 1_555
N4 N3 1_555 1_555
H2 N4 1_555 1_555
C1 C2 1_555 1_555
C2 C6 1_555 1_555
C3 N1 1_555 1_555
C4 C7 1_555 1_555
C5 C13 1_555 1_555
C6 H3 1_555 1_555
C7 C2 1_555 1_555
H4 C7 1_555 1_555
C8 C3 1_555 1_555
C9 C4 1_555 1_555
H5 C9 1_555 1_555
C10 C6 1_555 1_555
C11 N2 1_555 1_555
C13 N3 1_555 1_555
C14 N4 1_555 1_555
C15 C16 1_555 1_555
C16 O3 1_555 1_555
H6 C16 1_555 1_555
H7 C16 1_555 1_555
C17 C15 1_555 1_555
H8 C17 1_555 1_555
C19 C15 1_555 1_555
H10 C19 1_555 1_555
C21 C3 1_555 1_555
H12 C21 1_555 1_555
H13 C21 1_555 1_555
H14 C21 1_555 1_555
C22 C11 1_555 1_555
H15 C22 1_555 1_555
H16 C22 1_555 1_555
C24 C14 1_555 1_555
H21 C24 1_555 1_555
H22 C24 1_555 1_555
H23 C24 1_555 1_555
C25 C10 1_555 1_555
O4 C25 1_555 1_555
O5 C25 1_555 1_555
H42 C49 1_555 1_555
H43 C49 1_555 1_555
Co6 O4 1_555 1_555
O13 Co1 1_555 1_555
C5 C14 1_555 1_555
C8 C11 1_555 1_555
C9 C10 1_555 1_555
H11 C20 1_555 1_555
H30 C37 1_555 1_555
H19 C23 1_555 1_555
H20 C23 1_555 1_555
N7 N8 1_555 1_555
N8 H40 1_555 1_555
C47 N7 1_555 1_555
C48 N8 1_555 1_555
C50 C48 1_555 1_555
H44 C50 1_555 1_555
H45 C50 1_555 1_555
H46 C50 1_555 1_555
Co4 N7 1_555 1_555
O11 Co4 1_555 1_555
C46 C47 1_555 1_555
C46 C48 1_555 1_555
O3_2 C4_2 1_555 1_555
C2_2 C6_2 1_555 1_555
C4_2 C7_2 1_555 1_555
C6_2 H3_2 1_555 1_555
C7_2 C2_2 1_555 1_555
H4_2 C7_2 1_555 1_555
C9_2 C4_2 1_555 1_555
H5_2 C9_2 1_555 1_555
C10_2 C6_2 1_555 1_555
C15_2 C16_2 1_555 1_555
C16_2 O3_2 1_555 1_555
H6_2 C16_2 1_555 1_555
H7_2 C16_2 1_555 1_555
C17_2 C15_2 1_555 1_555
H8_2 C17_2 1_555 1_555
C19_2 C15_2 1_555 1_555
H10_2 C19_2 1_555 1_555
C20_2 C12_2 1_555 1_555
H11_2 C20_2 1_555 1_555
C25_2 C10_2 1_555 1_555
O4_2 C25_2 1_555 1_555
O5_2 C25_2 1_555 1_555
H30_2 C37_2 1_555 1_555
Co5 O4_2 1_555 1_555
C9_2 C10_2 1_555 1_555
C17_2 C20_2 1_555 1_555
O11 C1_2 1_555 1_555
O2_2 C1_2 1_555 1_555
O6_2 C26_2 1_555 1_555
O7_2 C26_2 1_555 1_555
Co6 O6_2 1_555 1_555
C18_2 H9_2 1_555 1_555
O8_2 C28_2 1_555 1_555
C27_2 C29_2 1_555 1_555
C28_2 C30_2 1_555 1_555
C29_2 H24_2 1_555 1_555
C30_2 C27_2 1_555 1_555
H25_2 C30_2 1_555 1_555
C31_2 C28_2 1_555 1_555
H26_2 C31_2 1_555 1_555
C32_2 C29_2 1_555 1_555
C34_2 C35_2 1_555 1_555
C35_2 O8_2 1_555 1_555
H27_2 C35_2 1_555 1_555
H28_2 C35_2 1_555 1_555
C36_2 C34_2 1_555 1_555
H29_2 C36_2 1_555 1_555
C38_2 C34_2 1_555 1_555
H31_2 C38_2 1_555 1_555
C39_2 C33_2 1_555 1_555
H32_2 C39_2 1_555 1_555
C40_2 C32_2 1_555 1_555
O13 C40_2 1_555 1_555
O10_2 C40_2 1_555 1_555
C31_2 C32_2 1_555 1_555
C36_2 C39_2 1_555 1_555
N1_2 Co5 1_555 1_555
N2_2 N1_2 1_555 1_555
H1_2 N2_2 1_555 1_555
N3_2 Co5 1_555 1_555
N4_2 N3_2 1_555 1_555
H2_2 N4_2 1_555 1_555
C3_2 N1_2 1_555 1_555
C5_2 C13_2 1_555 1_555
C8_2 C3_2 1_555 1_555
C11_2 N2_2 1_555 1_555
C13_2 N3_2 1_555 1_555
C14_2 N4_2 1_555 1_555
C21_2 C3_2 1_555 1_555
H12_2 C21_2 1_555 1_555
H13_2 C21_2 1_555 1_555
H14_2 C21_2 1_555 1_555
C22_2 C11_2 1_555 1_555
H15_2 C22_2 1_555 1_555
H16_2 C22_2 1_555 1_555
C24_2 C14_2 1_555 1_555
H21_2 C24_2 1_555 1_555
H22_2 C24_2 1_555 1_555
H23_2 C24_2 1_555 1_555
H42_2 C49_2 1_555 1_555
H43_2 C49_2 1_555 1_555
C5_2 C14_2 1_555 1_555
C8_2 C11_2 1_555 1_555
N5_2 N6_2 1_555 1_555
N6_2 H33_2 1_555 1_555
C41_2 N5_2 1_555 1_555
C43_2 N6_2 1_555 1_555
C44_2 C41_2 1_555 1_555
H34_2 C44_2 1_555 1_555
H35_2 C44_2 1_555 1_555
H36_2 C44_2 1_555 1_555
C45_2 C43_2 1_555 1_555
H37_2 C45_2 1_555 1_555
H38_2 C45_2 1_555 1_555
Co6 N5_2 1_555 1_555
C41_2 C42_2 1_555 1_555
C42_2 C43_2 1_555 1_555
H19_2 C23_2 1_555 1_555
H20_2 C23_2 1_555 1_555
N7_2 N8_2 1_555 1_555
N8_2 H40_2 1_555 1_555
C47_2 N7_2 1_555 1_555
C48_2 N8_2 1_555 1_555
C50_2 C48_2 1_555 1_555
H44_2 C50_2 1_555 1_555
H45_2 C50_2 1_555 1_555
H46_2 C50_2 1_555 1_555
Co6 N7_2 1_555 1_555
C46_2 C47_2 1_555 1_555
C46_2 C48_2 1_555 1_555
H19_3 C23_3 1_555 1_555
H20_3 C23_3 1_555 1_555
N7_3 N8_3 1_555 1_555
N8_3 H40_3 1_555 1_555
C47_3 N7_3 1_555 1_555
C48_3 N8_3 1_555 1_555
C50_3 C48_3 1_555 1_555
H44_3 C50_3 1_555 1_555
H45_3 C50_3 1_555 1_555
H46_3 C50_3 1_555 1_555
Co2 N7_3 1_555 1_555
O11_2 Co2 1_555 1_555
N9 Co2 1_555 1_555
O12 Co2 1_555 1_555
C46_3 C47_3 1_555 1_555
C46_3 C48_3 1_555 1_555
O11_2 C1_3 1_555 1_555
O2_3 C1_3 1_555 1_555
O3_3 C4_3 1_555 1_555
N2_3 N9 1_555 1_555
H1_3 N2_3 1_555 1_555
C1_3 C2_3 1_555 1_555
C2_3 C6_3 1_555 1_555
C3_3 N9 1_555 1_555
C4_3 C7_3 1_555 1_555
C6_3 H3_3 1_555 1_555
C7_3 C2_3 1_555 1_555
H4_3 C7_3 1_555 1_555
C8_3 C3_3 1_555 1_555
C9_3 C4_3 1_555 1_555
H5_3 C9_3 1_555 1_555
C10_3 C6_3 1_555 1_555
C11_3 N2_3 1_555 1_555
C12_3 C18_3 1_555 1_555
C15_3 C16_3 1_555 1_555
C16_3 O3_3 1_555 1_555
H6_3 C16_3 1_555 1_555
H7_3 C16_3 1_555 1_555
C17_3 C15_3 1_555 1_555
H8_3 C17_3 1_555 1_555
C18_3 H9_3 1_555 1_555
C19_3 C15_3 1_555 1_555
H10_3 C19_3 1_555 1_555
C21_3 C3_3 1_555 1_555
H12_3 C21_3 1_555 1_555
H13_3 C21_3 1_555 1_555
H14_3 C21_3 1_555 1_555
C22_3 C11_3 1_555 1_555
H15_3 C22_3 1_555 1_555
H16_3 C22_3 1_555 1_555
C25_3 C10_3 1_555 1_555
O4_3 C25_3 1_555 1_555
O5_3 C25_3 1_555 1_555
H32_3 C39_3 1_555 1_555
N5_3 N6_3 1_555 1_555
N6_3 H33_3 1_555 1_555
C41_3 N5_3 1_555 1_555
C42_3 C8_3 1_555 1_555
C43_3 N6_3 1_555 1_555
C44_3 C41_3 1_555 1_555
H34_3 C44_3 1_555 1_555
H35_3 C44_3 1_555 1_555
H36_3 C44_3 1_555 1_555
C45_3 C43_3 1_555 1_555
H37_3 C45_3 1_555 1_555
H38_3 C45_3 1_555 1_555
Co4_2 N5_3 1_555 1_555
Co6_2 O4_3 1_555 1_555
C8_3 C11_3 1_555 1_555
C9_3 C10_3 1_555 1_555
C18_3 C19_3 1_555 1_555
C41_3 C42_3 1_555 1_555
C42_3 C43_3 1_555 1_555
H11_3 C20_3 1_555 1_555
O6_3 C26_3 1_555 1_555
O7_3 C26_3 1_555 1_555
O8_3 C28_3 1_555 1_555
C26_3 C27_3 1_555 1_555
C27_3 C29_3 1_555 1_555
C28_3 C30_3 1_555 1_555
C29_3 H24_3 1_555 1_555
C30_3 C27_3 1_555 1_555
H25_3 C30_3 1_555 1_555
C31_3 C28_3 1_555 1_555
H26_3 C31_3 1_555 1_555
C32_3 C29_3 1_555 1_555
C34_3 C35_3 1_555 1_555
C35_3 O8_3 1_555 1_555
H27_3 C35_3 1_555 1_555
H28_3 C35_3 1_555 1_555
C36_3 C34_3 1_555 1_555
H29_3 C36_3 1_555 1_555
C37_3 C33_3 1_555 1_555
H30_3 C37_3 1_555 1_555
C38_3 C34_3 1_555 1_555
H31_3 C38_3 1_555 1_555
C40_3 C32_3 1_555 1_555
O9_2 C40_3 1_555 1_555
O10_3 C40_3 1_555 1_555
Co4_2 O9_2 1_555 1_555
Co5_2 O6_3 1_555 1_555
C31_3 C32_3 1_555 1_555
C37_3 C38_3 1_555 1_555
O6_4 C26_4 1_555 1_555
O7_4 C26_4 1_555 1_555
Co6_2 O6_4 1_555 1_555
O3_4 C4_4 1_555 1_555
C2_4 C6_4 1_555 1_555
C4_4 C7_4 1_555 1_555
C6_4 H3_4 1_555 1_555
C7_4 C2_4 1_555 1_555
H4_4 C7_4 1_555 1_555
C9_4 C4_4 1_555 1_555
H5_4 C9_4 1_555 1_555
C10_4 C6_4 1_555 1_555
C12_4 C18_4 1_555 1_555
C15_4 C16_4 1_555 1_555
C16_4 O3_4 1_555 1_555
H6_4 C16_4 1_555 1_555
H7_4 C16_4 1_555 1_555
C17_4 C15_4 1_555 1_555
H8_4 C17_4 1_555 1_555
C18_4 H9_4 1_555 1_555
C19_4 C15_4 1_555 1_555
H10_4 C19_4 1_555 1_555
C20_4 C12_4 1_555 1_555
H11_4 C20_4 1_555 1_555
C25_4 C10_4 1_555 1_555
O4_4 C25_4 1_555 1_555
O5_4 C25_4 1_555 1_555
O8_4 C28_4 1_555 1_555
C27_4 C29_4 1_555 1_555
C28_4 C30_4 1_555 1_555
C29_4 H24_4 1_555 1_555
C30_4 C27_4 1_555 1_555
H25_4 C30_4 1_555 1_555
C31_4 C28_4 1_555 1_555
H26_4 C31_4 1_555 1_555
C32_4 C29_4 1_555 1_555
C33_4 C12_4 1_555 1_555
C34_4 C35_4 1_555 1_555
C35_4 O8_4 1_555 1_555
H27_4 C35_4 1_555 1_555
H28_4 C35_4 1_555 1_555
C36_4 C34_4 1_555 1_555
H29_4 C36_4 1_555 1_555
C37_4 C33_4 1_555 1_555
H30_4 C37_4 1_555 1_555
C38_4 C34_4 1_555 1_555
H31_4 C38_4 1_555 1_555
C39_4 C33_4 1_555 1_555
H32_4 C39_4 1_555 1_555
C40_4 C32_4 1_555 1_555
O12 C40_4 1_555 1_555
O10_4 C40_4 1_555 1_555
Co5_2 O4_4 1_555 1_555
C9_4 C10_4 1_555 1_555
C17_4 C20_4 1_555 1_555
C18_4 C19_4 1_555 1_555
C31_4 C32_4 1_555 1_555
C36_4 C39_4 1_555 1_555
C37_4 C38_4 1_555 1_555
Co4_2 O1_2 1_555 1_555
O1_2 C1_4 1_555 1_555
O2_4 C1_4 1_555 1_555
N3_3 Co4_2 1_555 1_555
N4_3 N3_3 1_555 1_555
H2_3 N4_3 1_555 1_555
C5_3 C13_3 1_555 1_555
C13_3 N3_3 1_555 1_555
C14_3 N4_3 1_555 1_555
C24_3 C14_3 1_555 1_555
H21_3 C24_3 1_555 1_555
H22_3 C24_3 1_555 1_555
H23_3 C24_3 1_555 1_555
H42_3 C49_3 1_555 1_555
H43_3 C49_3 1_555 1_555
C5_3 C14_3 1_555 1_555
H19_4 C23_4 1_555 1_555
H20_4 C23_4 1_555 1_555
N7_4 N8_4 1_555 1_555
N8_4 H40_4 1_555 1_555
C47_4 N7_4 1_555 1_555
C48_4 N8_4 1_555 1_555
C50_4 C48_4 1_555 1_555
H44_4 C50_4 1_555 1_555
H45_4 C50_4 1_555 1_555
H46_4 C50_4 1_555 1_555
Co5_2 N7_4 1_555 1_555
N9_2 Co5_2 1_555 1_555
C46_4 C47_4 1_555 1_555
C46_4 C48_4 1_555 1_555
N2_4 N9_2 1_555 1_555
H1_4 N2_4 1_555 1_555
C3_4 N9_2 1_555 1_555
C8_4 C3_4 1_555 1_555
C11_4 N2_4 1_555 1_555
C21_4 C3_4 1_555 1_555
H12_4 C21_4 1_555 1_555
H13_4 C21_4 1_555 1_555
H14_4 C21_4 1_555 1_555
C22_4 C11_4 1_555 1_555
H15_4 C22_4 1_555 1_555
H16_4 C22_4 1_555 1_555
N5_4 N6_4 1_555 1_555
N6_4 H33_4 1_555 1_555
C41_4 N5_4 1_555 1_555
C42_4 C8_4 1_555 1_555
C43_4 N6_4 1_555 1_555
C44_4 C41_4 1_555 1_555
H34_4 C44_4 1_555 1_555
H35_4 C44_4 1_555 1_555
H36_4 C44_4 1_555 1_555
C45_4 C43_4 1_555 1_555
H37_4 C45_4 1_555 1_555
H38_4 C45_4 1_555 1_555
Co6_2 N5_4 1_555 1_555
C8_4 C11_4 1_555 1_555
C41_4 C42_4 1_555 1_555
C42_4 C43_4 1_555 1_555
N3_4 Co6_2 1_555 1_555
N4_4 N3_4 1_555 1_555
H2_4 N4_4 1_555 1_555
C5_4 C13_4 1_555 1_555
C13_4 N3_4 1_555 1_555
C14_4 N4_4 1_555 1_555
C24_4 C14_4 1_555 1_555
H21_4 C24_4 1_555 1_555
H22_4 C24_4 1_555 1_555
H23_4 C24_4 1_555 1_555
H42_4 C49_4 1_555 1_555
H43_4 C49_4 1_555 1_555
C5_4 C14_4 1_555 1_555

#END
