
###############################################################################
#
# This file contains modified crystal structure data generated from the
# MOF subset of the Cambridge Structural Database (CSD) v543 
# hosted by the Cambridge Crystallographic Data Centre (CCDC).
#
# This work is licensed under the Creative Commons
# Attribution-NonCommercial-ShareAlike 4.0 International License.
# To view a copy of this license, visit
# http://creativecommons.org/licenses/by-nc-sa/4.0/
# or send a letter to
# Creative Commons, PO Box 1866, Mountain View, CA 94042, USA.
#
# CIF created using the CSD Python API on 29 September 2022
# The structure has been converted into the P1 space group
# The structure has a 3D framework
# The original CSD entry MUTGUD is in the tetragonal crystal system
# The framework has been calculated to contain at least 10.0% void space
# The void calculation uses a probe of radius 1.32A, grid spacing 0.4
#
###############################################################################

data_MUTGUD
_chemical_formula_moiety         '(Ag16 N48 O64)n'
_symmetry_cell_setting           triclinic
_symmetry_space_group_name_H-M   'P 1'
_symmetry_Int_Tables_number      1
_space_group_name_Hall           'P 1'
loop_
_symmetry_equiv_pos_site_id
_symmetry_equiv_pos_as_xyz
1 x,y,z
_cell_length_a                   15.1767(6)
_cell_length_b                   15.1767(6)
_cell_length_c                   11.8204(7)
_cell_angle_alpha                90
_cell_angle_beta                 90
_cell_angle_gamma                90
_cell_volume                     2722.62
loop_
_atom_site_label
_atom_site_type_symbol
_atom_site_fract_x
_atom_site_fract_y
_atom_site_fract_z
Ag1 Ag 0.0000 0.2500 0.1250
O5 O 0.01556(12) 0.11553(13) 0.28395(18)
O10 O 0.10645(12) 0.31267(13) 0.26672(17)
O11 O 0.18704(13) 0.45342(15) 0.52688(19)
O12 O 0.22910(12) 0.36349(13) 0.39646(18)
N7 N 0.08595(13) 0.41505(14) 0.40753(19)
N8 N 0.06045(13) 0.36783(13) 0.31476(17)
N9 N 0.17367(13) 0.40767(13) 0.44320(18)
Ag3 Ag -0.0000 -0.0000 0.5000
Ag4 Ag 0.0000 0.5000 0.5000
Ag3_2 Ag 0.0000 1.0000 0.5000
N14 N 0.08595(13) 0.91505(14) 0.59247(19)
Ag1_2 Ag -0.0000 0.7500 0.8750
O1 O 0.01556(12) 0.61553(13) 0.71605(18)
O14 O 0.10645(12) 0.81267(13) 0.73328(17)
O15 O 0.18704(13) 0.95342(15) 0.47312(19)
O16 O 0.22910(12) 0.86349(13) 0.60354(18)
N11 N 0.06045(13) 0.86783(13) 0.68524(17)
N12 N 0.17367(13) 0.90767(13) 0.55680(18)
O13 O 0.13447(13) 0.26556(12) 0.96605(18)
O14_2 O 0.06267(13) 0.14355(12) 0.98328(17)
O15_2 O 0.20342(15) 0.06296(13) 0.72312(19)
O16_2 O 0.11349(13) 0.02090(12) 0.85354(18)
N10 N 0.16505(14) 0.16405(13) 0.84247(19)
N11_2 N 0.11783(13) 0.18955(13) 0.93524(17)
N12_2 N 0.15767(13) 0.07633(13) 0.80680(18)
Ag5 Ag 0.2500 0.2500 0.7500
Ag2 Ag 0.7500 0.2500 0.7500
O1_2 O 0.86553(13) 0.23444(12) 0.96605(18)
O2 O 0.93733(13) 0.35645(12) 0.98328(17)
O3 O 0.79658(15) 0.43704(13) 0.72312(19)
O4 O 0.88651(13) 0.47910(12) 0.85354(18)
N1 N 0.83495(14) 0.33595(13) 0.84247(19)
N2 N 0.88217(13) 0.31045(13) 0.93524(17)
N3 N 0.84233(13) 0.42367(13) 0.80680(18)
N13 N 0.66505(14) 0.16405(13) 0.65753(19)
Ag1_3 Ag 0.5000 0.2500 0.3750
Ag2_2 Ag 0.5000 0.0000 0.0000
O1_3 O 0.51556(12) 0.11553(13) 0.21605(18)
O2_2 O 0.39355(12) 0.18733(13) 0.23328(17)
O4_2 O 0.27090(12) 0.13651(13) 0.10354(18)
N1_2 N 0.41405(13) 0.08495(14) 0.09247(19)
N2_2 N 0.43955(13) 0.13217(13) 0.18524(17)
N3_2 N 0.32633(13) 0.09233(13) 0.05680(18)
O5_2 O 0.63447(13) 0.26556(12) 0.53395(18)
O6 O 0.56267(13) 0.14355(12) 0.51672(17)
O7 O 0.70342(15) 0.06296(13) 0.77688(19)
O8 O 0.61349(13) 0.02090(12) 0.64646(18)
N5 N 0.61783(13) 0.18955(13) 0.56476(17)
N6 N 0.65767(13) 0.07633(13) 0.69320(18)
O9 O 0.36553(13) 0.23444(12) 0.53395(18)
O10_2 O 0.43733(13) 0.35645(12) 0.51672(17)
O11_2 O 0.29658(15) 0.43704(13) 0.77688(19)
O12_2 O 0.38651(13) 0.47910(12) 0.64646(18)
N7_2 N 0.33495(14) 0.33595(13) 0.65753(19)
N8_2 N 0.38217(13) 0.31045(13) 0.56476(17)
N9_2 N 0.34233(13) 0.42367(13) 0.69320(18)
O13_2 O 0.48444(12) 0.38447(13) 0.21605(18)
O14_3 O 0.60645(12) 0.31267(13) 0.23328(17)
O16_3 O 0.72910(12) 0.36349(13) 0.10354(18)
N10_2 N 0.58595(13) 0.41505(14) 0.09247(19)
N11_3 N 0.56045(13) 0.36783(13) 0.18524(17)
N12_3 N 0.67367(13) 0.40767(13) 0.05680(18)
Ag5_2 Ag 0.5000 0.5000 0.0000
Ag2_3 Ag 0.5000 1.0000 0.0000
O7_2 O 0.31296(13) 0.54658(15) 0.02688(19)
O11_3 O 0.68704(13) 0.95342(15) 0.02688(19)
Ag1_4 Ag 1.0000 0.2500 0.1250
O6_2 O 0.89355(12) 0.18733(13) 0.26672(17)
O7_3 O 0.81296(13) 0.04658(15) 0.52688(19)
O8_2 O 0.77090(12) 0.13651(13) 0.39646(18)
N4 N 0.91405(13) 0.08495(14) 0.40753(19)
N5_2 N 0.93955(13) 0.13217(13) 0.31476(17)
N6_2 N 0.82633(13) 0.09233(13) 0.44320(18)
O9_2 O 0.98444(12) 0.38447(13) 0.28395(18)
Ag3_3 Ag 1.0000 -0.0000 0.5000
Ag4_2 Ag 1.0000 0.5000 0.5000
Ag3_4 Ag 1.0000 1.0000 0.5000
Ag1_5 Ag 1.0000 0.7500 0.8750
O2_3 O 0.89355(12) 0.68733(13) 0.73328(17)
O3_2 O 0.81296(13) 0.54658(15) 0.47312(19)
O4_3 O 0.77090(12) 0.63651(13) 0.60354(18)
N1_3 N 0.91405(13) 0.58495(14) 0.59247(19)
N2_3 N 0.93955(13) 0.63217(13) 0.68524(17)
N3_3 N 0.82633(13) 0.59233(13) 0.55680(18)
O13_3 O 0.98444(12) 0.88447(13) 0.71605(18)
Ag2_4 Ag 0.5000 -0.0000 1.0000
O3_3 O 0.31296(13) 0.04658(15) 0.97312(19)
O15_3 O 0.68704(13) 0.45342(15) 0.97312(19)
Ag5_3 Ag 0.5000 0.5000 1.0000
Ag2_5 Ag 0.5000 1.0000 1.0000
N13_2 N 0.58595(13) 0.91505(14) 0.90753(19)
Ag1_6 Ag 0.5000 0.7500 0.6250
Ag2_6 Ag 0.2500 0.7500 0.2500
O1_4 O 0.36553(13) 0.73444(12) 0.46605(18)
O2_4 O 0.43733(13) 0.85645(12) 0.48328(17)
O3_4 O 0.29658(15) 0.93704(13) 0.22312(19)
O4_4 O 0.38651(13) 0.97910(12) 0.35354(18)
N1_4 N 0.33495(14) 0.83595(13) 0.34247(19)
N2_4 N 0.38217(13) 0.81045(13) 0.43524(17)
N3_4 N 0.34233(13) 0.92367(13) 0.30680(18)
O5_3 O 0.51556(12) 0.61553(13) 0.78395(18)
O6_3 O 0.39355(12) 0.68733(13) 0.76672(17)
O8_3 O 0.27090(12) 0.63651(13) 0.89646(18)
N4_2 N 0.41405(13) 0.58495(14) 0.90753(19)
N5_3 N 0.43955(13) 0.63217(13) 0.81476(17)
N6_3 N 0.32633(13) 0.59233(13) 0.94320(18)
O9_3 O 0.48444(12) 0.88447(13) 0.78395(18)
O10_3 O 0.60645(12) 0.81267(13) 0.76672(17)
O12_3 O 0.72910(12) 0.86349(13) 0.89646(18)
N8_3 N 0.56045(13) 0.86783(13) 0.81476(17)
N9_3 N 0.67367(13) 0.90767(13) 0.94320(18)
O13_4 O 0.63447(13) 0.76556(12) 0.46605(18)
O14_4 O 0.56267(13) 0.64355(12) 0.48328(17)
O15_4 O 0.70342(15) 0.56296(13) 0.22312(19)
O16_4 O 0.61349(13) 0.52090(12) 0.35354(18)
N10_3 N 0.66505(14) 0.66405(13) 0.34247(19)
N11_4 N 0.61783(13) 0.68955(13) 0.43524(17)
N12_4 N 0.65767(13) 0.57633(13) 0.30680(18)
N13_3 N 0.16505(14) 0.66405(13) 0.15753(19)
Ag5_4 Ag 0.7500 0.7500 0.2500
O5_4 O 0.13447(13) 0.76556(12) 0.03395(18)
O6_4 O 0.06267(13) 0.64355(12) 0.01672(17)
O7_4 O 0.20342(15) 0.56296(13) 0.27688(19)
O8_4 O 0.11349(13) 0.52090(12) 0.14646(18)
N5_4 N 0.11783(13) 0.68955(13) 0.06476(17)
N6_4 N 0.15767(13) 0.57633(13) 0.19320(18)
O9_4 O 0.86553(13) 0.73444(12) 0.03395(18)
O10_4 O 0.93733(13) 0.85645(12) 0.01672(17)
O11_4 O 0.79658(15) 0.93704(13) 0.27688(19)
O12_4 O 0.88651(13) 0.97910(12) 0.14646(18)
N7_3 N 0.83495(14) 0.83595(13) 0.15753(19)
N8_4 N 0.88217(13) 0.81045(13) 0.06476(17)
N9_4 N 0.84233(13) 0.92367(13) 0.19320(18)
loop_
_geom_bond_atom_site_label_1
_geom_bond_atom_site_label_2
_geom_bond_site_symmetry_1
_geom_bond_site_symmetry_2
O10 Ag1 1_555 1_555
O11 N9 1_555 1_555
O12 N9 1_555 1_555
N7 N8 1_555 1_555
N8 O10 1_555 1_555
N9 N7 1_555 1_555
Ag4 N7 1_555 1_555
N14 Ag3_2 1_555 1_555
O14 Ag1_2 1_555 1_555
O15 N12 1_555 1_555
O16 N12 1_555 1_555
N14 N11 1_555 1_555
N11 O14 1_555 1_555
N12 N14 1_555 1_555
O13 N11_2 1_555 1_555
O15_2 N12_2 1_555 1_555
O16_2 N12_2 1_555 1_555
N10 N11_2 1_555 1_555
N11_2 O14_2 1_555 1_555
N12_2 N10 1_555 1_555
Ag5 N10 1_555 1_555
Ag2 N1 1_555 1_555
O1_2 N2 1_555 1_555
O2 N2 1_555 1_555
O3 N3 1_555 1_555
O4 N3 1_555 1_555
N1 N2 1_555 1_555
N3 N1 1_555 1_555
N13 Ag2 1_555 1_555
Ag1_3 O2_2 1_555 1_555
Ag2_2 N1_2 1_555 1_555
O1_3 N2_2 1_555 1_555
O2_2 N2_2 1_555 1_555
O4_2 N3_2 1_555 1_555
N1_2 N2_2 1_555 1_555
N3_2 N1_2 1_555 1_555
O5_2 N5 1_555 1_555
O6 Ag1_3 1_555 1_555
O7 N6 1_555 1_555
O8 N6 1_555 1_555
N13 N5 1_555 1_555
N5 O6 1_555 1_555
N6 N13 1_555 1_555
O9 N8_2 1_555 1_555
O10_2 Ag1_3 1_555 1_555
O11_2 N9_2 1_555 1_555
O12_2 N9_2 1_555 1_555
N7_2 N8_2 1_555 1_555
N8_2 O10_2 1_555 1_555
N9_2 N7_2 1_555 1_555
O13_2 N11_3 1_555 1_555
O14_3 Ag1_3 1_555 1_555
O16_3 N12_3 1_555 1_555
N10_2 N11_3 1_555 1_555
N11_3 O14_3 1_555 1_555
N12_3 N10_2 1_555 1_555
Ag5 N7_2 1_555 1_555
Ag5_2 N10_2 1_555 1_555
O6_2 Ag1_4 1_555 1_555
O7_3 N6_2 1_555 1_555
O8_2 N6_2 1_555 1_555
N4 N5_2 1_555 1_555
N5_2 O6_2 1_555 1_555
N6_2 N4 1_555 1_555
Ag3_3 N4 1_555 1_555
Ag1_5 O2_3 1_555 1_555
Ag4_2 N1_3 1_555 1_555
O2_3 N2_3 1_555 1_555
O3_2 N3_3 1_555 1_555
O4_3 N3_3 1_555 1_555
N1_3 N2_3 1_555 1_555
N3_3 N1_3 1_555 1_555
N13_2 Ag2_5 1_555 1_555
Ag1_6 O2_4 1_555 1_555
Ag2_6 N1_4 1_555 1_555
O1_4 N2_4 1_555 1_555
O2_4 N2_4 1_555 1_555
O3_4 N3_4 1_555 1_555
O4_4 N3_4 1_555 1_555
N1_4 N2_4 1_555 1_555
N3_4 N1_4 1_555 1_555
O5_3 N5_3 1_555 1_555
O6_3 Ag1_6 1_555 1_555
O8_3 N6_3 1_555 1_555
N4_2 N5_3 1_555 1_555
N5_3 O6_3 1_555 1_555
N6_3 N4_2 1_555 1_555
O9_3 N8_3 1_555 1_555
O10_3 Ag1_6 1_555 1_555
O12_3 N9_3 1_555 1_555
N13_2 N8_3 1_555 1_555
N8_3 O10_3 1_555 1_555
N9_3 N13_2 1_555 1_555
O13_4 N11_4 1_555 1_555
O14_4 Ag1_6 1_555 1_555
O15_4 N12_4 1_555 1_555
O16_4 N12_4 1_555 1_555
N10_3 N11_4 1_555 1_555
N11_4 O14_4 1_555 1_555
N12_4 N10_3 1_555 1_555
Ag5_3 N4_2 1_555 1_555
N13_3 Ag2_6 1_555 1_555
Ag5_4 N10_3 1_555 1_555
O5_4 N5_4 1_555 1_555
O7_4 N6_4 1_555 1_555
O8_4 N6_4 1_555 1_555
N13_3 N5_4 1_555 1_555
N5_4 O6_4 1_555 1_555
N6_4 N13_3 1_555 1_555
O9_4 N8_4 1_555 1_555
O11_4 N9_4 1_555 1_555
O12_4 N9_4 1_555 1_555
N7_3 N8_4 1_555 1_555
N8_4 O10_4 1_555 1_555
N9_4 N7_3 1_555 1_555
Ag5_4 N7_3 1_555 1_555

#END
