
###############################################################################
#
# This file contains modified crystal structure data generated from the
# MOF subset of the Cambridge Structural Database (CSD) v543 
# hosted by the Cambridge Crystallographic Data Centre (CCDC).
#
# This work is licensed under the Creative Commons
# Attribution-NonCommercial-ShareAlike 4.0 International License.
# To view a copy of this license, visit
# http://creativecommons.org/licenses/by-nc-sa/4.0/
# or send a letter to
# Creative Commons, PO Box 1866, Mountain View, CA 94042, USA.
#
# CIF created using the CSD Python API on 29 September 2022
# The structure has been converted into the P1 space group
# The structure has a 3D framework
# The original CSD entry MUTVUT is in the orthorhombic crystal system
# The original CSD entry MUTVUT is in a Sohncke space group
# The framework has been calculated to contain at least 10.0% void space
# The void calculation uses a probe of radius 1.32A, grid spacing 0.4
#
###############################################################################

data_MUTVUT
_chemical_formula_moiety         '(C208 H208 Cd12 N32 O38)n'
_symmetry_cell_setting           triclinic
_symmetry_space_group_name_H-M   'P 1'
_symmetry_Int_Tables_number      1
_space_group_name_Hall           'P 1'
loop_
_symmetry_equiv_pos_site_id
_symmetry_equiv_pos_as_xyz
1 x,y,z
_cell_length_a                   9.3345(9)
_cell_length_b                   22.203(2)
_cell_length_c                   27.514(3)
_cell_angle_alpha                90
_cell_angle_beta                 90
_cell_angle_gamma                90
_cell_volume                     5702.38
loop_
_atom_site_label
_atom_site_type_symbol
_atom_site_fract_x
_atom_site_fract_y
_atom_site_fract_z
Cd3 Cd 0.14916(7) 0.5000 0.0000
Cd1 Cd 0.35084(7) -0.0000 0.5000
O1 O 0.2464(5) 0.0973(3) 0.4972(2)
O2 O 0.1764(7) 0.0373(3) 0.5553(3)
C1 C 0.1603(8) 0.0830(4) 0.5308(3)
C2 C 0.0308(7) 0.1225(3) 0.5404(3)
C3 C 0.0061(9) 0.1735(3) 0.5145(2)
H1 H 0.0712 0.1859 0.4910
C24 C 0.0012(9) 0.5131(3) 0.8930(3)
H23 H 0.0616 0.5446 0.8842
Cd3_2 Cd 0.14916(7) 0.5000 1.0000
N9 N 0.5009(6) 0.0138(3) 0.43736(19)
Cd1_2 Cd 0.35084(7) 1.0000 0.5000
N8 N 0.5009(6) 0.9862(3) 0.56264(19)
O6 O 0.2464(5) 0.9027(3) 0.5028(2)
O8 O 0.1764(7) 0.9627(3) 0.4447(3)
C27 C 0.1603(8) 0.9170(4) 0.4692(3)
C28 C 0.0308(7) 0.8775(3) 0.4596(3)
C29 C 0.0061(9) 0.8265(3) 0.4855(2)
H27 H 0.0712 0.8141 0.5090
C50 C 0.0012(9) 0.4869(3) 0.1070(3)
H49 H 0.0616 0.4554 0.1158
C50_2 C 0.4988(9) 0.0131(3) 0.6070(3)
H49_2 H 0.4384 0.0446 0.6158
O7 O 0.2536(5) 0.5973(3) 0.0028(2)
H27_2 H 0.4288 0.6859 0.0090
N7 N 0.6631(6) 0.9443(3) 0.6096(2)
O9 O 0.3236(7) 0.5373(3) 0.9447(3)
O10 O 0.8392(6) 0.7207(2) 0.94188(19)
C27_2 C 0.3397(8) 0.5830(4) 0.9692(3)
C28_2 C 0.4692(7) 0.6225(3) 0.9596(3)
C29_2 C 0.4939(9) 0.6735(3) 0.9855(2)
C30 C 0.6160(8) 0.7068(4) 0.9768(3)
H28 H 0.6316 0.7423 0.9939
C31 C 0.7138(8) 0.6881(3) 0.9434(3)
C32 C 0.6923(8) 0.6366(3) 0.9164(2)
H29 H 0.7590 0.6242 0.8934
C33 C 0.5667(8) 0.6036(3) 0.9248(3)
H30 H 0.5486 0.5689 0.9069
C34 C 0.9372(9) 0.7117(3) 0.9042(3)
H33 H 0.9923 0.7397 0.7911
C39 C 0.9060(8) 0.7274(4) 0.8579(3)
H34 H 0.8129 0.7383 0.8496
C47 C 0.9266(8) 0.9338(4) 0.6176(3)
H44 H 0.9393 0.9443 0.5836
H45 H 0.9330 0.9705 0.6366
C48 C 0.7795(9) 0.9056(4) 0.6246(4)
H46 H 0.7748 0.8684 0.6062
H47 H 0.7672 0.8955 0.6587
C49 C 0.5970(8) 0.9876(4) 0.6362(3)
H48 H 0.6159 0.9976 0.6684
C51 C 0.6015(7) 0.9446(4) 0.5649(3)
C52 C 0.6428(11) 0.9037(5) 0.5247(3)
H50 H 0.6194 0.9222 0.4941
H51 H 0.5918 0.8664 0.5278
H52 H 0.7440 0.8961 0.5261
N3 N 0.6631(6) 0.0557(3) 0.3904(2)
O2_2 O 0.3236(7) 0.4627(3) 0.0553(3)
O3 O 0.8392(6) 0.2793(2) 0.05812(19)
C1_2 C 0.3397(8) 0.4170(4) 0.0308(3)
C2_2 C 0.4692(7) 0.3775(3) 0.0404(3)
C3_2 C 0.4939(9) 0.3265(3) 0.0145(2)
C4 C 0.6160(8) 0.2932(4) 0.0232(3)
H2 H 0.6316 0.2577 0.0061
C5 C 0.7138(8) 0.3119(3) 0.0566(3)
C6 C 0.6923(8) 0.3634(3) 0.0836(2)
H3 H 0.7590 0.3758 0.1066
C7 C 0.5667(8) 0.3964(3) 0.0752(3)
H4 H 0.5486 0.4311 0.0931
C8 C 0.9372(9) 0.2883(3) 0.0958(3)
H7 H 0.9923 0.2603 0.2089
C13 C 0.9060(8) 0.2726(4) 0.1421(3)
H8 H 0.8129 0.2617 0.1504
C21 C 0.9266(8) 0.0662(4) 0.3824(3)
H18 H 0.9393 0.0557 0.4164
H19 H 0.9330 0.0295 0.3634
C22 C 0.7795(9) 0.0944(4) 0.3754(4)
H20 H 0.7748 0.1316 0.3938
H21 H 0.7672 0.1045 0.3413
C23 C 0.5970(8) 0.0124(4) 0.3638(3)
H22 H 0.6159 0.0024 0.3316
C25 C 0.6015(7) 0.0554(4) 0.4351(3)
C26 C 0.6428(11) 0.0963(5) 0.4753(3)
H24 H 0.6194 0.0778 0.5059
H25 H 0.5918 0.1336 0.4722
H26 H 0.7440 0.1039 0.4739
O1_2 O 0.2536(5) 0.4027(3) 0.9972(2)
H1_2 H 0.4288 0.3141 0.9910
C24_2 C 0.4988(9) 0.9869(3) 0.3930(3)
H23_2 H 0.4384 0.9554 0.3842
H24_2 H 0.8806 0.4222 0.0059
Cd2 Cd -0.0000 0.25596(3) 0.7500
N1 N 0.0596(6) 0.3167(3) 0.8143(2)
N2 N 0.1974(6) 0.3760(3) 0.8578(2)
N3_2 N 0.8369(6) 0.4443(3) 0.8904(2)
N4 N 0.9991(6) 0.4862(3) 0.93736(19)
O3_2 O 0.6608(6) 0.2207(2) 0.55812(19)
O4 O 0.1113(5) 0.1901(3) 0.6920(2)
O5 O 0.2492(6) 0.2486(4) 0.7381(2)
C4_2 C 0.8840(8) 0.2068(4) 0.5232(3)
H2_2 H 0.8684 0.2423 0.5061
C5_2 C 0.7862(8) 0.1881(3) 0.5566(3)
C6_2 C 0.8077(8) 0.1366(3) 0.5836(2)
H3_2 H 0.7410 0.1242 0.6066
C7_2 C 0.9333(8) 0.1036(3) 0.5752(3)
H4_2 H 0.9514 0.0689 0.5931
C8_2 C 0.5628(9) 0.2117(3) 0.5958(3)
C9 C 0.4287(9) 0.1908(4) 0.5839(3)
H5 H 0.4096 0.1771 0.5526
C10 C 0.3236(9) 0.1902(4) 0.6185(3)
H6 H 0.2322 0.1769 0.6104
C11 C 0.3513(7) 0.2090(3) 0.6651(2)
C12 C 0.4873(8) 0.2274(4) 0.6773(3)
H7_2 H 0.5077 0.2397 0.7089
C13_2 C 0.5940(8) 0.2274(4) 0.6421(3)
H8_2 H 0.6871 0.2383 0.6504
C14 C 0.2304(8) 0.2157(4) 0.7012(3)
C15 C 0.2023(13) 0.3921(5) 0.7673(3)
H9 H 0.1402 0.3812 0.7409
H10 H 0.2989 0.3806 0.7597
H11 H 0.1981 0.4348 0.7724
C16 C 0.1554(8) 0.3605(3) 0.8124(2)
C17 C 0.0427(7) 0.3023(3) 0.8625(2)
C18 C 0.1271(8) 0.3381(3) 0.8900(3)
H13 H 0.1361 0.3375 0.9237
C19 C 0.3095(8) 0.4178(4) 0.8704(3)
H14 H 0.2941 0.4320 0.9034
H15 H 0.3043 0.4524 0.8489
C20 C 0.4552(7) 0.3906(4) 0.8670(3)
H16 H 0.4722 0.3781 0.8337
H17 H 0.4589 0.3550 0.8873
C21_2 C 0.5734(8) 0.4338(4) 0.8824(3)
H18_2 H 0.5607 0.4443 0.9164
H19_2 H 0.5670 0.4705 0.8634
C22_2 C 0.7205(9) 0.4056(4) 0.8754(4)
H20_2 H 0.7252 0.3684 0.8938
H21_2 H 0.7328 0.3955 0.8413
C23_2 C 0.9030(8) 0.4876(4) 0.8638(3)
H22_2 H 0.8841 0.4976 0.8316
C25_2 C 0.8985(7) 0.4446(4) 0.9351(3)
C26_2 C 0.8572(11) 0.4037(5) 0.9753(3)
H25_2 H 0.9082 0.3664 0.9722
H26_2 H 0.7560 0.3961 0.9739
H38 H 0.0177 0.2724 0.6257
Cd2_2 Cd 1.0000 0.25596(3) 0.7500
H12 H 0.9823 0.2724 0.8743
N5 N 0.9404(6) 0.3167(3) 0.6857(2)
N6 N 0.8026(6) 0.3760(3) 0.6422(2)
N7_2 N 0.1631(6) 0.4443(3) 0.6096(2)
N10 N 0.0009(6) 0.4862(3) 0.56264(19)
O10_2 O 0.3392(6) 0.2207(2) 0.94188(19)
O11 O 0.8887(5) 0.1901(3) 0.8080(2)
O12 O 0.7508(6) 0.2486(4) 0.7619(2)
C30_2 C 0.1160(8) 0.2068(4) 0.9768(3)
H28_2 H 0.1316 0.2423 0.9939
C31_2 C 0.2138(8) 0.1881(3) 0.9434(3)
C32_2 C 0.1923(8) 0.1366(3) 0.9164(2)
H29_2 H 0.2590 0.1242 0.8934
C33_2 C 0.0667(8) 0.1036(3) 0.9248(3)
H30_2 H 0.0486 0.0689 0.9069
C34_2 C 0.4372(9) 0.2117(3) 0.9042(3)
C35 C 0.5713(9) 0.1908(4) 0.9161(3)
H31 H 0.5904 0.1771 0.9474
C36 C 0.6764(9) 0.1902(4) 0.8815(3)
H32 H 0.7678 0.1769 0.8896
C37 C 0.6487(7) 0.2090(3) 0.8349(2)
C38 C 0.5127(8) 0.2274(4) 0.8227(3)
H33_2 H 0.4923 0.2397 0.7911
C39_2 C 0.4060(8) 0.2274(4) 0.8579(3)
H34_2 H 0.3129 0.2383 0.8496
C40 C 0.7696(8) 0.2157(4) 0.7988(3)
C41 C 0.7977(13) 0.3921(5) 0.7327(3)
H35 H 0.8598 0.3812 0.7591
H36 H 0.7011 0.3806 0.7403
H37 H 0.8019 0.4348 0.7276
C42 C 0.8446(8) 0.3605(3) 0.6876(2)
C43 C 0.9573(7) 0.3023(3) 0.6375(2)
C44 C 0.8729(8) 0.3381(3) 0.6100(3)
H39 H 0.8639 0.3375 0.5763
C45 C 0.6905(8) 0.4178(4) 0.6296(3)
H40 H 0.7059 0.4320 0.5966
H41 H 0.6957 0.4524 0.6511
C46 C 0.5448(7) 0.3906(4) 0.6330(3)
H42 H 0.5278 0.3781 0.6663
H43 H 0.5411 0.3550 0.6127
C47_2 C 0.4266(8) 0.4338(4) 0.6176(3)
H44_2 H 0.4393 0.4443 0.5836
H45_2 H 0.4330 0.4705 0.6366
C48_2 C 0.2795(9) 0.4056(4) 0.6246(4)
H46_2 H 0.2748 0.3684 0.6062
H47_2 H 0.2672 0.3955 0.6587
C49_2 C 0.0970(8) 0.4876(4) 0.6362(3)
H48_2 H 0.1159 0.4976 0.6684
C51_2 C 0.1015(7) 0.4446(4) 0.5649(3)
C52_2 C 0.1428(11) 0.4037(5) 0.5247(3)
H50_2 H 0.1194 0.4222 0.4941
H51_2 H 0.0918 0.3664 0.5278
H52_2 H 0.2440 0.3961 0.5261
Cd2_3 Cd 1.0000 0.74404(3) 0.2500
N1_2 N 0.9404(6) 0.6833(3) 0.3143(2)
N2_2 N 0.8026(6) 0.6240(3) 0.3578(2)
N3_3 N 0.1631(6) 0.5557(3) 0.3904(2)
N4_2 N 0.0009(6) 0.5138(3) 0.43736(19)
O3_3 O 0.3392(6) 0.7793(2) 0.05812(19)
O4_2 O 0.8887(5) 0.8099(3) 0.1920(2)
O5_2 O 0.7508(6) 0.7514(4) 0.2381(2)
C4_3 C 0.1160(8) 0.7932(4) 0.0232(3)
H2_3 H 0.1316 0.7577 0.0061
C5_3 C 0.2138(8) 0.8119(3) 0.0566(3)
C6_3 C 0.1923(8) 0.8634(3) 0.0836(2)
H3_3 H 0.2590 0.8758 0.1066
C7_3 C 0.0667(8) 0.8964(3) 0.0752(3)
H4_3 H 0.0486 0.9311 0.0931
C8_3 C 0.4372(9) 0.7883(3) 0.0958(3)
C9_2 C 0.5713(9) 0.8092(4) 0.0839(3)
H5_2 H 0.5904 0.8229 0.0526
C10_2 C 0.6764(9) 0.8098(4) 0.1185(3)
H6_2 H 0.7678 0.8231 0.1104
C11_2 C 0.6487(7) 0.7910(3) 0.1651(2)
C12_2 C 0.5127(8) 0.7726(4) 0.1773(3)
H7_3 H 0.4923 0.7603 0.2089
C13_3 C 0.4060(8) 0.7726(4) 0.1421(3)
H8_3 H 0.3129 0.7617 0.1504
C14_2 C 0.7696(8) 0.7843(4) 0.2012(3)
C15_2 C 0.7977(13) 0.6079(5) 0.2673(3)
H9_2 H 0.8598 0.6188 0.2409
H10_2 H 0.7011 0.6194 0.2597
H11_2 H 0.8019 0.5652 0.2724
C16_2 C 0.8446(8) 0.6395(3) 0.3124(2)
C17_2 C 0.9573(7) 0.6977(3) 0.3625(2)
C18_2 C 0.8729(8) 0.6619(3) 0.3900(3)
H13_2 H 0.8639 0.6625 0.4237
C19_2 C 0.6905(8) 0.5822(4) 0.3704(3)
H14_2 H 0.7059 0.5680 0.4034
H15_2 H 0.6957 0.5476 0.3489
C20_2 C 0.5448(7) 0.6094(4) 0.3670(3)
H16_2 H 0.5278 0.6219 0.3337
H17_2 H 0.5411 0.6450 0.3873
C21_3 C 0.4266(8) 0.5662(4) 0.3824(3)
H18_3 H 0.4393 0.5557 0.4164
H19_3 H 0.4330 0.5295 0.3634
C22_3 C 0.2795(9) 0.5944(4) 0.3754(4)
H20_3 H 0.2748 0.6316 0.3938
H21_3 H 0.2672 0.6045 0.3413
C23_3 C 0.0970(8) 0.5124(4) 0.3638(3)
H22_3 H 0.1159 0.5024 0.3316
C25_3 C 0.1015(7) 0.5554(4) 0.4351(3)
C26_3 C 0.1428(11) 0.5963(5) 0.4753(3)
H24_3 H 0.1194 0.5778 0.5059
H25_3 H 0.0918 0.6336 0.4722
H26_3 H 0.2440 0.6039 0.4739
H38_2 H 0.9823 0.7276 0.1257
Cd5 Cd 0.64916(7) 0.0000 0.0000
O7_2 O 0.7536(5) 0.0973(3) 0.0028(2)
H27_3 H 0.9288 0.1859 0.0090
Cd4 Cd 0.85084(7) 0.5000 0.5000
Cd5_2 Cd 0.64916(7) 0.0000 1.0000
O9_2 O 0.8236(7) 0.0373(3) 0.9447(3)
C27_3 C 0.8397(8) 0.0830(4) 0.9692(3)
C28_3 C 0.9692(7) 0.1225(3) 0.9596(3)
C29_3 C 0.9939(9) 0.1735(3) 0.9855(2)
C50_3 C 0.9988(9) 0.5131(3) 0.6070(3)
H49_3 H 0.9384 0.5446 0.6158
Cd5_3 Cd 0.64916(7) 1.0000 0.0000
Cd5_4 Cd 0.64916(7) 1.0000 1.0000
N8_2 N 0.4991(6) 0.0138(3) 0.06264(19)
O2_3 O 0.8236(7) 0.9627(3) 0.0553(3)
C1_3 C 0.8397(8) 0.9170(4) 0.0308(3)
C2_3 C 0.9692(7) 0.8775(3) 0.0404(3)
C3_3 C 0.9939(9) 0.8265(3) 0.0145(2)
C24_3 C 0.9988(9) 0.4869(3) 0.3930(3)
H23_3 H 0.9384 0.4554 0.3842
O1_3 O 0.7536(5) 0.9027(3) 0.9972(2)
H1_3 H 0.9288 0.8141 0.9910
N9_2 N 0.4991(6) 0.9862(3) 0.93736(19)
C24_4 C 0.5012(9) 0.0131(3) 0.8930(3)
H23_4 H 0.5616 0.0446 0.8842
H24_4 H 0.3806 0.9222 0.0059
N3_4 N 0.3369(6) 0.9443(3) 0.8904(2)
O1_4 O 0.7464(5) 0.5973(3) 0.4972(2)
O2_4 O 0.6764(7) 0.5373(3) 0.5553(3)
O3_4 O 0.1608(6) 0.7207(2) 0.55812(19)
C1_4 C 0.6603(8) 0.5830(4) 0.5308(3)
C2_4 C 0.5308(7) 0.6225(3) 0.5404(3)
C3_4 C 0.5061(9) 0.6735(3) 0.5145(2)
H1_4 H 0.5712 0.6859 0.4910
C4_4 C 0.3840(8) 0.7068(4) 0.5232(3)
H2_4 H 0.3684 0.7423 0.5061
C5_4 C 0.2862(8) 0.6881(3) 0.5566(3)
C6_4 C 0.3077(8) 0.6366(3) 0.5836(2)
H3_4 H 0.2410 0.6242 0.6066
C7_4 C 0.4333(8) 0.6036(3) 0.5752(3)
H4_4 H 0.4514 0.5689 0.5931
C8_4 C 0.0628(9) 0.7117(3) 0.5958(3)
H7_4 H 0.0077 0.7397 0.7089
C13_4 C 0.0940(8) 0.7274(4) 0.6421(3)
H8_4 H 0.1871 0.7383 0.6504
C21_4 C 0.0734(8) 0.9338(4) 0.8824(3)
H18_4 H 0.0607 0.9443 0.9164
H19_4 H 0.0670 0.9705 0.8634
C22_4 C 0.2205(9) 0.9056(4) 0.8754(4)
H20_4 H 0.2252 0.8684 0.8938
H21_4 H 0.2328 0.8955 0.8413
C23_4 C 0.4030(8) 0.9876(4) 0.8638(3)
H22_4 H 0.3841 0.9976 0.8316
C25_4 C 0.3985(7) 0.9446(4) 0.9351(3)
C26_4 C 0.3572(11) 0.9037(5) 0.9753(3)
H25_4 H 0.4082 0.8664 0.9722
H26_4 H 0.2560 0.8961 0.9739
O6_2 O 0.7464(5) 0.4027(3) 0.5028(2)
O8_2 O 0.6764(7) 0.4627(3) 0.4447(3)
N7_3 N 0.3369(6) 0.0557(3) 0.1096(2)
O10_3 O 0.1608(6) 0.2793(2) 0.44188(19)
C27_4 C 0.6603(8) 0.4170(4) 0.4692(3)
C28_4 C 0.5308(7) 0.3775(3) 0.4596(3)
C29_4 C 0.5061(9) 0.3265(3) 0.4855(2)
H27_4 H 0.5712 0.3141 0.5090
C30_3 C 0.3840(8) 0.2932(4) 0.4768(3)
H28_3 H 0.3684 0.2577 0.4939
C31_3 C 0.2862(8) 0.3119(3) 0.4434(3)
C32_3 C 0.3077(8) 0.3634(3) 0.4164(2)
H29_3 H 0.2410 0.3758 0.3934
C33_3 C 0.4333(8) 0.3964(3) 0.4248(3)
H30_3 H 0.4514 0.4311 0.4069
C34_3 C 0.0628(9) 0.2883(3) 0.4042(3)
H33_3 H 0.0077 0.2603 0.2911
C39_3 C 0.0940(8) 0.2726(4) 0.3579(3)
H34_3 H 0.1871 0.2617 0.3496
C47_3 C 0.0734(8) 0.0662(4) 0.1176(3)
H44_3 H 0.0607 0.0557 0.0836
H45_3 H 0.0670 0.0295 0.1366
C48_3 C 0.2205(9) 0.0944(4) 0.1246(4)
H46_3 H 0.2252 0.1316 0.1062
H47_3 H 0.2328 0.1045 0.1587
C49_3 C 0.4030(8) 0.0124(4) 0.1362(3)
H48_3 H 0.3841 0.0024 0.1684
C51_3 C 0.3985(7) 0.0554(4) 0.0649(3)
C52_3 C 0.3572(11) 0.0963(5) 0.0247(3)
H51_3 H 0.4082 0.1336 0.0278
H52_3 H 0.2560 0.1039 0.0261
H50_3 H 0.3806 0.0778 0.9941
C50_4 C 0.5012(9) 0.9869(3) 0.1070(3)
H49_4 H 0.5616 0.9554 0.1158
Cd2_4 Cd 0.0000 0.74404(3) 0.2500
H12_2 H 0.0177 0.7276 0.3743
N5_2 N 0.0596(6) 0.6833(3) 0.1857(2)
N6_2 N 0.1974(6) 0.6240(3) 0.1422(2)
N7_4 N 0.8369(6) 0.5557(3) 0.1096(2)
N10_2 N 0.9991(6) 0.5138(3) 0.06264(19)
O10_4 O 0.6608(6) 0.7793(2) 0.44188(19)
O11_2 O 0.1113(5) 0.8099(3) 0.3080(2)
O12_2 O 0.2492(6) 0.7514(4) 0.2619(2)
C30_4 C 0.8840(8) 0.7932(4) 0.4768(3)
H28_4 H 0.8684 0.7577 0.4939
C31_4 C 0.7862(8) 0.8119(3) 0.4434(3)
C32_4 C 0.8077(8) 0.8634(3) 0.4164(2)
H29_4 H 0.7410 0.8758 0.3934
C33_4 C 0.9333(8) 0.8964(3) 0.4248(3)
H30_4 H 0.9514 0.9311 0.4069
C34_4 C 0.5628(9) 0.7883(3) 0.4042(3)
C35_2 C 0.4287(9) 0.8092(4) 0.4161(3)
H31_2 H 0.4096 0.8229 0.4474
C36_2 C 0.3236(9) 0.8098(4) 0.3815(3)
H32_2 H 0.2322 0.8231 0.3896
C37_2 C 0.3513(7) 0.7910(3) 0.3349(2)
C38_2 C 0.4873(8) 0.7726(4) 0.3227(3)
H33_4 H 0.5077 0.7603 0.2911
C39_4 C 0.5940(8) 0.7726(4) 0.3579(3)
H34_4 H 0.6871 0.7617 0.3496
C40_2 C 0.2304(8) 0.7843(4) 0.2988(3)
C41_2 C 0.2023(13) 0.6079(5) 0.2327(3)
H35_2 H 0.1402 0.6188 0.2591
H36_2 H 0.2989 0.6194 0.2403
H37_2 H 0.1981 0.5652 0.2276
C42_2 C 0.1554(8) 0.6395(3) 0.1876(2)
C43_2 C 0.0427(7) 0.6977(3) 0.1375(2)
C44_2 C 0.1271(8) 0.6619(3) 0.1100(3)
H39_2 H 0.1361 0.6625 0.0763
C45_2 C 0.3095(8) 0.5822(4) 0.1296(3)
H40_2 H 0.2941 0.5680 0.0966
H41_2 H 0.3043 0.5476 0.1511
C46_2 C 0.4552(7) 0.6094(4) 0.1330(3)
H42_2 H 0.4722 0.6219 0.1663
H43_2 H 0.4589 0.6450 0.1127
C47_4 C 0.5734(8) 0.5662(4) 0.1176(3)
H44_4 H 0.5607 0.5557 0.0836
H45_4 H 0.5670 0.5295 0.1366
C48_4 C 0.7205(9) 0.5944(4) 0.1246(4)
H46_4 H 0.7252 0.6316 0.1062
H47_4 H 0.7328 0.6045 0.1587
C49_4 C 0.9030(8) 0.5124(4) 0.1362(3)
H48_4 H 0.8841 0.5024 0.1684
C51_4 C 0.8985(7) 0.5554(4) 0.0649(3)
C52_4 C 0.8572(11) 0.5963(5) 0.0247(3)
H51_4 H 0.9082 0.6336 0.0278
H52_4 H 0.7560 0.6039 0.0261
H50_4 H 0.8806 0.5778 0.9941
Cd2_5 Cd 0.5000 0.75596(3) 0.7500
N1_3 N 0.5596(6) 0.8167(3) 0.8143(2)
N2_3 N 0.6974(6) 0.8760(3) 0.8578(2)
O4_3 O 0.6113(5) 0.6901(3) 0.6920(2)
O5_3 O 0.7492(6) 0.7486(4) 0.7381(2)
C9_3 C 0.9287(9) 0.6908(4) 0.5839(3)
H5_3 H 0.9096 0.6771 0.5526
C10_3 C 0.8236(9) 0.6902(4) 0.6185(3)
H6_3 H 0.7322 0.6769 0.6104
C11_3 C 0.8513(7) 0.7090(3) 0.6651(2)
C12_3 C 0.9873(8) 0.7274(4) 0.6773(3)
C14_3 C 0.7304(8) 0.7157(4) 0.7012(3)
C15_3 C 0.7023(13) 0.8921(5) 0.7673(3)
H9_3 H 0.6402 0.8812 0.7409
H10_3 H 0.7989 0.8806 0.7597
H11_3 H 0.6981 0.9348 0.7724
C16_3 C 0.6554(8) 0.8605(3) 0.8124(2)
C17_3 C 0.5427(7) 0.8023(3) 0.8625(2)
H12_3 H 0.4823 0.7724 0.8743
C18_3 C 0.6271(8) 0.8381(3) 0.8900(3)
H13_3 H 0.6361 0.8375 0.9237
C19_3 C 0.8095(8) 0.9178(4) 0.8704(3)
H14_3 H 0.7941 0.9320 0.9034
H15_3 H 0.8043 0.9524 0.8489
C20_3 C 0.9552(7) 0.8906(4) 0.8670(3)
H16_3 H 0.9722 0.8781 0.8337
H17_3 H 0.9589 0.8550 0.8873
N5_3 N 0.4404(6) 0.8167(3) 0.6857(2)
N6_3 N 0.3026(6) 0.8760(3) 0.6422(2)
O11_3 O 0.3887(5) 0.6901(3) 0.8080(2)
O12_3 O 0.2508(6) 0.7486(4) 0.7619(2)
C35_3 C 0.0713(9) 0.6908(4) 0.9161(3)
H31_3 H 0.0904 0.6771 0.9474
C36_3 C 0.1764(9) 0.6902(4) 0.8815(3)
H32_3 H 0.2678 0.6769 0.8896
C37_3 C 0.1487(7) 0.7090(3) 0.8349(2)
C38_3 C 0.0127(8) 0.7274(4) 0.8227(3)
C40_3 C 0.2696(8) 0.7157(4) 0.7988(3)
C41_3 C 0.2977(13) 0.8921(5) 0.7327(3)
H35_3 H 0.3598 0.8812 0.7591
H36_3 H 0.2011 0.8806 0.7403
H37_3 H 0.3019 0.9348 0.7276
C42_3 C 0.3446(8) 0.8605(3) 0.6876(2)
C43_3 C 0.4573(7) 0.8023(3) 0.6375(2)
H38_3 H 0.5177 0.7724 0.6257
C44_3 C 0.3729(8) 0.8381(3) 0.6100(3)
H39_3 H 0.3639 0.8375 0.5763
C45_3 C 0.1905(8) 0.9178(4) 0.6296(3)
H40_3 H 0.2059 0.9320 0.5966
H41_3 H 0.1957 0.9524 0.6511
C46_3 C 0.0448(7) 0.8906(4) 0.6330(3)
H42_3 H 0.0278 0.8781 0.6663
H43_3 H 0.0411 0.8550 0.6127
Cd2_6 Cd 0.5000 0.24404(3) 0.2500
N1_4 N 0.4404(6) 0.1833(3) 0.3143(2)
N2_4 N 0.3026(6) 0.1240(3) 0.3578(2)
O4_4 O 0.3887(5) 0.3099(3) 0.1920(2)
O5_4 O 0.2508(6) 0.2514(4) 0.2381(2)
C9_4 C 0.0713(9) 0.3092(4) 0.0839(3)
H5_4 H 0.0904 0.3229 0.0526
C10_4 C 0.1764(9) 0.3098(4) 0.1185(3)
H6_4 H 0.2678 0.3231 0.1104
C11_4 C 0.1487(7) 0.2910(3) 0.1651(2)
C12_4 C 0.0127(8) 0.2726(4) 0.1773(3)
C14_4 C 0.2696(8) 0.2843(4) 0.2012(3)
C15_4 C 0.2977(13) 0.1079(5) 0.2673(3)
H9_4 H 0.3598 0.1188 0.2409
H10_4 H 0.2011 0.1194 0.2597
H11_4 H 0.3019 0.0652 0.2724
C16_4 C 0.3446(8) 0.1395(3) 0.3124(2)
C17_4 C 0.4573(7) 0.1977(3) 0.3625(2)
H12_4 H 0.5177 0.2276 0.3743
C18_4 C 0.3729(8) 0.1619(3) 0.3900(3)
H13_4 H 0.3639 0.1625 0.4237
C19_4 C 0.1905(8) 0.0822(4) 0.3704(3)
H14_4 H 0.2059 0.0680 0.4034
H15_4 H 0.1957 0.0476 0.3489
C20_4 C 0.0448(7) 0.1094(4) 0.3670(3)
H16_4 H 0.0278 0.1219 0.3337
H17_4 H 0.0411 0.1450 0.3873
N5_4 N 0.5596(6) 0.1833(3) 0.1857(2)
N6_4 N 0.6974(6) 0.1240(3) 0.1422(2)
O11_4 O 0.6113(5) 0.3099(3) 0.3080(2)
O12_4 O 0.7492(6) 0.2514(4) 0.2619(2)
C35_4 C 0.9287(9) 0.3092(4) 0.4161(3)
H31_4 H 0.9096 0.3229 0.4474
C36_4 C 0.8236(9) 0.3098(4) 0.3815(3)
H32_4 H 0.7322 0.3231 0.3896
C37_4 C 0.8513(7) 0.2910(3) 0.3349(2)
C38_4 C 0.9873(8) 0.2726(4) 0.3227(3)
C40_4 C 0.7304(8) 0.2843(4) 0.2988(3)
C41_4 C 0.7023(13) 0.1079(5) 0.2327(3)
H35_4 H 0.6402 0.1188 0.2591
H36_4 H 0.7989 0.1194 0.2403
H37_4 H 0.6981 0.0652 0.2276
C42_4 C 0.6554(8) 0.1395(3) 0.1876(2)
C43_4 C 0.5427(7) 0.1977(3) 0.1375(2)
H38_4 H 0.4823 0.2276 0.1257
C44_4 C 0.6271(8) 0.1619(3) 0.1100(3)
H39_4 H 0.6361 0.1625 0.0763
C45_4 C 0.8095(8) 0.0822(4) 0.1296(3)
H40_4 H 0.7941 0.0680 0.0966
H41_4 H 0.8043 0.0476 0.1511
C46_4 C 0.9552(7) 0.1094(4) 0.1330(3)
H42_4 H 0.9722 0.1219 0.1663
H43_4 H 0.9589 0.1450 0.1127
loop_
_geom_bond_atom_site_label_1
_geom_bond_atom_site_label_2
_geom_bond_site_symmetry_1
_geom_bond_site_symmetry_2
Cd1 O1 1_555 1_555
O1 C1 1_555 1_555
O2 Cd1 1_555 1_555
C1 O2 1_555 1_555
C2 C1 1_555 1_555
C3 C2 1_555 1_555
H1 C3 1_555 1_555
H23 C24 1_555 1_555
N9 Cd1 1_555 1_555
N8 Cd1_2 1_555 1_555
O6 Cd1_2 1_555 1_555
O8 Cd1_2 1_555 1_555
O6 C27 1_555 1_555
C27 O8 1_555 1_555
C28 C27 1_555 1_555
C29 C28 1_555 1_555
H27 C29 1_555 1_555
H49 C50 1_555 1_555
H49_2 C50_2 1_555 1_555
Cd3 O7 1_555 1_555
N7 C48 1_555 1_555
O9 Cd3_2 1_555 1_555
O10 C31 1_555 1_555
C27_2 O9 1_555 1_555
C28_2 C27_2 1_555 1_555
C29_2 C28_2 1_555 1_555
C30 C29_2 1_555 1_555
H28 C30 1_555 1_555
C31 C30 1_555 1_555
C32 C31 1_555 1_555
H29 C32 1_555 1_555
C33 C28_2 1_555 1_555
H30 C33 1_555 1_555
C34 O10 1_555 1_555
C39 C34 1_555 1_555
H34 C39 1_555 1_555
H44 C47 1_555 1_555
H45 C47 1_555 1_555
C48 C47 1_555 1_555
H46 C48 1_555 1_555
H47 C48 1_555 1_555
C49 N7 1_555 1_555
H48 C49 1_555 1_555
C51 N7 1_555 1_555
C52 C51 1_555 1_555
H50 C52 1_555 1_555
H51 C52 1_555 1_555
H52 C52 1_555 1_555
N8 C51 1_555 1_555
C32 C33 1_555 1_555
N3 C22 1_555 1_555
O2_2 Cd3 1_555 1_555
O3 C5 1_555 1_555
C1_2 O2_2 1_555 1_555
C2_2 C1_2 1_555 1_555
C3_2 C2_2 1_555 1_555
C4 C3_2 1_555 1_555
H2 C4 1_555 1_555
C5 C4 1_555 1_555
C6 C5 1_555 1_555
H3 C6 1_555 1_555
C7 C2_2 1_555 1_555
H4 C7 1_555 1_555
C8 O3 1_555 1_555
C13 C8 1_555 1_555
H8 C13 1_555 1_555
H18 C21 1_555 1_555
H19 C21 1_555 1_555
C22 C21 1_555 1_555
H20 C22 1_555 1_555
H21 C22 1_555 1_555
C23 N3 1_555 1_555
H22 C23 1_555 1_555
C25 N3 1_555 1_555
C26 C25 1_555 1_555
H24 C26 1_555 1_555
H25 C26 1_555 1_555
H26 C26 1_555 1_555
N9 C25 1_555 1_555
C6 C7 1_555 1_555
Cd3_2 O1_2 1_555 1_555
H23_2 C24_2 1_555 1_555
Cd2 N1 1_555 1_555
N1 C16 1_555 1_555
N2 C16 1_555 1_555
N3_2 C22_2 1_555 1_555
O3_2 C5_2 1_555 1_555
O4 Cd2 1_555 1_555
O5 Cd2 1_555 1_555
H2_2 C4_2 1_555 1_555
C5_2 C4_2 1_555 1_555
C6_2 C5_2 1_555 1_555
H3_2 C6_2 1_555 1_555
H4_2 C7_2 1_555 1_555
C8_2 O3_2 1_555 1_555
C9 C8_2 1_555 1_555
H5 C9 1_555 1_555
C10 C9 1_555 1_555
H6 C10 1_555 1_555
C11 C10 1_555 1_555
C12 C11 1_555 1_555
H7_2 C12 1_555 1_555
C13_2 C8_2 1_555 1_555
H8_2 C13_2 1_555 1_555
C14 O4 1_555 1_555
C15 H9 1_555 1_555
H10 C15 1_555 1_555
H11 C15 1_555 1_555
C16 C15 1_555 1_555
C17 N1 1_555 1_555
C18 N2 1_555 1_555
H13 C18 1_555 1_555
C19 N2 1_555 1_555
H14 C19 1_555 1_555
H15 C19 1_555 1_555
C20 C19 1_555 1_555
H16 C20 1_555 1_555
H17 C20 1_555 1_555
C21_2 C20 1_555 1_555
H18_2 C21_2 1_555 1_555
H19_2 C21_2 1_555 1_555
C22_2 C21_2 1_555 1_555
H20_2 C22_2 1_555 1_555
H21_2 C22_2 1_555 1_555
C23_2 N3_2 1_555 1_555
H22_2 C23_2 1_555 1_555
C25_2 N3_2 1_555 1_555
C26_2 C25_2 1_555 1_555
H25_2 C26_2 1_555 1_555
H26_2 C26_2 1_555 1_555
N4 C25_2 1_555 1_555
O5 C14 1_555 1_555
C6_2 C7_2 1_555 1_555
C11 C14 1_555 1_555
C12 C13_2 1_555 1_555
C17 C18 1_555 1_555
N5 Cd2_2 1_555 1_555
N6 C42 1_555 1_555
N7_2 C48_2 1_555 1_555
O10_2 C31_2 1_555 1_555
O11 Cd2_2 1_555 1_555
O12 Cd2_2 1_555 1_555
H28_2 C30_2 1_555 1_555
C31_2 C30_2 1_555 1_555
C32_2 C31_2 1_555 1_555
H29_2 C32_2 1_555 1_555
H30_2 C33_2 1_555 1_555
C34_2 O10_2 1_555 1_555
C35 C34_2 1_555 1_555
H31 C35 1_555 1_555
C36 C35 1_555 1_555
H32 C36 1_555 1_555
C37 C36 1_555 1_555
C38 C37 1_555 1_555
H33_2 C38 1_555 1_555
C39_2 C34_2 1_555 1_555
H34_2 C39_2 1_555 1_555
C40 O11 1_555 1_555
C41 H35 1_555 1_555
H36 C41 1_555 1_555
H37 C41 1_555 1_555
C42 N5 1_555 1_555
C43 N5 1_555 1_555
C44 N6 1_555 1_555
H39 C44 1_555 1_555
C45 N6 1_555 1_555
H40 C45 1_555 1_555
H41 C45 1_555 1_555
C46 C45 1_555 1_555
H42 C46 1_555 1_555
H43 C46 1_555 1_555
C47_2 C46 1_555 1_555
H44_2 C47_2 1_555 1_555
H45_2 C47_2 1_555 1_555
C48_2 C47_2 1_555 1_555
H46_2 C48_2 1_555 1_555
H47_2 C48_2 1_555 1_555
C49_2 N7_2 1_555 1_555
H48_2 C49_2 1_555 1_555
C51_2 N7_2 1_555 1_555
C52_2 C51_2 1_555 1_555
H50_2 C52_2 1_555 1_555
H51_2 C52_2 1_555 1_555
H52_2 C52_2 1_555 1_555
N10 C51_2 1_555 1_555
O12 C40 1_555 1_555
C32_2 C33_2 1_555 1_555
C37 C40 1_555 1_555
C38 C39_2 1_555 1_555
C41 C42 1_555 1_555
C43 C44 1_555 1_555
Cd2_3 N1_2 1_555 1_555
N1_2 C16_2 1_555 1_555
N2_2 C16_2 1_555 1_555
N3_3 C22_3 1_555 1_555
O3_3 C5_3 1_555 1_555
O4_2 Cd2_3 1_555 1_555
O5_2 Cd2_3 1_555 1_555
H2_3 C4_3 1_555 1_555
C5_3 C4_3 1_555 1_555
C6_3 C5_3 1_555 1_555
H3_3 C6_3 1_555 1_555
H4_3 C7_3 1_555 1_555
C8_3 O3_3 1_555 1_555
C9_2 C8_3 1_555 1_555
H5_2 C9_2 1_555 1_555
C10_2 C9_2 1_555 1_555
H6_2 C10_2 1_555 1_555
C11_2 C10_2 1_555 1_555
C12_2 C11_2 1_555 1_555
H7_3 C12_2 1_555 1_555
C13_3 C8_3 1_555 1_555
H8_3 C13_3 1_555 1_555
C14_2 O4_2 1_555 1_555
C15_2 H9_2 1_555 1_555
H10_2 C15_2 1_555 1_555
H11_2 C15_2 1_555 1_555
C16_2 C15_2 1_555 1_555
C17_2 N1_2 1_555 1_555
C18_2 N2_2 1_555 1_555
H13_2 C18_2 1_555 1_555
C19_2 N2_2 1_555 1_555
H14_2 C19_2 1_555 1_555
H15_2 C19_2 1_555 1_555
C20_2 C19_2 1_555 1_555
H16_2 C20_2 1_555 1_555
H17_2 C20_2 1_555 1_555
C21_3 C20_2 1_555 1_555
H18_3 C21_3 1_555 1_555
H19_3 C21_3 1_555 1_555
C22_3 C21_3 1_555 1_555
H20_3 C22_3 1_555 1_555
H21_3 C22_3 1_555 1_555
C23_3 N3_3 1_555 1_555
H22_3 C23_3 1_555 1_555
C25_3 N3_3 1_555 1_555
C26_3 C25_3 1_555 1_555
H24_3 C26_3 1_555 1_555
H25_3 C26_3 1_555 1_555
H26_3 C26_3 1_555 1_555
N4_2 C25_3 1_555 1_555
O5_2 C14_2 1_555 1_555
C6_3 C7_3 1_555 1_555
C11_2 C14_2 1_555 1_555
C12_2 C13_3 1_555 1_555
C17_2 C18_2 1_555 1_555
Cd5 O7_2 1_555 1_555
O9_2 Cd5_2 1_555 1_555
C27_3 O9_2 1_555 1_555
C28_3 C27_3 1_555 1_555
C29_3 C28_3 1_555 1_555
H49_3 C50_3 1_555 1_555
N8_2 Cd5 1_555 1_555
O2_3 Cd5_3 1_555 1_555
C1_3 O2_3 1_555 1_555
C2_3 C1_3 1_555 1_555
C3_3 C2_3 1_555 1_555
H23_3 C24_3 1_555 1_555
Cd5_4 O1_3 1_555 1_555
N9_2 Cd5_4 1_555 1_555
H23_4 C24_4 1_555 1_555
Cd4 O1_4 1_555 1_555
N3_4 C22_4 1_555 1_555
O1_4 C1_4 1_555 1_555
O2_4 Cd4 1_555 1_555
O3_4 C5_4 1_555 1_555
C1_4 O2_4 1_555 1_555
C2_4 C1_4 1_555 1_555
C3_4 C2_4 1_555 1_555
H1_4 C3_4 1_555 1_555
C4_4 C3_4 1_555 1_555
H2_4 C4_4 1_555 1_555
C5_4 C4_4 1_555 1_555
C6_4 C5_4 1_555 1_555
H3_4 C6_4 1_555 1_555
C7_4 C2_4 1_555 1_555
H4_4 C7_4 1_555 1_555
C8_4 O3_4 1_555 1_555
C13_4 C8_4 1_555 1_555
H8_4 C13_4 1_555 1_555
H18_4 C21_4 1_555 1_555
H19_4 C21_4 1_555 1_555
C22_4 C21_4 1_555 1_555
H20_4 C22_4 1_555 1_555
H21_4 C22_4 1_555 1_555
C23_4 N3_4 1_555 1_555
H22_4 C23_4 1_555 1_555
C25_4 N3_4 1_555 1_555
C26_4 C25_4 1_555 1_555
H25_4 C26_4 1_555 1_555
H26_4 C26_4 1_555 1_555
O6_2 Cd4 1_555 1_555
O8_2 Cd4 1_555 1_555
N9_2 C25_4 1_555 1_555
C6_4 C7_4 1_555 1_555
N7_3 C48_3 1_555 1_555
O6_2 C27_4 1_555 1_555
O10_3 C31_3 1_555 1_555
C27_4 O8_2 1_555 1_555
C28_4 C27_4 1_555 1_555
C29_4 C28_4 1_555 1_555
H27_4 C29_4 1_555 1_555
C30_3 C29_4 1_555 1_555
H28_3 C30_3 1_555 1_555
C31_3 C30_3 1_555 1_555
C32_3 C31_3 1_555 1_555
H29_3 C32_3 1_555 1_555
C33_3 C28_4 1_555 1_555
H30_3 C33_3 1_555 1_555
C34_3 O10_3 1_555 1_555
C39_3 C34_3 1_555 1_555
H34_3 C39_3 1_555 1_555
H44_3 C47_3 1_555 1_555
H45_3 C47_3 1_555 1_555
C48_3 C47_3 1_555 1_555
H46_3 C48_3 1_555 1_555
H47_3 C48_3 1_555 1_555
C49_3 N7_3 1_555 1_555
H48_3 C49_3 1_555 1_555
C51_3 N7_3 1_555 1_555
C52_3 C51_3 1_555 1_555
H51_3 C52_3 1_555 1_555
H52_3 C52_3 1_555 1_555
N8_2 C51_3 1_555 1_555
C32_3 C33_3 1_555 1_555
H49_4 C50_4 1_555 1_555
N5_2 Cd2_4 1_555 1_555
N6_2 C42_2 1_555 1_555
N7_4 C48_4 1_555 1_555
O10_4 C31_4 1_555 1_555
O11_2 Cd2_4 1_555 1_555
O12_2 Cd2_4 1_555 1_555
H28_4 C30_4 1_555 1_555
C31_4 C30_4 1_555 1_555
C32_4 C31_4 1_555 1_555
H29_4 C32_4 1_555 1_555
H30_4 C33_4 1_555 1_555
C34_4 O10_4 1_555 1_555
C35_2 C34_4 1_555 1_555
H31_2 C35_2 1_555 1_555
C36_2 C35_2 1_555 1_555
H32_2 C36_2 1_555 1_555
C37_2 C36_2 1_555 1_555
C38_2 C37_2 1_555 1_555
H33_4 C38_2 1_555 1_555
C39_4 C34_4 1_555 1_555
H34_4 C39_4 1_555 1_555
C40_2 O11_2 1_555 1_555
C41_2 H35_2 1_555 1_555
H36_2 C41_2 1_555 1_555
H37_2 C41_2 1_555 1_555
C42_2 N5_2 1_555 1_555
C43_2 N5_2 1_555 1_555
C44_2 N6_2 1_555 1_555
H39_2 C44_2 1_555 1_555
C45_2 N6_2 1_555 1_555
H40_2 C45_2 1_555 1_555
H41_2 C45_2 1_555 1_555
C46_2 C45_2 1_555 1_555
H42_2 C46_2 1_555 1_555
H43_2 C46_2 1_555 1_555
C47_4 C46_2 1_555 1_555
H44_4 C47_4 1_555 1_555
H45_4 C47_4 1_555 1_555
C48_4 C47_4 1_555 1_555
H46_4 C48_4 1_555 1_555
H47_4 C48_4 1_555 1_555
C49_4 N7_4 1_555 1_555
H48_4 C49_4 1_555 1_555
C51_4 N7_4 1_555 1_555
C52_4 C51_4 1_555 1_555
H51_4 C52_4 1_555 1_555
H52_4 C52_4 1_555 1_555
N10_2 C51_4 1_555 1_555
O12_2 C40_2 1_555 1_555
C32_4 C33_4 1_555 1_555
C37_2 C40_2 1_555 1_555
C38_2 C39_4 1_555 1_555
C41_2 C42_2 1_555 1_555
C43_2 C44_2 1_555 1_555
Cd2_5 N1_3 1_555 1_555
N1_3 C16_3 1_555 1_555
N2_3 C16_3 1_555 1_555
O4_3 Cd2_5 1_555 1_555
O5_3 Cd2_5 1_555 1_555
H5_3 C9_3 1_555 1_555
C10_3 C9_3 1_555 1_555
H6_3 C10_3 1_555 1_555
C11_3 C10_3 1_555 1_555
C12_3 C11_3 1_555 1_555
C14_3 O4_3 1_555 1_555
C15_3 H9_3 1_555 1_555
H10_3 C15_3 1_555 1_555
H11_3 C15_3 1_555 1_555
C16_3 C15_3 1_555 1_555
C17_3 N1_3 1_555 1_555
H12_3 C17_3 1_555 1_555
C18_3 N2_3 1_555 1_555
H13_3 C18_3 1_555 1_555
C19_3 N2_3 1_555 1_555
H14_3 C19_3 1_555 1_555
H15_3 C19_3 1_555 1_555
C20_3 C19_3 1_555 1_555
H16_3 C20_3 1_555 1_555
H17_3 C20_3 1_555 1_555
N5_3 Cd2_5 1_555 1_555
N6_3 C42_3 1_555 1_555
O11_3 Cd2_5 1_555 1_555
O12_3 Cd2_5 1_555 1_555
H31_3 C35_3 1_555 1_555
C36_3 C35_3 1_555 1_555
H32_3 C36_3 1_555 1_555
C37_3 C36_3 1_555 1_555
C38_3 C37_3 1_555 1_555
C40_3 O11_3 1_555 1_555
C41_3 H35_3 1_555 1_555
H36_3 C41_3 1_555 1_555
H37_3 C41_3 1_555 1_555
C42_3 N5_3 1_555 1_555
C43_3 N5_3 1_555 1_555
H38_3 C43_3 1_555 1_555
C44_3 N6_3 1_555 1_555
H39_3 C44_3 1_555 1_555
C45_3 N6_3 1_555 1_555
H40_3 C45_3 1_555 1_555
H41_3 C45_3 1_555 1_555
C46_3 C45_3 1_555 1_555
H42_3 C46_3 1_555 1_555
H43_3 C46_3 1_555 1_555
O5_3 C14_3 1_555 1_555
C11_3 C14_3 1_555 1_555
C17_3 C18_3 1_555 1_555
O12_3 C40_3 1_555 1_555
C37_3 C40_3 1_555 1_555
C41_3 C42_3 1_555 1_555
C43_3 C44_3 1_555 1_555
Cd2_6 N1_4 1_555 1_555
N1_4 C16_4 1_555 1_555
N2_4 C16_4 1_555 1_555
O4_4 Cd2_6 1_555 1_555
O5_4 Cd2_6 1_555 1_555
H5_4 C9_4 1_555 1_555
C10_4 C9_4 1_555 1_555
H6_4 C10_4 1_555 1_555
C11_4 C10_4 1_555 1_555
C12_4 C11_4 1_555 1_555
C14_4 O4_4 1_555 1_555
C15_4 H9_4 1_555 1_555
H10_4 C15_4 1_555 1_555
H11_4 C15_4 1_555 1_555
C16_4 C15_4 1_555 1_555
C17_4 N1_4 1_555 1_555
H12_4 C17_4 1_555 1_555
C18_4 N2_4 1_555 1_555
H13_4 C18_4 1_555 1_555
C19_4 N2_4 1_555 1_555
H14_4 C19_4 1_555 1_555
H15_4 C19_4 1_555 1_555
C20_4 C19_4 1_555 1_555
H16_4 C20_4 1_555 1_555
H17_4 C20_4 1_555 1_555
N5_4 Cd2_6 1_555 1_555
N6_4 C42_4 1_555 1_555
O11_4 Cd2_6 1_555 1_555
O12_4 Cd2_6 1_555 1_555
H31_4 C35_4 1_555 1_555
C36_4 C35_4 1_555 1_555
H32_4 C36_4 1_555 1_555
C37_4 C36_4 1_555 1_555
C38_4 C37_4 1_555 1_555
C40_4 O11_4 1_555 1_555
C41_4 H35_4 1_555 1_555
H36_4 C41_4 1_555 1_555
H37_4 C41_4 1_555 1_555
C42_4 N5_4 1_555 1_555
C43_4 N5_4 1_555 1_555
H38_4 C43_4 1_555 1_555
C44_4 N6_4 1_555 1_555
H39_4 C44_4 1_555 1_555
C45_4 N6_4 1_555 1_555
H40_4 C45_4 1_555 1_555
H41_4 C45_4 1_555 1_555
C46_4 C45_4 1_555 1_555
H42_4 C46_4 1_555 1_555
H43_4 C46_4 1_555 1_555
O5_4 C14_4 1_555 1_555
C11_4 C14_4 1_555 1_555
C17_4 C18_4 1_555 1_555
O12_4 C40_4 1_555 1_555
C37_4 C40_4 1_555 1_555
C41_4 C42_4 1_555 1_555
C43_4 C44_4 1_555 1_555

#END
