
###############################################################################
#
# This file contains modified crystal structure data generated from the
# MOF subset of the Cambridge Structural Database (CSD) v543 
# hosted by the Cambridge Crystallographic Data Centre (CCDC).
#
# This work is licensed under the Creative Commons
# Attribution-NonCommercial-ShareAlike 4.0 International License.
# To view a copy of this license, visit
# http://creativecommons.org/licenses/by-nc-sa/4.0/
# or send a letter to
# Creative Commons, PO Box 1866, Mountain View, CA 94042, USA.
#
# CIF created using the CSD Python API on 29 September 2022
# The structure has been converted into the P1 space group
# The structure has a 3D framework
# The original CSD entry MUVGOA is in the orthorhombic crystal system
# The framework has been calculated to contain at least 10.0% void space
# The void calculation uses a probe of radius 1.32A, grid spacing 0.4
#
###############################################################################

data_MUVGOA
_chemical_formula_moiety         '(C136 H64 N40 Zn3)n'
_symmetry_cell_setting           triclinic
_symmetry_space_group_name_H-M   'P 1'
_symmetry_Int_Tables_number      1
_space_group_name_Hall           'P 1'
loop_
_symmetry_equiv_pos_site_id
_symmetry_equiv_pos_as_xyz
1 x,y,z
_cell_length_a                   22.857(6)
_cell_length_b                   12.614(3)
_cell_length_c                   14.604(4)
_cell_angle_alpha                90
_cell_angle_beta                 90
_cell_angle_gamma                90
_cell_volume                     4210.6
loop_
_atom_site_label
_atom_site_type_symbol
_atom_site_fract_x
_atom_site_fract_y
_atom_site_fract_z
N5 N 0.04757(16) 0.1406(2) 0.1444(2)
C13 C 0.04053(13) 0.0916(2) 0.0795(2)
N3 N 0.04160(17) 0.1388(2) 0.8504(3)
C11 C 0.03302(15) 0.0237(2) 0.9979(2)
C12 C 0.03714(13) 0.0914(2) 0.9161(2)
Zn1 Zn 0.2500 0.5000 0.23858(3)
N1 N 0.25175(8) 0.6203(2) 0.13683(18)
N4 N 0.15505(11) 0.50331(15) 0.23996(16)
C3 C 0.23353(10) 0.65474(18) 0.07010(16)
C6 C 0.12414(11) 0.4147(2) 0.2234(2)
C7 C 0.06341(11) 0.4112(2) 0.22778(19)
C8 C 0.03251(12) 0.50335(16) 0.24770(18)
C9 C 0.14397(13) 0.8171(2) 0.07432(18)
C10 C 0.06457(11) 0.5954(2) 0.2634(2)
C16 C 0.12535(12) 0.5907(2) 0.2596(2)
C17 C 0.10248(14) 0.8962(2) 0.0765(2)
H1 H 0.096(2) 0.927(4) 0.138(3)
H2 H 0.1598(16) 0.799(2) 0.132(2)
H5 H 0.0491(12) 0.348(2) 0.2040(19)
H6 H 0.1436(11) 0.362(2) 0.2042(19)
H7 H 0.1454(13) 0.649(2) 0.276(2)
H8 H 0.0482(14) 0.659(2) 0.293(2)
N7 N 0.24825(8) 0.3797(2) 0.13683(18)
N9 N 0.25115(8) 0.6211(2) 0.34089(19)
N10 N 0.24885(8) 0.3789(2) 0.34089(19)
N13 N 0.34495(11) 0.49669(15) 0.23996(16)
N2 N 0.24885(8) 0.6211(2) 0.84089(19)
C1 C 0.13947(12) 0.8141(2) 0.91025(18)
C2 C 0.16429(11) 0.7757(2) 0.99172(15)
C4 C 0.23168(10) 0.65509(19) 0.90824(16)
C5 C 0.21048(11) 0.69682(19) 0.98986(15)
C14 C 0.09781(13) 0.8943(2) 0.9126(2)
C15 C 0.07940(14) 0.9365(2) 0.99568(19)
H3 H 0.1548(12) 0.790(2) 0.847(2)
H4 H 0.0811(17) 0.920(3) 0.851(3)
Zn2 Zn 0.2500 0.5000 0.73858(3)
Zn4 Zn 0.7500 0.5000 0.26142(3)
N8 N 0.75115(8) 0.3789(2) 0.15911(19)
C18 C 0.86053(12) 0.1859(2) 0.08975(18)
C19 C 0.83571(11) 0.2243(2) 0.00828(15)
C21 C 0.76832(10) 0.34491(19) 0.09176(16)
C22 C 0.78952(11) 0.30318(19) 0.01014(15)
C31 C 0.90219(13) 0.1057(2) 0.0874(2)
C32 C 0.92060(14) 0.0635(2) 0.00432(19)
H11 H 0.8452(12) 0.210(2) 0.153(2)
H12 H 0.9189(17) 0.080(3) 0.149(3)
Zn3 Zn 0.7500 0.5000 0.76142(3)
N6 N 0.74825(8) 0.3797(2) 0.86317(18)
C20 C 0.76647(10) 0.34526(18) 0.92990(16)
C26 C 0.85603(13) 0.1829(2) 0.92568(18)
C34 C 0.89752(14) 0.1038(2) 0.9235(2)
H9 H 0.904(2) 0.073(4) 0.862(3)
H10 H 0.8402(16) 0.201(2) 0.868(2)
N11 N 0.95840(17) 0.8612(2) 0.1496(3)
N12 N 0.84495(11) 0.50331(15) 0.26004(16)
C23 C 0.87586(11) 0.4147(2) 0.2766(2)
C24 C 0.93659(11) 0.4112(2) 0.27222(19)
C25 C 0.96749(12) 0.50335(16) 0.25230(18)
C27 C 0.93543(11) 0.5954(2) 0.2366(2)
C28 C 0.96698(15) 0.9763(2) 0.0021(2)
C29 C 0.96286(13) 0.9086(2) 0.0839(2)
C33 C 0.87465(12) 0.5907(2) 0.2404(2)
H13 H 0.9509(12) 0.348(2) 0.2960(19)
H14 H 0.8564(11) 0.362(2) 0.2958(19)
H15 H 0.8546(13) 0.649(2) 0.224(2)
H16 H 0.9518(14) 0.659(2) 0.207(2)
C3_2 C 0.26647(10) 0.34526(18) 0.07010(16)
C6_2 C 0.37586(11) 0.5853(2) 0.2234(2)
C7_2 C 0.43659(11) 0.5888(2) 0.22778(19)
C8_2 C 0.46749(12) 0.49665(16) 0.24770(18)
C9_2 C 0.35603(13) 0.1829(2) 0.07432(18)
C10_2 C 0.43543(11) 0.4046(2) 0.2634(2)
C16_2 C 0.37465(12) 0.4093(2) 0.2596(2)
C17_2 C 0.39752(14) 0.1038(2) 0.0765(2)
H1_2 H 0.404(2) 0.073(4) 0.138(3)
H2_2 H 0.3402(16) 0.201(2) 0.132(2)
H5_2 H 0.4509(12) 0.652(2) 0.2040(19)
H6_2 H 0.3564(11) 0.638(2) 0.2042(19)
H7_2 H 0.3546(13) 0.351(2) 0.276(2)
H8_2 H 0.4518(14) 0.341(2) 0.293(2)
N11_2 N 0.54160(17) 0.1388(2) 0.1496(3)
N12_2 N 0.65505(11) 0.49669(15) 0.26004(16)
C23_2 C 0.62414(11) 0.5853(2) 0.2766(2)
C24_2 C 0.56341(11) 0.5888(2) 0.27222(19)
C25_2 C 0.53251(12) 0.49665(16) 0.25230(18)
C27_2 C 0.56457(11) 0.4046(2) 0.2366(2)
C28_2 C 0.53302(15) 0.0237(2) 0.0021(2)
C29_2 C 0.53714(13) 0.0914(2) 0.0839(2)
C33_2 C 0.62535(12) 0.4093(2) 0.2404(2)
H13_2 H 0.5491(12) 0.652(2) 0.2960(19)
H14_2 H 0.6436(11) 0.638(2) 0.2958(19)
H15_2 H 0.6454(13) 0.351(2) 0.224(2)
H16_2 H 0.5482(14) 0.341(2) 0.207(2)
N2_2 N 0.25115(8) 0.3789(2) 0.84089(19)
C1_2 C 0.36053(12) 0.1859(2) 0.91025(18)
C2_2 C 0.33571(11) 0.2243(2) 0.99172(15)
C4_2 C 0.26832(10) 0.34491(19) 0.90824(16)
C5_2 C 0.28952(11) 0.30318(19) 0.98986(15)
C14_2 C 0.40219(13) 0.1057(2) 0.9126(2)
C15_2 C 0.42060(14) 0.0635(2) 0.99568(19)
H3_2 H 0.3452(12) 0.210(2) 0.847(2)
H4_2 H 0.4189(17) 0.080(3) 0.851(3)
N14 N 0.54757(16) 0.1406(2) 0.8556(2)
C30 C 0.54053(13) 0.0916(2) 0.9205(2)
N5_2 N 0.45243(16) 0.8594(2) 0.1444(2)
C13_2 C 0.45947(13) 0.9084(2) 0.0795(2)
N8_2 N 0.74885(8) 0.6211(2) 0.15911(19)
C18_2 C 0.63947(12) 0.8141(2) 0.08975(18)
C19_2 C 0.66429(11) 0.7757(2) 0.00828(15)
C21_2 C 0.73168(10) 0.65509(19) 0.09176(16)
C22_2 C 0.71048(11) 0.69682(19) 0.01014(15)
C31_2 C 0.59781(13) 0.8943(2) 0.0874(2)
C32_2 C 0.57940(14) 0.9365(2) 0.00432(19)
H11_2 H 0.6548(12) 0.790(2) 0.153(2)
H12_2 H 0.5811(17) 0.920(3) 0.149(3)
N3_2 N 0.45840(17) 0.8612(2) 0.8504(3)
C11_2 C 0.46698(15) 0.9763(2) 0.9979(2)
C12_2 C 0.46286(13) 0.9086(2) 0.9161(2)
N6_2 N 0.75175(8) 0.6203(2) 0.86317(18)
C20_2 C 0.73353(10) 0.65474(18) 0.92990(16)
C26_2 C 0.64397(13) 0.8171(2) 0.92568(18)
C34_2 C 0.60248(14) 0.8962(2) 0.9235(2)
H9_2 H 0.596(2) 0.927(4) 0.862(3)
H10_2 H 0.6598(16) 0.799(2) 0.868(2)
N1_2 N 0.75175(8) 0.3797(2) 0.36317(18)
N2_3 N 0.74885(8) 0.3789(2) 0.65911(19)
C1_3 C 0.63947(12) 0.1859(2) 0.58975(18)
C2_3 C 0.66429(11) 0.2243(2) 0.50828(15)
C3_3 C 0.73353(10) 0.34526(18) 0.42990(16)
C4_3 C 0.73168(10) 0.34491(19) 0.59176(16)
C5_3 C 0.71048(11) 0.30318(19) 0.51014(15)
C9_3 C 0.64397(13) 0.1829(2) 0.42568(18)
C14_3 C 0.59781(13) 0.1057(2) 0.5874(2)
C15_3 C 0.57940(14) 0.0635(2) 0.50432(19)
C17_3 C 0.60248(14) 0.1038(2) 0.4235(2)
H1_3 H 0.596(2) 0.073(4) 0.362(3)
H2_3 H 0.6598(16) 0.201(2) 0.368(2)
H3_3 H 0.6548(12) 0.210(2) 0.653(2)
H4_3 H 0.5811(17) 0.080(3) 0.649(3)
N7_2 N 0.74825(8) 0.6203(2) 0.36317(18)
N11_3 N 0.45840(17) 0.1388(2) 0.3504(3)
N14_2 N 0.45243(16) 0.1406(2) 0.6444(2)
C28_3 C 0.46698(15) 0.0237(2) 0.4979(2)
C29_3 C 0.46286(13) 0.0914(2) 0.4161(2)
C30_2 C 0.45947(13) 0.0916(2) 0.5795(2)
N3_3 N 0.54160(17) 0.8612(2) 0.6496(3)
N5_3 N 0.54757(16) 0.8594(2) 0.3556(2)
C11_3 C 0.53302(15) 0.9763(2) 0.5021(2)
C12_3 C 0.53714(13) 0.9086(2) 0.5839(2)
C13_3 C 0.54053(13) 0.9084(2) 0.4205(2)
N6_3 N 0.24825(8) 0.6203(2) 0.63683(18)
C18_3 C 0.36053(12) 0.8141(2) 0.41025(18)
C19_3 C 0.33571(11) 0.7757(2) 0.49172(15)
C20_3 C 0.26647(10) 0.65474(18) 0.57010(16)
C21_3 C 0.26832(10) 0.65509(19) 0.40824(16)
C22_3 C 0.28952(11) 0.69682(19) 0.48986(15)
C26_3 C 0.35603(13) 0.8171(2) 0.57432(18)
C31_3 C 0.40219(13) 0.8943(2) 0.4126(2)
C32_3 C 0.42060(14) 0.9365(2) 0.49568(19)
C34_3 C 0.39752(14) 0.8962(2) 0.5765(2)
H9_3 H 0.404(2) 0.927(4) 0.638(3)
H10_3 H 0.3402(16) 0.799(2) 0.632(2)
H11_3 H 0.3452(12) 0.790(2) 0.347(2)
H12_3 H 0.4189(17) 0.920(3) 0.351(3)
N6_4 N 0.25175(8) 0.3797(2) 0.63683(18)
C18_4 C 0.13947(12) 0.1859(2) 0.41025(18)
C19_4 C 0.16429(11) 0.2243(2) 0.49172(15)
C20_4 C 0.23353(10) 0.34526(18) 0.57010(16)
C21_4 C 0.23168(10) 0.34491(19) 0.40824(16)
C22_4 C 0.21048(11) 0.30318(19) 0.48986(15)
C26_4 C 0.14397(13) 0.1829(2) 0.57432(18)
C31_4 C 0.09781(13) 0.1057(2) 0.4126(2)
C32_4 C 0.07940(14) 0.0635(2) 0.49568(19)
C34_4 C 0.10248(14) 0.1038(2) 0.5765(2)
H9_4 H 0.096(2) 0.073(4) 0.638(3)
H10_4 H 0.1598(16) 0.201(2) 0.632(2)
H11_4 H 0.1548(12) 0.210(2) 0.347(2)
H12_4 H 0.0811(17) 0.080(3) 0.351(3)
N11_4 N 0.04160(17) 0.8612(2) 0.3504(3)
N14_3 N 0.04757(16) 0.8594(2) 0.6444(2)
C28_4 C 0.03302(15) 0.9763(2) 0.4979(2)
C29_4 C 0.03714(13) 0.9086(2) 0.4161(2)
C30_3 C 0.04053(13) 0.9084(2) 0.5795(2)
N3_4 N 0.95840(17) 0.1388(2) 0.6496(3)
N5_4 N 0.95243(16) 0.1406(2) 0.3556(2)
C11_4 C 0.96698(15) 0.0237(2) 0.5021(2)
C12_4 C 0.96286(13) 0.0914(2) 0.5839(2)
C13_4 C 0.95947(13) 0.0916(2) 0.4205(2)
N2_4 N 0.75115(8) 0.6211(2) 0.65911(19)
C1_4 C 0.86053(12) 0.8141(2) 0.58975(18)
C2_4 C 0.83571(11) 0.7757(2) 0.50828(15)
C3_4 C 0.76647(10) 0.65474(18) 0.42990(16)
C4_4 C 0.76832(10) 0.65509(19) 0.59176(16)
C5_4 C 0.78952(11) 0.69682(19) 0.51014(15)
C9_4 C 0.85603(13) 0.8171(2) 0.42568(18)
C14_4 C 0.90219(13) 0.8943(2) 0.5874(2)
C15_4 C 0.92060(14) 0.9365(2) 0.50432(19)
C17_4 C 0.89752(14) 0.8962(2) 0.4235(2)
H1_4 H 0.904(2) 0.927(4) 0.362(3)
H2_4 H 0.8402(16) 0.799(2) 0.368(2)
H3_4 H 0.8452(12) 0.790(2) 0.653(2)
H4_4 H 0.9189(17) 0.920(3) 0.649(3)
N12_3 N 0.15505(11) 0.49669(15) 0.73996(16)
C23_3 C 0.12414(11) 0.5853(2) 0.7234(2)
C24_3 C 0.06341(11) 0.5888(2) 0.72778(19)
C25_3 C 0.03251(12) 0.49665(16) 0.74770(18)
C27_3 C 0.06457(11) 0.4046(2) 0.7634(2)
C33_3 C 0.12535(12) 0.4093(2) 0.7596(2)
H13_3 H 0.0491(12) 0.652(2) 0.7040(19)
H14_3 H 0.1436(11) 0.638(2) 0.7042(19)
H15_3 H 0.1454(13) 0.351(2) 0.776(2)
H16_3 H 0.0482(14) 0.341(2) 0.793(2)
N4_2 N 0.84495(11) 0.49669(15) 0.76004(16)
C6_3 C 0.87586(11) 0.5853(2) 0.7766(2)
C7_3 C 0.93659(11) 0.5888(2) 0.77222(19)
C8_3 C 0.96749(12) 0.49665(16) 0.75230(18)
C10_3 C 0.93543(11) 0.4046(2) 0.7366(2)
C16_3 C 0.87465(12) 0.4093(2) 0.7404(2)
H5_3 H 0.9509(12) 0.652(2) 0.7960(19)
H6_3 H 0.8564(11) 0.638(2) 0.7958(19)
H7_3 H 0.8546(13) 0.351(2) 0.724(2)
H8_3 H 0.9518(14) 0.341(2) 0.707(2)
N13_2 N 0.65505(11) 0.50331(15) 0.76004(16)
C6_4 C 0.62414(11) 0.4147(2) 0.7766(2)
C7_4 C 0.56341(11) 0.4112(2) 0.77222(19)
C8_4 C 0.53251(12) 0.50335(16) 0.75230(18)
C10_4 C 0.56457(11) 0.5954(2) 0.7366(2)
C16_4 C 0.62535(12) 0.5907(2) 0.7404(2)
H5_4 H 0.5491(12) 0.348(2) 0.7960(19)
H6_4 H 0.6436(11) 0.362(2) 0.7958(19)
H7_4 H 0.6454(13) 0.649(2) 0.724(2)
H8_4 H 0.5482(14) 0.659(2) 0.707(2)
N12_4 N 0.34495(11) 0.50331(15) 0.73996(16)
C23_4 C 0.37586(11) 0.4147(2) 0.7234(2)
C24_4 C 0.43659(11) 0.4112(2) 0.72778(19)
C25_4 C 0.46749(12) 0.50335(16) 0.74770(18)
C27_4 C 0.43543(11) 0.5954(2) 0.7634(2)
C33_4 C 0.37465(12) 0.5907(2) 0.7596(2)
H13_4 H 0.4509(12) 0.348(2) 0.7040(19)
H14_4 H 0.3564(11) 0.362(2) 0.7042(19)
H15_4 H 0.3546(13) 0.649(2) 0.776(2)
H16_4 H 0.4518(14) 0.659(2) 0.793(2)
N14_4 N 0.95243(16) 0.8594(2) 0.8556(2)
C30_4 C 0.95947(13) 0.9084(2) 0.9205(2)
loop_
_geom_bond_atom_site_label_1
_geom_bond_atom_site_label_2
_geom_bond_site_symmetry_1
_geom_bond_site_symmetry_2
N5 C13 1_555 1_555
N3 C12 1_555 1_555
C11 C12 1_555 1_555
Zn1 N1 1_555 1_555
N1 C3 1_555 1_555
N4 Zn1 1_555 1_555
C6 N4 1_555 1_555
C7 C6 1_555 1_555
C8 C7 1_555 1_555
C10 C8 1_555 1_555
C16 N4 1_555 1_555
C17 C9 1_555 1_555
H1 C17 1_555 1_555
H2 C9 1_555 1_555
H5 C7 1_555 1_555
H6 C6 1_555 1_555
H7 C16 1_555 1_555
H8 C10 1_555 1_555
N7 Zn1 1_555 1_555
N9 Zn1 1_555 1_555
N10 Zn1 1_555 1_555
N13 Zn1 1_555 1_555
C10 C16 1_555 1_555
N2 C4 1_555 1_555
C1 C2 1_555 1_555
C2 C5 1_555 1_555
C4 C5 1_555 1_555
C14 C1 1_555 1_555
H3 C1 1_555 1_555
H4 C14 1_555 1_555
Zn2 N2 1_555 1_555
C14 C15 1_555 1_555
Zn4 N8 1_555 1_555
N8 C21 1_555 1_555
C18 C19 1_555 1_555
C19 C22 1_555 1_555
C21 C22 1_555 1_555
C31 C18 1_555 1_555
H11 C18 1_555 1_555
H12 C31 1_555 1_555
C31 C32 1_555 1_555
Zn3 N6 1_555 1_555
N6 C20 1_555 1_555
C34 C26 1_555 1_555
H9 C34 1_555 1_555
H10 C26 1_555 1_555
Zn4 N12 1_555 1_555
N11 C29 1_555 1_555
N12 C23 1_555 1_555
C23 C24 1_555 1_555
C24 C25 1_555 1_555
C27 C25 1_555 1_555
C29 C28 1_555 1_555
C33 N12 1_555 1_555
H13 C24 1_555 1_555
H14 C23 1_555 1_555
H15 C33 1_555 1_555
H16 C27 1_555 1_555
C27 C33 1_555 1_555
N7 C3_2 1_555 1_555
C6_2 N13 1_555 1_555
C7_2 C6_2 1_555 1_555
C8_2 C7_2 1_555 1_555
C10_2 C8_2 1_555 1_555
C16_2 N13 1_555 1_555
C17_2 C9_2 1_555 1_555
H1_2 C17_2 1_555 1_555
H2_2 C9_2 1_555 1_555
H5_2 C7_2 1_555 1_555
H6_2 C6_2 1_555 1_555
H7_2 C16_2 1_555 1_555
H8_2 C10_2 1_555 1_555
Zn4 N12_2 1_555 1_555
N11_2 C29_2 1_555 1_555
N12_2 C23_2 1_555 1_555
C23_2 C24_2 1_555 1_555
C24_2 C25_2 1_555 1_555
C25_2 C8_2 1_555 1_555
C27_2 C25_2 1_555 1_555
C29_2 C28_2 1_555 1_555
C33_2 N12_2 1_555 1_555
H13_2 C24_2 1_555 1_555
H14_2 C23_2 1_555 1_555
H15_2 C33_2 1_555 1_555
H16_2 C27_2 1_555 1_555
C10_2 C16_2 1_555 1_555
C27_2 C33_2 1_555 1_555
N2_2 C4_2 1_555 1_555
C1_2 C2_2 1_555 1_555
C2_2 C5_2 1_555 1_555
C4_2 C5_2 1_555 1_555
C14_2 C1_2 1_555 1_555
H3_2 C1_2 1_555 1_555
H4_2 C14_2 1_555 1_555
Zn2 N2_2 1_555 1_555
N14 C30 1_555 1_555
C14_2 C15_2 1_555 1_555
N5_2 C13_2 1_555 1_555
Zn4 N8_2 1_555 1_555
N8_2 C21_2 1_555 1_555
C18_2 C19_2 1_555 1_555
C19_2 C22_2 1_555 1_555
C21_2 C22_2 1_555 1_555
C31_2 C18_2 1_555 1_555
H11_2 C18_2 1_555 1_555
H12_2 C31_2 1_555 1_555
C31_2 C32_2 1_555 1_555
N3_2 C12_2 1_555 1_555
C11_2 C12_2 1_555 1_555
Zn3 N6_2 1_555 1_555
N6_2 C20_2 1_555 1_555
C34_2 C26_2 1_555 1_555
H9_2 C34_2 1_555 1_555
H10_2 C26_2 1_555 1_555
Zn4 N1_2 1_555 1_555
N1_2 C3_3 1_555 1_555
N2_3 C4_3 1_555 1_555
C1_3 C2_3 1_555 1_555
C2_3 C5_3 1_555 1_555
C3_3 C5_3 1_555 1_555
C4_3 C5_3 1_555 1_555
C9_3 C2_3 1_555 1_555
C14_3 C1_3 1_555 1_555
C17_3 C9_3 1_555 1_555
H1_3 C17_3 1_555 1_555
H2_3 C9_3 1_555 1_555
H3_3 C1_3 1_555 1_555
H4_3 C14_3 1_555 1_555
Zn3 N2_3 1_555 1_555
N7_2 Zn4 1_555 1_555
N11_3 C29_3 1_555 1_555
N14_2 C30_2 1_555 1_555
C29_3 C28_3 1_555 1_555
C30_2 C28_3 1_555 1_555
C14_3 C15_3 1_555 1_555
C15_3 C17_3 1_555 1_555
N3_3 C12_3 1_555 1_555
N5_3 C13_3 1_555 1_555
C11_3 C12_3 1_555 1_555
C13_3 C11_3 1_555 1_555
Zn2 N6_3 1_555 1_555
N6_3 C20_3 1_555 1_555
N9 C21_3 1_555 1_555
C18_3 C19_3 1_555 1_555
C19_3 C22_3 1_555 1_555
C20_3 C22_3 1_555 1_555
C21_3 C22_3 1_555 1_555
C26_3 C19_3 1_555 1_555
C31_3 C18_3 1_555 1_555
C34_3 C26_3 1_555 1_555
H9_3 C34_3 1_555 1_555
H10_3 C26_3 1_555 1_555
H11_3 C18_3 1_555 1_555
H12_3 C31_3 1_555 1_555
C31_3 C32_3 1_555 1_555
C32_3 C34_3 1_555 1_555
Zn2 N6_4 1_555 1_555
N6_4 C20_4 1_555 1_555
N10 C21_4 1_555 1_555
C18_4 C19_4 1_555 1_555
C19_4 C22_4 1_555 1_555
C20_4 C22_4 1_555 1_555
C21_4 C22_4 1_555 1_555
C26_4 C19_4 1_555 1_555
C31_4 C18_4 1_555 1_555
C34_4 C26_4 1_555 1_555
H9_4 C34_4 1_555 1_555
H10_4 C26_4 1_555 1_555
H11_4 C18_4 1_555 1_555
H12_4 C31_4 1_555 1_555
C31_4 C32_4 1_555 1_555
C32_4 C34_4 1_555 1_555
N11_4 C29_4 1_555 1_555
N14_3 C30_3 1_555 1_555
C29_4 C28_4 1_555 1_555
C30_3 C28_4 1_555 1_555
N3_4 C12_4 1_555 1_555
N5_4 C13_4 1_555 1_555
C11_4 C12_4 1_555 1_555
C13_4 C11_4 1_555 1_555
N7_2 C3_4 1_555 1_555
N2_4 C4_4 1_555 1_555
C1_4 C2_4 1_555 1_555
C2_4 C5_4 1_555 1_555
C3_4 C5_4 1_555 1_555
C4_4 C5_4 1_555 1_555
C9_4 C2_4 1_555 1_555
C14_4 C1_4 1_555 1_555
C17_4 C9_4 1_555 1_555
H1_4 C17_4 1_555 1_555
H2_4 C9_4 1_555 1_555
H3_4 C1_4 1_555 1_555
H4_4 C14_4 1_555 1_555
Zn3 N2_4 1_555 1_555
C14_4 C15_4 1_555 1_555
C15_4 C17_4 1_555 1_555
Zn2 N12_3 1_555 1_555
N12_3 C23_3 1_555 1_555
C23_3 C24_3 1_555 1_555
C24_3 C25_3 1_555 1_555
C27_3 C25_3 1_555 1_555
C33_3 N12_3 1_555 1_555
H13_3 C24_3 1_555 1_555
H14_3 C23_3 1_555 1_555
H15_3 C33_3 1_555 1_555
H16_3 C27_3 1_555 1_555
C27_3 C33_3 1_555 1_555
N4_2 Zn3 1_555 1_555
C6_3 N4_2 1_555 1_555
C7_3 C6_3 1_555 1_555
C8_3 C7_3 1_555 1_555
C10_3 C8_3 1_555 1_555
C16_3 N4_2 1_555 1_555
H5_3 C7_3 1_555 1_555
H6_3 C6_3 1_555 1_555
H7_3 C16_3 1_555 1_555
H8_3 C10_3 1_555 1_555
N13_2 Zn3 1_555 1_555
C10_3 C16_3 1_555 1_555
C6_4 N13_2 1_555 1_555
C7_4 C6_4 1_555 1_555
C8_4 C7_4 1_555 1_555
C10_4 C8_4 1_555 1_555
C16_4 N13_2 1_555 1_555
H5_4 C7_4 1_555 1_555
H6_4 C6_4 1_555 1_555
H7_4 C16_4 1_555 1_555
H8_4 C10_4 1_555 1_555
Zn2 N12_4 1_555 1_555
N12_4 C23_4 1_555 1_555
C23_4 C24_4 1_555 1_555
C24_4 C25_4 1_555 1_555
C25_4 C8_4 1_555 1_555
C27_4 C25_4 1_555 1_555
C33_4 N12_4 1_555 1_555
H13_4 C24_4 1_555 1_555
H14_4 C23_4 1_555 1_555
H15_4 C33_4 1_555 1_555
H16_4 C27_4 1_555 1_555
C10_4 C16_4 1_555 1_555
C27_4 C33_4 1_555 1_555
N14_4 C30_4 1_555 1_555

#END
