
###############################################################################
#
# This file contains modified crystal structure data generated from the
# MOF subset of the Cambridge Structural Database (CSD) v543 
# hosted by the Cambridge Crystallographic Data Centre (CCDC).
#
# This work is licensed under the Creative Commons
# Attribution-NonCommercial-ShareAlike 4.0 International License.
# To view a copy of this license, visit
# http://creativecommons.org/licenses/by-nc-sa/4.0/
# or send a letter to
# Creative Commons, PO Box 1866, Mountain View, CA 94042, USA.
#
# CIF created using the CSD Python API on 29 September 2022
# The structure has been converted into the P1 space group
# The structure has a 3D framework
# The original CSD entry MUVHER is in the orthorhombic crystal system
# The framework has been calculated to contain at least 10.0% void space
# The void calculation uses a probe of radius 1.32A, grid spacing 0.4
#
###############################################################################

data_MUVHER
_chemical_formula_moiety         '(C80 H32 N24 Zn5)n'
_symmetry_cell_setting           triclinic
_symmetry_space_group_name_H-M   'P 1'
_symmetry_Int_Tables_number      1
_space_group_name_Hall           'P 1'
loop_
_symmetry_equiv_pos_site_id
_symmetry_equiv_pos_as_xyz
1 x,y,z
_cell_length_a                   11.3749(17)
_cell_length_b                   12.7239(19)
_cell_length_c                   14.801(2)
_cell_angle_alpha                90
_cell_angle_beta                 90
_cell_angle_gamma                90
_cell_volume                     2142.19
loop_
_atom_site_label
_atom_site_type_symbol
_atom_site_fract_x
_atom_site_fract_y
_atom_site_fract_z
Zn5 Zn 0.0000 0.0000 0.7500
Zn5_2 Zn 0.0000 1.0000 0.7500
Zn4 Zn 0.0000 0.0000 0.2500
N3 N 0.1886(2) 0.0000 0.7500
C5 C 0.3716(2) 0.0916(2) 0.76352(19)
C6 C 0.2497(2) 0.0884(2) 0.76273(19)
C9 C 0.4350(2) 0.0000 0.7500
H1 H 0.4113 0.1564 0.7732
H2 H 0.2076 0.1520 0.7717
Zn5_3 Zn 1.0000 0.0000 0.7500
N12 N 0.0019(2) 0.11900(17) 0.64706(15)
N13 N 0.8114(2) 0.0000 0.7500
C22 C 0.6284(2) 0.0916(2) 0.73648(19)
C25 C 0.7503(2) 0.0884(2) 0.73727(19)
C30 C 0.5650(2) 0.0000 0.7500
H6 H 0.5887 0.1564 0.7268
H9 H 0.7924 0.1520 0.7283
Zn4_2 Zn 0.0000 1.0000 0.2500
N3_2 N 0.1886(2) 1.0000 0.7500
C9_2 C 0.4350(2) 1.0000 0.7500
Zn5_4 Zn 1.0000 1.0000 0.7500
N10 N 0.0019(2) 0.88100(17) 0.85294(15)
N13_2 N 0.8114(2) 1.0000 0.7500
C20 C 0.3716(2) 0.9084(2) 0.73648(19)
C21 C 0.6284(2) 0.9084(2) 0.76352(19)
C23 C 0.2497(2) 0.9116(2) 0.73727(19)
C24 C 0.7503(2) 0.9116(2) 0.76273(19)
C30_2 C 0.5650(2) 1.0000 0.7500
H5 H 0.4113 0.8436 0.7268
H7 H 0.5887 0.8436 0.7732
H8 H 0.2076 0.8480 0.7283
H10 H 0.7924 0.8480 0.7717
C1 C 0.8236(3) 0.2701(3) 0.0000
C3 C 0.5670(4) 0.5206(3) 0.0000
C7 C 0.6569(4) 0.4322(3) 0.0000
C11 C 0.9148(3) 0.1903(2) 0.0000
Zn4_3 Zn 1.0000 0.0000 0.2500
N5 N 0.4040(3) 0.3617(2) 0.1428(3)
N6 N 0.5960(3) 0.6383(2) 0.1428(3)
N8 N 0.0019(2) 0.88100(17) 0.14706(15)
N9 N 0.9981(2) 0.11900(17) 0.14706(15)
C12 C 0.1764(3) 0.7299(3) 0.0000
C14 C 0.0392(2) 0.84939(19) 0.08053(18)
C15 C 0.9608(2) 0.15061(19) 0.08053(18)
C16 C 0.4330(4) 0.4794(3) 0.0000
C18 C 0.4181(3) 0.4112(2) 0.0806(2)
C19 C 0.5819(3) 0.5888(2) 0.0806(2)
C26 C 0.3431(4) 0.5678(3) 0.0000
C28 C 0.2219(2) 0.6892(2) 0.0807(2)
C29 C 0.7781(2) 0.3108(2) 0.0807(2)
C32 C 0.3023(3) 0.6097(2) 0.0804(2)
C33 C 0.6977(3) 0.3903(2) 0.0804(2)
C34 C 0.0852(3) 0.8097(2) 0.0000
H11 H 0.1961 0.7175 0.1367
H13 H 0.8039 0.2825 0.1367
H14 H 0.3307 0.5826 0.1361
H16 H 0.6693 0.4174 0.1361
N1 N 0.5960(3) 0.6383(2) 0.8572(3)
N2 N 0.9981(2) 0.11900(17) 0.85294(15)
C1_2 C 0.8236(3) 0.2701(3) 1.0000
C2 C 0.9608(2) 0.15061(19) 0.91947(18)
C3_2 C 0.5670(4) 0.5206(3) 1.0000
C4 C 0.5819(3) 0.5888(2) 0.9194(2)
C7_2 C 0.6569(4) 0.4322(3) 1.0000
C8 C 0.7781(2) 0.3108(2) 0.9193(2)
C10 C 0.6977(3) 0.3903(2) 0.9196(2)
C11_2 C 0.9148(3) 0.1903(2) 1.0000
H3 H 0.8039 0.2825 0.8633
H4 H 0.6693 0.4174 0.8639
N4 N 0.4040(3) 0.3617(2) 0.8572(3)
C12_2 C 0.1764(3) 0.7299(3) 1.0000
C13 C 0.0392(2) 0.84939(19) 0.91947(18)
C16_2 C 0.4330(4) 0.4794(3) 1.0000
C17 C 0.4181(3) 0.4112(2) 0.9194(2)
C26_2 C 0.3431(4) 0.5678(3) 1.0000
C27 C 0.2219(2) 0.6892(2) 0.9193(2)
C31 C 0.3023(3) 0.6097(2) 0.9196(2)
C34_2 C 0.0852(3) 0.8097(2) 1.0000
H12 H 0.1961 0.7175 0.8633
H15 H 0.3307 0.5826 0.8639
Zn4_4 Zn 1.0000 1.0000 0.2500
N11 N 0.9981(2) 0.88100(17) 0.64706(15)
N1_2 N 0.5960(3) 0.3617(2) 0.6428(3)
C1_3 C 0.8236(3) 0.7299(3) 0.5000
C2_2 C 0.9608(2) 0.84939(19) 0.58053(18)
C3_3 C 0.5670(4) 0.4794(3) 0.5000
C4_2 C 0.5819(3) 0.4112(2) 0.5806(2)
C7_3 C 0.6569(4) 0.5678(3) 0.5000
C8_2 C 0.7781(2) 0.6892(2) 0.5807(2)
C10_2 C 0.6977(3) 0.6097(2) 0.5804(2)
C11_3 C 0.9148(3) 0.8097(2) 0.5000
H3_2 H 0.8039 0.7175 0.6367
H4_2 H 0.6693 0.5826 0.6361
N4_2 N 0.4040(3) 0.6383(2) 0.6428(3)
N5_2 N 0.4040(3) 0.6383(2) 0.3572(3)
N6_2 N 0.5960(3) 0.3617(2) 0.3572(3)
N8_2 N 0.0019(2) 0.11900(17) 0.35294(15)
N9_2 N 0.9981(2) 0.88100(17) 0.35294(15)
C12_3 C 0.1764(3) 0.2701(3) 0.5000
C13_2 C 0.0392(2) 0.15061(19) 0.58053(18)
C14_2 C 0.0392(2) 0.15061(19) 0.41947(18)
C15_2 C 0.9608(2) 0.84939(19) 0.41947(18)
C16_3 C 0.4330(4) 0.5206(3) 0.5000
C17_2 C 0.4181(3) 0.5888(2) 0.5806(2)
C18_2 C 0.4181(3) 0.5888(2) 0.4194(2)
C19_2 C 0.5819(3) 0.4112(2) 0.4194(2)
C26_3 C 0.3431(4) 0.4322(3) 0.5000
C27_2 C 0.2219(2) 0.3108(2) 0.5807(2)
C28_2 C 0.2219(2) 0.3108(2) 0.4193(2)
C29_2 C 0.7781(2) 0.6892(2) 0.4193(2)
C31_2 C 0.3023(3) 0.3903(2) 0.5804(2)
C32_2 C 0.3023(3) 0.3903(2) 0.4196(2)
C33_2 C 0.6977(3) 0.6097(2) 0.4196(2)
C34_3 C 0.0852(3) 0.1903(2) 0.5000
H11_2 H 0.1961 0.2825 0.3633
H12_2 H 0.1961 0.2825 0.6367
H13_2 H 0.8039 0.7175 0.3633
H14_2 H 0.3307 0.4174 0.3639
H15_2 H 0.3307 0.4174 0.6361
H16_2 H 0.6693 0.5826 0.3639
N14 N 0.1886(2) 0.0000 0.2500
N14_2 N 0.1886(2) 1.0000 0.2500
N3_3 N 0.8114(2) 0.0000 0.2500
C9_3 C 0.5650(2) 0.0000 0.2500
C20_2 C 0.6284(2) 0.0916(2) 0.26352(19)
C21_2 C 0.3716(2) 0.0916(2) 0.23648(19)
C23_2 C 0.7503(2) 0.0884(2) 0.26273(19)
C24_2 C 0.2497(2) 0.0884(2) 0.23727(19)
C30_3 C 0.4350(2) 0.0000 0.2500
H5_2 H 0.5887 0.1564 0.2732
H7_2 H 0.4113 0.1564 0.2268
H8_2 H 0.7924 0.1520 0.2717
H10_2 H 0.2076 0.1520 0.2283
N3_4 N 0.8114(2) 1.0000 0.2500
C5_2 C 0.6284(2) 0.9084(2) 0.23648(19)
C6_2 C 0.7503(2) 0.9116(2) 0.23727(19)
C9_4 C 0.5650(2) 1.0000 0.2500
H1_2 H 0.5887 0.8436 0.2268
H2_2 H 0.7924 0.8480 0.2283
C22_2 C 0.3716(2) 0.9084(2) 0.26352(19)
C25_2 C 0.2497(2) 0.9116(2) 0.26273(19)
C30_4 C 0.4350(2) 1.0000 0.2500
H6_2 H 0.4113 0.8436 0.2732
H9_2 H 0.2076 0.8480 0.2717
loop_
_geom_bond_atom_site_label_1
_geom_bond_atom_site_label_2
_geom_bond_site_symmetry_1
_geom_bond_site_symmetry_2
N3 Zn5 1_555 1_555
C5 C6 1_555 1_555
C6 N3 1_555 1_555
C9 C5 1_555 1_555
H1 C5 1_555 1_555
H2 C6 1_555 1_555
Zn5_3 N13 1_555 1_555
N12 Zn5 1_555 1_555
C22 C25 1_555 1_555
C25 N13 1_555 1_555
C30 C9 1_555 1_555
H6 C22 1_555 1_555
H9 C25 1_555 1_555
C22 C30 1_555 1_555
N3_2 Zn5_2 1_555 1_555
Zn5_4 N13_2 1_555 1_555
N10 Zn5_2 1_555 1_555
N13_2 C24 1_555 1_555
C20 C9_2 1_555 1_555
C21 C24 1_555 1_555
C23 N3_2 1_555 1_555
C24 H10 1_555 1_555
C30_2 C9_2 1_555 1_555
H5 C20 1_555 1_555
H7 C21 1_555 1_555
H8 C23 1_555 1_555
C20 C23 1_555 1_555
C21 C30_2 1_555 1_555
C7 C3 1_555 1_555
C11 C1 1_555 1_555
Zn4_2 N8 1_555 1_555
Zn4_3 N9 1_555 1_555
N5 C18 1_555 1_555
N6 C19 1_555 1_555
N8 C14 1_555 1_555
N9 C15 1_555 1_555
C14 C34 1_555 1_555
C15 C11 1_555 1_555
C16 C3 1_555 1_555
C18 C16 1_555 1_555
C19 C3 1_555 1_555
C26 C16 1_555 1_555
C28 C12 1_555 1_555
C29 C1 1_555 1_555
C32 C26 1_555 1_555
C33 C7 1_555 1_555
C34 C12 1_555 1_555
H11 C28 1_555 1_555
H13 C29 1_555 1_555
H14 C32 1_555 1_555
H16 C33 1_555 1_555
C28 C32 1_555 1_555
C29 C33 1_555 1_555
Zn5_3 N2 1_555 1_555
N1 C4 1_555 1_555
N2 C2 1_555 1_555
C1_2 C8 1_555 1_555
C2 C11_2 1_555 1_555
C3_2 C4 1_555 1_555
C7_2 C3_2 1_555 1_555
C8 C10 1_555 1_555
C10 C7_2 1_555 1_555
C11_2 C1_2 1_555 1_555
H3 C8 1_555 1_555
H4 C10 1_555 1_555
N4 C17 1_555 1_555
N10 C13 1_555 1_555
C12_2 C27 1_555 1_555
C13 C34_2 1_555 1_555
C16_2 C3_2 1_555 1_555
C17 C16_2 1_555 1_555
C26_2 C16_2 1_555 1_555
C27 C31 1_555 1_555
C31 C26_2 1_555 1_555
C34_2 C12_2 1_555 1_555
H12 C27 1_555 1_555
H15 C31 1_555 1_555
N11 Zn5_4 1_555 1_555
N1_2 C4_2 1_555 1_555
N11 C2_2 1_555 1_555
C1_3 C8_2 1_555 1_555
C2_2 C11_3 1_555 1_555
C3_3 C4_2 1_555 1_555
C7_3 C3_3 1_555 1_555
C8_2 C10_2 1_555 1_555
C10_2 C7_3 1_555 1_555
C11_3 C1_3 1_555 1_555
H3_2 C8_2 1_555 1_555
H4_2 C10_2 1_555 1_555
Zn4 N8_2 1_555 1_555
Zn4_4 N9_2 1_555 1_555
N4_2 C17_2 1_555 1_555
N5_2 C18_2 1_555 1_555
N6_2 C19_2 1_555 1_555
N12 C13_2 1_555 1_555
N8_2 C14_2 1_555 1_555
N9_2 C15_2 1_555 1_555
C12_3 C27_2 1_555 1_555
C13_2 C34_3 1_555 1_555
C14_2 C34_3 1_555 1_555
C15_2 C11_3 1_555 1_555
C16_3 C3_3 1_555 1_555
C17_2 C16_3 1_555 1_555
C18_2 C16_3 1_555 1_555
C19_2 C3_3 1_555 1_555
C26_3 C16_3 1_555 1_555
C27_2 C31_2 1_555 1_555
C28_2 C12_3 1_555 1_555
C29_2 C1_3 1_555 1_555
C31_2 C26_3 1_555 1_555
C32_2 C26_3 1_555 1_555
C33_2 C7_3 1_555 1_555
C34_3 C12_3 1_555 1_555
H11_2 C28_2 1_555 1_555
H12_2 C27_2 1_555 1_555
H13_2 C29_2 1_555 1_555
H14_2 C32_2 1_555 1_555
H15_2 C31_2 1_555 1_555
H16_2 C33_2 1_555 1_555
C28_2 C32_2 1_555 1_555
C29_2 C33_2 1_555 1_555
N14 Zn4 1_555 1_555
N14_2 Zn4_2 1_555 1_555
N3_3 Zn4_3 1_555 1_555
N14 C24_2 1_555 1_555
C20_2 C9_3 1_555 1_555
C21_2 C24_2 1_555 1_555
C23_2 N3_3 1_555 1_555
C24_2 H10_2 1_555 1_555
C30_3 C9_3 1_555 1_555
H5_2 C20_2 1_555 1_555
H7_2 C21_2 1_555 1_555
H8_2 C23_2 1_555 1_555
C20_2 C23_2 1_555 1_555
C21_2 C30_3 1_555 1_555
N3_4 Zn4_4 1_555 1_555
C5_2 C6_2 1_555 1_555
C6_2 N3_4 1_555 1_555
C9_4 C5_2 1_555 1_555
H1_2 C5_2 1_555 1_555
H2_2 C6_2 1_555 1_555
C22_2 C25_2 1_555 1_555
C25_2 N14_2 1_555 1_555
C30_4 C9_4 1_555 1_555
H6_2 C22_2 1_555 1_555
H9_2 C25_2 1_555 1_555
C22_2 C30_4 1_555 1_555

#END
