
###############################################################################
#
# This file contains modified crystal structure data generated from the
# MOF subset of the Cambridge Structural Database (CSD) v543 
# hosted by the Cambridge Crystallographic Data Centre (CCDC).
#
# This work is licensed under the Creative Commons
# Attribution-NonCommercial-ShareAlike 4.0 International License.
# To view a copy of this license, visit
# http://creativecommons.org/licenses/by-nc-sa/4.0/
# or send a letter to
# Creative Commons, PO Box 1866, Mountain View, CA 94042, USA.
#
# CIF created using the CSD Python API on 29 September 2022
# The structure has been converted into the P1 space group
# The structure has a 3D framework
# The original CSD entry MUVHAN is in the orthorhombic crystal system
# The framework has been calculated to contain at least 10.0% void space
# The void calculation uses a probe of radius 1.32A, grid spacing 0.4
#
###############################################################################

data_MUVHAN
_chemical_formula_moiety         '(C76 H32 N20 Zn2)n'
_symmetry_cell_setting           triclinic
_symmetry_space_group_name_H-M   'P 1'
_symmetry_Int_Tables_number      1
_space_group_name_Hall           'P 1'
loop_
_symmetry_equiv_pos_site_id
_symmetry_equiv_pos_as_xyz
1 x,y,z
_cell_length_a                   11.4341(13)
_cell_length_b                   12.5791(14)
_cell_length_c                   14.7759(14)
_cell_angle_alpha                90
_cell_angle_beta                 90
_cell_angle_gamma                90
_cell_volume                     2125.23
loop_
_atom_site_label
_atom_site_type_symbol
_atom_site_fract_x
_atom_site_fract_y
_atom_site_fract_z
C10 C 0.0660(3) 0.0236(2) 0.0000
N14 N 0.0892(3) 0.1408(2) 0.1447(2)
C34 C 0.0786(2) 0.0907(2) 0.0810(2)
N3 N 0.0892(3) 0.1408(2) 0.8553(2)
C10_2 C 0.0660(3) 0.0236(2) 1.0000
C11 C 0.0786(2) 0.0907(2) 0.9190(2)
C5 C 0.4148(2) 0.6894(2) 0.0000
C6 C 0.3236(2) 0.7700(2) 0.0000
C9 C 0.1583(3) 0.9352(2) 0.0000
Zn3 Zn 0.5000 0.5000 0.2500
N6 N 0.49899(13) 0.62019(18) 0.14765(16)
C19 C 0.46158(17) 0.65101(16) 0.08035(14)
C24 C 0.2793(2) 0.8111(2) 0.08133(16)
C27 C 0.1986(2) 0.8934(2) 0.08143(19)
H5 H 0.3033 0.7821 0.1361
H8 H 0.1714 0.9209 0.1359
Zn1 Zn 0.5000 0.5000 0.7500
N1 N 0.3103(2) 0.5000 0.7500
N2 N 0.49899(13) 0.62019(18) 0.85235(16)
C1 C 0.0649(2) 0.5000 0.7500
C2 C 0.12814(18) 0.59222(17) 0.73187(17)
C3 C 0.24978(19) 0.58832(18) 0.73201(17)
C4 C 0.46158(17) 0.65101(16) 0.91965(14)
C5_2 C 0.4148(2) 0.6894(2) 1.0000
C6_2 C 0.3236(2) 0.7700(2) 1.0000
C7 C 0.2793(2) 0.8111(2) 0.91867(16)
C8 C 0.1986(2) 0.8934(2) 0.91857(19)
C9_2 C 0.1583(3) 0.9352(2) 1.0000
H1 H 0.3033 0.7821 0.8639
H2 H 0.1714 0.9209 0.8641
H3 H 0.0894 0.6556 0.7196
H4 H 0.2907 0.6504 0.7192
N5 N 0.6897(2) 0.5000 0.7500
N9 N 0.50101(13) 0.37981(18) 0.85235(16)
N10 N 0.49899(13) 0.37981(18) 0.64765(16)
N11 N 0.50101(13) 0.62019(18) 0.64765(16)
C15 C 0.12814(18) 0.40778(17) 0.76813(17)
C18 C 0.24978(19) 0.41168(18) 0.76799(17)
H13 H 0.0894 0.3444 0.7804
H16 H 0.2907 0.3496 0.7808
N8 N 0.50101(13) 0.37981(18) 0.14765(16)
C21 C 0.53842(17) 0.34899(16) 0.08035(14)
C22 C 0.5852(2) 0.3106(2) 0.0000
C23 C 0.6764(2) 0.2300(2) 0.0000
C26 C 0.7207(2) 0.1889(2) 0.08133(16)
C29 C 0.8014(2) 0.1066(2) 0.08143(19)
C30 C 0.8417(3) 0.0648(2) 0.0000
H6 H 0.6967 0.2179 0.1361
H9 H 0.8286 0.0791 0.1359
C20 C 0.53842(17) 0.34899(16) 0.91965(14)
C22_2 C 0.5852(2) 0.3106(2) 1.0000
C23_2 C 0.6764(2) 0.2300(2) 1.0000
C25 C 0.7207(2) 0.1889(2) 0.91867(16)
C28 C 0.8014(2) 0.1066(2) 0.91857(19)
C30_2 C 0.8417(3) 0.0648(2) 1.0000
H7 H 0.6967 0.2179 0.8639
H10 H 0.8286 0.0791 0.8641
N13 N 0.9108(3) 0.8592(2) 0.1447(2)
C31 C 0.9340(3) 0.9764(2) 0.0000
C33 C 0.9214(2) 0.9093(2) 0.0810(2)
N12 N 0.9108(3) 0.8592(2) 0.8553(2)
C12 C 0.9351(2) 0.5000 0.7500
C13 C 0.87186(18) 0.40778(17) 0.73187(17)
C14 C 0.87186(18) 0.59222(17) 0.76813(17)
C16 C 0.75022(19) 0.41168(18) 0.73201(17)
C17 C 0.75022(19) 0.58832(18) 0.76799(17)
C31_2 C 0.9340(3) 0.9764(2) 1.0000
C32 C 0.9214(2) 0.9093(2) 0.9190(2)
H11 H 0.9106 0.6556 0.7804
H12 H 0.9106 0.3444 0.7196
H14 H 0.7093 0.6504 0.7808
H15 H 0.7093 0.3496 0.7192
C4_2 C 0.46158(17) 0.34899(16) 0.58035(14)
C5_3 C 0.4148(2) 0.3106(2) 0.5000
C6_3 C 0.3236(2) 0.2300(2) 0.5000
C7_2 C 0.2793(2) 0.1889(2) 0.58133(16)
C8_2 C 0.1986(2) 0.1066(2) 0.58143(19)
C9_3 C 0.1583(3) 0.0648(2) 0.5000
H1_2 H 0.3033 0.2179 0.6361
H2_2 H 0.1714 0.0791 0.6359
N6_2 N 0.49899(13) 0.37981(18) 0.35235(16)
C19_2 C 0.46158(17) 0.34899(16) 0.41965(14)
C24_2 C 0.2793(2) 0.1889(2) 0.41867(16)
C27_2 C 0.1986(2) 0.1066(2) 0.41857(19)
H5_2 H 0.3033 0.2179 0.3639
H8_2 H 0.1714 0.0791 0.3641
N3_2 N 0.0892(3) 0.8592(2) 0.6447(2)
C10_3 C 0.0660(3) 0.9764(2) 0.5000
C11_2 C 0.0786(2) 0.9093(2) 0.5810(2)
N14_2 N 0.0892(3) 0.8592(2) 0.3553(2)
C34_2 C 0.0786(2) 0.9093(2) 0.4190(2)
N12_2 N 0.9108(3) 0.1408(2) 0.6447(2)
N13_2 N 0.9108(3) 0.1408(2) 0.3553(2)
C31_3 C 0.9340(3) 0.0236(2) 0.5000
C32_2 C 0.9214(2) 0.0907(2) 0.5810(2)
C33_2 C 0.9214(2) 0.0907(2) 0.4190(2)
N8_2 N 0.50101(13) 0.62019(18) 0.35235(16)
C20_2 C 0.53842(17) 0.65101(16) 0.58035(14)
C21_2 C 0.53842(17) 0.65101(16) 0.41965(14)
C22_3 C 0.5852(2) 0.6894(2) 0.5000
C23_3 C 0.6764(2) 0.7700(2) 0.5000
C25_2 C 0.7207(2) 0.8111(2) 0.58133(16)
C26_2 C 0.7207(2) 0.8111(2) 0.41867(16)
C28_2 C 0.8014(2) 0.8934(2) 0.58143(19)
C29_2 C 0.8014(2) 0.8934(2) 0.41857(19)
C30_3 C 0.8417(3) 0.9352(2) 0.5000
H6_2 H 0.6967 0.7821 0.3639
H7_2 H 0.6967 0.7821 0.6361
H9_2 H 0.8286 0.9209 0.3641
H10_2 H 0.8286 0.9209 0.6359
N4 N 0.3103(2) 0.5000 0.2500
C12_2 C 0.0649(2) 0.5000 0.2500
C13_2 C 0.12814(18) 0.59222(17) 0.26813(17)
C14_2 C 0.12814(18) 0.40778(17) 0.23187(17)
C16_2 C 0.24978(19) 0.58832(18) 0.26799(17)
C17_2 C 0.24978(19) 0.41168(18) 0.23201(17)
H11_2 H 0.0894 0.3444 0.2196
H12_2 H 0.0894 0.6556 0.2804
H14_2 H 0.2907 0.3496 0.2192
H15_2 H 0.2907 0.6504 0.2808
N1_2 N 0.6897(2) 0.5000 0.2500
C1_2 C 0.9351(2) 0.5000 0.2500
C2_2 C 0.87186(18) 0.40778(17) 0.26813(17)
C3_2 C 0.75022(19) 0.41168(18) 0.26799(17)
H3_2 H 0.9106 0.3444 0.2804
H4_2 H 0.7093 0.3496 0.2808
C15_2 C 0.87186(18) 0.59222(17) 0.23187(17)
C18_2 C 0.75022(19) 0.58832(18) 0.23201(17)
H13_2 H 0.9106 0.6556 0.2196
H16_2 H 0.7093 0.6504 0.2192
loop_
_geom_bond_atom_site_label_1
_geom_bond_atom_site_label_2
_geom_bond_site_symmetry_1
_geom_bond_site_symmetry_2
N14 C34 1_555 1_555
C34 C10 1_555 1_555
N3 C11 1_555 1_555
C11 C10_2 1_555 1_555
C6 C5 1_555 1_555
Zn3 N6 1_555 1_555
N6 C19 1_555 1_555
C19 C5 1_555 1_555
C24 C6 1_555 1_555
C27 C9 1_555 1_555
H5 C24 1_555 1_555
H8 C27 1_555 1_555
C24 C27 1_555 1_555
Zn1 N1 1_555 1_555
N1 C3 1_555 1_555
N2 Zn1 1_555 1_555
C1 C2 1_555 1_555
C2 C3 1_555 1_555
C3 H4 1_555 1_555
C4 N2 1_555 1_555
C5_2 C4 1_555 1_555
C6_2 C5_2 1_555 1_555
C7 C6_2 1_555 1_555
C8 C7 1_555 1_555
C9_2 C8 1_555 1_555
H1 C7 1_555 1_555
H2 C8 1_555 1_555
H3 C2 1_555 1_555
N5 Zn1 1_555 1_555
N9 Zn1 1_555 1_555
N10 Zn1 1_555 1_555
N11 Zn1 1_555 1_555
C15 C1 1_555 1_555
C18 N1 1_555 1_555
H13 C15 1_555 1_555
H16 C18 1_555 1_555
C15 C18 1_555 1_555
Zn3 N8 1_555 1_555
N8 C21 1_555 1_555
C21 C22 1_555 1_555
C22 C23 1_555 1_555
C26 C23 1_555 1_555
C29 C26 1_555 1_555
C30 C29 1_555 1_555
H6 C26 1_555 1_555
H9 C29 1_555 1_555
N9 C20 1_555 1_555
C20 C22_2 1_555 1_555
C22_2 C23_2 1_555 1_555
C23_2 C25 1_555 1_555
C25 C28 1_555 1_555
C28 C30_2 1_555 1_555
H7 C25 1_555 1_555
H10 C28 1_555 1_555
N13 C33 1_555 1_555
C33 C31 1_555 1_555
N5 C16 1_555 1_555
N12 C32 1_555 1_555
C13 C12 1_555 1_555
C14 C12 1_555 1_555
C16 C13 1_555 1_555
C17 N5 1_555 1_555
C32 C31_2 1_555 1_555
H11 C14 1_555 1_555
H12 C13 1_555 1_555
H14 C17 1_555 1_555
H15 C16 1_555 1_555
C14 C17 1_555 1_555
C4_2 N10 1_555 1_555
C5_3 C4_2 1_555 1_555
C6_3 C5_3 1_555 1_555
C7_2 C6_3 1_555 1_555
C8_2 C7_2 1_555 1_555
C9_3 C8_2 1_555 1_555
H1_2 C7_2 1_555 1_555
H2_2 C8_2 1_555 1_555
Zn3 N6_2 1_555 1_555
N6_2 C19_2 1_555 1_555
C19_2 C5_3 1_555 1_555
C24_2 C6_3 1_555 1_555
C27_2 C9_3 1_555 1_555
H5_2 C24_2 1_555 1_555
H8_2 C27_2 1_555 1_555
C24_2 C27_2 1_555 1_555
N3_2 C11_2 1_555 1_555
C11_2 C10_3 1_555 1_555
N14_2 C34_2 1_555 1_555
C34_2 C10_3 1_555 1_555
N12_2 C32_2 1_555 1_555
N13_2 C33_2 1_555 1_555
C32_2 C31_3 1_555 1_555
C33_2 C31_3 1_555 1_555
Zn3 N8_2 1_555 1_555
N11 C20_2 1_555 1_555
N8_2 C21_2 1_555 1_555
C20_2 C22_3 1_555 1_555
C21_2 C22_3 1_555 1_555
C22_3 C23_3 1_555 1_555
C23_3 C25_2 1_555 1_555
C25_2 C28_2 1_555 1_555
C26_2 C23_3 1_555 1_555
C28_2 C30_3 1_555 1_555
C29_2 C26_2 1_555 1_555
C30_3 C29_2 1_555 1_555
H6_2 C26_2 1_555 1_555
H7_2 C25_2 1_555 1_555
H9_2 C29_2 1_555 1_555
H10_2 C28_2 1_555 1_555
Zn3 N4 1_555 1_555
N4 C16_2 1_555 1_555
C13_2 C12_2 1_555 1_555
C14_2 C12_2 1_555 1_555
C16_2 C13_2 1_555 1_555
C17_2 N4 1_555 1_555
H11_2 C14_2 1_555 1_555
H12_2 C13_2 1_555 1_555
H14_2 C17_2 1_555 1_555
H15_2 C16_2 1_555 1_555
C14_2 C17_2 1_555 1_555
Zn3 N1_2 1_555 1_555
N1_2 C3_2 1_555 1_555
C1_2 C2_2 1_555 1_555
C2_2 C3_2 1_555 1_555
C3_2 H4_2 1_555 1_555
H3_2 C2_2 1_555 1_555
C15_2 C1_2 1_555 1_555
C18_2 N1_2 1_555 1_555
H13_2 C15_2 1_555 1_555
H16_2 C18_2 1_555 1_555
C15_2 C18_2 1_555 1_555

#END
