
###############################################################################
#
# This file contains modified crystal structure data generated from the
# MOF subset of the Cambridge Structural Database (CSD) v543 
# hosted by the Cambridge Crystallographic Data Centre (CCDC).
#
# This work is licensed under the Creative Commons
# Attribution-NonCommercial-ShareAlike 4.0 International License.
# To view a copy of this license, visit
# http://creativecommons.org/licenses/by-nc-sa/4.0/
# or send a letter to
# Creative Commons, PO Box 1866, Mountain View, CA 94042, USA.
#
# CIF created using the CSD Python API on 29 September 2022
# The structure has been converted into the P1 space group
# The structure has a 3D framework
# The original CSD entry MUVLUM is in the triclinic crystal system
# The framework has been calculated to contain at least 10.0% void space
# The void calculation uses a probe of radius 1.32A, grid spacing 0.4
# The framework is charged, counterions have been retained in the structure
#
###############################################################################

data_MUVLUM
_chemical_formula_moiety         '(C64 H60 N8 O30 S6 Zn4)n'
_symmetry_cell_setting           triclinic
_symmetry_space_group_name_H-M   'P 1'
_symmetry_Int_Tables_number      1
_space_group_name_Hall           'P 1'
loop_
_symmetry_equiv_pos_site_id
_symmetry_equiv_pos_as_xyz
1 x,y,z
_cell_length_a                   12.6390(3)
_cell_length_b                   13.9706(4)
_cell_length_c                   16.2850(4)
_cell_angle_alpha                68.414(3)
_cell_angle_beta                 83.532(2)
_cell_angle_gamma                73.825(2)
_cell_volume                     2567.83
loop_
_atom_site_label
_atom_site_type_symbol
_atom_site_fract_x
_atom_site_fract_y
_atom_site_fract_z
O21 O 0.17111(17) 0.47190(17) 0.12174(17)
O22 O 0.20567(18) 0.31880(18) 0.09793(17)
O28 O 0.0049(2) 0.0898(2) 0.1394(2)
C36 C 0.1418(2) 0.3992(2) 0.1086(2)
C38 C 0.0209(2) 0.4094(2) 0.1054(2)
H21 H 0.0430 0.2722 0.0852
Zn7 Zn 0.31923(3) 0.45109(3) 0.15900(3)
Zn12 Zn 0.36214(3) 0.25834(3) 0.07938(3)
N4 N 0.3606(2) 0.1104(2) 0.0904(2)
C35 C 0.2764(3) 0.0957(3) 0.0566(3)
H17 H 0.2249 0.1549 0.0221
C49 C 0.4336(3) 0.0246(3) 0.1408(2)
H23 H 0.4909 0.0346 0.1652
S4 S 0.48446(10) 0.17980(7) 0.60207(7)
O16 O 0.3525(2) 0.34035(19) 0.27339(17)
O17 O 0.3883(2) 0.20986(19) 0.21797(17)
O18 O 0.4476(4) 0.2946(2) 0.5616(2)
O19 O 0.4157(3) 0.1337(3) 0.6749(2)
O20 O 0.6012(3) 0.1421(3) 0.6243(2)
C29 C 0.4238(3) 0.1643(3) 0.3689(2)
C30 C 0.3849(3) 0.2429(3) 0.2799(2)
C31 C 0.4317(3) 0.2002(3) 0.4382(3)
H15 H 0.4097 0.2727 0.4289
C32 C 0.4712(3) 0.1293(3) 0.5184(3)
C33 C 0.5039(3) 0.0179(3) 0.5349(2)
C34 C 0.4559(3) 0.0583(3) 0.3820(2)
H16 H 0.4514 0.0355 0.3359
S5 S 0.73614(6) 0.61642(6) 0.12998(6)
S6 S 0.93929(6) 0.13959(6) 0.06009(6)
O23 O 0.8003(2) 0.6867(2) 0.1315(2)
O24 O 0.6800(2) 0.5720(2) 0.21236(17)
O25 O 0.65773(19) 0.66553(19) 0.05666(17)
O27 O 0.8737(2) 0.0746(2) 0.0497(2)
O29 O 0.46124(17) 0.42843(18) 0.09558(16)
O30 O 0.51041(18) 0.2800(2) 0.06253(18)
N3 N 0.3173(2) 0.5933(2) 0.16307(19)
C37 C 0.2641(3) 0.9957(3) 0.0716(3)
H18 H 0.2053 0.9881 0.0472
C39 C 0.8765(3) 0.3357(2) 0.0872(2)
C40 C 0.9420(3) 0.4982(2) 0.1150(2)
H19 H 0.9644 0.5517 0.1238
C41 C 0.6823(2) 0.4303(2) 0.0924(2)
H20 H 0.6287 0.4884 0.0984
C42 C 0.8321(3) 0.5058(2) 0.1113(2)
C43 C 0.7955(2) 0.4247(2) 0.0972(2)
C44 C 0.9896(3) 0.3302(3) 0.0917(2)
C45 C 0.6515(2) 0.3506(3) 0.0789(2)
C46 C 0.7309(3) 0.2618(3) 0.0691(2)
H22 H 0.7088 0.2085 0.0597
C47 C 0.8413(3) 0.2541(3) 0.0734(2)
C48 C 0.5317(3) 0.3534(3) 0.0787(2)
C50 C 0.3400(3) 0.9062(2) 0.1234(2)
C51 C 0.4271(3) 0.9222(3) 0.1579(2)
H24 H 0.4802 0.8644 0.1922
C52 C 0.3305(3) 0.7974(2) 0.1404(2)
C53 C 0.2293(3) 0.7771(3) 0.1359(2)
H25 H 0.1649 0.8317 0.1256
C54 C 0.2264(3) 0.6752(3) 0.1468(2)
H26 H 0.1590 0.6626 0.1429
C55 C 0.4137(3) 0.6122(3) 0.1701(3)
H27 H 0.4766 0.5558 0.1824
C56 C 0.4234(3) 0.7118(3) 0.1600(3)
H28 H 0.4915 0.7217 0.1662
O26 O 0.0026(2) 0.1824(2) 0.9811(2)
Zn1 Zn 0.68077(3) 0.54891(3) 0.84100(3)
Zn2 Zn 0.63786(3) 0.74166(3) 0.92062(3)
S1 S 0.26386(6) 0.38358(6) 0.87002(6)
S2 S 0.06071(6) 0.86041(6) 0.93991(6)
S3 S 0.51554(10) 0.82020(7) 0.39793(7)
O3 O 0.1997(2) 0.3133(2) 0.8685(2)
O4 O 0.3200(2) 0.4280(2) 0.78764(17)
O5 O 0.34227(19) 0.33447(19) 0.94334(17)
O7 O 0.1263(2) 0.9254(2) 0.9503(2)
O9 O 0.53876(17) 0.57157(18) 0.90442(16)
O10 O 0.48959(18) 0.7200(2) 0.93747(18)
O11 O 0.6475(2) 0.65965(19) 0.72661(17)
O12 O 0.6117(2) 0.79014(19) 0.78203(17)
O13 O 0.5524(4) 0.7054(2) 0.4384(2)
O14 O 0.5843(3) 0.8663(3) 0.3251(2)
O15 O 0.3988(3) 0.8579(3) 0.3757(2)
N1 N 0.6827(2) 0.4067(2) 0.83693(19)
C3 C 0.7359(3) 0.0043(3) 0.9284(3)
H2 H 0.7947 0.0119 0.9528
C5 C 0.1235(3) 0.6643(2) 0.9128(2)
C6 C 0.0580(3) 0.5018(2) 0.8850(2)
H3 H 0.0356 0.4483 0.8762
C7 C 0.3177(2) 0.5697(2) 0.9076(2)
H4 H 0.3713 0.5116 0.9016
C8 C 0.1679(3) 0.4942(2) 0.8887(2)
C9 C 0.2045(2) 0.5753(2) 0.9028(2)
C10 C 0.5762(3) 0.8357(3) 0.6311(2)
C11 C 0.0104(3) 0.6698(3) 0.9083(2)
C12 C 0.3485(2) 0.6494(3) 0.9211(2)
C13 C 0.2691(3) 0.7382(3) 0.9309(2)
H6 H 0.2912 0.7915 0.9403
C14 C 0.1587(3) 0.7459(3) 0.9266(2)
C15 C 0.4683(3) 0.6466(3) 0.9213(2)
C17 C 0.6600(3) 0.0938(2) 0.8766(2)
C18 C 0.5729(3) 0.0778(3) 0.8421(2)
H8 H 0.5198 0.1356 0.8078
C19 C 0.6695(3) 0.2026(2) 0.8596(2)
C20 C 0.7707(3) 0.2229(3) 0.8641(2)
H9 H 0.8351 0.1683 0.8744
C21 C 0.7736(3) 0.3248(3) 0.8532(2)
H10 H 0.8410 0.3374 0.8571
C22 C 0.5863(3) 0.3878(3) 0.8299(3)
H11 H 0.5234 0.4442 0.8176
C23 C 0.5766(3) 0.2882(3) 0.8400(3)
H12 H 0.5085 0.2783 0.8338
C24 C 0.6151(3) 0.7571(3) 0.7201(2)
C25 C 0.5683(3) 0.7998(3) 0.5618(3)
H13 H 0.5903 0.7273 0.5711
C26 C 0.5288(3) 0.8707(3) 0.4816(3)
C27 C 0.4961(3) 0.9821(3) 0.4651(2)
C28 C 0.5441(3) 0.9417(3) 0.6180(2)
H14 H 0.5486 0.9645 0.6641
O31 O 0.82889(17) 0.52810(17) 0.87826(17)
O33 O 0.79433(18) 0.68120(18) 0.90207(17)
N5 N 0.6394(2) 0.8896(2) 0.9096(2)
C1 C 0.7236(3) 0.9043(3) 0.9434(3)
H1 H 0.7751 0.8451 0.9779
C16 C 0.5664(3) 0.9754(3) 0.8592(2)
H7 H 0.5091 0.9654 0.8348
O8 O 0.9951(2) 0.9102(2) 0.8606(2)
C2 C 0.8582(2) 0.6008(2) 0.8914(2)
C4 C 0.9791(2) 0.5906(2) 0.8946(2)
H5 H 0.9570 0.7278 0.9148
O6 O 0.9974(2) 0.8176(2) 0.0189(2)
N7 N 0.1253(5) 0.1613(6) 0.8289(5)
H29 H 0.0985 0.1336 0.8837
H30 H 0.1212 0.2300 0.8191
C57 C 0.0565(7) 0.1578(8) 0.7676(6)
H31 H 0.0983 0.1544 0.7153
H33 H 0.0283 0.0959 0.7935
C58 C 0.2411(5) 0.1052(5) 0.8267(5)
H34 H 0.2726 0.1375 0.7701
H35 H 0.2471 0.0319 0.8363
H36 H 0.2799 0.1094 0.8721
H32 H 0.9962 0.2206 0.7525
H32_2 H 0.0038 0.7794 0.2475
N7_2 N 0.8747(5) 0.8387(6) 0.1711(5)
H29_2 H 0.9015 0.8664 0.1163
H30_2 H 0.8788 0.7700 0.1809
C57_2 C 0.9435(7) 0.8422(8) 0.2324(6)
H31_2 H 0.9017 0.8456 0.2847
H33_2 H 0.9717 0.9041 0.2065
C58_2 C 0.7589(5) 0.8948(5) 0.1733(5)
H34_2 H 0.7274 0.8625 0.2299
H35_2 H 0.7529 0.9681 0.1637
H36_2 H 0.7201 0.8906 0.1279
C59 C 0.1893(4) 0.0613(6) 0.2829(4)
H39 H 0.1531 0.0810 0.2281
H40 H 0.2663 0.0301 0.2769
H41 H 0.1801 0.1234 0.2980
C60 C 0.0251(7) 0.0145(12) 0.3653(7)
H43 H 0.0030 0.0850 0.3675
N8 N 0.1418(5) 0.9855(7) 0.3512(4)
H37 H 0.1589 0.9250 0.3392
H38 H 0.1747 0.9706 0.4023
H44 H 0.0060 0.9651 0.4200
H42 H 0.9882 0.0127 0.3177
H42_2 H 0.0118 0.9873 0.6823
N8_2 N 0.8582(5) 0.0145(7) 0.6488(4)
H37_2 H 0.8411 0.0750 0.6608
H38_2 H 0.8253 0.0294 0.5977
H44_2 H 0.9940 0.0349 0.5800
C59_2 C 0.8107(4) 0.9387(6) 0.7171(4)
H39_2 H 0.8469 0.9190 0.7719
H40_2 H 0.7337 0.9699 0.7231
H41_2 H 0.8199 0.8766 0.7020
C60_2 C 0.9749(7) 0.9855(12) 0.6347(7)
H43_2 H 0.9970 0.9150 0.6325
loop_
_geom_bond_atom_site_label_1
_geom_bond_atom_site_label_2
_geom_bond_site_symmetry_1
_geom_bond_site_symmetry_2
O21 C36 1_555 1_555
O22 C36 1_555 1_555
C36 C38 1_555 1_555
Zn7 O21 1_555 1_555
Zn12 O22 1_555 1_555
N4 C35 1_555 1_555
C35 H17 1_555 1_555
C49 N4 1_555 1_555
H23 C49 1_555 1_555
Zn12 N4 1_555 1_555
S4 O18 1_555 1_555
O16 C30 1_555 1_555
O17 C30 1_555 1_555
O19 S4 1_555 1_555
O20 S4 1_555 1_555
C29 C30 1_555 1_555
C31 C29 1_555 1_555
H15 C31 1_555 1_555
C32 S4 1_555 1_555
H16 C34 1_555 1_555
Zn7 O16 1_555 1_555
Zn12 O17 1_555 1_555
C29 C34 1_555 1_555
C31 C32 1_555 1_555
C32 C33 1_555 1_555
Zn7 O29 1_555 1_555
S5 O23 1_555 1_555
O24 S5 1_555 1_555
O27 S6 1_555 1_555
O29 C48 1_555 1_555
O30 Zn12 1_555 1_555
N3 Zn7 1_555 1_555
H18 C37 1_555 1_555
C39 C43 1_555 1_555
C40 H19 1_555 1_555
C41 H20 1_555 1_555
C42 S5 1_555 1_555
C43 C41 1_555 1_555
C45 C41 1_555 1_555
C46 C45 1_555 1_555
H22 C46 1_555 1_555
C47 S6 1_555 1_555
C48 O30 1_555 1_555
C50 C37 1_555 1_555
H24 C51 1_555 1_555
C52 C50 1_555 1_555
C53 C52 1_555 1_555
H25 C53 1_555 1_555
C54 N3 1_555 1_555
H26 C54 1_555 1_555
C55 N3 1_555 1_555
H27 C55 1_555 1_555
C56 C52 1_555 1_555
H28 C56 1_555 1_555
S5 O25 1_555 1_555
C39 C44 1_555 1_555
C39 C47 1_555 1_555
C40 C42 1_555 1_555
C42 C43 1_555 1_555
C45 C48 1_555 1_555
C46 C47 1_555 1_555
C50 C51 1_555 1_555
C53 C54 1_555 1_555
C55 C56 1_555 1_555
Zn1 O9 1_555 1_555
Zn2 O10 1_555 1_555
S1 O3 1_555 1_555
S3 O13 1_555 1_555
O4 S1 1_555 1_555
O5 S1 1_555 1_555
O7 S2 1_555 1_555
O9 C15 1_555 1_555
O10 C15 1_555 1_555
O11 Zn1 1_555 1_555
O12 Zn2 1_555 1_555
O14 S3 1_555 1_555
O15 S3 1_555 1_555
N1 Zn1 1_555 1_555
H2 C3 1_555 1_555
C5 C9 1_555 1_555
C6 H3 1_555 1_555
C7 H4 1_555 1_555
C8 S1 1_555 1_555
C9 C7 1_555 1_555
C10 C24 1_555 1_555
C12 C7 1_555 1_555
C13 C12 1_555 1_555
H6 C13 1_555 1_555
C14 S2 1_555 1_555
C15 C12 1_555 1_555
C17 C3 1_555 1_555
H8 C18 1_555 1_555
C19 C17 1_555 1_555
C20 C19 1_555 1_555
H9 C20 1_555 1_555
C21 N1 1_555 1_555
H10 C21 1_555 1_555
C22 N1 1_555 1_555
H11 C22 1_555 1_555
C23 C19 1_555 1_555
H12 C23 1_555 1_555
C24 O11 1_555 1_555
C25 C10 1_555 1_555
H13 C25 1_555 1_555
C26 S3 1_555 1_555
C27 C26 1_555 1_555
C28 C10 1_555 1_555
H14 C28 1_555 1_555
O31 Zn1 1_555 1_555
O33 Zn2 1_555 1_555
N5 Zn2 1_555 1_555
O12 C24 1_555 1_555
C5 C11 1_555 1_555
C5 C14 1_555 1_555
C6 C8 1_555 1_555
C8 C9 1_555 1_555
C13 C14 1_555 1_555
C17 C18 1_555 1_555
C20 C21 1_555 1_555
C22 C23 1_555 1_555
C25 C26 1_555 1_555
N5 C1 1_555 1_555
C1 H1 1_555 1_555
C16 N5 1_555 1_555
H7 C16 1_555 1_555
O31 C2 1_555 1_555
O33 C2 1_555 1_555
C2 C4 1_555 1_555
N7 H29 1_555 1_555
H30 N7 1_555 1_555
C57 N7 1_555 1_555
H31 C57 1_555 1_555
H33 C57 1_555 1_555
C58 N7 1_555 1_555
H34 C58 1_555 1_555
H35 C58 1_555 1_555
H36 C58 1_555 1_555
N7_2 H29_2 1_555 1_555
H30_2 N7_2 1_555 1_555
C57_2 N7_2 1_555 1_555
H31_2 C57_2 1_555 1_555
H33_2 C57_2 1_555 1_555
C58_2 N7_2 1_555 1_555
H34_2 C58_2 1_555 1_555
H35_2 C58_2 1_555 1_555
H36_2 C58_2 1_555 1_555
H39 C59 1_555 1_555
H40 C59 1_555 1_555
H41 C59 1_555 1_555
H43 C60 1_555 1_555
N8 H37 1_555 1_555
H38 N8 1_555 1_555
N8_2 H37_2 1_555 1_555
H38_2 N8_2 1_555 1_555
H39_2 C59_2 1_555 1_555
H40_2 C59_2 1_555 1_555
H41_2 C59_2 1_555 1_555
H43_2 C60_2 1_555 1_555

#END
