
###############################################################################
#
# This file contains modified crystal structure data generated from the
# MOF subset of the Cambridge Structural Database (CSD) v543 
# hosted by the Cambridge Crystallographic Data Centre (CCDC).
#
# This work is licensed under the Creative Commons
# Attribution-NonCommercial-ShareAlike 4.0 International License.
# To view a copy of this license, visit
# http://creativecommons.org/licenses/by-nc-sa/4.0/
# or send a letter to
# Creative Commons, PO Box 1866, Mountain View, CA 94042, USA.
#
# CIF created using the CSD Python API on 29 September 2022
# The structure has been converted into the P1 space group
# The structure has a 3D framework
# The original CSD entry MUVROM is in the monoclinic crystal system
# The framework has been calculated to contain at least 10.0% void space
# The void calculation uses a probe of radius 1.32A, grid spacing 0.4
# The framework is charged, counterions have been retained in the structure
# H atom positions have been added when not included in the experimental data
# Generated hydrogen atom positions removed from atoms on special positions
#
###############################################################################

data_MUVROM
_chemical_formula_moiety         '(C476 H340 Co42 N96 O216 4+)n'
_symmetry_cell_setting           triclinic
_symmetry_space_group_name_H-M   'P 1'
_symmetry_Int_Tables_number      1
_space_group_name_Hall           'P 1'
loop_
_symmetry_equiv_pos_site_id
_symmetry_equiv_pos_as_xyz
1 x,y,z
_cell_length_a                   44.998(5)
_cell_length_b                   20.613(2)
_cell_length_c                   16.1694(17)
_cell_angle_alpha                90
_cell_angle_beta                 94.7770(10)
_cell_angle_gamma                90
_cell_volume                     14945.7
loop_
_atom_site_label
_atom_site_type_symbol
_atom_site_fract_x
_atom_site_fract_y
_atom_site_fract_z
Co6 Co 0.208169(12) 0.18769(3) 0.05171(3)
N9 N 0.16634(7) 0.30053(15) 0.05916(19)
O25 O 0.13664(6) 0.16311(14) 0.08371(17)
N10 N 0.19586(7) 0.28103(16) 0.0699(2)
O26 O 0.18267(6) 0.12123(13) 0.09209(18)
C47 C 0.16539(9) 0.36020(19) 0.0831(2)
C48 C 0.15521(9) 0.1198(2) 0.1040(2)
C49 C 0.21130(9) 0.3302(2) 0.1006(3)
N12 N 0.19311(7) 0.38149(15) 0.1105(2)
H23 H 0.1481 0.3852 0.0817
C51 C 0.14543(9) 0.05872(18) 0.1439(2)
H24 H 0.2318 0.3301 0.1137
C53 C 0.20198(9) 0.44296(19) 0.1470(3)
C54 C 0.12792(9) 0.0587(2) 0.2106(2)
C55 C 0.15529(13) 0.0000 0.1147(3)
C58 C 0.22041(9) 0.4420(2) 0.2199(3)
C59 C 0.19281(12) 0.5000 0.1095(4)
H26 H 0.1212 0.0977 0.2311
C60 C 0.12040(13) -0.0000 0.2470(4)
H27 H 0.1689 -0.0000 0.0745
H30 H 0.2268 0.4028 0.2436
C62 C 0.22915(15) 0.5000 0.2572(4)
H31 H 0.1807 0.5000 0.0600
C63 C 0.10588(16) 0.0000 0.3292(4)
H33 H 0.2409 0.5000 0.3073
O27 O 0.10105(11) 0.05333(17) 0.3609(2)
O36 O 0.10463(6) 0.28194(14) 0.07410(16)
O37 O 0.24381(6) 0.18677(15) 0.12813(18)
O43 O 0.06123(6) 0.30644(15) 0.00360(16)
C94 C 0.20198(9) 0.55704(19) 0.1470(3)
C102 C 0.22041(9) 0.5580(2) 0.2199(3)
N24 N 0.19311(7) 0.61851(15) 0.1105(2)
H50 H 0.2268 0.5972 0.2436
C111 C 0.16539(9) 0.63980(19) 0.0831(2)
C112 C 0.21130(9) 0.6698(2) 0.1006(3)
N30 N 0.16634(7) 0.69947(15) 0.05916(19)
H55 H 0.1481 0.6148 0.0817
N31 N 0.19586(7) 0.71897(16) 0.0699(2)
H56 H 0.2318 0.6699 0.1137
Co25 Co 0.208169(12) 0.81231(3) 0.05171(3)
Co1 Co 0.078711(12) 0.17770(3) 0.53715(3)
N1 N 0.08324(7) 0.27983(16) 0.5568(2)
O1 O 0.06332(6) 0.19736(15) 0.42024(17)
O2 O 0.12782(6) 0.18089(12) 0.53796(15)
O3 O 0.10575(6) 0.15820(14) 0.65015(16)
O4 O 0.03709(7) 0.17878(15) 0.5840(2)
O5 O 0.07910(7) 0.07831(14) 0.50544(18)
N2 N 0.10331(7) 0.31229(16) 0.5123(2)
C1 C 0.07057(10) 0.3227(2) 0.6003(3)
C2 C 0.07878(10) 0.2182(2) 0.3635(3)
Co2 Co 0.136674(11) 0.25963(2) 0.45512(3)
C3 C 0.12914(9) 0.16900(19) 0.6160(2)
C4 C 0.10155(9) 0.3733(2) 0.5307(2)
N3 N 0.08072(7) 0.38266(15) 0.5857(2)
H1 H 0.0563 0.3133 0.6370
O6 O 0.10677(6) 0.22052(13) 0.36836(15)
C5 C 0.06199(9) 0.2434(2) 0.2860(2)
N4 N 0.16919(7) 0.19921(16) 0.41158(19)
O7 O 0.14308(7) 0.33494(14) 0.37464(17)
O8 O 0.16518(6) 0.30204(14) 0.54968(16)
C6 C 0.15867(8) 0.16812(19) 0.6655(2)
H2 H 0.1129 0.4060 0.5093
C7 C 0.07217(9) 0.44235(19) 0.6217(3)
C8 C 0.03142(9) 0.2559(2) 0.2856(2)
C9 C 0.07664(9) 0.2570(2) 0.2167(2)
N5 N 0.19884(7) 0.21761(16) 0.4118(2)
C10 C 0.16733(9) 0.14020(19) 0.3839(2)
C11 C 0.16163(10) 0.3800(2) 0.3699(2)
C12 C 0.18770(9) 0.31680(19) 0.5952(2)
C13 C 0.15932(8) 0.17221(19) 0.7523(2)
C14 C 0.18536(9) 0.16845(19) 0.6278(2)
C15 C 0.05685(10) 0.4412(2) 0.6930(3)
C16 C 0.07927(14) 0.5000 0.5854(4)
H3 H 0.0215 0.2464 0.3323
C17 C 0.01587(9) 0.2823(2) 0.2160(2)
C18 C 0.06134(9) 0.2815(2) 0.1458(2)
H4 H 0.0971 0.2497 0.2175
Co3 Co 0.213863(12) 0.30818(3) 0.44757(3)
C19 C 0.21315(9) 0.16866(19) 0.3833(2)
N6 N 0.19430(7) 0.11820(15) 0.3649(2)
H5 H 0.1498 0.1161 0.3778
O9 O 0.18858(6) 0.37889(13) 0.39949(18)
C20 C 0.15160(9) 0.4417(2) 0.3278(3)
O10 O 0.21346(6) 0.32282(14) 0.56971(16)
C21 C 0.18470(8) 0.32840(18) 0.6859(2)
H6 H 0.1415 0.1717 0.7778
C22 C 0.18611(9) 0.17695(18) 0.8001(2)
C23 C 0.21223(8) 0.17458(19) 0.6749(2)
H7 H 0.1851 0.1645 0.5704
H8 H 0.0514 0.4021 0.7163
C24 C 0.04990(16) 0.5000 0.7283(4)
H9 H 0.0888 0.5000 0.5366
C25 C 0.03083(9) 0.2940(2) 0.1461(2)
C27 C 0.07691(9) 0.2908(2) 0.0688(3)
O11 O 0.23585(6) 0.30491(15) 0.31836(17)
O12 O 0.25805(6) 0.32303(15) 0.44163(17)
H10 H 0.2335 0.1682 0.3766
C28 C 0.20195(9) 0.05714(19) 0.3286(2)
C29 C 0.13336(11) 0.4414(2) 0.2545(3)
C30 C 0.16217(13) 0.5000 0.3600(4)
C31 C 0.15684(9) 0.32902(18) 0.7165(2)
C32 C 0.21018(9) 0.33477(19) 0.7410(2)
C33 C 0.21240(8) 0.17854(19) 0.7600(2)
C34 C 0.18720(10) 0.18472(19) 0.8922(2)
C35 C 0.24109(9) 0.1824(2) 0.6367(3)
H11 H 0.0403 0.5000 0.7770
H12 H 0.0204 0.3104 0.0985
C36 C 0.21810(9) 0.05880(19) 0.2612(2)
C37 C 0.19312(12) 0.0000 0.3635(3)
H13 H 0.1264 0.4021 0.2321
C38 C 0.12503(16) 0.5000 0.2129(5)
H14 H 0.1767 0.5000 0.4044
H15 H 0.1398 0.3244 0.6801
C39 C 0.15396(8) 0.33644(18) 0.8011(2)
C40 C 0.20741(8) 0.34468(19) 0.8254(2)
H16 H 0.2290 0.3324 0.7214
H17 H 0.2305 0.1824 0.7917
O17 O 0.16419(6) 0.19844(14) 0.92565(16)
O18 O 0.21254(6) 0.17662(14) 0.93198(16)
H18 H 0.2233 0.0981 0.2381
C41 C 0.22664(13) -0.0000 0.2275(4)
H19 H 0.1817 0.0000 0.4088
C42 C 0.1093(2) 0.5000 0.1262(6)
C43 C 0.17936(8) 0.34578(18) 0.8546(2)
C44 C 0.12411(8) 0.33280(18) 0.8348(2)
C45 C 0.23459(9) 0.3501(2) 0.8859(3)
H20 H 0.2381 0.0000 0.1823
O22 O 0.10316(14) 0.4475(2) 0.0917(3)
H21 H 0.1775 0.3529 0.9108
O23 O 0.23473(7) 0.38949(17) 0.9437(2)
O24 O 0.25619(6) 0.31323(15) 0.87187(18)
N8 N 0.10104(7) 0.18908(16) 0.9241(2)
C46 C 0.10109(10) 0.1283(2) 0.9024(3)
C50 C 0.06772(10) 0.1762(2) 0.8220(3)
N11 N 0.08036(8) 0.11705(16) 0.8387(2)
H22 H 0.1137 0.0969 0.9274
H25 H 0.0527 0.1842 0.7804
C52 C 0.07348(10) 0.0575(2) 0.7970(3)
C56 C 0.05961(10) 0.0587(2) 0.7186(3)
C57 C 0.07994(13) 0.0000 0.8377(4)
H28 H 0.0550 0.0979 0.6921
C61 C 0.05245(15) 0.0000 0.6790(4)
H29 H 0.0885 -0.0000 0.8921
H32 H 0.0428 0.0000 0.6259
C64 C 0.07217(9) 0.55765(19) 0.6217(3)
C65 C 0.05685(10) 0.5588(2) 0.6930(3)
N13 N 0.08072(7) 0.61734(15) 0.5857(2)
C66 C 0.15160(9) 0.5583(2) 0.3278(3)
O28 O 0.26415(6) 0.19509(15) 0.68164(17)
O29 O 0.24195(6) 0.17697(15) 0.55837(17)
H34 H 0.0514 0.5979 0.7163
C67 C 0.07057(10) 0.6773(2) 0.6003(3)
C68 C 0.10155(9) 0.6267(2) 0.5307(2)
C70 C 0.13336(11) 0.5586(2) 0.2545(3)
C71 C 0.16163(10) 0.6200(2) 0.3699(2)
Co8 Co 0.133095(11) 0.24190(2) 0.99956(3)
Co9 Co 0.286137(12) 0.19182(3) 0.55243(3)
N14 N 0.08324(7) 0.72017(16) 0.5568(2)
H35 H 0.0563 0.6867 0.6370
N15 N 0.10331(7) 0.68771(16) 0.5123(2)
H36 H 0.1129 0.5940 0.5093
O31 O 0.10316(14) 0.5525(2) 0.0917(3)
H37 H 0.1264 0.5979 0.2321
O32 O 0.14308(7) 0.66506(14) 0.37464(17)
O33 O 0.18858(6) 0.62111(13) 0.39949(18)
O34 O 0.10094(6) 0.34031(15) 0.78861(17)
O35 O 0.12284(6) 0.31984(12) 0.91228(15)
Co10 Co 0.078711(12) 0.82230(3) 0.53715(3)
Co11 Co 0.136674(11) 0.74037(2) 0.45512(3)
Co13 Co 0.213863(12) 0.69182(3) 0.44757(3)
Co14 Co 0.073194(11) 0.32138(3) 0.88843(3)
Co15 Co 0.291831(12) 0.31231(3) 0.94829(3)
N18 N 0.07959(7) 0.21970(16) 0.8723(2)
O41 O 0.07526(8) 0.42215(15) 0.9210(2)
O42 O 0.02989(6) 0.32532(15) 0.84313(18)
C80 C 0.01729(9) 0.2945(2) 0.7824(3)
O46 O 0.02996(6) 0.27326(16) 0.72260(18)
Co26 Co 0.133095(11) 0.75810(2) 0.99956(3)
C55_2 C 0.15529(13) 1.0000 0.1147(3)
C60_2 C 0.12040(13) 1.0000 0.2470(4)
H27_2 H 0.1689 1.0000 0.0745
C63_2 C 0.10588(16) 1.0000 0.3292(4)
C85 C 0.14543(9) 0.94128(18) 0.1439(2)
C95 C 0.12792(9) 0.9413(2) 0.2106(2)
C96 C 0.15521(9) 0.8802(2) 0.1040(2)
O52 O 0.10105(11) 0.94667(17) 0.3609(2)
H48 H 0.1212 0.9023 0.2311
O53 O 0.13664(6) 0.83689(14) 0.08371(17)
O54 O 0.18267(6) 0.87877(13) 0.09209(18)
C37_2 C 0.19312(12) 1.0000 0.3635(3)
C41_2 C 0.22664(13) 1.0000 0.2275(4)
H19_2 H 0.1817 1.0000 0.4088
H20_2 H 0.2381 1.0000 0.1823
C57_2 C 0.07994(13) 1.0000 0.8377(4)
C61_2 C 0.05245(15) 1.0000 0.6790(4)
H29_2 H 0.0885 1.0000 0.8921
H32_2 H 0.0428 1.0000 0.6259
C69 C 0.20195(9) 0.94286(19) 0.3286(2)
C72 C 0.21810(9) 0.94120(19) 0.2612(2)
N16 N 0.19430(7) 0.88180(15) 0.3649(2)
H38 H 0.2233 0.9019 0.2381
C74 C 0.21315(9) 0.83134(19) 0.3833(2)
C75 C 0.16733(9) 0.85980(19) 0.3839(2)
N20 N 0.19884(7) 0.78239(16) 0.4118(2)
H39 H 0.2335 0.8318 0.3766
N21 N 0.16919(7) 0.80079(16) 0.41158(19)
H40 H 0.1498 0.8839 0.3778
C93 C 0.07348(10) 0.9425(2) 0.7970(3)
C101 C 0.05961(10) 0.9413(2) 0.7186(3)
N23 N 0.08036(8) 0.88295(16) 0.8387(2)
H49 H 0.0550 0.9021 0.6921
C109 C 0.06772(10) 0.8238(2) 0.8220(3)
C110 C 0.10109(10) 0.8717(2) 0.9024(3)
N28 N 0.07959(7) 0.78030(16) 0.8723(2)
H53 H 0.0527 0.8158 0.7804
N29 N 0.10104(7) 0.81092(16) 0.9241(2)
H54 H 0.1137 0.9031 0.9274
Co30 Co 0.073194(11) 0.67862(3) 0.88843(3)
Co24 Co 0.926806(11) 0.32138(3) 0.11157(3)
Co29 Co 0.866905(11) 0.24190(2) 0.00044(3)
C26 C 0.98271(9) 0.2945(2) 0.2176(3)
O13 O 0.97004(6) 0.27326(16) 0.27740(18)
O14 O 0.97011(6) 0.32532(15) 0.15687(18)
O19 O 0.89906(6) 0.34031(15) 0.21139(17)
O20 O 0.87716(6) 0.31984(12) 0.08772(15)
O21 O 0.92474(8) 0.42215(15) 0.0790(2)
N7 N 0.92041(7) 0.21970(16) 0.1277(2)
C73 C 0.87589(8) 0.33280(18) 0.1652(2)
N17 N 0.89896(7) 0.18908(16) 0.0759(2)
C76 C 0.84604(8) 0.33644(18) 0.1989(2)
O38 O 0.83581(6) 0.19844(14) 0.07435(16)
C77 C 0.84316(9) 0.32902(18) 0.2835(2)
C78 C 0.82064(8) 0.34578(18) 0.1454(2)
C79 C 0.81280(10) 0.18472(19) 0.1078(2)
C81 C 0.81530(8) 0.32840(18) 0.3141(2)
H41 H 0.8602 0.3244 0.3199
H42 H 0.8225 0.3529 0.0892
C82 C 0.79259(8) 0.34468(19) 0.1746(2)
O44 O 0.78746(6) 0.17662(14) 0.06802(16)
C83 C 0.81389(9) 0.17695(18) 0.1999(2)
C84 C 0.98413(9) 0.2823(2) 0.7840(2)
C86 C 0.78982(9) 0.33477(19) 0.2590(2)
C87 C 0.81230(9) 0.31680(19) 0.4048(2)
C88 C 0.76541(9) 0.3501(2) 0.1141(3)
C89 C 0.84068(8) 0.17221(19) 0.2477(2)
C90 C 0.78760(8) 0.17854(19) 0.2400(2)
C91 C 0.96858(9) 0.2559(2) 0.7144(2)
C92 C 0.96917(9) 0.2940(2) 0.8539(2)
H43 H 0.7710 0.3324 0.2786
O48 O 0.83482(6) 0.30204(14) 0.45032(16)
O49 O 0.78654(6) 0.32282(14) 0.43029(16)
O50 O 0.76527(7) 0.38949(17) 0.0563(2)
O51 O 0.74381(6) 0.31323(15) 0.12813(18)
C97 C 0.84133(8) 0.16812(19) 0.3345(2)
H44 H 0.8585 0.1717 0.2222
H45 H 0.7695 0.1824 0.2083
C98 C 0.78777(8) 0.17458(19) 0.3251(2)
C99 C 0.93801(9) 0.2434(2) 0.7140(2)
H46 H 0.9785 0.2464 0.6677
H47 H 0.9796 0.3104 0.9015
C100 C 0.93866(9) 0.2815(2) 0.8542(2)
Co19 Co 0.863326(11) 0.25963(2) 0.54488(3)
Co20 Co 0.786137(12) 0.30818(3) 0.55243(3)
Co21 Co 0.708169(12) 0.31231(3) 0.05171(3)
C103 C 0.81464(9) 0.16845(19) 0.3722(2)
C104 C 0.87086(9) 0.16900(19) 0.3840(2)
C105 C 0.75891(9) 0.1824(2) 0.3633(3)
C106 C 0.92336(9) 0.2570(2) 0.7833(2)
C107 C 0.92122(10) 0.2182(2) 0.6365(3)
C108 C 0.92309(9) 0.2908(2) 0.9312(3)
O55 O 0.89323(6) 0.22052(13) 0.63164(15)
O56 O 0.87218(6) 0.18089(12) 0.46204(15)
N25 N 0.83081(7) 0.19921(16) 0.58842(19)
N26 N 0.89669(7) 0.31229(16) 0.4877(2)
O57 O 0.85692(7) 0.33494(14) 0.62536(17)
N27 N 0.80116(7) 0.21761(16) 0.5882(2)
O58 O 0.81142(6) 0.37889(13) 0.60051(18)
O59 O 0.76415(6) 0.30491(15) 0.68164(17)
O60 O 0.74195(6) 0.32303(15) 0.55837(17)
H51 H 0.8149 0.1645 0.4296
O61 O 0.89425(6) 0.15820(14) 0.34985(16)
O62 O 0.73585(6) 0.19509(15) 0.31836(17)
O63 O 0.75805(6) 0.17697(15) 0.44163(17)
H52 H 0.9029 0.2497 0.7825
O64 O 0.93668(6) 0.19736(15) 0.57976(17)
O65 O 0.89537(6) 0.28194(14) 0.92590(16)
O66 O 0.93877(6) 0.30644(15) 0.99640(16)
Co27 Co 0.921289(12) 0.17770(3) 0.46285(3)
N32 N 0.91676(7) 0.27983(16) 0.4432(2)
Co28 Co 0.713863(12) 0.19182(3) 0.44757(3)
O67 O 0.96291(7) 0.17878(15) 0.4160(2)
O68 O 0.92090(7) 0.07831(14) 0.49456(18)
N19 N 0.83366(7) 0.30053(15) 0.94084(19)
O40 O 0.86336(6) 0.16311(14) 0.91629(17)
N22 N 0.80414(7) 0.28103(16) 0.9301(2)
Co18 Co 0.791831(12) 0.18769(3) 0.94829(3)
O45 O 0.81733(6) 0.12123(13) 0.90791(18)
O47 O 0.75619(6) 0.18677(15) 0.87187(18)
C1_2 C 0.92943(10) 0.3227(2) 0.3997(3)
C4_2 C 0.89845(9) 0.3733(2) 0.4693(2)
N3_2 N 0.91928(7) 0.38266(15) 0.4143(2)
H1_2 H 0.9437 0.3133 0.3630
H2_2 H 0.8871 0.4060 0.4907
C7_2 C 0.92783(9) 0.44235(19) 0.3783(3)
C10_2 C 0.83267(9) 0.14020(19) 0.6161(2)
C11_2 C 0.83837(10) 0.3800(2) 0.6301(2)
C15_2 C 0.94315(10) 0.4412(2) 0.3070(3)
C16_2 C 0.92073(14) 0.5000 0.4146(4)
C19_2 C 0.78685(9) 0.16866(19) 0.6167(2)
N6_2 N 0.80570(7) 0.11820(15) 0.6351(2)
H5_2 H 0.8502 0.1161 0.6222
C20_2 C 0.84840(9) 0.4417(2) 0.6722(3)
H8_2 H 0.9486 0.4021 0.2837
C24_2 C 0.95010(16) 0.5000 0.2717(4)
H9_2 H 0.9112 0.5000 0.4634
H10_2 H 0.7665 0.1682 0.6234
C28_2 C 0.79805(9) 0.05714(19) 0.6714(2)
C29_2 C 0.86664(11) 0.4414(2) 0.7455(3)
C30_2 C 0.83783(13) 0.5000 0.6400(4)
H11_2 H 0.9597 0.5000 0.2230
C36_2 C 0.78190(9) 0.05880(19) 0.7388(2)
C37_3 C 0.80688(12) 0.0000 0.6365(3)
H13_2 H 0.8736 0.4021 0.7679
C38_2 C 0.87497(16) 0.5000 0.7871(5)
H14_2 H 0.8233 0.5000 0.5956
H18_2 H 0.7767 0.0981 0.7619
C41_3 C 0.77336(13) 0.0000 0.7725(4)
H19_3 H 0.8183 0.0000 0.5912
C42_2 C 0.8907(2) 0.5000 0.8738(6)
H20_3 H 0.7619 0.0000 0.8177
O22_2 O 0.89684(14) 0.4475(2) 0.9083(3)
C46_2 C 0.89891(10) 0.1283(2) 0.0976(3)
C50_2 C 0.93228(10) 0.1762(2) 0.1780(3)
N11_2 N 0.91964(8) 0.11705(16) 0.1613(2)
H22_2 H 0.8863 0.0969 0.0726
H25_2 H 0.9473 0.1842 0.2196
C52_2 C 0.92652(10) 0.0575(2) 0.2030(3)
C56_2 C 0.94039(10) 0.0587(2) 0.2814(3)
C57_3 C 0.92006(13) 0.0000 0.1623(4)
H28_2 H 0.9450 0.0979 0.3079
C61_3 C 0.94755(15) 0.0000 0.3210(4)
H29_3 H 0.9115 -0.0000 0.1079
H32_3 H 0.9572 -0.0000 0.3741
C64_2 C 0.92783(9) 0.55765(19) 0.3783(3)
C65_2 C 0.94315(10) 0.5588(2) 0.3070(3)
N13_2 N 0.91928(7) 0.61734(15) 0.4143(2)
C66_2 C 0.84840(9) 0.5583(2) 0.6722(3)
H34_2 H 0.9486 0.5979 0.2837
C67_2 C 0.92943(10) 0.6773(2) 0.3997(3)
C68_2 C 0.89845(9) 0.6267(2) 0.4693(2)
C70_2 C 0.86664(11) 0.5586(2) 0.7455(3)
C71_2 C 0.83837(10) 0.6200(2) 0.6301(2)
N14_2 N 0.91676(7) 0.72017(16) 0.4432(2)
H35_2 H 0.9437 0.6867 0.3630
N15_2 N 0.89669(7) 0.68771(16) 0.4877(2)
H36_2 H 0.8871 0.5940 0.4907
O31_2 O 0.89684(14) 0.5525(2) 0.9083(3)
H37_2 H 0.8736 0.5979 0.7679
O32_2 O 0.85692(7) 0.66506(14) 0.62536(17)
O33_2 O 0.81142(6) 0.62111(13) 0.60051(18)
Co10_2 Co 0.921289(12) 0.82230(3) 0.46285(3)
Co11_2 Co 0.863326(11) 0.74037(2) 0.54488(3)
Co13_2 Co 0.786137(12) 0.69182(3) 0.55243(3)
Co26_2 Co 0.866905(11) 0.75810(2) 0.00044(3)
C47_2 C 0.83461(9) 0.36020(19) 0.9169(2)
C48_2 C 0.84479(9) 0.1198(2) 0.8960(2)
C49_2 C 0.78870(9) 0.3302(2) 0.8994(3)
N12_2 N 0.80689(7) 0.38149(15) 0.8895(2)
H23_2 H 0.8519 0.3852 0.9183
C51_2 C 0.85457(9) 0.05872(18) 0.8561(2)
H24_2 H 0.7682 0.3301 0.8863
C53_2 C 0.79802(9) 0.44296(19) 0.8530(3)
C54_2 C 0.87208(9) 0.0587(2) 0.7894(2)
C55_3 C 0.84471(13) 0.0000 0.8853(3)
C58_2 C 0.77959(9) 0.4420(2) 0.7801(3)
C59_2 C 0.80719(12) 0.5000 0.8905(4)
H26_2 H 0.8788 0.0977 0.7689
C60_3 C 0.87960(13) 0.0000 0.7530(4)
H27_3 H 0.8311 -0.0000 0.9255
H30_2 H 0.7732 0.4028 0.7564
C62_2 C 0.77085(15) 0.5000 0.7428(4)
H31_2 H 0.8193 0.5000 0.9400
C63_3 C 0.89412(16) 0.0000 0.6708(4)
H33_2 H 0.7591 0.5000 0.6927
O27_2 O 0.89895(11) 0.05333(17) 0.6391(2)
C94_2 C 0.79802(9) 0.55704(19) 0.8530(3)
C102_2 C 0.77959(9) 0.5580(2) 0.7801(3)
N24_2 N 0.80689(7) 0.61851(15) 0.8895(2)
H50_2 H 0.7732 0.5972 0.7564
C111_2 C 0.83461(9) 0.63980(19) 0.9169(2)
C112_2 C 0.78870(9) 0.6698(2) 0.8994(3)
N30_2 N 0.83366(7) 0.69947(15) 0.94084(19)
H55_2 H 0.8519 0.6148 0.9183
N31_2 N 0.80414(7) 0.71897(16) 0.9301(2)
H56_2 H 0.7682 0.6699 0.8863
Co25_2 Co 0.791831(12) 0.81231(3) 0.94829(3)
C37_4 C 0.80688(12) 1.0000 0.6365(3)
C41_4 C 0.77336(13) 1.0000 0.7725(4)
H19_4 H 0.8183 1.0000 0.5912
H20_4 H 0.7619 1.0000 0.8177
C57_4 C 0.92006(13) 1.0000 0.1623(4)
C61_4 C 0.94755(15) 1.0000 0.3210(4)
H29_4 H 0.9115 1.0000 0.1079
H32_4 H 0.9572 1.0000 0.3741
C69_2 C 0.79805(9) 0.94286(19) 0.6714(2)
C72_2 C 0.78190(9) 0.94120(19) 0.7388(2)
N16_2 N 0.80570(7) 0.88180(15) 0.6351(2)
H38_2 H 0.7767 0.9019 0.7619
C74_2 C 0.78685(9) 0.83134(19) 0.6167(2)
C75_2 C 0.83267(9) 0.85980(19) 0.6161(2)
N20_2 N 0.80116(7) 0.78239(16) 0.5882(2)
H39_2 H 0.7665 0.8318 0.6234
N21_2 N 0.83081(7) 0.80079(16) 0.58842(19)
H40_2 H 0.8502 0.8839 0.6222
C93_2 C 0.92652(10) 0.9425(2) 0.2030(3)
C101_2 C 0.94039(10) 0.9413(2) 0.2814(3)
N23_2 N 0.91964(8) 0.88295(16) 0.1613(2)
H49_2 H 0.9450 0.9021 0.3079
C109_2 C 0.93228(10) 0.8238(2) 0.1780(3)
C110_2 C 0.89891(10) 0.8717(2) 0.0976(3)
N28_2 N 0.92041(7) 0.78030(16) 0.1277(2)
H53_2 H 0.9473 0.8158 0.2196
N29_2 N 0.89896(7) 0.81092(16) 0.0759(2)
H54_2 H 0.8863 0.9031 0.0726
Co30_2 Co 0.926806(11) 0.67862(3) 0.11157(3)
C55_4 C 0.84471(13) 1.0000 0.8853(3)
C60_4 C 0.87960(13) 1.0000 0.7530(4)
H27_4 H 0.8311 1.0000 0.9255
C63_4 C 0.89412(16) 1.0000 0.6708(4)
C85_2 C 0.85457(9) 0.94128(18) 0.8561(2)
C95_2 C 0.87208(9) 0.9413(2) 0.7894(2)
C96_2 C 0.84479(9) 0.8802(2) 0.8960(2)
O52_2 O 0.89895(11) 0.94667(17) 0.6391(2)
H48_2 H 0.8788 0.9023 0.7689
O53_2 O 0.86336(6) 0.83689(14) 0.91629(17)
O54_2 O 0.81733(6) 0.87877(13) 0.90791(18)
C59_3 C 0.69281(12) 0.0000 0.1095(4)
C62_3 C 0.72915(15) 0.0000 0.2572(4)
H31_3 H 0.6807 0.0000 0.0600
H33_3 H 0.7409 0.0000 0.3073
C94_3 C 0.70198(9) 0.05704(19) 0.1470(3)
C102_3 C 0.72041(9) 0.0580(2) 0.2199(3)
N24_3 N 0.69311(7) 0.11851(15) 0.1105(2)
H50_3 H 0.7268 0.0972 0.2436
C111_3 C 0.66539(9) 0.13980(19) 0.0831(2)
C112_3 C 0.71130(9) 0.1698(2) 0.1006(3)
N30_3 N 0.66634(7) 0.19947(15) 0.05916(19)
H55_3 H 0.6481 0.1148 0.0817
N31_3 N 0.69586(7) 0.21897(16) 0.0699(2)
H56_3 H 0.7318 0.1699 0.1137
C16_3 C 0.57927(14) -0.0000 0.5854(4)
C24_3 C 0.54990(16) -0.0000 0.7283(4)
H9_3 H 0.5888 -0.0000 0.5366
C30_3 C 0.66217(13) 0.0000 0.3600(4)
H11_3 H 0.5403 -0.0000 0.7770
C38_3 C 0.62503(16) 0.0000 0.2129(5)
H14_3 H 0.6767 0.0000 0.4044
C42_3 C 0.6093(2) -0.0000 0.1262(6)
C64_3 C 0.57217(9) 0.05765(19) 0.6217(3)
C65_3 C 0.55685(10) 0.0588(2) 0.6930(3)
N13_3 N 0.58072(7) 0.11734(15) 0.5857(2)
C66_3 C 0.65160(9) 0.0583(2) 0.3278(3)
H34_3 H 0.5514 0.0979 0.7163
C67_3 C 0.57057(10) 0.1773(2) 0.6003(3)
C68_3 C 0.60155(9) 0.1267(2) 0.5307(2)
C70_3 C 0.63336(11) 0.0586(2) 0.2545(3)
C71_3 C 0.66163(10) 0.1200(2) 0.3699(2)
N14_3 N 0.58324(7) 0.22017(16) 0.5568(2)
H35_3 H 0.5563 0.1867 0.6370
N15_3 N 0.60331(7) 0.18771(16) 0.5123(2)
H36_3 H 0.6129 0.0940 0.5093
O31_3 O 0.60316(14) 0.0525(2) 0.0917(3)
H37_3 H 0.6264 0.0979 0.2321
O32_3 O 0.64308(7) 0.16506(14) 0.37464(17)
O33_3 O 0.68858(6) 0.12111(13) 0.39949(18)
Co10_3 Co 0.578711(12) 0.32230(3) 0.53715(3)
Co11_3 Co 0.636674(11) 0.24037(2) 0.45512(3)
Co26_3 Co 0.633095(11) 0.25810(2) 0.99956(3)
Co6_2 Co 0.708169(12) 0.68769(3) 0.05171(3)
N9_2 N 0.66634(7) 0.80053(15) 0.05916(19)
O25_2 O 0.63664(6) 0.66311(14) 0.08371(17)
N10_2 N 0.69586(7) 0.78103(16) 0.0699(2)
O26_2 O 0.68267(6) 0.62123(13) 0.09209(18)
C47_3 C 0.66539(9) 0.86020(19) 0.0831(2)
C48_3 C 0.65521(9) 0.6198(2) 0.1040(2)
C49_3 C 0.71130(9) 0.8302(2) 0.1006(3)
N12_3 N 0.69311(7) 0.88149(15) 0.1105(2)
H23_3 H 0.6481 0.8852 0.0817
C51_3 C 0.64543(9) 0.55872(18) 0.1439(2)
H24_3 H 0.7318 0.8301 0.1137
C53_3 C 0.70198(9) 0.94296(19) 0.1470(3)
C54_3 C 0.62792(9) 0.5587(2) 0.2106(2)
C55_5 C 0.65529(13) 0.5000 0.1147(3)
C58_3 C 0.72041(9) 0.9420(2) 0.2199(3)
C59_4 C 0.69281(12) 1.0000 0.1095(4)
H26_3 H 0.6212 0.5977 0.2311
C60_5 C 0.62040(13) 0.5000 0.2470(4)
H27_5 H 0.6689 0.5000 0.0745
H30_3 H 0.7268 0.9028 0.2436
C62_4 C 0.72915(15) 1.0000 0.2572(4)
H31_4 H 0.6807 1.0000 0.0600
C63_5 C 0.60588(16) 0.5000 0.3292(4)
H33_4 H 0.7409 1.0000 0.3073
O27_3 O 0.60105(11) 0.55333(17) 0.3609(2)
O36_2 O 0.60463(6) 0.78194(14) 0.07410(16)
O37_2 O 0.74381(6) 0.68677(15) 0.12813(18)
O43_2 O 0.56123(6) 0.80644(15) 0.00360(16)
C85_3 C 0.64543(9) 0.44128(18) 0.1439(2)
C95_3 C 0.62792(9) 0.4413(2) 0.2106(2)
C96_3 C 0.65521(9) 0.3802(2) 0.1040(2)
O52_3 O 0.60105(11) 0.44667(17) 0.3609(2)
H48_3 H 0.6212 0.4023 0.2311
O53_3 O 0.63664(6) 0.33689(14) 0.08371(17)
O54_3 O 0.68267(6) 0.37877(13) 0.09209(18)
Co24_2 Co 0.426806(11) 0.82138(3) 0.11157(3)
Co29_2 Co 0.366905(11) 0.74190(2) 0.00044(3)
Co1_2 Co 0.578711(12) 0.67770(3) 0.53715(3)
N1_2 N 0.58324(7) 0.77983(16) 0.5568(2)
O1_2 O 0.56332(6) 0.69736(15) 0.42024(17)
O2_2 O 0.62782(6) 0.68089(12) 0.53796(15)
O3_2 O 0.60575(6) 0.65820(14) 0.65015(16)
O4_2 O 0.53709(7) 0.67878(15) 0.5840(2)
O5_2 O 0.57910(7) 0.57831(14) 0.50544(18)
N2_2 N 0.60331(7) 0.81229(16) 0.5123(2)
C1_3 C 0.57057(10) 0.8227(2) 0.6003(3)
C2_2 C 0.57878(10) 0.7182(2) 0.3635(3)
Co2_2 Co 0.636674(11) 0.75963(2) 0.45512(3)
C3_2 C 0.62914(9) 0.66900(19) 0.6160(2)
C4_3 C 0.60155(9) 0.8733(2) 0.5307(2)
N3_3 N 0.58072(7) 0.88266(15) 0.5857(2)
H1_3 H 0.5563 0.8133 0.6370
O6_2 O 0.60677(6) 0.72052(13) 0.36836(15)
C5_2 C 0.56199(9) 0.7434(2) 0.2860(2)
N4_2 N 0.66919(7) 0.69921(16) 0.41158(19)
O7_2 O 0.64308(7) 0.83494(14) 0.37464(17)
O8_2 O 0.66518(6) 0.80204(14) 0.54968(16)
C6_2 C 0.65867(8) 0.66812(19) 0.6655(2)
H2_3 H 0.6129 0.9060 0.5093
C7_3 C 0.57217(9) 0.94235(19) 0.6217(3)
C8_2 C 0.53142(9) 0.7559(2) 0.2856(2)
C9_2 C 0.57664(9) 0.7570(2) 0.2167(2)
N5_2 N 0.69884(7) 0.71761(16) 0.4118(2)
C10_3 C 0.66733(9) 0.64020(19) 0.3839(2)
C11_3 C 0.66163(10) 0.8800(2) 0.3699(2)
C12_2 C 0.68770(9) 0.81680(19) 0.5952(2)
C13_2 C 0.65932(8) 0.67221(19) 0.7523(2)
C14_2 C 0.68536(9) 0.66845(19) 0.6278(2)
C15_3 C 0.55685(10) 0.9412(2) 0.6930(3)
C16_4 C 0.57927(14) 1.0000 0.5854(4)
H3_2 H 0.5215 0.7464 0.3323
C17_2 C 0.51587(9) 0.7823(2) 0.2160(2)
C18_2 C 0.56134(9) 0.7815(2) 0.1458(2)
H4_2 H 0.5971 0.7497 0.2175
Co3_2 Co 0.713863(12) 0.80818(3) 0.44757(3)
C19_3 C 0.71315(9) 0.66866(19) 0.3833(2)
N6_3 N 0.69430(7) 0.61820(15) 0.3649(2)
H5_3 H 0.6498 0.6161 0.3778
O9_2 O 0.68858(6) 0.87889(13) 0.39949(18)
C20_3 C 0.65160(9) 0.9417(2) 0.3278(3)
O10_2 O 0.71346(6) 0.82282(14) 0.56971(16)
C21_2 C 0.68470(8) 0.82840(18) 0.6859(2)
H6_2 H 0.6415 0.6717 0.7778
C22_2 C 0.68611(9) 0.67695(18) 0.8001(2)
C23_2 C 0.71223(8) 0.67458(19) 0.6749(2)
H7_2 H 0.6851 0.6645 0.5704
H8_3 H 0.5514 0.9021 0.7163
C24_4 C 0.54990(16) 1.0000 0.7283(4)
H9_4 H 0.5888 1.0000 0.5366
C25_2 C 0.53083(9) 0.7940(2) 0.1461(2)
C26_2 C 0.48271(9) 0.7945(2) 0.2176(3)
C27_2 C 0.57691(9) 0.7908(2) 0.0688(3)
O11_2 O 0.73585(6) 0.80491(15) 0.31836(17)
O12_2 O 0.75805(6) 0.82303(15) 0.44163(17)
H10_3 H 0.7335 0.6682 0.3766
C28_3 C 0.70195(9) 0.55714(19) 0.3286(2)
C29_3 C 0.63336(11) 0.9414(2) 0.2545(3)
C30_4 C 0.66217(13) 1.0000 0.3600(4)
C31_2 C 0.65684(9) 0.82902(18) 0.7165(2)
C32_2 C 0.71018(9) 0.83477(19) 0.7410(2)
C33_2 C 0.71240(8) 0.67854(19) 0.7600(2)
C34_2 C 0.68720(10) 0.68472(19) 0.8922(2)
C35_2 C 0.74109(9) 0.6824(2) 0.6367(3)
H11_4 H 0.5403 1.0000 0.7770
H12_2 H 0.5204 0.8104 0.0985
O13_2 O 0.47004(6) 0.77326(16) 0.27740(18)
O14_2 O 0.47011(6) 0.82532(15) 0.15687(18)
C36_3 C 0.71810(9) 0.55880(19) 0.2612(2)
C37_5 C 0.69312(12) 0.5000 0.3635(3)
H13_3 H 0.6264 0.9021 0.2321
C38_4 C 0.62503(16) 1.0000 0.2129(5)
H14_4 H 0.6767 1.0000 0.4044
H15_2 H 0.6398 0.8244 0.6801
C39_2 C 0.65396(8) 0.83644(18) 0.8011(2)
C40_2 C 0.70741(8) 0.84468(19) 0.8254(2)
H16_2 H 0.7290 0.8324 0.7214
H17_2 H 0.7305 0.6824 0.7917
O17_2 O 0.66419(6) 0.69844(14) 0.92565(16)
O18_2 O 0.71254(6) 0.67662(14) 0.93198(16)
H18_3 H 0.7233 0.5981 0.2381
C41_5 C 0.72664(13) 0.5000 0.2275(4)
H19_5 H 0.6817 0.5000 0.4088
C42_4 C 0.6093(2) 1.0000 0.1262(6)
C43_2 C 0.67936(8) 0.84578(18) 0.8546(2)
C44_2 C 0.62411(8) 0.83280(18) 0.8348(2)
C45_2 C 0.73459(9) 0.8501(2) 0.8859(3)
O19_2 O 0.39906(6) 0.84031(15) 0.21139(17)
O20_2 O 0.37716(6) 0.81984(12) 0.08772(15)
O21_2 O 0.42474(8) 0.92215(15) 0.0790(2)
N7_2 N 0.42041(7) 0.71970(16) 0.1277(2)
H20_5 H 0.7381 0.5000 0.1823
O22_3 O 0.60316(14) 0.9475(2) 0.0917(3)
H21_2 H 0.6775 0.8529 0.9108
O23_2 O 0.73473(7) 0.88949(17) 0.9437(2)
O24_2 O 0.75619(6) 0.81323(15) 0.87187(18)
N8_2 N 0.60104(7) 0.68908(16) 0.9241(2)
C46_3 C 0.60109(10) 0.6283(2) 0.9024(3)
C50_3 C 0.56772(10) 0.6762(2) 0.8220(3)
N11_3 N 0.58036(8) 0.61705(16) 0.8387(2)
H22_3 H 0.6137 0.5969 0.9274
H25_3 H 0.5527 0.6842 0.7804
C52_3 C 0.57348(10) 0.5575(2) 0.7970(3)
C56_3 C 0.55961(10) 0.5587(2) 0.7186(3)
C57_5 C 0.57994(13) 0.5000 0.8377(4)
H28_3 H 0.5550 0.5979 0.6921
C61_5 C 0.55245(15) 0.5000 0.6790(4)
H29_5 H 0.5885 0.5000 0.8921
H32_5 H 0.5428 0.5000 0.6259
O28_2 O 0.76415(6) 0.69509(15) 0.68164(17)
O29_2 O 0.74195(6) 0.67697(15) 0.55837(17)
C69_3 C 0.70195(9) 0.44286(19) 0.3286(2)
Co8_2 Co 0.633095(11) 0.74190(2) 0.99956(3)
C72_3 C 0.71810(9) 0.44120(19) 0.2612(2)
N16_3 N 0.69430(7) 0.38180(15) 0.3649(2)
O34_2 O 0.60094(6) 0.84031(15) 0.78861(17)
O35_2 O 0.62284(6) 0.81984(12) 0.91228(15)
C73_2 C 0.37589(8) 0.83280(18) 0.1652(2)
N17_2 N 0.39896(7) 0.68908(16) 0.0759(2)
H38_3 H 0.7233 0.4019 0.2381
C74_3 C 0.71315(9) 0.33134(19) 0.3833(2)
C75_3 C 0.66733(9) 0.35980(19) 0.3839(2)
Co14_2 Co 0.573194(11) 0.82138(3) 0.88843(3)
N18_2 N 0.57959(7) 0.71970(16) 0.8723(2)
C76_2 C 0.34604(8) 0.83644(18) 0.1989(2)
O38_2 O 0.33581(6) 0.69844(14) 0.07435(16)
N20_3 N 0.69884(7) 0.28239(16) 0.4118(2)
H39_3 H 0.7335 0.3318 0.3766
N21_3 N 0.66919(7) 0.30079(16) 0.41158(19)
H40_3 H 0.6498 0.3839 0.3778
O41_2 O 0.57526(8) 0.92215(15) 0.9210(2)
O42_2 O 0.52989(6) 0.82532(15) 0.84313(18)
C77_2 C 0.34316(9) 0.82902(18) 0.2835(2)
C78_2 C 0.32064(8) 0.84578(18) 0.1454(2)
C79_2 C 0.31280(10) 0.68472(19) 0.1078(2)
C80_2 C 0.51729(9) 0.7945(2) 0.7824(3)
C81_2 C 0.31530(8) 0.82840(18) 0.3141(2)
H41_2 H 0.3602 0.8244 0.3199
H42_2 H 0.3225 0.8529 0.0892
C82_2 C 0.29259(8) 0.84468(19) 0.1746(2)
O44_2 O 0.28746(6) 0.67662(14) 0.06802(16)
C83_2 C 0.31389(9) 0.67695(18) 0.1999(2)
O46_2 O 0.52996(6) 0.77326(16) 0.72260(18)
C84_2 C 0.48413(9) 0.7823(2) 0.7840(2)
C86_2 C 0.28982(9) 0.83477(19) 0.2590(2)
C87_2 C 0.31230(9) 0.81680(19) 0.4048(2)
C88_2 C 0.26541(9) 0.8501(2) 0.1141(3)
C89_2 C 0.34068(8) 0.67221(19) 0.2477(2)
C90_2 C 0.28760(8) 0.67854(19) 0.2400(2)
C91_2 C 0.46858(9) 0.7559(2) 0.7144(2)
C92_2 C 0.46917(9) 0.7940(2) 0.8539(2)
C93_3 C 0.57348(10) 0.4425(2) 0.7970(3)
H43_2 H 0.2710 0.8324 0.2786
O48_2 O 0.33482(6) 0.80204(14) 0.45032(16)
O49_2 O 0.28654(6) 0.82282(14) 0.43029(16)
O50_2 O 0.26527(7) 0.88949(17) 0.0563(2)
O51_2 O 0.24381(6) 0.81323(15) 0.12813(18)
C97_2 C 0.34133(8) 0.66812(19) 0.3345(2)
H44_2 H 0.3585 0.6717 0.2222
H45_2 H 0.2695 0.6824 0.2083
C98_2 C 0.28777(8) 0.67458(19) 0.3251(2)
C99_2 C 0.43801(9) 0.7434(2) 0.7140(2)
H46_2 H 0.4785 0.7464 0.6677
H47_2 H 0.4796 0.8104 0.9015
C100_2 C 0.43866(9) 0.7815(2) 0.8542(2)
C101_3 C 0.55961(10) 0.4413(2) 0.7186(3)
N23_3 N 0.58036(8) 0.38295(16) 0.8387(2)
Co19_2 Co 0.363326(11) 0.75963(2) 0.54488(3)
Co20_2 Co 0.286137(12) 0.80818(3) 0.55243(3)
C103_2 C 0.31464(9) 0.66845(19) 0.3722(2)
C104_2 C 0.37086(9) 0.66900(19) 0.3840(2)
C105_2 C 0.25891(9) 0.6824(2) 0.3633(3)
C106_2 C 0.42336(9) 0.7570(2) 0.7833(2)
C107_2 C 0.42122(10) 0.7182(2) 0.6365(3)
C108_2 C 0.42309(9) 0.7908(2) 0.9312(3)
H49_3 H 0.5550 0.4021 0.6921
C109_3 C 0.56772(10) 0.3238(2) 0.8220(3)
C110_3 C 0.60109(10) 0.3717(2) 0.9024(3)
O55_2 O 0.39323(6) 0.72052(13) 0.63164(15)
O56_2 O 0.37218(6) 0.68089(12) 0.46204(15)
N25_2 N 0.33081(7) 0.69921(16) 0.58842(19)
N26_2 N 0.39669(7) 0.81229(16) 0.4877(2)
O57_2 O 0.35692(7) 0.83494(14) 0.62536(17)
N27_2 N 0.30116(7) 0.71761(16) 0.5882(2)
O58_2 O 0.31142(6) 0.87889(13) 0.60051(18)
O59_2 O 0.26415(6) 0.80491(15) 0.68164(17)
O60_2 O 0.24195(6) 0.82303(15) 0.55837(17)
H51_2 H 0.3149 0.6645 0.4296
O61_2 O 0.39425(6) 0.65820(14) 0.34985(16)
O62_2 O 0.23585(6) 0.69509(15) 0.31836(17)
O63_2 O 0.25805(6) 0.67697(15) 0.44163(17)
H52_2 H 0.4029 0.7497 0.7825
O64_2 O 0.43668(6) 0.69736(15) 0.57976(17)
O65_2 O 0.39537(6) 0.78194(14) 0.92590(16)
O66_2 O 0.43877(6) 0.80644(15) 0.99640(16)
N28_3 N 0.57959(7) 0.28030(16) 0.8723(2)
H53_3 H 0.5527 0.3158 0.7804
N29_3 N 0.60104(7) 0.31092(16) 0.9241(2)
H54_3 H 0.6137 0.4031 0.9274
Co27_2 Co 0.421289(12) 0.67770(3) 0.46285(3)
N32_2 N 0.41676(7) 0.77983(16) 0.4432(2)
Co30_3 Co 0.573194(11) 0.17862(3) 0.88843(3)
O67_2 O 0.46291(7) 0.67878(15) 0.4160(2)
O68_2 O 0.42090(7) 0.57831(14) 0.49456(18)
N19_2 N 0.33366(7) 0.80053(15) 0.94084(19)
O40_2 O 0.36336(6) 0.66311(14) 0.91629(17)
N22_2 N 0.30414(7) 0.78103(16) 0.9301(2)
Co18_2 Co 0.291831(12) 0.68769(3) 0.94829(3)
O45_2 O 0.31733(6) 0.62123(13) 0.90791(18)
O47_2 O 0.25619(6) 0.68677(15) 0.87187(18)
C16_5 C 0.42073(14) -0.0000 0.4146(4)
C24_5 C 0.45010(16) -0.0000 0.2717(4)
H9_5 H 0.4112 -0.0000 0.4634
C30_5 C 0.33783(13) 0.0000 0.6400(4)
H11_5 H 0.4597 -0.0000 0.2230
C38_5 C 0.37497(16) 0.0000 0.7871(5)
H14_5 H 0.3233 0.0000 0.5956
C42_5 C 0.3907(2) -0.0000 0.8738(6)
C64_4 C 0.42783(9) 0.05765(19) 0.3783(3)
C65_4 C 0.44315(10) 0.0588(2) 0.3070(3)
N13_4 N 0.41928(7) 0.11734(15) 0.4143(2)
C66_4 C 0.34840(9) 0.0583(2) 0.6722(3)
H34_4 H 0.4486 0.0979 0.2837
C67_4 C 0.42943(10) 0.1773(2) 0.3997(3)
C68_4 C 0.39845(9) 0.1267(2) 0.4693(2)
C70_4 C 0.36664(11) 0.0586(2) 0.7455(3)
C71_4 C 0.33837(10) 0.1200(2) 0.6301(2)
N14_4 N 0.41676(7) 0.22017(16) 0.4432(2)
H35_4 H 0.4437 0.1867 0.3630
N15_4 N 0.39669(7) 0.18771(16) 0.4877(2)
H36_4 H 0.3871 0.0940 0.4907
O31_4 O 0.39684(14) 0.0525(2) 0.9083(3)
H37_4 H 0.3736 0.0979 0.7679
O32_4 O 0.35692(7) 0.16506(14) 0.62536(17)
O33_4 O 0.31142(6) 0.12111(13) 0.60051(18)
Co10_4 Co 0.421289(12) 0.32230(3) 0.46285(3)
Co11_4 Co 0.363326(11) 0.24037(2) 0.54488(3)
Co26_4 Co 0.366905(11) 0.25810(2) 0.00044(3)
C59_5 C 0.30719(12) -0.0000 0.8905(4)
C62_5 C 0.27085(15) 0.0000 0.7428(4)
H31_5 H 0.3193 0.0000 0.9400
H33_5 H 0.2591 -0.0000 0.6927
C94_4 C 0.29802(9) 0.05704(19) 0.8530(3)
C102_4 C 0.27959(9) 0.0580(2) 0.7801(3)
N24_4 N 0.30689(7) 0.11851(15) 0.8895(2)
H50_4 H 0.2732 0.0972 0.7564
C111_4 C 0.33461(9) 0.13980(19) 0.9169(2)
C112_4 C 0.28870(9) 0.1698(2) 0.8994(3)
N30_4 N 0.33366(7) 0.19947(15) 0.94084(19)
H55_4 H 0.3519 0.1148 0.9183
N31_4 N 0.30414(7) 0.21897(16) 0.9301(2)
H56_4 H 0.2682 0.1699 0.8863
C1_4 C 0.42943(10) 0.8227(2) 0.3997(3)
C4_4 C 0.39845(9) 0.8733(2) 0.4693(2)
N3_4 N 0.41928(7) 0.88266(15) 0.4143(2)
H1_4 H 0.4437 0.8133 0.3630
H2_4 H 0.3871 0.9060 0.4907
C7_4 C 0.42783(9) 0.94235(19) 0.3783(3)
C10_4 C 0.33267(9) 0.64020(19) 0.6161(2)
C11_4 C 0.33837(10) 0.8800(2) 0.6301(2)
C15_4 C 0.44315(10) 0.9412(2) 0.3070(3)
C16_6 C 0.42073(14) 1.0000 0.4146(4)
C19_4 C 0.28685(9) 0.66866(19) 0.6167(2)
N6_4 N 0.30570(7) 0.61820(15) 0.6351(2)
H5_4 H 0.3502 0.6161 0.6222
C20_4 C 0.34840(9) 0.9417(2) 0.6722(3)
H8_4 H 0.4486 0.9021 0.2837
C24_6 C 0.45010(16) 1.0000 0.2717(4)
H9_6 H 0.4112 1.0000 0.4634
H10_4 H 0.2665 0.6682 0.6234
C28_4 C 0.29805(9) 0.55714(19) 0.6714(2)
C29_4 C 0.36664(11) 0.9414(2) 0.7455(3)
C30_6 C 0.33783(13) 1.0000 0.6400(4)
H11_6 H 0.4597 1.0000 0.2230
C36_4 C 0.28190(9) 0.55880(19) 0.7388(2)
C37_6 C 0.30688(12) 0.5000 0.6365(3)
H13_4 H 0.3736 0.9021 0.7679
C38_6 C 0.37497(16) 1.0000 0.7871(5)
H14_6 H 0.3233 1.0000 0.5956
H18_4 H 0.2767 0.5981 0.7619
C41_6 C 0.27336(13) 0.5000 0.7725(4)
H19_6 H 0.3183 0.5000 0.5912
C42_6 C 0.3907(2) 1.0000 0.8738(6)
H20_6 H 0.2619 0.5000 0.8177
O22_4 O 0.39684(14) 0.9475(2) 0.9083(3)
C46_4 C 0.39891(10) 0.6283(2) 0.0976(3)
C50_4 C 0.43228(10) 0.6762(2) 0.1780(3)
N11_4 N 0.41964(8) 0.61705(16) 0.1613(2)
H22_4 H 0.3863 0.5969 0.0726
H25_4 H 0.4473 0.6842 0.2196
C52_4 C 0.42652(10) 0.5575(2) 0.2030(3)
C56_4 C 0.44039(10) 0.5587(2) 0.2814(3)
C57_6 C 0.42006(13) 0.5000 0.1623(4)
H28_4 H 0.4450 0.5979 0.3079
C61_6 C 0.44755(15) 0.5000 0.3210(4)
H29_6 H 0.4115 0.5000 0.1079
H32_6 H 0.4572 0.5000 0.3741
C69_4 C 0.29805(9) 0.44286(19) 0.6714(2)
C72_4 C 0.28190(9) 0.44120(19) 0.7388(2)
N16_4 N 0.30570(7) 0.38180(15) 0.6351(2)
H38_4 H 0.2767 0.4019 0.7619
C74_4 C 0.28685(9) 0.33134(19) 0.6167(2)
C75_4 C 0.33267(9) 0.35980(19) 0.6161(2)
N20_4 N 0.30116(7) 0.28239(16) 0.5882(2)
H39_4 H 0.2665 0.3318 0.6234
N21_4 N 0.33081(7) 0.30079(16) 0.58842(19)
H40_4 H 0.3502 0.3839 0.6222
C93_4 C 0.42652(10) 0.4425(2) 0.2030(3)
C101_4 C 0.44039(10) 0.4413(2) 0.2814(3)
N23_4 N 0.41964(8) 0.38295(16) 0.1613(2)
H49_4 H 0.4450 0.4021 0.3079
C109_4 C 0.43228(10) 0.3238(2) 0.1780(3)
C110_4 C 0.39891(10) 0.3717(2) 0.0976(3)
N28_4 N 0.42041(7) 0.28030(16) 0.1277(2)
H53_4 H 0.4473 0.3158 0.2196
N29_4 N 0.39896(7) 0.31092(16) 0.0759(2)
H54_4 H 0.3863 0.4031 0.0726
Co30_4 Co 0.426806(11) 0.17862(3) 0.11157(3)
C47_4 C 0.33461(9) 0.86020(19) 0.9169(2)
C48_4 C 0.34479(9) 0.6198(2) 0.8960(2)
C49_4 C 0.28870(9) 0.8302(2) 0.8994(3)
N12_4 N 0.30689(7) 0.88149(15) 0.8895(2)
H23_4 H 0.3519 0.8852 0.9183
C51_4 C 0.35457(9) 0.55872(18) 0.8561(2)
H24_4 H 0.2682 0.8301 0.8863
C53_4 C 0.29802(9) 0.94296(19) 0.8530(3)
C54_4 C 0.37208(9) 0.5587(2) 0.7894(2)
C55_6 C 0.34471(13) 0.5000 0.8853(3)
C58_4 C 0.27959(9) 0.9420(2) 0.7801(3)
C59_6 C 0.30719(12) 1.0000 0.8905(4)
H26_4 H 0.3788 0.5977 0.7689
C60_6 C 0.37960(13) 0.5000 0.7530(4)
H27_6 H 0.3311 0.5000 0.9255
H30_4 H 0.2732 0.9028 0.7564
C62_6 C 0.27085(15) 1.0000 0.7428(4)
H31_6 H 0.3193 1.0000 0.9400
C63_6 C 0.39412(16) 0.5000 0.6708(4)
H33_6 H 0.2591 1.0000 0.6927
O27_4 O 0.39895(11) 0.55333(17) 0.6391(2)
C85_4 C 0.35457(9) 0.44128(18) 0.8561(2)
C95_4 C 0.37208(9) 0.4413(2) 0.7894(2)
C96_4 C 0.34479(9) 0.3802(2) 0.8960(2)
O52_4 O 0.39895(11) 0.44667(17) 0.6391(2)
H48_4 H 0.3788 0.4023 0.7689
O53_4 O 0.36336(6) 0.33689(14) 0.91629(17)
O54_4 O 0.31733(6) 0.37877(13) 0.90791(18)
O30 O 0.06123(6) 0.69356(15) 0.00360(16)
O39 O 0.10463(6) 0.71806(14) 0.07410(16)
C26_3 C 0.01729(9) 0.7055(2) 0.7824(3)
O13_3 O 0.02996(6) 0.72674(16) 0.72260(18)
O14_3 O 0.02989(6) 0.67468(15) 0.84313(18)
O19_3 O 0.10094(6) 0.65969(15) 0.78861(17)
O20_3 O 0.12284(6) 0.68016(12) 0.91228(15)
O21_3 O 0.07526(8) 0.57785(15) 0.9210(2)
C73_3 C 0.12411(8) 0.66720(18) 0.8348(2)
C76_3 C 0.15396(8) 0.66356(18) 0.8011(2)
O38_3 O 0.16419(6) 0.80156(14) 0.92565(16)
C77_3 C 0.15684(9) 0.67098(18) 0.7165(2)
C78_3 C 0.17936(8) 0.65422(18) 0.8546(2)
C79_3 C 0.18720(10) 0.81528(19) 0.8922(2)
C81_3 C 0.18470(8) 0.67160(18) 0.6859(2)
H41_3 H 0.1398 0.6756 0.6801
H42_3 H 0.1775 0.6471 0.9108
C82_3 C 0.20741(8) 0.65532(19) 0.8254(2)
O44_3 O 0.21254(6) 0.82338(14) 0.93198(16)
C83_3 C 0.18611(9) 0.82305(18) 0.8001(2)
C84_3 C 0.01587(9) 0.7177(2) 0.2160(2)
C86_3 C 0.21018(9) 0.66523(19) 0.7410(2)
C87_3 C 0.18770(9) 0.68320(19) 0.5952(2)
C88_3 C 0.23459(9) 0.6499(2) 0.8859(3)
C89_3 C 0.15932(8) 0.82779(19) 0.7523(2)
C90_3 C 0.21240(8) 0.82146(19) 0.7600(2)
C91_3 C 0.03142(9) 0.7441(2) 0.2856(2)
C92_3 C 0.03083(9) 0.7060(2) 0.1461(2)
H43_3 H 0.2290 0.6676 0.7214
O48_3 O 0.16518(6) 0.69796(14) 0.54968(16)
O49_3 O 0.21346(6) 0.67718(14) 0.56971(16)
O50_3 O 0.23473(7) 0.61051(17) 0.9437(2)
C97_3 C 0.15867(8) 0.83188(19) 0.6655(2)
H44_3 H 0.1415 0.8283 0.7778
H45_3 H 0.2305 0.8176 0.7917
C98_3 C 0.21223(8) 0.82542(19) 0.6749(2)
C99_3 C 0.06199(9) 0.7566(2) 0.2860(2)
H46_3 H 0.0215 0.7536 0.3323
H47_3 H 0.0204 0.6896 0.0985
C100_3 C 0.06134(9) 0.7185(2) 0.1458(2)
C103_3 C 0.18536(9) 0.83155(19) 0.6278(2)
C104_3 C 0.12914(9) 0.83100(19) 0.6160(2)
C105_3 C 0.24109(9) 0.8176(2) 0.6367(3)
C106_3 C 0.07664(9) 0.7430(2) 0.2167(2)
C107_3 C 0.07878(10) 0.7818(2) 0.3635(3)
C108_3 C 0.07691(9) 0.7092(2) 0.0688(3)
O55_3 O 0.10677(6) 0.77948(13) 0.36836(15)
O56_3 O 0.12782(6) 0.81911(12) 0.53796(15)
H51_3 H 0.1851 0.8355 0.5704
O61_3 O 0.10575(6) 0.84180(14) 0.65015(16)
H52_3 H 0.0971 0.7503 0.2175
O64_3 O 0.06332(6) 0.80264(15) 0.42024(17)
O67_3 O 0.03709(7) 0.82122(15) 0.5840(2)
O68_3 O 0.07910(7) 0.92169(14) 0.50544(18)
O1_3 O 0.93668(6) 0.80264(15) 0.57976(17)
O2_3 O 0.87218(6) 0.81911(12) 0.46204(15)
O3_3 O 0.89425(6) 0.84180(14) 0.34985(16)
O4_3 O 0.96291(7) 0.82122(15) 0.4160(2)
O5_3 O 0.92090(7) 0.92169(14) 0.49456(18)
C2_3 C 0.92122(10) 0.7818(2) 0.6365(3)
C3_3 C 0.87086(9) 0.83100(19) 0.3840(2)
O6_3 O 0.89323(6) 0.77948(13) 0.63164(15)
C5_3 C 0.93801(9) 0.7566(2) 0.7140(2)
O8_3 O 0.83482(6) 0.69796(14) 0.45032(16)
C6_3 C 0.84133(8) 0.83188(19) 0.3345(2)
C8_3 C 0.96858(9) 0.7441(2) 0.7144(2)
C9_3 C 0.92336(9) 0.7430(2) 0.7833(2)
C12_3 C 0.81230(9) 0.68320(19) 0.4048(2)
C13_3 C 0.84068(8) 0.82779(19) 0.2477(2)
C14_3 C 0.81464(9) 0.83155(19) 0.3722(2)
H3_3 H 0.9785 0.7536 0.6677
C17_3 C 0.98413(9) 0.7177(2) 0.7840(2)
C18_3 C 0.93866(9) 0.7185(2) 0.8542(2)
H4_3 H 0.9029 0.7503 0.7825
O10_3 O 0.78654(6) 0.67718(14) 0.43029(16)
C21_3 C 0.81530(8) 0.67160(18) 0.3141(2)
H6_3 H 0.8585 0.8283 0.2222
C22_3 C 0.81389(9) 0.82305(18) 0.1999(2)
C23_3 C 0.78777(8) 0.82542(19) 0.3251(2)
H7_3 H 0.8149 0.8355 0.4296
C25_3 C 0.96917(9) 0.7060(2) 0.8539(2)
C27_3 C 0.92309(9) 0.7092(2) 0.9312(3)
C31_3 C 0.84316(9) 0.67098(18) 0.2835(2)
C32_3 C 0.78982(9) 0.66523(19) 0.2590(2)
C33_3 C 0.78760(8) 0.82146(19) 0.2400(2)
C34_3 C 0.81280(10) 0.81528(19) 0.1078(2)
C35_3 C 0.75891(9) 0.8176(2) 0.3633(3)
H12_3 H 0.9796 0.6896 0.9015
O15 O 0.89537(6) 0.71806(14) 0.92590(16)
O16 O 0.93877(6) 0.69356(15) 0.99640(16)
H15_3 H 0.8602 0.6756 0.3199
C39_3 C 0.84604(8) 0.66356(18) 0.1989(2)
C40_3 C 0.79259(8) 0.65532(19) 0.1746(2)
H16_3 H 0.7710 0.6676 0.2786
H17_3 H 0.7695 0.8176 0.2083
O17_3 O 0.83581(6) 0.80156(14) 0.07435(16)
O18_3 O 0.78746(6) 0.82338(14) 0.06802(16)
C43_3 C 0.82064(8) 0.65422(18) 0.1454(2)
C44_3 C 0.87589(8) 0.66720(18) 0.1652(2)
C45_3 C 0.76541(9) 0.6499(2) 0.1141(3)
H21_3 H 0.8225 0.6471 0.0892
O23_3 O 0.76527(7) 0.61051(17) 0.0563(2)
O34_3 O 0.89906(6) 0.65969(15) 0.21139(17)
O35_3 O 0.87716(6) 0.68016(12) 0.08772(15)
O41_3 O 0.92474(8) 0.57785(15) 0.0790(2)
O42_3 O 0.97011(6) 0.67468(15) 0.15687(18)
C80_3 C 0.98271(9) 0.7055(2) 0.2176(3)
O46_3 O 0.97004(6) 0.72674(16) 0.27740(18)
O30_2 O 0.56123(6) 0.19356(15) 0.00360(16)
O39_2 O 0.60463(6) 0.21806(14) 0.07410(16)
O1_4 O 0.43668(6) 0.30264(15) 0.57976(17)
O2_4 O 0.37218(6) 0.31911(12) 0.46204(15)
O3_4 O 0.39425(6) 0.34180(14) 0.34985(16)
O4_4 O 0.46291(7) 0.32122(15) 0.4160(2)
O5_4 O 0.42090(7) 0.42169(14) 0.49456(18)
C2_4 C 0.42122(10) 0.2818(2) 0.6365(3)
C3_4 C 0.37086(9) 0.33100(19) 0.3840(2)
O6_4 O 0.39323(6) 0.27948(13) 0.63164(15)
C5_4 C 0.43801(9) 0.2566(2) 0.7140(2)
O8_4 O 0.33482(6) 0.19796(14) 0.45032(16)
C6_4 C 0.34133(8) 0.33188(19) 0.3345(2)
C8_4 C 0.46858(9) 0.2441(2) 0.7144(2)
C9_4 C 0.42336(9) 0.2430(2) 0.7833(2)
C12_4 C 0.31230(9) 0.18320(19) 0.4048(2)
C13_4 C 0.34068(8) 0.32779(19) 0.2477(2)
C14_4 C 0.31464(9) 0.33155(19) 0.3722(2)
H3_4 H 0.4785 0.2536 0.6677
C17_4 C 0.48413(9) 0.2177(2) 0.7840(2)
C18_4 C 0.43866(9) 0.2185(2) 0.8542(2)
H4_4 H 0.4029 0.2503 0.7825
O10_4 O 0.28654(6) 0.17718(14) 0.43029(16)
C21_4 C 0.31530(8) 0.17160(18) 0.3141(2)
H6_4 H 0.3585 0.3283 0.2222
C22_4 C 0.31389(9) 0.32305(18) 0.1999(2)
C23_4 C 0.28777(8) 0.32542(19) 0.3251(2)
H7_4 H 0.3149 0.3355 0.4296
C25_4 C 0.46917(9) 0.2060(2) 0.8539(2)
C26_4 C 0.51729(9) 0.2055(2) 0.7824(3)
C27_4 C 0.42309(9) 0.2092(2) 0.9312(3)
C31_4 C 0.34316(9) 0.17098(18) 0.2835(2)
C32_4 C 0.28982(9) 0.16523(19) 0.2590(2)
C33_4 C 0.28760(8) 0.32146(19) 0.2400(2)
C34_4 C 0.31280(10) 0.31528(19) 0.1078(2)
C35_4 C 0.25891(9) 0.3176(2) 0.3633(3)
H12_4 H 0.4796 0.1896 0.9015
O13_4 O 0.52996(6) 0.22674(16) 0.72260(18)
O14_4 O 0.52989(6) 0.17468(15) 0.84313(18)
O15_2 O 0.39537(6) 0.21806(14) 0.92590(16)
O16_2 O 0.43877(6) 0.19356(15) 0.99640(16)
H15_4 H 0.3602 0.1756 0.3199
C39_4 C 0.34604(8) 0.16356(18) 0.1989(2)
C40_4 C 0.29259(8) 0.15532(19) 0.1746(2)
H16_4 H 0.2710 0.1676 0.2786
H17_4 H 0.2695 0.3176 0.2083
O17_4 O 0.33581(6) 0.30156(14) 0.07435(16)
O18_4 O 0.28746(6) 0.32338(14) 0.06802(16)
C43_4 C 0.32064(8) 0.15422(18) 0.1454(2)
C44_4 C 0.37589(8) 0.16720(18) 0.1652(2)
C45_4 C 0.26541(9) 0.1499(2) 0.1141(3)
O19_4 O 0.60094(6) 0.15969(15) 0.78861(17)
O20_4 O 0.62284(6) 0.18016(12) 0.91228(15)
O21_4 O 0.57526(8) 0.07785(15) 0.9210(2)
H21_4 H 0.3225 0.1471 0.0892
O23_4 O 0.26527(7) 0.11051(17) 0.0563(2)
O34_4 O 0.39906(6) 0.15969(15) 0.21139(17)
O35_4 O 0.37716(6) 0.18016(12) 0.08772(15)
C73_4 C 0.62411(8) 0.16720(18) 0.8348(2)
C76_4 C 0.65396(8) 0.16356(18) 0.8011(2)
O38_4 O 0.66419(6) 0.30156(14) 0.92565(16)
O41_4 O 0.42474(8) 0.07785(15) 0.0790(2)
O42_4 O 0.47011(6) 0.17468(15) 0.15687(18)
C77_4 C 0.65684(9) 0.17098(18) 0.7165(2)
C78_4 C 0.67936(8) 0.15422(18) 0.8546(2)
C79_4 C 0.68720(10) 0.31528(19) 0.8922(2)
C80_4 C 0.48271(9) 0.2055(2) 0.2176(3)
C81_4 C 0.68470(8) 0.17160(18) 0.6859(2)
H41_4 H 0.6398 0.1756 0.6801
H42_4 H 0.6775 0.1471 0.9108
C82_4 C 0.70741(8) 0.15532(19) 0.8254(2)
O44_4 O 0.71254(6) 0.32338(14) 0.93198(16)
C83_4 C 0.68611(9) 0.32305(18) 0.8001(2)
O46_4 O 0.47004(6) 0.22674(16) 0.27740(18)
C84_4 C 0.51587(9) 0.2177(2) 0.2160(2)
C86_4 C 0.71018(9) 0.16523(19) 0.7410(2)
C87_4 C 0.68770(9) 0.18320(19) 0.5952(2)
C88_4 C 0.73459(9) 0.1499(2) 0.8859(3)
C89_4 C 0.65932(8) 0.32779(19) 0.7523(2)
C90_4 C 0.71240(8) 0.32146(19) 0.7600(2)
C91_4 C 0.53142(9) 0.2441(2) 0.2856(2)
C92_4 C 0.53083(9) 0.2060(2) 0.1461(2)
H43_4 H 0.7290 0.1676 0.7214
O48_4 O 0.66518(6) 0.19796(14) 0.54968(16)
O49_4 O 0.71346(6) 0.17718(14) 0.56971(16)
O50_4 O 0.73473(7) 0.11051(17) 0.9437(2)
C97_4 C 0.65867(8) 0.33188(19) 0.6655(2)
H44_4 H 0.6415 0.3283 0.7778
H45_4 H 0.7305 0.3176 0.7917
C98_4 C 0.71223(8) 0.32542(19) 0.6749(2)
C99_4 C 0.56199(9) 0.2566(2) 0.2860(2)
H46_4 H 0.5215 0.2536 0.3323
H47_4 H 0.5204 0.1896 0.0985
C100_4 C 0.56134(9) 0.2185(2) 0.1458(2)
C103_4 C 0.68536(9) 0.33155(19) 0.6278(2)
C104_4 C 0.62914(9) 0.33100(19) 0.6160(2)
C105_4 C 0.74109(9) 0.3176(2) 0.6367(3)
C106_4 C 0.57664(9) 0.2430(2) 0.2167(2)
C107_4 C 0.57878(10) 0.2818(2) 0.3635(3)
C108_4 C 0.57691(9) 0.2092(2) 0.0688(3)
O55_4 O 0.60677(6) 0.27948(13) 0.36836(15)
O56_4 O 0.62782(6) 0.31911(12) 0.53796(15)
H51_4 H 0.6851 0.3355 0.5704
O61_4 O 0.60575(6) 0.34180(14) 0.65015(16)
H52_4 H 0.5971 0.2503 0.2175
O64_4 O 0.56332(6) 0.30264(15) 0.42024(17)
O67_4 O 0.53709(7) 0.32122(15) 0.5840(2)
O68_4 O 0.57910(7) 0.42169(14) 0.50544(18)
loop_
_geom_bond_atom_site_label_1
_geom_bond_atom_site_label_2
_geom_bond_site_symmetry_1
_geom_bond_site_symmetry_2
N9 N10 1_555 1_555
O25 C48 1_555 1_555
N10 Co6 1_555 1_555
O26 Co6 1_555 1_555
C47 N9 1_555 1_555
C48 O26 1_555 1_555
C49 N10 1_555 1_555
N12 C47 1_555 1_555
H23 C47 1_555 1_555
C51 C48 1_555 1_555
H24 C49 1_555 1_555
C53 N12 1_555 1_555
C54 C51 1_555 1_555
C55 C51 1_555 1_555
C58 C53 1_555 1_555
C59 C53 1_555 1_555
H26 C54 1_555 1_555
C60 C54 1_555 1_555
H27 C55 1_555 1_555
H30 C58 1_555 1_555
C62 C58 1_555 1_555
H31 C59 1_555 1_555
C63 C60 1_555 1_555
H33 C62 1_555 1_555
O27 C63 1_555 1_555
O37 Co6 1_555 1_555
C94 C59 1_555 1_555
C102 C62 1_555 1_555
N24 C94 1_555 1_555
H50 C102 1_555 1_555
C111 N24 1_555 1_555
C112 N24 1_555 1_555
N30 C111 1_555 1_555
H55 C111 1_555 1_555
N31 C112 1_555 1_555
H56 C112 1_555 1_555
Co25 N31 1_555 1_555
C49 N12 1_555 1_555
C94 C102 1_555 1_555
N30 N31 1_555 1_555
Co1 N1 1_555 1_555
N1 N2 1_555 1_555
O1 Co1 1_555 1_555
O2 Co1 1_555 1_555
O3 Co1 1_555 1_555
O4 Co1 1_555 1_555
O5 Co1 1_555 1_555
N2 Co2 1_555 1_555
C1 N1 1_555 1_555
C2 O1 1_555 1_555
Co2 O2 1_555 1_555
C3 O2 1_555 1_555
C4 N2 1_555 1_555
N3 C1 1_555 1_555
H1 C1 1_555 1_555
O6 C2 1_555 1_555
C5 C2 1_555 1_555
N4 Co2 1_555 1_555
O7 Co2 1_555 1_555
O8 Co2 1_555 1_555
C6 C3 1_555 1_555
H2 C4 1_555 1_555
C7 N3 1_555 1_555
C8 C5 1_555 1_555
C9 C5 1_555 1_555
N5 N4 1_555 1_555
C10 N4 1_555 1_555
C11 O7 1_555 1_555
C12 O8 1_555 1_555
C13 C6 1_555 1_555
C14 C6 1_555 1_555
C15 C7 1_555 1_555
C16 C7 1_555 1_555
H3 C8 1_555 1_555
C17 C8 1_555 1_555
C18 C9 1_555 1_555
H4 C9 1_555 1_555
Co3 N5 1_555 1_555
C19 N5 1_555 1_555
N6 C10 1_555 1_555
H5 C10 1_555 1_555
O9 C11 1_555 1_555
C20 C11 1_555 1_555
O10 C12 1_555 1_555
C21 C12 1_555 1_555
H6 C13 1_555 1_555
C22 C13 1_555 1_555
C23 C14 1_555 1_555
H7 C14 1_555 1_555
H8 C15 1_555 1_555
C24 C15 1_555 1_555
H9 C16 1_555 1_555
C25 C17 1_555 1_555
C27 C18 1_555 1_555
O11 Co3 1_555 1_555
O12 Co3 1_555 1_555
H10 C19 1_555 1_555
C28 N6 1_555 1_555
C29 C20 1_555 1_555
C30 C20 1_555 1_555
C31 C21 1_555 1_555
C32 C21 1_555 1_555
C33 C22 1_555 1_555
C34 C22 1_555 1_555
C35 C23 1_555 1_555
H11 C24 1_555 1_555
H12 C25 1_555 1_555
O36 C27 1_555 1_555
O43 C27 1_555 1_555
C36 C28 1_555 1_555
C37 C28 1_555 1_555
H13 C29 1_555 1_555
C38 C29 1_555 1_555
H14 C30 1_555 1_555
H15 C31 1_555 1_555
C39 C31 1_555 1_555
C40 C32 1_555 1_555
H16 C32 1_555 1_555
H17 C33 1_555 1_555
O17 C34 1_555 1_555
O18 C34 1_555 1_555
H18 C36 1_555 1_555
C41 C36 1_555 1_555
H19 C37 1_555 1_555
C42 C38 1_555 1_555
C43 C39 1_555 1_555
C44 C39 1_555 1_555
C45 C40 1_555 1_555
H20 C41 1_555 1_555
O22 C42 1_555 1_555
H21 C43 1_555 1_555
O23 C45 1_555 1_555
O24 C45 1_555 1_555
N8 C46 1_555 1_555
C46 N11 1_555 1_555
C50 N11 1_555 1_555
N11 C52 1_555 1_555
H22 C46 1_555 1_555
H25 C50 1_555 1_555
C52 C56 1_555 1_555
C56 H28 1_555 1_555
C57 C52 1_555 1_555
C61 C56 1_555 1_555
H29 C57 1_555 1_555
H32 C61 1_555 1_555
C64 C16 1_555 1_555
C65 C24 1_555 1_555
N13 C64 1_555 1_555
C66 C30 1_555 1_555
O28 C35 1_555 1_555
O29 C35 1_555 1_555
H34 C65 1_555 1_555
C67 N13 1_555 1_555
C68 N13 1_555 1_555
C70 C38 1_555 1_555
C71 C66 1_555 1_555
Co8 O17 1_555 1_555
Co9 O28 1_555 1_555
N14 C67 1_555 1_555
H35 C67 1_555 1_555
N15 C68 1_555 1_555
H36 C68 1_555 1_555
O31 C42 1_555 1_555
H37 C70 1_555 1_555
O32 C71 1_555 1_555
O33 C71 1_555 1_555
O34 C44 1_555 1_555
O35 C44 1_555 1_555
Co10 N14 1_555 1_555
Co11 N15 1_555 1_555
Co13 O33 1_555 1_555
Co14 O34 1_555 1_555
Co15 O24 1_555 1_555
N18 N8 1_555 1_555
O41 Co14 1_555 1_555
O42 Co14 1_555 1_555
C80 O42 1_555 1_555
O46 C80 1_555 1_555
O3 C3 1_555 1_555
Co2 O6 1_555 1_555
C4 N3 1_555 1_555
C18 C25 1_555 1_555
Co3 O9 1_555 1_555
Co3 O10 1_555 1_555
C19 N6 1_555 1_555
C23 C33 1_555 1_555
C40 C43 1_555 1_555
N8 Co8 1_555 1_555
C50 N18 1_555 1_555
C64 C65 1_555 1_555
C66 C70 1_555 1_555
O29 Co9 1_555 1_555
Co8 O35 1_555 1_555
N14 N15 1_555 1_555
O32 Co11 1_555 1_555
O35 Co14 1_555 1_555
Co14 N18 1_555 1_555
H27_2 C55_2 1_555 1_555
C63_2 C60_2 1_555 1_555
C85 C55_2 1_555 1_555
C95 C60_2 1_555 1_555
C96 C85 1_555 1_555
O52 C63_2 1_555 1_555
H48 C95 1_555 1_555
O53 C96 1_555 1_555
O54 C96 1_555 1_555
Co25 O54 1_555 1_555
C85 C95 1_555 1_555
H19_2 C37_2 1_555 1_555
H20_2 C41_2 1_555 1_555
H29_2 C57_2 1_555 1_555
H32_2 C61_2 1_555 1_555
C69 C37_2 1_555 1_555
C72 C41_2 1_555 1_555
N16 C69 1_555 1_555
H38 C72 1_555 1_555
C74 N16 1_555 1_555
C75 N16 1_555 1_555
N20 C74 1_555 1_555
H39 C74 1_555 1_555
N21 C75 1_555 1_555
H40 C75 1_555 1_555
Co13 N20 1_555 1_555
Co11 N21 1_555 1_555
C93 C57_2 1_555 1_555
C101 C61_2 1_555 1_555
N23 C93 1_555 1_555
H49 C101 1_555 1_555
C109 N23 1_555 1_555
C110 N23 1_555 1_555
N28 C109 1_555 1_555
H53 C109 1_555 1_555
N29 C110 1_555 1_555
H54 C110 1_555 1_555
Co30 N28 1_555 1_555
C69 C72 1_555 1_555
N20 N21 1_555 1_555
C93 C101 1_555 1_555
Co26 N29 1_555 1_555
N28 N29 1_555 1_555
O13 C26 1_555 1_555
O14 C26 1_555 1_555
Co24 O14 1_555 1_555
O19 Co24 1_555 1_555
O20 Co24 1_555 1_555
O21 Co24 1_555 1_555
N7 Co24 1_555 1_555
C73 O19 1_555 1_555
Co29 O20 1_555 1_555
N17 N7 1_555 1_555
C76 C73 1_555 1_555
O38 Co29 1_555 1_555
C77 C76 1_555 1_555
C78 C76 1_555 1_555
C79 O38 1_555 1_555
C81 C77 1_555 1_555
H41 C77 1_555 1_555
H42 C78 1_555 1_555
C82 C78 1_555 1_555
O44 C79 1_555 1_555
C83 C79 1_555 1_555
C86 C81 1_555 1_555
C87 C81 1_555 1_555
C88 C82 1_555 1_555
C89 C83 1_555 1_555
C90 C83 1_555 1_555
C91 C84 1_555 1_555
C92 C84 1_555 1_555
H43 C86 1_555 1_555
O48 C87 1_555 1_555
O49 C87 1_555 1_555
O50 C88 1_555 1_555
O51 C88 1_555 1_555
C97 C89 1_555 1_555
H44 C89 1_555 1_555
H45 C90 1_555 1_555
C98 C90 1_555 1_555
C99 C91 1_555 1_555
H46 C91 1_555 1_555
H47 C92 1_555 1_555
C100 C92 1_555 1_555
Co19 O48 1_555 1_555
Co20 O49 1_555 1_555
Co21 O51 1_555 1_555
C103 C97 1_555 1_555
C104 C97 1_555 1_555
C105 C98 1_555 1_555
C106 C99 1_555 1_555
C107 C99 1_555 1_555
C108 C100 1_555 1_555
O55 Co19 1_555 1_555
O56 Co19 1_555 1_555
N25 Co19 1_555 1_555
N26 Co19 1_555 1_555
O57 Co19 1_555 1_555
N27 Co20 1_555 1_555
O58 Co20 1_555 1_555
O59 Co20 1_555 1_555
O60 Co20 1_555 1_555
H51 C103 1_555 1_555
O61 C104 1_555 1_555
O62 C105 1_555 1_555
O63 C105 1_555 1_555
H52 C106 1_555 1_555
O64 C107 1_555 1_555
O65 C108 1_555 1_555
O66 C108 1_555 1_555
Co27 O56 1_555 1_555
N32 N26 1_555 1_555
Co28 O62 1_555 1_555
O67 Co27 1_555 1_555
O68 Co27 1_555 1_555
O20 C73 1_555 1_555
Co29 N17 1_555 1_555
C82 C86 1_555 1_555
C98 C103 1_555 1_555
C100 C106 1_555 1_555
C104 O56 1_555 1_555
C107 O55 1_555 1_555
N25 N27 1_555 1_555
O61 Co27 1_555 1_555
O63 Co28 1_555 1_555
O64 Co27 1_555 1_555
Co27 N32 1_555 1_555
N22 N19 1_555 1_555
Co18 N22 1_555 1_555
O45 Co18 1_555 1_555
O47 Co18 1_555 1_555
C1_2 N32 1_555 1_555
C4_2 N26 1_555 1_555
N3_2 C1_2 1_555 1_555
H1_2 C1_2 1_555 1_555
H2_2 C4_2 1_555 1_555
C7_2 N3_2 1_555 1_555
C10_2 N25 1_555 1_555
C11_2 O57 1_555 1_555
C15_2 C7_2 1_555 1_555
C16_2 C7_2 1_555 1_555
C19_2 N27 1_555 1_555
N6_2 C10_2 1_555 1_555
H5_2 C10_2 1_555 1_555
O58 C11_2 1_555 1_555
C20_2 C11_2 1_555 1_555
H8_2 C15_2 1_555 1_555
C24_2 C15_2 1_555 1_555
H9_2 C16_2 1_555 1_555
H10_2 C19_2 1_555 1_555
C28_2 N6_2 1_555 1_555
C29_2 C20_2 1_555 1_555
C30_2 C20_2 1_555 1_555
H11_2 C24_2 1_555 1_555
C36_2 C28_2 1_555 1_555
C37_3 C28_2 1_555 1_555
H13_2 C29_2 1_555 1_555
C38_2 C29_2 1_555 1_555
H14_2 C30_2 1_555 1_555
H18_2 C36_2 1_555 1_555
C41_3 C36_2 1_555 1_555
H19_3 C37_3 1_555 1_555
C42_2 C38_2 1_555 1_555
H20_3 C41_3 1_555 1_555
O22_2 C42_2 1_555 1_555
N17 C46_2 1_555 1_555
C46_2 N11_2 1_555 1_555
C50_2 N11_2 1_555 1_555
N11_2 C52_2 1_555 1_555
H22_2 C46_2 1_555 1_555
H25_2 C50_2 1_555 1_555
C52_2 C56_2 1_555 1_555
C56_2 H28_2 1_555 1_555
C57_3 C52_2 1_555 1_555
C61_3 C56_2 1_555 1_555
H29_3 C57_3 1_555 1_555
H32_3 C61_3 1_555 1_555
C64_2 C16_2 1_555 1_555
C65_2 C24_2 1_555 1_555
N13_2 C64_2 1_555 1_555
C66_2 C30_2 1_555 1_555
H34_2 C65_2 1_555 1_555
C67_2 N13_2 1_555 1_555
C68_2 N13_2 1_555 1_555
C70_2 C38_2 1_555 1_555
C71_2 C66_2 1_555 1_555
N14_2 C67_2 1_555 1_555
H35_2 C67_2 1_555 1_555
N15_2 C68_2 1_555 1_555
H36_2 C68_2 1_555 1_555
O31_2 C42_2 1_555 1_555
H37_2 C70_2 1_555 1_555
O32_2 C71_2 1_555 1_555
O33_2 C71_2 1_555 1_555
Co10_2 N14_2 1_555 1_555
Co11_2 N15_2 1_555 1_555
Co13_2 O33_2 1_555 1_555
C4_2 N3_2 1_555 1_555
C19_2 N6_2 1_555 1_555
C50_2 N7 1_555 1_555
C64_2 C65_2 1_555 1_555
C66_2 C70_2 1_555 1_555
N14_2 N15_2 1_555 1_555
O32_2 Co11_2 1_555 1_555
O40 C48_2 1_555 1_555
C47_2 N19 1_555 1_555
C48_2 O45 1_555 1_555
C49_2 N22 1_555 1_555
N12_2 C47_2 1_555 1_555
H23_2 C47_2 1_555 1_555
C51_2 C48_2 1_555 1_555
H24_2 C49_2 1_555 1_555
C53_2 N12_2 1_555 1_555
C54_2 C51_2 1_555 1_555
C55_3 C51_2 1_555 1_555
C58_2 C53_2 1_555 1_555
C59_2 C53_2 1_555 1_555
H26_2 C54_2 1_555 1_555
C60_3 C54_2 1_555 1_555
H27_3 C55_3 1_555 1_555
H30_2 C58_2 1_555 1_555
C62_2 C58_2 1_555 1_555
H31_2 C59_2 1_555 1_555
C63_3 C60_3 1_555 1_555
H33_2 C62_2 1_555 1_555
O27_2 C63_3 1_555 1_555
C94_2 C59_2 1_555 1_555
C102_2 C62_2 1_555 1_555
N24_2 C94_2 1_555 1_555
H50_2 C102_2 1_555 1_555
C111_2 N24_2 1_555 1_555
C112_2 N24_2 1_555 1_555
N30_2 C111_2 1_555 1_555
H55_2 C111_2 1_555 1_555
N31_2 C112_2 1_555 1_555
H56_2 C112_2 1_555 1_555
Co25_2 N31_2 1_555 1_555
C49_2 N12_2 1_555 1_555
C94_2 C102_2 1_555 1_555
N30_2 N31_2 1_555 1_555
H19_4 C37_4 1_555 1_555
H20_4 C41_4 1_555 1_555
H29_4 C57_4 1_555 1_555
H32_4 C61_4 1_555 1_555
C69_2 C37_4 1_555 1_555
C72_2 C41_4 1_555 1_555
N16_2 C69_2 1_555 1_555
H38_2 C72_2 1_555 1_555
C74_2 N16_2 1_555 1_555
C75_2 N16_2 1_555 1_555
N20_2 C74_2 1_555 1_555
H39_2 C74_2 1_555 1_555
N21_2 C75_2 1_555 1_555
H40_2 C75_2 1_555 1_555
Co13_2 N20_2 1_555 1_555
Co11_2 N21_2 1_555 1_555
C93_2 C57_4 1_555 1_555
C101_2 C61_4 1_555 1_555
N23_2 C93_2 1_555 1_555
H49_2 C101_2 1_555 1_555
C109_2 N23_2 1_555 1_555
C110_2 N23_2 1_555 1_555
N28_2 C109_2 1_555 1_555
H53_2 C109_2 1_555 1_555
N29_2 C110_2 1_555 1_555
H54_2 C110_2 1_555 1_555
Co30_2 N28_2 1_555 1_555
C69_2 C72_2 1_555 1_555
N20_2 N21_2 1_555 1_555
C93_2 C101_2 1_555 1_555
Co26_2 N29_2 1_555 1_555
N28_2 N29_2 1_555 1_555
H27_4 C55_4 1_555 1_555
C63_4 C60_4 1_555 1_555
C85_2 C55_4 1_555 1_555
C95_2 C60_4 1_555 1_555
C96_2 C85_2 1_555 1_555
O52_2 C63_4 1_555 1_555
H48_2 C95_2 1_555 1_555
O53_2 C96_2 1_555 1_555
O54_2 C96_2 1_555 1_555
Co25_2 O54_2 1_555 1_555
C85_2 C95_2 1_555 1_555
H31_3 C59_3 1_555 1_555
H33_3 C62_3 1_555 1_555
C94_3 C59_3 1_555 1_555
C102_3 C62_3 1_555 1_555
N24_3 C94_3 1_555 1_555
H50_3 C102_3 1_555 1_555
C111_3 N24_3 1_555 1_555
C112_3 N24_3 1_555 1_555
N30_3 C111_3 1_555 1_555
H55_3 C111_3 1_555 1_555
N31_3 C112_3 1_555 1_555
H56_3 C112_3 1_555 1_555
Co21 N31_3 1_555 1_555
C94_3 C102_3 1_555 1_555
N30_3 N31_3 1_555 1_555
H9_3 C16_3 1_555 1_555
H11_3 C24_3 1_555 1_555
H14_3 C30_3 1_555 1_555
C42_3 C38_3 1_555 1_555
C64_3 C16_3 1_555 1_555
C65_3 C24_3 1_555 1_555
N13_3 C64_3 1_555 1_555
C66_3 C30_3 1_555 1_555
H34_3 C65_3 1_555 1_555
C67_3 N13_3 1_555 1_555
C68_3 N13_3 1_555 1_555
C70_3 C38_3 1_555 1_555
C71_3 C66_3 1_555 1_555
N14_3 C67_3 1_555 1_555
H35_3 C67_3 1_555 1_555
N15_3 C68_3 1_555 1_555
H36_3 C68_3 1_555 1_555
O31_3 C42_3 1_555 1_555
H37_3 C70_3 1_555 1_555
O32_3 C71_3 1_555 1_555
O33_3 C71_3 1_555 1_555
Co10_3 N14_3 1_555 1_555
Co11_3 N15_3 1_555 1_555
Co28 O33_3 1_555 1_555
C64_3 C65_3 1_555 1_555
C66_3 C70_3 1_555 1_555
N14_3 N15_3 1_555 1_555
O32_3 Co11_3 1_555 1_555
N9_2 N10_2 1_555 1_555
O25_2 C48_3 1_555 1_555
N10_2 Co6_2 1_555 1_555
O26_2 Co6_2 1_555 1_555
C47_3 N9_2 1_555 1_555
C48_3 O26_2 1_555 1_555
C49_3 N10_2 1_555 1_555
N12_3 C47_3 1_555 1_555
H23_3 C47_3 1_555 1_555
C51_3 C48_3 1_555 1_555
H24_3 C49_3 1_555 1_555
C53_3 N12_3 1_555 1_555
C54_3 C51_3 1_555 1_555
C55_5 C51_3 1_555 1_555
C58_3 C53_3 1_555 1_555
C59_4 C53_3 1_555 1_555
H26_3 C54_3 1_555 1_555
C60_5 C54_3 1_555 1_555
H27_5 C55_5 1_555 1_555
H30_3 C58_3 1_555 1_555
C62_4 C58_3 1_555 1_555
H31_4 C59_4 1_555 1_555
C63_5 C60_5 1_555 1_555
H33_4 C62_4 1_555 1_555
O27_3 C63_5 1_555 1_555
O37_2 Co6_2 1_555 1_555
C85_3 C55_5 1_555 1_555
C95_3 C60_5 1_555 1_555
C96_3 C85_3 1_555 1_555
O52_3 C63_5 1_555 1_555
H48_3 C95_3 1_555 1_555
O53_3 C96_3 1_555 1_555
O54_3 C96_3 1_555 1_555
Co21 O54_3 1_555 1_555
C49_3 N12_3 1_555 1_555
C85_3 C95_3 1_555 1_555
Co1_2 N1_2 1_555 1_555
N1_2 N2_2 1_555 1_555
O1_2 Co1_2 1_555 1_555
O2_2 Co1_2 1_555 1_555
O3_2 Co1_2 1_555 1_555
O4_2 Co1_2 1_555 1_555
O5_2 Co1_2 1_555 1_555
N2_2 Co2_2 1_555 1_555
C1_3 N1_2 1_555 1_555
C2_2 O1_2 1_555 1_555
Co2_2 O2_2 1_555 1_555
C3_2 O2_2 1_555 1_555
C4_3 N2_2 1_555 1_555
N3_3 C1_3 1_555 1_555
H1_3 C1_3 1_555 1_555
O6_2 C2_2 1_555 1_555
C5_2 C2_2 1_555 1_555
N4_2 Co2_2 1_555 1_555
O7_2 Co2_2 1_555 1_555
O8_2 Co2_2 1_555 1_555
C6_2 C3_2 1_555 1_555
H2_3 C4_3 1_555 1_555
C7_3 N3_3 1_555 1_555
C8_2 C5_2 1_555 1_555
C9_2 C5_2 1_555 1_555
N5_2 N4_2 1_555 1_555
C10_3 N4_2 1_555 1_555
C11_3 O7_2 1_555 1_555
C12_2 O8_2 1_555 1_555
C13_2 C6_2 1_555 1_555
C14_2 C6_2 1_555 1_555
C15_3 C7_3 1_555 1_555
C16_4 C7_3 1_555 1_555
H3_2 C8_2 1_555 1_555
C17_2 C8_2 1_555 1_555
C18_2 C9_2 1_555 1_555
H4_2 C9_2 1_555 1_555
Co3_2 N5_2 1_555 1_555
C19_3 N5_2 1_555 1_555
N6_3 C10_3 1_555 1_555
H5_3 C10_3 1_555 1_555
O9_2 C11_3 1_555 1_555
C20_3 C11_3 1_555 1_555
O10_2 C12_2 1_555 1_555
C21_2 C12_2 1_555 1_555
H6_2 C13_2 1_555 1_555
C22_2 C13_2 1_555 1_555
C23_2 C14_2 1_555 1_555
H7_2 C14_2 1_555 1_555
H8_3 C15_3 1_555 1_555
C24_4 C15_3 1_555 1_555
H9_4 C16_4 1_555 1_555
C25_2 C17_2 1_555 1_555
C26_2 C17_2 1_555 1_555
C27_2 C18_2 1_555 1_555
O11_2 Co3_2 1_555 1_555
O12_2 Co3_2 1_555 1_555
H10_3 C19_3 1_555 1_555
C28_3 N6_3 1_555 1_555
C29_3 C20_3 1_555 1_555
C30_4 C20_3 1_555 1_555
C31_2 C21_2 1_555 1_555
C32_2 C21_2 1_555 1_555
C33_2 C22_2 1_555 1_555
C34_2 C22_2 1_555 1_555
C35_2 C23_2 1_555 1_555
H11_4 C24_4 1_555 1_555
H12_2 C25_2 1_555 1_555
O13_2 C26_2 1_555 1_555
O14_2 C26_2 1_555 1_555
O36_2 C27_2 1_555 1_555
O43_2 C27_2 1_555 1_555
C36_3 C28_3 1_555 1_555
C37_5 C28_3 1_555 1_555
H13_3 C29_3 1_555 1_555
C38_4 C29_3 1_555 1_555
H14_4 C30_4 1_555 1_555
H15_2 C31_2 1_555 1_555
C39_2 C31_2 1_555 1_555
C40_2 C32_2 1_555 1_555
H16_2 C32_2 1_555 1_555
H17_2 C33_2 1_555 1_555
O17_2 C34_2 1_555 1_555
O18_2 C34_2 1_555 1_555
Co24_2 O14_2 1_555 1_555
H18_3 C36_3 1_555 1_555
C41_5 C36_3 1_555 1_555
H19_5 C37_5 1_555 1_555
C42_4 C38_4 1_555 1_555
C43_2 C39_2 1_555 1_555
C44_2 C39_2 1_555 1_555
C45_2 C40_2 1_555 1_555
O19_2 Co24_2 1_555 1_555
O20_2 Co24_2 1_555 1_555
O21_2 Co24_2 1_555 1_555
N7_2 Co24_2 1_555 1_555
H20_5 C41_5 1_555 1_555
O22_3 C42_4 1_555 1_555
H21_2 C43_2 1_555 1_555
O23_2 C45_2 1_555 1_555
O24_2 C45_2 1_555 1_555
N8_2 C46_3 1_555 1_555
C46_3 N11_3 1_555 1_555
C50_3 N11_3 1_555 1_555
N11_3 C52_3 1_555 1_555
H22_3 C46_3 1_555 1_555
H25_3 C50_3 1_555 1_555
C52_3 C56_3 1_555 1_555
C56_3 H28_3 1_555 1_555
C57_5 C52_3 1_555 1_555
C61_5 C56_3 1_555 1_555
H29_5 C57_5 1_555 1_555
H32_5 C61_5 1_555 1_555
O28_2 C35_2 1_555 1_555
O29_2 C35_2 1_555 1_555
C69_3 C37_5 1_555 1_555
Co8_2 O17_2 1_555 1_555
Co13_2 O28_2 1_555 1_555
C72_3 C41_5 1_555 1_555
N16_3 C69_3 1_555 1_555
O34_2 C44_2 1_555 1_555
O35_2 C44_2 1_555 1_555
C73_2 O19_2 1_555 1_555
Co29_2 O20_2 1_555 1_555
N17_2 N7_2 1_555 1_555
H38_3 C72_3 1_555 1_555
C74_3 N16_3 1_555 1_555
C75_3 N16_3 1_555 1_555
Co14_2 O34_2 1_555 1_555
Co25_2 O24_2 1_555 1_555
N18_2 N8_2 1_555 1_555
C76_2 C73_2 1_555 1_555
O38_2 Co29_2 1_555 1_555
N20_3 C74_3 1_555 1_555
H39_3 C74_3 1_555 1_555
N21_3 C75_3 1_555 1_555
H40_3 C75_3 1_555 1_555
O41_2 Co14_2 1_555 1_555
O42_2 Co14_2 1_555 1_555
C77_2 C76_2 1_555 1_555
C78_2 C76_2 1_555 1_555
C79_2 O38_2 1_555 1_555
Co28 N20_3 1_555 1_555
Co11_3 N21_3 1_555 1_555
C80_2 O42_2 1_555 1_555
C81_2 C77_2 1_555 1_555
H41_2 C77_2 1_555 1_555
H42_2 C78_2 1_555 1_555
C82_2 C78_2 1_555 1_555
O44_2 C79_2 1_555 1_555
C83_2 C79_2 1_555 1_555
O46_2 C80_2 1_555 1_555
C84_2 C80_2 1_555 1_555
C86_2 C81_2 1_555 1_555
C87_2 C81_2 1_555 1_555
C88_2 C82_2 1_555 1_555
C89_2 C83_2 1_555 1_555
C90_2 C83_2 1_555 1_555
C91_2 C84_2 1_555 1_555
C92_2 C84_2 1_555 1_555
C93_3 C57_5 1_555 1_555
H43_2 C86_2 1_555 1_555
O48_2 C87_2 1_555 1_555
O49_2 C87_2 1_555 1_555
O50_2 C88_2 1_555 1_555
O51_2 C88_2 1_555 1_555
C97_2 C89_2 1_555 1_555
H44_2 C89_2 1_555 1_555
H45_2 C90_2 1_555 1_555
C98_2 C90_2 1_555 1_555
C99_2 C91_2 1_555 1_555
H46_2 C91_2 1_555 1_555
H47_2 C92_2 1_555 1_555
C100_2 C92_2 1_555 1_555
C101_3 C61_5 1_555 1_555
N23_3 C93_3 1_555 1_555
Co19_2 O48_2 1_555 1_555
Co20_2 O49_2 1_555 1_555
Co25 O51_2 1_555 1_555
C103_2 C97_2 1_555 1_555
C104_2 C97_2 1_555 1_555
C105_2 C98_2 1_555 1_555
C106_2 C99_2 1_555 1_555
C107_2 C99_2 1_555 1_555
C108_2 C100_2 1_555 1_555
H49_3 C101_3 1_555 1_555
C109_3 N23_3 1_555 1_555
C110_3 N23_3 1_555 1_555
O55_2 Co19_2 1_555 1_555
O56_2 Co19_2 1_555 1_555
N25_2 Co19_2 1_555 1_555
N26_2 Co19_2 1_555 1_555
O57_2 Co19_2 1_555 1_555
N27_2 Co20_2 1_555 1_555
O58_2 Co20_2 1_555 1_555
O59_2 Co20_2 1_555 1_555
O60_2 Co20_2 1_555 1_555
H51_2 C103_2 1_555 1_555
O61_2 C104_2 1_555 1_555
O62_2 C105_2 1_555 1_555
O63_2 C105_2 1_555 1_555
H52_2 C106_2 1_555 1_555
O64_2 C107_2 1_555 1_555
O65_2 C108_2 1_555 1_555
O66_2 C108_2 1_555 1_555
N28_3 C109_3 1_555 1_555
H53_3 C109_3 1_555 1_555
N29_3 C110_3 1_555 1_555
H54_3 C110_3 1_555 1_555
Co27_2 O56_2 1_555 1_555
N32_2 N26_2 1_555 1_555
Co13 O62_2 1_555 1_555
Co30_3 N28_3 1_555 1_555
O67_2 Co27_2 1_555 1_555
O68_2 Co27_2 1_555 1_555
O3_2 C3_2 1_555 1_555
Co2_2 O6_2 1_555 1_555
C4_3 N3_3 1_555 1_555
C18_2 C25_2 1_555 1_555
Co3_2 O9_2 1_555 1_555
Co3_2 O10_2 1_555 1_555
C19_3 N6_3 1_555 1_555
C23_2 C33_2 1_555 1_555
C40_2 C43_2 1_555 1_555
O20_2 C73_2 1_555 1_555
N8_2 Co8_2 1_555 1_555
C50_3 N18_2 1_555 1_555
O29_2 Co13_2 1_555 1_555
C69_3 C72_3 1_555 1_555
Co8_2 O35_2 1_555 1_555
O35_2 Co14_2 1_555 1_555
Co29_2 N17_2 1_555 1_555
Co14_2 N18_2 1_555 1_555
N20_3 N21_3 1_555 1_555
C82_2 C86_2 1_555 1_555
C93_3 C101_3 1_555 1_555
C98_2 C103_2 1_555 1_555
C100_2 C106_2 1_555 1_555
C104_2 O56_2 1_555 1_555
C107_2 O55_2 1_555 1_555
Co26_3 N29_3 1_555 1_555
N25_2 N27_2 1_555 1_555
O61_2 Co27_2 1_555 1_555
O63_2 Co13 1_555 1_555
O64_2 Co27_2 1_555 1_555
N28_3 N29_3 1_555 1_555
Co27_2 N32_2 1_555 1_555
N22_2 N19_2 1_555 1_555
Co18_2 N22_2 1_555 1_555
O45_2 Co18_2 1_555 1_555
O47_2 Co18_2 1_555 1_555
H9_5 C16_5 1_555 1_555
H11_5 C24_5 1_555 1_555
H14_5 C30_5 1_555 1_555
C42_5 C38_5 1_555 1_555
C64_4 C16_5 1_555 1_555
C65_4 C24_5 1_555 1_555
N13_4 C64_4 1_555 1_555
C66_4 C30_5 1_555 1_555
H34_4 C65_4 1_555 1_555
C67_4 N13_4 1_555 1_555
C68_4 N13_4 1_555 1_555
C70_4 C38_5 1_555 1_555
C71_4 C66_4 1_555 1_555
N14_4 C67_4 1_555 1_555
H35_4 C67_4 1_555 1_555
N15_4 C68_4 1_555 1_555
H36_4 C68_4 1_555 1_555
O31_4 C42_5 1_555 1_555
H37_4 C70_4 1_555 1_555
O32_4 C71_4 1_555 1_555
O33_4 C71_4 1_555 1_555
Co10_4 N14_4 1_555 1_555
Co11_4 N15_4 1_555 1_555
Co9 O33_4 1_555 1_555
C64_4 C65_4 1_555 1_555
C66_4 C70_4 1_555 1_555
N14_4 N15_4 1_555 1_555
O32_4 Co11_4 1_555 1_555
H31_5 C59_5 1_555 1_555
H33_5 C62_5 1_555 1_555
C94_4 C59_5 1_555 1_555
C102_4 C62_5 1_555 1_555
N24_4 C94_4 1_555 1_555
H50_4 C102_4 1_555 1_555
C111_4 N24_4 1_555 1_555
C112_4 N24_4 1_555 1_555
N30_4 C111_4 1_555 1_555
H55_4 C111_4 1_555 1_555
N31_4 C112_4 1_555 1_555
H56_4 C112_4 1_555 1_555
Co15 N31_4 1_555 1_555
C94_4 C102_4 1_555 1_555
N30_4 N31_4 1_555 1_555
C1_4 N32_2 1_555 1_555
C4_4 N26_2 1_555 1_555
N3_4 C1_4 1_555 1_555
H1_4 C1_4 1_555 1_555
H2_4 C4_4 1_555 1_555
C7_4 N3_4 1_555 1_555
C10_4 N25_2 1_555 1_555
C11_4 O57_2 1_555 1_555
C15_4 C7_4 1_555 1_555
C16_6 C7_4 1_555 1_555
C19_4 N27_2 1_555 1_555
N6_4 C10_4 1_555 1_555
H5_4 C10_4 1_555 1_555
O58_2 C11_4 1_555 1_555
C20_4 C11_4 1_555 1_555
H8_4 C15_4 1_555 1_555
C24_6 C15_4 1_555 1_555
H9_6 C16_6 1_555 1_555
H10_4 C19_4 1_555 1_555
C28_4 N6_4 1_555 1_555
C29_4 C20_4 1_555 1_555
C30_6 C20_4 1_555 1_555
H11_6 C24_6 1_555 1_555
C36_4 C28_4 1_555 1_555
C37_6 C28_4 1_555 1_555
H13_4 C29_4 1_555 1_555
C38_6 C29_4 1_555 1_555
H14_6 C30_6 1_555 1_555
H18_4 C36_4 1_555 1_555
C41_6 C36_4 1_555 1_555
H19_6 C37_6 1_555 1_555
C42_6 C38_6 1_555 1_555
H20_6 C41_6 1_555 1_555
O22_4 C42_6 1_555 1_555
N17_2 C46_4 1_555 1_555
C46_4 N11_4 1_555 1_555
C50_4 N11_4 1_555 1_555
N11_4 C52_4 1_555 1_555
H22_4 C46_4 1_555 1_555
H25_4 C50_4 1_555 1_555
C52_4 C56_4 1_555 1_555
C56_4 H28_4 1_555 1_555
C57_6 C52_4 1_555 1_555
C61_6 C56_4 1_555 1_555
H29_6 C57_6 1_555 1_555
H32_6 C61_6 1_555 1_555
C69_4 C37_6 1_555 1_555
C72_4 C41_6 1_555 1_555
N16_4 C69_4 1_555 1_555
H38_4 C72_4 1_555 1_555
C74_4 N16_4 1_555 1_555
C75_4 N16_4 1_555 1_555
N20_4 C74_4 1_555 1_555
H39_4 C74_4 1_555 1_555
N21_4 C75_4 1_555 1_555
H40_4 C75_4 1_555 1_555
Co9 N20_4 1_555 1_555
Co11_4 N21_4 1_555 1_555
C93_4 C57_6 1_555 1_555
C101_4 C61_6 1_555 1_555
N23_4 C93_4 1_555 1_555
H49_4 C101_4 1_555 1_555
C109_4 N23_4 1_555 1_555
C110_4 N23_4 1_555 1_555
N28_4 C109_4 1_555 1_555
H53_4 C109_4 1_555 1_555
N29_4 C110_4 1_555 1_555
H54_4 C110_4 1_555 1_555
Co30_4 N28_4 1_555 1_555
C4_4 N3_4 1_555 1_555
C19_4 N6_4 1_555 1_555
C50_4 N7_2 1_555 1_555
C69_4 C72_4 1_555 1_555
N20_4 N21_4 1_555 1_555
C93_4 C101_4 1_555 1_555
Co26_4 N29_4 1_555 1_555
N28_4 N29_4 1_555 1_555
O40_2 C48_4 1_555 1_555
C47_4 N19_2 1_555 1_555
C48_4 O45_2 1_555 1_555
C49_4 N22_2 1_555 1_555
N12_4 C47_4 1_555 1_555
H23_4 C47_4 1_555 1_555
C51_4 C48_4 1_555 1_555
H24_4 C49_4 1_555 1_555
C53_4 N12_4 1_555 1_555
C54_4 C51_4 1_555 1_555
C55_6 C51_4 1_555 1_555
C58_4 C53_4 1_555 1_555
C59_6 C53_4 1_555 1_555
H26_4 C54_4 1_555 1_555
C60_6 C54_4 1_555 1_555
H27_6 C55_6 1_555 1_555
H30_4 C58_4 1_555 1_555
C62_6 C58_4 1_555 1_555
H31_6 C59_6 1_555 1_555
C63_6 C60_6 1_555 1_555
H33_6 C62_6 1_555 1_555
O27_4 C63_6 1_555 1_555
C85_4 C55_6 1_555 1_555
C95_4 C60_6 1_555 1_555
C96_4 C85_4 1_555 1_555
O52_4 C63_6 1_555 1_555
H48_4 C95_4 1_555 1_555
O53_4 C96_4 1_555 1_555
O54_4 C96_4 1_555 1_555
Co15 O54_4 1_555 1_555
C49_4 N12_4 1_555 1_555
C85_4 C95_4 1_555 1_555
O13_3 C26_3 1_555 1_555
O14_3 C26_3 1_555 1_555
Co30 O14_3 1_555 1_555
O19_3 Co30 1_555 1_555
O20_3 Co30 1_555 1_555
O21_3 Co30 1_555 1_555
C73_3 O19_3 1_555 1_555
Co26 O20_3 1_555 1_555
C76_3 C73_3 1_555 1_555
O38_3 Co26 1_555 1_555
C77_3 C76_3 1_555 1_555
C78_3 C76_3 1_555 1_555
C79_3 O38_3 1_555 1_555
C81_3 C77_3 1_555 1_555
H41_3 C77_3 1_555 1_555
H42_3 C78_3 1_555 1_555
C82_3 C78_3 1_555 1_555
O44_3 C79_3 1_555 1_555
C83_3 C79_3 1_555 1_555
C86_3 C81_3 1_555 1_555
C87_3 C81_3 1_555 1_555
C88_3 C82_3 1_555 1_555
C89_3 C83_3 1_555 1_555
C90_3 C83_3 1_555 1_555
C91_3 C84_3 1_555 1_555
C92_3 C84_3 1_555 1_555
H43_3 C86_3 1_555 1_555
O48_3 C87_3 1_555 1_555
O49_3 C87_3 1_555 1_555
O50_3 C88_3 1_555 1_555
O47_2 C88_3 1_555 1_555
C97_3 C89_3 1_555 1_555
H44_3 C89_3 1_555 1_555
H45_3 C90_3 1_555 1_555
C98_3 C90_3 1_555 1_555
C99_3 C91_3 1_555 1_555
H46_3 C91_3 1_555 1_555
H47_3 C92_3 1_555 1_555
C100_3 C92_3 1_555 1_555
Co11 O48_3 1_555 1_555
Co13 O49_3 1_555 1_555
C103_3 C97_3 1_555 1_555
C104_3 C97_3 1_555 1_555
C105_3 C98_3 1_555 1_555
C106_3 C99_3 1_555 1_555
C107_3 C99_3 1_555 1_555
C108_3 C100_3 1_555 1_555
O55_3 Co11 1_555 1_555
O56_3 Co11 1_555 1_555
H51_3 C103_3 1_555 1_555
O61_3 C104_3 1_555 1_555
O59_2 C105_3 1_555 1_555
O60_2 C105_3 1_555 1_555
H52_3 C106_3 1_555 1_555
O64_3 C107_3 1_555 1_555
O39 C108_3 1_555 1_555
O30 C108_3 1_555 1_555
Co10 O56_3 1_555 1_555
O67_3 Co10 1_555 1_555
O68_3 Co10 1_555 1_555
O20_3 C73_3 1_555 1_555
C82_3 C86_3 1_555 1_555
C98_3 C103_3 1_555 1_555
C100_3 C106_3 1_555 1_555
C104_3 O56_3 1_555 1_555
C107_3 O55_3 1_555 1_555
O61_3 Co10 1_555 1_555
O64_3 Co10 1_555 1_555
O1_3 Co10_2 1_555 1_555
O2_3 Co10_2 1_555 1_555
O3_3 Co10_2 1_555 1_555
O4_3 Co10_2 1_555 1_555
O5_3 Co10_2 1_555 1_555
C2_3 O1_3 1_555 1_555
Co11_2 O2_3 1_555 1_555
C3_3 O2_3 1_555 1_555
O6_3 C2_3 1_555 1_555
C5_3 C2_3 1_555 1_555
O8_3 Co11_2 1_555 1_555
C6_3 C3_3 1_555 1_555
C8_3 C5_3 1_555 1_555
C9_3 C5_3 1_555 1_555
C12_3 O8_3 1_555 1_555
C13_3 C6_3 1_555 1_555
C14_3 C6_3 1_555 1_555
H3_3 C8_3 1_555 1_555
C17_3 C8_3 1_555 1_555
C18_3 C9_3 1_555 1_555
H4_3 C9_3 1_555 1_555
O10_3 C12_3 1_555 1_555
C21_3 C12_3 1_555 1_555
H6_3 C13_3 1_555 1_555
C22_3 C13_3 1_555 1_555
C23_3 C14_3 1_555 1_555
H7_3 C14_3 1_555 1_555
C25_3 C17_3 1_555 1_555
C27_3 C18_3 1_555 1_555
C31_3 C21_3 1_555 1_555
C32_3 C21_3 1_555 1_555
C33_3 C22_3 1_555 1_555
C34_3 C22_3 1_555 1_555
C35_3 C23_3 1_555 1_555
H12_3 C25_3 1_555 1_555
O15 C27_3 1_555 1_555
O16 C27_3 1_555 1_555
H15_3 C31_3 1_555 1_555
C39_3 C31_3 1_555 1_555
C40_3 C32_3 1_555 1_555
H16_3 C32_3 1_555 1_555
H17_3 C33_3 1_555 1_555
O17_3 C34_3 1_555 1_555
O18_3 C34_3 1_555 1_555
C43_3 C39_3 1_555 1_555
C44_3 C39_3 1_555 1_555
C45_3 C40_3 1_555 1_555
H21_3 C43_3 1_555 1_555
O23_3 C45_3 1_555 1_555
O37_2 C45_3 1_555 1_555
O11_2 C35_3 1_555 1_555
O12_2 C35_3 1_555 1_555
Co26_2 O17_3 1_555 1_555
O34_3 C44_3 1_555 1_555
O35_3 C44_3 1_555 1_555
Co30_2 O34_3 1_555 1_555
O41_3 Co30_2 1_555 1_555
O42_3 Co30_2 1_555 1_555
C80_3 O42_3 1_555 1_555
O46_3 C80_3 1_555 1_555
O3_3 C3_3 1_555 1_555
Co11_2 O6_3 1_555 1_555
C18_3 C25_3 1_555 1_555
Co13_2 O10_3 1_555 1_555
C23_3 C33_3 1_555 1_555
C40_3 C43_3 1_555 1_555
Co26_2 O35_3 1_555 1_555
O35_3 Co30_2 1_555 1_555
O1_4 Co10_4 1_555 1_555
O2_4 Co10_4 1_555 1_555
O3_4 Co10_4 1_555 1_555
O4_4 Co10_4 1_555 1_555
O5_4 Co10_4 1_555 1_555
C2_4 O1_4 1_555 1_555
Co11_4 O2_4 1_555 1_555
C3_4 O2_4 1_555 1_555
O6_4 C2_4 1_555 1_555
C5_4 C2_4 1_555 1_555
O8_4 Co11_4 1_555 1_555
C6_4 C3_4 1_555 1_555
C8_4 C5_4 1_555 1_555
C9_4 C5_4 1_555 1_555
C12_4 O8_4 1_555 1_555
C13_4 C6_4 1_555 1_555
C14_4 C6_4 1_555 1_555
H3_4 C8_4 1_555 1_555
C17_4 C8_4 1_555 1_555
C18_4 C9_4 1_555 1_555
H4_4 C9_4 1_555 1_555
O10_4 C12_4 1_555 1_555
C21_4 C12_4 1_555 1_555
H6_4 C13_4 1_555 1_555
C22_4 C13_4 1_555 1_555
C23_4 C14_4 1_555 1_555
H7_4 C14_4 1_555 1_555
C25_4 C17_4 1_555 1_555
C26_4 C17_4 1_555 1_555
C27_4 C18_4 1_555 1_555
C31_4 C21_4 1_555 1_555
C32_4 C21_4 1_555 1_555
C33_4 C22_4 1_555 1_555
C34_4 C22_4 1_555 1_555
C35_4 C23_4 1_555 1_555
H12_4 C25_4 1_555 1_555
O13_4 C26_4 1_555 1_555
O14_4 C26_4 1_555 1_555
O15_2 C27_4 1_555 1_555
O16_2 C27_4 1_555 1_555
H15_4 C31_4 1_555 1_555
C39_4 C31_4 1_555 1_555
C40_4 C32_4 1_555 1_555
H16_4 C32_4 1_555 1_555
H17_4 C33_4 1_555 1_555
O17_4 C34_4 1_555 1_555
O18_4 C34_4 1_555 1_555
Co30_3 O14_4 1_555 1_555
C43_4 C39_4 1_555 1_555
C44_4 C39_4 1_555 1_555
C45_4 C40_4 1_555 1_555
O19_4 Co30_3 1_555 1_555
O20_4 Co30_3 1_555 1_555
O21_4 Co30_3 1_555 1_555
H21_4 C43_4 1_555 1_555
O23_4 C45_4 1_555 1_555
O37 C45_4 1_555 1_555
O11 C35_4 1_555 1_555
O12 C35_4 1_555 1_555
Co26_4 O17_4 1_555 1_555
O34_4 C44_4 1_555 1_555
O35_4 C44_4 1_555 1_555
C73_4 O19_4 1_555 1_555
Co26_3 O20_4 1_555 1_555
Co30_4 O34_4 1_555 1_555
C76_4 C73_4 1_555 1_555
O38_4 Co26_3 1_555 1_555
O41_4 Co30_4 1_555 1_555
O42_4 Co30_4 1_555 1_555
C77_4 C76_4 1_555 1_555
C78_4 C76_4 1_555 1_555
C79_4 O38_4 1_555 1_555
C80_4 O42_4 1_555 1_555
C81_4 C77_4 1_555 1_555
H41_4 C77_4 1_555 1_555
H42_4 C78_4 1_555 1_555
C82_4 C78_4 1_555 1_555
O44_4 C79_4 1_555 1_555
C83_4 C79_4 1_555 1_555
O46_4 C80_4 1_555 1_555
C84_4 C80_4 1_555 1_555
C86_4 C81_4 1_555 1_555
C87_4 C81_4 1_555 1_555
C88_4 C82_4 1_555 1_555
C89_4 C83_4 1_555 1_555
C90_4 C83_4 1_555 1_555
C91_4 C84_4 1_555 1_555
C92_4 C84_4 1_555 1_555
H43_4 C86_4 1_555 1_555
O48_4 C87_4 1_555 1_555
O49_4 C87_4 1_555 1_555
O50_4 C88_4 1_555 1_555
O47 C88_4 1_555 1_555
C97_4 C89_4 1_555 1_555
H44_4 C89_4 1_555 1_555
H45_4 C90_4 1_555 1_555
C98_4 C90_4 1_555 1_555
C99_4 C91_4 1_555 1_555
H46_4 C91_4 1_555 1_555
H47_4 C92_4 1_555 1_555
C100_4 C92_4 1_555 1_555
Co11_3 O48_4 1_555 1_555
Co28 O49_4 1_555 1_555
C103_4 C97_4 1_555 1_555
C104_4 C97_4 1_555 1_555
C105_4 C98_4 1_555 1_555
C106_4 C99_4 1_555 1_555
C107_4 C99_4 1_555 1_555
C108_4 C100_4 1_555 1_555
O55_4 Co11_3 1_555 1_555
O56_4 Co11_3 1_555 1_555
H51_4 C103_4 1_555 1_555
O61_4 C104_4 1_555 1_555
O59 C105_4 1_555 1_555
O60 C105_4 1_555 1_555
H52_4 C106_4 1_555 1_555
O64_4 C107_4 1_555 1_555
O39_2 C108_4 1_555 1_555
O30_2 C108_4 1_555 1_555
Co10_3 O56_4 1_555 1_555
O67_4 Co10_3 1_555 1_555
O68_4 Co10_3 1_555 1_555
O3_4 C3_4 1_555 1_555
Co11_4 O6_4 1_555 1_555
C18_4 C25_4 1_555 1_555
Co9 O10_4 1_555 1_555
C23_4 C33_4 1_555 1_555
C40_4 C43_4 1_555 1_555
O20_4 C73_4 1_555 1_555
Co26_4 O35_4 1_555 1_555
O35_4 Co30_4 1_555 1_555
C82_4 C86_4 1_555 1_555
C98_4 C103_4 1_555 1_555
C100_4 C106_4 1_555 1_555
C104_4 O56_4 1_555 1_555
C107_4 O55_4 1_555 1_555
O61_4 Co10_3 1_555 1_555
O64_4 Co10_3 1_555 1_555

#END
