
###############################################################################
#
# This file contains modified crystal structure data generated from the
# MOF subset of the Cambridge Structural Database (CSD) v543 
# hosted by the Cambridge Crystallographic Data Centre (CCDC).
#
# This work is licensed under the Creative Commons
# Attribution-NonCommercial-ShareAlike 4.0 International License.
# To view a copy of this license, visit
# http://creativecommons.org/licenses/by-nc-sa/4.0/
# or send a letter to
# Creative Commons, PO Box 1866, Mountain View, CA 94042, USA.
#
# CIF created using the CSD Python API on 29 September 2022
# The structure has been converted into the P1 space group
# The structure has a 3D framework
# The original CSD entry MUVVIL is in the orthorhombic crystal system
# The framework has been calculated to contain at least 10.0% void space
# The void calculation uses a probe of radius 1.32A, grid spacing 0.4
# The framework is charged, counterions have been retained in the structure
#
###############################################################################

data_MUVVIL
_chemical_formula_moiety         '(C288 H192 Fe10 N96 Na32 22+)n'
_symmetry_cell_setting           triclinic
_symmetry_space_group_name_H-M   'P 1'
_symmetry_Int_Tables_number      1
_space_group_name_Hall           'P 1'
loop_
_symmetry_equiv_pos_site_id
_symmetry_equiv_pos_as_xyz
1 x,y,z
_cell_length_a                   7.0547(3)
_cell_length_b                   26.4126(9)
_cell_length_c                   45.1166(17)
_cell_angle_alpha                90
_cell_angle_beta                 90
_cell_angle_gamma                90
_cell_volume                     8406.71
loop_
_atom_site_label
_atom_site_type_symbol
_atom_site_fract_x
_atom_site_fract_y
_atom_site_fract_z
Na1 Na 0.822(2) 0.5878(6) 0.2646(3)
Na1_2 Na 0.928(2) 0.1622(6) 0.2646(3)
Na1_3 Na 0.928(2) 0.5878(6) 0.4854(3)
Na1_4 Na 0.822(2) 0.1622(6) 0.4854(3)
Na1_5 Na 0.822(2) 0.0878(6) 0.7646(3)
Na1_6 Na 0.928(2) 0.6622(6) 0.7646(3)
Na1_7 Na 0.928(2) 0.0878(6) 0.9854(3)
Na1_8 Na 0.822(2) 0.6622(6) 0.9854(3)
Na1_9 Na 0.322(2) 0.5878(6) 0.7646(3)
Na1_10 Na 0.428(2) 0.1622(6) 0.7646(3)
Na1_11 Na 0.428(2) 0.5878(6) 0.9854(3)
Na1_12 Na 0.322(2) 0.1622(6) 0.9854(3)
Na1_13 Na 0.322(2) 0.0878(6) 0.2646(3)
Na1_14 Na 0.428(2) 0.6622(6) 0.2646(3)
Na1_15 Na 0.428(2) 0.0878(6) 0.4854(3)
Na1_16 Na 0.322(2) 0.6622(6) 0.4854(3)
Na1_17 Na 0.178(2) 0.4122(6) 0.7354(3)
Na1_18 Na 0.072(2) 0.8378(6) 0.7354(3)
Na1_19 Na 0.072(2) 0.4122(6) 0.5146(3)
Na1_20 Na 0.178(2) 0.8378(6) 0.5146(3)
Na1_21 Na 0.178(2) 0.9122(6) 0.2354(3)
Na1_22 Na 0.072(2) 0.3378(6) 0.2354(3)
Na1_23 Na 0.072(2) 0.9122(6) 0.0146(3)
Na1_24 Na 0.178(2) 0.3378(6) 0.0146(3)
Na1_25 Na 0.678(2) 0.4122(6) 0.2354(3)
Na1_26 Na 0.572(2) 0.8378(6) 0.2354(3)
Na1_27 Na 0.572(2) 0.4122(6) 0.0146(3)
Na1_28 Na 0.678(2) 0.8378(6) 0.0146(3)
Na1_29 Na 0.678(2) 0.9122(6) 0.7354(3)
Na1_30 Na 0.572(2) 0.3378(6) 0.7354(3)
Na1_31 Na 0.572(2) 0.9122(6) 0.5146(3)
Na1_32 Na 0.678(2) 0.3378(6) 0.5146(3)
C17 C 0.0248(7) 0.51639(14) 0.38075(9)
H11 H 0.1499 0.5059 0.3855
C18 C 0.034(2) 0.4022(5) 0.3663(8)
H12 H 0.1427 0.4199 0.3594
C23 C 0.0248(7) 0.23361(14) 0.36925(9)
H15 H 0.1499 0.2441 0.3645
C24 C 0.034(2) 0.3478(5) 0.3837(8)
H16 H 0.1427 0.3301 0.3906
Fe2 Fe 0.1250 0.1250 0.37143(2)
N9 N 0.2889(5) 0.15430(12) 0.34181(7)
N10 N 0.4790(5) 0.15680(12) 0.34697(7)
C25 C 0.2534(6) 0.17774(15) 0.31600(9)
H17 H 0.1317 0.1813 0.3072
C26 C 0.4221(6) 0.19605(16) 0.30405(9)
C27 C 0.5576(6) 0.18189(15) 0.32435(9)
H18 H 0.6891 0.1890 0.3225
C28 C 0.4587(7) 0.22404(16) 0.27635(9)
C29 C 0.3329(9) 0.2232(3) 0.25293(14)
H19 H 0.2166 0.2054 0.2548
C30 C 0.3742(9) 0.2479(3) 0.22695(13)
H20 H 0.2877 0.2459 0.2109
N11 N 0.7111(5) 0.34570(12) 0.15819(7)
N12 N 0.5210(5) 0.34320(12) 0.15303(7)
C31 C 0.7466(6) 0.32226(15) 0.18400(9)
H21 H 0.8683 0.3187 0.1928
C32 C 0.5779(6) 0.30395(16) 0.19595(9)
C33 C 0.4424(6) 0.31811(15) 0.17565(9)
H22 H 0.3109 0.3110 0.1775
C34 C 0.5413(7) 0.27596(16) 0.22365(9)
C35 C 0.6671(9) 0.2768(3) 0.24707(14)
H23 H 0.7834 0.2946 0.2452
C36 C 0.6258(9) 0.2521(3) 0.27305(13)
H24 H 0.7123 0.2541 0.2891
Fe4 Fe 0.1250 0.6250 0.37857(2)
Fe6 Fe 0.6250 0.1250 0.37857(2)
Fe8 Fe 0.8750 0.3750 0.12857(2)
Fe10 Fe 0.3750 0.3750 0.12143(2)
N16 N 0.2710(5) 0.15680(12) 0.40303(7)
N19 N 0.2818(5) 0.06453(12) 0.37134(7)
Fe1 Fe 0.6250 0.6250 0.37143(2)
N1 N 0.4611(5) 0.59570(12) 0.34181(7)
N2 N 0.2710(5) 0.59320(12) 0.34697(7)
C1 C 0.4966(6) 0.57226(15) 0.31600(9)
H1 H 0.6183 0.5687 0.3072
C2 C 0.3279(6) 0.55395(16) 0.30405(9)
C3 C 0.1924(6) 0.56811(15) 0.32435(9)
H2 H 0.0609 0.5610 0.3225
C4 C 0.2913(7) 0.52596(16) 0.27635(9)
C5 C 0.4171(9) 0.5268(3) 0.25293(14)
H3 H 0.5334 0.5446 0.2548
C6 C 0.3758(9) 0.5021(3) 0.22695(13)
H4 H 0.4623 0.5041 0.2109
N3 N 0.7818(5) 0.56453(12) 0.37134(7)
C7 C 0.7252(7) 0.51639(14) 0.36925(9)
H5 H 0.6001 0.5059 0.3645
C8 C 0.8750 0.4841(2) 0.3750
C9 C 0.8750 0.4285(2) 0.3750
C10 C 0.716(2) 0.4022(5) 0.3837(8)
H6 H 0.6073 0.4199 0.3906
N4 N 0.0389(5) 0.40430(12) 0.15819(7)
N5 N 0.2290(5) 0.40680(12) 0.15303(7)
C11 C 0.0034(6) 0.42774(15) 0.18400(9)
C12 C 0.1721(6) 0.44605(16) 0.19595(9)
C13 C 0.3076(6) 0.43189(15) 0.17565(9)
H8 H 0.4391 0.4390 0.1775
C14 C 0.2087(7) 0.47404(16) 0.22365(9)
C15 C 0.0829(9) 0.4732(3) 0.24707(14)
C16 C 0.1242(9) 0.4979(3) 0.27305(13)
H10 H 0.0377 0.4959 0.2891
N6 N 0.9682(5) 0.56453(12) 0.37866(7)
N7 N 0.7818(5) 0.18547(12) 0.37866(7)
C19 C 0.7252(7) 0.23361(14) 0.38075(9)
H13 H 0.6001 0.2441 0.3855
C20 C 0.8750 0.2659(2) 0.3750
C21 C 0.8750 0.3215(2) 0.3750
C22 C 0.716(2) 0.3478(5) 0.3663(8)
H14 H 0.6073 0.3301 0.3594
N8 N 0.9682(5) 0.18547(12) 0.37134(7)
N13 N 0.9611(5) 0.09570(12) 0.34181(7)
N14 N 0.7889(5) 0.65430(12) 0.34181(7)
N15 N 0.4790(5) 0.59320(12) 0.40303(7)
N17 N 0.9790(5) 0.09320(12) 0.40303(7)
N18 N 0.7710(5) 0.65680(12) 0.40303(7)
N20 N 0.4682(5) 0.68547(12) 0.37134(7)
H7 H 0.8817 0.4313 0.1928
H9 H 0.9666 0.4554 0.2452
N1_2 N 0.2889(5) 0.59570(12) 0.40819(7)
C1_2 C 0.2534(6) 0.57226(15) 0.43400(9)
H1_2 H 0.1317 0.5687 0.4428
C2_2 C 0.4221(6) 0.55395(16) 0.44595(9)
C3_2 C 0.5576(6) 0.56811(15) 0.42565(9)
H2_2 H 0.6891 0.5610 0.4275
C4_2 C 0.4587(7) 0.52596(16) 0.47365(9)
C5_2 C 0.3329(9) 0.5268(3) 0.49707(14)
H3_2 H 0.2166 0.5446 0.4952
C6_2 C 0.3742(9) 0.5021(3) 0.52305(13)
H4_2 H 0.2877 0.5041 0.5391
N4_2 N 0.7111(5) 0.40430(12) 0.59181(7)
N5_2 N 0.5210(5) 0.40680(12) 0.59697(7)
C11_2 C 0.7466(6) 0.42774(15) 0.56600(9)
H7_2 H 0.8683 0.4313 0.5572
C12_2 C 0.5779(6) 0.44605(16) 0.55405(9)
C13_2 C 0.4424(6) 0.43189(15) 0.57435(9)
H8_2 H 0.3109 0.4390 0.5725
C14_2 C 0.5413(7) 0.47404(16) 0.52635(9)
C15_2 C 0.6671(9) 0.4732(3) 0.50293(14)
H9_2 H 0.7834 0.4554 0.5048
C16_2 C 0.6258(9) 0.4979(3) 0.47695(13)
H10_2 H 0.7123 0.4959 0.4609
Fe7 Fe 0.8750 0.3750 0.62143(2)
Fe9 Fe 0.3750 0.3750 0.62857(2)
N20_2 N 0.2818(5) 0.68547(12) 0.37866(7)
N9_2 N 0.4611(5) 0.15430(12) 0.40819(7)
C25_2 C 0.4966(6) 0.17774(15) 0.43400(9)
H17_2 H 0.6183 0.1813 0.4428
C26_2 C 0.3279(6) 0.19605(16) 0.44595(9)
C27_2 C 0.1924(6) 0.18189(15) 0.42565(9)
H18_2 H 0.0609 0.1890 0.4275
C28_2 C 0.2913(7) 0.22404(16) 0.47365(9)
C29_2 C 0.4171(9) 0.2232(3) 0.49707(14)
H19_2 H 0.5334 0.2054 0.4952
C30_2 C 0.3758(9) 0.2479(3) 0.52305(13)
H20_2 H 0.4623 0.2459 0.5391
N11_2 N 0.0389(5) 0.34570(12) 0.59181(7)
N12_2 N 0.2290(5) 0.34320(12) 0.59697(7)
C31_2 C 0.0034(6) 0.32226(15) 0.56600(9)
C32_2 C 0.1721(6) 0.30395(16) 0.55405(9)
C33_2 C 0.3076(6) 0.31811(15) 0.57435(9)
H22_2 H 0.4391 0.3110 0.5725
C34_2 C 0.2087(7) 0.27596(16) 0.52635(9)
C35_2 C 0.0829(9) 0.2768(3) 0.50293(14)
C36_2 C 0.1242(9) 0.2521(3) 0.47695(13)
H24_2 H 0.0377 0.2541 0.4609
N13_2 N 0.7889(5) 0.09570(12) 0.40819(7)
N14_2 N 0.9611(5) 0.65430(12) 0.40819(7)
N17_2 N 0.7710(5) 0.09320(12) 0.34697(7)
N18_2 N 0.9790(5) 0.65680(12) 0.34697(7)
N19_2 N 0.4682(5) 0.06453(12) 0.37866(7)
H21_2 H 0.8817 0.3187 0.5572
H23_2 H 0.9666 0.2946 0.5048
C17_2 C 0.0248(7) 0.01639(14) 0.88075(9)
H11_2 H 0.1499 0.0059 0.8855
Fe4_2 Fe 0.1250 0.1250 0.87857(2)
C18_2 C 0.034(2) 0.9022(5) 0.8663(8)
H12_2 H 0.1427 0.9199 0.8594
C23_2 C 0.0248(7) 0.73361(14) 0.86925(9)
H15_2 H 0.1499 0.7441 0.8645
C24_2 C 0.034(2) 0.8478(5) 0.8837(8)
H16_2 H 0.1427 0.8301 0.8906
Fe2_2 Fe 0.1250 0.6250 0.87143(2)
N9_3 N 0.2889(5) 0.65430(12) 0.84181(7)
N10_2 N 0.4790(5) 0.65680(12) 0.84697(7)
C25_3 C 0.2534(6) 0.67774(15) 0.81600(9)
H17_3 H 0.1317 0.6813 0.8072
C26_3 C 0.4221(6) 0.69605(16) 0.80405(9)
C27_3 C 0.5576(6) 0.68189(15) 0.82435(9)
H18_3 H 0.6891 0.6890 0.8225
C28_3 C 0.4587(7) 0.72404(16) 0.77635(9)
C29_3 C 0.3329(9) 0.7232(3) 0.75293(14)
H19_3 H 0.2166 0.7054 0.7548
C30_3 C 0.3742(9) 0.7479(3) 0.72695(13)
H20_3 H 0.2877 0.7459 0.7109
N11_3 N 0.7111(5) 0.84570(12) 0.65819(7)
N12_3 N 0.5210(5) 0.84320(12) 0.65303(7)
C31_3 C 0.7466(6) 0.82226(15) 0.68400(9)
H21_3 H 0.8683 0.8187 0.6928
C32_3 C 0.5779(6) 0.80395(16) 0.69595(9)
C33_3 C 0.4424(6) 0.81811(15) 0.67565(9)
H22_3 H 0.3109 0.8110 0.6775
C34_3 C 0.5413(7) 0.77596(16) 0.72365(9)
C35_3 C 0.6671(9) 0.7768(3) 0.74707(14)
H23_3 H 0.7834 0.7946 0.7452
C36_3 C 0.6258(9) 0.7521(3) 0.77305(13)
H24_3 H 0.7123 0.7541 0.7891
Fe6_2 Fe 0.6250 0.6250 0.87857(2)
Fe8_2 Fe 0.8750 0.8750 0.62857(2)
Fe10_2 Fe 0.3750 0.8750 0.62143(2)
N16_2 N 0.2710(5) 0.65680(12) 0.90303(7)
N19_3 N 0.2818(5) 0.56453(12) 0.87134(7)
Fe1_2 Fe 0.6250 0.1250 0.87143(2)
N1_3 N 0.4611(5) 0.09570(12) 0.84181(7)
N2_2 N 0.2710(5) 0.09320(12) 0.84697(7)
C1_3 C 0.4966(6) 0.07226(15) 0.81600(9)
H1_3 H 0.6183 0.0687 0.8072
C2_3 C 0.3279(6) 0.05395(16) 0.80405(9)
C3_3 C 0.1924(6) 0.06811(15) 0.82435(9)
H2_3 H 0.0609 0.0610 0.8225
C4_3 C 0.2913(7) 0.02596(16) 0.77635(9)
C5_3 C 0.4171(9) 0.0268(3) 0.75293(14)
H3_3 H 0.5334 0.0446 0.7548
C6_3 C 0.3758(9) 0.0021(3) 0.72695(13)
H4_3 H 0.4623 0.0041 0.7109
N3_2 N 0.7818(5) 0.06453(12) 0.87134(7)
C7_2 C 0.7252(7) 0.01639(14) 0.86925(9)
H5_2 H 0.6001 0.0059 0.8645
N6_2 N 0.9682(5) 0.06453(12) 0.87866(7)
N14_3 N 0.7889(5) 0.15430(12) 0.84181(7)
N15_2 N 0.4790(5) 0.09320(12) 0.90303(7)
N18_3 N 0.7710(5) 0.15680(12) 0.90303(7)
N20_3 N 0.4682(5) 0.18547(12) 0.87134(7)
C8_2 C 0.8750 0.9841(2) 0.8750
C9_2 C 0.8750 0.9285(2) 0.8750
C10_2 C 0.716(2) 0.9022(5) 0.8837(8)
H6_2 H 0.6073 0.9199 0.8906
N4_3 N 0.0389(5) 0.90430(12) 0.65819(7)
N5_3 N 0.2290(5) 0.90680(12) 0.65303(7)
C11_3 C 0.0034(6) 0.92774(15) 0.68400(9)
C12_3 C 0.1721(6) 0.94605(16) 0.69595(9)
C13_3 C 0.3076(6) 0.93189(15) 0.67565(9)
H8_3 H 0.4391 0.9390 0.6775
C14_3 C 0.2087(7) 0.97404(16) 0.72365(9)
C15_3 C 0.0829(9) 0.9732(3) 0.74707(14)
C16_3 C 0.1242(9) 0.9979(3) 0.77305(13)
H10_3 H 0.0377 0.9959 0.7891
N7_2 N 0.7818(5) 0.68547(12) 0.87866(7)
C19_2 C 0.7252(7) 0.73361(14) 0.88075(9)
H13_2 H 0.6001 0.7441 0.8855
C20_2 C 0.8750 0.7659(2) 0.8750
C21_2 C 0.8750 0.8215(2) 0.8750
C22_2 C 0.716(2) 0.8478(5) 0.8663(8)
H14_2 H 0.6073 0.8301 0.8594
N8_2 N 0.9682(5) 0.68547(12) 0.87134(7)
N13_3 N 0.9611(5) 0.59570(12) 0.84181(7)
N17_3 N 0.9790(5) 0.59320(12) 0.90303(7)
H7_3 H 0.8817 0.9313 0.6928
H9_3 H 0.9666 0.9554 0.7452
C6_4 C 0.3742(9) 0.0021(3) 0.02305(13)
H4_4 H 0.2877 0.0041 0.0391
N1_4 N 0.2889(5) 0.09570(12) 0.90819(7)
C1_4 C 0.2534(6) 0.07226(15) 0.93400(9)
H1_4 H 0.1317 0.0687 0.9428
C2_4 C 0.4221(6) 0.05395(16) 0.94595(9)
C3_4 C 0.5576(6) 0.06811(15) 0.92565(9)
H2_4 H 0.6891 0.0610 0.9275
C4_4 C 0.4587(7) 0.02596(16) 0.97365(9)
C5_4 C 0.3329(9) 0.0268(3) 0.99707(14)
H3_4 H 0.2166 0.0446 0.9952
N20_4 N 0.2818(5) 0.18547(12) 0.87866(7)
N4_4 N 0.7111(5) 0.90430(12) 0.09181(7)
N5_4 N 0.5210(5) 0.90680(12) 0.09697(7)
C11_4 C 0.7466(6) 0.92774(15) 0.06600(9)
H7_4 H 0.8683 0.9313 0.0572
C12_4 C 0.5779(6) 0.94605(16) 0.05405(9)
C13_4 C 0.4424(6) 0.93189(15) 0.07435(9)
H8_4 H 0.3109 0.9390 0.0725
C14_4 C 0.5413(7) 0.97404(16) 0.02635(9)
C15_4 C 0.6671(9) 0.9732(3) 0.00293(14)
H9_4 H 0.7834 0.9554 0.0048
Fe7_2 Fe 0.8750 0.8750 0.12143(2)
Fe9_2 Fe 0.3750 0.8750 0.12857(2)
C16_4 C 0.6258(9) 0.9979(3) 0.97695(13)
H10_4 H 0.7123 0.9959 0.9609
N14_4 N 0.9611(5) 0.15430(12) 0.90819(7)
N18_4 N 0.9790(5) 0.15680(12) 0.84697(7)
C30_4 C 0.3758(9) 0.7479(3) 0.02305(13)
H20_4 H 0.4623 0.7459 0.0391
N11_4 N 0.0389(5) 0.84570(12) 0.09181(7)
N12_4 N 0.2290(5) 0.84320(12) 0.09697(7)
C31_4 C 0.0034(6) 0.82226(15) 0.06600(9)
C32_4 C 0.1721(6) 0.80395(16) 0.05405(9)
C33_4 C 0.3076(6) 0.81811(15) 0.07435(9)
H22_4 H 0.4391 0.8110 0.0725
C34_4 C 0.2087(7) 0.77596(16) 0.02635(9)
C35_4 C 0.0829(9) 0.7768(3) 0.00293(14)
N9_4 N 0.4611(5) 0.65430(12) 0.90819(7)
C25_4 C 0.4966(6) 0.67774(15) 0.93400(9)
H17_4 H 0.6183 0.6813 0.9428
C26_4 C 0.3279(6) 0.69605(16) 0.94595(9)
C27_4 C 0.1924(6) 0.68189(15) 0.92565(9)
H18_4 H 0.0609 0.6890 0.9275
C28_4 C 0.2913(7) 0.72404(16) 0.97365(9)
C29_4 C 0.4171(9) 0.7232(3) 0.99707(14)
H19_4 H 0.5334 0.7054 0.9952
C36_4 C 0.1242(9) 0.7521(3) 0.97695(13)
H24_4 H 0.0377 0.7541 0.9609
N13_4 N 0.7889(5) 0.59570(12) 0.90819(7)
N17_4 N 0.7710(5) 0.59320(12) 0.84697(7)
N19_4 N 0.4682(5) 0.56453(12) 0.87866(7)
H21_4 H 0.8817 0.8187 0.0572
H23_4 H 0.9666 0.7946 0.0048
C27_5 C 0.0576(6) 0.18189(15) 0.82435(9)
H18_5 H 0.1891 0.1890 0.8225
N11_5 N 0.2111(5) 0.34570(12) 0.65819(7)
N12_5 N 0.0210(5) 0.34320(12) 0.65303(7)
C31_5 C 0.2466(6) 0.32226(15) 0.68400(9)
H21_5 H 0.3683 0.3187 0.6928
C32_5 C 0.0779(6) 0.30395(16) 0.69595(9)
C34_5 C 0.0413(7) 0.27596(16) 0.72365(9)
C35_5 C 0.1671(9) 0.2768(3) 0.74707(14)
H23_5 H 0.2834 0.2946 0.7452
C36_5 C 0.1258(9) 0.2521(3) 0.77305(13)
H24_5 H 0.2123 0.2541 0.7891
H1_5 H 0.1183 0.5687 0.8072
H3_5 H 0.0334 0.5446 0.7548
C7_3 C 0.2252(7) 0.51639(14) 0.86925(9)
H5_3 H 0.1001 0.5059 0.8645
C8_3 C 0.3750 0.4841(2) 0.8750
C9_3 C 0.3750 0.4285(2) 0.8750
C10_3 C 0.216(2) 0.4022(5) 0.8837(8)
H6_3 H 0.1073 0.4199 0.8906
C17_3 C 0.5248(7) 0.51639(14) 0.88075(9)
H11_3 H 0.6499 0.5059 0.8855
C18_3 C 0.534(2) 0.4022(5) 0.8663(8)
H12_3 H 0.6427 0.4199 0.8594
C19_3 C 0.2252(7) 0.23361(14) 0.88075(9)
H13_3 H 0.1001 0.2441 0.8855
C20_3 C 0.3750 0.2659(2) 0.8750
C21_3 C 0.3750 0.3215(2) 0.8750
C22_3 C 0.216(2) 0.3478(5) 0.8663(8)
H14_3 H 0.1073 0.3301 0.8594
C23_3 C 0.5248(7) 0.23361(14) 0.86925(9)
H15_3 H 0.6499 0.2441 0.8645
C24_3 C 0.534(2) 0.3478(5) 0.8837(8)
H16_3 H 0.6427 0.3301 0.8906
C25_5 C 0.7534(6) 0.17774(15) 0.81600(9)
H17_5 H 0.6317 0.1813 0.8072
C26_5 C 0.9221(6) 0.19605(16) 0.80405(9)
C28_5 C 0.9587(7) 0.22404(16) 0.77635(9)
C29_5 C 0.8329(9) 0.2232(3) 0.75293(14)
H19_5 H 0.7166 0.2054 0.7548
C30_5 C 0.8742(9) 0.2479(3) 0.72695(13)
H20_5 H 0.7877 0.2459 0.7109
C33_5 C 0.9424(6) 0.31811(15) 0.67565(9)
H22_5 H 0.8109 0.3110 0.6775
C1_5 C 0.9966(6) 0.57226(15) 0.81600(9)
C2_5 C 0.8279(6) 0.55395(16) 0.80405(9)
C3_5 C 0.6924(6) 0.56811(15) 0.82435(9)
H2_5 H 0.5609 0.5610 0.8225
C4_5 C 0.7913(7) 0.52596(16) 0.77635(9)
C5_5 C 0.9171(9) 0.5268(3) 0.75293(14)
C6_5 C 0.8758(9) 0.5021(3) 0.72695(13)
H4_5 H 0.9623 0.5041 0.7109
N4_5 N 0.5389(5) 0.40430(12) 0.65819(7)
N5_5 N 0.7290(5) 0.40680(12) 0.65303(7)
C11_5 C 0.5034(6) 0.42774(15) 0.68400(9)
H7_5 H 0.3817 0.4313 0.6928
C12_5 C 0.6721(6) 0.44605(16) 0.69595(9)
C13_5 C 0.8076(6) 0.43189(15) 0.67565(9)
H8_5 H 0.9391 0.4390 0.6775
C14_5 C 0.7087(7) 0.47404(16) 0.72365(9)
C15_5 C 0.5829(9) 0.4732(3) 0.74707(14)
H9_5 H 0.4666 0.4554 0.7452
C16_5 C 0.6242(9) 0.4979(3) 0.77305(13)
H10_5 H 0.5377 0.4959 0.7891
N4_6 N 0.2111(5) 0.40430(12) 0.09181(7)
N5_6 N 0.0210(5) 0.40680(12) 0.09697(7)
C11_6 C 0.2466(6) 0.42774(15) 0.06600(9)
H7_6 H 0.3683 0.4313 0.0572
C12_6 C 0.0779(6) 0.44605(16) 0.05405(9)
C14_6 C 0.0413(7) 0.47404(16) 0.02635(9)
C15_6 C 0.1671(9) 0.4732(3) 0.00293(14)
H9_6 H 0.2834 0.4554 0.0048
C3_6 C 0.0576(6) 0.56811(15) 0.92565(9)
H2_6 H 0.1891 0.5610 0.9275
C16_6 C 0.1258(9) 0.4979(3) 0.97695(13)
H10_6 H 0.2123 0.4959 0.9609
C6_6 C 0.8742(9) 0.5021(3) 0.02305(13)
H4_6 H 0.7877 0.5041 0.0391
C13_6 C 0.9424(6) 0.43189(15) 0.07435(9)
H8_6 H 0.8109 0.4390 0.0725
C1_6 C 0.7534(6) 0.57226(15) 0.93400(9)
H1_6 H 0.6317 0.5687 0.9428
C2_6 C 0.9221(6) 0.55395(16) 0.94595(9)
C4_6 C 0.9587(7) 0.52596(16) 0.97365(9)
C5_6 C 0.8329(9) 0.5268(3) 0.99707(14)
H3_6 H 0.7166 0.5446 0.9952
H17_6 H 0.1183 0.1813 0.9428
H19_6 H 0.0334 0.2054 0.9952
C30_6 C 0.8758(9) 0.2479(3) 0.02305(13)
H20_6 H 0.9623 0.2459 0.0391
N11_6 N 0.5389(5) 0.34570(12) 0.09181(7)
N12_6 N 0.7290(5) 0.34320(12) 0.09697(7)
C31_6 C 0.5034(6) 0.32226(15) 0.06600(9)
H21_6 H 0.3817 0.3187 0.0572
C32_6 C 0.6721(6) 0.30395(16) 0.05405(9)
C33_6 C 0.8076(6) 0.31811(15) 0.07435(9)
H22_6 H 0.9391 0.3110 0.0725
C34_6 C 0.7087(7) 0.27596(16) 0.02635(9)
C35_6 C 0.5829(9) 0.2768(3) 0.00293(14)
H23_6 H 0.4666 0.2946 0.0048
C25_6 C 0.9966(6) 0.17774(15) 0.93400(9)
C26_6 C 0.8279(6) 0.19605(16) 0.94595(9)
C27_6 C 0.6924(6) 0.18189(15) 0.92565(9)
H18_6 H 0.5609 0.1890 0.9275
C28_6 C 0.7913(7) 0.22404(16) 0.97365(9)
C29_6 C 0.9171(9) 0.2232(3) 0.99707(14)
C36_6 C 0.6242(9) 0.2521(3) 0.97695(13)
H24_6 H 0.5377 0.2541 0.9609
C27_7 C 0.0576(6) 0.68189(15) 0.32435(9)
H18_7 H 0.1891 0.6890 0.3225
N11_7 N 0.2111(5) 0.84570(12) 0.15819(7)
N12_7 N 0.0210(5) 0.84320(12) 0.15303(7)
C31_7 C 0.2466(6) 0.82226(15) 0.18400(9)
H21_7 H 0.3683 0.8187 0.1928
C32_7 C 0.0779(6) 0.80395(16) 0.19595(9)
C34_7 C 0.0413(7) 0.77596(16) 0.22365(9)
C35_7 C 0.1671(9) 0.7768(3) 0.24707(14)
H23_7 H 0.2834 0.7946 0.2452
C36_7 C 0.1258(9) 0.7521(3) 0.27305(13)
H24_7 H 0.2123 0.7541 0.2891
H1_7 H 0.1183 0.0687 0.3072
H3_7 H 0.0334 0.0446 0.2548
C7_4 C 0.2252(7) 0.01639(14) 0.36925(9)
H5_4 H 0.1001 0.0059 0.3645
C17_4 C 0.5248(7) 0.01639(14) 0.38075(9)
H11_4 H 0.6499 0.0059 0.3855
C8_4 C 0.3750 0.9841(2) 0.3750
C9_4 C 0.3750 0.9285(2) 0.3750
C10_4 C 0.216(2) 0.9022(5) 0.3837(8)
H6_4 H 0.1073 0.9199 0.3906
C18_4 C 0.534(2) 0.9022(5) 0.3663(8)
H12_4 H 0.6427 0.9199 0.3594
C19_4 C 0.2252(7) 0.73361(14) 0.38075(9)
H13_4 H 0.1001 0.7441 0.3855
C20_4 C 0.3750 0.7659(2) 0.3750
C21_4 C 0.3750 0.8215(2) 0.3750
C22_4 C 0.216(2) 0.8478(5) 0.3663(8)
H14_4 H 0.1073 0.8301 0.3594
C23_4 C 0.5248(7) 0.73361(14) 0.36925(9)
H15_4 H 0.6499 0.7441 0.3645
C24_4 C 0.534(2) 0.8478(5) 0.3837(8)
H16_4 H 0.6427 0.8301 0.3906
C25_7 C 0.7534(6) 0.67774(15) 0.31600(9)
H17_7 H 0.6317 0.6813 0.3072
C26_7 C 0.9221(6) 0.69605(16) 0.30405(9)
C28_7 C 0.9587(7) 0.72404(16) 0.27635(9)
C29_7 C 0.8329(9) 0.7232(3) 0.25293(14)
H19_7 H 0.7166 0.7054 0.2548
C30_7 C 0.8742(9) 0.7479(3) 0.22695(13)
H20_7 H 0.7877 0.7459 0.2109
C33_7 C 0.9424(6) 0.81811(15) 0.17565(9)
H22_7 H 0.8109 0.8110 0.1775
C1_7 C 0.9966(6) 0.07226(15) 0.31600(9)
C2_7 C 0.8279(6) 0.05395(16) 0.30405(9)
C3_7 C 0.6924(6) 0.06811(15) 0.32435(9)
H2_7 H 0.5609 0.0610 0.3225
C4_7 C 0.7913(7) 0.02596(16) 0.27635(9)
C5_7 C 0.9171(9) 0.0268(3) 0.25293(14)
C6_7 C 0.8758(9) 0.0021(3) 0.22695(13)
H4_7 H 0.9623 0.0041 0.2109
N4_7 N 0.5389(5) 0.90430(12) 0.15819(7)
N5_7 N 0.7290(5) 0.90680(12) 0.15303(7)
C11_7 C 0.5034(6) 0.92774(15) 0.18400(9)
H7_7 H 0.3817 0.9313 0.1928
C12_7 C 0.6721(6) 0.94605(16) 0.19595(9)
C13_7 C 0.8076(6) 0.93189(15) 0.17565(9)
H8_7 H 0.9391 0.9390 0.1775
C14_7 C 0.7087(7) 0.97404(16) 0.22365(9)
C15_7 C 0.5829(9) 0.9732(3) 0.24707(14)
H9_7 H 0.4666 0.9554 0.2452
C16_7 C 0.6242(9) 0.9979(3) 0.27305(13)
H10_7 H 0.5377 0.9959 0.2891
C3_8 C 0.0576(6) 0.06811(15) 0.42565(9)
H2_8 H 0.1891 0.0610 0.4275
N4_8 N 0.2111(5) 0.90430(12) 0.59181(7)
N5_8 N 0.0210(5) 0.90680(12) 0.59697(7)
C11_8 C 0.2466(6) 0.92774(15) 0.56600(9)
H7_8 H 0.3683 0.9313 0.5572
C12_8 C 0.0779(6) 0.94605(16) 0.55405(9)
C14_8 C 0.0413(7) 0.97404(16) 0.52635(9)
C15_8 C 0.1671(9) 0.9732(3) 0.50293(14)
H9_8 H 0.2834 0.9554 0.5048
C16_8 C 0.1258(9) 0.9979(3) 0.47695(13)
H10_8 H 0.2123 0.9959 0.4609
C1_8 C 0.7534(6) 0.07226(15) 0.43400(9)
H1_8 H 0.6317 0.0687 0.4428
C2_8 C 0.9221(6) 0.05395(16) 0.44595(9)
C4_8 C 0.9587(7) 0.02596(16) 0.47365(9)
C5_8 C 0.8329(9) 0.0268(3) 0.49707(14)
H3_8 H 0.7166 0.0446 0.4952
C6_8 C 0.8742(9) 0.0021(3) 0.52305(13)
H4_8 H 0.7877 0.0041 0.5391
C13_8 C 0.9424(6) 0.93189(15) 0.57435(9)
H8_8 H 0.8109 0.9390 0.5725
H17_8 H 0.1183 0.6813 0.4428
H19_8 H 0.0334 0.7054 0.4952
C25_8 C 0.9966(6) 0.67774(15) 0.43400(9)
C26_8 C 0.8279(6) 0.69605(16) 0.44595(9)
C27_8 C 0.6924(6) 0.68189(15) 0.42565(9)
H18_8 H 0.5609 0.6890 0.4275
C28_8 C 0.7913(7) 0.72404(16) 0.47365(9)
C29_8 C 0.9171(9) 0.7232(3) 0.49707(14)
C30_8 C 0.8758(9) 0.7479(3) 0.52305(13)
H20_8 H 0.9623 0.7459 0.5391
N11_8 N 0.5389(5) 0.84570(12) 0.59181(7)
N12_8 N 0.7290(5) 0.84320(12) 0.59697(7)
C31_8 C 0.5034(6) 0.82226(15) 0.56600(9)
H21_8 H 0.3817 0.8187 0.5572
C32_8 C 0.6721(6) 0.80395(16) 0.55405(9)
C33_8 C 0.8076(6) 0.81811(15) 0.57435(9)
H22_8 H 0.9391 0.8110 0.5725
C34_8 C 0.7087(7) 0.77596(16) 0.52635(9)
C35_8 C 0.5829(9) 0.7768(3) 0.50293(14)
H23_8 H 0.4666 0.7946 0.5048
C36_8 C 0.6242(9) 0.7521(3) 0.47695(13)
H24_8 H 0.5377 0.7541 0.4609
N3_3 N 0.2182(5) 0.43547(12) 0.62866(7)
C7_5 C 0.2748(7) 0.48361(14) 0.63075(9)
H5_5 H 0.3999 0.4941 0.6355
C8_5 C 0.1250 0.5159(2) 0.6250
C9_5 C 0.1250 0.5715(2) 0.6250
C10_5 C 0.284(2) 0.5978(5) 0.6163(8)
H6_5 H 0.3927 0.5801 0.6094
N6_3 N 0.0318(5) 0.43547(12) 0.62134(7)
N7_3 N 0.2182(5) 0.81453(12) 0.62134(7)
C19_5 C 0.2748(7) 0.76639(14) 0.61925(9)
H13_5 H 0.3999 0.7559 0.6145
C20_5 C 0.1250 0.7341(2) 0.6250
C21_5 C 0.1250 0.6785(2) 0.6250
C22_5 C 0.284(2) 0.6522(5) 0.6337(8)
H14_5 H 0.3927 0.6699 0.6406
N8_3 N 0.0318(5) 0.81453(12) 0.62866(7)
N20_5 N 0.5318(5) 0.31453(12) 0.62866(7)
C17_5 C 0.9752(7) 0.48361(14) 0.61925(9)
H11_5 H 0.8501 0.4941 0.6145
C18_5 C 0.966(2) 0.5978(5) 0.6337(8)
H12_5 H 0.8573 0.5801 0.6406
C23_5 C 0.9752(7) 0.76639(14) 0.63075(9)
H15_5 H 0.8501 0.7559 0.6355
C24_5 C 0.966(2) 0.6522(5) 0.6163(8)
H16_5 H 0.8573 0.6699 0.6094
N19_5 N 0.7182(5) 0.93547(12) 0.62866(7)
N19_6 N 0.5318(5) 0.93547(12) 0.62134(7)
N20_6 N 0.7182(5) 0.31453(12) 0.62134(7)
C8_6 C 0.1250 0.0159(2) 0.1250
C9_6 C 0.1250 0.0715(2) 0.1250
C10_6 C 0.284(2) 0.0978(5) 0.1163(8)
H6_6 H 0.3927 0.0801 0.1094
N7_4 N 0.2182(5) 0.31453(12) 0.12134(7)
C19_6 C 0.2748(7) 0.26639(14) 0.11925(9)
H13_6 H 0.3999 0.2559 0.1145
C20_6 C 0.1250 0.2341(2) 0.1250
C21_6 C 0.1250 0.1785(2) 0.1250
C22_6 C 0.284(2) 0.1522(5) 0.1337(8)
H14_6 H 0.3927 0.1699 0.1406
N8_4 N 0.0318(5) 0.31453(12) 0.12866(7)
N3_4 N 0.2182(5) 0.93547(12) 0.12866(7)
C7_6 C 0.2748(7) 0.98361(14) 0.13075(9)
H5_6 H 0.3999 0.9941 0.1355
N6_4 N 0.0318(5) 0.93547(12) 0.12134(7)
N20_7 N 0.5318(5) 0.81453(12) 0.12866(7)
C18_6 C 0.966(2) 0.0978(5) 0.1337(8)
H12_6 H 0.8573 0.0801 0.1406
C23_6 C 0.9752(7) 0.26639(14) 0.13075(9)
H15_6 H 0.8501 0.2559 0.1355
C24_6 C 0.966(2) 0.1522(5) 0.1163(8)
H16_6 H 0.8573 0.1699 0.1094
N19_7 N 0.7182(5) 0.43547(12) 0.12866(7)
C17_6 C 0.9752(7) 0.98361(14) 0.11925(9)
H11_6 H 0.8501 0.9941 0.1145
N19_8 N 0.5318(5) 0.43547(12) 0.12134(7)
N20_8 N 0.7182(5) 0.81453(12) 0.12134(7)
C7_7 C 0.7748(7) 0.48361(14) 0.13075(9)
H5_7 H 0.8999 0.4941 0.1355
C8_7 C 0.6250 0.5159(2) 0.1250
C9_7 C 0.6250 0.5715(2) 0.1250
C10_7 C 0.784(2) 0.5978(5) 0.1163(8)
H6_7 H 0.8927 0.5801 0.1094
C17_7 C 0.4752(7) 0.48361(14) 0.11925(9)
H11_7 H 0.3501 0.4941 0.1145
C18_7 C 0.466(2) 0.5978(5) 0.1337(8)
H12_7 H 0.3573 0.5801 0.1406
C19_7 C 0.7748(7) 0.76639(14) 0.11925(9)
H13_7 H 0.8999 0.7559 0.1145
C20_7 C 0.6250 0.7341(2) 0.1250
C21_7 C 0.6250 0.6785(2) 0.1250
C22_7 C 0.784(2) 0.6522(5) 0.1337(8)
H14_7 H 0.8927 0.6699 0.1406
C23_7 C 0.4752(7) 0.76639(14) 0.13075(9)
H15_7 H 0.3501 0.7559 0.1355
C24_7 C 0.466(2) 0.6522(5) 0.1163(8)
H16_7 H 0.3573 0.6699 0.1094
C8_8 C 0.6250 0.0159(2) 0.6250
C9_8 C 0.6250 0.0715(2) 0.6250
C10_8 C 0.784(2) 0.0978(5) 0.6163(8)
H6_8 H 0.8927 0.0801 0.6094
C18_8 C 0.466(2) 0.0978(5) 0.6337(8)
H12_8 H 0.3573 0.0801 0.6406
C19_8 C 0.7748(7) 0.26639(14) 0.61925(9)
H13_8 H 0.8999 0.2559 0.6145
C20_8 C 0.6250 0.2341(2) 0.6250
C21_8 C 0.6250 0.1785(2) 0.6250
C22_8 C 0.784(2) 0.1522(5) 0.6337(8)
H14_8 H 0.8927 0.1699 0.6406
C23_8 C 0.4752(7) 0.26639(14) 0.63075(9)
H15_8 H 0.3501 0.2559 0.6355
C24_8 C 0.466(2) 0.1522(5) 0.6163(8)
H16_8 H 0.3573 0.1699 0.6094
C7_8 C 0.7748(7) 0.98361(14) 0.63075(9)
H5_8 H 0.8999 0.9941 0.6355
C17_8 C 0.4752(7) 0.98361(14) 0.61925(9)
H11_8 H 0.3501 0.9941 0.6145
loop_
_geom_bond_atom_site_label_1
_geom_bond_atom_site_label_2
_geom_bond_site_symmetry_1
_geom_bond_site_symmetry_2
H11 C17 1_555 1_555
H12 C18 1_555 1_555
H15 C23 1_555 1_555
C24 C18 1_555 1_555
H16 C24 1_555 1_555
N9 Fe2 1_555 1_555
N10 N9 1_555 1_555
C25 N9 1_555 1_555
H17 C25 1_555 1_555
C26 C25 1_555 1_555
C27 N10 1_555 1_555
H18 C27 1_555 1_555
C28 C26 1_555 1_555
C29 C28 1_555 1_555
H19 C29 1_555 1_555
C30 C29 1_555 1_555
H20 C30 1_555 1_555
N11 N12 1_555 1_555
N12 C33 1_555 1_555
C31 N11 1_555 1_555
H21 C31 1_555 1_555
C32 C31 1_555 1_555
C33 C32 1_555 1_555
H22 C33 1_555 1_555
C34 C30 1_555 1_555
C35 C34 1_555 1_555
H23 C35 1_555 1_555
C36 C28 1_555 1_555
H24 C36 1_555 1_555
Fe6 N10 1_555 1_555
Fe8 N11 1_555 1_555
Fe10 N12 1_555 1_555
N16 Fe2 1_555 1_555
N19 Fe2 1_555 1_555
C26 C27 1_555 1_555
C32 C34 1_555 1_555
C35 C36 1_555 1_555
Fe1 N1 1_555 1_555
N1 N2 1_555 1_555
N2 C3 1_555 1_555
C1 N1 1_555 1_555
H1 C1 1_555 1_555
C2 C1 1_555 1_555
C3 C2 1_555 1_555
H2 C3 1_555 1_555
C4 C2 1_555 1_555
C5 C4 1_555 1_555
H3 C5 1_555 1_555
C6 C5 1_555 1_555
H4 C6 1_555 1_555
N3 Fe1 1_555 1_555
C7 N3 1_555 1_555
H5 C7 1_555 1_555
C8 C7 1_555 1_555
C9 C8 1_555 1_555
C10 C9 1_555 1_555
H6 C10 1_555 1_555
N4 N5 1_555 1_555
N5 C13 1_555 1_555
C11 N4 1_555 1_555
C12 C11 1_555 1_555
C13 C12 1_555 1_555
H8 C13 1_555 1_555
C14 C6 1_555 1_555
C15 C14 1_555 1_555
C16 C4 1_555 1_555
H10 C16 1_555 1_555
N6 N3 1_555 1_555
N7 C19 1_555 1_555
C19 H13 1_555 1_555
C20 C19 1_555 1_555
C21 C20 1_555 1_555
C22 C10 1_555 1_555
H14 C22 1_555 1_555
N8 N7 1_555 1_555
Fe4 N2 1_555 1_555
Fe6 N7 1_555 1_555
Fe10 N5 1_555 1_555
N14 Fe1 1_555 1_555
N15 Fe1 1_555 1_555
N18 Fe1 1_555 1_555
N20 Fe1 1_555 1_555
C12 C14 1_555 1_555
C15 C16 1_555 1_555
C21 C22 1_555 1_555
Fe4 N1_2 1_555 1_555
N1_2 N15 1_555 1_555
N15 C3_2 1_555 1_555
C1_2 N1_2 1_555 1_555
H1_2 C1_2 1_555 1_555
C2_2 C1_2 1_555 1_555
C3_2 C2_2 1_555 1_555
H2_2 C3_2 1_555 1_555
C4_2 C2_2 1_555 1_555
C5_2 C4_2 1_555 1_555
H3_2 C5_2 1_555 1_555
C6_2 C5_2 1_555 1_555
H4_2 C6_2 1_555 1_555
N4_2 N5_2 1_555 1_555
N5_2 C13_2 1_555 1_555
C11_2 N4_2 1_555 1_555
H7_2 C11_2 1_555 1_555
C12_2 C11_2 1_555 1_555
C13_2 C12_2 1_555 1_555
H8_2 C13_2 1_555 1_555
C14_2 C6_2 1_555 1_555
C15_2 C14_2 1_555 1_555
H9_2 C15_2 1_555 1_555
C16_2 C4_2 1_555 1_555
H10_2 C16_2 1_555 1_555
Fe7 N4_2 1_555 1_555
Fe9 N5_2 1_555 1_555
N20_2 Fe4 1_555 1_555
C12_2 C14_2 1_555 1_555
C15_2 C16_2 1_555 1_555
N9_2 Fe6 1_555 1_555
N16 N9_2 1_555 1_555
C25_2 N9_2 1_555 1_555
H17_2 C25_2 1_555 1_555
C26_2 C25_2 1_555 1_555
C27_2 N16 1_555 1_555
H18_2 C27_2 1_555 1_555
C28_2 C26_2 1_555 1_555
C29_2 C28_2 1_555 1_555
H19_2 C29_2 1_555 1_555
C30_2 C29_2 1_555 1_555
H20_2 C30_2 1_555 1_555
N11_2 N12_2 1_555 1_555
N12_2 C33_2 1_555 1_555
C31_2 N11_2 1_555 1_555
C32_2 C31_2 1_555 1_555
C33_2 C32_2 1_555 1_555
H22_2 C33_2 1_555 1_555
C34_2 C30_2 1_555 1_555
C35_2 C34_2 1_555 1_555
C36_2 C28_2 1_555 1_555
H24_2 C36_2 1_555 1_555
Fe9 N12_2 1_555 1_555
N13_2 Fe6 1_555 1_555
N17_2 Fe6 1_555 1_555
N19_2 Fe6 1_555 1_555
C26_2 C27_2 1_555 1_555
C32_2 C34_2 1_555 1_555
C35_2 C36_2 1_555 1_555
H11_2 C17_2 1_555 1_555
H12_2 C18_2 1_555 1_555
H15_2 C23_2 1_555 1_555
C24_2 C18_2 1_555 1_555
H16_2 C24_2 1_555 1_555
N9_3 Fe2_2 1_555 1_555
N10_2 N9_3 1_555 1_555
C25_3 N9_3 1_555 1_555
H17_3 C25_3 1_555 1_555
C26_3 C25_3 1_555 1_555
C27_3 N10_2 1_555 1_555
H18_3 C27_3 1_555 1_555
C28_3 C26_3 1_555 1_555
C29_3 C28_3 1_555 1_555
H19_3 C29_3 1_555 1_555
C30_3 C29_3 1_555 1_555
H20_3 C30_3 1_555 1_555
N11_3 N12_3 1_555 1_555
N12_3 C33_3 1_555 1_555
C31_3 N11_3 1_555 1_555
H21_3 C31_3 1_555 1_555
C32_3 C31_3 1_555 1_555
C33_3 C32_3 1_555 1_555
H22_3 C33_3 1_555 1_555
C34_3 C30_3 1_555 1_555
C35_3 C34_3 1_555 1_555
H23_3 C35_3 1_555 1_555
C36_3 C28_3 1_555 1_555
H24_3 C36_3 1_555 1_555
Fe6_2 N10_2 1_555 1_555
Fe8_2 N11_3 1_555 1_555
Fe10_2 N12_3 1_555 1_555
N16_2 Fe2_2 1_555 1_555
N19_3 Fe2_2 1_555 1_555
C26_3 C27_3 1_555 1_555
C32_3 C34_3 1_555 1_555
C35_3 C36_3 1_555 1_555
Fe1_2 N1_3 1_555 1_555
N1_3 N2_2 1_555 1_555
N2_2 C3_3 1_555 1_555
C1_3 N1_3 1_555 1_555
H1_3 C1_3 1_555 1_555
C2_3 C1_3 1_555 1_555
C3_3 C2_3 1_555 1_555
H2_3 C3_3 1_555 1_555
C4_3 C2_3 1_555 1_555
C5_3 C4_3 1_555 1_555
H3_3 C5_3 1_555 1_555
C6_3 C5_3 1_555 1_555
H4_3 C6_3 1_555 1_555
N3_2 Fe1_2 1_555 1_555
C7_2 N3_2 1_555 1_555
H5_2 C7_2 1_555 1_555
N6_2 N3_2 1_555 1_555
Fe4_2 N2_2 1_555 1_555
N14_3 Fe1_2 1_555 1_555
N15_2 Fe1_2 1_555 1_555
N18_3 Fe1_2 1_555 1_555
N20_3 Fe1_2 1_555 1_555
C9_2 C8_2 1_555 1_555
C10_2 C9_2 1_555 1_555
H6_2 C10_2 1_555 1_555
N4_3 N5_3 1_555 1_555
N5_3 C13_3 1_555 1_555
C11_3 N4_3 1_555 1_555
C12_3 C11_3 1_555 1_555
C13_3 C12_3 1_555 1_555
H8_3 C13_3 1_555 1_555
C15_3 C14_3 1_555 1_555
H10_3 C16_3 1_555 1_555
N7_2 C19_2 1_555 1_555
C19_2 H13_2 1_555 1_555
C20_2 C19_2 1_555 1_555
C21_2 C20_2 1_555 1_555
C22_2 C10_2 1_555 1_555
H14_2 C22_2 1_555 1_555
N8_2 N7_2 1_555 1_555
Fe6_2 N7_2 1_555 1_555
Fe10_2 N5_3 1_555 1_555
C12_3 C14_3 1_555 1_555
C15_3 C16_3 1_555 1_555
C21_2 C22_2 1_555 1_555
H4_4 C6_4 1_555 1_555
Fe4_2 N1_4 1_555 1_555
N1_4 N15_2 1_555 1_555
N15_2 C3_4 1_555 1_555
C1_4 N1_4 1_555 1_555
H1_4 C1_4 1_555 1_555
C2_4 C1_4 1_555 1_555
C3_4 C2_4 1_555 1_555
H2_4 C3_4 1_555 1_555
C4_4 C2_4 1_555 1_555
C5_4 C4_4 1_555 1_555
H3_4 C5_4 1_555 1_555
N20_4 Fe4_2 1_555 1_555
N4_4 N5_4 1_555 1_555
N5_4 C13_4 1_555 1_555
C11_4 N4_4 1_555 1_555
H7_4 C11_4 1_555 1_555
C12_4 C11_4 1_555 1_555
C13_4 C12_4 1_555 1_555
H8_4 C13_4 1_555 1_555
C15_4 C14_4 1_555 1_555
H9_4 C15_4 1_555 1_555
Fe7_2 N4_4 1_555 1_555
Fe9_2 N5_4 1_555 1_555
C12_4 C14_4 1_555 1_555
H10_4 C16_4 1_555 1_555
H20_4 C30_4 1_555 1_555
N11_4 N12_4 1_555 1_555
N12_4 C33_4 1_555 1_555
C31_4 N11_4 1_555 1_555
C32_4 C31_4 1_555 1_555
C33_4 C32_4 1_555 1_555
H22_4 C33_4 1_555 1_555
C34_4 C30_4 1_555 1_555
C35_4 C34_4 1_555 1_555
Fe9_2 N12_4 1_555 1_555
C32_4 C34_4 1_555 1_555
N9_4 Fe6_2 1_555 1_555
N16_2 N9_4 1_555 1_555
C25_4 N9_4 1_555 1_555
H17_4 C25_4 1_555 1_555
C26_4 C25_4 1_555 1_555
C27_4 N16_2 1_555 1_555
H18_4 C27_4 1_555 1_555
C28_4 C26_4 1_555 1_555
C29_4 C28_4 1_555 1_555
H19_4 C29_4 1_555 1_555
C36_4 C28_4 1_555 1_555
H24_4 C36_4 1_555 1_555
N13_4 Fe6_2 1_555 1_555
N17_4 Fe6_2 1_555 1_555
N19_4 Fe6_2 1_555 1_555
C26_4 C27_4 1_555 1_555
H18_5 C27_5 1_555 1_555
N11_5 N12_5 1_555 1_555
C31_5 N11_5 1_555 1_555
H21_5 C31_5 1_555 1_555
C32_5 C31_5 1_555 1_555
C35_5 C34_5 1_555 1_555
H23_5 C35_5 1_555 1_555
H24_5 C36_5 1_555 1_555
Fe9 N11_5 1_555 1_555
C32_5 C34_5 1_555 1_555
C35_5 C36_5 1_555 1_555
C7_3 N19_3 1_555 1_555
H5_3 C7_3 1_555 1_555
C8_3 C7_3 1_555 1_555
C9_3 C8_3 1_555 1_555
C10_3 C9_3 1_555 1_555
H6_3 C10_3 1_555 1_555
N19_4 N19_3 1_555 1_555
C17_3 C8_3 1_555 1_555
H11_3 C17_3 1_555 1_555
C18_3 C9_3 1_555 1_555
H12_3 C18_3 1_555 1_555
N20_4 C19_3 1_555 1_555
C19_3 H13_3 1_555 1_555
C20_3 C19_3 1_555 1_555
C21_3 C20_3 1_555 1_555
C22_3 C10_3 1_555 1_555
H14_3 C22_3 1_555 1_555
N20_3 N20_4 1_555 1_555
C23_3 C20_3 1_555 1_555
H15_3 C23_3 1_555 1_555
C24_3 C18_3 1_555 1_555
H16_3 C24_3 1_555 1_555
N18_4 N14_3 1_555 1_555
C25_5 N14_3 1_555 1_555
H17_5 C25_5 1_555 1_555
C26_5 C25_5 1_555 1_555
C28_5 C26_5 1_555 1_555
C29_5 C28_5 1_555 1_555
H19_5 C29_5 1_555 1_555
C30_5 C29_5 1_555 1_555
H20_5 C30_5 1_555 1_555
H22_5 C33_5 1_555 1_555
N19_4 C17_3 1_555 1_555
C21_3 C22_3 1_555 1_555
C21_3 C24_3 1_555 1_555
N20_3 C23_3 1_555 1_555
N13_3 N17_4 1_555 1_555
N17_4 C3_5 1_555 1_555
C1_5 N13_3 1_555 1_555
C2_5 C1_5 1_555 1_555
C3_5 C2_5 1_555 1_555
H2_5 C3_5 1_555 1_555
C4_5 C2_5 1_555 1_555
C5_5 C4_5 1_555 1_555
C6_5 C5_5 1_555 1_555
H4_5 C6_5 1_555 1_555
N4_5 N5_5 1_555 1_555
N5_5 C13_5 1_555 1_555
C11_5 N4_5 1_555 1_555
H7_5 C11_5 1_555 1_555
C12_5 C11_5 1_555 1_555
C13_5 C12_5 1_555 1_555
H8_5 C13_5 1_555 1_555
C14_5 C6_5 1_555 1_555
C15_5 C14_5 1_555 1_555
H9_5 C15_5 1_555 1_555
C16_5 C4_5 1_555 1_555
H10_5 C16_5 1_555 1_555
Fe9 N4_5 1_555 1_555
Fe7 N5_5 1_555 1_555
C12_5 C14_5 1_555 1_555
C15_5 C16_5 1_555 1_555
N4_6 N5_6 1_555 1_555
C11_6 N4_6 1_555 1_555
H7_6 C11_6 1_555 1_555
C12_6 C11_6 1_555 1_555
C15_6 C14_6 1_555 1_555
H9_6 C15_6 1_555 1_555
Fe10 N4_6 1_555 1_555
C12_6 C14_6 1_555 1_555
H2_6 C3_6 1_555 1_555
H10_6 C16_6 1_555 1_555
H4_6 C6_6 1_555 1_555
H8_6 C13_6 1_555 1_555
N13_4 N17_3 1_555 1_555
C1_6 N13_4 1_555 1_555
H1_6 C1_6 1_555 1_555
C2_6 C1_6 1_555 1_555
C4_6 C2_6 1_555 1_555
C5_6 C4_6 1_555 1_555
H3_6 C5_6 1_555 1_555
H20_6 C30_6 1_555 1_555
N11_6 N12_6 1_555 1_555
N12_6 C33_6 1_555 1_555
C31_6 N11_6 1_555 1_555
H21_6 C31_6 1_555 1_555
C32_6 C31_6 1_555 1_555
C33_6 C32_6 1_555 1_555
H22_6 C33_6 1_555 1_555
C34_6 C30_6 1_555 1_555
C35_6 C34_6 1_555 1_555
H23_6 C35_6 1_555 1_555
Fe10 N11_6 1_555 1_555
Fe8 N12_6 1_555 1_555
C32_6 C34_6 1_555 1_555
N18_3 N14_4 1_555 1_555
C25_6 N14_4 1_555 1_555
C26_6 C25_6 1_555 1_555
C27_6 N18_3 1_555 1_555
H18_6 C27_6 1_555 1_555
C28_6 C26_6 1_555 1_555
C29_6 C28_6 1_555 1_555
C36_6 C28_6 1_555 1_555
H24_6 C36_6 1_555 1_555
C26_6 C27_6 1_555 1_555
H18_7 C27_7 1_555 1_555
N11_7 N12_7 1_555 1_555
C31_7 N11_7 1_555 1_555
H21_7 C31_7 1_555 1_555
C32_7 C31_7 1_555 1_555
C35_7 C34_7 1_555 1_555
H23_7 C35_7 1_555 1_555
H24_7 C36_7 1_555 1_555
Fe9_2 N11_7 1_555 1_555
C32_7 C34_7 1_555 1_555
C35_7 C36_7 1_555 1_555
C7_4 N19 1_555 1_555
H5_4 C7_4 1_555 1_555
N19_2 N19 1_555 1_555
H11_4 C17_4 1_555 1_555
N19_2 C17_4 1_555 1_555
C9_4 C8_4 1_555 1_555
C10_4 C9_4 1_555 1_555
H6_4 C10_4 1_555 1_555
C18_4 C9_4 1_555 1_555
H12_4 C18_4 1_555 1_555
N20_2 C19_4 1_555 1_555
C19_4 H13_4 1_555 1_555
C20_4 C19_4 1_555 1_555
C21_4 C20_4 1_555 1_555
C22_4 C10_4 1_555 1_555
H14_4 C22_4 1_555 1_555
N20 N20_2 1_555 1_555
C23_4 C20_4 1_555 1_555
H15_4 C23_4 1_555 1_555
C24_4 C18_4 1_555 1_555
H16_4 C24_4 1_555 1_555
N18_2 N14 1_555 1_555
C25_7 N14 1_555 1_555
H17_7 C25_7 1_555 1_555
C26_7 C25_7 1_555 1_555
C28_7 C26_7 1_555 1_555
C29_7 C28_7 1_555 1_555
H19_7 C29_7 1_555 1_555
C30_7 C29_7 1_555 1_555
H20_7 C30_7 1_555 1_555
H22_7 C33_7 1_555 1_555
C21_4 C22_4 1_555 1_555
C21_4 C24_4 1_555 1_555
N20 C23_4 1_555 1_555
N13 N17_2 1_555 1_555
N17_2 C3_7 1_555 1_555
C1_7 N13 1_555 1_555
C2_7 C1_7 1_555 1_555
C3_7 C2_7 1_555 1_555
H2_7 C3_7 1_555 1_555
C4_7 C2_7 1_555 1_555
C5_7 C4_7 1_555 1_555
C6_7 C5_7 1_555 1_555
H4_7 C6_7 1_555 1_555
N4_7 N5_7 1_555 1_555
N5_7 C13_7 1_555 1_555
C11_7 N4_7 1_555 1_555
H7_7 C11_7 1_555 1_555
C12_7 C11_7 1_555 1_555
C13_7 C12_7 1_555 1_555
H8_7 C13_7 1_555 1_555
C15_7 C14_7 1_555 1_555
H9_7 C15_7 1_555 1_555
H10_7 C16_7 1_555 1_555
Fe9_2 N4_7 1_555 1_555
Fe7_2 N5_7 1_555 1_555
C12_7 C14_7 1_555 1_555
C15_7 C16_7 1_555 1_555
H2_8 C3_8 1_555 1_555
N4_8 N5_8 1_555 1_555
C11_8 N4_8 1_555 1_555
H7_8 C11_8 1_555 1_555
C12_8 C11_8 1_555 1_555
C15_8 C14_8 1_555 1_555
H9_8 C15_8 1_555 1_555
H10_8 C16_8 1_555 1_555
Fe10_2 N4_8 1_555 1_555
C12_8 C14_8 1_555 1_555
C15_8 C16_8 1_555 1_555
N13_2 N17 1_555 1_555
C1_8 N13_2 1_555 1_555
H1_8 C1_8 1_555 1_555
C2_8 C1_8 1_555 1_555
C4_8 C2_8 1_555 1_555
C5_8 C4_8 1_555 1_555
H3_8 C5_8 1_555 1_555
C6_8 C5_8 1_555 1_555
H4_8 C6_8 1_555 1_555
H8_8 C13_8 1_555 1_555
N18 N14_2 1_555 1_555
C25_8 N14_2 1_555 1_555
C26_8 C25_8 1_555 1_555
C27_8 N18 1_555 1_555
H18_8 C27_8 1_555 1_555
C28_8 C26_8 1_555 1_555
C29_8 C28_8 1_555 1_555
C30_8 C29_8 1_555 1_555
H20_8 C30_8 1_555 1_555
N11_8 N12_8 1_555 1_555
N12_8 C33_8 1_555 1_555
C31_8 N11_8 1_555 1_555
H21_8 C31_8 1_555 1_555
C32_8 C31_8 1_555 1_555
C33_8 C32_8 1_555 1_555
H22_8 C33_8 1_555 1_555
C34_8 C30_8 1_555 1_555
C35_8 C34_8 1_555 1_555
H23_8 C35_8 1_555 1_555
C36_8 C28_8 1_555 1_555
H24_8 C36_8 1_555 1_555
Fe10_2 N11_8 1_555 1_555
Fe8_2 N12_8 1_555 1_555
C26_8 C27_8 1_555 1_555
C32_8 C34_8 1_555 1_555
C35_8 C36_8 1_555 1_555
N3_3 Fe9 1_555 1_555
C7_5 N3_3 1_555 1_555
H5_5 C7_5 1_555 1_555
C8_5 C7_5 1_555 1_555
C9_5 C8_5 1_555 1_555
C10_5 C9_5 1_555 1_555
H6_5 C10_5 1_555 1_555
N6_3 N3_3 1_555 1_555
N7_3 C19_5 1_555 1_555
C19_5 H13_5 1_555 1_555
C20_5 C19_5 1_555 1_555
C21_5 C20_5 1_555 1_555
C22_5 C10_5 1_555 1_555
H14_5 C22_5 1_555 1_555
N8_3 N7_3 1_555 1_555
Fe10_2 N7_3 1_555 1_555
N20_5 Fe9 1_555 1_555
C21_5 C22_5 1_555 1_555
H11_5 C17_5 1_555 1_555
H12_5 C18_5 1_555 1_555
H15_5 C23_5 1_555 1_555
C24_5 C18_5 1_555 1_555
H16_5 C24_5 1_555 1_555
N19_5 Fe8_2 1_555 1_555
N19_6 Fe10_2 1_555 1_555
N20_6 Fe7 1_555 1_555
C9_6 C8_6 1_555 1_555
C10_6 C9_6 1_555 1_555
H6_6 C10_6 1_555 1_555
N7_4 C19_6 1_555 1_555
C19_6 H13_6 1_555 1_555
C20_6 C19_6 1_555 1_555
C21_6 C20_6 1_555 1_555
C22_6 C10_6 1_555 1_555
H14_6 C22_6 1_555 1_555
N8_4 N7_4 1_555 1_555
Fe10 N7_4 1_555 1_555
C21_6 C22_6 1_555 1_555
N3_4 Fe9_2 1_555 1_555
C7_6 N3_4 1_555 1_555
H5_6 C7_6 1_555 1_555
N6_4 N3_4 1_555 1_555
N20_7 Fe9_2 1_555 1_555
H12_6 C18_6 1_555 1_555
H15_6 C23_6 1_555 1_555
C24_6 C18_6 1_555 1_555
H16_6 C24_6 1_555 1_555
N19_7 Fe8 1_555 1_555
H11_6 C17_6 1_555 1_555
N19_8 Fe10 1_555 1_555
N20_8 Fe7_2 1_555 1_555
C7_7 N19_7 1_555 1_555
H5_7 C7_7 1_555 1_555
C8_7 C7_7 1_555 1_555
C9_7 C8_7 1_555 1_555
C10_7 C9_7 1_555 1_555
H6_7 C10_7 1_555 1_555
N19_8 N19_7 1_555 1_555
C17_7 C8_7 1_555 1_555
H11_7 C17_7 1_555 1_555
C18_7 C9_7 1_555 1_555
H12_7 C18_7 1_555 1_555
N20_8 C19_7 1_555 1_555
C19_7 H13_7 1_555 1_555
C20_7 C19_7 1_555 1_555
C21_7 C20_7 1_555 1_555
C22_7 C10_7 1_555 1_555
H14_7 C22_7 1_555 1_555
N20_7 N20_8 1_555 1_555
C23_7 C20_7 1_555 1_555
H15_7 C23_7 1_555 1_555
C24_7 C18_7 1_555 1_555
H16_7 C24_7 1_555 1_555
N19_8 C17_7 1_555 1_555
C21_7 C22_7 1_555 1_555
C21_7 C24_7 1_555 1_555
N20_7 C23_7 1_555 1_555
C9_8 C8_8 1_555 1_555
C10_8 C9_8 1_555 1_555
H6_8 C10_8 1_555 1_555
C18_8 C9_8 1_555 1_555
H12_8 C18_8 1_555 1_555
N20_6 C19_8 1_555 1_555
C19_8 H13_8 1_555 1_555
C20_8 C19_8 1_555 1_555
C21_8 C20_8 1_555 1_555
C22_8 C10_8 1_555 1_555
H14_8 C22_8 1_555 1_555
N20_5 N20_6 1_555 1_555
C23_8 C20_8 1_555 1_555
H15_8 C23_8 1_555 1_555
C24_8 C18_8 1_555 1_555
H16_8 C24_8 1_555 1_555
C21_8 C22_8 1_555 1_555
C21_8 C24_8 1_555 1_555
N20_5 C23_8 1_555 1_555
C7_8 N19_5 1_555 1_555
H5_8 C7_8 1_555 1_555
N19_6 N19_5 1_555 1_555
H11_8 C17_8 1_555 1_555
N19_6 C17_8 1_555 1_555

#END
