
###############################################################################
#
# This file contains modified crystal structure data generated from the
# MOF subset of the Cambridge Structural Database (CSD) v543 
# hosted by the Cambridge Crystallographic Data Centre (CCDC).
#
# This work is licensed under the Creative Commons
# Attribution-NonCommercial-ShareAlike 4.0 International License.
# To view a copy of this license, visit
# http://creativecommons.org/licenses/by-nc-sa/4.0/
# or send a letter to
# Creative Commons, PO Box 1866, Mountain View, CA 94042, USA.
#
# CIF created using the CSD Python API on 29 September 2022
# The structure has been converted into the P1 space group
# The structure has a 3D framework
# The original CSD entry MUVYEJ is in the orthorhombic crystal system
# The framework has been calculated to contain at least 10.0% void space
# The void calculation uses a probe of radius 1.32A, grid spacing 0.4
#
###############################################################################

data_MUVYEJ
_chemical_formula_moiety         '(C192 H168 N40 O32 Zn7)n'
_symmetry_cell_setting           triclinic
_symmetry_space_group_name_H-M   'P 1'
_symmetry_Int_Tables_number      1
_space_group_name_Hall           'P 1'
loop_
_symmetry_equiv_pos_site_id
_symmetry_equiv_pos_as_xyz
1 x,y,z
_cell_length_a                   23.305(7)
_cell_length_b                   16.145(5)
_cell_length_c                   14.322(4)
_cell_angle_alpha                90
_cell_angle_beta                 90
_cell_angle_gamma                90
_cell_volume                     5388.78
loop_
_atom_site_label
_atom_site_type_symbol
_atom_site_fract_x
_atom_site_fract_y
_atom_site_fract_z
Zn1 Zn 0.31144(4) 0.05734(7) 0.04319(10)
H1 H 0.1756 0.0461 0.0664
H4 H 0.0785 0.0436 0.1361
N11 N 0.3471(3) 0.1486(5) 0.1172(6)
Zn2 Zn 0.33986(4) 0.15462(7) 0.45680(9)
C21 C 0.2470(4) 0.1371(7) 0.3136(7)
H18 H 0.2609 0.1825 0.2806
C22 C 0.1980(4) 0.1000(7) 0.2947(8)
H19 H 0.1714 0.1130 0.2485
C23 C 0.2427(4) 0.0421(6) 0.4138(7)
H20 H 0.2513 0.0075 0.4637
C29 C 0.0943(4) 0.0082(6) 0.3713(6)
H23 H 0.0880 0.0650 0.3673
C41 C 0.2651(6) 0.1538(10) 0.8930(10)
C42 C 0.2578(7) 0.1631(10) 0.7904(10)
H35 H 0.2246 0.1312 0.7708
H36 H 0.2501 0.2209 0.7764
C43 C 0.3069(7) 0.1366(11) 0.7377(10)
H37 H 0.3204 0.0857 0.7661
H38 H 0.3367 0.1777 0.7473
C44 C 0.3031(6) 0.1210(17) 0.6322(10)
N6 N 0.2746(3) 0.1022(5) 0.3862(6)
N7 N 0.1956(3) 0.0360(5) 0.3612(6)
O1 O 0.2793(5) 0.0877(7) 0.9254(7)
O2 O 0.2559(5) 0.2093(9) 0.9429(11)
O3 O 0.3410(5) 0.1593(9) 0.5878(7)
O4 O 0.4050(4) 0.0806(7) 0.4302(9)
O5 O 0.2596(7) 0.1511(11) 0.6014(12)
O6 O 0.6219(4) 0.0151(7) 0.5054(10)
O7 O 0.4609(4) 0.1826(8) 0.4298(9)
C45 C 0.4522(7) 0.1081(10) 0.4294(13)
C46 C 0.5043(6) 0.0578(9) 0.4626(19)
H39 H 0.4901 0.0120 0.4998
H40 H 0.5226 0.0342 0.4079
O8 O 0.6083(9) 0.0574(14) 0.6590(15)
C47 C 0.5483(7) 0.1000(13) 0.517(2)
H41 H 0.5289 0.1344 0.5624
H42 H 0.5683 0.1371 0.4747
C48 C 0.5952(11) 0.0488(15) 0.5707(14)
N12 N 0.3342(3) 0.2725(5) 0.4180(6)
C10 C 0.9574(4) 0.0280(6) 0.1346(6)
C12 C 0.8534(4) 0.0052(7) 0.1349(8)
C13 C 0.8450(4) 0.0879(6) 0.1440(7)
H8 H 0.8082 0.1096 0.1498
C14 C 0.8934(4) 0.1401(6) 0.1446(7)
C15 C 0.9477(4) 0.1124(6) 0.1417(6)
H9 H 0.9783 0.1493 0.1445
C18 C 0.9116(5) 0.2860(7) 0.2041(8)
H15 H 0.9407 0.2760 0.2472
C19 C 0.8449(4) 0.2718(6) 0.0986(7)
H16 H 0.8203 0.2480 0.0551
C20 C 0.8893(5) 0.3581(7) 0.1815(8)
H17 H 0.9012 0.4083 0.2071
N4 N 0.8831(3) 0.2289(5) 0.1507(6)
N5 N 0.8471(3) 0.3514(5) 0.1172(6)
Zn4 Zn 0.81144(4) 0.44266(7) 0.04319(10)
C34 C 0.8954(4) 0.0244(6) 0.3837(6)
C35 C 0.9527(4) 0.0375(6) 0.3785(6)
H26 H 0.9686 0.0902 0.3749
C38 C 0.7994(4) 0.0999(7) 0.3869(8)
H32 H 0.7751 0.0558 0.3735
C39 C 0.7846(4) 0.1749(8) 0.4046(8)
H33 H 0.7468 0.1931 0.4084
C40 C 0.8772(4) 0.1750(6) 0.4091(7)
H34 H 0.9157 0.1893 0.4142
N9 N 0.8579(3) 0.0978(5) 0.3918(5)
N10 N 0.8342(3) 0.2275(5) 0.4180(6)
Zn5 Zn 0.83986(4) 0.34538(7) 0.45680(9)
C1 C 0.8072(4) 0.0002(6) 0.5930(6)
C2 C 0.7452(4) 0.0840(6) 0.6435(8)
H2 H 0.7102 0.1077 0.6601
C3 C 0.7960(4) 0.1170(7) 0.6583(8)
H3 H 0.8031 0.1684 0.6853
C4 C 0.8989(4) 0.0759(6) 0.6265(6)
C5 C 0.9354(3) 0.0103(5) 0.6321(6)
C6 C 0.9928(3) 0.0257(5) 0.6316(6)
C8 C 0.9738(4) 0.1705(6) 0.6225(7)
H5 H 0.9878 0.2244 0.6188
C9 C 0.9193(4) 0.1589(6) 0.6217(7)
H6 H 0.8940 0.2033 0.6180
H29 H 0.9686 0.2626 0.0081
N1 N 0.7519(3) 0.0098(5) 0.6000(5)
N2 N 0.8359(3) 0.0632(4) 0.6276(5)
C1_2 C 0.6928(4) 0.5002(6) 0.0930(6)
H1_2 H 0.6756 0.4539 0.0664
C2_2 C 0.7548(4) 0.5840(6) 0.1435(8)
H2_2 H 0.7898 0.6077 0.1601
C3_2 C 0.7040(4) 0.6170(7) 0.1583(8)
H3_2 H 0.6969 0.6684 0.1853
C4_2 C 0.6011(4) 0.5759(6) 0.1265(6)
C5_2 C 0.5646(3) 0.5103(5) 0.1321(6)
H4_2 H 0.5785 0.4564 0.1361
C6_2 C 0.5072(3) 0.5257(5) 0.1316(6)
C7 C 0.4874(4) 0.6059(6) 0.1287(7)
C8_2 C 0.5262(4) 0.6705(6) 0.1225(7)
H5_2 H 0.5122 0.7244 0.1188
C9_2 C 0.5807(4) 0.6589(6) 0.1217(7)
H6_2 H 0.6060 0.7033 0.1180
C10_2 C 0.4574(4) 0.4720(6) 0.1346(6)
C11 C 0.4085(4) 0.5272(6) 0.1336(7)
C12_2 C 0.3534(4) 0.4948(7) 0.1349(8)
H7 H 0.3220 0.5300 0.1295
C13_2 C 0.3450(4) 0.4121(6) 0.1440(7)
H8_2 H 0.3082 0.3904 0.1498
C14_2 C 0.3934(4) 0.3599(6) 0.1446(7)
C15_2 C 0.4477(4) 0.3876(6) 0.1417(6)
H9_2 H 0.4783 0.3507 0.1445
C16 C 0.3918(5) 0.6828(7) 0.1304(10)
H10 H 0.3596 0.6751 0.1725
H11 H 0.4144 0.7290 0.1533
C17 C 0.3689(6) 0.7033(7) 0.0303(13)
H12 H 0.3424 0.6611 0.0110
H13 H 0.3497 0.7559 0.0312
C18_2 C 0.4116(5) 0.2140(7) 0.2041(8)
H15_2 H 0.4407 0.2240 0.2472
C19_2 C 0.3449(4) 0.2282(6) 0.0986(7)
H16_2 H 0.3203 0.2520 0.0551
C20_2 C 0.3893(5) 0.1419(7) 0.1815(8)
H17_2 H 0.4012 0.0917 0.2071
N1_2 N 0.7481(3) 0.5098(5) 0.1000(5)
N2_2 N 0.6641(3) 0.5632(4) 0.1276(5)
N3 N 0.4278(3) 0.6062(5) 0.1299(6)
N4_2 N 0.3831(3) 0.2711(5) 0.1507(6)
O9 O 0.8781(4) 0.5151(7) 0.0054(10)
H14 H 0.4005 0.7055 0.9874
C21_2 C 0.7470(4) 0.3629(7) 0.3136(7)
H18_2 H 0.7609 0.3175 0.2806
C22_2 C 0.6980(4) 0.4000(7) 0.2947(8)
H19_2 H 0.6714 0.3870 0.2485
C23_2 C 0.7427(4) 0.4579(6) 0.4138(7)
H20_2 H 0.7513 0.4925 0.4637
C24 C 0.6480(4) 0.5211(6) 0.3714(7)
C25 C 0.6593(4) 0.6055(7) 0.3768(7)
H21 H 0.6971 0.6242 0.3757
C26 C 0.6147(4) 0.6621(7) 0.3839(7)
H22 H 0.6218 0.7185 0.3906
C27 C 0.5579(4) 0.6309(6) 0.3806(7)
C28 C 0.5472(4) 0.5460(6) 0.3770(7)
C29_2 C 0.5943(4) 0.4918(6) 0.3713(6)
H23_2 H 0.5880 0.4350 0.3673
C30 C 0.4863(4) 0.5347(6) 0.3789(6)
C31 C 0.4635(4) 0.6142(6) 0.3847(7)
C32 C 0.4040(4) 0.6244(7) 0.3865(7)
H24 H 0.3879 0.6770 0.3897
C33 C 0.3692(4) 0.5546(6) 0.3836(7)
H25 H 0.3295 0.5597 0.3817
C34_2 C 0.3954(4) 0.4756(6) 0.3837(6)
C35_2 C 0.4527(4) 0.4625(6) 0.3785(6)
H26_2 H 0.4686 0.4098 0.3749
C36 C 0.4970(6) 0.7620(8) 0.3828(12)
H27 H 0.4588 0.7735 0.3592
H28 H 0.5246 0.7886 0.3419
C37 C 0.5027(8) 0.7937(9) 0.4752(12)
H29_2 H 0.5314 0.7626 0.5081
H30 H 0.5138 0.8509 0.4725
H31 H 0.4666 0.7889 0.5072
C38_2 C 0.2994(4) 0.4001(7) 0.3869(8)
H32_2 H 0.2751 0.4442 0.3735
C39_2 C 0.2846(4) 0.3251(8) 0.4046(8)
H33_2 H 0.2468 0.3069 0.4084
C40_2 C 0.3772(4) 0.3250(6) 0.4091(7)
H34_2 H 0.4157 0.3107 0.4142
C41_2 C 0.7651(6) 0.3462(10) 0.8930(10)
C42_2 C 0.7578(7) 0.3369(10) 0.7904(10)
H35_2 H 0.7246 0.3688 0.7708
H36_2 H 0.7501 0.2791 0.7764
C43_2 C 0.8069(7) 0.3634(11) 0.7377(10)
H37_2 H 0.8204 0.4143 0.7661
H38_2 H 0.8367 0.3223 0.7473
C44_2 C 0.8031(6) 0.3790(17) 0.6322(10)
N6_2 N 0.7746(3) 0.3978(5) 0.3862(6)
N7_2 N 0.6956(3) 0.4640(5) 0.3612(6)
N8 N 0.5071(4) 0.6718(5) 0.3843(6)
N9_2 N 0.3579(3) 0.4022(5) 0.3918(5)
O1_2 O 0.7793(5) 0.4123(7) 0.9254(7)
O2_2 O 0.7559(5) 0.2907(9) 0.9429(11)
O3_2 O 0.8410(5) 0.3407(9) 0.5878(7)
O4_2 O 0.9050(4) 0.4194(7) 0.4302(9)
O5_2 O 0.7596(7) 0.3489(11) 0.6014(12)
O7_2 O 0.9609(4) 0.3174(8) 0.4298(9)
C45_2 C 0.9522(7) 0.3919(10) 0.4294(13)
H39_2 H 0.9901 0.4880 0.4998
O8_2 O 0.8917(9) 0.5574(14) 0.1590(15)
C47_2 C 0.9517(7) 0.6000(13) 0.017(2)
H41_2 H 0.9711 0.6344 0.0624
C48_2 C 0.9048(11) 0.5488(15) 0.0707(14)
C1_3 C 0.1928(4) 0.9998(6) 0.0930(6)
C2_3 C 0.2548(4) 0.9160(6) 0.1435(8)
H2_3 H 0.2898 0.8923 0.1601
C3_3 C 0.2040(4) 0.8830(7) 0.1583(8)
H3_3 H 0.1969 0.8316 0.1853
C4_3 C 0.1011(4) 0.9241(6) 0.1265(6)
C5_3 C 0.0646(3) 0.9897(5) 0.1321(6)
C6_3 C 0.0072(3) 0.9743(5) 0.1316(6)
C8_3 C 0.0262(4) 0.8295(6) 0.1225(7)
H5_3 H 0.0122 0.7756 0.1188
C9_3 C 0.0807(4) 0.8411(6) 0.1217(7)
H6_3 H 0.1060 0.7967 0.1180
N1_3 N 0.2481(3) 0.9902(5) 0.1000(5)
N2_3 N 0.1641(3) 0.9368(4) 0.1276(5)
O9_2 O 0.3781(4) 0.9849(7) 0.0054(10)
C24_2 C 0.1480(4) 0.9789(6) 0.3714(7)
C25_2 C 0.1593(4) 0.8945(7) 0.3768(7)
H21_2 H 0.1971 0.8758 0.3757
C26_2 C 0.1147(4) 0.8379(7) 0.3839(7)
H22_2 H 0.1218 0.7815 0.3906
C27_2 C 0.0579(4) 0.8691(6) 0.3806(7)
C28_2 C 0.0472(4) 0.9540(6) 0.3770(7)
H28_2 H 0.0246 0.7114 0.3419
C37_2 C 0.0027(8) 0.7063(9) 0.4752(12)
H29_3 H 0.0314 0.7374 0.5081
H30_2 H 0.0138 0.6491 0.4725
N8_2 N 0.0071(4) 0.8282(5) 0.3843(6)
Zn3 Zn 0.68856(4) 0.94266(7) 0.54319(10)
C10_3 C 0.0426(4) 0.9720(6) 0.6346(6)
C12_3 C 0.1466(4) 0.9948(7) 0.6349(8)
C13_3 C 0.1550(4) 0.9121(6) 0.6440(7)
H8_3 H 0.1918 0.8904 0.6498
C14_3 C 0.1066(4) 0.8599(6) 0.6446(7)
C15_3 C 0.0523(4) 0.8876(6) 0.6417(6)
H9_3 H 0.0217 0.8507 0.6445
C18_3 C 0.0884(5) 0.7140(7) 0.7041(8)
H15_3 H 0.0593 0.7240 0.7472
C19_3 C 0.1551(4) 0.7282(6) 0.5986(7)
H16_3 H 0.1797 0.7520 0.5551
C20_3 C 0.1107(5) 0.6419(7) 0.6815(8)
H17_3 H 0.0988 0.5917 0.7071
N4_3 N 0.1169(3) 0.7711(5) 0.6507(6)
N5_2 N 0.1529(3) 0.6486(5) 0.6172(6)
Zn4_2 Zn 0.18856(4) 0.55734(7) 0.54319(10)
H1_3 H 0.8244 0.9539 0.5664
H4_3 H 0.9215 0.9564 0.6361
C41_3 C 0.7349(6) 0.8462(10) 0.3930(10)
C42_3 C 0.7422(7) 0.8369(10) 0.2904(10)
H35_3 H 0.7754 0.8688 0.2708
H36_3 H 0.7499 0.7791 0.2764
C43_3 C 0.6931(7) 0.8634(11) 0.2377(10)
H37_3 H 0.6796 0.9143 0.2661
H38_3 H 0.6633 0.8223 0.2473
C44_3 C 0.6969(6) 0.8790(17) 0.1322(10)
O1_3 O 0.7207(5) 0.9123(7) 0.4254(7)
O2_3 O 0.7441(5) 0.7907(9) 0.4429(11)
O3_3 O 0.6590(5) 0.8407(9) 0.0878(7)
O5_3 O 0.7404(7) 0.8489(11) 0.1014(12)
O8_3 O 0.3917(9) 0.9426(14) 0.1590(15)
C47_3 C 0.4517(7) 0.9000(13) 0.017(2)
H41_3 H 0.4711 0.8656 0.0624
C48_3 C 0.4048(11) 0.9512(15) 0.0707(14)
N11_2 N 0.6529(3) 0.8514(5) 0.6172(6)
O6_2 O 0.1219(4) 0.4849(7) 0.5054(10)
C46_2 C 0.0043(6) 0.4422(9) 0.4626(19)
H40_2 H 0.0226 0.4658 0.4079
O8_4 O 0.1083(9) 0.4426(14) 0.6590(15)
C47_4 C 0.0483(7) 0.4000(13) 0.517(2)
H41_4 H 0.0289 0.3656 0.5624
H42_2 H 0.0683 0.3629 0.4747
C48_4 C 0.0952(11) 0.4512(15) 0.5707(14)
C1_4 C 0.3072(4) 0.4998(6) 0.5930(6)
H1_4 H 0.3244 0.5461 0.5664
C2_4 C 0.2452(4) 0.4160(6) 0.6435(8)
H2_4 H 0.2102 0.3923 0.6601
C3_4 C 0.2960(4) 0.3830(7) 0.6583(8)
H3_4 H 0.3031 0.3316 0.6853
C4_4 C 0.3989(4) 0.4241(6) 0.6265(6)
C5_4 C 0.4354(3) 0.4897(5) 0.6321(6)
H4_4 H 0.4215 0.5436 0.6361
C6_4 C 0.4928(3) 0.4743(5) 0.6316(6)
C7_2 C 0.5126(4) 0.3941(6) 0.6287(7)
C8_4 C 0.4738(4) 0.3295(6) 0.6225(7)
H5_4 H 0.4878 0.2756 0.6188
C9_4 C 0.4193(4) 0.3411(6) 0.6217(7)
H6_4 H 0.3940 0.2967 0.6180
C10_4 C 0.5426(4) 0.5280(6) 0.6346(6)
C11_2 C 0.5915(4) 0.4728(6) 0.6336(7)
C12_4 C 0.6466(4) 0.5052(7) 0.6349(8)
H7_2 H 0.6780 0.4700 0.6295
C13_4 C 0.6550(4) 0.5879(6) 0.6440(7)
H8_4 H 0.6918 0.6096 0.6498
C14_4 C 0.6066(4) 0.6401(6) 0.6446(7)
C15_4 C 0.5523(4) 0.6124(6) 0.6417(6)
H9_4 H 0.5217 0.6493 0.6445
C16_2 C 0.6082(5) 0.3172(7) 0.6304(10)
H10_2 H 0.6404 0.3249 0.6725
H11_2 H 0.5856 0.2710 0.6533
C17_2 C 0.6311(6) 0.2967(7) 0.5303(13)
H12_2 H 0.6576 0.3389 0.5110
H13_2 H 0.6503 0.2441 0.5312
H14_2 H 0.5995 0.2945 0.4874
C18_4 C 0.5884(5) 0.7860(7) 0.7041(8)
H15_4 H 0.5593 0.7760 0.7472
C19_4 C 0.6551(4) 0.7718(6) 0.5986(7)
H16_4 H 0.6797 0.7480 0.5551
C20_4 C 0.6107(5) 0.8581(7) 0.6815(8)
H17_4 H 0.5988 0.9083 0.7071
H29_4 H 0.4686 0.2374 0.0081
H31_2 H 0.5334 0.2111 0.0072
C41_4 C 0.2349(6) 0.6538(10) 0.3930(10)
C42_4 C 0.2422(7) 0.6631(10) 0.2904(10)
H35_4 H 0.2754 0.6312 0.2708
H36_4 H 0.2499 0.7209 0.2764
C43_4 C 0.1931(7) 0.6366(11) 0.2377(10)
H37_4 H 0.1796 0.5857 0.2661
H38_4 H 0.1633 0.6777 0.2473
C44_4 C 0.1969(6) 0.6210(17) 0.1322(10)
N1_4 N 0.2519(3) 0.4902(5) 0.6000(5)
N2_4 N 0.3359(3) 0.4368(4) 0.6276(5)
N3_2 N 0.5722(3) 0.3938(5) 0.6299(6)
N4_4 N 0.6169(3) 0.7289(5) 0.6507(6)
O1_4 O 0.2207(5) 0.5877(7) 0.4254(7)
O2_4 O 0.2441(5) 0.7093(9) 0.4429(11)
O3_4 O 0.1590(5) 0.6593(9) 0.0878(7)
O5_4 O 0.2404(7) 0.6511(11) 0.1014(12)
C7_3 C 0.9874(4) 0.8941(6) 0.1287(7)
C11_3 C 0.9085(4) 0.9728(6) 0.1336(7)
H7_3 H 0.8220 0.9700 0.1295
C16_3 C 0.8918(5) 0.8172(7) 0.1304(10)
H10_3 H 0.8596 0.8249 0.1725
H11_3 H 0.9144 0.7710 0.1533
C17_3 C 0.8689(6) 0.7967(7) 0.0303(13)
H12_3 H 0.8424 0.8389 0.0110
H13_3 H 0.8497 0.7441 0.0312
N3_3 N 0.9278(3) 0.8938(5) 0.1299(6)
H14_3 H 0.9005 0.7945 0.9874
C30_2 C 0.9863(4) 0.9653(6) 0.3789(6)
C31_2 C 0.9635(4) 0.8858(6) 0.3847(7)
C32_2 C 0.9040(4) 0.8756(7) 0.3865(7)
H24_2 H 0.8879 0.8230 0.3897
C33_2 C 0.8692(4) 0.9454(6) 0.3836(7)
H25_2 H 0.8295 0.9403 0.3817
C36_2 C 0.9970(6) 0.7380(8) 0.3828(12)
H27_2 H 0.9588 0.7265 0.3592
H31_3 H 0.9666 0.7111 0.5072
C7_4 C 0.0126(4) 0.1059(6) 0.6287(7)
C11_4 C 0.0915(4) 0.0272(6) 0.6336(7)
H7_4 H 0.1780 0.0300 0.6295
C16_4 C 0.1082(5) 0.1828(7) 0.6304(10)
H10_4 H 0.1404 0.1751 0.6725
H11_4 H 0.0856 0.2290 0.6533
C17_4 C 0.1311(6) 0.2033(7) 0.5303(13)
H12_4 H 0.1576 0.1611 0.5110
H13_4 H 0.1503 0.2559 0.5312
H14_4 H 0.0995 0.2055 0.4874
H31_4 H 0.0334 0.2889 0.0072
N3_4 N 0.0722(3) 0.1062(5) 0.6299(6)
C30_3 C 0.0137(4) 0.0347(6) 0.8789(6)
C31_3 C 0.0365(4) 0.1142(6) 0.8847(7)
C32_3 C 0.0960(4) 0.1244(7) 0.8865(7)
H24_3 H 0.1121 0.1770 0.8897
C33_3 C 0.1308(4) 0.0546(6) 0.8836(7)
H25_3 H 0.1705 0.0597 0.8817
C36_3 C 0.0030(6) 0.2620(8) 0.8828(12)
H27_3 H 0.0412 0.2735 0.8592
C34_3 C 0.1046(4) 0.9756(6) 0.8837(6)
C35_3 C 0.0473(4) 0.9625(6) 0.8785(6)
H26_3 H 0.0314 0.9098 0.8749
C38_3 C 0.2006(4) 0.9001(7) 0.8869(8)
H32_3 H 0.2249 0.9442 0.8735
C39_3 C 0.2154(4) 0.8251(8) 0.9046(8)
H33_3 H 0.2532 0.8069 0.9084
C40_3 C 0.1228(4) 0.8250(6) 0.9091(7)
H34_3 H 0.0843 0.8107 0.9142
N9_3 N 0.1421(3) 0.9022(5) 0.8918(5)
N10_2 N 0.1658(3) 0.7725(5) 0.9180(6)
Zn5_2 Zn 0.16014(4) 0.65462(7) 0.95680(9)
Zn2_2 Zn 0.66014(4) 0.84538(7) 0.95680(9)
C21_3 C 0.7530(4) 0.8629(7) 0.8136(7)
H18_3 H 0.7391 0.8175 0.7806
C22_3 C 0.8020(4) 0.9000(7) 0.7947(8)
H19_3 H 0.8286 0.8870 0.7485
C23_3 C 0.7573(4) 0.9579(6) 0.9138(7)
H20_3 H 0.7487 0.9925 0.9637
C29_3 C 0.9057(4) 0.9918(6) 0.8713(6)
H23_3 H 0.9120 0.9350 0.8673
N6_3 N 0.7254(3) 0.8978(5) 0.8862(6)
N7_3 N 0.8044(3) 0.9640(5) 0.8612(6)
O4_3 O 0.5950(4) 0.9194(7) 0.9302(9)
O7_3 O 0.5391(4) 0.8174(8) 0.9298(9)
C45_3 C 0.5478(7) 0.8919(10) 0.9294(13)
C46_3 C 0.4957(6) 0.9422(9) 0.9626(19)
H39_3 H 0.5099 0.9880 0.9998
H40_3 H 0.4774 0.9658 0.9079
H42_3 H 0.4317 0.8629 0.9747
N12_2 N 0.6658(3) 0.7275(5) 0.9180(6)
C21_4 C 0.2530(4) 0.6371(7) 0.8136(7)
H18_4 H 0.2391 0.6825 0.7806
C22_4 C 0.3020(4) 0.6000(7) 0.7947(8)
H19_4 H 0.3286 0.6130 0.7485
C23_4 C 0.2573(4) 0.5421(6) 0.9138(7)
H20_4 H 0.2487 0.5075 0.9637
C24_3 C 0.3520(4) 0.4789(6) 0.8714(7)
C25_3 C 0.3407(4) 0.3945(7) 0.8768(7)
H21_3 H 0.3029 0.3758 0.8757
C26_3 C 0.3853(4) 0.3379(7) 0.8839(7)
H22_3 H 0.3782 0.2815 0.8906
C27_3 C 0.4421(4) 0.3691(6) 0.8806(7)
C28_3 C 0.4528(4) 0.4540(6) 0.8770(7)
C29_4 C 0.4057(4) 0.5082(6) 0.8713(6)
H23_4 H 0.4120 0.5650 0.8673
C30_4 C 0.5137(4) 0.4653(6) 0.8789(6)
C31_4 C 0.5365(4) 0.3858(6) 0.8847(7)
C32_4 C 0.5960(4) 0.3756(7) 0.8865(7)
H24_4 H 0.6121 0.3230 0.8897
C33_4 C 0.6308(4) 0.4454(6) 0.8836(7)
H25_4 H 0.6705 0.4403 0.8817
C34_4 C 0.6046(4) 0.5244(6) 0.8837(6)
C35_4 C 0.5473(4) 0.5375(6) 0.8785(6)
H26_4 H 0.5314 0.5902 0.8749
C36_4 C 0.5030(6) 0.2380(8) 0.8828(12)
H27_4 H 0.5412 0.2265 0.8592
H28_3 H 0.4754 0.2114 0.8419
C37_3 C 0.4973(8) 0.2063(9) 0.9752(12)
H30_3 H 0.4862 0.1491 0.9725
C38_4 C 0.7006(4) 0.5999(7) 0.8869(8)
H32_4 H 0.7249 0.5558 0.8735
C39_4 C 0.7154(4) 0.6749(8) 0.9046(8)
H33_4 H 0.7532 0.6931 0.9084
C40_4 C 0.6228(4) 0.6750(6) 0.9091(7)
H34_4 H 0.5843 0.6893 0.9142
N6_4 N 0.2254(3) 0.6022(5) 0.8862(6)
N7_4 N 0.3044(3) 0.5360(5) 0.8612(6)
N8_3 N 0.4929(4) 0.3282(5) 0.8843(6)
N9_4 N 0.6421(3) 0.5978(5) 0.8918(5)
O4_4 O 0.0950(4) 0.5806(7) 0.9302(9)
O7_4 O 0.0391(4) 0.6826(8) 0.9298(9)
C45_4 C 0.0478(7) 0.6081(10) 0.9294(13)
H39_4 H 0.0099 0.5120 0.9998
C24_4 C 0.8520(4) 0.0211(6) 0.8714(7)
C25_4 C 0.8407(4) 0.1055(7) 0.8768(7)
H21_4 H 0.8029 0.1242 0.8757
C26_4 C 0.8853(4) 0.1621(7) 0.8839(7)
H22_4 H 0.8782 0.2185 0.8906
C27_4 C 0.9421(4) 0.1309(6) 0.8806(7)
C28_4 C 0.9528(4) 0.0460(6) 0.8770(7)
H28_4 H 0.9754 0.2886 0.8419
C37_4 C 0.9973(8) 0.2937(9) 0.9752(12)
H30_4 H 0.9862 0.3509 0.9725
N8_4 N 0.9929(4) 0.1718(5) 0.8843(6)
C46_4 C 0.9957(6) 0.5578(9) 0.9626(19)
H40_4 H 0.9774 0.5342 0.9079
H42_4 H 0.9317 0.6371 0.9747
loop_
_geom_bond_atom_site_label_1
_geom_bond_atom_site_label_2
_geom_bond_site_symmetry_1
_geom_bond_site_symmetry_2
N11 Zn1 1_555 1_555
Zn2 N6 1_555 1_555
C21 H18 1_555 1_555
C22 C21 1_555 1_555
H19 C22 1_555 1_555
C23 H20 1_555 1_555
H23 C29 1_555 1_555
C41 C42 1_555 1_555
C42 H35 1_555 1_555
H36 C42 1_555 1_555
C43 C42 1_555 1_555
H37 C43 1_555 1_555
H38 C43 1_555 1_555
C44 C43 1_555 1_555
N6 C21 1_555 1_555
N7 C22 1_555 1_555
O2 C41 1_555 1_555
O3 Zn2 1_555 1_555
O4 Zn2 1_555 1_555
O5 C44 1_555 1_555
O6 C48 1_555 1_555
O7 C45 1_555 1_555
C45 O4 1_555 1_555
C46 C45 1_555 1_555
H39 C46 1_555 1_555
H40 C46 1_555 1_555
O8 C48 1_555 1_555
C47 C46 1_555 1_555
H41 C47 1_555 1_555
H42 C47 1_555 1_555
C48 C47 1_555 1_555
N12 Zn2 1_555 1_555
C23 N6 1_555 1_555
C23 N7 1_555 1_555
C41 O1 1_555 1_555
C44 O3 1_555 1_555
C13 C12 1_555 1_555
H8 C13 1_555 1_555
C14 C13 1_555 1_555
C15 C10 1_555 1_555
H9 C15 1_555 1_555
C18 H15 1_555 1_555
C19 H16 1_555 1_555
C20 C18 1_555 1_555
H17 C20 1_555 1_555
N4 C14 1_555 1_555
N5 C19 1_555 1_555
Zn4 N5 1_555 1_555
C14 C15 1_555 1_555
C18 N4 1_555 1_555
C19 N4 1_555 1_555
C20 N5 1_555 1_555
H26 C35 1_555 1_555
C38 H32 1_555 1_555
C39 C38 1_555 1_555
H33 C39 1_555 1_555
C40 H34 1_555 1_555
N9 C34 1_555 1_555
N10 C39 1_555 1_555
Zn5 N10 1_555 1_555
C34 C35 1_555 1_555
C38 N9 1_555 1_555
C40 N9 1_555 1_555
C40 N10 1_555 1_555
C2 H2 1_555 1_555
C3 C2 1_555 1_555
H3 C3 1_555 1_555
C4 C5 1_555 1_555
C6 C5 1_555 1_555
H5 C8 1_555 1_555
C9 C4 1_555 1_555
H6 C9 1_555 1_555
N1 C1 1_555 1_555
N2 C1 1_555 1_555
C2 N1 1_555 1_555
C3 N2 1_555 1_555
C4 N2 1_555 1_555
C8 C9 1_555 1_555
Zn4 N1_2 1_555 1_555
C1_2 H1_2 1_555 1_555
C2_2 H2_2 1_555 1_555
C3_2 C2_2 1_555 1_555
H3_2 C3_2 1_555 1_555
C4_2 C5_2 1_555 1_555
C5_2 H4_2 1_555 1_555
C6_2 C5_2 1_555 1_555
C7 C6_2 1_555 1_555
C8_2 C7 1_555 1_555
H5_2 C8_2 1_555 1_555
C9_2 C4_2 1_555 1_555
H6_2 C9_2 1_555 1_555
C10_2 C6_2 1_555 1_555
C11 C10_2 1_555 1_555
C12_2 C11 1_555 1_555
H7 C12_2 1_555 1_555
C13_2 C12_2 1_555 1_555
H8_2 C13_2 1_555 1_555
C14_2 C13_2 1_555 1_555
C15_2 C10_2 1_555 1_555
H9_2 C15_2 1_555 1_555
C16 H10 1_555 1_555
H11 C16 1_555 1_555
C17 C16 1_555 1_555
H12 C17 1_555 1_555
H13 C17 1_555 1_555
C18_2 H15_2 1_555 1_555
C19_2 H16_2 1_555 1_555
C20_2 C18_2 1_555 1_555
H17_2 C20_2 1_555 1_555
N1_2 C1_2 1_555 1_555
N2_2 C1_2 1_555 1_555
N3 C7 1_555 1_555
N4_2 C14_2 1_555 1_555
N11 C19_2 1_555 1_555
O9 Zn4 1_555 1_555
C2_2 N1_2 1_555 1_555
C3_2 N2_2 1_555 1_555
C4_2 N2_2 1_555 1_555
C8_2 C9_2 1_555 1_555
C11 N3 1_555 1_555
C14_2 C15_2 1_555 1_555
C16 N3 1_555 1_555
C18_2 N4_2 1_555 1_555
C19_2 N4_2 1_555 1_555
C20_2 N11 1_555 1_555
Zn5 N6_2 1_555 1_555
C21_2 H18_2 1_555 1_555
C22_2 C21_2 1_555 1_555
H19_2 C22_2 1_555 1_555
C23_2 H20_2 1_555 1_555
C24 C25 1_555 1_555
C25 H21 1_555 1_555
C26 C25 1_555 1_555
H22 C26 1_555 1_555
C27 C26 1_555 1_555
C28 C27 1_555 1_555
C29_2 C24 1_555 1_555
H23_2 C29_2 1_555 1_555
C30 C28 1_555 1_555
C31 C30 1_555 1_555
C32 C31 1_555 1_555
H24 C32 1_555 1_555
C33 C32 1_555 1_555
H25 C33 1_555 1_555
C34_2 C33 1_555 1_555
C35_2 C30 1_555 1_555
H26_2 C35_2 1_555 1_555
C36 H27 1_555 1_555
H28 C36 1_555 1_555
C37 C36 1_555 1_555
H29_2 C37 1_555 1_555
H30 C37 1_555 1_555
H31 C37 1_555 1_555
C38_2 H32_2 1_555 1_555
C39_2 C38_2 1_555 1_555
H33_2 C39_2 1_555 1_555
C40_2 H34_2 1_555 1_555
C41_2 C42_2 1_555 1_555
C42_2 H35_2 1_555 1_555
H36_2 C42_2 1_555 1_555
C43_2 C42_2 1_555 1_555
H37_2 C43_2 1_555 1_555
H38_2 C43_2 1_555 1_555
C44_2 C43_2 1_555 1_555
N6_2 C21_2 1_555 1_555
N7_2 C22_2 1_555 1_555
N8 C27 1_555 1_555
N9_2 C34_2 1_555 1_555
N12 C39_2 1_555 1_555
O2_2 C41_2 1_555 1_555
O3_2 Zn5 1_555 1_555
O4_2 Zn5 1_555 1_555
O5_2 C44_2 1_555 1_555
O7_2 C45_2 1_555 1_555
C45_2 O4_2 1_555 1_555
C23_2 N6_2 1_555 1_555
C23_2 N7_2 1_555 1_555
C24 N7_2 1_555 1_555
C28 C29_2 1_555 1_555
C31 N8 1_555 1_555
C34_2 C35_2 1_555 1_555
C36 N8 1_555 1_555
C38_2 N9_2 1_555 1_555
C40_2 N9_2 1_555 1_555
C40_2 N12 1_555 1_555
C41_2 O1_2 1_555 1_555
C44_2 O3_2 1_555 1_555
O9 C48_2 1_555 1_555
O8_2 C48_2 1_555 1_555
H41_2 C47_2 1_555 1_555
C48_2 C47_2 1_555 1_555
C2_3 H2_3 1_555 1_555
C3_3 C2_3 1_555 1_555
H3_3 C3_3 1_555 1_555
C4_3 C5_3 1_555 1_555
C6_3 C5_3 1_555 1_555
H5_3 C8_3 1_555 1_555
C9_3 C4_3 1_555 1_555
H6_3 C9_3 1_555 1_555
N1_3 C1_3 1_555 1_555
N2_3 C1_3 1_555 1_555
C2_3 N1_3 1_555 1_555
C3_3 N2_3 1_555 1_555
C4_3 N2_3 1_555 1_555
C8_3 C9_3 1_555 1_555
C24_2 C25_2 1_555 1_555
C25_2 H21_2 1_555 1_555
C26_2 C25_2 1_555 1_555
H22_2 C26_2 1_555 1_555
C27_2 C26_2 1_555 1_555
C28_2 C27_2 1_555 1_555
H29_3 C37_2 1_555 1_555
H30_2 C37_2 1_555 1_555
N8_2 C27_2 1_555 1_555
C13_3 C12_3 1_555 1_555
H8_3 C13_3 1_555 1_555
C14_3 C13_3 1_555 1_555
C15_3 C10_3 1_555 1_555
H9_3 C15_3 1_555 1_555
C18_3 H15_3 1_555 1_555
C19_3 H16_3 1_555 1_555
C20_3 C18_3 1_555 1_555
H17_3 C20_3 1_555 1_555
N4_3 C14_3 1_555 1_555
N5_2 C19_3 1_555 1_555
Zn4_2 N5_2 1_555 1_555
C14_3 C15_3 1_555 1_555
C18_3 N4_3 1_555 1_555
C19_3 N4_3 1_555 1_555
C20_3 N5_2 1_555 1_555
C41_3 C42_3 1_555 1_555
C42_3 H35_3 1_555 1_555
H36_3 C42_3 1_555 1_555
C43_3 C42_3 1_555 1_555
H37_3 C43_3 1_555 1_555
H38_3 C43_3 1_555 1_555
C44_3 C43_3 1_555 1_555
O1_3 Zn3 1_555 1_555
O2_3 C41_3 1_555 1_555
O5_3 C44_3 1_555 1_555
O9_2 C48_3 1_555 1_555
O8_3 C48_3 1_555 1_555
H41_3 C47_3 1_555 1_555
C48_3 C47_3 1_555 1_555
N11_2 Zn3 1_555 1_555
C41_3 O1_3 1_555 1_555
C44_3 O3_3 1_555 1_555
O6_2 C48_4 1_555 1_555
H40_2 C46_2 1_555 1_555
O8_4 C48_4 1_555 1_555
C47_4 C46_2 1_555 1_555
H41_4 C47_4 1_555 1_555
H42_2 C47_4 1_555 1_555
C48_4 C47_4 1_555 1_555
Zn4_2 O6_2 1_555 1_555
Zn4_2 N1_4 1_555 1_555
C1_4 H1_4 1_555 1_555
C2_4 H2_4 1_555 1_555
C3_4 C2_4 1_555 1_555
H3_4 C3_4 1_555 1_555
C4_4 C5_4 1_555 1_555
C5_4 H4_4 1_555 1_555
C6_4 C5_4 1_555 1_555
C7_2 C6_4 1_555 1_555
C8_4 C7_2 1_555 1_555
H5_4 C8_4 1_555 1_555
C9_4 C4_4 1_555 1_555
H6_4 C9_4 1_555 1_555
C10_4 C6_4 1_555 1_555
C11_2 C10_4 1_555 1_555
C12_4 C11_2 1_555 1_555
H7_2 C12_4 1_555 1_555
C13_4 C12_4 1_555 1_555
H8_4 C13_4 1_555 1_555
C14_4 C13_4 1_555 1_555
C15_4 C10_4 1_555 1_555
H9_4 C15_4 1_555 1_555
C16_2 H10_2 1_555 1_555
H11_2 C16_2 1_555 1_555
C17_2 C16_2 1_555 1_555
H12_2 C17_2 1_555 1_555
H13_2 C17_2 1_555 1_555
H14_2 C17_2 1_555 1_555
C18_4 H15_4 1_555 1_555
C19_4 H16_4 1_555 1_555
C20_4 C18_4 1_555 1_555
H17_4 C20_4 1_555 1_555
C41_4 C42_4 1_555 1_555
C42_4 H35_4 1_555 1_555
H36_4 C42_4 1_555 1_555
C43_4 C42_4 1_555 1_555
H37_4 C43_4 1_555 1_555
H38_4 C43_4 1_555 1_555
C44_4 C43_4 1_555 1_555
N1_4 C1_4 1_555 1_555
N2_4 C1_4 1_555 1_555
N3_2 C7_2 1_555 1_555
N4_4 C14_4 1_555 1_555
N11_2 C19_4 1_555 1_555
O1_4 Zn4_2 1_555 1_555
O2_4 C41_4 1_555 1_555
O5_4 C44_4 1_555 1_555
C2_4 N1_4 1_555 1_555
C3_4 N2_4 1_555 1_555
C4_4 N2_4 1_555 1_555
C8_4 C9_4 1_555 1_555
C11_2 N3_2 1_555 1_555
C14_4 C15_4 1_555 1_555
C16_2 N3_2 1_555 1_555
C18_4 N4_4 1_555 1_555
C19_4 N4_4 1_555 1_555
C20_4 N11_2 1_555 1_555
C41_4 O1_4 1_555 1_555
C44_4 O3_4 1_555 1_555
C16_3 H10_3 1_555 1_555
H11_3 C16_3 1_555 1_555
C17_3 C16_3 1_555 1_555
H12_3 C17_3 1_555 1_555
H13_3 C17_3 1_555 1_555
N3_3 C7_3 1_555 1_555
C11_3 N3_3 1_555 1_555
C16_3 N3_3 1_555 1_555
C31_2 C30_2 1_555 1_555
C32_2 C31_2 1_555 1_555
H24_2 C32_2 1_555 1_555
C33_2 C32_2 1_555 1_555
H25_2 C33_2 1_555 1_555
C36_2 H27_2 1_555 1_555
C16_4 H10_4 1_555 1_555
H11_4 C16_4 1_555 1_555
C17_4 C16_4 1_555 1_555
H12_4 C17_4 1_555 1_555
H13_4 C17_4 1_555 1_555
H14_4 C17_4 1_555 1_555
N3_4 C7_4 1_555 1_555
C11_4 N3_4 1_555 1_555
C16_4 N3_4 1_555 1_555
C31_3 C30_3 1_555 1_555
C32_3 C31_3 1_555 1_555
H24_3 C32_3 1_555 1_555
C33_3 C32_3 1_555 1_555
H25_3 C33_3 1_555 1_555
C36_3 H27_3 1_555 1_555
H26_3 C35_3 1_555 1_555
C38_3 H32_3 1_555 1_555
C39_3 C38_3 1_555 1_555
H33_3 C39_3 1_555 1_555
C40_3 H34_3 1_555 1_555
N9_3 C34_3 1_555 1_555
N10_2 C39_3 1_555 1_555
Zn5_2 N10_2 1_555 1_555
C34_3 C35_3 1_555 1_555
C38_3 N9_3 1_555 1_555
C40_3 N9_3 1_555 1_555
C40_3 N10_2 1_555 1_555
Zn2_2 N6_3 1_555 1_555
C21_3 H18_3 1_555 1_555
C22_3 C21_3 1_555 1_555
H19_3 C22_3 1_555 1_555
C23_3 H20_3 1_555 1_555
H23_3 C29_3 1_555 1_555
N6_3 C21_3 1_555 1_555
N7_3 C22_3 1_555 1_555
O4_3 Zn2_2 1_555 1_555
O7_3 C45_3 1_555 1_555
C45_3 O4_3 1_555 1_555
C46_3 C45_3 1_555 1_555
H39_3 C46_3 1_555 1_555
H40_3 C46_3 1_555 1_555
N12_2 Zn2_2 1_555 1_555
C23_3 N6_3 1_555 1_555
C23_3 N7_3 1_555 1_555
Zn5_2 N6_4 1_555 1_555
C21_4 H18_4 1_555 1_555
C22_4 C21_4 1_555 1_555
H19_4 C22_4 1_555 1_555
C23_4 H20_4 1_555 1_555
C24_3 C25_3 1_555 1_555
C25_3 H21_3 1_555 1_555
C26_3 C25_3 1_555 1_555
H22_3 C26_3 1_555 1_555
C27_3 C26_3 1_555 1_555
C28_3 C27_3 1_555 1_555
C29_4 C24_3 1_555 1_555
H23_4 C29_4 1_555 1_555
C30_4 C28_3 1_555 1_555
C31_4 C30_4 1_555 1_555
C32_4 C31_4 1_555 1_555
H24_4 C32_4 1_555 1_555
C33_4 C32_4 1_555 1_555
H25_4 C33_4 1_555 1_555
C34_4 C33_4 1_555 1_555
C35_4 C30_4 1_555 1_555
H26_4 C35_4 1_555 1_555
C36_4 H27_4 1_555 1_555
H28_3 C36_4 1_555 1_555
C37_3 C36_4 1_555 1_555
H30_3 C37_3 1_555 1_555
C38_4 H32_4 1_555 1_555
C39_4 C38_4 1_555 1_555
H33_4 C39_4 1_555 1_555
C40_4 H34_4 1_555 1_555
N6_4 C21_4 1_555 1_555
N7_4 C22_4 1_555 1_555
N8_3 C27_3 1_555 1_555
N9_4 C34_4 1_555 1_555
N12_2 C39_4 1_555 1_555
O4_4 Zn5_2 1_555 1_555
O7_4 C45_4 1_555 1_555
C45_4 O4_4 1_555 1_555
C23_4 N6_4 1_555 1_555
C23_4 N7_4 1_555 1_555
C24_3 N7_4 1_555 1_555
C28_3 C29_4 1_555 1_555
C31_4 N8_3 1_555 1_555
C34_4 C35_4 1_555 1_555
C36_4 N8_3 1_555 1_555
C38_4 N9_4 1_555 1_555
C40_4 N9_4 1_555 1_555
C40_4 N12_2 1_555 1_555
C24_4 C25_4 1_555 1_555
C25_4 H21_4 1_555 1_555
C26_4 C25_4 1_555 1_555
H22_4 C26_4 1_555 1_555
C27_4 C26_4 1_555 1_555
C28_4 C27_4 1_555 1_555
H30_4 C37_4 1_555 1_555
N8_4 C27_4 1_555 1_555
H40_4 C46_4 1_555 1_555

#END
