
###############################################################################
#
# This file contains modified crystal structure data generated from the
# MOF subset of the Cambridge Structural Database (CSD) v543 
# hosted by the Cambridge Crystallographic Data Centre (CCDC).
#
# This work is licensed under the Creative Commons
# Attribution-NonCommercial-ShareAlike 4.0 International License.
# To view a copy of this license, visit
# http://creativecommons.org/licenses/by-nc-sa/4.0/
# or send a letter to
# Creative Commons, PO Box 1866, Mountain View, CA 94042, USA.
#
# CIF created using the CSD Python API on 29 September 2022
# The structure has been converted into the P1 space group
# The structure has a 3D framework
# The original CSD entry MUWQEB is in the cubic crystal system
# The framework has been calculated to contain at least 10.0% void space
# The void calculation uses a probe of radius 1.32A, grid spacing 0.4
# The framework is charged, counterions have been retained in the structure
# H atom positions have been added when not included in the experimental data
# Generated hydrogen atom positions removed from atoms on special positions
#
###############################################################################

data_MUWQEB
_chemical_formula_moiety         '(C72 H168 Cl12 Fe24 N96 O24 30-)n'
_symmetry_cell_setting           triclinic
_symmetry_space_group_name_H-M   'P 1'
_symmetry_Int_Tables_number      1
_space_group_name_Hall           'P 1'
loop_
_symmetry_equiv_pos_site_id
_symmetry_equiv_pos_as_xyz
1 x,y,z
_cell_length_a                   18.8235(11)
_cell_length_b                   18.8235(11)
_cell_length_c                   18.8235(11)
_cell_angle_alpha                90
_cell_angle_beta                 90
_cell_angle_gamma                90
_cell_volume                     6669.62
loop_
_atom_site_label
_atom_site_type_symbol
_atom_site_fract_x
_atom_site_fract_y
_atom_site_fract_z
Cl1 Cl -0.0000 0.0000 0.5000
Fe2 Fe 0.14071(3) 0.0000 0.5000
Fe8 Fe -0.0000 0.14071(3) 0.5000
Fe9 Fe 0.5000 0.0000 0.14071(3)
N14 N 0.13083(8) 0.08129(8) 0.42169(8)
N15 N 0.08129(8) 0.13083(8) 0.42169(8)
N18 N 0.13083(8) 0.08129(8) 0.57831(8)
N19 N 0.08129(8) 0.13083(8) 0.57831(8)
O2 O 0.24980(17) 0.0000 0.5000
O4 O -0.0000 0.24980(17) 0.5000
Cl1_2 Cl -0.0000 1.0000 0.5000
Fe2_2 Fe 0.14071(3) 1.0000 0.5000
Fe3 Fe -0.0000 0.85929(3) 0.5000
Fe6 Fe -0.0000 0.5000 0.14071(3)
Fe9_2 Fe 0.5000 1.0000 0.14071(3)
Fe10 Fe 0.5000 0.85929(3) 0.0000
Fe11 Fe 0.14071(3) 0.5000 0.0000
N16 N 0.13083(8) 0.91871(8) 0.57831(8)
N17 N 0.08129(8) 0.86917(8) 0.57831(8)
N20 N 0.13083(8) 0.91871(8) 0.42169(8)
N21 N 0.08129(8) 0.86917(8) 0.42169(8)
N22 N 0.42169(8) 0.86917(8) 0.08129(8)
N23 N 0.42169(8) 0.91871(8) 0.13083(8)
N24 N 0.08129(8) 0.57831(8) 0.13083(8)
N25 N 0.13083(8) 0.57831(8) 0.08129(8)
O2_2 O 0.24980(17) 1.0000 0.5000
O3 O -0.0000 0.75020(17) 0.5000
N31 N 0.17458(8) 0.90875(8) 0.36667(8)
N32 N 0.09125(8) 0.82542(8) 0.36667(8)
N33 N 0.36667(8) 0.82542(8) 0.09125(8)
N34 N 0.36667(8) 0.90875(8) 0.17458(8)
N35 N 0.09125(8) 0.63333(8) 0.17458(8)
N36 N 0.17458(8) 0.63333(8) 0.09125(8)
C6 C 0.14956(15) 0.75969(12) 0.24031(12)
C7 C 0.24031(12) 0.75969(12) 0.14956(15)
C8 C 0.24031(12) 0.85044(15) 0.24031(12)
H4 H 0.1081 0.7393 0.2607
H5 H 0.2607 0.7393 0.1081
H6 H 0.2607 0.8919 0.2607
C11 C 0.14881(11) 0.85119(11) 0.33428(16)
C12 C 0.33428(16) 0.85119(11) 0.14881(11)
C13 C 0.14881(11) 0.66572(16) 0.14881(11)
C16 C 0.18003(12) 0.81997(12) 0.27058(16)
C17 C 0.18003(12) 0.72942(16) 0.18003(12)
C18 C 0.27058(16) 0.81997(12) 0.18003(12)
Fe10_2 Fe 0.5000 0.85929(3) 1.0000
Fe11_2 Fe 0.14071(3) 0.5000 1.0000
Fe1 Fe 0.85929(3) 0.0000 0.5000
Cl1_3 Cl 1.0000 0.0000 0.5000
O1 O 0.75020(17) 0.0000 0.5000
Fe8_2 Fe 1.0000 0.14071(3) 0.5000
N8 N 0.86917(8) 0.08129(8) 0.57831(8)
N9 N 0.91871(8) 0.13083(8) 0.57831(8)
N12 N 0.86917(8) 0.08129(8) 0.42169(8)
N13 N 0.91871(8) 0.13083(8) 0.42169(8)
O4_2 O 1.0000 0.24980(17) 0.5000
Fe1_2 Fe 0.85929(3) 1.0000 0.5000
Cl1_4 Cl 1.0000 1.0000 0.5000
N1 N 0.86917(8) 0.91871(8) 0.42169(8)
O1_2 O 0.75020(17) 1.0000 0.5000
N2 N 0.82542(8) 0.90875(8) 0.36667(8)
C1 C 0.85044(15) 0.75969(12) 0.24031(12)
H1 H 0.8919 0.7393 0.2607
C2 C 0.85119(11) 0.85119(11) 0.33428(16)
C3 C 0.81997(12) 0.81997(12) 0.27058(16)
Fe3_2 Fe 1.0000 0.85929(3) 0.5000
Fe6_2 Fe 1.0000 0.5000 0.14071(3)
Fe7 Fe 0.85929(3) 0.5000 0.0000
N3 N 0.91871(8) 0.86917(8) 0.42169(8)
N4 N 0.57831(8) 0.86917(8) 0.08129(8)
N5 N 0.57831(8) 0.91871(8) 0.13083(8)
N6 N 0.91871(8) 0.57831(8) 0.13083(8)
N7 N 0.86917(8) 0.57831(8) 0.08129(8)
N10 N 0.86917(8) 0.91871(8) 0.57831(8)
N11 N 0.91871(8) 0.86917(8) 0.57831(8)
O3_2 O 1.0000 0.75020(17) 0.5000
N26 N 0.90875(8) 0.82542(8) 0.36667(8)
N27 N 0.63333(8) 0.82542(8) 0.09125(8)
N28 N 0.63333(8) 0.90875(8) 0.17458(8)
N29 N 0.90875(8) 0.63333(8) 0.17458(8)
N30 N 0.82542(8) 0.63333(8) 0.09125(8)
C4 C 0.75969(12) 0.75969(12) 0.14956(15)
C5 C 0.75969(12) 0.85044(15) 0.24031(12)
H2 H 0.7393 0.7393 0.1081
H3 H 0.7393 0.8919 0.2607
C9 C 0.66572(16) 0.85119(11) 0.14881(11)
C10 C 0.85119(11) 0.66572(16) 0.14881(11)
C14 C 0.81997(12) 0.72942(16) 0.18003(12)
C15 C 0.72942(16) 0.81997(12) 0.18003(12)
Fe7_2 Fe 0.85929(3) 0.5000 1.0000
N2_2 N 0.17458(8) 0.09125(8) 0.36667(8)
C1_2 C 0.14956(15) 0.24031(12) 0.24031(12)
H1_2 H 0.1081 0.2607 0.2607
C2_2 C 0.14881(11) 0.14881(11) 0.33428(16)
C3_2 C 0.18003(12) 0.18003(12) 0.27058(16)
Fe4 Fe 0.5000 0.14071(3) 0.0000
N4_2 N 0.42169(8) 0.13083(8) 0.08129(8)
N5_2 N 0.42169(8) 0.08129(8) 0.13083(8)
N6_2 N 0.08129(8) 0.42169(8) 0.13083(8)
N7_2 N 0.13083(8) 0.42169(8) 0.08129(8)
N26_2 N 0.09125(8) 0.17458(8) 0.36667(8)
N27_2 N 0.36667(8) 0.17458(8) 0.09125(8)
N28_2 N 0.36667(8) 0.09125(8) 0.17458(8)
N29_2 N 0.09125(8) 0.36667(8) 0.17458(8)
N30_2 N 0.17458(8) 0.36667(8) 0.09125(8)
C4_2 C 0.24031(12) 0.24031(12) 0.14956(15)
C5_2 C 0.24031(12) 0.14956(15) 0.24031(12)
H2_2 H 0.2607 0.2607 0.1081
H3_2 H 0.2607 0.1081 0.2607
C9_2 C 0.33428(16) 0.14881(11) 0.14881(11)
C10_2 C 0.14881(11) 0.33428(16) 0.14881(11)
C14_2 C 0.18003(12) 0.27058(16) 0.18003(12)
C15_2 C 0.27058(16) 0.18003(12) 0.18003(12)
Fe4_2 Fe 0.5000 0.14071(3) 1.0000
N22_2 N 0.57831(8) 0.13083(8) 0.08129(8)
N23_2 N 0.57831(8) 0.08129(8) 0.13083(8)
N24_2 N 0.91871(8) 0.42169(8) 0.13083(8)
N25_2 N 0.86917(8) 0.42169(8) 0.08129(8)
N31_2 N 0.82542(8) 0.09125(8) 0.36667(8)
N32_2 N 0.90875(8) 0.17458(8) 0.36667(8)
N33_2 N 0.63333(8) 0.17458(8) 0.09125(8)
N34_2 N 0.63333(8) 0.09125(8) 0.17458(8)
N35_2 N 0.90875(8) 0.36667(8) 0.17458(8)
N36_2 N 0.82542(8) 0.36667(8) 0.09125(8)
C6_2 C 0.85044(15) 0.24031(12) 0.24031(12)
C7_2 C 0.75969(12) 0.24031(12) 0.14956(15)
C8_2 C 0.75969(12) 0.14956(15) 0.24031(12)
H4_2 H 0.8919 0.2607 0.2607
H5_2 H 0.7393 0.2607 0.1081
H6_2 H 0.7393 0.1081 0.2607
C11_2 C 0.85119(11) 0.14881(11) 0.33428(16)
C12_2 C 0.66572(16) 0.14881(11) 0.14881(11)
C13_2 C 0.85119(11) 0.33428(16) 0.14881(11)
C16_2 C 0.81997(12) 0.18003(12) 0.27058(16)
C17_2 C 0.81997(12) 0.27058(16) 0.18003(12)
C18_2 C 0.72942(16) 0.18003(12) 0.18003(12)
Fe5 Fe 0.5000 0.0000 0.85929(3)
N2_3 N 0.17458(8) 0.90875(8) 0.63333(8)
C1_3 C 0.14956(15) 0.75969(12) 0.75969(12)
H1_3 H 0.1081 0.7393 0.7393
C2_3 C 0.14881(11) 0.85119(11) 0.66572(16)
C3_3 C 0.18003(12) 0.81997(12) 0.72942(16)
Fe5_2 Fe 0.5000 1.0000 0.85929(3)
Fe6_3 Fe 0.0000 0.5000 0.85929(3)
N4_3 N 0.42169(8) 0.86917(8) 0.91871(8)
N5_3 N 0.42169(8) 0.91871(8) 0.86917(8)
N6_3 N 0.08129(8) 0.57831(8) 0.86917(8)
N7_3 N 0.13083(8) 0.57831(8) 0.91871(8)
N26_3 N 0.09125(8) 0.82542(8) 0.63333(8)
N27_3 N 0.36667(8) 0.82542(8) 0.90875(8)
N28_3 N 0.36667(8) 0.90875(8) 0.82542(8)
N29_3 N 0.09125(8) 0.63333(8) 0.82542(8)
N30_3 N 0.17458(8) 0.63333(8) 0.90875(8)
C4_3 C 0.24031(12) 0.75969(12) 0.85044(15)
C5_3 C 0.24031(12) 0.85044(15) 0.75969(12)
H2_3 H 0.2607 0.7393 0.8919
H3_3 H 0.2607 0.8919 0.7393
C9_3 C 0.33428(16) 0.85119(11) 0.85119(11)
C10_3 C 0.14881(11) 0.66572(16) 0.85119(11)
C14_3 C 0.18003(12) 0.72942(16) 0.81997(12)
C15_3 C 0.27058(16) 0.81997(12) 0.81997(12)
Fe6_4 Fe 1.0000 0.5000 0.85929(3)
N22_3 N 0.57831(8) 0.86917(8) 0.91871(8)
N23_3 N 0.57831(8) 0.91871(8) 0.86917(8)
N24_3 N 0.91871(8) 0.57831(8) 0.86917(8)
N25_3 N 0.86917(8) 0.57831(8) 0.91871(8)
N31_3 N 0.82542(8) 0.90875(8) 0.63333(8)
N32_3 N 0.90875(8) 0.82542(8) 0.63333(8)
N33_3 N 0.63333(8) 0.82542(8) 0.90875(8)
N34_3 N 0.63333(8) 0.90875(8) 0.82542(8)
N35_3 N 0.90875(8) 0.63333(8) 0.82542(8)
N36_3 N 0.82542(8) 0.63333(8) 0.90875(8)
C6_3 C 0.85044(15) 0.75969(12) 0.75969(12)
C7_3 C 0.75969(12) 0.75969(12) 0.85044(15)
C8_3 C 0.75969(12) 0.85044(15) 0.75969(12)
H4_3 H 0.8919 0.7393 0.7393
H5_3 H 0.7393 0.7393 0.8919
H6_3 H 0.7393 0.8919 0.7393
C11_3 C 0.85119(11) 0.85119(11) 0.66572(16)
C12_3 C 0.66572(16) 0.85119(11) 0.85119(11)
C13_3 C 0.85119(11) 0.66572(16) 0.85119(11)
C16_3 C 0.81997(12) 0.81997(12) 0.72942(16)
C17_3 C 0.81997(12) 0.72942(16) 0.81997(12)
C18_3 C 0.72942(16) 0.81997(12) 0.81997(12)
N22_4 N 0.42169(8) 0.13083(8) 0.91871(8)
N23_4 N 0.42169(8) 0.08129(8) 0.86917(8)
N24_4 N 0.08129(8) 0.42169(8) 0.86917(8)
N25_4 N 0.13083(8) 0.42169(8) 0.91871(8)
N31_4 N 0.17458(8) 0.09125(8) 0.63333(8)
N32_4 N 0.09125(8) 0.17458(8) 0.63333(8)
N33_4 N 0.36667(8) 0.17458(8) 0.90875(8)
N34_4 N 0.36667(8) 0.09125(8) 0.82542(8)
N35_4 N 0.09125(8) 0.36667(8) 0.82542(8)
N36_4 N 0.17458(8) 0.36667(8) 0.90875(8)
C6_4 C 0.14956(15) 0.24031(12) 0.75969(12)
C7_4 C 0.24031(12) 0.24031(12) 0.85044(15)
C8_4 C 0.24031(12) 0.14956(15) 0.75969(12)
H4_4 H 0.1081 0.2607 0.7393
H5_4 H 0.2607 0.2607 0.8919
H6_4 H 0.2607 0.1081 0.7393
C11_4 C 0.14881(11) 0.14881(11) 0.66572(16)
C12_4 C 0.33428(16) 0.14881(11) 0.85119(11)
C13_4 C 0.14881(11) 0.33428(16) 0.85119(11)
C16_4 C 0.18003(12) 0.18003(12) 0.72942(16)
C17_4 C 0.18003(12) 0.27058(16) 0.81997(12)
C18_4 C 0.27058(16) 0.18003(12) 0.81997(12)
N2_4 N 0.82542(8) 0.09125(8) 0.63333(8)
C1_4 C 0.85044(15) 0.24031(12) 0.75969(12)
H1_4 H 0.8919 0.2607 0.7393
C2_4 C 0.85119(11) 0.14881(11) 0.66572(16)
C3_4 C 0.81997(12) 0.18003(12) 0.72942(16)
N4_4 N 0.57831(8) 0.13083(8) 0.91871(8)
N5_4 N 0.57831(8) 0.08129(8) 0.86917(8)
N6_4 N 0.91871(8) 0.42169(8) 0.86917(8)
N7_4 N 0.86917(8) 0.42169(8) 0.91871(8)
N26_4 N 0.90875(8) 0.17458(8) 0.63333(8)
N27_4 N 0.63333(8) 0.17458(8) 0.90875(8)
N28_4 N 0.63333(8) 0.09125(8) 0.82542(8)
N29_4 N 0.90875(8) 0.36667(8) 0.82542(8)
N30_4 N 0.82542(8) 0.36667(8) 0.90875(8)
C4_4 C 0.75969(12) 0.24031(12) 0.85044(15)
C5_4 C 0.75969(12) 0.14956(15) 0.75969(12)
H2_4 H 0.7393 0.2607 0.8919
H3_4 H 0.7393 0.1081 0.7393
C9_4 C 0.66572(16) 0.14881(11) 0.85119(11)
C10_4 C 0.85119(11) 0.33428(16) 0.85119(11)
C14_4 C 0.81997(12) 0.27058(16) 0.81997(12)
C15_4 C 0.72942(16) 0.18003(12) 0.81997(12)
Cl1_5 Cl 0.5000 -0.0000 0.0000
O2_3 O 0.5000 0.24980(17) 0.0000
O4_3 O 0.5000 -0.0000 0.24980(17)
Cl1_6 Cl 0.5000 -0.0000 1.0000
O2_4 O 0.5000 0.24980(17) 1.0000
O3_3 O 0.5000 -0.0000 0.75020(17)
Cl1_7 Cl 0.5000 1.0000 0.0000
O1_3 O 0.5000 0.75020(17) 0.0000
O4_4 O 0.5000 1.0000 0.24980(17)
Cl1_8 Cl 0.5000 1.0000 1.0000
O1_4 O 0.5000 0.75020(17) 1.0000
O3_4 O 0.5000 1.0000 0.75020(17)
Cl1_9 Cl 0.0000 0.5000 -0.0000
O2_5 O 0.0000 0.5000 0.24980(17)
O4_5 O 0.24980(17) 0.5000 -0.0000
Cl1_10 Cl 0.0000 0.5000 1.0000
O1_5 O 0.0000 0.5000 0.75020(17)
O4_6 O 0.24980(17) 0.5000 1.0000
Cl1_11 Cl 1.0000 0.5000 -0.0000
O2_6 O 1.0000 0.5000 0.24980(17)
O3_5 O 0.75020(17) 0.5000 -0.0000
Cl1_12 Cl 1.0000 0.5000 1.0000
O1_6 O 1.0000 0.5000 0.75020(17)
O3_6 O 0.75020(17) 0.5000 1.0000
loop_
_geom_bond_atom_site_label_1
_geom_bond_atom_site_label_2
_geom_bond_site_symmetry_1
_geom_bond_site_symmetry_2
Cl1 Fe2 1_555 1_555
Fe2 N14 1_555 1_555
Fe8 Cl1 1_555 1_555
N14 N15 1_555 1_555
N15 Fe8 1_555 1_555
N18 Fe2 1_555 1_555
N19 Fe8 1_555 1_555
O2 Fe2 1_555 1_555
O4 Fe8 1_555 1_555
N18 N19 1_555 1_555
Cl1_2 Fe2_2 1_555 1_555
Fe3 Cl1_2 1_555 1_555
Fe9_2 N23 1_555 1_555
Fe10 N22 1_555 1_555
Fe11 N25 1_555 1_555
N16 Fe2_2 1_555 1_555
N17 Fe3 1_555 1_555
N20 Fe2_2 1_555 1_555
N21 Fe3 1_555 1_555
N22 N23 1_555 1_555
N23 N34 1_555 1_555
N24 Fe6 1_555 1_555
N25 N24 1_555 1_555
O2_2 Fe2_2 1_555 1_555
O3 Fe3 1_555 1_555
N31 N20 1_555 1_555
N32 N21 1_555 1_555
N33 N22 1_555 1_555
N34 C12 1_555 1_555
N35 N24 1_555 1_555
N36 N25 1_555 1_555
C6 H4 1_555 1_555
C7 H5 1_555 1_555
C8 H6 1_555 1_555
C11 N31 1_555 1_555
C12 N33 1_555 1_555
C13 N35 1_555 1_555
C16 C6 1_555 1_555
C17 C6 1_555 1_555
C18 C7 1_555 1_555
N16 N17 1_555 1_555
N20 N21 1_555 1_555
N32 C11 1_555 1_555
N36 C13 1_555 1_555
C7 C17 1_555 1_555
C8 C16 1_555 1_555
C8 C18 1_555 1_555
C11 C16 1_555 1_555
C12 C18 1_555 1_555
C13 C17 1_555 1_555
Fe1 Cl1_3 1_555 1_555
O1 Fe1 1_555 1_555
Fe8_2 Cl1_3 1_555 1_555
N8 Fe1 1_555 1_555
N9 Fe8_2 1_555 1_555
N12 Fe1 1_555 1_555
N13 Fe8_2 1_555 1_555
O4_2 Fe8_2 1_555 1_555
N8 N9 1_555 1_555
N12 N13 1_555 1_555
Fe1_2 Cl1_4 1_555 1_555
N1 Fe1_2 1_555 1_555
O1_2 Fe1_2 1_555 1_555
N2 N1 1_555 1_555
C1 H1 1_555 1_555
C2 N2 1_555 1_555
C3 C1 1_555 1_555
Fe3_2 Cl1_4 1_555 1_555
Fe10 N4 1_555 1_555
Fe9_2 N5 1_555 1_555
Fe6_2 N6 1_555 1_555
Fe7 N7 1_555 1_555
N3 N1 1_555 1_555
N4 N5 1_555 1_555
N5 N28 1_555 1_555
N6 N7 1_555 1_555
N7 N30 1_555 1_555
N10 Fe1_2 1_555 1_555
N11 Fe3_2 1_555 1_555
O3_2 Fe3_2 1_555 1_555
N26 C2 1_555 1_555
N27 N4 1_555 1_555
N28 C9 1_555 1_555
N29 N6 1_555 1_555
N30 C10 1_555 1_555
C4 H2 1_555 1_555
C5 C3 1_555 1_555
H3 C5 1_555 1_555
C9 N27 1_555 1_555
C10 N29 1_555 1_555
C14 C1 1_555 1_555
C15 C4 1_555 1_555
C2 C3 1_555 1_555
Fe3_2 N3 1_555 1_555
N3 N26 1_555 1_555
N10 N11 1_555 1_555
C4 C14 1_555 1_555
C5 C15 1_555 1_555
C9 C15 1_555 1_555
C10 C14 1_555 1_555
N2_2 N14 1_555 1_555
C1_2 H1_2 1_555 1_555
C2_2 N2_2 1_555 1_555
C3_2 C1_2 1_555 1_555
Fe4 N4_2 1_555 1_555
Fe9 N5_2 1_555 1_555
Fe6 N6_2 1_555 1_555
Fe11 N7_2 1_555 1_555
N4_2 N5_2 1_555 1_555
N5_2 N28_2 1_555 1_555
N6_2 N7_2 1_555 1_555
N7_2 N30_2 1_555 1_555
N26_2 C2_2 1_555 1_555
N27_2 N4_2 1_555 1_555
N28_2 C9_2 1_555 1_555
N29_2 N6_2 1_555 1_555
N30_2 C10_2 1_555 1_555
C4_2 H2_2 1_555 1_555
C5_2 C3_2 1_555 1_555
H3_2 C5_2 1_555 1_555
C9_2 N27_2 1_555 1_555
C10_2 N29_2 1_555 1_555
C14_2 C1_2 1_555 1_555
C15_2 C4_2 1_555 1_555
C2_2 C3_2 1_555 1_555
N15 N26_2 1_555 1_555
C4_2 C14_2 1_555 1_555
C5_2 C15_2 1_555 1_555
C9_2 C15_2 1_555 1_555
C10_2 C14_2 1_555 1_555
Fe9 N23_2 1_555 1_555
Fe4 N22_2 1_555 1_555
Fe7 N25_2 1_555 1_555
N22_2 N23_2 1_555 1_555
N23_2 N34_2 1_555 1_555
N24_2 Fe6_2 1_555 1_555
N25_2 N24_2 1_555 1_555
N31_2 N12 1_555 1_555
N32_2 N13 1_555 1_555
N33_2 N22_2 1_555 1_555
N34_2 C12_2 1_555 1_555
N35_2 N24_2 1_555 1_555
N36_2 N25_2 1_555 1_555
C6_2 H4_2 1_555 1_555
C7_2 H5_2 1_555 1_555
C8_2 H6_2 1_555 1_555
C11_2 N31_2 1_555 1_555
C12_2 N33_2 1_555 1_555
C13_2 N35_2 1_555 1_555
C16_2 C6_2 1_555 1_555
C17_2 C6_2 1_555 1_555
C18_2 C7_2 1_555 1_555
N32_2 C11_2 1_555 1_555
N36_2 C13_2 1_555 1_555
C7_2 C17_2 1_555 1_555
C8_2 C16_2 1_555 1_555
C8_2 C18_2 1_555 1_555
C11_2 C16_2 1_555 1_555
C12_2 C18_2 1_555 1_555
C13_2 C17_2 1_555 1_555
N2_3 N16 1_555 1_555
C1_3 H1_3 1_555 1_555
C2_3 N2_3 1_555 1_555
C3_3 C1_3 1_555 1_555
Fe10_2 N4_3 1_555 1_555
Fe5_2 N5_3 1_555 1_555
Fe6_3 N6_3 1_555 1_555
Fe11_2 N7_3 1_555 1_555
N4_3 N5_3 1_555 1_555
N5_3 N28_3 1_555 1_555
N6_3 N7_3 1_555 1_555
N7_3 N30_3 1_555 1_555
N26_3 C2_3 1_555 1_555
N27_3 N4_3 1_555 1_555
N28_3 C9_3 1_555 1_555
N29_3 N6_3 1_555 1_555
N30_3 C10_3 1_555 1_555
C4_3 H2_3 1_555 1_555
C5_3 C3_3 1_555 1_555
H3_3 C5_3 1_555 1_555
C9_3 N27_3 1_555 1_555
C10_3 N29_3 1_555 1_555
C14_3 C1_3 1_555 1_555
C15_3 C4_3 1_555 1_555
C2_3 C3_3 1_555 1_555
N17 N26_3 1_555 1_555
C4_3 C14_3 1_555 1_555
C5_3 C15_3 1_555 1_555
C9_3 C15_3 1_555 1_555
C10_3 C14_3 1_555 1_555
Fe5_2 N23_3 1_555 1_555
Fe10_2 N22_3 1_555 1_555
Fe7_2 N25_3 1_555 1_555
N22_3 N23_3 1_555 1_555
N23_3 N34_3 1_555 1_555
N24_3 Fe6_4 1_555 1_555
N25_3 N24_3 1_555 1_555
N31_3 N10 1_555 1_555
N32_3 N11 1_555 1_555
N33_3 N22_3 1_555 1_555
N34_3 C12_3 1_555 1_555
N35_3 N24_3 1_555 1_555
N36_3 N25_3 1_555 1_555
C6_3 H4_3 1_555 1_555
C7_3 H5_3 1_555 1_555
C8_3 H6_3 1_555 1_555
C11_3 N31_3 1_555 1_555
C12_3 N33_3 1_555 1_555
C13_3 N35_3 1_555 1_555
C16_3 C6_3 1_555 1_555
C17_3 C6_3 1_555 1_555
C18_3 C7_3 1_555 1_555
N32_3 C11_3 1_555 1_555
N36_3 C13_3 1_555 1_555
C7_3 C17_3 1_555 1_555
C8_3 C16_3 1_555 1_555
C8_3 C18_3 1_555 1_555
C11_3 C16_3 1_555 1_555
C12_3 C18_3 1_555 1_555
C13_3 C17_3 1_555 1_555
Fe5 N23_4 1_555 1_555
Fe4_2 N22_4 1_555 1_555
Fe11_2 N25_4 1_555 1_555
N22_4 N23_4 1_555 1_555
N23_4 N34_4 1_555 1_555
N24_4 Fe6_3 1_555 1_555
N25_4 N24_4 1_555 1_555
N31_4 N18 1_555 1_555
N32_4 N19 1_555 1_555
N33_4 N22_4 1_555 1_555
N34_4 C12_4 1_555 1_555
N35_4 N24_4 1_555 1_555
N36_4 N25_4 1_555 1_555
C6_4 H4_4 1_555 1_555
C7_4 H5_4 1_555 1_555
C8_4 H6_4 1_555 1_555
C11_4 N31_4 1_555 1_555
C12_4 N33_4 1_555 1_555
C13_4 N35_4 1_555 1_555
C16_4 C6_4 1_555 1_555
C17_4 C6_4 1_555 1_555
C18_4 C7_4 1_555 1_555
N32_4 C11_4 1_555 1_555
N36_4 C13_4 1_555 1_555
C7_4 C17_4 1_555 1_555
C8_4 C16_4 1_555 1_555
C8_4 C18_4 1_555 1_555
C11_4 C16_4 1_555 1_555
C12_4 C18_4 1_555 1_555
C13_4 C17_4 1_555 1_555
N2_4 N8 1_555 1_555
C1_4 H1_4 1_555 1_555
C2_4 N2_4 1_555 1_555
C3_4 C1_4 1_555 1_555
Fe4_2 N4_4 1_555 1_555
Fe5 N5_4 1_555 1_555
Fe6_4 N6_4 1_555 1_555
Fe7_2 N7_4 1_555 1_555
N4_4 N5_4 1_555 1_555
N5_4 N28_4 1_555 1_555
N6_4 N7_4 1_555 1_555
N7_4 N30_4 1_555 1_555
N26_4 C2_4 1_555 1_555
N27_4 N4_4 1_555 1_555
N28_4 C9_4 1_555 1_555
N29_4 N6_4 1_555 1_555
N30_4 C10_4 1_555 1_555
C4_4 H2_4 1_555 1_555
C5_4 C3_4 1_555 1_555
H3_4 C5_4 1_555 1_555
C9_4 N27_4 1_555 1_555
C10_4 N29_4 1_555 1_555
C14_4 C1_4 1_555 1_555
C15_4 C4_4 1_555 1_555
C2_4 C3_4 1_555 1_555
N9 N26_4 1_555 1_555
C4_4 C14_4 1_555 1_555
C5_4 C15_4 1_555 1_555
C9_4 C15_4 1_555 1_555
C10_4 C14_4 1_555 1_555
Cl1_5 Fe4 1_555 1_555
Fe9 Cl1_5 1_555 1_555
O2_3 Fe4 1_555 1_555
O4_3 Fe9 1_555 1_555
Cl1_6 Fe4_2 1_555 1_555
Fe5 Cl1_6 1_555 1_555
O2_4 Fe4_2 1_555 1_555
O3_3 Fe5 1_555 1_555
Fe10 Cl1_7 1_555 1_555
O1_3 Fe10 1_555 1_555
Fe9_2 Cl1_7 1_555 1_555
O4_4 Fe9_2 1_555 1_555
Fe10_2 Cl1_8 1_555 1_555
O1_4 Fe10_2 1_555 1_555
Fe5_2 Cl1_8 1_555 1_555
O3_4 Fe5_2 1_555 1_555
Cl1_9 Fe6 1_555 1_555
Fe11 Cl1_9 1_555 1_555
O2_5 Fe6 1_555 1_555
O4_5 Fe11 1_555 1_555
Fe6_3 Cl1_10 1_555 1_555
O1_5 Fe6_3 1_555 1_555
Fe11_2 Cl1_10 1_555 1_555
O4_6 Fe11_2 1_555 1_555
Cl1_11 Fe6_2 1_555 1_555
Fe7 Cl1_11 1_555 1_555
O2_6 Fe6_2 1_555 1_555
O3_5 Fe7 1_555 1_555
Fe6_4 Cl1_12 1_555 1_555
O1_6 Fe6_4 1_555 1_555
Fe7_2 Cl1_12 1_555 1_555
O3_6 Fe7_2 1_555 1_555

#END
