
###############################################################################
#
# This file contains modified crystal structure data generated from the
# MOF subset of the Cambridge Structural Database (CSD) v543 
# hosted by the Cambridge Crystallographic Data Centre (CCDC).
#
# This work is licensed under the Creative Commons
# Attribution-NonCommercial-ShareAlike 4.0 International License.
# To view a copy of this license, visit
# http://creativecommons.org/licenses/by-nc-sa/4.0/
# or send a letter to
# Creative Commons, PO Box 1866, Mountain View, CA 94042, USA.
#
# CIF created using the CSD Python API on 29 September 2022
# The structure has been converted into the P1 space group
# The structure has a 3D framework
# The original CSD entry MUYDUH is in the monoclinic crystal system
# The framework has been calculated to contain at least 10.0% void space
# The void calculation uses a probe of radius 1.32A, grid spacing 0.4
# H atom positions have been added when not included in the experimental data
#
###############################################################################

data_MUYDUH
_chemical_formula_moiety         '(C72 H48 N8 O20 Zn4)n'
_symmetry_cell_setting           triclinic
_symmetry_space_group_name_H-M   'P 1'
_symmetry_Int_Tables_number      1
_space_group_name_Hall           'P 1'
loop_
_symmetry_equiv_pos_site_id
_symmetry_equiv_pos_as_xyz
1 x,y,z
_cell_length_a                   11.446(5)
_cell_length_b                   19.909(5)
_cell_length_c                   11.820(5)
_cell_angle_alpha                90
_cell_angle_beta                 106.098(5)
_cell_angle_gamma                90
_cell_volume                     2587.91
loop_
_atom_site_label
_atom_site_type_symbol
_atom_site_fract_x
_atom_site_fract_y
_atom_site_fract_z
Zn2 Zn 0.00453(11) 0.08132(6) 0.41723(11)
C1 C 0.0238(11) 0.2144(6) 0.3267(11)
C2 C 0.0310(11) 0.2886(5) 0.3494(10)
C3 C 0.0309(14) 0.3125(6) 0.4572(12)
H1 H 0.0264 0.2826 0.5162
C4 C 0.0373(17) 0.3823(6) 0.4810(12)
C5 C 0.0386(14) 0.4273(6) 0.3921(11)
H2 H 0.0382 0.4733 0.4055
C6 C 0.0404(9) 0.4026(5) 0.2816(10)
C7 C 0.0358(10) 0.3338(5) 0.2605(9)
H3 H 0.0359 0.3178 0.1866
C8 C 0.0415(9) 0.4493(5) 0.1875(9)
C9 C 0.2342(11) 0.0515(8) 0.3326(12)
H4 H 0.1776 0.0312 0.2700
C10 C 0.3506(12) 0.0541(8) 0.3263(13)
H5 H 0.3699 0.0385 0.2596
C11 C 0.4029(12) 0.1045(9) 0.5106(14)
H6 H 0.4583 0.1244 0.5746
C12 C 0.2830(13) 0.0997(8) 0.5083(14)
H7 H 0.2623 0.1148 0.5746
C13 C 0.6590(12) 0.1126(8) 0.5013(13)
H8 H 0.6376 0.1350 0.5617
C14 C 0.4412(9) 0.0803(5) 0.4200(10)
C15 C 0.5749(9) 0.0812(5) 0.4186(10)
C16 C 0.6092(12) 0.0504(9) 0.3310(15)
H9 H 0.5523 0.0271 0.2727
C17 C 0.7280(11) 0.0537(8) 0.3283(13)
H10 H 0.7497 0.0353 0.2647
C18 C 0.7751(12) 0.1121(8) 0.4978(13)
H11 H 0.8330 0.1337 0.5576
N1 N 0.8113(10) 0.0822(5) 0.4131(9)
N2 N 0.1926(8) 0.0755(4) 0.4202(8)
O1 O 0.0048(8) 0.1788(4) 0.4068(7)
O2 O 0.0380(12) 0.1929(5) 0.2366(8)
O3 O 0.0523(8) 0.4279(4) 0.0933(7)
O4 O 0.0297(7) 0.5121(4) 0.2084(7)
O5 O 0.0326(14) 0.4078(5) 0.5870(8)
O6 O 0.0523(8) 0.0721(4) 0.5933(7)
H12 H 0.101364 0.389639 0.650507
Zn4 Zn 0.00453(11) 0.41868(6) 0.91723(11)
O7 O 0.9703(7) 0.0121(4) 0.2916(7)
Zn3 Zn 0.99547(11) 0.58132(6) 0.08277(11)
N3 N 0.1887(10) 0.5822(5) 0.0869(9)
C1_2 C 0.9762(11) 0.7144(6) 0.1733(11)
C2_2 C 0.9690(11) 0.7886(5) 0.1506(10)
C3_2 C 0.9691(14) 0.8125(6) 0.0428(12)
C4_2 C 0.9627(17) 0.8823(6) 0.0190(12)
C5_2 C 0.9614(14) 0.9273(6) 0.1079(11)
H2_2 H 0.9618 0.9733 0.0945
C6_2 C 0.9596(9) 0.9026(5) 0.2184(10)
C7_2 C 0.9642(10) 0.8338(5) 0.2395(9)
H3_2 H 0.9641 0.8178 0.3134
C8_2 C 0.9585(9) 0.9493(5) 0.3125(9)
C9_2 C 0.7658(11) 0.5515(8) 0.1674(12)
H4_2 H 0.8224 0.5312 0.2300
C10_2 C 0.6494(12) 0.5541(8) 0.1737(13)
H5_2 H 0.6301 0.5385 0.2404
C14_2 C 0.5588(9) 0.5803(5) 0.0800(10)
C15_2 C 0.4251(9) 0.5812(5) 0.0814(10)
C16_2 C 0.3908(12) 0.5504(9) 0.1690(15)
H9_2 H 0.4477 0.5271 0.2273
C17_2 C 0.2720(11) 0.5537(8) 0.1717(13)
H10_2 H 0.2503 0.5353 0.2353
C18_2 C 0.2249(12) 0.6121(8) 0.0022(13)
N2_2 N 0.8074(8) 0.5755(4) 0.0798(8)
O1_2 O 0.9952(8) 0.6788(4) 0.0932(7)
O2_2 O 0.9620(12) 0.6929(5) 0.2634(8)
O3_2 O 0.9477(8) 0.9279(4) 0.4067(7)
Zn4_2 Zn 0.99547(11) 0.91868(6) 0.58277(11)
H1_2 H 0.9736 0.7826 0.9838
C11_2 C 0.5971(12) 0.6045(9) 0.9894(14)
H6_2 H 0.5417 0.6244 0.9254
C12_2 C 0.7170(13) 0.5997(8) 0.9917(14)
H7_2 H 0.7377 0.6148 0.9254
C13_2 C 0.3410(12) 0.6126(8) 0.9987(13)
H8_2 H 0.3624 0.6350 0.9383
H11_2 H 0.1670 0.6337 0.9424
O5_2 O 0.9674(14) 0.9078(5) 0.9130(8)
O6_2 O 0.9477(8) 0.5721(4) 0.9067(7)
H12_2 H 0.898636 0.889639 0.849493
N3_2 N 0.1887(10) 0.9178(5) 0.5869(9)
O7_2 O 0.0297(7) 0.9879(4) 0.7084(7)
C1_3 C 0.9762(11) 0.7856(6) 0.6733(11)
C2_3 C 0.9690(11) 0.7114(5) 0.6506(10)
C3_3 C 0.9691(14) 0.6875(6) 0.5428(12)
H1_3 H 0.9736 0.7174 0.4838
C4_3 C 0.9627(17) 0.6177(6) 0.5190(12)
C5_3 C 0.9614(14) 0.5727(6) 0.6079(11)
H2_3 H 0.9618 0.5267 0.5945
C6_3 C 0.9596(9) 0.5974(5) 0.7184(10)
C7_3 C 0.9642(10) 0.6662(5) 0.7395(9)
H3_3 H 0.9641 0.6822 0.8134
C8_3 C 0.9585(9) 0.5507(5) 0.8125(9)
C9_3 C 0.7658(11) 0.9485(8) 0.6674(12)
H4_3 H 0.8224 0.9688 0.7300
C10_3 C 0.6494(12) 0.9459(8) 0.6737(13)
H5_3 H 0.6301 0.9615 0.7404
C11_3 C 0.5971(12) 0.8955(9) 0.4894(14)
H6_3 H 0.5417 0.8756 0.4254
C12_3 C 0.7170(13) 0.9003(8) 0.4917(14)
H7_3 H 0.7377 0.8852 0.4254
C13_3 C 0.3410(12) 0.8874(8) 0.4987(13)
H8_3 H 0.3624 0.8650 0.4383
C14_3 C 0.5588(9) 0.9197(5) 0.5800(10)
C15_3 C 0.4251(9) 0.9188(5) 0.5814(10)
C16_3 C 0.3908(12) 0.9496(9) 0.6690(15)
H9_3 H 0.4477 0.9729 0.7273
C17_3 C 0.2720(11) 0.9463(8) 0.6717(13)
H10_3 H 0.2503 0.9647 0.7353
C18_3 C 0.2249(12) 0.8879(8) 0.5022(13)
H11_3 H 0.1670 0.8663 0.4424
N2_3 N 0.8074(8) 0.9245(4) 0.5798(8)
O1_3 O 0.9952(8) 0.8212(4) 0.5932(7)
O2_3 O 0.9620(12) 0.8071(5) 0.7634(8)
O4_2 O 0.9703(7) 0.4879(4) 0.7916(7)
O5_3 O 0.9674(14) 0.5922(5) 0.4130(8)
H12_3 H 0.898636 0.610361 0.349493
H1_4 H 0.0264 0.2174 0.0162
C11_4 C 0.4029(12) 0.3955(9) 0.0106(14)
H6_4 H 0.4583 0.3756 0.0746
C12_4 C 0.2830(13) 0.4003(8) 0.0083(14)
H7_4 H 0.2623 0.3852 0.0746
C13_4 C 0.6590(12) 0.3874(8) 0.0013(13)
H8_4 H 0.6376 0.3650 0.0617
H11_4 H 0.8330 0.3663 0.0576
O5_4 O 0.0326(14) 0.0922(5) 0.0870(8)
H12_4 H 0.101364 0.110361 0.150507
C1_4 C 0.0238(11) 0.2856(6) 0.8267(11)
C2_4 C 0.0310(11) 0.2114(5) 0.8494(10)
C3_4 C 0.0309(14) 0.1875(6) 0.9572(12)
C4_4 C 0.0373(17) 0.1177(6) 0.9810(12)
C5_4 C 0.0386(14) 0.0727(6) 0.8921(11)
H2_4 H 0.0382 0.0267 0.9055
C6_4 C 0.0404(9) 0.0974(5) 0.7816(10)
C7_4 C 0.0358(10) 0.1662(5) 0.7605(9)
H3_4 H 0.0359 0.1822 0.6866
C8_4 C 0.0415(9) 0.0507(5) 0.6875(9)
C9_4 C 0.2342(11) 0.4485(8) 0.8326(12)
H4_4 H 0.1776 0.4688 0.7700
C10_4 C 0.3506(12) 0.4459(8) 0.8263(13)
H5_4 H 0.3699 0.4615 0.7596
C14_4 C 0.4412(9) 0.4197(5) 0.9200(10)
C15_4 C 0.5749(9) 0.4188(5) 0.9186(10)
C16_4 C 0.6092(12) 0.4496(9) 0.8310(15)
H9_4 H 0.5523 0.4729 0.7727
C17_4 C 0.7280(11) 0.4463(8) 0.8283(13)
H10_4 H 0.7497 0.4647 0.7647
C18_4 C 0.7751(12) 0.3879(8) 0.9978(13)
N1_2 N 0.8113(10) 0.4178(5) 0.9131(9)
N2_4 N 0.1926(8) 0.4245(4) 0.9202(8)
O1_4 O 0.0048(8) 0.3212(4) 0.9068(7)
O2_4 O 0.0380(12) 0.3071(5) 0.7366(8)
loop_
_geom_bond_atom_site_label_1
_geom_bond_atom_site_label_2
_geom_bond_site_symmetry_1
_geom_bond_site_symmetry_2
C1 C2 1_555 1_555
C2 C3 1_555 1_555
C3 H1 1_555 1_555
C4 C3 1_555 1_555
C5 C4 1_555 1_555
H2 C5 1_555 1_555
C6 C5 1_555 1_555
C7 C2 1_555 1_555
H3 C7 1_555 1_555
C8 C6 1_555 1_555
C9 H4 1_555 1_555
C10 C9 1_555 1_555
H5 C10 1_555 1_555
C11 H6 1_555 1_555
C12 C11 1_555 1_555
H7 C12 1_555 1_555
C13 H8 1_555 1_555
C14 C10 1_555 1_555
C15 C13 1_555 1_555
C16 C15 1_555 1_555
H9 C16 1_555 1_555
C17 C16 1_555 1_555
H10 C17 1_555 1_555
C18 C13 1_555 1_555
H11 C18 1_555 1_555
N1 C17 1_555 1_555
N2 C9 1_555 1_555
O1 C1 1_555 1_555
O2 C1 1_555 1_555
O3 C8 1_555 1_555
O4 C8 1_555 1_555
O5 C4 1_555 1_555
Zn2 N2 1_555 1_555
O6 Zn2 1_555 1_555
C6 C7 1_555 1_555
C11 C14 1_555 1_555
C12 N2 1_555 1_555
C14 C15 1_555 1_555
C18 N1 1_555 1_555
O1 Zn2 1_555 1_555
O5 H12 1_555 1_555
C1_2 C2_2 1_555 1_555
C2_2 C3_2 1_555 1_555
C4_2 C3_2 1_555 1_555
C5_2 C4_2 1_555 1_555
H2_2 C5_2 1_555 1_555
C6_2 C5_2 1_555 1_555
C7_2 C2_2 1_555 1_555
H3_2 C7_2 1_555 1_555
C8_2 C6_2 1_555 1_555
C9_2 H4_2 1_555 1_555
C10_2 C9_2 1_555 1_555
H5_2 C10_2 1_555 1_555
C14_2 C10_2 1_555 1_555
C16_2 C15_2 1_555 1_555
H9_2 C16_2 1_555 1_555
C17_2 C16_2 1_555 1_555
H10_2 C17_2 1_555 1_555
N3 C17_2 1_555 1_555
N2_2 C9_2 1_555 1_555
O1_2 C1_2 1_555 1_555
O2_2 C1_2 1_555 1_555
O3_2 C8_2 1_555 1_555
Zn3 N2_2 1_555 1_555
Zn4_2 O3_2 1_555 1_555
C6_2 C7_2 1_555 1_555
C14_2 C15_2 1_555 1_555
C18_2 N3 1_555 1_555
O1_2 Zn3 1_555 1_555
C11_2 H6_2 1_555 1_555
C12_2 C11_2 1_555 1_555
H7_2 C12_2 1_555 1_555
C13_2 H8_2 1_555 1_555
O5_2 H12_2 1_555 1_555
C1_3 C2_3 1_555 1_555
C2_3 C3_3 1_555 1_555
C3_3 H1_3 1_555 1_555
C4_3 C3_3 1_555 1_555
C5_3 C4_3 1_555 1_555
H2_3 C5_3 1_555 1_555
C6_3 C5_3 1_555 1_555
C7_3 C2_3 1_555 1_555
H3_3 C7_3 1_555 1_555
C8_3 C6_3 1_555 1_555
C9_3 H4_3 1_555 1_555
C10_3 C9_3 1_555 1_555
H5_3 C10_3 1_555 1_555
C11_3 H6_3 1_555 1_555
C12_3 C11_3 1_555 1_555
H7_3 C12_3 1_555 1_555
C13_3 H8_3 1_555 1_555
C14_3 C10_3 1_555 1_555
C15_3 C13_3 1_555 1_555
C16_3 C15_3 1_555 1_555
H9_3 C16_3 1_555 1_555
C17_3 C16_3 1_555 1_555
H10_3 C17_3 1_555 1_555
C18_3 C13_3 1_555 1_555
H11_3 C18_3 1_555 1_555
N3_2 C17_3 1_555 1_555
N2_3 C9_3 1_555 1_555
O1_3 C1_3 1_555 1_555
O2_3 C1_3 1_555 1_555
O6_2 C8_3 1_555 1_555
O4_2 C8_3 1_555 1_555
O5_3 C4_3 1_555 1_555
Zn4_2 N2_3 1_555 1_555
C6_3 C7_3 1_555 1_555
C11_3 C14_3 1_555 1_555
C12_3 N2_3 1_555 1_555
C14_3 C15_3 1_555 1_555
C18_3 N3_2 1_555 1_555
O1_3 Zn4_2 1_555 1_555
O5_3 H12_3 1_555 1_555
C11_4 H6_4 1_555 1_555
C12_4 C11_4 1_555 1_555
H7_4 C12_4 1_555 1_555
C13_4 H8_4 1_555 1_555
O5_4 H12_4 1_555 1_555
C1_4 C2_4 1_555 1_555
C2_4 C3_4 1_555 1_555
C4_4 C3_4 1_555 1_555
C5_4 C4_4 1_555 1_555
H2_4 C5_4 1_555 1_555
C6_4 C5_4 1_555 1_555
C7_4 C2_4 1_555 1_555
H3_4 C7_4 1_555 1_555
C8_4 C6_4 1_555 1_555
C9_4 H4_4 1_555 1_555
C10_4 C9_4 1_555 1_555
H5_4 C10_4 1_555 1_555
C14_4 C10_4 1_555 1_555
C16_4 C15_4 1_555 1_555
H9_4 C16_4 1_555 1_555
C17_4 C16_4 1_555 1_555
H10_4 C17_4 1_555 1_555
N1_2 C17_4 1_555 1_555
N2_4 C9_4 1_555 1_555
O1_4 C1_4 1_555 1_555
O2_4 C1_4 1_555 1_555
O6 C8_4 1_555 1_555
Zn4 N2_4 1_555 1_555
C6_4 C7_4 1_555 1_555
C14_4 C15_4 1_555 1_555
C18_4 N1_2 1_555 1_555
O1_4 Zn4 1_555 1_555

#END
