
###############################################################################
#
# This file contains modified crystal structure data generated from the
# MOF subset of the Cambridge Structural Database (CSD) v543 
# hosted by the Cambridge Crystallographic Data Centre (CCDC).
#
# This work is licensed under the Creative Commons
# Attribution-NonCommercial-ShareAlike 4.0 International License.
# To view a copy of this license, visit
# http://creativecommons.org/licenses/by-nc-sa/4.0/
# or send a letter to
# Creative Commons, PO Box 1866, Mountain View, CA 94042, USA.
#
# CIF created using the CSD Python API on 29 September 2022
# The structure has been converted into the P1 space group
# The structure has a 3D framework
# The original CSD entry MUYVIO is in the monoclinic crystal system
# The original CSD entry MUYVIO is in a Sohncke space group
# The framework has been calculated to contain at least 10.0% void space
# The void calculation uses a probe of radius 1.32A, grid spacing 0.4
# The framework is charged, counterions have been retained in the structure
#
###############################################################################

data_MUYVIO
_chemical_formula_moiety         '(C120 H56 O40 Zn7 8-)n'
_symmetry_cell_setting           triclinic
_symmetry_space_group_name_H-M   'P 1'
_symmetry_Int_Tables_number      1
_space_group_name_Hall           'P 1'
loop_
_symmetry_equiv_pos_site_id
_symmetry_equiv_pos_as_xyz
1 x,y,z
_cell_length_a                   13.6416(11)
_cell_length_b                   16.8885(13)
_cell_length_c                   16.1092(13)
_cell_angle_alpha                90
_cell_angle_beta                 100.332(2)
_cell_angle_gamma                90
_cell_volume                     3651.16
loop_
_atom_site_label
_atom_site_type_symbol
_atom_site_fract_x
_atom_site_fract_y
_atom_site_fract_z
O7 O 0.0499(5) 0.3737(5) 0.7294(5)
O17 O 0.0391(6) 0.0730(5) 0.4716(5)
Zn12 Zn 0.13919(9) 0.45486(7) 0.69461(8)
Zn6 Zn 0.13116(9) 0.99450(7) 0.43825(8)
Zn2 Zn 0.14352(9) 0.00466(6) 0.94222(8)
O28 O 0.9278(5) 0.0028(5) 0.9250(4)
O29 O 0.8267(5) 0.0478(5) 0.7479(4)
O31 O 0.0499(6) 0.0900(5) 0.9545(5)
O33 O 0.2691(5) 0.0409(5) 0.9106(4)
O2 O 0.1803(5) 0.9095(4) 0.0108(4)
O8 O 0.0722(5) 0.5028(5) 0.0750(4)
O18 O 0.7309(5) 0.5409(5) 0.0894(4)
O19 O 0.0401(5) 0.8808(4) 0.0576(4)
C3 C 0.5322(7) 0.5769(6) 0.0944(6)
H2 H 0.5651 0.5388 0.1332
C6 C 0.0841(8) 0.7156(6) 0.0462(6)
H3 H 0.0168 0.7289 0.0479
C14 C 0.3882(7) 0.6565(7) 0.0436(6)
C15 C 0.2809(7) 0.6778(6) 0.0435(5)
C16 C 0.2120(7) 0.6166(6) 0.0521(5)
H7 H 0.2338 0.5632 0.0592
C25 C 0.2503(8) 0.7535(7) 0.0356(6)
H11 H 0.2963 0.7936 0.0269
C30 C 0.0411(7) 0.5724(6) 0.0567(6)
C32 C 0.5849(7) 0.6155(6) 0.0375(6)
C33 C 0.1134(8) 0.6354(7) 0.0501(7)
C39 C 0.6863(7) 0.5899(6) 0.0312(6)
C44 C 0.4333(7) 0.5947(7) 0.0932(6)
H21 H 0.3959 0.5647 0.1265
C45 C 0.1516(7) 0.7749(6) 0.0399(6)
C49 C 0.1209(7) 0.8613(6) 0.0381(6)
Zn8 Zn 0.85648(9) 0.50466(6) 0.05778(8)
Zn11 Zn 0.13317(9) 0.45426(6) 0.18494(8)
Zn1 Zn 0.86884(9) 0.49450(7) 0.56175(8)
Zn3 Zn 0.86683(9) 0.95426(6) 0.81506(8)
O1 O 0.8201(5) 0.4008(4) 0.4960(4)
O3 O 0.0858(5) 0.9571(5) 0.8302(4)
O5 O 0.9237(5) 0.4555(6) 0.6781(4)
O9 O 0.2571(6) 0.4008(5) 0.6681(5)
O10 O 0.1849(6) 0.5494(5) 0.7550(5)
O11 O 0.7444(6) 0.9129(5) 0.8459(5)
O13 O 0.2510(6) 0.0451(5) 0.4101(5)
O14 O 0.7387(7) 0.8473(6) 0.7274(5)
O16 O 0.2719(6) 0.3338(5) 0.7897(5)
O20 O 0.2614(6) 0.1111(5) 0.5336(5)
C1 C 0.4496(7) 0.0797(6) 0.4050(6)
H1 H 0.4151 0.0433 0.3651
O21 O 0.7280(6) 0.6096(5) 0.9715(5)
C2 C 0.7087(7) 0.1710(6) 0.4615(6)
O22 O 0.9782(6) 0.3513(5) 0.5292(5)
C4 C 0.9569(8) 0.3888(6) 0.7041(6)
C5 C 0.5971(7) 0.1530(7) 0.4578(6)
C7 C 0.4467(7) 0.8576(6) 0.8500(6)
H4 H 0.4118 0.8826 0.8888
C8 C 0.5593(7) 0.3553(6) 0.6597(6)
H5 H 0.5923 0.3825 0.6210
C9 C 0.2965(7) 0.7839(6) 0.7950(6)
C10 C 0.0542(7) 0.8888(6) 0.8134(6)
C11 C 0.8505(8) 0.1802(7) 0.7202(7)
C12 C 0.3971(7) 0.8022(6) 0.7932(6)
C13 C 0.5541(7) 0.2547(6) 0.7651(6)
H6 H 0.5842 0.2122 0.7990
C17 C 0.7746(7) 0.1095(6) 0.4503(5)
H8 H 0.7496 0.0579 0.4360
C18 C 0.7134(8) 0.2801(7) 0.7102(6)
C19 C 0.7837(7) 0.3386(7) 0.7058(6)
H9 H 0.7632 0.3924 0.7022
C20 C 0.7019(8) 0.8685(7) 0.7879(6)
C21 C 0.4525(8) 0.7644(7) 0.7380(6)
H10 H 0.4225 0.7246 0.7000
C22 C 0.6105(7) 0.2983(6) 0.7118(6)
C23 C 0.8752(7) 0.1240(6) 0.4599(6)
C24 C 0.3027(8) 0.3576(7) 0.7251(6)
C26 C 0.2277(7) 0.8401(7) 0.8078(6)
H12 H 0.2493 0.8930 0.8196
C27 C 0.9118(7) 0.2003(6) 0.4752(6)
H13 H 0.9810 0.2108 0.4806
C28 C 0.1600(9) 0.6853(7) 0.7775(7)
C29 C 0.3994(7) 0.1167(6) 0.4629(6)
C31 C 0.9457(7) 0.0614(6) 0.4507(6)
C34 C 0.7496(8) 0.1981(7) 0.7194(7)
H14 H 0.7043 0.1565 0.7249
C35 C 0.5986(7) 0.8430(7) 0.7937(6)
C36 C 0.5482(7) 0.0956(7) 0.4055(6)
H15 H 0.5832 0.0666 0.3695
C37 C 0.8855(7) 0.3202(6) 0.7067(6)
C38 C 0.2594(8) 0.7020(7) 0.7817(6)
H16 H 0.3046 0.6605 0.7761
C40 C 0.4415(8) 0.6956(7) 0.9914(6)
H17 H 0.4101 0.7375 0.9574
C41 C 0.4571(8) 0.2754(7) 0.7660(6)
H18 H 0.4222 0.2482 0.8034
C42 C 0.5514(7) 0.7862(6) 0.7403(6)
H19 H 0.5879 0.7605 0.7030
C43 C 0.5476(8) 0.1926(7) 0.5116(7)
H20 H 0.5822 0.2326 0.5467
C46 C 0.2987(8) 0.0908(7) 0.4696(6)
C47 C 0.1253(7) 0.8215(6) 0.8039(6)
C48 C 0.4074(8) 0.3345(7) 0.7147(6)
C50 C 0.4500(8) 0.1773(7) 0.5172(7)
H22 H 0.4173 0.2055 0.5554
C51 C 0.8451(7) 0.2607(6) 0.4826(6)
C52 C 0.7436(7) 0.2460(6) 0.4763(6)
H23 H 0.6991 0.2880 0.4823
C53 C 0.5378(7) 0.6769(6) 0.9863(6)
H24 H 0.5720 0.7047 0.9489
C54 C 0.8841(8) 0.0948(6) 0.7273(6)
C55 C 0.4594(7) 0.3742(7) 0.6625(6)
H25 H 0.4274 0.4153 0.6275
C56 C 0.1225(9) 0.6019(8) 0.7608(8)
C57 C 0.9181(8) 0.2418(7) 0.7151(6)
H26 H 0.9866 0.2300 0.7175
C58 C 0.5470(8) 0.8771(7) 0.8510(6)
H27 H 0.5796 0.9139 0.8913
C59 C 0.8865(7) 0.3416(6) 0.5071(6)
C60 C 0.0926(9) 0.7456(7) 0.7873(7)
H28 H 0.0237 0.7338 0.7824
O23 O 0.9667(8) 0.0783(6) 0.7094(10)
O24 O 0.0308(8) 0.5964(7) 0.7274(10)
O25 O 0.9632(5) 0.8708(5) 0.8009(5)
O26 O 0.0905(5) 0.4939(5) 0.5788(4)
O30 O 0.7490(6) 0.5451(5) 0.5899(5)
O32 O 0.9609(6) 0.5730(5) 0.5284(5)
O6 O 0.9095(5) 0.9939(5) 0.4212(4)
Zn13 Zn 0.86081(9) 0.95486(7) 0.30539(8)
O15 O 0.9501(6) 0.5900(5) 0.0455(5)
O4 O 0.0368(5) 0.3708(5) 0.1991(5)
O3_2 O 0.9142(5) 0.4571(5) 0.1698(4)
O10_2 O 0.8151(6) 0.0494(5) 0.2450(5)
O11_2 O 0.2556(6) 0.4129(5) 0.1541(5)
O14_2 O 0.2613(7) 0.3473(6) 0.2726(5)
O21_2 O 0.2720(6) 0.1096(5) 0.0285(5)
C7_2 C 0.5533(7) 0.3576(6) 0.1500(6)
H4_2 H 0.5882 0.3826 0.1112
C9_2 C 0.7035(7) 0.2839(6) 0.2050(6)
C10_2 C 0.9458(7) 0.3888(6) 0.1866(6)
C12_2 C 0.6029(7) 0.3022(6) 0.2068(6)
C20_2 C 0.2981(8) 0.3685(7) 0.2121(6)
C21_2 C 0.5475(8) 0.2644(7) 0.2620(6)
H10_2 H 0.5775 0.2246 0.3000
C26_2 C 0.7723(7) 0.3401(7) 0.1922(6)
H12_2 H 0.7507 0.3930 0.1804
C28_2 C 0.8400(9) 0.1853(7) 0.2225(7)
C35_2 C 0.4014(7) 0.3430(7) 0.2063(6)
C38_2 C 0.7406(8) 0.2020(7) 0.2183(6)
H16_2 H 0.6954 0.1605 0.2239
C40_2 C 0.5585(8) 0.1956(7) 0.0086(6)
H17_2 H 0.5899 0.2375 0.0426
C42_2 C 0.4486(7) 0.2862(6) 0.2597(6)
H19_2 H 0.4121 0.2605 0.2970
C47_2 C 0.8747(7) 0.3215(6) 0.1961(6)
C53_2 C 0.4622(7) 0.1769(6) 0.0137(6)
H24_2 H 0.4280 0.2047 0.0511
C56_2 C 0.8775(9) 0.1019(8) 0.2392(8)
C58_2 C 0.4530(8) 0.3771(7) 0.1490(6)
H27_2 H 0.4204 0.4139 0.1087
C60_2 C 0.9074(9) 0.2456(7) 0.2127(7)
H28_2 H 0.9763 0.2338 0.2176
O24_2 O 0.9692(8) 0.0964(7) 0.2726(10)
O29_2 O 0.1733(5) 0.5478(5) 0.2521(4)
O2_2 O 0.8197(5) 0.4095(4) 0.9892(4)
O19_2 O 0.9599(5) 0.3808(4) 0.9424(4)
C3_2 C 0.4678(7) 0.0769(6) 0.9056(6)
H2_2 H 0.4349 0.0388 0.8668
C6_2 C 0.9159(8) 0.2156(6) 0.9538(6)
H3_2 H 0.9832 0.2289 0.9521
C14_2 C 0.6118(7) 0.1565(7) 0.9564(6)
C15_2 C 0.7191(7) 0.1778(6) 0.9565(5)
C16_2 C 0.7880(7) 0.1166(6) 0.9479(5)
H7_2 H 0.7662 0.0632 0.9408
C25_2 C 0.7497(8) 0.2535(7) 0.9644(6)
H11_2 H 0.7037 0.2936 0.9731
C30_2 C 0.9589(7) 0.0724(6) 0.9433(6)
C32_2 C 0.4151(7) 0.1155(6) 0.9625(6)
C33_2 C 0.8866(8) 0.1354(7) 0.9499(7)
C39_2 C 0.3137(7) 0.0899(6) 0.9688(6)
C44_2 C 0.5667(7) 0.0947(7) 0.9068(6)
H21_2 H 0.6041 0.0647 0.8735
C45_2 C 0.8484(7) 0.2749(6) 0.9601(6)
C49_2 C 0.8791(7) 0.3613(6) 0.9619(6)
O1_2 O 0.1799(5) 0.9008(4) 0.5040(4)
O5_2 O 0.0763(5) 0.9555(6) 0.3219(4)
O9_2 O 0.7429(6) 0.9008(5) 0.3319(5)
O16_2 O 0.7281(6) 0.8338(5) 0.2103(5)
O20_2 O 0.7386(6) 0.6111(5) 0.4664(5)
C1_2 C 0.5504(7) 0.5797(6) 0.5950(6)
H1_2 H 0.5849 0.5433 0.6349
C2_2 C 0.2913(7) 0.6710(6) 0.5385(6)
O22_2 O 0.0218(6) 0.8513(5) 0.4708(5)
C4_2 C 0.0431(8) 0.8888(6) 0.2959(6)
C5_2 C 0.4029(7) 0.6530(7) 0.5422(6)
C8_2 C 0.4407(7) 0.8553(6) 0.3403(6)
H5_2 H 0.4077 0.8825 0.3790
C11_2 C 0.1495(8) 0.6802(7) 0.2798(7)
C13_2 C 0.4459(7) 0.7547(6) 0.2349(6)
H6_2 H 0.4158 0.7122 0.2010
C17_2 C 0.2254(7) 0.6095(6) 0.5497(5)
H8_2 H 0.2504 0.5579 0.5640
C18_2 C 0.2866(8) 0.7801(7) 0.2898(6)
C19_2 C 0.2163(7) 0.8386(7) 0.2942(6)
H9_2 H 0.2368 0.8924 0.2978
C22_2 C 0.3895(7) 0.7983(6) 0.2882(6)
C23_2 C 0.1248(7) 0.6240(6) 0.5401(6)
C24_2 C 0.6973(8) 0.8576(7) 0.2749(6)
C27_2 C 0.0882(7) 0.7003(6) 0.5248(6)
H13_2 H 0.0190 0.7108 0.5194
C29_2 C 0.6006(7) 0.6167(6) 0.5371(6)
C31_2 C 0.0543(7) 0.5614(6) 0.5493(6)
C34_2 C 0.2504(8) 0.6981(7) 0.2806(7)
H14_2 H 0.2957 0.6565 0.2751
C36_2 C 0.4518(7) 0.5956(7) 0.5945(6)
H15_2 H 0.4168 0.5666 0.6305
C37_2 C 0.1145(7) 0.8202(6) 0.2933(6)
C41_2 C 0.5429(8) 0.7754(7) 0.2340(6)
H18_2 H 0.5778 0.7482 0.1966
C43_2 C 0.4524(8) 0.6926(7) 0.4884(7)
H20_2 H 0.4178 0.7326 0.4533
C46_2 C 0.7013(8) 0.5908(7) 0.5304(6)
C48_2 C 0.5926(8) 0.8345(7) 0.2853(6)
C50_2 C 0.5500(8) 0.6773(7) 0.4828(7)
H22_2 H 0.5827 0.7055 0.4446
C51_2 C 0.1549(7) 0.7607(6) 0.5174(6)
C52_2 C 0.2564(7) 0.7460(6) 0.5237(6)
H23_2 H 0.3009 0.7880 0.5177
C54_2 C 0.1159(8) 0.5948(6) 0.2727(6)
C55_2 C 0.5406(7) 0.8742(7) 0.3375(6)
H25_2 H 0.5726 0.9153 0.3725
C57_2 C 0.0819(8) 0.7418(7) 0.2849(6)
H26_2 H 0.0134 0.7300 0.2825
C59_2 C 0.1135(7) 0.8416(6) 0.4929(6)
O23_2 O 0.0333(8) 0.5783(6) 0.2906(10)
O27 O 0.9501(5) 0.8737(5) 0.2706(5)
loop_
_geom_bond_atom_site_label_1
_geom_bond_atom_site_label_2
_geom_bond_site_symmetry_1
_geom_bond_site_symmetry_2
Zn12 O7 1_555 1_555
O31 Zn2 1_555 1_555
O33 Zn2 1_555 1_555
O2 C49 1_555 1_555
O8 C30 1_555 1_555
O18 C39 1_555 1_555
O19 C49 1_555 1_555
C3 H2 1_555 1_555
C6 H3 1_555 1_555
C14 C15 1_555 1_555
C15 C16 1_555 1_555
C16 H7 1_555 1_555
C25 C15 1_555 1_555
H11 C25 1_555 1_555
C30 C33 1_555 1_555
C32 C3 1_555 1_555
C33 C6 1_555 1_555
C39 C32 1_555 1_555
C44 C3 1_555 1_555
H21 C44 1_555 1_555
C45 C6 1_555 1_555
C49 C45 1_555 1_555
Zn8 O18 1_555 1_555
Zn11 O8 1_555 1_555
C14 C44 1_555 1_555
C16 C33 1_555 1_555
C25 C45 1_555 1_555
Zn1 O1 1_555 1_555
Zn3 O11 1_555 1_555
Zn12 O9 1_555 1_555
O1 C59 1_555 1_555
O5 Zn1 1_555 1_555
O9 C24 1_555 1_555
O10 Zn12 1_555 1_555
O11 C20 1_555 1_555
O29 C54 1_555 1_555
O13 C46 1_555 1_555
O14 C20 1_555 1_555
O16 C24 1_555 1_555
O20 C46 1_555 1_555
C1 H1 1_555 1_555
C2 C5 1_555 1_555
O22 C59 1_555 1_555
C4 O5 1_555 1_555
C5 C36 1_555 1_555
C7 H4 1_555 1_555
C8 H5 1_555 1_555
C9 C12 1_555 1_555
C10 O3 1_555 1_555
C11 C34 1_555 1_555
C12 C7 1_555 1_555
C13 H6 1_555 1_555
C17 C2 1_555 1_555
H8 C17 1_555 1_555
C18 C19 1_555 1_555
C19 H9 1_555 1_555
C20 C35 1_555 1_555
C21 C12 1_555 1_555
H10 C21 1_555 1_555
C22 C8 1_555 1_555
C23 C17 1_555 1_555
C24 C48 1_555 1_555
C26 C9 1_555 1_555
H12 C26 1_555 1_555
C27 C23 1_555 1_555
H13 C27 1_555 1_555
C28 C38 1_555 1_555
C29 C1 1_555 1_555
C31 C23 1_555 1_555
C34 C18 1_555 1_555
H14 C34 1_555 1_555
C35 C42 1_555 1_555
C36 C1 1_555 1_555
H15 C36 1_555 1_555
C37 C4 1_555 1_555
C38 C9 1_555 1_555
H16 C38 1_555 1_555
H17 C40 1_555 1_555
C41 C13 1_555 1_555
H18 C41 1_555 1_555
C42 C21 1_555 1_555
H19 C42 1_555 1_555
C43 C5 1_555 1_555
H20 C43 1_555 1_555
C46 C29 1_555 1_555
C47 C10 1_555 1_555
C48 C41 1_555 1_555
C50 C29 1_555 1_555
H22 C50 1_555 1_555
C51 C27 1_555 1_555
C52 C2 1_555 1_555
H23 C52 1_555 1_555
H24 C53 1_555 1_555
C54 C11 1_555 1_555
C55 C8 1_555 1_555
H25 C55 1_555 1_555
C56 O10 1_555 1_555
C57 C11 1_555 1_555
H26 C57 1_555 1_555
C58 C7 1_555 1_555
H27 C58 1_555 1_555
C59 C51 1_555 1_555
C60 C28 1_555 1_555
H28 C60 1_555 1_555
O23 C54 1_555 1_555
O24 C56 1_555 1_555
O25 Zn3 1_555 1_555
O26 Zn12 1_555 1_555
O30 Zn1 1_555 1_555
O32 Zn1 1_555 1_555
C13 C22 1_555 1_555
C18 C22 1_555 1_555
C19 C37 1_555 1_555
C26 C47 1_555 1_555
C28 C56 1_555 1_555
C35 C58 1_555 1_555
C37 C57 1_555 1_555
C40 C53 1_555 1_555
C43 C50 1_555 1_555
C47 C60 1_555 1_555
C48 C55 1_555 1_555
C51 C52 1_555 1_555
Zn13 O6 1_555 1_555
Zn8 O15 1_555 1_555
Zn11 O4 1_555 1_555
Zn11 O11_2 1_555 1_555
O3_2 Zn8 1_555 1_555
O11_2 C20_2 1_555 1_555
O14_2 C20_2 1_555 1_555
C7_2 H4_2 1_555 1_555
C9_2 C12_2 1_555 1_555
C10_2 O3_2 1_555 1_555
C12_2 C7_2 1_555 1_555
C20_2 C35_2 1_555 1_555
C21_2 C12_2 1_555 1_555
H10_2 C21_2 1_555 1_555
C26_2 C9_2 1_555 1_555
H12_2 C26_2 1_555 1_555
C28_2 C38_2 1_555 1_555
C35_2 C42_2 1_555 1_555
C38_2 C9_2 1_555 1_555
H16_2 C38_2 1_555 1_555
H17_2 C40_2 1_555 1_555
C42_2 C21_2 1_555 1_555
H19_2 C42_2 1_555 1_555
C47_2 C10_2 1_555 1_555
H24_2 C53_2 1_555 1_555
C56_2 O10_2 1_555 1_555
C58_2 C7_2 1_555 1_555
H27_2 C58_2 1_555 1_555
C60_2 C28_2 1_555 1_555
H28_2 C60_2 1_555 1_555
O24_2 C56_2 1_555 1_555
O29_2 Zn11 1_555 1_555
C26_2 C47_2 1_555 1_555
C28_2 C56_2 1_555 1_555
C35_2 C58_2 1_555 1_555
C40_2 C53_2 1_555 1_555
C47_2 C60_2 1_555 1_555
O2_2 C49_2 1_555 1_555
O28 C30_2 1_555 1_555
O33 C39_2 1_555 1_555
O19_2 C49_2 1_555 1_555
C3_2 H2_2 1_555 1_555
C6_2 H3_2 1_555 1_555
C14_2 C15_2 1_555 1_555
C15_2 C16_2 1_555 1_555
C16_2 H7_2 1_555 1_555
C25_2 C15_2 1_555 1_555
H11_2 C25_2 1_555 1_555
C30_2 C33_2 1_555 1_555
C32_2 C3_2 1_555 1_555
C33_2 C6_2 1_555 1_555
C39_2 C32_2 1_555 1_555
C44_2 C3_2 1_555 1_555
H21_2 C44_2 1_555 1_555
C45_2 C6_2 1_555 1_555
C49_2 C45_2 1_555 1_555
C14_2 C44_2 1_555 1_555
C16_2 C33_2 1_555 1_555
C25_2 C45_2 1_555 1_555
Zn6 O1_2 1_555 1_555
Zn13 O9_2 1_555 1_555
O1_2 C59_2 1_555 1_555
O5_2 Zn6 1_555 1_555
O26 C31_2 1_555 1_555
O9_2 C24_2 1_555 1_555
O29_2 C54_2 1_555 1_555
O30 C46_2 1_555 1_555
O16_2 C24_2 1_555 1_555
O20_2 C46_2 1_555 1_555
C1_2 H1_2 1_555 1_555
C2_2 C5_2 1_555 1_555
O22_2 C59_2 1_555 1_555
C4_2 O5_2 1_555 1_555
C5_2 C36_2 1_555 1_555
C8_2 H5_2 1_555 1_555
C11_2 C34_2 1_555 1_555
C13_2 H6_2 1_555 1_555
C17_2 C2_2 1_555 1_555
H8_2 C17_2 1_555 1_555
C18_2 C19_2 1_555 1_555
C19_2 H9_2 1_555 1_555
C22_2 C8_2 1_555 1_555
C23_2 C17_2 1_555 1_555
C24_2 C48_2 1_555 1_555
C27_2 C23_2 1_555 1_555
H13_2 C27_2 1_555 1_555
C29_2 C1_2 1_555 1_555
C31_2 C23_2 1_555 1_555
C34_2 C18_2 1_555 1_555
H14_2 C34_2 1_555 1_555
C36_2 C1_2 1_555 1_555
H15_2 C36_2 1_555 1_555
C37_2 C4_2 1_555 1_555
C41_2 C13_2 1_555 1_555
H18_2 C41_2 1_555 1_555
C43_2 C5_2 1_555 1_555
H20_2 C43_2 1_555 1_555
C46_2 C29_2 1_555 1_555
C48_2 C41_2 1_555 1_555
C50_2 C29_2 1_555 1_555
H22_2 C50_2 1_555 1_555
C51_2 C27_2 1_555 1_555
C52_2 C2_2 1_555 1_555
H23_2 C52_2 1_555 1_555
C54_2 C11_2 1_555 1_555
C55_2 C8_2 1_555 1_555
H25_2 C55_2 1_555 1_555
C57_2 C11_2 1_555 1_555
H26_2 C57_2 1_555 1_555
C59_2 C51_2 1_555 1_555
O23_2 C54_2 1_555 1_555
O27 Zn13 1_555 1_555
C13_2 C22_2 1_555 1_555
C18_2 C22_2 1_555 1_555
C19_2 C37_2 1_555 1_555
C37_2 C57_2 1_555 1_555
C43_2 C50_2 1_555 1_555
C48_2 C55_2 1_555 1_555
C51_2 C52_2 1_555 1_555

#END
