
###############################################################################
#
# This file contains modified crystal structure data generated from the
# MOF subset of the Cambridge Structural Database (CSD) v543 
# hosted by the Cambridge Crystallographic Data Centre (CCDC).
#
# This work is licensed under the Creative Commons
# Attribution-NonCommercial-ShareAlike 4.0 International License.
# To view a copy of this license, visit
# http://creativecommons.org/licenses/by-nc-sa/4.0/
# or send a letter to
# Creative Commons, PO Box 1866, Mountain View, CA 94042, USA.
#
# CIF created using the CSD Python API on 29 September 2022
# The structure has been converted into the P1 space group
# The structure has a 3D framework
# The original CSD entry MUZHUL is in the monoclinic crystal system
# The framework has been calculated to contain at least 10.0% void space
# The void calculation uses a probe of radius 1.32A, grid spacing 0.4
# The framework is charged, counterions have been retained in the structure
# H atom positions have been added when not included in the experimental data
# Generated hydrogen atom positions removed from atoms on special positions
#
###############################################################################

data_MUZHUL
_chemical_formula_moiety         '(C40 H32 O40 Zn1)n'
_symmetry_cell_setting           triclinic
_symmetry_space_group_name_H-M   'P 1'
_symmetry_Int_Tables_number      1
_space_group_name_Hall           'P 1'
loop_
_symmetry_equiv_pos_site_id
_symmetry_equiv_pos_as_xyz
1 x,y,z
_cell_length_a                   9.854(2)
_cell_length_b                   10.925(2)
_cell_length_c                   16.300(3)
_cell_angle_alpha                90
_cell_angle_beta                 91.13(3)
_cell_angle_gamma                90
_cell_volume                     1754.43
loop_
_atom_site_label
_atom_site_type_symbol
_atom_site_fract_x
_atom_site_fract_y
_atom_site_fract_z
O6 O 0.0634(5) 0.0907(5) 0.3381(3)
Zn4 Zn 0.0000 0.02042(7) 0.7500
O10 O 0.0164(5) 0.1993(7) 0.8498(3)
Zn1 Zn 0.0000 0.97958(7) 0.2500
O8 O 0.1560(4) 0.9139(3) 0.1855(2)
C1 C 0.6796(5) 0.2847(4) 0.0699(3)
C2 C 0.7850(5) 0.2013(4) 0.0773(3)
C4 C 0.6009(5) 0.3336(5) 0.1415(3)
C5 C 0.8240(6) 0.1426(5) 0.1585(3)
O1 O 0.9366(5) 0.0907(5) 0.1619(3)
O2 O 0.6560(4) 0.4139(3) 0.1855(2)
O3 O 0.4836(5) 0.3007(7) 0.1502(3)
O4 O 0.7429(6) 0.1478(5) 0.2142(3)
Zn2 Zn 0.5000 0.47958(7) 0.2500
C8 C 0.8550(5) 0.1674(4) 0.0068(3)
H2 H 0.9261 0.1117 0.0114
C3 C 0.6450(5) 0.3326(4) 0.9932(3)
H1 H 0.5739 0.3883 0.9886
Zn3 Zn 0.5000 0.52042(7) 0.7500
Zn4_2 Zn 1.0000 0.02042(7) 0.7500
C6 C 0.8204(5) 0.2153(4) 0.9301(3)
C7 C 0.7150(5) 0.2987(4) 0.9227(3)
C9 C 0.8991(5) 0.1664(5) 0.8585(3)
C10 C 0.6760(6) 0.3574(5) 0.8415(3)
O5 O 0.5634(5) 0.4093(5) 0.8381(3)
O7 O 0.8440(4) 0.0861(3) 0.8145(2)
O11 O 0.7571(6) 0.3522(5) 0.7858(3)
Zn1_2 Zn 1.0000 0.97958(7) 0.2500
O9 O 0.8440(4) 0.9139(3) 0.3145(2)
C1_2 C 0.3204(5) 0.2847(4) 0.4301(3)
C2_2 C 0.2150(5) 0.2013(4) 0.4227(3)
C3_2 C 0.3550(5) 0.3326(4) 0.5068(3)
H1_2 H 0.4261 0.3883 0.5114
C4_2 C 0.3991(5) 0.3336(5) 0.3585(3)
C5_2 C 0.1760(6) 0.1426(5) 0.3415(3)
O2_2 O 0.3440(4) 0.4139(3) 0.3145(2)
O3_2 O 0.5164(5) 0.3007(7) 0.3498(3)
O4_2 O 0.2571(6) 0.1478(5) 0.2858(3)
C6_2 C 0.1796(5) 0.2153(4) 0.5699(3)
C7_2 C 0.2850(5) 0.2987(4) 0.5773(3)
C8_2 C 0.1450(5) 0.1674(4) 0.4932(3)
H2_2 H 0.0739 0.1117 0.4886
C9_2 C 0.1009(5) 0.1664(5) 0.6415(3)
C10_2 C 0.3240(6) 0.3574(5) 0.6585(3)
O5_2 O 0.4366(5) 0.4093(5) 0.6619(3)
O7_2 O 0.1560(4) 0.0861(3) 0.6855(2)
O11_2 O 0.2429(6) 0.3522(5) 0.7142(3)
O10_2 O 0.9836(5) 0.1993(7) 0.6502(3)
C1_3 C 0.1796(5) 0.7847(4) 0.0699(3)
C2_3 C 0.2850(5) 0.7013(4) 0.0773(3)
C4_3 C 0.1009(5) 0.8336(5) 0.1415(3)
C5_3 C 0.3240(6) 0.6426(5) 0.1585(3)
O1_2 O 0.4366(5) 0.5907(5) 0.1619(3)
O4_3 O 0.2429(6) 0.6478(5) 0.2142(3)
C8_3 C 0.3550(5) 0.6674(4) 0.0068(3)
H2_3 H 0.4261 0.6117 0.0114
O6_2 O 0.5634(5) 0.5907(5) 0.3381(3)
C3_3 C 0.1450(5) 0.8326(4) 0.9932(3)
H1_3 H 0.0739 0.8883 0.9886
C6_3 C 0.3204(5) 0.7153(4) 0.9301(3)
C7_3 C 0.2150(5) 0.7987(4) 0.9227(3)
C9_3 C 0.3991(5) 0.6664(5) 0.8585(3)
C10_3 C 0.1760(6) 0.8574(5) 0.8415(3)
O5_3 O 0.0634(5) 0.9093(5) 0.8381(3)
O7_3 O 0.3440(4) 0.5861(3) 0.8145(2)
O10_3 O 0.5164(5) 0.6993(7) 0.8498(3)
O11_3 O 0.2571(6) 0.8522(5) 0.7858(3)
O3_3 O 0.9836(5) 0.8007(7) 0.1502(3)
O3_4 O 0.0164(5) 0.8007(7) 0.3498(3)
C1_4 C 0.8204(5) 0.7847(4) 0.4301(3)
C2_4 C 0.7150(5) 0.7013(4) 0.4227(3)
C3_4 C 0.8550(5) 0.8326(4) 0.5068(3)
H1_4 H 0.9261 0.8883 0.5114
C4_4 C 0.8991(5) 0.8336(5) 0.3585(3)
C5_4 C 0.6760(6) 0.6426(5) 0.3415(3)
O4_4 O 0.7571(6) 0.6478(5) 0.2858(3)
C6_4 C 0.6796(5) 0.7153(4) 0.5699(3)
C7_4 C 0.7850(5) 0.7987(4) 0.5773(3)
C8_4 C 0.6450(5) 0.6674(4) 0.4932(3)
H2_4 H 0.5739 0.6117 0.4886
C9_4 C 0.6009(5) 0.6664(5) 0.6415(3)
C10_4 C 0.8240(6) 0.8574(5) 0.6585(3)
O5_4 O 0.9366(5) 0.9093(5) 0.6619(3)
O7_4 O 0.6560(4) 0.5861(3) 0.6855(2)
O10_4 O 0.4836(5) 0.6993(7) 0.6502(3)
O11_4 O 0.7429(6) 0.8522(5) 0.7142(3)
O12 O 0.2049(14) 0.2162(18) 0.1103(7)
O12_2 O 0.7951(14) 0.2162(18) 0.3897(7)
O12_3 O 0.7049(14) 0.7162(18) 0.1103(7)
O12_4 O 0.2951(14) 0.7162(18) 0.3897(7)
O12_5 O 0.7951(14) 0.7838(18) 0.8897(7)
O12_6 O 0.2049(14) 0.7838(18) 0.6103(7)
O12_7 O 0.2951(14) 0.2838(18) 0.8897(7)
O12_8 O 0.7049(14) 0.2838(18) 0.6103(7)
loop_
_geom_bond_atom_site_label_1
_geom_bond_atom_site_label_2
_geom_bond_site_symmetry_1
_geom_bond_site_symmetry_2
O8 Zn1 1_555 1_555
C1 C2 1_555 1_555
C2 C5 1_555 1_555
C4 C1 1_555 1_555
C5 O1 1_555 1_555
O2 C4 1_555 1_555
O3 C4 1_555 1_555
O4 C5 1_555 1_555
Zn2 O2 1_555 1_555
C8 C2 1_555 1_555
H2 C8 1_555 1_555
H1 C3 1_555 1_555
Zn3 O5 1_555 1_555
Zn4_2 O7 1_555 1_555
C6 C7 1_555 1_555
C7 C3 1_555 1_555
C9 C6 1_555 1_555
C10 C7 1_555 1_555
O5 C10 1_555 1_555
O7 C9 1_555 1_555
O11 C10 1_555 1_555
O9 Zn1_2 1_555 1_555
C1_2 C2_2 1_555 1_555
C2_2 C5_2 1_555 1_555
C3_2 C1_2 1_555 1_555
H1_2 C3_2 1_555 1_555
C4_2 C1_2 1_555 1_555
C5_2 O6 1_555 1_555
O2_2 C4_2 1_555 1_555
O3_2 C4_2 1_555 1_555
O4_2 C5_2 1_555 1_555
Zn2 O2_2 1_555 1_555
Zn3 O5_2 1_555 1_555
Zn4 O7_2 1_555 1_555
C6_2 C7_2 1_555 1_555
C7_2 C3_2 1_555 1_555
C8_2 C2_2 1_555 1_555
H2_2 C8_2 1_555 1_555
C9_2 C6_2 1_555 1_555
C10_2 C7_2 1_555 1_555
O5_2 C10_2 1_555 1_555
O7_2 C9_2 1_555 1_555
O11_2 C10_2 1_555 1_555
C6_2 C8_2 1_555 1_555
Zn2 O1_2 1_555 1_555
C1_3 C2_3 1_555 1_555
C2_3 C5_3 1_555 1_555
C4_3 C1_3 1_555 1_555
C5_3 O1_2 1_555 1_555
O8 C4_3 1_555 1_555
O4_3 C5_3 1_555 1_555
C8_3 C2_3 1_555 1_555
H2_3 C8_3 1_555 1_555
O6_2 Zn2 1_555 1_555
H1_3 C3_3 1_555 1_555
Zn3 O7_3 1_555 1_555
C6_3 C7_3 1_555 1_555
C7_3 C3_3 1_555 1_555
C9_3 C6_3 1_555 1_555
C10_3 C7_3 1_555 1_555
O5_3 C10_3 1_555 1_555
O7_3 C9_3 1_555 1_555
O10_3 C9_3 1_555 1_555
O11_3 C10_3 1_555 1_555
C1_4 C2_4 1_555 1_555
C2_4 C5_4 1_555 1_555
C3_4 C1_4 1_555 1_555
H1_4 C3_4 1_555 1_555
C4_4 C1_4 1_555 1_555
C5_4 O6_2 1_555 1_555
O9 C4_4 1_555 1_555
O4_4 C5_4 1_555 1_555
Zn3 O7_4 1_555 1_555
C6_4 C7_4 1_555 1_555
C7_4 C3_4 1_555 1_555
C8_4 C2_4 1_555 1_555
H2_4 C8_4 1_555 1_555
C9_4 C6_4 1_555 1_555
C10_4 C7_4 1_555 1_555
O5_4 C10_4 1_555 1_555
O7_4 C9_4 1_555 1_555
O10_4 C9_4 1_555 1_555
O11_4 C10_4 1_555 1_555
C6_4 C8_4 1_555 1_555

#END
