
###############################################################################
#
# This file contains modified crystal structure data generated from the
# MOF subset of the Cambridge Structural Database (CSD) v543 
# hosted by the Cambridge Crystallographic Data Centre (CCDC).
#
# This work is licensed under the Creative Commons
# Attribution-NonCommercial-ShareAlike 4.0 International License.
# To view a copy of this license, visit
# http://creativecommons.org/licenses/by-nc-sa/4.0/
# or send a letter to
# Creative Commons, PO Box 1866, Mountain View, CA 94042, USA.
#
# CIF created using the CSD Python API on 29 September 2022
# The structure has been converted into the P1 space group
# The structure has a 3D framework
# The original CSD entry MUZHEV is in the triclinic crystal system
# The framework has been calculated to contain at least 10.0% void space
# The void calculation uses a probe of radius 1.32A, grid spacing 0.4
# H atom positions have been added when not included in the experimental data
#
###############################################################################

data_MUZHEV
_chemical_formula_moiety         '(C46 H44 N8 O13 Zn2)n'
_symmetry_cell_setting           triclinic
_symmetry_space_group_name_H-M   'P 1'
_symmetry_Int_Tables_number      1
_space_group_name_Hall           'P 1'
loop_
_symmetry_equiv_pos_site_id
_symmetry_equiv_pos_as_xyz
1 x,y,z
_cell_length_a                   9.9236(13)
_cell_length_b                   11.6713(15)
_cell_length_c                   11.9072(16)
_cell_angle_alpha                98.271(2)
_cell_angle_beta                 109.8030(10)
_cell_angle_gamma                99.816(2)
_cell_volume                     1247.96
loop_
_atom_site_label
_atom_site_type_symbol
_atom_site_fract_x
_atom_site_fract_y
_atom_site_fract_z
_atom_site_U_iso_or_equiv
_atom_site_thermal_displace_type
H31 H 0.2591 0.0389 0.6423 0.0520 Uiso
Zn5 Zn 0.11008(5) 0.10047(4) 0.84054(4) 0.0338 Uani
C1 C 0.0062(4) 0.4592(3) 0.6074(4) 0.0328 Uani
C2 C 0.0494(4) 0.3976(3) 0.5213(4) 0.0303 Uani
C4 C 0.0109(6) 0.4170(4) 0.7213(4) 0.0503 Uani
H3 H 0.1039 0.3954 0.7570 0.0600 Uiso
C5 C 0.1027(6) 0.5988(5) 0.8923(5) 0.0841 Uani
H4 H 0.2033 0.6116 0.9090 0.1010 Uiso
C6 C 0.0328(7) 0.6679(5) 0.9427(5) 0.0847 Uani
C8 C 0.1069(4) 0.2859(3) 0.5354(4) 0.0347 Uani
H7 H 0.1985 0.2956 0.5212 0.0420 Uiso
H8 H 0.1282 0.2760 0.6187 0.0420 Uiso
C11 C 0.0074(5) 0.1255(3) 0.3457(4) 0.0346 Uani
H11 H 0.0772 0.1528 0.3137 0.0420 Uiso
H18 H 0.3682 0.0211 0.3450 0.0670 Uiso
N4 N 0.0034(3) 0.1787(2) 0.4516(3) 0.0312 Uani
O3 O 0.1076(3) 0.0017(3) 0.1534(3) 0.0501 Uani
C26 C 0.0425(4) 0.4387(3) 0.4169(4) 0.0346 Uani
H22 H 0.0717 0.3964 0.3604 0.0420 Uiso
H23 H 0.0675 0.6539 0.3001 0.0600 Uiso
C30 C 0.1336(5) 0.4752(4) 0.1837(4) 0.0482 Uani
H27 H 0.2248 0.5259 0.2315 0.0580 Uiso
C32 C 0.1139(5) 0.8871(4) 0.5310(4) 0.0433 Uani
H30 H 0.1436 0.8715 0.4653 0.0520 Uiso
C33 C 0.1769(5) 0.9790(4) 0.6291(4) 0.0437 Uani
H44 H 0.173(4) 0.097(3) 0.050(4) 0.0370 Uiso
N5 N 0.1154(4) 0.3778(3) 0.1041(3) 0.0457 Uani
N6 N 0.0052(4) 0.4929(3) 0.1877(3) 0.0432 Uani
N7 N 0.1008(4) 0.9709(3) 0.7071(3) 0.0347 Uani
O18 O 0.4431(3) 0.3359(3) 0.2451(3) 0.0547 Uani
O21 O 0.2090(4) 0.1325(3) 0.0141(3) 0.0437 Uani
Zn7 Zn 0.27297(6) 0.29746(4) 0.09358(4) 0.0416 Uani
O12 O 0.3522(4) 0.3646(2) 0.9798(3) 0.0633 Uani
H46 H 0.136386 0.123057 0.930021 . .
C12 C 0.4983(4) 0.6882(3) 0.2574(4) 0.0350 Uani
C13 C 0.4447(4) 0.7872(4) 0.2278(4) 0.0403 Uani
H12 H 0.4424 0.8094 0.1553 0.0480 Uiso
C14 C 0.3948(4) 0.8526(4) 0.3051(4) 0.0417 Uani
C15 C 0.3981(4) 0.8154(4) 0.4127(4) 0.0462 Uani
H13 H 0.3673 0.8599 0.4665 0.0550 Uiso
C16 C 0.4450(4) 0.7158(4) 0.4413(4) 0.0411 Uani
C17 C 0.4976(4) 0.6536(4) 0.3638(4) 0.0395 Uani
H14 H 0.5331 0.5874 0.3835 0.0470 Uiso
C18 C 0.5466(5) 0.6149(4) 0.1699(4) 0.0495 Uani
H15 H 0.4592 0.5710 0.1002 0.0590 Uiso
H16 H 0.5917 0.5568 0.2102 0.0590 Uiso
C19 C 0.6534(4) 0.6814(3) 0.1220(4) 0.0327 Uani
C20 C 0.3328(5) 0.9582(4) 0.2719(5) 0.0558 Uani
H17 H 0.3716 0.9876 0.2141 0.0670 Uiso
C21 C 0.1653(5) 0.9338(4) 0.2167(4) 0.0373 Uani
C22 C 0.4331(5) 0.6732(5) 0.5508(4) 0.0573 Uani
H19 H 0.3828 0.5895 0.5247 0.0690 Uiso
H20 H 0.3709 0.7156 0.5794 0.0690 Uiso
C23 C 0.5760(5) 0.6866(4) 0.6591(4) 0.0411 Uani
O1 O 0.7446(3) 0.7740(2) 0.1904(2) 0.0403 Uani
O2 O 0.6478(4) 0.6354(2) 0.0202(3) 0.0633 Uani
O4 O 0.0876(3) 0.8496(2) 0.2392(3) 0.0399 Uani
O5 O 0.6942(4) 0.7133(3) 0.6505(3) 0.0711 Uani
O6 O 0.5569(3) 0.6641(3) 0.7549(3) 0.0547 Uani
Zn4 Zn 0.88992(5) 0.89953(4) 0.15946(4) 0.0338 Uani
Zn9 Zn 0.72703(6) 0.70254(4) 0.90642(4) 0.0416 Uani
C3 C 0.9575(4) 0.5613(3) 0.5831(4) 0.0346 Uani
H1 H 0.9283 0.6036 0.6396 0.0420 Uiso
H2 H 0.9325 0.3461 0.6999 0.0600 Uiso
C7 C 0.8664(5) 0.5248(4) 0.8163(4) 0.0482 Uani
H6 H 0.7752 0.4741 0.7685 0.0580 Uiso
C9 C 0.8861(5) 0.1129(4) 0.4690(4) 0.0433 Uani
H9 H 0.8564 0.1285 0.5347 0.0520 Uiso
C10 C 0.8231(5) 0.0210(4) 0.3709(4) 0.0437 Uani
N1 N 0.8846(4) 0.6222(3) 0.8959(3) 0.0457 Uani
N2 N 0.9948(4) 0.5071(3) 0.8123(3) 0.0432 Uani
N3 N 0.8992(4) 0.0291(3) 0.2929(3) 0.0347 Uani
C24 C 0.9938(4) 0.5408(3) 0.3926(4) 0.0328 Uani
C25 C 0.9506(4) 0.6024(3) 0.4787(4) 0.0303 Uani
C27 C 0.9891(6) 0.5830(4) 0.2787(4) 0.0503 Uani
H24 H 0.8961 0.6046 0.2430 0.0600 Uiso
C28 C 0.8973(6) 0.4012(5) 0.1077(5) 0.0841 Uani
H25 H 0.7967 0.3884 0.0910 0.1010 Uiso
C29 C 0.9672(7) 0.3321(5) 0.0573(5) 0.0847 Uani
C31 C 0.8931(4) 0.7141(3) 0.4646(4) 0.0347 Uani
H28 H 0.8015 0.7044 0.4788 0.0420 Uiso
H29 H 0.8718 0.7240 0.3813 0.0420 Uiso
C34 C 0.9926(5) 0.8745(3) 0.6543(4) 0.0346 Uani
H32 H 0.9228 0.8472 0.6863 0.0420 Uiso
H42 H 0.827(4) 0.903(3) 0.950(4) 0.0370 Uiso
N9 N 0.9966(3) 0.8213(2) 0.5484(3) 0.0312 Uani
O19 O 0.7910(4) 0.8675(3) 0.9859(3) 0.0437 Uani
H10 H 0.7409 0.9611 0.3577 0.0520 Uiso
H45 H 0.781036 0.781783 0.954072 . .
H45_2 H 0.218964 0.218217 0.0459275 . .
O9 O 0.2554(3) 0.2260(2) 0.8096(2) 0.0403 Uani
C35 C 0.5017(4) 0.3118(3) 0.7426(4) 0.0350 Uani
C36 C 0.5553(4) 0.2128(4) 0.7722(4) 0.0403 Uani
H33 H 0.5576 0.1906 0.8447 0.0480 Uiso
C37 C 0.6052(4) 0.1474(4) 0.6949(4) 0.0417 Uani
C38 C 0.6019(4) 0.1846(4) 0.5873(4) 0.0462 Uani
H34 H 0.6327 0.1401 0.5335 0.0550 Uiso
C39 C 0.5550(4) 0.2842(4) 0.5587(4) 0.0411 Uani
C40 C 0.5024(4) 0.3464(4) 0.6362(4) 0.0395 Uani
H35 H 0.4669 0.4126 0.6165 0.0470 Uiso
C41 C 0.4534(5) 0.3851(4) 0.8301(4) 0.0495 Uani
H36 H 0.5408 0.4290 0.8998 0.0590 Uiso
H37 H 0.4083 0.4432 0.7898 0.0590 Uiso
C42 C 0.3466(4) 0.3186(3) 0.8780(4) 0.0327 Uani
C43 C 0.6672(5) 0.0418(4) 0.7281(5) 0.0558 Uani
H38 H 0.6284 0.0124 0.7859 0.0670 Uiso
C44 C 0.8347(5) 0.0662(4) 0.7833(4) 0.0373 Uani
C45 C 0.5669(5) 0.3268(5) 0.4492(4) 0.0573 Uani
H40 H 0.6172 0.4105 0.4753 0.0690 Uiso
H41 H 0.6291 0.2844 0.4206 0.0690 Uiso
C46 C 0.4240(5) 0.3134(4) 0.3409(4) 0.0411 Uani
O14 O 0.9124(3) 0.1504(2) 0.7608(3) 0.0399 Uani
O15 O 0.3058(4) 0.2867(3) 0.3495(3) 0.0711 Uani
H39 H 0.6318 0.9789 0.6550 0.0670 Uiso
O13 O 0.8924(3) 0.9983(3) 0.8466(3) 0.0501 Uani
H46_2 H 0.863614 0.876943 0.0699785 . .
H5 H 0.0801 0.7379 0.0020 0.1020 Uiso
H26 H 0.9199 0.2621 0.9980 0.1020 Uiso
loop_
_atom_site_aniso_label
_atom_site_aniso_U_11
_atom_site_aniso_U_22
_atom_site_aniso_U_33
_atom_site_aniso_U_23
_atom_site_aniso_U_13
_atom_site_aniso_U_12
Zn5 0.0391 0.0313 0.0296 0.002 0.015 0.0042
C1 0.043 0.028 0.027 0.0055 0.012 0.0096
C2 0.035 0.0225 0.028 0.0023 0.0063 0.0067
C4 0.077 0.046 0.044 0.017 0.031 0.032
C5 0.051 0.116 0.061 -0.025 0.01 0.017
C6 0.069 0.088 0.06 -0.037 0.006 0.005
C8 0.045 0.026 0.028 0.0012 0.009 0.0084
C11 0.044 0.028 0.038 0.006 0.023 0.009
N4 0.04 0.0227 0.031 0.0031 0.0145 0.0072
O3 0.055 0.053 0.052 0.0267 0.0238 0.0167
C26 0.051 0.032 0.024 0.0033 0.016 0.016
C30 0.055 0.047 0.04 0.007 0.018 0.007
C32 0.047 0.043 0.047 0.004 0.029 0.01
C33 0.042 0.04 0.049 0.002 0.024 0.001
N5 0.056 0.051 0.033 0.0039 0.02 0.017
N6 0.06 0.052 0.027 0.0125 0.021 0.024
N7 0.041 0.0287 0.035 0.0025 0.0173 0.0068
O18 0.057 0.078 0.0274 0.0146 0.0161 0.008
O21 0.061 0.0403 0.0292 0.0115 0.0193 0.0017
Zn7 0.0554 0.0418 0.0281 0.0035 0.0199 0.007
O12 0.111 0.0397 0.038 -0.0062 0.047 -0.0129
C12 0.026 0.038 0.036 0.001 0.014 -0.0043
C13 0.034 0.051 0.032 0.011 0.011 0.001
C14 0.028 0.047 0.05 0.015 0.014 0.006
C15 0.033 0.067 0.037 0.001 0.016 0.01
C16 0.031 0.061 0.032 0.014 0.012 0.009
C17 0.028 0.046 0.042 0.014 0.01 0.005
C18 0.055 0.042 0.044 -0.006 0.026 -0.011
C19 0.04 0.03 0.03 0.008 0.015 0.008
C20 0.044 0.053 0.074 0.023 0.024 0.009
C21 0.044 0.038 0.033 0.003 0.02 0.01
C22 0.041 0.098 0.042 0.025 0.02 0.022
C23 0.049 0.043 0.028 0.007 0.011 0.01
O1 0.0428 0.0431 0.0269 0.0047 0.013 -0.0087
O2 0.111 0.0397 0.038 -0.0062 0.047 -0.0129
O4 0.0379 0.0377 0.047 0.0152 0.0171 0.0087
O5 0.04 0.125 0.047 0.036 0.0132 0.008
O6 0.057 0.078 0.0274 0.0146 0.0161 0.008
Zn4 0.0391 0.0313 0.0296 0.002 0.015 0.0042
Zn9 0.0554 0.0418 0.0281 0.0035 0.0199 0.007
C3 0.051 0.032 0.024 0.0033 0.016 0.016
C7 0.055 0.047 0.04 0.007 0.018 0.007
C9 0.047 0.043 0.047 0.004 0.029 0.01
C10 0.042 0.04 0.049 0.002 0.024 0.001
N1 0.056 0.051 0.033 0.0039 0.02 0.017
N2 0.06 0.052 0.027 0.0125 0.021 0.024
N3 0.041 0.0287 0.035 0.0025 0.0173 0.0068
C24 0.043 0.028 0.027 0.0055 0.012 0.0096
C25 0.035 0.0225 0.028 0.0023 0.0063 0.0067
C27 0.077 0.046 0.044 0.017 0.031 0.032
C28 0.051 0.116 0.061 -0.025 0.01 0.017
C29 0.069 0.088 0.06 -0.037 0.006 0.005
C31 0.045 0.026 0.028 0.0012 0.009 0.0084
C34 0.044 0.028 0.038 0.006 0.023 0.009
N9 0.04 0.0227 0.031 0.0031 0.0145 0.0072
O19 0.061 0.0403 0.0292 0.0115 0.0193 0.0017
O9 0.0428 0.0431 0.0269 0.0047 0.013 -0.0087
C35 0.026 0.038 0.036 0.001 0.014 -0.0043
C36 0.034 0.051 0.032 0.011 0.011 0.001
C37 0.028 0.047 0.05 0.015 0.014 0.006
C38 0.033 0.067 0.037 0.001 0.016 0.01
C39 0.031 0.061 0.032 0.014 0.012 0.009
C40 0.028 0.046 0.042 0.014 0.01 0.005
C41 0.055 0.042 0.044 -0.006 0.026 -0.011
C42 0.04 0.03 0.03 0.008 0.015 0.008
C43 0.044 0.053 0.074 0.023 0.024 0.009
C44 0.044 0.038 0.033 0.003 0.02 0.01
C45 0.041 0.098 0.042 0.025 0.02 0.022
C46 0.049 0.043 0.028 0.007 0.011 0.01
O14 0.0379 0.0377 0.047 0.0152 0.0171 0.0087
O15 0.04 0.125 0.047 0.036 0.0132 0.008
O13 0.055 0.053 0.052 0.0267 0.0238 0.0167
loop_
_geom_bond_atom_site_label_1
_geom_bond_atom_site_label_2
_geom_bond_site_symmetry_1
_geom_bond_site_symmetry_2
C1 C2 1_555 1_555
C2 C8 1_555 1_555
C4 C1 1_555 1_555
H3 C4 1_555 1_555
C5 H4 1_555 1_555
C6 C5 1_555 1_555
C8 H7 1_555 1_555
H8 C8 1_555 1_555
C11 H11 1_555 1_555
N4 C8 1_555 1_555
C26 C2 1_555 1_555
H22 C26 1_555 1_555
C30 H27 1_555 1_555
C32 H30 1_555 1_555
C33 C32 1_555 1_555
H44 O21 1_555 1_555
N7 C33 1_555 1_555
O18 Zn7 1_555 1_555
O21 Zn7 1_555 1_555
Zn7 N5 1_555 1_555
C11 N4 1_555 1_555
C30 N5 1_555 1_555
C30 N6 1_555 1_555
C12 C13 1_555 1_555
C13 H12 1_555 1_555
C14 C13 1_555 1_555
C15 C14 1_555 1_555
H13 C15 1_555 1_555
C16 C15 1_555 1_555
C17 C12 1_555 1_555
H14 C17 1_555 1_555
C18 C12 1_555 1_555
H15 C18 1_555 1_555
H16 C18 1_555 1_555
C19 C18 1_555 1_555
C20 C14 1_555 1_555
H17 C20 1_555 1_555
C21 C20 1_555 1_555
C22 C16 1_555 1_555
H19 C22 1_555 1_555
H20 C22 1_555 1_555
C23 C22 1_555 1_555
O1 C19 1_555 1_555
O2 C19 1_555 1_555
O4 C21 1_555 1_555
O5 C23 1_555 1_555
O6 C23 1_555 1_555
Zn4 O1 1_555 1_555
Zn9 O6 1_555 1_555
C16 C17 1_555 1_555
H1 C3 1_555 1_555
C7 H6 1_555 1_555
C9 H9 1_555 1_555
C10 C9 1_555 1_555
N3 C10 1_555 1_555
Zn9 N1 1_555 1_555
C24 C25 1_555 1_555
C25 C3 1_555 1_555
C27 C24 1_555 1_555
H24 C27 1_555 1_555
C28 H25 1_555 1_555
C29 C28 1_555 1_555
C31 C25 1_555 1_555
H28 C31 1_555 1_555
H29 C31 1_555 1_555
C34 H32 1_555 1_555
H42 O19 1_555 1_555
N9 C31 1_555 1_555
O19 Zn9 1_555 1_555
C7 N1 1_555 1_555
C7 N2 1_555 1_555
C34 N9 1_555 1_555
O19 H45 1_555 1_555
O21 H45_2 1_555 1_555
O9 Zn5 1_555 1_555
C35 C36 1_555 1_555
C36 H33 1_555 1_555
C37 C36 1_555 1_555
C38 C37 1_555 1_555
H34 C38 1_555 1_555
C39 C38 1_555 1_555
C40 C35 1_555 1_555
H35 C40 1_555 1_555
C41 C35 1_555 1_555
H36 C41 1_555 1_555
H37 C41 1_555 1_555
C42 C41 1_555 1_555
C43 C37 1_555 1_555
H38 C43 1_555 1_555
C44 C43 1_555 1_555
C45 C39 1_555 1_555
H40 C45 1_555 1_555
H41 C45 1_555 1_555
C46 C45 1_555 1_555
O12 C42 1_555 1_555
O14 C44 1_555 1_555
O15 C46 1_555 1_555
O18 C46 1_555 1_555
C39 C40 1_555 1_555
C42 O9 1_555 1_555

#END
