
###############################################################################
#
# This file contains modified crystal structure data generated from the
# MOF subset of the Cambridge Structural Database (CSD) v543 
# hosted by the Cambridge Crystallographic Data Centre (CCDC).
#
# This work is licensed under the Creative Commons
# Attribution-NonCommercial-ShareAlike 4.0 International License.
# To view a copy of this license, visit
# http://creativecommons.org/licenses/by-nc-sa/4.0/
# or send a letter to
# Creative Commons, PO Box 1866, Mountain View, CA 94042, USA.
#
# CIF created using the CSD Python API on 29 September 2022
# The structure has been converted into the P1 space group
# The structure has a 3D framework
# The original CSD entry MUZKEZ is in the cubic crystal system
# The framework has been calculated to contain at least 10.0% void space
# The void calculation uses a probe of radius 1.32A, grid spacing 0.4
# The framework is charged, counterions have been retained in the structure
#
###############################################################################

data_MUZKEZ
_chemical_formula_moiety         '(C588 H372 Al24 Cl48 O126 45-)n'
_symmetry_cell_setting           triclinic
_symmetry_space_group_name_H-M   'P 1'
_symmetry_Int_Tables_number      1
_space_group_name_Hall           'P 1'
loop_
_symmetry_equiv_pos_site_id
_symmetry_equiv_pos_as_xyz
1 x,y,z
_cell_length_a                   35.9340(8)
_cell_length_b                   35.9340(8)
_cell_length_c                   35.9340(8)
_cell_angle_alpha                90
_cell_angle_beta                 90
_cell_angle_gamma                90
_cell_volume                     46399.9
loop_
_atom_site_label
_atom_site_type_symbol
_atom_site_fract_x
_atom_site_fract_y
_atom_site_fract_z
Cl1 Cl 0.2086(4) 0.3208(4) 0.1112(4)
Cl1_2 Cl 0.7914(4) 0.6792(4) 0.1112(4)
Cl1_3 Cl 0.7914(4) 0.3208(4) 0.8888(4)
Cl1_4 Cl 0.2086(4) 0.6792(4) 0.8888(4)
Cl1_5 Cl 0.1112(4) 0.2086(4) 0.3208(4)
Cl1_6 Cl 0.1112(4) 0.7914(4) 0.6792(4)
Cl1_7 Cl 0.8888(4) 0.7914(4) 0.3208(4)
Cl1_8 Cl 0.8888(4) 0.2086(4) 0.6792(4)
Cl1_9 Cl 0.3208(4) 0.1112(4) 0.2086(4)
Cl1_10 Cl 0.6792(4) 0.1112(4) 0.7914(4)
Cl1_11 Cl 0.3208(4) 0.8888(4) 0.7914(4)
Cl1_12 Cl 0.6792(4) 0.8888(4) 0.2086(4)
Cl1_13 Cl 0.8208(4) 0.7086(4) 0.3888(4)
Cl1_14 Cl 0.1792(4) 0.2914(4) 0.3888(4)
Cl1_15 Cl 0.8208(4) 0.2914(4) 0.6112(4)
Cl1_16 Cl 0.1792(4) 0.7086(4) 0.6112(4)
Cl1_17 Cl 0.7086(4) 0.6112(4) 0.1792(4)
Cl1_18 Cl 0.2914(4) 0.6112(4) 0.8208(4)
Cl1_19 Cl 0.2914(4) 0.3888(4) 0.1792(4)
Cl1_20 Cl 0.7086(4) 0.3888(4) 0.8208(4)
Cl1_21 Cl 0.6112(4) 0.8208(4) 0.2914(4)
Cl1_22 Cl 0.6112(4) 0.1792(4) 0.7086(4)
Cl1_23 Cl 0.3888(4) 0.8208(4) 0.7086(4)
Cl1_24 Cl 0.3888(4) 0.1792(4) 0.2914(4)
Cl1_25 Cl 0.7914(4) 0.6792(4) 0.8888(4)
Cl1_26 Cl 0.2086(4) 0.3208(4) 0.8888(4)
Cl1_27 Cl 0.2086(4) 0.6792(4) 0.1112(4)
Cl1_28 Cl 0.7914(4) 0.3208(4) 0.1112(4)
Cl1_29 Cl 0.8888(4) 0.7914(4) 0.6792(4)
Cl1_30 Cl 0.8888(4) 0.2086(4) 0.3208(4)
Cl1_31 Cl 0.1112(4) 0.2086(4) 0.6792(4)
Cl1_32 Cl 0.1112(4) 0.7914(4) 0.3208(4)
Cl1_33 Cl 0.6792(4) 0.8888(4) 0.7914(4)
Cl1_34 Cl 0.3208(4) 0.8888(4) 0.2086(4)
Cl1_35 Cl 0.6792(4) 0.1112(4) 0.2086(4)
Cl1_36 Cl 0.3208(4) 0.1112(4) 0.7914(4)
Cl1_37 Cl 0.1792(4) 0.2914(4) 0.6112(4)
Cl1_38 Cl 0.8208(4) 0.7086(4) 0.6112(4)
Cl1_39 Cl 0.1792(4) 0.7086(4) 0.3888(4)
Cl1_40 Cl 0.8208(4) 0.2914(4) 0.3888(4)
Cl1_41 Cl 0.2914(4) 0.3888(4) 0.8208(4)
Cl1_42 Cl 0.7086(4) 0.3888(4) 0.1792(4)
Cl1_43 Cl 0.7086(4) 0.6112(4) 0.8208(4)
Cl1_44 Cl 0.2914(4) 0.6112(4) 0.1792(4)
Cl1_45 Cl 0.3888(4) 0.1792(4) 0.7086(4)
Cl1_46 Cl 0.3888(4) 0.8208(4) 0.2914(4)
Cl1_47 Cl 0.6112(4) 0.1792(4) 0.2914(4)
Cl1_48 Cl 0.6112(4) 0.8208(4) 0.7086(4)
Al1 Al 0.2500 0.28607(2) 0.21393(2)
O1 O 0.2500 0.2500 0.2500
O2 O 0.2500 0.32423(5) 0.17577(5)
H1 H 0.2541 0.3445 0.1853
O3 O 0.30226(6) 0.29288(5) 0.21259(5)
O4 O 0.32664(5) 0.24805(5) 0.24854(5)
C1 C 0.32856(7) 0.27876(8) 0.23172(8)
C2 C 0.36394(7) 0.29979(8) 0.23388(10)
C3 C 0.39411(9) 0.28566(9) 0.25262(12)
H2 H 0.3923 0.2624 0.2639
C4 C 0.36697(9) 0.33450(9) 0.21663(12)
H3 H 0.3468 0.3444 0.2039
C5 C 0.42707(9) 0.30531(9) 0.25503(14)
H4 H 0.4470 0.2955 0.2683
C6 C 0.40001(9) 0.35408(10) 0.21856(14)
H5 H 0.4018 0.3771 0.2070
C7 C 0.43067(8) 0.33999(9) 0.23752(14)
C8 C 0.46612(9) 0.36106(9) 0.23975(15)
C9 C 0.46655(9) 0.39955(10) 0.24043(16)
H6 H 0.4440 0.4123 0.2412
C10 C 0.5000 0.34185(13) 0.2389(2)
H7 H 0.5000 0.3160 0.2378
C11 C 0.5000 0.42007(13) 0.2400(2)
C12 C 0.5000 0.45999(12) 0.2411(2)
C13 C 0.5259(2) 0.4793(2) 0.2228(2)
H8 H 0.5461 0.4660 0.2102
H9 H 0.2459 0.3147 0.1555
O5 O 0.30226(6) 0.70712(5) 0.21259(5)
O6 O 0.32664(5) 0.75195(5) 0.24854(5)
C14 C 0.32856(7) 0.72124(8) 0.23172(8)
C15 C 0.36394(7) 0.70021(8) 0.23388(10)
C16 C 0.39411(9) 0.71434(9) 0.25262(12)
H10 H 0.3923 0.7376 0.2639
C17 C 0.36697(9) 0.66550(9) 0.21663(12)
H11 H 0.3468 0.6556 0.2039
C18 C 0.42707(9) 0.69469(9) 0.25503(14)
H12 H 0.4470 0.7045 0.2683
C19 C 0.40001(9) 0.64592(10) 0.21856(14)
H13 H 0.4018 0.6229 0.2070
C20 C 0.43067(8) 0.66001(9) 0.23752(14)
C21 C 0.46612(9) 0.63894(9) 0.23975(15)
C22 C 0.46655(9) 0.60045(10) 0.24043(16)
H14 H 0.4440 0.5877 0.2412
C23 C 0.5000 0.65815(13) 0.2389(2)
H15 H 0.5000 0.6840 0.2378
C24 C 0.5000 0.57993(13) 0.2400(2)
C25 C 0.5000 0.54001(12) 0.2411(2)
C26 C 0.5259(2) 0.5207(2) 0.2228(2)
H16 H 0.5461 0.5340 0.2102
O7 O 0.69774(6) 0.29288(5) 0.21259(5)
O8 O 0.67336(5) 0.24805(5) 0.24854(5)
C27 C 0.67144(7) 0.27876(8) 0.23172(8)
C28 C 0.63606(7) 0.29979(8) 0.23388(10)
C29 C 0.60589(9) 0.28566(9) 0.25262(12)
H17 H 0.6077 0.2624 0.2639
C30 C 0.63303(9) 0.33450(9) 0.21663(12)
H18 H 0.6532 0.3444 0.2039
C31 C 0.57293(9) 0.30531(9) 0.25503(14)
H19 H 0.5530 0.2955 0.2683
C32 C 0.59999(9) 0.35408(10) 0.21856(14)
H20 H 0.5982 0.3771 0.2070
C33 C 0.56933(8) 0.33999(9) 0.23752(14)
C34 C 0.53388(9) 0.36106(9) 0.23975(15)
C35 C 0.53345(9) 0.39955(10) 0.24043(16)
H21 H 0.5560 0.4123 0.2412
C36 C 0.4741(2) 0.4793(2) 0.2228(2)
H22 H 0.4539 0.4660 0.2102
O9 O 0.69774(6) 0.70712(5) 0.21259(5)
O10 O 0.67336(5) 0.75195(5) 0.24854(5)
C37 C 0.67144(7) 0.72124(8) 0.23172(8)
C38 C 0.63606(7) 0.70021(8) 0.23388(10)
C39 C 0.60589(9) 0.71434(9) 0.25262(12)
H23 H 0.6077 0.7376 0.2639
C40 C 0.63303(9) 0.66550(9) 0.21663(12)
H24 H 0.6532 0.6556 0.2039
C41 C 0.57293(9) 0.69469(9) 0.25503(14)
H25 H 0.5530 0.7045 0.2683
C42 C 0.59999(9) 0.64592(10) 0.21856(14)
H26 H 0.5982 0.6229 0.2070
C43 C 0.56933(8) 0.66001(9) 0.23752(14)
C44 C 0.53388(9) 0.63894(9) 0.23975(15)
C45 C 0.53345(9) 0.60045(10) 0.24043(16)
H27 H 0.5560 0.5877 0.2412
C46 C 0.4741(2) 0.5207(2) 0.2228(2)
H28 H 0.4539 0.5340 0.2102
Al2 Al 0.21393(2) 0.2500 0.28607(2)
O11 O 0.17577(5) 0.2500 0.32423(5)
H29 H 0.1853 0.2541 0.3445
O12 O 0.21259(5) 0.30226(6) 0.29288(5)
O13 O 0.24854(5) 0.32664(5) 0.24805(5)
C47 C 0.23172(8) 0.32856(7) 0.27876(8)
C48 C 0.23388(10) 0.36394(7) 0.29979(8)
C49 C 0.25262(12) 0.39411(9) 0.28566(9)
H30 H 0.2639 0.3923 0.2624
C50 C 0.21663(12) 0.36697(9) 0.33450(9)
H31 H 0.2039 0.3468 0.3444
C51 C 0.25503(14) 0.42707(9) 0.30531(9)
H32 H 0.2683 0.4470 0.2955
C52 C 0.21856(14) 0.40001(9) 0.35408(10)
H33 H 0.2070 0.4018 0.3771
C53 C 0.23752(14) 0.43067(8) 0.33999(9)
C54 C 0.23975(15) 0.46612(9) 0.36106(9)
C55 C 0.24043(16) 0.46655(9) 0.39955(10)
H34 H 0.2412 0.4440 0.4123
C56 C 0.2389(2) 0.5000 0.34185(13)
H35 H 0.2378 0.5000 0.3160
C57 C 0.2400(2) 0.5000 0.42007(13)
C58 C 0.2411(2) 0.5000 0.45999(12)
C59 C 0.2228(2) 0.5259(2) 0.4793(2)
H36 H 0.2102 0.5461 0.4660
H37 H 0.1555 0.2459 0.3147
O14 O 0.21259(5) 0.30226(6) 0.70712(5)
O15 O 0.24854(5) 0.32664(5) 0.75195(5)
C60 C 0.23172(8) 0.32856(7) 0.72124(8)
C61 C 0.23388(10) 0.36394(7) 0.70021(8)
C62 C 0.25262(12) 0.39411(9) 0.71434(9)
H38 H 0.2639 0.3923 0.7376
C63 C 0.21663(12) 0.36697(9) 0.66550(9)
H39 H 0.2039 0.3468 0.6556
C64 C 0.25503(14) 0.42707(9) 0.69469(9)
H40 H 0.2683 0.4470 0.7045
C65 C 0.21856(14) 0.40001(9) 0.64592(10)
H41 H 0.2070 0.4018 0.6229
C66 C 0.23752(14) 0.43067(8) 0.66001(9)
C67 C 0.23975(15) 0.46612(9) 0.63894(9)
C68 C 0.24043(16) 0.46655(9) 0.60045(10)
H42 H 0.2412 0.4440 0.5877
C69 C 0.2389(2) 0.5000 0.65815(13)
H43 H 0.2378 0.5000 0.6840
C70 C 0.2400(2) 0.5000 0.57993(13)
C71 C 0.2411(2) 0.5000 0.54001(12)
C72 C 0.2228(2) 0.5259(2) 0.5207(2)
H44 H 0.2102 0.5461 0.5340
O16 O 0.21259(5) 0.69774(6) 0.29288(5)
O17 O 0.24854(5) 0.67336(5) 0.24805(5)
C73 C 0.23172(8) 0.67144(7) 0.27876(8)
C74 C 0.23388(10) 0.63606(7) 0.29979(8)
C75 C 0.25262(12) 0.60589(9) 0.28566(9)
H45 H 0.2639 0.6077 0.2624
C76 C 0.21663(12) 0.63303(9) 0.33450(9)
H46 H 0.2039 0.6532 0.3444
C77 C 0.25503(14) 0.57293(9) 0.30531(9)
H47 H 0.2683 0.5530 0.2955
C78 C 0.21856(14) 0.59999(9) 0.35408(10)
H48 H 0.2070 0.5982 0.3771
C79 C 0.23752(14) 0.56933(8) 0.33999(9)
C80 C 0.23975(15) 0.53388(9) 0.36106(9)
C81 C 0.24043(16) 0.53345(9) 0.39955(10)
H49 H 0.2412 0.5560 0.4123
C82 C 0.2228(2) 0.4741(2) 0.4793(2)
H50 H 0.2102 0.4539 0.4660
O18 O 0.21259(5) 0.69774(6) 0.70712(5)
O19 O 0.24854(5) 0.67336(5) 0.75195(5)
C83 C 0.23172(8) 0.67144(7) 0.72124(8)
C84 C 0.23388(10) 0.63606(7) 0.70021(8)
C85 C 0.25262(12) 0.60589(9) 0.71434(9)
H51 H 0.2639 0.6077 0.7376
C86 C 0.21663(12) 0.63303(9) 0.66550(9)
H52 H 0.2039 0.6532 0.6556
C87 C 0.25503(14) 0.57293(9) 0.69469(9)
H53 H 0.2683 0.5530 0.7045
C88 C 0.21856(14) 0.59999(9) 0.64592(10)
H54 H 0.2070 0.5982 0.6229
C89 C 0.23752(14) 0.56933(8) 0.66001(9)
C90 C 0.23975(15) 0.53388(9) 0.63894(9)
C91 C 0.24043(16) 0.53345(9) 0.60045(10)
H55 H 0.2412 0.5560 0.5877
C92 C 0.2228(2) 0.4741(2) 0.5207(2)
H56 H 0.2102 0.4539 0.5340
Al3 Al 0.28607(2) 0.21393(2) 0.2500
O20 O 0.32423(5) 0.17577(5) 0.2500
H57 H 0.3445 0.1853 0.2541
H58 H 0.3147 0.1555 0.2459
Al4 Al 0.2500 0.71393(2) 0.21393(2)
O21 O 0.2500 0.67577(5) 0.17577(5)
H59 H 0.2541 0.6555 0.1853
H60 H 0.2459 0.6853 0.1555
Al5 Al 0.21393(2) 0.7500 0.28607(2)
O22 O 0.17577(5) 0.7500 0.32423(5)
H61 H 0.1853 0.7459 0.3445
H62 H 0.1555 0.7541 0.3147
O23 O 0.19774(6) 0.28741(5) 0.20712(5)
O24 O 0.17336(5) 0.25146(5) 0.25195(5)
C93 C 0.17144(7) 0.26828(8) 0.22124(8)
C94 C 0.13606(7) 0.26612(10) 0.20021(8)
C95 C 0.10589(9) 0.24738(12) 0.21434(9)
H63 H 0.1077 0.2361 0.2376
C96 C 0.13303(9) 0.28337(12) 0.16550(9)
H64 H 0.1532 0.2961 0.1556
C97 C 0.07293(9) 0.24497(14) 0.19469(9)
H65 H 0.0530 0.2317 0.2045
C98 C 0.09999(9) 0.28144(14) 0.14592(10)
H66 H 0.0982 0.2930 0.1229
C99 C 0.06933(8) 0.26248(14) 0.16001(9)
C100 C 0.03388(9) 0.26025(15) 0.13894(9)
C101 C 0.03345(9) 0.25957(16) 0.10045(10)
H67 H 0.0560 0.2588 0.0877
C102 C -0.0000 0.2611(2) 0.15815(13)
H68 H 0.0000 0.2622 0.1840
C103 C 0.0000 0.2600(2) 0.07993(13)
C104 C 0.0000 0.2589(2) 0.04001(12)
C128 C 0.0259(2) 0.2772(2) 0.0207(2)
H82 H 0.0461 0.2898 0.0340
O32 O 0.2500 0.7500 0.2500
Al7 Al 0.7500 0.71393(2) 0.21393(2)
Al9 Al 0.2500 0.71393(2) 0.78607(2)
Al10 Al 0.21393(2) 0.7500 0.71393(2)
Al12 Al 0.71393(2) 0.78607(2) 0.2500
Al14 Al 0.2500 0.28607(2) 0.78607(2)
Al15 Al 0.7500 0.28607(2) 0.21393(2)
Al18 Al 0.21393(2) 0.2500 0.71393(2)
Al19 Al 0.28607(2) 0.78607(2) 0.2500
Al20 Al 0.71393(2) 0.21393(2) 0.2500
O34 O 0.29288(5) 0.21259(5) 0.30226(6)
O35 O 0.20712(5) 0.19774(6) 0.28741(5)
O36 O 0.28741(5) 0.20712(5) 0.19774(6)
O38 O 0.20712(5) 0.80226(6) 0.28741(5)
O39 O 0.19774(6) 0.71259(5) 0.20712(5)
O40 O 0.24805(5) 0.24854(5) 0.32664(5)
O41 O 0.25195(5) 0.17336(5) 0.25146(5)
O42 O 0.25146(5) 0.25195(5) 0.17336(5)
O44 O 0.24805(5) 0.75146(5) 0.32664(5)
O45 O 0.17336(5) 0.74854(5) 0.25195(5)
O46 O 0.25146(5) 0.74805(5) 0.17336(5)
O25 O 0.19774(6) 0.28741(5) 0.79288(5)
O26 O 0.17336(5) 0.25146(5) 0.74805(5)
C106 C 0.17144(7) 0.26828(8) 0.77876(8)
C107 C 0.13606(7) 0.26612(10) 0.79979(8)
C108 C 0.10589(9) 0.24738(12) 0.78566(9)
H70 H 0.1077 0.2361 0.7624
C109 C 0.13303(9) 0.28337(12) 0.83450(9)
H71 H 0.1532 0.2961 0.8444
C110 C 0.07293(9) 0.24497(14) 0.80531(9)
H72 H 0.0530 0.2317 0.7955
C111 C 0.09999(9) 0.28144(14) 0.85408(10)
H73 H 0.0982 0.2930 0.8771
C112 C 0.06933(8) 0.26248(14) 0.83999(9)
C113 C 0.03388(9) 0.26025(15) 0.86106(9)
C114 C 0.03345(9) 0.25957(16) 0.89955(10)
H74 H 0.0560 0.2588 0.9123
C115 C -0.0000 0.2611(2) 0.84185(13)
H75 H 0.0000 0.2622 0.8160
C116 C -0.0000 0.2600(2) 0.92007(13)
C117 C 0.0000 0.2589(2) 0.95999(12)
C138 C 0.0259(2) 0.2772(2) 0.9793(2)
H88 H 0.0461 0.2898 0.9660
C102_2 C 1.0000 0.2611(2) 0.15815(13)
H68_2 H 1.0000 0.2622 0.1840
C103_2 C 1.0000 0.2600(2) 0.07993(13)
C104_2 C 1.0000 0.2589(2) 0.04001(12)
C105 C 0.9741(2) 0.2772(2) 0.0207(2)
H69 H 0.9539 0.2898 0.0340
O27 O 0.80226(6) 0.28741(5) 0.20712(5)
O28 O 0.82664(5) 0.25146(5) 0.25195(5)
C119 C 0.82856(7) 0.26828(8) 0.22124(8)
C120 C 0.86394(7) 0.26612(10) 0.20021(8)
C121 C 0.89411(9) 0.24738(12) 0.21434(9)
H77 H 0.8923 0.2361 0.2376
C122 C 0.86697(9) 0.28337(12) 0.16550(9)
H78 H 0.8468 0.2961 0.1556
C123 C 0.92707(9) 0.24497(14) 0.19469(9)
H79 H 0.9470 0.2317 0.2045
C124 C 0.90001(9) 0.28144(14) 0.14592(10)
H80 H 0.9018 0.2930 0.1229
C125 C 0.93067(8) 0.26248(14) 0.16001(9)
C126 C 0.96612(9) 0.26025(15) 0.13894(9)
C127 C 0.96655(9) 0.25957(16) 0.10045(10)
H81 H 0.9440 0.2588 0.0877
O31 O 0.7500 0.32423(5) 0.17577(5)
H89 H 0.7541 0.3147 0.1555
H90 H 0.7459 0.3445 0.1853
Al16 Al 0.78607(2) 0.2500 0.28607(2)
O33 O 0.7500 0.2500 0.2500
O43 O 0.75146(5) 0.32664(5) 0.24805(5)
O47 O 0.74854(5) 0.25195(5) 0.17336(5)
C115_2 C 1.0000 0.2611(2) 0.84185(13)
H75_2 H 1.0000 0.2622 0.8160
C116_2 C 1.0000 0.2600(2) 0.92007(13)
C117_2 C 1.0000 0.2589(2) 0.95999(12)
C118 C 0.9741(2) 0.2772(2) 0.9793(2)
H76 H 0.9539 0.2898 0.9660
O29 O 0.80226(6) 0.28741(5) 0.79288(5)
O30 O 0.82664(5) 0.25146(5) 0.74805(5)
C129 C 0.82856(7) 0.26828(8) 0.77876(8)
C130 C 0.86394(7) 0.26612(10) 0.79979(8)
C131 C 0.89411(9) 0.24738(12) 0.78566(9)
H83 H 0.8923 0.2361 0.7624
C132 C 0.86697(9) 0.28337(12) 0.83450(9)
H84 H 0.8468 0.2961 0.8444
C133 C 0.92707(9) 0.24497(14) 0.80531(9)
H85 H 0.9470 0.2317 0.7955
C134 C 0.90001(9) 0.28144(14) 0.85408(10)
H86 H 0.9018 0.2930 0.8771
C135 C 0.93067(8) 0.26248(14) 0.83999(9)
C136 C 0.96612(9) 0.26025(15) 0.86106(9)
C137 C 0.96655(9) 0.25957(16) 0.89955(10)
H87 H 0.9440 0.2588 0.9123
Al8 Al 0.7500 0.28607(2) 0.78607(2)
Al11 Al 0.78607(2) 0.2500 0.71393(2)
C102_3 C -0.0000 0.7389(2) 0.15815(13)
H68_3 H -0.0000 0.7378 0.1840
C103_3 C -0.0000 0.7400(2) 0.07993(13)
C104_3 C 0.0000 0.7411(2) 0.04001(12)
C105_2 C 0.0259(2) 0.7228(2) 0.0207(2)
H69_2 H 0.0461 0.7102 0.0340
C119_2 C 0.17144(7) 0.73172(8) 0.22124(8)
C120_2 C 0.13606(7) 0.73388(10) 0.20021(8)
C121_2 C 0.10589(9) 0.75262(12) 0.21434(9)
H77_2 H 0.1077 0.7639 0.2376
C122_2 C 0.13303(9) 0.71663(12) 0.16550(9)
H78_2 H 0.1532 0.7039 0.1556
C123_2 C 0.07293(9) 0.75503(14) 0.19469(9)
H79_2 H 0.0530 0.7683 0.2045
C124_2 C 0.09999(9) 0.71856(14) 0.14592(10)
H80_2 H 0.0982 0.7070 0.1229
C125_2 C 0.06933(8) 0.73752(14) 0.16001(9)
C126_2 C 0.03388(9) 0.73975(15) 0.13894(9)
C127_2 C 0.03345(9) 0.74043(16) 0.10045(10)
H81_2 H 0.0560 0.7412 0.0877
C115_3 C -0.0000 0.7389(2) 0.84185(13)
H75_3 H -0.0000 0.7378 0.8160
C116_3 C 0.0000 0.7400(2) 0.92007(13)
C117_3 C 0.0000 0.7411(2) 0.95999(12)
C118_2 C 0.0259(2) 0.7228(2) 0.9793(2)
H76_2 H 0.0461 0.7102 0.9660
O29_2 O 0.19774(6) 0.71259(5) 0.79288(5)
O30_2 O 0.17336(5) 0.74854(5) 0.74805(5)
C129_2 C 0.17144(7) 0.73172(8) 0.77876(8)
C130_2 C 0.13606(7) 0.73388(10) 0.79979(8)
C131_2 C 0.10589(9) 0.75262(12) 0.78566(9)
H83_2 H 0.1077 0.7639 0.7624
C132_2 C 0.13303(9) 0.71663(12) 0.83450(9)
H84_2 H 0.1532 0.7039 0.8444
C133_2 C 0.07293(9) 0.75503(14) 0.80531(9)
H85_2 H 0.0530 0.7683 0.7955
C134_2 C 0.09999(9) 0.71856(14) 0.85408(10)
H86_2 H 0.0982 0.7070 0.8771
C135_2 C 0.06933(8) 0.73752(14) 0.83999(9)
C136_2 C 0.03388(9) 0.73975(15) 0.86106(9)
C137_2 C 0.03345(9) 0.74043(16) 0.89955(10)
H87_2 H 0.0560 0.7412 0.9123
O1_2 O 0.7500 0.7500 0.2500
O2_2 O 0.7500 0.67577(5) 0.17577(5)
H1_2 H 0.7459 0.6555 0.1853
H9_2 H 0.7541 0.6853 0.1555
Al2_2 Al 0.78607(2) 0.7500 0.28607(2)
O11_2 O 0.82423(5) 0.7500 0.32423(5)
H29_2 H 0.8147 0.7459 0.3445
O12_2 O 0.78741(5) 0.69774(6) 0.29288(5)
O13_2 O 0.75146(5) 0.67336(5) 0.24805(5)
C47_2 C 0.76828(8) 0.67144(7) 0.27876(8)
C48_2 C 0.76612(10) 0.63606(7) 0.29979(8)
C49_2 C 0.74738(12) 0.60589(9) 0.28566(9)
H30_2 H 0.7361 0.6077 0.2624
C50_2 C 0.78337(12) 0.63303(9) 0.33450(9)
H31_2 H 0.7961 0.6532 0.3444
C51_2 C 0.74497(14) 0.57293(9) 0.30531(9)
H32_2 H 0.7317 0.5530 0.2955
C52_2 C 0.78144(14) 0.59999(9) 0.35408(10)
H33_2 H 0.7930 0.5982 0.3771
C53_2 C 0.76248(14) 0.56933(8) 0.33999(9)
C54_2 C 0.76025(15) 0.53388(9) 0.36106(9)
C55_2 C 0.75957(16) 0.53345(9) 0.39955(10)
H34_2 H 0.7588 0.5560 0.4123
C56_2 C 0.7611(2) 0.5000 0.34185(13)
H35_2 H 0.7622 0.5000 0.3160
C57_2 C 0.7600(2) 0.5000 0.42007(13)
C58_2 C 0.7589(2) 0.5000 0.45999(12)
C59_2 C 0.7772(2) 0.4741(2) 0.4793(2)
H36_2 H 0.7898 0.4539 0.4660
H37_2 H 0.8445 0.7541 0.3147
O14_2 O 0.78741(5) 0.69774(6) 0.70712(5)
O15_2 O 0.75146(5) 0.67336(5) 0.75195(5)
C60_2 C 0.76828(8) 0.67144(7) 0.72124(8)
C61_2 C 0.76612(10) 0.63606(7) 0.70021(8)
C62_2 C 0.74738(12) 0.60589(9) 0.71434(9)
H38_2 H 0.7361 0.6077 0.7376
C63_2 C 0.78337(12) 0.63303(9) 0.66550(9)
H39_2 H 0.7961 0.6532 0.6556
C64_2 C 0.74497(14) 0.57293(9) 0.69469(9)
H40_2 H 0.7317 0.5530 0.7045
C65_2 C 0.78144(14) 0.59999(9) 0.64592(10)
H41_2 H 0.7930 0.5982 0.6229
C66_2 C 0.76248(14) 0.56933(8) 0.66001(9)
C67_2 C 0.76025(15) 0.53388(9) 0.63894(9)
C68_2 C 0.75957(16) 0.53345(9) 0.60045(10)
H42_2 H 0.7588 0.5560 0.5877
C69_2 C 0.7611(2) 0.5000 0.65815(13)
H43_2 H 0.7622 0.5000 0.6840
C70_2 C 0.7600(2) 0.5000 0.57993(13)
C71_2 C 0.7589(2) 0.5000 0.54001(12)
C72_2 C 0.7772(2) 0.4741(2) 0.5207(2)
H44_2 H 0.7898 0.4539 0.5340
O16_2 O 0.78741(5) 0.30226(6) 0.29288(5)
C73_2 C 0.76828(8) 0.32856(7) 0.27876(8)
C74_2 C 0.76612(10) 0.36394(7) 0.29979(8)
C75_2 C 0.74738(12) 0.39411(9) 0.28566(9)
H45_2 H 0.7361 0.3923 0.2624
C76_2 C 0.78337(12) 0.36697(9) 0.33450(9)
H46_2 H 0.7961 0.3468 0.3444
C77_2 C 0.74497(14) 0.42707(9) 0.30531(9)
H47_2 H 0.7317 0.4470 0.2955
C78_2 C 0.78144(14) 0.40001(9) 0.35408(10)
H48_2 H 0.7930 0.4018 0.3771
C79_2 C 0.76248(14) 0.43067(8) 0.33999(9)
C80_2 C 0.76025(15) 0.46612(9) 0.36106(9)
C81_2 C 0.75957(16) 0.46655(9) 0.39955(10)
H49_2 H 0.7588 0.4440 0.4123
C82_2 C 0.7772(2) 0.5259(2) 0.4793(2)
H50_2 H 0.7898 0.5461 0.4660
O18_2 O 0.78741(5) 0.30226(6) 0.70712(5)
O19_2 O 0.75146(5) 0.32664(5) 0.75195(5)
C83_2 C 0.76828(8) 0.32856(7) 0.72124(8)
C84_2 C 0.76612(10) 0.36394(7) 0.70021(8)
C85_2 C 0.74738(12) 0.39411(9) 0.71434(9)
H51_2 H 0.7361 0.3923 0.7376
C86_2 C 0.78337(12) 0.36697(9) 0.66550(9)
H52_2 H 0.7961 0.3468 0.6556
C87_2 C 0.74497(14) 0.42707(9) 0.69469(9)
H53_2 H 0.7317 0.4470 0.7045
C88_2 C 0.78144(14) 0.40001(9) 0.64592(10)
H54_2 H 0.7930 0.4018 0.6229
C89_2 C 0.76248(14) 0.43067(8) 0.66001(9)
C90_2 C 0.76025(15) 0.46612(9) 0.63894(9)
C91_2 C 0.75957(16) 0.46655(9) 0.60045(10)
H55_2 H 0.7588 0.4440 0.5877
C92_2 C 0.7772(2) 0.5259(2) 0.5207(2)
H56_2 H 0.7898 0.5461 0.5340
O20_2 O 0.67577(5) 0.82423(5) 0.2500
H57_2 H 0.6555 0.8147 0.2541
H58_2 H 0.6853 0.8445 0.2459
O22_2 O 0.82423(5) 0.2500 0.32423(5)
H61_2 H 0.8147 0.2541 0.3445
H62_2 H 0.8445 0.2459 0.3147
O23_2 O 0.80226(6) 0.71259(5) 0.20712(5)
O24_2 O 0.82664(5) 0.74854(5) 0.25195(5)
C93_2 C 0.82856(7) 0.73172(8) 0.22124(8)
C94_2 C 0.86394(7) 0.73388(10) 0.20021(8)
C95_2 C 0.89411(9) 0.75262(12) 0.21434(9)
H63_2 H 0.8923 0.7639 0.2376
C96_2 C 0.86697(9) 0.71663(12) 0.16550(9)
H64_2 H 0.8468 0.7039 0.1556
C97_2 C 0.92707(9) 0.75503(14) 0.19469(9)
H65_2 H 0.9470 0.7683 0.2045
C98_2 C 0.90001(9) 0.71856(14) 0.14592(10)
H66_2 H 0.9018 0.7070 0.1229
C99_2 C 0.93067(8) 0.73752(14) 0.16001(9)
C100_2 C 0.96612(9) 0.73975(15) 0.13894(9)
C101_2 C 0.96655(9) 0.74043(16) 0.10045(10)
H67_2 H 0.9440 0.7412 0.0877
C102_4 C 1.0000 0.7389(2) 0.15815(13)
H68_4 H 1.0000 0.7378 0.1840
C103_4 C 1.0000 0.7400(2) 0.07993(13)
C104_4 C 1.0000 0.7411(2) 0.04001(12)
C128_2 C 0.9741(2) 0.7228(2) 0.0207(2)
H82_2 H 0.9539 0.7102 0.0340
Al14_2 Al 0.7500 0.71393(2) 0.78607(2)
Al18_2 Al 0.78607(2) 0.7500 0.71393(2)
O34_2 O 0.70712(5) 0.78741(5) 0.30226(6)
O35_2 O 0.79288(5) 0.80226(6) 0.28741(5)
O36_2 O 0.71259(5) 0.79288(5) 0.19774(6)
O38_2 O 0.79288(5) 0.19774(6) 0.28741(5)
O40_2 O 0.75195(5) 0.75146(5) 0.32664(5)
O41_2 O 0.74805(5) 0.82664(5) 0.25146(5)
O42_2 O 0.74854(5) 0.74805(5) 0.17336(5)
O44_2 O 0.75195(5) 0.24854(5) 0.32664(5)
O25_2 O 0.80226(6) 0.71259(5) 0.79288(5)
O26_2 O 0.82664(5) 0.74854(5) 0.74805(5)
C106_2 C 0.82856(7) 0.73172(8) 0.77876(8)
C107_2 C 0.86394(7) 0.73388(10) 0.79979(8)
C108_2 C 0.89411(9) 0.75262(12) 0.78566(9)
H70_2 H 0.8923 0.7639 0.7624
C109_2 C 0.86697(9) 0.71663(12) 0.83450(9)
H71_2 H 0.8468 0.7039 0.8444
C110_2 C 0.92707(9) 0.75503(14) 0.80531(9)
H72_2 H 0.9470 0.7683 0.7955
C111_2 C 0.90001(9) 0.71856(14) 0.85408(10)
H73_2 H 0.9018 0.7070 0.8771
C112_2 C 0.93067(8) 0.73752(14) 0.83999(9)
C113_2 C 0.96612(9) 0.73975(15) 0.86106(9)
C114_2 C 0.96655(9) 0.74043(16) 0.89955(10)
H74_2 H 0.9440 0.7412 0.9123
C115_4 C 1.0000 0.7389(2) 0.84185(13)
H75_4 H 1.0000 0.7378 0.8160
C116_4 C 1.0000 0.7400(2) 0.92007(13)
C117_4 C 1.0000 0.7411(2) 0.95999(12)
C138_2 C 0.9741(2) 0.7228(2) 0.9793(2)
H88_2 H 0.9539 0.7102 0.9660
O31_2 O 0.2500 0.32423(5) 0.82423(5)
H89_2 H 0.2459 0.3147 0.8445
H90_2 H 0.2541 0.3445 0.8147
O33_2 O 0.2500 0.2500 0.7500
O37 O 0.30226(6) 0.29288(5) 0.78741(5)
O47_2 O 0.25146(5) 0.25195(5) 0.82664(5)
O1_3 O 0.7500 0.2500 0.7500
O2_3 O 0.7500 0.32423(5) 0.82423(5)
H1_3 H 0.7459 0.3445 0.8147
O3_2 O 0.69774(6) 0.29288(5) 0.78741(5)
O4_2 O 0.67336(5) 0.24805(5) 0.75146(5)
C1_2 C 0.67144(7) 0.27876(8) 0.76828(8)
C2_2 C 0.63606(7) 0.29979(8) 0.76612(10)
C3_2 C 0.60589(9) 0.28566(9) 0.74738(12)
H2_2 H 0.6077 0.2624 0.7361
C4_2 C 0.63303(9) 0.33450(9) 0.78337(12)
H3_2 H 0.6532 0.3444 0.7961
C5_2 C 0.57293(9) 0.30531(9) 0.74497(14)
H4_2 H 0.5530 0.2955 0.7317
C6_2 C 0.59999(9) 0.35408(10) 0.78144(14)
H5_2 H 0.5982 0.3771 0.7930
C7_2 C 0.56933(8) 0.33999(9) 0.76248(14)
C8_2 C 0.53388(9) 0.36106(9) 0.76025(15)
C9_2 C 0.53345(9) 0.39955(10) 0.75957(16)
H6_2 H 0.5560 0.4123 0.7588
C10_2 C 0.5000 0.34185(13) 0.7611(2)
H7_2 H 0.5000 0.3160 0.7622
C11_2 C 0.5000 0.42007(13) 0.7600(2)
C12_2 C 0.5000 0.45999(12) 0.7589(2)
C13_2 C 0.4741(2) 0.4793(2) 0.7772(2)
H8_2 H 0.4539 0.4660 0.7898
H9_3 H 0.7541 0.3147 0.8445
O5_2 O 0.69774(6) 0.70712(5) 0.78741(5)
O6_2 O 0.67336(5) 0.75195(5) 0.75146(5)
C14_2 C 0.67144(7) 0.72124(8) 0.76828(8)
C15_2 C 0.63606(7) 0.70021(8) 0.76612(10)
C16_2 C 0.60589(9) 0.71434(9) 0.74738(12)
H10_2 H 0.6077 0.7376 0.7361
C17_2 C 0.63303(9) 0.66550(9) 0.78337(12)
H11_2 H 0.6532 0.6556 0.7961
C18_2 C 0.57293(9) 0.69469(9) 0.74497(14)
H12_2 H 0.5530 0.7045 0.7317
C19_2 C 0.59999(9) 0.64592(10) 0.78144(14)
H13_2 H 0.5982 0.6229 0.7930
C20_2 C 0.56933(8) 0.66001(9) 0.76248(14)
C21_2 C 0.53388(9) 0.63894(9) 0.76025(15)
C22_2 C 0.53345(9) 0.60045(10) 0.75957(16)
H14_2 H 0.5560 0.5877 0.7588
C23_2 C 0.5000 0.65815(13) 0.7611(2)
H15_2 H 0.5000 0.6840 0.7622
C24_2 C 0.5000 0.57993(13) 0.7600(2)
C25_2 C 0.5000 0.54001(12) 0.7589(2)
C26_2 C 0.4741(2) 0.5207(2) 0.7772(2)
H16_2 H 0.4539 0.5340 0.7898
O8_2 O 0.32664(5) 0.24805(5) 0.75146(5)
C27_2 C 0.32856(7) 0.27876(8) 0.76828(8)
C28_2 C 0.36394(7) 0.29979(8) 0.76612(10)
C29_2 C 0.39411(9) 0.28566(9) 0.74738(12)
H17_2 H 0.3923 0.2624 0.7361
C30_2 C 0.36697(9) 0.33450(9) 0.78337(12)
H18_2 H 0.3468 0.3444 0.7961
C31_2 C 0.42707(9) 0.30531(9) 0.74497(14)
H19_2 H 0.4470 0.2955 0.7317
C32_2 C 0.40001(9) 0.35408(10) 0.78144(14)
H20_2 H 0.4018 0.3771 0.7930
C33_2 C 0.43067(8) 0.33999(9) 0.76248(14)
C34_2 C 0.46612(9) 0.36106(9) 0.76025(15)
C35_2 C 0.46655(9) 0.39955(10) 0.75957(16)
H21_2 H 0.4440 0.4123 0.7588
C36_2 C 0.5259(2) 0.4793(2) 0.7772(2)
H22_2 H 0.5461 0.4660 0.7898
O9_2 O 0.30226(6) 0.70712(5) 0.78741(5)
O10_2 O 0.32664(5) 0.75195(5) 0.75146(5)
C37_2 C 0.32856(7) 0.72124(8) 0.76828(8)
C38_2 C 0.36394(7) 0.70021(8) 0.76612(10)
C39_2 C 0.39411(9) 0.71434(9) 0.74738(12)
H23_2 H 0.3923 0.7376 0.7361
C40_2 C 0.36697(9) 0.66550(9) 0.78337(12)
H24_2 H 0.3468 0.6556 0.7961
C41_2 C 0.42707(9) 0.69469(9) 0.74497(14)
H25_2 H 0.4470 0.7045 0.7317
C42_2 C 0.40001(9) 0.64592(10) 0.78144(14)
H26_2 H 0.4018 0.6229 0.7930
C43_2 C 0.43067(8) 0.66001(9) 0.76248(14)
C44_2 C 0.46612(9) 0.63894(9) 0.76025(15)
C45_2 C 0.46655(9) 0.60045(10) 0.75957(16)
H27_2 H 0.4440 0.5877 0.7588
C46_2 C 0.5259(2) 0.5207(2) 0.7772(2)
H28_2 H 0.5461 0.5340 0.7898
O11_3 O 0.82423(5) 0.2500 0.67577(5)
H29_3 H 0.8147 0.2541 0.6555
H37_3 H 0.8445 0.2459 0.6853
Al3_2 Al 0.71393(2) 0.21393(2) 0.7500
O20_3 O 0.67577(5) 0.17577(5) 0.7500
H57_3 H 0.6555 0.1853 0.7459
H58_3 H 0.6853 0.1555 0.7541
O21_2 O 0.7500 0.67577(5) 0.82423(5)
H59_2 H 0.7459 0.6555 0.8147
H60_2 H 0.7541 0.6853 0.8445
O22_3 O 0.82423(5) 0.7500 0.67577(5)
H61_3 H 0.8147 0.7459 0.6555
H62_3 H 0.8445 0.7541 0.6853
O32_2 O 0.7500 0.7500 0.7500
Al12_2 Al 0.28607(2) 0.78607(2) 0.7500
Al19_2 Al 0.71393(2) 0.78607(2) 0.7500
Al20_2 Al 0.28607(2) 0.21393(2) 0.7500
O34_3 O 0.70712(5) 0.21259(5) 0.69774(6)
O35_3 O 0.79288(5) 0.19774(6) 0.71259(5)
O36_3 O 0.71259(5) 0.20712(5) 0.80226(6)
O38_3 O 0.79288(5) 0.80226(6) 0.71259(5)
O40_3 O 0.75195(5) 0.24854(5) 0.67336(5)
O41_3 O 0.74805(5) 0.17336(5) 0.74854(5)
O42_3 O 0.74854(5) 0.25195(5) 0.82664(5)
O44_3 O 0.75195(5) 0.75146(5) 0.67336(5)
O46_2 O 0.74854(5) 0.74805(5) 0.82664(5)
O1_4 O 0.2500 0.7500 0.7500
O2_4 O 0.2500 0.67577(5) 0.82423(5)
H1_4 H 0.2541 0.6555 0.8147
H9_4 H 0.2459 0.6853 0.8445
O11_4 O 0.17577(5) 0.7500 0.67577(5)
H29_4 H 0.1853 0.7459 0.6555
H37_4 H 0.1555 0.7541 0.6853
O20_4 O 0.32423(5) 0.82423(5) 0.7500
H57_4 H 0.3445 0.8147 0.7459
H58_4 H 0.3147 0.8445 0.7541
O22_4 O 0.17577(5) 0.2500 0.67577(5)
H61_4 H 0.1853 0.2541 0.6555
H62_4 H 0.1555 0.2459 0.6853
O34_4 O 0.29288(5) 0.78741(5) 0.69774(6)
O35_4 O 0.20712(5) 0.80226(6) 0.71259(5)
O36_4 O 0.28741(5) 0.79288(5) 0.80226(6)
O38_4 O 0.20712(5) 0.19774(6) 0.71259(5)
O40_4 O 0.24805(5) 0.75146(5) 0.67336(5)
O41_4 O 0.25195(5) 0.82664(5) 0.74854(5)
O42_4 O 0.25146(5) 0.74805(5) 0.82664(5)
O44_4 O 0.24805(5) 0.24854(5) 0.67336(5)
C47_3 C 0.27876(8) 0.23172(8) 0.32856(7)
C48_3 C 0.29979(8) 0.23388(10) 0.36394(7)
C49_3 C 0.28566(9) 0.25262(12) 0.39411(9)
H30_3 H 0.2624 0.2639 0.3923
C50_3 C 0.33450(9) 0.21663(12) 0.36697(9)
H31_3 H 0.3444 0.2039 0.3468
C51_3 C 0.30531(9) 0.25503(14) 0.42707(9)
H32_3 H 0.2955 0.2683 0.4470
C52_3 C 0.35408(10) 0.21856(14) 0.40001(9)
H33_3 H 0.3771 0.2070 0.4018
C53_3 C 0.33999(9) 0.23752(14) 0.43067(8)
C54_3 C 0.36106(9) 0.23975(15) 0.46612(9)
C55_3 C 0.39955(10) 0.24043(16) 0.46655(9)
H34_3 H 0.4123 0.2412 0.4440
C56_3 C 0.34185(13) 0.2389(2) 0.5000
H35_3 H 0.3160 0.2378 0.5000
C57_3 C 0.42007(13) 0.2400(2) 0.5000
C58_3 C 0.45999(12) 0.2411(2) 0.5000
C59_3 C 0.4793(2) 0.2228(2) 0.5259(2)
H36_3 H 0.4660 0.2102 0.5461
O14_3 O 0.70712(5) 0.21259(5) 0.30226(6)
C60_3 C 0.72124(8) 0.23172(8) 0.32856(7)
C61_3 C 0.70021(8) 0.23388(10) 0.36394(7)
C62_3 C 0.71434(9) 0.25262(12) 0.39411(9)
H38_3 H 0.7376 0.2639 0.3923
C63_3 C 0.66550(9) 0.21663(12) 0.36697(9)
H39_3 H 0.6556 0.2039 0.3468
C64_3 C 0.69469(9) 0.25503(14) 0.42707(9)
H40_3 H 0.7045 0.2683 0.4470
C65_3 C 0.64592(10) 0.21856(14) 0.40001(9)
H41_3 H 0.6229 0.2070 0.4018
C66_3 C 0.66001(9) 0.23752(14) 0.43067(8)
C67_3 C 0.63894(9) 0.23975(15) 0.46612(9)
C68_3 C 0.60045(10) 0.24043(16) 0.46655(9)
H42_3 H 0.5877 0.2412 0.4440
C69_3 C 0.65815(13) 0.2389(2) 0.5000
H43_3 H 0.6840 0.2378 0.5000
C70_3 C 0.57993(13) 0.2400(2) 0.5000
C71_3 C 0.54001(12) 0.2411(2) 0.5000
C72_3 C 0.5207(2) 0.2228(2) 0.5259(2)
H44_3 H 0.5340 0.2102 0.5461
O16_3 O 0.29288(5) 0.21259(5) 0.69774(6)
C73_3 C 0.27876(8) 0.23172(8) 0.67144(7)
C74_3 C 0.29979(8) 0.23388(10) 0.63606(7)
C75_3 C 0.28566(9) 0.25262(12) 0.60589(9)
H45_3 H 0.2624 0.2639 0.6077
C76_3 C 0.33450(9) 0.21663(12) 0.63303(9)
H46_3 H 0.3444 0.2039 0.6532
C77_3 C 0.30531(9) 0.25503(14) 0.57293(9)
H47_3 H 0.2955 0.2683 0.5530
C78_3 C 0.35408(10) 0.21856(14) 0.59999(9)
H48_3 H 0.3771 0.2070 0.5982
C79_3 C 0.33999(9) 0.23752(14) 0.56933(8)
C80_3 C 0.36106(9) 0.23975(15) 0.53388(9)
C81_3 C 0.39955(10) 0.24043(16) 0.53345(9)
H49_3 H 0.4123 0.2412 0.5560
C82_3 C 0.4793(2) 0.2228(2) 0.4741(2)
H50_3 H 0.4660 0.2102 0.4539
C83_3 C 0.72124(8) 0.23172(8) 0.67144(7)
C84_3 C 0.70021(8) 0.23388(10) 0.63606(7)
C85_3 C 0.71434(9) 0.25262(12) 0.60589(9)
H51_3 H 0.7376 0.2639 0.6077
C86_3 C 0.66550(9) 0.21663(12) 0.63303(9)
H52_3 H 0.6556 0.2039 0.6532
C87_3 C 0.69469(9) 0.25503(14) 0.57293(9)
H53_3 H 0.7045 0.2683 0.5530
C88_3 C 0.64592(10) 0.21856(14) 0.59999(9)
H54_3 H 0.6229 0.2070 0.5982
C89_3 C 0.66001(9) 0.23752(14) 0.56933(8)
C90_3 C 0.63894(9) 0.23975(15) 0.53388(9)
C91_3 C 0.60045(10) 0.24043(16) 0.53345(9)
H55_3 H 0.5877 0.2412 0.5560
C92_3 C 0.5207(2) 0.2228(2) 0.4741(2)
H56_3 H 0.5340 0.2102 0.4539
O22_5 O 0.32423(5) 0.17577(5) 0.7500
H61_5 H 0.3445 0.1853 0.7459
H62_5 H 0.3147 0.1555 0.7541
C93_3 C 0.22124(8) 0.17144(7) 0.26828(8)
C94_3 C 0.20021(8) 0.13606(7) 0.26612(10)
C95_3 C 0.21434(9) 0.10589(9) 0.24738(12)
H63_3 H 0.2376 0.1077 0.2361
C96_3 C 0.16550(9) 0.13303(9) 0.28337(12)
H64_3 H 0.1556 0.1532 0.2961
C97_3 C 0.19469(9) 0.07293(9) 0.24497(14)
H65_3 H 0.2045 0.0530 0.2317
C98_3 C 0.14592(10) 0.09999(9) 0.28144(14)
H66_3 H 0.1229 0.0982 0.2930
C99_3 C 0.16001(9) 0.06933(8) 0.26248(14)
C100_3 C 0.13894(9) 0.03388(9) 0.26025(15)
C101_3 C 0.10045(10) 0.03345(9) 0.25957(16)
H67_3 H 0.0877 0.0560 0.2588
C102_5 C 0.15815(13) -0.0000 0.2611(2)
H68_5 H 0.1840 0.0000 0.2622
C103_5 C 0.07993(13) 0.0000 0.2600(2)
C104_5 C 0.04001(12) 0.0000 0.2589(2)
C128_3 C 0.0207(2) 0.0259(2) 0.2772(2)
H82_3 H 0.0340 0.0461 0.2898
O38_5 O 0.28741(5) 0.20712(5) 0.80226(6)
O45_2 O 0.25195(5) 0.17336(5) 0.74854(5)
C102_6 C 0.15815(13) 1.0000 0.2611(2)
H68_6 H 0.1840 1.0000 0.2622
C103_6 C 0.07993(13) 1.0000 0.2600(2)
C104_6 C 0.04001(12) 1.0000 0.2589(2)
C105_3 C 0.0207(2) 0.9741(2) 0.2772(2)
H69_3 H 0.0340 0.9539 0.2898
O28_2 O 0.25195(5) 0.82664(5) 0.25146(5)
C119_3 C 0.22124(8) 0.82856(7) 0.26828(8)
C120_3 C 0.20021(8) 0.86394(7) 0.26612(10)
C121_3 C 0.21434(9) 0.89411(9) 0.24738(12)
H77_3 H 0.2376 0.8923 0.2361
C122_3 C 0.16550(9) 0.86697(9) 0.28337(12)
H78_3 H 0.1556 0.8468 0.2961
C123_3 C 0.19469(9) 0.92707(9) 0.24497(14)
H79_3 H 0.2045 0.9470 0.2317
C124_3 C 0.14592(10) 0.90001(9) 0.28144(14)
H80_3 H 0.1229 0.9018 0.2930
C125_3 C 0.16001(9) 0.93067(8) 0.26248(14)
C126_3 C 0.13894(9) 0.96612(9) 0.26025(15)
C127_3 C 0.10045(10) 0.96655(9) 0.25957(16)
H81_3 H 0.0877 0.9440 0.2588
O26_3 O 0.74805(5) 0.17336(5) 0.25146(5)
C106_3 C 0.77876(8) 0.17144(7) 0.26828(8)
C107_3 C 0.79979(8) 0.13606(7) 0.26612(10)
C108_3 C 0.78566(9) 0.10589(9) 0.24738(12)
H70_3 H 0.7624 0.1077 0.2361
C109_3 C 0.83450(9) 0.13303(9) 0.28337(12)
H71_3 H 0.8444 0.1532 0.2961
C110_3 C 0.80531(9) 0.07293(9) 0.24497(14)
H72_3 H 0.7955 0.0530 0.2317
C111_3 C 0.85408(10) 0.09999(9) 0.28144(14)
H73_3 H 0.8771 0.0982 0.2930
C112_3 C 0.83999(9) 0.06933(8) 0.26248(14)
C113_3 C 0.86106(9) 0.03388(9) 0.26025(15)
C114_3 C 0.89955(10) 0.03345(9) 0.25957(16)
H74_3 H 0.9123 0.0560 0.2588
C115_5 C 0.84185(13) 0.0000 0.2611(2)
H75_5 H 0.8160 0.0000 0.2622
C116_5 C 0.92007(13) 0.0000 0.2600(2)
C117_5 C 0.95999(12) 0.0000 0.2589(2)
C138_3 C 0.9793(2) 0.0259(2) 0.2772(2)
H88_3 H 0.9660 0.0461 0.2898
C115_6 C 0.84185(13) 1.0000 0.2611(2)
H75_6 H 0.8160 1.0000 0.2622
C116_6 C 0.92007(13) 1.0000 0.2600(2)
C117_6 C 0.95999(12) 1.0000 0.2589(2)
C118_3 C 0.9793(2) 0.9741(2) 0.2772(2)
H76_3 H 0.9660 0.9539 0.2898
C129_3 C 0.77876(8) 0.82856(7) 0.26828(8)
C130_3 C 0.79979(8) 0.86394(7) 0.26612(10)
C131_3 C 0.78566(9) 0.89411(9) 0.24738(12)
H83_3 H 0.7624 0.8923 0.2361
C132_3 C 0.83450(9) 0.86697(9) 0.28337(12)
H84_3 H 0.8444 0.8468 0.2961
C133_3 C 0.80531(9) 0.92707(9) 0.24497(14)
H85_3 H 0.7955 0.9470 0.2317
C134_3 C 0.85408(10) 0.90001(9) 0.28144(14)
H86_3 H 0.8771 0.9018 0.2930
C135_3 C 0.83999(9) 0.93067(8) 0.26248(14)
C136_3 C 0.86106(9) 0.96612(9) 0.26025(15)
C137_3 C 0.89955(10) 0.96655(9) 0.25957(16)
H87_3 H 0.9123 0.9440 0.2588
C102_7 C 0.15815(13) 0.0000 0.7389(2)
H68_7 H 0.1840 0.0000 0.7378
C103_7 C 0.07993(13) 0.0000 0.7400(2)
C104_7 C 0.04001(12) 0.0000 0.7411(2)
C105_4 C 0.0207(2) 0.0259(2) 0.7228(2)
H69_4 H 0.0340 0.0461 0.7102
C119_4 C 0.22124(8) 0.17144(7) 0.73172(8)
C120_4 C 0.20021(8) 0.13606(7) 0.73388(10)
C121_4 C 0.21434(9) 0.10589(9) 0.75262(12)
H77_4 H 0.2376 0.1077 0.7639
C122_4 C 0.16550(9) 0.13303(9) 0.71663(12)
H78_4 H 0.1556 0.1532 0.7039
C123_4 C 0.19469(9) 0.07293(9) 0.75503(14)
H79_4 H 0.2045 0.0530 0.7683
C124_4 C 0.14592(10) 0.09999(9) 0.71856(14)
H80_4 H 0.1229 0.0982 0.7070
C125_4 C 0.16001(9) 0.06933(8) 0.73752(14)
C126_4 C 0.13894(9) 0.03388(9) 0.73975(15)
C127_4 C 0.10045(10) 0.03345(9) 0.74043(16)
H81_4 H 0.0877 0.0560 0.7412
C47_4 C 0.27876(8) 0.76828(8) 0.67144(7)
C48_4 C 0.29979(8) 0.76612(10) 0.63606(7)
C49_4 C 0.28566(9) 0.74738(12) 0.60589(9)
H30_4 H 0.2624 0.7361 0.6077
C50_4 C 0.33450(9) 0.78337(12) 0.63303(9)
H31_4 H 0.3444 0.7961 0.6532
C51_4 C 0.30531(9) 0.74497(14) 0.57293(9)
H32_4 H 0.2955 0.7317 0.5530
C52_4 C 0.35408(10) 0.78144(14) 0.59999(9)
H33_4 H 0.3771 0.7930 0.5982
C53_4 C 0.33999(9) 0.76248(14) 0.56933(8)
C54_4 C 0.36106(9) 0.76025(15) 0.53388(9)
C55_4 C 0.39955(10) 0.75957(16) 0.53345(9)
H34_4 H 0.4123 0.7588 0.5560
C56_4 C 0.34185(13) 0.7611(2) 0.5000
H35_4 H 0.3160 0.7622 0.5000
C57_4 C 0.42007(13) 0.7600(2) 0.5000
C58_4 C 0.45999(12) 0.7589(2) 0.5000
C59_4 C 0.4793(2) 0.7772(2) 0.4741(2)
H36_4 H 0.4660 0.7898 0.4539
O14_4 O 0.70712(5) 0.78741(5) 0.69774(6)
C60_4 C 0.72124(8) 0.76828(8) 0.67144(7)
C61_4 C 0.70021(8) 0.76612(10) 0.63606(7)
C62_4 C 0.71434(9) 0.74738(12) 0.60589(9)
H38_4 H 0.7376 0.7361 0.6077
C63_4 C 0.66550(9) 0.78337(12) 0.63303(9)
H39_4 H 0.6556 0.7961 0.6532
C64_4 C 0.69469(9) 0.74497(14) 0.57293(9)
H40_4 H 0.7045 0.7317 0.5530
C65_4 C 0.64592(10) 0.78144(14) 0.59999(9)
H41_4 H 0.6229 0.7930 0.5982
C66_4 C 0.66001(9) 0.76248(14) 0.56933(8)
C67_4 C 0.63894(9) 0.76025(15) 0.53388(9)
C68_4 C 0.60045(10) 0.75957(16) 0.53345(9)
H42_4 H 0.5877 0.7588 0.5560
C69_4 C 0.65815(13) 0.7611(2) 0.5000
H43_4 H 0.6840 0.7622 0.5000
C70_4 C 0.57993(13) 0.7600(2) 0.5000
C71_4 C 0.54001(12) 0.7589(2) 0.5000
C72_4 C 0.5207(2) 0.7772(2) 0.4741(2)
H44_4 H 0.5340 0.7898 0.4539
O16_4 O 0.29288(5) 0.78741(5) 0.30226(6)
C73_4 C 0.27876(8) 0.76828(8) 0.32856(7)
C74_4 C 0.29979(8) 0.76612(10) 0.36394(7)
C75_4 C 0.28566(9) 0.74738(12) 0.39411(9)
H45_4 H 0.2624 0.7361 0.3923
C76_4 C 0.33450(9) 0.78337(12) 0.36697(9)
H46_4 H 0.3444 0.7961 0.3468
C77_4 C 0.30531(9) 0.74497(14) 0.42707(9)
H47_4 H 0.2955 0.7317 0.4470
C78_4 C 0.35408(10) 0.78144(14) 0.40001(9)
H48_4 H 0.3771 0.7930 0.4018
C79_4 C 0.33999(9) 0.76248(14) 0.43067(8)
C80_4 C 0.36106(9) 0.76025(15) 0.46612(9)
C81_4 C 0.39955(10) 0.75957(16) 0.46655(9)
H49_4 H 0.4123 0.7588 0.4440
C82_4 C 0.4793(2) 0.7772(2) 0.5259(2)
H50_4 H 0.4660 0.7898 0.5461
C83_4 C 0.72124(8) 0.76828(8) 0.32856(7)
C84_4 C 0.70021(8) 0.76612(10) 0.36394(7)
C85_4 C 0.71434(9) 0.74738(12) 0.39411(9)
H51_4 H 0.7376 0.7361 0.3923
C86_4 C 0.66550(9) 0.78337(12) 0.36697(9)
H52_4 H 0.6556 0.7961 0.3468
C87_4 C 0.69469(9) 0.74497(14) 0.42707(9)
H53_4 H 0.7045 0.7317 0.4470
C88_4 C 0.64592(10) 0.78144(14) 0.40001(9)
H54_4 H 0.6229 0.7930 0.4018
C89_4 C 0.66001(9) 0.76248(14) 0.43067(8)
C90_4 C 0.63894(9) 0.76025(15) 0.46612(9)
C91_4 C 0.60045(10) 0.75957(16) 0.46655(9)
H55_4 H 0.5877 0.7588 0.4440
C92_4 C 0.5207(2) 0.7772(2) 0.5259(2)
H56_4 H 0.5340 0.7898 0.5461
O22_6 O 0.32423(5) 0.82423(5) 0.2500
H61_6 H 0.3445 0.8147 0.2541
H62_6 H 0.3147 0.8445 0.2459
C93_4 C 0.22124(8) 0.82856(7) 0.73172(8)
C94_4 C 0.20021(8) 0.86394(7) 0.73388(10)
C95_4 C 0.21434(9) 0.89411(9) 0.75262(12)
H63_4 H 0.2376 0.8923 0.7639
C96_4 C 0.16550(9) 0.86697(9) 0.71663(12)
H64_4 H 0.1556 0.8468 0.7039
C97_4 C 0.19469(9) 0.92707(9) 0.75503(14)
H65_4 H 0.2045 0.9470 0.7683
C98_4 C 0.14592(10) 0.90001(9) 0.71856(14)
H66_4 H 0.1229 0.9018 0.7070
C99_4 C 0.16001(9) 0.93067(8) 0.73752(14)
C100_4 C 0.13894(9) 0.96612(9) 0.73975(15)
C101_4 C 0.10045(10) 0.96655(9) 0.74043(16)
H67_4 H 0.0877 0.9440 0.7412
C102_8 C 0.15815(13) 1.0000 0.7389(2)
H68_8 H 0.1840 1.0000 0.7378
C103_8 C 0.07993(13) 1.0000 0.7400(2)
C104_8 C 0.04001(12) 1.0000 0.7411(2)
C128_4 C 0.0207(2) 0.9741(2) 0.7228(2)
H82_4 H 0.0340 0.9539 0.7102
O38_6 O 0.28741(5) 0.79288(5) 0.19774(6)
C115_7 C 0.84185(13) 0.0000 0.7389(2)
H75_7 H 0.8160 0.0000 0.7378
C116_7 C 0.92007(13) 0.0000 0.7400(2)
C117_7 C 0.95999(12) 0.0000 0.7411(2)
C118_4 C 0.9793(2) 0.0259(2) 0.7228(2)
H76_4 H 0.9660 0.0461 0.7102
C129_4 C 0.77876(8) 0.17144(7) 0.73172(8)
C130_4 C 0.79979(8) 0.13606(7) 0.73388(10)
C131_4 C 0.78566(9) 0.10589(9) 0.75262(12)
H83_4 H 0.7624 0.1077 0.7639
C132_4 C 0.83450(9) 0.13303(9) 0.71663(12)
H84_4 H 0.8444 0.1532 0.7039
C133_4 C 0.80531(9) 0.07293(9) 0.75503(14)
H85_4 H 0.7955 0.0530 0.7683
C134_4 C 0.85408(10) 0.09999(9) 0.71856(14)
H86_4 H 0.8771 0.0982 0.7070
C135_4 C 0.83999(9) 0.06933(8) 0.73752(14)
C136_4 C 0.86106(9) 0.03388(9) 0.73975(15)
C137_4 C 0.89955(10) 0.03345(9) 0.74043(16)
H87_4 H 0.9123 0.0560 0.7412
O26_4 O 0.74805(5) 0.82664(5) 0.74854(5)
C106_4 C 0.77876(8) 0.82856(7) 0.73172(8)
C107_4 C 0.79979(8) 0.86394(7) 0.73388(10)
C108_4 C 0.78566(9) 0.89411(9) 0.75262(12)
H70_4 H 0.7624 0.8923 0.7639
C109_4 C 0.83450(9) 0.86697(9) 0.71663(12)
H71_4 H 0.8444 0.8468 0.7039
C110_4 C 0.80531(9) 0.92707(9) 0.75503(14)
H72_4 H 0.7955 0.9470 0.7683
C111_4 C 0.85408(10) 0.90001(9) 0.71856(14)
H73_4 H 0.8771 0.9018 0.7070
C112_4 C 0.83999(9) 0.93067(8) 0.73752(14)
C113_4 C 0.86106(9) 0.96612(9) 0.73975(15)
C114_4 C 0.89955(10) 0.96655(9) 0.74043(16)
H74_4 H 0.9123 0.9440 0.7412
C115_8 C 0.84185(13) 1.0000 0.7389(2)
H75_8 H 0.8160 1.0000 0.7378
C116_8 C 0.92007(13) 1.0000 0.7400(2)
C117_8 C 0.95999(12) 1.0000 0.7411(2)
C138_4 C 0.9793(2) 0.9741(2) 0.7228(2)
H88_4 H 0.9660 0.9539 0.7102
O22_7 O 0.67577(5) 0.82423(5) 0.7500
H61_7 H 0.6555 0.8147 0.7459
H62_7 H 0.6853 0.8445 0.7541
O38_7 O 0.71259(5) 0.79288(5) 0.80226(6)
O22_8 O 0.67577(5) 0.17577(5) 0.2500
H61_8 H 0.6555 0.1853 0.2541
H62_8 H 0.6853 0.1555 0.2459
O38_8 O 0.71259(5) 0.20712(5) 0.19774(6)
C93_5 C 0.26828(8) 0.22124(8) 0.17144(7)
C94_5 C 0.26612(10) 0.20021(8) 0.13606(7)
C95_5 C 0.24738(12) 0.21434(9) 0.10589(9)
H63_5 H 0.2361 0.2376 0.1077
C96_5 C 0.28337(12) 0.16550(9) 0.13303(9)
H64_5 H 0.2961 0.1556 0.1532
C97_5 C 0.24497(14) 0.19469(9) 0.07293(9)
H65_5 H 0.2317 0.2045 0.0530
C98_5 C 0.28144(14) 0.14592(10) 0.09999(9)
H66_5 H 0.2930 0.1229 0.0982
C99_5 C 0.26248(14) 0.16001(9) 0.06933(8)
C100_5 C 0.26025(15) 0.13894(9) 0.03388(9)
C101_5 C 0.25957(16) 0.10045(10) 0.03345(9)
H67_5 H 0.2588 0.0877 0.0560
C102_9 C 0.2611(2) 0.15815(13) -0.0000
H68_9 H 0.2622 0.1840 0.0000
C103_9 C 0.2600(2) 0.07993(13) 0.0000
C104_9 C 0.2589(2) 0.04001(12) 0.0000
C128_5 C 0.2772(2) 0.0207(2) 0.0259(2)
H82_5 H 0.2898 0.0340 0.0461
C102_10 C 0.2611(2) 0.15815(13) 1.0000
H68_10 H 0.2622 0.1840 1.0000
C103_10 C 0.2600(2) 0.07993(13) 1.0000
C104_10 C 0.2589(2) 0.04001(12) 1.0000
C105_5 C 0.2772(2) 0.0207(2) 0.9741(2)
H69_5 H 0.2898 0.0340 0.9539
C119_5 C 0.26828(8) 0.22124(8) 0.82856(7)
C120_5 C 0.26612(10) 0.20021(8) 0.86394(7)
C121_5 C 0.24738(12) 0.21434(9) 0.89411(9)
H77_5 H 0.2361 0.2376 0.8923
C122_5 C 0.28337(12) 0.16550(9) 0.86697(9)
H78_5 H 0.2961 0.1556 0.8468
C123_5 C 0.24497(14) 0.19469(9) 0.92707(9)
H79_5 H 0.2317 0.2045 0.9470
C124_5 C 0.28144(14) 0.14592(10) 0.90001(9)
H80_5 H 0.2930 0.1229 0.9018
C125_5 C 0.26248(14) 0.16001(9) 0.93067(8)
C126_5 C 0.26025(15) 0.13894(9) 0.96612(9)
C127_5 C 0.25957(16) 0.10045(10) 0.96655(9)
H81_5 H 0.2588 0.0877 0.9440
C106_5 C 0.26828(8) 0.77876(8) 0.17144(7)
C107_5 C 0.26612(10) 0.79979(8) 0.13606(7)
C108_5 C 0.24738(12) 0.78566(9) 0.10589(9)
H70_5 H 0.2361 0.7624 0.1077
C109_5 C 0.28337(12) 0.83450(9) 0.13303(9)
H71_5 H 0.2961 0.8444 0.1532
C110_5 C 0.24497(14) 0.80531(9) 0.07293(9)
H72_5 H 0.2317 0.7955 0.0530
C111_5 C 0.28144(14) 0.85408(10) 0.09999(9)
H73_5 H 0.2930 0.8771 0.0982
C112_5 C 0.26248(14) 0.83999(9) 0.06933(8)
C113_5 C 0.26025(15) 0.86106(9) 0.03388(9)
C114_5 C 0.25957(16) 0.89955(10) 0.03345(9)
H74_5 H 0.2588 0.9123 0.0560
C115_9 C 0.2611(2) 0.84185(13) 0.0000
H75_9 H 0.2622 0.8160 0.0000
C116_9 C 0.2600(2) 0.92007(13) 0.0000
C117_9 C 0.2589(2) 0.95999(12) -0.0000
C138_5 C 0.2772(2) 0.9793(2) 0.0259(2)
H88_5 H 0.2898 0.9660 0.0461
C115_10 C 0.2611(2) 0.84185(13) 1.0000
H75_10 H 0.2622 0.8160 1.0000
C116_10 C 0.2600(2) 0.92007(13) 1.0000
C117_10 C 0.2589(2) 0.95999(12) 1.0000
C118_5 C 0.2772(2) 0.9793(2) 0.9741(2)
H76_5 H 0.2898 0.9660 0.9539
C129_5 C 0.26828(8) 0.77876(8) 0.82856(7)
C130_5 C 0.26612(10) 0.79979(8) 0.86394(7)
C131_5 C 0.24738(12) 0.78566(9) 0.89411(9)
H83_5 H 0.2361 0.7624 0.8923
C132_5 C 0.28337(12) 0.83450(9) 0.86697(9)
H84_5 H 0.2961 0.8444 0.8468
C133_5 C 0.24497(14) 0.80531(9) 0.92707(9)
H85_5 H 0.2317 0.7955 0.9470
C134_5 C 0.28144(14) 0.85408(10) 0.90001(9)
H86_5 H 0.2930 0.8771 0.9018
C135_5 C 0.26248(14) 0.83999(9) 0.93067(8)
C136_5 C 0.26025(15) 0.86106(9) 0.96612(9)
C137_5 C 0.25957(16) 0.89955(10) 0.96655(9)
H87_5 H 0.2588 0.9123 0.9440
C102_11 C 0.7389(2) 0.15815(13) 0.0000
H68_11 H 0.7378 0.1840 -0.0000
C103_11 C 0.7400(2) 0.07993(13) -0.0000
C104_11 C 0.7411(2) 0.04001(12) -0.0000
C105_6 C 0.7228(2) 0.0207(2) 0.0259(2)
H69_6 H 0.7102 0.0340 0.0461
C119_6 C 0.73172(8) 0.22124(8) 0.17144(7)
C120_6 C 0.73388(10) 0.20021(8) 0.13606(7)
C121_6 C 0.75262(12) 0.21434(9) 0.10589(9)
H77_6 H 0.7639 0.2376 0.1077
C122_6 C 0.71663(12) 0.16550(9) 0.13303(9)
H78_6 H 0.7039 0.1556 0.1532
C123_6 C 0.75503(14) 0.19469(9) 0.07293(9)
H79_6 H 0.7683 0.2045 0.0530
C124_6 C 0.71856(14) 0.14592(10) 0.09999(9)
H80_6 H 0.7070 0.1229 0.0982
C125_6 C 0.73752(14) 0.16001(9) 0.06933(8)
C126_6 C 0.73975(15) 0.13894(9) 0.03388(9)
C127_6 C 0.74043(16) 0.10045(10) 0.03345(9)
H81_6 H 0.7412 0.0877 0.0560
C93_6 C 0.73172(8) 0.22124(8) 0.82856(7)
C94_6 C 0.73388(10) 0.20021(8) 0.86394(7)
C95_6 C 0.75262(12) 0.21434(9) 0.89411(9)
H63_6 H 0.7639 0.2376 0.8923
C96_6 C 0.71663(12) 0.16550(9) 0.86697(9)
H64_6 H 0.7039 0.1556 0.8468
C97_6 C 0.75503(14) 0.19469(9) 0.92707(9)
H65_6 H 0.7683 0.2045 0.9470
C98_6 C 0.71856(14) 0.14592(10) 0.90001(9)
H66_6 H 0.7070 0.1229 0.9018
C99_6 C 0.73752(14) 0.16001(9) 0.93067(8)
C100_6 C 0.73975(15) 0.13894(9) 0.96612(9)
C101_6 C 0.74043(16) 0.10045(10) 0.96655(9)
H67_6 H 0.7412 0.0877 0.9440
C102_12 C 0.7389(2) 0.15815(13) 1.0000
H68_12 H 0.7378 0.1840 1.0000
C103_12 C 0.7400(2) 0.07993(13) 1.0000
C104_12 C 0.7411(2) 0.04001(12) 1.0000
C128_6 C 0.7228(2) 0.0207(2) 0.9741(2)
H82_6 H 0.7102 0.0340 0.9539
C115_11 C 0.7389(2) 0.84185(13) 0.0000
H75_11 H 0.7378 0.8160 -0.0000
C116_11 C 0.7400(2) 0.92007(13) -0.0000
C117_11 C 0.7411(2) 0.95999(12) 0.0000
C118_6 C 0.7228(2) 0.9793(2) 0.0259(2)
H76_6 H 0.7102 0.9660 0.0461
C129_6 C 0.73172(8) 0.77876(8) 0.17144(7)
C130_6 C 0.73388(10) 0.79979(8) 0.13606(7)
C131_6 C 0.75262(12) 0.78566(9) 0.10589(9)
H83_6 H 0.7639 0.7624 0.1077
C132_6 C 0.71663(12) 0.83450(9) 0.13303(9)
H84_6 H 0.7039 0.8444 0.1532
C133_6 C 0.75503(14) 0.80531(9) 0.07293(9)
H85_6 H 0.7683 0.7955 0.0530
C134_6 C 0.71856(14) 0.85408(10) 0.09999(9)
H86_6 H 0.7070 0.8771 0.0982
C135_6 C 0.73752(14) 0.83999(9) 0.06933(8)
C136_6 C 0.73975(15) 0.86106(9) 0.03388(9)
C137_6 C 0.74043(16) 0.89955(10) 0.03345(9)
H87_6 H 0.7412 0.9123 0.0560
C106_6 C 0.73172(8) 0.77876(8) 0.82856(7)
C107_6 C 0.73388(10) 0.79979(8) 0.86394(7)
C108_6 C 0.75262(12) 0.78566(9) 0.89411(9)
H70_6 H 0.7639 0.7624 0.8923
C109_6 C 0.71663(12) 0.83450(9) 0.86697(9)
H71_6 H 0.7039 0.8444 0.8468
C110_6 C 0.75503(14) 0.80531(9) 0.92707(9)
H72_6 H 0.7683 0.7955 0.9470
C111_6 C 0.71856(14) 0.85408(10) 0.90001(9)
H73_6 H 0.7070 0.8771 0.9018
C112_6 C 0.73752(14) 0.83999(9) 0.93067(8)
C113_6 C 0.73975(15) 0.86106(9) 0.96612(9)
C114_6 C 0.74043(16) 0.89955(10) 0.96655(9)
H74_6 H 0.7412 0.9123 0.9440
C115_12 C 0.7389(2) 0.84185(13) 1.0000
H75_12 H 0.7378 0.8160 1.0000
C116_12 C 0.7400(2) 0.92007(13) 1.0000
C117_12 C 0.7411(2) 0.95999(12) 1.0000
C138_6 C 0.7228(2) 0.9793(2) 0.9741(2)
H88_6 H 0.7102 0.9660 0.9539
loop_
_geom_bond_atom_site_label_1
_geom_bond_atom_site_label_2
_geom_bond_site_symmetry_1
_geom_bond_site_symmetry_2
Al1 O1 1_555 1_555
O1 Al2 1_555 1_555
O2 Al1 1_555 1_555
H1 O2 1_555 1_555
O3 Al1 1_555 1_555
O4 C1 1_555 1_555
C1 O3 1_555 1_555
C2 C1 1_555 1_555
C3 C2 1_555 1_555
H2 C3 1_555 1_555
C4 C2 1_555 1_555
H3 C4 1_555 1_555
C5 C3 1_555 1_555
H4 C5 1_555 1_555
C6 C4 1_555 1_555
H5 C6 1_555 1_555
C7 C5 1_555 1_555
C8 C7 1_555 1_555
C9 C8 1_555 1_555
H6 C9 1_555 1_555
C10 C8 1_555 1_555
H7 C10 1_555 1_555
C11 C9 1_555 1_555
C12 C11 1_555 1_555
C13 C12 1_555 1_555
H8 C13 1_555 1_555
H9 O2 1_555 1_555
O5 C14 1_555 1_555
O6 C14 1_555 1_555
C14 C15 1_555 1_555
C15 C16 1_555 1_555
C16 H10 1_555 1_555
C17 C15 1_555 1_555
H11 C17 1_555 1_555
C18 C16 1_555 1_555
H12 C18 1_555 1_555
C19 C17 1_555 1_555
H13 C19 1_555 1_555
C20 C18 1_555 1_555
C21 C20 1_555 1_555
C22 C21 1_555 1_555
H14 C22 1_555 1_555
C23 C21 1_555 1_555
H15 C23 1_555 1_555
C24 C22 1_555 1_555
C25 C24 1_555 1_555
C26 C13 1_555 1_555
H16 C26 1_555 1_555
O7 C27 1_555 1_555
O8 C27 1_555 1_555
C27 C28 1_555 1_555
C28 C29 1_555 1_555
C29 H17 1_555 1_555
C30 C28 1_555 1_555
H18 C30 1_555 1_555
C31 C29 1_555 1_555
H19 C31 1_555 1_555
C32 C30 1_555 1_555
H20 C32 1_555 1_555
C33 C31 1_555 1_555
C34 C10 1_555 1_555
C35 C11 1_555 1_555
H21 C35 1_555 1_555
C36 C12 1_555 1_555
H22 C36 1_555 1_555
O9 C37 1_555 1_555
O10 C37 1_555 1_555
C37 C38 1_555 1_555
C38 C39 1_555 1_555
C39 H23 1_555 1_555
C40 C38 1_555 1_555
H24 C40 1_555 1_555
C41 C39 1_555 1_555
H25 C41 1_555 1_555
C42 C40 1_555 1_555
H26 C42 1_555 1_555
C43 C41 1_555 1_555
C44 C23 1_555 1_555
C45 C24 1_555 1_555
H27 C45 1_555 1_555
C46 C25 1_555 1_555
H28 C46 1_555 1_555
Al2 O11 1_555 1_555
O11 H29 1_555 1_555
O12 Al2 1_555 1_555
O13 Al1 1_555 1_555
C47 O12 1_555 1_555
C48 C47 1_555 1_555
C49 C48 1_555 1_555
H30 C49 1_555 1_555
C50 C48 1_555 1_555
H31 C50 1_555 1_555
C51 C49 1_555 1_555
H32 C51 1_555 1_555
C52 C50 1_555 1_555
H33 C52 1_555 1_555
C53 C51 1_555 1_555
C54 C53 1_555 1_555
C55 C54 1_555 1_555
H34 C55 1_555 1_555
C56 C54 1_555 1_555
H35 C56 1_555 1_555
C57 C55 1_555 1_555
C58 C57 1_555 1_555
C59 C58 1_555 1_555
H36 C59 1_555 1_555
H37 O11 1_555 1_555
O14 C60 1_555 1_555
O15 C60 1_555 1_555
C60 C61 1_555 1_555
C61 C62 1_555 1_555
C62 H38 1_555 1_555
C63 C61 1_555 1_555
H39 C63 1_555 1_555
C64 C62 1_555 1_555
H40 C64 1_555 1_555
C65 C63 1_555 1_555
H41 C65 1_555 1_555
C66 C64 1_555 1_555
C67 C66 1_555 1_555
C68 C67 1_555 1_555
H42 C68 1_555 1_555
C69 C67 1_555 1_555
H43 C69 1_555 1_555
C70 C68 1_555 1_555
C71 C70 1_555 1_555
C72 C59 1_555 1_555
H44 C72 1_555 1_555
O16 C73 1_555 1_555
O17 C73 1_555 1_555
C73 C74 1_555 1_555
C74 C75 1_555 1_555
C75 H45 1_555 1_555
C76 C74 1_555 1_555
H46 C76 1_555 1_555
C77 C75 1_555 1_555
H47 C77 1_555 1_555
C78 C76 1_555 1_555
H48 C78 1_555 1_555
C79 C77 1_555 1_555
C80 C56 1_555 1_555
C81 C57 1_555 1_555
H49 C81 1_555 1_555
C82 C58 1_555 1_555
H50 C82 1_555 1_555
O18 C83 1_555 1_555
O19 C83 1_555 1_555
C83 C84 1_555 1_555
C84 C85 1_555 1_555
C85 H51 1_555 1_555
C86 C84 1_555 1_555
H52 C86 1_555 1_555
C87 C85 1_555 1_555
H53 C87 1_555 1_555
C88 C86 1_555 1_555
H54 C88 1_555 1_555
C89 C87 1_555 1_555
C90 C69 1_555 1_555
C91 C70 1_555 1_555
H55 C91 1_555 1_555
C92 C71 1_555 1_555
H56 C92 1_555 1_555
Al3 O1 1_555 1_555
O20 Al3 1_555 1_555
H57 O20 1_555 1_555
H58 O20 1_555 1_555
Al4 O5 1_555 1_555
O21 Al4 1_555 1_555
H59 O21 1_555 1_555
H60 O21 1_555 1_555
Al5 O16 1_555 1_555
O22 Al5 1_555 1_555
H61 O22 1_555 1_555
H62 O22 1_555 1_555
O23 Al1 1_555 1_555
O24 Al2 1_555 1_555
C93 O23 1_555 1_555
C94 C93 1_555 1_555
C95 C94 1_555 1_555
H63 C95 1_555 1_555
C96 C94 1_555 1_555
H64 C96 1_555 1_555
C97 C95 1_555 1_555
H65 C97 1_555 1_555
C98 C96 1_555 1_555
H66 C98 1_555 1_555
C99 C97 1_555 1_555
C100 C99 1_555 1_555
C101 C100 1_555 1_555
H67 C101 1_555 1_555
C102 C100 1_555 1_555
H68 C102 1_555 1_555
C103 C101 1_555 1_555
C104 C103 1_555 1_555
C128 C104 1_555 1_555
H82 C128 1_555 1_555
O32 Al4 1_555 1_555
Al7 O9 1_555 1_555
Al9 O19 1_555 1_555
Al10 O18 1_555 1_555
Al12 O10 1_555 1_555
Al14 O15 1_555 1_555
Al15 O7 1_555 1_555
Al18 O14 1_555 1_555
Al19 O6 1_555 1_555
Al20 O8 1_555 1_555
O34 Al3 1_555 1_555
O35 Al2 1_555 1_555
O36 Al3 1_555 1_555
O38 Al5 1_555 1_555
O39 Al4 1_555 1_555
O40 Al2 1_555 1_555
O41 Al3 1_555 1_555
O42 Al1 1_555 1_555
O44 Al5 1_555 1_555
O45 Al5 1_555 1_555
O46 Al4 1_555 1_555
O4 Al3 1_555 1_555
C6 C7 1_555 1_555
C19 C20 1_555 1_555
C25 C26 1_555 1_555
C32 C33 1_555 1_555
C33 C34 1_555 1_555
C34 C35 1_555 1_555
C36 C46 1_555 1_555
C42 C43 1_555 1_555
C43 C44 1_555 1_555
C44 C45 1_555 1_555
O13 C47 1_555 1_555
C52 C53 1_555 1_555
C65 C66 1_555 1_555
C71 C72 1_555 1_555
O17 Al4 1_555 1_555
C78 C79 1_555 1_555
C79 C80 1_555 1_555
C80 C81 1_555 1_555
C82 C92 1_555 1_555
C88 C89 1_555 1_555
C89 C90 1_555 1_555
C90 C91 1_555 1_555
Al5 O32 1_555 1_555
O24 C93 1_555 1_555
C98 C99 1_555 1_555
O32 Al19 1_555 1_555
O25 C106 1_555 1_555
O26 C106 1_555 1_555
C106 C107 1_555 1_555
C107 C108 1_555 1_555
C108 H70 1_555 1_555
C109 C107 1_555 1_555
H71 C109 1_555 1_555
C110 C108 1_555 1_555
H72 C110 1_555 1_555
C111 C109 1_555 1_555
H73 C111 1_555 1_555
C112 C110 1_555 1_555
C113 C112 1_555 1_555
C114 C113 1_555 1_555
H74 C114 1_555 1_555
C115 C113 1_555 1_555
H75 C115 1_555 1_555
C116 C114 1_555 1_555
C117 C116 1_555 1_555
C138 C117 1_555 1_555
H88 C138 1_555 1_555
Al14 O25 1_555 1_555
Al18 O26 1_555 1_555
C111 C112 1_555 1_555
H68_2 C102_2 1_555 1_555
C104_2 C103_2 1_555 1_555
C105 C104_2 1_555 1_555
H69 C105 1_555 1_555
O27 C119 1_555 1_555
O28 C119 1_555 1_555
C119 C120 1_555 1_555
C120 C121 1_555 1_555
C121 H77 1_555 1_555
C122 C120 1_555 1_555
H78 C122 1_555 1_555
C123 C121 1_555 1_555
H79 C123 1_555 1_555
C124 C122 1_555 1_555
H80 C124 1_555 1_555
C125 C123 1_555 1_555
C126 C102_2 1_555 1_555
C127 C103_2 1_555 1_555
H81 C127 1_555 1_555
Al15 O27 1_555 1_555
O31 Al15 1_555 1_555
H89 O31 1_555 1_555
H90 O31 1_555 1_555
Al16 O28 1_555 1_555
O33 Al15 1_555 1_555
O43 Al15 1_555 1_555
O47 Al15 1_555 1_555
C124 C125 1_555 1_555
C125 C126 1_555 1_555
C126 C127 1_555 1_555
Al16 O33 1_555 1_555
H75_2 C115_2 1_555 1_555
C117_2 C116_2 1_555 1_555
H76 C118 1_555 1_555
O29 C129 1_555 1_555
O30 C129 1_555 1_555
C129 C130 1_555 1_555
C130 C131 1_555 1_555
C131 H83 1_555 1_555
C132 C130 1_555 1_555
H84 C132 1_555 1_555
C133 C131 1_555 1_555
H85 C133 1_555 1_555
C134 C132 1_555 1_555
H86 C134 1_555 1_555
C135 C133 1_555 1_555
C136 C115_2 1_555 1_555
C137 C116_2 1_555 1_555
H87 C137 1_555 1_555
Al8 O29 1_555 1_555
Al11 O30 1_555 1_555
C117_2 C118 1_555 1_555
C134 C135 1_555 1_555
C135 C136 1_555 1_555
C136 C137 1_555 1_555
H68_3 C102_3 1_555 1_555
C104_3 C103_3 1_555 1_555
C105_2 C104_3 1_555 1_555
H69_2 C105_2 1_555 1_555
O39 C119_2 1_555 1_555
O45 C119_2 1_555 1_555
C119_2 C120_2 1_555 1_555
C120_2 C121_2 1_555 1_555
C121_2 H77_2 1_555 1_555
C122_2 C120_2 1_555 1_555
H78_2 C122_2 1_555 1_555
C123_2 C121_2 1_555 1_555
H79_2 C123_2 1_555 1_555
C124_2 C122_2 1_555 1_555
H80_2 C124_2 1_555 1_555
C125_2 C123_2 1_555 1_555
C126_2 C102_3 1_555 1_555
C127_2 C103_3 1_555 1_555
H81_2 C127_2 1_555 1_555
C124_2 C125_2 1_555 1_555
C125_2 C126_2 1_555 1_555
C126_2 C127_2 1_555 1_555
H75_3 C115_3 1_555 1_555
C117_3 C116_3 1_555 1_555
H76_2 C118_2 1_555 1_555
O29_2 C129_2 1_555 1_555
O30_2 C129_2 1_555 1_555
C129_2 C130_2 1_555 1_555
C130_2 C131_2 1_555 1_555
C131_2 H83_2 1_555 1_555
C132_2 C130_2 1_555 1_555
H84_2 C132_2 1_555 1_555
C133_2 C131_2 1_555 1_555
H85_2 C133_2 1_555 1_555
C134_2 C132_2 1_555 1_555
H86_2 C134_2 1_555 1_555
C135_2 C133_2 1_555 1_555
C136_2 C115_3 1_555 1_555
C137_2 C116_3 1_555 1_555
H87_2 C137_2 1_555 1_555
Al9 O29_2 1_555 1_555
Al10 O30_2 1_555 1_555
C117_3 C118_2 1_555 1_555
C134_2 C135_2 1_555 1_555
C135_2 C136_2 1_555 1_555
C136_2 C137_2 1_555 1_555
Al7 O1_2 1_555 1_555
O1_2 Al2_2 1_555 1_555
O2_2 Al7 1_555 1_555
H1_2 O2_2 1_555 1_555
H9_2 O2_2 1_555 1_555
Al2_2 O11_2 1_555 1_555
O11_2 H29_2 1_555 1_555
O12_2 Al2_2 1_555 1_555
O13_2 Al7 1_555 1_555
C47_2 O12_2 1_555 1_555
C48_2 C47_2 1_555 1_555
C49_2 C48_2 1_555 1_555
H30_2 C49_2 1_555 1_555
C50_2 C48_2 1_555 1_555
H31_2 C50_2 1_555 1_555
C51_2 C49_2 1_555 1_555
H32_2 C51_2 1_555 1_555
C52_2 C50_2 1_555 1_555
H33_2 C52_2 1_555 1_555
C53_2 C51_2 1_555 1_555
C54_2 C53_2 1_555 1_555
C55_2 C54_2 1_555 1_555
H34_2 C55_2 1_555 1_555
C56_2 C54_2 1_555 1_555
H35_2 C56_2 1_555 1_555
C57_2 C55_2 1_555 1_555
C58_2 C57_2 1_555 1_555
C59_2 C58_2 1_555 1_555
H36_2 C59_2 1_555 1_555
H37_2 O11_2 1_555 1_555
O14_2 C60_2 1_555 1_555
O15_2 C60_2 1_555 1_555
C60_2 C61_2 1_555 1_555
C61_2 C62_2 1_555 1_555
C62_2 H38_2 1_555 1_555
C63_2 C61_2 1_555 1_555
H39_2 C63_2 1_555 1_555
C64_2 C62_2 1_555 1_555
H40_2 C64_2 1_555 1_555
C65_2 C63_2 1_555 1_555
H41_2 C65_2 1_555 1_555
C66_2 C64_2 1_555 1_555
C67_2 C66_2 1_555 1_555
C68_2 C67_2 1_555 1_555
H42_2 C68_2 1_555 1_555
C69_2 C67_2 1_555 1_555
H43_2 C69_2 1_555 1_555
C70_2 C68_2 1_555 1_555
C71_2 C70_2 1_555 1_555
C72_2 C59_2 1_555 1_555
H44_2 C72_2 1_555 1_555
O16_2 C73_2 1_555 1_555
O43 C73_2 1_555 1_555
C73_2 C74_2 1_555 1_555
C74_2 C75_2 1_555 1_555
C75_2 H45_2 1_555 1_555
C76_2 C74_2 1_555 1_555
H46_2 C76_2 1_555 1_555
C77_2 C75_2 1_555 1_555
H47_2 C77_2 1_555 1_555
C78_2 C76_2 1_555 1_555
H48_2 C78_2 1_555 1_555
C79_2 C77_2 1_555 1_555
C80_2 C56_2 1_555 1_555
C81_2 C57_2 1_555 1_555
H49_2 C81_2 1_555 1_555
C82_2 C58_2 1_555 1_555
H50_2 C82_2 1_555 1_555
O18_2 C83_2 1_555 1_555
O19_2 C83_2 1_555 1_555
C83_2 C84_2 1_555 1_555
C84_2 C85_2 1_555 1_555
C85_2 H51_2 1_555 1_555
C86_2 C84_2 1_555 1_555
H52_2 C86_2 1_555 1_555
C87_2 C85_2 1_555 1_555
H53_2 C87_2 1_555 1_555
C88_2 C86_2 1_555 1_555
H54_2 C88_2 1_555 1_555
C89_2 C87_2 1_555 1_555
C90_2 C69_2 1_555 1_555
C91_2 C70_2 1_555 1_555
H55_2 C91_2 1_555 1_555
C92_2 C71_2 1_555 1_555
H56_2 C92_2 1_555 1_555
Al12 O1_2 1_555 1_555
O20_2 Al12 1_555 1_555
H57_2 O20_2 1_555 1_555
H58_2 O20_2 1_555 1_555
Al16 O16_2 1_555 1_555
O22_2 Al16 1_555 1_555
H61_2 O22_2 1_555 1_555
H62_2 O22_2 1_555 1_555
O23_2 Al7 1_555 1_555
O24_2 Al2_2 1_555 1_555
C93_2 O23_2 1_555 1_555
C94_2 C93_2 1_555 1_555
C95_2 C94_2 1_555 1_555
H63_2 C95_2 1_555 1_555
C96_2 C94_2 1_555 1_555
H64_2 C96_2 1_555 1_555
C97_2 C95_2 1_555 1_555
H65_2 C97_2 1_555 1_555
C98_2 C96_2 1_555 1_555
H66_2 C98_2 1_555 1_555
C99_2 C97_2 1_555 1_555
C100_2 C99_2 1_555 1_555
C101_2 C100_2 1_555 1_555
H67_2 C101_2 1_555 1_555
C102_4 C100_2 1_555 1_555
H68_4 C102_4 1_555 1_555
C103_4 C101_2 1_555 1_555
C104_4 C103_4 1_555 1_555
C128_2 C104_4 1_555 1_555
H82_2 C128_2 1_555 1_555
Al8 O19_2 1_555 1_555
Al11 O18_2 1_555 1_555
Al14_2 O15_2 1_555 1_555
Al18_2 O14_2 1_555 1_555
O34_2 Al12 1_555 1_555
O35_2 Al2_2 1_555 1_555
O36_2 Al12 1_555 1_555
O38_2 Al16 1_555 1_555
O40_2 Al2_2 1_555 1_555
O41_2 Al12 1_555 1_555
O42_2 Al7 1_555 1_555
O44_2 Al16 1_555 1_555
O13_2 C47_2 1_555 1_555
C52_2 C53_2 1_555 1_555
C65_2 C66_2 1_555 1_555
C71_2 C72_2 1_555 1_555
C78_2 C79_2 1_555 1_555
C79_2 C80_2 1_555 1_555
C80_2 C81_2 1_555 1_555
C82_2 C92_2 1_555 1_555
C88_2 C89_2 1_555 1_555
C89_2 C90_2 1_555 1_555
C90_2 C91_2 1_555 1_555
O24_2 C93_2 1_555 1_555
C98_2 C99_2 1_555 1_555
O33 Al20 1_555 1_555
O25_2 C106_2 1_555 1_555
O26_2 C106_2 1_555 1_555
C106_2 C107_2 1_555 1_555
C107_2 C108_2 1_555 1_555
C108_2 H70_2 1_555 1_555
C109_2 C107_2 1_555 1_555
H71_2 C109_2 1_555 1_555
C110_2 C108_2 1_555 1_555
H72_2 C110_2 1_555 1_555
C111_2 C109_2 1_555 1_555
H73_2 C111_2 1_555 1_555
C112_2 C110_2 1_555 1_555
C113_2 C112_2 1_555 1_555
C114_2 C113_2 1_555 1_555
H74_2 C114_2 1_555 1_555
C115_4 C113_2 1_555 1_555
H75_4 C115_4 1_555 1_555
C116_4 C114_2 1_555 1_555
C117_4 C116_4 1_555 1_555
C138_2 C117_4 1_555 1_555
H88_2 C138_2 1_555 1_555
Al14_2 O25_2 1_555 1_555
Al18_2 O26_2 1_555 1_555
C111_2 C112_2 1_555 1_555
O31_2 Al14 1_555 1_555
H89_2 O31_2 1_555 1_555
H90_2 O31_2 1_555 1_555
O33_2 Al14 1_555 1_555
O37 Al14 1_555 1_555
O47_2 Al14 1_555 1_555
Al18 O33_2 1_555 1_555
Al8 O1_3 1_555 1_555
O1_3 Al11 1_555 1_555
O2_3 Al8 1_555 1_555
H1_3 O2_3 1_555 1_555
O3_2 Al8 1_555 1_555
O4_2 C1_2 1_555 1_555
C1_2 O3_2 1_555 1_555
C2_2 C1_2 1_555 1_555
C3_2 C2_2 1_555 1_555
H2_2 C3_2 1_555 1_555
C4_2 C2_2 1_555 1_555
H3_2 C4_2 1_555 1_555
C5_2 C3_2 1_555 1_555
H4_2 C5_2 1_555 1_555
C6_2 C4_2 1_555 1_555
H5_2 C6_2 1_555 1_555
C7_2 C5_2 1_555 1_555
C8_2 C7_2 1_555 1_555
C9_2 C8_2 1_555 1_555
H6_2 C9_2 1_555 1_555
C10_2 C8_2 1_555 1_555
H7_2 C10_2 1_555 1_555
C11_2 C9_2 1_555 1_555
C12_2 C11_2 1_555 1_555
C13_2 C12_2 1_555 1_555
H8_2 C13_2 1_555 1_555
H9_3 O2_3 1_555 1_555
O5_2 C14_2 1_555 1_555
O6_2 C14_2 1_555 1_555
C14_2 C15_2 1_555 1_555
C15_2 C16_2 1_555 1_555
C16_2 H10_2 1_555 1_555
C17_2 C15_2 1_555 1_555
H11_2 C17_2 1_555 1_555
C18_2 C16_2 1_555 1_555
H12_2 C18_2 1_555 1_555
C19_2 C17_2 1_555 1_555
H13_2 C19_2 1_555 1_555
C20_2 C18_2 1_555 1_555
C21_2 C20_2 1_555 1_555
C22_2 C21_2 1_555 1_555
H14_2 C22_2 1_555 1_555
C23_2 C21_2 1_555 1_555
H15_2 C23_2 1_555 1_555
C24_2 C22_2 1_555 1_555
C25_2 C24_2 1_555 1_555
C26_2 C13_2 1_555 1_555
H16_2 C26_2 1_555 1_555
O37 C27_2 1_555 1_555
O8_2 C27_2 1_555 1_555
C27_2 C28_2 1_555 1_555
C28_2 C29_2 1_555 1_555
C29_2 H17_2 1_555 1_555
C30_2 C28_2 1_555 1_555
H18_2 C30_2 1_555 1_555
C31_2 C29_2 1_555 1_555
H19_2 C31_2 1_555 1_555
C32_2 C30_2 1_555 1_555
H20_2 C32_2 1_555 1_555
C33_2 C31_2 1_555 1_555
C34_2 C10_2 1_555 1_555
C35_2 C11_2 1_555 1_555
H21_2 C35_2 1_555 1_555
C36_2 C12_2 1_555 1_555
H22_2 C36_2 1_555 1_555
O9_2 C37_2 1_555 1_555
O10_2 C37_2 1_555 1_555
C37_2 C38_2 1_555 1_555
C38_2 C39_2 1_555 1_555
C39_2 H23_2 1_555 1_555
C40_2 C38_2 1_555 1_555
H24_2 C40_2 1_555 1_555
C41_2 C39_2 1_555 1_555
H25_2 C41_2 1_555 1_555
C42_2 C40_2 1_555 1_555
H26_2 C42_2 1_555 1_555
C43_2 C41_2 1_555 1_555
C44_2 C23_2 1_555 1_555
C45_2 C24_2 1_555 1_555
H27_2 C45_2 1_555 1_555
C46_2 C25_2 1_555 1_555
H28_2 C46_2 1_555 1_555
Al11 O11_3 1_555 1_555
O11_3 H29_3 1_555 1_555
H37_3 O11_3 1_555 1_555
Al3_2 O1_3 1_555 1_555
O20_3 Al3_2 1_555 1_555
H57_3 O20_3 1_555 1_555
H58_3 O20_3 1_555 1_555
Al14_2 O5_2 1_555 1_555
O21_2 Al14_2 1_555 1_555
H59_2 O21_2 1_555 1_555
H60_2 O21_2 1_555 1_555
O22_3 Al18_2 1_555 1_555
H61_3 O22_3 1_555 1_555
H62_3 O22_3 1_555 1_555
O32_2 Al14_2 1_555 1_555
Al9 O9_2 1_555 1_555
Al12_2 O10_2 1_555 1_555
Al19_2 O6_2 1_555 1_555
Al20_2 O8_2 1_555 1_555
O34_3 Al3_2 1_555 1_555
O35_3 Al11 1_555 1_555
O36_3 Al3_2 1_555 1_555
O38_3 Al18_2 1_555 1_555
O40_3 Al11 1_555 1_555
O41_3 Al3_2 1_555 1_555
O42_3 Al8 1_555 1_555
O44_3 Al18_2 1_555 1_555
O46_2 Al14_2 1_555 1_555
O4_2 Al3_2 1_555 1_555
C6_2 C7_2 1_555 1_555
C19_2 C20_2 1_555 1_555
C25_2 C26_2 1_555 1_555
C32_2 C33_2 1_555 1_555
C33_2 C34_2 1_555 1_555
C34_2 C35_2 1_555 1_555
C36_2 C46_2 1_555 1_555
C42_2 C43_2 1_555 1_555
C43_2 C44_2 1_555 1_555
C44_2 C45_2 1_555 1_555
Al18_2 O32_2 1_555 1_555
O32_2 Al19_2 1_555 1_555
Al9 O1_4 1_555 1_555
O1_4 Al10 1_555 1_555
O2_4 Al9 1_555 1_555
H1_4 O2_4 1_555 1_555
H9_4 O2_4 1_555 1_555
Al10 O11_4 1_555 1_555
O11_4 H29_4 1_555 1_555
H37_4 O11_4 1_555 1_555
Al12_2 O1_4 1_555 1_555
O20_4 Al12_2 1_555 1_555
H57_4 O20_4 1_555 1_555
H58_4 O20_4 1_555 1_555
O22_4 Al18 1_555 1_555
H61_4 O22_4 1_555 1_555
H62_4 O22_4 1_555 1_555
O34_4 Al12_2 1_555 1_555
O35_4 Al10 1_555 1_555
O36_4 Al12_2 1_555 1_555
O38_4 Al18 1_555 1_555
O40_4 Al10 1_555 1_555
O41_4 Al12_2 1_555 1_555
O42_4 Al9 1_555 1_555
O44_4 Al18 1_555 1_555
O33_2 Al20_2 1_555 1_555
C47_3 O34 1_555 1_555
C48_3 C47_3 1_555 1_555
C49_3 C48_3 1_555 1_555
H30_3 C49_3 1_555 1_555
C50_3 C48_3 1_555 1_555
H31_3 C50_3 1_555 1_555
C51_3 C49_3 1_555 1_555
H32_3 C51_3 1_555 1_555
C52_3 C50_3 1_555 1_555
H33_3 C52_3 1_555 1_555
C53_3 C51_3 1_555 1_555
C54_3 C53_3 1_555 1_555
C55_3 C54_3 1_555 1_555
H34_3 C55_3 1_555 1_555
C56_3 C54_3 1_555 1_555
H35_3 C56_3 1_555 1_555
C57_3 C55_3 1_555 1_555
C58_3 C57_3 1_555 1_555
C59_3 C58_3 1_555 1_555
H36_3 C59_3 1_555 1_555
O14_3 C60_3 1_555 1_555
O44_2 C60_3 1_555 1_555
C60_3 C61_3 1_555 1_555
C61_3 C62_3 1_555 1_555
C62_3 H38_3 1_555 1_555
C63_3 C61_3 1_555 1_555
H39_3 C63_3 1_555 1_555
C64_3 C62_3 1_555 1_555
H40_3 C64_3 1_555 1_555
C65_3 C63_3 1_555 1_555
H41_3 C65_3 1_555 1_555
C66_3 C64_3 1_555 1_555
C67_3 C66_3 1_555 1_555
C68_3 C67_3 1_555 1_555
H42_3 C68_3 1_555 1_555
C69_3 C67_3 1_555 1_555
H43_3 C69_3 1_555 1_555
C70_3 C68_3 1_555 1_555
C71_3 C70_3 1_555 1_555
C72_3 C59_3 1_555 1_555
H44_3 C72_3 1_555 1_555
O16_3 C73_3 1_555 1_555
O44_4 C73_3 1_555 1_555
C73_3 C74_3 1_555 1_555
C74_3 C75_3 1_555 1_555
C75_3 H45_3 1_555 1_555
C76_3 C74_3 1_555 1_555
H46_3 C76_3 1_555 1_555
C77_3 C75_3 1_555 1_555
H47_3 C77_3 1_555 1_555
C78_3 C76_3 1_555 1_555
H48_3 C78_3 1_555 1_555
C79_3 C77_3 1_555 1_555
C80_3 C56_3 1_555 1_555
C81_3 C57_3 1_555 1_555
H49_3 C81_3 1_555 1_555
C82_3 C58_3 1_555 1_555
H50_3 C82_3 1_555 1_555
O34_3 C83_3 1_555 1_555
O40_3 C83_3 1_555 1_555
C83_3 C84_3 1_555 1_555
C84_3 C85_3 1_555 1_555
C85_3 H51_3 1_555 1_555
C86_3 C84_3 1_555 1_555
H52_3 C86_3 1_555 1_555
C87_3 C85_3 1_555 1_555
H53_3 C87_3 1_555 1_555
C88_3 C86_3 1_555 1_555
H54_3 C88_3 1_555 1_555
C89_3 C87_3 1_555 1_555
C90_3 C69_3 1_555 1_555
C91_3 C70_3 1_555 1_555
H55_3 C91_3 1_555 1_555
C92_3 C71_3 1_555 1_555
H56_3 C92_3 1_555 1_555
Al20_2 O16_3 1_555 1_555
O22_5 Al20_2 1_555 1_555
H61_5 O22_5 1_555 1_555
H62_5 O22_5 1_555 1_555
C93_3 O35 1_555 1_555
C94_3 C93_3 1_555 1_555
C95_3 C94_3 1_555 1_555
H63_3 C95_3 1_555 1_555
C96_3 C94_3 1_555 1_555
H64_3 C96_3 1_555 1_555
C97_3 C95_3 1_555 1_555
H65_3 C97_3 1_555 1_555
C98_3 C96_3 1_555 1_555
H66_3 C98_3 1_555 1_555
C99_3 C97_3 1_555 1_555
C100_3 C99_3 1_555 1_555
C101_3 C100_3 1_555 1_555
H67_3 C101_3 1_555 1_555
C102_5 C100_3 1_555 1_555
H68_5 C102_5 1_555 1_555
C103_5 C101_3 1_555 1_555
C104_5 C103_5 1_555 1_555
C128_3 C104_5 1_555 1_555
H82_3 C128_3 1_555 1_555
Al20 O14_3 1_555 1_555
O38_5 Al20_2 1_555 1_555
O45_2 Al20_2 1_555 1_555
O40 C47_3 1_555 1_555
C52_3 C53_3 1_555 1_555
C65_3 C66_3 1_555 1_555
C71_3 C72_3 1_555 1_555
C78_3 C79_3 1_555 1_555
C79_3 C80_3 1_555 1_555
C80_3 C81_3 1_555 1_555
C82_3 C92_3 1_555 1_555
C88_3 C89_3 1_555 1_555
C89_3 C90_3 1_555 1_555
C90_3 C91_3 1_555 1_555
O41 C93_3 1_555 1_555
C98_3 C99_3 1_555 1_555
H68_6 C102_6 1_555 1_555
C104_6 C103_6 1_555 1_555
C105_3 C104_6 1_555 1_555
H69_3 C105_3 1_555 1_555
O38 C119_3 1_555 1_555
O28_2 C119_3 1_555 1_555
C119_3 C120_3 1_555 1_555
C120_3 C121_3 1_555 1_555
C121_3 H77_3 1_555 1_555
C122_3 C120_3 1_555 1_555
H78_3 C122_3 1_555 1_555
C123_3 C121_3 1_555 1_555
H79_3 C123_3 1_555 1_555
C124_3 C122_3 1_555 1_555
H80_3 C124_3 1_555 1_555
C125_3 C123_3 1_555 1_555
C126_3 C102_6 1_555 1_555
C127_3 C103_6 1_555 1_555
H81_3 C127_3 1_555 1_555
Al19 O28_2 1_555 1_555
C124_3 C125_3 1_555 1_555
C125_3 C126_3 1_555 1_555
C126_3 C127_3 1_555 1_555
O38_2 C106_3 1_555 1_555
O26_3 C106_3 1_555 1_555
C106_3 C107_3 1_555 1_555
C107_3 C108_3 1_555 1_555
C108_3 H70_3 1_555 1_555
C109_3 C107_3 1_555 1_555
H71_3 C109_3 1_555 1_555
C110_3 C108_3 1_555 1_555
H72_3 C110_3 1_555 1_555
C111_3 C109_3 1_555 1_555
H73_3 C111_3 1_555 1_555
C112_3 C110_3 1_555 1_555
C113_3 C112_3 1_555 1_555
C114_3 C113_3 1_555 1_555
H74_3 C114_3 1_555 1_555
C115_5 C113_3 1_555 1_555
H75_5 C115_5 1_555 1_555
C116_5 C114_3 1_555 1_555
C117_5 C116_5 1_555 1_555
C138_3 C117_5 1_555 1_555
H88_3 C138_3 1_555 1_555
Al20 O26_3 1_555 1_555
C111_3 C112_3 1_555 1_555
H75_6 C115_6 1_555 1_555
C117_6 C116_6 1_555 1_555
H76_3 C118_3 1_555 1_555
O35_2 C129_3 1_555 1_555
O41_2 C129_3 1_555 1_555
C129_3 C130_3 1_555 1_555
C130_3 C131_3 1_555 1_555
C131_3 H83_3 1_555 1_555
C132_3 C130_3 1_555 1_555
H84_3 C132_3 1_555 1_555
C133_3 C131_3 1_555 1_555
H85_3 C133_3 1_555 1_555
C134_3 C132_3 1_555 1_555
H86_3 C134_3 1_555 1_555
C135_3 C133_3 1_555 1_555
C136_3 C115_6 1_555 1_555
C137_3 C116_6 1_555 1_555
H87_3 C137_3 1_555 1_555
C117_6 C118_3 1_555 1_555
C134_3 C135_3 1_555 1_555
C135_3 C136_3 1_555 1_555
C136_3 C137_3 1_555 1_555
H68_7 C102_7 1_555 1_555
C104_7 C103_7 1_555 1_555
C105_4 C104_7 1_555 1_555
H69_4 C105_4 1_555 1_555
O38_4 C119_4 1_555 1_555
O45_2 C119_4 1_555 1_555
C119_4 C120_4 1_555 1_555
C120_4 C121_4 1_555 1_555
C121_4 H77_4 1_555 1_555
C122_4 C120_4 1_555 1_555
H78_4 C122_4 1_555 1_555
C123_4 C121_4 1_555 1_555
H79_4 C123_4 1_555 1_555
C124_4 C122_4 1_555 1_555
H80_4 C124_4 1_555 1_555
C125_4 C123_4 1_555 1_555
C126_4 C102_7 1_555 1_555
C127_4 C103_7 1_555 1_555
H81_4 C127_4 1_555 1_555
C124_4 C125_4 1_555 1_555
C125_4 C126_4 1_555 1_555
C126_4 C127_4 1_555 1_555
C47_4 O34_4 1_555 1_555
C48_4 C47_4 1_555 1_555
C49_4 C48_4 1_555 1_555
H30_4 C49_4 1_555 1_555
C50_4 C48_4 1_555 1_555
H31_4 C50_4 1_555 1_555
C51_4 C49_4 1_555 1_555
H32_4 C51_4 1_555 1_555
C52_4 C50_4 1_555 1_555
H33_4 C52_4 1_555 1_555
C53_4 C51_4 1_555 1_555
C54_4 C53_4 1_555 1_555
C55_4 C54_4 1_555 1_555
H34_4 C55_4 1_555 1_555
C56_4 C54_4 1_555 1_555
H35_4 C56_4 1_555 1_555
C57_4 C55_4 1_555 1_555
C58_4 C57_4 1_555 1_555
C59_4 C58_4 1_555 1_555
H36_4 C59_4 1_555 1_555
O14_4 C60_4 1_555 1_555
O44_3 C60_4 1_555 1_555
C60_4 C61_4 1_555 1_555
C61_4 C62_4 1_555 1_555
C62_4 H38_4 1_555 1_555
C63_4 C61_4 1_555 1_555
H39_4 C63_4 1_555 1_555
C64_4 C62_4 1_555 1_555
H40_4 C64_4 1_555 1_555
C65_4 C63_4 1_555 1_555
H41_4 C65_4 1_555 1_555
C66_4 C64_4 1_555 1_555
C67_4 C66_4 1_555 1_555
C68_4 C67_4 1_555 1_555
H42_4 C68_4 1_555 1_555
C69_4 C67_4 1_555 1_555
H43_4 C69_4 1_555 1_555
C70_4 C68_4 1_555 1_555
C71_4 C70_4 1_555 1_555
C72_4 C59_4 1_555 1_555
H44_4 C72_4 1_555 1_555
O16_4 C73_4 1_555 1_555
O44 C73_4 1_555 1_555
C73_4 C74_4 1_555 1_555
C74_4 C75_4 1_555 1_555
C75_4 H45_4 1_555 1_555
C76_4 C74_4 1_555 1_555
H46_4 C76_4 1_555 1_555
C77_4 C75_4 1_555 1_555
H47_4 C77_4 1_555 1_555
C78_4 C76_4 1_555 1_555
H48_4 C78_4 1_555 1_555
C79_4 C77_4 1_555 1_555
C80_4 C56_4 1_555 1_555
C81_4 C57_4 1_555 1_555
H49_4 C81_4 1_555 1_555
C82_4 C58_4 1_555 1_555
H50_4 C82_4 1_555 1_555
O34_2 C83_4 1_555 1_555
O40_2 C83_4 1_555 1_555
C83_4 C84_4 1_555 1_555
C84_4 C85_4 1_555 1_555
C85_4 H51_4 1_555 1_555
C86_4 C84_4 1_555 1_555
H52_4 C86_4 1_555 1_555
C87_4 C85_4 1_555 1_555
H53_4 C87_4 1_555 1_555
C88_4 C86_4 1_555 1_555
H54_4 C88_4 1_555 1_555
C89_4 C87_4 1_555 1_555
C90_4 C69_4 1_555 1_555
C91_4 C70_4 1_555 1_555
H55_4 C91_4 1_555 1_555
C92_4 C71_4 1_555 1_555
H56_4 C92_4 1_555 1_555
Al19 O16_4 1_555 1_555
O22_6 Al19 1_555 1_555
H61_6 O22_6 1_555 1_555
H62_6 O22_6 1_555 1_555
C93_4 O35_4 1_555 1_555
C94_4 C93_4 1_555 1_555
C95_4 C94_4 1_555 1_555
H63_4 C95_4 1_555 1_555
C96_4 C94_4 1_555 1_555
H64_4 C96_4 1_555 1_555
C97_4 C95_4 1_555 1_555
H65_4 C97_4 1_555 1_555
C98_4 C96_4 1_555 1_555
H66_4 C98_4 1_555 1_555
C99_4 C97_4 1_555 1_555
C100_4 C99_4 1_555 1_555
C101_4 C100_4 1_555 1_555
H67_4 C101_4 1_555 1_555
C102_8 C100_4 1_555 1_555
H68_8 C102_8 1_555 1_555
C103_8 C101_4 1_555 1_555
C104_8 C103_8 1_555 1_555
C128_4 C104_8 1_555 1_555
H82_4 C128_4 1_555 1_555
Al19_2 O14_4 1_555 1_555
O38_6 Al19 1_555 1_555
O40_4 C47_4 1_555 1_555
C52_4 C53_4 1_555 1_555
C65_4 C66_4 1_555 1_555
C71_4 C72_4 1_555 1_555
C78_4 C79_4 1_555 1_555
C79_4 C80_4 1_555 1_555
C80_4 C81_4 1_555 1_555
C82_4 C92_4 1_555 1_555
C88_4 C89_4 1_555 1_555
C89_4 C90_4 1_555 1_555
C90_4 C91_4 1_555 1_555
O41_4 C93_4 1_555 1_555
C98_4 C99_4 1_555 1_555
H75_7 C115_7 1_555 1_555
C117_7 C116_7 1_555 1_555
H76_4 C118_4 1_555 1_555
O35_3 C129_4 1_555 1_555
O41_3 C129_4 1_555 1_555
C129_4 C130_4 1_555 1_555
C130_4 C131_4 1_555 1_555
C131_4 H83_4 1_555 1_555
C132_4 C130_4 1_555 1_555
H84_4 C132_4 1_555 1_555
C133_4 C131_4 1_555 1_555
H85_4 C133_4 1_555 1_555
C134_4 C132_4 1_555 1_555
H86_4 C134_4 1_555 1_555
C135_4 C133_4 1_555 1_555
C136_4 C115_7 1_555 1_555
C137_4 C116_7 1_555 1_555
H87_4 C137_4 1_555 1_555
C117_7 C118_4 1_555 1_555
C134_4 C135_4 1_555 1_555
C135_4 C136_4 1_555 1_555
C136_4 C137_4 1_555 1_555
O38_3 C106_4 1_555 1_555
O26_4 C106_4 1_555 1_555
C106_4 C107_4 1_555 1_555
C107_4 C108_4 1_555 1_555
C108_4 H70_4 1_555 1_555
C109_4 C107_4 1_555 1_555
H71_4 C109_4 1_555 1_555
C110_4 C108_4 1_555 1_555
H72_4 C110_4 1_555 1_555
C111_4 C109_4 1_555 1_555
H73_4 C111_4 1_555 1_555
C112_4 C110_4 1_555 1_555
C113_4 C112_4 1_555 1_555
C114_4 C113_4 1_555 1_555
H74_4 C114_4 1_555 1_555
C115_8 C113_4 1_555 1_555
H75_8 C115_8 1_555 1_555
C116_8 C114_4 1_555 1_555
C117_8 C116_8 1_555 1_555
C138_4 C117_8 1_555 1_555
H88_4 C138_4 1_555 1_555
Al19_2 O26_4 1_555 1_555
C111_4 C112_4 1_555 1_555
O22_7 Al19_2 1_555 1_555
H61_7 O22_7 1_555 1_555
H62_7 O22_7 1_555 1_555
O38_7 Al19_2 1_555 1_555
O22_8 Al20 1_555 1_555
H61_8 O22_8 1_555 1_555
H62_8 O22_8 1_555 1_555
O38_8 Al20 1_555 1_555
C93_5 O36 1_555 1_555
C94_5 C93_5 1_555 1_555
C95_5 C94_5 1_555 1_555
H63_5 C95_5 1_555 1_555
C96_5 C94_5 1_555 1_555
H64_5 C96_5 1_555 1_555
C97_5 C95_5 1_555 1_555
H65_5 C97_5 1_555 1_555
C98_5 C96_5 1_555 1_555
H66_5 C98_5 1_555 1_555
C99_5 C97_5 1_555 1_555
C100_5 C99_5 1_555 1_555
C101_5 C100_5 1_555 1_555
H67_5 C101_5 1_555 1_555
C102_9 C100_5 1_555 1_555
H68_9 C102_9 1_555 1_555
C103_9 C101_5 1_555 1_555
C104_9 C103_9 1_555 1_555
C128_5 C104_9 1_555 1_555
H82_5 C128_5 1_555 1_555
O42 C93_5 1_555 1_555
C98_5 C99_5 1_555 1_555
H68_10 C102_10 1_555 1_555
C104_10 C103_10 1_555 1_555
C105_5 C104_10 1_555 1_555
H69_5 C105_5 1_555 1_555
O38_5 C119_5 1_555 1_555
O47_2 C119_5 1_555 1_555
C119_5 C120_5 1_555 1_555
C120_5 C121_5 1_555 1_555
C121_5 H77_5 1_555 1_555
C122_5 C120_5 1_555 1_555
H78_5 C122_5 1_555 1_555
C123_5 C121_5 1_555 1_555
H79_5 C123_5 1_555 1_555
C124_5 C122_5 1_555 1_555
H80_5 C124_5 1_555 1_555
C125_5 C123_5 1_555 1_555
C126_5 C102_10 1_555 1_555
C127_5 C103_10 1_555 1_555
H81_5 C127_5 1_555 1_555
C124_5 C125_5 1_555 1_555
C125_5 C126_5 1_555 1_555
C126_5 C127_5 1_555 1_555
O38_6 C106_5 1_555 1_555
O46 C106_5 1_555 1_555
C106_5 C107_5 1_555 1_555
C107_5 C108_5 1_555 1_555
C108_5 H70_5 1_555 1_555
C109_5 C107_5 1_555 1_555
H71_5 C109_5 1_555 1_555
C110_5 C108_5 1_555 1_555
H72_5 C110_5 1_555 1_555
C111_5 C109_5 1_555 1_555
H73_5 C111_5 1_555 1_555
C112_5 C110_5 1_555 1_555
C113_5 C112_5 1_555 1_555
C114_5 C113_5 1_555 1_555
H74_5 C114_5 1_555 1_555
C115_9 C113_5 1_555 1_555
H75_9 C115_9 1_555 1_555
C116_9 C114_5 1_555 1_555
C117_9 C116_9 1_555 1_555
C138_5 C117_9 1_555 1_555
H88_5 C138_5 1_555 1_555
C111_5 C112_5 1_555 1_555
H75_10 C115_10 1_555 1_555
C117_10 C116_10 1_555 1_555
H76_5 C118_5 1_555 1_555
O36_4 C129_5 1_555 1_555
O42_4 C129_5 1_555 1_555
C129_5 C130_5 1_555 1_555
C130_5 C131_5 1_555 1_555
C131_5 H83_5 1_555 1_555
C132_5 C130_5 1_555 1_555
H84_5 C132_5 1_555 1_555
C133_5 C131_5 1_555 1_555
H85_5 C133_5 1_555 1_555
C134_5 C132_5 1_555 1_555
H86_5 C134_5 1_555 1_555
C135_5 C133_5 1_555 1_555
C136_5 C115_10 1_555 1_555
C137_5 C116_10 1_555 1_555
H87_5 C137_5 1_555 1_555
C117_10 C118_5 1_555 1_555
C134_5 C135_5 1_555 1_555
C135_5 C136_5 1_555 1_555
C136_5 C137_5 1_555 1_555
H68_11 C102_11 1_555 1_555
C104_11 C103_11 1_555 1_555
C105_6 C104_11 1_555 1_555
H69_6 C105_6 1_555 1_555
O38_8 C119_6 1_555 1_555
O47 C119_6 1_555 1_555
C119_6 C120_6 1_555 1_555
C120_6 C121_6 1_555 1_555
C121_6 H77_6 1_555 1_555
C122_6 C120_6 1_555 1_555
H78_6 C122_6 1_555 1_555
C123_6 C121_6 1_555 1_555
H79_6 C123_6 1_555 1_555
C124_6 C122_6 1_555 1_555
H80_6 C124_6 1_555 1_555
C125_6 C123_6 1_555 1_555
C126_6 C102_11 1_555 1_555
C127_6 C103_11 1_555 1_555
H81_6 C127_6 1_555 1_555
C124_6 C125_6 1_555 1_555
C125_6 C126_6 1_555 1_555
C126_6 C127_6 1_555 1_555
C93_6 O36_3 1_555 1_555
C94_6 C93_6 1_555 1_555
C95_6 C94_6 1_555 1_555
H63_6 C95_6 1_555 1_555
C96_6 C94_6 1_555 1_555
H64_6 C96_6 1_555 1_555
C97_6 C95_6 1_555 1_555
H65_6 C97_6 1_555 1_555
C98_6 C96_6 1_555 1_555
H66_6 C98_6 1_555 1_555
C99_6 C97_6 1_555 1_555
C100_6 C99_6 1_555 1_555
C101_6 C100_6 1_555 1_555
H67_6 C101_6 1_555 1_555
C102_12 C100_6 1_555 1_555
H68_12 C102_12 1_555 1_555
C103_12 C101_6 1_555 1_555
C104_12 C103_12 1_555 1_555
C128_6 C104_12 1_555 1_555
H82_6 C128_6 1_555 1_555
O42_3 C93_6 1_555 1_555
C98_6 C99_6 1_555 1_555
H75_11 C115_11 1_555 1_555
C117_11 C116_11 1_555 1_555
H76_6 C118_6 1_555 1_555
O36_2 C129_6 1_555 1_555
O42_2 C129_6 1_555 1_555
C129_6 C130_6 1_555 1_555
C130_6 C131_6 1_555 1_555
C131_6 H83_6 1_555 1_555
C132_6 C130_6 1_555 1_555
H84_6 C132_6 1_555 1_555
C133_6 C131_6 1_555 1_555
H85_6 C133_6 1_555 1_555
C134_6 C132_6 1_555 1_555
H86_6 C134_6 1_555 1_555
C135_6 C133_6 1_555 1_555
C136_6 C115_11 1_555 1_555
C137_6 C116_11 1_555 1_555
H87_6 C137_6 1_555 1_555
C117_11 C118_6 1_555 1_555
C134_6 C135_6 1_555 1_555
C135_6 C136_6 1_555 1_555
C136_6 C137_6 1_555 1_555
O38_7 C106_6 1_555 1_555
O46_2 C106_6 1_555 1_555
C106_6 C107_6 1_555 1_555
C107_6 C108_6 1_555 1_555
C108_6 H70_6 1_555 1_555
C109_6 C107_6 1_555 1_555
H71_6 C109_6 1_555 1_555
C110_6 C108_6 1_555 1_555
H72_6 C110_6 1_555 1_555
C111_6 C109_6 1_555 1_555
H73_6 C111_6 1_555 1_555
C112_6 C110_6 1_555 1_555
C113_6 C112_6 1_555 1_555
C114_6 C113_6 1_555 1_555
H74_6 C114_6 1_555 1_555
C115_12 C113_6 1_555 1_555
H75_12 C115_12 1_555 1_555
C116_12 C114_6 1_555 1_555
C117_12 C116_12 1_555 1_555
C138_6 C117_12 1_555 1_555
H88_6 C138_6 1_555 1_555
C111_6 C112_6 1_555 1_555

#END
