
###############################################################################
#
# This file contains modified crystal structure data generated from the
# MOF subset of the Cambridge Structural Database (CSD) v543 
# hosted by the Cambridge Crystallographic Data Centre (CCDC).
#
# This work is licensed under the Creative Commons
# Attribution-NonCommercial-ShareAlike 4.0 International License.
# To view a copy of this license, visit
# http://creativecommons.org/licenses/by-nc-sa/4.0/
# or send a letter to
# Creative Commons, PO Box 1866, Mountain View, CA 94042, USA.
#
# CIF created using the CSD Python API on 29 September 2022
# The structure has been converted into the P1 space group
# The structure has a 3D framework
# The original CSD entry MUZMUS is in the tetragonal crystal system
# The framework has been calculated to contain at least 10.0% void space
# The void calculation uses a probe of radius 1.32A, grid spacing 0.4
# The framework is charged, counterions have been retained in the structure
#
###############################################################################

data_MUZMUS
_chemical_formula_moiety         '(C216 H128 In2 O32 2-)n'
_symmetry_cell_setting           triclinic
_symmetry_space_group_name_H-M   'P 1'
_symmetry_Int_Tables_number      1
_space_group_name_Hall           'P 1'
loop_
_symmetry_equiv_pos_site_id
_symmetry_equiv_pos_as_xyz
1 x,y,z
_cell_length_a                   10.2202(11)
_cell_length_b                   10.2202(11)
_cell_length_c                   43.217(5)
_cell_angle_alpha                90
_cell_angle_beta                 90
_cell_angle_gamma                90
_cell_volume                     4514.12
loop_
_atom_site_label
_atom_site_type_symbol
_atom_site_fract_x
_atom_site_fract_y
_atom_site_fract_z
In1 In 0.7500 0.2500 0.5000
O1 O 0.7487(18) 0.1053(12) 0.46061(19)
O2 O 0.5600(16) 0.1807(14) 0.4731(2)
C5 C 0.576(2) 0.0806(16) 0.4246(3)
C9 C 0.6172(19) 0.0120(14) 0.3730(3)
H5 H 0.2562 0.0049 0.3416
C11 C 0.450(2) 0.060(2) 0.4193(3)
H6 H 0.3913 0.0705 0.4356
C12 C 0.6651(18) 0.0529(16) 0.4013(3)
H7 H 0.7546 0.0615 0.4047
C13 C 0.401(2) 0.0216(19) 0.3904(3)
H8 H 0.3107 0.0134 0.3875
C14 C 0.631(2) 0.122(2) 0.4556(5)
H17 H 0.3263 0.0375 0.2282
O5 O 0.6053(12) 0.2487(18) 0.03939(19)
C30 C 0.4032(13) 0.0238(13) 0.1869(3)
H18 H 0.3993 0.1130 0.1828
O6 O 0.6807(14) 0.0600(16) 0.0269(2)
C33 C 0.5806(16) 0.076(2) 0.0754(3)
C36 C 0.5120(14) 0.1172(19) 0.1270(3)
H20 H 0.4935 0.1766 0.1427
C39 C 0.5529(16) 0.1651(18) 0.0987(3)
H23 H 0.5615 0.2546 0.0953
C41 C 0.622(2) 0.131(2) 0.0444(5)
In4 In 0.7500 0.2500 0.0000
O9 O 0.7513(18) 0.3947(12) 0.46061(19)
O10 O 0.6053(12) 0.2513(18) 0.53939(19)
O11 O 0.8947(12) 0.2487(18) 0.53939(19)
O12 O 0.9400(16) 0.3193(14) 0.4731(2)
O13 O 0.6807(14) 0.4400(16) 0.5269(2)
O14 O 0.8193(14) 0.0600(16) 0.5269(2)
In4_2 In 0.7500 0.2500 1.0000
H9 H 0.9625 0.6737 0.2718
C16 C 0.9762(13) 0.5968(13) 0.3131(3)
H10 H 0.8870 0.6007 0.3172
C19 C 0.924(2) 0.4194(16) 0.4246(3)
C23 C 0.8828(19) 0.4880(14) 0.3730(3)
H12 H 0.8234 0.5065 0.3573
C26 C 0.8349(18) 0.4471(16) 0.4013(3)
H15 H 0.7454 0.4385 0.4047
C28 C 0.869(2) 0.378(2) 0.4556(5)
O7 O 0.8947(12) 0.2513(18) 0.03939(19)
O8 O 0.8193(14) 0.4400(16) 0.0269(2)
C46 C 0.9194(16) 0.424(2) 0.0754(3)
C49 C 0.9880(14) 0.3828(19) 0.1270(3)
H29 H 0.9951 0.7438 0.1584
C51 C 0.940(2) 0.550(2) 0.0807(3)
H30 H 0.9295 0.6087 0.0644
C52 C 0.9471(16) 0.3349(18) 0.0987(3)
H31 H 0.9385 0.2454 0.0953
C53 C 0.9784(19) 0.599(2) 0.1096(3)
H32 H 0.9866 0.6893 0.1125
C54 C 0.878(2) 0.369(2) 0.0444(5)
O10_2 O 0.7513(18) 0.1053(12) 0.96061(19)
O11_2 O 0.7487(18) 0.3947(12) 0.96061(19)
O13_2 O 0.9400(16) 0.1807(14) 0.9731(2)
O14_2 O 0.5600(16) 0.3193(14) 0.9731(2)
C1 C 0.3592(13) 0.5212(12) 0.7137(2)
H1 H 0.3263 0.4625 0.7282
C2 C 0.4032(13) 0.4762(13) 0.6869(3)
H2 H 0.3993 0.3870 0.6828
C3 C 0.3612(12) 0.6540(10) 0.7207(2)
C4 C 0.4563(12) 0.5633(13) 0.6645(3)
C5_2 C 0.5806(16) 0.424(2) 0.5754(3)
C6 C 0.4212(14) 0.7372(13) 0.7006(2)
H3 H 0.4321 0.8252 0.7054
C7 C 0.2955(10) 0.7045(10) 0.7500
C8 C 0.4970(14) 0.5168(14) 0.6332(3)
C9_2 C 0.5120(14) 0.3828(19) 0.6270(3)
H4 H 0.4935 0.3234 0.6427
C10 C 0.4660(15) 0.6864(13) 0.6724(3)
H5_2 H 0.5049 0.7438 0.6584
C11_2 C 0.560(2) 0.550(2) 0.5807(3)
H6_2 H 0.5705 0.6087 0.5644
C12_2 C 0.5529(16) 0.3349(18) 0.5987(3)
H7_2 H 0.5615 0.2454 0.5953
C13_2 C 0.5216(19) 0.599(2) 0.6096(3)
H8_2 H 0.5134 0.6893 0.6125
C14_2 C 0.622(2) 0.369(2) 0.5444(5)
C15 C 0.1408(13) 0.9788(12) 0.7137(2)
C17 C 0.1388(12) 0.8460(10) 0.7207(2)
C18 C 0.0437(12) 0.9367(13) 0.6645(3)
C20 C 0.0788(14) 0.7628(13) 0.7006(2)
H11 H 0.0679 0.6748 0.7054
C21 C 0.2045(10) 0.7955(10) 0.7500
C22 C 0.0030(14) 0.9832(14) 0.6332(3)
C24 C 0.0340(15) 0.8136(13) 0.6724(3)
C29 C 0.4788(12) 0.6408(13) 0.7863(2)
H17_2 H 0.5375 0.6737 0.7718
C30_2 C 0.5238(13) 0.5968(13) 0.8131(3)
H18_2 H 0.6130 0.6007 0.8172
C31 C 0.3460(10) 0.6388(12) 0.7793(2)
C32 C 0.4367(13) 0.5437(12) 0.8355(3)
C33_2 C 0.576(2) 0.4194(16) 0.9246(3)
C34 C 0.2628(13) 0.5788(14) 0.7994(2)
H19 H 0.1748 0.5679 0.7946
C35 C 0.4832(14) 0.5030(14) 0.8668(3)
C36_2 C 0.6172(19) 0.4880(14) 0.8730(3)
H20_2 H 0.6766 0.5065 0.8573
C37 C 0.3136(13) 0.5340(15) 0.8276(3)
H21 H 0.2562 0.4951 0.8416
C38 C 0.450(2) 0.440(2) 0.9193(3)
H22 H 0.3913 0.4295 0.9356
C39_2 C 0.6651(18) 0.4471(16) 0.9013(3)
H23_2 H 0.7546 0.4385 0.9047
C40 C 0.401(2) 0.4784(19) 0.8904(3)
H24 H 0.3107 0.4866 0.8875
C41_2 C 0.631(2) 0.378(2) 0.9556(5)
C42 C 0.0212(12) 0.8592(13) 0.7863(2)
C44 C 0.1540(10) 0.8612(12) 0.7793(2)
C45 C 0.0633(13) 0.9563(12) 0.8355(3)
C47 C 0.2372(13) 0.9212(14) 0.7994(2)
H27 H 0.3252 0.9321 0.7946
C48 C 0.0168(14) 0.9970(14) 0.8668(3)
C50 C 0.1864(13) 0.9660(15) 0.8276(3)
C19_2 C 0.9194(16) 0.076(2) 0.5754(3)
C23_2 C 0.9880(14) 0.1172(19) 0.6270(3)
C26_2 C 0.9471(16) 0.1651(18) 0.5987(3)
H15_2 H 0.9385 0.2546 0.5953
C28_2 C 0.878(2) 0.131(2) 0.5444(5)
C46_2 C 0.924(2) 0.0806(16) 0.9246(3)
C49_2 C 0.8828(19) 0.0120(14) 0.8730(3)
C52_2 C 0.8349(18) 0.0529(16) 0.9013(3)
H31_2 H 0.7454 0.0615 0.9047
C54_2 C 0.869(2) 0.122(2) 0.9556(5)
C1_2 C 0.4788(12) 0.8592(13) 0.2863(2)
H1_2 H 0.5375 0.8263 0.2718
C2_2 C 0.5238(13) 0.9032(13) 0.3131(3)
H2_2 H 0.6130 0.8993 0.3172
C3_2 C 0.3460(10) 0.8612(12) 0.2793(2)
C4_2 C 0.4367(13) 0.9563(12) 0.3355(3)
C6_2 C 0.2628(13) 0.9212(14) 0.2994(2)
H3_2 H 0.1748 0.9321 0.2946
C7_2 C 0.2955(10) 0.7955(10) 0.2500
C8_2 C 0.4832(14) 0.9970(14) 0.3668(3)
H4_2 H 0.6766 0.9935 0.3573
C10_2 C 0.3136(13) 0.9660(15) 0.3276(3)
C15_2 C 0.0212(12) 0.6408(13) 0.2863(2)
C17_2 C 0.1540(10) 0.6388(12) 0.2793(2)
C18_2 C 0.0633(13) 0.5437(12) 0.3355(3)
C20_2 C 0.2372(13) 0.5788(14) 0.2994(2)
H11_2 H 0.3252 0.5679 0.2946
C21_2 C 0.2045(10) 0.7045(10) 0.2500
C22_2 C 0.0168(14) 0.5030(14) 0.3668(3)
C24_2 C 0.1864(13) 0.5340(15) 0.3276(3)
H13 H 0.2438 0.4951 0.3416
C25 C 0.050(2) 0.440(2) 0.4193(3)
H14 H 0.1087 0.4295 0.4356
C27 C 0.099(2) 0.4784(19) 0.3904(3)
H16 H 0.1893 0.4866 0.3875
C29_2 C 0.3592(13) 0.9788(12) 0.2137(2)
C31_2 C 0.3612(12) 0.8460(10) 0.2207(2)
C32_2 C 0.4563(12) 0.9367(13) 0.1645(3)
C34_2 C 0.4212(14) 0.7628(13) 0.2006(2)
H19_2 H 0.4321 0.6748 0.2054
C35_2 C 0.4970(14) 0.9832(14) 0.1332(3)
C37_2 C 0.4660(15) 0.8136(13) 0.1724(3)
H21_2 H 0.5049 0.7562 0.1584
C38_2 C 0.560(2) 0.950(2) 0.0807(3)
H22_2 H 0.5705 0.8913 0.0644
C40_2 C 0.5216(19) 0.901(2) 0.1096(3)
H24_2 H 0.5134 0.8107 0.1125
C42_2 C 0.1408(13) 0.5212(12) 0.2137(2)
H25 H 0.1737 0.4625 0.2282
C43 C 0.0968(13) 0.4762(13) 0.1869(3)
H26 H 0.1007 0.3870 0.1828
C44_2 C 0.1388(12) 0.6540(10) 0.2207(2)
C45_2 C 0.0437(12) 0.5633(13) 0.1645(3)
C47_2 C 0.0788(14) 0.7372(13) 0.2006(2)
H27_2 H 0.0679 0.8252 0.2054
C48_2 C 0.0030(14) 0.5168(14) 0.1332(3)
H28 H 0.0065 0.3234 0.1427
C50_2 C 0.0340(15) 0.6864(13) 0.1724(3)
H13_2 H 0.0049 0.2438 0.3416
C25_2 C 0.060(2) 0.050(2) 0.4193(3)
H14_2 H 0.0705 0.1087 0.4356
C27_2 C 0.0216(19) 0.099(2) 0.3904(3)
H16_2 H 0.0134 0.1893 0.3875
H25_2 H 0.0375 0.1737 0.2282
C43_2 C 0.0238(13) 0.0968(13) 0.1869(3)
H26_2 H 0.1130 0.1007 0.1828
H28_2 H 0.1766 0.0065 0.1427
O3 O 0.1053(12) 0.7513(18) 0.46061(19)
O4 O 0.1807(14) 0.9400(16) 0.4731(2)
C19_3 C 0.0806(16) 0.924(2) 0.4246(3)
C23_3 C 0.0120(14) 0.8828(19) 0.3730(3)
C26_3 C 0.0529(16) 0.8349(18) 0.4013(3)
H15_3 H 0.0615 0.7454 0.4047
C28_3 C 0.122(2) 0.869(2) 0.4556(5)
O7_2 O 0.2487(18) 0.8947(12) 0.03939(19)
O8_2 O 0.0600(16) 0.8193(14) 0.0269(2)
C46_3 C 0.076(2) 0.9194(16) 0.0754(3)
C49_3 C 0.1172(19) 0.9880(14) 0.1270(3)
C52_3 C 0.1651(18) 0.9471(16) 0.0987(3)
H31_3 H 0.2546 0.9385 0.0953
C54_3 C 0.131(2) 0.878(2) 0.0444(5)
In2 In 0.2500 0.7500 0.5000
In3 In 0.2500 0.7500 0.0000
In3_2 In 0.2500 0.7500 1.0000
C1_3 C 0.6408(13) 0.4788(12) 0.2863(2)
H1_3 H 0.6737 0.5375 0.2718
O1_2 O 0.3947(12) 0.7487(18) 0.46061(19)
C2_3 C 0.5968(13) 0.5238(13) 0.3131(3)
H2_3 H 0.6007 0.6130 0.3172
C3_3 C 0.6388(12) 0.3460(10) 0.2793(2)
C4_3 C 0.5437(12) 0.4367(13) 0.3355(3)
O2_2 O 0.3193(14) 0.5600(16) 0.4731(2)
C5_3 C 0.4194(16) 0.576(2) 0.4246(3)
C6_3 C 0.5788(14) 0.2628(13) 0.2994(2)
H3_3 H 0.5679 0.1748 0.2946
C7_3 C 0.7045(10) 0.2955(10) 0.2500
C8_3 C 0.5030(14) 0.4832(14) 0.3668(3)
C9_3 C 0.4880(14) 0.6172(19) 0.3730(3)
H4_3 H 0.5065 0.6766 0.3573
C10_3 C 0.5340(15) 0.3136(13) 0.3276(3)
H5_3 H 0.4951 0.2562 0.3416
C11_3 C 0.440(2) 0.450(2) 0.4193(3)
H6_3 H 0.4295 0.3913 0.4356
C12_3 C 0.4471(16) 0.6651(18) 0.4013(3)
H7_3 H 0.4385 0.7546 0.4047
C13_3 C 0.4784(19) 0.401(2) 0.3904(3)
H8_3 H 0.4866 0.3107 0.3875
C14_3 C 0.378(2) 0.631(2) 0.4556(5)
C15_3 C 0.8592(13) 0.0212(12) 0.2863(2)
C17_3 C 0.8612(12) 0.1540(10) 0.2793(2)
C18_3 C 0.9563(12) 0.0633(13) 0.3355(3)
C20_3 C 0.9212(14) 0.2372(13) 0.2994(2)
H11_3 H 0.9321 0.3252 0.2946
C21_3 C 0.7955(10) 0.2045(10) 0.2500
C22_3 C 0.9970(14) 0.0168(14) 0.3668(3)
C24_3 C 0.9660(15) 0.1864(13) 0.3276(3)
C29_3 C 0.5212(12) 0.3592(13) 0.2137(2)
H17_3 H 0.4625 0.3263 0.2282
O5_2 O 0.2513(18) 0.6053(12) 0.03939(19)
C30_3 C 0.4762(13) 0.4032(13) 0.1869(3)
H18_3 H 0.3870 0.3993 0.1828
C31_3 C 0.6540(10) 0.3612(12) 0.2207(2)
C32_3 C 0.5633(13) 0.4563(12) 0.1645(3)
O6_2 O 0.4400(16) 0.6807(14) 0.0269(2)
C33_3 C 0.424(2) 0.5806(16) 0.0754(3)
C34_3 C 0.7372(13) 0.4212(14) 0.2006(2)
H19_3 H 0.8252 0.4321 0.2054
C35_3 C 0.5168(14) 0.4970(14) 0.1332(3)
C36_3 C 0.3828(19) 0.5120(14) 0.1270(3)
H20_3 H 0.3234 0.4935 0.1427
C37_3 C 0.6864(13) 0.4660(15) 0.1724(3)
H21_3 H 0.7438 0.5049 0.1584
C38_3 C 0.550(2) 0.560(2) 0.0807(3)
H22_3 H 0.6087 0.5705 0.0644
C39_3 C 0.3349(18) 0.5529(16) 0.0987(3)
H23_3 H 0.2454 0.5615 0.0953
C40_3 C 0.599(2) 0.5216(19) 0.1096(3)
H24_3 H 0.6893 0.5134 0.1125
C41_3 C 0.369(2) 0.622(2) 0.0444(5)
C42_3 C 0.9788(12) 0.1408(13) 0.2137(2)
C44_3 C 0.8460(10) 0.1388(12) 0.2207(2)
C45_3 C 0.9367(13) 0.0437(12) 0.1645(3)
C47_3 C 0.7628(13) 0.0788(14) 0.2006(2)
H27_3 H 0.6748 0.0679 0.2054
C48_3 C 0.9832(14) 0.0030(14) 0.1332(3)
C50_3 C 0.8136(13) 0.0340(15) 0.1724(3)
O10_3 O 0.2487(18) 0.6053(12) 0.53939(19)
O11_3 O 0.2513(18) 0.8947(12) 0.53939(19)
O13_3 O 0.0600(16) 0.6807(14) 0.5269(2)
O14_3 O 0.4400(16) 0.8193(14) 0.5269(2)
O10_4 O 0.3947(12) 0.7513(18) 0.96061(19)
O11_4 O 0.1053(12) 0.7487(18) 0.96061(19)
O13_4 O 0.3193(14) 0.9400(16) 0.9731(2)
O14_4 O 0.1807(14) 0.5600(16) 0.9731(2)
H9_2 H 0.0375 0.3263 0.7282
C16_2 C 0.0238(13) 0.4032(13) 0.6869(3)
H10_2 H 0.1130 0.3993 0.6828
C19_4 C 0.076(2) 0.5806(16) 0.5754(3)
C23_4 C 0.1172(19) 0.5120(14) 0.6270(3)
H12_2 H 0.1766 0.4935 0.6427
C26_4 C 0.1651(18) 0.5529(16) 0.5987(3)
H15_4 H 0.2546 0.5615 0.5953
C28_4 C 0.131(2) 0.622(2) 0.5444(5)
C46_4 C 0.0806(16) 0.576(2) 0.9246(3)
C49_4 C 0.0120(14) 0.6172(19) 0.8730(3)
H29_2 H 0.0049 0.2562 0.8416
C51_2 C 0.060(2) 0.450(2) 0.9193(3)
H30_2 H 0.0705 0.3913 0.9356
C52_4 C 0.0529(16) 0.6651(18) 0.9013(3)
H31_4 H 0.0615 0.7546 0.9047
C53_2 C 0.0216(19) 0.401(2) 0.8904(3)
H32_2 H 0.0134 0.3107 0.8875
C54_4 C 0.122(2) 0.631(2) 0.9556(5)
C5_4 C 0.424(2) 0.9194(16) 0.5754(3)
C9_4 C 0.3828(19) 0.9880(14) 0.6270(3)
H5_4 H 0.7438 0.9951 0.6584
C11_4 C 0.550(2) 0.940(2) 0.5807(3)
H6_4 H 0.6087 0.9295 0.5644
C12_4 C 0.3349(18) 0.9471(16) 0.5987(3)
H7_4 H 0.2454 0.9385 0.5953
C13_4 C 0.599(2) 0.9784(19) 0.6096(3)
H8_4 H 0.6893 0.9866 0.6125
C14_4 C 0.369(2) 0.878(2) 0.5444(5)
H17_4 H 0.6737 0.9625 0.7718
C30_4 C 0.5968(13) 0.9762(13) 0.8131(3)
H18_4 H 0.6007 0.8870 0.8172
C33_4 C 0.4194(16) 0.924(2) 0.9246(3)
C36_4 C 0.4880(14) 0.8828(19) 0.8730(3)
H20_4 H 0.5065 0.8234 0.8573
C39_4 C 0.4471(16) 0.8349(18) 0.9013(3)
H23_4 H 0.4385 0.7454 0.9047
C41_4 C 0.378(2) 0.869(2) 0.9556(5)
H9_3 H 0.8263 0.9625 0.2718
C16_3 C 0.9032(13) 0.9762(13) 0.3131(3)
H10_3 H 0.8993 0.8870 0.3172
H12_3 H 0.9935 0.8234 0.3573
H29_3 H 0.7562 0.9951 0.1584
C51_3 C 0.950(2) 0.940(2) 0.0807(3)
H30_3 H 0.8913 0.9295 0.0644
C53_3 C 0.901(2) 0.9784(19) 0.1096(3)
H32_3 H 0.8107 0.9866 0.1125
C1_4 C 0.5212(12) 0.1408(13) 0.7137(2)
H1_4 H 0.4625 0.1737 0.7282
C2_4 C 0.4762(13) 0.0968(13) 0.6869(3)
H2_4 H 0.3870 0.1007 0.6828
C3_4 C 0.6540(10) 0.1388(12) 0.7207(2)
C4_4 C 0.5633(13) 0.0437(12) 0.6645(3)
C6_4 C 0.7372(13) 0.0788(14) 0.7006(2)
H3_4 H 0.8252 0.0679 0.7054
C7_4 C 0.7045(10) 0.2045(10) 0.7500
C8_4 C 0.5168(14) 0.0030(14) 0.6332(3)
H4_4 H 0.3234 0.0065 0.6427
C10_4 C 0.6864(13) 0.0340(15) 0.6724(3)
C15_4 C 0.9788(12) 0.3592(13) 0.7137(2)
C17_4 C 0.8460(10) 0.3612(12) 0.7207(2)
C18_4 C 0.9367(13) 0.4563(12) 0.6645(3)
C20_4 C 0.7628(13) 0.4212(14) 0.7006(2)
H11_4 H 0.6748 0.4321 0.7054
C21_4 C 0.7955(10) 0.2955(10) 0.7500
C22_4 C 0.9832(14) 0.4970(14) 0.6332(3)
C24_4 C 0.8136(13) 0.4660(15) 0.6724(3)
H13_3 H 0.7562 0.5049 0.6584
C25_3 C 0.950(2) 0.560(2) 0.5807(3)
H14_3 H 0.8913 0.5705 0.5644
C27_3 C 0.901(2) 0.5216(19) 0.6096(3)
H16_3 H 0.8107 0.5134 0.6125
C29_4 C 0.6408(13) 0.0212(12) 0.7863(2)
C31_4 C 0.6388(12) 0.1540(10) 0.7793(2)
C32_4 C 0.5437(12) 0.0633(13) 0.8355(3)
C34_4 C 0.5788(14) 0.2372(13) 0.7994(2)
H19_4 H 0.5679 0.3252 0.7946
C35_4 C 0.5030(14) 0.0168(14) 0.8668(3)
C37_4 C 0.5340(15) 0.1864(13) 0.8276(3)
H21_4 H 0.4951 0.2438 0.8416
C38_4 C 0.440(2) 0.050(2) 0.9193(3)
H22_4 H 0.4295 0.1087 0.9356
C40_4 C 0.4784(19) 0.099(2) 0.8904(3)
H24_4 H 0.4866 0.1893 0.8875
C42_4 C 0.8592(13) 0.4788(12) 0.7863(2)
H25_3 H 0.8263 0.5375 0.7718
C43_3 C 0.9032(13) 0.5238(13) 0.8131(3)
H26_3 H 0.8993 0.6130 0.8172
C44_4 C 0.8612(12) 0.3460(10) 0.7793(2)
C45_4 C 0.9563(12) 0.4367(13) 0.8355(3)
C47_4 C 0.9212(14) 0.2628(13) 0.7994(2)
H27_4 H 0.9321 0.1748 0.7946
C48_4 C 0.9970(14) 0.4832(14) 0.8668(3)
H28_3 H 0.9935 0.6766 0.8573
C50_4 C 0.9660(15) 0.3136(13) 0.8276(3)
H9_4 H 0.1737 0.0375 0.7282
C16_4 C 0.0968(13) 0.0238(13) 0.6869(3)
H10_4 H 0.1007 0.1130 0.6828
H12_4 H 0.0065 0.1766 0.6427
H29_4 H 0.2438 0.0049 0.8416
C51_4 C 0.050(2) 0.060(2) 0.9193(3)
H30_4 H 0.1087 0.0705 0.9356
C53_4 C 0.099(2) 0.0216(19) 0.8904(3)
H32_4 H 0.1893 0.0134 0.8875
H13_4 H 0.9951 0.7562 0.6584
C25_4 C 0.940(2) 0.950(2) 0.5807(3)
H14_4 H 0.9295 0.8913 0.5644
C27_4 C 0.9784(19) 0.901(2) 0.6096(3)
H16_4 H 0.9866 0.8107 0.6125
H25_4 H 0.9625 0.8263 0.7718
C43_4 C 0.9762(13) 0.9032(13) 0.8131(3)
H26_4 H 0.8870 0.8993 0.8172
H28_4 H 0.8234 0.9935 0.8573
loop_
_geom_bond_atom_site_label_1
_geom_bond_atom_site_label_2
_geom_bond_site_symmetry_1
_geom_bond_site_symmetry_2
In1 O1 1_555 1_555
O1 C14 1_555 1_555
O2 In1 1_555 1_555
C5 C11 1_555 1_555
C11 H6 1_555 1_555
C12 C5 1_555 1_555
H7 C12 1_555 1_555
H8 C13 1_555 1_555
C14 O2 1_555 1_555
O5 C41 1_555 1_555
H18 C30 1_555 1_555
O6 C41 1_555 1_555
H20 C36 1_555 1_555
C39 C33 1_555 1_555
H23 C39 1_555 1_555
C41 C33 1_555 1_555
In4 O5 1_555 1_555
O9 In1 1_555 1_555
O10 In1 1_555 1_555
O11 In1 1_555 1_555
O12 In1 1_555 1_555
O13 In1 1_555 1_555
O14 In1 1_555 1_555
C5 C14 1_555 1_555
C9 C12 1_555 1_555
C11 C13 1_555 1_555
O6 In4 1_555 1_555
C36 C39 1_555 1_555
O9 C28 1_555 1_555
H10 C16 1_555 1_555
O12 C28 1_555 1_555
H12 C23 1_555 1_555
C26 C19 1_555 1_555
H15 C26 1_555 1_555
C28 C19 1_555 1_555
O7 C54 1_555 1_555
O8 C54 1_555 1_555
C46 C51 1_555 1_555
C51 H30 1_555 1_555
C52 C46 1_555 1_555
H31 C52 1_555 1_555
H32 C53 1_555 1_555
C54 C46 1_555 1_555
In4 O7 1_555 1_555
C23 C26 1_555 1_555
O8 In4 1_555 1_555
C49 C52 1_555 1_555
C51 C53 1_555 1_555
O10_2 In4_2 1_555 1_555
O11_2 In4_2 1_555 1_555
O13_2 In4_2 1_555 1_555
O14_2 In4_2 1_555 1_555
C1 H1 1_555 1_555
O10 C14_2 1_555 1_555
C2 C1 1_555 1_555
H2 C2 1_555 1_555
C3 C1 1_555 1_555
C4 C2 1_555 1_555
C5_2 C11_2 1_555 1_555
C6 C3 1_555 1_555
H3 C6 1_555 1_555
C7 C3 1_555 1_555
C8 C4 1_555 1_555
C9_2 C8 1_555 1_555
H4 C9_2 1_555 1_555
C10 C4 1_555 1_555
H5_2 C10 1_555 1_555
C11_2 H6_2 1_555 1_555
C12_2 C5_2 1_555 1_555
H7_2 C12_2 1_555 1_555
C13_2 C8 1_555 1_555
H8_2 C13_2 1_555 1_555
C14_2 O13 1_555 1_555
C17 C15 1_555 1_555
C20 C17 1_555 1_555
H11 C20 1_555 1_555
C21 C7 1_555 1_555
C22 C18 1_555 1_555
C24 C18 1_555 1_555
C29 H17_2 1_555 1_555
O11_2 C41_2 1_555 1_555
C30_2 C29 1_555 1_555
H18_2 C30_2 1_555 1_555
C31 C7 1_555 1_555
C32 C30_2 1_555 1_555
O14_2 C41_2 1_555 1_555
C33_2 C38 1_555 1_555
C34 C31 1_555 1_555
H19 C34 1_555 1_555
C35 C32 1_555 1_555
C36_2 C35 1_555 1_555
H20_2 C36_2 1_555 1_555
C37 C32 1_555 1_555
H21 C37 1_555 1_555
C38 H22 1_555 1_555
C39_2 C33_2 1_555 1_555
H23_2 C39_2 1_555 1_555
C40 C35 1_555 1_555
H24 C40 1_555 1_555
C41_2 C33_2 1_555 1_555
C44 C21 1_555 1_555
C47 C44 1_555 1_555
H27 C47 1_555 1_555
C48 C45 1_555 1_555
C50 C45 1_555 1_555
C5_2 C14_2 1_555 1_555
C6 C10 1_555 1_555
C9_2 C12_2 1_555 1_555
C11_2 C13_2 1_555 1_555
C17 C21 1_555 1_555
C20 C24 1_555 1_555
C29 C31 1_555 1_555
C34 C37 1_555 1_555
C36_2 C39_2 1_555 1_555
C38 C40 1_555 1_555
C42 C44 1_555 1_555
C47 C50 1_555 1_555
O11 C28_2 1_555 1_555
O14 C28_2 1_555 1_555
C26_2 C19_2 1_555 1_555
H15_2 C26_2 1_555 1_555
C28_2 C19_2 1_555 1_555
O10_2 C54_2 1_555 1_555
O13_2 C54_2 1_555 1_555
C52_2 C46_2 1_555 1_555
H31_2 C52_2 1_555 1_555
C54_2 C46_2 1_555 1_555
C23_2 C26_2 1_555 1_555
C49_2 C52_2 1_555 1_555
C1_2 H1_2 1_555 1_555
C2_2 C1_2 1_555 1_555
H2_2 C2_2 1_555 1_555
C3_2 C1_2 1_555 1_555
C4_2 C2_2 1_555 1_555
C6_2 C3_2 1_555 1_555
H3_2 C6_2 1_555 1_555
C7_2 C3_2 1_555 1_555
C8_2 C4_2 1_555 1_555
C10_2 C4_2 1_555 1_555
C17_2 C15_2 1_555 1_555
C20_2 C17_2 1_555 1_555
H11_2 C20_2 1_555 1_555
C21_2 C7_2 1_555 1_555
C22_2 C18_2 1_555 1_555
C24_2 C18_2 1_555 1_555
H13 C24_2 1_555 1_555
C25 H14 1_555 1_555
C27 C22_2 1_555 1_555
H16 C27 1_555 1_555
C31_2 C7_2 1_555 1_555
C34_2 C31_2 1_555 1_555
H19_2 C34_2 1_555 1_555
C35_2 C32_2 1_555 1_555
C37_2 C32_2 1_555 1_555
H21_2 C37_2 1_555 1_555
C38_2 H22_2 1_555 1_555
C40_2 C35_2 1_555 1_555
H24_2 C40_2 1_555 1_555
C42_2 H25 1_555 1_555
C43 C42_2 1_555 1_555
H26 C43 1_555 1_555
C44_2 C21_2 1_555 1_555
C45_2 C43 1_555 1_555
C47_2 C44_2 1_555 1_555
H27_2 C47_2 1_555 1_555
C48_2 C45_2 1_555 1_555
C50_2 C45_2 1_555 1_555
C6_2 C10_2 1_555 1_555
C17_2 C21_2 1_555 1_555
C20_2 C24_2 1_555 1_555
C25 C27 1_555 1_555
C29_2 C31_2 1_555 1_555
C34_2 C37_2 1_555 1_555
C38_2 C40_2 1_555 1_555
C42_2 C44_2 1_555 1_555
C47_2 C50_2 1_555 1_555
C25_2 H14_2 1_555 1_555
H16_2 C27_2 1_555 1_555
H26_2 C43_2 1_555 1_555
C25_2 C27_2 1_555 1_555
O3 C28_3 1_555 1_555
O4 C28_3 1_555 1_555
C26_3 C19_3 1_555 1_555
H15_3 C26_3 1_555 1_555
C28_3 C19_3 1_555 1_555
O7_2 C54_3 1_555 1_555
O8_2 C54_3 1_555 1_555
C52_3 C46_3 1_555 1_555
H31_3 C52_3 1_555 1_555
C54_3 C46_3 1_555 1_555
In2 O3 1_555 1_555
In3 O7_2 1_555 1_555
O4 In2 1_555 1_555
C23_3 C26_3 1_555 1_555
O8_2 In3 1_555 1_555
C49_3 C52_3 1_555 1_555
In2 O1_2 1_555 1_555
C1_3 H1_3 1_555 1_555
O1_2 C14_3 1_555 1_555
C2_3 C1_3 1_555 1_555
H2_3 C2_3 1_555 1_555
C3_3 C1_3 1_555 1_555
C4_3 C2_3 1_555 1_555
O2_2 In2 1_555 1_555
C5_3 C11_3 1_555 1_555
C6_3 C3_3 1_555 1_555
H3_3 C6_3 1_555 1_555
C7_3 C3_3 1_555 1_555
C8_3 C4_3 1_555 1_555
C9_3 C8_3 1_555 1_555
H4_3 C9_3 1_555 1_555
C10_3 C4_3 1_555 1_555
H5_3 C10_3 1_555 1_555
C11_3 H6_3 1_555 1_555
C12_3 C5_3 1_555 1_555
H7_3 C12_3 1_555 1_555
C13_3 C8_3 1_555 1_555
H8_3 C13_3 1_555 1_555
C14_3 O2_2 1_555 1_555
C17_3 C15_3 1_555 1_555
C20_3 C17_3 1_555 1_555
H11_3 C20_3 1_555 1_555
C21_3 C7_3 1_555 1_555
C22_3 C18_3 1_555 1_555
C24_3 C18_3 1_555 1_555
C29_3 H17_3 1_555 1_555
O5_2 C41_3 1_555 1_555
C30_3 C29_3 1_555 1_555
H18_3 C30_3 1_555 1_555
C31_3 C7_3 1_555 1_555
C32_3 C30_3 1_555 1_555
O6_2 C41_3 1_555 1_555
C33_3 C38_3 1_555 1_555
C34_3 C31_3 1_555 1_555
H19_3 C34_3 1_555 1_555
C35_3 C32_3 1_555 1_555
C36_3 C35_3 1_555 1_555
H20_3 C36_3 1_555 1_555
C37_3 C32_3 1_555 1_555
H21_3 C37_3 1_555 1_555
C38_3 H22_3 1_555 1_555
C39_3 C33_3 1_555 1_555
H23_3 C39_3 1_555 1_555
C40_3 C35_3 1_555 1_555
H24_3 C40_3 1_555 1_555
C41_3 C33_3 1_555 1_555
C44_3 C21_3 1_555 1_555
C47_3 C44_3 1_555 1_555
H27_3 C47_3 1_555 1_555
C48_3 C45_3 1_555 1_555
C50_3 C45_3 1_555 1_555
In3 O5_2 1_555 1_555
O10_3 In2 1_555 1_555
O11_3 In2 1_555 1_555
O13_3 In2 1_555 1_555
O14_3 In2 1_555 1_555
C5_3 C14_3 1_555 1_555
C6_3 C10_3 1_555 1_555
C9_3 C12_3 1_555 1_555
C11_3 C13_3 1_555 1_555
C17_3 C21_3 1_555 1_555
C20_3 C24_3 1_555 1_555
C29_3 C31_3 1_555 1_555
O6_2 In3 1_555 1_555
C34_3 C37_3 1_555 1_555
C36_3 C39_3 1_555 1_555
C38_3 C40_3 1_555 1_555
C42_3 C44_3 1_555 1_555
C47_3 C50_3 1_555 1_555
O10_4 In3_2 1_555 1_555
O11_4 In3_2 1_555 1_555
O13_4 In3_2 1_555 1_555
O14_4 In3_2 1_555 1_555
O10_3 C28_4 1_555 1_555
H10_2 C16_2 1_555 1_555
O13_3 C28_4 1_555 1_555
H12_2 C23_4 1_555 1_555
C26_4 C19_4 1_555 1_555
H15_4 C26_4 1_555 1_555
C28_4 C19_4 1_555 1_555
O11_4 C54_4 1_555 1_555
O14_4 C54_4 1_555 1_555
C46_4 C51_2 1_555 1_555
C51_2 H30_2 1_555 1_555
C52_4 C46_4 1_555 1_555
H31_4 C52_4 1_555 1_555
H32_2 C53_2 1_555 1_555
C54_4 C46_4 1_555 1_555
C23_4 C26_4 1_555 1_555
C49_4 C52_4 1_555 1_555
C51_2 C53_2 1_555 1_555
O11_3 C14_4 1_555 1_555
C5_4 C11_4 1_555 1_555
C11_4 H6_4 1_555 1_555
C12_4 C5_4 1_555 1_555
H7_4 C12_4 1_555 1_555
H8_4 C13_4 1_555 1_555
C14_4 O14_3 1_555 1_555
O10_4 C41_4 1_555 1_555
H18_4 C30_4 1_555 1_555
O13_4 C41_4 1_555 1_555
H20_4 C36_4 1_555 1_555
C39_4 C33_4 1_555 1_555
H23_4 C39_4 1_555 1_555
C41_4 C33_4 1_555 1_555
C5_4 C14_4 1_555 1_555
C9_4 C12_4 1_555 1_555
C11_4 C13_4 1_555 1_555
C36_4 C39_4 1_555 1_555
H10_3 C16_3 1_555 1_555
C51_3 H30_3 1_555 1_555
H32_3 C53_3 1_555 1_555
C51_3 C53_3 1_555 1_555
C1_4 H1_4 1_555 1_555
C2_4 C1_4 1_555 1_555
H2_4 C2_4 1_555 1_555
C3_4 C1_4 1_555 1_555
C4_4 C2_4 1_555 1_555
C6_4 C3_4 1_555 1_555
H3_4 C6_4 1_555 1_555
C7_4 C3_4 1_555 1_555
C8_4 C4_4 1_555 1_555
C10_4 C4_4 1_555 1_555
C17_4 C15_4 1_555 1_555
C20_4 C17_4 1_555 1_555
H11_4 C20_4 1_555 1_555
C21_4 C7_4 1_555 1_555
C22_4 C18_4 1_555 1_555
C24_4 C18_4 1_555 1_555
H13_3 C24_4 1_555 1_555
C25_3 H14_3 1_555 1_555
C27_3 C22_4 1_555 1_555
H16_3 C27_3 1_555 1_555
C31_4 C7_4 1_555 1_555
C34_4 C31_4 1_555 1_555
H19_4 C34_4 1_555 1_555
C35_4 C32_4 1_555 1_555
C37_4 C32_4 1_555 1_555
H21_4 C37_4 1_555 1_555
C38_4 H22_4 1_555 1_555
C40_4 C35_4 1_555 1_555
H24_4 C40_4 1_555 1_555
C42_4 H25_3 1_555 1_555
C43_3 C42_4 1_555 1_555
H26_3 C43_3 1_555 1_555
C44_4 C21_4 1_555 1_555
C45_4 C43_3 1_555 1_555
C47_4 C44_4 1_555 1_555
H27_4 C47_4 1_555 1_555
C48_4 C45_4 1_555 1_555
C50_4 C45_4 1_555 1_555
C6_4 C10_4 1_555 1_555
C17_4 C21_4 1_555 1_555
C20_4 C24_4 1_555 1_555
C25_3 C27_3 1_555 1_555
C29_4 C31_4 1_555 1_555
C34_4 C37_4 1_555 1_555
C38_4 C40_4 1_555 1_555
C42_4 C44_4 1_555 1_555
C47_4 C50_4 1_555 1_555
H10_4 C16_4 1_555 1_555
C51_4 H30_4 1_555 1_555
H32_4 C53_4 1_555 1_555
C51_4 C53_4 1_555 1_555
C25_4 H14_4 1_555 1_555
H16_4 C27_4 1_555 1_555
H26_4 C43_4 1_555 1_555
C25_4 C27_4 1_555 1_555

#END
