
###############################################################################
#
# This file contains modified crystal structure data generated from the
# MOF subset of the Cambridge Structural Database (CSD) v543 
# hosted by the Cambridge Crystallographic Data Centre (CCDC).
#
# This work is licensed under the Creative Commons
# Attribution-NonCommercial-ShareAlike 4.0 International License.
# To view a copy of this license, visit
# http://creativecommons.org/licenses/by-nc-sa/4.0/
# or send a letter to
# Creative Commons, PO Box 1866, Mountain View, CA 94042, USA.
#
# CIF created using the CSD Python API on 29 September 2022
# The structure has been converted into the P1 space group
# The structure has a 3D framework
# The original CSD entry MUZRIJ is in the tetragonal crystal system
# The framework has been calculated to contain at least 10.0% void space
# The void calculation uses a probe of radius 1.32A, grid spacing 0.4
# The framework is charged, counterions have been retained in the structure
#
###############################################################################

data_MUZRIJ
_chemical_formula_moiety         '(C200 H176 Cu24 F24 N72 O32 S8 8+)n'
_symmetry_cell_setting           triclinic
_symmetry_space_group_name_H-M   'P 1'
_symmetry_Int_Tables_number      1
_space_group_name_Hall           'P 1'
loop_
_symmetry_equiv_pos_site_id
_symmetry_equiv_pos_as_xyz
1 x,y,z
_cell_length_a                   18.853(2)
_cell_length_b                   18.853(2)
_cell_length_c                   20.639(3)
_cell_angle_alpha                90
_cell_angle_beta                 90
_cell_angle_gamma                90
_cell_volume                     7335.84
loop_
_atom_site_label
_atom_site_type_symbol
_atom_site_fract_x
_atom_site_fract_y
_atom_site_fract_z
S1 S 0.7318(4) 0.2771(4) 0.5925(3)
O1 O 0.6674(9) 0.2625(8) 0.6191(7)
O2 O 0.7689(8) 0.3365(8) 0.6150(7)
O3 O 0.7795(8) 0.2171(8) 0.5723(8)
C1 C 0.7050(13) 0.2946(12) 0.5142(12)
F1 F 0.6625(7) 0.3537(6) 0.5122(6)
F2 F 0.7545(8) 0.3259(7) 0.4773(7)
F3 F 0.6730(7) 0.2454(7) 0.4820(6)
S1_2 S 0.7229(4) 0.7318(4) 0.0925(3)
O1_2 O 0.7375(8) 0.6674(9) 0.1191(7)
O2_2 O 0.6635(8) 0.7689(8) 0.1150(7)
O3_2 O 0.7829(8) 0.7795(8) 0.0723(8)
C1_2 C 0.7054(12) 0.7050(13) 0.0142(12)
F1_2 F 0.6463(6) 0.6625(7) 0.0122(6)
F2_2 F 0.6741(7) 0.7545(8) 0.9773(7)
F3_2 F 0.7546(7) 0.6730(7) 0.9820(6)
S1_3 S 0.2682(4) 0.7229(4) 0.5925(3)
O1_3 O 0.3326(9) 0.7375(8) 0.6191(7)
O2_3 O 0.2311(8) 0.6635(8) 0.6150(7)
O3_3 O 0.2205(8) 0.7829(8) 0.5723(8)
C1_3 C 0.2950(13) 0.7054(12) 0.5142(12)
F1_3 F 0.3375(7) 0.6463(6) 0.5122(6)
F2_3 F 0.2455(8) 0.6741(7) 0.4773(7)
F3_3 F 0.3270(7) 0.7546(7) 0.4820(6)
S1_4 S 0.2771(4) 0.2682(4) 0.0925(3)
O1_4 O 0.2625(8) 0.3326(9) 0.1191(7)
O2_4 O 0.3365(8) 0.2311(8) 0.1150(7)
O3_4 O 0.2171(8) 0.2205(8) 0.0723(8)
C1_4 C 0.2946(12) 0.2950(13) 0.0142(12)
F1_4 F 0.3537(6) 0.3375(7) 0.0122(6)
F2_4 F 0.3259(7) 0.2455(8) 0.9773(7)
F3_4 F 0.2454(7) 0.3270(7) 0.9820(6)
S1_5 S 0.7682(4) 0.7771(4) 0.5925(3)
O1_5 O 0.8326(9) 0.7625(8) 0.6191(7)
O2_5 O 0.7311(8) 0.8365(8) 0.6150(7)
O3_5 O 0.7205(8) 0.7171(8) 0.5723(8)
C1_5 C 0.7950(13) 0.7946(12) 0.5142(12)
F1_5 F 0.8375(7) 0.8537(6) 0.5122(6)
F2_5 F 0.7455(8) 0.8259(7) 0.4773(7)
F3_5 F 0.8270(7) 0.7454(7) 0.4820(6)
S1_6 S 0.2229(4) 0.7682(4) 0.0925(3)
O1_6 O 0.2375(8) 0.8326(9) 0.1191(7)
O2_6 O 0.1635(8) 0.7311(8) 0.1150(7)
O3_6 O 0.2829(8) 0.7205(8) 0.0723(8)
C1_6 C 0.2054(12) 0.7950(13) 0.0142(12)
F1_6 F 0.1463(6) 0.8375(7) 0.0122(6)
F2_6 F 0.1741(7) 0.7455(8) 0.9773(7)
F3_6 F 0.2546(7) 0.8270(7) 0.9820(6)
S1_7 S 0.2318(4) 0.2229(4) 0.5925(3)
O1_7 O 0.1674(9) 0.2375(8) 0.6191(7)
O2_7 O 0.2689(8) 0.1635(8) 0.6150(7)
O3_7 O 0.2795(8) 0.2829(8) 0.5723(8)
C1_7 C 0.2050(13) 0.2054(12) 0.5142(12)
F1_7 F 0.1625(7) 0.1463(6) 0.5122(6)
F2_7 F 0.2545(8) 0.1741(7) 0.4773(7)
F3_7 F 0.1730(7) 0.2546(7) 0.4820(6)
S1_8 S 0.7771(4) 0.2318(4) 0.0925(3)
O1_8 O 0.7625(8) 0.1674(9) 0.1191(7)
O2_8 O 0.8365(8) 0.2689(8) 0.1150(7)
O3_8 O 0.7171(8) 0.2795(8) 0.0723(8)
C1_8 C 0.7946(12) 0.2050(13) 0.0142(12)
F1_8 F 0.8537(6) 0.1625(7) 0.0122(6)
F2_8 F 0.8259(7) 0.2545(8) 0.9773(7)
F3_8 F 0.7454(7) 0.1730(7) 0.9820(6)
H30 H 0.2448 0.0055 0.5136
C48 C 0.0869(6) 0.0436(4) 0.6376(7)
H43 H 0.0707 0.0890 0.6471
C49 C 0.1590(5) 0.0285(6) 0.6408(7)
H44 H 0.1910 0.0638 0.6524
Cu4 Cu 0.28151(11) 0.92811(12) 0.64776(11)
Cu5 Cu 0.36219(10) 0.80166(10) 0.73151(10)
Cu7 Cu 0.43378(10) 0.85375(10) 0.59561(10)
O5 O 0.3734(5) 0.8825(5) 0.6705(5)
H23 H 0.4007 0.9185 0.6940
N10 N 0.2505(8) 0.9050(7) 0.7337(8)
N11 N 0.2800(7) 0.8524(8) 0.7666(8)
C26 C 0.2510(14) 0.8468(14) 0.8257(10)
H24 H 0.2624 0.8124 0.8562
C27 C 0.2012(12) 0.9004(14) 0.8344(10)
H25 H 0.1736 0.9099 0.8708
C28 C 0.2025(11) 0.9341(11) 0.7790(13)
H26 H 0.1745 0.9736 0.7703
N12 N 0.4581(8) 0.7710(7) 0.7111(6)
N13 N 0.4922(7) 0.8001(6) 0.6590(6)
C29 C 0.5549(9) 0.7770(11) 0.6586(10)
H27 H 0.5868 0.7858 0.6252
C30 C 0.5716(11) 0.7369(12) 0.7134(11)
H28 H 0.6145 0.7169 0.7261
C31 C 0.5084(11) 0.7353(11) 0.7425(10)
H29 H 0.5002 0.7115 0.7812
N14 N 0.3721(7) 0.9101(6) 0.5383(6)
N15 N 0.3146(7) 0.9390(8) 0.5587(8)
C32 C 0.2856(10) 0.9780(10) 0.5103(11)
C33 C 0.3258(11) 0.9705(10) 0.4568(9)
H31 H 0.3186 0.9912 0.4165
C34 C 0.3819(11) 0.9237(11) 0.4756(9)
H32 H 0.4179 0.9063 0.4493
N17 N 0.3351(5) 0.7177(5) 0.7886(4)
N19 N 0.4961(6) 0.8178(5) 0.5239(4)
N20 N 0.1832(4) 0.9606(7) 0.6267(6)
C45 C 0.1354(6) 0.9078(5) 0.6094(6)
H41 H 0.1516 0.8624 0.5999
C46 C 0.0633(5) 0.9229(5) 0.6062(6)
H42 H 0.0313 0.8876 0.5946
C47 C 0.0391(4) 0.9908(6) 0.6203(6)
C18 C 0.7456(5) 0.5076(5) 0.0111(5)
H16 H 0.7171 0.5389 0.0342
N8 N 0.8178(5) 0.5039(6) 0.0239(4)
Cu8 Cu 0.85375(10) 0.56622(10) 0.09561(10)
C33_2 C 0.0295(10) 0.3258(11) 0.9568(9)
H31_2 H 0.0088 0.3186 0.9165
C34_2 C 0.0763(11) 0.3819(11) 0.9756(9)
H32_2 H 0.0937 0.4179 0.9493
Cu1 Cu 0.92811(12) 0.71849(11) 0.14776(11)
Cu2 Cu 0.80166(10) 0.63781(10) 0.23151(10)
O4 O 0.8825(5) 0.6266(5) 0.1705(5)
H1 H 0.9185 0.5993 0.1940
N1 N 0.9050(7) 0.7495(8) 0.2337(8)
N2 N 0.8524(8) 0.7200(7) 0.2666(8)
C2 C 0.8468(14) 0.7490(14) 0.3257(10)
H2 H 0.8124 0.7376 0.3562
C3 C 0.9004(14) 0.7988(12) 0.3344(10)
H3 H 0.9099 0.8264 0.3708
C4 C 0.9341(11) 0.7975(11) 0.2790(13)
H4 H 0.9736 0.8255 0.2703
N3 N 0.7710(7) 0.5419(8) 0.2111(6)
N4 N 0.8001(6) 0.5078(7) 0.1590(6)
C5 C 0.7770(11) 0.4451(9) 0.1586(10)
H5 H 0.7858 0.4132 0.1252
C6 C 0.7369(12) 0.4284(11) 0.2134(11)
H6 H 0.7169 0.3855 0.2261
C7 C 0.7353(11) 0.4916(11) 0.2425(10)
H7 H 0.7115 0.4998 0.2812
N5 N 0.9101(6) 0.6279(7) 0.0383(6)
N6 N 0.9390(8) 0.6854(7) 0.0587(8)
C8 C 0.9780(10) 0.7144(10) 0.0103(11)
N7 N 0.7177(5) 0.6649(5) 0.2886(4)
C11 C 0.6816(7) 0.7271(6) 0.2740(4)
H11 H 0.6885 0.7491 0.2341
C12 C 0.6353(6) 0.7566(5) 0.3189(6)
H12 H 0.6111 0.7983 0.3090
C13 C 0.6250(6) 0.7239(6) 0.3785(5)
C14 C 0.6611(7) 0.6616(6) 0.3932(4)
H13 H 0.6542 0.6397 0.4330
C15 C 0.7074(6) 0.6321(5) 0.3482(5)
H14 H 0.7316 0.5905 0.3581
C16 C 0.5824(6) 0.7584(6) 0.4291(5)
C17 C 0.5355(6) 0.7159(4) 0.4637(6)
H15 H 0.5331 0.6675 0.4551
C18_2 C 0.4924(5) 0.7456(5) 0.5111(5)
H16_2 H 0.4611 0.7171 0.5342
C19 C 0.5429(6) 0.8604(4) 0.4893(5)
H17 H 0.5453 0.9088 0.4979
C20 C 0.5860(5) 0.8307(6) 0.4420(5)
H18 H 0.6173 0.8592 0.4188
N9 N 0.9606(7) 0.8168(4) 0.1267(6)
C21 C 0.9078(5) 0.8646(6) 0.1094(6)
H19 H 0.8624 0.8484 0.0999
C22 C 0.9229(5) 0.9367(5) 0.1062(6)
H20 H 0.8876 0.9687 0.0946
C23 C 0.9908(6) 0.9609(4) 0.1203(6)
C11_2 C 0.2729(6) 0.6816(7) 0.7740(4)
H11_2 H 0.2509 0.6885 0.7341
C12_2 C 0.2434(5) 0.6353(6) 0.8189(6)
H12_2 H 0.2017 0.6111 0.8090
C13_2 C 0.2761(6) 0.6250(6) 0.8785(5)
C14_2 C 0.3384(6) 0.6611(7) 0.8932(4)
H13_2 H 0.3603 0.6542 0.9330
C15_2 C 0.3679(5) 0.7074(6) 0.8482(5)
H14_2 H 0.4095 0.7316 0.8581
C16_2 C 0.2416(6) 0.5824(6) 0.9291(5)
C17_2 C 0.2841(4) 0.5355(6) 0.9637(6)
H15_2 H 0.3325 0.5331 0.9551
C19_2 C 0.1396(4) 0.5429(6) 0.9893(5)
H17_2 H 0.0912 0.5453 0.9979
C20_2 C 0.1693(6) 0.5860(5) 0.9420(5)
H18_2 H 0.1408 0.6173 0.9188
Cu1_2 Cu 0.71849(11) 0.07189(12) 0.64776(11)
Cu2_2 Cu 0.63781(10) 0.19834(10) 0.73151(10)
Cu3 Cu 0.56622(10) 0.14625(10) 0.59561(10)
O4_2 O 0.6266(5) 0.1175(5) 0.6705(5)
H1_2 H 0.5993 0.0815 0.6940
N1_2 N 0.7495(8) 0.0950(7) 0.7337(8)
N2_2 N 0.7200(7) 0.1476(8) 0.7666(8)
C2_2 C 0.7490(14) 0.1532(14) 0.8257(10)
H2_2 H 0.7376 0.1876 0.8562
C3_2 C 0.7988(12) 0.0996(14) 0.8344(10)
H3_2 H 0.8264 0.0901 0.8708
C4_2 C 0.7975(11) 0.0659(11) 0.7790(13)
H4_2 H 0.8255 0.0264 0.7703
N3_2 N 0.5419(8) 0.2290(7) 0.7111(6)
N4_2 N 0.5078(7) 0.1999(6) 0.6590(6)
C5_2 C 0.4451(9) 0.2230(11) 0.6586(10)
H5_2 H 0.4132 0.2142 0.6252
C6_2 C 0.4284(11) 0.2631(12) 0.7134(11)
H6_2 H 0.3855 0.2831 0.7261
C7_2 C 0.4916(11) 0.2647(11) 0.7425(10)
H7_2 H 0.4998 0.2885 0.7812
N5_2 N 0.6279(7) 0.0899(6) 0.5383(6)
N6_2 N 0.6854(7) 0.0610(8) 0.5587(8)
C8_2 C 0.7144(10) 0.0220(10) 0.5103(11)
C9 C 0.6742(11) 0.0295(10) 0.4568(9)
H9 H 0.6814 0.0088 0.4165
C10 C 0.6181(11) 0.0763(11) 0.4756(9)
H10 H 0.5821 0.0937 0.4493
N7_2 N 0.6649(5) 0.2823(5) 0.7886(4)
C11_3 C 0.7271(6) 0.3184(7) 0.7740(4)
H11_3 H 0.7491 0.3115 0.7341
C12_3 C 0.7566(5) 0.3647(6) 0.8189(6)
H12_3 H 0.7983 0.3889 0.8090
C13_3 C 0.7239(6) 0.3750(6) 0.8785(5)
C14_3 C 0.6616(6) 0.3389(7) 0.8932(4)
H13_3 H 0.6397 0.3458 0.9330
C15_3 C 0.6321(5) 0.2926(6) 0.8482(5)
H14_3 H 0.5905 0.2684 0.8581
C16_3 C 0.7584(6) 0.4176(6) 0.9291(5)
C17_3 C 0.7159(4) 0.4645(6) 0.9637(6)
H15_3 H 0.6675 0.4669 0.9551
C19_3 C 0.8604(4) 0.4571(6) 0.9893(5)
H17_3 H 0.9088 0.4547 0.9979
C20_3 C 0.8307(6) 0.4140(5) 0.9420(5)
H18_3 H 0.8592 0.3827 0.9188
N9_2 N 0.8168(4) 0.0394(7) 0.6267(6)
C21_2 C 0.8646(6) 0.0922(5) 0.6094(6)
H19_2 H 0.8484 0.1376 0.5999
C22_2 C 0.9367(5) 0.0771(5) 0.6062(6)
H20_2 H 0.9687 0.1124 0.5946
C23_2 C 0.9609(4) 0.0092(6) 0.6203(6)
Cu6 Cu 0.19834(10) 0.36219(10) 0.23151(10)
N16 N 0.2823(5) 0.3351(5) 0.2886(4)
C35 C 0.3184(7) 0.2729(6) 0.2740(4)
H33 H 0.3115 0.2509 0.2341
C36 C 0.3647(6) 0.2434(5) 0.3189(6)
H34 H 0.3889 0.2017 0.3090
C37 C 0.3750(6) 0.2761(6) 0.3785(5)
C38 C 0.3389(7) 0.3384(6) 0.3932(4)
H35 H 0.3458 0.3603 0.4330
C39 C 0.2926(6) 0.3679(5) 0.3482(5)
H36 H 0.2684 0.4095 0.3581
C40 C 0.4176(6) 0.2416(6) 0.4291(5)
C41 C 0.4645(6) 0.2841(4) 0.4637(6)
H37 H 0.4669 0.3325 0.4551
C42 C 0.5076(5) 0.2544(5) 0.5111(5)
H38 H 0.5389 0.2829 0.5342
N18 N 0.5039(6) 0.1822(5) 0.5239(4)
C43 C 0.4571(6) 0.1396(4) 0.4893(5)
H39 H 0.4547 0.0912 0.4979
C44 C 0.4140(5) 0.1693(6) 0.4420(5)
H40 H 0.3827 0.1408 0.4188
Cu4_2 Cu 0.07189(12) 0.28151(11) 0.14776(11)
Cu7_2 Cu 0.14625(10) 0.43378(10) 0.09561(10)
O5_2 O 0.1175(5) 0.3734(5) 0.1705(5)
H23_2 H 0.0815 0.4007 0.1940
N10_2 N 0.0950(7) 0.2505(8) 0.2337(8)
N11_2 N 0.1476(8) 0.2800(7) 0.2666(8)
C26_2 C 0.1532(14) 0.2510(14) 0.3257(10)
H24_2 H 0.1876 0.2624 0.3562
C27_2 C 0.0996(14) 0.2012(12) 0.3344(10)
H25_2 H 0.0901 0.1736 0.3708
C28_2 C 0.0659(11) 0.2025(11) 0.2790(13)
H26_2 H 0.0264 0.1745 0.2703
N12_2 N 0.2290(7) 0.4581(8) 0.2111(6)
N13_2 N 0.1999(6) 0.4922(7) 0.1590(6)
C29_2 C 0.2230(11) 0.5549(9) 0.1586(10)
H27_2 H 0.2142 0.5868 0.1252
C30_2 C 0.2631(12) 0.5716(11) 0.2134(11)
H28_2 H 0.2831 0.6145 0.2261
C31_2 C 0.2647(11) 0.5084(11) 0.2425(10)
H29_2 H 0.2885 0.5002 0.2812
N14_2 N 0.0899(6) 0.3721(7) 0.0383(6)
N15_2 N 0.0610(8) 0.3146(7) 0.0587(8)
C32_2 C 0.0220(10) 0.2856(10) 0.0103(11)
N19_2 N 0.1822(5) 0.4961(6) 0.0239(4)
N20_2 N 0.0394(7) 0.1832(4) 0.1267(6)
C45_2 C 0.0922(5) 0.1354(6) 0.1094(6)
H41_2 H 0.1376 0.1516 0.0999
C46_2 C 0.0771(5) 0.0633(5) 0.1062(6)
H42_2 H 0.1124 0.0313 0.0946
C47_2 C 0.0092(6) 0.0391(4) 0.1203(6)
C9_2 C 0.9705(10) 0.6742(11) 0.9568(9)
H9_2 H 0.9912 0.6814 0.9165
C10_2 C 0.9237(11) 0.6181(11) 0.9756(9)
H10_2 H 0.9063 0.5821 0.9493
C18_3 C 0.2544(5) 0.4924(5) 0.0111(5)
H16_3 H 0.2829 0.4611 0.0342
H8 H 0.7552 0.9945 0.5136
C24 C 0.9131(6) 0.9564(4) 0.6376(7)
H21 H 0.9293 0.9110 0.6471
C25 C 0.8410(5) 0.9715(6) 0.6408(7)
H22 H 0.8090 0.9362 0.6524
H8_2 H 0.0055 0.7552 0.0136
C24_2 C 0.0436(4) 0.9131(6) 0.1376(7)
H21_2 H 0.0890 0.9293 0.1471
C25_2 C 0.0285(6) 0.8410(5) 0.1408(7)
H22_2 H 0.0638 0.8090 0.1524
H30_2 H 0.9945 0.2448 0.0136
C48_2 C 0.9564(4) 0.0869(6) 0.1376(7)
H43_2 H 0.9110 0.0707 0.1471
C49_2 C 0.9715(6) 0.1590(5) 0.1408(7)
H44_2 H 0.9362 0.1910 0.1524
C5_3 C 0.0549(9) 0.7230(11) 0.6586(10)
H5_3 H 0.0868 0.7142 0.6252
C6_3 C 0.0716(11) 0.7631(12) 0.7134(11)
H6_3 H 0.1145 0.7831 0.7261
C7_3 C 0.0084(11) 0.7647(11) 0.7425(10)
H7_3 H 0.0002 0.7885 0.7812
Cu6_2 Cu 0.30166(10) 0.86219(10) 0.23151(10)
N16_2 N 0.2177(5) 0.8351(5) 0.2886(4)
C35_2 C 0.1816(7) 0.7729(6) 0.2740(4)
H33_2 H 0.1885 0.7509 0.2341
C36_2 C 0.1353(6) 0.7434(5) 0.3189(6)
H34_2 H 0.1111 0.7017 0.3090
C37_2 C 0.1250(6) 0.7761(6) 0.3785(5)
C38_2 C 0.1611(7) 0.8384(6) 0.3932(4)
H35_2 H 0.1542 0.8603 0.4330
C39_2 C 0.2074(6) 0.8679(5) 0.3482(5)
H36_2 H 0.2316 0.9095 0.3581
C40_2 C 0.0824(6) 0.7416(6) 0.4291(5)
C41_2 C 0.0355(6) 0.7841(4) 0.4637(6)
H37_2 H 0.0331 0.8325 0.4551
C43_2 C 0.0429(6) 0.6396(4) 0.4893(5)
H39_2 H 0.0453 0.5912 0.4979
C44_2 C 0.0860(5) 0.6693(6) 0.4420(5)
H40_2 H 0.1173 0.6408 0.4188
C18_4 C 0.7544(5) 0.0076(5) 0.0111(5)
H16_4 H 0.7829 0.0389 0.0342
N8_2 N 0.6822(5) 0.0039(6) 0.0239(4)
Cu8_2 Cu 0.64625(10) 0.06622(10) 0.09561(10)
C29_3 C 0.9451(9) 0.2770(11) 0.6586(10)
H27_3 H 0.9132 0.2858 0.6252
C30_3 C 0.9284(11) 0.2369(12) 0.7134(11)
H28_3 H 0.8855 0.2169 0.7261
C31_3 C 0.9916(11) 0.2353(11) 0.7425(10)
H29_3 H 0.9998 0.2115 0.7812
Cu1_3 Cu 0.42811(12) 0.78151(11) 0.14776(11)
Cu3_2 Cu 0.35375(10) 0.93378(10) 0.09561(10)
O4_3 O 0.3825(5) 0.8734(5) 0.1705(5)
H1_3 H 0.4185 0.9007 0.1940
N1_3 N 0.4050(7) 0.7505(8) 0.2337(8)
N2_3 N 0.3524(8) 0.7800(7) 0.2666(8)
C2_3 C 0.3468(14) 0.7510(14) 0.3257(10)
H2_3 H 0.3124 0.7624 0.3562
C3_3 C 0.4004(14) 0.7012(12) 0.3344(10)
H3_3 H 0.4099 0.6736 0.3708
C4_3 C 0.4341(11) 0.7025(11) 0.2790(13)
H4_3 H 0.4736 0.6745 0.2703
N3_3 N 0.2710(7) 0.9581(8) 0.2111(6)
N4_3 N 0.3001(6) 0.9922(7) 0.1590(6)
N5_3 N 0.4101(6) 0.8721(7) 0.0383(6)
N6_3 N 0.4390(8) 0.8146(7) 0.0587(8)
C8_3 C 0.4780(10) 0.7856(10) 0.0103(11)
H8_3 H 0.5055 0.7448 0.0136
N9_3 N 0.4606(7) 0.6832(4) 0.1267(6)
C21_3 C 0.4078(5) 0.6354(6) 0.1094(6)
H19_3 H 0.3624 0.6516 0.0999
C22_3 C 0.4229(5) 0.5633(5) 0.1062(6)
H20_3 H 0.3876 0.5313 0.0946
C23_3 C 0.4908(6) 0.5391(4) 0.1203(6)
C24_3 C 0.5436(4) 0.5869(6) 0.1376(7)
H21_3 H 0.5890 0.5707 0.1471
C25_3 C 0.5285(6) 0.6590(5) 0.1408(7)
H22_3 H 0.5638 0.6910 0.1524
Cu4_3 Cu 0.57189(12) 0.21849(11) 0.14776(11)
Cu5_2 Cu 0.69834(10) 0.13781(10) 0.23151(10)
O5_3 O 0.6175(5) 0.1266(5) 0.1705(5)
H23_3 H 0.5815 0.0993 0.1940
N10_3 N 0.5950(7) 0.2495(8) 0.2337(8)
N11_3 N 0.6476(8) 0.2200(7) 0.2666(8)
C26_3 C 0.6532(14) 0.2490(14) 0.3257(10)
H24_3 H 0.6876 0.2376 0.3562
C27_3 C 0.5996(14) 0.2988(12) 0.3344(10)
H25_3 H 0.5901 0.3264 0.3708
C28_3 C 0.5659(11) 0.2975(11) 0.2790(13)
H26_3 H 0.5264 0.3255 0.2703
N12_3 N 0.7290(7) 0.0419(8) 0.2111(6)
N13_3 N 0.6999(6) 0.0078(7) 0.1590(6)
N14_3 N 0.5899(6) 0.1279(7) 0.0383(6)
N15_3 N 0.5610(8) 0.1854(7) 0.0587(8)
C32_3 C 0.5220(10) 0.2144(10) 0.0103(11)
H30_3 H 0.4945 0.2552 0.0136
N17_2 N 0.7823(5) 0.1649(5) 0.2886(4)
C42_2 C 0.2456(5) 0.9924(5) 0.0111(5)
H38_2 H 0.2171 0.9611 0.0342
N18_2 N 0.3178(5) 0.9961(6) 0.0239(4)
N20_3 N 0.5394(7) 0.3168(4) 0.1267(6)
C45_3 C 0.5922(5) 0.3646(6) 0.1094(6)
H41_3 H 0.6376 0.3484 0.0999
C46_3 C 0.5771(5) 0.4367(5) 0.1062(6)
H42_3 H 0.6124 0.4687 0.0946
C47_3 C 0.5092(6) 0.4609(4) 0.1203(6)
C48_3 C 0.4564(4) 0.4131(6) 0.1376(7)
H43_3 H 0.4110 0.4293 0.1471
C49_3 C 0.4715(6) 0.3410(5) 0.1408(7)
H44_3 H 0.4362 0.3090 0.1524
C35_3 C 0.8184(7) 0.2271(6) 0.2740(4)
H33_3 H 0.8115 0.2491 0.2341
C36_3 C 0.8647(6) 0.2566(5) 0.3189(6)
H34_3 H 0.8889 0.2983 0.3090
C37_3 C 0.8750(6) 0.2239(6) 0.3785(5)
C38_3 C 0.8389(7) 0.1616(6) 0.3932(4)
H35_3 H 0.8458 0.1397 0.4330
C39_3 C 0.7926(6) 0.1321(5) 0.3482(5)
H36_3 H 0.7684 0.0905 0.3581
C40_3 C 0.9176(6) 0.2584(6) 0.4291(5)
C41_3 C 0.9645(6) 0.2159(4) 0.4637(6)
H37_3 H 0.9669 0.1675 0.4551
C43_3 C 0.9571(6) 0.3604(4) 0.4893(5)
H39_3 H 0.9547 0.4088 0.4979
C44_3 C 0.9140(5) 0.3307(6) 0.4420(5)
H40_3 H 0.8827 0.3592 0.4188
Cu1_4 Cu 0.78151(11) 0.57189(12) 0.64776(11)
Cu2_3 Cu 0.86219(10) 0.69834(10) 0.73151(10)
Cu3_3 Cu 0.93378(10) 0.64625(10) 0.59561(10)
O4_4 O 0.8734(5) 0.6175(5) 0.6705(5)
H1_4 H 0.9007 0.5815 0.6940
N1_4 N 0.7505(8) 0.5950(7) 0.7337(8)
N2_4 N 0.7800(7) 0.6476(8) 0.7666(8)
C2_4 C 0.7510(14) 0.6532(14) 0.8257(10)
H2_4 H 0.7624 0.6876 0.8562
C3_4 C 0.7012(12) 0.5996(14) 0.8344(10)
H3_4 H 0.6736 0.5901 0.8708
C4_4 C 0.7025(11) 0.5659(11) 0.7790(13)
H4_4 H 0.6745 0.5264 0.7703
N3_4 N 0.9581(8) 0.7290(7) 0.7111(6)
N4_4 N 0.9922(7) 0.6999(6) 0.6590(6)
N5_4 N 0.8721(7) 0.5899(6) 0.5383(6)
N6_4 N 0.8146(7) 0.5610(8) 0.5587(8)
C8_4 C 0.7856(10) 0.5220(10) 0.5103(11)
H8_4 H 0.7448 0.4945 0.5136
C9_3 C 0.8258(11) 0.5295(10) 0.4568(9)
H9_3 H 0.8186 0.5088 0.4165
C10_3 C 0.8819(11) 0.5763(11) 0.4756(9)
H10_3 H 0.9179 0.5937 0.4493
N7_3 N 0.8351(5) 0.7823(5) 0.7886(4)
C11_4 C 0.7729(6) 0.8184(7) 0.7740(4)
H11_4 H 0.7509 0.8115 0.7341
C12_4 C 0.7434(5) 0.8647(6) 0.8189(6)
H12_4 H 0.7017 0.8889 0.8090
C13_4 C 0.7761(6) 0.8750(6) 0.8785(5)
C14_4 C 0.8384(6) 0.8389(7) 0.8932(4)
H13_4 H 0.8603 0.8458 0.9330
C15_4 C 0.8679(5) 0.7926(6) 0.8482(5)
H14_4 H 0.9095 0.7684 0.8581
C16_4 C 0.7416(6) 0.9176(6) 0.9291(5)
C17_4 C 0.7841(4) 0.9645(6) 0.9637(6)
H15_4 H 0.8325 0.9669 0.9551
C19_4 C 0.6396(4) 0.9571(6) 0.9893(5)
H17_4 H 0.5912 0.9547 0.9979
C20_4 C 0.6693(6) 0.9140(5) 0.9420(5)
H18_4 H 0.6408 0.8827 0.9188
N9_4 N 0.6832(4) 0.5394(7) 0.6267(6)
C21_4 C 0.6354(6) 0.5922(5) 0.6094(6)
H19_4 H 0.6516 0.6376 0.5999
C22_4 C 0.5633(5) 0.5771(5) 0.6062(6)
H20_4 H 0.5313 0.6124 0.5946
C23_4 C 0.5391(4) 0.5092(6) 0.6203(6)
C24_4 C 0.5869(6) 0.4564(4) 0.6376(7)
H21_4 H 0.5707 0.4110 0.6471
C25_4 C 0.6590(5) 0.4715(6) 0.6408(7)
H22_4 H 0.6910 0.4362 0.6524
Cu4_4 Cu 0.21849(11) 0.42811(12) 0.64776(11)
Cu5_3 Cu 0.13781(10) 0.30166(10) 0.73151(10)
Cu7_3 Cu 0.06622(10) 0.35375(10) 0.59561(10)
O5_4 O 0.1266(5) 0.3825(5) 0.6705(5)
H23_4 H 0.0993 0.4185 0.6940
N10_4 N 0.2495(8) 0.4050(7) 0.7337(8)
N11_4 N 0.2200(7) 0.3524(8) 0.7666(8)
C26_4 C 0.2490(14) 0.3468(14) 0.8257(10)
H24_4 H 0.2376 0.3124 0.8562
C27_4 C 0.2988(12) 0.4004(14) 0.8344(10)
H25_4 H 0.3264 0.4099 0.8708
C28_4 C 0.2975(11) 0.4341(11) 0.7790(13)
H26_4 H 0.3255 0.4736 0.7703
N12_4 N 0.0419(8) 0.2710(7) 0.7111(6)
N13_4 N 0.0078(7) 0.3001(6) 0.6590(6)
N14_4 N 0.1279(7) 0.4101(6) 0.5383(6)
N15_4 N 0.1854(7) 0.4390(8) 0.5587(8)
C32_4 C 0.2144(10) 0.4780(10) 0.5103(11)
H30_4 H 0.2552 0.5055 0.5136
C33_3 C 0.1742(11) 0.4705(10) 0.4568(9)
H31_3 H 0.1814 0.4912 0.4165
C34_3 C 0.1181(11) 0.4237(11) 0.4756(9)
H32_3 H 0.0821 0.4063 0.4493
N17_3 N 0.1649(5) 0.2177(5) 0.7886(4)
C42_3 C 0.9924(5) 0.7544(5) 0.5111(5)
H38_3 H 0.9611 0.7829 0.5342
N18_3 N 0.9961(6) 0.6822(5) 0.5239(4)
N19_3 N 0.0039(6) 0.3178(5) 0.5239(4)
N20_4 N 0.3168(4) 0.4606(7) 0.6267(6)
C45_4 C 0.3646(6) 0.4078(5) 0.6094(6)
H41_4 H 0.3484 0.3624 0.5999
C46_4 C 0.4367(5) 0.4229(5) 0.6062(6)
H42_4 H 0.4687 0.3876 0.5946
C47_4 C 0.4609(4) 0.4908(6) 0.6203(6)
C48_4 C 0.4131(6) 0.5436(4) 0.6376(7)
H43_4 H 0.4293 0.5890 0.6471
C49_4 C 0.3410(5) 0.5285(6) 0.6408(7)
H44_4 H 0.3090 0.5638 0.6524
C35_4 C 0.2271(6) 0.1816(7) 0.7740(4)
H33_4 H 0.2491 0.1885 0.7341
C36_4 C 0.2566(5) 0.1353(6) 0.8189(6)
H34_4 H 0.2983 0.1111 0.8090
C37_4 C 0.2239(6) 0.1250(6) 0.8785(5)
C38_4 C 0.1616(6) 0.1611(7) 0.8932(4)
H35_4 H 0.1397 0.1542 0.9330
C39_4 C 0.1321(5) 0.2074(6) 0.8482(5)
H36_4 H 0.0905 0.2316 0.8581
C40_4 C 0.2584(6) 0.0824(6) 0.9291(5)
C41_4 C 0.2159(4) 0.0355(6) 0.9637(6)
H37_4 H 0.1675 0.0331 0.9551
C43_4 C 0.3604(4) 0.0429(6) 0.9893(5)
H39_4 H 0.4088 0.0453 0.9979
C44_4 C 0.3307(6) 0.0860(5) 0.9420(5)
H40_4 H 0.3592 0.1173 0.9188
C42_4 C 0.0076(5) 0.2456(5) 0.5111(5)
H38_4 H 0.0389 0.2171 0.5342
C5_4 C 0.2770(11) 0.0549(9) 0.1586(10)
H5_4 H 0.2858 0.0868 0.1252
C6_4 C 0.2369(12) 0.0716(11) 0.2134(11)
H6_4 H 0.2169 0.1145 0.2261
C7_4 C 0.2353(11) 0.0084(11) 0.2425(10)
H7_4 H 0.2115 0.0002 0.2812
C9_4 C 0.4705(10) 0.8258(11) 0.9568(9)
H9_4 H 0.4912 0.8186 0.9165
C10_4 C 0.4237(11) 0.8819(11) 0.9756(9)
H10_4 H 0.4063 0.9179 0.9493
C33_4 C 0.5295(10) 0.1742(11) 0.9568(9)
H31_4 H 0.5088 0.1814 0.9165
C34_4 C 0.5763(11) 0.1181(11) 0.9756(9)
H32_4 H 0.5937 0.0821 0.9493
C29_4 C 0.7230(11) 0.9451(9) 0.1586(10)
H27_4 H 0.7142 0.9132 0.1252
C30_4 C 0.7631(12) 0.9284(11) 0.2134(11)
H28_4 H 0.7831 0.8855 0.2261
C31_4 C 0.7647(11) 0.9916(11) 0.2425(10)
H29_4 H 0.7885 0.9998 0.2812
loop_
_geom_bond_atom_site_label_1
_geom_bond_atom_site_label_2
_geom_bond_site_symmetry_1
_geom_bond_site_symmetry_2
S1 O1 1_555 1_555
O2 S1 1_555 1_555
O3 S1 1_555 1_555
C1 S1 1_555 1_555
F1 C1 1_555 1_555
F2 C1 1_555 1_555
F3 C1 1_555 1_555
S1_2 O1_2 1_555 1_555
O2_2 S1_2 1_555 1_555
O3_2 S1_2 1_555 1_555
C1_2 S1_2 1_555 1_555
F1_2 C1_2 1_555 1_555
S1_3 O1_3 1_555 1_555
O2_3 S1_3 1_555 1_555
O3_3 S1_3 1_555 1_555
C1_3 S1_3 1_555 1_555
F1_3 C1_3 1_555 1_555
F2_3 C1_3 1_555 1_555
F3_3 C1_3 1_555 1_555
S1_4 O1_4 1_555 1_555
O2_4 S1_4 1_555 1_555
O3_4 S1_4 1_555 1_555
C1_4 S1_4 1_555 1_555
F1_4 C1_4 1_555 1_555
S1_5 O1_5 1_555 1_555
O2_5 S1_5 1_555 1_555
O3_5 S1_5 1_555 1_555
C1_5 S1_5 1_555 1_555
F1_5 C1_5 1_555 1_555
F2_5 C1_5 1_555 1_555
F3_5 C1_5 1_555 1_555
S1_6 O1_6 1_555 1_555
O2_6 S1_6 1_555 1_555
O3_6 S1_6 1_555 1_555
C1_6 S1_6 1_555 1_555
F1_6 C1_6 1_555 1_555
S1_7 O1_7 1_555 1_555
O2_7 S1_7 1_555 1_555
O3_7 S1_7 1_555 1_555
C1_7 S1_7 1_555 1_555
F1_7 C1_7 1_555 1_555
F2_7 C1_7 1_555 1_555
F3_7 C1_7 1_555 1_555
S1_8 O1_8 1_555 1_555
O2_8 S1_8 1_555 1_555
O3_8 S1_8 1_555 1_555
C1_8 S1_8 1_555 1_555
F1_8 C1_8 1_555 1_555
H43 C48 1_555 1_555
H44 C49 1_555 1_555
C48 C49 1_555 1_555
Cu4 O5 1_555 1_555
Cu5 O5 1_555 1_555
Cu7 O5 1_555 1_555
O5 H23 1_555 1_555
N10 Cu4 1_555 1_555
N11 Cu5 1_555 1_555
C26 N11 1_555 1_555
H24 C26 1_555 1_555
C27 C26 1_555 1_555
H25 C27 1_555 1_555
C28 N10 1_555 1_555
H26 C28 1_555 1_555
N12 Cu5 1_555 1_555
N13 Cu7 1_555 1_555
C29 N13 1_555 1_555
H27 C29 1_555 1_555
C30 C29 1_555 1_555
H28 C30 1_555 1_555
C31 N12 1_555 1_555
H29 C31 1_555 1_555
N14 Cu7 1_555 1_555
N15 Cu4 1_555 1_555
C32 N15 1_555 1_555
C33 C32 1_555 1_555
H31 C33 1_555 1_555
C34 N14 1_555 1_555
H32 C34 1_555 1_555
N17 Cu5 1_555 1_555
N19 Cu7 1_555 1_555
N20 Cu4 1_555 1_555
C45 N20 1_555 1_555
H41 C45 1_555 1_555
C46 C45 1_555 1_555
H42 C46 1_555 1_555
N10 N11 1_555 1_555
C27 C28 1_555 1_555
N12 N13 1_555 1_555
C30 C31 1_555 1_555
N14 N15 1_555 1_555
C33 C34 1_555 1_555
C46 C47 1_555 1_555
H16 C18 1_555 1_555
N8 C18 1_555 1_555
Cu8 N8 1_555 1_555
H31_2 C33_2 1_555 1_555
H32_2 C34_2 1_555 1_555
C33_2 C34_2 1_555 1_555
Cu1 O4 1_555 1_555
Cu2 O4 1_555 1_555
Cu8 O4 1_555 1_555
O4 H1 1_555 1_555
N1 Cu1 1_555 1_555
N2 Cu2 1_555 1_555
C2 N2 1_555 1_555
H2 C2 1_555 1_555
C3 C2 1_555 1_555
H3 C3 1_555 1_555
C4 N1 1_555 1_555
H4 C4 1_555 1_555
N3 Cu2 1_555 1_555
N4 Cu8 1_555 1_555
C5 N4 1_555 1_555
H5 C5 1_555 1_555
C6 C5 1_555 1_555
H6 C6 1_555 1_555
C7 N3 1_555 1_555
H7 C7 1_555 1_555
N5 Cu8 1_555 1_555
N6 Cu1 1_555 1_555
C8 N6 1_555 1_555
N7 Cu2 1_555 1_555
C11 N7 1_555 1_555
H11 C11 1_555 1_555
C12 C11 1_555 1_555
H12 C12 1_555 1_555
C13 C12 1_555 1_555
C14 C13 1_555 1_555
H13 C14 1_555 1_555
C15 N7 1_555 1_555
H14 C15 1_555 1_555
C16 C13 1_555 1_555
C17 C16 1_555 1_555
H15 C17 1_555 1_555
C18_2 C17 1_555 1_555
H16_2 C18_2 1_555 1_555
N19 C18_2 1_555 1_555
C19 N19 1_555 1_555
H17 C19 1_555 1_555
C20 C16 1_555 1_555
H18 C20 1_555 1_555
N9 Cu1 1_555 1_555
C21 N9 1_555 1_555
H19 C21 1_555 1_555
C22 C21 1_555 1_555
H20 C22 1_555 1_555
C23 C22 1_555 1_555
N1 N2 1_555 1_555
C3 C4 1_555 1_555
N3 N4 1_555 1_555
C6 C7 1_555 1_555
N5 N6 1_555 1_555
C14 C15 1_555 1_555
C19 C20 1_555 1_555
C11_2 N17 1_555 1_555
H11_2 C11_2 1_555 1_555
C12_2 C11_2 1_555 1_555
H12_2 C12_2 1_555 1_555
C13_2 C12_2 1_555 1_555
C14_2 C13_2 1_555 1_555
H13_2 C14_2 1_555 1_555
C15_2 N17 1_555 1_555
H14_2 C15_2 1_555 1_555
C16_2 C13_2 1_555 1_555
C17_2 C16_2 1_555 1_555
H15_2 C17_2 1_555 1_555
H17_2 C19_2 1_555 1_555
C20_2 C16_2 1_555 1_555
H18_2 C20_2 1_555 1_555
C14_2 C15_2 1_555 1_555
C19_2 C20_2 1_555 1_555
Cu1_2 O4_2 1_555 1_555
Cu2_2 O4_2 1_555 1_555
Cu3 O4_2 1_555 1_555
O4_2 H1_2 1_555 1_555
N1_2 Cu1_2 1_555 1_555
N2_2 Cu2_2 1_555 1_555
C2_2 N2_2 1_555 1_555
H2_2 C2_2 1_555 1_555
C3_2 C2_2 1_555 1_555
H3_2 C3_2 1_555 1_555
C4_2 N1_2 1_555 1_555
H4_2 C4_2 1_555 1_555
N3_2 Cu2_2 1_555 1_555
N4_2 Cu3 1_555 1_555
C5_2 N4_2 1_555 1_555
H5_2 C5_2 1_555 1_555
C6_2 C5_2 1_555 1_555
H6_2 C6_2 1_555 1_555
C7_2 N3_2 1_555 1_555
H7_2 C7_2 1_555 1_555
N5_2 Cu3 1_555 1_555
N6_2 Cu1_2 1_555 1_555
C8_2 N6_2 1_555 1_555
C9 C8_2 1_555 1_555
H9 C9 1_555 1_555
C10 N5_2 1_555 1_555
H10 C10 1_555 1_555
N7_2 Cu2_2 1_555 1_555
C11_3 N7_2 1_555 1_555
H11_3 C11_3 1_555 1_555
C12_3 C11_3 1_555 1_555
H12_3 C12_3 1_555 1_555
C13_3 C12_3 1_555 1_555
C14_3 C13_3 1_555 1_555
H13_3 C14_3 1_555 1_555
C15_3 N7_2 1_555 1_555
H14_3 C15_3 1_555 1_555
C16_3 C13_3 1_555 1_555
C17_3 C16_3 1_555 1_555
H15_3 C17_3 1_555 1_555
H17_3 C19_3 1_555 1_555
C20_3 C16_3 1_555 1_555
H18_3 C20_3 1_555 1_555
N9_2 Cu1_2 1_555 1_555
C21_2 N9_2 1_555 1_555
H19_2 C21_2 1_555 1_555
C22_2 C21_2 1_555 1_555
H20_2 C22_2 1_555 1_555
C23_2 C22_2 1_555 1_555
Cu6 N16 1_555 1_555
N16 C35 1_555 1_555
C35 H33 1_555 1_555
C36 C35 1_555 1_555
H34 C36 1_555 1_555
C37 C36 1_555 1_555
C38 C37 1_555 1_555
H35 C38 1_555 1_555
C39 N16 1_555 1_555
H36 C39 1_555 1_555
C40 C37 1_555 1_555
C41 C40 1_555 1_555
H37 C41 1_555 1_555
C42 C41 1_555 1_555
H38 C42 1_555 1_555
N18 Cu3 1_555 1_555
C43 N18 1_555 1_555
H39 C43 1_555 1_555
C44 C40 1_555 1_555
H40 C44 1_555 1_555
N1_2 N2_2 1_555 1_555
C3_2 C4_2 1_555 1_555
N3_2 N4_2 1_555 1_555
C6_2 C7_2 1_555 1_555
N5_2 N6_2 1_555 1_555
C9 C10 1_555 1_555
C14_3 C15_3 1_555 1_555
C19_3 C20_3 1_555 1_555
C38 C39 1_555 1_555
C42 N18 1_555 1_555
C43 C44 1_555 1_555
Cu4_2 O5_2 1_555 1_555
Cu6 O5_2 1_555 1_555
Cu7_2 O5_2 1_555 1_555
O5_2 H23_2 1_555 1_555
N10_2 Cu4_2 1_555 1_555
N11_2 Cu6 1_555 1_555
C26_2 N11_2 1_555 1_555
H24_2 C26_2 1_555 1_555
C27_2 C26_2 1_555 1_555
H25_2 C27_2 1_555 1_555
C28_2 N10_2 1_555 1_555
H26_2 C28_2 1_555 1_555
N12_2 Cu6 1_555 1_555
N13_2 Cu7_2 1_555 1_555
C29_2 N13_2 1_555 1_555
H27_2 C29_2 1_555 1_555
C30_2 C29_2 1_555 1_555
H28_2 C30_2 1_555 1_555
C31_2 N12_2 1_555 1_555
H29_2 C31_2 1_555 1_555
N14_2 Cu7_2 1_555 1_555
N15_2 Cu4_2 1_555 1_555
C32_2 N15_2 1_555 1_555
N19_2 Cu7_2 1_555 1_555
N20_2 Cu4_2 1_555 1_555
C45_2 N20_2 1_555 1_555
H41_2 C45_2 1_555 1_555
C46_2 C45_2 1_555 1_555
H42_2 C46_2 1_555 1_555
N10_2 N11_2 1_555 1_555
C27_2 C28_2 1_555 1_555
N12_2 N13_2 1_555 1_555
C30_2 C31_2 1_555 1_555
N14_2 N15_2 1_555 1_555
C46_2 C47_2 1_555 1_555
H9_2 C9_2 1_555 1_555
H10_2 C10_2 1_555 1_555
C9_2 C10_2 1_555 1_555
H16_3 C18_3 1_555 1_555
N19_2 C18_3 1_555 1_555
H21 C24 1_555 1_555
H22 C25 1_555 1_555
C24 C25 1_555 1_555
H21_2 C24_2 1_555 1_555
H22_2 C25_2 1_555 1_555
C24_2 C25_2 1_555 1_555
H43_2 C48_2 1_555 1_555
H44_2 C49_2 1_555 1_555
C48_2 C49_2 1_555 1_555
H5_3 C5_3 1_555 1_555
C6_3 C5_3 1_555 1_555
H6_3 C6_3 1_555 1_555
H7_3 C7_3 1_555 1_555
Cu6_2 N16_2 1_555 1_555
N16_2 C35_2 1_555 1_555
C35_2 H33_2 1_555 1_555
C36_2 C35_2 1_555 1_555
H34_2 C36_2 1_555 1_555
C37_2 C36_2 1_555 1_555
C38_2 C37_2 1_555 1_555
H35_2 C38_2 1_555 1_555
C39_2 N16_2 1_555 1_555
H36_2 C39_2 1_555 1_555
C40_2 C37_2 1_555 1_555
C41_2 C40_2 1_555 1_555
H37_2 C41_2 1_555 1_555
H39_2 C43_2 1_555 1_555
C44_2 C40_2 1_555 1_555
H40_2 C44_2 1_555 1_555
C6_3 C7_3 1_555 1_555
C38_2 C39_2 1_555 1_555
C43_2 C44_2 1_555 1_555
H16_4 C18_4 1_555 1_555
N8_2 C18_4 1_555 1_555
Cu8_2 N8_2 1_555 1_555
H27_3 C29_3 1_555 1_555
C30_3 C29_3 1_555 1_555
H28_3 C30_3 1_555 1_555
H29_3 C31_3 1_555 1_555
C30_3 C31_3 1_555 1_555
Cu1_3 O4_3 1_555 1_555
Cu6_2 O4_3 1_555 1_555
Cu3_2 O4_3 1_555 1_555
O4_3 H1_3 1_555 1_555
N1_3 Cu1_3 1_555 1_555
N2_3 Cu6_2 1_555 1_555
C2_3 N2_3 1_555 1_555
H2_3 C2_3 1_555 1_555
C3_3 C2_3 1_555 1_555
H3_3 C3_3 1_555 1_555
C4_3 N1_3 1_555 1_555
H4_3 C4_3 1_555 1_555
N3_3 Cu6_2 1_555 1_555
N4_3 Cu3_2 1_555 1_555
N5_3 Cu3_2 1_555 1_555
N6_3 Cu1_3 1_555 1_555
C8_3 N6_3 1_555 1_555
H8_3 C8_3 1_555 1_555
N9_3 Cu1_3 1_555 1_555
C21_3 N9_3 1_555 1_555
H19_3 C21_3 1_555 1_555
C22_3 C21_3 1_555 1_555
H20_3 C22_3 1_555 1_555
C23_3 C22_3 1_555 1_555
C24_3 C23_3 1_555 1_555
H21_3 C24_3 1_555 1_555
C25_3 N9_3 1_555 1_555
H22_3 C25_3 1_555 1_555
Cu4_3 O5_3 1_555 1_555
Cu5_2 O5_3 1_555 1_555
Cu8_2 O5_3 1_555 1_555
O5_3 H23_3 1_555 1_555
N10_3 Cu4_3 1_555 1_555
N11_3 Cu5_2 1_555 1_555
C26_3 N11_3 1_555 1_555
H24_3 C26_3 1_555 1_555
C27_3 C26_3 1_555 1_555
H25_3 C27_3 1_555 1_555
C28_3 N10_3 1_555 1_555
H26_3 C28_3 1_555 1_555
N12_3 Cu5_2 1_555 1_555
N13_3 Cu8_2 1_555 1_555
N14_3 Cu8_2 1_555 1_555
N15_3 Cu4_3 1_555 1_555
C32_3 N15_3 1_555 1_555
H30_3 C32_3 1_555 1_555
N17_2 Cu5_2 1_555 1_555
H38_2 C42_2 1_555 1_555
N18_2 Cu3_2 1_555 1_555
N20_3 Cu4_3 1_555 1_555
C45_3 N20_3 1_555 1_555
H41_3 C45_3 1_555 1_555
C46_3 C45_3 1_555 1_555
H42_3 C46_3 1_555 1_555
C47_3 C23_3 1_555 1_555
C48_3 C47_3 1_555 1_555
H43_3 C48_3 1_555 1_555
C49_3 N20_3 1_555 1_555
H44_3 C49_3 1_555 1_555
N1_3 N2_3 1_555 1_555
C3_3 C4_3 1_555 1_555
N3_3 N4_3 1_555 1_555
N5_3 N6_3 1_555 1_555
C24_3 C25_3 1_555 1_555
N10_3 N11_3 1_555 1_555
C27_3 C28_3 1_555 1_555
N12_3 N13_3 1_555 1_555
N14_3 N15_3 1_555 1_555
C42_2 N18_2 1_555 1_555
C46_3 C47_3 1_555 1_555
C48_3 C49_3 1_555 1_555
N17_2 C35_3 1_555 1_555
C35_3 H33_3 1_555 1_555
C36_3 C35_3 1_555 1_555
H34_3 C36_3 1_555 1_555
C37_3 C36_3 1_555 1_555
C38_3 C37_3 1_555 1_555
H35_3 C38_3 1_555 1_555
C39_3 N17_2 1_555 1_555
H36_3 C39_3 1_555 1_555
C40_3 C37_3 1_555 1_555
C41_3 C40_3 1_555 1_555
H37_3 C41_3 1_555 1_555
H39_3 C43_3 1_555 1_555
C44_3 C40_3 1_555 1_555
H40_3 C44_3 1_555 1_555
C38_3 C39_3 1_555 1_555
C43_3 C44_3 1_555 1_555
Cu1_4 O4_4 1_555 1_555
Cu2_3 O4_4 1_555 1_555
Cu3_3 O4_4 1_555 1_555
O4_4 H1_4 1_555 1_555
N1_4 Cu1_4 1_555 1_555
N2_4 Cu2_3 1_555 1_555
C2_4 N2_4 1_555 1_555
H2_4 C2_4 1_555 1_555
C3_4 C2_4 1_555 1_555
H3_4 C3_4 1_555 1_555
C4_4 N1_4 1_555 1_555
H4_4 C4_4 1_555 1_555
N3_4 Cu2_3 1_555 1_555
N4_4 Cu3_3 1_555 1_555
N5_4 Cu3_3 1_555 1_555
N6_4 Cu1_4 1_555 1_555
C8_4 N6_4 1_555 1_555
H8_4 C8_4 1_555 1_555
C9_3 C8_4 1_555 1_555
H9_3 C9_3 1_555 1_555
C10_3 N5_4 1_555 1_555
H10_3 C10_3 1_555 1_555
N7_3 Cu2_3 1_555 1_555
C11_4 N7_3 1_555 1_555
H11_4 C11_4 1_555 1_555
C12_4 C11_4 1_555 1_555
H12_4 C12_4 1_555 1_555
C13_4 C12_4 1_555 1_555
C14_4 C13_4 1_555 1_555
H13_4 C14_4 1_555 1_555
C15_4 N7_3 1_555 1_555
H14_4 C15_4 1_555 1_555
C16_4 C13_4 1_555 1_555
C17_4 C16_4 1_555 1_555
H15_4 C17_4 1_555 1_555
H17_4 C19_4 1_555 1_555
C20_4 C16_4 1_555 1_555
H18_4 C20_4 1_555 1_555
N9_4 Cu1_4 1_555 1_555
C21_4 N9_4 1_555 1_555
H19_4 C21_4 1_555 1_555
C22_4 C21_4 1_555 1_555
H20_4 C22_4 1_555 1_555
C23_4 C22_4 1_555 1_555
C24_4 C23_4 1_555 1_555
H21_4 C24_4 1_555 1_555
C25_4 N9_4 1_555 1_555
H22_4 C25_4 1_555 1_555
Cu4_4 O5_4 1_555 1_555
Cu5_3 O5_4 1_555 1_555
Cu7_3 O5_4 1_555 1_555
O5_4 H23_4 1_555 1_555
N10_4 Cu4_4 1_555 1_555
N11_4 Cu5_3 1_555 1_555
C26_4 N11_4 1_555 1_555
H24_4 C26_4 1_555 1_555
C27_4 C26_4 1_555 1_555
H25_4 C27_4 1_555 1_555
C28_4 N10_4 1_555 1_555
H26_4 C28_4 1_555 1_555
N12_4 Cu5_3 1_555 1_555
N13_4 Cu7_3 1_555 1_555
N14_4 Cu7_3 1_555 1_555
N15_4 Cu4_4 1_555 1_555
C32_4 N15_4 1_555 1_555
H30_4 C32_4 1_555 1_555
C33_3 C32_4 1_555 1_555
H31_3 C33_3 1_555 1_555
C34_3 N14_4 1_555 1_555
H32_3 C34_3 1_555 1_555
N17_3 Cu5_3 1_555 1_555
H38_3 C42_3 1_555 1_555
N18_3 Cu3_3 1_555 1_555
N19_3 Cu7_3 1_555 1_555
N20_4 Cu4_4 1_555 1_555
C45_4 N20_4 1_555 1_555
H41_4 C45_4 1_555 1_555
C46_4 C45_4 1_555 1_555
H42_4 C46_4 1_555 1_555
C47_4 C23_4 1_555 1_555
C48_4 C47_4 1_555 1_555
H43_4 C48_4 1_555 1_555
C49_4 N20_4 1_555 1_555
H44_4 C49_4 1_555 1_555
N1_4 N2_4 1_555 1_555
C3_4 C4_4 1_555 1_555
N3_4 N4_4 1_555 1_555
N5_4 N6_4 1_555 1_555
C9_3 C10_3 1_555 1_555
C14_4 C15_4 1_555 1_555
C19_4 C20_4 1_555 1_555
C24_4 C25_4 1_555 1_555
N10_4 N11_4 1_555 1_555
C27_4 C28_4 1_555 1_555
N12_4 N13_4 1_555 1_555
N14_4 N15_4 1_555 1_555
C33_3 C34_3 1_555 1_555
C42_3 N18_3 1_555 1_555
C46_4 C47_4 1_555 1_555
C48_4 C49_4 1_555 1_555
N17_3 C35_4 1_555 1_555
C35_4 H33_4 1_555 1_555
C36_4 C35_4 1_555 1_555
H34_4 C36_4 1_555 1_555
C37_4 C36_4 1_555 1_555
C38_4 C37_4 1_555 1_555
H35_4 C38_4 1_555 1_555
C39_4 N17_3 1_555 1_555
H36_4 C39_4 1_555 1_555
C40_4 C37_4 1_555 1_555
C41_4 C40_4 1_555 1_555
H37_4 C41_4 1_555 1_555
H39_4 C43_4 1_555 1_555
C44_4 C40_4 1_555 1_555
H40_4 C44_4 1_555 1_555
C38_4 C39_4 1_555 1_555
C43_4 C44_4 1_555 1_555
H38_4 C42_4 1_555 1_555
C42_4 N19_3 1_555 1_555
H5_4 C5_4 1_555 1_555
C6_4 C5_4 1_555 1_555
H6_4 C6_4 1_555 1_555
H7_4 C7_4 1_555 1_555
C6_4 C7_4 1_555 1_555
H9_4 C9_4 1_555 1_555
H10_4 C10_4 1_555 1_555
H31_4 C33_4 1_555 1_555
H32_4 C34_4 1_555 1_555
C9_4 C10_4 1_555 1_555
C33_4 C34_4 1_555 1_555
H27_4 C29_4 1_555 1_555
C30_4 C29_4 1_555 1_555
H28_4 C30_4 1_555 1_555
H29_4 C31_4 1_555 1_555
C30_4 C31_4 1_555 1_555

#END
