
###############################################################################
#
# This file contains modified crystal structure data generated from the
# MOF subset of the Cambridge Structural Database (CSD) v543 
# hosted by the Cambridge Crystallographic Data Centre (CCDC).
#
# This work is licensed under the Creative Commons
# Attribution-NonCommercial-ShareAlike 4.0 International License.
# To view a copy of this license, visit
# http://creativecommons.org/licenses/by-nc-sa/4.0/
# or send a letter to
# Creative Commons, PO Box 1866, Mountain View, CA 94042, USA.
#
# CIF created using the CSD Python API on 29 September 2022
# The structure has been converted into the P1 space group
# The structure has a 3D framework
# The original CSD entry MUZVUA is in the triclinic crystal system
# The framework has been calculated to contain at least 10.0% void space
# The void calculation uses a probe of radius 1.32A, grid spacing 0.4
#
###############################################################################

data_MUZVUA
_chemical_formula_moiety         '(C80 H66 Cd4 N6 O18)n'
_symmetry_cell_setting           triclinic
_symmetry_space_group_name_H-M   'P 1'
_symmetry_Int_Tables_number      1
_space_group_name_Hall           'P 1'
loop_
_symmetry_equiv_pos_site_id
_symmetry_equiv_pos_as_xyz
1 x,y,z
_cell_length_a                   9.7250(19)
_cell_length_b                   14.654(3)
_cell_length_c                   19.736(4)
_cell_angle_alpha                80.50(3)
_cell_angle_beta                 77.20(3)
_cell_angle_gamma                81.70(3)
_cell_volume                     2688.03
loop_
_atom_site_label
_atom_site_type_symbol
_atom_site_fract_x
_atom_site_fract_y
_atom_site_fract_z
_atom_site_U_iso_or_equiv
_atom_site_thermal_displace_type
Cd1 Cd 0.46414(3) 0.062931(19) 0.193582(13) 0.0432 Uani
Cd2 Cd 0.16578(3) 0.23162(2) 0.247839(14) 0.0514 Uani
O1 O 0.2798(4) 0.0557(3) 0.14228(17) 0.0703 Uani
O2 O 0.0847(4) 0.1420(2) 0.18972(16) 0.0677 Uani
O3 O 0.5367(4) 0.1781(2) 0.10921(16) 0.0698 Uani
O4 O 0.3746(4) 0.2630(2) 0.17643(15) 0.0723 Uani
O5 O 0.2994(3) 0.1028(2) 0.29530(13) 0.0509 Uani
O8 O 0.1938(5) 0.3246(3) 0.3243(2) 0.0901 Uani
O9 O 0.6400(4) 0.0664(3) 0.25348(17) 0.0774 Uani
N1 N 0.0353(5) 0.3580(3) 0.1910(2) 0.0731 Uani
N3 N 0.7118(6) 0.0692(5) 0.3532(3) 0.1088 Uani
C1 C 0.1529(5) 0.0876(3) 0.1477(2) 0.0519 Uani
C2 C 0.0721(4) 0.0600(3) 0.09849(19) 0.0467 Uani
C4 C 0.1398(5) 0.0018(3) 0.0506(2) 0.0502 Uani
C7 C 0.4434(5) 0.5028(3) 0.0293(2) 0.0587 Uani
C8 C 0.4185(6) 0.4232(3) 0.0792(2) 0.0637 Uani
H4 H 0.3447 0.4273 0.1195 0.0760 Uiso
C9 C 0.5004(5) 0.3391(3) 0.0700(2) 0.0530 Uani
C10 C 0.6117(6) 0.3342(3) 0.0116(2) 0.0715 Uani
H5 H 0.6682 0.2765 0.0053 0.0860 Uiso
C12 C 0.4668(5) 0.2545(3) 0.1221(2) 0.0545 Uani
C16 C 0.1200(5) 0.0640(3) 0.42735(19) 0.0516 Uani
H9 H 0.1455 0.1254 0.4127 0.0620 Uiso
C17 C 0.0175(5) 0.0460(3) 0.48944(19) 0.0506 Uani
C18 C 0.2876(5) 0.0173(3) 0.3207(2) 0.0518 Uani
C19 C 0.1100(7) 0.4439(3) 0.4238(2) 0.0767 Uani
H10 H 0.1990 0.4483 0.3925 0.0920 Uiso
C20 C 0.0269(7) 0.3813(3) 0.4177(2) 0.0711 Uani
C24 C 0.0727(7) 0.3199(4) 0.3605(3) 0.0719 Uani
C25 C 0.0342(8) 0.4439(4) 0.2027(3) 0.0971 Uani
H13 H 0.0985 0.4551 0.2295 0.1160 Uiso
C38 C 0.6169(7) 0.0785(5) 0.3143(3) 0.0999 Uani
H27 H 0.5213 0.0963 0.3357 0.1200 Uiso
C39 C 0.6739(10) 0.0829(9) 0.4272(4) 0.1844 Uani
H28 H 0.5712 0.0828 0.4438 0.2770 Uiso
H29 H 0.7017 0.1427 0.4323 0.2770 Uiso
H30 H 0.7234 0.0324 0.4550 0.2770 Uiso
C40 C 0.8572(10) 0.0443(9) 0.3251(4) 0.1844 Uani
H32 H 0.9159 0.0758 0.3464 0.2770 Uiso
H33 H 0.8763 0.0632 0.2742 0.2770 Uiso
C51 C 0.3592(6) 0.5890(3) 0.0367(3) 0.0783 Uani
H39 H 0.2819 0.5937 0.0754 0.0940 Uiso
O16 O 0.0088(5) 0.7329(2) 0.64803(17) 0.0821 Uani
C61 C 0.1058(7) 0.6258(4) 0.5368(3) 0.0841 Uani
H44 H 0.1638 0.6702 0.5418 0.1010 Uiso
C62 C 0.1528(7) 0.5695(4) 0.4852(3) 0.0866 Uani
H45 H 0.2432 0.5745 0.4552 0.1040 Uiso
C63 C 0.0666(6) 0.5044(3) 0.4768(2) 0.0738 Uani
C11 C 0.6408(6) 0.4110(3) 0.9633(3) 0.0783 Uani
H6 H 0.7181 0.4063 0.9246 0.0940 Uiso
O12 O 0.4633(4) 0.8219(2) 0.89079(16) 0.0698 Uani
O13 O 0.6254(4) 0.7370(2) 0.82357(15) 0.0723 Uani
C47 C 0.5566(5) 0.4972(3) 0.9707(2) 0.0587 Uani
C48 C 0.5815(6) 0.5768(3) 0.9208(2) 0.0637 Uani
H37 H 0.6553 0.5727 0.8805 0.0760 Uiso
C49 C 0.4996(5) 0.6609(3) 0.9300(2) 0.0530 Uani
C50 C 0.3883(6) 0.6658(3) 0.9884(2) 0.0715 Uani
H38 H 0.3318 0.7235 0.9947 0.0860 Uiso
C52 C 0.5332(5) 0.7455(3) 0.8779(2) 0.0545 Uani
Cd8 Cd 0.53586(3) 0.937069(19) 0.806418(13) 0.0432 Uani
Cd11 Cd 0.83422(3) 0.76838(2) 0.752161(14) 0.0514 Uani
O6 O 0.3603(4) 0.9533(2) 0.29089(15) 0.0702 Uani
H2 H 0.2347 0.9754 0.0514 0.0600 Uiso
C5 C 0.0705(4) 0.9802(3) 0.00007(19) 0.0428 Uani
C13 C 0.0496(6) 0.8840(3) 0.4697(2) 0.0634 Uani
H7 H 0.0257 0.8221 0.4837 0.0760 Uiso
C14 C 0.1489(5) 0.9043(3) 0.4101(2) 0.0629 Uani
H8 H 0.1950 0.8561 0.3834 0.0760 Uiso
C15 C 0.1834(5) 0.9958(3) 0.38792(19) 0.0503 Uani
H31 H 0.8800 0.9768 0.3353 0.2770 Uiso
H54 H 0.2595 0.2866 0.0112 0.1810 Uiso
H55 H 0.1138 0.2449 0.0193 0.1810 Uiso
N7 N 0.5896(4) 0.9437(2) 0.13619(17) 0.0562 Uani
C43 C 0.0713(5) 0.9025(3) 0.9012(2) 0.0526 Uani
H34 H 0.1198 0.8641 0.8669 0.0630 Uiso
C46 C 0.1395(5) 0.9214(3) 0.9498(2) 0.0506 Uani
H36 H 0.2345 0.8947 0.9498 0.0600 Uiso
N5 N 0.4104(4) 0.0563(2) 0.86381(17) 0.0562 Uani
C66 C 0.0519(9) 0.4831(4) 0.8208(3) 0.1065 Uani
H47 H 0.0504 0.4234 0.8083 0.1280 Uiso
C67 C 0.1418(8) 0.4942(4) 0.8625(3) 0.0952 Uani
C68 C 0.1425(8) 0.5821(4) 0.8760(4) 0.1022 Uani
H48 H 0.2039 0.5943 0.9039 0.1230 Uiso
C69 C 0.0519(8) 0.6541(4) 0.8483(3) 0.0945 Uani
H49 H 0.0531 0.7152 0.8583 0.1130 Uiso
C70 C 0.2350(12) 0.4132(5) 0.8951(4) 0.1509 Uani
H50 H 0.2866 0.3745 0.8588 0.1810 Uiso
H51 H 0.3056 0.4375 0.9146 0.1810 Uiso
C71 C 0.1378(12) 0.3521(5) 0.9556(4) 0.1509 Uani
H52 H 0.0575 0.3397 0.9364 0.1810 Uiso
H53 H 0.0972 0.3909 0.9934 0.1810 Uiso
C72 C 0.1918(12) 0.2728(5) 0.9845(4) 0.1509 Uani
C73 C 0.2681(9) 0.1979(4) 0.9402(3) 0.0948 Uani
C74 C 0.2222(7) 0.1758(4) 0.8848(4) 0.0990 Uani
H56 H 0.1394 0.2097 0.8713 0.1190 Uiso
C75 C 0.2941(7) 0.1055(3) 0.8488(3) 0.0824 Uani
H57 H 0.2583 0.0916 0.8111 0.0990 Uiso
C76 C 0.4537(6) 0.0782(4) 0.9185(3) 0.0698 Uani
H58 H 0.5347 0.0422 0.9324 0.0840 Uiso
C77 C 0.3891(7) 0.1486(4) 0.9550(3) 0.0887 Uani
H59 H 0.4288 0.1633 0.9912 0.1070 Uiso
O7 O 0.9912(5) 0.2671(2) 0.35197(17) 0.0821 Uani
C3 C 0.9287(5) 0.0975(3) 0.0988(2) 0.0526 Uani
H1 H 0.8802 0.1359 0.1331 0.0630 Uiso
C6 C 0.8605(5) 0.0786(3) 0.0502(2) 0.0506 Uani
H3 H 0.7655 0.1053 0.0502 0.0600 Uiso
C21 C 0.8942(7) 0.3742(4) 0.4632(3) 0.0841 Uani
H11 H 0.8362 0.3298 0.4582 0.1010 Uiso
C22 C 0.8472(7) 0.4305(4) 0.5148(3) 0.0866 Uani
H12 H 0.7568 0.4255 0.5448 0.1040 Uiso
C23 C 0.9334(6) 0.4956(3) 0.5232(2) 0.0738 Uani
C26 C 0.9481(9) 0.5169(4) 0.1792(3) 0.1065 Uani
H14 H 0.9496 0.5766 0.1917 0.1280 Uiso
C27 C 0.8582(8) 0.5058(4) 0.1375(3) 0.0952 Uani
C28 C 0.8575(8) 0.4179(4) 0.1240(4) 0.1022 Uani
H15 H 0.7961 0.4057 0.0961 0.1230 Uiso
C29 C 0.9481(8) 0.3459(4) 0.1517(3) 0.0945 Uani
H16 H 0.9469 0.2848 0.1417 0.1130 Uiso
C30 C 0.7650(12) 0.5868(5) 0.1049(4) 0.1509 Uani
H17 H 0.7134 0.6255 0.1412 0.1810 Uiso
H18 H 0.6944 0.5625 0.0854 0.1810 Uiso
C31 C 0.8622(12) 0.6479(5) 0.0444(4) 0.1509 Uani
H19 H 0.9425 0.6603 0.0636 0.1810 Uiso
H20 H 0.9028 0.6091 0.0066 0.1810 Uiso
C32 C 0.8082(12) 0.7272(5) 0.0155(4) 0.1509 Uani
C33 C 0.7319(9) 0.8021(4) 0.0598(3) 0.0948 Uani
C34 C 0.7778(7) 0.8242(4) 0.1152(4) 0.0990 Uani
H23 H 0.8606 0.7903 0.1287 0.1190 Uiso
C35 C 0.7059(7) 0.8945(3) 0.1512(3) 0.0824 Uani
H24 H 0.7417 0.9084 0.1889 0.0990 Uiso
C36 C 0.5463(6) 0.9218(4) 0.0815(3) 0.0698 Uani
H25 H 0.4653 0.9578 0.0676 0.0840 Uiso
C37 C 0.6109(7) 0.8514(4) 0.0450(3) 0.0887 Uani
H26 H 0.5712 0.8367 0.0088 0.1070 Uiso
O15 O 0.6397(4) 0.0467(2) 0.70911(15) 0.0702 Uani
C53 C 0.9504(6) 0.1160(3) 0.5303(2) 0.0634 Uani
H40 H 0.9743 0.1779 0.5163 0.0760 Uiso
C54 C 0.8511(5) 0.0957(3) 0.5899(2) 0.0629 Uani
H41 H 0.8050 0.1439 0.6166 0.0760 Uiso
C55 C 0.8166(5) 0.0042(3) 0.61208(19) 0.0503 Uani
O17 O 0.8062(5) 0.6754(3) 0.6757(2) 0.0901 Uani
C59 C 0.8900(7) 0.5561(3) 0.5762(2) 0.0767 Uani
H43 H 0.8010 0.5517 0.6075 0.0920 Uiso
C60 C 0.9731(7) 0.6187(3) 0.5823(2) 0.0711 Uani
C64 C 0.9273(7) 0.6801(4) 0.6395(3) 0.0719 Uani
H21 H 0.7405 0.7134 0.9888 0.1810 Uiso
H22 H 0.8862 0.7551 0.9807 0.1810 Uiso
H35 H 0.7653 0.0246 0.9486 0.0600 Uiso
C45 C 0.9295(4) 0.0198(3) 0.99993(19) 0.0428 Uani
H64 H 0.1200 0.0232 0.6647 0.2770 Uiso
O14 O 0.7006(3) 0.8972(2) 0.70470(13) 0.0509 Uani
C56 C 0.8800(5) 0.9360(3) 0.57265(19) 0.0516 Uani
H42 H 0.8545 0.8746 0.5873 0.0620 Uiso
C57 C 0.9825(5) 0.9540(3) 0.51056(19) 0.0506 Uani
C58 C 0.7124(5) 0.9827(3) 0.6793(2) 0.0518 Uani
O10 O 0.7202(4) 0.9443(3) 0.85772(17) 0.0703 Uani
O11 O 0.9153(4) 0.8580(2) 0.81028(16) 0.0677 Uani
C41 C 0.8471(5) 0.9124(3) 0.8523(2) 0.0519 Uani
C42 C 0.9279(4) 0.9400(3) 0.90151(19) 0.0467 Uani
C44 C 0.8602(5) 0.9982(3) 0.9494(2) 0.0502 Uani
O18 O 0.3600(4) 0.9336(3) 0.74652(17) 0.0774 Uani
N4 N 0.9647(5) 0.6420(3) 0.8090(2) 0.0731 Uani
N6 N 0.2882(6) 0.9308(5) 0.6468(3) 0.1088 Uani
C65 C 0.9658(8) 0.5561(4) 0.7973(3) 0.0971 Uani
H46 H 0.9015 0.5449 0.7705 0.1160 Uiso
C78 C 0.3831(7) 0.9215(5) 0.6857(3) 0.0999 Uani
H60 H 0.4787 0.9037 0.6643 0.1200 Uiso
C79 C 0.3261(10) 0.9171(9) 0.5728(4) 0.1844 Uani
H61 H 0.4288 0.9172 0.5562 0.2770 Uiso
H62 H 0.2983 0.8573 0.5677 0.2770 Uiso
H63 H 0.2766 0.9676 0.5450 0.2770 Uiso
C80 C 0.1428(10) 0.9557(9) 0.6749(4) 0.1844 Uani
H65 H 0.0841 0.9242 0.6536 0.2770 Uiso
H66 H 0.1237 0.9368 0.7258 0.2770 Uiso
loop_
_atom_site_aniso_label
_atom_site_aniso_U_11
_atom_site_aniso_U_22
_atom_site_aniso_U_33
_atom_site_aniso_U_23
_atom_site_aniso_U_13
_atom_site_aniso_U_12
Cd1 0.0492 0.047 0.03495 -0.00696 -0.01139 -0.00418
Cd2 0.0609 0.0548 0.04351 -0.02738 -0.01376 0.00534
O1 0.054 0.097 0.075 -0.0465 -0.0301 0.0084
O2 0.075 0.077 0.0651 -0.0445 -0.0262 0.0044
O3 0.075 0.0491 0.0693 0.0107 0.0004 0.0008
O4 0.101 0.0566 0.0491 -0.0027 0.0084 -0.0175
O5 0.0576 0.0575 0.0368 -0.0018 -0.0102 -0.0082
O8 0.096 0.107 0.082 -0.068 -0.025 0.014
O9 0.067 0.113 0.062 -0.0181 -0.027 -0.014
N1 0.089 0.064 0.074 -0.028 -0.034 0.015
N3 0.088 0.177 0.077 -0.024 -0.043 -0.018
C1 0.058 0.058 0.047 -0.0167 -0.019 -0.007
C2 0.05 0.05 0.045 -0.0199 -0.013 -0.0014
C4 0.048 0.057 0.051 -0.0192 -0.0168 0
C7 0.071 0.046 0.047 -0.002 0.003 0.005
C8 0.078 0.057 0.045 -0.0022 0.005 -0.004
C9 0.061 0.043 0.05 0.0008 -0.007 -0.004
C10 0.079 0.047 0.068 0 0.013 0.008
C12 0.063 0.051 0.05 -0.003 -0.016 -0.005
C16 0.061 0.056 0.0373 0.0024 -0.0101 -0.015
C17 0.06 0.055 0.0371 -0.0021 -0.0121 -0.009
C18 0.056 0.062 0.0384 0.0012 -0.0146 -0.011
C19 0.105 0.074 0.052 -0.035 -0.014 0.014
C20 0.106 0.062 0.047 -0.029 -0.022 0.02
C24 0.101 0.067 0.051 -0.031 -0.024 0.019
C25 0.137 0.063 0.104 -0.015 -0.051 -0.008
C38 0.074 0.16 0.084 -0.037 -0.045 -0.005
C39 0.121 0.336 0.11 -0.047 -0.053 -0.006
C40 0.121 0.336 0.11 -0.047 -0.053 -0.006
C51 0.09 0.054 0.066 -0.002 0.023 0.006
O16 0.119 0.069 0.062 -0.0356 -0.02 0.01
C61 0.115 0.072 0.07 -0.037 -0.018 0.004
C62 0.116 0.075 0.071 -0.039 -0.007 -0.003
C63 0.105 0.065 0.052 -0.029 -0.018 0.016
C11 0.09 0.054 0.066 -0.002 0.023 0.006
O12 0.075 0.0491 0.0693 0.0107 0.0004 0.0008
O13 0.101 0.0566 0.0491 -0.0027 0.0084 -0.0175
C47 0.071 0.046 0.047 -0.002 0.003 0.005
C48 0.078 0.057 0.045 -0.0022 0.005 -0.004
C49 0.061 0.043 0.05 0.0008 -0.007 -0.004
C50 0.079 0.047 0.068 0 0.013 0.008
C52 0.063 0.051 0.05 -0.003 -0.016 -0.005
Cd8 0.0492 0.047 0.03495 -0.00696 -0.01139 -0.00418
Cd11 0.0609 0.0548 0.04351 -0.02738 -0.01376 0.00534
O6 0.081 0.0601 0.0571 -0.0072 0.0097 -0.0048
C5 0.045 0.044 0.0428 -0.0149 -0.012 -0.0012
C13 0.084 0.052 0.049 -0.0011 -0.003 -0.014
C14 0.079 0.058 0.046 -0.009 0 -0.007
C15 0.058 0.054 0.0378 -0.0016 -0.0108 -0.006
N7 0.065 0.052 0.0522 -0.0129 -0.0137 0.0005
C43 0.054 0.063 0.046 -0.0257 -0.0116 -0.001
C46 0.04 0.062 0.055 -0.0256 -0.0118 0.001
N5 0.065 0.052 0.0522 -0.0129 -0.0137 0.0005
C66 0.171 0.048 0.114 -0.014 -0.062 -0.002
C67 0.134 0.055 0.099 -0.015 -0.042 0.015
C68 0.131 0.068 0.122 -0.017 -0.071 0.017
C69 0.131 0.055 0.105 -0.025 -0.049 0.02
C70 0.224 0.079 0.131 -0.027 -0.024 0.04
C71 0.224 0.079 0.131 -0.027 -0.024 0.04
C72 0.224 0.079 0.131 -0.027 -0.024 0.04
C73 0.12 0.062 0.094 -0.03 0.01 -0.01
C74 0.083 0.07 0.138 -0.023 -0.025 0.025
C75 0.099 0.054 0.102 -0.022 -0.047 0.02
C76 0.084 0.064 0.062 -0.017 -0.014 -0.002
C77 0.106 0.081 0.083 -0.041 -0.016 0.006
O7 0.119 0.069 0.062 -0.0356 -0.02 0.01
C3 0.054 0.063 0.046 -0.0257 -0.0116 -0.001
C6 0.04 0.062 0.055 -0.0256 -0.0118 0.001
C21 0.115 0.072 0.07 -0.037 -0.018 0.004
C22 0.116 0.075 0.071 -0.039 -0.007 -0.003
C23 0.105 0.065 0.052 -0.029 -0.018 0.016
C26 0.171 0.048 0.114 -0.014 -0.062 -0.002
C27 0.134 0.055 0.099 -0.015 -0.042 0.015
C28 0.131 0.068 0.122 -0.017 -0.071 0.017
C29 0.131 0.055 0.105 -0.025 -0.049 0.02
C30 0.224 0.079 0.131 -0.027 -0.024 0.04
C31 0.224 0.079 0.131 -0.027 -0.024 0.04
C32 0.224 0.079 0.131 -0.027 -0.024 0.04
C33 0.12 0.062 0.094 -0.03 0.01 -0.01
C34 0.083 0.07 0.138 -0.023 -0.025 0.025
C35 0.099 0.054 0.102 -0.022 -0.047 0.02
C36 0.084 0.064 0.062 -0.017 -0.014 -0.002
C37 0.106 0.081 0.083 -0.041 -0.016 0.006
O15 0.081 0.0601 0.0571 -0.0072 0.0097 -0.0048
C53 0.084 0.052 0.049 -0.0011 -0.003 -0.014
C54 0.079 0.058 0.046 -0.009 0 -0.007
C55 0.058 0.054 0.0378 -0.0016 -0.0108 -0.006
O17 0.096 0.107 0.082 -0.068 -0.025 0.014
C59 0.105 0.074 0.052 -0.035 -0.014 0.014
C60 0.106 0.062 0.047 -0.029 -0.022 0.02
C64 0.101 0.067 0.051 -0.031 -0.024 0.019
C45 0.045 0.044 0.0428 -0.0149 -0.012 -0.0012
O14 0.0576 0.0575 0.0368 -0.0018 -0.0102 -0.0082
C56 0.061 0.056 0.0373 0.0024 -0.0101 -0.015
C57 0.06 0.055 0.0371 -0.0021 -0.0121 -0.009
C58 0.056 0.062 0.0384 0.0012 -0.0146 -0.011
O10 0.054 0.097 0.075 -0.0465 -0.0301 0.0084
O11 0.075 0.077 0.0651 -0.0445 -0.0262 0.0044
C41 0.058 0.058 0.047 -0.0167 -0.019 -0.007
C42 0.05 0.05 0.045 -0.0199 -0.013 -0.0014
C44 0.048 0.057 0.051 -0.0192 -0.0168 0
O18 0.067 0.113 0.062 -0.0181 -0.027 -0.014
N4 0.089 0.064 0.074 -0.028 -0.034 0.015
N6 0.088 0.177 0.077 -0.024 -0.043 -0.018
C65 0.137 0.063 0.104 -0.015 -0.051 -0.008
C78 0.074 0.16 0.084 -0.037 -0.045 -0.005
C79 0.121 0.336 0.11 -0.047 -0.053 -0.006
C80 0.121 0.336 0.11 -0.047 -0.053 -0.006
loop_
_geom_bond_atom_site_label_1
_geom_bond_atom_site_label_2
_geom_bond_site_symmetry_1
_geom_bond_site_symmetry_2
Cd1 O1 1_555 1_555
Cd2 O2 1_555 1_555
O1 C1 1_555 1_555
O2 C1 1_555 1_555
O3 Cd1 1_555 1_555
O4 Cd2 1_555 1_555
O5 Cd1 1_555 1_555
O8 Cd2 1_555 1_555
O9 Cd1 1_555 1_555
N1 Cd2 1_555 1_555
N3 C38 1_555 1_555
C1 C2 1_555 1_555
C4 C2 1_555 1_555
C7 C8 1_555 1_555
C8 H4 1_555 1_555
C9 C8 1_555 1_555
C10 C9 1_555 1_555
H5 C10 1_555 1_555
C12 O3 1_555 1_555
H9 C16 1_555 1_555
C17 C16 1_555 1_555
C18 O5 1_555 1_555
C19 H10 1_555 1_555
C20 C19 1_555 1_555
C25 N1 1_555 1_555
H13 C25 1_555 1_555
C38 O9 1_555 1_555
H27 C38 1_555 1_555
C39 N3 1_555 1_555
H28 C39 1_555 1_555
H29 C39 1_555 1_555
H30 C39 1_555 1_555
C40 N3 1_555 1_555
H32 C40 1_555 1_555
H33 C40 1_555 1_555
C51 C7 1_555 1_555
H39 C51 1_555 1_555
H44 C61 1_555 1_555
C62 C61 1_555 1_555
H45 C62 1_555 1_555
C63 C19 1_555 1_555
Cd2 O5 1_555 1_555
O4 C12 1_555 1_555
O8 C24 1_555 1_555
C9 C12 1_555 1_555
C20 C24 1_555 1_555
C62 C63 1_555 1_555
H6 C11 1_555 1_555
O12 C52 1_555 1_555
O13 C52 1_555 1_555
C48 C47 1_555 1_555
H37 C48 1_555 1_555
C49 C48 1_555 1_555
C50 C49 1_555 1_555
H38 C50 1_555 1_555
C52 C49 1_555 1_555
Cd8 O12 1_555 1_555
Cd11 O13 1_555 1_555
C11 C47 1_555 1_555
C13 H7 1_555 1_555
C14 C13 1_555 1_555
H8 C14 1_555 1_555
C15 C14 1_555 1_555
C43 H34 1_555 1_555
H36 C46 1_555 1_555
N5 C75 1_555 1_555
H47 C66 1_555 1_555
C67 C66 1_555 1_555
C68 C67 1_555 1_555
H48 C68 1_555 1_555
H49 C69 1_555 1_555
C70 C67 1_555 1_555
H50 C70 1_555 1_555
H51 C70 1_555 1_555
C71 C70 1_555 1_555
H52 C71 1_555 1_555
H53 C71 1_555 1_555
C72 C71 1_555 1_555
C73 C72 1_555 1_555
C74 C73 1_555 1_555
H56 C74 1_555 1_555
C75 C74 1_555 1_555
H57 C75 1_555 1_555
C76 N5 1_555 1_555
H58 C76 1_555 1_555
C77 C73 1_555 1_555
H59 C77 1_555 1_555
C43 C46 1_555 1_555
C68 C69 1_555 1_555
C76 C77 1_555 1_555
N7 C35 1_555 1_555
C3 H1 1_555 1_555
C6 C3 1_555 1_555
H3 C6 1_555 1_555
H11 C21 1_555 1_555
C22 C21 1_555 1_555
H12 C22 1_555 1_555
C23 C22 1_555 1_555
H14 C26 1_555 1_555
C27 C26 1_555 1_555
C28 C27 1_555 1_555
H15 C28 1_555 1_555
H16 C29 1_555 1_555
C30 C27 1_555 1_555
H17 C30 1_555 1_555
H18 C30 1_555 1_555
C31 C30 1_555 1_555
H19 C31 1_555 1_555
H20 C31 1_555 1_555
C32 C31 1_555 1_555
C33 C32 1_555 1_555
C34 C33 1_555 1_555
H23 C34 1_555 1_555
C35 C34 1_555 1_555
H24 C35 1_555 1_555
C36 N7 1_555 1_555
H25 C36 1_555 1_555
C37 C33 1_555 1_555
H26 C37 1_555 1_555
H40 C53 1_555 1_555
C54 C53 1_555 1_555
H41 C54 1_555 1_555
C55 C54 1_555 1_555
O17 C64 1_555 1_555
C59 C23 1_555 1_555
H43 C59 1_555 1_555
C60 C59 1_555 1_555
C64 C60 1_555 1_555
C28 C29 1_555 1_555
C36 C37 1_555 1_555
O17 Cd11 1_555 1_555
O14 C58 1_555 1_555
H42 C56 1_555 1_555
Cd8 O14 1_555 1_555
Cd11 O14 1_555 1_555
C56 C57 1_555 1_555
O10 C41 1_555 1_555
O11 C41 1_555 1_555
C41 C42 1_555 1_555
C44 C42 1_555 1_555
Cd8 O10 1_555 1_555
Cd11 O11 1_555 1_555
O18 Cd8 1_555 1_555
N4 Cd11 1_555 1_555
N6 C78 1_555 1_555
C65 N4 1_555 1_555
H46 C65 1_555 1_555
C78 O18 1_555 1_555
H60 C78 1_555 1_555
C79 N6 1_555 1_555
H61 C79 1_555 1_555
H62 C79 1_555 1_555
H63 C79 1_555 1_555
C80 N6 1_555 1_555
H65 C80 1_555 1_555
H66 C80 1_555 1_555

#END
