
###############################################################################
#
# This file contains modified crystal structure data generated from the
# MOF subset of the Cambridge Structural Database (CSD) v543 
# hosted by the Cambridge Crystallographic Data Centre (CCDC).
#
# This work is licensed under the Creative Commons
# Attribution-NonCommercial-ShareAlike 4.0 International License.
# To view a copy of this license, visit
# http://creativecommons.org/licenses/by-nc-sa/4.0/
# or send a letter to
# Creative Commons, PO Box 1866, Mountain View, CA 94042, USA.
#
# CIF created using the CSD Python API on 29 September 2022
# The structure has been converted into the P1 space group
# The structure has a 3D framework
# The original CSD entry NABCEA is in the orthorhombic crystal system
# The framework has been calculated to contain at least 10.0% void space
# The void calculation uses a probe of radius 1.32A, grid spacing 0.4
# The framework is charged, counterions have been retained in the structure
# H atom positions have been added when not included in the experimental data
#
###############################################################################

data_NABCEA
_chemical_formula_moiety         '(C192 H192 Cl16 N32 O80 Zn7 2-)n'
_symmetry_cell_setting           triclinic
_symmetry_space_group_name_H-M   'P 1'
_symmetry_Int_Tables_number      1
_space_group_name_Hall           'P 1'
loop_
_symmetry_equiv_pos_site_id
_symmetry_equiv_pos_as_xyz
1 x,y,z
_cell_length_a                   18.8495(6)
_cell_length_b                   10.6597(4)
_cell_length_c                   39.7552(13)
_cell_angle_alpha                90
_cell_angle_beta                 90
_cell_angle_gamma                90
_cell_volume                     7988.01
loop_
_atom_site_label
_atom_site_type_symbol
_atom_site_fract_x
_atom_site_fract_y
_atom_site_fract_z
N7 N 0.2697(4) 0.1531(6) 0.26588(16)
C35 C 0.3214(5) 0.1335(7) 0.28846(19)
H29 H 0.3610 0.1871 0.2881
C36 C 0.3197(5) 0.0409(9) 0.3117(2)
H30 H 0.3564 0.0342 0.3276
C39 C 0.2157(5) 0.0733(8) 0.2657(2)
H32 H 0.1794 0.0848 0.2498
C40 C 0.1581(5) 0.0446(9) 0.4353(2)
H33 H 0.1565 0.1241 0.4455
C41 C 0.2118(5) 0.0179(8) 0.4121(2)
H34 H 0.2452 0.0796 0.4063
Zn5 Zn 0.27398(5) 0.30060(8) 0.22853(2)
Zn1 Zn 0.52598(4) 0.50048(9) 0.47938(3)
O1 O 0.5418(4) 0.6832(6) 0.50305(16)
O2 O 0.5066(3) 0.3166(5) 0.45689(15)
N1 N 0.4428(3) 0.4617(7) 0.51478(16)
N2 N 0.1040(3) 0.0818(6) 0.51193(15)
N4 N 0.2407(4) 0.6622(7) 0.69013(17)
N5 N 0.4531(4) 0.5867(6) 0.44450(16)
N6 N 0.2955(4) 0.4397(6) 0.26598(15)
N8 N 0.1085(3) 0.9580(6) 0.44331(16)
C1 C 0.4554(5) 0.4626(10) 0.5488(2)
H1 H 0.5010 0.4824 0.5567
C2 C 0.4019(5) 0.4346(8) 0.5718(2)
H2 H 0.4117 0.4349 0.5950
C3 C 0.3348(4) 0.4065(7) 0.56040(18)
C4 C 0.3243(5) 0.4084(8) 0.5259(2)
H3 H 0.2788 0.3921 0.5174
C5 C 0.3779(5) 0.4329(9) 0.50411(19)
H4 H 0.3690 0.4295 0.4809
C6 C 0.2941(6) 0.6650(9) 0.6684(2)
H5 H 0.3240 0.7356 0.6686
C7 C 0.3080(5) 0.5745(8) 0.6464(2)
H6 H 0.3457 0.5840 0.6311
C8 C 0.2658(5) 0.4619(8) 0.64577(19)
C9 C 0.2101(5) 0.4608(9) 0.6671(2)
H7 H 0.1790 0.3919 0.6672
C10 C 0.1984(5) 0.5617(8) 0.6890(2)
H8 H 0.1590 0.5586 0.7035
C11 C 0.2711(5) 0.0502(9) 0.6957(2)
H9 H 0.2974 0.0574 0.7157
C12 C 0.2748(5) 0.1450(8) 0.6735(2)
H10 H 0.3044 0.2141 0.6778
C13 C 0.2343(4) 0.1408(7) 0.64398(18)
C14 C 0.1942(5) 0.0330(9) 0.6383(2)
H11 H 0.1661 0.0259 0.6188
C16 C 0.1612(5) 0.0178(9) 0.5213(2)
C17 C 0.2113(4) 0.0639(8) 0.5431(2)
H14 H 0.2519 0.0163 0.5481
C18 C 0.2020(4) 0.1796(7) 0.55762(19)
C19 C 0.1432(5) 0.2481(9) 0.5479(2)
H15 H 0.1354 0.3291 0.5564
C20 C 0.0953(5) 0.1942(8) 0.5249(2)
H16 H 0.0551 0.2407 0.5185
C21 C 0.2754(4) 0.3712(7) 0.58353(18)
H17 H 0.2336 0.4241 0.5784
C22 C 0.2826(4) 0.3577(7) 0.62180(17)
H18 H 0.3303 0.3242 0.6271
C23 C 0.2294(4) 0.2474(8) 0.61988(19)
H19 H 0.1806 0.2814 0.6203
C24 C 0.2526(4) 0.2288(7) 0.58285(18)
H20 H 0.2959 0.1762 0.5825
C25 C 0.4100(5) 0.6790(9) 0.4528(2)
H21 H 0.4117 0.7104 0.4749
C26 C 0.3625(4) 0.7314(9) 0.4303(2)
H22 H 0.3338 0.7992 0.4370
C27 C 0.3572(4) 0.6845(7) 0.39847(18)
C28 C 0.4046(5) 0.5914(9) 0.3899(2)
H23 H 0.4058 0.5598 0.3678
C29 C 0.4494(5) 0.5456(10) 0.4137(2)
H24 H 0.4799 0.4797 0.4075
C30 C 0.2585(5) 0.4410(8) 0.2944(2)
H25 H 0.2273 0.3745 0.2991
C31 C 0.2651(5) 0.5408(8) 0.31772(19)
H26 H 0.2370 0.5408 0.3373
C32 C 0.3110(4) 0.6357(7) 0.31241(18)
C33 C 0.3508(5) 0.6310(8) 0.28281(19)
H27 H 0.3847 0.6934 0.2783
C34 C 0.3405(5) 0.5366(9) 0.2606(2)
H28 H 0.3660 0.5385 0.2403
C37 C 0.2623(4) 0.9531(8) 0.3121(2)
C38 C 0.2103(5) 0.9715(9) 0.2885(2)
H31 H 0.1713 0.9168 0.2875
C42 C 0.2152(4) 0.8990(8) 0.3978(2)
C43 C 0.1624(5) 0.8161(8) 0.4065(2)
H35 H 0.1614 0.7359 0.3966
C44 C 0.1118(5) 0.8489(9) 0.4291(2)
H36 H 0.0771 0.7890 0.4347
C45 C 0.3015(4) 0.7262(7) 0.37409(18)
H37 H 0.2601 0.6695 0.3762
C46 C 0.3176(4) 0.7448(7) 0.33606(17)
H38 H 0.3646 0.7848 0.3333
C47 C 0.2580(4) 0.8480(8) 0.33640(18)
H39 H 0.2113 0.8065 0.3339
C48 C 0.2739(4) 0.8655(7) 0.37464(18)
H40 H 0.3141 0.9241 0.3777
O3 O 0.1595(3) 0.3236(5) 0.23515(15)
O4 O 0.3869(3) 0.2787(5) 0.22350(14)
Zn4 Zn 0.02598(4) 0.99952(9) 0.47938(3)
Zn7 Zn 0.22602(5) 0.80060(8) 0.72853(2)
N9 N 0.6040(3) 0.4182(6) 0.51193(15)
N10 N 0.2679(4) 0.4446(7) 0.19112(16)
N11 N 0.2593(4) 0.1622(7) 0.19013(17)
N13 N 0.6085(3) 0.5420(6) 0.44331(16)
H41 H 0.548576 0.671882 0.527634
H42 H 0.58445 0.724034 0.493299
H43 H 0.459177 0.316115 0.446014
H44 H 0.543631 0.298905 0.43977
H45 H 0.146028 0.41159 0.230006
H46 H 0.134017 0.265955 0.21969
H47 H 0.407341 0.252244 0.245401
H48 H 0.397202 0.213952 0.206219
N3 N 0.2321(4) 0.9446(7) 0.69112(16)
C15 C 0.1964(5) 0.9343(9) 0.6621(2)
H12 H 0.1720 0.8593 0.6574
H13 H 0.1677 0.9368 0.5125
N3_2 N 0.7679(4) 0.0554(7) 0.19112(16)
C15_2 C 0.8036(5) 0.0657(9) 0.1621(2)
H12_2 H 0.8280 0.1407 0.1574
H13_2 H 0.8323 0.0632 0.0125
Zn6 Zn 0.77398(5) 0.19940(8) 0.22853(2)
Zn3 Zn 0.97402(4) 0.00048(9) 0.97938(3)
O1_2 O 0.4582(4) 0.3168(6) 0.00305(16)
N1_2 N 0.5572(3) 0.5383(7) 0.01478(16)
N2_2 N 0.8960(3) 0.9182(6) 0.01193(15)
N4_2 N 0.7593(4) 0.3378(7) 0.19013(17)
C1_2 C 0.5446(5) 0.5374(10) 0.0488(2)
H1_2 H 0.4990 0.5176 0.0567
C2_2 C 0.5981(5) 0.5654(8) 0.0718(2)
H2_2 H 0.5883 0.5651 0.0950
C3_2 C 0.6652(4) 0.5935(7) 0.06040(18)
C4_2 C 0.6757(5) 0.5916(8) 0.0259(2)
H3_2 H 0.7212 0.6079 0.0174
C5_2 C 0.6221(5) 0.5671(9) 0.00411(19)
C6_2 C 0.7059(6) 0.3350(9) 0.1684(2)
H5_2 H 0.6760 0.2644 0.1686
C7_2 C 0.6920(5) 0.4255(8) 0.1464(2)
H6_2 H 0.6543 0.4160 0.1311
C8_2 C 0.7342(5) 0.5381(8) 0.14577(19)
C9_2 C 0.7899(5) 0.5392(9) 0.1671(2)
H7_2 H 0.8210 0.6081 0.1672
C10_2 C 0.8016(5) 0.4383(8) 0.1890(2)
H8_2 H 0.8410 0.4414 0.2035
C11_2 C 0.7289(5) 0.9498(9) 0.1957(2)
H9_2 H 0.7026 0.9426 0.2157
C12_2 C 0.7252(5) 0.8550(8) 0.1735(2)
H10_2 H 0.6956 0.7859 0.1778
C13_2 C 0.7657(4) 0.8592(7) 0.14398(18)
C14_2 C 0.8058(5) 0.9670(9) 0.1383(2)
H11_2 H 0.8339 0.9741 0.1188
C16_2 C 0.8388(5) 0.9822(9) 0.0213(2)
C17_2 C 0.7887(4) 0.9361(8) 0.0431(2)
H14_2 H 0.7481 0.9837 0.0481
C18_2 C 0.7980(4) 0.8204(7) 0.05762(19)
C19_2 C 0.8568(5) 0.7519(9) 0.0479(2)
H15_2 H 0.8646 0.6709 0.0564
C20_2 C 0.9047(5) 0.8058(8) 0.0249(2)
H16_2 H 0.9449 0.7593 0.0185
C21_2 C 0.7246(4) 0.6288(7) 0.08353(18)
H17_2 H 0.7664 0.5759 0.0784
C22_2 C 0.7174(4) 0.6423(7) 0.12180(17)
H18_2 H 0.6697 0.6758 0.1271
C23_2 C 0.7706(4) 0.7526(8) 0.11988(19)
H19_2 H 0.8194 0.7186 0.1203
C24_2 C 0.7474(4) 0.7712(7) 0.08285(18)
H20_2 H 0.7041 0.8238 0.0825
N9_2 N 0.3960(3) 0.5818(6) 0.01193(15)
H41_2 H 0.451424 0.328118 0.0276338
Zn1_2 Zn 0.47402(4) 0.49952(9) 0.97938(3)
Zn2 Zn 0.72602(5) 0.69940(8) 0.72853(2)
O2_2 O 0.4934(3) 0.6834(5) 0.95689(15)
N5_2 N 0.5469(4) 0.4133(6) 0.94450(16)
N6_2 N 0.7045(4) 0.5603(6) 0.76598(15)
N8_2 N 0.8915(3) 0.0420(6) 0.94331(16)
H4_2 H 0.6310 0.5705 0.9809
C25_2 C 0.5900(5) 0.3210(9) 0.9528(2)
H21_2 H 0.5883 0.2896 0.9749
C26_2 C 0.6375(4) 0.2686(9) 0.9303(2)
H22_2 H 0.6662 0.2008 0.9370
C27_2 C 0.6428(4) 0.3155(7) 0.89847(18)
C28_2 C 0.5954(5) 0.4086(9) 0.8899(2)
H23_2 H 0.5942 0.4402 0.8678
C29_2 C 0.5506(5) 0.4544(10) 0.9137(2)
H24_2 H 0.5201 0.5203 0.9075
C30_2 C 0.7415(5) 0.5590(8) 0.7944(2)
H25_2 H 0.7727 0.6255 0.7991
C31_2 C 0.7349(5) 0.4592(8) 0.81772(19)
H26_2 H 0.7630 0.4592 0.8373
C32_2 C 0.6890(4) 0.3643(7) 0.81241(18)
C33_2 C 0.6492(5) 0.3690(8) 0.78281(19)
H27_2 H 0.6153 0.3066 0.7783
C34_2 C 0.6595(5) 0.4634(9) 0.7606(2)
H28_2 H 0.6340 0.4615 0.7403
C37_2 C 0.7377(4) 0.0469(8) 0.8121(2)
C38_2 C 0.7897(5) 0.0285(9) 0.7885(2)
H31_2 H 0.8287 0.0832 0.7875
C42_2 C 0.7848(4) 0.1010(8) 0.8978(2)
C43_2 C 0.8376(5) 0.1839(8) 0.9065(2)
H35_2 H 0.8386 0.2641 0.8966
C44_2 C 0.8882(5) 0.1511(9) 0.9291(2)
H36_2 H 0.9229 0.2110 0.9347
C45_2 C 0.6985(4) 0.2738(7) 0.87409(18)
H37_2 H 0.7399 0.3305 0.8762
C46_2 C 0.6824(4) 0.2552(7) 0.83606(17)
H38_2 H 0.6354 0.2152 0.8333
C47_2 C 0.7420(4) 0.1520(8) 0.83640(18)
H39_2 H 0.7887 0.1935 0.8339
C48_2 C 0.7261(4) 0.1345(7) 0.87464(18)
H40_2 H 0.6859 0.0759 0.8777
O3_2 O 0.8405(3) 0.6764(5) 0.73515(15)
O4_2 O 0.6131(3) 0.7213(5) 0.72350(14)
N10_2 N 0.7321(4) 0.5554(7) 0.69112(16)
N11_2 N 0.7407(4) 0.8378(7) 0.69013(17)
N12 N 0.7303(4) 0.8469(6) 0.76588(16)
N13_2 N 0.3915(3) 0.4580(6) 0.94331(16)
H42_2 H 0.41555 0.275966 0.993299
H43_2 H 0.540823 0.683885 0.946014
H44_2 H 0.456369 0.701095 0.93977
H45_2 H 0.853972 0.58841 0.730006
H46_2 H 0.865983 0.734045 0.71969
H47_2 H 0.592659 0.747756 0.745401
H48_2 H 0.602798 0.786048 0.706219
C35_2 C 0.6786(5) 0.8665(7) 0.78846(19)
H29_2 H 0.6390 0.8129 0.7881
C36_2 C 0.6803(5) 0.9591(9) 0.8117(2)
H30_2 H 0.6436 0.9658 0.8276
C39_2 C 0.7843(5) 0.9267(8) 0.7657(2)
H32_2 H 0.8206 0.9152 0.7498
C40_2 C 0.8419(5) 0.9554(9) 0.9353(2)
H33_2 H 0.8435 0.8759 0.9455
C41_2 C 0.7882(5) 0.9821(8) 0.9121(2)
H34_2 H 0.7548 0.9204 0.9063
O2_3 O 0.0066(3) 0.1834(5) 0.45689(15)
H1_3 H 0.0010 0.0176 0.5567
H44_3 H 0.0436307 0.201095 0.43977
O1_3 O 0.0418(4) 0.8168(6) 0.50305(16)
H41_3 H 0.0485763 0.828118 0.527634
H42_3 H 0.0844504 0.775966 0.493299
N1_3 N 0.9428(3) 0.0383(7) 0.51478(16)
N6_3 N 0.7955(4) 0.0603(6) 0.26598(15)
C1_3 C 0.9554(5) 0.0374(10) 0.5488(2)
C2_3 C 0.9019(5) 0.0654(8) 0.5718(2)
H2_3 H 0.9117 0.0651 0.5950
C3_3 C 0.8348(4) 0.0935(7) 0.56040(18)
C4_3 C 0.8243(5) 0.0916(8) 0.5259(2)
H3_3 H 0.7788 0.1079 0.5174
C5_3 C 0.8779(5) 0.0671(9) 0.50411(19)
H4_3 H 0.8690 0.0705 0.4809
C8_3 C 0.7658(5) 0.0381(8) 0.64577(19)
C9_3 C 0.7101(5) 0.0392(9) 0.6671(2)
H7_3 H 0.6790 0.1081 0.6672
C11_3 C 0.7711(5) 0.4498(9) 0.6957(2)
H9_3 H 0.7974 0.4426 0.7157
C12_3 C 0.7748(5) 0.3550(8) 0.6735(2)
H10_3 H 0.8044 0.2859 0.6778
C13_3 C 0.7343(4) 0.3592(7) 0.64398(18)
C14_3 C 0.6942(5) 0.4670(9) 0.6383(2)
H11_3 H 0.6661 0.4741 0.6188
C15_3 C 0.6964(5) 0.5657(9) 0.6621(2)
H12_3 H 0.6720 0.6407 0.6574
C16_3 C 0.6612(5) 0.4822(9) 0.5213(2)
H13_3 H 0.6677 0.5632 0.5125
C17_3 C 0.7113(4) 0.4361(8) 0.5431(2)
H14_3 H 0.7519 0.4837 0.5481
C18_3 C 0.7020(4) 0.3204(7) 0.55762(19)
C19_3 C 0.6432(5) 0.2519(9) 0.5479(2)
H15_3 H 0.6354 0.1709 0.5564
C20_3 C 0.5953(5) 0.3058(8) 0.5249(2)
H16_3 H 0.5551 0.2593 0.5185
C21_3 C 0.7754(4) 0.1288(7) 0.58353(18)
H17_3 H 0.7336 0.0759 0.5784
C22_3 C 0.7826(4) 0.1423(7) 0.62180(17)
H18_3 H 0.8303 0.1758 0.6271
C23_3 C 0.7294(4) 0.2526(8) 0.61988(19)
H19_3 H 0.6806 0.2186 0.6203
C24_3 C 0.7526(4) 0.2712(7) 0.58285(18)
H20_3 H 0.7959 0.3238 0.5825
H24_3 H 0.9799 0.0203 0.4075
C30_3 C 0.7585(5) 0.0590(8) 0.2944(2)
H25_3 H 0.7273 0.1255 0.2991
O3_3 O 0.6595(3) 0.1764(5) 0.23515(15)
O4_3 O 0.8869(3) 0.2213(5) 0.22350(14)
N12_2 N 0.7697(4) 0.3469(6) 0.26588(16)
H43_3 H 0.959177 0.183885 0.446014
H45_3 H 0.646028 0.0884101 0.230006
H46_3 H 0.634017 0.234045 0.21969
H47_3 H 0.907341 0.247756 0.245401
H48_3 H 0.897202 0.286048 0.206219
N5_3 N 0.9531(4) 0.9133(6) 0.44450(16)
C6_3 C 0.7941(6) 0.8350(9) 0.6684(2)
H5_3 H 0.8240 0.7644 0.6686
C7_3 C 0.8080(5) 0.9255(8) 0.6464(2)
H6_3 H 0.8457 0.9160 0.6311
C10_3 C 0.6984(5) 0.9383(8) 0.6890(2)
H8_3 H 0.6590 0.9414 0.7035
C25_3 C 0.9100(5) 0.8210(9) 0.4528(2)
H21_3 H 0.9117 0.7896 0.4749
C26_3 C 0.8625(4) 0.7686(9) 0.4303(2)
H22_3 H 0.8338 0.7008 0.4370
C27_3 C 0.8572(4) 0.8155(7) 0.39847(18)
C28_3 C 0.9046(5) 0.9086(9) 0.3899(2)
H23_3 H 0.9058 0.9402 0.3678
C29_3 C 0.9494(5) 0.9544(10) 0.4137(2)
C31_3 C 0.7651(5) 0.9592(8) 0.31772(19)
H26_3 H 0.7370 0.9592 0.3373
C32_3 C 0.8110(4) 0.8643(7) 0.31241(18)
C33_3 C 0.8508(5) 0.8690(8) 0.28281(19)
H27_3 H 0.8847 0.8066 0.2783
C34_3 C 0.8405(5) 0.9634(9) 0.2606(2)
H28_3 H 0.8660 0.9615 0.2403
C35_3 C 0.8214(5) 0.3665(7) 0.28846(19)
H29_3 H 0.8610 0.3129 0.2881
C36_3 C 0.8197(5) 0.4591(9) 0.3117(2)
H30_3 H 0.8564 0.4658 0.3276
C37_3 C 0.7623(4) 0.5469(8) 0.3121(2)
C38_3 C 0.7103(5) 0.5285(9) 0.2885(2)
H31_3 H 0.6713 0.5832 0.2875
C39_3 C 0.7157(5) 0.4267(8) 0.2657(2)
H32_3 H 0.6794 0.4152 0.2498
C40_3 C 0.6581(5) 0.4554(9) 0.4353(2)
H33_3 H 0.6565 0.3759 0.4455
C41_3 C 0.7118(5) 0.4821(8) 0.4121(2)
H34_3 H 0.7452 0.4204 0.4063
C42_3 C 0.7152(4) 0.6010(8) 0.3978(2)
C43_3 C 0.6624(5) 0.6839(8) 0.4065(2)
H35_3 H 0.6614 0.7641 0.3966
C44_3 C 0.6118(5) 0.6511(9) 0.4291(2)
H36_3 H 0.5771 0.7110 0.4347
C45_3 C 0.8015(4) 0.7738(7) 0.37409(18)
H37_3 H 0.7601 0.8305 0.3762
C46_3 C 0.8176(4) 0.7552(7) 0.33606(17)
H38_3 H 0.8646 0.7152 0.3333
C47_3 C 0.7580(4) 0.6520(8) 0.33640(18)
H39_3 H 0.7113 0.6935 0.3339
C48_3 C 0.7739(4) 0.6345(7) 0.37464(18)
H40_3 H 0.8141 0.5759 0.3777
C6_4 C 0.2059(6) 0.1650(9) 0.1684(2)
H5_4 H 0.1760 0.2356 0.1686
C7_4 C 0.1920(5) 0.0745(8) 0.1464(2)
H6_4 H 0.1543 0.0840 0.1311
C10_4 C 0.3016(5) 0.0617(8) 0.1890(2)
H8_4 H 0.3410 0.0586 0.2035
N5_4 N 0.0469(4) 0.0867(6) 0.94450(16)
N7_2 N 0.2303(4) 0.6531(6) 0.76588(16)
C25_4 C 0.0900(5) 0.1790(9) 0.9528(2)
H21_4 H 0.0883 0.2104 0.9749
C26_4 C 0.1375(4) 0.2314(9) 0.9303(2)
H22_4 H 0.1662 0.2992 0.9370
C27_4 C 0.1428(4) 0.1845(7) 0.89847(18)
C28_4 C 0.0954(5) 0.0914(9) 0.8899(2)
H23_4 H 0.0942 0.0598 0.8678
C29_4 C 0.0506(5) 0.0456(10) 0.9137(2)
C31_4 C 0.2349(5) 0.0408(8) 0.81772(19)
H26_4 H 0.2630 0.0408 0.8373
C32_4 C 0.1890(4) 0.1357(7) 0.81241(18)
C33_4 C 0.1492(5) 0.1310(8) 0.78281(19)
H27_4 H 0.1153 0.1934 0.7783
C34_4 C 0.1595(5) 0.0366(9) 0.7606(2)
H28_4 H 0.1340 0.0385 0.7403
C35_4 C 0.1786(5) 0.6335(7) 0.78846(19)
H29_4 H 0.1390 0.6871 0.7881
C36_4 C 0.1803(5) 0.5409(9) 0.8117(2)
H30_4 H 0.1436 0.5342 0.8276
C37_4 C 0.2377(4) 0.4531(8) 0.8121(2)
C38_4 C 0.2897(5) 0.4715(9) 0.7885(2)
H31_4 H 0.3287 0.4168 0.7875
C39_4 C 0.2843(5) 0.5733(8) 0.7657(2)
H32_4 H 0.3206 0.5848 0.7498
C40_4 C 0.3419(5) 0.5446(9) 0.9353(2)
H33_4 H 0.3435 0.6241 0.9455
C41_4 C 0.2882(5) 0.5179(8) 0.9121(2)
H34_4 H 0.2548 0.5796 0.9063
C42_4 C 0.2848(4) 0.3990(8) 0.8978(2)
C43_4 C 0.3376(5) 0.3161(8) 0.9065(2)
H35_4 H 0.3386 0.2359 0.8966
C44_4 C 0.3882(5) 0.3489(9) 0.9291(2)
H36_4 H 0.4229 0.2890 0.9347
C45_4 C 0.1985(4) 0.2262(7) 0.87409(18)
H37_4 H 0.2399 0.1695 0.8762
C46_4 C 0.1824(4) 0.2448(7) 0.83606(17)
H38_4 H 0.1354 0.2848 0.8333
C47_4 C 0.2420(4) 0.3480(8) 0.83640(18)
H39_4 H 0.2887 0.3065 0.8339
C48_4 C 0.2261(4) 0.3655(7) 0.87464(18)
H40_4 H 0.1859 0.4241 0.8777
N1_4 N 0.0572(3) 0.9617(7) 0.01478(16)
C1_4 C 0.0446(5) 0.9626(10) 0.0488(2)
C2_4 C 0.0981(5) 0.9346(8) 0.0718(2)
H2_4 H 0.0883 0.9349 0.0950
C3_4 C 0.1652(4) 0.9065(7) 0.06040(18)
C4_4 C 0.1757(5) 0.9084(8) 0.0259(2)
H3_4 H 0.2212 0.8921 0.0174
C5_4 C 0.1221(5) 0.9329(9) 0.00411(19)
C8_4 C 0.2342(5) 0.9619(8) 0.14577(19)
C9_4 C 0.2899(5) 0.9608(9) 0.1671(2)
H7_4 H 0.3210 0.8919 0.1672
C11_4 C 0.2289(5) 0.5502(9) 0.1957(2)
H9_4 H 0.2026 0.5574 0.2157
C12_4 C 0.2252(5) 0.6450(8) 0.1735(2)
H10_4 H 0.1956 0.7141 0.1778
C13_4 C 0.2657(4) 0.6408(7) 0.14398(18)
C14_4 C 0.3058(5) 0.5330(9) 0.1383(2)
H11_4 H 0.3339 0.5259 0.1188
C15_4 C 0.3036(5) 0.4343(9) 0.1621(2)
H12_4 H 0.3280 0.3593 0.1574
C16_4 C 0.3388(5) 0.5178(9) 0.0213(2)
H13_4 H 0.3323 0.4368 0.0125
C17_4 C 0.2887(4) 0.5639(8) 0.0431(2)
H14_4 H 0.2481 0.5163 0.0481
C18_4 C 0.2980(4) 0.6796(7) 0.05762(19)
C19_4 C 0.3568(5) 0.7481(9) 0.0479(2)
H15_4 H 0.3646 0.8291 0.0564
C20_4 C 0.4047(5) 0.6942(8) 0.0249(2)
H16_4 H 0.4449 0.7407 0.0185
C21_4 C 0.2246(4) 0.8712(7) 0.08353(18)
H17_4 H 0.2664 0.9241 0.0784
C22_4 C 0.2174(4) 0.8577(7) 0.12180(17)
H18_4 H 0.1697 0.8242 0.1271
C23_4 C 0.2706(4) 0.7474(8) 0.11988(19)
H19_4 H 0.3194 0.7814 0.1203
C24_4 C 0.2474(4) 0.7288(7) 0.08285(18)
H20_4 H 0.2041 0.6762 0.0825
N6_4 N 0.2045(4) 0.9397(6) 0.76598(15)
H4_4 H 0.1310 0.9295 0.9809
H24_4 H 0.0201 0.9797 0.9075
C30_4 C 0.2415(5) 0.9410(8) 0.7944(2)
H25_4 H 0.2727 0.8745 0.7991
O3_4 O 0.3405(3) 0.8236(5) 0.73515(15)
O4_4 O 0.1131(3) 0.7787(5) 0.72350(14)
H43_4 H 0.0408232 0.816115 0.946014
H45_4 H 0.353972 0.91159 0.730006
H46_4 H 0.365983 0.765955 0.71969
H47_4 H 0.0926591 0.752244 0.745401
H48_4 H 0.102798 0.713952 0.706219
H42_4 H 0.91555 0.224034 0.993299
H1_4 H 0.9990 0.9824 0.0567
O1_4 O 0.9582(4) 0.1832(6) 0.00305(16)
H41_4 H 0.951424 0.171882 0.0276338
O2_4 O 0.9934(3) 0.8166(5) 0.95689(15)
H44_4 H 0.956369 0.798905 0.93977
Cl1 Cl 0.2085(2) 0.4358(4) 0.43999(10)
O5 O 0.2707(10) 0.364(2) 0.4393(6)
O6 O 0.1952(12) 0.4612(19) 0.4055(4)
O7 O 0.1470(9) 0.3780(18) 0.4516(7)
O8 O 0.2291(11) 0.5596(15) 0.4540(6)
Cl1_2 Cl 0.7915(2) 0.5642(4) 0.93999(10)
O5_2 O 0.7293(10) 0.636(2) 0.9393(6)
O6_2 O 0.8048(12) 0.5388(19) 0.9055(4)
O7_2 O 0.8530(9) 0.6220(18) 0.9516(7)
O8_2 O 0.7709(11) 0.4404(15) 0.9540(6)
Cl1_3 Cl 0.7085(2) 0.0642(4) 0.43999(10)
O5_3 O 0.7707(10) 0.136(2) 0.4393(6)
O6_3 O 0.6952(12) 0.0388(19) 0.4055(4)
O7_3 O 0.6470(9) 0.1220(18) 0.4516(7)
O8_3 O 0.7291(11) 0.9404(15) 0.4540(6)
O8_4 O 0.2709(11) 0.0596(15) 0.9540(6)
Cl1_4 Cl 0.2915(2) 0.9358(4) 0.93999(10)
O5_4 O 0.2293(10) 0.864(2) 0.9393(6)
O6_4 O 0.3048(12) 0.9612(19) 0.9055(4)
O7_4 O 0.3530(9) 0.8780(18) 0.9516(7)
Cl2 Cl 0.6248(4) 0.8108(6) 0.58231(16)
O9 O 0.686(2) 0.727(4) 0.5893(12)
O10 O 0.6316(15) 0.8969(17) 0.5572(5)
O11 O 0.5852(17) 0.705(3) 0.5714(8)
O12 O 0.5955(13) 0.857(2) 0.6117(4)
Cl2_2 Cl 0.3752(4) 0.1892(6) 0.08231(16)
O9_2 O 0.314(2) 0.273(4) 0.0893(12)
O10_2 O 0.3684(15) 0.1031(17) 0.0572(5)
O11_2 O 0.4148(17) 0.295(3) 0.0714(8)
O12_2 O 0.4045(13) 0.143(2) 0.1117(4)
Cl2_3 Cl 0.1248(4) 0.6892(6) 0.58231(16)
O9_3 O 0.186(2) 0.773(4) 0.5893(12)
O10_3 O 0.1316(15) 0.6031(17) 0.5572(5)
O11_3 O 0.0852(17) 0.795(3) 0.5714(8)
O12_3 O 0.0955(13) 0.643(2) 0.6117(4)
Cl2_4 Cl 0.8752(4) 0.3108(6) 0.08231(16)
O9_4 O 0.814(2) 0.227(4) 0.0893(12)
O10_4 O 0.8684(15) 0.3969(17) 0.0572(5)
O11_4 O 0.9148(17) 0.205(3) 0.0714(8)
O12_4 O 0.9045(13) 0.357(2) 0.1117(4)
Cl3 Cl 0.4896(4) 0.6457(8) 0.1611(2)
O13 O 0.5594(7) 0.681(2) 0.1687(5)
O14 O 0.4501(12) 0.636(3) 0.1901(5)
O15 O 0.4893(14) 0.538(2) 0.1405(6)
O16 O 0.4633(14) 0.748(2) 0.1397(7)
Cl3_2 Cl 0.5104(4) 0.3543(8) 0.6611(2)
O13_2 O 0.4406(7) 0.319(2) 0.6687(5)
O14_2 O 0.5499(12) 0.364(3) 0.6901(5)
O15_2 O 0.5107(14) 0.462(2) 0.6405(6)
O16_2 O 0.5367(14) 0.252(2) 0.6397(7)
O13_3 O 0.0594(7) 0.819(2) 0.1687(5)
Cl3_3 Cl 0.9896(4) 0.8543(8) 0.1611(2)
O14_3 O 0.9501(12) 0.864(3) 0.1901(5)
O15_3 O 0.9893(14) 0.962(2) 0.1405(6)
O16_3 O 0.9633(14) 0.752(2) 0.1397(7)
Cl3_4 Cl 0.0104(4) 0.1457(8) 0.6611(2)
O14_4 O 0.0499(12) 0.136(3) 0.6901(5)
O15_4 O 0.0107(14) 0.038(2) 0.6405(6)
O16_4 O 0.0367(14) 0.248(2) 0.6397(7)
O13_4 O 0.9406(7) 0.181(2) 0.6687(5)
Cl4 Cl 0.0429(3) 0.6628(5) 0.3208(2)
O18 O 0.0055(14) 0.684(2) 0.3546(5)
O19 O 0.1056(9) 0.617(2) 0.3324(7)
O20 O 0.0410(16) 0.7758(18) 0.3055(7)
O17 O 0.9984(11) 0.5750(19) 0.3060(6)
O17_2 O 0.0016(11) 0.4250(19) 0.8060(6)
Cl4_2 Cl 0.9571(3) 0.3372(5) 0.8208(2)
O18_2 O 0.9945(14) 0.316(2) 0.8546(5)
O19_2 O 0.8944(9) 0.383(2) 0.8324(7)
O20_2 O 0.9590(16) 0.2242(18) 0.8055(7)
Cl4_3 Cl 0.5429(3) 0.8372(5) 0.3208(2)
O17_3 O 0.4984(11) 0.9250(19) 0.3060(6)
O18_3 O 0.5055(14) 0.816(2) 0.3546(5)
O19_3 O 0.6056(9) 0.883(2) 0.3324(7)
O20_3 O 0.5410(16) 0.7242(18) 0.3055(7)
Cl4_4 Cl 0.4571(3) 0.1628(5) 0.8208(2)
O17_4 O 0.5016(11) 0.0750(19) 0.8060(6)
O18_4 O 0.4945(14) 0.184(2) 0.8546(5)
O19_4 O 0.3944(9) 0.117(2) 0.8324(7)
O20_4 O 0.4590(16) 0.2758(18) 0.8055(7)
loop_
_geom_bond_atom_site_label_1
_geom_bond_atom_site_label_2
_geom_bond_site_symmetry_1
_geom_bond_site_symmetry_2
N7 C35 1_555 1_555
C35 H29 1_555 1_555
C36 C35 1_555 1_555
H30 C36 1_555 1_555
C39 N7 1_555 1_555
H32 C39 1_555 1_555
C40 H33 1_555 1_555
C41 C40 1_555 1_555
H34 C41 1_555 1_555
Zn5 N7 1_555 1_555
Zn1 O1 1_555 1_555
Zn5 N6 1_555 1_555
O2 Zn1 1_555 1_555
N1 Zn1 1_555 1_555
N2 C16 1_555 1_555
N4 C6 1_555 1_555
N5 Zn1 1_555 1_555
N6 C30 1_555 1_555
C1 N1 1_555 1_555
H1 C1 1_555 1_555
C2 C1 1_555 1_555
H2 C2 1_555 1_555
C3 C2 1_555 1_555
C4 C3 1_555 1_555
H3 C4 1_555 1_555
C5 N1 1_555 1_555
H4 C5 1_555 1_555
C6 H5 1_555 1_555
C7 C6 1_555 1_555
H6 C7 1_555 1_555
C8 C7 1_555 1_555
C9 C8 1_555 1_555
H7 C9 1_555 1_555
C10 N4 1_555 1_555
H8 C10 1_555 1_555
C11 H9 1_555 1_555
C12 C11 1_555 1_555
H10 C12 1_555 1_555
C13 C12 1_555 1_555
C14 C13 1_555 1_555
H11 C14 1_555 1_555
C17 C16 1_555 1_555
H14 C17 1_555 1_555
C18 C17 1_555 1_555
C19 C18 1_555 1_555
H15 C19 1_555 1_555
C20 N2 1_555 1_555
H16 C20 1_555 1_555
C21 C3 1_555 1_555
H17 C21 1_555 1_555
C22 C8 1_555 1_555
H18 C22 1_555 1_555
C23 C13 1_555 1_555
H19 C23 1_555 1_555
C24 C18 1_555 1_555
H20 C24 1_555 1_555
C25 N5 1_555 1_555
H21 C25 1_555 1_555
C26 C25 1_555 1_555
H22 C26 1_555 1_555
C27 C26 1_555 1_555
C28 C27 1_555 1_555
H23 C28 1_555 1_555
C29 N5 1_555 1_555
H24 C29 1_555 1_555
C30 H25 1_555 1_555
C31 C30 1_555 1_555
H26 C31 1_555 1_555
C32 C31 1_555 1_555
C33 C32 1_555 1_555
H27 C33 1_555 1_555
C34 N6 1_555 1_555
H28 C34 1_555 1_555
C38 C37 1_555 1_555
H31 C38 1_555 1_555
C43 C42 1_555 1_555
H35 C43 1_555 1_555
C44 N8 1_555 1_555
H36 C44 1_555 1_555
C45 C27 1_555 1_555
H37 C45 1_555 1_555
C46 C32 1_555 1_555
H38 C46 1_555 1_555
C47 C37 1_555 1_555
H39 C47 1_555 1_555
C48 C42 1_555 1_555
H40 C48 1_555 1_555
O3 Zn5 1_555 1_555
O4 Zn5 1_555 1_555
Zn4 N8 1_555 1_555
Zn7 N4 1_555 1_555
N9 Zn1 1_555 1_555
N10 Zn5 1_555 1_555
N11 Zn5 1_555 1_555
N13 Zn1 1_555 1_555
C4 C5 1_555 1_555
C9 C10 1_555 1_555
C19 C20 1_555 1_555
C21 C22 1_555 1_555
C21 C24 1_555 1_555
C22 C23 1_555 1_555
C23 C24 1_555 1_555
C28 C29 1_555 1_555
C33 C34 1_555 1_555
C43 C44 1_555 1_555
C45 C46 1_555 1_555
C45 C48 1_555 1_555
C46 C47 1_555 1_555
C47 C48 1_555 1_555
O1 H41 1_555 1_555
O1 H42 1_555 1_555
O2 H43 1_555 1_555
O2 H44 1_555 1_555
O3 H45 1_555 1_555
O3 H46 1_555 1_555
O4 H47 1_555 1_555
O4 H48 1_555 1_555
C15 N3 1_555 1_555
H12 C15 1_555 1_555
Zn7 N3 1_555 1_555
C15_2 N3_2 1_555 1_555
H12_2 C15_2 1_555 1_555
Zn6 N3_2 1_555 1_555
N2_2 C16_2 1_555 1_555
N4_2 C6_2 1_555 1_555
C1_2 N1_2 1_555 1_555
H1_2 C1_2 1_555 1_555
C2_2 C1_2 1_555 1_555
H2_2 C2_2 1_555 1_555
C3_2 C2_2 1_555 1_555
C4_2 C3_2 1_555 1_555
H3_2 C4_2 1_555 1_555
C5_2 N1_2 1_555 1_555
C6_2 H5_2 1_555 1_555
C7_2 C6_2 1_555 1_555
H6_2 C7_2 1_555 1_555
C8_2 C7_2 1_555 1_555
C9_2 C8_2 1_555 1_555
H7_2 C9_2 1_555 1_555
C10_2 N4_2 1_555 1_555
H8_2 C10_2 1_555 1_555
C11_2 H9_2 1_555 1_555
C12_2 C11_2 1_555 1_555
H10_2 C12_2 1_555 1_555
C13_2 C12_2 1_555 1_555
C14_2 C13_2 1_555 1_555
H11_2 C14_2 1_555 1_555
C17_2 C16_2 1_555 1_555
H14_2 C17_2 1_555 1_555
C18_2 C17_2 1_555 1_555
C19_2 C18_2 1_555 1_555
H15_2 C19_2 1_555 1_555
C20_2 N2_2 1_555 1_555
H16_2 C20_2 1_555 1_555
C21_2 C3_2 1_555 1_555
H17_2 C21_2 1_555 1_555
C22_2 C8_2 1_555 1_555
H18_2 C22_2 1_555 1_555
C23_2 C13_2 1_555 1_555
H19_2 C23_2 1_555 1_555
C24_2 C18_2 1_555 1_555
H20_2 C24_2 1_555 1_555
Zn6 N4_2 1_555 1_555
C4_2 C5_2 1_555 1_555
C9_2 C10_2 1_555 1_555
C19_2 C20_2 1_555 1_555
C21_2 C22_2 1_555 1_555
C21_2 C24_2 1_555 1_555
C22_2 C23_2 1_555 1_555
C23_2 C24_2 1_555 1_555
O1_2 H41_2 1_555 1_555
Zn2 N6_2 1_555 1_555
O2_2 Zn1_2 1_555 1_555
N5_2 Zn1_2 1_555 1_555
N6_2 C30_2 1_555 1_555
C25_2 N5_2 1_555 1_555
H21_2 C25_2 1_555 1_555
C26_2 C25_2 1_555 1_555
H22_2 C26_2 1_555 1_555
C27_2 C26_2 1_555 1_555
C28_2 C27_2 1_555 1_555
H23_2 C28_2 1_555 1_555
C29_2 N5_2 1_555 1_555
H24_2 C29_2 1_555 1_555
C30_2 H25_2 1_555 1_555
C31_2 C30_2 1_555 1_555
H26_2 C31_2 1_555 1_555
C32_2 C31_2 1_555 1_555
C33_2 C32_2 1_555 1_555
H27_2 C33_2 1_555 1_555
C34_2 N6_2 1_555 1_555
H28_2 C34_2 1_555 1_555
C38_2 C37_2 1_555 1_555
H31_2 C38_2 1_555 1_555
C43_2 C42_2 1_555 1_555
H35_2 C43_2 1_555 1_555
C44_2 N8_2 1_555 1_555
H36_2 C44_2 1_555 1_555
C45_2 C27_2 1_555 1_555
H37_2 C45_2 1_555 1_555
C46_2 C32_2 1_555 1_555
H38_2 C46_2 1_555 1_555
C47_2 C37_2 1_555 1_555
H39_2 C47_2 1_555 1_555
C48_2 C42_2 1_555 1_555
H40_2 C48_2 1_555 1_555
O3_2 Zn2 1_555 1_555
O4_2 Zn2 1_555 1_555
Zn3 N8_2 1_555 1_555
N10_2 Zn2 1_555 1_555
N11_2 Zn2 1_555 1_555
N12 Zn2 1_555 1_555
N13_2 Zn1_2 1_555 1_555
C28_2 C29_2 1_555 1_555
C33_2 C34_2 1_555 1_555
C43_2 C44_2 1_555 1_555
C45_2 C46_2 1_555 1_555
C45_2 C48_2 1_555 1_555
C46_2 C47_2 1_555 1_555
C47_2 C48_2 1_555 1_555
O2_2 H43_2 1_555 1_555
O2_2 H44_2 1_555 1_555
O3_2 H45_2 1_555 1_555
O3_2 H46_2 1_555 1_555
O4_2 H47_2 1_555 1_555
O4_2 H48_2 1_555 1_555
N12 C35_2 1_555 1_555
C35_2 H29_2 1_555 1_555
C36_2 C35_2 1_555 1_555
H30_2 C36_2 1_555 1_555
C39_2 N12 1_555 1_555
H32_2 C39_2 1_555 1_555
C40_2 H33_2 1_555 1_555
C41_2 C40_2 1_555 1_555
H34_2 C41_2 1_555 1_555
O2_3 H44_3 1_555 1_555
Zn4 O1_3 1_555 1_555
O1_3 H41_3 1_555 1_555
O1_3 H42_3 1_555 1_555
Zn6 N6_3 1_555 1_555
N9 C16_3 1_555 1_555
N10_2 C11_3 1_555 1_555
N6_3 C30_3 1_555 1_555
C1_3 N1_3 1_555 1_555
C2_3 C1_3 1_555 1_555
H2_3 C2_3 1_555 1_555
C3_3 C2_3 1_555 1_555
C4_3 C3_3 1_555 1_555
H3_3 C4_3 1_555 1_555
C5_3 N1_3 1_555 1_555
H4_3 C5_3 1_555 1_555
C9_3 C8_3 1_555 1_555
H7_3 C9_3 1_555 1_555
C11_3 H9_3 1_555 1_555
C12_3 C11_3 1_555 1_555
H10_3 C12_3 1_555 1_555
C13_3 C12_3 1_555 1_555
C14_3 C13_3 1_555 1_555
H11_3 C14_3 1_555 1_555
C15_3 N10_2 1_555 1_555
H12_3 C15_3 1_555 1_555
C16_3 H13_3 1_555 1_555
C17_3 C16_3 1_555 1_555
H14_3 C17_3 1_555 1_555
C18_3 C17_3 1_555 1_555
C19_3 C18_3 1_555 1_555
H15_3 C19_3 1_555 1_555
C20_3 N9 1_555 1_555
H16_3 C20_3 1_555 1_555
C21_3 C3_3 1_555 1_555
H17_3 C21_3 1_555 1_555
C22_3 C8_3 1_555 1_555
H18_3 C22_3 1_555 1_555
C23_3 C13_3 1_555 1_555
H19_3 C23_3 1_555 1_555
C24_3 C18_3 1_555 1_555
H20_3 C24_3 1_555 1_555
C30_3 H25_3 1_555 1_555
O3_3 Zn6 1_555 1_555
O4_3 Zn6 1_555 1_555
N12_2 Zn6 1_555 1_555
C4_3 C5_3 1_555 1_555
C14_3 C15_3 1_555 1_555
C19_3 C20_3 1_555 1_555
C21_3 C22_3 1_555 1_555
C21_3 C24_3 1_555 1_555
C22_3 C23_3 1_555 1_555
C23_3 C24_3 1_555 1_555
O3_3 H45_3 1_555 1_555
O3_3 H46_3 1_555 1_555
O4_3 H47_3 1_555 1_555
O4_3 H48_3 1_555 1_555
N11_2 C6_3 1_555 1_555
N12_2 C35_3 1_555 1_555
N13 C40_3 1_555 1_555
C6_3 H5_3 1_555 1_555
C7_3 C6_3 1_555 1_555
H6_3 C7_3 1_555 1_555
C10_3 N11_2 1_555 1_555
H8_3 C10_3 1_555 1_555
C25_3 N5_3 1_555 1_555
H21_3 C25_3 1_555 1_555
C26_3 C25_3 1_555 1_555
H22_3 C26_3 1_555 1_555
C27_3 C26_3 1_555 1_555
C28_3 C27_3 1_555 1_555
H23_3 C28_3 1_555 1_555
C29_3 N5_3 1_555 1_555
H26_3 C31_3 1_555 1_555
C32_3 C31_3 1_555 1_555
C33_3 C32_3 1_555 1_555
H27_3 C33_3 1_555 1_555
H28_3 C34_3 1_555 1_555
C35_3 H29_3 1_555 1_555
C36_3 C35_3 1_555 1_555
H30_3 C36_3 1_555 1_555
C37_3 C36_3 1_555 1_555
C38_3 C37_3 1_555 1_555
H31_3 C38_3 1_555 1_555
C39_3 N12_2 1_555 1_555
H32_3 C39_3 1_555 1_555
C40_3 H33_3 1_555 1_555
C41_3 C40_3 1_555 1_555
H34_3 C41_3 1_555 1_555
C42_3 C41_3 1_555 1_555
C43_3 C42_3 1_555 1_555
H35_3 C43_3 1_555 1_555
C44_3 N13 1_555 1_555
H36_3 C44_3 1_555 1_555
C45_3 C27_3 1_555 1_555
H37_3 C45_3 1_555 1_555
C46_3 C32_3 1_555 1_555
H38_3 C46_3 1_555 1_555
C47_3 C37_3 1_555 1_555
H39_3 C47_3 1_555 1_555
C48_3 C42_3 1_555 1_555
H40_3 C48_3 1_555 1_555
C28_3 C29_3 1_555 1_555
C33_3 C34_3 1_555 1_555
C38_3 C39_3 1_555 1_555
C43_3 C44_3 1_555 1_555
C45_3 C46_3 1_555 1_555
C45_3 C48_3 1_555 1_555
C46_3 C47_3 1_555 1_555
C47_3 C48_3 1_555 1_555
N11 C6_4 1_555 1_555
C6_4 H5_4 1_555 1_555
C7_4 C6_4 1_555 1_555
H6_4 C7_4 1_555 1_555
C10_4 N11 1_555 1_555
H8_4 C10_4 1_555 1_555
N7_2 C35_4 1_555 1_555
N13_2 C40_4 1_555 1_555
C25_4 N5_4 1_555 1_555
H21_4 C25_4 1_555 1_555
C26_4 C25_4 1_555 1_555
H22_4 C26_4 1_555 1_555
C27_4 C26_4 1_555 1_555
C28_4 C27_4 1_555 1_555
H23_4 C28_4 1_555 1_555
C29_4 N5_4 1_555 1_555
H26_4 C31_4 1_555 1_555
C32_4 C31_4 1_555 1_555
C33_4 C32_4 1_555 1_555
H27_4 C33_4 1_555 1_555
H28_4 C34_4 1_555 1_555
C35_4 H29_4 1_555 1_555
C36_4 C35_4 1_555 1_555
H30_4 C36_4 1_555 1_555
C37_4 C36_4 1_555 1_555
C38_4 C37_4 1_555 1_555
H31_4 C38_4 1_555 1_555
C39_4 N7_2 1_555 1_555
H32_4 C39_4 1_555 1_555
C40_4 H33_4 1_555 1_555
C41_4 C40_4 1_555 1_555
H34_4 C41_4 1_555 1_555
C42_4 C41_4 1_555 1_555
C43_4 C42_4 1_555 1_555
H35_4 C43_4 1_555 1_555
C44_4 N13_2 1_555 1_555
H36_4 C44_4 1_555 1_555
C45_4 C27_4 1_555 1_555
H37_4 C45_4 1_555 1_555
C46_4 C32_4 1_555 1_555
H38_4 C46_4 1_555 1_555
C47_4 C37_4 1_555 1_555
H39_4 C47_4 1_555 1_555
C48_4 C42_4 1_555 1_555
H40_4 C48_4 1_555 1_555
Zn7 N7_2 1_555 1_555
C28_4 C29_4 1_555 1_555
C33_4 C34_4 1_555 1_555
C38_4 C39_4 1_555 1_555
C43_4 C44_4 1_555 1_555
C45_4 C46_4 1_555 1_555
C45_4 C48_4 1_555 1_555
C46_4 C47_4 1_555 1_555
C47_4 C48_4 1_555 1_555
N9_2 C16_4 1_555 1_555
N10 C11_4 1_555 1_555
C1_4 N1_4 1_555 1_555
C2_4 C1_4 1_555 1_555
H2_4 C2_4 1_555 1_555
C3_4 C2_4 1_555 1_555
C4_4 C3_4 1_555 1_555
H3_4 C4_4 1_555 1_555
C5_4 N1_4 1_555 1_555
C9_4 C8_4 1_555 1_555
H7_4 C9_4 1_555 1_555
C11_4 H9_4 1_555 1_555
C12_4 C11_4 1_555 1_555
H10_4 C12_4 1_555 1_555
C13_4 C12_4 1_555 1_555
C14_4 C13_4 1_555 1_555
H11_4 C14_4 1_555 1_555
C15_4 N10 1_555 1_555
H12_4 C15_4 1_555 1_555
C16_4 H13_4 1_555 1_555
C17_4 C16_4 1_555 1_555
H14_4 C17_4 1_555 1_555
C18_4 C17_4 1_555 1_555
C19_4 C18_4 1_555 1_555
H15_4 C19_4 1_555 1_555
C20_4 N9_2 1_555 1_555
H16_4 C20_4 1_555 1_555
C21_4 C3_4 1_555 1_555
H17_4 C21_4 1_555 1_555
C22_4 C8_4 1_555 1_555
H18_4 C22_4 1_555 1_555
C23_4 C13_4 1_555 1_555
H19_4 C23_4 1_555 1_555
C24_4 C18_4 1_555 1_555
H20_4 C24_4 1_555 1_555
C4_4 C5_4 1_555 1_555
C14_4 C15_4 1_555 1_555
C19_4 C20_4 1_555 1_555
C21_4 C22_4 1_555 1_555
C21_4 C24_4 1_555 1_555
C22_4 C23_4 1_555 1_555
C23_4 C24_4 1_555 1_555
Zn7 N6_4 1_555 1_555
N6_4 C30_4 1_555 1_555
C30_4 H25_4 1_555 1_555
O3_4 Zn7 1_555 1_555
O4_4 Zn7 1_555 1_555
O3_4 H45_4 1_555 1_555
O3_4 H46_4 1_555 1_555
O4_4 H47_4 1_555 1_555
O4_4 H48_4 1_555 1_555
O1_4 H41_4 1_555 1_555
O2_4 H44_4 1_555 1_555
Cl1 O5 1_555 1_555
O6 Cl1 1_555 1_555
O7 Cl1 1_555 1_555
O8 Cl1 1_555 1_555
Cl1_2 O5_2 1_555 1_555
O6_2 Cl1_2 1_555 1_555
O7_2 Cl1_2 1_555 1_555
O8_2 Cl1_2 1_555 1_555
Cl1_3 O5_3 1_555 1_555
O6_3 Cl1_3 1_555 1_555
O7_3 Cl1_3 1_555 1_555
Cl1_4 O5_4 1_555 1_555
O6_4 Cl1_4 1_555 1_555
O7_4 Cl1_4 1_555 1_555
Cl2 O9 1_555 1_555
O10 Cl2 1_555 1_555
O11 Cl2 1_555 1_555
O12 Cl2 1_555 1_555
Cl2_2 O9_2 1_555 1_555
O10_2 Cl2_2 1_555 1_555
O11_2 Cl2_2 1_555 1_555
O12_2 Cl2_2 1_555 1_555
Cl2_3 O9_3 1_555 1_555
O10_3 Cl2_3 1_555 1_555
O11_3 Cl2_3 1_555 1_555
O12_3 Cl2_3 1_555 1_555
Cl2_4 O9_4 1_555 1_555
O10_4 Cl2_4 1_555 1_555
O11_4 Cl2_4 1_555 1_555
O12_4 Cl2_4 1_555 1_555
Cl3 O13 1_555 1_555
O14 Cl3 1_555 1_555
O15 Cl3 1_555 1_555
O16 Cl3 1_555 1_555
Cl3_2 O13_2 1_555 1_555
O14_2 Cl3_2 1_555 1_555
O15_2 Cl3_2 1_555 1_555
O16_2 Cl3_2 1_555 1_555
O14_3 Cl3_3 1_555 1_555
O15_3 Cl3_3 1_555 1_555
O16_3 Cl3_3 1_555 1_555
O14_4 Cl3_4 1_555 1_555
O15_4 Cl3_4 1_555 1_555
O16_4 Cl3_4 1_555 1_555
O18 Cl4 1_555 1_555
O19 Cl4 1_555 1_555
O20 Cl4 1_555 1_555
O18_2 Cl4_2 1_555 1_555
O19_2 Cl4_2 1_555 1_555
O20_2 Cl4_2 1_555 1_555
Cl4_3 O17_3 1_555 1_555
O18_3 Cl4_3 1_555 1_555
O19_3 Cl4_3 1_555 1_555
O20_3 Cl4_3 1_555 1_555
Cl4_4 O17_4 1_555 1_555
O18_4 Cl4_4 1_555 1_555
O19_4 Cl4_4 1_555 1_555
O20_4 Cl4_4 1_555 1_555

#END
