
###############################################################################
#
# This file contains modified crystal structure data generated from the
# MOF subset of the Cambridge Structural Database (CSD) v543 
# hosted by the Cambridge Crystallographic Data Centre (CCDC).
#
# This work is licensed under the Creative Commons
# Attribution-NonCommercial-ShareAlike 4.0 International License.
# To view a copy of this license, visit
# http://creativecommons.org/licenses/by-nc-sa/4.0/
# or send a letter to
# Creative Commons, PO Box 1866, Mountain View, CA 94042, USA.
#
# CIF created using the CSD Python API on 29 September 2022
# The structure has been converted into the P1 space group
# The structure has a 3D framework
# The original CSD entry NABMUA is in the hexagonal crystal system
# The original CSD entry NABMUA is in a Sohncke space group
# The framework has been calculated to contain at least 10.0% void space
# The void calculation uses a probe of radius 1.32A, grid spacing 0.4
# H atom positions have been added when not included in the experimental data
# Generated hydrogen atom positions removed from atoms on special positions
#
###############################################################################

data_NABMUA
_chemical_formula_moiety         '(C42 H42 Mg6 N6 O26)n'
_symmetry_cell_setting           triclinic
_symmetry_space_group_name_H-M   'P 1'
_symmetry_Int_Tables_number      1
_space_group_name_Hall           'P 1'
loop_
_symmetry_equiv_pos_site_id
_symmetry_equiv_pos_as_xyz
1 x,y,z
_cell_length_a                   11.4858(17)
_cell_length_b                   11.4858(17)
_cell_length_c                   14.756(3)
_cell_angle_alpha                90
_cell_angle_beta                 90
_cell_angle_gamma                120
_cell_volume                     1685.86
loop_
_atom_site_label
_atom_site_type_symbol
_atom_site_fract_x
_atom_site_fract_y
_atom_site_fract_z
O2 O 0.3986(4) 0.1722(4) 0.4433(2)
N1 N 0.6932(3) 0.3865(6) 0.2500
C1 C 0.4208(5) 0.1028(5) 0.3876(3)
C2 C 0.5234(5) 0.1775(5) 0.3140(3)
C3 C 0.5532(3) 0.1064(7) 0.2500
H1 H 0.5069 0.0137 0.2500
C4 C 0.5922(5) 0.3158(5) 0.3087(3)
H2 H 0.5675 0.3630 0.3480
Mg2 Mg 0.38694(14) 0.19347(10) 0.5834
Mg3 Mg 0.80653(10) 0.61306(14) 0.2500
O6 O 0.7736(6) 0.1722(4) 0.0567(2)
C5 C 0.6820(7) 0.1028(5) 0.1124(3)
C6 C 0.6541(7) 0.1775(5) 0.1860(3)
C7 C 0.7236(7) 0.3158(5) 0.1913(3)
H3 H 0.7955 0.3630 0.1520
Mg5 Mg 0.80653(10) 0.19347(10) 0.9166
Mg1 Mg 0.19347(10) 0.80653(10) 0.4167
O1 O 0.3664(3) 0.9777(3) 0.3871(2)
O3 O 0.0890(3) 0.9110(3) 0.4167
Mg4 Mg 0.61306(14) 0.80653(10) 0.0833
O4 O 0.6113(4) 0.9777(3) 0.1129(2)
O5 O 0.0223(3) 0.6336(3) 0.4462(2)
O7 O 0.1722(4) 0.7736(6) 0.2766(2)
O8 O 0.2264(6) 0.8278(4) 0.5567(2)
N2 N 0.3067(7) 0.6932(3) 0.4167
H4 H 0.0969219 0.952198 0.356203
O1_2 O 0.3887(4) 0.3664(3) 0.5538(2)
O2_2 O 0.2264(6) 0.3986(4) 0.6100(2)
O3_2 O 0.1780(4) 0.0890(3) 0.5834
C1_2 C 0.3180(7) 0.4208(5) 0.5543(3)
C2_2 C 0.3459(7) 0.5234(5) 0.4807(3)
C3_2 C 0.4468(8) 0.5532(3) 0.4167
H1_2 H 0.4932 0.5069 0.4167
C4_2 C 0.2764(7) 0.5922(5) 0.4754(3)
H2_2 H 0.2045 0.5675 0.5147
Mg2_2 Mg 0.19347(17) 0.38694(14) 0.7500
O4_2 O 0.6336(5) 0.6113(4) 0.2796(2)
O5_2 O 0.3887(4) 0.0223(3) 0.6129(2)
O6_2 O 0.6014(7) 0.7736(6) 0.2234(2)
O8_2 O 0.3986(7) 0.2264(6) 0.7234(2)
N2_2 N 0.6135(8) 0.3067(7) 0.5833
C5_2 C 0.5792(9) 0.6820(7) 0.2791(3)
C6_2 C 0.4766(9) 0.6541(7) 0.3527(3)
C7_2 C 0.4078(9) 0.7236(7) 0.3580(3)
H3_2 H 0.4325 0.7955 0.3187
O1_3 O 0.0223(3) 0.3887(4) 0.7204(2)
O3_3 O 0.0890(3) 0.1780(4) 0.7500
O5_3 O 0.3664(3) 0.3887(4) 0.7796(2)
O8_3 O 0.1722(4) 0.3986(7) 0.8900(2)
N2_3 N 0.3068(3) 0.6135(8) 0.7500
O2_3 O 0.8278(4) 0.2264(6) 0.7766(2)
C1_3 C 0.8972(5) 0.3180(7) 0.7209(3)
C2_3 C 0.8225(5) 0.3459(7) 0.6473(3)
C3_3 C 0.8936(7) 0.4468(8) 0.5833
H1_3 H 0.9863 0.4932 0.5833
C4_3 C 0.6842(5) 0.2764(7) 0.6420(3)
H2_3 H 0.6370 0.2045 0.6813
O6_3 O 0.8278(4) 0.6014(7) 0.3900(2)
C5_3 C 0.8972(5) 0.5792(9) 0.4457(3)
C6_3 C 0.8225(5) 0.4766(9) 0.5193(3)
C7_3 C 0.6842(5) 0.4078(9) 0.5246(3)
H3_3 H 0.6370 0.4325 0.4853
O1_4 O 0.6336(3) 0.0223(3) 0.8871(2)
O3_4 O 0.9110(3) 0.0890(3) 0.9167
O5_4 O 0.9777(3) 0.3664(3) 0.9462(2)
N2_4 N 0.6933(7) 0.3068(3) 0.9167
H4_2 H 0.903078 0.0478017 0.856203
O2_4 O 0.6014(4) 0.8278(4) 0.9433(2)
C1_4 C 0.5792(5) 0.8972(5) 0.8876(3)
C2_4 C 0.4766(5) 0.8225(5) 0.8140(3)
C3_4 C 0.4468(3) 0.8936(7) 0.7500
H1_4 H 0.4931 0.9863 0.7500
C4_4 C 0.4078(5) 0.6842(5) 0.8087(3)
H2_4 H 0.4325 0.6370 0.8480
C5_4 C 0.3180(7) 0.8972(5) 0.6124(3)
C6_4 C 0.3459(7) 0.8225(5) 0.6860(3)
C7_4 C 0.2764(7) 0.6842(5) 0.6913(3)
H3_4 H 0.2045 0.6370 0.6520
O1_5 O 0.6113(4) 0.6336(3) 0.0538(2)
O2_5 O 0.7736(6) 0.6014(4) 0.1100(2)
O3_5 O 0.8220(4) 0.9110(3) 0.0834
C1_5 C 0.6820(7) 0.5792(5) 0.0543(3)
H2_5 H 0.7955 0.4325 0.0147
N2_5 N 0.3865(8) 0.6933(7) 0.0833
C2_5 C 0.6541(7) 0.4766(5) 0.9807(3)
C3_5 C 0.5532(8) 0.4468(3) 0.9167
H1_5 H 0.5068 0.4931 0.9167
C4_5 C 0.7236(7) 0.4078(5) 0.9754(3)
C5_5 C 0.4208(9) 0.3180(7) 0.7791(3)
C6_5 C 0.5234(9) 0.3459(7) 0.8527(3)
C7_5 C 0.5922(9) 0.2764(7) 0.8580(3)
H3_5 H 0.5675 0.2045 0.8187
C1_6 C 0.1028(5) 0.6820(7) 0.2209(3)
C2_6 C 0.1775(5) 0.6541(7) 0.1473(3)
C3_6 C 0.1064(7) 0.5532(8) 0.0833
H1_6 H 0.0137 0.5068 0.0833
C4_6 C 0.3158(5) 0.7236(7) 0.1420(3)
H2_6 H 0.3630 0.7955 0.1813
C6_6 C 0.1775(5) 0.5234(9) 0.0193(3)
C7_6 C 0.3158(5) 0.5922(9) 0.0246(3)
C5_6 C 0.1028(5) 0.4208(9) 0.9457(3)
H3_6 H 0.3630 0.5675 0.9853
O1_6 O 0.9777(3) 0.6113(4) 0.2204(2)
O3_6 O 0.9110(3) 0.8220(4) 0.2500
H4_3 H 0.0478017 0.903078 0.477131
H4_4 H 0.952198 0.0969219 0.977131
H5 H 0.992773 0.848049 0.430393
H5_2 H 0.144724 0.992773 0.597059
H5_3 H 0.00722745 0.151951 0.930393
H5_4 H 0.855276 0.00722745 0.0970594
H5_5 H 0.151951 0.00722745 0.402941
H5_6 H 0.992773 0.144724 0.736274
H5_7 H 0.848049 0.992773 0.902941
H5_8 H 0.00722745 0.855276 0.236274
loop_
_geom_bond_atom_site_label_1
_geom_bond_atom_site_label_2
_geom_bond_site_symmetry_1
_geom_bond_site_symmetry_2
O2 C1 1_555 1_555
N1 C4 1_555 1_555
C1 C2 1_555 1_555
C2 C3 1_555 1_555
C3 H1 1_555 1_555
C4 C2 1_555 1_555
H2 C4 1_555 1_555
Mg2 O2 1_555 1_555
Mg3 N1 1_555 1_555
O6 C5 1_555 1_555
C5 C6 1_555 1_555
C6 C3 1_555 1_555
C7 N1 1_555 1_555
H3 C7 1_555 1_555
C6 C7 1_555 1_555
Mg1 O1 1_555 1_555
O3 Mg1 1_555 1_555
Mg4 O4 1_555 1_555
O5 Mg1 1_555 1_555
O7 Mg1 1_555 1_555
O8 Mg1 1_555 1_555
N2 Mg1 1_555 1_555
O3 H4 1_555 1_555
Mg2 O1_2 1_555 1_555
O1_2 C1_2 1_555 1_555
O2_2 C1_2 1_555 1_555
O3_2 Mg2 1_555 1_555
N2 C4_2 1_555 1_555
C1_2 C2_2 1_555 1_555
C2_2 C3_2 1_555 1_555
C3_2 H1_2 1_555 1_555
C4_2 C2_2 1_555 1_555
H2_2 C4_2 1_555 1_555
Mg2_2 O2_2 1_555 1_555
Mg3 O4_2 1_555 1_555
Mg4 O6_2 1_555 1_555
O4_2 C5_2 1_555 1_555
O5_2 Mg2 1_555 1_555
O6_2 C5_2 1_555 1_555
O8_2 Mg2 1_555 1_555
N2_2 Mg2 1_555 1_555
C5_2 C6_2 1_555 1_555
C6_2 C3_2 1_555 1_555
C7_2 N2 1_555 1_555
H3_2 C7_2 1_555 1_555
C6_2 C7_2 1_555 1_555
Mg2_2 O1_3 1_555 1_555
O3_3 Mg2_2 1_555 1_555
O5_3 Mg2_2 1_555 1_555
O8_3 Mg2_2 1_555 1_555
N2_3 Mg2_2 1_555 1_555
O2_3 C1_3 1_555 1_555
N2_2 C4_3 1_555 1_555
C1_3 C2_3 1_555 1_555
C2_3 C3_3 1_555 1_555
C3_3 H1_3 1_555 1_555
C4_3 C2_3 1_555 1_555
H2_3 C4_3 1_555 1_555
Mg5 O2_3 1_555 1_555
Mg3 O6_3 1_555 1_555
O6_3 C5_3 1_555 1_555
C5_3 C6_3 1_555 1_555
C6_3 C3_3 1_555 1_555
C7_3 N2_2 1_555 1_555
H3_3 C7_3 1_555 1_555
C6_3 C7_3 1_555 1_555
Mg5 O1_4 1_555 1_555
O3_4 Mg5 1_555 1_555
O5_4 Mg5 1_555 1_555
N2_4 Mg5 1_555 1_555
O3_4 H4_2 1_555 1_555
O2_4 C1_4 1_555 1_555
N2_3 C4_4 1_555 1_555
C1_4 C2_4 1_555 1_555
C2_4 C3_4 1_555 1_555
C3_4 H1_4 1_555 1_555
C4_4 C2_4 1_555 1_555
H2_4 C4_4 1_555 1_555
O8 C5_4 1_555 1_555
C5_4 C6_4 1_555 1_555
C6_4 C3_4 1_555 1_555
C7_4 N2_3 1_555 1_555
H3_4 C7_4 1_555 1_555
C6_4 C7_4 1_555 1_555
Mg4 O1_5 1_555 1_555
O1_5 C1_5 1_555 1_555
O2_5 C1_5 1_555 1_555
O3_5 Mg4 1_555 1_555
Mg3 O2_5 1_555 1_555
N2_5 Mg4 1_555 1_555
N2_4 C4_5 1_555 1_555
C2_5 C3_5 1_555 1_555
C3_5 H1_5 1_555 1_555
C4_5 C2_5 1_555 1_555
O5_3 C5_5 1_555 1_555
O8_2 C5_5 1_555 1_555
C5_5 C6_5 1_555 1_555
C6_5 C3_5 1_555 1_555
C7_5 N2_4 1_555 1_555
H3_5 C7_5 1_555 1_555
C6_5 C7_5 1_555 1_555
O7 C1_6 1_555 1_555
N2_5 C4_6 1_555 1_555
C1_6 C2_6 1_555 1_555
C2_6 C3_6 1_555 1_555
C3_6 H1_6 1_555 1_555
C4_6 C2_6 1_555 1_555
H2_6 C4_6 1_555 1_555
C6_6 C3_6 1_555 1_555
C7_6 N2_5 1_555 1_555
C6_6 C7_6 1_555 1_555
O8_3 C5_6 1_555 1_555
Mg3 O1_6 1_555 1_555
O3_6 Mg3 1_555 1_555
O3 H4_3 1_555 1_555
O3_4 H4_4 1_555 1_555

#END
