
###############################################################################
#
# This file contains modified crystal structure data generated from the
# MOF subset of the Cambridge Structural Database (CSD) v543 
# hosted by the Cambridge Crystallographic Data Centre (CCDC).
#
# This work is licensed under the Creative Commons
# Attribution-NonCommercial-ShareAlike 4.0 International License.
# To view a copy of this license, visit
# http://creativecommons.org/licenses/by-nc-sa/4.0/
# or send a letter to
# Creative Commons, PO Box 1866, Mountain View, CA 94042, USA.
#
# CIF created using the CSD Python API on 29 September 2022
# The structure has been converted into the P1 space group
# The structure has a 3D framework
# The original CSD entry NABMUA01 is in the hexagonal crystal system
# The original CSD entry NABMUA01 is in a Sohncke space group
# The framework has been calculated to contain at least 10.0% void space
# The void calculation uses a probe of radius 1.32A, grid spacing 0.4
# H atom positions have been added when not included in the experimental data
# Generated hydrogen atom positions removed from atoms on special positions
#
###############################################################################

data_NABMUA01
_chemical_formula_moiety         '(C42 H42 Mg6 N6 O22)n'
_symmetry_cell_setting           triclinic
_symmetry_space_group_name_H-M   'P 1'
_symmetry_Int_Tables_number      1
_space_group_name_Hall           'P 1'
loop_
_symmetry_equiv_pos_site_id
_symmetry_equiv_pos_as_xyz
1 x,y,z
_cell_length_a                   11.4799(14)
_cell_length_b                   11.4799(14)
_cell_length_c                   14.735(3)
_cell_angle_alpha                90
_cell_angle_beta                 90
_cell_angle_gamma                120
_cell_volume                     1681.73
loop_
_atom_site_label
_atom_site_type_symbol
_atom_site_fract_x
_atom_site_fract_y
_atom_site_fract_z
Mg1 Mg 0.19380(3) 0.38761(6) 0.2500
O1 O 0.22731(10) 0.39936(11) 0.10994(6)
O2 O 0.38890(11) 0.36650(10) 0.05312(7)
O3 O 0.08865(8) 0.17731(16) 0.2500
C1 C 0.31811(14) 0.42051(13) 0.05416(9)
H2 H 0.2050 0.5675 0.0145
Mg2 Mg 0.38761(6) 0.19381(7) 0.0833
O5 O 0.17205(15) 0.39936(11) 0.39006(6)
O7 O 0.02240(15) 0.38890(11) 0.21979(7)
O8 O 0.36650(10) 0.38890(11) 0.28021(7)
N2 N 0.30713(8) 0.61426(11) 0.2500
N1 N 0.30713(8) 0.69287(8) 0.9167
C2 C 0.34719(15) 0.52351(14) 0.98080(9)
C3 C 0.44668(10) 0.55332(10) 0.9167
H1 H 0.4935 0.5065 0.9167
C4 C 0.27717(15) 0.59236(15) 0.97526(10)
Mg3 Mg 0.19381(7) 0.80620(3) 0.9167
Mg4 Mg 0.61239(6) 0.80620(3) 0.5833
Mg5 Mg 0.80619(7) 0.61239(6) 0.7500
O4 O 0.60064(11) 0.77269(10) 0.72339(6)
O6 O 0.63350(10) 0.61110(11) 0.78021(7)
C5 C 0.57949(13) 0.68189(14) 0.77917(9)
C6 C 0.47649(14) 0.65281(15) 0.85253(9)
C7 C 0.40764(15) 0.72283(15) 0.85807(10)
H3 H 0.4325 0.7950 0.8188
H4 H 0.0039883 0.148005 0.393627
O6_2 O 0.02240(15) 0.63350(10) 0.94688(7)
Mg1_2 Mg 0.80619(7) 0.19380(3) 0.4167
O1_2 O 0.82795(15) 0.22731(10) 0.27661(6)
O3_2 O 0.91134(18) 0.08865(8) 0.4167
N1_2 N 0.61426(11) 0.30713(8) 0.0834
C1_2 C 0.89760(19) 0.31811(14) 0.22083(9)
C2_2 C 0.82368(21) 0.34719(15) 0.14747(9)
C3_2 C 0.89336(14) 0.44668(10) 0.0834
H1_2 H 0.9870 0.4935 0.0834
C4_2 C 0.68481(21) 0.27717(15) 0.14193(10)
H2_2 H 0.6375 0.2050 0.1812
O5_2 O 0.77269(19) 0.17205(15) 0.55673(6)
O7_2 O 0.63350(19) 0.02240(15) 0.38645(7)
O8_2 O 0.97760(15) 0.36650(10) 0.44688(7)
N2_2 N 0.69287(14) 0.30713(8) 0.4167
C6_2 C 0.82368(21) 0.47649(14) 0.01920(9)
C7_2 C 0.68481(21) 0.40764(15) 0.02474(10)
H5 H 0.915596 0.0596125 0.479465
O4_2 O 0.82795(15) 0.60064(11) 0.89006(6)
C5_2 C 0.89760(19) 0.57949(13) 0.94584(9)
H3_2 H 0.6375 0.4325 0.9855
O6_3 O 0.38890(11) 0.02240(15) 0.11355(7)
H4_2 H 0.855983 0.0039883 0.560294
O1_3 O 0.60064(11) 0.82795(15) 0.44327(6)
O3_3 O 0.82269(16) 0.91134(18) 0.5833
C1_3 C 0.57949(13) 0.89760(19) 0.38749(9)
C2_3 C 0.47649(14) 0.82368(21) 0.31413(9)
C3_3 C 0.44668(10) 0.89336(14) 0.2500
H1_3 H 0.4935 0.9870 0.2500
C4_3 C 0.40764(15) 0.68481(21) 0.30859(10)
H2_3 H 0.4325 0.6375 0.3478
O4_3 O 0.22731(10) 0.82795(15) 0.05673(6)
O7_3 O 0.61110(11) 0.63350(19) 0.55312(7)
O8_3 O 0.61110(11) 0.97760(15) 0.61355(7)
N2_3 N 0.38574(11) 0.69287(14) 0.5834
C5_3 C 0.31811(14) 0.89760(19) 0.11251(9)
C6_3 C 0.34719(15) 0.82368(21) 0.18587(9)
C7_3 C 0.27717(15) 0.68481(21) 0.19141(10)
H3_3 H 0.2050 0.6375 0.1522
O1_4 O 0.77269(10) 0.60064(11) 0.60994(6)
O3_4 O 0.91135(8) 0.82269(16) 0.7500
C1_4 C 0.68189(14) 0.57949(13) 0.55416(9)
C2_4 C 0.65281(15) 0.47649(14) 0.48080(9)
C3_4 C 0.55332(10) 0.44668(10) 0.4167
H1_4 H 0.5065 0.4935 0.4167
C4_4 C 0.72283(15) 0.40764(15) 0.47526(10)
H2_4 H 0.7950 0.4325 0.5145
O4_4 O 0.39936(11) 0.22731(10) 0.22339(6)
O7_4 O 0.97760(15) 0.61110(11) 0.71979(7)
N2_4 N 0.69287(8) 0.38574(11) 0.7500
C5_4 C 0.42051(13) 0.31811(14) 0.27917(9)
C6_4 C 0.52351(14) 0.34719(15) 0.35253(9)
C7_4 C 0.59236(15) 0.27717(15) 0.35807(10)
H3_4 H 0.5675 0.2050 0.3188
O1_5 O 0.17205(15) 0.77269(10) 0.77661(6)
O3_5 O 0.08866(18) 0.91135(8) 0.9167
C1_5 C 0.10240(19) 0.68189(14) 0.72083(9)
C2_5 C 0.17632(21) 0.65281(15) 0.64747(9)
C3_5 C 0.10664(14) 0.55332(10) 0.5834
H1_5 H 0.0130 0.5065 0.5834
C4_5 C 0.31519(21) 0.72283(15) 0.64193(10)
H2_5 H 0.3625 0.7950 0.6812
O7_5 O 0.36650(19) 0.97760(15) 0.88645(7)
C5_5 C 0.10240(19) 0.42051(13) 0.44584(9)
C6_5 C 0.17632(21) 0.52351(14) 0.51920(9)
C7_5 C 0.31519(21) 0.59236(15) 0.52474(10)
H3_5 H 0.3625 0.5675 0.4855
H5_2 H 0.084404 0.940387 0.979465
H4_3 H 0.996012 0.851995 0.893627
O3_6 O 0.17731(16) 0.08866(18) 0.0833
O1_6 O 0.39936(11) 0.17205(15) 0.94327(6)
C1_6 C 0.42051(13) 0.10240(19) 0.88749(9)
C2_6 C 0.52351(14) 0.17632(21) 0.81413(9)
C3_6 C 0.55332(10) 0.10664(14) 0.7500
H1_6 H 0.5065 0.0130 0.7500
C4_6 C 0.59236(15) 0.31519(21) 0.80859(10)
H2_6 H 0.5675 0.3625 0.8478
C5_6 C 0.68189(14) 0.10240(19) 0.61251(9)
C6_6 C 0.65281(15) 0.17632(21) 0.68587(9)
C7_6 C 0.72283(15) 0.31519(21) 0.69141(10)
H3_6 H 0.7950 0.3625 0.6522
H4_4 H 0.0039883 0.855983 0.773039
H5_3 H 0.0596125 0.915596 0.853868
H4_5 H 0.996012 0.144017 0.273039
H5_4 H 0.940387 0.084404 0.353868
H4_6 H 0.851995 0.996012 0.439706
H4_7 H 0.144017 0.996012 0.0602941
H4_8 H 0.148005 0.0039883 0.939706
loop_
_geom_bond_atom_site_label_1
_geom_bond_atom_site_label_2
_geom_bond_site_symmetry_1
_geom_bond_site_symmetry_2
Mg1 O1 1_555 1_555
O1 C1 1_555 1_555
O2 C1 1_555 1_555
O3 Mg1 1_555 1_555
Mg2 O2 1_555 1_555
O5 Mg1 1_555 1_555
O7 Mg1 1_555 1_555
O8 Mg1 1_555 1_555
N2 Mg1 1_555 1_555
N1 C4 1_555 1_555
C2 C3 1_555 1_555
C3 H1 1_555 1_555
C4 C2 1_555 1_555
Mg3 N1 1_555 1_555
Mg4 O4 1_555 1_555
Mg5 O6 1_555 1_555
O4 C5 1_555 1_555
O6 C5 1_555 1_555
C5 C6 1_555 1_555
C6 C3 1_555 1_555
C7 N1 1_555 1_555
H3 C7 1_555 1_555
C6 C7 1_555 1_555
Mg3 O6_2 1_555 1_555
Mg1_2 O1_2 1_555 1_555
O1_2 C1_2 1_555 1_555
O3_2 Mg1_2 1_555 1_555
N1_2 C4_2 1_555 1_555
C1_2 C2_2 1_555 1_555
C2_2 C3_2 1_555 1_555
C3_2 H1_2 1_555 1_555
C4_2 C2_2 1_555 1_555
H2_2 C4_2 1_555 1_555
Mg2 N1_2 1_555 1_555
O5_2 Mg1_2 1_555 1_555
O7_2 Mg1_2 1_555 1_555
O8_2 Mg1_2 1_555 1_555
N2_2 Mg1_2 1_555 1_555
C6_2 C3_2 1_555 1_555
C7_2 N1_2 1_555 1_555
C6_2 C7_2 1_555 1_555
O3_2 H5 1_555 1_555
Mg5 O4_2 1_555 1_555
O4_2 C5_2 1_555 1_555
Mg2 O6_3 1_555 1_555
Mg4 O1_3 1_555 1_555
O1_3 C1_3 1_555 1_555
O3_3 Mg4 1_555 1_555
N2 C4_3 1_555 1_555
C1_3 C2_3 1_555 1_555
C2_3 C3_3 1_555 1_555
C3_3 H1_3 1_555 1_555
C4_3 C2_3 1_555 1_555
H2_3 C4_3 1_555 1_555
O4_3 C5_3 1_555 1_555
O7_3 Mg4 1_555 1_555
O8_3 Mg4 1_555 1_555
N2_3 Mg4 1_555 1_555
C5_3 C6_3 1_555 1_555
C6_3 C3_3 1_555 1_555
C7_3 N2 1_555 1_555
H3_3 C7_3 1_555 1_555
C6_3 C7_3 1_555 1_555
Mg5 O1_4 1_555 1_555
O1_4 C1_4 1_555 1_555
O7_3 C1_4 1_555 1_555
O3_4 Mg5 1_555 1_555
N2_2 C4_4 1_555 1_555
C1_4 C2_4 1_555 1_555
C2_4 C3_4 1_555 1_555
C3_4 H1_4 1_555 1_555
C4_4 C2_4 1_555 1_555
H2_4 C4_4 1_555 1_555
Mg2 O4_4 1_555 1_555
O4_4 C5_4 1_555 1_555
O8 C5_4 1_555 1_555
O7_4 Mg5 1_555 1_555
N2_4 Mg5 1_555 1_555
C5_4 C6_4 1_555 1_555
C6_4 C3_4 1_555 1_555
C7_4 N2_2 1_555 1_555
H3_4 C7_4 1_555 1_555
C6_4 C7_4 1_555 1_555
Mg3 O1_5 1_555 1_555
O1_5 C1_5 1_555 1_555
O3_5 Mg3 1_555 1_555
N2_3 C4_5 1_555 1_555
C1_5 C2_5 1_555 1_555
C2_5 C3_5 1_555 1_555
C3_5 H1_5 1_555 1_555
C4_5 C2_5 1_555 1_555
H2_5 C4_5 1_555 1_555
O5 C5_5 1_555 1_555
O7_5 Mg3 1_555 1_555
C5_5 C6_5 1_555 1_555
C6_5 C3_5 1_555 1_555
C7_5 N2_3 1_555 1_555
H3_5 C7_5 1_555 1_555
C6_5 C7_5 1_555 1_555
O3_5 H5_2 1_555 1_555
O3_6 Mg2 1_555 1_555
O1_6 C1_6 1_555 1_555
N2_4 C4_6 1_555 1_555
C1_6 C2_6 1_555 1_555
C2_6 C3_6 1_555 1_555
C3_6 H1_6 1_555 1_555
C4_6 C2_6 1_555 1_555
H2_6 C4_6 1_555 1_555
O5_2 C5_6 1_555 1_555
C5_6 C6_6 1_555 1_555
C6_6 C3_6 1_555 1_555
C7_6 N2_4 1_555 1_555
H3_6 C7_6 1_555 1_555
C6_6 C7_6 1_555 1_555
O3_5 H5_3 1_555 1_555
O3_2 H5_4 1_555 1_555

#END
