
###############################################################################
#
# This file contains modified crystal structure data generated from the
# MOF subset of the Cambridge Structural Database (CSD) v543 
# hosted by the Cambridge Crystallographic Data Centre (CCDC).
#
# This work is licensed under the Creative Commons
# Attribution-NonCommercial-ShareAlike 4.0 International License.
# To view a copy of this license, visit
# http://creativecommons.org/licenses/by-nc-sa/4.0/
# or send a letter to
# Creative Commons, PO Box 1866, Mountain View, CA 94042, USA.
#
# CIF created using the CSD Python API on 29 September 2022
# The structure has been converted into the P1 space group
# The structure has a 3D framework
# The original CSD entry NABNOU is in the monoclinic crystal system
# The framework has been calculated to contain at least 10.0% void space
# The void calculation uses a probe of radius 1.32A, grid spacing 0.4
#
###############################################################################

data_NABNOU
_chemical_formula_moiety         '(C176 H160 Cd8 N16 O54)n'
_symmetry_cell_setting           triclinic
_symmetry_space_group_name_H-M   'P 1'
_symmetry_Int_Tables_number      1
_space_group_name_Hall           'P 1'
loop_
_symmetry_equiv_pos_site_id
_symmetry_equiv_pos_as_xyz
1 x,y,z
_cell_length_a                   13.9970(10)
_cell_length_b                   20.103(2)
_cell_length_c                   17.460(2)
_cell_angle_alpha                90
_cell_angle_beta                 100.201(5)
_cell_angle_gamma                90
_cell_volume                     4835.26
loop_
_atom_site_label
_atom_site_type_symbol
_atom_site_fract_x
_atom_site_fract_y
_atom_site_fract_z
O2 O 0.1125(7) 0.3354(4) 0.0252(5)
O3 O 0.1132(6) 0.4416(5) 0.0535(5)
O4 O 0.1264(12) 0.1709(6) 0.2354(6)
H17 H 0.1513 0.1355 0.2553
O5 O 0.1394(12) 0.2040(6) 0.3582(7)
O6 O 0.1657(6) 0.5148(5) 0.3227(5)
O7 O 0.1293(6) 0.4519(5) 0.4143(5)
C14 C 0.1168(7) 0.3651(6) 0.1580(6)
C15 C 0.1243(7) 0.4164(7) 0.2115(7)
H18 H 0.1244 0.4612 0.1942
C16 C 0.1317(7) 0.4030(6) 0.2896(7)
C17 C 0.1292(7) 0.3379(7) 0.3139(7)
H19 H 0.1316 0.3288 0.3676
C18 C 0.1232(8) 0.2851(7) 0.2616(7)
C19 C 0.1170(8) 0.3014(7) 0.1811(7)
H20 H 0.1129 0.2667 0.1436
C20 C 0.1123(7) 0.3811(7) 0.0724(7)
C21 C 0.1280(13) 0.2159(8) 0.2897(11)
C22 C 0.1427(8) 0.4592(7) 0.3458(8)
N3 N 0.6334(7) 0.1702(6) 0.3441(6)
C23 C 0.6173(10) 0.1614(7) 0.2670(8)
H21 H 0.6093 0.1172 0.2475
C24 C 0.6117(10) 0.2128(8) 0.2147(9)
H22 H 0.6005 0.2039 0.1604
C25 C 0.6224(8) 0.2766(8) 0.2407(9)
C26 C 0.6390(8) 0.2871(7) 0.3208(9)
H23 H 0.6467 0.3309 0.3413
C27 C 0.6442(8) 0.2334(7) 0.3700(7)
H24 H 0.6560 0.2411 0.4245
C28 C 0.6105(11) 0.3497(15) 0.1922(10)
H25 H 0.6611 0.3820 0.2150
H26 H 0.5456 0.3695 0.1911
C29 C 0.6228(12) 0.3297(12) 0.1202(16)
H27 H 0.6887 0.3119 0.1196
H28 H 0.5731 0.2971 0.0965
C30 C 0.6049(13) 0.4091(17) 0.078(2)
H29 H 0.6430 0.4136 0.0352
H30 H 0.6266 0.4438 0.1170
C31 C 0.3373(10) 0.4516(8) 0.0428(8)
H31 H 0.2928 0.4771 0.0658
C32 C 0.4298(14) 0.4520(11) 0.0780(12)
H32 H 0.4489 0.4760 0.1250
C33 C 0.4976(14) 0.4172(16) 0.0455(18)
Cd2 Cd 0.63709(6) 0.07935(4) 0.42745(5)
O14 O 0.4710(6) 0.0568(4) 0.3925(5)
H39 H 0.456(8) 0.020(3) 0.415(4)
H40 H 0.459(8) 0.052(4) 0.3417(9)
Cd4 Cd 0.13709(6) 0.57935(4) 0.42745(5)
N5 N 0.8028(7) 0.0810(5) 0.4792(6)
O15 O 0.6125(7) 0.1646(4) 0.5252(5)
O16 O 0.6132(6) 0.0584(5) 0.5535(5)
O17 O 0.6657(6) 0.0148(5) 0.3227(5)
Cd1 Cd 0.13709(6) 0.42065(4) 0.92745(5)
N1 N 0.1334(7) 0.3298(6) 0.8441(6)
C1 C 0.1173(10) 0.3386(7) 0.7670(8)
H3 H 0.1093 0.3828 0.7475
C2 C 0.1117(10) 0.2872(8) 0.7147(9)
H4 H 0.1005 0.2961 0.6604
C3 C 0.1224(8) 0.2234(8) 0.7407(9)
C4 C 0.1390(8) 0.2129(7) 0.8208(9)
H5 H 0.1467 0.1691 0.8413
C5 C 0.1442(8) 0.2666(7) 0.8700(7)
H6 H 0.1560 0.2589 0.9245
C6 C 0.1105(11) 0.1503(15) 0.6922(10)
H7 H 0.1611 0.1180 0.7150
H8 H 0.0456 0.1305 0.6911
C7 C 0.1228(12) 0.1703(12) 0.6202(16)
H9 H 0.1887 0.1881 0.6196
H10 H 0.0731 0.2029 0.5965
C8 C 0.1049(13) 0.0909(17) 0.578(2)
H11 H 0.1430 0.0864 0.5352
H12 H 0.1266 0.0562 0.6170
H15 H 0.0100 0.1414 0.4556
N4 N 0.3028(7) 0.4190(5) 0.9792(6)
C34 C 0.4651(14) 0.3832(14) 0.979(2)
H33 H 0.5100 0.3586 0.9556
C35 C 0.3638(11) 0.3832(8) 0.9437(10)
H34 H 0.3412 0.3591 0.8973
O8 O 0.1125(7) 0.6646(4) 0.5252(5)
O9 O 0.1132(6) 0.5584(5) 0.5535(5)
O10 O 0.1264(12) 0.8291(6) 0.7354(6)
H35 H 0.1513 0.8645 0.7553
O11 O 0.1394(12) 0.7960(6) 0.8582(7)
O12 O 0.1657(6) 0.4852(5) 0.8227(5)
O13 O 0.1293(6) 0.5481(5) 0.9143(5)
C36 C 0.1168(7) 0.6349(6) 0.6580(6)
C37 C 0.1243(7) 0.5836(7) 0.7115(7)
H36 H 0.1244 0.5388 0.6942
C38 C 0.1317(7) 0.5970(6) 0.7896(7)
C39 C 0.1292(7) 0.6621(7) 0.8139(7)
H37 H 0.1316 0.6712 0.8676
C40 C 0.1232(8) 0.7149(7) 0.7616(7)
C41 C 0.1170(8) 0.6986(7) 0.6811(7)
H38 H 0.1129 0.7333 0.6436
C42 C 0.1123(7) 0.6189(7) 0.5724(7)
C43 C 0.1280(13) 0.7841(8) 0.7897(11)
C44 C 0.1427(8) 0.5408(7) 0.8458(8)
O18 O 0.6293(6) 0.9519(5) 0.4143(5)
O1 O 0.9710(6) 0.4432(4) 0.8925(5)
H1 H 0.956(8) 0.480(3) 0.915(4)
H2 H 0.959(8) 0.448(4) 0.8417(9)
C9 C 0.8373(10) 0.0484(8) 0.5428(8)
H13 H 0.7928 0.0229 0.5658
C10 C 0.9298(14) 0.0480(11) 0.5780(12)
H14 H 0.9489 0.0240 0.6250
C11 C 0.9976(14) 0.0828(16) 0.5455(18)
C12 C 0.9651(14) 0.1168(14) 0.479(2)
C13 C 0.8638(11) 0.1168(8) 0.4437(10)
H16 H 0.8412 0.1409 0.3973
N3_2 N 0.1334(7) 0.6702(6) 0.3441(6)
C23_2 C 0.1173(10) 0.6614(7) 0.2670(8)
H21_2 H 0.1093 0.6172 0.2475
C24_2 C 0.1117(10) 0.7128(8) 0.2147(9)
H22_2 H 0.1005 0.7039 0.1604
C25_2 C 0.1224(8) 0.7766(8) 0.2407(9)
C26_2 C 0.1390(8) 0.7871(7) 0.3208(9)
H23_2 H 0.1467 0.8309 0.3413
C27_2 C 0.1442(8) 0.7334(7) 0.3700(7)
H24_2 H 0.1560 0.7411 0.4245
C28_2 C 0.1105(11) 0.8497(15) 0.1922(10)
H25_2 H 0.1611 0.8820 0.2150
H26_2 H 0.0456 0.8695 0.1911
C29_2 C 0.1228(12) 0.8297(12) 0.1202(16)
H27_2 H 0.1887 0.8119 0.1196
H28_2 H 0.0731 0.7971 0.0965
C30_2 C 0.1049(13) 0.9091(17) 0.078(2)
H29_2 H 0.1430 0.9136 0.0352
H30_2 H 0.1266 0.9438 0.1170
N5_2 N 0.3028(7) 0.5810(5) 0.4792(6)
H33_2 H 0.0100 0.8586 0.9556
O10_2 O 0.6264(12) 0.3291(6) 0.7354(6)
H35_2 H 0.6513 0.3645 0.7553
O11_2 O 0.6394(12) 0.2960(6) 0.8582(7)
O13_2 O 0.6293(6) 0.0481(5) 0.9143(5)
C36_2 C 0.6168(7) 0.1349(6) 0.6580(6)
C37_2 C 0.6243(7) 0.0836(7) 0.7115(7)
H36_2 H 0.6244 0.0388 0.6942
C38_2 C 0.6317(7) 0.0970(6) 0.7896(7)
C39_2 C 0.6292(7) 0.1621(7) 0.8139(7)
H37_2 H 0.6316 0.1712 0.8676
C40_2 C 0.6232(8) 0.2149(7) 0.7616(7)
C41_2 C 0.6170(8) 0.1986(7) 0.6811(7)
H38_2 H 0.6129 0.2333 0.6436
C42_2 C 0.6123(7) 0.1189(7) 0.5724(7)
C43_2 C 0.6280(13) 0.2841(8) 0.7897(11)
C44_2 C 0.6427(8) 0.0408(7) 0.8458(8)
O2_2 O 0.6125(7) 0.8354(4) 0.0252(5)
O3_2 O 0.6132(6) 0.9416(5) 0.0535(5)
O4_2 O 0.6264(12) 0.6709(6) 0.2354(6)
H17_2 H 0.6513 0.6355 0.2553
O5_2 O 0.6394(12) 0.7040(6) 0.3582(7)
C14_2 C 0.6168(7) 0.8651(6) 0.1580(6)
C15_2 C 0.6243(7) 0.9164(7) 0.2115(7)
H18_2 H 0.6244 0.9612 0.1942
C16_2 C 0.6317(7) 0.9030(6) 0.2896(7)
C17_2 C 0.6292(7) 0.8379(7) 0.3139(7)
H19_2 H 0.6316 0.8288 0.3676
C18_2 C 0.6232(8) 0.7851(7) 0.2616(7)
C19_2 C 0.6170(8) 0.8014(7) 0.1811(7)
H20_2 H 0.6129 0.7667 0.1436
C20_2 C 0.6123(7) 0.8811(7) 0.0724(7)
C21_2 C 0.6280(13) 0.7159(8) 0.2897(11)
C22_2 C 0.6427(8) 0.9592(7) 0.3458(8)
C31_2 C 0.8373(10) 0.9516(8) 0.0428(8)
H31_2 H 0.7928 0.9771 0.0658
C32_2 C 0.9298(14) 0.9520(11) 0.0780(12)
H32_2 H 0.9489 0.9760 0.1250
C33_2 C 0.9976(14) 0.9172(16) 0.0455(18)
O14_2 O 0.9710(6) 0.5568(4) 0.3925(5)
H39_2 H 0.956(8) 0.520(3) 0.415(4)
H40_2 H 0.959(8) 0.552(4) 0.3417(9)
Cd1_2 Cd 0.63709(6) 0.92065(4) 0.92745(5)
O1_2 O 0.4710(6) 0.9432(4) 0.8925(5)
H1_2 H 0.456(8) 0.980(3) 0.915(4)
H2_2 H 0.459(8) 0.948(4) 0.8417(9)
N1_2 N 0.6334(7) 0.8298(6) 0.8441(6)
C1_2 C 0.6173(10) 0.8386(7) 0.7670(8)
H3_2 H 0.6093 0.8828 0.7475
C2_2 C 0.6117(10) 0.7872(8) 0.7147(9)
H4_2 H 0.6005 0.7961 0.6604
C3_2 C 0.6224(8) 0.7234(8) 0.7407(9)
C4_2 C 0.6390(8) 0.7129(7) 0.8208(9)
H5_2 H 0.6467 0.6691 0.8413
C5_2 C 0.6442(8) 0.7666(7) 0.8700(7)
H6_2 H 0.6560 0.7589 0.9245
C6_2 C 0.6105(11) 0.6503(15) 0.6922(10)
H7_2 H 0.6611 0.6180 0.7150
H8_2 H 0.5456 0.6305 0.6911
C7_2 C 0.6228(12) 0.6703(12) 0.6202(16)
H9_2 H 0.6887 0.6881 0.6196
H10_2 H 0.5731 0.7029 0.5965
C8_2 C 0.6049(13) 0.5909(17) 0.578(2)
H11_2 H 0.6430 0.5864 0.5352
H12_2 H 0.6266 0.5562 0.6170
C9_2 C 0.3373(10) 0.5484(8) 0.5428(8)
H13_2 H 0.2928 0.5229 0.5658
C10_2 C 0.4298(14) 0.5480(11) 0.5780(12)
H14_2 H 0.4489 0.5240 0.6250
C11_2 C 0.4976(14) 0.5828(16) 0.5455(18)
C12_2 C 0.4651(14) 0.6168(14) 0.479(2)
H15_2 H 0.5100 0.6414 0.4556
C13_2 C 0.3638(11) 0.6168(8) 0.4437(10)
H16_2 H 0.3412 0.6409 0.3973
N4_2 N 0.8028(7) 0.9190(5) 0.9792(6)
C34_2 C 0.9651(14) 0.8832(14) 0.979(2)
C35_2 C 0.8638(11) 0.8832(8) 0.9437(10)
H34_2 H 0.8412 0.8591 0.8973
O12_2 O 0.6657(6) 0.9852(5) 0.8227(5)
N2 N 0.1972(7) 0.0810(5) 0.0208(6)
C12_3 C 0.0349(14) 0.1168(14) 0.021(2)
C13_3 C 0.1362(11) 0.1168(8) 0.0563(10)
H16_3 H 0.1588 0.1409 0.1027
Cd3 Cd 0.36291(6) 0.07935(4) 0.07255(5)
O1_3 O 0.0290(6) 0.4432(4) 0.6075(5)
H1_3 H 0.044(8) 0.480(3) 0.585(4)
H2_3 H 0.041(8) 0.448(4) 0.6583(9)
C9_3 C 0.1627(10) 0.0484(8) 0.9572(8)
H13_3 H 0.2072 0.0229 0.9342
C10_3 C 0.0702(14) 0.0480(11) 0.9220(12)
H14_3 H 0.0511 0.0240 0.8750
C11_3 C 0.0024(14) 0.0828(16) 0.9545(18)
H15_3 H 0.9900 0.1414 0.0444
Cd5 Cd 0.86291(6) 0.57935(4) 0.07255(5)
Cd1_3 Cd 0.86291(6) 0.42065(4) 0.57255(5)
N1_3 N 0.8666(7) 0.3298(6) 0.6559(6)
C1_3 C 0.8827(10) 0.3386(7) 0.7330(8)
H3_3 H 0.8907 0.3828 0.7525
C2_3 C 0.8883(10) 0.2872(8) 0.7853(9)
H4_3 H 0.8995 0.2961 0.8396
C3_3 C 0.8776(8) 0.2234(8) 0.7593(9)
C4_3 C 0.8610(8) 0.2129(7) 0.6792(9)
H5_3 H 0.8533 0.1691 0.6587
C5_3 C 0.8558(8) 0.2666(7) 0.6300(7)
H6_3 H 0.8440 0.2589 0.5755
C6_3 C 0.8895(11) 0.1503(15) 0.8078(10)
H7_3 H 0.8389 0.1180 0.7850
H8_3 H 0.9544 0.1305 0.8089
C7_3 C 0.8772(12) 0.1703(12) 0.8798(16)
H9_3 H 0.8113 0.1881 0.8804
H10_3 H 0.9269 0.2029 0.9035
C8_3 C 0.8951(13) 0.0909(17) 0.922(2)
H11_3 H 0.8570 0.0864 0.9648
H12_3 H 0.8734 0.0562 0.8830
O2_3 O 0.8875(7) 0.3354(4) 0.4748(5)
O3_3 O 0.8868(6) 0.4416(5) 0.4465(5)
O4_3 O 0.8736(12) 0.1709(6) 0.2646(6)
H17_3 H 0.8487 0.1355 0.2447
O5_3 O 0.8606(12) 0.2040(6) 0.1418(7)
O6_2 O 0.8343(6) 0.5148(5) 0.1773(5)
O7_2 O 0.8707(6) 0.4519(5) 0.0857(5)
C14_3 C 0.8832(7) 0.3651(6) 0.3420(6)
C15_3 C 0.8757(7) 0.4164(7) 0.2885(7)
H18_3 H 0.8756 0.4612 0.3058
C16_3 C 0.8683(7) 0.4030(6) 0.2104(7)
C17_3 C 0.8708(7) 0.3379(7) 0.1861(7)
H19_3 H 0.8684 0.3288 0.1324
C18_3 C 0.8768(8) 0.2851(7) 0.2384(7)
C19_3 C 0.8830(8) 0.3014(7) 0.3189(7)
H20_3 H 0.8871 0.2667 0.3564
C20_3 C 0.8877(7) 0.3811(7) 0.4276(7)
C21_3 C 0.8720(13) 0.2159(8) 0.2103(11)
C22_3 C 0.8573(8) 0.4592(7) 0.1542(8)
N3_3 N 0.3666(7) 0.1702(6) 0.1559(6)
N4_3 N 0.6972(7) 0.4190(5) 0.5208(6)
C23_3 C 0.3827(10) 0.1614(7) 0.2330(8)
H21_3 H 0.3907 0.1172 0.2525
C24_3 C 0.3883(10) 0.2128(8) 0.2853(9)
H22_3 H 0.3995 0.2039 0.3396
C25_3 C 0.3776(8) 0.2766(8) 0.2593(9)
C26_3 C 0.3610(8) 0.2871(7) 0.1792(9)
H23_3 H 0.3533 0.3309 0.1587
C27_3 C 0.3558(8) 0.2334(7) 0.1300(7)
H24_3 H 0.3440 0.2411 0.0755
C28_3 C 0.3895(11) 0.3497(15) 0.3078(10)
H25_3 H 0.3389 0.3820 0.2850
H26_3 H 0.4544 0.3695 0.3089
C29_3 C 0.3772(12) 0.3297(12) 0.3798(16)
H27_3 H 0.3113 0.3119 0.3804
H28_3 H 0.4269 0.2971 0.4035
C30_3 C 0.3951(13) 0.4091(17) 0.422(2)
H29_3 H 0.3570 0.4136 0.4648
H30_3 H 0.3734 0.4438 0.3830
C31_3 C 0.6627(10) 0.4516(8) 0.4572(8)
H31_3 H 0.7072 0.4771 0.4342
C32_3 C 0.5702(14) 0.4520(11) 0.4220(12)
H32_3 H 0.5511 0.4760 0.3750
C33_3 C 0.5024(14) 0.4172(16) 0.4545(18)
C34_3 C 0.5349(14) 0.3832(14) 0.521(2)
H33_3 H 0.4900 0.3586 0.5444
C35_3 C 0.6362(11) 0.3832(8) 0.5563(10)
H34_3 H 0.6588 0.3591 0.6027
O8_2 O 0.8875(7) 0.6646(4) 0.9748(5)
O9_2 O 0.8868(6) 0.5584(5) 0.9465(5)
O10_3 O 0.8736(12) 0.8291(6) 0.7646(6)
H35_3 H 0.8487 0.8645 0.7447
O11_3 O 0.8606(12) 0.7960(6) 0.6418(7)
O12_3 O 0.8343(6) 0.4852(5) 0.6773(5)
O13_3 O 0.8707(6) 0.5481(5) 0.5857(5)
C36_3 C 0.8832(7) 0.6349(6) 0.8420(6)
C37_3 C 0.8757(7) 0.5836(7) 0.7885(7)
H36_3 H 0.8756 0.5388 0.8058
C38_3 C 0.8683(7) 0.5970(6) 0.7104(7)
C39_3 C 0.8708(7) 0.6621(7) 0.6861(7)
H37_3 H 0.8684 0.6712 0.6324
C40_3 C 0.8768(8) 0.7149(7) 0.7384(7)
C41_3 C 0.8830(8) 0.6986(7) 0.8189(7)
H38_3 H 0.8871 0.7333 0.8564
C42_3 C 0.8877(7) 0.6189(7) 0.9276(7)
C43_3 C 0.8720(13) 0.7841(8) 0.7103(11)
C44_3 C 0.8573(8) 0.5408(7) 0.6542(8)
O14_3 O 0.5290(6) 0.0568(4) 0.1075(5)
H39_3 H 0.544(8) 0.020(3) 0.085(4)
H40_3 H 0.541(8) 0.052(4) 0.1583(9)
O17_2 O 0.3343(6) 0.0148(5) 0.1773(5)
O15_2 O 0.3875(7) 0.1646(4) 0.9748(5)
O16_2 O 0.3868(6) 0.0584(5) 0.9465(5)
O18_2 O 0.3707(6) 0.9519(5) 0.0857(5)
O10_4 O 0.3736(12) 0.3291(6) 0.7646(6)
H35_4 H 0.3487 0.3645 0.7447
O11_4 O 0.3606(12) 0.2960(6) 0.6418(7)
O13_4 O 0.3707(6) 0.0481(5) 0.5857(5)
C36_4 C 0.3832(7) 0.1349(6) 0.8420(6)
C37_4 C 0.3757(7) 0.0836(7) 0.7885(7)
H36_4 H 0.3756 0.0388 0.8058
C38_4 C 0.3683(7) 0.0970(6) 0.7104(7)
C39_4 C 0.3708(7) 0.1621(7) 0.6861(7)
H37_4 H 0.3684 0.1712 0.6324
C40_4 C 0.3768(8) 0.2149(7) 0.7384(7)
C41_4 C 0.3830(8) 0.1986(7) 0.8189(7)
H38_4 H 0.3871 0.2333 0.8564
C42_4 C 0.3877(7) 0.1189(7) 0.9276(7)
C43_4 C 0.3720(13) 0.2841(8) 0.7103(11)
C44_4 C 0.3573(8) 0.0408(7) 0.6542(8)
N2_2 N 0.6972(7) 0.5810(5) 0.0208(6)
C12_4 C 0.5349(14) 0.6168(14) 0.021(2)
H15_4 H 0.4900 0.6414 0.0444
C13_4 C 0.6362(11) 0.6168(8) 0.0563(10)
H16_4 H 0.6588 0.6409 0.1027
Cd1_4 Cd 0.36291(6) 0.92065(4) 0.57255(5)
O1_4 O 0.5290(6) 0.9432(4) 0.6075(5)
H1_4 H 0.544(8) 0.980(3) 0.585(4)
H2_4 H 0.541(8) 0.948(4) 0.6583(9)
N1_4 N 0.3666(7) 0.8298(6) 0.6559(6)
C1_4 C 0.3827(10) 0.8386(7) 0.7330(8)
H3_4 H 0.3907 0.8828 0.7525
C2_4 C 0.3883(10) 0.7872(8) 0.7853(9)
H4_4 H 0.3995 0.7961 0.8396
C3_4 C 0.3776(8) 0.7234(8) 0.7593(9)
C4_4 C 0.3610(8) 0.7129(7) 0.6792(9)
H5_4 H 0.3533 0.6691 0.6587
C5_4 C 0.3558(8) 0.7666(7) 0.6300(7)
H6_4 H 0.3440 0.7589 0.5755
C6_4 C 0.3895(11) 0.6503(15) 0.8078(10)
H7_4 H 0.3389 0.6180 0.7850
H8_4 H 0.4544 0.6305 0.8089
C7_4 C 0.3772(12) 0.6703(12) 0.8798(16)
H9_4 H 0.3113 0.6881 0.8804
H10_4 H 0.4269 0.7029 0.9035
C8_4 C 0.3951(13) 0.5909(17) 0.922(2)
H11_4 H 0.3570 0.5864 0.9648
H12_4 H 0.3734 0.5562 0.8830
C9_4 C 0.6627(10) 0.5484(8) 0.9572(8)
H13_4 H 0.7072 0.5229 0.9342
C10_4 C 0.5702(14) 0.5480(11) 0.9220(12)
H14_4 H 0.5511 0.5240 0.8750
C11_4 C 0.5024(14) 0.5828(16) 0.9545(18)
O2_4 O 0.3875(7) 0.8354(4) 0.4748(5)
O3_4 O 0.3868(6) 0.9416(5) 0.4465(5)
O4_4 O 0.3736(12) 0.6709(6) 0.2646(6)
H17_4 H 0.3487 0.6355 0.2447
O5_4 O 0.3606(12) 0.7040(6) 0.1418(7)
C14_4 C 0.3832(7) 0.8651(6) 0.3420(6)
C15_4 C 0.3757(7) 0.9164(7) 0.2885(7)
H18_4 H 0.3756 0.9612 0.3058
C16_4 C 0.3683(7) 0.9030(6) 0.2104(7)
C17_4 C 0.3708(7) 0.8379(7) 0.1861(7)
H19_4 H 0.3684 0.8288 0.1324
C18_4 C 0.3768(8) 0.7851(7) 0.2384(7)
C19_4 C 0.3830(8) 0.8014(7) 0.3189(7)
H20_4 H 0.3871 0.7667 0.3564
C20_4 C 0.3877(7) 0.8811(7) 0.4276(7)
C21_4 C 0.3720(13) 0.7159(8) 0.2103(11)
C22_4 C 0.3573(8) 0.9592(7) 0.1542(8)
N4_4 N 0.1972(7) 0.9190(5) 0.5208(6)
C31_4 C 0.1627(10) 0.9516(8) 0.4572(8)
H31_4 H 0.2072 0.9771 0.4342
C32_4 C 0.0702(14) 0.9520(11) 0.4220(12)
H32_4 H 0.0511 0.9760 0.3750
C33_4 C 0.0024(14) 0.9172(16) 0.4545(18)
C34_4 C 0.0349(14) 0.8832(14) 0.521(2)
C35_4 C 0.1362(11) 0.8832(8) 0.5563(10)
H34_4 H 0.1588 0.8591 0.6027
O12_4 O 0.3343(6) 0.9852(5) 0.6773(5)
O14_4 O 0.0290(6) 0.5568(4) 0.1075(5)
H39_4 H 0.044(8) 0.520(3) 0.085(4)
H40_4 H 0.041(8) 0.552(4) 0.1583(9)
N3_4 N 0.8666(7) 0.6702(6) 0.1559(6)
C23_4 C 0.8827(10) 0.6614(7) 0.2330(8)
H21_4 H 0.8907 0.6172 0.2525
C24_4 C 0.8883(10) 0.7128(8) 0.2853(9)
H22_4 H 0.8995 0.7039 0.3396
C25_4 C 0.8776(8) 0.7766(8) 0.2593(9)
C26_4 C 0.8610(8) 0.7871(7) 0.1792(9)
H23_4 H 0.8533 0.8309 0.1587
C27_4 C 0.8558(8) 0.7334(7) 0.1300(7)
H24_4 H 0.8440 0.7411 0.0755
C28_4 C 0.8895(11) 0.8497(15) 0.3078(10)
H25_4 H 0.8389 0.8820 0.2850
H26_4 H 0.9544 0.8695 0.3089
C29_4 C 0.8772(12) 0.8297(12) 0.3798(16)
H27_4 H 0.8113 0.8119 0.3804
H28_4 H 0.9269 0.7971 0.4035
C30_4 C 0.8951(13) 0.9091(17) 0.422(2)
H29_4 H 0.8570 0.9136 0.4648
H30_4 H 0.8734 0.9438 0.3830
H33_4 H 0.9900 0.8586 0.5444
loop_
_geom_bond_atom_site_label_1
_geom_bond_atom_site_label_2
_geom_bond_site_symmetry_1
_geom_bond_site_symmetry_2
O4 H17 1_555 1_555
O5 C21 1_555 1_555
O6 C22 1_555 1_555
O7 C22 1_555 1_555
C14 C15 1_555 1_555
C15 H18 1_555 1_555
C16 C15 1_555 1_555
C17 C16 1_555 1_555
H19 C17 1_555 1_555
C18 C17 1_555 1_555
C19 C14 1_555 1_555
H20 C19 1_555 1_555
C20 O2 1_555 1_555
C21 O4 1_555 1_555
C22 C16 1_555 1_555
N3 C23 1_555 1_555
C23 H21 1_555 1_555
C24 C23 1_555 1_555
H22 C24 1_555 1_555
C25 C24 1_555 1_555
C26 C25 1_555 1_555
H23 C26 1_555 1_555
C27 N3 1_555 1_555
H24 C27 1_555 1_555
C28 C25 1_555 1_555
H25 C28 1_555 1_555
H26 C28 1_555 1_555
C29 C28 1_555 1_555
H27 C29 1_555 1_555
H28 C29 1_555 1_555
C30 C29 1_555 1_555
H29 C30 1_555 1_555
H30 C30 1_555 1_555
H31 C31 1_555 1_555
C32 C31 1_555 1_555
H32 C32 1_555 1_555
C33 C30 1_555 1_555
Cd2 N3 1_555 1_555
O14 Cd2 1_555 1_555
H39 O14 1_555 1_555
H40 O14 1_555 1_555
Cd4 O6 1_555 1_555
N5 Cd2 1_555 1_555
O15 Cd2 1_555 1_555
O16 Cd2 1_555 1_555
O17 Cd2 1_555 1_555
O3 C20 1_555 1_555
O7 Cd4 1_555 1_555
C14 C20 1_555 1_555
C18 C19 1_555 1_555
C18 C21 1_555 1_555
C26 C27 1_555 1_555
C32 C33 1_555 1_555
N1 Cd1 1_555 1_555
C1 N1 1_555 1_555
H3 C1 1_555 1_555
C2 C1 1_555 1_555
H4 C2 1_555 1_555
C3 C2 1_555 1_555
C4 C3 1_555 1_555
H5 C4 1_555 1_555
C5 N1 1_555 1_555
H6 C5 1_555 1_555
C6 C3 1_555 1_555
H7 C6 1_555 1_555
H8 C6 1_555 1_555
C7 C6 1_555 1_555
H9 C7 1_555 1_555
H10 C7 1_555 1_555
C8 C7 1_555 1_555
H11 C8 1_555 1_555
H12 C8 1_555 1_555
N4 Cd1 1_555 1_555
H33 C34 1_555 1_555
C35 N4 1_555 1_555
H34 C35 1_555 1_555
O8 C42 1_555 1_555
O9 C42 1_555 1_555
O10 H35 1_555 1_555
O11 C43 1_555 1_555
O12 Cd1 1_555 1_555
O13 Cd1 1_555 1_555
C36 C37 1_555 1_555
C37 H36 1_555 1_555
C38 C37 1_555 1_555
C39 C38 1_555 1_555
H37 C39 1_555 1_555
C40 C39 1_555 1_555
C41 C36 1_555 1_555
H38 C41 1_555 1_555
C42 C36 1_555 1_555
C43 O10 1_555 1_555
C44 O12 1_555 1_555
Cd4 O8 1_555 1_555
C4 C5 1_555 1_555
C34 C35 1_555 1_555
O9 Cd4 1_555 1_555
O13 C44 1_555 1_555
C38 C44 1_555 1_555
C40 C41 1_555 1_555
C40 C43 1_555 1_555
O1 H1 1_555 1_555
H2 O1 1_555 1_555
N5 C9 1_555 1_555
C9 H13 1_555 1_555
C10 C9 1_555 1_555
H14 C10 1_555 1_555
C12 C11 1_555 1_555
C13 N5 1_555 1_555
H16 C13 1_555 1_555
C10 C11 1_555 1_555
C12 C13 1_555 1_555
N3_2 C23_2 1_555 1_555
C23_2 H21_2 1_555 1_555
C24_2 C23_2 1_555 1_555
H22_2 C24_2 1_555 1_555
C25_2 C24_2 1_555 1_555
C26_2 C25_2 1_555 1_555
H23_2 C26_2 1_555 1_555
C27_2 N3_2 1_555 1_555
H24_2 C27_2 1_555 1_555
C28_2 C25_2 1_555 1_555
H25_2 C28_2 1_555 1_555
H26_2 C28_2 1_555 1_555
C29_2 C28_2 1_555 1_555
H27_2 C29_2 1_555 1_555
H28_2 C29_2 1_555 1_555
C30_2 C29_2 1_555 1_555
H29_2 C30_2 1_555 1_555
H30_2 C30_2 1_555 1_555
Cd4 N3_2 1_555 1_555
N5_2 Cd4 1_555 1_555
C26_2 C27_2 1_555 1_555
O15 C42_2 1_555 1_555
O16 C42_2 1_555 1_555
O10_2 H35_2 1_555 1_555
O11_2 C43_2 1_555 1_555
C36_2 C37_2 1_555 1_555
C37_2 H36_2 1_555 1_555
C38_2 C37_2 1_555 1_555
C39_2 C38_2 1_555 1_555
H37_2 C39_2 1_555 1_555
C40_2 C39_2 1_555 1_555
C41_2 C36_2 1_555 1_555
H38_2 C41_2 1_555 1_555
C42_2 C36_2 1_555 1_555
C43_2 O10_2 1_555 1_555
O13_2 C44_2 1_555 1_555
C38_2 C44_2 1_555 1_555
C40_2 C41_2 1_555 1_555
C40_2 C43_2 1_555 1_555
O4_2 H17_2 1_555 1_555
O5_2 C21_2 1_555 1_555
O18 C22_2 1_555 1_555
C14_2 C15_2 1_555 1_555
C15_2 H18_2 1_555 1_555
C16_2 C15_2 1_555 1_555
C17_2 C16_2 1_555 1_555
H19_2 C17_2 1_555 1_555
C18_2 C17_2 1_555 1_555
C19_2 C14_2 1_555 1_555
H20_2 C19_2 1_555 1_555
C20_2 O2_2 1_555 1_555
C21_2 O4_2 1_555 1_555
C22_2 C16_2 1_555 1_555
H31_2 C31_2 1_555 1_555
C32_2 C31_2 1_555 1_555
H32_2 C32_2 1_555 1_555
H39_2 O14_2 1_555 1_555
H40_2 O14_2 1_555 1_555
O3_2 C20_2 1_555 1_555
C14_2 C20_2 1_555 1_555
C18_2 C19_2 1_555 1_555
C18_2 C21_2 1_555 1_555
C32_2 C33_2 1_555 1_555
Cd1_2 O1_2 1_555 1_555
O1_2 H1_2 1_555 1_555
H2_2 O1_2 1_555 1_555
N1_2 Cd1_2 1_555 1_555
N5_2 C9_2 1_555 1_555
C1_2 N1_2 1_555 1_555
H3_2 C1_2 1_555 1_555
C2_2 C1_2 1_555 1_555
H4_2 C2_2 1_555 1_555
C3_2 C2_2 1_555 1_555
C4_2 C3_2 1_555 1_555
H5_2 C4_2 1_555 1_555
C5_2 N1_2 1_555 1_555
H6_2 C5_2 1_555 1_555
C6_2 C3_2 1_555 1_555
H7_2 C6_2 1_555 1_555
H8_2 C6_2 1_555 1_555
C7_2 C6_2 1_555 1_555
H9_2 C7_2 1_555 1_555
H10_2 C7_2 1_555 1_555
C8_2 C7_2 1_555 1_555
H11_2 C8_2 1_555 1_555
H12_2 C8_2 1_555 1_555
C9_2 H13_2 1_555 1_555
C10_2 C9_2 1_555 1_555
H14_2 C10_2 1_555 1_555
C11_2 C8_2 1_555 1_555
C12_2 C11_2 1_555 1_555
H15_2 C12_2 1_555 1_555
C13_2 N5_2 1_555 1_555
H16_2 C13_2 1_555 1_555
N4_2 Cd1_2 1_555 1_555
C35_2 N4_2 1_555 1_555
H34_2 C35_2 1_555 1_555
O12_2 Cd1_2 1_555 1_555
C4_2 C5_2 1_555 1_555
C10_2 C11_2 1_555 1_555
C12_2 C13_2 1_555 1_555
C34_2 C35_2 1_555 1_555
C13_3 N2 1_555 1_555
H16_3 C13_3 1_555 1_555
Cd3 N2 1_555 1_555
C12_3 C13_3 1_555 1_555
O1_3 H1_3 1_555 1_555
H2_3 O1_3 1_555 1_555
C9_3 H13_3 1_555 1_555
C10_3 C9_3 1_555 1_555
H14_3 C10_3 1_555 1_555
C10_3 C11_3 1_555 1_555
N1_3 Cd1_3 1_555 1_555
C1_3 N1_3 1_555 1_555
H3_3 C1_3 1_555 1_555
C2_3 C1_3 1_555 1_555
H4_3 C2_3 1_555 1_555
C3_3 C2_3 1_555 1_555
C4_3 C3_3 1_555 1_555
H5_3 C4_3 1_555 1_555
C5_3 N1_3 1_555 1_555
H6_3 C5_3 1_555 1_555
C6_3 C3_3 1_555 1_555
H7_3 C6_3 1_555 1_555
H8_3 C6_3 1_555 1_555
C7_3 C6_3 1_555 1_555
H9_3 C7_3 1_555 1_555
H10_3 C7_3 1_555 1_555
C8_3 C7_3 1_555 1_555
H11_3 C8_3 1_555 1_555
H12_3 C8_3 1_555 1_555
O2_3 Cd1_3 1_555 1_555
O3_3 Cd1_3 1_555 1_555
O4_3 H17_3 1_555 1_555
O5_3 C21_3 1_555 1_555
O6_2 C22_3 1_555 1_555
O7_2 C22_3 1_555 1_555
C14_3 C15_3 1_555 1_555
C15_3 H18_3 1_555 1_555
C16_3 C15_3 1_555 1_555
C17_3 C16_3 1_555 1_555
H19_3 C17_3 1_555 1_555
C18_3 C17_3 1_555 1_555
C19_3 C14_3 1_555 1_555
H20_3 C19_3 1_555 1_555
C20_3 O2_3 1_555 1_555
C21_3 O4_3 1_555 1_555
C22_3 C16_3 1_555 1_555
N3_3 C23_3 1_555 1_555
N4_3 Cd1_3 1_555 1_555
C23_3 H21_3 1_555 1_555
C24_3 C23_3 1_555 1_555
H22_3 C24_3 1_555 1_555
C25_3 C24_3 1_555 1_555
C26_3 C25_3 1_555 1_555
H23_3 C26_3 1_555 1_555
C27_3 N3_3 1_555 1_555
H24_3 C27_3 1_555 1_555
C28_3 C25_3 1_555 1_555
H25_3 C28_3 1_555 1_555
H26_3 C28_3 1_555 1_555
C29_3 C28_3 1_555 1_555
H27_3 C29_3 1_555 1_555
H28_3 C29_3 1_555 1_555
C30_3 C29_3 1_555 1_555
H29_3 C30_3 1_555 1_555
H30_3 C30_3 1_555 1_555
C31_3 N4_3 1_555 1_555
H31_3 C31_3 1_555 1_555
C32_3 C31_3 1_555 1_555
H32_3 C32_3 1_555 1_555
C33_3 C30_3 1_555 1_555
C34_3 C33_3 1_555 1_555
H33_3 C34_3 1_555 1_555
C35_3 N4_3 1_555 1_555
H34_3 C35_3 1_555 1_555
O8_2 C42_3 1_555 1_555
O9_2 C42_3 1_555 1_555
O10_3 H35_3 1_555 1_555
O11_3 C43_3 1_555 1_555
O12_3 Cd1_3 1_555 1_555
O13_3 Cd1_3 1_555 1_555
C36_3 C37_3 1_555 1_555
C37_3 H36_3 1_555 1_555
C38_3 C37_3 1_555 1_555
C39_3 C38_3 1_555 1_555
H37_3 C39_3 1_555 1_555
C40_3 C39_3 1_555 1_555
C41_3 C36_3 1_555 1_555
H38_3 C41_3 1_555 1_555
C42_3 C36_3 1_555 1_555
C43_3 O10_3 1_555 1_555
C44_3 O12_3 1_555 1_555
Cd3 N3_3 1_555 1_555
O14_3 Cd3 1_555 1_555
H39_3 O14_3 1_555 1_555
H40_3 O14_3 1_555 1_555
Cd5 O6_2 1_555 1_555
O17_2 Cd3 1_555 1_555
C4_3 C5_3 1_555 1_555
O3_3 C20_3 1_555 1_555
O7_2 Cd5 1_555 1_555
C14_3 C20_3 1_555 1_555
C18_3 C19_3 1_555 1_555
C18_3 C21_3 1_555 1_555
C26_3 C27_3 1_555 1_555
C32_3 C33_3 1_555 1_555
C34_3 C35_3 1_555 1_555
O13_3 C44_3 1_555 1_555
C38_3 C44_3 1_555 1_555
C40_3 C41_3 1_555 1_555
C40_3 C43_3 1_555 1_555
O15_2 C42_4 1_555 1_555
O16_2 C42_4 1_555 1_555
O10_4 H35_4 1_555 1_555
O11_4 C43_4 1_555 1_555
C36_4 C37_4 1_555 1_555
C37_4 H36_4 1_555 1_555
C38_4 C37_4 1_555 1_555
C39_4 C38_4 1_555 1_555
H37_4 C39_4 1_555 1_555
C40_4 C39_4 1_555 1_555
C41_4 C36_4 1_555 1_555
H38_4 C41_4 1_555 1_555
C42_4 C36_4 1_555 1_555
C43_4 O10_4 1_555 1_555
O13_4 C44_4 1_555 1_555
C38_4 C44_4 1_555 1_555
C40_4 C41_4 1_555 1_555
C40_4 C43_4 1_555 1_555
H15_4 C12_4 1_555 1_555
C13_4 N2_2 1_555 1_555
H16_4 C13_4 1_555 1_555
Cd5 N2_2 1_555 1_555
C12_4 C13_4 1_555 1_555
Cd1_4 O1_4 1_555 1_555
O1_4 H1_4 1_555 1_555
H2_4 O1_4 1_555 1_555
N1_4 Cd1_4 1_555 1_555
C1_4 N1_4 1_555 1_555
H3_4 C1_4 1_555 1_555
C2_4 C1_4 1_555 1_555
H4_4 C2_4 1_555 1_555
C3_4 C2_4 1_555 1_555
C4_4 C3_4 1_555 1_555
H5_4 C4_4 1_555 1_555
C5_4 N1_4 1_555 1_555
H6_4 C5_4 1_555 1_555
C6_4 C3_4 1_555 1_555
H7_4 C6_4 1_555 1_555
H8_4 C6_4 1_555 1_555
C7_4 C6_4 1_555 1_555
H9_4 C7_4 1_555 1_555
H10_4 C7_4 1_555 1_555
C8_4 C7_4 1_555 1_555
H11_4 C8_4 1_555 1_555
H12_4 C8_4 1_555 1_555
C9_4 H13_4 1_555 1_555
C10_4 C9_4 1_555 1_555
H14_4 C10_4 1_555 1_555
C11_4 C8_4 1_555 1_555
O2_4 Cd1_4 1_555 1_555
O3_4 Cd1_4 1_555 1_555
O4_4 H17_4 1_555 1_555
O5_4 C21_4 1_555 1_555
O18_2 C22_4 1_555 1_555
C14_4 C15_4 1_555 1_555
C15_4 H18_4 1_555 1_555
C16_4 C15_4 1_555 1_555
C17_4 C16_4 1_555 1_555
H19_4 C17_4 1_555 1_555
C18_4 C17_4 1_555 1_555
C19_4 C14_4 1_555 1_555
H20_4 C19_4 1_555 1_555
C20_4 O2_4 1_555 1_555
C21_4 O4_4 1_555 1_555
C22_4 C16_4 1_555 1_555
N4_4 Cd1_4 1_555 1_555
C31_4 N4_4 1_555 1_555
H31_4 C31_4 1_555 1_555
C32_4 C31_4 1_555 1_555
H32_4 C32_4 1_555 1_555
C34_4 C33_4 1_555 1_555
C35_4 N4_4 1_555 1_555
H34_4 C35_4 1_555 1_555
O12_4 Cd1_4 1_555 1_555
H39_4 O14_4 1_555 1_555
H40_4 O14_4 1_555 1_555
C4_4 C5_4 1_555 1_555
C10_4 C11_4 1_555 1_555
O3_4 C20_4 1_555 1_555
C14_4 C20_4 1_555 1_555
C18_4 C19_4 1_555 1_555
C18_4 C21_4 1_555 1_555
C32_4 C33_4 1_555 1_555
C34_4 C35_4 1_555 1_555
N3_4 C23_4 1_555 1_555
C23_4 H21_4 1_555 1_555
C24_4 C23_4 1_555 1_555
H22_4 C24_4 1_555 1_555
C25_4 C24_4 1_555 1_555
C26_4 C25_4 1_555 1_555
H23_4 C26_4 1_555 1_555
C27_4 N3_4 1_555 1_555
H24_4 C27_4 1_555 1_555
C28_4 C25_4 1_555 1_555
H25_4 C28_4 1_555 1_555
H26_4 C28_4 1_555 1_555
C29_4 C28_4 1_555 1_555
H27_4 C29_4 1_555 1_555
H28_4 C29_4 1_555 1_555
C30_4 C29_4 1_555 1_555
H29_4 C30_4 1_555 1_555
H30_4 C30_4 1_555 1_555
Cd5 N3_4 1_555 1_555
C26_4 C27_4 1_555 1_555

#END
