
###############################################################################
#
# This file contains modified crystal structure data generated from the
# MOF subset of the Cambridge Structural Database (CSD) v543 
# hosted by the Cambridge Crystallographic Data Centre (CCDC).
#
# This work is licensed under the Creative Commons
# Attribution-NonCommercial-ShareAlike 4.0 International License.
# To view a copy of this license, visit
# http://creativecommons.org/licenses/by-nc-sa/4.0/
# or send a letter to
# Creative Commons, PO Box 1866, Mountain View, CA 94042, USA.
#
# CIF created using the CSD Python API on 29 September 2022
# The structure has been converted into the P1 space group
# The structure has a 3D framework
# The original CSD entry NABNUA is in the monoclinic crystal system
# The framework has been calculated to contain at least 10.0% void space
# The void calculation uses a probe of radius 1.32A, grid spacing 0.4
#
###############################################################################

data_NABNUA
_chemical_formula_moiety         '(C140 H124 Cd8 N20 O32)n'
_symmetry_cell_setting           triclinic
_symmetry_space_group_name_H-M   'P 1'
_symmetry_Int_Tables_number      1
_space_group_name_Hall           'P 1'
loop_
_symmetry_equiv_pos_site_id
_symmetry_equiv_pos_as_xyz
1 x,y,z
_cell_length_a                   9.8976(2)
_cell_length_b                   14.5822(4)
_cell_length_c                   26.5732(7)
_cell_angle_alpha                90
_cell_angle_beta                 91.930(1)
_cell_angle_gamma                90
_cell_volume                     3833.1
loop_
_atom_site_label
_atom_site_type_symbol
_atom_site_fract_x
_atom_site_fract_y
_atom_site_fract_z
Cd1 Cd 0.22199(7) 0.12533(5) 0.44561(3)
Cd2 Cd 0.20516(8) 0.36894(5) 0.41556(3)
O2 O 0.0845(7) 0.2583(5) 0.4509(3)
N1 N 0.2399(8) 0.1224(6) 0.5330(3)
C10 C 0.2396(11) 0.2027(8) 0.5584(4)
H4 H 0.2191 0.2579 0.5407
C11 C 0.2687(12) 0.2061(9) 0.6098(4)
H5 H 0.2677 0.2636 0.6266
C12 C 0.2985(11) 0.1294(10) 0.6363(4)
C13 C 0.2971(15) 0.0470(10) 0.6106(5)
C14 C 0.2691(13) 0.0479(8) 0.5591(4)
C15 C 0.3329(14) 0.1361(13) 0.6917(4)
H8 H 0.3682 0.0759 0.7032
H9 H 0.4069 0.1812 0.6965
C16 C 0.2215(13) 0.1627(10) 0.7246(4)
H10 H 0.2586 0.1697 0.7595
H11 H 0.1862 0.2232 0.7136
C17 C 0.1076(14) 0.0968(10) 0.7250(4)
H12 H 0.1455 0.0342 0.7284
H13 H 0.0587 0.1001 0.6919
C19 C 0.0557(12) 0.1078(9) 0.8177(5)
H15 H 0.1490 0.0984 0.8256
C20 C 0.0054(13) 0.1104(9) 0.7660(4)
N3 N 0.2257(9) 0.1270(6) 0.3571(3)
N4 N 0.2758(9) 0.4673(6) 0.0604(3)
C23 C 0.3409(12) 0.1153(9) 0.3333(4)
H18 H 0.4234 0.1144 0.3526
C24 C 0.3455(15) 0.1045(10) 0.2818(5)
H19 H 0.4301 0.0956 0.2666
C25 C 0.2273(13) 0.1064(8) 0.2517(4)
C26 C 0.1074(13) 0.1203(9) 0.2772(4)
H20 H 0.0237 0.1237 0.2587
C27 C 0.1096(11) 0.1291(9) 0.3291(4)
H21 H 0.0266 0.1368 0.3455
C28 C 0.2287(15) 0.0991(7) 0.1957(4)
H22 H 0.1422 0.0727 0.1828
H23 H 0.3028 0.0578 0.1859
C29 C 0.2489(14) 0.1941(8) 0.1727(4)
H24 H 0.3341 0.2210 0.1866
H25 H 0.1737 0.2347 0.1821
C30 C 0.2545(14) 0.1899(7) 0.1152(4)
H26 H 0.3352 0.1547 0.1055
H27 H 0.1734 0.1578 0.1013
C31 C 0.1580(12) 0.4251(7) 0.0650(4)
H28 H 0.0779 0.4585 0.0568
C32 C 0.1445(11) 0.3335(7) 0.0813(4)
H29 H 0.0581 0.3060 0.0840
C33 C 0.2607(11) 0.2856(7) 0.0933(4)
C34 C 0.3845(13) 0.3280(8) 0.0872(5)
H30 H 0.4666 0.2957 0.0937
C35 C 0.3857(9) 0.4176(7) 0.0715(4)
H31 H 0.4712 0.4463 0.0684
O9 O 0.0449(9) 0.4645(8) 0.3733(4)
O10 O 0.4666(7) 0.1319(4) 0.4462(2)
O11 O 0.3609(7) 0.2645(5) 0.4521(3)
O12 O 0.1610(8) 0.4684(5) 0.4787(3)
O13 O 0.3594(8) 0.4980(5) 0.4464(3)
N7 N 0.3313(9) 0.3651(6) 0.3457(3)
Cd7 Cd 0.27801(7) 0.62533(5) 0.05439(3)
H6 H 0.3150 0.9910 0.6278
H7 H 0.2712 0.9911 0.5416
N6 N 0.2242(9) 0.9673(6) 0.4396(3)
O1 O 0.9695(7) 0.1303(5) 0.4408(3)
O3 O 0.8390(8) 0.5316(5) 0.5213(3)
O4 O 0.6406(8) 0.5020(5) 0.5536(3)
C1 C 0.8449(10) 0.2643(6) 0.4588(3)
C2 C 0.8478(10) 0.3518(6) 0.4808(4)
H1 H 0.9314 0.3828 0.4860
C3 C 0.7275(10) 0.3934(6) 0.4950(4)
C4 C 0.6060(10) 0.3507(7) 0.4853(4)
H2 H 0.5241 0.3795 0.4943
C5 C 0.6033(10) 0.2645(6) 0.4622(3)
C6 C 0.7212(9) 0.2217(7) 0.4503(3)
H3 H 0.7181 0.1621 0.4359
C7 C 0.9721(10) 0.2146(7) 0.4489(4)
C8 C 0.7345(10) 0.4821(7) 0.5249(4)
C9 C 0.4694(9) 0.2185(7) 0.4528(3)
N2 N 0.8313(9) 0.1349(6) 0.8457(3)
C18 C 0.9659(11) 0.1190(9) 0.8541(4)
H14 H 0.9986 0.1158 0.8880
C21 C 0.8710(14) 0.1251(8) 0.7577(4)
H16 H 0.8343 0.1271 0.7242
C22 C 0.7876(12) 0.1374(8) 0.7978(4)
H17 H 0.6941 0.1481 0.7909
N5 N 0.9733(13) 0.4161(11) 0.3434(5)
O7 O 0.8906(11) 0.4527(9) 0.3145(5)
O8 O 0.9972(12) 0.3351(9) 0.3451(5)
Cd3 Cd 0.79484(8) 0.63106(5) 0.58444(3)
Cd6 Cd 0.70516(8) 0.13106(5) 0.91556(3)
O5 O 0.0334(7) 0.6319(4) 0.0538(2)
O6 O 0.1391(7) 0.7645(5) 0.0479(3)
C9_2 C 0.0306(9) 0.7185(7) 0.0472(3)
Cd5 Cd 0.29484(8) 0.86894(5) 0.08444(3)
O3_2 O 0.6610(8) 0.0316(5) 0.9787(3)
O4_2 O 0.8594(8) 0.0020(5) 0.9464(3)
O1_2 O 0.5305(7) 0.6303(5) 0.0592(3)
O2_2 O 0.4155(7) 0.7583(5) 0.0491(3)
C1_2 C 0.6551(10) 0.7643(6) 0.0412(3)
C2_2 C 0.6522(10) 0.8518(6) 0.0192(4)
H1_2 H 0.5686 0.8828 0.0140
C3_2 C 0.7725(10) 0.8934(6) 0.0050(4)
C4_2 C 0.8940(10) 0.8507(7) 0.0147(4)
H2_2 H 0.9759 0.8795 0.0057
C5_2 C 0.8967(10) 0.7645(6) 0.0378(3)
C6_2 C 0.7788(9) 0.7217(7) 0.0497(3)
H3_2 H 0.7819 0.6621 0.0641
C7_2 C 0.5279(10) 0.7146(7) 0.0511(4)
N3_2 N 0.2743(9) 0.6270(6) 0.1429(3)
C23_2 C 0.1591(12) 0.6153(9) 0.1667(4)
H18_2 H 0.0766 0.6144 0.1474
C24_2 C 0.1545(15) 0.6045(10) 0.2182(5)
H19_2 H 0.0699 0.5956 0.2334
C25_2 C 0.2727(13) 0.6064(8) 0.2483(4)
C26_2 C 0.3926(13) 0.6203(9) 0.2228(4)
H20_2 H 0.4763 0.6237 0.2413
C27_2 C 0.3904(11) 0.6291(9) 0.1709(4)
H21_2 H 0.4734 0.6368 0.1545
C28_2 C 0.2713(15) 0.5991(7) 0.3043(4)
H22_2 H 0.3578 0.5727 0.3172
H23_2 H 0.1972 0.5578 0.3141
C29_2 C 0.2511(14) 0.6941(8) 0.3273(4)
H24_2 H 0.1659 0.7210 0.3134
H25_2 H 0.3263 0.7347 0.3179
C30_2 C 0.2455(14) 0.6899(7) 0.3848(4)
H26_2 H 0.1648 0.6547 0.3945
H27_2 H 0.3266 0.6578 0.3987
C31_2 C 0.3420(12) 0.9251(7) 0.4350(4)
H28_2 H 0.4221 0.9585 0.4432
C32_2 C 0.3555(11) 0.8335(7) 0.4187(4)
H29_2 H 0.4419 0.8060 0.4160
C33_2 C 0.2393(11) 0.7856(7) 0.4067(4)
C34_2 C 0.1155(13) 0.8280(8) 0.4128(5)
H30_2 H 0.0334 0.7957 0.4063
C35_2 C 0.1143(9) 0.9176(7) 0.4285(4)
H31_2 H 0.0288 0.9463 0.4316
N5_2 N 0.5267(13) 0.9161(11) 0.1566(5)
O7_2 O 0.6094(11) 0.9527(9) 0.1855(5)
O8_2 O 0.5028(12) 0.8351(9) 0.1549(5)
O9_2 O 0.4551(9) 0.9645(8) 0.1267(4)
O12_2 O 0.3390(8) 0.9684(5) 0.0213(3)
O13_2 O 0.1406(8) 0.9980(5) 0.0536(3)
N7_2 N 0.1687(9) 0.8651(6) 0.1543(3)
C8_2 C 0.7655(10) 0.9821(7) 0.9751(4)
N1_2 N 0.2601(8) 0.6224(6) 0.9670(3)
N2_2 N 0.6687(9) 0.6349(6) 0.6543(3)
C10_2 C 0.2604(11) 0.7027(8) 0.9416(4)
H4_2 H 0.2809 0.7579 0.9593
C11_2 C 0.2313(12) 0.7061(9) 0.8902(4)
H5_2 H 0.2323 0.7636 0.8734
C12_2 C 0.2015(11) 0.6294(10) 0.8637(4)
C13_2 C 0.2029(15) 0.5470(10) 0.8894(5)
H6_2 H 0.1850 0.4910 0.8722
C14_2 C 0.2309(13) 0.5479(8) 0.9409(4)
H7_2 H 0.2288 0.4911 0.9584
C15_2 C 0.1671(14) 0.6361(13) 0.8083(4)
H8_2 H 0.1318 0.5759 0.7968
H9_2 H 0.0931 0.6812 0.8035
C16_2 C 0.2785(13) 0.6627(10) 0.7754(4)
H10_2 H 0.2414 0.6697 0.7405
H11_2 H 0.3138 0.7232 0.7864
C17_2 C 0.3924(14) 0.5968(10) 0.7750(4)
H12_2 H 0.3545 0.5342 0.7716
H13_2 H 0.4413 0.6001 0.8081
C18_2 C 0.5341(11) 0.6190(9) 0.6459(4)
H14_2 H 0.5014 0.6158 0.6120
C19_2 C 0.4443(12) 0.6078(9) 0.6823(5)
H15_2 H 0.3510 0.5984 0.6744
C20_2 C 0.4946(13) 0.6104(9) 0.7340(4)
C21_2 C 0.6290(14) 0.6251(8) 0.7423(4)
H16_2 H 0.6657 0.6271 0.7758
C22_2 C 0.7124(12) 0.6374(8) 0.7022(4)
H17_2 H 0.8059 0.6481 0.7091
O1_3 O 0.0305(7) 0.8697(5) 0.5592(3)
O5_2 O 0.5334(7) 0.8681(4) 0.5538(2)
O6_2 O 0.6391(7) 0.7355(5) 0.5479(3)
C1_3 C 0.1551(10) 0.7357(6) 0.5412(3)
C2_3 C 0.1522(10) 0.6482(6) 0.5192(4)
H1_3 H 0.0686 0.6172 0.5140
C3_3 C 0.2725(10) 0.6066(6) 0.5050(4)
C4_3 C 0.3940(10) 0.6493(7) 0.5147(4)
H2_3 H 0.4759 0.6205 0.5057
C5_3 C 0.3967(10) 0.7355(6) 0.5378(3)
C6_3 C 0.2788(9) 0.7783(7) 0.5497(3)
H3_3 H 0.2819 0.8379 0.5641
C7_3 C 0.0279(10) 0.7854(7) 0.5511(4)
C8_3 C 0.2655(10) 0.5179(7) 0.4751(4)
C9_3 C 0.5306(9) 0.7815(7) 0.5472(3)
C18_3 C 0.0341(11) 0.8810(9) 0.1459(4)
H14_3 H 0.0014 0.8842 0.1120
C21_3 C 0.1290(14) 0.8749(8) 0.2423(4)
H16_3 H 0.1657 0.8729 0.2758
C22_3 C 0.2124(12) 0.8626(8) 0.2022(4)
H17_3 H 0.3059 0.8519 0.2091
N5_3 N 0.0267(13) 0.5839(11) 0.6566(5)
O7_3 O 0.1094(11) 0.5473(9) 0.6855(5)
O8_3 O 0.0028(12) 0.6649(9) 0.6549(5)
Cd4 Cd 0.77801(7) 0.87467(5) 0.55439(3)
H6_3 H 0.6850 0.0090 0.3722
H7_3 H 0.7288 0.0089 0.4584
N6_2 N 0.7758(9) 0.0327(6) 0.5604(3)
O2_3 O 0.9155(7) 0.7417(5) 0.5491(3)
N1_3 N 0.7601(8) 0.8776(6) 0.4670(3)
C10_3 C 0.7604(11) 0.7973(8) 0.4416(4)
H4_3 H 0.7809 0.7421 0.4593
C11_3 C 0.7313(12) 0.7939(9) 0.3902(4)
H5_3 H 0.7323 0.7364 0.3734
C12_3 C 0.7015(11) 0.8706(10) 0.3637(4)
C13_3 C 0.7029(15) 0.9530(10) 0.3894(5)
C14_3 C 0.7309(13) 0.9521(8) 0.4409(4)
C15_3 C 0.6671(14) 0.8639(13) 0.3083(4)
H8_3 H 0.6318 0.9241 0.2968
H9_3 H 0.5931 0.8188 0.3035
C16_3 C 0.7785(13) 0.8373(10) 0.2754(4)
H10_3 H 0.7414 0.8303 0.2405
H11_3 H 0.8138 0.7768 0.2864
C17_3 C 0.8924(14) 0.9032(10) 0.2750(4)
H12_3 H 0.8545 0.9658 0.2716
H13_3 H 0.9413 0.8999 0.3081
C19_3 C 0.9443(12) 0.8922(9) 0.1823(5)
H15_3 H 0.8510 0.9016 0.1744
C20_3 C 0.9946(13) 0.8896(9) 0.2340(4)
N3_3 N 0.7743(9) 0.8730(6) 0.6429(3)
N4_2 N 0.7242(9) 0.5327(6) 0.9396(3)
C23_3 C 0.6591(12) 0.8847(9) 0.6667(4)
H18_3 H 0.5766 0.8856 0.6474
C24_3 C 0.6545(15) 0.8955(10) 0.7182(5)
H19_3 H 0.5699 0.9044 0.7334
C25_3 C 0.7727(13) 0.8936(8) 0.7483(4)
C26_3 C 0.8926(13) 0.8797(9) 0.7228(4)
H20_3 H 0.9763 0.8763 0.7413
C27_3 C 0.8904(11) 0.8709(9) 0.6709(4)
H21_3 H 0.9734 0.8632 0.6545
C28_3 C 0.7713(15) 0.9009(7) 0.8043(4)
H22_3 H 0.8578 0.9273 0.8172
H23_3 H 0.6972 0.9422 0.8141
C29_3 C 0.7511(14) 0.8059(8) 0.8273(4)
H24_3 H 0.6659 0.7790 0.8134
H25_3 H 0.8263 0.7653 0.8179
C30_3 C 0.7455(14) 0.8101(7) 0.8848(4)
H26_3 H 0.6648 0.8453 0.8945
H27_3 H 0.8266 0.8422 0.8987
C31_3 C 0.8420(12) 0.5749(7) 0.9350(4)
H28_3 H 0.9221 0.5415 0.9432
C32_3 C 0.8555(11) 0.6665(7) 0.9187(4)
H29_3 H 0.9419 0.6940 0.9160
C33_3 C 0.7393(11) 0.7144(7) 0.9067(4)
C34_3 C 0.6155(13) 0.6720(8) 0.9128(5)
H30_3 H 0.5334 0.7043 0.9063
C35_3 C 0.6143(9) 0.5824(7) 0.9285(4)
H31_3 H 0.5288 0.5537 0.9316
O9_3 O 0.9551(9) 0.5355(8) 0.6267(4)
Cd7_2 Cd 0.72199(7) 0.37467(5) 0.94561(3)
C8_4 C 0.2345(10) 0.0179(7) 0.0249(4)
N1_4 N 0.7399(8) 0.3776(6) 0.0330(3)
C10_4 C 0.7396(11) 0.2973(8) 0.0584(4)
H4_4 H 0.7191 0.2421 0.0407
C11_4 C 0.7687(12) 0.2939(9) 0.1098(4)
H5_4 H 0.7677 0.2364 0.1266
C12_4 C 0.7985(11) 0.3706(10) 0.1363(4)
C13_4 C 0.7971(15) 0.4530(10) 0.1106(5)
H6_4 H 0.8150 0.5090 0.1278
C14_4 C 0.7691(13) 0.4521(8) 0.0591(4)
H7_4 H 0.7712 0.5089 0.0416
C15_4 C 0.8329(14) 0.3639(13) 0.1917(4)
H8_4 H 0.8682 0.4241 0.2032
H9_4 H 0.9069 0.3188 0.1965
C16_4 C 0.7215(13) 0.3373(10) 0.2246(4)
H10_4 H 0.7586 0.3303 0.2595
H11_4 H 0.6862 0.2768 0.2136
C17_4 C 0.6076(14) 0.4032(10) 0.2250(4)
H12_4 H 0.6455 0.4658 0.2284
H13_4 H 0.5587 0.3999 0.1919
C18_4 C 0.4659(11) 0.3810(9) 0.3541(4)
H14_4 H 0.4986 0.3842 0.3880
C19_4 C 0.5557(12) 0.3922(9) 0.3177(5)
H15_4 H 0.6490 0.4016 0.3256
C20_4 C 0.5054(13) 0.3896(9) 0.2660(4)
C21_4 C 0.3710(14) 0.3749(8) 0.2577(4)
H16_4 H 0.3343 0.3729 0.2242
C22_4 C 0.2876(12) 0.3626(8) 0.2978(4)
H17_4 H 0.1941 0.3519 0.2909
O1_4 O 0.4695(7) 0.3697(5) 0.9408(3)
O2_4 O 0.5845(7) 0.2417(5) 0.9509(3)
C1_4 C 0.3449(10) 0.2357(6) 0.9588(3)
C2_4 C 0.3478(10) 0.1482(6) 0.9808(4)
H1_4 H 0.4314 0.1172 0.9860
C3_4 C 0.2275(10) 0.1066(6) 0.9950(4)
C4_4 C 0.1060(10) 0.1493(7) 0.9853(4)
H2_4 H 0.0241 0.1205 0.9943
C5_4 C 0.1033(10) 0.2355(6) 0.9622(3)
C6_4 C 0.2212(9) 0.2783(7) 0.9503(3)
H3_4 H 0.2181 0.3379 0.9359
C7_4 C 0.4721(10) 0.2854(7) 0.9489(4)
N3_4 N 0.7257(9) 0.3730(6) 0.8571(3)
C23_4 C 0.8409(12) 0.3847(9) 0.8333(4)
H18_4 H 0.9234 0.3856 0.8526
C24_4 C 0.8455(15) 0.3955(10) 0.7818(5)
H19_4 H 0.9301 0.4044 0.7666
C25_4 C 0.7273(13) 0.3936(8) 0.7517(4)
C26_4 C 0.6074(13) 0.3797(9) 0.7772(4)
H20_4 H 0.5237 0.3763 0.7587
C27_4 C 0.6096(11) 0.3709(9) 0.8291(4)
H21_4 H 0.5266 0.3632 0.8455
C28_4 C 0.7287(15) 0.4009(7) 0.6957(4)
H22_4 H 0.6422 0.4273 0.6828
H23_4 H 0.8028 0.4422 0.6859
C29_4 C 0.7489(14) 0.3059(8) 0.6727(4)
H24_4 H 0.8341 0.2790 0.6866
H25_4 H 0.6737 0.2653 0.6821
C30_4 C 0.7545(14) 0.3101(7) 0.6152(4)
H26_4 H 0.8352 0.3453 0.6055
H27_4 H 0.6734 0.3422 0.6013
C31_4 C 0.6580(12) 0.0749(7) 0.5650(4)
H28_4 H 0.5779 0.0415 0.5568
C32_4 C 0.6445(11) 0.1665(7) 0.5813(4)
H29_4 H 0.5581 0.1940 0.5840
C33_4 C 0.7607(11) 0.2144(7) 0.5933(4)
C34_4 C 0.8845(13) 0.1720(8) 0.5872(5)
H30_4 H 0.9666 0.2043 0.5937
C35_4 C 0.8857(9) 0.0824(7) 0.5715(4)
H31_4 H 0.9712 0.0537 0.5684
N5_4 N 0.4733(13) 0.0839(11) 0.8434(5)
O7_4 O 0.3906(11) 0.0473(9) 0.8145(5)
O8_4 O 0.4972(12) 0.1649(9) 0.8451(5)
O9_4 O 0.5449(9) 0.0355(8) 0.8733(4)
O10_2 O 0.9666(7) 0.3681(4) 0.9462(2)
O11_2 O 0.8609(7) 0.2355(5) 0.9521(3)
C9_4 C 0.9694(9) 0.2815(7) 0.9528(3)
loop_
_geom_bond_atom_site_label_1
_geom_bond_atom_site_label_2
_geom_bond_site_symmetry_1
_geom_bond_site_symmetry_2
Cd2 O2 1_555 1_555
O2 Cd1 1_555 1_555
N1 Cd1 1_555 1_555
C10 N1 1_555 1_555
H4 C10 1_555 1_555
C11 C10 1_555 1_555
H5 C11 1_555 1_555
C12 C11 1_555 1_555
C13 C12 1_555 1_555
C14 N1 1_555 1_555
C15 C12 1_555 1_555
H8 C15 1_555 1_555
H9 C15 1_555 1_555
C16 C15 1_555 1_555
H10 C16 1_555 1_555
H11 C16 1_555 1_555
C17 C16 1_555 1_555
H12 C17 1_555 1_555
H13 C17 1_555 1_555
H15 C19 1_555 1_555
C20 C17 1_555 1_555
N3 Cd1 1_555 1_555
N4 C31 1_555 1_555
C23 N3 1_555 1_555
H18 C23 1_555 1_555
C24 C23 1_555 1_555
H19 C24 1_555 1_555
C25 C24 1_555 1_555
C26 C25 1_555 1_555
H20 C26 1_555 1_555
C27 N3 1_555 1_555
H21 C27 1_555 1_555
C28 C25 1_555 1_555
H22 C28 1_555 1_555
H23 C28 1_555 1_555
C29 C28 1_555 1_555
H24 C29 1_555 1_555
H25 C29 1_555 1_555
C30 C29 1_555 1_555
H26 C30 1_555 1_555
H27 C30 1_555 1_555
C31 H28 1_555 1_555
C32 C31 1_555 1_555
H29 C32 1_555 1_555
C33 C30 1_555 1_555
C34 C33 1_555 1_555
H30 C34 1_555 1_555
C35 N4 1_555 1_555
H31 C35 1_555 1_555
O9 Cd2 1_555 1_555
O10 Cd1 1_555 1_555
O11 Cd1 1_555 1_555
O12 Cd2 1_555 1_555
O13 Cd2 1_555 1_555
N7 Cd2 1_555 1_555
Cd7 N4 1_555 1_555
Cd2 O11 1_555 1_555
C13 C14 1_555 1_555
C19 C20 1_555 1_555
C26 C27 1_555 1_555
C32 C33 1_555 1_555
C34 C35 1_555 1_555
O1 C7 1_555 1_555
O3 C8 1_555 1_555
O4 C8 1_555 1_555
O10 C9 1_555 1_555
O11 C9 1_555 1_555
C1 C2 1_555 1_555
C2 H1 1_555 1_555
C3 C2 1_555 1_555
C4 C3 1_555 1_555
H2 C4 1_555 1_555
C5 C4 1_555 1_555
C6 C1 1_555 1_555
H3 C6 1_555 1_555
C8 C3 1_555 1_555
C9 C5 1_555 1_555
N2 C18 1_555 1_555
C18 H14 1_555 1_555
H16 C21 1_555 1_555
C22 N2 1_555 1_555
H17 C22 1_555 1_555
N5 O7 1_555 1_555
O8 N5 1_555 1_555
Cd3 O3 1_555 1_555
Cd6 N2 1_555 1_555
O4 Cd3 1_555 1_555
C1 C7 1_555 1_555
C5 C6 1_555 1_555
C21 C22 1_555 1_555
O5 C9_2 1_555 1_555
O6 C9_2 1_555 1_555
Cd7 O5 1_555 1_555
Cd5 O6 1_555 1_555
O6 Cd7 1_555 1_555
Cd6 O3_2 1_555 1_555
O4_2 Cd6 1_555 1_555
Cd7 O1_2 1_555 1_555
Cd5 O2_2 1_555 1_555
O1_2 C7_2 1_555 1_555
O2_2 Cd7 1_555 1_555
C1_2 C2_2 1_555 1_555
C2_2 H1_2 1_555 1_555
C3_2 C2_2 1_555 1_555
C4_2 C3_2 1_555 1_555
H2_2 C4_2 1_555 1_555
C5_2 C4_2 1_555 1_555
C6_2 C1_2 1_555 1_555
H3_2 C6_2 1_555 1_555
C7_2 O2_2 1_555 1_555
N3_2 Cd7 1_555 1_555
N6 C31_2 1_555 1_555
C23_2 N3_2 1_555 1_555
H18_2 C23_2 1_555 1_555
C24_2 C23_2 1_555 1_555
H19_2 C24_2 1_555 1_555
C25_2 C24_2 1_555 1_555
C26_2 C25_2 1_555 1_555
H20_2 C26_2 1_555 1_555
C27_2 N3_2 1_555 1_555
H21_2 C27_2 1_555 1_555
C28_2 C25_2 1_555 1_555
H22_2 C28_2 1_555 1_555
H23_2 C28_2 1_555 1_555
C29_2 C28_2 1_555 1_555
H24_2 C29_2 1_555 1_555
H25_2 C29_2 1_555 1_555
C30_2 C29_2 1_555 1_555
H26_2 C30_2 1_555 1_555
H27_2 C30_2 1_555 1_555
C31_2 H28_2 1_555 1_555
C32_2 C31_2 1_555 1_555
H29_2 C32_2 1_555 1_555
C33_2 C30_2 1_555 1_555
C34_2 C33_2 1_555 1_555
H30_2 C34_2 1_555 1_555
C35_2 N6 1_555 1_555
H31_2 C35_2 1_555 1_555
N5_2 O7_2 1_555 1_555
O8_2 N5_2 1_555 1_555
O9_2 Cd5 1_555 1_555
O12_2 Cd5 1_555 1_555
O13_2 Cd5 1_555 1_555
N7_2 Cd5 1_555 1_555
C1_2 C7_2 1_555 1_555
C5_2 C6_2 1_555 1_555
C26_2 C27_2 1_555 1_555
C32_2 C33_2 1_555 1_555
C34_2 C35_2 1_555 1_555
N5_2 O9_2 1_555 1_555
N2_2 C18_2 1_555 1_555
C10_2 N1_2 1_555 1_555
H4_2 C10_2 1_555 1_555
C11_2 C10_2 1_555 1_555
H5_2 C11_2 1_555 1_555
C12_2 C11_2 1_555 1_555
C13_2 C12_2 1_555 1_555
H6_2 C13_2 1_555 1_555
C14_2 N1_2 1_555 1_555
H7_2 C14_2 1_555 1_555
C15_2 C12_2 1_555 1_555
H8_2 C15_2 1_555 1_555
H9_2 C15_2 1_555 1_555
C16_2 C15_2 1_555 1_555
H10_2 C16_2 1_555 1_555
H11_2 C16_2 1_555 1_555
C17_2 C16_2 1_555 1_555
H12_2 C17_2 1_555 1_555
H13_2 C17_2 1_555 1_555
C18_2 H14_2 1_555 1_555
C19_2 C18_2 1_555 1_555
H15_2 C19_2 1_555 1_555
C20_2 C17_2 1_555 1_555
C21_2 C20_2 1_555 1_555
H16_2 C21_2 1_555 1_555
C22_2 N2_2 1_555 1_555
H17_2 C22_2 1_555 1_555
Cd3 N2_2 1_555 1_555
C13_2 C14_2 1_555 1_555
C19_2 C20_2 1_555 1_555
C21_2 C22_2 1_555 1_555
O1_3 C7_3 1_555 1_555
O12 C8_3 1_555 1_555
O13 C8_3 1_555 1_555
O5_2 C9_3 1_555 1_555
O6_2 C9_3 1_555 1_555
C1_3 C2_3 1_555 1_555
C2_3 H1_3 1_555 1_555
C3_3 C2_3 1_555 1_555
C4_3 C3_3 1_555 1_555
H2_3 C4_3 1_555 1_555
C5_3 C4_3 1_555 1_555
C6_3 C1_3 1_555 1_555
H3_3 C6_3 1_555 1_555
C8_3 C3_3 1_555 1_555
C9_3 C5_3 1_555 1_555
N7_2 C18_3 1_555 1_555
C18_3 H14_3 1_555 1_555
H16_3 C21_3 1_555 1_555
C22_3 N7_2 1_555 1_555
H17_3 C22_3 1_555 1_555
N5_3 O7_3 1_555 1_555
O8_3 N5_3 1_555 1_555
Cd4 O5_2 1_555 1_555
Cd3 O6_2 1_555 1_555
O6_2 Cd4 1_555 1_555
C1_3 C7_3 1_555 1_555
C5_3 C6_3 1_555 1_555
C21_3 C22_3 1_555 1_555
Cd3 O2_3 1_555 1_555
O2_3 Cd4 1_555 1_555
N1_3 Cd4 1_555 1_555
C10_3 N1_3 1_555 1_555
H4_3 C10_3 1_555 1_555
C11_3 C10_3 1_555 1_555
H5_3 C11_3 1_555 1_555
C12_3 C11_3 1_555 1_555
C13_3 C12_3 1_555 1_555
C14_3 N1_3 1_555 1_555
C15_3 C12_3 1_555 1_555
H8_3 C15_3 1_555 1_555
H9_3 C15_3 1_555 1_555
C16_3 C15_3 1_555 1_555
H10_3 C16_3 1_555 1_555
H11_3 C16_3 1_555 1_555
C17_3 C16_3 1_555 1_555
H12_3 C17_3 1_555 1_555
H13_3 C17_3 1_555 1_555
H15_3 C19_3 1_555 1_555
C20_3 C17_3 1_555 1_555
N3_3 Cd4 1_555 1_555
N4_2 C31_3 1_555 1_555
C23_3 N3_3 1_555 1_555
H18_3 C23_3 1_555 1_555
C24_3 C23_3 1_555 1_555
H19_3 C24_3 1_555 1_555
C25_3 C24_3 1_555 1_555
C26_3 C25_3 1_555 1_555
H20_3 C26_3 1_555 1_555
C27_3 N3_3 1_555 1_555
H21_3 C27_3 1_555 1_555
C28_3 C25_3 1_555 1_555
H22_3 C28_3 1_555 1_555
H23_3 C28_3 1_555 1_555
C29_3 C28_3 1_555 1_555
H24_3 C29_3 1_555 1_555
H25_3 C29_3 1_555 1_555
C30_3 C29_3 1_555 1_555
H26_3 C30_3 1_555 1_555
H27_3 C30_3 1_555 1_555
C31_3 H28_3 1_555 1_555
C32_3 C31_3 1_555 1_555
H29_3 C32_3 1_555 1_555
C33_3 C30_3 1_555 1_555
C34_3 C33_3 1_555 1_555
H30_3 C34_3 1_555 1_555
C35_3 N4_2 1_555 1_555
H31_3 C35_3 1_555 1_555
O9_3 Cd3 1_555 1_555
Cd7_2 N4_2 1_555 1_555
C13_3 C14_3 1_555 1_555
C19_3 C20_3 1_555 1_555
C26_3 C27_3 1_555 1_555
C32_3 C33_3 1_555 1_555
C34_3 C35_3 1_555 1_555
N7 C18_4 1_555 1_555
C10_4 N1_4 1_555 1_555
H4_4 C10_4 1_555 1_555
C11_4 C10_4 1_555 1_555
H5_4 C11_4 1_555 1_555
C12_4 C11_4 1_555 1_555
C13_4 C12_4 1_555 1_555
H6_4 C13_4 1_555 1_555
C14_4 N1_4 1_555 1_555
H7_4 C14_4 1_555 1_555
C15_4 C12_4 1_555 1_555
H8_4 C15_4 1_555 1_555
H9_4 C15_4 1_555 1_555
C16_4 C15_4 1_555 1_555
H10_4 C16_4 1_555 1_555
H11_4 C16_4 1_555 1_555
C17_4 C16_4 1_555 1_555
H12_4 C17_4 1_555 1_555
H13_4 C17_4 1_555 1_555
C18_4 H14_4 1_555 1_555
C19_4 C18_4 1_555 1_555
H15_4 C19_4 1_555 1_555
C20_4 C17_4 1_555 1_555
C21_4 C20_4 1_555 1_555
H16_4 C21_4 1_555 1_555
C22_4 N7 1_555 1_555
H17_4 C22_4 1_555 1_555
C13_4 C14_4 1_555 1_555
C19_4 C20_4 1_555 1_555
C21_4 C22_4 1_555 1_555
Cd7_2 O1_4 1_555 1_555
Cd6 O2_4 1_555 1_555
O1_4 C7_4 1_555 1_555
O2_4 Cd7_2 1_555 1_555
C1_4 C2_4 1_555 1_555
C2_4 H1_4 1_555 1_555
C3_4 C2_4 1_555 1_555
C4_4 C3_4 1_555 1_555
H2_4 C4_4 1_555 1_555
C5_4 C4_4 1_555 1_555
C6_4 C1_4 1_555 1_555
H3_4 C6_4 1_555 1_555
C7_4 O2_4 1_555 1_555
N3_4 Cd7_2 1_555 1_555
N6_2 C31_4 1_555 1_555
C23_4 N3_4 1_555 1_555
H18_4 C23_4 1_555 1_555
C24_4 C23_4 1_555 1_555
H19_4 C24_4 1_555 1_555
C25_4 C24_4 1_555 1_555
C26_4 C25_4 1_555 1_555
H20_4 C26_4 1_555 1_555
C27_4 N3_4 1_555 1_555
H21_4 C27_4 1_555 1_555
C28_4 C25_4 1_555 1_555
H22_4 C28_4 1_555 1_555
H23_4 C28_4 1_555 1_555
C29_4 C28_4 1_555 1_555
H24_4 C29_4 1_555 1_555
H25_4 C29_4 1_555 1_555
C30_4 C29_4 1_555 1_555
H26_4 C30_4 1_555 1_555
H27_4 C30_4 1_555 1_555
C31_4 H28_4 1_555 1_555
C32_4 C31_4 1_555 1_555
H29_4 C32_4 1_555 1_555
C33_4 C30_4 1_555 1_555
C34_4 C33_4 1_555 1_555
H30_4 C34_4 1_555 1_555
C35_4 N6_2 1_555 1_555
H31_4 C35_4 1_555 1_555
N5_4 O7_4 1_555 1_555
O8_4 N5_4 1_555 1_555
O9_4 Cd6 1_555 1_555
O10_2 Cd7_2 1_555 1_555
O11_2 Cd7_2 1_555 1_555
Cd6 O11_2 1_555 1_555
C1_4 C7_4 1_555 1_555
C5_4 C6_4 1_555 1_555
C26_4 C27_4 1_555 1_555
C32_4 C33_4 1_555 1_555
C34_4 C35_4 1_555 1_555
N5_4 O9_4 1_555 1_555
O10_2 C9_4 1_555 1_555
O11_2 C9_4 1_555 1_555

#END
