
###############################################################################
#
# This file contains modified crystal structure data generated from the
# MOF subset of the Cambridge Structural Database (CSD) v543 
# hosted by the Cambridge Crystallographic Data Centre (CCDC).
#
# This work is licensed under the Creative Commons
# Attribution-NonCommercial-ShareAlike 4.0 International License.
# To view a copy of this license, visit
# http://creativecommons.org/licenses/by-nc-sa/4.0/
# or send a letter to
# Creative Commons, PO Box 1866, Mountain View, CA 94042, USA.
#
# CIF created using the CSD Python API on 29 September 2022
# The structure has been converted into the P1 space group
# The structure has a 3D framework
# The original CSD entry NACRES is in the monoclinic crystal system
# The framework has been calculated to contain at least 10.0% void space
# The void calculation uses a probe of radius 1.32A, grid spacing 0.4
# The framework is charged, counterions have been retained in the structure
#
###############################################################################

data_NACRES
_chemical_formula_moiety         '(C168 H96 Li4 N8 O44 12-)n'
_symmetry_cell_setting           triclinic
_symmetry_space_group_name_H-M   'P 1'
_symmetry_Int_Tables_number      1
_space_group_name_Hall           'P 1'
loop_
_symmetry_equiv_pos_site_id
_symmetry_equiv_pos_as_xyz
1 x,y,z
_cell_length_a                   15.8425(19)
_cell_length_b                   24.624(3)
_cell_length_c                   17.549(2)
_cell_angle_alpha                90
_cell_angle_beta                 111.466(3)
_cell_angle_gamma                90
_cell_volume                     6371.09
loop_
_atom_site_label
_atom_site_type_symbol
_atom_site_fract_x
_atom_site_fract_y
_atom_site_fract_z
O1 O 0.4194(2) 0.61831(11) 0.66294(17)
O2 O 0.2684(2) 0.62268(10) 0.60060(18)
O3 O 0.6391(2) 0.28889(13) 0.46623(19)
N1 N 0.3358(2) 0.36682(12) 0.6025(2)
O4 O 0.6558(2) 0.22686(14) 0.56119(18)
O5 O 0.1390(2) 0.23543(12) 0.80590(19)
O6 O 0.0612(2) 0.20652(15) 0.68216(18)
C1 C 0.3398(2) 0.53647(14) 0.6273(2)
C2 C 0.4179(2) 0.50734(13) 0.6498(2)
H1 H 0.4743(2) 0.52586(13) 0.6710(2)
C3 C 0.4047(3) 0.33973(14) 0.5814(3)
C4 C 0.4173(2) 0.45004(12) 0.6425(2)
H2 H 0.4727(2) 0.43046(12) 0.6580(2)
C5 C 0.3444(3) 0.59698(14) 0.6312(2)
C6 C 0.5439(3) 0.29337(15) 0.5438(3)
C7 C 0.4421(3) 0.29244(14) 0.6176(2)
H3 H 0.4220(3) 0.27506(14) 0.6563(2)
C8 C 0.2814(3) 0.33498(14) 0.6361(3)
C9 C 0.3374(3) 0.42361(14) 0.6135(2)
C10 C 0.5038(2) 0.34097(15) 0.5057(3)
H4 H 0.5222(2) 0.35716(15) 0.4651(3)
C11 C 0.4380(3) 0.36424(15) 0.5268(3)
H5 H 0.4139(3) 0.39833(15) 0.5035(3)
C12 C 0.2561(3) 0.50593(16) 0.5946(3)
H6 H 0.1999(3) 0.52484(16) 0.5761(3)
C13 C 0.6168(3) 0.2676(2) 0.5223(3)
C14 C 0.2560(3) 0.45173(15) 0.5898(3)
H7 H 0.2002(3) 0.43249(15) 0.5701(3)
C15 C 0.5124(3) 0.26981(18) 0.5954(3)
H8 H 0.5380(3) 0.23608(18) 0.6190(3)
C16 C 0.1814(3) 0.26989(16) 0.6979(3)
C17 C 0.2438(3) 0.30505(14) 0.7498(3)
H9 H 0.2520(3) 0.30771(14) 0.8061(3)
C18 C 0.2172(3) 0.29814(15) 0.5834(3)
H10 H 0.2089(3) 0.29522(15) 0.5272(3)
C19 C 0.2936(3) 0.33614(16) 0.7163(3)
H11 H 0.3388(3) 0.35959(16) 0.7514(3)
C20 C 0.1182(4) 0.23520(18) 0.7287(3)
C21 C 0.1671(3) 0.26668(17) 0.6169(3)
H12 H 0.1223(3) 0.24260(17) 0.5829(3)
Li2 Li 0.0654(4) 0.1948(3) 0.8511(4)
Li3 Li 0.4346(4) 0.6948(3) 0.6489(4)
Li4 Li 0.5654(4) 0.3052(3) 0.3511(4)
Li1 Li 0.9346(4) 0.1948(3) 0.6489(4)
O7 O 0.9194(2) 0.11831(11) 0.66294(17)
O8 O 0.8609(2) 0.21111(13) 0.53377(19)
O9 O 0.8610(2) 0.23543(12) 0.69410(19)
O7_2 O 0.0806(2) 0.11831(11) 0.83706(17)
O8_2 O 0.1391(2) 0.21111(13) 0.96623(19)
O3_2 O 0.3609(2) 0.28889(13) 0.03377(19)
H4_2 H 0.4778(2) 0.35716(15) 0.0349(3)
Li4_2 Li 0.4346(4) 0.3052(3) 0.1489(4)
O1_2 O 0.5806(2) 0.61831(11) 0.83706(17)
O2_2 O 0.7316(2) 0.62268(10) 0.89940(18)
N1_2 N 0.6642(2) 0.36682(12) 0.8975(2)
O4_2 O 0.3442(2) 0.22686(14) 0.93881(18)
O6_2 O 0.9388(2) 0.20652(15) 0.81784(18)
C1_2 C 0.6602(2) 0.53647(14) 0.8727(2)
C2_2 C 0.5821(2) 0.50734(13) 0.8502(2)
H1_2 H 0.5257(2) 0.52586(13) 0.8290(2)
C3_2 C 0.5953(3) 0.33973(14) 0.9186(3)
C4_2 C 0.5827(2) 0.45004(12) 0.8575(2)
H2_2 H 0.5273(2) 0.43046(12) 0.8420(2)
C5_2 C 0.6556(3) 0.59698(14) 0.8688(2)
C6_2 C 0.4561(3) 0.29337(15) 0.9562(3)
C7_2 C 0.5579(3) 0.29244(14) 0.8824(2)
H3_2 H 0.5780(3) 0.27506(14) 0.8437(2)
C8_2 C 0.7186(3) 0.33498(14) 0.8639(3)
C9_2 C 0.6626(3) 0.42361(14) 0.8865(2)
C10_2 C 0.4962(2) 0.34097(15) 0.9943(3)
C11_2 C 0.5620(3) 0.36424(15) 0.9732(3)
H5_2 H 0.5861(3) 0.39833(15) 0.9965(3)
C12_2 C 0.7439(3) 0.50593(16) 0.9054(3)
H6_2 H 0.8001(3) 0.52484(16) 0.9239(3)
C13_2 C 0.3832(3) 0.2676(2) 0.9777(3)
C14_2 C 0.7440(3) 0.45173(15) 0.9102(3)
H7_2 H 0.7998(3) 0.43249(15) 0.9299(3)
C15_2 C 0.4876(3) 0.26981(18) 0.9046(3)
H8_2 H 0.4620(3) 0.23608(18) 0.8810(3)
C16_2 C 0.8186(3) 0.26989(16) 0.8021(3)
C17_2 C 0.7562(3) 0.30505(14) 0.7502(3)
H9_2 H 0.7480(3) 0.30771(14) 0.6939(3)
C18_2 C 0.7828(3) 0.29814(15) 0.9166(3)
H10_2 H 0.7911(3) 0.29522(15) 0.9728(3)
C19_2 C 0.7064(3) 0.33614(16) 0.7837(3)
H11_2 H 0.6612(3) 0.35959(16) 0.7486(3)
C20_2 C 0.8818(4) 0.23520(18) 0.7713(3)
C21_2 C 0.8329(3) 0.26668(17) 0.8831(3)
H12_2 H 0.8777(3) 0.24260(17) 0.9171(3)
Li3_2 Li 0.5654(4) 0.6948(3) 0.8511(4)
O3_3 O 0.1391(2) 0.78889(13) 0.46623(19)
O4_3 O 0.1558(2) 0.72686(14) 0.56119(18)
C6_3 C 0.0439(3) 0.79337(15) 0.5438(3)
C10_3 C 0.0038(2) 0.84097(15) 0.5057(3)
H4_3 H 0.0222(2) 0.85716(15) 0.4651(3)
C13_3 C 0.1168(3) 0.7676(2) 0.5223(3)
C15_3 C 0.0124(3) 0.76981(18) 0.5954(3)
H8_3 H 0.0380(3) 0.73608(18) 0.6190(3)
Li4_3 Li 0.0654(4) 0.8052(3) 0.3511(4)
O2_3 O 0.7684(2) 0.12268(10) 0.60060(18)
C1_3 C 0.8398(2) 0.03647(14) 0.6273(2)
C2_3 C 0.9179(2) 0.00734(13) 0.6498(2)
H1_3 H 0.9743(2) 0.02586(13) 0.6710(2)
C5_3 C 0.8444(3) 0.09698(14) 0.6312(2)
C12_3 C 0.7561(3) 0.00593(16) 0.5946(3)
H6_3 H 0.6999(3) 0.02484(16) 0.5761(3)
N1_3 N 0.8358(2) 0.86682(12) 0.6025(2)
O5_2 O 0.6390(2) 0.73543(12) 0.80590(19)
O6_3 O 0.5612(2) 0.70652(15) 0.68216(18)
C3_3 C 0.9047(3) 0.83973(14) 0.5814(3)
C4_3 C 0.9173(2) 0.95004(12) 0.6425(2)
H2_3 H 0.9727(2) 0.93046(12) 0.6580(2)
C7_3 C 0.9421(3) 0.79244(14) 0.6176(2)
H3_3 H 0.9220(3) 0.77506(14) 0.6563(2)
C8_3 C 0.7814(3) 0.83498(14) 0.6361(3)
C9_3 C 0.8374(3) 0.92361(14) 0.6135(2)
C11_3 C 0.9380(3) 0.86424(15) 0.5268(3)
H5_3 H 0.9139(3) 0.89833(15) 0.5035(3)
C14_3 C 0.7560(3) 0.95173(15) 0.5898(3)
H7_3 H 0.7002(3) 0.93249(15) 0.5701(3)
C16_3 C 0.6814(3) 0.76989(16) 0.6979(3)
C17_3 C 0.7438(3) 0.80505(14) 0.7498(3)
H9_3 H 0.7520(3) 0.80771(14) 0.8061(3)
C18_3 C 0.7172(3) 0.79814(15) 0.5834(3)
H10_3 H 0.7089(3) 0.79522(15) 0.5272(3)
C19_3 C 0.7936(3) 0.83614(16) 0.7163(3)
H11_3 H 0.8388(3) 0.85959(16) 0.7514(3)
C20_3 C 0.6182(4) 0.73520(18) 0.7287(3)
C21_3 C 0.6671(3) 0.76668(17) 0.6169(3)
H12_3 H 0.6223(3) 0.74260(17) 0.5829(3)
O8_3 O 0.3609(2) 0.71111(13) 0.53377(19)
O9_2 O 0.3610(2) 0.73543(12) 0.69410(19)
O2_4 O 0.2316(2) 0.12268(10) 0.89940(18)
C1_4 C 0.1602(2) 0.03647(14) 0.8727(2)
C2_4 C 0.0821(2) 0.00734(13) 0.8502(2)
H1_4 H 0.0257(2) 0.02586(13) 0.8290(2)
C5_4 C 0.1556(3) 0.09698(14) 0.8688(2)
C12_4 C 0.2439(3) 0.00593(16) 0.9054(3)
H6_4 H 0.3001(3) 0.02484(16) 0.9239(3)
N1_4 N 0.1642(2) 0.86682(12) 0.8975(2)
O6_4 O 0.4388(2) 0.70652(15) 0.81784(18)
C3_4 C 0.0953(3) 0.83973(14) 0.9186(3)
C4_4 C 0.0827(2) 0.95004(12) 0.8575(2)
H2_4 H 0.0273(2) 0.93046(12) 0.8420(2)
C7_4 C 0.0579(3) 0.79244(14) 0.8824(2)
H3_4 H 0.0780(3) 0.77506(14) 0.8437(2)
C8_4 C 0.2186(3) 0.83498(14) 0.8639(3)
C9_4 C 0.1626(3) 0.92361(14) 0.8865(2)
C11_4 C 0.0620(3) 0.86424(15) 0.9732(3)
H5_4 H 0.0861(3) 0.89833(15) 0.9965(3)
C14_4 C 0.2440(3) 0.95173(15) 0.9102(3)
H7_4 H 0.2998(3) 0.93249(15) 0.9299(3)
C16_4 C 0.3186(3) 0.76989(16) 0.8021(3)
C17_4 C 0.2562(3) 0.80505(14) 0.7502(3)
H9_4 H 0.2480(3) 0.80771(14) 0.6939(3)
C18_4 C 0.2828(3) 0.79814(15) 0.9166(3)
H10_4 H 0.2911(3) 0.79522(15) 0.9728(3)
C19_4 C 0.2064(3) 0.83614(16) 0.7837(3)
H11_4 H 0.1612(3) 0.85959(16) 0.7486(3)
C20_4 C 0.3818(4) 0.73520(18) 0.7713(3)
C21_4 C 0.3329(3) 0.76668(17) 0.8831(3)
H12_4 H 0.3777(3) 0.74260(17) 0.9171(3)
O8_4 O 0.6391(2) 0.71111(13) 0.96623(19)
O3_4 O 0.8609(2) 0.78889(13) 0.03377(19)
H4_4 H 0.9778(2) 0.85716(15) 0.0349(3)
Li4_4 Li 0.9346(4) 0.8052(3) 0.1489(4)
O7_3 O 0.0806(2) 0.88169(11) 0.33706(17)
O9_3 O 0.1390(2) 0.76457(12) 0.30590(19)
O1_3 O 0.5806(2) 0.38169(11) 0.33706(17)
O2_5 O 0.7316(2) 0.37732(10) 0.39940(18)
N1_5 N 0.6642(2) 0.63318(12) 0.3975(2)
O4_4 O 0.3442(2) 0.77314(14) 0.43881(18)
O5_3 O 0.8610(2) 0.76457(12) 0.19410(19)
O6_5 O 0.9388(2) 0.79348(15) 0.31784(18)
C1_5 C 0.6602(2) 0.46353(14) 0.3727(2)
C2_5 C 0.5821(2) 0.49266(13) 0.3502(2)
H1_5 H 0.5257(2) 0.47414(13) 0.3290(2)
C3_5 C 0.5953(3) 0.66027(14) 0.4186(3)
C4_5 C 0.5827(2) 0.54996(12) 0.3575(2)
H2_5 H 0.5273(2) 0.56954(12) 0.3420(2)
C5_5 C 0.6556(3) 0.40302(14) 0.3688(2)
C6_4 C 0.4561(3) 0.70663(15) 0.4562(3)
C7_5 C 0.5579(3) 0.70756(14) 0.3824(2)
H3_5 H 0.5780(3) 0.72494(14) 0.3437(2)
C8_5 C 0.7186(3) 0.66502(14) 0.3639(3)
C9_5 C 0.6626(3) 0.57639(14) 0.3865(2)
C10_4 C 0.4962(2) 0.65903(15) 0.4943(3)
H4_5 H 0.4778(2) 0.64284(15) 0.5349(3)
C11_5 C 0.5620(3) 0.63576(15) 0.4732(3)
H5_5 H 0.5861(3) 0.60167(15) 0.4965(3)
C12_5 C 0.7439(3) 0.49407(16) 0.4054(3)
H6_5 H 0.8001(3) 0.47516(16) 0.4239(3)
C13_4 C 0.3832(3) 0.7324(2) 0.4777(3)
C14_5 C 0.7440(3) 0.54827(15) 0.4102(3)
H7_5 H 0.7998(3) 0.56751(15) 0.4299(3)
C15_4 C 0.4876(3) 0.73019(18) 0.4046(3)
H8_4 H 0.4620(3) 0.76392(18) 0.3810(3)
C16_5 C 0.8186(3) 0.73011(16) 0.3021(3)
C17_5 C 0.7562(3) 0.69495(14) 0.2502(3)
H9_5 H 0.7480(3) 0.69229(14) 0.1939(3)
C18_5 C 0.7828(3) 0.70186(15) 0.4166(3)
H10_5 H 0.7911(3) 0.70478(15) 0.4728(3)
C19_5 C 0.7064(3) 0.66386(16) 0.2837(3)
H11_5 H 0.6612(3) 0.64041(16) 0.2486(3)
C20_5 C 0.8818(4) 0.76480(18) 0.2713(3)
C21_5 C 0.8329(3) 0.73332(17) 0.3831(3)
H12_5 H 0.8777(3) 0.75740(17) 0.4171(3)
O1_4 O 0.4194(2) 0.38169(11) 0.16294(17)
O2_6 O 0.2684(2) 0.37732(10) 0.10060(18)
N1_6 N 0.3358(2) 0.63318(12) 0.1025(2)
O4_5 O 0.6558(2) 0.77314(14) 0.06119(18)
O6_6 O 0.0612(2) 0.79348(15) 0.18216(18)
C1_6 C 0.3398(2) 0.46353(14) 0.1273(2)
C2_6 C 0.4179(2) 0.49266(13) 0.1498(2)
H1_6 H 0.4743(2) 0.47414(13) 0.1710(2)
C3_6 C 0.4047(3) 0.66027(14) 0.0814(3)
C4_6 C 0.4173(2) 0.54996(12) 0.1425(2)
H2_6 H 0.4727(2) 0.56954(12) 0.1580(2)
C5_6 C 0.3444(3) 0.40302(14) 0.1312(2)
C6_5 C 0.5439(3) 0.70663(15) 0.0438(3)
C7_6 C 0.4421(3) 0.70756(14) 0.1176(2)
H3_6 H 0.4220(3) 0.72494(14) 0.1563(2)
C8_6 C 0.2814(3) 0.66502(14) 0.1361(3)
C9_6 C 0.3374(3) 0.57639(14) 0.1135(2)
C10_5 C 0.5038(2) 0.65903(15) 0.0057(3)
C11_6 C 0.4380(3) 0.63576(15) 0.0268(3)
H5_6 H 0.4139(3) 0.60167(15) 0.0035(3)
C12_6 C 0.2561(3) 0.49407(16) 0.0946(3)
H6_6 H 0.1999(3) 0.47516(16) 0.0761(3)
C13_5 C 0.6168(3) 0.7324(2) 0.0223(3)
C14_6 C 0.2560(3) 0.54827(15) 0.0898(3)
H7_6 H 0.2002(3) 0.56751(15) 0.0701(3)
C15_5 C 0.5124(3) 0.73019(18) 0.0954(3)
H8_5 H 0.5380(3) 0.76392(18) 0.1190(3)
C16_6 C 0.1814(3) 0.73011(16) 0.1979(3)
C17_6 C 0.2438(3) 0.69495(14) 0.2498(3)
H9_6 H 0.2520(3) 0.69229(14) 0.3061(3)
C18_6 C 0.2172(3) 0.70186(15) 0.0834(3)
H10_6 H 0.2089(3) 0.70478(15) 0.0272(3)
C19_6 C 0.2936(3) 0.66386(16) 0.2163(3)
H11_6 H 0.3388(3) 0.64041(16) 0.2514(3)
C20_6 C 0.1182(4) 0.76480(18) 0.2287(3)
C21_6 C 0.1671(3) 0.73332(17) 0.1169(3)
H12_6 H 0.1223(3) 0.75740(17) 0.0829(3)
H4_6 H 0.5222(2) 0.64284(15) 0.9651(3)
O7_4 O 0.9194(2) 0.88169(11) 0.16294(17)
N1_7 N 0.1642(2) 0.13318(12) 0.3975(2)
O5_4 O 0.3610(2) 0.26457(12) 0.19410(19)
O6_7 O 0.4388(2) 0.29348(15) 0.31784(18)
C3_7 C 0.0953(3) 0.16027(14) 0.4186(3)
C4_7 C 0.0827(2) 0.04996(12) 0.3575(2)
H2_7 H 0.0273(2) 0.06954(12) 0.3420(2)
C7_7 C 0.0579(3) 0.20756(14) 0.3824(2)
H3_7 H 0.0780(3) 0.22494(14) 0.3437(2)
C8_7 C 0.2186(3) 0.16502(14) 0.3639(3)
C9_7 C 0.1626(3) 0.07639(14) 0.3865(2)
C11_7 C 0.0620(3) 0.13576(15) 0.4732(3)
H5_7 H 0.0861(3) 0.10167(15) 0.4965(3)
C14_7 C 0.2440(3) 0.04827(15) 0.4102(3)
H7_7 H 0.2998(3) 0.06751(15) 0.4299(3)
C16_7 C 0.3186(3) 0.23011(16) 0.3021(3)
C17_7 C 0.2562(3) 0.19495(14) 0.2502(3)
H9_7 H 0.2480(3) 0.19229(14) 0.1939(3)
C18_7 C 0.2828(3) 0.20186(15) 0.4166(3)
H10_7 H 0.2911(3) 0.20478(15) 0.4728(3)
C19_7 C 0.2064(3) 0.16386(16) 0.2837(3)
H11_7 H 0.1612(3) 0.14041(16) 0.2486(3)
C20_7 C 0.3818(4) 0.26480(18) 0.2713(3)
C21_7 C 0.3329(3) 0.23332(17) 0.3831(3)
H12_7 H 0.3777(3) 0.25740(17) 0.4171(3)
O9_4 O 0.6390(2) 0.26457(12) 0.30590(19)
O2_7 O 0.2316(2) 0.87732(10) 0.39940(18)
C1_7 C 0.1602(2) 0.96353(14) 0.3727(2)
C2_7 C 0.0821(2) 0.99266(13) 0.3502(2)
H1_7 H 0.0257(2) 0.97414(13) 0.3290(2)
C5_7 C 0.1556(3) 0.90302(14) 0.3688(2)
C12_7 C 0.2439(3) 0.99407(16) 0.4054(3)
H6_7 H 0.3001(3) 0.97516(16) 0.4239(3)
O4_6 O 0.8442(2) 0.27314(14) 0.43881(18)
C6_6 C 0.9561(3) 0.20663(15) 0.4562(3)
C10_6 C 0.9962(2) 0.15903(15) 0.4943(3)
H4_7 H 0.9778(2) 0.14284(15) 0.5349(3)
C13_6 C 0.8832(3) 0.2324(2) 0.4777(3)
C15_6 C 0.9876(3) 0.23019(18) 0.4046(3)
H8_6 H 0.9620(3) 0.26392(18) 0.3810(3)
H4_8 H 0.0222(2) 0.14284(15) 0.9651(3)
N1_8 N 0.8358(2) 0.13318(12) 0.1025(2)
O6_8 O 0.5612(2) 0.29348(15) 0.18216(18)
C3_8 C 0.9047(3) 0.16027(14) 0.0814(3)
C4_8 C 0.9173(2) 0.04996(12) 0.1425(2)
H2_8 H 0.9727(2) 0.06954(12) 0.1580(2)
C7_8 C 0.9421(3) 0.20756(14) 0.1176(2)
H3_8 H 0.9220(3) 0.22494(14) 0.1563(2)
C8_8 C 0.7814(3) 0.16502(14) 0.1361(3)
C9_8 C 0.8374(3) 0.07639(14) 0.1135(2)
C11_8 C 0.9380(3) 0.13576(15) 0.0268(3)
H5_8 H 0.9139(3) 0.10167(15) 0.0035(3)
C14_8 C 0.7560(3) 0.04827(15) 0.0898(3)
H7_8 H 0.7002(3) 0.06751(15) 0.0701(3)
C16_8 C 0.6814(3) 0.23011(16) 0.1979(3)
C17_8 C 0.7438(3) 0.19495(14) 0.2498(3)
H9_8 H 0.7520(3) 0.19229(14) 0.3061(3)
C18_8 C 0.7172(3) 0.20186(15) 0.0834(3)
H10_8 H 0.7089(3) 0.20478(15) 0.0272(3)
C19_8 C 0.7936(3) 0.16386(16) 0.2163(3)
H11_8 H 0.8388(3) 0.14041(16) 0.2514(3)
C20_8 C 0.6182(4) 0.26480(18) 0.2287(3)
C21_8 C 0.6671(3) 0.23332(17) 0.1169(3)
H12_8 H 0.6223(3) 0.25740(17) 0.0829(3)
O2_8 O 0.7684(2) 0.87732(10) 0.10060(18)
C1_8 C 0.8398(2) 0.96353(14) 0.1273(2)
C2_8 C 0.9179(2) 0.99266(13) 0.1498(2)
H1_8 H 0.9743(2) 0.97414(13) 0.1710(2)
C5_8 C 0.8444(3) 0.90302(14) 0.1312(2)
C12_8 C 0.7561(3) 0.99407(16) 0.0946(3)
H6_8 H 0.6999(3) 0.97516(16) 0.0761(3)
O4_7 O 0.8442(2) 0.72686(14) 0.93881(18)
C6_7 C 0.9561(3) 0.79337(15) 0.9562(3)
C10_7 C 0.9962(2) 0.84097(15) 0.9943(3)
C13_7 C 0.8832(3) 0.7676(2) 0.9777(3)
C15_7 C 0.9876(3) 0.76981(18) 0.9046(3)
H8_7 H 0.9620(3) 0.73608(18) 0.8810(3)
O4_8 O 0.1558(2) 0.27314(14) 0.06119(18)
C6_8 C 0.0439(3) 0.20663(15) 0.0438(3)
C10_8 C 0.0038(2) 0.15903(15) 0.0057(3)
C13_8 C 0.1168(3) 0.2324(2) 0.0223(3)
C15_8 C 0.0124(3) 0.23019(18) 0.0954(3)
H8_8 H 0.0380(3) 0.26392(18) 0.1190(3)
loop_
_geom_bond_atom_site_label_1
_geom_bond_atom_site_label_2
_geom_bond_site_symmetry_1
_geom_bond_site_symmetry_2
O1 C5 1_555 1_555
O2 C5 1_555 1_555
O3 C13 1_555 1_555
N1 C3 1_555 1_555
O4 C13 1_555 1_555
O5 C20 1_555 1_555
O6 C20 1_555 1_555
C1 C2 1_555 1_555
C2 H1 1_555 1_555
C3 C7 1_555 1_555
C4 C2 1_555 1_555
H2 C4 1_555 1_555
C5 C1 1_555 1_555
C6 C10 1_555 1_555
C7 H3 1_555 1_555
C8 N1 1_555 1_555
C9 N1 1_555 1_555
C10 H4 1_555 1_555
C11 C3 1_555 1_555
H5 C11 1_555 1_555
C12 C1 1_555 1_555
H6 C12 1_555 1_555
C13 C6 1_555 1_555
C14 C9 1_555 1_555
H7 C14 1_555 1_555
C15 C6 1_555 1_555
H8 C15 1_555 1_555
C16 C17 1_555 1_555
C17 H9 1_555 1_555
C18 C8 1_555 1_555
H10 C18 1_555 1_555
C19 C8 1_555 1_555
H11 C19 1_555 1_555
C20 C16 1_555 1_555
C21 C16 1_555 1_555
H12 C21 1_555 1_555
Li2 O5 1_555 1_555
Li3 O1 1_555 1_555
Li4 O3 1_555 1_555
C4 C9 1_555 1_555
C7 C15 1_555 1_555
C10 C11 1_555 1_555
C12 C14 1_555 1_555
C17 C19 1_555 1_555
C18 C21 1_555 1_555
O7 Li1 1_555 1_555
O8 Li1 1_555 1_555
O9 Li1 1_555 1_555
O7_2 Li2 1_555 1_555
O8_2 Li2 1_555 1_555
Li4_2 O3_2 1_555 1_555
O1_2 C5_2 1_555 1_555
O2_2 C5_2 1_555 1_555
N1_2 C3_2 1_555 1_555
O4_2 C13_2 1_555 1_555
O9 C20_2 1_555 1_555
O6_2 C20_2 1_555 1_555
C1_2 C2_2 1_555 1_555
C2_2 H1_2 1_555 1_555
C3_2 C7_2 1_555 1_555
C4_2 C2_2 1_555 1_555
H2_2 C4_2 1_555 1_555
C5_2 C1_2 1_555 1_555
C6_2 C10_2 1_555 1_555
C7_2 H3_2 1_555 1_555
C8_2 N1_2 1_555 1_555
C9_2 N1_2 1_555 1_555
C11_2 C3_2 1_555 1_555
H5_2 C11_2 1_555 1_555
C12_2 C1_2 1_555 1_555
H6_2 C12_2 1_555 1_555
C13_2 C6_2 1_555 1_555
C14_2 C9_2 1_555 1_555
H7_2 C14_2 1_555 1_555
C15_2 C6_2 1_555 1_555
H8_2 C15_2 1_555 1_555
C16_2 C17_2 1_555 1_555
C17_2 H9_2 1_555 1_555
C18_2 C8_2 1_555 1_555
H10_2 C18_2 1_555 1_555
C19_2 C8_2 1_555 1_555
H11_2 C19_2 1_555 1_555
C20_2 C16_2 1_555 1_555
C21_2 C16_2 1_555 1_555
H12_2 C21_2 1_555 1_555
Li3_2 O1_2 1_555 1_555
C4_2 C9_2 1_555 1_555
C7_2 C15_2 1_555 1_555
C10_2 C11_2 1_555 1_555
C12_2 C14_2 1_555 1_555
C17_2 C19_2 1_555 1_555
C18_2 C21_2 1_555 1_555
O3_3 C13_3 1_555 1_555
O4_3 C13_3 1_555 1_555
C6_3 C10_3 1_555 1_555
C10_3 H4_3 1_555 1_555
C13_3 C6_3 1_555 1_555
C15_3 C6_3 1_555 1_555
H8_3 C15_3 1_555 1_555
Li4_3 O3_3 1_555 1_555
O7 C5_3 1_555 1_555
O2_3 C5_3 1_555 1_555
C1_3 C2_3 1_555 1_555
C2_3 H1_3 1_555 1_555
C5_3 C1_3 1_555 1_555
C12_3 C1_3 1_555 1_555
H6_3 C12_3 1_555 1_555
N1_3 C3_3 1_555 1_555
O5_2 C20_3 1_555 1_555
O6_3 C20_3 1_555 1_555
C3_3 C7_3 1_555 1_555
H2_3 C4_3 1_555 1_555
C7_3 H3_3 1_555 1_555
C8_3 N1_3 1_555 1_555
C9_3 N1_3 1_555 1_555
C11_3 C3_3 1_555 1_555
H5_3 C11_3 1_555 1_555
C14_3 C9_3 1_555 1_555
H7_3 C14_3 1_555 1_555
C16_3 C17_3 1_555 1_555
C17_3 H9_3 1_555 1_555
C18_3 C8_3 1_555 1_555
H10_3 C18_3 1_555 1_555
C19_3 C8_3 1_555 1_555
H11_3 C19_3 1_555 1_555
C20_3 C16_3 1_555 1_555
C21_3 C16_3 1_555 1_555
H12_3 C21_3 1_555 1_555
Li3 O6_3 1_555 1_555
O8_3 Li3 1_555 1_555
O9_2 Li3 1_555 1_555
Li3_2 O5_2 1_555 1_555
C4_3 C9_3 1_555 1_555
C17_3 C19_3 1_555 1_555
C18_3 C21_3 1_555 1_555
O7_2 C5_4 1_555 1_555
O2_4 C5_4 1_555 1_555
C1_4 C2_4 1_555 1_555
C2_4 H1_4 1_555 1_555
C5_4 C1_4 1_555 1_555
C12_4 C1_4 1_555 1_555
H6_4 C12_4 1_555 1_555
N1_4 C3_4 1_555 1_555
O9_2 C20_4 1_555 1_555
O6_4 C20_4 1_555 1_555
C3_4 C7_4 1_555 1_555
H2_4 C4_4 1_555 1_555
C7_4 H3_4 1_555 1_555
C8_4 N1_4 1_555 1_555
C9_4 N1_4 1_555 1_555
C11_4 C3_4 1_555 1_555
H5_4 C11_4 1_555 1_555
C14_4 C9_4 1_555 1_555
H7_4 C14_4 1_555 1_555
C16_4 C17_4 1_555 1_555
C17_4 H9_4 1_555 1_555
C18_4 C8_4 1_555 1_555
H10_4 C18_4 1_555 1_555
C19_4 C8_4 1_555 1_555
H11_4 C19_4 1_555 1_555
C20_4 C16_4 1_555 1_555
C21_4 C16_4 1_555 1_555
H12_4 C21_4 1_555 1_555
Li3_2 O6_4 1_555 1_555
O8_4 Li3_2 1_555 1_555
C4_4 C9_4 1_555 1_555
C17_4 C19_4 1_555 1_555
C18_4 C21_4 1_555 1_555
Li4_4 O3_4 1_555 1_555
O7_3 Li4_3 1_555 1_555
O9_3 Li4_3 1_555 1_555
O1_3 C5_5 1_555 1_555
O2_5 C5_5 1_555 1_555
O8_3 C13_4 1_555 1_555
N1_5 C3_5 1_555 1_555
O4_4 C13_4 1_555 1_555
O5_3 C20_5 1_555 1_555
O6_5 C20_5 1_555 1_555
C1_5 C2_5 1_555 1_555
C2_5 H1_5 1_555 1_555
C3_5 C7_5 1_555 1_555
C4_5 C2_5 1_555 1_555
H2_5 C4_5 1_555 1_555
C5_5 C1_5 1_555 1_555
C6_4 C10_4 1_555 1_555
C7_5 H3_5 1_555 1_555
C8_5 N1_5 1_555 1_555
C9_5 N1_5 1_555 1_555
C10_4 H4_5 1_555 1_555
C11_5 C3_5 1_555 1_555
H5_5 C11_5 1_555 1_555
C12_5 C1_5 1_555 1_555
H6_5 C12_5 1_555 1_555
C13_4 C6_4 1_555 1_555
C14_5 C9_5 1_555 1_555
H7_5 C14_5 1_555 1_555
C15_4 C6_4 1_555 1_555
H8_4 C15_4 1_555 1_555
C16_5 C17_5 1_555 1_555
C17_5 H9_5 1_555 1_555
C18_5 C8_5 1_555 1_555
H10_5 C18_5 1_555 1_555
C19_5 C8_5 1_555 1_555
H11_5 C19_5 1_555 1_555
C20_5 C16_5 1_555 1_555
C21_5 C16_5 1_555 1_555
H12_5 C21_5 1_555 1_555
Li4_4 O5_3 1_555 1_555
Li4 O1_3 1_555 1_555
C4_5 C9_5 1_555 1_555
C7_5 C15_4 1_555 1_555
C10_4 C11_5 1_555 1_555
C12_5 C14_5 1_555 1_555
C17_5 C19_5 1_555 1_555
C18_5 C21_5 1_555 1_555
O1_4 C5_6 1_555 1_555
O2_6 C5_6 1_555 1_555
N1_6 C3_6 1_555 1_555
O4_5 C13_5 1_555 1_555
O9_3 C20_6 1_555 1_555
O6_6 C20_6 1_555 1_555
C1_6 C2_6 1_555 1_555
C2_6 H1_6 1_555 1_555
C3_6 C7_6 1_555 1_555
C4_6 C2_6 1_555 1_555
H2_6 C4_6 1_555 1_555
C5_6 C1_6 1_555 1_555
C6_5 C10_5 1_555 1_555
C7_6 H3_6 1_555 1_555
C8_6 N1_6 1_555 1_555
C9_6 N1_6 1_555 1_555
C11_6 C3_6 1_555 1_555
H5_6 C11_6 1_555 1_555
C12_6 C1_6 1_555 1_555
H6_6 C12_6 1_555 1_555
C13_5 C6_5 1_555 1_555
C14_6 C9_6 1_555 1_555
H7_6 C14_6 1_555 1_555
C15_5 C6_5 1_555 1_555
H8_5 C15_5 1_555 1_555
C16_6 C17_6 1_555 1_555
C17_6 H9_6 1_555 1_555
C18_6 C8_6 1_555 1_555
H10_6 C18_6 1_555 1_555
C19_6 C8_6 1_555 1_555
H11_6 C19_6 1_555 1_555
C20_6 C16_6 1_555 1_555
C21_6 C16_6 1_555 1_555
H12_6 C21_6 1_555 1_555
Li4_2 O1_4 1_555 1_555
C4_6 C9_6 1_555 1_555
C7_6 C15_5 1_555 1_555
C10_5 C11_6 1_555 1_555
C12_6 C14_6 1_555 1_555
C17_6 C19_6 1_555 1_555
C18_6 C21_6 1_555 1_555
O7_4 Li4_4 1_555 1_555
N1_7 C3_7 1_555 1_555
O5_4 C20_7 1_555 1_555
O6_7 C20_7 1_555 1_555
C3_7 C7_7 1_555 1_555
H2_7 C4_7 1_555 1_555
C7_7 H3_7 1_555 1_555
C8_7 N1_7 1_555 1_555
C9_7 N1_7 1_555 1_555
C11_7 C3_7 1_555 1_555
H5_7 C11_7 1_555 1_555
C14_7 C9_7 1_555 1_555
H7_7 C14_7 1_555 1_555
C16_7 C17_7 1_555 1_555
C17_7 H9_7 1_555 1_555
C18_7 C8_7 1_555 1_555
H10_7 C18_7 1_555 1_555
C19_7 C8_7 1_555 1_555
H11_7 C19_7 1_555 1_555
C20_7 C16_7 1_555 1_555
C21_7 C16_7 1_555 1_555
H12_7 C21_7 1_555 1_555
Li4 O6_7 1_555 1_555
O9_4 Li4 1_555 1_555
Li4_2 O5_4 1_555 1_555
C4_7 C9_7 1_555 1_555
C17_7 C19_7 1_555 1_555
C18_7 C21_7 1_555 1_555
O7_3 C5_7 1_555 1_555
O2_7 C5_7 1_555 1_555
C1_7 C2_7 1_555 1_555
C2_7 H1_7 1_555 1_555
C5_7 C1_7 1_555 1_555
C12_7 C1_7 1_555 1_555
H6_7 C12_7 1_555 1_555
O8 C13_6 1_555 1_555
O4_6 C13_6 1_555 1_555
C6_6 C10_6 1_555 1_555
C10_6 H4_7 1_555 1_555
C13_6 C6_6 1_555 1_555
C15_6 C6_6 1_555 1_555
H8_6 C15_6 1_555 1_555
N1_8 C3_8 1_555 1_555
O9_4 C20_8 1_555 1_555
O6_8 C20_8 1_555 1_555
C3_8 C7_8 1_555 1_555
H2_8 C4_8 1_555 1_555
C7_8 H3_8 1_555 1_555
C8_8 N1_8 1_555 1_555
C9_8 N1_8 1_555 1_555
C11_8 C3_8 1_555 1_555
H5_8 C11_8 1_555 1_555
C14_8 C9_8 1_555 1_555
H7_8 C14_8 1_555 1_555
C16_8 C17_8 1_555 1_555
C17_8 H9_8 1_555 1_555
C18_8 C8_8 1_555 1_555
H10_8 C18_8 1_555 1_555
C19_8 C8_8 1_555 1_555
H11_8 C19_8 1_555 1_555
C20_8 C16_8 1_555 1_555
C21_8 C16_8 1_555 1_555
H12_8 C21_8 1_555 1_555
Li4_2 O6_8 1_555 1_555
C4_8 C9_8 1_555 1_555
C17_8 C19_8 1_555 1_555
C18_8 C21_8 1_555 1_555
O7_4 C5_8 1_555 1_555
O2_8 C5_8 1_555 1_555
C1_8 C2_8 1_555 1_555
C2_8 H1_8 1_555 1_555
C5_8 C1_8 1_555 1_555
C12_8 C1_8 1_555 1_555
H6_8 C12_8 1_555 1_555
O4_7 C13_7 1_555 1_555
C6_7 C10_7 1_555 1_555
C13_7 C6_7 1_555 1_555
C15_7 C6_7 1_555 1_555
H8_7 C15_7 1_555 1_555
O4_8 C13_8 1_555 1_555
C6_8 C10_8 1_555 1_555
C13_8 C6_8 1_555 1_555
C15_8 C6_8 1_555 1_555
H8_8 C15_8 1_555 1_555

#END
