
###############################################################################
#
# This file contains modified crystal structure data generated from the
# MOF subset of the Cambridge Structural Database (CSD) v543 
# hosted by the Cambridge Crystallographic Data Centre (CCDC).
#
# This work is licensed under the Creative Commons
# Attribution-NonCommercial-ShareAlike 4.0 International License.
# To view a copy of this license, visit
# http://creativecommons.org/licenses/by-nc-sa/4.0/
# or send a letter to
# Creative Commons, PO Box 1866, Mountain View, CA 94042, USA.
#
# CIF created using the CSD Python API on 29 September 2022
# The structure has been converted into the P1 space group
# The structure has a 3D framework
# The original CSD entry NACSUJ is in the triclinic crystal system
# The original CSD entry NACSUJ is in a Sohncke space group
# The framework has been calculated to contain at least 10.0% void space
# The void calculation uses a probe of radius 1.32A, grid spacing 0.4
# The framework is charged, counterions have been retained in the structure
#
###############################################################################

data_NACSUJ
_chemical_formula_moiety         '(C88 H86 Cl8 Eu4 N8 O25)n'
_symmetry_cell_setting           triclinic
_symmetry_space_group_name_H-M   'P 1'
_symmetry_Int_Tables_number      1
_space_group_name_Hall           'P 1'
loop_
_symmetry_equiv_pos_site_id
_symmetry_equiv_pos_as_xyz
1 x,y,z
_cell_length_a                   10.4971(3)
_cell_length_b                   16.3367(5)
_cell_length_c                   19.0994(5)
_cell_angle_alpha                84.8450(10)
_cell_angle_beta                 76.7760(10)
_cell_angle_gamma                86.8570(10)
_cell_volume                     3173.59
loop_
_atom_site_label
_atom_site_type_symbol
_atom_site_fract_x
_atom_site_fract_y
_atom_site_fract_z
_atom_site_U_iso_or_equiv
_atom_site_thermal_displace_type
Cl1 Cl 0.8067(5) 0.7530(2) 0.0627(2) 0.0990 Uani
Cl2 Cl 0.3260(5) 0.5836(2) 0.1080(2) 0.1076 Uani
Cl3 Cl 0.8525(4) 0.8237(3) 0.81322(19) 0.1100 Uani
Cl4 Cl 0.3288(11) 0.3342(6) 0.2832(4) 0.2067 Uani
Cl5 Cl 0.2236(9) 0.3188(6) 0.8004(5) 0.1959 Uani
Cl6 Cl 0.0099(5) 0.9400(4) 0.3917(3) 0.1061 Uani
Cl7 Cl 0.5915(9) 0.0054(5) 0.5252(7) 0.1533 Uani
Cl8 Cl 0.9929(10) 0.5073(6) 0.9136(5) 0.1397 Uani
Eu8 Eu 0.13930(4) 0.64939(2) 0.46644(2) 0.0350 Uani
Eu6 Eu 0.08559(4) 0.60288(2) 0.66748(2) 0.0336 Uani
Eu4 Eu 0.16733(4) 0.82110(2) 0.59085(2) 0.0359 Uani
C3 C 0.7940(10) 0.2635(6) 0.9439(6) 0.0557 Uani
C4 C 0.8015(10) 0.1868(6) 0.9809(6) 0.0554 Uani
H2 H 0.8149 0.1394 0.9563 0.0670 Uiso
C19 C 0.8093(10) 0.2703(6) 0.8657(7) 0.0587 Uani
C20 C 0.8638(12) 0.3385(7) 0.8239(7) 0.0719 Uani
H13 H 0.8965 0.3790 0.8455 0.0870 Uiso
C21 C 0.8704(12) 0.3474(8) 0.7522(8) 0.0782 Uani
H14 H 0.9060 0.3943 0.7253 0.0940 Uiso
C22 C 0.7784(13) 0.2198(7) 0.7579(6) 0.0706 Uani
H15 H 0.7522 0.1786 0.7341 0.0850 Uiso
C23 C 0.7678(12) 0.2085(7) 0.8286(7) 0.0691 Uani
H16 H 0.7334 0.1603 0.8539 0.0830 Uiso
C24 C 0.8249(12) 0.3046(8) 0.6396(7) 0.0742 Uani
H17 H 0.9090 0.3242 0.6127 0.0890 Uiso
H18 H 0.8093 0.2537 0.6209 0.0890 Uiso
C25 C 0.7174(10) 0.3682(7) 0.6308(6) 0.0585 Uani
C26 C 0.7476(10) 0.4372(7) 0.5845(6) 0.0614 Uani
H19 H 0.8328 0.4440 0.5578 0.0740 Uiso
C27 C 0.6516(10) 0.4965(7) 0.5775(6) 0.0584 Uani
H20 H 0.6716 0.5426 0.5452 0.0700 Uiso
C28 C 0.5233(9) 0.4872(6) 0.6192(5) 0.0494 Uani
C29 C 0.4934(10) 0.4195(6) 0.6643(6) 0.0579 Uani
H21 H 0.4080 0.4125 0.6907 0.0690 Uiso
C30 C 0.5913(12) 0.3594(7) 0.6716(6) 0.0682 Uani
H22 H 0.5712 0.3135 0.7040 0.0820 Uiso
C31 C 0.4204(10) 0.5562(6) 0.6146(5) 0.0512 Uani
C45 C 0.4407(10) 0.0869(6) 0.2134(5) 0.0520 Uani
C46 C 0.4369(9) 0.1597(5) 0.1735(5) 0.0478 Uani
H33 H 0.4299 0.2091 0.1950 0.0570 Uiso
C47 C 0.4437(10) 0.1592(6) 0.1008(6) 0.0565 Uani
C48 C 0.4624(10) 0.0877(6) 0.0687(5) 0.0511 Uani
H34 H 0.4723 0.0881 0.0190 0.0610 Uiso
C49 C 0.4668(10) 0.0144(6) 0.1096(5) 0.0506 Uani
C50 C 0.4208(10) 0.2372(6) 0.0588(5) 0.0517 Uani
C51 C 0.3835(12) 0.3090(6) 0.0918(6) 0.0622 Uani
H35 H 0.3781 0.3094 0.1411 0.0750 Uiso
C52 C 0.3543(12) 0.3800(7) 0.0537(7) 0.0670 Uani
H36 H 0.3278 0.4273 0.0774 0.0810 Uiso
C63 C 0.4243(12) 0.0902(6) 0.2945(7) 0.0658 Uani
C64 C 0.3456(15) 0.0362(7) 0.3402(7) 0.0765 Uani
C65 C 0.3149(17) 0.0464(8) 0.4136(8) 0.0939 Uani
H46 H 0.2585 0.0107 0.4452 0.1130 Uiso
C66 C 0.4517(18) 0.1535(10) 0.3954(10) 0.1043 Uani
H47 H 0.4940 0.1918 0.4145 0.1250 Uiso
C67 C 0.4820(15) 0.1473(8) 0.3200(8) 0.0838 Uani
H48 H 0.5408 0.1823 0.2893 0.1010 Uiso
C68 C 0.311(2) 0.1226(8) 0.5151(8) 0.1037 Uani
H49 H 0.3782 0.1105 0.5424 0.1240 Uiso
H50 H 0.2397 0.0861 0.5350 0.1240 Uiso
C69 C 0.2612(13) 0.2108(6) 0.5234(6) 0.0673 Uani
C70 C 0.2664(19) 0.2475(10) 0.5846(9) 0.1074 Uani
H51 H 0.2993 0.2183 0.6211 0.1290 Uiso
C71 C 0.2215(15) 0.3295(8) 0.5913(8) 0.0848 Uani
H52 H 0.2305 0.3562 0.6308 0.1010 Uiso
C72 C 0.1636(12) 0.3710(6) 0.5391(6) 0.0642 Uani
C73 C 0.1502(15) 0.3311(7) 0.4818(7) 0.0779 Uani
H53 H 0.1090 0.3575 0.4473 0.0940 Uiso
C74 C 0.1991(18) 0.2498(8) 0.4750(8) 0.0974 Uani
H54 H 0.1884 0.2223 0.4363 0.1170 Uiso
C75 C 0.1179(11) 0.4585(7) 0.5465(6) 0.0619 Uani
N1 N 0.7607(9) 0.3327(6) 0.9805(6) 0.0655 Uani
N3 N 0.8262(8) 0.2894(5) 0.7193(5) 0.0599 Uani
N5 N 0.4532(10) 0.0145(6) 0.1832(5) 0.0663 Uani
N6 N 0.3660(13) 0.1070(5) 0.4389(6) 0.0758 Uani
O3 O 0.4543(6) 0.6159(4) 0.5702(4) 0.0579 Uani
O4 O 0.3101(6) 0.5473(5) 0.6567(4) 0.0643 Uani
O7 O 0.0948(10) 0.4797(5) 0.6106(5) 0.0823 Uani
O8 O 0.0957(9) 0.5002(5) 0.4893(5) 0.0794 Uani
O13 O 0.2139(5) 0.6828(3) 0.5686(3) 0.0371 Uani
H65 H 0.2893 0.6704 0.5717 0.0560 Uiso
O16 O 0.0333(6) 0.7800(4) 0.5126(3) 0.0401 Uani
H68 H 0.0236 0.8190 0.4839 0.0600 Uiso
O17 O 0.0919(8) 0.4907(5) 0.7637(4) 0.0677 Uani
H69 H 0.089(15) 0.501(8) 0.808(3) 0.1020 Uiso
H70 H 0.143(13) 0.447(6) 0.756(7) 0.1020 Uiso
O18 O 0.2259(9) 0.6071(6) 0.3424(5) 0.0782 Uani
H71 H 0.219(18) 0.638(7) 0.303(5) 0.1170 Uiso
H72 H 0.251(17) 0.561(5) 0.321(7) 0.1170 Uiso
O19 O 0.3433(8) 0.5690(6) 0.4623(5) 0.0740 Uani
H73 H 0.369(15) 0.527(7) 0.436(7) 0.1110 Uiso
H74 H 0.386(14) 0.570(9) 0.496(6) 0.1110 Uiso
O23 O 0.0743(10) 0.9515(5) 0.5433(5) 0.0765 Uani
H81 H 0.073(16) 0.971(9) 0.501(3) 0.1140 Uiso
H82 H 0.019(13) 0.974(9) 0.577(5) 0.1140 Uiso
O24 O 0.0725(11) 0.9077(6) 0.6926(5) 0.0949 Uani
H84 H 0.084(16) 0.935(11) 0.727(8) 0.1430 Uiso
O25 O 0.3354(11) 0.9231(6) 0.5973(5) 0.0876 Uani
H85 H 0.336(18) 0.888(8) 0.565(7) 0.1310 Uiso
H86 H 0.389(16) 0.901(10) 0.622(8) 0.1310 Uiso
O28 O 0.2807(7) 0.7526(5) 0.4036(4) 0.0587 Uani
O29 O 0.3199(7) 0.8390(4) 0.4800(4) 0.0559 Uani
O32 O 0.2732(10) 0.7705(6) 0.6850(4) 0.0825 Uani
O33 O 0.1479(9) 0.6770(5) 0.7545(4) 0.0722 Uani
C34 C 0.8313(12) 0.9555(7) 0.1072(6) 0.0661 Uani
H24 H 0.8392 0.9057 0.0863 0.0800 Uiso
C37 C 0.8384(10) 0.8775(7) 0.2209(6) 0.0662 Uani
H27 H 0.9058 0.8804 0.2478 0.0800 Uiso
H28 H 0.8620 0.8325 0.1900 0.0800 Uiso
C38 C 0.7082(9) 0.8618(6) 0.2727(5) 0.0504 Uani
C39 C 0.6084(10) 0.8310(6) 0.2496(5) 0.0525 Uani
H29 H 0.6200 0.8210 0.2013 0.0630 Uiso
C40 C 0.4897(9) 0.8143(6) 0.2971(5) 0.0483 Uani
H30 H 0.4229 0.7928 0.2805 0.0570 Uiso
C41 C 0.4705(9) 0.8292(5) 0.3673(5) 0.0444 Uani
C42 C 0.5694(11) 0.8629(8) 0.3923(6) 0.0659 Uani
H31 H 0.5552 0.8755 0.4401 0.0790 Uiso
C43 C 0.6894(11) 0.8774(8) 0.3449(6) 0.0656 Uani
H32 H 0.7573 0.8976 0.3615 0.0780 Uiso
C44 C 0.3479(9) 0.8058(5) 0.4216(5) 0.0442 Uani
N4 N 0.8296(8) 0.9565(5) 0.1758(5) 0.0575 Uani
C79 C 0.5796(14) 0.8620(9) 0.9703(7) 0.0811 Uani
H57 H 0.6341 0.8599 0.9246 0.0970 Uiso
H58 H 0.6030 0.9820 0.9801 0.0850 Uiso
C81 C 0.5332(11) 0.7204(7) 0.9638(6) 0.0617 Uani
H59 H 0.5051 0.6733 0.9974 0.0740 Uiso
H60 H 0.6249 0.7112 0.9413 0.0740 Uiso
C82 C 0.4544(11) 0.7277(6) 0.9066(5) 0.0558 Uani
C83 C 0.3275(10) 0.6976(6) 0.9242(5) 0.0526 Uani
H61 H 0.2921 0.6762 0.9710 0.0630 Uiso
C84 C 0.2550(11) 0.6997(7) 0.8720(6) 0.0601 Uani
H62 H 0.1718 0.6784 0.8829 0.0710 Uiso
C85 C 0.3083(10) 0.7341(6) 0.8028(5) 0.0508 Uani
C86 C 0.4319(12) 0.7661(7) 0.7871(6) 0.0643 Uani
H63 H 0.4664 0.7908 0.7413 0.0770 Uiso
C87 C 0.5031(11) 0.7612(7) 0.8392(5) 0.0620 Uani
H64 H 0.5871 0.7814 0.8278 0.0750 Uiso
C88 C 0.2384(11) 0.7280(6) 0.7428(6) 0.0573 Uani
C1 C 0.7403(10) 0.3279(6) 0.0525(6) 0.0539 Uani
C2 C 0.7531(10) 0.2536(6) 0.0900(6) 0.0532 Uani
H1 H 0.7375 0.2513 0.1401 0.0640 Uiso
C5 C 0.7885(9) 0.1822(6) 0.0561(6) 0.0544 Uani
C6 C 0.6325(15) 0.3986(8) 0.1615(6) 0.0762 Uani
H3 H 0.6110 0.3480 0.1867 0.0910 Uiso
C7 C 0.5917(15) 0.4697(9) 0.1956(6) 0.0840 Uani
H4 H 0.5395 0.4665 0.2422 0.1000 Uiso
C8 C 0.6956(10) 0.5506(6) 0.0934(6) 0.0557 Uani
H5 H 0.7176 0.6024 0.0708 0.0670 Uiso
C9 C 0.7332(10) 0.4796(6) 0.0571(6) 0.0558 Uani
H6 H 0.7784 0.4847 0.0091 0.0670 Uiso
C10 C 0.7045(10) 0.4004(6) 0.0911(5) 0.0543 Uani
C11 C 0.5823(12) 0.6170(8) 0.2008(6) 0.0712 Uani
H7 H 0.4889 0.6152 0.2215 0.0850 Uiso
H8 H 0.5976 0.6652 0.1667 0.0850 Uiso
C12 C 0.6547(10) 0.6238(6) 0.2601(5) 0.0528 Uani
C13 C 0.5840(10) 0.6291(6) 0.3291(5) 0.0524 Uani
H9 H 0.4938 0.6234 0.3397 0.0630 Uiso
C14 C 0.6461(10) 0.6429(6) 0.3831(5) 0.0495 Uani
H10 H 0.5972 0.6464 0.4300 0.0590 Uiso
C15 C 0.7788(9) 0.6515(6) 0.3684(5) 0.0455 Uani
C16 C 0.8507(10) 0.6441(7) 0.2977(5) 0.0595 Uani
H11 H 0.9412 0.6480 0.2871 0.0720 Uiso
C17 C 0.7895(10) 0.6310(8) 0.2442(5) 0.0630 Uani
H12 H 0.8379 0.6269 0.1973 0.0750 Uiso
C18 C 0.8445(9) 0.6691(7) 0.4265(5) 0.0533 Uani
C32 C 0.8052(11) 0.1038(7) 0.0966(6) 0.0643 Uani
C33 C 0.8214(12) 0.0293(7) 0.0651(6) 0.0621 Uani
H23 H 0.8256 0.0285 0.0160 0.0740 Uiso
C35 C 0.8211(15) 0.0249(8) 0.2076(7) 0.0818 Uani
H25 H 0.8249 0.0229 0.2559 0.0980 Uiso
C36 C 0.8061(15) 0.1029(8) 0.1690(7) 0.0806 Uani
H26 H 0.7973 0.1514 0.1919 0.0970 Uiso
N2 N 0.6265(9) 0.5420(5) 0.1623(4) 0.0575 Uani
O1 O 0.7774(7) 0.6890(5) 0.4857(3) 0.0533 Uani
O2 O 0.9688(8) 0.6725(7) 0.4081(4) 0.0811 Uani
Eu10 Eu 0.82589(3) 0.74366(2) 0.58625(2) 0.0328 Uani
C53 C 0.4038(12) 0.3157(9) 0.9486(6) 0.0768 Uani
H37 H 0.4112 0.3183 0.8990 0.0920 Uiso
C54 C 0.4355(13) 0.2426(7) 0.9843(6) 0.0688 Uani
H38 H 0.4666 0.1972 0.9585 0.0820 Uiso
C55 C 0.3285(10) 0.4569(8) 0.9434(7) 0.0766 Uani
H39 H 0.2942 0.4978 0.9773 0.0910 Uiso
H40 H 0.2596 0.4455 0.9198 0.0910 Uiso
C56 C 0.4440(9) 0.4923(6) 0.8867(6) 0.0526 Uani
C57 C 0.5655(10) 0.4946(8) 0.9013(6) 0.0695 Uani
H41 H 0.5784 0.4709 0.9454 0.0840 Uiso
C58 C 0.6689(9) 0.5305(6) 0.8532(6) 0.0560 Uani
H42 H 0.7516 0.5296 0.8634 0.0670 Uiso
C59 C 0.6463(9) 0.5679(5) 0.7897(4) 0.0420 Uani
C60 C 0.5255(9) 0.5681(5) 0.7748(5) 0.0472 Uani
H43 H 0.5113 0.5946 0.7319 0.0560 Uiso
C61 C 0.4225(9) 0.5288(6) 0.8236(5) 0.0514 Uani
H44 H 0.3405 0.5278 0.8130 0.0610 Uiso
C62 C 0.7566(8) 0.6075(5) 0.7337(4) 0.0412 Uani
N7 N 0.3634(8) 0.3816(6) 0.9831(5) 0.0619 Uani
O9 O 0.8715(6) 0.5864(5) 0.7384(4) 0.0593 Uani
O10 O 0.7253(7) 0.6561(4) 0.6845(4) 0.0516 Uani
O14 O 0.9645(5) 0.6269(3) 0.5730(3) 0.0362 Uani
H66 H 0.9221 0.5869 0.5707 0.0540 Uiso
O15 O 0.9862(5) 0.7471(3) 0.6587(3) 0.0370 Uani
H67 H 0.9618 0.7652 0.6984 0.0560 Uiso
O20 O 0.7884(8) 0.8744(5) 0.5182(5) 0.0706 Uani
H75 H 0.842(10) 0.896(9) 0.483(5) 0.1060 Uiso
H76 H 0.708(5) 0.874(10) 0.517(8) 0.1060 Uiso
O21 O 0.5837(7) 0.7565(5) 0.5898(4) 0.0568 Uani
H77 H 0.528(9) 0.720(5) 0.588(8) 0.0850 Uiso
H78 H 0.547(11) 0.804(3) 0.580(8) 0.0850 Uiso
O22 O 0.7372(8) 0.8464(5) 0.6755(4) 0.0661 Uani
H79 H 0.728(16) 0.833(8) 0.722(2) 0.1000 Uiso
H80 H 0.715(15) 0.897(3) 0.669(7) 0.1000 Uiso
H83 H 0.989(5) 0.908(13) 0.693(11) 0.1430 Uiso
H45 H 0.3123 0.9927 0.3225 0.0920 Uiso
C76 C 0.4857(10) 0.9396(6) 0.0723(5) 0.0503 Uani
C77 C 0.4245(10) 0.8662(6) 0.1070(5) 0.0542 Uani
H55 H 0.3731 0.8657 0.1536 0.0650 Uiso
C78 C 0.4429(11) 0.7952(7) 0.0696(5) 0.0577 Uani
H56 H 0.4019 0.7474 0.0915 0.0690 Uiso
C80 C 0.5620(13) 0.9352(7) 0.0043(6) 0.0704 Uani
N8 N 0.5180(8) 0.7947(6) 0.0035(5) 0.0589 Uani
loop_
_atom_site_aniso_label
_atom_site_aniso_U_11
_atom_site_aniso_U_22
_atom_site_aniso_U_33
_atom_site_aniso_U_23
_atom_site_aniso_U_13
_atom_site_aniso_U_12
Cl1 0.144 0.08 0.077 -0.0166 -0.027 -0.012
Cl2 0.155 0.085 0.092 -0.0127 -0.043 -0.012
Cl3 0.092 0.173 0.0635 -0.024 -0.0054 -0.019
Cl4 0.289 0.186 0.123 -0.012 -0.001 -0.008
Cl5 0.173 0.197 0.204 0.059 -0.044 -0.003
Cl6 0.09 0.137 0.09 0.042 -0.028 -0.042
Cl7 0.119 0.118 0.226 -0.033 -0.04 0.005
Cl8 0.13 0.166 0.107 -0.003 0.004 -0.006
Eu8 0.0323 0.0394 0.0338 -0.0093 -0.00543 -0.00272
Eu6 0.0319 0.0372 0.0327 -0.00106 -0.00922 -0.00338
Eu4 0.0407 0.036 0.0318 -0.00593 -0.00709 -0.008
C3 0.043 0.049 0.076 -0.01 -0.013 -0.002
C4 0.049 0.049 0.069 -0.005 -0.013 -0.009
C19 0.05 0.041 0.091 -0.009 -0.026 -0.005
C20 0.067 0.065 0.09 0.01 -0.034 -0.014
C21 0.055 0.076 0.103 0.008 -0.021 -0.008
C22 0.085 0.063 0.066 -0.024 -0.015 0.001
C23 0.082 0.046 0.083 -0.018 -0.021 -0.003
C24 0.066 0.077 0.075 -0.013 -0.01 0.024
C25 0.051 0.062 0.06 -0.015 -0.007 0.013
C26 0.044 0.082 0.052 0.004 -0.004 0.009
C27 0.046 0.064 0.06 -0.005 -0.003 0.006
C28 0.041 0.058 0.052 -0.004 -0.017 0
C29 0.045 0.066 0.058 0.001 -0.004 -0.002
C30 0.072 0.06 0.064 0.006 -0.004 0.008
C31 0.048 0.061 0.047 -0.003 -0.018 0.006
C45 0.056 0.045 0.056 -0.01 -0.013 0.002
C46 0.051 0.034 0.058 -0.006 -0.01 -0.005
C47 0.054 0.049 0.068 -0.003 -0.015 -0.012
C48 0.048 0.058 0.049 -0.005 -0.013 -0.008
C49 0.055 0.051 0.05 -0.006 -0.019 -0.005
C50 0.055 0.054 0.045 0.003 -0.008 -0.018
C51 0.076 0.053 0.059 -0.002 -0.019 -0.002
C52 0.076 0.048 0.075 0.004 -0.014 -0.012
C63 0.071 0.049 0.078 -0.006 -0.02 0.009
C64 0.119 0.049 0.067 -0.009 -0.032 0.002
C65 0.126 0.06 0.08 0.023 -0.006 0.014
C66 0.118 0.077 0.121 -0.046 -0.016 -0.014
C67 0.099 0.072 0.08 -0.029 -0.006 -0.023
C68 0.157 0.054 0.08 -0.008 0.011 0.018
C69 0.099 0.036 0.063 -0.006 -0.013 0.012
C70 0.142 0.097 0.1 -0.041 -0.062 0.052
C71 0.118 0.07 0.084 -0.04 -0.056 0.038
C72 0.072 0.055 0.06 -0.016 0.002 -0.005
C73 0.115 0.061 0.061 -0.022 -0.025 0.017
C74 0.148 0.071 0.08 -0.037 -0.038 0.04
C75 0.06 0.059 0.064 -0.01 -0.01 0.013
N1 0.06 0.064 0.079 -0.015 -0.025 -0.003
N3 0.049 0.052 0.074 -0.005 -0.008 0.016
N5 0.068 0.062 0.069 -0.007 -0.014 -0.006
N6 0.126 0.038 0.069 -0.021 -0.031 0.013
O3 0.038 0.062 0.071 0.014 -0.014 -0.002
O4 0.035 0.086 0.063 0.017 -0.003 0.005
O7 0.109 0.058 0.098 -0.035 -0.058 0.033
O8 0.083 0.052 0.09 -0.012 0.008 0.007
O13 0.032 0.046 0.032 -0.012 -0.002 0.002
O16 0.042 0.041 0.037 0.005 -0.012 0
O17 0.071 0.063 0.065 0.012 -0.014 0
O18 0.073 0.103 0.062 -0.039 -0.015 0.02
O19 0.056 0.095 0.068 -0.019 -0.009 0.022
O23 0.102 0.047 0.093 -0.02 -0.046 0.014
O24 0.124 0.082 0.065 -0.044 0.029 -0.034
O25 0.103 0.092 0.076 -0.011 -0.026 -0.044
O28 0.056 0.071 0.045 -0.005 0 -0.015
O29 0.052 0.061 0.048 -0.011 0.008 -0.014
O32 0.126 0.083 0.056 0.003 -0.056 -0.02
O33 0.093 0.068 0.07 -0.019 -0.044 0.002
C34 0.07 0.062 0.063 -0.008 -0.004 -0.014
C37 0.041 0.073 0.072 0.019 0.003 0.001
C38 0.038 0.053 0.055 0.005 -0.002 -0.006
C39 0.051 0.064 0.04 -0.005 -0.004 -0.004
C40 0.046 0.051 0.046 0.001 -0.006 -0.011
C41 0.04 0.04 0.051 -0.004 -0.004 -0.007
C42 0.063 0.093 0.043 -0.002 -0.01 -0.027
C43 0.048 0.096 0.056 0.003 -0.017 -0.024
C44 0.051 0.035 0.044 -0.002 -0.005 -0.005
N4 0.045 0.064 0.055 -0.002 0.008 -0.013
C79 0.099 0.093 0.052 -0.028 -0.002 -0.036
C81 0.056 0.077 0.065 -0.038 -0.032 0.016
C82 0.067 0.058 0.053 -0.023 -0.03 0.004
C83 0.056 0.064 0.04 -0.003 -0.015 -0.005
C84 0.054 0.075 0.056 -0.009 -0.018 -0.014
C85 0.07 0.042 0.048 -0.005 -0.028 -0.005
C86 0.078 0.08 0.042 -0.021 -0.018 -0.021
C87 0.053 0.093 0.044 -0.025 -0.008 -0.017
C88 0.074 0.048 0.062 -0.017 -0.038 0.009
C1 0.043 0.059 0.064 -0.006 -0.02 -0.005
C2 0.059 0.043 0.056 0.001 -0.008 -0.017
C5 0.042 0.056 0.065 -0.014 -0.006 -0.011
C6 0.12 0.071 0.042 0.001 -0.022 -0.035
C7 0.11 0.1 0.042 -0.014 -0.009 -0.026
C8 0.056 0.058 0.056 -0.011 -0.018 0.006
C9 0.055 0.061 0.052 -0.015 -0.009 -0.002
C10 0.06 0.053 0.054 -0.005 -0.017 -0.019
C11 0.079 0.091 0.059 -0.037 -0.041 0.022
C12 0.051 0.063 0.051 -0.022 -0.022 0.014
C13 0.051 0.057 0.054 -0.012 -0.021 0.008
C14 0.048 0.058 0.047 -0.013 -0.019 0.008
C15 0.051 0.049 0.039 -0.013 -0.012 0.001
C16 0.049 0.085 0.048 -0.023 -0.014 0.009
C17 0.053 0.102 0.04 -0.019 -0.018 -0.001
C18 0.038 0.076 0.054 -0.029 -0.021 0.011
C32 0.058 0.06 0.073 -0.001 -0.007 -0.026
C33 0.075 0.06 0.051 -0.01 -0.009 -0.012
C35 0.105 0.084 0.05 -0.012 0.004 -0.027
C36 0.105 0.074 0.056 -0.014 0 -0.005
N2 0.066 0.069 0.045 -0.014 -0.024 -0.004
O1 0.047 0.08 0.037 -0.015 -0.014 -0.002
O2 0.049 0.148 0.055 -0.032 -0.023 0.008
Eu10 0.0323 0.0371 0.0288 -0.0033 -0.00667 -0.0002
C53 0.062 0.11 0.049 0.016 0.002 -0.019
C54 0.091 0.054 0.061 -0.008 -0.017 0.007
C55 0.043 0.08 0.089 0.039 0.005 -0.006
C56 0.04 0.051 0.058 0.013 0.002 -0.008
C57 0.048 0.097 0.058 0.036 -0.016 -0.005
C58 0.04 0.065 0.061 0.017 -0.015 -0.006
C59 0.044 0.046 0.03 0.001 0.001 0.004
C60 0.046 0.049 0.045 -0.002 -0.008 -0.001
C61 0.037 0.05 0.063 0.007 -0.006 -0.007
C62 0.041 0.048 0.033 -0.002 -0.004 -0.008
N7 0.049 0.068 0.06 0.013 -0.001 -0.003
O9 0.035 0.08 0.054 0.016 0.001 -0.006
O10 0.048 0.059 0.044 0.017 -0.008 -0.014
O14 0.038 0.033 0.038 -0.005 -0.007 -0.008
O15 0.033 0.045 0.035 -0.005 -0.011 -0.003
O20 0.06 0.063 0.077 0.027 -0.006 0.007
O21 0.043 0.071 0.057 -0.014 -0.009 -0.001
O22 0.077 0.072 0.053 -0.028 -0.016 0.009
C76 0.053 0.061 0.041 -0.009 -0.017 -0.002
C77 0.067 0.053 0.04 -0.001 -0.007 -0.004
C78 0.073 0.061 0.044 -0.013 -0.019 -0.005
C80 0.094 0.073 0.043 -0.012 -0.003 -0.033
N8 0.06 0.076 0.051 -0.021 -0.028 -0.002
loop_
_geom_bond_atom_site_label_1
_geom_bond_atom_site_label_2
_geom_bond_site_symmetry_1
_geom_bond_site_symmetry_2
Eu6 O4 1_555 1_555
Eu8 O8 1_555 1_555
Eu4 O13 1_555 1_555
C3 C4 1_555 1_555
C4 H2 1_555 1_555
C19 C3 1_555 1_555
C20 C19 1_555 1_555
H13 C20 1_555 1_555
C21 C20 1_555 1_555
H14 C21 1_555 1_555
C22 H15 1_555 1_555
C23 C19 1_555 1_555
H16 C23 1_555 1_555
C24 H17 1_555 1_555
H18 C24 1_555 1_555
C25 C24 1_555 1_555
C26 C25 1_555 1_555
H19 C26 1_555 1_555
C27 C26 1_555 1_555
H20 C27 1_555 1_555
C28 C27 1_555 1_555
C29 C28 1_555 1_555
H21 C29 1_555 1_555
C30 C25 1_555 1_555
H22 C30 1_555 1_555
C31 C28 1_555 1_555
C45 C46 1_555 1_555
C46 H33 1_555 1_555
C47 C46 1_555 1_555
C48 C47 1_555 1_555
H34 C48 1_555 1_555
C49 C48 1_555 1_555
C50 C47 1_555 1_555
C51 C50 1_555 1_555
H35 C51 1_555 1_555
C52 C51 1_555 1_555
H36 C52 1_555 1_555
C63 C45 1_555 1_555
C64 C63 1_555 1_555
C65 C64 1_555 1_555
H46 C65 1_555 1_555
C66 H47 1_555 1_555
C67 C63 1_555 1_555
H48 C67 1_555 1_555
C68 H49 1_555 1_555
H50 C68 1_555 1_555
C69 C68 1_555 1_555
C70 C69 1_555 1_555
H51 C70 1_555 1_555
C71 C70 1_555 1_555
H52 C71 1_555 1_555
C72 C71 1_555 1_555
C73 C72 1_555 1_555
H53 C73 1_555 1_555
C74 C69 1_555 1_555
H54 C74 1_555 1_555
C75 C72 1_555 1_555
N3 C21 1_555 1_555
N5 C45 1_555 1_555
N6 C65 1_555 1_555
O3 C31 1_555 1_555
O4 C31 1_555 1_555
O7 Eu6 1_555 1_555
O8 C75 1_555 1_555
O13 Eu6 1_555 1_555
H65 O13 1_555 1_555
O16 Eu8 1_555 1_555
H68 O16 1_555 1_555
O17 Eu6 1_555 1_555
H69 O17 1_555 1_555
H70 O17 1_555 1_555
O18 Eu8 1_555 1_555
H71 O18 1_555 1_555
H72 O18 1_555 1_555
O19 Eu8 1_555 1_555
H73 O19 1_555 1_555
H74 O19 1_555 1_555
O23 Eu4 1_555 1_555
H81 O23 1_555 1_555
H82 O23 1_555 1_555
O24 Eu4 1_555 1_555
H84 O24 1_555 1_555
O25 Eu4 1_555 1_555
H85 O25 1_555 1_555
H86 O25 1_555 1_555
O28 Eu8 1_555 1_555
O29 Eu4 1_555 1_555
O32 Eu4 1_555 1_555
O33 Eu6 1_555 1_555
Eu8 O13 1_555 1_555
Eu4 O16 1_555 1_555
C3 N1 1_555 1_555
C22 C23 1_555 1_555
C22 N3 1_555 1_555
C24 N3 1_555 1_555
C29 C30 1_555 1_555
C49 N5 1_555 1_555
C66 C67 1_555 1_555
C66 N6 1_555 1_555
C68 N6 1_555 1_555
C73 C74 1_555 1_555
C75 O7 1_555 1_555
H24 C34 1_555 1_555
C37 H27 1_555 1_555
H28 C37 1_555 1_555
C38 C37 1_555 1_555
C39 C38 1_555 1_555
H29 C39 1_555 1_555
C40 C39 1_555 1_555
H30 C40 1_555 1_555
C41 C40 1_555 1_555
C42 C41 1_555 1_555
H31 C42 1_555 1_555
C43 C38 1_555 1_555
H32 C43 1_555 1_555
C44 C41 1_555 1_555
N4 C34 1_555 1_555
O28 C44 1_555 1_555
O29 C44 1_555 1_555
C37 N4 1_555 1_555
C42 C43 1_555 1_555
C79 H57 1_555 1_555
C81 H59 1_555 1_555
H60 C81 1_555 1_555
C82 C81 1_555 1_555
C83 C82 1_555 1_555
H61 C83 1_555 1_555
C84 C83 1_555 1_555
H62 C84 1_555 1_555
C85 C84 1_555 1_555
C86 C85 1_555 1_555
H63 C86 1_555 1_555
C87 C82 1_555 1_555
H64 C87 1_555 1_555
C88 C85 1_555 1_555
O32 C88 1_555 1_555
O33 C88 1_555 1_555
C86 C87 1_555 1_555
C1 C2 1_555 1_555
C2 H1 1_555 1_555
C5 C2 1_555 1_555
C6 H3 1_555 1_555
C7 C6 1_555 1_555
H4 C7 1_555 1_555
C8 H5 1_555 1_555
C9 C8 1_555 1_555
H6 C9 1_555 1_555
C10 C1 1_555 1_555
C11 H7 1_555 1_555
H8 C11 1_555 1_555
C12 C11 1_555 1_555
C13 C12 1_555 1_555
H9 C13 1_555 1_555
C14 C13 1_555 1_555
H10 C14 1_555 1_555
C15 C14 1_555 1_555
C16 C15 1_555 1_555
H11 C16 1_555 1_555
C17 C12 1_555 1_555
H12 C17 1_555 1_555
C18 C15 1_555 1_555
C32 C5 1_555 1_555
C33 C32 1_555 1_555
H23 C33 1_555 1_555
C35 H25 1_555 1_555
C36 C32 1_555 1_555
H26 C36 1_555 1_555
N2 C7 1_555 1_555
O1 C18 1_555 1_555
O2 C18 1_555 1_555
Eu10 O1 1_555 1_555
C6 C10 1_555 1_555
C8 N2 1_555 1_555
C9 C10 1_555 1_555
C11 N2 1_555 1_555
C16 C17 1_555 1_555
C35 C36 1_555 1_555
C53 H37 1_555 1_555
H38 C54 1_555 1_555
C55 H39 1_555 1_555
H40 C55 1_555 1_555
C56 C55 1_555 1_555
C57 C56 1_555 1_555
H41 C57 1_555 1_555
C58 C57 1_555 1_555
H42 C58 1_555 1_555
C59 C58 1_555 1_555
C60 C59 1_555 1_555
H43 C60 1_555 1_555
C61 C56 1_555 1_555
H44 C61 1_555 1_555
C62 C59 1_555 1_555
O9 C62 1_555 1_555
O10 C62 1_555 1_555
Eu10 O10 1_555 1_555
C53 C54 1_555 1_555
C53 N7 1_555 1_555
C55 N7 1_555 1_555
C60 C61 1_555 1_555
Eu10 O14 1_555 1_555
H66 O14 1_555 1_555
H67 O15 1_555 1_555
O20 Eu10 1_555 1_555
H75 O20 1_555 1_555
H76 O20 1_555 1_555
O21 Eu10 1_555 1_555
H77 O21 1_555 1_555
H78 O21 1_555 1_555
O22 Eu10 1_555 1_555
H79 O22 1_555 1_555
H80 O22 1_555 1_555
Eu10 O15 1_555 1_555
C77 C76 1_555 1_555
H55 C77 1_555 1_555
C78 C77 1_555 1_555
H56 C78 1_555 1_555
C80 C76 1_555 1_555
N8 C78 1_555 1_555

#END
