
###############################################################################
#
# This file contains modified crystal structure data generated from the
# MOF subset of the Cambridge Structural Database (CSD) v543 
# hosted by the Cambridge Crystallographic Data Centre (CCDC).
#
# This work is licensed under the Creative Commons
# Attribution-NonCommercial-ShareAlike 4.0 International License.
# To view a copy of this license, visit
# http://creativecommons.org/licenses/by-nc-sa/4.0/
# or send a letter to
# Creative Commons, PO Box 1866, Mountain View, CA 94042, USA.
#
# CIF created using the CSD Python API on 29 September 2022
# The structure has been converted into the P1 space group
# The structure has a 3D framework
# The original CSD entry NACVUI is in the monoclinic crystal system
# The framework has been calculated to contain at least 10.0% void space
# The void calculation uses a probe of radius 1.32A, grid spacing 0.4
# The framework is charged, counterions have been retained in the structure
#
###############################################################################

data_NACVUI
_chemical_formula_moiety         '(C36 H20 Cu4 N12 O4)n'
_symmetry_cell_setting           triclinic
_symmetry_space_group_name_H-M   'P 1'
_symmetry_Int_Tables_number      1
_space_group_name_Hall           'P 1'
loop_
_symmetry_equiv_pos_site_id
_symmetry_equiv_pos_as_xyz
1 x,y,z
_cell_length_a                   7.314(2)
_cell_length_b                   15.332(4)
_cell_length_c                   12.758(3)
_cell_angle_alpha                90
_cell_angle_beta                 94.50(2)
_cell_angle_gamma                90
_cell_volume                     1426.25
loop_
_atom_site_label
_atom_site_type_symbol
_atom_site_fract_x
_atom_site_fract_y
_atom_site_fract_z
Cu2 Cu 0.26793(10) 0.37975(5) 0.14229(5)
Cu1 Cu 0.26793(10) 0.12025(5) 0.64229(5)
C1 C 0.2315(7) 0.3837(4) 0.7903(4)
C2 C 0.2171(8) 0.4689(4) 0.7303(4)
C3 C 0.2405(8) 0.3041(4) 0.7398(4)
N1 N 0.2491(8) 0.2380(3) 0.6985(4)
C4 C 0.2437(8) 0.3845(4) 0.8987(4)
N2 N 0.2507(8) 0.3858(3) 0.9901(4)
C5 C 0.3808(8) 0.5232(4) 0.7611(4)
N3 N 0.5014(8) 0.5637(3) 0.7950(4)
C6 C 0.0576(9) 0.5178(4) 0.7648(4)
C7 C 0.1900(8) 0.4550(4) 0.6103(4)
H1 H 0.0858(8) 0.4167(4) 0.5950(4)
H2 H 0.1610(8) 0.5106(4) 0.5769(4)
C8 C 0.3549(10) 0.4164(4) 0.5627(5)
O1 O 0.5042(7) 0.4193(3) 0.6084(4)
C9 C 0.3186(11) 0.3764(6) 0.4561(5)
H3 H 0.2545(11) 0.4175(6) 0.4098(5)
H4 H 0.2451(11) 0.3249(6) 0.4614(5)
H5 H 0.4329(11) 0.3611(6) 0.4287(5)
N5 N 0.2507(8) 0.1142(3) 0.4901(4)
N6 N 0.4986(8) 0.0637(3) 0.7050(4)
N7 N 0.0651(7) 0.0509(3) 0.7041(4)
Cu3 Cu 0.73207(10) 0.62025(5) 0.85771(5)
N4 N 0.9349(7) 0.5509(3) 0.7959(4)
C5_2 C 0.6192(8) 0.0232(4) 0.7389(4)
C6_2 C 0.9424(9) 0.0178(4) 0.7352(4)
H2_2 H 0.8390(8) 0.0106(4) 0.9231(4)
C9_2 C 0.6814(11) 0.8764(6) 0.0439(5)
H3_2 H 0.7455(11) 0.9175(6) 0.0902(5)
H4_2 H 0.7549(11) 0.8249(6) 0.0386(5)
H5_2 H 0.5671(11) 0.8611(6) 0.0713(5)
N5_2 N 0.7493(8) 0.6142(3) 0.0099(4)
C1_2 C 0.7685(7) 0.8837(4) 0.7097(4)
C2_2 C 0.7829(8) 0.9689(4) 0.7697(4)
C3_2 C 0.7595(8) 0.8041(4) 0.7602(4)
N1_2 N 0.7509(8) 0.7380(3) 0.8015(4)
C4_2 C 0.7563(8) 0.8845(4) 0.6013(4)
N2_2 N 0.7493(8) 0.8858(3) 0.5099(4)
C7_2 C 0.8100(8) 0.9550(4) 0.8897(4)
H1_2 H 0.9142(8) 0.9167(4) 0.9050(4)
C8_2 C 0.6451(10) 0.9164(4) 0.9373(5)
O1_2 O 0.4958(7) 0.9193(3) 0.8916(4)
Cu2_2 Cu 0.73207(10) 0.87975(5) 0.35771(5)
N4_2 N 0.0651(7) 0.4491(3) 0.2041(4)
C1_3 C 0.7685(7) 0.6163(4) 0.2097(4)
C2_3 C 0.7829(8) 0.5311(4) 0.2697(4)
C3_3 C 0.7595(8) 0.6959(4) 0.2602(4)
N1_3 N 0.7509(8) 0.7620(3) 0.3015(4)
C4_3 C 0.7563(8) 0.6155(4) 0.1013(4)
C5_3 C 0.6192(8) 0.4768(4) 0.2389(4)
N3_2 N 0.4986(8) 0.4363(3) 0.2050(4)
C6_3 C 0.9424(9) 0.4822(4) 0.2352(4)
C7_3 C 0.8100(8) 0.5450(4) 0.3897(4)
H1_3 H 0.9142(8) 0.5833(4) 0.4050(4)
H2_3 H 0.8390(8) 0.4894(4) 0.4231(4)
C8_3 C 0.6451(10) 0.5836(4) 0.4373(5)
O1_3 O 0.4958(7) 0.5807(3) 0.3916(4)
C9_3 C 0.6814(11) 0.6236(6) 0.5439(5)
H3_3 H 0.7455(11) 0.5825(6) 0.5902(5)
H4_3 H 0.7549(11) 0.6751(6) 0.5386(5)
H5_3 H 0.5671(11) 0.6389(6) 0.5713(5)
N6_2 N 0.5014(8) 0.9363(3) 0.2950(4)
N7_2 N 0.9349(7) 0.9491(3) 0.2959(4)
C1_4 C 0.2315(7) 0.1163(4) 0.2903(4)
C2_4 C 0.2171(8) 0.0311(4) 0.2303(4)
C3_4 C 0.2405(8) 0.1959(4) 0.2398(4)
N1_4 N 0.2491(8) 0.2620(3) 0.1985(4)
C4_4 C 0.2437(8) 0.1155(4) 0.3987(4)
C7_4 C 0.1900(8) 0.0450(4) 0.1103(4)
H1_4 H 0.0858(8) 0.0833(4) 0.0950(4)
C8_4 C 0.3549(10) 0.0836(4) 0.0627(5)
O1_4 O 0.5042(7) 0.0807(3) 0.1084(4)
C9_4 C 0.3186(11) 0.1236(6) 0.9561(5)
H3_4 H 0.2545(11) 0.0825(6) 0.9098(5)
H4_4 H 0.2451(11) 0.1751(6) 0.9614(5)
H5_4 H 0.4329(11) 0.1389(6) 0.9287(5)
C5_4 C 0.3808(8) 0.9768(4) 0.2611(4)
C6_4 C 0.0576(9) 0.9822(4) 0.2648(4)
H2_4 H 0.1610(8) 0.9894(4) 0.0769(4)
loop_
_geom_bond_atom_site_label_1
_geom_bond_atom_site_label_2
_geom_bond_site_symmetry_1
_geom_bond_site_symmetry_2
Cu1 N1 1_555 1_555
C1 C2 1_555 1_555
C2 C5 1_555 1_555
C3 C1 1_555 1_555
N1 C3 1_555 1_555
C4 C1 1_555 1_555
N2 C4 1_555 1_555
C5 N3 1_555 1_555
N3 Cu3 1_555 1_555
C6 C2 1_555 1_555
C7 C2 1_555 1_555
H1 C7 1_555 1_555
H2 C7 1_555 1_555
C8 C7 1_555 1_555
O1 C8 1_555 1_555
C9 C8 1_555 1_555
H3 C9 1_555 1_555
H4 C9 1_555 1_555
H5 C9 1_555 1_555
N5 Cu1 1_555 1_555
N6 Cu1 1_555 1_555
N7 Cu1 1_555 1_555
Cu3 N4 1_555 1_555
C5_2 N6 1_555 1_555
H3_2 C9_2 1_555 1_555
H4_2 C9_2 1_555 1_555
H5_2 C9_2 1_555 1_555
Cu3 N1_2 1_555 1_555
C1_2 C2_2 1_555 1_555
C3_2 C1_2 1_555 1_555
N1_2 C3_2 1_555 1_555
C4_2 C1_2 1_555 1_555
N2_2 C4_2 1_555 1_555
C7_2 C2_2 1_555 1_555
H1_2 C7_2 1_555 1_555
C8_2 C7_2 1_555 1_555
O1_2 C8_2 1_555 1_555
Cu2_2 N2_2 1_555 1_555
Cu2 N4_2 1_555 1_555
Cu2_2 N1_3 1_555 1_555
C1_3 C2_3 1_555 1_555
C2_3 C5_3 1_555 1_555
C3_3 C1_3 1_555 1_555
N1_3 C3_3 1_555 1_555
C4_3 C1_3 1_555 1_555
N5_2 C4_3 1_555 1_555
C5_3 N3_2 1_555 1_555
N3_2 Cu2 1_555 1_555
C6_3 C2_3 1_555 1_555
C7_3 C2_3 1_555 1_555
H1_3 C7_3 1_555 1_555
H2_3 C7_3 1_555 1_555
C8_3 C7_3 1_555 1_555
O1_3 C8_3 1_555 1_555
C9_3 C8_3 1_555 1_555
H3_3 C9_3 1_555 1_555
H4_3 C9_3 1_555 1_555
H5_3 C9_3 1_555 1_555
N6_2 Cu2_2 1_555 1_555
N7_2 Cu2_2 1_555 1_555
Cu2 N1_4 1_555 1_555
C1_4 C2_4 1_555 1_555
C3_4 C1_4 1_555 1_555
N1_4 C3_4 1_555 1_555
C4_4 C1_4 1_555 1_555
N5 C4_4 1_555 1_555
C7_4 C2_4 1_555 1_555
H1_4 C7_4 1_555 1_555
C8_4 C7_4 1_555 1_555
O1_4 C8_4 1_555 1_555
H3_4 C9_4 1_555 1_555
H4_4 C9_4 1_555 1_555
H5_4 C9_4 1_555 1_555
C5_4 N6_2 1_555 1_555

#END
