
###############################################################################
#
# This file contains modified crystal structure data generated from the
# MOF subset of the Cambridge Structural Database (CSD) v543 
# hosted by the Cambridge Crystallographic Data Centre (CCDC).
#
# This work is licensed under the Creative Commons
# Attribution-NonCommercial-ShareAlike 4.0 International License.
# To view a copy of this license, visit
# http://creativecommons.org/licenses/by-nc-sa/4.0/
# or send a letter to
# Creative Commons, PO Box 1866, Mountain View, CA 94042, USA.
#
# CIF created using the CSD Python API on 29 September 2022
# The structure has been converted into the P1 space group
# The structure has a 3D framework
# The original CSD entry NACYAU is in the orthorhombic crystal system
# The original CSD entry NACYAU is in a Sohncke space group
# The framework has been calculated to contain at least 10.0% void space
# The void calculation uses a probe of radius 1.32A, grid spacing 0.4
#
###############################################################################

data_NACYAU
_chemical_formula_moiety         '(C342 H212 N28 O58 Zn12)n'
_symmetry_cell_setting           triclinic
_symmetry_space_group_name_H-M   'P 1'
_symmetry_Int_Tables_number      1
_space_group_name_Hall           'P 1'
loop_
_symmetry_equiv_pos_site_id
_symmetry_equiv_pos_as_xyz
1 x,y,z
_cell_length_a                   17.1694(3)
_cell_length_b                   32.1903(7)
_cell_length_c                   32.925(2)
_cell_angle_alpha                90
_cell_angle_beta                 90
_cell_angle_gamma                90
_cell_volume                     18197.3
loop_
_atom_site_label
_atom_site_type_symbol
_atom_site_fract_x
_atom_site_fract_y
_atom_site_fract_z
C34 C 0.0043(11) 0.2069(5) 0.3144(5)
C36 C 0.0289(10) 0.2757(5) 0.2785(5)
C37 C 0.0837(12) 0.2862(5) 0.2488(5)
H20 H 0.1008 0.2654 0.2312
C38 C 0.1131(10) 0.3248(4) 0.2441(5)
H21 H 0.1487 0.3302 0.2234
C39 C 0.0905(10) 0.3561(4) 0.2698(4)
C40 C 0.0367(10) 0.3478(4) 0.2986(5)
H22 H 0.0206 0.3689 0.3161
C41 C 0.0053(10) 0.3087(5) 0.3025(5)
C42 C 0.0272(13) 0.2531(6) 0.3686(6)
C43 C 0.0784(10) 0.2711(5) 0.4011(4)
C44 C 0.0666(10) 0.3104(5) 0.4173(5)
H23 H 0.0249 0.3265 0.4085
C45 C 0.1170(14) 0.3257(5) 0.4468(6)
H24 H 0.1091 0.3520 0.4576
C46 C 0.1793(13) 0.3016(8) 0.4600(6)
H25 H 0.2131 0.3119 0.4797
C47 C 0.1911(12) 0.2623(8) 0.4437(7)
H26 H 0.2328 0.2462 0.4525
C48 C 0.1407(13) 0.2470(5) 0.4143(6)
H27 H 0.1486 0.2207 0.4034
C56 C 0.1235(9) 0.4015(5) 0.2650(6)
N5 N 0.0483(10) 0.2214(5) 0.3492(5)
O8 O 0.1720(6) 0.4062(3) 0.2358(3)
O9 O 0.0948(7) 0.4282(3) 0.2877(3)
Zn6 Zn 0.21370(10) 0.45868(5) 0.21868(5)
Zn10 Zn 0.08856(11) 0.48753(5) 0.28174(5)
C5 C 0.4320(9) 0.0256(7) 0.2568(8)
H2 H 0.4046 0.0504 0.2545
C6 C 0.5132(11) 0.0256(7) 0.2556(8)
H3 H 0.5404 0.0503 0.2519
C11 C 0.1876(10) 0.0156(7) 0.2934(6)
H5 H 0.1641 0.0323 0.3129
C12 C 0.2650(10) 0.0114(7) 0.2934(8)
H6 H 0.2950 0.0234 0.3137
C13 C 0.0544(8) 0.0006(6) 0.2632(6)
C29 C 0.9070(11) 0.1067(5) 0.2799(5)
C30 C 0.9351(10) 0.1527(5) 0.2819(5)
C31 C 0.9241(12) 0.1788(4) 0.2466(5)
H17 H 0.8970 0.1688 0.2242
C32 C 0.9533(11) 0.2177(5) 0.2465(5)
H18 H 0.9456 0.2342 0.2237
C33 C 0.9956(11) 0.2342(4) 0.2802(5)
C35 C 0.9751(11) 0.1689(4) 0.3142(4)
H19 H 0.9821 0.1524 0.3371
C49 C 0.9550(13) 0.2742(6) 0.3604(6)
C50 C 0.8872(9) 0.2673(6) 0.3895(4)
C51 C 0.8224(12) 0.2931(6) 0.3907(6)
H28 H 0.8191 0.3157 0.3732
C52 C 0.7626(10) 0.2852(8) 0.4180(7)
H29 H 0.7192 0.3025 0.4188
C53 C 0.7676(12) 0.2514(8) 0.4442(6)
H30 H 0.7275 0.2461 0.4625
C54 C 0.8324(14) 0.2255(6) 0.4430(5)
H31 H 0.8357 0.2029 0.4605
C55 C 0.8922(11) 0.2335(5) 0.4156(5)
H32 H 0.9356 0.2162 0.4148
H33 H 0.9014 0.0021 0.4334
C71 C 0.503(2) 0.0181(12) 0.4553(8)
H39 H 0.5035 0.0320 0.4800
C75 C 0.462(2) 0.0145(13) 0.3853(10)
H42 H 0.4362 0.0260 0.3633
C76 C 0.464(2) 0.0353(11) 0.4223(12)
H43 H 0.4383 0.0607 0.4251
C85 C 0.710(2) 0.0635(9) 0.3363(9)
H49 H 0.6597 0.0572 0.3283
N3 N 0.727(4) 0.0753(10) 0.3775(9)
H50 H 0.7738 0.0810 0.3846
H51 H 0.6898 0.0766 0.3950
N6 N 0.9457(9) 0.3025(5) 0.3307(4)
O1 O 0.8472(4) 0.0060(2) 0.2623(2)
O2 O 0.6723(7) 0.0213(5) 0.2481(5)
O5 O 0.0208(6) 0.0088(3) 0.2956(3)
O6 O 0.8661(9) 0.0965(3) 0.2516(3)
O7 O 0.9288(6) 0.0852(3) 0.3103(3)
O10 O 0.8886(6) 0.0011(4) 0.3570(3)
O14 O 0.7048(12) 0.1025(6) 0.2359(6)
O15 O 0.7625(10) 0.0618(5) 0.3123(4)
Zn1 Zn 0.77674(11) 0.05277(6) 0.24652(5)
H52 H 0.701(7) 0.115(3) 0.2605(17)
H53 H 0.658(3) 0.0910(15) 0.230(5)
O22 O 0.7867(7) 0.0489(4) 0.1848(3)
Zn7 Zn 0.91159(10) 0.02636(5) 0.30591(5)
Zn9 Zn 0.58856(11) 0.01247(5) 0.71826(5)
C1 C 0.6440(10) 0.9871(8) 0.2603(6)
C2 C 0.5531(10) 0.9882(6) 0.2601(5)
C3 C 0.5143(9) 0.9510(7) 0.2682(6)
H1 H 0.5415 0.9268 0.2740
C4 C 0.3916(9) 0.9876(7) 0.2614(6)
C7 C 0.2999(11) 0.9889(7) 0.2624(7)
C8 C 0.2558(9) 0.9676(7) 0.2343(5)
C9 C 0.1798(9) 0.9726(6) 0.2335(5)
H4 H 0.1509 0.9612 0.2124
C10 C 0.1412(11) 0.9953(6) 0.2647(5)
C14 C 0.4331(8) 0.9517(6) 0.2674(5)
N1 N 0.3958(9) 0.9133(6) 0.2766(6)
C15 C 0.3455(12) 0.8964(6) 0.2510(7)
C16 C 0.3016(10) 0.8581(5) 0.2617(7)
C17 C 0.3226(12) 0.8356(8) 0.2960(7)
H7 H 0.3652 0.8438 0.3115
C18 C 0.2800(18) 0.8007(8) 0.3071(8)
H8 H 0.2940 0.7856 0.3300
C19 C 0.2164(16) 0.7883(7) 0.2839(10)
H9 H 0.1878 0.7650 0.2914
C20 C 0.1954(10) 0.8109(7) 0.2497(8)
H10 H 0.1528 0.8027 0.2342
C21 C 0.2380(11) 0.8458(6) 0.2385(6)
H11 H 0.2240 0.8609 0.2156
C22 C 0.3325(12) 0.9155(9) 0.2083(7)
C23 C 0.3709(10) 0.8902(6) 0.1739(6)
C24 C 0.4281(11) 0.8606(6) 0.1813(7)
H12 H 0.4434 0.8549 0.2078
C25 C 0.4626(11) 0.8397(6) 0.1490(9)
H13 H 0.5009 0.8199 0.1540
C26 C 0.4398(15) 0.8483(9) 0.1094(8)
H14 H 0.4628 0.8343 0.0878
C27 C 0.3825(17) 0.8779(10) 0.1020(6)
H15 H 0.3672 0.8836 0.0755
C28 C 0.3480(12) 0.8988(7) 0.1343(7)
H16 H 0.3097 0.9186 0.1293
C57 C 0.8369(10) 0.9741(5) 0.3650(4)
C58 C 0.8150(10) 0.9676(6) 0.4113(4)
C59 C 0.8576(11) 0.9865(7) 0.4402(4)
C60 C 0.8349(13) 0.9823(8) 0.4799(6)
H34 H 0.8655 0.9939 0.5003
C61 C 0.7648(12) 0.9602(7) 0.4910(5)
C62 C 0.7502(12) 0.9422(6) 0.4209(4)
H35 H 0.7248 0.9274 0.4006
C63 C 0.7423(12) 0.9599(6) 0.5325(4)
C64 C 0.7825(12) 0.9426(8) 0.5634(5)
H36 H 0.8288 0.9292 0.5568
C65 C 0.6735(16) 0.9767(7) 0.5440(5)
C66 C 0.7612(11) 0.9429(7) 0.6033(5)
H37 H 0.7918 0.9299 0.6229
C67 C 0.6481(12) 0.9800(6) 0.5841(5)
H38 H 0.6017 0.9935 0.5902
C68 C 0.6924(10) 0.9633(6) 0.6142(5)
C69 C 0.6727(11) 0.9673(6) 0.6597(4)
C70 C 0.5950(19) 0.957(2) 0.4837(7)
C72 C 0.541(2) 0.9802(14) 0.4512(6)
C73 C 0.539(2) 0.9594(13) 0.4142(8)
H40 H 0.5646 0.9340 0.4115
C74 C 0.500(3) 0.9766(13) 0.3813(7)
H41 H 0.4994 0.9627 0.3565
C77 C 0.7260(12) 0.9397(6) 0.4594(5)
N2 N 0.6700(19) 0.9092(7) 0.4694(8)
C78 C 0.596(3) 0.9206(15) 0.475(3)
C79 C 0.543(2) 0.8881(14) 0.4912(11)
C80 C 0.551(3) 0.8460(15) 0.4817(12)
H44 H 0.5886 0.8371 0.4633
C81 C 0.502(4) 0.8178(14) 0.5004(17)
H45 H 0.5062 0.7898 0.4940
C82 C 0.445(4) 0.8303(18) 0.529(2)
H46 H 0.4143 0.8106 0.5417
C83 C 0.436(3) 0.8723(19) 0.538(2)
H47 H 0.3973 0.8818 0.5549
C84 C 0.489(2) 0.8999(13) 0.5189(14)
H48 H 0.4873 0.9278 0.5261
N4 N 0.2910(9) 0.9465(6) 0.2002(5)
N7 N 0.616(2) 0.9869(9) 0.5134(7)
O3 O 0.0206(6) 0.9938(4) 0.2288(4)
O4 O 0.6783(6) 0.9563(4) 0.2729(4)
O11 O 0.7943(7) 0.9544(3) 0.3398(3)
O12 O 0.6112(7) 0.9906(4) 0.6659(3)
O13 O 0.7133(7) 0.9511(4) 0.6848(3)
Zn2 Zn 0.78630(10) 0.95868(5) 0.28132(5)
O18 O 0.8280(6) 0.9062(3) 0.2642(3)
Zn5 Zn 0.72326(11) 0.94723(6) 0.74652(5)
Zn8 Zn 0.91144(11) 0.98753(5) 0.21826(5)
O21 O 0.8888(7) 0.0094(4) 0.1659(3)
O19 O 0.9052(7) 0.9282(3) 0.2123(3)
C4_2 C 0.1084(9) 0.0124(7) 0.7614(6)
C7_2 C 0.2001(11) 0.0111(7) 0.7624(7)
C8_2 C 0.2442(9) 0.0324(7) 0.7343(5)
C9_2 C 0.3202(9) 0.0274(6) 0.7335(5)
H4_2 H 0.3491 0.0388 0.7124
C10_2 C 0.3588(11) 0.0047(6) 0.7647(5)
C14_2 C 0.0669(8) 0.0483(6) 0.7674(5)
N1_2 N 0.1042(9) 0.0867(6) 0.7766(6)
C15_2 C 0.1545(12) 0.1036(6) 0.7510(7)
C16_2 C 0.1984(10) 0.1419(5) 0.7617(7)
C17_2 C 0.1774(12) 0.1644(8) 0.7960(7)
H7_2 H 0.1348 0.1562 0.8115
C18_2 C 0.2200(18) 0.1993(8) 0.8071(8)
H8_2 H 0.2060 0.2144 0.8300
C19_2 C 0.2836(16) 0.2117(7) 0.7839(10)
H9_2 H 0.3122 0.2350 0.7914
C20_2 C 0.3046(10) 0.1891(7) 0.7497(8)
H10_2 H 0.3472 0.1973 0.7342
C21_2 C 0.2620(11) 0.1542(6) 0.7385(6)
H11_2 H 0.2760 0.1391 0.7156
C22_2 C 0.1675(12) 0.0845(9) 0.7083(7)
C23_2 C 0.1291(10) 0.1098(6) 0.6739(6)
C24_2 C 0.0719(11) 0.1394(6) 0.6813(7)
H12_2 H 0.0566 0.1451 0.7078
C25_2 C 0.0374(11) 0.1603(6) 0.6490(9)
C26_2 C 0.0602(15) 0.1517(9) 0.6094(8)
H14_2 H 0.0372 0.1657 0.5878
C27_2 C 0.1175(17) 0.1221(10) 0.6020(6)
H15_2 H 0.1328 0.1164 0.5755
C28_2 C 0.1520(12) 0.1012(7) 0.6343(7)
H16_2 H 0.1903 0.0814 0.6293
C74_2 C 0.000(3) 0.0234(13) 0.8813(7)
H41_2 H 0.0006 0.0373 0.8565
N4_2 N 0.2090(9) 0.0535(6) 0.7002(5)
O3_2 O 0.4794(6) 0.0062(4) 0.7288(4)
O19_2 O 0.5948(7) 0.0718(3) 0.7123(3)
C5_2 C 0.0680(9) 0.9744(7) 0.7568(8)
H2_2 H 0.0954 0.9496 0.7545
C11_2 C 0.3124(10) 0.9844(7) 0.7934(6)
H5_2 H 0.3359 0.9677 0.8129
C12_2 C 0.2350(10) 0.9886(7) 0.7934(8)
H6_2 H 0.2050 0.9766 0.8137
C13_2 C 0.4456(8) 0.9994(6) 0.7632(6)
C75_2 C 0.038(2) 0.9855(13) 0.8853(10)
H42_2 H 0.0638 0.9740 0.8633
C76_2 C 0.036(2) 0.9647(11) 0.9223(12)
H43_2 H 0.0617 0.9393 0.9251
O5_2 O 0.4792(6) 0.9912(3) 0.7956(3)
Zn3 Zn 0.58841(10) 0.97364(5) 0.80591(5)
O16 O 0.6528(4) 0.9940(2) 0.7623(2)
O17 O 0.5712(6) 0.9148(3) 0.8103(3)
O20 O 0.6114(6) 0.9989(4) 0.8570(3)
H34_2 H 0.6345 0.0061 0.0003
C63_2 C 0.7577(12) 0.0401(6) 0.0325(4)
C64_2 C 0.7175(12) 0.0574(8) 0.0634(5)
H36_2 H 0.6712 0.0708 0.0568
C65_2 C 0.8265(16) 0.0233(7) 0.0440(5)
C66_2 C 0.7388(11) 0.0571(7) 0.1033(5)
H37_2 H 0.7082 0.0701 0.1229
C67_2 C 0.8519(12) 0.0200(6) 0.0841(5)
H38_2 H 0.8983 0.0065 0.0902
C68_2 C 0.8076(10) 0.0367(6) 0.1142(5)
C69_2 C 0.8273(11) 0.0327(6) 0.1597(4)
C81_2 C 0.998(4) 0.1822(14) 0.0004(17)
N7_2 N 0.884(2) 0.0131(9) 0.0134(7)
C1_2 C 0.8560(10) 0.0129(8) 0.7603(6)
C2_2 C 0.9469(10) 0.0118(6) 0.7601(5)
C3_2 C 0.9857(9) 0.0490(7) 0.7682(6)
H1_2 H 0.9585 0.0732 0.7740
H13_2 H 0.9991 0.1801 0.6540
C57_2 C 0.6631(10) 0.0259(5) 0.8650(4)
C58_2 C 0.6850(10) 0.0324(6) 0.9113(4)
C59_2 C 0.6424(11) 0.0135(7) 0.9402(4)
C60_2 C 0.6651(13) 0.0177(8) 0.9799(6)
C61_2 C 0.7352(12) 0.0398(7) 0.9910(5)
C62_2 C 0.7498(12) 0.0578(6) 0.9209(4)
H35_2 H 0.7752 0.0726 0.9006
C70_2 C 0.9050(19) 0.043(2) 0.9837(7)
C72_2 C 0.959(2) 0.0198(14) 0.9512(6)
C73_2 C 0.961(2) 0.0406(13) 0.9142(8)
H40_2 H 0.9354 0.0660 0.9115
C74_3 C 1.000(3) 0.0234(13) 0.8813(7)
C77_2 C 0.7740(12) 0.0603(6) 0.9594(5)
N2_2 N 0.8300(19) 0.0908(7) 0.9694(8)
C78_2 C 0.904(3) 0.0794(15) 0.975(3)
C79_2 C 0.957(2) 0.1119(14) 0.9912(11)
C80_2 C 0.949(3) 0.1540(15) 0.9817(12)
H44_2 H 0.9114 0.1629 0.9633
H45_2 H 0.9938 0.2102 0.9940
O4_2 O 0.8217(6) 0.0437(4) 0.7729(4)
O11_2 O 0.7057(7) 0.0456(3) 0.8398(3)
Zn2_2 Zn 0.71370(10) 0.04132(5) 0.78132(5)
O18_2 O 0.6720(6) 0.0938(3) 0.7642(3)
C6_2 C 0.9868(11) 0.9744(7) 0.7556(8)
H3_2 H 0.9596 0.9497 0.7519
C29_2 C 0.5930(11) 0.8933(5) 0.7799(5)
C30_2 C 0.5649(10) 0.8473(5) 0.7819(5)
C31_2 C 0.5759(12) 0.8212(4) 0.7466(5)
H17_2 H 0.6030 0.8312 0.7242
C32_2 C 0.5467(11) 0.7823(5) 0.7465(5)
H18_2 H 0.5544 0.7658 0.7237
C33_2 C 0.5044(11) 0.7658(4) 0.7802(5)
C34_2 C 0.4957(11) 0.7931(5) 0.8144(5)
C35_2 C 0.5249(11) 0.8311(4) 0.8142(4)
H19_2 H 0.5179 0.8476 0.8371
C36_2 C 0.4711(10) 0.7243(5) 0.7785(5)
C37_2 C 0.4163(12) 0.7138(5) 0.7488(5)
H20_2 H 0.3992 0.7346 0.7312
C38_2 C 0.3869(10) 0.6752(4) 0.7441(5)
H21_2 H 0.3513 0.6698 0.7234
C39_2 C 0.4095(10) 0.6439(4) 0.7698(4)
C40_2 C 0.4633(10) 0.6522(4) 0.7986(5)
H22_2 H 0.4794 0.6311 0.8161
C41_2 C 0.4947(10) 0.6913(5) 0.8025(5)
C42_2 C 0.4728(13) 0.7469(6) 0.8686(6)
C43_2 C 0.4216(10) 0.7289(5) 0.9011(4)
C44_2 C 0.4334(10) 0.6896(5) 0.9173(5)
H23_2 H 0.4751 0.6735 0.9085
C45_2 C 0.3830(14) 0.6743(5) 0.9468(6)
H24_2 H 0.3909 0.6480 0.9576
C46_2 C 0.3207(13) 0.6984(8) 0.9600(6)
H25_2 H 0.2869 0.6881 0.9797
C47_2 C 0.3089(12) 0.7377(8) 0.9437(7)
H26_2 H 0.2672 0.7538 0.9525
C48_2 C 0.3593(13) 0.7530(5) 0.9143(6)
H27_2 H 0.3514 0.7793 0.9034
C49_2 C 0.5450(13) 0.7258(6) 0.8604(6)
C50_2 C 0.6128(9) 0.7327(6) 0.8895(4)
C51_2 C 0.6776(12) 0.7069(6) 0.8907(6)
H28_2 H 0.6809 0.6843 0.8732
C52_2 C 0.7374(10) 0.7148(8) 0.9180(7)
H29_2 H 0.7808 0.6975 0.9188
C53_2 C 0.7324(12) 0.7486(8) 0.9442(6)
H30_2 H 0.7725 0.7539 0.9625
C54_2 C 0.6676(14) 0.7745(6) 0.9430(5)
H31_2 H 0.6643 0.7971 0.9605
C55_2 C 0.6078(11) 0.7665(5) 0.9156(5)
H32_2 H 0.5644 0.7838 0.9148
C56_2 C 0.3765(9) 0.5985(5) 0.7650(6)
H33_2 H 0.5986 0.9979 0.9334
C71_2 C 0.997(2) 0.9819(12) 0.9553(8)
H39_2 H 0.9965 0.9680 0.9800
C85_2 C 0.790(2) 0.9365(9) 0.8363(9)
H49_2 H 0.8403 0.9428 0.8283
N3_2 N 0.773(4) 0.9247(10) 0.8775(9)
H50_2 H 0.7262 0.9190 0.8846
H51_2 H 0.8102 0.9234 0.8950
N5_2 N 0.4517(10) 0.7786(5) 0.8492(5)
N6_2 N 0.5543(9) 0.6975(5) 0.8307(4)
O2_2 O 0.8277(7) 0.9787(5) 0.7481(5)
O6_2 O 0.6339(9) 0.9035(3) 0.7516(3)
O8_2 O 0.3280(6) 0.5938(3) 0.7358(3)
O9_2 O 0.4052(7) 0.5718(3) 0.7877(3)
O14_2 O 0.7952(12) 0.8975(6) 0.7359(6)
O15_2 O 0.7375(10) 0.9382(5) 0.8123(4)
H52_2 H 0.799(7) 0.885(3) 0.7605(17)
H53_2 H 0.842(3) 0.9090(15) 0.730(5)
Zn6_2 Zn 0.28630(10) 0.54132(5) 0.71868(5)
Zn10_2 Zn 0.41144(11) 0.51247(5) 0.78174(5)
C1_3 C 0.1440(10) 0.5129(8) 0.7397(6)
C2_3 C 0.0531(10) 0.5118(6) 0.7399(5)
C3_3 C 0.0143(9) 0.5490(7) 0.7318(6)
H1_3 H 0.0415 0.5732 0.7260
C6_3 C 0.0132(11) 0.4744(7) 0.7444(8)
H3_3 H 0.0404 0.4497 0.7481
H13_3 H 0.0009 0.6801 0.8460
C29_3 C 0.4070(11) 0.3933(5) 0.7201(5)
C30_3 C 0.4351(10) 0.3473(5) 0.7181(5)
C31_3 C 0.4241(12) 0.3212(4) 0.7534(5)
H17_3 H 0.3970 0.3312 0.7758
C32_3 C 0.4533(11) 0.2823(5) 0.7535(5)
H18_3 H 0.4456 0.2658 0.7763
C33_3 C 0.4956(11) 0.2658(4) 0.7198(5)
C34_3 C 0.5043(11) 0.2931(5) 0.6856(5)
C35_3 C 0.4751(11) 0.3311(4) 0.6858(4)
H19_3 H 0.4821 0.3476 0.6629
C36_3 C 0.5289(10) 0.2243(5) 0.7215(5)
C37_3 C 0.5837(12) 0.2138(5) 0.7512(5)
H20_3 H 0.6008 0.2346 0.7688
C38_3 C 0.6131(10) 0.1752(4) 0.7559(5)
H21_3 H 0.6487 0.1698 0.7766
C39_3 C 0.5905(10) 0.1439(4) 0.7302(4)
C40_3 C 0.5367(10) 0.1522(4) 0.7014(5)
H22_3 H 0.5206 0.1311 0.6839
C41_3 C 0.5053(10) 0.1913(5) 0.6975(5)
C42_3 C 0.5272(13) 0.2469(6) 0.6314(6)
C43_3 C 0.5784(10) 0.2289(5) 0.5989(4)
C44_3 C 0.5666(10) 0.1896(5) 0.5827(5)
H23_3 H 0.5249 0.1735 0.5915
C45_3 C 0.6170(14) 0.1743(5) 0.5532(6)
H24_3 H 0.6091 0.1480 0.5424
C46_3 C 0.6793(13) 0.1984(8) 0.5400(6)
H25_3 H 0.7131 0.1881 0.5203
C47_3 C 0.6911(12) 0.2377(8) 0.5563(7)
H26_3 H 0.7328 0.2538 0.5475
C48_3 C 0.6407(13) 0.2530(5) 0.5857(6)
H27_3 H 0.6486 0.2793 0.5966
C49_3 C 0.4550(13) 0.2258(6) 0.6396(6)
C50_3 C 0.3872(9) 0.2327(6) 0.6105(4)
C51_3 C 0.3224(12) 0.2069(6) 0.6093(6)
H28_3 H 0.3191 0.1843 0.6268
C52_3 C 0.2626(10) 0.2148(8) 0.5820(7)
H29_3 H 0.2192 0.1975 0.5812
C53_3 C 0.2676(12) 0.2486(8) 0.5558(6)
H30_3 H 0.2275 0.2539 0.5375
C54_3 C 0.3324(14) 0.2745(6) 0.5570(5)
H31_3 H 0.3357 0.2971 0.5395
C55_3 C 0.3922(11) 0.2665(5) 0.5844(5)
H32_3 H 0.4356 0.2838 0.5852
C56_3 C 0.6235(9) 0.0985(5) 0.7350(6)
C57_3 C 0.3369(10) 0.5259(5) 0.6350(4)
C58_3 C 0.3150(10) 0.5324(6) 0.5887(4)
C59_3 C 0.3576(11) 0.5135(7) 0.5598(4)
H33_3 H 0.4014 0.4979 0.5666
C60_3 C 0.3349(13) 0.5177(8) 0.5201(6)
H34_3 H 0.3655 0.5061 0.4997
C61_3 C 0.2648(12) 0.5398(7) 0.5090(5)
C62_3 C 0.2502(12) 0.5578(6) 0.5791(4)
H35_3 H 0.2248 0.5726 0.5994
C63_3 C 0.2423(12) 0.5401(6) 0.4675(4)
C64_3 C 0.2825(12) 0.5574(8) 0.4366(5)
H36_3 H 0.3288 0.5708 0.4432
C65_3 C 0.1735(16) 0.5233(7) 0.4560(5)
C66_3 C 0.2612(11) 0.5571(7) 0.3967(5)
H37_3 H 0.2918 0.5701 0.3771
C67_3 C 0.1481(12) 0.5200(6) 0.4159(5)
H38_3 H 0.1017 0.5065 0.4098
C68_3 C 0.1924(10) 0.5367(6) 0.3858(5)
C69_3 C 0.1727(11) 0.5327(6) 0.3403(4)
C70_3 C 0.0950(19) 0.543(2) 0.5163(7)
C71_3 C 0.003(2) 0.4819(12) 0.5447(8)
H39_3 H 0.0035 0.4680 0.5200
C72_3 C 0.041(2) 0.5198(14) 0.5488(6)
C73_3 C 0.039(2) 0.5406(13) 0.5858(8)
H40_3 H 0.0646 0.5660 0.5885
C74_4 C -0.000(3) 0.5234(13) 0.6187(7)
C77_3 C 0.2260(12) 0.5603(6) 0.5406(5)
N2_3 N 0.1700(19) 0.5908(7) 0.5306(8)
C78_3 C 0.096(3) 0.5794(15) 0.525(3)
C79_3 C 0.043(2) 0.6119(14) 0.5088(11)
C80_3 C 0.051(3) 0.6540(15) 0.5183(12)
H44_3 H 0.0886 0.6629 0.5367
C81_3 C 0.002(4) 0.6822(14) 0.4996(17)
H45_3 H 0.0062 0.7102 0.5060
C85_3 C 0.210(2) 0.4365(9) 0.6637(9)
H49_3 H 0.1597 0.4428 0.6717
N3_3 N 0.227(4) 0.4247(10) 0.6225(9)
H50_3 H 0.2738 0.4190 0.6154
H51_3 H 0.1898 0.4234 0.6050
N5_3 N 0.5483(10) 0.2786(5) 0.6508(5)
N6_3 N 0.4457(9) 0.1975(5) 0.6693(4)
N7_3 N 0.116(2) 0.5131(9) 0.4866(7)
O1_2 O 0.3472(4) 0.4940(2) 0.7377(2)
O2_3 O 0.1723(7) 0.4787(5) 0.7519(5)
O4_3 O 0.1783(6) 0.5437(4) 0.7271(4)
O6_3 O 0.3661(9) 0.4035(3) 0.7484(3)
O7_2 O 0.4288(6) 0.4148(3) 0.6897(3)
O10_2 O 0.3886(6) 0.4989(4) 0.6430(3)
O11_3 O 0.2943(7) 0.5456(3) 0.6602(3)
O12_2 O 0.1112(7) 0.5094(4) 0.3341(3)
O13_2 O 0.2133(7) 0.5489(4) 0.3152(3)
O14_3 O 0.2048(12) 0.3975(6) 0.7641(6)
O15_3 O 0.2625(10) 0.4382(5) 0.6877(4)
Zn1_2 Zn 0.27674(11) 0.44723(6) 0.75348(5)
H52_3 H 0.201(7) 0.385(3) 0.7395(17)
H53_3 H 0.158(3) 0.4090(15) 0.770(5)
O22_2 O 0.2867(7) 0.4511(4) 0.8152(3)
Zn5_2 Zn 0.22326(11) 0.55277(6) 0.25348(5)
Zn7_2 Zn 0.41159(10) 0.47364(5) 0.69409(5)
C4_3 C 0.8916(9) 0.5124(7) 0.7386(6)
C5_3 C 0.9320(9) 0.4744(7) 0.7432(8)
H2_3 H 0.9046 0.4496 0.7455
C7_3 C 0.7999(11) 0.5111(7) 0.7376(7)
C8_3 C 0.7558(9) 0.5324(7) 0.7657(5)
C9_3 C 0.6798(9) 0.5274(6) 0.7665(5)
H4_3 H 0.6509 0.5388 0.7876
C10_3 C 0.6412(11) 0.5047(6) 0.7353(5)
C11_3 C 0.6876(10) 0.4844(7) 0.7066(6)
H5_3 H 0.6641 0.4677 0.6871
C12_3 C 0.7650(10) 0.4886(7) 0.7066(8)
H6_3 H 0.7950 0.4766 0.6863
C13_3 C 0.5544(8) 0.4994(6) 0.7368(6)
C14_3 C 0.9331(8) 0.5483(6) 0.7326(5)
N1_3 N 0.8958(9) 0.5867(6) 0.7234(6)
C15_3 C 0.8455(12) 0.6036(6) 0.7490(7)
C16_3 C 0.8016(10) 0.6419(5) 0.7383(7)
C17_3 C 0.8226(12) 0.6644(8) 0.7040(7)
H7_3 H 0.8652 0.6562 0.6885
C18_3 C 0.7800(18) 0.6993(8) 0.6929(8)
H8_3 H 0.7940 0.7144 0.6700
C19_3 C 0.7164(16) 0.7117(7) 0.7161(10)
H9_3 H 0.6878 0.7350 0.7086
C20_3 C 0.6954(10) 0.6891(7) 0.7503(8)
H10_3 H 0.6528 0.6973 0.7658
C21_3 C 0.7380(11) 0.6542(6) 0.7615(6)
H11_3 H 0.7240 0.6391 0.7844
C22_3 C 0.8325(12) 0.5845(9) 0.7917(7)
C23_3 C 0.8709(10) 0.6098(6) 0.8261(6)
C24_3 C 0.9281(11) 0.6394(6) 0.8187(7)
H12_3 H 0.9434 0.6451 0.7922
C25_3 C 0.9626(11) 0.6603(6) 0.8510(9)
C26_3 C 0.9398(15) 0.6517(9) 0.8906(8)
H14_3 H 0.9628 0.6657 0.9122
C27_3 C 0.8825(17) 0.6221(10) 0.8980(6)
H15_3 H 0.8672 0.6164 0.9245
C28_3 C 0.8480(12) 0.6012(7) 0.8657(7)
H16_3 H 0.8097 0.5814 0.8707
C74_5 C 1.000(3) 0.5234(13) 0.6187(7)
H41_3 H 0.9994 0.5373 0.6435
C75_3 C 0.962(2) 0.4855(13) 0.6147(10)
H42_3 H 0.9362 0.4740 0.6367
C76_3 C 0.964(2) 0.4647(11) 0.5777(12)
H43_3 H 0.9383 0.4393 0.5749
C82_2 C 0.945(4) 0.6697(18) 0.471(2)
H46_2 H 0.9143 0.6894 0.4583
C83_2 C 0.936(3) 0.6277(19) 0.462(2)
H47_2 H 0.8973 0.6182 0.4451
C84_2 C 0.989(2) 0.6001(13) 0.4811(14)
H48_2 H 0.9873 0.5722 0.4739
N4_3 N 0.7910(9) 0.5535(6) 0.7998(5)
O3_3 O 0.5206(6) 0.5062(4) 0.7712(4)
O5_3 O 0.5208(6) 0.4912(3) 0.7044(3)
O21_2 O 0.3888(7) 0.4906(4) 0.8341(3)
Zn3_2 Zn 0.08841(10) 0.52636(5) 0.19409(5)
O16_2 O 0.1528(4) 0.5060(2) 0.2377(2)
O17_2 O 0.0712(6) 0.5852(3) 0.1897(3)
O20_2 O 0.1114(6) 0.5011(4) 0.1430(3)
C1_4 C 0.3560(10) 0.4871(8) 0.2397(6)
C2_4 C 0.4469(10) 0.4882(6) 0.2399(5)
C3_4 C 0.4857(9) 0.4510(7) 0.2318(6)
H1_4 H 0.4585 0.4268 0.2260
C4_4 C 0.6084(9) 0.4876(7) 0.2386(6)
C5_4 C 0.5680(9) 0.5256(7) 0.2432(8)
H2_4 H 0.5954 0.5504 0.2455
C6_4 C 0.4868(11) 0.5256(7) 0.2444(8)
H3_4 H 0.4596 0.5503 0.2481
C7_4 C 0.7001(11) 0.4889(7) 0.2376(7)
C8_4 C 0.7442(9) 0.4676(7) 0.2657(5)
C9_4 C 0.8202(9) 0.4726(6) 0.2665(5)
H4_4 H 0.8491 0.4612 0.2876
C10_4 C 0.8588(11) 0.4953(6) 0.2353(5)
C11_4 C 0.8124(10) 0.5156(7) 0.2066(6)
H5_4 H 0.8359 0.5323 0.1871
C12_4 C 0.7350(10) 0.5114(7) 0.2066(8)
H6_4 H 0.7050 0.5234 0.1863
C13_4 C 0.9456(8) 0.5006(6) 0.2368(6)
C14_4 C 0.5669(8) 0.4517(6) 0.2326(5)
N1_4 N 0.6042(9) 0.4133(6) 0.2234(6)
C15_4 C 0.6545(12) 0.3964(6) 0.2490(7)
C16_4 C 0.6984(10) 0.3581(5) 0.2383(7)
C17_4 C 0.6774(12) 0.3356(8) 0.2040(7)
H7_4 H 0.6348 0.3438 0.1885
C18_4 C 0.7200(18) 0.3007(8) 0.1929(8)
H8_4 H 0.7060 0.2856 0.1700
C19_4 C 0.7836(16) 0.2883(7) 0.2161(10)
H9_4 H 0.8122 0.2650 0.2086
C20_4 C 0.8046(10) 0.3109(7) 0.2503(8)
H10_4 H 0.8472 0.3027 0.2658
C21_4 C 0.7620(11) 0.3458(6) 0.2615(6)
H11_4 H 0.7760 0.3609 0.2844
C22_4 C 0.6675(12) 0.4155(9) 0.2917(7)
C23_4 C 0.6291(10) 0.3902(6) 0.3261(6)
C24_4 C 0.5719(11) 0.3606(6) 0.3187(7)
H12_4 H 0.5566 0.3549 0.2922
C25_4 C 0.5374(11) 0.3397(6) 0.3510(9)
H13_4 H 0.4991 0.3199 0.3460
C26_4 C 0.5602(15) 0.3483(9) 0.3906(8)
H14_4 H 0.5372 0.3343 0.4122
C27_4 C 0.6175(17) 0.3779(10) 0.3980(6)
H15_4 H 0.6328 0.3836 0.4245
C28_4 C 0.6520(12) 0.3988(7) 0.3657(7)
H16_4 H 0.6903 0.4186 0.3707
C29_4 C 0.0930(11) 0.6067(5) 0.2201(5)
C30_4 C 0.0649(10) 0.6527(5) 0.2181(5)
C31_4 C 0.0759(12) 0.6788(4) 0.2534(5)
H17_4 H 0.1030 0.6688 0.2758
C32_4 C 0.0467(11) 0.7177(5) 0.2535(5)
H18_4 H 0.0544 0.7342 0.2763
C33_4 C 0.0044(11) 0.7342(4) 0.2198(5)
C35_4 C 0.0249(11) 0.6689(4) 0.1858(4)
H19_4 H 0.0179 0.6524 0.1629
C49_4 C 0.0450(13) 0.7742(6) 0.1396(6)
C50_4 C 0.1128(9) 0.7673(6) 0.1105(4)
C51_4 C 0.1776(12) 0.7931(6) 0.1093(6)
H28_4 H 0.1809 0.8157 0.1268
C52_4 C 0.2374(10) 0.7852(8) 0.0820(7)
H29_4 H 0.2808 0.8025 0.0812
C53_4 C 0.2324(12) 0.7514(8) 0.0558(6)
H30_4 H 0.2725 0.7461 0.0375
C54_4 C 0.1676(14) 0.7255(6) 0.0570(5)
H31_4 H 0.1643 0.7029 0.0395
C55_4 C 0.1078(11) 0.7335(5) 0.0844(5)
H32_4 H 0.0644 0.7162 0.0852
C57_4 C 0.1631(10) 0.4741(5) 0.1350(4)
C58_4 C 0.1850(10) 0.4676(6) 0.0887(4)
C59_4 C 0.1424(11) 0.4865(7) 0.0598(4)
H33_4 H 0.0986 0.5021 0.0666
C60_4 C 0.1651(13) 0.4823(8) 0.0201(6)
C61_4 C 0.2352(12) 0.4602(7) 0.0090(5)
C62_4 C 0.2498(12) 0.4422(6) 0.0791(4)
H35_4 H 0.2752 0.4274 0.0994
C70_4 C 0.4050(19) 0.457(2) 0.0163(7)
C71_4 C 0.497(2) 0.5181(12) 0.0447(8)
H39_4 H 0.4965 0.5320 0.0200
C72_4 C 0.459(2) 0.4802(14) 0.0488(6)
C73_4 C 0.461(2) 0.4594(13) 0.0858(8)
H40_4 H 0.4354 0.4340 0.0885
C74_6 C 0.500(3) 0.4766(13) 0.1187(7)
H41_4 H 0.5006 0.4627 0.1435
C75_4 C 0.538(2) 0.5145(13) 0.1147(10)
H42_4 H 0.5638 0.5260 0.1367
C76_4 C 0.536(2) 0.5353(11) 0.0777(12)
H43_4 H 0.5617 0.5607 0.0749
C77_4 C 0.2740(12) 0.4397(6) 0.0406(5)
N2_4 N 0.3300(19) 0.4092(7) 0.0306(8)
C78_4 C 0.404(3) 0.4206(15) 0.025(3)
C79_4 C 0.457(2) 0.3881(14) 0.0088(11)
C80_4 C 0.449(3) 0.3460(15) 0.0183(12)
H44_4 H 0.4114 0.3371 0.0367
H45_4 H 0.4938 0.2898 0.0060
C85_4 C 0.290(2) 0.5635(9) 0.1637(9)
H49_4 H 0.3403 0.5572 0.1717
N3_4 N 0.273(4) 0.5753(10) 0.1225(9)
H50_4 H 0.2262 0.5810 0.1154
H51_4 H 0.3102 0.5766 0.1050
N4_4 N 0.7090(9) 0.4465(6) 0.2998(5)
N6_4 N 0.0543(9) 0.8025(5) 0.1693(4)
O2_4 O 0.3277(7) 0.5213(5) 0.2519(5)
O3_4 O 0.9794(6) 0.4938(4) 0.2712(4)
O4_4 O 0.3217(6) 0.4563(4) 0.2271(4)
O5_4 O 0.9792(6) 0.5088(3) 0.2044(3)
O6_4 O 0.1339(9) 0.5965(3) 0.2484(3)
O11_4 O 0.2057(7) 0.4544(3) 0.1602(3)
O14_4 O 0.2952(12) 0.6025(6) 0.2641(6)
O15_4 O 0.2375(10) 0.5618(5) 0.1877(4)
H52_4 H 0.299(7) 0.615(3) 0.2395(17)
H53_4 H 0.342(3) 0.5910(15) 0.270(5)
H34_4 H 0.1345 0.4939 0.9997
C63_4 C 0.2577(12) 0.4599(6) 0.9675(4)
C64_4 C 0.2175(12) 0.4426(8) 0.9366(5)
H36_4 H 0.1712 0.4292 0.9432
C65_4 C 0.3265(16) 0.4767(7) 0.9560(5)
C66_4 C 0.2388(11) 0.4429(7) 0.8967(5)
H37_4 H 0.2082 0.4299 0.8771
C67_4 C 0.3519(12) 0.4800(6) 0.9159(5)
H38_4 H 0.3983 0.4935 0.9098
C68_4 C 0.3076(10) 0.4633(6) 0.8858(5)
C69_4 C 0.3273(11) 0.4673(6) 0.8403(4)
C81_4 C 0.498(4) 0.3178(14) 0.9996(17)
C82_3 C 0.555(4) 0.3303(18) 0.971(2)
H46_3 H 0.5857 0.3106 0.9583
C83_3 C 0.564(3) 0.3723(19) 0.962(2)
H47_3 H 0.6027 0.3818 0.9451
C84_3 C 0.511(2) 0.3999(13) 0.9811(14)
H48_3 H 0.5127 0.4278 0.9739
N7_4 N 0.384(2) 0.4869(9) 0.9866(7)
C34_4 C 0.9957(11) 0.7069(5) 0.1856(5)
C36_4 C 0.9711(10) 0.7757(5) 0.2215(5)
C37_4 C 0.9163(12) 0.7862(5) 0.2512(5)
H20_4 H 0.8992 0.7654 0.2688
C38_4 C 0.8869(10) 0.8248(4) 0.2559(5)
H21_4 H 0.8513 0.8302 0.2766
C39_4 C 0.9095(10) 0.8561(4) 0.2302(4)
C40_4 C 0.9633(10) 0.8478(4) 0.2014(5)
H22_4 H 0.9794 0.8689 0.1839
C41_4 C 0.9947(10) 0.8087(5) 0.1975(5)
C42_4 C 0.9728(13) 0.7531(6) 0.1314(6)
C43_4 C 0.9216(10) 0.7711(5) 0.0989(4)
C44_4 C 0.9334(10) 0.8104(5) 0.0827(5)
H23_4 H 0.9751 0.8265 0.0915
C45_4 C 0.8830(14) 0.8257(5) 0.0532(6)
H24_4 H 0.8909 0.8520 0.0424
C46_4 C 0.8207(13) 0.8016(8) 0.0400(6)
H25_4 H 0.7869 0.8119 0.0203
C47_4 C 0.8089(12) 0.7623(8) 0.0563(7)
H26_4 H 0.7672 0.7462 0.0475
C48_4 C 0.8593(13) 0.7470(5) 0.0857(6)
H27_4 H 0.8514 0.7207 0.0966
C56_4 C 0.8765(9) 0.9015(5) 0.2350(6)
N5_4 N 0.9517(10) 0.7214(5) 0.1508(5)
C82_4 C 0.055(4) 0.1697(18) 0.029(2)
H46_4 H 0.0857 0.1894 0.0417
C83_4 C 0.064(3) 0.1277(19) 0.038(2)
H47_4 H 0.1027 0.1182 0.0549
C84_4 C 0.011(2) 0.1001(13) 0.0189(14)
H48_4 H 0.0127 0.0722 0.0261
loop_
_geom_bond_atom_site_label_1
_geom_bond_atom_site_label_2
_geom_bond_site_symmetry_1
_geom_bond_site_symmetry_2
C37 C36 1_555 1_555
H20 C37 1_555 1_555
C38 C37 1_555 1_555
H21 C38 1_555 1_555
C39 C38 1_555 1_555
C40 C39 1_555 1_555
H22 C40 1_555 1_555
C41 C36 1_555 1_555
C42 C43 1_555 1_555
C43 C44 1_555 1_555
C44 H23 1_555 1_555
C45 C44 1_555 1_555
H24 C45 1_555 1_555
C46 C45 1_555 1_555
H25 C46 1_555 1_555
C47 C46 1_555 1_555
H26 C47 1_555 1_555
C48 C43 1_555 1_555
H27 C48 1_555 1_555
C56 C39 1_555 1_555
N5 C34 1_555 1_555
O8 C56 1_555 1_555
O9 C56 1_555 1_555
Zn6 O8 1_555 1_555
Zn10 O9 1_555 1_555
C40 C41 1_555 1_555
C42 N5 1_555 1_555
C47 C48 1_555 1_555
C5 H2 1_555 1_555
H3 C6 1_555 1_555
H5 C11 1_555 1_555
H6 C12 1_555 1_555
C29 C30 1_555 1_555
C30 C31 1_555 1_555
C31 H17 1_555 1_555
C32 C31 1_555 1_555
H18 C32 1_555 1_555
C33 C32 1_555 1_555
C35 C30 1_555 1_555
H19 C35 1_555 1_555
C50 C49 1_555 1_555
C51 C50 1_555 1_555
H28 C51 1_555 1_555
C52 C51 1_555 1_555
H29 C52 1_555 1_555
C53 C52 1_555 1_555
H30 C53 1_555 1_555
C54 C53 1_555 1_555
H31 C54 1_555 1_555
C55 C50 1_555 1_555
H32 C55 1_555 1_555
C71 H39 1_555 1_555
H42 C75 1_555 1_555
C76 C71 1_555 1_555
H43 C76 1_555 1_555
C85 H49 1_555 1_555
N3 C85 1_555 1_555
H50 N3 1_555 1_555
H51 N3 1_555 1_555
O1 Zn1 1_555 1_555
O5 C13 1_555 1_555
O6 C29 1_555 1_555
O7 C29 1_555 1_555
O14 Zn1 1_555 1_555
O15 C85 1_555 1_555
Zn1 O2 1_555 1_555
H52 O14 1_555 1_555
H53 O14 1_555 1_555
O22 Zn1 1_555 1_555
Zn7 O1 1_555 1_555
C5 C6 1_555 1_555
C11 C12 1_555 1_555
C49 N6 1_555 1_555
C54 C55 1_555 1_555
C75 C76 1_555 1_555
O6 Zn1 1_555 1_555
O7 Zn7 1_555 1_555
O10 Zn7 1_555 1_555
O15 Zn1 1_555 1_555
C1 C2 1_555 1_555
C2 C3 1_555 1_555
C3 H1 1_555 1_555
C7 C4 1_555 1_555
C8 C7 1_555 1_555
C9 C8 1_555 1_555
H4 C9 1_555 1_555
C10 C9 1_555 1_555
C14 C3 1_555 1_555
N1 C14 1_555 1_555
C15 N1 1_555 1_555
C16 C15 1_555 1_555
C17 C16 1_555 1_555
H7 C17 1_555 1_555
C18 C17 1_555 1_555
H8 C18 1_555 1_555
C19 C18 1_555 1_555
H9 C19 1_555 1_555
C20 C19 1_555 1_555
H10 C20 1_555 1_555
C21 C16 1_555 1_555
H11 C21 1_555 1_555
C22 C15 1_555 1_555
C23 C22 1_555 1_555
C24 C23 1_555 1_555
H12 C24 1_555 1_555
C25 C24 1_555 1_555
H13 C25 1_555 1_555
C26 C25 1_555 1_555
H14 C26 1_555 1_555
C27 C26 1_555 1_555
H15 C27 1_555 1_555
C28 C23 1_555 1_555
H16 C28 1_555 1_555
C57 C58 1_555 1_555
C58 C59 1_555 1_555
C60 C59 1_555 1_555
H34 C60 1_555 1_555
C61 C60 1_555 1_555
C62 C58 1_555 1_555
H35 C62 1_555 1_555
C63 C61 1_555 1_555
C64 C63 1_555 1_555
H36 C64 1_555 1_555
C65 C63 1_555 1_555
C66 C64 1_555 1_555
H37 C66 1_555 1_555
C67 C65 1_555 1_555
H38 C67 1_555 1_555
C68 C66 1_555 1_555
C69 C68 1_555 1_555
C70 C72 1_555 1_555
C73 C72 1_555 1_555
H40 C73 1_555 1_555
C74 C73 1_555 1_555
H41 C74 1_555 1_555
C77 C61 1_555 1_555
N2 C77 1_555 1_555
C78 C70 1_555 1_555
C79 C78 1_555 1_555
C80 C79 1_555 1_555
H44 C80 1_555 1_555
C81 C80 1_555 1_555
H45 C81 1_555 1_555
C82 C81 1_555 1_555
H46 C82 1_555 1_555
C83 C82 1_555 1_555
H47 C83 1_555 1_555
C84 C79 1_555 1_555
H48 C84 1_555 1_555
N4 C8 1_555 1_555
N7 C65 1_555 1_555
O4 C1 1_555 1_555
O11 C57 1_555 1_555
O12 C69 1_555 1_555
O13 C69 1_555 1_555
O18 Zn2 1_555 1_555
Zn5 O13 1_555 1_555
C4 C14 1_555 1_555
C20 C21 1_555 1_555
C22 N4 1_555 1_555
C27 C28 1_555 1_555
C62 C77 1_555 1_555
C67 C68 1_555 1_555
C70 N7 1_555 1_555
N2 C78 1_555 1_555
C83 C84 1_555 1_555
O4 Zn2 1_555 1_555
O11 Zn2 1_555 1_555
O19 Zn8 1_555 1_555
C7_2 C4_2 1_555 1_555
C8_2 C7_2 1_555 1_555
C9_2 C8_2 1_555 1_555
H4_2 C9_2 1_555 1_555
C10_2 C9_2 1_555 1_555
N1_2 C14_2 1_555 1_555
C15_2 N1_2 1_555 1_555
C16_2 C15_2 1_555 1_555
C17_2 C16_2 1_555 1_555
H7_2 C17_2 1_555 1_555
C18_2 C17_2 1_555 1_555
H8_2 C18_2 1_555 1_555
C19_2 C18_2 1_555 1_555
H9_2 C19_2 1_555 1_555
C20_2 C19_2 1_555 1_555
H10_2 C20_2 1_555 1_555
C21_2 C16_2 1_555 1_555
H11_2 C21_2 1_555 1_555
C22_2 C15_2 1_555 1_555
C23_2 C22_2 1_555 1_555
C24_2 C23_2 1_555 1_555
H12_2 C24_2 1_555 1_555
C25_2 C24_2 1_555 1_555
C26_2 C25_2 1_555 1_555
H14_2 C26_2 1_555 1_555
C27_2 C26_2 1_555 1_555
H15_2 C27_2 1_555 1_555
C28_2 C23_2 1_555 1_555
H16_2 C28_2 1_555 1_555
H41_2 C74_2 1_555 1_555
N4_2 C8_2 1_555 1_555
Zn9 O3_2 1_555 1_555
O19_2 Zn9 1_555 1_555
C4_2 C14_2 1_555 1_555
C20_2 C21_2 1_555 1_555
C22_2 N4_2 1_555 1_555
C27_2 C28_2 1_555 1_555
C5_2 H2_2 1_555 1_555
H5_2 C11_2 1_555 1_555
H6_2 C12_2 1_555 1_555
H42_2 C75_2 1_555 1_555
H43_2 C76_2 1_555 1_555
O5_2 C13_2 1_555 1_555
Zn3 O5_2 1_555 1_555
O16 Zn3 1_555 1_555
O17 Zn3 1_555 1_555
O20 Zn3 1_555 1_555
C11_2 C12_2 1_555 1_555
C75_2 C76_2 1_555 1_555
C64_2 C63_2 1_555 1_555
H36_2 C64_2 1_555 1_555
C65_2 C63_2 1_555 1_555
C66_2 C64_2 1_555 1_555
H37_2 C66_2 1_555 1_555
C67_2 C65_2 1_555 1_555
H38_2 C67_2 1_555 1_555
C68_2 C66_2 1_555 1_555
C69_2 C68_2 1_555 1_555
N7_2 C65_2 1_555 1_555
O21 C69_2 1_555 1_555
O22 C69_2 1_555 1_555
C67_2 C68_2 1_555 1_555
C1_2 C2_2 1_555 1_555
C2_2 C3_2 1_555 1_555
C3_2 H1_2 1_555 1_555
C57_2 C58_2 1_555 1_555
C58_2 C59_2 1_555 1_555
C60_2 C59_2 1_555 1_555
C61_2 C60_2 1_555 1_555
C62_2 C58_2 1_555 1_555
H35_2 C62_2 1_555 1_555
C70_2 C72_2 1_555 1_555
C73_2 C72_2 1_555 1_555
H40_2 C73_2 1_555 1_555
C74_3 C73_2 1_555 1_555
C77_2 C61_2 1_555 1_555
N2_2 C77_2 1_555 1_555
C78_2 C70_2 1_555 1_555
C79_2 C78_2 1_555 1_555
C80_2 C79_2 1_555 1_555
H44_2 C80_2 1_555 1_555
O4_2 C1_2 1_555 1_555
O11_2 C57_2 1_555 1_555
O18_2 Zn2_2 1_555 1_555
C62_2 C77_2 1_555 1_555
N2_2 C78_2 1_555 1_555
O4_2 Zn2_2 1_555 1_555
O11_2 Zn2_2 1_555 1_555
H3_2 C6_2 1_555 1_555
C29_2 C30_2 1_555 1_555
C30_2 C31_2 1_555 1_555
C31_2 H17_2 1_555 1_555
C32_2 C31_2 1_555 1_555
H18_2 C32_2 1_555 1_555
C33_2 C32_2 1_555 1_555
C34_2 C33_2 1_555 1_555
C35_2 C30_2 1_555 1_555
H19_2 C35_2 1_555 1_555
C36_2 C33_2 1_555 1_555
C37_2 C36_2 1_555 1_555
H20_2 C37_2 1_555 1_555
C38_2 C37_2 1_555 1_555
H21_2 C38_2 1_555 1_555
C39_2 C38_2 1_555 1_555
C40_2 C39_2 1_555 1_555
H22_2 C40_2 1_555 1_555
C41_2 C36_2 1_555 1_555
C42_2 C43_2 1_555 1_555
C43_2 C44_2 1_555 1_555
C44_2 H23_2 1_555 1_555
C45_2 C44_2 1_555 1_555
H24_2 C45_2 1_555 1_555
C46_2 C45_2 1_555 1_555
H25_2 C46_2 1_555 1_555
C47_2 C46_2 1_555 1_555
H26_2 C47_2 1_555 1_555
C48_2 C43_2 1_555 1_555
H27_2 C48_2 1_555 1_555
C49_2 C42_2 1_555 1_555
C50_2 C49_2 1_555 1_555
C51_2 C50_2 1_555 1_555
H28_2 C51_2 1_555 1_555
C52_2 C51_2 1_555 1_555
H29_2 C52_2 1_555 1_555
C53_2 C52_2 1_555 1_555
H30_2 C53_2 1_555 1_555
C54_2 C53_2 1_555 1_555
H31_2 C54_2 1_555 1_555
C55_2 C50_2 1_555 1_555
H32_2 C55_2 1_555 1_555
C56_2 C39_2 1_555 1_555
C71_2 H39_2 1_555 1_555
C85_2 H49_2 1_555 1_555
N3_2 C85_2 1_555 1_555
H50_2 N3_2 1_555 1_555
H51_2 N3_2 1_555 1_555
N5_2 C34_2 1_555 1_555
N6_2 C41_2 1_555 1_555
O16 Zn5 1_555 1_555
O6_2 C29_2 1_555 1_555
O17 C29_2 1_555 1_555
O8_2 C56_2 1_555 1_555
O9_2 C56_2 1_555 1_555
O14_2 Zn5 1_555 1_555
O15_2 C85_2 1_555 1_555
Zn5 O2_2 1_555 1_555
H52_2 O14_2 1_555 1_555
H53_2 O14_2 1_555 1_555
Zn6_2 O8_2 1_555 1_555
Zn10_2 O9_2 1_555 1_555
C34_2 C35_2 1_555 1_555
C40_2 C41_2 1_555 1_555
C42_2 N5_2 1_555 1_555
C47_2 C48_2 1_555 1_555
C49_2 N6_2 1_555 1_555
C54_2 C55_2 1_555 1_555
O6_2 Zn5 1_555 1_555
O15_2 Zn5 1_555 1_555
C1_3 C2_3 1_555 1_555
C2_3 C3_3 1_555 1_555
C3_3 H1_3 1_555 1_555
C6_3 C2_3 1_555 1_555
H3_3 C6_3 1_555 1_555
C29_3 C30_3 1_555 1_555
C30_3 C31_3 1_555 1_555
C31_3 H17_3 1_555 1_555
C32_3 C31_3 1_555 1_555
H18_3 C32_3 1_555 1_555
C33_3 C32_3 1_555 1_555
C34_3 C33_3 1_555 1_555
C35_3 C30_3 1_555 1_555
H19_3 C35_3 1_555 1_555
C36_3 C33_3 1_555 1_555
C37_3 C36_3 1_555 1_555
H20_3 C37_3 1_555 1_555
C38_3 C37_3 1_555 1_555
H21_3 C38_3 1_555 1_555
C39_3 C38_3 1_555 1_555
C40_3 C39_3 1_555 1_555
H22_3 C40_3 1_555 1_555
C41_3 C36_3 1_555 1_555
C42_3 C43_3 1_555 1_555
C43_3 C44_3 1_555 1_555
C44_3 H23_3 1_555 1_555
C45_3 C44_3 1_555 1_555
H24_3 C45_3 1_555 1_555
C46_3 C45_3 1_555 1_555
H25_3 C46_3 1_555 1_555
C47_3 C46_3 1_555 1_555
H26_3 C47_3 1_555 1_555
C48_3 C43_3 1_555 1_555
H27_3 C48_3 1_555 1_555
C49_3 C42_3 1_555 1_555
C50_3 C49_3 1_555 1_555
C51_3 C50_3 1_555 1_555
H28_3 C51_3 1_555 1_555
C52_3 C51_3 1_555 1_555
H29_3 C52_3 1_555 1_555
C53_3 C52_3 1_555 1_555
H30_3 C53_3 1_555 1_555
C54_3 C53_3 1_555 1_555
H31_3 C54_3 1_555 1_555
C55_3 C50_3 1_555 1_555
H32_3 C55_3 1_555 1_555
C56_3 C39_3 1_555 1_555
C57_3 C58_3 1_555 1_555
C58_3 C59_3 1_555 1_555
C59_3 H33_3 1_555 1_555
C60_3 C59_3 1_555 1_555
H34_3 C60_3 1_555 1_555
C61_3 C60_3 1_555 1_555
C62_3 C58_3 1_555 1_555
H35_3 C62_3 1_555 1_555
C63_3 C61_3 1_555 1_555
C64_3 C63_3 1_555 1_555
H36_3 C64_3 1_555 1_555
C65_3 C63_3 1_555 1_555
C66_3 C64_3 1_555 1_555
H37_3 C66_3 1_555 1_555
C67_3 C65_3 1_555 1_555
H38_3 C67_3 1_555 1_555
C68_3 C66_3 1_555 1_555
C69_3 C68_3 1_555 1_555
C70_3 C72_3 1_555 1_555
C71_3 H39_3 1_555 1_555
C72_3 C71_3 1_555 1_555
C73_3 C72_3 1_555 1_555
H40_3 C73_3 1_555 1_555
C74_4 C73_3 1_555 1_555
C77_3 C61_3 1_555 1_555
N2_3 C77_3 1_555 1_555
C78_3 C70_3 1_555 1_555
C79_3 C78_3 1_555 1_555
C80_3 C79_3 1_555 1_555
H44_3 C80_3 1_555 1_555
C81_3 C80_3 1_555 1_555
H45_3 C81_3 1_555 1_555
C85_3 H49_3 1_555 1_555
N3_3 C85_3 1_555 1_555
H50_3 N3_3 1_555 1_555
H51_3 N3_3 1_555 1_555
N5_3 C34_3 1_555 1_555
N6_3 C41_3 1_555 1_555
N7_3 C65_3 1_555 1_555
O1_2 Zn1_2 1_555 1_555
O2_3 C1_3 1_555 1_555
O4_3 C1_3 1_555 1_555
O6_3 C29_3 1_555 1_555
O7_2 C29_3 1_555 1_555
O18_2 C56_3 1_555 1_555
O19_2 C56_3 1_555 1_555
O10_2 C57_3 1_555 1_555
O11_3 C57_3 1_555 1_555
O12_2 C69_3 1_555 1_555
O13_2 C69_3 1_555 1_555
O14_3 Zn1_2 1_555 1_555
O15_3 C85_3 1_555 1_555
Zn1_2 O2_3 1_555 1_555
Zn6_2 O1_2 1_555 1_555
H52_3 O14_3 1_555 1_555
H53_3 O14_3 1_555 1_555
O22_2 Zn1_2 1_555 1_555
Zn5_2 O13_2 1_555 1_555
Zn7_2 O1_2 1_555 1_555
Zn10_2 O1_2 1_555 1_555
Zn10 O12_2 1_555 1_555
C34_3 C35_3 1_555 1_555
C40_3 C41_3 1_555 1_555
C42_3 N5_3 1_555 1_555
C47_3 C48_3 1_555 1_555
C49_3 N6_3 1_555 1_555
C54_3 C55_3 1_555 1_555
C62_3 C77_3 1_555 1_555
C67_3 C68_3 1_555 1_555
C70_3 N7_3 1_555 1_555
N2_3 C78_3 1_555 1_555
O4_3 Zn6_2 1_555 1_555
O6_3 Zn1_2 1_555 1_555
O7_2 Zn7_2 1_555 1_555
O10_2 Zn7_2 1_555 1_555
O11_3 Zn6_2 1_555 1_555
O15_3 Zn1_2 1_555 1_555
C4_3 C5_3 1_555 1_555
C5_3 H2_3 1_555 1_555
C7_3 C4_3 1_555 1_555
C8_3 C7_3 1_555 1_555
C9_3 C8_3 1_555 1_555
H4_3 C9_3 1_555 1_555
C10_3 C9_3 1_555 1_555
C11_3 C10_3 1_555 1_555
H5_3 C11_3 1_555 1_555
C12_3 C7_3 1_555 1_555
H6_3 C12_3 1_555 1_555
C13_3 C10_3 1_555 1_555
N1_3 C14_3 1_555 1_555
C15_3 N1_3 1_555 1_555
C16_3 C15_3 1_555 1_555
C17_3 C16_3 1_555 1_555
H7_3 C17_3 1_555 1_555
C18_3 C17_3 1_555 1_555
H8_3 C18_3 1_555 1_555
C19_3 C18_3 1_555 1_555
H9_3 C19_3 1_555 1_555
C20_3 C19_3 1_555 1_555
H10_3 C20_3 1_555 1_555
C21_3 C16_3 1_555 1_555
H11_3 C21_3 1_555 1_555
C22_3 C15_3 1_555 1_555
C23_3 C22_3 1_555 1_555
C24_3 C23_3 1_555 1_555
H12_3 C24_3 1_555 1_555
C25_3 C24_3 1_555 1_555
C26_3 C25_3 1_555 1_555
H14_3 C26_3 1_555 1_555
C27_3 C26_3 1_555 1_555
H15_3 C27_3 1_555 1_555
C28_3 C23_3 1_555 1_555
H16_3 C28_3 1_555 1_555
H41_3 C74_5 1_555 1_555
C75_3 C74_5 1_555 1_555
H42_3 C75_3 1_555 1_555
H43_3 C76_3 1_555 1_555
H46_2 C82_2 1_555 1_555
C83_2 C82_2 1_555 1_555
H47_2 C83_2 1_555 1_555
H48_2 C84_2 1_555 1_555
N4_3 C8_3 1_555 1_555
O3_3 C13_3 1_555 1_555
O5_3 C13_3 1_555 1_555
Zn7_2 O5_3 1_555 1_555
Zn10_2 O3_3 1_555 1_555
O21_2 Zn10_2 1_555 1_555
C4_3 C14_3 1_555 1_555
C11_3 C12_3 1_555 1_555
C20_3 C21_3 1_555 1_555
C22_3 N4_3 1_555 1_555
C27_3 C28_3 1_555 1_555
C75_3 C76_3 1_555 1_555
C83_2 C84_2 1_555 1_555
O16_2 Zn3_2 1_555 1_555
O17_2 Zn3_2 1_555 1_555
O20_2 Zn3_2 1_555 1_555
Zn10 O16_2 1_555 1_555
C1_4 C2_4 1_555 1_555
C2_4 C3_4 1_555 1_555
C3_4 H1_4 1_555 1_555
C4_4 C5_4 1_555 1_555
C5_4 H2_4 1_555 1_555
C6_4 C2_4 1_555 1_555
H3_4 C6_4 1_555 1_555
C7_4 C4_4 1_555 1_555
C8_4 C7_4 1_555 1_555
C9_4 C8_4 1_555 1_555
H4_4 C9_4 1_555 1_555
C10_4 C9_4 1_555 1_555
C11_4 C10_4 1_555 1_555
H5_4 C11_4 1_555 1_555
C12_4 C7_4 1_555 1_555
H6_4 C12_4 1_555 1_555
C13_4 C10_4 1_555 1_555
C14_4 C3_4 1_555 1_555
N1_4 C14_4 1_555 1_555
C15_4 N1_4 1_555 1_555
C16_4 C15_4 1_555 1_555
C17_4 C16_4 1_555 1_555
H7_4 C17_4 1_555 1_555
C18_4 C17_4 1_555 1_555
H8_4 C18_4 1_555 1_555
C19_4 C18_4 1_555 1_555
H9_4 C19_4 1_555 1_555
C20_4 C19_4 1_555 1_555
H10_4 C20_4 1_555 1_555
C21_4 C16_4 1_555 1_555
H11_4 C21_4 1_555 1_555
C22_4 C15_4 1_555 1_555
C23_4 C22_4 1_555 1_555
C24_4 C23_4 1_555 1_555
H12_4 C24_4 1_555 1_555
C25_4 C24_4 1_555 1_555
H13_4 C25_4 1_555 1_555
C26_4 C25_4 1_555 1_555
H14_4 C26_4 1_555 1_555
C27_4 C26_4 1_555 1_555
H15_4 C27_4 1_555 1_555
C28_4 C23_4 1_555 1_555
H16_4 C28_4 1_555 1_555
C29_4 C30_4 1_555 1_555
C30_4 C31_4 1_555 1_555
C31_4 H17_4 1_555 1_555
C32_4 C31_4 1_555 1_555
H18_4 C32_4 1_555 1_555
C33_4 C32_4 1_555 1_555
C35_4 C30_4 1_555 1_555
H19_4 C35_4 1_555 1_555
C50_4 C49_4 1_555 1_555
C51_4 C50_4 1_555 1_555
H28_4 C51_4 1_555 1_555
C52_4 C51_4 1_555 1_555
H29_4 C52_4 1_555 1_555
C53_4 C52_4 1_555 1_555
H30_4 C53_4 1_555 1_555
C54_4 C53_4 1_555 1_555
H31_4 C54_4 1_555 1_555
C55_4 C50_4 1_555 1_555
H32_4 C55_4 1_555 1_555
C57_4 C58_4 1_555 1_555
C58_4 C59_4 1_555 1_555
C59_4 H33_4 1_555 1_555
C60_4 C59_4 1_555 1_555
C61_4 C60_4 1_555 1_555
C62_4 C58_4 1_555 1_555
H35_4 C62_4 1_555 1_555
C70_4 C72_4 1_555 1_555
C71_4 H39_4 1_555 1_555
C72_4 C71_4 1_555 1_555
C73_4 C72_4 1_555 1_555
H40_4 C73_4 1_555 1_555
C74_6 C73_4 1_555 1_555
H41_4 C74_6 1_555 1_555
C75_4 C74_6 1_555 1_555
H42_4 C75_4 1_555 1_555
C76_4 C71_4 1_555 1_555
H43_4 C76_4 1_555 1_555
C77_4 C61_4 1_555 1_555
N2_4 C77_4 1_555 1_555
C78_4 C70_4 1_555 1_555
C79_4 C78_4 1_555 1_555
C80_4 C79_4 1_555 1_555
H44_4 C80_4 1_555 1_555
C85_4 H49_4 1_555 1_555
N3_4 C85_4 1_555 1_555
H50_4 N3_4 1_555 1_555
H51_4 N3_4 1_555 1_555
N4_4 C8_4 1_555 1_555
O16_2 Zn5_2 1_555 1_555
O2_4 C1_4 1_555 1_555
O3_4 C13_4 1_555 1_555
O4_4 C1_4 1_555 1_555
O5_4 C13_4 1_555 1_555
O6_4 C29_4 1_555 1_555
O17_2 C29_4 1_555 1_555
O20_2 C57_4 1_555 1_555
O11_4 C57_4 1_555 1_555
O14_4 Zn5_2 1_555 1_555
O15_4 C85_4 1_555 1_555
Zn5_2 O2_4 1_555 1_555
Zn6 O16_2 1_555 1_555
H52_4 O14_4 1_555 1_555
H53_4 O14_4 1_555 1_555
C4_4 C14_4 1_555 1_555
C5_4 C6_4 1_555 1_555
C11_4 C12_4 1_555 1_555
C20_4 C21_4 1_555 1_555
C22_4 N4_4 1_555 1_555
C27_4 C28_4 1_555 1_555
C49_4 N6_4 1_555 1_555
C54_4 C55_4 1_555 1_555
C62_4 C77_4 1_555 1_555
C75_4 C76_4 1_555 1_555
N2_4 C78_4 1_555 1_555
O4_4 Zn6 1_555 1_555
O6_4 Zn5_2 1_555 1_555
O11_4 Zn6 1_555 1_555
O15_4 Zn5_2 1_555 1_555
C64_4 C63_4 1_555 1_555
H36_4 C64_4 1_555 1_555
C65_4 C63_4 1_555 1_555
C66_4 C64_4 1_555 1_555
H37_4 C66_4 1_555 1_555
C67_4 C65_4 1_555 1_555
H38_4 C67_4 1_555 1_555
C68_4 C66_4 1_555 1_555
C69_4 C68_4 1_555 1_555
C82_3 C81_4 1_555 1_555
H46_3 C82_3 1_555 1_555
C83_3 C82_3 1_555 1_555
H47_3 C83_3 1_555 1_555
H48_3 C84_3 1_555 1_555
N7_4 C65_4 1_555 1_555
O21_2 C69_4 1_555 1_555
O22_2 C69_4 1_555 1_555
C67_4 C68_4 1_555 1_555
C83_3 C84_3 1_555 1_555
C37_4 C36_4 1_555 1_555
H20_4 C37_4 1_555 1_555
C38_4 C37_4 1_555 1_555
H21_4 C38_4 1_555 1_555
C39_4 C38_4 1_555 1_555
C40_4 C39_4 1_555 1_555
H22_4 C40_4 1_555 1_555
C41_4 C36_4 1_555 1_555
C42_4 C43_4 1_555 1_555
C43_4 C44_4 1_555 1_555
C44_4 H23_4 1_555 1_555
C45_4 C44_4 1_555 1_555
H24_4 C45_4 1_555 1_555
C46_4 C45_4 1_555 1_555
H25_4 C46_4 1_555 1_555
C47_4 C46_4 1_555 1_555
H26_4 C47_4 1_555 1_555
C48_4 C43_4 1_555 1_555
H27_4 C48_4 1_555 1_555
C56_4 C39_4 1_555 1_555
N5_4 C34_4 1_555 1_555
O18 C56_4 1_555 1_555
O19 C56_4 1_555 1_555
C40_4 C41_4 1_555 1_555
C42_4 N5_4 1_555 1_555
C47_4 C48_4 1_555 1_555
H46_4 C82_4 1_555 1_555
C83_4 C82_4 1_555 1_555
H47_4 C83_4 1_555 1_555
H48_4 C84_4 1_555 1_555
C83_4 C84_4 1_555 1_555

#END
