
###############################################################################
#
# This file contains modified crystal structure data generated from the
# MOF subset of the Cambridge Structural Database (CSD) v543 
# hosted by the Cambridge Crystallographic Data Centre (CCDC).
#
# This work is licensed under the Creative Commons
# Attribution-NonCommercial-ShareAlike 4.0 International License.
# To view a copy of this license, visit
# http://creativecommons.org/licenses/by-nc-sa/4.0/
# or send a letter to
# Creative Commons, PO Box 1866, Mountain View, CA 94042, USA.
#
# CIF created using the CSD Python API on 29 September 2022
# The structure has been converted into the P1 space group
# The structure has a 3D framework
# The original CSD entry NADBAZ is in the monoclinic crystal system
# The framework has been calculated to contain at least 10.0% void space
# The void calculation uses a probe of radius 1.32A, grid spacing 0.4
#
###############################################################################

data_NADBAZ
_chemical_formula_moiety         '(C384 H240 Co16 N32 O72)n'
_symmetry_cell_setting           triclinic
_symmetry_space_group_name_H-M   'P 1'
_symmetry_Int_Tables_number      1
_space_group_name_Hall           'P 1'
loop_
_symmetry_equiv_pos_site_id
_symmetry_equiv_pos_as_xyz
1 x,y,z
_cell_length_a                   31.055(9)
_cell_length_b                   23.792(6)
_cell_length_c                   16.540(4)
_cell_angle_alpha                90
_cell_angle_beta                 94.255(5)
_cell_angle_gamma                90
_cell_volume                     12187.1
loop_
_atom_site_label
_atom_site_type_symbol
_atom_site_fract_x
_atom_site_fract_y
_atom_site_fract_z
C24 C 0.2156(2) 0.2000(3) 0.0185(4)
H12 H 0.223295 0.089527 0.003787
O1 O 0.22473(19) 0.1771(2) 0.0855(3)
O2 O 0.20370(17) 0.2503(2) 0.0073(3)
Co8 Co 0.22418(3) 0.17660(4) 0.20777(6)
Co14 Co 0.22361(3) 0.32440(4) 0.04531(6)
H7 H 0.145305 0.005904 0.814627
C23 C 0.2200(2) 0.0734(3) 0.8842(5)
C25 C 0.2177(3) 0.1647(3) 0.9440(4)
C26 C 0.2174(2) 0.1885(3) 0.8691(4)
H10 H 0.215332 0.227332 0.863871
C27 C 0.2201(2) 0.1557(3) 0.8012(4)
C28 C 0.2202(2) 0.0984(3) 0.8073(4)
H11 H 0.220446 0.076148 0.761035
C29 C 0.2208(3) 0.1059(3) 0.9526(5)
C30 C 0.2209(2) 0.1840(3) 0.7191(4)
O3 O 0.22443(17) 0.1506(2) 0.6594(3)
O4 O 0.21805(17) 0.2355(2) 0.7133(3)
O18 O 0.2201(2) 0.0165(2) 0.8950(3)
Co7 Co 0.22418(3) 0.32340(4) 0.70777(6)
Co12 Co 0.22361(3) 0.17560(4) 0.54531(6)
H15 H 0.640371 0.777263 0.019203
H16 H 0.711570 0.753028 0.028195
Co1 Co 0.28072(3) 0.67898(4) 0.04253(6)
C89 C 0.0737(3) 0.6659(4) 0.0005(6)
C90 C 0.0511(3) 0.6769(5) 0.0674(6)
H55 H 0.065652 0.687447 0.116185
C91 C 0.0062(3) 0.6721(5) 0.0615(7)
C92 C 0.1214(3) 0.6746(4) 0.0023(6)
C94 C 0.1420(3) 0.7128(4) 0.0525(6)
H58 H 0.126219 0.735242 0.085589
C95 C 0.1874(3) 0.7184(4) 0.0544(6)
H59 H 0.200704 0.744962 0.089113
N8 N 0.2115(2) 0.6879(3) 0.0097(4)
N10 N 0.3475(2) 0.6673(4) 0.0783(4)
O24 O 0.2832(3) 0.7573(3) 0.0760(4)
O25 O 0.2915(2) 0.8315(2) 0.0020(3)
O26 O 0.25982(17) 0.6292(2) 0.1299(3)
C1 C 0.2867(2) 0.6826(3) 0.8688(4)
C2 C 0.2902(2) 0.6527(3) 0.7890(4)
C3 C 0.2865(2) 0.6833(3) 0.7160(4)
H1 H 0.281353 0.721729 0.717179
C4 C 0.2905(2) 0.6571(3) 0.6435(4)
C5 C 0.2972(2) 0.6001(3) 0.6410(4)
H2 H 0.299233 0.582098 0.591525
C6 C 0.3009(2) 0.5696(3) 0.7118(4)
C7 C 0.2972(2) 0.5954(3) 0.7849(5)
H3 H 0.299401 0.574208 0.832230
C8 C 0.3121(3) 0.4786(3) 0.7712(4)
C9 C 0.3509(3) 0.4757(4) 0.8164(5)
H4 H 0.374211 0.497417 0.802898
C10 C 0.3548(3) 0.4397(4) 0.8826(5)
H5 H 0.380769 0.437865 0.914320
C11 C 0.3205(3) 0.4066(3) 0.9018(5)
H6 H 0.323650 0.382480 0.946097
C12 C 0.2804(2) 0.4089(3) 0.8547(4)
C13 C 0.2762(2) 0.4442(3) 0.7869(4)
C14 C 0.2349(3) 0.4504(3) 0.7330(4)
C15 C 0.2087(3) 0.9827(3) 0.8290(5)
C16 C 0.1656(3) 0.9818(3) 0.7949(6)
C17 C 0.1537(3) 0.9461(3) 0.7340(5)
H8 H 0.125137 0.945006 0.712614
C18 C 0.1844(3) 0.9110(4) 0.7031(5)
H9 H 0.176679 0.888227 0.658689
C19 C 0.2266(2) 0.9095(3) 0.7380(5)
C20 C 0.2388(2) 0.9469(3) 0.8024(5)
C21 C 0.2843(3) 0.9500(4) 0.8415(5)
C22 C 0.2580(2) 0.8675(3) 0.7059(5)
C31 C 0.2446(2) 0.3701(3) 0.8807(4)
C32 C 0.6835(3) 0.6752(4) 0.8850(6)
H13 H 0.694420 0.649438 0.849423
C33 C 0.6391(3) 0.6870(5) 0.8785(6)
H14 H 0.621312 0.667553 0.840352
C34 C 0.6212(3) 0.7257(4) 0.9256(6)
C35 C 0.6502(3) 0.7507(4) 0.9837(6)
C36 C 0.6932(3) 0.7361(4) 0.9884(5)
C37 C 0.5750(3) 0.7409(5) 0.9175(6)
C38 C 0.5435(3) 0.7041(5) 0.8812(9)
H17 H 0.551677 0.669063 0.862539
C39 C 0.3127(3) 0.2783(4) 0.7729(5)
H18 H 0.296021 0.251771 0.797764
C40 C 0.3564(3) 0.2796(4) 0.7933(6)
H19 H 0.368133 0.253673 0.830827
C41 C 0.3832(2) 0.3176(4) 0.7604(5)
C42 C 0.3639(3) 0.3513(4) 0.6990(5)
H20 H 0.380484 0.375551 0.669947
C43 C 0.3189(3) 0.3478(4) 0.6818(5)
H21 H 0.306384 0.371218 0.641582
C44 C 0.4297(3) 0.3231(5) 0.7869(7)
C45 C 0.4537(4) 0.3680(7) 0.7720(10)
H22 H 0.440556 0.397945 0.743655
C46 C 0.4971(4) 0.3720(6) 0.7966(10)
H23 H 0.512508 0.403644 0.782962
C47 C 0.5173(3) 0.3307(6) 0.8400(7)
C48 C 0.4946(4) 0.2803(6) 0.8493(9)
H24 H 0.508539 0.249525 0.873989
C49 C 0.4500(5) 0.2763(7) 0.8208(9)
H25 H 0.435039 0.242686 0.825014
C50 C 0.1304(3) 0.2899(3) 0.6499(6)
H26 H 0.144972 0.261822 0.623936
C51 C 0.0864(3) 0.2918(4) 0.6363(6)
H27 H 0.072096 0.267033 0.600032
C52 C 0.0633(3) 0.3313(4) 0.6774(5)
C53 C 0.0870(3) 0.3690(4) 0.7248(6)
H28 H 0.072902 0.397216 0.751341
C54 C 0.1315(3) 0.3658(4) 0.7341(5)
H29 H 0.146485 0.392384 0.766403
C55 C 0.0149(3) 0.3324(4) 0.6679(6)
H30 H 0.006004 0.416824 0.662696
H32 H 0.006379 0.247600 0.666269
C59 C 0.6242(3) 0.2979(6) 0.9546(7)
H33 H 0.634160 0.273193 0.995383
C60 C 0.5797(4) 0.2982(6) 0.9283(8)
H34 H 0.561074 0.273423 0.951787
C61 C 0.5637(3) 0.3338(5) 0.8700(6)
C62 C 0.5935(3) 0.3686(5) 0.8366(7)
H35 H 0.584366 0.393685 0.795761
C63 C 0.6370(3) 0.3663(5) 0.8634(6)
H36 H 0.656093 0.389703 0.838814
C71 C 0.3696(3) 0.7761(4) 0.8216(5)
H42 H 0.351782 0.758814 0.781237
C72 C 0.4135(3) 0.7643(5) 0.8261(6)
H43 H 0.424531 0.740870 0.787548
C73 C 0.4407(3) 0.7866(4) 0.8860(6)
C74 C 0.4236(3) 0.8243(5) 0.9389(7)
H44 H 0.441082 0.841887 0.979331
C75 C 0.3793(3) 0.8353(4) 0.9298(6)
H45 H 0.368299 0.860976 0.965271
C76 C 0.4871(3) 0.7700(4) 0.8971(6)
C77 C 0.5179(3) 0.8080(5) 0.9295(8)
H46 H 0.509246 0.843686 0.944631
C78 C 0.5610(3) 0.7938(5) 0.9394(8)
H47 H 0.580976 0.819884 0.961003
C79 C 0.5006(3) 0.7201(6) 0.8732(9)
H48 H 0.480352 0.694874 0.850097
C80 C 0.2882(2) 0.6924(3) 0.5686(5)
Co3 Co 0.28385(3) 0.82297(4) 0.87846(6)
N1 N 0.7099(2) 0.6992(3) 0.9395(4)
N2 N 0.29304(19) 0.3132(3) 0.7191(4)
N3 N 0.1542(2) 0.3258(3) 0.6982(4)
N4 N 0.6525(2) 0.3327(4) 0.9217(4)
N5 N 0.3513(2) 0.8117(3) 0.8738(4)
O5 O 0.23934(18) 0.3730(2) 0.9552(3)
O6 O 0.22251(18) 0.4089(2) 0.6919(3)
O7 O 0.2173(2) 0.4971(2) 0.7309(3)
O8 O 0.30808(19) 0.5131(2) 0.7031(3)
O9 O 0.29034(17) 0.6512(2) 0.9324(3)
O10 O 0.28029(17) 0.7338(2) 0.8700(3)
O11 O 0.29756(19) 0.9086(2) 0.8834(4)
O12 O 0.3050(2) 0.9934(3) 0.8312(5)
O13 O 0.27646(17) 0.8323(2) 0.7506(3)
O14 O 0.2832(3) 0.7427(3) 0.5760(4)
O15 O 0.2915(2) 0.6685(2) 0.5020(3)
O16 O 0.25982(17) 0.8708(2) 0.6299(3)
O17 O 0.22460(17) 0.3383(2) 0.8320(3)
C87 C 0.0064(3) 0.6386(4) 0.9279(6)
C88 C 0.0511(3) 0.6443(5) 0.9329(7)
H54 H 0.066190 0.633150 0.889060
C93 C 0.1465(3) 0.6438(4) 0.9531(6)
H57 H 0.134006 0.617731 0.916562
C96 C 0.1915(3) 0.6525(4) 0.9595(5)
H60 H 0.208054 0.631716 0.925698
Co5 Co 0.71928(3) 0.32102(4) 0.95747(6)
Co6 Co 0.28072(3) 0.82102(4) 0.54253(6)
Co10 Co 0.28385(3) 0.67703(4) 0.37846(6)
N11 N 0.21425(19) 0.8224(3) 0.8818(4)
O19 O 0.22473(19) 0.3229(2) 0.5855(3)
Co11 Co 0.77639(3) 0.67560(4) 0.95469(6)
C84 C 0.9098(3) 0.6621(4) 0.0510(6)
H51 H 0.923427 0.669691 0.101824
C85 C 0.8658(3) 0.6629(4) 0.0398(6)
H52 H 0.850205 0.672161 0.083780
H56 H 0.991302 0.682403 0.105994
O23 O 0.76066(18) 0.6270(2) 0.0448(3)
C56 C 0.9916(3) 0.3825(4) 0.6604(6)
C57 C 0.9459(3) 0.3811(4) 0.6491(7)
H31 H 0.930609 0.414717 0.645402
C58 C 0.9919(3) 0.2818(4) 0.6625(9)
C64 C 0.8069(2) 0.3606(3) 0.5764(5)
H37 H 0.790927 0.384967 0.541981
C65 C 0.8510(3) 0.3654(4) 0.5822(5)
H38 H 0.864280 0.392802 0.552698
C66 C 0.8757(2) 0.3292(4) 0.6322(5)
C67 C 0.8530(3) 0.2894(4) 0.6737(6)
H39 H 0.867907 0.263881 0.708017
C68 C 0.8087(3) 0.2875(3) 0.6642(6)
H40 H 0.794446 0.260022 0.691891
C69 C 0.9242(3) 0.3320(3) 0.6438(5)
C70 C 0.9468(3) 0.2837(4) 0.6514(8)
H41 H 0.931675 0.249895 0.649083
N6 N 0.78575(19) 0.3224(3) 0.6182(4)
C81 C 0.8678(3) 0.6371(4) 0.9076(5)
H49 H 0.853472 0.627692 0.858095
C82 C 0.9119(3) 0.6361(4) 0.9134(6)
H50 H 0.926799 0.626222 0.868769
C83 C 0.9343(3) 0.6498(3) 0.9861(5)
C86 C 0.9831(3) 0.6531(4) 0.9935(6)
H53 H 0.992041 0.625069 0.880547
N7 N 0.8438(2) 0.6509(3) 0.9687(4)
Co9 Co 0.71615(3) 0.32297(4) 0.62154(6)
O20 O 0.79630(17) 0.7497(2) 0.9927(3)
O21 O 0.77557(17) 0.6506(2) 0.8406(3)
C81_2 C 0.1322(3) 0.1371(4) 0.5924(5)
H49_2 H 0.146528 0.127692 0.641905
C82_2 C 0.0881(3) 0.1361(4) 0.5866(6)
H50_2 H 0.073201 0.126222 0.631231
C83_2 C 0.0657(3) 0.1498(3) 0.5139(5)
C84_2 C 0.0902(3) 0.1621(4) 0.4490(6)
H51_2 H 0.076573 0.169691 0.398176
C85_2 C 0.1342(3) 0.1629(4) 0.4602(6)
H52_2 H 0.149795 0.172161 0.416220
C86_2 C 0.0169(3) 0.1531(4) 0.5065(6)
H53_2 H 0.007959 0.125069 0.619453
H56_2 H 0.008698 0.182403 0.394006
N7_2 N 0.1562(2) 0.1509(3) 0.5313(4)
N9 N 0.2901(2) 0.1992(3) 0.5605(4)
O20_2 O 0.20370(17) 0.2497(2) 0.5073(3)
O23_2 O 0.23934(18) 0.1270(2) 0.4552(3)
C56_2 C 0.0084(3) 0.8825(4) 0.8396(6)
C57_2 C 0.0541(3) 0.8811(4) 0.8509(7)
H31_2 H 0.069391 0.914717 0.854598
C58_2 C 0.0081(3) 0.7818(4) 0.8375(9)
C64_2 C 0.1931(2) 0.8606(3) 0.9236(5)
H37_2 H 0.209073 0.884967 0.958019
C65_2 C 0.1490(3) 0.8654(4) 0.9178(5)
H38_2 H 0.135720 0.892802 0.947302
C66_2 C 0.1243(2) 0.8292(4) 0.8678(5)
C67_2 C 0.1470(3) 0.7894(4) 0.8263(6)
H39_2 H 0.132093 0.763881 0.791983
C68_2 C 0.1913(3) 0.7875(3) 0.8358(6)
H40_2 H 0.205554 0.760022 0.808109
C69_2 C 0.0758(3) 0.8320(3) 0.8562(5)
C70_2 C 0.0532(3) 0.7837(4) 0.8486(8)
H41_2 H 0.068325 0.749895 0.850917
Co10_2 Co 0.71615(3) 0.17703(4) 0.12154(6)
C1_2 C 0.7133(2) 0.1826(3) 0.6312(4)
C2_2 C 0.7098(2) 0.1527(3) 0.7110(4)
C3_2 C 0.7135(2) 0.1833(3) 0.7840(4)
H1_2 H 0.718647 0.221729 0.782821
C4_2 C 0.7095(2) 0.1571(3) 0.8565(4)
C5_2 C 0.7028(2) 0.1001(3) 0.8590(4)
H2_2 H 0.700767 0.082098 0.908475
C6_2 C 0.6991(2) 0.0696(3) 0.7882(4)
C7_2 C 0.7028(2) 0.0954(3) 0.7151(5)
H3_2 H 0.700599 0.074208 0.667770
C15_2 C 0.7913(3) 0.4827(3) 0.6710(5)
C16_2 C 0.8344(3) 0.4818(3) 0.7051(6)
H7_2 H 0.854695 0.505904 0.685373
C17_2 C 0.8463(3) 0.4461(3) 0.7660(5)
H8_2 H 0.874863 0.445006 0.787386
C18_2 C 0.8156(3) 0.4110(4) 0.7969(5)
H9_2 H 0.823321 0.388227 0.841311
C19_2 C 0.7734(2) 0.4095(3) 0.7620(5)
C20_2 C 0.7612(2) 0.4469(3) 0.6976(5)
C21_2 C 0.7157(3) 0.4500(4) 0.6585(5)
C22_2 C 0.7420(2) 0.3675(3) 0.7941(5)
C23_2 C 0.7800(2) 0.5734(3) 0.6158(5)
C24_2 C 0.7844(2) 0.7000(3) 0.4815(4)
C25_2 C 0.7823(3) 0.6647(3) 0.5560(4)
C26_2 C 0.7826(2) 0.6885(3) 0.6309(4)
H10_2 H 0.784668 0.727332 0.636129
C27_2 C 0.7799(2) 0.6557(3) 0.6988(4)
C28_2 C 0.7798(2) 0.5984(3) 0.6927(4)
H11_2 H 0.779554 0.576148 0.738965
C29_2 C 0.7792(3) 0.6059(3) 0.5474(5)
H12_2 H 0.776705 0.589527 0.496213
C30_2 C 0.7791(2) 0.6840(3) 0.7809(4)
C32_2 C 0.3165(3) 0.1752(4) 0.6150(6)
H13_2 H 0.305580 0.149438 0.650577
C33_2 C 0.3609(3) 0.1870(5) 0.6215(6)
H14_2 H 0.378688 0.167553 0.659648
C34_2 C 0.3788(3) 0.2257(4) 0.5744(6)
C35_2 C 0.3498(3) 0.2507(4) 0.5163(6)
H15_2 H 0.359629 0.277263 0.480797
C36_2 C 0.3068(3) 0.2361(4) 0.5116(5)
H16_2 H 0.288430 0.253028 0.471805
C37_2 C 0.4250(3) 0.2409(5) 0.5825(6)
C38_2 C 0.4565(3) 0.2041(5) 0.6188(9)
H17_2 H 0.448323 0.169063 0.637461
C71_2 C 0.6304(3) 0.2761(4) 0.6784(5)
H42_2 H 0.648218 0.258814 0.718763
C72_2 C 0.5865(3) 0.2643(5) 0.6739(6)
H43_2 H 0.575469 0.240870 0.712452
C73_2 C 0.5593(3) 0.2866(4) 0.6140(6)
C74_2 C 0.5764(3) 0.3243(5) 0.5611(7)
H44_2 H 0.558918 0.341887 0.520669
C75_2 C 0.6207(3) 0.3353(4) 0.5702(6)
H45_2 H 0.631701 0.360976 0.534729
C76_2 C 0.5129(3) 0.2700(4) 0.6029(6)
C77_2 C 0.4821(3) 0.3080(5) 0.5705(8)
H46_2 H 0.490754 0.343686 0.555369
C78_2 C 0.4390(3) 0.2938(5) 0.5606(8)
H47_2 H 0.419024 0.319884 0.538997
C79_2 C 0.4994(3) 0.2201(6) 0.6268(9)
H48_2 H 0.519648 0.194874 0.649903
C80_2 C 0.7118(2) 0.1924(3) 0.9314(5)
Co1_2 Co 0.71928(3) 0.17898(4) 0.45747(6)
N5_2 N 0.6487(2) 0.3117(3) 0.6262(4)
O1_2 O 0.77527(19) 0.6771(2) 0.4145(3)
O2_2 O 0.79630(17) 0.7503(2) 0.4927(3)
O4_2 O 0.78195(17) 0.7355(2) 0.7867(3)
O8_2 O 0.69192(19) 0.0131(2) 0.7969(3)
O9_2 O 0.70966(17) 0.1512(2) 0.5676(3)
O10_2 O 0.71971(17) 0.2338(2) 0.6300(3)
O11_2 O 0.70244(19) 0.4086(2) 0.6166(4)
O12_2 O 0.6950(2) 0.4934(3) 0.6688(5)
O13_2 O 0.72354(17) 0.3323(2) 0.7494(3)
O14_2 O 0.7168(3) 0.2427(3) 0.9240(4)
O15_2 O 0.7085(2) 0.1685(2) 0.9980(3)
O16_2 O 0.74018(17) 0.3708(2) 0.8701(3)
O18_2 O 0.7799(2) 0.5165(2) 0.6050(3)
C87_2 C 0.9936(3) 0.1386(4) 0.5721(6)
C88_2 C 0.9489(3) 0.1443(5) 0.5671(7)
H54_2 H 0.933810 0.133150 0.610940
C89_2 C 0.9263(3) 0.1659(4) 0.4995(6)
C90_2 C 0.9489(3) 0.1769(5) 0.4326(6)
H55_2 H 0.934348 0.187447 0.383815
C91_2 C 0.9938(3) 0.1721(5) 0.4385(7)
C92_2 C 0.8786(3) 0.1746(4) 0.4977(6)
C93_2 C 0.8535(3) 0.1438(4) 0.5469(6)
H57_2 H 0.865994 0.117731 0.583438
C94_2 C 0.8580(3) 0.2128(4) 0.4475(6)
H58_2 H 0.873781 0.235242 0.414411
C95_2 C 0.8126(3) 0.2184(4) 0.4456(6)
H59_2 H 0.799296 0.244962 0.410887
C96_2 C 0.8085(3) 0.1525(4) 0.5405(5)
H60_2 H 0.791946 0.131716 0.574302
N8_2 N 0.7885(2) 0.1879(3) 0.4903(4)
Co7_2 Co 0.77582(3) 0.82340(4) 0.79223(6)
Co8_2 Co 0.77582(3) 0.67660(4) 0.29223(6)
N10_2 N 0.6525(2) 0.1673(4) 0.4217(4)
O24_2 O 0.7168(3) 0.2573(3) 0.4240(4)
O25_2 O 0.7085(2) 0.3315(2) 0.4980(3)
O26_2 O 0.74018(17) 0.1292(2) 0.3701(3)
Co14_2 Co 0.77639(3) 0.82440(4) 0.45469(6)
C8_2 C 0.6879(3) 0.9786(3) 0.7288(4)
C9_2 C 0.6491(3) 0.9757(4) 0.6836(5)
H4_2 H 0.625789 0.997417 0.697102
C10_2 C 0.6452(3) 0.9397(4) 0.6174(5)
H5_2 H 0.619231 0.937865 0.585680
C11_2 C 0.6795(3) 0.9066(3) 0.5982(5)
H6_2 H 0.676350 0.882480 0.553903
C12_2 C 0.7196(2) 0.9089(3) 0.6453(4)
C13_2 C 0.7238(2) 0.9442(3) 0.7131(4)
C14_2 C 0.7651(3) 0.9504(3) 0.7670(4)
C31_2 C 0.7554(2) 0.8701(3) 0.6193(4)
C39_2 C 0.6873(3) 0.7783(4) 0.7271(5)
H18_2 H 0.703979 0.751771 0.702236
C40_2 C 0.6436(3) 0.7796(4) 0.7067(6)
H19_2 H 0.631867 0.753673 0.669173
C41_2 C 0.6168(2) 0.8176(4) 0.7396(5)
C42_2 C 0.6361(3) 0.8513(4) 0.8010(5)
H20_2 H 0.619516 0.875551 0.830053
C43_2 C 0.6811(3) 0.8478(4) 0.8182(5)
H21_2 H 0.693616 0.871218 0.858418
C44_2 C 0.5703(3) 0.8231(5) 0.7131(7)
C45_2 C 0.5463(4) 0.8680(7) 0.7280(10)
H22_2 H 0.559444 0.897945 0.756345
C46_2 C 0.5029(4) 0.8720(6) 0.7034(10)
H23_2 H 0.487492 0.903644 0.717038
C47_2 C 0.4827(3) 0.8307(6) 0.6600(7)
C48_2 C 0.5054(4) 0.7803(6) 0.6507(9)
H24_2 H 0.491461 0.749525 0.626011
C49_2 C 0.5500(5) 0.7763(7) 0.6792(9)
H25_2 H 0.564961 0.742686 0.674986
C50_2 C 0.8696(3) 0.7899(3) 0.8501(6)
H26_2 H 0.855028 0.761822 0.876064
C51_2 C 0.9136(3) 0.7918(4) 0.8637(6)
H27_2 H 0.927904 0.767033 0.899968
C52_2 C 0.9367(3) 0.8313(4) 0.8226(5)
C53_2 C 0.9130(3) 0.8690(4) 0.7752(6)
H28_2 H 0.927098 0.897216 0.748659
C54_2 C 0.8685(3) 0.8658(4) 0.7659(5)
H29_2 H 0.853515 0.892384 0.733597
C55_2 C 0.9851(3) 0.8324(4) 0.8321(6)
H30_2 H 0.993996 0.916824 0.837304
H32_2 H 0.993621 0.747600 0.833731
C59_2 C 0.3758(3) 0.7979(6) 0.5454(7)
H33_2 H 0.365840 0.773193 0.504617
C60_2 C 0.4203(4) 0.7982(6) 0.5717(8)
H34_2 H 0.438926 0.773423 0.548213
C61_2 C 0.4363(3) 0.8338(5) 0.6300(6)
C62_2 C 0.4065(3) 0.8686(5) 0.6634(7)
H35_2 H 0.415634 0.893685 0.704239
C63_2 C 0.3630(3) 0.8663(5) 0.6366(6)
H36_2 H 0.343907 0.889703 0.661186
N2_2 N 0.70696(19) 0.8132(3) 0.7809(4)
N3_2 N 0.8458(2) 0.8258(3) 0.8018(4)
N4_2 N 0.3475(2) 0.8327(4) 0.5783(4)
O5_2 O 0.76066(18) 0.8730(2) 0.5448(3)
O6_2 O 0.77749(18) 0.9089(2) 0.8081(3)
O7_2 O 0.7827(2) 0.9971(2) 0.7691(3)
O17_2 O 0.77540(17) 0.8383(2) 0.6680(3)
O19_2 O 0.77527(19) 0.8229(2) 0.9145(3)
C56_3 C 0.0084(3) 0.6175(4) 0.3396(6)
C57_3 C 0.0541(3) 0.6189(4) 0.3509(7)
H31_3 H 0.069391 0.585283 0.354598
C58_3 C 0.0081(3) 0.7182(4) 0.3375(9)
C64_3 C 0.1931(2) 0.6394(3) 0.4236(5)
H37_3 H 0.209073 0.615033 0.458019
C65_3 C 0.1490(3) 0.6346(4) 0.4178(5)
H38_3 H 0.135720 0.607198 0.447302
C66_3 C 0.1243(2) 0.6708(4) 0.3678(5)
C67_3 C 0.1470(3) 0.7106(4) 0.3263(6)
H39_3 H 0.132093 0.736119 0.291983
C68_3 C 0.1913(3) 0.7125(3) 0.3358(6)
H40_3 H 0.205554 0.739978 0.308109
C69_3 C 0.0758(3) 0.6680(3) 0.3562(5)
C70_3 C 0.0532(3) 0.7163(4) 0.3486(8)
H41_3 H 0.068325 0.750105 0.350917
N6_2 N 0.21425(19) 0.6776(3) 0.3818(4)
C81_3 C 0.1322(3) 0.3629(4) 0.0924(5)
H49_3 H 0.146528 0.372308 0.141905
C82_3 C 0.0881(3) 0.3639(4) 0.0866(6)
H50_3 H 0.073201 0.373778 0.131231
C83_3 C 0.0657(3) 0.3502(3) 0.0139(5)
C86_3 C 0.0169(3) 0.3469(4) 0.0065(6)
H53_3 H 0.007959 0.374931 0.119453
N7_3 N 0.1562(2) 0.3491(3) 0.0313(4)
N9_2 N 0.2901(2) 0.3008(3) 0.0605(4)
O21_2 O 0.22443(17) 0.3494(2) 0.1594(3)
C84_3 C 0.0902(3) 0.3379(4) 0.9490(6)
H51_3 H 0.076573 0.330309 0.898176
C85_3 C 0.1342(3) 0.3371(4) 0.9602(6)
H52_3 H 0.149795 0.327839 0.916220
H56_3 H 0.008698 0.317597 0.894006
C1_3 C 0.7133(2) 0.3174(3) 0.1312(4)
C2_3 C 0.7098(2) 0.3473(3) 0.2110(4)
C3_3 C 0.7135(2) 0.3167(3) 0.2840(4)
H1_3 H 0.718647 0.278271 0.282821
C4_3 C 0.7095(2) 0.3429(3) 0.3565(4)
C5_3 C 0.7028(2) 0.3999(3) 0.3590(4)
H2_3 H 0.700767 0.417902 0.408475
C6_3 C 0.6991(2) 0.4304(3) 0.2882(4)
C7_3 C 0.7028(2) 0.4046(3) 0.2151(5)
H3_3 H 0.700599 0.425792 0.167770
C8_3 C 0.6879(3) 0.5214(3) 0.2288(4)
C9_3 C 0.6491(3) 0.5243(4) 0.1836(5)
H4_3 H 0.625789 0.502583 0.197102
C10_3 C 0.6452(3) 0.5603(4) 0.1174(5)
H5_3 H 0.619231 0.562135 0.085680
C11_3 C 0.6795(3) 0.5934(3) 0.0982(5)
H6_3 H 0.676350 0.617520 0.053903
C12_3 C 0.7196(2) 0.5911(3) 0.1453(4)
C13_3 C 0.7238(2) 0.5558(3) 0.2131(4)
C14_3 C 0.7651(3) 0.5496(3) 0.2670(4)
C15_3 C 0.7913(3) 0.0173(3) 0.1710(5)
C16_3 C 0.8344(3) 0.0182(3) 0.2051(6)
C17_3 C 0.8463(3) 0.0539(3) 0.2660(5)
H8_3 H 0.874863 0.054994 0.287386
C18_3 C 0.8156(3) 0.0890(4) 0.2969(5)
H9_3 H 0.823321 0.111773 0.341311
C19_3 C 0.7734(2) 0.0905(3) 0.2620(5)
C20_3 C 0.7612(2) 0.0531(3) 0.1976(5)
C21_3 C 0.7157(3) 0.0500(4) 0.1585(5)
C22_3 C 0.7420(2) 0.1325(3) 0.2941(5)
C31_3 C 0.7554(2) 0.6299(3) 0.1193(4)
C32_3 C 0.3165(3) 0.3248(4) 0.1150(6)
H13_3 H 0.305580 0.350562 0.150577
C33_3 C 0.3609(3) 0.3130(5) 0.1215(6)
H14_3 H 0.378688 0.332447 0.159648
C34_3 C 0.3788(3) 0.2743(4) 0.0744(6)
C35_3 C 0.3498(3) 0.2493(4) 0.0163(6)
C36_3 C 0.3068(3) 0.2639(4) 0.0116(5)
C37_3 C 0.4250(3) 0.2591(5) 0.0825(6)
C38_3 C 0.4565(3) 0.2959(5) 0.1188(9)
H17_3 H 0.448323 0.330937 0.137461
C39_3 C 0.6873(3) 0.7217(4) 0.2271(5)
H18_3 H 0.703979 0.748229 0.202236
C40_3 C 0.6436(3) 0.7204(4) 0.2067(6)
H19_3 H 0.631867 0.746327 0.169173
C41_3 C 0.6168(2) 0.6824(4) 0.2396(5)
C42_3 C 0.6361(3) 0.6487(4) 0.3010(5)
H20_3 H 0.619516 0.624449 0.330053
C43_3 C 0.6811(3) 0.6522(4) 0.3182(5)
H21_3 H 0.693616 0.628782 0.358418
C44_3 C 0.5703(3) 0.6769(5) 0.2131(7)
C45_3 C 0.5463(4) 0.6320(7) 0.2280(10)
H22_3 H 0.559444 0.602055 0.256345
C46_3 C 0.5029(4) 0.6280(6) 0.2034(10)
H23_3 H 0.487492 0.596356 0.217038
C47_3 C 0.4827(3) 0.6693(6) 0.1600(7)
C48_3 C 0.5054(4) 0.7197(6) 0.1507(9)
H24_3 H 0.491461 0.750475 0.126011
C49_3 C 0.5500(5) 0.7237(7) 0.1792(9)
H25_3 H 0.564961 0.757314 0.174986
C50_3 C 0.8696(3) 0.7101(3) 0.3501(6)
H26_3 H 0.855028 0.738178 0.376064
C51_3 C 0.9136(3) 0.7082(4) 0.3637(6)
H27_3 H 0.927904 0.732967 0.399968
C52_3 C 0.9367(3) 0.6687(4) 0.3226(5)
C53_3 C 0.9130(3) 0.6310(4) 0.2752(6)
H28_3 H 0.927098 0.602784 0.248659
C54_3 C 0.8685(3) 0.6342(4) 0.2659(5)
H29_3 H 0.853515 0.607616 0.233597
C55_3 C 0.9851(3) 0.6676(4) 0.3321(6)
H30_3 H 0.993996 0.583176 0.337304
H32_3 H 0.993621 0.752400 0.333731
C59_3 C 0.3758(3) 0.7021(6) 0.0454(7)
H33_3 H 0.365840 0.726807 0.004617
C60_3 C 0.4203(4) 0.7018(6) 0.0717(8)
H34_3 H 0.438926 0.726577 0.048213
C61_3 C 0.4363(3) 0.6662(5) 0.1300(6)
C62_3 C 0.4065(3) 0.6314(5) 0.1634(7)
H35_3 H 0.415634 0.606315 0.204239
C63_3 C 0.3630(3) 0.6337(5) 0.1366(6)
H36_3 H 0.343907 0.610297 0.161186
C71_3 C 0.6304(3) 0.2239(4) 0.1784(5)
H42_3 H 0.648218 0.241186 0.218763
C72_3 C 0.5865(3) 0.2357(5) 0.1739(6)
H43_3 H 0.575469 0.259130 0.212452
C73_3 C 0.5593(3) 0.2134(4) 0.1140(6)
C74_3 C 0.5764(3) 0.1757(5) 0.0611(7)
H44_3 H 0.558918 0.158113 0.020669
C75_3 C 0.6207(3) 0.1647(4) 0.0702(6)
H45_3 H 0.631701 0.139024 0.034729
C76_3 C 0.5129(3) 0.2300(4) 0.1029(6)
C77_3 C 0.4821(3) 0.1920(5) 0.0705(8)
H46_3 H 0.490754 0.156314 0.055369
C78_3 C 0.4390(3) 0.2062(5) 0.0606(8)
H47_3 H 0.419024 0.180116 0.038997
C79_3 C 0.4994(3) 0.2799(6) 0.1268(9)
H48_3 H 0.519648 0.305126 0.149903
C80_3 C 0.7118(2) 0.3076(3) 0.4314(5)
N2_3 N 0.70696(19) 0.6868(3) 0.2809(4)
N3_3 N 0.8458(2) 0.6742(3) 0.3018(4)
N5_3 N 0.6487(2) 0.1883(3) 0.1262(4)
O6_3 O 0.77749(18) 0.5911(2) 0.3081(3)
O7_3 O 0.7827(2) 0.5029(2) 0.2691(3)
O8_3 O 0.69192(19) 0.4869(2) 0.2969(3)
O9_3 O 0.70966(17) 0.3488(2) 0.0676(3)
O10_3 O 0.71971(17) 0.2662(2) 0.1300(3)
O11_3 O 0.70244(19) 0.0914(2) 0.1166(4)
O12_3 O 0.6950(2) 0.0066(3) 0.1688(5)
O13_3 O 0.72354(17) 0.1677(2) 0.2494(3)
O17_3 O 0.77540(17) 0.6617(2) 0.1680(3)
C87_3 C 0.9936(3) 0.3614(4) 0.0721(6)
C88_3 C 0.9489(3) 0.3557(5) 0.0671(7)
H54_3 H 0.933810 0.366850 0.110940
C93_3 C 0.8535(3) 0.3562(4) 0.0469(6)
H57_3 H 0.865994 0.382269 0.083438
C96_3 C 0.8085(3) 0.3475(4) 0.0405(5)
H60_3 H 0.791946 0.368284 0.074302
N11_2 N 0.78575(19) 0.1776(3) 0.1182(4)
O22 O 0.78195(17) 0.7645(2) 0.2867(3)
H15_3 H 0.359629 0.222737 0.980797
H16_3 H 0.288430 0.246972 0.971805
C89_3 C 0.9263(3) 0.3341(4) 0.9995(6)
C90_3 C 0.9489(3) 0.3231(5) 0.9326(6)
H55_3 H 0.934348 0.312553 0.883815
C91_3 C 0.9938(3) 0.3279(5) 0.9385(7)
C92_3 C 0.8786(3) 0.3254(4) 0.9977(6)
C94_3 C 0.8580(3) 0.2872(4) 0.9475(6)
H58_3 H 0.873781 0.264758 0.914411
C95_3 C 0.8126(3) 0.2816(4) 0.9456(6)
H59_3 H 0.799296 0.255038 0.910887
N8_3 N 0.7885(2) 0.3121(3) 0.9903(4)
H7_3 H 0.854695 0.994096 0.185373
C23_3 C 0.7800(2) 0.9266(3) 0.1158(5)
C25_3 C 0.7823(3) 0.8353(3) 0.0560(4)
C26_3 C 0.7826(2) 0.8115(3) 0.1309(4)
H10_3 H 0.784668 0.772668 0.136129
C27_3 C 0.7799(2) 0.8443(3) 0.1988(4)
C28_3 C 0.7798(2) 0.9016(3) 0.1927(4)
H11_3 H 0.779554 0.923852 0.238965
C29_3 C 0.7792(3) 0.8941(3) 0.0474(5)
C30_3 C 0.7791(2) 0.8160(3) 0.2809(4)
O3_2 O 0.77557(17) 0.8494(2) 0.3406(3)
O18_3 O 0.7799(2) 0.9835(2) 0.1050(3)
C24_3 C 0.7844(2) 0.8000(3) 0.9815(4)
H12_3 H 0.776705 0.910473 0.996213
C8_4 C 0.3121(3) 0.0214(3) 0.2712(4)
C9_4 C 0.3509(3) 0.0243(4) 0.3164(5)
H4_4 H 0.374211 0.002583 0.302898
C10_4 C 0.3548(3) 0.0603(4) 0.3826(5)
H5_4 H 0.380769 0.062135 0.414320
C11_4 C 0.3205(3) 0.0934(3) 0.4018(5)
H6_4 H 0.323650 0.117520 0.446097
C12_4 C 0.2804(2) 0.0911(3) 0.3547(4)
C13_4 C 0.2762(2) 0.0558(3) 0.2869(4)
C14_4 C 0.2349(3) 0.0496(3) 0.2330(4)
C31_4 C 0.2446(2) 0.1299(3) 0.3807(4)
C39_4 C 0.3127(3) 0.2217(4) 0.2729(5)
H18_4 H 0.296021 0.248229 0.297764
C40_4 C 0.3564(3) 0.2204(4) 0.2933(6)
H19_4 H 0.368133 0.246327 0.330827
C41_4 C 0.3832(2) 0.1824(4) 0.2604(5)
C42_4 C 0.3639(3) 0.1487(4) 0.1990(5)
H20_4 H 0.380484 0.124449 0.169947
C43_4 C 0.3189(3) 0.1522(4) 0.1818(5)
H21_4 H 0.306384 0.128782 0.141582
C44_4 C 0.4297(3) 0.1769(5) 0.2869(7)
C45_4 C 0.4537(4) 0.1320(7) 0.2720(10)
H22_4 H 0.440556 0.102055 0.243655
C46_4 C 0.4971(4) 0.1280(6) 0.2966(10)
H23_4 H 0.512508 0.096356 0.282962
C47_4 C 0.5173(3) 0.1693(6) 0.3400(7)
C48_4 C 0.4946(4) 0.2197(6) 0.3493(9)
H24_4 H 0.508539 0.250475 0.373989
C49_4 C 0.4500(5) 0.2237(7) 0.3208(9)
H25_4 H 0.435039 0.257314 0.325014
C50_4 C 0.1304(3) 0.2101(3) 0.1499(6)
H26_4 H 0.144972 0.238178 0.123936
C51_4 C 0.0864(3) 0.2082(4) 0.1363(6)
H27_4 H 0.072096 0.232967 0.100032
C52_4 C 0.0633(3) 0.1687(4) 0.1774(5)
C53_4 C 0.0870(3) 0.1310(4) 0.2248(6)
H28_4 H 0.072902 0.102784 0.251341
C54_4 C 0.1315(3) 0.1342(4) 0.2341(5)
H29_4 H 0.146485 0.107616 0.266403
C55_4 C 0.0149(3) 0.1676(4) 0.1679(6)
H30_4 H 0.006004 0.083176 0.162696
H32_4 H 0.006379 0.252400 0.166269
C59_4 C 0.6242(3) 0.2021(6) 0.4546(7)
H33_4 H 0.634160 0.226807 0.495383
C60_4 C 0.5797(4) 0.2018(6) 0.4283(8)
H34_4 H 0.561074 0.226577 0.451787
C61_4 C 0.5637(3) 0.1662(5) 0.3700(6)
C62_4 C 0.5935(3) 0.1314(5) 0.3366(7)
H35_4 H 0.584366 0.106315 0.295761
C63_4 C 0.6370(3) 0.1337(5) 0.3634(6)
H36_4 H 0.656093 0.110297 0.338814
N2_4 N 0.29304(19) 0.1868(3) 0.2191(4)
N3_4 N 0.1542(2) 0.1742(3) 0.1982(4)
O6_4 O 0.22251(18) 0.0911(2) 0.1919(3)
O7_4 O 0.2173(2) 0.0029(2) 0.2309(3)
O17_4 O 0.22460(17) 0.1617(2) 0.3320(3)
O22_2 O 0.21805(17) 0.2645(2) 0.2133(3)
C1_4 C 0.2867(2) 0.8174(3) 0.3688(4)
C2_4 C 0.2902(2) 0.8473(3) 0.2890(4)
C3_4 C 0.2865(2) 0.8167(3) 0.2160(4)
H1_4 H 0.281353 0.778271 0.217179
C4_4 C 0.2905(2) 0.8429(3) 0.1435(4)
C5_4 C 0.2972(2) 0.8999(3) 0.1410(4)
H2_4 H 0.299233 0.917902 0.091525
C6_4 C 0.3009(2) 0.9304(3) 0.2118(4)
C7_4 C 0.2972(2) 0.9046(3) 0.2849(5)
H3_4 H 0.299401 0.925792 0.332230
C15_4 C 0.2087(3) 0.5173(3) 0.3290(5)
C16_4 C 0.1656(3) 0.5182(3) 0.2949(6)
H7_4 H 0.145305 0.494096 0.314627
C17_4 C 0.1537(3) 0.5539(3) 0.2340(5)
H8_4 H 0.125137 0.554994 0.212614
C18_4 C 0.1844(3) 0.5890(4) 0.2031(5)
H9_4 H 0.176679 0.611773 0.158689
C19_4 C 0.2266(2) 0.5905(3) 0.2380(5)
C20_4 C 0.2388(2) 0.5531(3) 0.3024(5)
C21_4 C 0.2843(3) 0.5500(4) 0.3415(5)
C22_4 C 0.2580(2) 0.6325(3) 0.2059(5)
C23_4 C 0.2200(2) 0.4266(3) 0.3842(5)
C24_4 C 0.2156(2) 0.3000(3) 0.5185(4)
C25_4 C 0.2177(3) 0.3353(3) 0.4440(4)
C26_4 C 0.2174(2) 0.3115(3) 0.3691(4)
H10_4 H 0.215332 0.272668 0.363871
C27_4 C 0.2201(2) 0.3443(3) 0.3012(4)
C28_4 C 0.2202(2) 0.4016(3) 0.3073(4)
H11_4 H 0.220446 0.423852 0.261035
C29_4 C 0.2208(3) 0.3941(3) 0.4526(5)
H12_4 H 0.223295 0.410473 0.503787
C30_4 C 0.2209(2) 0.3160(3) 0.2191(4)
C32_4 C 0.6835(3) 0.8248(4) 0.3850(6)
H13_4 H 0.694420 0.850562 0.349423
C33_4 C 0.6391(3) 0.8130(5) 0.3785(6)
H14_4 H 0.621312 0.832447 0.340352
C34_4 C 0.6212(3) 0.7743(4) 0.4256(6)
C35_4 C 0.6502(3) 0.7493(4) 0.4837(6)
H15_4 H 0.640371 0.722737 0.519203
C36_4 C 0.6932(3) 0.7639(4) 0.4884(5)
H16_4 H 0.711570 0.746972 0.528195
C37_4 C 0.5750(3) 0.7591(5) 0.4175(6)
C38_4 C 0.5435(3) 0.7959(5) 0.3812(9)
H17_4 H 0.551677 0.830937 0.362539
C71_4 C 0.3696(3) 0.7239(4) 0.3216(5)
H42_4 H 0.351782 0.741186 0.281237
C72_4 C 0.4135(3) 0.7357(5) 0.3261(6)
H43_4 H 0.424531 0.759130 0.287548
C73_4 C 0.4407(3) 0.7134(4) 0.3860(6)
C74_4 C 0.4236(3) 0.6757(5) 0.4389(7)
H44_4 H 0.441082 0.658113 0.479331
C75_4 C 0.3793(3) 0.6647(4) 0.4298(6)
H45_4 H 0.368299 0.639024 0.465271
C76_4 C 0.4871(3) 0.7300(4) 0.3971(6)
C77_4 C 0.5179(3) 0.6920(5) 0.4295(8)
H46_4 H 0.509246 0.656314 0.444631
C78_4 C 0.5610(3) 0.7062(5) 0.4394(8)
H47_4 H 0.580976 0.680116 0.461003
C79_4 C 0.5006(3) 0.7799(6) 0.3732(9)
H48_4 H 0.480352 0.805126 0.350097
C80_4 C 0.2882(2) 0.8076(3) 0.0686(5)
N1_2 N 0.7099(2) 0.8008(3) 0.4395(4)
N5_4 N 0.3513(2) 0.6883(3) 0.3738(4)
O8_4 O 0.30808(19) 0.9869(2) 0.2031(3)
O9_4 O 0.29034(17) 0.8488(2) 0.4324(3)
O10_4 O 0.28029(17) 0.7662(2) 0.3700(3)
O11_4 O 0.29756(19) 0.5914(2) 0.3834(4)
O12_4 O 0.3050(2) 0.5066(3) 0.3312(5)
O13_4 O 0.27646(17) 0.6677(2) 0.2506(3)
O18_4 O 0.2201(2) 0.4835(2) 0.3950(3)
C87_4 C 0.0064(3) 0.8614(4) 0.4279(6)
C88_4 C 0.0511(3) 0.8557(5) 0.4329(7)
H54_4 H 0.066190 0.866850 0.389060
C89_4 C 0.0737(3) 0.8341(4) 0.5005(6)
C90_4 C 0.0511(3) 0.8231(5) 0.5674(6)
H55_4 H 0.065652 0.812553 0.616185
C91_4 C 0.0062(3) 0.8279(5) 0.5615(7)
C92_4 C 0.1214(3) 0.8254(4) 0.5023(6)
C93_4 C 0.1465(3) 0.8562(4) 0.4531(6)
H57_4 H 0.134006 0.882269 0.416562
C94_4 C 0.1420(3) 0.7872(4) 0.5525(6)
H58_4 H 0.126219 0.764758 0.585589
C95_4 C 0.1874(3) 0.7816(4) 0.5544(6)
H59_4 H 0.200704 0.755038 0.589113
C96_4 C 0.1915(3) 0.8475(4) 0.4595(5)
H60_4 H 0.208054 0.868284 0.425698
N8_4 N 0.2115(2) 0.8121(3) 0.5097(4)
C56_4 C 0.9916(3) 0.1175(4) 0.1604(6)
C57_4 C 0.9459(3) 0.1189(4) 0.1491(7)
H31_4 H 0.930609 0.085283 0.145402
C58_4 C 0.9919(3) 0.2182(4) 0.1625(9)
C64_4 C 0.8069(2) 0.1394(3) 0.0764(5)
H37_4 H 0.790927 0.115033 0.041981
C65_4 C 0.8510(3) 0.1346(4) 0.0822(5)
H38_4 H 0.864280 0.107198 0.052698
C66_4 C 0.8757(2) 0.1708(4) 0.1322(5)
C67_4 C 0.8530(3) 0.2106(4) 0.1737(6)
H39_4 H 0.867907 0.236119 0.208017
C68_4 C 0.8087(3) 0.2125(3) 0.1642(6)
H40_4 H 0.794446 0.239978 0.191891
C69_4 C 0.9242(3) 0.1680(3) 0.1438(5)
C70_4 C 0.9468(3) 0.2163(4) 0.1514(8)
H41_4 H 0.931675 0.250105 0.149083
C81_4 C 0.8678(3) 0.8629(4) 0.4076(5)
H49_4 H 0.853472 0.872308 0.358095
C82_4 C 0.9119(3) 0.8639(4) 0.4134(6)
H50_4 H 0.926799 0.873778 0.368769
C83_4 C 0.9343(3) 0.8502(3) 0.4861(5)
C84_4 C 0.9098(3) 0.8379(4) 0.5510(6)
H51_4 H 0.923427 0.830309 0.601824
C85_4 C 0.8658(3) 0.8371(4) 0.5398(6)
H52_4 H 0.850205 0.827839 0.583780
C86_4 C 0.9831(3) 0.8469(4) 0.4935(6)
H53_4 H 0.992041 0.874931 0.380547
H56_4 H 0.991302 0.817597 0.605994
N7_4 N 0.8438(2) 0.8491(3) 0.4687(4)
loop_
_geom_bond_atom_site_label_1
_geom_bond_atom_site_label_2
_geom_bond_site_symmetry_1
_geom_bond_site_symmetry_2
O1 C24 1_555 1_555
O2 C24 1_555 1_555
Co8 O1 1_555 1_555
Co14 O2 1_555 1_555
C23 C28 1_555 1_555
C25 C26 1_555 1_555
C26 H10 1_555 1_555
C27 C26 1_555 1_555
C28 C27 1_555 1_555
H11 C28 1_555 1_555
C29 C23 1_555 1_555
C30 C27 1_555 1_555
O3 C30 1_555 1_555
O4 C30 1_555 1_555
Co7 O4 1_555 1_555
Co12 O3 1_555 1_555
C23 O18 1_555 1_555
C25 C29 1_555 1_555
C90 C89 1_555 1_555
H55 C90 1_555 1_555
C92 C89 1_555 1_555
C94 C92 1_555 1_555
H58 C94 1_555 1_555
C95 C94 1_555 1_555
H59 C95 1_555 1_555
N8 Co1 1_555 1_555
N10 Co1 1_555 1_555
O24 Co1 1_555 1_555
O26 Co1 1_555 1_555
C90 C91 1_555 1_555
C95 N8 1_555 1_555
C1 C2 1_555 1_555
C2 C3 1_555 1_555
C3 H1 1_555 1_555
C4 C3 1_555 1_555
C5 C4 1_555 1_555
H2 C5 1_555 1_555
C6 C5 1_555 1_555
C7 C2 1_555 1_555
H3 C7 1_555 1_555
C8 C9 1_555 1_555
C9 H4 1_555 1_555
C10 C9 1_555 1_555
H5 C10 1_555 1_555
C11 C10 1_555 1_555
H6 C11 1_555 1_555
C12 C11 1_555 1_555
C13 C8 1_555 1_555
C14 C13 1_555 1_555
C15 C16 1_555 1_555
C17 C16 1_555 1_555
H8 C17 1_555 1_555
C18 C17 1_555 1_555
H9 C18 1_555 1_555
C19 C18 1_555 1_555
C20 C15 1_555 1_555
C21 C20 1_555 1_555
C22 C19 1_555 1_555
C31 C12 1_555 1_555
C32 H13 1_555 1_555
C33 C32 1_555 1_555
H14 C33 1_555 1_555
C34 C33 1_555 1_555
C35 C34 1_555 1_555
C36 C35 1_555 1_555
C37 C34 1_555 1_555
C38 C37 1_555 1_555
H17 C38 1_555 1_555
C39 H18 1_555 1_555
C40 C39 1_555 1_555
H19 C40 1_555 1_555
C41 C40 1_555 1_555
C42 C41 1_555 1_555
H20 C42 1_555 1_555
C43 C42 1_555 1_555
H21 C43 1_555 1_555
C44 C41 1_555 1_555
C45 C44 1_555 1_555
H22 C45 1_555 1_555
C46 C45 1_555 1_555
H23 C46 1_555 1_555
C47 C46 1_555 1_555
C48 C47 1_555 1_555
H24 C48 1_555 1_555
C49 C44 1_555 1_555
H25 C49 1_555 1_555
C50 H26 1_555 1_555
C51 C50 1_555 1_555
H27 C51 1_555 1_555
C52 C51 1_555 1_555
C53 C52 1_555 1_555
H28 C53 1_555 1_555
C54 C53 1_555 1_555
H29 C54 1_555 1_555
C55 C52 1_555 1_555
C59 H33 1_555 1_555
C60 C59 1_555 1_555
H34 C60 1_555 1_555
C61 C47 1_555 1_555
C62 C61 1_555 1_555
H35 C62 1_555 1_555
C63 C62 1_555 1_555
H36 C63 1_555 1_555
C71 H42 1_555 1_555
C72 C71 1_555 1_555
H43 C72 1_555 1_555
C73 C72 1_555 1_555
C74 C73 1_555 1_555
H44 C74 1_555 1_555
C75 C74 1_555 1_555
H45 C75 1_555 1_555
C76 C73 1_555 1_555
C77 C76 1_555 1_555
H46 C77 1_555 1_555
C78 C37 1_555 1_555
H47 C78 1_555 1_555
C79 C38 1_555 1_555
H48 C79 1_555 1_555
C80 C4 1_555 1_555
Co7 N2 1_555 1_555
Co3 N5 1_555 1_555
N1 C32 1_555 1_555
N2 C39 1_555 1_555
N3 C50 1_555 1_555
N4 C59 1_555 1_555
N5 C71 1_555 1_555
O5 C31 1_555 1_555
O6 C14 1_555 1_555
O7 C14 1_555 1_555
O8 C6 1_555 1_555
O9 C1 1_555 1_555
O10 C1 1_555 1_555
O11 C21 1_555 1_555
O12 C21 1_555 1_555
O13 C22 1_555 1_555
O14 C80 1_555 1_555
O15 C80 1_555 1_555
O16 C22 1_555 1_555
O17 C31 1_555 1_555
C88 C87 1_555 1_555
H54 C88 1_555 1_555
H57 C93 1_555 1_555
C96 C93 1_555 1_555
H60 C96 1_555 1_555
Co5 N4 1_555 1_555
Co6 O14 1_555 1_555
Co10 O15 1_555 1_555
N11 Co3 1_555 1_555
O19 Co7 1_555 1_555
Co11 N1 1_555 1_555
C6 C7 1_555 1_555
C8 O8 1_555 1_555
C12 C13 1_555 1_555
C19 C20 1_555 1_555
C36 N1 1_555 1_555
C43 N2 1_555 1_555
C48 C49 1_555 1_555
C54 N3 1_555 1_555
C60 C61 1_555 1_555
C63 N4 1_555 1_555
C75 N5 1_555 1_555
C76 C79 1_555 1_555
C77 C78 1_555 1_555
Co7 N3 1_555 1_555
Co7 O6 1_555 1_555
Co7 O17 1_555 1_555
Co3 O10 1_555 1_555
Co3 O11 1_555 1_555
Co3 O13 1_555 1_555
O16 Co6 1_555 1_555
H51 C84 1_555 1_555
C85 C84 1_555 1_555
H52 C85 1_555 1_555
C57 C56 1_555 1_555
H31 C57 1_555 1_555
C64 H37 1_555 1_555
C65 C64 1_555 1_555
H38 C65 1_555 1_555
C66 C65 1_555 1_555
C67 C66 1_555 1_555
H39 C67 1_555 1_555
C68 C67 1_555 1_555
H40 C68 1_555 1_555
C69 C57 1_555 1_555
C70 C58 1_555 1_555
H41 C70 1_555 1_555
N6 C64 1_555 1_555
C81 H49 1_555 1_555
C82 C81 1_555 1_555
H50 C82 1_555 1_555
C83 C82 1_555 1_555
C86 C83 1_555 1_555
Co11 N7 1_555 1_555
N7 C81 1_555 1_555
Co9 N6 1_555 1_555
O20 Co11 1_555 1_555
O21 Co11 1_555 1_555
C66 C69 1_555 1_555
C68 N6 1_555 1_555
C69 C70 1_555 1_555
C81_2 H49_2 1_555 1_555
C82_2 C81_2 1_555 1_555
H50_2 C82_2 1_555 1_555
C83_2 C82_2 1_555 1_555
C84_2 C83_2 1_555 1_555
H51_2 C84_2 1_555 1_555
C85_2 C84_2 1_555 1_555
H52_2 C85_2 1_555 1_555
C86_2 C83_2 1_555 1_555
Co12 N7_2 1_555 1_555
N7_2 C81_2 1_555 1_555
N9 Co12 1_555 1_555
O20_2 Co12 1_555 1_555
O23_2 Co12 1_555 1_555
C85_2 N7_2 1_555 1_555
C57_2 C56_2 1_555 1_555
H31_2 C57_2 1_555 1_555
C64_2 H37_2 1_555 1_555
C65_2 C64_2 1_555 1_555
H38_2 C65_2 1_555 1_555
C66_2 C65_2 1_555 1_555
C67_2 C66_2 1_555 1_555
H39_2 C67_2 1_555 1_555
C68_2 C67_2 1_555 1_555
H40_2 C68_2 1_555 1_555
C69_2 C57_2 1_555 1_555
C70_2 C58_2 1_555 1_555
H41_2 C70_2 1_555 1_555
N11 C64_2 1_555 1_555
C66_2 C69_2 1_555 1_555
C68_2 N11 1_555 1_555
C69_2 C70_2 1_555 1_555
C1_2 C2_2 1_555 1_555
C2_2 C3_2 1_555 1_555
C3_2 H1_2 1_555 1_555
C4_2 C3_2 1_555 1_555
C5_2 C4_2 1_555 1_555
H2_2 C5_2 1_555 1_555
C6_2 C5_2 1_555 1_555
C7_2 C2_2 1_555 1_555
H3_2 C7_2 1_555 1_555
C15_2 C16_2 1_555 1_555
C16_2 H7_2 1_555 1_555
C17_2 C16_2 1_555 1_555
H8_2 C17_2 1_555 1_555
C18_2 C17_2 1_555 1_555
H9_2 C18_2 1_555 1_555
C19_2 C18_2 1_555 1_555
C20_2 C15_2 1_555 1_555
C21_2 C20_2 1_555 1_555
C22_2 C19_2 1_555 1_555
C23_2 C28_2 1_555 1_555
C24_2 C25_2 1_555 1_555
C25_2 C26_2 1_555 1_555
C26_2 H10_2 1_555 1_555
C27_2 C26_2 1_555 1_555
C28_2 C27_2 1_555 1_555
H11_2 C28_2 1_555 1_555
C29_2 C23_2 1_555 1_555
H12_2 C29_2 1_555 1_555
C30_2 C27_2 1_555 1_555
C32_2 H13_2 1_555 1_555
C33_2 C32_2 1_555 1_555
H14_2 C33_2 1_555 1_555
C34_2 C33_2 1_555 1_555
C35_2 C34_2 1_555 1_555
H15_2 C35_2 1_555 1_555
C36_2 C35_2 1_555 1_555
H16_2 C36_2 1_555 1_555
C37_2 C34_2 1_555 1_555
C38_2 C37_2 1_555 1_555
H17_2 C38_2 1_555 1_555
C71_2 H42_2 1_555 1_555
C72_2 C71_2 1_555 1_555
H43_2 C72_2 1_555 1_555
C73_2 C72_2 1_555 1_555
C74_2 C73_2 1_555 1_555
H44_2 C74_2 1_555 1_555
C75_2 C74_2 1_555 1_555
H45_2 C75_2 1_555 1_555
C76_2 C73_2 1_555 1_555
C77_2 C76_2 1_555 1_555
H46_2 C77_2 1_555 1_555
C78_2 C37_2 1_555 1_555
H47_2 C78_2 1_555 1_555
C79_2 C38_2 1_555 1_555
H48_2 C79_2 1_555 1_555
C80_2 C4_2 1_555 1_555
Co1_2 O9_2 1_555 1_555
Co9 N5_2 1_555 1_555
N9 C32_2 1_555 1_555
N5_2 C71_2 1_555 1_555
O1_2 C24_2 1_555 1_555
O2_2 C24_2 1_555 1_555
O21 C30_2 1_555 1_555
O4_2 C30_2 1_555 1_555
O8_2 C6_2 1_555 1_555
O9_2 C1_2 1_555 1_555
O10_2 C1_2 1_555 1_555
O11_2 C21_2 1_555 1_555
O12_2 C21_2 1_555 1_555
O13_2 C22_2 1_555 1_555
O14_2 C80_2 1_555 1_555
O15_2 C80_2 1_555 1_555
O16_2 C22_2 1_555 1_555
O18_2 C15_2 1_555 1_555
C88_2 C87_2 1_555 1_555
H54_2 C88_2 1_555 1_555
C89_2 C88_2 1_555 1_555
C90_2 C89_2 1_555 1_555
H55_2 C90_2 1_555 1_555
C92_2 C89_2 1_555 1_555
C93_2 C92_2 1_555 1_555
H57_2 C93_2 1_555 1_555
C94_2 C92_2 1_555 1_555
H58_2 C94_2 1_555 1_555
C95_2 C94_2 1_555 1_555
H59_2 C95_2 1_555 1_555
C96_2 C93_2 1_555 1_555
H60_2 C96_2 1_555 1_555
N8_2 Co1_2 1_555 1_555
Co5 O14_2 1_555 1_555
Co7_2 O4_2 1_555 1_555
Co8_2 O1_2 1_555 1_555
N10_2 Co1_2 1_555 1_555
O24_2 Co1_2 1_555 1_555
O25_2 Co9 1_555 1_555
O26_2 Co1_2 1_555 1_555
Co14_2 O2_2 1_555 1_555
C6_2 C7_2 1_555 1_555
C19_2 C20_2 1_555 1_555
C23_2 O18_2 1_555 1_555
C25_2 C29_2 1_555 1_555
C36_2 N9 1_555 1_555
C75_2 N5_2 1_555 1_555
C76_2 C79_2 1_555 1_555
C77_2 C78_2 1_555 1_555
Co9 O10_2 1_555 1_555
Co9 O11_2 1_555 1_555
Co9 O13_2 1_555 1_555
O16_2 Co5 1_555 1_555
C90_2 C91_2 1_555 1_555
C95_2 N8_2 1_555 1_555
C96_2 N8_2 1_555 1_555
C8_2 C9_2 1_555 1_555
C9_2 H4_2 1_555 1_555
C10_2 C9_2 1_555 1_555
H5_2 C10_2 1_555 1_555
C11_2 C10_2 1_555 1_555
H6_2 C11_2 1_555 1_555
C12_2 C11_2 1_555 1_555
C13_2 C8_2 1_555 1_555
C14_2 C13_2 1_555 1_555
C31_2 C12_2 1_555 1_555
C39_2 H18_2 1_555 1_555
C40_2 C39_2 1_555 1_555
H19_2 C40_2 1_555 1_555
C41_2 C40_2 1_555 1_555
C42_2 C41_2 1_555 1_555
H20_2 C42_2 1_555 1_555
C43_2 C42_2 1_555 1_555
H21_2 C43_2 1_555 1_555
C44_2 C41_2 1_555 1_555
C45_2 C44_2 1_555 1_555
H22_2 C45_2 1_555 1_555
C46_2 C45_2 1_555 1_555
H23_2 C46_2 1_555 1_555
C47_2 C46_2 1_555 1_555
C48_2 C47_2 1_555 1_555
H24_2 C48_2 1_555 1_555
C49_2 C44_2 1_555 1_555
H25_2 C49_2 1_555 1_555
C50_2 H26_2 1_555 1_555
C51_2 C50_2 1_555 1_555
H27_2 C51_2 1_555 1_555
C52_2 C51_2 1_555 1_555
C53_2 C52_2 1_555 1_555
H28_2 C53_2 1_555 1_555
C54_2 C53_2 1_555 1_555
H29_2 C54_2 1_555 1_555
C55_2 C52_2 1_555 1_555
C59_2 H33_2 1_555 1_555
C60_2 C59_2 1_555 1_555
H34_2 C60_2 1_555 1_555
C61_2 C47_2 1_555 1_555
C62_2 C61_2 1_555 1_555
H35_2 C62_2 1_555 1_555
C63_2 C62_2 1_555 1_555
H36_2 C63_2 1_555 1_555
Co7_2 N2_2 1_555 1_555
N2_2 C39_2 1_555 1_555
N3_2 C50_2 1_555 1_555
N4_2 C59_2 1_555 1_555
O5_2 C31_2 1_555 1_555
O6_2 C14_2 1_555 1_555
O7_2 C14_2 1_555 1_555
O17_2 C31_2 1_555 1_555
Co6 N4_2 1_555 1_555
O19_2 Co7_2 1_555 1_555
Co14_2 O5_2 1_555 1_555
C12_2 C13_2 1_555 1_555
C43_2 N2_2 1_555 1_555
C48_2 C49_2 1_555 1_555
C54_2 N3_2 1_555 1_555
C60_2 C61_2 1_555 1_555
C63_2 N4_2 1_555 1_555
Co7_2 N3_2 1_555 1_555
Co7_2 O6_2 1_555 1_555
Co7_2 O17_2 1_555 1_555
C57_3 C56_3 1_555 1_555
H31_3 C57_3 1_555 1_555
C64_3 H37_3 1_555 1_555
C65_3 C64_3 1_555 1_555
H38_3 C65_3 1_555 1_555
C66_3 C65_3 1_555 1_555
C67_3 C66_3 1_555 1_555
H39_3 C67_3 1_555 1_555
C68_3 C67_3 1_555 1_555
H40_3 C68_3 1_555 1_555
C69_3 C57_3 1_555 1_555
C70_3 C58_3 1_555 1_555
H41_3 C70_3 1_555 1_555
N6_2 C64_3 1_555 1_555
C81_3 H49_3 1_555 1_555
C82_3 C81_3 1_555 1_555
H50_3 C82_3 1_555 1_555
C83_3 C82_3 1_555 1_555
C86_3 C83_3 1_555 1_555
Co14 N7_3 1_555 1_555
N7_3 C81_3 1_555 1_555
Co10 N6_2 1_555 1_555
N9_2 Co14 1_555 1_555
O21_2 Co14 1_555 1_555
C66_3 C69_3 1_555 1_555
C68_3 N6_2 1_555 1_555
C69_3 C70_3 1_555 1_555
H51_3 C84_3 1_555 1_555
C85_3 C84_3 1_555 1_555
H52_3 C85_3 1_555 1_555
C1_3 C2_3 1_555 1_555
C2_3 C3_3 1_555 1_555
C3_3 H1_3 1_555 1_555
C4_3 C3_3 1_555 1_555
C5_3 C4_3 1_555 1_555
H2_3 C5_3 1_555 1_555
C6_3 C5_3 1_555 1_555
C7_3 C2_3 1_555 1_555
H3_3 C7_3 1_555 1_555
C8_3 C9_3 1_555 1_555
C9_3 H4_3 1_555 1_555
C10_3 C9_3 1_555 1_555
H5_3 C10_3 1_555 1_555
C11_3 C10_3 1_555 1_555
H6_3 C11_3 1_555 1_555
C12_3 C11_3 1_555 1_555
C13_3 C8_3 1_555 1_555
C14_3 C13_3 1_555 1_555
C15_3 C16_3 1_555 1_555
C17_3 C16_3 1_555 1_555
H8_3 C17_3 1_555 1_555
C18_3 C17_3 1_555 1_555
H9_3 C18_3 1_555 1_555
C19_3 C18_3 1_555 1_555
C20_3 C15_3 1_555 1_555
C21_3 C20_3 1_555 1_555
C22_3 C19_3 1_555 1_555
C31_3 C12_3 1_555 1_555
C32_3 H13_3 1_555 1_555
C33_3 C32_3 1_555 1_555
H14_3 C33_3 1_555 1_555
C34_3 C33_3 1_555 1_555
C35_3 C34_3 1_555 1_555
C36_3 C35_3 1_555 1_555
C37_3 C34_3 1_555 1_555
C38_3 C37_3 1_555 1_555
H17_3 C38_3 1_555 1_555
C39_3 H18_3 1_555 1_555
C40_3 C39_3 1_555 1_555
H19_3 C40_3 1_555 1_555
C41_3 C40_3 1_555 1_555
C42_3 C41_3 1_555 1_555
H20_3 C42_3 1_555 1_555
C43_3 C42_3 1_555 1_555
H21_3 C43_3 1_555 1_555
C44_3 C41_3 1_555 1_555
C45_3 C44_3 1_555 1_555
H22_3 C45_3 1_555 1_555
C46_3 C45_3 1_555 1_555
H23_3 C46_3 1_555 1_555
C47_3 C46_3 1_555 1_555
C48_3 C47_3 1_555 1_555
H24_3 C48_3 1_555 1_555
C49_3 C44_3 1_555 1_555
H25_3 C49_3 1_555 1_555
C50_3 H26_3 1_555 1_555
C51_3 C50_3 1_555 1_555
H27_3 C51_3 1_555 1_555
C52_3 C51_3 1_555 1_555
C53_3 C52_3 1_555 1_555
H28_3 C53_3 1_555 1_555
C54_3 C53_3 1_555 1_555
H29_3 C54_3 1_555 1_555
C55_3 C52_3 1_555 1_555
C59_3 H33_3 1_555 1_555
C60_3 C59_3 1_555 1_555
H34_3 C60_3 1_555 1_555
C61_3 C47_3 1_555 1_555
C62_3 C61_3 1_555 1_555
H35_3 C62_3 1_555 1_555
C63_3 C62_3 1_555 1_555
H36_3 C63_3 1_555 1_555
C71_3 H42_3 1_555 1_555
C72_3 C71_3 1_555 1_555
H43_3 C72_3 1_555 1_555
C73_3 C72_3 1_555 1_555
C74_3 C73_3 1_555 1_555
H44_3 C74_3 1_555 1_555
C75_3 C74_3 1_555 1_555
H45_3 C75_3 1_555 1_555
C76_3 C73_3 1_555 1_555
C77_3 C76_3 1_555 1_555
H46_3 C77_3 1_555 1_555
C78_3 C37_3 1_555 1_555
H47_3 C78_3 1_555 1_555
C79_3 C38_3 1_555 1_555
H48_3 C79_3 1_555 1_555
C80_3 C4_3 1_555 1_555
Co8_2 N2_3 1_555 1_555
Co10_2 N5_3 1_555 1_555
N9_2 C32_3 1_555 1_555
N2_3 C39_3 1_555 1_555
N3_3 C50_3 1_555 1_555
N10 C59_3 1_555 1_555
N5_3 C71_3 1_555 1_555
O23 C31_3 1_555 1_555
O6_3 C14_3 1_555 1_555
O7_3 C14_3 1_555 1_555
O8_3 C6_3 1_555 1_555
O9_3 C1_3 1_555 1_555
O10_3 C1_3 1_555 1_555
O11_3 C21_3 1_555 1_555
O12_3 C21_3 1_555 1_555
O13_3 C22_3 1_555 1_555
O24_2 C80_3 1_555 1_555
O25_2 C80_3 1_555 1_555
O26_2 C22_3 1_555 1_555
O17_3 C31_3 1_555 1_555
C88_3 C87_3 1_555 1_555
H54_3 C88_3 1_555 1_555
H57_3 C93_3 1_555 1_555
C96_3 C93_3 1_555 1_555
H60_3 C96_3 1_555 1_555
N11_2 Co10_2 1_555 1_555
O22 Co8_2 1_555 1_555
C6_3 C7_3 1_555 1_555
C8_3 O8_3 1_555 1_555
C12_3 C13_3 1_555 1_555
C19_3 C20_3 1_555 1_555
C36_3 N9_2 1_555 1_555
C43_3 N2_3 1_555 1_555
C48_3 C49_3 1_555 1_555
C54_3 N3_3 1_555 1_555
C60_3 C61_3 1_555 1_555
C63_3 N10 1_555 1_555
C75_3 N5_3 1_555 1_555
C76_3 C79_3 1_555 1_555
C77_3 C78_3 1_555 1_555
Co8_2 N3_3 1_555 1_555
Co8_2 O6_3 1_555 1_555
Co8_2 O17_3 1_555 1_555
Co10_2 O10_3 1_555 1_555
Co10_2 O11_3 1_555 1_555
Co10_2 O13_3 1_555 1_555
C90_3 C89_3 1_555 1_555
H55_3 C90_3 1_555 1_555
C92_3 C89_3 1_555 1_555
C94_3 C92_3 1_555 1_555
H58_3 C94_3 1_555 1_555
C95_3 C94_3 1_555 1_555
H59_3 C95_3 1_555 1_555
N8_3 Co5 1_555 1_555
C90_3 C91_3 1_555 1_555
C95_3 N8_3 1_555 1_555
C23_3 C28_3 1_555 1_555
C25_3 C26_3 1_555 1_555
C26_3 H10_3 1_555 1_555
C27_3 C26_3 1_555 1_555
C28_3 C27_3 1_555 1_555
H11_3 C28_3 1_555 1_555
C29_3 C23_3 1_555 1_555
C30_3 C27_3 1_555 1_555
O3_2 C30_3 1_555 1_555
O22 C30_3 1_555 1_555
Co14_2 O3_2 1_555 1_555
C23_3 O18_3 1_555 1_555
C25_3 C29_3 1_555 1_555
O19_2 C24_3 1_555 1_555
O20 C24_3 1_555 1_555
C8_4 C9_4 1_555 1_555
C9_4 H4_4 1_555 1_555
C10_4 C9_4 1_555 1_555
H5_4 C10_4 1_555 1_555
C11_4 C10_4 1_555 1_555
H6_4 C11_4 1_555 1_555
C12_4 C11_4 1_555 1_555
C13_4 C8_4 1_555 1_555
C14_4 C13_4 1_555 1_555
C31_4 C12_4 1_555 1_555
C39_4 H18_4 1_555 1_555
C40_4 C39_4 1_555 1_555
H19_4 C40_4 1_555 1_555
C41_4 C40_4 1_555 1_555
C42_4 C41_4 1_555 1_555
H20_4 C42_4 1_555 1_555
C43_4 C42_4 1_555 1_555
H21_4 C43_4 1_555 1_555
C44_4 C41_4 1_555 1_555
C45_4 C44_4 1_555 1_555
H22_4 C45_4 1_555 1_555
C46_4 C45_4 1_555 1_555
H23_4 C46_4 1_555 1_555
C47_4 C46_4 1_555 1_555
C48_4 C47_4 1_555 1_555
H24_4 C48_4 1_555 1_555
C49_4 C44_4 1_555 1_555
H25_4 C49_4 1_555 1_555
C50_4 H26_4 1_555 1_555
C51_4 C50_4 1_555 1_555
H27_4 C51_4 1_555 1_555
C52_4 C51_4 1_555 1_555
C53_4 C52_4 1_555 1_555
H28_4 C53_4 1_555 1_555
C54_4 C53_4 1_555 1_555
H29_4 C54_4 1_555 1_555
C55_4 C52_4 1_555 1_555
C59_4 H33_4 1_555 1_555
C60_4 C59_4 1_555 1_555
H34_4 C60_4 1_555 1_555
C61_4 C47_4 1_555 1_555
C62_4 C61_4 1_555 1_555
H35_4 C62_4 1_555 1_555
C63_4 C62_4 1_555 1_555
H36_4 C63_4 1_555 1_555
Co8 N2_4 1_555 1_555
N2_4 C39_4 1_555 1_555
N3_4 C50_4 1_555 1_555
N10_2 C59_4 1_555 1_555
O23_2 C31_4 1_555 1_555
O6_4 C14_4 1_555 1_555
O7_4 C14_4 1_555 1_555
O17_4 C31_4 1_555 1_555
O22_2 Co8 1_555 1_555
C12_4 C13_4 1_555 1_555
C43_4 N2_4 1_555 1_555
C48_4 C49_4 1_555 1_555
C54_4 N3_4 1_555 1_555
C60_4 C61_4 1_555 1_555
C63_4 N10_2 1_555 1_555
Co8 N3_4 1_555 1_555
Co8 O6_4 1_555 1_555
Co8 O17_4 1_555 1_555
C1_4 C2_4 1_555 1_555
C2_4 C3_4 1_555 1_555
C3_4 H1_4 1_555 1_555
C4_4 C3_4 1_555 1_555
C5_4 C4_4 1_555 1_555
H2_4 C5_4 1_555 1_555
C6_4 C5_4 1_555 1_555
C7_4 C2_4 1_555 1_555
H3_4 C7_4 1_555 1_555
C15_4 C16_4 1_555 1_555
C16_4 H7_4 1_555 1_555
C17_4 C16_4 1_555 1_555
H8_4 C17_4 1_555 1_555
C18_4 C17_4 1_555 1_555
H9_4 C18_4 1_555 1_555
C19_4 C18_4 1_555 1_555
C20_4 C15_4 1_555 1_555
C21_4 C20_4 1_555 1_555
C22_4 C19_4 1_555 1_555
C23_4 C28_4 1_555 1_555
C24_4 C25_4 1_555 1_555
C25_4 C26_4 1_555 1_555
C26_4 H10_4 1_555 1_555
C27_4 C26_4 1_555 1_555
C28_4 C27_4 1_555 1_555
H11_4 C28_4 1_555 1_555
C29_4 C23_4 1_555 1_555
H12_4 C29_4 1_555 1_555
C30_4 C27_4 1_555 1_555
C32_4 H13_4 1_555 1_555
C33_4 C32_4 1_555 1_555
H14_4 C33_4 1_555 1_555
C34_4 C33_4 1_555 1_555
C35_4 C34_4 1_555 1_555
H15_4 C35_4 1_555 1_555
C36_4 C35_4 1_555 1_555
H16_4 C36_4 1_555 1_555
C37_4 C34_4 1_555 1_555
C38_4 C37_4 1_555 1_555
H17_4 C38_4 1_555 1_555
C71_4 H42_4 1_555 1_555
C72_4 C71_4 1_555 1_555
H43_4 C72_4 1_555 1_555
C73_4 C72_4 1_555 1_555
C74_4 C73_4 1_555 1_555
H44_4 C74_4 1_555 1_555
C75_4 C74_4 1_555 1_555
H45_4 C75_4 1_555 1_555
C76_4 C73_4 1_555 1_555
C77_4 C76_4 1_555 1_555
H46_4 C77_4 1_555 1_555
C78_4 C37_4 1_555 1_555
H47_4 C78_4 1_555 1_555
C79_4 C38_4 1_555 1_555
H48_4 C79_4 1_555 1_555
C80_4 C4_4 1_555 1_555
Co6 O9_4 1_555 1_555
Co10 N5_4 1_555 1_555
N1_2 C32_4 1_555 1_555
N5_4 C71_4 1_555 1_555
O19 C24_4 1_555 1_555
O20_2 C24_4 1_555 1_555
O21_2 C30_4 1_555 1_555
O22_2 C30_4 1_555 1_555
O8_4 C6_4 1_555 1_555
O9_4 C1_4 1_555 1_555
O10_4 C1_4 1_555 1_555
O11_4 C21_4 1_555 1_555
O12_4 C21_4 1_555 1_555
O13_4 C22_4 1_555 1_555
O24 C80_4 1_555 1_555
O25 C80_4 1_555 1_555
O26 C22_4 1_555 1_555
O18_4 C15_4 1_555 1_555
C88_4 C87_4 1_555 1_555
H54_4 C88_4 1_555 1_555
C89_4 C88_4 1_555 1_555
C90_4 C89_4 1_555 1_555
H55_4 C90_4 1_555 1_555
C92_4 C89_4 1_555 1_555
C93_4 C92_4 1_555 1_555
H57_4 C93_4 1_555 1_555
C94_4 C92_4 1_555 1_555
H58_4 C94_4 1_555 1_555
C95_4 C94_4 1_555 1_555
H59_4 C95_4 1_555 1_555
C96_4 C93_4 1_555 1_555
H60_4 C96_4 1_555 1_555
N8_4 Co6 1_555 1_555
Co14_2 N1_2 1_555 1_555
C6_4 C7_4 1_555 1_555
C19_4 C20_4 1_555 1_555
C23_4 O18_4 1_555 1_555
C25_4 C29_4 1_555 1_555
C36_4 N1_2 1_555 1_555
C75_4 N5_4 1_555 1_555
C76_4 C79_4 1_555 1_555
C77_4 C78_4 1_555 1_555
Co10 O10_4 1_555 1_555
Co10 O11_4 1_555 1_555
Co10 O13_4 1_555 1_555
C90_4 C91_4 1_555 1_555
C95_4 N8_4 1_555 1_555
C96_4 N8_4 1_555 1_555
C57_4 C56_4 1_555 1_555
H31_4 C57_4 1_555 1_555
C64_4 H37_4 1_555 1_555
C65_4 C64_4 1_555 1_555
H38_4 C65_4 1_555 1_555
C66_4 C65_4 1_555 1_555
C67_4 C66_4 1_555 1_555
H39_4 C67_4 1_555 1_555
C68_4 C67_4 1_555 1_555
H40_4 C68_4 1_555 1_555
C69_4 C57_4 1_555 1_555
C70_4 C58_4 1_555 1_555
H41_4 C70_4 1_555 1_555
N11_2 C64_4 1_555 1_555
C66_4 C69_4 1_555 1_555
C68_4 N11_2 1_555 1_555
C69_4 C70_4 1_555 1_555
C81_4 H49_4 1_555 1_555
C82_4 C81_4 1_555 1_555
H50_4 C82_4 1_555 1_555
C83_4 C82_4 1_555 1_555
C84_4 C83_4 1_555 1_555
H51_4 C84_4 1_555 1_555
C85_4 C84_4 1_555 1_555
H52_4 C85_4 1_555 1_555
C86_4 C83_4 1_555 1_555
Co14_2 N7_4 1_555 1_555
N7_4 C81_4 1_555 1_555
C85_4 N7_4 1_555 1_555

#END
