
###############################################################################
#
# This file contains modified crystal structure data generated from the
# MOF subset of the Cambridge Structural Database (CSD) v543 
# hosted by the Cambridge Crystallographic Data Centre (CCDC).
#
# This work is licensed under the Creative Commons
# Attribution-NonCommercial-ShareAlike 4.0 International License.
# To view a copy of this license, visit
# http://creativecommons.org/licenses/by-nc-sa/4.0/
# or send a letter to
# Creative Commons, PO Box 1866, Mountain View, CA 94042, USA.
#
# CIF created using the CSD Python API on 29 September 2022
# The structure has been converted into the P1 space group
# The structure has a 3D framework
# The original CSD entry NADNEM is in the cubic crystal system
# The original CSD entry NADNEM is in a Sohncke space group
# The framework has been calculated to contain at least 10.0% void space
# The void calculation uses a probe of radius 1.32A, grid spacing 0.4
# The framework is charged, counterions have been retained in the structure
#
###############################################################################

data_NADNEM
_chemical_formula_moiety         '(C136 H108 Ag4 F12 N24 O12 P4 S4)n'
_symmetry_cell_setting           triclinic
_symmetry_space_group_name_H-M   'P 1'
_symmetry_Int_Tables_number      1
_space_group_name_Hall           'P 1'
loop_
_symmetry_equiv_pos_site_id
_symmetry_equiv_pos_as_xyz
1 x,y,z
_cell_length_a                   15.6597(16)
_cell_length_b                   15.6597(16)
_cell_length_c                   15.6597(16)
_cell_angle_alpha                90
_cell_angle_beta                 90
_cell_angle_gamma                90
_cell_volume                     3840.17
loop_
_atom_site_label
_atom_site_type_symbol
_atom_site_fract_x
_atom_site_fract_y
_atom_site_fract_z
C6 C 0.7034(3) 0.6007(3) 0.0108(3)
H4 H 0.6910 0.6587 0.0139
C7 C 0.7699(3) 0.5683(4) 0.0557(4)
H5 H 0.8032 0.6039 0.0897
C8 C 0.7873(3) 0.4852(4) 0.0510(3)
H6 H 0.8323 0.4631 0.0828
C13 C 0.5394(3) 0.3457(3) 0.0483(2)
H10 H 0.5695 0.3915 0.0712
C14 C 0.4892(3) 0.2966(3) 0.1007(3)
H11 H 0.4861 0.3090 0.1587
C15 C 0.4443(4) 0.2301(3) 0.0683(4)
H12 H 0.4103 0.1968 0.1039
H25 H 0.7528 0.0634 0.0356
Ag1 Ag 0.702140(13) 0.297860(13) 0.797860(13)
P1 P 0.61228(5) 0.38772(5) 0.88772(5)
N1 N 0.58526(15) 0.19451(17) 0.55729(15)
C1 C 0.5827(2) 0.13664(18) 0.48715(18)
C2 C 0.5176(2) 0.1427(2) 0.4282(2)
H1 H 0.4776 0.1864 0.4318
C3 C 0.6715(2) 0.4630(2) 0.9540(2)
C4 C 0.6543(3) 0.5483(2) 0.9606(3)
H2 H 0.6085 0.5712 0.9305
C5 C 0.7397(3) 0.4308(3) 0.9996(3)
H3 H 0.7536 0.3732 0.9960
C9 C 0.65064(19) 0.2080(2) 0.61207(19)
H7 H 0.7042 0.1830 0.6064
N2 N 0.63011(17) 0.26015(17) 0.67378(16)
C10 C 0.5465(2) 0.2818(2) 0.6576(2)
H8 H 0.5140 0.3186 0.6911
C11 C 0.5185(2) 0.2427(3) 0.5874(2)
H9 H 0.4644 0.2472 0.5634
C12 C 0.5460(2) 0.3285(2) 0.9630(2)
C16 C 0.4490(3) 0.2127(3) 0.9852(4)
C17 C 0.5004(3) 0.2603(3) 0.9308(3)
H13 H 0.5040 0.2464 0.8732
H14 H 0.4172 0.1677 0.9631
C18 C 0.5370(2) 0.4540(2) 0.8285(2)
C19 C 0.4517(2) 0.4606(3) 0.8457(3)
H15 H 0.4288 0.4305 0.8915
C20 C 0.3993(3) 0.5108(3) 0.7966(3)
H16 H 0.3413 0.5139 0.8090
C21 C 0.4317(4) 0.5557(4) 0.7301(3)
H17 H 0.3961 0.5897 0.6968
C22 C 0.5148(4) 0.5510(3) 0.7127(3)
C23 C 0.5692(3) 0.4996(3) 0.7603(3)
H18 H 0.6268 0.4960 0.7464
H19 H 0.5369 0.5828 0.6677
C24 C 0.51285(18) 0.0827(2) 0.36336(18)
N3 N 0.44271(15) 0.08526(15) 0.30549(17)
C25 C 0.38793(19) 0.15064(19) 0.2920(2)
H20 H 0.3936 0.2042 0.3170
N4 N 0.32622(16) 0.13011(17) 0.23985(17)
C26 C 0.3424(2) 0.0465(2) 0.2182(2)
H21 H 0.3089 0.0140 0.1814
C27 C 0.4126(2) 0.0185(2) 0.2573(3)
C28 C 0.5718(2) 0.0176(2) 0.3573(2)
C29 C 0.63664(18) 0.01285(18) 0.4173(2)
C33 C 0.6427(2) 0.0718(2) 0.4824(2)
H26 H 0.6864 0.0682 0.5224
N7 N 0.82622(16) 0.36989(17) 0.76015(17)
N8 N 0.73985(17) 0.17378(16) 0.86989(17)
Ag2 Ag 0.202140(13) 0.202140(13) 0.202140(13)
H22 H 0.4366 0.9644 0.2528
N5 N 0.69451(17) 0.94271(15) 0.41474(15)
C30 C 0.7080(2) 0.88793(19) 0.34936(19)
H23 H 0.6830 0.8936 0.2958
N6 N 0.76015(17) 0.82622(16) 0.36989(17)
C31 C 0.7818(2) 0.8424(2) 0.4535(2)
H24 H 0.8186 0.8089 0.4860
C32 C 0.7427(3) 0.9126(2) 0.4815(2)
H25_2 H 0.7472 0.9366 0.5356
H27 H 0.5682 0.9776 0.3136
Ag3 Ag 0.797860(13) 0.702140(13) 0.297860(13)
H1_2 H 0.0224 0.8136 0.9318
N3_2 N 0.05729(15) 0.91474(15) 0.80549(17)
C25_2 C 0.11207(19) 0.84936(19) 0.7920(2)
H20_2 H 0.1064 0.7958 0.8170
N4_2 N 0.17378(16) 0.86989(17) 0.73985(17)
C26_2 C 0.1576(2) 0.9535(2) 0.7182(2)
H21_2 H 0.1911 0.9860 0.6814
C27_2 C 0.0874(2) 0.9815(2) 0.7573(3)
Ag2_2 Ag 0.297860(13) 0.797860(13) 0.702140(13)
N5_2 N 0.80549(17) 0.05729(15) 0.91474(15)
C30_2 C 0.7920(2) 0.11207(19) 0.84936(19)
H23_2 H 0.8170 0.1064 0.7958
C31_2 C 0.7182(2) 0.1576(2) 0.9535(2)
H24_2 H 0.6814 0.1911 0.9860
C32_2 C 0.7573(3) 0.0874(2) 0.9815(2)
H27_2 H 0.9318 0.0224 0.8136
P1_2 P 0.88772(5) 0.61228(5) 0.38772(5)
N1_2 N 0.91474(15) 0.80549(17) 0.05729(15)
C3_2 C 0.8285(2) 0.5370(2) 0.4540(2)
C4_2 C 0.8457(3) 0.4517(2) 0.4606(3)
H2_2 H 0.8915 0.4288 0.4305
C5_2 C 0.7603(3) 0.5692(3) 0.4996(3)
H3_2 H 0.7464 0.6268 0.4960
C6_2 C 0.7966(3) 0.3993(3) 0.5108(3)
H4_2 H 0.8090 0.3413 0.5139
C7_2 C 0.7301(3) 0.4317(4) 0.5557(4)
H5_2 H 0.6968 0.3961 0.5897
C8_2 C 0.7127(3) 0.5148(4) 0.5510(3)
H6_2 H 0.6677 0.5369 0.5828
C9_2 C 0.84936(19) 0.7920(2) 0.11207(19)
H7_2 H 0.7958 0.8170 0.1064
N2_2 N 0.86989(17) 0.73985(17) 0.17378(16)
C10_2 C 0.9535(2) 0.7182(2) 0.1576(2)
H8_2 H 0.9860 0.6814 0.1911
C11_2 C 0.9815(2) 0.7573(3) 0.0874(2)
C12_2 C 0.9540(2) 0.6715(2) 0.4630(2)
C13_2 C 0.9606(3) 0.6543(3) 0.5483(2)
H10_2 H 0.9305 0.6085 0.5712
C17_2 C 0.9996(3) 0.7397(3) 0.4308(3)
H13_2 H 0.9960 0.7536 0.3732
C18_2 C 0.9630(2) 0.5460(2) 0.3285(2)
C22_2 C 0.9852(4) 0.4490(3) 0.2127(3)
C23_2 C 0.9308(3) 0.5004(3) 0.2603(3)
H18_2 H 0.8732 0.5040 0.2464
H19_2 H 0.9631 0.4172 0.1677
H26_2 H 0.8136 0.9318 0.0224
N7_2 N 0.67378(16) 0.63011(17) 0.26015(17)
C1_2 C 0.4173(2) 0.63664(18) 0.01285(18)
C2_2 C 0.4824(2) 0.6427(2) 0.0718(2)
H1_3 H 0.5224 0.6864 0.0682
C24_2 C 0.48715(18) 0.5827(2) 0.13664(18)
N3_3 N 0.55729(15) 0.58526(15) 0.19451(17)
C25_3 C 0.61207(19) 0.65064(19) 0.2080(2)
H20_3 H 0.6064 0.7042 0.1830
C26_3 C 0.6576(2) 0.5465(2) 0.2818(2)
H21_3 H 0.6911 0.5140 0.3186
C27_3 C 0.5874(2) 0.5185(2) 0.2427(3)
H22_2 H 0.5634 0.4644 0.2472
C28_2 C 0.4282(2) 0.5176(2) 0.1427(2)
C29_2 C 0.36336(18) 0.51285(18) 0.0827(2)
N5_3 N 0.30549(17) 0.44271(15) 0.08526(15)
C30_3 C 0.2920(2) 0.38793(19) 0.15064(19)
H23_3 H 0.3170 0.3936 0.2042
N6_2 N 0.23985(17) 0.32622(16) 0.13011(17)
C31_3 C 0.2182(2) 0.3424(2) 0.0465(2)
H24_3 H 0.1814 0.3089 0.0140
C32_3 C 0.2573(3) 0.4126(2) 0.0185(2)
C33_2 C 0.3573(2) 0.5718(2) 0.0176(2)
H27_3 H 0.4318 0.4776 0.1864
P1_3 P 0.38772(5) 0.88772(5) 0.61228(5)
N1_3 N 0.41474(15) 0.69451(17) 0.94271(15)
C3_3 C 0.3285(2) 0.9630(2) 0.5460(2)
C5_3 C 0.2603(3) 0.9308(3) 0.5004(3)
H3_3 H 0.2464 0.8732 0.5040
C8_3 C 0.2127(3) 0.9852(4) 0.4490(3)
H6_3 H 0.1677 0.9631 0.4172
C9_3 C 0.34936(19) 0.7080(2) 0.88793(19)
H7_3 H 0.2958 0.6830 0.8936
N2_3 N 0.36989(17) 0.76015(17) 0.82622(16)
C10_3 C 0.4535(2) 0.7818(2) 0.8424(2)
H8_3 H 0.4860 0.8186 0.8089
C11_3 C 0.4815(2) 0.7427(3) 0.9126(2)
H9_2 H 0.5356 0.7472 0.9366
C12_3 C 0.4540(2) 0.8285(2) 0.5370(2)
C13_3 C 0.4606(3) 0.8457(3) 0.4517(2)
H10_3 H 0.4305 0.8915 0.4288
C14_2 C 0.5108(3) 0.7966(3) 0.3993(3)
H11_2 H 0.5139 0.8090 0.3413
C15_2 C 0.5557(4) 0.7301(3) 0.4317(4)
H12_2 H 0.5897 0.6968 0.3961
C16_2 C 0.5510(3) 0.7127(3) 0.5148(4)
C17_3 C 0.4996(3) 0.7603(3) 0.5692(3)
H13_3 H 0.4960 0.7464 0.6268
H14_2 H 0.5828 0.6677 0.5369
C18_3 C 0.4630(2) 0.9540(2) 0.6715(2)
C19_2 C 0.5483(2) 0.9606(3) 0.6543(3)
H15_2 H 0.5712 0.9305 0.6085
C23_3 C 0.4308(3) 0.9996(3) 0.7397(3)
H18_3 H 0.3732 0.9960 0.7536
H25_3 H 0.2528 0.4366 0.9644
H26_3 H 0.3136 0.5682 0.9776
N8_2 N 0.26015(17) 0.67378(16) 0.63011(17)
P1_4 P 0.11228(5) 0.11228(5) 0.11228(5)
N1_4 N 0.08526(15) 0.30549(17) 0.44271(15)
C1_3 C 0.0827(2) 0.36336(18) 0.51285(18)
C2_3 C 0.0176(2) 0.3573(2) 0.5718(2)
C3_4 C 0.1715(2) 0.0370(2) 0.0460(2)
C5_4 C 0.2397(3) 0.0692(3) 0.0004(3)
H3_4 H 0.2536 0.1268 0.0040
C9_4 C 0.15064(19) 0.2920(2) 0.38793(19)
H7_4 H 0.2042 0.3170 0.3936
N2_4 N 0.13011(17) 0.23985(17) 0.32622(16)
C10_4 C 0.0465(2) 0.2182(2) 0.3424(2)
H8_4 H 0.0140 0.1814 0.3089
C11_4 C 0.0185(2) 0.2573(3) 0.4126(2)
C12_4 C 0.0460(2) 0.1715(2) 0.0370(2)
C17_4 C 0.0004(3) 0.2397(3) 0.0692(3)
H13_4 H 0.0040 0.2536 0.1268
C18_4 C 0.0370(2) 0.0460(2) 0.1715(2)
C23_4 C 0.0692(3) 0.0004(3) 0.2397(3)
H18_4 H 0.1268 0.0040 0.2536
C24_3 C 0.01285(18) 0.4173(2) 0.63664(18)
C28_3 C 0.0718(2) 0.4824(2) 0.6427(2)
C29_3 C 0.13664(18) 0.48715(18) 0.5827(2)
N5_4 N 0.19451(17) 0.55729(15) 0.58526(15)
C30_4 C 0.2080(2) 0.61207(19) 0.65064(19)
H23_4 H 0.1830 0.6064 0.7042
C31_4 C 0.2818(2) 0.6576(2) 0.5465(2)
H24_4 H 0.3186 0.6911 0.5140
C32_4 C 0.2427(3) 0.5874(2) 0.5185(2)
H25_4 H 0.2472 0.5634 0.4644
C33_3 C 0.1427(2) 0.4282(2) 0.5176(2)
H26_4 H 0.1864 0.4318 0.4776
H27_4 H 0.0682 0.5224 0.6864
C8_4 C 0.2873(3) 0.0148(4) 0.9490(3)
H6_4 H 0.3323 0.0369 0.9172
C13_4 C 0.0394(3) 0.1543(3) 0.9517(2)
H10_4 H 0.0695 0.1085 0.9288
C4_3 C 0.1543(3) 0.9517(2) 0.0394(3)
H2_3 H 0.1085 0.9288 0.0695
C22_3 C 0.0148(4) 0.9490(3) 0.2873(3)
H19_3 H 0.0369 0.9172 0.3323
H1_4 H 0.9776 0.3136 0.5682
H9_3 H 0.9644 0.2528 0.4366
C16_3 C 0.9490(3) 0.2873(3) 0.0148(4)
H14_3 H 0.9172 0.3323 0.0369
C19_3 C 0.9517(2) 0.0394(3) 0.1543(3)
H15_3 H 0.9288 0.0695 0.1085
N3_4 N 0.94271(15) 0.41474(15) 0.69451(17)
C25_4 C 0.88793(19) 0.34936(19) 0.7080(2)
H20_4 H 0.8936 0.2958 0.6830
C26_4 C 0.8424(2) 0.4535(2) 0.7818(2)
H21_4 H 0.8089 0.4860 0.8186
C27_4 C 0.9126(2) 0.4815(2) 0.7427(3)
H22_3 H 0.9366 0.5356 0.7472
H22_4 H 0.0634 0.0356 0.7528
C4_4 C 0.3457(3) 0.0483(2) 0.5394(3)
H2_4 H 0.3915 0.0712 0.5695
C6_3 C 0.2966(3) 0.1007(3) 0.4892(3)
H4_3 H 0.3090 0.1587 0.4861
C7_3 C 0.2301(3) 0.0683(4) 0.4443(4)
H5_3 H 0.1968 0.1039 0.4103
C20_2 C 0.6007(3) 0.0108(3) 0.7034(3)
H16_2 H 0.6587 0.0139 0.6910
C21_2 C 0.5683(4) 0.0557(4) 0.7699(3)
H17_2 H 0.6039 0.0897 0.8032
C22_4 C 0.4852(4) 0.0510(3) 0.7873(3)
H19_4 H 0.4631 0.0828 0.8323
H9_4 H 0.0356 0.7528 0.0634
C14_3 C 0.0108(3) 0.7034(3) 0.6007(3)
H11_3 H 0.0139 0.6910 0.6587
C15_3 C 0.0557(4) 0.7699(3) 0.5683(4)
H12_3 H 0.0897 0.8032 0.6039
C16_4 C 0.0510(3) 0.7873(3) 0.4852(4)
H14_4 H 0.0828 0.8323 0.4631
C19_4 C 0.0483(2) 0.5394(3) 0.3457(3)
H15_4 H 0.0712 0.5695 0.3915
C20_3 C 0.1007(3) 0.4892(3) 0.2966(3)
H16_3 H 0.1587 0.4861 0.3090
C21_3 C 0.0683(4) 0.4443(4) 0.2301(3)
H17_3 H 0.1039 0.4103 0.1968
C1_4 C 0.9173(2) 0.86336(18) 0.98715(18)
C2_4 C 0.9824(2) 0.8573(2) 0.9282(2)
C24_4 C 0.98715(18) 0.9173(2) 0.86336(18)
C28_4 C 0.9282(2) 0.9824(2) 0.8573(2)
C29_4 C 0.86336(18) 0.98715(18) 0.9173(2)
C33_4 C 0.8573(2) 0.9282(2) 0.9824(2)
C6_4 C 0.2034(3) 0.8993(3) 0.9892(3)
H4_4 H 0.1910 0.8413 0.9861
C7_4 C 0.2699(3) 0.9317(4) 0.9443(4)
H5_4 H 0.3032 0.8961 0.9103
C14_4 C 0.9892(3) 0.2034(3) 0.8993(3)
H11_4 H 0.9861 0.1910 0.8413
C15_4 C 0.9443(4) 0.2699(3) 0.9317(4)
H12_4 H 0.9103 0.3032 0.8961
C20_4 C 0.8993(3) 0.9892(3) 0.2034(3)
H16_4 H 0.8413 0.9861 0.1910
C21_4 C 0.9317(4) 0.9443(4) 0.2699(3)
H17_4 H 0.8961 0.9103 0.3032
F1 F 0.0290(2) 0.0798(3) 0.5380(3)
S1 S 0.88665(5) 0.11335(5) 0.61335(5)
O1 O 0.81073(16) 0.06441(16) 0.62554(17)
C34 C 0.9527(3) 0.0473(3) 0.5473(3)
O2 O 0.87446(17) 0.18927(16) 0.56441(16)
O3 O 0.93559(16) 0.12554(17) 0.68927(16)
F2 F 0.9202(3) 0.0380(3) 0.4710(2)
F3 F 0.9620(3) 0.9710(2) 0.5798(3)
F3_2 F 0.5380(3) 0.0290(2) 0.0798(3)
S1_2 S 0.61335(5) 0.88665(5) 0.11335(5)
O1_2 O 0.68927(16) 0.93559(16) 0.12554(17)
F1_2 F 0.4710(2) 0.9202(3) 0.0380(3)
C34_2 C 0.5473(3) 0.9527(3) 0.0473(3)
O2_2 O 0.62554(17) 0.81073(16) 0.06441(16)
O3_2 O 0.56441(16) 0.87446(17) 0.18927(16)
F2_2 F 0.5798(3) 0.9620(3) 0.9710(2)
F2_3 F 0.0798(3) 0.5380(3) 0.0290(2)
S1_3 S 0.11335(5) 0.61335(5) 0.88665(5)
O1_3 O 0.18927(16) 0.56441(16) 0.87446(17)
C34_3 C 0.0473(3) 0.5473(3) 0.9527(3)
O2_3 O 0.12554(17) 0.68927(16) 0.93559(16)
O3_3 O 0.06441(16) 0.62554(17) 0.81073(16)
F3_3 F 0.0380(3) 0.4710(2) 0.9202(3)
F1_3 F 0.9710(2) 0.5798(3) 0.9620(3)
S1_4 S 0.38665(5) 0.38665(5) 0.38665(5)
O1_4 O 0.31073(16) 0.43559(16) 0.37446(17)
F1_4 F 0.5290(2) 0.4202(3) 0.4620(3)
C34_4 C 0.4527(3) 0.4527(3) 0.4527(3)
O2_4 O 0.37446(17) 0.31073(16) 0.43559(16)
O3_4 O 0.43559(16) 0.37446(17) 0.31073(16)
F2_4 F 0.4202(3) 0.4620(3) 0.5290(2)
F3_4 F 0.4620(3) 0.5290(2) 0.4202(3)
loop_
_geom_bond_atom_site_label_1
_geom_bond_atom_site_label_2
_geom_bond_site_symmetry_1
_geom_bond_site_symmetry_2
H4 C6 1_555 1_555
C7 C6 1_555 1_555
H5 C7 1_555 1_555
H6 C8 1_555 1_555
H10 C13 1_555 1_555
C14 C13 1_555 1_555
H11 C14 1_555 1_555
C15 C14 1_555 1_555
H12 C15 1_555 1_555
C7 C8 1_555 1_555
Ag1 P1 1_555 1_555
P1 C3 1_555 1_555
N1 C1 1_555 1_555
C1 C2 1_555 1_555
C2 H1 1_555 1_555
C3 C4 1_555 1_555
C4 H2 1_555 1_555
C5 C3 1_555 1_555
H3 C5 1_555 1_555
C9 N1 1_555 1_555
H7 C9 1_555 1_555
N2 Ag1 1_555 1_555
C10 N2 1_555 1_555
H8 C10 1_555 1_555
C11 N1 1_555 1_555
H9 C11 1_555 1_555
C12 P1 1_555 1_555
C17 C12 1_555 1_555
H13 C17 1_555 1_555
H14 C16 1_555 1_555
C18 P1 1_555 1_555
C19 C18 1_555 1_555
H15 C19 1_555 1_555
C20 C19 1_555 1_555
H16 C20 1_555 1_555
C21 C20 1_555 1_555
H17 C21 1_555 1_555
C22 C21 1_555 1_555
C23 C18 1_555 1_555
H18 C23 1_555 1_555
H19 C22 1_555 1_555
C24 C2 1_555 1_555
N3 C24 1_555 1_555
C25 N3 1_555 1_555
H20 C25 1_555 1_555
N4 C25 1_555 1_555
C26 N4 1_555 1_555
H21 C26 1_555 1_555
C27 N3 1_555 1_555
C28 C24 1_555 1_555
C29 C28 1_555 1_555
C33 C1 1_555 1_555
H26 C33 1_555 1_555
N7 Ag1 1_555 1_555
N8 Ag1 1_555 1_555
Ag2 N4 1_555 1_555
C9 N2 1_555 1_555
C10 C11 1_555 1_555
C16 C17 1_555 1_555
C22 C23 1_555 1_555
C26 C27 1_555 1_555
C29 C33 1_555 1_555
C30 N5 1_555 1_555
H23 C30 1_555 1_555
N6 C30 1_555 1_555
C31 N6 1_555 1_555
H24 C31 1_555 1_555
C32 N5 1_555 1_555
H25_2 C32 1_555 1_555
Ag3 N6 1_555 1_555
C31 C32 1_555 1_555
C25_2 N3_2 1_555 1_555
H20_2 C25_2 1_555 1_555
N4_2 C25_2 1_555 1_555
C26_2 N4_2 1_555 1_555
H21_2 C26_2 1_555 1_555
C27_2 N3_2 1_555 1_555
Ag2_2 N4_2 1_555 1_555
C26_2 C27_2 1_555 1_555
C30_2 N5_2 1_555 1_555
H23_2 C30_2 1_555 1_555
N8 C30_2 1_555 1_555
C31_2 N8 1_555 1_555
H24_2 C31_2 1_555 1_555
C32_2 N5_2 1_555 1_555
C31_2 C32_2 1_555 1_555
Ag3 P1_2 1_555 1_555
P1_2 C3_2 1_555 1_555
C3_2 C4_2 1_555 1_555
C4_2 H2_2 1_555 1_555
C5_2 C3_2 1_555 1_555
H3_2 C5_2 1_555 1_555
C6_2 C4_2 1_555 1_555
H4_2 C6_2 1_555 1_555
C7_2 C6_2 1_555 1_555
H5_2 C7_2 1_555 1_555
C8_2 C5_2 1_555 1_555
H6_2 C8_2 1_555 1_555
C9_2 N1_2 1_555 1_555
H7_2 C9_2 1_555 1_555
N2_2 Ag3 1_555 1_555
C10_2 N2_2 1_555 1_555
H8_2 C10_2 1_555 1_555
C11_2 N1_2 1_555 1_555
C12_2 P1_2 1_555 1_555
C13_2 C12_2 1_555 1_555
H10_2 C13_2 1_555 1_555
C17_2 C12_2 1_555 1_555
H13_2 C17_2 1_555 1_555
C18_2 P1_2 1_555 1_555
C23_2 C18_2 1_555 1_555
H18_2 C23_2 1_555 1_555
H19_2 C22_2 1_555 1_555
N7_2 Ag3 1_555 1_555
C7_2 C8_2 1_555 1_555
C9_2 N2_2 1_555 1_555
C10_2 C11_2 1_555 1_555
C22_2 C23_2 1_555 1_555
C1_2 C2_2 1_555 1_555
C2_2 H1_3 1_555 1_555
C24_2 C2_2 1_555 1_555
N3_3 C24_2 1_555 1_555
C25_3 N3_3 1_555 1_555
H20_3 C25_3 1_555 1_555
N7_2 C25_3 1_555 1_555
C26_3 N7_2 1_555 1_555
H21_3 C26_3 1_555 1_555
C27_3 N3_3 1_555 1_555
H22_2 C27_3 1_555 1_555
C28_2 C24_2 1_555 1_555
C29_2 C28_2 1_555 1_555
N5_3 C29_2 1_555 1_555
C30_3 N5_3 1_555 1_555
H23_3 C30_3 1_555 1_555
N6_2 C30_3 1_555 1_555
C31_3 N6_2 1_555 1_555
H24_3 C31_3 1_555 1_555
C32_3 N5_3 1_555 1_555
C33_2 C1_2 1_555 1_555
H27_3 C28_2 1_555 1_555
Ag2 N6_2 1_555 1_555
C26_3 C27_3 1_555 1_555
C29_2 C33_2 1_555 1_555
C31_3 C32_3 1_555 1_555
Ag2_2 P1_3 1_555 1_555
P1_3 C3_3 1_555 1_555
C5_3 C3_3 1_555 1_555
H3_3 C5_3 1_555 1_555
C8_3 C5_3 1_555 1_555
H6_3 C8_3 1_555 1_555
C9_3 N1_3 1_555 1_555
H7_3 C9_3 1_555 1_555
N2_3 Ag2_2 1_555 1_555
C10_3 N2_3 1_555 1_555
H8_3 C10_3 1_555 1_555
C11_3 N1_3 1_555 1_555
H9_2 C11_3 1_555 1_555
C12_3 P1_3 1_555 1_555
C13_3 C12_3 1_555 1_555
H10_3 C13_3 1_555 1_555
C14_2 C13_3 1_555 1_555
H11_2 C14_2 1_555 1_555
C15_2 C14_2 1_555 1_555
H12_2 C15_2 1_555 1_555
C16_2 C15_2 1_555 1_555
C17_3 C12_3 1_555 1_555
H13_3 C17_3 1_555 1_555
H14_2 C16_2 1_555 1_555
C18_3 P1_3 1_555 1_555
C19_2 C18_3 1_555 1_555
H15_2 C19_2 1_555 1_555
C23_3 C18_3 1_555 1_555
H18_3 C23_3 1_555 1_555
N8_2 Ag2_2 1_555 1_555
C9_3 N2_3 1_555 1_555
C10_3 C11_3 1_555 1_555
C16_2 C17_3 1_555 1_555
Ag2 P1_4 1_555 1_555
P1_4 C3_4 1_555 1_555
N1_4 C1_3 1_555 1_555
C1_3 C2_3 1_555 1_555
C5_4 C3_4 1_555 1_555
H3_4 C5_4 1_555 1_555
C9_4 N1_4 1_555 1_555
H7_4 C9_4 1_555 1_555
N2_4 Ag2 1_555 1_555
C10_4 N2_4 1_555 1_555
H8_4 C10_4 1_555 1_555
C11_4 N1_4 1_555 1_555
C12_4 P1_4 1_555 1_555
C17_4 C12_4 1_555 1_555
H13_4 C17_4 1_555 1_555
C18_4 P1_4 1_555 1_555
C23_4 C18_4 1_555 1_555
H18_4 C23_4 1_555 1_555
C24_3 C2_3 1_555 1_555
C28_3 C24_3 1_555 1_555
C29_3 C28_3 1_555 1_555
N5_4 C29_3 1_555 1_555
C30_4 N5_4 1_555 1_555
H23_4 C30_4 1_555 1_555
N8_2 C30_4 1_555 1_555
C31_4 N8_2 1_555 1_555
H24_4 C31_4 1_555 1_555
C32_4 N5_4 1_555 1_555
H25_4 C32_4 1_555 1_555
C33_3 C1_3 1_555 1_555
H26_4 C33_3 1_555 1_555
H27_4 C28_3 1_555 1_555
C9_4 N2_4 1_555 1_555
C10_4 C11_4 1_555 1_555
C29_3 C33_3 1_555 1_555
C31_4 C32_4 1_555 1_555
H6_4 C8_4 1_555 1_555
H10_4 C13_4 1_555 1_555
C4_3 H2_3 1_555 1_555
H19_3 C22_3 1_555 1_555
H14_3 C16_3 1_555 1_555
H15_3 C19_3 1_555 1_555
C25_4 N3_4 1_555 1_555
H20_4 C25_4 1_555 1_555
N7 C25_4 1_555 1_555
C26_4 N7 1_555 1_555
H21_4 C26_4 1_555 1_555
C27_4 N3_4 1_555 1_555
H22_3 C27_4 1_555 1_555
C26_4 C27_4 1_555 1_555
C4_4 H2_4 1_555 1_555
C6_3 C4_4 1_555 1_555
H4_3 C6_3 1_555 1_555
C7_3 C6_3 1_555 1_555
H5_3 C7_3 1_555 1_555
H16_2 C20_2 1_555 1_555
C21_2 C20_2 1_555 1_555
H17_2 C21_2 1_555 1_555
C22_4 C21_2 1_555 1_555
H19_4 C22_4 1_555 1_555
H11_3 C14_3 1_555 1_555
C15_3 C14_3 1_555 1_555
H12_3 C15_3 1_555 1_555
C16_4 C15_3 1_555 1_555
H14_4 C16_4 1_555 1_555
H15_4 C19_4 1_555 1_555
C20_3 C19_4 1_555 1_555
H16_3 C20_3 1_555 1_555
C21_3 C20_3 1_555 1_555
H17_3 C21_3 1_555 1_555
C1_4 C2_4 1_555 1_555
C24_4 C2_4 1_555 1_555
C28_4 C24_4 1_555 1_555
C29_4 C28_4 1_555 1_555
C33_4 C1_4 1_555 1_555
C29_4 C33_4 1_555 1_555
H4_4 C6_4 1_555 1_555
C7_4 C6_4 1_555 1_555
H5_4 C7_4 1_555 1_555
H11_4 C14_4 1_555 1_555
C15_4 C14_4 1_555 1_555
H12_4 C15_4 1_555 1_555
H16_4 C20_4 1_555 1_555
C21_4 C20_4 1_555 1_555
H17_4 C21_4 1_555 1_555
S1 O1 1_555 1_555
C34 S1 1_555 1_555
O2 S1 1_555 1_555
O3 S1 1_555 1_555
F2 C34 1_555 1_555
S1_2 O1_2 1_555 1_555
F1_2 C34_2 1_555 1_555
C34_2 S1_2 1_555 1_555
O2_2 S1_2 1_555 1_555
O3_2 S1_2 1_555 1_555
S1_3 O1_3 1_555 1_555
C34_3 S1_3 1_555 1_555
O2_3 S1_3 1_555 1_555
O3_3 S1_3 1_555 1_555
F3_3 C34_3 1_555 1_555
S1_4 O1_4 1_555 1_555
F1_4 C34_4 1_555 1_555
C34_4 S1_4 1_555 1_555
O2_4 S1_4 1_555 1_555
O3_4 S1_4 1_555 1_555
F2_4 C34_4 1_555 1_555
F3_4 C34_4 1_555 1_555

#END
