
###############################################################################
#
# This file contains modified crystal structure data generated from the
# MOF subset of the Cambridge Structural Database (CSD) v543 
# hosted by the Cambridge Crystallographic Data Centre (CCDC).
#
# This work is licensed under the Creative Commons
# Attribution-NonCommercial-ShareAlike 4.0 International License.
# To view a copy of this license, visit
# http://creativecommons.org/licenses/by-nc-sa/4.0/
# or send a letter to
# Creative Commons, PO Box 1866, Mountain View, CA 94042, USA.
#
# CIF created using the CSD Python API on 29 September 2022
# The structure has been converted into the P1 space group
# The structure has a 3D framework
# The original CSD entry NADZID is in the monoclinic crystal system
# The framework has been calculated to contain at least 10.0% void space
# The void calculation uses a probe of radius 1.32A, grid spacing 0.4
# H atom positions have been added when not included in the experimental data
#
###############################################################################

data_NADZID
_chemical_formula_moiety         '(C36 H20 O28 Y6)n'
_symmetry_cell_setting           triclinic
_symmetry_space_group_name_H-M   'P 1'
_symmetry_Int_Tables_number      1
_space_group_name_Hall           'P 1'
loop_
_symmetry_equiv_pos_site_id
_symmetry_equiv_pos_as_xyz
1 x,y,z
_cell_length_a                   8.8326(18)
_cell_length_b                   10.159(2)
_cell_length_c                   13.979(3)
_cell_angle_alpha                90
_cell_angle_beta                 90.00(3)
_cell_angle_gamma                90
_cell_volume                     1254.34
loop_
_atom_site_label
_atom_site_type_symbol
_atom_site_fract_x
_atom_site_fract_y
_atom_site_fract_z
Y1 Y 0.25011(11) 0.50007(12) 0.11321(7)
O1 O 0.0273(9) 0.3975(10) 0.1063(6)
O2 O 0.258(5) 0.500(4) 0.278(3)
O4 O 0.0273(9) 0.1012(9) 0.3935(6)
Y3 Y 0.24989(11) 0.00007(12) 0.38679(7)
O8 O 0.3343(18) 0.3255(16) 0.1918(11)
O9 O 0.4727(9) 0.6012(9) 0.1065(6)
O12 O 0.1645(17) 0.6748(15) 0.1922(11)
H4 H 0.255338 0.407893 0.301719
H5 H 0.352724 0.54318 0.299888
O10 O 0.1740(10) 0.6220(10) 0.9861(6)
O11 O 0.3260(10) 0.3779(10) 0.9857(7)
Y3_2 Y 0.24989(11) 1.00007(12) 0.38679(7)
C1 C 0.8939(12) 0.3637(12) 0.0921(9)
C2 C 0.8088(13) 0.3041(12) 0.1733(8)
C3 C 0.6509(14) 0.3048(14) 0.1730(10)
H1 H 0.5979 0.3432 0.1228
C4 C 0.5735(14) 0.2467(15) 0.2496(11)
C5 C 0.8939(13) 0.1342(12) 0.4086(8)
C6 C 0.8076(12) 0.1968(12) 0.3262(9)
C7 C 0.8866(13) 0.2504(13) 0.2490(9)
H2 H 0.9919 0.2497 0.2488
C8 C 0.6502(14) 0.1938(13) 0.3268(10)
H3 H 0.5977 0.1572 0.3779
C9 C 0.402(2) 0.241(2) 0.2442(14)
O5 O 0.8260(10) 0.3780(10) 0.0139(6)
O6 O 0.8260(10) 0.1221(10) 0.4857(7)
O7 O 0.3355(17) 0.1748(15) 0.3078(11)
Y5 Y 0.75011(11) -0.00007(12) 0.61321(7)
Y4 Y 0.74989(11) 0.49993(12) 0.88679(7)
Y5_2 Y 0.75011(11) 0.99993(12) 0.61321(7)
C9_2 C 0.098(2) 0.741(2) 0.2558(14)
O3 O 0.1657(18) 0.8255(16) 0.3082(11)
O2_2 O 0.242(5) -0.000(4) 0.222(3)
O10_2 O 0.3260(10) 0.1220(10) 0.5139(6)
H5_2 H 0.147276 0.0431797 0.200112
C1_2 C 0.6061(12) 0.8637(12) 0.4079(9)
C2_2 C 0.6912(13) 0.8041(12) 0.3267(8)
C3_2 C 0.8491(14) 0.8048(14) 0.3270(10)
H1_2 H 0.9021 0.8432 0.3772
C4_2 C 0.9265(14) 0.7467(15) 0.2504(11)
C5_2 C 0.6061(13) 0.6342(12) 0.0914(8)
C6_2 C 0.6924(12) 0.6968(12) 0.1738(9)
C7_2 C 0.6134(13) 0.7504(13) 0.2510(9)
H2_2 H 0.5081 0.7497 0.2512
C8_2 C 0.8498(14) 0.6938(13) 0.1732(10)
H3_2 H 0.9023 0.6572 0.1221
O1_2 O 0.4727(9) 0.8975(10) 0.3937(6)
O2_3 O 0.242(5) 1.000(4) 0.222(3)
O5_2 O 0.6740(10) 0.8780(10) 0.4861(6)
O6_2 O 0.6740(10) 0.6221(10) 0.0143(7)
O11_2 O 0.1740(10) 0.8779(10) 0.5143(7)
H4_2 H 0.244662 0.907893 0.198281
C1_3 C 0.1061(12) 0.6363(12) 0.9079(9)
C2_3 C 0.1912(13) 0.6959(12) 0.8267(8)
C3_3 C 0.3491(14) 0.6952(14) 0.8270(10)
H1_3 H 0.4021 0.6568 0.8772
C4_3 C 0.4265(14) 0.7533(15) 0.7504(11)
C5_3 C 0.1061(13) 0.8658(12) 0.5914(8)
C6_3 C 0.1924(12) 0.8032(12) 0.6738(9)
C7_3 C 0.1134(13) 0.7496(13) 0.7510(9)
H2_3 H 0.0081 0.7503 0.7512
C8_3 C 0.3498(14) 0.8062(13) 0.6732(10)
H3_3 H 0.4023 0.8428 0.6221
C9_3 C 0.598(2) 0.759(2) 0.7558(14)
O3_2 O 0.6657(18) 0.6745(16) 0.8082(11)
O7_2 O 0.6645(17) 0.8252(15) 0.6922(11)
O1_3 O 0.9727(9) 0.6025(10) 0.8937(6)
O2_4 O 0.742(5) 0.500(4) 0.722(3)
O4_2 O 0.9727(9) 0.8988(9) 0.6065(6)
O9_2 O 0.5273(9) 0.3988(9) 0.8935(6)
O12_2 O 0.8355(17) 0.3252(15) 0.8078(11)
H4_3 H 0.744662 0.592107 0.698281
H5_3 H 0.647276 0.45682 0.700112
C1_4 C 0.3939(12) 0.1363(12) 0.5921(9)
C2_4 C 0.3088(13) 0.1959(12) 0.6733(8)
C3_4 C 0.1509(14) 0.1952(14) 0.6730(10)
H1_4 H 0.0979 0.1568 0.6228
C4_4 C 0.0735(14) 0.2533(15) 0.7496(11)
C5_4 C 0.3939(13) 0.3658(12) 0.9086(8)
C6_4 C 0.3076(12) 0.3032(12) 0.8262(9)
C7_4 C 0.3866(13) 0.2496(13) 0.7490(9)
H2_4 H 0.4919 0.2503 0.7488
C8_4 C 0.1502(14) 0.3062(13) 0.8268(10)
H3_4 H 0.0977 0.3428 0.8779
O1_4 O 0.5273(9) 0.1025(10) 0.6063(6)
O2_5 O 0.758(5) -0.000(4) 0.778(3)
O8_2 O 0.8343(18) 0.1745(16) 0.6918(11)
H4_4 H 0.755338 0.0921066 0.801719
O2_6 O 0.758(5) 1.000(4) 0.778(3)
H5_4 H 0.852724 0.95682 0.799888
C9_4 C 0.902(2) 0.259(2) 0.7442(14)
loop_
_geom_bond_atom_site_label_1
_geom_bond_atom_site_label_2
_geom_bond_site_symmetry_1
_geom_bond_site_symmetry_2
Y1 O1 1_555 1_555
O2 Y1 1_555 1_555
Y3 O4 1_555 1_555
O8 Y1 1_555 1_555
O9 Y1 1_555 1_555
O12 Y1 1_555 1_555
O2 H4 1_555 1_555
O2 H5 1_555 1_555
C1 C2 1_555 1_555
C2 C3 1_555 1_555
C3 H1 1_555 1_555
C4 C3 1_555 1_555
C5 C6 1_555 1_555
C6 C7 1_555 1_555
C7 C2 1_555 1_555
H2 C7 1_555 1_555
C8 C4 1_555 1_555
H3 C8 1_555 1_555
C9 C4 1_555 1_555
O8 C9 1_555 1_555
O5 C1 1_555 1_555
O6 C5 1_555 1_555
O7 C9 1_555 1_555
Y5 O6 1_555 1_555
Y3 O7 1_555 1_555
C6 C8 1_555 1_555
O3 C9_2 1_555 1_555
O12 C9_2 1_555 1_555
Y3_2 O3 1_555 1_555
O2_2 Y3 1_555 1_555
O10_2 Y3 1_555 1_555
O2_2 H5_2 1_555 1_555
Y3_2 O1_2 1_555 1_555
C1_2 C2_2 1_555 1_555
C2_2 C3_2 1_555 1_555
C3_2 H1_2 1_555 1_555
C4_2 C3_2 1_555 1_555
C5_2 C6_2 1_555 1_555
C6_2 C7_2 1_555 1_555
C7_2 C2_2 1_555 1_555
H2_2 C7_2 1_555 1_555
C8_2 C4_2 1_555 1_555
H3_2 C8_2 1_555 1_555
O1_2 C1_2 1_555 1_555
O2_3 Y3_2 1_555 1_555
O9 C5_2 1_555 1_555
O5_2 C1_2 1_555 1_555
O6_2 C5_2 1_555 1_555
Y5_2 O5_2 1_555 1_555
O11_2 Y3_2 1_555 1_555
C6_2 C8_2 1_555 1_555
O2_3 H4_2 1_555 1_555
C1_3 C2_3 1_555 1_555
C2_3 C3_3 1_555 1_555
C3_3 H1_3 1_555 1_555
C4_3 C3_3 1_555 1_555
C5_3 C6_3 1_555 1_555
C6_3 C7_3 1_555 1_555
C7_3 C2_3 1_555 1_555
H2_3 C7_3 1_555 1_555
C8_3 C4_3 1_555 1_555
H3_3 C8_3 1_555 1_555
C9_3 C4_3 1_555 1_555
O3_2 C9_3 1_555 1_555
O10 C1_3 1_555 1_555
O11_2 C5_3 1_555 1_555
O7_2 C9_3 1_555 1_555
Y4 O3_2 1_555 1_555
Y5_2 O7_2 1_555 1_555
C6_3 C8_3 1_555 1_555
Y4 O1_3 1_555 1_555
O2_4 Y4 1_555 1_555
Y5_2 O4_2 1_555 1_555
O9_2 Y4 1_555 1_555
O12_2 Y4 1_555 1_555
O2_4 H4_3 1_555 1_555
O2_4 H5_3 1_555 1_555
Y5 O1_4 1_555 1_555
C1_4 C2_4 1_555 1_555
C2_4 C3_4 1_555 1_555
C3_4 H1_4 1_555 1_555
C4_4 C3_4 1_555 1_555
C5_4 C6_4 1_555 1_555
C6_4 C7_4 1_555 1_555
C7_4 C2_4 1_555 1_555
H2_4 C7_4 1_555 1_555
C8_4 C4_4 1_555 1_555
H3_4 C8_4 1_555 1_555
O1_4 C1_4 1_555 1_555
O2_5 Y5 1_555 1_555
O9_2 C5_4 1_555 1_555
O10_2 C1_4 1_555 1_555
O11 C5_4 1_555 1_555
O8_2 Y5 1_555 1_555
C6_4 C8_4 1_555 1_555
O2_5 H4_4 1_555 1_555
O2_6 Y5_2 1_555 1_555
O2_6 H5_4 1_555 1_555
O8_2 C9_4 1_555 1_555
O12_2 C9_4 1_555 1_555

#END
