
###############################################################################
#
# This file contains modified crystal structure data generated from the
# MOF subset of the Cambridge Structural Database (CSD) v543 
# hosted by the Cambridge Crystallographic Data Centre (CCDC).
#
# This work is licensed under the Creative Commons
# Attribution-NonCommercial-ShareAlike 4.0 International License.
# To view a copy of this license, visit
# http://creativecommons.org/licenses/by-nc-sa/4.0/
# or send a letter to
# Creative Commons, PO Box 1866, Mountain View, CA 94042, USA.
#
# CIF created using the CSD Python API on 29 September 2022
# The structure has been converted into the P1 space group
# The structure has a 3D framework
# The original CSD entry NAFGOR01 is in the monoclinic crystal system
# The framework has been calculated to contain at least 10.0% void space
# The void calculation uses a probe of radius 1.32A, grid spacing 0.4
#
###############################################################################

data_NAFGOR01
_chemical_formula_moiety         '(C48 H48 Co6 N32)n'
_symmetry_cell_setting           triclinic
_symmetry_space_group_name_H-M   'P 1'
_symmetry_Int_Tables_number      1
_space_group_name_Hall           'P 1'
loop_
_symmetry_equiv_pos_site_id
_symmetry_equiv_pos_as_xyz
1 x,y,z
_cell_length_a                   9.797(4)
_cell_length_b                   15.301(6)
_cell_length_c                   14.902(6)
_cell_angle_alpha                90
_cell_angle_beta                 98.904(6)
_cell_angle_gamma                90
_cell_volume                     2206.95
loop_
_atom_site_label
_atom_site_type_symbol
_atom_site_fract_x
_atom_site_fract_y
_atom_site_fract_z
Co1 Co 0.45232(8) 0.07697(6) 0.23726(5)
N1 N 0.2521(4) 0.0770(3) 0.1892(3)
N2 N 0.0460(5) 0.1349(3) 0.1330(3)
N3 N 0.5516(5) 0.1200(3) 0.1396(3)
N4 N 0.7271(5) 0.1781(3) 0.0770(3)
N7 N 0.4859(5) 0.1639(3) 0.3375(3)
N8 N 0.4654(5) 0.2395(3) 0.4641(3)
C1 C 0.1741(6) 0.1482(4) 0.1763(4)
H1 H 0.2063 0.2032 0.1959
C2 C 0.1695(7) 0.0143(4) 0.1504(4)
C3 C 0.0446(7) 0.0487(4) 0.1162(4)
C4 C 0.6855(6) 0.1358(4) 0.1457(4)
H4 H 0.7477 0.1180 0.1959
C5 C 0.5050(6) 0.1525(5) 0.0566(4)
H5 H 0.4134 0.1516 0.0284
C6 C 0.6112(7) 0.1864(5) 0.0206(4)
C10 C 0.4277(6) 0.1718(4) 0.4097(4)
H10 H 0.3623 0.1317 0.4230
C11 C 0.5704(7) 0.2346(5) 0.3444(5)
H11 H 0.6281 0.2496 0.3028
C12 C 0.5584(7) 0.2794(4) 0.4194(4)
H12 H 0.6065 0.3303 0.4382
Co3 Co 0.91435(8) 0.22689(5) 0.08115(5)
Co5 Co 0.41435(8) 0.27311(5) 0.58115(5)
N5 N 0.5189(5) 0.9566(3) 0.2668(3)
N6 N 0.5611(5) 0.8258(3) 0.3312(3)
H2 H 0.1937 0.9558 0.1471
C7 C 0.5306(6) 0.9093(4) 0.3416(4)
H7 H 0.5184 0.9327 0.3973
C8 C 0.5443(7) 0.8979(5) 0.2033(4)
H8 H 0.5437 0.9101 0.1421
C9 C 0.5701(7) 0.8202(5) 0.2422(4)
H9 H 0.5912 0.7697 0.2124
Co4 Co 0.58565(8) 0.72689(5) 0.41885(5)
H3 H 0.9698 0.0175 0.0859
N10 N 0.9389(5) 0.3258(3) 0.1688(3)
N11 N 0.9654(5) 0.2605(3) 0.9641(3)
N3_2 N 0.0516(5) 0.3800(3) 0.6396(3)
N4_2 N 0.2271(5) 0.3219(3) 0.5770(3)
N5_2 N 0.0189(5) 0.5434(3) 0.7668(3)
N6_2 N 0.0611(5) 0.6742(3) 0.8312(3)
C4_2 C 0.1855(6) 0.3642(4) 0.6457(4)
H4_2 H 0.2477 0.3820 0.6959
C5_2 C 0.0050(6) 0.3475(5) 0.5566(4)
C6_2 C 0.1112(7) 0.3136(5) 0.5206(4)
H6 H 0.1034 0.2878 0.4635
C7_2 C 0.0306(6) 0.5907(4) 0.8416(4)
H7_2 H 0.0184 0.5673 0.8973
C8_2 C 0.0443(7) 0.6021(5) 0.7033(4)
H8_2 H 0.0437 0.5899 0.6421
C9_2 C 0.0701(7) 0.6798(5) 0.7422(4)
H9_2 H 0.0912 0.7303 0.7124
C11_2 C 0.0704(7) 0.2654(5) 0.8444(5)
H11_2 H 0.1281 0.2504 0.8028
C12_2 C 0.0584(7) 0.2206(4) 0.9194(4)
H12_2 H 0.1065 0.1697 0.9382
Co4_2 Co 0.08565(8) 0.77311(5) 0.91885(5)
Co1_2 Co 0.95232(8) 0.42303(6) 0.73726(5)
N1_2 N 0.7521(4) 0.4230(3) 0.6892(3)
N2_2 N 0.5460(5) 0.3651(3) 0.6330(3)
N7_2 N 0.9859(5) 0.3361(3) 0.8375(3)
C1_2 C 0.6741(6) 0.3518(4) 0.6763(4)
H1_2 H 0.7063 0.2968 0.6959
C2_2 C 0.6695(7) 0.4857(4) 0.6504(4)
H2_2 H 0.6937 0.5442 0.6471
C3_2 C 0.5446(7) 0.4513(4) 0.6162(4)
H3_2 H 0.4698 0.4825 0.5859
H5_2 H 0.9134 0.3484 0.5284
C10_2 C 0.9277(6) 0.3282(4) 0.9097(4)
H10_2 H 0.8623 0.3683 0.9230
N10_2 N 0.4389(5) 0.1742(3) 0.6688(3)
N11_2 N 0.0346(5) 0.7395(3) 0.0359(3)
H3_3 H 0.0302 0.9825 0.9141
N9 N 0.2729(5) 0.8219(3) 0.9230(3)
N5_3 N 0.4811(5) 0.0434(3) 0.7332(3)
H2_3 H 0.8063 0.0442 0.8529
C7_3 C 0.4694(6) 0.0907(4) 0.6584(4)
H7_3 H 0.4816 0.0673 0.6027
C8_3 C 0.4557(7) 0.1021(5) 0.7967(4)
H8_3 H 0.4563 0.0899 0.8579
C9_3 C 0.4299(7) 0.1798(5) 0.7578(4)
H9_3 H 0.4088 0.2303 0.7876
Co1_3 Co 0.54768(8) 0.92303(6) 0.76274(5)
N1_3 N 0.7479(4) 0.9230(3) 0.8108(3)
N2_3 N 0.9540(5) 0.8651(3) 0.8670(3)
N3_3 N 0.4484(5) 0.8800(3) 0.8604(3)
N7_3 N 0.5141(5) 0.8361(3) 0.6625(3)
N8_2 N 0.5346(5) 0.7605(3) 0.5359(3)
C1_3 C 0.8259(6) 0.8518(4) 0.8237(4)
H1_3 H 0.7937 0.7968 0.8041
C2_3 C 0.8305(7) 0.9857(4) 0.8496(4)
C3_3 C 0.9554(7) 0.9513(4) 0.8838(4)
C4_3 C 0.3145(6) 0.8642(4) 0.8543(4)
H4_3 H 0.2523 0.8820 0.8041
C5_3 C 0.4950(6) 0.8475(5) 0.9434(4)
H5_3 H 0.5866 0.8484 0.9716
C6_3 C 0.3888(7) 0.8136(5) 0.9794(4)
C10_3 C 0.5723(6) 0.8282(4) 0.5903(4)
H10_3 H 0.6377 0.8683 0.5770
C11_3 C 0.4296(7) 0.7654(5) 0.6556(5)
H11_3 H 0.3719 0.7504 0.6972
C12_3 C 0.4416(7) 0.7206(4) 0.5806(4)
H12_3 H 0.3935 0.6697 0.5618
Co1_4 Co 0.04768(8) 0.57697(6) 0.26274(5)
N1_4 N 0.2479(4) 0.5770(3) 0.3108(3)
N2_4 N 0.4540(5) 0.6349(3) 0.3670(3)
N7_4 N 0.0141(5) 0.6639(3) 0.1625(3)
C1_4 C 0.3259(6) 0.6482(4) 0.3237(4)
H1_4 H 0.2937 0.7032 0.3041
C2_4 C 0.3305(7) 0.5143(4) 0.3496(4)
H2_4 H 0.3063 0.4558 0.3529
C3_4 C 0.4554(7) 0.5487(4) 0.3838(4)
H3_4 H 0.5302 0.5175 0.4141
H5_4 H 0.0866 0.6516 0.4716
C10_4 C 0.0723(6) 0.6718(4) 0.0903(4)
H10_4 H 0.1377 0.6317 0.0770
N9_2 N 0.7729(5) 0.6781(3) 0.4230(3)
N3_4 N 0.9484(5) 0.6200(3) 0.3604(3)
N5_4 N 0.9811(5) 0.4566(3) 0.2332(3)
C4_4 C 0.8145(6) 0.6358(4) 0.3543(4)
H4_4 H 0.7523 0.6180 0.3041
C5_4 C 0.9950(6) 0.6525(5) 0.4434(4)
C6_4 C 0.8888(7) 0.6864(5) 0.4794(4)
H6_2 H 0.8966 0.7122 0.5365
C7_4 C 0.9694(6) 0.4093(4) 0.1584(4)
H7_4 H 0.9816 0.4327 0.1027
C8_4 C 0.9557(7) 0.3979(5) 0.2967(4)
H8_4 H 0.9563 0.4101 0.3579
C9_4 C 0.9299(7) 0.3202(5) 0.2578(4)
H9_4 H 0.9088 0.2697 0.2876
C11_4 C 0.9296(7) 0.7346(5) 0.1556(5)
H11_4 H 0.8719 0.7496 0.1972
C12_4 C 0.9416(7) 0.7794(4) 0.0806(4)
H12_4 H 0.8935 0.8303 0.0618
H6_3 H 0.6034 0.2122 0.9635
H6_4 H 0.3966 0.7878 0.0365
loop_
_geom_bond_atom_site_label_1
_geom_bond_atom_site_label_2
_geom_bond_site_symmetry_1
_geom_bond_site_symmetry_2
Co1 N1 1_555 1_555
N1 C1 1_555 1_555
N2 C1 1_555 1_555
N3 Co1 1_555 1_555
N4 C4 1_555 1_555
N7 Co1 1_555 1_555
N8 C10 1_555 1_555
C1 H1 1_555 1_555
C2 N1 1_555 1_555
C3 N2 1_555 1_555
C4 N3 1_555 1_555
H4 C4 1_555 1_555
C5 N3 1_555 1_555
H5 C5 1_555 1_555
C6 N4 1_555 1_555
C10 N7 1_555 1_555
H10 C10 1_555 1_555
C11 N7 1_555 1_555
H11 C11 1_555 1_555
C12 N8 1_555 1_555
H12 C12 1_555 1_555
Co3 N4 1_555 1_555
Co5 N8 1_555 1_555
C2 C3 1_555 1_555
C5 C6 1_555 1_555
C11 C12 1_555 1_555
N6 C7 1_555 1_555
C7 N5 1_555 1_555
H7 C7 1_555 1_555
C8 N5 1_555 1_555
H8 C8 1_555 1_555
C9 N6 1_555 1_555
H9 C9 1_555 1_555
Co4 N6 1_555 1_555
C8 C9 1_555 1_555
N10 Co3 1_555 1_555
N4_2 C4_2 1_555 1_555
N6_2 C7_2 1_555 1_555
C4_2 N3_2 1_555 1_555
H4_2 C4_2 1_555 1_555
C5_2 N3_2 1_555 1_555
C6_2 N4_2 1_555 1_555
H6 C6_2 1_555 1_555
C7_2 N5_2 1_555 1_555
H7_2 C7_2 1_555 1_555
C8_2 N5_2 1_555 1_555
H8_2 C8_2 1_555 1_555
C9_2 N6_2 1_555 1_555
H9_2 C9_2 1_555 1_555
H11_2 C11_2 1_555 1_555
H12_2 C12_2 1_555 1_555
Co5 N4_2 1_555 1_555
Co4_2 N6_2 1_555 1_555
C5_2 C6_2 1_555 1_555
C8_2 C9_2 1_555 1_555
C11_2 C12_2 1_555 1_555
Co1_2 N1_2 1_555 1_555
Co5 N2_2 1_555 1_555
N1_2 C1_2 1_555 1_555
N2_2 C1_2 1_555 1_555
N7_2 Co1_2 1_555 1_555
N11 C10_2 1_555 1_555
C1_2 H1_2 1_555 1_555
C2_2 N1_2 1_555 1_555
H2_2 C2_2 1_555 1_555
C3_2 N2_2 1_555 1_555
H3_2 C3_2 1_555 1_555
C10_2 N7_2 1_555 1_555
H10_2 C10_2 1_555 1_555
N10_2 Co5 1_555 1_555
C2_2 C3_2 1_555 1_555
N9 Co4_2 1_555 1_555
N10_2 C7_3 1_555 1_555
C7_3 N5_3 1_555 1_555
H7_3 C7_3 1_555 1_555
C8_3 N5_3 1_555 1_555
H8_3 C8_3 1_555 1_555
C9_3 N10_2 1_555 1_555
H9_3 C9_3 1_555 1_555
C8_3 C9_3 1_555 1_555
Co1_3 N1_3 1_555 1_555
N1_3 C1_3 1_555 1_555
N2_3 C1_3 1_555 1_555
N3_3 Co1_3 1_555 1_555
N9 C4_3 1_555 1_555
N7_3 Co1_3 1_555 1_555
N8_2 C10_3 1_555 1_555
C1_3 H1_3 1_555 1_555
C2_3 N1_3 1_555 1_555
C3_3 N2_3 1_555 1_555
C4_3 N3_3 1_555 1_555
H4_3 C4_3 1_555 1_555
C5_3 N3_3 1_555 1_555
H5_3 C5_3 1_555 1_555
C6_3 N9 1_555 1_555
C10_3 N7_3 1_555 1_555
H10_3 C10_3 1_555 1_555
C11_3 N7_3 1_555 1_555
H11_3 C11_3 1_555 1_555
C12_3 N8_2 1_555 1_555
H12_3 C12_3 1_555 1_555
Co4 N8_2 1_555 1_555
C2_3 C3_3 1_555 1_555
C5_3 C6_3 1_555 1_555
C11_3 C12_3 1_555 1_555
Co1_4 N1_4 1_555 1_555
Co4 N2_4 1_555 1_555
N1_4 C1_4 1_555 1_555
N2_4 C1_4 1_555 1_555
N7_4 Co1_4 1_555 1_555
N11_2 C10_4 1_555 1_555
C1_4 H1_4 1_555 1_555
C2_4 N1_4 1_555 1_555
H2_4 C2_4 1_555 1_555
C3_4 N2_4 1_555 1_555
H3_4 C3_4 1_555 1_555
C10_4 N7_4 1_555 1_555
H10_4 C10_4 1_555 1_555
N9_2 Co4 1_555 1_555
C2_4 C3_4 1_555 1_555
N9_2 C4_4 1_555 1_555
N10 C7_4 1_555 1_555
C4_4 N3_4 1_555 1_555
H4_4 C4_4 1_555 1_555
C5_4 N3_4 1_555 1_555
C6_4 N9_2 1_555 1_555
H6_2 C6_4 1_555 1_555
C7_4 N5_4 1_555 1_555
H7_4 C7_4 1_555 1_555
C8_4 N5_4 1_555 1_555
H8_4 C8_4 1_555 1_555
C9_4 N10 1_555 1_555
H9_4 C9_4 1_555 1_555
H11_4 C11_4 1_555 1_555
H12_4 C12_4 1_555 1_555
C5_4 C6_4 1_555 1_555
C8_4 C9_4 1_555 1_555
C11_4 C12_4 1_555 1_555

#END
