
###############################################################################
#
# This file contains modified crystal structure data generated from the
# MOF subset of the Cambridge Structural Database (CSD) v543 
# hosted by the Cambridge Crystallographic Data Centre (CCDC).
#
# This work is licensed under the Creative Commons
# Attribution-NonCommercial-ShareAlike 4.0 International License.
# To view a copy of this license, visit
# http://creativecommons.org/licenses/by-nc-sa/4.0/
# or send a letter to
# Creative Commons, PO Box 1866, Mountain View, CA 94042, USA.
#
# CIF created using the CSD Python API on 29 September 2022
# The structure has been converted into the P1 space group
# The structure has a 3D framework
# The original CSD entry NAFPUJ is in the trigonal crystal system
# The original CSD entry NAFPUJ is in a Sohncke space group
# The framework has been calculated to contain at least 10.0% void space
# The void calculation uses a probe of radius 1.32A, grid spacing 0.4
# The framework is charged, counterions have been retained in the structure
#
###############################################################################

data_NAFPUJ
_chemical_formula_moiety         '(C60 H66 Cd5 N12 O36)n'
_symmetry_cell_setting           triclinic
_symmetry_space_group_name_H-M   'P 1'
_symmetry_Int_Tables_number      1
_space_group_name_Hall           'P 1'
loop_
_symmetry_equiv_pos_site_id
_symmetry_equiv_pos_as_xyz
1 x,y,z
_cell_length_a                   14.366(3)
_cell_length_b                   14.366(3)
_cell_length_c                   12.8607(10)
_cell_angle_alpha                90
_cell_angle_beta                 90
_cell_angle_gamma                120
_cell_volume                     2298.62
loop_
_atom_site_label
_atom_site_type_symbol
_atom_site_fract_x
_atom_site_fract_y
_atom_site_fract_z
Cd3 Cd 0.52020(50) -0.000000 0.833334
Cd1 Cd 1.000000 0.5202(5) 0.166667
O1 O 0.938(5) 0.602(4) 0.048(3)
C1 C 0.870(6) 0.524(5) 0.007(6)
O4 O 0.870(5) 0.442(4) 0.027(4)
O11 O 0.993(5) 0.726(9) 0.496(7)
O13 O 0.928(6) 0.377(4) 0.267(4)
O15 O 0.861(6) 0.464(5) 0.303(3)
O2 O 0.449(4) 0.072(6) 0.933(4)
C8 C 0.523(5) 0.145(7) 0.982(4)
O3 O 0.603(4) 0.139(6) 0.969(3)
O1_2 O 0.664(6) 0.062(5) 0.715(3)
C1_2 C 0.654(8) 0.130(6) 0.674(6)
C2 C 0.701(6) 0.199(4) 0.586(3)
C3 C 0.748(6) 0.162(4) 0.515(4)
C4 C 0.802(6) 0.223(4) 0.429(3)
H1 H 0.833090 0.198103 0.381086
C5 C 0.810(6) 0.323(4) 0.414(3)
C6 C 0.764(5) 0.361(3) 0.484(3)
H2 H 0.768895 0.427235 0.473947
C7 C 0.709(6) 0.299(4) 0.571(3)
H3 H 0.678000 0.324089 0.617671
C8_2 C 0.855(7) 0.378(5) 0.316(4)
O4_2 O 0.572(6) 0.130(5) 0.694(4)
N1 N 0.777(6) 0.080(4) 0.546(5)
O6 O 0.861(9) 0.115(7) 0.596(8)
Cd1_2 Cd -0.000000 0.5202(5) 0.166667
O7 O 0.062(5) 0.664(6) 0.285(3)
C9 C 0.130(6) 0.654(8) 0.326(6)
C10 C 0.199(4) 0.701(6) 0.414(3)
C11 C 0.162(4) 0.748(6) 0.485(4)
C12 C 0.223(4) 0.802(6) 0.571(3)
H4 H 0.198103 0.833090 0.618914
C13 C 0.323(4) 0.810(6) 0.586(3)
C14 C 0.361(3) 0.764(5) 0.516(3)
H5 H 0.427235 0.768895 0.526053
C15 C 0.299(4) 0.709(6) 0.429(3)
H6 H 0.324089 0.678000 0.382329
O8 O 0.377(4) 0.928(6) 0.733(4)
C16 C 0.378(5) 0.855(7) 0.684(4)
O9 O 0.464(5) 0.861(6) 0.697(3)
O10 O 0.130(5) 0.572(6) 0.306(4)
N2 N 0.080(4) 0.777(6) 0.454(5)
O12 O 0.115(7) 0.861(9) 0.404(8)
Cd3_2 Cd 0.52020(50) 1.000000 0.833334
O14 O 0.072(6) 0.449(4) 0.067(4)
O16 O 0.139(6) 0.603(4) 0.031(3)
C16_2 C 0.145(7) 0.523(9) 0.018(4)
O5 O 0.726(9) 0.993(5) 0.504(7)
O7_2 O 0.602(8) 0.938(5) 0.952(3)
C9_2 C 0.524(10) 0.870(6) 0.993(6)
O10_2 O 0.442(8) 0.870(5) 0.973(4)
O5_2 O 0.007(5) 0.733(7) 0.837(7)
C2_2 C 0.801(4) 0.502(4) 0.919(3)
C3_2 C 0.838(4) 0.586(4) 0.848(4)
C4_2 C 0.777(4) 0.579(4) 0.762(3)
H1_2 H 0.801897 0.634987 0.714419
C5_2 C 0.677(4) 0.487(4) 0.747(3)
C6_2 C 0.639(3) 0.403(4) 0.817(3)
H2_2 H 0.572765 0.341660 0.807280
C7_2 C 0.701(4) 0.410(4) 0.904(3)
H3_2 H 0.675911 0.353911 0.951004
O2_2 O 0.623(4) 0.551(4) 0.600(4)
C8_3 C 0.622(5) 0.477(5) 0.649(4)
O3_2 O 0.536(5) 0.397(4) 0.636(3)
N1_2 N 0.920(4) 0.697(4) 0.879(5)
O6_2 O 0.885(7) 0.746(6) 0.929(8)
Cd2 Cd 0.4798(5) 0.47980(50) 0.500000
O1_3 O 0.398(4) 0.336(6) 0.381(3)
C1_3 C 0.476(5) 0.346(8) 0.340(6)
C2_3 C 0.498(4) 0.299(6) 0.252(3)
C3_3 C 0.414(4) 0.252(6) 0.181(4)
C4_3 C 0.421(4) 0.198(6) 0.095(3)
H1_3 H 0.365013 0.166910 0.047752
C5_3 C 0.513(4) 0.190(6) 0.080(3)
C6_3 C 0.597(4) 0.236(5) 0.150(3)
H2_3 H 0.658340 0.231105 0.140613
C7_3 C 0.590(4) 0.291(6) 0.237(3)
H3_3 H 0.646089 0.322000 0.284337
O4_3 O 0.558(4) 0.428(6) 0.360(4)
O5_3 O 0.267(7) 0.274(9) 0.170(7)
N1_3 N 0.303(4) 0.223(6) 0.212(5)
O6_3 O 0.254(6) 0.139(9) 0.262(8)
O7_3 O 0.336(6) 0.398(8) 0.619(3)
C9_3 C 0.346(8) 0.476(10) 0.660(6)
C10_2 C 0.299(6) 0.498(7) 0.748(3)
C11_2 C 0.252(6) 0.414(7) 0.819(4)
C12_2 C 0.198(6) 0.421(7) 0.905(3)
H4_2 H 0.166910 0.365013 0.952248
C13_2 C 0.190(6) 0.513(7) 0.920(3)
C14_2 C 0.236(5) 0.597(6) 0.850(3)
H5_2 H 0.231105 0.658340 0.859387
C15_2 C 0.291(6) 0.590(7) 0.763(3)
H6_2 H 0.322000 0.646089 0.715663
O10_3 O 0.428(6) 0.558(8) 0.640(4)
O11_2 O 0.274(9) 0.267(10) 0.830(7)
N2_2 N 0.223(6) 0.303(7) 0.788(5)
O12_2 O 0.139(9) 0.254(11) 0.738(8)
O14_2 O 0.551(4) 0.623(7) 0.400(4)
O16_2 O 0.397(4) 0.536(7) 0.364(3)
C10_3 C 0.502(7) 0.801(4) 0.081(3)
C11_3 C 0.586(7) 0.838(4) 0.152(4)
C12_3 C 0.579(7) 0.777(4) 0.238(3)
H4_3 H 0.634987 0.801897 0.285581
C13_3 C 0.487(7) 0.677(4) 0.253(3)
C14_3 C 0.403(6) 0.639(3) 0.183(3)
H5_3 H 0.341660 0.572765 0.192720
C15_3 C 0.410(7) 0.701(4) 0.096(3)
H6_3 H 0.353911 0.675911 0.048996
C16_3 C 0.477(9) 0.622(5) 0.351(4)
N2_3 N 0.697(7) 0.920(4) 0.121(5)
O12_3 O 0.746(11) 0.885(7) 0.071(8)
O11_3 O 0.733(10) 0.007(5) 0.163(7)
N3 N 0.839(7) 0.225(9) 0.016(7)
H7 H 0.867854 0.283731 0.055927
H8 H 0.772562 0.183465 0.039414
C18 C 0.890(8) 0.176(9) 0.038(8)
H12 H 0.885223 0.161687 0.111737
H13 H 0.859413 0.109052 0.000986
H14 H 0.964470 0.219592 0.019191
C17 C 0.828(9) 0.258(10) 0.925(9)
H9 H 0.785860 0.292366 0.931210
H10 H 0.897519 0.307682 0.897394
H11 H 0.792463 0.197143 0.879190
N3_2 N 0.775(9) 0.614(11) 0.349(7)
H7_2 H 0.716269 0.584123 0.389260
H8_2 H 0.816535 0.589097 0.372747
C17_2 C 0.742(10) 0.570(13) 0.258(9)
H9_2 H 0.707634 0.493494 0.264543
H10_2 H 0.692318 0.589837 0.230727
H11_2 H 0.802857 0.595320 0.212523
C18_2 C 0.824(9) 0.714(12) 0.371(8)
H12_2 H 0.838313 0.723536 0.445070
H13_2 H 0.890948 0.750361 0.334319
H14_2 H 0.780408 0.744878 0.352524
N3_3 N 0.386(11) 0.161(7) 0.683(7)
H7_3 H 0.415877 0.132146 0.722594
H8_3 H 0.410903 0.227438 0.706081
C17_3 C 0.430(13) 0.172(9) 0.592(9)
H9_3 H 0.506506 0.214140 0.597877
H10_3 H 0.410163 0.102481 0.564061
H11_3 H 0.404680 0.207537 0.545857
C18_3 C 0.286(12) 0.110(8) 0.705(8)
H12_3 H 0.276464 0.114777 0.778404
H13_3 H 0.249639 0.140587 0.667653
H14_3 H 0.255122 0.035530 0.685858
N3_4 N 0.614(11) 0.775(9) 0.651(7)
H7_4 H 0.584123 0.716269 0.610740
H8_4 H 0.589097 0.816535 0.627253
C17_4 C 0.570(13) 0.742(10) 0.742(9)
H9_4 H 0.493494 0.707634 0.735457
H10_4 H 0.589837 0.692318 0.769273
H11_4 H 0.595320 0.802857 0.787477
C18_4 C 0.714(12) 0.824(9) 0.629(8)
H12_4 H 0.723536 0.838313 0.554930
H13_4 H 0.750361 0.890948 0.665681
H14_4 H 0.744878 0.780408 0.647476
N3_5 N 0.161(7) 0.386(11) 0.317(7)
H7_5 H 0.132146 0.415877 0.277406
H8_5 H 0.227438 0.410903 0.293919
C17_5 C 0.172(9) 0.430(13) 0.408(9)
H9_5 H 0.214140 0.506506 0.402123
H10_5 H 0.102481 0.410163 0.435939
H11_5 H 0.207537 0.404680 0.454143
C18_5 C 0.110(8) 0.286(12) 0.295(8)
H12_5 H 0.114777 0.276464 0.221596
H13_5 H 0.140587 0.249639 0.332347
H14_5 H 0.035530 0.255122 0.314142
C17_6 C 0.258(10) 0.828(9) 0.075(9)
H9_6 H 0.292366 0.785860 0.068790
H10_6 H 0.307682 0.897519 0.102606
H11_6 H 0.197143 0.792463 0.120810
N3_6 N 0.225(9) 0.839(7) 0.984(7)
H7_6 H 0.283731 0.867854 0.944073
H8_6 H 0.183465 0.772562 0.960586
C18_6 C 0.176(9) 0.890(8) 0.962(8)
H12_6 H 0.161687 0.885223 0.888263
H13_6 H 0.109052 0.859413 0.999014
H14_6 H 0.219592 0.964470 0.980809
loop_
_geom_bond_atom_site_label_1
_geom_bond_atom_site_label_2
_geom_bond_site_symmetry_1
_geom_bond_site_symmetry_2
Cd1 O1 1_555 1_555
O1 C1 1_555 1_555
O4 Cd1 1_555 1_555
O13 Cd1 1_555 1_555
O15 Cd1 1_555 1_555
C1 O4 1_555 1_555
O2 C8 1_555 1_555
O3 C8 1_555 1_555
Cd3 O2 1_555 1_555
O3 Cd3 1_555 1_555
Cd3 O1_2 1_555 1_555
O1_2 C1_2 1_555 1_555
C1_2 C2 1_555 1_555
C2 C3 1_555 1_555
C3 C4 1_555 1_555
C4 H1 1_555 1_555
C5 C4 1_555 1_555
C6 C5 1_555 1_555
H2 C6 1_555 1_555
C7 C2 1_555 1_555
H3 C7 1_555 1_555
O13 C8_2 1_555 1_555
C8_2 C5 1_555 1_555
O15 C8_2 1_555 1_555
O4_2 Cd3 1_555 1_555
N1 C3 1_555 1_555
O6 N1 1_555 1_555
C1_2 O4_2 1_555 1_555
C6 C7 1_555 1_555
O7 Cd1_2 1_555 1_555
C9 O7 1_555 1_555
C10 C9 1_555 1_555
C11 C10 1_555 1_555
C12 C11 1_555 1_555
H4 C12 1_555 1_555
C13 C12 1_555 1_555
C14 C13 1_555 1_555
H5 C14 1_555 1_555
C15 C10 1_555 1_555
H6 C15 1_555 1_555
O8 C16 1_555 1_555
C16 C13 1_555 1_555
O9 C16 1_555 1_555
O10 Cd1_2 1_555 1_555
N2 C11 1_555 1_555
O12 N2 1_555 1_555
Cd3_2 O8 1_555 1_555
O14 Cd1_2 1_555 1_555
O16 Cd1_2 1_555 1_555
C9 O10 1_555 1_555
C14 C15 1_555 1_555
O9 Cd3_2 1_555 1_555
O14 C16_2 1_555 1_555
O16 C16_2 1_555 1_555
O7_2 Cd3_2 1_555 1_555
C9_2 O7_2 1_555 1_555
O10_2 Cd3_2 1_555 1_555
C9_2 O10_2 1_555 1_555
C2_2 C3_2 1_555 1_555
C3_2 C4_2 1_555 1_555
C4_2 H1_2 1_555 1_555
C5_2 C4_2 1_555 1_555
C6_2 C5_2 1_555 1_555
H2_2 C6_2 1_555 1_555
C7_2 C2_2 1_555 1_555
H3_2 C7_2 1_555 1_555
O2_2 C8_3 1_555 1_555
C8_3 C5_2 1_555 1_555
O3_2 C8_3 1_555 1_555
N1_2 C3_2 1_555 1_555
O6_2 N1_2 1_555 1_555
Cd2 O2_2 1_555 1_555
C6_2 C7_2 1_555 1_555
O3_2 Cd2 1_555 1_555
Cd2 O1_3 1_555 1_555
O1_3 C1_3 1_555 1_555
C1_3 C2_3 1_555 1_555
C2_3 C3_3 1_555 1_555
C3_3 C4_3 1_555 1_555
C4_3 H1_3 1_555 1_555
C5_3 C4_3 1_555 1_555
C6_3 C5_3 1_555 1_555
H2_3 C6_3 1_555 1_555
C7_3 C2_3 1_555 1_555
H3_3 C7_3 1_555 1_555
O4_3 Cd2 1_555 1_555
O5_3 N1_3 1_555 1_555
N1_3 C3_3 1_555 1_555
O6_3 N1_3 1_555 1_555
O7_3 Cd2 1_555 1_555
C9_3 O7_3 1_555 1_555
C10_2 C9_3 1_555 1_555
C11_2 C10_2 1_555 1_555
C12_2 C11_2 1_555 1_555
H4_2 C12_2 1_555 1_555
C13_2 C12_2 1_555 1_555
C14_2 C13_2 1_555 1_555
H5_2 C14_2 1_555 1_555
C15_2 C10_2 1_555 1_555
H6_2 C15_2 1_555 1_555
O10_3 Cd2 1_555 1_555
O11_2 N2_2 1_555 1_555
N2_2 C11_2 1_555 1_555
O12_2 N2_2 1_555 1_555
O14_2 Cd2 1_555 1_555
O16_2 Cd2 1_555 1_555
C1_3 O4_3 1_555 1_555
C6_3 C7_3 1_555 1_555
C9_3 O10_3 1_555 1_555
C14_2 C15_2 1_555 1_555
C11_3 C10_3 1_555 1_555
C12_3 C11_3 1_555 1_555
H4_3 C12_3 1_555 1_555
C13_3 C12_3 1_555 1_555
C14_3 C13_3 1_555 1_555
H5_3 C14_3 1_555 1_555
C15_3 C10_3 1_555 1_555
H6_3 C15_3 1_555 1_555
O14_2 C16_3 1_555 1_555
C16_3 C13_3 1_555 1_555
O16_2 C16_3 1_555 1_555
N2_3 C11_3 1_555 1_555
O12_3 N2_3 1_555 1_555
C14_3 C15_3 1_555 1_555
N3 H7 1_555 1_555
H8 N3 1_555 1_555
C18 N3 1_555 1_555
H12 C18 1_555 1_555
H13 C18 1_555 1_555
H14 C18 1_555 1_555
H9 C17 1_555 1_555
H10 C17 1_555 1_555
H11 C17 1_555 1_555
N3_2 H7_2 1_555 1_555
H8_2 N3_2 1_555 1_555
C17_2 N3_2 1_555 1_555
H9_2 C17_2 1_555 1_555
H10_2 C17_2 1_555 1_555
H11_2 C17_2 1_555 1_555
C18_2 N3_2 1_555 1_555
H12_2 C18_2 1_555 1_555
H13_2 C18_2 1_555 1_555
H14_2 C18_2 1_555 1_555
N3_3 H7_3 1_555 1_555
H8_3 N3_3 1_555 1_555
C17_3 N3_3 1_555 1_555
H9_3 C17_3 1_555 1_555
H10_3 C17_3 1_555 1_555
H11_3 C17_3 1_555 1_555
C18_3 N3_3 1_555 1_555
H12_3 C18_3 1_555 1_555
H13_3 C18_3 1_555 1_555
H14_3 C18_3 1_555 1_555
N3_4 H7_4 1_555 1_555
H8_4 N3_4 1_555 1_555
C17_4 N3_4 1_555 1_555
H9_4 C17_4 1_555 1_555
H10_4 C17_4 1_555 1_555
H11_4 C17_4 1_555 1_555
C18_4 N3_4 1_555 1_555
H12_4 C18_4 1_555 1_555
H13_4 C18_4 1_555 1_555
H14_4 C18_4 1_555 1_555
N3_5 H7_5 1_555 1_555
H8_5 N3_5 1_555 1_555
C17_5 N3_5 1_555 1_555
H9_5 C17_5 1_555 1_555
H10_5 C17_5 1_555 1_555
H11_5 C17_5 1_555 1_555
C18_5 N3_5 1_555 1_555
H12_5 C18_5 1_555 1_555
H13_5 C18_5 1_555 1_555
H14_5 C18_5 1_555 1_555
H9_6 C17_6 1_555 1_555
H10_6 C17_6 1_555 1_555
H11_6 C17_6 1_555 1_555
N3_6 H7_6 1_555 1_555
H8_6 N3_6 1_555 1_555
C18_6 N3_6 1_555 1_555
H12_6 C18_6 1_555 1_555
H13_6 C18_6 1_555 1_555
H14_6 C18_6 1_555 1_555

#END
