
###############################################################################
#
# This file contains modified crystal structure data generated from the
# MOF subset of the Cambridge Structural Database (CSD) v543 
# hosted by the Cambridge Crystallographic Data Centre (CCDC).
#
# This work is licensed under the Creative Commons
# Attribution-NonCommercial-ShareAlike 4.0 International License.
# To view a copy of this license, visit
# http://creativecommons.org/licenses/by-nc-sa/4.0/
# or send a letter to
# Creative Commons, PO Box 1866, Mountain View, CA 94042, USA.
#
# CIF created using the CSD Python API on 29 September 2022
# The structure has been converted into the P1 space group
# The structure has a 3D framework
# The original CSD entry NAFPIX is in the trigonal crystal system
# The original CSD entry NAFPIX is in a Sohncke space group
# The framework has been calculated to contain at least 10.0% void space
# The void calculation uses a probe of radius 1.32A, grid spacing 0.4
# The framework is charged, counterions have been retained in the structure
#
###############################################################################

data_NAFPIX
_chemical_formula_moiety         '(C60 H66 Cd5 N12 O32)n'
_symmetry_cell_setting           triclinic
_symmetry_space_group_name_H-M   'P 1'
_symmetry_Int_Tables_number      1
_space_group_name_Hall           'P 1'
loop_
_symmetry_equiv_pos_site_id
_symmetry_equiv_pos_as_xyz
1 x,y,z
_cell_length_a                   13.7702(3)
_cell_length_b                   13.7702(3)
_cell_length_c                   13.2048(3)
_cell_angle_alpha                90
_cell_angle_beta                 90
_cell_angle_gamma                120
_cell_volume                     2168.42
loop_
_atom_site_label
_atom_site_type_symbol
_atom_site_fract_x
_atom_site_fract_y
_atom_site_fract_z
O9 O 0.048(3) 0.379(2) 0.503(2)
Cd2 Cd 0.000000 0.47134(11) 0.166666
Cd1 Cd 0.47134(11) 1.000000 0.833333
O1 O 0.3878(12) 0.8511(9) 0.9571(7)
C1 C 0.4717(19) 0.8592(16) 0.9667(13)
O2 O 0.549(2) 0.901(2) 0.9157(18)
O13 O 0.309(2) 0.937(4) 0.7065(16)
O15 O 0.441(3) 0.878(4) 0.6966(12)
O1_2 O 0.1489(9) 0.5367(15) 0.2904(7)
C1_2 C 0.1408(16) 0.6125(25) 0.3000(13)
O2_2 O 0.099(2) 0.648(3) 0.2490(18)
C2 C 0.2028(12) 0.6926(16) 0.3934(7)
C3 C 0.2312(15) 0.6481(19) 0.4751(8)
H1 H 0.220171 0.574410 0.471343
C4 C 0.2758(19) 0.7116(25) 0.5624(7)
H2 H 0.295224 0.681187 0.618290
C5 C 0.2920(16) 0.8195(23) 0.5680(8)
C6 C 0.2636(13) 0.8640(17) 0.4863(11)
C7 C 0.2190(13) 0.8005(16) 0.3990(9)
H3 H 0.199626 0.830979 0.343153
N1 N 0.290(2) 0.980(3) 0.475(2)
O4 O 0.206(4) 0.995(4) 0.442(3)
C8 C 0.359(3) 0.875(5) 0.6632(15)
O13_2 O 0.063(4) 0.372(4) 0.0399(16)
O15_2 O 0.122(4) 0.563(5) 0.0300(12)
Cd1_2 Cd 0.47134(11) 0.000000 0.833333
O7 O 0.5367(15) 0.1489(9) 0.7096(7)
C9 C 0.6125(25) 0.1408(16) 0.7000(13)
O8 O 0.648(3) 0.099(2) 0.7510(18)
C10 C 0.6926(16) 0.2028(12) 0.6066(7)
C11 C 0.6481(19) 0.2312(15) 0.5249(8)
H4 H 0.574410 0.220171 0.528657
C12 C 0.7116(25) 0.2758(19) 0.4376(7)
H5 H 0.681187 0.295224 0.381710
C13 C 0.8195(23) 0.2920(16) 0.4320(8)
C14 C 0.8640(17) 0.2636(13) 0.5137(11)
C15 C 0.8005(16) 0.2190(13) 0.6010(9)
H6 H 0.830979 0.199626 0.656847
N2 N 0.980(3) 0.290(2) 0.525(2)
O10 O 0.995(4) 0.206(4) 0.558(3)
C16 C 0.875(5) 0.359(3) 0.3368(15)
O11 O 0.937(4) 0.309(2) 0.2935(16)
O12 O 0.878(4) 0.441(3) 0.3034(12)
Cd2_2 Cd 1.000000 0.47134(11) 0.166666
O14 O 0.372(3) 0.063(4) 0.9601(16)
O16 O 0.563(3) 0.122(4) 0.9700(12)
O3 O 0.379(2) 0.048(3) 0.497(2)
O7_2 O 0.8511(9) 0.3878(17) 0.0429(7)
C9_2 C 0.8592(16) 0.4717(30) 0.0333(13)
O8_2 O 0.901(2) 0.549(4) 0.0843(18)
C2_2 C 0.4898(10) 0.7972(12) 0.0601(7)
C3_2 C 0.4169(12) 0.7688(15) 0.1418(8)
H1_2 H 0.354239 0.779829 0.138010
C4_2 C 0.4358(16) 0.7242(19) 0.2291(7)
H2_2 H 0.385963 0.704776 0.284957
C5_2 C 0.5275(16) 0.7080(16) 0.2347(8)
C6_2 C 0.6004(11) 0.7364(13) 0.1530(11)
C7_2 C 0.5815(10) 0.7810(13) 0.0657(9)
H3_2 H 0.631353 0.800374 0.009820
N1_2 N 0.690(2) 0.710(2) 0.142(2)
O3_2 O 0.669(2) 0.621(2) 0.164(2)
O4_2 O 0.789(2) 0.794(4) 0.109(3)
C8_2 C 0.516(4) 0.641(3) 0.3299(15)
O5 O 0.628(3) 0.691(2) 0.3732(16)
O6 O 0.437(3) 0.559(3) 0.3633(12)
Cd3 Cd 0.52866(11) 0.52866(11) 0.500000
C10_2 C 0.7972(12) 0.4898(20) 0.9399(7)
C11_2 C 0.7688(15) 0.4169(24) 0.8582(8)
H4_2 H 0.779829 0.354239 0.861990
C12_2 C 0.7242(19) 0.4358(31) 0.7709(7)
H5_2 H 0.704776 0.385963 0.715043
C13_2 C 0.7080(16) 0.5275(28) 0.7653(8)
C14_2 C 0.7364(13) 0.6004(21) 0.8470(11)
C15_2 C 0.7810(13) 0.5815(21) 0.9343(9)
H6_2 H 0.800374 0.631353 0.990180
N2_2 N 0.710(2) 0.690(4) 0.858(2)
O9_2 O 0.621(2) 0.669(4) 0.836(2)
O10_2 O 0.794(4) 0.789(6) 0.891(3)
C16_2 C 0.641(3) 0.516(6) 0.6701(15)
O11_2 O 0.691(2) 0.628(4) 0.6268(16)
O12_2 O 0.559(3) 0.437(5) 0.6367(12)
O1_3 O 0.4633(15) 0.6122(12) 0.6238(7)
C1_3 C 0.3875(25) 0.5283(19) 0.6334(13)
O2_3 O 0.352(3) 0.451(2) 0.5824(18)
C2_3 C 0.3074(16) 0.5102(10) 0.7268(7)
C3_3 C 0.3519(19) 0.5831(12) 0.8085(8)
H1_3 H 0.425590 0.645761 0.804677
C4_3 C 0.2884(25) 0.5642(16) 0.8958(7)
H2_3 H 0.318813 0.614037 0.951624
C5_3 C 0.1805(23) 0.4725(16) 0.9014(8)
C6_3 C 0.1360(17) 0.3996(11) 0.8197(11)
C7_3 C 0.1995(16) 0.4185(10) 0.7324(9)
H3_3 H 0.169021 0.368647 0.676487
N1_3 N 0.020(3) 0.310(2) 0.809(2)
O4_3 O 0.005(4) 0.211(2) 0.776(3)
C8_3 C 0.125(5) 0.484(4) 0.9966(15)
O7_3 O 0.6122(17) 0.4633(15) 0.3762(7)
C9_3 C 0.5283(30) 0.3875(25) 0.3666(13)
O8_3 O 0.451(4) 0.352(3) 0.4176(18)
C10_3 C 0.5102(20) 0.3074(16) 0.2732(7)
C11_3 C 0.5831(24) 0.3519(19) 0.1915(8)
H4_3 H 0.645761 0.425590 0.195323
C12_3 C 0.5642(31) 0.2884(25) 0.1042(7)
H5_3 H 0.614037 0.318813 0.048376
C13_3 C 0.4725(28) 0.1805(23) 0.0986(8)
C14_3 C 0.3996(21) 0.1360(17) 0.1803(11)
C15_3 C 0.4185(21) 0.1995(16) 0.2676(9)
H6_3 H 0.368647 0.169021 0.323513
N2_3 N 0.310(4) 0.020(3) 0.191(2)
O10_3 O 0.211(6) 0.005(4) 0.224(3)
C16_3 C 0.484(6) 0.125(5) 0.0034(15)
O9_3 O 0.331(4) 0.952(3) 0.169(2)
O3_3 O 0.952(3) 0.331(2) 0.831(2)
H9 H 0.005882 0.744229 0.263785
C17 C 0.934(4) 0.743(3) 0.272(3)
H7 H 0.897960 0.731336 0.205870
H8 H 0.947988 0.813869 0.300994
N3 N 0.846(2) 0.631(3) 0.3539(12)
H10 H 0.779755 0.630210 0.357074
H11 H 0.832591 0.566654 0.323115
C18 C 0.882(3) 0.626(7) 0.464(2)
H12 H 0.822340 0.558983 0.497567
H13 H 0.951290 0.623397 0.464013
H14 H 0.893396 0.693038 0.501222
C17_2 C 0.257(3) 0.191(5) 0.605(3)
H7_2 H 0.268664 0.166624 0.539203
H8_2 H 0.186131 0.134119 0.634327
H9_2 H 0.255771 0.261653 0.597118
N3_2 N 0.369(3) 0.215(4) 0.6872(12)
H10_2 H 0.369790 0.149545 0.690407
H11_2 H 0.433346 0.265937 0.656448
C18_2 C 0.374(7) 0.256(8) 0.797(2)
H12_2 H 0.441017 0.263357 0.830900
H13_2 H 0.376603 0.327893 0.797346
H14_2 H 0.306962 0.200358 0.834555
N3_3 N 0.785(4) 0.154(2) 0.0206(12)
H10_3 H 0.850455 0.220245 0.023741
C18_3 C 0.744(8) 0.118(3) 0.131(2)
H12_3 H 0.736643 0.177660 0.164234
H13_3 H 0.672107 0.048710 0.130680
H14_3 H 0.799642 0.106604 0.167889
C17_3 C 0.809(5) 0.066(4) 0.939(3)
H7_3 H 0.833376 0.102040 0.872537
H8_3 H 0.865881 0.052012 0.967661
H11_3 H 0.734063 0.167409 0.989782
H9_3 H 0.738347 0.994118 0.930452
C17_4 C 0.191(5) 0.257(3) 0.395(3)
H7_4 H 0.166624 0.268664 0.460797
H8_4 H 0.134119 0.186131 0.365673
H9_4 H 0.261653 0.255771 0.402882
N3_4 N 0.215(4) 0.369(3) 0.3128(12)
H10_4 H 0.149545 0.369790 0.309593
H11_4 H 0.265937 0.433346 0.343552
C18_4 C 0.256(8) 0.374(7) 0.203(2)
H12_4 H 0.263357 0.441017 0.169100
H13_4 H 0.327893 0.376603 0.202654
H14_4 H 0.200358 0.306962 0.165445
C17_5 C 0.066(4) 0.809(5) 0.061(3)
H7_5 H 0.102040 0.833376 0.127463
H8_5 H 0.052012 0.865881 0.032339
H11_5 H 0.167409 0.734063 0.010218
N3_5 N 0.154(2) 0.785(4) 0.9794(12)
H10_5 H 0.220245 0.850455 0.976259
C18_5 C 0.118(3) 0.744(8) 0.869(2)
H12_5 H 0.177660 0.736643 0.835766
H13_5 H 0.048710 0.672107 0.869320
H14_5 H 0.106604 0.799642 0.832111
H9_5 H 0.994118 0.738347 0.069548
H9_6 H 0.744229 0.005882 0.736215
C17_6 C 0.743(3) 0.934(4) 0.728(3)
H7_6 H 0.731336 0.897960 0.794130
H8_6 H 0.813869 0.947988 0.699006
N3_6 N 0.631(3) 0.846(2) 0.6461(12)
H10_6 H 0.630210 0.779755 0.642926
H11_6 H 0.566654 0.832591 0.676885
C18_6 C 0.626(7) 0.882(3) 0.536(2)
H12_6 H 0.558983 0.822340 0.502433
H13_6 H 0.623397 0.951290 0.535987
H14_6 H 0.693038 0.893396 0.498778
loop_
_geom_bond_atom_site_label_1
_geom_bond_atom_site_label_2
_geom_bond_site_symmetry_1
_geom_bond_site_symmetry_2
Cd1 O1 1_555 1_555
O1 C1 1_555 1_555
C1 O2 1_555 1_555
O2 Cd1 1_555 1_555
O13 Cd1 1_555 1_555
O15 Cd1 1_555 1_555
Cd2 O1_2 1_555 1_555
O1_2 C1_2 1_555 1_555
C1_2 O2_2 1_555 1_555
O2_2 Cd2 1_555 1_555
C2 C1_2 1_555 1_555
C3 C2 1_555 1_555
H1 C3 1_555 1_555
C4 C3 1_555 1_555
H2 C4 1_555 1_555
C5 C4 1_555 1_555
C6 C5 1_555 1_555
C7 C2 1_555 1_555
H3 C7 1_555 1_555
N1 C6 1_555 1_555
O4 N1 1_555 1_555
C8 C5 1_555 1_555
O13 C8 1_555 1_555
O15 C8 1_555 1_555
O13_2 Cd2 1_555 1_555
O15_2 Cd2 1_555 1_555
C6 C7 1_555 1_555
O7 Cd1_2 1_555 1_555
C9 O7 1_555 1_555
O8 Cd1_2 1_555 1_555
C10 C9 1_555 1_555
C11 C10 1_555 1_555
H4 C11 1_555 1_555
C12 C11 1_555 1_555
H5 C12 1_555 1_555
C13 C12 1_555 1_555
C14 C13 1_555 1_555
C15 C10 1_555 1_555
H6 C15 1_555 1_555
N2 C14 1_555 1_555
O10 N2 1_555 1_555
C16 C13 1_555 1_555
O11 C16 1_555 1_555
O12 C16 1_555 1_555
Cd2_2 O11 1_555 1_555
O14 Cd1_2 1_555 1_555
O16 Cd1_2 1_555 1_555
C9 O8 1_555 1_555
C14 C15 1_555 1_555
O12 Cd2_2 1_555 1_555
O7_2 Cd2_2 1_555 1_555
C9_2 O7_2 1_555 1_555
O8_2 Cd2_2 1_555 1_555
C9_2 O8_2 1_555 1_555
C3_2 C2_2 1_555 1_555
H1_2 C3_2 1_555 1_555
C4_2 C3_2 1_555 1_555
H2_2 C4_2 1_555 1_555
C5_2 C4_2 1_555 1_555
C6_2 C5_2 1_555 1_555
C7_2 C2_2 1_555 1_555
H3_2 C7_2 1_555 1_555
N1_2 C6_2 1_555 1_555
O3_2 N1_2 1_555 1_555
O4_2 N1_2 1_555 1_555
C8_2 C5_2 1_555 1_555
O5 C8_2 1_555 1_555
O6 C8_2 1_555 1_555
Cd3 O5 1_555 1_555
C6_2 C7_2 1_555 1_555
O6 Cd3 1_555 1_555
C11_2 C10_2 1_555 1_555
H4_2 C11_2 1_555 1_555
C12_2 C11_2 1_555 1_555
H5_2 C12_2 1_555 1_555
C13_2 C12_2 1_555 1_555
C14_2 C13_2 1_555 1_555
C15_2 C10_2 1_555 1_555
H6_2 C15_2 1_555 1_555
N2_2 C14_2 1_555 1_555
O9_2 N2_2 1_555 1_555
O10_2 N2_2 1_555 1_555
C16_2 C13_2 1_555 1_555
O11_2 C16_2 1_555 1_555
O12_2 C16_2 1_555 1_555
Cd3 O11_2 1_555 1_555
C14_2 C15_2 1_555 1_555
O12_2 Cd3 1_555 1_555
Cd3 O1_3 1_555 1_555
O1_3 C1_3 1_555 1_555
C1_3 O2_3 1_555 1_555
O2_3 Cd3 1_555 1_555
C2_3 C1_3 1_555 1_555
C3_3 C2_3 1_555 1_555
H1_3 C3_3 1_555 1_555
C4_3 C3_3 1_555 1_555
H2_3 C4_3 1_555 1_555
C5_3 C4_3 1_555 1_555
C6_3 C5_3 1_555 1_555
C7_3 C2_3 1_555 1_555
H3_3 C7_3 1_555 1_555
N1_3 C6_3 1_555 1_555
O4_3 N1_3 1_555 1_555
C8_3 C5_3 1_555 1_555
O7_3 Cd3 1_555 1_555
C9_3 O7_3 1_555 1_555
O8_3 Cd3 1_555 1_555
C10_3 C9_3 1_555 1_555
C11_3 C10_3 1_555 1_555
H4_3 C11_3 1_555 1_555
C12_3 C11_3 1_555 1_555
H5_3 C12_3 1_555 1_555
C13_3 C12_3 1_555 1_555
C14_3 C13_3 1_555 1_555
C15_3 C10_3 1_555 1_555
H6_3 C15_3 1_555 1_555
N2_3 C14_3 1_555 1_555
O10_3 N2_3 1_555 1_555
C16_3 C13_3 1_555 1_555
C6_3 C7_3 1_555 1_555
C9_3 O8_3 1_555 1_555
C14_3 C15_3 1_555 1_555
C17 H7 1_555 1_555
H8 C17 1_555 1_555
N3 C17 1_555 1_555
H10 N3 1_555 1_555
H11 N3 1_555 1_555
C18 N3 1_555 1_555
H12 C18 1_555 1_555
H13 C18 1_555 1_555
H14 C18 1_555 1_555
C17_2 H7_2 1_555 1_555
H8_2 C17_2 1_555 1_555
H9_2 C17_2 1_555 1_555
N3_2 C17_2 1_555 1_555
H10_2 N3_2 1_555 1_555
H11_2 N3_2 1_555 1_555
C18_2 N3_2 1_555 1_555
H12_2 C18_2 1_555 1_555
H13_2 C18_2 1_555 1_555
H14_2 C18_2 1_555 1_555
H10_3 N3_3 1_555 1_555
C18_3 N3_3 1_555 1_555
H12_3 C18_3 1_555 1_555
H13_3 C18_3 1_555 1_555
H14_3 C18_3 1_555 1_555
C17_3 H7_3 1_555 1_555
H8_3 C17_3 1_555 1_555
C17_4 H7_4 1_555 1_555
H8_4 C17_4 1_555 1_555
H9_4 C17_4 1_555 1_555
N3_4 C17_4 1_555 1_555
H10_4 N3_4 1_555 1_555
H11_4 N3_4 1_555 1_555
C18_4 N3_4 1_555 1_555
H12_4 C18_4 1_555 1_555
H13_4 C18_4 1_555 1_555
H14_4 C18_4 1_555 1_555
C17_5 H7_5 1_555 1_555
H8_5 C17_5 1_555 1_555
H10_5 N3_5 1_555 1_555
C18_5 N3_5 1_555 1_555
H12_5 C18_5 1_555 1_555
H13_5 C18_5 1_555 1_555
H14_5 C18_5 1_555 1_555
C17_6 H7_6 1_555 1_555
H8_6 C17_6 1_555 1_555
N3_6 C17_6 1_555 1_555
H10_6 N3_6 1_555 1_555
H11_6 N3_6 1_555 1_555
C18_6 N3_6 1_555 1_555
H12_6 C18_6 1_555 1_555
H13_6 C18_6 1_555 1_555
H14_6 C18_6 1_555 1_555

#END
