
###############################################################################
#
# This file contains modified crystal structure data generated from the
# MOF subset of the Cambridge Structural Database (CSD) v543 
# hosted by the Cambridge Crystallographic Data Centre (CCDC).
#
# This work is licensed under the Creative Commons
# Attribution-NonCommercial-ShareAlike 4.0 International License.
# To view a copy of this license, visit
# http://creativecommons.org/licenses/by-nc-sa/4.0/
# or send a letter to
# Creative Commons, PO Box 1866, Mountain View, CA 94042, USA.
#
# CIF created using the CSD Python API on 29 September 2022
# The structure has been converted into the P1 space group
# The structure has a 3D framework
# The original CSD entry NAFPUJ02 is in the trigonal crystal system
# The original CSD entry NAFPUJ02 is in a Sohncke space group
# The framework has been calculated to contain at least 10.0% void space
# The void calculation uses a probe of radius 1.32A, grid spacing 0.4
# The framework is charged, counterions have been retained in the structure
#
###############################################################################

data_NAFPUJ02
_chemical_formula_moiety         '(C60 H66 Cd3 N12 O36)n'
_symmetry_cell_setting           triclinic
_symmetry_space_group_name_H-M   'P 1'
_symmetry_Int_Tables_number      1
_space_group_name_Hall           'P 1'
loop_
_symmetry_equiv_pos_site_id
_symmetry_equiv_pos_as_xyz
1 x,y,z
_cell_length_a                   14.2180(12)
_cell_length_b                   14.2180(12)
_cell_length_c                   13.0014(6)
_cell_angle_alpha                90
_cell_angle_beta                 90
_cell_angle_gamma                120
_cell_volume                     2276.13
loop_
_atom_site_label
_atom_site_type_symbol
_atom_site_fract_x
_atom_site_fract_y
_atom_site_fract_z
Cd4 Cd -0.00000(23) 0.47396(16) 0.6667
Cd3 Cd 0.47396(16) -0.00000(23) 0.3333
Cd1 Cd 0.52604(16) 0.52604(16) 0.0000
O13 O 0.568(3) 0.437(3) 0.129(2)
O14 O 0.686(2) 0.618(3) 0.1199(17)
O15 O 0.4672(23) 0.6077(18) 0.1312(11)
O17 O 0.365(3) 0.443(2) 0.0955(16)
Cd1_2 Cd 0.52604(16) 0.52604(16) 1.0000
C1 C 0.523(3) 0.647(2) 0.839(2)
O1 O 0.437(3) 0.568(3) 0.871(2)
C2 C 0.5129(16) 0.6985(17) 0.7410(13)
C3 C 0.4233(14) 0.7128(16) 0.7327(11)
H1 H 0.3706 0.6866 0.7839
C4 C 0.4126(13) 0.7661(15) 0.6478(11)
H2 H 0.3526 0.7757 0.6423
C5 C 0.4914(14) 0.8053(14) 0.5713(10)
C6 C 0.5810(15) 0.7911(19) 0.5796(14)
H3 H 0.6337 0.8173 0.5284
C7 C 0.5917(15) 0.738(2) 0.6644(17)
O2 O 0.618(3) 0.686(2) 0.8801(17)
O3 O 0.3923(18) 0.8595(15) 0.4645(11)
O4 O 0.557(2) 0.922(2) 0.4288(16)
C8 C 0.473(3) 0.856(2) 0.4797(18)
N1 N 0.684(3) 0.728(4) 0.654(3)
O5 O 0.656(3) 0.618(4) 0.665(4)
O6 O 0.750(5) 0.770(6) 0.561(3)
C9 C 0.647(2) 0.523(3) 0.161(2)
C10 C 0.6985(17) 0.5129(16) 0.2590(13)
C11 C 0.7128(16) 0.4233(14) 0.2673(11)
H4 H 0.6866 0.3706 0.2161
C12 C 0.7661(15) 0.4126(13) 0.3522(11)
H5 H 0.7757 0.3526 0.3577
C13 C 0.8053(14) 0.4914(14) 0.4287(10)
C14 C 0.7911(19) 0.5810(15) 0.4204(14)
H6 H 0.8173 0.6337 0.4716
C15 C 0.738(2) 0.5917(15) 0.3356(17)
O9 O 0.8595(15) 0.3923(18) 0.5355(11)
O10 O 0.922(2) 0.557(2) 0.5712(16)
C16 C 0.856(2) 0.473(3) 0.5203(18)
N2 N 0.728(4) 0.684(3) 0.346(3)
O11 O 0.618(4) 0.656(3) 0.335(4)
O12 O 0.770(6) 0.750(5) 0.439(3)
Cd3_2 Cd 0.47396(16) 1.00000(23) 0.3333
Cd4_2 Cd 1.00000(23) 0.47396(16) 0.6667
O16 O 0.6077(18) 0.4672(23) 0.8688(11)
O18 O 0.443(2) 0.365(3) 0.9045(16)
O13_2 O 0.563(3) 0.131(4) 0.462(2)
O14_2 O 0.382(3) 0.068(4) 0.4532(17)
O16_2 O 0.5328(23) 0.1405(29) 0.2022(11)
O18_2 O 0.635(3) 0.078(4) 0.2379(16)
O5_2 O 0.382(4) 0.038(5) 0.998(4)
C9_2 C 0.477(3) 0.124(4) 0.494(2)
C10_2 C 0.4871(16) 0.1856(23) 0.5923(13)
C11_2 C 0.5767(14) 0.2895(21) 0.6006(11)
H4_2 H 0.6294 0.3160 0.5494
C12_2 C 0.5874(13) 0.3535(20) 0.6855(11)
H5_2 H 0.6474 0.4231 0.6910
C13_2 C 0.5086(14) 0.3139(20) 0.7620(10)
C14_2 C 0.4190(15) 0.2101(24) 0.7537(14)
H6_2 H 0.3663 0.1836 0.8049
C15_2 C 0.4083(15) 0.1463(25) 0.6689(17)
C16_2 C 0.527(3) 0.383(4) 0.8536(18)
N2_2 N 0.316(3) 0.044(5) 0.679(3)
O12_2 O 0.250(5) 0.020(8) 0.772(3)
C1_2 C 0.353(2) 0.876(4) 0.172(2)
O1_2 O 0.432(3) 0.869(4) 0.204(2)
C2_2 C 0.3015(17) 0.8144(23) 0.0743(13)
C3_2 C 0.2872(16) 0.7105(21) 0.0660(11)
H1_2 H 0.3134 0.6840 0.1172
O2_2 O 0.314(2) 0.932(4) 0.2134(17)
C4_2 C 0.2339(15) 0.6465(20) 0.9811(11)
H2_2 H 0.2243 0.5769 0.9756
C5_2 C 0.1947(14) 0.6861(20) 0.9046(10)
C6_2 C 0.2089(19) 0.7899(24) 0.9129(14)
H3_2 H 0.1827 0.8164 0.8617
C7_2 C 0.262(2) 0.8537(25) 0.9977(17)
O3_2 O 0.1405(15) 0.5328(23) 0.7978(11)
O4_2 O 0.078(2) 0.635(3) 0.7621(16)
C8_2 C 0.144(2) 0.617(4) 0.8130(18)
N1_2 N 0.272(4) 0.956(5) 0.987(3)
O6_2 O 0.230(6) 0.980(8) 0.894(3)
O11_2 O 0.344(3) 0.962(5) 0.668(4)
C1_3 C 0.124(4) 0.477(3) 0.506(2)
O1_3 O 0.131(4) 0.563(3) 0.538(2)
C2_3 C 0.1856(23) 0.4871(16) 0.4077(13)
C3_3 C 0.2895(21) 0.5767(14) 0.3994(11)
H1_3 H 0.3160 0.6294 0.4506
C4_3 C 0.3535(20) 0.5874(13) 0.3145(11)
H2_3 H 0.4231 0.6474 0.3090
C5_3 C 0.3139(20) 0.5086(14) 0.2380(10)
C6_3 C 0.2101(24) 0.4190(15) 0.2463(14)
H3_3 H 0.1836 0.3663 0.1951
C7_3 C 0.1463(25) 0.4083(15) 0.3311(17)
O2_3 O 0.068(4) 0.382(3) 0.5468(17)
C8_3 C 0.383(4) 0.527(3) 0.1464(18)
N1_3 N 0.044(5) 0.316(3) 0.321(3)
O6_3 O 0.020(8) 0.250(5) 0.228(3)
O11_3 O 0.038(5) 0.382(4) 0.002(4)
O5_3 O 0.962(5) 0.344(3) 0.332(4)
C12_3 C 0.6465(20) 0.2339(15) 0.0189(11)
H5_3 H 0.5769 0.2243 0.0244
C13_3 C 0.6861(20) 0.1947(14) 0.0954(10)
C14_3 C 0.7899(24) 0.2089(19) 0.0871(14)
H6_3 H 0.8164 0.1827 0.1383
C15_3 C 0.8537(25) 0.262(2) 0.0023(17)
C16_3 C 0.617(4) 0.144(2) 0.1870(18)
N2_3 N 0.956(5) 0.272(4) 0.013(3)
O12_3 O 0.980(8) 0.230(6) 0.106(3)
O13_3 O 0.869(4) 0.432(3) 0.796(2)
O14_3 O 0.932(4) 0.314(2) 0.7866(17)
C9_3 C 0.876(4) 0.353(2) 0.828(2)
C10_3 C 0.8144(23) 0.3015(17) 0.9257(13)
C11_3 C 0.7105(21) 0.2872(16) 0.9340(11)
H4_3 H 0.6840 0.3134 0.8828
N3 N 0.226(3) 0.390(4) 0.821(3)
H7 H 0.1811 0.4161 0.8282
H8 H 0.2923 0.4381 0.8428
C17 C 0.226(7) 0.356(6) 0.733(4)
H9 H 0.2786 0.3336 0.7279
H10 H 0.2426 0.4133 0.6837
H11 H 0.1549 0.2958 0.7177
C18 C 0.179(8) 0.267(8) 0.872(4)
H12 H 0.1149 0.2153 0.8348
H13 H 0.1601 0.2680 0.9427
H14 H 0.2331 0.2460 0.8673
N3_2 N 0.610(4) 0.836(5) 0.154(3)
H7_2 H 0.5839 0.7650 0.1615
H8_2 H 0.5619 0.8542 0.1761
C17_2 C 0.644(6) 0.870(9) 0.066(4)
H9_2 H 0.6664 0.9450 0.0612
H10_2 H 0.5867 0.8293 0.0170
H11_2 H 0.7042 0.8591 0.0510
C18_2 C 0.733(8) 0.912(11) 0.205(4)
H12_2 H 0.7847 0.8996 0.1681
H13_2 H 0.7320 0.8921 0.2760
H14_2 H 0.7540 0.9871 0.2006
N3_3 N 0.164(5) 0.774(3) 0.488(3)
H7_3 H 0.2350 0.8189 0.4949
H8_3 H 0.1458 0.7077 0.5095
C17_3 C 0.130(9) 0.774(7) 0.400(4)
H9_3 H 0.0550 0.7214 0.3946
H10_3 H 0.1707 0.7574 0.3504
H11_3 H 0.1409 0.8451 0.3844
C18_3 C 0.088(11) 0.821(8) 0.539(4)
H12_3 H 0.1004 0.8851 0.5015
H13_3 H 0.1079 0.8399 0.6094
H14_3 H 0.0129 0.7669 0.5340
N3_4 N 0.836(5) 0.610(4) 0.846(3)
H7_4 H 0.7650 0.5839 0.8385
H8_4 H 0.8542 0.5619 0.8239
C17_4 C 0.870(9) 0.644(6) 0.934(4)
H9_4 H 0.9450 0.6664 0.9388
H10_4 H 0.8293 0.5867 0.9830
H11_4 H 0.8591 0.7042 0.9490
C18_4 C 0.912(11) 0.733(8) 0.795(4)
H12_4 H 0.8996 0.7847 0.8319
H13_4 H 0.8921 0.7320 0.7240
H14_4 H 0.9871 0.7540 0.7994
N3_5 N 0.774(3) 0.164(5) 0.512(3)
H7_5 H 0.8189 0.2350 0.5051
H8_5 H 0.7077 0.1458 0.4905
C17_5 C 0.774(7) 0.130(9) 0.600(4)
H9_5 H 0.7214 0.0550 0.6054
H10_5 H 0.7574 0.1707 0.6496
H11_5 H 0.8451 0.1409 0.6156
C18_5 C 0.821(8) 0.088(11) 0.461(4)
H12_5 H 0.8851 0.1004 0.4985
H13_5 H 0.8399 0.1079 0.3906
H14_5 H 0.7669 0.0129 0.4660
N3_6 N 0.390(4) 0.226(3) 0.179(3)
H7_6 H 0.4161 0.1811 0.1718
H8_6 H 0.4381 0.2923 0.1572
C17_6 C 0.356(6) 0.226(7) 0.267(4)
H9_6 H 0.3336 0.2786 0.2721
H10_6 H 0.4133 0.2426 0.3163
H11_6 H 0.2958 0.1549 0.2823
C18_6 C 0.267(8) 0.179(8) 0.128(4)
H12_6 H 0.2153 0.1149 0.1652
H13_6 H 0.2680 0.1601 0.0573
H14_6 H 0.2460 0.2331 0.1327
loop_
_geom_bond_atom_site_label_1
_geom_bond_atom_site_label_2
_geom_bond_site_symmetry_1
_geom_bond_site_symmetry_2
O13 Cd1 1_555 1_555
O14 Cd1 1_555 1_555
O15 Cd1 1_555 1_555
O17 Cd1 1_555 1_555
Cd1_2 O1 1_555 1_555
C1 O1 1_555 1_555
C2 C1 1_555 1_555
C3 C2 1_555 1_555
H1 C3 1_555 1_555
C4 C3 1_555 1_555
H2 C4 1_555 1_555
C5 C4 1_555 1_555
C6 C5 1_555 1_555
H3 C6 1_555 1_555
C7 C2 1_555 1_555
O2 Cd1_2 1_555 1_555
O3 C8 1_555 1_555
O4 C8 1_555 1_555
C8 C5 1_555 1_555
N1 C7 1_555 1_555
O5 N1 1_555 1_555
O6 N1 1_555 1_555
C9 O13 1_555 1_555
C10 C9 1_555 1_555
C11 C10 1_555 1_555
H4 C11 1_555 1_555
C12 C11 1_555 1_555
H5 C12 1_555 1_555
C13 C12 1_555 1_555
C14 C13 1_555 1_555
H6 C14 1_555 1_555
C15 C10 1_555 1_555
O14 C9 1_555 1_555
O9 C16 1_555 1_555
O10 C16 1_555 1_555
C16 C13 1_555 1_555
N2 C15 1_555 1_555
O11 N2 1_555 1_555
O12 O6 1_555 1_555
Cd3_2 O3 1_555 1_555
Cd4_2 O9 1_555 1_555
O16 Cd1_2 1_555 1_555
O18 Cd1_2 1_555 1_555
C1 O2 1_555 1_555
C6 C7 1_555 1_555
O4 Cd3_2 1_555 1_555
C14 C15 1_555 1_555
O10 Cd4_2 1_555 1_555
N2 O12 1_555 1_555
O13_2 Cd3 1_555 1_555
O14_2 Cd3 1_555 1_555
O16_2 Cd3 1_555 1_555
O18_2 Cd3 1_555 1_555
C9_2 O13_2 1_555 1_555
C10_2 C9_2 1_555 1_555
C11_2 C10_2 1_555 1_555
H4_2 C11_2 1_555 1_555
C12_2 C11_2 1_555 1_555
H5_2 C12_2 1_555 1_555
C13_2 C12_2 1_555 1_555
C14_2 C13_2 1_555 1_555
H6_2 C14_2 1_555 1_555
C15_2 C10_2 1_555 1_555
O14_2 C9_2 1_555 1_555
O16 C16_2 1_555 1_555
O18 C16_2 1_555 1_555
C16_2 C13_2 1_555 1_555
N2_2 C15_2 1_555 1_555
C14_2 C15_2 1_555 1_555
N2_2 O12_2 1_555 1_555
Cd3_2 O1_2 1_555 1_555
C1_2 O1_2 1_555 1_555
C2_2 C1_2 1_555 1_555
C3_2 C2_2 1_555 1_555
H1_2 C3_2 1_555 1_555
O2_2 Cd3_2 1_555 1_555
C1_2 O2_2 1_555 1_555
H2_2 C4_2 1_555 1_555
C5_2 C4_2 1_555 1_555
C6_2 C5_2 1_555 1_555
H3_2 C6_2 1_555 1_555
O3_2 C8_2 1_555 1_555
O4_2 C8_2 1_555 1_555
C8_2 C5_2 1_555 1_555
N1_2 C7_2 1_555 1_555
O6_2 N1_2 1_555 1_555
Cd4 O3_2 1_555 1_555
C6_2 C7_2 1_555 1_555
O4_2 Cd4 1_555 1_555
Cd4 O1_3 1_555 1_555
C1_3 O1_3 1_555 1_555
C2_3 C1_3 1_555 1_555
C3_3 C2_3 1_555 1_555
H1_3 C3_3 1_555 1_555
C4_3 C3_3 1_555 1_555
H2_3 C4_3 1_555 1_555
C5_3 C4_3 1_555 1_555
C6_3 C5_3 1_555 1_555
H3_3 C6_3 1_555 1_555
C7_3 C2_3 1_555 1_555
O2_3 Cd4 1_555 1_555
O15 C8_3 1_555 1_555
O17 C8_3 1_555 1_555
C8_3 C5_3 1_555 1_555
N1_3 C7_3 1_555 1_555
O6_3 N1_3 1_555 1_555
C1_3 O2_3 1_555 1_555
C6_3 C7_3 1_555 1_555
H5_3 C12_3 1_555 1_555
C13_3 C12_3 1_555 1_555
C14_3 C13_3 1_555 1_555
H6_3 C14_3 1_555 1_555
O16_2 C16_3 1_555 1_555
O18_2 C16_3 1_555 1_555
C16_3 C13_3 1_555 1_555
N2_3 C15_3 1_555 1_555
O13_3 Cd4_2 1_555 1_555
O14_3 Cd4_2 1_555 1_555
C14_3 C15_3 1_555 1_555
N2_3 O12_3 1_555 1_555
C9_3 O13_3 1_555 1_555
C10_3 C9_3 1_555 1_555
C11_3 C10_3 1_555 1_555
H4_3 C11_3 1_555 1_555
O14_3 C9_3 1_555 1_555
N3 H7 1_555 1_555
H8 N3 1_555 1_555
C17 N3 1_555 1_555
H9 C17 1_555 1_555
H10 C17 1_555 1_555
H11 C17 1_555 1_555
C18 N3 1_555 1_555
H12 C18 1_555 1_555
H13 C18 1_555 1_555
H14 C18 1_555 1_555
N3_2 H7_2 1_555 1_555
H8_2 N3_2 1_555 1_555
C17_2 N3_2 1_555 1_555
H9_2 C17_2 1_555 1_555
H10_2 C17_2 1_555 1_555
H11_2 C17_2 1_555 1_555
C18_2 N3_2 1_555 1_555
H12_2 C18_2 1_555 1_555
H13_2 C18_2 1_555 1_555
H14_2 C18_2 1_555 1_555
N3_3 H7_3 1_555 1_555
H8_3 N3_3 1_555 1_555
C17_3 N3_3 1_555 1_555
H9_3 C17_3 1_555 1_555
H10_3 C17_3 1_555 1_555
H11_3 C17_3 1_555 1_555
C18_3 N3_3 1_555 1_555
H12_3 C18_3 1_555 1_555
H13_3 C18_3 1_555 1_555
H14_3 C18_3 1_555 1_555
N3_4 H7_4 1_555 1_555
H8_4 N3_4 1_555 1_555
C17_4 N3_4 1_555 1_555
H9_4 C17_4 1_555 1_555
H10_4 C17_4 1_555 1_555
H11_4 C17_4 1_555 1_555
C18_4 N3_4 1_555 1_555
H12_4 C18_4 1_555 1_555
H13_4 C18_4 1_555 1_555
H14_4 C18_4 1_555 1_555
N3_5 H7_5 1_555 1_555
H8_5 N3_5 1_555 1_555
C17_5 N3_5 1_555 1_555
H9_5 C17_5 1_555 1_555
H10_5 C17_5 1_555 1_555
H11_5 C17_5 1_555 1_555
C18_5 N3_5 1_555 1_555
H12_5 C18_5 1_555 1_555
H13_5 C18_5 1_555 1_555
H14_5 C18_5 1_555 1_555
N3_6 H7_6 1_555 1_555
H8_6 N3_6 1_555 1_555
C17_6 N3_6 1_555 1_555
H9_6 C17_6 1_555 1_555
H10_6 C17_6 1_555 1_555
H11_6 C17_6 1_555 1_555
C18_6 N3_6 1_555 1_555
H12_6 C18_6 1_555 1_555
H13_6 C18_6 1_555 1_555
H14_6 C18_6 1_555 1_555

#END
