
###############################################################################
#
# This file contains modified crystal structure data generated from the
# MOF subset of the Cambridge Structural Database (CSD) v543 
# hosted by the Cambridge Crystallographic Data Centre (CCDC).
#
# This work is licensed under the Creative Commons
# Attribution-NonCommercial-ShareAlike 4.0 International License.
# To view a copy of this license, visit
# http://creativecommons.org/licenses/by-nc-sa/4.0/
# or send a letter to
# Creative Commons, PO Box 1866, Mountain View, CA 94042, USA.
#
# CIF created using the CSD Python API on 29 September 2022
# The structure has been converted into the P1 space group
# The structure has a 3D framework
# The original CSD entry NAFPOD is in the trigonal crystal system
# The original CSD entry NAFPOD is in a Sohncke space group
# The framework has been calculated to contain at least 10.0% void space
# The void calculation uses a probe of radius 1.32A, grid spacing 0.4
# The framework is charged, counterions have been retained in the structure
#
###############################################################################

data_NAFPOD
_chemical_formula_moiety         '(C60 H66 Cd6 N12 O36)n'
_symmetry_cell_setting           triclinic
_symmetry_space_group_name_H-M   'P 1'
_symmetry_Int_Tables_number      1
_space_group_name_Hall           'P 1'
loop_
_symmetry_equiv_pos_site_id
_symmetry_equiv_pos_as_xyz
1 x,y,z
_cell_length_a                   13.9484(7)
_cell_length_b                   13.9484(7)
_cell_length_c                   13.1157(4)
_cell_angle_alpha                90
_cell_angle_beta                 90
_cell_angle_gamma                120
_cell_volume                     2209.89
loop_
_atom_site_label
_atom_site_type_symbol
_atom_site_fract_x
_atom_site_fract_y
_atom_site_fract_z
Cd1 Cd 0.47065(8) 0.47065(8) 0.0000
O1 O 0.4320(16) 0.5538(16) 0.1316(10)
O2 O 0.3113(12) 0.3771(15) 0.1228(9)
C1 C 0.3480(17) 0.4675(18) 0.1652(11)
C2 C 0.2978(10) 0.4800(9) 0.2636(6)
C3 C 0.2799(11) 0.5694(9) 0.2686(6)
H1 H 0.3016 0.6194 0.2148
C4 C 0.2296(9) 0.5841(8) 0.3540(6)
H2 H 0.2177 0.6439 0.3574
C5 C 0.1972(9) 0.5094(8) 0.4344(5)
C6 C 0.2150(10) 0.4200(8) 0.4294(7)
H3 H 0.1933 0.3700 0.4832
C7 C 0.2653(10) 0.4053(8) 0.3440(7)
O3 O 0.1465(9) 0.6139(10) 0.5404(7)
O4 O 0.0876(14) 0.4468(13) 0.5778(11)
C8 C 0.1424(12) 0.5273(14) 0.5248(10)
N1 N 0.278(2) 0.3115(19) 0.3468(19)
O5 O 0.384(2) 0.339(2) 0.3291(19)
O6 O 0.214(4) 0.226(3) 0.394(3)
Cd3 Cd -0.00000(11) 0.52935(8) 0.6667
O14 O 0.5326(13) 0.3861(10) 0.1263(7)
O16 O 0.6408(19) 0.5532(13) 0.0889(11)
Cd3_2 Cd 1.00000(11) 0.52935(8) 0.6667
C12 C 0.7704(9) 0.3545(12) 0.9793(6)
H5 H 0.7823 0.4262 0.9759
C13 C 0.8028(9) 0.3122(12) 0.8989(5)
C14 C 0.7850(10) 0.2050(13) 0.9039(7)
H6 H 0.8067 0.1767 0.8501
C15 C 0.7347(10) 0.1400(13) 0.9893(7)
O9 O 0.8535(9) 0.4674(13) 0.7929(7)
O10 O 0.9124(14) 0.3592(19) 0.7555(11)
C16 C 0.8576(12) 0.3849(18) 0.8085(10)
N2 N 0.722(2) 0.0335(28) 0.9865(19)
O12 O 0.786(4) 0.012(5) 0.939(3)
O1_2 O 0.1218(23) 0.5680(16) 0.7983(10)
O2_2 O 0.0658(19) 0.6887(12) 0.7895(9)
C1_2 C 0.1195(25) 0.6520(17) 0.8319(11)
C2_2 C 0.1822(13) 0.7022(10) 0.9303(6)
C3_2 C 0.2895(14) 0.7201(11) 0.9353(6)
H1_2 H 0.3178 0.6984 0.8815
O11 O 0.045(3) 0.661(2) 0.3376(19)
O5_2 O 0.955(3) 0.616(2) 0.9958(19)
O7 O 0.8782(23) 0.4462(16) 0.5351(10)
O8 O 0.9342(19) 0.6229(15) 0.5439(9)
C9 C 0.8805(25) 0.5325(18) 0.5015(11)
C10 C 0.8178(13) 0.5200(9) 0.4031(6)
C11 C 0.7105(14) 0.4306(9) 0.3981(6)
H4 H 0.6822 0.3806 0.4519
C12_2 C 0.6455(12) 0.4159(8) 0.3127(6)
H5_2 H 0.5738 0.3561 0.3093
C13_2 C 0.6878(12) 0.4906(8) 0.2323(5)
C14_2 C 0.7950(13) 0.5800(8) 0.2373(7)
H6_2 H 0.8233 0.6300 0.1835
C15_2 C 0.8600(13) 0.5947(8) 0.3227(7)
C16_2 C 0.6151(18) 0.4727(14) 0.1419(10)
N2_2 N 0.9665(28) 0.6885(19) 0.3199(19)
O12_2 O 0.988(5) 0.774(3) 0.273(3)
Cd1_2 Cd 0.47065(8) 0.47065(8) 1.0000
O7_2 O 0.5538(16) 0.4320(16) 0.8684(10)
O8_2 O 0.3771(15) 0.3113(12) 0.8772(9)
C9_2 C 0.4675(18) 0.3480(17) 0.8348(11)
C10_2 C 0.4800(9) 0.2978(10) 0.7364(6)
C11_2 C 0.5694(9) 0.2799(11) 0.7314(6)
H4_2 H 0.6194 0.3016 0.7852
C12_3 C 0.5841(8) 0.2296(9) 0.6460(6)
H5_3 H 0.6439 0.2177 0.6426
C13_3 C 0.5094(8) 0.1972(9) 0.5656(5)
C14_3 C 0.4200(8) 0.2150(10) 0.5706(7)
H6_3 H 0.3700 0.1933 0.5168
C15_3 C 0.4053(8) 0.2653(10) 0.6560(7)
O9_2 O 0.6139(10) 0.1465(9) 0.4596(7)
O10_2 O 0.4468(13) 0.0876(14) 0.4222(11)
C16_3 C 0.5273(14) 0.1424(12) 0.4752(10)
N2_3 N 0.3115(19) 0.278(2) 0.6532(19)
O11_2 O 0.339(2) 0.384(2) 0.6709(19)
O12_3 O 0.226(3) 0.214(4) 0.606(3)
Cd2 Cd 0.52935(8) 0.00000(11) 0.3333
O13 O 0.3861(10) 0.5326(13) 0.8737(7)
O15 O 0.5532(13) 0.6408(19) 0.9111(11)
Cd2_2 Cd 0.52935(8) 1.00000(11) 0.3333
O5_3 O 0.661(2) 0.045(3) 0.6624(19)
O7_3 O 0.5680(16) 0.1218(23) 0.2017(10)
O8_3 O 0.6887(12) 0.0658(19) 0.2105(9)
C9_3 C 0.6520(17) 0.1195(25) 0.1681(11)
C10_3 C 0.7022(10) 0.1822(13) 0.0697(6)
C11_3 C 0.7201(11) 0.2895(14) 0.0647(6)
H4_3 H 0.6984 0.3178 0.1185
O1_3 O 0.4462(16) 0.8782(23) 0.4649(10)
O2_3 O 0.6229(15) 0.9342(19) 0.4561(9)
C1_3 C 0.5325(18) 0.8805(25) 0.4985(11)
C2_3 C 0.5200(9) 0.8178(13) 0.5969(6)
C3_3 C 0.4306(9) 0.7105(14) 0.6019(6)
H1_3 H 0.3806 0.6822 0.5481
C4_2 C 0.4159(8) 0.6455(12) 0.6873(6)
H2_2 H 0.3561 0.5738 0.6907
C5_2 C 0.4906(8) 0.6878(12) 0.7677(5)
C6_2 C 0.5800(8) 0.7950(13) 0.7627(7)
H3_2 H 0.6300 0.8233 0.8165
C7_2 C 0.5947(8) 0.8600(13) 0.6773(7)
C8_2 C 0.4727(14) 0.6151(18) 0.8581(10)
N1_2 N 0.6885(19) 0.9665(28) 0.6801(19)
O6_2 O 0.774(3) 0.988(5) 0.727(3)
O11_3 O 0.616(2) 0.955(3) 0.0042(19)
O13_2 O 0.4674(13) 0.8535(16) 0.2071(7)
O15_2 O 0.3592(19) 0.9124(23) 0.2445(11)
C4_3 C 0.3545(12) 0.7704(9) 0.0207(6)
H2_3 H 0.4262 0.7823 0.0241
C5_3 C 0.3122(12) 0.8028(9) 0.1011(5)
C6_3 C 0.2050(13) 0.7850(10) 0.0961(7)
H3_3 H 0.1767 0.8067 0.1499
C7_3 C 0.1400(13) 0.7347(10) 0.0107(7)
C8_3 C 0.3849(18) 0.8576(12) 0.1915(10)
N1_3 N 0.0335(28) 0.722(2) 0.0135(19)
O6_3 O 0.012(5) 0.786(4) 0.061(3)
N3 N 0.2316(19) 0.8428(18) 0.5194(18)
H7 H 0.1921 0.7694 0.5146
H8 H 0.2986 0.8658 0.4934
C17 C 0.239(4) 0.878(2) 0.623(3)
H9 H 0.2751 0.8467 0.6630
H10 H 0.1664 0.8524 0.6497
H11 H 0.2817 0.9569 0.6266
C18 C 0.175(4) 0.895(3) 0.465(2)
H12 H 0.2201 0.9741 0.4695
H13 H 0.1046 0.8712 0.4954
H14 H 0.1657 0.8732 0.3945
N3_2 N 0.1572(18) 0.3888(26) 0.8527(18)
H7_2 H 0.2306 0.4227 0.8479
H8_2 H 0.1342 0.4328 0.8267
C17_2 C 0.122(2) 0.361(4) 0.956(3)
H9_2 H 0.1533 0.4284 0.9963
H10_2 H 0.1476 0.3140 0.9830
H11_2 H 0.0431 0.3248 0.9599
C18_2 C 0.105(3) 0.280(5) 0.798(2)
H12_2 H 0.0259 0.2460 0.8028
H13_2 H 0.1288 0.2334 0.8287
H14_2 H 0.1268 0.2925 0.7278
N3_3 N 0.6112(26) 0.7684(19) 0.1861(18)
H7_3 H 0.5773 0.8079 0.1813
H8_3 H 0.5672 0.7014 0.1601
C17_3 C 0.639(4) 0.761(4) 0.290(3)
H9_3 H 0.5716 0.7249 0.3297
H10_3 H 0.6860 0.8336 0.3164
H11_3 H 0.6752 0.7183 0.2933
C18_3 C 0.720(5) 0.825(4) 0.132(2)
H12_3 H 0.7540 0.7799 0.1362
H13_3 H 0.7666 0.8954 0.1621
H14_3 H 0.7075 0.8343 0.0612
N3_4 N 0.3888(26) 0.1572(18) 0.1473(18)
H7_4 H 0.4227 0.2306 0.1521
H8_4 H 0.4328 0.1342 0.1733
C17_4 C 0.361(4) 0.122(2) 0.044(3)
H9_4 H 0.4284 0.1533 0.0037
H10_4 H 0.3140 0.1476 0.0170
H11_4 H 0.3248 0.0431 0.0401
C18_4 C 0.280(5) 0.105(3) 0.202(2)
H12_4 H 0.2460 0.0259 0.1972
H13_4 H 0.2334 0.1288 0.1713
H14_4 H 0.2925 0.1268 0.2722
N3_5 N 0.7684(19) 0.6112(26) 0.8139(18)
H7_5 H 0.8079 0.5773 0.8187
H8_5 H 0.7014 0.5672 0.8399
C17_5 C 0.761(4) 0.639(4) 0.710(3)
H9_5 H 0.7249 0.5716 0.6703
H10_5 H 0.8336 0.6860 0.6836
H11_5 H 0.7183 0.6752 0.7067
C18_5 C 0.825(4) 0.720(5) 0.868(2)
H12_5 H 0.7799 0.7540 0.8638
H13_5 H 0.8954 0.7666 0.8379
H14_5 H 0.8343 0.7075 0.9388
N3_6 N 0.8428(18) 0.2316(19) 0.4806(18)
H7_6 H 0.7694 0.1921 0.4854
H8_6 H 0.8658 0.2986 0.5066
C17_6 C 0.878(2) 0.239(4) 0.377(3)
H9_6 H 0.8467 0.2751 0.3370
H10_6 H 0.8524 0.1664 0.3503
H11_6 H 0.9569 0.2817 0.3734
C18_6 C 0.895(3) 0.175(4) 0.535(2)
H12_6 H 0.9741 0.2201 0.5305
H13_6 H 0.8712 0.1046 0.5046
H14_6 H 0.8732 0.1657 0.6055
loop_
_geom_bond_atom_site_label_1
_geom_bond_atom_site_label_2
_geom_bond_site_symmetry_1
_geom_bond_site_symmetry_2
Cd1 O1 1_555 1_555
O1 C1 1_555 1_555
O2 Cd1 1_555 1_555
C1 O2 1_555 1_555
C2 C1 1_555 1_555
C3 C2 1_555 1_555
H1 C3 1_555 1_555
C4 C3 1_555 1_555
H2 C4 1_555 1_555
C5 C4 1_555 1_555
C6 C5 1_555 1_555
H3 C6 1_555 1_555
C7 C2 1_555 1_555
O3 C8 1_555 1_555
O4 C8 1_555 1_555
C8 C5 1_555 1_555
N1 C7 1_555 1_555
O5 N1 1_555 1_555
O6 N1 1_555 1_555
Cd3 O3 1_555 1_555
O14 Cd1 1_555 1_555
O16 Cd1 1_555 1_555
C6 C7 1_555 1_555
O4 Cd3 1_555 1_555
H5 C12 1_555 1_555
C13 C12 1_555 1_555
C14 C13 1_555 1_555
H6 C14 1_555 1_555
O9 C16 1_555 1_555
O10 C16 1_555 1_555
C16 C13 1_555 1_555
N2 C15 1_555 1_555
O12 N2 1_555 1_555
Cd3_2 O9 1_555 1_555
C14 C15 1_555 1_555
O10 Cd3_2 1_555 1_555
Cd3 O1_2 1_555 1_555
O1_2 C1_2 1_555 1_555
O2_2 Cd3 1_555 1_555
C1_2 O2_2 1_555 1_555
C2_2 C1_2 1_555 1_555
C3_2 C2_2 1_555 1_555
H1_2 C3_2 1_555 1_555
O7 Cd3_2 1_555 1_555
O8 Cd3_2 1_555 1_555
C9 O7 1_555 1_555
C10 C9 1_555 1_555
C11 C10 1_555 1_555
H4 C11 1_555 1_555
C12_2 C11 1_555 1_555
H5_2 C12_2 1_555 1_555
C13_2 C12_2 1_555 1_555
C14_2 C13_2 1_555 1_555
H6_2 C14_2 1_555 1_555
C15_2 C10 1_555 1_555
O14 C16_2 1_555 1_555
O16 C16_2 1_555 1_555
C16_2 C13_2 1_555 1_555
N2_2 C15_2 1_555 1_555
O12_2 N2_2 1_555 1_555
O8 C9 1_555 1_555
C14_2 C15_2 1_555 1_555
O7_2 Cd1_2 1_555 1_555
O8_2 Cd1_2 1_555 1_555
C9_2 O7_2 1_555 1_555
C10_2 C9_2 1_555 1_555
C11_2 C10_2 1_555 1_555
H4_2 C11_2 1_555 1_555
C12_3 C11_2 1_555 1_555
H5_3 C12_3 1_555 1_555
C13_3 C12_3 1_555 1_555
C14_3 C13_3 1_555 1_555
H6_3 C14_3 1_555 1_555
C15_3 C10_2 1_555 1_555
O9_2 C16_3 1_555 1_555
O10_2 C16_3 1_555 1_555
C16_3 C13_3 1_555 1_555
N2_3 C15_3 1_555 1_555
O11_2 N2_3 1_555 1_555
O12_3 N2_3 1_555 1_555
Cd2 O9_2 1_555 1_555
O13 Cd1_2 1_555 1_555
O15 Cd1_2 1_555 1_555
O8_2 C9_2 1_555 1_555
C14_3 C15_3 1_555 1_555
O10_2 Cd2 1_555 1_555
O7_3 Cd2 1_555 1_555
O8_3 Cd2 1_555 1_555
C9_3 O7_3 1_555 1_555
C10_3 C9_3 1_555 1_555
C11_3 C10_3 1_555 1_555
H4_3 C11_3 1_555 1_555
O8_3 C9_3 1_555 1_555
Cd2_2 O1_3 1_555 1_555
O1_3 C1_3 1_555 1_555
O2_3 Cd2_2 1_555 1_555
C1_3 O2_3 1_555 1_555
C2_3 C1_3 1_555 1_555
C3_3 C2_3 1_555 1_555
H1_3 C3_3 1_555 1_555
C4_2 C3_3 1_555 1_555
H2_2 C4_2 1_555 1_555
C5_2 C4_2 1_555 1_555
C6_2 C5_2 1_555 1_555
H3_2 C6_2 1_555 1_555
C7_2 C2_3 1_555 1_555
O13 C8_2 1_555 1_555
O15 C8_2 1_555 1_555
C8_2 C5_2 1_555 1_555
N1_2 C7_2 1_555 1_555
O6_2 N1_2 1_555 1_555
O13_2 Cd2_2 1_555 1_555
O15_2 Cd2_2 1_555 1_555
C6_2 C7_2 1_555 1_555
H2_3 C4_3 1_555 1_555
C5_3 C4_3 1_555 1_555
C6_3 C5_3 1_555 1_555
H3_3 C6_3 1_555 1_555
O13_2 C8_3 1_555 1_555
O15_2 C8_3 1_555 1_555
C8_3 C5_3 1_555 1_555
N1_3 C7_3 1_555 1_555
O6_3 N1_3 1_555 1_555
C6_3 C7_3 1_555 1_555
N3 H7 1_555 1_555
H8 N3 1_555 1_555
C17 N3 1_555 1_555
H9 C17 1_555 1_555
H10 C17 1_555 1_555
H11 C17 1_555 1_555
C18 N3 1_555 1_555
H12 C18 1_555 1_555
H13 C18 1_555 1_555
H14 C18 1_555 1_555
N3_2 H7_2 1_555 1_555
H8_2 N3_2 1_555 1_555
C17_2 N3_2 1_555 1_555
H9_2 C17_2 1_555 1_555
H10_2 C17_2 1_555 1_555
H11_2 C17_2 1_555 1_555
C18_2 N3_2 1_555 1_555
H12_2 C18_2 1_555 1_555
H13_2 C18_2 1_555 1_555
H14_2 C18_2 1_555 1_555
N3_3 H7_3 1_555 1_555
H8_3 N3_3 1_555 1_555
C17_3 N3_3 1_555 1_555
H9_3 C17_3 1_555 1_555
H10_3 C17_3 1_555 1_555
H11_3 C17_3 1_555 1_555
C18_3 N3_3 1_555 1_555
H12_3 C18_3 1_555 1_555
H13_3 C18_3 1_555 1_555
H14_3 C18_3 1_555 1_555
N3_4 H7_4 1_555 1_555
H8_4 N3_4 1_555 1_555
C17_4 N3_4 1_555 1_555
H9_4 C17_4 1_555 1_555
H10_4 C17_4 1_555 1_555
H11_4 C17_4 1_555 1_555
C18_4 N3_4 1_555 1_555
H12_4 C18_4 1_555 1_555
H13_4 C18_4 1_555 1_555
H14_4 C18_4 1_555 1_555
N3_5 H7_5 1_555 1_555
H8_5 N3_5 1_555 1_555
C17_5 N3_5 1_555 1_555
H9_5 C17_5 1_555 1_555
H10_5 C17_5 1_555 1_555
H11_5 C17_5 1_555 1_555
C18_5 N3_5 1_555 1_555
H12_5 C18_5 1_555 1_555
H13_5 C18_5 1_555 1_555
H14_5 C18_5 1_555 1_555
N3_6 H7_6 1_555 1_555
H8_6 N3_6 1_555 1_555
C17_6 N3_6 1_555 1_555
H9_6 C17_6 1_555 1_555
H10_6 C17_6 1_555 1_555
H11_6 C17_6 1_555 1_555
C18_6 N3_6 1_555 1_555
H12_6 C18_6 1_555 1_555
H13_6 C18_6 1_555 1_555
H14_6 C18_6 1_555 1_555

#END
