
###############################################################################
#
# This file contains modified crystal structure data generated from the
# MOF subset of the Cambridge Structural Database (CSD) v543 
# hosted by the Cambridge Crystallographic Data Centre (CCDC).
#
# This work is licensed under the Creative Commons
# Attribution-NonCommercial-ShareAlike 4.0 International License.
# To view a copy of this license, visit
# http://creativecommons.org/licenses/by-nc-sa/4.0/
# or send a letter to
# Creative Commons, PO Box 1866, Mountain View, CA 94042, USA.
#
# CIF created using the CSD Python API on 29 September 2022
# The structure has been converted into the P1 space group
# The structure has a 3D framework
# The original CSD entry NAFQIY is in the trigonal crystal system
# The original CSD entry NAFQIY is in a Sohncke space group
# The framework has been calculated to contain at least 10.0% void space
# The void calculation uses a probe of radius 1.32A, grid spacing 0.4
# The framework is charged, counterions have been retained in the structure
#
###############################################################################

data_NAFQIY
_chemical_formula_moiety         '(C60 H66 Cd6 N12 O36 6+)n'
_symmetry_cell_setting           triclinic
_symmetry_space_group_name_H-M   'P 1'
_symmetry_Int_Tables_number      1
_space_group_name_Hall           'P 1'
loop_
_symmetry_equiv_pos_site_id
_symmetry_equiv_pos_as_xyz
1 x,y,z
_cell_length_a                   14.0982(10)
_cell_length_b                   14.0982(10)
_cell_length_c                   13.0538(6)
_cell_angle_alpha                90
_cell_angle_beta                 90
_cell_angle_gamma                120
_cell_volume                     2246.96
loop_
_atom_site_label
_atom_site_type_symbol
_atom_site_fract_x
_atom_site_fract_y
_atom_site_fract_z
Cd1 Cd 0.47128(14) 0.47128(14) 0.0000
O1 O 0.429(2) 0.559(2) 0.1290(17)
O2 O 0.3128(17) 0.378(2) 0.1212(14)
C1 C 0.349(2) 0.474(3) 0.1631(18)
C2 C 0.2986(15) 0.4834(13) 0.2606(11)
C3 C 0.2623(16) 0.4063(13) 0.3389(13)
C4 C 0.2106(16) 0.4190(12) 0.4242(11)
H1 H 0.1864 0.3674 0.4766
C5 C 0.1952(13) 0.5087(12) 0.4311(9)
C6 C 0.2315(13) 0.5858(11) 0.3528(10)
H2 H 0.2212 0.6459 0.3575
C7 C 0.2832(14) 0.5732(13) 0.2676(9)
H3 H 0.3075 0.6248 0.2152
O3 O 0.084(2) 0.446(2) 0.5747(15)
O4 O 0.1425(13) 0.6109(15) 0.5363(9)
C8 C 0.1404(19) 0.526(2) 0.5225(16)
N1 N 0.272(4) 0.314(3) 0.343(3)
O5 O 0.380(4) 0.342(3) 0.337(3)
O6 O 0.227(6) 0.248(5) 0.430(3)
Cd3 Cd -0.00000(20) 0.52872(14) 0.6667
O14 O 0.638(3) 0.554(2) 0.0920(15)
O16 O 0.5316(20) 0.3891(15) 0.1304(9)
Cd3_2 Cd 1.00000(20) 0.52872(14) 0.6667
C11 C 0.7377(16) 0.1440(21) 0.9944(13)
C12 C 0.7894(16) 0.2084(20) 0.9091(11)
H4 H 0.8136 0.1810 0.8567
C13 C 0.8048(13) 0.3135(18) 0.9022(9)
C14 C 0.7685(13) 0.3543(17) 0.9805(10)
H5 H 0.7788 0.4247 0.9758
O9 O 0.916(2) 0.362(3) 0.7586(15)
O10 O 0.8575(13) 0.4684(20) 0.7970(9)
C16 C 0.8596(19) 0.3856(28) 0.8108(16)
N2 N 0.728(4) 0.042(5) 0.990(3)
O12 O 0.773(6) 0.021(8) 0.903(3)
O1_2 O 0.130(3) 0.571(2) 0.7957(17)
O2_2 O 0.0652(26) 0.6872(17) 0.7879(14)
C1_2 C 0.125(4) 0.651(2) 0.8298(18)
C2_2 C 0.1848(20) 0.7014(15) 0.9273(11)
C7_2 C 0.2900(19) 0.7168(14) 0.9343(9)
H3_2 H 0.3173 0.6925 0.8819
O11 O 0.038(5) 0.658(3) 0.330(3)
O7 O 0.870(3) 0.441(2) 0.5377(17)
O8 O 0.9348(26) 0.622(2) 0.5455(14)
C9 C 0.875(4) 0.526(3) 0.5036(18)
C10 C 0.8152(20) 0.5166(13) 0.4061(11)
C11_2 C 0.8560(21) 0.5937(13) 0.3278(13)
C12_2 C 0.7916(20) 0.5810(12) 0.2425(11)
H4_2 H 0.8190 0.6326 0.1901
C13_2 C 0.6865(18) 0.4913(12) 0.2356(9)
C14_2 C 0.6457(17) 0.4142(11) 0.3139(10)
H5_2 H 0.5753 0.3541 0.3092
C15 C 0.7100(19) 0.4268(13) 0.3991(9)
H6 H 0.6827 0.3752 0.4515
C16_2 C 0.6144(28) 0.474(2) 0.1442(16)
N2_2 N 0.958(5) 0.686(3) 0.324(3)
O12_2 O 0.979(8) 0.752(5) 0.237(3)
Cd1_2 Cd 0.47128(14) 0.47128(14) 1.0000
O7_2 O 0.559(2) 0.429(2) 0.8710(17)
O8_2 O 0.378(2) 0.3128(17) 0.8788(14)
C9_2 C 0.474(3) 0.349(2) 0.8369(18)
C10_2 C 0.4834(13) 0.2986(15) 0.7394(11)
C11_3 C 0.4063(13) 0.2623(16) 0.6611(13)
C12_3 C 0.4190(12) 0.2106(16) 0.5758(11)
H4_3 H 0.3674 0.1864 0.5234
C13_3 C 0.5087(12) 0.1952(13) 0.5689(9)
C14_3 C 0.5858(11) 0.2315(13) 0.6472(10)
H5_3 H 0.6459 0.2212 0.6425
C15_2 C 0.5732(13) 0.2832(14) 0.7324(9)
H6_2 H 0.6248 0.3075 0.7848
O9_2 O 0.446(2) 0.084(2) 0.4253(15)
O10_2 O 0.6109(15) 0.1425(13) 0.4637(9)
C16_3 C 0.526(2) 0.1404(19) 0.4775(16)
N2_3 N 0.314(3) 0.272(4) 0.657(3)
O11_2 O 0.342(3) 0.380(4) 0.663(3)
O12_3 O 0.248(5) 0.227(6) 0.570(3)
Cd2 Cd 0.52872(14) 0.00000(20) 0.3333
O13 O 0.554(2) 0.638(3) 0.9080(15)
O15 O 0.3891(15) 0.5316(20) 0.8696(9)
Cd2_2 Cd 0.52872(14) 1.00000(20) 0.3333
O5_2 O 0.658(3) 0.038(5) 0.670(3)
O7_3 O 0.571(2) 0.130(3) 0.2043(17)
O8_3 O 0.6872(17) 0.0652(26) 0.2121(14)
C9_3 C 0.651(2) 0.125(4) 0.1702(18)
C10_3 C 0.7014(15) 0.1848(20) 0.0727(11)
C15_3 C 0.7168(14) 0.2900(19) 0.0657(9)
H6_3 H 0.6925 0.3173 0.1181
O1_3 O 0.441(2) 0.870(3) 0.4623(17)
O2_3 O 0.622(2) 0.9348(26) 0.4545(14)
C1_3 C 0.526(3) 0.875(4) 0.4964(18)
C2_3 C 0.5166(13) 0.8152(20) 0.5939(11)
C3_2 C 0.5937(13) 0.8560(21) 0.6722(13)
C4_2 C 0.5810(12) 0.7916(20) 0.7575(11)
H1_2 H 0.6326 0.8190 0.8099
C5_2 C 0.4913(12) 0.6865(18) 0.7644(9)
C6_2 C 0.4142(11) 0.6457(17) 0.6861(10)
H2_2 H 0.3541 0.5753 0.6908
C7_3 C 0.4268(13) 0.7100(19) 0.6009(9)
H3_3 H 0.3752 0.6827 0.5485
C8_2 C 0.474(2) 0.6144(28) 0.8558(16)
N1_2 N 0.686(3) 0.958(5) 0.676(3)
O6_2 O 0.752(5) 0.979(8) 0.763(3)
O13_2 O 0.362(3) 0.916(4) 0.2414(15)
O15_2 O 0.4684(20) 0.8575(25) 0.2030(9)
C3_3 C 0.1440(21) 0.7377(16) 0.0056(13)
C4_3 C 0.2084(20) 0.7894(16) 0.0909(11)
H1_3 H 0.1810 0.8136 0.1433
C5_3 C 0.3135(18) 0.8048(13) 0.0978(9)
C6_3 C 0.3543(17) 0.7685(13) 0.0195(10)
H2_3 H 0.4247 0.7788 0.0242
C8_3 C 0.3856(28) 0.8596(19) 0.1892(16)
N1_3 N 0.042(5) 0.728(4) 0.010(3)
O6_3 O 0.021(8) 0.773(6) 0.097(3)
O11_3 O 0.620(4) 0.962(5) 0.996(3)
O5_3 O 0.962(5) 0.620(4) 0.004(3)
N3 N 0.839(2) 0.229(3) 0.486(3)
H7 H 0.7674 0.1826 0.4922
H8 H 0.8553 0.2934 0.5132
C17 C 0.914(5) 0.178(7) 0.540(4)
H9 H 0.9110 0.1214 0.4969
H10 H 0.8851 0.1485 0.6062
H11 H 0.9889 0.2357 0.5467
C18 C 0.871(3) 0.238(6) 0.394(3)
H12 H 0.9422 0.3020 0.3879
H13 H 0.8204 0.2454 0.3504
H14 H 0.8747 0.1744 0.3753
N3_2 N 0.771(3) 0.610(4) 0.819(3)
H7_2 H 0.8174 0.5848 0.8255
H8_2 H 0.7066 0.5619 0.8465
C17_2 C 0.822(7) 0.736(9) 0.873(4)
H9_2 H 0.8786 0.7896 0.8302
H10_2 H 0.8515 0.7366 0.9395
H11_2 H 0.7643 0.7532 0.8800
C18_2 C 0.762(6) 0.633(7) 0.727(3)
H12_2 H 0.6980 0.6402 0.7212
H13_2 H 0.7546 0.5750 0.6837
H14_2 H 0.8256 0.7003 0.7086
N3_3 N 0.390(4) 0.161(2) 0.153(3)
H7_3 H 0.4152 0.2326 0.1589
H8_3 H 0.4381 0.1447 0.1799
C17_3 C 0.264(9) 0.086(5) 0.207(4)
H9_3 H 0.2104 0.0890 0.1636
H10_3 H 0.2634 0.1149 0.2729
H11_3 H 0.2468 0.0111 0.2134
C18_3 C 0.367(7) 0.129(3) 0.061(3)
H12_3 H 0.3598 0.0578 0.0546
H13_3 H 0.4250 0.1796 0.0171
H14_3 H 0.2997 0.1253 0.0420
N3_4 N 0.610(4) 0.771(3) 0.181(3)
H7_4 H 0.5848 0.8174 0.1745
H8_4 H 0.5619 0.7066 0.1535
C17_4 C 0.736(9) 0.822(7) 0.127(4)
H9_4 H 0.7896 0.8786 0.1698
H10_4 H 0.7366 0.8515 0.0605
H11_4 H 0.7532 0.7643 0.1200
C18_4 C 0.633(7) 0.762(6) 0.273(3)
H12_4 H 0.6402 0.6980 0.2788
H13_4 H 0.5750 0.7546 0.3163
H14_4 H 0.7003 0.8256 0.2914
N3_5 N 0.161(2) 0.390(4) 0.847(3)
H7_5 H 0.2326 0.4152 0.8411
H8_5 H 0.1447 0.4381 0.8201
C17_5 C 0.086(5) 0.264(9) 0.793(4)
H9_5 H 0.0890 0.2104 0.8364
H10_5 H 0.1149 0.2634 0.7271
H11_5 H 0.0111 0.2468 0.7866
C18_5 C 0.129(3) 0.367(7) 0.939(3)
H12_5 H 0.0578 0.3598 0.9454
H13_5 H 0.1796 0.4250 0.9829
H14_5 H 0.1253 0.2997 0.9580
N3_6 N 0.229(3) 0.839(2) 0.514(3)
H7_6 H 0.1826 0.7674 0.5078
H8_6 H 0.2934 0.8553 0.4868
C17_6 C 0.178(7) 0.914(5) 0.460(4)
H9_6 H 0.1214 0.9110 0.5031
H10_6 H 0.1485 0.8851 0.3938
H11_6 H 0.2357 0.9889 0.4533
C18_6 C 0.238(6) 0.871(3) 0.606(3)
H12_6 H 0.3020 0.9422 0.6121
H13_6 H 0.2454 0.8204 0.6496
H14_6 H 0.1744 0.8747 0.6247
loop_
_geom_bond_atom_site_label_1
_geom_bond_atom_site_label_2
_geom_bond_site_symmetry_1
_geom_bond_site_symmetry_2
Cd1 O1 1_555 1_555
O1 C1 1_555 1_555
O2 Cd1 1_555 1_555
C1 O2 1_555 1_555
C2 C1 1_555 1_555
C3 C2 1_555 1_555
C4 C3 1_555 1_555
H1 C4 1_555 1_555
C5 C4 1_555 1_555
C6 C5 1_555 1_555
H2 C6 1_555 1_555
C7 C2 1_555 1_555
H3 C7 1_555 1_555
O3 C8 1_555 1_555
O4 C8 1_555 1_555
C8 C5 1_555 1_555
N1 C3 1_555 1_555
O5 N1 1_555 1_555
O6 N1 1_555 1_555
Cd3 O3 1_555 1_555
O14 Cd1 1_555 1_555
O16 Cd1 1_555 1_555
C6 C7 1_555 1_555
O4 Cd3 1_555 1_555
C12 C11 1_555 1_555
H4 C12 1_555 1_555
C13 C12 1_555 1_555
C14 C13 1_555 1_555
H5 C14 1_555 1_555
O9 C16 1_555 1_555
O10 C16 1_555 1_555
C16 C13 1_555 1_555
N2 C11 1_555 1_555
O12 N2 1_555 1_555
Cd3_2 O9 1_555 1_555
O10 Cd3_2 1_555 1_555
Cd3 O1_2 1_555 1_555
O1_2 C1_2 1_555 1_555
O2_2 Cd3 1_555 1_555
C1_2 O2_2 1_555 1_555
C2_2 C1_2 1_555 1_555
C7_2 C2_2 1_555 1_555
H3_2 C7_2 1_555 1_555
O7 Cd3_2 1_555 1_555
O8 Cd3_2 1_555 1_555
C9 O7 1_555 1_555
C10 C9 1_555 1_555
C11_2 C10 1_555 1_555
C12_2 C11_2 1_555 1_555
H4_2 C12_2 1_555 1_555
C13_2 C12_2 1_555 1_555
C14_2 C13_2 1_555 1_555
H5_2 C14_2 1_555 1_555
C15 C10 1_555 1_555
H6 C15 1_555 1_555
O14 C16_2 1_555 1_555
O16 C16_2 1_555 1_555
C16_2 C13_2 1_555 1_555
N2_2 C11_2 1_555 1_555
O12_2 N2_2 1_555 1_555
O8 C9 1_555 1_555
C14_2 C15 1_555 1_555
O7_2 Cd1_2 1_555 1_555
O8_2 Cd1_2 1_555 1_555
C9_2 O7_2 1_555 1_555
C10_2 C9_2 1_555 1_555
C11_3 C10_2 1_555 1_555
C12_3 C11_3 1_555 1_555
H4_3 C12_3 1_555 1_555
C13_3 C12_3 1_555 1_555
C14_3 C13_3 1_555 1_555
H5_3 C14_3 1_555 1_555
C15_2 C10_2 1_555 1_555
H6_2 C15_2 1_555 1_555
O9_2 C16_3 1_555 1_555
O10_2 C16_3 1_555 1_555
C16_3 C13_3 1_555 1_555
N2_3 C11_3 1_555 1_555
O11_2 N2_3 1_555 1_555
O12_3 N2_3 1_555 1_555
Cd2 O9_2 1_555 1_555
O13 Cd1_2 1_555 1_555
O15 Cd1_2 1_555 1_555
O8_2 C9_2 1_555 1_555
C14_3 C15_2 1_555 1_555
O10_2 Cd2 1_555 1_555
O7_3 Cd2 1_555 1_555
O8_3 Cd2 1_555 1_555
C9_3 O7_3 1_555 1_555
C10_3 C9_3 1_555 1_555
C15_3 C10_3 1_555 1_555
H6_3 C15_3 1_555 1_555
O8_3 C9_3 1_555 1_555
Cd2_2 O1_3 1_555 1_555
O1_3 C1_3 1_555 1_555
O2_3 Cd2_2 1_555 1_555
C1_3 O2_3 1_555 1_555
C2_3 C1_3 1_555 1_555
C3_2 C2_3 1_555 1_555
C4_2 C3_2 1_555 1_555
H1_2 C4_2 1_555 1_555
C5_2 C4_2 1_555 1_555
C6_2 C5_2 1_555 1_555
H2_2 C6_2 1_555 1_555
C7_3 C2_3 1_555 1_555
H3_3 C7_3 1_555 1_555
O13 C8_2 1_555 1_555
O15 C8_2 1_555 1_555
C8_2 C5_2 1_555 1_555
N1_2 C3_2 1_555 1_555
O6_2 N1_2 1_555 1_555
O13_2 Cd2_2 1_555 1_555
O15_2 Cd2_2 1_555 1_555
C6_2 C7_3 1_555 1_555
C4_3 C3_3 1_555 1_555
H1_3 C4_3 1_555 1_555
C5_3 C4_3 1_555 1_555
C6_3 C5_3 1_555 1_555
H2_3 C6_3 1_555 1_555
O13_2 C8_3 1_555 1_555
O15_2 C8_3 1_555 1_555
C8_3 C5_3 1_555 1_555
N1_3 C3_3 1_555 1_555
O6_3 N1_3 1_555 1_555
N3 H7 1_555 1_555
H8 N3 1_555 1_555
C17 N3 1_555 1_555
H9 C17 1_555 1_555
H10 C17 1_555 1_555
H11 C17 1_555 1_555
C18 N3 1_555 1_555
H12 C18 1_555 1_555
H13 C18 1_555 1_555
H14 C18 1_555 1_555
N3_2 H7_2 1_555 1_555
H8_2 N3_2 1_555 1_555
C17_2 N3_2 1_555 1_555
H9_2 C17_2 1_555 1_555
H10_2 C17_2 1_555 1_555
H11_2 C17_2 1_555 1_555
C18_2 N3_2 1_555 1_555
H12_2 C18_2 1_555 1_555
H13_2 C18_2 1_555 1_555
H14_2 C18_2 1_555 1_555
N3_3 H7_3 1_555 1_555
H8_3 N3_3 1_555 1_555
C17_3 N3_3 1_555 1_555
H9_3 C17_3 1_555 1_555
H10_3 C17_3 1_555 1_555
H11_3 C17_3 1_555 1_555
C18_3 N3_3 1_555 1_555
H12_3 C18_3 1_555 1_555
H13_3 C18_3 1_555 1_555
H14_3 C18_3 1_555 1_555
N3_4 H7_4 1_555 1_555
H8_4 N3_4 1_555 1_555
C17_4 N3_4 1_555 1_555
H9_4 C17_4 1_555 1_555
H10_4 C17_4 1_555 1_555
H11_4 C17_4 1_555 1_555
C18_4 N3_4 1_555 1_555
H12_4 C18_4 1_555 1_555
H13_4 C18_4 1_555 1_555
H14_4 C18_4 1_555 1_555
N3_5 H7_5 1_555 1_555
H8_5 N3_5 1_555 1_555
C17_5 N3_5 1_555 1_555
H9_5 C17_5 1_555 1_555
H10_5 C17_5 1_555 1_555
H11_5 C17_5 1_555 1_555
C18_5 N3_5 1_555 1_555
H12_5 C18_5 1_555 1_555
H13_5 C18_5 1_555 1_555
H14_5 C18_5 1_555 1_555
N3_6 H7_6 1_555 1_555
H8_6 N3_6 1_555 1_555
C17_6 N3_6 1_555 1_555
H9_6 C17_6 1_555 1_555
H10_6 C17_6 1_555 1_555
H11_6 C17_6 1_555 1_555
C18_6 N3_6 1_555 1_555
H12_6 C18_6 1_555 1_555
H13_6 C18_6 1_555 1_555
H14_6 C18_6 1_555 1_555

#END
