
###############################################################################
#
# This file contains modified crystal structure data generated from the
# MOF subset of the Cambridge Structural Database (CSD) v543 
# hosted by the Cambridge Crystallographic Data Centre (CCDC).
#
# This work is licensed under the Creative Commons
# Attribution-NonCommercial-ShareAlike 4.0 International License.
# To view a copy of this license, visit
# http://creativecommons.org/licenses/by-nc-sa/4.0/
# or send a letter to
# Creative Commons, PO Box 1866, Mountain View, CA 94042, USA.
#
# CIF created using the CSD Python API on 29 September 2022
# The structure has been converted into the P1 space group
# The structure has a 3D framework
# The original CSD entry NAFRAR01 is in the trigonal crystal system
# The original CSD entry NAFRAR01 is in a Sohncke space group
# The framework has been calculated to contain at least 10.0% void space
# The void calculation uses a probe of radius 1.32A, grid spacing 0.4
# The framework is charged, counterions have been retained in the structure
#
###############################################################################

data_NAFRAR01
_chemical_formula_moiety         '(C60 H66 Cd6 N12 O36)n'
_symmetry_cell_setting           triclinic
_symmetry_space_group_name_H-M   'P 1'
_symmetry_Int_Tables_number      1
_space_group_name_Hall           'P 1'
loop_
_symmetry_equiv_pos_site_id
_symmetry_equiv_pos_as_xyz
1 x,y,z
_cell_length_a                   14.8922(7)
_cell_length_b                   14.8922(7)
_cell_length_c                   12.7663(6)
_cell_angle_alpha                90
_cell_angle_beta                 90
_cell_angle_gamma                120
_cell_volume                     2451.96
loop_
_atom_site_label
_atom_site_type_symbol
_atom_site_fract_x
_atom_site_fract_y
_atom_site_fract_z
Cd1 Cd 0.4997(2) 0.4997(2) 0.000000
O1 O 0.4201(17) 0.3430(13) 0.1130(18)
O2 O 0.5935(17) 0.4385(17) 0.1191(15)
O3 O 0.5901(15) 0.1362(14) 0.5377(15)
O4 O 0.4252(14) 0.0689(11) 0.5569(14)
O5 O 0.291(3) 0.124(3) 0.155(3)
O6 O 0.2368(19) 0.175(3) 0.2907(19)
N1 N 0.3067(14) 0.1714(13) 0.2389(15)
C1 C 0.4971(15) 0.3702(13) 0.1525(15)
C2 C 0.4070(8) 0.2219(16) 0.2851(14)
C3 C 0.4985(13) 0.3043(13) 0.2465(11)
C4 C 0.5923(9) 0.3319(13) 0.2950(15)
H1 H 0.653513 0.387104 0.269268
C5 C 0.5947(8) 0.2771(15) 0.3821(14)
H2 H 0.657555 0.295584 0.414532
C6 C 0.5033(13) 0.1947(13) 0.4206(10)
C7 C 0.4094(8) 0.1670(13) 0.3721(14)
H3 H 0.348234 0.111873 0.397862
C8 C 0.5174(19) 0.1386(17) 0.5130(18)
Cd2 Cd 0.5003(2) -0.0000(3) 0.666667
O14 O 0.4099(15) 0.5461(21) 0.1290(15)
O16 O 0.5748(14) 0.6437(18) 0.1098(14)
Cd2_2 Cd 0.5003(2) 1.0000(3) 0.666667
O1_2 O 0.6570(13) 0.0771(21) 0.7797(18)
O2_2 O 0.5615(17) 0.1550(24) 0.7858(15)
O5_2 O 0.876(3) 0.167(4) 0.822(3)
O6_2 O 0.825(3) 0.0618(36) 0.9574(19)
N1_2 N 0.8286(13) 0.1353(19) 0.9056(15)
C1_2 C 0.6298(13) 0.1269(20) 0.8192(15)
C2_2 C 0.7781(16) 0.1851(18) 0.9518(14)
C3_2 C 0.6957(13) 0.1942(18) 0.9132(11)
C4_2 C 0.6681(13) 0.2604(16) 0.9617(15)
H1_2 H 0.612896 0.266409 0.935935
O7 O 0.5799(17) 0.9229(21) 0.5537(18)
O8 O 0.4065(17) 0.8450(24) 0.5476(15)
O11 O 0.709(3) 0.833(4) 0.512(3)
O12 O 0.7632(19) 0.9382(36) 0.3760(19)
N2 N 0.6933(14) 0.8647(19) 0.4278(15)
C9 C 0.5029(15) 0.8731(20) 0.5142(15)
C10 C 0.5930(8) 0.8149(18) 0.3816(14)
C11 C 0.5015(13) 0.8058(18) 0.4202(11)
C12 C 0.4077(9) 0.7396(16) 0.3717(15)
H4 H 0.346487 0.733591 0.397399
C13 C 0.4053(8) 0.6824(17) 0.2846(14)
H5 H 0.342445 0.638029 0.252135
C14 C 0.4967(13) 0.6914(18) 0.2461(10)
C15 C 0.5906(8) 0.7576(15) 0.2946(14)
H6 H 0.651766 0.763639 0.268805
C16 C 0.4826(19) 0.6212(25) 0.1537(18)
O14_2 O 0.4539(21) 0.8638(26) 0.7956(15)
O16_2 O 0.3563(18) 0.9311(23) 0.7764(14)
C13_2 C 0.3176(17) 0.7229(15) 0.9512(14)
H5_2 H 0.361971 0.704416 0.918801
C14_2 C 0.3086(18) 0.8053(13) 0.9127(10)
C15_2 C 0.2424(15) 0.8330(13) 0.9612(14)
H6_2 H 0.236361 0.888127 0.935471
C16_2 C 0.3788(25) 0.8614(17) 0.8203(18)
Cd1_2 Cd 0.4997(2) 0.4997(2) 1.000000
O7_2 O 0.3430(13) 0.4201(17) 0.8870(18)
O8_2 O 0.4385(17) 0.5935(17) 0.8809(15)
O9 O 0.1362(14) 0.5901(15) 0.4623(15)
O10 O 0.0689(11) 0.4252(14) 0.4431(14)
O11_2 O 0.124(3) 0.291(3) 0.845(3)
O12_2 O 0.175(3) 0.2368(19) 0.7093(19)
N2_2 N 0.1714(13) 0.3067(14) 0.7611(15)
C9_2 C 0.3702(13) 0.4971(15) 0.8475(15)
C10_2 C 0.2219(16) 0.4070(8) 0.7149(14)
C11_2 C 0.3043(13) 0.4985(13) 0.7535(11)
C12_2 C 0.3319(13) 0.5923(9) 0.7050(15)
H4_2 H 0.387104 0.653513 0.730732
C13_3 C 0.2771(15) 0.5947(8) 0.6179(14)
H5_3 H 0.295584 0.657555 0.585468
C14_3 C 0.1947(13) 0.5033(13) 0.5794(10)
C15_3 C 0.1670(13) 0.4094(8) 0.6279(14)
H6_3 H 0.111873 0.348234 0.602138
C16_3 C 0.1386(17) 0.5174(19) 0.4870(18)
Cd3 Cd 0.0000(3) 0.5003(2) 0.333333
O13 O 0.5461(21) 0.4099(15) 0.8710(15)
O15 O 0.6437(18) 0.5748(14) 0.8902(14)
Cd3_2 Cd 1.0000(3) 0.5003(2) 0.333333
O3_2 O 0.8638(14) 0.4539(21) 0.2044(15)
O4_2 O 0.9311(11) 0.3563(18) 0.2236(14)
C5_2 C 0.7229(15) 0.3176(17) 0.0488(14)
H2_2 H 0.704416 0.361971 0.081199
C6_2 C 0.8053(13) 0.3086(18) 0.0873(10)
C7_2 C 0.8330(13) 0.2424(15) 0.0388(14)
H3_2 H 0.888127 0.236361 0.064529
C8_2 C 0.8614(17) 0.3788(25) 0.1797(18)
O7_3 O 0.0771(21) 0.6570(13) 0.2203(18)
O8_3 O 0.1550(24) 0.5615(17) 0.2142(15)
O11_3 O 0.167(4) 0.876(3) 0.178(3)
O12_3 O 0.0618(36) 0.825(3) 0.0426(19)
N2_3 N 0.1353(19) 0.8286(13) 0.0944(15)
C9_3 C 0.1269(20) 0.6298(13) 0.1808(15)
C10_3 C 0.1851(18) 0.7781(16) 0.0482(14)
C11_3 C 0.1942(18) 0.6957(13) 0.0868(11)
C12_3 C 0.2604(16) 0.6681(13) 0.0383(15)
H4_3 H 0.266409 0.612896 0.064065
O1_3 O 0.9229(21) 0.5799(17) 0.4463(18)
O2_3 O 0.8450(24) 0.4065(17) 0.4524(15)
O5_3 O 0.833(4) 0.709(3) 0.488(3)
O6_3 O 0.9382(36) 0.7632(19) 0.6240(19)
N1_3 N 0.8647(19) 0.6933(14) 0.5722(15)
C1_3 C 0.8731(20) 0.5029(15) 0.4858(15)
C2_3 C 0.8149(18) 0.5930(8) 0.6184(14)
C3_3 C 0.8058(18) 0.5015(13) 0.5798(11)
C4_3 C 0.7396(16) 0.4077(9) 0.6283(15)
H1_3 H 0.733591 0.346487 0.602601
C5_3 C 0.6824(17) 0.4053(8) 0.7154(14)
H2_3 H 0.638029 0.342445 0.747865
C6_3 C 0.6914(18) 0.4967(13) 0.7539(10)
C7_3 C 0.7576(15) 0.5906(8) 0.7054(14)
H3_3 H 0.763639 0.651766 0.731195
C8_3 C 0.6212(25) 0.4826(19) 0.8463(18)
N3 N 0.188(2) 0.364(3) 0.096(4)
H7 H 0.194095 0.418520 0.062000
H8 H 0.246853 0.362014 0.087635
C17 C 0.167(3) 0.368(2) 0.207(4)
H9 H 0.222747 0.429464 0.237499
H10 H 0.103409 0.369222 0.214169
H11 H 0.160569 0.308002 0.241943
C18 C 0.100(5) 0.269(4) 0.056(4)
H13 H 0.095179 0.210467 0.094010
H14 H 0.038019 0.271687 0.066236
H12 H 0.110026 0.261506 0.983260
N3_2 N 0.636(3) 0.824(4) 0.763(4)
H7_2 H 0.581480 0.775575 0.728667
H8_2 H 0.637986 0.884839 0.754302
C17_2 C 0.632(2) 0.799(4) 0.874(4)
H9_2 H 0.570536 0.793283 0.904166
H10_2 H 0.630778 0.734187 0.880836
H11_2 H 0.691998 0.852567 0.908610
C18_2 C 0.731(4) 0.831(6) 0.723(4)
H12_2 H 0.738494 0.848520 0.649927
H13_2 H 0.789533 0.884712 0.760677
H14_2 H 0.728313 0.766332 0.732903
N3_3 N 0.176(4) 0.812(2) 0.429(4)
H7_3 H 0.224425 0.805905 0.395333
H8_3 H 0.115161 0.753147 0.420968
C17_3 C 0.201(4) 0.833(3) 0.540(4)
H9_3 H 0.206717 0.777253 0.570832
H10_3 H 0.265813 0.896591 0.547502
H11_3 H 0.147433 0.839431 0.575276
C18_3 C 0.169(6) 0.900(5) 0.389(4)
H12_3 H 0.151480 0.889974 0.316593
H13_3 H 0.115288 0.904821 0.427343
H14_3 H 0.233668 0.961981 0.399569
N3_4 N 0.824(4) 0.636(3) 0.237(4)
H7_4 H 0.775575 0.581480 0.271333
H8_4 H 0.884839 0.637986 0.245698
C17_4 C 0.799(4) 0.632(2) 0.126(4)
H9_4 H 0.793283 0.570536 0.095834
H10_4 H 0.734187 0.630778 0.119164
H11_4 H 0.852567 0.691998 0.091390
C18_4 C 0.831(6) 0.731(4) 0.277(4)
H12_4 H 0.848520 0.738494 0.350073
H13_4 H 0.884712 0.789533 0.239323
H14_4 H 0.766332 0.728313 0.267097
N3_5 N 0.812(2) 0.176(4) 0.571(4)
H7_5 H 0.805905 0.224425 0.604667
H8_5 H 0.753147 0.115161 0.579032
C17_5 C 0.833(3) 0.201(4) 0.460(4)
H9_5 H 0.777253 0.206717 0.429168
H10_5 H 0.896591 0.265813 0.452498
H11_5 H 0.839431 0.147433 0.424724
C18_5 C 0.900(5) 0.169(6) 0.611(4)
H12_5 H 0.889974 0.151480 0.683407
H13_5 H 0.904821 0.115288 0.572657
H14_5 H 0.961981 0.233668 0.600431
H12_6 H 0.261506 0.110026 0.016740
N3_6 N 0.364(3) 0.188(2) 0.904(4)
H7_6 H 0.418520 0.194095 0.938000
H8_6 H 0.362014 0.246853 0.912365
C17_6 C 0.368(2) 0.167(3) 0.793(4)
H9_6 H 0.429464 0.222747 0.762501
H10_6 H 0.369222 0.103409 0.785831
H11_6 H 0.308002 0.160569 0.758057
C18_6 C 0.269(4) 0.100(5) 0.944(4)
H13_6 H 0.210467 0.095179 0.905990
H14_6 H 0.271687 0.038019 0.933764
loop_
_geom_bond_atom_site_label_1
_geom_bond_atom_site_label_2
_geom_bond_site_symmetry_1
_geom_bond_site_symmetry_2
Cd1 O1 1_555 1_555
O1 C1 1_555 1_555
O2 Cd1 1_555 1_555
O3 C8 1_555 1_555
O4 C8 1_555 1_555
O5 N1 1_555 1_555
O6 N1 1_555 1_555
N1 C2 1_555 1_555
C1 O2 1_555 1_555
C2 C3 1_555 1_555
C3 C1 1_555 1_555
C4 C3 1_555 1_555
H1 C4 1_555 1_555
C5 C4 1_555 1_555
H2 C5 1_555 1_555
C6 C5 1_555 1_555
C7 C2 1_555 1_555
H3 C7 1_555 1_555
C8 C6 1_555 1_555
Cd2 O3 1_555 1_555
O14 Cd1 1_555 1_555
O16 Cd1 1_555 1_555
O4 Cd2 1_555 1_555
C6 C7 1_555 1_555
Cd2 O1_2 1_555 1_555
O1_2 C1_2 1_555 1_555
O2_2 Cd2 1_555 1_555
O5_2 N1_2 1_555 1_555
O6_2 N1_2 1_555 1_555
N1_2 C2_2 1_555 1_555
C1_2 O2_2 1_555 1_555
C2_2 C3_2 1_555 1_555
C3_2 C1_2 1_555 1_555
C4_2 C3_2 1_555 1_555
H1_2 C4_2 1_555 1_555
O7 Cd2_2 1_555 1_555
O8 Cd2_2 1_555 1_555
O14 C16 1_555 1_555
O16 C16 1_555 1_555
O11 N2 1_555 1_555
O12 N2 1_555 1_555
N2 C10 1_555 1_555
C9 O7 1_555 1_555
C10 C11 1_555 1_555
C11 C9 1_555 1_555
C12 C11 1_555 1_555
H4 C12 1_555 1_555
C13 C12 1_555 1_555
H5 C13 1_555 1_555
C14 C13 1_555 1_555
C15 C10 1_555 1_555
H6 C15 1_555 1_555
C16 C14 1_555 1_555
O14_2 Cd2_2 1_555 1_555
O16_2 Cd2_2 1_555 1_555
O8 C9 1_555 1_555
C14 C15 1_555 1_555
O14_2 C16_2 1_555 1_555
O16_2 C16_2 1_555 1_555
H5_2 C13_2 1_555 1_555
C14_2 C13_2 1_555 1_555
H6_2 C15_2 1_555 1_555
C16_2 C14_2 1_555 1_555
C14_2 C15_2 1_555 1_555
O7_2 Cd1_2 1_555 1_555
O8_2 Cd1_2 1_555 1_555
O9 C16_3 1_555 1_555
O10 C16_3 1_555 1_555
O11_2 N2_2 1_555 1_555
O12_2 N2_2 1_555 1_555
N2_2 C10_2 1_555 1_555
C9_2 O7_2 1_555 1_555
C10_2 C11_2 1_555 1_555
C11_2 C9_2 1_555 1_555
C12_2 C11_2 1_555 1_555
H4_2 C12_2 1_555 1_555
C13_3 C12_2 1_555 1_555
H5_3 C13_3 1_555 1_555
C14_3 C13_3 1_555 1_555
C15_3 C10_2 1_555 1_555
H6_3 C15_3 1_555 1_555
C16_3 C14_3 1_555 1_555
Cd3 O9 1_555 1_555
O13 Cd1_2 1_555 1_555
O15 Cd1_2 1_555 1_555
O8_2 C9_2 1_555 1_555
O10 Cd3 1_555 1_555
C14_3 C15_3 1_555 1_555
O3_2 C8_2 1_555 1_555
O4_2 C8_2 1_555 1_555
H2_2 C5_2 1_555 1_555
C6_2 C5_2 1_555 1_555
H3_2 C7_2 1_555 1_555
C8_2 C6_2 1_555 1_555
Cd3_2 O3_2 1_555 1_555
O4_2 Cd3_2 1_555 1_555
C6_2 C7_2 1_555 1_555
O7_3 Cd3 1_555 1_555
O8_3 Cd3 1_555 1_555
O11_3 N2_3 1_555 1_555
O12_3 N2_3 1_555 1_555
N2_3 C10_3 1_555 1_555
C9_3 O7_3 1_555 1_555
C10_3 C11_3 1_555 1_555
C11_3 C9_3 1_555 1_555
C12_3 C11_3 1_555 1_555
H4_3 C12_3 1_555 1_555
O8_3 C9_3 1_555 1_555
Cd3_2 O1_3 1_555 1_555
O1_3 C1_3 1_555 1_555
O2_3 Cd3_2 1_555 1_555
O13 C8_3 1_555 1_555
O15 C8_3 1_555 1_555
O5_3 N1_3 1_555 1_555
O6_3 N1_3 1_555 1_555
N1_3 C2_3 1_555 1_555
C1_3 O2_3 1_555 1_555
C2_3 C3_3 1_555 1_555
C3_3 C1_3 1_555 1_555
C4_3 C3_3 1_555 1_555
H1_3 C4_3 1_555 1_555
C5_3 C4_3 1_555 1_555
H2_3 C5_3 1_555 1_555
C6_3 C5_3 1_555 1_555
C7_3 C2_3 1_555 1_555
H3_3 C7_3 1_555 1_555
C8_3 C6_3 1_555 1_555
C6_3 C7_3 1_555 1_555
N3 H7 1_555 1_555
H8 N3 1_555 1_555
C17 N3 1_555 1_555
H9 C17 1_555 1_555
H10 C17 1_555 1_555
H11 C17 1_555 1_555
C18 N3 1_555 1_555
H13 C18 1_555 1_555
H14 C18 1_555 1_555
N3_2 H7_2 1_555 1_555
H8_2 N3_2 1_555 1_555
C17_2 N3_2 1_555 1_555
H9_2 C17_2 1_555 1_555
H10_2 C17_2 1_555 1_555
H11_2 C17_2 1_555 1_555
C18_2 N3_2 1_555 1_555
H12_2 C18_2 1_555 1_555
H13_2 C18_2 1_555 1_555
H14_2 C18_2 1_555 1_555
N3_3 H7_3 1_555 1_555
H8_3 N3_3 1_555 1_555
C17_3 N3_3 1_555 1_555
H9_3 C17_3 1_555 1_555
H10_3 C17_3 1_555 1_555
H11_3 C17_3 1_555 1_555
C18_3 N3_3 1_555 1_555
H12_3 C18_3 1_555 1_555
H13_3 C18_3 1_555 1_555
H14_3 C18_3 1_555 1_555
N3_4 H7_4 1_555 1_555
H8_4 N3_4 1_555 1_555
C17_4 N3_4 1_555 1_555
H9_4 C17_4 1_555 1_555
H10_4 C17_4 1_555 1_555
H11_4 C17_4 1_555 1_555
C18_4 N3_4 1_555 1_555
H12_4 C18_4 1_555 1_555
H13_4 C18_4 1_555 1_555
H14_4 C18_4 1_555 1_555
N3_5 H7_5 1_555 1_555
H8_5 N3_5 1_555 1_555
C17_5 N3_5 1_555 1_555
H9_5 C17_5 1_555 1_555
H10_5 C17_5 1_555 1_555
H11_5 C17_5 1_555 1_555
C18_5 N3_5 1_555 1_555
H12_5 C18_5 1_555 1_555
H13_5 C18_5 1_555 1_555
H14_5 C18_5 1_555 1_555
N3_6 H7_6 1_555 1_555
H8_6 N3_6 1_555 1_555
C17_6 N3_6 1_555 1_555
H9_6 C17_6 1_555 1_555
H10_6 C17_6 1_555 1_555
H11_6 C17_6 1_555 1_555
C18_6 N3_6 1_555 1_555
H13_6 C18_6 1_555 1_555
H14_6 C18_6 1_555 1_555

#END
