
###############################################################################
#
# This file contains modified crystal structure data generated from the
# MOF subset of the Cambridge Structural Database (CSD) v543 
# hosted by the Cambridge Crystallographic Data Centre (CCDC).
#
# This work is licensed under the Creative Commons
# Attribution-NonCommercial-ShareAlike 4.0 International License.
# To view a copy of this license, visit
# http://creativecommons.org/licenses/by-nc-sa/4.0/
# or send a letter to
# Creative Commons, PO Box 1866, Mountain View, CA 94042, USA.
#
# CIF created using the CSD Python API on 29 September 2022
# The structure has been converted into the P1 space group
# The structure has a 3D framework
# The original CSD entry NAFRAR03 is in the trigonal crystal system
# The original CSD entry NAFRAR03 is in a Sohncke space group
# The framework has been calculated to contain at least 10.0% void space
# The void calculation uses a probe of radius 1.32A, grid spacing 0.4
# The framework is charged, counterions have been retained in the structure
#
###############################################################################

data_NAFRAR03
_chemical_formula_moiety         '(C48 H18 Cd6 N6 O36 6-)n'
_symmetry_cell_setting           triclinic
_symmetry_space_group_name_H-M   'P 1'
_symmetry_Int_Tables_number      1
_space_group_name_Hall           'P 1'
loop_
_symmetry_equiv_pos_site_id
_symmetry_equiv_pos_as_xyz
1 x,y,z
_cell_length_a                   14.9689(4)
_cell_length_b                   14.9689(4)
_cell_length_c                   12.6934(4)
_cell_angle_alpha                90
_cell_angle_beta                 90
_cell_angle_gamma                120
_cell_volume                     2463.14
loop_
_atom_site_label
_atom_site_type_symbol
_atom_site_fract_x
_atom_site_fract_y
_atom_site_fract_z
Cd1 Cd 0.49978(13) 0.49978(13) 0.000000
O7 O 0.3560(12) 0.4225(12) 0.1145(11)
O8 O 0.4402(11) 0.5899(11) 0.1181(10)
C9 C 0.3679(14) 0.4975(15) 0.1561(13)
C10 C 0.3037(10) 0.5023(9) 0.2439(9)
C11 C 0.2219(12) 0.4109(6) 0.2820(12)
C12 C 0.1664(11) 0.4124(6) 0.3691(12)
H4 H 0.110483 0.349880 0.395185
C13 C 0.1927(11) 0.5054(9) 0.4181(9)
C14 C 0.2745(12) 0.5969(6) 0.3800(11)
H5 H 0.292499 0.660489 0.413434
C15 C 0.3300(10) 0.5954(6) 0.2929(11)
H6 H 0.385903 0.657891 0.266790
O9 O 0.0739(9) 0.4281(11) 0.5563(11)
O10 O 0.1383(13) 0.5943(12) 0.5326(11)
C16 C 0.1345(16) 0.5156(13) 0.5148(15)
O11 O 0.133(2) 0.299(3) 0.144(3)
O12 O 0.187(3) 0.250(2) 0.275(2)
N2 N 0.1799(18) 0.3194(16) 0.2362(17)
Cd3 Cd -0.00000(18) 0.50022(13) 0.666667
O13 O 0.6458(14) 0.5719(11) 0.1104(11)
O15 O 0.5440(18) 0.4057(12) 0.1341(11)
Cd3_2 Cd 1.00000(18) 0.50022(13) 0.666667
C4 C 0.8336(11) 0.2460(13) 0.9642(12)
H1 H 0.889517 0.239397 0.938148
C5 C 0.8073(11) 0.3127(14) 0.9152(9)
C6 C 0.7255(12) 0.3224(13) 0.9533(11)
H2 H 0.707501 0.367990 0.919899
O3 O 0.9261(9) 0.3542(14) 0.7770(11)
O4 O 0.8617(13) 0.4560(18) 0.8007(11)
C8 C 0.8655(16) 0.3811(21) 0.8185(15)
O7_2 O 0.0665(17) 0.6440(12) 0.7812(11)
O8_2 O 0.1497(16) 0.5598(11) 0.7848(10)
C9_2 C 0.1296(21) 0.6321(14) 0.8228(13)
C10_2 C 0.1986(13) 0.6963(10) 0.9106(9)
C11_2 C 0.1890(13) 0.7781(12) 0.9487(12)
C15_2 C 0.2654(12) 0.6700(10) 0.9596(11)
H6_2 H 0.271988 0.614097 0.933457
O11_2 O 0.166(4) 0.867(2) 0.811(3)
O12_2 O 0.063(4) 0.813(3) 0.942(2)
N2_2 N 0.1395(24) 0.8201(18) 0.9029(17)
O1 O 0.9335(17) 0.5775(12) 0.5522(11)
O2 O 0.8503(16) 0.4101(11) 0.5486(10)
C1 C 0.8704(21) 0.5025(15) 0.5106(13)
C2 C 0.8014(13) 0.4977(9) 0.4228(9)
C3 C 0.8110(13) 0.5891(6) 0.3847(12)
C4_2 C 0.7540(13) 0.5876(6) 0.2976(12)
H1_2 H 0.760603 0.650120 0.271482
C5_2 C 0.6873(14) 0.4946(9) 0.2486(9)
C6_2 C 0.6776(13) 0.4031(6) 0.2867(11)
H2_2 H 0.632010 0.339511 0.253233
C7 C 0.7346(12) 0.4046(6) 0.3738(11)
H3 H 0.728012 0.342109 0.399877
C8_2 C 0.6189(21) 0.4844(13) 0.1519(15)
O5 O 0.834(4) 0.701(3) 0.523(3)
O6 O 0.937(4) 0.750(2) 0.392(2)
N1 N 0.8605(24) 0.6806(16) 0.4305(17)
Cd1_2 Cd 0.49978(13) 0.49978(13) 1.000000
O1_2 O 0.4225(12) 0.3560(12) 0.8855(11)
O2_2 O 0.5899(11) 0.4402(11) 0.8819(10)
C1_2 C 0.4975(15) 0.3679(14) 0.8439(13)
C2_2 C 0.5023(9) 0.3037(10) 0.7561(9)
C3_2 C 0.4109(6) 0.2219(12) 0.7180(12)
C4_3 C 0.4124(6) 0.1664(11) 0.6309(12)
H1_3 H 0.349880 0.110483 0.604815
C5_3 C 0.5054(9) 0.1927(11) 0.5819(9)
C6_3 C 0.5969(6) 0.2745(12) 0.6200(11)
H2_3 H 0.660489 0.292499 0.586566
C7_2 C 0.5954(6) 0.3300(10) 0.7071(11)
H3_2 H 0.657891 0.385903 0.733210
O3_2 O 0.4281(11) 0.0739(9) 0.4437(11)
O4_2 O 0.5943(12) 0.1383(13) 0.4674(11)
C8_3 C 0.5156(13) 0.1345(16) 0.4852(15)
O5_2 O 0.299(3) 0.133(2) 0.856(3)
O6_2 O 0.250(2) 0.187(3) 0.725(2)
N1_2 N 0.3194(16) 0.1799(18) 0.7638(17)
Cd2 Cd 0.50022(13) 0.00000(18) 0.333333
O14 O 0.5719(11) 0.6458(14) 0.8896(11)
O16 O 0.4057(12) 0.5440(18) 0.8659(11)
Cd2_2 Cd 0.50022(13) 1.00000(18) 0.333333
O1_3 O 0.6440(12) 0.0665(17) 0.2188(11)
O2_3 O 0.5598(11) 0.1497(16) 0.2152(10)
C1_3 C 0.6321(14) 0.1296(21) 0.1772(13)
C2_3 C 0.6963(10) 0.1986(13) 0.0894(9)
C3_3 C 0.7781(12) 0.1890(13) 0.0513(12)
C7_3 C 0.6700(10) 0.2654(12) 0.0404(11)
H3_3 H 0.614097 0.271988 0.066543
O5_3 O 0.867(2) 0.166(4) 0.189(3)
O6_3 O 0.813(3) 0.063(4) 0.058(2)
N1_3 N 0.8201(18) 0.1395(24) 0.0971(17)
O7_3 O 0.5775(12) 0.9335(17) 0.4478(11)
O8_3 O 0.4101(11) 0.8503(16) 0.4514(10)
C9_3 C 0.5025(15) 0.8704(21) 0.4894(13)
C10_3 C 0.4977(9) 0.8014(13) 0.5772(9)
C11_3 C 0.5891(6) 0.8110(13) 0.6153(12)
C12_2 C 0.5876(6) 0.7540(13) 0.7024(12)
H4_2 H 0.650120 0.760603 0.728518
C13_2 C 0.4946(9) 0.6873(14) 0.7514(9)
C14_2 C 0.4031(6) 0.6776(13) 0.7133(11)
H5_2 H 0.339511 0.632010 0.746767
C15_3 C 0.4046(6) 0.7346(12) 0.6262(11)
H6_3 H 0.342109 0.728012 0.600123
C16_2 C 0.4844(13) 0.6189(21) 0.8481(15)
O11_3 O 0.701(3) 0.834(4) 0.477(3)
O12_3 O 0.750(2) 0.937(4) 0.608(2)
N2_3 N 0.6806(16) 0.8605(24) 0.5695(17)
O14_2 O 0.3542(14) 0.9261(18) 0.2230(11)
O16_2 O 0.4560(18) 0.8617(22) 0.1993(11)
C12_3 C 0.2460(13) 0.8336(11) 0.0358(12)
H4_3 H 0.239397 0.889517 0.061852
C13_3 C 0.3127(14) 0.8073(11) 0.0848(9)
C14_3 C 0.3224(13) 0.7255(12) 0.0467(11)
H5_3 H 0.367990 0.707501 0.080101
C16_3 C 0.3811(21) 0.8655(16) 0.1815(15)
loop_
_geom_bond_atom_site_label_1
_geom_bond_atom_site_label_2
_geom_bond_site_symmetry_1
_geom_bond_site_symmetry_2
O7 Cd1 1_555 1_555
O8 Cd1 1_555 1_555
C9 O7 1_555 1_555
C10 C9 1_555 1_555
C11 C10 1_555 1_555
C12 C11 1_555 1_555
H4 C12 1_555 1_555
C13 C12 1_555 1_555
C14 C13 1_555 1_555
H5 C14 1_555 1_555
C15 C10 1_555 1_555
H6 C15 1_555 1_555
O9 C16 1_555 1_555
O10 C16 1_555 1_555
C16 C13 1_555 1_555
O11 N2 1_555 1_555
O12 N2 1_555 1_555
N2 C11 1_555 1_555
Cd3 O9 1_555 1_555
O13 Cd1 1_555 1_555
O15 Cd1 1_555 1_555
O8 C9 1_555 1_555
C14 C15 1_555 1_555
O10 Cd3 1_555 1_555
H1 C4 1_555 1_555
C5 C4 1_555 1_555
C6 C5 1_555 1_555
H2 C6 1_555 1_555
O3 C8 1_555 1_555
O4 C8 1_555 1_555
C8 C5 1_555 1_555
Cd3_2 O3 1_555 1_555
O4 Cd3_2 1_555 1_555
O7_2 Cd3 1_555 1_555
O8_2 Cd3 1_555 1_555
C9_2 O7_2 1_555 1_555
C10_2 C9_2 1_555 1_555
C11_2 C10_2 1_555 1_555
C15_2 C10_2 1_555 1_555
H6_2 C15_2 1_555 1_555
O11_2 N2_2 1_555 1_555
O12_2 N2_2 1_555 1_555
N2_2 C11_2 1_555 1_555
O8_2 C9_2 1_555 1_555
Cd3_2 O1 1_555 1_555
O1 C1 1_555 1_555
O2 Cd3_2 1_555 1_555
C1 O2 1_555 1_555
C2 C1 1_555 1_555
C3 C2 1_555 1_555
C4_2 C3 1_555 1_555
H1_2 C4_2 1_555 1_555
C5_2 C4_2 1_555 1_555
C6_2 C5_2 1_555 1_555
H2_2 C6_2 1_555 1_555
C7 C2 1_555 1_555
H3 C7 1_555 1_555
O13 C8_2 1_555 1_555
O15 C8_2 1_555 1_555
C8_2 C5_2 1_555 1_555
O5 N1 1_555 1_555
O6 N1 1_555 1_555
N1 C3 1_555 1_555
C6_2 C7 1_555 1_555
Cd1_2 O1_2 1_555 1_555
O1_2 C1_2 1_555 1_555
O2_2 Cd1_2 1_555 1_555
C1_2 O2_2 1_555 1_555
C2_2 C1_2 1_555 1_555
C3_2 C2_2 1_555 1_555
C4_3 C3_2 1_555 1_555
H1_3 C4_3 1_555 1_555
C5_3 C4_3 1_555 1_555
C6_3 C5_3 1_555 1_555
H2_3 C6_3 1_555 1_555
C7_2 C2_2 1_555 1_555
H3_2 C7_2 1_555 1_555
O3_2 C8_3 1_555 1_555
O4_2 C8_3 1_555 1_555
C8_3 C5_3 1_555 1_555
O5_2 N1_2 1_555 1_555
O6_2 N1_2 1_555 1_555
N1_2 C3_2 1_555 1_555
Cd2 O3_2 1_555 1_555
O14 Cd1_2 1_555 1_555
O16 Cd1_2 1_555 1_555
C6_3 C7_2 1_555 1_555
O4_2 Cd2 1_555 1_555
Cd2 O1_3 1_555 1_555
O1_3 C1_3 1_555 1_555
O2_3 Cd2 1_555 1_555
C1_3 O2_3 1_555 1_555
C2_3 C1_3 1_555 1_555
C3_3 C2_3 1_555 1_555
C7_3 C2_3 1_555 1_555
H3_3 C7_3 1_555 1_555
O5_3 N1_3 1_555 1_555
O6_3 N1_3 1_555 1_555
N1_3 C3_3 1_555 1_555
O7_3 Cd2_2 1_555 1_555
O8_3 Cd2_2 1_555 1_555
C9_3 O7_3 1_555 1_555
C10_3 C9_3 1_555 1_555
C11_3 C10_3 1_555 1_555
C12_2 C11_3 1_555 1_555
H4_2 C12_2 1_555 1_555
C13_2 C12_2 1_555 1_555
C14_2 C13_2 1_555 1_555
H5_2 C14_2 1_555 1_555
C15_3 C10_3 1_555 1_555
H6_3 C15_3 1_555 1_555
O14 C16_2 1_555 1_555
O16 C16_2 1_555 1_555
C16_2 C13_2 1_555 1_555
O11_3 N2_3 1_555 1_555
O12_3 N2_3 1_555 1_555
N2_3 C11_3 1_555 1_555
O14_2 Cd2_2 1_555 1_555
O16_2 Cd2_2 1_555 1_555
O8_3 C9_3 1_555 1_555
C14_2 C15_3 1_555 1_555
H4_3 C12_3 1_555 1_555
C13_3 C12_3 1_555 1_555
C14_3 C13_3 1_555 1_555
H5_3 C14_3 1_555 1_555
O14_2 C16_3 1_555 1_555
O16_2 C16_3 1_555 1_555
C16_3 C13_3 1_555 1_555

#END
