
###############################################################################
#
# This file contains modified crystal structure data generated from the
# MOF subset of the Cambridge Structural Database (CSD) v543 
# hosted by the Cambridge Crystallographic Data Centre (CCDC).
#
# This work is licensed under the Creative Commons
# Attribution-NonCommercial-ShareAlike 4.0 International License.
# To view a copy of this license, visit
# http://creativecommons.org/licenses/by-nc-sa/4.0/
# or send a letter to
# Creative Commons, PO Box 1866, Mountain View, CA 94042, USA.
#
# CIF created using the CSD Python API on 29 September 2022
# The structure has been converted into the P1 space group
# The structure has a 3D framework
# The original CSD entry NAFRAR is in the trigonal crystal system
# The original CSD entry NAFRAR is in a Sohncke space group
# The framework has been calculated to contain at least 10.0% void space
# The void calculation uses a probe of radius 1.32A, grid spacing 0.4
# The framework is charged, counterions have been retained in the structure
#
###############################################################################

data_NAFRAR
_chemical_formula_moiety         '(C48 H18 Cd6 N6 O36 6-)n'
_symmetry_cell_setting           triclinic
_symmetry_space_group_name_H-M   'P 1'
_symmetry_Int_Tables_number      1
_space_group_name_Hall           'P 1'
loop_
_symmetry_equiv_pos_site_id
_symmetry_equiv_pos_as_xyz
1 x,y,z
_cell_length_a                   14.8744(10)
_cell_length_b                   14.8744(10)
_cell_length_c                   12.7248(9)
_cell_angle_alpha                90
_cell_angle_beta                 90
_cell_angle_gamma                120
_cell_volume                     2438.15
loop_
_atom_site_label
_atom_site_type_symbol
_atom_site_fract_x
_atom_site_fract_y
_atom_site_fract_z
Cd3 Cd -0.00000(21) 0.49969(15) 0.666667
Cd1 Cd 0.50031(15) 0.50031(15) 0.000000
C9 C 0.6317(12) 0.5020(14) 0.1557(13)
O7 O 0.5598(12) 0.4102(12) 0.1183(12)
C10 C 0.6700(11) 0.4042(6) 0.2921(13)
H4 H 0.613636 0.341342 0.266233
C11 C 0.6973(12) 0.4977(10) 0.2425(10)
C12 C 0.7798(13) 0.5897(6) 0.2804(12)
C13 C 0.8350(11) 0.5883(7) 0.3679(12)
H5 H 0.891329 0.651236 0.393761
C14 C 0.8077(11) 0.4949(10) 0.4175(9)
C15 C 0.7252(12) 0.4028(6) 0.3796(12)
H6 H 0.706579 0.338952 0.413552
O8 O 0.6468(13) 0.5781(13) 0.1127(11)
O9 O 0.9267(9) 0.5736(12) 0.5567(11)
C16 C 0.8653(16) 0.4854(14) 0.5145(15)
O10 O 0.8619(13) 0.4065(12) 0.5341(12)
N2 N 0.8228(15) 0.6835(17) 0.2348(16)
O11 O 0.818(3) 0.754(3) 0.276(2)
O12 O 0.866(3) 0.700(3) 0.142(3)
Cd3_2 Cd 1.00000(21) 0.49969(15) 0.666667
O13 O 0.3531(15) 0.4264(12) 0.1100(11)
O15 O 0.4554(18) 0.5935(12) 0.1326(12)
C5 C 0.1650(11) 0.7533(13) 0.9654(12)
H2 H 0.108671 0.759907 0.939572
C6 C 0.1923(11) 0.6872(15) 0.9158(9)
C7 C 0.2748(12) 0.6776(13) 0.9537(12)
H3 H 0.293421 0.632373 0.919781
O3 O 0.0733(9) 0.6469(15) 0.7766(11)
C8 C 0.1347(16) 0.6201(21) 0.8188(15)
O4 O 0.1381(13) 0.5446(18) 0.7992(12)
C1 C 0.1297(18) 0.4980(14) 0.5110(13)
O1 O 0.1496(17) 0.5898(12) 0.5484(12)
C2 C 0.2658(13) 0.5958(6) 0.3746(13)
H1 H 0.272294 0.658658 0.400434
C3 C 0.1996(16) 0.5023(10) 0.4242(10)
C4 C 0.1901(14) 0.4103(6) 0.3863(12)
C5_2 C 0.2467(13) 0.4117(7) 0.2988(12)
H2_2 H 0.240093 0.348764 0.272906
C6_2 C 0.3128(15) 0.5051(10) 0.2492(9)
C7_2 C 0.3224(13) 0.5972(6) 0.2871(12)
H3_2 H 0.367627 0.661048 0.253115
O2 O 0.0687(18) 0.4219(13) 0.5540(11)
C8_2 C 0.3799(21) 0.5146(14) 0.1522(15)
N1 N 0.1393(23) 0.3165(17) 0.4319(16)
O5 O 0.064(4) 0.246(3) 0.391(2)
O6 O 0.166(4) 0.300(3) 0.525(3)
C9_2 C 0.8703(18) 0.3683(12) 0.8224(13)
O7_2 O 0.8504(17) 0.4402(12) 0.7850(12)
C10_2 C 0.7342(13) 0.3300(11) 0.9588(13)
H4_2 H 0.727706 0.386364 0.932900
C11_2 C 0.8004(16) 0.3027(12) 0.9092(10)
C12_2 C 0.8099(14) 0.2202(13) 0.9471(12)
O8_2 O 0.9313(18) 0.3532(13) 0.7794(11)
N2_2 N 0.8607(23) 0.1772(15) 0.9015(16)
O11_2 O 0.936(4) 0.182(3) 0.943(2)
O12_2 O 0.834(4) 0.134(3) 0.809(3)
Cd2 Cd 0.49969(15) -0.00000(21) 0.333333
Cd1_2 Cd 0.50031(15) 0.50031(15) 1.000000
C1_2 C 0.5020(14) 0.6317(12) 0.8443(13)
O1_2 O 0.4102(12) 0.5598(12) 0.8817(12)
C2_2 C 0.4042(6) 0.6700(11) 0.7079(13)
H1_2 H 0.341342 0.613636 0.733767
C3_2 C 0.4977(10) 0.6973(12) 0.7575(10)
C4_2 C 0.5897(6) 0.7798(13) 0.7196(12)
C5_3 C 0.5883(7) 0.8350(11) 0.6321(12)
H2_3 H 0.651236 0.891329 0.606239
C6_3 C 0.4949(10) 0.8077(11) 0.5825(9)
C7_3 C 0.4028(6) 0.7252(12) 0.6204(12)
H3_3 H 0.338952 0.706579 0.586448
O2_2 O 0.5781(13) 0.6468(13) 0.8873(11)
O3_2 O 0.5736(12) 0.9267(9) 0.4433(11)
C8_3 C 0.4854(14) 0.8653(16) 0.4855(15)
O4_2 O 0.4065(12) 0.8619(13) 0.4659(12)
N1_2 N 0.6835(17) 0.8228(15) 0.7652(16)
O5_2 O 0.754(3) 0.818(3) 0.724(2)
O6_2 O 0.700(3) 0.866(3) 0.858(3)
Cd2_2 Cd 0.49969(15) 1.00000(21) 0.333333
O14 O 0.4264(12) 0.3531(15) 0.8900(11)
O16 O 0.5935(12) 0.4554(18) 0.8674(12)
C9_3 C 0.4980(14) 0.1297(18) 0.4890(13)
O7_3 O 0.5898(12) 0.1496(17) 0.4516(12)
C10_3 C 0.5958(6) 0.2658(13) 0.6254(13)
H4_3 H 0.658658 0.272294 0.599566
C11_3 C 0.5023(10) 0.1996(16) 0.5758(10)
C12_3 C 0.4103(6) 0.1901(14) 0.6137(12)
C13_2 C 0.4117(7) 0.2467(13) 0.7012(12)
H5_2 H 0.348764 0.240093 0.727094
C14_2 C 0.5051(10) 0.3128(15) 0.7508(9)
C15_2 C 0.5972(6) 0.3224(13) 0.7129(12)
H6_2 H 0.661048 0.367627 0.746885
O8_3 O 0.4219(13) 0.0687(18) 0.4460(11)
C16_2 C 0.5146(14) 0.3799(21) 0.8478(15)
N2_3 N 0.3165(17) 0.1393(23) 0.5681(16)
O11_3 O 0.246(3) 0.064(4) 0.609(2)
O12_3 O 0.300(3) 0.166(4) 0.475(3)
O14_2 O 0.6469(15) 0.0733(19) 0.2234(11)
O16_2 O 0.5446(18) 0.1381(22) 0.2008(12)
C1_3 C 0.3683(12) 0.8703(18) 0.1776(13)
O1_3 O 0.4402(12) 0.8504(17) 0.2150(12)
C2_3 C 0.3300(11) 0.7342(13) 0.0412(13)
H1_3 H 0.386364 0.727706 0.067100
C3_3 C 0.3027(12) 0.8004(16) 0.0908(10)
C4_3 C 0.2202(13) 0.8099(14) 0.0529(12)
O2_3 O 0.3532(13) 0.9313(18) 0.2206(11)
N1_3 N 0.1772(15) 0.8607(23) 0.0985(16)
O5_3 O 0.182(3) 0.936(4) 0.057(2)
O6_3 O 0.134(3) 0.834(4) 0.191(3)
C13_3 C 0.7533(13) 0.1650(11) 0.0346(12)
H5_3 H 0.759907 0.108671 0.060428
C14_3 C 0.6872(15) 0.1923(11) 0.0842(9)
C15_3 C 0.6776(13) 0.2748(12) 0.0463(12)
H6_3 H 0.632373 0.293421 0.080219
C16_3 C 0.6201(21) 0.1347(16) 0.1812(15)
loop_
_geom_bond_atom_site_label_1
_geom_bond_atom_site_label_2
_geom_bond_site_symmetry_1
_geom_bond_site_symmetry_2
C9 O7 1_555 1_555
O7 Cd1 1_555 1_555
C10 H4 1_555 1_555
C11 C9 1_555 1_555
C12 C11 1_555 1_555
C13 C12 1_555 1_555
H5 C13 1_555 1_555
C14 C13 1_555 1_555
C15 C10 1_555 1_555
H6 C15 1_555 1_555
O8 Cd1 1_555 1_555
O9 C16 1_555 1_555
C16 C14 1_555 1_555
O10 C16 1_555 1_555
N2 C12 1_555 1_555
O11 N2 1_555 1_555
O12 N2 1_555 1_555
Cd3_2 O9 1_555 1_555
O13 Cd1 1_555 1_555
O15 Cd1 1_555 1_555
C9 O8 1_555 1_555
C10 C11 1_555 1_555
C14 C15 1_555 1_555
O10 Cd3_2 1_555 1_555
H2 C5 1_555 1_555
C6 C5 1_555 1_555
H3 C7 1_555 1_555
O3 C8 1_555 1_555
C8 C6 1_555 1_555
O4 C8 1_555 1_555
Cd3 O3 1_555 1_555
C6 C7 1_555 1_555
O4 Cd3 1_555 1_555
Cd3 O1 1_555 1_555
C1 O1 1_555 1_555
C2 H1 1_555 1_555
C3 C1 1_555 1_555
C4 C3 1_555 1_555
C5_2 C4 1_555 1_555
H2_2 C5_2 1_555 1_555
C6_2 C5_2 1_555 1_555
C7_2 C2 1_555 1_555
H3_2 C7_2 1_555 1_555
O2 Cd3 1_555 1_555
O13 C8_2 1_555 1_555
C8_2 C6_2 1_555 1_555
O15 C8_2 1_555 1_555
N1 C4 1_555 1_555
O5 N1 1_555 1_555
O6 N1 1_555 1_555
C1 O2 1_555 1_555
C2 C3 1_555 1_555
C6_2 C7_2 1_555 1_555
C9_2 O7_2 1_555 1_555
O7_2 Cd3_2 1_555 1_555
C10_2 H4_2 1_555 1_555
C11_2 C9_2 1_555 1_555
C12_2 C11_2 1_555 1_555
O8_2 Cd3_2 1_555 1_555
N2_2 C12_2 1_555 1_555
O11_2 N2_2 1_555 1_555
O12_2 N2_2 1_555 1_555
C9_2 O8_2 1_555 1_555
C10_2 C11_2 1_555 1_555
Cd1_2 O1_2 1_555 1_555
C1_2 O1_2 1_555 1_555
C2_2 H1_2 1_555 1_555
C3_2 C1_2 1_555 1_555
C4_2 C3_2 1_555 1_555
C5_3 C4_2 1_555 1_555
H2_3 C5_3 1_555 1_555
C6_3 C5_3 1_555 1_555
C7_3 C2_2 1_555 1_555
H3_3 C7_3 1_555 1_555
O2_2 Cd1_2 1_555 1_555
O3_2 C8_3 1_555 1_555
C8_3 C6_3 1_555 1_555
O4_2 C8_3 1_555 1_555
N1_2 C4_2 1_555 1_555
O5_2 N1_2 1_555 1_555
O6_2 N1_2 1_555 1_555
Cd2_2 O3_2 1_555 1_555
O14 Cd1_2 1_555 1_555
O16 Cd1_2 1_555 1_555
C1_2 O2_2 1_555 1_555
C2_2 C3_2 1_555 1_555
C6_3 C7_3 1_555 1_555
O4_2 Cd2_2 1_555 1_555
C9_3 O7_3 1_555 1_555
O7_3 Cd2 1_555 1_555
C10_3 H4_3 1_555 1_555
C11_3 C9_3 1_555 1_555
C12_3 C11_3 1_555 1_555
C13_2 C12_3 1_555 1_555
H5_2 C13_2 1_555 1_555
C14_2 C13_2 1_555 1_555
C15_2 C10_3 1_555 1_555
H6_2 C15_2 1_555 1_555
O8_3 Cd2 1_555 1_555
O14 C16_2 1_555 1_555
C16_2 C14_2 1_555 1_555
O16 C16_2 1_555 1_555
N2_3 C12_3 1_555 1_555
O11_3 N2_3 1_555 1_555
O12_3 N2_3 1_555 1_555
O14_2 Cd2 1_555 1_555
O16_2 Cd2 1_555 1_555
C9_3 O8_3 1_555 1_555
C10_3 C11_3 1_555 1_555
C14_2 C15_2 1_555 1_555
Cd2_2 O1_3 1_555 1_555
C1_3 O1_3 1_555 1_555
C2_3 H1_3 1_555 1_555
C3_3 C1_3 1_555 1_555
C4_3 C3_3 1_555 1_555
O2_3 Cd2_2 1_555 1_555
N1_3 C4_3 1_555 1_555
O5_3 N1_3 1_555 1_555
O6_3 N1_3 1_555 1_555
C1_3 O2_3 1_555 1_555
C2_3 C3_3 1_555 1_555
H5_3 C13_3 1_555 1_555
C14_3 C13_3 1_555 1_555
H6_3 C15_3 1_555 1_555
O14_2 C16_3 1_555 1_555
C16_3 C14_3 1_555 1_555
O16_2 C16_3 1_555 1_555
C14_3 C15_3 1_555 1_555

#END
