
###############################################################################
#
# This file contains modified crystal structure data generated from the
# MOF subset of the Cambridge Structural Database (CSD) v543 
# hosted by the Cambridge Crystallographic Data Centre (CCDC).
#
# This work is licensed under the Creative Commons
# Attribution-NonCommercial-ShareAlike 4.0 International License.
# To view a copy of this license, visit
# http://creativecommons.org/licenses/by-nc-sa/4.0/
# or send a letter to
# Creative Commons, PO Box 1866, Mountain View, CA 94042, USA.
#
# CIF created using the CSD Python API on 29 September 2022
# The structure has been converted into the P1 space group
# The structure has a 3D framework
# The original CSD entry NAFSOF is in the orthorhombic crystal system
# The framework has been calculated to contain at least 10.0% void space
# The void calculation uses a probe of radius 1.32A, grid spacing 0.4
#
###############################################################################

data_NAFSOF
_chemical_formula_moiety         '(C168 H108 Cu12 O44)n'
_symmetry_cell_setting           triclinic
_symmetry_space_group_name_H-M   'P 1'
_symmetry_Int_Tables_number      1
_space_group_name_Hall           'P 1'
loop_
_symmetry_equiv_pos_site_id
_symmetry_equiv_pos_as_xyz
1 x,y,z
_cell_length_a                   13.113(6)
_cell_length_b                   29.058(14)
_cell_length_c                   30.167(12)
_cell_angle_alpha                90
_cell_angle_beta                 90
_cell_angle_gamma                90
_cell_volume                     11494.8
loop_
_atom_site_label
_atom_site_type_symbol
_atom_site_fract_x
_atom_site_fract_y
_atom_site_fract_z
Cu1 Cu 0.33332(5) 0.224690(14) 0.0000
C1 C 0.3228(4) 0.29984(10) 0.06056(9)
O1 O 0.3782(2) 0.26744(7) 0.04636(6)
C2 C 0.5000 0.47440(12) 0.2500
C3 C 0.4324(3) 0.37668(9) 0.17247(8)
C4 C 0.3638(3) 0.32711(9) 0.09879(8)
C5 C 0.3478(3) 0.39162(10) 0.14859(9)
H1 H 0.3144 0.4184 0.1572
C6 C 0.4681(3) 0.45026(8) 0.21248(7)
H2 H 0.4472 0.4662 0.1874
C7 C 0.4805(3) 0.33674(10) 0.15907(9)
H3 H 0.5361 0.3257 0.1750
C8 C 0.3123(3) 0.36700(11) 0.11189(9)
H4 H 0.2551 0.3770 0.0964
C9 C 0.4675(3) 0.40200(8) 0.21248(8)
C10 C 0.4464(3) 0.31276(10) 0.12187(9)
H5 H 0.4810 0.2865 0.1128
C11 C 0.5000 0.37886(12) 0.2500
H6 H 0.5000 0.3469 0.2500
O2 O 0.2369(2) 0.31086(7) 0.04573(6)
O3 O 0.4685(3) 0.18339(13) 0.0000
H7 H 0.4757 0.1659 0.0225
C12 C 0.6772(4) 0.70016(10) 0.06056(9)
O4 O 0.6218(2) 0.73256(7) 0.04636(6)
C13 C 0.5000 0.52560(12) 0.2500
C14 C 0.5676(3) 0.62332(9) 0.17247(8)
C15 C 0.6362(3) 0.67289(9) 0.09879(8)
C16 C 0.6522(3) 0.60838(10) 0.14859(9)
H8 H 0.6856 0.5816 0.1572
C17 C 0.5319(3) 0.54974(8) 0.21248(7)
H9 H 0.5528 0.5338 0.1874
C18 C 0.5195(3) 0.66326(10) 0.15907(9)
H10 H 0.4639 0.6743 0.1750
C19 C 0.6877(3) 0.63300(11) 0.11189(9)
H11 H 0.7449 0.6230 0.0964
C20 C 0.5325(3) 0.59800(8) 0.21248(8)
C21 C 0.5536(3) 0.68724(10) 0.12187(9)
H12 H 0.5190 0.7135 0.1128
C22 C 0.5000 0.62114(12) 0.2500
H13 H 0.5000 0.6531 0.2500
O5 O 0.7631(2) 0.68914(7) 0.04573(6)
C23 C 0.3228(4) 0.70016(10) 0.43944(9)
O6 O 0.3782(2) 0.73256(7) 0.45364(6)
C24 C 0.4324(3) 0.62332(9) 0.32753(8)
C25 C 0.3638(3) 0.67289(9) 0.40121(8)
C26 C 0.3478(3) 0.60838(10) 0.35141(9)
H14 H 0.3144 0.5816 0.3428
C27 C 0.4681(3) 0.54974(8) 0.28752(7)
H15 H 0.4472 0.5338 0.3126
C28 C 0.4805(3) 0.66326(10) 0.34093(9)
H16 H 0.5361 0.6743 0.3250
C29 C 0.3123(3) 0.63300(11) 0.38811(9)
H17 H 0.2551 0.6230 0.4036
C30 C 0.4675(3) 0.59800(8) 0.28752(8)
C31 C 0.4464(3) 0.68724(10) 0.37813(9)
H18 H 0.4810 0.7135 0.3872
O7 O 0.2369(2) 0.68914(7) 0.45427(6)
C32 C 0.6772(4) 0.29984(10) 0.43944(9)
O8 O 0.6218(2) 0.26744(7) 0.45364(6)
C33 C 0.5676(3) 0.37668(9) 0.32753(8)
C34 C 0.6362(3) 0.32711(9) 0.40121(8)
C35 C 0.6522(3) 0.39162(10) 0.35141(9)
H19 H 0.6856 0.4184 0.3428
C36 C 0.5319(3) 0.45026(8) 0.28752(7)
H20 H 0.5528 0.4662 0.3126
C37 C 0.5195(3) 0.33674(10) 0.34093(9)
H21 H 0.4639 0.3257 0.3250
C38 C 0.6877(3) 0.36700(11) 0.38811(9)
H22 H 0.7449 0.3770 0.4036
C39 C 0.5325(3) 0.40200(8) 0.28752(8)
C40 C 0.5536(3) 0.31276(10) 0.37813(9)
H23 H 0.5190 0.2865 0.3872
O9 O 0.7631(2) 0.31086(7) 0.45427(6)
Cu2 Cu 0.66668(5) 0.775310(14) 0.0000
O10 O 0.5315(3) 0.81661(13) 0.0000
H25 H 0.5243 0.8341 0.0225
Cu3 Cu 0.33332(5) 0.775310(14) 0.5000
Cu4 Cu 0.66668(5) 0.224690(14) 0.5000
Cu5 Cu 0.83332(5) 0.724690(14) 0.0000
Cu6 Cu 0.16668(5) 0.275310(14) 0.0000
Cu7 Cu 0.83332(5) 0.275310(14) 0.5000
Cu8 Cu 0.16668(5) 0.724690(14) 0.5000
O13 O 0.7369(2) 0.81086(7) 0.04573(6)
O14 O 0.2631(2) 0.18914(7) 0.04573(6)
Cu1_2 Cu 0.33332(5) 0.224690(14) 1.0000
O3_2 O 0.4685(3) 0.18339(13) 1.0000
H24 H 0.4757 0.1659 0.9775
Cu2_2 Cu 0.66668(5) 0.775310(14) 1.0000
O10_2 O 0.5315(3) 0.81661(13) 1.0000
H26 H 0.5243 0.8341 0.9775
Cu5_2 Cu 0.83332(5) 0.724690(14) 1.0000
Cu6_2 Cu 0.16668(5) 0.275310(14) 1.0000
O11 O 0.6218(2) 0.73256(7) 0.95364(6)
O12 O 0.3782(2) 0.26744(7) 0.95364(6)
O15 O 0.2631(2) 0.18914(7) 0.95427(6)
O16 O 0.7369(2) 0.81086(7) 0.95427(6)
O3_3 O 0.4685(3) 0.81661(13) 0.5000
H7_2 H 0.4757 0.8341 0.4775
H24_2 H 0.4757 0.8341 0.5225
O10_3 O 0.5315(3) 0.18339(13) 0.5000
H25_2 H 0.5243 0.1659 0.4775
H26_2 H 0.5243 0.1659 0.5225
O11_2 O 0.6218(2) 0.26744(7) 0.54636(6)
O12_2 O 0.3782(2) 0.73256(7) 0.54636(6)
O13_2 O 0.7369(2) 0.18914(7) 0.45427(6)
O14_2 O 0.2631(2) 0.81086(7) 0.45427(6)
O15_2 O 0.2631(2) 0.81086(7) 0.54573(6)
O16_2 O 0.7369(2) 0.18914(7) 0.54573(6)
C12_2 C 0.1772(4) 0.20016(10) 0.06056(9)
O4_2 O 0.1218(2) 0.23256(7) 0.04636(6)
C13_2 C -0.0000 0.02560(12) 0.2500
C14_2 C 0.0676(3) 0.12332(9) 0.17247(8)
C15_2 C 0.1362(3) 0.17289(9) 0.09879(8)
C16_2 C 0.1522(3) 0.10838(10) 0.14859(9)
H8_2 H 0.1856 0.0816 0.1572
C17_2 C 0.0319(3) 0.04974(8) 0.21248(7)
H9_2 H 0.0528 0.0338 0.1874
C18_2 C 0.0195(3) 0.16326(10) 0.15907(9)
C19_2 C 0.1877(3) 0.13300(11) 0.11189(9)
H11_2 H 0.2449 0.1230 0.0964
C20_2 C 0.0325(3) 0.09800(8) 0.21248(8)
C21_2 C 0.0536(3) 0.18724(10) 0.12187(9)
H12_2 H 0.0190 0.2135 0.1128
C22_2 C -0.0000 0.12114(12) 0.2500
H13_2 H -0.0000 0.1531 0.2500
H16_2 H 0.0361 0.1743 0.3250
O10_4 O 0.0315(3) 0.31661(13) 0.0000
H25_3 H 0.0243 0.3341 0.0225
O10_5 O 0.0315(3) 0.31661(13) 1.0000
H26_3 H 0.0243 0.3341 0.9775
O11_3 O 0.1218(2) 0.23256(7) 0.95364(6)
O16_3 O 0.2369(2) 0.31086(7) 0.95427(6)
C2_2 C -0.0000 0.97440(12) 0.2500
H3_2 H 0.0361 0.8257 0.1750
C11_2 C 0.0000 0.87886(12) 0.2500
H6_2 H 0.0000 0.8469 0.2500
C32_2 C 0.1772(4) 0.79984(10) 0.43944(9)
O8_2 O 0.1218(2) 0.76744(7) 0.45364(6)
C33_2 C 0.0676(3) 0.87668(9) 0.32753(8)
C34_2 C 0.1362(3) 0.82711(9) 0.40121(8)
C35_2 C 0.1522(3) 0.89162(10) 0.35141(9)
H19_2 H 0.1856 0.9184 0.3428
C36_2 C 0.0319(3) 0.95026(8) 0.28752(7)
H20_2 H 0.0528 0.9662 0.3126
C37_2 C 0.0195(3) 0.83674(10) 0.34093(9)
C38_2 C 0.1877(3) 0.86700(11) 0.38811(9)
H22_2 H 0.2449 0.8770 0.4036
C39_2 C 0.0325(3) 0.90200(8) 0.28752(8)
C40_2 C 0.0536(3) 0.81276(10) 0.37813(9)
H23_2 H 0.0190 0.7865 0.3872
C13_3 C 1.0000 0.02560(12) 0.2500
H10_2 H 0.9639 0.1743 0.1750
C22_3 C 1.0000 0.12114(12) 0.2500
H13_3 H 1.0000 0.1531 0.2500
C23_2 C 0.8228(4) 0.20016(10) 0.43944(9)
O6_2 O 0.8782(2) 0.23256(7) 0.45364(6)
C24_2 C 0.9324(3) 0.12332(9) 0.32753(8)
C25_2 C 0.8638(3) 0.17289(9) 0.40121(8)
C26_2 C 0.8478(3) 0.10838(10) 0.35141(9)
H14_2 H 0.8144 0.0816 0.3428
C27_2 C 0.9681(3) 0.04974(8) 0.28752(7)
H15_2 H 0.9472 0.0338 0.3126
C28_2 C 0.9805(3) 0.16326(10) 0.34093(9)
C29_2 C 0.8123(3) 0.13300(11) 0.38811(9)
H17_2 H 0.7551 0.1230 0.4036
C30_2 C 0.9675(3) 0.09800(8) 0.28752(8)
C31_2 C 0.9464(3) 0.18724(10) 0.37813(9)
H18_2 H 0.9810 0.2135 0.3872
C1_2 C 0.8228(4) 0.79984(10) 0.06056(9)
O1_2 O 0.8782(2) 0.76744(7) 0.04636(6)
C2_3 C 1.0000 0.97440(12) 0.2500
C3_2 C 0.9324(3) 0.87668(9) 0.17247(8)
C4_2 C 0.8638(3) 0.82711(9) 0.09879(8)
C5_2 C 0.8478(3) 0.89162(10) 0.14859(9)
H1_2 H 0.8144 0.9184 0.1572
C6_2 C 0.9681(3) 0.95026(8) 0.21248(7)
H2_2 H 0.9472 0.9662 0.1874
C7_2 C 0.9805(3) 0.83674(10) 0.15907(9)
C8_2 C 0.8123(3) 0.86700(11) 0.11189(9)
H4_2 H 0.7551 0.8770 0.0964
C9_2 C 0.9675(3) 0.90200(8) 0.21248(8)
C10_2 C 0.9464(3) 0.81276(10) 0.12187(9)
H5_2 H 0.9810 0.7865 0.1128
C11_3 C 1.0000 0.87886(12) 0.2500
H6_3 H 1.0000 0.8469 0.2500
O3_4 O 0.9685(3) 0.68339(13) 0.0000
H7_3 H 0.9757 0.6659 0.0225
H21_2 H 0.9639 0.8257 0.3250
O3_5 O 0.9685(3) 0.68339(13) 1.0000
H24_3 H 0.9757 0.6659 0.9775
O12_3 O 0.8782(2) 0.76744(7) 0.95364(6)
O15_3 O 0.7631(2) 0.68914(7) 0.95427(6)
O10_6 O 0.0315(3) 0.68339(13) 0.5000
H25_4 H 0.0243 0.6659 0.4775
H26_4 H 0.0243 0.6659 0.5225
O11_4 O 0.1218(2) 0.76744(7) 0.54636(6)
O16_4 O 0.2369(2) 0.68914(7) 0.54573(6)
O3_6 O 0.9685(3) 0.31661(13) 0.5000
H7_4 H 0.9757 0.3341 0.4775
H24_4 H 0.9757 0.3341 0.5225
O12_4 O 0.8782(2) 0.23256(7) 0.54636(6)
O15_4 O 0.7631(2) 0.31086(7) 0.54573(6)
C1_3 C 0.6772(4) 0.70016(10) 0.93944(9)
C2_4 C 0.5000 0.52560(12) 0.7500
C3_3 C 0.5676(3) 0.62332(9) 0.82753(8)
C4_3 C 0.6362(3) 0.67289(9) 0.90121(8)
C5_3 C 0.6522(3) 0.60838(10) 0.85141(9)
H1_3 H 0.6856 0.5816 0.8428
C6_3 C 0.5319(3) 0.54974(8) 0.78752(7)
H2_3 H 0.5528 0.5338 0.8126
C7_3 C 0.5195(3) 0.66326(10) 0.84093(9)
H3_3 H 0.4639 0.6743 0.8250
C8_3 C 0.6877(3) 0.63300(11) 0.88811(9)
H4_3 H 0.7449 0.6230 0.9036
C9_3 C 0.5325(3) 0.59800(8) 0.78752(8)
C10_3 C 0.5536(3) 0.68724(10) 0.87813(9)
H5_3 H 0.5190 0.7135 0.8872
C11_4 C 0.5000 0.62114(12) 0.7500
H6_4 H 0.5000 0.6531 0.7500
C12_3 C 0.3228(4) 0.29984(10) 0.93944(9)
C13_4 C 0.5000 0.47440(12) 0.7500
C14_3 C 0.4324(3) 0.37668(9) 0.82753(8)
C15_3 C 0.3638(3) 0.32711(9) 0.90121(8)
C16_3 C 0.3478(3) 0.39162(10) 0.85141(9)
H8_3 H 0.3144 0.4184 0.8428
C17_3 C 0.4681(3) 0.45026(8) 0.78752(7)
H9_3 H 0.4472 0.4662 0.8126
C18_3 C 0.4805(3) 0.33674(10) 0.84093(9)
H10_3 H 0.5361 0.3257 0.8250
C19_3 C 0.3123(3) 0.36700(11) 0.88811(9)
H11_3 H 0.2551 0.3770 0.9036
C20_3 C 0.4675(3) 0.40200(8) 0.78752(8)
C21_3 C 0.4464(3) 0.31276(10) 0.87813(9)
H12_3 H 0.4810 0.2865 0.8872
C22_4 C 0.5000 0.37886(12) 0.7500
H13_4 H 0.5000 0.3469 0.7500
C23_3 C 0.6772(4) 0.29984(10) 0.56056(9)
C24_3 C 0.5676(3) 0.37668(9) 0.67247(8)
C25_3 C 0.6362(3) 0.32711(9) 0.59879(8)
C26_3 C 0.6522(3) 0.39162(10) 0.64859(9)
H14_3 H 0.6856 0.4184 0.6572
C27_3 C 0.5319(3) 0.45026(8) 0.71248(7)
H15_3 H 0.5528 0.4662 0.6874
C28_3 C 0.5195(3) 0.33674(10) 0.65907(9)
H16_3 H 0.4639 0.3257 0.6750
C29_3 C 0.6877(3) 0.36700(11) 0.61189(9)
H17_3 H 0.7449 0.3770 0.5964
C30_3 C 0.5325(3) 0.40200(8) 0.71248(8)
C31_3 C 0.5536(3) 0.31276(10) 0.62187(9)
H18_3 H 0.5190 0.2865 0.6128
C32_3 C 0.3228(4) 0.70016(10) 0.56056(9)
C33_3 C 0.4324(3) 0.62332(9) 0.67247(8)
C34_3 C 0.3638(3) 0.67289(9) 0.59879(8)
C35_3 C 0.3478(3) 0.60838(10) 0.64859(9)
H19_3 H 0.3144 0.5816 0.6572
C36_3 C 0.4681(3) 0.54974(8) 0.71248(7)
H20_3 H 0.4472 0.5338 0.6874
C37_3 C 0.4805(3) 0.66326(10) 0.65907(9)
H21_3 H 0.5361 0.6743 0.6750
C38_3 C 0.3123(3) 0.63300(11) 0.61189(9)
H22_3 H 0.2551 0.6230 0.5964
C39_3 C 0.4675(3) 0.59800(8) 0.71248(8)
C40_3 C 0.4464(3) 0.68724(10) 0.62187(9)
H23_3 H 0.4810 0.7135 0.6128
C1_4 C 0.1772(4) 0.20016(10) 0.93944(9)
C2_5 C 0.0000 0.02560(12) 0.7500
C3_4 C 0.0676(3) 0.12332(9) 0.82753(8)
C4_4 C 0.1362(3) 0.17289(9) 0.90121(8)
C5_4 C 0.1522(3) 0.10838(10) 0.85141(9)
H1_4 H 0.1856 0.0816 0.8428
C6_4 C 0.0319(3) 0.04974(8) 0.78752(7)
H2_4 H 0.0528 0.0338 0.8126
C7_4 C 0.0195(3) 0.16326(10) 0.84093(9)
C8_4 C 0.1877(3) 0.13300(11) 0.88811(9)
H4_4 H 0.2449 0.1230 0.9036
C9_4 C 0.0325(3) 0.09800(8) 0.78752(8)
C10_4 C 0.0536(3) 0.18724(10) 0.87813(9)
H5_4 H 0.0190 0.2135 0.8872
C11_5 C -0.0000 0.12114(12) 0.7500
H6_5 H -0.0000 0.1531 0.7500
H21_4 H 0.0361 0.1743 0.6750
C13_5 C 0.0000 0.97440(12) 0.7500
H10_4 H 0.0361 0.8257 0.8250
C22_5 C 0.0000 0.87886(12) 0.7500
H13_5 H 0.0000 0.8469 0.7500
C23_4 C 0.1772(4) 0.79984(10) 0.56056(9)
C24_4 C 0.0676(3) 0.87668(9) 0.67247(8)
C25_4 C 0.1362(3) 0.82711(9) 0.59879(8)
C26_4 C 0.1522(3) 0.89162(10) 0.64859(9)
H14_4 H 0.1856 0.9184 0.6572
C27_4 C 0.0319(3) 0.95026(8) 0.71248(7)
H15_4 H 0.0528 0.9662 0.6874
C28_4 C 0.0195(3) 0.83674(10) 0.65907(9)
C29_4 C 0.1877(3) 0.86700(11) 0.61189(9)
H17_4 H 0.2449 0.8770 0.5964
C30_4 C 0.0325(3) 0.90200(8) 0.71248(8)
C31_4 C 0.0536(3) 0.81276(10) 0.62187(9)
H18_4 H 0.0190 0.7865 0.6128
C2_6 C 1.0000 0.02560(12) 0.7500
H3_4 H 0.9639 0.1743 0.8250
C11_6 C 1.0000 0.12114(12) 0.7500
H6_6 H 1.0000 0.1531 0.7500
C32_4 C 0.8228(4) 0.20016(10) 0.56056(9)
C33_4 C 0.9324(3) 0.12332(9) 0.67247(8)
C34_4 C 0.8638(3) 0.17289(9) 0.59879(8)
C35_4 C 0.8478(3) 0.10838(10) 0.64859(9)
H19_4 H 0.8144 0.0816 0.6572
C36_4 C 0.9681(3) 0.04974(8) 0.71248(7)
H20_4 H 0.9472 0.0338 0.6874
C37_4 C 0.9805(3) 0.16326(10) 0.65907(9)
C38_4 C 0.8123(3) 0.13300(11) 0.61189(9)
H22_4 H 0.7551 0.1230 0.5964
C39_4 C 0.9675(3) 0.09800(8) 0.71248(8)
C40_4 C 0.9464(3) 0.18724(10) 0.62187(9)
H23_4 H 0.9810 0.2135 0.6128
C12_4 C 0.8228(4) 0.79984(10) 0.93944(9)
C13_6 C 1.0000 0.97440(12) 0.7500
C14_4 C 0.9324(3) 0.87668(9) 0.82753(8)
C15_4 C 0.8638(3) 0.82711(9) 0.90121(8)
C16_4 C 0.8478(3) 0.89162(10) 0.85141(9)
H8_4 H 0.8144 0.9184 0.8428
C17_4 C 0.9681(3) 0.95026(8) 0.78752(7)
H9_4 H 0.9472 0.9662 0.8126
C18_4 C 0.9805(3) 0.83674(10) 0.84093(9)
C19_4 C 0.8123(3) 0.86700(11) 0.88811(9)
H11_4 H 0.7551 0.8770 0.9036
C20_4 C 0.9675(3) 0.90200(8) 0.78752(8)
C21_4 C 0.9464(3) 0.81276(10) 0.87813(9)
H12_4 H 0.9810 0.7865 0.8872
C22_6 C 1.0000 0.87886(12) 0.7500
H13_6 H 1.0000 0.8469 0.7500
H16_4 H 0.9639 0.8257 0.6750
loop_
_geom_bond_atom_site_label_1
_geom_bond_atom_site_label_2
_geom_bond_site_symmetry_1
_geom_bond_site_symmetry_2
Cu1 O1 1_555 1_555
C1 O1 1_555 1_555
C2 C6 1_555 1_555
C3 C5 1_555 1_555
C4 C1 1_555 1_555
C5 H1 1_555 1_555
C6 H2 1_555 1_555
C7 C3 1_555 1_555
H3 C7 1_555 1_555
C8 C4 1_555 1_555
H4 C8 1_555 1_555
C9 C3 1_555 1_555
C10 C4 1_555 1_555
H5 C10 1_555 1_555
C11 C9 1_555 1_555
H6 C11 1_555 1_555
O2 C1 1_555 1_555
O3 Cu1 1_555 1_555
H7 O3 1_555 1_555
C12 O4 1_555 1_555
O4 Cu2 1_555 1_555
C13 C2 1_555 1_555
C14 C16 1_555 1_555
C15 C12 1_555 1_555
C16 H8 1_555 1_555
C17 C13 1_555 1_555
H9 C17 1_555 1_555
C18 C14 1_555 1_555
H10 C18 1_555 1_555
C19 C15 1_555 1_555
H11 C19 1_555 1_555
C20 C14 1_555 1_555
C21 C15 1_555 1_555
H12 C21 1_555 1_555
C22 C20 1_555 1_555
H13 C22 1_555 1_555
O5 C12 1_555 1_555
C23 O6 1_555 1_555
O6 Cu3 1_555 1_555
C24 C26 1_555 1_555
C25 C23 1_555 1_555
C26 H14 1_555 1_555
C27 C13 1_555 1_555
H15 C27 1_555 1_555
C28 C24 1_555 1_555
H16 C28 1_555 1_555
C29 C25 1_555 1_555
H17 C29 1_555 1_555
C30 C22 1_555 1_555
C31 C25 1_555 1_555
H18 C31 1_555 1_555
O7 C23 1_555 1_555
C32 O8 1_555 1_555
O8 Cu4 1_555 1_555
C33 C35 1_555 1_555
C34 C32 1_555 1_555
C35 H19 1_555 1_555
C36 C2 1_555 1_555
H20 C36 1_555 1_555
C37 C33 1_555 1_555
H21 C37 1_555 1_555
C38 C34 1_555 1_555
H22 C38 1_555 1_555
C39 C11 1_555 1_555
C40 C34 1_555 1_555
H23 C40 1_555 1_555
O9 C32 1_555 1_555
Cu2 O10 1_555 1_555
O10 H25 1_555 1_555
Cu5 O5 1_555 1_555
Cu6 O2 1_555 1_555
Cu7 O9 1_555 1_555
Cu8 O7 1_555 1_555
O13 Cu2 1_555 1_555
O14 Cu1 1_555 1_555
C5 C8 1_555 1_555
C6 C9 1_555 1_555
C7 C10 1_555 1_555
C16 C19 1_555 1_555
C17 C20 1_555 1_555
C18 C21 1_555 1_555
C24 C30 1_555 1_555
C26 C29 1_555 1_555
C27 C30 1_555 1_555
C28 C31 1_555 1_555
C33 C39 1_555 1_555
C35 C38 1_555 1_555
C36 C39 1_555 1_555
C37 C40 1_555 1_555
O3_2 Cu1_2 1_555 1_555
H24 O3_2 1_555 1_555
Cu2_2 O10_2 1_555 1_555
H26 O10_2 1_555 1_555
O11 Cu2_2 1_555 1_555
O12 Cu1_2 1_555 1_555
O15 Cu1_2 1_555 1_555
O16 Cu2_2 1_555 1_555
O3_3 Cu3 1_555 1_555
H7_2 O3_3 1_555 1_555
H24_2 O3_3 1_555 1_555
Cu4 O10_3 1_555 1_555
O10_3 H25_2 1_555 1_555
H26_2 O10_3 1_555 1_555
O11_2 Cu4 1_555 1_555
O12_2 Cu3 1_555 1_555
O13_2 Cu4 1_555 1_555
O14_2 Cu3 1_555 1_555
O15_2 Cu3 1_555 1_555
O16_2 Cu4 1_555 1_555
C12_2 O4_2 1_555 1_555
O4_2 Cu6 1_555 1_555
C14_2 C16_2 1_555 1_555
C15_2 C12_2 1_555 1_555
C16_2 H8_2 1_555 1_555
C17_2 C13_2 1_555 1_555
H9_2 C17_2 1_555 1_555
C18_2 C14_2 1_555 1_555
C19_2 C15_2 1_555 1_555
H11_2 C19_2 1_555 1_555
C20_2 C14_2 1_555 1_555
C21_2 C15_2 1_555 1_555
H12_2 C21_2 1_555 1_555
C22_2 C20_2 1_555 1_555
H13_2 C22_2 1_555 1_555
O14 C12_2 1_555 1_555
Cu6 O10_4 1_555 1_555
O10_4 H25_3 1_555 1_555
C16_2 C19_2 1_555 1_555
C17_2 C20_2 1_555 1_555
C18_2 C21_2 1_555 1_555
Cu6_2 O10_5 1_555 1_555
H26_3 O10_5 1_555 1_555
O11_3 Cu6_2 1_555 1_555
O16_3 Cu6_2 1_555 1_555
H6_2 C11_2 1_555 1_555
C32_2 O8_2 1_555 1_555
O8_2 Cu8 1_555 1_555
C33_2 C35_2 1_555 1_555
C34_2 C32_2 1_555 1_555
C35_2 H19_2 1_555 1_555
C36_2 C2_2 1_555 1_555
H20_2 C36_2 1_555 1_555
C37_2 C33_2 1_555 1_555
C38_2 C34_2 1_555 1_555
H22_2 C38_2 1_555 1_555
C39_2 C11_2 1_555 1_555
C40_2 C34_2 1_555 1_555
H23_2 C40_2 1_555 1_555
O14_2 C32_2 1_555 1_555
C33_2 C39_2 1_555 1_555
C35_2 C38_2 1_555 1_555
C36_2 C39_2 1_555 1_555
C37_2 C40_2 1_555 1_555
H13_3 C22_3 1_555 1_555
C23_2 O6_2 1_555 1_555
O6_2 Cu7 1_555 1_555
C24_2 C26_2 1_555 1_555
C25_2 C23_2 1_555 1_555
C26_2 H14_2 1_555 1_555
C27_2 C13_3 1_555 1_555
H15_2 C27_2 1_555 1_555
C28_2 C24_2 1_555 1_555
C29_2 C25_2 1_555 1_555
H17_2 C29_2 1_555 1_555
C30_2 C22_3 1_555 1_555
C31_2 C25_2 1_555 1_555
H18_2 C31_2 1_555 1_555
O13_2 C23_2 1_555 1_555
C24_2 C30_2 1_555 1_555
C26_2 C29_2 1_555 1_555
C27_2 C30_2 1_555 1_555
C28_2 C31_2 1_555 1_555
Cu5 O1_2 1_555 1_555
C1_2 O1_2 1_555 1_555
C2_3 C6_2 1_555 1_555
C3_2 C5_2 1_555 1_555
C4_2 C1_2 1_555 1_555
C5_2 H1_2 1_555 1_555
C6_2 H2_2 1_555 1_555
C7_2 C3_2 1_555 1_555
C8_2 C4_2 1_555 1_555
H4_2 C8_2 1_555 1_555
C9_2 C3_2 1_555 1_555
C10_2 C4_2 1_555 1_555
H5_2 C10_2 1_555 1_555
C11_3 C9_2 1_555 1_555
H6_3 C11_3 1_555 1_555
O13 C1_2 1_555 1_555
O3_4 Cu5 1_555 1_555
H7_3 O3_4 1_555 1_555
C5_2 C8_2 1_555 1_555
C6_2 C9_2 1_555 1_555
C7_2 C10_2 1_555 1_555
O3_5 Cu5_2 1_555 1_555
H24_3 O3_5 1_555 1_555
O12_3 Cu5_2 1_555 1_555
O15_3 Cu5_2 1_555 1_555
Cu8 O10_6 1_555 1_555
O10_6 H25_4 1_555 1_555
H26_4 O10_6 1_555 1_555
O11_4 Cu8 1_555 1_555
O16_4 Cu8 1_555 1_555
O3_6 Cu7 1_555 1_555
H7_4 O3_6 1_555 1_555
H24_4 O3_6 1_555 1_555
O12_4 Cu7 1_555 1_555
O15_4 Cu7 1_555 1_555
C1_3 O11 1_555 1_555
C2_4 C6_3 1_555 1_555
C3_3 C5_3 1_555 1_555
C4_3 C1_3 1_555 1_555
C5_3 H1_3 1_555 1_555
C6_3 H2_3 1_555 1_555
C7_3 C3_3 1_555 1_555
H3_3 C7_3 1_555 1_555
C8_3 C4_3 1_555 1_555
H4_3 C8_3 1_555 1_555
C9_3 C3_3 1_555 1_555
C10_3 C4_3 1_555 1_555
H5_3 C10_3 1_555 1_555
C11_4 C9_3 1_555 1_555
H6_4 C11_4 1_555 1_555
O15_3 C1_3 1_555 1_555
C12_3 O12 1_555 1_555
C13_4 C2_4 1_555 1_555
C14_3 C16_3 1_555 1_555
C15_3 C12_3 1_555 1_555
C16_3 H8_3 1_555 1_555
C17_3 C13_4 1_555 1_555
H9_3 C17_3 1_555 1_555
C18_3 C14_3 1_555 1_555
H10_3 C18_3 1_555 1_555
C19_3 C15_3 1_555 1_555
H11_3 C19_3 1_555 1_555
C20_3 C14_3 1_555 1_555
C21_3 C15_3 1_555 1_555
H12_3 C21_3 1_555 1_555
C22_4 C20_3 1_555 1_555
H13_4 C22_4 1_555 1_555
O16_3 C12_3 1_555 1_555
C23_3 O11_2 1_555 1_555
C24_3 C26_3 1_555 1_555
C25_3 C23_3 1_555 1_555
C26_3 H14_3 1_555 1_555
C27_3 C13_4 1_555 1_555
H15_3 C27_3 1_555 1_555
C28_3 C24_3 1_555 1_555
H16_3 C28_3 1_555 1_555
C29_3 C25_3 1_555 1_555
H17_3 C29_3 1_555 1_555
C30_3 C22_4 1_555 1_555
C31_3 C25_3 1_555 1_555
H18_3 C31_3 1_555 1_555
O15_4 C23_3 1_555 1_555
C32_3 O12_2 1_555 1_555
C33_3 C35_3 1_555 1_555
C34_3 C32_3 1_555 1_555
C35_3 H19_3 1_555 1_555
C36_3 C2_4 1_555 1_555
H20_3 C36_3 1_555 1_555
C37_3 C33_3 1_555 1_555
H21_3 C37_3 1_555 1_555
C38_3 C34_3 1_555 1_555
H22_3 C38_3 1_555 1_555
C39_3 C11_4 1_555 1_555
C40_3 C34_3 1_555 1_555
H23_3 C40_3 1_555 1_555
O16_4 C32_3 1_555 1_555
C5_3 C8_3 1_555 1_555
C6_3 C9_3 1_555 1_555
C7_3 C10_3 1_555 1_555
C16_3 C19_3 1_555 1_555
C17_3 C20_3 1_555 1_555
C18_3 C21_3 1_555 1_555
C24_3 C30_3 1_555 1_555
C26_3 C29_3 1_555 1_555
C27_3 C30_3 1_555 1_555
C28_3 C31_3 1_555 1_555
C33_3 C39_3 1_555 1_555
C35_3 C38_3 1_555 1_555
C36_3 C39_3 1_555 1_555
C37_3 C40_3 1_555 1_555
C1_4 O11_3 1_555 1_555
C2_5 C6_4 1_555 1_555
C3_4 C5_4 1_555 1_555
C4_4 C1_4 1_555 1_555
C5_4 H1_4 1_555 1_555
C6_4 H2_4 1_555 1_555
C7_4 C3_4 1_555 1_555
C8_4 C4_4 1_555 1_555
H4_4 C8_4 1_555 1_555
C9_4 C3_4 1_555 1_555
C10_4 C4_4 1_555 1_555
H5_4 C10_4 1_555 1_555
C11_5 C9_4 1_555 1_555
H6_5 C11_5 1_555 1_555
O15 C1_4 1_555 1_555
C5_4 C8_4 1_555 1_555
C6_4 C9_4 1_555 1_555
C7_4 C10_4 1_555 1_555
H13_5 C22_5 1_555 1_555
C23_4 O11_4 1_555 1_555
C24_4 C26_4 1_555 1_555
C25_4 C23_4 1_555 1_555
C26_4 H14_4 1_555 1_555
C27_4 C13_5 1_555 1_555
H15_4 C27_4 1_555 1_555
C28_4 C24_4 1_555 1_555
C29_4 C25_4 1_555 1_555
H17_4 C29_4 1_555 1_555
C30_4 C22_5 1_555 1_555
C31_4 C25_4 1_555 1_555
H18_4 C31_4 1_555 1_555
O15_2 C23_4 1_555 1_555
C24_4 C30_4 1_555 1_555
C26_4 C29_4 1_555 1_555
C27_4 C30_4 1_555 1_555
C28_4 C31_4 1_555 1_555
H6_6 C11_6 1_555 1_555
C32_4 O12_4 1_555 1_555
C33_4 C35_4 1_555 1_555
C34_4 C32_4 1_555 1_555
C35_4 H19_4 1_555 1_555
C36_4 C2_6 1_555 1_555
H20_4 C36_4 1_555 1_555
C37_4 C33_4 1_555 1_555
C38_4 C34_4 1_555 1_555
H22_4 C38_4 1_555 1_555
C39_4 C11_6 1_555 1_555
C40_4 C34_4 1_555 1_555
H23_4 C40_4 1_555 1_555
O16_2 C32_4 1_555 1_555
C33_4 C39_4 1_555 1_555
C35_4 C38_4 1_555 1_555
C36_4 C39_4 1_555 1_555
C37_4 C40_4 1_555 1_555
C12_4 O12_3 1_555 1_555
C14_4 C16_4 1_555 1_555
C15_4 C12_4 1_555 1_555
C16_4 H8_4 1_555 1_555
C17_4 C13_6 1_555 1_555
H9_4 C17_4 1_555 1_555
C18_4 C14_4 1_555 1_555
C19_4 C15_4 1_555 1_555
H11_4 C19_4 1_555 1_555
C20_4 C14_4 1_555 1_555
C21_4 C15_4 1_555 1_555
H12_4 C21_4 1_555 1_555
C22_6 C20_4 1_555 1_555
H13_6 C22_6 1_555 1_555
O16 C12_4 1_555 1_555
C16_4 C19_4 1_555 1_555
C17_4 C20_4 1_555 1_555
C18_4 C21_4 1_555 1_555

#END
