
###############################################################################
#
# This file contains modified crystal structure data generated from the
# MOF subset of the Cambridge Structural Database (CSD) v543 
# hosted by the Cambridge Crystallographic Data Centre (CCDC).
#
# This work is licensed under the Creative Commons
# Attribution-NonCommercial-ShareAlike 4.0 International License.
# To view a copy of this license, visit
# http://creativecommons.org/licenses/by-nc-sa/4.0/
# or send a letter to
# Creative Commons, PO Box 1866, Mountain View, CA 94042, USA.
#
# CIF created using the CSD Python API on 29 September 2022
# The structure has been converted into the P1 space group
# The structure has a 3D framework
# The original CSD entry NAFYUQ is in the rhombohedral crystal system
# The framework has been calculated to contain at least 10.0% void space
# The void calculation uses a probe of radius 1.32A, grid spacing 0.4
#
###############################################################################

data_NAFYUQ
_chemical_formula_moiety         '(C216 H144 Cu9 N36 O54)n'
_symmetry_cell_setting           triclinic
_symmetry_space_group_name_H-M   'P 1'
_symmetry_Int_Tables_number      1
_space_group_name_Hall           'P 1'
loop_
_symmetry_equiv_pos_site_id
_symmetry_equiv_pos_as_xyz
1 x,y,z
_cell_length_a                   18.5636(3)
_cell_length_b                   18.5636(3)
_cell_length_c                   19.7224(6)
_cell_angle_alpha                90
_cell_angle_beta                 90
_cell_angle_gamma                120
_cell_volume                     5885.93
loop_
_atom_site_label
_atom_site_type_symbol
_atom_site_fract_x
_atom_site_fract_y
_atom_site_fract_z
Cu5 Cu -0.0000 0.5000 0.5000
Cu8 Cu 0.5000 0.0000 0.5000
N13 N 0.50811(14) 0.01349(15) 0.14174(12)
H13 H 0.4832 0.0386 0.1599
C42 C 0.4742(2) 0.0221(2) 0.35567(15)
H33 H 0.4417 0.0441 0.3737
C47 C 0.4827(2) 0.0213(2) 0.28641(15)
H38 H 0.4559 0.0416 0.2575
C62 C 0.50603(16) 0.00629(17) 0.07032(15)
C67 C 0.49765(19) 0.06431(19) 0.03266(14)
H43 H 0.4961 0.1088 0.0550
N6 N 0.49041(13) 0.00643(13) 0.60119(12)
C31 C 0.4328(2) 0.0387(2) 0.69614(15)
H22 H 0.3993 0.0602 0.7128
C36 C 0.4449(2) 0.0366(2) 0.62736(14)
H27 H 0.4196 0.0576 0.5974
C51 C 0.46947(17) 0.00935(17) 0.74073(13)
C56 C 0.45491(19) 0.01485(19) 0.81558(14)
C71 C 0.4915(2) 0.05852(19) 0.96262(14)
H47 H 0.4856 0.0988 0.9372
O10 O 0.52031(11) 0.11199(10) 0.49113(9)
O21 O 0.41239(17) 0.04415(17) 0.83389(11)
C1 C 0.59982(16) 0.15591(15) 0.49146(13)
C2 C 0.63442(16) 0.24783(15) 0.48917(13)
C3 C 0.58116(15) 0.27988(16) 0.48921(13)
H2 H 0.5227 0.2434 0.4893
O2 O 0.64617(11) 0.12544(11) 0.49497(9)
Cu4 Cu 0.5000 0.5000 0.5000
Cu5_2 Cu 1.0000 0.5000 0.5000
C13 C 0.55609(22) 0.40018(16) 0.49146(13)
C14 C 0.84409(15) 0.44391(22) 0.49146(13)
C18 C 0.61341(22) 0.36558(16) 0.48917(13)
C19 C 0.75217(15) 0.38659(22) 0.48917(13)
C23 C 0.69872(22) 0.41884(15) 0.48921(13)
C24 C 0.72012(16) 0.30128(22) 0.48921(13)
H14 H 0.7566 0.2793 0.4893
H15 H 0.7207 0.4773 0.4893
O4 O 0.59168(15) 0.47969(11) 0.49113(9)
O5 O 0.88801(10) 0.40832(15) 0.49113(9)
O13 O 0.47927(16) 0.35383(11) 0.49497(9)
O14 O 0.87456(11) 0.52073(16) 0.49497(9)
Cu8_2 Cu 0.5000 1.0000 0.5000
N7 N 0.50959(13) 0.99357(13) 0.39881(12)
C32 C 0.5672(2) 0.9613(2) 0.30386(15)
H23 H 0.6007 0.9398 0.2872
C37 C 0.5551(2) 0.9634(2) 0.37264(14)
H28 H 0.5804 0.9424 0.4026
C52 C 0.53053(17) 0.99065(17) 0.25927(13)
C57 C 0.54509(19) 0.98515(19) 0.18442(14)
C72 C 0.5085(2) 0.94148(19) 0.03738(14)
H48 H 0.5144 0.9012 0.0628
O22 O 0.58761(17) 0.95585(17) 0.16611(11)
N12 N 0.49189(14) 0.98651(15) 0.85826(12)
H12 H 0.5168 0.9614 0.8401
C41 C 0.5258(2) 0.9779(2) 0.64433(15)
H32 H 0.5583 0.9559 0.6263
C46 C 0.5173(2) 0.9787(2) 0.71359(15)
H37 H 0.5441 0.9584 0.7425
C61 C 0.49397(16) 0.99371(17) 0.92968(15)
C66 C 0.50235(19) 0.93569(19) 0.96734(14)
H42 H 0.5039 0.8912 0.9450
O9 O 0.47969(11) 0.88801(10) 0.50887(9)
C15 C 0.40018(16) 0.84409(15) 0.50854(13)
C16 C 0.44391(22) 0.59982(16) 0.50854(13)
C17 C 0.15591(15) 0.55609(22) 0.50854(13)
C20 C 0.36558(16) 0.75217(15) 0.51083(13)
C21 C 0.38659(22) 0.63442(16) 0.51083(13)
C22 C 0.24783(15) 0.61341(22) 0.51083(13)
C25 C 0.41884(15) 0.72012(16) 0.51079(13)
C26 C 0.30128(22) 0.58116(15) 0.51079(13)
C27 C 0.27988(16) 0.69872(22) 0.51079(13)
H16 H 0.4773 0.7566 0.5107
H17 H 0.2434 0.7207 0.5107
H18 H 0.2793 0.5227 0.5107
O7 O 0.40832(15) 0.52031(11) 0.50887(9)
O8 O 0.11199(10) 0.59168(15) 0.50887(9)
O15 O 0.35383(11) 0.87456(11) 0.50503(9)
O16 O 0.52073(16) 0.64617(11) 0.50503(9)
O17 O 0.12544(11) 0.47927(16) 0.50503(9)
N7_2 N 0.00643(13) 0.51602(18) 0.39881(12)
C32_2 C 0.0387(2) 0.6059(3) 0.30386(15)
H23_2 H 0.0602 0.6609 0.2872
C37_2 C 0.0366(2) 0.5917(3) 0.37264(14)
H28_2 H 0.0576 0.6380 0.4026
C52_2 C 0.00935(17) 0.53988(24) 0.25927(13)
C57_2 C 0.01485(19) 0.55994(27) 0.18442(14)
C72_2 C 0.05852(19) 0.56702(28) 0.03738(14)
H48_2 H 0.0988 0.6132 0.0628
O22_2 O 0.04415(17) 0.63176(24) 0.16611(11)
N12_2 N 0.01349(15) 0.50538(21) 0.85826(12)
H12_2 H 0.0386 0.5554 0.8401
C41_2 C 0.0221(2) 0.5479(3) 0.64433(15)
H32_2 H 0.0441 0.6024 0.6263
C46_2 C 0.0213(2) 0.5386(3) 0.71359(15)
H37_2 H 0.0416 0.5857 0.7425
C61_2 C 0.00629(17) 0.50026(23) 0.92968(15)
C66_2 C 0.06431(19) 0.56666(27) 0.96734(14)
H42_2 H 0.1088 0.6127 0.9450
N13_2 N 0.98651(15) 0.49462(21) 0.14174(12)
H13_2 H 0.9614 0.4446 0.1599
C42_2 C 0.9779(2) 0.4521(3) 0.35567(15)
H33_2 H 0.9559 0.3976 0.3737
C47_2 C 0.9787(2) 0.4614(3) 0.28641(15)
H38_2 H 0.9584 0.4143 0.2575
C62_2 C 0.99371(17) 0.49974(23) 0.07032(15)
C67_2 C 0.93569(19) 0.43334(27) 0.03266(14)
H43_2 H 0.8912 0.3873 0.0550
N6_2 N 0.99357(13) 0.48398(18) 0.60119(12)
C31_2 C 0.9613(2) 0.3941(3) 0.69614(15)
H22_2 H 0.9398 0.3391 0.7128
C36_2 C 0.9634(2) 0.4083(3) 0.62736(14)
H27_2 H 0.9424 0.3620 0.5974
C51_2 C 0.99065(17) 0.46012(24) 0.74073(13)
C56_2 C 0.98515(19) 0.44006(27) 0.81558(14)
C71_2 C 0.94148(19) 0.43298(28) 0.96262(14)
H47_2 H 0.9012 0.3868 0.9372
O21_2 O 0.95585(17) 0.36824(24) 0.83389(11)
N7_3 N 0.48398(18) 0.49041(13) 0.39881(12)
N13_3 N 0.50538(21) 0.49189(14) 0.14174(12)
H13_3 H 0.5554 0.5168 0.1599
C32_3 C 0.3941(3) 0.4328(2) 0.30386(15)
H23_3 H 0.3391 0.3993 0.2872
C37_3 C 0.4083(3) 0.4449(2) 0.37264(14)
H28_3 H 0.3620 0.4196 0.4026
C42_3 C 0.5479(3) 0.5258(2) 0.35567(15)
H33_3 H 0.6024 0.5583 0.3737
C47_3 C 0.5386(3) 0.5173(2) 0.28641(15)
H38_3 H 0.5857 0.5441 0.2575
C52_3 C 0.46012(24) 0.46947(17) 0.25927(13)
C57_3 C 0.44006(27) 0.45491(19) 0.18442(14)
C62_3 C 0.50026(23) 0.49397(16) 0.07032(15)
C67_3 C 0.56666(27) 0.50235(19) 0.03266(14)
H43_3 H 0.6127 0.5039 0.0550
C72_3 C 0.43298(28) 0.4915(2) 0.03738(14)
H48_3 H 0.3868 0.4856 0.0628
O22_3 O 0.36824(24) 0.41239(17) 0.16611(11)
N6_3 N 0.51602(18) 0.50959(13) 0.60119(12)
N12_3 N 0.49462(21) 0.50811(14) 0.85826(12)
H12_3 H 0.4446 0.4832 0.8401
C31_3 C 0.6059(3) 0.5672(2) 0.69614(15)
H22_3 H 0.6609 0.6007 0.7128
C36_3 C 0.5917(3) 0.5551(2) 0.62736(14)
H27_3 H 0.6380 0.5804 0.5974
C41_3 C 0.4521(3) 0.4742(2) 0.64433(15)
H32_3 H 0.3976 0.4417 0.6263
C46_3 C 0.4614(3) 0.4827(2) 0.71359(15)
H37_3 H 0.4143 0.4559 0.7425
C51_3 C 0.53988(24) 0.53053(17) 0.74073(13)
C56_3 C 0.55994(27) 0.54509(19) 0.81558(14)
C61_3 C 0.49974(23) 0.50603(16) 0.92968(15)
C66_3 C 0.43334(27) 0.49765(19) 0.96734(14)
H42_3 H 0.3873 0.4961 0.9450
C71_3 C 0.56702(28) 0.5085(2) 0.96262(14)
H47_3 H 0.6132 0.5144 0.9372
O21_3 O 0.63176(24) 0.58761(17) 0.83389(11)
Cu8_3 Cu 0.1667 0.3333 0.8333
N7_4 N 0.17626(13) 0.32690(13) 0.73214(12)
N12_4 N 0.15856(14) 0.31984(15) 0.19159(12)
N13_4 N 0.17478(14) 0.34682(15) 0.47507(12)
H12_4 H 0.1835 0.2947 0.1734
H13_4 H 0.1499 0.3719 0.4932
C31_4 C 0.0995(2) 0.3720(2) 0.02947(15)
C32_4 C 0.2339(2) 0.2946(2) 0.63719(15)
H22_4 H 0.0660 0.3935 0.0461
H23_4 H 0.2674 0.2731 0.6205
C37_4 C 0.2218(2) 0.2967(2) 0.70597(14)
H28_4 H 0.2471 0.2757 0.7359
C42_4 C 0.1409(2) 0.3554(2) 0.68900(15)
H33_4 H 0.1084 0.3774 0.7070
C46_4 C 0.1840(2) 0.3120(2) 0.04692(15)
C47_4 C 0.1494(2) 0.3546(2) 0.61974(15)
H37_4 H 0.2108 0.2917 0.0758
H38_4 H 0.1226 0.3749 0.5908
C51_4 C 0.13614(17) 0.34268(17) 0.07406(13)
C52_4 C 0.19720(17) 0.32398(17) 0.59260(13)
C56_4 C 0.12158(19) 0.34818(19) 0.14891(14)
C57_4 C 0.21176(19) 0.31848(19) 0.51775(14)
C61_4 C 0.16064(16) 0.32704(17) 0.26301(15)
C62_4 C 0.17270(16) 0.33962(17) 0.40365(15)
C66_4 C 0.16902(19) 0.26902(19) 0.30067(14)
C67_4 C 0.16432(19) 0.39764(19) 0.36599(14)
H42_4 H 0.1706 0.2245 0.2783
H43_4 H 0.1628 0.4421 0.3883
C71_4 C 0.1582(2) 0.39185(19) 0.29595(14)
C72_4 C 0.1752(2) 0.27481(19) 0.37071(14)
H47_4 H 0.1523 0.4321 0.2705
H48_4 H 0.1811 0.2345 0.3961
O21_4 O 0.07906(17) 0.37748(17) 0.16722(11)
O22_4 O 0.25428(17) 0.28918(17) 0.49944(11)
N6_4 N 0.15708(13) 0.33976(13) 0.93452(12)
C36_4 C 0.1116(2) 0.3699(2) 0.96069(14)
H27_4 H 0.0863 0.3909 0.9307
C41_4 C 0.1925(2) 0.3112(2) 0.97766(15)
H32_4 H 0.2250 0.2892 0.9596
O9_2 O 0.14636(11) 0.22134(10) 0.84220(9)
O10_2 O 0.18698(11) 0.44532(10) 0.82446(9)
C1_2 C 0.26649(16) 0.48924(15) 0.82479(13)
C2_2 C 0.30109(16) 0.58116(15) 0.82250(13)
C3_2 C 0.24783(15) 0.61321(16) 0.82254(13)
H2_2 H 0.1894 0.5767 0.8226
O2_2 O 0.31284(11) 0.45877(11) 0.82830(9)
Cu4_2 Cu 0.1667 0.8333 0.8333
Cu5_3 Cu 0.6667 0.8333 0.8333
C13_2 C 0.22276(22) 0.73351(16) 0.82479(13)
C14_2 C 0.51076(15) 0.77724(22) 0.82479(13)
C15_2 C 0.06685(16) 0.17742(15) 0.84187(13)
C18_2 C 0.28008(22) 0.69891(16) 0.82250(13)
C19_2 C 0.41884(15) 0.71992(22) 0.82250(13)
C20_2 C 0.03225(16) 0.08550(15) 0.84416(13)
C23_2 C 0.36539(22) 0.75217(15) 0.82254(13)
C24_2 C 0.38679(16) 0.63461(22) 0.82254(13)
C25_2 C 0.08551(15) 0.05345(16) 0.84412(13)
H14_2 H 0.4233 0.6126 0.8226
H15_2 H 0.3874 0.8106 0.8226
H16_2 H 0.1440 0.0899 0.8440
O4_2 O 0.25835(15) 0.81302(11) 0.82446(9)
O5_2 O 0.55468(10) 0.74165(15) 0.82446(9)
O13_2 O 0.14594(16) 0.68716(11) 0.82830(9)
O14_2 O 0.54123(11) 0.85406(16) 0.82830(9)
O15_2 O 0.02050(11) 0.20789(11) 0.83836(9)
C16_2 C 0.11058(22) 0.93315(16) 0.84187(13)
C21_2 C 0.05326(22) 0.96775(16) 0.84416(13)
O7_2 O 0.07499(15) 0.85364(11) 0.84220(9)
O16_2 O 0.18740(16) 0.97950(11) 0.83836(9)
C17_2 C 0.82258(15) 0.88942(22) 0.84187(13)
C22_2 C 0.91450(15) 0.94674(22) 0.84416(13)
C26_2 C 0.96795(22) 0.91449(15) 0.84412(13)
H18_2 H 0.9460 0.8560 0.8440
O8_2 O 0.77866(10) 0.92501(15) 0.84220(9)
O17_2 O 0.79211(11) 0.81260(16) 0.83836(9)
N7_5 N 0.67310(13) 0.84935(18) 0.73214(12)
N12_5 N 0.68016(15) 0.83871(21) 0.19159(12)
N13_5 N 0.65318(15) 0.82795(21) 0.47507(12)
H12_5 H 0.7053 0.8887 0.1734
H13_5 H 0.6281 0.7779 0.4932
C31_5 C 0.6280(2) 0.7274(3) 0.02947(15)
C32_5 C 0.7054(2) 0.9392(3) 0.63719(15)
H22_5 H 0.6065 0.6724 0.0461
H23_5 H 0.7269 0.9942 0.6205
C37_5 C 0.7033(2) 0.9250(3) 0.70597(14)
H28_5 H 0.7243 0.9713 0.7359
C42_5 C 0.6446(2) 0.7854(3) 0.68900(15)
H33_5 H 0.6226 0.7309 0.7070
C46_5 C 0.6880(2) 0.8719(3) 0.04692(15)
C47_5 C 0.6454(2) 0.7947(3) 0.61974(15)
H37_5 H 0.7083 0.9190 0.0758
H38_5 H 0.6251 0.7476 0.5908
C51_5 C 0.65732(17) 0.79345(24) 0.07406(13)
C52_5 C 0.67602(17) 0.87321(24) 0.59260(13)
C56_5 C 0.65182(19) 0.77339(27) 0.14891(14)
C57_5 C 0.68152(19) 0.89327(27) 0.51775(14)
C61_5 C 0.67296(17) 0.83359(23) 0.26301(15)
C62_5 C 0.66038(17) 0.83307(23) 0.40365(15)
C66_5 C 0.73098(19) 0.89999(27) 0.30067(14)
C67_5 C 0.60236(19) 0.76667(27) 0.36599(14)
H42_5 H 0.7755 0.9460 0.2783
H43_5 H 0.5579 0.7206 0.3883
C71_5 C 0.60815(19) 0.76631(28) 0.29595(14)
C72_5 C 0.72519(19) 0.90035(28) 0.37071(14)
H47_5 H 0.5679 0.7201 0.2705
H48_5 H 0.7655 0.9465 0.3961
O21_5 O 0.62252(17) 0.70157(24) 0.16722(11)
O22_5 O 0.71082(17) 0.96509(24) 0.49944(11)
N6_5 N 0.66024(13) 0.81731(18) 0.93452(12)
C36_5 C 0.6301(2) 0.7416(3) 0.96069(14)
H27_5 H 0.6091 0.6953 0.9307
C41_5 C 0.6888(2) 0.8812(3) 0.97766(15)
H32_5 H 0.7108 0.9357 0.9596
N7_6 N 0.15065(18) 0.82374(13) 0.73214(12)
N12_6 N 0.16129(21) 0.84144(14) 0.19159(12)
N13_6 N 0.17205(21) 0.82522(14) 0.47507(12)
H12_6 H 0.1113 0.8165 0.1734
H13_6 H 0.2221 0.8501 0.4932
C31_6 C 0.2726(3) 0.9005(2) 0.02947(15)
C32_6 C 0.0608(3) 0.7661(2) 0.63719(15)
H22_6 H 0.3276 0.9340 0.0461
H23_6 H 0.0058 0.7326 0.6205
C37_6 C 0.0750(3) 0.7782(2) 0.70597(14)
H28_6 H 0.0287 0.7529 0.7359
C42_6 C 0.2146(3) 0.8591(2) 0.68900(15)
H33_6 H 0.2691 0.8916 0.7070
C46_6 C 0.1281(3) 0.8160(2) 0.04692(15)
C47_6 C 0.2053(3) 0.8506(2) 0.61974(15)
H37_6 H 0.0810 0.7892 0.0758
H38_6 H 0.2524 0.8774 0.5908
C51_6 C 0.20655(24) 0.86386(17) 0.07406(13)
C52_6 C 0.12679(24) 0.80280(17) 0.59260(13)
C56_6 C 0.22661(27) 0.87842(19) 0.14891(14)
C57_6 C 0.10673(27) 0.78824(19) 0.51775(14)
C61_6 C 0.16641(23) 0.83936(16) 0.26301(15)
C62_6 C 0.16693(23) 0.82730(16) 0.40365(15)
C66_6 C 0.10001(27) 0.83098(19) 0.30067(14)
C67_6 C 0.23333(27) 0.83568(19) 0.36599(14)
H42_6 H 0.0540 0.8294 0.2783
H43_6 H 0.2794 0.8372 0.3883
C71_6 C 0.23369(28) 0.8418(2) 0.29595(14)
C72_6 C 0.09965(28) 0.8248(2) 0.37071(14)
H47_6 H 0.2799 0.8477 0.2705
H48_6 H 0.0535 0.8189 0.3961
O21_6 O 0.29843(24) 0.92094(17) 0.16722(11)
O22_6 O 0.03491(24) 0.74572(17) 0.49944(11)
N6_6 N 0.18269(18) 0.84292(13) 0.93452(12)
C36_6 C 0.2584(3) 0.8884(2) 0.96069(14)
H27_6 H 0.3047 0.9137 0.9307
C41_6 C 0.1188(3) 0.8075(2) 0.97766(15)
H32_6 H 0.0643 0.7750 0.9596
C27_2 C 0.94655(16) 0.03205(22) 0.84412(13)
H17_2 H 0.9101 0.0540 0.8440
Cu5_4 Cu 0.3333 0.1667 0.1667
C14_3 C 0.17742(15) 0.11058(22) 0.15813(13)
C19_3 C 0.08550(15) 0.05326(22) 0.15584(13)
C23_3 C 0.03205(22) 0.08551(15) 0.15588(13)
H15_3 H 0.0540 0.1440 0.1560
O5_3 O 0.22134(10) 0.07499(15) 0.15780(9)
O14_3 O 0.20789(11) 0.18740(16) 0.16164(9)
Cu4_3 Cu 0.8333 0.1667 0.1667
C13_3 C 0.88942(22) 0.06685(16) 0.15813(13)
C18_3 C 0.94674(22) 0.03225(16) 0.15584(13)
O4_3 O 0.92501(15) 0.14636(11) 0.15780(9)
O13_3 O 0.81260(16) 0.02050(11) 0.16164(9)
Cu8_4 Cu 0.8333 0.6667 0.1667
N7_7 N 0.84292(13) 0.66024(13) 0.06548(12)
C37_7 C 0.8884(2) 0.6301(2) 0.03931(14)
H28_7 H 0.9137 0.6091 0.0693
C42_7 C 0.8075(2) 0.6888(2) 0.02234(15)
H33_7 H 0.7750 0.7108 0.0404
N6_7 N 0.82374(13) 0.67310(13) 0.26786(12)
N12_7 N 0.82522(14) 0.65318(15) 0.52493(12)
N13_7 N 0.84144(14) 0.68016(15) 0.80841(12)
H12_7 H 0.8501 0.6281 0.5068
H13_7 H 0.8165 0.7053 0.8266
C31_7 C 0.7661(2) 0.7054(2) 0.36281(15)
C32_7 C 0.9005(2) 0.6280(2) 0.97053(15)
H22_7 H 0.7326 0.7269 0.3795
H23_7 H 0.9340 0.6065 0.9539
C36_7 C 0.7782(2) 0.7033(2) 0.29403(14)
H27_7 H 0.7529 0.7243 0.2641
C41_7 C 0.8591(2) 0.6446(2) 0.31100(15)
H32_7 H 0.8916 0.6226 0.2930
C46_7 C 0.8506(2) 0.6454(2) 0.38026(15)
C47_7 C 0.8160(2) 0.6880(2) 0.95308(15)
H37_7 H 0.8774 0.6251 0.4092
H38_7 H 0.7892 0.7083 0.9242
C51_7 C 0.80280(17) 0.67602(17) 0.40740(13)
C52_7 C 0.86386(17) 0.65732(17) 0.92594(13)
C56_7 C 0.78824(19) 0.68152(19) 0.48225(14)
C57_7 C 0.87842(19) 0.65182(19) 0.85109(14)
C61_7 C 0.82730(16) 0.66038(17) 0.59635(15)
C62_7 C 0.83936(16) 0.67296(17) 0.73699(15)
C66_7 C 0.83568(19) 0.60236(19) 0.63401(14)
C67_7 C 0.83098(19) 0.73098(19) 0.69933(14)
H42_7 H 0.8372 0.5579 0.6117
H43_7 H 0.8294 0.7755 0.7217
C71_7 C 0.8248(2) 0.72519(19) 0.62929(14)
C72_7 C 0.8418(2) 0.60815(19) 0.70405(14)
H47_7 H 0.8189 0.7655 0.6039
H48_7 H 0.8477 0.5679 0.7295
O9_3 O 0.81302(11) 0.55468(10) 0.17554(9)
O10_3 O 0.85364(11) 0.77866(10) 0.15780(9)
O21_7 O 0.74572(17) 0.71082(17) 0.50056(11)
O22_7 O 0.92094(17) 0.62252(17) 0.83278(11)
C1_3 C 0.93315(16) 0.82258(15) 0.15813(13)
C2_3 C 0.96775(16) 0.91450(15) 0.15584(13)
C3_3 C 0.91449(15) 0.94655(16) 0.15588(13)
H2_3 H 0.8560 0.9101 0.1560
O2_3 O 0.97950(11) 0.79211(11) 0.16164(9)
C15_3 C 0.73351(16) 0.51076(15) 0.17521(13)
C16_3 C 0.77724(22) 0.26649(16) 0.17521(13)
C17_3 C 0.48924(15) 0.22276(22) 0.17521(13)
C20_3 C 0.69891(16) 0.41884(15) 0.17750(13)
C21_3 C 0.71992(22) 0.30109(16) 0.17750(13)
C22_3 C 0.58116(15) 0.28008(22) 0.17750(13)
C25_3 C 0.75217(15) 0.38679(16) 0.17746(13)
C26_3 C 0.63461(22) 0.24783(15) 0.17746(13)
C27_3 C 0.61321(16) 0.36539(22) 0.17746(13)
H16_3 H 0.8106 0.4233 0.1774
H17_3 H 0.5767 0.3874 0.1774
H18_3 H 0.6126 0.1894 0.1774
O7_3 O 0.74165(15) 0.18698(11) 0.17554(9)
O8_3 O 0.44532(10) 0.25835(15) 0.17554(9)
O15_3 O 0.68716(11) 0.54123(11) 0.17170(9)
O16_3 O 0.85406(16) 0.31284(11) 0.17170(9)
O17_3 O 0.45877(11) 0.14594(16) 0.17170(9)
N7_8 N 0.33976(13) 0.18269(18) 0.06548(12)
C37_8 C 0.3699(2) 0.2584(3) 0.03931(14)
H28_8 H 0.3909 0.3047 0.0693
C42_8 C 0.3112(2) 0.1188(3) 0.02234(15)
H33_8 H 0.2892 0.0643 0.0404
N6_8 N 0.32690(13) 0.15065(18) 0.26786(12)
N12_8 N 0.34682(15) 0.17205(21) 0.52493(12)
N13_8 N 0.31984(15) 0.16129(21) 0.80841(12)
H12_8 H 0.3719 0.2221 0.5068
H13_8 H 0.2947 0.1113 0.8266
C31_8 C 0.2946(2) 0.0608(3) 0.36281(15)
C32_8 C 0.3720(2) 0.2726(3) 0.97053(15)
H22_8 H 0.2731 0.0058 0.3795
H23_8 H 0.3935 0.3276 0.9539
C36_8 C 0.2967(2) 0.0750(3) 0.29403(14)
H27_8 H 0.2757 0.0287 0.2641
C41_8 C 0.3554(2) 0.2146(3) 0.31100(15)
H32_8 H 0.3774 0.2691 0.2930
C46_8 C 0.3546(2) 0.2053(3) 0.38026(15)
C47_8 C 0.3120(2) 0.1281(3) 0.95308(15)
H37_8 H 0.3749 0.2524 0.4092
H38_8 H 0.2917 0.0810 0.9242
C51_8 C 0.32398(17) 0.12679(24) 0.40740(13)
C52_8 C 0.34268(17) 0.20655(24) 0.92594(13)
C56_8 C 0.31848(19) 0.10673(27) 0.48225(14)
C57_8 C 0.34818(19) 0.22661(27) 0.85109(14)
C61_8 C 0.33962(17) 0.16693(23) 0.59635(15)
C62_8 C 0.32704(17) 0.16641(23) 0.73699(15)
C66_8 C 0.39764(19) 0.23333(27) 0.63401(14)
C67_8 C 0.26902(19) 0.10001(27) 0.69933(14)
H42_8 H 0.4421 0.2794 0.6117
H43_8 H 0.2245 0.0540 0.7217
C71_8 C 0.27481(19) 0.09965(28) 0.62929(14)
C72_8 C 0.39185(19) 0.23369(28) 0.70405(14)
H47_8 H 0.2345 0.0535 0.6039
H48_8 H 0.4321 0.2799 0.7295
O21_8 O 0.28918(17) 0.03491(24) 0.50056(11)
O22_8 O 0.37748(17) 0.29843(24) 0.83278(11)
N7_9 N 0.81731(18) 0.15708(13) 0.06548(12)
C37_9 C 0.7416(3) 0.1116(2) 0.03931(14)
H28_9 H 0.6953 0.0863 0.0693
C42_9 C 0.8812(3) 0.1925(2) 0.02234(15)
H33_9 H 0.9357 0.2250 0.0404
N6_9 N 0.84935(18) 0.17626(13) 0.26786(12)
N12_9 N 0.82795(21) 0.17478(14) 0.52493(12)
N13_9 N 0.83871(21) 0.15856(14) 0.80841(12)
H12_9 H 0.7779 0.1499 0.5068
H13_9 H 0.8887 0.1835 0.8266
C31_9 C 0.9392(3) 0.2339(2) 0.36281(15)
C32_9 C 0.7274(3) 0.0995(2) 0.97053(15)
H22_9 H 0.9942 0.2674 0.3795
H23_9 H 0.6724 0.0660 0.9539
C36_9 C 0.9250(3) 0.2218(2) 0.29403(14)
H27_9 H 0.9713 0.2471 0.2641
C41_9 C 0.7854(3) 0.1409(2) 0.31100(15)
H32_9 H 0.7309 0.1084 0.2930
C46_9 C 0.7947(3) 0.1494(2) 0.38026(15)
C47_9 C 0.8719(3) 0.1840(2) 0.95308(15)
H37_9 H 0.7476 0.1226 0.4092
H38_9 H 0.9190 0.2108 0.9242
C51_9 C 0.87321(24) 0.19720(17) 0.40740(13)
C52_9 C 0.79345(24) 0.13614(17) 0.92594(13)
C56_9 C 0.89327(27) 0.21176(19) 0.48225(14)
C57_9 C 0.77339(27) 0.12158(19) 0.85109(14)
C61_9 C 0.83307(23) 0.17270(16) 0.59635(15)
C62_9 C 0.83359(23) 0.16064(16) 0.73699(15)
C66_9 C 0.76667(27) 0.16432(19) 0.63401(14)
C67_9 C 0.89999(27) 0.16902(19) 0.69933(14)
H42_9 H 0.7206 0.1628 0.6117
H43_9 H 0.9460 0.1706 0.7217
C71_9 C 0.90035(28) 0.1752(2) 0.62929(14)
C72_9 C 0.76631(28) 0.1582(2) 0.70405(14)
H47_9 H 0.9465 0.1811 0.6039
H48_9 H 0.7201 0.1523 0.7295
O21_9 O 0.96509(24) 0.25428(17) 0.50056(11)
O22_9 O 0.70157(24) 0.07906(17) 0.83278(11)
C24_3 C 0.05345(16) 0.96795(22) 0.15588(13)
H14_3 H 0.0899 0.9460 0.1560
loop_
_geom_bond_atom_site_label_1
_geom_bond_atom_site_label_2
_geom_bond_site_symmetry_1
_geom_bond_site_symmetry_2
N13 H13 1_555 1_555
H33 C42 1_555 1_555
C47 C42 1_555 1_555
H38 C47 1_555 1_555
C62 N13 1_555 1_555
C67 C62 1_555 1_555
H43 C67 1_555 1_555
N6 Cu8 1_555 1_555
C31 H22 1_555 1_555
C36 N6 1_555 1_555
H27 C36 1_555 1_555
C51 C31 1_555 1_555
H47 C71 1_555 1_555
O10 Cu8 1_555 1_555
O21 C56 1_555 1_555
C31 C36 1_555 1_555
C51 C56 1_555 1_555
C1 C2 1_555 1_555
C2 C3 1_555 1_555
C3 H2 1_555 1_555
O2 C1 1_555 1_555
Cu4 O4 1_555 1_555
Cu5_2 O5 1_555 1_555
C13 C18 1_555 1_555
C14 C19 1_555 1_555
C18 C3 1_555 1_555
C19 C23 1_555 1_555
C23 C18 1_555 1_555
C24 C2 1_555 1_555
H14 C24 1_555 1_555
H15 C23 1_555 1_555
O4 C13 1_555 1_555
O5 C14 1_555 1_555
O13 C13 1_555 1_555
O14 C14 1_555 1_555
C1 O10 1_555 1_555
C19 C24 1_555 1_555
Cu8_2 N7 1_555 1_555
N7 C37 1_555 1_555
C32 H23 1_555 1_555
C37 C32 1_555 1_555
H28 C37 1_555 1_555
C52 C32 1_555 1_555
H48 C72 1_555 1_555
O22 C57 1_555 1_555
C52 C57 1_555 1_555
N12 H12 1_555 1_555
H32 C41 1_555 1_555
C46 C41 1_555 1_555
H37 C46 1_555 1_555
C61 N12 1_555 1_555
C66 C61 1_555 1_555
H42 C66 1_555 1_555
O9 Cu8_2 1_555 1_555
Cu4 O7 1_555 1_555
Cu5 O8 1_555 1_555
C15 C20 1_555 1_555
C16 C21 1_555 1_555
C17 C22 1_555 1_555
C20 C25 1_555 1_555
C21 C25 1_555 1_555
C22 C26 1_555 1_555
C25 H16 1_555 1_555
C26 C21 1_555 1_555
C27 C20 1_555 1_555
H17 C27 1_555 1_555
H18 C26 1_555 1_555
O7 C16 1_555 1_555
O8 C17 1_555 1_555
O15 C15 1_555 1_555
O16 C16 1_555 1_555
O17 C17 1_555 1_555
C15 O9 1_555 1_555
C22 C27 1_555 1_555
Cu5 N7_2 1_555 1_555
N7_2 C37_2 1_555 1_555
C32_2 H23_2 1_555 1_555
C37_2 C32_2 1_555 1_555
H28_2 C37_2 1_555 1_555
C52_2 C32_2 1_555 1_555
H48_2 C72_2 1_555 1_555
O22_2 C57_2 1_555 1_555
C52_2 C57_2 1_555 1_555
N12_2 H12_2 1_555 1_555
H32_2 C41_2 1_555 1_555
C46_2 C41_2 1_555 1_555
H37_2 C46_2 1_555 1_555
C61_2 N12_2 1_555 1_555
C66_2 C61_2 1_555 1_555
H42_2 C66_2 1_555 1_555
N13_2 H13_2 1_555 1_555
H33_2 C42_2 1_555 1_555
C47_2 C42_2 1_555 1_555
H38_2 C47_2 1_555 1_555
C62_2 N13_2 1_555 1_555
C67_2 C62_2 1_555 1_555
H43_2 C67_2 1_555 1_555
N6_2 Cu5_2 1_555 1_555
C31_2 H22_2 1_555 1_555
C36_2 N6_2 1_555 1_555
H27_2 C36_2 1_555 1_555
C51_2 C31_2 1_555 1_555
H47_2 C71_2 1_555 1_555
O21_2 C56_2 1_555 1_555
C31_2 C36_2 1_555 1_555
C51_2 C56_2 1_555 1_555
Cu4 N7_3 1_555 1_555
N7_3 C37_3 1_555 1_555
N13_3 H13_3 1_555 1_555
C32_3 H23_3 1_555 1_555
C37_3 C32_3 1_555 1_555
H28_3 C37_3 1_555 1_555
C42_3 N7_3 1_555 1_555
H33_3 C42_3 1_555 1_555
C47_3 C42_3 1_555 1_555
H38_3 C47_3 1_555 1_555
C52_3 C32_3 1_555 1_555
C57_3 N13_3 1_555 1_555
C62_3 N13_3 1_555 1_555
C67_3 C62_3 1_555 1_555
H43_3 C67_3 1_555 1_555
C72_3 C62_3 1_555 1_555
H48_3 C72_3 1_555 1_555
O22_3 C57_3 1_555 1_555
C47_3 C52_3 1_555 1_555
C52_3 C57_3 1_555 1_555
N6_3 Cu4 1_555 1_555
N12_3 H12_3 1_555 1_555
C31_3 H22_3 1_555 1_555
C36_3 N6_3 1_555 1_555
H27_3 C36_3 1_555 1_555
C41_3 N6_3 1_555 1_555
H32_3 C41_3 1_555 1_555
C46_3 C41_3 1_555 1_555
H37_3 C46_3 1_555 1_555
C51_3 C31_3 1_555 1_555
C56_3 N12_3 1_555 1_555
C61_3 N12_3 1_555 1_555
C66_3 C61_3 1_555 1_555
H42_3 C66_3 1_555 1_555
C71_3 C61_3 1_555 1_555
H47_3 C71_3 1_555 1_555
O21_3 C56_3 1_555 1_555
C31_3 C36_3 1_555 1_555
C46_3 C51_3 1_555 1_555
C51_3 C56_3 1_555 1_555
Cu8_3 N7_4 1_555 1_555
N7_4 C37_4 1_555 1_555
N12_4 H12_4 1_555 1_555
N13_4 H13_4 1_555 1_555
C31_4 H22_4 1_555 1_555
C32_4 H23_4 1_555 1_555
C37_4 C32_4 1_555 1_555
H28_4 C37_4 1_555 1_555
C42_4 N7_4 1_555 1_555
H33_4 C42_4 1_555 1_555
C47_4 C42_4 1_555 1_555
H37_4 C46_4 1_555 1_555
H38_4 C47_4 1_555 1_555
C51_4 C31_4 1_555 1_555
C52_4 C32_4 1_555 1_555
C56_4 N12_4 1_555 1_555
C57_4 N13_4 1_555 1_555
C61_4 N12_4 1_555 1_555
C62_4 N13_4 1_555 1_555
C66_4 C61_4 1_555 1_555
C67_4 C62_4 1_555 1_555
H42_4 C66_4 1_555 1_555
H43_4 C67_4 1_555 1_555
C71_4 C61_4 1_555 1_555
C72_4 C62_4 1_555 1_555
H47_4 C71_4 1_555 1_555
H48_4 C72_4 1_555 1_555
O21_4 C56_4 1_555 1_555
O22_4 C57_4 1_555 1_555
C46_4 C51_4 1_555 1_555
C47_4 C52_4 1_555 1_555
C51_4 C56_4 1_555 1_555
C52_4 C57_4 1_555 1_555
C66_4 C72_4 1_555 1_555
C67_4 C71_4 1_555 1_555
N6_4 Cu8_3 1_555 1_555
C36_4 N6_4 1_555 1_555
H27_4 C36_4 1_555 1_555
C41_4 N6_4 1_555 1_555
H32_4 C41_4 1_555 1_555
O9_2 Cu8_3 1_555 1_555
O10_2 Cu8_3 1_555 1_555
C1_2 C2_2 1_555 1_555
C2_2 C3_2 1_555 1_555
C3_2 H2_2 1_555 1_555
O2_2 C1_2 1_555 1_555
Cu4_2 O4_2 1_555 1_555
Cu5_3 O5_2 1_555 1_555
C13_2 C18_2 1_555 1_555
C14_2 C19_2 1_555 1_555
C15_2 C20_2 1_555 1_555
C18_2 C3_2 1_555 1_555
C19_2 C23_2 1_555 1_555
C20_2 C25_2 1_555 1_555
C23_2 C18_2 1_555 1_555
C24_2 C2_2 1_555 1_555
C25_2 H16_2 1_555 1_555
H14_2 C24_2 1_555 1_555
H15_2 C23_2 1_555 1_555
O4_2 C13_2 1_555 1_555
O5_2 C14_2 1_555 1_555
O13_2 C13_2 1_555 1_555
O14_2 C14_2 1_555 1_555
O15_2 C15_2 1_555 1_555
C1_2 O10_2 1_555 1_555
C15_2 O9_2 1_555 1_555
C19_2 C24_2 1_555 1_555
Cu4_2 O7_2 1_555 1_555
C16_2 C21_2 1_555 1_555
O7_2 C16_2 1_555 1_555
O16_2 C16_2 1_555 1_555
Cu5_3 O8_2 1_555 1_555
C17_2 C22_2 1_555 1_555
C22_2 C26_2 1_555 1_555
H18_2 C26_2 1_555 1_555
O8_2 C17_2 1_555 1_555
O17_2 C17_2 1_555 1_555
Cu5_3 N7_5 1_555 1_555
N7_5 C37_5 1_555 1_555
N12_5 H12_5 1_555 1_555
N13_5 H13_5 1_555 1_555
C31_5 H22_5 1_555 1_555
C32_5 H23_5 1_555 1_555
C37_5 C32_5 1_555 1_555
H28_5 C37_5 1_555 1_555
C42_5 N7_5 1_555 1_555
H33_5 C42_5 1_555 1_555
C47_5 C42_5 1_555 1_555
H37_5 C46_5 1_555 1_555
H38_5 C47_5 1_555 1_555
C51_5 C31_5 1_555 1_555
C52_5 C32_5 1_555 1_555
C56_5 N12_5 1_555 1_555
C57_5 N13_5 1_555 1_555
C61_5 N12_5 1_555 1_555
C62_5 N13_5 1_555 1_555
C66_5 C61_5 1_555 1_555
C67_5 C62_5 1_555 1_555
H42_5 C66_5 1_555 1_555
H43_5 C67_5 1_555 1_555
C71_5 C61_5 1_555 1_555
C72_5 C62_5 1_555 1_555
H47_5 C71_5 1_555 1_555
H48_5 C72_5 1_555 1_555
O21_5 C56_5 1_555 1_555
O22_5 C57_5 1_555 1_555
C46_5 C51_5 1_555 1_555
C47_5 C52_5 1_555 1_555
C51_5 C56_5 1_555 1_555
C52_5 C57_5 1_555 1_555
C66_5 C72_5 1_555 1_555
C67_5 C71_5 1_555 1_555
N6_5 Cu5_3 1_555 1_555
C36_5 N6_5 1_555 1_555
H27_5 C36_5 1_555 1_555
C41_5 N6_5 1_555 1_555
H32_5 C41_5 1_555 1_555
Cu4_2 N7_6 1_555 1_555
N7_6 C37_6 1_555 1_555
N12_6 H12_6 1_555 1_555
N13_6 H13_6 1_555 1_555
C31_6 H22_6 1_555 1_555
C32_6 H23_6 1_555 1_555
C37_6 C32_6 1_555 1_555
H28_6 C37_6 1_555 1_555
C42_6 N7_6 1_555 1_555
H33_6 C42_6 1_555 1_555
C47_6 C42_6 1_555 1_555
H37_6 C46_6 1_555 1_555
H38_6 C47_6 1_555 1_555
C51_6 C31_6 1_555 1_555
C52_6 C32_6 1_555 1_555
C56_6 N12_6 1_555 1_555
C57_6 N13_6 1_555 1_555
C61_6 N12_6 1_555 1_555
C62_6 N13_6 1_555 1_555
C66_6 C61_6 1_555 1_555
C67_6 C62_6 1_555 1_555
H42_6 C66_6 1_555 1_555
H43_6 C67_6 1_555 1_555
C71_6 C61_6 1_555 1_555
C72_6 C62_6 1_555 1_555
H47_6 C71_6 1_555 1_555
H48_6 C72_6 1_555 1_555
O21_6 C56_6 1_555 1_555
O22_6 C57_6 1_555 1_555
C46_6 C51_6 1_555 1_555
C47_6 C52_6 1_555 1_555
C51_6 C56_6 1_555 1_555
C52_6 C57_6 1_555 1_555
C66_6 C72_6 1_555 1_555
C67_6 C71_6 1_555 1_555
N6_6 Cu4_2 1_555 1_555
C36_6 N6_6 1_555 1_555
H27_6 C36_6 1_555 1_555
C41_6 N6_6 1_555 1_555
H32_6 C41_6 1_555 1_555
H17_2 C27_2 1_555 1_555
Cu5_4 O5_3 1_555 1_555
C14_3 C19_3 1_555 1_555
C19_3 C23_3 1_555 1_555
H15_3 C23_3 1_555 1_555
O5_3 C14_3 1_555 1_555
O14_3 C14_3 1_555 1_555
Cu4_3 O4_3 1_555 1_555
C13_3 C18_3 1_555 1_555
O4_3 C13_3 1_555 1_555
O13_3 C13_3 1_555 1_555
Cu8_4 N7_7 1_555 1_555
N7_7 C37_7 1_555 1_555
H28_7 C37_7 1_555 1_555
C42_7 N7_7 1_555 1_555
H33_7 C42_7 1_555 1_555
N6_7 Cu8_4 1_555 1_555
N12_7 H12_7 1_555 1_555
N13_7 H13_7 1_555 1_555
C31_7 H22_7 1_555 1_555
C32_7 H23_7 1_555 1_555
C36_7 N6_7 1_555 1_555
H27_7 C36_7 1_555 1_555
C41_7 N6_7 1_555 1_555
H32_7 C41_7 1_555 1_555
C46_7 C41_7 1_555 1_555
H37_7 C46_7 1_555 1_555
H38_7 C47_7 1_555 1_555
C51_7 C31_7 1_555 1_555
C52_7 C32_7 1_555 1_555
C56_7 N12_7 1_555 1_555
C57_7 N13_7 1_555 1_555
C61_7 N12_7 1_555 1_555
C62_7 N13_7 1_555 1_555
C66_7 C61_7 1_555 1_555
C67_7 C62_7 1_555 1_555
H42_7 C66_7 1_555 1_555
H43_7 C67_7 1_555 1_555
C71_7 C61_7 1_555 1_555
C72_7 C62_7 1_555 1_555
H47_7 C71_7 1_555 1_555
H48_7 C72_7 1_555 1_555
O9_3 Cu8_4 1_555 1_555
O10_3 Cu8_4 1_555 1_555
O21_7 C56_7 1_555 1_555
O22_7 C57_7 1_555 1_555
C31_7 C36_7 1_555 1_555
C46_7 C51_7 1_555 1_555
C47_7 C52_7 1_555 1_555
C51_7 C56_7 1_555 1_555
C52_7 C57_7 1_555 1_555
C66_7 C72_7 1_555 1_555
C67_7 C71_7 1_555 1_555
C1_3 C2_3 1_555 1_555
C2_3 C3_3 1_555 1_555
C3_3 H2_3 1_555 1_555
O2_3 C1_3 1_555 1_555
Cu4_3 O7_3 1_555 1_555
Cu5_4 O8_3 1_555 1_555
C15_3 C20_3 1_555 1_555
C16_3 C21_3 1_555 1_555
C17_3 C22_3 1_555 1_555
C20_3 C25_3 1_555 1_555
C21_3 C25_3 1_555 1_555
C22_3 C26_3 1_555 1_555
C25_3 H16_3 1_555 1_555
C26_3 C21_3 1_555 1_555
C27_3 C20_3 1_555 1_555
H17_3 C27_3 1_555 1_555
H18_3 C26_3 1_555 1_555
O7_3 C16_3 1_555 1_555
O8_3 C17_3 1_555 1_555
O15_3 C15_3 1_555 1_555
O16_3 C16_3 1_555 1_555
O17_3 C17_3 1_555 1_555
C1_3 O10_3 1_555 1_555
C15_3 O9_3 1_555 1_555
C22_3 C27_3 1_555 1_555
Cu5_4 N7_8 1_555 1_555
N7_8 C37_8 1_555 1_555
H28_8 C37_8 1_555 1_555
C42_8 N7_8 1_555 1_555
H33_8 C42_8 1_555 1_555
N6_8 Cu5_4 1_555 1_555
N12_8 H12_8 1_555 1_555
N13_8 H13_8 1_555 1_555
C31_8 H22_8 1_555 1_555
C32_8 H23_8 1_555 1_555
C36_8 N6_8 1_555 1_555
H27_8 C36_8 1_555 1_555
C41_8 N6_8 1_555 1_555
H32_8 C41_8 1_555 1_555
C46_8 C41_8 1_555 1_555
H37_8 C46_8 1_555 1_555
H38_8 C47_8 1_555 1_555
C51_8 C31_8 1_555 1_555
C52_8 C32_8 1_555 1_555
C56_8 N12_8 1_555 1_555
C57_8 N13_8 1_555 1_555
C61_8 N12_8 1_555 1_555
C62_8 N13_8 1_555 1_555
C66_8 C61_8 1_555 1_555
C67_8 C62_8 1_555 1_555
H42_8 C66_8 1_555 1_555
H43_8 C67_8 1_555 1_555
C71_8 C61_8 1_555 1_555
C72_8 C62_8 1_555 1_555
H47_8 C71_8 1_555 1_555
H48_8 C72_8 1_555 1_555
O21_8 C56_8 1_555 1_555
O22_8 C57_8 1_555 1_555
C31_8 C36_8 1_555 1_555
C46_8 C51_8 1_555 1_555
C47_8 C52_8 1_555 1_555
C51_8 C56_8 1_555 1_555
C52_8 C57_8 1_555 1_555
C66_8 C72_8 1_555 1_555
C67_8 C71_8 1_555 1_555
Cu4_3 N7_9 1_555 1_555
N7_9 C37_9 1_555 1_555
H28_9 C37_9 1_555 1_555
C42_9 N7_9 1_555 1_555
H33_9 C42_9 1_555 1_555
N6_9 Cu4_3 1_555 1_555
N12_9 H12_9 1_555 1_555
N13_9 H13_9 1_555 1_555
C31_9 H22_9 1_555 1_555
C32_9 H23_9 1_555 1_555
C36_9 N6_9 1_555 1_555
H27_9 C36_9 1_555 1_555
C41_9 N6_9 1_555 1_555
H32_9 C41_9 1_555 1_555
C46_9 C41_9 1_555 1_555
H37_9 C46_9 1_555 1_555
H38_9 C47_9 1_555 1_555
C51_9 C31_9 1_555 1_555
C52_9 C32_9 1_555 1_555
C56_9 N12_9 1_555 1_555
C57_9 N13_9 1_555 1_555
C61_9 N12_9 1_555 1_555
C62_9 N13_9 1_555 1_555
C66_9 C61_9 1_555 1_555
C67_9 C62_9 1_555 1_555
H42_9 C66_9 1_555 1_555
H43_9 C67_9 1_555 1_555
C71_9 C61_9 1_555 1_555
C72_9 C62_9 1_555 1_555
H47_9 C71_9 1_555 1_555
H48_9 C72_9 1_555 1_555
O21_9 C56_9 1_555 1_555
O22_9 C57_9 1_555 1_555
C31_9 C36_9 1_555 1_555
C46_9 C51_9 1_555 1_555
C47_9 C52_9 1_555 1_555
C51_9 C56_9 1_555 1_555
C52_9 C57_9 1_555 1_555
C66_9 C72_9 1_555 1_555
C67_9 C71_9 1_555 1_555
H14_3 C24_3 1_555 1_555

#END
