
###############################################################################
#
# This file contains modified crystal structure data generated from the
# MOF subset of the Cambridge Structural Database (CSD) v543 
# hosted by the Cambridge Crystallographic Data Centre (CCDC).
#
# This work is licensed under the Creative Commons
# Attribution-NonCommercial-ShareAlike 4.0 International License.
# To view a copy of this license, visit
# http://creativecommons.org/licenses/by-nc-sa/4.0/
# or send a letter to
# Creative Commons, PO Box 1866, Mountain View, CA 94042, USA.
#
# CIF created using the CSD Python API on 29 September 2022
# The structure has been converted into the P1 space group
# The structure has a 3D framework
# The original CSD entry NAGBUU is in the orthorhombic crystal system
# The framework has been calculated to contain at least 10.0% void space
# The void calculation uses a probe of radius 1.32A, grid spacing 0.4
# H atom positions have been added when not included in the experimental data
# Generated hydrogen atom positions removed from atoms on special positions
#
###############################################################################

data_NAGBUU
_chemical_formula_moiety         '(C112 H96 Co16 N48 O64)n'
_symmetry_cell_setting           triclinic
_symmetry_space_group_name_H-M   'P 1'
_symmetry_Int_Tables_number      1
_space_group_name_Hall           'P 1'
loop_
_symmetry_equiv_pos_site_id
_symmetry_equiv_pos_as_xyz
1 x,y,z
_cell_length_a                   20.6271(6)
_cell_length_b                   6.9247(2)
_cell_length_c                   26.0974(8)
_cell_angle_alpha                90
_cell_angle_beta                 90
_cell_angle_gamma                90
_cell_volume                     3727.66
loop_
_atom_site_label
_atom_site_type_symbol
_atom_site_fract_x
_atom_site_fract_y
_atom_site_fract_z
Co1 Co 0.021889(16) 0.23714(5) 0.364993(12)
O7 O 0.03029(8) 0.2590(2) 0.28680(6)
O8 O 0.12243(10) 0.2406(4) 0.37154(8)
H2 H 0.1391(18) 0.203(5) 0.3454(14)
H3 H 0.1398(18) 0.334(6) 0.3817(14)
Co5 Co 0.007370(15) 0.00295(5) 0.250200(13)
N9 N 0.01913(10) 0.5855(3) 0.36446(7)
N10 N 0.01038(10) 0.2457(3) 0.44552(7)
N1 N 0.02855(10) 0.9042(3) 0.36436(7)
N2 N 0.02931(10) 0.8378(3) 0.31615(7)
N3 N 0.02337(10) 0.6497(3) 0.31614(7)
C1 C 0.02187(12) 0.7456(4) 0.39302(9)
C2 C 0.01241(12) 0.7491(3) 0.44929(9)
C3 C 0.05903(13) 0.6830(4) 0.48337(10)
H4 H 0.0985 0.6357 0.4716
C4 C 0.04556(13) 0.6888(4) 0.53514(9)
H5 H 0.0770 0.6448 0.5578
Co2 Co 0.507370(15) 0.00295(5) 0.249800(13)
O1 O 0.67230(10) 0.1018(4) 0.22318(8)
O2 O 0.60112(9) 0.0109(3) 0.28282(7)
O3 O 0.91255(8) 0.0374(3) 0.28085(7)
O4 O 0.92597(8) 0.1847(3) 0.35723(7)
O5 O 0.76369(12) 0.0654(7) 0.48318(10)
O6 O 0.66462(11) 0.0770(4) 0.46361(9)
N6 N 0.72086(12) 0.0758(4) 0.45181(9)
C7 C 0.70887(13) 0.0660(4) 0.30900(10)
C8 C 0.77433(12) 0.0721(4) 0.29635(10)
H8 H 0.7867 0.0656 0.2621
C9 C 0.82179(12) 0.0878(4) 0.33430(10)
C10 C 0.80341(12) 0.0907(4) 0.38532(10)
H9 H 0.8343 0.1013 0.4111
C11 C 0.73824(13) 0.0775(4) 0.39717(10)
C12 C 0.69028(12) 0.0662(4) 0.36024(10)
H10 H 0.6468 0.0590 0.3694
C13 C 0.65631(13) 0.0575(4) 0.26770(11)
C14 C 0.89303(12) 0.1040(4) 0.32244(9)
Co6 Co 0.992630(15) 0.50295(5) 0.249800(13)
O9 O 0.41255(8) 0.0374(3) 0.21915(7)
O10 O 0.53029(8) 0.2590(2) 0.21320(6)
N8 N 0.47663(10) 0.1497(3) 0.31614(7)
N5 N 0.98962(10) 0.7543(3) 0.55448(7)
C5 C 0.94468(13) 0.8172(4) 0.52146(10)
H6 H 0.9054 0.8623 0.5343
C6 C 0.95444(13) 0.8177(4) 0.46896(10)
H7 H 0.9224 0.8637 0.4471
Co4 Co 0.978111(16) 0.76286(5) 0.635007(12)
O11 O 0.46971(8) 0.7590(2) 0.28680(6)
N7 N 0.52931(10) 0.8378(3) 0.18385(7)
O11_2 O 0.03029(8) 0.2410(2) 0.78680(6)
O9_2 O 0.08745(8) 0.9626(3) 0.71915(7)
N8_2 N 0.02337(10) 0.8503(3) 0.81614(7)
N5_2 N 0.51038(10) 0.2457(3) 0.05448(7)
C4_2 C 0.45444(13) 0.3112(4) 0.03514(9)
H5_2 H 0.4230 0.3552 0.0578
C5_2 C 0.55532(13) 0.1828(4) 0.02146(10)
H6_2 H 0.5946 0.1377 0.0343
Co4_2 Co 0.521889(16) 0.23714(5) 0.135007(12)
N1_2 N 0.47145(10) 0.0958(3) 0.86436(7)
N2_2 N 0.47069(10) 0.1622(3) 0.81615(7)
N3_2 N 0.47663(10) 0.3503(3) 0.81614(7)
N4 N 0.48087(10) 0.4145(3) 0.86446(7)
C1_2 C 0.47813(12) 0.2544(4) 0.89302(9)
C2_2 C 0.48759(12) 0.2509(3) 0.94929(9)
C3_2 C 0.44097(13) 0.3170(4) 0.98337(10)
H4_2 H 0.4015 0.3643 0.9716
C6_2 C 0.54556(13) 0.1823(4) 0.96896(10)
H7_2 H 0.5776 0.1363 0.9471
Co3 Co 0.478111(16) 0.76286(5) 0.864993(12)
Co7 Co 0.507370(15) 0.49705(5) 0.749800(13)
N7_2 N 0.97069(10) 0.1622(3) 0.68385(7)
Co2_2 Co 0.992630(15) 0.99705(5) 0.749800(13)
O1_2 O 0.82770(10) 0.8982(4) 0.72318(8)
O2_2 O 0.89888(9) 0.9891(3) 0.78282(7)
O3_2 O 0.58745(8) 0.9626(3) 0.78085(7)
O4_2 O 0.57403(8) 0.8153(3) 0.85723(7)
O5_2 O 0.73631(12) 0.9346(7) 0.98318(10)
O6_2 O 0.83538(11) 0.9230(4) 0.96361(9)
O7_2 O 0.46971(8) 0.7410(2) 0.78680(6)
O8_2 O 0.37757(10) 0.7594(4) 0.87154(8)
H2_2 H 0.3609(18) 0.797(5) 0.8454(14)
H3_2 H 0.3602(18) 0.666(6) 0.8817(14)
N6_2 N 0.77914(12) 0.9242(4) 0.95181(9)
C7_2 C 0.79113(13) 0.9340(4) 0.80900(10)
C8_2 C 0.72567(12) 0.9279(4) 0.79635(10)
H8_2 H 0.7133 0.9344 0.7621
C9_2 C 0.67821(12) 0.9122(4) 0.83430(10)
C10_2 C 0.69659(12) 0.9093(4) 0.88532(10)
H9_2 H 0.6657 0.8987 0.9111
C11_2 C 0.76176(13) 0.9225(4) 0.89717(10)
C12_2 C 0.80972(12) 0.9338(4) 0.86024(10)
H10_2 H 0.8532 0.9410 0.8694
C13_2 C 0.84369(13) 0.9425(4) 0.76770(11)
C14_2 C 0.60697(12) 0.8960(4) 0.82244(9)
Co5_2 Co 0.492630(15) 0.99705(5) 0.750200(13)
O10_2 O 0.96971(8) 0.7410(2) 0.71320(6)
N10_2 N 0.48962(10) 0.7543(3) 0.94552(7)
Co2_3 Co 0.492630(15) 0.50295(5) 0.250200(13)
O1_3 O 0.32770(10) 0.6018(4) 0.27682(8)
O2_3 O 0.39888(9) 0.5109(3) 0.21718(7)
O3_3 O 0.08745(8) 0.5374(3) 0.21915(7)
O4_3 O 0.07403(8) 0.6847(3) 0.14277(7)
O5_3 O 0.23631(12) 0.5654(7) 0.01682(10)
O6_3 O 0.33538(11) 0.5770(4) 0.03639(9)
N6_3 N 0.27914(12) 0.5758(4) 0.04819(9)
C6_3 C 0.04556(13) 0.3177(4) 0.03104(10)
H7_3 H 0.0776 0.3637 0.0529
C7_3 C 0.29113(13) 0.5660(4) 0.19100(10)
C8_3 C 0.22567(12) 0.5721(4) 0.20365(10)
H8_3 H 0.2133 0.5656 0.2379
C9_3 C 0.17821(12) 0.5878(4) 0.16570(10)
C10_3 C 0.19659(12) 0.5907(4) 0.11468(10)
H9_3 H 0.1657 0.6013 0.0889
C11_3 C 0.26176(13) 0.5775(4) 0.10283(10)
C12_3 C 0.30972(12) 0.5662(4) 0.13976(10)
H10_3 H 0.3532 0.5590 0.1306
C13_3 C 0.34369(13) 0.5575(4) 0.23230(11)
C14_3 C 0.10697(12) 0.6040(4) 0.17756(9)
O9_3 O 0.58745(8) 0.5374(3) 0.28085(7)
N7_3 N 0.47069(10) 0.3378(3) 0.31615(7)
N8_3 N 0.52337(10) 0.6497(3) 0.18386(7)
N5_3 N 0.01038(10) 0.2543(3) 0.94552(7)
C5_3 C 0.05532(13) 0.3172(4) 0.97854(10)
H6_3 H 0.0946 0.3623 0.9657
Co4_3 Co 0.021889(16) 0.26286(5) 0.864993(12)
N9_2 N 0.98087(10) 0.0855(3) 0.13554(7)
Co1_2 Co 0.978111(16) 0.73714(5) 0.135007(12)
O7_3 O 0.96971(8) 0.7590(2) 0.21320(6)
O8_3 O 0.87757(10) 0.7406(4) 0.12846(8)
H2_3 H 0.8609(18) 0.703(5) 0.1546(14)
H3_3 H 0.8602(18) 0.834(6) 0.1183(14)
N1_3 N 0.97145(10) 0.4042(3) 0.13564(7)
N2_3 N 0.97069(10) 0.3378(3) 0.18385(7)
N3_3 N 0.97663(10) 0.1497(3) 0.18386(7)
C1_3 C 0.97813(12) 0.2456(4) 0.10698(9)
C2_3 C 0.98759(12) 0.2491(3) 0.05071(9)
C3_3 C 0.94097(13) 0.1830(4) 0.01663(10)
H4_3 H 0.9015 0.1357 0.0284
N10_3 N 0.98962(10) 0.7457(3) 0.05448(7)
Co3_2 Co 0.521889(16) 0.26286(5) 0.635007(12)
Co2_4 Co 0.007370(15) 0.49705(5) 0.750200(13)
O1_4 O 0.17230(10) 0.3982(4) 0.77682(8)
O2_4 O 0.10112(9) 0.4891(3) 0.71718(7)
O3_4 O 0.41255(8) 0.4626(3) 0.71915(7)
O4_4 O 0.42597(8) 0.3153(3) 0.64277(7)
O5_4 O 0.26369(12) 0.4346(7) 0.51682(10)
O6_4 O 0.16462(11) 0.4230(4) 0.53639(9)
O7_4 O 0.53029(8) 0.2410(2) 0.71320(6)
O8_4 O 0.62243(10) 0.2594(4) 0.62846(8)
H2_4 H 0.6391(18) 0.297(5) 0.6546(14)
H3_4 H 0.6398(18) 0.166(6) 0.6183(14)
N1_4 N 0.52855(10) 0.5958(3) 0.63564(7)
N2_4 N 0.52931(10) 0.6622(3) 0.68385(7)
N3_4 N 0.52337(10) 0.8503(3) 0.68386(7)
N4_2 N 0.51913(10) 0.9145(3) 0.63554(7)
N5_4 N 0.48962(10) 0.7457(3) 0.44552(7)
N6_4 N 0.22086(12) 0.4242(4) 0.54819(9)
C1_4 C 0.52187(12) 0.7544(4) 0.60698(9)
C2_4 C 0.51241(12) 0.7509(3) 0.55071(9)
C3_4 C 0.55903(13) 0.8170(4) 0.51663(10)
H4_4 H 0.5985 0.8643 0.5284
C4_3 C 0.54556(13) 0.8112(4) 0.46486(9)
H5_3 H 0.5770 0.8552 0.4422
C5_4 C 0.44468(13) 0.6828(4) 0.47854(10)
H6_4 H 0.4054 0.6377 0.4657
C6_4 C 0.45444(13) 0.6823(4) 0.53104(10)
H7_4 H 0.4224 0.6363 0.5529
C7_4 C 0.20887(13) 0.4340(4) 0.69100(10)
C8_4 C 0.27433(12) 0.4279(4) 0.70365(10)
H8_4 H 0.2867 0.4344 0.7379
C9_4 C 0.32179(12) 0.4122(4) 0.66570(10)
C10_4 C 0.30341(12) 0.4093(4) 0.61468(10)
H9_4 H 0.3343 0.3987 0.5889
C11_4 C 0.23824(13) 0.4225(4) 0.60283(10)
C12_4 C 0.19028(12) 0.4338(4) 0.63976(10)
H10_4 H 0.1468 0.4410 0.6306
C13_4 C 0.15631(13) 0.4425(4) 0.73230(11)
C14_4 C 0.39303(12) 0.3960(4) 0.67756(9)
Co4_4 Co 0.478111(16) 0.73714(5) 0.364993(12)
N7_4 N 0.02931(10) 0.6622(3) 0.81615(7)
N10_4 N 0.51038(10) 0.2543(3) 0.55448(7)
O9_4 O 0.91255(8) 0.4626(3) 0.78085(7)
N8_4 N 0.97663(10) 0.3503(3) 0.68386(7)
C5_5 C 0.05532(13) 0.1828(4) 0.47854(10)
H6_5 H 0.0946 0.1377 0.4657
C6_5 C 0.04556(13) 0.1823(4) 0.53104(10)
H7_5 H 0.0776 0.1363 0.5529
O1_5 O 0.32770(10) 0.8982(4) 0.77682(8)
O2_5 O 0.39888(9) 0.9891(3) 0.71718(7)
O4_5 O 0.07403(8) 0.8153(3) 0.64277(7)
O5_5 O 0.23631(12) 0.9346(7) 0.51682(10)
O6_5 O 0.33538(11) 0.9230(4) 0.53639(9)
N6_5 N 0.27914(12) 0.9242(4) 0.54819(9)
C7_5 C 0.29113(13) 0.9340(4) 0.69100(10)
C8_5 C 0.22567(12) 0.9279(4) 0.70365(10)
H8_5 H 0.2133 0.9344 0.7379
C9_5 C 0.17821(12) 0.9122(4) 0.66570(10)
C10_5 C 0.19659(12) 0.9093(4) 0.61468(10)
H9_5 H 0.1657 0.8987 0.5889
C11_5 C 0.26176(13) 0.9225(4) 0.60283(10)
C12_5 C 0.30972(12) 0.9338(4) 0.63976(10)
H10_5 H 0.3532 0.9410 0.6306
C13_5 C 0.34369(13) 0.9425(4) 0.73230(11)
C14_5 C 0.10697(12) 0.8960(4) 0.67756(9)
N1_5 N 0.97145(10) 0.0958(3) 0.63564(7)
N4_3 N 0.98087(10) 0.4145(3) 0.63554(7)
C1_5 C 0.97813(12) 0.2544(4) 0.60698(9)
C2_5 C 0.98759(12) 0.2509(3) 0.55071(9)
C3_5 C 0.94097(13) 0.3170(4) 0.51663(10)
H4_5 H 0.9015 0.3643 0.5284
C4_4 C 0.95444(13) 0.3112(4) 0.46486(9)
H5_4 H 0.9230 0.3552 0.4422
O8_5 O 0.87757(10) 0.7594(4) 0.62846(8)
H2_5 H 0.8609(18) 0.797(5) 0.6546(14)
H3_5 H 0.8602(18) 0.666(6) 0.6183(14)
O1_6 O 0.17230(10) 0.1018(4) 0.27682(8)
O2_6 O 0.10112(9) 0.0109(3) 0.21718(7)
O4_6 O 0.42597(8) 0.1847(3) 0.14277(7)
O5_6 O 0.26369(12) 0.0654(7) 0.01682(10)
O6_6 O 0.16462(11) 0.0770(4) 0.03639(9)
O8_6 O 0.62243(10) 0.2406(4) 0.12846(8)
H2_6 H 0.6391(18) 0.203(5) 0.1546(14)
H3_6 H 0.6398(18) 0.334(6) 0.1183(14)
N6_6 N 0.22086(12) 0.0758(4) 0.04819(9)
C7_6 C 0.20887(13) 0.0660(4) 0.19100(10)
C8_6 C 0.27433(12) 0.0721(4) 0.20365(10)
H8_6 H 0.2867 0.0656 0.2379
C9_6 C 0.32179(12) 0.0878(4) 0.16570(10)
C10_6 C 0.30341(12) 0.0907(4) 0.11468(10)
H9_6 H 0.3343 0.1013 0.0889
C11_6 C 0.23824(13) 0.0775(4) 0.10283(10)
C12_6 C 0.19028(12) 0.0662(4) 0.13976(10)
H10_6 H 0.1468 0.0590 0.1306
C13_6 C 0.15631(13) 0.0575(4) 0.23230(11)
C14_6 C 0.39303(12) 0.1040(4) 0.17756(9)
N9_3 N 0.51913(10) 0.5855(3) 0.13554(7)
N1_6 N 0.52855(10) 0.9042(3) 0.13564(7)
C1_6 C 0.52187(12) 0.7456(4) 0.10698(9)
C2_6 C 0.51241(12) 0.7491(3) 0.05071(9)
C3_6 C 0.55903(13) 0.6830(4) 0.01663(10)
H4_6 H 0.5985 0.6357 0.0284
C6_6 C 0.45444(13) 0.8177(4) 0.03104(10)
H7_6 H 0.4224 0.8637 0.0529
C4_5 C 0.54556(13) 0.6888(4) 0.96486(9)
H5_5 H 0.5770 0.6448 0.9422
C5_6 C 0.44468(13) 0.8172(4) 0.97854(10)
H6_6 H 0.4054 0.8623 0.9657
O8_7 O 0.12243(10) 0.2594(4) 0.87154(8)
H2_7 H 0.1391(18) 0.297(5) 0.8454(14)
H3_7 H 0.1398(18) 0.166(6) 0.8817(14)
N1_7 N 0.02855(10) 0.5958(3) 0.86436(7)
N4_4 N 0.01913(10) 0.9145(3) 0.86446(7)
C1_7 C 0.02187(12) 0.7544(4) 0.89302(9)
C2_7 C 0.01241(12) 0.7509(3) 0.94929(9)
C3_7 C 0.05903(13) 0.8170(4) 0.98337(10)
H4_7 H 0.0985 0.8643 0.9716
C5_7 C 0.94468(13) 0.6828(4) 0.02146(10)
H6_7 H 0.9054 0.6377 0.0343
O1_7 O 0.67230(10) 0.3982(4) 0.72318(8)
O2_7 O 0.60112(9) 0.4891(3) 0.78282(7)
O4_7 O 0.92597(8) 0.3153(3) 0.85723(7)
O5_7 O 0.76369(12) 0.4346(7) 0.98318(10)
O6_7 O 0.66462(11) 0.4230(4) 0.96361(9)
N6_7 N 0.72086(12) 0.4242(4) 0.95181(9)
C6_7 C 0.95444(13) 0.6823(4) 0.96896(10)
H7_7 H 0.9224 0.6363 0.9471
C7_7 C 0.70887(13) 0.4340(4) 0.80900(10)
C8_7 C 0.77433(12) 0.4279(4) 0.79635(10)
H8_7 H 0.7867 0.4344 0.7621
C9_7 C 0.82179(12) 0.4122(4) 0.83430(10)
C10_7 C 0.80341(12) 0.4093(4) 0.88532(10)
H9_7 H 0.8343 0.3987 0.9111
C11_7 C 0.73824(13) 0.4225(4) 0.89717(10)
C12_7 C 0.69028(12) 0.4338(4) 0.86024(10)
H10_7 H 0.6468 0.4410 0.8694
C13_7 C 0.65631(13) 0.4425(4) 0.76770(11)
C14_7 C 0.89303(12) 0.3960(4) 0.82244(9)
N9_4 N 0.48087(10) 0.0855(3) 0.36446(7)
O1_8 O 0.82770(10) 0.6018(4) 0.22318(8)
O2_8 O 0.89888(9) 0.5109(3) 0.28282(7)
O4_8 O 0.57403(8) 0.6847(3) 0.35723(7)
O5_8 O 0.73631(12) 0.5654(7) 0.48318(10)
O6_8 O 0.83538(11) 0.5770(4) 0.46361(9)
O8_8 O 0.37757(10) 0.7406(4) 0.37154(8)
H2_8 H 0.3609(18) 0.703(5) 0.3454(14)
H3_8 H 0.3602(18) 0.834(6) 0.3817(14)
N1_8 N 0.47145(10) 0.4042(3) 0.36436(7)
N6_8 N 0.77914(12) 0.5758(4) 0.45181(9)
C1_8 C 0.47813(12) 0.2456(4) 0.39302(9)
C2_8 C 0.48759(12) 0.2491(3) 0.44929(9)
C3_8 C 0.44097(13) 0.1830(4) 0.48337(10)
H4_8 H 0.4015 0.1357 0.4716
C4_6 C 0.45444(13) 0.1888(4) 0.53514(9)
H5_6 H 0.4230 0.1448 0.5578
C5_8 C 0.55532(13) 0.3172(4) 0.52146(10)
H6_8 H 0.5946 0.3623 0.5343
C6_8 C 0.54556(13) 0.3177(4) 0.46896(10)
H7_8 H 0.5776 0.3637 0.4471
C7_8 C 0.79113(13) 0.5660(4) 0.30900(10)
C8_8 C 0.72567(12) 0.5721(4) 0.29635(10)
H8_8 H 0.7133 0.5656 0.2621
C9_8 C 0.67821(12) 0.5878(4) 0.33430(10)
C10_8 C 0.69659(12) 0.5907(4) 0.38532(10)
H9_8 H 0.6657 0.6013 0.4111
C11_8 C 0.76176(13) 0.5775(4) 0.39717(10)
C12_8 C 0.80972(12) 0.5662(4) 0.36024(10)
H10_8 H 0.8532 0.5590 0.3694
C13_8 C 0.84369(13) 0.5575(4) 0.26770(11)
C14_8 C 0.60697(12) 0.6040(4) 0.32244(9)
C4_7 C 0.95444(13) 0.1888(4) 0.96486(9)
H5_7 H 0.9230 0.1448 0.9422
C4_8 C 0.04556(13) 0.8112(4) 0.03514(9)
H5_8 H 0.0770 0.8552 0.0578
loop_
_geom_bond_atom_site_label_1
_geom_bond_atom_site_label_2
_geom_bond_site_symmetry_1
_geom_bond_site_symmetry_2
O7 Co1 1_555 1_555
O8 Co1 1_555 1_555
H2 O8 1_555 1_555
H3 O8 1_555 1_555
N9 Co1 1_555 1_555
N10 Co1 1_555 1_555
O7 Co5 1_555 1_555
N2 N1 1_555 1_555
N3 N2 1_555 1_555
N9 N3 1_555 1_555
C1 N1 1_555 1_555
C2 C1 1_555 1_555
C3 C2 1_555 1_555
H4 C3 1_555 1_555
C4 C3 1_555 1_555
H5 C4 1_555 1_555
N9 C1 1_555 1_555
Co2 O2 1_555 1_555
O1 C13 1_555 1_555
O2 C13 1_555 1_555
O3 C14 1_555 1_555
O4 C14 1_555 1_555
O5 N6 1_555 1_555
O6 N6 1_555 1_555
N6 C11 1_555 1_555
C7 C8 1_555 1_555
C8 H8 1_555 1_555
C9 C8 1_555 1_555
C10 C9 1_555 1_555
H9 C10 1_555 1_555
C11 C10 1_555 1_555
C12 C7 1_555 1_555
H10 C12 1_555 1_555
C13 C7 1_555 1_555
C14 C9 1_555 1_555
O9 Co2 1_555 1_555
O10 Co2 1_555 1_555
N8 Co2 1_555 1_555
C11 C12 1_555 1_555
C5 N5 1_555 1_555
H6 C5 1_555 1_555
H7 C6 1_555 1_555
Co4 N5 1_555 1_555
C5 C6 1_555 1_555
N5_2 C4_2 1_555 1_555
H5_2 C4_2 1_555 1_555
C5_2 N5_2 1_555 1_555
H6_2 C5_2 1_555 1_555
Co4_2 N5_2 1_555 1_555
N2_2 N1_2 1_555 1_555
N3_2 N2_2 1_555 1_555
N4 N3_2 1_555 1_555
C1_2 N1_2 1_555 1_555
C2_2 C1_2 1_555 1_555
C3_2 C2_2 1_555 1_555
H4_2 C3_2 1_555 1_555
C6_2 C2_2 1_555 1_555
H7_2 C6_2 1_555 1_555
Co3 N4 1_555 1_555
Co7 N3_2 1_555 1_555
N4 C1_2 1_555 1_555
Co3 O4_2 1_555 1_555
Co2_2 O2_2 1_555 1_555
O1_2 C13_2 1_555 1_555
O2_2 C13_2 1_555 1_555
O3_2 C14_2 1_555 1_555
O4_2 C14_2 1_555 1_555
O5_2 N6_2 1_555 1_555
O6_2 N6_2 1_555 1_555
O7_2 Co3 1_555 1_555
O8_2 Co3 1_555 1_555
H2_2 O8_2 1_555 1_555
H3_2 O8_2 1_555 1_555
N6_2 C11_2 1_555 1_555
C7_2 C8_2 1_555 1_555
C8_2 H8_2 1_555 1_555
C9_2 C8_2 1_555 1_555
C10_2 C9_2 1_555 1_555
H9_2 C10_2 1_555 1_555
C11_2 C10_2 1_555 1_555
C12_2 C7_2 1_555 1_555
H10_2 C12_2 1_555 1_555
C13_2 C7_2 1_555 1_555
C14_2 C9_2 1_555 1_555
Co5_2 O3_2 1_555 1_555
Co7 O7_2 1_555 1_555
O10_2 Co2_2 1_555 1_555
N10_2 Co3 1_555 1_555
O7_2 Co5_2 1_555 1_555
C11_2 C12_2 1_555 1_555
Co2_3 O2_3 1_555 1_555
O1_3 C13_3 1_555 1_555
O2_3 C13_3 1_555 1_555
O3_3 C14_3 1_555 1_555
O4_3 C14_3 1_555 1_555
O5_3 N6_3 1_555 1_555
O6_3 N6_3 1_555 1_555
N6_3 C11_3 1_555 1_555
H7_3 C6_3 1_555 1_555
C7_3 C8_3 1_555 1_555
C8_3 H8_3 1_555 1_555
C9_3 C8_3 1_555 1_555
C10_3 C9_3 1_555 1_555
H9_3 C10_3 1_555 1_555
C11_3 C10_3 1_555 1_555
C12_3 C7_3 1_555 1_555
H10_3 C12_3 1_555 1_555
C13_3 C7_3 1_555 1_555
C14_3 C9_3 1_555 1_555
O9_3 Co2_3 1_555 1_555
O11 Co2_3 1_555 1_555
O10 Co2_3 1_555 1_555
N7_3 Co2_3 1_555 1_555
N8_3 Co2_3 1_555 1_555
C11_3 C12_3 1_555 1_555
C5_3 N5_3 1_555 1_555
H6_3 C5_3 1_555 1_555
Co4_3 N5_3 1_555 1_555
O7_3 Co1_2 1_555 1_555
O8_3 Co1_2 1_555 1_555
H2_3 O8_3 1_555 1_555
H3_3 O8_3 1_555 1_555
N1_3 Co1_2 1_555 1_555
N2_3 N1_3 1_555 1_555
N3_3 N2_3 1_555 1_555
N9_2 N3_3 1_555 1_555
C1_3 N1_3 1_555 1_555
C2_3 C1_3 1_555 1_555
C3_3 C2_3 1_555 1_555
H4_3 C3_3 1_555 1_555
N10_3 Co1_2 1_555 1_555
O7_3 Co6 1_555 1_555
N2_3 Co6 1_555 1_555
N9_2 C1_3 1_555 1_555
Co3_2 O4_4 1_555 1_555
Co2_4 O2_4 1_555 1_555
O1_4 C13_4 1_555 1_555
O2_4 C13_4 1_555 1_555
O3_4 C14_4 1_555 1_555
O4_4 C14_4 1_555 1_555
O5_4 N6_4 1_555 1_555
O6_4 N6_4 1_555 1_555
O7_4 Co3_2 1_555 1_555
O8_4 Co3_2 1_555 1_555
H2_4 O8_4 1_555 1_555
H3_4 O8_4 1_555 1_555
N1_4 Co3_2 1_555 1_555
N2_4 N1_4 1_555 1_555
N3_4 N2_4 1_555 1_555
N4_2 N3_4 1_555 1_555
N5_4 C4_3 1_555 1_555
N6_4 C11_4 1_555 1_555
C1_4 N1_4 1_555 1_555
C2_4 C1_4 1_555 1_555
C3_4 C2_4 1_555 1_555
H4_4 C3_4 1_555 1_555
C4_3 C3_4 1_555 1_555
H5_3 C4_3 1_555 1_555
C5_4 N5_4 1_555 1_555
H6_4 C5_4 1_555 1_555
C6_4 C2_4 1_555 1_555
H7_4 C6_4 1_555 1_555
C7_4 C8_4 1_555 1_555
C8_4 H8_4 1_555 1_555
C9_4 C8_4 1_555 1_555
C10_4 C9_4 1_555 1_555
H9_4 C10_4 1_555 1_555
C11_4 C10_4 1_555 1_555
C12_4 C7_4 1_555 1_555
H10_4 C12_4 1_555 1_555
C13_4 C7_4 1_555 1_555
C14_4 C9_4 1_555 1_555
Co4_4 N5_4 1_555 1_555
Co7 O3_4 1_555 1_555
Co5_2 N3_4 1_555 1_555
O11_2 Co2_4 1_555 1_555
N7_4 Co2_4 1_555 1_555
N10_4 Co3_2 1_555 1_555
O7_4 Co7 1_555 1_555
N2_4 Co7 1_555 1_555
N4_2 C1_4 1_555 1_555
C5_4 C6_4 1_555 1_555
C11_4 C12_4 1_555 1_555
C5_5 N10 1_555 1_555
H6_5 C5_5 1_555 1_555
H7_5 C6_5 1_555 1_555
C5_5 C6_5 1_555 1_555
Co5_2 O2_5 1_555 1_555
O1_5 C13_5 1_555 1_555
O2_5 C13_5 1_555 1_555
O9_2 C14_5 1_555 1_555
O4_5 C14_5 1_555 1_555
O5_5 N6_5 1_555 1_555
O6_5 N6_5 1_555 1_555
N6_5 C11_5 1_555 1_555
C7_5 C8_5 1_555 1_555
C8_5 H8_5 1_555 1_555
C9_5 C8_5 1_555 1_555
C10_5 C9_5 1_555 1_555
H9_5 C10_5 1_555 1_555
C11_5 C10_5 1_555 1_555
C12_5 C7_5 1_555 1_555
H10_5 C12_5 1_555 1_555
C13_5 C7_5 1_555 1_555
C14_5 C9_5 1_555 1_555
C11_5 C12_5 1_555 1_555
N7_2 N1_5 1_555 1_555
N8_4 N7_2 1_555 1_555
N4_3 N8_4 1_555 1_555
C1_5 N1_5 1_555 1_555
C2_5 C1_5 1_555 1_555
C3_5 C2_5 1_555 1_555
H4_5 C3_5 1_555 1_555
C4_4 C3_5 1_555 1_555
H5_4 C4_4 1_555 1_555
Co4 N4_3 1_555 1_555
N4_3 C1_5 1_555 1_555
O10_2 Co4 1_555 1_555
O8_5 Co4 1_555 1_555
H2_5 O8_5 1_555 1_555
H3_5 O8_5 1_555 1_555
Co4_2 O4_6 1_555 1_555
Co5 O2_6 1_555 1_555
O1_6 C13_6 1_555 1_555
O2_6 C13_6 1_555 1_555
O9 C14_6 1_555 1_555
O4_6 C14_6 1_555 1_555
O5_6 N6_6 1_555 1_555
O6_6 N6_6 1_555 1_555
O10 Co4_2 1_555 1_555
O8_6 Co4_2 1_555 1_555
H2_6 O8_6 1_555 1_555
H3_6 O8_6 1_555 1_555
N6_6 C11_6 1_555 1_555
C7_6 C8_6 1_555 1_555
C8_6 H8_6 1_555 1_555
C9_6 C8_6 1_555 1_555
C10_6 C9_6 1_555 1_555
H9_6 C10_6 1_555 1_555
C11_6 C10_6 1_555 1_555
C12_6 C7_6 1_555 1_555
H10_6 C12_6 1_555 1_555
C13_6 C7_6 1_555 1_555
C14_6 C9_6 1_555 1_555
N9_3 Co4_2 1_555 1_555
C11_6 C12_6 1_555 1_555
N7 N1_6 1_555 1_555
N8_3 N7 1_555 1_555
N9_3 N8_3 1_555 1_555
C1_6 N1_6 1_555 1_555
C2_6 C1_6 1_555 1_555
C3_6 C2_6 1_555 1_555
H4_6 C3_6 1_555 1_555
C6_6 C2_6 1_555 1_555
H7_6 C6_6 1_555 1_555
N9_3 C1_6 1_555 1_555
N10_2 C4_5 1_555 1_555
H5_5 C4_5 1_555 1_555
C5_6 N10_2 1_555 1_555
H6_6 C5_6 1_555 1_555
O11_2 Co4_3 1_555 1_555
O8_7 Co4_3 1_555 1_555
H2_7 O8_7 1_555 1_555
H3_7 O8_7 1_555 1_555
N1_7 Co4_3 1_555 1_555
N7_4 N1_7 1_555 1_555
N8_2 N7_4 1_555 1_555
N4_4 N8_2 1_555 1_555
C1_7 N1_7 1_555 1_555
C2_7 C1_7 1_555 1_555
C3_7 C2_7 1_555 1_555
H4_7 C3_7 1_555 1_555
N4_4 C1_7 1_555 1_555
C5_7 N10_3 1_555 1_555
H6_7 C5_7 1_555 1_555
Co7 O2_7 1_555 1_555
O1_7 C13_7 1_555 1_555
O2_7 C13_7 1_555 1_555
O9_4 C14_7 1_555 1_555
O4_7 C14_7 1_555 1_555
O5_7 N6_7 1_555 1_555
O6_7 N6_7 1_555 1_555
N6_7 C11_7 1_555 1_555
H7_7 C6_7 1_555 1_555
C7_7 C8_7 1_555 1_555
C8_7 H8_7 1_555 1_555
C9_7 C8_7 1_555 1_555
C10_7 C9_7 1_555 1_555
H9_7 C10_7 1_555 1_555
C11_7 C10_7 1_555 1_555
C12_7 C7_7 1_555 1_555
H10_7 C12_7 1_555 1_555
C13_7 C7_7 1_555 1_555
C14_7 C9_7 1_555 1_555
C11_7 C12_7 1_555 1_555
Co4_4 O4_8 1_555 1_555
Co6 O2_8 1_555 1_555
O1_8 C13_8 1_555 1_555
O2_8 C13_8 1_555 1_555
O9_3 C14_8 1_555 1_555
O4_8 C14_8 1_555 1_555
O5_8 N6_8 1_555 1_555
O6_8 N6_8 1_555 1_555
O11 Co4_4 1_555 1_555
O8_8 Co4_4 1_555 1_555
H2_8 O8_8 1_555 1_555
H3_8 O8_8 1_555 1_555
N1_8 Co4_4 1_555 1_555
N7_3 N1_8 1_555 1_555
N8 N7_3 1_555 1_555
N9_4 N8 1_555 1_555
N10_4 C4_6 1_555 1_555
N6_8 C11_8 1_555 1_555
C1_8 N1_8 1_555 1_555
C2_8 C1_8 1_555 1_555
C3_8 C2_8 1_555 1_555
H4_8 C3_8 1_555 1_555
C4_6 C3_8 1_555 1_555
H5_6 C4_6 1_555 1_555
C5_8 N10_4 1_555 1_555
H6_8 C5_8 1_555 1_555
C6_8 C2_8 1_555 1_555
H7_8 C6_8 1_555 1_555
C7_8 C8_8 1_555 1_555
C8_8 H8_8 1_555 1_555
C9_8 C8_8 1_555 1_555
C10_8 C9_8 1_555 1_555
H9_8 C10_8 1_555 1_555
C11_8 C10_8 1_555 1_555
C12_8 C7_8 1_555 1_555
H10_8 C12_8 1_555 1_555
C13_8 C7_8 1_555 1_555
C14_8 C9_8 1_555 1_555
N9_4 C1_8 1_555 1_555
C5_8 C6_8 1_555 1_555
C11_8 C12_8 1_555 1_555
H5_7 C4_7 1_555 1_555
H5_8 C4_8 1_555 1_555

#END
