
###############################################################################
#
# This file contains modified crystal structure data generated from the
# MOF subset of the Cambridge Structural Database (CSD) v543 
# hosted by the Cambridge Crystallographic Data Centre (CCDC).
#
# This work is licensed under the Creative Commons
# Attribution-NonCommercial-ShareAlike 4.0 International License.
# To view a copy of this license, visit
# http://creativecommons.org/licenses/by-nc-sa/4.0/
# or send a letter to
# Creative Commons, PO Box 1866, Mountain View, CA 94042, USA.
#
# CIF created using the CSD Python API on 29 September 2022
# The structure has been converted into the P1 space group
# The structure has a 3D framework
# The original CSD entry NAGKEO is in the orthorhombic crystal system
# The framework has been calculated to contain at least 10.0% void space
# The void calculation uses a probe of radius 1.32A, grid spacing 0.4
# The framework is charged, counterions have been retained in the structure
#
###############################################################################

data_NAGKEO
_chemical_formula_moiety         '(C256 H96 Br32 O128 Zn18 16-)n'
_symmetry_cell_setting           triclinic
_symmetry_space_group_name_H-M   'P 1'
_symmetry_Int_Tables_number      1
_space_group_name_Hall           'P 1'
loop_
_symmetry_equiv_pos_site_id
_symmetry_equiv_pos_as_xyz
1 x,y,z
_cell_length_a                   20.892(10)
_cell_length_b                   24.470(11)
_cell_length_c                   25.238(11)
_cell_angle_alpha                90
_cell_angle_beta                 90
_cell_angle_gamma                90
_cell_volume                     12902.4
loop_
_atom_site_label
_atom_site_type_symbol
_atom_site_fract_x
_atom_site_fract_y
_atom_site_fract_z
C9 C 0.3460(6) 0.2908(5) 0.0456(6)
H4 H 0.0331 0.0036 0.0928
C19 C 0.1330(6) 0.2073(5) 0.0559(6)
C20 C 0.1866(6) 0.2260(5) 0.0231(5)
C21 C 0.2425(6) 0.2459(5) 0.0475(5)
H7 H 0.2456 0.2456 0.0843
C22 C 0.2918(6) 0.2657(5) 0.0182(5)
O5 O 0.3459(4) 0.2986(3) 0.0926(4)
O6 O 0.3942(4) 0.3021(4) 0.0151(4)
O11 O 0.0325(4) 0.1034(3) 0.1172(3)
O13 O 0.1396(4) 0.1992(4) 0.1057(4)
O14 O 0.0802(5) 0.1966(4) 0.0316(3)
Zn1 Zn 0.05968(6) 0.17808(5) 0.13982(5)
O17 O 0.0677(4) 0.1777(3) 0.2165(3)
Zn8 Zn 0.42256(7) 0.32843(5) 0.12470(5)
Br3 Br 0.22811(8) 0.24469(8) 0.86447(6)
C23 C 0.2849(6) 0.2654(5) 0.9642(6)
H8 H 0.3172 0.2808 0.9438
C24 C 0.2327(6) 0.2433(5) 0.9385(5)
C25 C 0.1841(6) 0.2259(5) 0.9686(5)
H9 H 0.1472 0.2132 0.9521
Zn6 Zn 0.48813(11) 0.29855(10) 0.99140(9)
C11 C 0.0029(6) 0.9001(5) 0.0685(5)
O3 O 0.0123(4) 0.7711(4) 0.1274(3)
O9 O 0.0463(4) 0.8996(3) 0.1030(3)
Zn3 Zn 0.07744(7) 0.82843(5) 0.12470(5)
O18 O 0.1541(4) 0.7986(3) 0.0926(4)
O19 O 0.1058(4) 0.8021(4) 0.0151(4)
O20 O 0.0834(5) 0.8289(3) 0.2014(3)
Zn2 Zn 0.01187(11) 0.79855(10) 0.99140(9)
O21 O 0.0370(4) 0.8549(4) 0.9352(3)
O23 O 0.0351(4) 0.7379(3) 0.9379(3)
Br4 Br 0.78009(10) 0.41054(8) 0.08519(7)
C10 C 0.8771(7) 0.3566(6) 0.2724(5)
C13 C 0.9934(6) 0.0028(5) 0.0762(4)
C14 C 0.9615(6) 0.0496(5) 0.0671(5)
C15 C 0.9060(6) 0.0483(6) 0.0411(5)
H5 H 0.8848 0.0809 0.0340
C16 C 0.8798(6) 0.0004(5) 0.0246(4)
C18 C 0.9877(7) 0.1058(7) 0.0844(5)
C26 C 0.9647(6) 0.2658(5) 0.1097(5)
C27 C 0.9186(6) 0.3047(5) 0.1352(5)
C28 C 0.9184(6) 0.3108(5) 0.1911(5)
H10 H 0.9456 0.2898 0.2120
C29 C 0.8774(6) 0.3482(5) 0.2145(5)
C30 C 0.8360(7) 0.3772(6) 0.1823(6)
H11 H 0.8068 0.4015 0.1973
C31 C 0.8377(6) 0.3705(5) 0.1289(5)
C32 C 0.8778(6) 0.3344(5) 0.1042(5)
H12 H 0.8773 0.3303 0.0676
O7 O 0.9166(5) 0.3289(3) 0.2986(3)
O8 O 0.8350(5) 0.3859(4) 0.2935(4)
O12 O 0.9630(4) 0.1451(4) 0.0648(3)
O15 O 0.9987(4) 0.2385(3) 0.1423(3)
O16 O 0.9649(4) 0.2621(3) 0.0621(3)
Zn5 Zn 0.98813(11) 0.20145(10) 0.00860(9)
Zn7 Zn 0.92256(7) 0.32843(5) 0.37530(5)
Br1 Br 0.81163(12) 0.58577(9) 0.06750(8)
C1 C 0.8999(6) 0.6531(5) 0.1980(5)
C2 C 0.9419(5) 0.6911(5) 0.1741(5)
H1 H 0.9686 0.7122 0.1954
C3 C 0.9441(6) 0.6976(5) 0.1203(5)
C4 C 0.9056(7) 0.6659(6) 0.0899(5)
H2 H 0.9078 0.6685 0.0531
C5 C 0.8642(7) 0.6306(6) 0.1123(6)
C6 C 0.8617(7) 0.6230(5) 0.1651(6)
H3 H 0.8339 0.5971 0.1792
C7 C 0.8966(8) 0.6471(6) 0.2578(5)
C8 C 0.9850(6) 0.7394(5) 0.0959(6)
C12 C 0.9678(5) 0.9546(5) 0.0609(4)
C17 C 0.9111(6) 0.9531(5) 0.0334(4)
H6 H 0.8947 0.9201 0.0211
O1 O 0.8599(5) 0.6128(5) 0.2761(4)
O2 O 0.9323(4) 0.6777(3) 0.2835(3)
O4 O 0.9881(4) 0.7422(3) 0.0466(3)
O10 O 0.9862(4) 0.8596(3) 0.0410(3)
Zn4 Zn 0.94032(6) 0.67808(5) 0.36018(5)
Br2 Br 0.79954(7) 0.99957(6) 0.99019(6)
O22 O 0.9198(5) 0.8034(4) 0.9684(3)
Br1_2 Br 0.68837(12) 0.41423(9) 0.56750(8)
Br2_2 Br 0.70046(7) 0.00043(6) 0.49019(6)
C1_2 C 0.6001(6) 0.3469(5) 0.6980(5)
C2_2 C 0.5581(5) 0.3089(5) 0.6741(5)
H1_2 H 0.5314 0.2878 0.6954
C3_2 C 0.5559(6) 0.3024(5) 0.6203(5)
C4_2 C 0.5944(7) 0.3341(6) 0.5899(5)
H2_2 H 0.5922 0.3315 0.5531
C5_2 C 0.6358(7) 0.3694(6) 0.6123(6)
C6_2 C 0.6383(7) 0.3770(5) 0.6651(6)
H3_2 H 0.6661 0.4029 0.6792
C7_2 C 0.6034(8) 0.3529(6) 0.7578(5)
C8_2 C 0.5150(6) 0.2606(5) 0.5959(6)
C11_2 C 0.4971(6) 0.0999(5) 0.5685(5)
C12_2 C 0.5322(5) 0.0454(5) 0.5609(4)
C17_2 C 0.5889(6) 0.0469(5) 0.5334(4)
H6_2 H 0.6053 0.0799 0.5211
O1_2 O 0.6401(5) 0.3872(5) 0.7761(4)
O2_2 O 0.5677(4) 0.3223(3) 0.7835(3)
O3_2 O 0.4877(4) 0.2289(4) 0.6274(3)
O4_2 O 0.5119(4) 0.2578(3) 0.5466(3)
O9_2 O 0.4537(4) 0.1004(3) 0.6030(3)
O10_2 O 0.5138(4) 0.1404(3) 0.5410(3)
Zn2_2 Zn 0.48813(11) 0.20145(10) 0.49140(9)
Zn3_2 Zn 0.42256(7) 0.17157(5) 0.62470(5)
O18_2 O 0.3459(4) 0.2014(3) 0.5926(4)
O19_2 O 0.3942(4) 0.1979(4) 0.5151(4)
O20_2 O 0.4166(5) 0.1711(3) 0.7014(3)
O21_2 O 0.4630(4) 0.1451(4) 0.4352(3)
O22_2 O 0.5802(5) 0.1966(4) 0.4684(3)
O23_2 O 0.4649(4) 0.2621(3) 0.4379(3)
Zn4_2 Zn 0.55968(6) 0.32192(5) 0.86018(5)
Br3_2 Br 0.27189(8) 0.75531(8) 0.36447(6)
Br4_2 Br 0.71991(10) 0.58946(8) 0.58519(7)
C9_2 C 0.1540(6) 0.7092(5) 0.5456(6)
C10_2 C 0.6229(7) 0.6434(6) 0.7724(5)
C13_2 C 0.5066(6) 0.9972(5) 0.5762(4)
H4_2 H 0.4669 0.9964 0.5928
C14_2 C 0.5385(6) 0.9504(5) 0.5671(5)
C15_2 C 0.5940(6) 0.9517(6) 0.5411(5)
H5_2 H 0.6152 0.9191 0.5340
C16_2 C 0.6202(6) 0.9996(5) 0.5246(4)
C18_2 C 0.5123(7) 0.8942(7) 0.5844(5)
C19_2 C 0.3670(6) 0.7927(5) 0.5559(6)
C20_2 C 0.3134(6) 0.7740(5) 0.5231(5)
C21_2 C 0.2575(6) 0.7541(5) 0.5475(5)
H7_2 H 0.2544 0.7544 0.5843
C22_2 C 0.2082(6) 0.7343(5) 0.5182(5)
C23_2 C 0.2151(6) 0.7346(5) 0.4642(6)
H8_2 H 0.1828 0.7192 0.4438
C24_2 C 0.2673(6) 0.7567(5) 0.4385(5)
C25_2 C 0.3159(6) 0.7741(5) 0.4686(5)
H9_2 H 0.3528 0.7868 0.4521
C26_2 C 0.5353(6) 0.7342(5) 0.6097(5)
C27_2 C 0.5814(6) 0.6953(5) 0.6352(5)
C28_2 C 0.5816(6) 0.6892(5) 0.6911(5)
H10_2 H 0.5544 0.7102 0.7120
C29_2 C 0.6226(6) 0.6518(5) 0.7145(5)
C30_2 C 0.6640(7) 0.6228(6) 0.6823(6)
H11_2 H 0.6932 0.5985 0.6973
C31_2 C 0.6623(6) 0.6295(5) 0.6289(5)
C32_2 C 0.6222(6) 0.6656(5) 0.6042(5)
H12_2 H 0.6227 0.6697 0.5676
O5_2 O 0.1541(4) 0.7014(3) 0.5926(4)
O6_2 O 0.1058(4) 0.6979(4) 0.5151(4)
O7_2 O 0.5834(5) 0.6711(3) 0.7986(3)
O8_2 O 0.6650(5) 0.6141(4) 0.7935(4)
O11_2 O 0.4675(4) 0.8966(3) 0.6172(3)
O12_2 O 0.5370(4) 0.8549(4) 0.5648(3)
O13_2 O 0.3604(4) 0.8008(4) 0.6057(4)
O14_2 O 0.4198(5) 0.8034(4) 0.5316(3)
O15_2 O 0.5013(4) 0.7615(3) 0.6423(3)
O16_2 O 0.5351(4) 0.7379(3) 0.5621(3)
Zn1_2 Zn 0.44032(6) 0.82192(5) 0.63982(5)
O17_2 O 0.4323(4) 0.8223(3) 0.7165(3)
Zn5_2 Zn 0.51187(11) 0.79855(10) 0.50860(9)
Zn6_2 Zn 0.01187(11) 0.70145(10) 0.49140(9)
Zn7_2 Zn 0.57744(7) 0.67157(5) 0.87530(5)
Zn8_2 Zn 0.07744(7) 0.67157(5) 0.62470(5)
Br2_3 Br 0.29954(7) 0.50043(6) 0.00981(6)
Br3_3 Br 0.72811(8) 0.25531(8) 0.13553(6)
C23_3 C 0.7849(6) 0.2346(5) 0.0358(6)
H8_3 H 0.8172 0.2192 0.0562
C24_3 C 0.7327(6) 0.2567(5) 0.0615(5)
C25_3 C 0.6841(6) 0.2741(5) 0.0314(5)
H9_3 H 0.6472 0.2868 0.0479
Zn2_3 Zn 0.51187(11) 0.70145(10) 0.00860(9)
O21_3 O 0.5370(4) 0.6451(4) 0.0648(3)
O22_3 O 0.4198(5) 0.6966(4) 0.0316(3)
O23_3 O 0.5351(4) 0.7621(3) 0.0621(3)
Br1_3 Br 0.31163(12) 0.91423(9) 0.93250(8)
Br4_3 Br 0.28009(10) 0.08946(8) 0.91481(7)
C1_3 C 0.3999(6) 0.8469(5) 0.8020(5)
C2_3 C 0.4419(5) 0.8089(5) 0.8259(5)
H1_3 H 0.4686 0.7878 0.8046
C3_3 C 0.4441(6) 0.8024(5) 0.8797(5)
C4_3 C 0.4056(7) 0.8341(6) 0.9101(5)
H2_3 H 0.4078 0.8315 0.9469
C5_3 C 0.3642(7) 0.8694(6) 0.8877(6)
C6_3 C 0.3617(7) 0.8770(5) 0.8349(6)
H3_3 H 0.3339 0.9029 0.8208
C7_3 C 0.3966(8) 0.8529(6) 0.7422(5)
C8_3 C 0.4850(6) 0.7606(5) 0.9041(6)
C9_3 C 0.8460(6) 0.2092(5) 0.9544(6)
C10_3 C 0.3771(7) 0.1434(6) 0.7276(5)
C11_3 C 0.5029(6) 0.5999(5) 0.9315(5)
C12_3 C 0.4678(5) 0.5454(5) 0.9391(4)
C13_3 C 0.4934(6) 0.4972(5) 0.9238(4)
H4_3 H 0.5331 0.4964 0.9072
C14_3 C 0.4615(6) 0.4504(5) 0.9329(5)
C15_3 C 0.4060(6) 0.4517(6) 0.9589(5)
H5_3 H 0.3848 0.4191 0.9660
C16_3 C 0.3798(6) 0.4996(5) 0.9754(4)
C17_3 C 0.4111(6) 0.5469(5) 0.9666(4)
H6_3 H 0.3947 0.5799 0.9789
C18_3 C 0.4877(7) 0.3942(7) 0.9156(5)
C19_3 C 0.6330(6) 0.2927(5) 0.9441(6)
C20_3 C 0.6866(6) 0.2740(5) 0.9769(5)
C21_3 C 0.7425(6) 0.2541(5) 0.9525(5)
H7_3 H 0.7456 0.2544 0.9157
C22_3 C 0.7918(6) 0.2343(5) 0.9818(5)
C26_3 C 0.4647(6) 0.2342(5) 0.8903(5)
C27_3 C 0.4186(6) 0.1953(5) 0.8648(5)
C28_3 C 0.4184(6) 0.1892(5) 0.8089(5)
H10_3 H 0.4456 0.2102 0.7880
C29_3 C 0.3774(6) 0.1518(5) 0.7855(5)
C30_3 C 0.3360(7) 0.1228(6) 0.8177(6)
H11_3 H 0.3068 0.0985 0.8027
C31_3 C 0.3377(6) 0.1295(5) 0.8711(5)
C32_3 C 0.3778(6) 0.1656(5) 0.8958(5)
H12_3 H 0.3773 0.1697 0.9324
O1_3 O 0.3599(5) 0.8872(5) 0.7239(4)
O3_3 O 0.5123(4) 0.7289(4) 0.8726(3)
O4_3 O 0.4881(4) 0.7578(3) 0.9534(3)
O5_3 O 0.8459(4) 0.2014(3) 0.9074(4)
O6_3 O 0.8942(4) 0.1979(4) 0.9849(4)
O8_3 O 0.3350(5) 0.1141(4) 0.7065(4)
O9_3 O 0.5463(4) 0.6004(3) 0.8970(3)
O10_3 O 0.4862(4) 0.6404(3) 0.9590(3)
O11_3 O 0.5325(4) 0.3966(3) 0.8828(3)
O12_3 O 0.4630(4) 0.3549(4) 0.9352(3)
O13_3 O 0.6396(4) 0.3008(4) 0.8943(4)
O14_3 O 0.5802(5) 0.3034(4) 0.9684(3)
O15_3 O 0.4987(4) 0.2615(3) 0.8577(3)
O16_3 O 0.4649(4) 0.2379(3) 0.9379(3)
O18_3 O 0.6541(4) 0.7014(3) 0.9074(4)
O19_3 O 0.6058(4) 0.6979(4) 0.9849(4)
Zn8_3 Zn 0.92256(7) 0.17157(5) 0.87530(5)
Br1_4 Br 0.18837(12) 0.08577(9) 0.43250(8)
Br2_4 Br 0.20046(7) 0.49957(6) 0.50981(6)
Br4_4 Br 0.21991(10) 0.91054(8) 0.41481(7)
C1_4 C 0.1001(6) 0.1531(5) 0.3020(5)
C2_4 C 0.0581(5) 0.1911(5) 0.3259(5)
H1_4 H 0.0314 0.2122 0.3046
C3_4 C 0.0559(6) 0.1976(5) 0.3797(5)
C4_4 C 0.0944(7) 0.1659(6) 0.4101(5)
H2_4 H 0.0922 0.1685 0.4469
C5_4 C 0.1358(7) 0.1306(6) 0.3877(6)
C6_4 C 0.1383(7) 0.1230(5) 0.3349(6)
H3_4 H 0.1661 0.0971 0.3208
C7_4 C 0.1034(8) 0.1471(6) 0.2422(5)
C8_4 C 0.0150(6) 0.2394(5) 0.4041(6)
C10_4 C 0.1229(7) 0.8566(6) 0.2276(5)
C12_4 C 0.0322(5) 0.4546(5) 0.4391(4)
C13_4 C 0.0066(6) 0.5028(5) 0.4238(4)
C14_4 C 0.0385(6) 0.5496(5) 0.4329(5)
C15_4 C 0.0940(6) 0.5483(6) 0.4589(5)
H5_4 H 0.1152 0.5809 0.4660
C16_4 C 0.1202(6) 0.5004(5) 0.4754(4)
C17_4 C 0.0889(6) 0.4531(5) 0.4666(4)
H6_4 H 0.1053 0.4201 0.4789
C18_4 C 0.0123(7) 0.6058(7) 0.4156(5)
C26_4 C 0.0353(6) 0.7658(5) 0.3903(5)
C27_4 C 0.0814(6) 0.8047(5) 0.3648(5)
C28_4 C 0.0816(6) 0.8108(5) 0.3089(5)
H10_4 H 0.0544 0.7898 0.2880
C29_4 C 0.1226(6) 0.8482(5) 0.2855(5)
C30_4 C 0.1640(7) 0.8772(6) 0.3177(6)
H11_4 H 0.1932 0.9015 0.3027
C31_4 C 0.1623(6) 0.8705(5) 0.3711(5)
C32_4 C 0.1222(6) 0.8344(5) 0.3958(5)
H12_4 H 0.1227 0.8303 0.4324
O1_4 O 0.1401(5) 0.1128(5) 0.2239(4)
O4_4 O 0.0119(4) 0.2422(3) 0.4534(3)
O8_4 O 0.1650(5) 0.8859(4) 0.2065(4)
O10_4 O 0.0138(4) 0.3596(3) 0.4590(3)
O12_4 O 0.0370(4) 0.6451(4) 0.4352(3)
O15_4 O 0.0013(4) 0.7385(3) 0.3577(3)
O16_4 O 0.0351(4) 0.7621(3) 0.4379(3)
O22_4 O 0.0802(5) 0.3034(4) 0.5316(3)
Br3_4 Br 0.77189(8) 0.74469(8) 0.63553(6)
C9_4 C 0.6540(6) 0.7908(5) 0.4544(6)
C11_4 C 0.9971(6) 0.4001(5) 0.4315(5)
H4_4 H 0.9669 0.5036 0.4072
C19_4 C 0.8670(6) 0.7073(5) 0.4441(6)
C20_4 C 0.8134(6) 0.7260(5) 0.4769(5)
C21_4 C 0.7575(6) 0.7459(5) 0.4525(5)
H7_4 H 0.7544 0.7456 0.4157
C22_4 C 0.7082(6) 0.7657(5) 0.4818(5)
C23_4 C 0.7151(6) 0.7654(5) 0.5358(6)
H8_4 H 0.6828 0.7808 0.5562
C24_4 C 0.7673(6) 0.7433(5) 0.5615(5)
C25_4 C 0.8159(6) 0.7259(5) 0.5314(5)
H9_4 H 0.8528 0.7132 0.5479
O3_4 O 0.9877(4) 0.2711(4) 0.3726(3)
O5_4 O 0.6541(4) 0.7986(3) 0.4074(4)
O6_4 O 0.6058(4) 0.8021(4) 0.4849(4)
O9_4 O 0.9537(4) 0.3996(3) 0.3970(3)
O11_4 O 0.9675(4) 0.6034(3) 0.3828(3)
O13_4 O 0.8604(4) 0.6992(4) 0.3943(4)
O14_4 O 0.9198(5) 0.6966(4) 0.4684(3)
Zn2_4 Zn 0.98813(11) 0.29855(10) 0.50860(9)
O18_4 O 0.8459(4) 0.2986(3) 0.4074(4)
O19_4 O 0.8942(4) 0.3021(4) 0.4849(4)
O21_4 O 0.9630(4) 0.3549(4) 0.5648(3)
O23_4 O 0.9649(4) 0.2379(3) 0.5621(3)
Zn8_4 Zn 0.57744(7) 0.82843(5) 0.37530(5)
Br2_5 Br 0.20046(7) 0.00043(6) 0.00981(6)
Br1_5 Br 0.18837(12) 0.41423(9) 0.93250(8)
C1_5 C 0.1001(6) 0.3469(5) 0.8020(5)
C2_5 C 0.0581(5) 0.3089(5) 0.8259(5)
H1_5 H 0.0314 0.2878 0.8046
C3_5 C 0.0559(6) 0.3024(5) 0.8797(5)
C4_5 C 0.0944(7) 0.3341(6) 0.9101(5)
H2_5 H 0.0922 0.3315 0.9469
C5_5 C 0.1358(7) 0.3694(6) 0.8877(6)
C6_5 C 0.1383(7) 0.3770(5) 0.8349(6)
H3_5 H 0.1661 0.4029 0.8208
C7_5 C 0.1034(8) 0.3529(6) 0.7422(5)
C8_5 C 0.0150(6) 0.2606(5) 0.9041(6)
C12_5 C 0.0322(5) 0.0454(5) 0.9391(4)
C17_5 C 0.0889(6) 0.0469(5) 0.9666(4)
H6_5 H 0.1053 0.0799 0.9789
O1_5 O 0.1401(5) 0.3872(5) 0.7239(4)
O2_3 O 0.0677(4) 0.3223(3) 0.7165(3)
O4_5 O 0.0119(4) 0.2578(3) 0.9534(3)
O10_5 O 0.0138(4) 0.1404(3) 0.9590(3)
Zn4_3 Zn 0.05968(6) 0.32192(5) 0.63982(5)
Br4_5 Br 0.21991(10) 0.58946(8) 0.91481(7)
C10_5 C 0.1229(7) 0.6434(6) 0.7276(5)
C13_5 C 0.0066(6) 0.9972(5) 0.9238(4)
C14_5 C 0.0385(6) 0.9504(5) 0.9329(5)
C15_5 C 0.0940(6) 0.9517(6) 0.9589(5)
H5_5 H 0.1152 0.9191 0.9660
C16_5 C 0.1202(6) 0.9996(5) 0.9754(4)
C18_5 C 0.0123(7) 0.8942(7) 0.9156(5)
C26_5 C 0.0353(6) 0.7342(5) 0.8903(5)
C27_5 C 0.0814(6) 0.6953(5) 0.8648(5)
C28_5 C 0.0816(6) 0.6892(5) 0.8089(5)
H10_5 H 0.0544 0.7102 0.7880
C29_5 C 0.1226(6) 0.6518(5) 0.7855(5)
C30_5 C 0.1640(7) 0.6228(6) 0.8177(6)
H11_5 H 0.1932 0.5985 0.8027
C31_5 C 0.1623(6) 0.6295(5) 0.8711(5)
C32_5 C 0.1222(6) 0.6656(5) 0.8958(5)
H12_5 H 0.1227 0.6697 0.9324
O7_3 O 0.0834(5) 0.6711(3) 0.7014(3)
O8_5 O 0.1650(5) 0.6141(4) 0.7065(4)
O15_5 O 0.0013(4) 0.7615(3) 0.8577(3)
C11_5 C 0.9971(6) 0.0999(5) 0.9315(5)
O3_5 O 0.9877(4) 0.2289(4) 0.8726(3)
O9_5 O 0.9537(4) 0.1004(3) 0.8970(3)
O20_3 O 0.9166(5) 0.1711(3) 0.7986(3)
Br3_5 Br 0.77189(8) 0.75531(8) 0.13553(6)
C23_5 C 0.7151(6) 0.7346(5) 0.0358(6)
H8_5 H 0.6828 0.7192 0.0562
C24_5 C 0.7673(6) 0.7567(5) 0.0615(5)
C25_5 C 0.8159(6) 0.7741(5) 0.0314(5)
H9_5 H 0.8528 0.7868 0.0479
C9_5 C 0.6540(6) 0.7092(5) 0.9544(6)
H4_5 H 0.9669 0.9964 0.9072
C19_5 C 0.8670(6) 0.7927(5) 0.9441(6)
C20_5 C 0.8134(6) 0.7740(5) 0.9769(5)
C21_5 C 0.7575(6) 0.7541(5) 0.9525(5)
H7_5 H 0.7544 0.7544 0.9157
C22_5 C 0.7082(6) 0.7343(5) 0.9818(5)
O11_5 O 0.9675(4) 0.8966(3) 0.8828(3)
O13_5 O 0.8604(4) 0.8008(4) 0.8943(4)
Zn1_3 Zn 0.94032(6) 0.82192(5) 0.86018(5)
O17_3 O 0.9323(4) 0.8223(3) 0.7835(3)
Br3_6 Br 0.72811(8) 0.24469(8) 0.63553(6)
Br4_6 Br 0.28009(10) 0.41054(8) 0.41481(7)
C9_6 C 0.8460(6) 0.2908(5) 0.4544(6)
C10_6 C 0.3771(7) 0.3566(6) 0.2276(5)
C13_6 C 0.4934(6) 0.0028(5) 0.4238(4)
H4_6 H 0.5331 0.0036 0.4072
C14_6 C 0.4615(6) 0.0496(5) 0.4329(5)
C15_6 C 0.4060(6) 0.0483(6) 0.4589(5)
H5_6 H 0.3848 0.0809 0.4660
C16_6 C 0.3798(6) 0.0004(5) 0.4754(4)
C18_6 C 0.4877(7) 0.1058(7) 0.4156(5)
C19_6 C 0.6330(6) 0.2073(5) 0.4441(6)
C20_6 C 0.6866(6) 0.2260(5) 0.4769(5)
C21_6 C 0.7425(6) 0.2459(5) 0.4525(5)
H7_6 H 0.7456 0.2456 0.4157
C22_6 C 0.7918(6) 0.2657(5) 0.4818(5)
C23_6 C 0.7849(6) 0.2654(5) 0.5358(6)
H8_6 H 0.8172 0.2808 0.5562
C24_6 C 0.7327(6) 0.2433(5) 0.5615(5)
C25_6 C 0.6841(6) 0.2259(5) 0.5314(5)
H9_6 H 0.6472 0.2132 0.5479
C26_6 C 0.4647(6) 0.2658(5) 0.3903(5)
C27_6 C 0.4186(6) 0.3047(5) 0.3648(5)
C28_6 C 0.4184(6) 0.3108(5) 0.3089(5)
H10_6 H 0.4456 0.2898 0.2880
C29_6 C 0.3774(6) 0.3482(5) 0.2855(5)
C30_6 C 0.3360(7) 0.3772(6) 0.3177(6)
H11_6 H 0.3068 0.4015 0.3027
C31_6 C 0.3377(6) 0.3705(5) 0.3711(5)
C32_6 C 0.3778(6) 0.3344(5) 0.3958(5)
H12_6 H 0.3773 0.3303 0.4324
O7_4 O 0.4166(5) 0.3289(3) 0.2014(3)
O8_6 O 0.3350(5) 0.3859(4) 0.2065(4)
O11_6 O 0.5325(4) 0.1034(3) 0.3828(3)
O13_6 O 0.6396(4) 0.1992(4) 0.3943(4)
O15_6 O 0.4987(4) 0.2385(3) 0.3577(3)
Zn1_4 Zn 0.55968(6) 0.17808(5) 0.36018(5)
O17_4 O 0.5677(4) 0.1777(3) 0.2835(3)
Br1_6 Br 0.31163(12) 0.58577(9) 0.43250(8)
Br2_6 Br 0.29954(7) 0.99957(6) 0.50981(6)
C1_6 C 0.3999(6) 0.6531(5) 0.3020(5)
C2_6 C 0.4419(5) 0.6911(5) 0.3259(5)
H1_6 H 0.4686 0.7122 0.3046
C3_6 C 0.4441(6) 0.6976(5) 0.3797(5)
C4_6 C 0.4056(7) 0.6659(6) 0.4101(5)
H2_6 H 0.4078 0.6685 0.4469
C5_6 C 0.3642(7) 0.6306(6) 0.3877(6)
C6_6 C 0.3617(7) 0.6230(5) 0.3349(6)
H3_6 H 0.3339 0.5971 0.3208
C7_6 C 0.3966(8) 0.6471(6) 0.2422(5)
C8_6 C 0.4850(6) 0.7394(5) 0.4041(6)
C11_6 C 0.5029(6) 0.9001(5) 0.4315(5)
C12_6 C 0.4678(5) 0.9546(5) 0.4391(4)
C17_6 C 0.4111(6) 0.9531(5) 0.4666(4)
H6_6 H 0.3947 0.9201 0.4789
O1_6 O 0.3599(5) 0.6128(5) 0.2239(4)
O2_4 O 0.4323(4) 0.6777(3) 0.2165(3)
O3_6 O 0.5123(4) 0.7711(4) 0.3726(3)
O4_6 O 0.4881(4) 0.7422(3) 0.4534(3)
O9_6 O 0.5463(4) 0.8996(3) 0.3970(3)
O10_6 O 0.4862(4) 0.8596(3) 0.4590(3)
O20_4 O 0.5834(5) 0.8289(3) 0.2986(3)
Zn4_4 Zn 0.44032(6) 0.67808(5) 0.13982(5)
Br1_7 Br 0.68837(12) 0.08577(9) 0.06750(8)
Br4_7 Br 0.71991(10) 0.91054(8) 0.08519(7)
C1_7 C 0.6001(6) 0.1531(5) 0.1980(5)
C2_7 C 0.5581(5) 0.1911(5) 0.1741(5)
H1_7 H 0.5314 0.2122 0.1954
C3_7 C 0.5559(6) 0.1976(5) 0.1203(5)
C4_7 C 0.5944(7) 0.1659(6) 0.0899(5)
H2_7 H 0.5922 0.1685 0.0531
C5_7 C 0.6358(7) 0.1306(6) 0.1123(6)
C6_7 C 0.6383(7) 0.1230(5) 0.1651(6)
H3_7 H 0.6661 0.0971 0.1792
C7_7 C 0.6034(8) 0.1471(6) 0.2578(5)
C8_7 C 0.5150(6) 0.2394(5) 0.0959(6)
C9_7 C 0.1540(6) 0.7908(5) 0.0456(6)
C10_7 C 0.6229(7) 0.8566(6) 0.2724(5)
C11_7 C 0.4971(6) 0.4001(5) 0.0685(5)
C12_7 C 0.5322(5) 0.4546(5) 0.0609(4)
C13_7 C 0.5066(6) 0.5028(5) 0.0762(4)
H4_7 H 0.4669 0.5036 0.0928
C14_7 C 0.5385(6) 0.5496(5) 0.0671(5)
C15_7 C 0.5940(6) 0.5483(6) 0.0411(5)
H5_7 H 0.6152 0.5809 0.0340
C16_7 C 0.6202(6) 0.5004(5) 0.0246(4)
C17_7 C 0.5889(6) 0.4531(5) 0.0334(4)
H6_7 H 0.6053 0.4201 0.0211
C18_7 C 0.5123(7) 0.6058(7) 0.0844(5)
C19_7 C 0.3670(6) 0.7073(5) 0.0559(6)
C20_7 C 0.3134(6) 0.7260(5) 0.0231(5)
C21_7 C 0.2575(6) 0.7459(5) 0.0475(5)
H7_7 H 0.2544 0.7456 0.0843
C22_7 C 0.2082(6) 0.7657(5) 0.0182(5)
C26_7 C 0.5353(6) 0.7658(5) 0.1097(5)
C27_7 C 0.5814(6) 0.8047(5) 0.1352(5)
C28_7 C 0.5816(6) 0.8108(5) 0.1911(5)
H10_7 H 0.5544 0.7898 0.2120
C29_7 C 0.6226(6) 0.8482(5) 0.2145(5)
C30_7 C 0.6640(7) 0.8772(6) 0.1823(6)
H11_7 H 0.6932 0.9015 0.1973
C31_7 C 0.6623(6) 0.8705(5) 0.1289(5)
C32_7 C 0.6222(6) 0.8344(5) 0.1042(5)
H12_7 H 0.6227 0.8303 0.0676
O1_7 O 0.6401(5) 0.1128(5) 0.2761(4)
O3_7 O 0.4877(4) 0.2711(4) 0.1274(3)
O4_7 O 0.5119(4) 0.2422(3) 0.0466(3)
O8_7 O 0.6650(5) 0.8859(4) 0.2935(4)
O9_7 O 0.4537(4) 0.3996(3) 0.1030(3)
O10_7 O 0.5138(4) 0.3596(3) 0.0410(3)
O11_7 O 0.4675(4) 0.6034(3) 0.1172(3)
O13_7 O 0.3604(4) 0.6992(4) 0.1057(4)
O15_7 O 0.5013(4) 0.7385(3) 0.1423(3)
Br2_7 Br 0.70046(7) 0.49957(6) 0.99019(6)
Br3_7 Br 0.27189(8) 0.74469(8) 0.86447(6)
C23_7 C 0.2151(6) 0.7654(5) 0.9642(6)
H8_7 H 0.1828 0.7808 0.9438
C24_7 C 0.2673(6) 0.7433(5) 0.9385(5)
C25_7 C 0.3159(6) 0.7259(5) 0.9686(5)
H9_7 H 0.3528 0.7132 0.9521
Br3_8 Br 0.22811(8) 0.25531(8) 0.36447(6)
C9_8 C 0.3460(6) 0.2092(5) 0.5456(6)
C11_8 C 0.0029(6) 0.5999(5) 0.5685(5)
H4_8 H 0.0331 0.4964 0.5928
C19_8 C 0.1330(6) 0.2927(5) 0.5559(6)
C20_8 C 0.1866(6) 0.2740(5) 0.5231(5)
C21_8 C 0.2425(6) 0.2541(5) 0.5475(5)
H7_8 H 0.2456 0.2544 0.5843
C22_8 C 0.2918(6) 0.2343(5) 0.5182(5)
C23_8 C 0.2849(6) 0.2346(5) 0.4642(6)
H8_8 H 0.3172 0.2192 0.4438
C24_8 C 0.2327(6) 0.2567(5) 0.4385(5)
C25_8 C 0.1841(6) 0.2741(5) 0.4686(5)
H9_8 H 0.1472 0.2868 0.4521
O3_8 O 0.0123(4) 0.7289(4) 0.6274(3)
O9_8 O 0.0463(4) 0.6004(3) 0.6030(3)
O11_8 O 0.0325(4) 0.3966(3) 0.6172(3)
O13_8 O 0.1396(4) 0.3008(4) 0.6057(4)
Br1_8 Br 0.81163(12) 0.91423(9) 0.56750(8)
Br2_8 Br 0.79954(7) 0.50043(6) 0.49019(6)
Br4_8 Br 0.78009(10) 0.08946(8) 0.58519(7)
C1_8 C 0.8999(6) 0.8469(5) 0.6980(5)
C2_8 C 0.9419(5) 0.8089(5) 0.6741(5)
H1_8 H 0.9686 0.7878 0.6954
C3_8 C 0.9441(6) 0.8024(5) 0.6203(5)
C4_8 C 0.9056(7) 0.8341(6) 0.5899(5)
H2_8 H 0.9078 0.8315 0.5531
C5_8 C 0.8642(7) 0.8694(6) 0.6123(6)
C6_8 C 0.8617(7) 0.8770(5) 0.6651(6)
H3_8 H 0.8339 0.9029 0.6792
C7_8 C 0.8966(8) 0.8529(6) 0.7578(5)
C8_8 C 0.9850(6) 0.7606(5) 0.5959(6)
C10_8 C 0.8771(7) 0.1434(6) 0.7724(5)
C12_8 C 0.9678(5) 0.5454(5) 0.5609(4)
C13_8 C 0.9934(6) 0.4972(5) 0.5762(4)
C14_8 C 0.9615(6) 0.4504(5) 0.5671(5)
C15_8 C 0.9060(6) 0.4517(6) 0.5411(5)
H5_8 H 0.8848 0.4191 0.5340
C16_8 C 0.8798(6) 0.4996(5) 0.5246(4)
C17_8 C 0.9111(6) 0.5469(5) 0.5334(4)
H6_8 H 0.8947 0.5799 0.5211
C18_8 C 0.9877(7) 0.3942(7) 0.5844(5)
C26_8 C 0.9647(6) 0.2342(5) 0.6097(5)
C27_8 C 0.9186(6) 0.1953(5) 0.6352(5)
C28_8 C 0.9184(6) 0.1892(5) 0.6911(5)
H10_8 H 0.9456 0.2102 0.7120
C29_8 C 0.8774(6) 0.1518(5) 0.7145(5)
C30_8 C 0.8360(7) 0.1228(6) 0.6823(6)
H11_8 H 0.8068 0.0985 0.6973
C31_8 C 0.8377(6) 0.1295(5) 0.6289(5)
C32_8 C 0.8778(6) 0.1656(5) 0.6042(5)
H12_8 H 0.8773 0.1697 0.5676
O1_8 O 0.8599(5) 0.8872(5) 0.7761(4)
O4_8 O 0.9881(4) 0.7578(3) 0.5466(3)
O8_8 O 0.8350(5) 0.1141(4) 0.7935(4)
O10_8 O 0.9862(4) 0.6404(3) 0.5410(3)
O15_8 O 0.9987(4) 0.2615(3) 0.6423(3)
loop_
_geom_bond_atom_site_label_1
_geom_bond_atom_site_label_2
_geom_bond_site_symmetry_1
_geom_bond_site_symmetry_2
C9 C22 1_555 1_555
C19 C20 1_555 1_555
C20 C21 1_555 1_555
C21 H7 1_555 1_555
C22 C21 1_555 1_555
O5 C9 1_555 1_555
O6 C9 1_555 1_555
O13 C19 1_555 1_555
O14 C19 1_555 1_555
Zn1 O11 1_555 1_555
O17 Zn1 1_555 1_555
Zn8 O5 1_555 1_555
O13 Zn1 1_555 1_555
Br3 C24 1_555 1_555
H8 C23 1_555 1_555
C24 C23 1_555 1_555
H9 C25 1_555 1_555
C24 C25 1_555 1_555
O9 C11 1_555 1_555
Zn3 O3 1_555 1_555
O18 Zn3 1_555 1_555
O20 Zn3 1_555 1_555
O9 Zn3 1_555 1_555
O21 Zn2 1_555 1_555
O23 Zn2 1_555 1_555
Br4 C31 1_555 1_555
C10 C29 1_555 1_555
C14 C13 1_555 1_555
C15 C14 1_555 1_555
H5 C15 1_555 1_555
C16 C15 1_555 1_555
C18 C14 1_555 1_555
C26 C27 1_555 1_555
C27 C28 1_555 1_555
C28 H10 1_555 1_555
C29 C28 1_555 1_555
C30 C29 1_555 1_555
H11 C30 1_555 1_555
C31 C30 1_555 1_555
C32 C27 1_555 1_555
H12 C32 1_555 1_555
O7 C10 1_555 1_555
O8 C10 1_555 1_555
O12 C18 1_555 1_555
O15 C26 1_555 1_555
O16 C26 1_555 1_555
Zn5 O12 1_555 1_555
Zn7 O7 1_555 1_555
C31 C32 1_555 1_555
O16 Zn5 1_555 1_555
Br1 C5 1_555 1_555
C1 C2 1_555 1_555
C2 H1 1_555 1_555
C3 C2 1_555 1_555
C4 C3 1_555 1_555
H2 C4 1_555 1_555
C5 C4 1_555 1_555
C6 C1 1_555 1_555
H3 C6 1_555 1_555
C7 C1 1_555 1_555
C8 C3 1_555 1_555
C17 C12 1_555 1_555
H6 C17 1_555 1_555
O1 C7 1_555 1_555
O2 C7 1_555 1_555
O4 C8 1_555 1_555
Zn4 O2 1_555 1_555
C5 C6 1_555 1_555
Br1_2 C5_2 1_555 1_555
C1_2 C2_2 1_555 1_555
C2_2 H1_2 1_555 1_555
C3_2 C2_2 1_555 1_555
C4_2 C3_2 1_555 1_555
H2_2 C4_2 1_555 1_555
C5_2 C4_2 1_555 1_555
C6_2 C1_2 1_555 1_555
H3_2 C6_2 1_555 1_555
C7_2 C1_2 1_555 1_555
C8_2 C3_2 1_555 1_555
C11_2 C12_2 1_555 1_555
C17_2 C12_2 1_555 1_555
H6_2 C17_2 1_555 1_555
O1_2 C7_2 1_555 1_555
O2_2 C7_2 1_555 1_555
O3_2 C8_2 1_555 1_555
O4_2 C8_2 1_555 1_555
O9_2 C11_2 1_555 1_555
O10_2 C11_2 1_555 1_555
Zn2_2 O4_2 1_555 1_555
Zn3_2 O3_2 1_555 1_555
O18_2 Zn3_2 1_555 1_555
O19_2 Zn2_2 1_555 1_555
O20_2 Zn3_2 1_555 1_555
O21_2 Zn2_2 1_555 1_555
O22_2 Zn2_2 1_555 1_555
O23_2 Zn2_2 1_555 1_555
Zn4_2 O2_2 1_555 1_555
C5_2 C6_2 1_555 1_555
O9_2 Zn3_2 1_555 1_555
O10_2 Zn2_2 1_555 1_555
Br3_2 C24_2 1_555 1_555
Br4_2 C31_2 1_555 1_555
C9_2 C22_2 1_555 1_555
C10_2 C29_2 1_555 1_555
C13_2 H4_2 1_555 1_555
C14_2 C13_2 1_555 1_555
C15_2 C14_2 1_555 1_555
H5_2 C15_2 1_555 1_555
C16_2 C15_2 1_555 1_555
C18_2 C14_2 1_555 1_555
C19_2 C20_2 1_555 1_555
C20_2 C21_2 1_555 1_555
C21_2 H7_2 1_555 1_555
C22_2 C21_2 1_555 1_555
C23_2 C22_2 1_555 1_555
H8_2 C23_2 1_555 1_555
C24_2 C23_2 1_555 1_555
C25_2 C20_2 1_555 1_555
H9_2 C25_2 1_555 1_555
C26_2 C27_2 1_555 1_555
C27_2 C28_2 1_555 1_555
C28_2 H10_2 1_555 1_555
C29_2 C28_2 1_555 1_555
C30_2 C29_2 1_555 1_555
H11_2 C30_2 1_555 1_555
C31_2 C30_2 1_555 1_555
C32_2 C27_2 1_555 1_555
H12_2 C32_2 1_555 1_555
O5_2 C9_2 1_555 1_555
O6_2 C9_2 1_555 1_555
O7_2 C10_2 1_555 1_555
O8_2 C10_2 1_555 1_555
O11_2 C18_2 1_555 1_555
O12_2 C18_2 1_555 1_555
O13_2 C19_2 1_555 1_555
O14_2 C19_2 1_555 1_555
O15_2 C26_2 1_555 1_555
O16_2 C26_2 1_555 1_555
Zn1_2 O11_2 1_555 1_555
O17_2 Zn1_2 1_555 1_555
Zn5_2 O12_2 1_555 1_555
Zn6_2 O6_2 1_555 1_555
Zn7_2 O7_2 1_555 1_555
Zn8_2 O5_2 1_555 1_555
C24_2 C25_2 1_555 1_555
C31_2 C32_2 1_555 1_555
O13_2 Zn1_2 1_555 1_555
O14_2 Zn5_2 1_555 1_555
O15_2 Zn1_2 1_555 1_555
O16_2 Zn5_2 1_555 1_555
Br3_3 C24_3 1_555 1_555
H8_3 C23_3 1_555 1_555
C24_3 C23_3 1_555 1_555
H9_3 C25_3 1_555 1_555
O21_3 Zn2_3 1_555 1_555
O22_3 Zn2_3 1_555 1_555
O23_3 Zn2_3 1_555 1_555
C24_3 C25_3 1_555 1_555
Br1_3 C5_3 1_555 1_555
Br4_3 C31_3 1_555 1_555
C1_3 C2_3 1_555 1_555
C2_3 H1_3 1_555 1_555
C3_3 C2_3 1_555 1_555
C4_3 C3_3 1_555 1_555
H2_3 C4_3 1_555 1_555
C5_3 C4_3 1_555 1_555
C6_3 C1_3 1_555 1_555
H3_3 C6_3 1_555 1_555
C7_3 C1_3 1_555 1_555
C8_3 C3_3 1_555 1_555
C9_3 C22_3 1_555 1_555
C10_3 C29_3 1_555 1_555
C11_3 C12_3 1_555 1_555
C12_3 C13_3 1_555 1_555
C13_3 H4_3 1_555 1_555
C14_3 C13_3 1_555 1_555
C15_3 C14_3 1_555 1_555
H5_3 C15_3 1_555 1_555
C16_3 C15_3 1_555 1_555
C17_3 C12_3 1_555 1_555
H6_3 C17_3 1_555 1_555
C18_3 C14_3 1_555 1_555
C19_3 C20_3 1_555 1_555
C20_3 C21_3 1_555 1_555
C21_3 H7_3 1_555 1_555
C22_3 C21_3 1_555 1_555
C26_3 C27_3 1_555 1_555
C27_3 C28_3 1_555 1_555
C28_3 H10_3 1_555 1_555
C29_3 C28_3 1_555 1_555
C30_3 C29_3 1_555 1_555
H11_3 C30_3 1_555 1_555
C31_3 C30_3 1_555 1_555
C32_3 C27_3 1_555 1_555
H12_3 C32_3 1_555 1_555
O1_3 C7_3 1_555 1_555
O17_2 C7_3 1_555 1_555
O3_3 C8_3 1_555 1_555
O4_3 C8_3 1_555 1_555
O5_3 C9_3 1_555 1_555
O6_3 C9_3 1_555 1_555
O20_2 C10_3 1_555 1_555
O8_3 C10_3 1_555 1_555
O9_3 C11_3 1_555 1_555
O10_3 C11_3 1_555 1_555
O11_3 C18_3 1_555 1_555
O12_3 C18_3 1_555 1_555
O13_3 C19_3 1_555 1_555
O14_3 C19_3 1_555 1_555
O15_3 C26_3 1_555 1_555
O16_3 C26_3 1_555 1_555
Zn4_2 O11_3 1_555 1_555
Zn7_2 O3_3 1_555 1_555
O18_3 Zn7_2 1_555 1_555
Zn6 O12_3 1_555 1_555
Zn8_3 O5_3 1_555 1_555
C5_3 C6_3 1_555 1_555
C16_3 C17_3 1_555 1_555
C31_3 C32_3 1_555 1_555
O9_3 Zn7_2 1_555 1_555
O13_3 Zn4_2 1_555 1_555
O14_3 Zn6 1_555 1_555
O15_3 Zn4_2 1_555 1_555
O16_3 Zn6 1_555 1_555
Br1_4 C5_4 1_555 1_555
Br2_4 C16_4 1_555 1_555
Br4_4 C31_4 1_555 1_555
C1_4 C2_4 1_555 1_555
C2_4 H1_4 1_555 1_555
C3_4 C2_4 1_555 1_555
C4_4 C3_4 1_555 1_555
H2_4 C4_4 1_555 1_555
C5_4 C4_4 1_555 1_555
C6_4 C1_4 1_555 1_555
H3_4 C6_4 1_555 1_555
C7_4 C1_4 1_555 1_555
C8_4 C3_4 1_555 1_555
C10_4 C29_4 1_555 1_555
C12_4 C13_4 1_555 1_555
C14_4 C13_4 1_555 1_555
C15_4 C14_4 1_555 1_555
H5_4 C15_4 1_555 1_555
C16_4 C15_4 1_555 1_555
C17_4 C12_4 1_555 1_555
H6_4 C17_4 1_555 1_555
C18_4 C14_4 1_555 1_555
C26_4 C27_4 1_555 1_555
C27_4 C28_4 1_555 1_555
C28_4 H10_4 1_555 1_555
C29_4 C28_4 1_555 1_555
C30_4 C29_4 1_555 1_555
H11_4 C30_4 1_555 1_555
C31_4 C30_4 1_555 1_555
C32_4 C27_4 1_555 1_555
H12_4 C32_4 1_555 1_555
O1_4 C7_4 1_555 1_555
O17 C7_4 1_555 1_555
O4_4 C8_4 1_555 1_555
O20 C10_4 1_555 1_555
O8_4 C10_4 1_555 1_555
O12_4 C18_4 1_555 1_555
O15_4 C26_4 1_555 1_555
O16_4 C26_4 1_555 1_555
Zn6_2 O12_4 1_555 1_555
C5_4 C6_4 1_555 1_555
C16_4 C17_4 1_555 1_555
C31_4 C32_4 1_555 1_555
O16_4 Zn6_2 1_555 1_555
Br3_4 C24_4 1_555 1_555
C9_4 C22_4 1_555 1_555
C19_4 C20_4 1_555 1_555
C20_4 C21_4 1_555 1_555
C21_4 H7_4 1_555 1_555
C22_4 C21_4 1_555 1_555
C23_4 C22_4 1_555 1_555
H8_4 C23_4 1_555 1_555
C24_4 C23_4 1_555 1_555
C25_4 C20_4 1_555 1_555
H9_4 C25_4 1_555 1_555
O5_4 C9_4 1_555 1_555
O6_4 C9_4 1_555 1_555
O9_4 C11_4 1_555 1_555
O13_4 C19_4 1_555 1_555
O14_4 C19_4 1_555 1_555
Zn4 O11_4 1_555 1_555
Zn7 O3_4 1_555 1_555
O18_4 Zn7 1_555 1_555
O19_4 Zn2_4 1_555 1_555
O21_4 Zn2_4 1_555 1_555
O23_4 Zn2_4 1_555 1_555
Zn5_2 O6_4 1_555 1_555
Zn8_4 O5_4 1_555 1_555
C24_4 C25_4 1_555 1_555
O9_4 Zn7 1_555 1_555
O13_4 Zn4 1_555 1_555
Br1_5 C5_5 1_555 1_555
C1_5 C2_5 1_555 1_555
C2_5 H1_5 1_555 1_555
C3_5 C2_5 1_555 1_555
C4_5 C3_5 1_555 1_555
H2_5 C4_5 1_555 1_555
C5_5 C4_5 1_555 1_555
C6_5 C1_5 1_555 1_555
H3_5 C6_5 1_555 1_555
C7_5 C1_5 1_555 1_555
C8_5 C3_5 1_555 1_555
C17_5 C12_5 1_555 1_555
H6_5 C17_5 1_555 1_555
O1_5 C7_5 1_555 1_555
O2_3 C7_5 1_555 1_555
O4_5 C8_5 1_555 1_555
Zn4_3 O2_3 1_555 1_555
C5_5 C6_5 1_555 1_555
Br4_5 C31_5 1_555 1_555
C10_5 C29_5 1_555 1_555
C14_5 C13_5 1_555 1_555
C15_5 C14_5 1_555 1_555
H5_5 C15_5 1_555 1_555
C16_5 C15_5 1_555 1_555
C18_5 C14_5 1_555 1_555
C26_5 C27_5 1_555 1_555
C27_5 C28_5 1_555 1_555
C28_5 H10_5 1_555 1_555
C29_5 C28_5 1_555 1_555
C30_5 C29_5 1_555 1_555
H11_5 C30_5 1_555 1_555
C31_5 C30_5 1_555 1_555
C32_5 C27_5 1_555 1_555
H12_5 C32_5 1_555 1_555
O7_3 C10_5 1_555 1_555
O8_5 C10_5 1_555 1_555
O21 C18_5 1_555 1_555
O15_5 C26_5 1_555 1_555
O23 C26_5 1_555 1_555
Zn8_2 O7_3 1_555 1_555
C31_5 C32_5 1_555 1_555
O9_5 C11_5 1_555 1_555
Zn8_3 O3_5 1_555 1_555
O20_3 Zn8_3 1_555 1_555
O9_5 Zn8_3 1_555 1_555
Br3_5 C24_5 1_555 1_555
H8_5 C23_5 1_555 1_555
C24_5 C23_5 1_555 1_555
H9_5 C25_5 1_555 1_555
C24_5 C25_5 1_555 1_555
C9_5 C22_5 1_555 1_555
C19_5 C20_5 1_555 1_555
C20_5 C21_5 1_555 1_555
C21_5 H7_5 1_555 1_555
C22_5 C21_5 1_555 1_555
O18_3 C9_5 1_555 1_555
O19_3 C9_5 1_555 1_555
O13_5 C19_5 1_555 1_555
O22 C19_5 1_555 1_555
Zn1_3 O11_5 1_555 1_555
O17_3 Zn1_3 1_555 1_555
O13_5 Zn1_3 1_555 1_555
Br3_6 C24_6 1_555 1_555
Br4_6 C31_6 1_555 1_555
C9_6 C22_6 1_555 1_555
C10_6 C29_6 1_555 1_555
C13_6 H4_6 1_555 1_555
C14_6 C13_6 1_555 1_555
C15_6 C14_6 1_555 1_555
H5_6 C15_6 1_555 1_555
C16_6 C15_6 1_555 1_555
C18_6 C14_6 1_555 1_555
C19_6 C20_6 1_555 1_555
C20_6 C21_6 1_555 1_555
C21_6 H7_6 1_555 1_555
C22_6 C21_6 1_555 1_555
C23_6 C22_6 1_555 1_555
H8_6 C23_6 1_555 1_555
C24_6 C23_6 1_555 1_555
C25_6 C20_6 1_555 1_555
H9_6 C25_6 1_555 1_555
C26_6 C27_6 1_555 1_555
C27_6 C28_6 1_555 1_555
C28_6 H10_6 1_555 1_555
C29_6 C28_6 1_555 1_555
C30_6 C29_6 1_555 1_555
H11_6 C30_6 1_555 1_555
C31_6 C30_6 1_555 1_555
C32_6 C27_6 1_555 1_555
H12_6 C32_6 1_555 1_555
O18_4 C9_6 1_555 1_555
O19_4 C9_6 1_555 1_555
O7_4 C10_6 1_555 1_555
O8_6 C10_6 1_555 1_555
O11_6 C18_6 1_555 1_555
O21_2 C18_6 1_555 1_555
O13_6 C19_6 1_555 1_555
O22_2 C19_6 1_555 1_555
O15_6 C26_6 1_555 1_555
O23_2 C26_6 1_555 1_555
Zn1_4 O11_6 1_555 1_555
O17_4 Zn1_4 1_555 1_555
Zn8 O7_4 1_555 1_555
C24_6 C25_6 1_555 1_555
C31_6 C32_6 1_555 1_555
O13_6 Zn1_4 1_555 1_555
O15_6 Zn1_4 1_555 1_555
Br1_6 C5_6 1_555 1_555
C1_6 C2_6 1_555 1_555
C2_6 H1_6 1_555 1_555
C3_6 C2_6 1_555 1_555
C4_6 C3_6 1_555 1_555
H2_6 C4_6 1_555 1_555
C5_6 C4_6 1_555 1_555
C6_6 C1_6 1_555 1_555
H3_6 C6_6 1_555 1_555
C7_6 C1_6 1_555 1_555
C8_6 C3_6 1_555 1_555
C11_6 C12_6 1_555 1_555
C17_6 C12_6 1_555 1_555
H6_6 C17_6 1_555 1_555
O1_6 C7_6 1_555 1_555
O2_4 C7_6 1_555 1_555
O3_6 C8_6 1_555 1_555
O4_6 C8_6 1_555 1_555
O9_6 C11_6 1_555 1_555
O10_6 C11_6 1_555 1_555
Zn5_2 O4_6 1_555 1_555
Zn8_4 O3_6 1_555 1_555
O20_4 Zn8_4 1_555 1_555
Zn4_4 O2_4 1_555 1_555
C5_6 C6_6 1_555 1_555
O9_6 Zn8_4 1_555 1_555
O10_6 Zn5_2 1_555 1_555
Br1_7 C5_7 1_555 1_555
Br4_7 C31_7 1_555 1_555
C1_7 C2_7 1_555 1_555
C2_7 H1_7 1_555 1_555
C3_7 C2_7 1_555 1_555
C4_7 C3_7 1_555 1_555
H2_7 C4_7 1_555 1_555
C5_7 C4_7 1_555 1_555
C6_7 C1_7 1_555 1_555
H3_7 C6_7 1_555 1_555
C7_7 C1_7 1_555 1_555
C8_7 C3_7 1_555 1_555
C9_7 C22_7 1_555 1_555
C10_7 C29_7 1_555 1_555
C11_7 C12_7 1_555 1_555
C12_7 C13_7 1_555 1_555
C13_7 H4_7 1_555 1_555
C14_7 C13_7 1_555 1_555
C15_7 C14_7 1_555 1_555
H5_7 C15_7 1_555 1_555
C16_7 C15_7 1_555 1_555
C17_7 C12_7 1_555 1_555
H6_7 C17_7 1_555 1_555
C18_7 C14_7 1_555 1_555
C19_7 C20_7 1_555 1_555
C20_7 C21_7 1_555 1_555
C21_7 H7_7 1_555 1_555
C22_7 C21_7 1_555 1_555
C26_7 C27_7 1_555 1_555
C27_7 C28_7 1_555 1_555
C28_7 H10_7 1_555 1_555
C29_7 C28_7 1_555 1_555
C30_7 C29_7 1_555 1_555
H11_7 C30_7 1_555 1_555
C31_7 C30_7 1_555 1_555
C32_7 C27_7 1_555 1_555
H12_7 C32_7 1_555 1_555
O1_7 C7_7 1_555 1_555
O17_4 C7_7 1_555 1_555
O3_7 C8_7 1_555 1_555
O4_7 C8_7 1_555 1_555
O18 C9_7 1_555 1_555
O19 C9_7 1_555 1_555
O20_4 C10_7 1_555 1_555
O8_7 C10_7 1_555 1_555
O9_7 C11_7 1_555 1_555
O10_7 C11_7 1_555 1_555
O11_7 C18_7 1_555 1_555
O21_3 C18_7 1_555 1_555
O13_7 C19_7 1_555 1_555
O22_3 C19_7 1_555 1_555
O15_7 C26_7 1_555 1_555
O23_3 C26_7 1_555 1_555
Zn4_4 O11_7 1_555 1_555
Zn8 O3_7 1_555 1_555
C5_7 C6_7 1_555 1_555
C16_7 C17_7 1_555 1_555
C31_7 C32_7 1_555 1_555
O9_7 Zn8 1_555 1_555
O13_7 Zn4_4 1_555 1_555
O15_7 Zn4_4 1_555 1_555
Br3_7 C24_7 1_555 1_555
H8_7 C23_7 1_555 1_555
C24_7 C23_7 1_555 1_555
H9_7 C25_7 1_555 1_555
C24_7 C25_7 1_555 1_555
Br3_8 C24_8 1_555 1_555
C9_8 C22_8 1_555 1_555
C19_8 C20_8 1_555 1_555
C20_8 C21_8 1_555 1_555
C21_8 H7_8 1_555 1_555
C22_8 C21_8 1_555 1_555
C23_8 C22_8 1_555 1_555
H8_8 C23_8 1_555 1_555
C24_8 C23_8 1_555 1_555
C25_8 C20_8 1_555 1_555
H9_8 C25_8 1_555 1_555
O18_2 C9_8 1_555 1_555
O19_2 C9_8 1_555 1_555
O9_8 C11_8 1_555 1_555
O13_8 C19_8 1_555 1_555
O22_4 C19_8 1_555 1_555
Zn4_3 O11_8 1_555 1_555
Zn8_2 O3_8 1_555 1_555
C24_8 C25_8 1_555 1_555
O9_8 Zn8_2 1_555 1_555
O13_8 Zn4_3 1_555 1_555
Br1_8 C5_8 1_555 1_555
Br2_8 C16_8 1_555 1_555
Br4_8 C31_8 1_555 1_555
C1_8 C2_8 1_555 1_555
C2_8 H1_8 1_555 1_555
C3_8 C2_8 1_555 1_555
C4_8 C3_8 1_555 1_555
H2_8 C4_8 1_555 1_555
C5_8 C4_8 1_555 1_555
C6_8 C1_8 1_555 1_555
H3_8 C6_8 1_555 1_555
C7_8 C1_8 1_555 1_555
C8_8 C3_8 1_555 1_555
C10_8 C29_8 1_555 1_555
C12_8 C13_8 1_555 1_555
C14_8 C13_8 1_555 1_555
C15_8 C14_8 1_555 1_555
H5_8 C15_8 1_555 1_555
C16_8 C15_8 1_555 1_555
C17_8 C12_8 1_555 1_555
H6_8 C17_8 1_555 1_555
C18_8 C14_8 1_555 1_555
C26_8 C27_8 1_555 1_555
C27_8 C28_8 1_555 1_555
C28_8 H10_8 1_555 1_555
C29_8 C28_8 1_555 1_555
C30_8 C29_8 1_555 1_555
H11_8 C30_8 1_555 1_555
C31_8 C30_8 1_555 1_555
C32_8 C27_8 1_555 1_555
H12_8 C32_8 1_555 1_555
O1_8 C7_8 1_555 1_555
O17_3 C7_8 1_555 1_555
O4_8 C8_8 1_555 1_555
O20_3 C10_8 1_555 1_555
O8_8 C10_8 1_555 1_555
O21_4 C18_8 1_555 1_555
O15_8 C26_8 1_555 1_555
O23_4 C26_8 1_555 1_555
C5_8 C6_8 1_555 1_555
C16_8 C17_8 1_555 1_555
C31_8 C32_8 1_555 1_555

#END
