
###############################################################################
#
# This file contains modified crystal structure data generated from the
# MOF subset of the Cambridge Structural Database (CSD) v543 
# hosted by the Cambridge Crystallographic Data Centre (CCDC).
#
# This work is licensed under the Creative Commons
# Attribution-NonCommercial-ShareAlike 4.0 International License.
# To view a copy of this license, visit
# http://creativecommons.org/licenses/by-nc-sa/4.0/
# or send a letter to
# Creative Commons, PO Box 1866, Mountain View, CA 94042, USA.
#
# CIF created using the CSD Python API on 29 September 2022
# The structure has been converted into the P1 space group
# The structure has a 3D framework
# The original CSD entry NAGQET is in the triclinic crystal system
# The framework has been calculated to contain at least 10.0% void space
# The void calculation uses a probe of radius 1.32A, grid spacing 0.4
#
###############################################################################

data_NAGQET
_chemical_formula_moiety         '(C72 H48 Co7 N30)n'
_symmetry_cell_setting           triclinic
_symmetry_space_group_name_H-M   'P 1'
_symmetry_Int_Tables_number      1
_space_group_name_Hall           'P 1'
loop_
_symmetry_equiv_pos_site_id
_symmetry_equiv_pos_as_xyz
1 x,y,z
_cell_length_a                   9.1985(9)
_cell_length_b                   15.9576(15)
_cell_length_c                   16.0966(16)
_cell_angle_alpha                73.1710(10)
_cell_angle_beta                 74.4400(10)
_cell_angle_gamma                76.392(2)
_cell_volume                     2146.62
loop_
_atom_site_label
_atom_site_type_symbol
_atom_site_fract_x
_atom_site_fract_y
_atom_site_fract_z
Co4 Co -0.0000 -0.0000 0.5000
N26 N 0.0467(4) 0.0518(3) 0.5982(3)
C53 C 0.0870(7) 0.1009(4) 0.7412(4)
H34 H 0.1015 0.1171 0.7891
C54 C 0.1544(6) 0.1405(4) 0.6547(4)
H35 H 0.2143 0.1837 0.6435
C55 C 0.1306(6) 0.1145(4) 0.5868(4)
H36 H 0.1750 0.1416 0.5290
H1 H 0.0261 0.3241 0.9702
H2 H 0.0372 0.2689 0.8487
Co4_2 Co -0.0000 1.0000 0.5000
Co1 Co 0.5000 0.5000 0.0000
Co3 Co 1.0000 0.5000 0.5000
N1 N 0.6642(5) 0.4884(3) 0.0685(3)
N2 N 0.6750(5) 0.5168(3) 0.1378(3)
N3 N 0.8893(5) 0.4195(3) 0.1009(3)
N5 N 0.9559(5) 0.4970(3) 0.3754(3)
N6 N 0.1270(5) 0.0682(3) 0.3836(3)
N7 N 0.2041(5) 0.1387(3) 0.3568(3)
N8 N 0.1657(5) 0.1095(3) 0.2354(3)
N10 N 0.4173(5) 0.3836(3) 0.0960(3)
C1 C 0.8122(6) 0.4740(4) 0.1541(3)
C2 C 0.7923(6) 0.4325(4) 0.0477(4)
C8 C 0.8568(6) 0.5609(4) 0.3354(4)
H5 H 0.8173 0.6112 0.3578
C9 C 0.8102(6) 0.5561(4) 0.2631(4)
H6 H 0.7404 0.6022 0.2377
C10 C 0.8670(6) 0.4831(4) 0.2283(4)
C11 C 0.9731(7) 0.4183(4) 0.2671(4)
C13 C 0.2239(6) 0.1608(3) 0.2683(4)
C14 C 0.1068(6) 0.0535(3) 0.3099(4)
C20 C 0.3635(8) 0.3298(4) 0.0666(4)
H13 H 0.3671 0.3423 0.0060
C21 C 0.3035(8) 0.2576(4) 0.1202(4)
H14 H 0.2679 0.2223 0.0958
C22 C 0.2949(6) 0.2363(3) 0.2099(3)
C23 C 0.3506(6) 0.2913(4) 0.2410(3)
H15 H 0.3480 0.2797 0.3014
C24 C 0.4104(6) 0.3635(4) 0.1835(3)
H16 H 0.4473 0.3997 0.2062
N19 N 0.3125(5) 0.5849(3) 0.0634(3)
N31 N 0.7831(5) 0.5854(3) 0.5257(3)
N36 N 0.8520(5) 0.4057(3) 0.5676(3)
C39 C 0.1887(7) 0.6070(4) 0.0261(4)
C40 C 0.0569(7) 0.6614(5) 0.0570(5)
C41 C 0.0501(9) 0.6941(5) 0.1292(5)
C42 C 0.1747(9) 0.6707(5) 0.1669(5)
H27 H 0.1724 0.6915 0.2156
C43 C 0.3030(8) 0.6168(4) 0.1335(4)
H28 H 0.3865 0.6018 0.1603
C15 C 0.0198(6) 0.9863(3) 0.3169(4)
C16 C 0.0015(7) 0.9626(4) 0.2451(4)
H9 H 0.0486 0.9892 0.1878
N32 N 0.7145(5) 0.6724(3) 0.5092(3)
N33 N 0.5317(5) 0.5874(3) 0.5800(3)
N37 N 0.1959(4) 0.8897(3) 0.5170(3)
C61 C 0.5648(6) 0.6705(4) 0.5429(3)
C62 C 0.6714(6) 0.5382(4) 0.5679(3)
C63 C 0.7043(6) 0.4413(4) 0.5918(4)
C64 C 0.5932(7) 0.3896(4) 0.6336(5)
H41 H 0.4913 0.4159 0.6486
C65 C 0.6341(8) 0.2986(4) 0.6533(5)
H42 H 0.5607 0.2624 0.6821
C66 C 0.7862(7) 0.2621(4) 0.6294(4)
H43 H 0.8174 0.2008 0.6422
C67 C 0.8898(7) 0.3173(4) 0.5867(4)
H44 H 0.9920 0.2923 0.5701
C68 C 0.3422(6) 0.9014(4) 0.4869(4)
H45 H 0.3620 0.9585 0.4588
C69 C 0.4635(6) 0.8336(4) 0.4955(4)
H46 H 0.5626 0.8458 0.4737
C70 C 0.4419(6) 0.7483(3) 0.5356(4)
C71 C 0.2912(6) 0.7359(4) 0.5686(4)
H47 H 0.2687 0.6795 0.5979
C72 C 0.1752(6) 0.8074(4) 0.5576(4)
H48 H 0.0751 0.7971 0.5804
H31 H 0.9825 0.6312 0.7559
C48 C 0.9866(7) 0.5728(4) 0.6598(4)
H32 H 0.9158 0.6177 0.6339
Co3_2 Co -0.0000 0.5000 0.5000
H7 H 0.0175 0.3688 0.2441
C12 C 0.0134(7) 0.4272(4) 0.3402(4)
H8 H 0.0842 0.3823 0.3661
N21 N 0.0441(5) 0.5030(3) 0.6246(3)
N30 N 0.2169(5) 0.4146(3) 0.4743(3)
N35 N 0.1480(5) 0.5943(3) 0.4324(3)
Co4_3 Co 1.0000 -0.0000 0.5000
C51 C 0.9802(6) 0.0137(3) 0.6831(4)
C52 C 0.9985(7) 0.0374(4) 0.7549(4)
H33 H 0.9514 0.0108 0.8122
Co1_2 Co 0.5000 0.5000 1.0000
N4 N 0.6875(5) 0.4151(3) 0.9366(3)
C3 C 0.8113(7) 0.3930(4) 0.9739(4)
C4 C 0.9431(7) 0.3386(5) 0.9430(5)
C5 C 0.9499(9) 0.3059(5) 0.8708(5)
C6 C 0.8253(9) 0.3293(5) 0.8331(5)
H3 H 0.8276 0.3085 0.7844
C7 C 0.6970(8) 0.3832(4) 0.8665(4)
H4 H 0.6135 0.3982 0.8397
Co4_4 Co 1.0000 1.0000 0.5000
N16 N 0.3358(5) 0.5116(3) 0.9315(3)
N17 N 0.3250(5) 0.4832(3) 0.8622(3)
N18 N 0.1107(5) 0.5805(3) 0.8991(3)
N22 N 0.8730(5) 0.9318(3) 0.6164(3)
N24 N 0.7959(5) 0.8613(3) 0.6432(3)
N25 N 0.8343(5) 0.8905(3) 0.7646(3)
N28 N 0.5827(5) 0.6164(3) 0.9040(3)
C37 C 0.1878(6) 0.5260(4) 0.8459(3)
C38 C 0.2077(6) 0.5675(4) 0.9523(4)
C44 C 0.1432(6) 0.4391(4) 0.6646(4)
H29 H 0.1827 0.3888 0.6422
C45 C 0.1898(6) 0.4439(4) 0.7369(4)
H30 H 0.2596 0.3978 0.7623
C46 C 0.1330(6) 0.5169(4) 0.7717(4)
C47 C 0.0269(7) 0.5817(4) 0.7329(4)
C49 C 0.7761(6) 0.8392(3) 0.7317(4)
C50 C 0.8932(6) 0.9465(3) 0.6901(4)
C56 C 0.6365(8) 0.6702(4) 0.9334(4)
H37 H 0.6329 0.6577 0.9940
C57 C 0.6965(8) 0.7424(4) 0.8798(4)
H38 H 0.7321 0.7777 0.9042
C58 C 0.7051(6) 0.7637(3) 0.7901(3)
C59 C 0.6494(6) 0.7087(4) 0.7590(3)
H39 H 0.6520 0.7203 0.6986
C60 C 0.5896(6) 0.6365(4) 0.8165(3)
H40 H 0.5527 0.6003 0.7938
N12 N 0.2855(5) 0.3276(3) 0.4908(3)
N13 N 0.4683(5) 0.4126(3) 0.4200(3)
N15 N 0.8041(4) 0.1103(3) 0.4830(3)
C25 C 0.4352(6) 0.3295(4) 0.4571(3)
C26 C 0.3286(6) 0.4618(4) 0.4321(3)
C27 C 0.2957(6) 0.5587(4) 0.4082(4)
C28 C 0.4068(7) 0.6104(4) 0.3664(5)
H17 H 0.5087 0.5841 0.3514
C29 C 0.3659(8) 0.7014(4) 0.3467(5)
H18 H 0.4393 0.7376 0.3179
C30 C 0.2138(7) 0.7379(4) 0.3706(4)
H19 H 0.1826 0.7992 0.3578
C31 C 0.1102(7) 0.6827(4) 0.4133(4)
H20 H 0.0080 0.7077 0.4299
C32 C 0.6578(6) 0.0986(4) 0.5131(4)
H21 H 0.6380 0.0415 0.5412
C33 C 0.5365(6) 0.1664(4) 0.5045(4)
H22 H 0.4374 0.1542 0.5263
C34 C 0.5581(6) 0.2517(3) 0.4644(4)
C35 C 0.7088(6) 0.2641(4) 0.4314(4)
H23 H 0.7313 0.3205 0.4021
C36 C 0.8248(6) 0.1926(4) 0.4424(4)
H24 H 0.9249 0.2029 0.4196
H25 H 0.9739 0.6759 0.0298
H26 H 0.9628 0.7311 0.1513
N9 N 0.9533(4) 0.9482(3) 0.4018(3)
C17 C 0.9130(7) 0.8991(4) 0.2588(4)
H10 H 0.8985 0.8829 0.2109
C18 C 0.8456(6) 0.8595(4) 0.3453(4)
H11 H 0.7857 0.8163 0.3565
C19 C 0.8694(6) 0.8855(4) 0.4132(4)
H12 H 0.8250 0.8584 0.4710
loop_
_geom_bond_atom_site_label_1
_geom_bond_atom_site_label_2
_geom_bond_site_symmetry_1
_geom_bond_site_symmetry_2
N26 Co4 1_555 1_555
H34 C53 1_555 1_555
C54 C53 1_555 1_555
H35 C54 1_555 1_555
C55 N26 1_555 1_555
H36 C55 1_555 1_555
C54 C55 1_555 1_555
Co1 N1 1_555 1_555
Co4 N6 1_555 1_555
Co3 N5 1_555 1_555
N1 N2 1_555 1_555
N2 C1 1_555 1_555
N3 C1 1_555 1_555
N5 C8 1_555 1_555
N6 N7 1_555 1_555
N7 C13 1_555 1_555
N8 C13 1_555 1_555
N10 Co1 1_555 1_555
C1 C10 1_555 1_555
C2 N1 1_555 1_555
C8 H5 1_555 1_555
C9 C8 1_555 1_555
H6 C9 1_555 1_555
C10 C9 1_555 1_555
C11 C10 1_555 1_555
C13 C22 1_555 1_555
C14 N6 1_555 1_555
C20 N10 1_555 1_555
H13 C20 1_555 1_555
C21 C20 1_555 1_555
H14 C21 1_555 1_555
C22 C21 1_555 1_555
C23 C22 1_555 1_555
H15 C23 1_555 1_555
C24 N10 1_555 1_555
H16 C24 1_555 1_555
N19 Co1 1_555 1_555
N31 Co3 1_555 1_555
N36 Co3 1_555 1_555
C39 N19 1_555 1_555
C40 C39 1_555 1_555
C41 C40 1_555 1_555
C42 C41 1_555 1_555
H27 C42 1_555 1_555
C43 N19 1_555 1_555
H28 C43 1_555 1_555
N3 C2 1_555 1_555
N8 C14 1_555 1_555
C23 C24 1_555 1_555
C42 C43 1_555 1_555
C16 C15 1_555 1_555
H9 C16 1_555 1_555
N31 N32 1_555 1_555
N32 C61 1_555 1_555
N33 C61 1_555 1_555
N37 Co4_2 1_555 1_555
C61 C70 1_555 1_555
C62 N31 1_555 1_555
C63 N36 1_555 1_555
C64 C63 1_555 1_555
H41 C64 1_555 1_555
C65 C64 1_555 1_555
H42 C65 1_555 1_555
C66 C65 1_555 1_555
H43 C66 1_555 1_555
C67 N36 1_555 1_555
H44 C67 1_555 1_555
C68 N37 1_555 1_555
H45 C68 1_555 1_555
C69 C68 1_555 1_555
H46 C69 1_555 1_555
C70 C69 1_555 1_555
C71 C70 1_555 1_555
H47 C71 1_555 1_555
C72 N37 1_555 1_555
H48 C72 1_555 1_555
N33 C62 1_555 1_555
C62 C63 1_555 1_555
C66 C67 1_555 1_555
C71 C72 1_555 1_555
H32 C48 1_555 1_555
H8 C12 1_555 1_555
N21 Co3_2 1_555 1_555
N30 Co3_2 1_555 1_555
N35 Co3_2 1_555 1_555
C52 C51 1_555 1_555
H33 C52 1_555 1_555
N4 Co1_2 1_555 1_555
C3 N4 1_555 1_555
C4 C3 1_555 1_555
C5 C4 1_555 1_555
C6 C5 1_555 1_555
H3 C6 1_555 1_555
C7 N4 1_555 1_555
H4 C7 1_555 1_555
Co4_4 N22 1_555 1_555
N16 Co1_2 1_555 1_555
N17 N16 1_555 1_555
N18 C37 1_555 1_555
N21 C44 1_555 1_555
N22 N24 1_555 1_555
N24 C49 1_555 1_555
N25 C49 1_555 1_555
N28 Co1_2 1_555 1_555
C37 N17 1_555 1_555
C38 N16 1_555 1_555
C44 H29 1_555 1_555
C45 C44 1_555 1_555
H30 C45 1_555 1_555
C46 C37 1_555 1_555
C47 C46 1_555 1_555
C49 C58 1_555 1_555
C50 N22 1_555 1_555
C56 N28 1_555 1_555
H37 C56 1_555 1_555
C57 C56 1_555 1_555
H38 C57 1_555 1_555
C58 C57 1_555 1_555
C59 C58 1_555 1_555
H39 C59 1_555 1_555
C60 N28 1_555 1_555
H40 C60 1_555 1_555
C6 C7 1_555 1_555
N18 C38 1_555 1_555
N25 C50 1_555 1_555
C45 C46 1_555 1_555
C59 C60 1_555 1_555
N30 N12 1_555 1_555
N12 C25 1_555 1_555
N13 C25 1_555 1_555
N35 C27 1_555 1_555
N15 Co4_3 1_555 1_555
C25 C34 1_555 1_555
C26 N30 1_555 1_555
C27 C26 1_555 1_555
C28 C27 1_555 1_555
H17 C28 1_555 1_555
C29 C28 1_555 1_555
H18 C29 1_555 1_555
C30 C29 1_555 1_555
H19 C30 1_555 1_555
C31 N35 1_555 1_555
H20 C31 1_555 1_555
C32 N15 1_555 1_555
H21 C32 1_555 1_555
C33 C32 1_555 1_555
H22 C33 1_555 1_555
C34 C33 1_555 1_555
C35 C34 1_555 1_555
H23 C35 1_555 1_555
C36 N15 1_555 1_555
H24 C36 1_555 1_555
N13 C26 1_555 1_555
C30 C31 1_555 1_555
C35 C36 1_555 1_555
N9 Co4_4 1_555 1_555
H10 C17 1_555 1_555
C18 C17 1_555 1_555
H11 C18 1_555 1_555
C19 N9 1_555 1_555
H12 C19 1_555 1_555
C18 C19 1_555 1_555

#END
