
###############################################################################
#
# This file contains modified crystal structure data generated from the
# MOF subset of the Cambridge Structural Database (CSD) v543 
# hosted by the Cambridge Crystallographic Data Centre (CCDC).
#
# This work is licensed under the Creative Commons
# Attribution-NonCommercial-ShareAlike 4.0 International License.
# To view a copy of this license, visit
# http://creativecommons.org/licenses/by-nc-sa/4.0/
# or send a letter to
# Creative Commons, PO Box 1866, Mountain View, CA 94042, USA.
#
# CIF created using the CSD Python API on 29 September 2022
# The structure has been converted into the P1 space group
# The structure has a 3D framework
# The original CSD entry NAGRUL is in the rhombohedral crystal system
# The original CSD entry NAGRUL is in a Sohncke space group
# The framework has been calculated to contain at least 10.0% void space
# The void calculation uses a probe of radius 1.32A, grid spacing 0.4
#
###############################################################################

data_NAGRUL
_chemical_formula_moiety         '(C216 H132 Co9 N18 O37)n'
_symmetry_cell_setting           triclinic
_symmetry_space_group_name_H-M   'P 1'
_symmetry_Int_Tables_number      1
_space_group_name_Hall           'P 1'
loop_
_symmetry_equiv_pos_site_id
_symmetry_equiv_pos_as_xyz
1 x,y,z
_cell_length_a                   20.1860(10)
_cell_length_b                   20.1860(10)
_cell_length_c                   20.2891(8)
_cell_angle_alpha                90
_cell_angle_beta                 90
_cell_angle_gamma                120
_cell_volume                     7159.69
loop_
_atom_site_label
_atom_site_type_symbol
_atom_site_fract_x
_atom_site_fract_y
_atom_site_fract_z
O8 O 0.6147(2) 0.2044(3) 0.65812(19)
O9 O 0.7410(2) 0.2544(3) 0.6797(2)
N3 N 0.2196(3) 0.0269(4) 0.4089(2)
N4 N 0.5868(3) 0.0684(4) 0.3692(3)
C29 C 0.6262(5) 0.0371(9) 0.2390(5)
H17 H 0.6630 0.0856 0.2559
C30 C 0.6451(6) 0.0080(9) 0.1879(6)
H18 H 0.6936 0.0377 0.1674
C32 C 0.5313(4) 0.0290(6) 0.3260(4)
C33 C 0.4568(4) 0.0173(6) 0.3326(4)
C34 C 0.4421(3) 0.0489(4) 0.3885(3)
C35 C 0.3638(3) 0.0398(4) 0.3969(3)
C36 C 0.3282(4) 0.0491(6) 0.3428(3)
H21 H 0.3521 0.0597 0.3008
C37 C 0.2556(4) 0.0425(6) 0.3504(3)
H22 H 0.2315 0.0495 0.3129
C38 C 0.2546(3) 0.0180(4) 0.4610(3)
H23 H 0.2295 0.0065 0.5025
C39 C 0.3269(3) 0.0249(5) 0.4568(3)
H24 H 0.3506 0.0193 0.4952
C40 C 0.4999(3) 0.0881(4) 0.4342(3)
H25 H 0.4901 0.1085 0.4728
C41 C 0.5713(3) 0.0973(4) 0.4239(3)
C42 C 0.6392(3) 0.1398(4) 0.4685(3)
C43 C 0.6297(3) 0.1607(4) 0.5324(3)
H26 H 0.5800 0.1475 0.5474
C44 C 0.6922(3) 0.2005(4) 0.5739(3)
C45 C 0.7649(4) 0.2196(6) 0.5517(4)
H27 H 0.8077 0.2454 0.5802
C46 C 0.7750(4) 0.2009(6) 0.4880(3)
H28 H 0.8249 0.2157 0.4725
C47 C 0.7122(4) 0.1608(6) 0.4470(3)
H29 H 0.7194 0.1475 0.4037
C48 C 0.6816(3) 0.2213(4) 0.6431(3)
Co4 Co 0.10726(4) 0.01384(4) 0.41073(3)
Co8 Co 0.77392(4) 0.34718(4) 0.74407(3)
Co12 Co 0.57325(6) 0.22608(4) 0.74407(3)
Co1 Co 0.44059(4) 0.68051(4) 0.07740(3)
O1 O 0.3333 0.6667 0.0827(3)
H1 H 0.3333 0.6667 0.1320
O2 O 0.4123(2) 0.6066(2) 0.1583(2)
O3 O 0.2910(2) 0.5138(3) 0.1373(2)
O4 O 0.5897(2) 0.3853(2) 0.65812(19)
O5 O 0.5134(2) 0.2590(2) 0.6797(2)
N1 N 0.8073(3) 0.7804(3) 0.4089(2)
N2 N 0.4816(3) 0.4132(3) 0.3692(3)
C1 C 0.3588(3) 0.5395(3) 0.1587(3)
C2 C 0.3762(4) 0.4810(4) 0.1877(4)
C3 C 0.4313(4) 0.5025(4) 0.2384(3)
H2 H 0.4594 0.5545 0.2520
C4 C 0.4451(5) 0.4478(4) 0.2692(5)
C5 C 0.4109(7) 0.3738(5) 0.2390(5)
H3 H 0.4226 0.3370 0.2559
C6 C 0.3629(7) 0.3549(6) 0.1879(6)
H4 H 0.3441 0.3064 0.1674
C7 C 0.3402(6) 0.4055(5) 0.1644(5)
H5 H 0.3004 0.3888 0.1326
C8 C 0.4977(4) 0.4687(4) 0.3260(4)
C9 C 0.5605(4) 0.5432(4) 0.3326(4)
H6 H 0.5710 0.5818 0.3008
C10 C 0.6068(3) 0.5579(3) 0.3885(3)
C11 C 0.6760(3) 0.6362(3) 0.3969(3)
C12 C 0.7209(4) 0.6718(4) 0.3428(3)
H7 H 0.7076 0.6479 0.3008
C13 C 0.7869(4) 0.7444(4) 0.3504(3)
H8 H 0.8180 0.7685 0.3129
C14 C 0.7634(3) 0.7454(3) 0.4610(3)
H9 H 0.7770 0.7705 0.5025
C15 C 0.6980(4) 0.6731(3) 0.4568(3)
H10 H 0.6687 0.6494 0.4952
C16 C 0.5882(3) 0.5001(3) 0.4342(3)
H11 H 0.6184 0.5099 0.4728
C17 C 0.5260(3) 0.4287(3) 0.4239(3)
C18 C 0.5006(3) 0.3608(3) 0.4685(3)
C19 C 0.5310(3) 0.3703(3) 0.5324(3)
H12 H 0.5675 0.4200 0.5474
C20 C 0.5083(3) 0.3078(3) 0.5739(3)
C21 C 0.4547(4) 0.2351(4) 0.5517(4)
H13 H 0.4377 0.1923 0.5802
C22 C 0.4259(4) 0.2250(4) 0.4880(3)
H14 H 0.3908 0.1751 0.4725
C23 C 0.4486(4) 0.2878(4) 0.4470(3)
H15 H 0.4281 0.2806 0.4037
C24 C 0.5397(3) 0.3184(3) 0.6431(3)
Co2 Co 0.31949(4) 0.76008(6) 0.07740(3)
O6 O 0.3934(2) 0.8057(3) 0.1583(2)
O7 O 0.4862(3) 0.7772(4) 0.1373(2)
C25 C 0.4605(3) 0.8193(4) 0.1587(3)
C26 C 0.5190(4) 0.8952(6) 0.1877(4)
C27 C 0.4975(4) 0.9288(6) 0.2384(3)
H16 H 0.4455 0.9049 0.2520
C28 C 0.5522(4) 0.9973(6) 0.2692(5)
C31 C 0.5945(5) 0.9347(8) 0.1644(5)
H19 H 0.6112 0.9116 0.1326
H20 H 0.4182 0.9892 0.3008
Co3 Co 0.23992(6) 0.55941(4) 0.07740(3)
O10 O 0.1943(3) 0.5877(2) 0.1583(2)
O11 O 0.2228(4) 0.7090(2) 0.1373(2)
C49 C 0.1807(4) 0.6412(3) 0.1587(3)
C50 C 0.1048(6) 0.6238(4) 0.1877(4)
C51 C 0.0712(6) 0.5687(4) 0.2384(3)
H30 H 0.0951 0.5406 0.2520
C52 C 0.0027(6) 0.5549(5) 0.2692(5)
C55 C 0.0653(8) 0.6598(6) 0.1644(5)
H33 H 0.0884 0.6996 0.1326
H34 H 0.0108 0.4290 0.3008
Co6 Co 0.90659(6) 0.89274(4) 0.41073(3)
Co10 Co 0.65282(4) 0.42675(6) 0.74407(3)
O17 O 0.1801(2) 0.5923(2) 0.0130(2)
O18 O 0.4077(2) 0.5877(3) 0.0130(2)
O19 O 0.4123(3) 0.8199(2) 0.0130(2)
N7 N 0.1406(3) 0.4471(3) 0.0756(2)
N8 N 0.5529(3) 0.6936(4) 0.0756(2)
N9 N 0.3064(4) 0.8594(3) 0.0756(2)
O14 O 0.2564(2) 0.7186(2) 0.99145(19)
O15 O 0.2814(2) 0.5377(3) 0.99145(19)
O16 O 0.4623(3) 0.7436(2) 0.99145(19)
O12 O 0.7956(3) 0.4103(2) 0.65812(19)
O13 O 0.7456(3) 0.4866(2) 0.6797(2)
N5 N 0.9731(4) 0.1927(3) 0.4089(2)
N6 N 0.9316(4) 0.5184(3) 0.3692(3)
C53 C 0.9629(9) 0.5891(7) 0.2390(5)
H31 H 0.9144 0.5774 0.2559
C54 C 0.9920(9) 0.6371(7) 0.1879(6)
H32 H 0.9623 0.6559 0.1674
C56 C 0.9710(6) 0.5023(4) 0.3260(4)
C57 C 0.9827(6) 0.4395(4) 0.3326(4)
C58 C 0.9511(4) 0.3932(3) 0.3885(3)
C59 C 0.9602(4) 0.3240(3) 0.3969(3)
C60 C 0.9509(6) 0.2791(4) 0.3428(3)
H35 H 0.9403 0.2924 0.3008
C61 C 0.9575(6) 0.2131(4) 0.3504(3)
H36 H 0.9505 0.1820 0.3129
C62 C 0.9820(4) 0.2366(3) 0.4610(3)
H37 H 0.9935 0.2230 0.5025
C63 C 0.9751(5) 0.3020(4) 0.4568(3)
H38 H 0.9807 0.3313 0.4952
C64 C 0.9119(4) 0.4118(3) 0.4342(3)
H39 H 0.8915 0.3816 0.4728
C65 C 0.9027(4) 0.4740(3) 0.4239(3)
C66 C 0.8602(4) 0.4994(3) 0.4685(3)
C67 C 0.8393(4) 0.4690(3) 0.5324(3)
H40 H 0.8525 0.4325 0.5474
C68 C 0.7995(4) 0.4917(3) 0.5739(3)
C69 C 0.7804(6) 0.5453(4) 0.5517(4)
H41 H 0.7546 0.5623 0.5802
C70 C 0.7991(6) 0.5741(4) 0.4880(3)
H42 H 0.7843 0.6092 0.4725
C71 C 0.8392(6) 0.5514(4) 0.4470(3)
H43 H 0.8525 0.5719 0.4037
C72 C 0.7787(4) 0.4603(3) 0.6431(3)
Co5 Co 0.98616(4) 0.09341(6) 0.41073(3)
O1_2 O -0.0000 0.0000 0.4160(3)
H1_2 H -0.0000 0.0000 0.4653
N1_2 N 0.4740(3) 0.1137(3) 0.7422(2)
C12_2 C 0.3876(4) 0.0051(4) 0.6761(3)
C13_2 C 0.4536(4) 0.0777(4) 0.6837(3)
H8_2 H 0.4847 0.1018 0.6462
C14_2 C 0.4301(3) 0.0787(3) 0.7943(3)
H9_2 H 0.4437 0.1038 0.8358
C15_2 C 0.3647(4) 0.0064(3) 0.7901(3)
O6_2 O 0.0601(2) 0.1390(3) 0.4916(2)
O7_2 O 0.1529(3) 0.1105(4) 0.4706(2)
N4_2 N 0.2535(3) 0.4017(4) 0.7025(3)
C25_2 C 0.1272(3) 0.1526(4) 0.4920(3)
C26_2 C 0.1857(4) 0.2285(6) 0.5210(4)
C27_2 C 0.1642(4) 0.2621(6) 0.5717(3)
H16_2 H 0.1122 0.2382 0.5853
C28_2 C 0.2189(4) 0.3306(6) 0.6025(5)
C29_2 C 0.2929(5) 0.3704(9) 0.5723(5)
H17_2 H 0.3297 0.4189 0.5892
C30_2 C 0.3118(6) 0.3413(9) 0.5212(6)
H18_2 H 0.3603 0.3710 0.5007
C31_2 C 0.2612(5) 0.2680(8) 0.4977(5)
H19_2 H 0.2779 0.2449 0.4659
C32_2 C 0.1980(4) 0.3623(6) 0.6593(4)
C33_2 C 0.1235(4) 0.3506(6) 0.6659(4)
H20_2 H 0.0849 0.3225 0.6341
C34_2 C 0.1088(3) 0.3822(4) 0.7218(3)
C35_2 C 0.0305(3) 0.3731(4) 0.7302(3)
H21_2 H 0.0188 0.3930 0.6341
H24_2 H 0.0173 0.3526 0.8285
C40_2 C 0.1666(3) 0.4214(4) 0.7675(3)
H25_2 H 0.1568 0.4418 0.8061
C41_2 C 0.2380(3) 0.4306(4) 0.7572(3)
C42_2 C 0.3059(3) 0.4731(4) 0.8018(3)
C43_2 C 0.2964(3) 0.4940(4) 0.8657(3)
H26_2 H 0.2467 0.4808 0.8807
C44_2 C 0.3589(3) 0.5338(4) 0.9072(3)
C45_2 C 0.4316(4) 0.5529(6) 0.8850(4)
H27_2 H 0.4744 0.5787 0.9135
C46_2 C 0.4417(4) 0.5342(6) 0.8213(3)
H28_2 H 0.4916 0.5490 0.8058
C47_2 C 0.3789(4) 0.4941(6) 0.7803(3)
H29_2 H 0.3861 0.4808 0.7370
C48_2 C 0.3483(3) 0.5546(4) 0.9764(3)
O16_2 O 0.1289(3) 0.0770(2) 0.32479(19)
O19_2 O 0.0789(3) 0.1533(2) 0.3464(2)
O1_3 O -0.0000 1.0000 0.4160(3)
H1_3 H -0.0000 1.0000 0.4653
O2_2 O 0.0790(2) 0.9399(2) 0.4916(2)
N2_2 N 0.1483(3) 0.7465(3) 0.7025(3)
C1_2 C 0.0255(3) 0.8728(3) 0.4920(3)
C2_2 C 0.0429(4) 0.8143(4) 0.5210(4)
C3_2 C 0.0980(4) 0.8358(4) 0.5717(3)
H2_2 H 0.1261 0.8878 0.5853
C4_2 C 0.1118(5) 0.7811(4) 0.6025(5)
C5_2 C 0.0776(7) 0.7071(5) 0.5723(5)
H3_2 H 0.0893 0.6703 0.5892
C6_2 C 0.0296(7) 0.6882(6) 0.5212(6)
H4_2 H 0.0108 0.6397 0.5007
C7_2 C 0.0069(6) 0.7388(5) 0.4977(5)
C8_2 C 0.1644(4) 0.8020(4) 0.6593(4)
C9_2 C 0.2272(4) 0.8765(4) 0.6659(4)
H6_2 H 0.2377 0.9151 0.6341
C10_2 C 0.2735(3) 0.8912(3) 0.7218(3)
C11_2 C 0.3427(3) 0.9695(3) 0.7302(3)
H7_2 H 0.3743 0.9812 0.6341
H10_2 H 0.3354 0.9827 0.8285
C16_2 C 0.2549(3) 0.8334(3) 0.7675(3)
H11_2 H 0.2851 0.8432 0.8061
C17_2 C 0.1927(3) 0.7620(3) 0.7572(3)
C18_2 C 0.1673(3) 0.6941(3) 0.8018(3)
C19_2 C 0.1977(3) 0.7036(3) 0.8657(3)
H12_2 H 0.2342 0.7533 0.8807
C20_2 C 0.1750(3) 0.6411(3) 0.9072(3)
C21_2 C 0.1214(4) 0.5684(4) 0.8850(4)
H13_2 H 0.1044 0.5256 0.9135
C22_2 C 0.0926(4) 0.5583(4) 0.8213(3)
H14_2 H 0.0575 0.5084 0.8058
C23_2 C 0.1153(4) 0.6211(4) 0.7803(3)
H15_2 H 0.0948 0.6139 0.7370
C24_2 C 0.2064(3) 0.6517(3) 0.9764(3)
O18_2 O 0.0743(2) 0.9211(3) 0.3464(2)
O1_4 O 1.0000 0.0000 0.4160(3)
H1_4 H 1.0000 0.0000 0.4653
N3_2 N 0.8863(3) 0.3602(4) 0.7422(2)
C36_2 C 0.9949(4) 0.3824(6) 0.6761(3)
C37_2 C 0.9223(4) 0.3758(6) 0.6837(3)
H22_2 H 0.8982 0.3828 0.6462
C38_2 C 0.9213(3) 0.3513(4) 0.7943(3)
H23_2 H 0.8962 0.3398 0.8358
C39_2 C 0.9936(3) 0.3582(5) 0.7901(3)
O11_2 O 0.8895(4) 0.0423(2) 0.4706(2)
H33_2 H 0.7551 0.0329 0.4659
O14_2 O 0.9230(2) 0.0520(2) 0.32479(19)
O1_5 O 1.0000 1.0000 0.4160(3)
H1_5 H 1.0000 1.0000 0.4653
O3_2 O 0.9577(2) 0.8471(3) 0.4706(2)
H5_2 H 0.9671 0.7221 0.4659
O10_2 O 0.8610(3) 0.9210(2) 0.4916(2)
N5_2 N 0.6398(4) 0.5260(3) 0.7422(2)
N6_2 N 0.5983(4) 0.8517(3) 0.7025(3)
C49_2 C 0.8474(4) 0.9745(3) 0.4920(3)
C50_2 C 0.7715(6) 0.9571(4) 0.5210(4)
C51_2 C 0.7379(6) 0.9020(4) 0.5717(3)
H30_2 H 0.7618 0.8739 0.5853
C52_2 C 0.6694(6) 0.8882(5) 0.6025(5)
C53_2 C 0.6296(9) 0.9224(7) 0.5723(5)
H31_2 H 0.5811 0.9107 0.5892
C54_2 C 0.6587(9) 0.9704(7) 0.5212(6)
H32_2 H 0.6290 0.9892 0.5007
C55_2 C 0.7320(8) 0.9931(6) 0.4977(5)
C56_2 C 0.6377(6) 0.8356(4) 0.6593(4)
C57_2 C 0.6494(6) 0.7728(4) 0.6659(4)
H34_2 H 0.6775 0.7623 0.6341
C58_2 C 0.6178(4) 0.7265(3) 0.7218(3)
C59_2 C 0.6269(4) 0.6573(3) 0.7302(3)
C60_2 C 0.6176(6) 0.6124(4) 0.6761(3)
H35_2 H 0.6070 0.6257 0.6341
C61_2 C 0.6242(6) 0.5464(4) 0.6837(3)
H36_2 H 0.6172 0.5153 0.6462
C62_2 C 0.6487(4) 0.5699(3) 0.7943(3)
H37_2 H 0.6602 0.5563 0.8358
C63_2 C 0.6418(5) 0.6353(4) 0.7901(3)
H38_2 H 0.6474 0.6646 0.8285
C64_2 C 0.5786(4) 0.7451(3) 0.7675(3)
H39_2 H 0.5582 0.7149 0.8061
C65_2 C 0.5694(4) 0.8073(3) 0.7572(3)
C66_2 C 0.5269(4) 0.8327(3) 0.8018(3)
C67_2 C 0.5060(4) 0.8023(3) 0.8657(3)
H40_2 H 0.5192 0.7658 0.8807
C68_2 C 0.4662(4) 0.8250(3) 0.9072(3)
C69_2 C 0.4471(6) 0.8786(4) 0.8850(4)
H41_2 H 0.4213 0.8956 0.9135
C70_2 C 0.4658(6) 0.9074(4) 0.8213(3)
H42_2 H 0.4510 0.9425 0.8058
C71_2 C 0.5059(6) 0.8847(4) 0.7803(3)
H43_2 H 0.5192 0.9052 0.7370
C72_2 C 0.4454(4) 0.7936(3) 0.9764(3)
O15_2 O 0.9480(2) 0.8711(3) 0.32479(19)
O17_2 O 0.8467(2) 0.9257(2) 0.3464(2)
C11_3 C 0.0093(3) 0.3029(3) 0.0636(3)
C12_3 C 0.0542(4) 0.3385(4) 0.0095(3)
C13_3 C 0.1202(4) 0.4111(4) 0.0171(3)
C14_3 C 0.0967(3) 0.4121(3) 0.1277(3)
H9_3 H 0.1103 0.4372 0.1692
C15_3 C 0.0313(4) 0.3398(3) 0.1235(3)
H10_3 H 0.0020 0.3161 0.1619
C44_3 C 0.0255(3) 0.8672(4) 0.2406(3)
C45_3 C 0.0982(4) 0.8863(6) 0.2184(4)
H27_3 H 0.1410 0.9121 0.2469
C46_3 C 0.1083(4) 0.8676(6) 0.1547(3)
H28_3 H 0.1582 0.8824 0.1392
C47_3 C 0.0455(4) 0.8275(6) 0.1137(3)
H29_3 H 0.0527 0.8142 0.0704
C48_3 C 0.0149(3) 0.8880(4) 0.3098(3)
N2_3 N 0.8149(3) 0.0799(3) 0.0359(3)
C10_3 C 0.9401(3) 0.2246(3) 0.0552(3)
C16_3 C 0.9215(3) 0.1668(3) 0.1009(3)
H11_3 H 0.9517 0.1766 0.1395
C17_3 C 0.8593(3) 0.0954(3) 0.0906(3)
C18_3 C 0.8339(3) 0.0275(3) 0.1352(3)
C19_3 C 0.8643(3) 0.0370(3) 0.1991(3)
H12_3 H 0.9008 0.0867 0.2141
N4_3 N 0.9201(3) 0.7351(4) 0.0359(3)
C34_3 C 0.7754(3) 0.7156(4) 0.0552(3)
C35_3 C 0.6971(3) 0.7065(4) 0.0636(3)
C36_3 C 0.6615(4) 0.7158(6) 0.0095(3)
C37_3 C 0.5889(4) 0.7092(6) 0.0171(3)
C38_3 C 0.5879(3) 0.6847(4) 0.1277(3)
H23_3 H 0.5628 0.6732 0.1692
C39_3 C 0.6602(3) 0.6916(5) 0.1235(3)
H24_3 H 0.6839 0.6860 0.1619
C40_3 C 0.8332(3) 0.7548(4) 0.1009(3)
H25_3 H 0.8234 0.7752 0.1395
C41_3 C 0.9046(3) 0.7640(4) 0.0906(3)
C42_3 C 0.9725(3) 0.8065(4) 0.1352(3)
C43_3 C 0.9630(3) 0.8274(4) 0.1991(3)
H26_3 H 0.9133 0.8142 0.2141
N6_3 N 0.2649(4) 0.1851(3) 0.0359(3)
C58_3 C 0.2844(4) 0.0599(3) 0.0552(3)
C64_3 C 0.2452(4) 0.0785(3) 0.1009(3)
H39_3 H 0.2248 0.0483 0.1395
C65_3 C 0.2360(4) 0.1407(3) 0.0906(3)
C66_3 C 0.1935(4) 0.1661(3) 0.1352(3)
C67_3 C 0.1726(4) 0.1357(3) 0.1991(3)
H40_3 H 0.1858 0.0992 0.2141
C68_3 C 0.1328(4) 0.1584(3) 0.2406(3)
C69_3 C 0.1137(6) 0.2120(4) 0.2184(4)
H41_3 H 0.0879 0.2290 0.2469
C70_3 C 0.1324(6) 0.2408(4) 0.1547(3)
H42_3 H 0.1176 0.2759 0.1392
C71_3 C 0.1725(6) 0.2181(4) 0.1137(3)
H43_3 H 0.1858 0.2386 0.0704
C72_3 C 0.1120(4) 0.1270(3) 0.3098(3)
O1_6 O 0.6666 0.3334 0.7494(3)
H1_6 H 0.6666 0.3334 0.7987
O2_3 O 0.7456(2) 0.2733(2) 0.8250(2)
O3_3 O 0.6243(2) 0.1805(3) 0.8040(2)
C1_3 C 0.6921(3) 0.2062(3) 0.8254(3)
C2_3 C 0.7095(4) 0.1477(4) 0.8544(4)
C3_3 C 0.7646(4) 0.1692(4) 0.9051(3)
H2_3 H 0.7927 0.2212 0.9187
C4_3 C 0.7784(5) 0.1145(4) 0.9359(5)
C5_3 C 0.7442(7) 0.0405(5) 0.9057(5)
H3_3 H 0.7559 0.0037 0.9226
C6_3 C 0.6962(7) 0.0216(6) 0.8546(6)
C7_3 C 0.6735(6) 0.0722(5) 0.8311(5)
H5_3 H 0.6337 0.0555 0.7993
C8_3 C 0.8310(4) 0.1354(4) 0.9927(4)
C9_3 C 0.8938(4) 0.2099(4) 0.9993(4)
H6_3 H 0.9043 0.2485 0.9675
O6_3 O 0.7267(2) 0.4724(3) 0.8250(2)
O7_3 O 0.8195(3) 0.4439(4) 0.8040(2)
C25_3 C 0.7938(3) 0.4860(4) 0.8254(3)
C26_3 C 0.8523(4) 0.5619(6) 0.8544(4)
C27_3 C 0.8308(4) 0.5955(6) 0.9051(3)
H16_3 H 0.7788 0.5716 0.9187
C28_3 C 0.8855(4) 0.6640(6) 0.9359(5)
C29_3 C 0.9595(5) 0.7038(9) 0.9057(5)
H17_3 H 0.9963 0.7523 0.9226
C30_3 C 0.9784(6) 0.6747(9) 0.8546(6)
C31_3 C 0.9278(5) 0.6014(8) 0.8311(5)
H19_3 H 0.9445 0.5783 0.7993
C32_3 C 0.8646(4) 0.6957(6) 0.9927(4)
C33_3 C 0.7901(4) 0.6840(6) 0.9993(4)
H20_3 H 0.7515 0.6559 0.9675
H21_3 H 0.6854 0.7264 0.9675
H22_3 H 0.5648 0.7162 0.9796
O10_3 O 0.5276(3) 0.2544(2) 0.8250(2)
O11_3 O 0.5561(4) 0.3757(2) 0.8040(2)
C49_3 C 0.5140(4) 0.3079(3) 0.8254(3)
C50_3 C 0.4381(6) 0.2905(4) 0.8544(4)
C51_3 C 0.4045(6) 0.2354(4) 0.9051(3)
H30_3 H 0.4284 0.2073 0.9187
C52_3 C 0.3360(6) 0.2216(5) 0.9359(5)
C53_3 C 0.2962(9) 0.2558(7) 0.9057(5)
H31_3 H 0.2477 0.2441 0.9226
C54_3 C 0.3253(9) 0.3038(7) 0.8546(6)
H32_3 H 0.2956 0.3226 0.8341
C55_3 C 0.3986(8) 0.3265(6) 0.8311(5)
H33_3 H 0.4217 0.3663 0.7993
C56_3 C 0.3043(6) 0.1690(4) 0.9927(4)
C57_3 C 0.3160(6) 0.1062(4) 0.9993(4)
H34_3 H 0.3441 0.0957 0.9675
C20_3 C 0.8416(3) 0.9745(3) 0.2406(3)
C21_3 C 0.7880(4) 0.9018(4) 0.2184(4)
H13_3 H 0.7710 0.8590 0.2469
C22_3 C 0.7592(4) 0.8917(4) 0.1547(3)
H14_3 H 0.7241 0.8418 0.1392
C23_3 C 0.7819(4) 0.9545(4) 0.1137(3)
H15_3 H 0.7614 0.9473 0.0704
C24_3 C 0.8730(3) 0.9851(3) 0.3098(3)
C59_3 C 0.2935(4) 0.9907(3) 0.0636(3)
C60_3 C 0.2842(6) 0.9458(4) 0.0095(3)
C61_3 C 0.2908(6) 0.8798(4) 0.0171(3)
C62_3 C 0.3153(4) 0.9033(3) 0.1277(3)
H37_3 H 0.3268 0.8897 0.1692
C63_3 C 0.3084(5) 0.9687(4) 0.1235(3)
H38_3 H 0.3140 0.9980 0.1619
H7_3 H 0.0409 0.3146 0.9675
H8_3 H 0.1513 0.4352 0.9796
H18_3 H 0.0269 0.7044 0.8341
H4_3 H 0.6774 0.9731 0.8341
H35_3 H 0.2736 0.9591 0.9675
H36_3 H 0.2838 0.8487 0.9796
loop_
_geom_bond_atom_site_label_1
_geom_bond_atom_site_label_2
_geom_bond_site_symmetry_1
_geom_bond_site_symmetry_2
O8 C48 1_555 1_555
O9 C48 1_555 1_555
N3 C37 1_555 1_555
N4 C32 1_555 1_555
H17 C29 1_555 1_555
C30 C29 1_555 1_555
H18 C30 1_555 1_555
C33 C32 1_555 1_555
C34 C33 1_555 1_555
C35 C34 1_555 1_555
C36 C35 1_555 1_555
H21 C36 1_555 1_555
C37 C36 1_555 1_555
H22 C37 1_555 1_555
C38 N3 1_555 1_555
H23 C38 1_555 1_555
C39 C35 1_555 1_555
H24 C39 1_555 1_555
C40 C34 1_555 1_555
H25 C40 1_555 1_555
C41 N4 1_555 1_555
C42 C41 1_555 1_555
C43 C42 1_555 1_555
H26 C43 1_555 1_555
C44 C43 1_555 1_555
C45 C44 1_555 1_555
H27 C45 1_555 1_555
C46 C45 1_555 1_555
H28 C46 1_555 1_555
C47 C42 1_555 1_555
H29 C47 1_555 1_555
C48 C44 1_555 1_555
Co4 N3 1_555 1_555
Co8 O9 1_555 1_555
Co12 O8 1_555 1_555
C38 C39 1_555 1_555
C40 C41 1_555 1_555
C46 C47 1_555 1_555
Co1 O1 1_555 1_555
O1 H1 1_555 1_555
O2 Co1 1_555 1_555
O3 C1 1_555 1_555
O4 C24 1_555 1_555
O5 C24 1_555 1_555
N1 C13 1_555 1_555
N2 C8 1_555 1_555
C1 O2 1_555 1_555
C2 C1 1_555 1_555
C3 C2 1_555 1_555
H2 C3 1_555 1_555
C4 C3 1_555 1_555
C5 C4 1_555 1_555
H3 C5 1_555 1_555
C6 C5 1_555 1_555
H4 C6 1_555 1_555
C7 C2 1_555 1_555
H5 C7 1_555 1_555
C8 C4 1_555 1_555
C9 C8 1_555 1_555
H6 C9 1_555 1_555
C10 C9 1_555 1_555
C11 C10 1_555 1_555
C12 C11 1_555 1_555
H7 C12 1_555 1_555
C13 C12 1_555 1_555
H8 C13 1_555 1_555
C14 N1 1_555 1_555
H9 C14 1_555 1_555
C15 C11 1_555 1_555
H10 C15 1_555 1_555
C16 C10 1_555 1_555
H11 C16 1_555 1_555
C17 N2 1_555 1_555
C18 C17 1_555 1_555
C19 C18 1_555 1_555
H12 C19 1_555 1_555
C20 C19 1_555 1_555
C21 C20 1_555 1_555
H13 C21 1_555 1_555
C22 C21 1_555 1_555
H14 C22 1_555 1_555
C23 C18 1_555 1_555
H15 C23 1_555 1_555
C24 C20 1_555 1_555
Co2 O1 1_555 1_555
O6 Co2 1_555 1_555
O7 Co1 1_555 1_555
C25 O6 1_555 1_555
C26 C25 1_555 1_555
C27 C26 1_555 1_555
H16 C27 1_555 1_555
C28 C27 1_555 1_555
C31 C26 1_555 1_555
H19 C31 1_555 1_555
Co3 O1 1_555 1_555
O10 Co3 1_555 1_555
O11 Co2 1_555 1_555
C49 O10 1_555 1_555
C50 C49 1_555 1_555
C51 C50 1_555 1_555
H30 C51 1_555 1_555
C52 C51 1_555 1_555
C55 C50 1_555 1_555
H33 C55 1_555 1_555
Co6 N1 1_555 1_555
Co10 O4 1_555 1_555
Co12 O5 1_555 1_555
O17 Co3 1_555 1_555
O18 Co1 1_555 1_555
O19 Co2 1_555 1_555
N7 Co3 1_555 1_555
N8 Co1 1_555 1_555
N9 Co2 1_555 1_555
O3 Co3 1_555 1_555
C6 C7 1_555 1_555
C14 C15 1_555 1_555
C16 C17 1_555 1_555
C22 C23 1_555 1_555
O7 C25 1_555 1_555
O11 C49 1_555 1_555
O12 C72 1_555 1_555
O13 C72 1_555 1_555
N5 C61 1_555 1_555
N6 C56 1_555 1_555
H31 C53 1_555 1_555
C54 C53 1_555 1_555
H32 C54 1_555 1_555
C57 C56 1_555 1_555
C58 C57 1_555 1_555
C59 C58 1_555 1_555
C60 C59 1_555 1_555
H35 C60 1_555 1_555
C61 C60 1_555 1_555
H36 C61 1_555 1_555
C62 N5 1_555 1_555
H37 C62 1_555 1_555
C63 C59 1_555 1_555
H38 C63 1_555 1_555
C64 C58 1_555 1_555
H39 C64 1_555 1_555
C65 N6 1_555 1_555
C66 C65 1_555 1_555
C67 C66 1_555 1_555
H40 C67 1_555 1_555
C68 C67 1_555 1_555
C69 C68 1_555 1_555
H41 C69 1_555 1_555
C70 C69 1_555 1_555
H42 C70 1_555 1_555
C71 C66 1_555 1_555
H43 C71 1_555 1_555
C72 C68 1_555 1_555
Co5 N5 1_555 1_555
Co8 O12 1_555 1_555
Co10 O13 1_555 1_555
C62 C63 1_555 1_555
C64 C65 1_555 1_555
C70 C71 1_555 1_555
Co4 O1_2 1_555 1_555
O1_2 H1_2 1_555 1_555
N1_2 C13_2 1_555 1_555
C13_2 C12_2 1_555 1_555
H8_2 C13_2 1_555 1_555
C14_2 N1_2 1_555 1_555
H9_2 C14_2 1_555 1_555
O7_2 Co4 1_555 1_555
O15 C48_2 1_555 1_555
N4_2 C32_2 1_555 1_555
C25_2 O6_2 1_555 1_555
C26_2 C25_2 1_555 1_555
C27_2 C26_2 1_555 1_555
H16_2 C27_2 1_555 1_555
C28_2 C27_2 1_555 1_555
C29_2 C28_2 1_555 1_555
H17_2 C29_2 1_555 1_555
C30_2 C29_2 1_555 1_555
H18_2 C30_2 1_555 1_555
C31_2 C26_2 1_555 1_555
H19_2 C31_2 1_555 1_555
C32_2 C28_2 1_555 1_555
C33_2 C32_2 1_555 1_555
H20_2 C33_2 1_555 1_555
C34_2 C33_2 1_555 1_555
C35_2 C34_2 1_555 1_555
C40_2 C34_2 1_555 1_555
H25_2 C40_2 1_555 1_555
C41_2 N4_2 1_555 1_555
C42_2 C41_2 1_555 1_555
C43_2 C42_2 1_555 1_555
H26_2 C43_2 1_555 1_555
C44_2 C43_2 1_555 1_555
C45_2 C44_2 1_555 1_555
H27_2 C45_2 1_555 1_555
C46_2 C45_2 1_555 1_555
H28_2 C46_2 1_555 1_555
C47_2 C42_2 1_555 1_555
H29_2 C47_2 1_555 1_555
C48_2 C44_2 1_555 1_555
Co12 N1_2 1_555 1_555
O16_2 Co4 1_555 1_555
C14_2 C15_2 1_555 1_555
O7_2 C25_2 1_555 1_555
C30_2 C31_2 1_555 1_555
C40_2 C41_2 1_555 1_555
C46_2 C47_2 1_555 1_555
O1_3 H1_3 1_555 1_555
O14 C24_2 1_555 1_555
N2_2 C8_2 1_555 1_555
C1_2 O2_2 1_555 1_555
C2_2 C1_2 1_555 1_555
C3_2 C2_2 1_555 1_555
H2_2 C3_2 1_555 1_555
C4_2 C3_2 1_555 1_555
C5_2 C4_2 1_555 1_555
H3_2 C5_2 1_555 1_555
C6_2 C5_2 1_555 1_555
H4_2 C6_2 1_555 1_555
C7_2 C2_2 1_555 1_555
C8_2 C4_2 1_555 1_555
C9_2 C8_2 1_555 1_555
H6_2 C9_2 1_555 1_555
C10_2 C9_2 1_555 1_555
C11_2 C10_2 1_555 1_555
C16_2 C10_2 1_555 1_555
H11_2 C16_2 1_555 1_555
C17_2 N2_2 1_555 1_555
C18_2 C17_2 1_555 1_555
C19_2 C18_2 1_555 1_555
H12_2 C19_2 1_555 1_555
C20_2 C19_2 1_555 1_555
C21_2 C20_2 1_555 1_555
H13_2 C21_2 1_555 1_555
C22_2 C21_2 1_555 1_555
H14_2 C22_2 1_555 1_555
C23_2 C18_2 1_555 1_555
H15_2 C23_2 1_555 1_555
C24_2 C20_2 1_555 1_555
C6_2 C7_2 1_555 1_555
C16_2 C17_2 1_555 1_555
C22_2 C23_2 1_555 1_555
O1_4 H1_4 1_555 1_555
Co5 O1_4 1_555 1_555
N3_2 C37_2 1_555 1_555
C37_2 C36_2 1_555 1_555
H22_2 C37_2 1_555 1_555
C38_2 N3_2 1_555 1_555
H23_2 C38_2 1_555 1_555
O11_2 Co5 1_555 1_555
Co8 N3_2 1_555 1_555
O14_2 Co5 1_555 1_555
C38_2 C39_2 1_555 1_555
O1_5 H1_5 1_555 1_555
Co6 O1_5 1_555 1_555
O10_2 Co6 1_555 1_555
O16 C72_2 1_555 1_555
N5_2 C61_2 1_555 1_555
N6_2 C56_2 1_555 1_555
C49_2 O10_2 1_555 1_555
C50_2 C49_2 1_555 1_555
C51_2 C50_2 1_555 1_555
H30_2 C51_2 1_555 1_555
C52_2 C51_2 1_555 1_555
C53_2 C52_2 1_555 1_555
H31_2 C53_2 1_555 1_555
C54_2 C53_2 1_555 1_555
H32_2 C54_2 1_555 1_555
C55_2 C50_2 1_555 1_555
C56_2 C52_2 1_555 1_555
C57_2 C56_2 1_555 1_555
H34_2 C57_2 1_555 1_555
C58_2 C57_2 1_555 1_555
C59_2 C58_2 1_555 1_555
C60_2 C59_2 1_555 1_555
H35_2 C60_2 1_555 1_555
C61_2 C60_2 1_555 1_555
H36_2 C61_2 1_555 1_555
C62_2 N5_2 1_555 1_555
H37_2 C62_2 1_555 1_555
C63_2 C59_2 1_555 1_555
H38_2 C63_2 1_555 1_555
C64_2 C58_2 1_555 1_555
H39_2 C64_2 1_555 1_555
C65_2 N6_2 1_555 1_555
C66_2 C65_2 1_555 1_555
C67_2 C66_2 1_555 1_555
H40_2 C67_2 1_555 1_555
C68_2 C67_2 1_555 1_555
C69_2 C68_2 1_555 1_555
H41_2 C69_2 1_555 1_555
C70_2 C69_2 1_555 1_555
H42_2 C70_2 1_555 1_555
C71_2 C66_2 1_555 1_555
H43_2 C71_2 1_555 1_555
C72_2 C68_2 1_555 1_555
Co10 N5_2 1_555 1_555
O15_2 Co6 1_555 1_555
O17_2 Co6 1_555 1_555
O3_2 Co6 1_555 1_555
C54_2 C55_2 1_555 1_555
C62_2 C63_2 1_555 1_555
C64_2 C65_2 1_555 1_555
C70_2 C71_2 1_555 1_555
N7 C13_3 1_555 1_555
C12_3 C11_3 1_555 1_555
C13_3 C12_3 1_555 1_555
C14_3 N7 1_555 1_555
H9_3 C14_3 1_555 1_555
C15_3 C11_3 1_555 1_555
H10_3 C15_3 1_555 1_555
O18_2 C48_3 1_555 1_555
C45_3 C44_3 1_555 1_555
H27_3 C45_3 1_555 1_555
C46_3 C45_3 1_555 1_555
H28_3 C46_3 1_555 1_555
H29_3 C47_3 1_555 1_555
C48_3 C44_3 1_555 1_555
C14_3 C15_3 1_555 1_555
C46_3 C47_3 1_555 1_555
C16_3 C10_3 1_555 1_555
H11_3 C16_3 1_555 1_555
C17_3 N2_3 1_555 1_555
C18_3 C17_3 1_555 1_555
C19_3 C18_3 1_555 1_555
H12_3 C19_3 1_555 1_555
N8 C37_3 1_555 1_555
C35_3 C34_3 1_555 1_555
C36_3 C35_3 1_555 1_555
C37_3 C36_3 1_555 1_555
C38_3 N8 1_555 1_555
H23_3 C38_3 1_555 1_555
C39_3 C35_3 1_555 1_555
H24_3 C39_3 1_555 1_555
C40_3 C34_3 1_555 1_555
H25_3 C40_3 1_555 1_555
C41_3 N4_3 1_555 1_555
C42_3 C41_3 1_555 1_555
C43_3 C42_3 1_555 1_555
H26_3 C43_3 1_555 1_555
O16_2 C72_3 1_555 1_555
O19_2 C72_3 1_555 1_555
C64_3 C58_3 1_555 1_555
H39_3 C64_3 1_555 1_555
C65_3 N6_3 1_555 1_555
C66_3 C65_3 1_555 1_555
C67_3 C66_3 1_555 1_555
H40_3 C67_3 1_555 1_555
C68_3 C67_3 1_555 1_555
C69_3 C68_3 1_555 1_555
H41_3 C69_3 1_555 1_555
C70_3 C69_3 1_555 1_555
H42_3 C70_3 1_555 1_555
C71_3 C66_3 1_555 1_555
H43_3 C71_3 1_555 1_555
C72_3 C68_3 1_555 1_555
C16_3 C17_3 1_555 1_555
C38_3 C39_3 1_555 1_555
C40_3 C41_3 1_555 1_555
C64_3 C65_3 1_555 1_555
C70_3 C71_3 1_555 1_555
Co8 O1_6 1_555 1_555
O1_6 H1_6 1_555 1_555
O2_3 Co8 1_555 1_555
O3_3 C1_3 1_555 1_555
C1_3 O2_3 1_555 1_555
C2_3 C1_3 1_555 1_555
C3_3 C2_3 1_555 1_555
H2_3 C3_3 1_555 1_555
C4_3 C3_3 1_555 1_555
C5_3 C4_3 1_555 1_555
H3_3 C5_3 1_555 1_555
C6_3 C5_3 1_555 1_555
C7_3 C2_3 1_555 1_555
H5_3 C7_3 1_555 1_555
C8_3 C4_3 1_555 1_555
C9_3 C8_3 1_555 1_555
H6_3 C9_3 1_555 1_555
Co10 O1_6 1_555 1_555
O6_3 Co10 1_555 1_555
O7_3 Co8 1_555 1_555
C25_3 O6_3 1_555 1_555
C26_3 C25_3 1_555 1_555
C27_3 C26_3 1_555 1_555
H16_3 C27_3 1_555 1_555
C28_3 C27_3 1_555 1_555
C29_3 C28_3 1_555 1_555
H17_3 C29_3 1_555 1_555
C30_3 C29_3 1_555 1_555
C31_3 C26_3 1_555 1_555
H19_3 C31_3 1_555 1_555
C32_3 C28_3 1_555 1_555
C33_3 C32_3 1_555 1_555
H20_3 C33_3 1_555 1_555
Co12 O1_6 1_555 1_555
O10_3 Co12 1_555 1_555
O11_3 Co10 1_555 1_555
C49_3 O10_3 1_555 1_555
C50_3 C49_3 1_555 1_555
C51_3 C50_3 1_555 1_555
H30_3 C51_3 1_555 1_555
C52_3 C51_3 1_555 1_555
C53_3 C52_3 1_555 1_555
H31_3 C53_3 1_555 1_555
C54_3 C53_3 1_555 1_555
H32_3 C54_3 1_555 1_555
C55_3 C50_3 1_555 1_555
H33_3 C55_3 1_555 1_555
C56_3 C52_3 1_555 1_555
C57_3 C56_3 1_555 1_555
H34_3 C57_3 1_555 1_555
O3_3 Co12 1_555 1_555
C6_3 C7_3 1_555 1_555
O7_3 C25_3 1_555 1_555
C30_3 C31_3 1_555 1_555
O11_3 C49_3 1_555 1_555
C54_3 C55_3 1_555 1_555
O17_2 C24_3 1_555 1_555
C21_3 C20_3 1_555 1_555
H13_3 C21_3 1_555 1_555
C22_3 C21_3 1_555 1_555
H14_3 C22_3 1_555 1_555
H15_3 C23_3 1_555 1_555
C24_3 C20_3 1_555 1_555
N9 C61_3 1_555 1_555
C60_3 C59_3 1_555 1_555
C61_3 C60_3 1_555 1_555
C62_3 N9 1_555 1_555
H37_3 C62_3 1_555 1_555
C63_3 C59_3 1_555 1_555
H38_3 C63_3 1_555 1_555
C22_3 C23_3 1_555 1_555
C62_3 C63_3 1_555 1_555

#END
