
###############################################################################
#
# This file contains modified crystal structure data generated from the
# MOF subset of the Cambridge Structural Database (CSD) v543 
# hosted by the Cambridge Crystallographic Data Centre (CCDC).
#
# This work is licensed under the Creative Commons
# Attribution-NonCommercial-ShareAlike 4.0 International License.
# To view a copy of this license, visit
# http://creativecommons.org/licenses/by-nc-sa/4.0/
# or send a letter to
# Creative Commons, PO Box 1866, Mountain View, CA 94042, USA.
#
# CIF created using the CSD Python API on 29 September 2022
# The structure has been converted into the P1 space group
# The structure has a 3D framework
# The original CSD entry NAGROF is in the rhombohedral crystal system
# The original CSD entry NAGROF is in a Sohncke space group
# The framework has been calculated to contain at least 10.0% void space
# The void calculation uses a probe of radius 1.32A, grid spacing 0.4
#
###############################################################################

data_NAGROF
_chemical_formula_moiety         '(C432 H264 Co18 N36 O78)n'
_symmetry_cell_setting           triclinic
_symmetry_space_group_name_H-M   'P 1'
_symmetry_Int_Tables_number      1
_space_group_name_Hall           'P 1'
loop_
_symmetry_equiv_pos_site_id
_symmetry_equiv_pos_as_xyz
1 x,y,z
_cell_length_a                   24.8110(10)
_cell_length_b                   24.8110(10)
_cell_length_c                   21.455(2)
_cell_angle_alpha                90
_cell_angle_beta                 90
_cell_angle_gamma                120
_cell_volume                     11437.9
loop_
_atom_site_label
_atom_site_type_symbol
_atom_site_fract_x
_atom_site_fract_y
_atom_site_fract_z
Co12 Co 0.09408(3) 0.04315(2) 0.25852(3)
O12 O 0.00235(15) 0.89905(11) 0.33340(17)
O13 O 0.09946(17) 0.98086(12) 0.32131(19)
N5 N 0.13958(19) 0.56628(13) 0.40913(17)
C58 C 0.01999(21) 0.61761(15) 0.4152(2)
C59 C 0.04619(23) 0.57508(16) 0.4147(2)
C60 C 0.11096(23) 0.59974(16) 0.4110(2)
H35 H 0.1364 0.6438 0.4096
C61 C 0.10384(25) 0.50361(17) 0.4118(3)
H36 H 0.1232 0.4789 0.4110
C62 C 0.03992(26) 0.47489(18) 0.4156(3)
H37 H 0.0157 0.4308 0.4173
C63 C 0.01058(25) 0.51083(18) 0.4171(3)
C64 C 0.05770(23) 0.68189(16) 0.4132(2)
H39 H 0.1016 0.6998 0.4117
C65 C 0.03170(23) 0.72017(16) 0.4132(2)
C66 C 0.07310(23) 0.78997(16) 0.4061(2)
C67 C 0.04919(23) 0.82541(16) 0.3804(2)
H40 H 0.0061 0.8058 0.3707
C68 C 0.08682(23) 0.88845(16) 0.3690(2)
C69 C 0.15061(25) 0.91752(17) 0.3845(3)
H41 H 0.1770 0.9606 0.3765
C70 C 0.1747(3) 0.8834(2) 0.4114(3)
H42 H 0.2174 0.9032 0.4227
C71 C 0.13566(27) 0.81943(19) 0.4220(3)
H43 H 0.1523 0.7960 0.4403
C72 C 0.06063(21) 0.92584(15) 0.3385(2)
Co5 Co 0.23925(3) 0.61573(2) 0.40815(3)
Co1 Co 0.62352(2) 0.38427(2) 0.59185(3)
O1 O 0.6667 0.3333 0.5929(3)
H1 H 0.6667 0.3333 0.6395
O2 O 0.55543(11) 0.32100(11) 0.52857(18)
O3 O 0.55661(12) 0.23149(11) 0.51765(19)
O4 O 0.10095(11) 0.10330(10) 0.33340(17)
O5 O 0.01914(12) 0.11860(12) 0.32131(19)
N1 N 0.43372(13) 0.57330(14) 0.40913(17)
N2 N 0.30254(13) 0.27179(13) 0.41734(19)
C1 C 0.53308(14) 0.26581(18) 0.5091(2)
C2 C 0.47270(15) 0.23900(17) 0.4734(2)
C3 C 0.44727(16) 0.27722(16) 0.4612(3)
H2 H 0.4692 0.3194 0.4745
C4 C 0.39060(17) 0.25509(16) 0.4301(2)
C5 C 0.3583(2) 0.19300(17) 0.4114(3)
H3 H 0.3194 0.1768 0.3907
C6 C 0.3837(2) 0.15468(19) 0.4234(3)
H4 H 0.3617 0.1124 0.4104
C7 C 0.4399(2) 0.17692(19) 0.4539(3)
H5 H 0.4562 0.1501 0.4615
C8 C 0.36460(16) 0.29799(16) 0.4205(2)
C9 C 0.40600(16) 0.36210(15) 0.4189(2)
H6 H 0.4496 0.3779 0.4203
C10 C 0.38239(15) 0.40238(15) 0.4152(2)
C11 C 0.42492(16) 0.47111(16) 0.4147(2)
C12 C 0.40026(16) 0.51122(16) 0.4110(2)
H7 H 0.3562 0.4926 0.4096
C13 C 0.49639(17) 0.60023(18) 0.4118(3)
H8 H 0.5211 0.6443 0.4110
C14 C 0.52511(18) 0.56503(19) 0.4156(3)
H9 H 0.5692 0.5849 0.4173
C15 C 0.48917(18) 0.49975(18) 0.4171(3)
H10 H 0.5089 0.4754 0.4196
C16 C 0.31811(16) 0.37581(16) 0.4132(2)
H11 H 0.3002 0.4018 0.4117
C17 C 0.27983(16) 0.31153(16) 0.4132(2)
C18 C 0.21003(16) 0.28313(16) 0.4061(2)
C19 C 0.17459(16) 0.22378(16) 0.3804(2)
H12 H 0.1942 0.2003 0.3707
C20 C 0.11155(16) 0.19837(16) 0.3690(2)
C21 C 0.08248(17) 0.23309(19) 0.3845(3)
H13 H 0.0394 0.2164 0.3765
C22 C 0.1166(2) 0.2913(2) 0.4114(3)
H14 H 0.0968 0.3142 0.4227
C23 C 0.18057(19) 0.31623(19) 0.4220(3)
H15 H 0.2040 0.3563 0.4403
C24 C 0.07416(15) 0.13479(14) 0.3385(2)
Co2 Co 0.61573(2) 0.23925(3) 0.59185(3)
O6 O 0.67900(11) 0.23443(16) 0.52857(18)
O7 O 0.76851(11) 0.32512(16) 0.51765(19)
N4 N 0.72821(13) 0.03075(18) 0.41734(19)
C25 C 0.73419(18) 0.26727(23) 0.5091(2)
C26 C 0.76100(17) 0.23370(23) 0.4734(2)
C27 C 0.72278(16) 0.17005(23) 0.4612(3)
H16 H 0.6806 0.1498 0.4745
C28 C 0.74491(16) 0.13551(23) 0.4301(2)
C29 C 0.80700(17) 0.16530(26) 0.4114(3)
H17 H 0.8232 0.1426 0.3907
C30 C 0.84532(19) 0.22902(28) 0.4234(3)
H18 H 0.8876 0.2493 0.4104
C31 C 0.82308(19) 0.26298(28) 0.4539(3)
H19 H 0.8499 0.3061 0.4615
C32 C 0.70201(16) 0.06661(23) 0.4205(2)
C33 C 0.63790(15) 0.04390(22) 0.4189(2)
H20 H 0.6221 0.0717 0.4203
H24 H 0.5246 0.0335 0.4196
Co3 Co 0.76075(3) 0.37648(2) 0.59185(3)
O10 O 0.76557(16) 0.44457(11) 0.52857(18)
O11 O 0.67488(16) 0.44339(12) 0.51765(19)
N6 N 0.96925(18) 0.69746(13) 0.41734(19)
C49 C 0.73273(23) 0.46692(14) 0.5091(2)
C50 C 0.76630(23) 0.52730(15) 0.4734(2)
C51 C 0.82995(23) 0.55273(16) 0.4612(3)
H30 H 0.8502 0.5308 0.4745
C52 C 0.86449(23) 0.60940(17) 0.4301(2)
C53 C 0.83470(26) 0.6417(2) 0.4114(3)
H31 H 0.8574 0.6806 0.3907
C54 C 0.77098(28) 0.6163(2) 0.4234(3)
H32 H 0.7507 0.6383 0.4104
C55 C 0.73702(28) 0.5601(2) 0.4539(3)
H33 H 0.6939 0.5438 0.4615
C56 C 0.93339(23) 0.63540(16) 0.4205(2)
C57 C 0.95610(22) 0.59400(16) 0.4189(2)
H34 H 0.9283 0.5504 0.4203
H38 H 0.9665 0.4911 0.4196
Co4 Co 0.38427(2) 0.62352(2) 0.40815(3)
Co8 Co 0.95685(2) 0.05094(2) 0.25852(3)
Co10 Co 0.94906(2) 0.90592(3) 0.25852(3)
O14 O 0.76762(11) 0.43663(10) 0.66673(17)
O15 O 0.56337(10) 0.33098(15) 0.66673(17)
O16 O 0.66902(15) 0.23238(11) 0.66673(17)
O17 O 0.68581(12) 0.45193(12) 0.65464(19)
O18 O 0.54807(12) 0.23387(17) 0.65464(19)
O19 O 0.76613(17) 0.31419(12) 0.65464(19)
N7 N 0.57330(14) 0.43372(13) 0.59087(17)
N8 N 0.86042(19) 0.42670(14) 0.59087(17)
N9 N 0.56628(13) 0.13958(19) 0.59087(17)
O8 O 0.89670(10) 0.99765(15) 0.33340(17)
O9 O 0.88140(12) 0.90054(17) 0.32131(19)
N3 N 0.42670(14) 0.86042(19) 0.40913(17)
C34 C 0.59762(15) 0.98001(21) 0.4152(2)
C35 C 0.52889(16) 0.95381(23) 0.4147(2)
C36 C 0.48878(16) 0.88904(23) 0.4110(2)
H21 H 0.5074 0.8636 0.4096
C37 C 0.39977(18) 0.89616(25) 0.4118(3)
H22 H 0.3557 0.8768 0.4110
C38 C 0.43497(19) 0.96008(26) 0.4156(3)
H23 H 0.4151 0.9843 0.4173
C39 C 0.50025(18) 0.98942(25) 0.4171(3)
C40 C 0.62419(16) 0.94230(23) 0.4132(2)
H25 H 0.5982 0.8984 0.4117
C41 C 0.68847(16) 0.96830(23) 0.4132(2)
C42 C 0.71687(16) 0.92690(23) 0.4061(2)
C43 C 0.77622(16) 0.95081(23) 0.3804(2)
H26 H 0.7997 0.9939 0.3707
C44 C 0.80163(16) 0.91318(23) 0.3690(2)
C45 C 0.76691(19) 0.84939(25) 0.3845(3)
H27 H 0.7836 0.8230 0.3765
C46 C 0.7087(2) 0.8253(3) 0.4114(3)
H28 H 0.6858 0.7826 0.4227
C47 C 0.68377(19) 0.86434(27) 0.4220(3)
H29 H 0.6437 0.8477 0.4403
C48 C 0.86521(14) 0.93937(21) 0.3385(2)
Co6 Co 0.37648(2) 0.76075(3) 0.40815(3)
Co12_2 Co 0.04315(2) 0.09408(3) 0.74148(3)
O12_2 O 0.89905(11) 0.00235(15) 0.66660(17)
O13_2 O 0.98086(12) 0.09946(17) 0.67869(19)
C58_2 C 0.61761(15) 0.01999(21) 0.5848(2)
C59_2 C 0.57508(16) 0.04619(23) 0.5853(2)
C60_2 C 0.59974(16) 0.11096(23) 0.5890(2)
H35_2 H 0.6438 0.1364 0.5904
C61_2 C 0.50361(17) 0.10384(25) 0.5882(3)
H36_2 H 0.4789 0.1232 0.5890
C62_2 C 0.47489(18) 0.03992(26) 0.5844(3)
H37_2 H 0.4308 0.0157 0.5827
C63_2 C 0.51083(18) 0.01058(25) 0.5829(3)
C64_2 C 0.68189(16) 0.05770(23) 0.5868(2)
H39_2 H 0.6998 0.1016 0.5883
C65_2 C 0.72017(16) 0.03170(23) 0.5868(2)
C66_2 C 0.78997(16) 0.07310(23) 0.5939(2)
C67_2 C 0.82541(16) 0.04919(23) 0.6196(2)
H40_2 H 0.8058 0.0061 0.6293
C68_2 C 0.88845(16) 0.08682(23) 0.6310(2)
C69_2 C 0.91752(17) 0.15061(25) 0.6155(3)
H41_2 H 0.9606 0.1770 0.6235
C70_2 C 0.8834(2) 0.1747(3) 0.5886(3)
H42_2 H 0.9032 0.2174 0.5773
C71_2 C 0.81943(19) 0.13566(27) 0.5780(3)
H43_2 H 0.7960 0.1523 0.5597
C72_2 C 0.92584(15) 0.06063(21) 0.6615(2)
O1_2 O 0.3333 0.6667 0.4071(3)
H1_2 H 0.3333 0.6667 0.3605
O2_2 O 0.32100(11) 0.55543(11) 0.47143(18)
O3_2 O 0.23149(11) 0.55661(12) 0.48235(19)
O4_2 O 0.10330(10) 0.10095(11) 0.66660(17)
O5_2 O 0.11860(12) 0.01914(12) 0.67869(19)
N2_2 N 0.27179(13) 0.30254(13) 0.58266(19)
C1_2 C 0.26581(18) 0.53308(14) 0.4909(2)
C2_2 C 0.23900(17) 0.47270(15) 0.5266(2)
C3_2 C 0.27722(16) 0.44727(16) 0.5388(3)
H2_2 H 0.3194 0.4692 0.5255
C4_2 C 0.25509(16) 0.39060(17) 0.5699(2)
C5_2 C 0.19300(17) 0.3583(2) 0.5886(3)
H3_2 H 0.1768 0.3194 0.6093
C6_2 C 0.15468(19) 0.3837(2) 0.5766(3)
H4_2 H 0.1124 0.3617 0.5896
C7_2 C 0.17692(19) 0.4399(2) 0.5461(3)
H5_2 H 0.1501 0.4562 0.5385
C8_2 C 0.29799(16) 0.36460(16) 0.5795(2)
C9_2 C 0.36210(15) 0.40600(16) 0.5811(2)
H6_2 H 0.3779 0.4496 0.5797
C10_2 C 0.40238(15) 0.38239(15) 0.5848(2)
C11_2 C 0.47111(16) 0.42492(16) 0.5853(2)
C12_2 C 0.51122(16) 0.40026(16) 0.5890(2)
H7_2 H 0.4926 0.3562 0.5904
C13_2 C 0.60023(18) 0.49639(17) 0.5882(3)
H8_2 H 0.6443 0.5211 0.5890
C14_2 C 0.56503(19) 0.52511(18) 0.5844(3)
H9_2 H 0.5849 0.5692 0.5827
C15_2 C 0.49975(18) 0.48917(18) 0.5829(3)
H10_2 H 0.4754 0.5089 0.5804
C16_2 C 0.37581(16) 0.31811(16) 0.5868(2)
H11_2 H 0.4018 0.3002 0.5883
C17_2 C 0.31153(16) 0.27983(16) 0.5868(2)
C18_2 C 0.28313(16) 0.21003(16) 0.5939(2)
C19_2 C 0.22378(16) 0.17459(16) 0.6196(2)
H12_2 H 0.2003 0.1942 0.6293
C20_2 C 0.19837(16) 0.11155(16) 0.6310(2)
C21_2 C 0.23309(19) 0.08248(17) 0.6155(3)
H13_2 H 0.2164 0.0394 0.6235
C22_2 C 0.2913(2) 0.1166(2) 0.5886(3)
H14_2 H 0.3142 0.0968 0.5773
C23_2 C 0.31623(19) 0.18057(19) 0.5780(3)
H15_2 H 0.3563 0.2040 0.5597
C24_2 C 0.13479(14) 0.07416(15) 0.6615(2)
O6_2 O 0.23443(16) 0.67900(11) 0.47143(18)
O7_2 O 0.32512(16) 0.76851(11) 0.48235(19)
N4_2 N 0.03075(18) 0.72821(13) 0.58266(19)
C25_2 C 0.26727(23) 0.73419(18) 0.4909(2)
C26_2 C 0.23370(23) 0.76100(17) 0.5266(2)
C27_2 C 0.17005(23) 0.72278(16) 0.5388(3)
H16_2 H 0.1498 0.6806 0.5255
C28_2 C 0.13551(23) 0.74491(16) 0.5699(2)
C29_2 C 0.16530(26) 0.80700(17) 0.5886(3)
H17_2 H 0.1426 0.8232 0.6093
C30_2 C 0.22902(28) 0.84532(19) 0.5766(3)
H18_2 H 0.2493 0.8876 0.5896
C31_2 C 0.26298(28) 0.82308(19) 0.5461(3)
H19_2 H 0.3061 0.8499 0.5385
C32_2 C 0.06661(23) 0.70201(16) 0.5795(2)
C33_2 C 0.04390(22) 0.63790(15) 0.5811(2)
H20_2 H 0.0717 0.6221 0.5797
H24_2 H 0.0335 0.5246 0.5804
O10_2 O 0.44457(11) 0.76557(16) 0.47143(18)
O11_2 O 0.44339(12) 0.67488(16) 0.48235(19)
N6_2 N 0.69746(13) 0.96925(18) 0.58266(19)
C49_2 C 0.46692(14) 0.73273(23) 0.4909(2)
C50_2 C 0.52730(15) 0.76630(23) 0.5266(2)
C51_2 C 0.55273(16) 0.82995(23) 0.5388(3)
H30_2 H 0.5308 0.8502 0.5255
C52_2 C 0.60940(17) 0.86449(23) 0.5699(2)
C53_2 C 0.6417(2) 0.83470(26) 0.5886(3)
H31_2 H 0.6806 0.8574 0.6093
C54_2 C 0.6163(2) 0.77098(28) 0.5766(3)
H32_2 H 0.6383 0.7507 0.5896
C55_2 C 0.5601(2) 0.73702(28) 0.5461(3)
H33_2 H 0.5438 0.6939 0.5385
C56_2 C 0.63540(16) 0.93339(23) 0.5795(2)
C57_2 C 0.59400(16) 0.95610(22) 0.5811(2)
H34_2 H 0.5504 0.9283 0.5797
H38_2 H 0.4911 0.9665 0.5804
Co8_2 Co 0.05094(2) 0.95685(2) 0.74148(3)
Co10_2 Co 0.90592(3) 0.94906(2) 0.74148(3)
O14_2 O 0.43663(10) 0.76762(11) 0.33327(17)
O15_2 O 0.33098(15) 0.56337(10) 0.33327(17)
O16_2 O 0.23238(11) 0.66902(15) 0.33327(17)
O17_2 O 0.45193(12) 0.68581(12) 0.34536(19)
O18_2 O 0.23387(17) 0.54807(12) 0.34536(19)
O19_2 O 0.31419(12) 0.76613(17) 0.34536(19)
O8_2 O 0.99765(15) 0.89670(10) 0.66660(17)
O9_2 O 0.90054(17) 0.88140(12) 0.67869(19)
C34_2 C 0.98001(21) 0.59762(15) 0.5848(2)
C35_2 C 0.95381(23) 0.52889(16) 0.5853(2)
C36_2 C 0.88904(23) 0.48878(16) 0.5890(2)
H21_2 H 0.8636 0.5074 0.5904
C37_2 C 0.89616(25) 0.39977(18) 0.5882(3)
H22_2 H 0.8768 0.3557 0.5890
C38_2 C 0.96008(26) 0.43497(19) 0.5844(3)
H23_2 H 0.9843 0.4151 0.5827
C39_2 C 0.98942(25) 0.50025(18) 0.5829(3)
C40_2 C 0.94230(23) 0.62419(16) 0.5868(2)
H25_2 H 0.8984 0.5982 0.5883
C41_2 C 0.96830(23) 0.68847(16) 0.5868(2)
C42_2 C 0.92690(23) 0.71687(16) 0.5939(2)
C43_2 C 0.95081(23) 0.77622(16) 0.6196(2)
H26_2 H 0.9939 0.7997 0.6293
C44_2 C 0.91318(23) 0.80163(16) 0.6310(2)
C45_2 C 0.84939(25) 0.76691(19) 0.6155(3)
H27_2 H 0.8230 0.7836 0.6235
C46_2 C 0.8253(3) 0.7087(2) 0.5886(3)
H28_2 H 0.7826 0.6858 0.5773
C47_2 C 0.86434(27) 0.68377(19) 0.5780(3)
H29_2 H 0.8477 0.6437 0.5597
C48_2 C 0.93937(21) 0.86521(14) 0.6615(2)
N6_3 N 0.63592(18) 0.03079(13) 0.75067(19)
H31_3 H 0.5241 0.0139 0.7240
C64_3 C 0.72437(23) 0.01522(16) 0.7465(2)
H39_3 H 0.7683 0.0331 0.7450
C65_3 C 0.69837(23) 0.05350(16) 0.7465(2)
C66_3 C 0.73977(23) 0.12330(16) 0.7394(2)
C67_3 C 0.71586(23) 0.15874(16) 0.7137(2)
H40_3 H 0.6728 0.1391 0.7040
C68_3 C 0.75349(23) 0.22178(16) 0.7023(2)
C69_3 C 0.81728(25) 0.25085(17) 0.7178(3)
H41_3 H 0.8437 0.2939 0.7098
C70_3 C 0.8414(3) 0.2167(2) 0.7447(3)
H42_3 H 0.8841 0.2365 0.7560
C71_3 C 0.80233(27) 0.15276(19) 0.7553(3)
H43_3 H 0.8190 0.1293 0.7736
C72_3 C 0.72730(21) 0.25917(15) 0.6718(2)
O14_3 O 0.43428(11) 0.76997(10) 0.00007(17)
O15_3 O 0.23003(10) 0.66432(15) 0.00007(17)
O16_3 O 0.33568(15) 0.56572(11) 0.00007(17)
Co1_2 Co 0.29019(2) 0.71760(2) 0.92518(3)
O1_3 O 0.3334 0.6666 0.9262(3)
H1_3 H 0.3334 0.6666 0.9728
O2_3 O 0.22210(11) 0.65433(11) 0.86190(18)
O3_3 O 0.22328(12) 0.56482(11) 0.85098(19)
N1_2 N 0.10039(13) 0.90663(14) 0.74246(17)
C1_3 C 0.19975(14) 0.59914(18) 0.8424(2)
C2_3 C 0.13937(15) 0.57233(17) 0.8067(2)
C3_3 C 0.11394(16) 0.61055(16) 0.7945(3)
H2_3 H 0.1359 0.6527 0.8078
C4_3 C 0.05727(17) 0.58842(16) 0.7634(2)
C5_3 C 0.0250(2) 0.52633(17) 0.7447(3)
C6_3 C 0.0504(2) 0.48801(19) 0.7567(3)
H4_3 H 0.0284 0.4457 0.7437
C7_3 C 0.1066(2) 0.51025(19) 0.7872(3)
H5_3 H 0.1229 0.4834 0.7948
C8_3 C 0.03127(16) 0.63132(16) 0.7538(2)
C9_3 C 0.07267(16) 0.69543(15) 0.7522(2)
H6_3 H 0.1163 0.7112 0.7536
C10_3 C 0.04906(15) 0.73571(15) 0.7485(2)
C11_3 C 0.09159(16) 0.80444(16) 0.7480(2)
C12_3 C 0.06693(16) 0.84455(16) 0.7443(2)
H7_3 H 0.0229 0.8259 0.7429
C13_3 C 0.16306(17) 0.93356(18) 0.7451(3)
H8_3 H 0.1878 0.9776 0.7443
C14_3 C 0.19178(18) 0.89836(19) 0.7489(3)
H9_3 H 0.2359 0.9182 0.7506
C15_3 C 0.15584(18) 0.83308(18) 0.7504(3)
H10_3 H 0.1756 0.8087 0.7529
Co2_2 Co 0.28240(2) 0.57258(3) 0.92518(3)
O6_3 O 0.34567(11) 0.56776(16) 0.86190(18)
O7_3 O 0.43518(11) 0.65845(16) 0.85098(19)
N3_2 N 0.09337(14) 0.19375(19) 0.74246(17)
N4_3 N 0.39488(13) 0.36408(18) 0.75067(19)
C25_3 C 0.40086(18) 0.60060(23) 0.8424(2)
C26_3 C 0.42767(17) 0.56703(23) 0.8067(2)
C27_3 C 0.38945(16) 0.50338(23) 0.7945(3)
H16_3 H 0.3473 0.4831 0.8078
C28_3 C 0.41158(16) 0.46884(23) 0.7634(2)
C29_3 C 0.47367(17) 0.49863(26) 0.7447(3)
H17_3 H 0.4899 0.4759 0.7240
C30_3 C 0.51199(19) 0.56235(28) 0.7567(3)
H18_3 H 0.5543 0.5826 0.7437
C31_3 C 0.48975(19) 0.59631(28) 0.7872(3)
H19_3 H 0.5166 0.6394 0.7948
C32_3 C 0.36868(16) 0.39994(23) 0.7538(2)
C33_3 C 0.30457(15) 0.37723(22) 0.7522(2)
H20_3 H 0.2888 0.4050 0.7536
C34_3 C 0.26429(15) 0.31334(21) 0.7485(2)
C35_3 C 0.19556(16) 0.28714(23) 0.7480(2)
C36_3 C 0.15545(16) 0.22237(23) 0.7443(2)
H21_3 H 0.1741 0.1969 0.7429
C37_3 C 0.06644(18) 0.22949(25) 0.7451(3)
H22_3 H 0.0224 0.2101 0.7443
C38_3 C 0.10164(19) 0.29341(26) 0.7489(3)
H23_3 H 0.0818 0.3176 0.7506
C39_3 C 0.16692(18) 0.32275(25) 0.7504(3)
H24_3 H 0.1913 0.3668 0.7529
C40_3 C 0.29086(16) 0.27563(23) 0.7465(2)
H25_3 H 0.2649 0.2317 0.7450
C41_3 C 0.35514(16) 0.30163(23) 0.7465(2)
C42_3 C 0.38354(16) 0.26023(23) 0.7394(2)
C43_3 C 0.44289(16) 0.28414(23) 0.7137(2)
H26_3 H 0.4664 0.3272 0.7040
C44_3 C 0.46830(16) 0.24651(23) 0.7023(2)
C45_3 C 0.43358(19) 0.18272(25) 0.7178(3)
H27_3 H 0.4503 0.1563 0.7098
C46_3 C 0.3754(2) 0.1586(3) 0.7447(3)
H28_3 H 0.3525 0.1159 0.7560
C47_3 C 0.35044(19) 0.19767(27) 0.7553(3)
H29_3 H 0.3104 0.1810 0.7736
C48_3 C 0.53188(14) 0.27270(21) 0.6718(2)
Co3_2 Co 0.42742(3) 0.70981(2) 0.92518(3)
O10_3 O 0.43224(16) 0.77790(11) 0.86190(18)
O11_3 O 0.34155(16) 0.77672(12) 0.85098(19)
N5_2 N 0.80625(19) 0.89961(13) 0.74246(17)
C49_3 C 0.39940(23) 0.80025(14) 0.8424(2)
C50_3 C 0.43297(23) 0.86063(15) 0.8067(2)
C51_3 C 0.49662(23) 0.88606(16) 0.7945(3)
H30_3 H 0.5169 0.8641 0.8078
C52_3 C 0.53116(23) 0.94273(17) 0.7634(2)
C53_3 C 0.50137(26) 0.9750(2) 0.7447(3)
C54_3 C 0.43765(28) 0.9496(2) 0.7567(3)
H32_3 H 0.4174 0.9716 0.7437
C55_3 C 0.40369(28) 0.8934(2) 0.7872(3)
H33_3 H 0.3606 0.8771 0.7948
C56_3 C 0.60006(23) 0.96873(16) 0.7538(2)
C57_3 C 0.62277(22) 0.92733(16) 0.7522(2)
H34_3 H 0.5950 0.8837 0.7536
C58_3 C 0.68666(21) 0.95094(15) 0.7485(2)
C59_3 C 0.71286(23) 0.90841(16) 0.7480(2)
C60_3 C 0.77763(23) 0.93307(16) 0.7443(2)
H35_3 H 0.8031 0.9771 0.7429
C61_3 C 0.77051(25) 0.83694(17) 0.7451(3)
H36_3 H 0.7899 0.8122 0.7443
C62_3 C 0.70659(26) 0.80822(18) 0.7489(3)
H37_3 H 0.6824 0.7641 0.7506
C63_3 C 0.67725(25) 0.84416(18) 0.7504(3)
H38_3 H 0.6332 0.8244 0.7529
O17_3 O 0.35247(12) 0.78527(12) 0.98798(19)
O18_3 O 0.21473(12) 0.56721(17) 0.98798(19)
O19_3 O 0.43279(17) 0.64753(12) 0.98798(19)
N7_2 N 0.23997(14) 0.76705(13) 0.92420(17)
N8_2 N 0.52709(19) 0.76003(14) 0.92420(17)
N9_2 N 0.23295(13) 0.47291(19) 0.92420(17)
N2_3 N 0.96921(13) 0.60512(13) 0.75067(19)
H3_3 H 0.9861 0.5101 0.7240
C16_3 C 0.98478(16) 0.70914(16) 0.7465(2)
H11_3 H 0.9669 0.7351 0.7450
C17_3 C 0.94650(16) 0.64486(16) 0.7465(2)
C18_3 C 0.87670(16) 0.61646(16) 0.7394(2)
C19_3 C 0.84126(16) 0.55711(16) 0.7137(2)
H12_3 H 0.8609 0.5336 0.7040
C20_3 C 0.77822(16) 0.53170(16) 0.7023(2)
C21_3 C 0.74915(17) 0.56642(19) 0.7178(3)
H13_3 H 0.7061 0.5497 0.7098
C22_3 C 0.7833(2) 0.6246(2) 0.7447(3)
H14_3 H 0.7635 0.6475 0.7560
C23_3 C 0.84724(19) 0.64956(19) 0.7553(3)
H15_3 H 0.8707 0.6896 0.7736
C24_3 C 0.74083(15) 0.46812(14) 0.6718(2)
O13_3 O 0.64753(12) 0.43279(17) 0.01202(19)
Co10_3 Co 0.57258(3) 0.28240(2) 0.07482(3)
Co12_3 Co 0.70981(2) 0.42742(3) 0.07482(3)
O1_4 O -0.0000 0.0000 0.7404(3)
H1_4 H -0.0000 0.0000 0.6938
O10_4 O 0.11124(11) 0.09890(16) 0.80476(18)
O11_4 O 0.11006(12) 0.00821(16) 0.81568(19)
O12_3 O 0.56572(11) 0.33568(15) 0.99993(17)
N6_4 N 0.36413(13) 0.30258(18) 0.91599(19)
C49_4 C 0.13359(14) 0.06606(23) 0.8242(2)
C50_4 C 0.19397(15) 0.09963(23) 0.8599(2)
C51_4 C 0.21940(16) 0.16328(23) 0.8721(3)
H30_4 H 0.1975 0.1835 0.8588
C52_4 C 0.27607(17) 0.19782(23) 0.9032(2)
C53_4 C 0.3084(2) 0.16803(26) 0.9219(3)
H31_4 H 0.3473 0.1907 0.9426
C54_4 C 0.2830(2) 0.10431(28) 0.9099(3)
H32_4 H 0.3050 0.0840 0.9229
C55_4 C 0.2268(2) 0.07035(28) 0.8794(3)
H33_4 H 0.2105 0.0272 0.8718
C56_4 C 0.30207(16) 0.26672(23) 0.9128(2)
C57_4 C 0.26067(16) 0.28943(22) 0.9144(2)
H34_4 H 0.2171 0.2616 0.9130
C58_4 C 0.28428(15) 0.35332(21) 0.9181(2)
C59_4 C 0.24175(16) 0.37952(23) 0.9186(2)
C60_4 C 0.26641(16) 0.44429(23) 0.9223(2)
H35_4 H 0.3105 0.4697 0.9237
C61_4 C 0.17028(17) 0.43717(25) 0.9215(3)
H36_4 H 0.1456 0.4565 0.9223
C62_4 C 0.14156(18) 0.37325(26) 0.9177(3)
H37_4 H 0.0975 0.3490 0.9160
C63_4 C 0.17750(18) 0.34391(25) 0.9162(3)
H38_4 H 0.1578 0.2998 0.9137
C64_4 C 0.34856(16) 0.39103(23) 0.9201(2)
H39_4 H 0.3665 0.4349 0.9216
C65_4 C 0.38684(16) 0.36503(23) 0.9201(2)
C66_4 C 0.45664(16) 0.40643(23) 0.9272(2)
C67_4 C 0.49208(16) 0.38252(23) 0.9529(2)
H40_4 H 0.4725 0.3394 0.9626
C68_4 C 0.55512(16) 0.42015(23) 0.9643(2)
C69_4 C 0.58419(17) 0.48394(25) 0.9488(3)
H41_4 H 0.6273 0.5103 0.9568
C70_4 C 0.5501(2) 0.5080(3) 0.9219(3)
H42_4 H 0.5699 0.5507 0.9106
C71_4 C 0.48610(19) 0.46899(27) 0.9113(3)
H43_4 H 0.4627 0.4856 0.8930
C72_4 C 0.59251(15) 0.39396(21) 0.9948(2)
O1_5 O -0.0000 1.0000 0.7404(3)
H1_5 H -0.0000 1.0000 0.6938
C9_4 C 0.02877(15) 0.73933(16) 0.9144(2)
H6_4 H 0.0446 0.7829 0.9130
C10_4 C 0.06905(15) 0.71572(15) 0.9181(2)
C11_4 C 0.13778(16) 0.75825(16) 0.9186(2)
C12_4 C 0.17789(16) 0.73359(16) 0.9223(2)
H7_4 H 0.1593 0.6895 0.9237
C13_4 C 0.26690(18) 0.82972(17) 0.9215(3)
H8_4 H 0.3110 0.8544 0.9223
C14_4 C 0.23170(19) 0.85844(18) 0.9177(3)
H9_4 H 0.2516 0.9025 0.9160
C15_4 C 0.16642(18) 0.82250(18) 0.9162(3)
H10_4 H 0.1421 0.8422 0.9137
C16_4 C 0.04248(16) 0.65144(16) 0.9201(2)
H11_4 H 0.0685 0.6335 0.9216
H15_4 H 0.0230 0.5373 0.8930
O9_3 O 0.56721(17) 0.21473(12) 0.01202(19)
Co8_3 Co 0.71760(2) 0.29019(2) 0.07482(3)
O1_6 O 1.0000 0.0000 0.7404(3)
H1_6 H 1.0000 0.0000 0.6938
O6_4 O 0.90110(16) 0.01233(11) 0.80476(18)
O7_4 O 0.99179(16) 0.10184(11) 0.81568(19)
O8_3 O 0.66432(15) 0.23003(10) 0.99993(17)
N4_4 N 0.69742(18) 0.06154(13) 0.91599(19)
C25_4 C 0.93394(23) 0.06752(18) 0.8242(2)
C26_4 C 0.90037(23) 0.09433(17) 0.8599(2)
C27_4 C 0.83672(23) 0.05611(16) 0.8721(3)
H16_4 H 0.8165 0.0139 0.8588
C28_4 C 0.80218(23) 0.07824(16) 0.9032(2)
C29_4 C 0.83197(26) 0.14033(17) 0.9219(3)
H17_4 H 0.8093 0.1565 0.9426
C30_4 C 0.89569(28) 0.17865(19) 0.9099(3)
H18_4 H 0.9160 0.2209 0.9229
C31_4 C 0.92965(28) 0.15641(19) 0.8794(3)
H19_4 H 0.9728 0.1832 0.8718
C32_4 C 0.73328(23) 0.03534(16) 0.9128(2)
C41_4 C 0.63497(23) 0.02180(16) 0.9201(2)
C42_4 C 0.59357(23) 0.05020(16) 0.9272(2)
C43_4 C 0.61748(23) 0.10955(16) 0.9529(2)
H26_4 H 0.6606 0.1330 0.9626
C44_4 C 0.57985(23) 0.13496(16) 0.9643(2)
C45_4 C 0.51606(25) 0.10024(19) 0.9488(3)
H27_4 H 0.4897 0.1169 0.9568
C46_4 C 0.4920(3) 0.0420(2) 0.9219(3)
H28_4 H 0.4493 0.0191 0.9106
C47_4 C 0.53101(27) 0.01710(19) 0.9113(3)
C48_4 C 0.60604(21) 0.19854(14) 0.9948(2)
O5_3 O 0.78527(12) 0.35247(12) 0.01202(19)
O1_7 O 1.0000 1.0000 0.7404(3)
H1_7 H 1.0000 1.0000 0.6938
O2_4 O 0.98767(11) 0.88876(11) 0.80476(18)
O3_4 O 0.89816(11) 0.88994(12) 0.81568(19)
O4_3 O 0.76997(10) 0.43428(11) 0.99993(17)
N2_4 N 0.93846(13) 0.63587(13) 0.91599(19)
C1_4 C 0.93248(18) 0.86641(14) 0.8242(2)
C2_4 C 0.90567(17) 0.80603(15) 0.8599(2)
C3_4 C 0.94389(16) 0.78060(16) 0.8721(3)
H2_4 H 0.9861 0.8025 0.8588
C4_4 C 0.92176(16) 0.72393(17) 0.9032(2)
C5_4 C 0.85967(17) 0.6916(2) 0.9219(3)
H3_4 H 0.8435 0.6527 0.9426
C6_4 C 0.82135(19) 0.7170(2) 0.9099(3)
H4_4 H 0.7791 0.6950 0.9229
C7_4 C 0.84359(19) 0.7732(2) 0.8794(3)
H5_4 H 0.8168 0.7895 0.8718
C8_4 C 0.96466(16) 0.69793(16) 0.9128(2)
C17_4 C 0.97820(16) 0.61316(16) 0.9201(2)
C18_4 C 0.94980(16) 0.54336(16) 0.9272(2)
C19_4 C 0.89045(16) 0.50792(16) 0.9529(2)
H12_4 H 0.8670 0.5275 0.9626
C20_4 C 0.86504(16) 0.44488(16) 0.9643(2)
C21_4 C 0.89976(19) 0.41581(17) 0.9488(3)
H13_4 H 0.8831 0.3727 0.9568
C22_4 C 0.9580(2) 0.4499(2) 0.9219(3)
H14_4 H 0.9809 0.4301 0.9106
C23_4 C 0.98290(19) 0.51390(19) 0.9113(3)
C24_4 C 0.80146(14) 0.40749(15) 0.9948(2)
C33_4 C 0.71057(22) 0.97123(15) 0.9144(2)
H20_4 H 0.7384 0.9554 0.9130
C34_4 C 0.64668(21) 0.93095(15) 0.9181(2)
C35_4 C 0.62048(23) 0.86222(16) 0.9186(2)
C36_4 C 0.55571(23) 0.82211(16) 0.9223(2)
H21_4 H 0.5303 0.8407 0.9237
C37_4 C 0.56283(25) 0.73310(18) 0.9215(3)
H22_4 H 0.5435 0.6890 0.9223
C38_4 C 0.62675(26) 0.76830(19) 0.9177(3)
H23_4 H 0.6510 0.7484 0.9160
C39_4 C 0.65609(25) 0.83358(18) 0.9162(3)
H24_4 H 0.7002 0.8579 0.9137
C40_4 C 0.60897(23) 0.95752(16) 0.9201(2)
H25_4 H 0.5651 0.9315 0.9216
H29_4 H 0.5144 0.9770 0.8930
O1_8 O 0.0000 -0.0000 0.2596(3)
H1_8 H 0.0000 -0.0000 0.3062
O10_5 O 0.09890(16) 0.11124(11) 0.19524(18)
O11_5 O 0.00821(16) 0.11006(12) 0.18432(19)
N5_3 N 0.47291(19) 0.23295(13) 0.07580(17)
N6_5 N 0.30258(18) 0.36413(13) 0.08401(19)
C49_5 C 0.06606(23) 0.13359(14) 0.1758(2)
C50_5 C 0.09963(23) 0.19397(15) 0.1401(2)
C51_5 C 0.16328(23) 0.21940(16) 0.1279(3)
H30_5 H 0.1835 0.1975 0.1412
C52_5 C 0.19782(23) 0.27607(17) 0.0968(2)
C53_5 C 0.16803(26) 0.3084(2) 0.0781(3)
H31_5 H 0.1907 0.3473 0.0574
C54_5 C 0.10431(28) 0.2830(2) 0.0901(3)
H32_5 H 0.0840 0.3050 0.0771
C55_5 C 0.07035(28) 0.2268(2) 0.1206(3)
H33_5 H 0.0272 0.2105 0.1282
C56_5 C 0.26672(23) 0.30207(16) 0.0872(2)
C57_5 C 0.28943(22) 0.26067(16) 0.0856(2)
H34_5 H 0.2616 0.2171 0.0870
C58_5 C 0.35332(21) 0.28428(15) 0.0819(2)
C59_5 C 0.37952(23) 0.24175(16) 0.0814(2)
C60_5 C 0.44429(23) 0.26641(16) 0.0777(2)
H35_5 H 0.4697 0.3105 0.0763
C61_5 C 0.43717(25) 0.17028(17) 0.0785(3)
H36_5 H 0.4565 0.1456 0.0777
C62_5 C 0.37325(26) 0.14156(18) 0.0823(3)
H37_5 H 0.3490 0.0975 0.0840
C63_5 C 0.34391(25) 0.17750(18) 0.0838(3)
H38_5 H 0.2998 0.1578 0.0863
C64_5 C 0.39103(23) 0.34856(16) 0.0799(2)
H39_5 H 0.4349 0.3665 0.0784
C65_5 C 0.36503(23) 0.38684(16) 0.0799(2)
C66_5 C 0.40643(23) 0.45664(16) 0.0728(2)
C67_5 C 0.38252(23) 0.49208(16) 0.0471(2)
H40_5 H 0.3394 0.4725 0.0374
C68_5 C 0.42015(23) 0.55512(16) 0.0357(2)
C69_5 C 0.48394(25) 0.58419(17) 0.0512(3)
H41_5 H 0.5103 0.6273 0.0432
C70_5 C 0.5080(3) 0.5501(2) 0.0781(3)
H42_5 H 0.5507 0.5699 0.0894
C71_5 C 0.46899(27) 0.48610(19) 0.0887(3)
H43_5 H 0.4856 0.4627 0.1070
C72_5 C 0.39396(21) 0.59251(15) 0.0052(2)
N8_3 N 0.19375(19) 0.09337(14) 0.25754(17)
O1_9 O 0.0000 1.0000 0.2596(3)
H1_9 H 0.0000 1.0000 0.3062
O6_5 O 0.01233(11) 0.90110(16) 0.19524(18)
O7_5 O 0.10184(11) 0.99179(16) 0.18432(19)
N4_5 N 0.06154(13) 0.69742(18) 0.08401(19)
C25_5 C 0.06752(18) 0.93394(23) 0.1758(2)
C26_5 C 0.09433(17) 0.90037(23) 0.1401(2)
C27_5 C 0.05611(16) 0.83672(23) 0.1279(3)
H16_5 H 0.0139 0.8165 0.1412
C28_5 C 0.07824(16) 0.80218(23) 0.0968(2)
C29_5 C 0.14033(17) 0.83197(26) 0.0781(3)
H17_5 H 0.1565 0.8093 0.0574
C30_5 C 0.17865(19) 0.89569(28) 0.0901(3)
H18_5 H 0.2209 0.9160 0.0771
C31_5 C 0.15641(19) 0.92965(28) 0.1206(3)
H19_5 H 0.1832 0.9728 0.1282
C32_5 C 0.03534(16) 0.73328(23) 0.0872(2)
C41_5 C 0.02180(16) 0.63497(23) 0.0799(2)
C42_5 C 0.05020(16) 0.59357(23) 0.0728(2)
C43_5 C 0.10955(16) 0.61748(23) 0.0471(2)
H26_5 H 0.1330 0.6606 0.0374
C44_5 C 0.13496(16) 0.57985(23) 0.0357(2)
C45_5 C 0.10024(19) 0.51606(25) 0.0512(3)
H27_5 H 0.1169 0.4897 0.0432
C46_5 C 0.0420(2) 0.4920(3) 0.0781(3)
H28_5 H 0.0191 0.4493 0.0894
C47_5 C 0.01710(19) 0.53101(27) 0.0887(3)
C48_5 C 0.19854(14) 0.60604(21) 0.0052(2)
O1_10 O 1.0000 -0.0000 0.2596(3)
H1_10 H 1.0000 -0.0000 0.3062
N1_3 N 0.76705(13) 0.23997(14) 0.07580(17)
C9_5 C 0.73933(16) 0.02877(15) 0.0856(2)
H6_5 H 0.7829 0.0446 0.0870
C10_5 C 0.71572(15) 0.06905(15) 0.0819(2)
C11_5 C 0.75825(16) 0.13778(16) 0.0814(2)
C12_5 C 0.73359(16) 0.17789(16) 0.0777(2)
H7_5 H 0.6895 0.1593 0.0763
C13_5 C 0.82972(17) 0.26690(18) 0.0785(3)
H8_5 H 0.8544 0.3110 0.0777
C14_5 C 0.85844(18) 0.23170(19) 0.0823(3)
H9_5 H 0.9025 0.2516 0.0840
C15_5 C 0.82250(18) 0.16642(18) 0.0838(3)
H10_5 H 0.8422 0.1421 0.0863
C16_5 C 0.65144(16) 0.04248(16) 0.0799(2)
H11_5 H 0.6335 0.0685 0.0784
H15_5 H 0.5373 0.0230 0.1070
N7_3 N 0.90663(14) 0.10039(13) 0.25754(17)
O1_11 O 1.0000 1.0000 0.2596(3)
H1_11 H 1.0000 1.0000 0.3062
O2_5 O 0.88876(11) 0.98767(11) 0.19524(18)
O3_5 O 0.88994(12) 0.89816(11) 0.18432(19)
N2_5 N 0.63587(13) 0.93846(13) 0.08401(19)
C1_5 C 0.86641(14) 0.93248(18) 0.1758(2)
C2_5 C 0.80603(15) 0.90567(17) 0.1401(2)
C3_5 C 0.78060(16) 0.94389(16) 0.1279(3)
H2_5 H 0.8025 0.9861 0.1412
C4_5 C 0.72393(17) 0.92176(16) 0.0968(2)
C5_5 C 0.6916(2) 0.85967(17) 0.0781(3)
H3_5 H 0.6527 0.8435 0.0574
C6_5 C 0.7170(2) 0.82135(19) 0.0901(3)
H4_5 H 0.6950 0.7791 0.0771
C7_5 C 0.7732(2) 0.84359(19) 0.1206(3)
H5_5 H 0.7895 0.8168 0.1282
C8_5 C 0.69793(16) 0.96466(16) 0.0872(2)
C17_5 C 0.61316(16) 0.97820(16) 0.0799(2)
C18_5 C 0.54336(16) 0.94980(16) 0.0728(2)
C19_5 C 0.50792(16) 0.89045(16) 0.0471(2)
H12_5 H 0.5275 0.8670 0.0374
C20_5 C 0.44488(16) 0.86504(16) 0.0357(2)
C21_5 C 0.41581(17) 0.89976(19) 0.0512(3)
H13_5 H 0.3727 0.8831 0.0432
C22_5 C 0.4499(2) 0.9580(2) 0.0781(3)
H14_5 H 0.4301 0.9809 0.0894
C23_5 C 0.51390(19) 0.98290(19) 0.0887(3)
C24_5 C 0.40749(15) 0.80146(14) 0.0052(2)
N3_3 N 0.76003(14) 0.52709(19) 0.07580(17)
C33_5 C 0.97123(15) 0.71057(22) 0.0856(2)
H20_5 H 0.9554 0.7384 0.0870
C34_5 C 0.93095(15) 0.64668(21) 0.0819(2)
C35_5 C 0.86222(16) 0.62048(23) 0.0814(2)
C36_5 C 0.82211(16) 0.55571(23) 0.0777(2)
H21_5 H 0.8407 0.5303 0.0763
C37_5 C 0.73310(18) 0.56283(25) 0.0785(3)
H22_5 H 0.6890 0.5435 0.0777
C38_5 C 0.76830(19) 0.62675(26) 0.0823(3)
H23_5 H 0.7484 0.6510 0.0840
C39_5 C 0.83358(18) 0.65609(25) 0.0838(3)
H24_5 H 0.8579 0.7002 0.0863
C40_5 C 0.95752(16) 0.60897(23) 0.0799(2)
H25_5 H 0.9315 0.5651 0.0784
H29_5 H 0.9770 0.5144 0.1070
N9_3 N 0.89961(13) 0.80625(19) 0.25754(17)
N6_6 N 0.03079(13) 0.63592(18) 0.24933(19)
H31_6 H 0.0139 0.5241 0.2760
C64_6 C 0.01522(16) 0.72437(23) 0.2535(2)
H39_6 H 0.0331 0.7683 0.2550
C65_6 C 0.05350(16) 0.69837(23) 0.2535(2)
C66_6 C 0.12330(16) 0.73977(23) 0.2606(2)
C67_6 C 0.15874(16) 0.71586(23) 0.2863(2)
H40_6 H 0.1391 0.6728 0.2960
C68_6 C 0.22178(16) 0.75349(23) 0.2977(2)
C69_6 C 0.25085(17) 0.81728(25) 0.2822(3)
H41_6 H 0.2939 0.8437 0.2902
C70_6 C 0.2167(2) 0.8414(3) 0.2553(3)
H42_6 H 0.2365 0.8841 0.2440
C71_6 C 0.15276(19) 0.80233(27) 0.2447(3)
H43_6 H 0.1293 0.8190 0.2264
C72_6 C 0.25917(15) 0.72730(21) 0.3282(2)
O1_12 O 0.6666 0.3334 0.0738(3)
H1_12 H 0.6666 0.3334 0.0272
O2_6 O 0.65433(11) 0.22210(11) 0.13810(18)
O3_6 O 0.56482(11) 0.22328(12) 0.14902(19)
C1_6 C 0.59914(18) 0.19975(14) 0.1576(2)
C2_6 C 0.57233(17) 0.13937(15) 0.1933(2)
C3_6 C 0.61055(16) 0.11394(16) 0.2055(3)
H2_6 H 0.6527 0.1359 0.1922
C4_6 C 0.58842(16) 0.05727(17) 0.2366(2)
C5_6 C 0.52633(17) 0.0250(2) 0.2553(3)
C6_6 C 0.48801(19) 0.0504(2) 0.2433(3)
H4_6 H 0.4457 0.0284 0.2563
C7_6 C 0.51025(19) 0.1066(2) 0.2128(3)
H5_6 H 0.4834 0.1229 0.2052
C8_6 C 0.63132(16) 0.03127(16) 0.2462(2)
C9_6 C 0.69543(15) 0.07267(16) 0.2478(2)
H6_6 H 0.7112 0.1163 0.2464
C10_6 C 0.73571(15) 0.04906(15) 0.2515(2)
C11_6 C 0.80444(16) 0.09159(16) 0.2520(2)
C12_6 C 0.84455(16) 0.06693(16) 0.2557(2)
H7_6 H 0.8259 0.0229 0.2571
C13_6 C 0.93356(18) 0.16306(17) 0.2549(3)
H8_6 H 0.9776 0.1878 0.2557
C14_6 C 0.89836(19) 0.19178(18) 0.2511(3)
H9_6 H 0.9182 0.2359 0.2494
C15_6 C 0.83308(18) 0.15584(18) 0.2496(3)
H10_6 H 0.8087 0.1756 0.2471
O6_6 O 0.56776(16) 0.34567(11) 0.13810(18)
O7_6 O 0.65845(16) 0.43518(11) 0.14902(19)
N4_6 N 0.36408(18) 0.39488(13) 0.24933(19)
C25_6 C 0.60060(23) 0.40086(18) 0.1576(2)
C26_6 C 0.56703(23) 0.42767(17) 0.1933(2)
C27_6 C 0.50338(23) 0.38945(16) 0.2055(3)
H16_6 H 0.4831 0.3473 0.1922
C28_6 C 0.46884(23) 0.41158(16) 0.2366(2)
C29_6 C 0.49863(26) 0.47367(17) 0.2553(3)
H17_6 H 0.4759 0.4899 0.2760
C30_6 C 0.56235(28) 0.51199(19) 0.2433(3)
H18_6 H 0.5826 0.5543 0.2563
C31_6 C 0.59631(28) 0.48975(19) 0.2128(3)
H19_6 H 0.6394 0.5166 0.2052
C32_6 C 0.39994(23) 0.36868(16) 0.2462(2)
C33_6 C 0.37723(22) 0.30457(15) 0.2478(2)
H20_6 H 0.4050 0.2888 0.2464
C34_6 C 0.31334(21) 0.26429(15) 0.2515(2)
C35_6 C 0.28714(23) 0.19556(16) 0.2520(2)
C36_6 C 0.22237(23) 0.15545(16) 0.2557(2)
H21_6 H 0.1969 0.1741 0.2571
C37_6 C 0.22949(25) 0.06644(18) 0.2549(3)
H22_6 H 0.2101 0.0224 0.2557
C38_6 C 0.29341(26) 0.10164(19) 0.2511(3)
H23_6 H 0.3176 0.0818 0.2494
C39_6 C 0.32275(25) 0.16692(18) 0.2496(3)
H24_6 H 0.3668 0.1913 0.2471
C40_6 C 0.27563(23) 0.29086(16) 0.2535(2)
H25_6 H 0.2317 0.2649 0.2550
C41_6 C 0.30163(23) 0.35514(16) 0.2535(2)
C42_6 C 0.26023(23) 0.38354(16) 0.2606(2)
C43_6 C 0.28414(23) 0.44289(16) 0.2863(2)
H26_6 H 0.3272 0.4664 0.2960
C44_6 C 0.24651(23) 0.46830(16) 0.2977(2)
C45_6 C 0.18272(25) 0.43358(19) 0.2822(3)
H27_6 H 0.1563 0.4503 0.2902
C46_6 C 0.1586(3) 0.3754(2) 0.2553(3)
H28_6 H 0.1159 0.3525 0.2440
C47_6 C 0.19767(27) 0.35044(19) 0.2447(3)
H29_6 H 0.1810 0.3104 0.2264
C48_6 C 0.27270(21) 0.53188(14) 0.3282(2)
O10_6 O 0.77790(11) 0.43224(16) 0.13810(18)
O11_6 O 0.77672(12) 0.34155(16) 0.14902(19)
C49_6 C 0.80025(14) 0.39940(23) 0.1576(2)
C50_6 C 0.86063(15) 0.43297(23) 0.1933(2)
C51_6 C 0.88606(16) 0.49662(23) 0.2055(3)
H30_6 H 0.8641 0.5169 0.1922
C52_6 C 0.94273(17) 0.53116(23) 0.2366(2)
C53_6 C 0.9750(2) 0.50137(26) 0.2553(3)
C54_6 C 0.9496(2) 0.43765(28) 0.2433(3)
H32_6 H 0.9716 0.4174 0.2563
C55_6 C 0.8934(2) 0.40369(28) 0.2128(3)
H33_6 H 0.8771 0.3606 0.2052
C56_6 C 0.96873(16) 0.60006(23) 0.2462(2)
C57_6 C 0.92733(16) 0.62277(22) 0.2478(2)
H34_6 H 0.8837 0.5950 0.2464
C58_6 C 0.95094(15) 0.68666(21) 0.2515(2)
C59_6 C 0.90841(16) 0.71286(23) 0.2520(2)
C60_6 C 0.93307(16) 0.77763(23) 0.2557(2)
H35_6 H 0.9771 0.8031 0.2571
C61_6 C 0.83694(17) 0.77051(25) 0.2549(3)
H36_6 H 0.8122 0.7899 0.2557
C62_6 C 0.80822(18) 0.70659(26) 0.2511(3)
H37_6 H 0.7641 0.6824 0.2494
C63_6 C 0.84416(18) 0.67725(25) 0.2496(3)
H38_6 H 0.8244 0.6332 0.2471
N2_6 N 0.60512(13) 0.96921(13) 0.24933(19)
H3_6 H 0.5101 0.9861 0.2760
C16_6 C 0.70914(16) 0.98478(16) 0.2535(2)
H11_6 H 0.7351 0.9669 0.2550
C17_6 C 0.64486(16) 0.94650(16) 0.2535(2)
C18_6 C 0.61646(16) 0.87670(16) 0.2606(2)
C19_6 C 0.55711(16) 0.84126(16) 0.2863(2)
H12_6 H 0.5336 0.8609 0.2960
C20_6 C 0.53170(16) 0.77822(16) 0.2977(2)
C21_6 C 0.56642(19) 0.74915(17) 0.2822(3)
H13_6 H 0.5497 0.7061 0.2902
C22_6 C 0.6246(2) 0.7833(2) 0.2553(3)
H14_6 H 0.6475 0.7635 0.2440
C23_6 C 0.64956(19) 0.84724(19) 0.2447(3)
H15_6 H 0.6896 0.8707 0.2264
C24_6 C 0.46812(14) 0.74083(15) 0.3282(2)
loop_
_geom_bond_atom_site_label_1
_geom_bond_atom_site_label_2
_geom_bond_site_symmetry_1
_geom_bond_site_symmetry_2
O12 C72 1_555 1_555
O13 C72 1_555 1_555
N5 C60 1_555 1_555
C59 C58 1_555 1_555
C60 C59 1_555 1_555
H35 C60 1_555 1_555
C61 N5 1_555 1_555
H36 C61 1_555 1_555
C62 C61 1_555 1_555
H37 C62 1_555 1_555
C63 C59 1_555 1_555
C64 C58 1_555 1_555
H39 C64 1_555 1_555
C66 C65 1_555 1_555
C67 C66 1_555 1_555
H40 C67 1_555 1_555
C68 C67 1_555 1_555
C69 C68 1_555 1_555
H41 C69 1_555 1_555
C70 C69 1_555 1_555
H42 C70 1_555 1_555
C71 C66 1_555 1_555
H43 C71 1_555 1_555
C72 C68 1_555 1_555
Co5 N5 1_555 1_555
C62 C63 1_555 1_555
C64 C65 1_555 1_555
C70 C71 1_555 1_555
Co1 O1 1_555 1_555
O1 H1 1_555 1_555
O2 Co1 1_555 1_555
O3 C1 1_555 1_555
O4 C24 1_555 1_555
O5 C24 1_555 1_555
N1 C12 1_555 1_555
N2 C8 1_555 1_555
C1 O2 1_555 1_555
C2 C1 1_555 1_555
C3 C2 1_555 1_555
H2 C3 1_555 1_555
C4 C3 1_555 1_555
C5 C4 1_555 1_555
H3 C5 1_555 1_555
C6 C5 1_555 1_555
H4 C6 1_555 1_555
C7 C2 1_555 1_555
H5 C7 1_555 1_555
C8 C4 1_555 1_555
C9 C8 1_555 1_555
H6 C9 1_555 1_555
C10 C9 1_555 1_555
C11 C10 1_555 1_555
C12 C11 1_555 1_555
H7 C12 1_555 1_555
C13 N1 1_555 1_555
H8 C13 1_555 1_555
C14 C13 1_555 1_555
H9 C14 1_555 1_555
C15 C11 1_555 1_555
H10 C15 1_555 1_555
C16 C10 1_555 1_555
H11 C16 1_555 1_555
C17 N2 1_555 1_555
C18 C17 1_555 1_555
C19 C18 1_555 1_555
H12 C19 1_555 1_555
C20 C19 1_555 1_555
C21 C20 1_555 1_555
H13 C21 1_555 1_555
C22 C21 1_555 1_555
H14 C22 1_555 1_555
C23 C18 1_555 1_555
H15 C23 1_555 1_555
C24 C20 1_555 1_555
Co2 O1 1_555 1_555
O6 Co2 1_555 1_555
O7 C25 1_555 1_555
N4 C32 1_555 1_555
C25 O6 1_555 1_555
C26 C25 1_555 1_555
C27 C26 1_555 1_555
H16 C27 1_555 1_555
C28 C27 1_555 1_555
C29 C28 1_555 1_555
H17 C29 1_555 1_555
C30 C29 1_555 1_555
H18 C30 1_555 1_555
C31 C26 1_555 1_555
H19 C31 1_555 1_555
C32 C28 1_555 1_555
C33 C32 1_555 1_555
H20 C33 1_555 1_555
Co3 O1 1_555 1_555
O10 Co3 1_555 1_555
O11 Co1 1_555 1_555
N6 C56 1_555 1_555
C49 O10 1_555 1_555
C50 C49 1_555 1_555
C51 C50 1_555 1_555
H30 C51 1_555 1_555
C52 C51 1_555 1_555
C53 C52 1_555 1_555
H31 C53 1_555 1_555
C54 C53 1_555 1_555
H32 C54 1_555 1_555
C55 C50 1_555 1_555
H33 C55 1_555 1_555
C56 C52 1_555 1_555
C57 C56 1_555 1_555
H34 C57 1_555 1_555
Co4 N1 1_555 1_555
Co12 O4 1_555 1_555
O14 Co3 1_555 1_555
O15 Co1 1_555 1_555
O16 Co2 1_555 1_555
O17 Co1 1_555 1_555
O18 Co2 1_555 1_555
O19 Co3 1_555 1_555
N7 Co1 1_555 1_555
N8 Co3 1_555 1_555
N9 Co2 1_555 1_555
O3 Co2 1_555 1_555
C6 C7 1_555 1_555
C14 C15 1_555 1_555
C16 C17 1_555 1_555
C22 C23 1_555 1_555
O7 Co3 1_555 1_555
C30 C31 1_555 1_555
O11 C49 1_555 1_555
C54 C55 1_555 1_555
O8 C48 1_555 1_555
O9 C48 1_555 1_555
N3 C36 1_555 1_555
C35 C34 1_555 1_555
C36 C35 1_555 1_555
H21 C36 1_555 1_555
C37 N3 1_555 1_555
H22 C37 1_555 1_555
C38 C37 1_555 1_555
H23 C38 1_555 1_555
C39 C35 1_555 1_555
C40 C34 1_555 1_555
H25 C40 1_555 1_555
C42 C41 1_555 1_555
C43 C42 1_555 1_555
H26 C43 1_555 1_555
C44 C43 1_555 1_555
C45 C44 1_555 1_555
H27 C45 1_555 1_555
C46 C45 1_555 1_555
H28 C46 1_555 1_555
C47 C42 1_555 1_555
H29 C47 1_555 1_555
C48 C44 1_555 1_555
Co6 N3 1_555 1_555
Co10 O9 1_555 1_555
C38 C39 1_555 1_555
C40 C41 1_555 1_555
C46 C47 1_555 1_555
O12_2 C72_2 1_555 1_555
O13_2 C72_2 1_555 1_555
N9 C60_2 1_555 1_555
C59_2 C58_2 1_555 1_555
C60_2 C59_2 1_555 1_555
H35_2 C60_2 1_555 1_555
C61_2 N9 1_555 1_555
H36_2 C61_2 1_555 1_555
C62_2 C61_2 1_555 1_555
H37_2 C62_2 1_555 1_555
C63_2 C59_2 1_555 1_555
C64_2 C58_2 1_555 1_555
H39_2 C64_2 1_555 1_555
C66_2 C65_2 1_555 1_555
C67_2 C66_2 1_555 1_555
H40_2 C67_2 1_555 1_555
C68_2 C67_2 1_555 1_555
C69_2 C68_2 1_555 1_555
H41_2 C69_2 1_555 1_555
C70_2 C69_2 1_555 1_555
H42_2 C70_2 1_555 1_555
C71_2 C66_2 1_555 1_555
H43_2 C71_2 1_555 1_555
C72_2 C68_2 1_555 1_555
C62_2 C63_2 1_555 1_555
C64_2 C65_2 1_555 1_555
C70_2 C71_2 1_555 1_555
Co4 O1_2 1_555 1_555
O1_2 H1_2 1_555 1_555
O2_2 Co4 1_555 1_555
O3_2 C1_2 1_555 1_555
O4_2 C24_2 1_555 1_555
O5_2 C24_2 1_555 1_555
N7 C12_2 1_555 1_555
N2_2 C8_2 1_555 1_555
C1_2 O2_2 1_555 1_555
C2_2 C1_2 1_555 1_555
C3_2 C2_2 1_555 1_555
H2_2 C3_2 1_555 1_555
C4_2 C3_2 1_555 1_555
C5_2 C4_2 1_555 1_555
H3_2 C5_2 1_555 1_555
C6_2 C5_2 1_555 1_555
H4_2 C6_2 1_555 1_555
C7_2 C2_2 1_555 1_555
H5_2 C7_2 1_555 1_555
C8_2 C4_2 1_555 1_555
C9_2 C8_2 1_555 1_555
H6_2 C9_2 1_555 1_555
C10_2 C9_2 1_555 1_555
C11_2 C10_2 1_555 1_555
C12_2 C11_2 1_555 1_555
H7_2 C12_2 1_555 1_555
C13_2 N7 1_555 1_555
H8_2 C13_2 1_555 1_555
C14_2 C13_2 1_555 1_555
H9_2 C14_2 1_555 1_555
C15_2 C11_2 1_555 1_555
H10_2 C15_2 1_555 1_555
C16_2 C10_2 1_555 1_555
H11_2 C16_2 1_555 1_555
C17_2 N2_2 1_555 1_555
C18_2 C17_2 1_555 1_555
C19_2 C18_2 1_555 1_555
H12_2 C19_2 1_555 1_555
C20_2 C19_2 1_555 1_555
C21_2 C20_2 1_555 1_555
H13_2 C21_2 1_555 1_555
C22_2 C21_2 1_555 1_555
H14_2 C22_2 1_555 1_555
C23_2 C18_2 1_555 1_555
H15_2 C23_2 1_555 1_555
C24_2 C20_2 1_555 1_555
Co5 O1_2 1_555 1_555
O6_2 Co5 1_555 1_555
O7_2 C25_2 1_555 1_555
N4_2 C32_2 1_555 1_555
C25_2 O6_2 1_555 1_555
C26_2 C25_2 1_555 1_555
C27_2 C26_2 1_555 1_555
H16_2 C27_2 1_555 1_555
C28_2 C27_2 1_555 1_555
C29_2 C28_2 1_555 1_555
H17_2 C29_2 1_555 1_555
C30_2 C29_2 1_555 1_555
H18_2 C30_2 1_555 1_555
C31_2 C26_2 1_555 1_555
H19_2 C31_2 1_555 1_555
C32_2 C28_2 1_555 1_555
C33_2 C32_2 1_555 1_555
H20_2 C33_2 1_555 1_555
Co6 O1_2 1_555 1_555
O10_2 Co6 1_555 1_555
O11_2 Co4 1_555 1_555
N6_2 C56_2 1_555 1_555
C49_2 O10_2 1_555 1_555
C50_2 C49_2 1_555 1_555
C51_2 C50_2 1_555 1_555
H30_2 C51_2 1_555 1_555
C52_2 C51_2 1_555 1_555
C53_2 C52_2 1_555 1_555
H31_2 C53_2 1_555 1_555
C54_2 C53_2 1_555 1_555
H32_2 C54_2 1_555 1_555
C55_2 C50_2 1_555 1_555
H33_2 C55_2 1_555 1_555
C56_2 C52_2 1_555 1_555
C57_2 C56_2 1_555 1_555
H34_2 C57_2 1_555 1_555
Co12_2 O4_2 1_555 1_555
O14_2 Co6 1_555 1_555
O15_2 Co4 1_555 1_555
O16_2 Co5 1_555 1_555
O17_2 Co4 1_555 1_555
O18_2 Co5 1_555 1_555
O19_2 Co6 1_555 1_555
O3_2 Co5 1_555 1_555
C6_2 C7_2 1_555 1_555
C14_2 C15_2 1_555 1_555
C16_2 C17_2 1_555 1_555
C22_2 C23_2 1_555 1_555
O7_2 Co6 1_555 1_555
C30_2 C31_2 1_555 1_555
O11_2 C49_2 1_555 1_555
C54_2 C55_2 1_555 1_555
O8_2 C48_2 1_555 1_555
O9_2 C48_2 1_555 1_555
N8 C36_2 1_555 1_555
C35_2 C34_2 1_555 1_555
C36_2 C35_2 1_555 1_555
H21_2 C36_2 1_555 1_555
C37_2 N8 1_555 1_555
H22_2 C37_2 1_555 1_555
C38_2 C37_2 1_555 1_555
H23_2 C38_2 1_555 1_555
C39_2 C35_2 1_555 1_555
C40_2 C34_2 1_555 1_555
H25_2 C40_2 1_555 1_555
C42_2 C41_2 1_555 1_555
C43_2 C42_2 1_555 1_555
H26_2 C43_2 1_555 1_555
C44_2 C43_2 1_555 1_555
C45_2 C44_2 1_555 1_555
H27_2 C45_2 1_555 1_555
C46_2 C45_2 1_555 1_555
H28_2 C46_2 1_555 1_555
C47_2 C42_2 1_555 1_555
H29_2 C47_2 1_555 1_555
C48_2 C44_2 1_555 1_555
Co10_2 O9_2 1_555 1_555
C38_2 C39_2 1_555 1_555
C40_2 C41_2 1_555 1_555
C46_2 C47_2 1_555 1_555
O16 C72_3 1_555 1_555
O19 C72_3 1_555 1_555
H39_3 C64_3 1_555 1_555
C65_3 N6_3 1_555 1_555
C66_3 C65_3 1_555 1_555
C67_3 C66_3 1_555 1_555
H40_3 C67_3 1_555 1_555
C68_3 C67_3 1_555 1_555
C69_3 C68_3 1_555 1_555
H41_3 C69_3 1_555 1_555
C70_3 C69_3 1_555 1_555
H42_3 C70_3 1_555 1_555
C71_3 C66_3 1_555 1_555
H43_3 C71_3 1_555 1_555
C72_3 C68_3 1_555 1_555
C64_3 C65_3 1_555 1_555
C70_3 C71_3 1_555 1_555
Co1_2 O1_3 1_555 1_555
O1_3 H1_3 1_555 1_555
O2_3 Co1_2 1_555 1_555
O3_3 C1_3 1_555 1_555
N1_2 C12_3 1_555 1_555
C1_3 O2_3 1_555 1_555
C2_3 C1_3 1_555 1_555
C3_3 C2_3 1_555 1_555
H2_3 C3_3 1_555 1_555
C4_3 C3_3 1_555 1_555
C5_3 C4_3 1_555 1_555
C6_3 C5_3 1_555 1_555
H4_3 C6_3 1_555 1_555
C7_3 C2_3 1_555 1_555
H5_3 C7_3 1_555 1_555
C8_3 C4_3 1_555 1_555
C9_3 C8_3 1_555 1_555
H6_3 C9_3 1_555 1_555
C10_3 C9_3 1_555 1_555
C11_3 C10_3 1_555 1_555
C12_3 C11_3 1_555 1_555
H7_3 C12_3 1_555 1_555
C13_3 N1_2 1_555 1_555
H8_3 C13_3 1_555 1_555
C14_3 C13_3 1_555 1_555
H9_3 C14_3 1_555 1_555
C15_3 C11_3 1_555 1_555
H10_3 C15_3 1_555 1_555
Co2_2 O1_3 1_555 1_555
O6_3 Co2_2 1_555 1_555
O7_3 C25_3 1_555 1_555
O15 C48_3 1_555 1_555
O18 C48_3 1_555 1_555
N3_2 C36_3 1_555 1_555
N4_3 C32_3 1_555 1_555
C25_3 O6_3 1_555 1_555
C26_3 C25_3 1_555 1_555
C27_3 C26_3 1_555 1_555
H16_3 C27_3 1_555 1_555
C28_3 C27_3 1_555 1_555
C29_3 C28_3 1_555 1_555
H17_3 C29_3 1_555 1_555
C30_3 C29_3 1_555 1_555
H18_3 C30_3 1_555 1_555
C31_3 C26_3 1_555 1_555
H19_3 C31_3 1_555 1_555
C32_3 C28_3 1_555 1_555
C33_3 C32_3 1_555 1_555
H20_3 C33_3 1_555 1_555
C34_3 C33_3 1_555 1_555
C35_3 C34_3 1_555 1_555
C36_3 C35_3 1_555 1_555
H21_3 C36_3 1_555 1_555
C37_3 N3_2 1_555 1_555
H22_3 C37_3 1_555 1_555
C38_3 C37_3 1_555 1_555
H23_3 C38_3 1_555 1_555
C39_3 C35_3 1_555 1_555
H24_3 C39_3 1_555 1_555
C40_3 C34_3 1_555 1_555
H25_3 C40_3 1_555 1_555
C41_3 N4_3 1_555 1_555
C42_3 C41_3 1_555 1_555
C43_3 C42_3 1_555 1_555
H26_3 C43_3 1_555 1_555
C44_3 C43_3 1_555 1_555
C45_3 C44_3 1_555 1_555
H27_3 C45_3 1_555 1_555
C46_3 C45_3 1_555 1_555
H28_3 C46_3 1_555 1_555
C47_3 C42_3 1_555 1_555
H29_3 C47_3 1_555 1_555
C48_3 C44_3 1_555 1_555
Co3_2 O1_3 1_555 1_555
O10_3 Co3_2 1_555 1_555
O11_3 Co1_2 1_555 1_555
N5_2 C60_3 1_555 1_555
C49_3 O10_3 1_555 1_555
C50_3 C49_3 1_555 1_555
C51_3 C50_3 1_555 1_555
H30_3 C51_3 1_555 1_555
C52_3 C51_3 1_555 1_555
C53_3 C52_3 1_555 1_555
C54_3 C53_3 1_555 1_555
H32_3 C54_3 1_555 1_555
C55_3 C50_3 1_555 1_555
H33_3 C55_3 1_555 1_555
C56_3 C52_3 1_555 1_555
C57_3 C56_3 1_555 1_555
H34_3 C57_3 1_555 1_555
C58_3 C57_3 1_555 1_555
C59_3 C58_3 1_555 1_555
C60_3 C59_3 1_555 1_555
H35_3 C60_3 1_555 1_555
C61_3 N5_2 1_555 1_555
H36_3 C61_3 1_555 1_555
C62_3 C61_3 1_555 1_555
H37_3 C62_3 1_555 1_555
C63_3 C59_3 1_555 1_555
H38_3 C63_3 1_555 1_555
Co8_2 N1_2 1_555 1_555
Co10_2 N5_2 1_555 1_555
Co12_2 N3_2 1_555 1_555
O17_3 Co1_2 1_555 1_555
O18_3 Co2_2 1_555 1_555
O19_3 Co3_2 1_555 1_555
N7_2 Co1_2 1_555 1_555
N8_2 Co3_2 1_555 1_555
N9_2 Co2_2 1_555 1_555
O3_3 Co2_2 1_555 1_555
C6_3 C7_3 1_555 1_555
C14_3 C15_3 1_555 1_555
O7_3 Co3_2 1_555 1_555
C30_3 C31_3 1_555 1_555
C38_3 C39_3 1_555 1_555
C40_3 C41_3 1_555 1_555
C46_3 C47_3 1_555 1_555
O11_3 C49_3 1_555 1_555
C54_3 C55_3 1_555 1_555
C62_3 C63_3 1_555 1_555
O14 C24_3 1_555 1_555
O17 C24_3 1_555 1_555
H11_3 C16_3 1_555 1_555
C17_3 N2_3 1_555 1_555
C18_3 C17_3 1_555 1_555
C19_3 C18_3 1_555 1_555
H12_3 C19_3 1_555 1_555
C20_3 C19_3 1_555 1_555
C21_3 C20_3 1_555 1_555
H13_3 C21_3 1_555 1_555
C22_3 C21_3 1_555 1_555
H14_3 C22_3 1_555 1_555
C23_3 C18_3 1_555 1_555
H15_3 C23_3 1_555 1_555
C24_3 C20_3 1_555 1_555
C16_3 C17_3 1_555 1_555
C22_3 C23_3 1_555 1_555
Co12_3 O13_3 1_555 1_555
O1_4 H1_4 1_555 1_555
Co12_2 O1_4 1_555 1_555
O10_4 Co12_2 1_555 1_555
O12_3 C72_4 1_555 1_555
N9_2 C60_4 1_555 1_555
N6_4 C56_4 1_555 1_555
C49_4 O10_4 1_555 1_555
C50_4 C49_4 1_555 1_555
C51_4 C50_4 1_555 1_555
H30_4 C51_4 1_555 1_555
C52_4 C51_4 1_555 1_555
C53_4 C52_4 1_555 1_555
H31_4 C53_4 1_555 1_555
C54_4 C53_4 1_555 1_555
H32_4 C54_4 1_555 1_555
C55_4 C50_4 1_555 1_555
H33_4 C55_4 1_555 1_555
C56_4 C52_4 1_555 1_555
C57_4 C56_4 1_555 1_555
H34_4 C57_4 1_555 1_555
C58_4 C57_4 1_555 1_555
C59_4 C58_4 1_555 1_555
C60_4 C59_4 1_555 1_555
H35_4 C60_4 1_555 1_555
C61_4 N9_2 1_555 1_555
H36_4 C61_4 1_555 1_555
C62_4 C61_4 1_555 1_555
H37_4 C62_4 1_555 1_555
C63_4 C59_4 1_555 1_555
H38_4 C63_4 1_555 1_555
C64_4 C58_4 1_555 1_555
H39_4 C64_4 1_555 1_555
C65_4 N6_4 1_555 1_555
C66_4 C65_4 1_555 1_555
C67_4 C66_4 1_555 1_555
H40_4 C67_4 1_555 1_555
C68_4 C67_4 1_555 1_555
C69_4 C68_4 1_555 1_555
H41_4 C69_4 1_555 1_555
C70_4 C69_4 1_555 1_555
H42_4 C70_4 1_555 1_555
C71_4 C66_4 1_555 1_555
H43_4 C71_4 1_555 1_555
C72_4 C68_4 1_555 1_555
O11_4 C49_4 1_555 1_555
C54_4 C55_4 1_555 1_555
C62_4 C63_4 1_555 1_555
C64_4 C65_4 1_555 1_555
C70_4 C71_4 1_555 1_555
Co8_2 O1_5 1_555 1_555
O1_5 H1_5 1_555 1_555
N7_2 C12_4 1_555 1_555
H6_4 C9_4 1_555 1_555
C10_4 C9_4 1_555 1_555
C11_4 C10_4 1_555 1_555
C12_4 C11_4 1_555 1_555
H7_4 C12_4 1_555 1_555
C13_4 N7_2 1_555 1_555
H8_4 C13_4 1_555 1_555
C14_4 C13_4 1_555 1_555
H9_4 C14_4 1_555 1_555
C15_4 C11_4 1_555 1_555
H10_4 C15_4 1_555 1_555
C16_4 C10_4 1_555 1_555
H11_4 C16_4 1_555 1_555
C14_4 C15_4 1_555 1_555
Co10_3 O9_3 1_555 1_555
O1_6 H1_6 1_555 1_555
O7_4 C25_4 1_555 1_555
O8_3 C48_4 1_555 1_555
N4_4 C32_4 1_555 1_555
C25_4 O6_4 1_555 1_555
C26_4 C25_4 1_555 1_555
C27_4 C26_4 1_555 1_555
H16_4 C27_4 1_555 1_555
C28_4 C27_4 1_555 1_555
C29_4 C28_4 1_555 1_555
H17_4 C29_4 1_555 1_555
C30_4 C29_4 1_555 1_555
H18_4 C30_4 1_555 1_555
C31_4 C26_4 1_555 1_555
H19_4 C31_4 1_555 1_555
C32_4 C28_4 1_555 1_555
C41_4 N4_4 1_555 1_555
C42_4 C41_4 1_555 1_555
C43_4 C42_4 1_555 1_555
H26_4 C43_4 1_555 1_555
C44_4 C43_4 1_555 1_555
C45_4 C44_4 1_555 1_555
H27_4 C45_4 1_555 1_555
C46_4 C45_4 1_555 1_555
H28_4 C46_4 1_555 1_555
C47_4 C42_4 1_555 1_555
C48_4 C44_4 1_555 1_555
C30_4 C31_4 1_555 1_555
C46_4 C47_4 1_555 1_555
Co8_3 O5_3 1_555 1_555
O1_7 H1_7 1_555 1_555
O3_4 C1_4 1_555 1_555
O4_3 C24_4 1_555 1_555
N2_4 C8_4 1_555 1_555
C1_4 O2_4 1_555 1_555
C2_4 C1_4 1_555 1_555
C3_4 C2_4 1_555 1_555
H2_4 C3_4 1_555 1_555
C4_4 C3_4 1_555 1_555
C5_4 C4_4 1_555 1_555
H3_4 C5_4 1_555 1_555
C6_4 C5_4 1_555 1_555
H4_4 C6_4 1_555 1_555
C7_4 C2_4 1_555 1_555
H5_4 C7_4 1_555 1_555
C8_4 C4_4 1_555 1_555
C17_4 N2_4 1_555 1_555
C18_4 C17_4 1_555 1_555
C19_4 C18_4 1_555 1_555
H12_4 C19_4 1_555 1_555
C20_4 C19_4 1_555 1_555
C21_4 C20_4 1_555 1_555
H13_4 C21_4 1_555 1_555
C22_4 C21_4 1_555 1_555
H14_4 C22_4 1_555 1_555
C23_4 C18_4 1_555 1_555
C24_4 C20_4 1_555 1_555
Co10_2 O1_7 1_555 1_555
N8_2 C36_4 1_555 1_555
H20_4 C33_4 1_555 1_555
C34_4 C33_4 1_555 1_555
C35_4 C34_4 1_555 1_555
C36_4 C35_4 1_555 1_555
H21_4 C36_4 1_555 1_555
C37_4 N8_2 1_555 1_555
H22_4 C37_4 1_555 1_555
C38_4 C37_4 1_555 1_555
H23_4 C38_4 1_555 1_555
C39_4 C35_4 1_555 1_555
H24_4 C39_4 1_555 1_555
C40_4 C34_4 1_555 1_555
H25_4 C40_4 1_555 1_555
O3_4 Co10_2 1_555 1_555
C6_4 C7_4 1_555 1_555
C22_4 C23_4 1_555 1_555
C38_4 C39_4 1_555 1_555
O1_8 H1_8 1_555 1_555
Co12 O1_8 1_555 1_555
O10_5 Co12 1_555 1_555
O16_3 C72_5 1_555 1_555
N5_3 C60_5 1_555 1_555
N6_5 C56_5 1_555 1_555
C49_5 O10_5 1_555 1_555
C50_5 C49_5 1_555 1_555
C51_5 C50_5 1_555 1_555
H30_5 C51_5 1_555 1_555
C52_5 C51_5 1_555 1_555
C53_5 C52_5 1_555 1_555
H31_5 C53_5 1_555 1_555
C54_5 C53_5 1_555 1_555
H32_5 C54_5 1_555 1_555
C55_5 C50_5 1_555 1_555
H33_5 C55_5 1_555 1_555
C56_5 C52_5 1_555 1_555
C57_5 C56_5 1_555 1_555
H34_5 C57_5 1_555 1_555
C58_5 C57_5 1_555 1_555
C59_5 C58_5 1_555 1_555
C60_5 C59_5 1_555 1_555
H35_5 C60_5 1_555 1_555
C61_5 N5_3 1_555 1_555
H36_5 C61_5 1_555 1_555
C62_5 C61_5 1_555 1_555
H37_5 C62_5 1_555 1_555
C63_5 C59_5 1_555 1_555
H38_5 C63_5 1_555 1_555
C64_5 C58_5 1_555 1_555
H39_5 C64_5 1_555 1_555
C65_5 N6_5 1_555 1_555
C66_5 C65_5 1_555 1_555
C67_5 C66_5 1_555 1_555
H40_5 C67_5 1_555 1_555
C68_5 C67_5 1_555 1_555
C69_5 C68_5 1_555 1_555
H41_5 C69_5 1_555 1_555
C70_5 C69_5 1_555 1_555
H42_5 C70_5 1_555 1_555
C71_5 C66_5 1_555 1_555
H43_5 C71_5 1_555 1_555
C72_5 C68_5 1_555 1_555
Co10_3 N5_3 1_555 1_555
N8_3 Co12 1_555 1_555
O11_5 C49_5 1_555 1_555
C54_5 C55_5 1_555 1_555
C62_5 C63_5 1_555 1_555
C64_5 C65_5 1_555 1_555
C70_5 C71_5 1_555 1_555
O1_9 H1_9 1_555 1_555
O7_5 C25_5 1_555 1_555
O15_3 C48_5 1_555 1_555
N4_5 C32_5 1_555 1_555
C25_5 O6_5 1_555 1_555
C26_5 C25_5 1_555 1_555
C27_5 C26_5 1_555 1_555
H16_5 C27_5 1_555 1_555
C28_5 C27_5 1_555 1_555
C29_5 C28_5 1_555 1_555
H17_5 C29_5 1_555 1_555
C30_5 C29_5 1_555 1_555
H18_5 C30_5 1_555 1_555
C31_5 C26_5 1_555 1_555
H19_5 C31_5 1_555 1_555
C32_5 C28_5 1_555 1_555
C41_5 N4_5 1_555 1_555
C42_5 C41_5 1_555 1_555
C43_5 C42_5 1_555 1_555
H26_5 C43_5 1_555 1_555
C44_5 C43_5 1_555 1_555
C45_5 C44_5 1_555 1_555
H27_5 C45_5 1_555 1_555
C46_5 C45_5 1_555 1_555
H28_5 C46_5 1_555 1_555
C47_5 C42_5 1_555 1_555
C48_5 C44_5 1_555 1_555
C30_5 C31_5 1_555 1_555
C46_5 C47_5 1_555 1_555
Co8 O1_10 1_555 1_555
O1_10 H1_10 1_555 1_555
N1_3 C12_5 1_555 1_555
H6_5 C9_5 1_555 1_555
C10_5 C9_5 1_555 1_555
C11_5 C10_5 1_555 1_555
C12_5 C11_5 1_555 1_555
H7_5 C12_5 1_555 1_555
C13_5 N1_3 1_555 1_555
H8_5 C13_5 1_555 1_555
C14_5 C13_5 1_555 1_555
H9_5 C14_5 1_555 1_555
C15_5 C11_5 1_555 1_555
H10_5 C15_5 1_555 1_555
C16_5 C10_5 1_555 1_555
H11_5 C16_5 1_555 1_555
Co8_3 N1_3 1_555 1_555
N7_3 Co8 1_555 1_555
C14_5 C15_5 1_555 1_555
O1_11 H1_11 1_555 1_555
O3_5 C1_5 1_555 1_555
O14_3 C24_5 1_555 1_555
N2_5 C8_5 1_555 1_555
C1_5 O2_5 1_555 1_555
C2_5 C1_5 1_555 1_555
C3_5 C2_5 1_555 1_555
H2_5 C3_5 1_555 1_555
C4_5 C3_5 1_555 1_555
C5_5 C4_5 1_555 1_555
H3_5 C5_5 1_555 1_555
C6_5 C5_5 1_555 1_555
H4_5 C6_5 1_555 1_555
C7_5 C2_5 1_555 1_555
H5_5 C7_5 1_555 1_555
C8_5 C4_5 1_555 1_555
C17_5 N2_5 1_555 1_555
C18_5 C17_5 1_555 1_555
C19_5 C18_5 1_555 1_555
H12_5 C19_5 1_555 1_555
C20_5 C19_5 1_555 1_555
C21_5 C20_5 1_555 1_555
H13_5 C21_5 1_555 1_555
C22_5 C21_5 1_555 1_555
H14_5 C22_5 1_555 1_555
C23_5 C18_5 1_555 1_555
C24_5 C20_5 1_555 1_555
Co10 O1_11 1_555 1_555
N3_3 C36_5 1_555 1_555
H20_5 C33_5 1_555 1_555
C34_5 C33_5 1_555 1_555
C35_5 C34_5 1_555 1_555
C36_5 C35_5 1_555 1_555
H21_5 C36_5 1_555 1_555
C37_5 N3_3 1_555 1_555
H22_5 C37_5 1_555 1_555
C38_5 C37_5 1_555 1_555
H23_5 C38_5 1_555 1_555
C39_5 C35_5 1_555 1_555
H24_5 C39_5 1_555 1_555
C40_5 C34_5 1_555 1_555
H25_5 C40_5 1_555 1_555
Co12_3 N3_3 1_555 1_555
N9_3 Co10 1_555 1_555
O3_5 Co10 1_555 1_555
C6_5 C7_5 1_555 1_555
C22_5 C23_5 1_555 1_555
C38_5 C39_5 1_555 1_555
O16_2 C72_6 1_555 1_555
O19_2 C72_6 1_555 1_555
H39_6 C64_6 1_555 1_555
C65_6 N6_6 1_555 1_555
C66_6 C65_6 1_555 1_555
C67_6 C66_6 1_555 1_555
H40_6 C67_6 1_555 1_555
C68_6 C67_6 1_555 1_555
C69_6 C68_6 1_555 1_555
H41_6 C69_6 1_555 1_555
C70_6 C69_6 1_555 1_555
H42_6 C70_6 1_555 1_555
C71_6 C66_6 1_555 1_555
H43_6 C71_6 1_555 1_555
C72_6 C68_6 1_555 1_555
C64_6 C65_6 1_555 1_555
C70_6 C71_6 1_555 1_555
Co8_3 O1_12 1_555 1_555
O1_12 H1_12 1_555 1_555
O2_6 Co8_3 1_555 1_555
O3_6 C1_6 1_555 1_555
N7_3 C12_6 1_555 1_555
C1_6 O2_6 1_555 1_555
C2_6 C1_6 1_555 1_555
C3_6 C2_6 1_555 1_555
H2_6 C3_6 1_555 1_555
C4_6 C3_6 1_555 1_555
C5_6 C4_6 1_555 1_555
C6_6 C5_6 1_555 1_555
H4_6 C6_6 1_555 1_555
C7_6 C2_6 1_555 1_555
H5_6 C7_6 1_555 1_555
C8_6 C4_6 1_555 1_555
C9_6 C8_6 1_555 1_555
H6_6 C9_6 1_555 1_555
C10_6 C9_6 1_555 1_555
C11_6 C10_6 1_555 1_555
C12_6 C11_6 1_555 1_555
H7_6 C12_6 1_555 1_555
C13_6 N7_3 1_555 1_555
H8_6 C13_6 1_555 1_555
C14_6 C13_6 1_555 1_555
H9_6 C14_6 1_555 1_555
C15_6 C11_6 1_555 1_555
H10_6 C15_6 1_555 1_555
Co10_3 O1_12 1_555 1_555
O6_6 Co10_3 1_555 1_555
O7_6 C25_6 1_555 1_555
O15_2 C48_6 1_555 1_555
O18_2 C48_6 1_555 1_555
N8_3 C36_6 1_555 1_555
N4_6 C32_6 1_555 1_555
C25_6 O6_6 1_555 1_555
C26_6 C25_6 1_555 1_555
C27_6 C26_6 1_555 1_555
H16_6 C27_6 1_555 1_555
C28_6 C27_6 1_555 1_555
C29_6 C28_6 1_555 1_555
H17_6 C29_6 1_555 1_555
C30_6 C29_6 1_555 1_555
H18_6 C30_6 1_555 1_555
C31_6 C26_6 1_555 1_555
H19_6 C31_6 1_555 1_555
C32_6 C28_6 1_555 1_555
C33_6 C32_6 1_555 1_555
H20_6 C33_6 1_555 1_555
C34_6 C33_6 1_555 1_555
C35_6 C34_6 1_555 1_555
C36_6 C35_6 1_555 1_555
H21_6 C36_6 1_555 1_555
C37_6 N8_3 1_555 1_555
H22_6 C37_6 1_555 1_555
C38_6 C37_6 1_555 1_555
H23_6 C38_6 1_555 1_555
C39_6 C35_6 1_555 1_555
H24_6 C39_6 1_555 1_555
C40_6 C34_6 1_555 1_555
H25_6 C40_6 1_555 1_555
C41_6 N4_6 1_555 1_555
C42_6 C41_6 1_555 1_555
C43_6 C42_6 1_555 1_555
H26_6 C43_6 1_555 1_555
C44_6 C43_6 1_555 1_555
C45_6 C44_6 1_555 1_555
H27_6 C45_6 1_555 1_555
C46_6 C45_6 1_555 1_555
H28_6 C46_6 1_555 1_555
C47_6 C42_6 1_555 1_555
H29_6 C47_6 1_555 1_555
C48_6 C44_6 1_555 1_555
Co12_3 O1_12 1_555 1_555
O10_6 Co12_3 1_555 1_555
O11_6 Co8_3 1_555 1_555
N9_3 C60_6 1_555 1_555
C49_6 O10_6 1_555 1_555
C50_6 C49_6 1_555 1_555
C51_6 C50_6 1_555 1_555
H30_6 C51_6 1_555 1_555
C52_6 C51_6 1_555 1_555
C53_6 C52_6 1_555 1_555
C54_6 C53_6 1_555 1_555
H32_6 C54_6 1_555 1_555
C55_6 C50_6 1_555 1_555
H33_6 C55_6 1_555 1_555
C56_6 C52_6 1_555 1_555
C57_6 C56_6 1_555 1_555
H34_6 C57_6 1_555 1_555
C58_6 C57_6 1_555 1_555
C59_6 C58_6 1_555 1_555
C60_6 C59_6 1_555 1_555
H35_6 C60_6 1_555 1_555
C61_6 N9_3 1_555 1_555
H36_6 C61_6 1_555 1_555
C62_6 C61_6 1_555 1_555
H37_6 C62_6 1_555 1_555
C63_6 C59_6 1_555 1_555
H38_6 C63_6 1_555 1_555
O3_6 Co10_3 1_555 1_555
C6_6 C7_6 1_555 1_555
C14_6 C15_6 1_555 1_555
O7_6 Co12_3 1_555 1_555
C30_6 C31_6 1_555 1_555
C38_6 C39_6 1_555 1_555
C40_6 C41_6 1_555 1_555
C46_6 C47_6 1_555 1_555
O11_6 C49_6 1_555 1_555
C54_6 C55_6 1_555 1_555
C62_6 C63_6 1_555 1_555
O14_2 C24_6 1_555 1_555
O17_2 C24_6 1_555 1_555
H11_6 C16_6 1_555 1_555
C17_6 N2_6 1_555 1_555
C18_6 C17_6 1_555 1_555
C19_6 C18_6 1_555 1_555
H12_6 C19_6 1_555 1_555
C20_6 C19_6 1_555 1_555
C21_6 C20_6 1_555 1_555
H13_6 C21_6 1_555 1_555
C22_6 C21_6 1_555 1_555
H14_6 C22_6 1_555 1_555
C23_6 C18_6 1_555 1_555
H15_6 C23_6 1_555 1_555
C24_6 C20_6 1_555 1_555
C16_6 C17_6 1_555 1_555
C22_6 C23_6 1_555 1_555

#END
