
###############################################################################
#
# This file contains modified crystal structure data generated from the
# MOF subset of the Cambridge Structural Database (CSD) v543 
# hosted by the Cambridge Crystallographic Data Centre (CCDC).
#
# This work is licensed under the Creative Commons
# Attribution-NonCommercial-ShareAlike 4.0 International License.
# To view a copy of this license, visit
# http://creativecommons.org/licenses/by-nc-sa/4.0/
# or send a letter to
# Creative Commons, PO Box 1866, Mountain View, CA 94042, USA.
#
# CIF created using the CSD Python API on 29 September 2022
# The structure has been converted into the P1 space group
# The structure has a 3D framework
# The original CSD entry NAHDIM is in the monoclinic crystal system
# The original CSD entry NAHDIM is in a Sohncke space group
# The framework has been calculated to contain at least 10.0% void space
# The void calculation uses a probe of radius 1.32A, grid spacing 0.4
# The framework is charged, counterions have been retained in the structure
# H atom positions have been added when not included in the experimental data
#
###############################################################################

data_NAHDIM
_chemical_formula_moiety         '(C376 H376 N4 O80 Zn8)n'
_symmetry_cell_setting           triclinic
_symmetry_space_group_name_H-M   'P 1'
_symmetry_Int_Tables_number      1
_space_group_name_Hall           'P 1'
loop_
_symmetry_equiv_pos_site_id
_symmetry_equiv_pos_as_xyz
1 x,y,z
_cell_length_a                   18.9677(16)
_cell_length_b                   19.9186(17)
_cell_length_c                   31.739(3)
_cell_angle_alpha                90
_cell_angle_beta                 95.287(4)
_cell_angle_gamma                90
_cell_volume                     11940.3
loop_
_atom_site_label
_atom_site_type_symbol
_atom_site_fract_x
_atom_site_fract_y
_atom_site_fract_z
Zn2 Zn 0.1439(3) 0.0889(3) 0.17478(12)
O10 O 0.1484(5) 0.0944(7) 0.2354(4)
O11 O 0.1130(5) 0.1996(8) 0.2426(3)
O12 O 0.0760(4) 0.1830(5) 0.3242(2)
O19 O 0.1419(5) 0.1824(4) 0.1629(3)
O20 O 0.0719(10) 0.0798(17) 0.1632(10)
C12 C 0.1310(9) 0.1493(11) 0.2599(6)
C13 C 0.1278(7) 0.1404(10) 0.3053(5)
H13 H 0.1190 0.0931 0.3115
C14 C 0.2001(7) 0.1610(9) 0.3256(5)
H14 H 0.2335 0.1256 0.3222
H15 H 0.1973 0.1693 0.3552
H16 H 0.2152 0.2011 0.3123
C15 C 0.0064(5) 0.1626(8) 0.3109(3)
H17 H 0.0265 0.0850 0.2752
O46 O 0.2155(6) 0.0540(6) 0.1539(3)
H175 H 0.0450845 0.118653 0.173111
H176 H 0.063646 0.0762913 0.131926
H177 H 0.185471 0.203785 0.176546
H178 H 0.139477 0.189416 0.131825
O26 O 0.4048(6) 0.0254(6) 0.1814(3)
H98 H 0.3323 0.0150 0.1094
C118 C 0.3492(8) 0.1052(9) 0.2226(4)
H105 H 0.3662 0.0756 0.2451
H106 H 0.3021 0.1197 0.2268
H107 H 0.3798 0.1436 0.2223
C119 C 0.2830(11) 0.0400(12) 0.1785(5)
C120 C 0.3483(9) 0.0693(10) 0.1814(4)
H108 H 0.3506 0.1020 0.1585
O4 O 0.2384(4) 0.2713(5) 0.0372(2)
O5 O 0.1672(4) 0.2600(5) 0.0896(2)
O6 O 0.2922(3) 0.1491(4) 0.05081(18)
O9 O 0.8192(5) 0.4784(5) 0.0544(2)
O16 O 0.2280(5) 0.4739(7) 0.3138(3)
O17 O 0.2845(6) 0.5540(6) 0.3461(3)
O18 O 0.0952(6) 0.5254(6) 0.3186(3)
C10 C 0.6116(7) 0.0537(7) 0.3467(3)
H7 H 0.6588 0.0634 0.3586
H8 H 0.5816 0.0466 0.3691
H9 H 0.5939 0.0908 0.3295
C16 C 0.9900(7) 0.1103(8) 0.2848(4)
C17 C 0.9195(5) 0.0926(5) 0.2718(3)
C18 C 0.8678(4) 0.1376(6) 0.2874(3)
C19 C 0.8844(5) 0.1921(5) 0.3135(2)
C20 C 0.9547(4) 0.2025(6) 0.3248(2)
H18 H 0.9680 0.2381 0.3428
C21 C 0.9012(7) 0.0356(7) 0.2401(3)
H19 H 0.8509 0.0290 0.2369
H21 H 0.9174 0.0472 0.2133
C22 C 0.8280(4) 0.2335(5) 0.3273(3)
H22 H 0.8459 0.2600 0.3512
H23 H 0.7903 0.2053 0.3351
H24 H 0.8104 0.2626 0.3046
C24 C 0.8710(7) 0.4653(9) 0.0242(4)
H25 H 0.9098 0.4375 0.0371
C25 C 0.7835(6) 0.4240(7) 0.0731(3)
C26 C 0.7923(4) 0.3630(7) 0.0592(3)
H26 H 0.8223 0.3542 0.0383
C27 C 0.7524(4) 0.3088(5) 0.0780(3)
C28 C 0.7090(4) 0.3250(5) 0.1099(2)
C29 C 0.7039(4) 0.3909(6) 0.1219(3)
C30 C 0.7431(5) 0.4361(6) 0.1033(3)
H27 H 0.7413 0.4802 0.1128
C31 C 0.7589(6) 0.2339(7) 0.0638(4)
H28 H 0.7513 0.2048 0.0871
H29 H 0.8054 0.2263 0.0551
H30 H 0.7241 0.2248 0.0407
C32 C 0.6621(6) 0.4105(5) 0.1590(3)
H31 H 0.6688 0.4575 0.1650
H32 H 0.6786 0.3847 0.1835
H33 H 0.6127 0.4018 0.1518
C33 C 0.2096(6) 0.2396(6) 0.0633(3)
C34 C 0.2299(4) 0.1677(7) 0.0690(3)
H34 H 0.2345 0.1565 0.0992
C35 C 0.1750(6) 0.1217(10) 0.0454(5)
H35 H 0.1288 0.1321 0.0537
H36 H 0.1863 0.0757 0.0522
H37 H 0.1755 0.1283 0.0155
C36 C 0.3583(5) 0.1643(5) 0.0714(3)
C37 C 0.4135(5) 0.1383(5) 0.0571(3)
H38 H 0.4084 0.1114 0.0330
C38 C 0.4797(4) 0.1497(5) 0.0768(3)
C39 C 0.4863(4) 0.1946(4) 0.1108(2)
C40 C 0.4267(5) 0.2219(5) 0.1259(2)
C41 C 0.3608(5) 0.2056(6) 0.1063(3)
H39 H 0.3196 0.2221 0.1162
C42 C 0.5439(5) 0.1175(6) 0.0592(3)
H40 H 0.5760 0.1015 0.0822
H41 H 0.5674 0.1502 0.0433
H42 H 0.5287 0.0806 0.0412
C43 C 0.4343(5) 0.2714(5) 0.1659(3)
H43 H 0.4013 0.3078 0.1613
H44 H 0.4817 0.2890 0.1695
H45 H 0.4246 0.2472 0.1909
C44 C 0.6862(5) 0.0596(4) 0.2693(2)
C45 C 0.7536(4) 0.0731(4) 0.2855(2)
H46 H 0.7744 0.0478 0.3079
C46 C 0.7905(4) 0.1239(4) 0.2688(2)
C47 C 0.7627(4) 0.1651(5) 0.2354(2)
C48 C 0.8009(4) 0.2134(5) 0.2152(2)
H47 H 0.8481 0.2205 0.2249
C49 C 0.7727(4) 0.2495(4) 0.1830(2)
H48 H 0.7994 0.2829 0.1716
C50 C 0.7001(3) 0.2374(4) 0.1653(2)
C51 C 0.6693(4) 0.2737(4) 0.1287(2)
C52 C 0.6007(4) 0.2587(5) 0.1145(2)
H49 H 0.5796 0.2835 0.0919
C53 C 0.5589(4) 0.2073(4) 0.1320(2)
C54 C 0.5880(4) 0.1737(4) 0.1666(2)
C55 C 0.5518(4) 0.1222(4) 0.1856(2)
H50 H 0.5055 0.1128 0.1751
C56 C 0.5809(4) 0.0856(4) 0.2184(3)
H51 H 0.5544 0.0524 0.2302
C57 C 0.6536(4) 0.0979(4) 0.2355(2)
C58 C 0.6911(4) 0.1467(4) 0.2196(2)
C59 C 0.6596(4) 0.1888(4) 0.1836(2)
H52 H 0.2235 0.0053 0.3345
C64 C 0.1551(6) 0.0176(5) 0.3993(3)
H56 H 0.2034 0.0095 0.3991
C65 C 0.1275(6) 0.0549(5) 0.4328(3)
C66 C 0.0553(4) 0.0673(4) 0.4319(2)
C67 C 0.0082(5) 0.0409(4) 0.3981(3)
C68 C 0.0346(6) 0.0032(5) 0.3684(3)
C69 C 0.0000 0.0721(6) 0.5000
H58 H 0.0000 0.0254 0.5000
C70 C 0.0261(4) 0.1068(5) 0.4667(3)
C72 C 0.1823(6) 0.0846(6) 0.4682(3)
H62 H 0.1573 0.1075 0.4889
H63 H 0.2131 0.1156 0.4557
H64 H 0.2099 0.0488 0.4816
C73 C 0.0270(4) 0.1800(4) 0.4663(2)
C74 C 0.0000 0.2116(6) 0.5000
C75 C 0.0000 0.2835(6) 0.5000
C76 C 0.0240(4) 0.3214(4) 0.4650(2)
C77 C 0.0479(4) 0.2800(5) 0.4318(3)
H65 H 0.0637 0.3021 0.4087
C78 C 0.0494(4) 0.2147(5) 0.4312(3)
H66 H 0.0649 0.1917 0.4083
C79 C 0.0000 0.4208(8) 0.5000
H67 H 0.0000 0.4674 0.5000
C80 C 0.0229(4) 0.3914(5) 0.4657(3)
C81 C 0.0432(5) 0.4262(5) 0.4282(3)
C83 C 0.0149(6) 0.4637(5) 0.3546(3)
C84 C 0.0757(7) 0.4957(5) 0.3552(3)
C85 C 0.1241(7) 0.4940(6) 0.3914(4)
H69 H 0.1677 0.5150 0.3906
C86 C 0.1093(5) 0.4626(5) 0.4278(3)
C87 C 0.1614(6) 0.4565(7) 0.4696(4)
H70 H 0.2045 0.4801 0.4659
H71 H 0.1717 0.4100 0.4753
H72 H 0.1394 0.4756 0.4929
C89 C 0.8977(9) 0.5389(10) 0.0158(4)
H77 H 0.9427 0.5461 0.0315
H78 H 0.8641 0.5708 0.0245
C90 C 0.1508(8) 0.6052(9) 0.2774(4)
H79 H 0.1338 0.5756 0.2549
H80 H 0.1979 0.6197 0.2732
H81 H 0.1202 0.6436 0.2777
C91 C 0.2170(11) 0.5400(12) 0.3215(5)
C92 C 0.1517(9) 0.5693(10) 0.3186(4)
H82 H 0.1494 0.6020 0.3415
C103 C 0.0693(5) 0.0561(5) 0.6027(2)
H89 H 0.0918 0.0480 0.6306
H90 H 0.0756 0.1023 0.5953
H91 H 0.0902 0.0277 0.5828
C111 C 0.0031(5) 0.4349(5) 0.6077(3)
H97 H 0.0152 0.4603 0.6701
C117 C 0.0759(6) 0.4022(7) 0.6067(4)
H102 H 0.1105 0.4282 0.6236
H103 H 0.0883 0.4006 0.5781
H104 H 0.0746 0.3575 0.6179
Zn8 Zn 0.14181(5) 0.35897(8) 0.09150(3)
Zn10 Zn 0.3561(3) 0.5889(3) 0.32522(12)
O7 O 0.8828(5) 0.3992(5) 0.9649(3)
O8 O 0.7780(6) 0.4452(4) 0.9685(3)
C23 C 0.8377(10) 0.4334(11) 0.9827(4)
H76 H 0.9025 0.5444 0.9861
Zn6 Zn 0.85819(5) 0.35897(8) 0.90850(3)
Zn1 Zn 0.35819(5) 0.85897(8) 0.40850(3)
O1 O 0.4258(4) 0.8224(6) 0.3323(3)
O2 O 0.4625(4) 0.8413(4) 0.3957(3)
O3 O 0.5607(3) 0.8148(4) 0.3137(3)
O13 O 0.3098(4) 0.9188(5) 0.3692(2)
O14 O 0.2087(5) 0.8632(6) 0.3788(3)
O15 O 0.1252(4) 0.9578(4) 0.3330(2)
C1 C 0.4696(8) 0.8263(8) 0.3602(4)
C2 C 0.5440(5) 0.7987(6) 0.3554(4)
H1 H 0.5786 0.8192 0.3764
C3 C 0.5484(7) 0.7206(7) 0.3584(4)
H2 H 0.5961 0.7064 0.3557
H3 H 0.5173 0.7010 0.3362
H4 H 0.5344 0.7063 0.3853
C4 C 0.5904(4) 0.8740(6) 0.3067(4)
C5 C 0.5823(5) 0.9321(5) 0.3310(3)
H5 H 0.5568 0.9306 0.3546
C6 C 0.6123(5) 0.9905(5) 0.3195(3)
C7 C 0.6485(4) 0.9930(5) 0.2830(3)
C8 C 0.6551(5) 0.9363(5) 0.2573(3)
C9 C 0.6231(5) 0.8804(6) 0.2685(3)
H6 H 0.6222 0.8437 0.2504
C11 C 0.6935(6) 0.9364(5) 0.2182(2)
H10 H 0.6901 0.8927 0.2054
H11 H 0.7424 0.9473 0.2255
H12 H 0.6726 0.9691 0.1986
H20 H 0.9241 0.9950 0.2504
C60 C 0.2436(10) 0.9069(9) 0.3601(5)
C61 C 0.2044(8) 0.9601(7) 0.3295(3)
C62 C 0.2148(9) 0.9350(12) 0.2839(4)
H53 H 0.2633 0.9410 0.2785
H54 H 0.1847 0.9603 0.2637
H55 H 0.2026 0.8883 0.2815
C63 C 0.1075(6) 0.9943(5) 0.3676(3)
H57 H 0.0038 0.9824 0.3480
O42 O 0.3328(4) 0.7600(5) 0.4104(2)
O43 O 0.3828(5) 0.8992(5) 0.4649(3)
O33 O 0.1172(5) 0.3992(5) 0.0351(3)
O34 O 0.2220(6) 0.4452(4) 0.0315(3)
C143 C 0.1623(10) 0.4334(11) 0.0173(4)
H160 H 0.0975 0.5444 0.0139
C69_2 C 1.0000 0.0721(6) 0.5000
H58_2 H 1.0000 0.0254 0.5000
C71 C 0.9307(5) 0.0561(5) 0.3973(2)
H59 H 0.9082 0.0480 0.3694
H60 H 0.9244 0.1023 0.4047
H61 H 0.9098 0.0277 0.4172
C74_2 C 1.0000 0.2116(6) 0.5000
C75_2 C 1.0000 0.2835(6) 0.5000
C79_2 C 1.0000 0.4208(8) 0.5000
H67_2 H 1.0000 0.4674 0.5000
C82 C 0.9969(5) 0.4349(5) 0.3923(3)
H68 H 0.9848 0.4603 0.3299
C88 C 0.9241(6) 0.4022(7) 0.3933(4)
H73 H 0.8895 0.4282 0.3764
H74 H 0.9117 0.4006 0.4219
H75 H 0.9254 0.3575 0.3821
O24 O 0.7720(5) 0.4739(7) 0.6862(3)
O25 O 0.7155(6) 0.5540(6) 0.6539(3)
O26_2 O 0.9048(6) 0.5254(6) 0.6814(3)
H83 H 0.7765 0.0053 0.6655
C97 C 0.8449(6) 0.0176(5) 0.6007(3)
H87 H 0.7966 0.0095 0.6009
C98 C 0.8725(6) 0.0549(5) 0.5672(3)
C99 C 0.9447(4) 0.0673(4) 0.5681(2)
C100 C 0.9918(5) 0.0409(4) 0.6019(3)
C101 C 0.9654(6) 0.0032(5) 0.6316(3)
C102 C 0.9739(4) 0.1068(5) 0.5333(3)
C104 C 0.8177(6) 0.0846(6) 0.5318(3)
H92 H 0.8427 0.1075 0.5111
H93 H 0.7869 0.1156 0.5443
H94 H 0.7901 0.0488 0.5184
C105 C 0.9730(4) 0.1800(4) 0.5337(2)
C106 C 0.9760(4) 0.3214(4) 0.5350(2)
C107 C 0.9521(4) 0.2800(5) 0.5682(3)
H95 H 0.9363 0.3021 0.5913
C108 C 0.9506(4) 0.2147(5) 0.5688(3)
H96 H 0.9351 0.1917 0.5917
C109 C 0.9771(4) 0.3914(5) 0.5343(3)
C110 C 0.9568(5) 0.4262(5) 0.5718(3)
C112 C 0.9851(6) 0.4637(5) 0.6454(3)
C113 C 0.9243(7) 0.4957(5) 0.6448(3)
C114 C 0.8759(7) 0.4940(6) 0.6086(4)
H98_2 H 0.8323 0.5150 0.6094
C115 C 0.8907(5) 0.4626(5) 0.5722(3)
C116 C 0.8386(6) 0.4565(7) 0.5304(4)
H99 H 0.7955 0.4801 0.5341
H100 H 0.8283 0.4100 0.5247
H101 H 0.8606 0.4756 0.5071
C118_2 C 0.8492(8) 0.6052(9) 0.7226(4)
H105_2 H 0.8662 0.5756 0.7451
H106_2 H 0.8021 0.6197 0.7268
H107_2 H 0.8798 0.6436 0.7223
C119_2 C 0.7830(11) 0.5400(12) 0.6785(5)
C120_2 C 0.8483(9) 0.5693(10) 0.6814(4)
H108_2 H 0.8506 0.6020 0.6585
O30 O 0.7616(4) 0.2713(5) 0.9628(2)
O31 O 0.8328(4) 0.2600(5) 0.9104(2)
O32 O 0.7078(3) 0.1491(4) 0.94919(18)
O35 O 0.1808(5) 0.4784(5) 0.9456(2)
C130 C 0.3884(7) 0.0537(7) 0.6533(3)
H115 H 0.3412 0.0634 0.6414
H116 H 0.4184 0.0466 0.6309
H117 H 0.4061 0.0908 0.6705
C136 C 0.0100(7) 0.1103(8) 0.7152(4)
C137 C 0.0805(5) 0.0926(5) 0.7282(3)
C138 C 0.1322(4) 0.1376(6) 0.7126(3)
C139 C 0.1156(5) 0.1921(5) 0.6865(2)
C140 C 0.0453(4) 0.2025(6) 0.6752(2)
H126 H 0.0320 0.2381 0.6572
C141 C 0.0988(7) 0.0356(7) 0.7599(3)
H127 H 0.1491 0.0290 0.7631
H129 H 0.0826 0.0472 0.7867
C142 C 0.1720(4) 0.2335(5) 0.6727(3)
H130 H 0.1541 0.2600 0.6488
H131 H 0.2097 0.2053 0.6649
H132 H 0.1896 0.2626 0.6954
C144 C 0.1290(7) 0.4653(9) 0.9758(4)
H133 H 0.0902 0.4375 0.9629
C145 C 0.2165(6) 0.4240(7) 0.9269(3)
C146 C 0.2077(4) 0.3630(7) 0.9408(3)
H134 H 0.1777 0.3542 0.9617
C147 C 0.2476(4) 0.3088(5) 0.9220(3)
C148 C 0.2910(4) 0.3250(5) 0.8901(2)
C149 C 0.2961(4) 0.3909(6) 0.8781(3)
C150 C 0.2569(5) 0.4361(6) 0.8967(3)
H135 H 0.2587 0.4802 0.8872
C151 C 0.2411(6) 0.2339(7) 0.9362(4)
H136 H 0.2487 0.2048 0.9129
H137 H 0.1946 0.2263 0.9449
H138 H 0.2759 0.2248 0.9593
C152 C 0.3379(6) 0.4105(5) 0.8410(3)
H139 H 0.3312 0.4575 0.8350
H140 H 0.3214 0.3847 0.8165
H141 H 0.3873 0.4018 0.8482
C153 C 0.7904(6) 0.2396(6) 0.9367(3)
C154 C 0.7701(4) 0.1677(7) 0.9310(3)
H142 H 0.7655 0.1565 0.9008
C155 C 0.8250(6) 0.1217(10) 0.9546(5)
H143 H 0.8712 0.1321 0.9463
H144 H 0.8137 0.0757 0.9478
H145 H 0.8245 0.1283 0.9845
C156 C 0.6417(5) 0.1643(5) 0.9286(3)
C157 C 0.5865(5) 0.1383(5) 0.9429(3)
H146 H 0.5916 0.1114 0.9670
C158 C 0.5203(4) 0.1497(5) 0.9232(3)
C159 C 0.5137(4) 0.1946(4) 0.8892(2)
C160 C 0.5733(5) 0.2219(5) 0.8741(2)
C161 C 0.6392(5) 0.2056(6) 0.8937(3)
H147 H 0.6804 0.2221 0.8838
C162 C 0.4561(5) 0.1175(6) 0.9408(3)
H148 H 0.4240 0.1015 0.9178
H149 H 0.4326 0.1502 0.9567
H150 H 0.4713 0.0806 0.9588
C163 C 0.5657(5) 0.2714(5) 0.8341(3)
H151 H 0.5987 0.3078 0.8387
H152 H 0.5183 0.2890 0.8305
H153 H 0.5754 0.2472 0.8091
C164 C 0.3138(5) 0.0596(4) 0.7307(2)
C165 C 0.2464(4) 0.0731(4) 0.7145(2)
H154 H 0.2256 0.0478 0.6921
C166 C 0.2095(4) 0.1239(4) 0.7312(2)
C167 C 0.2373(4) 0.1651(5) 0.7646(2)
C168 C 0.1991(4) 0.2134(5) 0.7848(2)
H155 H 0.1519 0.2205 0.7751
C169 C 0.2273(4) 0.2495(4) 0.8170(2)
H156 H 0.2006 0.2829 0.8284
C170 C 0.2999(3) 0.2374(4) 0.8347(2)
C171 C 0.3307(4) 0.2737(4) 0.8713(2)
C172 C 0.3993(4) 0.2587(5) 0.8855(2)
H157 H 0.4204 0.2835 0.9081
C173 C 0.4411(4) 0.2073(4) 0.8680(2)
C174 C 0.4120(4) 0.1737(4) 0.8334(2)
C175 C 0.4482(4) 0.1222(4) 0.8144(2)
H158 H 0.4945 0.1128 0.8249
C176 C 0.4191(4) 0.0856(4) 0.7816(3)
H159 H 0.4456 0.0524 0.7698
C177 C 0.3464(4) 0.0979(4) 0.7645(2)
C178 C 0.3089(4) 0.1467(4) 0.7804(2)
C179 C 0.3404(4) 0.1888(4) 0.8164(2)
C180 C 0.1023(9) 0.5389(10) 0.9842(4)
H161 H 0.0573 0.5461 0.9685
H162 H 0.1359 0.5708 0.9755
Zn9 Zn 0.6439(3) 0.5889(3) 0.67478(12)
O21 O 0.6902(4) 0.9188(5) 0.6308(2)
O22 O 0.7913(5) 0.8632(6) 0.6212(3)
O23 O 0.8748(4) 0.9578(4) 0.6670(2)
C93 C 0.7564(10) 0.9069(9) 0.6399(5)
C94 C 0.7956(8) 0.9601(7) 0.6705(3)
C95 C 0.7852(9) 0.9350(12) 0.7161(4)
H84 H 0.7367 0.9410 0.7215
H85 H 0.8153 0.9603 0.7363
H86 H 0.7974 0.8883 0.7185
C96 C 0.8925(6) 0.9943(5) 0.6324(3)
H88 H 0.9962 0.9824 0.6520
Zn3 Zn 0.64181(5) 0.85897(8) 0.59150(3)
O27 O 0.5742(4) 0.8224(6) 0.6677(3)
O28 O 0.5375(4) 0.8413(4) 0.6043(3)
O29 O 0.4393(3) 0.8148(4) 0.6863(3)
C121 C 0.5304(8) 0.8263(8) 0.6398(4)
C122 C 0.4560(5) 0.7987(6) 0.6446(4)
H109 H 0.4214 0.8192 0.6236
C123 C 0.4516(7) 0.7206(7) 0.6416(4)
H110 H 0.4039 0.7064 0.6443
H111 H 0.4827 0.7010 0.6638
H112 H 0.4656 0.7063 0.6147
C124 C 0.4096(4) 0.8740(6) 0.6933(4)
C125 C 0.4177(5) 0.9321(5) 0.6690(3)
H113 H 0.4432 0.9306 0.6454
C126 C 0.3877(5) 0.9905(5) 0.6805(3)
C127 C 0.3515(4) 0.9930(5) 0.7170(3)
C128 C 0.3449(5) 0.9363(5) 0.7427(3)
C129 C 0.3769(5) 0.8804(6) 0.7315(3)
H114 H 0.3778 0.8437 0.7496
C131 C 0.3065(6) 0.9364(5) 0.7818(2)
H118 H 0.3099 0.8927 0.7946
H119 H 0.2576 0.9473 0.7745
H120 H 0.3274 0.9691 0.8014
H128 H 0.0759 0.9950 0.7496
O41 O 0.6672(4) 0.7600(5) 0.5896(2)
O44 O 0.6172(5) 0.8992(5) 0.5351(3)
O3_2 O 0.0607(3) 0.3148(4) 0.8137(3)
O8_2 O 0.2780(6) 0.9452(4) 0.4685(3)
O9_2 O 0.3192(5) 0.9784(5) 0.5544(2)
O10_2 O 0.6484(5) 0.5944(7) 0.7354(4)
O11_2 O 0.6130(5) 0.6996(8) 0.7426(3)
O12_2 O 0.5760(4) 0.6830(5) 0.8242(2)
O19_2 O 0.6419(5) 0.6824(4) 0.6629(3)
O20_2 O 0.5719(10) 0.5798(17) 0.6632(10)
C2_2 C 0.0440(5) 0.2987(6) 0.8554(4)
H1_2 H 0.0786 0.3192 0.8764
C3_2 C 0.0484(7) 0.2206(7) 0.8584(4)
H2_2 H 0.0961 0.2064 0.8557
H3_2 H 0.0173 0.2010 0.8362
H4_2 H 0.0344 0.2063 0.8853
C4_2 C 0.0904(4) 0.3740(6) 0.8067(4)
C5_2 C 0.0823(5) 0.4321(5) 0.8310(3)
H5_2 H 0.0568 0.4306 0.8546
C6_2 C 0.1123(5) 0.4905(5) 0.8195(3)
C7_2 C 0.1485(4) 0.4930(5) 0.7830(3)
C8_2 C 0.1551(5) 0.4363(5) 0.7573(3)
C9_2 C 0.1231(5) 0.3804(6) 0.7685(3)
H6_2 H 0.1222 0.3437 0.7504
C10_2 C 0.1116(7) 0.5537(7) 0.8467(3)
H7_2 H 0.1588 0.5634 0.8586
H8_2 H 0.0816 0.5466 0.8691
H9_2 H 0.0939 0.5908 0.8295
C11_2 C 0.1935(6) 0.4364(5) 0.7182(2)
H10_2 H 0.1901 0.3927 0.7054
H11_2 H 0.2424 0.4473 0.7255
H12_2 H 0.1726 0.4691 0.6986
C12_2 C 0.6310(9) 0.6493(11) 0.7599(6)
C13_2 C 0.6278(7) 0.6404(10) 0.8053(5)
H13_2 H 0.6190 0.5931 0.8115
C14_2 C 0.7001(7) 0.6610(9) 0.8256(5)
H14_2 H 0.7335 0.6256 0.8222
H15_2 H 0.6973 0.6693 0.8552
H16_2 H 0.7152 0.7011 0.8123
C15_2 C 0.5064(5) 0.6626(8) 0.8109(3)
C16_2 C 0.4900(7) 0.6103(8) 0.7848(4)
H17_2 H 0.5265 0.5850 0.7752
C17_2 C 0.4195(5) 0.5926(5) 0.7718(3)
C18_2 C 0.3678(4) 0.6376(6) 0.7874(3)
C19_2 C 0.3844(5) 0.6921(5) 0.8135(2)
C20_2 C 0.4547(4) 0.7025(6) 0.8248(2)
H18_2 H 0.4680 0.7381 0.8428
C21_2 C 0.4012(7) 0.5356(7) 0.7401(3)
H19_2 H 0.3509 0.5290 0.7369
H20_2 H 0.4241 0.4950 0.7504
H21_2 H 0.4174 0.5472 0.7133
C22_2 C 0.3280(4) 0.7335(5) 0.8273(3)
H22_2 H 0.3459 0.7600 0.8512
H23_2 H 0.2903 0.7053 0.8351
H24_2 H 0.3104 0.7626 0.8046
C23_2 C 0.3377(10) 0.9334(11) 0.4827(4)
C24_2 C 0.3710(7) 0.9653(9) 0.5242(4)
H25_2 H 0.4098 0.9375 0.5371
C25_2 C 0.2835(6) 0.9240(7) 0.5731(3)
C26_2 C 0.2923(4) 0.8630(7) 0.5592(3)
H26_2 H 0.3223 0.8542 0.5383
C27_2 C 0.2524(4) 0.8088(5) 0.5780(3)
C28_2 C 0.2090(4) 0.8250(5) 0.6099(2)
C29_2 C 0.2039(4) 0.8909(6) 0.6219(3)
C30_2 C 0.2431(5) 0.9361(6) 0.6033(3)
H27_2 H 0.2413 0.9802 0.6128
C31_2 C 0.2589(6) 0.7339(7) 0.5638(4)
H28_2 H 0.2513 0.7048 0.5871
H29_2 H 0.3054 0.7263 0.5551
H30_2 H 0.2241 0.7248 0.5407
C32_2 C 0.1621(6) 0.9105(5) 0.6590(3)
H31_2 H 0.1688 0.9575 0.6650
H32_2 H 0.1786 0.8847 0.6835
H33_2 H 0.1127 0.9018 0.6518
C42_2 C 0.0439(5) 0.6175(6) 0.5592(3)
H40_2 H 0.0760 0.6015 0.5822
H41_2 H 0.0674 0.6502 0.5433
H42_2 H 0.0287 0.5806 0.5412
C44_2 C 0.1862(5) 0.5596(4) 0.7693(2)
C45_2 C 0.2536(4) 0.5731(4) 0.7855(2)
H46_2 H 0.2744 0.5478 0.8079
C46_2 C 0.2905(4) 0.6239(4) 0.7688(2)
C47_2 C 0.2627(4) 0.6651(5) 0.7354(2)
C48_2 C 0.3009(4) 0.7134(5) 0.7152(2)
H47_2 H 0.3481 0.7205 0.7249
C49_2 C 0.2727(4) 0.7495(4) 0.6830(2)
H48_2 H 0.2994 0.7829 0.6716
C50_2 C 0.2001(3) 0.7374(4) 0.6653(2)
C51_2 C 0.1693(4) 0.7737(4) 0.6287(2)
C52_2 C 0.1007(4) 0.7587(5) 0.6145(2)
H49_2 H 0.0796 0.7835 0.5919
C53_2 C 0.0589(4) 0.7073(4) 0.6320(2)
C54_2 C 0.0880(4) 0.6737(4) 0.6666(2)
C55_2 C 0.0518(4) 0.6222(4) 0.6856(2)
H50_2 H 0.0055 0.6128 0.6751
C56_2 C 0.0809(4) 0.5856(4) 0.7184(3)
H51_2 H 0.0544 0.5524 0.7302
C57_2 C 0.1536(4) 0.5979(4) 0.7355(2)
C58_2 C 0.1911(4) 0.6467(4) 0.7196(2)
C59_2 C 0.1596(4) 0.6888(4) 0.6836(2)
H175_2 H 0.545085 0.618653 0.673111
H176_2 H 0.563646 0.576291 0.631926
H177_2 H 0.685471 0.703785 0.676546
H178_2 H 0.639477 0.689416 0.631825
C69_3 C 0.5000 0.5721(6) 0.0000
H58_3 H 0.5000 0.5254 0.0000
C74_3 C 0.5000 0.7116(6) 0.0000
C75_3 C 0.5000 0.7835(6) 0.0000
C79_3 C 0.5000 0.9208(8) 0.0000
H67_3 H 0.5000 0.9674 0.0000
O21_2 O 0.1902(4) 0.4188(5) 0.1308(2)
O22_2 O 0.2913(5) 0.3632(6) 0.1212(3)
O23_2 O 0.3748(4) 0.4578(4) 0.1670(2)
O24_2 O 0.2720(5) 0.9739(7) 0.1862(3)
C93_2 C 0.2564(10) 0.4069(9) 0.1399(5)
C94_2 C 0.2956(8) 0.4601(7) 0.1705(3)
H83_2 H 0.2765 0.5053 0.1655
C95_2 C 0.2852(9) 0.4350(12) 0.2161(4)
H84_2 H 0.2367 0.4410 0.2215
H85_2 H 0.3153 0.4603 0.2363
H86_2 H 0.2974 0.3883 0.2185
C96_2 C 0.3925(6) 0.4943(5) 0.1324(3)
C97_2 C 0.3449(6) 0.5176(5) 0.1007(3)
H87_2 H 0.2966 0.5095 0.1009
C98_2 C 0.3725(6) 0.5549(5) 0.0672(3)
C99_2 C 0.4447(4) 0.5673(4) 0.0681(2)
C100_2 C 0.4918(5) 0.5409(4) 0.1019(3)
C101_2 C 0.4654(6) 0.5032(5) 0.1316(3)
H88_2 H 0.4962 0.4824 0.1520
C102_2 C 0.4739(4) 0.6068(5) 0.0333(3)
C103_2 C 0.5693(5) 0.5561(5) 0.1027(2)
H89_2 H 0.5918 0.5480 0.1306
H90_2 H 0.5756 0.6023 0.0953
H91_2 H 0.5902 0.5277 0.0828
C104_2 C 0.3177(6) 0.5846(6) 0.0318(3)
H92_2 H 0.3427 0.6075 0.0111
H93_2 H 0.2869 0.6156 0.0443
H94_2 H 0.2901 0.5488 0.0184
C105_2 C 0.4730(4) 0.6800(4) 0.0337(2)
C106_2 C 0.4760(4) 0.8214(4) 0.0350(2)
C107_2 C 0.4521(4) 0.7800(5) 0.0682(3)
H95_2 H 0.4363 0.8021 0.0913
C108_2 C 0.4506(4) 0.7147(5) 0.0688(3)
H96_2 H 0.4351 0.6917 0.0917
C109_2 C 0.4771(4) 0.8914(5) 0.0343(3)
C110_2 C 0.4568(5) 0.9262(5) 0.0718(3)
C111_2 C 0.5031(5) 0.9349(5) 0.1077(3)
C112_2 C 0.4851(6) 0.9637(5) 0.1454(3)
H97_2 H 0.5152 0.9603 0.1701
C113_2 C 0.4243(7) 0.9957(5) 0.1448(3)
C114_2 C 0.3759(7) 0.9940(6) 0.1086(4)
C115_2 C 0.3907(5) 0.9626(5) 0.0722(3)
C116_2 C 0.3386(6) 0.9565(7) 0.0304(4)
H99_2 H 0.2955 0.9801 0.0341
H100_2 H 0.3283 0.9100 0.0247
H101_2 H 0.3606 0.9756 0.0071
C117_2 C 0.5759(6) 0.9022(7) 0.1067(4)
H102_2 H 0.6105 0.9282 0.1236
H103_2 H 0.5883 0.9006 0.0781
H104_2 H 0.5746 0.8575 0.1179
O27_2 O 0.0742(4) 0.3224(6) 0.1677(3)
O28_2 O 0.0375(4) 0.3413(4) 0.1043(3)
O30_2 O 0.2616(4) 0.7713(5) 0.4628(2)
O32_2 O 0.2078(3) 0.6491(4) 0.44919(18)
C121_2 C 0.0304(8) 0.3263(8) 0.1398(4)
C153_2 C 0.2904(6) 0.7396(6) 0.4367(3)
C154_2 C 0.2701(4) 0.6677(7) 0.4310(3)
H142_2 H 0.2655 0.6565 0.4008
C155_2 C 0.3250(6) 0.6217(10) 0.4546(5)
H143_2 H 0.3712 0.6321 0.4463
H144_2 H 0.3137 0.5757 0.4478
H145_2 H 0.3245 0.6283 0.4845
C156_2 C 0.1417(5) 0.6643(5) 0.4286(3)
C157_2 C 0.0865(5) 0.6383(5) 0.4429(3)
H146_2 H 0.0916 0.6114 0.4670
C158_2 C 0.0203(4) 0.6497(5) 0.4232(3)
C159_2 C 0.0137(4) 0.6946(4) 0.3892(2)
C160_2 C 0.0733(5) 0.7219(5) 0.3741(2)
C161_2 C 0.1392(5) 0.7056(6) 0.3937(3)
H147_2 H 0.1804 0.7221 0.3838
C163_2 C 0.0657(5) 0.7714(5) 0.3341(3)
H151_2 H 0.0987 0.8078 0.3387
H152_2 H 0.0183 0.7890 0.3305
H153_2 H 0.0754 0.7472 0.3091
O1_2 O 0.9258(4) 0.3224(6) 0.8323(3)
O2_2 O 0.9625(4) 0.3413(4) 0.8957(3)
O4_2 O 0.7384(4) 0.7713(5) 0.5372(2)
O6_2 O 0.7922(3) 0.6491(4) 0.55081(18)
O13_2 O 0.8098(4) 0.4188(5) 0.8692(2)
O14_2 O 0.7087(5) 0.3632(6) 0.8788(3)
O15_2 O 0.6252(4) 0.4578(4) 0.8330(2)
O16_2 O 0.7280(5) 0.9739(7) 0.8138(3)
C1_2 C 0.9696(8) 0.3263(8) 0.8602(4)
C33_2 C 0.7096(6) 0.7396(6) 0.5633(3)
C34_2 C 0.7299(4) 0.6677(7) 0.5690(3)
H34_2 H 0.7345 0.6565 0.5992
C35_2 C 0.6750(6) 0.6217(10) 0.5454(5)
H35_2 H 0.6288 0.6321 0.5537
H36_2 H 0.6863 0.5757 0.5522
H37_2 H 0.6755 0.6283 0.5155
C36_2 C 0.8583(5) 0.6643(5) 0.5714(3)
C37_2 C 0.9135(5) 0.6383(5) 0.5571(3)
H38_2 H 0.9084 0.6114 0.5330
C38_2 C 0.9797(4) 0.6497(5) 0.5768(3)
C39_2 C 0.9863(4) 0.6946(4) 0.6108(2)
C40_2 C 0.9267(5) 0.7219(5) 0.6259(2)
C41_2 C 0.8608(5) 0.7056(6) 0.6063(3)
H39_2 H 0.8196 0.7221 0.6162
C43_2 C 0.9343(5) 0.7714(5) 0.6659(3)
H43_2 H 0.9013 0.8078 0.6613
H44_2 H 0.9817 0.7890 0.6695
H45_2 H 0.9246 0.7472 0.6909
C60_2 C 0.7436(10) 0.4069(9) 0.8601(5)
C61_2 C 0.7044(8) 0.4601(7) 0.8295(3)
H52_2 H 0.7235 0.5053 0.8345
C62_2 C 0.7148(9) 0.4350(12) 0.7839(4)
H53_2 H 0.7633 0.4410 0.7785
H54_2 H 0.6847 0.4603 0.7637
H55_2 H 0.7026 0.3883 0.7815
C63_2 C 0.6075(6) 0.4943(5) 0.8676(3)
C64_2 C 0.6551(6) 0.5176(5) 0.8993(3)
H56_2 H 0.7034 0.5095 0.8991
C65_2 C 0.6275(6) 0.5549(5) 0.9328(3)
C66_2 C 0.5553(4) 0.5673(4) 0.9319(2)
C67_2 C 0.5082(5) 0.5409(4) 0.8981(3)
C68_2 C 0.5346(6) 0.5032(5) 0.8684(3)
H57_2 H 0.5038 0.4824 0.8480
C69_4 C 0.5000 0.5721(6) 1.0000
H58_4 H 0.5000 0.5254 1.0000
C70_2 C 0.5261(4) 0.6068(5) 0.9667(3)
C71_2 C 0.4307(5) 0.5561(5) 0.8973(2)
H59_2 H 0.4082 0.5480 0.8694
H60_2 H 0.4244 0.6023 0.9047
H61_2 H 0.4098 0.5277 0.9172
C72_2 C 0.6823(6) 0.5846(6) 0.9682(3)
H62_2 H 0.6573 0.6075 0.9889
H63_2 H 0.7131 0.6156 0.9557
H64_2 H 0.7099 0.5488 0.9816
C73_2 C 0.5270(4) 0.6800(4) 0.9663(2)
C74_4 C 0.5000 0.7116(6) 1.0000
C75_4 C 0.5000 0.7835(6) 1.0000
C76_2 C 0.5240(4) 0.8214(4) 0.9650(2)
C77_2 C 0.5479(4) 0.7800(5) 0.9318(3)
H65_2 H 0.5637 0.8021 0.9087
C78_2 C 0.5494(4) 0.7147(5) 0.9312(3)
H66_2 H 0.5649 0.6917 0.9083
C79_4 C 0.5000 0.9208(8) 1.0000
H67_4 H 0.5000 0.9674 1.0000
C80_2 C 0.5229(4) 0.8914(5) 0.9657(3)
C81_2 C 0.5432(5) 0.9262(5) 0.9282(3)
C82_2 C 0.4969(5) 0.9349(5) 0.8923(3)
C83_2 C 0.5149(6) 0.9637(5) 0.8546(3)
H68_2 H 0.4848 0.9603 0.8299
C84_2 C 0.5757(7) 0.9957(5) 0.8552(3)
C85_2 C 0.6241(7) 0.9940(6) 0.8914(4)
C86_2 C 0.6093(5) 0.9626(5) 0.9278(3)
C87_2 C 0.6614(6) 0.9565(7) 0.9696(4)
H70_2 H 0.7045 0.9801 0.9659
H71_2 H 0.6717 0.9100 0.9753
H72_2 H 0.6394 0.9756 0.9929
C88_2 C 0.4241(6) 0.9022(7) 0.8933(4)
H73_2 H 0.3895 0.9282 0.8764
H74_2 H 0.4117 0.9006 0.9219
H75_2 H 0.4254 0.8575 0.8821
O29_2 O 0.9393(3) 0.3148(4) 0.1863(3)
O34_2 O 0.7220(6) 0.9452(4) 0.5315(3)
O35_2 O 0.6808(5) 0.9784(5) 0.4456(2)
O36 O 0.3516(5) 0.5944(7) 0.2646(4)
O37 O 0.3870(5) 0.6996(8) 0.2574(3)
O38 O 0.4240(4) 0.6830(5) 0.1758(2)
O39 O 0.3581(5) 0.6824(4) 0.3371(3)
O40 O 0.4281(10) 0.5798(17) 0.3368(10)
C122_2 C 0.9560(5) 0.2987(6) 0.1446(4)
H109_2 H 0.9214 0.3192 0.1236
C123_2 C 0.9516(7) 0.2206(7) 0.1416(4)
H110_2 H 0.9039 0.2064 0.1443
H111_2 H 0.9827 0.2010 0.1638
H112_2 H 0.9656 0.2063 0.1147
C124_2 C 0.9096(4) 0.3740(6) 0.1933(4)
C125_2 C 0.9177(5) 0.4321(5) 0.1690(3)
H113_2 H 0.9432 0.4306 0.1454
C126_2 C 0.8877(5) 0.4905(5) 0.1805(3)
C127_2 C 0.8515(4) 0.4930(5) 0.2170(3)
C128_2 C 0.8449(5) 0.4363(5) 0.2427(3)
C129_2 C 0.8769(5) 0.3804(6) 0.2315(3)
H114_2 H 0.8778 0.3437 0.2496
C130_2 C 0.8884(7) 0.5537(7) 0.1533(3)
H115_2 H 0.8412 0.5634 0.1414
H116_2 H 0.9184 0.5466 0.1309
H117_2 H 0.9061 0.5908 0.1705
C131_2 C 0.8065(6) 0.4364(5) 0.2818(2)
H118_2 H 0.8099 0.3927 0.2946
H119_2 H 0.7576 0.4473 0.2745
H120_2 H 0.8274 0.4691 0.3014
C132 C 0.3690(9) 0.6493(11) 0.2401(6)
C133 C 0.3722(7) 0.6404(10) 0.1947(5)
H121 H 0.3810 0.5931 0.1885
C134 C 0.2999(7) 0.6610(9) 0.1744(5)
H122 H 0.2665 0.6256 0.1778
H123 H 0.3027 0.6693 0.1448
H124 H 0.2848 0.7011 0.1877
C135 C 0.4936(5) 0.6626(8) 0.1891(3)
C136_2 C 0.5100(7) 0.6103(8) 0.2152(4)
H125 H 0.4735 0.5850 0.2248
C137_2 C 0.5805(5) 0.5926(5) 0.2282(3)
C138_2 C 0.6322(4) 0.6376(6) 0.2126(3)
C139_2 C 0.6156(5) 0.6921(5) 0.1865(2)
C140_2 C 0.5453(4) 0.7025(6) 0.1752(2)
H126_2 H 0.5320 0.7381 0.1572
C141_2 C 0.5988(7) 0.5356(7) 0.2599(3)
H127_2 H 0.6491 0.5290 0.2631
H128_2 H 0.5759 0.4950 0.2496
H129_2 H 0.5826 0.5472 0.2867
C142_2 C 0.6720(4) 0.7335(5) 0.1727(3)
H130_2 H 0.6541 0.7600 0.1488
H131_2 H 0.7097 0.7053 0.1649
H132_2 H 0.6896 0.7626 0.1954
C143_2 C 0.6623(10) 0.9334(11) 0.5173(4)
C144_2 C 0.6290(7) 0.9653(9) 0.4758(4)
H133_2 H 0.5902 0.9375 0.4629
C145_2 C 0.7165(6) 0.9240(7) 0.4269(3)
C146_2 C 0.7077(4) 0.8630(7) 0.4408(3)
H134_2 H 0.6777 0.8542 0.4617
C147_2 C 0.7476(4) 0.8088(5) 0.4220(3)
C148_2 C 0.7910(4) 0.8250(5) 0.3901(2)
C149_2 C 0.7961(4) 0.8909(6) 0.3781(3)
C150_2 C 0.7569(5) 0.9361(6) 0.3967(3)
H135_2 H 0.7587 0.9802 0.3872
C151_2 C 0.7411(6) 0.7339(7) 0.4362(4)
H136_2 H 0.7487 0.7048 0.4129
H137_2 H 0.6946 0.7263 0.4449
H138_2 H 0.7759 0.7248 0.4593
C152_2 C 0.8379(6) 0.9105(5) 0.3410(3)
H139_2 H 0.8312 0.9575 0.3350
H140_2 H 0.8214 0.8847 0.3165
H141_2 H 0.8873 0.9018 0.3482
C162_2 C 0.9561(5) 0.6175(6) 0.4408(3)
H148_2 H 0.9240 0.6015 0.4178
H149_2 H 0.9326 0.6502 0.4567
H150_2 H 0.9713 0.5806 0.4588
C164_2 C 0.8138(5) 0.5596(4) 0.2307(2)
C165_2 C 0.7464(4) 0.5731(4) 0.2145(2)
H154_2 H 0.7256 0.5478 0.1921
C166_2 C 0.7095(4) 0.6239(4) 0.2312(2)
C167_2 C 0.7373(4) 0.6651(5) 0.2646(2)
C168_2 C 0.6991(4) 0.7134(5) 0.2848(2)
H155_2 H 0.6519 0.7205 0.2751
C169_2 C 0.7273(4) 0.7495(4) 0.3170(2)
H156_2 H 0.7006 0.7829 0.3284
C170_2 C 0.7999(3) 0.7374(4) 0.3347(2)
C171_2 C 0.8307(4) 0.7737(4) 0.3713(2)
C172_2 C 0.8993(4) 0.7587(5) 0.3855(2)
H157_2 H 0.9204 0.7835 0.4081
C173_2 C 0.9411(4) 0.7073(4) 0.3680(2)
C174_2 C 0.9120(4) 0.6737(4) 0.3334(2)
C175_2 C 0.9482(4) 0.6222(4) 0.3144(2)
H158_2 H 0.9945 0.6128 0.3249
C176_2 C 0.9191(4) 0.5856(4) 0.2816(3)
H159_2 H 0.9456 0.5524 0.2698
C177_2 C 0.8464(4) 0.5979(4) 0.2645(2)
C178_2 C 0.8089(4) 0.6467(4) 0.2804(2)
C179_2 C 0.8404(4) 0.6888(4) 0.3164(2)
H171 H 0.314529 0.703785 0.323454
H172 H 0.360523 0.689416 0.368175
H173 H 0.454915 0.618653 0.326889
H174 H 0.436354 0.576291 0.368074
Zn4 Zn 0.8561(3) 0.0889(3) 0.82522(12)
O36_2 O 0.8516(5) 0.0944(7) 0.7646(4)
O37_2 O 0.8870(5) 0.1996(8) 0.7574(3)
O38_2 O 0.9240(4) 0.1830(5) 0.6758(2)
O39_2 O 0.8581(5) 0.1824(4) 0.8371(3)
O40_2 O 0.9281(10) 0.0798(17) 0.8368(10)
C132_2 C 0.8690(9) 0.1493(11) 0.7401(6)
C133_2 C 0.8722(7) 0.1404(10) 0.6947(5)
H121_2 H 0.8810 0.0931 0.6885
C134_2 C 0.7999(7) 0.1610(9) 0.6744(5)
H122_2 H 0.7665 0.1256 0.6778
H123_2 H 0.8027 0.1693 0.6448
H124_2 H 0.7848 0.2011 0.6877
C135_2 C 0.9936(5) 0.1626(8) 0.6891(3)
H125_2 H 0.9735 0.0850 0.7248
O45 O 0.7845(6) 0.0540(6) 0.8461(3)
H171_2 H 0.814529 0.203785 0.823454
H172_2 H 0.860523 0.189416 0.868175
H173_2 H 0.954915 0.118653 0.826889
H174_2 H 0.936354 0.0762913 0.868074
O18_2 O 0.5952(6) 0.0254(6) 0.8186(3)
H69_2 H 0.6677 0.0150 0.8906
C90_2 C 0.6508(8) 0.1052(9) 0.7774(4)
H79_2 H 0.6338 0.0756 0.7549
H80_2 H 0.6979 0.1197 0.7732
H81_2 H 0.6202 0.1436 0.7777
C91_2 C 0.7170(11) 0.0400(12) 0.8215(5)
C92_2 C 0.6517(9) 0.0693(10) 0.8186(4)
H82_2 H 0.6494 0.1020 0.8415
C89_2 C 0.3977(9) 0.0389(10) 0.5158(4)
H76_2 H 0.4025 0.0444 0.4861
H77_2 H 0.4427 0.0461 0.5315
H78_2 H 0.3641 0.0708 0.5245
C180_2 C 0.6023(9) 0.0389(10) 0.4842(4)
H160_2 H 0.5975 0.0444 0.5139
H161_2 H 0.5573 0.0461 0.4685
H162_2 H 0.6359 0.0708 0.4755
N1 N 0.1557(5) 0.8670(8) 0.4630(3)
H163 H 0.1723 0.8258 0.4684
H164 H 0.1881 0.8909 0.4510
C181 C 0.1346(7) 0.8989(11) 0.5013(4)
H165 H 0.1464 0.8701 0.5251
H166 H 0.0845 0.9068 0.4983
H167 H 0.1591 0.9409 0.5057
C182 C 0.0860(8) 0.8646(12) 0.4348(4)
H168 H 0.0955 0.8548 0.4062
H169 H 0.0626 0.9073 0.4356
H170 H 0.0561 0.8303 0.4447
N1_2 N 0.8443(5) 0.8670(8) 0.5370(3)
H163_2 H 0.8277 0.8258 0.5316
H164_2 H 0.8119 0.8909 0.5490
C181_2 C 0.8654(7) 0.8989(11) 0.4987(4)
H165_2 H 0.8536 0.8701 0.4749
H166_2 H 0.9155 0.9068 0.5017
H167_2 H 0.8409 0.9409 0.4943
C182_2 C 0.9140(8) 0.8646(12) 0.5652(4)
H168_2 H 0.9045 0.8548 0.5938
H169_2 H 0.9374 0.9073 0.5644
H170_2 H 0.9439 0.8303 0.5553
C181_3 C 0.6346(7) 0.3989(11) 0.0013(4)
H165_3 H 0.6464 0.3701 0.0251
H167_3 H 0.6591 0.4409 0.0057
N1_3 N 0.6557(5) 0.3670(8) 0.9630(3)
H163_3 H 0.6723 0.3258 0.9684
H164_3 H 0.6881 0.3909 0.9510
H166_3 H 0.5845 0.4068 0.9983
C182_3 C 0.5860(8) 0.3646(12) 0.9348(4)
H168_3 H 0.5955 0.3548 0.9062
H169_3 H 0.5626 0.4073 0.9356
H170_3 H 0.5561 0.3303 0.9447
N1_4 N 0.3443(5) 0.3670(8) 0.0370(3)
H163_4 H 0.3277 0.3258 0.0316
H164_4 H 0.3119 0.3909 0.0490
H166_4 H 0.4155 0.4068 0.0017
C182_4 C 0.4140(8) 0.3646(12) 0.0652(4)
H168_4 H 0.4045 0.3548 0.0938
H169_4 H 0.4374 0.4073 0.0644
H170_4 H 0.4439 0.3303 0.0553
C181_4 C 0.3654(7) 0.3989(11) 0.9987(4)
H165_4 H 0.3536 0.3701 0.9749
H167_4 H 0.3409 0.4409 0.9943
loop_
_geom_bond_atom_site_label_1
_geom_bond_atom_site_label_2
_geom_bond_site_symmetry_1
_geom_bond_site_symmetry_2
Zn2 O10 1_555 1_555
O10 C12 1_555 1_555
O11 C12 1_555 1_555
O12 C13 1_555 1_555
O19 Zn2 1_555 1_555
O20 Zn2 1_555 1_555
C12 C13 1_555 1_555
C13 H13 1_555 1_555
C14 C13 1_555 1_555
H14 C14 1_555 1_555
H15 C14 1_555 1_555
H16 C14 1_555 1_555
C15 O12 1_555 1_555
O46 Zn2 1_555 1_555
O20 H175 1_555 1_555
O20 H176 1_555 1_555
O19 H177 1_555 1_555
O19 H178 1_555 1_555
O46 C119 1_555 1_555
C118 H105 1_555 1_555
H106 C118 1_555 1_555
H107 C118 1_555 1_555
C119 C120 1_555 1_555
C120 O26 1_555 1_555
H108 C120 1_555 1_555
C118 C120 1_555 1_555
O4 C33 1_555 1_555
O5 C33 1_555 1_555
O6 C34 1_555 1_555
O9 C24 1_555 1_555
O16 C91 1_555 1_555
O17 C91 1_555 1_555
O18 C84 1_555 1_555
H7 C10 1_555 1_555
H8 C10 1_555 1_555
H9 C10 1_555 1_555
C17 C16 1_555 1_555
C18 C17 1_555 1_555
C19 C18 1_555 1_555
H18 C20 1_555 1_555
C21 C17 1_555 1_555
H19 C21 1_555 1_555
H21 C21 1_555 1_555
C22 C19 1_555 1_555
H22 C22 1_555 1_555
H23 C22 1_555 1_555
H24 C22 1_555 1_555
C24 H25 1_555 1_555
C25 O9 1_555 1_555
C26 C25 1_555 1_555
H26 C26 1_555 1_555
C27 C26 1_555 1_555
C28 C27 1_555 1_555
C29 C28 1_555 1_555
C30 C25 1_555 1_555
H27 C30 1_555 1_555
C31 C27 1_555 1_555
H28 C31 1_555 1_555
H29 C31 1_555 1_555
H30 C31 1_555 1_555
C32 C29 1_555 1_555
H31 C32 1_555 1_555
H32 C32 1_555 1_555
H33 C32 1_555 1_555
C33 C34 1_555 1_555
C34 H34 1_555 1_555
C35 C34 1_555 1_555
H35 C35 1_555 1_555
H36 C35 1_555 1_555
H37 C35 1_555 1_555
C36 O6 1_555 1_555
C37 C36 1_555 1_555
H38 C37 1_555 1_555
C38 C37 1_555 1_555
C39 C38 1_555 1_555
C40 C39 1_555 1_555
C41 C36 1_555 1_555
H39 C41 1_555 1_555
C42 C38 1_555 1_555
H40 C42 1_555 1_555
H41 C42 1_555 1_555
H42 C42 1_555 1_555
C43 C40 1_555 1_555
H43 C43 1_555 1_555
H44 C43 1_555 1_555
H45 C43 1_555 1_555
C45 C44 1_555 1_555
H46 C45 1_555 1_555
C46 C18 1_555 1_555
C47 C46 1_555 1_555
C48 C47 1_555 1_555
H47 C48 1_555 1_555
C49 C48 1_555 1_555
H48 C49 1_555 1_555
C50 C49 1_555 1_555
C51 C28 1_555 1_555
C52 C51 1_555 1_555
H49 C52 1_555 1_555
C53 C39 1_555 1_555
C54 C53 1_555 1_555
C55 C54 1_555 1_555
H50 C55 1_555 1_555
C56 C55 1_555 1_555
H51 C56 1_555 1_555
C57 C44 1_555 1_555
C58 C47 1_555 1_555
C59 C50 1_555 1_555
H56 C64 1_555 1_555
C65 C64 1_555 1_555
C66 C65 1_555 1_555
C67 C66 1_555 1_555
C69 H58 1_555 1_555
C70 C66 1_555 1_555
C72 C65 1_555 1_555
H62 C72 1_555 1_555
H63 C72 1_555 1_555
H64 C72 1_555 1_555
C73 C70 1_555 1_555
C74 C73 1_555 1_555
C75 C74 1_555 1_555
C76 C75 1_555 1_555
C77 C76 1_555 1_555
H65 C77 1_555 1_555
C78 C73 1_555 1_555
H66 C78 1_555 1_555
C79 H67 1_555 1_555
C80 C76 1_555 1_555
C81 C80 1_555 1_555
C84 C83 1_555 1_555
C85 C84 1_555 1_555
H69 C85 1_555 1_555
C86 C81 1_555 1_555
C87 C86 1_555 1_555
H70 C87 1_555 1_555
H71 C87 1_555 1_555
H72 C87 1_555 1_555
C89 C24 1_555 1_555
H77 C89 1_555 1_555
H78 C89 1_555 1_555
C90 H79 1_555 1_555
H80 C90 1_555 1_555
H81 C90 1_555 1_555
C91 C92 1_555 1_555
C92 O18 1_555 1_555
H82 C92 1_555 1_555
H89 C103 1_555 1_555
H90 C103 1_555 1_555
H91 C103 1_555 1_555
C117 C111 1_555 1_555
H102 C117 1_555 1_555
H103 C117 1_555 1_555
H104 C117 1_555 1_555
Zn8 O5 1_555 1_555
Zn10 O17 1_555 1_555
C19 C20 1_555 1_555
C29 C30 1_555 1_555
C40 C41 1_555 1_555
C45 C46 1_555 1_555
C50 C51 1_555 1_555
C52 C53 1_555 1_555
C54 C59 1_555 1_555
C56 C57 1_555 1_555
C57 C58 1_555 1_555
C58 C59 1_555 1_555
C67 C68 1_555 1_555
C69 C70 1_555 1_555
C77 C78 1_555 1_555
C79 C80 1_555 1_555
C85 C86 1_555 1_555
C90 C92 1_555 1_555
O7 C23 1_555 1_555
O8 C23 1_555 1_555
Zn6 O7 1_555 1_555
Zn1 O2 1_555 1_555
O1 C1 1_555 1_555
O2 C1 1_555 1_555
O3 C2 1_555 1_555
O13 Zn1 1_555 1_555
O14 C60 1_555 1_555
O15 C61 1_555 1_555
C1 C2 1_555 1_555
C2 H1 1_555 1_555
C3 C2 1_555 1_555
H2 C3 1_555 1_555
H3 C3 1_555 1_555
H4 C3 1_555 1_555
C4 O3 1_555 1_555
C5 C4 1_555 1_555
H5 C5 1_555 1_555
C6 C5 1_555 1_555
C7 C6 1_555 1_555
C8 C7 1_555 1_555
C9 C4 1_555 1_555
H6 C9 1_555 1_555
C11 C8 1_555 1_555
H10 C11 1_555 1_555
H11 C11 1_555 1_555
H12 C11 1_555 1_555
C60 O13 1_555 1_555
C61 C60 1_555 1_555
C62 C61 1_555 1_555
H53 C62 1_555 1_555
H54 C62 1_555 1_555
H55 C62 1_555 1_555
C63 O15 1_555 1_555
O42 Zn1 1_555 1_555
O43 Zn1 1_555 1_555
C8 C9 1_555 1_555
O33 C143 1_555 1_555
O34 C143 1_555 1_555
Zn8 O33 1_555 1_555
C69_2 H58_2 1_555 1_555
H59 C71 1_555 1_555
H60 C71 1_555 1_555
H61 C71 1_555 1_555
C75_2 C74_2 1_555 1_555
C79_2 H67_2 1_555 1_555
C88 C82 1_555 1_555
H73 C88 1_555 1_555
H74 C88 1_555 1_555
H75 C88 1_555 1_555
O24 C119_2 1_555 1_555
O25 C119_2 1_555 1_555
O26_2 C113 1_555 1_555
H87 C97 1_555 1_555
C98 C97 1_555 1_555
C99 C98 1_555 1_555
C100 C99 1_555 1_555
C102 C69_2 1_555 1_555
C104 C98 1_555 1_555
H92 C104 1_555 1_555
H93 C104 1_555 1_555
H94 C104 1_555 1_555
C105 C74_2 1_555 1_555
C106 C75_2 1_555 1_555
C107 C106 1_555 1_555
H95 C107 1_555 1_555
C108 C105 1_555 1_555
H96 C108 1_555 1_555
C109 C79_2 1_555 1_555
C110 C109 1_555 1_555
C113 C112 1_555 1_555
C114 C113 1_555 1_555
H98_2 C114 1_555 1_555
C115 C110 1_555 1_555
C116 C115 1_555 1_555
H99 C116 1_555 1_555
H100 C116 1_555 1_555
H101 C116 1_555 1_555
C118_2 H105_2 1_555 1_555
H106_2 C118_2 1_555 1_555
H107_2 C118_2 1_555 1_555
C119_2 C120_2 1_555 1_555
C120_2 O26_2 1_555 1_555
H108_2 C120_2 1_555 1_555
O30 C153 1_555 1_555
O31 C153 1_555 1_555
O32 C154 1_555 1_555
O35 C144 1_555 1_555
H115 C130 1_555 1_555
H116 C130 1_555 1_555
H117 C130 1_555 1_555
C137 C136 1_555 1_555
C138 C137 1_555 1_555
C139 C138 1_555 1_555
H126 C140 1_555 1_555
C141 C137 1_555 1_555
H127 C141 1_555 1_555
H129 C141 1_555 1_555
C142 C139 1_555 1_555
H130 C142 1_555 1_555
H131 C142 1_555 1_555
H132 C142 1_555 1_555
C144 H133 1_555 1_555
C145 O35 1_555 1_555
C146 C145 1_555 1_555
H134 C146 1_555 1_555
C147 C146 1_555 1_555
C148 C147 1_555 1_555
C149 C148 1_555 1_555
C150 C145 1_555 1_555
H135 C150 1_555 1_555
C151 C147 1_555 1_555
H136 C151 1_555 1_555
H137 C151 1_555 1_555
H138 C151 1_555 1_555
C152 C149 1_555 1_555
H139 C152 1_555 1_555
H140 C152 1_555 1_555
H141 C152 1_555 1_555
C153 C154 1_555 1_555
C154 H142 1_555 1_555
C155 C154 1_555 1_555
H143 C155 1_555 1_555
H144 C155 1_555 1_555
H145 C155 1_555 1_555
C156 O32 1_555 1_555
C157 C156 1_555 1_555
H146 C157 1_555 1_555
C158 C157 1_555 1_555
C159 C158 1_555 1_555
C160 C159 1_555 1_555
C161 C156 1_555 1_555
H147 C161 1_555 1_555
C162 C158 1_555 1_555
H148 C162 1_555 1_555
H149 C162 1_555 1_555
H150 C162 1_555 1_555
C163 C160 1_555 1_555
H151 C163 1_555 1_555
H152 C163 1_555 1_555
H153 C163 1_555 1_555
C165 C164 1_555 1_555
H154 C165 1_555 1_555
C166 C138 1_555 1_555
C167 C166 1_555 1_555
C168 C167 1_555 1_555
H155 C168 1_555 1_555
C169 C168 1_555 1_555
H156 C169 1_555 1_555
C170 C169 1_555 1_555
C171 C148 1_555 1_555
C172 C171 1_555 1_555
H157 C172 1_555 1_555
C173 C159 1_555 1_555
C174 C173 1_555 1_555
C175 C174 1_555 1_555
H158 C175 1_555 1_555
C176 C175 1_555 1_555
H159 C176 1_555 1_555
C177 C164 1_555 1_555
C178 C167 1_555 1_555
C179 C170 1_555 1_555
C180 C144 1_555 1_555
H161 C180 1_555 1_555
H162 C180 1_555 1_555
Zn6 O31 1_555 1_555
Zn9 O25 1_555 1_555
C99 C102 1_555 1_555
C100 C101 1_555 1_555
C102 C105 1_555 1_555
C106 C109 1_555 1_555
C107 C108 1_555 1_555
C114 C115 1_555 1_555
C118_2 C120_2 1_555 1_555
C139 C140 1_555 1_555
C149 C150 1_555 1_555
C160 C161 1_555 1_555
C165 C166 1_555 1_555
C170 C171 1_555 1_555
C172 C173 1_555 1_555
C174 C179 1_555 1_555
C176 C177 1_555 1_555
C177 C178 1_555 1_555
C178 C179 1_555 1_555
O21 C93 1_555 1_555
O22 C93 1_555 1_555
O23 C94 1_555 1_555
C93 C94 1_555 1_555
C95 C94 1_555 1_555
H84 C95 1_555 1_555
H85 C95 1_555 1_555
H86 C95 1_555 1_555
C96 O23 1_555 1_555
Zn3 O21 1_555 1_555
O27 C121 1_555 1_555
O28 Zn3 1_555 1_555
O29 C122 1_555 1_555
C121 O28 1_555 1_555
C122 C121 1_555 1_555
H109 C122 1_555 1_555
C123 C122 1_555 1_555
H110 C123 1_555 1_555
H111 C123 1_555 1_555
H112 C123 1_555 1_555
C124 O29 1_555 1_555
C125 C124 1_555 1_555
H113 C125 1_555 1_555
C126 C125 1_555 1_555
C127 C126 1_555 1_555
C128 C127 1_555 1_555
C129 C124 1_555 1_555
H114 C129 1_555 1_555
C131 C128 1_555 1_555
H118 C131 1_555 1_555
H119 C131 1_555 1_555
H120 C131 1_555 1_555
O41 Zn3 1_555 1_555
O44 Zn3 1_555 1_555
C128 C129 1_555 1_555
Zn9 O10_2 1_555 1_555
O3_2 C2_2 1_555 1_555
O43 C23_2 1_555 1_555
O8_2 C23_2 1_555 1_555
O9_2 C24_2 1_555 1_555
O10_2 C12_2 1_555 1_555
O11_2 C12_2 1_555 1_555
O12_2 C13_2 1_555 1_555
O19_2 Zn9 1_555 1_555
O20_2 Zn9 1_555 1_555
C2_2 H1_2 1_555 1_555
C3_2 C2_2 1_555 1_555
H2_2 C3_2 1_555 1_555
H3_2 C3_2 1_555 1_555
H4_2 C3_2 1_555 1_555
C4_2 O3_2 1_555 1_555
C5_2 C4_2 1_555 1_555
H5_2 C5_2 1_555 1_555
C6_2 C5_2 1_555 1_555
C7_2 C6_2 1_555 1_555
C8_2 C7_2 1_555 1_555
C9_2 C4_2 1_555 1_555
H6_2 C9_2 1_555 1_555
C10_2 C6_2 1_555 1_555
H7_2 C10_2 1_555 1_555
H8_2 C10_2 1_555 1_555
H9_2 C10_2 1_555 1_555
C11_2 C8_2 1_555 1_555
H10_2 C11_2 1_555 1_555
H11_2 C11_2 1_555 1_555
H12_2 C11_2 1_555 1_555
C12_2 C13_2 1_555 1_555
C13_2 H13_2 1_555 1_555
C14_2 C13_2 1_555 1_555
H14_2 C14_2 1_555 1_555
H15_2 C14_2 1_555 1_555
H16_2 C14_2 1_555 1_555
C15_2 O12_2 1_555 1_555
C16_2 C15_2 1_555 1_555
H17_2 C16_2 1_555 1_555
C17_2 C16_2 1_555 1_555
C18_2 C17_2 1_555 1_555
C19_2 C18_2 1_555 1_555
C20_2 C15_2 1_555 1_555
H18_2 C20_2 1_555 1_555
C21_2 C17_2 1_555 1_555
H19_2 C21_2 1_555 1_555
H20_2 C21_2 1_555 1_555
H21_2 C21_2 1_555 1_555
C22_2 C19_2 1_555 1_555
H22_2 C22_2 1_555 1_555
H23_2 C22_2 1_555 1_555
H24_2 C22_2 1_555 1_555
C23_2 C24_2 1_555 1_555
C24_2 H25_2 1_555 1_555
C25_2 O9_2 1_555 1_555
C26_2 C25_2 1_555 1_555
H26_2 C26_2 1_555 1_555
C27_2 C26_2 1_555 1_555
C28_2 C27_2 1_555 1_555
C29_2 C28_2 1_555 1_555
C30_2 C25_2 1_555 1_555
H27_2 C30_2 1_555 1_555
C31_2 C27_2 1_555 1_555
H28_2 C31_2 1_555 1_555
H29_2 C31_2 1_555 1_555
H30_2 C31_2 1_555 1_555
C32_2 C29_2 1_555 1_555
H31_2 C32_2 1_555 1_555
H32_2 C32_2 1_555 1_555
H33_2 C32_2 1_555 1_555
H40_2 C42_2 1_555 1_555
H41_2 C42_2 1_555 1_555
H42_2 C42_2 1_555 1_555
C44_2 C7_2 1_555 1_555
C45_2 C44_2 1_555 1_555
H46_2 C45_2 1_555 1_555
C46_2 C18_2 1_555 1_555
C47_2 C46_2 1_555 1_555
C48_2 C47_2 1_555 1_555
H47_2 C48_2 1_555 1_555
C49_2 C48_2 1_555 1_555
H48_2 C49_2 1_555 1_555
C50_2 C49_2 1_555 1_555
C51_2 C28_2 1_555 1_555
C52_2 C51_2 1_555 1_555
H49_2 C52_2 1_555 1_555
C54_2 C53_2 1_555 1_555
C55_2 C54_2 1_555 1_555
H50_2 C55_2 1_555 1_555
C56_2 C55_2 1_555 1_555
H51_2 C56_2 1_555 1_555
C57_2 C44_2 1_555 1_555
C58_2 C47_2 1_555 1_555
C59_2 C50_2 1_555 1_555
C8_2 C9_2 1_555 1_555
C19_2 C20_2 1_555 1_555
C29_2 C30_2 1_555 1_555
C45_2 C46_2 1_555 1_555
C50_2 C51_2 1_555 1_555
C52_2 C53_2 1_555 1_555
C54_2 C59_2 1_555 1_555
C56_2 C57_2 1_555 1_555
C57_2 C58_2 1_555 1_555
C58_2 C59_2 1_555 1_555
O20_2 H175_2 1_555 1_555
O20_2 H176_2 1_555 1_555
O19_2 H177_2 1_555 1_555
O19_2 H178_2 1_555 1_555
C69_3 H58_3 1_555 1_555
C75_3 C74_3 1_555 1_555
C79_3 H67_3 1_555 1_555
O21_2 C93_2 1_555 1_555
O22_2 C93_2 1_555 1_555
O23_2 C94_2 1_555 1_555
C93_2 C94_2 1_555 1_555
C94_2 H83_2 1_555 1_555
C95_2 C94_2 1_555 1_555
H84_2 C95_2 1_555 1_555
H85_2 C95_2 1_555 1_555
H86_2 C95_2 1_555 1_555
C96_2 O23_2 1_555 1_555
C97_2 C96_2 1_555 1_555
H87_2 C97_2 1_555 1_555
C98_2 C97_2 1_555 1_555
C99_2 C98_2 1_555 1_555
C100_2 C99_2 1_555 1_555
C101_2 C96_2 1_555 1_555
H88_2 C101_2 1_555 1_555
C102_2 C69_3 1_555 1_555
C103_2 C100_2 1_555 1_555
H89_2 C103_2 1_555 1_555
H90_2 C103_2 1_555 1_555
H91_2 C103_2 1_555 1_555
C104_2 C98_2 1_555 1_555
H92_2 C104_2 1_555 1_555
H93_2 C104_2 1_555 1_555
H94_2 C104_2 1_555 1_555
C105_2 C74_3 1_555 1_555
C106_2 C75_3 1_555 1_555
C107_2 C106_2 1_555 1_555
H95_2 C107_2 1_555 1_555
C108_2 C105_2 1_555 1_555
H96_2 C108_2 1_555 1_555
C109_2 C79_3 1_555 1_555
C110_2 C109_2 1_555 1_555
C111_2 C110_2 1_555 1_555
C112_2 C111_2 1_555 1_555
H97_2 C112_2 1_555 1_555
C113_2 C112_2 1_555 1_555
C114_2 C113_2 1_555 1_555
C115_2 C110_2 1_555 1_555
C116_2 C115_2 1_555 1_555
H99_2 C116_2 1_555 1_555
H100_2 C116_2 1_555 1_555
H101_2 C116_2 1_555 1_555
C117_2 C111_2 1_555 1_555
H102_2 C117_2 1_555 1_555
H103_2 C117_2 1_555 1_555
H104_2 C117_2 1_555 1_555
Zn8 O21_2 1_555 1_555
O27_2 C121_2 1_555 1_555
O28_2 Zn8 1_555 1_555
O30_2 C153_2 1_555 1_555
O42 C153_2 1_555 1_555
O32_2 C154_2 1_555 1_555
C121_2 O28_2 1_555 1_555
C153_2 C154_2 1_555 1_555
C154_2 H142_2 1_555 1_555
C155_2 C154_2 1_555 1_555
H143_2 C155_2 1_555 1_555
H144_2 C155_2 1_555 1_555
H145_2 C155_2 1_555 1_555
C156_2 O32_2 1_555 1_555
C157_2 C156_2 1_555 1_555
H146_2 C157_2 1_555 1_555
C158_2 C157_2 1_555 1_555
C159_2 C158_2 1_555 1_555
C160_2 C159_2 1_555 1_555
C161_2 C156_2 1_555 1_555
H147_2 C161_2 1_555 1_555
C163_2 C160_2 1_555 1_555
H151_2 C163_2 1_555 1_555
H152_2 C163_2 1_555 1_555
H153_2 C163_2 1_555 1_555
C99_2 C102_2 1_555 1_555
C100_2 C101_2 1_555 1_555
C102_2 C105_2 1_555 1_555
C106_2 C109_2 1_555 1_555
C107_2 C108_2 1_555 1_555
C114_2 C115_2 1_555 1_555
C160_2 C161_2 1_555 1_555
Zn6 O2_2 1_555 1_555
O1_2 C1_2 1_555 1_555
O2_2 C1_2 1_555 1_555
O4_2 C33_2 1_555 1_555
O41 C33_2 1_555 1_555
O6_2 C34_2 1_555 1_555
O13_2 Zn6 1_555 1_555
O14_2 C60_2 1_555 1_555
O15_2 C61_2 1_555 1_555
C33_2 C34_2 1_555 1_555
C34_2 H34_2 1_555 1_555
C35_2 C34_2 1_555 1_555
H35_2 C35_2 1_555 1_555
H36_2 C35_2 1_555 1_555
H37_2 C35_2 1_555 1_555
C36_2 O6_2 1_555 1_555
C37_2 C36_2 1_555 1_555
H38_2 C37_2 1_555 1_555
C38_2 C37_2 1_555 1_555
C39_2 C38_2 1_555 1_555
C40_2 C39_2 1_555 1_555
C41_2 C36_2 1_555 1_555
H39_2 C41_2 1_555 1_555
C43_2 C40_2 1_555 1_555
H43_2 C43_2 1_555 1_555
H44_2 C43_2 1_555 1_555
H45_2 C43_2 1_555 1_555
C60_2 O13_2 1_555 1_555
C61_2 C60_2 1_555 1_555
H52_2 C61_2 1_555 1_555
C62_2 C61_2 1_555 1_555
H53_2 C62_2 1_555 1_555
H54_2 C62_2 1_555 1_555
H55_2 C62_2 1_555 1_555
C63_2 O15_2 1_555 1_555
C64_2 C63_2 1_555 1_555
H56_2 C64_2 1_555 1_555
C65_2 C64_2 1_555 1_555
C66_2 C65_2 1_555 1_555
C67_2 C66_2 1_555 1_555
C68_2 C63_2 1_555 1_555
H57_2 C68_2 1_555 1_555
C69_4 H58_4 1_555 1_555
C70_2 C66_2 1_555 1_555
C71_2 C67_2 1_555 1_555
H59_2 C71_2 1_555 1_555
H60_2 C71_2 1_555 1_555
H61_2 C71_2 1_555 1_555
C72_2 C65_2 1_555 1_555
H62_2 C72_2 1_555 1_555
H63_2 C72_2 1_555 1_555
H64_2 C72_2 1_555 1_555
C73_2 C70_2 1_555 1_555
C74_4 C73_2 1_555 1_555
C75_4 C74_4 1_555 1_555
C76_2 C75_4 1_555 1_555
C77_2 C76_2 1_555 1_555
H65_2 C77_2 1_555 1_555
C78_2 C73_2 1_555 1_555
H66_2 C78_2 1_555 1_555
C79_4 H67_4 1_555 1_555
C80_2 C76_2 1_555 1_555
C81_2 C80_2 1_555 1_555
C82_2 C81_2 1_555 1_555
C83_2 C82_2 1_555 1_555
H68_2 C83_2 1_555 1_555
C84_2 C83_2 1_555 1_555
C85_2 C84_2 1_555 1_555
C86_2 C81_2 1_555 1_555
C87_2 C86_2 1_555 1_555
H70_2 C87_2 1_555 1_555
H71_2 C87_2 1_555 1_555
H72_2 C87_2 1_555 1_555
C88_2 C82_2 1_555 1_555
H73_2 C88_2 1_555 1_555
H74_2 C88_2 1_555 1_555
H75_2 C88_2 1_555 1_555
C40_2 C41_2 1_555 1_555
C67_2 C68_2 1_555 1_555
C69_4 C70_2 1_555 1_555
C77_2 C78_2 1_555 1_555
C79_4 C80_2 1_555 1_555
C85_2 C86_2 1_555 1_555
Zn10 O36 1_555 1_555
O29_2 C122_2 1_555 1_555
O44 C143_2 1_555 1_555
O34_2 C143_2 1_555 1_555
O35_2 C144_2 1_555 1_555
O36 C132 1_555 1_555
O37 C132 1_555 1_555
O38 C133 1_555 1_555
O39 Zn10 1_555 1_555
O40 Zn10 1_555 1_555
H109_2 C122_2 1_555 1_555
C123_2 C122_2 1_555 1_555
H110_2 C123_2 1_555 1_555
H111_2 C123_2 1_555 1_555
H112_2 C123_2 1_555 1_555
C124_2 O29_2 1_555 1_555
C125_2 C124_2 1_555 1_555
H113_2 C125_2 1_555 1_555
C126_2 C125_2 1_555 1_555
C127_2 C126_2 1_555 1_555
C128_2 C127_2 1_555 1_555
C129_2 C124_2 1_555 1_555
H114_2 C129_2 1_555 1_555
C130_2 C126_2 1_555 1_555
H115_2 C130_2 1_555 1_555
H116_2 C130_2 1_555 1_555
H117_2 C130_2 1_555 1_555
C131_2 C128_2 1_555 1_555
H118_2 C131_2 1_555 1_555
H119_2 C131_2 1_555 1_555
H120_2 C131_2 1_555 1_555
C132 C133 1_555 1_555
C133 H121 1_555 1_555
C134 C133 1_555 1_555
H122 C134 1_555 1_555
H123 C134 1_555 1_555
H124 C134 1_555 1_555
C135 O38 1_555 1_555
C136_2 C135 1_555 1_555
H125 C136_2 1_555 1_555
C137_2 C136_2 1_555 1_555
C138_2 C137_2 1_555 1_555
C139_2 C138_2 1_555 1_555
C140_2 C135 1_555 1_555
H126_2 C140_2 1_555 1_555
C141_2 C137_2 1_555 1_555
H127_2 C141_2 1_555 1_555
H128_2 C141_2 1_555 1_555
H129_2 C141_2 1_555 1_555
C142_2 C139_2 1_555 1_555
H130_2 C142_2 1_555 1_555
H131_2 C142_2 1_555 1_555
H132_2 C142_2 1_555 1_555
C143_2 C144_2 1_555 1_555
C144_2 H133_2 1_555 1_555
C145_2 O35_2 1_555 1_555
C146_2 C145_2 1_555 1_555
H134_2 C146_2 1_555 1_555
C147_2 C146_2 1_555 1_555
C148_2 C147_2 1_555 1_555
C149_2 C148_2 1_555 1_555
C150_2 C145_2 1_555 1_555
H135_2 C150_2 1_555 1_555
C151_2 C147_2 1_555 1_555
H136_2 C151_2 1_555 1_555
H137_2 C151_2 1_555 1_555
H138_2 C151_2 1_555 1_555
C152_2 C149_2 1_555 1_555
H139_2 C152_2 1_555 1_555
H140_2 C152_2 1_555 1_555
H141_2 C152_2 1_555 1_555
H148_2 C162_2 1_555 1_555
H149_2 C162_2 1_555 1_555
H150_2 C162_2 1_555 1_555
C164_2 C127_2 1_555 1_555
C165_2 C164_2 1_555 1_555
H154_2 C165_2 1_555 1_555
C166_2 C138_2 1_555 1_555
C167_2 C166_2 1_555 1_555
C168_2 C167_2 1_555 1_555
H155_2 C168_2 1_555 1_555
C169_2 C168_2 1_555 1_555
H156_2 C169_2 1_555 1_555
C170_2 C169_2 1_555 1_555
C171_2 C148_2 1_555 1_555
C172_2 C171_2 1_555 1_555
H157_2 C172_2 1_555 1_555
C174_2 C173_2 1_555 1_555
C175_2 C174_2 1_555 1_555
H158_2 C175_2 1_555 1_555
C176_2 C175_2 1_555 1_555
H159_2 C176_2 1_555 1_555
C177_2 C164_2 1_555 1_555
C178_2 C167_2 1_555 1_555
C179_2 C170_2 1_555 1_555
C128_2 C129_2 1_555 1_555
C139_2 C140_2 1_555 1_555
C149_2 C150_2 1_555 1_555
C165_2 C166_2 1_555 1_555
C170_2 C171_2 1_555 1_555
C172_2 C173_2 1_555 1_555
C174_2 C179_2 1_555 1_555
C176_2 C177_2 1_555 1_555
C177_2 C178_2 1_555 1_555
C178_2 C179_2 1_555 1_555
O39 H171 1_555 1_555
O39 H172 1_555 1_555
O40 H173 1_555 1_555
O40 H174 1_555 1_555
Zn4 O36_2 1_555 1_555
O36_2 C132_2 1_555 1_555
O37_2 C132_2 1_555 1_555
O38_2 C133_2 1_555 1_555
O39_2 Zn4 1_555 1_555
O40_2 Zn4 1_555 1_555
C132_2 C133_2 1_555 1_555
C133_2 H121_2 1_555 1_555
C134_2 C133_2 1_555 1_555
H122_2 C134_2 1_555 1_555
H123_2 C134_2 1_555 1_555
H124_2 C134_2 1_555 1_555
C135_2 O38_2 1_555 1_555
O45 Zn4 1_555 1_555
O39_2 H171_2 1_555 1_555
O39_2 H172_2 1_555 1_555
O40_2 H173_2 1_555 1_555
O40_2 H174_2 1_555 1_555
O45 C91_2 1_555 1_555
C90_2 H79_2 1_555 1_555
H80_2 C90_2 1_555 1_555
H81_2 C90_2 1_555 1_555
C91_2 C92_2 1_555 1_555
C92_2 O18_2 1_555 1_555
H82_2 C92_2 1_555 1_555
C90_2 C92_2 1_555 1_555
H76_2 C89_2 1_555 1_555
H77_2 C89_2 1_555 1_555
H78_2 C89_2 1_555 1_555
H160_2 C180_2 1_555 1_555
H161_2 C180_2 1_555 1_555
H162_2 C180_2 1_555 1_555
N1 H163 1_555 1_555
H164 N1 1_555 1_555
C181 N1 1_555 1_555
H165 C181 1_555 1_555
H166 C181 1_555 1_555
H167 C181 1_555 1_555
C182 N1 1_555 1_555
H168 C182 1_555 1_555
H169 C182 1_555 1_555
H170 C182 1_555 1_555
N1_2 H163_2 1_555 1_555
H164_2 N1_2 1_555 1_555
C181_2 N1_2 1_555 1_555
H165_2 C181_2 1_555 1_555
H166_2 C181_2 1_555 1_555
H167_2 C181_2 1_555 1_555
C182_2 N1_2 1_555 1_555
H168_2 C182_2 1_555 1_555
H169_2 C182_2 1_555 1_555
H170_2 C182_2 1_555 1_555
H165_3 C181_3 1_555 1_555
H167_3 C181_3 1_555 1_555
N1_3 H163_3 1_555 1_555
H164_3 N1_3 1_555 1_555
C182_3 N1_3 1_555 1_555
H168_3 C182_3 1_555 1_555
H169_3 C182_3 1_555 1_555
H170_3 C182_3 1_555 1_555
N1_4 H163_4 1_555 1_555
H164_4 N1_4 1_555 1_555
C182_4 N1_4 1_555 1_555
H168_4 C182_4 1_555 1_555
H169_4 C182_4 1_555 1_555
H170_4 C182_4 1_555 1_555
H165_4 C181_4 1_555 1_555
H167_4 C181_4 1_555 1_555

#END
