
###############################################################################
#
# This file contains modified crystal structure data generated from the
# MOF subset of the Cambridge Structural Database (CSD) v543 
# hosted by the Cambridge Crystallographic Data Centre (CCDC).
#
# This work is licensed under the Creative Commons
# Attribution-NonCommercial-ShareAlike 4.0 International License.
# To view a copy of this license, visit
# http://creativecommons.org/licenses/by-nc-sa/4.0/
# or send a letter to
# Creative Commons, PO Box 1866, Mountain View, CA 94042, USA.
#
# CIF created using the CSD Python API on 29 September 2022
# The structure has been converted into the P1 space group
# The structure has a 3D framework
# The original CSD entry NAHFIO is in the monoclinic crystal system
# The framework has been calculated to contain at least 10.0% void space
# The void calculation uses a probe of radius 1.32A, grid spacing 0.4
#
###############################################################################

data_NAHFIO
_chemical_formula_moiety         '(C120 H128 B8 Co8 N64 O16 4-)n'
_symmetry_cell_setting           triclinic
_symmetry_space_group_name_H-M   'P 1'
_symmetry_Int_Tables_number      1
_space_group_name_Hall           'P 1'
loop_
_symmetry_equiv_pos_site_id
_symmetry_equiv_pos_as_xyz
1 x,y,z
_cell_length_a                   26.1535(10)
_cell_length_b                   13.6168(5)
_cell_length_c                   17.1807(7)
_cell_angle_alpha                90
_cell_angle_beta                 126.056(3)
_cell_angle_gamma                90
_cell_volume                     4946.46
loop_
_atom_site_label
_atom_site_type_symbol
_atom_site_fract_x
_atom_site_fract_y
_atom_site_fract_z
Co1 Co 0.12292(3) 0.22335(6) 0.18843(5)
O1 O 0.1189(2) 0.3533(4) 0.1112(4)
O2 O 0.0976(3) 0.3691(4) 0.2146(4)
N2 N 0.0261(2) 0.1964(3) 0.0753(3)
C1 C 0.0822(5) 0.5114(6) 0.1194(6)
H1 H 0.0682 0.5416 0.1563
H2 H 0.1199 0.5479 0.1347
C2 C 0.0306(4) 0.5211(6) 0.0142(7)
C15 C 0.1007(3) 0.4043(5) 0.1509(6)
N9 N 0.2805(2) 0.2553(4) 0.6965(3)
N11 N 0.0749(2) 0.1545(3) 0.4995(3)
N13 N 0.1884(2) 0.1910(3) 0.5801(3)
N14 N 0.1148(2) 0.1393(4) 0.2833(3)
N15 N 0.1251(2) 0.1054(3) 0.4183(3)
N16 N 0.1536(2) 0.0160(3) 0.5644(3)
C19 C 0.1837(3) 0.2925(4) 0.5696(4)
H21 H 0.1476 0.3287 0.5213
C20 C 0.0185(2) 0.1664(4) 0.4151(4)
H22 H 0.0110 0.1548 0.3546
C21 C 0.0657(3) 0.1820(5) 0.5678(4)
H23 H 0.0970 0.1835 0.6355
C22 C 0.2481(3) 0.1756(4) 0.6590(4)
H24 H 0.2647 0.1122 0.6845
C24 C 0.0047(3) 0.2063(5) 0.5215(4)
C25 C 0.2395(3) 0.3292(5) 0.6401(4)
H27 H 0.2496 0.3972 0.6500
C26 C 0.1333(3) 0.1716(4) 0.3682(4)
H28 H 0.1506 0.2351 0.3919
C28 C 0.0933(3) 0.0462(5) 0.2776(4)
H30 H 0.0763 0.0032 0.2241
C29 C 0.0998(3) 0.0248(5) 0.3596(4)
B2 B 0.1358(3) 0.1173(5) 0.5163(4)
Co6 Co 0.37708(3) 0.27665(6) 0.81157(5)
N18 N 0.2195(2) 0.2447(4) 0.3035(3)
N19 N 0.1497(2) 0.1219(4) 0.1291(3)
H3 H 0.0244 0.5916 0.9965
H4 H 0.0438 0.4877 0.9774
H10 H 0.0143 0.2274 0.9483
N12 N 0.1497(2) 0.8781(4) 0.6291(3)
C23 C 0.1235(3) 0.9646(4) 0.5930(4)
H25 H 0.0874 0.9880 0.5879
C27 C 0.2026(3) 0.9562(5) 0.5831(5)
H29 H 0.2326 0.9710 0.5704
H31 H 0.0888 0.9645 0.3741
C30 C 0.1994(3) 0.8726(5) 0.6228(4)
H32 H 0.2274 0.8184 0.6433
Co5 Co 0.12292(3) 0.77665(6) 0.68843(5)
N3 N 0.9251(2) 0.1545(3) 0.0005(3)
N6 N 0.8852(2) 0.1393(4) 0.2167(3)
N7 N 0.8749(2) 0.1054(3) 0.0817(3)
C4 C 0.9815(2) 0.1664(4) 0.0849(4)
H6 H 0.9890 0.1548 0.1454
C10 C 0.8667(3) 0.1716(4) 0.1318(4)
H12 H 0.8494 0.2351 0.1081
C12 C 0.9067(3) 0.0462(5) 0.2224(4)
H14 H 0.9237 0.0032 0.2759
C13 C 0.9002(3) 0.0248(5) 0.1404(4)
H19 H 0.9756 0.4084 0.0035
H20 H 0.9562 0.5123 0.0226
Co2 Co 0.87708(3) 0.22335(6) 0.31157(5)
N10 N 0.9739(2) 0.1964(3) 0.4247(3)
H26 H 0.9857 0.2274 0.5517
O5 O 0.8811(2) 0.3533(4) 0.3888(4)
O6 O 0.9024(3) 0.3691(4) 0.2854(4)
N17 N 0.7805(2) 0.2447(4) 0.1965(3)
N20 N 0.8503(2) 0.1219(4) 0.3709(3)
N1 N 0.7195(2) 0.2553(4) 0.8035(3)
N5 N 0.8116(2) 0.1910(3) 0.9199(3)
N8 N 0.8464(2) 0.0160(3) 0.9356(3)
C3 C 0.8163(3) 0.2925(4) 0.9304(4)
H5 H 0.8524 0.3287 0.9787
C5 C 0.9343(3) 0.1820(5) 0.9322(4)
H7 H 0.9030 0.1835 0.8645
C6 C 0.7519(3) 0.1756(4) 0.8410(4)
H8 H 0.7353 0.1122 0.8155
C8 C 0.9953(3) 0.2063(5) 0.9785(4)
C9 C 0.7605(3) 0.3292(5) 0.8599(4)
H11 H 0.7504 0.3972 0.8500
B1 B 0.8642(3) 0.1173(5) 0.9837(4)
O3 O 0.8811(2) 0.6467(4) 0.8888(4)
O4 O 0.9024(3) 0.6309(4) 0.7854(4)
C16 C 0.9178(5) 0.4886(6) 0.8806(6)
H17 H 0.9318 0.4584 0.8437
H18 H 0.8801 0.4521 0.8653
C17 C 0.9694(4) 0.4789(6) 0.9858(7)
C18 C 0.8993(3) 0.5957(5) 0.8491(6)
Co4 Co 0.87708(3) 0.77665(6) 0.81157(5)
Co7 Co 0.62292(3) 0.27665(6) 0.68843(5)
N4 N 0.8503(2) 0.8781(4) 0.8709(3)
C7 C 0.8765(3) 0.9646(4) 0.9070(4)
H9 H 0.9126 0.9880 0.9121
C11 C 0.7974(3) 0.9562(5) 0.9169(5)
H13 H 0.7674 0.9710 0.9296
C14 C 0.8006(3) 0.8726(5) 0.8772(4)
H16 H 0.7726 0.8184 0.8567
O3_2 O 0.1189(2) 0.6467(4) 0.6112(4)
O4_2 O 0.0976(3) 0.6309(4) 0.7146(4)
C16_2 C 0.0822(5) 0.4886(6) 0.6194(6)
H17_2 H 0.0682 0.4584 0.6563
H18_2 H 0.1199 0.4521 0.6347
C17_2 C 0.0306(4) 0.4789(6) 0.5142(7)
H19_2 H 0.0244 0.4084 0.4965
H20_2 H 0.0438 0.5123 0.4774
C18_2 C 0.1007(3) 0.5957(5) 0.6509(6)
C1_2 C 0.9178(5) 0.5114(6) 0.3806(6)
H1_2 H 0.9318 0.5416 0.3437
H2_2 H 0.8801 0.5479 0.3653
C2_2 C 0.9694(4) 0.5211(6) 0.4858(7)
H3_2 H 0.9756 0.5916 0.5035
H4_2 H 0.9562 0.4877 0.5226
C15_2 C 0.8993(3) 0.4043(5) 0.3491(6)
C1_3 C 0.5822(5) 0.0114(6) 0.1194(6)
H1_3 H 0.5682 0.0416 0.1563
H2_3 H 0.6199 0.0479 0.1347
C2_3 C 0.5306(4) 0.0211(6) 0.0142(7)
H20_3 H 0.4562 0.0123 0.0226
H3_3 H 0.5244 0.0916 0.9965
O3_3 O 0.3811(2) 0.1467(4) 0.8888(4)
O4_3 O 0.4024(3) 0.1309(4) 0.7854(4)
C18_3 C 0.3993(3) 0.0957(5) 0.8491(6)
Co1_2 Co 0.62292(3) 0.72335(6) 0.18843(5)
O1_2 O 0.6189(2) 0.8533(4) 0.1112(4)
O2_2 O 0.5976(3) 0.8691(4) 0.2146(4)
N2_2 N 0.5261(2) 0.6964(3) 0.0753(3)
N3_2 N 0.4251(2) 0.6545(3) 0.0005(3)
N6_2 N 0.3852(2) 0.6393(4) 0.2167(3)
N7_2 N 0.3749(2) 0.6054(3) 0.0817(3)
C4_2 C 0.4815(2) 0.6664(4) 0.0849(4)
H6_2 H 0.4890 0.6548 0.1454
C10_2 C 0.3667(3) 0.6716(4) 0.1318(4)
H12_2 H 0.3494 0.7351 0.1081
C12_2 C 0.4067(3) 0.5462(5) 0.2224(4)
H14_2 H 0.4237 0.5032 0.2759
C13_2 C 0.4002(3) 0.5248(5) 0.1404(4)
H15 H 0.4112 0.4645 0.1259
C15_3 C 0.6007(3) 0.9043(5) 0.1509(6)
H19_3 H 0.4756 0.9084 0.0035
Co2_2 Co 0.37708(3) 0.72335(6) 0.31157(5)
N9_2 N 0.7805(2) 0.7553(4) 0.6965(3)
N10_2 N 0.4739(2) 0.6964(3) 0.4247(3)
N11_2 N 0.5749(2) 0.6545(3) 0.4995(3)
N12_2 N 0.6497(2) 0.3781(4) 0.6291(3)
N13_2 N 0.6884(2) 0.6910(3) 0.5801(3)
N14_2 N 0.6148(2) 0.6393(4) 0.2833(3)
N15_2 N 0.6251(2) 0.6054(3) 0.4183(3)
N16_2 N 0.6536(2) 0.5160(3) 0.5644(3)
C19_2 C 0.6837(3) 0.7925(4) 0.5696(4)
H21_2 H 0.6476 0.8287 0.5213
C20_2 C 0.5185(2) 0.6664(4) 0.4151(4)
H22_2 H 0.5110 0.6548 0.3546
C21_2 C 0.5657(3) 0.6820(5) 0.5678(4)
H23_2 H 0.5970 0.6835 0.6355
C22_2 C 0.7481(3) 0.6756(4) 0.6590(4)
H24_2 H 0.7647 0.6122 0.6845
C23_2 C 0.6235(3) 0.4646(4) 0.5930(4)
H25_2 H 0.5874 0.4880 0.5879
C24_2 C 0.5047(3) 0.7063(5) 0.5215(4)
H26_2 H 0.4857 0.7274 0.5517
C25_2 C 0.7395(3) 0.8292(5) 0.6401(4)
H27_2 H 0.7496 0.8972 0.6500
C26_2 C 0.6333(3) 0.6716(4) 0.3682(4)
H28_2 H 0.6506 0.7351 0.3919
C27_2 C 0.7026(3) 0.4562(5) 0.5831(5)
H29_2 H 0.7326 0.4710 0.5704
C28_2 C 0.5933(3) 0.5462(5) 0.2776(4)
H30_2 H 0.5763 0.5032 0.2241
C29_2 C 0.5998(3) 0.5248(5) 0.3596(4)
H31_2 H 0.5888 0.4645 0.3741
C30_2 C 0.6994(3) 0.3726(5) 0.6228(4)
H32_2 H 0.7274 0.3184 0.6433
B2_2 B 0.6358(3) 0.6173(5) 0.5163(4)
O5_2 O 0.3811(2) 0.8533(4) 0.3888(4)
O6_2 O 0.4024(3) 0.8691(4) 0.2854(4)
N17_2 N 0.2805(2) 0.7447(4) 0.1965(3)
N18_2 N 0.7195(2) 0.7447(4) 0.3035(3)
N19_2 N 0.6497(2) 0.6219(4) 0.1291(3)
N20_2 N 0.3503(2) 0.6219(4) 0.3709(3)
N1_2 N 0.2195(2) 0.7553(4) 0.8035(3)
N4_2 N 0.3503(2) 0.3781(4) 0.8709(3)
N5_2 N 0.3116(2) 0.6910(3) 0.9199(3)
N8_2 N 0.3464(2) 0.5160(3) 0.9356(3)
H4_3 H 0.5438 0.9877 0.9774
C3_2 C 0.3163(3) 0.7925(4) 0.9304(4)
H5_2 H 0.3524 0.8287 0.9787
C5_2 C 0.4343(3) 0.6820(5) 0.9322(4)
H7_2 H 0.4030 0.6835 0.8645
C6_2 C 0.2519(3) 0.6756(4) 0.8410(4)
H8_2 H 0.2353 0.6122 0.8155
C7_2 C 0.3765(3) 0.4646(4) 0.9070(4)
H9_2 H 0.4126 0.4880 0.9121
C8_2 C 0.4953(3) 0.7063(5) 0.9785(4)
H10_2 H 0.5143 0.7274 0.9483
C9_2 C 0.2605(3) 0.8292(5) 0.8599(4)
H11_2 H 0.2504 0.8972 0.8500
C11_2 C 0.2974(3) 0.4562(5) 0.9169(5)
H13_2 H 0.2674 0.4710 0.9296
C14_2 C 0.3006(3) 0.3726(5) 0.8772(4)
H16_2 H 0.2726 0.3184 0.8567
B1_2 B 0.3642(3) 0.6173(5) 0.9837(4)
C16_3 C 0.4178(5) 0.9886(6) 0.8806(6)
H17_3 H 0.4318 0.9584 0.8437
H18_3 H 0.3801 0.9521 0.8653
C17_3 C 0.4694(4) 0.9789(6) 0.9858(7)
C1_4 C 0.4178(5) 0.0114(6) 0.3806(6)
H1_4 H 0.4318 0.0416 0.3437
H2_4 H 0.3801 0.0479 0.3653
C2_4 C 0.4694(4) 0.0211(6) 0.4858(7)
H3_4 H 0.4756 0.0916 0.5035
O3_4 O 0.6189(2) 0.1467(4) 0.6112(4)
O4_4 O 0.5976(3) 0.1309(4) 0.7146(4)
H20_4 H 0.5438 0.0123 0.4774
C18_4 C 0.6007(3) 0.0957(5) 0.6509(6)
H4_4 H 0.4562 0.9877 0.5226
C15_4 C 0.3993(3) 0.9043(5) 0.3491(6)
C16_4 C 0.5822(5) 0.9886(6) 0.6194(6)
H17_4 H 0.5682 0.9584 0.6563
H18_4 H 0.6199 0.9521 0.6347
C17_4 C 0.5306(4) 0.9789(6) 0.5142(7)
H19_4 H 0.5244 0.9084 0.4965
C7_3 C 0.1235(3) 0.0354(4) 0.0930(4)
H9_3 H 0.0874 0.0120 0.0879
C11_3 C 0.2026(3) 0.0438(5) 0.0831(5)
H13_3 H 0.2326 0.0290 0.0704
C14_3 C 0.1994(3) 0.1274(5) 0.1228(4)
H16_3 H 0.2274 0.1816 0.1433
N5_3 N 0.1884(2) 0.8090(3) 0.0801(3)
N8_3 N 0.1536(2) 0.9840(3) 0.0644(3)
C3_3 C 0.1837(3) 0.7075(4) 0.0696(4)
H5_3 H 0.1476 0.6713 0.0213
C5_3 C 0.0657(3) 0.8180(5) 0.0678(4)
H7_3 H 0.0970 0.8165 0.1355
C6_3 C 0.2481(3) 0.8244(4) 0.1590(4)
H8_3 H 0.2647 0.8878 0.1845
C8_3 C 0.0047(3) 0.7937(5) 0.0215(4)
C9_3 C 0.2395(3) 0.6708(5) 0.1401(4)
H11_3 H 0.2496 0.6028 0.1500
B1_3 B 0.1358(3) 0.8827(5) 0.0163(4)
N3_3 N 0.0749(2) 0.8455(3) 0.9995(3)
N6_3 N 0.1148(2) 0.8607(4) 0.7833(3)
N7_3 N 0.1251(2) 0.8946(3) 0.9183(3)
C4_3 C 0.0185(2) 0.8336(4) 0.9151(4)
H6_3 H 0.0110 0.8452 0.8546
C10_3 C 0.1333(3) 0.8284(4) 0.8682(4)
H12_3 H 0.1506 0.7649 0.8919
C12_3 C 0.0933(3) 0.9538(5) 0.7776(4)
H14_3 H 0.0763 0.9968 0.7241
C13_3 C 0.0998(3) 0.9752(5) 0.8596(4)
N10_3 N 0.0261(2) 0.8036(3) 0.5753(3)
H26_3 H 0.0143 0.7726 0.4483
C23_3 C 0.8765(3) 0.0354(4) 0.4070(4)
H25_3 H 0.9126 0.0120 0.4121
C27_3 C 0.7974(3) 0.0438(5) 0.4169(5)
H29_3 H 0.7674 0.0290 0.4296
H31_3 H 0.9112 0.0355 0.6259
C30_3 C 0.8006(3) 0.1274(5) 0.3772(4)
H32_3 H 0.7726 0.1816 0.3567
H10_3 H 0.9857 0.7726 0.0517
N2_3 N 0.9739(2) 0.8036(3) 0.9247(3)
N11_3 N 0.9251(2) 0.8455(3) 0.5005(3)
N13_3 N 0.8116(2) 0.8090(3) 0.4199(3)
N14_3 N 0.8852(2) 0.8607(4) 0.7167(3)
N15_3 N 0.8749(2) 0.8946(3) 0.5817(3)
N16_3 N 0.8464(2) 0.9840(3) 0.4356(3)
C19_3 C 0.8163(3) 0.7075(4) 0.4304(4)
H21_3 H 0.8524 0.6713 0.4787
C20_3 C 0.9815(2) 0.8336(4) 0.5849(4)
H22_3 H 0.9890 0.8452 0.6454
C21_3 C 0.9343(3) 0.8180(5) 0.4322(4)
H23_3 H 0.9030 0.8165 0.3645
C22_3 C 0.7519(3) 0.8244(4) 0.3410(4)
H24_3 H 0.7353 0.8878 0.3155
C24_3 C 0.9953(3) 0.7937(5) 0.4785(4)
C25_3 C 0.7605(3) 0.6708(5) 0.3599(4)
H27_3 H 0.7504 0.6028 0.3500
C26_3 C 0.8667(3) 0.8284(4) 0.6318(4)
H28_3 H 0.8494 0.7649 0.6081
C28_3 C 0.9067(3) 0.9538(5) 0.7224(4)
H30_3 H 0.9237 0.9968 0.7759
C29_3 C 0.9002(3) 0.9752(5) 0.6404(4)
B2_3 B 0.8642(3) 0.8827(5) 0.4837(4)
N5_4 N 0.6884(2) 0.3090(3) 0.0801(3)
N8_4 N 0.6536(2) 0.4840(3) 0.0644(3)
C3_4 C 0.6837(3) 0.2075(4) 0.0696(4)
H5_4 H 0.6476 0.1713 0.0213
C5_4 C 0.5657(3) 0.3180(5) 0.0678(4)
H7_4 H 0.5970 0.3165 0.1355
C6_4 C 0.7481(3) 0.3244(4) 0.1590(4)
H8_4 H 0.7647 0.3878 0.1845
C7_4 C 0.6235(3) 0.5354(4) 0.0930(4)
H9_4 H 0.5874 0.5120 0.0879
C8_4 C 0.5047(3) 0.2937(5) 0.0215(4)
H10_4 H 0.4857 0.2726 0.0517
C9_4 C 0.7395(3) 0.1708(5) 0.1401(4)
H11_4 H 0.7496 0.1028 0.1500
C11_4 C 0.7026(3) 0.5438(5) 0.0831(5)
H13_4 H 0.7326 0.5290 0.0704
C14_4 C 0.6994(3) 0.6274(5) 0.1228(4)
H16_4 H 0.7274 0.6816 0.1433
B1_4 B 0.6358(3) 0.3827(5) 0.0163(4)
N2_4 N 0.4739(2) 0.3036(3) 0.9247(3)
N3_4 N 0.5749(2) 0.3455(3) 0.9995(3)
N6_4 N 0.6148(2) 0.3607(4) 0.7833(3)
N7_4 N 0.6251(2) 0.3946(3) 0.9183(3)
C4_4 C 0.5185(2) 0.3336(4) 0.9151(4)
H6_4 H 0.5110 0.3452 0.8546
C10_4 C 0.6333(3) 0.3284(4) 0.8682(4)
H12_4 H 0.6506 0.2649 0.8919
C12_4 C 0.5933(3) 0.4538(5) 0.7776(4)
H14_4 H 0.5763 0.4968 0.7241
C13_4 C 0.5998(3) 0.4752(5) 0.8596(4)
H15_2 H 0.5888 0.5355 0.8741
N10_4 N 0.5261(2) 0.3036(3) 0.5753(3)
N11_4 N 0.4251(2) 0.3455(3) 0.5005(3)
N13_4 N 0.3116(2) 0.3090(3) 0.4199(3)
N14_4 N 0.3852(2) 0.3607(4) 0.7167(3)
N15_4 N 0.3749(2) 0.3946(3) 0.5817(3)
N16_4 N 0.3464(2) 0.4840(3) 0.4356(3)
C19_4 C 0.3163(3) 0.2075(4) 0.4304(4)
H21_4 H 0.3524 0.1713 0.4787
C20_4 C 0.4815(2) 0.3336(4) 0.5849(4)
H22_4 H 0.4890 0.3452 0.6454
C21_4 C 0.4343(3) 0.3180(5) 0.4322(4)
H23_4 H 0.4030 0.3165 0.3645
C22_4 C 0.2519(3) 0.3244(4) 0.3410(4)
H24_4 H 0.2353 0.3878 0.3155
C23_4 C 0.3765(3) 0.5354(4) 0.4070(4)
H25_4 H 0.4126 0.5120 0.4121
C24_4 C 0.4953(3) 0.2937(5) 0.4785(4)
H26_4 H 0.5143 0.2726 0.4483
C25_4 C 0.2605(3) 0.1708(5) 0.3599(4)
H27_4 H 0.2504 0.1028 0.3500
C26_4 C 0.3667(3) 0.3284(4) 0.6318(4)
H28_4 H 0.3494 0.2649 0.6081
C27_4 C 0.2974(3) 0.5438(5) 0.4169(5)
H29_4 H 0.2674 0.5290 0.4296
C28_4 C 0.4067(3) 0.4538(5) 0.7224(4)
H30_4 H 0.4237 0.4968 0.7759
C29_4 C 0.4002(3) 0.4752(5) 0.6404(4)
H31_4 H 0.4112 0.5355 0.6259
C30_4 C 0.3006(3) 0.6274(5) 0.3772(4)
H32_4 H 0.2726 0.6816 0.3567
B2_4 B 0.3642(3) 0.3827(5) 0.4837(4)
H15_3 H 0.9112 0.9645 0.1259
H15_4 H 0.0888 0.0355 0.8741
loop_
_geom_bond_atom_site_label_1
_geom_bond_atom_site_label_2
_geom_bond_site_symmetry_1
_geom_bond_site_symmetry_2
Co1 O1 1_555 1_555
O1 C15 1_555 1_555
O2 Co1 1_555 1_555
N2 Co1 1_555 1_555
C1 H1 1_555 1_555
H2 C1 1_555 1_555
C2 C1 1_555 1_555
C15 O2 1_555 1_555
N9 C22 1_555 1_555
N11 C20 1_555 1_555
N13 C19 1_555 1_555
N14 Co1 1_555 1_555
N15 C26 1_555 1_555
C19 H21 1_555 1_555
H22 C20 1_555 1_555
C21 N11 1_555 1_555
H23 C21 1_555 1_555
C22 N13 1_555 1_555
H24 C22 1_555 1_555
C25 N9 1_555 1_555
H27 C25 1_555 1_555
C26 N14 1_555 1_555
H28 C26 1_555 1_555
C28 N14 1_555 1_555
H30 C28 1_555 1_555
C29 N15 1_555 1_555
B2 N11 1_555 1_555
Co6 N9 1_555 1_555
N18 Co1 1_555 1_555
N19 Co1 1_555 1_555
C1 C15 1_555 1_555
N13 B2 1_555 1_555
N15 B2 1_555 1_555
N16 B2 1_555 1_555
C19 C25 1_555 1_555
C21 C24 1_555 1_555
C28 C29 1_555 1_555
N12 C23 1_555 1_555
C23 H25 1_555 1_555
H29 C27 1_555 1_555
C30 N12 1_555 1_555
H32 C30 1_555 1_555
Co5 N12 1_555 1_555
C27 C30 1_555 1_555
N3 C4 1_555 1_555
N6 C10 1_555 1_555
N7 C10 1_555 1_555
H6 C4 1_555 1_555
C10 H12 1_555 1_555
C12 N6 1_555 1_555
H14 C12 1_555 1_555
C13 N7 1_555 1_555
Co2 N6 1_555 1_555
N10 Co2 1_555 1_555
O5 Co2 1_555 1_555
O6 Co2 1_555 1_555
N17 Co2 1_555 1_555
N20 Co2 1_555 1_555
C12 C13 1_555 1_555
N1 C6 1_555 1_555
N5 C3 1_555 1_555
C3 H5 1_555 1_555
H7 C5 1_555 1_555
C6 N5 1_555 1_555
H8 C6 1_555 1_555
C9 N1 1_555 1_555
H11 C9 1_555 1_555
O3 C18 1_555 1_555
O4 C18 1_555 1_555
C16 H17 1_555 1_555
H18 C16 1_555 1_555
C18 C16 1_555 1_555
Co4 O3 1_555 1_555
Co7 N1 1_555 1_555
N5 B1 1_555 1_555
N8 B1 1_555 1_555
C3 C9 1_555 1_555
C5 C8 1_555 1_555
O4 Co4 1_555 1_555
C16 C17 1_555 1_555
N4 C7 1_555 1_555
C7 H9 1_555 1_555
H13 C11 1_555 1_555
C14 N4 1_555 1_555
H16 C14 1_555 1_555
Co4 N4 1_555 1_555
C11 C14 1_555 1_555
O3_2 C18_2 1_555 1_555
O4_2 C18_2 1_555 1_555
C16_2 H17_2 1_555 1_555
H18_2 C16_2 1_555 1_555
H19_2 C17_2 1_555 1_555
H20_2 C17_2 1_555 1_555
C18_2 C16_2 1_555 1_555
Co5 O3_2 1_555 1_555
O4_2 Co5 1_555 1_555
C16_2 C17_2 1_555 1_555
O5 C15_2 1_555 1_555
C1_2 H1_2 1_555 1_555
H2_2 C1_2 1_555 1_555
C2_2 C1_2 1_555 1_555
H3_2 C2_2 1_555 1_555
H4_2 C2_2 1_555 1_555
C15_2 O6 1_555 1_555
C1_2 C15_2 1_555 1_555
C1_3 H1_3 1_555 1_555
H2_3 C1_3 1_555 1_555
C2_3 C1_3 1_555 1_555
O3_3 C18_3 1_555 1_555
O4_3 C18_3 1_555 1_555
Co6 O3_3 1_555 1_555
O4_3 Co6 1_555 1_555
Co1_2 O1_2 1_555 1_555
O1_2 C15_3 1_555 1_555
O2_2 Co1_2 1_555 1_555
N2_2 Co1_2 1_555 1_555
N3_2 C4_2 1_555 1_555
N6_2 C10_2 1_555 1_555
N7_2 C10_2 1_555 1_555
C4_2 N2_2 1_555 1_555
H6_2 C4_2 1_555 1_555
C10_2 H12_2 1_555 1_555
C12_2 N6_2 1_555 1_555
H14_2 C12_2 1_555 1_555
C13_2 N7_2 1_555 1_555
H15 C13_2 1_555 1_555
C15_3 O2_2 1_555 1_555
Co2_2 N6_2 1_555 1_555
N9_2 C22_2 1_555 1_555
N10_2 Co2_2 1_555 1_555
N11_2 C20_2 1_555 1_555
N12_2 C23_2 1_555 1_555
N13_2 C19_2 1_555 1_555
N14_2 Co1_2 1_555 1_555
N15_2 C26_2 1_555 1_555
N16_2 C23_2 1_555 1_555
C19_2 H21_2 1_555 1_555
C20_2 N10_2 1_555 1_555
H22_2 C20_2 1_555 1_555
C21_2 N11_2 1_555 1_555
H23_2 C21_2 1_555 1_555
C22_2 N13_2 1_555 1_555
H24_2 C22_2 1_555 1_555
C23_2 H25_2 1_555 1_555
C24_2 N10_2 1_555 1_555
H26_2 C24_2 1_555 1_555
C25_2 N9_2 1_555 1_555
H27_2 C25_2 1_555 1_555
C26_2 N14_2 1_555 1_555
H28_2 C26_2 1_555 1_555
C27_2 N16_2 1_555 1_555
H29_2 C27_2 1_555 1_555
C28_2 N14_2 1_555 1_555
H30_2 C28_2 1_555 1_555
C29_2 N15_2 1_555 1_555
H31_2 C29_2 1_555 1_555
C30_2 N12_2 1_555 1_555
H32_2 C30_2 1_555 1_555
B2_2 N11_2 1_555 1_555
Co7 N12_2 1_555 1_555
Co4 N9_2 1_555 1_555
O5_2 Co2_2 1_555 1_555
O6_2 Co2_2 1_555 1_555
N17_2 Co2_2 1_555 1_555
N18_2 Co1_2 1_555 1_555
N19_2 Co1_2 1_555 1_555
N20_2 Co2_2 1_555 1_555
C12_2 C13_2 1_555 1_555
N13_2 B2_2 1_555 1_555
N15_2 B2_2 1_555 1_555
N16_2 B2_2 1_555 1_555
C19_2 C25_2 1_555 1_555
C21_2 C24_2 1_555 1_555
C27_2 C30_2 1_555 1_555
C28_2 C29_2 1_555 1_555
N1_2 C6_2 1_555 1_555
N4_2 C7_2 1_555 1_555
N5_2 C3_2 1_555 1_555
N8_2 C7_2 1_555 1_555
C3_2 H5_2 1_555 1_555
H7_2 C5_2 1_555 1_555
C6_2 N5_2 1_555 1_555
H8_2 C6_2 1_555 1_555
C7_2 H9_2 1_555 1_555
H10_2 C8_2 1_555 1_555
C9_2 N1_2 1_555 1_555
H11_2 C9_2 1_555 1_555
C11_2 N8_2 1_555 1_555
H13_2 C11_2 1_555 1_555
C14_2 N4_2 1_555 1_555
H16_2 C14_2 1_555 1_555
C16_3 H17_3 1_555 1_555
H18_3 C16_3 1_555 1_555
Co6 N4_2 1_555 1_555
Co5 N1_2 1_555 1_555
N5_2 B1_2 1_555 1_555
N8_2 B1_2 1_555 1_555
C3_2 C9_2 1_555 1_555
C5_2 C8_2 1_555 1_555
C11_2 C14_2 1_555 1_555
C16_3 C17_3 1_555 1_555
C1_4 H1_4 1_555 1_555
H2_4 C1_4 1_555 1_555
C2_4 C1_4 1_555 1_555
H3_4 C2_4 1_555 1_555
O3_4 C18_4 1_555 1_555
O4_4 C18_4 1_555 1_555
Co7 O3_4 1_555 1_555
O4_4 Co7 1_555 1_555
O5_2 C15_4 1_555 1_555
C15_4 O6_2 1_555 1_555
C16_4 H17_4 1_555 1_555
H18_4 C16_4 1_555 1_555
H19_4 C17_4 1_555 1_555
C16_4 C17_4 1_555 1_555
N19 C7_3 1_555 1_555
C7_3 H9_3 1_555 1_555
H13_3 C11_3 1_555 1_555
C14_3 N19 1_555 1_555
H16_3 C14_3 1_555 1_555
C11_3 C14_3 1_555 1_555
N17_2 C6_3 1_555 1_555
N5_3 C3_3 1_555 1_555
C3_3 H5_3 1_555 1_555
H7_3 C5_3 1_555 1_555
C6_3 N5_3 1_555 1_555
H8_3 C6_3 1_555 1_555
C9_3 N17_2 1_555 1_555
H11_3 C9_3 1_555 1_555
N5_3 B1_3 1_555 1_555
N8_3 B1_3 1_555 1_555
C3_3 C9_3 1_555 1_555
C5_3 C8_3 1_555 1_555
N3_3 C4_3 1_555 1_555
N6_3 C10_3 1_555 1_555
N7_3 C10_3 1_555 1_555
H6_3 C4_3 1_555 1_555
C10_3 H12_3 1_555 1_555
C12_3 N6_3 1_555 1_555
H14_3 C12_3 1_555 1_555
C13_3 N7_3 1_555 1_555
Co5 N6_3 1_555 1_555
N10_3 Co5 1_555 1_555
C12_3 C13_3 1_555 1_555
N20 C23_3 1_555 1_555
C23_3 H25_3 1_555 1_555
H29_3 C27_3 1_555 1_555
C30_3 N20 1_555 1_555
H32_3 C30_3 1_555 1_555
C27_3 C30_3 1_555 1_555
N2_3 Co4 1_555 1_555
N18_2 C22_3 1_555 1_555
N11_3 C20_3 1_555 1_555
N13_3 C19_3 1_555 1_555
N14_3 Co4 1_555 1_555
N15_3 C26_3 1_555 1_555
C19_3 H21_3 1_555 1_555
H22_3 C20_3 1_555 1_555
C21_3 N11_3 1_555 1_555
H23_3 C21_3 1_555 1_555
C22_3 N13_3 1_555 1_555
H24_3 C22_3 1_555 1_555
C25_3 N18_2 1_555 1_555
H27_3 C25_3 1_555 1_555
C26_3 N14_3 1_555 1_555
H28_3 C26_3 1_555 1_555
C28_3 N14_3 1_555 1_555
H30_3 C28_3 1_555 1_555
C29_3 N15_3 1_555 1_555
B2_3 N11_3 1_555 1_555
N13_3 B2_3 1_555 1_555
N15_3 B2_3 1_555 1_555
N16_3 B2_3 1_555 1_555
C19_3 C25_3 1_555 1_555
C21_3 C24_3 1_555 1_555
C28_3 C29_3 1_555 1_555
N17 C6_4 1_555 1_555
N19_2 C7_4 1_555 1_555
N5_4 C3_4 1_555 1_555
N8_4 C7_4 1_555 1_555
C3_4 H5_4 1_555 1_555
H7_4 C5_4 1_555 1_555
C6_4 N5_4 1_555 1_555
H8_4 C6_4 1_555 1_555
C7_4 H9_4 1_555 1_555
H10_4 C8_4 1_555 1_555
C9_4 N17 1_555 1_555
H11_4 C9_4 1_555 1_555
C11_4 N8_4 1_555 1_555
H13_4 C11_4 1_555 1_555
C14_4 N19_2 1_555 1_555
H16_4 C14_4 1_555 1_555
N5_4 B1_4 1_555 1_555
N8_4 B1_4 1_555 1_555
C3_4 C9_4 1_555 1_555
C5_4 C8_4 1_555 1_555
C11_4 C14_4 1_555 1_555
N2_4 Co6 1_555 1_555
N3_4 C4_4 1_555 1_555
N6_4 C10_4 1_555 1_555
N7_4 C10_4 1_555 1_555
C4_4 N2_4 1_555 1_555
H6_4 C4_4 1_555 1_555
C10_4 H12_4 1_555 1_555
C12_4 N6_4 1_555 1_555
H14_4 C12_4 1_555 1_555
C13_4 N7_4 1_555 1_555
H15_2 C13_4 1_555 1_555
Co7 N6_4 1_555 1_555
N18 C22_4 1_555 1_555
N10_4 Co7 1_555 1_555
N11_4 C20_4 1_555 1_555
N20_2 C23_4 1_555 1_555
N13_4 C19_4 1_555 1_555
N14_4 Co6 1_555 1_555
N15_4 C26_4 1_555 1_555
N16_4 C23_4 1_555 1_555
C19_4 H21_4 1_555 1_555
C20_4 N10_4 1_555 1_555
H22_4 C20_4 1_555 1_555
C21_4 N11_4 1_555 1_555
H23_4 C21_4 1_555 1_555
C22_4 N13_4 1_555 1_555
H24_4 C22_4 1_555 1_555
C23_4 H25_4 1_555 1_555
C24_4 N10_4 1_555 1_555
H26_4 C24_4 1_555 1_555
C25_4 N18 1_555 1_555
H27_4 C25_4 1_555 1_555
C26_4 N14_4 1_555 1_555
H28_4 C26_4 1_555 1_555
C27_4 N16_4 1_555 1_555
H29_4 C27_4 1_555 1_555
C28_4 N14_4 1_555 1_555
H30_4 C28_4 1_555 1_555
C29_4 N15_4 1_555 1_555
H31_4 C29_4 1_555 1_555
C30_4 N20_2 1_555 1_555
H32_4 C30_4 1_555 1_555
B2_4 N11_4 1_555 1_555
C12_4 C13_4 1_555 1_555
N13_4 B2_4 1_555 1_555
N15_4 B2_4 1_555 1_555
N16_4 B2_4 1_555 1_555
C19_4 C25_4 1_555 1_555
C21_4 C24_4 1_555 1_555
C27_4 C30_4 1_555 1_555
C28_4 C29_4 1_555 1_555

#END
