
###############################################################################
#
# This file contains modified crystal structure data generated from the
# MOF subset of the Cambridge Structural Database (CSD) v543 
# hosted by the Cambridge Crystallographic Data Centre (CCDC).
#
# This work is licensed under the Creative Commons
# Attribution-NonCommercial-ShareAlike 4.0 International License.
# To view a copy of this license, visit
# http://creativecommons.org/licenses/by-nc-sa/4.0/
# or send a letter to
# Creative Commons, PO Box 1866, Mountain View, CA 94042, USA.
#
# CIF created using the CSD Python API on 29 September 2022
# The structure has been converted into the P1 space group
# The structure has a 3D framework
# The original CSD entry NAHHAI is in the monoclinic crystal system
# The framework has been calculated to contain at least 10.0% void space
# The void calculation uses a probe of radius 1.32A, grid spacing 0.4
# H atom positions have been added when not included in the experimental data
# Generated hydrogen atom positions removed from atoms on special positions
#
###############################################################################

data_NAHHAI
_chemical_formula_moiety         '(C18 H22 Cd10 N8 O12)n'
_symmetry_cell_setting           triclinic
_symmetry_space_group_name_H-M   'P 1'
_symmetry_Int_Tables_number      1
_space_group_name_Hall           'P 1'
loop_
_symmetry_equiv_pos_site_id
_symmetry_equiv_pos_as_xyz
1 x,y,z
_cell_length_a                   10.4622(9)
_cell_length_b                   7.1870(6)
_cell_length_c                   13.4544(12)
_cell_angle_alpha                90
_cell_angle_beta                 112.694(2)
_cell_angle_gamma                90
_cell_volume                     933.337
loop_
_atom_site_label
_atom_site_type_symbol
_atom_site_fract_x
_atom_site_fract_y
_atom_site_fract_z
Cd2 Cd 0.0000 0.0000 0.0000
Cd8 Cd 0.0000 0.5000 0.0000
N7 N 0.0964(9) 0.1572(17) 0.1618(6)
Cd2_2 Cd 0.0000 0.0000 1.0000
O7 O 0.1975(10) 0.0342(19) 0.9577(8)
Cd8_2 Cd 0.0000 0.5000 1.0000
O8 O 0.1143(14) 0.2500 0.7627(9)
H6 H 0.241095 0.156969 0.983751
Cd2_3 Cd 0.0000 1.0000 0.0000
O10 O 0.0975(12) 0.7500 0.0976(8)
Cd2_4 Cd 0.0000 1.0000 1.0000
H7 H 0.264783 0.933638 0.993106
Cd2_5 Cd 1.0000 0.0000 0.0000
Cd8_3 Cd 1.0000 0.5000 0.0000
Cd1 Cd 0.85630(9) 0.2500 0.72512(7)
Cd2_6 Cd 1.0000 0.0000 1.0000
N1 N 0.1355(9) 0.0964(17) 0.2606(6)
O1 O 0.6350(10) 0.2500 0.6226(9)
O2 O 0.6056(11) 0.2500 0.7767(9)
O5 O 0.9025(12) 0.2500 0.9024(8)
C1 C 0.5640(12) 0.2500 0.6791(11)
C2 C 0.4078(13) 0.2500 0.6145(11)
C3 C 0.3594(13) 0.2500 0.5052(10)
H1 H 0.4215 0.2500 0.4710
C4 C 0.2143(14) 0.2500 0.4427(11)
C5 C 0.1264(15) 0.2500 0.4930(11)
H2 H 0.0313 0.2500 0.4535
C6 C 0.1796(15) 0.2500 0.6080(11)
C7 C 0.3142(15) 0.2500 0.6678(10)
H3 H 0.3464 0.2500 0.7426
C8 C 0.0711(17) 0.2500 0.6590(12)
C9 C 0.1639(14) 0.2500 0.3226(11)
N3 N 0.1355(9) 0.4036(17) 0.2606(6)
N4 N 0.0964(9) 0.3428(17) 0.1618(6)
Cd5 Cd 0.14370(9) 0.7500 0.27488(7)
Cd8_4 Cd 1.0000 0.5000 1.0000
N5 N 0.8645(9) 0.5964(17) 0.7394(6)
O9 O 0.9436(12) 0.2500 0.6015(9)
Cd2_7 Cd 1.0000 1.0000 0.0000
O6 O 0.8025(10) 0.9658(19) 0.0423(8)
H5 H 0.814341 0.855638 0.0895805
Cd2_8 Cd 1.0000 1.0000 1.0000
N6 N 0.8645(9) 0.9036(17) 0.7394(6)
N8 N 0.9036(9) 0.8428(17) 0.8382(6)
H4 H 0.719342 0.948393 0.974906
O4 O 0.0564(12) 0.7500 0.3985(9)
N2 N 0.9036(9) 0.6572(17) 0.8382(6)
O1_2 O 0.3650(10) 0.7500 0.3774(9)
O2_2 O 0.3944(11) 0.7500 0.2233(9)
O3 O 0.8857(14) 0.7500 0.2373(9)
C1_2 C 0.4360(12) 0.7500 0.3209(11)
C2_2 C 0.5922(13) 0.7500 0.3855(11)
C3_2 C 0.6406(13) 0.7500 0.4948(10)
H1_2 H 0.5785 0.7500 0.5290
C4_2 C 0.7857(14) 0.7500 0.5573(11)
C5_2 C 0.8736(15) 0.7500 0.5070(11)
H2_2 H 0.9687 0.7500 0.5465
C6_2 C 0.8204(15) 0.7500 0.3920(11)
C7_2 C 0.6858(15) 0.7500 0.3322(10)
H3_2 H 0.6536 0.7500 0.2574
C8_2 C 0.9289(17) 0.7500 0.3410(12)
C9_2 C 0.8361(14) 0.7500 0.6774(11)
H4_2 H 0.280658 0.448393 0.0250942
O6_2 O 0.1975(10) 0.4658(19) 0.9577(8)
O7_2 O 0.8025(10) 0.5342(19) 0.0423(8)
H4_3 H 0.280658 0.0516066 0.0250942
H5_2 H 0.185659 0.144362 0.910419
H7_2 H 0.735217 0.0663618 0.00689391
H6_2 H 0.758905 0.843031 0.0162491
H4_4 H 0.719342 0.551607 0.974906
loop_
_geom_bond_atom_site_label_1
_geom_bond_atom_site_label_2
_geom_bond_site_symmetry_1
_geom_bond_site_symmetry_2
N7 Cd2 1_555 1_555
O7 Cd2_2 1_555 1_555
O7 H6 1_555 1_555
O10 Cd2_3 1_555 1_555
Cd1 O1 1_555 1_555
Cd2_6 O5 1_555 1_555
N1 N7 1_555 1_555
N7 N4 1_555 1_555
O1 C1 1_555 1_555
O2 C1 1_555 1_555
O8 C8 1_555 1_555
O5 Cd1 1_555 1_555
C1 C2 1_555 1_555
C2 C3 1_555 1_555
C3 H1 1_555 1_555
C4 C3 1_555 1_555
C5 C4 1_555 1_555
H2 C5 1_555 1_555
C6 C5 1_555 1_555
C7 C2 1_555 1_555
H3 C7 1_555 1_555
C8 C6 1_555 1_555
C9 N1 1_555 1_555
N3 C9 1_555 1_555
N4 N3 1_555 1_555
Cd5 N3 1_555 1_555
Cd8 N4 1_555 1_555
Cd8_4 O5 1_555 1_555
N5 Cd1 1_555 1_555
O9 Cd1 1_555 1_555
C4 C9 1_555 1_555
C6 C7 1_555 1_555
O6 Cd2_7 1_555 1_555
O6 H5 1_555 1_555
N8 Cd2_8 1_555 1_555
N6 N8 1_555 1_555
O4 Cd5 1_555 1_555
Cd5 O1_2 1_555 1_555
Cd8 O10 1_555 1_555
N5 N2 1_555 1_555
N2 N8 1_555 1_555
O1_2 C1_2 1_555 1_555
O2_2 C1_2 1_555 1_555
O3 C8_2 1_555 1_555
O10 Cd5 1_555 1_555
C1_2 C2_2 1_555 1_555
C2_2 C3_2 1_555 1_555
C3_2 H1_2 1_555 1_555
C4_2 C3_2 1_555 1_555
C5_2 C4_2 1_555 1_555
H2_2 C5_2 1_555 1_555
C6_2 C5_2 1_555 1_555
C7_2 C2_2 1_555 1_555
H3_2 C7_2 1_555 1_555
C8_2 C6_2 1_555 1_555
C9_2 N5 1_555 1_555
N6 C9_2 1_555 1_555
Cd8_4 N2 1_555 1_555
C4_2 C9_2 1_555 1_555
C6_2 C7_2 1_555 1_555
O6_2 Cd8_2 1_555 1_555
O7_2 Cd8_3 1_555 1_555
O7 H5_2 1_555 1_555
O6 H6_2 1_555 1_555

#END
