
###############################################################################
#
# This file contains modified crystal structure data generated from the
# MOF subset of the Cambridge Structural Database (CSD) v543 
# hosted by the Cambridge Crystallographic Data Centre (CCDC).
#
# This work is licensed under the Creative Commons
# Attribution-NonCommercial-ShareAlike 4.0 International License.
# To view a copy of this license, visit
# http://creativecommons.org/licenses/by-nc-sa/4.0/
# or send a letter to
# Creative Commons, PO Box 1866, Mountain View, CA 94042, USA.
#
# CIF created using the CSD Python API on 29 September 2022
# The structure has been converted into the P1 space group
# The structure has a 3D framework
# The original CSD entry NAHNES is in the tetragonal crystal system
# The framework has been calculated to contain at least 10.0% void space
# The void calculation uses a probe of radius 1.32A, grid spacing 0.4
#
###############################################################################

data_NAHNES
_chemical_formula_moiety         '(C368 H228 Cu27 N20 O102)n'
_symmetry_cell_setting           triclinic
_symmetry_space_group_name_H-M   'P 1'
_symmetry_Int_Tables_number      1
_space_group_name_Hall           'P 1'
loop_
_symmetry_equiv_pos_site_id
_symmetry_equiv_pos_as_xyz
1 x,y,z
_cell_length_a                   19.2590(2)
_cell_length_b                   19.2590(2)
_cell_length_c                   61.2256(12)
_cell_angle_alpha                90
_cell_angle_beta                 90
_cell_angle_gamma                90
_cell_volume                     22709.1
loop_
_atom_site_label
_atom_site_type_symbol
_atom_site_fract_x
_atom_site_fract_y
_atom_site_fract_z
Cu2 Cu 0.0000 0.7500 0.603286(8)
O4 O 0.0000 0.7500 0.56875(6)
H1 H 0.0000 0.7867 0.5610
H17 H 0.0000 0.7133 0.5610
Cu11 Cu 0.0000 0.7500 0.646714(8)
O18 O 0.07120(10) 0.82133(9) 0.60665(3)
O19 O 0.07120(10) 0.67867(9) 0.60665(3)
Cu1 Cu 0.5000 0.567064(17) 0.497773(6)
Cu2_2 Cu 1.0000 0.7500 0.603286(8)
N1 N 0.5000 0.67843(13) 0.49643(4)
O1 O 0.57032(9) 0.44654(8) 0.52481(3)
O2 O 0.57110(9) 0.56140(8) 0.52058(3)
O3 O 0.92880(10) 0.67867(9) 0.60665(3)
O4_2 O 1.0000 0.7500 0.56875(6)
H1_2 H 1.0000 0.7867 0.5610
C1 C 0.75129(13) 0.50129(13) 0.6250
H2 H 0.7164 0.4664 0.6250
C2 C 0.76203(15) 0.54031(15) 0.60621(4)
C3 C 0.63632(13) 0.51408(13) 0.54928(4)
C4 C 0.71907(15) 0.53055(14) 0.58638(4)
C5 C 0.58946(12) 0.50650(11) 0.53008(4)
C6 C 0.85301(12) 0.60301(12) 0.6250
C7 C 0.81398(14) 0.59072(15) 0.60625(4)
H3 H 0.8228 0.6169 0.5934
C8 C 0.69809(17) 0.58816(15) 0.57440(5)
H4 H 0.7120 0.6333 0.5789
C9 C 0.65668(16) 0.58033(14) 0.55579(5)
H5 H 0.6425 0.6199 0.5477
C10 C 0.65769(15) 0.45670(14) 0.56098(4)
H6 H 0.6444 0.4115 0.5563
C11 C 0.90759(12) 0.65759(12) 0.6250
C12 C 0.69861(16) 0.46472(15) 0.57953(5)
H7 H 0.7127 0.4250 0.5876
C13 C 0.55804(16) 0.71429(16) 0.49624(8)
H8 H 0.6011 0.6903 0.4961
C14 C 0.44196(16) 0.71429(16) 0.49624(8)
H9 H 0.3989 0.6903 0.4961
N2 N 0.5000 0.82157(13) 0.49643(4)
C15 C 0.55804(16) 0.78571(16) 0.49624(8)
H10 H 0.6011 0.8097 0.4961
C16 C 0.44196(16) 0.78571(16) 0.49624(8)
H11 H 0.3989 0.8097 0.4961
O5 O 0.69654(8) 0.32032(9) 0.72519(3)
O6 O 0.81140(8) 0.32110(9) 0.72942(3)
O7 O 0.92867(9) 0.67880(10) 0.64335(3)
C17 C 0.79031(15) 0.51203(15) 0.64379(4)
C18 C 0.76408(13) 0.38632(13) 0.70072(4)
C19 C 0.78055(14) 0.46907(15) 0.66362(4)
C20 C 0.75650(11) 0.33946(12) 0.71992(4)
C21 C 0.84072(15) 0.56398(14) 0.64375(4)
H12 H 0.8669 0.5728 0.6566
C22 C 0.83816(15) 0.44809(17) 0.67560(5)
H13 H 0.8833 0.4620 0.6711
C23 C 0.83033(14) 0.40668(16) 0.69421(5)
H14 H 0.8699 0.3925 0.7023
C24 C 0.70670(14) 0.40769(15) 0.68902(4)
H15 H 0.6615 0.3944 0.6937
C25 C 0.71472(15) 0.44861(16) 0.67047(5)
H16 H 0.6750 0.4627 0.6624
H17_2 H 1.0000 0.7133 0.5610
Cu3 Cu 0.5000 0.432936(17) 0.502227(6)
O8 O 0.42968(9) 0.44654(8) 0.52481(3)
O9 O 0.42890(9) 0.56140(8) 0.52058(3)
C26 C 0.24871(13) 0.50129(13) 0.6250
H18 H 0.2836 0.4664 0.6250
C27 C 0.23797(15) 0.54031(15) 0.60621(4)
C28 C 0.36368(13) 0.51408(13) 0.54928(4)
C29 C 0.28093(15) 0.53055(14) 0.58638(4)
C30 C 0.41054(12) 0.50650(11) 0.53008(4)
C31 C 0.14699(12) 0.60301(12) 0.6250
C32 C 0.18602(14) 0.59072(15) 0.60625(4)
H19 H 0.1772 0.6169 0.5934
C33 C 0.30191(17) 0.58816(15) 0.57440(5)
H20 H 0.2880 0.6333 0.5789
C34 C 0.34332(16) 0.58033(14) 0.55579(5)
H21 H 0.3575 0.6199 0.5477
C35 C 0.34231(15) 0.45670(14) 0.56098(4)
H22 H 0.3556 0.4115 0.5563
C36 C 0.09241(12) 0.65759(12) 0.6250
C37 C 0.30139(16) 0.46472(15) 0.57953(5)
H23 H 0.2873 0.4250 0.5876
O11 O 0.30346(8) 0.32032(9) 0.72519(3)
O12 O 0.18860(8) 0.32110(9) 0.72942(3)
O13 O 0.07133(9) 0.67880(10) 0.64335(3)
C38 C 0.20969(15) 0.51203(15) 0.64379(4)
C39 C 0.23592(13) 0.38632(13) 0.70072(4)
C40 C 0.21945(14) 0.46907(15) 0.66362(4)
C41 C 0.24350(11) 0.33946(12) 0.71992(4)
C42 C 0.15928(15) 0.56398(14) 0.64375(4)
H24 H 0.1331 0.5728 0.6566
C43 C 0.16184(15) 0.44809(17) 0.67560(5)
H25 H 0.1167 0.4620 0.6711
C44 C 0.16967(14) 0.40668(16) 0.69421(5)
H26 H 0.1301 0.3925 0.7023
C45 C 0.29330(14) 0.40769(15) 0.68902(4)
H27 H 0.3385 0.3944 0.6937
C46 C 0.28528(15) 0.44861(16) 0.67047(5)
H28 H 0.3250 0.4627 0.6624
Cu4 Cu 0.682936(17) 0.2500 0.747773(6)
Cu5 Cu 0.817064(17) 0.2500 0.752227(6)
Cu6 Cu 0.5000 0.932936(17) 0.497773(6)
Cu7 Cu 0.182936(17) 0.2500 0.752227(6)
Cu8 Cu 0.317064(17) 0.2500 0.747773(6)
Cu11_2 Cu 1.0000 0.7500 0.646714(8)
N3 N 0.5000 0.32157(13) 0.50357(4)
O14 O 0.57032(9) 0.55346(8) 0.47519(3)
O15 O 0.42968(9) 0.55346(8) 0.47519(3)
O16 O 0.57110(9) 0.43860(8) 0.47942(3)
O17 O 0.42890(9) 0.43860(8) 0.47942(3)
O20 O 0.92880(10) 0.82133(9) 0.60665(3)
Cu5_2 Cu -0.0000 0.567064(17) 0.002227(6)
Cu4_2 Cu 0.0000 0.432936(17) 0.997773(6)
Cu8_2 Cu -0.0000 0.067064(17) 0.997773(6)
Cu7_2 Cu -0.0000 0.932936(17) 0.002227(6)
Cu5_3 Cu 1.0000 0.567064(17) 0.002227(6)
Cu2_3 Cu 0.5000 0.7500 0.853286(8)
N1_2 N 0.57157(13) 0.2500 0.74643(4)
O1_2 O 0.80346(8) 0.32032(9) 0.77481(3)
O2_2 O 0.68860(8) 0.32110(9) 0.77058(3)
O3_2 O 0.57133(9) 0.67880(10) 0.85665(3)
O4_3 O 0.5000 0.7500 0.81875(6)
H1_3 H 0.4633 0.7500 0.8110
C1_2 C 0.74871(13) 0.50129(13) 0.8750
H2_2 H 0.7836 0.4664 0.8750
C2_2 C 0.70969(15) 0.51203(15) 0.85621(4)
C3_2 C 0.73592(13) 0.38632(13) 0.79928(4)
C4_2 C 0.71945(14) 0.46907(15) 0.83638(4)
C5_2 C 0.74350(11) 0.33946(12) 0.78008(4)
C6_2 C 0.64699(12) 0.60301(12) 0.8750
C7_2 C 0.65928(15) 0.56398(14) 0.85625(4)
H3_2 H 0.6331 0.5728 0.8434
C8_2 C 0.66184(15) 0.44809(17) 0.82440(5)
H4_2 H 0.6167 0.4620 0.8289
C9_2 C 0.66967(14) 0.40668(16) 0.80579(5)
H5_2 H 0.6301 0.3925 0.7977
C10_2 C 0.79330(14) 0.40769(15) 0.81098(4)
H6_2 H 0.8385 0.3944 0.8063
C11_2 C 0.59241(12) 0.65759(12) 0.8750
C12_2 C 0.78528(15) 0.44861(16) 0.82953(5)
H7_2 H 0.8250 0.4627 0.8376
C13_2 C 0.53571(16) 0.30804(16) 0.74624(8)
H8_2 H 0.5597 0.3511 0.7461
C14_2 C 0.53571(16) 0.19196(16) 0.74624(8)
H9_2 H 0.5597 0.1489 0.7461
N2_2 N 0.42843(13) 0.2500 0.74643(4)
C15_2 C 0.46429(16) 0.30804(16) 0.74624(8)
H10_2 H 0.4403 0.3511 0.7461
C16_2 C 0.46429(16) 0.19196(16) 0.74624(8)
H11_2 H 0.4403 0.1489 0.7461
O5_2 O 0.92968(9) 0.44654(8) 0.97519(3)
O6_2 O 0.92890(9) 0.56140(8) 0.97942(3)
O7_2 O 0.57120(10) 0.67867(9) 0.89335(3)
C17_2 C 0.73797(15) 0.54031(15) 0.89379(4)
C18_2 C 0.86368(13) 0.51408(13) 0.95072(4)
C19_2 C 0.78093(15) 0.53055(14) 0.91362(4)
C20_2 C 0.91054(12) 0.50650(11) 0.96992(4)
C21_2 C 0.68602(14) 0.59072(15) 0.89375(4)
H12_2 H 0.6772 0.6169 0.9066
C22_2 C 0.80191(17) 0.58816(15) 0.92560(5)
H13_2 H 0.7880 0.6333 0.9211
C23_2 C 0.84332(16) 0.58033(14) 0.94421(5)
H14_2 H 0.8575 0.6199 0.9523
C24_2 C 0.84231(15) 0.45670(14) 0.93902(4)
H15_2 H 0.8556 0.4115 0.9437
C25_2 C 0.80139(16) 0.46472(15) 0.92047(5)
H16_2 H 0.7873 0.4250 0.9124
H17_3 H 0.5367 0.7500 0.8110
O8_2 O 0.80346(8) 0.17968(9) 0.77481(3)
O9_2 O 0.68860(8) 0.17890(9) 0.77058(3)
H18_2 H 0.7836 0.0336 0.8750
C28_2 C 0.73592(13) 0.11368(13) 0.79928(4)
C29_2 C 0.71945(14) 0.03093(15) 0.83638(4)
C30_2 C 0.74350(11) 0.16054(12) 0.78008(4)
C33_2 C 0.66184(15) 0.05191(17) 0.82440(5)
H20_2 H 0.6167 0.0380 0.8289
C34_2 C 0.66967(14) 0.09332(16) 0.80579(5)
H21_2 H 0.6301 0.1075 0.7977
C35_2 C 0.79330(14) 0.09231(15) 0.81098(4)
H22_2 H 0.8385 0.1056 0.8063
C37_2 C 0.78528(15) 0.05139(16) 0.82953(5)
H23_2 H 0.8250 0.0373 0.8376
O11_2 O 0.92968(9) 0.05346(8) 0.97519(3)
C45_2 C 0.84231(15) 0.04330(14) 0.93902(4)
H27_2 H 0.8556 0.0885 0.9437
C46_2 C 0.80139(16) 0.03528(15) 0.92047(5)
H28_2 H 0.7873 0.0750 0.9124
Cu4_3 Cu 1.0000 0.432936(17) 0.997773(6)
Cu8_3 Cu 1.0000 0.067064(17) 0.997773(6)
Cu11_3 Cu 0.5000 0.7500 0.896714(8)
N3_2 N 0.92843(13) 0.2500 0.75357(4)
O15_2 O 0.69654(8) 0.17968(9) 0.72519(3)
O17_2 O 0.81140(8) 0.17890(9) 0.72942(3)
O18_2 O 0.42867(9) 0.82120(10) 0.85665(3)
O19_2 O 0.57133(9) 0.82120(10) 0.85665(3)
O20_2 O 0.42867(9) 0.67880(10) 0.85665(3)
Cu7_3 Cu 1.0000 0.932936(17) 0.002227(6)
C26_2 C 0.74871(13) 0.99871(13) 0.8750
C27_2 C 0.70969(15) 0.98797(15) 0.85621(4)
C31_2 C 0.64699(12) 0.89699(12) 0.8750
C32_2 C 0.65928(15) 0.93602(14) 0.85625(4)
H19_2 H 0.6331 0.9272 0.8434
C36_2 C 0.59241(12) 0.84241(12) 0.8750
O12_2 O 0.92890(9) 0.93860(8) 0.97942(3)
O13_2 O 0.57120(10) 0.82133(9) 0.89335(3)
C38_2 C 0.73797(15) 0.95969(15) 0.89379(4)
C39_2 C 0.86368(13) 0.98592(13) 0.95072(4)
C40_2 C 0.78093(15) 0.96945(14) 0.91362(4)
C41_2 C 0.91054(12) 0.99350(11) 0.96992(4)
C42_2 C 0.68602(14) 0.90928(15) 0.89375(4)
H24_2 H 0.6772 0.8831 0.9066
C43_2 C 0.80191(17) 0.91184(15) 0.92560(5)
H25_2 H 0.7880 0.8667 0.9211
C44_2 C 0.84332(16) 0.91967(14) 0.94421(5)
H26_2 H 0.8575 0.8801 0.9523
Cu2_4 Cu 0.0000 0.2500 0.396714(8)
O4_4 O 0.0000 0.2500 0.43125(6)
H1_4 H 0.0000 0.2133 0.4390
H17_4 H 0.0000 0.2867 0.4390
Cu11_4 Cu 0.0000 0.2500 0.353286(8)
O18_3 O 0.07120(10) 0.17867(9) 0.39335(3)
O19_3 O 0.07120(10) 0.32133(9) 0.39335(3)
Cu2_5 Cu 1.0000 0.2500 0.396714(8)
O3_3 O 0.92880(10) 0.32133(9) 0.39335(3)
O4_5 O 1.0000 0.2500 0.43125(6)
H1_5 H 1.0000 0.2133 0.4390
C1_3 C 0.75129(13) 0.49871(13) 0.3750
H2_3 H 0.7164 0.5336 0.3750
C2_3 C 0.76203(15) 0.45969(15) 0.39379(4)
C3_3 C 0.63632(13) 0.48592(13) 0.45072(4)
C4_3 C 0.71907(15) 0.46945(14) 0.41362(4)
C5_3 C 0.58946(12) 0.49350(11) 0.46992(4)
C6_3 C 0.85301(12) 0.39699(12) 0.3750
C7_3 C 0.81398(14) 0.40928(15) 0.39375(4)
H3_3 H 0.8228 0.3831 0.4066
C8_3 C 0.69809(17) 0.41184(15) 0.42560(5)
H4_3 H 0.7120 0.3667 0.4211
C9_3 C 0.65668(16) 0.41967(14) 0.44421(5)
H5_3 H 0.6425 0.3801 0.4523
C10_3 C 0.65769(15) 0.54330(14) 0.43902(4)
H6_3 H 0.6444 0.5885 0.4437
C11_3 C 0.90759(12) 0.34241(12) 0.3750
C12_3 C 0.69861(16) 0.53528(15) 0.42047(5)
H7_3 H 0.7127 0.5750 0.4124
C13_3 C 0.55804(16) 0.28571(16) 0.50376(8)
H8_3 H 0.6011 0.3097 0.5039
C14_3 C 0.44196(16) 0.28571(16) 0.50376(8)
H9_3 H 0.3989 0.3097 0.5039
N2_3 N 0.5000 0.17843(13) 0.50357(4)
C15_3 C 0.55804(16) 0.21429(16) 0.50376(8)
H10_3 H 0.6011 0.1903 0.5039
C16_3 C 0.44196(16) 0.21429(16) 0.50376(8)
H11_3 H 0.3989 0.1903 0.5039
O5_3 O 0.69654(8) 0.67968(9) 0.27481(3)
O6_3 O 0.81140(8) 0.67890(9) 0.27058(3)
O7_3 O 0.92867(9) 0.32120(10) 0.35665(3)
C17_3 C 0.79031(15) 0.48797(15) 0.35621(4)
C18_3 C 0.76408(13) 0.61368(13) 0.29928(4)
C19_3 C 0.78055(14) 0.53093(15) 0.33638(4)
C20_3 C 0.75650(11) 0.66054(12) 0.28008(4)
C21_3 C 0.84072(15) 0.43602(14) 0.35625(4)
H12_3 H 0.8669 0.4272 0.3434
C22_3 C 0.83816(15) 0.55191(17) 0.32440(5)
H13_3 H 0.8833 0.5380 0.3289
C23_3 C 0.83033(14) 0.59332(16) 0.30579(5)
H14_3 H 0.8699 0.6075 0.2977
C24_3 C 0.70670(14) 0.59231(15) 0.31098(4)
H15_3 H 0.6615 0.6056 0.3063
C25_3 C 0.71472(15) 0.55139(16) 0.32953(5)
H16_3 H 0.6750 0.5373 0.3376
H17_5 H 1.0000 0.2867 0.4390
C26_3 C 0.24871(13) 0.49871(13) 0.3750
H18_3 H 0.2836 0.5336 0.3750
C27_3 C 0.23797(15) 0.45969(15) 0.39379(4)
C28_3 C 0.36368(13) 0.48592(13) 0.45072(4)
C29_3 C 0.28093(15) 0.46945(14) 0.41362(4)
C30_3 C 0.41054(12) 0.49350(11) 0.46992(4)
C31_3 C 0.14699(12) 0.39699(12) 0.3750
C32_3 C 0.18602(14) 0.40928(15) 0.39375(4)
H19_3 H 0.1772 0.3831 0.4066
C33_3 C 0.30191(17) 0.41184(15) 0.42560(5)
H20_3 H 0.2880 0.3667 0.4211
C34_3 C 0.34332(16) 0.41967(14) 0.44421(5)
H21_3 H 0.3575 0.3801 0.4523
C35_3 C 0.34231(15) 0.54330(14) 0.43902(4)
H22_3 H 0.3556 0.5885 0.4437
C36_3 C 0.09241(12) 0.34241(12) 0.3750
C37_3 C 0.30139(16) 0.53528(15) 0.42047(5)
H23_3 H 0.2873 0.5750 0.4124
O11_3 O 0.30346(8) 0.67968(9) 0.27481(3)
O12_3 O 0.18860(8) 0.67890(9) 0.27058(3)
O13_3 O 0.07133(9) 0.32120(10) 0.35665(3)
C38_3 C 0.20969(15) 0.48797(15) 0.35621(4)
C39_3 C 0.23592(13) 0.61368(13) 0.29928(4)
C40_3 C 0.21945(14) 0.53093(15) 0.33638(4)
C41_3 C 0.24350(11) 0.66054(12) 0.28008(4)
C42_3 C 0.15928(15) 0.43602(14) 0.35625(4)
H24_3 H 0.1331 0.4272 0.3434
C43_3 C 0.16184(15) 0.55191(17) 0.32440(5)
H25_3 H 0.1167 0.5380 0.3289
C44_3 C 0.16967(14) 0.59332(16) 0.30579(5)
H26_3 H 0.1301 0.6075 0.2977
C45_3 C 0.29330(14) 0.59231(15) 0.31098(4)
H27_3 H 0.3385 0.6056 0.3063
C46_3 C 0.28528(15) 0.55139(16) 0.32953(5)
H28_3 H 0.3250 0.5373 0.3376
Cu4_4 Cu 0.682936(17) 0.7500 0.252227(6)
Cu5_4 Cu 0.817064(17) 0.7500 0.247773(6)
Cu6_2 Cu 0.5000 0.067064(17) 0.502227(6)
Cu7_4 Cu 0.182936(17) 0.7500 0.247773(6)
Cu8_4 Cu 0.317064(17) 0.7500 0.252227(6)
Cu11_5 Cu 1.0000 0.2500 0.353286(8)
O20_3 O 0.92880(10) 0.17867(9) 0.39335(3)
O8_3 O 0.07032(9) 0.55346(8) 0.02481(3)
O9_3 O 0.07110(9) 0.43860(8) 0.02058(3)
O10 O 0.42880(10) 0.32133(9) 0.10665(3)
C26_4 C 0.25129(13) 0.49871(13) 0.1250
H18_4 H 0.2164 0.5336 0.1250
C27_4 C 0.26203(15) 0.45969(15) 0.10621(4)
C28_4 C 0.13632(13) 0.48592(13) 0.04928(4)
C29_4 C 0.21907(15) 0.46945(14) 0.08638(4)
C30_4 C 0.08946(12) 0.49350(11) 0.03008(4)
C31_4 C 0.35301(12) 0.39699(12) 0.1250
C32_4 C 0.31398(14) 0.40928(15) 0.10625(4)
H19_4 H 0.3228 0.3831 0.0934
C33_4 C 0.19809(17) 0.41184(15) 0.07440(5)
H20_4 H 0.2120 0.3667 0.0789
C34_4 C 0.15668(16) 0.41967(14) 0.05579(5)
H21_4 H 0.1425 0.3801 0.0477
C35_4 C 0.15769(15) 0.54330(14) 0.06098(4)
H22_4 H 0.1444 0.5885 0.0563
C36_4 C 0.40759(12) 0.34241(12) 0.1250
C37_4 C 0.19861(16) 0.53528(15) 0.07953(5)
H23_4 H 0.2127 0.5750 0.0876
O11_4 O 0.19654(8) 0.67968(9) 0.22519(3)
O12_4 O 0.31140(8) 0.67890(9) 0.22942(3)
O13_4 O 0.42867(9) 0.32120(10) 0.14335(3)
C38_4 C 0.29031(15) 0.48797(15) 0.14379(4)
C39_4 C 0.26408(13) 0.61368(13) 0.20072(4)
C40_4 C 0.28055(14) 0.53093(15) 0.16362(4)
C41_4 C 0.25650(11) 0.66054(12) 0.21992(4)
C42_4 C 0.34072(15) 0.43602(14) 0.14375(4)
H24_4 H 0.3669 0.4272 0.1566
C43_4 C 0.33816(15) 0.55191(17) 0.17560(5)
H25_4 H 0.3833 0.5380 0.1711
C44_4 C 0.33033(14) 0.59332(16) 0.19421(5)
H26_4 H 0.3699 0.6075 0.2023
C45_4 C 0.20670(14) 0.59231(15) 0.18902(4)
H27_4 H 0.1615 0.6056 0.1937
C46_4 C 0.21472(15) 0.55139(16) 0.17047(5)
H28_4 H 0.1750 0.5373 0.1624
Cu9 Cu 0.5000 0.2500 0.103286(8)
Cu10 Cu 0.5000 0.2500 0.146714(8)
N3_3 N 0.0000 0.67843(13) 0.00357(4)
N1_3 N -0.0000 0.32157(13) 0.99643(4)
C14_4 C 0.05804(16) 0.28571(16) 0.99624(8)
H9_4 H 0.1011 0.3097 0.9961
N2_4 N -0.0000 0.17843(13) 0.99643(4)
C16_4 C 0.05804(16) 0.21429(16) 0.99624(8)
H11_4 H 0.1011 0.1903 0.9961
O15_3 O 0.07032(9) 0.44654(8) 0.97519(3)
O17_3 O 0.07110(9) 0.56140(8) 0.97942(3)
O1_3 O 0.92968(9) 0.55346(8) 0.02481(3)
O2_3 O 0.92890(9) 0.43860(8) 0.02058(3)
O3_4 O 0.57120(10) 0.32133(9) 0.10665(3)
O4_6 O 0.5000 0.2500 0.06875(6)
H1_6 H 0.5000 0.2133 0.0610
C1_4 C 0.74871(13) 0.49871(13) 0.1250
H2_4 H 0.7836 0.5336 0.1250
C2_4 C 0.73797(15) 0.45969(15) 0.10621(4)
C3_4 C 0.86368(13) 0.48592(13) 0.04928(4)
C4_4 C 0.78093(15) 0.46945(14) 0.08638(4)
C5_4 C 0.91054(12) 0.49350(11) 0.03008(4)
C6_4 C 0.64699(12) 0.39699(12) 0.1250
C7_4 C 0.68602(14) 0.40928(15) 0.10625(4)
H3_4 H 0.6772 0.3831 0.0934
C8_4 C 0.80191(17) 0.41184(15) 0.07440(5)
H4_4 H 0.7880 0.3667 0.0789
C9_4 C 0.84332(16) 0.41967(14) 0.05579(5)
H5_4 H 0.8575 0.3801 0.0477
C10_4 C 0.84231(15) 0.54330(14) 0.06098(4)
H6_4 H 0.8556 0.5885 0.0563
C11_4 C 0.59241(12) 0.34241(12) 0.1250
C12_4 C 0.80139(16) 0.53528(15) 0.07953(5)
H7_4 H 0.7873 0.5750 0.0876
O5_4 O 0.80346(8) 0.67968(9) 0.22519(3)
O6_4 O 0.68860(8) 0.67890(9) 0.22942(3)
O7_4 O 0.57133(9) 0.32120(10) 0.14335(3)
C17_4 C 0.70969(15) 0.48797(15) 0.14379(4)
C18_4 C 0.73592(13) 0.61368(13) 0.20072(4)
C19_4 C 0.71945(14) 0.53093(15) 0.16362(4)
C20_4 C 0.74350(11) 0.66054(12) 0.21992(4)
C21_4 C 0.65928(15) 0.43602(14) 0.14375(4)
H12_4 H 0.6331 0.4272 0.1566
C22_4 C 0.66184(15) 0.55191(17) 0.17560(5)
H13_4 H 0.6167 0.5380 0.1711
C23_4 C 0.66967(14) 0.59332(16) 0.19421(5)
H14_4 H 0.6301 0.6075 0.2023
C24_4 C 0.79330(14) 0.59231(15) 0.18902(4)
H15_4 H 0.8385 0.6056 0.1937
C25_4 C 0.78528(15) 0.55139(16) 0.17047(5)
H16_4 H 0.8250 0.5373 0.1624
H17_6 H 0.5000 0.2867 0.0610
N3_4 N 1.0000 0.67843(13) 0.00357(4)
O18_4 O 0.42880(10) 0.17867(9) 0.10665(3)
O20_4 O 0.57120(10) 0.17867(9) 0.10665(3)
N1_4 N 1.0000 0.32157(13) 0.99643(4)
C13_4 C 0.94196(16) 0.28571(16) 0.99624(8)
H8_4 H 0.8989 0.3097 0.9961
N2_5 N 1.0000 0.17843(13) 0.99643(4)
C15_4 C 0.94196(16) 0.21429(16) 0.99624(8)
H10_4 H 0.8989 0.1903 0.9961
O10_2 O 0.57133(9) 0.17880(10) 0.14335(3)
C26_5 C 0.74871(13) 0.00129(13) 0.1250
C27_5 C 0.70969(15) 0.01203(15) 0.14379(4)
C31_5 C 0.64699(12) 0.10301(12) 0.1250
C32_5 C 0.65928(15) 0.06398(14) 0.14375(4)
H19_5 H 0.6331 0.0728 0.1566
C36_5 C 0.59241(12) 0.15759(12) 0.1250
O12_5 O 0.92890(9) 0.06140(8) 0.02058(3)
C38_5 C 0.73797(15) 0.04031(15) 0.10621(4)
C39_5 C 0.86368(13) 0.01408(13) 0.04928(4)
C40_5 C 0.78093(15) 0.03055(14) 0.08638(4)
C41_5 C 0.91054(12) 0.00650(11) 0.03008(4)
C42_5 C 0.68602(14) 0.09072(15) 0.10625(4)
H24_5 H 0.6772 0.1169 0.0934
C43_5 C 0.80191(17) 0.08816(15) 0.07440(5)
H25_5 H 0.7880 0.1333 0.0789
C44_5 C 0.84332(16) 0.08033(14) 0.05579(5)
H26_5 H 0.8575 0.1199 0.0477
N1_5 N 0.57157(13) 0.7500 0.25357(4)
O4_7 O 0.5000 0.2500 0.18125(6)
H1_7 H 0.4633 0.2500 0.1890
C13_5 C 0.53571(16) 0.69196(16) 0.25376(8)
H8_5 H 0.5597 0.6489 0.2539
C14_5 C 0.53571(16) 0.80804(16) 0.25376(8)
H9_5 H 0.5597 0.8511 0.2539
N2_6 N 0.42843(13) 0.7500 0.25357(4)
C15_5 C 0.46429(16) 0.69196(16) 0.25376(8)
H10_5 H 0.4403 0.6489 0.2539
C16_5 C 0.46429(16) 0.80804(16) 0.25376(8)
H11_5 H 0.4403 0.8511 0.2539
H17_7 H 0.5367 0.2500 0.1890
O8_4 O 0.80346(8) 0.82032(9) 0.22519(3)
O9_4 O 0.68860(8) 0.82110(9) 0.22942(3)
H18_5 H 0.7836 0.9664 0.1250
C28_5 C 0.73592(13) 0.88632(13) 0.20072(4)
C29_5 C 0.71945(14) 0.96907(15) 0.16362(4)
C30_5 C 0.74350(11) 0.83946(12) 0.21992(4)
C33_5 C 0.66184(15) 0.94809(17) 0.17560(5)
H20_5 H 0.6167 0.9620 0.1711
C34_5 C 0.66967(14) 0.90668(16) 0.19421(5)
H21_5 H 0.6301 0.8925 0.2023
C35_5 C 0.79330(14) 0.90769(15) 0.18902(4)
H22_5 H 0.8385 0.8944 0.1937
C37_5 C 0.78528(15) 0.94861(16) 0.17047(5)
H23_5 H 0.8250 0.9627 0.1624
O11_5 O 0.92968(9) 0.94654(8) 0.02481(3)
C45_5 C 0.84231(15) 0.95670(14) 0.06098(4)
H27_5 H 0.8556 0.9115 0.0563
C46_5 C 0.80139(16) 0.96472(15) 0.07953(5)
H28_5 H 0.7873 0.9250 0.0876
N3_5 N 0.92843(13) 0.7500 0.24643(4)
O15_4 O 0.69654(8) 0.82032(9) 0.27481(3)
O17_4 O 0.81140(8) 0.82110(9) 0.27058(3)
O18_5 O 0.42867(9) 0.17880(10) 0.14335(3)
O4_8 O 0.0000 0.7500 0.68125(6)
H1_8 H 0.0367 0.7500 0.6890
N2_7 N 0.07157(13) 0.2500 0.75357(4)
C15_6 C 0.03571(16) 0.30804(16) 0.75376(8)
H10_6 H 0.0597 0.3511 0.7539
C16_6 C 0.03571(16) 0.19196(16) 0.75376(8)
H11_6 H 0.0597 0.1489 0.7539
O18_6 O 0.07133(9) 0.82120(10) 0.64335(3)
O4_9 O 1.0000 0.7500 0.68125(6)
C13_6 C 0.96429(16) 0.30804(16) 0.75376(8)
H8_6 H 0.9403 0.3511 0.7539
C14_6 C 0.96429(16) 0.19196(16) 0.75376(8)
H9_6 H 0.9403 0.1489 0.7539
H17_8 H 0.9633 0.7500 0.6890
H18_6 H 0.7164 0.0336 0.6250
C28_6 C 0.76408(13) 0.11368(13) 0.70072(4)
C29_6 C 0.78055(14) 0.03093(15) 0.66362(4)
C30_6 C 0.75650(11) 0.16054(12) 0.71992(4)
C33_6 C 0.83816(15) 0.05191(17) 0.67560(5)
H20_6 H 0.8833 0.0380 0.6711
C34_6 C 0.83033(14) 0.09332(16) 0.69421(5)
H21_6 H 0.8699 0.1075 0.7023
C35_6 C 0.70670(14) 0.09231(15) 0.68902(4)
H22_6 H 0.6615 0.1056 0.6937
C37_6 C 0.71472(15) 0.05139(16) 0.67047(5)
H23_6 H 0.6750 0.0373 0.6624
O11_6 O 0.57032(9) 0.05346(8) 0.52481(3)
C45_6 C 0.65769(15) 0.04330(14) 0.56098(4)
H27_6 H 0.6444 0.0885 0.5563
C46_6 C 0.69861(16) 0.03528(15) 0.57953(5)
H28_6 H 0.7127 0.0750 0.5876
O19_4 O 0.92867(9) 0.82120(10) 0.64335(3)
C26_6 C 0.75129(13) 0.99871(13) 0.6250
C27_6 C 0.79031(15) 0.98797(15) 0.64379(4)
C31_6 C 0.85301(12) 0.89699(12) 0.6250
C32_6 C 0.84072(15) 0.93602(14) 0.64375(4)
H19_6 H 0.8669 0.9272 0.6566
C36_6 C 0.90759(12) 0.84241(12) 0.6250
O12_6 O 0.57110(9) 0.93860(8) 0.52058(3)
C38_6 C 0.76203(15) 0.95969(15) 0.60621(4)
C39_6 C 0.63632(13) 0.98592(13) 0.54928(4)
C40_6 C 0.71907(15) 0.96945(14) 0.58638(4)
C41_6 C 0.58946(12) 0.99350(11) 0.53008(4)
C42_6 C 0.81398(14) 0.90928(15) 0.60625(4)
H24_6 H 0.8228 0.8831 0.5934
C43_6 C 0.69809(17) 0.91184(15) 0.57440(5)
H25_6 H 0.7120 0.8667 0.5789
C44_6 C 0.65668(16) 0.91967(14) 0.55579(5)
H26_6 H 0.6425 0.8801 0.5477
O4_10 O 0.0000 0.2500 0.31875(6)
H1_9 H 0.0367 0.2500 0.3110
N2_8 N 0.07157(13) 0.7500 0.24643(4)
C15_7 C 0.03571(16) 0.69196(16) 0.24624(8)
H10_7 H 0.0597 0.6489 0.2461
C16_7 C 0.03571(16) 0.80804(16) 0.24624(8)
H11_7 H 0.0597 0.8511 0.2461
O18_7 O 0.07133(9) 0.17880(10) 0.35665(3)
O10_3 O 0.92867(9) 0.17880(10) 0.35665(3)
C26_7 C 0.75129(13) 0.00129(13) 0.3750
C27_7 C 0.79031(15) 0.01203(15) 0.35621(4)
C31_7 C 0.85301(12) 0.10301(12) 0.3750
C32_7 C 0.84072(15) 0.06398(14) 0.35625(4)
H19_7 H 0.8669 0.0728 0.3434
C36_7 C 0.90759(12) 0.15759(12) 0.3750
O12_7 O 0.57110(9) 0.06140(8) 0.47942(3)
C38_7 C 0.76203(15) 0.04031(15) 0.39379(4)
C39_7 C 0.63632(13) 0.01408(13) 0.45072(4)
C40_7 C 0.71907(15) 0.03055(14) 0.41362(4)
C41_7 C 0.58946(12) 0.00650(11) 0.46992(4)
C42_7 C 0.81398(14) 0.09072(15) 0.39375(4)
H24_7 H 0.8228 0.1169 0.4066
C43_7 C 0.69809(17) 0.08816(15) 0.42560(5)
H25_7 H 0.7120 0.1333 0.4211
C44_7 C 0.65668(16) 0.08033(14) 0.44421(5)
H26_7 H 0.6425 0.1199 0.4523
O4_11 O 1.0000 0.2500 0.31875(6)
C13_7 C 0.96429(16) 0.69196(16) 0.24624(8)
H8_7 H 0.9403 0.6489 0.2461
C14_7 C 0.96429(16) 0.80804(16) 0.24624(8)
H9_7 H 0.9403 0.8511 0.2461
H17_9 H 0.9633 0.2500 0.3110
H18_7 H 0.7164 0.9664 0.3750
C28_7 C 0.76408(13) 0.88632(13) 0.29928(4)
C29_7 C 0.78055(14) 0.96907(15) 0.33638(4)
C30_7 C 0.75650(11) 0.83946(12) 0.28008(4)
C33_7 C 0.83816(15) 0.94809(17) 0.32440(5)
H20_7 H 0.8833 0.9620 0.3289
C34_7 C 0.83033(14) 0.90668(16) 0.30579(5)
H21_7 H 0.8699 0.8925 0.2977
C35_7 C 0.70670(14) 0.90769(15) 0.31098(4)
H22_7 H 0.6615 0.8944 0.3063
C37_7 C 0.71472(15) 0.94861(16) 0.32953(5)
H23_7 H 0.6750 0.9627 0.3376
O11_7 O 0.57032(9) 0.94654(8) 0.47519(3)
C45_7 C 0.65769(15) 0.95670(14) 0.43902(4)
H27_7 H 0.6444 0.9115 0.4437
C46_7 C 0.69861(16) 0.96472(15) 0.42047(5)
H28_7 H 0.7127 0.9250 0.4124
C14_8 C 0.05804(16) 0.71429(16) 0.00376(8)
H9_8 H 0.1011 0.6903 0.0039
N2_9 N -0.0000 0.82157(13) 0.00357(4)
C16_8 C 0.05804(16) 0.78571(16) 0.00376(8)
H11_8 H 0.1011 0.8097 0.0039
O10_4 O 0.42880(10) 0.67867(9) 0.89335(3)
C26_8 C 0.25129(13) 0.50129(13) 0.8750
H18_8 H 0.2164 0.4664 0.8750
C27_8 C 0.26203(15) 0.54031(15) 0.89379(4)
C28_8 C 0.13632(13) 0.51408(13) 0.95072(4)
C29_8 C 0.21907(15) 0.53055(14) 0.91362(4)
C30_8 C 0.08946(12) 0.50650(11) 0.96992(4)
C31_8 C 0.35301(12) 0.60301(12) 0.8750
C32_8 C 0.31398(14) 0.59072(15) 0.89375(4)
H19_8 H 0.3228 0.6169 0.9066
C33_8 C 0.19809(17) 0.58816(15) 0.92560(5)
H20_8 H 0.2120 0.6333 0.9211
C34_8 C 0.15668(16) 0.58033(14) 0.94421(5)
H21_8 H 0.1425 0.6199 0.9523
C35_8 C 0.15769(15) 0.45670(14) 0.93902(4)
H22_8 H 0.1444 0.4115 0.9437
C36_8 C 0.40759(12) 0.65759(12) 0.8750
C37_8 C 0.19861(16) 0.46472(15) 0.92047(5)
H23_8 H 0.2127 0.4250 0.9124
O11_8 O 0.19654(8) 0.32032(9) 0.77481(3)
O12_8 O 0.31140(8) 0.32110(9) 0.77058(3)
C38_8 C 0.29031(15) 0.51203(15) 0.85621(4)
C39_8 C 0.26408(13) 0.38632(13) 0.79928(4)
C40_8 C 0.28055(14) 0.46907(15) 0.83638(4)
C41_8 C 0.25650(11) 0.33946(12) 0.78008(4)
C42_8 C 0.34072(15) 0.56398(14) 0.85625(4)
H24_8 H 0.3669 0.5728 0.8434
C43_8 C 0.33816(15) 0.44809(17) 0.82440(5)
H25_8 H 0.3833 0.4620 0.8289
C44_8 C 0.33033(14) 0.40668(16) 0.80579(5)
H26_8 H 0.3699 0.3925 0.7977
C45_8 C 0.20670(14) 0.40769(15) 0.81098(4)
H27_8 H 0.1615 0.3944 0.8063
C46_8 C 0.21472(15) 0.44861(16) 0.82953(5)
H28_8 H 0.1750 0.4627 0.8376
C13_8 C 0.94196(16) 0.71429(16) 0.00376(8)
H8_8 H 0.8989 0.6903 0.0039
N2_10 N 1.0000 0.82157(13) 0.00357(4)
C15_8 C 0.94196(16) 0.78571(16) 0.00376(8)
H10_8 H 0.8989 0.8097 0.0039
O4_12 O 0.5000 0.7500 0.93125(6)
H1_10 H 0.5000 0.7867 0.9390
H17_10 H 0.5000 0.7133 0.9390
O18_8 O 0.42880(10) 0.82133(9) 0.89335(3)
O2_4 O 0.07110(9) 0.06140(8) 0.02058(3)
C1_5 C 0.25129(13) 0.00129(13) 0.1250
C2_5 C 0.26203(15) 0.04031(15) 0.10621(4)
C3_5 C 0.13632(13) 0.01408(13) 0.04928(4)
C4_5 C 0.21907(15) 0.03055(14) 0.08638(4)
C5_5 C 0.08946(12) 0.00650(11) 0.03008(4)
C6_5 C 0.35301(12) 0.10301(12) 0.1250
C7_5 C 0.31398(14) 0.09072(15) 0.10625(4)
H3_5 H 0.3228 0.1169 0.0934
C8_5 C 0.19809(17) 0.08816(15) 0.07440(5)
H4_5 H 0.2120 0.1333 0.0789
C9_5 C 0.15668(16) 0.08033(14) 0.05579(5)
H5_5 H 0.1425 0.1199 0.0477
C11_5 C 0.40759(12) 0.15759(12) 0.1250
C17_5 C 0.29031(15) 0.01203(15) 0.14379(4)
C21_5 C 0.34072(15) 0.06398(14) 0.14375(4)
H12_5 H 0.3669 0.0728 0.1566
O14_2 O 0.07032(9) 0.05346(8) 0.97519(3)
O1_4 O 0.07032(9) 0.94654(8) 0.02481(3)
H2_5 H 0.2164 0.9664 0.1250
C10_5 C 0.15769(15) 0.95670(14) 0.06098(4)
H6_5 H 0.1444 0.9115 0.0563
C12_5 C 0.19861(16) 0.96472(15) 0.07953(5)
H7_5 H 0.2127 0.9250 0.0876
O5_5 O 0.19654(8) 0.82032(9) 0.22519(3)
O6_5 O 0.31140(8) 0.82110(9) 0.22942(3)
C18_5 C 0.26408(13) 0.88632(13) 0.20072(4)
C19_5 C 0.28055(14) 0.96907(15) 0.16362(4)
C20_5 C 0.25650(11) 0.83946(12) 0.21992(4)
C22_5 C 0.33816(15) 0.94809(17) 0.17560(5)
H13_5 H 0.3833 0.9620 0.1711
C23_5 C 0.33033(14) 0.90668(16) 0.19421(5)
H14_5 H 0.3699 0.8925 0.2023
C24_5 C 0.20670(14) 0.90769(15) 0.18902(4)
H15_5 H 0.1615 0.8944 0.1937
C25_5 C 0.21472(15) 0.94861(16) 0.17047(5)
H16_5 H 0.1750 0.9627 0.1624
O16_2 O 0.07110(9) 0.93860(8) 0.97942(3)
C1_6 C 0.24871(13) 0.00129(13) 0.3750
C2_6 C 0.20969(15) 0.01203(15) 0.35621(4)
C6_6 C 0.14699(12) 0.10301(12) 0.3750
C7_6 C 0.15928(15) 0.06398(14) 0.35625(4)
H3_6 H 0.1331 0.0728 0.3434
C11_6 C 0.09241(12) 0.15759(12) 0.3750
O6_6 O 0.42890(9) 0.06140(8) 0.47942(3)
C17_6 C 0.23797(15) 0.04031(15) 0.39379(4)
C18_6 C 0.36368(13) 0.01408(13) 0.45072(4)
C19_6 C 0.28093(15) 0.03055(14) 0.41362(4)
C20_6 C 0.41054(12) 0.00650(11) 0.46992(4)
C21_6 C 0.18602(14) 0.09072(15) 0.39375(4)
H12_6 H 0.1772 0.1169 0.4066
C22_6 C 0.30191(17) 0.08816(15) 0.42560(5)
H13_6 H 0.2880 0.1333 0.4211
C23_6 C 0.34332(16) 0.08033(14) 0.44421(5)
H14_6 H 0.3575 0.1199 0.4523
O1_5 O 0.30346(8) 0.82032(9) 0.27481(3)
O2_5 O 0.18860(8) 0.82110(9) 0.27058(3)
H2_6 H 0.2836 0.9664 0.3750
C3_6 C 0.23592(13) 0.88632(13) 0.29928(4)
C4_6 C 0.21945(14) 0.96907(15) 0.33638(4)
C5_6 C 0.24350(11) 0.83946(12) 0.28008(4)
C8_6 C 0.16184(15) 0.94809(17) 0.32440(5)
H4_6 H 0.1167 0.9620 0.3289
C9_6 C 0.16967(14) 0.90668(16) 0.30579(5)
H5_6 H 0.1301 0.8925 0.2977
C10_6 C 0.29330(14) 0.90769(15) 0.31098(4)
H6_6 H 0.3385 0.8944 0.3063
C12_6 C 0.28528(15) 0.94861(16) 0.32953(5)
H7_6 H 0.3250 0.9627 0.3376
O5_6 O 0.42968(9) 0.94654(8) 0.47519(3)
C24_6 C 0.34231(15) 0.95670(14) 0.43902(4)
H15_6 H 0.3556 0.9115 0.4437
C25_6 C 0.30139(16) 0.96472(15) 0.42047(5)
H16_6 H 0.2873 0.9250 0.4124
H2_7 H 0.2164 0.0336 0.8750
C10_7 C 0.15769(15) 0.04330(14) 0.93902(4)
H6_7 H 0.1444 0.0885 0.9437
C12_7 C 0.19861(16) 0.03528(15) 0.92047(5)
H7_7 H 0.2127 0.0750 0.9124
O5_7 O 0.19654(8) 0.17968(9) 0.77481(3)
O6_7 O 0.31140(8) 0.17890(9) 0.77058(3)
C18_7 C 0.26408(13) 0.11368(13) 0.79928(4)
C19_7 C 0.28055(14) 0.03093(15) 0.83638(4)
C20_7 C 0.25650(11) 0.16054(12) 0.78008(4)
C22_7 C 0.33816(15) 0.05191(17) 0.82440(5)
H13_7 H 0.3833 0.0380 0.8289
C23_7 C 0.33033(14) 0.09332(16) 0.80579(5)
H14_7 H 0.3699 0.1075 0.7977
C24_7 C 0.20670(14) 0.09231(15) 0.81098(4)
H15_7 H 0.1615 0.1056 0.8063
C25_7 C 0.21472(15) 0.05139(16) 0.82953(5)
H16_7 H 0.1750 0.0373 0.8376
C1_7 C 0.25129(13) 0.99871(13) 0.8750
C2_7 C 0.26203(15) 0.95969(15) 0.89379(4)
C3_7 C 0.13632(13) 0.98592(13) 0.95072(4)
C4_7 C 0.21907(15) 0.96945(14) 0.91362(4)
C5_7 C 0.08946(12) 0.99350(11) 0.96992(4)
C6_7 C 0.35301(12) 0.89699(12) 0.8750
C7_7 C 0.31398(14) 0.90928(15) 0.89375(4)
H3_7 H 0.3228 0.8831 0.9066
C8_7 C 0.19809(17) 0.91184(15) 0.92560(5)
H4_7 H 0.2120 0.8667 0.9211
C9_7 C 0.15668(16) 0.91967(14) 0.94421(5)
H5_7 H 0.1425 0.8801 0.9523
C11_7 C 0.40759(12) 0.84241(12) 0.8750
C17_7 C 0.29031(15) 0.98797(15) 0.85621(4)
C21_7 C 0.34072(15) 0.93602(14) 0.85625(4)
H12_7 H 0.3669 0.9272 0.8434
O1_6 O 0.42968(9) 0.05346(8) 0.52481(3)
H2_8 H 0.2836 0.0336 0.6250
C10_8 C 0.34231(15) 0.04330(14) 0.56098(4)
H6_8 H 0.3556 0.0885 0.5563
C12_8 C 0.30139(16) 0.03528(15) 0.57953(5)
H7_8 H 0.2873 0.0750 0.5876
O5_8 O 0.30346(8) 0.17968(9) 0.72519(3)
O6_8 O 0.18860(8) 0.17890(9) 0.72942(3)
C18_8 C 0.23592(13) 0.11368(13) 0.70072(4)
C19_8 C 0.21945(14) 0.03093(15) 0.66362(4)
C20_8 C 0.24350(11) 0.16054(12) 0.71992(4)
C22_8 C 0.16184(15) 0.05191(17) 0.67560(5)
H13_8 H 0.1167 0.0380 0.6711
C23_8 C 0.16967(14) 0.09332(16) 0.69421(5)
H14_8 H 0.1301 0.1075 0.7023
C24_8 C 0.29330(14) 0.09231(15) 0.68902(4)
H15_8 H 0.3385 0.1056 0.6937
C25_8 C 0.28528(15) 0.05139(16) 0.67047(5)
H16_8 H 0.3250 0.0373 0.6624
O2_6 O 0.42890(9) 0.93860(8) 0.52058(3)
C1_8 C 0.24871(13) 0.99871(13) 0.6250
C2_8 C 0.23797(15) 0.95969(15) 0.60621(4)
C3_8 C 0.36368(13) 0.98592(13) 0.54928(4)
C4_8 C 0.28093(15) 0.96945(14) 0.58638(4)
C5_8 C 0.41054(12) 0.99350(11) 0.53008(4)
C6_8 C 0.14699(12) 0.89699(12) 0.6250
C7_8 C 0.18602(14) 0.90928(15) 0.60625(4)
H3_8 H 0.1772 0.8831 0.5934
C8_8 C 0.30191(17) 0.91184(15) 0.57440(5)
H4_8 H 0.2880 0.8667 0.5789
C9_8 C 0.34332(16) 0.91967(14) 0.55579(5)
H5_8 H 0.3575 0.8801 0.5477
C11_8 C 0.09241(12) 0.84241(12) 0.6250
C17_8 C 0.20969(15) 0.98797(15) 0.64379(4)
C21_8 C 0.15928(15) 0.93602(14) 0.64375(4)
H12_8 H 0.1331 0.9272 0.6566
loop_
_geom_bond_atom_site_label_1
_geom_bond_atom_site_label_2
_geom_bond_site_symmetry_1
_geom_bond_site_symmetry_2
O4 Cu2 1_555 1_555
H1 O4 1_555 1_555
H17 O4 1_555 1_555
Cu11 Cu2 1_555 1_555
O18 Cu2 1_555 1_555
O19 Cu2 1_555 1_555
Cu1 N1 1_555 1_555
Cu2_2 O3 1_555 1_555
N1 C13 1_555 1_555
O1 C5 1_555 1_555
O2 Cu1 1_555 1_555
O3 C11 1_555 1_555
O4_2 Cu2_2 1_555 1_555
H1_2 O4_2 1_555 1_555
C1 H2 1_555 1_555
C2 C1 1_555 1_555
C3 C5 1_555 1_555
C4 C2 1_555 1_555
C5 O2 1_555 1_555
C6 C7 1_555 1_555
C7 C2 1_555 1_555
H3 C7 1_555 1_555
C8 C4 1_555 1_555
H4 C8 1_555 1_555
C9 C3 1_555 1_555
H5 C9 1_555 1_555
C10 C3 1_555 1_555
H6 C10 1_555 1_555
C11 C6 1_555 1_555
C12 C4 1_555 1_555
H7 C12 1_555 1_555
C13 H8 1_555 1_555
C14 N1 1_555 1_555
H9 C14 1_555 1_555
N2 C15 1_555 1_555
C15 C13 1_555 1_555
H10 C15 1_555 1_555
C16 C14 1_555 1_555
H11 C16 1_555 1_555
O5 C20 1_555 1_555
O6 C20 1_555 1_555
O7 C11 1_555 1_555
C17 C1 1_555 1_555
C18 C20 1_555 1_555
C19 C17 1_555 1_555
C21 C6 1_555 1_555
H12 C21 1_555 1_555
C22 C19 1_555 1_555
H13 C22 1_555 1_555
C23 C18 1_555 1_555
H14 C23 1_555 1_555
C24 C18 1_555 1_555
H15 C24 1_555 1_555
C25 C19 1_555 1_555
H16 C25 1_555 1_555
H17_2 O4_2 1_555 1_555
Cu3 Cu1 1_555 1_555
O8 Cu3 1_555 1_555
O9 Cu1 1_555 1_555
O19 C36 1_555 1_555
C26 H18 1_555 1_555
C27 C26 1_555 1_555
C28 C30 1_555 1_555
C29 C27 1_555 1_555
C30 O8 1_555 1_555
C31 C32 1_555 1_555
C32 C27 1_555 1_555
H19 C32 1_555 1_555
C33 C29 1_555 1_555
H20 C33 1_555 1_555
C34 C28 1_555 1_555
H21 C34 1_555 1_555
C35 C28 1_555 1_555
H22 C35 1_555 1_555
C36 C31 1_555 1_555
C37 C29 1_555 1_555
H23 C37 1_555 1_555
O11 C41 1_555 1_555
O12 C41 1_555 1_555
O13 C36 1_555 1_555
C38 C26 1_555 1_555
C39 C41 1_555 1_555
C40 C38 1_555 1_555
C42 C31 1_555 1_555
H24 C42 1_555 1_555
C43 C40 1_555 1_555
H25 C43 1_555 1_555
C44 C39 1_555 1_555
H26 C44 1_555 1_555
C45 C39 1_555 1_555
H27 C45 1_555 1_555
C46 C40 1_555 1_555
H28 C46 1_555 1_555
Cu4 O5 1_555 1_555
Cu5 O6 1_555 1_555
Cu6 N2 1_555 1_555
Cu7 O12 1_555 1_555
Cu8 O11 1_555 1_555
Cu11 O13 1_555 1_555
Cu11_2 Cu2_2 1_555 1_555
N3 Cu3 1_555 1_555
O14 Cu1 1_555 1_555
O15 Cu1 1_555 1_555
O16 Cu3 1_555 1_555
O17 Cu3 1_555 1_555
O20 Cu2_2 1_555 1_555
O1 Cu3 1_555 1_555
C8 C9 1_555 1_555
C10 C12 1_555 1_555
N2 C16 1_555 1_555
O7 Cu11_2 1_555 1_555
C17 C21 1_555 1_555
C22 C23 1_555 1_555
C24 C25 1_555 1_555
O9 C30 1_555 1_555
C33 C34 1_555 1_555
C35 C37 1_555 1_555
C38 C42 1_555 1_555
C43 C44 1_555 1_555
C45 C46 1_555 1_555
Cu4 Cu5 1_555 1_555
Cu7 Cu8 1_555 1_555
Cu4 N1_2 1_555 1_555
Cu2_3 O3_2 1_555 1_555
N1_2 C13_2 1_555 1_555
O1_2 C5_2 1_555 1_555
O2_2 Cu4 1_555 1_555
O3_2 C11_2 1_555 1_555
O4_3 Cu2_3 1_555 1_555
H1_3 O4_3 1_555 1_555
C1_2 H2_2 1_555 1_555
C2_2 C1_2 1_555 1_555
C3_2 C5_2 1_555 1_555
C4_2 C2_2 1_555 1_555
C5_2 O2_2 1_555 1_555
C6_2 C7_2 1_555 1_555
C7_2 C2_2 1_555 1_555
H3_2 C7_2 1_555 1_555
C8_2 C4_2 1_555 1_555
H4_2 C8_2 1_555 1_555
C9_2 C3_2 1_555 1_555
H5_2 C9_2 1_555 1_555
C10_2 C3_2 1_555 1_555
H6_2 C10_2 1_555 1_555
C11_2 C6_2 1_555 1_555
C12_2 C4_2 1_555 1_555
H7_2 C12_2 1_555 1_555
C13_2 H8_2 1_555 1_555
C14_2 N1_2 1_555 1_555
H9_2 C14_2 1_555 1_555
N2_2 C15_2 1_555 1_555
C15_2 C13_2 1_555 1_555
H10_2 C15_2 1_555 1_555
C16_2 C14_2 1_555 1_555
H11_2 C16_2 1_555 1_555
O5_2 C20_2 1_555 1_555
O6_2 C20_2 1_555 1_555
O7_2 C11_2 1_555 1_555
C17_2 C1_2 1_555 1_555
C18_2 C20_2 1_555 1_555
C19_2 C17_2 1_555 1_555
C21_2 C6_2 1_555 1_555
H12_2 C21_2 1_555 1_555
C22_2 C19_2 1_555 1_555
H13_2 C22_2 1_555 1_555
C23_2 C18_2 1_555 1_555
H14_2 C23_2 1_555 1_555
C24_2 C18_2 1_555 1_555
H15_2 C24_2 1_555 1_555
C25_2 C19_2 1_555 1_555
H16_2 C25_2 1_555 1_555
H17_3 O4_3 1_555 1_555
O8_2 Cu5 1_555 1_555
O9_2 Cu4 1_555 1_555
C28_2 C30_2 1_555 1_555
C30_2 O8_2 1_555 1_555
C33_2 C29_2 1_555 1_555
H20_2 C33_2 1_555 1_555
C34_2 C28_2 1_555 1_555
H21_2 C34_2 1_555 1_555
C35_2 C28_2 1_555 1_555
H22_2 C35_2 1_555 1_555
C37_2 C29_2 1_555 1_555
H23_2 C37_2 1_555 1_555
H27_2 C45_2 1_555 1_555
H28_2 C46_2 1_555 1_555
Cu4_3 O5_2 1_555 1_555
Cu8 N2_2 1_555 1_555
Cu8_3 O11_2 1_555 1_555
Cu11_3 Cu2_3 1_555 1_555
N3_2 Cu5 1_555 1_555
O15_2 Cu4 1_555 1_555
O17_2 Cu5 1_555 1_555
O18_2 Cu2_3 1_555 1_555
O19_2 Cu2_3 1_555 1_555
O20_2 Cu2_3 1_555 1_555
O1_2 Cu5 1_555 1_555
C8_2 C9_2 1_555 1_555
C10_2 C12_2 1_555 1_555
N2_2 C16_2 1_555 1_555
O7_2 Cu11_3 1_555 1_555
C17_2 C21_2 1_555 1_555
C22_2 C23_2 1_555 1_555
C24_2 C25_2 1_555 1_555
O9_2 C30_2 1_555 1_555
C33_2 C34_2 1_555 1_555
C35_2 C37_2 1_555 1_555
C45_2 C46_2 1_555 1_555
O19_2 C36_2 1_555 1_555
C27_2 C26_2 1_555 1_555
C31_2 C32_2 1_555 1_555
C32_2 C27_2 1_555 1_555
H19_2 C32_2 1_555 1_555
C36_2 C31_2 1_555 1_555
O12_2 C41_2 1_555 1_555
O13_2 C36_2 1_555 1_555
C38_2 C26_2 1_555 1_555
C39_2 C41_2 1_555 1_555
C40_2 C38_2 1_555 1_555
C42_2 C31_2 1_555 1_555
H24_2 C42_2 1_555 1_555
C43_2 C40_2 1_555 1_555
H25_2 C43_2 1_555 1_555
C44_2 C39_2 1_555 1_555
H26_2 C44_2 1_555 1_555
Cu11_3 O13_2 1_555 1_555
C38_2 C42_2 1_555 1_555
C43_2 C44_2 1_555 1_555
O4_4 Cu2_4 1_555 1_555
H1_4 O4_4 1_555 1_555
H17_4 O4_4 1_555 1_555
Cu11_4 Cu2_4 1_555 1_555
O18_3 Cu2_4 1_555 1_555
O19_3 Cu2_4 1_555 1_555
Cu2_5 O3_3 1_555 1_555
N3 C13_3 1_555 1_555
O14 C5_3 1_555 1_555
O3_3 C11_3 1_555 1_555
O4_5 Cu2_5 1_555 1_555
H1_5 O4_5 1_555 1_555
C1_3 H2_3 1_555 1_555
C2_3 C1_3 1_555 1_555
C3_3 C5_3 1_555 1_555
C4_3 C2_3 1_555 1_555
C5_3 O16 1_555 1_555
C6_3 C7_3 1_555 1_555
C7_3 C2_3 1_555 1_555
H3_3 C7_3 1_555 1_555
C8_3 C4_3 1_555 1_555
H4_3 C8_3 1_555 1_555
C9_3 C3_3 1_555 1_555
H5_3 C9_3 1_555 1_555
C10_3 C3_3 1_555 1_555
H6_3 C10_3 1_555 1_555
C11_3 C6_3 1_555 1_555
C12_3 C4_3 1_555 1_555
H7_3 C12_3 1_555 1_555
C13_3 H8_3 1_555 1_555
C14_3 N3 1_555 1_555
H9_3 C14_3 1_555 1_555
N2_3 C15_3 1_555 1_555
C15_3 C13_3 1_555 1_555
H10_3 C15_3 1_555 1_555
C16_3 C14_3 1_555 1_555
H11_3 C16_3 1_555 1_555
O5_3 C20_3 1_555 1_555
O6_3 C20_3 1_555 1_555
O7_3 C11_3 1_555 1_555
C17_3 C1_3 1_555 1_555
C18_3 C20_3 1_555 1_555
C19_3 C17_3 1_555 1_555
C21_3 C6_3 1_555 1_555
H12_3 C21_3 1_555 1_555
C22_3 C19_3 1_555 1_555
H13_3 C22_3 1_555 1_555
C23_3 C18_3 1_555 1_555
H14_3 C23_3 1_555 1_555
C24_3 C18_3 1_555 1_555
H15_3 C24_3 1_555 1_555
C25_3 C19_3 1_555 1_555
H16_3 C25_3 1_555 1_555
H17_5 O4_5 1_555 1_555
O19_3 C36_3 1_555 1_555
C26_3 H18_3 1_555 1_555
C27_3 C26_3 1_555 1_555
C28_3 C30_3 1_555 1_555
C29_3 C27_3 1_555 1_555
C30_3 O15 1_555 1_555
C31_3 C32_3 1_555 1_555
C32_3 C27_3 1_555 1_555
H19_3 C32_3 1_555 1_555
C33_3 C29_3 1_555 1_555
H20_3 C33_3 1_555 1_555
C34_3 C28_3 1_555 1_555
H21_3 C34_3 1_555 1_555
C35_3 C28_3 1_555 1_555
H22_3 C35_3 1_555 1_555
C36_3 C31_3 1_555 1_555
C37_3 C29_3 1_555 1_555
H23_3 C37_3 1_555 1_555
O11_3 C41_3 1_555 1_555
O12_3 C41_3 1_555 1_555
O13_3 C36_3 1_555 1_555
C38_3 C26_3 1_555 1_555
C39_3 C41_3 1_555 1_555
C40_3 C38_3 1_555 1_555
C42_3 C31_3 1_555 1_555
H24_3 C42_3 1_555 1_555
C43_3 C40_3 1_555 1_555
H25_3 C43_3 1_555 1_555
C44_3 C39_3 1_555 1_555
H26_3 C44_3 1_555 1_555
C45_3 C39_3 1_555 1_555
H27_3 C45_3 1_555 1_555
C46_3 C40_3 1_555 1_555
H28_3 C46_3 1_555 1_555
Cu4_4 O5_3 1_555 1_555
Cu5_4 O6_3 1_555 1_555
Cu6_2 N2_3 1_555 1_555
Cu7_4 O12_3 1_555 1_555
Cu8_4 O11_3 1_555 1_555
Cu11_4 O13_3 1_555 1_555
Cu11_5 Cu2_5 1_555 1_555
O20_3 Cu2_5 1_555 1_555
C8_3 C9_3 1_555 1_555
C10_3 C12_3 1_555 1_555
N2_3 C16_3 1_555 1_555
O7_3 Cu11_5 1_555 1_555
C17_3 C21_3 1_555 1_555
C22_3 C23_3 1_555 1_555
C24_3 C25_3 1_555 1_555
O17 C30_3 1_555 1_555
C33_3 C34_3 1_555 1_555
C35_3 C37_3 1_555 1_555
C38_3 C42_3 1_555 1_555
C43_3 C44_3 1_555 1_555
C45_3 C46_3 1_555 1_555
Cu4_4 Cu5_4 1_555 1_555
Cu7_4 Cu8_4 1_555 1_555
O8_3 Cu5_2 1_555 1_555
O10 C36_4 1_555 1_555
C26_4 H18_4 1_555 1_555
C27_4 C26_4 1_555 1_555
C28_4 C30_4 1_555 1_555
C29_4 C27_4 1_555 1_555
C30_4 O8_3 1_555 1_555
C31_4 C32_4 1_555 1_555
C32_4 C27_4 1_555 1_555
H19_4 C32_4 1_555 1_555
C33_4 C29_4 1_555 1_555
H20_4 C33_4 1_555 1_555
C34_4 C28_4 1_555 1_555
H21_4 C34_4 1_555 1_555
C35_4 C28_4 1_555 1_555
H22_4 C35_4 1_555 1_555
C36_4 C31_4 1_555 1_555
C37_4 C29_4 1_555 1_555
H23_4 C37_4 1_555 1_555
O11_4 C41_4 1_555 1_555
O12_4 C41_4 1_555 1_555
O13_4 C36_4 1_555 1_555
C38_4 C26_4 1_555 1_555
C39_4 C41_4 1_555 1_555
C40_4 C38_4 1_555 1_555
C42_4 C31_4 1_555 1_555
H24_4 C42_4 1_555 1_555
C43_4 C40_4 1_555 1_555
H25_4 C43_4 1_555 1_555
C44_4 C39_4 1_555 1_555
H26_4 C44_4 1_555 1_555
C45_4 C39_4 1_555 1_555
H27_4 C45_4 1_555 1_555
C46_4 C40_4 1_555 1_555
H28_4 C46_4 1_555 1_555
Cu8_4 O12_4 1_555 1_555
Cu7_4 O11_4 1_555 1_555
Cu9 O10 1_555 1_555
Cu10 O13_4 1_555 1_555
N3_3 Cu5_2 1_555 1_555
O9_3 C30_4 1_555 1_555
C33_4 C34_4 1_555 1_555
C35_4 C37_4 1_555 1_555
C38_4 C42_4 1_555 1_555
C43_4 C44_4 1_555 1_555
C45_4 C46_4 1_555 1_555
Cu9 Cu10 1_555 1_555
Cu4_2 N1_3 1_555 1_555
C14_4 N1_3 1_555 1_555
H9_4 C14_4 1_555 1_555
C16_4 C14_4 1_555 1_555
H11_4 C16_4 1_555 1_555
Cu8_2 N2_4 1_555 1_555
O15_3 Cu4_2 1_555 1_555
N2_4 C16_4 1_555 1_555
Cu9 O3_4 1_555 1_555
O1_3 C5_4 1_555 1_555
O3_4 C11_4 1_555 1_555
O4_6 Cu9 1_555 1_555
H1_6 O4_6 1_555 1_555
C1_4 H2_4 1_555 1_555
C2_4 C1_4 1_555 1_555
C3_4 C5_4 1_555 1_555
C4_4 C2_4 1_555 1_555
C5_4 O2_3 1_555 1_555
C6_4 C7_4 1_555 1_555
C7_4 C2_4 1_555 1_555
H3_4 C7_4 1_555 1_555
C8_4 C4_4 1_555 1_555
H4_4 C8_4 1_555 1_555
C9_4 C3_4 1_555 1_555
H5_4 C9_4 1_555 1_555
C10_4 C3_4 1_555 1_555
H6_4 C10_4 1_555 1_555
C11_4 C6_4 1_555 1_555
C12_4 C4_4 1_555 1_555
H7_4 C12_4 1_555 1_555
O5_4 C20_4 1_555 1_555
O6_4 C20_4 1_555 1_555
O7_4 C11_4 1_555 1_555
C17_4 C1_4 1_555 1_555
C18_4 C20_4 1_555 1_555
C19_4 C17_4 1_555 1_555
C21_4 C6_4 1_555 1_555
H12_4 C21_4 1_555 1_555
C22_4 C19_4 1_555 1_555
H13_4 C22_4 1_555 1_555
C23_4 C18_4 1_555 1_555
H14_4 C23_4 1_555 1_555
C24_4 C18_4 1_555 1_555
H15_4 C24_4 1_555 1_555
C25_4 C19_4 1_555 1_555
H16_4 C25_4 1_555 1_555
H17_6 O4_6 1_555 1_555
Cu5_4 O5_4 1_555 1_555
Cu4_4 O6_4 1_555 1_555
N3_4 Cu5_3 1_555 1_555
O18_4 Cu9 1_555 1_555
O20_4 Cu9 1_555 1_555
O1_3 Cu5_3 1_555 1_555
C8_4 C9_4 1_555 1_555
C10_4 C12_4 1_555 1_555
O7_4 Cu10 1_555 1_555
C17_4 C21_4 1_555 1_555
C22_4 C23_4 1_555 1_555
C24_4 C25_4 1_555 1_555
Cu4_3 N1_4 1_555 1_555
N1_4 C13_4 1_555 1_555
C13_4 H8_4 1_555 1_555
N2_5 C15_4 1_555 1_555
C15_4 C13_4 1_555 1_555
H10_4 C15_4 1_555 1_555
Cu8_3 N2_5 1_555 1_555
O10_2 C36_5 1_555 1_555
C27_5 C26_5 1_555 1_555
C31_5 C32_5 1_555 1_555
C32_5 C27_5 1_555 1_555
H19_5 C32_5 1_555 1_555
C36_5 C31_5 1_555 1_555
O12_5 C41_5 1_555 1_555
O20_4 C36_5 1_555 1_555
C38_5 C26_5 1_555 1_555
C39_5 C41_5 1_555 1_555
C40_5 C38_5 1_555 1_555
C42_5 C31_5 1_555 1_555
H24_5 C42_5 1_555 1_555
C43_5 C40_5 1_555 1_555
H25_5 C43_5 1_555 1_555
C44_5 C39_5 1_555 1_555
H26_5 C44_5 1_555 1_555
Cu10 O10_2 1_555 1_555
C38_5 C42_5 1_555 1_555
C43_5 C44_5 1_555 1_555
Cu4_4 N1_5 1_555 1_555
N1_5 C13_5 1_555 1_555
O4_7 Cu10 1_555 1_555
H1_7 O4_7 1_555 1_555
C13_5 H8_5 1_555 1_555
C14_5 N1_5 1_555 1_555
H9_5 C14_5 1_555 1_555
N2_6 C15_5 1_555 1_555
C15_5 C13_5 1_555 1_555
H10_5 C15_5 1_555 1_555
C16_5 C14_5 1_555 1_555
H11_5 C16_5 1_555 1_555
H17_7 O4_7 1_555 1_555
O8_4 Cu5_4 1_555 1_555
O9_4 Cu4_4 1_555 1_555
C28_5 C30_5 1_555 1_555
C30_5 O8_4 1_555 1_555
C33_5 C29_5 1_555 1_555
H20_5 C33_5 1_555 1_555
C34_5 C28_5 1_555 1_555
H21_5 C34_5 1_555 1_555
C35_5 C28_5 1_555 1_555
H22_5 C35_5 1_555 1_555
C37_5 C29_5 1_555 1_555
H23_5 C37_5 1_555 1_555
H27_5 C45_5 1_555 1_555
H28_5 C46_5 1_555 1_555
Cu8_4 N2_6 1_555 1_555
Cu7_3 O11_5 1_555 1_555
N3_5 Cu5_4 1_555 1_555
O15_4 Cu4_4 1_555 1_555
O17_4 Cu5_4 1_555 1_555
O18_5 Cu10 1_555 1_555
N2_6 C16_5 1_555 1_555
O9_4 C30_5 1_555 1_555
C33_5 C34_5 1_555 1_555
C35_5 C37_5 1_555 1_555
C45_5 C46_5 1_555 1_555
O4_8 Cu11 1_555 1_555
H1_8 O4_8 1_555 1_555
N2_7 C15_6 1_555 1_555
H10_6 C15_6 1_555 1_555
H11_6 C16_6 1_555 1_555
Cu7 N2_7 1_555 1_555
O18_6 Cu11 1_555 1_555
N2_7 C16_6 1_555 1_555
N3_2 C13_6 1_555 1_555
O4_9 Cu11_2 1_555 1_555
C13_6 H8_6 1_555 1_555
C14_6 N3_2 1_555 1_555
H9_6 C14_6 1_555 1_555
H17_8 O4_9 1_555 1_555
C28_6 C30_6 1_555 1_555
C30_6 O15_2 1_555 1_555
C33_6 C29_6 1_555 1_555
H20_6 C33_6 1_555 1_555
C34_6 C28_6 1_555 1_555
H21_6 C34_6 1_555 1_555
C35_6 C28_6 1_555 1_555
H22_6 C35_6 1_555 1_555
C37_6 C29_6 1_555 1_555
H23_6 C37_6 1_555 1_555
H27_6 C45_6 1_555 1_555
H28_6 C46_6 1_555 1_555
Cu6_2 O11_6 1_555 1_555
O19_4 Cu11_2 1_555 1_555
O17_2 C30_6 1_555 1_555
C33_6 C34_6 1_555 1_555
C35_6 C37_6 1_555 1_555
C45_6 C46_6 1_555 1_555
O19_4 C36_6 1_555 1_555
C27_6 C26_6 1_555 1_555
C31_6 C32_6 1_555 1_555
C32_6 C27_6 1_555 1_555
H19_6 C32_6 1_555 1_555
C36_6 C31_6 1_555 1_555
O12_6 C41_6 1_555 1_555
O20 C36_6 1_555 1_555
C38_6 C26_6 1_555 1_555
C39_6 C41_6 1_555 1_555
C40_6 C38_6 1_555 1_555
C42_6 C31_6 1_555 1_555
H24_6 C42_6 1_555 1_555
C43_6 C40_6 1_555 1_555
H25_6 C43_6 1_555 1_555
C44_6 C39_6 1_555 1_555
H26_6 C44_6 1_555 1_555
Cu6 O12_6 1_555 1_555
C38_6 C42_6 1_555 1_555
C43_6 C44_6 1_555 1_555
O4_10 Cu11_4 1_555 1_555
H1_9 O4_10 1_555 1_555
N2_8 C15_7 1_555 1_555
H10_7 C15_7 1_555 1_555
H11_7 C16_7 1_555 1_555
Cu7_4 N2_8 1_555 1_555
O18_7 Cu11_4 1_555 1_555
N2_8 C16_7 1_555 1_555
O10_3 C36_7 1_555 1_555
C27_7 C26_7 1_555 1_555
C31_7 C32_7 1_555 1_555
C32_7 C27_7 1_555 1_555
H19_7 C32_7 1_555 1_555
C36_7 C31_7 1_555 1_555
O12_7 C41_7 1_555 1_555
O20_3 C36_7 1_555 1_555
C38_7 C26_7 1_555 1_555
C39_7 C41_7 1_555 1_555
C40_7 C38_7 1_555 1_555
C42_7 C31_7 1_555 1_555
H24_7 C42_7 1_555 1_555
C43_7 C40_7 1_555 1_555
H25_7 C43_7 1_555 1_555
C44_7 C39_7 1_555 1_555
H26_7 C44_7 1_555 1_555
Cu6_2 O12_7 1_555 1_555
Cu11_5 O10_3 1_555 1_555
C38_7 C42_7 1_555 1_555
C43_7 C44_7 1_555 1_555
N3_5 C13_7 1_555 1_555
O4_11 Cu11_5 1_555 1_555
C13_7 H8_7 1_555 1_555
C14_7 N3_5 1_555 1_555
H9_7 C14_7 1_555 1_555
H17_9 O4_11 1_555 1_555
C28_7 C30_7 1_555 1_555
C30_7 O15_4 1_555 1_555
C33_7 C29_7 1_555 1_555
H20_7 C33_7 1_555 1_555
C34_7 C28_7 1_555 1_555
H21_7 C34_7 1_555 1_555
C35_7 C28_7 1_555 1_555
H22_7 C35_7 1_555 1_555
C37_7 C29_7 1_555 1_555
H23_7 C37_7 1_555 1_555
H27_7 C45_7 1_555 1_555
H28_7 C46_7 1_555 1_555
Cu6 O11_7 1_555 1_555
O17_4 C30_7 1_555 1_555
C33_7 C34_7 1_555 1_555
C35_7 C37_7 1_555 1_555
C45_7 C46_7 1_555 1_555
C14_8 N3_3 1_555 1_555
H9_8 C14_8 1_555 1_555
C16_8 C14_8 1_555 1_555
H11_8 C16_8 1_555 1_555
Cu7_2 N2_9 1_555 1_555
N2_9 C16_8 1_555 1_555
O10_4 C36_8 1_555 1_555
C26_8 H18_8 1_555 1_555
C27_8 C26_8 1_555 1_555
C28_8 C30_8 1_555 1_555
C29_8 C27_8 1_555 1_555
C30_8 O15_3 1_555 1_555
C31_8 C32_8 1_555 1_555
C32_8 C27_8 1_555 1_555
H19_8 C32_8 1_555 1_555
C33_8 C29_8 1_555 1_555
H20_8 C33_8 1_555 1_555
C34_8 C28_8 1_555 1_555
H21_8 C34_8 1_555 1_555
C35_8 C28_8 1_555 1_555
H22_8 C35_8 1_555 1_555
C36_8 C31_8 1_555 1_555
C37_8 C29_8 1_555 1_555
H23_8 C37_8 1_555 1_555
O11_8 C41_8 1_555 1_555
O12_8 C41_8 1_555 1_555
O20_2 C36_8 1_555 1_555
C38_8 C26_8 1_555 1_555
C39_8 C41_8 1_555 1_555
C40_8 C38_8 1_555 1_555
C42_8 C31_8 1_555 1_555
H24_8 C42_8 1_555 1_555
C43_8 C40_8 1_555 1_555
H25_8 C43_8 1_555 1_555
C44_8 C39_8 1_555 1_555
H26_8 C44_8 1_555 1_555
C45_8 C39_8 1_555 1_555
H27_8 C45_8 1_555 1_555
C46_8 C40_8 1_555 1_555
H28_8 C46_8 1_555 1_555
Cu8 O12_8 1_555 1_555
Cu7 O11_8 1_555 1_555
Cu11_3 O10_4 1_555 1_555
O17_3 C30_8 1_555 1_555
C33_8 C34_8 1_555 1_555
C35_8 C37_8 1_555 1_555
C38_8 C42_8 1_555 1_555
C43_8 C44_8 1_555 1_555
C45_8 C46_8 1_555 1_555
N3_4 C13_8 1_555 1_555
C13_8 H8_8 1_555 1_555
N2_10 C15_8 1_555 1_555
C15_8 C13_8 1_555 1_555
H10_8 C15_8 1_555 1_555
Cu7_3 N2_10 1_555 1_555
O4_12 Cu11_3 1_555 1_555
H1_10 O4_12 1_555 1_555
H17_10 O4_12 1_555 1_555
O18_8 Cu11_3 1_555 1_555
O18_4 C11_5 1_555 1_555
C2_5 C1_5 1_555 1_555
C3_5 C5_5 1_555 1_555
C4_5 C2_5 1_555 1_555
C5_5 O2_4 1_555 1_555
C6_5 C7_5 1_555 1_555
C7_5 C2_5 1_555 1_555
H3_5 C7_5 1_555 1_555
C8_5 C4_5 1_555 1_555
H4_5 C8_5 1_555 1_555
C9_5 C3_5 1_555 1_555
H5_5 C9_5 1_555 1_555
C11_5 C6_5 1_555 1_555
O18_5 C11_5 1_555 1_555
C17_5 C1_5 1_555 1_555
C21_5 C6_5 1_555 1_555
H12_5 C21_5 1_555 1_555
C8_5 C9_5 1_555 1_555
C17_5 C21_5 1_555 1_555
O14_2 Cu8_2 1_555 1_555
H6_5 C10_5 1_555 1_555
H7_5 C12_5 1_555 1_555
O5_5 C20_5 1_555 1_555
O6_5 C20_5 1_555 1_555
C18_5 C20_5 1_555 1_555
C22_5 C19_5 1_555 1_555
H13_5 C22_5 1_555 1_555
C23_5 C18_5 1_555 1_555
H14_5 C23_5 1_555 1_555
C24_5 C18_5 1_555 1_555
H15_5 C24_5 1_555 1_555
C25_5 C19_5 1_555 1_555
H16_5 C25_5 1_555 1_555
Cu7_4 O5_5 1_555 1_555
Cu8_4 O6_5 1_555 1_555
O1_4 Cu7_2 1_555 1_555
C10_5 C12_5 1_555 1_555
C22_5 C23_5 1_555 1_555
C24_5 C25_5 1_555 1_555
O18_7 C11_6 1_555 1_555
C2_6 C1_6 1_555 1_555
C6_6 C7_6 1_555 1_555
C7_6 C2_6 1_555 1_555
H3_6 C7_6 1_555 1_555
C11_6 C6_6 1_555 1_555
O6_6 C20_6 1_555 1_555
O18_3 C11_6 1_555 1_555
C17_6 C1_6 1_555 1_555
C18_6 C20_6 1_555 1_555
C19_6 C17_6 1_555 1_555
C21_6 C6_6 1_555 1_555
H12_6 C21_6 1_555 1_555
C22_6 C19_6 1_555 1_555
H13_6 C22_6 1_555 1_555
C23_6 C18_6 1_555 1_555
H14_6 C23_6 1_555 1_555
Cu6_2 O6_6 1_555 1_555
C17_6 C21_6 1_555 1_555
C22_6 C23_6 1_555 1_555
O1_5 C5_6 1_555 1_555
O2_5 Cu7_4 1_555 1_555
C3_6 C5_6 1_555 1_555
C5_6 O2_5 1_555 1_555
C8_6 C4_6 1_555 1_555
H4_6 C8_6 1_555 1_555
C9_6 C3_6 1_555 1_555
H5_6 C9_6 1_555 1_555
C10_6 C3_6 1_555 1_555
H6_6 C10_6 1_555 1_555
C12_6 C4_6 1_555 1_555
H7_6 C12_6 1_555 1_555
H15_6 C24_6 1_555 1_555
H16_6 C25_6 1_555 1_555
Cu6 O5_6 1_555 1_555
O1_5 Cu8_4 1_555 1_555
C8_6 C9_6 1_555 1_555
C10_6 C12_6 1_555 1_555
C24_6 C25_6 1_555 1_555
H6_7 C10_7 1_555 1_555
H7_7 C12_7 1_555 1_555
O5_7 C20_7 1_555 1_555
O6_7 C20_7 1_555 1_555
C18_7 C20_7 1_555 1_555
C22_7 C19_7 1_555 1_555
H13_7 C22_7 1_555 1_555
C23_7 C18_7 1_555 1_555
H14_7 C23_7 1_555 1_555
C24_7 C18_7 1_555 1_555
H15_7 C24_7 1_555 1_555
C25_7 C19_7 1_555 1_555
H16_7 C25_7 1_555 1_555
Cu7 O5_7 1_555 1_555
Cu8 O6_7 1_555 1_555
C10_7 C12_7 1_555 1_555
C22_7 C23_7 1_555 1_555
C24_7 C25_7 1_555 1_555
O18_8 C11_7 1_555 1_555
C2_7 C1_7 1_555 1_555
C3_7 C5_7 1_555 1_555
C4_7 C2_7 1_555 1_555
C5_7 O16_2 1_555 1_555
C6_7 C7_7 1_555 1_555
C7_7 C2_7 1_555 1_555
H3_7 C7_7 1_555 1_555
C8_7 C4_7 1_555 1_555
H4_7 C8_7 1_555 1_555
C9_7 C3_7 1_555 1_555
H5_7 C9_7 1_555 1_555
C11_7 C6_7 1_555 1_555
O18_2 C11_7 1_555 1_555
C17_7 C1_7 1_555 1_555
C21_7 C6_7 1_555 1_555
H12_7 C21_7 1_555 1_555
C8_7 C9_7 1_555 1_555
C17_7 C21_7 1_555 1_555
H6_8 C10_8 1_555 1_555
H7_8 C12_8 1_555 1_555
O5_8 C20_8 1_555 1_555
O6_8 C20_8 1_555 1_555
C18_8 C20_8 1_555 1_555
C22_8 C19_8 1_555 1_555
H13_8 C22_8 1_555 1_555
C23_8 C18_8 1_555 1_555
H14_8 C23_8 1_555 1_555
C24_8 C18_8 1_555 1_555
H15_8 C24_8 1_555 1_555
C25_8 C19_8 1_555 1_555
H16_8 C25_8 1_555 1_555
Cu8 O5_8 1_555 1_555
Cu7 O6_8 1_555 1_555
O1_6 Cu6_2 1_555 1_555
C10_8 C12_8 1_555 1_555
C22_8 C23_8 1_555 1_555
C24_8 C25_8 1_555 1_555
O2_6 Cu6 1_555 1_555
O18 C11_8 1_555 1_555
C2_8 C1_8 1_555 1_555
C3_8 C5_8 1_555 1_555
C4_8 C2_8 1_555 1_555
C5_8 O2_6 1_555 1_555
C6_8 C7_8 1_555 1_555
C7_8 C2_8 1_555 1_555
H3_8 C7_8 1_555 1_555
C8_8 C4_8 1_555 1_555
H4_8 C8_8 1_555 1_555
C9_8 C3_8 1_555 1_555
H5_8 C9_8 1_555 1_555
C11_8 C6_8 1_555 1_555
O18_6 C11_8 1_555 1_555
C17_8 C1_8 1_555 1_555
C21_8 C6_8 1_555 1_555
H12_8 C21_8 1_555 1_555
C8_8 C9_8 1_555 1_555
C17_8 C21_8 1_555 1_555

#END
