
###############################################################################
#
# This file contains modified crystal structure data generated from the
# MOF subset of the Cambridge Structural Database (CSD) v543 
# hosted by the Cambridge Crystallographic Data Centre (CCDC).
#
# This work is licensed under the Creative Commons
# Attribution-NonCommercial-ShareAlike 4.0 International License.
# To view a copy of this license, visit
# http://creativecommons.org/licenses/by-nc-sa/4.0/
# or send a letter to
# Creative Commons, PO Box 1866, Mountain View, CA 94042, USA.
#
# CIF created using the CSD Python API on 29 September 2022
# The structure has been converted into the P1 space group
# The structure has a 3D framework
# The original CSD entry NAJMIV is in the orthorhombic crystal system
# The framework has been calculated to contain at least 10.0% void space
# The void calculation uses a probe of radius 1.32A, grid spacing 0.4
# The framework is charged, counterions have been retained in the structure
# H atom positions have been added when not included in the experimental data
# Generated hydrogen atom positions removed from atoms on special positions
#
###############################################################################

data_NAJMIV
_chemical_formula_moiety         '(C640 H656 Cu32 N224 O340 32-)n'
_symmetry_cell_setting           triclinic
_symmetry_space_group_name_H-M   'P 1'
_symmetry_Int_Tables_number      1
_space_group_name_Hall           'P 1'
loop_
_symmetry_equiv_pos_site_id
_symmetry_equiv_pos_as_xyz
1 x,y,z
_cell_length_a                   14.3905(7)
_cell_length_b                   42.019(2)
_cell_length_c                   42.158(2)
_cell_angle_alpha                90
_cell_angle_beta                 90
_cell_angle_gamma                90
_cell_volume                     25491.9
loop_
_atom_site_label
_atom_site_type_symbol
_atom_site_fract_x
_atom_site_fract_y
_atom_site_fract_z
O4 O 0.0190(3) 0.14223(10) 0.32020(10)
Cu1 Cu 0.61464(4) 0.126177(11) 0.089976(10)
O1 O 0.4688(3) 0.14218(9) 0.11045(10)
N1 N 0.5695(3) 0.12714(9) 0.04420(9)
N2 N 0.5727(3) 0.08023(9) 0.09327(10)
N3 N 0.6583(3) 0.17204(9) 0.08665(9)
C1 C 0.5875(3) 0.10256(11) 0.02477(12)
H1 H 0.6208 0.0848 0.0330
C4 C 0.4945(4) 0.15365(13) 0.00108(12)
C5 C 0.5238(3) 0.15177(12) 0.03245(11)
H4 H 0.5104 0.1691 0.0462
C11 C 0.6327(3) 0.05701(12) 0.10139(13)
H9 H 0.6949 0.0624 0.1068
C12 C 0.6053(4) 0.02510(12) 0.10201(13)
H10 H 0.6490 0.0090 0.1073
C13 C 0.5155(3) 0.01713(10) 0.09495(12)
C14 C 0.4533(3) 0.04093(11) 0.08634(12)
H11 H 0.3908 0.0360 0.0810
C15 C 0.4854(3) 0.07201(11) 0.08579(12)
H12 H 0.4433 0.0884 0.0798
C16 C 0.7117(3) 0.18179(11) 0.06261(12)
H13 H 0.7263 0.1670 0.0463
C17 C 0.7469(3) 0.21245(11) 0.06022(11)
H14 H 0.7820 0.2187 0.0422
C18 C 0.7299(3) 0.23381(11) 0.08458(12)
C19 C 0.6741(4) 0.22368(12) 0.11006(13)
H15 H 0.6609 0.2376 0.1273
C20 C 0.6391(4) 0.19342(13) 0.10959(13)
H16 H 0.5990 0.1871 0.1264
O2 O 0.7690(3) 0.10777(10) 0.07020(10)
Cu2 Cu 0.86464(4) 0.123823(11) 0.339976(10)
Cu5 Cu 0.88536(4) 0.373823(11) 0.089976(10)
O3 O 0.7188(3) 0.10782(9) 0.36045(10)
N5 N 0.8195(3) 0.12286(9) 0.29420(9)
N7 N 0.8227(3) 0.16977(9) 0.34327(10)
N8 N 0.8417(3) 0.32796(9) 0.08665(9)
N9 N 0.9083(3) 0.07796(9) 0.33665(9)
N10 N 0.6650(3) 0.12364(9) 0.13499(10)
N11 N 0.9150(3) 0.12636(9) 0.38499(10)
C21 C 0.8375(3) 0.14744(11) 0.27477(12)
H17 H 0.8708 0.1652 0.2830
C22 C 0.8098(3) 0.14808(12) 0.24334(12)
H18 H 0.8227 0.1661 0.2304
C23 C 0.7632(4) 0.12213(12) 0.23119(12)
C24 C 0.7445(4) 0.09635(13) 0.25108(12)
H19 H 0.7127 0.0781 0.2434
C25 C 0.7738(3) 0.09823(12) 0.28245(11)
H20 H 0.7604 0.0809 0.2962
C26 C 0.7300(4) 0.12189(12) 0.19742(12)
C27 C 0.7813(3) 0.13717(13) 0.17373(12)
H21 H 0.8384 0.1474 0.1786
C28 C 0.7471(3) 0.13712(12) 0.14302(11)
H22 H 0.7829 0.1470 0.1269
C29 C 0.6171(3) 0.10909(12) 0.15787(12)
H23 H 0.5596 0.0994 0.1525
C30 C 0.6468(3) 0.10737(12) 0.18912(12)
H24 H 0.6109 0.0964 0.2046
C36 C 0.7883(3) 0.31821(11) 0.06261(12)
H29 H 0.7737 0.3330 0.0463
C37 C 0.7531(3) 0.28755(11) 0.06022(11)
H30 H 0.7180 0.2813 0.0422
C38 C 0.7701(3) 0.26619(11) 0.08458(12)
C39 C 0.8259(4) 0.27632(12) 0.11006(13)
H31 H 0.8391 0.2624 0.1273
C40 C 0.8609(4) 0.30658(13) 0.10959(13)
H32 H 0.9010 0.3129 0.1264
N4 N 0.4150(3) 0.12636(9) 0.88499(10)
C2 C 0.5598(3) 0.10192(12) 0.99334(12)
H2 H 0.5727 0.0839 0.9804
C3 C 0.5132(4) 0.12787(12) 0.98119(12)
H3 H 0.4627 0.1719 0.9934
C6 C 0.4800(4) 0.12811(12) 0.94742(12)
C7 C 0.5313(3) 0.11283(13) 0.92373(12)
H5 H 0.5884 0.1026 0.9286
C8 C 0.4971(3) 0.11288(12) 0.89302(11)
H6 H 0.5329 0.1030 0.8769
C9 C 0.3671(3) 0.14091(12) 0.90787(12)
H7 H 0.3096 0.1506 0.9025
C10 C 0.3968(3) 0.14263(12) 0.93912(12)
H8 H 0.3609 0.1536 0.9546
Cu3 Cu 0.36464(4) 0.123823(11) 0.839976(10)
Cu4 Cu 0.38536(4) 0.873823(11) 0.089976(10)
N6 N 0.4273(3) 0.91977(9) 0.09327(10)
C31 C 0.3673(3) 0.94299(12) 0.10139(13)
H25 H 0.3051 0.9376 0.1068
C32 C 0.3947(4) 0.97490(12) 0.10201(13)
H26 H 0.3510 0.9910 0.1073
C33 C 0.4845(3) 0.98287(10) 0.09495(12)
C34 C 0.5467(3) 0.95907(11) 0.08634(12)
H27 H 0.6092 0.9640 0.0810
C35 C 0.5146(3) 0.92799(11) 0.08579(12)
H28 H 0.5567 0.9116 0.0798
O1_2 O 0.5312(3) 0.85782(9) 0.11045(10)
N1_2 N 0.4305(3) 0.87286(9) 0.04420(9)
N3_2 N 0.3417(3) 0.82796(9) 0.08665(9)
C1_2 C 0.4125(3) 0.89744(11) 0.02477(12)
H1_2 H 0.3792 0.9152 0.0330
C4_2 C 0.5055(4) 0.84635(13) 0.00108(12)
C5_2 C 0.4762(3) 0.84823(12) 0.03245(11)
H4_2 H 0.4896 0.8309 0.0462
C16_2 C 0.2883(3) 0.81821(11) 0.06261(12)
H13_2 H 0.2737 0.8330 0.0463
C17_2 C 0.2531(3) 0.78755(11) 0.06022(11)
H14_2 H 0.2180 0.7813 0.0422
C18_2 C 0.2701(3) 0.76619(11) 0.08458(12)
C19_2 C 0.3259(4) 0.77632(12) 0.11006(13)
H15_2 H 0.3391 0.7624 0.1273
C20_2 C 0.3609(4) 0.80658(13) 0.10959(13)
H16_2 H 0.4010 0.8129 0.1264
O2_2 O 0.2310(3) 0.89223(10) 0.07020(10)
Cu2_2 Cu 0.13536(4) 0.876177(11) 0.339976(10)
Cu5_2 Cu 0.11464(4) 0.626177(11) 0.089976(10)
O3_2 O 0.2812(3) 0.89218(9) 0.36045(10)
N5_2 N 0.1805(3) 0.87714(9) 0.29420(9)
N7_2 N 0.1773(3) 0.83023(9) 0.34327(10)
N8_2 N 0.1583(3) 0.67204(9) 0.08665(9)
N9_2 N 0.0917(3) 0.92204(9) 0.33665(9)
N10_2 N 0.3350(3) 0.87636(9) 0.13499(10)
N11_2 N 0.0850(3) 0.87364(9) 0.38499(10)
C21_2 C 0.1625(3) 0.85256(11) 0.27477(12)
H17_2 H 0.1292 0.8348 0.2830
C22_2 C 0.1902(3) 0.85192(12) 0.24334(12)
H18_2 H 0.1773 0.8339 0.2304
C23_2 C 0.2368(4) 0.87787(12) 0.23119(12)
C24_2 C 0.2555(4) 0.90365(13) 0.25108(12)
H19_2 H 0.2873 0.9219 0.2434
C25_2 C 0.2262(3) 0.90177(12) 0.28245(11)
H20_2 H 0.2396 0.9191 0.2962
C26_2 C 0.2700(4) 0.87811(12) 0.19742(12)
C27_2 C 0.2187(3) 0.86283(13) 0.17373(12)
H21_2 H 0.1616 0.8526 0.1786
C28_2 C 0.2529(3) 0.86288(12) 0.14302(11)
H22_2 H 0.2171 0.8530 0.1269
C29_2 C 0.3829(3) 0.89091(12) 0.15787(12)
H23_2 H 0.4404 0.9006 0.1525
C30_2 C 0.3532(3) 0.89263(12) 0.18912(12)
H24_2 H 0.3891 0.9036 0.2046
C36_2 C 0.2117(3) 0.68179(11) 0.06261(12)
H29_2 H 0.2263 0.6670 0.0463
C37_2 C 0.2469(3) 0.71245(11) 0.06022(11)
H30_2 H 0.2820 0.7187 0.0422
C38_2 C 0.2299(3) 0.73381(11) 0.08458(12)
C39_2 C 0.1741(4) 0.72368(12) 0.11006(13)
H31_2 H 0.1609 0.7376 0.1273
C40_2 C 0.1391(4) 0.69342(13) 0.10959(13)
H32_2 H 0.0990 0.6871 0.1264
N4_2 N 0.5850(3) 0.87364(9) 0.88499(10)
C2_2 C 0.4402(3) 0.89808(12) 0.99334(12)
H2_2 H 0.4273 0.9161 0.9804
C3_2 C 0.4868(4) 0.87213(12) 0.98119(12)
H3_2 H 0.5373 0.8281 0.9934
C6_2 C 0.5200(4) 0.87189(12) 0.94742(12)
C7_2 C 0.4687(3) 0.88717(13) 0.92373(12)
H5_2 H 0.4116 0.8974 0.9286
C8_2 C 0.5029(3) 0.88712(12) 0.89302(11)
H6_2 H 0.4671 0.8970 0.8769
C9_2 C 0.6329(3) 0.85909(12) 0.90787(12)
H7_2 H 0.6904 0.8494 0.9025
C10_2 C 0.6032(3) 0.85737(12) 0.93912(12)
H8_2 H 0.6391 0.8464 0.9546
Cu3_2 Cu 0.63536(4) 0.876177(11) 0.839976(10)
O4_2 O 0.9810(3) 0.85777(10) 0.32020(10)
H14_3 H 0.0320 0.0313 0.2922
Cu2_3 Cu 0.11464(4) 0.126177(11) 0.589976(10)
N5_3 N 0.0695(3) 0.12714(9) 0.54420(9)
N7_3 N 0.0727(3) 0.08023(9) 0.59327(10)
N9_3 N 0.1583(3) 0.17204(9) 0.58665(9)
N11_3 N 0.1650(3) 0.12364(9) 0.63499(10)
C21_3 C 0.0875(3) 0.10256(11) 0.52477(12)
H17_3 H 0.1208 0.0848 0.5330
C22_3 C 0.0598(3) 0.10192(12) 0.49334(12)
H18_3 H 0.0727 0.0839 0.4804
C23_3 C 0.0132(4) 0.12787(12) 0.48119(12)
C25_3 C 0.0238(3) 0.15177(12) 0.53245(11)
H20_3 H 0.0104 0.1691 0.5462
C27_3 C 0.0313(3) 0.11283(13) 0.42373(12)
H21_3 H 0.0884 0.1026 0.4286
H22_3 H 0.0329 0.1030 0.3769
O4_3 O 0.2690(3) 0.10777(10) 0.57020(10)
C36_3 C 0.0383(3) 0.93179(11) 0.31261(12)
H29_3 H 0.0237 0.9170 0.2963
C37_3 C 0.0031(3) 0.96245(11) 0.31022(11)
C38_3 C 0.0201(3) 0.98381(11) 0.33458(12)
C39_3 C 0.0759(4) 0.97368(12) 0.36006(13)
H31_3 H 0.0891 0.9876 0.3773
C40_3 C 0.1109(4) 0.94342(13) 0.35959(13)
H32_3 H 0.1510 0.9371 0.3764
C11_2 C 0.8827(3) 0.19299(12) 0.35139(13)
H9_2 H 0.9449 0.1876 0.3568
C12_2 C 0.8553(4) 0.22490(12) 0.35201(13)
H10_2 H 0.8990 0.2410 0.3573
C13_2 C 0.7655(3) 0.23287(10) 0.34495(12)
C14_2 C 0.7033(3) 0.20907(11) 0.33634(12)
H11_2 H 0.6408 0.2140 0.3310
C15_2 C 0.7354(3) 0.17799(11) 0.33579(12)
H12_2 H 0.6933 0.1616 0.3298
C16_3 C 0.9617(3) 0.06821(11) 0.31261(12)
H13_3 H 0.9763 0.0830 0.2963
C17_3 C 0.9969(3) 0.03755(11) 0.31022(11)
C18_3 C 0.9799(3) 0.01619(11) 0.33458(12)
C19_3 C 0.9241(4) 0.02632(12) 0.36006(13)
H15_3 H 0.9109 0.0124 0.3773
C20_3 C 0.8891(4) 0.05658(13) 0.35959(13)
H16_3 H 0.8490 0.0629 0.3764
Cu4_2 Cu 0.63536(4) 0.376177(11) 0.339976(10)
O3_3 O 0.9688(3) 0.14218(9) 0.61045(10)
N6_2 N 0.6773(3) 0.33023(9) 0.34327(10)
C24_3 C 0.9945(4) 0.15365(13) 0.50108(12)
H19_3 H 0.9627 0.1719 0.4934
C26_3 C 0.9800(4) 0.12811(12) 0.44742(12)
C28_3 C 0.9971(3) 0.11288(12) 0.39302(11)
C29_3 C 0.8671(3) 0.14091(12) 0.40787(12)
H23_3 H 0.8096 0.1506 0.4025
C30_3 C 0.8968(3) 0.14263(12) 0.43912(12)
H24_3 H 0.8609 0.1536 0.4546
C31_2 C 0.6173(3) 0.30701(12) 0.35139(13)
H25_2 H 0.5551 0.3124 0.3568
C32_2 C 0.6447(4) 0.27510(12) 0.35201(13)
H26_2 H 0.6010 0.2590 0.3573
C33_2 C 0.7345(3) 0.26713(10) 0.34495(12)
C34_2 C 0.7967(3) 0.29093(11) 0.33634(12)
H27_2 H 0.8592 0.2860 0.3310
C35_2 C 0.7646(3) 0.32201(11) 0.33579(12)
H28_2 H 0.8067 0.3384 0.3298
H30_3 H 0.9680 0.9687 0.2922
O1_3 O 0.7812(3) 0.39218(9) 0.36045(10)
N1_3 N 0.6805(3) 0.37714(9) 0.29420(9)
N3_3 N 0.5917(3) 0.42204(9) 0.33665(9)
N4_3 N 0.8350(3) 0.37636(9) 0.13499(10)
C1_3 C 0.6625(3) 0.35256(11) 0.27477(12)
H1_3 H 0.6292 0.3348 0.2830
C2_3 C 0.6902(3) 0.35192(12) 0.24334(12)
H2_3 H 0.6773 0.3339 0.2304
C3_3 C 0.7368(4) 0.37787(12) 0.23119(12)
C4_3 C 0.7555(4) 0.40365(13) 0.25108(12)
H3_3 H 0.7873 0.4219 0.2434
C5_3 C 0.7262(3) 0.40177(12) 0.28245(11)
H4_3 H 0.7396 0.4191 0.2962
C6_3 C 0.7700(4) 0.37811(12) 0.19742(12)
C7_3 C 0.7187(3) 0.36283(13) 0.17373(12)
H5_3 H 0.6616 0.3526 0.1786
C8_3 C 0.7529(3) 0.36288(12) 0.14302(11)
H6_3 H 0.7171 0.3530 0.1269
C9_3 C 0.8829(3) 0.39091(12) 0.15787(12)
H7_3 H 0.9404 0.4006 0.1525
C10_3 C 0.8532(3) 0.39263(12) 0.18912(12)
H8_3 H 0.8891 0.4036 0.2046
C16_4 C 0.5383(3) 0.43179(11) 0.31261(12)
H13_4 H 0.5237 0.4170 0.2963
C17_4 C 0.5031(3) 0.46245(11) 0.31022(11)
H14_4 H 0.4680 0.4687 0.2922
C18_4 C 0.5201(3) 0.48381(11) 0.33458(12)
C19_4 C 0.5759(4) 0.47368(12) 0.36006(13)
H15_4 H 0.5891 0.4876 0.3773
C20_4 C 0.6109(4) 0.44342(13) 0.35959(13)
H16_4 H 0.6510 0.4371 0.3764
O2_3 O 0.4810(3) 0.35777(10) 0.32020(10)
Cu2_4 Cu 0.38536(4) 0.373823(11) 0.589976(10)
Cu5_3 Cu 0.36464(4) 0.623823(11) 0.339976(10)
O3_4 O 0.5312(3) 0.35782(9) 0.61045(10)
N5_4 N 0.4305(3) 0.37286(9) 0.54420(9)
N7_4 N 0.4273(3) 0.41977(9) 0.59327(10)
N8_3 N 0.4083(3) 0.57796(9) 0.33665(9)
N9_4 N 0.3417(3) 0.32796(9) 0.58665(9)
N10_3 N 0.5850(3) 0.37364(9) 0.38499(10)
N11_4 N 0.3350(3) 0.37636(9) 0.63499(10)
C21_4 C 0.4125(3) 0.39744(11) 0.52477(12)
H17_4 H 0.3792 0.4152 0.5330
C22_4 C 0.4402(3) 0.39808(12) 0.49334(12)
H18_4 H 0.4273 0.4161 0.4804
C23_4 C 0.4868(4) 0.37213(12) 0.48119(12)
C24_4 C 0.5055(4) 0.34635(13) 0.50108(12)
H19_4 H 0.5373 0.3281 0.4934
C25_4 C 0.4762(3) 0.34823(12) 0.53245(11)
H20_4 H 0.4896 0.3309 0.5462
C26_4 C 0.5200(4) 0.37189(12) 0.44742(12)
C27_4 C 0.4687(3) 0.38717(13) 0.42373(12)
H21_4 H 0.4116 0.3974 0.4286
C28_4 C 0.5029(3) 0.38712(12) 0.39302(11)
H22_4 H 0.4671 0.3970 0.3769
C29_4 C 0.6329(3) 0.35909(12) 0.40787(12)
H23_4 H 0.6904 0.3494 0.4025
C30_4 C 0.6032(3) 0.35737(12) 0.43912(12)
H24_4 H 0.6391 0.3464 0.4546
C36_4 C 0.4617(3) 0.56821(11) 0.31261(12)
H29_4 H 0.4763 0.5830 0.2963
C37_4 C 0.4969(3) 0.53755(11) 0.31022(11)
H30_4 H 0.5320 0.5313 0.2922
C38_4 C 0.4799(3) 0.51619(11) 0.33458(12)
C39_4 C 0.4241(4) 0.52632(12) 0.36006(13)
H31_4 H 0.4109 0.5124 0.3773
C40_4 C 0.3891(4) 0.55658(13) 0.35959(13)
H32_4 H 0.3490 0.5629 0.3764
O4_4 O 0.2310(3) 0.39223(10) 0.57020(10)
O4_5 O 0.0190(3) 0.64223(10) 0.82020(10)
Cu1_2 Cu 0.61464(4) 0.626177(11) 0.589976(10)
O1_4 O 0.4688(3) 0.64218(9) 0.61045(10)
N1_4 N 0.5695(3) 0.62714(9) 0.54420(9)
N2_2 N 0.5727(3) 0.58023(9) 0.59327(10)
N3_4 N 0.6583(3) 0.67204(9) 0.58665(9)
N4_4 N 0.4150(3) 0.62636(9) 0.38499(10)
C1_4 C 0.5875(3) 0.60256(11) 0.52477(12)
H1_4 H 0.6208 0.5848 0.5330
C2_4 C 0.5598(3) 0.60192(12) 0.49334(12)
H2_4 H 0.5727 0.5839 0.4804
C3_4 C 0.5132(4) 0.62787(12) 0.48119(12)
C4_4 C 0.4945(4) 0.65365(13) 0.50108(12)
H3_4 H 0.4627 0.6719 0.4934
C5_4 C 0.5238(3) 0.65177(12) 0.53245(11)
H4_4 H 0.5104 0.6691 0.5462
C6_4 C 0.4800(4) 0.62811(12) 0.44742(12)
C7_4 C 0.5313(3) 0.61283(13) 0.42373(12)
H5_4 H 0.5884 0.6026 0.4286
C8_4 C 0.4971(3) 0.61288(12) 0.39302(11)
H6_4 H 0.5329 0.6030 0.3769
C9_4 C 0.3671(3) 0.64091(12) 0.40787(12)
H7_4 H 0.3096 0.6506 0.4025
C10_4 C 0.3968(3) 0.64263(12) 0.43912(12)
H8_4 H 0.3609 0.6536 0.4546
C11_3 C 0.6327(3) 0.55701(12) 0.60139(13)
H9_3 H 0.6949 0.5624 0.6068
C12_3 C 0.6053(4) 0.52510(12) 0.60201(13)
H10_3 H 0.6490 0.5090 0.6073
C13_3 C 0.5155(3) 0.51713(10) 0.59495(12)
C14_3 C 0.4533(3) 0.54093(11) 0.58634(12)
H11_3 H 0.3908 0.5360 0.5810
C15_3 C 0.4854(3) 0.57201(11) 0.58579(12)
H12_3 H 0.4433 0.5884 0.5798
C16_5 C 0.7117(3) 0.68179(11) 0.56261(12)
H13_5 H 0.7263 0.6670 0.5463
C17_5 C 0.7469(3) 0.71245(11) 0.56022(11)
H14_5 H 0.7820 0.7187 0.5422
C18_5 C 0.7299(3) 0.73381(11) 0.58458(12)
C19_5 C 0.6741(4) 0.72368(12) 0.61006(13)
H15_5 H 0.6609 0.7376 0.6273
C20_5 C 0.6391(4) 0.69342(13) 0.60959(13)
H16_5 H 0.5990 0.6871 0.6264
O2_4 O 0.7690(3) 0.60777(10) 0.57020(10)
Cu2_5 Cu 0.86464(4) 0.623823(11) 0.839976(10)
Cu5_4 Cu 0.88536(4) 0.873823(11) 0.589976(10)
O3_5 O 0.7188(3) 0.60782(9) 0.86045(10)
N5_5 N 0.8195(3) 0.62286(9) 0.79420(9)
N7_5 N 0.8227(3) 0.66977(9) 0.84327(10)
N8_4 N 0.8417(3) 0.82796(9) 0.58665(9)
N9_5 N 0.9083(3) 0.57796(9) 0.83665(9)
N10_4 N 0.6650(3) 0.62364(9) 0.63499(10)
N11_5 N 0.9150(3) 0.62636(9) 0.88499(10)
C21_5 C 0.8375(3) 0.64744(11) 0.77477(12)
H17_5 H 0.8708 0.6652 0.7830
C22_5 C 0.8098(3) 0.64808(12) 0.74334(12)
H18_5 H 0.8227 0.6661 0.7304
C23_5 C 0.7632(4) 0.62213(12) 0.73119(12)
C24_5 C 0.7445(4) 0.59635(13) 0.75108(12)
H19_5 H 0.7127 0.5781 0.7434
C25_5 C 0.7738(3) 0.59823(12) 0.78245(11)
H20_5 H 0.7604 0.5809 0.7962
C26_5 C 0.7300(4) 0.62189(12) 0.69742(12)
C27_5 C 0.7813(3) 0.63717(13) 0.67373(12)
H21_5 H 0.8384 0.6474 0.6786
C28_5 C 0.7471(3) 0.63712(12) 0.64302(11)
H22_5 H 0.7829 0.6470 0.6269
C29_5 C 0.6171(3) 0.60909(12) 0.65787(12)
H23_5 H 0.5596 0.5994 0.6525
C30_5 C 0.6468(3) 0.60737(12) 0.68912(12)
H24_5 H 0.6109 0.5964 0.7046
C31_3 C 0.3673(3) 0.44299(12) 0.60139(13)
H25_3 H 0.3051 0.4376 0.6068
C32_3 C 0.3947(4) 0.47490(12) 0.60201(13)
H26_3 H 0.3510 0.4910 0.6073
C33_3 C 0.4845(3) 0.48287(10) 0.59495(12)
C34_3 C 0.5467(3) 0.45907(11) 0.58634(12)
H27_3 H 0.6092 0.4640 0.5810
C35_3 C 0.5146(3) 0.42799(11) 0.58579(12)
H28_3 H 0.5567 0.4116 0.5798
C36_5 C 0.7883(3) 0.81821(11) 0.56261(12)
H29_5 H 0.7737 0.8330 0.5463
C37_5 C 0.7531(3) 0.78755(11) 0.56022(11)
H30_5 H 0.7180 0.7813 0.5422
C38_5 C 0.7701(3) 0.76619(11) 0.58458(12)
C39_5 C 0.8259(4) 0.77632(12) 0.61006(13)
H31_5 H 0.8391 0.7624 0.6273
C40_5 C 0.8609(4) 0.80658(13) 0.60959(13)
H32_5 H 0.9010 0.8129 0.6264
C16_6 C 0.2883(3) 0.31821(11) 0.56261(12)
H13_6 H 0.2737 0.3330 0.5463
C17_6 C 0.2531(3) 0.28755(11) 0.56022(11)
H14_6 H 0.2180 0.2813 0.5422
C18_6 C 0.2701(3) 0.26619(11) 0.58458(12)
C19_6 C 0.3259(4) 0.27632(12) 0.61006(13)
H15_6 H 0.3391 0.2624 0.6273
C20_6 C 0.3609(4) 0.30658(13) 0.60959(13)
H16_6 H 0.4010 0.3129 0.6264
Cu2_6 Cu 0.13536(4) 0.376177(11) 0.839976(10)
O3_6 O 0.2812(3) 0.39218(9) 0.86045(10)
N5_6 N 0.1805(3) 0.37714(9) 0.79420(9)
N7_6 N 0.1773(3) 0.33023(9) 0.84327(10)
N9_6 N 0.0917(3) 0.42204(9) 0.83665(9)
N11_6 N 0.0850(3) 0.37364(9) 0.88499(10)
C21_6 C 0.1625(3) 0.35256(11) 0.77477(12)
H17_6 H 0.1292 0.3348 0.7830
C22_6 C 0.1902(3) 0.35192(12) 0.74334(12)
H18_6 H 0.1773 0.3339 0.7304
C23_6 C 0.2368(4) 0.37787(12) 0.73119(12)
C24_6 C 0.2555(4) 0.40365(13) 0.75108(12)
H19_6 H 0.2873 0.4219 0.7434
C25_6 C 0.2262(3) 0.40177(12) 0.78245(11)
H20_6 H 0.2396 0.4191 0.7962
C26_6 C 0.2700(4) 0.37811(12) 0.69742(12)
C27_6 C 0.2187(3) 0.36283(13) 0.67373(12)
H21_6 H 0.1616 0.3526 0.6786
C28_6 C 0.2529(3) 0.36288(12) 0.64302(11)
H22_6 H 0.2171 0.3530 0.6269
C29_6 C 0.3829(3) 0.39091(12) 0.65787(12)
H23_6 H 0.4404 0.4006 0.6525
C30_6 C 0.3532(3) 0.39263(12) 0.68912(12)
H24_6 H 0.3891 0.4036 0.7046
C36_6 C 0.2117(3) 0.18179(11) 0.56261(12)
H29_6 H 0.2263 0.1670 0.5463
C37_6 C 0.2469(3) 0.21245(11) 0.56022(11)
H30_6 H 0.2820 0.2187 0.5422
C38_6 C 0.2299(3) 0.23381(11) 0.58458(12)
C39_6 C 0.1741(4) 0.22368(12) 0.61006(13)
H31_6 H 0.1609 0.2376 0.6273
C40_6 C 0.1391(4) 0.19342(13) 0.60959(13)
H32_6 H 0.0990 0.1871 0.6264
O4_6 O 0.9810(3) 0.35777(10) 0.82020(10)
N5_7 N 0.0695(3) 0.62714(9) 0.04420(9)
N7_7 N 0.0727(3) 0.58023(9) 0.09327(10)
N11_7 N 0.1650(3) 0.62364(9) 0.13499(10)
C21_7 C 0.0875(3) 0.60256(11) 0.02477(12)
H17_7 H 0.1208 0.5848 0.0330
C25_7 C 0.0238(3) 0.65177(12) 0.03245(11)
H20_7 H 0.0104 0.6691 0.0462
O4_7 O 0.2690(3) 0.60777(10) 0.07020(10)
H14_7 H 0.0320 0.5313 0.7922
C22_7 C 0.0598(3) 0.60192(12) 0.99334(12)
H18_7 H 0.0727 0.5839 0.9804
C23_7 C 0.0132(4) 0.62787(12) 0.98119(12)
C27_7 C 0.0313(3) 0.61283(13) 0.92373(12)
H21_7 H 0.0884 0.6026 0.9286
H22_7 H 0.0329 0.6030 0.8769
C36_7 C 0.0383(3) 0.43179(11) 0.81261(12)
H29_7 H 0.0237 0.4170 0.7963
C37_7 C 0.0031(3) 0.46245(11) 0.81022(11)
C38_7 C 0.0201(3) 0.48381(11) 0.83458(12)
C39_7 C 0.0759(4) 0.47368(12) 0.86006(13)
H31_7 H 0.0891 0.4876 0.8773
C40_7 C 0.1109(4) 0.44342(13) 0.85959(13)
H32_7 H 0.1510 0.4371 0.8764
O3_7 O 0.9688(3) 0.64218(9) 0.11045(10)
C24_7 C 0.9945(4) 0.65365(13) 0.00108(12)
C11_4 C 0.8827(3) 0.69299(12) 0.85139(13)
H9_4 H 0.9449 0.6876 0.8568
C12_4 C 0.8553(4) 0.72490(12) 0.85201(13)
H10_4 H 0.8990 0.7410 0.8573
C13_4 C 0.7655(3) 0.73287(10) 0.84495(12)
C14_4 C 0.7033(3) 0.70907(11) 0.83634(12)
H11_4 H 0.6408 0.7140 0.8310
C15_4 C 0.7354(3) 0.67799(11) 0.83579(12)
H12_4 H 0.6933 0.6616 0.8298
C16_7 C 0.9617(3) 0.56821(11) 0.81261(12)
H13_7 H 0.9763 0.5830 0.7963
C17_7 C 0.9969(3) 0.53755(11) 0.81022(11)
C18_7 C 0.9799(3) 0.51619(11) 0.83458(12)
C19_7 C 0.9241(4) 0.52632(12) 0.86006(13)
H15_7 H 0.9109 0.5124 0.8773
C20_7 C 0.8891(4) 0.55658(13) 0.85959(13)
H16_7 H 0.8490 0.5629 0.8764
N6_3 N 0.6773(3) 0.83023(9) 0.84327(10)
H19_7 H 0.9627 0.6719 0.9934
C26_7 C 0.9800(4) 0.62811(12) 0.94742(12)
C28_7 C 0.9971(3) 0.61288(12) 0.89302(11)
C29_7 C 0.8671(3) 0.64091(12) 0.90787(12)
H23_7 H 0.8096 0.6506 0.9025
C30_7 C 0.8968(3) 0.64263(12) 0.93912(12)
H24_7 H 0.8609 0.6536 0.9546
C31_4 C 0.6173(3) 0.80701(12) 0.85139(13)
H25_4 H 0.5551 0.8124 0.8568
C32_4 C 0.6447(4) 0.77510(12) 0.85201(13)
H26_4 H 0.6010 0.7590 0.8573
C33_4 C 0.7345(3) 0.76713(10) 0.84495(12)
C34_4 C 0.7967(3) 0.79093(11) 0.83634(12)
H27_4 H 0.8592 0.7860 0.8310
C35_4 C 0.7646(3) 0.82201(11) 0.83579(12)
H28_4 H 0.8067 0.8384 0.8298
H30_7 H 0.9680 0.4687 0.7922
N8_5 N 0.4083(3) 0.07796(9) 0.83665(9)
C36_8 C 0.4617(3) 0.06821(11) 0.81261(12)
H29_8 H 0.4763 0.0830 0.7963
C37_8 C 0.4969(3) 0.03755(11) 0.81022(11)
H30_8 H 0.5320 0.0313 0.7922
C38_8 C 0.4799(3) 0.01619(11) 0.83458(12)
C39_8 C 0.4241(4) 0.02632(12) 0.86006(13)
H31_8 H 0.4109 0.0124 0.8773
C40_8 C 0.3891(4) 0.05658(13) 0.85959(13)
H32_8 H 0.3490 0.0629 0.8764
O1_5 O 0.7812(3) 0.89218(9) 0.86045(10)
N1_5 N 0.6805(3) 0.87714(9) 0.79420(9)
N3_5 N 0.5917(3) 0.92204(9) 0.83665(9)
N4_5 N 0.8350(3) 0.87636(9) 0.63499(10)
C1_5 C 0.6625(3) 0.85256(11) 0.77477(12)
H1_5 H 0.6292 0.8348 0.7830
C2_5 C 0.6902(3) 0.85192(12) 0.74334(12)
H2_5 H 0.6773 0.8339 0.7304
C3_5 C 0.7368(4) 0.87787(12) 0.73119(12)
C4_5 C 0.7555(4) 0.90365(13) 0.75108(12)
H3_5 H 0.7873 0.9219 0.7434
C5_5 C 0.7262(3) 0.90177(12) 0.78245(11)
H4_5 H 0.7396 0.9191 0.7962
C6_5 C 0.7700(4) 0.87811(12) 0.69742(12)
C7_5 C 0.7187(3) 0.86283(13) 0.67373(12)
H5_5 H 0.6616 0.8526 0.6786
C8_5 C 0.7529(3) 0.86288(12) 0.64302(11)
H6_5 H 0.7171 0.8530 0.6269
C9_5 C 0.8829(3) 0.89091(12) 0.65787(12)
H7_5 H 0.9404 0.9006 0.6525
C10_5 C 0.8532(3) 0.89263(12) 0.68912(12)
H8_5 H 0.8891 0.9036 0.7046
C16_8 C 0.5383(3) 0.93179(11) 0.81261(12)
H13_8 H 0.5237 0.9170 0.7963
C17_8 C 0.5031(3) 0.96245(11) 0.81022(11)
H14_8 H 0.4680 0.9687 0.7922
C18_8 C 0.5201(3) 0.98381(11) 0.83458(12)
C19_8 C 0.5759(4) 0.97368(12) 0.86006(13)
H15_8 H 0.5891 0.9876 0.8773
C20_8 C 0.6109(4) 0.94342(13) 0.85959(13)
H16_8 H 0.6510 0.9371 0.8764
O2_5 O 0.4810(3) 0.85777(10) 0.82020(10)
C11_5 C 0.1327(3) 0.05701(12) 0.60139(13)
H9_5 H 0.1949 0.0624 0.6068
C12_5 C 0.1053(4) 0.02510(12) 0.60201(13)
H10_5 H 0.1490 0.0090 0.6073
C13_5 C 0.0155(3) 0.01713(10) 0.59495(12)
O3_8 O 0.2188(3) 0.10782(9) 0.86045(10)
N5_8 N 0.3195(3) 0.12286(9) 0.79420(9)
N7_8 N 0.3227(3) 0.16977(9) 0.84327(10)
C21_8 C 0.3375(3) 0.14744(11) 0.77477(12)
H17_8 H 0.3708 0.1652 0.7830
C22_8 C 0.3098(3) 0.14808(12) 0.74334(12)
H18_8 H 0.3227 0.1661 0.7304
C23_8 C 0.2632(4) 0.12213(12) 0.73119(12)
C24_8 C 0.2445(4) 0.09635(13) 0.75108(12)
H19_8 H 0.2127 0.0781 0.7434
C25_8 C 0.2738(3) 0.09823(12) 0.78245(11)
H20_8 H 0.2604 0.0809 0.7962
C26_8 C 0.2300(4) 0.12189(12) 0.69742(12)
C27_8 C 0.2813(3) 0.13717(13) 0.67373(12)
H21_8 H 0.3384 0.1474 0.6786
C28_8 C 0.2471(3) 0.13712(12) 0.64302(11)
H22_8 H 0.2829 0.1470 0.6269
C29_8 C 0.1171(3) 0.10909(12) 0.65787(12)
H23_8 H 0.0596 0.0994 0.6525
C30_8 C 0.1468(3) 0.10737(12) 0.68912(12)
H24_8 H 0.1109 0.0964 0.7046
O4_8 O 0.5190(3) 0.14223(10) 0.82020(10)
C34_5 C 0.0467(3) 0.95907(11) 0.58634(12)
H27_5 H 0.1092 0.9640 0.5810
C35_5 C 0.0146(3) 0.92799(11) 0.58579(12)
H28_5 H 0.0567 0.9116 0.5798
C14_5 C 0.9533(3) 0.04093(11) 0.58634(12)
H11_5 H 0.8908 0.0360 0.5810
C15_5 C 0.9854(3) 0.07201(11) 0.58579(12)
H12_5 H 0.9433 0.0884 0.5798
N6_4 N 0.9273(3) 0.91977(9) 0.59327(10)
C31_5 C 0.8673(3) 0.94299(12) 0.60139(13)
H25_5 H 0.8051 0.9376 0.6068
C32_5 C 0.8947(4) 0.97490(12) 0.60201(13)
H26_5 H 0.8510 0.9910 0.6073
C33_5 C 0.9845(3) 0.98287(10) 0.59495(12)
O1_6 O 0.0312(3) 0.85782(9) 0.61045(10)
C4_6 C 0.0055(4) 0.84635(13) 0.50108(12)
H3_6 H 0.0373 0.8281 0.4934
C6_6 C 0.0200(4) 0.87189(12) 0.44742(12)
C8_6 C 0.0029(3) 0.88712(12) 0.39302(11)
C9_6 C 0.1329(3) 0.85909(12) 0.40787(12)
H7_6 H 0.1904 0.8494 0.4025
C10_6 C 0.1032(3) 0.85737(12) 0.43912(12)
H8_6 H 0.1391 0.8464 0.4546
N1_6 N 0.9305(3) 0.87286(9) 0.54420(9)
C1_6 C 0.9125(3) 0.89744(11) 0.52477(12)
H1_6 H 0.8792 0.9152 0.5330
C2_6 C 0.9402(3) 0.89808(12) 0.49334(12)
H2_6 H 0.9273 0.9161 0.4804
C3_6 C 0.9868(4) 0.87213(12) 0.48119(12)
C5_6 C 0.9762(3) 0.84823(12) 0.53245(11)
H4_6 H 0.9896 0.8309 0.5462
C7_6 C 0.9687(3) 0.88717(13) 0.42373(12)
H5_6 H 0.9116 0.8974 0.4286
H6_6 H 0.9671 0.8970 0.3769
O2_6 O 0.7310(3) 0.89223(10) 0.57020(10)
C11_6 C 0.3827(3) 0.19299(12) 0.85139(13)
H9_6 H 0.4449 0.1876 0.8568
C12_6 C 0.3553(4) 0.22490(12) 0.85201(13)
H10_6 H 0.3990 0.2410 0.8573
C13_6 C 0.2655(3) 0.23287(10) 0.84495(12)
C14_6 C 0.2033(3) 0.20907(11) 0.83634(12)
H11_6 H 0.1408 0.2140 0.8310
C15_6 C 0.2354(3) 0.17799(11) 0.83579(12)
H12_6 H 0.1933 0.1616 0.8298
C31_6 C 0.1173(3) 0.30701(12) 0.85139(13)
H25_6 H 0.0551 0.3124 0.8568
C32_6 C 0.1447(4) 0.27510(12) 0.85201(13)
H26_6 H 0.1010 0.2590 0.8573
C33_6 C 0.2345(3) 0.26713(10) 0.84495(12)
C34_6 C 0.2967(3) 0.29093(11) 0.83634(12)
H27_6 H 0.3592 0.2860 0.8310
C35_6 C 0.2646(3) 0.32201(11) 0.83579(12)
H28_6 H 0.3067 0.3384 0.8298
O3_9 O 0.0312(3) 0.35782(9) 0.11045(10)
C24_9 C 0.0055(4) 0.34635(13) 0.00108(12)
H19_9 H 0.0373 0.3281 0.9934
C26_9 C 0.0200(4) 0.37189(12) 0.94742(12)
C28_9 C 0.0029(3) 0.38712(12) 0.89302(11)
C29_9 C 0.1329(3) 0.35909(12) 0.90787(12)
H23_9 H 0.1904 0.3494 0.9025
C30_9 C 0.1032(3) 0.35737(12) 0.93912(12)
H24_9 H 0.1391 0.3464 0.9546
N5_9 N 0.9305(3) 0.37286(9) 0.04420(9)
N7_9 N 0.9273(3) 0.41977(9) 0.09327(10)
C21_9 C 0.9125(3) 0.39744(11) 0.02477(12)
H17_9 H 0.8792 0.4152 0.0330
C25_9 C 0.9762(3) 0.34823(12) 0.03245(11)
H20_9 H 0.9896 0.3309 0.0462
O4_9 O 0.7310(3) 0.39223(10) 0.07020(10)
C22_9 C 0.9402(3) 0.39808(12) 0.99334(12)
H18_9 H 0.9273 0.4161 0.9804
C23_9 C 0.9868(4) 0.37213(12) 0.98119(12)
C27_9 C 0.9687(3) 0.38717(13) 0.92373(12)
H21_9 H 0.9116 0.3974 0.9286
H22_9 H 0.9671 0.3970 0.8769
C11_7 C 0.1327(3) 0.55701(12) 0.10139(13)
H9_7 H 0.1949 0.5624 0.1068
C12_7 C 0.1053(4) 0.52510(12) 0.10201(13)
H10_7 H 0.1490 0.5090 0.1073
C13_7 C 0.0155(3) 0.51713(10) 0.09495(12)
O3_10 O 0.2188(3) 0.60782(9) 0.36045(10)
N5_10 N 0.3195(3) 0.62286(9) 0.29420(9)
N7_10 N 0.3227(3) 0.66977(9) 0.34327(10)
C21_10 C 0.3375(3) 0.64744(11) 0.27477(12)
H17_10 H 0.3708 0.6652 0.2830
C22_10 C 0.3098(3) 0.64808(12) 0.24334(12)
H18_10 H 0.3227 0.6661 0.2304
C23_10 C 0.2632(4) 0.62213(12) 0.23119(12)
C24_10 C 0.2445(4) 0.59635(13) 0.25108(12)
H19_10 H 0.2127 0.5781 0.2434
C25_10 C 0.2738(3) 0.59823(12) 0.28245(11)
H20_10 H 0.2604 0.5809 0.2962
C26_10 C 0.2300(4) 0.62189(12) 0.19742(12)
C27_10 C 0.2813(3) 0.63717(13) 0.17373(12)
H21_10 H 0.3384 0.6474 0.1786
C28_10 C 0.2471(3) 0.63712(12) 0.14302(11)
H22_10 H 0.2829 0.6470 0.1269
C29_10 C 0.1171(3) 0.60909(12) 0.15787(12)
H23_10 H 0.0596 0.5994 0.1525
C30_10 C 0.1468(3) 0.60737(12) 0.18912(12)
H24_10 H 0.1109 0.5964 0.2046
C34_7 C 0.0467(3) 0.45907(11) 0.08634(12)
H27_7 H 0.1092 0.4640 0.0810
C35_7 C 0.0146(3) 0.42799(11) 0.08579(12)
H28_7 H 0.0567 0.4116 0.0798
O4_10 O 0.5190(3) 0.64223(10) 0.32020(10)
C14_7 C 0.9533(3) 0.54093(11) 0.08634(12)
H11_7 H 0.8908 0.5360 0.0810
C15_7 C 0.9854(3) 0.57201(11) 0.08579(12)
H12_7 H 0.9433 0.5884 0.0798
C31_7 C 0.8673(3) 0.44299(12) 0.10139(13)
H25_7 H 0.8051 0.4376 0.1068
C32_7 C 0.8947(4) 0.47490(12) 0.10201(13)
H26_7 H 0.8510 0.4910 0.1073
C33_7 C 0.9845(3) 0.48287(10) 0.09495(12)
C11_8 C 0.3827(3) 0.69299(12) 0.35139(13)
H9_8 H 0.4449 0.6876 0.3568
C12_8 C 0.3553(4) 0.72490(12) 0.35201(13)
H10_8 H 0.3990 0.7410 0.3573
C13_8 C 0.2655(3) 0.73287(10) 0.34495(12)
C14_8 C 0.2033(3) 0.70907(11) 0.33634(12)
H11_8 H 0.1408 0.7140 0.3310
C15_8 C 0.2354(3) 0.67799(11) 0.33579(12)
H12_8 H 0.1933 0.6616 0.3298
C31_8 C 0.1173(3) 0.80701(12) 0.35139(13)
H25_8 H 0.0551 0.8124 0.3568
C32_8 C 0.1447(4) 0.77510(12) 0.35201(13)
H26_8 H 0.1010 0.7590 0.3573
C33_8 C 0.2345(3) 0.76713(10) 0.34495(12)
C34_8 C 0.2967(3) 0.79093(11) 0.33634(12)
H27_8 H 0.3592 0.7860 0.3310
C35_8 C 0.2646(3) 0.82201(11) 0.33579(12)
H28_8 H 0.3067 0.8384 0.3298
Cu6 Cu 0.36273(5) 0.123421(12) 0.265572(11)
O5 O 0.2169(3) 0.10609(10) 0.28375(11)
N12 N 0.4106(4) 0.12439(10) 0.31095(11)
N13 N 0.4137(3) 0.07844(9) 0.26122(10)
N14 N 0.3248(3) 0.17015(10) 0.26874(11)
N15 N 0.5649(3) 0.12777(9) 0.47005(10)
C41 C 0.3936(4) 0.10028(12) 0.33065(12)
H33 H 0.3603 0.0824 0.3229
C42 C 0.4224(4) 0.10030(12) 0.36213(13)
H34 H 0.4087 0.0826 0.3754
C43 C 0.4712(4) 0.12607(12) 0.37418(12)
C44 C 0.4885(4) 0.15144(13) 0.35358(12)
H35 H 0.5212 0.1697 0.3608
C45 C 0.4576(4) 0.14979(13) 0.32242(12)
H36 H 0.4699 0.1672 0.3086
C46 C 0.5025(4) 0.12690(11) 0.40711(12)
C47 C 0.4511(4) 0.11350(14) 0.43138(13)
H37 H 0.3932 0.1037 0.4268
C48 C 0.4835(4) 0.11433(14) 0.46243(13)
H38 H 0.4469 0.1051 0.4787
C49 C 0.6146(3) 0.14139(12) 0.44651(12)
H39 H 0.6719 0.1513 0.4517
C50 C 0.5863(4) 0.14156(12) 0.41563(12)
H40 H 0.6234 0.1516 0.3999
C51 C 0.3586(4) 0.05446(13) 0.25247(13)
H41 H 0.2955 0.0588 0.2474
C52 C 0.3902(4) 0.02342(11) 0.25051(13)
H42 H 0.3497 0.0070 0.2436
C53 C 0.4822(3) 0.01632(11) 0.25877(12)
C54 C 0.5400(4) 0.04176(11) 0.26717(13)
H43 H 0.6037 0.0382 0.2720
C55 C 0.5028(4) 0.07220(11) 0.26838(13)
H44 H 0.5419 0.0893 0.2745
C56 C 0.2744(4) 0.18099(12) 0.29294(12)
H45 H 0.2584 0.1667 0.3096
C57 C 0.2443(4) 0.21228(13) 0.29476(12)
H46 H 0.2097 0.2195 0.3126
C58 C 0.2660(4) 0.23325(11) 0.26974(13)
C59 C 0.3179(4) 0.22155(13) 0.24510(14)
H47 H 0.3344 0.2352 0.2280
C60 C 0.3464(4) 0.19029(13) 0.24474(13)
H48 H 0.3820 0.1827 0.2273
N16 N 0.5665(5) 0.16703(17) 0.24725(15)
O6 O 0.5201(3) 0.14294(10) 0.24399(13)
O7 O 0.5998(8) 0.1813(3) 0.2704(2)
O8 O 0.5821(7) 0.1826(2) 0.22160(18)
Cu7 Cu 0.11273(5) 0.126579(12) 0.015572(11)
Cu8 Cu 0.61273(5) 0.126579(12) 0.515572(11)
Cu10 Cu 0.13727(5) 0.376579(12) 0.265572(11)
N17 N 0.1606(4) 0.12561(10) 0.06095(11)
N19 N 0.1637(3) 0.17156(9) 0.01122(10)
N20 N 0.1752(3) 0.32985(10) 0.26874(11)
N21 N 0.0748(3) 0.07985(10) 0.01874(11)
N22 N 0.3149(3) 0.12223(9) 0.22005(10)
C61 C 0.1436(4) 0.14972(12) 0.08065(12)
H49 H 0.1103 0.1676 0.0729
C62 C 0.1724(4) 0.14970(12) 0.11213(13)
H50 H 0.1587 0.1674 0.1254
C63 C 0.2212(4) 0.12393(12) 0.12418(12)
C64 C 0.2385(4) 0.09856(13) 0.10358(12)
H51 H 0.2712 0.0803 0.1108
C65 C 0.2076(4) 0.10021(13) 0.07242(12)
H52 H 0.2199 0.0828 0.0586
C66 C 0.2525(4) 0.12310(11) 0.15711(12)
C67 C 0.2011(4) 0.13650(14) 0.18138(13)
H53 H 0.1432 0.1463 0.1768
C68 C 0.2335(4) 0.13567(14) 0.21243(13)
H54 H 0.1969 0.1449 0.2287
C69 C 0.3646(3) 0.10861(12) 0.19651(12)
H55 H 0.4219 0.0987 0.2017
C70 C 0.3363(4) 0.10844(12) 0.16563(12)
H56 H 0.3734 0.0984 0.1499
C76 C 0.2256(4) 0.31901(12) 0.29294(12)
H61 H 0.2416 0.3333 0.3096
C77 C 0.2557(4) 0.28772(13) 0.29476(12)
H62 H 0.2903 0.2805 0.3126
C78 C 0.2340(4) 0.26675(11) 0.26974(13)
C79 C 0.1821(4) 0.27845(13) 0.24510(14)
H63 H 0.1656 0.2648 0.2280
C80 C 0.1536(4) 0.30971(13) 0.24474(13)
H64 H 0.1180 0.3173 0.2273
O11 O 0.3498(8) 0.0687(3) 0.0204(2)
N23 N 0.0649(3) 0.12777(9) 0.97005(10)
N24 N 0.3165(5) 0.08297(17) 0.99725(15)
O10 O 0.2701(3) 0.10706(10) 0.99399(13)
O12 O 0.3321(7) 0.0674(2) 0.97160(18)
Cu9 Cu 0.63727(5) 0.876579(12) 0.265572(11)
N18 N 0.5863(3) 0.92156(9) 0.26122(10)
C71 C 0.6414(4) 0.94554(13) 0.25247(13)
H57 H 0.7045 0.9412 0.2474
C72 C 0.6098(4) 0.97658(11) 0.25051(13)
H58 H 0.6503 0.9930 0.2436
C73 C 0.5178(3) 0.98368(11) 0.25877(12)
C74 C 0.4600(4) 0.95824(11) 0.26717(13)
H59 H 0.3963 0.9618 0.2720
C75 C 0.4972(4) 0.92780(11) 0.26838(13)
H60 H 0.4581 0.9107 0.2745
O5_2 O 0.7831(3) 0.89391(10) 0.28375(11)
N12_2 N 0.5894(4) 0.87561(10) 0.31095(11)
N14_2 N 0.6752(3) 0.82985(10) 0.26874(11)
N15_2 N 0.4351(3) 0.87223(9) 0.47005(10)
C41_2 C 0.6064(4) 0.89972(12) 0.33065(12)
H33_2 H 0.6397 0.9176 0.3229
C42_2 C 0.5776(4) 0.89970(12) 0.36213(13)
H34_2 H 0.5913 0.9174 0.3754
C43_2 C 0.5288(4) 0.87393(12) 0.37418(12)
C44_2 C 0.5115(4) 0.84856(13) 0.35358(12)
H35_2 H 0.4788 0.8303 0.3608
C45_2 C 0.5424(4) 0.85021(13) 0.32242(12)
H36_2 H 0.5301 0.8328 0.3086
C46_2 C 0.4975(4) 0.87310(11) 0.40711(12)
C47_2 C 0.5489(4) 0.88650(14) 0.43138(13)
H37_2 H 0.6068 0.8963 0.4268
C48_2 C 0.5165(4) 0.88567(14) 0.46243(13)
H38_2 H 0.5531 0.8949 0.4787
C49_2 C 0.3854(3) 0.85861(12) 0.44651(12)
H39_2 H 0.3281 0.8487 0.4517
C50_2 C 0.4137(4) 0.85844(12) 0.41563(12)
H40_2 H 0.3766 0.8484 0.3999
C56_2 C 0.7256(4) 0.81901(12) 0.29294(12)
H45_2 H 0.7416 0.8333 0.3096
C57_2 C 0.7557(4) 0.78772(13) 0.29476(12)
H46_2 H 0.7903 0.7805 0.3126
C58_2 C 0.7340(4) 0.76675(11) 0.26974(13)
C59_2 C 0.6821(4) 0.77845(13) 0.24510(14)
H47_2 H 0.6656 0.7648 0.2280
C60_2 C 0.6536(4) 0.80971(13) 0.24474(13)
H48_2 H 0.6180 0.8173 0.2273
N16_2 N 0.4335(5) 0.83297(17) 0.24725(15)
O6_2 O 0.4799(3) 0.85706(10) 0.24399(13)
O7_2 O 0.4002(8) 0.8187(3) 0.2704(2)
O8_2 O 0.4179(7) 0.8174(2) 0.22160(18)
Cu7_2 Cu 0.88727(5) 0.873421(12) 0.015572(11)
Cu8_2 Cu 0.38727(5) 0.873421(12) 0.515572(11)
Cu10_2 Cu 0.86273(5) 0.623421(12) 0.265572(11)
N17_2 N 0.8394(4) 0.87439(10) 0.06095(11)
N19_2 N 0.8363(3) 0.82844(9) 0.01122(10)
N20_2 N 0.8248(3) 0.67015(10) 0.26874(11)
N21_2 N 0.9252(3) 0.92015(10) 0.01874(11)
N22_2 N 0.6851(3) 0.87777(9) 0.22005(10)
C61_2 C 0.8564(4) 0.85028(12) 0.08065(12)
H49_2 H 0.8897 0.8324 0.0729
C62_2 C 0.8276(4) 0.85030(12) 0.11213(13)
H50_2 H 0.8413 0.8326 0.1254
C63_2 C 0.7788(4) 0.87607(12) 0.12418(12)
C64_2 C 0.7615(4) 0.90144(13) 0.10358(12)
H51_2 H 0.7288 0.9197 0.1108
C65_2 C 0.7924(4) 0.89979(13) 0.07242(12)
H52_2 H 0.7801 0.9172 0.0586
C66_2 C 0.7475(4) 0.87690(11) 0.15711(12)
C67_2 C 0.7989(4) 0.86350(14) 0.18138(13)
H53_2 H 0.8568 0.8537 0.1768
C68_2 C 0.7665(4) 0.86433(14) 0.21243(13)
H54_2 H 0.8031 0.8551 0.2287
C69_2 C 0.6354(3) 0.89139(12) 0.19651(12)
H55_2 H 0.5781 0.9013 0.2017
C70_2 C 0.6637(4) 0.89156(12) 0.16563(12)
H56_2 H 0.6266 0.9016 0.1499
C76_2 C 0.7744(4) 0.68099(12) 0.29294(12)
H61_2 H 0.7584 0.6667 0.3096
C77_2 C 0.7443(4) 0.71228(13) 0.29476(12)
H62_2 H 0.7097 0.7195 0.3126
C78_2 C 0.7660(4) 0.73325(11) 0.26974(13)
C79_2 C 0.8179(4) 0.72155(13) 0.24510(14)
H63_2 H 0.8344 0.7352 0.2280
C80_2 C 0.8464(4) 0.69029(13) 0.24474(13)
H64_2 H 0.8820 0.6827 0.2273
O11_2 O 0.6502(8) 0.9313(3) 0.0204(2)
N23_2 N 0.9351(3) 0.87223(9) 0.97005(10)
N24_2 N 0.6835(5) 0.91703(17) 0.99725(15)
O10_2 O 0.7299(3) 0.89294(10) 0.99399(13)
O12_2 O 0.6679(7) 0.9326(2) 0.97160(18)
O5_3 O 0.4669(3) 0.14391(10) 0.53375(11)
N12_3 N 0.6606(4) 0.12561(10) 0.56095(11)
N13_2 N 0.6637(3) 0.17156(9) 0.51122(10)
N14_3 N 0.5748(3) 0.07985(10) 0.51874(11)
N15_3 N 0.8149(3) 0.12223(9) 0.72005(10)
C41_3 C 0.6436(4) 0.14972(12) 0.58065(12)
H33_3 H 0.6103 0.1676 0.5729
C42_3 C 0.6724(4) 0.14970(12) 0.61213(13)
H34_3 H 0.6587 0.1674 0.6254
C43_3 C 0.7212(4) 0.12393(12) 0.62418(12)
C44_3 C 0.7385(4) 0.09856(13) 0.60358(12)
H35_3 H 0.7712 0.0803 0.6108
C45_3 C 0.7076(4) 0.10021(13) 0.57242(12)
H36_3 H 0.7199 0.0828 0.5586
C46_3 C 0.7525(4) 0.12310(11) 0.65711(12)
C47_3 C 0.7011(4) 0.13650(14) 0.68138(13)
H37_3 H 0.6432 0.1463 0.6768
C48_3 C 0.7335(4) 0.13567(14) 0.71243(13)
H38_3 H 0.6969 0.1449 0.7287
C49_3 C 0.8646(3) 0.10861(12) 0.69651(12)
H39_3 H 0.9219 0.0987 0.7017
C50_3 C 0.8363(4) 0.10844(12) 0.66563(12)
H40_3 H 0.8734 0.0984 0.6499
C51_2 C 0.6086(4) 0.19554(13) 0.50247(13)
H41_2 H 0.5455 0.1912 0.4974
C52_2 C 0.6402(4) 0.22658(11) 0.50051(13)
H42_2 H 0.5997 0.2430 0.4936
C53_2 C 0.7322(3) 0.23368(11) 0.50877(12)
C54_2 C 0.7900(4) 0.20824(11) 0.51717(13)
H43_2 H 0.8537 0.2118 0.5220
C55_2 C 0.7528(4) 0.17780(11) 0.51838(13)
H44_2 H 0.7919 0.1607 0.5245
C56_3 C 0.5244(4) 0.06901(12) 0.54294(12)
H45_3 H 0.5084 0.0833 0.5596
C57_3 C 0.4943(4) 0.03772(13) 0.54476(12)
H46_3 H 0.4597 0.0305 0.5626
C58_3 C 0.5160(4) 0.01675(11) 0.51974(13)
C59_3 C 0.5679(4) 0.02845(13) 0.49510(14)
H47_3 H 0.5844 0.0148 0.4780
C60_3 C 0.5964(4) 0.05971(13) 0.49474(13)
H48_3 H 0.6320 0.0673 0.4773
N16_3 N 0.8165(5) 0.08297(17) 0.49725(15)
O6_3 O 0.7701(3) 0.10706(10) 0.49399(13)
O7_3 O 0.8498(8) 0.0687(3) 0.5204(2)
O8_3 O 0.8321(7) 0.0674(2) 0.47160(18)
Cu8_3 Cu 0.86273(5) 0.123421(12) 0.765572(11)
Cu9_2 Cu 0.88727(5) 0.373421(12) 0.515572(11)
N18_2 N 0.8363(3) 0.32844(9) 0.51122(10)
C71_2 C 0.8914(4) 0.30446(13) 0.50247(13)
H57_2 H 0.9545 0.3088 0.4974
C72_2 C 0.8598(4) 0.27342(11) 0.50051(13)
H58_2 H 0.9003 0.2570 0.4936
C73_2 C 0.7678(3) 0.26632(11) 0.50877(12)
C74_2 C 0.7100(4) 0.29176(11) 0.51717(13)
H59_2 H 0.6463 0.2882 0.5220
C75_2 C 0.7472(4) 0.32220(11) 0.51838(13)
H60_2 H 0.7081 0.3393 0.5245
N20_3 N 0.4252(3) 0.92015(10) 0.51874(11)
C76_3 C 0.4756(4) 0.93099(12) 0.54294(12)
H61_3 H 0.4916 0.9167 0.5596
C77_3 C 0.5057(4) 0.96228(13) 0.54476(12)
H62_3 H 0.5403 0.9695 0.5626
C78_3 C 0.4840(4) 0.98325(11) 0.51974(13)
C79_3 C 0.4321(4) 0.97155(13) 0.49510(14)
H63_3 H 0.4156 0.9852 0.4780
C80_3 C 0.4036(4) 0.94029(13) 0.49474(13)
H64_3 H 0.3680 0.9327 0.4773
O5_4 O 0.0331(3) 0.35609(10) 0.53375(11)
C57_4 C 0.0057(4) 0.46228(13) 0.54476(12)
H46_4 H 0.0403 0.4695 0.5626
Cu10_3 Cu 0.11273(5) 0.626579(12) 0.515572(11)
O9 O 0.2831(3) 0.39391(10) 0.28375(11)
N17_3 N 0.0894(4) 0.37561(10) 0.31095(11)
N19_3 N 0.0863(3) 0.42156(9) 0.26122(10)
N20_4 N 0.0748(3) 0.57985(10) 0.51874(11)
N23_3 N 0.1851(3) 0.37777(9) 0.22005(10)
C61_3 C 0.1064(4) 0.39972(12) 0.33065(12)
H49_3 H 0.1397 0.4176 0.3229
C62_3 C 0.0776(4) 0.39970(12) 0.36213(13)
H50_3 H 0.0913 0.4174 0.3754
C63_3 C 0.0288(4) 0.37393(12) 0.37418(12)
C64_3 C 0.0115(4) 0.34856(13) 0.35358(12)
C65_3 C 0.0424(4) 0.35021(13) 0.32242(12)
H52_3 H 0.0301 0.3328 0.3086
C67_3 C 0.0489(4) 0.38650(14) 0.43138(13)
H53_3 H 0.1068 0.3963 0.4268
C68_3 C 0.0165(4) 0.38567(14) 0.46243(13)
H54_3 H 0.0531 0.3949 0.4787
C76_4 C 0.0244(4) 0.56901(12) 0.54294(12)
H61_4 H 0.0084 0.5833 0.5596
C78_4 C 0.0160(4) 0.51675(11) 0.51974(13)
C79_4 C 0.0679(4) 0.52845(13) 0.49510(14)
H63_4 H 0.0844 0.5148 0.4780
C80_4 C 0.0964(4) 0.55971(13) 0.49474(13)
H64_4 H 0.1320 0.5673 0.4773
N12_4 N 0.8394(4) 0.37439(10) 0.56095(11)
N14_4 N 0.9252(3) 0.42015(10) 0.51874(11)
N15_4 N 0.6851(3) 0.37777(9) 0.72005(10)
C41_4 C 0.8564(4) 0.35028(12) 0.58065(12)
H33_4 H 0.8897 0.3324 0.5729
C42_4 C 0.8276(4) 0.35030(12) 0.61213(13)
H34_4 H 0.8413 0.3326 0.6254
C43_4 C 0.7788(4) 0.37607(12) 0.62418(12)
C44_4 C 0.7615(4) 0.40144(13) 0.60358(12)
H35_4 H 0.7288 0.4197 0.6108
C45_4 C 0.7924(4) 0.39979(13) 0.57242(12)
H36_4 H 0.7801 0.4172 0.5586
C46_4 C 0.7475(4) 0.37690(11) 0.65711(12)
C47_4 C 0.7989(4) 0.36350(14) 0.68138(13)
H37_4 H 0.8568 0.3537 0.6768
C48_4 C 0.7665(4) 0.36433(14) 0.71243(13)
H38_4 H 0.8031 0.3551 0.7287
C49_4 C 0.6354(3) 0.39139(12) 0.69651(12)
H39_4 H 0.5781 0.4013 0.7017
C50_4 C 0.6637(4) 0.39156(12) 0.66563(12)
H40_4 H 0.6266 0.4016 0.6499
C56_4 C 0.9756(4) 0.43099(12) 0.54294(12)
H45_4 H 0.9916 0.4167 0.5596
C58_4 C 0.9840(4) 0.48325(11) 0.51974(13)
C59_4 C 0.9321(4) 0.47155(13) 0.49510(14)
H47_4 H 0.9156 0.4852 0.4780
C60_4 C 0.9036(4) 0.44029(13) 0.49474(13)
H48_4 H 0.8680 0.4327 0.4773
N16_4 N 0.6835(5) 0.41703(17) 0.49725(15)
O6_4 O 0.7299(3) 0.39294(10) 0.49399(13)
O7_4 O 0.6502(8) 0.4313(3) 0.5204(2)
O8_4 O 0.6679(7) 0.4326(2) 0.47160(18)
Cu8_4 Cu 0.63727(5) 0.376579(12) 0.765572(11)
N22_3 N 0.9351(3) 0.37223(9) 0.47005(10)
H51_3 H 0.9788 0.3303 0.3608
C66_3 C 0.9975(4) 0.37310(11) 0.40711(12)
C69_3 C 0.8854(3) 0.35861(12) 0.44651(12)
H55_3 H 0.8281 0.3487 0.4517
C70_3 C 0.9137(4) 0.35844(12) 0.41563(12)
H56_3 H 0.8766 0.3484 0.3999
C77_4 C 0.9943(4) 0.53772(13) 0.54476(12)
H62_4 H 0.9597 0.5305 0.5626
N24_3 N 0.9335(5) 0.33297(17) 0.24725(15)
O10_3 O 0.9799(3) 0.35706(10) 0.24399(13)
O11_3 O 0.9002(8) 0.3187(3) 0.2704(2)
O12_3 O 0.9179(7) 0.3174(2) 0.22160(18)
Cu8_5 Cu 0.61273(5) 0.626579(12) 0.015572(11)
Cu6_2 Cu 0.36273(5) 0.623421(12) 0.765572(11)
O5_5 O 0.2169(3) 0.60609(10) 0.78375(11)
N12_5 N 0.4106(4) 0.62439(10) 0.81095(11)
N13_3 N 0.4137(3) 0.57844(9) 0.76122(10)
N14_5 N 0.3248(3) 0.67015(10) 0.76874(11)
N15_5 N 0.5649(3) 0.62777(9) 0.97005(10)
C41_5 C 0.3936(4) 0.60028(12) 0.83065(12)
H33_5 H 0.3603 0.5824 0.8229
C42_5 C 0.4224(4) 0.60030(12) 0.86213(13)
H34_5 H 0.4087 0.5826 0.8754
C43_5 C 0.4712(4) 0.62607(12) 0.87418(12)
C44_5 C 0.4885(4) 0.65144(13) 0.85358(12)
H35_5 H 0.5212 0.6697 0.8608
C45_5 C 0.4576(4) 0.64979(13) 0.82242(12)
H36_5 H 0.4699 0.6672 0.8086
C46_5 C 0.5025(4) 0.62690(11) 0.90711(12)
C47_5 C 0.4511(4) 0.61350(14) 0.93138(13)
H37_5 H 0.3932 0.6037 0.9268
C48_5 C 0.4835(4) 0.61433(14) 0.96243(13)
H38_5 H 0.4469 0.6051 0.9787
C49_5 C 0.6146(3) 0.64139(12) 0.94651(12)
H39_5 H 0.6719 0.6513 0.9517
C50_5 C 0.5863(4) 0.64156(12) 0.91563(12)
H40_5 H 0.6234 0.6516 0.8999
C51_3 C 0.3586(4) 0.55446(13) 0.75247(13)
H41_3 H 0.2955 0.5588 0.7474
C52_3 C 0.3902(4) 0.52342(11) 0.75051(13)
H42_3 H 0.3497 0.5070 0.7436
C53_3 C 0.4822(3) 0.51632(11) 0.75877(12)
C54_3 C 0.5400(4) 0.54176(11) 0.76717(13)
H43_3 H 0.6037 0.5382 0.7720
C55_3 C 0.5028(4) 0.57220(11) 0.76838(13)
H44_3 H 0.5419 0.5893 0.7745
C56_5 C 0.2744(4) 0.68099(12) 0.79294(12)
H45_5 H 0.2584 0.6667 0.8096
C57_5 C 0.2443(4) 0.71228(13) 0.79476(12)
H46_5 H 0.2097 0.7195 0.8126
C58_5 C 0.2660(4) 0.73325(11) 0.76974(13)
C59_5 C 0.3179(4) 0.72155(13) 0.74510(14)
H47_5 H 0.3344 0.7352 0.7280
C60_5 C 0.3464(4) 0.69029(13) 0.74474(13)
H48_5 H 0.3820 0.6827 0.7273
N16_5 N 0.5665(5) 0.66703(17) 0.74725(15)
O6_5 O 0.5201(3) 0.64294(10) 0.74399(13)
O7_5 O 0.5998(8) 0.6813(3) 0.7704(2)
O8_5 O 0.5821(7) 0.6826(2) 0.72160(18)
Cu10_4 Cu 0.13727(5) 0.876579(12) 0.765572(11)
N17_4 N 0.1606(4) 0.62561(10) 0.56095(11)
N18_3 N 0.5863(3) 0.42156(9) 0.76122(10)
N19_4 N 0.1637(3) 0.67156(9) 0.51122(10)
N20_5 N 0.1752(3) 0.82985(10) 0.76874(11)
N22_4 N 0.3149(3) 0.62223(9) 0.72005(10)
N23_4 N 0.0649(3) 0.62777(9) 0.47005(10)
C61_4 C 0.1436(4) 0.64972(12) 0.58065(12)
H49_4 H 0.1103 0.6676 0.5729
C62_4 C 0.1724(4) 0.64970(12) 0.61213(13)
H50_4 H 0.1587 0.6674 0.6254
C63_4 C 0.2212(4) 0.62393(12) 0.62418(12)
C64_4 C 0.2385(4) 0.59856(13) 0.60358(12)
H51_4 H 0.2712 0.5803 0.6108
C65_4 C 0.2076(4) 0.60021(13) 0.57242(12)
H52_4 H 0.2199 0.5828 0.5586
C66_4 C 0.2525(4) 0.62310(11) 0.65711(12)
C67_4 C 0.2011(4) 0.63650(14) 0.68138(13)
H53_4 H 0.1432 0.6463 0.6768
C68_4 C 0.2335(4) 0.63567(14) 0.71243(13)
H54_4 H 0.1969 0.6449 0.7287
C69_4 C 0.3646(3) 0.60861(12) 0.69651(12)
H55_4 H 0.4219 0.5987 0.7017
C70_4 C 0.3363(4) 0.60844(12) 0.66563(12)
H56_4 H 0.3734 0.5984 0.6499
C71_3 C 0.6414(4) 0.44554(13) 0.75247(13)
H57_3 H 0.7045 0.4412 0.7474
C72_3 C 0.6098(4) 0.47658(11) 0.75051(13)
H58_3 H 0.6503 0.4930 0.7436
C73_3 C 0.5178(3) 0.48368(11) 0.75877(12)
C74_3 C 0.4600(4) 0.45824(11) 0.76717(13)
H59_3 H 0.3963 0.4618 0.7720
C75_3 C 0.4972(4) 0.42780(11) 0.76838(13)
H60_3 H 0.4581 0.4107 0.7745
C76_5 C 0.2256(4) 0.81901(12) 0.79294(12)
H61_5 H 0.2416 0.8333 0.8096
C77_5 C 0.2557(4) 0.78772(13) 0.79476(12)
H62_5 H 0.2903 0.7805 0.8126
C78_5 C 0.2340(4) 0.76675(11) 0.76974(13)
C79_5 C 0.1821(4) 0.77845(13) 0.74510(14)
H63_5 H 0.1656 0.7648 0.7280
C80_5 C 0.1536(4) 0.80971(13) 0.74474(13)
H64_5 H 0.1180 0.8173 0.7273
N24_4 N 0.3165(5) 0.58297(17) 0.49725(15)
O10_4 O 0.2701(3) 0.60706(10) 0.49399(13)
O11_4 O 0.3498(8) 0.5687(3) 0.5204(2)
O12_4 O 0.3321(7) 0.5674(2) 0.47160(18)
O9_2 O 0.9669(3) 0.64391(10) 0.53375(11)
Cu8_6 Cu 0.38727(5) 0.373421(12) 0.015572(11)
O5_6 O 0.7831(3) 0.39391(10) 0.78375(11)
N12_6 N 0.5894(4) 0.37561(10) 0.81095(11)
N14_6 N 0.6752(3) 0.32985(10) 0.76874(11)
N15_6 N 0.4351(3) 0.37223(9) 0.97005(10)
C41_6 C 0.6064(4) 0.39972(12) 0.83065(12)
H33_6 H 0.6397 0.4176 0.8229
C42_6 C 0.5776(4) 0.39970(12) 0.86213(13)
H34_6 H 0.5913 0.4174 0.8754
C43_6 C 0.5288(4) 0.37393(12) 0.87418(12)
C44_6 C 0.5115(4) 0.34856(13) 0.85358(12)
H35_6 H 0.4788 0.3303 0.8608
C45_6 C 0.5424(4) 0.35021(13) 0.82242(12)
H36_6 H 0.5301 0.3328 0.8086
C46_6 C 0.4975(4) 0.37310(11) 0.90711(12)
C47_6 C 0.5489(4) 0.38650(14) 0.93138(13)
H37_6 H 0.6068 0.3963 0.9268
C48_6 C 0.5165(4) 0.38567(14) 0.96243(13)
H38_6 H 0.5531 0.3949 0.9787
C49_6 C 0.3854(3) 0.35861(12) 0.94651(12)
H39_6 H 0.3281 0.3487 0.9517
C50_6 C 0.4137(4) 0.35844(12) 0.91563(12)
H40_6 H 0.3766 0.3484 0.8999
C56_6 C 0.7256(4) 0.31901(12) 0.79294(12)
H45_6 H 0.7416 0.3333 0.8096
C57_6 C 0.7557(4) 0.28772(13) 0.79476(12)
H46_6 H 0.7903 0.2805 0.8126
C58_6 C 0.7340(4) 0.26675(11) 0.76974(13)
C59_6 C 0.6821(4) 0.27845(13) 0.74510(14)
H47_6 H 0.6656 0.2648 0.7280
C60_6 C 0.6536(4) 0.30971(13) 0.74474(13)
H48_6 H 0.6180 0.3173 0.7273
N16_6 N 0.4335(5) 0.33297(17) 0.74725(15)
O6_6 O 0.4799(3) 0.35706(10) 0.74399(13)
O7_6 O 0.4002(8) 0.3187(3) 0.7704(2)
O8_6 O 0.4179(7) 0.3174(2) 0.72160(18)
N20_6 N 0.8248(3) 0.17015(10) 0.76874(11)
C76_6 C 0.7744(4) 0.18099(12) 0.79294(12)
H61_6 H 0.7584 0.1667 0.8096
C77_6 C 0.7443(4) 0.21228(13) 0.79476(12)
H62_6 H 0.7097 0.2195 0.8126
C78_6 C 0.7660(4) 0.23325(11) 0.76974(13)
C79_6 C 0.8179(4) 0.22155(13) 0.74510(14)
H63_6 H 0.8344 0.2352 0.7280
C80_6 C 0.8464(4) 0.19029(13) 0.74474(13)
H64_6 H 0.8820 0.1827 0.7273
O5_7 O 0.4669(3) 0.64391(10) 0.03375(11)
N12_7 N 0.6606(4) 0.62561(10) 0.06095(11)
N13_4 N 0.6637(3) 0.67156(9) 0.01122(10)
N14_7 N 0.5748(3) 0.57985(10) 0.01874(11)
N15_7 N 0.8149(3) 0.62223(9) 0.22005(10)
C41_7 C 0.6436(4) 0.64972(12) 0.08065(12)
H33_7 H 0.6103 0.6676 0.0729
C42_7 C 0.6724(4) 0.64970(12) 0.11213(13)
H34_7 H 0.6587 0.6674 0.1254
C43_7 C 0.7212(4) 0.62393(12) 0.12418(12)
C44_7 C 0.7385(4) 0.59856(13) 0.10358(12)
H35_7 H 0.7712 0.5803 0.1108
C45_7 C 0.7076(4) 0.60021(13) 0.07242(12)
H36_7 H 0.7199 0.5828 0.0586
C46_7 C 0.7525(4) 0.62310(11) 0.15711(12)
C47_7 C 0.7011(4) 0.63650(14) 0.18138(13)
H37_7 H 0.6432 0.6463 0.1768
C48_7 C 0.7335(4) 0.63567(14) 0.21243(13)
H38_7 H 0.6969 0.6449 0.2287
C49_7 C 0.8646(3) 0.60861(12) 0.19651(12)
H39_7 H 0.9219 0.5987 0.2017
C50_7 C 0.8363(4) 0.60844(12) 0.16563(12)
H40_7 H 0.8734 0.5984 0.1499
C51_4 C 0.6086(4) 0.69554(13) 0.00247(13)
C52_4 C 0.6402(4) 0.72658(11) 0.00051(13)
C53_4 C 0.7322(3) 0.73368(11) 0.00877(12)
C54_4 C 0.7900(4) 0.70824(11) 0.01717(13)
H43_4 H 0.8537 0.7118 0.0220
C55_4 C 0.7528(4) 0.67780(11) 0.01838(13)
H44_4 H 0.7919 0.6607 0.0245
C56_7 C 0.5244(4) 0.56901(12) 0.04294(12)
H45_7 H 0.5084 0.5833 0.0596
C57_7 C 0.4943(4) 0.53772(13) 0.04476(12)
H46_7 H 0.4597 0.5305 0.0626
C58_7 C 0.5160(4) 0.51675(11) 0.01974(13)
O7_7 O 0.8498(8) 0.5687(3) 0.0204(2)
N20_7 N 0.4252(3) 0.42015(10) 0.01874(11)
C71_4 C 0.8914(4) 0.80446(13) 0.00247(13)
C72_4 C 0.8598(4) 0.77342(11) 0.00051(13)
C73_4 C 0.7678(3) 0.76632(11) 0.00877(12)
C74_4 C 0.7100(4) 0.79176(11) 0.01717(13)
H59_4 H 0.6463 0.7882 0.0220
C75_4 C 0.7472(4) 0.82220(11) 0.01838(13)
H60_4 H 0.7081 0.8393 0.0245
C76_7 C 0.4756(4) 0.43099(12) 0.04294(12)
H61_7 H 0.4916 0.4167 0.0596
C77_7 C 0.5057(4) 0.46228(13) 0.04476(12)
H62_7 H 0.5403 0.4695 0.0626
C78_7 C 0.4840(4) 0.48325(11) 0.01974(13)
H41_4 H 0.5455 0.6912 0.9974
H42_4 H 0.5997 0.7430 0.9936
C59_7 C 0.5679(4) 0.52845(13) 0.99510(14)
H47_7 H 0.5844 0.5148 0.9780
C60_7 C 0.5964(4) 0.55971(13) 0.99474(13)
H48_7 H 0.6320 0.5673 0.9773
N16_7 N 0.8165(5) 0.58297(17) 0.99725(15)
O6_7 O 0.7701(3) 0.60706(10) 0.99399(13)
O8_7 O 0.8321(7) 0.5674(2) 0.97160(18)
H57_4 H 0.9545 0.8088 0.9974
H58_4 H 0.9003 0.7570 0.9936
C79_7 C 0.4321(4) 0.47155(13) 0.99510(14)
H63_7 H 0.4156 0.4852 0.9780
C80_7 C 0.4036(4) 0.44029(13) 0.99474(13)
H64_7 H 0.3680 0.4327 0.9773
C76_8 C 0.0244(4) 0.06901(12) 0.04294(12)
H61_8 H 0.0084 0.0833 0.0596
C78_8 C 0.0160(4) 0.01675(11) 0.01974(13)
C79_8 C 0.0679(4) 0.02845(13) 0.99510(14)
H63_8 H 0.0844 0.0148 0.9780
C80_8 C 0.0964(4) 0.05971(13) 0.99474(13)
H64_8 H 0.1320 0.0673 0.9773
O9_3 O 0.2831(3) 0.89391(10) 0.78375(11)
N17_5 N 0.0894(4) 0.87561(10) 0.81095(11)
N19_5 N 0.0863(3) 0.92156(9) 0.76122(10)
N23_5 N 0.1851(3) 0.87777(9) 0.72005(10)
C61_5 C 0.1064(4) 0.89972(12) 0.83065(12)
H49_5 H 0.1397 0.9176 0.8229
C62_5 C 0.0776(4) 0.89970(12) 0.86213(13)
H50_5 H 0.0913 0.9174 0.8754
C63_5 C 0.0288(4) 0.87393(12) 0.87418(12)
C64_5 C 0.0115(4) 0.84856(13) 0.85358(12)
C65_5 C 0.0424(4) 0.85021(13) 0.82242(12)
H52_5 H 0.0301 0.8328 0.8086
C67_5 C 0.0489(4) 0.88650(14) 0.93138(13)
H53_5 H 0.1068 0.8963 0.9268
C68_5 C 0.0165(4) 0.88567(14) 0.96243(13)
H54_5 H 0.0531 0.8949 0.9787
C56_8 C 0.9756(4) 0.93099(12) 0.04294(12)
H45_8 H 0.9916 0.9167 0.0596
C58_8 C 0.9840(4) 0.98325(11) 0.01974(13)
C59_8 C 0.9321(4) 0.97155(13) 0.99510(14)
H47_8 H 0.9156 0.9852 0.9780
C60_8 C 0.9036(4) 0.94029(13) 0.99474(13)
H48_8 H 0.8680 0.9327 0.9773
H51_5 H 0.9788 0.8303 0.8608
C66_5 C 0.9975(4) 0.87310(11) 0.90711(12)
C69_5 C 0.8854(3) 0.85861(12) 0.94651(12)
H55_5 H 0.8281 0.8487 0.9517
C70_5 C 0.9137(4) 0.85844(12) 0.91563(12)
H56_5 H 0.8766 0.8484 0.8999
N24_5 N 0.9335(5) 0.83297(17) 0.74725(15)
O10_5 O 0.9799(3) 0.85706(10) 0.74399(13)
O11_5 O 0.9002(8) 0.8187(3) 0.7704(2)
O12_5 O 0.9179(7) 0.8174(2) 0.72160(18)
H35_8 H 0.0212 0.1697 0.8608
C46_8 C 0.0025(4) 0.12690(11) 0.90711(12)
C49_8 C 0.1146(3) 0.14139(12) 0.94651(12)
H39_8 H 0.1719 0.1513 0.9517
C50_8 C 0.0863(4) 0.14156(12) 0.91563(12)
H40_8 H 0.1234 0.1516 0.8999
C54_5 C 0.0400(4) 0.04176(11) 0.76717(13)
H43_5 H 0.1037 0.0382 0.7720
C55_5 C 0.0028(4) 0.07220(11) 0.76838(13)
H44_5 H 0.0419 0.0893 0.7745
N16_8 N 0.0665(5) 0.16703(17) 0.74725(15)
O6_8 O 0.0201(3) 0.14294(10) 0.74399(13)
O7_8 O 0.0998(8) 0.1813(3) 0.7704(2)
O8_8 O 0.0821(7) 0.1826(2) 0.72160(18)
C71_5 C 0.1414(4) 0.94554(13) 0.75247(13)
H57_5 H 0.2045 0.9412 0.7474
C72_5 C 0.1098(4) 0.97658(11) 0.75051(13)
H58_5 H 0.1503 0.9930 0.7436
C73_5 C 0.0178(3) 0.98368(11) 0.75877(12)
O5_8 O 0.7169(3) 0.10609(10) 0.78375(11)
N12_8 N 0.9106(4) 0.12439(10) 0.81095(11)
N13_5 N 0.9137(3) 0.07844(9) 0.76122(10)
C41_8 C 0.8936(4) 0.10028(12) 0.83065(12)
H33_8 H 0.8603 0.0824 0.8229
C42_8 C 0.9224(4) 0.10030(12) 0.86213(13)
H34_8 H 0.9087 0.0826 0.8754
C43_8 C 0.9712(4) 0.12607(12) 0.87418(12)
C44_8 C 0.9885(4) 0.15144(13) 0.85358(12)
C45_8 C 0.9576(4) 0.14979(13) 0.82242(12)
H36_8 H 0.9699 0.1672 0.8086
C47_8 C 0.9511(4) 0.11350(14) 0.93138(13)
H37_8 H 0.8932 0.1037 0.9268
C48_8 C 0.9835(4) 0.11433(14) 0.96243(13)
H38_8 H 0.9469 0.1051 0.9787
C51_5 C 0.8586(4) 0.05446(13) 0.75247(13)
H41_5 H 0.7955 0.0588 0.7474
C52_5 C 0.8902(4) 0.02342(11) 0.75051(13)
H42_5 H 0.8497 0.0070 0.7436
C53_5 C 0.9822(3) 0.01632(11) 0.75877(12)
C74_5 C 0.9600(4) 0.95824(11) 0.76717(13)
H59_5 H 0.8963 0.9618 0.7720
C75_5 C 0.9972(4) 0.92780(11) 0.76838(13)
H60_5 H 0.9581 0.9107 0.7745
O9_4 O 0.5331(3) 0.85609(10) 0.53375(11)
N17_6 N 0.3394(4) 0.87439(10) 0.56095(11)
N19_6 N 0.3363(3) 0.82844(9) 0.51122(10)
C61_6 C 0.3564(4) 0.85028(12) 0.58065(12)
H49_6 H 0.3897 0.8324 0.5729
C62_6 C 0.3276(4) 0.85030(12) 0.61213(13)
H50_6 H 0.3413 0.8326 0.6254
C63_6 C 0.2788(4) 0.87607(12) 0.62418(12)
C64_6 C 0.2615(4) 0.90144(13) 0.60358(12)
H51_6 H 0.2288 0.9197 0.6108
C65_6 C 0.2924(4) 0.89979(13) 0.57242(12)
H52_6 H 0.2801 0.9172 0.5586
C66_6 C 0.2475(4) 0.87690(11) 0.65711(12)
C67_6 C 0.2989(4) 0.86350(14) 0.68138(13)
H53_6 H 0.3568 0.8537 0.6768
C68_6 C 0.2665(4) 0.86433(14) 0.71243(13)
H54_6 H 0.3031 0.8551 0.7287
C69_6 C 0.1354(3) 0.89139(12) 0.69651(12)
H55_6 H 0.0781 0.9013 0.7017
C70_6 C 0.1637(4) 0.89156(12) 0.66563(12)
H56_6 H 0.1266 0.9016 0.6499
N24_6 N 0.1835(5) 0.91703(17) 0.49725(15)
O10_6 O 0.2299(3) 0.89294(10) 0.49399(13)
O11_6 O 0.1502(8) 0.9313(3) 0.5204(2)
O12_6 O 0.1679(7) 0.9326(2) 0.47160(18)
C51_6 C 0.1086(4) 0.19554(13) 0.00247(13)
C52_6 C 0.1402(4) 0.22658(11) 0.00051(13)
C53_6 C 0.2322(3) 0.23368(11) 0.00877(12)
C54_6 C 0.2900(4) 0.20824(11) 0.01717(13)
H43_6 H 0.3537 0.2118 0.0220
C55_6 C 0.2528(4) 0.17780(11) 0.01838(13)
H44_6 H 0.2919 0.1607 0.0245
N18_4 N 0.3363(3) 0.32844(9) 0.01122(10)
C71_6 C 0.3914(4) 0.30446(13) 0.00247(13)
C72_6 C 0.3598(4) 0.27342(11) 0.00051(13)
C73_6 C 0.2678(3) 0.26632(11) 0.00877(12)
C74_6 C 0.2100(4) 0.29176(11) 0.01717(13)
H59_6 H 0.1463 0.2882 0.0220
C75_6 C 0.2472(4) 0.32220(11) 0.01838(13)
H60_6 H 0.2081 0.3393 0.0245
H41_6 H 0.0455 0.1912 0.9974
H42_6 H 0.0997 0.2430 0.9936
H57_6 H 0.4545 0.3088 0.9974
H58_6 H 0.4003 0.2570 0.9936
O5_9 O 0.5331(3) 0.35609(10) 0.03375(11)
N12_9 N 0.3394(4) 0.37439(10) 0.06095(11)
C41_9 C 0.3564(4) 0.35028(12) 0.08065(12)
H33_9 H 0.3897 0.3324 0.0729
C42_9 C 0.3276(4) 0.35030(12) 0.11213(13)
H34_9 H 0.3413 0.3326 0.1254
C43_9 C 0.2788(4) 0.37607(12) 0.12418(12)
C44_9 C 0.2615(4) 0.40144(13) 0.10358(12)
H35_9 H 0.2288 0.4197 0.1108
C45_9 C 0.2924(4) 0.39979(13) 0.07242(12)
H36_9 H 0.2801 0.4172 0.0586
C46_9 C 0.2475(4) 0.37690(11) 0.15711(12)
C47_9 C 0.2989(4) 0.36350(14) 0.18138(13)
H37_9 H 0.3568 0.3537 0.1768
C48_9 C 0.2665(4) 0.36433(14) 0.21243(13)
H38_9 H 0.3031 0.3551 0.2287
C49_9 C 0.1354(3) 0.39139(12) 0.19651(12)
H39_9 H 0.0781 0.4013 0.2017
C50_9 C 0.1637(4) 0.39156(12) 0.16563(12)
H40_9 H 0.1266 0.4016 0.1499
O7_9 O 0.1502(8) 0.4313(3) 0.0204(2)
N16_9 N 0.1835(5) 0.41703(17) 0.99725(15)
O6_9 O 0.2299(3) 0.39294(10) 0.99399(13)
O8_9 O 0.1679(7) 0.4326(2) 0.97160(18)
H35_10 H 0.0212 0.6697 0.3608
C46_10 C 0.0025(4) 0.62690(11) 0.40711(12)
C49_10 C 0.1146(3) 0.64139(12) 0.44651(12)
H39_10 H 0.1719 0.6513 0.4517
C50_10 C 0.0863(4) 0.64156(12) 0.41563(12)
H40_10 H 0.1234 0.6516 0.3999
C54_7 C 0.0400(4) 0.54176(11) 0.26717(13)
H43_7 H 0.1037 0.5382 0.2720
C55_7 C 0.0028(4) 0.57220(11) 0.26838(13)
H44_7 H 0.0419 0.5893 0.2745
N16_10 N 0.0665(5) 0.66703(17) 0.24725(15)
O6_10 O 0.0201(3) 0.64294(10) 0.24399(13)
O7_10 O 0.0998(8) 0.6813(3) 0.2704(2)
O8_10 O 0.0821(7) 0.6826(2) 0.22160(18)
C71_7 C 0.1414(4) 0.44554(13) 0.25247(13)
H57_7 H 0.2045 0.4412 0.2474
C72_7 C 0.1098(4) 0.47658(11) 0.25051(13)
H58_7 H 0.1503 0.4930 0.2436
C73_7 C 0.0178(3) 0.48368(11) 0.25877(12)
O5_10 O 0.7169(3) 0.60609(10) 0.28375(11)
N12_10 N 0.9106(4) 0.62439(10) 0.31095(11)
N13_6 N 0.9137(3) 0.57844(9) 0.26122(10)
C41_10 C 0.8936(4) 0.60028(12) 0.33065(12)
H33_10 H 0.8603 0.5824 0.3229
C42_10 C 0.9224(4) 0.60030(12) 0.36213(13)
H34_10 H 0.9087 0.5826 0.3754
C43_10 C 0.9712(4) 0.62607(12) 0.37418(12)
C44_10 C 0.9885(4) 0.65144(13) 0.35358(12)
C45_10 C 0.9576(4) 0.64979(13) 0.32242(12)
H36_10 H 0.9699 0.6672 0.3086
C47_10 C 0.9511(4) 0.61350(14) 0.43138(13)
H37_10 H 0.8932 0.6037 0.4268
C48_10 C 0.9835(4) 0.61433(14) 0.46243(13)
H38_10 H 0.9469 0.6051 0.4787
C51_7 C 0.8586(4) 0.55446(13) 0.25247(13)
H41_7 H 0.7955 0.5588 0.2474
C52_7 C 0.8902(4) 0.52342(11) 0.25051(13)
H42_7 H 0.8497 0.5070 0.2436
C53_7 C 0.9822(3) 0.51632(11) 0.25877(12)
C74_7 C 0.9600(4) 0.45824(11) 0.26717(13)
H59_7 H 0.8963 0.4618 0.2720
C75_7 C 0.9972(4) 0.42780(11) 0.26838(13)
H60_7 H 0.9581 0.4107 0.2745
C51_8 C 0.1086(4) 0.69554(13) 0.50247(13)
H41_8 H 0.0455 0.6912 0.4974
C52_8 C 0.1402(4) 0.72658(11) 0.50051(13)
H42_8 H 0.0997 0.7430 0.4936
C53_8 C 0.2322(3) 0.73368(11) 0.50877(12)
C54_8 C 0.2900(4) 0.70824(11) 0.51717(13)
H43_8 H 0.3537 0.7118 0.5220
C55_8 C 0.2528(4) 0.67780(11) 0.51838(13)
H44_8 H 0.2919 0.6607 0.5245
C71_8 C 0.3914(4) 0.80446(13) 0.50247(13)
H57_8 H 0.4545 0.8088 0.4974
C72_8 C 0.3598(4) 0.77342(11) 0.50051(13)
H58_8 H 0.4003 0.7570 0.4936
C73_8 C 0.2678(3) 0.76632(11) 0.50877(12)
C74_8 C 0.2100(4) 0.79176(11) 0.51717(13)
H59_8 H 0.1463 0.7882 0.5220
C75_8 C 0.2472(4) 0.82220(11) 0.51838(13)
H60_8 H 0.2081 0.8393 0.5245
O9_5 O 0.9669(3) 0.14391(10) 0.03375(11)
C77_8 C 0.9943(4) 0.03772(13) 0.04476(12)
H62_8 H 0.9597 0.0305 0.0626
O9_6 O 0.0331(3) 0.85609(10) 0.03375(11)
C57_8 C 0.0057(4) 0.96228(13) 0.04476(12)
H46_8 H 0.0403 0.9695 0.0626
N25 N 0.2073(5) 0.1225(2) 0.36776(19)
O13 O 0.1893(7) 0.1477(2) 0.35782(18)
O14 O 0.1864(5) 0.1022(3) 0.35095(17)
O15 O 0.2403(5) 0.1183(2) 0.39507(16)
N25_2 N 0.7927(5) 0.8775(2) 0.36776(19)
O13_2 O 0.8107(7) 0.8523(2) 0.35782(18)
O14_2 O 0.8136(5) 0.8978(3) 0.35095(17)
O15_2 O 0.7597(5) 0.8817(2) 0.39507(16)
N25_3 N 0.4573(5) 0.1275(2) 0.61776(19)
O13_3 O 0.4393(7) 0.1023(2) 0.60782(18)
O14_3 O 0.4364(5) 0.1478(3) 0.60095(17)
O15_3 O 0.4903(5) 0.1317(2) 0.64507(16)
N25_4 N 0.0427(5) 0.3725(2) 0.61776(19)
O13_4 O 0.0607(7) 0.3977(2) 0.60782(18)
O14_4 O 0.0636(5) 0.3522(3) 0.60095(17)
O15_4 O 0.0097(5) 0.3683(2) 0.64507(16)
N25_5 N 0.2073(5) 0.6225(2) 0.86776(19)
O13_5 O 0.1893(7) 0.6477(2) 0.85782(18)
O14_5 O 0.1864(5) 0.6022(3) 0.85095(17)
O15_5 O 0.2403(5) 0.6183(2) 0.89507(16)
N25_6 N 0.7927(5) 0.3775(2) 0.86776(19)
O13_6 O 0.8107(7) 0.3523(2) 0.85782(18)
O14_6 O 0.8136(5) 0.3978(3) 0.85095(17)
O15_6 O 0.7597(5) 0.3817(2) 0.89507(16)
N25_7 N 0.4573(5) 0.6275(2) 0.11776(19)
O13_7 O 0.4393(7) 0.6023(2) 0.10782(18)
O14_7 O 0.4364(5) 0.6478(3) 0.10095(17)
O15_7 O 0.4903(5) 0.6317(2) 0.14507(16)
N25_8 N 0.0427(5) 0.8725(2) 0.11776(19)
O13_8 O 0.0607(7) 0.8977(2) 0.10782(18)
O14_8 O 0.0636(5) 0.8522(3) 0.10095(17)
O15_8 O 0.0097(5) 0.8683(2) 0.14507(16)
N25_9 N 0.7073(5) 0.1225(2) 0.86776(19)
O13_9 O 0.6893(7) 0.1477(2) 0.85782(18)
O14_9 O 0.6864(5) 0.1022(3) 0.85095(17)
O15_9 O 0.7403(5) 0.1183(2) 0.89507(16)
N25_10 N 0.2927(5) 0.8775(2) 0.86776(19)
O13_10 O 0.3107(7) 0.8523(2) 0.85782(18)
O14_10 O 0.3136(5) 0.8978(3) 0.85095(17)
O15_10 O 0.2597(5) 0.8817(2) 0.89507(16)
N25_11 N 0.9573(5) 0.1275(2) 0.11776(19)
O13_11 O 0.9393(7) 0.1023(2) 0.10782(18)
O14_11 O 0.9364(5) 0.1478(3) 0.10095(17)
O15_11 O 0.9903(5) 0.1317(2) 0.14507(16)
N25_12 N 0.5427(5) 0.3725(2) 0.11776(19)
O13_12 O 0.5607(7) 0.3977(2) 0.10782(18)
O14_12 O 0.5636(5) 0.3522(3) 0.10095(17)
O15_12 O 0.5097(5) 0.3683(2) 0.14507(16)
N25_13 N 0.7073(5) 0.6225(2) 0.36776(19)
O13_13 O 0.6893(7) 0.6477(2) 0.35782(18)
O14_13 O 0.6864(5) 0.6022(3) 0.35095(17)
O15_13 O 0.7403(5) 0.6183(2) 0.39507(16)
N25_14 N 0.2927(5) 0.3775(2) 0.36776(19)
O13_14 O 0.3107(7) 0.3523(2) 0.35782(18)
O14_14 O 0.3136(5) 0.3978(3) 0.35095(17)
O15_14 O 0.2597(5) 0.3817(2) 0.39507(16)
N25_15 N 0.9573(5) 0.6275(2) 0.61776(19)
O13_15 O 0.9393(7) 0.6023(2) 0.60782(18)
O14_15 O 0.9364(5) 0.6478(3) 0.60095(17)
O15_15 O 0.9903(5) 0.6317(2) 0.64507(16)
N25_16 N 0.5427(5) 0.8725(2) 0.61776(19)
O13_16 O 0.5607(7) 0.8977(2) 0.60782(18)
O14_16 O 0.5636(5) 0.8522(3) 0.60095(17)
O15_16 O 0.5097(5) 0.8683(2) 0.64507(16)
O16 O 0.2619(5) 0.02141(15) 0.7910(2)
O18 O 0.2049(6) -0.0000(2) 0.8324(2)
N26 N 0.2541(5) 0.99827(19) 0.8080(2)
O17 O 0.2916(4) 0.97258(15) 0.8045(2)
O18_2 O 0.2049(6) 1.0000(2) 0.8324(2)
N26_2 N 0.7459(5) 0.00173(19) 0.8080(2)
O17_2 O 0.7084(4) 0.02742(15) 0.8045(2)
O18_3 O 0.7951(6) 0.0000(2) 0.8324(2)
O16_2 O 0.7381(5) 0.97859(15) 0.7910(2)
O18_4 O 0.7951(6) 1.0000(2) 0.8324(2)
N26_3 N 0.5041(5) 0.25173(19) 0.0580(2)
O16_3 O 0.5119(5) 0.22859(15) 0.0410(2)
O17_3 O 0.5416(4) 0.27742(15) 0.0545(2)
O18_5 O 0.4549(6) 0.2500(2) 0.0824(2)
O18_6 O 0.0451(6) 0.2500(2) 0.0824(2)
N26_4 N 0.9959(5) 0.24827(19) 0.0580(2)
O16_4 O 0.9881(5) 0.27141(15) 0.0410(2)
O17_4 O 0.9584(4) 0.22258(15) 0.0545(2)
N26_5 N 0.2541(5) 0.49827(19) 0.3080(2)
O16_5 O 0.2619(5) 0.52141(15) 0.2910(2)
O17_5 O 0.2916(4) 0.47258(15) 0.3045(2)
O18_7 O 0.2049(6) 0.5000(2) 0.3324(2)
N26_6 N 0.7459(5) 0.50173(19) 0.3080(2)
O16_6 O 0.7381(5) 0.47859(15) 0.2910(2)
O17_6 O 0.7084(4) 0.52742(15) 0.3045(2)
O18_8 O 0.7951(6) 0.5000(2) 0.3324(2)
N26_7 N 0.5041(5) 0.75173(19) 0.5580(2)
O16_7 O 0.5119(5) 0.72859(15) 0.5410(2)
O17_7 O 0.5416(4) 0.77742(15) 0.5545(2)
O18_9 O 0.4549(6) 0.7500(2) 0.5824(2)
O18_10 O 0.0451(6) 0.7500(2) 0.5824(2)
N26_8 N 0.9959(5) 0.74827(19) 0.5580(2)
O16_8 O 0.9881(5) 0.77141(15) 0.5410(2)
O17_8 O 0.9584(4) 0.72258(15) 0.5545(2)
O16_9 O 0.7619(5) 0.02141(15) 0.2910(2)
O18_11 O 0.7049(6) -0.0000(2) 0.3324(2)
N26_9 N 0.7541(5) 0.99827(19) 0.3080(2)
O17_9 O 0.7916(4) 0.97258(15) 0.3045(2)
O18_12 O 0.7049(6) 1.0000(2) 0.3324(2)
N26_10 N 0.2459(5) 0.00173(19) 0.3080(2)
O17_10 O 0.2084(4) 0.02742(15) 0.3045(2)
O18_13 O 0.2951(6) 0.0000(2) 0.3324(2)
O16_10 O 0.2381(5) 0.97859(15) 0.2910(2)
O18_14 O 0.2951(6) 1.0000(2) 0.3324(2)
N26_11 N 0.0041(5) 0.25173(19) 0.5580(2)
O16_11 O 0.0119(5) 0.22859(15) 0.5410(2)
O17_11 O 0.0416(4) 0.27742(15) 0.5545(2)
O18_15 O 0.9549(6) 0.2500(2) 0.5824(2)
N26_12 N 0.4959(5) 0.24827(19) 0.5580(2)
O16_12 O 0.4881(5) 0.27141(15) 0.5410(2)
O17_12 O 0.4584(4) 0.22258(15) 0.5545(2)
O18_16 O 0.5451(6) 0.2500(2) 0.5824(2)
N26_13 N 0.7541(5) 0.49827(19) 0.8080(2)
O16_13 O 0.7619(5) 0.52141(15) 0.7910(2)
O17_13 O 0.7916(4) 0.47258(15) 0.8045(2)
O18_17 O 0.7049(6) 0.5000(2) 0.8324(2)
N26_14 N 0.2459(5) 0.50173(19) 0.8080(2)
O16_14 O 0.2381(5) 0.47859(15) 0.7910(2)
O17_14 O 0.2084(4) 0.52742(15) 0.8045(2)
O18_18 O 0.2951(6) 0.5000(2) 0.8324(2)
N26_15 N 0.0041(5) 0.75173(19) 0.0580(2)
O16_15 O 0.0119(5) 0.72859(15) 0.0410(2)
O17_15 O 0.0416(4) 0.77742(15) 0.0545(2)
O18_19 O 0.9549(6) 0.7500(2) 0.0824(2)
N26_16 N 0.4959(5) 0.74827(19) 0.0580(2)
O16_16 O 0.4881(5) 0.77141(15) 0.0410(2)
O17_16 O 0.4584(4) 0.72258(15) 0.0545(2)
O18_20 O 0.5451(6) 0.7500(2) 0.0824(2)
N27 N 0.0833(9) 0.9715(3) 0.6689(3)
O19 O 0.0289(13) 0.9502(4) 0.6656(6)
O20 O 0.0751(9) 0.9986(3) 0.6790(4)
O21 O 0.1619(9) 0.9652(4) 0.6570(4)
N27_2 N 0.9167(9) 0.0285(3) 0.6689(3)
O19_2 O 0.9711(13) 0.0498(4) 0.6656(6)
O20_2 O 0.9249(9) 0.0014(3) 0.6790(4)
O21_2 O 0.8381(9) 0.0348(4) 0.6570(4)
N27_3 N 0.3333(9) 0.2785(3) 0.9189(3)
O19_3 O 0.2789(13) 0.2998(4) 0.9156(6)
O20_3 O 0.3251(9) 0.2514(3) 0.9290(4)
O21_3 O 0.4119(9) 0.2848(4) 0.9070(4)
N27_4 N 0.1667(9) 0.2215(3) 0.9189(3)
O19_4 O 0.2211(13) 0.2002(4) 0.9156(6)
O20_4 O 0.1749(9) 0.2486(3) 0.9290(4)
O21_4 O 0.0881(9) 0.2152(4) 0.9070(4)
N27_5 N 0.0833(9) 0.4715(3) 0.1689(3)
O19_5 O 0.0289(13) 0.4502(4) 0.1656(6)
O20_5 O 0.0751(9) 0.4986(3) 0.1790(4)
O21_5 O 0.1619(9) 0.4652(4) 0.1570(4)
N27_6 N 0.9167(9) 0.5285(3) 0.1689(3)
O19_6 O 0.9711(13) 0.5498(4) 0.1656(6)
O20_6 O 0.9249(9) 0.5014(3) 0.1790(4)
O21_6 O 0.8381(9) 0.5348(4) 0.1570(4)
N27_7 N 0.3333(9) 0.7785(3) 0.4189(3)
O19_7 O 0.2789(13) 0.7998(4) 0.4156(6)
O20_7 O 0.3251(9) 0.7514(3) 0.4290(4)
O21_7 O 0.4119(9) 0.7848(4) 0.4070(4)
N27_8 N 0.1667(9) 0.7215(3) 0.4189(3)
O19_8 O 0.2211(13) 0.7002(4) 0.4156(6)
O20_8 O 0.1749(9) 0.7486(3) 0.4290(4)
O21_8 O 0.0881(9) 0.7152(4) 0.4070(4)
N27_9 N 0.5833(9) 0.9715(3) 0.1689(3)
O19_9 O 0.5289(13) 0.9502(4) 0.1656(6)
O20_9 O 0.5751(9) 0.9986(3) 0.1790(4)
O21_9 O 0.6619(9) 0.9652(4) 0.1570(4)
N27_10 N 0.4167(9) 0.0285(3) 0.1689(3)
O19_10 O 0.4711(13) 0.0498(4) 0.1656(6)
O20_10 O 0.4249(9) 0.0014(3) 0.1790(4)
O21_10 O 0.3381(9) 0.0348(4) 0.1570(4)
N27_11 N 0.8333(9) 0.2785(3) 0.4189(3)
O19_11 O 0.7789(13) 0.2998(4) 0.4156(6)
O20_11 O 0.8251(9) 0.2514(3) 0.4290(4)
O21_11 O 0.9119(9) 0.2848(4) 0.4070(4)
N27_12 N 0.6667(9) 0.2215(3) 0.4189(3)
O19_12 O 0.7211(13) 0.2002(4) 0.4156(6)
O20_12 O 0.6749(9) 0.2486(3) 0.4290(4)
O21_12 O 0.5881(9) 0.2152(4) 0.4070(4)
N27_13 N 0.5833(9) 0.4715(3) 0.6689(3)
O19_13 O 0.5289(13) 0.4502(4) 0.6656(6)
O20_13 O 0.5751(9) 0.4986(3) 0.6790(4)
O21_13 O 0.6619(9) 0.4652(4) 0.6570(4)
N27_14 N 0.4167(9) 0.5285(3) 0.6689(3)
O19_14 O 0.4711(13) 0.5498(4) 0.6656(6)
O20_14 O 0.4249(9) 0.5014(3) 0.6790(4)
O21_14 O 0.3381(9) 0.5348(4) 0.6570(4)
N27_15 N 0.8333(9) 0.7785(3) 0.9189(3)
O19_15 O 0.7789(13) 0.7998(4) 0.9156(6)
O20_15 O 0.8251(9) 0.7514(3) 0.9290(4)
O21_15 O 0.9119(9) 0.7848(4) 0.9070(4)
N27_16 N 0.6667(9) 0.7215(3) 0.9189(3)
O19_16 O 0.7211(13) 0.7002(4) 0.9156(6)
O20_16 O 0.6749(9) 0.7486(3) 0.9290(4)
O21_16 O 0.5881(9) 0.7152(4) 0.9070(4)
N28 N 0.2606(15) 0.0014(4) 0.5462(4)
O23 O 0.2955(17) 0.0269(5) 0.5532(6)
O22 O 0.2721(10) 0.9801(3) 0.5657(4)
O24 O 0.222(2) 0.9968(7) 0.5208(5)
O22_2 O 0.7279(10) 0.0199(3) 0.5657(4)
O24_2 O 0.778(2) 0.0032(7) 0.5208(5)
N28_2 N 0.7394(15) 0.9986(4) 0.5462(4)
O23_2 O 0.7045(17) 0.9731(5) 0.5532(6)
N28_3 N 0.5106(15) 0.2486(4) 0.7962(4)
O22_3 O 0.5221(10) 0.2699(3) 0.8157(4)
O23_3 O 0.5455(17) 0.2231(5) 0.8032(6)
O24_3 O 0.472(2) 0.2532(7) 0.7708(5)
O24_4 O 0.028(2) 0.2468(7) 0.7708(5)
N28_4 N 0.9894(15) 0.2514(4) 0.7962(4)
O22_4 O 0.9779(10) 0.2301(3) 0.8157(4)
O23_4 O 0.9545(17) 0.2769(5) 0.8032(6)
N28_5 N 0.2606(15) 0.5014(4) 0.0462(4)
O22_5 O 0.2721(10) 0.4801(3) 0.0657(4)
O23_5 O 0.2955(17) 0.5269(5) 0.0532(6)
O24_5 O 0.222(2) 0.4968(7) 0.0208(5)
N28_6 N 0.7394(15) 0.4986(4) 0.0462(4)
O22_6 O 0.7279(10) 0.5199(3) 0.0657(4)
O23_6 O 0.7045(17) 0.4731(5) 0.0532(6)
O24_6 O 0.778(2) 0.5032(7) 0.0208(5)
N28_7 N 0.5106(15) 0.7486(4) 0.2962(4)
O22_7 O 0.5221(10) 0.7699(3) 0.3157(4)
O23_7 O 0.5455(17) 0.7231(5) 0.3032(6)
O24_7 O 0.472(2) 0.7532(7) 0.2708(5)
O24_8 O 0.028(2) 0.7468(7) 0.2708(5)
N28_8 N 0.9894(15) 0.7514(4) 0.2962(4)
O22_8 O 0.9779(10) 0.7301(3) 0.3157(4)
O23_8 O 0.9545(17) 0.7769(5) 0.3032(6)
N28_9 N 0.7606(15) 0.0014(4) 0.0462(4)
O23_9 O 0.7955(17) 0.0269(5) 0.0532(6)
O22_9 O 0.7721(10) 0.9801(3) 0.0657(4)
O24_9 O 0.722(2) 0.9968(7) 0.0208(5)
O22_10 O 0.2279(10) 0.0199(3) 0.0657(4)
O24_10 O 0.278(2) 0.0032(7) 0.0208(5)
N28_10 N 0.2394(15) 0.9986(4) 0.0462(4)
O23_10 O 0.2045(17) 0.9731(5) 0.0532(6)
N28_11 N 0.0106(15) 0.2486(4) 0.2962(4)
O22_11 O 0.0221(10) 0.2699(3) 0.3157(4)
O23_11 O 0.0455(17) 0.2231(5) 0.3032(6)
O24_11 O 0.972(2) 0.2532(7) 0.2708(5)
N28_12 N 0.4894(15) 0.2514(4) 0.2962(4)
O22_12 O 0.4779(10) 0.2301(3) 0.3157(4)
O23_12 O 0.4545(17) 0.2769(5) 0.3032(6)
O24_12 O 0.528(2) 0.2468(7) 0.2708(5)
N28_13 N 0.7606(15) 0.5014(4) 0.5462(4)
O22_13 O 0.7721(10) 0.4801(3) 0.5657(4)
O23_13 O 0.7955(17) 0.5269(5) 0.5532(6)
O24_13 O 0.722(2) 0.4968(7) 0.5208(5)
N28_14 N 0.2394(15) 0.4986(4) 0.5462(4)
O22_14 O 0.2279(10) 0.5199(3) 0.5657(4)
O23_14 O 0.2045(17) 0.4731(5) 0.5532(6)
O24_14 O 0.278(2) 0.5032(7) 0.5208(5)
N28_15 N 0.0106(15) 0.7486(4) 0.7962(4)
O22_15 O 0.0221(10) 0.7699(3) 0.8157(4)
O23_15 O 0.0455(17) 0.7231(5) 0.8032(6)
O24_15 O 0.972(2) 0.7532(7) 0.7708(5)
N28_16 N 0.4894(15) 0.7514(4) 0.7962(4)
O22_16 O 0.4779(10) 0.7301(3) 0.8157(4)
O23_16 O 0.4545(17) 0.7769(5) 0.8032(6)
O24_16 O 0.528(2) 0.7468(7) 0.7708(5)
N29 N 0.2814(15) 0.1220(3) 0.4863(4)
O25 O 0.2950(9) 0.0991(3) 0.5021(3)
O26 O 0.2962(8) 0.1462(3) 0.4992(3)
O27 O 0.2512(15) 0.1190(5) 0.4588(4)
N29_2 N 0.7186(15) 0.8780(3) 0.4863(4)
O25_2 O 0.7050(9) 0.9009(3) 0.5021(3)
O26_2 O 0.7038(8) 0.8538(3) 0.4992(3)
O27_2 O 0.7488(15) 0.8810(5) 0.4588(4)
N29_3 N 0.5314(15) 0.1280(3) 0.7363(4)
O25_3 O 0.5450(9) 0.1509(3) 0.7521(3)
O26_3 O 0.5462(8) 0.1038(3) 0.7492(3)
O27_3 O 0.5012(15) 0.1310(5) 0.7088(4)
N29_4 N 0.9686(15) 0.3720(3) 0.7363(4)
O25_4 O 0.9550(9) 0.3491(3) 0.7521(3)
O26_4 O 0.9538(8) 0.3962(3) 0.7492(3)
O27_4 O 0.9988(15) 0.3690(5) 0.7088(4)
O25_5 O 0.2950(9) 0.5991(3) 0.0021(3)
N29_5 N 0.2814(15) 0.6220(3) 0.9863(4)
O26_5 O 0.2962(8) 0.6462(3) 0.9992(3)
O27_5 O 0.2512(15) 0.6190(5) 0.9588(4)
O25_6 O 0.7050(9) 0.4009(3) 0.0021(3)
N29_6 N 0.7186(15) 0.3780(3) 0.9863(4)
O26_6 O 0.7038(8) 0.3538(3) 0.9992(3)
O27_6 O 0.7488(15) 0.3810(5) 0.9588(4)
N29_7 N 0.5314(15) 0.6280(3) 0.2363(4)
O25_7 O 0.5450(9) 0.6509(3) 0.2521(3)
O26_7 O 0.5462(8) 0.6038(3) 0.2492(3)
O27_7 O 0.5012(15) 0.6310(5) 0.2088(4)
N29_8 N 0.9686(15) 0.8720(3) 0.2363(4)
O25_8 O 0.9550(9) 0.8491(3) 0.2521(3)
O26_8 O 0.9538(8) 0.8962(3) 0.2492(3)
O27_8 O 0.9988(15) 0.8690(5) 0.2088(4)
O25_9 O 0.7950(9) 0.0991(3) 0.0021(3)
N29_9 N 0.7814(15) 0.1220(3) 0.9863(4)
O26_9 O 0.7962(8) 0.1462(3) 0.9992(3)
O27_9 O 0.7512(15) 0.1190(5) 0.9588(4)
O25_10 O 0.2050(9) 0.9009(3) 0.0021(3)
N29_10 N 0.2186(15) 0.8780(3) 0.9863(4)
O26_10 O 0.2038(8) 0.8538(3) 0.9992(3)
O27_10 O 0.2488(15) 0.8810(5) 0.9588(4)
N29_11 N 0.0314(15) 0.1280(3) 0.2363(4)
O25_11 O 0.0450(9) 0.1509(3) 0.2521(3)
O26_11 O 0.0462(8) 0.1038(3) 0.2492(3)
O27_11 O 0.0012(15) 0.1310(5) 0.2088(4)
N29_12 N 0.4686(15) 0.3720(3) 0.2363(4)
O25_12 O 0.4550(9) 0.3491(3) 0.2521(3)
O26_12 O 0.4538(8) 0.3962(3) 0.2492(3)
O27_12 O 0.4988(15) 0.3690(5) 0.2088(4)
N29_13 N 0.7814(15) 0.6220(3) 0.4863(4)
O25_13 O 0.7950(9) 0.5991(3) 0.5021(3)
O26_13 O 0.7962(8) 0.6462(3) 0.4992(3)
O27_13 O 0.7512(15) 0.6190(5) 0.4588(4)
N29_14 N 0.2186(15) 0.3780(3) 0.4863(4)
O25_14 O 0.2050(9) 0.4009(3) 0.5021(3)
O26_14 O 0.2038(8) 0.3538(3) 0.4992(3)
O27_14 O 0.2488(15) 0.3810(5) 0.4588(4)
N29_15 N 0.0314(15) 0.6280(3) 0.7363(4)
O25_15 O 0.0450(9) 0.6509(3) 0.7521(3)
O26_15 O 0.0462(8) 0.6038(3) 0.7492(3)
O27_15 O 0.0012(15) 0.6310(5) 0.7088(4)
N29_16 N 0.4686(15) 0.8720(3) 0.7363(4)
O25_16 O 0.4550(9) 0.8491(3) 0.7521(3)
O26_16 O 0.4538(8) 0.8962(3) 0.7492(3)
O27_16 O 0.4988(15) 0.8690(5) 0.7088(4)
loop_
_geom_bond_atom_site_label_1
_geom_bond_atom_site_label_2
_geom_bond_site_symmetry_1
_geom_bond_site_symmetry_2
Cu1 O1 1_555 1_555
N1 Cu1 1_555 1_555
N2 Cu1 1_555 1_555
N3 Cu1 1_555 1_555
C1 N1 1_555 1_555
H1 C1 1_555 1_555
C5 N1 1_555 1_555
H4 C5 1_555 1_555
C11 N2 1_555 1_555
H9 C11 1_555 1_555
C12 C11 1_555 1_555
H10 C12 1_555 1_555
C13 C12 1_555 1_555
C14 C13 1_555 1_555
H11 C14 1_555 1_555
C15 N2 1_555 1_555
H12 C15 1_555 1_555
C16 N3 1_555 1_555
H13 C16 1_555 1_555
C17 C16 1_555 1_555
H14 C17 1_555 1_555
C18 C17 1_555 1_555
C19 C18 1_555 1_555
H15 C19 1_555 1_555
C20 N3 1_555 1_555
H16 C20 1_555 1_555
O2 Cu1 1_555 1_555
Cu2 O3 1_555 1_555
Cu5 N8 1_555 1_555
N5 Cu2 1_555 1_555
N7 Cu2 1_555 1_555
N8 C36 1_555 1_555
N9 Cu2 1_555 1_555
N10 Cu1 1_555 1_555
N11 Cu2 1_555 1_555
C21 N5 1_555 1_555
H17 C21 1_555 1_555
C22 C21 1_555 1_555
H18 C22 1_555 1_555
C23 C22 1_555 1_555
C24 C23 1_555 1_555
H19 C24 1_555 1_555
C25 N5 1_555 1_555
H20 C25 1_555 1_555
C26 C23 1_555 1_555
C27 C26 1_555 1_555
H21 C27 1_555 1_555
C28 N10 1_555 1_555
H22 C28 1_555 1_555
C29 N10 1_555 1_555
H23 C29 1_555 1_555
C30 C26 1_555 1_555
H24 C30 1_555 1_555
C36 H29 1_555 1_555
C37 C36 1_555 1_555
H30 C37 1_555 1_555
C38 C18 1_555 1_555
C39 C38 1_555 1_555
H31 C39 1_555 1_555
C40 N8 1_555 1_555
H32 C40 1_555 1_555
C4 C5 1_555 1_555
C14 C15 1_555 1_555
C19 C20 1_555 1_555
C24 C25 1_555 1_555
C27 C28 1_555 1_555
C29 C30 1_555 1_555
C37 C38 1_555 1_555
C39 C40 1_555 1_555
N4 C8 1_555 1_555
H2 C2 1_555 1_555
C3 C2 1_555 1_555
C6 C3 1_555 1_555
C7 C6 1_555 1_555
H5 C7 1_555 1_555
C8 C7 1_555 1_555
H6 C8 1_555 1_555
C9 N4 1_555 1_555
H7 C9 1_555 1_555
C10 C6 1_555 1_555
H8 C10 1_555 1_555
Cu3 N4 1_555 1_555
C9 C10 1_555 1_555
Cu4 N6 1_555 1_555
N6 C31 1_555 1_555
C31 H25 1_555 1_555
C32 C31 1_555 1_555
H26 C32 1_555 1_555
C34 C33 1_555 1_555
H27 C34 1_555 1_555
C35 N6 1_555 1_555
H28 C35 1_555 1_555
C32 C33 1_555 1_555
C34 C35 1_555 1_555
Cu4 O1_2 1_555 1_555
N1_2 Cu4 1_555 1_555
N3_2 Cu4 1_555 1_555
C1_2 N1_2 1_555 1_555
H1_2 C1_2 1_555 1_555
C5_2 N1_2 1_555 1_555
H4_2 C5_2 1_555 1_555
C16_2 N3_2 1_555 1_555
H13_2 C16_2 1_555 1_555
C17_2 C16_2 1_555 1_555
H14_2 C17_2 1_555 1_555
C18_2 C17_2 1_555 1_555
C19_2 C18_2 1_555 1_555
H15_2 C19_2 1_555 1_555
C20_2 N3_2 1_555 1_555
H16_2 C20_2 1_555 1_555
O2_2 Cu4 1_555 1_555
Cu2_2 O3_2 1_555 1_555
Cu5_2 N8_2 1_555 1_555
N5_2 Cu2_2 1_555 1_555
N7_2 Cu2_2 1_555 1_555
N8_2 C36_2 1_555 1_555
N9_2 Cu2_2 1_555 1_555
N10_2 Cu4 1_555 1_555
N11_2 Cu2_2 1_555 1_555
C21_2 N5_2 1_555 1_555
H17_2 C21_2 1_555 1_555
C22_2 C21_2 1_555 1_555
H18_2 C22_2 1_555 1_555
C23_2 C22_2 1_555 1_555
C24_2 C23_2 1_555 1_555
H19_2 C24_2 1_555 1_555
C25_2 N5_2 1_555 1_555
H20_2 C25_2 1_555 1_555
C26_2 C23_2 1_555 1_555
C27_2 C26_2 1_555 1_555
H21_2 C27_2 1_555 1_555
C28_2 N10_2 1_555 1_555
H22_2 C28_2 1_555 1_555
C29_2 N10_2 1_555 1_555
H23_2 C29_2 1_555 1_555
C30_2 C26_2 1_555 1_555
H24_2 C30_2 1_555 1_555
C36_2 H29_2 1_555 1_555
C37_2 C36_2 1_555 1_555
H30_2 C37_2 1_555 1_555
C38_2 C18_2 1_555 1_555
C39_2 C38_2 1_555 1_555
H31_2 C39_2 1_555 1_555
C40_2 N8_2 1_555 1_555
H32_2 C40_2 1_555 1_555
C4_2 C5_2 1_555 1_555
C19_2 C20_2 1_555 1_555
C24_2 C25_2 1_555 1_555
C27_2 C28_2 1_555 1_555
C29_2 C30_2 1_555 1_555
C37_2 C38_2 1_555 1_555
C39_2 C40_2 1_555 1_555
N4_2 C8_2 1_555 1_555
H2_2 C2_2 1_555 1_555
C3_2 C2_2 1_555 1_555
C6_2 C3_2 1_555 1_555
C7_2 C6_2 1_555 1_555
H5_2 C7_2 1_555 1_555
C8_2 C7_2 1_555 1_555
H6_2 C8_2 1_555 1_555
C9_2 N4_2 1_555 1_555
H7_2 C9_2 1_555 1_555
C10_2 C6_2 1_555 1_555
H8_2 C10_2 1_555 1_555
Cu3_2 N4_2 1_555 1_555
C9_2 C10_2 1_555 1_555
N5_3 Cu2_3 1_555 1_555
N7_3 Cu2_3 1_555 1_555
N9_3 Cu2_3 1_555 1_555
N11_3 Cu2_3 1_555 1_555
C21_3 N5_3 1_555 1_555
H17_3 C21_3 1_555 1_555
C22_3 C21_3 1_555 1_555
H18_3 C22_3 1_555 1_555
C23_3 C22_3 1_555 1_555
C25_3 N5_3 1_555 1_555
H20_3 C25_3 1_555 1_555
H21_3 C27_3 1_555 1_555
O4_3 Cu2_3 1_555 1_555
N9_2 C36_3 1_555 1_555
C36_3 H29_3 1_555 1_555
C37_3 C36_3 1_555 1_555
C39_3 C38_3 1_555 1_555
H31_3 C39_3 1_555 1_555
C40_3 N9_2 1_555 1_555
H32_3 C40_3 1_555 1_555
C37_3 C38_3 1_555 1_555
C39_3 C40_3 1_555 1_555
C11_2 N7 1_555 1_555
H9_2 C11_2 1_555 1_555
C12_2 C11_2 1_555 1_555
H10_2 C12_2 1_555 1_555
C13_2 C12_2 1_555 1_555
C14_2 C13_2 1_555 1_555
H11_2 C14_2 1_555 1_555
C15_2 N7 1_555 1_555
H12_2 C15_2 1_555 1_555
C16_3 N9 1_555 1_555
H13_3 C16_3 1_555 1_555
C17_3 C16_3 1_555 1_555
C18_3 C17_3 1_555 1_555
C19_3 C18_3 1_555 1_555
H15_3 C19_3 1_555 1_555
C20_3 N9 1_555 1_555
H16_3 C20_3 1_555 1_555
Cu4_2 N6_2 1_555 1_555
N6_2 C31_2 1_555 1_555
H19_3 C24_3 1_555 1_555
C28_3 N11 1_555 1_555
C29_3 N11 1_555 1_555
H23_3 C29_3 1_555 1_555
C30_3 C26_3 1_555 1_555
H24_3 C30_3 1_555 1_555
C31_2 H25_2 1_555 1_555
C32_2 C31_2 1_555 1_555
H26_2 C32_2 1_555 1_555
C33_2 C13_2 1_555 1_555
C34_2 C33_2 1_555 1_555
H27_2 C34_2 1_555 1_555
C35_2 N6_2 1_555 1_555
H28_2 C35_2 1_555 1_555
C14_2 C15_2 1_555 1_555
C19_3 C20_3 1_555 1_555
C29_3 C30_3 1_555 1_555
C32_2 C33_2 1_555 1_555
C34_2 C35_2 1_555 1_555
Cu4_2 O1_3 1_555 1_555
N1_3 Cu4_2 1_555 1_555
N3_3 Cu4_2 1_555 1_555
N4_3 C8_3 1_555 1_555
C1_3 N1_3 1_555 1_555
H1_3 C1_3 1_555 1_555
C2_3 C1_3 1_555 1_555
H2_3 C2_3 1_555 1_555
C3_3 C2_3 1_555 1_555
C4_3 C3_3 1_555 1_555
H3_3 C4_3 1_555 1_555
C5_3 N1_3 1_555 1_555
H4_3 C5_3 1_555 1_555
C6_3 C3_3 1_555 1_555
C7_3 C6_3 1_555 1_555
H5_3 C7_3 1_555 1_555
C8_3 C7_3 1_555 1_555
H6_3 C8_3 1_555 1_555
C9_3 N4_3 1_555 1_555
H7_3 C9_3 1_555 1_555
C10_3 C6_3 1_555 1_555
H8_3 C10_3 1_555 1_555
C16_4 N3_3 1_555 1_555
H13_4 C16_4 1_555 1_555
C17_4 C16_4 1_555 1_555
H14_4 C17_4 1_555 1_555
C18_4 C17_4 1_555 1_555
C19_4 C18_4 1_555 1_555
H15_4 C19_4 1_555 1_555
C20_4 N3_3 1_555 1_555
H16_4 C20_4 1_555 1_555
O2_3 Cu4_2 1_555 1_555
Cu2_4 O3_4 1_555 1_555
Cu5 N4_3 1_555 1_555
Cu5_3 N8_3 1_555 1_555
N5_4 Cu2_4 1_555 1_555
N7_4 Cu2_4 1_555 1_555
N8_3 C36_4 1_555 1_555
N9_4 Cu2_4 1_555 1_555
N10_3 Cu4_2 1_555 1_555
N11_4 Cu2_4 1_555 1_555
C21_4 N5_4 1_555 1_555
H17_4 C21_4 1_555 1_555
C22_4 C21_4 1_555 1_555
H18_4 C22_4 1_555 1_555
C23_4 C22_4 1_555 1_555
C24_4 C23_4 1_555 1_555
H19_4 C24_4 1_555 1_555
C25_4 N5_4 1_555 1_555
H20_4 C25_4 1_555 1_555
C26_4 C23_4 1_555 1_555
C27_4 C26_4 1_555 1_555
H21_4 C27_4 1_555 1_555
C28_4 N10_3 1_555 1_555
H22_4 C28_4 1_555 1_555
C29_4 N10_3 1_555 1_555
H23_4 C29_4 1_555 1_555
C30_4 C26_4 1_555 1_555
H24_4 C30_4 1_555 1_555
C36_4 H29_4 1_555 1_555
C37_4 C36_4 1_555 1_555
H30_4 C37_4 1_555 1_555
C38_4 C18_4 1_555 1_555
C39_4 C38_4 1_555 1_555
H31_4 C39_4 1_555 1_555
C40_4 N8_3 1_555 1_555
H32_4 C40_4 1_555 1_555
O4_4 Cu2_4 1_555 1_555
C4_3 C5_3 1_555 1_555
C9_3 C10_3 1_555 1_555
C19_4 C20_4 1_555 1_555
C24_4 C25_4 1_555 1_555
C27_4 C28_4 1_555 1_555
C29_4 C30_4 1_555 1_555
C37_4 C38_4 1_555 1_555
C39_4 C40_4 1_555 1_555
Cu1_2 O1_4 1_555 1_555
N1_4 Cu1_2 1_555 1_555
N2_2 Cu1_2 1_555 1_555
N3_4 Cu1_2 1_555 1_555
N4_4 C8_4 1_555 1_555
C1_4 N1_4 1_555 1_555
H1_4 C1_4 1_555 1_555
C2_4 C1_4 1_555 1_555
H2_4 C2_4 1_555 1_555
C3_4 C2_4 1_555 1_555
C4_4 C3_4 1_555 1_555
H3_4 C4_4 1_555 1_555
C5_4 N1_4 1_555 1_555
H4_4 C5_4 1_555 1_555
C6_4 C3_4 1_555 1_555
C7_4 C6_4 1_555 1_555
H5_4 C7_4 1_555 1_555
C8_4 C7_4 1_555 1_555
H6_4 C8_4 1_555 1_555
C9_4 N4_4 1_555 1_555
H7_4 C9_4 1_555 1_555
C10_4 C6_4 1_555 1_555
H8_4 C10_4 1_555 1_555
C11_3 N2_2 1_555 1_555
H9_3 C11_3 1_555 1_555
C12_3 C11_3 1_555 1_555
H10_3 C12_3 1_555 1_555
C13_3 C12_3 1_555 1_555
C14_3 C13_3 1_555 1_555
H11_3 C14_3 1_555 1_555
C15_3 N2_2 1_555 1_555
H12_3 C15_3 1_555 1_555
C16_5 N3_4 1_555 1_555
H13_5 C16_5 1_555 1_555
C17_5 C16_5 1_555 1_555
H14_5 C17_5 1_555 1_555
C18_5 C17_5 1_555 1_555
C19_5 C18_5 1_555 1_555
H15_5 C19_5 1_555 1_555
C20_5 N3_4 1_555 1_555
H16_5 C20_5 1_555 1_555
O2_4 Cu1_2 1_555 1_555
Cu2_5 O3_5 1_555 1_555
Cu5_3 N4_4 1_555 1_555
Cu5_4 N8_4 1_555 1_555
N5_5 Cu2_5 1_555 1_555
N7_4 C31_3 1_555 1_555
N7_5 Cu2_5 1_555 1_555
N8_4 C36_5 1_555 1_555
N9_5 Cu2_5 1_555 1_555
N10_4 Cu1_2 1_555 1_555
N11_5 Cu2_5 1_555 1_555
C21_5 N5_5 1_555 1_555
H17_5 C21_5 1_555 1_555
C22_5 C21_5 1_555 1_555
H18_5 C22_5 1_555 1_555
C23_5 C22_5 1_555 1_555
C24_5 C23_5 1_555 1_555
H19_5 C24_5 1_555 1_555
C25_5 N5_5 1_555 1_555
H20_5 C25_5 1_555 1_555
C26_5 C23_5 1_555 1_555
C27_5 C26_5 1_555 1_555
H21_5 C27_5 1_555 1_555
C28_5 N10_4 1_555 1_555
H22_5 C28_5 1_555 1_555
C29_5 N10_4 1_555 1_555
H23_5 C29_5 1_555 1_555
C30_5 C26_5 1_555 1_555
H24_5 C30_5 1_555 1_555
C31_3 H25_3 1_555 1_555
C32_3 C31_3 1_555 1_555
H26_3 C32_3 1_555 1_555
C33_3 C13_3 1_555 1_555
C34_3 C33_3 1_555 1_555
H27_3 C34_3 1_555 1_555
C35_3 N7_4 1_555 1_555
H28_3 C35_3 1_555 1_555
C36_5 H29_5 1_555 1_555
C37_5 C36_5 1_555 1_555
H30_5 C37_5 1_555 1_555
C38_5 C18_5 1_555 1_555
C39_5 C38_5 1_555 1_555
H31_5 C39_5 1_555 1_555
C40_5 N8_4 1_555 1_555
H32_5 C40_5 1_555 1_555
C4_4 C5_4 1_555 1_555
C9_4 C10_4 1_555 1_555
C14_3 C15_3 1_555 1_555
C19_5 C20_5 1_555 1_555
C24_5 C25_5 1_555 1_555
C27_5 C28_5 1_555 1_555
C29_5 C30_5 1_555 1_555
C32_3 C33_3 1_555 1_555
C34_3 C35_3 1_555 1_555
C37_5 C38_5 1_555 1_555
C39_5 C40_5 1_555 1_555
C16_6 N9_4 1_555 1_555
H13_6 C16_6 1_555 1_555
C17_6 C16_6 1_555 1_555
H14_6 C17_6 1_555 1_555
C18_6 C17_6 1_555 1_555
C19_6 C18_6 1_555 1_555
H15_6 C19_6 1_555 1_555
C20_6 N9_4 1_555 1_555
H16_6 C20_6 1_555 1_555
Cu2_6 O3_6 1_555 1_555
N5_6 Cu2_6 1_555 1_555
N7_6 Cu2_6 1_555 1_555
N9_3 C36_6 1_555 1_555
N9_6 Cu2_6 1_555 1_555
N11_6 Cu2_6 1_555 1_555
C21_6 N5_6 1_555 1_555
H17_6 C21_6 1_555 1_555
C22_6 C21_6 1_555 1_555
H18_6 C22_6 1_555 1_555
C23_6 C22_6 1_555 1_555
C24_6 C23_6 1_555 1_555
H19_6 C24_6 1_555 1_555
C25_6 N5_6 1_555 1_555
H20_6 C25_6 1_555 1_555
C26_6 C23_6 1_555 1_555
C27_6 C26_6 1_555 1_555
H21_6 C27_6 1_555 1_555
C28_6 N11_4 1_555 1_555
H22_6 C28_6 1_555 1_555
C29_6 N11_4 1_555 1_555
H23_6 C29_6 1_555 1_555
C30_6 C26_6 1_555 1_555
H24_6 C30_6 1_555 1_555
C36_6 H29_6 1_555 1_555
C37_6 C36_6 1_555 1_555
H30_6 C37_6 1_555 1_555
C38_6 C18_6 1_555 1_555
C39_6 C38_6 1_555 1_555
H31_6 C39_6 1_555 1_555
C40_6 N9_3 1_555 1_555
H32_6 C40_6 1_555 1_555
C19_6 C20_6 1_555 1_555
C24_6 C25_6 1_555 1_555
C27_6 C28_6 1_555 1_555
C29_6 C30_6 1_555 1_555
C37_6 C38_6 1_555 1_555
C39_6 C40_6 1_555 1_555
N5_7 Cu5_2 1_555 1_555
N7_7 Cu5_2 1_555 1_555
N11_7 Cu5_2 1_555 1_555
C21_7 N5_7 1_555 1_555
H17_7 C21_7 1_555 1_555
C25_7 N5_7 1_555 1_555
H20_7 C25_7 1_555 1_555
O4_7 Cu5_2 1_555 1_555
N9_6 C36_7 1_555 1_555
H18_7 C22_7 1_555 1_555
C23_7 C22_7 1_555 1_555
H21_7 C27_7 1_555 1_555
C36_7 H29_7 1_555 1_555
C37_7 C36_7 1_555 1_555
C39_7 C38_7 1_555 1_555
H31_7 C39_7 1_555 1_555
C40_7 N9_6 1_555 1_555
H32_7 C40_7 1_555 1_555
C37_7 C38_7 1_555 1_555
C39_7 C40_7 1_555 1_555
C11_4 N7_5 1_555 1_555
H9_4 C11_4 1_555 1_555
C12_4 C11_4 1_555 1_555
H10_4 C12_4 1_555 1_555
C13_4 C12_4 1_555 1_555
C14_4 C13_4 1_555 1_555
H11_4 C14_4 1_555 1_555
C15_4 N7_5 1_555 1_555
H12_4 C15_4 1_555 1_555
C16_7 N9_5 1_555 1_555
H13_7 C16_7 1_555 1_555
C17_7 C16_7 1_555 1_555
C18_7 C17_7 1_555 1_555
C19_7 C18_7 1_555 1_555
H15_7 C19_7 1_555 1_555
C20_7 N9_5 1_555 1_555
H16_7 C20_7 1_555 1_555
Cu3_2 N6_3 1_555 1_555
N6_3 C31_4 1_555 1_555
C28_7 N11_5 1_555 1_555
C29_7 N11_5 1_555 1_555
H23_7 C29_7 1_555 1_555
C30_7 C26_7 1_555 1_555
H24_7 C30_7 1_555 1_555
C31_4 H25_4 1_555 1_555
C32_4 C31_4 1_555 1_555
H26_4 C32_4 1_555 1_555
C33_4 C13_4 1_555 1_555
C34_4 C33_4 1_555 1_555
H27_4 C34_4 1_555 1_555
C35_4 N6_3 1_555 1_555
H28_4 C35_4 1_555 1_555
C14_4 C15_4 1_555 1_555
C19_7 C20_7 1_555 1_555
C29_7 C30_7 1_555 1_555
C32_4 C33_4 1_555 1_555
C34_4 C35_4 1_555 1_555
Cu3 N8_5 1_555 1_555
N8_5 C36_8 1_555 1_555
C36_8 H29_8 1_555 1_555
C37_8 C36_8 1_555 1_555
H30_8 C37_8 1_555 1_555
C39_8 C38_8 1_555 1_555
H31_8 C39_8 1_555 1_555
C40_8 N8_5 1_555 1_555
H32_8 C40_8 1_555 1_555
C37_8 C38_8 1_555 1_555
C39_8 C40_8 1_555 1_555
Cu3_2 O1_5 1_555 1_555
N1_5 Cu3_2 1_555 1_555
N3_5 Cu3_2 1_555 1_555
N4_5 C8_5 1_555 1_555
C1_5 N1_5 1_555 1_555
H1_5 C1_5 1_555 1_555
C2_5 C1_5 1_555 1_555
H2_5 C2_5 1_555 1_555
C3_5 C2_5 1_555 1_555
C4_5 C3_5 1_555 1_555
H3_5 C4_5 1_555 1_555
C5_5 N1_5 1_555 1_555
H4_5 C5_5 1_555 1_555
C6_5 C3_5 1_555 1_555
C7_5 C6_5 1_555 1_555
H5_5 C7_5 1_555 1_555
C8_5 C7_5 1_555 1_555
H6_5 C8_5 1_555 1_555
C9_5 N4_5 1_555 1_555
H7_5 C9_5 1_555 1_555
C10_5 C6_5 1_555 1_555
H8_5 C10_5 1_555 1_555
C16_8 N3_5 1_555 1_555
H13_8 C16_8 1_555 1_555
C17_8 C16_8 1_555 1_555
H14_8 C17_8 1_555 1_555
C18_8 C17_8 1_555 1_555
C19_8 C18_8 1_555 1_555
H15_8 C19_8 1_555 1_555
C20_8 N3_5 1_555 1_555
H16_8 C20_8 1_555 1_555
O2_5 Cu3_2 1_555 1_555
Cu5_4 N4_5 1_555 1_555
C4_5 C5_5 1_555 1_555
C9_5 C10_5 1_555 1_555
C19_8 C20_8 1_555 1_555
C11_5 N7_3 1_555 1_555
H9_5 C11_5 1_555 1_555
C12_5 C11_5 1_555 1_555
H10_5 C12_5 1_555 1_555
C13_5 C12_5 1_555 1_555
Cu3 O3_8 1_555 1_555
N5_8 Cu3 1_555 1_555
N7_8 Cu3 1_555 1_555
C21_8 N5_8 1_555 1_555
H17_8 C21_8 1_555 1_555
C22_8 C21_8 1_555 1_555
H18_8 C22_8 1_555 1_555
C23_8 C22_8 1_555 1_555
C24_8 C23_8 1_555 1_555
H19_8 C24_8 1_555 1_555
C25_8 N5_8 1_555 1_555
H20_8 C25_8 1_555 1_555
C26_8 C23_8 1_555 1_555
C27_8 C26_8 1_555 1_555
H21_8 C27_8 1_555 1_555
C28_8 N11_3 1_555 1_555
H22_8 C28_8 1_555 1_555
C29_8 N11_3 1_555 1_555
H23_8 C29_8 1_555 1_555
C30_8 C26_8 1_555 1_555
H24_8 C30_8 1_555 1_555
O4_8 Cu3 1_555 1_555
C24_8 C25_8 1_555 1_555
C27_8 C28_8 1_555 1_555
C29_8 C30_8 1_555 1_555
H27_5 C34_5 1_555 1_555
H28_5 C35_5 1_555 1_555
C34_5 C35_5 1_555 1_555
H11_5 C14_5 1_555 1_555
H12_5 C15_5 1_555 1_555
C14_5 C15_5 1_555 1_555
Cu5_4 N6_4 1_555 1_555
N6_4 C31_5 1_555 1_555
C31_5 H25_5 1_555 1_555
C32_5 C31_5 1_555 1_555
H26_5 C32_5 1_555 1_555
C32_5 C33_5 1_555 1_555
N11_2 C8_6 1_555 1_555
H3_6 C4_6 1_555 1_555
C9_6 N11_2 1_555 1_555
H7_6 C9_6 1_555 1_555
C10_6 C6_6 1_555 1_555
H8_6 C10_6 1_555 1_555
C9_6 C10_6 1_555 1_555
N1_6 Cu5_4 1_555 1_555
C1_6 N1_6 1_555 1_555
H1_6 C1_6 1_555 1_555
C2_6 C1_6 1_555 1_555
H2_6 C2_6 1_555 1_555
C3_6 C2_6 1_555 1_555
C5_6 N1_6 1_555 1_555
H4_6 C5_6 1_555 1_555
H5_6 C7_6 1_555 1_555
O2_6 Cu5_4 1_555 1_555
C11_6 N7_8 1_555 1_555
H9_6 C11_6 1_555 1_555
C12_6 C11_6 1_555 1_555
H10_6 C12_6 1_555 1_555
C13_6 C12_6 1_555 1_555
C14_6 C13_6 1_555 1_555
H11_6 C14_6 1_555 1_555
C15_6 N7_8 1_555 1_555
H12_6 C15_6 1_555 1_555
N7_6 C31_6 1_555 1_555
C31_6 H25_6 1_555 1_555
C32_6 C31_6 1_555 1_555
H26_6 C32_6 1_555 1_555
C33_6 C13_6 1_555 1_555
C34_6 C33_6 1_555 1_555
H27_6 C34_6 1_555 1_555
C35_6 N7_6 1_555 1_555
H28_6 C35_6 1_555 1_555
C14_6 C15_6 1_555 1_555
C32_6 C33_6 1_555 1_555
C34_6 C35_6 1_555 1_555
C28_9 N11_6 1_555 1_555
C29_9 N11_6 1_555 1_555
H23_9 C29_9 1_555 1_555
C30_9 C26_9 1_555 1_555
H24_9 C30_9 1_555 1_555
C29_9 C30_9 1_555 1_555
N5_9 Cu5 1_555 1_555
N7_9 Cu5 1_555 1_555
C21_9 N5_9 1_555 1_555
H17_9 C21_9 1_555 1_555
C25_9 N5_9 1_555 1_555
H20_9 C25_9 1_555 1_555
O4_9 Cu5 1_555 1_555
H18_9 C22_9 1_555 1_555
C23_9 C22_9 1_555 1_555
H21_9 C27_9 1_555 1_555
C11_7 N7_7 1_555 1_555
H9_7 C11_7 1_555 1_555
C12_7 C11_7 1_555 1_555
H10_7 C12_7 1_555 1_555
C13_7 C12_7 1_555 1_555
Cu5_3 O3_10 1_555 1_555
N5_10 Cu5_3 1_555 1_555
N7_10 Cu5_3 1_555 1_555
C21_10 N5_10 1_555 1_555
H17_10 C21_10 1_555 1_555
C22_10 C21_10 1_555 1_555
H18_10 C22_10 1_555 1_555
C23_10 C22_10 1_555 1_555
C24_10 C23_10 1_555 1_555
H19_10 C24_10 1_555 1_555
C25_10 N5_10 1_555 1_555
H20_10 C25_10 1_555 1_555
C26_10 C23_10 1_555 1_555
C27_10 C26_10 1_555 1_555
H21_10 C27_10 1_555 1_555
C28_10 N11_7 1_555 1_555
H22_10 C28_10 1_555 1_555
C29_10 N11_7 1_555 1_555
H23_10 C29_10 1_555 1_555
C30_10 C26_10 1_555 1_555
H24_10 C30_10 1_555 1_555
H27_7 C34_7 1_555 1_555
H28_7 C35_7 1_555 1_555
O4_10 Cu5_3 1_555 1_555
C24_10 C25_10 1_555 1_555
C27_10 C28_10 1_555 1_555
C29_10 C30_10 1_555 1_555
C34_7 C35_7 1_555 1_555
H11_7 C14_7 1_555 1_555
H12_7 C15_7 1_555 1_555
N7_9 C31_7 1_555 1_555
C31_7 H25_7 1_555 1_555
C32_7 C31_7 1_555 1_555
H26_7 C32_7 1_555 1_555
C14_7 C15_7 1_555 1_555
C32_7 C33_7 1_555 1_555
C11_8 N7_10 1_555 1_555
H9_8 C11_8 1_555 1_555
C12_8 C11_8 1_555 1_555
H10_8 C12_8 1_555 1_555
C13_8 C12_8 1_555 1_555
C14_8 C13_8 1_555 1_555
H11_8 C14_8 1_555 1_555
C15_8 N7_10 1_555 1_555
H12_8 C15_8 1_555 1_555
N7_2 C31_8 1_555 1_555
C31_8 H25_8 1_555 1_555
C32_8 C31_8 1_555 1_555
H26_8 C32_8 1_555 1_555
C33_8 C13_8 1_555 1_555
C34_8 C33_8 1_555 1_555
H27_8 C34_8 1_555 1_555
C35_8 N7_2 1_555 1_555
H28_8 C35_8 1_555 1_555
C14_8 C15_8 1_555 1_555
C32_8 C33_8 1_555 1_555
C34_8 C35_8 1_555 1_555
Cu6 O5 1_555 1_555
N12 Cu6 1_555 1_555
N13 Cu6 1_555 1_555
N14 Cu6 1_555 1_555
N15 C48 1_555 1_555
C41 N12 1_555 1_555
H33 C41 1_555 1_555
C42 C41 1_555 1_555
H34 C42 1_555 1_555
C43 C42 1_555 1_555
C44 C43 1_555 1_555
H35 C44 1_555 1_555
C45 N12 1_555 1_555
H36 C45 1_555 1_555
C46 C43 1_555 1_555
C47 C46 1_555 1_555
H37 C47 1_555 1_555
C48 C47 1_555 1_555
H38 C48 1_555 1_555
C49 N15 1_555 1_555
H39 C49 1_555 1_555
C50 C46 1_555 1_555
H40 C50 1_555 1_555
C51 N13 1_555 1_555
H41 C51 1_555 1_555
C52 C51 1_555 1_555
H42 C52 1_555 1_555
C53 C52 1_555 1_555
C54 C53 1_555 1_555
H43 C54 1_555 1_555
C55 N13 1_555 1_555
H44 C55 1_555 1_555
C56 N14 1_555 1_555
H45 C56 1_555 1_555
C57 C56 1_555 1_555
H46 C57 1_555 1_555
C58 C57 1_555 1_555
C59 C58 1_555 1_555
H47 C59 1_555 1_555
C60 N14 1_555 1_555
H48 C60 1_555 1_555
N16 O6 1_555 1_555
O6 Cu6 1_555 1_555
O7 N16 1_555 1_555
O8 N16 1_555 1_555
Cu8 N15 1_555 1_555
Cu10 N20 1_555 1_555
N17 Cu7 1_555 1_555
N19 Cu7 1_555 1_555
N20 C76 1_555 1_555
N21 Cu7 1_555 1_555
N22 Cu6 1_555 1_555
C61 N17 1_555 1_555
H49 C61 1_555 1_555
C62 C61 1_555 1_555
H50 C62 1_555 1_555
C63 C62 1_555 1_555
C64 C63 1_555 1_555
H51 C64 1_555 1_555
C65 N17 1_555 1_555
H52 C65 1_555 1_555
C66 C63 1_555 1_555
C67 C66 1_555 1_555
H53 C67 1_555 1_555
C68 N22 1_555 1_555
H54 C68 1_555 1_555
C69 N22 1_555 1_555
H55 C69 1_555 1_555
C70 C66 1_555 1_555
H56 C70 1_555 1_555
C76 H61 1_555 1_555
C77 C76 1_555 1_555
H62 C77 1_555 1_555
C78 C58 1_555 1_555
C79 C78 1_555 1_555
H63 C79 1_555 1_555
C80 N20 1_555 1_555
H64 C80 1_555 1_555
C44 C45 1_555 1_555
C49 C50 1_555 1_555
C54 C55 1_555 1_555
C59 C60 1_555 1_555
C64 C65 1_555 1_555
C67 C68 1_555 1_555
C69 C70 1_555 1_555
C77 C78 1_555 1_555
C79 C80 1_555 1_555
N24 O10 1_555 1_555
O12 N24 1_555 1_555
Cu9 N18 1_555 1_555
N18 C71 1_555 1_555
C71 H57 1_555 1_555
C72 C71 1_555 1_555
H58 C72 1_555 1_555
C74 C73 1_555 1_555
H59 C74 1_555 1_555
C75 N18 1_555 1_555
H60 C75 1_555 1_555
C72 C73 1_555 1_555
C74 C75 1_555 1_555
Cu9 O5_2 1_555 1_555
N12_2 Cu9 1_555 1_555
N14_2 Cu9 1_555 1_555
N15_2 C48_2 1_555 1_555
C41_2 N12_2 1_555 1_555
H33_2 C41_2 1_555 1_555
C42_2 C41_2 1_555 1_555
H34_2 C42_2 1_555 1_555
C43_2 C42_2 1_555 1_555
C44_2 C43_2 1_555 1_555
H35_2 C44_2 1_555 1_555
C45_2 N12_2 1_555 1_555
H36_2 C45_2 1_555 1_555
C46_2 C43_2 1_555 1_555
C47_2 C46_2 1_555 1_555
H37_2 C47_2 1_555 1_555
C48_2 C47_2 1_555 1_555
H38_2 C48_2 1_555 1_555
C49_2 N15_2 1_555 1_555
H39_2 C49_2 1_555 1_555
C50_2 C46_2 1_555 1_555
H40_2 C50_2 1_555 1_555
C56_2 N14_2 1_555 1_555
H45_2 C56_2 1_555 1_555
C57_2 C56_2 1_555 1_555
H46_2 C57_2 1_555 1_555
C58_2 C57_2 1_555 1_555
C59_2 C58_2 1_555 1_555
H47_2 C59_2 1_555 1_555
C60_2 N14_2 1_555 1_555
H48_2 C60_2 1_555 1_555
N16_2 O6_2 1_555 1_555
O6_2 Cu9 1_555 1_555
O7_2 N16_2 1_555 1_555
O8_2 N16_2 1_555 1_555
Cu8_2 N15_2 1_555 1_555
Cu10_2 N20_2 1_555 1_555
N17_2 Cu7_2 1_555 1_555
N19_2 Cu7_2 1_555 1_555
N20_2 C76_2 1_555 1_555
N21_2 Cu7_2 1_555 1_555
N22_2 Cu9 1_555 1_555
C61_2 N17_2 1_555 1_555
H49_2 C61_2 1_555 1_555
C62_2 C61_2 1_555 1_555
H50_2 C62_2 1_555 1_555
C63_2 C62_2 1_555 1_555
C64_2 C63_2 1_555 1_555
H51_2 C64_2 1_555 1_555
C65_2 N17_2 1_555 1_555
H52_2 C65_2 1_555 1_555
C66_2 C63_2 1_555 1_555
C67_2 C66_2 1_555 1_555
H53_2 C67_2 1_555 1_555
C68_2 N22_2 1_555 1_555
H54_2 C68_2 1_555 1_555
C69_2 N22_2 1_555 1_555
H55_2 C69_2 1_555 1_555
C70_2 C66_2 1_555 1_555
H56_2 C70_2 1_555 1_555
C76_2 H61_2 1_555 1_555
C77_2 C76_2 1_555 1_555
H62_2 C77_2 1_555 1_555
C78_2 C58_2 1_555 1_555
C79_2 C78_2 1_555 1_555
H63_2 C79_2 1_555 1_555
C80_2 N20_2 1_555 1_555
H64_2 C80_2 1_555 1_555
C44_2 C45_2 1_555 1_555
C49_2 C50_2 1_555 1_555
C59_2 C60_2 1_555 1_555
C64_2 C65_2 1_555 1_555
C67_2 C68_2 1_555 1_555
C69_2 C70_2 1_555 1_555
C77_2 C78_2 1_555 1_555
C79_2 C80_2 1_555 1_555
N24_2 O10_2 1_555 1_555
O12_2 N24_2 1_555 1_555
Cu8 O5_3 1_555 1_555
N12_3 Cu8 1_555 1_555
N13_2 Cu8 1_555 1_555
N14_3 Cu8 1_555 1_555
N15_3 C48_3 1_555 1_555
C41_3 N12_3 1_555 1_555
H33_3 C41_3 1_555 1_555
C42_3 C41_3 1_555 1_555
H34_3 C42_3 1_555 1_555
C43_3 C42_3 1_555 1_555
C44_3 C43_3 1_555 1_555
H35_3 C44_3 1_555 1_555
C45_3 N12_3 1_555 1_555
H36_3 C45_3 1_555 1_555
C46_3 C43_3 1_555 1_555
C47_3 C46_3 1_555 1_555
H37_3 C47_3 1_555 1_555
C48_3 C47_3 1_555 1_555
H38_3 C48_3 1_555 1_555
C49_3 N15_3 1_555 1_555
H39_3 C49_3 1_555 1_555
C50_3 C46_3 1_555 1_555
H40_3 C50_3 1_555 1_555
C51_2 N13_2 1_555 1_555
H41_2 C51_2 1_555 1_555
C52_2 C51_2 1_555 1_555
H42_2 C52_2 1_555 1_555
C53_2 C52_2 1_555 1_555
C54_2 C53_2 1_555 1_555
H43_2 C54_2 1_555 1_555
C55_2 N13_2 1_555 1_555
H44_2 C55_2 1_555 1_555
C56_3 N14_3 1_555 1_555
H45_3 C56_3 1_555 1_555
C57_3 C56_3 1_555 1_555
H46_3 C57_3 1_555 1_555
C58_3 C57_3 1_555 1_555
C59_3 C58_3 1_555 1_555
H47_3 C59_3 1_555 1_555
C60_3 N14_3 1_555 1_555
H48_3 C60_3 1_555 1_555
N16_3 O6_3 1_555 1_555
O6_3 Cu8 1_555 1_555
O7_3 N16_3 1_555 1_555
O8_3 N16_3 1_555 1_555
Cu8_3 N15_3 1_555 1_555
Cu9_2 N18_2 1_555 1_555
N18_2 C71_2 1_555 1_555
C71_2 H57_2 1_555 1_555
C72_2 C71_2 1_555 1_555
H58_2 C72_2 1_555 1_555
C73_2 C53_2 1_555 1_555
C74_2 C73_2 1_555 1_555
H59_2 C74_2 1_555 1_555
C75_2 N18_2 1_555 1_555
H60_2 C75_2 1_555 1_555
C44_3 C45_3 1_555 1_555
C49_3 C50_3 1_555 1_555
C54_2 C55_2 1_555 1_555
C59_3 C60_3 1_555 1_555
C72_2 C73_2 1_555 1_555
C74_2 C75_2 1_555 1_555
Cu8_2 N20_3 1_555 1_555
N20_3 C76_3 1_555 1_555
C76_3 H61_3 1_555 1_555
C77_3 C76_3 1_555 1_555
H62_3 C77_3 1_555 1_555
C79_3 C78_3 1_555 1_555
H63_3 C79_3 1_555 1_555
C80_3 N20_3 1_555 1_555
H64_3 C80_3 1_555 1_555
C77_3 C78_3 1_555 1_555
C79_3 C80_3 1_555 1_555
H46_4 C57_4 1_555 1_555
Cu10 O9 1_555 1_555
Cu10_3 N20_4 1_555 1_555
N17_3 Cu10 1_555 1_555
N19_3 Cu10 1_555 1_555
N20_4 C76_4 1_555 1_555
N23_3 Cu10 1_555 1_555
C61_3 N17_3 1_555 1_555
H49_3 C61_3 1_555 1_555
C62_3 C61_3 1_555 1_555
H50_3 C62_3 1_555 1_555
C63_3 C62_3 1_555 1_555
C64_3 C63_3 1_555 1_555
C65_3 N17_3 1_555 1_555
H52_3 C65_3 1_555 1_555
H53_3 C67_3 1_555 1_555
H54_3 C68_3 1_555 1_555
C76_4 H61_4 1_555 1_555
C79_4 C78_4 1_555 1_555
H63_4 C79_4 1_555 1_555
C80_4 N20_4 1_555 1_555
H64_4 C80_4 1_555 1_555
C64_3 C65_3 1_555 1_555
C67_3 C68_3 1_555 1_555
C79_4 C80_4 1_555 1_555
N12_4 Cu9_2 1_555 1_555
N14_4 Cu9_2 1_555 1_555
N15_4 C48_4 1_555 1_555
C41_4 N12_4 1_555 1_555
H33_4 C41_4 1_555 1_555
C42_4 C41_4 1_555 1_555
H34_4 C42_4 1_555 1_555
C43_4 C42_4 1_555 1_555
C44_4 C43_4 1_555 1_555
H35_4 C44_4 1_555 1_555
C45_4 N12_4 1_555 1_555
H36_4 C45_4 1_555 1_555
C46_4 C43_4 1_555 1_555
C47_4 C46_4 1_555 1_555
H37_4 C47_4 1_555 1_555
C48_4 C47_4 1_555 1_555
H38_4 C48_4 1_555 1_555
C49_4 N15_4 1_555 1_555
H39_4 C49_4 1_555 1_555
C50_4 C46_4 1_555 1_555
H40_4 C50_4 1_555 1_555
C56_4 N14_4 1_555 1_555
H45_4 C56_4 1_555 1_555
C59_4 C58_4 1_555 1_555
H47_4 C59_4 1_555 1_555
C60_4 N14_4 1_555 1_555
H48_4 C60_4 1_555 1_555
N16_4 O6_4 1_555 1_555
O6_4 Cu9_2 1_555 1_555
O7_4 N16_4 1_555 1_555
O8_4 N16_4 1_555 1_555
Cu8_4 N15_4 1_555 1_555
N22_3 Cu9_2 1_555 1_555
C69_3 N22_3 1_555 1_555
H55_3 C69_3 1_555 1_555
C70_3 C66_3 1_555 1_555
H56_3 C70_3 1_555 1_555
H62_4 C77_4 1_555 1_555
N24_3 O10_3 1_555 1_555
O11_3 N24_3 1_555 1_555
O12_3 N24_3 1_555 1_555
C44_4 C45_4 1_555 1_555
C49_4 C50_4 1_555 1_555
C59_4 C60_4 1_555 1_555
C69_3 C70_3 1_555 1_555
Cu6_2 O5_5 1_555 1_555
N12_5 Cu6_2 1_555 1_555
N13_3 Cu6_2 1_555 1_555
N14_5 Cu6_2 1_555 1_555
N15_5 C48_5 1_555 1_555
C41_5 N12_5 1_555 1_555
H33_5 C41_5 1_555 1_555
C42_5 C41_5 1_555 1_555
H34_5 C42_5 1_555 1_555
C43_5 C42_5 1_555 1_555
C44_5 C43_5 1_555 1_555
H35_5 C44_5 1_555 1_555
C45_5 N12_5 1_555 1_555
H36_5 C45_5 1_555 1_555
C46_5 C43_5 1_555 1_555
C47_5 C46_5 1_555 1_555
H37_5 C47_5 1_555 1_555
C48_5 C47_5 1_555 1_555
H38_5 C48_5 1_555 1_555
C49_5 N15_5 1_555 1_555
H39_5 C49_5 1_555 1_555
C50_5 C46_5 1_555 1_555
H40_5 C50_5 1_555 1_555
C51_3 N13_3 1_555 1_555
H41_3 C51_3 1_555 1_555
C52_3 C51_3 1_555 1_555
H42_3 C52_3 1_555 1_555
C53_3 C52_3 1_555 1_555
C54_3 C53_3 1_555 1_555
H43_3 C54_3 1_555 1_555
C55_3 N13_3 1_555 1_555
H44_3 C55_3 1_555 1_555
C56_5 N14_5 1_555 1_555
H45_5 C56_5 1_555 1_555
C57_5 C56_5 1_555 1_555
H46_5 C57_5 1_555 1_555
C58_5 C57_5 1_555 1_555
C59_5 C58_5 1_555 1_555
H47_5 C59_5 1_555 1_555
C60_5 N14_5 1_555 1_555
H48_5 C60_5 1_555 1_555
N16_5 O6_5 1_555 1_555
O6_5 Cu6_2 1_555 1_555
O7_5 N16_5 1_555 1_555
O8_5 N16_5 1_555 1_555
Cu8_4 N18_3 1_555 1_555
Cu10_4 N20_5 1_555 1_555
N17_4 Cu10_3 1_555 1_555
N18_3 C71_3 1_555 1_555
N19_4 Cu10_3 1_555 1_555
N20_5 C76_5 1_555 1_555
N22_4 Cu6_2 1_555 1_555
N23_4 Cu10_3 1_555 1_555
C61_4 N17_4 1_555 1_555
H49_4 C61_4 1_555 1_555
C62_4 C61_4 1_555 1_555
H50_4 C62_4 1_555 1_555
C63_4 C62_4 1_555 1_555
C64_4 C63_4 1_555 1_555
H51_4 C64_4 1_555 1_555
C65_4 N17_4 1_555 1_555
H52_4 C65_4 1_555 1_555
C66_4 C63_4 1_555 1_555
C67_4 C66_4 1_555 1_555
H53_4 C67_4 1_555 1_555
C68_4 N22_4 1_555 1_555
H54_4 C68_4 1_555 1_555
C69_4 N22_4 1_555 1_555
H55_4 C69_4 1_555 1_555
C70_4 C66_4 1_555 1_555
H56_4 C70_4 1_555 1_555
C71_3 H57_3 1_555 1_555
C72_3 C71_3 1_555 1_555
H58_3 C72_3 1_555 1_555
C73_3 C53_3 1_555 1_555
C74_3 C73_3 1_555 1_555
H59_3 C74_3 1_555 1_555
C75_3 N18_3 1_555 1_555
H60_3 C75_3 1_555 1_555
C76_5 H61_5 1_555 1_555
C77_5 C76_5 1_555 1_555
H62_5 C77_5 1_555 1_555
C78_5 C58_5 1_555 1_555
C79_5 C78_5 1_555 1_555
H63_5 C79_5 1_555 1_555
C80_5 N20_5 1_555 1_555
H64_5 C80_5 1_555 1_555
N24_4 O10_4 1_555 1_555
O10_4 Cu10_3 1_555 1_555
O11_4 N24_4 1_555 1_555
O12_4 N24_4 1_555 1_555
C44_5 C45_5 1_555 1_555
C49_5 C50_5 1_555 1_555
C54_3 C55_3 1_555 1_555
C59_5 C60_5 1_555 1_555
C64_4 C65_4 1_555 1_555
C67_4 C68_4 1_555 1_555
C69_4 C70_4 1_555 1_555
C72_3 C73_3 1_555 1_555
C74_3 C75_3 1_555 1_555
C77_5 C78_5 1_555 1_555
C79_5 C80_5 1_555 1_555
Cu8_4 O5_6 1_555 1_555
N12_6 Cu8_4 1_555 1_555
N14_6 Cu8_4 1_555 1_555
N15_6 C48_6 1_555 1_555
C41_6 N12_6 1_555 1_555
H33_6 C41_6 1_555 1_555
C42_6 C41_6 1_555 1_555
H34_6 C42_6 1_555 1_555
C43_6 C42_6 1_555 1_555
C44_6 C43_6 1_555 1_555
H35_6 C44_6 1_555 1_555
C45_6 N12_6 1_555 1_555
H36_6 C45_6 1_555 1_555
C46_6 C43_6 1_555 1_555
C47_6 C46_6 1_555 1_555
H37_6 C47_6 1_555 1_555
C48_6 C47_6 1_555 1_555
H38_6 C48_6 1_555 1_555
C49_6 N15_6 1_555 1_555
H39_6 C49_6 1_555 1_555
C50_6 C46_6 1_555 1_555
H40_6 C50_6 1_555 1_555
C56_6 N14_6 1_555 1_555
H45_6 C56_6 1_555 1_555
C57_6 C56_6 1_555 1_555
H46_6 C57_6 1_555 1_555
C58_6 C57_6 1_555 1_555
C59_6 C58_6 1_555 1_555
H47_6 C59_6 1_555 1_555
C60_6 N14_6 1_555 1_555
H48_6 C60_6 1_555 1_555
N16_6 O6_6 1_555 1_555
O6_6 Cu8_4 1_555 1_555
O7_6 N16_6 1_555 1_555
O8_6 N16_6 1_555 1_555
Cu8_3 N20_6 1_555 1_555
N20_6 C76_6 1_555 1_555
C76_6 H61_6 1_555 1_555
C77_6 C76_6 1_555 1_555
H62_6 C77_6 1_555 1_555
C78_6 C58_6 1_555 1_555
C79_6 C78_6 1_555 1_555
H63_6 C79_6 1_555 1_555
C80_6 N20_6 1_555 1_555
H64_6 C80_6 1_555 1_555
C44_6 C45_6 1_555 1_555
C49_6 C50_6 1_555 1_555
C59_6 C60_6 1_555 1_555
C77_6 C78_6 1_555 1_555
C79_6 C80_6 1_555 1_555
Cu8_5 O5_7 1_555 1_555
N12_7 Cu8_5 1_555 1_555
N13_4 Cu8_5 1_555 1_555
N14_7 Cu8_5 1_555 1_555
N15_7 C48_7 1_555 1_555
C41_7 N12_7 1_555 1_555
H33_7 C41_7 1_555 1_555
C42_7 C41_7 1_555 1_555
H34_7 C42_7 1_555 1_555
C43_7 C42_7 1_555 1_555
C44_7 C43_7 1_555 1_555
H35_7 C44_7 1_555 1_555
C45_7 N12_7 1_555 1_555
H36_7 C45_7 1_555 1_555
C46_7 C43_7 1_555 1_555
C47_7 C46_7 1_555 1_555
H37_7 C47_7 1_555 1_555
C48_7 C47_7 1_555 1_555
H38_7 C48_7 1_555 1_555
C49_7 N15_7 1_555 1_555
H39_7 C49_7 1_555 1_555
C50_7 C46_7 1_555 1_555
H40_7 C50_7 1_555 1_555
C51_4 N13_4 1_555 1_555
C52_4 C51_4 1_555 1_555
C53_4 C52_4 1_555 1_555
C54_4 C53_4 1_555 1_555
H43_4 C54_4 1_555 1_555
C55_4 N13_4 1_555 1_555
H44_4 C55_4 1_555 1_555
C56_7 N14_7 1_555 1_555
H45_7 C56_7 1_555 1_555
C57_7 C56_7 1_555 1_555
H46_7 C57_7 1_555 1_555
C58_7 C57_7 1_555 1_555
Cu10_2 N15_7 1_555 1_555
Cu8_6 N20_7 1_555 1_555
N19_2 C71_4 1_555 1_555
N20_7 C76_7 1_555 1_555
C72_4 C71_4 1_555 1_555
C73_4 C53_4 1_555 1_555
C74_4 C73_4 1_555 1_555
H59_4 C74_4 1_555 1_555
C75_4 N19_2 1_555 1_555
H60_4 C75_4 1_555 1_555
C76_7 H61_7 1_555 1_555
C77_7 C76_7 1_555 1_555
H62_7 C77_7 1_555 1_555
C78_7 C58_7 1_555 1_555
C44_7 C45_7 1_555 1_555
C49_7 C50_7 1_555 1_555
C54_4 C55_4 1_555 1_555
C72_4 C73_4 1_555 1_555
C74_4 C75_4 1_555 1_555
C77_7 C78_7 1_555 1_555
H47_7 C59_7 1_555 1_555
H48_7 C60_7 1_555 1_555
N16_7 O6_7 1_555 1_555
O8_7 N16_7 1_555 1_555
H63_7 C79_7 1_555 1_555
H64_7 C80_7 1_555 1_555
C59_7 C60_7 1_555 1_555
C79_7 C80_7 1_555 1_555
N21 C76_8 1_555 1_555
C76_8 H61_8 1_555 1_555
H63_8 C79_8 1_555 1_555
H64_8 C80_8 1_555 1_555
C79_8 C80_8 1_555 1_555
Cu10_4 O9_3 1_555 1_555
N17_5 Cu10_4 1_555 1_555
N19_5 Cu10_4 1_555 1_555
N23_5 Cu10_4 1_555 1_555
C61_5 N17_5 1_555 1_555
H49_5 C61_5 1_555 1_555
C62_5 C61_5 1_555 1_555
H50_5 C62_5 1_555 1_555
C63_5 C62_5 1_555 1_555
C64_5 C63_5 1_555 1_555
C65_5 N17_5 1_555 1_555
H52_5 C65_5 1_555 1_555
H53_5 C67_5 1_555 1_555
H54_5 C68_5 1_555 1_555
C64_5 C65_5 1_555 1_555
C67_5 C68_5 1_555 1_555
C56_8 N21_2 1_555 1_555
H45_8 C56_8 1_555 1_555
H47_8 C59_8 1_555 1_555
H48_8 C60_8 1_555 1_555
C69_5 N23_2 1_555 1_555
H55_5 C69_5 1_555 1_555
C70_5 C66_5 1_555 1_555
H56_5 C70_5 1_555 1_555
N24_5 O10_5 1_555 1_555
O11_5 N24_5 1_555 1_555
O12_5 N24_5 1_555 1_555
C59_8 C60_8 1_555 1_555
C69_5 C70_5 1_555 1_555
C49_8 N23 1_555 1_555
H39_8 C49_8 1_555 1_555
C50_8 C46_8 1_555 1_555
H40_8 C50_8 1_555 1_555
H43_5 C54_5 1_555 1_555
H44_5 C55_5 1_555 1_555
N16_8 O6_8 1_555 1_555
O7_8 N16_8 1_555 1_555
O8_8 N16_8 1_555 1_555
C49_8 C50_8 1_555 1_555
C54_5 C55_5 1_555 1_555
N19_5 C71_5 1_555 1_555
C71_5 H57_5 1_555 1_555
C72_5 C71_5 1_555 1_555
H58_5 C72_5 1_555 1_555
C72_5 C73_5 1_555 1_555
Cu8_3 O5_8 1_555 1_555
N12_8 Cu8_3 1_555 1_555
N13_5 Cu8_3 1_555 1_555
C41_8 N12_8 1_555 1_555
H33_8 C41_8 1_555 1_555
C42_8 C41_8 1_555 1_555
H34_8 C42_8 1_555 1_555
C43_8 C42_8 1_555 1_555
C44_8 C43_8 1_555 1_555
C45_8 N12_8 1_555 1_555
H36_8 C45_8 1_555 1_555
H37_8 C47_8 1_555 1_555
C48_8 C47_8 1_555 1_555
H38_8 C48_8 1_555 1_555
C51_5 N13_5 1_555 1_555
H41_5 C51_5 1_555 1_555
C52_5 C51_5 1_555 1_555
H42_5 C52_5 1_555 1_555
C53_5 C52_5 1_555 1_555
C44_8 C45_8 1_555 1_555
H59_5 C74_5 1_555 1_555
H60_5 C75_5 1_555 1_555
C74_5 C75_5 1_555 1_555
Cu8_2 O9_4 1_555 1_555
N17_6 Cu8_2 1_555 1_555
N19_6 Cu8_2 1_555 1_555
C61_6 N17_6 1_555 1_555
H49_6 C61_6 1_555 1_555
C62_6 C61_6 1_555 1_555
H50_6 C62_6 1_555 1_555
C63_6 C62_6 1_555 1_555
C64_6 C63_6 1_555 1_555
H51_6 C64_6 1_555 1_555
C65_6 N17_6 1_555 1_555
H52_6 C65_6 1_555 1_555
C66_6 C63_6 1_555 1_555
C67_6 C66_6 1_555 1_555
H53_6 C67_6 1_555 1_555
C68_6 N23_5 1_555 1_555
H54_6 C68_6 1_555 1_555
C69_6 N23_5 1_555 1_555
H55_6 C69_6 1_555 1_555
C70_6 C66_6 1_555 1_555
H56_6 C70_6 1_555 1_555
N24_6 O10_6 1_555 1_555
O10_6 Cu8_2 1_555 1_555
O11_6 N24_6 1_555 1_555
O12_6 N24_6 1_555 1_555
C64_6 C65_6 1_555 1_555
C67_6 C68_6 1_555 1_555
C69_6 C70_6 1_555 1_555
C51_6 N19 1_555 1_555
C52_6 C51_6 1_555 1_555
C53_6 C52_6 1_555 1_555
C54_6 C53_6 1_555 1_555
H43_6 C54_6 1_555 1_555
C55_6 N19 1_555 1_555
H44_6 C55_6 1_555 1_555
Cu8_6 N18_4 1_555 1_555
N18_4 C71_6 1_555 1_555
C72_6 C71_6 1_555 1_555
C73_6 C53_6 1_555 1_555
C74_6 C73_6 1_555 1_555
H59_6 C74_6 1_555 1_555
C75_6 N18_4 1_555 1_555
H60_6 C75_6 1_555 1_555
C54_6 C55_6 1_555 1_555
C72_6 C73_6 1_555 1_555
C74_6 C75_6 1_555 1_555
Cu8_6 O5_9 1_555 1_555
N12_9 Cu8_6 1_555 1_555
N23_3 C48_9 1_555 1_555
C41_9 N12_9 1_555 1_555
H33_9 C41_9 1_555 1_555
C42_9 C41_9 1_555 1_555
H34_9 C42_9 1_555 1_555
C43_9 C42_9 1_555 1_555
C44_9 C43_9 1_555 1_555
H35_9 C44_9 1_555 1_555
C45_9 N12_9 1_555 1_555
H36_9 C45_9 1_555 1_555
C46_9 C43_9 1_555 1_555
C47_9 C46_9 1_555 1_555
H37_9 C47_9 1_555 1_555
C48_9 C47_9 1_555 1_555
H38_9 C48_9 1_555 1_555
C49_9 N23_3 1_555 1_555
H39_9 C49_9 1_555 1_555
C50_9 C46_9 1_555 1_555
H40_9 C50_9 1_555 1_555
C44_9 C45_9 1_555 1_555
C49_9 C50_9 1_555 1_555
N16_9 O6_9 1_555 1_555
O8_9 N16_9 1_555 1_555
C49_10 N23_4 1_555 1_555
H39_10 C49_10 1_555 1_555
C50_10 C46_10 1_555 1_555
H40_10 C50_10 1_555 1_555
H43_7 C54_7 1_555 1_555
H44_7 C55_7 1_555 1_555
N16_10 O6_10 1_555 1_555
O7_10 N16_10 1_555 1_555
O8_10 N16_10 1_555 1_555
N19_3 C71_7 1_555 1_555
C71_7 H57_7 1_555 1_555
C72_7 C71_7 1_555 1_555
H58_7 C72_7 1_555 1_555
C49_10 C50_10 1_555 1_555
C54_7 C55_7 1_555 1_555
C72_7 C73_7 1_555 1_555
Cu10_2 O5_10 1_555 1_555
N12_10 Cu10_2 1_555 1_555
N13_6 Cu10_2 1_555 1_555
C41_10 N12_10 1_555 1_555
H33_10 C41_10 1_555 1_555
C42_10 C41_10 1_555 1_555
H34_10 C42_10 1_555 1_555
C43_10 C42_10 1_555 1_555
C44_10 C43_10 1_555 1_555
C45_10 N12_10 1_555 1_555
H36_10 C45_10 1_555 1_555
H37_10 C47_10 1_555 1_555
C48_10 C47_10 1_555 1_555
H38_10 C48_10 1_555 1_555
C51_7 N13_6 1_555 1_555
H41_7 C51_7 1_555 1_555
C52_7 C51_7 1_555 1_555
H42_7 C52_7 1_555 1_555
C53_7 C52_7 1_555 1_555
H59_7 C74_7 1_555 1_555
H60_7 C75_7 1_555 1_555
C44_10 C45_10 1_555 1_555
C74_7 C75_7 1_555 1_555
C51_8 N19_4 1_555 1_555
H41_8 C51_8 1_555 1_555
C52_8 C51_8 1_555 1_555
H42_8 C52_8 1_555 1_555
C53_8 C52_8 1_555 1_555
C54_8 C53_8 1_555 1_555
H43_8 C54_8 1_555 1_555
C55_8 N19_4 1_555 1_555
H44_8 C55_8 1_555 1_555
N19_6 C71_8 1_555 1_555
C71_8 H57_8 1_555 1_555
C72_8 C71_8 1_555 1_555
H58_8 C72_8 1_555 1_555
C73_8 C53_8 1_555 1_555
C74_8 C73_8 1_555 1_555
H59_8 C74_8 1_555 1_555
C75_8 N19_6 1_555 1_555
H60_8 C75_8 1_555 1_555
C54_8 C55_8 1_555 1_555
C72_8 C73_8 1_555 1_555
C74_8 C75_8 1_555 1_555
H62_8 C77_8 1_555 1_555
H46_8 C57_8 1_555 1_555
N25 O13 1_555 1_555
O14 N25 1_555 1_555
O15 N25 1_555 1_555
N25_2 O13_2 1_555 1_555
O14_2 N25_2 1_555 1_555
O15_2 N25_2 1_555 1_555
N25_3 O13_3 1_555 1_555
O14_3 N25_3 1_555 1_555
O15_3 N25_3 1_555 1_555
N25_4 O13_4 1_555 1_555
O14_4 N25_4 1_555 1_555
O15_4 N25_4 1_555 1_555
N25_5 O13_5 1_555 1_555
O14_5 N25_5 1_555 1_555
O15_5 N25_5 1_555 1_555
N25_6 O13_6 1_555 1_555
O14_6 N25_6 1_555 1_555
O15_6 N25_6 1_555 1_555
N25_7 O13_7 1_555 1_555
O14_7 N25_7 1_555 1_555
O15_7 N25_7 1_555 1_555
N25_8 O13_8 1_555 1_555
O14_8 N25_8 1_555 1_555
O15_8 N25_8 1_555 1_555
N25_9 O13_9 1_555 1_555
O14_9 N25_9 1_555 1_555
O15_9 N25_9 1_555 1_555
N25_10 O13_10 1_555 1_555
O14_10 N25_10 1_555 1_555
O15_10 N25_10 1_555 1_555
N25_11 O13_11 1_555 1_555
O14_11 N25_11 1_555 1_555
O15_11 N25_11 1_555 1_555
N25_12 O13_12 1_555 1_555
O14_12 N25_12 1_555 1_555
O15_12 N25_12 1_555 1_555
N25_13 O13_13 1_555 1_555
O14_13 N25_13 1_555 1_555
O15_13 N25_13 1_555 1_555
N25_14 O13_14 1_555 1_555
O14_14 N25_14 1_555 1_555
O15_14 N25_14 1_555 1_555
N25_15 O13_15 1_555 1_555
O14_15 N25_15 1_555 1_555
O15_15 N25_15 1_555 1_555
N25_16 O13_16 1_555 1_555
O14_16 N25_16 1_555 1_555
O15_16 N25_16 1_555 1_555
O17 N26 1_555 1_555
O18_2 N26 1_555 1_555
O17_2 N26_2 1_555 1_555
O18_3 N26_2 1_555 1_555
N26_3 O16_3 1_555 1_555
O17_3 N26_3 1_555 1_555
O18_5 N26_3 1_555 1_555
N26_4 O16_4 1_555 1_555
O17_4 N26_4 1_555 1_555
N26_5 O16_5 1_555 1_555
O17_5 N26_5 1_555 1_555
O18_7 N26_5 1_555 1_555
N26_6 O16_6 1_555 1_555
O17_6 N26_6 1_555 1_555
O18_8 N26_6 1_555 1_555
N26_7 O16_7 1_555 1_555
O17_7 N26_7 1_555 1_555
O18_9 N26_7 1_555 1_555
N26_8 O16_8 1_555 1_555
O17_8 N26_8 1_555 1_555
O17_9 N26_9 1_555 1_555
O18_12 N26_9 1_555 1_555
O17_10 N26_10 1_555 1_555
O18_13 N26_10 1_555 1_555
N26_11 O16_11 1_555 1_555
O17_11 N26_11 1_555 1_555
N26_12 O16_12 1_555 1_555
O17_12 N26_12 1_555 1_555
O18_16 N26_12 1_555 1_555
N26_13 O16_13 1_555 1_555
O17_13 N26_13 1_555 1_555
O18_17 N26_13 1_555 1_555
N26_14 O16_14 1_555 1_555
O17_14 N26_14 1_555 1_555
O18_18 N26_14 1_555 1_555
N26_15 O16_15 1_555 1_555
O17_15 N26_15 1_555 1_555
N26_16 O16_16 1_555 1_555
O17_16 N26_16 1_555 1_555
O18_20 N26_16 1_555 1_555
N27 O19 1_555 1_555
O20 N27 1_555 1_555
O21 N27 1_555 1_555
N27_2 O19_2 1_555 1_555
O20_2 N27_2 1_555 1_555
O21_2 N27_2 1_555 1_555
N27_3 O19_3 1_555 1_555
O20_3 N27_3 1_555 1_555
O21_3 N27_3 1_555 1_555
N27_4 O19_4 1_555 1_555
O20_4 N27_4 1_555 1_555
O21_4 N27_4 1_555 1_555
N27_5 O19_5 1_555 1_555
O20_5 N27_5 1_555 1_555
O21_5 N27_5 1_555 1_555
N27_6 O19_6 1_555 1_555
O20_6 N27_6 1_555 1_555
O21_6 N27_6 1_555 1_555
N27_7 O19_7 1_555 1_555
O20_7 N27_7 1_555 1_555
O21_7 N27_7 1_555 1_555
N27_8 O19_8 1_555 1_555
O20_8 N27_8 1_555 1_555
O21_8 N27_8 1_555 1_555
N27_9 O19_9 1_555 1_555
O20_9 N27_9 1_555 1_555
O21_9 N27_9 1_555 1_555
N27_10 O19_10 1_555 1_555
O20_10 N27_10 1_555 1_555
O21_10 N27_10 1_555 1_555
N27_11 O19_11 1_555 1_555
O20_11 N27_11 1_555 1_555
O21_11 N27_11 1_555 1_555
N27_12 O19_12 1_555 1_555
O20_12 N27_12 1_555 1_555
O21_12 N27_12 1_555 1_555
N27_13 O19_13 1_555 1_555
O20_13 N27_13 1_555 1_555
O21_13 N27_13 1_555 1_555
N27_14 O19_14 1_555 1_555
O20_14 N27_14 1_555 1_555
O21_14 N27_14 1_555 1_555
N27_15 O19_15 1_555 1_555
O20_15 N27_15 1_555 1_555
O21_15 N27_15 1_555 1_555
N27_16 O19_16 1_555 1_555
O20_16 N27_16 1_555 1_555
O21_16 N27_16 1_555 1_555
O23 N28 1_555 1_555
O23_2 N28_2 1_555 1_555
N28_3 O22_3 1_555 1_555
O23_3 N28_3 1_555 1_555
O24_3 N28_3 1_555 1_555
N28_4 O22_4 1_555 1_555
O23_4 N28_4 1_555 1_555
N28_5 O22_5 1_555 1_555
O23_5 N28_5 1_555 1_555
O24_5 N28_5 1_555 1_555
N28_6 O22_6 1_555 1_555
O23_6 N28_6 1_555 1_555
O24_6 N28_6 1_555 1_555
N28_7 O22_7 1_555 1_555
O23_7 N28_7 1_555 1_555
O24_7 N28_7 1_555 1_555
N28_8 O22_8 1_555 1_555
O23_8 N28_8 1_555 1_555
O23_9 N28_9 1_555 1_555
O23_10 N28_10 1_555 1_555
N28_11 O22_11 1_555 1_555
O23_11 N28_11 1_555 1_555
N28_12 O22_12 1_555 1_555
O23_12 N28_12 1_555 1_555
O24_12 N28_12 1_555 1_555
N28_13 O22_13 1_555 1_555
O23_13 N28_13 1_555 1_555
O24_13 N28_13 1_555 1_555
N28_14 O22_14 1_555 1_555
O23_14 N28_14 1_555 1_555
O24_14 N28_14 1_555 1_555
N28_15 O22_15 1_555 1_555
O23_15 N28_15 1_555 1_555
N28_16 O22_16 1_555 1_555
O23_16 N28_16 1_555 1_555
O24_16 N28_16 1_555 1_555
N29 O25 1_555 1_555
O26 N29 1_555 1_555
O27 N29 1_555 1_555
N29_2 O25_2 1_555 1_555
O26_2 N29_2 1_555 1_555
O27_2 N29_2 1_555 1_555
N29_3 O25_3 1_555 1_555
O26_3 N29_3 1_555 1_555
O27_3 N29_3 1_555 1_555
N29_4 O25_4 1_555 1_555
O26_4 N29_4 1_555 1_555
O27_4 N29_4 1_555 1_555
O26_5 N29_5 1_555 1_555
O27_5 N29_5 1_555 1_555
O26_6 N29_6 1_555 1_555
O27_6 N29_6 1_555 1_555
N29_7 O25_7 1_555 1_555
O26_7 N29_7 1_555 1_555
O27_7 N29_7 1_555 1_555
N29_8 O25_8 1_555 1_555
O26_8 N29_8 1_555 1_555
O27_8 N29_8 1_555 1_555
O26_9 N29_9 1_555 1_555
O27_9 N29_9 1_555 1_555
O26_10 N29_10 1_555 1_555
O27_10 N29_10 1_555 1_555
N29_11 O25_11 1_555 1_555
O26_11 N29_11 1_555 1_555
O27_11 N29_11 1_555 1_555
N29_12 O25_12 1_555 1_555
O26_12 N29_12 1_555 1_555
O27_12 N29_12 1_555 1_555
N29_13 O25_13 1_555 1_555
O26_13 N29_13 1_555 1_555
O27_13 N29_13 1_555 1_555
N29_14 O25_14 1_555 1_555
O26_14 N29_14 1_555 1_555
O27_14 N29_14 1_555 1_555
N29_15 O25_15 1_555 1_555
O26_15 N29_15 1_555 1_555
O27_15 N29_15 1_555 1_555
N29_16 O25_16 1_555 1_555
O26_16 N29_16 1_555 1_555
O27_16 N29_16 1_555 1_555

#END
