
###############################################################################
#
# This file contains modified crystal structure data generated from the
# MOF subset of the Cambridge Structural Database (CSD) v543 
# hosted by the Cambridge Crystallographic Data Centre (CCDC).
#
# This work is licensed under the Creative Commons
# Attribution-NonCommercial-ShareAlike 4.0 International License.
# To view a copy of this license, visit
# http://creativecommons.org/licenses/by-nc-sa/4.0/
# or send a letter to
# Creative Commons, PO Box 1866, Mountain View, CA 94042, USA.
#
# CIF created using the CSD Python API on 29 September 2022
# The structure has been converted into the P1 space group
# The structure has a 3D framework
# The original CSD entry NAJSUP is in the monoclinic crystal system
# The framework has been calculated to contain at least 10.0% void space
# The void calculation uses a probe of radius 1.32A, grid spacing 0.4
#
###############################################################################

data_NAJSUP
_chemical_formula_moiety         '(C152 H104 Eu8 O64)n'
_symmetry_cell_setting           triclinic
_symmetry_space_group_name_H-M   'P 1'
_symmetry_Int_Tables_number      1
_space_group_name_Hall           'P 1'
loop_
_symmetry_equiv_pos_site_id
_symmetry_equiv_pos_as_xyz
1 x,y,z
_cell_length_a                   29.2063(9)
_cell_length_b                   13.6607(4)
_cell_length_c                   13.9294(4)
_cell_angle_alpha                90
_cell_angle_beta                 98.2910(10)
_cell_angle_gamma                90
_cell_volume                     5499.45
loop_
_atom_site_label
_atom_site_type_symbol
_atom_site_fract_x
_atom_site_fract_y
_atom_site_fract_z
Eu1 Eu 0.317330(5) 0.291655(11) 0.536796(12)
C1 C 0.70769(12) 0.1047(2) 0.2381(3)
C2 C 0.73551(12) 0.0384(2) 0.2928(3)
H1 H 0.7666 0.0319 0.2859
C5 C 0.64184(13) 0.0604(2) 0.3187(3)
C6 C 0.66148(12) 0.1152(2) 0.2519(3)
H3 H 0.6432 0.1609 0.2145
C7 C 0.72727(13) 0.1645(2) 0.1640(3)
C9 C 0.59359(12) 0.0779(3) 0.3389(3)
C10 C 0.56440(13) 0.0054(3) 0.3615(3)
C11 C 0.52081(13) 0.0227(3) 0.3849(3)
C12 C 0.50397(13) 0.1137(3) 0.3904(3)
C13 C 0.46123(13) 0.1351(3) 0.4237(3)
H6 H 0.4429 0.0835 0.4394
C14 C 0.44705(14) 0.2239(3) 0.4329(3)
C15 C 0.47534(16) 0.2968(3) 0.4067(4)
H7 H 0.4659 0.3615 0.4110
C16 C 0.51716(16) 0.2787(3) 0.3744(4)
H8 H 0.5347 0.3309 0.3570
C17 C 0.53287(14) 0.1870(3) 0.3678(3)
C18 C 0.57685(13) 0.1663(3) 0.3405(3)
H9 H 0.5945 0.2181 0.3229
C19 C 0.40306(13) 0.2457(3) 0.4732(3)
O1 O 0.70051(9) 0.22611(17) 0.12270(19)
O2 O 0.35500(13) 0.4277(3) 0.6203(3)
H10 H 0.3358 0.4588 0.6494
H11 H 0.3773 0.4075 0.6616
O3 O 0.76824(9) 0.14942(19) 0.14994(19)
O4 O 0.35259(14) 0.2333(3) 0.6999(3)
H12 H 0.3330 0.2389 0.7391
H13 H 0.3763 0.2679 0.7196
O7 O 0.38757(10) 0.32693(19) 0.4660(2)
O8 O 0.38272(10) 0.1840(2) 0.5142(2)
Eu5 Eu 0.817330(5) 0.208345(11) 0.036796(12)
O9 O 0.29949(9) 0.22611(17) 0.37730(19)
O10 O 0.26824(9) 0.35058(19) 0.64994(19)
O11 O 0.28994(9) 0.42405(17) 0.4327(2)
O12 O 0.22807(9) 0.34039(16) 0.44739(18)
O13 O 0.27193(9) 0.15961(16) 0.55261(18)
Eu2 Eu 0.682670(5) 0.291655(11) 0.963204(12)
C3 C 0.71631(12) 0.9821(2) 0.3576(3)
C4 C 0.67007(12) 0.9920(2) 0.3694(3)
H2 H 0.6579 0.9511 0.4128
C8 C 0.74668(12) 0.9109(2) 0.4154(3)
H4 H 0.5746 0.9409 0.3611
H5 H 0.5025 0.9697 0.3973
O5 O 0.78994(9) 0.92405(17) 0.4327(2)
O6 O 0.72807(9) 0.84039(16) 0.44739(18)
Eu3 Eu 0.817330(5) 0.791655(11) 0.536796(12)
Eu4 Eu 0.682670(5) 0.708345(11) 0.463204(12)
C1_2 C 0.29231(12) 0.1047(2) 0.2619(3)
C2_2 C 0.26449(12) 0.0384(2) 0.2072(3)
H1_2 H 0.2334 0.0319 0.2141
C5_2 C 0.35816(13) 0.0604(2) 0.1813(3)
C6_2 C 0.33852(12) 0.1152(2) 0.2481(3)
H3_2 H 0.3568 0.1609 0.2855
C7_2 C 0.27273(13) 0.1645(2) 0.3360(3)
C9_2 C 0.40641(12) 0.0779(3) 0.1611(3)
C10_2 C 0.43560(13) 0.0054(3) 0.1385(3)
C11_2 C 0.47919(13) 0.0227(3) 0.1151(3)
C12_2 C 0.49603(13) 0.1137(3) 0.1096(3)
C13_2 C 0.53877(13) 0.1351(3) 0.0763(3)
H6_2 H 0.5571 0.0835 0.0606
C14_2 C 0.55295(14) 0.2239(3) 0.0671(3)
C15_2 C 0.52466(16) 0.2968(3) 0.0933(4)
H7_2 H 0.5341 0.3615 0.0890
C16_2 C 0.48284(16) 0.2787(3) 0.1256(4)
H8_2 H 0.4653 0.3309 0.1430
C17_2 C 0.46713(14) 0.1870(3) 0.1322(3)
C18_2 C 0.42315(13) 0.1663(3) 0.1595(3)
H9_2 H 0.4055 0.2181 0.1771
C19_2 C 0.59694(13) 0.2457(3) 0.0268(3)
O3_2 O 0.23176(9) 0.14942(19) 0.35006(19)
O7_2 O 0.61243(10) 0.32693(19) 0.0340(2)
Eu5_2 Eu 0.182670(5) 0.208345(11) 0.463204(12)
O11_2 O 0.71006(9) 0.42405(17) 0.0673(2)
O12_2 O 0.77193(9) 0.34039(16) 0.05261(18)
O2_2 O 0.64500(13) 0.4277(3) 0.8797(3)
H10_2 H 0.6642 0.4588 0.8506
H11_2 H 0.6227 0.4075 0.8384
O4_2 O 0.64741(14) 0.2333(3) 0.8001(3)
H12_2 H 0.6670 0.2389 0.7609
H13_2 H 0.6237 0.2679 0.7804
O8_2 O 0.61728(10) 0.1840(2) 0.9858(2)
O10_2 O 0.73176(9) 0.35058(19) 0.85006(19)
O13_2 O 0.72807(9) 0.15961(16) 0.94739(18)
C3_2 C 0.28369(12) 0.9821(2) 0.1424(3)
C4_2 C 0.32993(12) 0.9920(2) 0.1306(3)
H2_2 H 0.3421 0.9511 0.0872
C8_2 C 0.25332(12) 0.9109(2) 0.0846(3)
H4_2 H 0.4254 0.9409 0.1389
H5_2 H 0.4975 0.9697 0.1027
O5_2 O 0.21006(9) 0.92405(17) 0.0673(2)
O6_2 O 0.27193(9) 0.84039(16) 0.05261(18)
Eu4_2 Eu 0.317330(5) 0.708345(11) 0.036796(12)
Eu3_2 Eu 0.182670(5) 0.791655(11) 0.963204(12)
C1_3 C 0.20769(12) 0.6047(2) 0.2381(3)
C2_3 C 0.23551(12) 0.5384(2) 0.2928(3)
H1_3 H 0.2666 0.5319 0.2859
C3_3 C 0.21631(12) 0.4821(2) 0.3576(3)
C4_3 C 0.17007(12) 0.4920(2) 0.3694(3)
H2_3 H 0.1579 0.4511 0.4128
C5_3 C 0.14184(13) 0.5604(2) 0.3187(3)
C6_3 C 0.16148(12) 0.6152(2) 0.2519(3)
H3_3 H 0.1432 0.6609 0.2145
C7_3 C 0.22727(13) 0.6645(2) 0.1640(3)
C8_3 C 0.24668(12) 0.4109(2) 0.4154(3)
C9_3 C 0.09359(12) 0.5779(3) 0.3389(3)
C10_3 C 0.06440(13) 0.5054(3) 0.3615(3)
H4_3 H 0.0746 0.4409 0.3611
C11_3 C 0.02081(13) 0.5227(3) 0.3849(3)
H5_3 H 0.0025 0.4697 0.3973
C12_3 C 0.00397(13) 0.6137(3) 0.3904(3)
C16_3 C 0.01716(16) 0.7787(3) 0.3744(4)
H8_3 H 0.0347 0.8309 0.3570
C17_3 C 0.03287(14) 0.6870(3) 0.3678(3)
C18_3 C 0.07685(13) 0.6663(3) 0.3405(3)
H9_3 H 0.0945 0.7181 0.3229
O1_2 O 0.20051(9) 0.72611(17) 0.12270(19)
O3_3 O 0.26824(9) 0.64942(19) 0.14994(19)
C13_3 C 0.96123(13) 0.6351(3) 0.4237(3)
H6_3 H 0.9429 0.5835 0.4394
C14_3 C 0.94705(14) 0.7239(3) 0.4329(3)
C15_3 C 0.97534(16) 0.7968(3) 0.4067(4)
H7_3 H 0.9659 0.8615 0.4110
C19_3 C 0.90306(13) 0.7457(3) 0.4732(3)
O2_3 O 0.85500(13) 0.9277(3) 0.6203(3)
H10_3 H 0.8358 0.9588 0.6494
H11_3 H 0.8773 0.9075 0.6616
O4_3 O 0.85259(14) 0.7333(3) 0.6999(3)
H12_3 H 0.8330 0.7389 0.7391
H13_3 H 0.8763 0.7679 0.7196
O7_3 O 0.88757(10) 0.82693(19) 0.4660(2)
O8_3 O 0.88272(10) 0.6840(2) 0.5142(2)
O9_2 O 0.79949(9) 0.72611(17) 0.37730(19)
O10_3 O 0.76824(9) 0.85058(19) 0.64994(19)
O13_3 O 0.77193(9) 0.65961(16) 0.55261(18)
C13_4 C 0.03877(13) 0.6351(3) 0.0763(3)
H6_4 H 0.0571 0.5835 0.0606
C14_4 C 0.05295(14) 0.7239(3) 0.0671(3)
C15_4 C 0.02466(16) 0.7968(3) 0.0933(4)
H7_4 H 0.0341 0.8615 0.0890
C19_4 C 0.09694(13) 0.7457(3) 0.0268(3)
O7_4 O 0.11243(10) 0.82693(19) 0.0340(2)
O2_4 O 0.14500(13) 0.9277(3) 0.8797(3)
H10_4 H 0.1642 0.9588 0.8506
H11_4 H 0.1227 0.9075 0.8384
O4_4 O 0.14741(14) 0.7333(3) 0.8001(3)
H12_4 H 0.1670 0.7389 0.7609
H13_4 H 0.1237 0.7679 0.7804
O8_4 O 0.11728(10) 0.6840(2) 0.9858(2)
O10_4 O 0.23176(9) 0.85058(19) 0.85006(19)
O13_4 O 0.22807(9) 0.65961(16) 0.94739(18)
C1_4 C 0.79231(12) 0.6047(2) 0.2619(3)
C2_4 C 0.76449(12) 0.5384(2) 0.2072(3)
H1_4 H 0.7334 0.5319 0.2141
C3_4 C 0.78369(12) 0.4821(2) 0.1424(3)
C4_4 C 0.82993(12) 0.4920(2) 0.1306(3)
H2_4 H 0.8421 0.4511 0.0872
C5_4 C 0.85816(13) 0.5604(2) 0.1813(3)
C6_4 C 0.83852(12) 0.6152(2) 0.2481(3)
H3_4 H 0.8568 0.6609 0.2855
C7_4 C 0.77273(13) 0.6645(2) 0.3360(3)
C8_4 C 0.75332(12) 0.4109(2) 0.0846(3)
C9_4 C 0.90641(12) 0.5779(3) 0.1611(3)
C10_4 C 0.93560(13) 0.5054(3) 0.1385(3)
H4_4 H 0.9254 0.4409 0.1389
C11_4 C 0.97919(13) 0.5227(3) 0.1151(3)
H5_4 H 0.9975 0.4697 0.1027
C12_4 C 0.99603(13) 0.6137(3) 0.1096(3)
C16_4 C 0.98284(16) 0.7787(3) 0.1256(4)
H8_4 H 0.9653 0.8309 0.1430
C17_4 C 0.96713(14) 0.6870(3) 0.1322(3)
C18_4 C 0.92315(13) 0.6663(3) 0.1595(3)
H9_4 H 0.9055 0.7181 0.1771
O3_4 O 0.73176(9) 0.64942(19) 0.35006(19)
C3_5 C 0.28369(12) 0.0179(2) 0.6424(3)
C4_5 C 0.32993(12) 0.0080(2) 0.6306(3)
H2_5 H 0.3421 0.0489 0.5872
C8_5 C 0.25332(12) 0.0891(2) 0.5846(3)
H4_5 H 0.4254 0.0591 0.6389
H5_5 H 0.4975 0.0303 0.6027
O5_3 O 0.21006(9) 0.07595(17) 0.5673(2)
C1_5 C 0.29231(12) 0.8953(2) 0.7619(3)
C2_5 C 0.26449(12) 0.9616(2) 0.7072(3)
H1_5 H 0.2334 0.9681 0.7141
C5_5 C 0.35816(13) 0.9396(2) 0.6813(3)
C6_5 C 0.33852(12) 0.8848(2) 0.7481(3)
H3_5 H 0.3568 0.8391 0.7855
C7_5 C 0.27273(13) 0.8355(2) 0.8360(3)
C9_5 C 0.40641(12) 0.9221(3) 0.6611(3)
C10_5 C 0.43560(13) 0.9946(3) 0.6385(3)
C11_5 C 0.47919(13) 0.9773(3) 0.6151(3)
C12_5 C 0.49603(13) 0.8863(3) 0.6096(3)
C13_5 C 0.53877(13) 0.8649(3) 0.5763(3)
H6_5 H 0.5571 0.9165 0.5606
C14_5 C 0.55295(14) 0.7761(3) 0.5671(3)
C15_5 C 0.52466(16) 0.7032(3) 0.5933(4)
H7_5 H 0.5341 0.6385 0.5890
C16_5 C 0.48284(16) 0.7213(3) 0.6256(4)
H8_5 H 0.4653 0.6691 0.6430
C17_5 C 0.46713(14) 0.8130(3) 0.6322(3)
C18_5 C 0.42315(13) 0.8337(3) 0.6595(3)
H9_5 H 0.4055 0.7819 0.6771
C19_5 C 0.59694(13) 0.7543(3) 0.5268(3)
O1_3 O 0.29949(9) 0.77389(17) 0.87730(19)
O2_5 O 0.64500(13) 0.5723(3) 0.3797(3)
H10_5 H 0.6642 0.5412 0.3506
H11_5 H 0.6227 0.5925 0.3384
O4_5 O 0.64741(14) 0.7667(3) 0.3001(3)
H12_5 H 0.6670 0.7611 0.2609
H13_5 H 0.6237 0.7321 0.2804
O7_5 O 0.61243(10) 0.67307(19) 0.5340(2)
O8_5 O 0.61728(10) 0.8160(2) 0.4858(2)
O9_3 O 0.70051(9) 0.77389(17) 0.62270(19)
O11_3 O 0.71006(9) 0.57595(17) 0.5673(2)
C3_6 C 0.71631(12) 0.0179(2) 0.8576(3)
C4_6 C 0.67007(12) 0.0080(2) 0.8694(3)
H2_6 H 0.6579 0.0489 0.9128
C8_6 C 0.74668(12) 0.0891(2) 0.9154(3)
H4_6 H 0.5746 0.0591 0.8611
H5_6 H 0.5025 0.0303 0.8973
O5_4 O 0.78994(9) 0.07595(17) 0.9327(2)
O2_6 O 0.35500(13) 0.5723(3) 0.1203(3)
H10_6 H 0.3358 0.5412 0.1494
H11_6 H 0.3773 0.5925 0.1616
O4_6 O 0.35259(14) 0.7667(3) 0.1999(3)
H12_6 H 0.3330 0.7611 0.2391
H13_6 H 0.3763 0.7321 0.2196
O8_6 O 0.38272(10) 0.8160(2) 0.0142(2)
C1_6 C 0.70769(12) 0.8953(2) 0.7381(3)
C2_6 C 0.73551(12) 0.9616(2) 0.7928(3)
H1_6 H 0.7666 0.9681 0.7859
C5_6 C 0.64184(13) 0.9396(2) 0.8187(3)
C6_6 C 0.66148(12) 0.8848(2) 0.7519(3)
H3_6 H 0.6432 0.8391 0.7145
C7_6 C 0.72727(13) 0.8355(2) 0.6640(3)
C9_6 C 0.59359(12) 0.9221(3) 0.8389(3)
C10_6 C 0.56440(13) 0.9946(3) 0.8615(3)
C11_6 C 0.52081(13) 0.9773(3) 0.8849(3)
C12_6 C 0.50397(13) 0.8863(3) 0.8904(3)
C13_6 C 0.46123(13) 0.8649(3) 0.9237(3)
H6_6 H 0.4429 0.9165 0.9394
C14_6 C 0.44705(14) 0.7761(3) 0.9329(3)
C15_6 C 0.47534(16) 0.7032(3) 0.9067(4)
H7_6 H 0.4659 0.6385 0.9110
C16_6 C 0.51716(16) 0.7213(3) 0.8744(4)
H8_6 H 0.5347 0.6691 0.8570
C17_6 C 0.53287(14) 0.8130(3) 0.8678(3)
C18_6 C 0.57685(13) 0.8337(3) 0.8405(3)
H9_6 H 0.5945 0.7819 0.8229
C19_6 C 0.40306(13) 0.7543(3) 0.9732(3)
O7_6 O 0.38757(10) 0.67307(19) 0.9660(2)
O11_4 O 0.28994(9) 0.57595(17) 0.9327(2)
C13_7 C 0.03877(13) 0.3649(3) 0.5763(3)
H6_7 H 0.0571 0.4165 0.5606
C14_7 C 0.05295(14) 0.2761(3) 0.5671(3)
C15_7 C 0.02466(16) 0.2032(3) 0.5933(4)
H7_7 H 0.0341 0.1385 0.5890
C19_7 C 0.09694(13) 0.2543(3) 0.5268(3)
O2_7 O 0.14500(13) 0.0723(3) 0.3797(3)
H10_7 H 0.1642 0.0412 0.3506
H11_7 H 0.1227 0.0925 0.3384
O4_7 O 0.14741(14) 0.2667(3) 0.3001(3)
H12_7 H 0.1670 0.2611 0.2609
H13_7 H 0.1237 0.2321 0.2804
O7_7 O 0.11243(10) 0.17307(19) 0.5340(2)
O8_7 O 0.11728(10) 0.3160(2) 0.4858(2)
O9_4 O 0.20051(9) 0.27389(17) 0.62270(19)
C1_7 C 0.79231(12) 0.3953(2) 0.7619(3)
C2_7 C 0.76449(12) 0.4616(2) 0.7072(3)
H1_7 H 0.7334 0.4681 0.7141
C3_7 C 0.78369(12) 0.5179(2) 0.6424(3)
C4_7 C 0.82993(12) 0.5080(2) 0.6306(3)
H2_7 H 0.8421 0.5489 0.5872
C5_7 C 0.85816(13) 0.4396(2) 0.6813(3)
C6_7 C 0.83852(12) 0.3848(2) 0.7481(3)
H3_7 H 0.8568 0.3391 0.7855
C7_7 C 0.77273(13) 0.3355(2) 0.8360(3)
C8_7 C 0.75332(12) 0.5891(2) 0.5846(3)
C9_7 C 0.90641(12) 0.4221(3) 0.6611(3)
C10_7 C 0.93560(13) 0.4946(3) 0.6385(3)
H4_7 H 0.9254 0.5591 0.6389
C11_7 C 0.97919(13) 0.4773(3) 0.6151(3)
H5_7 H 0.9975 0.5303 0.6027
C12_7 C 0.99603(13) 0.3863(3) 0.6096(3)
C16_7 C 0.98284(16) 0.2213(3) 0.6256(4)
H8_7 H 0.9653 0.1691 0.6430
C17_7 C 0.96713(14) 0.3130(3) 0.6322(3)
C18_7 C 0.92315(13) 0.3337(3) 0.6595(3)
H9_7 H 0.9055 0.2819 0.6771
O1_4 O 0.79949(9) 0.27389(17) 0.87730(19)
C1_8 C 0.20769(12) 0.3953(2) 0.7381(3)
C2_8 C 0.23551(12) 0.4616(2) 0.7928(3)
H1_8 H 0.2666 0.4681 0.7859
C3_8 C 0.21631(12) 0.5179(2) 0.8576(3)
C4_8 C 0.17007(12) 0.5080(2) 0.8694(3)
H2_8 H 0.1579 0.5489 0.9128
C5_8 C 0.14184(13) 0.4396(2) 0.8187(3)
C6_8 C 0.16148(12) 0.3848(2) 0.7519(3)
H3_8 H 0.1432 0.3391 0.7145
C7_8 C 0.22727(13) 0.3355(2) 0.6640(3)
C8_8 C 0.24668(12) 0.5891(2) 0.9154(3)
C9_8 C 0.09359(12) 0.4221(3) 0.8389(3)
C10_8 C 0.06440(13) 0.4946(3) 0.8615(3)
H4_8 H 0.0746 0.5591 0.8611
C11_8 C 0.02081(13) 0.4773(3) 0.8849(3)
H5_8 H 0.0025 0.5303 0.8973
C12_8 C 0.00397(13) 0.3863(3) 0.8904(3)
C16_8 C 0.01716(16) 0.2213(3) 0.8744(4)
H8_8 H 0.0347 0.1691 0.8570
C17_8 C 0.03287(14) 0.3130(3) 0.8678(3)
C18_8 C 0.07685(13) 0.3337(3) 0.8405(3)
H9_8 H 0.0945 0.2819 0.8229
O2_8 O 0.85500(13) 0.0723(3) 0.1203(3)
H10_8 H 0.8358 0.0412 0.1494
H11_8 H 0.8773 0.0925 0.1616
O4_8 O 0.85259(14) 0.2667(3) 0.1999(3)
H12_8 H 0.8330 0.2611 0.2391
H13_8 H 0.8763 0.2321 0.2196
O8_8 O 0.88272(10) 0.3160(2) 0.0142(2)
C13_8 C 0.96123(13) 0.3649(3) 0.9237(3)
H6_8 H 0.9429 0.4165 0.9394
C14_8 C 0.94705(14) 0.2761(3) 0.9329(3)
C15_8 C 0.97534(16) 0.2032(3) 0.9067(4)
H7_8 H 0.9659 0.1385 0.9110
C19_8 C 0.90306(13) 0.2543(3) 0.9732(3)
O7_8 O 0.88757(10) 0.17307(19) 0.9660(2)
loop_
_geom_bond_atom_site_label_1
_geom_bond_atom_site_label_2
_geom_bond_site_symmetry_1
_geom_bond_site_symmetry_2
Eu1 O2 1_555 1_555
C1 C2 1_555 1_555
C2 H1 1_555 1_555
C6 C1 1_555 1_555
H3 C6 1_555 1_555
C7 C1 1_555 1_555
C9 C5 1_555 1_555
C10 C9 1_555 1_555
C11 C10 1_555 1_555
C12 C11 1_555 1_555
C13 C12 1_555 1_555
H6 C13 1_555 1_555
C14 C13 1_555 1_555
C15 C14 1_555 1_555
H7 C15 1_555 1_555
C16 C15 1_555 1_555
H8 C16 1_555 1_555
C17 C12 1_555 1_555
C18 C9 1_555 1_555
H9 C18 1_555 1_555
C19 C14 1_555 1_555
O1 C7 1_555 1_555
O2 H10 1_555 1_555
H11 O2 1_555 1_555
O3 C7 1_555 1_555
O4 Eu1 1_555 1_555
H12 O4 1_555 1_555
H13 O4 1_555 1_555
O7 Eu1 1_555 1_555
O8 Eu1 1_555 1_555
Eu5 O3 1_555 1_555
O9 Eu1 1_555 1_555
O10 Eu1 1_555 1_555
O11 Eu1 1_555 1_555
O12 Eu1 1_555 1_555
O13 Eu1 1_555 1_555
C5 C6 1_555 1_555
C16 C17 1_555 1_555
C17 C18 1_555 1_555
C19 O7 1_555 1_555
C19 O8 1_555 1_555
C4 C3 1_555 1_555
H2 C4 1_555 1_555
C8 C3 1_555 1_555
O5 C8 1_555 1_555
O6 C8 1_555 1_555
Eu3 O5 1_555 1_555
Eu4 O6 1_555 1_555
O6 Eu3 1_555 1_555
C1_2 C2_2 1_555 1_555
C2_2 H1_2 1_555 1_555
C6_2 C1_2 1_555 1_555
H3_2 C6_2 1_555 1_555
C7_2 C1_2 1_555 1_555
C9_2 C5_2 1_555 1_555
C10_2 C9_2 1_555 1_555
C11_2 C10_2 1_555 1_555
C12_2 C11_2 1_555 1_555
C13_2 C12_2 1_555 1_555
H6_2 C13_2 1_555 1_555
C14_2 C13_2 1_555 1_555
C15_2 C14_2 1_555 1_555
H7_2 C15_2 1_555 1_555
C16_2 C15_2 1_555 1_555
H8_2 C16_2 1_555 1_555
C17_2 C12_2 1_555 1_555
C18_2 C9_2 1_555 1_555
H9_2 C18_2 1_555 1_555
C19_2 C14_2 1_555 1_555
O9 C7_2 1_555 1_555
O3_2 C7_2 1_555 1_555
Eu5_2 O3_2 1_555 1_555
C5_2 C6_2 1_555 1_555
C16_2 C17_2 1_555 1_555
C17_2 C18_2 1_555 1_555
C19_2 O7_2 1_555 1_555
Eu2 O2_2 1_555 1_555
O2_2 H10_2 1_555 1_555
H11_2 O2_2 1_555 1_555
O4_2 Eu2 1_555 1_555
H12_2 O4_2 1_555 1_555
H13_2 O4_2 1_555 1_555
O8_2 Eu2 1_555 1_555
O10_2 Eu2 1_555 1_555
O13_2 Eu2 1_555 1_555
C4_2 C3_2 1_555 1_555
H2_2 C4_2 1_555 1_555
C8_2 C3_2 1_555 1_555
O5_2 C8_2 1_555 1_555
O6_2 C8_2 1_555 1_555
Eu4_2 O6_2 1_555 1_555
C1_3 C2_3 1_555 1_555
C2_3 H1_3 1_555 1_555
C3_3 C2_3 1_555 1_555
C4_3 C3_3 1_555 1_555
H2_3 C4_3 1_555 1_555
C5_3 C4_3 1_555 1_555
C6_3 C1_3 1_555 1_555
H3_3 C6_3 1_555 1_555
C7_3 C1_3 1_555 1_555
C8_3 C3_3 1_555 1_555
C9_3 C5_3 1_555 1_555
C10_3 C9_3 1_555 1_555
H4_3 C10_3 1_555 1_555
C11_3 C10_3 1_555 1_555
H5_3 C11_3 1_555 1_555
C12_3 C11_3 1_555 1_555
H8_3 C16_3 1_555 1_555
C17_3 C12_3 1_555 1_555
C18_3 C9_3 1_555 1_555
H9_3 C18_3 1_555 1_555
O1_2 C7_3 1_555 1_555
O3_3 C7_3 1_555 1_555
O11 C8_3 1_555 1_555
O12 C8_3 1_555 1_555
Eu5_2 O12 1_555 1_555
Eu4_2 O3_3 1_555 1_555
C5_3 C6_3 1_555 1_555
C16_3 C17_3 1_555 1_555
C17_3 C18_3 1_555 1_555
Eu3 O2_3 1_555 1_555
H6_3 C13_3 1_555 1_555
C14_3 C13_3 1_555 1_555
C15_3 C14_3 1_555 1_555
H7_3 C15_3 1_555 1_555
C19_3 C14_3 1_555 1_555
O2_3 H10_3 1_555 1_555
H11_3 O2_3 1_555 1_555
O4_3 Eu3 1_555 1_555
H12_3 O4_3 1_555 1_555
H13_3 O4_3 1_555 1_555
O7_3 Eu3 1_555 1_555
O8_3 Eu3 1_555 1_555
O9_2 Eu3 1_555 1_555
O10_3 Eu3 1_555 1_555
O13_3 Eu3 1_555 1_555
C19_3 O7_3 1_555 1_555
C19_3 O8_3 1_555 1_555
H6_4 C13_4 1_555 1_555
C14_4 C13_4 1_555 1_555
C15_4 C14_4 1_555 1_555
H7_4 C15_4 1_555 1_555
C19_4 C14_4 1_555 1_555
C19_4 O7_4 1_555 1_555
Eu3_2 O2_4 1_555 1_555
O2_4 H10_4 1_555 1_555
H11_4 O2_4 1_555 1_555
O4_4 Eu3_2 1_555 1_555
H12_4 O4_4 1_555 1_555
H13_4 O4_4 1_555 1_555
O8_4 Eu3_2 1_555 1_555
O10_4 Eu3_2 1_555 1_555
O13_4 Eu3_2 1_555 1_555
C1_4 C2_4 1_555 1_555
C2_4 H1_4 1_555 1_555
C3_4 C2_4 1_555 1_555
C4_4 C3_4 1_555 1_555
H2_4 C4_4 1_555 1_555
C5_4 C4_4 1_555 1_555
C6_4 C1_4 1_555 1_555
H3_4 C6_4 1_555 1_555
C7_4 C1_4 1_555 1_555
C8_4 C3_4 1_555 1_555
C9_4 C5_4 1_555 1_555
C10_4 C9_4 1_555 1_555
H4_4 C10_4 1_555 1_555
C11_4 C10_4 1_555 1_555
H5_4 C11_4 1_555 1_555
C12_4 C11_4 1_555 1_555
H8_4 C16_4 1_555 1_555
C17_4 C12_4 1_555 1_555
C18_4 C9_4 1_555 1_555
H9_4 C18_4 1_555 1_555
O9_2 C7_4 1_555 1_555
O3_4 C7_4 1_555 1_555
O11_2 C8_4 1_555 1_555
O12_2 C8_4 1_555 1_555
Eu5 O12_2 1_555 1_555
Eu4 O3_4 1_555 1_555
C5_4 C6_4 1_555 1_555
C16_4 C17_4 1_555 1_555
C17_4 C18_4 1_555 1_555
C4_5 C3_5 1_555 1_555
H2_5 C4_5 1_555 1_555
C8_5 C3_5 1_555 1_555
O5_3 C8_5 1_555 1_555
O13 C8_5 1_555 1_555
Eu5_2 O5_3 1_555 1_555
O13 Eu5_2 1_555 1_555
Eu4 O2_5 1_555 1_555
C1_5 C2_5 1_555 1_555
C2_5 H1_5 1_555 1_555
C6_5 C1_5 1_555 1_555
H3_5 C6_5 1_555 1_555
C7_5 C1_5 1_555 1_555
C9_5 C5_5 1_555 1_555
C10_5 C9_5 1_555 1_555
C11_5 C10_5 1_555 1_555
C12_5 C11_5 1_555 1_555
C13_5 C12_5 1_555 1_555
H6_5 C13_5 1_555 1_555
C14_5 C13_5 1_555 1_555
C15_5 C14_5 1_555 1_555
H7_5 C15_5 1_555 1_555
C16_5 C15_5 1_555 1_555
H8_5 C16_5 1_555 1_555
C17_5 C12_5 1_555 1_555
C18_5 C9_5 1_555 1_555
H9_5 C18_5 1_555 1_555
C19_5 C14_5 1_555 1_555
O1_3 C7_5 1_555 1_555
O2_5 H10_5 1_555 1_555
H11_5 O2_5 1_555 1_555
O10_4 C7_5 1_555 1_555
O4_5 Eu4 1_555 1_555
H12_5 O4_5 1_555 1_555
H13_5 O4_5 1_555 1_555
O7_5 Eu4 1_555 1_555
O8_5 Eu4 1_555 1_555
O9_3 Eu4 1_555 1_555
O11_3 Eu4 1_555 1_555
O13_3 Eu4 1_555 1_555
C5_5 C6_5 1_555 1_555
C16_5 C17_5 1_555 1_555
C17_5 C18_5 1_555 1_555
C19_5 O7_5 1_555 1_555
C19_5 O8_5 1_555 1_555
C4_6 C3_6 1_555 1_555
H2_6 C4_6 1_555 1_555
C8_6 C3_6 1_555 1_555
O5_4 C8_6 1_555 1_555
O13_2 C8_6 1_555 1_555
Eu4_2 O2_6 1_555 1_555
O2_6 H10_6 1_555 1_555
H11_6 O2_6 1_555 1_555
O4_6 Eu4_2 1_555 1_555
H12_6 O4_6 1_555 1_555
H13_6 O4_6 1_555 1_555
O8_6 Eu4_2 1_555 1_555
C1_6 C2_6 1_555 1_555
C2_6 H1_6 1_555 1_555
C6_6 C1_6 1_555 1_555
H3_6 C6_6 1_555 1_555
C7_6 C1_6 1_555 1_555
C9_6 C5_6 1_555 1_555
C10_6 C9_6 1_555 1_555
C11_6 C10_6 1_555 1_555
C12_6 C11_6 1_555 1_555
C13_6 C12_6 1_555 1_555
H6_6 C13_6 1_555 1_555
C14_6 C13_6 1_555 1_555
C15_6 C14_6 1_555 1_555
H7_6 C15_6 1_555 1_555
C16_6 C15_6 1_555 1_555
H8_6 C16_6 1_555 1_555
C17_6 C12_6 1_555 1_555
C18_6 C9_6 1_555 1_555
H9_6 C18_6 1_555 1_555
C19_6 C14_6 1_555 1_555
O9_3 C7_6 1_555 1_555
O10_3 C7_6 1_555 1_555
C5_6 C6_6 1_555 1_555
C16_6 C17_6 1_555 1_555
C17_6 C18_6 1_555 1_555
C19_6 O7_6 1_555 1_555
Eu5_2 O2_7 1_555 1_555
H6_7 C13_7 1_555 1_555
C14_7 C13_7 1_555 1_555
C15_7 C14_7 1_555 1_555
H7_7 C15_7 1_555 1_555
C19_7 C14_7 1_555 1_555
O2_7 H10_7 1_555 1_555
H11_7 O2_7 1_555 1_555
O4_7 Eu5_2 1_555 1_555
H12_7 O4_7 1_555 1_555
H13_7 O4_7 1_555 1_555
O7_7 Eu5_2 1_555 1_555
O8_7 Eu5_2 1_555 1_555
O9_4 Eu5_2 1_555 1_555
C19_7 O7_7 1_555 1_555
C19_7 O8_7 1_555 1_555
C1_7 C2_7 1_555 1_555
C2_7 H1_7 1_555 1_555
C3_7 C2_7 1_555 1_555
C4_7 C3_7 1_555 1_555
H2_7 C4_7 1_555 1_555
C5_7 C4_7 1_555 1_555
C6_7 C1_7 1_555 1_555
H3_7 C6_7 1_555 1_555
C7_7 C1_7 1_555 1_555
C8_7 C3_7 1_555 1_555
C9_7 C5_7 1_555 1_555
C10_7 C9_7 1_555 1_555
H4_7 C10_7 1_555 1_555
C11_7 C10_7 1_555 1_555
H5_7 C11_7 1_555 1_555
C12_7 C11_7 1_555 1_555
H8_7 C16_7 1_555 1_555
C17_7 C12_7 1_555 1_555
C18_7 C9_7 1_555 1_555
H9_7 C18_7 1_555 1_555
O1_4 C7_7 1_555 1_555
O10_2 C7_7 1_555 1_555
O11_3 C8_7 1_555 1_555
O13_3 C8_7 1_555 1_555
C5_7 C6_7 1_555 1_555
C16_7 C17_7 1_555 1_555
C17_7 C18_7 1_555 1_555
C1_8 C2_8 1_555 1_555
C2_8 H1_8 1_555 1_555
C3_8 C2_8 1_555 1_555
C4_8 C3_8 1_555 1_555
H2_8 C4_8 1_555 1_555
C5_8 C4_8 1_555 1_555
C6_8 C1_8 1_555 1_555
H3_8 C6_8 1_555 1_555
C7_8 C1_8 1_555 1_555
C8_8 C3_8 1_555 1_555
C9_8 C5_8 1_555 1_555
C10_8 C9_8 1_555 1_555
H4_8 C10_8 1_555 1_555
C11_8 C10_8 1_555 1_555
H5_8 C11_8 1_555 1_555
C12_8 C11_8 1_555 1_555
H8_8 C16_8 1_555 1_555
C17_8 C12_8 1_555 1_555
C18_8 C9_8 1_555 1_555
H9_8 C18_8 1_555 1_555
O9_4 C7_8 1_555 1_555
O10 C7_8 1_555 1_555
O11_4 C8_8 1_555 1_555
O13_4 C8_8 1_555 1_555
C5_8 C6_8 1_555 1_555
C16_8 C17_8 1_555 1_555
C17_8 C18_8 1_555 1_555
Eu5 O2_8 1_555 1_555
O2_8 H10_8 1_555 1_555
H11_8 O2_8 1_555 1_555
O4_8 Eu5 1_555 1_555
H12_8 O4_8 1_555 1_555
H13_8 O4_8 1_555 1_555
O8_8 Eu5 1_555 1_555
H6_8 C13_8 1_555 1_555
C14_8 C13_8 1_555 1_555
C15_8 C14_8 1_555 1_555
H7_8 C15_8 1_555 1_555
C19_8 C14_8 1_555 1_555
C19_8 O7_8 1_555 1_555

#END
