
###############################################################################
#
# This file contains modified crystal structure data generated from the
# MOF subset of the Cambridge Structural Database (CSD) v543 
# hosted by the Cambridge Crystallographic Data Centre (CCDC).
#
# This work is licensed under the Creative Commons
# Attribution-NonCommercial-ShareAlike 4.0 International License.
# To view a copy of this license, visit
# http://creativecommons.org/licenses/by-nc-sa/4.0/
# or send a letter to
# Creative Commons, PO Box 1866, Mountain View, CA 94042, USA.
#
# CIF created using the CSD Python API on 29 September 2022
# The structure has been converted into the P1 space group
# The structure has a 3D framework
# The original CSD entry NAJTAW is in the monoclinic crystal system
# The framework has been calculated to contain at least 10.0% void space
# The void calculation uses a probe of radius 1.32A, grid spacing 0.4
#
###############################################################################

data_NAJTAW
_chemical_formula_moiety         '(C152 H104 O64 Tb8)n'
_symmetry_cell_setting           triclinic
_symmetry_space_group_name_H-M   'P 1'
_symmetry_Int_Tables_number      1
_space_group_name_Hall           'P 1'
loop_
_symmetry_equiv_pos_site_id
_symmetry_equiv_pos_as_xyz
1 x,y,z
_cell_length_a                   28.8533(11)
_cell_length_b                   14.4038(5)
_cell_length_c                   13.7414(5)
_cell_angle_alpha                90
_cell_angle_beta                 98.666(2)
_cell_angle_gamma                90
_cell_volume                     5645.69
loop_
_atom_site_label
_atom_site_type_symbol
_atom_site_fract_x
_atom_site_fract_y
_atom_site_fract_z
Tb1 Tb 0.317079(8) 0.293288(16) 0.536882(17)
C1 C 0.70690(18) 0.1042(4) 0.2361(4)
C2 C 0.73460(18) 0.0379(4) 0.2904(4)
H1 H 0.7660 0.0315 0.2830
C5 C 0.64053(19) 0.0600(4) 0.3167(4)
C6 C 0.66053(18) 0.1149(4) 0.2495(4)
H3 H 0.6422 0.1596 0.2130
C7 C 0.72618(18) 0.1638(4) 0.1604(4)
C9 C 0.59268(18) 0.0782(4) 0.3381(4)
C10 C 0.56365(19) 0.0053(4) 0.3611(4)
C11 C 0.5201(2) 0.0233(4) 0.3847(4)
C12 C 0.50317(18) 0.1151(4) 0.3907(4)
C13 C 0.46053(19) 0.1357(4) 0.4246(4)
H6 H 0.4415 0.0875 0.4404
C14 C 0.44686(19) 0.2257(4) 0.4345(4)
C15 C 0.4747(2) 0.2988(4) 0.4076(5)
H7 H 0.4648 0.3599 0.4122
C16 C 0.5164(2) 0.2808(4) 0.3747(6)
H8 H 0.5345 0.3296 0.3571
C17 C 0.5319(2) 0.1881(4) 0.3672(4)
C18 C 0.57613(19) 0.1672(4) 0.3397(4)
H9 H 0.5945 0.2155 0.3221
C19 C 0.40250(19) 0.2477(4) 0.4748(4)
O1 O 0.69975(13) 0.2260(3) 0.1203(3)
O2 O 0.35295(19) 0.4306(5) 0.6178(4)
H10 H 0.3338 0.4618 0.6468
H11 H 0.3752 0.4105 0.6590
O3 O 0.76719(13) 0.1479(3) 0.1462(3)
O4 O 0.35203(19) 0.2390(5) 0.7000(4)
H12 H 0.3325 0.2446 0.7393
H13 H 0.3757 0.2737 0.7198
O7 O 0.38655(14) 0.3293(3) 0.4659(3)
O8 O 0.38259(15) 0.1859(3) 0.5172(4)
Tb5 Tb 0.817079(8) 0.206712(16) 0.036882(17)
O9 O 0.30025(13) 0.2260(3) 0.3797(3)
O10 O 0.26719(13) 0.3521(3) 0.6462(3)
O11 O 0.28901(13) 0.4226(3) 0.4323(3)
O12 O 0.22680(13) 0.3384(3) 0.4446(3)
O13 O 0.27320(13) 0.1616(3) 0.5554(3)
Tb2 Tb 0.682921(8) 0.293288(16) 0.963118(17)
C3 C 0.71557(18) 0.9813(3) 0.3555(4)
C4 C 0.66891(18) 0.9918(4) 0.3686(4)
H2 H 0.6564 0.9531 0.4123
C8 C 0.74579(19) 0.9096(4) 0.4137(4)
H4 H 0.5742 0.9444 0.3601
H5 H 0.5011 0.9739 0.3972
O5 O 0.78901(13) 0.9226(3) 0.4323(3)
O6 O 0.72680(13) 0.8384(3) 0.4446(3)
Tb3 Tb 0.817079(8) 0.793288(16) 0.536882(17)
Tb4 Tb 0.682921(8) 0.706712(16) 0.463118(17)
C1_2 C 0.29310(18) 0.1042(4) 0.2639(4)
C2_2 C 0.26540(18) 0.0379(4) 0.2096(4)
H1_2 H 0.2340 0.0315 0.2170
C5_2 C 0.35947(19) 0.0600(4) 0.1833(4)
C6_2 C 0.33947(18) 0.1149(4) 0.2505(4)
H3_2 H 0.3578 0.1596 0.2870
C7_2 C 0.27382(18) 0.1638(4) 0.3396(4)
C9_2 C 0.40732(18) 0.0782(4) 0.1619(4)
C10_2 C 0.43635(19) 0.0053(4) 0.1389(4)
C11_2 C 0.4799(2) 0.0233(4) 0.1153(4)
C12_2 C 0.49683(18) 0.1151(4) 0.1093(4)
C13_2 C 0.53947(19) 0.1357(4) 0.0754(4)
H6_2 H 0.5585 0.0875 0.0596
C14_2 C 0.55314(19) 0.2257(4) 0.0655(4)
C15_2 C 0.5253(2) 0.2988(4) 0.0924(5)
H7_2 H 0.5352 0.3599 0.0878
C16_2 C 0.4836(2) 0.2808(4) 0.1253(6)
H8_2 H 0.4655 0.3296 0.1429
C17_2 C 0.4681(2) 0.1881(4) 0.1328(4)
C18_2 C 0.42387(19) 0.1672(4) 0.1603(4)
H9_2 H 0.4055 0.2155 0.1779
C19_2 C 0.59750(19) 0.2477(4) 0.0252(4)
O3_2 O 0.23281(13) 0.1479(3) 0.3538(3)
O7_2 O 0.61345(14) 0.3293(3) 0.0341(3)
Tb5_2 Tb 0.182921(8) 0.206712(16) 0.463118(17)
O11_2 O 0.71099(13) 0.4226(3) 0.0677(3)
O12_2 O 0.77320(13) 0.3384(3) 0.0554(3)
O2_2 O 0.64705(19) 0.4306(5) 0.8822(4)
H10_2 H 0.6662 0.4618 0.8532
H11_2 H 0.6248 0.4105 0.8410
O4_2 O 0.64797(19) 0.2390(5) 0.8000(4)
H12_2 H 0.6675 0.2446 0.7607
H13_2 H 0.6243 0.2737 0.7802
O8_2 O 0.61741(15) 0.1859(3) 0.9828(4)
O10_2 O 0.73281(13) 0.3521(3) 0.8538(3)
O13_2 O 0.72680(13) 0.1616(3) 0.9446(3)
C3_2 C 0.28443(18) 0.9813(3) 0.1445(4)
C4_2 C 0.33109(18) 0.9918(4) 0.1314(4)
H2_2 H 0.3436 0.9531 0.0877
C8_2 C 0.25421(19) 0.9096(4) 0.0863(4)
H4_2 H 0.4258 0.9444 0.1399
H5_2 H 0.4989 0.9739 0.1028
O5_2 O 0.21099(13) 0.9226(3) 0.0677(3)
O6_2 O 0.27320(13) 0.8384(3) 0.0554(3)
Tb4_2 Tb 0.317079(8) 0.706712(16) 0.036882(17)
Tb3_2 Tb 0.182921(8) 0.793288(16) 0.963118(17)
C1_3 C 0.20690(18) 0.6042(4) 0.2361(4)
C2_3 C 0.23460(18) 0.5379(4) 0.2904(4)
H1_3 H 0.2660 0.5315 0.2830
C3_3 C 0.21557(18) 0.4813(3) 0.3555(4)
C4_3 C 0.16891(18) 0.4918(4) 0.3686(4)
H2_3 H 0.1564 0.4531 0.4123
C5_3 C 0.14053(19) 0.5600(4) 0.3167(4)
C6_3 C 0.16053(18) 0.6149(4) 0.2495(4)
H3_3 H 0.1422 0.6596 0.2130
C7_3 C 0.22618(18) 0.6638(4) 0.1604(4)
C8_3 C 0.24579(19) 0.4096(4) 0.4137(4)
C9_3 C 0.09268(18) 0.5782(4) 0.3381(4)
C10_3 C 0.06365(19) 0.5053(4) 0.3611(4)
H4_3 H 0.0742 0.4444 0.3601
C11_3 C 0.0201(2) 0.5233(4) 0.3847(4)
H5_3 H 0.0011 0.4739 0.3972
C12_3 C 0.00317(18) 0.6151(4) 0.3907(4)
C16_3 C 0.0164(2) 0.7808(4) 0.3747(6)
H8_3 H 0.0345 0.8296 0.3571
C17_3 C 0.0319(2) 0.6881(4) 0.3672(4)
C18_3 C 0.07613(19) 0.6672(4) 0.3397(4)
H9_3 H 0.0945 0.7155 0.3221
O1_2 O 0.19975(13) 0.7260(3) 0.1203(3)
O3_3 O 0.26719(13) 0.6479(3) 0.1462(3)
C13_3 C 0.96053(19) 0.6357(4) 0.4246(4)
H6_3 H 0.9415 0.5875 0.4404
C14_3 C 0.94686(19) 0.7257(4) 0.4345(4)
C15_3 C 0.9747(2) 0.7988(4) 0.4076(5)
H7_3 H 0.9648 0.8599 0.4122
C19_3 C 0.90250(19) 0.7477(4) 0.4748(4)
O2_3 O 0.85295(19) 0.9306(5) 0.6178(4)
H10_3 H 0.8338 0.9618 0.6468
H11_3 H 0.8752 0.9105 0.6590
O4_3 O 0.85203(19) 0.7390(5) 0.7000(4)
H12_3 H 0.8325 0.7446 0.7393
H13_3 H 0.8757 0.7737 0.7198
O7_3 O 0.88655(14) 0.8293(3) 0.4659(3)
O8_3 O 0.88259(15) 0.6859(3) 0.5172(4)
O9_2 O 0.80025(13) 0.7260(3) 0.3797(3)
O10_3 O 0.76719(13) 0.8521(3) 0.6462(3)
O13_3 O 0.77320(13) 0.6616(3) 0.5554(3)
C13_4 C 0.03947(19) 0.6357(4) 0.0754(4)
H6_4 H 0.0585 0.5875 0.0596
C14_4 C 0.05314(19) 0.7257(4) 0.0655(4)
C15_4 C 0.0253(2) 0.7988(4) 0.0924(5)
H7_4 H 0.0352 0.8599 0.0878
C19_4 C 0.09750(19) 0.7477(4) 0.0252(4)
O7_4 O 0.11345(14) 0.8293(3) 0.0341(3)
O2_4 O 0.14705(19) 0.9306(5) 0.8822(4)
H10_4 H 0.1662 0.9618 0.8532
H11_4 H 0.1248 0.9105 0.8410
O4_4 O 0.14797(19) 0.7390(5) 0.8000(4)
H12_4 H 0.1675 0.7446 0.7607
H13_4 H 0.1243 0.7737 0.7802
O8_4 O 0.11741(15) 0.6859(3) 0.9828(4)
O10_4 O 0.23281(13) 0.8521(3) 0.8538(3)
O13_4 O 0.22680(13) 0.6616(3) 0.9446(3)
C1_4 C 0.79310(18) 0.6042(4) 0.2639(4)
C2_4 C 0.76540(18) 0.5379(4) 0.2096(4)
H1_4 H 0.7340 0.5315 0.2170
C3_4 C 0.78443(18) 0.4813(3) 0.1445(4)
C4_4 C 0.83109(18) 0.4918(4) 0.1314(4)
H2_4 H 0.8436 0.4531 0.0877
C5_4 C 0.85947(19) 0.5600(4) 0.1833(4)
C6_4 C 0.83947(18) 0.6149(4) 0.2505(4)
H3_4 H 0.8578 0.6596 0.2870
C7_4 C 0.77382(18) 0.6638(4) 0.3396(4)
C8_4 C 0.75421(19) 0.4096(4) 0.0863(4)
C9_4 C 0.90732(18) 0.5782(4) 0.1619(4)
C10_4 C 0.93635(19) 0.5053(4) 0.1389(4)
H4_4 H 0.9258 0.4444 0.1399
C11_4 C 0.9799(2) 0.5233(4) 0.1153(4)
H5_4 H 0.9989 0.4739 0.1028
C12_4 C 0.99683(18) 0.6151(4) 0.1093(4)
C16_4 C 0.9836(2) 0.7808(4) 0.1253(6)
H8_4 H 0.9655 0.8296 0.1429
C17_4 C 0.9681(2) 0.6881(4) 0.1328(4)
C18_4 C 0.92387(19) 0.6672(4) 0.1603(4)
H9_4 H 0.9055 0.7155 0.1779
O3_4 O 0.73281(13) 0.6479(3) 0.3538(3)
C3_5 C 0.28443(18) 0.0187(3) 0.6445(4)
C4_5 C 0.33109(18) 0.0082(4) 0.6314(4)
H2_5 H 0.3436 0.0469 0.5877
C8_5 C 0.25421(19) 0.0904(4) 0.5863(4)
H4_5 H 0.4258 0.0556 0.6399
H5_5 H 0.4989 0.0261 0.6028
O5_3 O 0.21099(13) 0.0774(3) 0.5677(3)
C1_5 C 0.29310(18) 0.8958(4) 0.7639(4)
C2_5 C 0.26540(18) 0.9621(4) 0.7096(4)
H1_5 H 0.2340 0.9685 0.7170
C5_5 C 0.35947(19) 0.9400(4) 0.6833(4)
C6_5 C 0.33947(18) 0.8851(4) 0.7505(4)
H3_5 H 0.3578 0.8404 0.7870
C7_5 C 0.27382(18) 0.8362(4) 0.8396(4)
C9_5 C 0.40732(18) 0.9218(4) 0.6619(4)
C10_5 C 0.43635(19) 0.9947(4) 0.6389(4)
C11_5 C 0.4799(2) 0.9767(4) 0.6153(4)
C12_5 C 0.49683(18) 0.8849(4) 0.6093(4)
C13_5 C 0.53947(19) 0.8643(4) 0.5754(4)
H6_5 H 0.5585 0.9125 0.5596
C14_5 C 0.55314(19) 0.7743(4) 0.5655(4)
C15_5 C 0.5253(2) 0.7012(4) 0.5924(5)
H7_5 H 0.5352 0.6401 0.5878
C16_5 C 0.4836(2) 0.7192(4) 0.6253(6)
H8_5 H 0.4655 0.6704 0.6429
C17_5 C 0.4681(2) 0.8119(4) 0.6328(4)
C18_5 C 0.42387(19) 0.8328(4) 0.6603(4)
H9_5 H 0.4055 0.7845 0.6779
C19_5 C 0.59750(19) 0.7523(4) 0.5252(4)
O1_3 O 0.30025(13) 0.7740(3) 0.8797(3)
O2_5 O 0.64705(19) 0.5694(5) 0.3822(4)
H10_5 H 0.6662 0.5382 0.3532
H11_5 H 0.6248 0.5895 0.3410
O4_5 O 0.64797(19) 0.7610(5) 0.3000(4)
H12_5 H 0.6675 0.7554 0.2607
H13_5 H 0.6243 0.7263 0.2802
O7_5 O 0.61345(14) 0.6707(3) 0.5341(3)
O8_5 O 0.61741(15) 0.8141(3) 0.4828(4)
O9_3 O 0.69975(13) 0.7740(3) 0.6203(3)
O11_3 O 0.71099(13) 0.5774(3) 0.5677(3)
C3_6 C 0.71557(18) 0.0187(3) 0.8555(4)
C4_6 C 0.66891(18) 0.0082(4) 0.8686(4)
H2_6 H 0.6564 0.0469 0.9123
C8_6 C 0.74579(19) 0.0904(4) 0.9137(4)
H4_6 H 0.5742 0.0556 0.8601
H5_6 H 0.5011 0.0261 0.8972
O5_4 O 0.78901(13) 0.0774(3) 0.9323(3)
O2_6 O 0.35295(19) 0.5694(5) 0.1178(4)
H10_6 H 0.3338 0.5382 0.1468
H11_6 H 0.3752 0.5895 0.1590
O4_6 O 0.35203(19) 0.7610(5) 0.2000(4)
H12_6 H 0.3325 0.7554 0.2393
H13_6 H 0.3757 0.7263 0.2198
O8_6 O 0.38259(15) 0.8141(3) 0.0172(4)
C1_6 C 0.70690(18) 0.8958(4) 0.7361(4)
C2_6 C 0.73460(18) 0.9621(4) 0.7904(4)
H1_6 H 0.7660 0.9685 0.7830
C5_6 C 0.64053(19) 0.9400(4) 0.8167(4)
C6_6 C 0.66053(18) 0.8851(4) 0.7495(4)
H3_6 H 0.6422 0.8404 0.7130
C7_6 C 0.72618(18) 0.8362(4) 0.6604(4)
C9_6 C 0.59268(18) 0.9218(4) 0.8381(4)
C10_6 C 0.56365(19) 0.9947(4) 0.8611(4)
C11_6 C 0.5201(2) 0.9767(4) 0.8847(4)
C12_6 C 0.50317(18) 0.8849(4) 0.8907(4)
C13_6 C 0.46053(19) 0.8643(4) 0.9246(4)
H6_6 H 0.4415 0.9125 0.9404
C14_6 C 0.44686(19) 0.7743(4) 0.9345(4)
C15_6 C 0.4747(2) 0.7012(4) 0.9076(5)
H7_6 H 0.4648 0.6401 0.9122
C16_6 C 0.5164(2) 0.7192(4) 0.8747(6)
H8_6 H 0.5345 0.6704 0.8571
C17_6 C 0.5319(2) 0.8119(4) 0.8672(4)
C18_6 C 0.57613(19) 0.8328(4) 0.8397(4)
H9_6 H 0.5945 0.7845 0.8221
C19_6 C 0.40250(19) 0.7523(4) 0.9748(4)
O7_6 O 0.38655(14) 0.6707(3) 0.9659(3)
O11_4 O 0.28901(13) 0.5774(3) 0.9323(3)
C13_7 C 0.03947(19) 0.3643(4) 0.5754(4)
H6_7 H 0.0585 0.4125 0.5596
C14_7 C 0.05314(19) 0.2743(4) 0.5655(4)
C15_7 C 0.0253(2) 0.2012(4) 0.5924(5)
H7_7 H 0.0352 0.1401 0.5878
C19_7 C 0.09750(19) 0.2523(4) 0.5252(4)
O2_7 O 0.14705(19) 0.0694(5) 0.3822(4)
H10_7 H 0.1662 0.0382 0.3532
H11_7 H 0.1248 0.0895 0.3410
O4_7 O 0.14797(19) 0.2610(5) 0.3000(4)
H12_7 H 0.1675 0.2554 0.2607
H13_7 H 0.1243 0.2263 0.2802
O7_7 O 0.11345(14) 0.1707(3) 0.5341(3)
O8_7 O 0.11741(15) 0.3141(3) 0.4828(4)
O9_4 O 0.19975(13) 0.2740(3) 0.6203(3)
C1_7 C 0.79310(18) 0.3958(4) 0.7639(4)
C2_7 C 0.76540(18) 0.4621(4) 0.7096(4)
H1_7 H 0.7340 0.4685 0.7170
C3_7 C 0.78443(18) 0.5187(3) 0.6445(4)
C4_7 C 0.83109(18) 0.5082(4) 0.6314(4)
H2_7 H 0.8436 0.5469 0.5877
C5_7 C 0.85947(19) 0.4400(4) 0.6833(4)
C6_7 C 0.83947(18) 0.3851(4) 0.7505(4)
H3_7 H 0.8578 0.3404 0.7870
C7_7 C 0.77382(18) 0.3362(4) 0.8396(4)
C8_7 C 0.75421(19) 0.5904(4) 0.5863(4)
C9_7 C 0.90732(18) 0.4218(4) 0.6619(4)
C10_7 C 0.93635(19) 0.4947(4) 0.6389(4)
H4_7 H 0.9258 0.5556 0.6399
C11_7 C 0.9799(2) 0.4767(4) 0.6153(4)
H5_7 H 0.9989 0.5261 0.6028
C12_7 C 0.99683(18) 0.3849(4) 0.6093(4)
C16_7 C 0.9836(2) 0.2192(4) 0.6253(6)
H8_7 H 0.9655 0.1704 0.6429
C17_7 C 0.9681(2) 0.3119(4) 0.6328(4)
C18_7 C 0.92387(19) 0.3328(4) 0.6603(4)
H9_7 H 0.9055 0.2845 0.6779
O1_4 O 0.80025(13) 0.2740(3) 0.8797(3)
C1_8 C 0.20690(18) 0.3958(4) 0.7361(4)
C2_8 C 0.23460(18) 0.4621(4) 0.7904(4)
H1_8 H 0.2660 0.4685 0.7830
C3_8 C 0.21557(18) 0.5187(3) 0.8555(4)
C4_8 C 0.16891(18) 0.5082(4) 0.8686(4)
H2_8 H 0.1564 0.5469 0.9123
C5_8 C 0.14053(19) 0.4400(4) 0.8167(4)
C6_8 C 0.16053(18) 0.3851(4) 0.7495(4)
H3_8 H 0.1422 0.3404 0.7130
C7_8 C 0.22618(18) 0.3362(4) 0.6604(4)
C8_8 C 0.24579(19) 0.5904(4) 0.9137(4)
C9_8 C 0.09268(18) 0.4218(4) 0.8381(4)
C10_8 C 0.06365(19) 0.4947(4) 0.8611(4)
H4_8 H 0.0742 0.5556 0.8601
C11_8 C 0.0201(2) 0.4767(4) 0.8847(4)
H5_8 H 0.0011 0.5261 0.8972
C12_8 C 0.00317(18) 0.3849(4) 0.8907(4)
C16_8 C 0.0164(2) 0.2192(4) 0.8747(6)
H8_8 H 0.0345 0.1704 0.8571
C17_8 C 0.0319(2) 0.3119(4) 0.8672(4)
C18_8 C 0.07613(19) 0.3328(4) 0.8397(4)
H9_8 H 0.0945 0.2845 0.8221
O2_8 O 0.85295(19) 0.0694(5) 0.1178(4)
H10_8 H 0.8338 0.0382 0.1468
H11_8 H 0.8752 0.0895 0.1590
O4_8 O 0.85203(19) 0.2610(5) 0.2000(4)
H12_8 H 0.8325 0.2554 0.2393
H13_8 H 0.8757 0.2263 0.2198
O8_8 O 0.88259(15) 0.3141(3) 0.0172(4)
C13_8 C 0.96053(19) 0.3643(4) 0.9246(4)
H6_8 H 0.9415 0.4125 0.9404
C14_8 C 0.94686(19) 0.2743(4) 0.9345(4)
C15_8 C 0.9747(2) 0.2012(4) 0.9076(5)
H7_8 H 0.9648 0.1401 0.9122
C19_8 C 0.90250(19) 0.2523(4) 0.9748(4)
O7_8 O 0.88655(14) 0.1707(3) 0.9659(3)
loop_
_geom_bond_atom_site_label_1
_geom_bond_atom_site_label_2
_geom_bond_site_symmetry_1
_geom_bond_site_symmetry_2
Tb1 O2 1_555 1_555
C1 C2 1_555 1_555
C2 H1 1_555 1_555
C6 C1 1_555 1_555
H3 C6 1_555 1_555
C7 C1 1_555 1_555
C9 C5 1_555 1_555
C10 C9 1_555 1_555
C11 C10 1_555 1_555
C12 C11 1_555 1_555
C13 C12 1_555 1_555
H6 C13 1_555 1_555
C14 C13 1_555 1_555
C15 C14 1_555 1_555
H7 C15 1_555 1_555
C16 C15 1_555 1_555
H8 C16 1_555 1_555
C17 C12 1_555 1_555
C18 C9 1_555 1_555
H9 C18 1_555 1_555
C19 C14 1_555 1_555
O1 C7 1_555 1_555
O2 H10 1_555 1_555
H11 O2 1_555 1_555
O3 C7 1_555 1_555
O4 Tb1 1_555 1_555
H12 O4 1_555 1_555
H13 O4 1_555 1_555
O7 Tb1 1_555 1_555
O8 Tb1 1_555 1_555
Tb5 O3 1_555 1_555
O9 Tb1 1_555 1_555
O10 Tb1 1_555 1_555
O11 Tb1 1_555 1_555
O12 Tb1 1_555 1_555
O13 Tb1 1_555 1_555
C5 C6 1_555 1_555
C16 C17 1_555 1_555
C17 C18 1_555 1_555
C19 O7 1_555 1_555
C19 O8 1_555 1_555
C4 C3 1_555 1_555
H2 C4 1_555 1_555
C8 C3 1_555 1_555
O5 C8 1_555 1_555
O6 C8 1_555 1_555
Tb3 O5 1_555 1_555
Tb4 O6 1_555 1_555
O6 Tb3 1_555 1_555
C1_2 C2_2 1_555 1_555
C2_2 H1_2 1_555 1_555
C6_2 C1_2 1_555 1_555
H3_2 C6_2 1_555 1_555
C7_2 C1_2 1_555 1_555
C9_2 C5_2 1_555 1_555
C10_2 C9_2 1_555 1_555
C11_2 C10_2 1_555 1_555
C12_2 C11_2 1_555 1_555
C13_2 C12_2 1_555 1_555
H6_2 C13_2 1_555 1_555
C14_2 C13_2 1_555 1_555
C15_2 C14_2 1_555 1_555
H7_2 C15_2 1_555 1_555
C16_2 C15_2 1_555 1_555
H8_2 C16_2 1_555 1_555
C17_2 C12_2 1_555 1_555
C18_2 C9_2 1_555 1_555
H9_2 C18_2 1_555 1_555
C19_2 C14_2 1_555 1_555
O9 C7_2 1_555 1_555
O3_2 C7_2 1_555 1_555
Tb5_2 O3_2 1_555 1_555
C5_2 C6_2 1_555 1_555
C16_2 C17_2 1_555 1_555
C17_2 C18_2 1_555 1_555
C19_2 O7_2 1_555 1_555
Tb2 O2_2 1_555 1_555
O2_2 H10_2 1_555 1_555
H11_2 O2_2 1_555 1_555
O4_2 Tb2 1_555 1_555
H12_2 O4_2 1_555 1_555
H13_2 O4_2 1_555 1_555
O8_2 Tb2 1_555 1_555
O10_2 Tb2 1_555 1_555
O13_2 Tb2 1_555 1_555
C4_2 C3_2 1_555 1_555
H2_2 C4_2 1_555 1_555
C8_2 C3_2 1_555 1_555
O5_2 C8_2 1_555 1_555
O6_2 C8_2 1_555 1_555
Tb4_2 O6_2 1_555 1_555
C1_3 C2_3 1_555 1_555
C2_3 H1_3 1_555 1_555
C3_3 C2_3 1_555 1_555
C4_3 C3_3 1_555 1_555
H2_3 C4_3 1_555 1_555
C5_3 C4_3 1_555 1_555
C6_3 C1_3 1_555 1_555
H3_3 C6_3 1_555 1_555
C7_3 C1_3 1_555 1_555
C8_3 C3_3 1_555 1_555
C9_3 C5_3 1_555 1_555
C10_3 C9_3 1_555 1_555
H4_3 C10_3 1_555 1_555
C11_3 C10_3 1_555 1_555
H5_3 C11_3 1_555 1_555
C12_3 C11_3 1_555 1_555
H8_3 C16_3 1_555 1_555
C17_3 C12_3 1_555 1_555
C18_3 C9_3 1_555 1_555
H9_3 C18_3 1_555 1_555
O1_2 C7_3 1_555 1_555
O3_3 C7_3 1_555 1_555
O11 C8_3 1_555 1_555
O12 C8_3 1_555 1_555
Tb5_2 O12 1_555 1_555
Tb4_2 O3_3 1_555 1_555
C5_3 C6_3 1_555 1_555
C16_3 C17_3 1_555 1_555
C17_3 C18_3 1_555 1_555
Tb3 O2_3 1_555 1_555
H6_3 C13_3 1_555 1_555
C14_3 C13_3 1_555 1_555
C15_3 C14_3 1_555 1_555
H7_3 C15_3 1_555 1_555
C19_3 C14_3 1_555 1_555
O2_3 H10_3 1_555 1_555
H11_3 O2_3 1_555 1_555
O4_3 Tb3 1_555 1_555
H12_3 O4_3 1_555 1_555
H13_3 O4_3 1_555 1_555
O7_3 Tb3 1_555 1_555
O8_3 Tb3 1_555 1_555
O9_2 Tb3 1_555 1_555
O10_3 Tb3 1_555 1_555
O13_3 Tb3 1_555 1_555
C19_3 O7_3 1_555 1_555
C19_3 O8_3 1_555 1_555
H6_4 C13_4 1_555 1_555
C14_4 C13_4 1_555 1_555
C15_4 C14_4 1_555 1_555
H7_4 C15_4 1_555 1_555
C19_4 C14_4 1_555 1_555
C19_4 O7_4 1_555 1_555
Tb3_2 O2_4 1_555 1_555
O2_4 H10_4 1_555 1_555
H11_4 O2_4 1_555 1_555
O4_4 Tb3_2 1_555 1_555
H12_4 O4_4 1_555 1_555
H13_4 O4_4 1_555 1_555
O8_4 Tb3_2 1_555 1_555
O10_4 Tb3_2 1_555 1_555
O13_4 Tb3_2 1_555 1_555
C1_4 C2_4 1_555 1_555
C2_4 H1_4 1_555 1_555
C3_4 C2_4 1_555 1_555
C4_4 C3_4 1_555 1_555
H2_4 C4_4 1_555 1_555
C5_4 C4_4 1_555 1_555
C6_4 C1_4 1_555 1_555
H3_4 C6_4 1_555 1_555
C7_4 C1_4 1_555 1_555
C8_4 C3_4 1_555 1_555
C9_4 C5_4 1_555 1_555
C10_4 C9_4 1_555 1_555
H4_4 C10_4 1_555 1_555
C11_4 C10_4 1_555 1_555
H5_4 C11_4 1_555 1_555
C12_4 C11_4 1_555 1_555
H8_4 C16_4 1_555 1_555
C17_4 C12_4 1_555 1_555
C18_4 C9_4 1_555 1_555
H9_4 C18_4 1_555 1_555
O9_2 C7_4 1_555 1_555
O3_4 C7_4 1_555 1_555
O11_2 C8_4 1_555 1_555
O12_2 C8_4 1_555 1_555
Tb5 O12_2 1_555 1_555
Tb4 O3_4 1_555 1_555
C5_4 C6_4 1_555 1_555
C16_4 C17_4 1_555 1_555
C17_4 C18_4 1_555 1_555
C4_5 C3_5 1_555 1_555
H2_5 C4_5 1_555 1_555
C8_5 C3_5 1_555 1_555
O5_3 C8_5 1_555 1_555
O13 C8_5 1_555 1_555
Tb5_2 O5_3 1_555 1_555
O13 Tb5_2 1_555 1_555
Tb4 O2_5 1_555 1_555
C1_5 C2_5 1_555 1_555
C2_5 H1_5 1_555 1_555
C6_5 C1_5 1_555 1_555
H3_5 C6_5 1_555 1_555
C7_5 C1_5 1_555 1_555
C9_5 C5_5 1_555 1_555
C10_5 C9_5 1_555 1_555
C11_5 C10_5 1_555 1_555
C12_5 C11_5 1_555 1_555
C13_5 C12_5 1_555 1_555
H6_5 C13_5 1_555 1_555
C14_5 C13_5 1_555 1_555
C15_5 C14_5 1_555 1_555
H7_5 C15_5 1_555 1_555
C16_5 C15_5 1_555 1_555
H8_5 C16_5 1_555 1_555
C17_5 C12_5 1_555 1_555
C18_5 C9_5 1_555 1_555
H9_5 C18_5 1_555 1_555
C19_5 C14_5 1_555 1_555
O1_3 C7_5 1_555 1_555
O2_5 H10_5 1_555 1_555
H11_5 O2_5 1_555 1_555
O10_4 C7_5 1_555 1_555
O4_5 Tb4 1_555 1_555
H12_5 O4_5 1_555 1_555
H13_5 O4_5 1_555 1_555
O7_5 Tb4 1_555 1_555
O8_5 Tb4 1_555 1_555
O9_3 Tb4 1_555 1_555
O11_3 Tb4 1_555 1_555
O13_3 Tb4 1_555 1_555
C5_5 C6_5 1_555 1_555
C16_5 C17_5 1_555 1_555
C17_5 C18_5 1_555 1_555
C19_5 O7_5 1_555 1_555
C19_5 O8_5 1_555 1_555
C4_6 C3_6 1_555 1_555
H2_6 C4_6 1_555 1_555
C8_6 C3_6 1_555 1_555
O5_4 C8_6 1_555 1_555
O13_2 C8_6 1_555 1_555
Tb4_2 O2_6 1_555 1_555
O2_6 H10_6 1_555 1_555
H11_6 O2_6 1_555 1_555
O4_6 Tb4_2 1_555 1_555
H12_6 O4_6 1_555 1_555
H13_6 O4_6 1_555 1_555
O8_6 Tb4_2 1_555 1_555
C1_6 C2_6 1_555 1_555
C2_6 H1_6 1_555 1_555
C6_6 C1_6 1_555 1_555
H3_6 C6_6 1_555 1_555
C7_6 C1_6 1_555 1_555
C9_6 C5_6 1_555 1_555
C10_6 C9_6 1_555 1_555
C11_6 C10_6 1_555 1_555
C12_6 C11_6 1_555 1_555
C13_6 C12_6 1_555 1_555
H6_6 C13_6 1_555 1_555
C14_6 C13_6 1_555 1_555
C15_6 C14_6 1_555 1_555
H7_6 C15_6 1_555 1_555
C16_6 C15_6 1_555 1_555
H8_6 C16_6 1_555 1_555
C17_6 C12_6 1_555 1_555
C18_6 C9_6 1_555 1_555
H9_6 C18_6 1_555 1_555
C19_6 C14_6 1_555 1_555
O9_3 C7_6 1_555 1_555
O10_3 C7_6 1_555 1_555
C5_6 C6_6 1_555 1_555
C16_6 C17_6 1_555 1_555
C17_6 C18_6 1_555 1_555
C19_6 O7_6 1_555 1_555
Tb5_2 O2_7 1_555 1_555
H6_7 C13_7 1_555 1_555
C14_7 C13_7 1_555 1_555
C15_7 C14_7 1_555 1_555
H7_7 C15_7 1_555 1_555
C19_7 C14_7 1_555 1_555
O2_7 H10_7 1_555 1_555
H11_7 O2_7 1_555 1_555
O4_7 Tb5_2 1_555 1_555
H12_7 O4_7 1_555 1_555
H13_7 O4_7 1_555 1_555
O7_7 Tb5_2 1_555 1_555
O8_7 Tb5_2 1_555 1_555
O9_4 Tb5_2 1_555 1_555
C19_7 O7_7 1_555 1_555
C19_7 O8_7 1_555 1_555
C1_7 C2_7 1_555 1_555
C2_7 H1_7 1_555 1_555
C3_7 C2_7 1_555 1_555
C4_7 C3_7 1_555 1_555
H2_7 C4_7 1_555 1_555
C5_7 C4_7 1_555 1_555
C6_7 C1_7 1_555 1_555
H3_7 C6_7 1_555 1_555
C7_7 C1_7 1_555 1_555
C8_7 C3_7 1_555 1_555
C9_7 C5_7 1_555 1_555
C10_7 C9_7 1_555 1_555
H4_7 C10_7 1_555 1_555
C11_7 C10_7 1_555 1_555
H5_7 C11_7 1_555 1_555
C12_7 C11_7 1_555 1_555
H8_7 C16_7 1_555 1_555
C17_7 C12_7 1_555 1_555
C18_7 C9_7 1_555 1_555
H9_7 C18_7 1_555 1_555
O1_4 C7_7 1_555 1_555
O10_2 C7_7 1_555 1_555
O11_3 C8_7 1_555 1_555
O13_3 C8_7 1_555 1_555
C5_7 C6_7 1_555 1_555
C16_7 C17_7 1_555 1_555
C17_7 C18_7 1_555 1_555
C1_8 C2_8 1_555 1_555
C2_8 H1_8 1_555 1_555
C3_8 C2_8 1_555 1_555
C4_8 C3_8 1_555 1_555
H2_8 C4_8 1_555 1_555
C5_8 C4_8 1_555 1_555
C6_8 C1_8 1_555 1_555
H3_8 C6_8 1_555 1_555
C7_8 C1_8 1_555 1_555
C8_8 C3_8 1_555 1_555
C9_8 C5_8 1_555 1_555
C10_8 C9_8 1_555 1_555
H4_8 C10_8 1_555 1_555
C11_8 C10_8 1_555 1_555
H5_8 C11_8 1_555 1_555
C12_8 C11_8 1_555 1_555
H8_8 C16_8 1_555 1_555
C17_8 C12_8 1_555 1_555
C18_8 C9_8 1_555 1_555
H9_8 C18_8 1_555 1_555
O9_4 C7_8 1_555 1_555
O10 C7_8 1_555 1_555
O11_4 C8_8 1_555 1_555
O13_4 C8_8 1_555 1_555
C5_8 C6_8 1_555 1_555
C16_8 C17_8 1_555 1_555
C17_8 C18_8 1_555 1_555
Tb5 O2_8 1_555 1_555
O2_8 H10_8 1_555 1_555
H11_8 O2_8 1_555 1_555
O4_8 Tb5 1_555 1_555
H12_8 O4_8 1_555 1_555
H13_8 O4_8 1_555 1_555
O8_8 Tb5 1_555 1_555
H6_8 C13_8 1_555 1_555
C14_8 C13_8 1_555 1_555
C15_8 C14_8 1_555 1_555
H7_8 C15_8 1_555 1_555
C19_8 C14_8 1_555 1_555
C19_8 O7_8 1_555 1_555

#END
