
###############################################################################
#
# This file contains modified crystal structure data generated from the
# MOF subset of the Cambridge Structural Database (CSD) v543 
# hosted by the Cambridge Crystallographic Data Centre (CCDC).
#
# This work is licensed under the Creative Commons
# Attribution-NonCommercial-ShareAlike 4.0 International License.
# To view a copy of this license, visit
# http://creativecommons.org/licenses/by-nc-sa/4.0/
# or send a letter to
# Creative Commons, PO Box 1866, Mountain View, CA 94042, USA.
#
# CIF created using the CSD Python API on 29 September 2022
# The structure has been converted into the P1 space group
# The structure has a 3D framework
# The original CSD entry NAJTEA is in the monoclinic crystal system
# The framework has been calculated to contain at least 10.0% void space
# The void calculation uses a probe of radius 1.32A, grid spacing 0.4
#
###############################################################################

data_NAJTEA
_chemical_formula_moiety         '(C152 H104 Ho8 O64)n'
_symmetry_cell_setting           triclinic
_symmetry_space_group_name_H-M   'P 1'
_symmetry_Int_Tables_number      1
_space_group_name_Hall           'P 1'
loop_
_symmetry_equiv_pos_site_id
_symmetry_equiv_pos_as_xyz
1 x,y,z
_cell_length_a                   29.162(3)
_cell_length_b                   13.4545(10)
_cell_length_c                   13.9030(11)
_cell_angle_alpha                90
_cell_angle_beta                 98.219(4)
_cell_angle_gamma                90
_cell_volume                     5398.95
loop_
_atom_site_label
_atom_site_type_symbol
_atom_site_fract_x
_atom_site_fract_y
_atom_site_fract_z
Ho1 Ho 0.315409(16) 0.30093(4) 0.54077(4)
C1 C 0.7044(4) 0.1218(8) 0.2420(8)
C2 C 0.7324(4) 0.0537(10) 0.2991(9)
H1 H 0.7636 0.0473 0.2929
C4 C 0.6663(4) 0.0063(10) 0.3749(9)
C5 C 0.6391(4) 0.0770(9) 0.3223(8)
C6 C 0.6591(4) 0.1354(9) 0.2540(9)
H3 H 0.6413 0.1831 0.2174
C7 C 0.7250(4) 0.1797(9) 0.1641(9)
C9 C 0.5908(4) 0.0953(11) 0.3416(9)
C10 C 0.5632(4) 0.0175(10) 0.3635(10)
C11 C 0.5195(4) 0.0323(11) 0.3854(10)
C12 C 0.5019(4) 0.1294(11) 0.3929(9)
C13 C 0.4592(4) 0.1505(11) 0.4246(9)
H6 H 0.4409 0.0982 0.4406
C14 C 0.4441(4) 0.2450(11) 0.4323(9)
C15 C 0.4706(5) 0.3245(12) 0.4060(14)
H7 H 0.4597 0.3890 0.4102
C16 C 0.5125(5) 0.3094(12) 0.3740(14)
H8 H 0.5295 0.3631 0.3561
C17 C 0.5298(4) 0.2108(10) 0.3684(10)
C18 C 0.5737(5) 0.1900(11) 0.3416(10)
H9 H 0.5915 0.2422 0.3234
C19 C 0.3998(4) 0.2644(11) 0.4738(9)
O1 O 0.7000(3) 0.2478(7) 0.1211(6)
O2 O 0.3508(4) 0.4464(10) 0.6259(10)
H10 H 0.3316 0.4775 0.6549
H11 H 0.3731 0.4262 0.6671
O3 O 0.7652(3) 0.1564(7) 0.1516(6)
O4 O 0.3528(4) 0.2382(11) 0.6959(8)
H12 H 0.3333 0.2437 0.7352
H13 H 0.3765 0.2728 0.7156
O7 O 0.3830(3) 0.3513(7) 0.4678(8)
O8 O 0.3806(3) 0.1952(8) 0.5131(8)
Ho5 Ho 0.815409(16) 0.19907(4) 0.04077(4)
O9 O 0.3000(3) 0.2478(7) 0.3789(6)
O10 O 0.2652(3) 0.3436(7) 0.6516(6)
O11 O 0.2850(3) 0.4439(7) 0.4507(7)
O12 O 0.2254(3) 0.3459(6) 0.4546(7)
O13 O 0.2746(3) 0.1541(6) 0.5454(7)
Ho2 Ho 0.684591(16) 0.30093(4) 0.95923(4)
C3 C 0.7129(4) 0.9957(9) 0.3653(8)
H2 H 0.6534 0.9651 0.4175
C8 C 0.7429(4) 0.9227(9) 0.4274(9)
H4 H 0.5746 0.9530 0.3632
H5 H 0.5011 0.9779 0.3956
O5 O 0.7850(3) 0.9439(7) 0.4507(7)
O6 O 0.7254(3) 0.8459(6) 0.4546(7)
Ho3 Ho 0.815409(16) 0.80093(4) 0.54077(4)
Ho4 Ho 0.684591(16) 0.69907(4) 0.45923(4)
C1_2 C 0.2956(4) 0.1218(8) 0.2580(8)
C2_2 C 0.2676(4) 0.0537(10) 0.2009(9)
H1_2 H 0.2364 0.0473 0.2071
C4_2 C 0.3337(4) 0.0063(10) 0.1251(9)
C5_2 C 0.3609(4) 0.0770(9) 0.1777(8)
C6_2 C 0.3409(4) 0.1354(9) 0.2460(9)
H3_2 H 0.3587 0.1831 0.2826
C7_2 C 0.2750(4) 0.1797(9) 0.3359(9)
C9_2 C 0.4092(4) 0.0953(11) 0.1584(9)
C10_2 C 0.4368(4) 0.0175(10) 0.1365(10)
C11_2 C 0.4805(4) 0.0323(11) 0.1146(10)
C12_2 C 0.4981(4) 0.1294(11) 0.1071(9)
C13_2 C 0.5408(4) 0.1505(11) 0.0754(9)
H6_2 H 0.5591 0.0982 0.0594
C14_2 C 0.5559(4) 0.2450(11) 0.0677(9)
C15_2 C 0.5294(5) 0.3245(12) 0.0940(14)
H7_2 H 0.5403 0.3890 0.0898
C16_2 C 0.4875(5) 0.3094(12) 0.1260(14)
H8_2 H 0.4705 0.3631 0.1439
C17_2 C 0.4702(4) 0.2108(10) 0.1316(10)
C18_2 C 0.4263(5) 0.1900(11) 0.1584(10)
H9_2 H 0.4085 0.2422 0.1766
C19_2 C 0.6002(4) 0.2644(11) 0.0262(9)
O3_2 O 0.2348(3) 0.1564(7) 0.3484(6)
O7_2 O 0.6170(3) 0.3513(7) 0.0322(8)
Ho5_2 Ho 0.184591(16) 0.19907(4) 0.45923(4)
O11_2 O 0.7150(3) 0.4439(7) 0.0493(7)
O12_2 O 0.7746(3) 0.3459(6) 0.0454(7)
O2_2 O 0.6492(4) 0.4464(10) 0.8741(10)
H10_2 H 0.6684 0.4775 0.8451
H11_2 H 0.6269 0.4262 0.8329
O4_2 O 0.6472(4) 0.2382(11) 0.8041(8)
H12_2 H 0.6667 0.2437 0.7648
H13_2 H 0.6235 0.2728 0.7844
O8_2 O 0.6194(3) 0.1952(8) 0.9869(8)
O10_2 O 0.7348(3) 0.3436(7) 0.8484(6)
O13_2 O 0.7254(3) 0.1541(6) 0.9546(7)
C3_2 C 0.2871(4) 0.9957(9) 0.1347(8)
H2_2 H 0.3466 0.9651 0.0825
C8_2 C 0.2571(4) 0.9227(9) 0.0726(9)
H4_2 H 0.4254 0.9530 0.1368
H5_2 H 0.4989 0.9779 0.1044
O5_2 O 0.2150(3) 0.9439(7) 0.0493(7)
O6_2 O 0.2746(3) 0.8459(6) 0.0454(7)
Ho4_2 Ho 0.315409(16) 0.69907(4) 0.04077(4)
Ho3_2 Ho 0.184591(16) 0.80093(4) 0.95923(4)
C1_3 C 0.2044(4) 0.6218(8) 0.2420(8)
C2_3 C 0.2324(4) 0.5537(10) 0.2991(9)
H1_3 H 0.2636 0.5473 0.2929
C3_3 C 0.2129(4) 0.4957(9) 0.3653(8)
C4_3 C 0.1663(4) 0.5063(10) 0.3749(9)
H2_3 H 0.1534 0.4651 0.4175
C5_3 C 0.1391(4) 0.5770(9) 0.3223(8)
C6_3 C 0.1591(4) 0.6354(9) 0.2540(9)
H3_3 H 0.1413 0.6831 0.2174
C7_3 C 0.2250(4) 0.6797(9) 0.1641(9)
C8_3 C 0.2429(4) 0.4227(9) 0.4274(9)
C9_3 C 0.0908(4) 0.5953(11) 0.3416(9)
C10_3 C 0.0632(4) 0.5175(10) 0.3635(10)
H4_3 H 0.0746 0.4530 0.3632
C11_3 C 0.0195(4) 0.5323(11) 0.3854(10)
H5_3 H 0.0011 0.4779 0.3956
C12_3 C 0.0019(4) 0.6294(11) 0.3929(9)
C16_3 C 0.0125(5) 0.8094(12) 0.3740(14)
H8_3 H 0.0295 0.8631 0.3561
C17_3 C 0.0298(4) 0.7108(10) 0.3684(10)
C18_3 C 0.0737(5) 0.6900(11) 0.3416(10)
H9_3 H 0.0915 0.7422 0.3234
O1_2 O 0.2000(3) 0.7478(7) 0.1211(6)
O3_3 O 0.2652(3) 0.6564(7) 0.1516(6)
C13_3 C 0.9592(4) 0.6505(11) 0.4246(9)
H6_3 H 0.9409 0.5982 0.4406
C14_3 C 0.9441(4) 0.7450(11) 0.4323(9)
C15_3 C 0.9706(5) 0.8245(12) 0.4060(14)
H7_3 H 0.9597 0.8890 0.4102
C19_3 C 0.8998(4) 0.7644(11) 0.4738(9)
O2_3 O 0.8508(4) 0.9464(10) 0.6259(10)
H10_3 H 0.8316 0.9775 0.6549
H11_3 H 0.8731 0.9262 0.6671
O4_3 O 0.8528(4) 0.7382(11) 0.6959(8)
H12_3 H 0.8333 0.7437 0.7352
H13_3 H 0.8765 0.7728 0.7156
O7_3 O 0.8830(3) 0.8513(7) 0.4678(8)
O8_3 O 0.8806(3) 0.6952(8) 0.5131(8)
O9_2 O 0.8000(3) 0.7478(7) 0.3789(6)
O10_3 O 0.7652(3) 0.8436(7) 0.6516(6)
O13_3 O 0.7746(3) 0.6541(6) 0.5454(7)
C13_4 C 0.0408(4) 0.6505(11) 0.0754(9)
H6_4 H 0.0591 0.5982 0.0594
C14_4 C 0.0559(4) 0.7450(11) 0.0677(9)
C15_4 C 0.0294(5) 0.8245(12) 0.0940(14)
H7_4 H 0.0403 0.8890 0.0898
C19_4 C 0.1002(4) 0.7644(11) 0.0262(9)
O7_4 O 0.1170(3) 0.8513(7) 0.0322(8)
O2_4 O 0.1492(4) 0.9464(10) 0.8741(10)
H10_4 H 0.1684 0.9775 0.8451
H11_4 H 0.1269 0.9262 0.8329
O4_4 O 0.1472(4) 0.7382(11) 0.8041(8)
H12_4 H 0.1667 0.7437 0.7648
H13_4 H 0.1235 0.7728 0.7844
O8_4 O 0.1194(3) 0.6952(8) 0.9869(8)
O10_4 O 0.2348(3) 0.8436(7) 0.8484(6)
O13_4 O 0.2254(3) 0.6541(6) 0.9546(7)
C1_4 C 0.7956(4) 0.6218(8) 0.2580(8)
C2_4 C 0.7676(4) 0.5537(10) 0.2009(9)
H1_4 H 0.7364 0.5473 0.2071
C3_4 C 0.7871(4) 0.4957(9) 0.1347(8)
C4_4 C 0.8337(4) 0.5063(10) 0.1251(9)
H2_4 H 0.8466 0.4651 0.0825
C5_4 C 0.8609(4) 0.5770(9) 0.1777(8)
C6_4 C 0.8409(4) 0.6354(9) 0.2460(9)
H3_4 H 0.8587 0.6831 0.2826
C7_4 C 0.7750(4) 0.6797(9) 0.3359(9)
C8_4 C 0.7571(4) 0.4227(9) 0.0726(9)
C9_4 C 0.9092(4) 0.5953(11) 0.1584(9)
C10_4 C 0.9368(4) 0.5175(10) 0.1365(10)
H4_4 H 0.9254 0.4530 0.1368
C11_4 C 0.9805(4) 0.5323(11) 0.1146(10)
H5_4 H 0.9989 0.4779 0.1044
C12_4 C 0.9981(4) 0.6294(11) 0.1071(9)
C16_4 C 0.9875(5) 0.8094(12) 0.1260(14)
H8_4 H 0.9705 0.8631 0.1439
C17_4 C 0.9702(4) 0.7108(10) 0.1316(10)
C18_4 C 0.9263(5) 0.6900(11) 0.1584(10)
H9_4 H 0.9085 0.7422 0.1766
O3_4 O 0.7348(3) 0.6564(7) 0.3484(6)
C3_5 C 0.2871(4) 0.0043(9) 0.6347(8)
H2_5 H 0.3466 0.0349 0.5825
C8_5 C 0.2571(4) 0.0773(9) 0.5726(9)
H4_5 H 0.4254 0.0470 0.6368
H5_5 H 0.4989 0.0221 0.6044
O5_3 O 0.2150(3) 0.0561(7) 0.5493(7)
C1_5 C 0.2956(4) 0.8782(8) 0.7580(8)
C2_5 C 0.2676(4) 0.9463(10) 0.7009(9)
H1_5 H 0.2364 0.9527 0.7071
C4_5 C 0.3337(4) 0.9937(10) 0.6251(9)
C5_5 C 0.3609(4) 0.9230(9) 0.6777(8)
C6_5 C 0.3409(4) 0.8646(9) 0.7460(9)
H3_5 H 0.3587 0.8169 0.7826
C7_5 C 0.2750(4) 0.8203(9) 0.8359(9)
C9_5 C 0.4092(4) 0.9047(11) 0.6584(9)
C10_5 C 0.4368(4) 0.9825(10) 0.6365(10)
C11_5 C 0.4805(4) 0.9677(11) 0.6146(10)
C12_5 C 0.4981(4) 0.8706(11) 0.6071(9)
C13_5 C 0.5408(4) 0.8495(11) 0.5754(9)
H6_5 H 0.5591 0.9018 0.5594
C14_5 C 0.5559(4) 0.7550(11) 0.5677(9)
C15_5 C 0.5294(5) 0.6755(12) 0.5940(14)
H7_5 H 0.5403 0.6110 0.5898
C16_5 C 0.4875(5) 0.6906(12) 0.6260(14)
H8_5 H 0.4705 0.6369 0.6439
C17_5 C 0.4702(4) 0.7892(10) 0.6316(10)
C18_5 C 0.4263(5) 0.8100(11) 0.6584(10)
H9_5 H 0.4085 0.7578 0.6766
C19_5 C 0.6002(4) 0.7356(11) 0.5262(9)
O1_3 O 0.3000(3) 0.7522(7) 0.8789(6)
O2_5 O 0.6492(4) 0.5536(10) 0.3741(10)
H10_5 H 0.6684 0.5225 0.3451
H11_5 H 0.6269 0.5738 0.3329
O4_5 O 0.6472(4) 0.7618(11) 0.3041(8)
H12_5 H 0.6667 0.7563 0.2648
H13_5 H 0.6235 0.7272 0.2844
O7_5 O 0.6170(3) 0.6487(7) 0.5322(8)
O8_5 O 0.6194(3) 0.8048(8) 0.4869(8)
O9_3 O 0.7000(3) 0.7522(7) 0.6211(6)
O11_3 O 0.7150(3) 0.5561(7) 0.5493(7)
C3_6 C 0.7129(4) 0.0043(9) 0.8653(8)
H2_6 H 0.6534 0.0349 0.9175
C8_6 C 0.7429(4) 0.0773(9) 0.9274(9)
H4_6 H 0.5746 0.0470 0.8632
H5_6 H 0.5011 0.0221 0.8956
O5_4 O 0.7850(3) 0.0561(7) 0.9507(7)
O2_6 O 0.3508(4) 0.5536(10) 0.1259(10)
H10_6 H 0.3316 0.5225 0.1549
H11_6 H 0.3731 0.5738 0.1671
O4_6 O 0.3528(4) 0.7618(11) 0.1959(8)
H12_6 H 0.3333 0.7563 0.2352
H13_6 H 0.3765 0.7272 0.2156
O8_6 O 0.3806(3) 0.8048(8) 0.0131(8)
C1_6 C 0.7044(4) 0.8782(8) 0.7420(8)
C2_6 C 0.7324(4) 0.9463(10) 0.7991(9)
H1_6 H 0.7636 0.9527 0.7929
C4_6 C 0.6663(4) 0.9937(10) 0.8749(9)
C5_6 C 0.6391(4) 0.9230(9) 0.8223(8)
C6_6 C 0.6591(4) 0.8646(9) 0.7540(9)
H3_6 H 0.6413 0.8169 0.7174
C7_6 C 0.7250(4) 0.8203(9) 0.6641(9)
C9_6 C 0.5908(4) 0.9047(11) 0.8416(9)
C10_6 C 0.5632(4) 0.9825(10) 0.8635(10)
C11_6 C 0.5195(4) 0.9677(11) 0.8854(10)
C12_6 C 0.5019(4) 0.8706(11) 0.8929(9)
C13_6 C 0.4592(4) 0.8495(11) 0.9246(9)
H6_6 H 0.4409 0.9018 0.9406
C14_6 C 0.4441(4) 0.7550(11) 0.9323(9)
C15_6 C 0.4706(5) 0.6755(12) 0.9060(14)
H7_6 H 0.4597 0.6110 0.9102
C16_6 C 0.5125(5) 0.6906(12) 0.8740(14)
H8_6 H 0.5295 0.6369 0.8561
C17_6 C 0.5298(4) 0.7892(10) 0.8684(10)
C18_6 C 0.5737(5) 0.8100(11) 0.8416(10)
H9_6 H 0.5915 0.7578 0.8234
C19_6 C 0.3998(4) 0.7356(11) 0.9738(9)
O7_6 O 0.3830(3) 0.6487(7) 0.9678(8)
O11_4 O 0.2850(3) 0.5561(7) 0.9507(7)
C13_7 C 0.0408(4) 0.3495(11) 0.5754(9)
H6_7 H 0.0591 0.4018 0.5594
C14_7 C 0.0559(4) 0.2550(11) 0.5677(9)
C15_7 C 0.0294(5) 0.1755(12) 0.5940(14)
H7_7 H 0.0403 0.1110 0.5898
C19_7 C 0.1002(4) 0.2356(11) 0.5262(9)
O2_7 O 0.1492(4) 0.0536(10) 0.3741(10)
H10_7 H 0.1684 0.0225 0.3451
H11_7 H 0.1269 0.0738 0.3329
O4_7 O 0.1472(4) 0.2618(11) 0.3041(8)
H12_7 H 0.1667 0.2563 0.2648
H13_7 H 0.1235 0.2272 0.2844
O7_7 O 0.1170(3) 0.1487(7) 0.5322(8)
O8_7 O 0.1194(3) 0.3048(8) 0.4869(8)
O9_4 O 0.2000(3) 0.2522(7) 0.6211(6)
C1_7 C 0.7956(4) 0.3782(8) 0.7580(8)
C2_7 C 0.7676(4) 0.4463(10) 0.7009(9)
H1_7 H 0.7364 0.4527 0.7071
C3_7 C 0.7871(4) 0.5043(9) 0.6347(8)
C4_7 C 0.8337(4) 0.4937(10) 0.6251(9)
H2_7 H 0.8466 0.5349 0.5825
C5_7 C 0.8609(4) 0.4230(9) 0.6777(8)
C6_7 C 0.8409(4) 0.3646(9) 0.7460(9)
H3_7 H 0.8587 0.3169 0.7826
C7_7 C 0.7750(4) 0.3203(9) 0.8359(9)
C8_7 C 0.7571(4) 0.5773(9) 0.5726(9)
C9_7 C 0.9092(4) 0.4047(11) 0.6584(9)
C10_7 C 0.9368(4) 0.4825(10) 0.6365(10)
H4_7 H 0.9254 0.5470 0.6368
C11_7 C 0.9805(4) 0.4677(11) 0.6146(10)
H5_7 H 0.9989 0.5221 0.6044
C12_7 C 0.9981(4) 0.3706(11) 0.6071(9)
C16_7 C 0.9875(5) 0.1906(12) 0.6260(14)
H8_7 H 0.9705 0.1369 0.6439
C17_7 C 0.9702(4) 0.2892(10) 0.6316(10)
C18_7 C 0.9263(5) 0.3100(11) 0.6584(10)
H9_7 H 0.9085 0.2578 0.6766
O1_4 O 0.8000(3) 0.2522(7) 0.8789(6)
C1_8 C 0.2044(4) 0.3782(8) 0.7420(8)
C2_8 C 0.2324(4) 0.4463(10) 0.7991(9)
H1_8 H 0.2636 0.4527 0.7929
C3_8 C 0.2129(4) 0.5043(9) 0.8653(8)
C4_8 C 0.1663(4) 0.4937(10) 0.8749(9)
H2_8 H 0.1534 0.5349 0.9175
C5_8 C 0.1391(4) 0.4230(9) 0.8223(8)
C6_8 C 0.1591(4) 0.3646(9) 0.7540(9)
H3_8 H 0.1413 0.3169 0.7174
C7_8 C 0.2250(4) 0.3203(9) 0.6641(9)
C8_8 C 0.2429(4) 0.5773(9) 0.9274(9)
C9_8 C 0.0908(4) 0.4047(11) 0.8416(9)
C10_8 C 0.0632(4) 0.4825(10) 0.8635(10)
H4_8 H 0.0746 0.5470 0.8632
C11_8 C 0.0195(4) 0.4677(11) 0.8854(10)
H5_8 H 0.0011 0.5221 0.8956
C12_8 C 0.0019(4) 0.3706(11) 0.8929(9)
C16_8 C 0.0125(5) 0.1906(12) 0.8740(14)
H8_8 H 0.0295 0.1369 0.8561
C17_8 C 0.0298(4) 0.2892(10) 0.8684(10)
C18_8 C 0.0737(5) 0.3100(11) 0.8416(10)
H9_8 H 0.0915 0.2578 0.8234
O2_8 O 0.8508(4) 0.0536(10) 0.1259(10)
H10_8 H 0.8316 0.0225 0.1549
H11_8 H 0.8731 0.0738 0.1671
O4_8 O 0.8528(4) 0.2618(11) 0.1959(8)
H12_8 H 0.8333 0.2563 0.2352
H13_8 H 0.8765 0.2272 0.2156
O8_8 O 0.8806(3) 0.3048(8) 0.0131(8)
C13_8 C 0.9592(4) 0.3495(11) 0.9246(9)
H6_8 H 0.9409 0.4018 0.9406
C14_8 C 0.9441(4) 0.2550(11) 0.9323(9)
C15_8 C 0.9706(5) 0.1755(12) 0.9060(14)
H7_8 H 0.9597 0.1110 0.9102
C19_8 C 0.8998(4) 0.2356(11) 0.9738(9)
O7_8 O 0.8830(3) 0.1487(7) 0.9678(8)
loop_
_geom_bond_atom_site_label_1
_geom_bond_atom_site_label_2
_geom_bond_site_symmetry_1
_geom_bond_site_symmetry_2
Ho1 O2 1_555 1_555
C1 C2 1_555 1_555
C2 H1 1_555 1_555
C5 C4 1_555 1_555
C6 C1 1_555 1_555
H3 C6 1_555 1_555
C7 C1 1_555 1_555
C9 C5 1_555 1_555
C10 C9 1_555 1_555
C11 C10 1_555 1_555
C12 C11 1_555 1_555
C13 C12 1_555 1_555
H6 C13 1_555 1_555
C14 C13 1_555 1_555
C15 C14 1_555 1_555
H7 C15 1_555 1_555
C16 C15 1_555 1_555
H8 C16 1_555 1_555
C17 C12 1_555 1_555
C18 C9 1_555 1_555
H9 C18 1_555 1_555
C19 C14 1_555 1_555
O1 C7 1_555 1_555
O2 H10 1_555 1_555
H11 O2 1_555 1_555
O3 C7 1_555 1_555
O4 Ho1 1_555 1_555
H12 O4 1_555 1_555
H13 O4 1_555 1_555
O7 Ho1 1_555 1_555
O8 Ho1 1_555 1_555
Ho5 O3 1_555 1_555
O9 Ho1 1_555 1_555
O10 Ho1 1_555 1_555
O11 Ho1 1_555 1_555
O12 Ho1 1_555 1_555
O13 Ho1 1_555 1_555
C5 C6 1_555 1_555
C16 C17 1_555 1_555
C17 C18 1_555 1_555
C19 O7 1_555 1_555
C19 O8 1_555 1_555
C8 C3 1_555 1_555
O5 C8 1_555 1_555
O6 C8 1_555 1_555
Ho3 O5 1_555 1_555
Ho4 O6 1_555 1_555
O6 Ho3 1_555 1_555
C1_2 C2_2 1_555 1_555
C2_2 H1_2 1_555 1_555
C5_2 C4_2 1_555 1_555
C6_2 C1_2 1_555 1_555
H3_2 C6_2 1_555 1_555
C7_2 C1_2 1_555 1_555
C9_2 C5_2 1_555 1_555
C10_2 C9_2 1_555 1_555
C11_2 C10_2 1_555 1_555
C12_2 C11_2 1_555 1_555
C13_2 C12_2 1_555 1_555
H6_2 C13_2 1_555 1_555
C14_2 C13_2 1_555 1_555
C15_2 C14_2 1_555 1_555
H7_2 C15_2 1_555 1_555
C16_2 C15_2 1_555 1_555
H8_2 C16_2 1_555 1_555
C17_2 C12_2 1_555 1_555
C18_2 C9_2 1_555 1_555
H9_2 C18_2 1_555 1_555
C19_2 C14_2 1_555 1_555
O9 C7_2 1_555 1_555
O3_2 C7_2 1_555 1_555
Ho5_2 O3_2 1_555 1_555
C5_2 C6_2 1_555 1_555
C16_2 C17_2 1_555 1_555
C17_2 C18_2 1_555 1_555
C19_2 O7_2 1_555 1_555
Ho2 O2_2 1_555 1_555
O2_2 H10_2 1_555 1_555
H11_2 O2_2 1_555 1_555
O4_2 Ho2 1_555 1_555
H12_2 O4_2 1_555 1_555
H13_2 O4_2 1_555 1_555
O8_2 Ho2 1_555 1_555
O10_2 Ho2 1_555 1_555
O13_2 Ho2 1_555 1_555
C8_2 C3_2 1_555 1_555
O5_2 C8_2 1_555 1_555
O6_2 C8_2 1_555 1_555
Ho4_2 O6_2 1_555 1_555
C1_3 C2_3 1_555 1_555
C2_3 H1_3 1_555 1_555
C3_3 C2_3 1_555 1_555
C4_3 C3_3 1_555 1_555
H2_3 C4_3 1_555 1_555
C5_3 C4_3 1_555 1_555
C6_3 C1_3 1_555 1_555
H3_3 C6_3 1_555 1_555
C7_3 C1_3 1_555 1_555
C8_3 C3_3 1_555 1_555
C9_3 C5_3 1_555 1_555
C10_3 C9_3 1_555 1_555
H4_3 C10_3 1_555 1_555
C11_3 C10_3 1_555 1_555
H5_3 C11_3 1_555 1_555
C12_3 C11_3 1_555 1_555
H8_3 C16_3 1_555 1_555
C17_3 C12_3 1_555 1_555
C18_3 C9_3 1_555 1_555
H9_3 C18_3 1_555 1_555
O1_2 C7_3 1_555 1_555
O3_3 C7_3 1_555 1_555
O11 C8_3 1_555 1_555
O12 C8_3 1_555 1_555
Ho5_2 O12 1_555 1_555
Ho4_2 O3_3 1_555 1_555
C5_3 C6_3 1_555 1_555
C16_3 C17_3 1_555 1_555
C17_3 C18_3 1_555 1_555
Ho3 O2_3 1_555 1_555
H6_3 C13_3 1_555 1_555
C14_3 C13_3 1_555 1_555
C15_3 C14_3 1_555 1_555
H7_3 C15_3 1_555 1_555
C19_3 C14_3 1_555 1_555
O2_3 H10_3 1_555 1_555
H11_3 O2_3 1_555 1_555
O4_3 Ho3 1_555 1_555
H12_3 O4_3 1_555 1_555
H13_3 O4_3 1_555 1_555
O7_3 Ho3 1_555 1_555
O8_3 Ho3 1_555 1_555
O9_2 Ho3 1_555 1_555
O10_3 Ho3 1_555 1_555
O13_3 Ho3 1_555 1_555
C19_3 O7_3 1_555 1_555
C19_3 O8_3 1_555 1_555
H6_4 C13_4 1_555 1_555
C14_4 C13_4 1_555 1_555
C15_4 C14_4 1_555 1_555
H7_4 C15_4 1_555 1_555
C19_4 C14_4 1_555 1_555
C19_4 O7_4 1_555 1_555
Ho3_2 O2_4 1_555 1_555
O2_4 H10_4 1_555 1_555
H11_4 O2_4 1_555 1_555
O4_4 Ho3_2 1_555 1_555
H12_4 O4_4 1_555 1_555
H13_4 O4_4 1_555 1_555
O8_4 Ho3_2 1_555 1_555
O10_4 Ho3_2 1_555 1_555
O13_4 Ho3_2 1_555 1_555
C1_4 C2_4 1_555 1_555
C2_4 H1_4 1_555 1_555
C3_4 C2_4 1_555 1_555
C4_4 C3_4 1_555 1_555
H2_4 C4_4 1_555 1_555
C5_4 C4_4 1_555 1_555
C6_4 C1_4 1_555 1_555
H3_4 C6_4 1_555 1_555
C7_4 C1_4 1_555 1_555
C8_4 C3_4 1_555 1_555
C9_4 C5_4 1_555 1_555
C10_4 C9_4 1_555 1_555
H4_4 C10_4 1_555 1_555
C11_4 C10_4 1_555 1_555
H5_4 C11_4 1_555 1_555
C12_4 C11_4 1_555 1_555
H8_4 C16_4 1_555 1_555
C17_4 C12_4 1_555 1_555
C18_4 C9_4 1_555 1_555
H9_4 C18_4 1_555 1_555
O9_2 C7_4 1_555 1_555
O3_4 C7_4 1_555 1_555
O11_2 C8_4 1_555 1_555
O12_2 C8_4 1_555 1_555
Ho5 O12_2 1_555 1_555
Ho4 O3_4 1_555 1_555
C5_4 C6_4 1_555 1_555
C16_4 C17_4 1_555 1_555
C17_4 C18_4 1_555 1_555
C8_5 C3_5 1_555 1_555
O5_3 C8_5 1_555 1_555
O13 C8_5 1_555 1_555
Ho5_2 O5_3 1_555 1_555
O13 Ho5_2 1_555 1_555
Ho4 O2_5 1_555 1_555
C1_5 C2_5 1_555 1_555
C2_5 H1_5 1_555 1_555
C5_5 C4_5 1_555 1_555
C6_5 C1_5 1_555 1_555
H3_5 C6_5 1_555 1_555
C7_5 C1_5 1_555 1_555
C9_5 C5_5 1_555 1_555
C10_5 C9_5 1_555 1_555
C11_5 C10_5 1_555 1_555
C12_5 C11_5 1_555 1_555
C13_5 C12_5 1_555 1_555
H6_5 C13_5 1_555 1_555
C14_5 C13_5 1_555 1_555
C15_5 C14_5 1_555 1_555
H7_5 C15_5 1_555 1_555
C16_5 C15_5 1_555 1_555
H8_5 C16_5 1_555 1_555
C17_5 C12_5 1_555 1_555
C18_5 C9_5 1_555 1_555
H9_5 C18_5 1_555 1_555
C19_5 C14_5 1_555 1_555
O1_3 C7_5 1_555 1_555
O2_5 H10_5 1_555 1_555
H11_5 O2_5 1_555 1_555
O10_4 C7_5 1_555 1_555
O4_5 Ho4 1_555 1_555
H12_5 O4_5 1_555 1_555
H13_5 O4_5 1_555 1_555
O7_5 Ho4 1_555 1_555
O8_5 Ho4 1_555 1_555
O9_3 Ho4 1_555 1_555
O11_3 Ho4 1_555 1_555
O13_3 Ho4 1_555 1_555
C5_5 C6_5 1_555 1_555
C16_5 C17_5 1_555 1_555
C17_5 C18_5 1_555 1_555
C19_5 O7_5 1_555 1_555
C19_5 O8_5 1_555 1_555
C8_6 C3_6 1_555 1_555
O5_4 C8_6 1_555 1_555
O13_2 C8_6 1_555 1_555
Ho4_2 O2_6 1_555 1_555
O2_6 H10_6 1_555 1_555
H11_6 O2_6 1_555 1_555
O4_6 Ho4_2 1_555 1_555
H12_6 O4_6 1_555 1_555
H13_6 O4_6 1_555 1_555
O8_6 Ho4_2 1_555 1_555
C1_6 C2_6 1_555 1_555
C2_6 H1_6 1_555 1_555
C5_6 C4_6 1_555 1_555
C6_6 C1_6 1_555 1_555
H3_6 C6_6 1_555 1_555
C7_6 C1_6 1_555 1_555
C9_6 C5_6 1_555 1_555
C10_6 C9_6 1_555 1_555
C11_6 C10_6 1_555 1_555
C12_6 C11_6 1_555 1_555
C13_6 C12_6 1_555 1_555
H6_6 C13_6 1_555 1_555
C14_6 C13_6 1_555 1_555
C15_6 C14_6 1_555 1_555
H7_6 C15_6 1_555 1_555
C16_6 C15_6 1_555 1_555
H8_6 C16_6 1_555 1_555
C17_6 C12_6 1_555 1_555
C18_6 C9_6 1_555 1_555
H9_6 C18_6 1_555 1_555
C19_6 C14_6 1_555 1_555
O9_3 C7_6 1_555 1_555
O10_3 C7_6 1_555 1_555
C5_6 C6_6 1_555 1_555
C16_6 C17_6 1_555 1_555
C17_6 C18_6 1_555 1_555
C19_6 O7_6 1_555 1_555
Ho5_2 O2_7 1_555 1_555
H6_7 C13_7 1_555 1_555
C14_7 C13_7 1_555 1_555
C15_7 C14_7 1_555 1_555
H7_7 C15_7 1_555 1_555
C19_7 C14_7 1_555 1_555
O2_7 H10_7 1_555 1_555
H11_7 O2_7 1_555 1_555
O4_7 Ho5_2 1_555 1_555
H12_7 O4_7 1_555 1_555
H13_7 O4_7 1_555 1_555
O7_7 Ho5_2 1_555 1_555
O8_7 Ho5_2 1_555 1_555
O9_4 Ho5_2 1_555 1_555
C19_7 O7_7 1_555 1_555
C19_7 O8_7 1_555 1_555
C1_7 C2_7 1_555 1_555
C2_7 H1_7 1_555 1_555
C3_7 C2_7 1_555 1_555
C4_7 C3_7 1_555 1_555
H2_7 C4_7 1_555 1_555
C5_7 C4_7 1_555 1_555
C6_7 C1_7 1_555 1_555
H3_7 C6_7 1_555 1_555
C7_7 C1_7 1_555 1_555
C8_7 C3_7 1_555 1_555
C9_7 C5_7 1_555 1_555
C10_7 C9_7 1_555 1_555
H4_7 C10_7 1_555 1_555
C11_7 C10_7 1_555 1_555
H5_7 C11_7 1_555 1_555
C12_7 C11_7 1_555 1_555
H8_7 C16_7 1_555 1_555
C17_7 C12_7 1_555 1_555
C18_7 C9_7 1_555 1_555
H9_7 C18_7 1_555 1_555
O1_4 C7_7 1_555 1_555
O10_2 C7_7 1_555 1_555
O11_3 C8_7 1_555 1_555
O13_3 C8_7 1_555 1_555
C5_7 C6_7 1_555 1_555
C16_7 C17_7 1_555 1_555
C17_7 C18_7 1_555 1_555
C1_8 C2_8 1_555 1_555
C2_8 H1_8 1_555 1_555
C3_8 C2_8 1_555 1_555
C4_8 C3_8 1_555 1_555
H2_8 C4_8 1_555 1_555
C5_8 C4_8 1_555 1_555
C6_8 C1_8 1_555 1_555
H3_8 C6_8 1_555 1_555
C7_8 C1_8 1_555 1_555
C8_8 C3_8 1_555 1_555
C9_8 C5_8 1_555 1_555
C10_8 C9_8 1_555 1_555
H4_8 C10_8 1_555 1_555
C11_8 C10_8 1_555 1_555
H5_8 C11_8 1_555 1_555
C12_8 C11_8 1_555 1_555
H8_8 C16_8 1_555 1_555
C17_8 C12_8 1_555 1_555
C18_8 C9_8 1_555 1_555
H9_8 C18_8 1_555 1_555
O9_4 C7_8 1_555 1_555
O10 C7_8 1_555 1_555
O11_4 C8_8 1_555 1_555
O13_4 C8_8 1_555 1_555
C5_8 C6_8 1_555 1_555
C16_8 C17_8 1_555 1_555
C17_8 C18_8 1_555 1_555
Ho5 O2_8 1_555 1_555
O2_8 H10_8 1_555 1_555
H11_8 O2_8 1_555 1_555
O4_8 Ho5 1_555 1_555
H12_8 O4_8 1_555 1_555
H13_8 O4_8 1_555 1_555
O8_8 Ho5 1_555 1_555
H6_8 C13_8 1_555 1_555
C14_8 C13_8 1_555 1_555
C15_8 C14_8 1_555 1_555
H7_8 C15_8 1_555 1_555
C19_8 C14_8 1_555 1_555
C19_8 O7_8 1_555 1_555

#END
