
###############################################################################
#
# This file contains modified crystal structure data generated from the
# MOF subset of the Cambridge Structural Database (CSD) v543 
# hosted by the Cambridge Crystallographic Data Centre (CCDC).
#
# This work is licensed under the Creative Commons
# Attribution-NonCommercial-ShareAlike 4.0 International License.
# To view a copy of this license, visit
# http://creativecommons.org/licenses/by-nc-sa/4.0/
# or send a letter to
# Creative Commons, PO Box 1866, Mountain View, CA 94042, USA.
#
# CIF created using the CSD Python API on 29 September 2022
# The structure has been converted into the P1 space group
# The structure has a 3D framework
# The original CSD entry NAJZII is in the cubic crystal system
# The framework has been calculated to contain at least 10.0% void space
# The void calculation uses a probe of radius 1.32A, grid spacing 0.4
# The framework is charged, counterions have been retained in the structure
# H atom positions have been added when not included in the experimental data
# Generated hydrogen atom positions removed from atoms on special positions
#
###############################################################################

data_NAJZII
_chemical_formula_moiety         '(C216 H600 N48 Ni6 O212 P24 Zn37 76+)n'
_symmetry_cell_setting           triclinic
_symmetry_space_group_name_H-M   'P 1'
_symmetry_Int_Tables_number      1
_space_group_name_Hall           'P 1'
loop_
_symmetry_equiv_pos_site_id
_symmetry_equiv_pos_as_xyz
1 x,y,z
_cell_length_a                   22.5920(11)
_cell_length_b                   22.5920(11)
_cell_length_c                   22.5920(11)
_cell_angle_alpha                90
_cell_angle_beta                 90
_cell_angle_gamma                90
_cell_volume                     11530.9
loop_
_atom_site_label
_atom_site_type_symbol
_atom_site_fract_x
_atom_site_fract_y
_atom_site_fract_z
Zn1 Zn -0.0000 0.5000 0.0000
P1 P 0.02232(9) 0.54245(9) 0.13627(8)
C3 C 0.0172(3) 0.5070(3) 0.2074(3)
H3 H 0.0480 0.4772 0.2107
H4 H 0.0234 0.5361 0.2383
Zn4 Zn 0.13408(4) 0.57483(4) 0.05762(4)
N3 N 0.2154(3) 0.5419(3) 0.0215(3)
C6 C 0.2578(4) 0.5398(4) 0.0710(4)
H9 H 0.2976 0.5456 0.0559
H14 H 0.2562 0.5010 0.0894
C11 C 0.2445(4) 0.5871(3) 0.1176(4)
H21 H 0.2107 0.4520 0.0228
H22 H 0.0228 0.2893 0.0480
C24 C 0.0226(4) 0.7356(4) 0.0856(4)
H32 H 0.0399 0.7721 0.0724
H37 H 0.0036 0.7417 0.1231
H42 H 0.0530 0.7061 0.0897
O7 O 0.1963(2) 0.6127(2) 0.1149(2)
O12 O 0.2832(3) 0.5941(3) 0.1567(3)
O17 O 0.0884(2) 0.5514(2) 0.1271(2)
O22 O 0.0998(2) 0.6390(2) 0.0115(2)
O26 O 0.0935(2) 0.5051(2) 0.0027(2)
Zn1_2 Zn -0.0000 0.5000 1.0000
Zn3 Zn 0.05762(4) 0.36592(4) 0.92517(4)
Zn7 Zn 0.07483(4) 0.55762(4) 0.86592(4)
P3 P 0.13627(8) 0.47768(9) 0.95755(9)
P6 P 0.04245(9) 0.63627(8) 0.97768(9)
N2 N 0.0215(3) 0.2846(3) 0.9581(3)
N6 N 0.0419(3) 0.5215(3) 0.7846(3)
C5 C 0.0710(4) 0.2422(4) 0.9602(4)
C9 C 0.0398(4) 0.5710(4) 0.7422(4)
H8 H 0.0559 0.2024 0.9544
H12 H 0.0456 0.5559 0.7024
H13 H 0.0894 0.2438 0.9990
H17 H 0.0010 0.5894 0.7438
C10 C 0.1176(4) 0.2555(4) 0.9129(3)
C14 C 0.0871(3) 0.6176(4) 0.7555(4)
C16 C 0.2074(3) 0.4828(3) 0.9930(3)
C19 C 0.0070(3) 0.7074(3) 0.9828(3)
H23 H 0.0361 0.7383 0.9766
H26 H 0.2383 0.4766 0.9639
C21 C 0.2356(4) 0.5856(4) 0.9774(4)
C23 C 0.0856(4) 0.4774(4) 0.7644(4)
H29 H 0.2721 0.5724 0.9601
H31 H 0.0724 0.4601 0.7279
H34 H 0.2417 0.6231 0.9964
H36 H 0.1231 0.4964 0.7583
H39 H 0.2061 0.5897 0.9470
H41 H 0.0897 0.4470 0.7939
O6 O 0.1149(2) 0.3037(2) 0.8873(2)
O10 O 0.1127(2) 0.6149(2) 0.8037(2)
O11 O 0.1567(3) 0.2168(3) 0.9059(3)
O14 O 0.0941(3) 0.6567(3) 0.7168(3)
O16 O 0.1271(2) 0.4116(2) 0.9486(2)
O20 O 0.0514(2) 0.6271(2) 0.9116(2)
O24 O 0.1390(2) 0.5115(2) 0.9002(2)
O25 O 0.0115(2) 0.4002(2) 0.8610(2)
O28 O 0.0027(2) 0.4065(2) 0.9949(2)
O30 O 0.0051(2) 0.5027(2) 0.9065(2)
Zn1_3 Zn 1.0000 0.5000 0.0000
Zn2 Zn 0.92517(4) 0.44238(4) 0.13408(4)
N1 N 0.9581(3) 0.4785(3) 0.2154(3)
C1 C 0.9602(4) 0.4290(4) 0.2578(4)
H1 H 0.9544 0.4441 0.2976
H2 H 0.9990 0.4106 0.2562
C2 C 0.9129(3) 0.3824(4) 0.2445(4)
C4 C 0.9144(4) 0.5226(4) 0.2356(4)
H5 H 0.9276 0.5399 0.2721
H6 H 0.8769 0.5036 0.2417
H7 H 0.9103 0.5530 0.2061
O1 O 0.8873(2) 0.3851(2) 0.1963(2)
O2 O 0.9059(3) 0.3433(3) 0.2832(3)
O3 O 0.9486(2) 0.3729(2) 0.0884(2)
O4 O 0.8610(2) 0.4885(2) 0.0998(2)
O5 O 0.9949(2) 0.4973(2) 0.0935(2)
Zn5 Zn 0.94238(4) 0.63408(4) 0.07483(4)
P2 P 0.95755(9) 0.36373(8) 0.02232(9)
P4 P 0.86373(8) 0.52232(9) 0.04245(9)
N4 N 0.9785(3) 0.7154(3) 0.0419(3)
C7 C 0.9290(4) 0.7578(4) 0.0398(4)
H10 H 0.9441 0.7976 0.0456
H15 H 0.9106 0.7562 0.0010
C12 C 0.8824(4) 0.7445(4) 0.0871(3)
C15 C 0.9930(3) 0.2926(3) 0.0172(3)
C17 C 0.7926(3) 0.5172(3) 0.0070(3)
H25 H 0.7617 0.5234 0.0361
H27 H 0.9639 0.2617 0.0234
C22 C 0.7644(4) 0.4144(4) 0.0226(4)
H30 H 0.7279 0.4276 0.0399
H35 H 0.7583 0.3769 0.0036
H40 H 0.7939 0.4103 0.0530
O8 O 0.8851(2) 0.6963(2) 0.1127(2)
O15 O 0.8433(3) 0.7832(3) 0.0941(3)
O18 O 0.8729(2) 0.5884(2) 0.0514(2)
O21 O 0.9885(2) 0.5998(2) 0.1390(2)
O29 O 0.9973(2) 0.5935(2) 0.0051(2)
Zn1_4 Zn 1.0000 0.5000 1.0000
Zn6 Zn 0.86592(4) 0.42517(4) 0.94238(4)
P5 P 0.97768(9) 0.45755(9) 0.86373(8)
N5 N 0.7846(3) 0.4581(3) 0.9785(3)
C8 C 0.7422(4) 0.4602(4) 0.9290(4)
H11 H 0.7024 0.4544 0.9441
H16 H 0.7438 0.4990 0.9106
C13 C 0.7555(4) 0.4129(3) 0.8824(4)
C18 C 0.9828(3) 0.4930(3) 0.7926(3)
H18 H 0.9772 0.7107 0.9520
H19 H 0.9520 0.5228 0.7893
H20 H 0.7893 0.5480 0.9772
H24 H 0.9766 0.4639 0.7617
C20 C 0.9774(4) 0.2644(4) 0.9144(4)
H28 H 0.9601 0.2279 0.9276
H33 H 0.9964 0.2583 0.8769
H38 H 0.9470 0.2939 0.9103
O9 O 0.8037(2) 0.3873(2) 0.8851(2)
O13 O 0.7168(3) 0.4059(3) 0.8433(3)
O19 O 0.9116(2) 0.4486(2) 0.8729(2)
O23 O 0.9002(2) 0.3610(2) 0.9885(2)
O27 O 0.9065(2) 0.4949(2) 0.9973(2)
Zn1_5 Zn -0.0000 -0.0000 0.5000
P1_2 P 0.13627(8) 0.02232(9) 0.54245(9)
C3_2 C 0.2074(3) 0.0172(3) 0.5070(3)
H3_2 H 0.2107 0.0480 0.4772
H4_2 H 0.2383 0.0234 0.5361
Zn4_2 Zn 0.05762(4) 0.13408(4) 0.57483(4)
N3_2 N 0.0215(3) 0.2154(3) 0.5419(3)
C6_2 C 0.0710(4) 0.2578(4) 0.5398(4)
H9_2 H 0.0559 0.2976 0.5456
H14_2 H 0.0894 0.2562 0.5010
C11_2 C 0.1176(4) 0.2445(4) 0.5871(3)
H21_2 H 0.0228 0.2107 0.4520
H22_2 H 0.0480 0.0228 0.2893
C24_2 C 0.0856(4) 0.0226(4) 0.7356(4)
H32_2 H 0.0724 0.0399 0.7721
H37_2 H 0.1231 0.0036 0.7417
H42_2 H 0.0897 0.0530 0.7061
O7_2 O 0.1149(2) 0.1963(2) 0.6127(2)
O12_2 O 0.1567(3) 0.2832(3) 0.5941(3)
O17_2 O 0.1271(2) 0.0884(2) 0.5514(2)
O22_2 O 0.0115(2) 0.0998(2) 0.6390(2)
O26_2 O 0.0027(2) 0.0935(2) 0.5051(2)
Zn1_6 Zn -0.0000 1.0000 0.5000
Zn2_2 Zn 0.13408(4) 0.92517(4) 0.44238(4)
N1_2 N 0.2154(3) 0.9581(3) 0.4785(3)
C1_2 C 0.2578(4) 0.9602(4) 0.4290(4)
H1_2 H 0.2976 0.9544 0.4441
H2_2 H 0.2562 0.9990 0.4106
C2_2 C 0.2445(4) 0.9129(3) 0.3824(4)
C4_2 C 0.2356(4) 0.9144(4) 0.5226(4)
H5_2 H 0.2721 0.9276 0.5399
H6_2 H 0.2417 0.8769 0.5036
H7_2 H 0.2061 0.9103 0.5530
O1_2 O 0.1963(2) 0.8873(2) 0.3851(2)
O2_2 O 0.2832(3) 0.9059(3) 0.3433(3)
O3_2 O 0.0884(2) 0.9486(2) 0.3729(2)
O4_2 O 0.0998(2) 0.8610(2) 0.4885(2)
O5_2 O 0.0935(2) 0.9949(2) 0.4973(2)
Zn5_2 Zn 0.07483(4) 0.94238(4) 0.63408(4)
P2_2 P 0.02232(9) 0.95755(9) 0.36373(8)
P4_2 P 0.04245(9) 0.86373(8) 0.52232(9)
N4_2 N 0.0419(3) 0.9785(3) 0.7154(3)
C7_2 C 0.0398(4) 0.9290(4) 0.7578(4)
H10_2 H 0.0456 0.9441 0.7976
H15_2 H 0.0010 0.9106 0.7562
C12_2 C 0.0871(3) 0.8824(4) 0.7445(4)
C15_2 C 0.0172(3) 0.9930(3) 0.2926(3)
C17_2 C 0.0070(3) 0.7926(3) 0.5172(3)
H25_2 H 0.0361 0.7617 0.5234
H27_2 H 0.0234 0.9639 0.2617
C22_2 C 0.0226(4) 0.7644(4) 0.4144(4)
H30_2 H 0.0399 0.7279 0.4276
H35_2 H 0.0036 0.7583 0.3769
H40_2 H 0.0530 0.7939 0.4103
O8_2 O 0.1127(2) 0.8851(2) 0.6963(2)
O15_2 O 0.0941(3) 0.8433(3) 0.7832(3)
O18_2 O 0.0514(2) 0.8729(2) 0.5884(2)
O21_2 O 0.1390(2) 0.9885(2) 0.5998(2)
O29_2 O 0.0051(2) 0.9973(2) 0.5935(2)
Zn1_7 Zn 1.0000 -0.0000 0.5000
Zn3_2 Zn 0.92517(4) 0.05762(4) 0.36592(4)
Zn7_2 Zn 0.86592(4) 0.07483(4) 0.55762(4)
P3_2 P 0.95755(9) 0.13627(8) 0.47768(9)
P6_2 P 0.97768(9) 0.04245(9) 0.63627(8)
N2_2 N 0.9581(3) 0.0215(3) 0.2846(3)
N6_2 N 0.7846(3) 0.0419(3) 0.5215(3)
C5_2 C 0.9602(4) 0.0710(4) 0.2422(4)
C9_2 C 0.7422(4) 0.0398(4) 0.5710(4)
H8_2 H 0.9544 0.0559 0.2024
H12_2 H 0.7024 0.0456 0.5559
H13_2 H 0.9990 0.0894 0.2438
H17_2 H 0.7438 0.0010 0.5894
C10_2 C 0.9129(3) 0.1176(4) 0.2555(4)
C14_2 C 0.7555(4) 0.0871(3) 0.6176(4)
C16_2 C 0.9930(3) 0.2074(3) 0.4828(3)
C19_2 C 0.9828(3) 0.0070(3) 0.7074(3)
H23_2 H 0.9766 0.0361 0.7383
H26_2 H 0.9639 0.2383 0.4766
C21_2 C 0.9774(4) 0.2356(4) 0.5856(4)
C23_2 C 0.7644(4) 0.0856(4) 0.4774(4)
H29_2 H 0.9601 0.2721 0.5724
H31_2 H 0.7279 0.0724 0.4601
H34_2 H 0.9964 0.2417 0.6231
H36_2 H 0.7583 0.1231 0.4964
H39_2 H 0.9470 0.2061 0.5897
H41_2 H 0.7939 0.0897 0.4470
O6_2 O 0.8873(2) 0.1149(2) 0.3037(2)
O10_2 O 0.8037(2) 0.1127(2) 0.6149(2)
O11_2 O 0.9059(3) 0.1567(3) 0.2168(3)
O14_2 O 0.7168(3) 0.0941(3) 0.6567(3)
O16_2 O 0.9486(2) 0.1271(2) 0.4116(2)
O20_2 O 0.9116(2) 0.0514(2) 0.6271(2)
O24_2 O 0.9002(2) 0.1390(2) 0.5115(2)
O25_2 O 0.8610(2) 0.0115(2) 0.4002(2)
O28_2 O 0.9949(2) 0.0027(2) 0.4065(2)
O30_2 O 0.9065(2) 0.0051(2) 0.5027(2)
Zn1_8 Zn 1.0000 1.0000 0.5000
Zn6_2 Zn 0.94238(4) 0.86592(4) 0.42517(4)
P5_2 P 0.86373(8) 0.97768(9) 0.45755(9)
N5_2 N 0.9785(3) 0.7846(3) 0.4581(3)
C8_2 C 0.9290(4) 0.7422(4) 0.4602(4)
H11_2 H 0.9441 0.7024 0.4544
H16_2 H 0.9106 0.7438 0.4990
C13_2 C 0.8824(4) 0.7555(4) 0.4129(3)
C18_2 C 0.7926(3) 0.9828(3) 0.4930(3)
H18_2 H 0.9520 0.9772 0.7107
H19_2 H 0.7893 0.9520 0.5228
H20_2 H 0.9772 0.7893 0.5480
H24_2 H 0.7617 0.9766 0.4639
C20_2 C 0.9144(4) 0.9774(4) 0.2644(4)
H28_2 H 0.9276 0.9601 0.2279
H33_2 H 0.8769 0.9964 0.2583
H38_2 H 0.9103 0.9470 0.2939
O9_2 O 0.8851(2) 0.8037(2) 0.3873(2)
O13_2 O 0.8433(3) 0.7168(3) 0.4059(3)
O19_2 O 0.8729(2) 0.9116(2) 0.4486(2)
O23_2 O 0.9885(2) 0.9002(2) 0.3610(2)
O27_2 O 0.9973(2) 0.9065(2) 0.4949(2)
Zn1_9 Zn 0.5000 0.0000 -0.0000
P1_3 P 0.54245(9) 0.13627(8) 0.02232(9)
C3_3 C 0.5070(3) 0.2074(3) 0.0172(3)
H3_3 H 0.4772 0.2107 0.0480
H4_3 H 0.5361 0.2383 0.0234
Zn4_3 Zn 0.57483(4) 0.05762(4) 0.13408(4)
N3_3 N 0.5419(3) 0.0215(3) 0.2154(3)
C6_3 C 0.5398(4) 0.0710(4) 0.2578(4)
H9_3 H 0.5456 0.0559 0.2976
H14_3 H 0.5010 0.0894 0.2562
C11_3 C 0.5871(3) 0.1176(4) 0.2445(4)
H21_3 H 0.4520 0.0228 0.2107
H22_3 H 0.2893 0.0480 0.0228
C24_3 C 0.7356(4) 0.0856(4) 0.0226(4)
H32_3 H 0.7721 0.0724 0.0399
H37_3 H 0.7417 0.1231 0.0036
H42_3 H 0.7061 0.0897 0.0530
O7_3 O 0.6127(2) 0.1149(2) 0.1963(2)
O12_3 O 0.5941(3) 0.1567(3) 0.2832(3)
O17_3 O 0.5514(2) 0.1271(2) 0.0884(2)
O22_3 O 0.6390(2) 0.0115(2) 0.0998(2)
O26_3 O 0.5051(2) 0.0027(2) 0.0935(2)
Zn1_10 Zn 0.5000 -0.0000 1.0000
Zn2_3 Zn 0.44238(4) 0.13408(4) 0.92517(4)
N1_3 N 0.4785(3) 0.2154(3) 0.9581(3)
C1_3 C 0.4290(4) 0.2578(4) 0.9602(4)
H1_3 H 0.4441 0.2976 0.9544
H2_3 H 0.4106 0.2562 0.9990
C2_3 C 0.3824(4) 0.2445(4) 0.9129(3)
C4_3 C 0.5226(4) 0.2356(4) 0.9144(4)
H5_3 H 0.5399 0.2721 0.9276
H6_3 H 0.5036 0.2417 0.8769
H7_3 H 0.5530 0.2061 0.9103
O1_3 O 0.3851(2) 0.1963(2) 0.8873(2)
O2_3 O 0.3433(3) 0.2832(3) 0.9059(3)
O3_3 O 0.3729(2) 0.0884(2) 0.9486(2)
O4_3 O 0.4885(2) 0.0998(2) 0.8610(2)
O5_3 O 0.4973(2) 0.0935(2) 0.9949(2)
Zn5_3 Zn 0.63408(4) 0.07483(4) 0.94238(4)
P2_3 P 0.36373(8) 0.02232(9) 0.95755(9)
P4_3 P 0.52232(9) 0.04245(9) 0.86373(8)
N4_3 N 0.7154(3) 0.0419(3) 0.9785(3)
C7_3 C 0.7578(4) 0.0398(4) 0.9290(4)
H10_3 H 0.7976 0.0456 0.9441
H15_3 H 0.7562 0.0010 0.9106
C12_3 C 0.7445(4) 0.0871(3) 0.8824(4)
C15_3 C 0.2926(3) 0.0172(3) 0.9930(3)
C17_3 C 0.5172(3) 0.0070(3) 0.7926(3)
H25_3 H 0.5234 0.0361 0.7617
H27_3 H 0.2617 0.0234 0.9639
C22_3 C 0.4144(4) 0.0226(4) 0.7644(4)
H30_3 H 0.4276 0.0399 0.7279
H35_3 H 0.3769 0.0036 0.7583
H40_3 H 0.4103 0.0530 0.7939
O8_3 O 0.6963(2) 0.1127(2) 0.8851(2)
O15_3 O 0.7832(3) 0.0941(3) 0.8433(3)
O18_3 O 0.5884(2) 0.0514(2) 0.8729(2)
O21_3 O 0.5998(2) 0.1390(2) 0.9885(2)
O29_3 O 0.5935(2) 0.0051(2) 0.9973(2)
Zn1_11 Zn 0.5000 1.0000 -0.0000
Zn3_3 Zn 0.36592(4) 0.92517(4) 0.05762(4)
Zn7_3 Zn 0.55762(4) 0.86592(4) 0.07483(4)
P3_3 P 0.47768(9) 0.95755(9) 0.13627(8)
P6_3 P 0.63627(8) 0.97768(9) 0.04245(9)
N2_3 N 0.2846(3) 0.9581(3) 0.0215(3)
N6_3 N 0.5215(3) 0.7846(3) 0.0419(3)
C5_3 C 0.2422(4) 0.9602(4) 0.0710(4)
C9_3 C 0.5710(4) 0.7422(4) 0.0398(4)
H8_3 H 0.2024 0.9544 0.0559
H12_3 H 0.5559 0.7024 0.0456
H13_3 H 0.2438 0.9990 0.0894
H17_3 H 0.5894 0.7438 0.0010
C10_3 C 0.2555(4) 0.9129(3) 0.1176(4)
C14_3 C 0.6176(4) 0.7555(4) 0.0871(3)
C16_3 C 0.4828(3) 0.9930(3) 0.2074(3)
C19_3 C 0.7074(3) 0.9828(3) 0.0070(3)
H23_3 H 0.7383 0.9766 0.0361
H26_3 H 0.4766 0.9639 0.2383
C21_3 C 0.5856(4) 0.9774(4) 0.2356(4)
C23_3 C 0.4774(4) 0.7644(4) 0.0856(4)
H29_3 H 0.5724 0.9601 0.2721
H31_3 H 0.4601 0.7279 0.0724
H34_3 H 0.6231 0.9964 0.2417
H36_3 H 0.4964 0.7583 0.1231
H39_3 H 0.5897 0.9470 0.2061
H41_3 H 0.4470 0.7939 0.0897
O6_3 O 0.3037(2) 0.8873(2) 0.1149(2)
O10_3 O 0.6149(2) 0.8037(2) 0.1127(2)
O11_3 O 0.2168(3) 0.9059(3) 0.1567(3)
O14_3 O 0.6567(3) 0.7168(3) 0.0941(3)
O16_3 O 0.4116(2) 0.9486(2) 0.1271(2)
O20_3 O 0.6271(2) 0.9116(2) 0.0514(2)
O24_3 O 0.5115(2) 0.9002(2) 0.1390(2)
O25_3 O 0.4002(2) 0.8610(2) 0.0115(2)
O28_3 O 0.4065(2) 0.9949(2) 0.0027(2)
O30_3 O 0.5027(2) 0.9065(2) 0.0051(2)
Zn1_12 Zn 0.5000 1.0000 1.0000
Zn6_3 Zn 0.42517(4) 0.94238(4) 0.86592(4)
P5_3 P 0.45755(9) 0.86373(8) 0.97768(9)
N5_3 N 0.4581(3) 0.9785(3) 0.7846(3)
C8_3 C 0.4602(4) 0.9290(4) 0.7422(4)
H11_3 H 0.4544 0.9441 0.7024
H16_3 H 0.4990 0.9106 0.7438
C13_3 C 0.4129(3) 0.8824(4) 0.7555(4)
C18_3 C 0.4930(3) 0.7926(3) 0.9828(3)
H18_3 H 0.7107 0.9520 0.9772
H19_3 H 0.5228 0.7893 0.9520
H20_3 H 0.5480 0.9772 0.7893
H24_3 H 0.4639 0.7617 0.9766
C20_3 C 0.2644(4) 0.9144(4) 0.9774(4)
H28_3 H 0.2279 0.9276 0.9601
H33_3 H 0.2583 0.8769 0.9964
H38_3 H 0.2939 0.9103 0.9470
O9_3 O 0.3873(2) 0.8851(2) 0.8037(2)
O13_3 O 0.4059(3) 0.8433(3) 0.7168(3)
O19_3 O 0.4486(2) 0.8729(2) 0.9116(2)
O23_3 O 0.3610(2) 0.9885(2) 0.9002(2)
O27_3 O 0.4949(2) 0.9973(2) 0.9065(2)
Zn1_13 Zn 0.5000 0.5000 0.5000
Zn2_4 Zn 0.57483(4) 0.44238(4) 0.36592(4)
P1_4 P 0.47768(9) 0.54245(9) 0.36373(8)
N1_4 N 0.5419(3) 0.4785(3) 0.2846(3)
C1_4 C 0.5398(4) 0.4290(4) 0.2422(4)
H1_4 H 0.5456 0.4441 0.2024
H2_4 H 0.5010 0.4106 0.2438
C2_4 C 0.5871(3) 0.3824(4) 0.2555(4)
C3_4 C 0.4828(3) 0.5070(3) 0.2926(3)
H3_4 H 0.4520 0.4772 0.2893
H4_4 H 0.4766 0.5361 0.2617
C4_4 C 0.5856(4) 0.5226(4) 0.2644(4)
H5_4 H 0.5724 0.5399 0.2279
H6_4 H 0.6231 0.5036 0.2583
H7_4 H 0.5897 0.5530 0.2939
O1_4 O 0.6127(2) 0.3851(2) 0.3037(2)
O2_4 O 0.5941(3) 0.3433(3) 0.2168(3)
O3_4 O 0.5514(2) 0.3729(2) 0.4116(2)
O4_4 O 0.6390(2) 0.4885(2) 0.4002(2)
O5_4 O 0.5051(2) 0.4973(2) 0.4065(2)
Zn3_4 Zn 0.44238(4) 0.36592(4) 0.57483(4)
Zn4_4 Zn 0.36592(4) 0.57483(4) 0.44238(4)
Zn5_4 Zn 0.55762(4) 0.63408(4) 0.42517(4)
Zn6_4 Zn 0.63408(4) 0.42517(4) 0.55762(4)
Zn7_4 Zn 0.42517(4) 0.55762(4) 0.63408(4)
P2_4 P 0.54245(9) 0.36373(8) 0.47768(9)
P3_4 P 0.36373(8) 0.47768(9) 0.54245(9)
P4_4 P 0.63627(8) 0.52232(9) 0.45755(9)
P5_4 P 0.52232(9) 0.45755(9) 0.63627(8)
P6_4 P 0.45755(9) 0.63627(8) 0.52232(9)
N2_4 N 0.4785(3) 0.2846(3) 0.5419(3)
N3_4 N 0.2846(3) 0.5419(3) 0.4785(3)
N4_4 N 0.5215(3) 0.7154(3) 0.4581(3)
N5_4 N 0.7154(3) 0.4581(3) 0.5215(3)
N6_4 N 0.4581(3) 0.5215(3) 0.7154(3)
C5_4 C 0.4290(4) 0.2422(4) 0.5398(4)
C6_4 C 0.2422(4) 0.5398(4) 0.4290(4)
C7_4 C 0.5710(4) 0.7578(4) 0.4602(4)
C8_4 C 0.7578(4) 0.4602(4) 0.5710(4)
C9_4 C 0.4602(4) 0.5710(4) 0.7578(4)
H8_4 H 0.4441 0.2024 0.5456
H9_4 H 0.2024 0.5456 0.4441
H10_4 H 0.5559 0.7976 0.4544
H11_4 H 0.7976 0.4544 0.5559
H12_4 H 0.4544 0.5559 0.7976
H13_4 H 0.4106 0.2438 0.5010
H14_4 H 0.2438 0.5010 0.4106
H15_4 H 0.5894 0.7562 0.4990
H16_4 H 0.7562 0.4990 0.5894
H17_4 H 0.4990 0.5894 0.7562
C10_4 C 0.3824(4) 0.2555(4) 0.5871(3)
C11_4 C 0.2555(4) 0.5871(3) 0.3824(4)
C12_4 C 0.6176(4) 0.7445(4) 0.4129(3)
C13_4 C 0.7445(4) 0.4129(3) 0.6176(4)
C14_4 C 0.4129(3) 0.6176(4) 0.7445(4)
C15_4 C 0.5070(3) 0.2926(3) 0.4828(3)
C16_4 C 0.2926(3) 0.4828(3) 0.5070(3)
C17_4 C 0.7074(3) 0.5172(3) 0.4930(3)
C18_4 C 0.5172(3) 0.4930(3) 0.7074(3)
C19_4 C 0.4930(3) 0.7074(3) 0.5172(3)
H18_4 H 0.5228 0.7107 0.5480
H19_4 H 0.5480 0.5228 0.7107
H20_4 H 0.7107 0.5480 0.5228
H21_4 H 0.2893 0.4520 0.4772
H22_4 H 0.4772 0.2893 0.4520
H23_4 H 0.4639 0.7383 0.5234
H24_4 H 0.5234 0.4639 0.7383
H25_4 H 0.7383 0.5234 0.4639
H26_4 H 0.2617 0.4766 0.5361
H27_4 H 0.5361 0.2617 0.4766
C20_4 C 0.5226(4) 0.2644(4) 0.5856(4)
C21_4 C 0.2644(4) 0.5856(4) 0.5226(4)
C22_4 C 0.7356(4) 0.4144(4) 0.4774(4)
C23_4 C 0.4144(4) 0.4774(4) 0.7356(4)
C24_4 C 0.4774(4) 0.7356(4) 0.4144(4)
H28_4 H 0.5399 0.2279 0.5724
H29_4 H 0.2279 0.5724 0.5399
H30_4 H 0.7721 0.4276 0.4601
H31_4 H 0.4276 0.4601 0.7721
H32_4 H 0.4601 0.7721 0.4276
H33_4 H 0.5036 0.2583 0.6231
H34_4 H 0.2583 0.6231 0.5036
H35_4 H 0.7417 0.3769 0.4964
H36_4 H 0.3769 0.4964 0.7417
H37_4 H 0.4964 0.7417 0.3769
H38_4 H 0.5530 0.2939 0.5897
H39_4 H 0.2939 0.5897 0.5530
H40_4 H 0.7061 0.4103 0.4470
H41_4 H 0.4103 0.4470 0.7061
H42_4 H 0.4470 0.7061 0.4103
O6_4 O 0.3851(2) 0.3037(2) 0.6127(2)
O7_4 O 0.3037(2) 0.6127(2) 0.3851(2)
O8_4 O 0.6149(2) 0.6963(2) 0.3873(2)
O9_4 O 0.6963(2) 0.3873(2) 0.6149(2)
O10_4 O 0.3873(2) 0.6149(2) 0.6963(2)
O11_4 O 0.3433(3) 0.2168(3) 0.5941(3)
O12_4 O 0.2168(3) 0.5941(3) 0.3433(3)
O13_4 O 0.7832(3) 0.4059(3) 0.6567(3)
O14_4 O 0.4059(3) 0.6567(3) 0.7832(3)
O15_4 O 0.6567(3) 0.7832(3) 0.4059(3)
O16_4 O 0.3729(2) 0.4116(2) 0.5514(2)
O17_4 O 0.4116(2) 0.5514(2) 0.3729(2)
O18_4 O 0.6271(2) 0.5884(2) 0.4486(2)
O19_4 O 0.5884(2) 0.4486(2) 0.6271(2)
O20_4 O 0.4486(2) 0.6271(2) 0.5884(2)
O21_4 O 0.5115(2) 0.5998(2) 0.3610(2)
O22_4 O 0.4002(2) 0.6390(2) 0.4885(2)
O23_4 O 0.5998(2) 0.3610(2) 0.5115(2)
O24_4 O 0.3610(2) 0.5115(2) 0.5998(2)
O25_4 O 0.4885(2) 0.4002(2) 0.6390(2)
O26_4 O 0.4065(2) 0.5051(2) 0.4973(2)
O27_4 O 0.5935(2) 0.4949(2) 0.5027(2)
O28_4 O 0.4973(2) 0.4065(2) 0.5051(2)
O29_4 O 0.5027(2) 0.5935(2) 0.4949(2)
O30_4 O 0.4949(2) 0.5027(2) 0.5935(2)
Ni1 Ni 0.7500 0.2500 0.2500
N7 N 0.7500 0.3446(3) 0.2500
N8 N 0.7500 0.2500 0.1565(3)
C25 C 0.7704(3) 0.3758(3) 0.2959(3)
H43 H 0.7853 0.3553 0.3283
C26 C 0.7704(4) 0.4360(3) 0.2976(3)
H44 H 0.7842 0.4557 0.3311
C27 C 0.7500 0.4677(4) 0.2500
C28 C 0.7500 0.5332 0.2500(4)
C29 C 0.7284(3) 0.5653(3) 0.2977(3)
H45 H 0.7138 0.5456 0.3308
C30 C 0.7963(3) 0.2715(3) 0.1257(3)
H46 H 0.8285 0.2868 0.1463
O31 O 0.8412(3) 0.2500 0.2500
Ni2 Ni 0.7500 0.7500 0.2500
N10 N 0.7500 0.1554(3) 0.2500
N11 N 0.7500 0.6565(3) 0.2500
N12 N 0.7500 0.2500 0.3435(3)
C31 C 0.7296(3) 0.3758(3) 0.2041(3)
H47 H 0.7147 0.3553 0.1717
C34 C 0.7296(4) 0.4360(3) 0.2024(3)
H50 H 0.7158 0.4557 0.1689
C38 C 0.7500(4) 0.2500 0.0332
C39 C 0.7977(3) 0.2716(3) 0.0653(3)
C40 C 0.7023(3) 0.2284(3) 0.0653(3)
C41 C 0.7716(3) 0.5653(3) 0.2023(3)
H53 H 0.8308 0.2862 0.0456
H54 H 0.6692 0.2138 0.0456
H55 H 0.7862 0.5456 0.1692
C42 C 0.7285(3) 0.6257(3) 0.2963(3)
C43 C 0.7037(3) 0.2285(3) 0.1257(3)
C44 C 0.7715(3) 0.6257(3) 0.2037(3)
H56 H 0.6715 0.2132 0.1463
H57 H 0.7868 0.6463 0.1715
H58 H 0.7132 0.6463 0.3285
O32 O 0.6588(3) 0.2500 0.2500
Ni3 Ni 0.7500 0.2500 0.7500
N9 N 0.7500 0.2500 0.8446(3)
C32 C 0.7959(3) 0.2296(3) 0.8758(3)
C33 C 0.7041(3) 0.2704(3) 0.8758(3)
H48 H 0.8283 0.2147 0.8553
H49 H 0.6717 0.2853 0.8553
C35 C 0.7976(3) 0.2296(4) 0.9360(3)
C36 C 0.7024(3) 0.2704(4) 0.9360(3)
H51 H 0.8311 0.2158 0.9557
H52 H 0.6689 0.2842 0.9557
C37 C 0.7500 0.2500 0.9677(4)
Ni1_2 Ni 0.2500 0.7500 0.2500
N7_2 N 0.2500 0.7500 0.3446(3)
N8_2 N 0.1565(3) 0.7500 0.2500
C25_2 C 0.2959(3) 0.7704(3) 0.3758(3)
H43_2 H 0.3283 0.7853 0.3553
C26_2 C 0.2976(3) 0.7704(4) 0.4360(3)
H44_2 H 0.3311 0.7842 0.4557
C27_2 C 0.2500 0.7500 0.4677(4)
C28_2 C 0.2500(4) 0.7500 0.5332
C29_2 C 0.2977(3) 0.7284(3) 0.5653(3)
H45_2 H 0.3308 0.7138 0.5456
C30_2 C 0.1257(3) 0.7963(3) 0.2715(3)
H46_2 H 0.1463 0.8285 0.2868
O31_2 O 0.2500 0.8412(3) 0.2500
Ni2_2 Ni 0.2500 0.7500 0.7500
N10_2 N 0.2500 0.7500 0.1554(3)
N11_2 N 0.2500 0.7500 0.6565(3)
N12_2 N 0.3435(3) 0.7500 0.2500
C31_2 C 0.2041(3) 0.7296(3) 0.3758(3)
H47_2 H 0.1717 0.7147 0.3553
C34_2 C 0.2024(3) 0.7296(4) 0.4360(3)
H50_2 H 0.1689 0.7158 0.4557
C38_2 C 0.0332 0.7500(4) 0.2500
C39_2 C 0.0653(3) 0.7977(3) 0.2716(3)
C40_2 C 0.0653(3) 0.7023(3) 0.2284(3)
C41_2 C 0.2023(3) 0.7716(3) 0.5653(3)
H53_2 H 0.0456 0.8308 0.2862
H54_2 H 0.0456 0.6692 0.2138
H55_2 H 0.1692 0.7862 0.5456
C42_2 C 0.2963(3) 0.7285(3) 0.6257(3)
C43_2 C 0.1257(3) 0.7037(3) 0.2285(3)
C44_2 C 0.2037(3) 0.7715(3) 0.6257(3)
H56_2 H 0.1463 0.6715 0.2132
H57_2 H 0.1715 0.7868 0.6463
H58_2 H 0.3285 0.7132 0.6463
O32_2 O 0.2500 0.6588(3) 0.2500
N9_2 N 0.8446(3) 0.7500 0.2500
C32_2 C 0.8758(3) 0.7959(3) 0.2296(3)
C33_2 C 0.8758(3) 0.7041(3) 0.2704(3)
H48_2 H 0.8553 0.8283 0.2147
H49_2 H 0.8553 0.6717 0.2853
C35_2 C 0.9360(3) 0.7976(3) 0.2296(4)
C36_2 C 0.9360(3) 0.7024(3) 0.2704(4)
H51_2 H 0.9557 0.8311 0.2158
H52_2 H 0.9557 0.6689 0.2842
C37_2 C 0.9677(4) 0.7500 0.2500
Ni1_3 Ni 0.2500 0.2500 0.7500
N7_3 N 0.3446(3) 0.2500 0.7500
N8_3 N 0.2500 0.1565(3) 0.7500
C25_3 C 0.3758(3) 0.2959(3) 0.7704(3)
H43_3 H 0.3553 0.3283 0.7853
C26_3 C 0.4360(3) 0.2976(3) 0.7704(4)
H44_3 H 0.4557 0.3311 0.7842
C27_3 C 0.4677(4) 0.2500 0.7500
C28_3 C 0.5332 0.2500(4) 0.7500
C29_3 C 0.5653(3) 0.2977(3) 0.7284(3)
H45_3 H 0.5456 0.3308 0.7138
C30_3 C 0.2715(3) 0.1257(3) 0.7963(3)
H46_3 H 0.2868 0.1463 0.8285
O31_3 O 0.2500 0.2500 0.8412(3)
N10_3 N 0.1554(3) 0.2500 0.7500
N11_3 N 0.6565(3) 0.2500 0.7500
N12_3 N 0.2500 0.3435(3) 0.7500
C31_3 C 0.3758(3) 0.2041(3) 0.7296(3)
H47_3 H 0.3553 0.1717 0.7147
C34_3 C 0.4360(3) 0.2024(3) 0.7296(4)
H50_3 H 0.4557 0.1689 0.7158
C38_3 C 0.2500 0.0332 0.7500(4)
C39_3 C 0.2716(3) 0.0653(3) 0.7977(3)
C40_3 C 0.2284(3) 0.0653(3) 0.7023(3)
C41_3 C 0.5653(3) 0.2023(3) 0.7716(3)
H53_3 H 0.2862 0.0456 0.8308
H54_3 H 0.2138 0.0456 0.6692
H55_3 H 0.5456 0.1692 0.7862
C42_3 C 0.6257(3) 0.2963(3) 0.7285(3)
C43_3 C 0.2285(3) 0.1257(3) 0.7037(3)
C44_3 C 0.6257(3) 0.2037(3) 0.7715(3)
H56_3 H 0.2132 0.1463 0.6715
H57_3 H 0.6463 0.1715 0.7868
H58_3 H 0.6463 0.3285 0.7132
O32_3 O 0.2500 0.2500 0.6588(3)
N9_3 N 0.2500 0.8446(3) 0.7500
C32_3 C 0.2296(3) 0.8758(3) 0.7959(3)
C33_3 C 0.2704(3) 0.8758(3) 0.7041(3)
H48_3 H 0.2147 0.8553 0.8283
H49_3 H 0.2853 0.8553 0.6717
C35_3 C 0.2296(4) 0.9360(3) 0.7976(3)
C36_3 C 0.2704(4) 0.9360(3) 0.7024(3)
H51_3 H 0.2158 0.9557 0.8311
H52_3 H 0.2842 0.9557 0.6689
C37_3 C 0.2500 0.9677(4) 0.7500
C25_4 C 0.7296(3) 0.1242(3) 0.2959(3)
H43_4 H 0.7147 0.1447 0.3283
C26_4 C 0.7296(4) 0.0640(3) 0.2976(3)
H44_4 H 0.7158 0.0443 0.3311
C27_4 C 0.7500 0.0323(4) 0.2500
C31_4 C 0.7704(3) 0.1242(3) 0.2041(3)
H47_4 H 0.7853 0.1447 0.1717
C34_4 C 0.7704(4) 0.0640(3) 0.2024(3)
H50_4 H 0.7842 0.0443 0.1689
C28_4 C 0.7500 0.9668 0.2500(4)
C29_4 C 0.7716(3) 0.9347(3) 0.2977(3)
H45_4 H 0.7862 0.9544 0.3308
N11_4 N 0.7500 0.8435(3) 0.2500
C41_4 C 0.7284(3) 0.9347(3) 0.2023(3)
H55_4 H 0.7138 0.9544 0.1692
C42_4 C 0.7715(3) 0.8743(3) 0.2963(3)
C44_4 C 0.7285(3) 0.8743(3) 0.2037(3)
H57_4 H 0.7132 0.8537 0.1715
H58_4 H 0.7868 0.8537 0.3285
C30_4 C 0.7037(3) 0.2715(3) 0.3743(3)
H46_4 H 0.6715 0.2868 0.3537
N9_4 N 0.7500 0.2500 0.6554(3)
C32_4 C 0.7041(3) 0.2296(3) 0.6242(3)
C33_4 C 0.7959(3) 0.2704(3) 0.6242(3)
H48_4 H 0.6717 0.2147 0.6447
H49_4 H 0.8283 0.2853 0.6447
C35_4 C 0.7024(3) 0.2296(4) 0.5640(3)
C36_4 C 0.7976(3) 0.2704(4) 0.5640(3)
H51_4 H 0.6689 0.2158 0.5443
H52_4 H 0.8311 0.2842 0.5443
C37_4 C 0.7500 0.2500 0.5323(4)
C38_4 C 0.7500(4) 0.2500 0.4668
C39_4 C 0.7023(3) 0.2716(3) 0.4347(3)
C40_4 C 0.7977(3) 0.2284(3) 0.4347(3)
H53_4 H 0.6692 0.2862 0.4544
H54_4 H 0.8308 0.2138 0.4544
C43_4 C 0.7963(3) 0.2285(3) 0.3743(3)
H56_4 H 0.8285 0.2132 0.3537
C25_5 C 0.2959(3) 0.7296(3) 0.1242(3)
H43_5 H 0.3283 0.7147 0.1447
C26_5 C 0.2976(3) 0.7296(4) 0.0640(3)
H44_5 H 0.3311 0.7158 0.0443
C27_5 C 0.2500 0.7500 0.0323(4)
C31_5 C 0.2041(3) 0.7704(3) 0.1242(3)
H47_5 H 0.1717 0.7853 0.1447
C34_5 C 0.2024(3) 0.7704(4) 0.0640(3)
H50_5 H 0.1689 0.7842 0.0443
C28_5 C 0.2500(4) 0.7500 0.9668
C29_5 C 0.2977(3) 0.7716(3) 0.9347(3)
H45_5 H 0.3308 0.7862 0.9544
N11_5 N 0.2500 0.7500 0.8435(3)
C41_5 C 0.2023(3) 0.7284(3) 0.9347(3)
H55_5 H 0.1692 0.7138 0.9544
C42_5 C 0.2963(3) 0.7715(3) 0.8743(3)
C44_5 C 0.2037(3) 0.7285(3) 0.8743(3)
H57_5 H 0.1715 0.7132 0.8537
H58_5 H 0.3285 0.7868 0.8537
C30_5 C 0.3743(3) 0.7037(3) 0.2715(3)
H46_5 H 0.3537 0.6715 0.2868
N9_5 N 0.6554(3) 0.7500 0.2500
C32_5 C 0.6242(3) 0.7041(3) 0.2296(3)
C33_5 C 0.6242(3) 0.7959(3) 0.2704(3)
H48_5 H 0.6447 0.6717 0.2147
H49_5 H 0.6447 0.8283 0.2853
C35_5 C 0.5640(3) 0.7024(3) 0.2296(4)
C36_5 C 0.5640(3) 0.7976(3) 0.2704(4)
H51_5 H 0.5443 0.6689 0.2158
H52_5 H 0.5443 0.8311 0.2842
C37_5 C 0.5323(4) 0.7500 0.2500
C38_5 C 0.4668 0.7500(4) 0.2500
C39_5 C 0.4347(3) 0.7023(3) 0.2716(3)
C40_5 C 0.4347(3) 0.7977(3) 0.2284(3)
H53_5 H 0.4544 0.6692 0.2862
H54_5 H 0.4544 0.8308 0.2138
C43_5 C 0.3743(3) 0.7963(3) 0.2285(3)
H56_5 H 0.3537 0.8285 0.2132
C25_6 C 0.1242(3) 0.2959(3) 0.7296(3)
H43_6 H 0.1447 0.3283 0.7147
C26_6 C 0.0640(3) 0.2976(3) 0.7296(4)
H44_6 H 0.0443 0.3311 0.7158
C27_6 C 0.0323(4) 0.2500 0.7500
C31_6 C 0.1242(3) 0.2041(3) 0.7704(3)
H47_6 H 0.1447 0.1717 0.7853
C34_6 C 0.0640(3) 0.2024(3) 0.7704(4)
H50_6 H 0.0443 0.1689 0.7842
C28_6 C 0.9668 0.2500(4) 0.7500
C29_6 C 0.9347(3) 0.2977(3) 0.7716(3)
H45_6 H 0.9544 0.3308 0.7862
N11_6 N 0.8435(3) 0.2500 0.7500
C41_6 C 0.9347(3) 0.2023(3) 0.7284(3)
H55_6 H 0.9544 0.1692 0.7138
C42_6 C 0.8743(3) 0.2963(3) 0.7715(3)
C44_6 C 0.8743(3) 0.2037(3) 0.7285(3)
H57_6 H 0.8537 0.1715 0.7132
H58_6 H 0.8537 0.3285 0.7868
C30_6 C 0.2715(3) 0.3743(3) 0.7037(3)
H46_6 H 0.2868 0.3537 0.6715
N9_6 N 0.2500 0.6554(3) 0.7500
C32_6 C 0.2296(3) 0.6242(3) 0.7041(3)
C33_6 C 0.2704(3) 0.6242(3) 0.7959(3)
H48_6 H 0.2147 0.6447 0.6717
H49_6 H 0.2853 0.6447 0.8283
C35_6 C 0.2296(4) 0.5640(3) 0.7024(3)
C36_6 C 0.2704(4) 0.5640(3) 0.7976(3)
H51_6 H 0.2158 0.5443 0.6689
H52_6 H 0.2842 0.5443 0.8311
C37_6 C 0.2500 0.5323(4) 0.7500
C38_6 C 0.2500 0.4668 0.7500(4)
C39_6 C 0.2716(3) 0.4347(3) 0.7023(3)
C40_6 C 0.2284(3) 0.4347(3) 0.7977(3)
H53_6 H 0.2862 0.4544 0.6692
H54_6 H 0.2138 0.4544 0.8308
C43_6 C 0.2285(3) 0.3743(3) 0.7963(3)
H56_6 H 0.2132 0.3537 0.8285
O31_4 O 0.1588(3) 0.7500 0.7500
O32_4 O 0.3412(3) 0.7500 0.7500
O31_5 O 0.7500 0.1588(3) 0.7500
O32_5 O 0.7500 0.3412(3) 0.7500
O31_6 O 0.7500 0.7500 0.1588(3)
O32_6 O 0.7500 0.7500 0.3412(3)
O33 O 0.1022(5) 0.3978(5) 0.1022(5)
O33_2 O 0.1022(5) 0.1022(5) 0.3978(5)
O33_3 O 0.3978(5) 0.1022(5) 0.1022(5)
O33_4 O 0.3978(5) 0.3978(5) 0.3978(5)
O33_5 O 0.8978(5) 0.6022(5) 0.8978(5)
O33_6 O 0.8978(5) 0.8978(5) 0.6022(5)
O33_7 O 0.6022(5) 0.8978(5) 0.8978(5)
O33_8 O 0.6022(5) 0.6022(5) 0.6022(5)
O34 O 0.1697(11) 0.4675(15) 0.1725(12)
O34_2 O 0.1725(12) 0.1697(11) 0.4675(15)
O34_3 O 0.4675(15) 0.1725(12) 0.1697(11)
O34_4 O 0.3303(11) 0.0325(15) 0.1725(12)
H59 H 0.286346 0.0325 0.1725
H61 H 0.344951 0.068388 0.15178
H60 H 0.344951 0.996612 0.15178
O34_5 O 0.3303(11) 0.4675(15) 0.3275(12)
O34_6 O 0.1697(11) 0.0325(15) 0.3275(12)
H59_2 H 0.213654 0.0325 0.3275
H61_2 H 0.155049 0.068388 0.34822
H60_2 H 0.155049 0.996612 0.34822
O34_7 O 0.1725(12) 0.3303(11) 0.0325(15)
H59_3 H 0.1725 0.286346 0.0325
H61_3 H 0.15178 0.344951 0.068388
H60_3 H 0.15178 0.344951 0.996612
O34_8 O 0.3275(12) 0.3303(11) 0.4675(15)
O34_9 O 0.3275(12) 0.1697(11) 0.0325(15)
H59_4 H 0.3275 0.213654 0.0325
H61_4 H 0.34822 0.155049 0.068388
H60_4 H 0.34822 0.155049 0.996612
O34_10 O 0.0325(15) 0.1725(12) 0.3303(11)
H59_5 H 0.0325 0.1725 0.286346
H61_5 H 0.068388 0.15178 0.344951
H60_5 H 0.996612 0.15178 0.344951
O34_11 O 0.4675(15) 0.3275(12) 0.3303(11)
O34_12 O 0.0325(15) 0.3275(12) 0.1697(11)
H59_6 H 0.0325 0.3275 0.213654
H61_6 H 0.068388 0.34822 0.155049
H60_6 H 0.996612 0.34822 0.155049
O34_13 O 0.8303(11) 0.5325(15) 0.8275(12)
O34_14 O 0.8275(12) 0.8303(11) 0.5325(15)
O34_15 O 0.5325(15) 0.8275(12) 0.8303(11)
H60_7 H 0.655049 0.00338797 0.84822
O34_16 O 0.6697(11) 0.9675(15) 0.8275(12)
H59_7 H 0.713654 0.9675 0.8275
H61_7 H 0.655049 0.931612 0.84822
O34_17 O 0.6697(11) 0.5325(15) 0.6725(12)
H60_8 H 0.844951 0.00338797 0.65178
O34_18 O 0.8303(11) 0.9675(15) 0.6725(12)
H59_8 H 0.786346 0.9675 0.6725
H61_8 H 0.844951 0.931612 0.65178
H60_9 H 0.84822 0.655049 0.00338797
O34_19 O 0.8275(12) 0.6697(11) 0.9675(15)
H59_9 H 0.8275 0.713654 0.9675
H61_9 H 0.84822 0.655049 0.931612
O34_20 O 0.6725(12) 0.6697(11) 0.5325(15)
H60_10 H 0.65178 0.844951 0.00338797
O34_21 O 0.6725(12) 0.8303(11) 0.9675(15)
H59_10 H 0.6725 0.786346 0.9675
H61_10 H 0.65178 0.844951 0.931612
H60_11 H 0.00338797 0.84822 0.655049
O34_22 O 0.9675(15) 0.8275(12) 0.6697(11)
H59_11 H 0.9675 0.8275 0.713654
H61_11 H 0.931612 0.84822 0.655049
O34_23 O 0.5325(15) 0.6725(12) 0.6697(11)
H60_12 H 0.00338797 0.65178 0.844951
O34_24 O 0.9675(15) 0.6725(12) 0.8303(11)
H59_12 H 0.9675 0.6725 0.786346
H61_12 H 0.931612 0.65178 0.844951
O35 O 0.955(2) 0.339(2) 0.391(2)
O35_2 O 0.391(2) 0.955(2) 0.339(2)
O35_3 O 0.339(2) 0.391(2) 0.955(2)
O35_4 O 0.545(2) 0.161(2) 0.391(2)
O35_5 O 0.545(2) 0.339(2) 0.109(2)
O35_6 O 0.955(2) 0.161(2) 0.109(2)
O35_7 O 0.391(2) 0.545(2) 0.161(2)
O35_8 O 0.109(2) 0.545(2) 0.339(2)
O35_9 O 0.109(2) 0.955(2) 0.161(2)
O35_10 O 0.161(2) 0.391(2) 0.545(2)
O35_11 O 0.339(2) 0.109(2) 0.545(2)
O35_12 O 0.161(2) 0.109(2) 0.955(2)
O35_13 O 0.045(2) 0.661(2) 0.609(2)
O35_14 O 0.609(2) 0.045(2) 0.661(2)
O35_15 O 0.661(2) 0.609(2) 0.045(2)
O35_16 O 0.455(2) 0.839(2) 0.609(2)
O35_17 O 0.455(2) 0.661(2) 0.891(2)
O35_18 O 0.045(2) 0.839(2) 0.891(2)
O35_19 O 0.609(2) 0.455(2) 0.839(2)
O35_20 O 0.891(2) 0.455(2) 0.661(2)
O35_21 O 0.891(2) 0.045(2) 0.839(2)
O35_22 O 0.839(2) 0.609(2) 0.455(2)
O35_23 O 0.661(2) 0.891(2) 0.455(2)
O35_24 O 0.839(2) 0.891(2) 0.045(2)
O36 O 0.8815(14) 0.3837(14) 0.4031(14)
O36_2 O 0.4031(14) 0.8815(14) 0.3837(14)
O36_3 O 0.3837(14) 0.4031(14) 0.8815(14)
O36_4 O 0.6185(14) 0.1163(14) 0.4031(14)
O36_5 O 0.6185(14) 0.3837(14) 0.0969(14)
O36_6 O 0.8815(14) 0.1163(14) 0.0969(14)
O36_7 O 0.4031(14) 0.6185(14) 0.1163(14)
O36_8 O 0.0969(14) 0.6185(14) 0.3837(14)
O36_9 O 0.0969(14) 0.8815(14) 0.1163(14)
O36_10 O 0.1163(14) 0.4031(14) 0.6185(14)
O36_11 O 0.3837(14) 0.0969(14) 0.6185(14)
O36_12 O 0.1163(14) 0.0969(14) 0.8815(14)
O36_13 O 0.1185(14) 0.6163(14) 0.5969(14)
O36_14 O 0.5969(14) 0.1185(14) 0.6163(14)
O36_15 O 0.6163(14) 0.5969(14) 0.1185(14)
O36_16 O 0.3815(14) 0.8837(14) 0.5969(14)
O36_17 O 0.3815(14) 0.6163(14) 0.9031(14)
O36_18 O 0.1185(14) 0.8837(14) 0.9031(14)
O36_19 O 0.5969(14) 0.3815(14) 0.8837(14)
O36_20 O 0.9031(14) 0.3815(14) 0.6163(14)
O36_21 O 0.9031(14) 0.1185(14) 0.8837(14)
O36_22 O 0.8837(14) 0.5969(14) 0.3815(14)
O36_23 O 0.6163(14) 0.9031(14) 0.3815(14)
O36_24 O 0.8837(14) 0.9031(14) 0.1185(14)
loop_
_geom_bond_atom_site_label_1
_geom_bond_atom_site_label_2
_geom_bond_site_symmetry_1
_geom_bond_site_symmetry_2
P1 C3 1_555 1_555
H3 C3 1_555 1_555
H4 C3 1_555 1_555
Zn4 N3 1_555 1_555
N3 C6 1_555 1_555
C6 H9 1_555 1_555
H14 C6 1_555 1_555
C11 C6 1_555 1_555
H32 C24 1_555 1_555
H37 C24 1_555 1_555
H42 C24 1_555 1_555
O7 Zn4 1_555 1_555
O12 C11 1_555 1_555
O17 P1 1_555 1_555
O22 Zn4 1_555 1_555
O26 Zn1 1_555 1_555
Zn4 O17 1_555 1_555
Zn4 O26 1_555 1_555
C11 O7 1_555 1_555
Zn3 N2 1_555 1_555
Zn7 N6 1_555 1_555
P3 C16 1_555 1_555
P6 C19 1_555 1_555
N2 C5 1_555 1_555
N6 C9 1_555 1_555
C5 H8 1_555 1_555
C9 H12 1_555 1_555
H13 C5 1_555 1_555
H17 C9 1_555 1_555
C10 C5 1_555 1_555
C14 C9 1_555 1_555
H23 C19 1_555 1_555
H26 C16 1_555 1_555
C23 N6 1_555 1_555
H29 C21 1_555 1_555
H31 C23 1_555 1_555
H34 C21 1_555 1_555
H36 C23 1_555 1_555
H39 C21 1_555 1_555
H41 C23 1_555 1_555
O6 Zn3 1_555 1_555
O10 Zn7 1_555 1_555
O11 C10 1_555 1_555
O14 C14 1_555 1_555
O16 Zn3 1_555 1_555
O20 Zn7 1_555 1_555
O24 Zn7 1_555 1_555
O25 Zn3 1_555 1_555
O28 Zn1_2 1_555 1_555
O30 Zn1_2 1_555 1_555
Zn3 O28 1_555 1_555
Zn7 O30 1_555 1_555
P3 O16 1_555 1_555
P3 O24 1_555 1_555
P6 O20 1_555 1_555
C10 O6 1_555 1_555
C14 O10 1_555 1_555
Zn1_3 O5 1_555 1_555
Zn2 N1 1_555 1_555
N1 C1 1_555 1_555
C1 H1 1_555 1_555
H2 C1 1_555 1_555
C2 C1 1_555 1_555
C4 N1 1_555 1_555
H5 C4 1_555 1_555
H6 C4 1_555 1_555
H7 C4 1_555 1_555
O1 Zn2 1_555 1_555
O2 C2 1_555 1_555
O3 Zn2 1_555 1_555
O4 Zn2 1_555 1_555
O5 Zn2 1_555 1_555
Zn5 N4 1_555 1_555
P2 O3 1_555 1_555
P4 O4 1_555 1_555
N4 C7 1_555 1_555
C7 H10 1_555 1_555
H15 C7 1_555 1_555
C12 C7 1_555 1_555
C15 P2 1_555 1_555
C17 P4 1_555 1_555
H25 C17 1_555 1_555
H27 C15 1_555 1_555
H30 C22 1_555 1_555
H35 C22 1_555 1_555
H40 C22 1_555 1_555
O8 Zn5 1_555 1_555
O15 C12 1_555 1_555
O18 Zn5 1_555 1_555
O29 Zn1_3 1_555 1_555
C2 O1 1_555 1_555
Zn5 O21 1_555 1_555
Zn5 O29 1_555 1_555
P4 O18 1_555 1_555
C12 O8 1_555 1_555
Zn6 N5 1_555 1_555
P5 C18 1_555 1_555
N5 C8 1_555 1_555
C8 H11 1_555 1_555
H16 C8 1_555 1_555
C13 C8 1_555 1_555
H19 C18 1_555 1_555
H24 C18 1_555 1_555
H28 C20 1_555 1_555
H33 C20 1_555 1_555
H38 C20 1_555 1_555
O9 Zn6 1_555 1_555
O13 C13 1_555 1_555
O19 Zn6 1_555 1_555
O23 Zn6 1_555 1_555
O27 Zn1_4 1_555 1_555
Zn6 O27 1_555 1_555
P5 O19 1_555 1_555
C13 O9 1_555 1_555
P1_2 C3_2 1_555 1_555
H3_2 C3_2 1_555 1_555
H4_2 C3_2 1_555 1_555
Zn4_2 N3_2 1_555 1_555
N3_2 C6_2 1_555 1_555
C6_2 H9_2 1_555 1_555
H14_2 C6_2 1_555 1_555
C11_2 C6_2 1_555 1_555
H32_2 C24_2 1_555 1_555
H37_2 C24_2 1_555 1_555
H42_2 C24_2 1_555 1_555
O7_2 Zn4_2 1_555 1_555
O12_2 C11_2 1_555 1_555
O17_2 P1_2 1_555 1_555
O22_2 Zn4_2 1_555 1_555
O26_2 Zn1_5 1_555 1_555
Zn4_2 O17_2 1_555 1_555
Zn4_2 O26_2 1_555 1_555
C11_2 O7_2 1_555 1_555
Zn1_6 O5_2 1_555 1_555
Zn2_2 N1_2 1_555 1_555
N1_2 C1_2 1_555 1_555
C1_2 H1_2 1_555 1_555
H2_2 C1_2 1_555 1_555
C2_2 C1_2 1_555 1_555
C4_2 N1_2 1_555 1_555
H5_2 C4_2 1_555 1_555
H6_2 C4_2 1_555 1_555
H7_2 C4_2 1_555 1_555
O1_2 Zn2_2 1_555 1_555
O2_2 C2_2 1_555 1_555
O3_2 Zn2_2 1_555 1_555
O4_2 Zn2_2 1_555 1_555
O5_2 Zn2_2 1_555 1_555
Zn5_2 N4_2 1_555 1_555
P2_2 O3_2 1_555 1_555
P4_2 O4_2 1_555 1_555
N4_2 C7_2 1_555 1_555
C7_2 H10_2 1_555 1_555
H15_2 C7_2 1_555 1_555
C12_2 C7_2 1_555 1_555
C15_2 P2_2 1_555 1_555
C17_2 P4_2 1_555 1_555
H25_2 C17_2 1_555 1_555
H27_2 C15_2 1_555 1_555
H30_2 C22_2 1_555 1_555
H35_2 C22_2 1_555 1_555
H40_2 C22_2 1_555 1_555
O8_2 Zn5_2 1_555 1_555
O15_2 C12_2 1_555 1_555
O18_2 Zn5_2 1_555 1_555
O29_2 Zn1_6 1_555 1_555
C2_2 O1_2 1_555 1_555
Zn5_2 O21_2 1_555 1_555
Zn5_2 O29_2 1_555 1_555
P4_2 O18_2 1_555 1_555
C12_2 O8_2 1_555 1_555
Zn3_2 N2_2 1_555 1_555
Zn7_2 N6_2 1_555 1_555
P3_2 C16_2 1_555 1_555
P6_2 C19_2 1_555 1_555
N2_2 C5_2 1_555 1_555
N6_2 C9_2 1_555 1_555
C5_2 H8_2 1_555 1_555
C9_2 H12_2 1_555 1_555
H13_2 C5_2 1_555 1_555
H17_2 C9_2 1_555 1_555
C10_2 C5_2 1_555 1_555
C14_2 C9_2 1_555 1_555
H23_2 C19_2 1_555 1_555
H26_2 C16_2 1_555 1_555
C23_2 N6_2 1_555 1_555
H29_2 C21_2 1_555 1_555
H31_2 C23_2 1_555 1_555
H34_2 C21_2 1_555 1_555
H36_2 C23_2 1_555 1_555
H39_2 C21_2 1_555 1_555
H41_2 C23_2 1_555 1_555
O6_2 Zn3_2 1_555 1_555
O10_2 Zn7_2 1_555 1_555
O11_2 C10_2 1_555 1_555
O14_2 C14_2 1_555 1_555
O16_2 Zn3_2 1_555 1_555
O20_2 Zn7_2 1_555 1_555
O24_2 Zn7_2 1_555 1_555
O25_2 Zn3_2 1_555 1_555
O28_2 Zn1_7 1_555 1_555
O30_2 Zn1_7 1_555 1_555
Zn3_2 O28_2 1_555 1_555
Zn7_2 O30_2 1_555 1_555
P3_2 O16_2 1_555 1_555
P3_2 O24_2 1_555 1_555
P6_2 O20_2 1_555 1_555
C10_2 O6_2 1_555 1_555
C14_2 O10_2 1_555 1_555
Zn6_2 N5_2 1_555 1_555
P5_2 C18_2 1_555 1_555
N5_2 C8_2 1_555 1_555
C8_2 H11_2 1_555 1_555
H16_2 C8_2 1_555 1_555
C13_2 C8_2 1_555 1_555
H19_2 C18_2 1_555 1_555
H24_2 C18_2 1_555 1_555
H28_2 C20_2 1_555 1_555
H33_2 C20_2 1_555 1_555
H38_2 C20_2 1_555 1_555
O9_2 Zn6_2 1_555 1_555
O13_2 C13_2 1_555 1_555
O19_2 Zn6_2 1_555 1_555
O23_2 Zn6_2 1_555 1_555
O27_2 Zn1_8 1_555 1_555
Zn6_2 O27_2 1_555 1_555
P5_2 O19_2 1_555 1_555
C13_2 O9_2 1_555 1_555
P1_3 C3_3 1_555 1_555
H3_3 C3_3 1_555 1_555
H4_3 C3_3 1_555 1_555
Zn4_3 N3_3 1_555 1_555
N3_3 C6_3 1_555 1_555
C6_3 H9_3 1_555 1_555
H14_3 C6_3 1_555 1_555
C11_3 C6_3 1_555 1_555
H32_3 C24_3 1_555 1_555
H37_3 C24_3 1_555 1_555
H42_3 C24_3 1_555 1_555
O7_3 Zn4_3 1_555 1_555
O12_3 C11_3 1_555 1_555
O17_3 P1_3 1_555 1_555
O22_3 Zn4_3 1_555 1_555
O26_3 Zn1_9 1_555 1_555
Zn4_3 O17_3 1_555 1_555
Zn4_3 O26_3 1_555 1_555
C11_3 O7_3 1_555 1_555
Zn1_10 O5_3 1_555 1_555
Zn2_3 N1_3 1_555 1_555
N1_3 C1_3 1_555 1_555
C1_3 H1_3 1_555 1_555
H2_3 C1_3 1_555 1_555
C2_3 C1_3 1_555 1_555
C4_3 N1_3 1_555 1_555
H5_3 C4_3 1_555 1_555
H6_3 C4_3 1_555 1_555
H7_3 C4_3 1_555 1_555
O1_3 Zn2_3 1_555 1_555
O2_3 C2_3 1_555 1_555
O3_3 Zn2_3 1_555 1_555
O4_3 Zn2_3 1_555 1_555
O5_3 Zn2_3 1_555 1_555
Zn5_3 N4_3 1_555 1_555
P2_3 O3_3 1_555 1_555
P4_3 O4_3 1_555 1_555
N4_3 C7_3 1_555 1_555
C7_3 H10_3 1_555 1_555
H15_3 C7_3 1_555 1_555
C12_3 C7_3 1_555 1_555
C15_3 P2_3 1_555 1_555
C17_3 P4_3 1_555 1_555
H25_3 C17_3 1_555 1_555
H27_3 C15_3 1_555 1_555
H30_3 C22_3 1_555 1_555
H35_3 C22_3 1_555 1_555
H40_3 C22_3 1_555 1_555
O8_3 Zn5_3 1_555 1_555
O15_3 C12_3 1_555 1_555
O18_3 Zn5_3 1_555 1_555
O29_3 Zn1_10 1_555 1_555
C2_3 O1_3 1_555 1_555
Zn5_3 O21_3 1_555 1_555
Zn5_3 O29_3 1_555 1_555
P4_3 O18_3 1_555 1_555
C12_3 O8_3 1_555 1_555
Zn3_3 N2_3 1_555 1_555
Zn7_3 N6_3 1_555 1_555
P3_3 C16_3 1_555 1_555
P6_3 C19_3 1_555 1_555
N2_3 C5_3 1_555 1_555
N6_3 C9_3 1_555 1_555
C5_3 H8_3 1_555 1_555
C9_3 H12_3 1_555 1_555
H13_3 C5_3 1_555 1_555
H17_3 C9_3 1_555 1_555
C10_3 C5_3 1_555 1_555
C14_3 C9_3 1_555 1_555
H23_3 C19_3 1_555 1_555
H26_3 C16_3 1_555 1_555
C23_3 N6_3 1_555 1_555
H29_3 C21_3 1_555 1_555
H31_3 C23_3 1_555 1_555
H34_3 C21_3 1_555 1_555
H36_3 C23_3 1_555 1_555
H39_3 C21_3 1_555 1_555
H41_3 C23_3 1_555 1_555
O6_3 Zn3_3 1_555 1_555
O10_3 Zn7_3 1_555 1_555
O11_3 C10_3 1_555 1_555
O14_3 C14_3 1_555 1_555
O16_3 Zn3_3 1_555 1_555
O20_3 Zn7_3 1_555 1_555
O24_3 Zn7_3 1_555 1_555
O25_3 Zn3_3 1_555 1_555
O28_3 Zn1_11 1_555 1_555
O30_3 Zn1_11 1_555 1_555
Zn3_3 O28_3 1_555 1_555
Zn7_3 O30_3 1_555 1_555
P3_3 O16_3 1_555 1_555
P3_3 O24_3 1_555 1_555
P6_3 O20_3 1_555 1_555
C10_3 O6_3 1_555 1_555
C14_3 O10_3 1_555 1_555
Zn6_3 N5_3 1_555 1_555
P5_3 C18_3 1_555 1_555
N5_3 C8_3 1_555 1_555
C8_3 H11_3 1_555 1_555
H16_3 C8_3 1_555 1_555
C13_3 C8_3 1_555 1_555
H19_3 C18_3 1_555 1_555
H24_3 C18_3 1_555 1_555
H28_3 C20_3 1_555 1_555
H33_3 C20_3 1_555 1_555
H38_3 C20_3 1_555 1_555
O9_3 Zn6_3 1_555 1_555
O13_3 C13_3 1_555 1_555
O19_3 Zn6_3 1_555 1_555
O23_3 Zn6_3 1_555 1_555
O27_3 Zn1_12 1_555 1_555
Zn6_3 O27_3 1_555 1_555
P5_3 O19_3 1_555 1_555
C13_3 O9_3 1_555 1_555
Zn1_13 O5_4 1_555 1_555
Zn2_4 N1_4 1_555 1_555
P1_4 C3_4 1_555 1_555
N1_4 C1_4 1_555 1_555
C1_4 H1_4 1_555 1_555
H2_4 C1_4 1_555 1_555
C2_4 C1_4 1_555 1_555
C3_4 N1_4 1_555 1_555
H3_4 C3_4 1_555 1_555
H4_4 C3_4 1_555 1_555
C4_4 N1_4 1_555 1_555
H5_4 C4_4 1_555 1_555
H6_4 C4_4 1_555 1_555
H7_4 C4_4 1_555 1_555
O1_4 Zn2_4 1_555 1_555
O2_4 C2_4 1_555 1_555
O3_4 Zn2_4 1_555 1_555
O4_4 Zn2_4 1_555 1_555
O5_4 Zn2_4 1_555 1_555
Zn3_4 N2_4 1_555 1_555
Zn4_4 N3_4 1_555 1_555
Zn5_4 N4_4 1_555 1_555
Zn6_4 N5_4 1_555 1_555
Zn7_4 N6_4 1_555 1_555
P2_4 O3_4 1_555 1_555
P3_4 C16_4 1_555 1_555
P4_4 O4_4 1_555 1_555
P5_4 C18_4 1_555 1_555
P6_4 C19_4 1_555 1_555
N2_4 C5_4 1_555 1_555
N3_4 C6_4 1_555 1_555
N4_4 C7_4 1_555 1_555
N5_4 C8_4 1_555 1_555
N6_4 C9_4 1_555 1_555
C5_4 H8_4 1_555 1_555
C6_4 H9_4 1_555 1_555
C7_4 H10_4 1_555 1_555
C8_4 H11_4 1_555 1_555
C9_4 H12_4 1_555 1_555
H13_4 C5_4 1_555 1_555
H14_4 C6_4 1_555 1_555
H15_4 C7_4 1_555 1_555
H16_4 C8_4 1_555 1_555
H17_4 C9_4 1_555 1_555
C10_4 C5_4 1_555 1_555
C11_4 C6_4 1_555 1_555
C12_4 C7_4 1_555 1_555
C13_4 C8_4 1_555 1_555
C14_4 C9_4 1_555 1_555
C15_4 P2_4 1_555 1_555
C16_4 N3_4 1_555 1_555
C17_4 P4_4 1_555 1_555
C18_4 N6_4 1_555 1_555
C19_4 N4_4 1_555 1_555
H18_4 C19_4 1_555 1_555
H19_4 C18_4 1_555 1_555
H20_4 C17_4 1_555 1_555
H21_4 C16_4 1_555 1_555
H22_4 C15_4 1_555 1_555
H23_4 C19_4 1_555 1_555
H24_4 C18_4 1_555 1_555
H25_4 C17_4 1_555 1_555
H26_4 C16_4 1_555 1_555
H27_4 C15_4 1_555 1_555
C20_4 N2_4 1_555 1_555
C21_4 N3_4 1_555 1_555
C22_4 N5_4 1_555 1_555
C23_4 N6_4 1_555 1_555
C24_4 N4_4 1_555 1_555
H28_4 C20_4 1_555 1_555
H29_4 C21_4 1_555 1_555
H30_4 C22_4 1_555 1_555
H31_4 C23_4 1_555 1_555
H32_4 C24_4 1_555 1_555
H33_4 C20_4 1_555 1_555
H34_4 C21_4 1_555 1_555
H35_4 C22_4 1_555 1_555
H36_4 C23_4 1_555 1_555
H37_4 C24_4 1_555 1_555
H38_4 C20_4 1_555 1_555
H39_4 C21_4 1_555 1_555
H40_4 C22_4 1_555 1_555
H41_4 C23_4 1_555 1_555
H42_4 C24_4 1_555 1_555
O6_4 Zn3_4 1_555 1_555
O7_4 Zn4_4 1_555 1_555
O8_4 Zn5_4 1_555 1_555
O9_4 Zn6_4 1_555 1_555
O10_4 Zn7_4 1_555 1_555
O11_4 C10_4 1_555 1_555
O12_4 C11_4 1_555 1_555
O13_4 C13_4 1_555 1_555
O14_4 C14_4 1_555 1_555
O15_4 C12_4 1_555 1_555
O16_4 Zn3_4 1_555 1_555
O17_4 P1_4 1_555 1_555
O18_4 Zn5_4 1_555 1_555
O19_4 Zn6_4 1_555 1_555
O20_4 Zn7_4 1_555 1_555
O21_4 P1_4 1_555 1_555
O22_4 Zn4_4 1_555 1_555
O23_4 Zn6_4 1_555 1_555
O24_4 Zn7_4 1_555 1_555
O25_4 Zn3_4 1_555 1_555
O26_4 Zn1_13 1_555 1_555
O27_4 Zn1_13 1_555 1_555
O28_4 Zn1_13 1_555 1_555
O29_4 Zn1_13 1_555 1_555
O30_4 Zn1_13 1_555 1_555
P1_4 O5_4 1_555 1_555
C2_4 O1_4 1_555 1_555
Zn3_4 O28_4 1_555 1_555
Zn4_4 O17_4 1_555 1_555
Zn4_4 O26_4 1_555 1_555
Zn5_4 O21_4 1_555 1_555
Zn5_4 O29_4 1_555 1_555
Zn6_4 O27_4 1_555 1_555
Zn7_4 O30_4 1_555 1_555
P2_4 O23_4 1_555 1_555
P2_4 O28_4 1_555 1_555
P3_4 O16_4 1_555 1_555
P3_4 O24_4 1_555 1_555
P3_4 O26_4 1_555 1_555
P4_4 O18_4 1_555 1_555
P4_4 O27_4 1_555 1_555
P5_4 O19_4 1_555 1_555
P5_4 O25_4 1_555 1_555
P5_4 O30_4 1_555 1_555
P6_4 O20_4 1_555 1_555
P6_4 O22_4 1_555 1_555
P6_4 O29_4 1_555 1_555
N2_4 C15_4 1_555 1_555
N5_4 C17_4 1_555 1_555
C10_4 O6_4 1_555 1_555
C11_4 O7_4 1_555 1_555
C12_4 O8_4 1_555 1_555
C13_4 O9_4 1_555 1_555
C14_4 O10_4 1_555 1_555
Ni1 N7 1_555 1_555
N7 C25 1_555 1_555
N8 Ni1 1_555 1_555
C25 H43 1_555 1_555
C26 C25 1_555 1_555
H44 C26 1_555 1_555
C27 C26 1_555 1_555
C28 C27 1_555 1_555
C29 C28 1_555 1_555
H45 C29 1_555 1_555
C30 N8 1_555 1_555
H46 C30 1_555 1_555
O31 Ni1 1_555 1_555
Ni2 N11 1_555 1_555
N10 Ni1 1_555 1_555
N11 C42 1_555 1_555
N12 Ni1 1_555 1_555
C31 N7 1_555 1_555
H47 C31 1_555 1_555
C34 C27 1_555 1_555
H50 C34 1_555 1_555
C39 C30 1_555 1_555
C40 C38 1_555 1_555
C41 C28 1_555 1_555
H53 C39 1_555 1_555
H54 C40 1_555 1_555
H55 C41 1_555 1_555
C42 C29 1_555 1_555
C43 N8 1_555 1_555
C44 N11 1_555 1_555
H56 C43 1_555 1_555
H57 C44 1_555 1_555
H58 C42 1_555 1_555
O32 Ni1 1_555 1_555
C31 C34 1_555 1_555
C38 C39 1_555 1_555
C40 C43 1_555 1_555
C41 C44 1_555 1_555
Ni3 N9 1_555 1_555
N9 C32 1_555 1_555
C32 H48 1_555 1_555
C33 N9 1_555 1_555
H49 C33 1_555 1_555
C35 C32 1_555 1_555
C36 C33 1_555 1_555
H51 C35 1_555 1_555
H52 C36 1_555 1_555
C37 C35 1_555 1_555
C36 C37 1_555 1_555
Ni1_2 N7_2 1_555 1_555
N7_2 C25_2 1_555 1_555
N8_2 Ni1_2 1_555 1_555
C25_2 H43_2 1_555 1_555
C26_2 C25_2 1_555 1_555
H44_2 C26_2 1_555 1_555
C27_2 C26_2 1_555 1_555
C28_2 C27_2 1_555 1_555
C29_2 C28_2 1_555 1_555
H45_2 C29_2 1_555 1_555
C30_2 N8_2 1_555 1_555
H46_2 C30_2 1_555 1_555
O31_2 Ni1_2 1_555 1_555
Ni2_2 N11_2 1_555 1_555
N10_2 Ni1_2 1_555 1_555
N11_2 C42_2 1_555 1_555
N12_2 Ni1_2 1_555 1_555
C31_2 N7_2 1_555 1_555
H47_2 C31_2 1_555 1_555
C34_2 C27_2 1_555 1_555
H50_2 C34_2 1_555 1_555
C39_2 C30_2 1_555 1_555
C40_2 C38_2 1_555 1_555
C41_2 C28_2 1_555 1_555
H53_2 C39_2 1_555 1_555
H54_2 C40_2 1_555 1_555
H55_2 C41_2 1_555 1_555
C42_2 C29_2 1_555 1_555
C43_2 N8_2 1_555 1_555
C44_2 N11_2 1_555 1_555
H56_2 C43_2 1_555 1_555
H57_2 C44_2 1_555 1_555
H58_2 C42_2 1_555 1_555
O32_2 Ni1_2 1_555 1_555
C31_2 C34_2 1_555 1_555
C38_2 C39_2 1_555 1_555
C40_2 C43_2 1_555 1_555
C41_2 C44_2 1_555 1_555
Ni2 N9_2 1_555 1_555
N9_2 C32_2 1_555 1_555
C32_2 H48_2 1_555 1_555
C33_2 N9_2 1_555 1_555
H49_2 C33_2 1_555 1_555
C35_2 C32_2 1_555 1_555
C36_2 C33_2 1_555 1_555
H51_2 C35_2 1_555 1_555
H52_2 C36_2 1_555 1_555
C37_2 C35_2 1_555 1_555
C36_2 C37_2 1_555 1_555
Ni1_3 N7_3 1_555 1_555
N7_3 C25_3 1_555 1_555
N8_3 Ni1_3 1_555 1_555
C25_3 H43_3 1_555 1_555
C26_3 C25_3 1_555 1_555
H44_3 C26_3 1_555 1_555
C27_3 C26_3 1_555 1_555
C28_3 C27_3 1_555 1_555
C29_3 C28_3 1_555 1_555
H45_3 C29_3 1_555 1_555
C30_3 N8_3 1_555 1_555
H46_3 C30_3 1_555 1_555
O31_3 Ni1_3 1_555 1_555
Ni3 N11_3 1_555 1_555
N10_3 Ni1_3 1_555 1_555
N11_3 C42_3 1_555 1_555
N12_3 Ni1_3 1_555 1_555
C31_3 N7_3 1_555 1_555
H47_3 C31_3 1_555 1_555
C34_3 C27_3 1_555 1_555
H50_3 C34_3 1_555 1_555
C39_3 C30_3 1_555 1_555
C40_3 C38_3 1_555 1_555
C41_3 C28_3 1_555 1_555
H53_3 C39_3 1_555 1_555
H54_3 C40_3 1_555 1_555
H55_3 C41_3 1_555 1_555
C42_3 C29_3 1_555 1_555
C43_3 N8_3 1_555 1_555
C44_3 N11_3 1_555 1_555
H56_3 C43_3 1_555 1_555
H57_3 C44_3 1_555 1_555
H58_3 C42_3 1_555 1_555
O32_3 Ni1_3 1_555 1_555
C31_3 C34_3 1_555 1_555
C38_3 C39_3 1_555 1_555
C40_3 C43_3 1_555 1_555
C41_3 C44_3 1_555 1_555
Ni2_2 N9_3 1_555 1_555
N9_3 C32_3 1_555 1_555
C32_3 H48_3 1_555 1_555
C33_3 N9_3 1_555 1_555
H49_3 C33_3 1_555 1_555
C35_3 C32_3 1_555 1_555
C36_3 C33_3 1_555 1_555
H51_3 C35_3 1_555 1_555
H52_3 C36_3 1_555 1_555
C37_3 C35_3 1_555 1_555
C36_3 C37_3 1_555 1_555
N10 C25_4 1_555 1_555
C25_4 H43_4 1_555 1_555
C26_4 C25_4 1_555 1_555
H44_4 C26_4 1_555 1_555
C27_4 C26_4 1_555 1_555
C31_4 N10 1_555 1_555
H47_4 C31_4 1_555 1_555
C34_4 C27_4 1_555 1_555
H50_4 C34_4 1_555 1_555
C31_4 C34_4 1_555 1_555
C29_4 C28_4 1_555 1_555
H45_4 C29_4 1_555 1_555
Ni2 N11_4 1_555 1_555
N11_4 C42_4 1_555 1_555
C41_4 C28_4 1_555 1_555
H55_4 C41_4 1_555 1_555
C42_4 C29_4 1_555 1_555
C44_4 N11_4 1_555 1_555
H57_4 C44_4 1_555 1_555
H58_4 C42_4 1_555 1_555
C41_4 C44_4 1_555 1_555
C30_4 N12 1_555 1_555
H46_4 C30_4 1_555 1_555
Ni3 N9_4 1_555 1_555
N9_4 C32_4 1_555 1_555
C32_4 H48_4 1_555 1_555
C33_4 N9_4 1_555 1_555
H49_4 C33_4 1_555 1_555
C35_4 C32_4 1_555 1_555
C36_4 C33_4 1_555 1_555
H51_4 C35_4 1_555 1_555
H52_4 C36_4 1_555 1_555
C37_4 C35_4 1_555 1_555
C38_4 C37_4 1_555 1_555
C39_4 C30_4 1_555 1_555
C40_4 C38_4 1_555 1_555
H53_4 C39_4 1_555 1_555
H54_4 C40_4 1_555 1_555
C43_4 N12 1_555 1_555
H56_4 C43_4 1_555 1_555
C36_4 C37_4 1_555 1_555
C38_4 C39_4 1_555 1_555
C40_4 C43_4 1_555 1_555
N10_2 C25_5 1_555 1_555
C25_5 H43_5 1_555 1_555
C26_5 C25_5 1_555 1_555
H44_5 C26_5 1_555 1_555
C27_5 C26_5 1_555 1_555
C31_5 N10_2 1_555 1_555
H47_5 C31_5 1_555 1_555
C34_5 C27_5 1_555 1_555
H50_5 C34_5 1_555 1_555
C31_5 C34_5 1_555 1_555
C29_5 C28_5 1_555 1_555
H45_5 C29_5 1_555 1_555
Ni2_2 N11_5 1_555 1_555
N11_5 C42_5 1_555 1_555
C41_5 C28_5 1_555 1_555
H55_5 C41_5 1_555 1_555
C42_5 C29_5 1_555 1_555
C44_5 N11_5 1_555 1_555
H57_5 C44_5 1_555 1_555
H58_5 C42_5 1_555 1_555
C41_5 C44_5 1_555 1_555
C30_5 N12_2 1_555 1_555
H46_5 C30_5 1_555 1_555
Ni2 N9_5 1_555 1_555
N9_5 C32_5 1_555 1_555
C32_5 H48_5 1_555 1_555
C33_5 N9_5 1_555 1_555
H49_5 C33_5 1_555 1_555
C35_5 C32_5 1_555 1_555
C36_5 C33_5 1_555 1_555
H51_5 C35_5 1_555 1_555
H52_5 C36_5 1_555 1_555
C37_5 C35_5 1_555 1_555
C38_5 C37_5 1_555 1_555
C39_5 C30_5 1_555 1_555
C40_5 C38_5 1_555 1_555
H53_5 C39_5 1_555 1_555
H54_5 C40_5 1_555 1_555
C43_5 N12_2 1_555 1_555
H56_5 C43_5 1_555 1_555
C36_5 C37_5 1_555 1_555
C38_5 C39_5 1_555 1_555
C40_5 C43_5 1_555 1_555
N10_3 C25_6 1_555 1_555
C25_6 H43_6 1_555 1_555
C26_6 C25_6 1_555 1_555
H44_6 C26_6 1_555 1_555
C27_6 C26_6 1_555 1_555
C31_6 N10_3 1_555 1_555
H47_6 C31_6 1_555 1_555
C34_6 C27_6 1_555 1_555
H50_6 C34_6 1_555 1_555
C31_6 C34_6 1_555 1_555
C29_6 C28_6 1_555 1_555
H45_6 C29_6 1_555 1_555
Ni3 N11_6 1_555 1_555
N11_6 C42_6 1_555 1_555
C41_6 C28_6 1_555 1_555
H55_6 C41_6 1_555 1_555
C42_6 C29_6 1_555 1_555
C44_6 N11_6 1_555 1_555
H57_6 C44_6 1_555 1_555
H58_6 C42_6 1_555 1_555
C41_6 C44_6 1_555 1_555
C30_6 N12_3 1_555 1_555
H46_6 C30_6 1_555 1_555
Ni2_2 N9_6 1_555 1_555
N9_6 C32_6 1_555 1_555
C32_6 H48_6 1_555 1_555
C33_6 N9_6 1_555 1_555
H49_6 C33_6 1_555 1_555
C35_6 C32_6 1_555 1_555
C36_6 C33_6 1_555 1_555
H51_6 C35_6 1_555 1_555
H52_6 C36_6 1_555 1_555
C37_6 C35_6 1_555 1_555
C38_6 C37_6 1_555 1_555
C39_6 C30_6 1_555 1_555
C40_6 C38_6 1_555 1_555
H53_6 C39_6 1_555 1_555
H54_6 C40_6 1_555 1_555
C43_6 N12_3 1_555 1_555
H56_6 C43_6 1_555 1_555
C36_6 C37_6 1_555 1_555
C38_6 C39_6 1_555 1_555
C40_6 C43_6 1_555 1_555
O31_4 Ni2_2 1_555 1_555
O32_4 Ni2_2 1_555 1_555
O31_5 Ni3 1_555 1_555
O32_5 Ni3 1_555 1_555
O31_6 Ni2 1_555 1_555
O32_6 Ni2 1_555 1_555
O34_4 H59 1_555 1_555
O34_4 H61 1_555 1_555
O34_6 H59_2 1_555 1_555
O34_6 H61_2 1_555 1_555
O34_7 H59_3 1_555 1_555
O34_7 H61_3 1_555 1_555
O34_9 H59_4 1_555 1_555
O34_9 H61_4 1_555 1_555
O34_10 H59_5 1_555 1_555
O34_10 H61_5 1_555 1_555
O34_12 H59_6 1_555 1_555
O34_12 H61_6 1_555 1_555
O34_16 H59_7 1_555 1_555
O34_16 H61_7 1_555 1_555
O34_18 H59_8 1_555 1_555
O34_18 H61_8 1_555 1_555
O34_19 H59_9 1_555 1_555
O34_19 H61_9 1_555 1_555
O34_21 H59_10 1_555 1_555
O34_21 H61_10 1_555 1_555
O34_22 H59_11 1_555 1_555
O34_22 H61_11 1_555 1_555
O34_24 H59_12 1_555 1_555
O34_24 H61_12 1_555 1_555

#END
