
###############################################################################
#
# This file contains modified crystal structure data generated from the
# MOF subset of the Cambridge Structural Database (CSD) v543 
# hosted by the Cambridge Crystallographic Data Centre (CCDC).
#
# This work is licensed under the Creative Commons
# Attribution-NonCommercial-ShareAlike 4.0 International License.
# To view a copy of this license, visit
# http://creativecommons.org/licenses/by-nc-sa/4.0/
# or send a letter to
# Creative Commons, PO Box 1866, Mountain View, CA 94042, USA.
#
# CIF created using the CSD Python API on 29 September 2022
# The structure has been converted into the P1 space group
# The structure has a 3D framework
# The original CSD entry NALYEG is in the hexagonal crystal system
# The framework has been calculated to contain at least 10.0% void space
# The void calculation uses a probe of radius 1.32A, grid spacing 0.4
# H atom positions have been added when not included in the experimental data
# Generated hydrogen atom positions removed from atoms on special positions
#
###############################################################################

data_NALYEG
_chemical_formula_moiety         '(C54 H54 O42 U6)n'
_symmetry_cell_setting           triclinic
_symmetry_space_group_name_H-M   'P 1'
_symmetry_Int_Tables_number      1
_space_group_name_Hall           'P 1'
loop_
_symmetry_equiv_pos_site_id
_symmetry_equiv_pos_as_xyz
1 x,y,z
_cell_length_a                   18.3539(5)
_cell_length_b                   18.3539(5)
_cell_length_c                   9.7736(4)
_cell_angle_alpha                90
_cell_angle_beta                 90
_cell_angle_gamma                120
_cell_volume                     2851.29
loop_
_atom_site_label
_atom_site_type_symbol
_atom_site_fract_x
_atom_site_fract_y
_atom_site_fract_z
U10 U 0.55905(6) 0.35708(5) 0.7500
U11 U 0.64292(5) 0.20197(4) 0.7500
O9 O 0.5382(8) 0.3120(6) 0.5087(11)
O27 O 0.5330(8) 0.2038(6) 0.6160(10)
C8 C 0.4724(18) 0.0663(13) 0.2500
C12 C 0.5129(11) 0.1953(8) 0.3730(14)
C13 C 0.5129(11) 0.1953(8) 0.1270(14)
C15 C 0.5230(16) 0.2369(11) 0.2500
H4 H 0.5367 0.2930 0.2500
C19 C 0.4893(12) 0.1111(8) 0.3757(14)
C20 C 0.4893(12) 0.1111(8) 0.1243(14)
H8 H 0.4845 0.0841 0.4585
H9 H 0.4845 0.0841 0.0415
C24 C 0.5281(13) 0.2398(9) 0.5064(16)
O10 O 0.5382(8) 0.3120(6) 0.9913(11)
O28 O 0.5330(8) 0.2038(6) 0.8840(10)
C25 C 0.5281(13) 0.2398(9) 0.9936(16)
U3 U 0.35708(5) 0.79803(4) 0.2500
U9 U 0.20197(4) 0.55905(6) 0.2500
O8 O 0.3120(6) 0.7738(6) 0.0087(11)
O12 O 0.3120(6) 0.7738(6) 0.4913(11)
O14 O 0.3333 0.6667 0.2500
O22 O 0.4290(10) 0.9350(8) 0.1380(10)
O23 O 0.4290(10) 0.9350(8) 0.3620(10)
O26 O 0.2038(6) 0.6708(6) 0.1160(10)
O33 O 0.4670(8) 0.7962(6) 0.1160(10)
O34 O 0.4670(8) 0.7962(6) 0.3840(10)
O36 O 0.2512(9) 0.8439(9) 0.2500
C23 C 0.2398(9) 0.7117(9) 0.0064(16)
U4 U 0.44095(6) 0.64292(5) 0.2500
O25 O 0.2038(6) 0.6708(6) 0.3840(10)
C7 C 0.0663(13) 0.5939(12) 0.7500
C10 C 0.1953(8) 0.6824(8) 0.6270(14)
C11 C 0.1953(8) 0.6824(8) 0.8730(14)
C14 C 0.2369(11) 0.7139(12) 0.7500
H3 H 0.2930 0.7563 0.7500
C17 C 0.1111(8) 0.6218(9) 0.6243(14)
C18 C 0.1111(8) 0.6218(9) 0.8757(14)
H6 H 0.0841 0.5996 0.5415
H7 H 0.0841 0.5996 0.9585
C22 C 0.2398(9) 0.7117(9) 0.4936(16)
C27 C 0.4418(17) 0.9744(12) 0.2500
U8 U 0.79803(4) 0.44095(6) 0.7500
O16 O 0.9350(8) 0.5060(6) 0.8620(10)
O17 O 0.9350(8) 0.5060(6) 0.6380(10)
C26 C 0.9744(12) 0.5326(12) 0.7500
O8_2 O 0.2262(6) 0.5382(8) 0.0087(11)
O12_2 O 0.2262(6) 0.5382(8) 0.4913(11)
O22_2 O 0.0650(8) 0.4940(13) 0.1380(10)
O23_2 O 0.0650(8) 0.4940(13) 0.3620(10)
O26_2 O 0.3292(6) 0.5330(8) 0.1160(10)
O36_2 O 0.1561(9) 0.4073(13) 0.2500
C23_2 C 0.2883(9) 0.5281(13) 0.0064(16)
O16_2 O 0.4940(6) 0.4290(10) 0.8620(10)
O17_2 O 0.4940(6) 0.4290(10) 0.6380(10)
O25_2 O 0.3292(6) 0.5330(8) 0.3840(10)
C7_2 C 0.4061(12) 0.4724(18) 0.7500
C10_2 C 0.3176(8) 0.5129(11) 0.6270(14)
C11_2 C 0.3176(8) 0.5129(11) 0.8730(14)
C14_2 C 0.2861(12) 0.5230(16) 0.7500
H3_2 H 0.2437 0.5367 0.7500
C17_2 C 0.3782(9) 0.4893(12) 0.6243(14)
C18_2 C 0.3782(9) 0.4893(12) 0.8757(14)
H6_2 H 0.4004 0.4845 0.5415
H7_2 H 0.4004 0.4845 0.9585
C22_2 C 0.2883(9) 0.5281(13) 0.4936(16)
C26_2 C 0.4674(12) 0.4418(17) 0.7500
C27_2 C 0.0256(12) 0.4674(21) 0.2500
O9_2 O 0.6880(6) 0.2262(10) 0.5087(11)
O27_2 O 0.7962(6) 0.3292(10) 0.6160(10)
C8_2 C 0.9337(13) 0.4061(22) 0.2500
C12_2 C 0.8047(8) 0.3176(14) 0.3730(14)
C13_2 C 0.8047(8) 0.3176(14) 0.1270(14)
C15_2 C 0.7631(11) 0.2861(19) 0.2500
H4_2 H 0.7070 0.2437 0.2500
C19_2 C 0.8889(8) 0.3782(14) 0.3757(14)
C20_2 C 0.8889(8) 0.3782(14) 0.1243(14)
H8_2 H 0.9159 0.4004 0.4585
H9_2 H 0.9159 0.4004 0.0415
C24_2 C 0.7602(9) 0.2883(16) 0.5064(16)
O10_2 O 0.6880(6) 0.2262(10) 0.9913(11)
O28_2 O 0.7962(6) 0.3292(10) 0.8840(10)
C25_2 C 0.7602(9) 0.2883(16) 0.9936(16)
O16_3 O 0.5710(10) 0.0650(8) 0.8620(10)
O17_3 O 0.5710(10) 0.0650(8) 0.6380(10)
C26_3 C 0.5582(17) 0.0256(12) 0.7500
O8_3 O 0.4618(8) 0.6880(6) 0.0087(11)
O12_3 O 0.4618(8) 0.6880(6) 0.4913(11)
O22_3 O 0.5060(13) 0.5710(10) 0.1380(10)
O23_3 O 0.5060(13) 0.5710(10) 0.3620(10)
O36_3 O 0.5927(13) 0.7488(9) 0.2500
C23_3 C 0.4719(13) 0.7602(9) 0.0064(16)
O9_3 O 0.7738(10) 0.4618(8) 0.5087(11)
O27_3 O 0.6708(10) 0.4670(8) 0.6160(10)
C7_3 C 0.5276(18) 0.9337(13) 0.7500
C8_3 C 0.5939(22) 0.5276(18) 0.2500
C10_3 C 0.4871(11) 0.8047(8) 0.6270(14)
C11_3 C 0.4871(11) 0.8047(8) 0.8730(14)
C12_3 C 0.6824(14) 0.4871(11) 0.3730(14)
C13_3 C 0.6824(14) 0.4871(11) 0.1270(14)
C14_3 C 0.4770(16) 0.7631(11) 0.7500
C15_3 C 0.7139(19) 0.4770(16) 0.2500
H3_3 H 0.4633 0.7070 0.7500
H4_3 H 0.7563 0.4633 0.2500
C17_3 C 0.5107(12) 0.8889(8) 0.6243(14)
C18_3 C 0.5107(12) 0.8889(8) 0.8757(14)
C19_3 C 0.6218(14) 0.5107(12) 0.3757(14)
C20_3 C 0.6218(14) 0.5107(12) 0.1243(14)
H6_3 H 0.5155 0.9159 0.5415
H7_3 H 0.5155 0.9159 0.9585
H8_3 H 0.5996 0.5155 0.4585
H9_3 H 0.5996 0.5155 0.0415
C22_3 C 0.4719(13) 0.7602(9) 0.4936(16)
C24_3 C 0.7117(16) 0.4719(13) 0.5064(16)
C27_3 C 0.5326(21) 0.5582(17) 0.2500
O10_3 O 0.7738(10) 0.4618(8) 0.9913(11)
O28_3 O 0.6708(10) 0.4670(8) 0.8840(10)
C25_3 C 0.7117(16) 0.4719(13) 0.9936(16)
O14_2 O 0.6667 0.3333 0.7500
O36_4 O 0.7488(9) 0.1561(9) 0.7500
O36_5 O 0.8439(9) 0.5927(13) 0.7500
O36_6 O 0.4073(13) 0.2512(9) 0.7500
loop_
_geom_bond_atom_site_label_1
_geom_bond_atom_site_label_2
_geom_bond_site_symmetry_1
_geom_bond_site_symmetry_2
U10 O9 1_555 1_555
U11 O27 1_555 1_555
O9 C24 1_555 1_555
O27 C24 1_555 1_555
C8 C19 1_555 1_555
C12 C15 1_555 1_555
C13 C15 1_555 1_555
C15 H4 1_555 1_555
C19 C12 1_555 1_555
C20 C8 1_555 1_555
H8 C19 1_555 1_555
H9 C20 1_555 1_555
C24 C12 1_555 1_555
C13 C20 1_555 1_555
U10 O10 1_555 1_555
U11 O28 1_555 1_555
O10 C25 1_555 1_555
O28 C25 1_555 1_555
U3 O8 1_555 1_555
U9 O14 1_555 1_555
O8 C23 1_555 1_555
O12 U3 1_555 1_555
O14 U3 1_555 1_555
O22 U3 1_555 1_555
O23 U3 1_555 1_555
O26 U9 1_555 1_555
O33 U3 1_555 1_555
O34 U3 1_555 1_555
O36 U3 1_555 1_555
C23 O26 1_555 1_555
U4 O14 1_555 1_555
O25 U9 1_555 1_555
C7 C17 1_555 1_555
C10 C14 1_555 1_555
C11 C14 1_555 1_555
C14 H3 1_555 1_555
C17 C10 1_555 1_555
C18 C7 1_555 1_555
H6 C17 1_555 1_555
H7 C18 1_555 1_555
C22 O12 1_555 1_555
C27 O22 1_555 1_555
O23 C27 1_555 1_555
O25 C22 1_555 1_555
C10 C22 1_555 1_555
C11 C18 1_555 1_555
U8 O16 1_555 1_555
O16 C26 1_555 1_555
O17 U8 1_555 1_555
C26 O17 1_555 1_555
U9 O8_2 1_555 1_555
O8_2 C23_2 1_555 1_555
O12_2 U9 1_555 1_555
O22_2 U9 1_555 1_555
O23_2 U9 1_555 1_555
O26_2 U4 1_555 1_555
O36_2 U9 1_555 1_555
C23_2 O26_2 1_555 1_555
U10 O16_2 1_555 1_555
O16_2 C26_2 1_555 1_555
O17_2 U10 1_555 1_555
O25_2 U4 1_555 1_555
C7_2 C17_2 1_555 1_555
C10_2 C14_2 1_555 1_555
C11_2 C14_2 1_555 1_555
C14_2 H3_2 1_555 1_555
C17_2 C10_2 1_555 1_555
C18_2 C7_2 1_555 1_555
H6_2 C17_2 1_555 1_555
H7_2 C18_2 1_555 1_555
C22_2 O12_2 1_555 1_555
C26_2 O17_2 1_555 1_555
C27_2 O22_2 1_555 1_555
O23_2 C27_2 1_555 1_555
O25_2 C22_2 1_555 1_555
C7_2 C26_2 1_555 1_555
C10_2 C22_2 1_555 1_555
C11_2 C18_2 1_555 1_555
U11 O9_2 1_555 1_555
U8 O27_2 1_555 1_555
O9_2 C24_2 1_555 1_555
O27_2 C24_2 1_555 1_555
C8_2 C19_2 1_555 1_555
C12_2 C15_2 1_555 1_555
C13_2 C15_2 1_555 1_555
C15_2 H4_2 1_555 1_555
C19_2 C12_2 1_555 1_555
C20_2 C8_2 1_555 1_555
H8_2 C19_2 1_555 1_555
H9_2 C20_2 1_555 1_555
C24_2 C12_2 1_555 1_555
C13_2 C20_2 1_555 1_555
U11 O10_2 1_555 1_555
U8 O28_2 1_555 1_555
O10_2 C25_2 1_555 1_555
O28_2 C25_2 1_555 1_555
U11 O16_3 1_555 1_555
O16_3 C26_3 1_555 1_555
O17_3 U11 1_555 1_555
C26_3 O17_3 1_555 1_555
U4 O8_3 1_555 1_555
O8_3 C23_3 1_555 1_555
O12_3 U4 1_555 1_555
O22_3 U4 1_555 1_555
O23_3 U4 1_555 1_555
O36_3 U4 1_555 1_555
C23_3 O33 1_555 1_555
U8 O9_3 1_555 1_555
U10 O27_3 1_555 1_555
O9_3 C24_3 1_555 1_555
O27_3 C24_3 1_555 1_555
C7_3 C17_3 1_555 1_555
C8_3 C19_3 1_555 1_555
C10_3 C14_3 1_555 1_555
C11_3 C14_3 1_555 1_555
C12_3 C15_3 1_555 1_555
C13_3 C15_3 1_555 1_555
C14_3 H3_3 1_555 1_555
C15_3 H4_3 1_555 1_555
C17_3 C10_3 1_555 1_555
C18_3 C7_3 1_555 1_555
C19_3 C12_3 1_555 1_555
C20_3 C8_3 1_555 1_555
H6_3 C17_3 1_555 1_555
H7_3 C18_3 1_555 1_555
H8_3 C19_3 1_555 1_555
H9_3 C20_3 1_555 1_555
C22_3 O12_3 1_555 1_555
C24_3 C12_3 1_555 1_555
C27_3 O22_3 1_555 1_555
O23_3 C27_3 1_555 1_555
O34 C22_3 1_555 1_555
C8_3 C27_3 1_555 1_555
C10_3 C22_3 1_555 1_555
C11_3 C18_3 1_555 1_555
C13_3 C20_3 1_555 1_555
U8 O10_3 1_555 1_555
U10 O28_3 1_555 1_555
O10_3 C25_3 1_555 1_555
O28_3 C25_3 1_555 1_555
U8 O14_2 1_555 1_555
O14_2 U11 1_555 1_555
O36_4 U11 1_555 1_555
U10 O14_2 1_555 1_555
O36_5 U8 1_555 1_555
O36_6 U10 1_555 1_555

#END
