
###############################################################################
#
# This file contains modified crystal structure data generated from the
# MOF subset of the Cambridge Structural Database (CSD) v543 
# hosted by the Cambridge Crystallographic Data Centre (CCDC).
#
# This work is licensed under the Creative Commons
# Attribution-NonCommercial-ShareAlike 4.0 International License.
# To view a copy of this license, visit
# http://creativecommons.org/licenses/by-nc-sa/4.0/
# or send a letter to
# Creative Commons, PO Box 1866, Mountain View, CA 94042, USA.
#
# CIF created using the CSD Python API on 29 September 2022
# The structure has been converted into the P1 space group
# The structure has a 3D framework
# The original CSD entry NANMEW is in the hexagonal crystal system
# The framework has been calculated to contain at least 10.0% void space
# The void calculation uses a probe of radius 1.32A, grid spacing 0.4
#
###############################################################################

data_NANMEW
_chemical_formula_moiety         '(C84 H60 La2 Mg15 N12 O66)n'
_symmetry_cell_setting           triclinic
_symmetry_space_group_name_H-M   'P 1'
_symmetry_Int_Tables_number      1
_space_group_name_Hall           'P 1'
loop_
_symmetry_equiv_pos_site_id
_symmetry_equiv_pos_as_xyz
1 x,y,z
_cell_length_a                   15.677(2)
_cell_length_b                   15.677(2)
_cell_length_c                   15.100(3)
_cell_angle_alpha                90
_cell_angle_beta                 90
_cell_angle_gamma                120
_cell_volume                     3213.91
loop_
_atom_site_label
_atom_site_type_symbol
_atom_site_fract_x
_atom_site_fract_y
_atom_site_fract_z
Mg11 Mg 0.5000 0.5000 0.0000
La5 La 0.3334 0.6667 0.2500
La6 La 0.3334 0.6667 0.7500
Mg2 Mg -0.0000 0.5000 0.5000
Mg5 Mg 0.0000 0.5000 0.0000
Mg11_2 Mg 0.5000 0.5000 1.0000
O15 O 0.05739(14) 0.44582(10) 0.40539(9)
O16 O 0.38843(10) 0.44582(10) 0.09461(9)
O17 O 0.05739(14) 0.44582(10) 0.59461(9)
O18 O 0.38843(10) 0.44582(10) 0.90539(9)
O30 O 0.05739(14) 0.61157(10) 0.09461(9)
O47 O 0.19507(13) 0.57851(9) 0.35938(9)
O48 O 0.38344(10) 0.57851(9) 0.14062(9)
O49 O 0.19507(13) 0.57851(9) 0.64062(9)
O50 O 0.38344(10) 0.57851(9) 0.85938(9)
O71 O 0.12916(19) 0.63952(13) 0.5000
O77 O 0.12916(19) 0.48964(14) 0.0000
H9 H 0.1577 0.6352 0.4537
H10 H 0.1577 0.6352 0.5463
H21 H 0.1577 0.5225 0.0463
N7 N 0.23652(17) 0.47305(15) 0.2500
N8 N 0.23652(17) 0.47305(15) 0.7500
C10 C 0.13523(23) 0.2705(2) 0.2500
C11 C 0.13523(23) 0.2705(2) 0.7500
H32 H 0.1010 0.2020 0.2500
H33 H 0.1010 0.2020 0.7500
C27 C 0.10652(21) 0.32163(14) 0.30574(17)
C28 C 0.21511(16) 0.32163(14) 0.19426(17)
C29 C 0.10652(21) 0.32163(14) 0.69426(17)
C30 C 0.21511(16) 0.32163(14) 0.80574(17)
H49 H 0.0534 0.2884 0.3440
H50 H 0.2350 0.2884 0.1560
H51 H 0.0534 0.2884 0.6560
H52 H 0.2350 0.2884 0.8440
C50 C 0.15892(18) 0.42361(13) 0.30306(12)
C51 C 0.26469(13) 0.42361(13) 0.19694(12)
C52 C 0.15892(18) 0.42361(13) 0.69694(12)
C53 C 0.26469(13) 0.42361(13) 0.80306(12)
C73 C 0.13402(19) 0.48658(14) 0.36094(12)
C74 C 0.35256(13) 0.48658(14) 0.13906(12)
C75 C 0.13402(19) 0.48658(14) 0.63906(12)
C76 C 0.35256(13) 0.48658(14) 0.86094(12)
Mg5_2 Mg 0.0000 0.5000 1.0000
O31 O 0.05739(14) 0.61157(10) 0.90539(9)
O77_2 O 0.12916(19) 0.48964(14) 1.0000
H22 H 0.1577 0.5225 0.9537
La1 La 0.6667 0.3333 0.2500
O1 O 0.61157(10) 0.55418(10) 0.09461(9)
O2 O 0.61656(10) 0.42149(9) 0.14062(9)
O3 O 0.48964(14) 0.36048(13) 0.0000
H1 H 0.5225 0.3648 0.0463
N1 N 0.76347(7) 0.52695(15) 0.2500
C1 C 0.86473(11) 0.7295(2) 0.2500
H2 H 0.8990 0.7980 0.2500
C2 C 0.78489(16) 0.67837(14) 0.19426(17)
H3 H 0.7650 0.7116 0.1560
C3 C 0.73531(13) 0.57639(13) 0.19694(12)
C4 C 0.64744(13) 0.51342(14) 0.13906(12)
La7 La 0.6666 0.3333 0.7500
Mg2_2 Mg 1.0000 0.5000 0.5000
Mg3 Mg 0.5000 0.0000 0.0000
Mg4 Mg 0.5000 0.5000 0.5000
Mg5_3 Mg 1.0000 0.5000 0.0000
Mg6 Mg 0.5000 0.0000 0.5000
O4 O 0.94261(14) 0.55418(10) 0.40539(9)
O5 O 0.44582(10) 0.05739(14) 0.09461(9)
O6 O 0.44582(10) 0.38843(10) 0.40539(9)
O7 O 0.94261(14) 0.38843(10) 0.09461(9)
O8 O 0.61157(10) 0.05739(14) 0.40539(9)
O19 O 0.94261(14) 0.55418(10) 0.59461(9)
O20 O 0.61157(10) 0.55418(10) 0.90539(9)
O27 O 0.55418(10) 0.61157(10) 0.40539(9)
O28 O 0.55418(10) 0.61157(10) 0.59461(9)
O29 O 0.44582(10) 0.38843(10) 0.59461(9)
O35 O 0.61157(10) 0.05739(14) 0.59461(9)
O36 O 0.80493(13) 0.42149(9) 0.35938(9)
O37 O 0.57851(9) 0.19507(13) 0.14062(9)
O38 O 0.57851(9) 0.38344(10) 0.35938(9)
O39 O 0.80493(13) 0.38344(10) 0.14062(9)
O40 O 0.61656(10) 0.19507(13) 0.35938(9)
O51 O 0.80493(13) 0.42149(9) 0.64062(9)
O52 O 0.61656(10) 0.42149(9) 0.85938(9)
O59 O 0.42149(9) 0.80493(13) 0.14062(9)
O60 O 0.19507(13) 0.61656(10) 0.14062(9)
O61 O 0.42149(9) 0.61656(10) 0.35938(9)
O62 O 0.38344(10) 0.80493(13) 0.35938(9)
O69 O 0.51036(14) 0.63952(13) 0.0000
O70 O 0.87084(19) 0.36048(13) 0.5000
O72 O 0.63952(13) 0.12916(19) 0.0000
O74 O 0.63952(13) 0.51036(14) 0.5000
O75 O 0.36048(13) 0.48964(14) 0.5000
O76 O 0.87084(19) 0.51036(14) 0.0000
O78 O 0.48964(14) 0.12916(19) 0.5000
H5 H 0.4775 0.6352 0.0463
H7 H 0.8423 0.3648 0.4537
H8 H 0.8423 0.3648 0.5463
H11 H 0.6352 0.1577 0.0463
H15 H 0.6352 0.4775 0.4537
H16 H 0.6352 0.4775 0.5463
H17 H 0.3648 0.5225 0.4537
H18 H 0.3648 0.5225 0.5463
H19 H 0.8423 0.4775 0.0463
H23 H 0.5225 0.1577 0.4537
H24 H 0.5225 0.1577 0.5463
N2 N 0.47305(15) 0.23652(17) 0.2500
N3 N 0.76348(17) 0.23653(7) 0.2500
N9 N 0.76348(17) 0.52695(15) 0.7500
N13 N 0.52695(15) 0.76348(17) 0.2500
N14 N 0.23652(17) 0.76347(7) 0.2500
C5 C 0.2705(2) 0.13523(23) 0.2500
C6 C 0.86477(23) 0.13527(11) 0.2500
C12 C 0.86477(23) 0.7295(2) 0.7500
H27 H 0.2020 0.1010 0.2500
H28 H 0.8990 0.1010 0.2500
H34 H 0.8990 0.7980 0.7500
C16 C 0.89348(21) 0.67837(14) 0.30574(17)
C17 C 0.32163(14) 0.10652(21) 0.19426(17)
C18 C 0.32163(14) 0.21511(16) 0.30574(17)
C19 C 0.89348(21) 0.21511(16) 0.19426(17)
C20 C 0.78489(16) 0.10652(21) 0.30574(17)
C31 C 0.89348(21) 0.67837(14) 0.69426(17)
C32 C 0.78489(16) 0.67837(14) 0.80574(17)
H38 H 0.9466 0.7116 0.3440
H39 H 0.2884 0.0534 0.1560
H40 H 0.2884 0.2350 0.3440
H41 H 0.9466 0.2350 0.1560
H42 H 0.7650 0.0534 0.3440
H53 H 0.9466 0.7116 0.6560
H54 H 0.7650 0.7116 0.8440
C39 C 0.84108(18) 0.57639(13) 0.30306(12)
C40 C 0.42361(13) 0.15892(18) 0.19694(12)
C41 C 0.42361(13) 0.26469(13) 0.30306(12)
C42 C 0.84108(18) 0.26469(13) 0.19694(12)
C43 C 0.73531(13) 0.15892(18) 0.30306(12)
C54 C 0.84108(18) 0.57639(13) 0.69694(12)
C55 C 0.73531(13) 0.57639(13) 0.80306(12)
C62 C 0.86598(19) 0.51342(14) 0.36094(12)
C63 C 0.48658(14) 0.13402(19) 0.13906(12)
C64 C 0.48658(14) 0.35256(13) 0.36094(12)
C65 C 0.86598(19) 0.35256(13) 0.13906(12)
C66 C 0.64744(13) 0.13402(19) 0.36094(12)
C77 C 0.86598(19) 0.51342(14) 0.63906(12)
C78 C 0.64744(13) 0.51342(14) 0.86094(12)
O3_2 O 0.48964(14) 0.36048(13) 1.0000
Mg3_2 Mg 0.5000 0.0000 1.0000
Mg5_4 Mg 1.0000 0.5000 1.0000
O25 O 0.44582(10) 0.05739(14) 0.90539(9)
O32 O 0.94261(14) 0.38843(10) 0.90539(9)
O57 O 0.57851(9) 0.19507(13) 0.85938(9)
O58 O 0.57851(9) 0.38344(10) 0.64062(9)
O63 O 0.42149(9) 0.80493(13) 0.85938(9)
O64 O 0.19507(13) 0.61656(10) 0.85938(9)
O65 O 0.42149(9) 0.61656(10) 0.64062(9)
O66 O 0.38344(10) 0.80493(13) 0.64062(9)
O67 O 0.80493(13) 0.38344(10) 0.85938(9)
O68 O 0.61656(10) 0.19507(13) 0.64062(9)
O69_2 O 0.51036(14) 0.63952(13) 1.0000
O72_2 O 0.63952(13) 0.12916(19) 1.0000
O76_2 O 0.87084(19) 0.51036(14) 1.0000
H4 H 0.5225 0.3648 0.9537
H6 H 0.4775 0.6352 0.9537
H12 H 0.6352 0.1577 0.9537
H20 H 0.8423 0.4775 0.9537
N12 N 0.47305(15) 0.23652(17) 0.7500
N15 N 0.52695(15) 0.76348(17) 0.7500
N16 N 0.23652(17) 0.76347(7) 0.7500
N17 N 0.76348(17) 0.23653(7) 0.7500
C15 C 0.2705(2) 0.13523(23) 0.7500
H37 H 0.2020 0.1010 0.7500
C37 C 0.32163(14) 0.10652(21) 0.80574(17)
C38 C 0.32163(14) 0.21511(16) 0.69426(17)
H59 H 0.2884 0.0534 0.8440
H60 H 0.2884 0.2350 0.6560
C60 C 0.42361(13) 0.15892(18) 0.80306(12)
C61 C 0.42361(13) 0.26469(13) 0.69694(12)
C83 C 0.48658(14) 0.13402(19) 0.86094(12)
C84 C 0.48658(14) 0.35256(13) 0.63906(12)
Mg3_3 Mg 0.5000 1.0000 0.0000
Mg6_2 Mg 0.5000 1.0000 0.5000
O21 O 0.55418(10) 0.94261(14) 0.09461(9)
O33 O 0.38843(10) 0.94261(14) 0.40539(9)
O34 O 0.38843(10) 0.94261(14) 0.59461(9)
O73 O 0.36048(13) 0.87084(19) 0.0000
O79 O 0.51036(14) 0.87084(19) 0.5000
H13 H 0.3648 0.8423 0.0463
H25 H 0.4775 0.8423 0.4537
H26 H 0.4775 0.8423 0.5463
C13 C 0.7295(2) 0.86477(23) 0.2500
H35 H 0.7980 0.8990 0.2500
C33 C 0.67837(14) 0.89348(21) 0.19426(17)
C34 C 0.67837(14) 0.78489(16) 0.30574(17)
H55 H 0.7116 0.9466 0.1560
H56 H 0.7116 0.7650 0.3440
C56 C 0.57639(13) 0.84108(18) 0.19694(12)
C57 C 0.57639(13) 0.73531(13) 0.30306(12)
C79 C 0.51342(14) 0.86598(19) 0.13906(12)
C80 C 0.51342(14) 0.64744(13) 0.36094(12)
Mg3_4 Mg 0.5000 1.0000 1.0000
O23 O 0.55418(10) 0.94261(14) 0.90539(9)
O73_2 O 0.36048(13) 0.87084(19) 1.0000
H14 H 0.3648 0.8423 0.9537
C14 C 0.7295(2) 0.86477(23) 0.7500
H36 H 0.7980 0.8990 0.7500
C35 C 0.67837(14) 0.89348(21) 0.80574(17)
C36 C 0.67837(14) 0.78489(16) 0.69426(17)
H57 H 0.7116 0.9466 0.8440
H58 H 0.7116 0.7650 0.6560
C58 C 0.57639(13) 0.84108(18) 0.80306(12)
C59 C 0.57639(13) 0.73531(13) 0.69694(12)
C81 C 0.51342(14) 0.86598(19) 0.86094(12)
C82 C 0.51342(14) 0.64744(13) 0.63906(12)
C13_2 C 0.13523(23) 0.86473(30) 0.2500
H35_2 H 0.1010 0.8990 0.2500
C33_2 C 0.10652(21) 0.78489(25) 0.19426(17)
C34_2 C 0.21511(16) 0.89348(21) 0.30574(17)
H55_2 H 0.0534 0.7650 0.1560
H56_2 H 0.2350 0.9466 0.3440
C56_2 C 0.15892(18) 0.73531(22) 0.19694(12)
C57_2 C 0.26469(13) 0.84108(18) 0.30306(12)
C79_2 C 0.13402(19) 0.64744(24) 0.13906(12)
C80_2 C 0.35256(13) 0.86598(19) 0.36094(12)
C14_2 C 0.13523(23) 0.86473(30) 0.7500
H36_2 H 0.1010 0.8990 0.7500
C35_2 C 0.10652(21) 0.78489(25) 0.80574(17)
C36_2 C 0.21511(16) 0.89348(21) 0.69426(17)
H57_2 H 0.0534 0.7650 0.8440
H58_2 H 0.2350 0.9466 0.6560
C58_2 C 0.15892(18) 0.73531(22) 0.80306(12)
C59_2 C 0.26469(13) 0.84108(18) 0.69694(12)
C81_2 C 0.13402(19) 0.64744(24) 0.86094(12)
C82_2 C 0.35256(13) 0.86598(19) 0.63906(12)
C15_2 C 0.86477(23) 0.13527(30) 0.7500
H37_2 H 0.8990 0.1010 0.7500
C37_2 C 0.89348(21) 0.21511(25) 0.80574(17)
C38_2 C 0.78489(16) 0.10652(21) 0.69426(17)
H59_2 H 0.9466 0.2350 0.8440
H60_2 H 0.7650 0.0534 0.6560
C60_2 C 0.84108(18) 0.26469(22) 0.80306(12)
C61_2 C 0.73531(13) 0.15892(18) 0.69694(12)
C83_2 C 0.86598(19) 0.35256(24) 0.86094(12)
C84_2 C 0.64744(13) 0.13402(19) 0.63906(12)
loop_
_geom_bond_atom_site_label_1
_geom_bond_atom_site_label_2
_geom_bond_site_symmetry_1
_geom_bond_site_symmetry_2
La5 O47 1_555 1_555
La6 O49 1_555 1_555
Mg11 O16 1_555 1_555
Mg11_2 O18 1_555 1_555
O15 Mg2 1_555 1_555
O16 C74 1_555 1_555
O17 Mg2 1_555 1_555
O18 C76 1_555 1_555
O30 Mg5 1_555 1_555
O47 C73 1_555 1_555
O48 La5 1_555 1_555
O49 C75 1_555 1_555
O50 La6 1_555 1_555
O71 Mg2 1_555 1_555
O77 Mg5 1_555 1_555
H9 O71 1_555 1_555
H10 O71 1_555 1_555
H21 O77 1_555 1_555
N7 La5 1_555 1_555
N8 La6 1_555 1_555
C10 H32 1_555 1_555
C11 H33 1_555 1_555
C27 C10 1_555 1_555
C28 C10 1_555 1_555
C29 C11 1_555 1_555
C30 C11 1_555 1_555
H49 C27 1_555 1_555
H50 C28 1_555 1_555
H51 C29 1_555 1_555
H52 C30 1_555 1_555
C50 N7 1_555 1_555
C51 N7 1_555 1_555
C52 N8 1_555 1_555
C53 N8 1_555 1_555
C73 O15 1_555 1_555
C74 O48 1_555 1_555
C75 O17 1_555 1_555
C76 O50 1_555 1_555
C27 C50 1_555 1_555
C28 C51 1_555 1_555
C29 C52 1_555 1_555
C30 C53 1_555 1_555
C50 C73 1_555 1_555
C51 C74 1_555 1_555
C52 C75 1_555 1_555
C53 C76 1_555 1_555
O31 Mg5_2 1_555 1_555
O77_2 Mg5_2 1_555 1_555
H22 O77_2 1_555 1_555
La1 O2 1_555 1_555
Mg11 O1 1_555 1_555
O1 C4 1_555 1_555
O2 C4 1_555 1_555
O3 Mg11 1_555 1_555
H1 O3 1_555 1_555
N1 La1 1_555 1_555
C1 H2 1_555 1_555
C2 C1 1_555 1_555
H3 C2 1_555 1_555
C3 N1 1_555 1_555
C4 C3 1_555 1_555
La7 O51 1_555 1_555
Mg2_2 O4 1_555 1_555
Mg3 O5 1_555 1_555
Mg4 O6 1_555 1_555
Mg5_3 O7 1_555 1_555
Mg6 O8 1_555 1_555
Mg11_2 O20 1_555 1_555
O4 C62 1_555 1_555
O5 C63 1_555 1_555
O6 C64 1_555 1_555
O7 C65 1_555 1_555
O8 C66 1_555 1_555
O19 Mg2_2 1_555 1_555
O20 C78 1_555 1_555
O27 Mg4 1_555 1_555
O28 Mg4 1_555 1_555
O29 Mg4 1_555 1_555
O35 Mg6 1_555 1_555
O36 La1 1_555 1_555
O37 La1 1_555 1_555
O38 La1 1_555 1_555
O39 La1 1_555 1_555
O40 La1 1_555 1_555
O51 C77 1_555 1_555
O52 La7 1_555 1_555
O59 La5 1_555 1_555
O60 La5 1_555 1_555
O61 La5 1_555 1_555
O62 La5 1_555 1_555
O69 Mg11 1_555 1_555
O70 Mg2_2 1_555 1_555
O72 Mg3 1_555 1_555
O74 Mg4 1_555 1_555
O75 Mg4 1_555 1_555
O76 Mg5_3 1_555 1_555
O78 Mg6 1_555 1_555
H5 O69 1_555 1_555
H7 O70 1_555 1_555
H8 O70 1_555 1_555
H11 O72 1_555 1_555
H15 O74 1_555 1_555
H16 O74 1_555 1_555
H17 O75 1_555 1_555
H18 O75 1_555 1_555
H19 O76 1_555 1_555
H23 O78 1_555 1_555
H24 O78 1_555 1_555
N2 La1 1_555 1_555
N3 La1 1_555 1_555
N9 La7 1_555 1_555
N13 La5 1_555 1_555
N14 La5 1_555 1_555
C5 H27 1_555 1_555
C6 H28 1_555 1_555
C12 H34 1_555 1_555
C16 C1 1_555 1_555
C17 C5 1_555 1_555
C18 C5 1_555 1_555
C19 C6 1_555 1_555
C20 C6 1_555 1_555
C31 C12 1_555 1_555
C32 C12 1_555 1_555
H38 C16 1_555 1_555
H39 C17 1_555 1_555
H40 C18 1_555 1_555
H41 C19 1_555 1_555
H42 C20 1_555 1_555
H53 C31 1_555 1_555
H54 C32 1_555 1_555
C39 N1 1_555 1_555
C40 N2 1_555 1_555
C41 N2 1_555 1_555
C42 N3 1_555 1_555
C43 N3 1_555 1_555
C54 N9 1_555 1_555
C55 N9 1_555 1_555
C62 O36 1_555 1_555
C63 O37 1_555 1_555
C64 O38 1_555 1_555
C65 O39 1_555 1_555
C66 O40 1_555 1_555
C77 O19 1_555 1_555
C78 O52 1_555 1_555
C2 C3 1_555 1_555
C16 C39 1_555 1_555
C17 C40 1_555 1_555
C18 C41 1_555 1_555
C19 C42 1_555 1_555
C20 C43 1_555 1_555
C31 C54 1_555 1_555
C32 C55 1_555 1_555
C39 C62 1_555 1_555
C40 C63 1_555 1_555
C41 C64 1_555 1_555
C42 C65 1_555 1_555
C43 C66 1_555 1_555
C54 C77 1_555 1_555
C55 C78 1_555 1_555
O3_2 Mg11_2 1_555 1_555
O25 Mg3_2 1_555 1_555
O29 C84 1_555 1_555
O32 Mg5_4 1_555 1_555
O57 La7 1_555 1_555
O58 La7 1_555 1_555
O63 La6 1_555 1_555
O64 La6 1_555 1_555
O65 La6 1_555 1_555
O66 La6 1_555 1_555
O67 La7 1_555 1_555
O68 La7 1_555 1_555
O69_2 Mg11_2 1_555 1_555
O72_2 Mg3_2 1_555 1_555
O76_2 Mg5_4 1_555 1_555
H4 O3_2 1_555 1_555
H6 O69_2 1_555 1_555
H12 O72_2 1_555 1_555
H20 O76_2 1_555 1_555
N12 La7 1_555 1_555
N15 La6 1_555 1_555
N16 La6 1_555 1_555
N17 La7 1_555 1_555
C15 H37 1_555 1_555
C37 C15 1_555 1_555
C38 C15 1_555 1_555
H59 C37 1_555 1_555
H60 C38 1_555 1_555
C60 N12 1_555 1_555
C61 N12 1_555 1_555
C83 O25 1_555 1_555
C84 O58 1_555 1_555
O57 C83 1_555 1_555
C37 C60 1_555 1_555
C38 C61 1_555 1_555
C60 C83 1_555 1_555
C61 C84 1_555 1_555
O21 Mg3_3 1_555 1_555
O27 C80 1_555 1_555
O33 Mg6_2 1_555 1_555
O34 Mg6_2 1_555 1_555
O59 C79 1_555 1_555
O73 Mg3_3 1_555 1_555
O79 Mg6_2 1_555 1_555
H13 O73 1_555 1_555
H25 O79 1_555 1_555
H26 O79 1_555 1_555
C13 H35 1_555 1_555
C33 C13 1_555 1_555
C34 C13 1_555 1_555
H55 C33 1_555 1_555
H56 C34 1_555 1_555
C56 N13 1_555 1_555
C57 N13 1_555 1_555
C79 O21 1_555 1_555
C80 O61 1_555 1_555
C33 C56 1_555 1_555
C34 C57 1_555 1_555
C56 C79 1_555 1_555
C57 C80 1_555 1_555
O23 Mg3_4 1_555 1_555
O28 C82 1_555 1_555
O63 C81 1_555 1_555
O73_2 Mg3_4 1_555 1_555
H14 O73_2 1_555 1_555
C14 H36 1_555 1_555
C35 C14 1_555 1_555
C36 C14 1_555 1_555
H57 C35 1_555 1_555
H58 C36 1_555 1_555
C58 N15 1_555 1_555
C59 N15 1_555 1_555
C81 O23 1_555 1_555
C82 O65 1_555 1_555
C35 C58 1_555 1_555
C36 C59 1_555 1_555
C58 C81 1_555 1_555
C59 C82 1_555 1_555
O33 C80_2 1_555 1_555
O60 C79_2 1_555 1_555
C13_2 H35_2 1_555 1_555
C33_2 C13_2 1_555 1_555
C34_2 C13_2 1_555 1_555
H55_2 C33_2 1_555 1_555
H56_2 C34_2 1_555 1_555
C56_2 N14 1_555 1_555
C57_2 N14 1_555 1_555
C79_2 O30 1_555 1_555
C80_2 O62 1_555 1_555
C33_2 C56_2 1_555 1_555
C34_2 C57_2 1_555 1_555
C56_2 C79_2 1_555 1_555
C57_2 C80_2 1_555 1_555
O34 C82_2 1_555 1_555
O64 C81_2 1_555 1_555
C14_2 H36_2 1_555 1_555
C35_2 C14_2 1_555 1_555
C36_2 C14_2 1_555 1_555
H57_2 C35_2 1_555 1_555
H58_2 C36_2 1_555 1_555
C58_2 N16 1_555 1_555
C59_2 N16 1_555 1_555
C81_2 O31 1_555 1_555
C82_2 O66 1_555 1_555
C35_2 C58_2 1_555 1_555
C36_2 C59_2 1_555 1_555
C58_2 C81_2 1_555 1_555
C59_2 C82_2 1_555 1_555
O35 C84_2 1_555 1_555
C15_2 H37_2 1_555 1_555
C37_2 C15_2 1_555 1_555
C38_2 C15_2 1_555 1_555
H59_2 C37_2 1_555 1_555
H60_2 C38_2 1_555 1_555
C60_2 N17 1_555 1_555
C61_2 N17 1_555 1_555
C83_2 O32 1_555 1_555
C84_2 O68 1_555 1_555
O67 C83_2 1_555 1_555
C37_2 C60_2 1_555 1_555
C38_2 C61_2 1_555 1_555
C60_2 C83_2 1_555 1_555
C61_2 C84_2 1_555 1_555

#END
