
###############################################################################
#
# This file contains modified crystal structure data generated from the
# MOF subset of the Cambridge Structural Database (CSD) v543 
# hosted by the Cambridge Crystallographic Data Centre (CCDC).
#
# This work is licensed under the Creative Commons
# Attribution-NonCommercial-ShareAlike 4.0 International License.
# To view a copy of this license, visit
# http://creativecommons.org/licenses/by-nc-sa/4.0/
# or send a letter to
# Creative Commons, PO Box 1866, Mountain View, CA 94042, USA.
#
# CIF created using the CSD Python API on 29 September 2022
# The structure has been converted into the P1 space group
# The structure has a 3D framework
# The original CSD entry NANNEY is in the orthorhombic crystal system
# The original CSD entry NANNEY is in a Sohncke space group
# The framework has been calculated to contain at least 10.0% void space
# The void calculation uses a probe of radius 1.32A, grid spacing 0.4
#
###############################################################################

data_NANNEY
_chemical_formula_moiety         '(C176 H120 N40 O16 Zn4)n'
_symmetry_cell_setting           triclinic
_symmetry_space_group_name_H-M   'P 1'
_symmetry_Int_Tables_number      1
_space_group_name_Hall           'P 1'
loop_
_symmetry_equiv_pos_site_id
_symmetry_equiv_pos_as_xyz
1 x,y,z
_cell_length_a                   9.3272(10)
_cell_length_b                   21.377(2)
_cell_length_c                   21.377
_cell_angle_alpha                90
_cell_angle_beta                 90
_cell_angle_gamma                90
_cell_volume                     4262.31
loop_
_atom_site_label
_atom_site_type_symbol
_atom_site_fract_x
_atom_site_fract_y
_atom_site_fract_z
C26 C 0.5995(5) 0.40042(19) 0.76946(18)
C29 C 0.0164(5) 0.09825(19) 0.6000(2)
H20 H 0.079277 0.096223 0.633725
C30 C 0.0597(5) 0.12702(18) 0.54470(18)
C33 C 0.5456(4) 0.35243(19) 0.72361(18)
C34 C 0.6410(5) 0.3199(2) 0.68515(19)
H23 H 0.738843 0.327515 0.688727
C35 C 0.5933(5) 0.27663(19) 0.64195(18)
H24 H 0.659415 0.255368 0.617296
C36 C 0.4456(4) 0.26422(18) 0.63465(18)
C37 C 0.3512(5) 0.2954(2) 0.6747(2)
H25 H 0.253463 0.287382 0.671542
C38 C 0.3992(5) 0.3380(2) 0.71903(19)
H26 H 0.334009 0.357078 0.745836
C39 C 0.3941(4) 0.22123(19) 0.58449(18)
C40 C 0.4735(5) 0.2123(2) 0.53034(19)
H27 H 0.563785 0.230548 0.527010
C41 C 0.4211(5) 0.1769(2) 0.4811(2)
H28 H 0.475241 0.171981 0.444905
C42 C 0.2877(5) 0.1487(2) 0.4860(2)
H29 H 0.253326 0.124475 0.453117
C43 C 0.2047(5) 0.15626(19) 0.53943(19)
C44 C 0.2601(4) 0.19199(19) 0.58805(19)
H30 H 0.206140 0.196645 0.624327
O3 O 0.5040(3) 0.42541(14) 0.80520(13)
O4 O 0.7282(3) 0.41497(15) 0.77038(14)
Zn3 Zn 0.57728(4) 0.49694(2) 0.85306(2)
C1 C 0.8634(4) 0.45129(18) 0.89734(18)
H1 H 0.893139 0.440204 0.857320
C2 C 0.7446(4) 0.48573(18) 0.97409(18)
H2 H 0.671270 0.504266 0.997004
C25 C 0.3646(4) 0.54577(19) 0.9394(2)
C27 C 0.2168(5) 0.57528(18) 0.94397(18)
C28 C 0.1209(5) 0.5724(2) 0.89470(19)
H19 H 0.147995 0.552971 0.857599
C32 C 0.1720(5) 0.6027(2) 0.9989(2)
N1 N 0.7393(3) 0.47896(14) 0.91169(14)
N2 N 0.9376(3) 0.44221(15) 0.94979(14)
O1 O 0.4073(3) 0.53859(15) 0.88248(13)
O2 O 0.4297(3) 0.52970(15) 0.98556(13)
N11 N 0.6483(4) 0.56445(16) 0.79316(14)
C3 C 0.7520(5) 0.5625(2) 0.75095(18)
H3 H 0.817361 0.530002 0.746112
C4 C 0.5827(5) 0.62102(19) 0.78186(18)
H4 H 0.504874 0.635163 0.805102
C5 C 0.5598(5) 0.7134(3) 0.2724(2)
H5 H 0.531100 0.674119 0.286364
C6 C 0.5785(7) 0.7962(3) 0.2238(3)
H6 H 0.560605 0.827475 0.194585
C13 C 0.8297(4) 0.63097(19) 0.66216(17)
C14 C 0.8301(4) 0.69297(18) 0.64169(18)
H11 H 0.784656 0.723916 0.664962
C15 C 0.8985(4) 0.70766(19) 0.58677(18)
H12 H 0.897460 0.748581 0.572006
C16 C 0.9697(4) 0.66107(19) 0.55308(18)
C17 C 0.9740(4) 0.59983(19) 0.57555(18)
C18 C 0.9025(4) 0.58486(19) 0.62969(18)
H14 H 0.903112 0.543940 0.644457
C19 C 0.9388(4) 0.69642(17) 0.44572(17)
C20 C 0.9887(4) 0.73337(19) 0.39660(19)
C21 C 0.9001(4) 0.75020(18) 0.34781(19)
H16 H 0.935652 0.773606 0.314579
C22 C 0.7575(4) 0.73187(18) 0.34878(19)
C23 C 0.7042(4) 0.69836(18) 0.39862(18)
H17 H 0.607334 0.688073 0.399915
C24 C 0.7936(4) 0.67993(18) 0.44673(19)
H18 H 0.757239 0.656542 0.479810
N5 N 0.7481(3) 0.61440(15) 0.71647(15)
N6 N 0.6385(4) 0.65350(17) 0.73569(16)
N7 N 0.5023(5) 0.7429(3) 0.2244(2)
N8 N 0.6659(4) 0.74763(18) 0.29847(16)
N9 N 0.6808(5) 0.8022(2) 0.2667(2)
H2_2 H 0.328730 0.004266 0.502996
C25_2 C 0.6354(4) 0.04577(19) 0.5606(2)
C27_2 C 0.7832(5) 0.07528(18) 0.55603(18)
C28_2 C 0.8791(5) 0.0724(2) 0.60530(19)
H19_2 H 0.852005 0.052971 0.642401
C31 C 0.9641(5) 0.1279(2) 0.4949(2)
H21 H 0.991638 0.145711 0.457090
C32_2 C 0.8280(5) 0.1027(2) 0.5011(2)
H22 H 0.765319 0.104246 0.467255
O1_2 O 0.5927(3) 0.03859(15) 0.61752(13)
O2_2 O 0.5703(3) 0.02970(15) 0.51444(13)
N11_2 N 0.3517(4) 0.06445(16) 0.70684(14)
C3_2 C 0.2480(5) 0.0625(2) 0.74905(18)
H3_2 H 0.182639 0.030002 0.753888
C4_2 C 0.4173(5) 0.12102(19) 0.71814(18)
H4_2 H 0.495126 0.135163 0.694898
C13_2 C 0.1703(4) 0.13097(19) 0.83784(17)
C14_2 C 0.1699(4) 0.19297(18) 0.85831(18)
H11_2 H 0.215344 0.223916 0.835038
C15_2 C 0.1015(4) 0.20766(19) 0.91323(18)
H12_2 H 0.102540 0.248581 0.927994
C16_2 C 0.0303(4) 0.16107(19) 0.94692(18)
C17_2 C 0.0260(4) 0.09983(19) 0.92445(18)
C18_2 C 0.0975(4) 0.08486(19) 0.87031(18)
H14_2 H 0.096888 0.043940 0.855543
N5_2 N 0.2519(3) 0.11440(15) 0.78353(15)
N6_2 N 0.3615(4) 0.15350(17) 0.76431(16)
Zn1 Zn 0.42272(4) 0.99694(2) 0.64694(2)
C1_2 C 0.1366(4) 0.95129(18) 0.60266(18)
H1_2 H 0.106861 0.940204 0.642680
C2_2 C 0.2554(4) 0.98573(18) 0.52591(18)
N1_2 N 0.2607(3) 0.97896(14) 0.58831(14)
N2_2 N 0.0624(3) 0.94221(15) 0.55021(14)
N3 N 0.1379(4) 0.96399(17) 0.49994(15)
O5 O 0.4960(3) 0.92541(14) 0.69480(13)
C26_2 C 0.4005(5) 0.90042(19) 0.73054(18)
C29_2 C 0.9836(5) 0.59825(19) 0.9000(2)
H20_2 H 0.920723 0.596223 0.866275
C30_2 C 0.9403(5) 0.62702(18) 0.95530(18)
C33_2 C 0.4544(4) 0.85243(19) 0.77639(18)
C34_2 C 0.3590(5) 0.8199(2) 0.81485(19)
H23_2 H 0.261157 0.827515 0.811273
C35_2 C 0.4067(5) 0.77663(19) 0.85805(18)
H24_2 H 0.340585 0.755368 0.882704
C36_2 C 0.5544(4) 0.76422(18) 0.86535(18)
C37_2 C 0.6488(5) 0.7954(2) 0.8253(2)
H25_2 H 0.746537 0.787382 0.828458
C38_2 C 0.6008(5) 0.8380(2) 0.78097(19)
H26_2 H 0.665991 0.857078 0.754164
C39_2 C 0.6059(4) 0.72123(19) 0.91551(18)
C40_2 C 0.5265(5) 0.7123(2) 0.96966(19)
H27_2 H 0.436215 0.730548 0.972990
C43_2 C 0.7953(5) 0.65626(19) 0.96057(19)
C44_2 C 0.7399(4) 0.69199(19) 0.91195(19)
H30_2 H 0.793860 0.696645 0.875673
O4_2 O 0.2718(3) 0.91497(15) 0.72962(14)
Zn2 Zn 0.07728(4) 0.00306(2) 0.14694(2)
C1_3 C 0.3634(4) 0.04871(18) 0.10266(18)
H1_3 H 0.393139 0.059796 0.142680
C2_3 C 0.2446(4) 0.01427(18) 0.02591(18)
C7 C 0.5710(4) 0.08981(17) 0.04159(17)
C10 C 0.8324(4) 0.14920(18) 0.02050(18)
C11 C 0.8024(4) 0.12182(18) 0.07802(18)
H9 H 0.870183 0.123486 0.109882
C12 C 0.6728(4) 0.09214(19) 0.08834(17)
H10 H 0.654170 0.073714 0.126901
H15 H 0.916569 0.246917 0.103243
N1_3 N 0.2393(3) 0.02104(14) 0.08831(14)
N2_3 N 0.4376(3) 0.05779(15) 0.05021(14)
N10 N 0.9676(3) 0.17629(16) 0.00651(15)
O5_2 O 0.0040(3) 0.07459(14) 0.19480(13)
C26_3 C 0.0995(5) 0.09958(19) 0.23054(18)
C33_3 C 0.0456(4) 0.14757(19) 0.27639(18)
C34_3 C 0.1410(5) 0.1801(2) 0.31485(19)
H23_3 H 0.238843 0.172485 0.311273
C35_3 C 0.0933(5) 0.22337(19) 0.35805(18)
H24_3 H 0.159415 0.244632 0.382704
H27_3 H 0.063785 0.269452 0.472990
O4_3 O 0.2282(3) 0.08503(15) 0.22962(14)
C3_3 C 0.2520(5) 0.9375(2) 0.24905(18)
H3_3 H 0.317361 0.969998 0.253888
C4_3 C 0.0827(5) 0.87898(19) 0.21814(18)
H4_3 H 0.004874 0.864837 0.194898
C5_2 C 0.0598(5) 0.7866(3) 0.7276(2)
H5_2 H 0.031100 0.825881 0.713636
C6_2 C 0.0785(7) 0.7038(3) 0.7762(3)
H6_2 H 0.060605 0.672525 0.805415
C7_2 C 0.9290(4) 0.91019(17) 0.54159(17)
C8 C 0.9032(4) 0.88144(19) 0.48438(19)
H7 H 0.972675 0.882105 0.453177
C9 C 0.7732(4) 0.85175(19) 0.47417(19)
H8 H 0.756010 0.832236 0.436017
C10_2 C 0.6676(4) 0.85080(18) 0.52050(18)
C11_2 C 0.6976(4) 0.87818(18) 0.57802(18)
H9_2 H 0.629817 0.876514 0.609882
C12_2 C 0.8272(4) 0.90786(19) 0.58834(17)
H10_2 H 0.845830 0.926286 0.626901
C13_3 C 0.3297(4) 0.86903(19) 0.33784(17)
C14_3 C 0.3301(4) 0.80703(18) 0.35831(18)
H11_3 H 0.284656 0.776084 0.335038
C15_3 C 0.3985(4) 0.79234(19) 0.41323(18)
H12_3 H 0.397460 0.751419 0.427994
C16_3 C 0.4697(4) 0.83893(19) 0.44692(18)
C17_3 C 0.4740(4) 0.90017(19) 0.42445(18)
H13 H 0.524998 0.930698 0.446016
C18_3 C 0.4025(4) 0.91514(19) 0.37031(18)
H14_3 H 0.403112 0.956060 0.355543
C19_2 C 0.4388(4) 0.80358(17) 0.55428(17)
C20_2 C 0.4887(4) 0.76663(19) 0.60340(19)
H15_2 H 0.583431 0.753083 0.603243
C21_2 C 0.4001(4) 0.74980(18) 0.65219(19)
H16_2 H 0.435652 0.726394 0.685421
C22_2 C 0.2575(4) 0.76813(18) 0.65122(19)
C23_2 C 0.2042(4) 0.80164(18) 0.60138(18)
H17_2 H 0.107334 0.811927 0.600085
C24_2 C 0.2936(4) 0.82007(18) 0.55327(19)
H18_2 H 0.257239 0.843458 0.520190
N4 N 0.1483(4) 0.93555(16) 0.20684(14)
N5_3 N 0.2481(3) 0.88560(15) 0.28353(15)
N6_3 N 0.1385(4) 0.84650(17) 0.26431(16)
N7_2 N 0.0023(5) 0.7571(3) 0.7756(2)
N8_2 N 0.1659(4) 0.75237(18) 0.70153(16)
N9_2 N 0.1808(5) 0.6978(2) 0.7333(2)
N10_2 N 0.5324(3) 0.82371(16) 0.50651(15)
H2_3 H 0.171270 0.995734 0.002996
C5_3 C 0.4402(5) 0.2134(3) 0.2276(2)
H5_3 H 0.468900 0.174119 0.213636
C6_3 C 0.4215(7) 0.2962(3) 0.2762(3)
H6_3 H 0.439395 0.327475 0.305415
C19_3 C 0.0612(4) 0.19642(17) 0.05428(17)
C20_3 C 0.0113(4) 0.23337(19) 0.10340(19)
C21_3 C 0.0999(4) 0.25020(18) 0.15219(19)
H16_3 H 0.064348 0.273606 0.185421
C22_3 C 0.2425(4) 0.23187(18) 0.15122(19)
C23_3 C 0.2958(4) 0.19836(18) 0.10138(18)
H17_3 H 0.392666 0.188073 0.100085
C24_3 C 0.2064(4) 0.17993(18) 0.05327(19)
H18_3 H 0.242761 0.156542 0.020190
N7_3 N 0.4977(5) 0.2429(3) 0.2756(2)
N8_3 N 0.3341(4) 0.24763(18) 0.20153(16)
N9_3 N 0.3192(5) 0.3022(2) 0.2333(2)
C8_2 C 0.5968(4) 0.11856(19) 0.98438(19)
H7_2 H 0.527325 0.117895 0.953177
C9_2 C 0.7268(4) 0.14825(19) 0.97417(19)
H8_2 H 0.743990 0.167764 0.936017
H13_2 H 0.975002 0.069302 0.946016
N3_2 N 0.3621(4) 0.03601(17) 0.99994(15)
C25_3 C 0.8646(4) 0.95423(19) 0.0606(2)
C27_3 C 0.7168(5) 0.92472(18) 0.05603(18)
C28_3 C 0.6209(5) 0.9276(2) 0.10530(19)
H19_3 H 0.647995 0.947029 0.142401
C29_3 C 0.4836(5) 0.90175(19) 0.1000(2)
H20_3 H 0.420723 0.903777 0.133725
C30_3 C 0.4403(5) 0.87298(18) 0.04470(18)
C32_3 C 0.6720(5) 0.8973(2) 0.0011(2)
C36_3 C 0.0544(4) 0.73578(18) 0.13465(18)
C37_3 C 0.1488(5) 0.7046(2) 0.1747(2)
H25_3 H 0.246537 0.712618 0.171542
C38_3 C 0.1008(5) 0.6620(2) 0.21903(19)
H26_3 H 0.165991 0.642922 0.245836
C39_3 C 0.1059(4) 0.77877(19) 0.08449(18)
C40_3 C 0.0265(5) 0.7877(2) 0.03034(19)
C43_3 C 0.2953(5) 0.84374(19) 0.03943(19)
C44_3 C 0.2399(4) 0.80801(19) 0.08805(19)
H30_3 H 0.293860 0.803355 0.124327
O1_3 O 0.9073(3) 0.96141(15) 0.11752(13)
O2_3 O 0.9297(3) 0.97030(15) 0.01444(13)
C31_2 C 0.5359(5) 0.8721(2) 0.9949(2)
H21_2 H 0.508362 0.854289 0.957090
H22_2 H 0.734681 0.895754 0.967255
C41_2 C 0.0789(5) 0.8231(2) 0.9811(2)
H28_2 H 0.024759 0.828019 0.944905
C42_2 C 0.2123(5) 0.8513(2) 0.9860(2)
H29_2 H 0.246674 0.875525 0.953117
C26_4 C 0.9005(5) 0.59958(19) 0.26946(18)
C33_4 C 0.9544(4) 0.64757(19) 0.22361(18)
C34_4 C 0.8590(5) 0.6801(2) 0.18515(19)
H23_4 H 0.761157 0.672485 0.188727
C35_4 C 0.9067(5) 0.72337(19) 0.14195(18)
H24_4 H 0.840585 0.744632 0.117296
H27_4 H 0.936215 0.769452 0.027010
O3_2 O 0.9960(3) 0.57459(14) 0.30520(13)
O4_4 O 0.7718(3) 0.58503(15) 0.27038(14)
Zn3_2 Zn 0.92272(4) 0.50306(2) 0.35306(2)
C3_4 C 0.7480(5) 0.4375(2) 0.25095(18)
H3_4 H 0.682639 0.469998 0.246112
C4_4 C 0.9173(5) 0.37898(19) 0.28186(18)
H4_4 H 0.995126 0.364837 0.305102
C8_3 C 0.0968(4) 0.38144(19) 0.01562(19)
H7_3 H 0.027325 0.382105 0.046823
C9_3 C 0.2268(4) 0.35175(19) 0.02583(19)
H8_3 H 0.243990 0.332236 0.063983
C13_4 C 0.6703(4) 0.36903(19) 0.16216(17)
C14_4 C 0.6699(4) 0.30703(18) 0.14169(18)
H11_4 H 0.715344 0.276084 0.164962
C15_4 C 0.6015(4) 0.29234(19) 0.08677(18)
H12_4 H 0.602540 0.251419 0.072006
C16_4 C 0.5303(4) 0.33893(19) 0.05308(18)
C17_4 C 0.5260(4) 0.40017(19) 0.07555(18)
H13_3 H 0.475002 0.430698 0.053984
C18_4 C 0.5975(4) 0.41514(19) 0.12969(18)
H14_4 H 0.596888 0.456060 0.144457
N4_2 N 0.8517(4) 0.43555(16) 0.29316(14)
N5_4 N 0.7519(3) 0.38560(15) 0.21647(15)
N6_4 N 0.8615(4) 0.34650(17) 0.23569(16)
C1_4 C 0.6366(4) 0.54871(18) 0.39734(18)
H1_4 H 0.606861 0.559796 0.357320
C2_4 C 0.7554(4) 0.51427(18) 0.47409(18)
H2_4 H 0.828730 0.495734 0.497004
C7_3 C 0.4290(4) 0.58981(17) 0.45841(17)
C8_4 C 0.4032(4) 0.61856(19) 0.51562(19)
H7_4 H 0.472675 0.617895 0.546823
C9_4 C 0.2732(4) 0.64825(19) 0.52583(19)
H8_4 H 0.256010 0.667764 0.563983
C10_3 C 0.1676(4) 0.64920(18) 0.47950(18)
C11_3 C 0.1976(4) 0.62182(18) 0.42198(18)
H9_3 H 0.129817 0.623486 0.390118
C12_3 C 0.3272(4) 0.59214(19) 0.41166(17)
H10_3 H 0.345830 0.573714 0.373099
H13_4 H 0.024998 0.569302 0.553984
H15_3 H 0.083431 0.746917 0.396757
N1_4 N 0.7607(3) 0.52104(14) 0.41169(14)
N2_4 N 0.5624(3) 0.55779(15) 0.44979(14)
N3_3 N 0.6379(4) 0.53601(17) 0.50006(15)
N10_3 N 0.0324(3) 0.67629(16) 0.49349(15)
C5_4 C 0.9402(5) 0.2866(3) 0.7724(2)
H5_4 H 0.968900 0.325881 0.786364
C6_4 C 0.9215(7) 0.2038(3) 0.7238(3)
H6_4 H 0.939395 0.172525 0.694585
C7_4 C 0.0710(4) 0.41019(17) 0.95841(17)
C10_4 C 0.3324(4) 0.35080(18) 0.97950(18)
C11_4 C 0.3024(4) 0.37818(18) 0.92198(18)
H9_4 H 0.370183 0.376514 0.890118
C12_4 C 0.1728(4) 0.40786(19) 0.91166(17)
H10_4 H 0.154170 0.426286 0.873099
C19_4 C 0.5612(4) 0.30358(17) 0.94572(17)
C20_4 C 0.5113(4) 0.26663(19) 0.89660(19)
H15_4 H 0.416569 0.253083 0.896757
C21_4 C 0.5999(4) 0.24980(18) 0.84781(19)
H16_4 H 0.564348 0.226394 0.814579
C22_4 C 0.7425(4) 0.26813(18) 0.84878(19)
C23_4 C 0.7958(4) 0.30164(18) 0.89862(18)
H17_4 H 0.892666 0.311927 0.899915
C24_4 C 0.7064(4) 0.32007(18) 0.94673(19)
H18_4 H 0.742761 0.343458 0.979810
N7_4 N 0.9977(5) 0.2571(3) 0.7244(2)
N8_4 N 0.8341(4) 0.25237(18) 0.79847(16)
N9_4 N 0.8192(5) 0.1978(2) 0.7667(2)
N10_4 N 0.4676(3) 0.32371(16) 0.99349(15)
C31_3 C 0.0359(5) 0.6279(2) 0.0051(2)
H21_3 H 0.008362 0.645711 0.042910
H22_3 H 0.234681 0.604246 0.032745
N3_4 N 0.8621(4) 0.46399(17) 0.00006(15)
C41_3 C 0.5789(5) 0.6769(2) 0.0189(2)
H28_3 H 0.524759 0.671981 0.055095
C42_3 C 0.7123(5) 0.6487(2) 0.0140(2)
H29_3 H 0.746674 0.624475 0.046883
C25_4 C 0.1354(4) 0.45423(19) 0.4394(2)
C27_4 C 0.2832(5) 0.42472(18) 0.44397(18)
C28_4 C 0.3791(5) 0.4276(2) 0.39470(19)
H19_4 H 0.352005 0.447029 0.357599
C29_4 C 0.5164(5) 0.40175(19) 0.4000(2)
H20_4 H 0.579277 0.403777 0.366275
C30_4 C 0.5597(5) 0.37298(18) 0.45530(18)
C31_4 C 0.4641(5) 0.3721(2) 0.5051(2)
H21_4 H 0.491638 0.354289 0.542910
C32_4 C 0.3280(5) 0.3973(2) 0.4989(2)
H22_4 H 0.265319 0.395754 0.532745
C36_4 C 0.9456(4) 0.23578(18) 0.36535(18)
C37_4 C 0.8512(5) 0.2046(2) 0.3253(2)
H25_4 H 0.753463 0.212618 0.328458
C38_4 C 0.8992(5) 0.1620(2) 0.28097(19)
H26_4 H 0.834009 0.142922 0.254164
C39_4 C 0.8941(4) 0.27877(19) 0.41551(18)
C40_4 C 0.9735(5) 0.2877(2) 0.46966(19)
C41_4 C 0.9211(5) 0.3231(2) 0.5189(2)
H28_4 H 0.975241 0.328019 0.555095
C42_4 C 0.7877(5) 0.3513(2) 0.5140(2)
H29_4 H 0.753326 0.375525 0.546883
C43_4 C 0.7047(5) 0.34374(19) 0.46057(19)
C44_4 C 0.7601(4) 0.30801(19) 0.41195(19)
H30_4 H 0.706140 0.303355 0.375673
O1_4 O 0.0927(3) 0.46141(15) 0.38248(13)
O2_4 O 0.0703(3) 0.47030(15) 0.48556(13)
loop_
_geom_bond_atom_site_label_1
_geom_bond_atom_site_label_2
_geom_bond_site_symmetry_1
_geom_bond_site_symmetry_2
C26 C33 1_555 1_555
H20 C29 1_555 1_555
C30 C29 1_555 1_555
C33 C34 1_555 1_555
C34 H23 1_555 1_555
C35 C34 1_555 1_555
H24 C35 1_555 1_555
C36 C35 1_555 1_555
C37 C36 1_555 1_555
H25 C37 1_555 1_555
C38 C33 1_555 1_555
H26 C38 1_555 1_555
C39 C36 1_555 1_555
C40 C39 1_555 1_555
H27 C40 1_555 1_555
C41 C40 1_555 1_555
H28 C41 1_555 1_555
C42 C41 1_555 1_555
H29 C42 1_555 1_555
C43 C30 1_555 1_555
C44 C39 1_555 1_555
H30 C44 1_555 1_555
O3 C26 1_555 1_555
O4 C26 1_555 1_555
Zn3 O3 1_555 1_555
C37 C38 1_555 1_555
C42 C43 1_555 1_555
C43 C44 1_555 1_555
Zn3 N1 1_555 1_555
C1 H1 1_555 1_555
C2 H2 1_555 1_555
C25 C27 1_555 1_555
C27 C28 1_555 1_555
C28 H19 1_555 1_555
C32 C27 1_555 1_555
N1 C1 1_555 1_555
N2 C1 1_555 1_555
O1 Zn3 1_555 1_555
O2 C25 1_555 1_555
N11 Zn3 1_555 1_555
C2 N1 1_555 1_555
C25 O1 1_555 1_555
C3 H3 1_555 1_555
C4 H4 1_555 1_555
C5 H5 1_555 1_555
C6 H6 1_555 1_555
C13 C14 1_555 1_555
C14 H11 1_555 1_555
C15 C14 1_555 1_555
H12 C15 1_555 1_555
C16 C15 1_555 1_555
C17 C16 1_555 1_555
C18 C13 1_555 1_555
H14 C18 1_555 1_555
C19 C20 1_555 1_555
C21 C20 1_555 1_555
H16 C21 1_555 1_555
C22 C21 1_555 1_555
C23 C22 1_555 1_555
H17 C23 1_555 1_555
C24 C19 1_555 1_555
H18 C24 1_555 1_555
N11 C3 1_555 1_555
N5 C3 1_555 1_555
N6 C4 1_555 1_555
N7 C5 1_555 1_555
N8 C5 1_555 1_555
N9 C6 1_555 1_555
C4 N11 1_555 1_555
C6 N7 1_555 1_555
C13 N5 1_555 1_555
C17 C18 1_555 1_555
C22 N8 1_555 1_555
C23 C24 1_555 1_555
N5 N6 1_555 1_555
N8 N9 1_555 1_555
C25_2 C27_2 1_555 1_555
C27_2 C28_2 1_555 1_555
C28_2 H19_2 1_555 1_555
H21 C31 1_555 1_555
C32_2 C27_2 1_555 1_555
H22 C32_2 1_555 1_555
O2_2 C25_2 1_555 1_555
C25_2 O1_2 1_555 1_555
C31 C32_2 1_555 1_555
C3_2 H3_2 1_555 1_555
C4_2 H4_2 1_555 1_555
C13_2 C14_2 1_555 1_555
C14_2 H11_2 1_555 1_555
C15_2 C14_2 1_555 1_555
H12_2 C15_2 1_555 1_555
C16_2 C15_2 1_555 1_555
C17_2 C16_2 1_555 1_555
C18_2 C13_2 1_555 1_555
H14_2 C18_2 1_555 1_555
N11_2 C3_2 1_555 1_555
N5_2 C3_2 1_555 1_555
N6_2 C4_2 1_555 1_555
C4_2 N11_2 1_555 1_555
C13_2 N5_2 1_555 1_555
C17_2 C18_2 1_555 1_555
N5_2 N6_2 1_555 1_555
Zn1 N1_2 1_555 1_555
C1_2 H1_2 1_555 1_555
N1_2 C1_2 1_555 1_555
N2_2 C1_2 1_555 1_555
N3 C2_2 1_555 1_555
O5 Zn1 1_555 1_555
C2_2 N1_2 1_555 1_555
N2_2 N3 1_555 1_555
C26_2 C33_2 1_555 1_555
H20_2 C29_2 1_555 1_555
C30_2 C29_2 1_555 1_555
C33_2 C34_2 1_555 1_555
C34_2 H23_2 1_555 1_555
C35_2 C34_2 1_555 1_555
H24_2 C35_2 1_555 1_555
C36_2 C35_2 1_555 1_555
C37_2 C36_2 1_555 1_555
H25_2 C37_2 1_555 1_555
C38_2 C33_2 1_555 1_555
H26_2 C38_2 1_555 1_555
C39_2 C36_2 1_555 1_555
C40_2 C39_2 1_555 1_555
H27_2 C40_2 1_555 1_555
C43_2 C30_2 1_555 1_555
C44_2 C39_2 1_555 1_555
H30_2 C44_2 1_555 1_555
O5 C26_2 1_555 1_555
O4_2 C26_2 1_555 1_555
C37_2 C38_2 1_555 1_555
C43_2 C44_2 1_555 1_555
Zn2 N1_3 1_555 1_555
C1_3 H1_3 1_555 1_555
C11 C10 1_555 1_555
H9 C11 1_555 1_555
C12 C7 1_555 1_555
H10 C12 1_555 1_555
N1_3 C1_3 1_555 1_555
N2_3 C1_3 1_555 1_555
N10 C10 1_555 1_555
O5_2 Zn2 1_555 1_555
C2_3 N1_3 1_555 1_555
C7 N2_3 1_555 1_555
C11 C12 1_555 1_555
C26_3 C33_3 1_555 1_555
C33_3 C34_3 1_555 1_555
C34_3 H23_3 1_555 1_555
C35_3 C34_3 1_555 1_555
H24_3 C35_3 1_555 1_555
O5_2 C26_3 1_555 1_555
O4_3 C26_3 1_555 1_555
C3_3 H3_3 1_555 1_555
C4_3 H4_3 1_555 1_555
C5_2 H5_2 1_555 1_555
C6_2 H6_2 1_555 1_555
C7_2 C8 1_555 1_555
C8 H7 1_555 1_555
C9 C8 1_555 1_555
H8 C9 1_555 1_555
C10_2 C9 1_555 1_555
C11_2 C10_2 1_555 1_555
H9_2 C11_2 1_555 1_555
C12_2 C7_2 1_555 1_555
H10_2 C12_2 1_555 1_555
C13_3 C14_3 1_555 1_555
C14_3 H11_3 1_555 1_555
C15_3 C14_3 1_555 1_555
H12_3 C15_3 1_555 1_555
C16_3 C15_3 1_555 1_555
C17_3 C16_3 1_555 1_555
H13 C17_3 1_555 1_555
C18_3 C13_3 1_555 1_555
H14_3 C18_3 1_555 1_555
C19_2 C20_2 1_555 1_555
C20_2 H15_2 1_555 1_555
C21_2 C20_2 1_555 1_555
H16_2 C21_2 1_555 1_555
C22_2 C21_2 1_555 1_555
C23_2 C22_2 1_555 1_555
H17_2 C23_2 1_555 1_555
C24_2 C19_2 1_555 1_555
H18_2 C24_2 1_555 1_555
N4 C3_3 1_555 1_555
N5_3 C3_3 1_555 1_555
N6_3 C4_3 1_555 1_555
N7_2 C5_2 1_555 1_555
N8_2 C5_2 1_555 1_555
N9_2 C6_2 1_555 1_555
N10_2 C10_2 1_555 1_555
C4_3 N4 1_555 1_555
C6_2 N7_2 1_555 1_555
C11_2 C12_2 1_555 1_555
C13_3 N5_3 1_555 1_555
C16_3 N10_2 1_555 1_555
C17_3 C18_3 1_555 1_555
C19_2 N10_2 1_555 1_555
C22_2 N8_2 1_555 1_555
C23_2 C24_2 1_555 1_555
N5_3 N6_3 1_555 1_555
N8_2 N9_2 1_555 1_555
C5_3 H5_3 1_555 1_555
C6_3 H6_3 1_555 1_555
C19_3 C20_3 1_555 1_555
C21_3 C20_3 1_555 1_555
H16_3 C21_3 1_555 1_555
C22_3 C21_3 1_555 1_555
C23_3 C22_3 1_555 1_555
H17_3 C23_3 1_555 1_555
C24_3 C19_3 1_555 1_555
H18_3 C24_3 1_555 1_555
N7_3 C5_3 1_555 1_555
N8_3 C5_3 1_555 1_555
N9_3 C6_3 1_555 1_555
C6_3 N7_3 1_555 1_555
C22_3 N8_3 1_555 1_555
C23_3 C24_3 1_555 1_555
N8_3 N9_3 1_555 1_555
C8_2 H7_2 1_555 1_555
C9_2 C8_2 1_555 1_555
H8_2 C9_2 1_555 1_555
C25_3 C27_3 1_555 1_555
C27_3 C28_3 1_555 1_555
C28_3 H19_3 1_555 1_555
C29_3 C28_3 1_555 1_555
H20_3 C29_3 1_555 1_555
C30_3 C29_3 1_555 1_555
C32_3 C27_3 1_555 1_555
C37_3 C36_3 1_555 1_555
H25_3 C37_3 1_555 1_555
H26_3 C38_3 1_555 1_555
C39_3 C36_3 1_555 1_555
C40_3 C39_3 1_555 1_555
C43_3 C30_3 1_555 1_555
C44_3 C39_3 1_555 1_555
H30_3 C44_3 1_555 1_555
O2_3 C25_3 1_555 1_555
C25_3 O1_3 1_555 1_555
C37_3 C38_3 1_555 1_555
C43_3 C44_3 1_555 1_555
H21_2 C31_2 1_555 1_555
H28_2 C41_2 1_555 1_555
C42_2 C41_2 1_555 1_555
H29_2 C42_2 1_555 1_555
C26_4 C33_4 1_555 1_555
C33_4 C34_4 1_555 1_555
C34_4 H23_4 1_555 1_555
C35_4 C34_4 1_555 1_555
H24_4 C35_4 1_555 1_555
O3_2 C26_4 1_555 1_555
O4_4 C26_4 1_555 1_555
Zn3_2 O3_2 1_555 1_555
C3_4 H3_4 1_555 1_555
C4_4 H4_4 1_555 1_555
C8_3 H7_3 1_555 1_555
C9_3 C8_3 1_555 1_555
H8_3 C9_3 1_555 1_555
C13_4 C14_4 1_555 1_555
C14_4 H11_4 1_555 1_555
C15_4 C14_4 1_555 1_555
H12_4 C15_4 1_555 1_555
C16_4 C15_4 1_555 1_555
C17_4 C16_4 1_555 1_555
H13_3 C17_4 1_555 1_555
C18_4 C13_4 1_555 1_555
H14_4 C18_4 1_555 1_555
N4_2 C3_4 1_555 1_555
N5_4 C3_4 1_555 1_555
N6_4 C4_4 1_555 1_555
Zn3_2 N4_2 1_555 1_555
C4_4 N4_2 1_555 1_555
C13_4 N5_4 1_555 1_555
C17_4 C18_4 1_555 1_555
N5_4 N6_4 1_555 1_555
Zn3_2 N1_4 1_555 1_555
C1_4 H1_4 1_555 1_555
C2_4 H2_4 1_555 1_555
C7_3 C8_4 1_555 1_555
C8_4 H7_4 1_555 1_555
C9_4 C8_4 1_555 1_555
H8_4 C9_4 1_555 1_555
C10_3 C9_4 1_555 1_555
C11_3 C10_3 1_555 1_555
H9_3 C11_3 1_555 1_555
C12_3 C7_3 1_555 1_555
H10_3 C12_3 1_555 1_555
N1_4 C1_4 1_555 1_555
N2_4 C1_4 1_555 1_555
N3_3 C2_4 1_555 1_555
N10_3 C10_3 1_555 1_555
C2_4 N1_4 1_555 1_555
C7_3 N2_4 1_555 1_555
C11_3 C12_3 1_555 1_555
N2_4 N3_3 1_555 1_555
C5_4 H5_4 1_555 1_555
C6_4 H6_4 1_555 1_555
C11_4 C10_4 1_555 1_555
H9_4 C11_4 1_555 1_555
C12_4 C7_4 1_555 1_555
H10_4 C12_4 1_555 1_555
C19_4 C20_4 1_555 1_555
C20_4 H15_4 1_555 1_555
C21_4 C20_4 1_555 1_555
H16_4 C21_4 1_555 1_555
C22_4 C21_4 1_555 1_555
C23_4 C22_4 1_555 1_555
H17_4 C23_4 1_555 1_555
C24_4 C19_4 1_555 1_555
H18_4 C24_4 1_555 1_555
N7_4 C5_4 1_555 1_555
N8_4 C5_4 1_555 1_555
N9_4 C6_4 1_555 1_555
N10_4 C10_4 1_555 1_555
C6_4 N7_4 1_555 1_555
C11_4 C12_4 1_555 1_555
C19_4 N10_4 1_555 1_555
C22_4 N8_4 1_555 1_555
C23_4 C24_4 1_555 1_555
N8_4 N9_4 1_555 1_555
H21_3 C31_3 1_555 1_555
H28_3 C41_3 1_555 1_555
C42_3 C41_3 1_555 1_555
H29_3 C42_3 1_555 1_555
C25_4 C27_4 1_555 1_555
C27_4 C28_4 1_555 1_555
C28_4 H19_4 1_555 1_555
C29_4 C28_4 1_555 1_555
H20_4 C29_4 1_555 1_555
C30_4 C29_4 1_555 1_555
C31_4 C30_4 1_555 1_555
H21_4 C31_4 1_555 1_555
C32_4 C27_4 1_555 1_555
H22_4 C32_4 1_555 1_555
C37_4 C36_4 1_555 1_555
H25_4 C37_4 1_555 1_555
H26_4 C38_4 1_555 1_555
C39_4 C36_4 1_555 1_555
C40_4 C39_4 1_555 1_555
C41_4 C40_4 1_555 1_555
H28_4 C41_4 1_555 1_555
C42_4 C41_4 1_555 1_555
H29_4 C42_4 1_555 1_555
C43_4 C30_4 1_555 1_555
C44_4 C39_4 1_555 1_555
H30_4 C44_4 1_555 1_555
O2_4 C25_4 1_555 1_555
C25_4 O1_4 1_555 1_555
C31_4 C32_4 1_555 1_555
C37_4 C38_4 1_555 1_555
C42_4 C43_4 1_555 1_555
C43_4 C44_4 1_555 1_555

#END
