
###############################################################################
#
# This file contains modified crystal structure data generated from the
# MOF subset of the Cambridge Structural Database (CSD) v543 
# hosted by the Cambridge Crystallographic Data Centre (CCDC).
#
# This work is licensed under the Creative Commons
# Attribution-NonCommercial-ShareAlike 4.0 International License.
# To view a copy of this license, visit
# http://creativecommons.org/licenses/by-nc-sa/4.0/
# or send a letter to
# Creative Commons, PO Box 1866, Mountain View, CA 94042, USA.
#
# CIF created using the CSD Python API on 29 September 2022
# The structure has been converted into the P1 space group
# The structure has a 3D framework
# The original CSD entry NANNAU is in the orthorhombic crystal system
# The original CSD entry NANNAU is in a Sohncke space group
# The framework has been calculated to contain at least 10.0% void space
# The void calculation uses a probe of radius 1.32A, grid spacing 0.4
#
###############################################################################

data_NANNAU
_chemical_formula_moiety         '(C176 H120 N40 O16 Zn4)n'
_symmetry_cell_setting           triclinic
_symmetry_space_group_name_H-M   'P 1'
_symmetry_Int_Tables_number      1
_space_group_name_Hall           'P 1'
loop_
_symmetry_equiv_pos_site_id
_symmetry_equiv_pos_as_xyz
1 x,y,z
_cell_length_a                   9.3086(4)
_cell_length_b                   21.1829(8)
_cell_length_c                   21.4560(9)
_cell_angle_alpha                90
_cell_angle_beta                 90
_cell_angle_gamma                90
_cell_volume                     4230.76
loop_
_atom_site_label
_atom_site_type_symbol
_atom_site_fract_x
_atom_site_fract_y
_atom_site_fract_z
C26 C 0.0983(6) 0.0994(2) 0.2699(2)
C33 C 0.0445(5) 0.1476(2) 0.2241(2)
C34 C 0.1403(6) 0.1799(2) 0.1857(2)
H23 H 0.23826 0.172102 0.189331
C35 C 0.0924(5) 0.2232(2) 0.1424(2)
H24 H 0.15868 0.244567 0.117770
H27 H 0.064993 0.269013 0.027537
O3 O 0.0035(4) 0.07453(16) 0.30556(16)
O4 O 0.2276(4) 0.08516(16) 0.27102(17)
Zn3 Zn 0.07725(5) 0.00286(2) 0.35337(2)
C1 C 0.3634(5) 0.0486(2) 0.3978(2)
H1 H 0.393437 0.059736 0.357944
C2 C 0.2441(5) 0.0141(2) 0.4742(2)
C7 C 0.5707(5) 0.08965(19) 0.4588(2)
C8 C 0.5975(5) 0.1181(2) 0.5160(2)
H7 H 0.528455 0.117040 0.547318
C9 C 0.7272(5) 0.1478(2) 0.5260(2)
H8 H 0.744822 0.167353 0.564109
C10 C 0.8323(5) 0.1490(2) 0.4796(2)
C11 C 0.8024(5) 0.1217(2) 0.4226(2)
H9 H 0.870566 0.123231 0.390912
C12 C 0.6728(5) 0.0922(2) 0.4121(2)
H10 H 0.653915 0.073918 0.373492
H13 H 0.975465 0.068954 0.554620
H16 H 0.916785 0.247253 0.397452
N1 N 0.2394(4) 0.02110(16) 0.41190(18)
N2 N 0.4375(4) 0.05773(16) 0.45004(17)
N3 N 0.3621(4) 0.03596(19) 0.50026(18)
N10 N 0.9682(4) 0.17610(19) 0.49372(18)
C25 C 0.1353(5) 0.4543(2) 0.0609(2)
C27 C 0.2837(5) 0.4245(2) 0.0558(2)
C28 C 0.3790(5) 0.4275(2) 0.1051(2)
H19 H 0.351328 0.447106 0.141998
C29 C 0.5165(5) 0.4014(2) 0.1001(2)
H20 H 0.579228 0.403219 0.133823
C30 C 0.5595(5) 0.3727(2) 0.0448(2)
C32 C 0.3279(6) 0.3980(3) 0.0008(3)
C36 C 0.9457(5) 0.2355(2) 0.1350(2)
C37 C 0.8510(6) 0.2044(2) 0.1747(2)
H25 H 0.753038 0.212300 0.171304
C38 C 0.8990(6) 0.1618(2) 0.2191(2)
H26 H 0.833518 0.142570 0.245822
C39 C 0.8936(5) 0.2783(2) 0.0848(2)
C40 C 0.9744(5) 0.2872(2) 0.0307(2)
C43 C 0.7056(6) 0.3434(2) 0.0393(2)
C44 C 0.7602(5) 0.3076(2) 0.0881(2)
H30 H 0.705657 0.302979 0.124163
O1 O 0.0928(4) 0.46123(17) 0.11715(16)
O2 O 0.0709(4) 0.47045(17) 0.01435(16)
C31 C 0.4652(6) 0.3721(3) 0.9948(3)
H21 H 0.493463 0.354421 0.957054
H22 H 0.265509 0.397109 0.966966
C41 C 0.9212(6) 0.3230(2) 0.9816(2)
H28 H 0.975440 0.327929 0.945536
C42 C 0.7878(6) 0.3512(2) 0.9862(2)
H29 H 0.753239 0.375633 0.953447
Zn1 Zn 0.92275(5) 0.50286(2) 0.14663(2)
C1_2 C 0.6366(5) 0.5486(2) 0.1022(2)
H1_2 H 0.606563 0.559736 0.142056
C2_2 C 0.7559(5) 0.5141(2) 0.0258(2)
H2 H 0.829616 0.495344 0.003143
C7_2 C 0.4293(5) 0.58965(19) 0.0412(2)
C10_2 C 0.1677(5) 0.6490(2) 0.0204(2)
C11_2 C 0.1976(5) 0.6217(2) 0.0774(2)
H9_2 H 0.129434 0.623231 0.109088
C12_2 C 0.3272(5) 0.5922(2) 0.0879(2)
H10_2 H 0.346085 0.573918 0.126508
H16_2 H 0.083215 0.747253 0.102548
N1_2 N 0.7606(4) 0.52110(16) 0.08810(18)
N2_2 N 0.5625(4) 0.55773(16) 0.04996(17)
N10_2 N 0.0318(4) 0.67610(19) 0.00628(18)
N11 N 0.8521(4) 0.43543(18) 0.20676(18)
O5 O 0.9965(4) 0.57453(16) 0.19444(16)
C3 C 0.7491(5) 0.4374(2) 0.2491(2)
H3 H 0.684079 0.470313 0.254146
C4 C 0.9177(6) 0.3789(2) 0.2181(2)
H4 H 0.995284 0.364427 0.194761
C5 C 0.9394(6) 0.2861(3) 0.7274(2)
H5 H 0.967695 0.325760 0.713481
C6 C 0.9214(8) 0.2032(4) 0.7755(3)
H6 H 0.939192 0.171616 0.804591
C7_3 C 0.0707(5) 0.41035(19) 0.5412(2)
C8_2 C 0.0975(5) 0.3819(2) 0.4840(2)
H7_2 H 0.028455 0.382960 0.452682
C9_2 C 0.2272(5) 0.3522(2) 0.4740(2)
H8_2 H 0.244822 0.332647 0.435891
C10_3 C 0.3323(5) 0.3510(2) 0.5204(2)
C11_3 C 0.3024(5) 0.3783(2) 0.5774(2)
H9_3 H 0.370566 0.376769 0.609088
C12_3 C 0.1728(5) 0.4078(2) 0.5879(2)
H10_3 H 0.153915 0.426082 0.626508
C13 C 0.6709(5) 0.3692(2) 0.3378(2)
C14 C 0.6709(5) 0.3070(2) 0.3583(2)
H11 H 0.716018 0.275752 0.335061
C15 C 0.6035(5) 0.2924(2) 0.4132(2)
H12 H 0.606025 0.251172 0.428145
C16 C 0.5310(5) 0.3390(2) 0.4468(2)
C17 C 0.5268(5) 0.4002(2) 0.4241(2)
H13_2 H 0.475465 0.431046 0.445380
C18 C 0.5983(5) 0.4154(2) 0.3703(2)
H14 H 0.597812 0.456716 0.355731
C19 C 0.7417(5) 0.2678(2) 0.6508(2)
C20 C 0.5993(5) 0.2496(2) 0.6519(2)
H15 H 0.563191 0.226298 0.685102
C21 C 0.5116(5) 0.2666(2) 0.6029(2)
H16_3 H 0.416785 0.252747 0.602548
C22 C 0.5611(5) 0.30377(19) 0.5539(2)
C23 C 0.7067(5) 0.3199(2) 0.5534(2)
H17 H 0.743748 0.343377 0.520416
C24 C 0.7959(5) 0.3013(2) 0.6014(2)
H18 H 0.892968 0.311607 0.600321
N5 N 0.7522(4) 0.38536(17) 0.28323(17)
N6 N 0.8626(5) 0.34668(19) 0.26423(19)
N7 N 0.9978(6) 0.2568(3) 0.7750(2)
N8 N 0.8336(5) 0.2519(2) 0.70124(19)
N9 N 0.8190(6) 0.1970(3) 0.7325(3)
N10_3 N 0.4682(4) 0.32390(19) 0.50628(18)
C26_2 C 0.9017(6) 0.5994(2) 0.2301(2)
C33_2 C 0.9555(5) 0.6476(2) 0.2759(2)
C34_2 C 0.8597(6) 0.6799(2) 0.3143(2)
H23_2 H 0.76174 0.672102 0.310669
C35_2 C 0.9076(5) 0.7232(2) 0.3576(2)
H24_2 H 0.84132 0.744567 0.382230
H27_2 H 0.935007 0.769013 0.472463
O4_2 O 0.7724(4) 0.58516(16) 0.22898(17)
C8_3 C 0.4025(5) 0.6181(2) 0.9840(2)
H7_3 H 0.471545 0.617040 0.952682
C9_3 C 0.2728(5) 0.6478(2) 0.9740(2)
H8_3 H 0.255178 0.667353 0.935891
H13_3 H 0.024535 0.568954 0.945380
N3_2 N 0.6379(4) 0.53596(19) 0.99974(18)
C5_2 C 0.5606(6) 0.7139(3) 0.2274(2)
H5_2 H 0.532305 0.674240 0.213481
C6_2 C 0.5786(8) 0.7968(4) 0.2755(3)
H6_2 H 0.560808 0.828384 0.304591
C19_2 C 0.7583(5) 0.7322(2) 0.1508(2)
C20_2 C 0.9007(5) 0.7504(2) 0.1519(2)
H15_2 H 0.936809 0.773702 0.185102
C21_2 C 0.9884(5) 0.7334(2) 0.1029(2)
C22_2 C 0.9389(5) 0.69623(19) 0.0539(2)
C23_2 C 0.7933(5) 0.6801(2) 0.0534(2)
H17_2 H 0.756252 0.656623 0.020416
C24_2 C 0.7041(5) 0.6987(2) 0.1014(2)
H18_2 H 0.607032 0.688393 0.100321
N7_2 N 0.5022(6) 0.7432(3) 0.2750(2)
N8_2 N 0.6664(5) 0.7481(2) 0.20124(19)
N9_2 N 0.6810(6) 0.8030(3) 0.2325(3)
C3_2 C 0.7509(5) 0.5626(2) 0.7491(2)
H3_2 H 0.815921 0.529687 0.754146
C4_2 C 0.5823(6) 0.6211(2) 0.7181(2)
H4_2 H 0.504716 0.635573 0.694761
C13_2 C 0.8291(5) 0.6308(2) 0.8378(2)
C14_2 C 0.8291(5) 0.6930(2) 0.8583(2)
H11_2 H 0.783982 0.724248 0.835061
C15_2 C 0.8965(5) 0.7076(2) 0.9132(2)
H12_2 H 0.893975 0.748828 0.928145
C16_2 C 0.9690(5) 0.6610(2) 0.9468(2)
C17_2 C 0.9732(5) 0.5998(2) 0.9241(2)
C18_2 C 0.9017(5) 0.5846(2) 0.8703(2)
H14_2 H 0.902188 0.543284 0.855731
N4 N 0.6479(4) 0.56457(18) 0.70676(18)
N5_2 N 0.7478(4) 0.61464(17) 0.78323(17)
N6_2 N 0.6374(5) 0.65332(19) 0.76423(19)
Zn2 Zn 0.57725(5) 0.49714(2) 0.64663(2)
C1_3 C 0.8634(5) 0.4514(2) 0.6022(2)
H1_3 H 0.893437 0.440264 0.642056
C2_3 C 0.7441(5) 0.4859(2) 0.5258(2)
H2_2 H 0.670384 0.504656 0.503143
C25_2 C 0.3647(5) 0.5457(2) 0.5609(2)
C27_2 C 0.2163(5) 0.5755(2) 0.5558(2)
C28_2 C 0.1210(5) 0.5725(2) 0.6051(2)
H19_2 H 0.148672 0.552894 0.641998
C31_2 C 0.0348(6) 0.6279(3) 0.4948(3)
H21_2 H 0.006537 0.645579 0.457054
C32_2 C 0.1721(6) 0.6020(3) 0.5008(3)
H22_2 H 0.234491 0.602891 0.466966
N1_3 N 0.7394(4) 0.47890(16) 0.58810(18)
N2_3 N 0.9375(4) 0.44227(16) 0.54996(17)
N3_3 N 0.8621(4) 0.46404(19) 0.49974(18)
O1_2 O 0.4072(4) 0.53877(17) 0.61715(16)
O2_2 O 0.4291(4) 0.52955(17) 0.51435(16)
O5_2 O 0.5035(4) 0.42547(16) 0.69444(16)
C26_3 C 0.5983(6) 0.4006(2) 0.7301(2)
C29_2 C 0.0165(5) 0.0986(2) 0.8999(2)
H20_2 H 0.079228 0.096781 0.866177
C30_2 C 0.0595(5) 0.1273(2) 0.9552(2)
C33_3 C 0.5445(5) 0.3524(2) 0.7759(2)
C34_3 C 0.6403(6) 0.3201(2) 0.8143(2)
H23_3 H 0.73826 0.327898 0.810669
C35_3 C 0.5924(5) 0.2768(2) 0.8576(2)
H24_3 H 0.65868 0.255433 0.882230
C36_2 C 0.4457(5) 0.2645(2) 0.8650(2)
C37_2 C 0.3510(6) 0.2956(2) 0.8253(2)
H25_2 H 0.253038 0.287700 0.828696
C38_2 C 0.3990(6) 0.3382(2) 0.7809(2)
H26_2 H 0.333518 0.357430 0.754178
C39_2 C 0.3936(5) 0.2217(2) 0.9152(2)
C40_2 C 0.4744(5) 0.2128(2) 0.9693(2)
H27_3 H 0.564993 0.230987 0.972463
C43_2 C 0.2056(6) 0.1566(2) 0.9607(2)
C44_2 C 0.2602(5) 0.1924(2) 0.9119(2)
H30_2 H 0.205657 0.197021 0.875837
O4_3 O 0.7276(4) 0.41484(16) 0.72898(17)
C26_4 C 0.4017(6) 0.9006(2) 0.7699(2)
C29_3 C 0.9835(5) 0.5986(2) 0.6001(2)
H20_3 H 0.920772 0.596781 0.633823
C30_3 C 0.9405(5) 0.6273(2) 0.5448(2)
C33_4 C 0.4555(5) 0.8524(2) 0.7241(2)
C34_4 C 0.3597(6) 0.8201(2) 0.6857(2)
H23_4 H 0.26174 0.827898 0.689331
C35_4 C 0.4076(5) 0.7768(2) 0.6424(2)
H24_4 H 0.34132 0.755433 0.617770
C36_3 C 0.5543(5) 0.7645(2) 0.6350(2)
C37_3 C 0.6490(6) 0.7956(2) 0.6747(2)
H25_3 H 0.746962 0.787700 0.671304
C38_3 C 0.6010(6) 0.8382(2) 0.7191(2)
H26_3 H 0.666482 0.857430 0.745822
C39_3 C 0.6064(5) 0.7217(2) 0.5848(2)
C40_3 C 0.5256(5) 0.7128(2) 0.5307(2)
H27_4 H 0.435007 0.730987 0.527537
C41_2 C 0.5788(6) 0.6770(2) 0.4816(2)
H28_2 H 0.524560 0.672071 0.445536
C42_2 C 0.7122(6) 0.6488(2) 0.4862(2)
H29_2 H 0.746761 0.624367 0.453447
C43_3 C 0.7944(6) 0.6566(2) 0.5393(2)
C44_3 C 0.7398(5) 0.6924(2) 0.5881(2)
H30_3 H 0.794343 0.697021 0.624163
O3_2 O 0.4965(4) 0.92547(16) 0.80556(16)
O4_4 O 0.2724(4) 0.91484(16) 0.77102(17)
Zn3_2 Zn 0.42275(5) 0.99714(2) 0.85337(2)
C1_4 C 0.1366(5) 0.9514(2) 0.8978(2)
H1_4 H 0.106563 0.940264 0.857944
C2_4 C 0.2559(5) 0.9859(2) 0.9742(2)
N1_4 N 0.2606(4) 0.97890(16) 0.91190(18)
N2_4 N 0.0625(4) 0.94227(16) 0.95004(17)
C3_3 C 0.2491(5) 0.0626(2) 0.7509(2)
H3_3 H 0.184079 0.029687 0.745854
C4_3 C 0.4177(6) 0.1211(2) 0.7819(2)
H4_3 H 0.495284 0.135573 0.805239
C5_3 C 0.4394(6) 0.2139(3) 0.2726(2)
H5_3 H 0.467695 0.174240 0.286519
C6_3 C 0.4214(8) 0.2968(4) 0.2245(3)
H6_3 H 0.439192 0.328384 0.195409
C13_3 C 0.1709(5) 0.1308(2) 0.6622(2)
C14_3 C 0.1709(5) 0.1930(2) 0.6417(2)
H11_3 H 0.216018 0.224248 0.664939
C15_3 C 0.1035(5) 0.2076(2) 0.5868(2)
H12_3 H 0.106025 0.248828 0.571855
C16_3 C 0.0310(5) 0.1610(2) 0.5532(2)
C17_3 C 0.0268(5) 0.0998(2) 0.5759(2)
C18_3 C 0.0983(5) 0.0846(2) 0.6297(2)
H14_3 H 0.097812 0.043284 0.644269
C19_3 C 0.2417(5) 0.2322(2) 0.3492(2)
C20_3 C 0.0993(5) 0.2504(2) 0.3481(2)
H15_3 H 0.063191 0.273702 0.314898
C21_3 C 0.0116(5) 0.2334(2) 0.3971(2)
C22_3 C 0.0611(5) 0.19623(19) 0.4461(2)
C23_3 C 0.2067(5) 0.1801(2) 0.4466(2)
H17_3 H 0.243748 0.156623 0.479584
C24_3 C 0.2959(5) 0.1987(2) 0.3986(2)
H18_3 H 0.392968 0.188393 0.399679
N4_2 N 0.3521(4) 0.06457(18) 0.79324(18)
N5_3 N 0.2522(4) 0.11464(17) 0.71677(17)
N6_3 N 0.3626(5) 0.15332(19) 0.73577(19)
N7_3 N 0.4978(6) 0.2432(3) 0.2250(2)
N8_3 N 0.3336(5) 0.2481(2) 0.29876(19)
N9_3 N 0.3190(6) 0.3030(3) 0.2675(3)
H2_3 H 0.329616 0.004656 0.996857
C25_3 C 0.6353(5) 0.0457(2) 0.9391(2)
C27_3 C 0.7837(5) 0.0755(2) 0.9442(2)
C28_3 C 0.8790(5) 0.0725(2) 0.8949(2)
H19_3 H 0.851328 0.052894 0.858002
C32_3 C 0.8279(6) 0.1020(3) 0.9992(3)
O1_3 O 0.5928(4) 0.03877(17) 0.88285(16)
O2_3 O 0.5709(4) 0.02955(17) 0.98565(16)
H2_4 H 0.170384 0.995344 0.496857
N11_2 N 0.1479(4) 0.93543(18) 0.29324(18)
C3_4 C 0.2509(5) 0.9374(2) 0.2509(2)
H3_4 H 0.315921 0.970313 0.245854
C4_4 C 0.0823(6) 0.8789(2) 0.2819(2)
H4_4 H 0.004716 0.864427 0.305239
C8_4 C 0.9025(5) 0.8819(2) 0.0160(2)
H7_4 H 0.971545 0.882960 0.047318
C9_4 C 0.7728(5) 0.8522(2) 0.0260(2)
H8_4 H 0.755178 0.832647 0.064109
C13_4 C 0.3291(5) 0.8692(2) 0.1622(2)
C14_4 C 0.3291(5) 0.8070(2) 0.1417(2)
H11_4 H 0.283982 0.775752 0.164939
C15_4 C 0.3965(5) 0.7924(2) 0.0868(2)
H12_4 H 0.393975 0.751172 0.071855
C16_4 C 0.4690(5) 0.8390(2) 0.0532(2)
C17_4 C 0.4732(5) 0.9002(2) 0.0759(2)
H13_4 H 0.524535 0.931046 0.054620
C18_4 C 0.4017(5) 0.9154(2) 0.1297(2)
H14_4 H 0.402188 0.956716 0.144269
N5_4 N 0.2478(4) 0.88536(17) 0.21677(17)
N6_4 N 0.1374(5) 0.84668(19) 0.23577(19)
C25_4 C 0.8647(5) 0.9543(2) 0.4391(2)
C27_4 C 0.7163(5) 0.9245(2) 0.4442(2)
C28_4 C 0.6210(5) 0.9275(2) 0.3949(2)
H19_4 H 0.648672 0.947106 0.358002
C29_4 C 0.4835(5) 0.9014(2) 0.3999(2)
H20_4 H 0.420772 0.903219 0.366177
C30_4 C 0.4405(5) 0.8727(2) 0.4552(2)
C31_3 C 0.5348(6) 0.8721(3) 0.5052(3)
H21_3 H 0.506537 0.854421 0.542946
C32_4 C 0.6721(6) 0.8980(3) 0.4992(3)
H22_3 H 0.734491 0.897109 0.533034
C36_4 C 0.0543(5) 0.7355(2) 0.3650(2)
C37_4 C 0.1490(6) 0.7044(2) 0.3253(2)
H25_4 H 0.246962 0.712300 0.328696
C38_4 C 0.1010(6) 0.6618(2) 0.2809(2)
H26_4 H 0.166482 0.642570 0.254178
C39_4 C 0.1064(5) 0.7783(2) 0.4152(2)
C40_4 C 0.0256(5) 0.7872(2) 0.4693(2)
C41_3 C 0.0788(6) 0.8230(2) 0.5184(2)
H28_3 H 0.024560 0.827929 0.554464
C42_3 C 0.2122(6) 0.8512(2) 0.5138(2)
H29_3 H 0.246761 0.875633 0.546553
C43_4 C 0.2944(6) 0.8434(2) 0.4607(2)
C44_4 C 0.2398(5) 0.8076(2) 0.4119(2)
H30_4 H 0.294343 0.802979 0.375837
O1_4 O 0.9072(4) 0.96123(17) 0.38285(16)
O2_4 O 0.9291(4) 0.97045(17) 0.48565(16)
C41_4 C 0.4212(6) 0.1770(2) 0.0184(2)
H28_4 H 0.475440 0.172071 0.054464
C42_4 C 0.2878(6) 0.1488(2) 0.0138(2)
H29_4 H 0.253239 0.124367 0.046553
C31_4 C 0.9652(6) 0.1279(3) 0.0052(3)
H21_4 H 0.993463 0.145579 0.042946
H22_4 H 0.765509 0.102891 0.033034
N3_4 N 0.1379(4) 0.96404(19) 0.00026(18)
C5_4 C 0.0606(6) 0.7861(3) 0.7726(2)
H5_4 H 0.032305 0.825760 0.786519
C6_4 C 0.0786(8) 0.7032(4) 0.7245(3)
H6_4 H 0.060808 0.671616 0.695409
C7_4 C 0.9293(5) 0.91035(19) 0.9588(2)
C10_4 C 0.6677(5) 0.8510(2) 0.9796(2)
C11_4 C 0.6976(5) 0.8783(2) 0.9226(2)
H9_4 H 0.629434 0.876769 0.890912
C12_4 C 0.8272(5) 0.9078(2) 0.9121(2)
H10_4 H 0.846085 0.926082 0.873492
C19_4 C 0.2583(5) 0.7678(2) 0.8492(2)
C20_4 C 0.4007(5) 0.7496(2) 0.8481(2)
H15_4 H 0.436809 0.726298 0.814898
C21_4 C 0.4884(5) 0.7666(2) 0.8971(2)
H16_4 H 0.583215 0.752747 0.897452
C22_4 C 0.4389(5) 0.80377(19) 0.9461(2)
C23_4 C 0.2933(5) 0.8199(2) 0.9466(2)
H17_4 H 0.256252 0.843377 0.979584
C24_4 C 0.2041(5) 0.8013(2) 0.8986(2)
H18_4 H 0.107032 0.811607 0.899679
N7_4 N 0.0022(6) 0.7568(3) 0.7250(2)
N8_4 N 0.1664(5) 0.7519(2) 0.79876(19)
N9_4 N 0.1810(6) 0.6970(3) 0.7675(3)
N10_4 N 0.5318(4) 0.82390(19) 0.99372(18)
loop_
_geom_bond_atom_site_label_1
_geom_bond_atom_site_label_2
_geom_bond_site_symmetry_1
_geom_bond_site_symmetry_2
C26 C33 1_555 1_555
C33 C34 1_555 1_555
C34 H23 1_555 1_555
C35 C34 1_555 1_555
H24 C35 1_555 1_555
O3 C26 1_555 1_555
O4 C26 1_555 1_555
Zn3 O3 1_555 1_555
Zn3 N1 1_555 1_555
C1 H1 1_555 1_555
C7 C8 1_555 1_555
C8 H7 1_555 1_555
C9 C8 1_555 1_555
H8 C9 1_555 1_555
C10 C9 1_555 1_555
C11 C10 1_555 1_555
H9 C11 1_555 1_555
C12 C7 1_555 1_555
H10 C12 1_555 1_555
N1 C1 1_555 1_555
N2 C1 1_555 1_555
N3 C2 1_555 1_555
N10 C10 1_555 1_555
C2 N1 1_555 1_555
C7 N2 1_555 1_555
C11 C12 1_555 1_555
N2 N3 1_555 1_555
C25 C27 1_555 1_555
C27 C28 1_555 1_555
C28 H19 1_555 1_555
C29 C28 1_555 1_555
H20 C29 1_555 1_555
C30 C29 1_555 1_555
C32 C27 1_555 1_555
C37 C36 1_555 1_555
H25 C37 1_555 1_555
H26 C38 1_555 1_555
C39 C36 1_555 1_555
C40 C39 1_555 1_555
C43 C30 1_555 1_555
C44 C39 1_555 1_555
H30 C44 1_555 1_555
O2 C25 1_555 1_555
C25 O1 1_555 1_555
C37 C38 1_555 1_555
C43 C44 1_555 1_555
H21 C31 1_555 1_555
H28 C41 1_555 1_555
C42 C41 1_555 1_555
H29 C42 1_555 1_555
Zn1 N1_2 1_555 1_555
C1_2 H1_2 1_555 1_555
C2_2 H2 1_555 1_555
C11_2 C10_2 1_555 1_555
H9_2 C11_2 1_555 1_555
C12_2 C7_2 1_555 1_555
H10_2 C12_2 1_555 1_555
N1_2 C1_2 1_555 1_555
N2_2 C1_2 1_555 1_555
N10_2 C10_2 1_555 1_555
N11 Zn1 1_555 1_555
O5 Zn1 1_555 1_555
C2_2 N1_2 1_555 1_555
C7_2 N2_2 1_555 1_555
C11_2 C12_2 1_555 1_555
C3 H3 1_555 1_555
C4 H4 1_555 1_555
C5 H5 1_555 1_555
C6 H6 1_555 1_555
C7_3 C8_2 1_555 1_555
C8_2 H7_2 1_555 1_555
C9_2 C8_2 1_555 1_555
H8_2 C9_2 1_555 1_555
C10_3 C9_2 1_555 1_555
C11_3 C10_3 1_555 1_555
H9_3 C11_3 1_555 1_555
C12_3 C7_3 1_555 1_555
H10_3 C12_3 1_555 1_555
C13 C14 1_555 1_555
C14 H11 1_555 1_555
C15 C14 1_555 1_555
H12 C15 1_555 1_555
C16 C15 1_555 1_555
C17 C16 1_555 1_555
H13_2 C17 1_555 1_555
C18 C13 1_555 1_555
H14 C18 1_555 1_555
C19 C20 1_555 1_555
C20 H15 1_555 1_555
C21 C20 1_555 1_555
H16_3 C21 1_555 1_555
C22 C21 1_555 1_555
C23 C22 1_555 1_555
H17 C23 1_555 1_555
C24 C19 1_555 1_555
H18 C24 1_555 1_555
N11 C3 1_555 1_555
N5 C3 1_555 1_555
N6 C4 1_555 1_555
N7 C5 1_555 1_555
N8 C5 1_555 1_555
N9 C6 1_555 1_555
N10_3 C10_3 1_555 1_555
C4 N11 1_555 1_555
C6 N7 1_555 1_555
C11_3 C12_3 1_555 1_555
C13 N5 1_555 1_555
C16 N10_3 1_555 1_555
C17 C18 1_555 1_555
C19 N8 1_555 1_555
C22 N10_3 1_555 1_555
C23 C24 1_555 1_555
N5 N6 1_555 1_555
N8 N9 1_555 1_555
C26_2 C33_2 1_555 1_555
C33_2 C34_2 1_555 1_555
C34_2 H23_2 1_555 1_555
C35_2 C34_2 1_555 1_555
H24_2 C35_2 1_555 1_555
O5 C26_2 1_555 1_555
O4_2 C26_2 1_555 1_555
C8_3 H7_3 1_555 1_555
C9_3 C8_3 1_555 1_555
H8_3 C9_3 1_555 1_555
C5_2 H5_2 1_555 1_555
C6_2 H6_2 1_555 1_555
C19_2 C20_2 1_555 1_555
C20_2 H15_2 1_555 1_555
C21_2 C20_2 1_555 1_555
C22_2 C21_2 1_555 1_555
C23_2 C22_2 1_555 1_555
H17_2 C23_2 1_555 1_555
C24_2 C19_2 1_555 1_555
H18_2 C24_2 1_555 1_555
N7_2 C5_2 1_555 1_555
N8_2 C5_2 1_555 1_555
N9_2 C6_2 1_555 1_555
C6_2 N7_2 1_555 1_555
C19_2 N8_2 1_555 1_555
C23_2 C24_2 1_555 1_555
N8_2 N9_2 1_555 1_555
C3_2 H3_2 1_555 1_555
C4_2 H4_2 1_555 1_555
C13_2 C14_2 1_555 1_555
C14_2 H11_2 1_555 1_555
C15_2 C14_2 1_555 1_555
H12_2 C15_2 1_555 1_555
C16_2 C15_2 1_555 1_555
C17_2 C16_2 1_555 1_555
C18_2 C13_2 1_555 1_555
H14_2 C18_2 1_555 1_555
N4 C3_2 1_555 1_555
N5_2 C3_2 1_555 1_555
N6_2 C4_2 1_555 1_555
Zn2 N4 1_555 1_555
C4_2 N4 1_555 1_555
C13_2 N5_2 1_555 1_555
C17_2 C18_2 1_555 1_555
N5_2 N6_2 1_555 1_555
Zn2 N1_3 1_555 1_555
C1_3 H1_3 1_555 1_555
C2_3 H2_2 1_555 1_555
C25_2 C27_2 1_555 1_555
C27_2 C28_2 1_555 1_555
C28_2 H19_2 1_555 1_555
H21_2 C31_2 1_555 1_555
C32_2 C27_2 1_555 1_555
H22_2 C32_2 1_555 1_555
N1_3 C1_3 1_555 1_555
N2_3 C1_3 1_555 1_555
N3_3 C2_3 1_555 1_555
O1_2 Zn2 1_555 1_555
O2_2 C25_2 1_555 1_555
O5_2 Zn2 1_555 1_555
C2_3 N1_3 1_555 1_555
C25_2 O1_2 1_555 1_555
C31_2 C32_2 1_555 1_555
N2_3 N3_3 1_555 1_555
C26_3 C33_3 1_555 1_555
H20_2 C29_2 1_555 1_555
C30_2 C29_2 1_555 1_555
C33_3 C34_3 1_555 1_555
C34_3 H23_3 1_555 1_555
C35_3 C34_3 1_555 1_555
H24_3 C35_3 1_555 1_555
C36_2 C35_3 1_555 1_555
C37_2 C36_2 1_555 1_555
H25_2 C37_2 1_555 1_555
C38_2 C33_3 1_555 1_555
H26_2 C38_2 1_555 1_555
C39_2 C36_2 1_555 1_555
C40_2 C39_2 1_555 1_555
H27_3 C40_2 1_555 1_555
C43_2 C30_2 1_555 1_555
C44_2 C39_2 1_555 1_555
H30_2 C44_2 1_555 1_555
O5_2 C26_3 1_555 1_555
O4_3 C26_3 1_555 1_555
C37_2 C38_2 1_555 1_555
C43_2 C44_2 1_555 1_555
C26_4 C33_4 1_555 1_555
H20_3 C29_3 1_555 1_555
C30_3 C29_3 1_555 1_555
C33_4 C34_4 1_555 1_555
C34_4 H23_4 1_555 1_555
C35_4 C34_4 1_555 1_555
H24_4 C35_4 1_555 1_555
C36_3 C35_4 1_555 1_555
C37_3 C36_3 1_555 1_555
H25_3 C37_3 1_555 1_555
C38_3 C33_4 1_555 1_555
H26_3 C38_3 1_555 1_555
C39_3 C36_3 1_555 1_555
C40_3 C39_3 1_555 1_555
H27_4 C40_3 1_555 1_555
C41_2 C40_3 1_555 1_555
H28_2 C41_2 1_555 1_555
C42_2 C41_2 1_555 1_555
H29_2 C42_2 1_555 1_555
C43_3 C30_3 1_555 1_555
C44_3 C39_3 1_555 1_555
H30_3 C44_3 1_555 1_555
O3_2 C26_4 1_555 1_555
O4_4 C26_4 1_555 1_555
Zn3_2 O3_2 1_555 1_555
C37_3 C38_3 1_555 1_555
C42_2 C43_3 1_555 1_555
C43_3 C44_3 1_555 1_555
Zn3_2 N1_4 1_555 1_555
C1_4 H1_4 1_555 1_555
N1_4 C1_4 1_555 1_555
N2_4 C1_4 1_555 1_555
C2_4 N1_4 1_555 1_555
C3_3 H3_3 1_555 1_555
C4_3 H4_3 1_555 1_555
C5_3 H5_3 1_555 1_555
C6_3 H6_3 1_555 1_555
C13_3 C14_3 1_555 1_555
C14_3 H11_3 1_555 1_555
C15_3 C14_3 1_555 1_555
H12_3 C15_3 1_555 1_555
C16_3 C15_3 1_555 1_555
C17_3 C16_3 1_555 1_555
C18_3 C13_3 1_555 1_555
H14_3 C18_3 1_555 1_555
C19_3 C20_3 1_555 1_555
C20_3 H15_3 1_555 1_555
C21_3 C20_3 1_555 1_555
C22_3 C21_3 1_555 1_555
C23_3 C22_3 1_555 1_555
H17_3 C23_3 1_555 1_555
C24_3 C19_3 1_555 1_555
H18_3 C24_3 1_555 1_555
N4_2 C3_3 1_555 1_555
N5_3 C3_3 1_555 1_555
N6_3 C4_3 1_555 1_555
N7_3 C5_3 1_555 1_555
N8_3 C5_3 1_555 1_555
N9_3 C6_3 1_555 1_555
C4_3 N4_2 1_555 1_555
C6_3 N7_3 1_555 1_555
C13_3 N5_3 1_555 1_555
C17_3 C18_3 1_555 1_555
C19_3 N8_3 1_555 1_555
C23_3 C24_3 1_555 1_555
N5_3 N6_3 1_555 1_555
N8_3 N9_3 1_555 1_555
C25_3 C27_3 1_555 1_555
C27_3 C28_3 1_555 1_555
C28_3 H19_3 1_555 1_555
C32_3 C27_3 1_555 1_555
O2_3 C25_3 1_555 1_555
C25_3 O1_3 1_555 1_555
C3_4 H3_4 1_555 1_555
C4_4 H4_4 1_555 1_555
C8_4 H7_4 1_555 1_555
C9_4 C8_4 1_555 1_555
H8_4 C9_4 1_555 1_555
C13_4 C14_4 1_555 1_555
C14_4 H11_4 1_555 1_555
C15_4 C14_4 1_555 1_555
H12_4 C15_4 1_555 1_555
C16_4 C15_4 1_555 1_555
C17_4 C16_4 1_555 1_555
H13_4 C17_4 1_555 1_555
C18_4 C13_4 1_555 1_555
H14_4 C18_4 1_555 1_555
N11_2 C3_4 1_555 1_555
N5_4 C3_4 1_555 1_555
N6_4 C4_4 1_555 1_555
C4_4 N11_2 1_555 1_555
C13_4 N5_4 1_555 1_555
C17_4 C18_4 1_555 1_555
N5_4 N6_4 1_555 1_555
C25_4 C27_4 1_555 1_555
C27_4 C28_4 1_555 1_555
C28_4 H19_4 1_555 1_555
C29_4 C28_4 1_555 1_555
H20_4 C29_4 1_555 1_555
C30_4 C29_4 1_555 1_555
C31_3 C30_4 1_555 1_555
H21_3 C31_3 1_555 1_555
C32_4 C27_4 1_555 1_555
H22_3 C32_4 1_555 1_555
C37_4 C36_4 1_555 1_555
H25_4 C37_4 1_555 1_555
H26_4 C38_4 1_555 1_555
C39_4 C36_4 1_555 1_555
C40_4 C39_4 1_555 1_555
C41_3 C40_4 1_555 1_555
H28_3 C41_3 1_555 1_555
C42_3 C41_3 1_555 1_555
H29_3 C42_3 1_555 1_555
C43_4 C30_4 1_555 1_555
C44_4 C39_4 1_555 1_555
H30_4 C44_4 1_555 1_555
O2_4 C25_4 1_555 1_555
C25_4 O1_4 1_555 1_555
C31_3 C32_4 1_555 1_555
C37_4 C38_4 1_555 1_555
C42_3 C43_4 1_555 1_555
C43_4 C44_4 1_555 1_555
H28_4 C41_4 1_555 1_555
C42_4 C41_4 1_555 1_555
H29_4 C42_4 1_555 1_555
H21_4 C31_4 1_555 1_555
C5_4 H5_4 1_555 1_555
C6_4 H6_4 1_555 1_555
C11_4 C10_4 1_555 1_555
H9_4 C11_4 1_555 1_555
C12_4 C7_4 1_555 1_555
H10_4 C12_4 1_555 1_555
C19_4 C20_4 1_555 1_555
C20_4 H15_4 1_555 1_555
C21_4 C20_4 1_555 1_555
H16_4 C21_4 1_555 1_555
C22_4 C21_4 1_555 1_555
C23_4 C22_4 1_555 1_555
H17_4 C23_4 1_555 1_555
C24_4 C19_4 1_555 1_555
H18_4 C24_4 1_555 1_555
N7_4 C5_4 1_555 1_555
N8_4 C5_4 1_555 1_555
N9_4 C6_4 1_555 1_555
N10_4 C10_4 1_555 1_555
C6_4 N7_4 1_555 1_555
C11_4 C12_4 1_555 1_555
C19_4 N8_4 1_555 1_555
C22_4 N10_4 1_555 1_555
C23_4 C24_4 1_555 1_555
N8_4 N9_4 1_555 1_555

#END
