
###############################################################################
#
# This file contains modified crystal structure data generated from the
# MOF subset of the Cambridge Structural Database (CSD) v543 
# hosted by the Cambridge Crystallographic Data Centre (CCDC).
#
# This work is licensed under the Creative Commons
# Attribution-NonCommercial-ShareAlike 4.0 International License.
# To view a copy of this license, visit
# http://creativecommons.org/licenses/by-nc-sa/4.0/
# or send a letter to
# Creative Commons, PO Box 1866, Mountain View, CA 94042, USA.
#
# CIF created using the CSD Python API on 29 September 2022
# The structure has been converted into the P1 space group
# The structure has a 3D framework
# The original CSD entry NANTII is in the tetragonal crystal system
# The framework has been calculated to contain at least 10.0% void space
# The void calculation uses a probe of radius 1.32A, grid spacing 0.4
#
###############################################################################

data_NANTII
_chemical_formula_moiety         '(C248 H328 Ce8 N40 O160 Si2 W24)n'
_symmetry_cell_setting           triclinic
_symmetry_space_group_name_H-M   'P 1'
_symmetry_Int_Tables_number      1
_space_group_name_Hall           'P 1'
loop_
_symmetry_equiv_pos_site_id
_symmetry_equiv_pos_as_xyz
1 x,y,z
_cell_length_a                   23.714(3)
_cell_length_b                   23.714(3)
_cell_length_c                   16.575(3)
_cell_angle_alpha                90
_cell_angle_beta                 90
_cell_angle_gamma                90
_cell_volume                     9321.01
loop_
_atom_site_label
_atom_site_type_symbol
_atom_site_fract_x
_atom_site_fract_y
_atom_site_fract_z
Si1 Si 0.2500 0.2500 0.2500
W1 W 0.284703(19) 0.34895(2) 0.09902(2)
W2 W 0.19208(2) 0.387365(19) 0.24300(2)
W3 W 0.153624(18) 0.29426(2) 0.09866(2)
O1 O 0.2275(3) 0.3013(3) 0.1929(3)
O2 O 0.1526(3) 0.3405(3) 0.3180(4)
O3 O 0.2523(3) 0.3840(3) 0.3189(4)
O4 O 0.1641(4) 0.4529(3) 0.2630(5)
O5 O 0.2459(3) 0.4070(3) 0.1592(4)
O6 O 0.3166(3) 0.3902(4) 0.0274(4)
O7 O 0.3120(3) 0.2761(4) 0.0716(4)
O8 O 0.2145(3) 0.3328(3) 0.0457(4)
O9 O 0.1410(3) 0.3625(3) 0.1587(4)
O10 O 0.1013(3) 0.3003(4) 0.0278(4)
O11 O 0.2725(3) 0.1987(3) 0.1929(3)
O12 O 0.3013(3) 0.2725(3) 0.3071(3)
O13 O 0.1987(3) 0.2275(3) 0.3071(3)
W4 W 0.215297(19) 0.15105(2) 0.09902(2)
W5 W 0.30792(2) 0.112635(19) 0.24300(2)
W6 W 0.346376(18) 0.20574(2) 0.09866(2)
O14 O 0.3474(3) 0.1595(3) 0.3180(4)
O15 O 0.2477(3) 0.1160(3) 0.3189(4)
O16 O 0.3359(4) 0.0471(3) 0.2630(5)
O17 O 0.2541(3) 0.0930(3) 0.1592(4)
O18 O 0.1834(3) 0.1098(4) 0.0274(4)
O19 O 0.1880(3) 0.2239(4) 0.0716(4)
O20 O 0.2855(3) 0.1672(3) 0.0457(4)
O21 O 0.3590(3) 0.1375(3) 0.1587(4)
O22 O 0.3987(3) 0.1997(4) 0.0278(4)
W7 W 0.34895(2) 0.215297(19) 0.40098(2)
W8 W 0.387365(19) 0.30792(2) 0.25700(2)
W9 W 0.29426(2) 0.346376(18) 0.40134(2)
O23 O 0.3405(3) 0.3474(3) 0.1820(4)
O24 O 0.3840(3) 0.2477(3) 0.1811(4)
O25 O 0.4529(3) 0.3359(4) 0.2370(5)
O26 O 0.4070(3) 0.2541(3) 0.3408(4)
O27 O 0.3902(4) 0.1834(3) 0.4726(4)
O28 O 0.2761(4) 0.1880(3) 0.4284(4)
O29 O 0.3328(3) 0.2855(3) 0.4543(4)
O30 O 0.3625(3) 0.3590(3) 0.3413(4)
O31 O 0.3003(4) 0.3987(3) 0.4722(4)
W10 W 0.15105(2) 0.284703(19) 0.40098(2)
W11 W 0.112635(19) 0.19208(2) 0.25700(2)
W12 W 0.20574(2) 0.153624(18) 0.40134(2)
O32 O 0.1595(3) 0.1526(3) 0.1820(4)
O33 O 0.1160(3) 0.2523(3) 0.1811(4)
O34 O 0.0471(3) 0.1641(4) 0.2370(5)
O35 O 0.0930(3) 0.2459(3) 0.3408(4)
O36 O 0.1098(4) 0.3166(3) 0.4726(4)
O37 O 0.2239(4) 0.3120(3) 0.4284(4)
O38 O 0.1672(3) 0.2145(3) 0.4543(4)
O39 O 0.1375(3) 0.1410(3) 0.3413(4)
O40 O 0.1997(4) 0.1013(3) 0.4722(4)
Si1_2 Si 0.7500 0.7500 0.7500
W1_2 W 0.65105(2) 0.784703(19) 0.59902(2)
W2_2 W 0.612635(19) 0.69208(2) 0.74300(2)
W3_2 W 0.70574(2) 0.653624(18) 0.59866(2)
O1_2 O 0.6987(3) 0.7275(3) 0.6929(3)
O2_2 O 0.6595(3) 0.6526(3) 0.8180(4)
O3_2 O 0.6160(3) 0.7523(3) 0.8189(4)
O4_2 O 0.5471(3) 0.6641(4) 0.7630(5)
O5_2 O 0.5930(3) 0.7459(3) 0.6592(4)
O6_2 O 0.6098(4) 0.8166(3) 0.5274(4)
O7_2 O 0.7239(4) 0.8120(3) 0.5716(4)
O8_2 O 0.6672(3) 0.7145(3) 0.5457(4)
O9_2 O 0.6375(3) 0.6410(3) 0.6587(4)
O10_2 O 0.6997(4) 0.6013(3) 0.5278(4)
O11_2 O 0.8013(3) 0.7725(3) 0.6929(3)
O12_2 O 0.7275(3) 0.8013(3) 0.8071(3)
O13_2 O 0.7725(3) 0.6987(3) 0.8071(3)
W4_2 W 0.84895(2) 0.715297(19) 0.59902(2)
W5_2 W 0.887365(19) 0.80792(2) 0.74300(2)
W6_2 W 0.79426(2) 0.846376(18) 0.59866(2)
O14_2 O 0.8405(3) 0.8474(3) 0.8180(4)
O15_2 O 0.8840(3) 0.7477(3) 0.8189(4)
O16_2 O 0.9529(3) 0.8359(4) 0.7630(5)
O17_2 O 0.9070(3) 0.7541(3) 0.6592(4)
O18_2 O 0.8902(4) 0.6834(3) 0.5274(4)
O19_2 O 0.7761(4) 0.6880(3) 0.5716(4)
O20_2 O 0.8328(3) 0.7855(3) 0.5457(4)
O21_2 O 0.8625(3) 0.8590(3) 0.6587(4)
O22_2 O 0.8003(4) 0.8987(3) 0.5278(4)
W7_2 W 0.784703(19) 0.84895(2) 0.90098(2)
W8_2 W 0.69208(2) 0.887365(19) 0.75700(2)
W9_2 W 0.653624(18) 0.79426(2) 0.90134(2)
O23_2 O 0.6526(3) 0.8405(3) 0.6820(4)
O24_2 O 0.7523(3) 0.8840(3) 0.6811(4)
O25_2 O 0.6641(4) 0.9529(3) 0.7370(5)
O26_2 O 0.7459(3) 0.9070(3) 0.8408(4)
O27_2 O 0.8166(3) 0.8902(4) 0.9726(4)
O28_2 O 0.8120(3) 0.7761(4) 0.9284(4)
O29_2 O 0.7145(3) 0.8328(3) 0.9543(4)
O30_2 O 0.6410(3) 0.8625(3) 0.8413(4)
O31_2 O 0.6013(3) 0.8003(4) 0.9722(4)
W10_2 W 0.715297(19) 0.65105(2) 0.90098(2)
W11_2 W 0.80792(2) 0.612635(19) 0.75700(2)
W12_2 W 0.846376(18) 0.70574(2) 0.90134(2)
O32_2 O 0.8474(3) 0.6595(3) 0.6820(4)
O33_2 O 0.7477(3) 0.6160(3) 0.6811(4)
O34_2 O 0.8359(4) 0.5471(3) 0.7370(5)
O35_2 O 0.7541(3) 0.5930(3) 0.8408(4)
O36_2 O 0.6834(3) 0.6098(4) 0.9726(4)
O37_2 O 0.6880(3) 0.7239(4) 0.9284(4)
O38_2 O 0.7855(3) 0.6672(3) 0.9543(4)
O39_2 O 0.8590(3) 0.6375(3) 0.8413(4)
O40_2 O 0.8987(3) 0.6997(4) 0.9722(4)
Ce1 Ce 0.37054(2) 0.64558(2) 0.08940(3)
O41 O 0.3369(3) 0.5571(3) 0.0289(4)
O47 O 0.2816(3) 0.6364(4) 0.1463(6)
O48 O 0.3994(4) 0.5785(4) 0.1811(5)
O49 O 0.4435(3) 0.6201(4) 0.0032(5)
O50 O 0.3683(4) 0.7335(4) 0.0346(6)
C17 C 0.5447(8) 0.6501(9) 0.0044(13)
H6 H 0.5668 0.6312 0.0464
H7 H 0.5306 0.6862 0.0250
C20 C 0.4207(10) 0.5519(9) 0.2364(12)
C21 C 0.4871(9) 0.5730(9) 0.2611(11)
H15 H 0.4855 0.5982 0.3078
H16 H 0.5040 0.5929 0.2153
H17 H 0.5101 0.5399 0.2744
C22 C 0.4368(8) 0.4805(8) 0.3385(11)
H18 H 0.4633 0.4547 0.3122
H19 H 0.4098 0.4589 0.3707
H20 H 0.4577 0.5063 0.3738
C23 C 0.3471(9) 0.4923(8) 0.2410(10)
H21 H 0.3163 0.5148 0.2637
H22 H 0.3424 0.4528 0.2569
H23 H 0.3465 0.4953 0.1821
C24 C 0.2373(9) 0.6112(9) 0.1790(14)
C25 C 0.2190(8) 0.5532(8) 0.1392(12)
H24 H 0.2047 0.5278 0.1811
H25 H 0.2516 0.5359 0.1125
H26 H 0.1892 0.5601 0.0993
C26 C 0.1661(8) 0.6059(8) 0.2867(14)
H27 H 0.1741 0.5672 0.3044
H28 H 0.1332 0.6057 0.2508
H29 H 0.1581 0.6295 0.3338
C27 C 0.2254(9) 0.6842(9) 0.2644(12)
H30 H 0.1913 0.7001 0.2888
H31 H 0.2354 0.7059 0.2162
H32 H 0.2564 0.6858 0.3033
H34 H 0.3022 0.8460 0.0050
H35 H 0.2702 0.7869 0.0138
N2 N 0.2155(7) 0.6287(8) 0.2430(11)
N3 N 0.4049(9) 0.5148(7) 0.2737(11)
C53 C 0.0632(8) 0.0195(8) 0.3385(11)
H59 H 0.0367 0.0453 0.3122
H60 H 0.0902 0.0411 0.3707
C54 C 0.1529(9) 0.0077(8) 0.2410(10)
H63 H 0.1576 0.0472 0.2569
H64 H 0.1535 0.0047 0.1821
O61 O 0.3718(3) 0.7027(4) 0.2113(5)
O63 O 0.4531(3) 0.6909(3) 0.1499(4)
O52 O 0.1821(3) 0.8633(3) 0.9644(4)
O53 O 0.2973(4) 0.8718(3) 0.7113(5)
O54 O 0.3091(3) 0.9531(3) 0.6499(4)
C32 C 0.1842(5) 0.9174(5) 0.9697(6)
C33 C 0.2136(5) 0.9503(4) 0.9044(6)
C34 C 0.2371(4) 0.9229(4) 0.8408(6)
H42 H 0.2355 0.8829 0.8380
C35 C 0.2919(5) 0.9248(4) 0.7103(6)
C36 C 0.2640(5) 0.9539(4) 0.7784(6)
C47 C 0.0062(7) 0.8881(8) 0.9799(10)
C50 C 0.0438(6) 0.9658(7) 0.9048(9)
H53 H 0.0646 0.9829 0.9498
H54 H 0.0299 0.9956 0.8690
H55 H 0.0690 0.9407 0.8746
C59 C 0.1412(5) 0.7238(8) 0.9969(11)
C60 C 0.2003(4) 0.6926(3) 0.9844(12)
H74 H 0.2096 0.6918 0.9268
C61 C 0.1170(7) 0.6590(6) 0.8914(9)
H77 H 0.0828 0.6362 0.8852
H78 H 0.1477 0.6353 0.9120
H79 H 0.1279 0.6747 0.8389
C62 C 0.0474(5) 0.7294(8) 0.9513(13)
H80 H 0.0445 0.7538 0.9989
H81 H 0.0195 0.6991 0.9553
H82 H 0.0402 0.7517 0.9026
N10 N 0.1064(6) 0.7042(5) 0.9471(8)
Ce3 Ce 0.35442(2) 0.87054(2) 0.58940(3)
O41_2 O 0.4429(3) 0.8369(3) 0.5289(4)
O42 O 0.3633(3) 0.8179(3) 0.4644(4)
O45 O 0.5970(3) 0.6599(3) 0.3606(5)
O46 O 0.6064(3) 0.8521(3) 0.3399(4)
O47_2 O 0.3636(4) 0.7816(3) 0.6463(6)
O48_2 O 0.4215(4) 0.8994(4) 0.6811(5)
O49_2 O 0.3799(4) 0.9435(3) 0.5032(5)
O50_2 O 0.2665(4) 0.8683(4) 0.5346(6)
C1 C 0.4174(5) 0.8158(5) 0.4697(6)
C2 C 0.4503(4) 0.7864(5) 0.4044(6)
C3 C 0.4229(4) 0.7629(4) 0.3408(6)
H1 H 0.3829 0.7645 0.3380
C4 C 0.4248(4) 0.7081(5) 0.2103(6)
C5 C 0.4539(4) 0.7360(5) 0.2784(6)
C6 C 0.5108(4) 0.7337(5) 0.2831(6)
H2 H 0.5315 0.7146 0.2423
C7 C 0.5400(4) 0.7595(5) 0.3484(6)
C8 C 0.5098(4) 0.7855(5) 0.4094(6)
H3 H 0.5287 0.8023 0.4538
C9 C 0.6269(4) 0.7020(5) 0.3568(5)
C10 C 0.6894(4) 0.7013(4) 0.3570(5)
C11 C 0.7199(4) 0.7513(4) 0.3567(5)
C12 C 0.6928(4) 0.8037(4) 0.3554(5)
C13 C 0.6305(4) 0.8085(5) 0.3504(5)
C14 C 0.7248(4) 0.8534(4) 0.3563(5)
H4 H 0.7063 0.8890 0.3554
C15 C 0.7854(4) 0.8510(4) 0.3586(5)
H5 H 0.8073 0.8844 0.3611
C16 C 0.3881(8) 0.9938(7) 0.4799(10)
C19 C 0.4658(7) 0.9562(6) 0.4048(9)
H12 H 0.4829 0.9354 0.4498
H13 H 0.4956 0.9701 0.3690
H14 H 0.4407 0.9310 0.3746
C20_2 C 0.4481(9) 0.9207(10) 0.7364(12)
C21_2 C 0.4270(9) 0.9871(9) 0.7611(11)
H15_2 H 0.4018 0.9855 0.8078
C22_2 C 0.5195(8) 0.9368(8) 0.8385(11)
H18_2 H 0.5453 0.9633 0.8122
H19_2 H 0.5411 0.9098 0.8707
H20_2 H 0.4937 0.9577 0.8738
C23_2 C 0.5077(8) 0.8471(9) 0.7410(10)
H21_2 H 0.4852 0.8163 0.7637
H22_2 H 0.5472 0.8424 0.7569
H23_2 H 0.5047 0.8465 0.6821
C24_2 C 0.3888(9) 0.7373(9) 0.6790(14)
C25_2 C 0.4468(8) 0.7190(8) 0.6392(12)
H24_2 H 0.4722 0.7047 0.6811
H25_2 H 0.4641 0.7516 0.6125
H26_2 H 0.4399 0.6892 0.5993
C26_2 C 0.3941(8) 0.6661(8) 0.7867(14)
H27_2 H 0.4328 0.6741 0.8044
H28_2 H 0.3943 0.6332 0.7508
H29_2 H 0.3705 0.6581 0.8338
C27_2 C 0.3158(9) 0.7254(9) 0.7644(12)
H30_2 H 0.2999 0.6913 0.7888
H31_2 H 0.2941 0.7354 0.7162
H32_2 H 0.3142 0.7564 0.8033
C28 C 0.2238(8) 0.8588(5) 0.4969(11)
C29 C 0.1926(3) 0.7997(4) 0.4844(12)
H33 H 0.1918 0.7904 0.4268
H34_2 H 0.1540 0.8022 0.5050
H35_2 H 0.2131 0.7702 0.5138
C30 C 0.1590(6) 0.8830(7) 0.3914(9)
H36 H 0.1362 0.9172 0.3852
H37 H 0.1353 0.8523 0.4120
H38 H 0.1747 0.8721 0.3389
C31 C 0.2294(8) 0.9526(5) 0.4513(13)
H39 H 0.2538 0.9555 0.4989
H40 H 0.1991 0.9805 0.4553
H41 H 0.2517 0.9598 0.4026
N1 N 0.6013(3) 0.7570(4) 0.3535(5)
N2_2 N 0.3713(8) 0.7155(7) 0.7430(11)
N3_2 N 0.4852(7) 0.9049(9) 0.7737(11)
N5 N 0.2042(5) 0.8936(6) 0.4471(8)
O55 O 0.9030(3) 0.8401(3) 0.3606(5)
O56 O 0.8936(3) 0.6479(3) 0.3399(4)
C37 C 0.9892(4) 0.7663(5) 0.2831(6)
H43 H 0.9685 0.7854 0.2423
C38 C 0.9600(4) 0.7405(5) 0.3484(6)
C39 C 0.9902(4) 0.7145(5) 0.4094(6)
H44 H 0.9713 0.6977 0.4538
C40 C 0.8731(4) 0.7980(5) 0.3568(5)
C41 C 0.8106(4) 0.7987(4) 0.3570(5)
C42 C 0.7801(4) 0.7487(4) 0.3567(5)
C43 C 0.8072(4) 0.6963(4) 0.3554(5)
C44 C 0.8695(4) 0.6915(5) 0.3504(5)
C45 C 0.7752(4) 0.6466(4) 0.3563(5)
H45 H 0.7937 0.6110 0.3554
C46 C 0.7146(4) 0.6490(4) 0.3586(5)
H46 H 0.6927 0.6156 0.3611
N6 N 0.8987(3) 0.7430(4) 0.3535(5)
C53_2 C 0.9805(8) 0.5632(8) 0.8385(11)
H59_2 H 0.9547 0.5367 0.8122
H60_2 H 0.9589 0.5902 0.8707
C54_2 C 0.9923(8) 0.6529(9) 0.7410(10)
H63_2 H 0.9528 0.6576 0.7569
H64_2 H 0.9953 0.6535 0.6821
O42_2 O 0.3179(3) 0.6367(3) 0.9644(4)
O43 O 0.2027(4) 0.6282(3) 0.7113(5)
O44 O 0.1909(3) 0.5469(3) 0.6499(4)
O45_2 O 0.1599(3) 0.4030(3) 0.8606(5)
O46_2 O 0.3521(3) 0.3936(3) 0.8399(4)
C1_2 C 0.3158(5) 0.5826(5) 0.9697(6)
C2_2 C 0.2864(5) 0.5497(4) 0.9044(6)
C3_2 C 0.2629(4) 0.5771(4) 0.8408(6)
H1_2 H 0.2645 0.6171 0.8380
C4_2 C 0.2081(5) 0.5752(4) 0.7103(6)
C5_2 C 0.2360(5) 0.5461(4) 0.7784(6)
C6_2 C 0.2337(5) 0.4892(4) 0.7831(6)
H2_2 H 0.2146 0.4685 0.7423
C7_2 C 0.2595(5) 0.4600(4) 0.8484(6)
C8_2 C 0.2855(5) 0.4902(4) 0.9094(6)
H3_2 H 0.3023 0.4713 0.9538
C9_2 C 0.2020(5) 0.3731(4) 0.8568(5)
C10_2 C 0.2013(4) 0.3106(4) 0.8570(5)
C11_2 C 0.2513(4) 0.2801(4) 0.8567(5)
C12_2 C 0.3037(4) 0.3072(4) 0.8554(5)
C13_2 C 0.3085(5) 0.3695(4) 0.8504(5)
C14_2 C 0.3534(4) 0.2752(4) 0.8563(5)
H4_2 H 0.3890 0.2937 0.8554
C15_2 C 0.3510(4) 0.2146(4) 0.8586(5)
H5_2 H 0.3844 0.1927 0.8611
C16_2 C 0.4938(7) 0.6119(8) 0.9799(10)
H8 H 0.5686 0.6569 0.9571
C18 C 0.5635(6) 0.5569(7) 0.9057(10)
H9 H 0.5916 0.5796 0.9347
H10 H 0.5644 0.5666 0.8482
H11 H 0.5722 0.5168 0.9124
C19_2 C 0.4562(6) 0.5342(7) 0.9048(9)
H12_2 H 0.4354 0.5171 0.9498
H13_2 H 0.4701 0.5044 0.8690
H14_2 H 0.4310 0.5593 0.8746
C28_2 C 0.3588(5) 0.7762(8) 0.9969(11)
C29_2 C 0.2997(4) 0.8074(3) 0.9844(12)
H33_2 H 0.2904 0.8082 0.9268
C30_2 C 0.3830(7) 0.8410(6) 0.8914(9)
H36_2 H 0.4172 0.8638 0.8852
H37_2 H 0.3523 0.8647 0.9120
H38_2 H 0.3721 0.8253 0.8389
C31_2 C 0.4526(5) 0.7706(8) 0.9513(13)
H39_2 H 0.4555 0.7462 0.9989
H40_2 H 0.4805 0.8009 0.9553
H41_2 H 0.4598 0.7483 0.9026
N1_2 N 0.2570(4) 0.3987(3) 0.8535(5)
N4 N 0.5069(5) 0.5687(5) 0.9384(8)
N5_2 N 0.3936(6) 0.7958(5) 0.9471(8)
O55_2 O 0.3401(3) 0.0970(3) 0.8606(5)
O56_2 O 0.1479(3) 0.1064(3) 0.8399(4)
C37_2 C 0.2663(5) 0.0108(4) 0.7831(6)
H43_2 H 0.2854 0.0315 0.7423
C38_2 C 0.2405(5) 0.0400(4) 0.8484(6)
C39_2 C 0.2145(5) 0.0098(4) 0.9094(6)
H44_2 H 0.1977 0.0287 0.9538
C40_2 C 0.2980(5) 0.1269(4) 0.8568(5)
C41_2 C 0.2987(4) 0.1894(4) 0.8570(5)
C42_2 C 0.2487(4) 0.2199(4) 0.8567(5)
C43_2 C 0.1963(4) 0.1928(4) 0.8554(5)
C44_2 C 0.1915(5) 0.1305(4) 0.8504(5)
C45_2 C 0.1466(4) 0.2248(4) 0.8563(5)
H45_2 H 0.1110 0.2063 0.8554
C46_2 C 0.1490(4) 0.2854(4) 0.8586(5)
H46_2 H 0.1156 0.3073 0.8611
N6_2 N 0.2430(4) 0.1013(3) 0.8535(5)
Ce4 Ce 0.14558(2) 0.62946(2) 0.58940(3)
O51 O 0.1631(3) 0.9429(3) 0.0289(4)
Ce2 Ce 0.12946(2) 0.85442(2) 0.08940(3)
O57 O 0.2184(3) 0.8636(4) 0.1463(6)
O58 O 0.1006(4) 0.9215(4) 0.1811(5)
O59 O 0.0565(3) 0.8799(4) 0.0032(5)
O60 O 0.1317(4) 0.7665(4) 0.0346(6)
C51 C 0.0793(10) 0.9481(9) 0.2364(12)
C52 C 0.0129(9) 0.9270(9) 0.2611(11)
H56 H 0.0145 0.9018 0.3078
H61 H 0.0423 0.9937 0.3738
H62 H 0.1837 0.9852 0.2637
C55 C 0.2627(9) 0.8888(9) 0.1790(14)
C56 C 0.2810(8) 0.9468(8) 0.1392(12)
H65 H 0.2953 0.9722 0.1811
H66 H 0.2484 0.9641 0.1125
H67 H 0.3108 0.9399 0.0993
C57 C 0.3339(8) 0.8941(8) 0.2867(14)
H68 H 0.3259 0.9328 0.3044
H69 H 0.3668 0.8943 0.2508
H70 H 0.3419 0.8705 0.3338
C58 C 0.2746(9) 0.8158(9) 0.2644(12)
H71 H 0.3087 0.7999 0.2888
H72 H 0.2646 0.7941 0.2162
H73 H 0.2436 0.8142 0.3033
H75 H 0.1978 0.6540 0.0050
H76 H 0.2298 0.7131 0.0138
N7 N 0.2845(7) 0.8713(8) 0.2430(11)
N8 N 0.0951(9) 0.9852(7) 0.2737(11)
O62 O 0.1282(3) 0.7973(4) 0.2113(5)
O64 O 0.0469(3) 0.8091(3) 0.1499(4)
O51_2 O 0.0571(3) 0.6631(3) 0.5289(4)
O52_2 O 0.1367(3) 0.6821(3) 0.4644(4)
C32_2 C 0.0826(5) 0.6842(5) 0.4697(6)
C33_2 C 0.0497(4) 0.7136(5) 0.4044(6)
C34_2 C 0.0771(4) 0.7371(4) 0.3408(6)
H42_2 H 0.1171 0.7355 0.3380
C35_2 C 0.0752(4) 0.7919(5) 0.2103(6)
C36_2 C 0.0461(4) 0.7640(5) 0.2784(6)
O57_2 O 0.1364(4) 0.7184(3) 0.6463(6)
O58_2 O 0.0785(4) 0.6006(4) 0.6811(5)
O59_2 O 0.1201(4) 0.5565(3) 0.5032(5)
O60_2 O 0.2335(4) 0.6317(4) 0.5346(6)
C47_2 C 0.1119(8) 0.5062(7) 0.4799(10)
C48 C 0.1501(9) 0.4553(8) 0.5044(13)
H47 H 0.1312 0.4332 0.5464
H48 H 0.1862 0.4694 0.5250
H49 H 0.1569 0.4314 0.4571
C49 C 0.0569(7) 0.4365(6) 0.4057(10)
H50 H 0.0796 0.4084 0.4347
H51 H 0.0666 0.4356 0.3482
H52 H 0.0168 0.4278 0.4124
C50_2 C 0.0342(7) 0.5438(6) 0.4048(9)
H53_2 H 0.0171 0.5646 0.4498
H54_2 H 0.0044 0.5299 0.3690
H55_2 H 0.0593 0.5690 0.3746
C51_2 C 0.0519(9) 0.5793(10) 0.7364(12)
C52_2 C 0.0730(9) 0.5129(9) 0.7611(11)
H56_2 H 0.0982 0.5145 0.8078
H57 H 0.0929 0.4960 0.7153
H58 H 0.0399 0.4899 0.7744
H61_2 H 0.0063 0.5423 0.8738
H62_2 H 0.0148 0.6837 0.7637
C55_2 C 0.1112(9) 0.7627(9) 0.6790(14)
C56_2 C 0.0532(8) 0.7810(8) 0.6392(12)
H65_2 H 0.0278 0.7953 0.6811
H66_2 H 0.0359 0.7484 0.6125
H67_2 H 0.0601 0.8108 0.5993
C57_2 C 0.1059(8) 0.8339(8) 0.7867(14)
H68_2 H 0.0672 0.8259 0.8044
H69_2 H 0.1057 0.8668 0.7508
H70_2 H 0.1295 0.8419 0.8338
C58_2 C 0.1842(9) 0.7746(9) 0.7644(12)
H71_2 H 0.2001 0.8087 0.7888
H72_2 H 0.2059 0.7646 0.7162
H73_2 H 0.1858 0.7436 0.8033
C59_2 C 0.2762(8) 0.6412(5) 0.4969(11)
C60_2 C 0.3074(3) 0.7003(4) 0.4844(12)
H74_2 H 0.3082 0.7096 0.4268
H75_2 H 0.3460 0.6978 0.5050
H76_2 H 0.2869 0.7298 0.5138
C61_2 C 0.3410(6) 0.6170(7) 0.3914(9)
H77_2 H 0.3638 0.5828 0.3852
H78_2 H 0.3647 0.6477 0.4120
H79_2 H 0.3253 0.6279 0.3389
C62_2 C 0.2706(8) 0.5474(5) 0.4513(13)
H80_2 H 0.2462 0.5445 0.4989
H81_2 H 0.3009 0.5195 0.4553
H82_2 H 0.2483 0.5402 0.4026
N7_2 N 0.1287(8) 0.7845(7) 0.7430(11)
N8_2 N 0.0148(7) 0.5951(9) 0.7737(11)
N9 N 0.0687(5) 0.4931(5) 0.4384(8)
N10_2 N 0.2958(5) 0.6064(6) 0.4471(8)
C48_2 C 0.9553(8) 0.8499(9) 0.0044(13)
H47_2 H 0.9332 0.8688 0.0464
H48_2 H 0.9694 0.8138 0.0250
H57_2 H 0.9960 0.9071 0.2153
H58_2 H 0.9899 0.9601 0.2744
H49_2 H 0.9314 0.8431 0.9571
C49_2 C 0.9365(6) 0.9431(7) 0.9057(10)
H50_2 H 0.9084 0.9204 0.9347
H51_2 H 0.9356 0.9334 0.8482
H52_2 H 0.9278 0.9832 0.9124
N9_2 N 0.9931(5) 0.9313(5) 0.9384(8)
C17_2 C 0.3499(9) 0.0447(8) 0.5044(13)
H6_2 H 0.3688 0.0668 0.5464
H7_2 H 0.3138 0.0306 0.5250
H8_2 H 0.3431 0.0686 0.4571
C18_2 C 0.4431(7) 0.0635(6) 0.4057(10)
H9_2 H 0.4204 0.0916 0.4347
H10_2 H 0.4334 0.0644 0.3482
H11_2 H 0.4832 0.0722 0.4124
H16_2 H 0.4071 0.0040 0.7153
H17_2 H 0.4601 0.0101 0.7744
N4_2 N 0.4313(5) 0.0069(5) 0.4384(8)
H49_3 H 0.0686 0.1569 0.0429
C49_3 C 0.0635(6) 0.0569(7) 0.0943(10)
H50_3 H 0.0916 0.0796 0.0653
H51_3 H 0.0644 0.0666 0.1518
H52_3 H 0.0722 0.0168 0.0876
N9_3 N 0.0069(5) 0.0687(5) 0.0616(8)
C48_3 C 0.0447(8) 0.1501(9) 0.9956(13)
H47_3 H 0.0668 0.1312 0.9536
H48_3 H 0.0306 0.1862 0.9750
H57_3 H 0.0040 0.0929 0.7847
H58_3 H 0.0101 0.0399 0.7256
O52_3 O 0.8179(3) 0.1367(3) 0.0356(4)
O53_2 O 0.7027(4) 0.1282(3) 0.2887(5)
O54_2 O 0.6909(3) 0.0469(3) 0.3501(4)
C32_3 C 0.8158(5) 0.0826(5) 0.0303(6)
C33_3 C 0.7864(5) 0.0497(4) 0.0956(6)
C34_3 C 0.7629(4) 0.0771(4) 0.1592(6)
H42_3 H 0.7645 0.1171 0.1620
C35_3 C 0.7081(5) 0.0752(4) 0.2897(6)
C36_3 C 0.7360(5) 0.0461(4) 0.2216(6)
C47_3 C 0.9938(7) 0.1119(8) 0.0201(10)
C50_3 C 0.9562(6) 0.0342(7) 0.0952(9)
H53_3 H 0.9354 0.0171 0.0502
H54_3 H 0.9701 0.0044 0.1310
H55_3 H 0.9310 0.0593 0.1254
C59_3 C 0.8588(5) 0.2762(8) 0.0031(11)
C60_3 C 0.7997(4) 0.3074(3) 0.0156(12)
H74_3 H 0.7904 0.3082 0.0732
C61_3 C 0.8830(7) 0.3410(6) 0.1086(9)
H77_3 H 0.9172 0.3638 0.1148
H78_3 H 0.8523 0.3647 0.0880
H79_3 H 0.8721 0.3253 0.1611
C62_3 C 0.9526(5) 0.2706(8) 0.0487(13)
H80_3 H 0.9555 0.2462 0.0011
H81_3 H 0.9805 0.3009 0.0447
H82_3 H 0.9598 0.2483 0.0974
N10_3 N 0.8936(6) 0.2958(5) 0.0529(8)
Ce3_2 Ce 0.64558(2) 0.12946(2) 0.41060(3)
Ce1_2 Ce 0.62946(2) 0.35442(2) 0.91060(3)
O41_3 O 0.6631(3) 0.4429(3) 0.9711(4)
O47_3 O 0.7184(3) 0.3636(4) 0.8537(6)
O48_3 O 0.6006(4) 0.4215(4) 0.8189(5)
O49_3 O 0.5565(3) 0.3799(4) 0.9968(5)
O50_3 O 0.6317(4) 0.2665(4) 0.9654(6)
C17_3 C 0.4553(8) 0.3499(9) 0.9956(13)
H6_3 H 0.4332 0.3688 0.9536
H7_3 H 0.4694 0.3138 0.9750
C20_3 C 0.5793(10) 0.4481(9) 0.7636(12)
C21_3 C 0.5129(9) 0.4270(9) 0.7389(11)
H15_3 H 0.5145 0.4018 0.6922
H16_3 H 0.4960 0.4071 0.7847
H17_3 H 0.4899 0.4601 0.7256
C22_3 C 0.5632(8) 0.5195(8) 0.6615(11)
H18_3 H 0.5367 0.5453 0.6878
H19_3 H 0.5902 0.5411 0.6293
H20_3 H 0.5423 0.4937 0.6262
C23_3 C 0.6529(9) 0.5077(8) 0.7590(10)
H21_3 H 0.6837 0.4852 0.7363
H22_3 H 0.6576 0.5472 0.7431
H23_3 H 0.6535 0.5047 0.8179
C24_3 C 0.7627(9) 0.3888(9) 0.8210(14)
C25_3 C 0.7810(8) 0.4468(8) 0.8608(12)
H24_3 H 0.7953 0.4722 0.8189
H25_3 H 0.7484 0.4641 0.8875
H26_3 H 0.8108 0.4399 0.9007
C26_3 C 0.8339(8) 0.3941(8) 0.7133(14)
H27_3 H 0.8259 0.4328 0.6956
H28_3 H 0.8668 0.3943 0.7492
H29_3 H 0.8419 0.3705 0.6662
C27_3 C 0.7746(9) 0.3158(9) 0.7356(12)
H30_3 H 0.8087 0.2999 0.7112
H31_3 H 0.7646 0.2941 0.7838
H32_3 H 0.7436 0.3142 0.6967
H34_3 H 0.6978 0.1540 0.9950
H35_3 H 0.7298 0.2131 0.9862
N2_3 N 0.7845(7) 0.3713(8) 0.7570(11)
N3_3 N 0.5951(9) 0.4852(7) 0.7263(11)
C53_3 C 0.9368(8) 0.9805(8) 0.6615(11)
H59_3 H 0.9633 0.9547 0.6878
H60_3 H 0.9098 0.9589 0.6293
C54_3 C 0.8471(9) 0.9923(8) 0.7590(10)
H63_3 H 0.8424 0.9528 0.7431
H64_3 H 0.8465 0.9953 0.8179
O61_2 O 0.6282(3) 0.2973(4) 0.7887(5)
O63_2 O 0.5469(3) 0.3091(3) 0.8501(4)
O41_4 O 0.5571(3) 0.1631(3) 0.4711(4)
O42_3 O 0.6367(3) 0.1821(3) 0.5356(4)
O45_3 O 0.4030(3) 0.3401(3) 0.6394(5)
O46_3 O 0.3936(3) 0.1479(3) 0.6601(4)
O47_4 O 0.6364(4) 0.2184(3) 0.3537(6)
O48_4 O 0.5785(4) 0.1006(4) 0.3189(5)
O49_4 O 0.6201(4) 0.0565(3) 0.4968(5)
O50_4 O 0.7335(4) 0.1317(4) 0.4654(6)
C1_3 C 0.5826(5) 0.1842(5) 0.5303(6)
C2_3 C 0.5497(4) 0.2136(5) 0.5956(6)
C3_3 C 0.5771(4) 0.2371(4) 0.6592(6)
H1_3 H 0.6171 0.2355 0.6620
C4_3 C 0.5752(4) 0.2919(5) 0.7897(6)
C5_3 C 0.5461(4) 0.2640(5) 0.7216(6)
C6_3 C 0.4892(4) 0.2663(5) 0.7169(6)
H2_3 H 0.4685 0.2854 0.7577
C7_3 C 0.4600(4) 0.2405(5) 0.6516(6)
C8_3 C 0.4902(4) 0.2145(5) 0.5906(6)
H3_3 H 0.4713 0.1977 0.5462
C9_3 C 0.3731(4) 0.2980(5) 0.6432(5)
C10_3 C 0.3106(4) 0.2987(4) 0.6430(5)
C11_3 C 0.2801(4) 0.2487(4) 0.6433(5)
C12_3 C 0.3072(4) 0.1963(4) 0.6446(5)
C13_3 C 0.3695(4) 0.1915(5) 0.6496(5)
C14_3 C 0.2752(4) 0.1466(4) 0.6437(5)
H4_3 H 0.2937 0.1110 0.6446
C15_3 C 0.2146(4) 0.1490(4) 0.6414(5)
H5_3 H 0.1927 0.1156 0.6389
C16_3 C 0.6119(8) 0.0062(7) 0.5201(10)
C19_3 C 0.5342(7) 0.0438(6) 0.5952(9)
H12_3 H 0.5171 0.0646 0.5502
H13_3 H 0.5044 0.0299 0.6310
H14_3 H 0.5593 0.0690 0.6254
C20_4 C 0.5519(9) 0.0793(10) 0.2636(12)
C21_4 C 0.5730(9) 0.0129(9) 0.2389(11)
H15_4 H 0.5982 0.0145 0.1922
C22_4 C 0.4805(8) 0.0632(8) 0.1615(11)
H18_4 H 0.4547 0.0367 0.1878
H19_4 H 0.4589 0.0902 0.1293
H20_4 H 0.5063 0.0423 0.1262
C23_4 C 0.4923(8) 0.1529(9) 0.2590(10)
H21_4 H 0.5148 0.1837 0.2363
H22_4 H 0.4528 0.1576 0.2431
H23_4 H 0.4953 0.1535 0.3179
C24_4 C 0.6112(9) 0.2627(9) 0.3210(14)
C25_4 C 0.5532(8) 0.2810(8) 0.3608(12)
H24_4 H 0.5278 0.2953 0.3189
H25_4 H 0.5359 0.2484 0.3875
H26_4 H 0.5601 0.3108 0.4007
C26_4 C 0.6059(8) 0.3339(8) 0.2133(14)
H27_4 H 0.5672 0.3259 0.1956
H28_4 H 0.6057 0.3668 0.2492
H29_4 H 0.6295 0.3419 0.1662
C27_4 C 0.6842(9) 0.2746(9) 0.2356(12)
H30_4 H 0.7001 0.3087 0.2112
H31_4 H 0.7059 0.2646 0.2838
H32_4 H 0.6858 0.2436 0.1967
C28_3 C 0.7762(8) 0.1412(5) 0.5031(11)
C29_3 C 0.8074(3) 0.2003(4) 0.5156(12)
H33_3 H 0.8082 0.2096 0.5732
H34_4 H 0.8460 0.1978 0.4950
H35_4 H 0.7869 0.2298 0.4862
C30_3 C 0.8410(6) 0.1170(7) 0.6086(9)
H36_3 H 0.8638 0.0828 0.6148
H37_3 H 0.8647 0.1477 0.5880
H38_3 H 0.8253 0.1279 0.6611
C31_3 C 0.7706(8) 0.0474(5) 0.5487(13)
H39_3 H 0.7462 0.0445 0.5011
H40_3 H 0.8009 0.0195 0.5447
H41_3 H 0.7483 0.0402 0.5974
N1_3 N 0.3987(3) 0.2430(4) 0.6465(5)
N2_4 N 0.6287(8) 0.2845(7) 0.2570(11)
N3_4 N 0.5148(7) 0.0951(9) 0.2263(11)
N5_3 N 0.7958(5) 0.1064(6) 0.5529(8)
O55_3 O 0.0970(3) 0.1599(3) 0.6394(5)
O56_3 O 0.1064(3) 0.3521(3) 0.6601(4)
C37_3 C 0.0108(4) 0.2337(5) 0.7169(6)
H43_3 H 0.0315 0.2146 0.7577
C38_3 C 0.0400(4) 0.2595(5) 0.6516(6)
C39_3 C 0.0098(4) 0.2855(5) 0.5906(6)
H44_3 H 0.0287 0.3023 0.5462
C40_3 C 0.1269(4) 0.2020(5) 0.6432(5)
C41_3 C 0.1894(4) 0.2013(4) 0.6430(5)
C42_3 C 0.2199(4) 0.2513(4) 0.6433(5)
C43_3 C 0.1928(4) 0.3037(4) 0.6446(5)
C44_3 C 0.1305(4) 0.3085(5) 0.6496(5)
C45_3 C 0.2248(4) 0.3534(4) 0.6437(5)
H45_3 H 0.2063 0.3890 0.6446
C46_3 C 0.2854(4) 0.3510(4) 0.6414(5)
H46_3 H 0.3073 0.3844 0.6389
N6_3 N 0.1013(3) 0.2570(4) 0.6465(5)
C53_4 C 0.0195(8) 0.4368(8) 0.1615(11)
H59_4 H 0.0453 0.4633 0.1878
H60_4 H 0.0411 0.4098 0.1293
C54_4 C 0.0077(8) 0.3471(9) 0.2590(10)
H63_4 H 0.0472 0.3424 0.2431
H64_4 H 0.0047 0.3465 0.3179
O51_3 O 0.8369(3) 0.0571(3) 0.9711(4)
Ce2_2 Ce 0.87054(2) 0.14558(2) 0.91060(3)
O57_3 O 0.7816(3) 0.1364(4) 0.8537(6)
O58_3 O 0.8994(4) 0.0785(4) 0.8189(5)
O59_3 O 0.9435(3) 0.1201(4) 0.9968(5)
O60_3 O 0.8683(4) 0.2335(4) 0.9654(6)
C51_3 C 0.9207(10) 0.0519(9) 0.7636(12)
C52_3 C 0.9871(9) 0.0730(9) 0.7389(11)
H56_3 H 0.9855 0.0982 0.6922
H61_3 H 0.9577 0.0063 0.6262
H62_3 H 0.8163 0.0148 0.7363
C55_3 C 0.7373(9) 0.1112(9) 0.8210(14)
C56_3 C 0.7190(8) 0.0532(8) 0.8608(12)
H65_3 H 0.7047 0.0278 0.8189
H66_3 H 0.7516 0.0359 0.8875
H67_3 H 0.6892 0.0601 0.9007
C57_3 C 0.6661(8) 0.1059(8) 0.7133(14)
H68_3 H 0.6741 0.0672 0.6956
H69_3 H 0.6332 0.1057 0.7492
H70_3 H 0.6581 0.1295 0.6662
C58_3 C 0.7254(9) 0.1842(9) 0.7356(12)
H71_3 H 0.6913 0.2001 0.7112
H72_3 H 0.7354 0.2059 0.7838
H73_3 H 0.7564 0.1858 0.6967
H75_3 H 0.8022 0.3460 0.9950
H76_3 H 0.7702 0.2869 0.9862
N7_3 N 0.7155(7) 0.1287(8) 0.7570(11)
N8_3 N 0.9049(9) 0.0148(7) 0.7263(11)
O62_2 O 0.8718(3) 0.2027(4) 0.7887(5)
O64_2 O 0.9531(3) 0.1909(3) 0.8501(4)
O42_4 O 0.6821(3) 0.3633(3) 0.0356(4)
O43_2 O 0.7973(4) 0.3718(3) 0.2887(5)
O44_2 O 0.8091(3) 0.4531(3) 0.3501(4)
O45_4 O 0.8401(3) 0.5970(3) 0.1394(5)
O46_4 O 0.6479(3) 0.6064(3) 0.1601(4)
C1_4 C 0.6842(5) 0.4174(5) 0.0303(6)
C2_4 C 0.7136(5) 0.4503(4) 0.0956(6)
C3_4 C 0.7371(4) 0.4229(4) 0.1592(6)
H1_4 H 0.7355 0.3829 0.1620
C4_4 C 0.7919(5) 0.4248(4) 0.2897(6)
C5_4 C 0.7640(5) 0.4539(4) 0.2216(6)
C6_4 C 0.7663(5) 0.5108(4) 0.2169(6)
H2_4 H 0.7854 0.5315 0.2577
C7_4 C 0.7405(5) 0.5400(4) 0.1516(6)
C8_4 C 0.7145(5) 0.5098(4) 0.0906(6)
H3_4 H 0.6977 0.5287 0.0462
C9_4 C 0.7980(5) 0.6269(4) 0.1432(5)
C10_4 C 0.7987(4) 0.6894(4) 0.1430(5)
C11_4 C 0.7487(4) 0.7199(4) 0.1433(5)
C12_4 C 0.6963(4) 0.6928(4) 0.1446(5)
C13_4 C 0.6915(5) 0.6305(4) 0.1496(5)
C14_4 C 0.6466(4) 0.7248(4) 0.1437(5)
H4_4 H 0.6110 0.7063 0.1446
C15_4 C 0.6490(4) 0.7854(4) 0.1414(5)
H5_4 H 0.6156 0.8073 0.1389
C16_4 C 0.5062(7) 0.3881(8) 0.0201(10)
H8_3 H 0.4314 0.3431 0.0429
C18_3 C 0.4365(6) 0.4431(7) 0.0943(10)
H9_3 H 0.4084 0.4204 0.0653
H10_3 H 0.4356 0.4334 0.1518
H11_3 H 0.4278 0.4832 0.0876
C19_4 C 0.5438(6) 0.4658(7) 0.0952(9)
H12_4 H 0.5646 0.4829 0.0502
H13_4 H 0.5299 0.4956 0.1310
H14_4 H 0.5690 0.4407 0.1254
C28_4 C 0.6412(5) 0.2238(8) 0.0031(11)
C29_4 C 0.7003(4) 0.1926(3) 0.0156(12)
H33_4 H 0.7096 0.1918 0.0732
C30_4 C 0.6170(7) 0.1590(6) 0.1086(9)
H36_4 H 0.5828 0.1362 0.1148
H37_4 H 0.6477 0.1353 0.0880
H38_4 H 0.6279 0.1747 0.1611
C31_4 C 0.5474(5) 0.2294(8) 0.0487(13)
H39_4 H 0.5445 0.2538 0.0011
H40_4 H 0.5195 0.1991 0.0447
H41_4 H 0.5402 0.2517 0.0974
N1_4 N 0.7430(4) 0.6013(3) 0.1465(5)
N4_3 N 0.4931(5) 0.4313(5) 0.0616(8)
N5_4 N 0.6064(6) 0.2042(5) 0.0529(8)
O55_4 O 0.6599(3) 0.9030(3) 0.1394(5)
O56_4 O 0.8521(3) 0.8936(3) 0.1601(4)
C37_4 C 0.7337(5) 0.9892(4) 0.2169(6)
H43_4 H 0.7146 0.9685 0.2577
C38_4 C 0.7595(5) 0.9600(4) 0.1516(6)
C39_4 C 0.7855(5) 0.9902(4) 0.0906(6)
H44_4 H 0.8023 0.9713 0.0462
C40_4 C 0.7020(5) 0.8731(4) 0.1432(5)
C41_4 C 0.7013(4) 0.8106(4) 0.1430(5)
C42_4 C 0.7513(4) 0.7801(4) 0.1433(5)
C43_4 C 0.8037(4) 0.8072(4) 0.1446(5)
C44_4 C 0.8085(5) 0.8695(4) 0.1496(5)
C45_4 C 0.8534(4) 0.7752(4) 0.1437(5)
H45_4 H 0.8890 0.7937 0.1446
C46_4 C 0.8510(4) 0.7146(4) 0.1414(5)
H46_4 H 0.8844 0.6927 0.1389
N6_4 N 0.7570(4) 0.8987(3) 0.1465(5)
Ce4_2 Ce 0.85442(2) 0.37054(2) 0.41060(3)
O51_4 O 0.9429(3) 0.3369(3) 0.4711(4)
O52_4 O 0.8633(3) 0.3179(3) 0.5356(4)
C32_4 C 0.9174(5) 0.3158(5) 0.5303(6)
C33_4 C 0.9503(4) 0.2864(5) 0.5956(6)
C34_4 C 0.9229(4) 0.2629(4) 0.6592(6)
H42_4 H 0.8829 0.2645 0.6620
C35_4 C 0.9248(4) 0.2081(5) 0.7897(6)
C36_4 C 0.9539(4) 0.2360(5) 0.7216(6)
O57_4 O 0.8636(4) 0.2816(3) 0.3537(6)
O58_4 O 0.9215(4) 0.3994(4) 0.3189(5)
O59_4 O 0.8799(4) 0.4435(3) 0.4968(5)
O60_4 O 0.7665(4) 0.3683(4) 0.4654(6)
C47_4 C 0.8881(8) 0.4938(7) 0.5201(10)
C48_4 C 0.8499(9) 0.5447(8) 0.4956(13)
H47_4 H 0.8688 0.5668 0.4536
H48_4 H 0.8138 0.5306 0.4750
H49_4 H 0.8431 0.5686 0.5429
C49_4 C 0.9431(7) 0.5635(6) 0.5943(10)
H50_4 H 0.9204 0.5916 0.5653
H51_4 H 0.9334 0.5644 0.6518
H52_4 H 0.9832 0.5722 0.5876
C50_4 C 0.9658(7) 0.4562(6) 0.5952(9)
H53_4 H 0.9829 0.4354 0.5502
H54_4 H 0.9956 0.4701 0.6310
H55_4 H 0.9407 0.4310 0.6254
C51_4 C 0.9481(9) 0.4207(10) 0.2636(12)
C52_4 C 0.9270(9) 0.4871(9) 0.2389(11)
H56_4 H 0.9018 0.4855 0.1922
H57_4 H 0.9071 0.5040 0.2847
H58_4 H 0.9601 0.5101 0.2256
H61_4 H 0.9937 0.4577 0.1262
H62_4 H 0.9852 0.3163 0.2363
C55_4 C 0.8888(9) 0.2373(9) 0.3210(14)
C56_4 C 0.9468(8) 0.2190(8) 0.3608(12)
H65_4 H 0.9722 0.2047 0.3189
H66_4 H 0.9641 0.2516 0.3875
H67_4 H 0.9399 0.1892 0.4007
C57_4 C 0.8941(8) 0.1661(8) 0.2133(14)
H68_4 H 0.9328 0.1741 0.1956
H69_4 H 0.8943 0.1332 0.2492
H70_4 H 0.8705 0.1581 0.1662
C58_4 C 0.8158(9) 0.2254(9) 0.2356(12)
H71_4 H 0.7999 0.1913 0.2112
H72_4 H 0.7941 0.2354 0.2838
H73_4 H 0.8142 0.2564 0.1967
C59_4 C 0.7238(8) 0.3588(5) 0.5031(11)
C60_4 C 0.6926(3) 0.2997(4) 0.5156(12)
H74_4 H 0.6918 0.2904 0.5732
H75_4 H 0.6540 0.3022 0.4950
H76_4 H 0.7131 0.2702 0.4862
C61_4 C 0.6590(6) 0.3830(7) 0.6086(9)
H77_4 H 0.6362 0.4172 0.6148
H78_4 H 0.6353 0.3523 0.5880
H79_4 H 0.6747 0.3721 0.6611
C62_4 C 0.7294(8) 0.4526(5) 0.5487(13)
H80_4 H 0.7538 0.4555 0.5011
H81_4 H 0.6991 0.4805 0.5447
H82_4 H 0.7517 0.4598 0.5974
N7_4 N 0.8713(8) 0.2155(7) 0.2570(11)
N8_4 N 0.9852(7) 0.4049(9) 0.2263(11)
N9_4 N 0.9313(5) 0.5069(5) 0.5616(8)
N10_4 N 0.7042(5) 0.3936(6) 0.5529(8)
C17_4 C 0.6501(9) 0.9553(8) 0.4956(13)
H6_4 H 0.6312 0.9332 0.4536
H7_4 H 0.6862 0.9694 0.4750
H8_4 H 0.6569 0.9314 0.5429
C18_4 C 0.5569(7) 0.9365(6) 0.5943(10)
H9_4 H 0.5796 0.9084 0.5653
H10_4 H 0.5666 0.9356 0.6518
H11_4 H 0.5168 0.9278 0.5876
H16_4 H 0.5929 0.9960 0.2847
H17_4 H 0.5399 0.9899 0.2256
N4_4 N 0.5687(5) 0.9931(5) 0.5616(8)
loop_
_geom_bond_atom_site_label_1
_geom_bond_atom_site_label_2
_geom_bond_site_symmetry_1
_geom_bond_site_symmetry_2
Si1 O1 1_555 1_555
W1 O1 1_555 1_555
W2 O1 1_555 1_555
W3 O1 1_555 1_555
O2 W2 1_555 1_555
O3 W2 1_555 1_555
O4 W2 1_555 1_555
O5 W1 1_555 1_555
O6 W1 1_555 1_555
O7 W1 1_555 1_555
O8 W1 1_555 1_555
O9 W2 1_555 1_555
O10 W3 1_555 1_555
O11 Si1 1_555 1_555
O12 Si1 1_555 1_555
O13 Si1 1_555 1_555
W4 O11 1_555 1_555
W5 O11 1_555 1_555
W6 O7 1_555 1_555
O14 W5 1_555 1_555
O15 W5 1_555 1_555
O16 W5 1_555 1_555
O17 W4 1_555 1_555
O18 W4 1_555 1_555
O19 W3 1_555 1_555
O20 W4 1_555 1_555
O21 W5 1_555 1_555
O22 W6 1_555 1_555
W7 O12 1_555 1_555
W8 O12 1_555 1_555
W9 O3 1_555 1_555
O23 W1 1_555 1_555
O24 W6 1_555 1_555
O25 W8 1_555 1_555
O26 W7 1_555 1_555
O27 W7 1_555 1_555
O28 W7 1_555 1_555
O29 W7 1_555 1_555
O30 W8 1_555 1_555
O31 W9 1_555 1_555
W10 O2 1_555 1_555
W11 O13 1_555 1_555
W12 O13 1_555 1_555
O32 W4 1_555 1_555
O33 W3 1_555 1_555
O34 W11 1_555 1_555
O35 W10 1_555 1_555
O36 W10 1_555 1_555
O37 W9 1_555 1_555
O38 W10 1_555 1_555
O39 W11 1_555 1_555
O40 W12 1_555 1_555
W2 O5 1_555 1_555
W3 O8 1_555 1_555
W3 O9 1_555 1_555
O11 W6 1_555 1_555
O12 W9 1_555 1_555
O13 W10 1_555 1_555
W4 O19 1_555 1_555
W5 O17 1_555 1_555
W6 O20 1_555 1_555
W6 O21 1_555 1_555
O14 W7 1_555 1_555
O15 W12 1_555 1_555
W8 O23 1_555 1_555
W8 O24 1_555 1_555
W8 O26 1_555 1_555
W9 O29 1_555 1_555
W9 O30 1_555 1_555
O28 W12 1_555 1_555
W10 O37 1_555 1_555
W11 O32 1_555 1_555
W11 O33 1_555 1_555
W11 O35 1_555 1_555
W12 O38 1_555 1_555
W12 O39 1_555 1_555
Si1_2 O1_2 1_555 1_555
W1_2 O1_2 1_555 1_555
W2_2 O1_2 1_555 1_555
W3_2 O1_2 1_555 1_555
O2_2 W2_2 1_555 1_555
O3_2 W2_2 1_555 1_555
O4_2 W2_2 1_555 1_555
O5_2 W1_2 1_555 1_555
O6_2 W1_2 1_555 1_555
O7_2 W1_2 1_555 1_555
O8_2 W1_2 1_555 1_555
O9_2 W2_2 1_555 1_555
O10_2 W3_2 1_555 1_555
O11_2 Si1_2 1_555 1_555
O12_2 Si1_2 1_555 1_555
O13_2 Si1_2 1_555 1_555
W4_2 O11_2 1_555 1_555
W5_2 O11_2 1_555 1_555
W6_2 O7_2 1_555 1_555
O14_2 W5_2 1_555 1_555
O15_2 W5_2 1_555 1_555
O16_2 W5_2 1_555 1_555
O17_2 W4_2 1_555 1_555
O18_2 W4_2 1_555 1_555
O19_2 W3_2 1_555 1_555
O20_2 W4_2 1_555 1_555
O21_2 W5_2 1_555 1_555
O22_2 W6_2 1_555 1_555
W7_2 O12_2 1_555 1_555
W8_2 O12_2 1_555 1_555
W9_2 O3_2 1_555 1_555
O23_2 W1_2 1_555 1_555
O24_2 W6_2 1_555 1_555
O25_2 W8_2 1_555 1_555
O26_2 W7_2 1_555 1_555
O27_2 W7_2 1_555 1_555
O28_2 W7_2 1_555 1_555
O29_2 W7_2 1_555 1_555
O30_2 W8_2 1_555 1_555
O31_2 W9_2 1_555 1_555
W10_2 O2_2 1_555 1_555
W11_2 O13_2 1_555 1_555
W12_2 O13_2 1_555 1_555
O32_2 W4_2 1_555 1_555
O33_2 W3_2 1_555 1_555
O34_2 W11_2 1_555 1_555
O35_2 W10_2 1_555 1_555
O36_2 W10_2 1_555 1_555
O37_2 W9_2 1_555 1_555
O38_2 W10_2 1_555 1_555
O39_2 W11_2 1_555 1_555
O40_2 W12_2 1_555 1_555
W2_2 O5_2 1_555 1_555
W3_2 O8_2 1_555 1_555
W3_2 O9_2 1_555 1_555
O11_2 W6_2 1_555 1_555
O12_2 W9_2 1_555 1_555
O13_2 W10_2 1_555 1_555
W4_2 O19_2 1_555 1_555
W5_2 O17_2 1_555 1_555
W6_2 O20_2 1_555 1_555
W6_2 O21_2 1_555 1_555
O14_2 W7_2 1_555 1_555
O15_2 W12_2 1_555 1_555
W8_2 O23_2 1_555 1_555
W8_2 O24_2 1_555 1_555
W8_2 O26_2 1_555 1_555
W9_2 O29_2 1_555 1_555
W9_2 O30_2 1_555 1_555
O28_2 W12_2 1_555 1_555
W10_2 O37_2 1_555 1_555
W11_2 O32_2 1_555 1_555
W11_2 O33_2 1_555 1_555
W11_2 O35_2 1_555 1_555
W12_2 O38_2 1_555 1_555
W12_2 O39_2 1_555 1_555
Ce1 O41 1_555 1_555
O47 Ce1 1_555 1_555
O48 Ce1 1_555 1_555
O49 Ce1 1_555 1_555
O50 Ce1 1_555 1_555
H6 C17 1_555 1_555
H7 C17 1_555 1_555
C20 O48 1_555 1_555
C21 C20 1_555 1_555
H15 C21 1_555 1_555
H16 C21 1_555 1_555
H17 C21 1_555 1_555
C22 H18 1_555 1_555
H19 C22 1_555 1_555
H20 C22 1_555 1_555
C23 H21 1_555 1_555
H22 C23 1_555 1_555
H23 C23 1_555 1_555
C24 O47 1_555 1_555
C25 C24 1_555 1_555
H24 C25 1_555 1_555
H25 C25 1_555 1_555
H26 C25 1_555 1_555
C26 H27 1_555 1_555
H28 C26 1_555 1_555
H29 C26 1_555 1_555
C27 H30 1_555 1_555
H31 C27 1_555 1_555
H32 C27 1_555 1_555
N2 C24 1_555 1_555
N3 C20 1_555 1_555
C53 H59 1_555 1_555
H60 C53 1_555 1_555
H63 C54 1_555 1_555
H64 C54 1_555 1_555
O61 Ce1 1_555 1_555
O63 Ce1 1_555 1_555
C22 N3 1_555 1_555
C23 N3 1_555 1_555
C26 N2 1_555 1_555
C27 N2 1_555 1_555
O52 C32 1_555 1_555
O53 C35 1_555 1_555
O54 C35 1_555 1_555
C32 C33 1_555 1_555
C33 C34 1_555 1_555
C34 H42 1_555 1_555
C35 C36 1_555 1_555
C36 C34 1_555 1_555
C50 H53 1_555 1_555
H54 C50 1_555 1_555
H55 C50 1_555 1_555
C60 C59 1_555 1_555
H74 C60 1_555 1_555
C61 H77 1_555 1_555
H78 C61 1_555 1_555
H79 C61 1_555 1_555
C62 H80 1_555 1_555
H81 C62 1_555 1_555
H82 C62 1_555 1_555
N10 C59 1_555 1_555
Ce3 O53 1_555 1_555
O54 Ce3 1_555 1_555
C61 N10 1_555 1_555
C62 N10 1_555 1_555
Ce3 O41_2 1_555 1_555
O41_2 C1 1_555 1_555
O42 Ce3 1_555 1_555
O61 C4 1_555 1_555
O63 C4 1_555 1_555
O45 C9 1_555 1_555
O46 C13 1_555 1_555
O47_2 Ce3 1_555 1_555
O48_2 Ce3 1_555 1_555
O49_2 Ce3 1_555 1_555
O50_2 Ce3 1_555 1_555
C1 O42 1_555 1_555
C2 C1 1_555 1_555
C3 C2 1_555 1_555
H1 C3 1_555 1_555
C4 C5 1_555 1_555
C5 C3 1_555 1_555
C6 C5 1_555 1_555
H2 C6 1_555 1_555
C7 C6 1_555 1_555
C8 C2 1_555 1_555
H3 C8 1_555 1_555
C9 C10 1_555 1_555
C10 C11 1_555 1_555
C11 C12 1_555 1_555
C12 C13 1_555 1_555
C13 N1 1_555 1_555
C14 C12 1_555 1_555
H4 C14 1_555 1_555
C15 C14 1_555 1_555
H5 C15 1_555 1_555
C16 O49_2 1_555 1_555
C19 H12 1_555 1_555
H13 C19 1_555 1_555
H14 C19 1_555 1_555
C20_2 O48_2 1_555 1_555
C21_2 C20_2 1_555 1_555
H15_2 C21_2 1_555 1_555
C22_2 H18_2 1_555 1_555
H19_2 C22_2 1_555 1_555
H20_2 C22_2 1_555 1_555
C23_2 H21_2 1_555 1_555
H22_2 C23_2 1_555 1_555
H23_2 C23_2 1_555 1_555
C24_2 O47_2 1_555 1_555
C25_2 C24_2 1_555 1_555
H24_2 C25_2 1_555 1_555
H25_2 C25_2 1_555 1_555
H26_2 C25_2 1_555 1_555
C26_2 H27_2 1_555 1_555
H28_2 C26_2 1_555 1_555
H29_2 C26_2 1_555 1_555
C27_2 H30_2 1_555 1_555
H31_2 C27_2 1_555 1_555
H32_2 C27_2 1_555 1_555
C28 O50_2 1_555 1_555
C29 C28 1_555 1_555
H33 C29 1_555 1_555
H34_2 C29 1_555 1_555
H35_2 C29 1_555 1_555
C30 H36 1_555 1_555
H37 C30 1_555 1_555
H38 C30 1_555 1_555
C31 H39 1_555 1_555
H40 C31 1_555 1_555
H41 C31 1_555 1_555
N1 C7 1_555 1_555
N2_2 C24_2 1_555 1_555
N3_2 C20_2 1_555 1_555
N5 C28 1_555 1_555
O55 C40 1_555 1_555
O56 C44 1_555 1_555
H43 C37 1_555 1_555
C38 C37 1_555 1_555
H44 C39 1_555 1_555
C40 C41 1_555 1_555
C41 C15 1_555 1_555
C42 C11 1_555 1_555
C43 C42 1_555 1_555
C44 C43 1_555 1_555
C45 C43 1_555 1_555
H45 C45 1_555 1_555
C46 C10 1_555 1_555
H46 C46 1_555 1_555
N6 C38 1_555 1_555
C53_2 H59_2 1_555 1_555
H60_2 C53_2 1_555 1_555
H63_2 C54_2 1_555 1_555
H64_2 C54_2 1_555 1_555
C7 C8 1_555 1_555
C9 N1 1_555 1_555
C22_2 N3_2 1_555 1_555
C23_2 N3_2 1_555 1_555
C26_2 N2_2 1_555 1_555
C27_2 N2_2 1_555 1_555
C30 N5 1_555 1_555
C31 N5 1_555 1_555
C38 C39 1_555 1_555
C40 N6 1_555 1_555
C41 C42 1_555 1_555
C44 N6 1_555 1_555
C45 C46 1_555 1_555
O43 C4_2 1_555 1_555
O44 C4_2 1_555 1_555
O45_2 C9_2 1_555 1_555
O46_2 C13_2 1_555 1_555
C1_2 O42_2 1_555 1_555
C2_2 C1_2 1_555 1_555
C3_2 C2_2 1_555 1_555
H1_2 C3_2 1_555 1_555
C4_2 C5_2 1_555 1_555
C5_2 C3_2 1_555 1_555
C6_2 C5_2 1_555 1_555
H2_2 C6_2 1_555 1_555
C7_2 C6_2 1_555 1_555
C8_2 C2_2 1_555 1_555
H3_2 C8_2 1_555 1_555
C9_2 C10_2 1_555 1_555
C10_2 C11_2 1_555 1_555
C11_2 C12_2 1_555 1_555
C12_2 C13_2 1_555 1_555
C13_2 N1_2 1_555 1_555
C14_2 C12_2 1_555 1_555
H4_2 C14_2 1_555 1_555
C15_2 C14_2 1_555 1_555
H5_2 C15_2 1_555 1_555
C18 H9 1_555 1_555
H10 C18 1_555 1_555
H11 C18 1_555 1_555
C19_2 H12_2 1_555 1_555
H13_2 C19_2 1_555 1_555
H14_2 C19_2 1_555 1_555
C29_2 C28_2 1_555 1_555
H33_2 C29_2 1_555 1_555
C30_2 H36_2 1_555 1_555
H37_2 C30_2 1_555 1_555
H38_2 C30_2 1_555 1_555
C31_2 H39_2 1_555 1_555
H40_2 C31_2 1_555 1_555
H41_2 C31_2 1_555 1_555
N1_2 C7_2 1_555 1_555
N4 C16_2 1_555 1_555
N5_2 C28_2 1_555 1_555
O55_2 C40_2 1_555 1_555
O56_2 C44_2 1_555 1_555
H43_2 C37_2 1_555 1_555
C38_2 C37_2 1_555 1_555
H44_2 C39_2 1_555 1_555
C40_2 C41_2 1_555 1_555
C41_2 C15_2 1_555 1_555
C42_2 C11_2 1_555 1_555
C43_2 C42_2 1_555 1_555
C44_2 C43_2 1_555 1_555
C45_2 C43_2 1_555 1_555
H45_2 C45_2 1_555 1_555
C46_2 C10_2 1_555 1_555
H46_2 C46_2 1_555 1_555
N6_2 C38_2 1_555 1_555
Ce4 O43 1_555 1_555
O44 Ce4 1_555 1_555
C7_2 C8_2 1_555 1_555
C9_2 N1_2 1_555 1_555
C18 N4 1_555 1_555
C19_2 N4 1_555 1_555
C30_2 N5_2 1_555 1_555
C31_2 N5_2 1_555 1_555
C38_2 C39_2 1_555 1_555
C40_2 N6_2 1_555 1_555
C41_2 C42_2 1_555 1_555
C44_2 N6_2 1_555 1_555
C45_2 C46_2 1_555 1_555
Ce2 O51 1_555 1_555
O57 Ce2 1_555 1_555
O58 Ce2 1_555 1_555
O59 Ce2 1_555 1_555
O60 Ce2 1_555 1_555
C51 O58 1_555 1_555
C52 C51 1_555 1_555
H56 C52 1_555 1_555
C55 O57 1_555 1_555
C56 C55 1_555 1_555
H65 C56 1_555 1_555
H66 C56 1_555 1_555
H67 C56 1_555 1_555
C57 H68 1_555 1_555
H69 C57 1_555 1_555
H70 C57 1_555 1_555
C58 H71 1_555 1_555
H72 C58 1_555 1_555
H73 C58 1_555 1_555
N7 C55 1_555 1_555
N8 C51 1_555 1_555
O62 Ce2 1_555 1_555
O64 Ce2 1_555 1_555
C57 N7 1_555 1_555
C58 N7 1_555 1_555
O51_2 C32_2 1_555 1_555
O52_2 C32_2 1_555 1_555
O62 C35_2 1_555 1_555
O64 C35_2 1_555 1_555
C32_2 C33_2 1_555 1_555
C33_2 C34_2 1_555 1_555
C34_2 H42_2 1_555 1_555
C35_2 C36_2 1_555 1_555
C36_2 C34_2 1_555 1_555
Ce4 O51_2 1_555 1_555
O57_2 Ce4 1_555 1_555
O58_2 Ce4 1_555 1_555
O59_2 Ce4 1_555 1_555
O60_2 Ce4 1_555 1_555
C47_2 O59_2 1_555 1_555
C48 C47_2 1_555 1_555
H47 C48 1_555 1_555
H48 C48 1_555 1_555
H49 C48 1_555 1_555
C49 H50 1_555 1_555
H51 C49 1_555 1_555
H52 C49 1_555 1_555
C50_2 H53_2 1_555 1_555
H54_2 C50_2 1_555 1_555
H55_2 C50_2 1_555 1_555
C51_2 O58_2 1_555 1_555
C52_2 C51_2 1_555 1_555
H56_2 C52_2 1_555 1_555
H57 C52_2 1_555 1_555
H58 C52_2 1_555 1_555
C55_2 O57_2 1_555 1_555
C56_2 C55_2 1_555 1_555
H65_2 C56_2 1_555 1_555
H66_2 C56_2 1_555 1_555
H67_2 C56_2 1_555 1_555
C57_2 H68_2 1_555 1_555
H69_2 C57_2 1_555 1_555
H70_2 C57_2 1_555 1_555
C58_2 H71_2 1_555 1_555
H72_2 C58_2 1_555 1_555
H73_2 C58_2 1_555 1_555
C59_2 O60_2 1_555 1_555
C60_2 C59_2 1_555 1_555
H74_2 C60_2 1_555 1_555
H75_2 C60_2 1_555 1_555
H76_2 C60_2 1_555 1_555
C61_2 H77_2 1_555 1_555
H78_2 C61_2 1_555 1_555
H79_2 C61_2 1_555 1_555
C62_2 H80_2 1_555 1_555
H81_2 C62_2 1_555 1_555
H82_2 C62_2 1_555 1_555
N7_2 C55_2 1_555 1_555
N8_2 C51_2 1_555 1_555
N9 C47_2 1_555 1_555
N10_2 C59_2 1_555 1_555
O52_2 Ce4 1_555 1_555
C49 N9 1_555 1_555
C50_2 N9 1_555 1_555
C57_2 N7_2 1_555 1_555
C58_2 N7_2 1_555 1_555
C61_2 N10_2 1_555 1_555
C62_2 N10_2 1_555 1_555
H47_2 C48_2 1_555 1_555
H48_2 C48_2 1_555 1_555
C49_2 H50_2 1_555 1_555
H51_2 C49_2 1_555 1_555
H52_2 C49_2 1_555 1_555
C49_2 N9_2 1_555 1_555
H6_2 C17_2 1_555 1_555
H7_2 C17_2 1_555 1_555
H8_2 C17_2 1_555 1_555
C18_2 H9_2 1_555 1_555
H10_2 C18_2 1_555 1_555
H11_2 C18_2 1_555 1_555
C18_2 N4_2 1_555 1_555
C49_3 H50_3 1_555 1_555
H51_3 C49_3 1_555 1_555
H52_3 C49_3 1_555 1_555
C49_3 N9_3 1_555 1_555
H47_3 C48_3 1_555 1_555
H48_3 C48_3 1_555 1_555
O52_3 C32_3 1_555 1_555
O53_2 C35_3 1_555 1_555
O54_2 C35_3 1_555 1_555
C32_3 C33_3 1_555 1_555
C33_3 C34_3 1_555 1_555
C34_3 H42_3 1_555 1_555
C35_3 C36_3 1_555 1_555
C36_3 C34_3 1_555 1_555
C50_3 H53_3 1_555 1_555
H54_3 C50_3 1_555 1_555
H55_3 C50_3 1_555 1_555
C60_3 C59_3 1_555 1_555
H74_3 C60_3 1_555 1_555
C61_3 H77_3 1_555 1_555
H78_3 C61_3 1_555 1_555
H79_3 C61_3 1_555 1_555
C62_3 H80_3 1_555 1_555
H81_3 C62_3 1_555 1_555
H82_3 C62_3 1_555 1_555
N10_3 C59_3 1_555 1_555
Ce3_2 O53_2 1_555 1_555
O54_2 Ce3_2 1_555 1_555
C61_3 N10_3 1_555 1_555
C62_3 N10_3 1_555 1_555
Ce1_2 O41_3 1_555 1_555
O47_3 Ce1_2 1_555 1_555
O48_3 Ce1_2 1_555 1_555
O49_3 Ce1_2 1_555 1_555
O50_3 Ce1_2 1_555 1_555
H6_3 C17_3 1_555 1_555
H7_3 C17_3 1_555 1_555
C20_3 O48_3 1_555 1_555
C21_3 C20_3 1_555 1_555
H15_3 C21_3 1_555 1_555
H16_3 C21_3 1_555 1_555
H17_3 C21_3 1_555 1_555
C22_3 H18_3 1_555 1_555
H19_3 C22_3 1_555 1_555
H20_3 C22_3 1_555 1_555
C23_3 H21_3 1_555 1_555
H22_3 C23_3 1_555 1_555
H23_3 C23_3 1_555 1_555
C24_3 O47_3 1_555 1_555
C25_3 C24_3 1_555 1_555
H24_3 C25_3 1_555 1_555
H25_3 C25_3 1_555 1_555
H26_3 C25_3 1_555 1_555
C26_3 H27_3 1_555 1_555
H28_3 C26_3 1_555 1_555
H29_3 C26_3 1_555 1_555
C27_3 H30_3 1_555 1_555
H31_3 C27_3 1_555 1_555
H32_3 C27_3 1_555 1_555
N2_3 C24_3 1_555 1_555
N3_3 C20_3 1_555 1_555
C53_3 H59_3 1_555 1_555
H60_3 C53_3 1_555 1_555
H63_3 C54_3 1_555 1_555
H64_3 C54_3 1_555 1_555
O61_2 Ce1_2 1_555 1_555
O63_2 Ce1_2 1_555 1_555
C22_3 N3_3 1_555 1_555
C23_3 N3_3 1_555 1_555
C26_3 N2_3 1_555 1_555
C27_3 N2_3 1_555 1_555
Ce3_2 O41_4 1_555 1_555
O41_4 C1_3 1_555 1_555
O42_3 Ce3_2 1_555 1_555
O61_2 C4_3 1_555 1_555
O63_2 C4_3 1_555 1_555
O45_3 C9_3 1_555 1_555
O46_3 C13_3 1_555 1_555
O47_4 Ce3_2 1_555 1_555
O48_4 Ce3_2 1_555 1_555
O49_4 Ce3_2 1_555 1_555
O50_4 Ce3_2 1_555 1_555
C1_3 O42_3 1_555 1_555
C2_3 C1_3 1_555 1_555
C3_3 C2_3 1_555 1_555
H1_3 C3_3 1_555 1_555
C4_3 C5_3 1_555 1_555
C5_3 C3_3 1_555 1_555
C6_3 C5_3 1_555 1_555
H2_3 C6_3 1_555 1_555
C7_3 C6_3 1_555 1_555
C8_3 C2_3 1_555 1_555
H3_3 C8_3 1_555 1_555
C9_3 C10_3 1_555 1_555
C10_3 C11_3 1_555 1_555
C11_3 C12_3 1_555 1_555
C12_3 C13_3 1_555 1_555
C13_3 N1_3 1_555 1_555
C14_3 C12_3 1_555 1_555
H4_3 C14_3 1_555 1_555
C15_3 C14_3 1_555 1_555
H5_3 C15_3 1_555 1_555
C16_3 O49_4 1_555 1_555
C19_3 H12_3 1_555 1_555
H13_3 C19_3 1_555 1_555
H14_3 C19_3 1_555 1_555
C20_4 O48_4 1_555 1_555
C21_4 C20_4 1_555 1_555
H15_4 C21_4 1_555 1_555
C22_4 H18_4 1_555 1_555
H19_4 C22_4 1_555 1_555
H20_4 C22_4 1_555 1_555
C23_4 H21_4 1_555 1_555
H22_4 C23_4 1_555 1_555
H23_4 C23_4 1_555 1_555
C24_4 O47_4 1_555 1_555
C25_4 C24_4 1_555 1_555
H24_4 C25_4 1_555 1_555
H25_4 C25_4 1_555 1_555
H26_4 C25_4 1_555 1_555
C26_4 H27_4 1_555 1_555
H28_4 C26_4 1_555 1_555
H29_4 C26_4 1_555 1_555
C27_4 H30_4 1_555 1_555
H31_4 C27_4 1_555 1_555
H32_4 C27_4 1_555 1_555
C28_3 O50_4 1_555 1_555
C29_3 C28_3 1_555 1_555
H33_3 C29_3 1_555 1_555
H34_4 C29_3 1_555 1_555
H35_4 C29_3 1_555 1_555
C30_3 H36_3 1_555 1_555
H37_3 C30_3 1_555 1_555
H38_3 C30_3 1_555 1_555
C31_3 H39_3 1_555 1_555
H40_3 C31_3 1_555 1_555
H41_3 C31_3 1_555 1_555
N1_3 C7_3 1_555 1_555
N2_4 C24_4 1_555 1_555
N3_4 C20_4 1_555 1_555
N5_3 C28_3 1_555 1_555
O55_3 C40_3 1_555 1_555
O56_3 C44_3 1_555 1_555
H43_3 C37_3 1_555 1_555
C38_3 C37_3 1_555 1_555
H44_3 C39_3 1_555 1_555
C40_3 C41_3 1_555 1_555
C41_3 C15_3 1_555 1_555
C42_3 C11_3 1_555 1_555
C43_3 C42_3 1_555 1_555
C44_3 C43_3 1_555 1_555
C45_3 C43_3 1_555 1_555
H45_3 C45_3 1_555 1_555
C46_3 C10_3 1_555 1_555
H46_3 C46_3 1_555 1_555
N6_3 C38_3 1_555 1_555
C53_4 H59_4 1_555 1_555
H60_4 C53_4 1_555 1_555
H63_4 C54_4 1_555 1_555
H64_4 C54_4 1_555 1_555
C7_3 C8_3 1_555 1_555
C9_3 N1_3 1_555 1_555
C22_4 N3_4 1_555 1_555
C23_4 N3_4 1_555 1_555
C26_4 N2_4 1_555 1_555
C27_4 N2_4 1_555 1_555
C30_3 N5_3 1_555 1_555
C31_3 N5_3 1_555 1_555
C38_3 C39_3 1_555 1_555
C40_3 N6_3 1_555 1_555
C41_3 C42_3 1_555 1_555
C44_3 N6_3 1_555 1_555
C45_3 C46_3 1_555 1_555
Ce2_2 O51_3 1_555 1_555
O57_3 Ce2_2 1_555 1_555
O58_3 Ce2_2 1_555 1_555
O59_3 Ce2_2 1_555 1_555
O60_3 Ce2_2 1_555 1_555
C51_3 O58_3 1_555 1_555
C52_3 C51_3 1_555 1_555
H56_3 C52_3 1_555 1_555
C55_3 O57_3 1_555 1_555
C56_3 C55_3 1_555 1_555
H65_3 C56_3 1_555 1_555
H66_3 C56_3 1_555 1_555
H67_3 C56_3 1_555 1_555
C57_3 H68_3 1_555 1_555
H69_3 C57_3 1_555 1_555
H70_3 C57_3 1_555 1_555
C58_3 H71_3 1_555 1_555
H72_3 C58_3 1_555 1_555
H73_3 C58_3 1_555 1_555
N7_3 C55_3 1_555 1_555
N8_3 C51_3 1_555 1_555
O62_2 Ce2_2 1_555 1_555
O64_2 Ce2_2 1_555 1_555
C57_3 N7_3 1_555 1_555
C58_3 N7_3 1_555 1_555
O43_2 C4_4 1_555 1_555
O44_2 C4_4 1_555 1_555
O45_4 C9_4 1_555 1_555
O46_4 C13_4 1_555 1_555
C1_4 O42_4 1_555 1_555
C2_4 C1_4 1_555 1_555
C3_4 C2_4 1_555 1_555
H1_4 C3_4 1_555 1_555
C4_4 C5_4 1_555 1_555
C5_4 C3_4 1_555 1_555
C6_4 C5_4 1_555 1_555
H2_4 C6_4 1_555 1_555
C7_4 C6_4 1_555 1_555
C8_4 C2_4 1_555 1_555
H3_4 C8_4 1_555 1_555
C9_4 C10_4 1_555 1_555
C10_4 C11_4 1_555 1_555
C11_4 C12_4 1_555 1_555
C12_4 C13_4 1_555 1_555
C13_4 N1_4 1_555 1_555
C14_4 C12_4 1_555 1_555
H4_4 C14_4 1_555 1_555
C15_4 C14_4 1_555 1_555
H5_4 C15_4 1_555 1_555
C18_3 H9_3 1_555 1_555
H10_3 C18_3 1_555 1_555
H11_3 C18_3 1_555 1_555
C19_4 H12_4 1_555 1_555
H13_4 C19_4 1_555 1_555
H14_4 C19_4 1_555 1_555
C29_4 C28_4 1_555 1_555
H33_4 C29_4 1_555 1_555
C30_4 H36_4 1_555 1_555
H37_4 C30_4 1_555 1_555
H38_4 C30_4 1_555 1_555
C31_4 H39_4 1_555 1_555
H40_4 C31_4 1_555 1_555
H41_4 C31_4 1_555 1_555
N1_4 C7_4 1_555 1_555
N4_3 C16_4 1_555 1_555
N5_4 C28_4 1_555 1_555
O55_4 C40_4 1_555 1_555
O56_4 C44_4 1_555 1_555
H43_4 C37_4 1_555 1_555
C38_4 C37_4 1_555 1_555
H44_4 C39_4 1_555 1_555
C40_4 C41_4 1_555 1_555
C41_4 C15_4 1_555 1_555
C42_4 C11_4 1_555 1_555
C43_4 C42_4 1_555 1_555
C44_4 C43_4 1_555 1_555
C45_4 C43_4 1_555 1_555
H45_4 C45_4 1_555 1_555
C46_4 C10_4 1_555 1_555
H46_4 C46_4 1_555 1_555
N6_4 C38_4 1_555 1_555
Ce4_2 O43_2 1_555 1_555
O44_2 Ce4_2 1_555 1_555
C7_4 C8_4 1_555 1_555
C9_4 N1_4 1_555 1_555
C18_3 N4_3 1_555 1_555
C19_4 N4_3 1_555 1_555
C30_4 N5_4 1_555 1_555
C31_4 N5_4 1_555 1_555
C38_4 C39_4 1_555 1_555
C40_4 N6_4 1_555 1_555
C41_4 C42_4 1_555 1_555
C44_4 N6_4 1_555 1_555
C45_4 C46_4 1_555 1_555
O51_4 C32_4 1_555 1_555
O52_4 C32_4 1_555 1_555
O62_2 C35_4 1_555 1_555
O64_2 C35_4 1_555 1_555
C32_4 C33_4 1_555 1_555
C33_4 C34_4 1_555 1_555
C34_4 H42_4 1_555 1_555
C35_4 C36_4 1_555 1_555
C36_4 C34_4 1_555 1_555
Ce4_2 O51_4 1_555 1_555
O57_4 Ce4_2 1_555 1_555
O58_4 Ce4_2 1_555 1_555
O59_4 Ce4_2 1_555 1_555
O60_4 Ce4_2 1_555 1_555
C47_4 O59_4 1_555 1_555
C48_4 C47_4 1_555 1_555
H47_4 C48_4 1_555 1_555
H48_4 C48_4 1_555 1_555
H49_4 C48_4 1_555 1_555
C49_4 H50_4 1_555 1_555
H51_4 C49_4 1_555 1_555
H52_4 C49_4 1_555 1_555
C50_4 H53_4 1_555 1_555
H54_4 C50_4 1_555 1_555
H55_4 C50_4 1_555 1_555
C51_4 O58_4 1_555 1_555
C52_4 C51_4 1_555 1_555
H56_4 C52_4 1_555 1_555
H57_4 C52_4 1_555 1_555
H58_4 C52_4 1_555 1_555
C55_4 O57_4 1_555 1_555
C56_4 C55_4 1_555 1_555
H65_4 C56_4 1_555 1_555
H66_4 C56_4 1_555 1_555
H67_4 C56_4 1_555 1_555
C57_4 H68_4 1_555 1_555
H69_4 C57_4 1_555 1_555
H70_4 C57_4 1_555 1_555
C58_4 H71_4 1_555 1_555
H72_4 C58_4 1_555 1_555
H73_4 C58_4 1_555 1_555
C59_4 O60_4 1_555 1_555
C60_4 C59_4 1_555 1_555
H74_4 C60_4 1_555 1_555
H75_4 C60_4 1_555 1_555
H76_4 C60_4 1_555 1_555
C61_4 H77_4 1_555 1_555
H78_4 C61_4 1_555 1_555
H79_4 C61_4 1_555 1_555
C62_4 H80_4 1_555 1_555
H81_4 C62_4 1_555 1_555
H82_4 C62_4 1_555 1_555
N7_4 C55_4 1_555 1_555
N8_4 C51_4 1_555 1_555
N9_4 C47_4 1_555 1_555
N10_4 C59_4 1_555 1_555
O52_4 Ce4_2 1_555 1_555
C49_4 N9_4 1_555 1_555
C50_4 N9_4 1_555 1_555
C57_4 N7_4 1_555 1_555
C58_4 N7_4 1_555 1_555
C61_4 N10_4 1_555 1_555
C62_4 N10_4 1_555 1_555
H6_4 C17_4 1_555 1_555
H7_4 C17_4 1_555 1_555
H8_4 C17_4 1_555 1_555
C18_4 H9_4 1_555 1_555
H10_4 C18_4 1_555 1_555
H11_4 C18_4 1_555 1_555
C18_4 N4_4 1_555 1_555

#END
