
###############################################################################
#
# This file contains modified crystal structure data generated from the
# MOF subset of the Cambridge Structural Database (CSD) v543 
# hosted by the Cambridge Crystallographic Data Centre (CCDC).
#
# This work is licensed under the Creative Commons
# Attribution-NonCommercial-ShareAlike 4.0 International License.
# To view a copy of this license, visit
# http://creativecommons.org/licenses/by-nc-sa/4.0/
# or send a letter to
# Creative Commons, PO Box 1866, Mountain View, CA 94042, USA.
#
# CIF created using the CSD Python API on 29 September 2022
# The structure has been converted into the P1 space group
# The structure has a 3D framework
# The original CSD entry NANYUX02 is in the monoclinic crystal system
# The framework has been calculated to contain at least 10.0% void space
# The void calculation uses a probe of radius 1.32A, grid spacing 0.4
#
###############################################################################

data_NANYUX02
_chemical_formula_moiety         '(C44 H44 N4 O24 Zn4)n'
_symmetry_cell_setting           triclinic
_symmetry_space_group_name_H-M   'P 1'
_symmetry_Int_Tables_number      1
_space_group_name_Hall           'P 1'
loop_
_symmetry_equiv_pos_site_id
_symmetry_equiv_pos_as_xyz
1 x,y,z
_cell_length_a                   9.4801(9)
_cell_length_b                   16.3027(16)
_cell_length_c                   11.5510(11)
_cell_angle_alpha                90
_cell_angle_beta                 97.138(2)
_cell_angle_gamma                90
_cell_volume                     1771.39
loop_
_atom_site_label
_atom_site_type_symbol
_atom_site_fract_x
_atom_site_fract_y
_atom_site_fract_z
O3 O 0.0808(2) 0.33260(12) 0.05056(18)
O4 O 0.3093(2) 0.30703(17) 0.0936(2)
O5 O 0.45800(17) 0.06736(10) 0.34683(15)
O6 O 0.30166(19) 0.01976(11) 0.45998(17)
C2 C 0.1844(3) 0.29223(17) 0.1023(2)
C3 C 0.3361(2) 0.06276(14) 0.3784(2)
C5 C 0.0077(3) 0.21466(15) 0.2052(2)
C6 C 0.1464(3) 0.22488(15) 0.1821(2)
C7 C 0.2527(2) 0.17438(14) 0.2368(2)
H2 H 0.3460 0.1806 0.2210
C8 C 0.2200(2) 0.11456(14) 0.3151(2)
C9 C 0.0807(2) 0.10507(14) 0.3376(2)
H3 H 0.0587 0.0650 0.3897
Zn3 Zn 0.63627(2) 0.079722(14) 0.45291(2)
Zn4 Zn 0.13627(2) 0.420278(14) 0.95291(2)
Zn2 Zn 0.36373(2) 0.920278(14) 0.54709(2)
O1 O 0.79645(17) 0.08134(9) 0.36372(15)
O2 O 0.73721(19) 0.20285(12) 0.28722(19)
C1 C 0.8241(2) 0.14730(14) 0.3130(2)
C4 C 0.9735(2) 0.15501(14) 0.2829(2)
H1 H 0.9365 0.2482 0.1683
O7 O 0.5808(2) 0.16740(12) 0.55056(18)
O9 O 0.69834(19) 0.98024(11) 0.54002(17)
O8 O 0.04200(17) 0.56736(10) 0.15317(15)
Zn1 Zn 0.86373(2) 0.579722(14) 0.04709(2)
O1_2 O 0.70355(17) 0.58134(9) 0.13628(15)
O2_2 O 0.76279(19) 0.70285(12) 0.21278(19)
O3_2 O 0.4192(2) 0.83260(12) 0.44944(18)
O4_2 O 0.1907(2) 0.80703(17) 0.4064(2)
O6_2 O 0.19834(19) 0.51976(11) 0.04002(17)
C1_2 C 0.6759(2) 0.64730(14) 0.1870(2)
C2_2 C 0.3156(3) 0.79223(17) 0.3977(2)
C3_2 C 0.1639(2) 0.56276(14) 0.1216(2)
C4_2 C 0.5265(2) 0.65501(14) 0.2171(2)
C5_2 C 0.4923(3) 0.71466(15) 0.2948(2)
H1_2 H 0.5635 0.7482 0.3317
C6_2 C 0.3536(3) 0.72488(15) 0.3179(2)
C7_2 C 0.2473(2) 0.67438(14) 0.2632(2)
H2_2 H 0.1540 0.6806 0.2790
C8_2 C 0.2800(2) 0.61456(14) 0.1849(2)
C9_2 C 0.4193(2) 0.60507(14) 0.1624(2)
H3_2 H 0.4413 0.5650 0.1103
O7_2 O 0.9192(2) 0.66740(12) 0.94944(18)
O9_2 O 0.80166(19) 0.48024(11) 0.95998(17)
O1_3 O 0.20355(17) 0.91866(9) 0.63628(15)
O2_3 O 0.26279(19) 0.79715(12) 0.71278(19)
C1_3 C 0.1759(2) 0.85270(14) 0.6870(2)
C4_3 C 0.0265(2) 0.84499(14) 0.7171(2)
H1_3 H 0.0635 0.7518 0.8317
O8_2 O 0.54200(17) 0.93264(10) 0.65317(15)
O4_3 O 0.6907(2) 0.69297(17) 0.9064(2)
C2_3 C 0.8156(3) 0.70777(17) 0.8977(2)
C3_3 C 0.6639(2) 0.93724(14) 0.6216(2)
C5_3 C 0.9923(3) 0.78534(15) 0.7948(2)
C6_3 C 0.8536(3) 0.77512(15) 0.8179(2)
C7_3 C 0.7473(2) 0.82562(14) 0.7632(2)
H2_3 H 0.6540 0.8194 0.7790
C8_3 C 0.7800(2) 0.88544(14) 0.6849(2)
C9_3 C 0.9193(2) 0.89493(14) 0.6624(2)
H3_3 H 0.9413 0.9350 0.6103
O1_4 O 0.29645(17) 0.41866(9) 0.86372(15)
O2_4 O 0.23721(19) 0.29715(12) 0.78722(19)
O4_4 O 0.8093(2) 0.19297(17) 0.5936(2)
O5_2 O 0.95800(17) 0.43264(10) 0.84683(15)
C1_4 C 0.3241(2) 0.35270(14) 0.8130(2)
C2_4 C 0.6844(3) 0.20777(17) 0.6023(2)
C3_4 C 0.8361(2) 0.43724(14) 0.8784(2)
C4_4 C 0.4735(2) 0.34499(14) 0.7829(2)
C5_4 C 0.5077(3) 0.28534(15) 0.7052(2)
H1_4 H 0.4365 0.2518 0.6683
C6_4 C 0.6464(3) 0.27512(15) 0.6821(2)
C7_4 C 0.7527(2) 0.32562(14) 0.7368(2)
H2_4 H 0.8460 0.3194 0.7210
C8_4 C 0.7200(2) 0.38544(14) 0.8151(2)
C9_4 C 0.5807(2) 0.39493(14) 0.8376(2)
H3_4 H 0.5587 0.4350 0.8897
N1 N 0.6557(7) 0.3609(3) 0.2968(5)
H4 H 0.7179 0.3946 0.3383
H5 H 0.6927 0.3100 0.3022
C10 C 0.5229(7) 0.3608(4) 0.3497(7)
H6 H 0.4855 0.4155 0.3495
H7 H 0.5410 0.3413 0.4286
H8 H 0.4550 0.3255 0.3057
C11 C 0.6409(7) 0.3861(3) 0.1762(5)
H9 H 0.5777 0.3492 0.1304
H10 H 0.7323 0.3852 0.1486
H11 H 0.6027 0.4407 0.1695
H6_2 H 0.0145 0.9155 0.1505
H8_2 H 0.0450 0.8255 0.1943
N1_2 N 0.8443(7) 0.8609(3) 0.2032(5)
H4_2 H 0.7821 0.8946 0.1617
H5_2 H 0.8073 0.8100 0.1978
C10_2 C 0.9771(7) 0.8608(4) 0.1503(7)
H7_2 H 0.9590 0.8413 0.0714
C11_2 C 0.8591(7) 0.8861(3) 0.3238(5)
H9_2 H 0.9223 0.8492 0.3696
H10_2 H 0.7677 0.8852 0.3514
H11_2 H 0.8973 0.9407 0.3305
N1_3 N 0.3443(7) 0.6391(3) 0.7032(5)
H4_3 H 0.2821 0.6054 0.6617
H5_3 H 0.3073 0.6900 0.6978
C10_3 C 0.4771(7) 0.6392(4) 0.6503(7)
H6_3 H 0.5145 0.5845 0.6505
H7_3 H 0.4590 0.6587 0.5714
H8_3 H 0.5450 0.6745 0.6943
C11_3 C 0.3591(7) 0.6139(3) 0.8238(5)
H9_3 H 0.4223 0.6508 0.8696
H10_3 H 0.2677 0.6148 0.8514
H11_3 H 0.3973 0.5593 0.8305
N1_4 N 0.1557(7) 0.1391(3) 0.7968(5)
H4_4 H 0.2179 0.1054 0.8383
H5_4 H 0.1927 0.1900 0.8022
C10_4 C 0.0229(7) 0.1392(4) 0.8497(7)
H7_4 H 0.0410 0.1587 0.9286
C11_4 C 0.1409(7) 0.1139(3) 0.6762(5)
H9_4 H 0.0777 0.1508 0.6304
H10_4 H 0.2323 0.1148 0.6486
H11_4 H 0.1027 0.0593 0.6695
H6_4 H 0.9855 0.0845 0.8495
H8_4 H 0.9550 0.1745 0.8057
loop_
_geom_bond_atom_site_label_1
_geom_bond_atom_site_label_2
_geom_bond_site_symmetry_1
_geom_bond_site_symmetry_2
O3 C2 1_555 1_555
O4 C2 1_555 1_555
O5 C3 1_555 1_555
O6 C3 1_555 1_555
C2 C6 1_555 1_555
C3 C8 1_555 1_555
C6 C5 1_555 1_555
C7 C6 1_555 1_555
H2 C7 1_555 1_555
C8 C7 1_555 1_555
H3 C9 1_555 1_555
Zn3 O5 1_555 1_555
C8 C9 1_555 1_555
Zn3 O1 1_555 1_555
O1 C1 1_555 1_555
O2 C1 1_555 1_555
C1 C4 1_555 1_555
O7 Zn3 1_555 1_555
Zn1 O1_2 1_555 1_555
O1_2 C1_2 1_555 1_555
O2_2 C1_2 1_555 1_555
O3_2 C2_2 1_555 1_555
O4_2 C2_2 1_555 1_555
O8 C3_2 1_555 1_555
O6_2 C3_2 1_555 1_555
C1_2 C4_2 1_555 1_555
C2_2 C6_2 1_555 1_555
C3_2 C8_2 1_555 1_555
C4_2 C5_2 1_555 1_555
C5_2 H1_2 1_555 1_555
C6_2 C5_2 1_555 1_555
C7_2 C6_2 1_555 1_555
H2_2 C7_2 1_555 1_555
C8_2 C7_2 1_555 1_555
C9_2 C4_2 1_555 1_555
H3_2 C9_2 1_555 1_555
Zn2 O3_2 1_555 1_555
C8_2 C9_2 1_555 1_555
Zn2 O1_3 1_555 1_555
O1_3 C1_3 1_555 1_555
O2_3 C1_3 1_555 1_555
C1_3 C4_3 1_555 1_555
O8_2 Zn2 1_555 1_555
O7_2 C2_3 1_555 1_555
O4_3 C2_3 1_555 1_555
O8_2 C3_3 1_555 1_555
O9 C3_3 1_555 1_555
C2_3 C6_3 1_555 1_555
C3_3 C8_3 1_555 1_555
C6_3 C5_3 1_555 1_555
C7_3 C6_3 1_555 1_555
H2_3 C7_3 1_555 1_555
C8_3 C7_3 1_555 1_555
H3_3 C9_3 1_555 1_555
C8_3 C9_3 1_555 1_555
Zn4 O1_4 1_555 1_555
O1_4 C1_4 1_555 1_555
O2_4 C1_4 1_555 1_555
O7 C2_4 1_555 1_555
O4_4 C2_4 1_555 1_555
O5_2 C3_4 1_555 1_555
O9_2 C3_4 1_555 1_555
C1_4 C4_4 1_555 1_555
C2_4 C6_4 1_555 1_555
C3_4 C8_4 1_555 1_555
C4_4 C5_4 1_555 1_555
C5_4 H1_4 1_555 1_555
C6_4 C5_4 1_555 1_555
C7_4 C6_4 1_555 1_555
H2_4 C7_4 1_555 1_555
C8_4 C7_4 1_555 1_555
C9_4 C4_4 1_555 1_555
H3_4 C9_4 1_555 1_555
C8_4 C9_4 1_555 1_555
N1 H4 1_555 1_555
H5 N1 1_555 1_555
C10 N1 1_555 1_555
H6 C10 1_555 1_555
H7 C10 1_555 1_555
H8 C10 1_555 1_555
C11 N1 1_555 1_555
H9 C11 1_555 1_555
H10 C11 1_555 1_555
H11 C11 1_555 1_555
N1_2 H4_2 1_555 1_555
H5_2 N1_2 1_555 1_555
C10_2 N1_2 1_555 1_555
H7_2 C10_2 1_555 1_555
C11_2 N1_2 1_555 1_555
H9_2 C11_2 1_555 1_555
H10_2 C11_2 1_555 1_555
H11_2 C11_2 1_555 1_555
N1_3 H4_3 1_555 1_555
H5_3 N1_3 1_555 1_555
C10_3 N1_3 1_555 1_555
H6_3 C10_3 1_555 1_555
H7_3 C10_3 1_555 1_555
H8_3 C10_3 1_555 1_555
C11_3 N1_3 1_555 1_555
H9_3 C11_3 1_555 1_555
H10_3 C11_3 1_555 1_555
H11_3 C11_3 1_555 1_555
N1_4 H4_4 1_555 1_555
H5_4 N1_4 1_555 1_555
C10_4 N1_4 1_555 1_555
H7_4 C10_4 1_555 1_555
C11_4 N1_4 1_555 1_555
H9_4 C11_4 1_555 1_555
H10_4 C11_4 1_555 1_555
H11_4 C11_4 1_555 1_555

#END
