
###############################################################################
#
# This file contains modified crystal structure data generated from the
# MOF subset of the Cambridge Structural Database (CSD) v543 
# hosted by the Cambridge Crystallographic Data Centre (CCDC).
#
# This work is licensed under the Creative Commons
# Attribution-NonCommercial-ShareAlike 4.0 International License.
# To view a copy of this license, visit
# http://creativecommons.org/licenses/by-nc-sa/4.0/
# or send a letter to
# Creative Commons, PO Box 1866, Mountain View, CA 94042, USA.
#
# CIF created using the CSD Python API on 29 September 2022
# The structure has been converted into the P1 space group
# The structure has a 3D framework
# The original CSD entry NANYUX is in the monoclinic crystal system
# The framework has been calculated to contain at least 10.0% void space
# The void calculation uses a probe of radius 1.32A, grid spacing 0.4
# The framework is charged, counterions have been retained in the structure
#
###############################################################################

data_NANYUX
_chemical_formula_moiety         '(C44 H44 N4 O24 Zn2)n'
_symmetry_cell_setting           triclinic
_symmetry_space_group_name_H-M   'P 1'
_symmetry_Int_Tables_number      1
_space_group_name_Hall           'P 1'
loop_
_symmetry_equiv_pos_site_id
_symmetry_equiv_pos_as_xyz
1 x,y,z
_cell_length_a                   9.4550(6)
_cell_length_b                   16.0074(11)
_cell_length_c                   11.0347(7)
_cell_angle_alpha                90
_cell_angle_beta                 98.4660(10)
_cell_angle_gamma                90
_cell_volume                     1651.9
loop_
_atom_site_label
_atom_site_type_symbol
_atom_site_fract_x
_atom_site_fract_y
_atom_site_fract_z
O9 O 0.0767(3) 0.17843(15) 0.0137(2)
Zn1 Zn 0.13113(3) 0.07995(2) 0.93129(3)
O8 O 0.2944(2) 0.06788(13) 0.8452(2)
O1 O 0.2030(2) 0.99502(17) 0.0554(2)
O2 O 0.0457(2) 0.95254(15) 0.1747(2)
O3 O 0.7056(2) 0.93212(13) 0.1548(2)
O4 O 0.7823(2) 0.83025(15) 0.2853(2)
O5 O 0.4233(3) 0.67843(15) 0.4863(2)
O6 O 0.2132(3) 0.7375(2) 0.4978(3)
C1 C 0.1696(3) 0.9557(2) 0.1446(3)
C2 C 0.6867(3) 0.87671(19) 0.2337(3)
C3 C 0.3282(4) 0.7348(2) 0.4589(3)
C4 C 0.2861(3) 0.90670(18) 0.2202(3)
C5 C 0.4269(3) 0.91623(19) 0.1982(3)
C6 C 0.5361(3) 0.86873(18) 0.2614(3)
C7 C 0.5037(3) 0.81083(19) 0.3475(3)
C8 C 0.3640(3) 0.8009(2) 0.3707(3)
C9 C 0.2548(3) 0.84966(19) 0.3072(3)
H1 H 0.446(4) 0.953(2) 0.139(3)
H2 H 0.585(4) 0.777(3) 0.396(4)
H3 H 0.162(4) 0.842(2) 0.323(3)
Zn3 Zn 0.86887(3) 0.92005(2) 0.06871(3)
Zn4 Zn 0.36887(3) 0.57995(2) 0.56871(3)
O7 O 0.9543(2) 0.04746(15) 0.8253(2)
O1_2 O 0.2970(2) 0.49502(17) 0.4446(2)
O2_2 O 0.4543(2) 0.45254(15) 0.3253(2)
O6_2 O 0.2868(3) 0.2375(2) 0.0022(3)
C1_2 C 0.3304(3) 0.4557(2) 0.3554(3)
C3_2 C 0.1718(4) 0.2348(2) 0.0411(3)
C4_2 C 0.2139(3) 0.40670(18) 0.2798(3)
C5_2 C 0.0731(3) 0.41623(19) 0.3018(3)
C8_2 C 0.1360(3) 0.3009(2) 0.1293(3)
C9_2 C 0.2452(3) 0.34966(19) 0.1928(3)
H1_2 H 0.054(4) 0.453(2) 0.361(3)
H3_2 H 0.338(4) 0.342(2) 0.177(3)
Zn2 Zn 0.63113(3) 0.42005(2) 0.43129(3)
O7_2 O 0.5457(2) 0.54746(15) 0.6747(2)
O8_2 O 0.2056(2) 0.56788(13) 0.6548(2)
O3_2 O 0.7944(2) 0.43212(13) 0.3452(2)
O4_2 O 0.7177(2) 0.33025(15) 0.2147(2)
C2_2 C 0.8133(3) 0.37671(19) 0.2663(3)
C6_2 C 0.9639(3) 0.36873(18) 0.2386(3)
C7_2 C 0.9963(3) 0.31083(19) 0.1525(3)
H2_2 H 0.915(4) 0.277(3) 0.104(4)
O1_3 O 0.7970(2) 0.00498(17) 0.9446(2)
O4_3 O 0.2177(2) 0.16975(15) 0.7147(2)
O5_2 O 0.5767(3) 0.32157(15) 0.5137(2)
O6_3 O 0.7868(3) 0.2625(2) 0.5022(3)
C1_3 C 0.8304(3) 0.0443(2) 0.8554(3)
C2_3 C 0.3133(3) 0.12329(19) 0.7663(3)
C3_3 C 0.6718(4) 0.2652(2) 0.5411(3)
C4_3 C 0.7139(3) 0.09330(18) 0.7798(3)
C5_3 C 0.5731(3) 0.08377(19) 0.8018(3)
C6_3 C 0.4639(3) 0.13127(18) 0.7386(3)
C7_3 C 0.4963(3) 0.18917(19) 0.6525(3)
C8_3 C 0.6360(3) 0.1991(2) 0.6293(3)
C9_3 C 0.7452(3) 0.15034(19) 0.6928(3)
H1_3 H 0.554(4) 0.047(2) 0.861(3)
H2_3 H 0.415(4) 0.223(3) 0.604(4)
H3_3 H 0.838(4) 0.158(2) 0.677(3)
O9_2 O 0.9233(3) 0.82157(15) 0.9863(2)
O4_4 O 0.2823(2) 0.66975(15) 0.7853(2)
C2_4 C 0.1867(3) 0.62329(19) 0.7337(3)
C6_4 C 0.0361(3) 0.63127(18) 0.7614(3)
C7_4 C 0.0037(3) 0.68917(19) 0.8475(3)
H2_4 H 0.085(4) 0.723(3) 0.896(4)
O1_4 O 0.7030(2) 0.50498(17) 0.5554(2)
O6_4 O 0.7132(3) 0.7625(2) 0.9978(3)
C1_4 C 0.6696(3) 0.5443(2) 0.6446(3)
C3_4 C 0.8282(4) 0.7652(2) 0.9589(3)
C4_4 C 0.7861(3) 0.59330(18) 0.7202(3)
C5_4 C 0.9269(3) 0.58377(19) 0.6982(3)
C8_4 C 0.8640(3) 0.6991(2) 0.8707(3)
C9_4 C 0.7548(3) 0.65034(19) 0.8072(3)
H1_4 H 0.946(4) 0.547(2) 0.639(3)
H3_4 H 0.662(4) 0.658(2) 0.823(3)
N1 N 0.1597(5) 0.3346(2) 0.7293(4)
C10 C 0.1023(6) 0.3572(3) 0.6006(5)
H4 H 0.0846 0.4162 0.5953
H5 H 0.0146 0.3276 0.5756
H6 H 0.1707 0.3424 0.5480
C11 C 0.2993(6) 0.3733(3) 0.7705(5)
H7 H 0.3667 0.3552 0.7188
H8 H 0.3324 0.3571 0.8536
H9 H 0.2901 0.4330 0.7661
H10 H 0.089(4) 0.345(3) 0.775(4)
H11 H 0.180(5) 0.270(3) 0.736(4)
N1_2 N 0.3403(5) 0.8346(2) 0.7707(4)
C10_2 C 0.3977(6) 0.8572(3) 0.8994(5)
H4_2 H 0.4154 0.9162 0.9047
H5_2 H 0.4854 0.8276 0.9244
H6_2 H 0.3293 0.8424 0.9520
C11_2 C 0.2007(6) 0.8733(3) 0.7295(5)
H7_2 H 0.1333 0.8552 0.7812
H8_2 H 0.1676 0.8571 0.6464
H9_2 H 0.2099 0.9330 0.7339
H10_2 H 0.411(4) 0.845(3) 0.725(4)
H11_2 H 0.320(5) 0.770(3) 0.764(4)
N1_3 N 0.8403(5) 0.6654(2) 0.2707(4)
C10_3 C 0.8977(6) 0.6428(3) 0.3994(5)
H4_3 H 0.9154 0.5838 0.4047
H5_3 H 0.9854 0.6724 0.4244
H6_3 H 0.8293 0.6576 0.4520
C11_3 C 0.7007(6) 0.6267(3) 0.2295(5)
H7_3 H 0.6333 0.6448 0.2812
H8_3 H 0.6676 0.6429 0.1464
H9_3 H 0.7099 0.5670 0.2339
H10_3 H 0.911(4) 0.655(3) 0.225(4)
H11_3 H 0.820(5) 0.730(3) 0.264(4)
N1_4 N 0.6597(5) 0.1654(2) 0.2293(4)
C10_4 C 0.6023(6) 0.1428(3) 0.1006(5)
H4_4 H 0.5846 0.0838 0.0953
H5_4 H 0.5146 0.1724 0.0756
H6_4 H 0.6707 0.1576 0.0480
C11_4 C 0.7993(6) 0.1267(3) 0.2705(5)
H7_4 H 0.8667 0.1448 0.2188
H8_4 H 0.8324 0.1429 0.3536
H9_4 H 0.7901 0.0670 0.2661
H10_4 H 0.589(4) 0.155(3) 0.275(4)
H11_4 H 0.680(5) 0.230(3) 0.236(4)
loop_
_geom_bond_atom_site_label_1
_geom_bond_atom_site_label_2
_geom_bond_site_symmetry_1
_geom_bond_site_symmetry_2
O8 Zn1 1_555 1_555
O1 C1 1_555 1_555
O2 C1 1_555 1_555
O3 C2 1_555 1_555
O4 C2 1_555 1_555
O5 C3 1_555 1_555
O6 C3 1_555 1_555
C1 C4 1_555 1_555
C2 C6 1_555 1_555
C3 C8 1_555 1_555
C4 C5 1_555 1_555
C5 C6 1_555 1_555
C6 C7 1_555 1_555
C7 C8 1_555 1_555
C8 C9 1_555 1_555
C9 C4 1_555 1_555
H1 C5 1_555 1_555
H2 C7 1_555 1_555
H3 C9 1_555 1_555
Zn3 O3 1_555 1_555
Zn4 O5 1_555 1_555
Zn4 O1_2 1_555 1_555
O1_2 C1_2 1_555 1_555
O2_2 C1_2 1_555 1_555
O9 C3_2 1_555 1_555
O6_2 C3_2 1_555 1_555
C1_2 C4_2 1_555 1_555
C3_2 C8_2 1_555 1_555
C4_2 C5_2 1_555 1_555
C8_2 C9_2 1_555 1_555
C9_2 C4_2 1_555 1_555
H1_2 C5_2 1_555 1_555
H3_2 C9_2 1_555 1_555
Zn2 O2_2 1_555 1_555
O7_2 Zn4 1_555 1_555
O8_2 Zn4 1_555 1_555
O3_2 C2_2 1_555 1_555
O4_2 C2_2 1_555 1_555
C2_2 C6_2 1_555 1_555
C6_2 C7_2 1_555 1_555
H2_2 C7_2 1_555 1_555
Zn2 O3_2 1_555 1_555
O1_3 C1_3 1_555 1_555
O7 C1_3 1_555 1_555
O8 C2_3 1_555 1_555
O4_3 C2_3 1_555 1_555
O5_2 C3_3 1_555 1_555
O6_3 C3_3 1_555 1_555
C1_3 C4_3 1_555 1_555
C2_3 C6_3 1_555 1_555
C3_3 C8_3 1_555 1_555
C4_3 C5_3 1_555 1_555
C5_3 C6_3 1_555 1_555
C6_3 C7_3 1_555 1_555
C7_3 C8_3 1_555 1_555
C8_3 C9_3 1_555 1_555
C9_3 C4_3 1_555 1_555
H1_3 C5_3 1_555 1_555
H2_3 C7_3 1_555 1_555
H3_3 C9_3 1_555 1_555
Zn2 O5_2 1_555 1_555
O8_2 C2_4 1_555 1_555
O4_4 C2_4 1_555 1_555
C2_4 C6_4 1_555 1_555
C6_4 C7_4 1_555 1_555
H2_4 C7_4 1_555 1_555
Zn2 O1_4 1_555 1_555
O1_4 C1_4 1_555 1_555
O7_2 C1_4 1_555 1_555
O9_2 C3_4 1_555 1_555
O6_4 C3_4 1_555 1_555
C1_4 C4_4 1_555 1_555
C3_4 C8_4 1_555 1_555
C4_4 C5_4 1_555 1_555
C8_4 C9_4 1_555 1_555
C9_4 C4_4 1_555 1_555
H1_4 C5_4 1_555 1_555
H3_4 C9_4 1_555 1_555
N1 C10 1_555 1_555
C10 H4 1_555 1_555
H5 C10 1_555 1_555
H6 C10 1_555 1_555
C11 N1 1_555 1_555
H7 C11 1_555 1_555
H8 C11 1_555 1_555
H9 C11 1_555 1_555
H10 N1 1_555 1_555
H11 N1 1_555 1_555
N1_2 C10_2 1_555 1_555
C10_2 H4_2 1_555 1_555
H5_2 C10_2 1_555 1_555
H6_2 C10_2 1_555 1_555
C11_2 N1_2 1_555 1_555
H7_2 C11_2 1_555 1_555
H8_2 C11_2 1_555 1_555
H9_2 C11_2 1_555 1_555
H10_2 N1_2 1_555 1_555
H11_2 N1_2 1_555 1_555
N1_3 C10_3 1_555 1_555
C10_3 H4_3 1_555 1_555
H5_3 C10_3 1_555 1_555
H6_3 C10_3 1_555 1_555
C11_3 N1_3 1_555 1_555
H7_3 C11_3 1_555 1_555
H8_3 C11_3 1_555 1_555
H9_3 C11_3 1_555 1_555
H10_3 N1_3 1_555 1_555
H11_3 N1_3 1_555 1_555
N1_4 C10_4 1_555 1_555
C10_4 H4_4 1_555 1_555
H5_4 C10_4 1_555 1_555
H6_4 C10_4 1_555 1_555
C11_4 N1_4 1_555 1_555
H7_4 C11_4 1_555 1_555
H8_4 C11_4 1_555 1_555
H9_4 C11_4 1_555 1_555
H10_4 N1_4 1_555 1_555
H11_4 N1_4 1_555 1_555

#END
