
###############################################################################
#
# This file contains modified crystal structure data generated from the
# MOF subset of the Cambridge Structural Database (CSD) v543 
# hosted by the Cambridge Crystallographic Data Centre (CCDC).
#
# This work is licensed under the Creative Commons
# Attribution-NonCommercial-ShareAlike 4.0 International License.
# To view a copy of this license, visit
# http://creativecommons.org/licenses/by-nc-sa/4.0/
# or send a letter to
# Creative Commons, PO Box 1866, Mountain View, CA 94042, USA.
#
# CIF created using the CSD Python API on 29 September 2022
# The structure has been converted into the P1 space group
# The structure has a 3D framework
# The original CSD entry NANYUX03 is in the monoclinic crystal system
# The framework has been calculated to contain at least 10.0% void space
# The void calculation uses a probe of radius 1.32A, grid spacing 0.4
#
###############################################################################

data_NANYUX03
_chemical_formula_moiety         '(C44 H44 N4 O24 Zn2)n'
_symmetry_cell_setting           triclinic
_symmetry_space_group_name_H-M   'P 1'
_symmetry_Int_Tables_number      1
_space_group_name_Hall           'P 1'
loop_
_symmetry_equiv_pos_site_id
_symmetry_equiv_pos_as_xyz
1 x,y,z
_cell_length_a                   9.4299(13)
_cell_length_b                   16.490(2)
_cell_length_c                   11.2803(15)
_cell_angle_alpha                90
_cell_angle_beta                 97.731(2)
_cell_angle_gamma                90
_cell_volume                     1738.13
loop_
_atom_site_label
_atom_site_type_symbol
_atom_site_fract_x
_atom_site_fract_y
_atom_site_fract_z
Zn1 Zn 0.366629(19) 0.077543(11) 0.049117(17)
O7 O 0.20782(12) 0.07967(7) 0.14209(11)
O8 O 0.54506(12) 0.06402(7) 0.16162(11)
O1 O 0.70782(12) 0.42033(7) 0.64209(11)
O2 O 0.42611(13) 0.16307(8) 0.94959(12)
O3 O 0.19357(14) 0.19128(9) 0.91002(13)
O4 O 0.76876(13) 0.29717(8) 0.71263(12)
O5 O 0.04506(12) 0.43598(7) 0.66162(11)
O6 O 0.19979(13) 0.47992(8) 0.54118(11)
C1 C 0.31931(19) 0.20450(11) 0.89944(16)
C2 C 0.35723(18) 0.27321(11) 0.82068(16)
C3 C 0.49738(18) 0.28345(11) 0.79720(15)
H1 H 0.5690 0.2492 0.8330
C4 C 0.53114(18) 0.34459(10) 0.72043(15)
C5 C 0.42349(18) 0.39558(10) 0.66719(15)
H2 H 0.4455 0.4366 0.6161
C6 C 0.28256(17) 0.38561(10) 0.68989(15)
C7 C 0.25010(18) 0.32461(11) 0.76714(15)
H3 H 0.1565 0.3181 0.7831
C8 C 0.68085(18) 0.35312(10) 0.69043(15)
C9 C 0.16661(18) 0.43820(10) 0.62652(15)
Zn2 Zn 0.133371(19) 0.577543(11) 0.450883(17)
Zn4 Zn 0.866629(19) 0.422457(11) 0.549117(17)
O9 O 0.30021(13) 0.97992(8) 0.95882(11)
O2_2 O 0.07389(13) 0.66307(8) 0.55041(12)
O3_2 O 0.30643(14) 0.69128(9) 0.58998(13)
O5_2 O 0.45494(12) 0.93598(7) 0.83838(11)
C1_2 C 0.18069(19) 0.70450(11) 0.60056(16)
C2_2 C 0.14277(18) 0.77321(11) 0.67932(16)
C3_2 C 0.00262(18) 0.78345(11) 0.70280(15)
C5_2 C 0.07651(18) 0.89558(10) 0.83281(15)
H2_2 H 0.0545 0.9366 0.8839
C6_2 C 0.21744(17) 0.88561(10) 0.81011(15)
C7_2 C 0.24990(18) 0.82461(11) 0.73286(15)
H3_2 H 0.3435 0.8181 0.7169
C9_2 C 0.33339(18) 0.93820(10) 0.87348(15)
Zn3 Zn 0.633371(19) 0.922457(11) 0.950883(17)
O7_2 O 0.29218(12) 0.57967(7) 0.35791(11)
O1_2 O 0.79218(12) 0.92033(7) 0.85791(11)
O4_2 O 0.73124(13) 0.79717(8) 0.78737(12)
H1_2 H 0.9310 0.7492 0.6670
C4_2 C 0.96886(18) 0.84459(10) 0.77957(15)
C8_2 C 0.81915(18) 0.85312(10) 0.80957(15)
O8_2 O 0.95494(12) 0.56402(7) 0.33838(11)
O9_2 O 0.69979(13) 0.02008(8) 0.04118(11)
O2_3 O 0.57389(13) 0.83693(8) 0.05041(12)
O3_3 O 0.80643(14) 0.80872(9) 0.08998(13)
O4_3 O 0.23124(13) 0.70283(8) 0.28737(12)
O6_2 O 0.80021(13) 0.52008(8) 0.45882(11)
C1_3 C 0.68069(19) 0.79550(11) 0.10056(16)
C2_3 C 0.64277(18) 0.72679(11) 0.17932(16)
C3_3 C 0.50262(18) 0.71655(11) 0.20280(15)
H1_3 H 0.4310 0.7508 0.1670
C4_3 C 0.46886(18) 0.65541(10) 0.27957(15)
C5_3 C 0.57651(18) 0.60442(10) 0.33281(15)
H2_3 H 0.5545 0.5634 0.3839
C6_3 C 0.71744(17) 0.61439(10) 0.31011(15)
C7_3 C 0.74990(18) 0.67539(11) 0.23286(15)
H3_3 H 0.8435 0.6819 0.2169
C8_3 C 0.31915(18) 0.64688(10) 0.30957(15)
C9_3 C 0.83339(18) 0.56180(10) 0.37348(15)
O4_4 O 0.26876(13) 0.20283(8) 0.21263(12)
H1_4 H 0.0690 0.2508 0.3330
C4_4 C 0.03114(18) 0.15541(10) 0.22043(15)
C8_4 C 0.18085(18) 0.14688(10) 0.19043(15)
O2_4 O 0.92611(13) 0.33693(8) 0.44959(12)
O3_4 O 0.69357(14) 0.30872(9) 0.41002(13)
C1_4 C 0.81931(19) 0.29550(11) 0.39944(16)
C2_4 C 0.85723(18) 0.22679(11) 0.32068(16)
C3_4 C 0.99738(18) 0.21655(11) 0.29720(15)
C5_4 C 0.92349(18) 0.10442(10) 0.16719(15)
H2_4 H 0.9455 0.0634 0.1161
C6_4 C 0.78256(17) 0.11439(10) 0.18989(15)
C7_4 C 0.75010(18) 0.17539(11) 0.26714(15)
H3_4 H 0.6565 0.1819 0.2831
C9_4 C 0.66661(18) 0.06180(10) 0.12652(15)
N1 N 0.16527(19) 0.86300(11) 0.29074(16)
H4 H 0.2289 0.8966 0.3321
H5 H 0.2002 0.8122 0.2997
C10 C 0.0290(3) 0.86732(17) 0.3409(2)
H7 H 0.0433 0.8487 0.4222
C11 C 0.1493(3) 0.88506(14) 0.1633(2)
H9 H 0.0783 0.8510 0.1193
H10 H 0.2392 0.8779 0.1335
H11 H 0.1201 0.9407 0.1540
H6 H 0.9957 0.9224 0.3385
H8 H 0.9591 0.8337 0.2945
N1_2 N 0.33473(19) 0.36300(11) 0.20926(16)
H4_2 H 0.2711 0.3966 0.1679
H5_2 H 0.2998 0.3122 0.2003
C10_2 C 0.4710(3) 0.36732(17) 0.1591(2)
H6_2 H 0.5043 0.4224 0.1615
H7_2 H 0.4567 0.3487 0.0778
H8_2 H 0.5409 0.3337 0.2055
C11_2 C 0.3507(3) 0.38506(14) 0.3367(2)
H9_2 H 0.4217 0.3510 0.3807
H10_2 H 0.2608 0.3779 0.3665
H11_2 H 0.3799 0.4407 0.3460
H6_3 H 0.0043 0.0776 0.6615
H8_3 H 0.0409 0.1663 0.7055
N1_3 N 0.83473(19) 0.13700(11) 0.70926(16)
H4_3 H 0.7711 0.1034 0.6679
H5_3 H 0.7998 0.1878 0.7003
C10_3 C 0.9710(3) 0.13268(17) 0.6591(2)
H7_3 H 0.9567 0.1513 0.5778
C11_3 C 0.8507(3) 0.11494(14) 0.8367(2)
H9_3 H 0.9217 0.1490 0.8807
H10_3 H 0.7608 0.1221 0.8665
H11_3 H 0.8799 0.0593 0.8460
N1_4 N 0.66527(19) 0.63700(11) 0.79074(16)
H4_4 H 0.7289 0.6034 0.8321
H5_4 H 0.7002 0.6878 0.7997
C10_4 C 0.5290(3) 0.63268(17) 0.8409(2)
H6_4 H 0.4957 0.5776 0.8385
H7_4 H 0.5433 0.6513 0.9222
H8_4 H 0.4591 0.6663 0.7945
C11_4 C 0.6493(3) 0.61494(14) 0.6633(2)
H9_4 H 0.5783 0.6490 0.6193
H10_4 H 0.7392 0.6221 0.6335
H11_4 H 0.6201 0.5593 0.6540
loop_
_geom_bond_atom_site_label_1
_geom_bond_atom_site_label_2
_geom_bond_site_symmetry_1
_geom_bond_site_symmetry_2
O7 Zn1 1_555 1_555
O8 Zn1 1_555 1_555
O1 C8 1_555 1_555
O2 C1 1_555 1_555
O3 C1 1_555 1_555
O4 C8 1_555 1_555
O5 C9 1_555 1_555
O6 C9 1_555 1_555
C1 C2 1_555 1_555
C2 C3 1_555 1_555
C3 H1 1_555 1_555
C4 C3 1_555 1_555
C5 C4 1_555 1_555
H2 C5 1_555 1_555
C6 C5 1_555 1_555
C7 C2 1_555 1_555
H3 C7 1_555 1_555
C8 C4 1_555 1_555
C9 C6 1_555 1_555
Zn2 O6 1_555 1_555
Zn4 O1 1_555 1_555
C6 C7 1_555 1_555
Zn2 O2_2 1_555 1_555
O2_2 C1_2 1_555 1_555
O3_2 C1_2 1_555 1_555
O5_2 C9_2 1_555 1_555
O9 C9_2 1_555 1_555
C1_2 C2_2 1_555 1_555
C2_2 C3_2 1_555 1_555
H2_2 C5_2 1_555 1_555
C6_2 C5_2 1_555 1_555
C7_2 C2_2 1_555 1_555
H3_2 C7_2 1_555 1_555
C9_2 C6_2 1_555 1_555
Zn3 O5_2 1_555 1_555
O7_2 Zn2 1_555 1_555
C6_2 C7_2 1_555 1_555
O1_2 C8_2 1_555 1_555
O4_2 C8_2 1_555 1_555
C8_2 C4_2 1_555 1_555
Zn3 O1_2 1_555 1_555
O7_2 C8_3 1_555 1_555
O2_3 C1_3 1_555 1_555
O3_3 C1_3 1_555 1_555
O4_3 C8_3 1_555 1_555
O8_2 C9_3 1_555 1_555
O6_2 C9_3 1_555 1_555
C1_3 C2_3 1_555 1_555
C2_3 C3_3 1_555 1_555
C3_3 H1_3 1_555 1_555
C4_3 C3_3 1_555 1_555
C5_3 C4_3 1_555 1_555
H2_3 C5_3 1_555 1_555
C6_3 C5_3 1_555 1_555
C7_3 C2_3 1_555 1_555
H3_3 C7_3 1_555 1_555
C8_3 C4_3 1_555 1_555
C9_3 C6_3 1_555 1_555
Zn4 O6_2 1_555 1_555
C6_3 C7_3 1_555 1_555
O7 C8_4 1_555 1_555
O4_4 C8_4 1_555 1_555
C8_4 C4_4 1_555 1_555
Zn4 O2_4 1_555 1_555
O2_4 C1_4 1_555 1_555
O3_4 C1_4 1_555 1_555
O8 C9_4 1_555 1_555
O9_2 C9_4 1_555 1_555
C1_4 C2_4 1_555 1_555
C2_4 C3_4 1_555 1_555
H2_4 C5_4 1_555 1_555
C6_4 C5_4 1_555 1_555
C7_4 C2_4 1_555 1_555
H3_4 C7_4 1_555 1_555
C9_4 C6_4 1_555 1_555
C6_4 C7_4 1_555 1_555
N1 H4 1_555 1_555
H5 N1 1_555 1_555
C10 N1 1_555 1_555
H7 C10 1_555 1_555
C11 N1 1_555 1_555
H9 C11 1_555 1_555
H10 C11 1_555 1_555
H11 C11 1_555 1_555
N1_2 H4_2 1_555 1_555
H5_2 N1_2 1_555 1_555
C10_2 N1_2 1_555 1_555
H6_2 C10_2 1_555 1_555
H7_2 C10_2 1_555 1_555
H8_2 C10_2 1_555 1_555
C11_2 N1_2 1_555 1_555
H9_2 C11_2 1_555 1_555
H10_2 C11_2 1_555 1_555
H11_2 C11_2 1_555 1_555
N1_3 H4_3 1_555 1_555
H5_3 N1_3 1_555 1_555
C10_3 N1_3 1_555 1_555
H7_3 C10_3 1_555 1_555
C11_3 N1_3 1_555 1_555
H9_3 C11_3 1_555 1_555
H10_3 C11_3 1_555 1_555
H11_3 C11_3 1_555 1_555
N1_4 H4_4 1_555 1_555
H5_4 N1_4 1_555 1_555
C10_4 N1_4 1_555 1_555
H6_4 C10_4 1_555 1_555
H7_4 C10_4 1_555 1_555
H8_4 C10_4 1_555 1_555
C11_4 N1_4 1_555 1_555
H9_4 C11_4 1_555 1_555
H10_4 C11_4 1_555 1_555
H11_4 C11_4 1_555 1_555

#END
