
###############################################################################
#
# This file contains modified crystal structure data generated from the
# MOF subset of the Cambridge Structural Database (CSD) v543 
# hosted by the Cambridge Crystallographic Data Centre (CCDC).
#
# This work is licensed under the Creative Commons
# Attribution-NonCommercial-ShareAlike 4.0 International License.
# To view a copy of this license, visit
# http://creativecommons.org/licenses/by-nc-sa/4.0/
# or send a letter to
# Creative Commons, PO Box 1866, Mountain View, CA 94042, USA.
#
# CIF created using the CSD Python API on 29 September 2022
# The structure has been converted into the P1 space group
# The structure has a 3D framework
# The original CSD entry NAPFUG is in the cubic crystal system
# The framework has been calculated to contain at least 10.0% void space
# The void calculation uses a probe of radius 1.32A, grid spacing 0.4
#
###############################################################################

data_NAPFUG
_chemical_formula_moiety         '(C336 H192 N16 O104 Zn32)n'
_symmetry_cell_setting           triclinic
_symmetry_space_group_name_H-M   'P 1'
_symmetry_Int_Tables_number      1
_space_group_name_Hall           'P 1'
loop_
_symmetry_equiv_pos_site_id
_symmetry_equiv_pos_as_xyz
1 x,y,z
_cell_length_a                   22.393(5)
_cell_length_b                   22.393(5)
_cell_length_c                   22.393(5)
_cell_angle_alpha                90
_cell_angle_beta                 90
_cell_angle_gamma                90
_cell_volume                     11228.9
loop_
_atom_site_label
_atom_site_type_symbol
_atom_site_fract_x
_atom_site_fract_y
_atom_site_fract_z
O1 O 0.24977(19) 0.75023(19) 0.25023(19)
Zn1 Zn 0.19954(3) 0.80046(3) 0.30046(3)
Zn2 Zn 0.22345(3) 0.66780(3) 0.25134(3)
O2 O 0.1519(3) 0.6646(3) 0.2980(4)
O3 O 0.1272(2) 0.7572(2) 0.3238(2)
C1 C 0.1166(3) 0.7026(3) 0.3190(3)
C2 C 0.0594(3) 0.6782(3) 0.3404(3)
C3 C 0.0140(4) 0.7131(3) 0.3609(4)
H1 H 0.0193 0.7543 0.3631
C7 C 0.05124(13) 0.61577(12) 0.33962(12)
H4 H 0.0817 0.5911 0.3259
O4 O 0.20272(13) 0.63892(12) 0.17219(12)
O5 O 0.20526(13) 0.72143(12) 0.11845(12)
C8 C 0.19018(13) 0.66854(12) 0.12692(12)
C9 C 0.15490(13) 0.64029(12) 0.08016(12)
C10 C 0.14357(13) 0.57774(12) 0.08021(12)
H5 H 0.1578 0.5542 0.1114
C11 C 0.1120(4) 0.5520(3) 0.0349(3)
H6 H 0.1056 0.5110 0.0350
C14 C 0.1317(4) 0.6729(4) 0.0334(4)
H8 H 0.1376 0.7140 0.0327
Zn5 Zn 0.33220(3) 0.75134(3) 0.27655(3)
Zn6 Zn 0.24866(3) 0.77655(3) 0.16780(3)
O8 O 0.3354(3) 0.7980(4) 0.3481(3)
O9 O 0.2020(4) 0.8481(3) 0.1646(3)
O12 O 0.1762(2) 0.8728(2) 0.2572(2)
O13 O 0.2428(2) 0.8238(2) 0.3728(2)
O16 O 0.36108(12) 0.67219(12) 0.29728(13)
O17 O 0.32781(12) 0.79728(13) 0.13892(12)
O20 O 0.27857(12) 0.61845(12) 0.29474(13)
O21 O 0.38155(12) 0.79474(13) 0.22143(12)
N2 N 0.05747(13) 0.55747(12) 0.94253(12)
C12 C 0.0898(3) 0.5853(3) 0.9898(3)
C13 C 0.1004(4) 0.6469(4) 0.9881(4)
H7 H 0.0863 0.6698 0.9564
Zn11 Zn 0.16780(3) 0.24866(3) 0.77655(3)
Zn12 Zn 0.27655(3) 0.33220(3) 0.75134(3)
O15 O 0.13892(12) 0.32781(12) 0.79728(13)
O19 O 0.22143(12) 0.38155(12) 0.79474(13)
C30 C 0.16854(12) 0.37308(12) 0.80982(13)
C32 C 0.14029(12) 0.41984(12) 0.84510(13)
C34 C 0.07774(12) 0.41979(12) 0.85643(13)
H18 H 0.0542 0.3886 0.8422
C36 C 0.0520(3) 0.4651(3) 0.8880(4)
H20 H 0.0110 0.4650 0.8944
C37 C 0.0102(3) 0.5898(3) 0.9147(3)
C38 C 0.0853(3) 0.5102(3) 0.9102(3)
C39 C 0.0119(4) 0.6004(4) 0.8531(4)
C40 C 0.1469(4) 0.5119(4) 0.8996(4)
H21 H 0.0436 0.5863 0.8302
H22 H 0.1698 0.5436 0.9137
C42 C 0.1729(4) 0.4666(4) 0.8683(4)
H24 H 0.2140 0.4673 0.8624
N1 N 0.8988(3) 0.6012(3) 0.3988(3)
C4 C 0.9613(3) 0.6891(3) 0.3782(4)
H2 H 0.9303 0.7140 0.3901
C5 C 0.9528(3) 0.6272(3) 0.3782(3)
C6 C 0.9989(4) 0.5915(4) 0.3588(5)
H3 H 0.9942 0.5503 0.3589
Zn3 Zn 0.80046(3) 0.30046(3) 0.19954(3)
Zn4 Zn 0.69954(3) 0.69954(3) 0.69954(3)
Zn7 Zn 0.75134(3) 0.27655(3) 0.33220(3)
Zn8 Zn 0.83220(3) 0.74866(3) 0.72345(3)
O6 O 0.7980(4) 0.3481(3) 0.3354(3)
O7 O 0.8354(3) 0.7020(4) 0.6519(3)
O10 O 0.8238(2) 0.3728(2) 0.2428(2)
O11 O 0.7428(2) 0.6762(2) 0.6272(2)
C15 C 0.8190(3) 0.3834(3) 0.2974(3)
C16 C 0.7974(3) 0.6810(3) 0.6166(3)
C17 C 0.8404(3) 0.4406(3) 0.3218(3)
C18 C 0.8218(3) 0.6596(3) 0.5594(3)
C19 C 0.8609(4) 0.4860(4) 0.2869(3)
C20 C 0.7869(3) 0.6391(4) 0.5140(4)
H9 H 0.8631 0.4807 0.2457
H10 H 0.7457 0.6369 0.5193
C21 C 0.8782(4) 0.5387(3) 0.3109(3)
C22 C 0.8109(3) 0.6218(4) 0.4613(3)
H11 H 0.8901 0.5697 0.2860
H12 H 0.7860 0.6099 0.4303
C23 C 0.8782(3) 0.5472(3) 0.3728(3)
C24 C 0.8728(3) 0.6218(3) 0.4528(3)
C25 C 0.8588(5) 0.5011(4) 0.4085(4)
C26 C 0.9085(4) 0.6412(5) 0.4989(4)
H13 H 0.8589 0.5058 0.4497
H14 H 0.9497 0.6411 0.4942
C27 C 0.83962(12) 0.44876(13) 0.38423(12)
C28 C 0.88423(12) 0.66038(12) 0.55124(13)
H15 H 0.8259 0.4183 0.4089
H16 H 0.9089 0.6741 0.5817
Zn9 Zn 0.74866(3) 0.72345(3) 0.83220(3)
O14 O 0.82781(12) 0.70272(13) 0.86108(12)
O18 O 0.88155(12) 0.70526(13) 0.77857(12)
C29 C 0.87308(12) 0.69018(13) 0.83146(12)
C31 C 0.91984(12) 0.65490(13) 0.85971(12)
C33 C 0.91979(12) 0.64357(13) 0.92226(12)
H17 H 0.8886 0.6578 0.9458
C35 C 0.9651(3) 0.6120(4) 0.9480(3)
H19 H 0.9650 0.6056 0.9890
C41 C 0.9666(4) 0.6317(4) 0.8271(4)
H23 H 0.9673 0.6376 0.7860
Zn8_2 Zn 0.66780(3) 0.25134(3) 0.22345(3)
O7_2 O 0.6646(3) 0.2980(4) 0.1519(3)
O11_2 O 0.7572(2) 0.3238(2) 0.1272(2)
C16_2 C 0.7026(3) 0.3190(3) 0.1166(3)
C18_2 C 0.6782(3) 0.3404(3) 0.0594(3)
C20_2 C 0.7131(3) 0.3609(4) 0.0140(4)
H10_2 H 0.7543 0.3631 0.0193
C28_2 C 0.61577(12) 0.33962(12) 0.05124(13)
H16_2 H 0.5911 0.3259 0.0817
O1_2 O 0.25023(19) 0.24977(19) 0.75023(19)
Zn1_2 Zn 0.30046(3) 0.19954(3) 0.80046(3)
O2_2 O 0.3481(3) 0.3354(3) 0.7980(4)
O3_2 O 0.3728(2) 0.2428(2) 0.8238(2)
N1_2 N 0.6012(3) 0.3988(3) 0.8988(3)
C1_2 C 0.3834(3) 0.2974(3) 0.8190(3)
C2_2 C 0.4406(3) 0.3218(3) 0.8404(3)
C3_2 C 0.4860(4) 0.2869(3) 0.8609(4)
H1_2 H 0.4807 0.2457 0.8631
C4_2 C 0.5387(3) 0.3109(3) 0.8782(4)
H2_2 H 0.5697 0.2860 0.8901
C5_2 C 0.5472(3) 0.3728(3) 0.8782(3)
C6_2 C 0.5011(4) 0.4085(4) 0.8588(5)
H3_2 H 0.5058 0.4497 0.8589
C7_2 C 0.44876(13) 0.38423(12) 0.83962(12)
H4_2 H 0.4183 0.4089 0.8259
O4_2 O 0.29728(13) 0.36108(12) 0.67219(12)
O5_2 O 0.29474(13) 0.27857(12) 0.61845(12)
N2_2 N 0.44253(13) 0.44253(12) 0.44253(12)
C8_2 C 0.30982(13) 0.33146(12) 0.62692(12)
C9_2 C 0.34510(13) 0.35971(12) 0.58016(12)
C10_2 C 0.35643(13) 0.42226(12) 0.58021(12)
H5_2 H 0.3422 0.4458 0.6114
C11_2 C 0.3880(4) 0.4480(3) 0.5349(3)
H6_2 H 0.3944 0.4890 0.5350
C12_2 C 0.4102(3) 0.4147(3) 0.4898(3)
C13_2 C 0.3996(4) 0.3531(4) 0.4881(4)
H7_2 H 0.4137 0.3302 0.4564
C14_2 C 0.3683(4) 0.3271(4) 0.5334(4)
H8_2 H 0.3624 0.2860 0.5327
Zn6_2 Zn 0.25134(3) 0.22345(3) 0.66780(3)
O6_2 O 0.7020(4) 0.6519(3) 0.8354(3)
O8_2 O 0.1646(3) 0.2020(4) 0.8481(3)
O9_2 O 0.2980(4) 0.1519(3) 0.6646(3)
O10_2 O 0.6762(2) 0.6272(2) 0.7428(2)
O12_2 O 0.3238(2) 0.1272(2) 0.7572(2)
O13_2 O 0.2572(2) 0.1762(2) 0.8728(2)
C15_2 C 0.6810(3) 0.6166(3) 0.7974(3)
C17_2 C 0.6596(3) 0.5594(3) 0.8218(3)
C19_2 C 0.6391(4) 0.5140(4) 0.7869(3)
H9_2 H 0.6369 0.5193 0.7457
C21_2 C 0.6218(4) 0.4613(3) 0.8109(3)
C22_2 C 0.6891(3) 0.3782(4) 0.9613(3)
H11_2 H 0.6099 0.4303 0.7860
H12_2 H 0.7140 0.3901 0.9303
C23_2 C 0.6218(3) 0.4528(3) 0.8728(3)
C24_2 C 0.6272(3) 0.3782(3) 0.9528(3)
C25_2 C 0.6412(5) 0.4989(4) 0.9085(4)
C26_2 C 0.5915(4) 0.3588(5) 0.9989(4)
H13_2 H 0.6411 0.4942 0.9497
H14_2 H 0.5503 0.3589 0.9942
C27_2 C 0.66038(12) 0.55124(13) 0.88423(12)
H15_2 H 0.6741 0.5817 0.9089
O14_2 O 0.67219(12) 0.29728(13) 0.36108(12)
O17_2 O 0.17219(12) 0.20272(13) 0.63892(12)
O18_2 O 0.61845(12) 0.29474(13) 0.27857(12)
O21_2 O 0.11845(12) 0.20526(13) 0.72143(12)
C29_2 C 0.62692(12) 0.30982(13) 0.33146(12)
C30_2 C 0.33146(12) 0.62692(12) 0.30982(13)
C31_2 C 0.58016(12) 0.34510(13) 0.35971(12)
C32_2 C 0.35971(12) 0.58016(12) 0.34510(13)
C33_2 C 0.58021(12) 0.35643(13) 0.42226(12)
C34_2 C 0.42226(12) 0.58021(12) 0.35643(13)
H17_2 H 0.6114 0.3422 0.4458
H18_2 H 0.4458 0.6114 0.3422
C35_2 C 0.5349(3) 0.3880(4) 0.4480(3)
C36_2 C 0.4480(3) 0.5349(3) 0.3880(4)
H19_2 H 0.5350 0.3944 0.4890
H20_2 H 0.4890 0.5350 0.3944
C37_2 C 0.4898(3) 0.4102(3) 0.4147(3)
C38_2 C 0.4147(3) 0.4898(3) 0.4102(3)
C39_2 C 0.4881(4) 0.3996(4) 0.3531(4)
C40_2 C 0.3531(4) 0.4881(4) 0.3996(4)
H21_2 H 0.4564 0.4137 0.3302
H22_2 H 0.3302 0.4564 0.4137
C41_2 C 0.5334(4) 0.3683(4) 0.3271(4)
C42_2 C 0.3271(4) 0.5334(4) 0.3683(4)
H23_2 H 0.5327 0.3624 0.2860
H24_2 H 0.2860 0.5327 0.3624
Zn12_2 Zn 0.77655(3) 0.16780(3) 0.24866(3)
O15_2 O 0.63892(12) 0.17219(12) 0.20272(13)
O19_2 O 0.72143(12) 0.11845(12) 0.20526(13)
C30_3 C 0.66854(12) 0.12692(12) 0.19018(13)
C32_3 C 0.64029(12) 0.08016(12) 0.15490(13)
C34_3 C 0.57774(12) 0.08021(12) 0.14357(13)
H18_3 H 0.5542 0.1114 0.1578
C36_3 C 0.5520(3) 0.0349(3) 0.1120(4)
H20_3 H 0.5110 0.0350 0.1056
C42_3 C 0.6729(4) 0.0334(4) 0.1317(4)
H24_3 H 0.7140 0.0327 0.1376
C15_3 C 0.3190(3) 0.1166(3) 0.7026(3)
C17_3 C 0.3404(3) 0.0594(3) 0.6782(3)
C19_3 C 0.3609(4) 0.0140(4) 0.7131(3)
H9_3 H 0.3631 0.0193 0.7543
C27_3 C 0.33962(12) 0.05124(13) 0.61577(12)
H15_3 H 0.3259 0.0817 0.5911
N2_3 N 0.55747(13) 0.94253(12) 0.05747(12)
C12_3 C 0.5898(3) 0.9147(3) 0.0102(3)
C13_3 C 0.6004(4) 0.8531(4) 0.0119(4)
H7_3 H 0.5863 0.8302 0.0436
C29_3 C 0.37308(12) 0.80982(13) 0.16854(12)
C31_3 C 0.41984(12) 0.84510(13) 0.14029(12)
C33_3 C 0.41979(12) 0.85643(13) 0.07774(12)
H17_3 H 0.3886 0.8422 0.0542
C35_3 C 0.4651(3) 0.8880(4) 0.0520(3)
H19_3 H 0.4650 0.8944 0.0110
C37_3 C 0.5102(3) 0.9102(3) 0.0853(3)
C38_3 C 0.5853(3) 0.9898(3) 0.0898(3)
C39_3 C 0.5119(4) 0.8996(4) 0.1469(4)
C40_3 C 0.6469(4) 0.9881(4) 0.1004(4)
H21_3 H 0.5436 0.9137 0.1698
H22_3 H 0.6698 0.9564 0.0863
C41_3 C 0.4666(4) 0.8683(4) 0.1729(4)
H23_3 H 0.4673 0.8624 0.2140
O1_3 O 0.74977(19) 0.74977(19) 0.74977(19)
Zn2_2 Zn 0.72345(3) 0.83220(3) 0.74866(3)
O2_3 O 0.6519(3) 0.8354(3) 0.7020(4)
O3_3 O 0.6272(2) 0.7428(2) 0.6762(2)
N1_3 N 0.3988(3) 0.8988(3) 0.6012(3)
C1_3 C 0.6166(3) 0.7974(3) 0.6810(3)
C2_3 C 0.5594(3) 0.8218(3) 0.6596(3)
C3_3 C 0.5140(4) 0.7869(3) 0.6391(4)
H1_3 H 0.5193 0.7457 0.6369
C4_3 C 0.4613(3) 0.8109(3) 0.6218(4)
H2_3 H 0.4303 0.7860 0.6099
C5_3 C 0.4528(3) 0.8728(3) 0.6218(3)
C6_3 C 0.4989(4) 0.9085(4) 0.6412(5)
H3_3 H 0.4942 0.9497 0.6411
C7_3 C 0.55124(13) 0.88423(12) 0.66038(12)
H4_3 H 0.5817 0.9089 0.6741
O4_3 O 0.70272(13) 0.86108(12) 0.82781(12)
O5_3 O 0.70526(13) 0.77857(12) 0.88155(12)
C8_3 C 0.69018(13) 0.83146(12) 0.87308(12)
C9_3 C 0.65490(13) 0.85971(12) 0.91984(12)
C10_3 C 0.64357(13) 0.92226(12) 0.91979(12)
H5_3 H 0.6578 0.9458 0.8886
C11_3 C 0.6120(4) 0.9480(3) 0.9651(3)
H6_3 H 0.6056 0.9890 0.9650
C14_3 C 0.6317(4) 0.8271(4) 0.9666(4)
H8_3 H 0.6376 0.7860 0.9673
C16_3 C 0.2974(3) 0.8190(3) 0.3834(3)
C18_3 C 0.3218(3) 0.8404(3) 0.4406(3)
C20_3 C 0.2869(3) 0.8609(4) 0.4860(4)
H10_3 H 0.2457 0.8631 0.4807
C21_3 C 0.3782(4) 0.9613(3) 0.6891(3)
C22_3 C 0.3109(3) 0.8782(4) 0.5387(3)
H11_3 H 0.3901 0.9303 0.7140
H12_3 H 0.2860 0.8901 0.5697
C23_3 C 0.3782(3) 0.9528(3) 0.6272(3)
C24_3 C 0.3728(3) 0.8782(3) 0.5472(3)
C25_3 C 0.3588(5) 0.9989(4) 0.5915(4)
C26_3 C 0.4085(4) 0.8588(5) 0.5011(4)
H13_3 H 0.3589 0.9942 0.5503
H14_3 H 0.4497 0.8589 0.5058
C28_3 C 0.38423(12) 0.83962(12) 0.44876(13)
H16_3 H 0.4089 0.8259 0.4183
O16_2 O 0.86108(12) 0.82781(12) 0.70272(13)
O20_2 O 0.77857(12) 0.88155(12) 0.70526(13)
C8_4 C 0.12692(12) 0.19018(13) 0.66854(12)
C9_4 C 0.08016(12) 0.15490(13) 0.64029(12)
C10_4 C 0.08021(12) 0.14357(13) 0.57774(12)
H5_4 H 0.1114 0.1578 0.5542
C11_4 C 0.0349(3) 0.1120(4) 0.5520(3)
H6_4 H 0.0350 0.1056 0.5110
C14_4 C 0.0334(4) 0.1317(4) 0.6729(4)
H8_4 H 0.0327 0.1376 0.7140
N2_4 N 0.94253(12) 0.05747(13) 0.55747(12)
C12_4 C 0.9898(3) 0.0898(3) 0.5853(3)
C13_4 C 0.9881(4) 0.1004(4) 0.6469(4)
H7_4 H 0.9564 0.0863 0.6698
O15_3 O 0.79728(13) 0.13892(12) 0.32781(12)
O19_3 O 0.79474(13) 0.22143(12) 0.38155(12)
C30_4 C 0.80982(13) 0.16854(12) 0.37308(12)
C32_4 C 0.84510(13) 0.14029(12) 0.41984(12)
C34_4 C 0.85643(13) 0.07774(12) 0.41979(12)
H18_4 H 0.8422 0.0542 0.3886
C36_4 C 0.8880(4) 0.0520(3) 0.4651(3)
H20_4 H 0.8944 0.0110 0.4650
C37_4 C 0.9147(3) 0.0102(3) 0.5898(3)
C38_4 C 0.9102(3) 0.0853(3) 0.5102(3)
C39_4 C 0.8531(4) 0.0119(4) 0.6004(4)
C40_4 C 0.8996(4) 0.1469(4) 0.5119(4)
H21_4 H 0.8302 0.0436 0.5863
H22_4 H 0.9137 0.1698 0.5436
C42_4 C 0.8683(4) 0.1729(4) 0.4666(4)
H24_4 H 0.8624 0.2140 0.4673
C29_4 C 0.83146(12) 0.87308(12) 0.69018(13)
C31_4 C 0.85971(12) 0.91984(12) 0.65490(13)
C33_4 C 0.92226(12) 0.91979(12) 0.64357(13)
H17_4 H 0.9458 0.8886 0.6578
C35_4 C 0.9480(3) 0.9651(3) 0.6120(4)
H19_4 H 0.9890 0.9650 0.6056
C41_4 C 0.8271(4) 0.9666(4) 0.6317(4)
H23_4 H 0.7860 0.9673 0.6376
N1_4 N 0.1012(3) 0.1012(3) 0.1012(3)
C4_4 C 0.0387(3) 0.1891(3) 0.1218(4)
H2_4 H 0.0697 0.2140 0.1099
C5_4 C 0.0472(3) 0.1272(3) 0.1218(3)
C6_4 C 0.0011(4) 0.0915(4) 0.1412(5)
H3_4 H 0.0058 0.0503 0.1411
C21_4 C 0.1218(4) 0.0387(3) 0.1891(3)
C22_4 C 0.1891(3) 0.1218(4) 0.0387(3)
H11_4 H 0.1099 0.0697 0.2140
H12_4 H 0.2140 0.1099 0.0697
C23_4 C 0.1218(3) 0.0472(3) 0.1272(3)
C24_4 C 0.1272(3) 0.1218(3) 0.0472(3)
C25_4 C 0.1412(5) 0.0011(4) 0.0915(4)
C26_4 C 0.0915(4) 0.1412(5) 0.0011(4)
H13_4 H 0.1411 0.0058 0.0503
H14_4 H 0.0503 0.1411 0.0058
C16_4 C 0.2026(3) 0.1810(3) 0.8834(3)
C18_4 C 0.1782(3) 0.1596(3) 0.9406(3)
C20_4 C 0.2131(3) 0.1391(4) 0.9860(4)
H10_4 H 0.2543 0.1369 0.9807
C28_4 C 0.11577(12) 0.16038(12) 0.94876(13)
H16_4 H 0.0911 0.1741 0.9183
C15_4 C 0.1810(3) 0.8834(3) 0.2026(3)
C17_4 C 0.1596(3) 0.9406(3) 0.1782(3)
C19_4 C 0.1391(4) 0.9860(4) 0.2131(3)
H9_4 H 0.1369 0.9807 0.2543
C27_4 C 0.16038(12) 0.94876(13) 0.11577(12)
H15_4 H 0.1741 0.9183 0.0911
O1_4 O 0.75023(19) 0.25023(19) 0.24977(19)
O2_4 O 0.8481(3) 0.1646(3) 0.2020(4)
O3_4 O 0.8728(2) 0.2572(2) 0.1762(2)
C1_4 C 0.8834(3) 0.2026(3) 0.1810(3)
C2_4 C 0.9406(3) 0.1782(3) 0.1596(3)
C3_4 C 0.9860(4) 0.2131(3) 0.1391(4)
H1_4 H 0.9807 0.2543 0.1369
C7_4 C 0.94876(13) 0.11577(12) 0.16038(12)
H4_4 H 0.9183 0.0911 0.1741
Zn9_2 Zn 0.25134(3) 0.27655(3) 0.16780(3)
Zn10 Zn 0.16780(3) 0.25134(3) 0.27655(3)
O14_3 O 0.17219(12) 0.29728(13) 0.13892(12)
O18_3 O 0.11845(12) 0.29474(13) 0.22143(12)
C29_5 C 0.12692(12) 0.30982(13) 0.16854(12)
C31_5 C 0.08016(12) 0.34510(13) 0.14029(12)
C33_5 C 0.08021(12) 0.35643(13) 0.07774(12)
H17_5 H 0.1114 0.3422 0.0542
C35_5 C 0.0349(3) 0.3880(4) 0.0520(3)
H19_5 H 0.0350 0.3944 0.0110
C41_5 C 0.0334(4) 0.3683(4) 0.1729(4)
H23_5 H 0.0327 0.3624 0.2140
N1_5 N 0.1012(3) 0.3988(3) 0.6012(3)
C4_5 C 0.0387(3) 0.3109(3) 0.6218(4)
H2_5 H 0.0697 0.2860 0.6099
C5_5 C 0.0472(3) 0.3728(3) 0.6218(3)
C6_5 C 0.0011(4) 0.4085(4) 0.6412(5)
H3_5 H 0.0058 0.4497 0.6411
Zn3_2 Zn 0.19954(3) 0.69954(3) 0.80046(3)
Zn4_2 Zn 0.30046(3) 0.30046(3) 0.30046(3)
Zn7_2 Zn 0.24866(3) 0.72345(3) 0.66780(3)
O6_3 O 0.2020(4) 0.6519(3) 0.6646(3)
O7_3 O 0.1646(3) 0.2980(4) 0.3481(3)
O10_3 O 0.1762(2) 0.6272(2) 0.7572(2)
O11_3 O 0.2572(2) 0.3238(2) 0.3728(2)
C15_5 C 0.1810(3) 0.6166(3) 0.7026(3)
C16_5 C 0.2026(3) 0.3190(3) 0.3834(3)
C17_5 C 0.1596(3) 0.5594(3) 0.6782(3)
C18_5 C 0.1782(3) 0.3404(3) 0.4406(3)
C19_5 C 0.1391(4) 0.5140(4) 0.7131(3)
C20_5 C 0.2131(3) 0.3609(4) 0.4860(4)
H9_5 H 0.1369 0.5193 0.7543
H10_5 H 0.2543 0.3631 0.4807
C21_5 C 0.1218(4) 0.4613(3) 0.6891(3)
C22_5 C 0.1891(3) 0.3782(4) 0.5387(3)
H11_5 H 0.1099 0.4303 0.7140
H12_5 H 0.2140 0.3901 0.5697
C23_5 C 0.1218(3) 0.4528(3) 0.6272(3)
C24_5 C 0.1272(3) 0.3782(3) 0.5472(3)
C25_5 C 0.1412(5) 0.4989(4) 0.5915(4)
C26_5 C 0.0915(4) 0.3588(5) 0.5011(4)
H13_5 H 0.1411 0.4942 0.5503
H14_5 H 0.0503 0.3589 0.5058
C27_5 C 0.16038(12) 0.55124(13) 0.61577(12)
C28_5 C 0.11577(12) 0.33962(12) 0.44876(13)
H15_5 H 0.1741 0.5817 0.5911
H16_5 H 0.0911 0.3259 0.4183
N2_5 N 0.94253(13) 0.44253(12) 0.05747(12)
C12_5 C 0.9102(3) 0.4147(3) 0.0102(3)
C13_5 C 0.8996(4) 0.3531(4) 0.0119(4)
H7_5 H 0.9137 0.3302 0.0436
Zn11_2 Zn 0.83220(3) 0.75134(3) 0.22345(3)
Zn12_3 Zn 0.72345(3) 0.66780(3) 0.24866(3)
O15_4 O 0.86108(12) 0.67219(12) 0.20272(13)
O19_4 O 0.77857(12) 0.61845(12) 0.20526(13)
C30_5 C 0.83146(12) 0.62692(12) 0.19018(13)
C32_5 C 0.85971(12) 0.58016(12) 0.15490(13)
C34_5 C 0.92226(12) 0.58021(12) 0.14357(13)
H18_5 H 0.9458 0.6114 0.1578
C36_5 C 0.9480(3) 0.5349(3) 0.1120(4)
H20_5 H 0.9890 0.5350 0.1056
C37_5 C 0.9898(3) 0.4102(3) 0.0853(3)
C38_5 C 0.9147(3) 0.4898(3) 0.0898(3)
C39_5 C 0.9881(4) 0.3996(4) 0.1469(4)
C40_5 C 0.8531(4) 0.4881(4) 0.1004(4)
H21_5 H 0.9564 0.4137 0.1698
H22_5 H 0.8302 0.4564 0.0863
C42_5 C 0.8271(4) 0.5334(4) 0.1317(4)
H24_5 H 0.7860 0.5327 0.1376
O1_5 O 0.75023(19) 0.24977(19) 0.74977(19)
Zn1_3 Zn 0.80046(3) 0.19954(3) 0.69954(3)
Zn2_3 Zn 0.77655(3) 0.33220(3) 0.74866(3)
O2_5 O 0.8481(3) 0.3354(3) 0.7020(4)
O3_5 O 0.8728(2) 0.2428(2) 0.6762(2)
C1_5 C 0.8834(3) 0.2974(3) 0.6810(3)
C2_5 C 0.9406(3) 0.3218(3) 0.6596(3)
C3_5 C 0.9860(4) 0.2869(3) 0.6391(4)
H1_5 H 0.9807 0.2457 0.6369
C7_5 C 0.94876(13) 0.38423(12) 0.66038(12)
H4_5 H 0.9183 0.4089 0.6741
O4_4 O 0.79728(13) 0.36108(12) 0.82781(12)
O5_4 O 0.79474(13) 0.27857(12) 0.88155(12)
C8_5 C 0.80982(13) 0.33146(12) 0.87308(12)
C9_5 C 0.84510(13) 0.35971(12) 0.91984(12)
C10_5 C 0.85643(13) 0.42226(12) 0.91979(12)
H5_5 H 0.8422 0.4458 0.8886
C11_5 C 0.8880(4) 0.4480(3) 0.9651(3)
H6_5 H 0.8944 0.4890 0.9650
C14_5 C 0.8683(4) 0.3271(4) 0.9666(4)
H8_5 H 0.8624 0.2860 0.9673
Zn5_2 Zn 0.66780(3) 0.24866(3) 0.72345(3)
Zn6_3 Zn 0.75134(3) 0.22345(3) 0.83220(3)
O8_3 O 0.6646(3) 0.2020(4) 0.6519(3)
O9_3 O 0.7980(4) 0.1519(3) 0.8354(3)
O12_3 O 0.8238(2) 0.1272(2) 0.7428(2)
O13_3 O 0.7572(2) 0.1762(2) 0.6272(2)
O16_3 O 0.63892(12) 0.32781(12) 0.70272(13)
O17_3 O 0.67219(12) 0.20272(13) 0.86108(12)
O20_3 O 0.72143(12) 0.38155(12) 0.70526(13)
O21_3 O 0.61845(12) 0.20526(13) 0.77857(12)
O1_6 O 0.74977(19) 0.75023(19) 0.24977(19)
Zn1_4 Zn 0.69954(3) 0.80046(3) 0.19954(3)
O2_6 O 0.6519(3) 0.6646(3) 0.2020(4)
O3_6 O 0.6272(2) 0.7572(2) 0.1762(2)
N1_6 N 0.3988(3) 0.6012(3) 0.1012(3)
C1_6 C 0.6166(3) 0.7026(3) 0.1810(3)
C2_6 C 0.5594(3) 0.6782(3) 0.1596(3)
C3_6 C 0.5140(4) 0.7131(3) 0.1391(4)
H1_6 H 0.5193 0.7543 0.1369
C4_6 C 0.4613(3) 0.6891(3) 0.1218(4)
H2_6 H 0.4303 0.7140 0.1099
C5_6 C 0.4528(3) 0.6272(3) 0.1218(3)
C6_6 C 0.4989(4) 0.5915(4) 0.1412(5)
H3_6 H 0.4942 0.5503 0.1411
C7_6 C 0.55124(13) 0.61577(12) 0.16038(12)
H4_6 H 0.5817 0.5911 0.1741
O4_5 O 0.70272(13) 0.63892(12) 0.32781(12)
O5_5 O 0.70526(13) 0.72143(12) 0.38155(12)
N2_6 N 0.55747(13) 0.55747(12) 0.55747(12)
C8_6 C 0.69018(13) 0.66854(12) 0.37308(12)
C9_6 C 0.65490(13) 0.64029(12) 0.41984(12)
C10_6 C 0.64357(13) 0.57774(12) 0.41979(12)
H5_6 H 0.6578 0.5542 0.3886
C11_6 C 0.6120(4) 0.5520(3) 0.4651(3)
H6_6 H 0.6056 0.5110 0.4650
C12_6 C 0.5898(3) 0.5853(3) 0.5102(3)
C13_6 C 0.6004(4) 0.6469(4) 0.5119(4)
H7_6 H 0.5863 0.6698 0.5436
C14_6 C 0.6317(4) 0.6729(4) 0.4666(4)
H8_6 H 0.6376 0.7140 0.4673
Zn6_4 Zn 0.74866(3) 0.77655(3) 0.33220(3)
Zn10_2 Zn 0.33220(3) 0.74866(3) 0.77655(3)
O6_4 O 0.2980(4) 0.3481(3) 0.1646(3)
O8_4 O 0.8354(3) 0.7980(4) 0.1519(3)
O9_4 O 0.7020(4) 0.8481(3) 0.3354(3)
O10_4 O 0.3238(2) 0.3728(2) 0.2572(2)
O12_4 O 0.6762(2) 0.8728(2) 0.2428(2)
O13_4 O 0.7428(2) 0.8238(2) 0.1272(2)
C15_6 C 0.3190(3) 0.3834(3) 0.2026(3)
C17_6 C 0.3404(3) 0.4406(3) 0.1782(3)
C19_6 C 0.3609(4) 0.4860(4) 0.2131(3)
H9_6 H 0.3631 0.4807 0.2543
C21_6 C 0.3782(4) 0.5387(3) 0.1891(3)
C22_6 C 0.3109(3) 0.6218(4) 0.0387(3)
H11_6 H 0.3901 0.5697 0.2140
H12_6 H 0.2860 0.6099 0.0697
C23_6 C 0.3782(3) 0.5472(3) 0.1272(3)
C24_6 C 0.3728(3) 0.6218(3) 0.0472(3)
C25_6 C 0.3588(5) 0.5011(4) 0.0915(4)
C26_6 C 0.4085(4) 0.6412(5) 0.0011(4)
H13_6 H 0.3589 0.5058 0.0503
H14_6 H 0.4497 0.6411 0.0058
C27_6 C 0.33962(12) 0.44876(13) 0.11577(12)
H15_6 H 0.3259 0.4183 0.0911
O14_4 O 0.32781(12) 0.70272(13) 0.63892(12)
O17_4 O 0.82781(12) 0.79728(13) 0.36108(12)
O18_4 O 0.38155(12) 0.70526(13) 0.72143(12)
O21_4 O 0.88155(12) 0.79474(13) 0.27857(12)
C29_6 C 0.37308(12) 0.69018(13) 0.66854(12)
C30_6 C 0.66854(12) 0.37308(12) 0.69018(13)
C31_6 C 0.41984(12) 0.65490(13) 0.64029(12)
C32_6 C 0.64029(12) 0.41984(12) 0.65490(13)
C33_6 C 0.41979(12) 0.64357(13) 0.57774(12)
C34_6 C 0.57774(12) 0.41979(12) 0.64357(13)
H17_6 H 0.3886 0.6578 0.5542
H18_6 H 0.5542 0.3886 0.6578
C35_6 C 0.4651(3) 0.6120(4) 0.5520(3)
C36_6 C 0.5520(3) 0.4651(3) 0.6120(4)
H19_6 H 0.4650 0.6056 0.5110
H20_6 H 0.5110 0.4650 0.6056
C37_6 C 0.5102(3) 0.5898(3) 0.5853(3)
C38_6 C 0.5853(3) 0.5102(3) 0.5898(3)
C39_6 C 0.5119(4) 0.6004(4) 0.6469(4)
C40_6 C 0.6469(4) 0.5119(4) 0.6004(4)
H21_6 H 0.5436 0.5863 0.6698
H22_6 H 0.6698 0.5436 0.5863
C41_6 C 0.4666(4) 0.6317(4) 0.6729(4)
C42_6 C 0.6729(4) 0.4666(4) 0.6317(4)
H23_6 H 0.4673 0.6376 0.7140
H24_6 H 0.7140 0.4673 0.6376
O7_4 O 0.3354(3) 0.7020(4) 0.8481(3)
O11_4 O 0.2428(2) 0.6762(2) 0.8728(2)
C16_6 C 0.2974(3) 0.6810(3) 0.8834(3)
C18_6 C 0.3218(3) 0.6596(3) 0.9406(3)
C20_6 C 0.2869(3) 0.6391(4) 0.9860(4)
H10_6 H 0.2457 0.6369 0.9807
C28_6 C 0.38423(12) 0.66038(12) 0.94876(13)
H16_6 H 0.4089 0.6741 0.9183
O1_7 O 0.25023(19) 0.25023(19) 0.25023(19)
Zn2_4 Zn 0.27655(3) 0.16780(3) 0.25134(3)
O2_7 O 0.3481(3) 0.1646(3) 0.2980(4)
O3_7 O 0.3728(2) 0.2572(2) 0.3238(2)
N1_7 N 0.6012(3) 0.1012(3) 0.3988(3)
C1_7 C 0.3834(3) 0.2026(3) 0.3190(3)
C2_7 C 0.4406(3) 0.1782(3) 0.3404(3)
C3_7 C 0.4860(4) 0.2131(3) 0.3609(4)
H1_7 H 0.4807 0.2543 0.3631
C4_7 C 0.5387(3) 0.1891(3) 0.3782(4)
H2_7 H 0.5697 0.2140 0.3901
C5_7 C 0.5472(3) 0.1272(3) 0.3782(3)
C6_7 C 0.5011(4) 0.0915(4) 0.3588(5)
H3_7 H 0.5058 0.0503 0.3589
C7_7 C 0.44876(13) 0.11577(12) 0.33962(12)
H4_7 H 0.4183 0.0911 0.3259
O4_6 O 0.29728(13) 0.13892(12) 0.17219(12)
O5_6 O 0.29474(13) 0.22143(12) 0.11845(12)
C8_7 C 0.30982(13) 0.16854(12) 0.12692(12)
C9_7 C 0.34510(13) 0.14029(12) 0.08016(12)
C10_7 C 0.35643(13) 0.07774(12) 0.08021(12)
H5_7 H 0.3422 0.0542 0.1114
C11_7 C 0.3880(4) 0.0520(3) 0.0349(3)
H6_7 H 0.3944 0.0110 0.0350
C14_7 C 0.3683(4) 0.1729(4) 0.0334(4)
H8_7 H 0.3624 0.2140 0.0327
C16_7 C 0.7026(3) 0.1810(3) 0.6166(3)
C18_7 C 0.6782(3) 0.1596(3) 0.5594(3)
C20_7 C 0.7131(3) 0.1391(4) 0.5140(4)
H10_7 H 0.7543 0.1369 0.5193
C21_7 C 0.6218(4) 0.0387(3) 0.3109(3)
C22_7 C 0.6891(3) 0.1218(4) 0.4613(3)
H11_7 H 0.6099 0.0697 0.2860
H12_7 H 0.7140 0.1099 0.4303
C23_7 C 0.6218(3) 0.0472(3) 0.3728(3)
C24_7 C 0.6272(3) 0.1218(3) 0.4528(3)
C25_7 C 0.6412(5) 0.0011(4) 0.4085(4)
C26_7 C 0.5915(4) 0.1412(5) 0.4989(4)
H13_7 H 0.6411 0.0058 0.4497
H14_7 H 0.5503 0.1411 0.4942
C28_7 C 0.61577(12) 0.16038(12) 0.55124(13)
H16_7 H 0.5911 0.1741 0.5817
O16_4 O 0.13892(12) 0.17219(12) 0.29728(13)
O20_4 O 0.22143(12) 0.11845(12) 0.29474(13)
N2_7 N 0.44253(13) 0.05747(12) 0.94253(12)
C12_7 C 0.4102(3) 0.0853(3) 0.9898(3)
C13_7 C 0.3996(4) 0.1469(4) 0.9881(4)
H7_7 H 0.4137 0.1698 0.9564
C29_7 C 0.62692(12) 0.19018(13) 0.83146(12)
C31_7 C 0.58016(12) 0.15490(13) 0.85971(12)
C33_7 C 0.58021(12) 0.14357(13) 0.92226(12)
H17_7 H 0.6114 0.1578 0.9458
C35_7 C 0.5349(3) 0.1120(4) 0.9480(3)
H19_7 H 0.5350 0.1056 0.9890
C37_7 C 0.4898(3) 0.0898(3) 0.9147(3)
C38_7 C 0.4147(3) 0.0102(3) 0.9102(3)
C39_7 C 0.4881(4) 0.1004(4) 0.8531(4)
C40_7 C 0.3531(4) 0.0119(4) 0.8996(4)
H21_7 H 0.4564 0.0863 0.8302
H22_7 H 0.3302 0.0436 0.9137
C41_7 C 0.5334(4) 0.1317(4) 0.8271(4)
H23_7 H 0.5327 0.1376 0.7860
C15_7 C 0.6810(3) 0.8834(3) 0.2974(3)
C17_7 C 0.6596(3) 0.9406(3) 0.3218(3)
C19_7 C 0.6391(4) 0.9860(4) 0.2869(3)
H9_7 H 0.6369 0.9807 0.2457
C27_7 C 0.66038(12) 0.94876(13) 0.38423(12)
H15_7 H 0.6741 0.9183 0.4089
Zn12_4 Zn 0.22345(3) 0.83220(3) 0.75134(3)
O15_5 O 0.36108(12) 0.82781(12) 0.79728(13)
O19_5 O 0.27857(12) 0.88155(12) 0.79474(13)
C30_7 C 0.33146(12) 0.87308(12) 0.80982(13)
C32_7 C 0.35971(12) 0.91984(12) 0.84510(13)
C34_7 C 0.42226(12) 0.91979(12) 0.85643(13)
H18_7 H 0.4458 0.8886 0.8422
C36_7 C 0.4480(3) 0.9651(3) 0.8880(4)
H20_7 H 0.4890 0.9650 0.8944
C42_7 C 0.3271(4) 0.9666(4) 0.8683(4)
H24_7 H 0.2860 0.9673 0.8624
C29_8 C 0.16854(12) 0.12692(12) 0.30982(13)
C31_8 C 0.14029(12) 0.08016(12) 0.34510(13)
C33_8 C 0.07774(12) 0.08021(12) 0.35643(13)
H17_8 H 0.0542 0.1114 0.3422
C35_8 C 0.0520(3) 0.0349(3) 0.3880(4)
H19_8 H 0.0110 0.0350 0.3944
C41_8 C 0.1729(4) 0.0334(4) 0.3683(4)
H23_8 H 0.2140 0.0327 0.3624
N2_8 N 0.05747(12) 0.94253(13) 0.44253(12)
C12_8 C 0.0102(3) 0.9102(3) 0.4147(3)
C13_8 C 0.0119(4) 0.8996(4) 0.3531(4)
H7_8 H 0.0436 0.9137 0.3302
O15_6 O 0.20272(13) 0.86108(12) 0.67219(12)
O19_6 O 0.20526(13) 0.77857(12) 0.61845(12)
C30_8 C 0.19018(13) 0.83146(12) 0.62692(12)
C32_8 C 0.15490(13) 0.85971(12) 0.58016(12)
C34_8 C 0.14357(13) 0.92226(12) 0.58021(12)
H18_8 H 0.1578 0.9458 0.6114
C36_8 C 0.1120(4) 0.9480(3) 0.5349(3)
H20_8 H 0.1056 0.9890 0.5350
C37_8 C 0.0853(3) 0.9898(3) 0.4102(3)
C38_8 C 0.0898(3) 0.9147(3) 0.4898(3)
C39_8 C 0.1469(4) 0.9881(4) 0.3996(4)
C40_8 C 0.1004(4) 0.8531(4) 0.4881(4)
H21_8 H 0.1698 0.9564 0.4137
H22_8 H 0.0863 0.8302 0.4564
C42_8 C 0.1317(4) 0.8271(4) 0.5334(4)
H24_8 H 0.1376 0.7860 0.5327
C8_8 C 0.87308(12) 0.80982(13) 0.33146(12)
C9_8 C 0.91984(12) 0.84510(13) 0.35971(12)
C10_8 C 0.91979(12) 0.85643(13) 0.42226(12)
H5_8 H 0.8886 0.8422 0.4458
C11_8 C 0.9651(3) 0.8880(4) 0.4480(3)
H6_8 H 0.9650 0.8944 0.4890
C14_8 C 0.9666(4) 0.8683(4) 0.3271(4)
H8_8 H 0.9673 0.8624 0.2860
O1_8 O 0.24977(19) 0.74977(19) 0.75023(19)
O2_8 O 0.1519(3) 0.8354(3) 0.7980(4)
O3_8 O 0.1272(2) 0.7428(2) 0.8238(2)
C1_8 C 0.1166(3) 0.7974(3) 0.8190(3)
C2_8 C 0.0594(3) 0.8218(3) 0.8404(3)
C3_8 C 0.0140(4) 0.7869(3) 0.8609(4)
H1_8 H 0.0193 0.7457 0.8631
C7_8 C 0.05124(13) 0.88423(12) 0.83962(12)
H4_8 H 0.0817 0.9089 0.8259
C15_8 C 0.8190(3) 0.1166(3) 0.7974(3)
C17_8 C 0.8404(3) 0.0594(3) 0.8218(3)
C19_8 C 0.8609(4) 0.0140(4) 0.7869(3)
H9_8 H 0.8631 0.0193 0.7457
C27_8 C 0.83962(12) 0.05124(13) 0.88423(12)
H15_8 H 0.8259 0.0817 0.9089
C16_8 C 0.7974(3) 0.8190(3) 0.1166(3)
C18_8 C 0.8218(3) 0.8404(3) 0.0594(3)
C20_8 C 0.7869(3) 0.8609(4) 0.0140(4)
H10_8 H 0.7457 0.8631 0.0193
C28_8 C 0.88423(12) 0.83962(12) 0.05124(13)
H16_8 H 0.9089 0.8259 0.0817
N1_8 N 0.8988(3) 0.8988(3) 0.8988(3)
C4_8 C 0.9613(3) 0.8109(3) 0.8782(4)
H2_8 H 0.9303 0.7860 0.8901
C5_8 C 0.9528(3) 0.8728(3) 0.8782(3)
C6_8 C 0.9989(4) 0.9085(4) 0.8588(5)
H3_8 H 0.9942 0.9497 0.8589
C21_8 C 0.8782(4) 0.9613(3) 0.8109(3)
C22_8 C 0.8109(3) 0.8782(4) 0.9613(3)
H11_8 H 0.8901 0.9303 0.7860
H12_8 H 0.7860 0.8901 0.9303
C23_8 C 0.8782(3) 0.9528(3) 0.8728(3)
C24_8 C 0.8728(3) 0.8782(3) 0.9528(3)
C25_8 C 0.8588(5) 0.9989(4) 0.9085(4)
C26_8 C 0.9085(4) 0.8588(5) 0.9989(4)
H13_8 H 0.8589 0.9942 0.9497
H14_8 H 0.9497 0.8589 0.9942
loop_
_geom_bond_atom_site_label_1
_geom_bond_atom_site_label_2
_geom_bond_site_symmetry_1
_geom_bond_site_symmetry_2
O1 Zn1 1_555 1_555
Zn1 O3 1_555 1_555
Zn2 O1 1_555 1_555
O2 Zn2 1_555 1_555
O3 C1 1_555 1_555
C1 O2 1_555 1_555
C2 C1 1_555 1_555
C3 C2 1_555 1_555
H1 C3 1_555 1_555
C7 C2 1_555 1_555
H4 C7 1_555 1_555
O4 Zn2 1_555 1_555
O5 C8 1_555 1_555
C8 O4 1_555 1_555
C9 C8 1_555 1_555
C10 C9 1_555 1_555
H5 C10 1_555 1_555
C11 C10 1_555 1_555
H6 C11 1_555 1_555
C14 C9 1_555 1_555
H8 C14 1_555 1_555
Zn5 O1 1_555 1_555
Zn6 O1 1_555 1_555
O8 Zn5 1_555 1_555
O9 Zn6 1_555 1_555
O12 Zn1 1_555 1_555
O13 Zn1 1_555 1_555
O16 Zn5 1_555 1_555
O17 Zn6 1_555 1_555
O20 Zn2 1_555 1_555
O21 Zn5 1_555 1_555
O5 Zn6 1_555 1_555
N2 C12 1_555 1_555
C13 C12 1_555 1_555
H7 C13 1_555 1_555
Zn11 O15 1_555 1_555
Zn12 O19 1_555 1_555
O15 C30 1_555 1_555
O19 C30 1_555 1_555
C30 C32 1_555 1_555
C32 C34 1_555 1_555
C34 H18 1_555 1_555
C36 C34 1_555 1_555
H20 C36 1_555 1_555
C37 N2 1_555 1_555
C38 N2 1_555 1_555
C39 C37 1_555 1_555
C40 C38 1_555 1_555
H21 C39 1_555 1_555
H22 C40 1_555 1_555
C42 C32 1_555 1_555
H24 C42 1_555 1_555
C36 C38 1_555 1_555
C40 C42 1_555 1_555
N1 C5 1_555 1_555
H2 C4 1_555 1_555
C5 C4 1_555 1_555
C6 C5 1_555 1_555
H3 C6 1_555 1_555
Zn3 O10 1_555 1_555
Zn4 O11 1_555 1_555
Zn7 O6 1_555 1_555
Zn8 O7 1_555 1_555
O6 C15 1_555 1_555
O7 C16 1_555 1_555
O10 C15 1_555 1_555
O11 C16 1_555 1_555
C15 C17 1_555 1_555
C16 C18 1_555 1_555
C17 C19 1_555 1_555
C18 C20 1_555 1_555
C19 H9 1_555 1_555
C20 H10 1_555 1_555
C21 C19 1_555 1_555
C22 C20 1_555 1_555
H11 C21 1_555 1_555
H12 C22 1_555 1_555
C23 N1 1_555 1_555
C24 N1 1_555 1_555
C25 C23 1_555 1_555
C26 C24 1_555 1_555
H13 C25 1_555 1_555
H14 C26 1_555 1_555
C27 C17 1_555 1_555
C28 C18 1_555 1_555
H15 C27 1_555 1_555
H16 C28 1_555 1_555
C21 C23 1_555 1_555
C22 C24 1_555 1_555
C25 C27 1_555 1_555
C26 C28 1_555 1_555
Zn9 O14 1_555 1_555
Zn8 O18 1_555 1_555
O14 C29 1_555 1_555
O18 C29 1_555 1_555
C29 C31 1_555 1_555
C31 C33 1_555 1_555
C33 H17 1_555 1_555
C35 C33 1_555 1_555
H19 C35 1_555 1_555
C41 C31 1_555 1_555
H23 C41 1_555 1_555
Zn3 O11_2 1_555 1_555
Zn8_2 O7_2 1_555 1_555
O7_2 C16_2 1_555 1_555
O11_2 C16_2 1_555 1_555
C16_2 C18_2 1_555 1_555
C18_2 C20_2 1_555 1_555
C20_2 H10_2 1_555 1_555
C28_2 C18_2 1_555 1_555
H16_2 C28_2 1_555 1_555
O1_2 Zn1_2 1_555 1_555
Zn1_2 O3_2 1_555 1_555
Zn12 O1_2 1_555 1_555
O2_2 Zn12 1_555 1_555
O3_2 C1_2 1_555 1_555
N1_2 C5_2 1_555 1_555
C1_2 O2_2 1_555 1_555
C2_2 C1_2 1_555 1_555
C3_2 C2_2 1_555 1_555
H1_2 C3_2 1_555 1_555
C4_2 C3_2 1_555 1_555
H2_2 C4_2 1_555 1_555
C5_2 C4_2 1_555 1_555
C6_2 C5_2 1_555 1_555
H3_2 C6_2 1_555 1_555
C7_2 C2_2 1_555 1_555
H4_2 C7_2 1_555 1_555
O4_2 Zn12 1_555 1_555
O5_2 C8_2 1_555 1_555
N2_2 C12_2 1_555 1_555
C8_2 O4_2 1_555 1_555
C9_2 C8_2 1_555 1_555
C10_2 C9_2 1_555 1_555
H5_2 C10_2 1_555 1_555
C11_2 C10_2 1_555 1_555
H6_2 C11_2 1_555 1_555
C12_2 C11_2 1_555 1_555
C13_2 C12_2 1_555 1_555
H7_2 C13_2 1_555 1_555
C14_2 C9_2 1_555 1_555
H8_2 C14_2 1_555 1_555
Zn4 O10_2 1_555 1_555
Zn11 O1_2 1_555 1_555
Zn6_2 O1_2 1_555 1_555
Zn9 O6_2 1_555 1_555
Zn7 O14_2 1_555 1_555
Zn8_2 O18_2 1_555 1_555
O6_2 C15_2 1_555 1_555
O8_2 Zn11 1_555 1_555
O9_2 Zn6_2 1_555 1_555
O10_2 C15_2 1_555 1_555
O12_2 Zn1_2 1_555 1_555
O13_2 Zn1_2 1_555 1_555
C15_2 C17_2 1_555 1_555
C17_2 C19_2 1_555 1_555
C19_2 H9_2 1_555 1_555
C21_2 C19_2 1_555 1_555
H11_2 C21_2 1_555 1_555
H12_2 C22_2 1_555 1_555
C23_2 N1_2 1_555 1_555
C24_2 N1_2 1_555 1_555
C25_2 C23_2 1_555 1_555
C26_2 C24_2 1_555 1_555
H13_2 C25_2 1_555 1_555
H14_2 C26_2 1_555 1_555
C27_2 C17_2 1_555 1_555
H15_2 C27_2 1_555 1_555
O14_2 C29_2 1_555 1_555
O16 C30_2 1_555 1_555
O17_2 Zn6_2 1_555 1_555
O18_2 C29_2 1_555 1_555
O20 C30_2 1_555 1_555
O21_2 Zn11 1_555 1_555
C29_2 C31_2 1_555 1_555
C30_2 C32_2 1_555 1_555
C31_2 C33_2 1_555 1_555
C32_2 C34_2 1_555 1_555
C33_2 H17_2 1_555 1_555
C34_2 H18_2 1_555 1_555
C35_2 C33_2 1_555 1_555
C36_2 C34_2 1_555 1_555
H19_2 C35_2 1_555 1_555
H20_2 C36_2 1_555 1_555
C37_2 N2_2 1_555 1_555
C38_2 N2_2 1_555 1_555
C39_2 C37_2 1_555 1_555
C40_2 C38_2 1_555 1_555
H21_2 C39_2 1_555 1_555
H22_2 C40_2 1_555 1_555
C41_2 C31_2 1_555 1_555
C42_2 C32_2 1_555 1_555
H23_2 C41_2 1_555 1_555
H24_2 C42_2 1_555 1_555
C6_2 C7_2 1_555 1_555
O5_2 Zn6_2 1_555 1_555
C13_2 C14_2 1_555 1_555
C21_2 C23_2 1_555 1_555
C22_2 C24_2 1_555 1_555
C25_2 C27_2 1_555 1_555
C35_2 C37_2 1_555 1_555
C36_2 C38_2 1_555 1_555
C39_2 C41_2 1_555 1_555
C40_2 C42_2 1_555 1_555
Zn8_2 O15_2 1_555 1_555
Zn12_2 O19_2 1_555 1_555
O15_2 C30_3 1_555 1_555
O19_2 C30_3 1_555 1_555
C30_3 C32_3 1_555 1_555
C32_3 C34_3 1_555 1_555
C34_3 H18_3 1_555 1_555
C36_3 C34_3 1_555 1_555
H20_3 C36_3 1_555 1_555
C42_3 C32_3 1_555 1_555
H24_3 C42_3 1_555 1_555
O9_2 C15_3 1_555 1_555
O12_2 C15_3 1_555 1_555
C15_3 C17_3 1_555 1_555
C17_3 C19_3 1_555 1_555
C19_3 H9_3 1_555 1_555
C27_3 C17_3 1_555 1_555
H15_3 C27_3 1_555 1_555
N2_3 C12_3 1_555 1_555
C13_3 C12_3 1_555 1_555
H7_3 C13_3 1_555 1_555
O17 C29_3 1_555 1_555
O21 C29_3 1_555 1_555
C29_3 C31_3 1_555 1_555
C31_3 C33_3 1_555 1_555
C33_3 H17_3 1_555 1_555
C35_3 C33_3 1_555 1_555
H19_3 C35_3 1_555 1_555
C37_3 N2_3 1_555 1_555
C38_3 N2_3 1_555 1_555
C39_3 C37_3 1_555 1_555
C40_3 C38_3 1_555 1_555
H21_3 C39_3 1_555 1_555
H22_3 C40_3 1_555 1_555
C41_3 C31_3 1_555 1_555
H23_3 C41_3 1_555 1_555
C35_3 C37_3 1_555 1_555
C39_3 C41_3 1_555 1_555
O1_3 Zn4 1_555 1_555
Zn4 O3_3 1_555 1_555
Zn2_2 O1_3 1_555 1_555
O2_3 Zn2_2 1_555 1_555
O3_3 C1_3 1_555 1_555
N1_3 C5_3 1_555 1_555
C1_3 O2_3 1_555 1_555
C2_3 C1_3 1_555 1_555
C3_3 C2_3 1_555 1_555
H1_3 C3_3 1_555 1_555
C4_3 C3_3 1_555 1_555
H2_3 C4_3 1_555 1_555
C5_3 C4_3 1_555 1_555
C6_3 C5_3 1_555 1_555
H3_3 C6_3 1_555 1_555
C7_3 C2_3 1_555 1_555
H4_3 C7_3 1_555 1_555
O4_3 Zn2_2 1_555 1_555
O5_3 C8_3 1_555 1_555
C8_3 O4_3 1_555 1_555
C9_3 C8_3 1_555 1_555
C10_3 C9_3 1_555 1_555
H5_3 C10_3 1_555 1_555
C11_3 C10_3 1_555 1_555
H6_3 C11_3 1_555 1_555
C14_3 C9_3 1_555 1_555
H8_3 C14_3 1_555 1_555
Zn8 O1_3 1_555 1_555
Zn9 O1_3 1_555 1_555
O8 C16_3 1_555 1_555
O13 C16_3 1_555 1_555
C16_3 C18_3 1_555 1_555
C18_3 C20_3 1_555 1_555
C20_3 H10_3 1_555 1_555
C22_3 C20_3 1_555 1_555
H11_3 C21_3 1_555 1_555
H12_3 C22_3 1_555 1_555
C23_3 N1_3 1_555 1_555
C24_3 N1_3 1_555 1_555
C25_3 C23_3 1_555 1_555
C26_3 C24_3 1_555 1_555
H13_3 C25_3 1_555 1_555
H14_3 C26_3 1_555 1_555
C28_3 C18_3 1_555 1_555
H16_3 C28_3 1_555 1_555
O16_2 Zn8 1_555 1_555
O20_2 Zn2_2 1_555 1_555
C6_3 C7_3 1_555 1_555
O5_3 Zn9 1_555 1_555
C21_3 C23_3 1_555 1_555
C22_3 C24_3 1_555 1_555
C26_3 C28_3 1_555 1_555
O21_2 C8_4 1_555 1_555
C8_4 O17_2 1_555 1_555
C9_4 C8_4 1_555 1_555
C10_4 C9_4 1_555 1_555
H5_4 C10_4 1_555 1_555
C11_4 C10_4 1_555 1_555
H6_4 C11_4 1_555 1_555
C14_4 C9_4 1_555 1_555
H8_4 C14_4 1_555 1_555
N2_4 C12_4 1_555 1_555
C13_4 C12_4 1_555 1_555
H7_4 C13_4 1_555 1_555
Zn12_2 O15_3 1_555 1_555
Zn7 O19_3 1_555 1_555
O15_3 C30_4 1_555 1_555
O19_3 C30_4 1_555 1_555
C30_4 C32_4 1_555 1_555
C32_4 C34_4 1_555 1_555
C34_4 H18_4 1_555 1_555
C36_4 C34_4 1_555 1_555
H20_4 C36_4 1_555 1_555
C37_4 N2_4 1_555 1_555
C38_4 N2_4 1_555 1_555
C39_4 C37_4 1_555 1_555
C40_4 C38_4 1_555 1_555
H21_4 C39_4 1_555 1_555
H22_4 C40_4 1_555 1_555
C42_4 C32_4 1_555 1_555
H24_4 C42_4 1_555 1_555
C36_4 C38_4 1_555 1_555
C40_4 C42_4 1_555 1_555
O16_2 C29_4 1_555 1_555
O20_2 C29_4 1_555 1_555
C29_4 C31_4 1_555 1_555
C31_4 C33_4 1_555 1_555
C33_4 H17_4 1_555 1_555
C35_4 C33_4 1_555 1_555
H19_4 C35_4 1_555 1_555
C41_4 C31_4 1_555 1_555
H23_4 C41_4 1_555 1_555
N1_4 C5_4 1_555 1_555
H2_4 C4_4 1_555 1_555
C5_4 C4_4 1_555 1_555
C6_4 C5_4 1_555 1_555
H3_4 C6_4 1_555 1_555
H11_4 C21_4 1_555 1_555
H12_4 C22_4 1_555 1_555
C23_4 N1_4 1_555 1_555
C24_4 N1_4 1_555 1_555
C25_4 C23_4 1_555 1_555
C26_4 C24_4 1_555 1_555
H13_4 C25_4 1_555 1_555
H14_4 C26_4 1_555 1_555
C21_4 C23_4 1_555 1_555
C22_4 C24_4 1_555 1_555
O8_2 C16_4 1_555 1_555
O13_2 C16_4 1_555 1_555
C16_4 C18_4 1_555 1_555
C18_4 C20_4 1_555 1_555
C20_4 H10_4 1_555 1_555
C28_4 C18_4 1_555 1_555
H16_4 C28_4 1_555 1_555
O9 C15_4 1_555 1_555
O12 C15_4 1_555 1_555
C15_4 C17_4 1_555 1_555
C17_4 C19_4 1_555 1_555
C19_4 H9_4 1_555 1_555
C27_4 C17_4 1_555 1_555
H15_4 C27_4 1_555 1_555
O1_4 Zn3 1_555 1_555
Zn3 O3_4 1_555 1_555
Zn12_2 O1_4 1_555 1_555
O2_4 Zn12_2 1_555 1_555
O3_4 C1_4 1_555 1_555
C1_4 O2_4 1_555 1_555
C2_4 C1_4 1_555 1_555
C3_4 C2_4 1_555 1_555
H1_4 C3_4 1_555 1_555
C7_4 C2_4 1_555 1_555
H4_4 C7_4 1_555 1_555
Zn8_2 O1_4 1_555 1_555
Zn7 O1_4 1_555 1_555
Zn9_2 O14_3 1_555 1_555
Zn10 O18_3 1_555 1_555
O14_3 C29_5 1_555 1_555
O18_3 C29_5 1_555 1_555
C29_5 C31_5 1_555 1_555
C31_5 C33_5 1_555 1_555
C33_5 H17_5 1_555 1_555
C35_5 C33_5 1_555 1_555
H19_5 C35_5 1_555 1_555
C41_5 C31_5 1_555 1_555
H23_5 C41_5 1_555 1_555
N1_5 C5_5 1_555 1_555
H2_5 C4_5 1_555 1_555
C5_5 C4_5 1_555 1_555
C6_5 C5_5 1_555 1_555
H3_5 C6_5 1_555 1_555
Zn3_2 O10_3 1_555 1_555
Zn4_2 O11_3 1_555 1_555
Zn7_2 O6_3 1_555 1_555
Zn10 O7_3 1_555 1_555
O6_3 C15_5 1_555 1_555
O7_3 C16_5 1_555 1_555
O10_3 C15_5 1_555 1_555
O11_3 C16_5 1_555 1_555
C15_5 C17_5 1_555 1_555
C16_5 C18_5 1_555 1_555
C17_5 C19_5 1_555 1_555
C18_5 C20_5 1_555 1_555
C19_5 H9_5 1_555 1_555
C20_5 H10_5 1_555 1_555
C21_5 C19_5 1_555 1_555
C22_5 C20_5 1_555 1_555
H11_5 C21_5 1_555 1_555
H12_5 C22_5 1_555 1_555
C23_5 N1_5 1_555 1_555
C24_5 N1_5 1_555 1_555
C25_5 C23_5 1_555 1_555
C26_5 C24_5 1_555 1_555
H13_5 C25_5 1_555 1_555
H14_5 C26_5 1_555 1_555
C27_5 C17_5 1_555 1_555
C28_5 C18_5 1_555 1_555
H15_5 C27_5 1_555 1_555
H16_5 C28_5 1_555 1_555
C21_5 C23_5 1_555 1_555
C22_5 C24_5 1_555 1_555
C25_5 C27_5 1_555 1_555
C26_5 C28_5 1_555 1_555
N2_5 C12_5 1_555 1_555
C13_5 C12_5 1_555 1_555
H7_5 C13_5 1_555 1_555
Zn11_2 O15_4 1_555 1_555
Zn12_3 O19_4 1_555 1_555
O15_4 C30_5 1_555 1_555
O19_4 C30_5 1_555 1_555
C30_5 C32_5 1_555 1_555
C32_5 C34_5 1_555 1_555
C34_5 H18_5 1_555 1_555
C36_5 C34_5 1_555 1_555
H20_5 C36_5 1_555 1_555
C37_5 N2_5 1_555 1_555
C38_5 N2_5 1_555 1_555
C39_5 C37_5 1_555 1_555
C40_5 C38_5 1_555 1_555
H21_5 C39_5 1_555 1_555
H22_5 C40_5 1_555 1_555
C42_5 C32_5 1_555 1_555
H24_5 C42_5 1_555 1_555
C36_5 C38_5 1_555 1_555
C40_5 C42_5 1_555 1_555
O1_5 Zn1_3 1_555 1_555
Zn1_3 O3_5 1_555 1_555
Zn2_3 O1_5 1_555 1_555
O2_5 Zn2_3 1_555 1_555
O3_5 C1_5 1_555 1_555
C1_5 O2_5 1_555 1_555
C2_5 C1_5 1_555 1_555
C3_5 C2_5 1_555 1_555
H1_5 C3_5 1_555 1_555
C7_5 C2_5 1_555 1_555
H4_5 C7_5 1_555 1_555
O4_4 Zn2_3 1_555 1_555
O5_4 C8_5 1_555 1_555
C8_5 O4_4 1_555 1_555
C9_5 C8_5 1_555 1_555
C10_5 C9_5 1_555 1_555
H5_5 C10_5 1_555 1_555
C11_5 C10_5 1_555 1_555
H6_5 C11_5 1_555 1_555
C14_5 C9_5 1_555 1_555
H8_5 C14_5 1_555 1_555
Zn5_2 O1_5 1_555 1_555
Zn6_3 O1_5 1_555 1_555
O8_3 Zn5_2 1_555 1_555
O9_3 Zn6_3 1_555 1_555
O12_3 Zn1_3 1_555 1_555
O13_3 Zn1_3 1_555 1_555
O16_3 Zn5_2 1_555 1_555
O17_3 Zn6_3 1_555 1_555
O20_3 Zn2_3 1_555 1_555
O21_3 Zn5_2 1_555 1_555
O5_4 Zn6_3 1_555 1_555
O1_6 Zn1_4 1_555 1_555
Zn1_4 O3_6 1_555 1_555
Zn12_3 O1_6 1_555 1_555
O2_6 Zn12_3 1_555 1_555
O3_6 C1_6 1_555 1_555
N1_6 C5_6 1_555 1_555
C1_6 O2_6 1_555 1_555
C2_6 C1_6 1_555 1_555
C3_6 C2_6 1_555 1_555
H1_6 C3_6 1_555 1_555
C4_6 C3_6 1_555 1_555
H2_6 C4_6 1_555 1_555
C5_6 C4_6 1_555 1_555
C6_6 C5_6 1_555 1_555
H3_6 C6_6 1_555 1_555
C7_6 C2_6 1_555 1_555
H4_6 C7_6 1_555 1_555
O4_5 Zn12_3 1_555 1_555
O5_5 C8_6 1_555 1_555
N2_6 C12_6 1_555 1_555
C8_6 O4_5 1_555 1_555
C9_6 C8_6 1_555 1_555
C10_6 C9_6 1_555 1_555
H5_6 C10_6 1_555 1_555
C11_6 C10_6 1_555 1_555
H6_6 C11_6 1_555 1_555
C12_6 C11_6 1_555 1_555
C13_6 C12_6 1_555 1_555
H7_6 C13_6 1_555 1_555
C14_6 C9_6 1_555 1_555
H8_6 C14_6 1_555 1_555
Zn4_2 O10_4 1_555 1_555
Zn11_2 O1_6 1_555 1_555
Zn6_4 O1_6 1_555 1_555
Zn9_2 O6_4 1_555 1_555
Zn7_2 O14_4 1_555 1_555
Zn10_2 O18_4 1_555 1_555
O6_4 C15_6 1_555 1_555
O8_4 Zn11_2 1_555 1_555
O9_4 Zn6_4 1_555 1_555
O10_4 C15_6 1_555 1_555
O12_4 Zn1_4 1_555 1_555
O13_4 Zn1_4 1_555 1_555
C15_6 C17_6 1_555 1_555
C17_6 C19_6 1_555 1_555
C19_6 H9_6 1_555 1_555
C21_6 C19_6 1_555 1_555
H11_6 C21_6 1_555 1_555
H12_6 C22_6 1_555 1_555
C23_6 N1_6 1_555 1_555
C24_6 N1_6 1_555 1_555
C25_6 C23_6 1_555 1_555
C26_6 C24_6 1_555 1_555
H13_6 C25_6 1_555 1_555
H14_6 C26_6 1_555 1_555
C27_6 C17_6 1_555 1_555
H15_6 C27_6 1_555 1_555
O14_4 C29_6 1_555 1_555
O16_3 C30_6 1_555 1_555
O17_4 Zn6_4 1_555 1_555
O18_4 C29_6 1_555 1_555
O20_3 C30_6 1_555 1_555
O21_4 Zn11_2 1_555 1_555
C29_6 C31_6 1_555 1_555
C30_6 C32_6 1_555 1_555
C31_6 C33_6 1_555 1_555
C32_6 C34_6 1_555 1_555
C33_6 H17_6 1_555 1_555
C34_6 H18_6 1_555 1_555
C35_6 C33_6 1_555 1_555
C36_6 C34_6 1_555 1_555
H19_6 C35_6 1_555 1_555
H20_6 C36_6 1_555 1_555
C37_6 N2_6 1_555 1_555
C38_6 N2_6 1_555 1_555
C39_6 C37_6 1_555 1_555
C40_6 C38_6 1_555 1_555
H21_6 C39_6 1_555 1_555
H22_6 C40_6 1_555 1_555
C41_6 C31_6 1_555 1_555
C42_6 C32_6 1_555 1_555
H23_6 C41_6 1_555 1_555
H24_6 C42_6 1_555 1_555
C6_6 C7_6 1_555 1_555
O5_5 Zn6_4 1_555 1_555
C13_6 C14_6 1_555 1_555
C21_6 C23_6 1_555 1_555
C22_6 C24_6 1_555 1_555
C25_6 C27_6 1_555 1_555
C35_6 C37_6 1_555 1_555
C36_6 C38_6 1_555 1_555
C39_6 C41_6 1_555 1_555
C40_6 C42_6 1_555 1_555
Zn3_2 O11_4 1_555 1_555
Zn10_2 O7_4 1_555 1_555
O7_4 C16_6 1_555 1_555
O11_4 C16_6 1_555 1_555
C16_6 C18_6 1_555 1_555
C18_6 C20_6 1_555 1_555
C20_6 H10_6 1_555 1_555
C28_6 C18_6 1_555 1_555
H16_6 C28_6 1_555 1_555
O1_7 Zn4_2 1_555 1_555
Zn4_2 O3_7 1_555 1_555
Zn2_4 O1_7 1_555 1_555
O2_7 Zn2_4 1_555 1_555
O3_7 C1_7 1_555 1_555
N1_7 C5_7 1_555 1_555
C1_7 O2_7 1_555 1_555
C2_7 C1_7 1_555 1_555
C3_7 C2_7 1_555 1_555
H1_7 C3_7 1_555 1_555
C4_7 C3_7 1_555 1_555
H2_7 C4_7 1_555 1_555
C5_7 C4_7 1_555 1_555
C6_7 C5_7 1_555 1_555
H3_7 C6_7 1_555 1_555
C7_7 C2_7 1_555 1_555
H4_7 C7_7 1_555 1_555
O4_6 Zn2_4 1_555 1_555
O5_6 C8_7 1_555 1_555
C8_7 O4_6 1_555 1_555
C9_7 C8_7 1_555 1_555
C10_7 C9_7 1_555 1_555
H5_7 C10_7 1_555 1_555
C11_7 C10_7 1_555 1_555
H6_7 C11_7 1_555 1_555
C14_7 C9_7 1_555 1_555
H8_7 C14_7 1_555 1_555
Zn10 O1_7 1_555 1_555
Zn9_2 O1_7 1_555 1_555
O8_3 C16_7 1_555 1_555
O13_3 C16_7 1_555 1_555
C16_7 C18_7 1_555 1_555
C18_7 C20_7 1_555 1_555
C20_7 H10_7 1_555 1_555
C22_7 C20_7 1_555 1_555
H11_7 C21_7 1_555 1_555
H12_7 C22_7 1_555 1_555
C23_7 N1_7 1_555 1_555
C24_7 N1_7 1_555 1_555
C25_7 C23_7 1_555 1_555
C26_7 C24_7 1_555 1_555
H13_7 C25_7 1_555 1_555
H14_7 C26_7 1_555 1_555
C28_7 C18_7 1_555 1_555
H16_7 C28_7 1_555 1_555
O16_4 Zn10 1_555 1_555
O20_4 Zn2_4 1_555 1_555
C6_7 C7_7 1_555 1_555
O5_6 Zn9_2 1_555 1_555
C21_7 C23_7 1_555 1_555
C22_7 C24_7 1_555 1_555
C26_7 C28_7 1_555 1_555
N2_7 C12_7 1_555 1_555
C13_7 C12_7 1_555 1_555
H7_7 C13_7 1_555 1_555
O17_3 C29_7 1_555 1_555
O21_3 C29_7 1_555 1_555
C29_7 C31_7 1_555 1_555
C31_7 C33_7 1_555 1_555
C33_7 H17_7 1_555 1_555
C35_7 C33_7 1_555 1_555
H19_7 C35_7 1_555 1_555
C37_7 N2_7 1_555 1_555
C38_7 N2_7 1_555 1_555
C39_7 C37_7 1_555 1_555
C40_7 C38_7 1_555 1_555
H21_7 C39_7 1_555 1_555
H22_7 C40_7 1_555 1_555
C41_7 C31_7 1_555 1_555
H23_7 C41_7 1_555 1_555
C35_7 C37_7 1_555 1_555
C39_7 C41_7 1_555 1_555
O9_4 C15_7 1_555 1_555
O12_4 C15_7 1_555 1_555
C15_7 C17_7 1_555 1_555
C17_7 C19_7 1_555 1_555
C19_7 H9_7 1_555 1_555
C27_7 C17_7 1_555 1_555
H15_7 C27_7 1_555 1_555
Zn10_2 O15_5 1_555 1_555
Zn12_4 O19_5 1_555 1_555
O15_5 C30_7 1_555 1_555
O19_5 C30_7 1_555 1_555
C30_7 C32_7 1_555 1_555
C32_7 C34_7 1_555 1_555
C34_7 H18_7 1_555 1_555
C36_7 C34_7 1_555 1_555
H20_7 C36_7 1_555 1_555
C42_7 C32_7 1_555 1_555
H24_7 C42_7 1_555 1_555
O16_4 C29_8 1_555 1_555
O20_4 C29_8 1_555 1_555
C29_8 C31_8 1_555 1_555
C31_8 C33_8 1_555 1_555
C33_8 H17_8 1_555 1_555
C35_8 C33_8 1_555 1_555
H19_8 C35_8 1_555 1_555
C41_8 C31_8 1_555 1_555
H23_8 C41_8 1_555 1_555
N2_8 C12_8 1_555 1_555
C13_8 C12_8 1_555 1_555
H7_8 C13_8 1_555 1_555
Zn12_4 O15_6 1_555 1_555
Zn7_2 O19_6 1_555 1_555
O15_6 C30_8 1_555 1_555
O19_6 C30_8 1_555 1_555
C30_8 C32_8 1_555 1_555
C32_8 C34_8 1_555 1_555
C34_8 H18_8 1_555 1_555
C36_8 C34_8 1_555 1_555
H20_8 C36_8 1_555 1_555
C37_8 N2_8 1_555 1_555
C38_8 N2_8 1_555 1_555
C39_8 C37_8 1_555 1_555
C40_8 C38_8 1_555 1_555
H21_8 C39_8 1_555 1_555
H22_8 C40_8 1_555 1_555
C42_8 C32_8 1_555 1_555
H24_8 C42_8 1_555 1_555
C36_8 C38_8 1_555 1_555
C40_8 C42_8 1_555 1_555
O21_4 C8_8 1_555 1_555
C8_8 O17_4 1_555 1_555
C9_8 C8_8 1_555 1_555
C10_8 C9_8 1_555 1_555
H5_8 C10_8 1_555 1_555
C11_8 C10_8 1_555 1_555
H6_8 C11_8 1_555 1_555
C14_8 C9_8 1_555 1_555
H8_8 C14_8 1_555 1_555
O1_8 Zn3_2 1_555 1_555
Zn3_2 O3_8 1_555 1_555
Zn12_4 O1_8 1_555 1_555
O2_8 Zn12_4 1_555 1_555
O3_8 C1_8 1_555 1_555
C1_8 O2_8 1_555 1_555
C2_8 C1_8 1_555 1_555
C3_8 C2_8 1_555 1_555
H1_8 C3_8 1_555 1_555
C7_8 C2_8 1_555 1_555
H4_8 C7_8 1_555 1_555
Zn10_2 O1_8 1_555 1_555
Zn7_2 O1_8 1_555 1_555
O9_3 C15_8 1_555 1_555
O12_3 C15_8 1_555 1_555
C15_8 C17_8 1_555 1_555
C17_8 C19_8 1_555 1_555
C19_8 H9_8 1_555 1_555
C27_8 C17_8 1_555 1_555
H15_8 C27_8 1_555 1_555
O8_4 C16_8 1_555 1_555
O13_4 C16_8 1_555 1_555
C16_8 C18_8 1_555 1_555
C18_8 C20_8 1_555 1_555
C20_8 H10_8 1_555 1_555
C28_8 C18_8 1_555 1_555
H16_8 C28_8 1_555 1_555
N1_8 C5_8 1_555 1_555
H2_8 C4_8 1_555 1_555
C5_8 C4_8 1_555 1_555
C6_8 C5_8 1_555 1_555
H3_8 C6_8 1_555 1_555
H11_8 C21_8 1_555 1_555
H12_8 C22_8 1_555 1_555
C23_8 N1_8 1_555 1_555
C24_8 N1_8 1_555 1_555
C25_8 C23_8 1_555 1_555
C26_8 C24_8 1_555 1_555
H13_8 C25_8 1_555 1_555
H14_8 C26_8 1_555 1_555
C21_8 C23_8 1_555 1_555
C22_8 C24_8 1_555 1_555

#END
