
###############################################################################
#
# This file contains modified crystal structure data generated from the
# MOF subset of the Cambridge Structural Database (CSD) v543 
# hosted by the Cambridge Crystallographic Data Centre (CCDC).
#
# This work is licensed under the Creative Commons
# Attribution-NonCommercial-ShareAlike 4.0 International License.
# To view a copy of this license, visit
# http://creativecommons.org/licenses/by-nc-sa/4.0/
# or send a letter to
# Creative Commons, PO Box 1866, Mountain View, CA 94042, USA.
#
# CIF created using the CSD Python API on 29 September 2022
# The structure has been converted into the P1 space group
# The structure has a 3D framework
# The original CSD entry NAPFUG01 is in the cubic crystal system
# The original CSD entry NAPFUG01 is in a Sohncke space group
# The framework has been calculated to contain at least 10.0% void space
# The void calculation uses a probe of radius 1.32A, grid spacing 0.4
#
###############################################################################

data_NAPFUG01
_chemical_formula_moiety         '(C168 H96 N8 O52 Zn16)n'
_symmetry_cell_setting           triclinic
_symmetry_space_group_name_H-M   'P 1'
_symmetry_Int_Tables_number      1
_space_group_name_Hall           'P 1'
loop_
_symmetry_equiv_pos_site_id
_symmetry_equiv_pos_as_xyz
1 x,y,z
_cell_length_a                   22.4945
_cell_length_b                   22.4945
_cell_length_c                   22.4945
_cell_angle_alpha                90
_cell_angle_beta                 90
_cell_angle_gamma                90
_cell_volume                     11382.3
loop_
_atom_site_label
_atom_site_type_symbol
_atom_site_fract_x
_atom_site_fract_y
_atom_site_fract_z
_atom_site_U_iso_or_equiv
_atom_site_thermal_displace_type
O10 O 0.17219 0.29728 0.13892 0.0000 Uiso
O11 O 0.11845 0.29474 0.22143 0.0000 Uiso
C29 C 0.12692 0.30982 0.16854 0.0000 Uiso
C30 C 0.08016 0.34510 0.14029 0.0000 Uiso
C31 C 0.08021 0.35643 0.07774 0.0000 Uiso
H17 H 0.11140 0.34220 0.05420 0.0000 Uiso
C32 C 0.03490 0.38800 0.05200 0.0000 Uiso
H18 H 0.03500 0.39440 0.01100 0.0000 Uiso
C33 C 0.03340 0.36830 0.17290 0.0000 Uiso
H19 H 0.03270 0.36240 0.21400 0.0000 Uiso
Zn7 Zn 0.25134 0.27655 0.16780 0.0000 Uiso
Zn10 Zn 0.16780 0.25134 0.27655 0.0000 Uiso
C4 C 0.03870 0.31090 0.62180 0.0000 Uiso
H2 H 0.06970 0.28600 0.60990 0.0000 Uiso
C5 C 0.04720 0.37280 0.62180 0.0000 Uiso
C6 C 0.00110 0.40850 0.64120 0.0000 Uiso
H3 H 0.00580 0.44970 0.64110 0.0000 Uiso
N1 N 0.10120 0.39880 0.60120 0.0000 Uiso
O6 O 0.20200 0.65190 0.66460 0.0000 Uiso
O7 O 0.17620 0.62720 0.75720 0.0000 Uiso
C15 C 0.18100 0.61660 0.70260 0.0000 Uiso
C16 C 0.15960 0.55940 0.67820 0.0000 Uiso
C17 C 0.13910 0.51400 0.71310 0.0000 Uiso
H9 H 0.13690 0.51930 0.75430 0.0000 Uiso
C18 C 0.16038 0.55124 0.61577 0.0000 Uiso
H10 H 0.17410 0.58170 0.59110 0.0000 Uiso
C19 C 0.12180 0.46130 0.68910 0.0000 Uiso
H11 H 0.10990 0.43030 0.71400 0.0000 Uiso
C20 C 0.12180 0.45280 0.62720 0.0000 Uiso
C21 C 0.14120 0.49890 0.59150 0.0000 Uiso
H12 H 0.14110 0.49420 0.55030 0.0000 Uiso
O8 O 0.16460 0.29800 0.34810 0.0000 Uiso
O9 O 0.25720 0.32380 0.37280 0.0000 Uiso
C22 C 0.20260 0.31900 0.38340 0.0000 Uiso
C23 C 0.17820 0.34040 0.44060 0.0000 Uiso
C24 C 0.21310 0.36090 0.48600 0.0000 Uiso
H13 H 0.25430 0.36310 0.48070 0.0000 Uiso
C25 C 0.11577 0.33962 0.44876 0.0000 Uiso
H14 H 0.09110 0.32590 0.41830 0.0000 Uiso
C26 C 0.18910 0.37820 0.53870 0.0000 Uiso
H15 H 0.21400 0.39010 0.56970 0.0000 Uiso
C27 C 0.12720 0.37820 0.54720 0.0000 Uiso
C28 C 0.09150 0.35880 0.50110 0.0000 Uiso
H16 H 0.05030 0.35890 0.50580 0.0000 Uiso
Zn3 Zn 0.24866 0.72345 0.66780 0.0000 Uiso
O16 O 0.32781 0.70272 0.63892 0.0000 Uiso
O17 O 0.13892 0.17219 0.29728 0.0000 Uiso
O18 O 0.20526 0.77857 0.61845 0.0000 Uiso
O21 O 0.24977 0.74977 0.75023 0.0000 Uiso
O22 O 0.25023 0.25023 0.25023 0.0000 Uiso
Zn11 Zn 0.19954 0.69954 0.80046 0.0000 Uiso
Zn12 Zn 0.30046 0.30046 0.30046 0.0000 Uiso
C12 C 0.91020 0.41470 0.01020 0.0000 Uiso
C13 C 0.89960 0.35310 0.01190 0.0000 Uiso
H7 H 0.91370 0.33020 0.04360 0.0000 Uiso
N2 N 0.94253 0.44253 0.05747 0.0000 Uiso
C34 C 0.98980 0.41020 0.08530 0.0000 Uiso
C35 C 0.98810 0.39960 0.14690 0.0000 Uiso
H20 H 0.95640 0.41370 0.16980 0.0000 Uiso
O12 O 0.86108 0.67219 0.20272 0.0000 Uiso
O13 O 0.77857 0.61845 0.20526 0.0000 Uiso
C36 C 0.83146 0.62692 0.19018 0.0000 Uiso
C37 C 0.85971 0.58016 0.15490 0.0000 Uiso
C38 C 0.92226 0.58021 0.14357 0.0000 Uiso
H21 H 0.94580 0.61140 0.15780 0.0000 Uiso
C39 C 0.94800 0.53490 0.11200 0.0000 Uiso
H22 H 0.98900 0.53500 0.10560 0.0000 Uiso
C40 C 0.82710 0.53340 0.13170 0.0000 Uiso
H23 H 0.78600 0.53270 0.13760 0.0000 Uiso
C41 C 0.91470 0.48980 0.08980 0.0000 Uiso
C42 C 0.85310 0.48810 0.10040 0.0000 Uiso
H24 H 0.83020 0.45640 0.08630 0.0000 Uiso
Zn5 Zn 0.72345 0.66780 0.24866 0.0000 Uiso
Zn9 Zn 0.83220 0.75134 0.22345 0.0000 Uiso
Zn1 Zn 0.77655 0.33220 0.74866 0.0000 Uiso
O1 O 0.84810 0.33540 0.70200 0.0000 Uiso
O2 O 0.87280 0.24280 0.67620 0.0000 Uiso
C1 C 0.88340 0.29740 0.68100 0.0000 Uiso
C2 C 0.94060 0.32180 0.65960 0.0000 Uiso
C3 C 0.98600 0.28690 0.63910 0.0000 Uiso
H1 H 0.98070 0.24570 0.63690 0.0000 Uiso
C7 C 0.94876 0.38423 0.66038 0.0000 Uiso
H4 H 0.91830 0.40890 0.67410 0.0000 Uiso
O3 O 0.79728 0.36108 0.82781 0.0000 Uiso
O4 O 0.79474 0.27857 0.88155 0.0000 Uiso
C8 C 0.80982 0.33146 0.87308 0.0000 Uiso
C9 C 0.84510 0.35971 0.91984 0.0000 Uiso
C10 C 0.85643 0.42226 0.91979 0.0000 Uiso
H5 H 0.84220 0.44580 0.88860 0.0000 Uiso
C11 C 0.88800 0.44800 0.96510 0.0000 Uiso
H6 H 0.89440 0.48900 0.96500 0.0000 Uiso
C14 C 0.86830 0.32710 0.96660 0.0000 Uiso
H8 H 0.86240 0.28600 0.96730 0.0000 Uiso
O5 O 0.75023 0.24977 0.74977 0.0000 Uiso
Zn2 Zn 0.80046 0.19954 0.69954 0.0000 Uiso
Zn6 Zn 0.75134 0.22345 0.83220 0.0000 Uiso
Zn8 Zn 0.66780 0.24866 0.72345 0.0000 Uiso
O14 O 0.82380 0.12720 0.74280 0.0000 Uiso
O15 O 0.75720 0.17620 0.62720 0.0000 Uiso
O20 O 0.72143 0.38155 0.70526 0.0000 Uiso
O1_2 O 0.65190 0.66460 0.20200 0.0000 Uiso
O2_2 O 0.62720 0.75720 0.17620 0.0000 Uiso
C1_2 C 0.61660 0.70260 0.18100 0.0000 Uiso
C2_2 C 0.55940 0.67820 0.15960 0.0000 Uiso
C3_2 C 0.51400 0.71310 0.13910 0.0000 Uiso
H1_2 H 0.51930 0.75430 0.13690 0.0000 Uiso
C4_2 C 0.46130 0.68910 0.12180 0.0000 Uiso
H2_2 H 0.43030 0.71400 0.10990 0.0000 Uiso
C5_2 C 0.45280 0.62720 0.12180 0.0000 Uiso
C6_2 C 0.49890 0.59150 0.14120 0.0000 Uiso
H3_2 H 0.49420 0.55030 0.14110 0.0000 Uiso
C7_2 C 0.55124 0.61577 0.16038 0.0000 Uiso
H4_2 H 0.58170 0.59110 0.17410 0.0000 Uiso
O3_2 O 0.70272 0.63892 0.32781 0.0000 Uiso
O4_2 O 0.70526 0.72143 0.38155 0.0000 Uiso
C8_2 C 0.69018 0.66854 0.37308 0.0000 Uiso
C9_2 C 0.65490 0.64029 0.41984 0.0000 Uiso
C10_2 C 0.64357 0.57774 0.41979 0.0000 Uiso
H5_2 H 0.65780 0.55420 0.38860 0.0000 Uiso
C11_2 C 0.61200 0.55200 0.46510 0.0000 Uiso
H6_2 H 0.60560 0.51100 0.46500 0.0000 Uiso
C12_2 C 0.58980 0.58530 0.51020 0.0000 Uiso
C13_2 C 0.60040 0.64690 0.51190 0.0000 Uiso
H7_2 H 0.58630 0.66980 0.54360 0.0000 Uiso
C14_2 C 0.63170 0.67290 0.46660 0.0000 Uiso
H8_2 H 0.63760 0.71400 0.46730 0.0000 Uiso
O5_2 O 0.74977 0.75023 0.24977 0.0000 Uiso
Zn2_2 Zn 0.69954 0.80046 0.19954 0.0000 Uiso
N1_2 N 0.39880 0.60120 0.10120 0.0000 Uiso
N2_2 N 0.55747 0.55747 0.55747 0.0000 Uiso
O6_2 O 0.29800 0.34810 0.16460 0.0000 Uiso
O7_2 O 0.32380 0.37280 0.25720 0.0000 Uiso
C15_2 C 0.31900 0.38340 0.20260 0.0000 Uiso
C16_2 C 0.34040 0.44060 0.17820 0.0000 Uiso
C17_2 C 0.36090 0.48600 0.21310 0.0000 Uiso
H9_2 H 0.36310 0.48070 0.25430 0.0000 Uiso
C18_2 C 0.33962 0.44876 0.11577 0.0000 Uiso
H10_2 H 0.32590 0.41830 0.09110 0.0000 Uiso
C19_2 C 0.37820 0.53870 0.18910 0.0000 Uiso
H11_2 H 0.39010 0.56970 0.21400 0.0000 Uiso
C20_2 C 0.37820 0.54720 0.12720 0.0000 Uiso
C21_2 C 0.35880 0.50110 0.09150 0.0000 Uiso
H12_2 H 0.35890 0.50580 0.05030 0.0000 Uiso
C26_2 C 0.31090 0.62180 0.03870 0.0000 Uiso
H15_2 H 0.28600 0.60990 0.06970 0.0000 Uiso
C27_2 C 0.37280 0.62180 0.04720 0.0000 Uiso
C28_2 C 0.40850 0.64120 0.00110 0.0000 Uiso
H16_2 H 0.44970 0.64110 0.00580 0.0000 Uiso
O11_2 O 0.38155 0.70526 0.72143 0.0000 Uiso
C29_2 C 0.37308 0.69018 0.66854 0.0000 Uiso
C30_2 C 0.41984 0.65490 0.64029 0.0000 Uiso
C31_2 C 0.41979 0.64357 0.57774 0.0000 Uiso
H17_2 H 0.38860 0.65780 0.55420 0.0000 Uiso
C32_2 C 0.46510 0.61200 0.55200 0.0000 Uiso
H18_2 H 0.46500 0.60560 0.51100 0.0000 Uiso
C33_2 C 0.46660 0.63170 0.67290 0.0000 Uiso
H19_2 H 0.46730 0.63760 0.71400 0.0000 Uiso
C34_2 C 0.51020 0.58980 0.58530 0.0000 Uiso
C35_2 C 0.51190 0.60040 0.64690 0.0000 Uiso
H20_2 H 0.54360 0.58630 0.66980 0.0000 Uiso
O12_2 O 0.63892 0.32781 0.70272 0.0000 Uiso
C36_2 C 0.66854 0.37308 0.69018 0.0000 Uiso
C37_2 C 0.64029 0.41984 0.65490 0.0000 Uiso
C38_2 C 0.57774 0.41979 0.64357 0.0000 Uiso
H21_2 H 0.55420 0.38860 0.65780 0.0000 Uiso
C39_2 C 0.55200 0.46510 0.61200 0.0000 Uiso
H22_2 H 0.51100 0.46500 0.60560 0.0000 Uiso
C40_2 C 0.67290 0.46660 0.63170 0.0000 Uiso
H23_2 H 0.71400 0.46730 0.63760 0.0000 Uiso
C41_2 C 0.58530 0.51020 0.58980 0.0000 Uiso
C42_2 C 0.64690 0.51190 0.60040 0.0000 Uiso
H24_2 H 0.66980 0.54360 0.58630 0.0000 Uiso
Zn6_2 Zn 0.74866 0.77655 0.33220 0.0000 Uiso
Zn10_2 Zn 0.33220 0.74866 0.77655 0.0000 Uiso
O14_2 O 0.67620 0.87280 0.24280 0.0000 Uiso
O15_2 O 0.74280 0.82380 0.12720 0.0000 Uiso
O18_2 O 0.29474 0.22143 0.11845 0.0000 Uiso
O8_2 O 0.33540 0.70200 0.84810 0.0000 Uiso
O9_2 O 0.24280 0.67620 0.87280 0.0000 Uiso
C22_2 C 0.29740 0.68100 0.88340 0.0000 Uiso
C23_2 C 0.32180 0.65960 0.94060 0.0000 Uiso
C24_2 C 0.28690 0.63910 0.98600 0.0000 Uiso
H13_2 H 0.24570 0.63690 0.98070 0.0000 Uiso
C25_2 C 0.38423 0.66038 0.94876 0.0000 Uiso
H14_2 H 0.40890 0.67410 0.91830 0.0000 Uiso
O17_2 O 0.36108 0.82781 0.79728 0.0000 Uiso
O13_2 O 0.22143 0.11845 0.29474 0.0000 Uiso
C36_3 C 0.16854 0.12692 0.30982 0.0000 Uiso
C37_3 C 0.14029 0.08016 0.34510 0.0000 Uiso
C38_3 C 0.07774 0.08021 0.35643 0.0000 Uiso
H21_3 H 0.05420 0.11140 0.34220 0.0000 Uiso
C39_3 C 0.05200 0.03490 0.38800 0.0000 Uiso
H22_3 H 0.01100 0.03500 0.39440 0.0000 Uiso
C40_3 C 0.17290 0.03340 0.36830 0.0000 Uiso
H23_3 H 0.21400 0.03270 0.36240 0.0000 Uiso
Zn5_2 Zn 0.27655 0.16780 0.25134 0.0000 Uiso
Zn1_2 Zn 0.22345 0.83220 0.75134 0.0000 Uiso
O1_3 O 0.15190 0.83540 0.79800 0.0000 Uiso
O2_3 O 0.12720 0.74280 0.82380 0.0000 Uiso
C1_3 C 0.11660 0.79740 0.81900 0.0000 Uiso
C2_3 C 0.05940 0.82180 0.84040 0.0000 Uiso
C3_3 C 0.01400 0.78690 0.86090 0.0000 Uiso
H1_3 H 0.01930 0.74570 0.86310 0.0000 Uiso
C7_3 C 0.05124 0.88423 0.83962 0.0000 Uiso
H4_3 H 0.08170 0.90890 0.82590 0.0000 Uiso
O3_3 O 0.20272 0.86108 0.67219 0.0000 Uiso
C8_3 C 0.19018 0.83146 0.62692 0.0000 Uiso
C9_3 C 0.15490 0.85971 0.58016 0.0000 Uiso
C10_3 C 0.14357 0.92226 0.58021 0.0000 Uiso
H5_3 H 0.15780 0.94580 0.61140 0.0000 Uiso
C11_3 C 0.11200 0.94800 0.53490 0.0000 Uiso
H6_3 H 0.10560 0.98900 0.53500 0.0000 Uiso
C12_3 C 0.08980 0.91470 0.48980 0.0000 Uiso
C13_3 C 0.10040 0.85310 0.48810 0.0000 Uiso
H7_3 H 0.08630 0.83020 0.45640 0.0000 Uiso
C14_3 C 0.13170 0.82710 0.53340 0.0000 Uiso
H8_3 H 0.13760 0.78600 0.53270 0.0000 Uiso
N2_3 N 0.05747 0.94253 0.44253 0.0000 Uiso
C34_3 C 0.01020 0.91020 0.41470 0.0000 Uiso
C35_3 C 0.01190 0.89960 0.35310 0.0000 Uiso
H20_3 H 0.04360 0.91370 0.33020 0.0000 Uiso
C41_3 C 0.08530 0.98980 0.41020 0.0000 Uiso
C42_3 C 0.14690 0.98810 0.39960 0.0000 Uiso
H24_3 H 0.16980 0.95640 0.41370 0.0000 Uiso
O20_2 O 0.27857 0.88155 0.79474 0.0000 Uiso
O6_3 O 0.79800 0.15190 0.83540 0.0000 Uiso
C15_3 C 0.81900 0.11660 0.79740 0.0000 Uiso
C16_3 C 0.84040 0.05940 0.82180 0.0000 Uiso
C17_3 C 0.86090 0.01400 0.78690 0.0000 Uiso
H9_3 H 0.86310 0.01930 0.74570 0.0000 Uiso
C18_3 C 0.83962 0.05124 0.88423 0.0000 Uiso
H10_3 H 0.82590 0.08170 0.90890 0.0000 Uiso
O16_2 O 0.67219 0.20272 0.86108 0.0000 Uiso
O8_3 O 0.83540 0.79800 0.15190 0.0000 Uiso
C22_3 C 0.79740 0.81900 0.11660 0.0000 Uiso
C23_3 C 0.82180 0.84040 0.05940 0.0000 Uiso
C24_3 C 0.78690 0.86090 0.01400 0.0000 Uiso
H13_3 H 0.74570 0.86310 0.01930 0.0000 Uiso
C25_3 C 0.88423 0.83962 0.05124 0.0000 Uiso
H14_3 H 0.90890 0.82590 0.08170 0.0000 Uiso
O19 O 0.88155 0.79474 0.27857 0.0000 Uiso
C4_3 C 0.96130 0.81090 0.87820 0.0000 Uiso
H2_3 H 0.93030 0.78600 0.89010 0.0000 Uiso
C5_3 C 0.95280 0.87280 0.87820 0.0000 Uiso
C6_3 C 0.99890 0.90850 0.85880 0.0000 Uiso
H3_3 H 0.99420 0.94970 0.85890 0.0000 Uiso
N1_3 N 0.89880 0.89880 0.89880 0.0000 Uiso
C19_3 C 0.87820 0.96130 0.81090 0.0000 Uiso
H11_3 H 0.89010 0.93030 0.78600 0.0000 Uiso
C20_3 C 0.87820 0.95280 0.87280 0.0000 Uiso
C21_3 C 0.85880 0.99890 0.90850 0.0000 Uiso
H12_3 H 0.85890 0.99420 0.94970 0.0000 Uiso
C26_3 C 0.81090 0.87820 0.96130 0.0000 Uiso
H15_3 H 0.78600 0.89010 0.93030 0.0000 Uiso
C27_3 C 0.87280 0.87820 0.95280 0.0000 Uiso
C28_3 C 0.90850 0.85880 0.99890 0.0000 Uiso
H16_3 H 0.94970 0.85890 0.99420 0.0000 Uiso
O10_2 O 0.82781 0.79728 0.36108 0.0000 Uiso
C29_3 C 0.87308 0.80982 0.33146 0.0000 Uiso
C30_3 C 0.91984 0.84510 0.35971 0.0000 Uiso
C31_3 C 0.91979 0.85643 0.42226 0.0000 Uiso
H17_3 H 0.88860 0.84220 0.44580 0.0000 Uiso
C32_3 C 0.96510 0.88800 0.44800 0.0000 Uiso
H18_3 H 0.96500 0.89440 0.48900 0.0000 Uiso
C33_3 C 0.96660 0.86830 0.32710 0.0000 Uiso
H19_3 H 0.96730 0.86240 0.28600 0.0000 Uiso
O1_4 O 0.34810 0.16460 0.29800 0.0000 Uiso
O2_4 O 0.37280 0.25720 0.32380 0.0000 Uiso
C1_4 C 0.38340 0.20260 0.31900 0.0000 Uiso
C2_4 C 0.44060 0.17820 0.34040 0.0000 Uiso
C3_4 C 0.48600 0.21310 0.36090 0.0000 Uiso
H1_4 H 0.48070 0.25430 0.36310 0.0000 Uiso
C4_4 C 0.53870 0.18910 0.37820 0.0000 Uiso
H2_4 H 0.56970 0.21400 0.39010 0.0000 Uiso
C5_4 C 0.54720 0.12720 0.37820 0.0000 Uiso
C6_4 C 0.50110 0.09150 0.35880 0.0000 Uiso
H3_4 H 0.50580 0.05030 0.35890 0.0000 Uiso
C7_4 C 0.44876 0.11577 0.33962 0.0000 Uiso
H4_4 H 0.41830 0.09110 0.32590 0.0000 Uiso
O3_4 O 0.29728 0.13892 0.17219 0.0000 Uiso
C8_4 C 0.30982 0.16854 0.12692 0.0000 Uiso
C9_4 C 0.34510 0.14029 0.08016 0.0000 Uiso
C10_4 C 0.35643 0.07774 0.08021 0.0000 Uiso
H5_4 H 0.34220 0.05420 0.11140 0.0000 Uiso
C11_4 C 0.38800 0.05200 0.03490 0.0000 Uiso
H6_4 H 0.39440 0.01100 0.03500 0.0000 Uiso
C14_4 C 0.36830 0.17290 0.03340 0.0000 Uiso
H8_4 H 0.36240 0.21400 0.03270 0.0000 Uiso
N1_4 N 0.60120 0.10120 0.39880 0.0000 Uiso
C19_4 C 0.62180 0.03870 0.31090 0.0000 Uiso
H11_4 H 0.60990 0.06970 0.28600 0.0000 Uiso
C20_4 C 0.62180 0.04720 0.37280 0.0000 Uiso
C21_4 C 0.64120 0.00110 0.40850 0.0000 Uiso
H12_4 H 0.64110 0.00580 0.44970 0.0000 Uiso
O8_4 O 0.66460 0.20200 0.65190 0.0000 Uiso
C22_4 C 0.70260 0.18100 0.61660 0.0000 Uiso
C23_4 C 0.67820 0.15960 0.55940 0.0000 Uiso
C24_4 C 0.71310 0.13910 0.51400 0.0000 Uiso
H13_4 H 0.75430 0.13690 0.51930 0.0000 Uiso
C25_4 C 0.61577 0.16038 0.55124 0.0000 Uiso
H14_4 H 0.59110 0.17410 0.58170 0.0000 Uiso
C26_4 C 0.68910 0.12180 0.46130 0.0000 Uiso
H15_4 H 0.71400 0.10990 0.43030 0.0000 Uiso
C27_4 C 0.62720 0.12180 0.45280 0.0000 Uiso
C28_4 C 0.59150 0.14120 0.49890 0.0000 Uiso
H16_4 H 0.55030 0.14110 0.49420 0.0000 Uiso
O19_2 O 0.61845 0.20526 0.77857 0.0000 Uiso
C12_4 C 0.41020 0.08530 0.98980 0.0000 Uiso
C13_4 C 0.39960 0.14690 0.98810 0.0000 Uiso
H7_4 H 0.41370 0.16980 0.95640 0.0000 Uiso
N2_4 N 0.44253 0.05747 0.94253 0.0000 Uiso
C29_4 C 0.62692 0.19018 0.83146 0.0000 Uiso
C30_4 C 0.58016 0.15490 0.85971 0.0000 Uiso
C31_4 C 0.58021 0.14357 0.92226 0.0000 Uiso
H17_4 H 0.61140 0.15780 0.94580 0.0000 Uiso
C32_4 C 0.53490 0.11200 0.94800 0.0000 Uiso
H18_4 H 0.53500 0.10560 0.98900 0.0000 Uiso
C33_4 C 0.53340 0.13170 0.82710 0.0000 Uiso
H19_4 H 0.53270 0.13760 0.78600 0.0000 Uiso
C34_4 C 0.48980 0.08980 0.91470 0.0000 Uiso
C35_4 C 0.48810 0.10040 0.85310 0.0000 Uiso
H20_4 H 0.45640 0.08630 0.83020 0.0000 Uiso
C41_4 C 0.41470 0.01020 0.91020 0.0000 Uiso
C42_4 C 0.35310 0.01190 0.89960 0.0000 Uiso
H24_4 H 0.33020 0.04360 0.91370 0.0000 Uiso
O6_4 O 0.70200 0.84810 0.33540 0.0000 Uiso
C15_4 C 0.68100 0.88340 0.29740 0.0000 Uiso
C16_4 C 0.65960 0.94060 0.32180 0.0000 Uiso
C17_4 C 0.63910 0.98600 0.28690 0.0000 Uiso
H9_4 H 0.63690 0.98070 0.24570 0.0000 Uiso
C18_4 C 0.66038 0.94876 0.38423 0.0000 Uiso
H10_4 H 0.67410 0.91830 0.40890 0.0000 Uiso
C36_4 C 0.33146 0.87308 0.80982 0.0000 Uiso
C37_4 C 0.35971 0.91984 0.84510 0.0000 Uiso
C38_4 C 0.42226 0.91979 0.85643 0.0000 Uiso
H21_4 H 0.44580 0.88860 0.84220 0.0000 Uiso
C39_4 C 0.44800 0.96510 0.88800 0.0000 Uiso
H22_4 H 0.48900 0.96500 0.89440 0.0000 Uiso
C40_4 C 0.32710 0.96660 0.86830 0.0000 Uiso
H23_4 H 0.28600 0.96730 0.86240 0.0000 Uiso
loop_
_geom_bond_atom_site_label_1
_geom_bond_atom_site_label_2
_geom_bond_site_symmetry_1
_geom_bond_site_symmetry_2
O10 C29 1_555 1_555
O11 C29 1_555 1_555
C29 C30 1_555 1_555
C30 C31 1_555 1_555
C31 H17 1_555 1_555
C32 C31 1_555 1_555
H18 C32 1_555 1_555
C33 C30 1_555 1_555
H19 C33 1_555 1_555
Zn7 O10 1_555 1_555
Zn10 O11 1_555 1_555
H2 C4 1_555 1_555
C5 C4 1_555 1_555
C6 C5 1_555 1_555
H3 C6 1_555 1_555
N1 C5 1_555 1_555
O6 C15 1_555 1_555
O7 C15 1_555 1_555
C15 C16 1_555 1_555
C16 C17 1_555 1_555
C17 H9 1_555 1_555
C18 C16 1_555 1_555
H10 C18 1_555 1_555
C19 C17 1_555 1_555
H11 C19 1_555 1_555
C20 N1 1_555 1_555
C21 C18 1_555 1_555
H12 C21 1_555 1_555
O8 C22 1_555 1_555
O9 C22 1_555 1_555
C22 C23 1_555 1_555
C23 C24 1_555 1_555
C24 H13 1_555 1_555
C25 C23 1_555 1_555
H14 C25 1_555 1_555
C26 C24 1_555 1_555
H15 C26 1_555 1_555
C27 N1 1_555 1_555
C28 C25 1_555 1_555
H16 C28 1_555 1_555
Zn3 O6 1_555 1_555
Zn10 O8 1_555 1_555
O16 Zn3 1_555 1_555
O17 Zn10 1_555 1_555
O18 Zn3 1_555 1_555
O21 Zn3 1_555 1_555
O22 Zn10 1_555 1_555
Zn11 O7 1_555 1_555
Zn12 O9 1_555 1_555
C19 C20 1_555 1_555
C20 C21 1_555 1_555
C26 C27 1_555 1_555
C27 C28 1_555 1_555
O21 Zn11 1_555 1_555
O22 Zn12 1_555 1_555
C13 C12 1_555 1_555
H7 C13 1_555 1_555
N2 C12 1_555 1_555
C34 N2 1_555 1_555
H20 C35 1_555 1_555
O12 C36 1_555 1_555
O13 C36 1_555 1_555
C36 C37 1_555 1_555
C37 C38 1_555 1_555
C38 H21 1_555 1_555
C39 C38 1_555 1_555
H22 C39 1_555 1_555
C40 C37 1_555 1_555
H23 C40 1_555 1_555
C41 N2 1_555 1_555
C42 C40 1_555 1_555
H24 C42 1_555 1_555
Zn5 O13 1_555 1_555
Zn9 O12 1_555 1_555
C34 C35 1_555 1_555
C39 C41 1_555 1_555
C41 C42 1_555 1_555
Zn1 O1 1_555 1_555
O1 C1 1_555 1_555
O2 C1 1_555 1_555
C1 C2 1_555 1_555
C2 C3 1_555 1_555
C3 H1 1_555 1_555
C7 C2 1_555 1_555
H4 C7 1_555 1_555
O3 Zn1 1_555 1_555
O4 C8 1_555 1_555
C8 O3 1_555 1_555
C9 C8 1_555 1_555
C10 C9 1_555 1_555
H5 C10 1_555 1_555
C11 C10 1_555 1_555
H6 C11 1_555 1_555
C14 C9 1_555 1_555
H8 C14 1_555 1_555
O5 Zn1 1_555 1_555
Zn2 O2 1_555 1_555
Zn6 O4 1_555 1_555
Zn8 O5 1_555 1_555
O14 Zn2 1_555 1_555
O15 Zn2 1_555 1_555
O20 Zn1 1_555 1_555
O5 Zn2 1_555 1_555
O5 Zn6 1_555 1_555
Zn5 O1_2 1_555 1_555
O1_2 C1_2 1_555 1_555
O2_2 C1_2 1_555 1_555
C1_2 C2_2 1_555 1_555
C2_2 C3_2 1_555 1_555
C3_2 H1_2 1_555 1_555
C4_2 C3_2 1_555 1_555
H2_2 C4_2 1_555 1_555
C5_2 C4_2 1_555 1_555
C6_2 C5_2 1_555 1_555
H3_2 C6_2 1_555 1_555
C7_2 C2_2 1_555 1_555
H4_2 C7_2 1_555 1_555
O3_2 Zn5 1_555 1_555
O4_2 C8_2 1_555 1_555
C8_2 O3_2 1_555 1_555
C9_2 C8_2 1_555 1_555
C10_2 C9_2 1_555 1_555
H5_2 C10_2 1_555 1_555
C11_2 C10_2 1_555 1_555
H6_2 C11_2 1_555 1_555
C12_2 C11_2 1_555 1_555
C13_2 C12_2 1_555 1_555
H7_2 C13_2 1_555 1_555
C14_2 C9_2 1_555 1_555
H8_2 C14_2 1_555 1_555
O5_2 Zn5 1_555 1_555
Zn2_2 O2_2 1_555 1_555
N1_2 C5_2 1_555 1_555
N2_2 C12_2 1_555 1_555
O6_2 C15_2 1_555 1_555
O7_2 C15_2 1_555 1_555
C15_2 C16_2 1_555 1_555
C16_2 C17_2 1_555 1_555
C17_2 H9_2 1_555 1_555
C18_2 C16_2 1_555 1_555
H10_2 C18_2 1_555 1_555
C19_2 C17_2 1_555 1_555
H11_2 C19_2 1_555 1_555
C20_2 N1_2 1_555 1_555
C21_2 C18_2 1_555 1_555
H12_2 C21_2 1_555 1_555
H15_2 C26_2 1_555 1_555
C27_2 N1_2 1_555 1_555
H16_2 C28_2 1_555 1_555
O16 C29_2 1_555 1_555
O11_2 C29_2 1_555 1_555
C29_2 C30_2 1_555 1_555
C30_2 C31_2 1_555 1_555
C31_2 H17_2 1_555 1_555
C32_2 C31_2 1_555 1_555
H18_2 C32_2 1_555 1_555
C33_2 C30_2 1_555 1_555
H19_2 C33_2 1_555 1_555
C34_2 N2_2 1_555 1_555
C35_2 C33_2 1_555 1_555
H20_2 C35_2 1_555 1_555
O12_2 C36_2 1_555 1_555
O20 C36_2 1_555 1_555
C36_2 C37_2 1_555 1_555
C37_2 C38_2 1_555 1_555
C38_2 H21_2 1_555 1_555
C39_2 C38_2 1_555 1_555
H22_2 C39_2 1_555 1_555
C40_2 C37_2 1_555 1_555
H23_2 C40_2 1_555 1_555
C41_2 N2_2 1_555 1_555
C42_2 C40_2 1_555 1_555
H24_2 C42_2 1_555 1_555
Zn7 O6_2 1_555 1_555
Zn6_2 O4_2 1_555 1_555
Zn9 O5_2 1_555 1_555
Zn8 O12_2 1_555 1_555
Zn10_2 O11_2 1_555 1_555
O14_2 Zn2_2 1_555 1_555
O15_2 Zn2_2 1_555 1_555
O18_2 Zn7 1_555 1_555
O22 Zn7 1_555 1_555
Zn12 O7_2 1_555 1_555
C6_2 C7_2 1_555 1_555
C13_2 C14_2 1_555 1_555
O5_2 Zn2_2 1_555 1_555
O5_2 Zn6_2 1_555 1_555
C19_2 C20_2 1_555 1_555
C20_2 C21_2 1_555 1_555
C26_2 C27_2 1_555 1_555
C27_2 C28_2 1_555 1_555
C32_2 C34_2 1_555 1_555
C34_2 C35_2 1_555 1_555
C39_2 C41_2 1_555 1_555
C41_2 C42_2 1_555 1_555
O8_2 C22_2 1_555 1_555
O9_2 C22_2 1_555 1_555
C22_2 C23_2 1_555 1_555
C23_2 C24_2 1_555 1_555
C24_2 H13_2 1_555 1_555
C25_2 C23_2 1_555 1_555
H14_2 C25_2 1_555 1_555
Zn10_2 O8_2 1_555 1_555
O17_2 Zn10_2 1_555 1_555
O21 Zn10_2 1_555 1_555
Zn11 O9_2 1_555 1_555
O17 C36_3 1_555 1_555
O13_2 C36_3 1_555 1_555
C36_3 C37_3 1_555 1_555
C37_3 C38_3 1_555 1_555
C38_3 H21_3 1_555 1_555
C39_3 C38_3 1_555 1_555
H22_3 C39_3 1_555 1_555
C40_3 C37_3 1_555 1_555
H23_3 C40_3 1_555 1_555
Zn5_2 O13_2 1_555 1_555
Zn1_2 O1_3 1_555 1_555
O1_3 C1_3 1_555 1_555
O2_3 C1_3 1_555 1_555
C1_3 C2_3 1_555 1_555
C2_3 C3_3 1_555 1_555
C3_3 H1_3 1_555 1_555
C7_3 C2_3 1_555 1_555
H4_3 C7_3 1_555 1_555
O3_3 Zn1_2 1_555 1_555
O18 C8_3 1_555 1_555
C8_3 O3_3 1_555 1_555
C9_3 C8_3 1_555 1_555
C10_3 C9_3 1_555 1_555
H5_3 C10_3 1_555 1_555
C11_3 C10_3 1_555 1_555
H6_3 C11_3 1_555 1_555
C12_3 C11_3 1_555 1_555
C13_3 C12_3 1_555 1_555
H7_3 C13_3 1_555 1_555
C14_3 C9_3 1_555 1_555
H8_3 C14_3 1_555 1_555
O21 Zn1_2 1_555 1_555
Zn11 O2_3 1_555 1_555
N2_3 C12_3 1_555 1_555
C34_3 N2_3 1_555 1_555
H20_3 C35_3 1_555 1_555
C41_3 N2_3 1_555 1_555
H24_3 C42_3 1_555 1_555
O20_2 Zn1_2 1_555 1_555
C13_3 C14_3 1_555 1_555
C34_3 C35_3 1_555 1_555
C41_3 C42_3 1_555 1_555
O6_3 C15_3 1_555 1_555
O14 C15_3 1_555 1_555
C15_3 C16_3 1_555 1_555
C16_3 C17_3 1_555 1_555
C17_3 H9_3 1_555 1_555
C18_3 C16_3 1_555 1_555
H10_3 C18_3 1_555 1_555
Zn6 O6_3 1_555 1_555
O16_2 Zn6 1_555 1_555
O8_3 C22_3 1_555 1_555
O15_2 C22_3 1_555 1_555
C22_3 C23_3 1_555 1_555
C23_3 C24_3 1_555 1_555
C24_3 H13_3 1_555 1_555
C25_3 C23_3 1_555 1_555
H14_3 C25_3 1_555 1_555
Zn9 O8_3 1_555 1_555
O19 Zn9 1_555 1_555
H2_3 C4_3 1_555 1_555
C5_3 C4_3 1_555 1_555
C6_3 C5_3 1_555 1_555
H3_3 C6_3 1_555 1_555
N1_3 C5_3 1_555 1_555
H11_3 C19_3 1_555 1_555
C20_3 N1_3 1_555 1_555
H12_3 C21_3 1_555 1_555
H15_3 C26_3 1_555 1_555
C27_3 N1_3 1_555 1_555
H16_3 C28_3 1_555 1_555
O10_2 C29_3 1_555 1_555
O19 C29_3 1_555 1_555
C29_3 C30_3 1_555 1_555
C30_3 C31_3 1_555 1_555
C31_3 H17_3 1_555 1_555
C32_3 C31_3 1_555 1_555
H18_3 C32_3 1_555 1_555
C33_3 C30_3 1_555 1_555
H19_3 C33_3 1_555 1_555
Zn6_2 O10_2 1_555 1_555
C19_3 C20_3 1_555 1_555
C20_3 C21_3 1_555 1_555
C26_3 C27_3 1_555 1_555
C27_3 C28_3 1_555 1_555
Zn5_2 O1_4 1_555 1_555
O1_4 C1_4 1_555 1_555
O2_4 C1_4 1_555 1_555
C1_4 C2_4 1_555 1_555
C2_4 C3_4 1_555 1_555
C3_4 H1_4 1_555 1_555
C4_4 C3_4 1_555 1_555
H2_4 C4_4 1_555 1_555
C5_4 C4_4 1_555 1_555
C6_4 C5_4 1_555 1_555
H3_4 C6_4 1_555 1_555
C7_4 C2_4 1_555 1_555
H4_4 C7_4 1_555 1_555
O3_4 Zn5_2 1_555 1_555
O18_2 C8_4 1_555 1_555
C8_4 O3_4 1_555 1_555
C9_4 C8_4 1_555 1_555
C10_4 C9_4 1_555 1_555
H5_4 C10_4 1_555 1_555
C11_4 C10_4 1_555 1_555
H6_4 C11_4 1_555 1_555
C14_4 C9_4 1_555 1_555
H8_4 C14_4 1_555 1_555
O22 Zn5_2 1_555 1_555
Zn12 O2_4 1_555 1_555
N1_4 C5_4 1_555 1_555
H11_4 C19_4 1_555 1_555
C20_4 N1_4 1_555 1_555
H12_4 C21_4 1_555 1_555
O8_4 C22_4 1_555 1_555
O15 C22_4 1_555 1_555
C22_4 C23_4 1_555 1_555
C23_4 C24_4 1_555 1_555
C24_4 H13_4 1_555 1_555
C25_4 C23_4 1_555 1_555
H14_4 C25_4 1_555 1_555
C26_4 C24_4 1_555 1_555
H15_4 C26_4 1_555 1_555
C27_4 N1_4 1_555 1_555
C28_4 C25_4 1_555 1_555
H16_4 C28_4 1_555 1_555
Zn8 O8_4 1_555 1_555
O19_2 Zn8 1_555 1_555
C6_4 C7_4 1_555 1_555
C19_4 C20_4 1_555 1_555
C20_4 C21_4 1_555 1_555
C26_4 C27_4 1_555 1_555
C27_4 C28_4 1_555 1_555
C13_4 C12_4 1_555 1_555
H7_4 C13_4 1_555 1_555
N2_4 C12_4 1_555 1_555
O16_2 C29_4 1_555 1_555
O19_2 C29_4 1_555 1_555
C29_4 C30_4 1_555 1_555
C30_4 C31_4 1_555 1_555
C31_4 H17_4 1_555 1_555
C32_4 C31_4 1_555 1_555
H18_4 C32_4 1_555 1_555
C33_4 C30_4 1_555 1_555
H19_4 C33_4 1_555 1_555
C34_4 N2_4 1_555 1_555
C35_4 C33_4 1_555 1_555
H20_4 C35_4 1_555 1_555
C41_4 N2_4 1_555 1_555
H24_4 C42_4 1_555 1_555
C32_4 C34_4 1_555 1_555
C34_4 C35_4 1_555 1_555
C41_4 C42_4 1_555 1_555
O6_4 C15_4 1_555 1_555
O14_2 C15_4 1_555 1_555
C15_4 C16_4 1_555 1_555
C16_4 C17_4 1_555 1_555
C17_4 H9_4 1_555 1_555
C18_4 C16_4 1_555 1_555
H10_4 C18_4 1_555 1_555
Zn6_2 O6_4 1_555 1_555
O17_2 C36_4 1_555 1_555
O20_2 C36_4 1_555 1_555
C36_4 C37_4 1_555 1_555
C37_4 C38_4 1_555 1_555
C38_4 H21_4 1_555 1_555
C39_4 C38_4 1_555 1_555
H22_4 C39_4 1_555 1_555
C40_4 C37_4 1_555 1_555
H23_4 C40_4 1_555 1_555

#END
